
###############################################################################
#
# This file contains modified crystal structure data generated from the
# MOF subset of the Cambridge Structural Database (CSD) v543 
# hosted by the Cambridge Crystallographic Data Centre (CCDC).
#
# This work is licensed under the Creative Commons
# Attribution-NonCommercial-ShareAlike 4.0 International License.
# To view a copy of this license, visit
# http://creativecommons.org/licenses/by-nc-sa/4.0/
# or send a letter to
# Creative Commons, PO Box 1866, Mountain View, CA 94042, USA.
#
# CIF created using the CSD Python API on 29 September 2022
# The structure has been converted into the P1 space group
# The structure has a 3D framework
# The original CSD entry ABADUG is in the triclinic crystal system
# The original CSD entry ABADUG is in a Sohncke space group
# The framework has been calculated to contain at least 10.0% void space
# The void calculation uses a probe of radius 1.32A, grid spacing 0.4
#
###############################################################################

data_ABADUG
_chemical_formula_moiety         '(C153 H90 N6 O25 Zn6)n'
_symmetry_cell_setting           triclinic
_symmetry_space_group_name_H-M   'P 1'
_symmetry_Int_Tables_number      1
_space_group_name_Hall           'P 1'
loop_
_symmetry_equiv_pos_site_id
_symmetry_equiv_pos_as_xyz
1 x,y,z
_cell_length_a                   15.147(3)
_cell_length_b                   15.168(3)
_cell_length_c                   22.006(5)
_cell_angle_alpha                106.792(6)
_cell_angle_beta                 103.569(6)
_cell_angle_gamma                101.715(6)
_cell_volume                     4501.55
loop_
_atom_site_label
_atom_site_type_symbol
_atom_site_fract_x
_atom_site_fract_y
_atom_site_fract_z
_atom_site_U_iso_or_equiv
_atom_site_thermal_displace_type
O7 O 0.0133(5) 0.6253(6) 0.1394(4) 0.0435 Uani
Zn4 Zn 0.15837(6) 0.65220(7) 0.16802(4) 0.0231 Uani
Zn7 Zn 0.09343(6) 0.57847(7) 0.01963(4) 0.0237 Uani
C6 C 0.1352(8) 0.0674(7) 0.0933(6) 0.0387 Uani
C7 C 0.1544(9) 0.0541(8) 0.1543(6) 0.0518 Uani
H4 H 0.162468 0.105729 0.192371 0.0620 Uiso
C9 C 0.1276(8) 0.1615(8) 0.0881(5) 0.0399 Uani
C10 C 0.0961(9) 0.1706(8) 0.0274(5) 0.0474 Uani
C11 C 0.0914(9) 0.2603(8) 0.0235(6) 0.0488 Uani
C12 C 0.1162(8) 0.3418(8) 0.0798(5) 0.0383 Uani
C13 C 0.1491(8) 0.3316(7) 0.1413(5) 0.0476 Uani
H8 H 0.167279 0.384990 0.180291 0.0570 Uiso
C14 C 0.1105(9) 0.4375(8) 0.0757(6) 0.0373 Uani
C51 C 0.1550(8) 0.2442(7) 0.1455(5) 0.0504 Uani
H30 H 0.177770 0.239810 0.187265 0.0600 Uiso
O1 O 0.1324(6) 0.5028(5) 0.1284(4) 0.0407 Uani
O2 O 0.0879(6) 0.4418(6) 0.0175(4) 0.0451 Uani
O11 O 0.1137(6) 0.7238(5) 0.0531(4) 0.0420 Uani
O12 O 0.2400(5) 0.6112(6) 0.0544(4) 0.0452 Uani
H6 H 0.077752 0.117149 0.988416 0.0570 Uiso
H7 H 0.070928 0.265167 0.981639 0.0590 Uiso
N3 N 0.0895(6) 0.5665(7) 0.9246(4) 0.0301 Uani
C1 C 0.1541(9) 0.6526(9) 0.4924(6) 0.0636 Uani
H1 H 0.139470 0.708559 0.490408 0.0760 Uiso
C2 C 0.1412(8) 0.7903(8) 0.1077(6) 0.0326 Uani
C3 C 0.1447(8) 0.8909(7) 0.1052(5) 0.0356 Uani
C4 C 0.1243(8) 0.9048(7) 0.0437(5) 0.0464 Uani
H2 H 0.112293 0.853086 0.004653 0.0560 Uiso
C5 C 0.1219(8) 0.9887(7) 0.0400(5) 0.0473 Uani
C8 C 0.1620(9) 0.9702(8) 0.1613(6) 0.0472 Uani
H5 H 0.178806 0.965895 0.203615 0.0560 Uiso
C15 C 0.4015(8) 0.6295(9) 0.1058(6) 0.0447 Uani
C16 C 0.4201(8) 0.6136(9) 0.0487(5) 0.0505 Uani
H9 H 0.374246 0.611856 0.011576 0.0610 Uiso
C17 C 0.5050(7) 0.5994(9) 0.0419(6) 0.0527 Uani
H10 H 0.514078 0.584598 0.000211 0.0640 Uiso
C18 C 0.5761(8) 0.6074(10) 0.0971(6) 0.0527 Uani
C19 C 0.5520(7) 0.6151(9) 0.1553(5) 0.0618 Uani
H11 H 0.595224 0.613412 0.192478 0.0730 Uiso
C20 C 0.4638(7) 0.6252(9) 0.1584(5) 0.0561 Uani
H12 H 0.448047 0.628955 0.197259 0.0680 Uiso
C21 C 0.6703(8) 0.5944(10) 0.0931(6) 0.0549 Uani
C22 C 0.7417(7) 0.6026(8) 0.1488(5) 0.0424 Uani
H13 H 0.729072 0.610747 0.189080 0.0510 Uiso
C23 C 0.8302(7) 0.5992(8) 0.1459(5) 0.0406 Uani
H14 H 0.875846 0.605296 0.184650 0.0480 Uiso
C24 C 0.8549(8) 0.5869(9) 0.0873(6) 0.0435 Uani
C25 C 0.7775(8) 0.5651(10) 0.0271(6) 0.0652 Uani
C26 C 0.9506(8) 0.5912(8) 0.0850(6) 0.0347 Uani
C27 C 0.3040(8) 0.6341(9) 0.1081(6) 0.0418 Uani
C28 C 0.6893(8) 0.5710(10) 0.0340(6) 0.0680 Uani
C29 C 0.1137(8) 0.6732(8) 0.2947(5) 0.0432 Uani
H17 H 0.067799 0.699366 0.277169 0.0520 Uiso
C30 C 0.1149(8) 0.6581(8) 0.3529(5) 0.0427 Uani
H18 H 0.070582 0.673451 0.373872 0.0510 Uiso
C31 C 0.1815(8) 0.6201(8) 0.3802(5) 0.0451 Uani
C32 C 0.2477(8) 0.6025(8) 0.3477(5) 0.0494 Uani
H19 H 0.296782 0.580421 0.365894 0.0590 Uiso
C33 C 0.2403(8) 0.6173(8) 0.2905(5) 0.0472 Uani
H20 H 0.284072 0.602084 0.268921 0.0570 Uiso
C34 C 0.1817(8) 0.5985(8) 0.4416(5) 0.0534 Uani
C35 C 0.2051(8) 0.5170(8) 0.4494(5) 0.0587 Uani
H21 H 0.225994 0.480302 0.417006 0.0710 Uiso
C36 C 0.1987(9) 0.4874(8) 0.5038(5) 0.0612 Uani
H22 H 0.213961 0.432237 0.507177 0.0730 Uiso
C37 C 0.1697(8) 0.5420(8) 0.5506(5) 0.0511 Uani
C38 C 0.1482(9) 0.6238(9) 0.5459(6) 0.0511 Uani
C39 C 0.1166(8) 0.6702(8) 0.6047(5) 0.0499 Uani
C40 C 0.1237(8) 0.6063(9) 0.6438(5) 0.0464 Uani
C41 C 0.1534(8) 0.5281(8) 0.6112(5) 0.0482 Uani
C42 C 0.1624(8) 0.4571(8) 0.6365(5) 0.0520 Uani
H23 H 0.178147 0.403588 0.613832 0.0620 Uiso
C43 C 0.1469(8) 0.4685(8) 0.6979(5) 0.0514 Uani
H24 H 0.155001 0.421863 0.716589 0.0620 Uiso
C44 C 0.1203(8) 0.5448(8) 0.7327(5) 0.0463 Uani
C45 C 0.1084(8) 0.6151(8) 0.7048(5) 0.0479 Uani
H25 H 0.090292 0.667290 0.726851 0.0570 Uiso
C46 C 0.1111(8) 0.5534(8) 0.8006(5) 0.0425 Uani
C47 C 0.0442(8) 0.5963(8) 0.8231(5) 0.0489 Uani
H26 H 0.005250 0.619909 0.796425 0.0580 Uiso
C48 C 0.0387(8) 0.6018(9) 0.8856(5) 0.0496 Uani
C49 C 0.1530(7) 0.5272(7) 0.9019(5) 0.0378 Uani
H28 H 0.191248 0.503859 0.929189 0.0460 Uiso
C50 C 0.1640(7) 0.5200(7) 0.8411(5) 0.0411 Uani
H29 H 0.208558 0.491647 0.827730 0.0500 Uiso
N1 N 0.1746(6) 0.6527(6) 0.2611(4) 0.0288 Uani
O3 O 0.1674(6) 0.7845(5) 0.1642(4) 0.0418 Uani
O5 O 0.2902(5) 0.6589(6) 0.1643(4) 0.0454 Uani
O8 O 0.9609(5) 0.5586(6) 0.0288(4) 0.0464 Uani
O9 O 0.0943(6) 0.7426(6) 0.6174(4) 0.0707 Uani
H3 H 0.110249 0.994677 0.998133 0.0570 Uiso
H15 H 0.786293 0.547863 0.985266 0.0780 Uiso
H16 H 0.639928 0.558081 0.995384 0.0810 Uiso
H27 H 0.996663 0.632210 0.901160 0.0600 Uiso
Zn9 Zn 0.33603(7) 0.27157(7) 0.72222(5) 0.0270 Uani
C61 C 0.0181(7) 0.2596(8) 0.7309(5) 0.0432 Uani
H36 H 0.027015 0.240358 0.689171 0.0520 Uiso
C62 C 0.0949(7) 0.2796(8) 0.7899(5) 0.0390 Uani
C63 C 0.0719(7) 0.2964(8) 0.8503(5) 0.0396 Uani
H37 H 0.116972 0.302541 0.889297 0.0470 Uiso
C65 C 0.1945(8) 0.2851(8) 0.7879(6) 0.0358 Uani
C66 C 0.3579(9) 0.1325(9) 0.7800(6) 0.0441 Uani
C67 C 0.3631(9) 0.0361(8) 0.7833(6) 0.0466 Uani
C72 C 0.4190(9) 0.0314(8) 0.8409(6) 0.0578 Uani
H42 H 0.453465 0.087924 0.876793 0.0690 Uiso
O17 O 0.2047(5) 0.2619(5) 0.7320(4) 0.0414 Uani
O18 O 0.2556(5) 0.3110(6) 0.8437(4) 0.0442 Uani
O19 O 0.3237(6) 0.1362(6) 0.7223(4) 0.0515 Uani
O20 O 0.3880(6) 0.2014(5) 0.8344(4) 0.0478 Uani
Zn11 Zn 0.40202(7) 0.34751(7) 0.87049(4) 0.0271 Uani
N6 N 0.3237(7) 0.2599(7) 0.6252(4) 0.0397 Uani
O24 O 0.4808(5) 0.2988(6) 0.7521(4) 0.0448 Uani
O27 O 0.3639(6) 0.4196(5) 0.7566(4) 0.0480 Uani
C68 C 0.3146(8) 0.9513(8) 0.7299(6) 0.0553 Uani
H39 H 0.274453 0.952269 0.691129 0.0670 Uiso
C69 C 0.3262(9) 0.8650(9) 0.7344(6) 0.0623 Uani
H40 H 0.297862 0.809396 0.696737 0.0750 Uiso
C70 C 0.3779(9) 0.8580(8) 0.7923(6) 0.0528 Uani
C71 C 0.4246(9) 0.9443(7) 0.8462(6) 0.0595 Uani
H41 H 0.460005 0.942816 0.886454 0.0720 Uiso
C73 C 0.3832(9) 0.7658(8) 0.7973(6) 0.0528 Uani
C74 C 0.3783(8) 0.6893(7) 0.7445(5) 0.0518 Uani
H43 H 0.370581 0.696708 0.703298 0.0620 Uiso
C75 C 0.3839(8) 0.6031(7) 0.7481(5) 0.0494 Uani
H44 H 0.384721 0.554705 0.711112 0.0590 Uiso
C76 C 0.3887(8) 0.5871(8) 0.8096(5) 0.0419 Uani
C77 C 0.3946(8) 0.6632(8) 0.8641(6) 0.0469 Uani
H45 H 0.404722 0.657364 0.905982 0.0560 Uiso
C78 C 0.3858(9) 0.7448(8) 0.8567(6) 0.0523 Uani
H46 H 0.381029 0.791857 0.892726 0.0630 Uiso
C79 C 0.3837(8) 0.4889(8) 0.8110(6) 0.0384 Uani
O22 O 0.4018(6) 0.4809(5) 0.8684(4) 0.0433 Uani
C81 C 0.3592(8) 0.3567(8) 0.0563(5) 0.0500 Uani
H48 H 0.316784 0.375711 0.078034 0.0600 Uiso
C82 C 0.4201(8) 0.3142(9) 0.0828(5) 0.0541 Uani
C83 C 0.4867(8) 0.2934(9) 0.0514(5) 0.0605 Uani
H49 H 0.532759 0.267308 0.068717 0.0720 Uiso
C85 C 0.4193(9) 0.2908(9) 0.1438(5) 0.0613 Uani
C86 C 0.4035(9) 0.3500(9) 0.1974(5) 0.0542 Uani
H51 H 0.398186 0.410154 0.197684 0.0650 Uiso
C87 C 0.3952(9) 0.3234(9) 0.2510(5) 0.0562 Uani
C88 C 0.3935(9) 0.2289(8) 0.2475(5) 0.0632 Uani
C89 C 0.4077(9) 0.1644(9) 0.1942(5) 0.0694 Uani
H52 H 0.410590 0.103389 0.193220 0.0830 Uiso
C90 C 0.4174(9) 0.1960(9) 0.1424(5) 0.0690 Uani
H53 H 0.423032 0.153043 0.104667 0.0830 Uiso
C91 C 0.3805(10) 0.2164(9) 0.3092(5) 0.0656 Uani
C92 C 0.3729(9) 0.3051(9) 0.3510(6) 0.0594 Uani
C93 C 0.3595(9) 0.3134(8) 0.4099(5) 0.0560 Uani
H54 H 0.356190 0.371959 0.436509 0.0670 Uiso
C94 C 0.3503(9) 0.2362(8) 0.4321(5) 0.0606 Uani
C95 C 0.3562(9) 0.1508(8) 0.3916(5) 0.0702 Uani
H55 H 0.349027 0.098633 0.406045 0.0840 Uiso
C96 C 0.3722(9) 0.1383(8) 0.3305(5) 0.0707 Uani
H56 H 0.377227 0.079997 0.304880 0.0850 Uiso
C97 C 0.3420(9) 0.2459(8) 0.5007(5) 0.0563 Uani
C98 C 0.3895(8) 0.3307(7) 0.5556(5) 0.0544 Uani
H57 H 0.426949 0.384130 0.551605 0.0650 Uiso
C99 C 0.3782(8) 0.3314(7) 0.6156(5) 0.0551 Uani
H58 H 0.411579 0.386672 0.652690 0.0660 Uiso
C100 C 0.2729(8) 0.1879(8) 0.5737(5) 0.0561 Uani
H59 H 0.228255 0.141217 0.579115 0.0670 Uiso
C101 C 0.2791(9) 0.1733(8) 0.5081(5) 0.0721 Uani
H60 H 0.242495 0.117591 0.472076 0.0870 Uiso
C102 C 0.3809(9) 0.3742(9) 0.3139(5) 0.0587 Uani
O23 O 0.3767(7) 0.4537(6) 0.3332(4) 0.0849 Uani
C52 C 0.5462(8) 0.3319(9) 0.8078(6) 0.0412 Uani
C53 C 0.6435(8) 0.3259(10) 0.8054(6) 0.0503 Uani
C54 C 0.6553(8) 0.2737(10) 0.7467(6) 0.0700 Uani
H31 H 0.601958 0.242182 0.709224 0.0840 Uiso
C55 C 0.7391(8) 0.2662(10) 0.7412(6) 0.0724 Uani
H32 H 0.744325 0.234470 0.699763 0.0870 Uiso
C56 C 0.8214(8) 0.3072(9) 0.7992(6) 0.0527 Uani
C57 C 0.8075(8) 0.3540(10) 0.8578(6) 0.0674 Uani
H33 H 0.858426 0.381379 0.897161 0.0810 Uiso
C58 C 0.7162(8) 0.3609(10) 0.8589(6) 0.0644 Uani
H34 H 0.708019 0.391554 0.899527 0.0770 Uiso
C59 C 0.9162(8) 0.2971(8) 0.7976(5) 0.0419 Uani
C60 C 0.9329(7) 0.2685(8) 0.7357(5) 0.0431 Uani
H35 H 0.883885 0.255347 0.696854 0.0520 Uiso
C64 C 0.9831(7) 0.3037(8) 0.8514(5) 0.0417 Uani
H38 H 0.969355 0.313682 0.891502 0.0500 Uiso
C80 C 0.3585(8) 0.3729(8) 0.9966(5) 0.0473 Uani
H47 H 0.313399 0.398959 0.977898 0.0560 Uiso
C84 C 0.4820(8) 0.3129(9) 0.9936(5) 0.0519 Uani
H50 H 0.525426 0.297517 0.971728 0.0620 Uiso
N4 N 0.4204(6) 0.3517(6) 0.9672(4) 0.0351 Uani
O16 O 0.5345(5) 0.3661(6) 0.8638(4) 0.0468 Uani
O38 O 0.0189(5) 0.8826(6) 0.3459(4) 0.0441 Uani
Zn15 Zn 0.87477(7) 0.84878(7) 0.32056(5) 0.0266 Uani
C117 C 0.0842(8) 0.9096(9) 0.4015(6) 0.0403 Uani
C118 C 0.1834(8) 0.9115(8) 0.3994(6) 0.0393 Uani
C119 C 0.2468(7) 0.9112(8) 0.4532(5) 0.0470 Uani
H69 H 0.230779 0.915316 0.492056 0.0560 Uiso
C120 C 0.3369(8) 0.9048(8) 0.4512(6) 0.0527 Uani
H70 H 0.380782 0.905802 0.489077 0.0630 Uiso
C121 C 0.3617(9) 0.8969(9) 0.3933(6) 0.0494 Uani
C122 C 0.2914(8) 0.8916(8) 0.3361(6) 0.0450 Uani
H71 H 0.303969 0.882697 0.295707 0.0540 Uiso
C123 C 0.2030(8) 0.8998(8) 0.3409(6) 0.0431 Uani
H72 H 0.156908 0.897244 0.303639 0.0510 Uiso
C124 C 0.4536(8) 0.8843(9) 0.3881(6) 0.0524 Uani
C125 C 0.5316(8) 0.9206(10) 0.4443(6) 0.0667 Uani
H73 H 0.522959 0.951117 0.484678 0.0800 Uiso
C126 C 0.6204(8) 0.9155(9) 0.4456(6) 0.0619 Uani
H74 H 0.669692 0.940433 0.485778 0.0740 Uiso
C127 C 0.6371(8) 0.8704(9) 0.3831(6) 0.0444 Uani
C128 C 0.5539(8) 0.8286(8) 0.3256(6) 0.0547 Uani
H75 H 0.558967 0.795505 0.284361 0.0660 Uiso
C129 C 0.4687(8) 0.8363(9) 0.3303(6) 0.0570 Uani
H76 H 0.416700 0.807195 0.291772 0.0680 Uiso
C130 C 0.7318(8) 0.8644(9) 0.3817(6) 0.0370 Uani
H80 H 0.018864 0.853927 0.582605 0.0750 Uiso
O30 O 0.0690(5) 0.9319(6) 0.4572(4) 0.0493 Uani
O32 O 0.7964(6) 0.8983(6) 0.4364(4) 0.0486 Uani
O33 O 0.7404(5) 0.8284(6) 0.3247(4) 0.0421 Uani
Zn21 Zn 0.94139(7) 0.92412(7) 0.46933(5) 0.0274 Uani
N9 N 0.8564(6) 0.8452(7) 0.2250(4) 0.0319 Uani
O40 O 0.8714(6) 0.7173(5) 0.3278(4) 0.0471 Uani
O42 O 0.8900(6) 0.9949(5) 0.3565(4) 0.0466 Uani
C131 C 0.8998(9) 0.0010(8) 0.5935(5) 0.0600 Uani
H77 H 0.874305 0.038261 0.571396 0.0720 Uiso
C132 C 0.8869(8) 0.0070(8) 0.6529(5) 0.0592 Uani
H78 H 0.851019 0.045471 0.669193 0.0710 Uiso
C140 C 0.8778(10) 0.0481(9) 0.8540(5) 0.0705 Uani
H82 H 0.862968 0.101209 0.878200 0.0840 Uiso
C141 C 0.8973(10) 0.0452(9) 0.7934(5) 0.0675 Uani
H83 H 0.901160 0.097854 0.779570 0.0810 Uiso
C145 C 0.8457(9) 0.0223(9) 0.9921(5) 0.0696 Uani
H84 H 0.834103 0.079938 0.991370 0.0840 Uiso
O41 O 0.9484(6) 0.0574(5) 0.4674(4) 0.0467 Uani
C146 C 0.8528(9) 0.9065(9) 0.0463(5) 0.0585 Uani
C148 C 0.8488(9) 0.8774(9) 0.1041(5) 0.0539 Uani
C149 C 0.7843(8) 0.8997(9) 0.1392(5) 0.0579 Uani
H86 H 0.738579 0.926415 0.122213 0.0690 Uiso
C150 C 0.7873(8) 0.8824(9) 0.1997(5) 0.0537 Uani
H87 H 0.743384 0.896141 0.221518 0.0650 Uiso
C151 C 0.9174(8) 0.8257(8) 0.1918(5) 0.0423 Uani
H88 H 0.965238 0.802596 0.210460 0.0510 Uiso
C152 C 0.9143(8) 0.8377(8) 0.1308(5) 0.0489 Uani
H89 H 0.956332 0.818765 0.108598 0.0580 Uiso
C153 C 0.8431(9) 0.9932(9) 0.0474(6) 0.0676 Uani
C103 C 0.8930(9) 0.7091(9) 0.3847(6) 0.0435 Uani
C104 C 0.8924(9) 0.6141(8) 0.3900(6) 0.0462 Uani
C105 C 0.8828(9) 0.5397(9) 0.3348(6) 0.0576 Uani
H61 H 0.878299 0.550033 0.294644 0.0690 Uiso
C106 C 0.8792(10) 0.4435(9) 0.3367(6) 0.0611 Uani
H62 H 0.868278 0.391821 0.297898 0.0730 Uiso
C107 C 0.8924(9) 0.4318(9) 0.3970(6) 0.0528 Uani
C108 C 0.9000(9) 0.5070(7) 0.4532(6) 0.0540 Uani
H63 H 0.904079 0.498144 0.493718 0.0650 Uiso
C109 C 0.9015(8) 0.5999(8) 0.4475(6) 0.0515 Uani
H64 H 0.909154 0.651419 0.485540 0.0610 Uiso
C110 C 0.8977(9) 0.3361(8) 0.4019(6) 0.0506 Uani
C111 C 0.9491(10) 0.3278(9) 0.4582(7) 0.0631 Uani
H65 H 0.985229 0.383583 0.494241 0.0760 Uiso
C112 C 0.9501(9) 0.2411(8) 0.4642(6) 0.0541 Uani
H66 H 0.978105 0.237904 0.505599 0.0650 Uiso
C113 C 0.9102(8) 0.1597(8) 0.4098(6) 0.0407 Uani
C114 C 0.8605(8) 0.1673(8) 0.3526(6) 0.0526 Uani
H67 H 0.831213 0.112535 0.314404 0.0630 Uiso
C115 C 0.8531(9) 0.2547(8) 0.3507(6) 0.0567 Uani
H68 H 0.815146 0.257138 0.311678 0.0680 Uiso
C116 C 0.9170(9) 0.0648(8) 0.4122(6) 0.0378 Uani
C133 C 0.9275(9) 0.9550(9) 0.6914(5) 0.0568 Uani
C134 C 0.9733(9) 0.8975(9) 0.6617(5) 0.0623 Uani
H79 H 0.998434 0.859230 0.683009 0.0750 Uiso
C135 C 0.9844(9) 0.8934(9) 0.5999(5) 0.0625 Uani
C136 C 0.9106(9) 0.9606(9) 0.7556(5) 0.0561 Uani
C137 C 0.9144(8) 0.8880(8) 0.7803(5) 0.0497 Uani
H81 H 0.928486 0.834110 0.756388 0.0600 Uiso
C138 C 0.8980(9) 0.8930(10) 0.8398(6) 0.0546 Uani
C139 C 0.8804(10) 0.9756(9) 0.8767(6) 0.0610 Uani
C142 C 0.9005(9) 0.8257(9) 0.8775(5) 0.0533 Uani
C143 C 0.8811(9) 0.8748(9) 0.9407(6) 0.0548 Uani
C144 C 0.8652(9) 0.9651(9) 0.9405(6) 0.0614 Uani
C147 C 0.8748(8) 0.8448(9) 0.9944(5) 0.0513 Uani
H85 H 0.884674 0.786756 0.995667 0.0610 Uiso
N7 N 0.9480(7) 0.9435(7) 0.5636(5) 0.0388 Uani
O29 O 0.9150(7) 0.7503(7) 0.8624(4) 0.0820 Uani
O34 O 0.9167(6) 0.7780(6) 0.4392(4) 0.0549 Uani
H90 H 0.834686 0.034293 0.084714 0.0810 Uiso
loop_
_atom_site_aniso_label
_atom_site_aniso_U_11
_atom_site_aniso_U_22
_atom_site_aniso_U_33
_atom_site_aniso_U_23
_atom_site_aniso_U_13
_atom_site_aniso_U_12
O7 0.034 0.059 0.044 0.026 0.013 0.015
Zn4 0.0281 0.0299 0.023 0.0158 0.0143 0.0162
Zn7 0.0311 0.0291 0.0223 0.0146 0.0144 0.0175
C6 0.067 0.027 0.036 0.019 0.025 0.021
C7 0.094 0.029 0.039 0.016 0.021 0.026
C9 0.068 0.029 0.036 0.02 0.023 0.022
C10 0.089 0.026 0.033 0.013 0.02 0.024
C11 0.092 0.032 0.03 0.02 0.017 0.023
C12 0.068 0.028 0.034 0.019 0.026 0.022
C13 0.086 0.03 0.033 0.014 0.021 0.023
C14 0.06 0.031 0.037 0.021 0.022 0.026
C51 0.085 0.036 0.037 0.017 0.019 0.026
O1 0.073 0.028 0.037 0.021 0.024 0.026
O2 0.072 0.033 0.04 0.025 0.013 0.023
O11 0.069 0.024 0.046 0.023 0.02 0.023
O12 0.018 0.087 0.046 0.038 0.014 0.022
N3 0.04 0.043 0.016 0.018 0.011 0.017
C1 0.089 0.07 0.047 0.028 0.031 0.033
C2 0.046 0.026 0.045 0.022 0.023 0.027
C3 0.055 0.026 0.045 0.022 0.026 0.026
C4 0.081 0.028 0.041 0.016 0.027 0.024
C5 0.086 0.031 0.038 0.02 0.027 0.024
C8 0.084 0.029 0.042 0.021 0.024 0.027
C15 0.028 0.081 0.036 0.019 0.017 0.033
C16 0.028 0.097 0.037 0.029 0.014 0.028
C17 0.027 0.103 0.039 0.028 0.02 0.026
C18 0.027 0.101 0.036 0.017 0.017 0.033
C19 0.028 0.122 0.034 0.017 0.01 0.034
C20 0.028 0.11 0.03 0.012 0.014 0.032
C21 0.024 0.097 0.042 0.007 0.015 0.034
C22 0.023 0.074 0.041 0.023 0.022 0.019
C23 0.02 0.069 0.045 0.03 0.014 0.02
C24 0.027 0.068 0.043 0.02 0.017 0.022
C25 0.027 0.113 0.045 0.006 0.015 0.026
C26 0.022 0.047 0.045 0.022 0.015 0.017
C27 0.025 0.072 0.041 0.024 0.015 0.029
C28 0.028 0.126 0.041 0.009 0.011 0.033
C29 0.053 0.055 0.039 0.026 0.025 0.026
C30 0.055 0.055 0.037 0.025 0.03 0.025
C31 0.07 0.052 0.036 0.028 0.029 0.033
C32 0.071 0.068 0.035 0.032 0.029 0.04
C33 0.066 0.072 0.031 0.03 0.03 0.043
C34 0.087 0.06 0.039 0.031 0.034 0.039
C35 0.103 0.066 0.038 0.033 0.04 0.047
C36 0.108 0.064 0.04 0.031 0.037 0.05
C37 0.087 0.061 0.032 0.028 0.034 0.043
C38 0.083 0.06 0.034 0.029 0.031 0.038
C39 0.077 0.062 0.035 0.029 0.027 0.043
C40 0.072 0.061 0.029 0.026 0.028 0.038
C41 0.08 0.057 0.031 0.029 0.029 0.036
C42 0.086 0.055 0.038 0.027 0.032 0.039
C43 0.083 0.057 0.039 0.031 0.032 0.037
C44 0.068 0.058 0.038 0.029 0.03 0.038
C45 0.072 0.061 0.035 0.028 0.03 0.039
C46 0.064 0.055 0.033 0.026 0.03 0.036
C47 0.066 0.077 0.031 0.032 0.025 0.048
C48 0.067 0.082 0.028 0.033 0.026 0.048
C49 0.049 0.05 0.028 0.018 0.019 0.029
C50 0.056 0.053 0.032 0.019 0.024 0.035
N1 0.044 0.031 0.031 0.019 0.024 0.026
O3 0.06 0.033 0.048 0.028 0.018 0.025
O5 0.029 0.079 0.042 0.022 0.024 0.029
O8 0.021 0.063 0.049 0.006 0.017 0.012
O9 0.128 0.086 0.044 0.044 0.048 0.072
Zn9 0.034 0.0333 0.0247 0.0162 0.015 0.0172
C61 0.035 0.065 0.033 0.015 0.016 0.019
C62 0.031 0.057 0.039 0.02 0.019 0.02
C63 0.033 0.062 0.038 0.031 0.015 0.02
C65 0.033 0.044 0.047 0.026 0.021 0.022
C66 0.058 0.039 0.05 0.023 0.03 0.019
C67 0.068 0.037 0.043 0.019 0.021 0.021
C72 0.09 0.034 0.044 0.015 0.01 0.018
O17 0.038 0.054 0.048 0.024 0.029 0.02
O18 0.033 0.059 0.051 0.028 0.017 0.018
O19 0.067 0.038 0.057 0.022 0.018 0.025
O20 0.077 0.033 0.05 0.019 0.036 0.026
Zn11 0.0348 0.0349 0.0235 0.0168 0.0154 0.0182
N6 0.05 0.05 0.014 0.006 0.014 0.007
O24 0.026 0.073 0.05 0.029 0.021 0.024
O27 0.073 0.027 0.049 0.017 0.02 0.019
C68 0.076 0.038 0.049 0.019 0.007 0.02
C69 0.09 0.032 0.051 0.016 0.001 0.011
C70 0.084 0.031 0.043 0.017 0.014 0.017
C71 0.093 0.035 0.043 0.016 0.003 0.021
C73 0.087 0.035 0.042 0.018 0.017 0.027
C74 0.097 0.035 0.036 0.024 0.025 0.024
C75 0.085 0.034 0.039 0.02 0.025 0.021
C76 0.066 0.03 0.039 0.02 0.019 0.019
C77 0.079 0.037 0.037 0.018 0.027 0.025
C78 0.092 0.036 0.037 0.014 0.028 0.025
C79 0.053 0.03 0.046 0.022 0.02 0.023
O22 0.066 0.035 0.046 0.025 0.027 0.024
C81 0.07 0.072 0.033 0.028 0.037 0.035
C82 0.078 0.075 0.035 0.034 0.034 0.036
C83 0.071 0.088 0.046 0.036 0.03 0.041
C85 0.098 0.075 0.032 0.03 0.031 0.041
C86 0.088 0.066 0.032 0.032 0.031 0.036
C87 0.095 0.065 0.03 0.026 0.035 0.037
C88 0.113 0.067 0.03 0.028 0.039 0.034
C89 0.13 0.069 0.032 0.028 0.045 0.039
C90 0.125 0.074 0.031 0.03 0.043 0.039
C91 0.115 0.064 0.032 0.025 0.035 0.03
C92 0.101 0.061 0.034 0.027 0.033 0.032
C93 0.092 0.061 0.033 0.026 0.031 0.033
C94 0.102 0.057 0.033 0.021 0.033 0.023
C95 0.124 0.055 0.037 0.021 0.035 0.019
C96 0.125 0.056 0.041 0.021 0.041 0.024
C97 0.094 0.048 0.033 0.021 0.029 0.013
C98 0.087 0.047 0.035 0.02 0.031 0.01
C99 0.084 0.047 0.033 0.014 0.03 0.003
C100 0.084 0.046 0.035 0.016 0.03 -0.004
C101 0.105 0.057 0.038 0.012 0.025 -0.007
C102 0.103 0.061 0.033 0.026 0.037 0.036
O23 0.165 0.07 0.053 0.03 0.059 0.063
C52 0.034 0.059 0.044 0.026 0.02 0.021
C53 0.031 0.082 0.04 0.017 0.015 0.023
C54 0.035 0.11 0.047 0.003 0.007 0.026
C55 0.038 0.114 0.048 0 0.01 0.032
C56 0.029 0.088 0.039 0.014 0.013 0.022
C57 0.033 0.11 0.045 0.004 0.013 0.024
C58 0.034 0.107 0.042 0.005 0.018 0.023
C59 0.03 0.069 0.034 0.02 0.017 0.019
C60 0.035 0.066 0.034 0.019 0.014 0.021
C64 0.031 0.068 0.038 0.026 0.02 0.018
C80 0.065 0.062 0.034 0.026 0.028 0.031
C84 0.051 0.089 0.045 0.037 0.036 0.038
N4 0.041 0.043 0.028 0.017 0.016 0.014
O16 0.039 0.064 0.045 0.017 0.023 0.023
O38 0.023 0.073 0.054 0.034 0.025 0.019
Zn15 0.0313 0.0319 0.0295 0.0181 0.0171 0.0167
C117 0.031 0.054 0.05 0.028 0.023 0.016
C118 0.033 0.048 0.048 0.018 0.022 0.023
C119 0.036 0.068 0.042 0.012 0.022 0.025
C120 0.034 0.079 0.045 0.015 0.017 0.021
C121 0.035 0.067 0.047 0.013 0.019 0.02
C122 0.04 0.056 0.047 0.02 0.023 0.017
C123 0.04 0.052 0.047 0.023 0.02 0.018
C124 0.032 0.072 0.046 0.004 0.017 0.019
C125 0.04 0.103 0.041 -0.007 0.017 0.029
C126 0.037 0.095 0.041 0.001 0.015 0.023
C127 0.034 0.061 0.038 0.01 0.019 0.015
C128 0.039 0.072 0.042 -0.001 0.014 0.022
C129 0.032 0.078 0.042 -0.002 0.008 0.014
C130 0.03 0.045 0.046 0.022 0.02 0.014
O30 0.034 0.073 0.049 0.019 0.025 0.022
O32 0.039 0.069 0.049 0.031 0.017 0.021
O33 0.022 0.052 0.049 0.009 0.018 0.009
Zn21 0.0347 0.0331 0.0269 0.0174 0.0173 0.0173
N9 0.031 0.051 0.02 0.018 0.01 0.015
O40 0.072 0.034 0.056 0.028 0.034 0.025
O42 0.072 0.028 0.054 0.02 0.032 0.022
C131 0.104 0.076 0.04 0.039 0.04 0.063
C132 0.1 0.073 0.044 0.037 0.045 0.058
C140 0.129 0.065 0.041 0.026 0.044 0.047
C141 0.123 0.063 0.043 0.031 0.041 0.047
C145 0.116 0.073 0.044 0.032 0.037 0.048
O41 0.069 0.026 0.053 0.021 0.02 0.019
C146 0.083 0.078 0.037 0.031 0.032 0.04
C148 0.069 0.077 0.036 0.032 0.027 0.034
C149 0.065 0.098 0.039 0.04 0.025 0.05
C150 0.057 0.098 0.043 0.043 0.029 0.058
C151 0.047 0.061 0.037 0.026 0.022 0.031
C152 0.057 0.071 0.037 0.028 0.026 0.031
C153 0.105 0.079 0.043 0.032 0.037 0.046
C103 0.063 0.038 0.05 0.024 0.038 0.022
C104 0.07 0.039 0.05 0.026 0.034 0.026
C105 0.095 0.043 0.051 0.026 0.032 0.03
C106 0.105 0.041 0.052 0.022 0.034 0.033
C107 0.088 0.035 0.05 0.024 0.028 0.028
C108 0.092 0.035 0.052 0.026 0.03 0.03
C109 0.082 0.038 0.054 0.024 0.034 0.032
C110 0.08 0.035 0.048 0.022 0.022 0.027
C111 0.088 0.034 0.056 0.011 0.002 0.025
C112 0.08 0.034 0.047 0.019 0.007 0.022
C113 0.062 0.03 0.044 0.02 0.024 0.024
C114 0.079 0.032 0.048 0.02 0.013 0.018
C115 0.088 0.037 0.048 0.023 0.009 0.027
C116 0.053 0.029 0.049 0.021 0.029 0.023
C133 0.095 0.066 0.041 0.037 0.036 0.046
C134 0.104 0.074 0.041 0.038 0.031 0.058
C135 0.101 0.073 0.045 0.031 0.037 0.06
C136 0.096 0.061 0.038 0.031 0.036 0.042
C137 0.081 0.063 0.034 0.03 0.035 0.043
C138 0.086 0.066 0.038 0.033 0.033 0.04
C139 0.105 0.065 0.037 0.029 0.036 0.043
C142 0.08 0.07 0.041 0.034 0.037 0.045
C143 0.08 0.07 0.037 0.032 0.029 0.038
C144 0.1 0.069 0.039 0.031 0.032 0.045
C147 0.073 0.07 0.038 0.033 0.033 0.039
N7 0.051 0.037 0.043 0.024 0.021 0.022
O29 0.142 0.09 0.076 0.058 0.072 0.078
O34 0.081 0.039 0.054 0.02 0.034 0.017
loop_
_geom_bond_atom_site_label_1
_geom_bond_atom_site_label_2
_geom_bond_site_symmetry_1
_geom_bond_site_symmetry_2
Zn4 O7 1_555 1_555
Zn7 O2 1_555 1_555
C7 C6 1_555 1_555
H4 C7 1_555 1_555
C9 C6 1_555 1_555
C10 C9 1_555 1_555
C11 C10 1_555 1_555
C12 C11 1_555 1_555
C13 C12 1_555 1_555
H8 C13 1_555 1_555
C14 C12 1_555 1_555
C51 C9 1_555 1_555
H30 C51 1_555 1_555
O1 C14 1_555 1_555
O2 C14 1_555 1_555
Zn4 O1 1_555 1_555
O11 Zn7 1_555 1_555
O12 Zn7 1_555 1_555
C13 C51 1_555 1_555
Zn4 N1 1_555 1_555
C1 H1 1_555 1_555
C2 C3 1_555 1_555
C3 C4 1_555 1_555
C4 H2 1_555 1_555
C5 C4 1_555 1_555
C8 C3 1_555 1_555
H5 C8 1_555 1_555
C15 C16 1_555 1_555
C16 H9 1_555 1_555
C17 C16 1_555 1_555
H10 C17 1_555 1_555
C18 C17 1_555 1_555
C19 C18 1_555 1_555
H11 C19 1_555 1_555
C20 C15 1_555 1_555
H12 C20 1_555 1_555
C21 C18 1_555 1_555
C22 C21 1_555 1_555
H13 C22 1_555 1_555
C23 C22 1_555 1_555
H14 C23 1_555 1_555
C24 C23 1_555 1_555
C25 C24 1_555 1_555
C26 C24 1_555 1_555
C27 C15 1_555 1_555
C28 C21 1_555 1_555
C29 H17 1_555 1_555
C30 C29 1_555 1_555
H18 C30 1_555 1_555
C31 C30 1_555 1_555
C32 C31 1_555 1_555
H19 C32 1_555 1_555
C33 C32 1_555 1_555
H20 C33 1_555 1_555
C34 C1 1_555 1_555
C35 C34 1_555 1_555
H21 C35 1_555 1_555
C36 C35 1_555 1_555
H22 C36 1_555 1_555
C37 C36 1_555 1_555
C38 C1 1_555 1_555
C39 C38 1_555 1_555
C40 C39 1_555 1_555
C41 C37 1_555 1_555
C42 C41 1_555 1_555
H23 C42 1_555 1_555
C43 C42 1_555 1_555
H24 C43 1_555 1_555
C44 C43 1_555 1_555
C45 C40 1_555 1_555
H25 C45 1_555 1_555
C46 C44 1_555 1_555
C47 C46 1_555 1_555
H26 C47 1_555 1_555
C48 C47 1_555 1_555
C49 H28 1_555 1_555
C50 C46 1_555 1_555
H29 C50 1_555 1_555
N1 C29 1_555 1_555
N3 C48 1_555 1_555
O3 Zn4 1_555 1_555
O11 C2 1_555 1_555
O5 Zn4 1_555 1_555
O12 C27 1_555 1_555
O8 C26 1_555 1_555
O9 C39 1_555 1_555
C2 O3 1_555 1_555
C19 C20 1_555 1_555
C25 C28 1_555 1_555
C27 O5 1_555 1_555
C31 C34 1_555 1_555
C33 N1 1_555 1_555
C37 C38 1_555 1_555
C40 C41 1_555 1_555
C44 C45 1_555 1_555
C49 C50 1_555 1_555
C49 N3 1_555 1_555
Zn9 O17 1_555 1_555
H36 C61 1_555 1_555
C62 C61 1_555 1_555
C63 C62 1_555 1_555
H37 C63 1_555 1_555
C65 C62 1_555 1_555
C66 C67 1_555 1_555
C72 C67 1_555 1_555
H42 C72 1_555 1_555
O17 C65 1_555 1_555
O18 C65 1_555 1_555
O19 Zn9 1_555 1_555
O20 C66 1_555 1_555
Zn11 O18 1_555 1_555
N6 Zn9 1_555 1_555
O24 Zn9 1_555 1_555
O27 Zn9 1_555 1_555
C66 O19 1_555 1_555
O20 Zn11 1_555 1_555
C68 H39 1_555 1_555
C69 C68 1_555 1_555
H40 C69 1_555 1_555
C70 C69 1_555 1_555
C71 C70 1_555 1_555
H41 C71 1_555 1_555
C73 C70 1_555 1_555
C74 C73 1_555 1_555
H43 C74 1_555 1_555
C75 C74 1_555 1_555
H44 C75 1_555 1_555
C76 C75 1_555 1_555
C77 C76 1_555 1_555
H45 C77 1_555 1_555
C78 C73 1_555 1_555
H46 C78 1_555 1_555
C79 C76 1_555 1_555
O27 C79 1_555 1_555
O22 C79 1_555 1_555
Zn11 O22 1_555 1_555
C77 C78 1_555 1_555
H48 C81 1_555 1_555
C82 C81 1_555 1_555
C83 C82 1_555 1_555
H49 C83 1_555 1_555
C85 C82 1_555 1_555
C86 C85 1_555 1_555
H51 C86 1_555 1_555
C87 C86 1_555 1_555
C88 C87 1_555 1_555
C89 C88 1_555 1_555
H52 C89 1_555 1_555
C90 C85 1_555 1_555
H53 C90 1_555 1_555
C91 C88 1_555 1_555
C92 C91 1_555 1_555
C93 C92 1_555 1_555
H54 C93 1_555 1_555
C94 C93 1_555 1_555
C95 C94 1_555 1_555
H55 C95 1_555 1_555
C96 C91 1_555 1_555
H56 C96 1_555 1_555
C97 C94 1_555 1_555
C98 C97 1_555 1_555
H57 C98 1_555 1_555
C99 C98 1_555 1_555
H58 C99 1_555 1_555
C100 H59 1_555 1_555
C101 C97 1_555 1_555
H60 C101 1_555 1_555
C102 C87 1_555 1_555
N6 C99 1_555 1_555
O23 C102 1_555 1_555
C89 C90 1_555 1_555
C92 C102 1_555 1_555
C95 C96 1_555 1_555
C100 C101 1_555 1_555
C100 N6 1_555 1_555
Zn11 N4 1_555 1_555
C52 C53 1_555 1_555
C53 C54 1_555 1_555
C54 H31 1_555 1_555
C55 C54 1_555 1_555
H32 C55 1_555 1_555
C56 C55 1_555 1_555
C57 C56 1_555 1_555
H33 C57 1_555 1_555
C58 C53 1_555 1_555
H34 C58 1_555 1_555
C59 C56 1_555 1_555
C60 C59 1_555 1_555
H35 C60 1_555 1_555
C64 C59 1_555 1_555
H38 C64 1_555 1_555
C80 H47 1_555 1_555
H50 C84 1_555 1_555
N4 C80 1_555 1_555
O24 C52 1_555 1_555
O16 Zn11 1_555 1_555
C52 O16 1_555 1_555
C57 C58 1_555 1_555
C84 N4 1_555 1_555
Zn15 O33 1_555 1_555
C117 C118 1_555 1_555
C118 C119 1_555 1_555
C119 H69 1_555 1_555
C120 C119 1_555 1_555
H70 C120 1_555 1_555
C121 C120 1_555 1_555
C122 C121 1_555 1_555
H71 C122 1_555 1_555
C123 C118 1_555 1_555
H72 C123 1_555 1_555
C124 C121 1_555 1_555
C125 C124 1_555 1_555
H73 C125 1_555 1_555
C126 C125 1_555 1_555
H74 C126 1_555 1_555
C127 C126 1_555 1_555
C128 C127 1_555 1_555
H75 C128 1_555 1_555
C129 C124 1_555 1_555
H76 C129 1_555 1_555
C130 C127 1_555 1_555
O38 C117 1_555 1_555
O32 C130 1_555 1_555
O33 C130 1_555 1_555
Zn21 O32 1_555 1_555
N9 Zn15 1_555 1_555
O40 Zn15 1_555 1_555
O42 Zn15 1_555 1_555
C117 O30 1_555 1_555
C122 C123 1_555 1_555
C128 C129 1_555 1_555
C131 H77 1_555 1_555
C132 C131 1_555 1_555
H78 C132 1_555 1_555
H82 C140 1_555 1_555
H83 C141 1_555 1_555
H84 C145 1_555 1_555
C140 C141 1_555 1_555
C148 C146 1_555 1_555
C149 C148 1_555 1_555
H86 C149 1_555 1_555
C150 C149 1_555 1_555
H87 C150 1_555 1_555
C151 H88 1_555 1_555
C152 C148 1_555 1_555
H89 C152 1_555 1_555
N9 C150 1_555 1_555
C146 C153 1_555 1_555
C151 C152 1_555 1_555
C151 N9 1_555 1_555
Zn21 N7 1_555 1_555
C103 C104 1_555 1_555
C104 C105 1_555 1_555
C105 H61 1_555 1_555
C106 C105 1_555 1_555
H62 C106 1_555 1_555
C107 C106 1_555 1_555
C108 C107 1_555 1_555
H63 C108 1_555 1_555
C109 C104 1_555 1_555
H64 C109 1_555 1_555
C110 C107 1_555 1_555
C111 C110 1_555 1_555
H65 C111 1_555 1_555
C112 C111 1_555 1_555
H66 C112 1_555 1_555
C113 C112 1_555 1_555
C114 C113 1_555 1_555
H67 C114 1_555 1_555
C115 C110 1_555 1_555
H68 C115 1_555 1_555
C116 C113 1_555 1_555
C134 C133 1_555 1_555
H79 C134 1_555 1_555
C135 C134 1_555 1_555
C136 C133 1_555 1_555
C137 C136 1_555 1_555
H81 C137 1_555 1_555
C138 C137 1_555 1_555
C139 C138 1_555 1_555
C142 C138 1_555 1_555
C143 C142 1_555 1_555
C144 C139 1_555 1_555
C147 C143 1_555 1_555
H85 C147 1_555 1_555
O29 C142 1_555 1_555
O34 Zn21 1_555 1_555
O40 C103 1_555 1_555
O41 C116 1_555 1_555
C103 O34 1_555 1_555
C108 C109 1_555 1_555
C114 C115 1_555 1_555
C135 N7 1_555 1_555
C143 C144 1_555 1_555

#END
