
###############################################################################
#
# This file contains modified crystal structure data generated from the
# MOF subset of the Cambridge Structural Database (CSD) v543 
# hosted by the Cambridge Crystallographic Data Centre (CCDC).
#
# This work is licensed under the Creative Commons
# Attribution-NonCommercial-ShareAlike 4.0 International License.
# To view a copy of this license, visit
# http://creativecommons.org/licenses/by-nc-sa/4.0/
# or send a letter to
# Creative Commons, PO Box 1866, Mountain View, CA 94042, USA.
#
# CIF created using the CSD Python API on 29 September 2022
# The structure has been converted into the P1 space group
# The structure has a 3D framework
# The original CSD entry ABAVOP is in the monoclinic crystal system
# The framework has been calculated to contain at least 10.0% void space
# The void calculation uses a probe of radius 1.32A, grid spacing 0.4
#
###############################################################################

data_ABAVOP
_chemical_formula_moiety         '(C48 H32 Co8 N8 O16)n'
_symmetry_cell_setting           triclinic
_symmetry_space_group_name_H-M   'P 1'
_symmetry_Int_Tables_number      1
_space_group_name_Hall           'P 1'
loop_
_symmetry_equiv_pos_site_id
_symmetry_equiv_pos_as_xyz
1 x,y,z
_cell_length_a                   9.778(3)
_cell_length_b                   13.212(4)
_cell_length_c                   10.266(3)
_cell_angle_alpha                90
_cell_angle_beta                 104.183(5)
_cell_angle_gamma                90
_cell_volume                     1285.81
loop_
_atom_site_label
_atom_site_type_symbol
_atom_site_fract_x
_atom_site_fract_y
_atom_site_fract_z
Co2 Co 0.0000 -0.0000 0.5000
N5 N 0.0683(3) 0.1355(2) 0.6187(3)
O14 O 0.1144(3) 0.03861(19) 0.3639(2)
Co1 Co 0.0000 0.5000 0.0000
Co2_2 Co 0.0000 1.0000 0.5000
N4 N 0.0679(3) 0.3627(2) 0.1054(3)
C19 C 0.2055(4) 0.3444(3) 0.1578(4)
H13 H 0.2715 0.3922 0.1436
C20 C 0.2549(4) 0.2582(3) 0.2320(4)
H14 H 0.3521 0.2481 0.2670
C21 C 0.1584(4) 0.1878(3) 0.2534(4)
C22 C 0.0162(4) 0.2061(3) 0.1963(4)
C24 C 0.2093(4) 0.0949(2) 0.3386(3)
O7 O 0.3387(3) 0.08251(18) 0.3747(2)
O9 O 0.1613(3) 0.58251(18) 0.1253(2)
O11 O 0.1602(2) 0.91035(18) 0.6134(2)
Co7 Co 0.5000 0.5000 0.0000
Co8 Co 0.5000 -0.0000 0.5000
Co1_2 Co 0.0000 0.5000 1.0000
H7 H 0.0524 0.8412 0.7936
C11 C 0.0233(4) 0.7064(3) 0.8748(4)
H8 H 0.1200 0.6949 0.9114
C13 C 0.1313(4) 0.1330(3) 0.7501(4)
H9 H 0.1459 0.0695 0.7925
C14 C 0.1758(4) 0.2174(3) 0.8266(4)
H10 H 0.2208 0.2109 0.9183
C15 C 0.1540(4) 0.3123(3) 0.7679(4)
C16 C 0.0864(4) 0.3175(3) 0.6334(4)
H11 H 0.0668 0.3804 0.5902
C17 C 0.0479(4) 0.2283(3) 0.5631(4)
H12 H 0.0049 0.2329 0.4708
C18 C 0.2074(4) 0.4072(3) 0.8467(3)
O5 O 0.3398(2) 0.41035(18) 0.8866(2)
O6 O 0.1225(3) 0.47373(19) 0.8618(3)
Co7_2 Co 0.5000 0.5000 1.0000
Co8_2 Co 0.5000 1.0000 0.5000
Co2_3 Co 1.0000 -0.0000 0.5000
O12 O 0.8398(2) 0.08965(18) 0.3866(2)
Co1_3 Co 1.0000 0.5000 0.0000
Co2_4 Co 1.0000 1.0000 0.5000
N1 N 0.9317(3) 0.8645(2) 0.3813(3)
C1 C 0.8687(4) 0.8670(3) 0.2499(4)
H1 H 0.8541 0.9305 0.2075
C2 C 0.8242(4) 0.7826(3) 0.1734(4)
H2 H 0.7792 0.7891 0.0817
C3 C 0.8460(4) 0.6877(3) 0.2321(4)
C4 C 0.9136(4) 0.6825(3) 0.3666(4)
H3 H 0.9332 0.6196 0.4098
C5 C 0.9521(4) 0.7717(3) 0.4369(4)
H4 H 0.9951 0.7671 0.5292
C6 C 0.7926(4) 0.5928(3) 0.1533(3)
O1 O 0.6602(2) 0.58965(18) 0.1134(2)
O2 O 0.8775(3) 0.52627(19) 0.1382(3)
H15 H 0.9476 0.1588 0.2064
C23 C 0.9767(4) 0.2936(3) 0.1252(4)
H16 H 0.8800 0.3051 0.0886
O13 O 0.8856(3) 0.96139(19) 0.6361(2)
Co1_4 Co 1.0000 0.5000 1.0000
N2 N 0.9321(3) 0.6373(2) 0.8946(3)
C7 C 0.7945(4) 0.6556(3) 0.8422(4)
H5 H 0.7285 0.6078 0.8564
C8 C 0.7451(4) 0.7418(3) 0.7680(4)
H6 H 0.6479 0.7519 0.7330
C9 C 0.8416(4) 0.8122(3) 0.7466(4)
C10 C 0.9838(4) 0.7939(3) 0.8037(4)
C12 C 0.7907(4) 0.9051(2) 0.6614(3)
O3 O 0.6613(3) 0.91749(18) 0.6253(2)
O10 O 0.8387(3) 0.41749(18) 0.8747(2)
N1_2 N 0.5683(3) 0.3645(2) 0.1187(3)
C1_2 C 0.6313(4) 0.3670(3) 0.2501(4)
H1_2 H 0.6459 0.4305 0.2925
C2_2 C 0.6758(4) 0.2826(3) 0.3266(4)
H2_2 H 0.7208 0.2891 0.4183
C3_2 C 0.6540(4) 0.1877(3) 0.2679(4)
C4_2 C 0.5864(4) 0.1825(3) 0.1334(4)
H3_2 H 0.5668 0.1196 0.0902
C5_2 C 0.5479(4) 0.2717(3) 0.0631(4)
C6_2 C 0.7074(4) 0.0928(3) 0.3467(3)
O2_2 O 0.6225(3) 0.02627(19) 0.3618(3)
N2_2 N 0.5679(3) 0.1373(2) 0.6054(3)
C7_2 C 0.7055(4) 0.1556(3) 0.6578(4)
H5_2 H 0.7715 0.1078 0.6436
C8_2 C 0.7549(4) 0.2418(3) 0.7320(4)
H6_2 H 0.8521 0.2519 0.7670
C9_2 C 0.6584(4) 0.3122(3) 0.7534(4)
C10_2 C 0.5162(4) 0.2939(3) 0.6963(4)
H7_2 H 0.4476 0.3412 0.7064
C11_2 C 0.4767(4) 0.2064(3) 0.6252(4)
H8_2 H 0.3800 0.1949 0.5886
C12_2 C 0.7093(4) 0.4051(2) 0.8386(3)
O4 O 0.6144(3) 0.46139(19) 0.8639(2)
O14_2 O 0.3856(3) 0.53861(19) 0.1361(2)
H4_2 H 0.5049 0.2671 0.9708
N5_2 N 0.4317(3) 0.6355(2) 0.8813(3)
H12_2 H 0.4951 0.7329 0.0292
C13_2 C 0.3687(4) 0.6330(3) 0.7499(4)
H9_2 H 0.3541 0.5695 0.7075
C14_2 C 0.3242(4) 0.7174(3) 0.6734(4)
H10_2 H 0.2792 0.7109 0.5817
C15_2 C 0.3460(4) 0.8123(3) 0.7321(4)
C16_2 C 0.4136(4) 0.8175(3) 0.8666(4)
H11_2 H 0.4332 0.8804 0.9098
C17_2 C 0.4521(4) 0.7283(3) 0.9369(4)
C18_2 C 0.2926(4) 0.9072(3) 0.6533(3)
O6_2 O 0.3775(3) 0.97373(19) 0.6382(3)
N4_2 N 0.4321(3) 0.8627(2) 0.3946(3)
C19_2 C 0.2945(4) 0.8444(3) 0.3422(4)
H13_2 H 0.2285 0.8922 0.3564
C20_2 C 0.2451(4) 0.7582(3) 0.2680(4)
H14_2 H 0.1479 0.7481 0.2330
C21_2 C 0.3416(4) 0.6878(3) 0.2466(4)
C22_2 C 0.4838(4) 0.7061(3) 0.3037(4)
H15_2 H 0.5524 0.6588 0.2936
C23_2 C 0.5233(4) 0.7936(3) 0.3748(4)
H16_2 H 0.6200 0.8051 0.4114
C24_2 C 0.2907(4) 0.5949(2) 0.1614(3)
loop_
_geom_bond_atom_site_label_1
_geom_bond_atom_site_label_2
_geom_bond_site_symmetry_1
_geom_bond_site_symmetry_2
N5 Co2 1_555 1_555
O14 Co2 1_555 1_555
N4 Co1 1_555 1_555
C19 N4 1_555 1_555
H13 C19 1_555 1_555
C20 C19 1_555 1_555
H14 C20 1_555 1_555
C21 C20 1_555 1_555
C22 C21 1_555 1_555
C24 C21 1_555 1_555
O7 C24 1_555 1_555
O14 C24 1_555 1_555
O9 Co1 1_555 1_555
O11 Co2_2 1_555 1_555
Co8 O7 1_555 1_555
H8 C11 1_555 1_555
N5 C13 1_555 1_555
C13 H9 1_555 1_555
C14 C13 1_555 1_555
H10 C14 1_555 1_555
C15 C14 1_555 1_555
C16 C15 1_555 1_555
H11 C16 1_555 1_555
C17 N5 1_555 1_555
H12 C17 1_555 1_555
C18 C15 1_555 1_555
O5 C18 1_555 1_555
O6 Co1_2 1_555 1_555
Co7_2 O5 1_555 1_555
C16 C17 1_555 1_555
C18 O6 1_555 1_555
O12 Co2_3 1_555 1_555
Co1_3 O2 1_555 1_555
Co2_4 N1 1_555 1_555
N1 C1 1_555 1_555
C1 H1 1_555 1_555
C2 C1 1_555 1_555
H2 C2 1_555 1_555
C3 C2 1_555 1_555
C4 C3 1_555 1_555
H3 C4 1_555 1_555
C5 N1 1_555 1_555
H4 C5 1_555 1_555
C6 C3 1_555 1_555
O1 C6 1_555 1_555
O2 C6 1_555 1_555
H16 C23 1_555 1_555
O13 Co2_4 1_555 1_555
Co7 O1 1_555 1_555
C4 C5 1_555 1_555
N2 Co1_4 1_555 1_555
C7 N2 1_555 1_555
H5 C7 1_555 1_555
C8 C7 1_555 1_555
H6 C8 1_555 1_555
C9 C8 1_555 1_555
C10 C9 1_555 1_555
C12 C9 1_555 1_555
O3 C12 1_555 1_555
O13 C12 1_555 1_555
O10 Co1_4 1_555 1_555
Co8_2 O3 1_555 1_555
Co8 O2_2 1_555 1_555
Co7 N1_2 1_555 1_555
N1_2 C1_2 1_555 1_555
C1_2 H1_2 1_555 1_555
C2_2 C1_2 1_555 1_555
H2_2 C2_2 1_555 1_555
C3_2 C2_2 1_555 1_555
C4_2 C3_2 1_555 1_555
H3_2 C4_2 1_555 1_555
C5_2 N1_2 1_555 1_555
C6_2 C3_2 1_555 1_555
O12 C6_2 1_555 1_555
O2_2 C6_2 1_555 1_555
N2_2 Co8 1_555 1_555
C7_2 N2_2 1_555 1_555
H5_2 C7_2 1_555 1_555
C8_2 C7_2 1_555 1_555
H6_2 C8_2 1_555 1_555
C9_2 C8_2 1_555 1_555
C10_2 C9_2 1_555 1_555
H7_2 C10_2 1_555 1_555
C11_2 N2_2 1_555 1_555
H8_2 C11_2 1_555 1_555
C12_2 C9_2 1_555 1_555
O10 C12_2 1_555 1_555
O4 C12_2 1_555 1_555
O14_2 Co7 1_555 1_555
Co7_2 O4 1_555 1_555
C4_2 C5_2 1_555 1_555
C10_2 C11_2 1_555 1_555
N5_2 Co7_2 1_555 1_555
N5_2 C13_2 1_555 1_555
C13_2 H9_2 1_555 1_555
C14_2 C13_2 1_555 1_555
H10_2 C14_2 1_555 1_555
C15_2 C14_2 1_555 1_555
C16_2 C15_2 1_555 1_555
H11_2 C16_2 1_555 1_555
C17_2 N5_2 1_555 1_555
C18_2 C15_2 1_555 1_555
O11 C18_2 1_555 1_555
O6_2 Co8_2 1_555 1_555
N4_2 Co8_2 1_555 1_555
C19_2 N4_2 1_555 1_555
H13_2 C19_2 1_555 1_555
C20_2 C19_2 1_555 1_555
H14_2 C20_2 1_555 1_555
C21_2 C20_2 1_555 1_555
C22_2 C21_2 1_555 1_555
H15_2 C22_2 1_555 1_555
C23_2 N4_2 1_555 1_555
H16_2 C23_2 1_555 1_555
C24_2 C21_2 1_555 1_555
O9 C24_2 1_555 1_555
O14_2 C24_2 1_555 1_555
C16_2 C17_2 1_555 1_555
C18_2 O6_2 1_555 1_555
C22_2 C23_2 1_555 1_555

#END
