
###############################################################################
#
# This file contains modified crystal structure data generated from the
# MOF subset of the Cambridge Structural Database (CSD) v543 
# hosted by the Cambridge Crystallographic Data Centre (CCDC).
#
# This work is licensed under the Creative Commons
# Attribution-NonCommercial-ShareAlike 4.0 International License.
# To view a copy of this license, visit
# http://creativecommons.org/licenses/by-nc-sa/4.0/
# or send a letter to
# Creative Commons, PO Box 1866, Mountain View, CA 94042, USA.
#
# CIF created using the CSD Python API on 29 September 2022
# The structure has been converted into the P1 space group
# The structure has a 3D framework
# The original CSD entry ABAYIO is in the cubic crystal system
# The framework has been calculated to contain at least 10.0% void space
# The void calculation uses a probe of radius 1.32A, grid spacing 0.4
# The framework is charged, counterions have been retained in the structure
#
###############################################################################

data_ABAYIO
_chemical_formula_moiety         '(C288 H96 Cl72 Mn72 O192 72-)n'
_symmetry_cell_setting           triclinic
_symmetry_space_group_name_H-M   'P 1'
_symmetry_Int_Tables_number      1
_space_group_name_Hall           'P 1'
loop_
_symmetry_equiv_pos_site_id
_symmetry_equiv_pos_as_xyz
1 x,y,z
_cell_length_a                   26.771(3)
_cell_length_b                   26.771(3)
_cell_length_c                   26.771(3)
_cell_angle_alpha                90
_cell_angle_beta                 90
_cell_angle_gamma                90
_cell_volume                     19186.4
loop_
_atom_site_label
_atom_site_type_symbol
_atom_site_fract_x
_atom_site_fract_y
_atom_site_fract_z
Mn1 Mn 0.20777(4) 0.20777(4) 0.0000
Cl1 Cl 0.14539(13) 0.14539(13) 0.0000
Mn8 Mn 0.29223(4) 0.29223(4) 0.0000
O14 O 0.1832(2) 0.2587(2) 0.0546(2)
O17 O 0.2587(2) 0.1832(2) 0.0546(2)
Mn1_2 Mn 0.20777(4) 0.20777(4) 1.0000
Cl1_2 Cl 0.14539(13) 0.14539(13) 1.0000
O1 O 0.2587(2) 0.1832(2) 0.9454(2)
C1 C 0.3221(3) 0.1779(3) 0.8850(4)
C2 C 0.3012(4) 0.1363(3) 0.8637(3)
H1 H 0.2718 0.1217 0.8783
C3 C 0.2975(3) 0.2025(3) 0.9298(4)
O2 O 0.3168(2) 0.0546(2) 0.7587(2)
C4 C 0.3221(3) 0.1150(4) 0.8221(3)
C5 C 0.3637(3) 0.1363(3) 0.8012(4)
H2 H 0.3783 0.1217 0.7718
C6 C 0.2975(3) 0.0702(4) 0.7975(3)
O3 O 0.4454(2) 0.2413(2) 0.8168(2)
C7 C 0.3850(4) 0.1779(3) 0.8221(3)
C8 C 0.3637(3) 0.1988(4) 0.8637(3)
H3 H 0.3783 0.2282 0.8783
C9 C 0.4298(4) 0.2025(3) 0.7975(3)
O4 O 0.2587(2) 0.0546(2) 0.8168(2)
O5 O 0.4454(2) 0.1832(2) 0.7587(2)
O6 O 0.3168(2) 0.2413(2) 0.9454(2)
Mn2 Mn -0.0000 0.20777(4) 0.79223(4)
Cl2 Cl -0.0000 0.14539(13) 0.85461(13)
O7 O 0.0546(2) 0.2587(2) 0.8168(2)
C10 C 0.1150(4) 0.3221(3) 0.8221(3)
C11 C 0.1363(3) 0.3012(4) 0.8637(3)
H4 H 0.1217 0.2718 0.8783
C12 C 0.0702(4) 0.2975(3) 0.7975(3)
O8 O 0.2413(2) 0.3168(2) 0.9454(2)
C13 C 0.1779(3) 0.3221(3) 0.8850(4)
C14 C 0.1988(4) 0.3637(3) 0.8637(3)
H5 H 0.2282 0.3783 0.8783
C15 C 0.2025(3) 0.2975(3) 0.9298(4)
O9 O 0.1832(2) 0.4454(2) 0.7587(2)
C16 C 0.1779(3) 0.3850(4) 0.8221(3)
C17 C 0.1363(3) 0.3637(3) 0.8012(4)
H6 H 0.1217 0.3783 0.7718
C18 C 0.2025(3) 0.4298(4) 0.7975(3)
O10 O 0.1832(2) 0.2587(2) 0.9454(2)
O11 O 0.2413(2) 0.4454(2) 0.8168(2)
O12 O 0.0546(2) 0.3168(2) 0.7587(2)
Mn3 Mn 0.20777(4) -0.0000 0.79223(4)
Cl3 Cl 0.14539(13) -0.0000 0.85461(13)
Mn4 Mn 0.0000 0.29223(4) 0.70777(4)
Mn5 Mn 0.20777(4) 0.5000 0.70777(4)
Mn6 Mn 0.5000 0.20777(4) 0.70777(4)
Mn7 Mn 0.29223(4) 0.0000 0.70777(4)
Mn8_2 Mn 0.29223(4) 0.29223(4) 1.0000
Mn9 Mn 0.5000 0.29223(4) 0.79223(4)
Mn10 Mn 0.29223(4) 0.5000 0.79223(4)
O13 O 0.1832(2) 0.0546(2) 0.7413(2)
O20 O 0.0546(2) 0.1832(2) 0.7413(2)
Mn3_2 Mn 0.20777(4) 1.0000 0.79223(4)
Cl3_2 Cl 0.14539(13) 1.0000 0.85461(13)
Mn7_2 Mn 0.29223(4) 1.0000 0.70777(4)
O15 O 0.2587(2) 0.9454(2) 0.8168(2)
O19 O 0.1832(2) 0.9454(2) 0.7413(2)
Mn2_2 Mn 1.0000 0.20777(4) 0.79223(4)
Cl2_2 Cl 1.0000 0.14539(13) 0.85461(13)
Mn4_2 Mn 1.0000 0.29223(4) 0.70777(4)
O16 O 0.9454(2) 0.1832(2) 0.7413(2)
O18 O 0.9454(2) 0.2587(2) 0.8168(2)
Mn2_3 Mn -0.0000 0.79223(4) 0.79223(4)
Cl2_3 Cl -0.0000 0.85461(13) 0.85461(13)
Mn4_3 Mn -0.0000 0.70777(4) 0.70777(4)
O16_2 O 0.0546(2) 0.8168(2) 0.7413(2)
O18_2 O 0.0546(2) 0.7413(2) 0.8168(2)
Mn3_3 Mn 0.79223(4) 0.0000 0.79223(4)
Cl3_3 Cl 0.85461(13) 0.0000 0.85461(13)
Mn7_3 Mn 0.70777(4) -0.0000 0.70777(4)
O15_2 O 0.7413(2) 0.0546(2) 0.8168(2)
O19_2 O 0.8168(2) 0.0546(2) 0.7413(2)
Mn1_3 Mn 0.79223(4) 0.79223(4) 0.0000
Cl1_3 Cl 0.85461(13) 0.85461(13) 0.0000
Mn8_3 Mn 0.70777(4) 0.70777(4) 0.0000
O14_2 O 0.8168(2) 0.7413(2) 0.0546(2)
O17_2 O 0.7413(2) 0.8168(2) 0.0546(2)
Mn1_4 Mn 0.79223(4) 0.79223(4) 1.0000
Cl1_4 Cl 0.85461(13) 0.85461(13) 1.0000
O1_2 O 0.7413(2) 0.8168(2) 0.9454(2)
C1_2 C 0.6779(3) 0.8221(3) 0.8850(4)
C2_2 C 0.6988(4) 0.8637(3) 0.8637(3)
H1_2 H 0.7282 0.8783 0.8783
C3_2 C 0.7025(3) 0.7975(3) 0.9298(4)
O2_2 O 0.6832(2) 0.9454(2) 0.7587(2)
C4_2 C 0.6779(3) 0.8850(4) 0.8221(3)
C5_2 C 0.6363(3) 0.8637(3) 0.8012(4)
H2_2 H 0.6217 0.8783 0.7718
C6_2 C 0.7025(3) 0.9298(4) 0.7975(3)
O3_2 O 0.5546(2) 0.7587(2) 0.8168(2)
C7_2 C 0.6150(4) 0.8221(3) 0.8221(3)
C8_2 C 0.6363(3) 0.8012(4) 0.8637(3)
H3_2 H 0.6217 0.7718 0.8783
C9_2 C 0.5702(4) 0.7975(3) 0.7975(3)
O4_2 O 0.7413(2) 0.9454(2) 0.8168(2)
O5_2 O 0.5546(2) 0.8168(2) 0.7587(2)
O6_2 O 0.6832(2) 0.7587(2) 0.9454(2)
Mn2_4 Mn 1.0000 0.79223(4) 0.79223(4)
Cl2_4 Cl 1.0000 0.85461(13) 0.85461(13)
O7_2 O 0.9454(2) 0.7413(2) 0.8168(2)
C10_2 C 0.8850(4) 0.6779(3) 0.8221(3)
C11_2 C 0.8637(3) 0.6988(4) 0.8637(3)
H4_2 H 0.8783 0.7282 0.8783
C12_2 C 0.9298(4) 0.7025(3) 0.7975(3)
O8_2 O 0.7587(2) 0.6832(2) 0.9454(2)
C13_2 C 0.8221(3) 0.6779(3) 0.8850(4)
C14_2 C 0.8012(4) 0.6363(3) 0.8637(3)
H5_2 H 0.7718 0.6217 0.8783
C15_2 C 0.7975(3) 0.7025(3) 0.9298(4)
O9_2 O 0.8168(2) 0.5546(2) 0.7587(2)
C16_2 C 0.8221(3) 0.6150(4) 0.8221(3)
C17_2 C 0.8637(3) 0.6363(3) 0.8012(4)
H6_2 H 0.8783 0.6217 0.7718
C18_2 C 0.7975(3) 0.5702(4) 0.7975(3)
O10_2 O 0.8168(2) 0.7413(2) 0.9454(2)
O11_2 O 0.7587(2) 0.5546(2) 0.8168(2)
O12_2 O 0.9454(2) 0.6832(2) 0.7587(2)
Mn3_4 Mn 0.79223(4) 1.0000 0.79223(4)
Cl3_4 Cl 0.85461(13) 1.0000 0.85461(13)
Mn4_4 Mn 1.0000 0.70777(4) 0.70777(4)
Mn5_2 Mn 0.79223(4) 0.5000 0.70777(4)
Mn6_2 Mn 0.5000 0.79223(4) 0.70777(4)
Mn7_4 Mn 0.70777(4) 1.0000 0.70777(4)
Mn8_4 Mn 0.70777(4) 0.70777(4) 1.0000
Mn9_2 Mn 0.5000 0.70777(4) 0.79223(4)
Mn10_2 Mn 0.70777(4) 0.5000 0.79223(4)
O13_2 O 0.8168(2) 0.9454(2) 0.7413(2)
O20_2 O 0.9454(2) 0.8168(2) 0.7413(2)
Mn2_5 Mn 0.0000 0.20777(4) 0.20777(4)
Cl2_5 Cl 0.0000 0.14539(13) 0.14539(13)
Mn4_5 Mn -0.0000 0.29223(4) 0.29223(4)
O16_3 O 0.0546(2) 0.1832(2) 0.2587(2)
O18_3 O 0.0546(2) 0.2587(2) 0.1832(2)
Mn1_5 Mn 0.79223(4) 0.20777(4) 0.0000
Cl1_5 Cl 0.85461(13) 0.14539(13) 0.0000
O1_3 O 0.7413(2) 0.1832(2) 0.0546(2)
C1_3 C 0.6779(3) 0.1779(3) 0.1150(4)
C2_3 C 0.6988(4) 0.1363(3) 0.1363(3)
H1_3 H 0.7282 0.1217 0.1217
C3_3 C 0.7025(3) 0.2025(3) 0.0702(4)
O2_3 O 0.6832(2) 0.0546(2) 0.2413(2)
C4_3 C 0.6779(3) 0.1150(4) 0.1779(3)
C5_3 C 0.6363(3) 0.1363(3) 0.1988(4)
H2_3 H 0.6217 0.1217 0.2282
C6_3 C 0.7025(3) 0.0702(4) 0.2025(3)
O3_3 O 0.5546(2) 0.2413(2) 0.1832(2)
C7_3 C 0.6150(4) 0.1779(3) 0.1779(3)
C8_3 C 0.6363(3) 0.1988(4) 0.1363(3)
H3_3 H 0.6217 0.2282 0.1217
C9_3 C 0.5702(4) 0.2025(3) 0.2025(3)
O4_3 O 0.7413(2) 0.0546(2) 0.1832(2)
O5_3 O 0.5546(2) 0.1832(2) 0.2413(2)
O6_3 O 0.6832(2) 0.2413(2) 0.0546(2)
Mn2_6 Mn 1.0000 0.20777(4) 0.20777(4)
Cl2_6 Cl 1.0000 0.14539(13) 0.14539(13)
O7_3 O 0.9454(2) 0.2587(2) 0.1832(2)
C10_3 C 0.8850(4) 0.3221(3) 0.1779(3)
C11_3 C 0.8637(3) 0.3012(4) 0.1363(3)
H4_3 H 0.8783 0.2718 0.1217
C12_3 C 0.9298(4) 0.2975(3) 0.2025(3)
O8_3 O 0.7587(2) 0.3168(2) 0.0546(2)
C13_3 C 0.8221(3) 0.3221(3) 0.1150(4)
C14_3 C 0.8012(4) 0.3637(3) 0.1363(3)
H5_3 H 0.7718 0.3783 0.1217
C15_3 C 0.7975(3) 0.2975(3) 0.0702(4)
O9_3 O 0.8168(2) 0.4454(2) 0.2413(2)
C16_3 C 0.8221(3) 0.3850(4) 0.1779(3)
C17_3 C 0.8637(3) 0.3637(3) 0.1988(4)
H6_3 H 0.8783 0.3783 0.2282
C18_3 C 0.7975(3) 0.4298(4) 0.2025(3)
O10_3 O 0.8168(2) 0.2587(2) 0.0546(2)
O11_3 O 0.7587(2) 0.4454(2) 0.1832(2)
O12_3 O 0.9454(2) 0.3168(2) 0.2413(2)
Mn3_5 Mn 0.79223(4) -0.0000 0.20777(4)
Cl3_5 Cl 0.85461(13) -0.0000 0.14539(13)
Mn4_6 Mn 1.0000 0.29223(4) 0.29223(4)
Mn5_3 Mn 0.79223(4) 0.5000 0.29223(4)
Mn6_3 Mn 0.5000 0.20777(4) 0.29223(4)
Mn7_5 Mn 0.70777(4) 0.0000 0.29223(4)
Mn8_5 Mn 0.70777(4) 0.29223(4) 0.0000
Mn9_3 Mn 0.5000 0.29223(4) 0.20777(4)
Mn10_3 Mn 0.70777(4) 0.5000 0.20777(4)
O13_3 O 0.8168(2) 0.0546(2) 0.2587(2)
O20_3 O 0.9454(2) 0.1832(2) 0.2587(2)
Mn1_6 Mn 0.79223(4) 0.20777(4) 1.0000
Cl1_6 Cl 0.85461(13) 0.14539(13) 1.0000
Mn8_6 Mn 0.70777(4) 0.29223(4) 1.0000
O14_3 O 0.8168(2) 0.2587(2) 0.9454(2)
O17_3 O 0.7413(2) 0.1832(2) 0.9454(2)
Mn3_6 Mn 0.79223(4) 1.0000 0.20777(4)
Cl3_6 Cl 0.85461(13) 1.0000 0.14539(13)
Mn7_6 Mn 0.70777(4) 1.0000 0.29223(4)
O15_3 O 0.7413(2) 0.9454(2) 0.1832(2)
O19_3 O 0.8168(2) 0.9454(2) 0.2587(2)
Mn3_7 Mn 0.20777(4) 0.0000 0.20777(4)
Cl3_7 Cl 0.14539(13) 0.0000 0.14539(13)
Mn7_7 Mn 0.29223(4) -0.0000 0.29223(4)
O15_4 O 0.2587(2) 0.0546(2) 0.1832(2)
O19_4 O 0.1832(2) 0.0546(2) 0.2587(2)
Mn1_7 Mn 0.20777(4) 0.79223(4) 0.0000
Cl1_7 Cl 0.14539(13) 0.85461(13) 0.0000
O1_4 O 0.2587(2) 0.8168(2) 0.0546(2)
C1_4 C 0.3221(3) 0.8221(3) 0.1150(4)
C2_4 C 0.3012(4) 0.8637(3) 0.1363(3)
H1_4 H 0.2718 0.8783 0.1217
C3_4 C 0.2975(3) 0.7975(3) 0.0702(4)
O2_4 O 0.3168(2) 0.9454(2) 0.2413(2)
C4_4 C 0.3221(3) 0.8850(4) 0.1779(3)
C5_4 C 0.3637(3) 0.8637(3) 0.1988(4)
H2_4 H 0.3783 0.8783 0.2282
C6_4 C 0.2975(3) 0.9298(4) 0.2025(3)
O3_4 O 0.4454(2) 0.7587(2) 0.1832(2)
C7_4 C 0.3850(4) 0.8221(3) 0.1779(3)
C8_4 C 0.3637(3) 0.8012(4) 0.1363(3)
H3_4 H 0.3783 0.7718 0.1217
C9_4 C 0.4298(4) 0.7975(3) 0.2025(3)
O4_4 O 0.2587(2) 0.9454(2) 0.1832(2)
O5_4 O 0.4454(2) 0.8168(2) 0.2413(2)
O6_4 O 0.3168(2) 0.7587(2) 0.0546(2)
Mn2_7 Mn -0.0000 0.79223(4) 0.20777(4)
Cl2_7 Cl -0.0000 0.85461(13) 0.14539(13)
O7_4 O 0.0546(2) 0.7413(2) 0.1832(2)
C10_4 C 0.1150(4) 0.6779(3) 0.1779(3)
C11_4 C 0.1363(3) 0.6988(4) 0.1363(3)
H4_4 H 0.1217 0.7282 0.1217
C12_4 C 0.0702(4) 0.7025(3) 0.2025(3)
O8_4 O 0.2413(2) 0.6832(2) 0.0546(2)
C13_4 C 0.1779(3) 0.6779(3) 0.1150(4)
C14_4 C 0.1988(4) 0.6363(3) 0.1363(3)
H5_4 H 0.2282 0.6217 0.1217
C15_4 C 0.2025(3) 0.7025(3) 0.0702(4)
O9_4 O 0.1832(2) 0.5546(2) 0.2413(2)
C16_4 C 0.1779(3) 0.6150(4) 0.1779(3)
C17_4 C 0.1363(3) 0.6363(3) 0.1988(4)
H6_4 H 0.1217 0.6217 0.2282
C18_4 C 0.2025(3) 0.5702(4) 0.2025(3)
O10_4 O 0.1832(2) 0.7413(2) 0.0546(2)
O11_4 O 0.2413(2) 0.5546(2) 0.1832(2)
O12_4 O 0.0546(2) 0.6832(2) 0.2413(2)
Mn3_8 Mn 0.20777(4) 1.0000 0.20777(4)
Cl3_8 Cl 0.14539(13) 1.0000 0.14539(13)
Mn4_7 Mn 0.0000 0.70777(4) 0.29223(4)
Mn5_4 Mn 0.20777(4) 0.5000 0.29223(4)
Mn6_4 Mn 0.5000 0.79223(4) 0.29223(4)
Mn7_8 Mn 0.29223(4) 1.0000 0.29223(4)
Mn8_7 Mn 0.29223(4) 0.70777(4) 0.0000
Mn9_4 Mn 0.5000 0.70777(4) 0.20777(4)
Mn10_4 Mn 0.29223(4) 0.5000 0.20777(4)
O13_4 O 0.1832(2) 0.9454(2) 0.2587(2)
O20_4 O 0.0546(2) 0.8168(2) 0.2587(2)
Mn1_8 Mn 0.20777(4) 0.79223(4) 1.0000
Cl1_8 Cl 0.14539(13) 0.85461(13) 1.0000
Mn8_8 Mn 0.29223(4) 0.70777(4) 1.0000
O14_4 O 0.1832(2) 0.7413(2) 0.9454(2)
O17_4 O 0.2587(2) 0.8168(2) 0.9454(2)
Mn2_8 Mn 1.0000 0.79223(4) 0.20777(4)
Cl2_8 Cl 1.0000 0.85461(13) 0.14539(13)
Mn4_8 Mn 1.0000 0.70777(4) 0.29223(4)
O16_4 O 0.9454(2) 0.8168(2) 0.2587(2)
O18_4 O 0.9454(2) 0.7413(2) 0.1832(2)
C10_5 C 0.8221(3) 0.1150(4) 0.3221(3)
C11_5 C 0.8637(3) 0.1363(3) 0.3012(4)
H4_5 H 0.8783 0.1217 0.2718
C12_5 C 0.7975(3) 0.0702(4) 0.2975(3)
O8_5 O 0.9454(2) 0.2413(2) 0.3168(2)
C13_5 C 0.8850(4) 0.1779(3) 0.3221(3)
C14_5 C 0.8637(3) 0.1988(4) 0.3637(3)
H5_5 H 0.8783 0.2282 0.3783
C15_5 C 0.9298(4) 0.2025(3) 0.2975(3)
O9_5 O 0.7587(2) 0.1832(2) 0.4454(2)
C16_5 C 0.8221(3) 0.1779(3) 0.3850(4)
C17_5 C 0.8012(4) 0.1363(3) 0.3637(3)
H6_5 H 0.7718 0.1217 0.3783
C18_5 C 0.7975(3) 0.2025(3) 0.4298(4)
O11_5 O 0.8168(2) 0.2413(2) 0.4454(2)
O12_5 O 0.7587(2) 0.0546(2) 0.3168(2)
Mn5_5 Mn 0.70777(4) 0.20777(4) 0.5000
Mn10_5 Mn 0.79223(4) 0.29223(4) 0.5000
C10_6 C 0.8221(3) 0.8850(4) 0.6779(3)
C11_6 C 0.8637(3) 0.8637(3) 0.6988(4)
H4_6 H 0.8783 0.8783 0.7282
C12_6 C 0.7975(3) 0.9298(4) 0.7025(3)
O8_6 O 0.9454(2) 0.7587(2) 0.6832(2)
C13_6 C 0.8850(4) 0.8221(3) 0.6779(3)
C14_6 C 0.8637(3) 0.8012(4) 0.6363(3)
H5_6 H 0.8783 0.7718 0.6217
C15_6 C 0.9298(4) 0.7975(3) 0.7025(3)
O9_6 O 0.7587(2) 0.8168(2) 0.5546(2)
C16_6 C 0.8221(3) 0.8221(3) 0.6150(4)
C17_6 C 0.8012(4) 0.8637(3) 0.6363(3)
H6_6 H 0.7718 0.8783 0.6217
C18_6 C 0.7975(3) 0.7975(3) 0.5702(4)
O11_6 O 0.8168(2) 0.7587(2) 0.5546(2)
O12_6 O 0.7587(2) 0.9454(2) 0.6832(2)
Mn5_6 Mn 0.70777(4) 0.79223(4) 0.5000
Mn10_6 Mn 0.79223(4) 0.70777(4) 0.5000
C10_7 C 0.1779(3) 0.8850(4) 0.3221(3)
C11_7 C 0.1363(3) 0.8637(3) 0.3012(4)
H4_7 H 0.1217 0.8783 0.2718
C12_7 C 0.2025(3) 0.9298(4) 0.2975(3)
O8_7 O 0.0546(2) 0.7587(2) 0.3168(2)
C13_7 C 0.1150(4) 0.8221(3) 0.3221(3)
C14_7 C 0.1363(3) 0.8012(4) 0.3637(3)
H5_7 H 0.1217 0.7718 0.3783
C15_7 C 0.0702(4) 0.7975(3) 0.2975(3)
O9_7 O 0.2413(2) 0.8168(2) 0.4454(2)
C16_7 C 0.1779(3) 0.8221(3) 0.3850(4)
C17_7 C 0.1988(4) 0.8637(3) 0.3637(3)
H6_7 H 0.2282 0.8783 0.3783
C18_7 C 0.2025(3) 0.7975(3) 0.4298(4)
O11_7 O 0.1832(2) 0.7587(2) 0.4454(2)
O12_7 O 0.2413(2) 0.9454(2) 0.3168(2)
Mn5_7 Mn 0.29223(4) 0.79223(4) 0.5000
Mn10_7 Mn 0.20777(4) 0.70777(4) 0.5000
C10_8 C 0.1779(3) 0.1150(4) 0.6779(3)
C11_8 C 0.1363(3) 0.1363(3) 0.6988(4)
H4_8 H 0.1217 0.1217 0.7282
C12_8 C 0.2025(3) 0.0702(4) 0.7025(3)
O8_8 O 0.0546(2) 0.2413(2) 0.6832(2)
C13_8 C 0.1150(4) 0.1779(3) 0.6779(3)
C14_8 C 0.1363(3) 0.1988(4) 0.6363(3)
H5_8 H 0.1217 0.2282 0.6217
C15_8 C 0.0702(4) 0.2025(3) 0.7025(3)
O9_8 O 0.2413(2) 0.1832(2) 0.5546(2)
C16_8 C 0.1779(3) 0.1779(3) 0.6150(4)
C17_8 C 0.1988(4) 0.1363(3) 0.6363(3)
H6_8 H 0.2282 0.1217 0.6217
C18_8 C 0.2025(3) 0.2025(3) 0.5702(4)
O11_8 O 0.1832(2) 0.2413(2) 0.5546(2)
O12_8 O 0.2413(2) 0.0546(2) 0.6832(2)
Mn5_8 Mn 0.29223(4) 0.20777(4) 0.5000
Mn10_8 Mn 0.20777(4) 0.29223(4) 0.5000
C1_5 C 0.1779(3) 0.3221(3) 0.1150(4)
C2_5 C 0.1363(3) 0.3012(4) 0.1363(3)
H1_5 H 0.1217 0.2718 0.1217
C3_5 C 0.2025(3) 0.2975(3) 0.0702(4)
O2_5 O 0.0546(2) 0.3168(2) 0.2413(2)
C4_5 C 0.1150(4) 0.3221(3) 0.1779(3)
C5_5 C 0.1363(3) 0.3637(3) 0.1988(4)
H2_5 H 0.1217 0.3783 0.2282
C6_5 C 0.0702(4) 0.2975(3) 0.2025(3)
O3_5 O 0.2413(2) 0.4454(2) 0.1832(2)
C7_5 C 0.1779(3) 0.3850(4) 0.1779(3)
C8_5 C 0.1988(4) 0.3637(3) 0.1363(3)
H3_5 H 0.2282 0.3783 0.1217
C9_5 C 0.2025(3) 0.4298(4) 0.2025(3)
O5_5 O 0.1832(2) 0.4454(2) 0.2413(2)
O6_5 O 0.2413(2) 0.3168(2) 0.0546(2)
C10_9 C 0.3221(3) 0.1150(4) 0.1779(3)
C11_9 C 0.3012(4) 0.1363(3) 0.1363(3)
H4_9 H 0.2718 0.1217 0.1217
C12_9 C 0.2975(3) 0.0702(4) 0.2025(3)
O8_9 O 0.3168(2) 0.2413(2) 0.0546(2)
C13_9 C 0.3221(3) 0.1779(3) 0.1150(4)
C14_9 C 0.3637(3) 0.1988(4) 0.1363(3)
H5_9 H 0.3783 0.2282 0.1217
C15_9 C 0.2975(3) 0.2025(3) 0.0702(4)
O9_9 O 0.4454(2) 0.1832(2) 0.2413(2)
C16_9 C 0.3850(4) 0.1779(3) 0.1779(3)
C17_9 C 0.3637(3) 0.1363(3) 0.1988(4)
H6_9 H 0.3783 0.1217 0.2282
C18_9 C 0.4298(4) 0.2025(3) 0.2025(3)
O11_9 O 0.4454(2) 0.2413(2) 0.1832(2)
O12_9 O 0.3168(2) 0.0546(2) 0.2413(2)
C1_6 C 0.8221(3) 0.6779(3) 0.1150(4)
C2_6 C 0.8637(3) 0.6988(4) 0.1363(3)
H1_6 H 0.8783 0.7282 0.1217
C3_6 C 0.7975(3) 0.7025(3) 0.0702(4)
O2_6 O 0.9454(2) 0.6832(2) 0.2413(2)
C4_6 C 0.8850(4) 0.6779(3) 0.1779(3)
C5_6 C 0.8637(3) 0.6363(3) 0.1988(4)
H2_6 H 0.8783 0.6217 0.2282
C6_6 C 0.9298(4) 0.7025(3) 0.2025(3)
O3_6 O 0.7587(2) 0.5546(2) 0.1832(2)
C7_6 C 0.8221(3) 0.6150(4) 0.1779(3)
C8_6 C 0.8012(4) 0.6363(3) 0.1363(3)
H3_6 H 0.7718 0.6217 0.1217
C9_6 C 0.7975(3) 0.5702(4) 0.2025(3)
O5_6 O 0.8168(2) 0.5546(2) 0.2413(2)
O6_6 O 0.7587(2) 0.6832(2) 0.0546(2)
C10_10 C 0.6779(3) 0.8850(4) 0.1779(3)
C11_10 C 0.6988(4) 0.8637(3) 0.1363(3)
H4_10 H 0.7282 0.8783 0.1217
C12_10 C 0.7025(3) 0.9298(4) 0.2025(3)
O8_10 O 0.6832(2) 0.7587(2) 0.0546(2)
C13_10 C 0.6779(3) 0.8221(3) 0.1150(4)
C14_10 C 0.6363(3) 0.8012(4) 0.1363(3)
H5_10 H 0.6217 0.7718 0.1217
C15_10 C 0.7025(3) 0.7975(3) 0.0702(4)
O9_10 O 0.5546(2) 0.8168(2) 0.2413(2)
C16_10 C 0.6150(4) 0.8221(3) 0.1779(3)
C17_10 C 0.6363(3) 0.8637(3) 0.1988(4)
H6_10 H 0.6217 0.8783 0.2282
C18_10 C 0.5702(4) 0.7975(3) 0.2025(3)
O11_10 O 0.5546(2) 0.7587(2) 0.1832(2)
O12_10 O 0.6832(2) 0.9454(2) 0.2413(2)
C1_7 C 0.1779(3) 0.6779(3) 0.8850(4)
C2_7 C 0.1363(3) 0.6988(4) 0.8637(3)
H1_7 H 0.1217 0.7282 0.8783
C3_7 C 0.2025(3) 0.7025(3) 0.9298(4)
O2_7 O 0.0546(2) 0.6832(2) 0.7587(2)
C4_7 C 0.1150(4) 0.6779(3) 0.8221(3)
C5_7 C 0.1363(3) 0.6363(3) 0.8012(4)
H2_7 H 0.1217 0.6217 0.7718
C6_7 C 0.0702(4) 0.7025(3) 0.7975(3)
O3_7 O 0.2413(2) 0.5546(2) 0.8168(2)
C7_7 C 0.1779(3) 0.6150(4) 0.8221(3)
C8_7 C 0.1988(4) 0.6363(3) 0.8637(3)
H3_7 H 0.2282 0.6217 0.8783
C9_7 C 0.2025(3) 0.5702(4) 0.7975(3)
O5_7 O 0.1832(2) 0.5546(2) 0.7587(2)
O6_7 O 0.2413(2) 0.6832(2) 0.9454(2)
C10_11 C 0.3221(3) 0.8850(4) 0.8221(3)
C11_11 C 0.3012(4) 0.8637(3) 0.8637(3)
H4_11 H 0.2718 0.8783 0.8783
C12_11 C 0.2975(3) 0.9298(4) 0.7975(3)
O8_11 O 0.3168(2) 0.7587(2) 0.9454(2)
C13_11 C 0.3221(3) 0.8221(3) 0.8850(4)
C14_11 C 0.3637(3) 0.8012(4) 0.8637(3)
H5_11 H 0.3783 0.7718 0.8783
C15_11 C 0.2975(3) 0.7975(3) 0.9298(4)
O9_11 O 0.4454(2) 0.8168(2) 0.7587(2)
C16_11 C 0.3850(4) 0.8221(3) 0.8221(3)
C17_11 C 0.3637(3) 0.8637(3) 0.8012(4)
H6_11 H 0.3783 0.8783 0.7718
C18_11 C 0.4298(4) 0.7975(3) 0.7975(3)
O11_11 O 0.4454(2) 0.7587(2) 0.8168(2)
O12_11 O 0.3168(2) 0.9454(2) 0.7587(2)
C1_8 C 0.8221(3) 0.3221(3) 0.8850(4)
C2_8 C 0.8637(3) 0.3012(4) 0.8637(3)
H1_8 H 0.8783 0.2718 0.8783
C3_8 C 0.7975(3) 0.2975(3) 0.9298(4)
O2_8 O 0.9454(2) 0.3168(2) 0.7587(2)
C4_8 C 0.8850(4) 0.3221(3) 0.8221(3)
C5_8 C 0.8637(3) 0.3637(3) 0.8012(4)
H2_8 H 0.8783 0.3783 0.7718
C6_8 C 0.9298(4) 0.2975(3) 0.7975(3)
O3_8 O 0.7587(2) 0.4454(2) 0.8168(2)
C7_8 C 0.8221(3) 0.3850(4) 0.8221(3)
C8_8 C 0.8012(4) 0.3637(3) 0.8637(3)
H3_8 H 0.7718 0.3783 0.8783
C9_8 C 0.7975(3) 0.4298(4) 0.7975(3)
O5_8 O 0.8168(2) 0.4454(2) 0.7587(2)
O6_8 O 0.7587(2) 0.3168(2) 0.9454(2)
C10_12 C 0.6779(3) 0.1150(4) 0.8221(3)
C11_12 C 0.6988(4) 0.1363(3) 0.8637(3)
H4_12 H 0.7282 0.1217 0.8783
C12_12 C 0.7025(3) 0.0702(4) 0.7975(3)
O8_12 O 0.6832(2) 0.2413(2) 0.9454(2)
C13_12 C 0.6779(3) 0.1779(3) 0.8850(4)
C14_12 C 0.6363(3) 0.1988(4) 0.8637(3)
H5_12 H 0.6217 0.2282 0.8783
C15_12 C 0.7025(3) 0.2025(3) 0.9298(4)
O9_12 O 0.5546(2) 0.1832(2) 0.7587(2)
C16_12 C 0.6150(4) 0.1779(3) 0.8221(3)
C17_12 C 0.6363(3) 0.1363(3) 0.8012(4)
H6_12 H 0.6217 0.1217 0.7718
C18_12 C 0.5702(4) 0.2025(3) 0.7975(3)
O11_12 O 0.5546(2) 0.2413(2) 0.8168(2)
O12_12 O 0.6832(2) 0.0546(2) 0.7587(2)
C10_13 C 0.1150(4) 0.8221(3) 0.6779(3)
C11_13 C 0.1363(3) 0.8637(3) 0.6988(4)
H4_13 H 0.1217 0.8783 0.7282
C12_13 C 0.0702(4) 0.7975(3) 0.7025(3)
O8_13 O 0.2413(2) 0.9454(2) 0.6832(2)
C13_13 C 0.1779(3) 0.8850(4) 0.6779(3)
C14_13 C 0.1988(4) 0.8637(3) 0.6363(3)
H5_13 H 0.2282 0.8783 0.6217
C15_13 C 0.2025(3) 0.9298(4) 0.7025(3)
O9_13 O 0.1832(2) 0.7587(2) 0.5546(2)
C16_13 C 0.1779(3) 0.8221(3) 0.6150(4)
C17_13 C 0.1363(3) 0.8012(4) 0.6363(3)
H6_13 H 0.1217 0.7718 0.6217
C18_13 C 0.2025(3) 0.7975(3) 0.5702(4)
O11_13 O 0.2413(2) 0.8168(2) 0.5546(2)
O12_13 O 0.0546(2) 0.7587(2) 0.6832(2)
C10_14 C 0.8850(4) 0.8221(3) 0.3221(3)
C11_14 C 0.8637(3) 0.8637(3) 0.3012(4)
H4_14 H 0.8783 0.8783 0.2718
C12_14 C 0.9298(4) 0.7975(3) 0.2975(3)
O8_14 O 0.7587(2) 0.9454(2) 0.3168(2)
C13_14 C 0.8221(3) 0.8850(4) 0.3221(3)
C14_14 C 0.8012(4) 0.8637(3) 0.3637(3)
H5_14 H 0.7718 0.8783 0.3783
C15_14 C 0.7975(3) 0.9298(4) 0.2975(3)
O9_14 O 0.8168(2) 0.7587(2) 0.4454(2)
C16_14 C 0.8221(3) 0.8221(3) 0.3850(4)
C17_14 C 0.8637(3) 0.8012(4) 0.3637(3)
H6_14 H 0.8783 0.7718 0.3783
C18_14 C 0.7975(3) 0.7975(3) 0.4298(4)
O11_14 O 0.7587(2) 0.8168(2) 0.4454(2)
O12_14 O 0.9454(2) 0.7587(2) 0.3168(2)
C10_15 C 0.8850(4) 0.1779(3) 0.6779(3)
C11_15 C 0.8637(3) 0.1363(3) 0.6988(4)
H4_15 H 0.8783 0.1217 0.7282
C12_15 C 0.9298(4) 0.2025(3) 0.7025(3)
O8_15 O 0.7587(2) 0.0546(2) 0.6832(2)
C13_15 C 0.8221(3) 0.1150(4) 0.6779(3)
C14_15 C 0.8012(4) 0.1363(3) 0.6363(3)
H5_15 H 0.7718 0.1217 0.6217
C15_15 C 0.7975(3) 0.0702(4) 0.7025(3)
O9_15 O 0.8168(2) 0.2413(2) 0.5546(2)
C16_15 C 0.8221(3) 0.1779(3) 0.6150(4)
C17_15 C 0.8637(3) 0.1988(4) 0.6363(3)
H6_15 H 0.8783 0.2282 0.6217
C18_15 C 0.7975(3) 0.2025(3) 0.5702(4)
O11_15 O 0.7587(2) 0.1832(2) 0.5546(2)
O12_15 O 0.9454(2) 0.2413(2) 0.6832(2)
C10_16 C 0.1150(4) 0.1779(3) 0.3221(3)
C11_16 C 0.1363(3) 0.1363(3) 0.3012(4)
H4_16 H 0.1217 0.1217 0.2718
C12_16 C 0.0702(4) 0.2025(3) 0.2975(3)
O8_16 O 0.2413(2) 0.0546(2) 0.3168(2)
C13_16 C 0.1779(3) 0.1150(4) 0.3221(3)
C14_16 C 0.1988(4) 0.1363(3) 0.3637(3)
H5_16 H 0.2282 0.1217 0.3783
C15_16 C 0.2025(3) 0.0702(4) 0.2975(3)
O9_16 O 0.1832(2) 0.2413(2) 0.4454(2)
C16_16 C 0.1779(3) 0.1779(3) 0.3850(4)
C17_16 C 0.1363(3) 0.1988(4) 0.3637(3)
H6_16 H 0.1217 0.2282 0.3783
C18_16 C 0.2025(3) 0.2025(3) 0.4298(4)
O11_16 O 0.2413(2) 0.1832(2) 0.4454(2)
O12_16 O 0.0546(2) 0.2413(2) 0.3168(2)
Cl1_9 Cl 0.14539(13) 0.64539(13) 0.5000
O1_5 O 0.2587(2) 0.6832(2) 0.4454(2)
C1_9 C 0.3221(3) 0.6779(3) 0.3850(4)
C2_9 C 0.3012(4) 0.6363(3) 0.3637(3)
H1_9 H 0.2718 0.6217 0.3783
C3_9 C 0.2975(3) 0.7025(3) 0.4298(4)
O2_9 O 0.3168(2) 0.5546(2) 0.2587(2)
C4_9 C 0.3221(3) 0.6150(4) 0.3221(3)
C5_9 C 0.3637(3) 0.6363(3) 0.3012(4)
H2_9 H 0.3783 0.6217 0.2718
C6_9 C 0.2975(3) 0.5702(4) 0.2975(3)
O3_9 O 0.4454(2) 0.7413(2) 0.3168(2)
C7_9 C 0.3850(4) 0.6779(3) 0.3221(3)
C8_9 C 0.3637(3) 0.6988(4) 0.3637(3)
H3_9 H 0.3783 0.7282 0.3783
C9_9 C 0.4298(4) 0.7025(3) 0.2975(3)
O4_5 O 0.2587(2) 0.5546(2) 0.3168(2)
O5_9 O 0.4454(2) 0.6832(2) 0.2587(2)
O6_9 O 0.3168(2) 0.7413(2) 0.4454(2)
Cl2_9 Cl 0.0000 0.64539(13) 0.35461(13)
Cl3_9 Cl 0.14539(13) 0.5000 0.35461(13)
O15_5 O 0.2587(2) 0.4454(2) 0.3168(2)
O17_5 O 0.2587(2) 0.6832(2) 0.5546(2)
Cl2_10 Cl 1.0000 0.64539(13) 0.35461(13)
Cl2_11 Cl 0.0000 0.35461(13) 0.35461(13)
Cl1_10 Cl 0.85461(13) 0.35461(13) 0.5000
O1_6 O 0.7413(2) 0.3168(2) 0.4454(2)
C1_10 C 0.6779(3) 0.3221(3) 0.3850(4)
C2_10 C 0.6988(4) 0.3637(3) 0.3637(3)
H1_10 H 0.7282 0.3783 0.3783
C3_10 C 0.7025(3) 0.2975(3) 0.4298(4)
O2_10 O 0.6832(2) 0.4454(2) 0.2587(2)
C4_10 C 0.6779(3) 0.3850(4) 0.3221(3)
C5_10 C 0.6363(3) 0.3637(3) 0.3012(4)
H2_10 H 0.6217 0.3783 0.2718
C6_10 C 0.7025(3) 0.4298(4) 0.2975(3)
O3_10 O 0.5546(2) 0.2587(2) 0.3168(2)
C7_10 C 0.6150(4) 0.3221(3) 0.3221(3)
C8_10 C 0.6363(3) 0.3012(4) 0.3637(3)
H3_10 H 0.6217 0.2718 0.3783
C9_10 C 0.5702(4) 0.2975(3) 0.2975(3)
O4_6 O 0.7413(2) 0.4454(2) 0.3168(2)
O5_10 O 0.5546(2) 0.3168(2) 0.2587(2)
O6_10 O 0.6832(2) 0.2587(2) 0.4454(2)
Cl2_12 Cl 1.0000 0.35461(13) 0.35461(13)
Cl3_10 Cl 0.85461(13) 0.5000 0.35461(13)
O15_6 O 0.7413(2) 0.5546(2) 0.3168(2)
O17_6 O 0.7413(2) 0.3168(2) 0.5546(2)
Cl2_13 Cl 0.0000 0.64539(13) 0.64539(13)
Cl1_11 Cl 0.85461(13) 0.64539(13) 0.5000
O1_7 O 0.7413(2) 0.6832(2) 0.5546(2)
C1_11 C 0.6779(3) 0.6779(3) 0.6150(4)
C2_11 C 0.6988(4) 0.6363(3) 0.6363(3)
H1_11 H 0.7282 0.6217 0.6217
C3_11 C 0.7025(3) 0.7025(3) 0.5702(4)
O2_11 O 0.6832(2) 0.5546(2) 0.7413(2)
C4_11 C 0.6779(3) 0.6150(4) 0.6779(3)
C5_11 C 0.6363(3) 0.6363(3) 0.6988(4)
H2_11 H 0.6217 0.6217 0.7282
C6_11 C 0.7025(3) 0.5702(4) 0.7025(3)
O3_11 O 0.5546(2) 0.7413(2) 0.6832(2)
C7_11 C 0.6150(4) 0.6779(3) 0.6779(3)
C8_11 C 0.6363(3) 0.6988(4) 0.6363(3)
H3_11 H 0.6217 0.7282 0.6217
C9_11 C 0.5702(4) 0.7025(3) 0.7025(3)
O4_7 O 0.7413(2) 0.5546(2) 0.6832(2)
O5_11 O 0.5546(2) 0.6832(2) 0.7413(2)
O6_11 O 0.6832(2) 0.7413(2) 0.5546(2)
Cl2_14 Cl 1.0000 0.64539(13) 0.64539(13)
Cl3_11 Cl 0.85461(13) 0.5000 0.64539(13)
O15_7 O 0.7413(2) 0.4454(2) 0.6832(2)
O17_7 O 0.7413(2) 0.6832(2) 0.4454(2)
Cl1_12 Cl 0.14539(13) 0.35461(13) 0.5000
O1_8 O 0.2587(2) 0.3168(2) 0.5546(2)
C1_12 C 0.3221(3) 0.3221(3) 0.6150(4)
C2_12 C 0.3012(4) 0.3637(3) 0.6363(3)
H1_12 H 0.2718 0.3783 0.6217
C3_12 C 0.2975(3) 0.2975(3) 0.5702(4)
O2_12 O 0.3168(2) 0.4454(2) 0.7413(2)
C4_12 C 0.3221(3) 0.3850(4) 0.6779(3)
C5_12 C 0.3637(3) 0.3637(3) 0.6988(4)
H2_12 H 0.3783 0.3783 0.7282
C6_12 C 0.2975(3) 0.4298(4) 0.7025(3)
O3_12 O 0.4454(2) 0.2587(2) 0.6832(2)
C7_12 C 0.3850(4) 0.3221(3) 0.6779(3)
C8_12 C 0.3637(3) 0.3012(4) 0.6363(3)
H3_12 H 0.3783 0.2718 0.6217
C9_12 C 0.4298(4) 0.2975(3) 0.7025(3)
O4_8 O 0.2587(2) 0.4454(2) 0.6832(2)
O5_12 O 0.4454(2) 0.3168(2) 0.7413(2)
O6_12 O 0.3168(2) 0.2587(2) 0.5546(2)
Cl2_15 Cl 0.0000 0.35461(13) 0.64539(13)
Cl3_12 Cl 0.14539(13) 0.5000 0.64539(13)
O15_8 O 0.2587(2) 0.5546(2) 0.6832(2)
O17_8 O 0.2587(2) 0.3168(2) 0.4454(2)
Cl2_16 Cl 1.0000 0.35461(13) 0.64539(13)
C10_17 C 0.3221(3) 0.6150(4) 0.6779(3)
C11_17 C 0.3012(4) 0.6363(3) 0.6363(3)
H4_17 H 0.2718 0.6217 0.6217
C12_17 C 0.2975(3) 0.5702(4) 0.7025(3)
O8_17 O 0.3168(2) 0.7413(2) 0.5546(2)
C13_17 C 0.3221(3) 0.6779(3) 0.6150(4)
C14_17 C 0.3637(3) 0.6988(4) 0.6363(3)
H5_17 H 0.3783 0.7282 0.6217
C15_17 C 0.2975(3) 0.7025(3) 0.5702(4)
O9_17 O 0.4454(2) 0.6832(2) 0.7413(2)
C16_17 C 0.3850(4) 0.6779(3) 0.6779(3)
C17_17 C 0.3637(3) 0.6363(3) 0.6988(4)
H6_17 H 0.3783 0.6217 0.7282
C18_17 C 0.4298(4) 0.7025(3) 0.7025(3)
O11_17 O 0.4454(2) 0.7413(2) 0.6832(2)
O12_17 O 0.3168(2) 0.5546(2) 0.7413(2)
C10_18 C 0.6779(3) 0.3850(4) 0.6779(3)
C11_18 C 0.6988(4) 0.3637(3) 0.6363(3)
H4_18 H 0.7282 0.3783 0.6217
C12_18 C 0.7025(3) 0.4298(4) 0.7025(3)
O8_18 O 0.6832(2) 0.2587(2) 0.5546(2)
C13_18 C 0.6779(3) 0.3221(3) 0.6150(4)
C14_18 C 0.6363(3) 0.3012(4) 0.6363(3)
H5_18 H 0.6217 0.2718 0.6217
C15_18 C 0.7025(3) 0.2975(3) 0.5702(4)
O9_18 O 0.5546(2) 0.3168(2) 0.7413(2)
C16_18 C 0.6150(4) 0.3221(3) 0.6779(3)
C17_18 C 0.6363(3) 0.3637(3) 0.6988(4)
H6_18 H 0.6217 0.3783 0.7282
C18_18 C 0.5702(4) 0.2975(3) 0.7025(3)
O11_18 O 0.5546(2) 0.2587(2) 0.6832(2)
O12_18 O 0.6832(2) 0.4454(2) 0.7413(2)
C10_19 C 0.3221(3) 0.3850(4) 0.3221(3)
C11_19 C 0.3012(4) 0.3637(3) 0.3637(3)
H4_19 H 0.2718 0.3783 0.3783
C12_19 C 0.2975(3) 0.4298(4) 0.2975(3)
O8_19 O 0.3168(2) 0.2587(2) 0.4454(2)
C13_19 C 0.3221(3) 0.3221(3) 0.3850(4)
C14_19 C 0.3637(3) 0.3012(4) 0.3637(3)
H5_19 H 0.3783 0.2718 0.3783
C15_19 C 0.2975(3) 0.2975(3) 0.4298(4)
O9_19 O 0.4454(2) 0.3168(2) 0.2587(2)
C16_19 C 0.3850(4) 0.3221(3) 0.3221(3)
C17_19 C 0.3637(3) 0.3637(3) 0.3012(4)
H6_19 H 0.3783 0.3783 0.2718
C18_19 C 0.4298(4) 0.2975(3) 0.2975(3)
O11_19 O 0.4454(2) 0.2587(2) 0.3168(2)
O12_19 O 0.3168(2) 0.4454(2) 0.2587(2)
C10_20 C 0.6779(3) 0.6150(4) 0.3221(3)
C11_20 C 0.6988(4) 0.6363(3) 0.3637(3)
H4_20 H 0.7282 0.6217 0.3783
C12_20 C 0.7025(3) 0.5702(4) 0.2975(3)
O8_20 O 0.6832(2) 0.7413(2) 0.4454(2)
C13_20 C 0.6779(3) 0.6779(3) 0.3850(4)
C14_20 C 0.6363(3) 0.6988(4) 0.3637(3)
H5_20 H 0.6217 0.7282 0.3783
C15_20 C 0.7025(3) 0.7025(3) 0.4298(4)
O9_20 O 0.5546(2) 0.6832(2) 0.2587(2)
C16_20 C 0.6150(4) 0.6779(3) 0.3221(3)
C17_20 C 0.6363(3) 0.6363(3) 0.3012(4)
H6_20 H 0.6217 0.6217 0.2718
C18_20 C 0.5702(4) 0.7025(3) 0.2975(3)
O11_20 O 0.5546(2) 0.7413(2) 0.3168(2)
O12_20 O 0.6832(2) 0.5546(2) 0.2587(2)
Cl1_13 Cl 0.64539(13) 0.14539(13) 0.5000
Cl2_17 Cl 0.5000 0.14539(13) 0.35461(13)
Cl3_13 Cl 0.64539(13) -0.0000 0.35461(13)
Cl3_14 Cl 0.64539(13) 1.0000 0.35461(13)
Cl3_15 Cl 0.35461(13) 0.0000 0.35461(13)
Cl1_14 Cl 0.35461(13) 0.85461(13) 0.5000
Cl2_18 Cl 0.5000 0.85461(13) 0.35461(13)
Cl3_16 Cl 0.35461(13) 1.0000 0.35461(13)
Cl1_15 Cl 0.35461(13) 0.14539(13) 0.5000
Cl2_19 Cl 0.5000 0.14539(13) 0.64539(13)
Cl3_17 Cl 0.35461(13) -0.0000 0.64539(13)
Cl3_18 Cl 0.35461(13) 1.0000 0.64539(13)
Cl3_19 Cl 0.64539(13) 0.0000 0.64539(13)
Cl1_16 Cl 0.64539(13) 0.85461(13) 0.5000
Cl2_20 Cl 0.5000 0.85461(13) 0.64539(13)
Cl3_20 Cl 0.64539(13) 1.0000 0.64539(13)
Cl1_17 Cl 0.64539(13) 0.64539(13) 0.0000
Cl1_18 Cl 0.64539(13) 0.64539(13) 1.0000
Cl2_21 Cl 0.5000 0.64539(13) 0.85461(13)
Cl3_21 Cl 0.64539(13) 0.5000 0.85461(13)
Cl1_19 Cl 0.35461(13) 0.35461(13) 0.0000
Cl1_20 Cl 0.35461(13) 0.35461(13) 1.0000
Cl2_22 Cl 0.5000 0.35461(13) 0.85461(13)
Cl3_22 Cl 0.35461(13) 0.5000 0.85461(13)
Cl1_21 Cl 0.35461(13) 0.64539(13) 0.0000
Cl2_23 Cl 0.5000 0.64539(13) 0.14539(13)
Cl3_23 Cl 0.35461(13) 0.5000 0.14539(13)
Cl1_22 Cl 0.35461(13) 0.64539(13) 1.0000
Cl1_23 Cl 0.64539(13) 0.35461(13) 0.0000
Cl2_24 Cl 0.5000 0.35461(13) 0.14539(13)
Cl3_24 Cl 0.64539(13) 0.5000 0.14539(13)
Cl1_24 Cl 0.64539(13) 0.35461(13) 1.0000
loop_
_geom_bond_atom_site_label_1
_geom_bond_atom_site_label_2
_geom_bond_site_symmetry_1
_geom_bond_site_symmetry_2
Mn1 Cl1 1_555 1_555
O14 Mn1 1_555 1_555
O17 Mn1 1_555 1_555
Mn1_2 Cl1_2 1_555 1_555
O1 Mn1_2 1_555 1_555
C1 C2 1_555 1_555
C2 H1 1_555 1_555
C3 O1 1_555 1_555
O2 C6 1_555 1_555
C4 C2 1_555 1_555
C5 C4 1_555 1_555
H2 C5 1_555 1_555
C6 C4 1_555 1_555
O3 C9 1_555 1_555
C7 C5 1_555 1_555
C8 C1 1_555 1_555
H3 C8 1_555 1_555
C9 C7 1_555 1_555
O4 C6 1_555 1_555
O5 C9 1_555 1_555
O6 C3 1_555 1_555
Mn2 Cl2 1_555 1_555
O7 Mn2 1_555 1_555
C10 C11 1_555 1_555
C11 H4 1_555 1_555
C12 O7 1_555 1_555
O8 C15 1_555 1_555
C13 C11 1_555 1_555
C14 C13 1_555 1_555
H5 C14 1_555 1_555
C15 C13 1_555 1_555
O9 C18 1_555 1_555
C16 C14 1_555 1_555
C17 C10 1_555 1_555
H6 C17 1_555 1_555
C18 C16 1_555 1_555
O10 Mn1_2 1_555 1_555
O11 C18 1_555 1_555
O12 C12 1_555 1_555
Mn3 O4 1_555 1_555
Cl3 Mn3 1_555 1_555
Mn4 O12 1_555 1_555
Mn5 O9 1_555 1_555
Mn6 O5 1_555 1_555
Mn7 O2 1_555 1_555
Mn8_2 O6 1_555 1_555
Mn9 O3 1_555 1_555
Mn10 O11 1_555 1_555
O13 Mn3 1_555 1_555
O20 Mn2 1_555 1_555
C1 C3 1_555 1_555
C7 C8 1_555 1_555
C10 C12 1_555 1_555
O8 Mn8_2 1_555 1_555
C15 O10 1_555 1_555
C16 C17 1_555 1_555
Cl3_2 Mn3_2 1_555 1_555
O15 Mn3_2 1_555 1_555
O19 Mn3_2 1_555 1_555
Mn2_2 Cl2_2 1_555 1_555
O16 Mn2_2 1_555 1_555
O18 Mn2_2 1_555 1_555
Mn2_3 Cl2_3 1_555 1_555
O16_2 Mn2_3 1_555 1_555
O18_2 Mn2_3 1_555 1_555
Cl3_3 Mn3_3 1_555 1_555
O15_2 Mn3_3 1_555 1_555
O19_2 Mn3_3 1_555 1_555
Mn1_3 Cl1_3 1_555 1_555
O14_2 Mn1_3 1_555 1_555
O17_2 Mn1_3 1_555 1_555
Mn1_4 Cl1_4 1_555 1_555
O1_2 Mn1_4 1_555 1_555
C1_2 C2_2 1_555 1_555
C2_2 H1_2 1_555 1_555
C3_2 O1_2 1_555 1_555
O2_2 C6_2 1_555 1_555
C4_2 C2_2 1_555 1_555
C5_2 C4_2 1_555 1_555
H2_2 C5_2 1_555 1_555
C6_2 C4_2 1_555 1_555
O3_2 C9_2 1_555 1_555
C7_2 C5_2 1_555 1_555
C8_2 C1_2 1_555 1_555
H3_2 C8_2 1_555 1_555
C9_2 C7_2 1_555 1_555
O4_2 C6_2 1_555 1_555
O5_2 C9_2 1_555 1_555
O6_2 C3_2 1_555 1_555
Mn2_4 Cl2_4 1_555 1_555
O7_2 Mn2_4 1_555 1_555
C10_2 C11_2 1_555 1_555
C11_2 H4_2 1_555 1_555
C12_2 O7_2 1_555 1_555
O8_2 C15_2 1_555 1_555
C13_2 C11_2 1_555 1_555
C14_2 C13_2 1_555 1_555
H5_2 C14_2 1_555 1_555
C15_2 C13_2 1_555 1_555
O9_2 C18_2 1_555 1_555
C16_2 C14_2 1_555 1_555
C17_2 C10_2 1_555 1_555
H6_2 C17_2 1_555 1_555
C18_2 C16_2 1_555 1_555
O10_2 Mn1_4 1_555 1_555
O11_2 C18_2 1_555 1_555
O12_2 C12_2 1_555 1_555
Mn3_4 O4_2 1_555 1_555
Cl3_4 Mn3_4 1_555 1_555
Mn4_4 O12_2 1_555 1_555
Mn5_2 O9_2 1_555 1_555
Mn6_2 O5_2 1_555 1_555
Mn7_4 O2_2 1_555 1_555
Mn8_4 O6_2 1_555 1_555
Mn9_2 O3_2 1_555 1_555
Mn10_2 O11_2 1_555 1_555
O13_2 Mn3_4 1_555 1_555
O20_2 Mn2_4 1_555 1_555
C1_2 C3_2 1_555 1_555
C7_2 C8_2 1_555 1_555
C10_2 C12_2 1_555 1_555
O8_2 Mn8_4 1_555 1_555
C15_2 O10_2 1_555 1_555
C16_2 C17_2 1_555 1_555
Mn2_5 Cl2_5 1_555 1_555
O16_3 Mn2_5 1_555 1_555
O18_3 Mn2_5 1_555 1_555
Mn1_5 Cl1_5 1_555 1_555
O1_3 Mn1_5 1_555 1_555
C1_3 C2_3 1_555 1_555
C2_3 H1_3 1_555 1_555
C3_3 O1_3 1_555 1_555
O2_3 C6_3 1_555 1_555
C4_3 C2_3 1_555 1_555
C5_3 C4_3 1_555 1_555
H2_3 C5_3 1_555 1_555
C6_3 C4_3 1_555 1_555
O3_3 C9_3 1_555 1_555
C7_3 C5_3 1_555 1_555
C8_3 C1_3 1_555 1_555
H3_3 C8_3 1_555 1_555
C9_3 C7_3 1_555 1_555
O4_3 C6_3 1_555 1_555
O5_3 C9_3 1_555 1_555
O6_3 C3_3 1_555 1_555
Mn2_6 Cl2_6 1_555 1_555
O7_3 Mn2_6 1_555 1_555
C10_3 C11_3 1_555 1_555
C11_3 H4_3 1_555 1_555
C12_3 O7_3 1_555 1_555
O8_3 C15_3 1_555 1_555
C13_3 C11_3 1_555 1_555
C14_3 C13_3 1_555 1_555
H5_3 C14_3 1_555 1_555
C15_3 C13_3 1_555 1_555
O9_3 C18_3 1_555 1_555
C16_3 C14_3 1_555 1_555
C17_3 C10_3 1_555 1_555
H6_3 C17_3 1_555 1_555
C18_3 C16_3 1_555 1_555
O10_3 Mn1_5 1_555 1_555
O11_3 C18_3 1_555 1_555
O12_3 C12_3 1_555 1_555
Mn3_5 O4_3 1_555 1_555
Cl3_5 Mn3_5 1_555 1_555
Mn4_6 O12_3 1_555 1_555
Mn5_3 O9_3 1_555 1_555
Mn6_3 O5_3 1_555 1_555
Mn7_5 O2_3 1_555 1_555
Mn8_5 O6_3 1_555 1_555
Mn9_3 O3_3 1_555 1_555
Mn10_3 O11_3 1_555 1_555
O13_3 Mn3_5 1_555 1_555
O20_3 Mn2_6 1_555 1_555
C1_3 C3_3 1_555 1_555
C7_3 C8_3 1_555 1_555
C10_3 C12_3 1_555 1_555
O8_3 Mn8_5 1_555 1_555
C15_3 O10_3 1_555 1_555
C16_3 C17_3 1_555 1_555
Mn1_6 Cl1_6 1_555 1_555
O14_3 Mn1_6 1_555 1_555
O17_3 Mn1_6 1_555 1_555
Cl3_6 Mn3_6 1_555 1_555
O15_3 Mn3_6 1_555 1_555
O19_3 Mn3_6 1_555 1_555
Cl3_7 Mn3_7 1_555 1_555
O15_4 Mn3_7 1_555 1_555
O19_4 Mn3_7 1_555 1_555
Mn1_7 Cl1_7 1_555 1_555
O1_4 Mn1_7 1_555 1_555
C1_4 C2_4 1_555 1_555
C2_4 H1_4 1_555 1_555
C3_4 O1_4 1_555 1_555
O2_4 C6_4 1_555 1_555
C4_4 C2_4 1_555 1_555
C5_4 C4_4 1_555 1_555
H2_4 C5_4 1_555 1_555
C6_4 C4_4 1_555 1_555
O3_4 C9_4 1_555 1_555
C7_4 C5_4 1_555 1_555
C8_4 C1_4 1_555 1_555
H3_4 C8_4 1_555 1_555
C9_4 C7_4 1_555 1_555
O4_4 C6_4 1_555 1_555
O5_4 C9_4 1_555 1_555
O6_4 C3_4 1_555 1_555
Mn2_7 Cl2_7 1_555 1_555
O7_4 Mn2_7 1_555 1_555
C10_4 C11_4 1_555 1_555
C11_4 H4_4 1_555 1_555
C12_4 O7_4 1_555 1_555
O8_4 C15_4 1_555 1_555
C13_4 C11_4 1_555 1_555
C14_4 C13_4 1_555 1_555
H5_4 C14_4 1_555 1_555
C15_4 C13_4 1_555 1_555
O9_4 C18_4 1_555 1_555
C16_4 C14_4 1_555 1_555
C17_4 C10_4 1_555 1_555
H6_4 C17_4 1_555 1_555
C18_4 C16_4 1_555 1_555
O10_4 Mn1_7 1_555 1_555
O11_4 C18_4 1_555 1_555
O12_4 C12_4 1_555 1_555
Mn3_8 O4_4 1_555 1_555
Cl3_8 Mn3_8 1_555 1_555
Mn4_7 O12_4 1_555 1_555
Mn5_4 O9_4 1_555 1_555
Mn6_4 O5_4 1_555 1_555
Mn7_8 O2_4 1_555 1_555
Mn8_7 O6_4 1_555 1_555
Mn9_4 O3_4 1_555 1_555
Mn10_4 O11_4 1_555 1_555
O13_4 Mn3_8 1_555 1_555
O20_4 Mn2_7 1_555 1_555
C1_4 C3_4 1_555 1_555
C7_4 C8_4 1_555 1_555
C10_4 C12_4 1_555 1_555
O8_4 Mn8_7 1_555 1_555
C15_4 O10_4 1_555 1_555
C16_4 C17_4 1_555 1_555
Mn1_8 Cl1_8 1_555 1_555
O14_4 Mn1_8 1_555 1_555
O17_4 Mn1_8 1_555 1_555
Mn2_8 Cl2_8 1_555 1_555
O16_4 Mn2_8 1_555 1_555
O18_4 Mn2_8 1_555 1_555
C10_5 C11_5 1_555 1_555
C11_5 H4_5 1_555 1_555
C12_5 O13_3 1_555 1_555
O8_5 C15_5 1_555 1_555
C13_5 C11_5 1_555 1_555
C14_5 C13_5 1_555 1_555
H5_5 C14_5 1_555 1_555
C15_5 C13_5 1_555 1_555
O9_5 C18_5 1_555 1_555
C16_5 C14_5 1_555 1_555
C17_5 C10_5 1_555 1_555
H6_5 C17_5 1_555 1_555
C18_5 C16_5 1_555 1_555
O11_5 C18_5 1_555 1_555
O12_5 C12_5 1_555 1_555
Mn7_5 O12_5 1_555 1_555
Mn5_5 O9_5 1_555 1_555
Mn10_5 O11_5 1_555 1_555
C10_5 C12_5 1_555 1_555
O8_5 Mn4_6 1_555 1_555
C15_5 O20_3 1_555 1_555
C16_5 C17_5 1_555 1_555
C10_6 C11_6 1_555 1_555
C11_6 H4_6 1_555 1_555
C12_6 O13_2 1_555 1_555
O8_6 C15_6 1_555 1_555
C13_6 C11_6 1_555 1_555
C14_6 C13_6 1_555 1_555
H5_6 C14_6 1_555 1_555
C15_6 C13_6 1_555 1_555
O9_6 C18_6 1_555 1_555
C16_6 C14_6 1_555 1_555
C17_6 C10_6 1_555 1_555
H6_6 C17_6 1_555 1_555
C18_6 C16_6 1_555 1_555
O11_6 C18_6 1_555 1_555
O12_6 C12_6 1_555 1_555
Mn7_4 O12_6 1_555 1_555
Mn5_6 O9_6 1_555 1_555
Mn10_6 O11_6 1_555 1_555
C10_6 C12_6 1_555 1_555
O8_6 Mn4_4 1_555 1_555
C15_6 O20_2 1_555 1_555
C16_6 C17_6 1_555 1_555
C10_7 C11_7 1_555 1_555
C11_7 H4_7 1_555 1_555
C12_7 O13_4 1_555 1_555
O8_7 C15_7 1_555 1_555
C13_7 C11_7 1_555 1_555
C14_7 C13_7 1_555 1_555
H5_7 C14_7 1_555 1_555
C15_7 C13_7 1_555 1_555
O9_7 C18_7 1_555 1_555
C16_7 C14_7 1_555 1_555
C17_7 C10_7 1_555 1_555
H6_7 C17_7 1_555 1_555
C18_7 C16_7 1_555 1_555
O11_7 C18_7 1_555 1_555
O12_7 C12_7 1_555 1_555
Mn7_8 O12_7 1_555 1_555
Mn5_7 O9_7 1_555 1_555
Mn10_7 O11_7 1_555 1_555
C10_7 C12_7 1_555 1_555
O8_7 Mn4_7 1_555 1_555
C15_7 O20_4 1_555 1_555
C16_7 C17_7 1_555 1_555
C10_8 C11_8 1_555 1_555
C11_8 H4_8 1_555 1_555
C12_8 O13 1_555 1_555
O8_8 C15_8 1_555 1_555
C13_8 C11_8 1_555 1_555
C14_8 C13_8 1_555 1_555
H5_8 C14_8 1_555 1_555
C15_8 C13_8 1_555 1_555
O9_8 C18_8 1_555 1_555
C16_8 C14_8 1_555 1_555
C17_8 C10_8 1_555 1_555
H6_8 C17_8 1_555 1_555
C18_8 C16_8 1_555 1_555
O11_8 C18_8 1_555 1_555
O12_8 C12_8 1_555 1_555
Mn7 O12_8 1_555 1_555
Mn5_8 O9_8 1_555 1_555
Mn10_8 O11_8 1_555 1_555
C10_8 C12_8 1_555 1_555
O8_8 Mn4 1_555 1_555
C15_8 O20 1_555 1_555
C16_8 C17_8 1_555 1_555
C1_5 C2_5 1_555 1_555
C2_5 H1_5 1_555 1_555
C3_5 O14 1_555 1_555
O2_5 C6_5 1_555 1_555
C4_5 C2_5 1_555 1_555
C5_5 C4_5 1_555 1_555
H2_5 C5_5 1_555 1_555
C6_5 C4_5 1_555 1_555
O3_5 C9_5 1_555 1_555
C7_5 C5_5 1_555 1_555
C8_5 C1_5 1_555 1_555
H3_5 C8_5 1_555 1_555
C9_5 C7_5 1_555 1_555
O18_3 C6_5 1_555 1_555
O5_5 C9_5 1_555 1_555
O6_5 C3_5 1_555 1_555
C10_9 C11_9 1_555 1_555
C11_9 H4_9 1_555 1_555
C12_9 O15_4 1_555 1_555
O8_9 C15_9 1_555 1_555
C13_9 C11_9 1_555 1_555
C14_9 C13_9 1_555 1_555
H5_9 C14_9 1_555 1_555
C15_9 C13_9 1_555 1_555
O9_9 C18_9 1_555 1_555
C16_9 C14_9 1_555 1_555
C17_9 C10_9 1_555 1_555
H6_9 C17_9 1_555 1_555
C18_9 C16_9 1_555 1_555
O11_9 C18_9 1_555 1_555
O12_9 C12_9 1_555 1_555
Mn7_7 O12_9 1_555 1_555
Mn6_3 O9_9 1_555 1_555
Mn5_4 O5_5 1_555 1_555
Mn4_5 O2_5 1_555 1_555
Mn8 O6_5 1_555 1_555
Mn10_4 O3_5 1_555 1_555
Mn9_3 O11_9 1_555 1_555
C1_5 C3_5 1_555 1_555
C7_5 C8_5 1_555 1_555
C10_9 C12_9 1_555 1_555
O8_9 Mn8 1_555 1_555
C15_9 O17 1_555 1_555
C16_9 C17_9 1_555 1_555
C1_6 C2_6 1_555 1_555
C2_6 H1_6 1_555 1_555
C3_6 O14_2 1_555 1_555
O2_6 C6_6 1_555 1_555
C4_6 C2_6 1_555 1_555
C5_6 C4_6 1_555 1_555
H2_6 C5_6 1_555 1_555
C6_6 C4_6 1_555 1_555
O3_6 C9_6 1_555 1_555
C7_6 C5_6 1_555 1_555
C8_6 C1_6 1_555 1_555
H3_6 C8_6 1_555 1_555
C9_6 C7_6 1_555 1_555
O18_4 C6_6 1_555 1_555
O5_6 C9_6 1_555 1_555
O6_6 C3_6 1_555 1_555
C10_10 C11_10 1_555 1_555
C11_10 H4_10 1_555 1_555
C12_10 O15_3 1_555 1_555
O8_10 C15_10 1_555 1_555
C13_10 C11_10 1_555 1_555
C14_10 C13_10 1_555 1_555
H5_10 C14_10 1_555 1_555
C15_10 C13_10 1_555 1_555
O9_10 C18_10 1_555 1_555
C16_10 C14_10 1_555 1_555
C17_10 C10_10 1_555 1_555
H6_10 C17_10 1_555 1_555
C18_10 C16_10 1_555 1_555
O11_10 C18_10 1_555 1_555
O12_10 C12_10 1_555 1_555
Mn7_6 O12_10 1_555 1_555
Mn6_4 O9_10 1_555 1_555
Mn5_3 O5_6 1_555 1_555
Mn4_8 O2_6 1_555 1_555
Mn8_3 O6_6 1_555 1_555
Mn10_3 O3_6 1_555 1_555
Mn9_4 O11_10 1_555 1_555
C1_6 C3_6 1_555 1_555
C7_6 C8_6 1_555 1_555
C10_10 C12_10 1_555 1_555
O8_10 Mn8_3 1_555 1_555
C15_10 O17_2 1_555 1_555
C16_10 C17_10 1_555 1_555
C1_7 C2_7 1_555 1_555
C2_7 H1_7 1_555 1_555
C3_7 O14_4 1_555 1_555
O2_7 C6_7 1_555 1_555
C4_7 C2_7 1_555 1_555
C5_7 C4_7 1_555 1_555
H2_7 C5_7 1_555 1_555
C6_7 C4_7 1_555 1_555
O3_7 C9_7 1_555 1_555
C7_7 C5_7 1_555 1_555
C8_7 C1_7 1_555 1_555
H3_7 C8_7 1_555 1_555
C9_7 C7_7 1_555 1_555
O18_2 C6_7 1_555 1_555
O5_7 C9_7 1_555 1_555
O6_7 C3_7 1_555 1_555
C10_11 C11_11 1_555 1_555
C11_11 H4_11 1_555 1_555
C12_11 O15 1_555 1_555
O8_11 C15_11 1_555 1_555
C13_11 C11_11 1_555 1_555
C14_11 C13_11 1_555 1_555
H5_11 C14_11 1_555 1_555
C15_11 C13_11 1_555 1_555
O9_11 C18_11 1_555 1_555
C16_11 C14_11 1_555 1_555
C17_11 C10_11 1_555 1_555
H6_11 C17_11 1_555 1_555
C18_11 C16_11 1_555 1_555
O11_11 C18_11 1_555 1_555
O12_11 C12_11 1_555 1_555
Mn7_2 O12_11 1_555 1_555
Mn6_2 O9_11 1_555 1_555
Mn5 O5_7 1_555 1_555
Mn4_3 O2_7 1_555 1_555
Mn8_8 O6_7 1_555 1_555
Mn10 O3_7 1_555 1_555
Mn9_2 O11_11 1_555 1_555
C1_7 C3_7 1_555 1_555
C7_7 C8_7 1_555 1_555
C10_11 C12_11 1_555 1_555
O8_11 Mn8_8 1_555 1_555
C15_11 O17_4 1_555 1_555
C16_11 C17_11 1_555 1_555
C1_8 C2_8 1_555 1_555
C2_8 H1_8 1_555 1_555
C3_8 O14_3 1_555 1_555
O2_8 C6_8 1_555 1_555
C4_8 C2_8 1_555 1_555
C5_8 C4_8 1_555 1_555
H2_8 C5_8 1_555 1_555
C6_8 C4_8 1_555 1_555
O3_8 C9_8 1_555 1_555
C7_8 C5_8 1_555 1_555
C8_8 C1_8 1_555 1_555
H3_8 C8_8 1_555 1_555
C9_8 C7_8 1_555 1_555
O18 C6_8 1_555 1_555
O5_8 C9_8 1_555 1_555
O6_8 C3_8 1_555 1_555
C10_12 C11_12 1_555 1_555
C11_12 H4_12 1_555 1_555
C12_12 O15_2 1_555 1_555
O8_12 C15_12 1_555 1_555
C13_12 C11_12 1_555 1_555
C14_12 C13_12 1_555 1_555
H5_12 C14_12 1_555 1_555
C15_12 C13_12 1_555 1_555
O9_12 C18_12 1_555 1_555
C16_12 C14_12 1_555 1_555
C17_12 C10_12 1_555 1_555
H6_12 C17_12 1_555 1_555
C18_12 C16_12 1_555 1_555
O11_12 C18_12 1_555 1_555
O12_12 C12_12 1_555 1_555
Mn7_3 O12_12 1_555 1_555
Mn6 O9_12 1_555 1_555
Mn5_2 O5_8 1_555 1_555
Mn4_2 O2_8 1_555 1_555
Mn8_6 O6_8 1_555 1_555
Mn10_2 O3_8 1_555 1_555
Mn9 O11_12 1_555 1_555
C1_8 C3_8 1_555 1_555
C7_8 C8_8 1_555 1_555
C10_12 C12_12 1_555 1_555
O8_12 Mn8_6 1_555 1_555
C15_12 O17_3 1_555 1_555
C16_12 C17_12 1_555 1_555
C10_13 C11_13 1_555 1_555
C11_13 H4_13 1_555 1_555
C12_13 O16_2 1_555 1_555
O8_13 C15_13 1_555 1_555
C13_13 C11_13 1_555 1_555
C14_13 C13_13 1_555 1_555
H5_13 C14_13 1_555 1_555
C15_13 C13_13 1_555 1_555
O9_13 C18_13 1_555 1_555
C16_13 C14_13 1_555 1_555
C17_13 C10_13 1_555 1_555
H6_13 C17_13 1_555 1_555
C18_13 C16_13 1_555 1_555
O11_13 C18_13 1_555 1_555
O12_13 C12_13 1_555 1_555
Mn4_3 O12_13 1_555 1_555
Mn10_7 O9_13 1_555 1_555
Mn5_7 O11_13 1_555 1_555
C10_13 C12_13 1_555 1_555
O8_13 Mn7_2 1_555 1_555
C15_13 O19 1_555 1_555
C16_13 C17_13 1_555 1_555
C10_14 C11_14 1_555 1_555
C11_14 H4_14 1_555 1_555
C12_14 O16_4 1_555 1_555
O8_14 C15_14 1_555 1_555
C13_14 C11_14 1_555 1_555
C14_14 C13_14 1_555 1_555
H5_14 C14_14 1_555 1_555
C15_14 C13_14 1_555 1_555
O9_14 C18_14 1_555 1_555
C16_14 C14_14 1_555 1_555
C17_14 C10_14 1_555 1_555
H6_14 C17_14 1_555 1_555
C18_14 C16_14 1_555 1_555
O11_14 C18_14 1_555 1_555
O12_14 C12_14 1_555 1_555
Mn4_8 O12_14 1_555 1_555
Mn10_6 O9_14 1_555 1_555
Mn5_6 O11_14 1_555 1_555
C10_14 C12_14 1_555 1_555
O8_14 Mn7_6 1_555 1_555
C15_14 O19_3 1_555 1_555
C16_14 C17_14 1_555 1_555
C10_15 C11_15 1_555 1_555
C11_15 H4_15 1_555 1_555
C12_15 O16 1_555 1_555
O8_15 C15_15 1_555 1_555
C13_15 C11_15 1_555 1_555
C14_15 C13_15 1_555 1_555
H5_15 C14_15 1_555 1_555
C15_15 C13_15 1_555 1_555
O9_15 C18_15 1_555 1_555
C16_15 C14_15 1_555 1_555
C17_15 C10_15 1_555 1_555
H6_15 C17_15 1_555 1_555
C18_15 C16_15 1_555 1_555
O11_15 C18_15 1_555 1_555
O12_15 C12_15 1_555 1_555
Mn4_2 O12_15 1_555 1_555
Mn10_5 O9_15 1_555 1_555
Mn5_5 O11_15 1_555 1_555
C10_15 C12_15 1_555 1_555
O8_15 Mn7_3 1_555 1_555
C15_15 O19_2 1_555 1_555
C16_15 C17_15 1_555 1_555
C10_16 C11_16 1_555 1_555
C11_16 H4_16 1_555 1_555
C12_16 O16_3 1_555 1_555
O8_16 C15_16 1_555 1_555
C13_16 C11_16 1_555 1_555
C14_16 C13_16 1_555 1_555
H5_16 C14_16 1_555 1_555
C15_16 C13_16 1_555 1_555
O9_16 C18_16 1_555 1_555
C16_16 C14_16 1_555 1_555
C17_16 C10_16 1_555 1_555
H6_16 C17_16 1_555 1_555
C18_16 C16_16 1_555 1_555
O11_16 C18_16 1_555 1_555
O12_16 C12_16 1_555 1_555
Mn4_5 O12_16 1_555 1_555
Mn10_8 O9_16 1_555 1_555
Mn5_8 O11_16 1_555 1_555
C10_16 C12_16 1_555 1_555
O8_16 Mn7_7 1_555 1_555
C15_16 O19_4 1_555 1_555
C16_16 C17_16 1_555 1_555
Mn10_7 Cl1_9 1_555 1_555
O1_5 Mn10_7 1_555 1_555
C1_9 C2_9 1_555 1_555
C2_9 H1_9 1_555 1_555
C3_9 O1_5 1_555 1_555
O2_9 C6_9 1_555 1_555
C4_9 C2_9 1_555 1_555
C5_9 C4_9 1_555 1_555
H2_9 C5_9 1_555 1_555
C6_9 C4_9 1_555 1_555
O3_9 C9_9 1_555 1_555
C7_9 C5_9 1_555 1_555
C8_9 C1_9 1_555 1_555
H3_9 C8_9 1_555 1_555
C9_9 C7_9 1_555 1_555
O4_5 C6_9 1_555 1_555
O5_9 C9_9 1_555 1_555
O6_9 C3_9 1_555 1_555
Mn4_7 Cl2_9 1_555 1_555
Mn5_4 O4_5 1_555 1_555
Cl3_9 Mn5_4 1_555 1_555
Mn9_4 O5_9 1_555 1_555
Mn10_4 O2_9 1_555 1_555
Mn5_7 O6_9 1_555 1_555
Mn6_4 O3_9 1_555 1_555
O15_5 Mn5_4 1_555 1_555
O17_5 Mn10_7 1_555 1_555
C1_9 C3_9 1_555 1_555
C7_9 C8_9 1_555 1_555
Mn4_8 Cl2_10 1_555 1_555
Mn4_5 Cl2_11 1_555 1_555
Mn10_5 Cl1_10 1_555 1_555
O1_6 Mn10_5 1_555 1_555
C1_10 C2_10 1_555 1_555
C2_10 H1_10 1_555 1_555
C3_10 O1_6 1_555 1_555
O2_10 C6_10 1_555 1_555
C4_10 C2_10 1_555 1_555
C5_10 C4_10 1_555 1_555
H2_10 C5_10 1_555 1_555
C6_10 C4_10 1_555 1_555
O3_10 C9_10 1_555 1_555
C7_10 C5_10 1_555 1_555
C8_10 C1_10 1_555 1_555
H3_10 C8_10 1_555 1_555
C9_10 C7_10 1_555 1_555
O4_6 C6_10 1_555 1_555
O5_10 C9_10 1_555 1_555
O6_10 C3_10 1_555 1_555
Mn4_6 Cl2_12 1_555 1_555
Mn5_3 O4_6 1_555 1_555
Cl3_10 Mn5_3 1_555 1_555
Mn9_3 O5_10 1_555 1_555
Mn10_3 O2_10 1_555 1_555
Mn5_5 O6_10 1_555 1_555
Mn6_3 O3_10 1_555 1_555
O15_6 Mn5_3 1_555 1_555
O17_6 Mn10_5 1_555 1_555
C1_10 C3_10 1_555 1_555
C7_10 C8_10 1_555 1_555
Mn4_3 Cl2_13 1_555 1_555
Mn10_6 Cl1_11 1_555 1_555
O1_7 Mn10_6 1_555 1_555
C1_11 C2_11 1_555 1_555
C2_11 H1_11 1_555 1_555
C3_11 O1_7 1_555 1_555
O2_11 C6_11 1_555 1_555
C4_11 C2_11 1_555 1_555
C5_11 C4_11 1_555 1_555
H2_11 C5_11 1_555 1_555
C6_11 C4_11 1_555 1_555
O3_11 C9_11 1_555 1_555
C7_11 C5_11 1_555 1_555
C8_11 C1_11 1_555 1_555
H3_11 C8_11 1_555 1_555
C9_11 C7_11 1_555 1_555
O4_7 C6_11 1_555 1_555
O5_11 C9_11 1_555 1_555
O6_11 C3_11 1_555 1_555
Mn4_4 Cl2_14 1_555 1_555
Mn5_2 O4_7 1_555 1_555
Cl3_11 Mn5_2 1_555 1_555
Mn9_2 O5_11 1_555 1_555
Mn10_2 O2_11 1_555 1_555
Mn5_6 O6_11 1_555 1_555
Mn6_2 O3_11 1_555 1_555
O15_7 Mn5_2 1_555 1_555
O17_7 Mn10_6 1_555 1_555
C1_11 C3_11 1_555 1_555
C7_11 C8_11 1_555 1_555
Mn10_8 Cl1_12 1_555 1_555
O1_8 Mn10_8 1_555 1_555
C1_12 C2_12 1_555 1_555
C2_12 H1_12 1_555 1_555
C3_12 O1_8 1_555 1_555
O2_12 C6_12 1_555 1_555
C4_12 C2_12 1_555 1_555
C5_12 C4_12 1_555 1_555
H2_12 C5_12 1_555 1_555
C6_12 C4_12 1_555 1_555
O3_12 C9_12 1_555 1_555
C7_12 C5_12 1_555 1_555
C8_12 C1_12 1_555 1_555
H3_12 C8_12 1_555 1_555
C9_12 C7_12 1_555 1_555
O4_8 C6_12 1_555 1_555
O5_12 C9_12 1_555 1_555
O6_12 C3_12 1_555 1_555
Mn4 Cl2_15 1_555 1_555
Mn5 O4_8 1_555 1_555
Cl3_12 Mn5 1_555 1_555
Mn9 O5_12 1_555 1_555
Mn10 O2_12 1_555 1_555
Mn5_8 O6_12 1_555 1_555
Mn6 O3_12 1_555 1_555
O15_8 Mn5 1_555 1_555
O17_8 Mn10_8 1_555 1_555
C1_12 C3_12 1_555 1_555
C7_12 C8_12 1_555 1_555
Mn4_2 Cl2_16 1_555 1_555
C10_17 C11_17 1_555 1_555
C11_17 H4_17 1_555 1_555
C12_17 O15_8 1_555 1_555
O8_17 C15_17 1_555 1_555
C13_17 C11_17 1_555 1_555
C14_17 C13_17 1_555 1_555
H5_17 C14_17 1_555 1_555
C15_17 C13_17 1_555 1_555
O9_17 C18_17 1_555 1_555
C16_17 C14_17 1_555 1_555
C17_17 C10_17 1_555 1_555
H6_17 C17_17 1_555 1_555
C18_17 C16_17 1_555 1_555
O11_17 C18_17 1_555 1_555
O12_17 C12_17 1_555 1_555
Mn10 O12_17 1_555 1_555
Mn9_2 O9_17 1_555 1_555
Mn6_2 O11_17 1_555 1_555
C10_17 C12_17 1_555 1_555
O8_17 Mn5_7 1_555 1_555
C15_17 O17_5 1_555 1_555
C16_17 C17_17 1_555 1_555
C10_18 C11_18 1_555 1_555
C11_18 H4_18 1_555 1_555
C12_18 O15_7 1_555 1_555
O8_18 C15_18 1_555 1_555
C13_18 C11_18 1_555 1_555
C14_18 C13_18 1_555 1_555
H5_18 C14_18 1_555 1_555
C15_18 C13_18 1_555 1_555
O9_18 C18_18 1_555 1_555
C16_18 C14_18 1_555 1_555
C17_18 C10_18 1_555 1_555
H6_18 C17_18 1_555 1_555
C18_18 C16_18 1_555 1_555
O11_18 C18_18 1_555 1_555
O12_18 C12_18 1_555 1_555
Mn10_2 O12_18 1_555 1_555
Mn9 O9_18 1_555 1_555
Mn6 O11_18 1_555 1_555
C10_18 C12_18 1_555 1_555
O8_18 Mn5_5 1_555 1_555
C15_18 O17_6 1_555 1_555
C16_18 C17_18 1_555 1_555
C10_19 C11_19 1_555 1_555
C11_19 H4_19 1_555 1_555
C12_19 O15_5 1_555 1_555
O8_19 C15_19 1_555 1_555
C13_19 C11_19 1_555 1_555
C14_19 C13_19 1_555 1_555
H5_19 C14_19 1_555 1_555
C15_19 C13_19 1_555 1_555
O9_19 C18_19 1_555 1_555
C16_19 C14_19 1_555 1_555
C17_19 C10_19 1_555 1_555
H6_19 C17_19 1_555 1_555
C18_19 C16_19 1_555 1_555
O11_19 C18_19 1_555 1_555
O12_19 C12_19 1_555 1_555
Mn10_4 O12_19 1_555 1_555
Mn9_3 O9_19 1_555 1_555
Mn6_3 O11_19 1_555 1_555
C10_19 C12_19 1_555 1_555
O8_19 Mn5_8 1_555 1_555
C15_19 O17_8 1_555 1_555
C16_19 C17_19 1_555 1_555
C10_20 C11_20 1_555 1_555
C11_20 H4_20 1_555 1_555
C12_20 O15_6 1_555 1_555
O8_20 C15_20 1_555 1_555
C13_20 C11_20 1_555 1_555
C14_20 C13_20 1_555 1_555
H5_20 C14_20 1_555 1_555
C15_20 C13_20 1_555 1_555
O9_20 C18_20 1_555 1_555
C16_20 C14_20 1_555 1_555
C17_20 C10_20 1_555 1_555
H6_20 C17_20 1_555 1_555
C18_20 C16_20 1_555 1_555
O11_20 C18_20 1_555 1_555
O12_20 C12_20 1_555 1_555
Mn10_3 O12_20 1_555 1_555
Mn9_4 O9_20 1_555 1_555
Mn6_4 O11_20 1_555 1_555
C10_20 C12_20 1_555 1_555
O8_20 Mn5_6 1_555 1_555
C15_20 O17_7 1_555 1_555
C16_20 C17_20 1_555 1_555
Mn5_5 Cl1_13 1_555 1_555
Mn6_3 Cl2_17 1_555 1_555
Cl3_13 Mn7_5 1_555 1_555
Cl3_14 Mn7_6 1_555 1_555
Cl3_15 Mn7_7 1_555 1_555
Mn5_7 Cl1_14 1_555 1_555
Mn6_4 Cl2_18 1_555 1_555
Cl3_16 Mn7_8 1_555 1_555
Mn5_8 Cl1_15 1_555 1_555
Mn6 Cl2_19 1_555 1_555
Cl3_17 Mn7 1_555 1_555
Cl3_18 Mn7_2 1_555 1_555
Cl3_19 Mn7_3 1_555 1_555
Mn5_6 Cl1_16 1_555 1_555
Mn6_2 Cl2_20 1_555 1_555
Cl3_20 Mn7_4 1_555 1_555
Mn8_3 Cl1_17 1_555 1_555
Mn8_4 Cl1_18 1_555 1_555
Mn9_2 Cl2_21 1_555 1_555
Cl3_21 Mn10_2 1_555 1_555
Mn8 Cl1_19 1_555 1_555
Mn8_2 Cl1_20 1_555 1_555
Mn9 Cl2_22 1_555 1_555
Cl3_22 Mn10 1_555 1_555
Mn8_7 Cl1_21 1_555 1_555
Mn9_4 Cl2_23 1_555 1_555
Cl3_23 Mn10_4 1_555 1_555
Mn8_8 Cl1_22 1_555 1_555
Mn8_5 Cl1_23 1_555 1_555
Mn9_3 Cl2_24 1_555 1_555
Cl3_24 Mn10_3 1_555 1_555
Mn8_6 Cl1_24 1_555 1_555

#END
