
###############################################################################
#
# This file contains modified crystal structure data generated from the
# MOF subset of the Cambridge Structural Database (CSD) v543 
# hosted by the Cambridge Crystallographic Data Centre (CCDC).
#
# This work is licensed under the Creative Commons
# Attribution-NonCommercial-ShareAlike 4.0 International License.
# To view a copy of this license, visit
# http://creativecommons.org/licenses/by-nc-sa/4.0/
# or send a letter to
# Creative Commons, PO Box 1866, Mountain View, CA 94042, USA.
#
# CIF created using the CSD Python API on 29 September 2022
# The structure has been converted into the P1 space group
# The structure has a 3D framework
# The original CSD entry ABAZAF is in the monoclinic crystal system
# The framework has been calculated to contain at least 10.0% void space
# The void calculation uses a probe of radius 1.32A, grid spacing 0.4
#
###############################################################################

data_ABAZAF
_chemical_formula_moiety         '(C80 H56 N7 O20 Zn4)n'
_symmetry_cell_setting           triclinic
_symmetry_space_group_name_H-M   'P 1'
_symmetry_Int_Tables_number      1
_space_group_name_Hall           'P 1'
loop_
_symmetry_equiv_pos_site_id
_symmetry_equiv_pos_as_xyz
1 x,y,z
_cell_length_a                   12.70(4)
_cell_length_b                   12.198(17)
_cell_length_c                   17.97(3)
_cell_angle_alpha                90
_cell_angle_beta                 125.75(11)
_cell_angle_gamma                90
_cell_volume                     2259.27
loop_
_atom_site_label
_atom_site_type_symbol
_atom_site_fract_x
_atom_site_fract_y
_atom_site_fract_z
Zn4 Zn 0.07389(2) 0.90327(2) 0.877887(17)
Zn1 Zn 0.07389(2) 0.59673(2) 0.377887(17)
O2 O 0.13899(18) 0.57051(15) 0.30288(12)
O5 O 0.2778(2) 0.39590(14) 0.11904(14)
H1 H 0.2936 0.3574 0.1632
N1 N 0.23149(19) 0.50845(16) 0.48462(13)
N2 N 0.91514(19) 0.00649(16) 0.81469(13)
C1 C 0.1053(2) 0.60015(17) 0.16104(16)
C2 C 0.0698(2) 0.67442(19) 0.09164(16)
H2 H 0.0201 0.7373 0.0837
C3 C 0.2093(2) 0.48662(19) 0.11156(15)
C4 C 0.2203(3) 0.40131(19) 0.49536(18)
H3 H 0.1359 0.3716 0.4671
C5 C 0.5726(2) 0.20282(19) 0.66779(15)
H4 H 0.4953 0.1723 0.6558
C6 C 0.7841(2) 0.14227(19) 0.70068(16)
H5 H 0.7723 0.1911 0.6552
C7 C 0.1070(2) 0.65677(19) 0.03394(15)
C8 C 0.0693(2) 0.6210(2) 0.22564(17)
C9 C 0.3260(2) 0.3320(2) 0.54571(17)
H6 H 0.3135 0.2565 0.5516
C11 C 0.1762(2) 0.50684(18) 0.17173(15)
H8 H 0.2021 0.4569 0.2202
C12 C 0.7126(2) 0.0606(2) 0.78441(17)
H9 H 0.6504 0.0522 0.7973
C13 C 0.4507(2) 0.37364(19) 0.58767(16)
C14 C 0.5678(2) 0.3044(2) 0.63821(16)
H10 H 0.6457 0.3343 0.6507
C15 C 0.6912(2) 0.13546(19) 0.71799(16)
C16 C 0.1745(2) 0.5610(2) 0.04226(16)
H11 H 0.1962 0.5473 0.0007
C17 C 0.8939(2) 0.07750(19) 0.75005(16)
H12 H 0.9570 0.0834 0.7378
C18 C 0.4616(2) 0.4854(2) 0.57839(17)
H13 H 0.5449 0.5179 0.6076
C20 C 0.3519(2) 0.5489(2) 0.52696(18)
H14 H 0.3618 0.6250 0.5211
O7 O 0.13899(18) 0.92949(15) 0.80288(12)
O8 O 0.01026(19) 0.67650(17) 0.45336(16)
O9 O 0.1416(2) 0.75838(15) 0.43033(14)
C21 C 0.1053(2) 0.89985(17) 0.66104(16)
C22 C 0.0698(2) 0.82558(19) 0.59164(16)
H16 H 0.0201 0.7627 0.5837
C24 C 0.1070(2) 0.84323(19) 0.53394(15)
C25 C 0.0693(2) 0.8790(2) 0.72564(17)
C26 C 0.1762(2) 0.99316(18) 0.67173(15)
C27 C 0.1745(2) 0.9390(2) 0.54226(16)
H18 H 0.1962 0.9527 0.5007
C28 C 0.0828(3) 0.7555(2) 0.46769(17)
O11 O 0.01026(19) 0.82350(17) 0.95336(16)
O12 O 0.1416(2) 0.74162(15) 0.93033(14)
N5 N 0.23149(19) 0.99155(16) 0.98462(13)
C19 C 0.0828(3) 0.7445(2) 0.96769(17)
H27 H 0.5449 0.9821 0.1076
C40 C 0.3519(2) 0.9511(2) 0.02696(18)
H28 H 0.3618 0.8750 0.0211
O10 O 0.2778(2) 0.10410(14) 0.61904(14)
H15 H 0.2936 0.1426 0.6632
C23 C 0.2093(2) 0.01338(19) 0.61156(15)
H17 H 0.2021 0.0431 0.7202
C29 C 0.2203(3) 0.09869(19) 0.99536(18)
H19 H 0.1359 0.1284 0.9671
C10 C 0.8247(2) 0.9991(2) 0.83098(16)
H7 H 0.8387 0.9493 0.8766
O1 O 0.97874(18) 0.68332(16) 0.20430(14)
O6 O 0.97874(18) 0.81668(16) 0.70430(14)
N4 N 0.91514(19) 0.49351(16) 0.31469(13)
C30 C 0.5726(2) 0.29718(19) 0.16779(15)
H20 H 0.4953 0.3277 0.1558
C31 C 0.7841(2) 0.35773(19) 0.20068(16)
H21 H 0.7723 0.3089 0.1552
C32 C 0.3260(2) 0.1680(2) 0.04571(17)
H22 H 0.3135 0.2435 0.0516
C33 C 0.8247(2) 0.5009(2) 0.33098(16)
H23 H 0.8387 0.5507 0.3766
C34 C 0.7126(2) 0.4394(2) 0.28441(17)
H24 H 0.6504 0.4478 0.2973
C35 C 0.4507(2) 0.12636(19) 0.08767(16)
C36 C 0.5678(2) 0.1956(2) 0.13821(16)
H25 H 0.6457 0.1657 0.1507
C37 C 0.6912(2) 0.36454(19) 0.21799(16)
C38 C 0.8939(2) 0.42250(19) 0.25005(16)
H26 H 0.9570 0.4166 0.2378
C39 C 0.4616(2) 0.0146(2) 0.07839(17)
O1_2 O 0.02126(18) 0.18332(16) 0.29570(14)
C33_2 C 0.1753(2) 0.0009(2) 0.16902(16)
H23_2 H 0.1613 0.0507 0.1234
O6_2 O 0.02126(18) 0.31668(16) 0.79570(14)
N6 N 0.08486(19) 0.50649(16) 0.68531(13)
C5_2 C 0.4274(2) 0.70282(19) 0.83221(15)
H4_2 H 0.5047 0.6723 0.8442
C6_2 C 0.2159(2) 0.64227(19) 0.79932(16)
H5_2 H 0.2277 0.6911 0.8448
C9_2 C 0.6740(2) 0.8320(2) 0.95429(17)
H6_2 H 0.6865 0.7565 0.9484
C10_2 C 0.1753(2) 0.4991(2) 0.66902(16)
H7_2 H 0.1613 0.4493 0.6234
C12_2 C 0.2874(2) 0.5606(2) 0.71559(17)
H9_2 H 0.3496 0.5522 0.7027
C13_2 C 0.5493(2) 0.87364(19) 0.91233(16)
C14_2 C 0.4322(2) 0.8044(2) 0.86179(16)
H10_2 H 0.3543 0.8343 0.8493
C15_2 C 0.3088(2) 0.63546(19) 0.78201(16)
C17_2 C 0.1061(2) 0.57750(19) 0.74995(16)
H12_2 H 0.0430 0.5834 0.7622
C18_2 C 0.5384(2) 0.9854(2) 0.92161(17)
N3 N 0.76851(19) 0.49155(16) 0.51538(13)
N4_2 N 0.08486(19) 0.99351(16) 0.18531(13)
C29_2 C 0.7797(3) 0.59869(19) 0.50464(18)
H19_2 H 0.8641 0.6284 0.5329
C30_2 C 0.4274(2) 0.79718(19) 0.33221(15)
H20_2 H 0.5047 0.8277 0.3442
C31_2 C 0.2159(2) 0.85773(19) 0.29932(16)
H21_2 H 0.2277 0.8089 0.3448
C32_2 C 0.6740(2) 0.6680(2) 0.45429(17)
H22_2 H 0.6865 0.7435 0.4484
C34_2 C 0.2874(2) 0.9394(2) 0.21559(17)
H24_2 H 0.3496 0.9478 0.2027
C35_2 C 0.5493(2) 0.62636(19) 0.41233(16)
C36_2 C 0.4322(2) 0.6956(2) 0.36179(16)
H25_2 H 0.3543 0.6657 0.3493
C37_2 C 0.3088(2) 0.86454(19) 0.28201(16)
C38_2 C 0.1061(2) 0.92250(19) 0.24995(16)
H26_2 H 0.0430 0.9166 0.2622
C39_2 C 0.5384(2) 0.5146(2) 0.42161(17)
H27_2 H 0.4551 0.4821 0.3924
C40_2 C 0.6481(2) 0.4511(2) 0.47304(18)
H28_2 H 0.6382 0.3750 0.4789
Zn5 Zn 0.92611(2) 0.40327(2) 0.622113(17)
Zn1_2 Zn 0.92611(2) 0.09673(2) 0.122113(17)
O2_2 O 0.86101(18) 0.07051(15) 0.19712(12)
O3 O 0.98974(19) 0.32350(17) 0.54664(16)
O4 O 0.8584(2) 0.24162(15) 0.56967(14)
N1_2 N 0.76851(19) 0.00845(16) 0.01538(13)
C1_2 C 0.8947(2) 0.10015(17) 0.33896(16)
C2_2 C 0.9302(2) 0.17442(19) 0.40836(16)
H2_2 H 0.9799 0.2373 0.4163
C7_2 C 0.8930(2) 0.15677(19) 0.46606(15)
C8_2 C 0.9307(2) 0.1210(2) 0.27436(17)
C11_2 C 0.8238(2) 0.00684(18) 0.32827(15)
C16_2 C 0.8255(2) 0.0610(2) 0.45774(16)
H11_2 H 0.8038 0.0473 0.4993
C19_2 C 0.9172(3) 0.2445(2) 0.53231(17)
O8_2 O 0.98974(19) 0.17650(17) 0.04664(16)
O9_2 O 0.8584(2) 0.25838(15) 0.06967(14)
C28_2 C 0.9172(3) 0.2555(2) 0.03231(17)
H13_2 H 0.4551 0.0179 0.8924
C20_2 C 0.6481(2) 0.0489(2) 0.97304(18)
H14_2 H 0.6382 0.1250 0.9789
O7_2 O 0.86101(18) 0.42949(15) 0.69712(12)
O10_2 O 0.7222(2) 0.60410(14) 0.88096(14)
H15_2 H 0.7064 0.6426 0.8368
C21_2 C 0.8947(2) 0.39985(17) 0.83896(16)
C22_2 C 0.9302(2) 0.32558(19) 0.90836(16)
H16_2 H 0.9799 0.2627 0.9163
C23_2 C 0.7907(2) 0.51338(19) 0.88844(15)
C24_2 C 0.8930(2) 0.34323(19) 0.96606(15)
C25_2 C 0.9307(2) 0.3790(2) 0.77436(17)
C26_2 C 0.8238(2) 0.49316(18) 0.82827(15)
H17_2 H 0.7979 0.5431 0.7798
C27_2 C 0.8255(2) 0.4390(2) 0.95774(16)
H18_2 H 0.8038 0.4527 0.9993
O5_2 O 0.7222(2) 0.89590(14) 0.38096(14)
H1_2 H 0.7064 0.8574 0.3368
C3_2 C 0.7907(2) 0.98662(19) 0.38844(15)
C4_2 C 0.7797(3) 0.90131(19) 0.00464(18)
H3_2 H 0.8641 0.8716 0.0329
H8_2 H 0.7979 0.9569 0.2798
loop_
_geom_bond_atom_site_label_1
_geom_bond_atom_site_label_2
_geom_bond_site_symmetry_1
_geom_bond_site_symmetry_2
Zn1 O2 1_555 1_555
O2 C8 1_555 1_555
O5 H1 1_555 1_555
N1 Zn1 1_555 1_555
C1 C2 1_555 1_555
C2 H2 1_555 1_555
C3 O5 1_555 1_555
C4 N1 1_555 1_555
H3 C4 1_555 1_555
C5 H4 1_555 1_555
C6 H5 1_555 1_555
C7 C2 1_555 1_555
C8 C1 1_555 1_555
C9 C4 1_555 1_555
H6 C9 1_555 1_555
C11 C1 1_555 1_555
H8 C11 1_555 1_555
H9 C12 1_555 1_555
C13 C9 1_555 1_555
C14 C5 1_555 1_555
H10 C14 1_555 1_555
C15 C5 1_555 1_555
C16 C3 1_555 1_555
H11 C16 1_555 1_555
C17 N2 1_555 1_555
H12 C17 1_555 1_555
C18 C13 1_555 1_555
H13 C18 1_555 1_555
C20 N1 1_555 1_555
H14 C20 1_555 1_555
O7 C25 1_555 1_555
O8 Zn1 1_555 1_555
O9 Zn1 1_555 1_555
C21 C22 1_555 1_555
C22 H16 1_555 1_555
C24 C22 1_555 1_555
C25 C21 1_555 1_555
C26 C21 1_555 1_555
H18 C27 1_555 1_555
C28 O8 1_555 1_555
Zn4 O7 1_555 1_555
O11 Zn4 1_555 1_555
O12 Zn4 1_555 1_555
N5 Zn4 1_555 1_555
C3 C11 1_555 1_555
C6 C15 1_555 1_555
C6 C17 1_555 1_555
C7 C16 1_555 1_555
C12 C15 1_555 1_555
C13 C14 1_555 1_555
C18 C20 1_555 1_555
O9 C28 1_555 1_555
C24 C27 1_555 1_555
C24 C28 1_555 1_555
O11 C19 1_555 1_555
O12 C19 1_555 1_555
H28 C40 1_555 1_555
O10 H15 1_555 1_555
C23 O10 1_555 1_555
C29 H19 1_555 1_555
C10 H7 1_555 1_555
C30 H20 1_555 1_555
C31 H21 1_555 1_555
H22 C32 1_555 1_555
C33 N4 1_555 1_555
H23 C33 1_555 1_555
C34 C33 1_555 1_555
H24 C34 1_555 1_555
C35 C32 1_555 1_555
C36 C30 1_555 1_555
H25 C36 1_555 1_555
C37 C30 1_555 1_555
C38 N4 1_555 1_555
H26 C38 1_555 1_555
C39 C35 1_555 1_555
C31 C37 1_555 1_555
C31 C38 1_555 1_555
C34 C37 1_555 1_555
C35 C36 1_555 1_555
H23_2 C33_2 1_555 1_555
N6 C10_2 1_555 1_555
C5_2 H4_2 1_555 1_555
C6_2 H5_2 1_555 1_555
H6_2 C9_2 1_555 1_555
C10_2 H7_2 1_555 1_555
C12_2 C10_2 1_555 1_555
H9_2 C12_2 1_555 1_555
C13_2 C9_2 1_555 1_555
C14_2 C5_2 1_555 1_555
H10_2 C14_2 1_555 1_555
C15_2 C5_2 1_555 1_555
C17_2 N6 1_555 1_555
H12_2 C17_2 1_555 1_555
C18_2 C13_2 1_555 1_555
C6_2 C15_2 1_555 1_555
C6_2 C17_2 1_555 1_555
C12_2 C15_2 1_555 1_555
C13_2 C14_2 1_555 1_555
N3 C29_2 1_555 1_555
C29_2 H19_2 1_555 1_555
C30_2 H20_2 1_555 1_555
C31_2 H21_2 1_555 1_555
C32_2 C29_2 1_555 1_555
H22_2 C32_2 1_555 1_555
H24_2 C34_2 1_555 1_555
C35_2 C32_2 1_555 1_555
C36_2 C30_2 1_555 1_555
H25_2 C36_2 1_555 1_555
C37_2 C30_2 1_555 1_555
C38_2 N4_2 1_555 1_555
H26_2 C38_2 1_555 1_555
C39_2 C35_2 1_555 1_555
H27_2 C39_2 1_555 1_555
C40_2 N3 1_555 1_555
H28_2 C40_2 1_555 1_555
Zn5 N3 1_555 1_555
C31_2 C37_2 1_555 1_555
C31_2 C38_2 1_555 1_555
C34_2 C37_2 1_555 1_555
C35_2 C36_2 1_555 1_555
C39_2 C40_2 1_555 1_555
Zn1_2 O2_2 1_555 1_555
O2_2 C8_2 1_555 1_555
O3 C19_2 1_555 1_555
O4 C19_2 1_555 1_555
N1_2 Zn1_2 1_555 1_555
C1_2 C2_2 1_555 1_555
C2_2 H2_2 1_555 1_555
C7_2 C2_2 1_555 1_555
C8_2 C1_2 1_555 1_555
C11_2 C1_2 1_555 1_555
H11_2 C16_2 1_555 1_555
C19_2 C7_2 1_555 1_555
O8_2 Zn1_2 1_555 1_555
O9_2 Zn1_2 1_555 1_555
C28_2 O8_2 1_555 1_555
Zn5 O3 1_555 1_555
O4 Zn5 1_555 1_555
C7_2 C16_2 1_555 1_555
O9_2 C28_2 1_555 1_555
H14_2 C20_2 1_555 1_555
O7_2 C25_2 1_555 1_555
O10_2 H15_2 1_555 1_555
C21_2 C22_2 1_555 1_555
C22_2 H16_2 1_555 1_555
C23_2 O10_2 1_555 1_555
C24_2 C22_2 1_555 1_555
C25_2 C21_2 1_555 1_555
C26_2 C21_2 1_555 1_555
H17_2 C26_2 1_555 1_555
C27_2 C23_2 1_555 1_555
H18_2 C27_2 1_555 1_555
Zn5 O7_2 1_555 1_555
C23_2 C26_2 1_555 1_555
C24_2 C27_2 1_555 1_555
O5_2 H1_2 1_555 1_555
C3_2 O5_2 1_555 1_555
H3_2 C4_2 1_555 1_555

#END
