
###############################################################################
#
# This file contains modified crystal structure data generated from the
# MOF subset of the Cambridge Structural Database (CSD) v543 
# hosted by the Cambridge Crystallographic Data Centre (CCDC).
#
# This work is licensed under the Creative Commons
# Attribution-NonCommercial-ShareAlike 4.0 International License.
# To view a copy of this license, visit
# http://creativecommons.org/licenses/by-nc-sa/4.0/
# or send a letter to
# Creative Commons, PO Box 1866, Mountain View, CA 94042, USA.
#
# CIF created using the CSD Python API on 29 September 2022
# The structure has been converted into the P1 space group
# The structure has a 3D framework
# The original CSD entry ABEDAQ is in the monoclinic crystal system
# The framework has been calculated to contain at least 10.0% void space
# The void calculation uses a probe of radius 1.32A, grid spacing 0.4
#
###############################################################################

data_ABEDAQ
_chemical_formula_moiety         '(C224 H200 Co12 F2 N16 O48 P8 6+)n'
_symmetry_cell_setting           triclinic
_symmetry_space_group_name_H-M   'P 1'
_symmetry_Int_Tables_number      1
_space_group_name_Hall           'P 1'
loop_
_symmetry_equiv_pos_site_id
_symmetry_equiv_pos_as_xyz
1 x,y,z
_cell_length_a                   13.1378(2)
_cell_length_b                   26.3432(4)
_cell_length_c                   23.7446(3)
_cell_angle_alpha                90
_cell_angle_beta                 91.0539(14)
_cell_angle_gamma                90
_cell_volume                     8216.42
loop_
_atom_site_label
_atom_site_type_symbol
_atom_site_fract_x
_atom_site_fract_y
_atom_site_fract_z
Co1 Co 0.38437(5) 0.30988(2) 0.24488(3)
Co2 Co 0.47798(5) 0.43071(2) 0.25381(3)
Co3 Co 0.35032(5) 0.67215(2) 0.74845(3)
F1 F 0.50698(18) 0.35596(8) 0.24949(10)
P1 P 0.04789(8) 0.44089(4) 0.53122(4)
O1 O 0.3190(2) 0.34048(11) 0.31593(12)
O2 O 0.3543(2) 0.42338(11) 0.30626(13)
O3 O 0.4262(2) 0.56383(12) 0.67521(13)
O4 O 0.2966(2) 0.61767(11) 0.69003(13)
O5 O 0.1149(2) 0.22984(11) 0.69426(13)
O7 O 0.3801(2) 0.43029(12) 0.18373(13)
O8 O 0.2995(2) 0.35550(11) 0.19216(12)
O13 O 0.1996(3) 0.70090(14) 0.74633(17)
H1 H 0.161026 0.716178 0.714474
H2 H 0.150368 0.702120 0.777317
N1 N 0.0463(3) 0.01049(13) 0.24236(15)
N2 N 0.2646(3) 0.25492(13) 0.24266(15)
C1 C 0.1246(3) 0.42236(16) 0.47064(17)
C2 C 0.1436(4) 0.37221(17) 0.45623(19)
H3 H 0.117422 0.345606 0.478767
C3 C 0.2001(4) 0.36057(17) 0.40953(19)
H4 H 0.211057 0.326069 0.399701
C4 C 0.2412(3) 0.39888(16) 0.37677(17)
C5 C 0.2222(3) 0.44884(16) 0.39059(18)
H5 H 0.249742 0.475292 0.368351
C6 C 0.1634(3) 0.46079(16) 0.43653(18)
H6 H 0.149259 0.495313 0.444934
C7 C 0.3109(3) 0.38622(16) 0.32843(17)
C8 C 0.1389(3) 0.48072(16) 0.57113(17)
C9 C 0.2434(3) 0.48016(17) 0.56350(19)
H7 H 0.271713 0.458320 0.536065
C10 C 0.3072(3) 0.51143(17) 0.59582(19)
H8 H 0.378729 0.510220 0.590746
C11 C 0.2672(3) 0.54418(16) 0.63521(17)
C12 C 0.1621(3) 0.54498(18) 0.64261(19)
H9 H 0.133586 0.567267 0.669515
C13 C 0.0993(3) 0.51341(18) 0.61089(19)
H10 H 0.027862 0.514158 0.616463
C14 C 0.3364(3) 0.57803(16) 0.67006(18)
C15 C 0.0498(3) 0.38221(16) 0.57342(17)
C16 C 0.1365(4) 0.36176(19) 0.5987(2)
H11 H 0.200196 0.378278 0.594474
C17 C 0.1312(4) 0.31764(19) 0.6298(2)
H12 H 0.191147 0.304361 0.647207
C18 C 0.0399(3) 0.29257(16) 0.63587(18)
C21 C 0.0336(4) 0.24462(17) 0.67135(18)
C22 C 0.1278(3) 0.43173(16) 0.02318(17)
C23 C 0.1137(4) 0.38731(17) 0.05388(19)
H15 H 0.062805 0.363769 0.042164
C24 C 0.1731(4) 0.37711(17) 0.10126(19)
H16 H 0.163624 0.346177 0.121057
C25 C 0.2460(3) 0.41109(16) 0.12027(17)
C26 C 0.2569(4) 0.45662(17) 0.09142(19)
H17 H 0.304774 0.481108 0.104655
C27 C 0.1982(4) 0.46661(17) 0.04322(19)
H18 H 0.206664 0.497840 0.023852
C28 C 0.3147(3) 0.39806(16) 0.16956(17)
C43 C 0.0506(4) 0.03787(18) 0.2895(2)
H27 H 0.031351 0.022274 0.323759
C44 C 0.0817(4) 0.08788(18) 0.2907(2)
H28 H 0.082752 0.106040 0.325289
C45 C 0.1116(4) 0.11183(16) 0.24134(19)
C46 C 0.1030(4) 0.08355(17) 0.1917(2)
H29 H 0.119439 0.098469 0.156621
C47 C 0.0702(3) 0.03353(16) 0.19401(19)
H30 H 0.064511 0.014813 0.159896
C48 C 0.1578(4) 0.16311(17) 0.2420(2)
C49 C 0.1881(4) 0.18634(19) 0.2917(2)
H31 H 0.172428 0.171165 0.326808
C50 C 0.2409(4) 0.23128(17) 0.2905(2)
H32 H 0.261545 0.246286 0.325283
C51 C 0.2304(4) 0.23478(17) 0.1945(2)
H33 H 0.242867 0.252410 0.160412
C52 C 0.1774(4) 0.18925(18) 0.1918(2)
H34 H 0.154830 0.175975 0.156498
Co8 Co 0.52202(5) 0.56929(2) 0.74619(3)
Co11 Co 0.14968(5) 0.17215(2) 0.75155(3)
Co12 Co 0.64968(5) 0.32785(2) 0.25155(3)
F2 F 0.49302(18) 0.64404(8) 0.75051(10)
O14 O 0.5738(2) 0.43617(12) 0.32479(13)
O15 O 0.3851(2) 0.72984(11) 0.80574(13)
O16 O 0.4472(3) 0.27536(12) 0.17412(14)
O17 O 0.3790(3) 0.72278(12) 0.68218(13)
O18 O 0.4604(3) 0.25698(12) 0.29457(14)
O19 O 0.5999(2) 0.44640(12) 0.20240(13)
O20 O 0.3038(2) 0.62269(11) 0.81141(13)
N3 N 0.4537(3) 0.51049(13) 0.25764(15)
P2 P 0.04552(8) 0.44509(4) 0.96210(4)
O9 O 0.1210(3) 0.22278(12) 0.81782(13)
O11 O 0.4001(2) 0.55360(12) 0.79760(13)
C29 C 0.0502(3) 0.38460(16) 0.92319(17)
C30 C 0.1283(4) 0.34819(19) 0.9277(2)
H19 H 0.182779 0.353203 0.953980
C31 C 0.1264(4) 0.30551(18) 0.8946(2)
H20 H 0.180396 0.281613 0.897552
C32 C 0.0465(3) 0.29695(16) 0.85692(18)
C35 C 0.0422(4) 0.25006(16) 0.81957(18)
C36 C 0.1312(3) 0.48383(16) 0.91913(17)
C37 C 0.0971(4) 0.52976(18) 0.8985(2)
H23 H 0.030033 0.540752 0.906472
C38 C 0.1599(4) 0.56025(18) 0.8662(2)
H24 H 0.135508 0.592057 0.852797
C39 C 0.2571(3) 0.54477(16) 0.85350(17)
C40 C 0.2891(4) 0.4974(2) 0.8721(2)
H25 H 0.354853 0.485494 0.862657
C41 C 0.2269(4) 0.4673(2) 0.9042(2)
H26 H 0.250068 0.434801 0.916221
C42 C 0.3262(3) 0.57639(16) 0.81752(17)
Co6 Co 0.02202(5) 0.93071(2) 0.24619(3)
O6 O 0.9472(3) 0.22464(12) 0.67412(14)
C19 C 0.9532(4) 0.3124(2) 0.6097(2)
H13 H 0.889797 0.295455 0.613147
C20 C 0.9588(4) 0.3570(2) 0.5786(2)
H14 H 0.899200 0.370249 0.560726
Co5 Co 0.88437(5) 0.19012(2) 0.74488(3)
O10 O 0.9604(3) 0.24302(12) 0.79457(14)
C33 C 0.9691(4) 0.33252(19) 0.8524(2)
H21 H 0.914039 0.327173 0.826622
C34 C 0.9716(4) 0.3756(2) 0.8854(2)
H22 H 0.918017 0.399701 0.881824
O11_2 O 0.0999(2) 0.05360(12) 0.70240(13)
O12 O 0.1962(2) 0.12269(11) 0.68859(13)
C37_2 C 0.4029(4) 0.02976(18) 0.6015(2)
H23_2 H 0.469967 0.040752 0.593528
C38_2 C 0.3401(4) 0.06025(18) 0.6338(2)
H24_2 H 0.364492 0.092057 0.647203
C39_2 C 0.2429(3) 0.04477(16) 0.64650(17)
C42_2 C 0.1738(3) 0.07639(16) 0.68248(17)
O3_2 O 0.0738(2) 0.06383(12) 0.82479(13)
O4_2 O 0.2034(2) 0.11767(11) 0.80997(13)
O13_2 O 0.3004(3) 0.20090(14) 0.75367(17)
H1_2 H 0.338974 0.216178 0.785526
H2_2 H 0.349632 0.202120 0.722683
C10_2 C 0.1928(3) 0.01143(17) 0.90418(19)
H8_2 H 0.121271 0.010220 0.909254
C11_2 C 0.2328(3) 0.04418(16) 0.86479(17)
C12_2 C 0.3379(3) 0.04498(18) 0.85739(19)
H9_2 H 0.366414 0.067267 0.830485
C13_2 C 0.4007(3) 0.01341(18) 0.88911(19)
H10_2 H 0.472138 0.014158 0.883537
C14_2 C 0.1636(3) 0.07803(16) 0.82994(18)
F2_2 F 0.00698(18) 0.14404(8) 0.74949(10)
Co1_2 Co 0.11563(5) 0.80988(2) 0.25512(3)
P2_2 P 0.45448(8) 0.94509(4) 0.53790(4)
O1_2 O 0.1810(2) 0.84048(11) 0.18407(12)
O2_2 O 0.1457(2) 0.92338(11) 0.19374(13)
O7_2 O 0.1199(2) 0.93029(12) 0.31627(13)
O8_2 O 0.2005(2) 0.85550(11) 0.30784(12)
O10_2 O 0.5396(3) 0.74302(12) 0.70543(14)
N2_2 N 0.2354(3) 0.75492(13) 0.25734(15)
C1_2 C 0.3754(3) 0.92236(16) 0.02936(17)
C2_2 C 0.3564(4) 0.87221(17) 0.04377(19)
H3_2 H 0.382578 0.845606 0.021233
C3_2 C 0.2999(4) 0.86057(17) 0.09047(19)
H4_2 H 0.288943 0.826069 0.100299
C4_2 C 0.2588(3) 0.89888(16) 0.12323(17)
C5_2 C 0.2778(3) 0.94884(16) 0.10941(18)
H5_2 H 0.250258 0.975292 0.131649
C6_2 C 0.3366(3) 0.96079(16) 0.06347(18)
H6_2 H 0.350741 0.995313 0.055066
C7_2 C 0.1891(3) 0.88622(16) 0.17157(17)
C22_2 C 0.3722(3) 0.93173(16) 0.47682(17)
C23_2 C 0.3863(4) 0.88731(17) 0.44612(19)
H15_2 H 0.437195 0.863769 0.457836
C24_2 C 0.3269(4) 0.87711(17) 0.39874(19)
H16_2 H 0.336376 0.846177 0.378943
C25_2 C 0.2540(3) 0.91109(16) 0.37973(17)
C26_2 C 0.2431(4) 0.95662(17) 0.40858(19)
H17_2 H 0.195226 0.981108 0.395345
C27_2 C 0.3018(4) 0.96661(17) 0.45678(19)
H18_2 H 0.293336 0.997840 0.476148
C28_2 C 0.1853(3) 0.89806(16) 0.33044(17)
C29_2 C 0.4498(3) 0.88460(16) 0.57681(17)
C30_2 C 0.3717(4) 0.84819(19) 0.5723(2)
H19_2 H 0.317221 0.853203 0.546020
C31_2 C 0.3736(4) 0.80551(18) 0.6054(2)
H20_2 H 0.319604 0.781613 0.602448
C32_2 C 0.4535(3) 0.79695(16) 0.64308(18)
C33_2 C 0.5309(4) 0.83252(19) 0.6476(2)
H21_2 H 0.585961 0.827173 0.673378
C34_2 C 0.5284(4) 0.8756(2) 0.6146(2)
H22_2 H 0.581983 0.899701 0.618176
C35_2 C 0.4578(4) 0.75006(16) 0.68043(18)
C36_2 C 0.3688(3) 0.98383(16) 0.58087(17)
C40_2 C 0.2109(4) 0.9974(2) 0.6279(2)
H25_2 H 0.145147 0.985494 0.637343
C41_2 C 0.2731(4) 0.9673(2) 0.5958(2)
H26_2 H 0.249932 0.934801 0.583779
C43_2 C 0.4494(4) 0.53787(18) 0.2105(2)
H27_2 H 0.468649 0.522274 0.176241
C44_2 C 0.4183(4) 0.58788(18) 0.2093(2)
H28_2 H 0.417248 0.606040 0.174711
C45_2 C 0.3884(4) 0.61183(16) 0.25866(19)
C46_2 C 0.3970(4) 0.58355(17) 0.3083(2)
H29_2 H 0.380561 0.598469 0.343379
C47_2 C 0.4298(3) 0.53353(16) 0.30599(19)
H30_2 H 0.435489 0.514813 0.340104
C48_2 C 0.3422(4) 0.66311(17) 0.2580(2)
C49_2 C 0.3119(4) 0.68634(19) 0.2083(2)
H31_2 H 0.327572 0.671165 0.173192
C50_2 C 0.2591(4) 0.73128(17) 0.2095(2)
H32_2 H 0.238455 0.746286 0.174717
C51_2 C 0.2696(4) 0.73478(17) 0.3055(2)
H33_2 H 0.257133 0.752410 0.339588
C52_2 C 0.3226(4) 0.68925(18) 0.3082(2)
H34_2 H 0.345170 0.675975 0.343502
Co4 Co 0.61563(5) 0.69012(2) 0.75512(3)
O16_2 O 0.0528(3) 0.77536(12) 0.32588(14)
O18_2 O 0.0396(3) 0.75698(12) 0.20543(14)
P1_2 P 0.45211(8) 0.94089(4) 0.96878(4)
O6_2 O 0.5528(3) 0.72464(12) 0.82588(14)
C8_2 C 0.3611(3) 0.98072(16) 0.92887(17)
C9_2 C 0.2566(3) 0.98016(17) 0.93650(19)
H7_2 H 0.228287 0.958320 0.963935
C15_2 C 0.4502(3) 0.88221(16) 0.92658(17)
C16_2 C 0.3635(4) 0.86176(19) 0.9013(2)
H11_2 H 0.299804 0.878278 0.905526
C17_2 C 0.3688(4) 0.81764(19) 0.8702(2)
H12_2 H 0.308853 0.804361 0.852793
C18_2 C 0.4601(3) 0.79257(16) 0.86413(18)
C19_2 C 0.5468(4) 0.8124(2) 0.8903(2)
H13_2 H 0.610203 0.795455 0.886853
C20_2 C 0.5412(4) 0.8570(2) 0.9214(2)
H14_2 H 0.600800 0.870249 0.939274
C21_2 C 0.4664(4) 0.74462(17) 0.82865(18)
Co7 Co 0.97798(5) 0.06929(2) 0.75381(3)
F1_2 F 0.99302(18) 0.85596(8) 0.25051(10)
Co12_2 Co 0.85032(5) 0.82785(2) 0.24845(3)
O14_2 O 0.9262(2) 0.93617(12) 0.17521(13)
O19_2 O 0.9001(2) 0.94640(12) 0.29760(13)
C33_3 C 0.0309(4) 0.66748(19) 0.1476(2)
H21_3 H 0.085961 0.672827 0.173378
C34_3 C 0.0284(4) 0.6244(2) 0.1146(2)
H22_3 H 0.081983 0.600299 0.118176
C19_3 C 0.0468(4) 0.6876(2) 0.3903(2)
H13_3 H 0.110203 0.704545 0.386853
C20_3 C 0.0412(4) 0.6430(2) 0.4214(2)
H14_3 H 0.100800 0.629751 0.439274
P2_3 P 0.95448(8) 0.55491(4) 0.03790(4)
O9_2 O 0.8790(3) 0.77722(12) 0.18218(13)
O12_2 O 0.6962(2) 0.37731(11) 0.18859(13)
C29_3 C 0.9498(3) 0.61540(16) 0.07681(17)
C30_3 C 0.8717(4) 0.65181(19) 0.0723(2)
H19_3 H 0.817221 0.646797 0.046020
C31_3 C 0.8736(4) 0.69449(18) 0.1054(2)
H20_3 H 0.819604 0.718387 0.102448
C32_3 C 0.9535(3) 0.70305(16) 0.14308(18)
C35_3 C 0.9578(4) 0.74994(16) 0.18043(18)
C36_3 C 0.8688(3) 0.51617(16) 0.08087(17)
C37_3 C 0.9029(4) 0.47024(18) 0.1015(2)
H23_3 H 0.969967 0.459248 0.093528
C38_3 C 0.8401(4) 0.43975(18) 0.1338(2)
H24_3 H 0.864492 0.407943 0.147203
C39_3 C 0.7429(3) 0.45523(16) 0.14650(17)
C40_3 C 0.7109(4) 0.5026(2) 0.1279(2)
H25_3 H 0.645147 0.514506 0.137343
C41_3 C 0.7731(4) 0.5327(2) 0.0958(2)
H26_3 H 0.749932 0.565199 0.083779
C42_3 C 0.6738(3) 0.42361(16) 0.18248(17)
P1_3 P 0.95211(8) 0.55911(4) 0.46878(4)
O1_3 O 0.6810(2) 0.65952(11) 0.68407(12)
O2_3 O 0.6457(2) 0.57662(11) 0.69374(13)
O4_3 O 0.7034(2) 0.38233(11) 0.30997(13)
O5_2 O 0.8851(2) 0.77016(11) 0.30574(13)
O7_3 O 0.6199(2) 0.56971(12) 0.81627(13)
O8_3 O 0.7005(2) 0.64450(11) 0.80784(12)
O13_3 O 0.8004(3) 0.29910(14) 0.25367(17)
H1_3 H 0.838974 0.283822 0.285526
H2_3 H 0.849632 0.297880 0.222683
N1_2 N 0.9537(3) 0.98951(13) 0.75764(15)
N2_3 N 0.7354(3) 0.74508(13) 0.75734(15)
C1_3 C 0.8754(3) 0.57764(16) 0.52936(17)
C2_3 C 0.8564(4) 0.62779(17) 0.54377(19)
H3_3 H 0.882578 0.654394 0.521233
C3_3 C 0.7999(4) 0.63943(17) 0.59047(19)
H4_3 H 0.788943 0.673931 0.600299
C4_3 C 0.7588(3) 0.60112(16) 0.62323(17)
C5_3 C 0.7778(3) 0.55116(16) 0.60941(18)
H5_3 H 0.750258 0.524708 0.631649
C6_3 C 0.8366(3) 0.53921(16) 0.56347(18)
H6_3 H 0.850741 0.504687 0.555066
C7_3 C 0.6891(3) 0.61378(16) 0.67157(17)
C8_3 C 0.8611(3) 0.51928(16) 0.42887(17)
C9_3 C 0.7566(3) 0.51984(17) 0.43650(19)
H7_3 H 0.728287 0.541680 0.463935
C10_3 C 0.6928(3) 0.48857(17) 0.40418(19)
H8_3 H 0.621271 0.489780 0.409254
C11_3 C 0.7328(3) 0.45582(16) 0.36479(17)
C12_3 C 0.8379(3) 0.45502(18) 0.35739(19)
H9_3 H 0.866414 0.432733 0.330485
C13_3 C 0.9007(3) 0.48659(18) 0.38911(19)
H10_3 H 0.972138 0.485842 0.383537
C14_3 C 0.6636(3) 0.42197(16) 0.32994(18)
C15_3 C 0.9502(3) 0.61779(16) 0.42658(17)
C16_3 C 0.8635(4) 0.63824(19) 0.4013(2)
H11_3 H 0.799804 0.621722 0.405526
C17_3 C 0.8688(4) 0.68236(19) 0.3702(2)
H12_3 H 0.808853 0.695639 0.352793
C18_3 C 0.9601(3) 0.70743(16) 0.36413(18)
C21_3 C 0.9664(4) 0.75538(17) 0.32865(18)
C22_3 C 0.8722(3) 0.56827(16) 0.97682(17)
C23_3 C 0.8863(4) 0.61269(17) 0.94612(19)
H15_3 H 0.937195 0.636231 0.957836
C24_3 C 0.8269(4) 0.62289(17) 0.89874(19)
H16_3 H 0.836376 0.653823 0.878943
C25_3 C 0.7540(3) 0.58891(16) 0.87973(17)
C26_3 C 0.7431(4) 0.54338(17) 0.90858(19)
H17_3 H 0.695226 0.518892 0.895345
C27_3 C 0.8018(4) 0.53339(17) 0.95678(19)
H18_3 H 0.793336 0.502160 0.976148
C28_3 C 0.6853(3) 0.60194(16) 0.83044(17)
C43_3 C 0.9494(4) 0.96213(18) 0.7105(2)
H27_3 H 0.968649 0.977726 0.676241
C44_3 C 0.9183(4) 0.91212(18) 0.7093(2)
H28_3 H 0.917248 0.893960 0.674711
C45_3 C 0.8884(4) 0.88817(16) 0.75866(19)
C46_3 C 0.8970(4) 0.91645(17) 0.8083(2)
H29_3 H 0.880561 0.901531 0.843379
C47_3 C 0.9298(3) 0.96647(16) 0.80599(19)
H30_3 H 0.935489 0.985187 0.840104
C48_3 C 0.8422(4) 0.83689(17) 0.7580(2)
C49_3 C 0.8119(4) 0.81366(19) 0.7083(2)
H31_3 H 0.827572 0.828835 0.673192
C50_3 C 0.7591(4) 0.76872(17) 0.7095(2)
H32_3 H 0.738455 0.753714 0.674717
C51_3 C 0.7696(4) 0.76522(17) 0.8055(2)
H33_3 H 0.757133 0.747590 0.839588
C52_3 C 0.8226(4) 0.81075(18) 0.8082(2)
H34_3 H 0.845170 0.824025 0.843502
O15_2 O 0.6149(2) 0.27016(11) 0.19426(13)
O17_2 O 0.6210(3) 0.27722(12) 0.31782(13)
N3_2 N 0.5463(3) 0.48951(13) 0.74236(15)
P1_4 P 0.54789(8) 0.05911(4) 0.03122(4)
C8_4 C 0.6389(3) 0.01928(16) 0.07113(17)
C9_4 C 0.7434(3) 0.01984(17) 0.06350(19)
H7_4 H 0.771713 0.041680 0.036065
C15_4 C 0.5498(3) 0.11779(16) 0.07342(17)
C16_4 C 0.6365(4) 0.13824(19) 0.0987(2)
H11_4 H 0.700196 0.121722 0.094474
C17_4 C 0.6312(4) 0.18236(19) 0.1298(2)
H12_4 H 0.691147 0.195639 0.147207
C18_4 C 0.5399(3) 0.20743(16) 0.13587(18)
C19_4 C 0.4532(4) 0.1876(2) 0.1097(2)
H13_4 H 0.389797 0.204545 0.113147
C20_4 C 0.4588(4) 0.1430(2) 0.0786(2)
H14_4 H 0.399200 0.129751 0.060726
C21_4 C 0.5336(4) 0.25538(17) 0.17135(18)
P2_4 P 0.54552(8) 0.05491(4) 0.46210(4)
O1_4 O 0.8190(2) 0.15952(11) 0.81593(12)
O2_4 O 0.8543(2) 0.07662(11) 0.80626(13)
O7_4 O 0.8801(2) 0.06971(12) 0.68373(13)
O8_4 O 0.7995(2) 0.14450(11) 0.69216(12)
N2_4 N 0.7646(3) 0.24508(13) 0.74266(15)
C1_4 C 0.6246(3) 0.07764(16) 0.97064(17)
C2_4 C 0.6436(4) 0.12779(17) 0.95623(19)
H3_4 H 0.617422 0.154394 0.978767
C3_4 C 0.7001(4) 0.13943(17) 0.90953(19)
H4_4 H 0.711057 0.173931 0.899701
C4_4 C 0.7412(3) 0.10112(16) 0.87677(17)
C5_4 C 0.7222(3) 0.05116(16) 0.89059(18)
H5_4 H 0.749742 0.024708 0.868351
C6_4 C 0.6634(3) 0.03921(16) 0.93653(18)
H6_4 H 0.649259 0.004687 0.944934
C7_4 C 0.8109(3) 0.11378(16) 0.82843(17)
C22_4 C 0.6278(3) 0.06827(16) 0.52318(17)
C23_4 C 0.6137(4) 0.11269(17) 0.55388(19)
H15_4 H 0.562805 0.136231 0.542164
C24_4 C 0.6731(4) 0.12289(17) 0.60126(19)
H16_4 H 0.663624 0.153823 0.621057
C25_4 C 0.7460(3) 0.08891(16) 0.62027(17)
C26_4 C 0.7569(4) 0.04338(17) 0.59142(19)
H17_4 H 0.804774 0.018892 0.604655
C27_4 C 0.6982(4) 0.03339(17) 0.54322(19)
H18_4 H 0.706664 0.002160 0.523852
C28_4 C 0.8147(3) 0.10194(16) 0.66956(17)
C29_4 C 0.5502(3) 0.11540(16) 0.42319(17)
C30_4 C 0.6283(4) 0.15181(19) 0.4277(2)
H19_4 H 0.682779 0.146797 0.453980
C31_4 C 0.6264(4) 0.19449(18) 0.3946(2)
H20_4 H 0.680396 0.218387 0.397552
C32_4 C 0.5465(3) 0.20305(16) 0.35692(18)
C33_4 C 0.4691(4) 0.16748(19) 0.3524(2)
H21_4 H 0.414039 0.172827 0.326622
C34_4 C 0.4716(4) 0.1244(2) 0.3854(2)
H22_4 H 0.418017 0.100299 0.381824
C35_4 C 0.5422(4) 0.24994(16) 0.31957(18)
C36_4 C 0.6312(3) 0.01617(16) 0.41913(17)
C40_4 C 0.7891(4) 0.0026(2) 0.3721(2)
H25_4 H 0.854853 0.014506 0.362657
C41_4 C 0.7269(4) 0.0327(2) 0.4042(2)
H26_4 H 0.750068 0.065199 0.416221
C43_4 C 0.5506(4) 0.46213(18) 0.7895(2)
H27_4 H 0.531351 0.477726 0.823759
C44_4 C 0.5817(4) 0.41212(18) 0.7907(2)
H28_4 H 0.582752 0.393960 0.825289
C45_4 C 0.6116(4) 0.38817(16) 0.74134(19)
C46_4 C 0.6030(4) 0.41645(17) 0.6917(2)
H29_4 H 0.619439 0.401531 0.656621
C47_4 C 0.5702(3) 0.46647(16) 0.69401(19)
H30_4 H 0.564511 0.485187 0.659896
C48_4 C 0.6578(4) 0.33689(17) 0.7420(2)
C49_4 C 0.6881(4) 0.31366(19) 0.7917(2)
H31_4 H 0.672428 0.328835 0.826808
C50_4 C 0.7409(4) 0.26872(17) 0.7905(2)
H32_4 H 0.761545 0.253714 0.825283
C51_4 C 0.7304(4) 0.26522(17) 0.6945(2)
H33_4 H 0.742867 0.247590 0.660412
C52_4 C 0.6774(4) 0.31075(18) 0.6918(2)
H34_4 H 0.654830 0.324025 0.656498
O4_4 O 0.7966(2) 0.88233(11) 0.19003(13)
O13_4 O 0.6996(3) 0.79910(14) 0.24633(17)
H1_4 H 0.661026 0.783822 0.214474
H2_4 H 0.650368 0.797880 0.277317
C10_4 C 0.8072(3) 0.98857(17) 0.09582(19)
H8_4 H 0.878729 0.989780 0.090746
C11_4 C 0.7672(3) 0.95582(16) 0.13521(17)
C12_4 C 0.6621(3) 0.95502(18) 0.14261(19)
H9_4 H 0.633586 0.932733 0.169515
C13_4 C 0.5993(3) 0.98659(18) 0.11089(19)
H10_4 H 0.527862 0.985842 0.116463
C14_4 C 0.8364(3) 0.92197(16) 0.17006(18)
O20_2 O 0.8038(2) 0.87731(11) 0.31141(13)
C37_4 C 0.5971(4) 0.97024(18) 0.3985(2)
H23_4 H 0.530033 0.959248 0.406472
C38_4 C 0.6599(4) 0.93975(18) 0.3662(2)
H24_4 H 0.635508 0.907943 0.352797
C39_4 C 0.7571(3) 0.95523(16) 0.35350(17)
C42_4 C 0.8262(3) 0.92361(16) 0.31752(17)
N4 N 0.8308(7) 0.3191(4) 0.3744(4)
H35 H 0.796182 0.338851 0.349104
H36 H 0.828994 0.286442 0.361941
C53 C 0.7851(14) 0.3226(6) 0.4286(5)
H37 H 0.714180 0.311138 0.425764
H38 H 0.822670 0.301078 0.455432
H39 H 0.787107 0.357883 0.441517
C54 C 0.9370(12) 0.3366(6) 0.3802(9)
H40 H 0.969955 0.334524 0.343615
H41 H 0.938017 0.371772 0.393516
H42 H 0.973580 0.314967 0.407430
N4_2 N 0.6692(7) 0.8191(4) 0.1256(4)
H35_2 H 0.703818 0.838851 0.150896
H36_2 H 0.671006 0.786442 0.138059
C53_2 C 0.7149(14) 0.8226(6) 0.0714(5)
H37_2 H 0.785820 0.811138 0.074236
H38_2 H 0.677330 0.801078 0.044568
H39_2 H 0.712893 0.857883 0.058483
C54_2 C 0.5630(12) 0.8366(6) 0.1198(9)
H40_2 H 0.530045 0.834524 0.156385
H41_2 H 0.561983 0.871772 0.106484
H42_2 H 0.526420 0.814967 0.092570
N4_3 N 0.1692(7) 0.6809(4) 0.6256(4)
H35_3 H 0.203818 0.661149 0.650896
H36_3 H 0.171006 0.713558 0.638059
C53_3 C 0.2149(14) 0.6774(6) 0.5714(5)
H37_3 H 0.285820 0.688862 0.574236
H38_3 H 0.177330 0.698922 0.544568
H39_3 H 0.212893 0.642117 0.558483
C54_3 C 0.0630(12) 0.6634(6) 0.6198(9)
H40_3 H 0.030045 0.665476 0.656385
H41_3 H 0.061983 0.628228 0.606484
H42_3 H 0.026420 0.685033 0.592570
N4_4 N 0.3308(7) 0.1809(4) 0.8744(4)
H35_4 H 0.296182 0.161149 0.849104
H36_4 H 0.328994 0.213558 0.861941
C53_4 C 0.2851(14) 0.1774(6) 0.9286(5)
H37_4 H 0.214180 0.188862 0.925764
H38_4 H 0.322670 0.198922 0.955432
H39_4 H 0.287107 0.142117 0.941517
C54_4 C 0.4370(12) 0.1634(6) 0.8802(9)
H40_4 H 0.469955 0.165476 0.843615
H41_4 H 0.438017 0.128228 0.893516
H42_4 H 0.473580 0.185033 0.907430
N5 N 0.3194(15) 0.5831(7) 0.4659(8)
H43 H 0.264389 0.562207 0.468083
H44 H 0.333290 0.595003 0.501138
C55 C 0.4152(15) 0.5502(8) 0.4454(8)
H45 H 0.427888 0.522343 0.472014
H46 H 0.400430 0.536226 0.407903
H47 H 0.475531 0.571973 0.443932
C56 C 0.2939(8) 0.6240(4) 0.4311(4)
H48 H 0.235140 0.641893 0.446514
H49 H 0.351807 0.647356 0.429255
H50 H 0.276706 0.611610 0.393226
N5_2 N 0.1806(15) 0.0831(7) 0.0341(8)
H43_2 H 0.235611 0.062207 0.031917
C55_2 C 0.0848(15) 0.0502(8) 0.0546(8)
H45_2 H 0.072112 0.022343 0.027986
H46_2 H 0.099570 0.036226 0.092097
H47_2 H 0.024469 0.071973 0.056068
C56_2 C 0.2061(8) 0.1240(4) 0.0689(4)
H48_2 H 0.264860 0.141893 0.053486
H49_2 H 0.148193 0.147356 0.070745
H50_2 H 0.223294 0.111610 0.106774
H44_2 H 0.166710 0.095003 0.998862
N5_3 N 0.6806(15) 0.4169(7) 0.5341(8)
H43_3 H 0.735611 0.437793 0.531917
H44_3 H 0.666710 0.404997 0.498862
C55_3 C 0.5848(15) 0.4498(8) 0.5546(8)
H45_3 H 0.572112 0.477657 0.527986
H46_3 H 0.599570 0.463774 0.592097
H47_3 H 0.524469 0.428027 0.556068
C56_3 C 0.7061(8) 0.3760(4) 0.5689(4)
H48_3 H 0.764860 0.358107 0.553486
H49_3 H 0.648193 0.352644 0.570745
H50_3 H 0.723294 0.388390 0.606774
H44_4 H 0.833290 0.904997 0.001138
N5_4 N 0.8194(15) 0.9169(7) 0.9659(8)
H43_4 H 0.764389 0.937793 0.968083
C55_4 C 0.9152(15) 0.9498(8) 0.9454(8)
H45_4 H 0.927888 0.977657 0.972014
H46_4 H 0.900430 0.963774 0.907903
H47_4 H 0.975531 0.928027 0.943932
C56_4 C 0.7939(8) 0.8760(4) 0.9311(4)
H48_4 H 0.735140 0.858107 0.946514
H49_4 H 0.851807 0.852644 0.929255
H50_4 H 0.776706 0.888390 0.893226
loop_
_geom_bond_atom_site_label_1
_geom_bond_atom_site_label_2
_geom_bond_site_symmetry_1
_geom_bond_site_symmetry_2
Co1 F1 1_555 1_555
Co2 F1 1_555 1_555
Co3 O4 1_555 1_555
F1 Co12 1_555 1_555
P1 C1 1_555 1_555
O1 Co1 1_555 1_555
O2 Co2 1_555 1_555
O3 C14 1_555 1_555
O4 C14 1_555 1_555
O5 C21 1_555 1_555
O7 Co2 1_555 1_555
O8 Co1 1_555 1_555
O13 Co3 1_555 1_555
H1 O13 1_555 1_555
H2 O13 1_555 1_555
N1 C43 1_555 1_555
N2 Co1 1_555 1_555
C1 C2 1_555 1_555
C2 H3 1_555 1_555
C3 C2 1_555 1_555
H4 C3 1_555 1_555
C4 C3 1_555 1_555
C5 C4 1_555 1_555
H5 C5 1_555 1_555
C6 C1 1_555 1_555
H6 C6 1_555 1_555
C7 O1 1_555 1_555
C8 P1 1_555 1_555
C9 C8 1_555 1_555
H7 C9 1_555 1_555
C10 C9 1_555 1_555
H8 C10 1_555 1_555
C11 C10 1_555 1_555
C12 C11 1_555 1_555
H9 C12 1_555 1_555
C13 C8 1_555 1_555
H10 C13 1_555 1_555
C14 C11 1_555 1_555
C15 P1 1_555 1_555
C16 C15 1_555 1_555
H11 C16 1_555 1_555
C17 C16 1_555 1_555
H12 C17 1_555 1_555
C18 C17 1_555 1_555
C21 C18 1_555 1_555
C22 C23 1_555 1_555
C23 H15 1_555 1_555
C24 C23 1_555 1_555
H16 C24 1_555 1_555
C25 C24 1_555 1_555
C26 C25 1_555 1_555
H17 C26 1_555 1_555
C27 C22 1_555 1_555
H18 C27 1_555 1_555
C28 O7 1_555 1_555
C43 H27 1_555 1_555
C44 C43 1_555 1_555
H28 C44 1_555 1_555
C45 C44 1_555 1_555
C46 C45 1_555 1_555
H29 C46 1_555 1_555
C47 N1 1_555 1_555
H30 C47 1_555 1_555
C48 C45 1_555 1_555
C49 C48 1_555 1_555
H31 C49 1_555 1_555
C50 N2 1_555 1_555
H32 C50 1_555 1_555
C51 N2 1_555 1_555
H33 C51 1_555 1_555
C52 C48 1_555 1_555
H34 C52 1_555 1_555
Co8 O3 1_555 1_555
Co11 O5 1_555 1_555
F2 Co3 1_555 1_555
O14 Co2 1_555 1_555
O15 Co3 1_555 1_555
O16 Co1 1_555 1_555
O17 Co3 1_555 1_555
O18 Co1 1_555 1_555
O19 Co2 1_555 1_555
O20 Co3 1_555 1_555
N3 Co2 1_555 1_555
O2 C7 1_555 1_555
O8 C28 1_555 1_555
C4 C7 1_555 1_555
C5 C6 1_555 1_555
C12 C13 1_555 1_555
C25 C28 1_555 1_555
C26 C27 1_555 1_555
C46 C47 1_555 1_555
C49 C50 1_555 1_555
C51 C52 1_555 1_555
Co8 F2 1_555 1_555
O9 C35 1_555 1_555
O11 C42 1_555 1_555
O20 C42 1_555 1_555
C29 P2 1_555 1_555
C30 C29 1_555 1_555
H19 C30 1_555 1_555
C31 C30 1_555 1_555
H20 C31 1_555 1_555
C32 C31 1_555 1_555
C35 C32 1_555 1_555
C36 P2 1_555 1_555
C37 C36 1_555 1_555
H23 C37 1_555 1_555
C38 C37 1_555 1_555
H24 C38 1_555 1_555
C39 C38 1_555 1_555
C40 C39 1_555 1_555
H25 C40 1_555 1_555
C41 C36 1_555 1_555
H26 C41 1_555 1_555
C42 C39 1_555 1_555
Co8 O11 1_555 1_555
Co11 O9 1_555 1_555
C40 C41 1_555 1_555
H13 C19 1_555 1_555
H14 C20 1_555 1_555
Co5 O6 1_555 1_555
C19 C20 1_555 1_555
H21 C33 1_555 1_555
H22 C34 1_555 1_555
Co5 O10 1_555 1_555
C33 C34 1_555 1_555
O11_2 C42_2 1_555 1_555
O12 C42_2 1_555 1_555
H23_2 C37_2 1_555 1_555
C38_2 C37_2 1_555 1_555
H24_2 C38_2 1_555 1_555
C39_2 C38_2 1_555 1_555
C42_2 C39_2 1_555 1_555
Co11 O12 1_555 1_555
Co11 O4_2 1_555 1_555
O3_2 C14_2 1_555 1_555
O4_2 C14_2 1_555 1_555
O13_2 Co11 1_555 1_555
H1_2 O13_2 1_555 1_555
H2_2 O13_2 1_555 1_555
H8_2 C10_2 1_555 1_555
C11_2 C10_2 1_555 1_555
C12_2 C11_2 1_555 1_555
H9_2 C12_2 1_555 1_555
H10_2 C13_2 1_555 1_555
C14_2 C11_2 1_555 1_555
F2_2 Co11 1_555 1_555
C12_2 C13_2 1_555 1_555
P2_2 C22_2 1_555 1_555
O1_2 Co1_2 1_555 1_555
O2_2 Co6 1_555 1_555
O7_2 Co6 1_555 1_555
O8_2 Co1_2 1_555 1_555
O17 C35_2 1_555 1_555
O10_2 C35_2 1_555 1_555
N3 C43_2 1_555 1_555
N2_2 Co1_2 1_555 1_555
C1_2 C2_2 1_555 1_555
C2_2 H3_2 1_555 1_555
C3_2 C2_2 1_555 1_555
H4_2 C3_2 1_555 1_555
C4_2 C3_2 1_555 1_555
C5_2 C4_2 1_555 1_555
H5_2 C5_2 1_555 1_555
C6_2 C1_2 1_555 1_555
H6_2 C6_2 1_555 1_555
C7_2 O1_2 1_555 1_555
C22_2 C23_2 1_555 1_555
C23_2 H15_2 1_555 1_555
C24_2 C23_2 1_555 1_555
H16_2 C24_2 1_555 1_555
C25_2 C24_2 1_555 1_555
C26_2 C25_2 1_555 1_555
H17_2 C26_2 1_555 1_555
C27_2 C22_2 1_555 1_555
H18_2 C27_2 1_555 1_555
C28_2 O7_2 1_555 1_555
C29_2 P2_2 1_555 1_555
C30_2 C29_2 1_555 1_555
H19_2 C30_2 1_555 1_555
C31_2 C30_2 1_555 1_555
H20_2 C31_2 1_555 1_555
C32_2 C31_2 1_555 1_555
C33_2 C32_2 1_555 1_555
H21_2 C33_2 1_555 1_555
C34_2 C29_2 1_555 1_555
H22_2 C34_2 1_555 1_555
C35_2 C32_2 1_555 1_555
C36_2 P2_2 1_555 1_555
H25_2 C40_2 1_555 1_555
C41_2 C36_2 1_555 1_555
H26_2 C41_2 1_555 1_555
C43_2 H27_2 1_555 1_555
C44_2 C43_2 1_555 1_555
H28_2 C44_2 1_555 1_555
C45_2 C44_2 1_555 1_555
C46_2 C45_2 1_555 1_555
H29_2 C46_2 1_555 1_555
C47_2 N3 1_555 1_555
H30_2 C47_2 1_555 1_555
C48_2 C45_2 1_555 1_555
C49_2 C48_2 1_555 1_555
H31_2 C49_2 1_555 1_555
C50_2 N2_2 1_555 1_555
H32_2 C50_2 1_555 1_555
C51_2 N2_2 1_555 1_555
H33_2 C51_2 1_555 1_555
C52_2 C48_2 1_555 1_555
H34_2 C52_2 1_555 1_555
Co4 O10_2 1_555 1_555
O16_2 Co1_2 1_555 1_555
O18_2 Co1_2 1_555 1_555
O2_2 C7_2 1_555 1_555
O8_2 C28_2 1_555 1_555
C4_2 C7_2 1_555 1_555
C5_2 C6_2 1_555 1_555
C25_2 C28_2 1_555 1_555
C26_2 C27_2 1_555 1_555
C33_2 C34_2 1_555 1_555
C40_2 C41_2 1_555 1_555
C46_2 C47_2 1_555 1_555
C49_2 C50_2 1_555 1_555
C51_2 C52_2 1_555 1_555
O15 C21_2 1_555 1_555
O6_2 C21_2 1_555 1_555
C8_2 P1_2 1_555 1_555
C9_2 C8_2 1_555 1_555
H7_2 C9_2 1_555 1_555
C15_2 P1_2 1_555 1_555
C16_2 C15_2 1_555 1_555
H11_2 C16_2 1_555 1_555
C17_2 C16_2 1_555 1_555
H12_2 C17_2 1_555 1_555
C18_2 C17_2 1_555 1_555
C19_2 C18_2 1_555 1_555
H13_2 C19_2 1_555 1_555
C20_2 C15_2 1_555 1_555
H14_2 C20_2 1_555 1_555
C21_2 C18_2 1_555 1_555
Co4 O6_2 1_555 1_555
C19_2 C20_2 1_555 1_555
F1_2 Co12_2 1_555 1_555
H21_3 C33_3 1_555 1_555
H22_3 C34_3 1_555 1_555
C33_3 C34_3 1_555 1_555
H13_3 C19_3 1_555 1_555
H14_3 C20_3 1_555 1_555
C19_3 C20_3 1_555 1_555
O9_2 C35_3 1_555 1_555
O19 C42_3 1_555 1_555
O12_2 C42_3 1_555 1_555
C29_3 P2_3 1_555 1_555
C30_3 C29_3 1_555 1_555
H19_3 C30_3 1_555 1_555
C31_3 C30_3 1_555 1_555
H20_3 C31_3 1_555 1_555
C32_3 C31_3 1_555 1_555
C35_3 C32_3 1_555 1_555
C36_3 P2_3 1_555 1_555
C37_3 C36_3 1_555 1_555
H23_3 C37_3 1_555 1_555
C38_3 C37_3 1_555 1_555
H24_3 C38_3 1_555 1_555
C39_3 C38_3 1_555 1_555
C40_3 C39_3 1_555 1_555
H25_3 C40_3 1_555 1_555
C41_3 C36_3 1_555 1_555
H26_3 C41_3 1_555 1_555
C42_3 C39_3 1_555 1_555
Co12 O12_2 1_555 1_555
Co12_2 O9_2 1_555 1_555
C40_3 C41_3 1_555 1_555
Co4 F2 1_555 1_555
Co12 O4_3 1_555 1_555
P1_3 C1_3 1_555 1_555
O1_3 Co4 1_555 1_555
O2_3 Co8 1_555 1_555
O14 C14_3 1_555 1_555
O4_3 C14_3 1_555 1_555
O5_2 C21_3 1_555 1_555
O7_3 Co8 1_555 1_555
O8_3 Co4 1_555 1_555
O13_3 Co12 1_555 1_555
H1_3 O13_3 1_555 1_555
H2_3 O13_3 1_555 1_555
N1_2 C43_3 1_555 1_555
N2_3 Co4 1_555 1_555
C1_3 C2_3 1_555 1_555
C2_3 H3_3 1_555 1_555
C3_3 C2_3 1_555 1_555
H4_3 C3_3 1_555 1_555
C4_3 C3_3 1_555 1_555
C5_3 C4_3 1_555 1_555
H5_3 C5_3 1_555 1_555
C6_3 C1_3 1_555 1_555
H6_3 C6_3 1_555 1_555
C7_3 O1_3 1_555 1_555
C8_3 P1_3 1_555 1_555
C9_3 C8_3 1_555 1_555
H7_3 C9_3 1_555 1_555
C10_3 C9_3 1_555 1_555
H8_3 C10_3 1_555 1_555
C11_3 C10_3 1_555 1_555
C12_3 C11_3 1_555 1_555
H9_3 C12_3 1_555 1_555
C13_3 C8_3 1_555 1_555
H10_3 C13_3 1_555 1_555
C14_3 C11_3 1_555 1_555
C15_3 P1_3 1_555 1_555
C16_3 C15_3 1_555 1_555
H11_3 C16_3 1_555 1_555
C17_3 C16_3 1_555 1_555
H12_3 C17_3 1_555 1_555
C18_3 C17_3 1_555 1_555
C21_3 C18_3 1_555 1_555
C22_3 C23_3 1_555 1_555
C23_3 H15_3 1_555 1_555
C24_3 C23_3 1_555 1_555
H16_3 C24_3 1_555 1_555
C25_3 C24_3 1_555 1_555
C26_3 C25_3 1_555 1_555
H17_3 C26_3 1_555 1_555
C27_3 C22_3 1_555 1_555
H18_3 C27_3 1_555 1_555
C28_3 O7_3 1_555 1_555
C43_3 H27_3 1_555 1_555
C44_3 C43_3 1_555 1_555
H28_3 C44_3 1_555 1_555
C45_3 C44_3 1_555 1_555
C46_3 C45_3 1_555 1_555
H29_3 C46_3 1_555 1_555
C47_3 N1_2 1_555 1_555
H30_3 C47_3 1_555 1_555
C48_3 C45_3 1_555 1_555
C49_3 C48_3 1_555 1_555
H31_3 C49_3 1_555 1_555
C50_3 N2_3 1_555 1_555
H32_3 C50_3 1_555 1_555
C51_3 N2_3 1_555 1_555
H33_3 C51_3 1_555 1_555
C52_3 C48_3 1_555 1_555
H34_3 C52_3 1_555 1_555
Co12_2 O5_2 1_555 1_555
O15_2 Co12 1_555 1_555
O17_2 Co12 1_555 1_555
N3_2 Co8 1_555 1_555
O2_3 C7_3 1_555 1_555
O8_3 C28_3 1_555 1_555
C4_3 C7_3 1_555 1_555
C5_3 C6_3 1_555 1_555
C12_3 C13_3 1_555 1_555
C25_3 C28_3 1_555 1_555
C26_3 C27_3 1_555 1_555
C46_3 C47_3 1_555 1_555
C49_3 C50_3 1_555 1_555
C51_3 C52_3 1_555 1_555
O15_2 C21_4 1_555 1_555
O16 C21_4 1_555 1_555
C8_4 P1_4 1_555 1_555
C9_4 C8_4 1_555 1_555
H7_4 C9_4 1_555 1_555
C15_4 P1_4 1_555 1_555
C16_4 C15_4 1_555 1_555
H11_4 C16_4 1_555 1_555
C17_4 C16_4 1_555 1_555
H12_4 C17_4 1_555 1_555
C18_4 C17_4 1_555 1_555
C19_4 C18_4 1_555 1_555
H13_4 C19_4 1_555 1_555
C20_4 C15_4 1_555 1_555
H14_4 C20_4 1_555 1_555
C21_4 C18_4 1_555 1_555
C19_4 C20_4 1_555 1_555
P2_4 C22_4 1_555 1_555
O1_4 Co5 1_555 1_555
O2_4 Co7 1_555 1_555
O7_4 Co7 1_555 1_555
O8_4 Co5 1_555 1_555
O17_2 C35_4 1_555 1_555
O18 C35_4 1_555 1_555
N3_2 C43_4 1_555 1_555
N2_4 Co5 1_555 1_555
C1_4 C2_4 1_555 1_555
C2_4 H3_4 1_555 1_555
C3_4 C2_4 1_555 1_555
H4_4 C3_4 1_555 1_555
C4_4 C3_4 1_555 1_555
C5_4 C4_4 1_555 1_555
H5_4 C5_4 1_555 1_555
C6_4 C1_4 1_555 1_555
H6_4 C6_4 1_555 1_555
C7_4 O1_4 1_555 1_555
C22_4 C23_4 1_555 1_555
C23_4 H15_4 1_555 1_555
C24_4 C23_4 1_555 1_555
H16_4 C24_4 1_555 1_555
C25_4 C24_4 1_555 1_555
C26_4 C25_4 1_555 1_555
H17_4 C26_4 1_555 1_555
C27_4 C22_4 1_555 1_555
H18_4 C27_4 1_555 1_555
C28_4 O7_4 1_555 1_555
C29_4 P2_4 1_555 1_555
C30_4 C29_4 1_555 1_555
H19_4 C30_4 1_555 1_555
C31_4 C30_4 1_555 1_555
H20_4 C31_4 1_555 1_555
C32_4 C31_4 1_555 1_555
C33_4 C32_4 1_555 1_555
H21_4 C33_4 1_555 1_555
C34_4 C29_4 1_555 1_555
H22_4 C34_4 1_555 1_555
C35_4 C32_4 1_555 1_555
C36_4 P2_4 1_555 1_555
H25_4 C40_4 1_555 1_555
C41_4 C36_4 1_555 1_555
H26_4 C41_4 1_555 1_555
C43_4 H27_4 1_555 1_555
C44_4 C43_4 1_555 1_555
H28_4 C44_4 1_555 1_555
C45_4 C44_4 1_555 1_555
C46_4 C45_4 1_555 1_555
H29_4 C46_4 1_555 1_555
C47_4 N3_2 1_555 1_555
H30_4 C47_4 1_555 1_555
C48_4 C45_4 1_555 1_555
C49_4 C48_4 1_555 1_555
H31_4 C49_4 1_555 1_555
C50_4 N2_4 1_555 1_555
H32_4 C50_4 1_555 1_555
C51_4 N2_4 1_555 1_555
H33_4 C51_4 1_555 1_555
C52_4 C48_4 1_555 1_555
H34_4 C52_4 1_555 1_555
O2_4 C7_4 1_555 1_555
O8_4 C28_4 1_555 1_555
C4_4 C7_4 1_555 1_555
C5_4 C6_4 1_555 1_555
C25_4 C28_4 1_555 1_555
C26_4 C27_4 1_555 1_555
C33_4 C34_4 1_555 1_555
C40_4 C41_4 1_555 1_555
C46_4 C47_4 1_555 1_555
C49_4 C50_4 1_555 1_555
C51_4 C52_4 1_555 1_555
Co12_2 O4_4 1_555 1_555
O14_2 C14_4 1_555 1_555
O4_4 C14_4 1_555 1_555
O13_4 Co12_2 1_555 1_555
H1_4 O13_4 1_555 1_555
H2_4 O13_4 1_555 1_555
H8_4 C10_4 1_555 1_555
C11_4 C10_4 1_555 1_555
C12_4 C11_4 1_555 1_555
H9_4 C12_4 1_555 1_555
H10_4 C13_4 1_555 1_555
C14_4 C11_4 1_555 1_555
O20_2 Co12_2 1_555 1_555
C12_4 C13_4 1_555 1_555
O19_2 C42_4 1_555 1_555
O20_2 C42_4 1_555 1_555
H23_4 C37_4 1_555 1_555
C38_4 C37_4 1_555 1_555
H24_4 C38_4 1_555 1_555
C39_4 C38_4 1_555 1_555
C42_4 C39_4 1_555 1_555
N4 H35 1_555 1_555
H36 N4 1_555 1_555
C53 N4 1_555 1_555
H37 C53 1_555 1_555
H38 C53 1_555 1_555
H39 C53 1_555 1_555
C54 N4 1_555 1_555
H40 C54 1_555 1_555
H41 C54 1_555 1_555
H42 C54 1_555 1_555
N4_2 H35_2 1_555 1_555
H36_2 N4_2 1_555 1_555
C53_2 N4_2 1_555 1_555
H37_2 C53_2 1_555 1_555
H38_2 C53_2 1_555 1_555
H39_2 C53_2 1_555 1_555
C54_2 N4_2 1_555 1_555
H40_2 C54_2 1_555 1_555
H41_2 C54_2 1_555 1_555
H42_2 C54_2 1_555 1_555
N4_3 H35_3 1_555 1_555
H36_3 N4_3 1_555 1_555
C53_3 N4_3 1_555 1_555
H37_3 C53_3 1_555 1_555
H38_3 C53_3 1_555 1_555
H39_3 C53_3 1_555 1_555
C54_3 N4_3 1_555 1_555
H40_3 C54_3 1_555 1_555
H41_3 C54_3 1_555 1_555
H42_3 C54_3 1_555 1_555
N4_4 H35_4 1_555 1_555
H36_4 N4_4 1_555 1_555
C53_4 N4_4 1_555 1_555
H37_4 C53_4 1_555 1_555
H38_4 C53_4 1_555 1_555
H39_4 C53_4 1_555 1_555
C54_4 N4_4 1_555 1_555
H40_4 C54_4 1_555 1_555
H41_4 C54_4 1_555 1_555
H42_4 C54_4 1_555 1_555
N5 H43 1_555 1_555
H44 N5 1_555 1_555
C55 N5 1_555 1_555
H45 C55 1_555 1_555
H46 C55 1_555 1_555
H47 C55 1_555 1_555
C56 N5 1_555 1_555
H48 C56 1_555 1_555
H49 C56 1_555 1_555
H50 C56 1_555 1_555
N5_2 H43_2 1_555 1_555
C55_2 N5_2 1_555 1_555
H45_2 C55_2 1_555 1_555
H46_2 C55_2 1_555 1_555
H47_2 C55_2 1_555 1_555
C56_2 N5_2 1_555 1_555
H48_2 C56_2 1_555 1_555
H49_2 C56_2 1_555 1_555
H50_2 C56_2 1_555 1_555
N5_3 H43_3 1_555 1_555
H44_3 N5_3 1_555 1_555
C55_3 N5_3 1_555 1_555
H45_3 C55_3 1_555 1_555
H46_3 C55_3 1_555 1_555
H47_3 C55_3 1_555 1_555
C56_3 N5_3 1_555 1_555
H48_3 C56_3 1_555 1_555
H49_3 C56_3 1_555 1_555
H50_3 C56_3 1_555 1_555
N5_4 H43_4 1_555 1_555
C55_4 N5_4 1_555 1_555
H45_4 C55_4 1_555 1_555
H46_4 C55_4 1_555 1_555
H47_4 C55_4 1_555 1_555
C56_4 N5_4 1_555 1_555
H48_4 C56_4 1_555 1_555
H49_4 C56_4 1_555 1_555
H50_4 C56_4 1_555 1_555

#END
