
###############################################################################
#
# This file contains modified crystal structure data generated from the
# MOF subset of the Cambridge Structural Database (CSD) v543 
# hosted by the Cambridge Crystallographic Data Centre (CCDC).
#
# This work is licensed under the Creative Commons
# Attribution-NonCommercial-ShareAlike 4.0 International License.
# To view a copy of this license, visit
# http://creativecommons.org/licenses/by-nc-sa/4.0/
# or send a letter to
# Creative Commons, PO Box 1866, Mountain View, CA 94042, USA.
#
# CIF created using the CSD Python API on 29 September 2022
# The structure has been converted into the P1 space group
# The structure has a 3D framework
# The original CSD entry ABEDEU is in the orthorhombic crystal system
# The framework has been calculated to contain at least 10.0% void space
# The void calculation uses a probe of radius 1.32A, grid spacing 0.4
# H atom positions have been added when not included in the experimental data
# Generated hydrogen atom positions removed from atoms on special positions
#
###############################################################################

data_ABEDEU
_chemical_formula_moiety         '(C208 H144 Au8 Co12 F2 N8 O48 P8)n'
_symmetry_cell_setting           triclinic
_symmetry_space_group_name_H-M   'P 1'
_symmetry_Int_Tables_number      1
_space_group_name_Hall           'P 1'
loop_
_symmetry_equiv_pos_site_id
_symmetry_equiv_pos_as_xyz
1 x,y,z
_cell_length_a                   25.1348(8)
_cell_length_b                   24.0762(5)
_cell_length_c                   15.4212(5)
_cell_angle_alpha                90
_cell_angle_beta                 90
_cell_angle_gamma                90
_cell_volume                     9332.15
loop_
_atom_site_label
_atom_site_type_symbol
_atom_site_fract_x
_atom_site_fract_y
_atom_site_fract_z
Au1 Au 0.500000 0.500000 -0.000000
O6 O 0.7492(2) 0.3113(3) 0.0320(4)
H3 H 0.602207 0.434609 0.035031
C15 C 0.6653(4) 0.3852(4) 0.0022(5)
H4 H 0.673474 0.375219 0.060303
Co6 Co 0.79611(6) 0.250000 0.09000(9)
P3 P 0.44921(7) 0.52439(6) 0.11808(10)
Au1_2 Au 0.500000 0.500000 1.000000
Co1 Co 0.29611(6) 0.250000 0.41000(9)
Co2 Co 0.57295(6) 0.750000 0.51402(9)
Co3 Co 0.32283(6) 0.250000 0.63594(9)
P1 P 0.55079(7) 0.47561(6) 0.88192(10)
F1 F 0.3479(2) 0.250000 0.5112(3)
O1 O 0.58064(19) 0.6897(2) 0.6080(4)
N1 N 0.2410(3) 0.250000 0.3068(5)
O2 O 0.6639(2) 0.6870(2) 0.6554(3)
O3 O 0.4421(2) 0.3116(3) 0.5761(4)
O4 O 0.7665(2) 0.3106(2) 0.8892(3)
O5 O 0.3770(2) 0.3091(3) 0.6748(4)
O7 O 0.2963(3) 0.250000 0.7659(5)
N2 N 0.0100(3) 0.250000 0.0447(5)
C1 C 0.1082(4) 0.250000 0.1317(6)
C2 C 0.6099(3) 0.4343(3) 0.9066(4)
C3 C 0.6164(3) 0.6718(2) 0.6536(4)
C4 C 0.5724(3) 0.5344(3) 0.8175(4)
C5 C 0.6957(3) 0.3646(3) 0.9388(4)
C6 C 0.4522(3) 0.3630(3) 0.7018(4)
C7 C 0.4212(3) 0.3248(3) 0.6453(4)
C8 C 0.6016(3) 0.6240(2) 0.7147(4)
C9 C 0.7411(3) 0.3251(3) 0.9548(5)
C10 C 0.5118(3) 0.4333(3) 0.8088(4)
C11 C 0.1558(4) 0.250000 0.1889(7)
C12 C 0.0827(3) 0.2006(3) 0.1060(5)
H1 H 0.098767 0.165797 0.118451
C13 C 0.0347(3) 0.2021(3) 0.0634(5)
H2 H 0.018524 0.168114 0.046543
C14 C 0.6223(3) 0.4205(4) 0.9877(5)
C16 C 0.6390(3) 0.5957(4) 0.7615(6)
H5 H 0.675262 0.606839 0.759581
C17 C 0.1782(3) 0.2007(3) 0.2181(6)
H6 H 0.165374 0.165973 0.197440
C18 C 0.2196(3) 0.2026(3) 0.2778(6)
H7 H 0.233425 0.168516 0.299140
C19 C 0.5356(3) 0.5645(4) 0.7766(7)
H8 H 0.499080 0.555418 0.783815
C20 C 0.5496(4) 0.6087(4) 0.7239(7)
H9 H 0.522648 0.628595 0.693789
C21 C 0.6235(3) 0.5502(4) 0.8125(6)
H10 H 0.649710 0.530187 0.844002
C22 C 0.6825(4) 0.3782(5) 0.8574(6)
H11 H 0.702322 0.363092 0.810574
C23 C 0.5203(4) 0.4319(5) 0.7221(6)
H12 H 0.545409 0.456484 0.696610
C24 C 0.4923(4) 0.3942(5) 0.6696(6)
H13 H 0.501785 0.390543 0.610267
C25 C 0.4435(4) 0.3644(5) 0.7888(6)
H14 H 0.416627 0.341700 0.813554
C26 C 0.6398(4) 0.4144(5) 0.8398(6)
H15 H 0.631934 0.424906 0.781785
C27 C 0.4739(4) 0.3992(5) 0.8422(6)
H16 H 0.467878 0.398895 0.903018
C28 C 0.0827(3) 0.2994(3) 0.1060(5)
H17 H 0.098767 0.334203 0.118451
C29 C 0.0347(3) 0.2979(3) 0.0634(5)
H18 H 0.018524 0.331886 0.046543
C30 C 0.1782(3) 0.2993(3) 0.2181(6)
H19 H 0.165374 0.334027 0.197440
C31 C 0.2196(3) 0.2974(3) 0.2778(6)
H20 H 0.233425 0.331484 0.299140
O8 O 0.41936(19) 0.3103(2) 0.3920(4)
O9 O 0.3361(2) 0.3130(2) 0.3446(3)
O10 O 0.5579(2) 0.6884(3) 0.4239(4)
O11 O 0.2335(2) 0.6894(2) 0.1108(3)
O12 O 0.6230(2) 0.6909(3) 0.3252(4)
C32 C 0.3901(3) 0.5657(3) 0.0934(4)
C33 C 0.3836(3) 0.3282(2) 0.3464(4)
C34 C 0.4276(3) 0.4656(3) 0.1825(4)
C35 C 0.3043(3) 0.6354(3) 0.0612(4)
C36 C 0.5478(3) 0.6370(3) 0.2982(4)
C37 C 0.5788(3) 0.6752(3) 0.3547(4)
C38 C 0.3984(3) 0.3760(2) 0.2853(4)
C39 C 0.2589(3) 0.6749(3) 0.0452(5)
C40 C 0.4882(3) 0.5667(3) 0.1912(4)
C41 C 0.3777(3) 0.5795(4) 0.0123(5)
C43 C 0.3610(3) 0.4043(4) 0.2385(6)
H23 H 0.324738 0.393161 0.240419
C44 C 0.4644(3) 0.4355(4) 0.2234(7)
H24 H 0.500920 0.444582 0.216185
C45 C 0.4504(4) 0.3913(4) 0.2761(7)
H25 H 0.477352 0.371405 0.306211
C46 C 0.3765(3) 0.4498(4) 0.1875(6)
H26 H 0.350290 0.469813 0.155998
C47 C 0.3175(4) 0.6218(5) 0.1426(6)
H27 H 0.297678 0.636908 0.189426
C48 C 0.4797(4) 0.5681(5) 0.2779(6)
H28 H 0.454591 0.543516 0.303390
C49 C 0.5077(4) 0.6058(5) 0.3304(6)
H29 H 0.498215 0.609457 0.389733
C50 C 0.5565(4) 0.6356(5) 0.2112(6)
H30 H 0.583373 0.658300 0.186446
C51 C 0.3602(4) 0.5856(5) 0.1602(6)
H31 H 0.368066 0.575094 0.218215
C52 C 0.5261(4) 0.6008(5) 0.1578(6)
H32 H 0.532122 0.601105 0.096982
Co5 Co 0.70389(6) 0.750000 0.59000(9)
Co8 Co 0.42705(6) 0.250000 0.48598(9)
Co9 Co 0.17717(6) 0.750000 0.13594(9)
Co10 Co 0.67717(6) 0.750000 0.36406(9)
Co11 Co 0.82283(6) 0.250000 0.86406(9)
F2 F 0.6521(2) 0.750000 0.4888(3)
O14 O 0.58064(19) 0.8103(2) 0.6080(4)
O15 O 0.3361(2) 0.1870(2) 0.3446(3)
O16 O 0.5579(2) 0.8116(3) 0.4239(4)
O17 O 0.2665(2) 0.1894(2) 0.6108(3)
O18 O 0.2665(2) 0.3106(2) 0.6108(3)
O19 O 0.3770(2) 0.1909(3) 0.6748(4)
O20 O 0.2492(2) 0.1887(3) 0.4680(4)
O21 O 0.2492(2) 0.3113(3) 0.4680(4)
N3 N 0.4900(3) 0.750000 0.5447(5)
O13 O 0.2508(2) 0.6887(3) 0.9680(4)
H21 H 0.397793 0.565391 0.964969
C42 C 0.3347(4) 0.6148(4) 0.9978(5)
H22 H 0.326526 0.624781 0.939697
Co4 Co 0.20389(6) 0.750000 0.91000(9)
Co7 Co 0.92705(6) 0.250000 0.01402(9)
Au1_3 Au 0.000000 0.500000 0.500000
F1_2 F 0.1521(2) 0.750000 0.0112(3)
O3_2 O 0.0579(2) 0.6884(3) 0.0761(4)
O5_2 O 0.1230(2) 0.6909(3) 0.1748(4)
O7_2 O 0.2037(3) 0.750000 0.2659(5)
C6_2 C 0.0478(3) 0.6370(3) 0.2018(4)
C7_2 C 0.0788(3) 0.6752(3) 0.1453(4)
H8_2 H 0.000920 0.444582 0.283815
C24_2 C 0.0077(4) 0.6058(5) 0.1696(6)
C25_2 C 0.0565(4) 0.6356(5) 0.2888(6)
H14_2 H 0.083373 0.658300 0.313554
C27_2 C 0.0261(4) 0.6008(5) 0.3422(6)
H16_2 H 0.032122 0.601105 0.403018
P3_2 P 0.05079(7) 0.47561(6) 0.61808(10)
O17_2 O 0.2335(2) 0.8106(2) 0.1108(3)
O19_2 O 0.1230(2) 0.8091(3) 0.1748(4)
N1_2 N 0.2590(3) 0.750000 0.8068(5)
C1_2 C 0.3918(4) 0.750000 0.6317(6)
C11_2 C 0.3442(4) 0.750000 0.6889(7)
C12_2 C 0.4173(3) 0.7994(3) 0.6060(5)
H1_2 H 0.401233 0.834203 0.618451
C13_2 C 0.4653(3) 0.7979(3) 0.5634(5)
H2_2 H 0.481476 0.831886 0.546543
C17_2 C 0.3218(3) 0.7993(3) 0.7181(6)
H6_2 H 0.334626 0.834027 0.697440
C18_2 C 0.2804(3) 0.7974(3) 0.7778(6)
H7_2 H 0.266575 0.831484 0.799140
C28_2 C 0.4173(3) 0.7006(3) 0.6060(5)
H17_2 H 0.401233 0.665797 0.618451
C29_2 C 0.4653(3) 0.7021(3) 0.5634(5)
H18_2 H 0.481476 0.668114 0.546543
C30_2 C 0.3218(3) 0.7007(3) 0.7181(6)
H19_2 H 0.334626 0.665973 0.697440
C31_2 C 0.2804(3) 0.7026(3) 0.7778(6)
H20_2 H 0.266575 0.668516 0.799140
O8_2 O 0.08064(19) 0.6897(2) 0.8920(4)
O9_2 O 0.1639(2) 0.6870(2) 0.8446(3)
C32_2 C 0.1099(3) 0.4343(3) 0.5934(4)
C33_2 C 0.1164(3) 0.6718(2) 0.8464(4)
C34_2 C 0.0724(3) 0.5344(3) 0.6825(4)
C35_2 C 0.1957(3) 0.3646(3) 0.5612(4)
C38_2 C 0.1016(3) 0.6240(2) 0.7853(4)
C39_2 C 0.2411(3) 0.3251(3) 0.5452(5)
C40_2 C 0.0118(3) 0.4333(3) 0.6912(4)
C41_2 C 0.1223(3) 0.4205(4) 0.5123(5)
H21_2 H 0.102207 0.434609 0.464969
C42_2 C 0.1653(4) 0.3852(4) 0.4978(5)
H22_2 H 0.173474 0.375219 0.439697
C43_2 C 0.1390(3) 0.5957(4) 0.7385(6)
H23_2 H 0.175262 0.606839 0.740419
C44_2 C 0.0356(3) 0.5645(4) 0.7234(7)
C45_2 C 0.0496(4) 0.6087(4) 0.7761(7)
H25_2 H 0.022648 0.628595 0.806211
C46_2 C 0.1235(3) 0.5502(4) 0.6875(6)
H26_2 H 0.149710 0.530187 0.655998
C47_2 C 0.1825(4) 0.3782(5) 0.6426(6)
H27_2 H 0.202322 0.363092 0.689426
C48_2 C 0.0203(4) 0.4319(5) 0.7779(6)
H28_2 H 0.045409 0.456484 0.803390
H29_2 H 0.001785 0.390543 0.889733
C51_2 C 0.1398(4) 0.4144(5) 0.6602(6)
H31_2 H 0.131934 0.424906 0.718215
Co8_2 Co 0.07295(6) 0.750000 0.98598(9)
O15_2 O 0.1639(2) 0.8130(2) 0.8446(3)
O20_2 O 0.2508(2) 0.8113(3) 0.9680(4)
Au1_4 Au 1.000000 0.500000 0.500000
P1_2 P 0.94921(7) 0.52439(6) 0.38192(10)
O1_2 O 0.91936(19) 0.3103(2) 0.1080(4)
O2_2 O 0.8361(2) 0.3130(2) 0.1554(3)
O4_2 O 0.7335(2) 0.6894(2) 0.3892(3)
O6_2 O 0.7508(2) 0.6887(3) 0.5320(4)
C2_2 C 0.8901(3) 0.5657(3) 0.4066(4)
C3_2 C 0.8836(3) 0.3282(2) 0.1536(4)
C4_2 C 0.9276(3) 0.4656(3) 0.3175(4)
C5_2 C 0.8043(3) 0.6354(3) 0.4388(4)
C8_2 C 0.8984(3) 0.3760(2) 0.2147(4)
C9_2 C 0.7589(3) 0.6749(3) 0.4548(5)
C10_2 C 0.9882(3) 0.5667(3) 0.3088(4)
C14_2 C 0.8777(3) 0.5795(4) 0.4877(5)
H3_2 H 0.897793 0.565391 0.535031
C15_2 C 0.8347(4) 0.6148(4) 0.5022(5)
H4_2 H 0.826526 0.624781 0.560303
C16_2 C 0.8610(3) 0.4043(4) 0.2615(6)
H5_2 H 0.824738 0.393161 0.259581
C19_2 C 0.9644(3) 0.4355(4) 0.2766(7)
C20_2 C 0.9504(4) 0.3913(4) 0.2239(7)
H9_2 H 0.977352 0.371405 0.193789
C21_2 C 0.8765(3) 0.4498(4) 0.3125(6)
H10_2 H 0.850290 0.469813 0.344002
C22_2 C 0.8175(4) 0.6218(5) 0.3574(6)
H11_2 H 0.797678 0.636908 0.310574
C23_2 C 0.9797(4) 0.5681(5) 0.2221(6)
H12_2 H 0.954591 0.543516 0.196610
H13_2 H 0.998215 0.609457 0.110267
C26_2 C 0.8602(4) 0.5856(5) 0.3398(6)
H15_2 H 0.868066 0.575094 0.281785
O14_2 O 0.91936(19) 0.1897(2) 0.1080(4)
O10_2 O 0.9421(2) 0.3116(3) 0.9239(4)
O12_2 O 0.8770(2) 0.3091(3) 0.8252(4)
C36_2 C 0.9522(3) 0.3630(3) 0.7982(4)
C37_2 C 0.9212(3) 0.3248(3) 0.8547(4)
H24_2 H 0.999080 0.555418 0.716185
C49_2 C 0.9923(4) 0.3942(5) 0.8304(6)
C50_2 C 0.9435(4) 0.3644(5) 0.7112(6)
H30_2 H 0.916627 0.341700 0.686446
C52_2 C 0.9739(4) 0.3992(5) 0.6578(6)
H32_2 H 0.967878 0.398895 0.596982
F2_2 F 0.8479(2) 0.250000 0.9888(3)
O16_2 O 0.9421(2) 0.1884(3) 0.9239(4)
O13_2 O 0.7492(2) 0.1887(3) 0.0320(4)
H21_3 H 0.602207 0.065391 0.035031
C42_3 C 0.6653(4) 0.1148(4) 0.0022(5)
H22_3 H 0.673474 0.124781 0.060303
Au2 Au 0.500000 0.000000 0.000000
O1_3 O 0.41936(19) 0.1897(2) 0.3920(4)
C3_3 C 0.3836(3) 0.1718(2) 0.3464(4)
C4_3 C 0.4276(3) 0.0344(3) 0.1825(4)
C8_3 C 0.3984(3) 0.1240(2) 0.2853(4)
C16_3 C 0.3610(3) 0.0957(4) 0.2385(6)
H5_3 H 0.324738 0.106839 0.240419
C19_3 C 0.4644(3) 0.0645(4) 0.2234(7)
H8_3 H 0.500920 0.055418 0.216185
C20_3 C 0.4504(4) 0.1087(4) 0.2761(7)
H9_3 H 0.477352 0.128595 0.306211
C21_3 C 0.3765(3) 0.0502(4) 0.1875(6)
H10_3 H 0.350290 0.030187 0.155998
P2 P 0.55079(7) 0.02439(6) 0.88192(10)
O10_3 O 0.4421(2) 0.1884(3) 0.5761(4)
O11_2 O 0.7665(2) 0.1894(2) 0.8892(3)
C32_3 C 0.6099(3) 0.0657(3) 0.9066(4)
C35_3 C 0.6957(3) 0.1354(3) 0.9388(4)
C36_3 C 0.4522(3) 0.1370(3) 0.7018(4)
C37_3 C 0.4212(3) 0.1752(3) 0.6453(4)
C39_3 C 0.7411(3) 0.1749(3) 0.9548(5)
C40_3 C 0.5118(3) 0.0667(3) 0.8088(4)
C41_3 C 0.6223(3) 0.0795(4) 0.9877(5)
C47_3 C 0.6825(4) 0.1218(5) 0.8574(6)
H27_3 H 0.702322 0.136908 0.810574
C48_3 C 0.5203(4) 0.0681(5) 0.7221(6)
H28_3 H 0.545409 0.043516 0.696610
C49_3 C 0.4923(4) 0.1058(5) 0.6696(6)
H29_3 H 0.501785 0.109457 0.610267
C50_3 C 0.4435(4) 0.1356(5) 0.7888(6)
H30_3 H 0.416627 0.158300 0.813554
C51_3 C 0.6398(4) 0.0856(5) 0.8398(6)
H31_3 H 0.631934 0.075094 0.781785
C52_3 C 0.4739(4) 0.1008(5) 0.8422(6)
H32_3 H 0.467878 0.101105 0.903018
Au2_2 Au 0.500000 0.000000 1.000000
N3_2 N 0.5100(3) 0.250000 0.4553(5)
Au2_3 Au 0.500000 1.000000 0.000000
P1_3 P 0.44921(7) 0.97561(6) 0.11808(10)
N1_3 N 0.7590(3) 0.750000 0.6932(5)
O5_3 O 0.6230(2) 0.8091(3) 0.3252(4)
O7_3 O 0.7037(3) 0.750000 0.2341(5)
N2_2 N 0.9900(3) 0.750000 0.9553(5)
C1_3 C 0.8918(4) 0.750000 0.8683(6)
C2_3 C 0.3901(3) 0.9343(3) 0.0934(4)
C5_3 C 0.3043(3) 0.8646(3) 0.0612(4)
C6_3 C 0.5478(3) 0.8630(3) 0.2982(4)
C7_3 C 0.5788(3) 0.8248(3) 0.3547(4)
C9_3 C 0.2589(3) 0.8251(3) 0.0452(5)
C10_3 C 0.4882(3) 0.9333(3) 0.1912(4)
C11_3 C 0.8442(4) 0.750000 0.8111(7)
C12_3 C 0.9173(3) 0.7006(3) 0.8940(5)
H1_3 H 0.901233 0.665797 0.881549
C13_3 C 0.9653(3) 0.7021(3) 0.9366(5)
H2_3 H 0.981476 0.668114 0.953457
C14_3 C 0.3777(3) 0.9205(4) 0.0123(5)
C17_3 C 0.8218(3) 0.7007(3) 0.7819(6)
H6_3 H 0.834626 0.665973 0.802560
C18_3 C 0.7804(3) 0.7026(3) 0.7222(6)
H7_3 H 0.766575 0.668516 0.700860
C22_3 C 0.3175(4) 0.8782(5) 0.1426(6)
H11_3 H 0.297678 0.863092 0.189426
C23_3 C 0.4797(4) 0.9319(5) 0.2779(6)
H12_3 H 0.454591 0.956484 0.303390
C24_3 C 0.5077(4) 0.8942(5) 0.3304(6)
H13_3 H 0.498215 0.890543 0.389733
C25_3 C 0.5565(4) 0.8644(5) 0.2112(6)
H14_3 H 0.583373 0.841700 0.186446
C26_3 C 0.3602(4) 0.9144(5) 0.1602(6)
H15_3 H 0.368066 0.924906 0.218215
C27_3 C 0.5261(4) 0.8992(5) 0.1578(6)
H16_3 H 0.532122 0.898895 0.096982
C28_3 C 0.9173(3) 0.7994(3) 0.8940(5)
H17_3 H 0.901233 0.834203 0.881549
C29_3 C 0.9653(3) 0.7979(3) 0.9366(5)
H18_3 H 0.981476 0.831886 0.953457
C30_3 C 0.8218(3) 0.7993(3) 0.7819(6)
H19_3 H 0.834626 0.834027 0.802560
C31_3 C 0.7804(3) 0.7974(3) 0.7222(6)
H20_3 H 0.766575 0.831484 0.700860
O9_3 O 0.6639(2) 0.8130(2) 0.6554(3)
C33_3 C 0.6164(3) 0.8282(2) 0.6536(4)
C34_3 C 0.5724(3) 0.9656(3) 0.8175(4)
C38_3 C 0.6016(3) 0.8760(2) 0.7147(4)
C43_3 C 0.6390(3) 0.9043(4) 0.7615(6)
H23_3 H 0.675262 0.893161 0.759581
C44_3 C 0.5356(3) 0.9355(4) 0.7766(7)
H24_3 H 0.499080 0.944582 0.783815
C45_3 C 0.5496(4) 0.8913(4) 0.7239(7)
H25_3 H 0.522648 0.871405 0.693789
C46_3 C 0.6235(3) 0.9498(4) 0.8125(6)
H26_3 H 0.649710 0.969813 0.844002
Au2_4 Au 0.500000 1.000000 1.000000
O18_2 O 0.7335(2) 0.8106(2) 0.3892(3)
O21_2 O 0.7508(2) 0.8113(3) 0.5320(4)
H3_3 H 0.397793 0.934609 0.964969
C15_3 C 0.3347(4) 0.8852(4) 0.9978(5)
H4_3 H 0.326526 0.875219 0.939697
H24_4 H 0.000920 0.055418 0.283815
Au2_5 Au -0.000000 0.000000 0.500000
P1_4 P 0.05079(7) 0.02439(6) 0.61808(10)
C2_4 C 0.1099(3) 0.0657(3) 0.5934(4)
C5_4 C 0.1957(3) 0.1354(3) 0.5612(4)
C9_4 C 0.2411(3) 0.1749(3) 0.5452(5)
C10_4 C 0.0118(3) 0.0667(3) 0.6912(4)
C14_4 C 0.1223(3) 0.0795(4) 0.5123(5)
H3_4 H 0.102207 0.065391 0.464969
C15_4 C 0.1653(4) 0.1148(4) 0.4978(5)
H4_4 H 0.173474 0.124781 0.439697
C22_4 C 0.1825(4) 0.1218(5) 0.6426(6)
H11_4 H 0.202322 0.136908 0.689426
C23_4 C 0.0203(4) 0.0681(5) 0.7779(6)
H12_4 H 0.045409 0.043516 0.803390
H13_4 H 0.001785 0.109457 0.889733
C26_4 C 0.1398(4) 0.0856(5) 0.6602(6)
H15_4 H 0.131934 0.075094 0.718215
O10_4 O 0.0579(2) 0.8116(3) 0.0761(4)
C36_4 C 0.0478(3) 0.8630(3) 0.2018(4)
C37_4 C 0.0788(3) 0.8248(3) 0.1453(4)
C49_4 C 0.0077(4) 0.8942(5) 0.1696(6)
C50_4 C 0.0565(4) 0.8644(5) 0.2888(6)
H30_4 H 0.083373 0.841700 0.313554
C52_4 C 0.0261(4) 0.8992(5) 0.3422(6)
H32_4 H 0.032122 0.898895 0.403018
Au2_6 Au -0.000000 1.000000 0.500000
O1_4 O 0.08064(19) 0.8103(2) 0.8920(4)
C3_4 C 0.1164(3) 0.8282(2) 0.8464(4)
C4_4 C 0.0724(3) 0.9656(3) 0.6825(4)
C8_4 C 0.1016(3) 0.8760(2) 0.7853(4)
C16_4 C 0.1390(3) 0.9043(4) 0.7385(6)
H5_4 H 0.175262 0.893161 0.740419
C19_4 C 0.0356(3) 0.9355(4) 0.7234(7)
C20_4 C 0.0496(4) 0.8913(4) 0.7761(7)
H9_4 H 0.022648 0.871405 0.806211
C21_4 C 0.1235(3) 0.9498(4) 0.6875(6)
H10_4 H 0.149710 0.969813 0.655998
N1_4 N 0.7410(3) 0.250000 0.1932(5)
C1_4 C 0.6082(4) 0.250000 0.3683(6)
C11_4 C 0.6558(4) 0.250000 0.3111(7)
C12_4 C 0.5827(3) 0.2994(3) 0.3940(5)
H1_4 H 0.598767 0.334203 0.381549
C13_4 C 0.5347(3) 0.2979(3) 0.4366(5)
H2_4 H 0.518524 0.331886 0.453457
C17_4 C 0.6782(3) 0.2993(3) 0.2819(6)
H6_4 H 0.665374 0.334027 0.302560
C18_4 C 0.7196(3) 0.2974(3) 0.2222(6)
H7_4 H 0.733425 0.331484 0.200860
C28_4 C 0.5827(3) 0.2006(3) 0.3940(5)
H17_4 H 0.598767 0.165797 0.381549
C29_4 C 0.5347(3) 0.2021(3) 0.4366(5)
H18_4 H 0.518524 0.168114 0.453457
C30_4 C 0.6782(3) 0.2007(3) 0.2819(6)
H19_4 H 0.665374 0.165973 0.302560
C31_4 C 0.7196(3) 0.2026(3) 0.2222(6)
H20_4 H 0.733425 0.168516 0.200860
O9_4 O 0.8361(2) 0.1870(2) 0.1554(3)
C33_4 C 0.8836(3) 0.1718(2) 0.1536(4)
C34_4 C 0.9276(3) 0.0344(3) 0.3175(4)
C38_4 C 0.8984(3) 0.1240(2) 0.2147(4)
C43_4 C 0.8610(3) 0.0957(4) 0.2615(6)
H23_4 H 0.824738 0.106839 0.259581
C44_4 C 0.9644(3) 0.0645(4) 0.2766(7)
C45_4 C 0.9504(4) 0.1087(4) 0.2239(7)
H25_4 H 0.977352 0.128595 0.193789
C46_4 C 0.8765(3) 0.0502(4) 0.3125(6)
H26_4 H 0.850290 0.030187 0.344002
Au2_7 Au 1.000000 0.000000 0.500000
O5_4 O 0.8770(2) 0.1909(3) 0.8252(4)
O7_4 O 0.7963(3) 0.250000 0.7341(5)
C6_4 C 0.9522(3) 0.1370(3) 0.7982(4)
C7_4 C 0.9212(3) 0.1752(3) 0.8547(4)
C24_4 C 0.9923(4) 0.1058(5) 0.8304(6)
C25_4 C 0.9435(4) 0.1356(5) 0.7112(6)
H14_4 H 0.916627 0.158300 0.686446
C27_4 C 0.9739(4) 0.1008(5) 0.6578(6)
H16_4 H 0.967878 0.101105 0.596982
P2_2 P 0.94921(7) 0.97561(6) 0.38192(10)
C32_4 C 0.8901(3) 0.9343(3) 0.4066(4)
C35_4 C 0.8043(3) 0.8646(3) 0.4388(4)
C39_4 C 0.7589(3) 0.8251(3) 0.4548(5)
C40_4 C 0.9882(3) 0.9333(3) 0.3088(4)
C41_4 C 0.8777(3) 0.9205(4) 0.4877(5)
H21_4 H 0.897793 0.934609 0.535031
C42_4 C 0.8347(4) 0.8852(4) 0.5022(5)
H22_4 H 0.826526 0.875219 0.560303
C47_4 C 0.8175(4) 0.8782(5) 0.3574(6)
H27_4 H 0.797678 0.863092 0.310574
C48_4 C 0.9797(4) 0.9319(5) 0.2221(6)
H28_4 H 0.954591 0.956484 0.196610
H29_4 H 0.998215 0.890543 0.110267
C51_4 C 0.8602(4) 0.9144(5) 0.3398(6)
H31_4 H 0.868066 0.924906 0.281785
Au2_8 Au 1.000000 1.000000 0.500000
H8_4 H 0.999080 0.944582 0.716185
loop_
_geom_bond_atom_site_label_1
_geom_bond_atom_site_label_2
_geom_bond_site_symmetry_1
_geom_bond_site_symmetry_2
H4 C15 1_555 1_555
Co6 O6 1_555 1_555
P3 Au1 1_555 1_555
Au1_2 P1 1_555 1_555
Co1 F1 1_555 1_555
Co2 O1 1_555 1_555
Co3 F1 1_555 1_555
P1 C2 1_555 1_555
F1 Co8 1_555 1_555
O1 C3 1_555 1_555
N1 Co1 1_555 1_555
O2 C3 1_555 1_555
O3 C7 1_555 1_555
O4 C9 1_555 1_555
O5 Co3 1_555 1_555
O7 Co3 1_555 1_555
N2 C13 1_555 1_555
C1 C11 1_555 1_555
C2 C14 1_555 1_555
C3 C8 1_555 1_555
C4 P1 1_555 1_555
C5 C9 1_555 1_555
C6 C7 1_555 1_555
C7 O5 1_555 1_555
C8 C16 1_555 1_555
C10 P1 1_555 1_555
C11 C17 1_555 1_555
C12 C1 1_555 1_555
H1 C12 1_555 1_555
C13 C12 1_555 1_555
H2 C13 1_555 1_555
C16 H5 1_555 1_555
C17 H6 1_555 1_555
C18 N1 1_555 1_555
H7 C18 1_555 1_555
C19 C4 1_555 1_555
H8 C19 1_555 1_555
C20 C8 1_555 1_555
H9 C20 1_555 1_555
C21 C4 1_555 1_555
H10 C21 1_555 1_555
C22 C5 1_555 1_555
H11 C22 1_555 1_555
C23 C10 1_555 1_555
H12 C23 1_555 1_555
C24 C6 1_555 1_555
H13 C24 1_555 1_555
C25 C6 1_555 1_555
H14 C25 1_555 1_555
C26 C2 1_555 1_555
H15 C26 1_555 1_555
C27 C10 1_555 1_555
H16 C27 1_555 1_555
C28 C1 1_555 1_555
H17 C28 1_555 1_555
C29 N2 1_555 1_555
H18 C29 1_555 1_555
C30 C11 1_555 1_555
H19 C30 1_555 1_555
C31 N1 1_555 1_555
H20 C31 1_555 1_555
P3 C32 1_555 1_555
O8 C33 1_555 1_555
O9 Co1 1_555 1_555
O10 Co2 1_555 1_555
O11 C39 1_555 1_555
O12 C37 1_555 1_555
C32 C41 1_555 1_555
C33 O9 1_555 1_555
C34 P3 1_555 1_555
C35 C39 1_555 1_555
C36 C37 1_555 1_555
C37 O10 1_555 1_555
C38 C33 1_555 1_555
C40 P3 1_555 1_555
C43 C38 1_555 1_555
H23 C43 1_555 1_555
C44 C34 1_555 1_555
H24 C44 1_555 1_555
C45 C38 1_555 1_555
H25 C45 1_555 1_555
C46 C34 1_555 1_555
H26 C46 1_555 1_555
C47 C35 1_555 1_555
H27 C47 1_555 1_555
C48 C40 1_555 1_555
H28 C48 1_555 1_555
C49 C36 1_555 1_555
H29 C49 1_555 1_555
C50 C36 1_555 1_555
H30 C50 1_555 1_555
C51 C32 1_555 1_555
H31 C51 1_555 1_555
C52 C40 1_555 1_555
H32 C52 1_555 1_555
Co5 O2 1_555 1_555
Co8 O3 1_555 1_555
Co9 O11 1_555 1_555
Co10 O12 1_555 1_555
Co11 O4 1_555 1_555
F2 Co2 1_555 1_555
O14 Co2 1_555 1_555
O15 Co1 1_555 1_555
O16 Co2 1_555 1_555
O17 Co3 1_555 1_555
O18 Co3 1_555 1_555
O19 Co3 1_555 1_555
O20 Co1 1_555 1_555
O21 Co1 1_555 1_555
N3 Co2 1_555 1_555
C16 C21 1_555 1_555
C17 C18 1_555 1_555
C19 C20 1_555 1_555
C22 C26 1_555 1_555
C23 C24 1_555 1_555
C25 C27 1_555 1_555
C28 C29 1_555 1_555
C30 C31 1_555 1_555
O8 Co8 1_555 1_555
C43 C46 1_555 1_555
C44 C45 1_555 1_555
C47 C51 1_555 1_555
C48 C49 1_555 1_555
C50 C52 1_555 1_555
Co5 F2 1_555 1_555
Co10 F2 1_555 1_555
H22 C42 1_555 1_555
Co4 O13 1_555 1_555
Co9 F1_2 1_555 1_555
O3_2 C7_2 1_555 1_555
O5_2 Co9 1_555 1_555
O7_2 Co9 1_555 1_555
C6_2 C7_2 1_555 1_555
C7_2 O5_2 1_555 1_555
C24_2 C6_2 1_555 1_555
C25_2 C6_2 1_555 1_555
H14_2 C25_2 1_555 1_555
H16_2 C27_2 1_555 1_555
P3_2 Au1_3 1_555 1_555
O17_2 Co9 1_555 1_555
O19_2 Co9 1_555 1_555
C25_2 C27_2 1_555 1_555
N1_2 Co4 1_555 1_555
N3 C13_2 1_555 1_555
C1_2 C11_2 1_555 1_555
C11_2 C17_2 1_555 1_555
C12_2 C1_2 1_555 1_555
H1_2 C12_2 1_555 1_555
C13_2 C12_2 1_555 1_555
H2_2 C13_2 1_555 1_555
C17_2 H6_2 1_555 1_555
C18_2 N1_2 1_555 1_555
H7_2 C18_2 1_555 1_555
C28_2 C1_2 1_555 1_555
H17_2 C28_2 1_555 1_555
C29_2 N3 1_555 1_555
H18_2 C29_2 1_555 1_555
C30_2 C11_2 1_555 1_555
H19_2 C30_2 1_555 1_555
C31_2 N1_2 1_555 1_555
H20_2 C31_2 1_555 1_555
P3_2 C32_2 1_555 1_555
O8_2 C33_2 1_555 1_555
O9_2 Co4 1_555 1_555
O18 C39_2 1_555 1_555
O21 C39_2 1_555 1_555
C32_2 C41_2 1_555 1_555
C33_2 O9_2 1_555 1_555
C34_2 P3_2 1_555 1_555
C35_2 C39_2 1_555 1_555
C38_2 C33_2 1_555 1_555
C40_2 P3_2 1_555 1_555
C41_2 H21_2 1_555 1_555
C42_2 C35_2 1_555 1_555
H22_2 C42_2 1_555 1_555
C43_2 C38_2 1_555 1_555
H23_2 C43_2 1_555 1_555
C44_2 C34_2 1_555 1_555
C45_2 C38_2 1_555 1_555
H25_2 C45_2 1_555 1_555
C46_2 C34_2 1_555 1_555
H26_2 C46_2 1_555 1_555
C47_2 C35_2 1_555 1_555
H27_2 C47_2 1_555 1_555
C48_2 C40_2 1_555 1_555
H28_2 C48_2 1_555 1_555
C51_2 C32_2 1_555 1_555
H31_2 C51_2 1_555 1_555
O15_2 Co4 1_555 1_555
O20_2 Co4 1_555 1_555
C17_2 C18_2 1_555 1_555
C28_2 C29_2 1_555 1_555
C30_2 C31_2 1_555 1_555
O8_2 Co8_2 1_555 1_555
C41_2 C42_2 1_555 1_555
C43_2 C46_2 1_555 1_555
C44_2 C45_2 1_555 1_555
C47_2 C51_2 1_555 1_555
Au1_4 P1_2 1_555 1_555
Co7 O1_2 1_555 1_555
P1_2 C2_2 1_555 1_555
O1_2 C3_2 1_555 1_555
O2_2 C3_2 1_555 1_555
O4_2 C9_2 1_555 1_555
O6_2 C9_2 1_555 1_555
C2_2 C14_2 1_555 1_555
C3_2 C8_2 1_555 1_555
C4_2 P1_2 1_555 1_555
C5_2 C9_2 1_555 1_555
C8_2 C16_2 1_555 1_555
C10_2 P1_2 1_555 1_555
C14_2 H3_2 1_555 1_555
C15_2 C5_2 1_555 1_555
H4_2 C15_2 1_555 1_555
C16_2 H5_2 1_555 1_555
C19_2 C4_2 1_555 1_555
C20_2 C8_2 1_555 1_555
H9_2 C20_2 1_555 1_555
C21_2 C4_2 1_555 1_555
H10_2 C21_2 1_555 1_555
C22_2 C5_2 1_555 1_555
H11_2 C22_2 1_555 1_555
C23_2 C10_2 1_555 1_555
H12_2 C23_2 1_555 1_555
C26_2 C2_2 1_555 1_555
H15_2 C26_2 1_555 1_555
Co6 O2_2 1_555 1_555
Co5 O6_2 1_555 1_555
Co10 O4_2 1_555 1_555
O14_2 Co7 1_555 1_555
C14_2 C15_2 1_555 1_555
C16_2 C21_2 1_555 1_555
C19_2 C20_2 1_555 1_555
C22_2 C26_2 1_555 1_555
O12_2 C37_2 1_555 1_555
C36_2 C37_2 1_555 1_555
C37_2 O10_2 1_555 1_555
C49_2 C36_2 1_555 1_555
C50_2 C36_2 1_555 1_555
H30_2 C50_2 1_555 1_555
H32_2 C52_2 1_555 1_555
Co11 O12_2 1_555 1_555
C50_2 C52_2 1_555 1_555
Co11 F2_2 1_555 1_555
H22_3 C42_3 1_555 1_555
Co6 O13_2 1_555 1_555
Co8 O1_3 1_555 1_555
O1_3 C3_3 1_555 1_555
O15 C3_3 1_555 1_555
C3_3 C8_3 1_555 1_555
C8_3 C16_3 1_555 1_555
C16_3 H5_3 1_555 1_555
C19_3 C4_3 1_555 1_555
H8_3 C19_3 1_555 1_555
C20_3 C8_3 1_555 1_555
H9_3 C20_3 1_555 1_555
C21_3 C4_3 1_555 1_555
H10_3 C21_3 1_555 1_555
P2 C32_3 1_555 1_555
O10_3 Co8 1_555 1_555
O11_2 C39_3 1_555 1_555
O19 C37_3 1_555 1_555
C32_3 C41_3 1_555 1_555
C35_3 C39_3 1_555 1_555
C36_3 C37_3 1_555 1_555
C37_3 O10_3 1_555 1_555
C40_3 P2 1_555 1_555
C47_3 C35_3 1_555 1_555
H27_3 C47_3 1_555 1_555
C48_3 C40_3 1_555 1_555
H28_3 C48_3 1_555 1_555
C49_3 C36_3 1_555 1_555
H29_3 C49_3 1_555 1_555
C50_3 C36_3 1_555 1_555
H30_3 C50_3 1_555 1_555
C51_3 C32_3 1_555 1_555
H31_3 C51_3 1_555 1_555
C52_3 C40_3 1_555 1_555
H32_3 C52_3 1_555 1_555
Au2_2 P2 1_555 1_555
Co11 O11_2 1_555 1_555
N3_2 Co8 1_555 1_555
C16_3 C21_3 1_555 1_555
C19_3 C20_3 1_555 1_555
C47_3 C51_3 1_555 1_555
C48_3 C49_3 1_555 1_555
C50_3 C52_3 1_555 1_555
Au2_3 P1_3 1_555 1_555
P1_3 C2_3 1_555 1_555
N1_3 Co5 1_555 1_555
O16 C7_3 1_555 1_555
O17_2 C9_3 1_555 1_555
O5_3 Co10 1_555 1_555
O7_3 Co10 1_555 1_555
N2_2 C13_3 1_555 1_555
C1_3 C11_3 1_555 1_555
C2_3 C14_3 1_555 1_555
C5_3 C9_3 1_555 1_555
C6_3 C7_3 1_555 1_555
C7_3 O5_3 1_555 1_555
C10_3 P1_3 1_555 1_555
C11_3 C17_3 1_555 1_555
C12_3 C1_3 1_555 1_555
H1_3 C12_3 1_555 1_555
C13_3 C12_3 1_555 1_555
H2_3 C13_3 1_555 1_555
C17_3 H6_3 1_555 1_555
C18_3 N1_3 1_555 1_555
H7_3 C18_3 1_555 1_555
C22_3 C5_3 1_555 1_555
H11_3 C22_3 1_555 1_555
C23_3 C10_3 1_555 1_555
H12_3 C23_3 1_555 1_555
C24_3 C6_3 1_555 1_555
H13_3 C24_3 1_555 1_555
C25_3 C6_3 1_555 1_555
H14_3 C25_3 1_555 1_555
C26_3 C2_3 1_555 1_555
H15_3 C26_3 1_555 1_555
C27_3 C10_3 1_555 1_555
H16_3 C27_3 1_555 1_555
C28_3 C1_3 1_555 1_555
H17_3 C28_3 1_555 1_555
C29_3 N2_2 1_555 1_555
H18_3 C29_3 1_555 1_555
C30_3 C11_3 1_555 1_555
H19_3 C30_3 1_555 1_555
C31_3 N1_3 1_555 1_555
H20_3 C31_3 1_555 1_555
O14 C33_3 1_555 1_555
O9_3 Co5 1_555 1_555
C33_3 O9_3 1_555 1_555
C38_3 C33_3 1_555 1_555
C43_3 C38_3 1_555 1_555
H23_3 C43_3 1_555 1_555
C44_3 C34_3 1_555 1_555
H24_3 C44_3 1_555 1_555
C45_3 C38_3 1_555 1_555
H25_3 C45_3 1_555 1_555
C46_3 C34_3 1_555 1_555
H26_3 C46_3 1_555 1_555
O18_2 Co10 1_555 1_555
O21_2 Co5 1_555 1_555
C17_3 C18_3 1_555 1_555
C22_3 C26_3 1_555 1_555
C23_3 C24_3 1_555 1_555
C25_3 C27_3 1_555 1_555
C28_3 C29_3 1_555 1_555
C30_3 C31_3 1_555 1_555
C43_3 C46_3 1_555 1_555
C44_3 C45_3 1_555 1_555
H4_3 C15_3 1_555 1_555
Au2_5 P1_4 1_555 1_555
P1_4 C2_4 1_555 1_555
O17 C9_4 1_555 1_555
O20 C9_4 1_555 1_555
C2_4 C14_4 1_555 1_555
C5_4 C9_4 1_555 1_555
C10_4 P1_4 1_555 1_555
C14_4 H3_4 1_555 1_555
C15_4 C5_4 1_555 1_555
H4_4 C15_4 1_555 1_555
C22_4 C5_4 1_555 1_555
H11_4 C22_4 1_555 1_555
C23_4 C10_4 1_555 1_555
H12_4 C23_4 1_555 1_555
C26_4 C2_4 1_555 1_555
H15_4 C26_4 1_555 1_555
C14_4 C15_4 1_555 1_555
C22_4 C26_4 1_555 1_555
O19_2 C37_4 1_555 1_555
C36_4 C37_4 1_555 1_555
C37_4 O10_4 1_555 1_555
C49_4 C36_4 1_555 1_555
C50_4 C36_4 1_555 1_555
H30_4 C50_4 1_555 1_555
H32_4 C52_4 1_555 1_555
C50_4 C52_4 1_555 1_555
Co8_2 O1_4 1_555 1_555
O1_4 C3_4 1_555 1_555
O15_2 C3_4 1_555 1_555
C3_4 C8_4 1_555 1_555
C8_4 C16_4 1_555 1_555
C16_4 H5_4 1_555 1_555
C19_4 C4_4 1_555 1_555
C20_4 C8_4 1_555 1_555
H9_4 C20_4 1_555 1_555
C21_4 C4_4 1_555 1_555
H10_4 C21_4 1_555 1_555
C16_4 C21_4 1_555 1_555
C19_4 C20_4 1_555 1_555
N1_4 Co6 1_555 1_555
N3_2 C13_4 1_555 1_555
C1_4 C11_4 1_555 1_555
C11_4 C17_4 1_555 1_555
C12_4 C1_4 1_555 1_555
H1_4 C12_4 1_555 1_555
C13_4 C12_4 1_555 1_555
H2_4 C13_4 1_555 1_555
C17_4 H6_4 1_555 1_555
C18_4 N1_4 1_555 1_555
H7_4 C18_4 1_555 1_555
C28_4 C1_4 1_555 1_555
H17_4 C28_4 1_555 1_555
C29_4 N3_2 1_555 1_555
H18_4 C29_4 1_555 1_555
C30_4 C11_4 1_555 1_555
H19_4 C30_4 1_555 1_555
C31_4 N1_4 1_555 1_555
H20_4 C31_4 1_555 1_555
O14_2 C33_4 1_555 1_555
O9_4 Co6 1_555 1_555
C33_4 O9_4 1_555 1_555
C38_4 C33_4 1_555 1_555
C43_4 C38_4 1_555 1_555
H23_4 C43_4 1_555 1_555
C44_4 C34_4 1_555 1_555
C45_4 C38_4 1_555 1_555
H25_4 C45_4 1_555 1_555
C46_4 C34_4 1_555 1_555
H26_4 C46_4 1_555 1_555
C17_4 C18_4 1_555 1_555
C28_4 C29_4 1_555 1_555
C30_4 C31_4 1_555 1_555
C43_4 C46_4 1_555 1_555
C44_4 C45_4 1_555 1_555
O16_2 C7_4 1_555 1_555
O5_4 Co11 1_555 1_555
O7_4 Co11 1_555 1_555
C6_4 C7_4 1_555 1_555
C7_4 O5_4 1_555 1_555
C24_4 C6_4 1_555 1_555
C25_4 C6_4 1_555 1_555
H14_4 C25_4 1_555 1_555
H16_4 C27_4 1_555 1_555
C25_4 C27_4 1_555 1_555
P2_2 C32_4 1_555 1_555
O18_2 C39_4 1_555 1_555
O21_2 C39_4 1_555 1_555
C32_4 C41_4 1_555 1_555
C35_4 C39_4 1_555 1_555
C40_4 P2_2 1_555 1_555
C41_4 H21_4 1_555 1_555
C42_4 C35_4 1_555 1_555
H22_4 C42_4 1_555 1_555
C47_4 C35_4 1_555 1_555
H27_4 C47_4 1_555 1_555
C48_4 C40_4 1_555 1_555
H28_4 C48_4 1_555 1_555
C51_4 C32_4 1_555 1_555
H31_4 C51_4 1_555 1_555
Au2_8 P2_2 1_555 1_555
C41_4 C42_4 1_555 1_555
C47_4 C51_4 1_555 1_555

#END
