
###############################################################################
#
# This file contains modified crystal structure data generated from the
# MOF subset of the Cambridge Structural Database (CSD) v543 
# hosted by the Cambridge Crystallographic Data Centre (CCDC).
#
# This work is licensed under the Creative Commons
# Attribution-NonCommercial-ShareAlike 4.0 International License.
# To view a copy of this license, visit
# http://creativecommons.org/licenses/by-nc-sa/4.0/
# or send a letter to
# Creative Commons, PO Box 1866, Mountain View, CA 94042, USA.
#
# CIF created using the CSD Python API on 29 September 2022
# The structure has been converted into the P1 space group
# The structure has a 3D framework
# The original CSD entry ABEFUL is in the tetragonal crystal system
# The framework has been calculated to contain at least 10.0% void space
# The void calculation uses a probe of radius 1.32A, grid spacing 0.4
# H atom positions have been added when not included in the experimental data
# Generated hydrogen atom positions removed from atoms on special positions
#
###############################################################################

data_ABEFUL
_chemical_formula_moiety         '(C116 H132 N12 O44 S12 Tb1 14+)n'
_symmetry_cell_setting           triclinic
_symmetry_space_group_name_H-M   'P 1'
_symmetry_Int_Tables_number      1
_space_group_name_Hall           'P 1'
loop_
_symmetry_equiv_pos_site_id
_symmetry_equiv_pos_as_xyz
1 x,y,z
_cell_length_a                   15.3873(6)
_cell_length_b                   15.3873(6)
_cell_length_c                   9.8379(8)
_cell_angle_alpha                90
_cell_angle_beta                 90
_cell_angle_gamma                90
_cell_volume                     2329.31
loop_
_atom_site_label
_atom_site_type_symbol
_atom_site_fract_x
_atom_site_fract_y
_atom_site_fract_z
Tb1 Tb 0.5000 0.5000 0.2500
S1 S 0.52674(6) 0.32096(6) 0.0000
N1 N 0.0299(2) 0.1297(2) 0.0000
C1 C 0.4250(2) 0.2685(2) 0.0000
C2 C 0.38697(19) 0.24501(17) 0.1222(3)
H1 H 0.4116 0.2627 0.2040
C3 C 0.31227(19) 0.19518(18) 0.1219(3)
H2 H 0.2876 0.1782 0.2040
C4 C 0.2735(2) 0.1700(2) 0.0000
C5 C 0.1915(2) 0.1179(2) 0.0000
C6 C 0.1127(3) 0.1644(2) 0.0000
C7 C 0.1058(2) 0.2580(2) 0.0000
H3 H 0.1516 0.2974 0.0000
C8 C 0.0207(3) 0.2774(3) 0.0000
O1 O 0.53184(13) 0.37360(14) 0.1223(3)
O2 O 0.58954(17) 0.25267(17) 0.0000
H12 H 0.3331 0.0028 0.0000
C27 C 0.1981(3) 0.0280(3) 0.0000
O13 O 0.46816(13) 0.62640(14) 0.1223(3)
O14 O 0.62640(14) 0.53184(13) 0.1223(3)
O15 O 0.37360(14) 0.46816(13) 0.1223(3)
O16 O 0.46816(13) 0.37360(14) 0.3777(3)
O17 O 0.53184(13) 0.62640(14) 0.3777(3)
O18 O 0.37360(14) 0.53184(13) 0.3777(3)
O19 O 0.62640(14) 0.46816(13) 0.3777(3)
S1_2 S 0.52674(6) 0.32096(6) 1.0000
N1_2 N 0.0299(2) 0.1297(2) 1.0000
C1_2 C 0.4250(2) 0.2685(2) 1.0000
C4_2 C 0.2735(2) 0.1700(2) 1.0000
C5_2 C 0.1915(2) 0.1179(2) 1.0000
C6_2 C 0.1127(3) 0.1644(2) 1.0000
C7_2 C 0.1058(2) 0.2580(2) 1.0000
H3_2 H 0.1516 0.2974 1.0000
C8_2 C 0.0207(3) 0.2774(3) 1.0000
O2_2 O 0.58954(17) 0.25267(17) 1.0000
H12_2 H 0.3331 0.0028 1.0000
C27_2 C 0.1981(3) 0.0280(3) 1.0000
C28 C 0.38697(19) 0.24501(17) 0.8778(3)
H13 H 0.4116 0.2627 0.7960
C29 C 0.31227(19) 0.19518(18) 0.8781(3)
H14 H 0.2876 0.1782 0.7960
O7 O 0.53184(13) 0.37360(14) 0.8777(3)
Tb8 Tb 0.5000 0.5000 0.7500
S3 S 0.32096(6) 0.47326(6) 0.0000
N3 N 0.1297(2) 0.9701(2) 0.0000
C19 C 0.2685(2) 0.5750(2) 0.0000
C20 C 0.24501(17) 0.61303(19) 0.1222(3)
H9 H 0.2627 0.5884 0.2040
C21 C 0.19518(18) 0.68773(19) 0.1219(3)
H10 H 0.1782 0.7124 0.2040
C22 C 0.1700(2) 0.7265(2) 0.0000
C23 C 0.1179(2) 0.8085(2) 0.0000
C24 C 0.1644(2) 0.8873(3) 0.0000
C25 C 0.2580(2) 0.8942(2) 0.0000
H11 H 0.2974 0.8484 0.0000
C26 C 0.2774(3) 0.9793(3) 0.0000
O6 O 0.25267(17) 0.41046(17) 0.0000
H22 H 0.0028 0.6669 0.0000
C42 C 0.0280(3) 0.8019(3) 0.0000
H25 H 0.0655611 0.985507 0
S3_2 S 0.32096(6) 0.47326(6) 1.0000
N3_2 N 0.1297(2) 0.9701(2) 1.0000
C19_2 C 0.2685(2) 0.5750(2) 1.0000
C22_2 C 0.1700(2) 0.7265(2) 1.0000
C23_2 C 0.1179(2) 0.8085(2) 1.0000
C24_2 C 0.1644(2) 0.8873(3) 1.0000
C25_2 C 0.2580(2) 0.8942(2) 1.0000
H11_2 H 0.2974 0.8484 1.0000
C26_2 C 0.2774(3) 0.9793(3) 1.0000
O6_2 O 0.25267(17) 0.41046(17) 1.0000
C30 C 0.24501(17) 0.61303(19) 0.8778(3)
H15 H 0.2627 0.5884 0.7960
C31 C 0.19518(18) 0.68773(19) 0.8781(3)
H16 H 0.1782 0.7124 0.7960
O8 O 0.37360(14) 0.46816(13) 0.8777(3)
H22_2 H 0.0028 0.6669 1.0000
C42_2 C 0.0280(3) 0.8019(3) 1.0000
H25_2 H 0.0655611 0.985507 1
H4 H 0.9972 0.3331 0.0000
C9 C 0.9720(3) 0.1981(3) 0.0000
S2 S 0.67904(6) 0.52674(6) 0.0000
N2 N 0.8703(2) 0.0299(2) 0.0000
C10 C 0.7315(2) 0.4250(2) 0.0000
C11 C 0.75499(17) 0.38697(19) 0.1222(3)
H5 H 0.7373 0.4116 0.2040
C12 C 0.80482(18) 0.31227(19) 0.1219(3)
H6 H 0.8218 0.2876 0.2040
C13 C 0.8300(2) 0.2735(2) 0.0000
C14 C 0.8821(2) 0.1915(2) 0.0000
C15 C 0.8356(2) 0.1127(3) 0.0000
C16 C 0.7420(2) 0.1058(2) 0.0000
H7 H 0.7026 0.1516 0.0000
C17 C 0.7226(3) 0.0207(3) 0.0000
O4 O 0.74733(17) 0.58954(17) 0.0000
H26 H 0.934439 0.0144929 0
H4_2 H 0.9972 0.3331 1.0000
C9_2 C 0.9720(3) 0.1981(3) 1.0000
S2_2 S 0.67904(6) 0.52674(6) 1.0000
N2_2 N 0.8703(2) 0.0299(2) 1.0000
C10_2 C 0.7315(2) 0.4250(2) 1.0000
C13_2 C 0.8300(2) 0.2735(2) 1.0000
C14_2 C 0.8821(2) 0.1915(2) 1.0000
C15_2 C 0.8356(2) 0.1127(3) 1.0000
C16_2 C 0.7420(2) 0.1058(2) 1.0000
H7_2 H 0.7026 0.1516 1.0000
C17_2 C 0.7226(3) 0.0207(3) 1.0000
O4_2 O 0.74733(17) 0.58954(17) 1.0000
C32 C 0.75499(17) 0.38697(19) 0.8778(3)
H17 H 0.7373 0.4116 0.7960
C33 C 0.80482(18) 0.31227(19) 0.8781(3)
H18 H 0.8218 0.2876 0.7960
O9 O 0.62640(14) 0.53184(13) 0.8777(3)
H26_2 H 0.934439 0.0144929 1
H8 H 0.6669 0.9972 0.0000
C18 C 0.8019(3) 0.9720(3) 0.0000
S4 S 0.47326(6) 0.67904(6) 0.0000
N4 N 0.9701(2) 0.8703(2) 0.0000
C34 C 0.5750(2) 0.7315(2) 0.0000
C35 C 0.61303(19) 0.75499(17) 0.1222(3)
H19 H 0.5884 0.7373 0.2040
C36 C 0.68773(19) 0.80482(18) 0.1219(3)
H20 H 0.7124 0.8218 0.2040
C37 C 0.7265(2) 0.8300(2) 0.0000
C38 C 0.8085(2) 0.8821(2) 0.0000
C39 C 0.8873(3) 0.8356(2) 0.0000
C40 C 0.8942(2) 0.7420(2) 0.0000
H21 H 0.8484 0.7026 0.0000
C41 C 0.9793(3) 0.7226(3) 0.0000
O11 O 0.41046(17) 0.74733(17) 0.0000
H8_2 H 0.6669 0.9972 1.0000
C18_2 C 0.8019(3) 0.9720(3) 1.0000
S4_2 S 0.47326(6) 0.67904(6) 1.0000
N4_2 N 0.9701(2) 0.8703(2) 1.0000
C34_2 C 0.5750(2) 0.7315(2) 1.0000
C37_2 C 0.7265(2) 0.8300(2) 1.0000
C38_2 C 0.8085(2) 0.8821(2) 1.0000
C39_2 C 0.8873(3) 0.8356(2) 1.0000
C40_2 C 0.8942(2) 0.7420(2) 1.0000
H21_2 H 0.8484 0.7026 1.0000
C41_2 C 0.9793(3) 0.7226(3) 1.0000
O11_2 O 0.41046(17) 0.74733(17) 1.0000
C43 C 0.61303(19) 0.75499(17) 0.8778(3)
H23 H 0.5884 0.7373 0.7960
C44 C 0.68773(19) 0.80482(18) 0.8781(3)
H24 H 0.7124 0.8218 0.7960
O12 O 0.46816(13) 0.62640(14) 0.8777(3)
H25_3 H 0.0144929 0.0655611 0
H25_4 H 0.0144929 0.0655611 1
H26_3 H 0.985507 0.934439 0
H26_4 H 0.985507 0.934439 1
H4_3 H 0.0028 0.3331 0.5000
C9_3 C 0.0280(3) 0.1981(3) 0.5000
S2_3 S 0.32096(6) 0.52674(6) 0.5000
N2_3 N 0.1297(2) 0.0299(2) 0.5000
C10_3 C 0.2685(2) 0.4250(2) 0.5000
C11_2 C 0.24501(17) 0.38697(19) 0.3778(3)
H5_2 H 0.2627 0.4116 0.2960
C12_2 C 0.19518(18) 0.31227(19) 0.3781(3)
H6_2 H 0.1782 0.2876 0.2960
C13_3 C 0.1700(2) 0.2735(2) 0.5000
C14_3 C 0.1179(2) 0.1915(2) 0.5000
C15_3 C 0.1644(2) 0.1127(3) 0.5000
C16_3 C 0.2580(2) 0.1058(2) 0.5000
H7_3 H 0.2974 0.1516 0.5000
C17_3 C 0.2774(3) 0.0207(3) 0.5000
O4_3 O 0.25267(17) 0.58954(17) 0.5000
C32_2 C 0.24501(17) 0.38697(19) 0.6222(3)
H17_2 H 0.2627 0.4116 0.7040
C33_2 C 0.19518(18) 0.31227(19) 0.6219(3)
H18_2 H 0.1782 0.2876 0.7040
O9_2 O 0.37360(14) 0.53184(13) 0.6223(3)
H26_5 H 0.0655611 0.0144929 0.5
H8_3 H 0.3331 0.9972 0.5000
C18_3 C 0.1981(3) 0.9720(3) 0.5000
S4_3 S 0.52674(6) 0.67904(6) 0.5000
N4_3 N 0.0299(2) 0.8703(2) 0.5000
C34_3 C 0.4250(2) 0.7315(2) 0.5000
C35_2 C 0.38697(19) 0.75499(17) 0.3778(3)
H19_2 H 0.4116 0.7373 0.2960
C36_2 C 0.31227(19) 0.80482(18) 0.3781(3)
H20_2 H 0.2876 0.8218 0.2960
C37_3 C 0.2735(2) 0.8300(2) 0.5000
C38_3 C 0.1915(2) 0.8821(2) 0.5000
C39_3 C 0.1127(3) 0.8356(2) 0.5000
C40_3 C 0.1058(2) 0.7420(2) 0.5000
H21_3 H 0.1516 0.7026 0.5000
C41_3 C 0.0207(3) 0.7226(3) 0.5000
O11_3 O 0.58954(17) 0.74733(17) 0.5000
C43_2 C 0.38697(19) 0.75499(17) 0.6222(3)
H23_2 H 0.4116 0.7373 0.7040
C44_2 C 0.31227(19) 0.80482(18) 0.6219(3)
H24_2 H 0.2876 0.8218 0.7040
O12_2 O 0.53184(13) 0.62640(14) 0.6223(3)
S1_3 S 0.47326(6) 0.32096(6) 0.5000
N1_3 N 0.9701(2) 0.1297(2) 0.5000
C1_3 C 0.5750(2) 0.2685(2) 0.5000
C2_2 C 0.61303(19) 0.24501(17) 0.3778(3)
H1_2 H 0.5884 0.2627 0.2960
C3_2 C 0.68773(19) 0.19518(18) 0.3781(3)
H2_2 H 0.7124 0.1782 0.2960
C4_3 C 0.7265(2) 0.1700(2) 0.5000
C5_3 C 0.8085(2) 0.1179(2) 0.5000
C6_3 C 0.8873(3) 0.1644(2) 0.5000
C7_3 C 0.8942(2) 0.2580(2) 0.5000
H3_3 H 0.8484 0.2974 0.5000
C8_3 C 0.9793(3) 0.2774(3) 0.5000
O2_3 O 0.41046(17) 0.25267(17) 0.5000
H12_3 H 0.6669 0.0028 0.5000
C27_3 C 0.8019(3) 0.0280(3) 0.5000
C28_2 C 0.61303(19) 0.24501(17) 0.6222(3)
H13_2 H 0.5884 0.2627 0.7040
C29_2 C 0.68773(19) 0.19518(18) 0.6219(3)
H14_2 H 0.7124 0.1782 0.7040
O7_2 O 0.46816(13) 0.37360(14) 0.6223(3)
S3_3 S 0.67904(6) 0.47326(6) 0.5000
N3_3 N 0.8703(2) 0.9701(2) 0.5000
C19_3 C 0.7315(2) 0.5750(2) 0.5000
C20_2 C 0.75499(17) 0.61303(19) 0.3778(3)
H9_2 H 0.7373 0.5884 0.2960
C21_2 C 0.80482(18) 0.68773(19) 0.3781(3)
H10_2 H 0.8218 0.7124 0.2960
C22_3 C 0.8300(2) 0.7265(2) 0.5000
C23_3 C 0.8821(2) 0.8085(2) 0.5000
C24_3 C 0.8356(2) 0.8873(3) 0.5000
C25_3 C 0.7420(2) 0.8942(2) 0.5000
H11_3 H 0.7026 0.8484 0.5000
C26_3 C 0.7226(3) 0.9793(3) 0.5000
O6_3 O 0.74733(17) 0.41046(17) 0.5000
C30_2 C 0.75499(17) 0.61303(19) 0.6222(3)
H15_2 H 0.7373 0.5884 0.7040
C31_2 C 0.80482(18) 0.68773(19) 0.6219(3)
H16_2 H 0.8218 0.7124 0.7040
O8_2 O 0.62640(14) 0.46816(13) 0.6223(3)
H22_3 H 0.9972 0.6669 0.5000
C42_3 C 0.9720(3) 0.8019(3) 0.5000
H25_5 H 0.934439 0.985507 0.5
H26_6 H 0.0144929 0.934439 0.5
H25_6 H 0.985507 0.0655611 0.5
O20 O 0.0000 0.0000 0.0775(10)
O20_2 O 0.0000 1.0000 0.0775(10)
O20_3 O 1.0000 0.0000 0.0775(10)
O20_4 O 1.0000 1.0000 0.0775(10)
O20_5 O 0.0000 0.0000 0.4225(10)
O20_6 O 0.0000 1.0000 0.4225(10)
O20_7 O 1.0000 0.0000 0.4225(10)
O20_8 O 1.0000 1.0000 0.4225(10)
O20_9 O 0.0000 0.0000 0.9225(10)
O20_10 O 0.0000 1.0000 0.9225(10)
O20_11 O 1.0000 0.0000 0.9225(10)
O20_12 O 1.0000 1.0000 0.9225(10)
O20_13 O 0.0000 0.0000 0.5775(10)
O20_14 O 0.0000 1.0000 0.5775(10)
O20_15 O 1.0000 0.0000 0.5775(10)
O20_16 O 1.0000 1.0000 0.5775(10)
loop_
_geom_bond_atom_site_label_1
_geom_bond_atom_site_label_2
_geom_bond_site_symmetry_1
_geom_bond_site_symmetry_2
Tb1 O1 1_555 1_555
S1 C1 1_555 1_555
N1 C6 1_555 1_555
C1 C2 1_555 1_555
C2 H1 1_555 1_555
C3 C2 1_555 1_555
H2 C3 1_555 1_555
C4 C3 1_555 1_555
C5 C4 1_555 1_555
C6 C5 1_555 1_555
C7 C6 1_555 1_555
H3 C7 1_555 1_555
C8 C7 1_555 1_555
O1 S1 1_555 1_555
O2 S1 1_555 1_555
C27 C5 1_555 1_555
O13 Tb1 1_555 1_555
O14 Tb1 1_555 1_555
O15 Tb1 1_555 1_555
O16 Tb1 1_555 1_555
O17 Tb1 1_555 1_555
O18 Tb1 1_555 1_555
O19 Tb1 1_555 1_555
S1_2 C1_2 1_555 1_555
N1_2 C6_2 1_555 1_555
C5_2 C4_2 1_555 1_555
C6_2 C5_2 1_555 1_555
C7_2 C6_2 1_555 1_555
H3_2 C7_2 1_555 1_555
C8_2 C7_2 1_555 1_555
O2_2 S1_2 1_555 1_555
C27_2 C5_2 1_555 1_555
C28 C1_2 1_555 1_555
H13 C28 1_555 1_555
C29 C4_2 1_555 1_555
H14 C29 1_555 1_555
O7 S1_2 1_555 1_555
Tb8 O7 1_555 1_555
C28 C29 1_555 1_555
S3 C19 1_555 1_555
N3 C24 1_555 1_555
C19 C20 1_555 1_555
C20 H9 1_555 1_555
C21 C20 1_555 1_555
H10 C21 1_555 1_555
C22 C21 1_555 1_555
C23 C22 1_555 1_555
C24 C23 1_555 1_555
C25 C24 1_555 1_555
H11 C25 1_555 1_555
C26 C25 1_555 1_555
O15 S3 1_555 1_555
O6 S3 1_555 1_555
C42 C23 1_555 1_555
N3 H25 1_555 1_555
S3_2 C19_2 1_555 1_555
N3_2 C24_2 1_555 1_555
C23_2 C22_2 1_555 1_555
C24_2 C23_2 1_555 1_555
C25_2 C24_2 1_555 1_555
H11_2 C25_2 1_555 1_555
C26_2 C25_2 1_555 1_555
O6_2 S3_2 1_555 1_555
C30 C19_2 1_555 1_555
H15 C30 1_555 1_555
C31 C22_2 1_555 1_555
H16 C31 1_555 1_555
O8 S3_2 1_555 1_555
C42_2 C23_2 1_555 1_555
Tb8 O8 1_555 1_555
C30 C31 1_555 1_555
N3_2 H25_2 1_555 1_555
S2 C10 1_555 1_555
N2 C15 1_555 1_555
C10 C11 1_555 1_555
C11 H5 1_555 1_555
C12 C11 1_555 1_555
H6 C12 1_555 1_555
C13 C12 1_555 1_555
C14 C9 1_555 1_555
C15 C14 1_555 1_555
C16 C15 1_555 1_555
H7 C16 1_555 1_555
C17 C16 1_555 1_555
O14 S2 1_555 1_555
O4 S2 1_555 1_555
C13 C14 1_555 1_555
N2 H26 1_555 1_555
S2_2 C10_2 1_555 1_555
N2_2 C15_2 1_555 1_555
C14_2 C9_2 1_555 1_555
C15_2 C14_2 1_555 1_555
C16_2 C15_2 1_555 1_555
H7_2 C16_2 1_555 1_555
C17_2 C16_2 1_555 1_555
O4_2 S2_2 1_555 1_555
C32 C10_2 1_555 1_555
H17 C32 1_555 1_555
C33 C13_2 1_555 1_555
H18 C33 1_555 1_555
O9 S2_2 1_555 1_555
Tb8 O9 1_555 1_555
C13_2 C14_2 1_555 1_555
C32 C33 1_555 1_555
N2_2 H26_2 1_555 1_555
S4 C34 1_555 1_555
N4 C39 1_555 1_555
C34 C35 1_555 1_555
C35 H19 1_555 1_555
C36 C35 1_555 1_555
H20 C36 1_555 1_555
C37 C36 1_555 1_555
C38 C18 1_555 1_555
C39 C38 1_555 1_555
C40 C39 1_555 1_555
H21 C40 1_555 1_555
C41 C40 1_555 1_555
O13 S4 1_555 1_555
O11 S4 1_555 1_555
C37 C38 1_555 1_555
S4_2 C34_2 1_555 1_555
N4_2 C39_2 1_555 1_555
C38_2 C18_2 1_555 1_555
C39_2 C38_2 1_555 1_555
C40_2 C39_2 1_555 1_555
H21_2 C40_2 1_555 1_555
C41_2 C40_2 1_555 1_555
O11_2 S4_2 1_555 1_555
C43 C34_2 1_555 1_555
H23 C43 1_555 1_555
C44 C37_2 1_555 1_555
H24 C44 1_555 1_555
O12 S4_2 1_555 1_555
Tb8 O12 1_555 1_555
C37_2 C38_2 1_555 1_555
C43 C44 1_555 1_555
N1 H25_3 1_555 1_555
N1_2 H25_4 1_555 1_555
N4 H26_3 1_555 1_555
N4_2 H26_4 1_555 1_555
S2_3 C10_3 1_555 1_555
N2_3 C15_3 1_555 1_555
C10_3 C11_2 1_555 1_555
C11_2 H5_2 1_555 1_555
C12_2 C11_2 1_555 1_555
H6_2 C12_2 1_555 1_555
C13_3 C12_2 1_555 1_555
C14_3 C9_3 1_555 1_555
C15_3 C14_3 1_555 1_555
C16_3 C15_3 1_555 1_555
H7_3 C16_3 1_555 1_555
C17_3 C16_3 1_555 1_555
O18 S2_3 1_555 1_555
O4_3 S2_3 1_555 1_555
C32_2 C10_3 1_555 1_555
H17_2 C32_2 1_555 1_555
C33_2 C13_3 1_555 1_555
H18_2 C33_2 1_555 1_555
O9_2 S2_3 1_555 1_555
Tb8 O9_2 1_555 1_555
C13_3 C14_3 1_555 1_555
C32_2 C33_2 1_555 1_555
N2_3 H26_5 1_555 1_555
S4_3 C34_3 1_555 1_555
N4_3 C39_3 1_555 1_555
C34_3 C35_2 1_555 1_555
C35_2 H19_2 1_555 1_555
C36_2 C35_2 1_555 1_555
H20_2 C36_2 1_555 1_555
C37_3 C36_2 1_555 1_555
C38_3 C18_3 1_555 1_555
C39_3 C38_3 1_555 1_555
C40_3 C39_3 1_555 1_555
H21_3 C40_3 1_555 1_555
C41_3 C40_3 1_555 1_555
O17 S4_3 1_555 1_555
O11_3 S4_3 1_555 1_555
C43_2 C34_3 1_555 1_555
H23_2 C43_2 1_555 1_555
C44_2 C37_3 1_555 1_555
H24_2 C44_2 1_555 1_555
O12_2 S4_3 1_555 1_555
Tb8 O12_2 1_555 1_555
C37_3 C38_3 1_555 1_555
C43_2 C44_2 1_555 1_555
S1_3 C1_3 1_555 1_555
N1_3 C6_3 1_555 1_555
C1_3 C2_2 1_555 1_555
C2_2 H1_2 1_555 1_555
C3_2 C2_2 1_555 1_555
H2_2 C3_2 1_555 1_555
C4_3 C3_2 1_555 1_555
C5_3 C4_3 1_555 1_555
C6_3 C5_3 1_555 1_555
C7_3 C6_3 1_555 1_555
H3_3 C7_3 1_555 1_555
C8_3 C7_3 1_555 1_555
O16 S1_3 1_555 1_555
O2_3 S1_3 1_555 1_555
C27_3 C5_3 1_555 1_555
C28_2 C1_3 1_555 1_555
H13_2 C28_2 1_555 1_555
C29_2 C4_3 1_555 1_555
H14_2 C29_2 1_555 1_555
O7_2 S1_3 1_555 1_555
Tb8 O7_2 1_555 1_555
C28_2 C29_2 1_555 1_555
S3_3 C19_3 1_555 1_555
N3_3 C24_3 1_555 1_555
C19_3 C20_2 1_555 1_555
C20_2 H9_2 1_555 1_555
C21_2 C20_2 1_555 1_555
H10_2 C21_2 1_555 1_555
C22_3 C21_2 1_555 1_555
C23_3 C22_3 1_555 1_555
C24_3 C23_3 1_555 1_555
C25_3 C24_3 1_555 1_555
H11_3 C25_3 1_555 1_555
C26_3 C25_3 1_555 1_555
O19 S3_3 1_555 1_555
O6_3 S3_3 1_555 1_555
C30_2 C19_3 1_555 1_555
H15_2 C30_2 1_555 1_555
C31_2 C22_3 1_555 1_555
H16_2 C31_2 1_555 1_555
O8_2 S3_3 1_555 1_555
C42_3 C23_3 1_555 1_555
Tb8 O8_2 1_555 1_555
C30_2 C31_2 1_555 1_555
N3_3 H25_5 1_555 1_555
N4_3 H26_6 1_555 1_555
N1_3 H25_6 1_555 1_555

#END
