
###############################################################################
#
# This file contains modified crystal structure data generated from the
# MOF subset of the Cambridge Structural Database (CSD) v543 
# hosted by the Cambridge Crystallographic Data Centre (CCDC).
#
# This work is licensed under the Creative Commons
# Attribution-NonCommercial-ShareAlike 4.0 International License.
# To view a copy of this license, visit
# http://creativecommons.org/licenses/by-nc-sa/4.0/
# or send a letter to
# Creative Commons, PO Box 1866, Mountain View, CA 94042, USA.
#
# CIF created using the CSD Python API on 29 September 2022
# The structure has been converted into the P1 space group
# The structure has a 3D framework
# The original CSD entry ABELOM is in the orthorhombic crystal system
# The framework has been calculated to contain at least 10.0% void space
# The void calculation uses a probe of radius 1.32A, grid spacing 0.4
#
###############################################################################

data_ABELOM
_chemical_formula_moiety         '(C548 H384 Cu28 I20 N48)n'
_symmetry_cell_setting           triclinic
_symmetry_space_group_name_H-M   'P 1'
_symmetry_Int_Tables_number      1
_space_group_name_Hall           'P 1'
loop_
_symmetry_equiv_pos_site_id
_symmetry_equiv_pos_as_xyz
1 x,y,z
_cell_length_a                   25.1612(11)
_cell_length_b                   28.4889(12)
_cell_length_c                   26.7526(10)
_cell_angle_alpha                90
_cell_angle_beta                 90
_cell_angle_gamma                90
_cell_volume                     19176.7
loop_
_atom_site_label
_atom_site_type_symbol
_atom_site_fract_x
_atom_site_fract_y
_atom_site_fract_z
C35 C 0.500000 0.000000 0.750000
N6 N 0.6407(5) 0.1974(4) 0.9165(5)
C58 C 0.6120(6) 0.1653(5) 0.8909(6)
C59 C 0.6933(7) 0.1949(6) 0.9133(8)
H41 H 0.574499 0.165320 0.895126
C60 C 0.6341(6) 0.1322(5) 0.8589(6)
H42 H 0.713582 0.216692 0.932275
C61 C 0.7193(7) 0.1644(6) 0.8856(8)
C62 C 0.6003(6) 0.0993(5) 0.8314(5)
C63 C 0.6906(7) 0.1332(7) 0.8556(8)
H43 H 0.757005 0.163503 0.885964
C64 C 0.5547(6) 0.0809(5) 0.8532(5)
C65 C 0.6125(5) 0.0852(5) 0.7841(5)
H44 H 0.708636 0.112870 0.833167
H45 H 0.545181 0.090278 0.886114
C66 C 0.5226(5) 0.0491(4) 0.8277(5)
H46 H 0.643495 0.097063 0.768213
C67 C 0.5795(5) 0.0531(5) 0.7586(5)
C68 C 0.5353(5) 0.0335(4) 0.7811(4)
H47 H 0.490997 0.038052 0.843232
H48 H 0.587817 0.044796 0.725077
N8 N 0.3593(5) 0.1974(4) 0.5835(5)
C80 C 0.3880(6) 0.1653(5) 0.6091(6)
C81 C 0.3067(7) 0.1949(6) 0.5867(8)
H57 H 0.425501 0.165320 0.604874
C82 C 0.3659(6) 0.1322(5) 0.6411(6)
H58 H 0.286418 0.216692 0.567725
C83 C 0.2807(7) 0.1644(6) 0.6144(8)
C84 C 0.3997(6) 0.0993(5) 0.6686(5)
C85 C 0.3094(7) 0.1332(7) 0.6444(8)
H59 H 0.242995 0.163503 0.614036
C86 C 0.4453(6) 0.0809(5) 0.6468(5)
C87 C 0.3875(5) 0.0852(5) 0.7159(5)
H60 H 0.291364 0.112870 0.666833
H61 H 0.454819 0.090278 0.613886
C88 C 0.4774(5) 0.0491(4) 0.6723(5)
H62 H 0.356505 0.097063 0.731787
C89 C 0.4205(5) 0.0531(5) 0.7414(5)
C90 C 0.4647(5) 0.0335(4) 0.7189(4)
H63 H 0.509003 0.038052 0.656768
H64 H 0.412183 0.044796 0.774923
Cu9 Cu 0.60055(8) 0.25173(6) 0.95123(7)
Cu11 Cu 0.39945(8) 0.25173(6) 0.54877(7)
I2 I 0.32982(6) 0.69582(5) 0.000000
I3 I 0.48254(7) 0.77927(7) 0.000000
Cu8 Cu 0.03080(10) 0.46417(10) 0.000000
Cu13 Cu 0.39945(8) 0.74827(6) 0.04877(7)
I1 I 0.07278(5) 0.45157(5) 0.500000
Cu1 Cu 0.03080(10) 0.53583(10) 0.500000
N1 N 0.0616(5) 0.5747(5) 0.5582(4)
C1 C 0.1040(5) 0.5580(5) 0.5857(5)
C2 C 0.0459(7) 0.6199(6) 0.5669(6)
C3 C 0.1282(5) 0.5853(5) 0.6215(5)
H1 H 0.116833 0.527136 0.579697
H2 H 0.017230 0.632025 0.547708
C4 C 0.0687(7) 0.6484(6) 0.6012(6)
C5 C 0.1711(6) 0.5645(5) 0.6507(5)
C6 C 0.1111(7) 0.6306(6) 0.6296(6)
H3 H 0.056311 0.679574 0.605938
C7 C 0.1737(5) 0.5159(5) 0.6599(5)
C8 C 0.2126(6) 0.5912(5) 0.6727(6)
H4 H 0.127790 0.649605 0.654199
H5 H 0.148709 0.495495 0.644447
C9 C 0.2121(5) 0.4974(5) 0.6913(5)
H6 H 0.213691 0.624031 0.666394
C10 C 0.2510(5) 0.5723(5) 0.7025(5)
C11 C 0.2518(5) 0.5243(5) 0.7126(5)
H7 H 0.211067 0.464748 0.698529
H8 H 0.277465 0.592096 0.716500
C12 C 0.2890(7) 0.500000 0.750000
C13 C 0.3259(6) 0.5363(5) 0.7761(5)
C14 C 0.3228(6) 0.5472(5) 0.8257(5)
C15 C 0.3639(5) 0.5606(6) 0.7465(5)
C16 C 0.3561(6) 0.5801(6) 0.8466(6)
H9 H 0.297265 0.531850 0.846061
C17 C 0.3956(6) 0.5928(6) 0.7665(6)
H10 H 0.366635 0.553708 0.711809
H11 H 0.354391 0.585667 0.881597
C18 C 0.3917(6) 0.6050(6) 0.8182(6)
H12 H 0.421305 0.607986 0.746156
C19 C 0.4270(7) 0.6414(6) 0.8388(6)
C20 C 0.4050(6) 0.6725(6) 0.8760(6)
C21 C 0.4789(6) 0.6472(8) 0.8259(8)
N2 N 0.4342(5) 0.7073(5) 0.8965(5)
H13 H 0.369195 0.668400 0.886235
H14 H 0.495541 0.625665 0.803751
C22 C 0.5072(9) 0.6845(10) 0.8449(10)
Cu2 Cu 0.39945(8) 0.74827(6) 0.95123(7)
C23 C 0.4844(7) 0.7132(8) 0.8821(8)
H15 H 0.542061 0.690916 0.833055
I2_2 I 0.32982(6) 0.69582(5) 1.000000
I3_2 I 0.48254(7) 0.77927(7) 1.000000
N3 N 0.3593(5) 0.8026(4) 0.9165(5)
H16 H 0.505153 0.737191 0.897115
C24 C 0.3880(6) 0.8347(5) 0.8909(6)
C25 C 0.3067(7) 0.8051(6) 0.9133(8)
H17 H 0.425501 0.834680 0.895126
C26 C 0.3659(6) 0.8678(5) 0.8589(6)
H18 H 0.286418 0.783308 0.932275
C27 C 0.2807(7) 0.8356(6) 0.8856(8)
C28 C 0.3997(6) 0.9007(5) 0.8314(5)
C29 C 0.3094(7) 0.8668(7) 0.8556(8)
H19 H 0.242995 0.836497 0.885964
C30 C 0.4453(6) 0.9191(5) 0.8532(5)
C31 C 0.3875(5) 0.9148(5) 0.7841(5)
H20 H 0.291364 0.887130 0.833167
H21 H 0.454819 0.909722 0.886114
C32 C 0.4774(5) 0.9509(4) 0.8277(5)
H22 H 0.356505 0.902937 0.768213
C33 C 0.4205(5) 0.9469(5) 0.7586(5)
C34 C 0.4647(5) 0.9665(4) 0.7811(4)
H23 H 0.509003 0.961948 0.843232
H24 H 0.412183 0.955204 0.725077
C35_2 C 0.500000 1.000000 0.750000
N4 N 0.0616(5) 0.4253(5) 0.9418(4)
C36 C 0.1040(5) 0.4420(5) 0.9143(5)
C37 C 0.0459(7) 0.3801(6) 0.9331(6)
C38 C 0.1282(5) 0.4147(5) 0.8785(5)
H25 H 0.116833 0.472864 0.920303
H26 H 0.017230 0.367975 0.952292
C39 C 0.0687(7) 0.3516(6) 0.8988(6)
C40 C 0.1711(6) 0.4355(5) 0.8493(5)
C41 C 0.1111(7) 0.3694(6) 0.8704(6)
H27 H 0.056311 0.320426 0.894062
C42 C 0.1737(5) 0.4841(5) 0.8401(5)
C43 C 0.2126(6) 0.4088(5) 0.8273(6)
H28 H 0.127790 0.350395 0.845801
H29 H 0.148709 0.504505 0.855553
C44 C 0.2121(5) 0.5026(5) 0.8087(5)
H30 H 0.213691 0.375969 0.833606
C45 C 0.2510(5) 0.4277(5) 0.7975(5)
C46 C 0.2518(5) 0.4757(5) 0.7874(5)
H31 H 0.211067 0.535252 0.801471
H32 H 0.277465 0.407904 0.783500
C47 C 0.3259(6) 0.4637(5) 0.7239(5)
C48 C 0.3228(6) 0.4528(5) 0.6743(5)
C49 C 0.3639(5) 0.4394(6) 0.7535(5)
C50 C 0.3561(6) 0.4199(6) 0.6534(6)
H33 H 0.297265 0.468150 0.653939
C51 C 0.3956(6) 0.4072(6) 0.7335(6)
H34 H 0.366635 0.446292 0.788191
H35 H 0.354391 0.414333 0.618403
C52 C 0.3917(6) 0.3950(6) 0.6818(6)
H36 H 0.421305 0.392014 0.753844
C53 C 0.4270(7) 0.3586(6) 0.6612(6)
C54 C 0.4050(6) 0.3275(6) 0.6240(6)
C55 C 0.4789(6) 0.3528(8) 0.6741(8)
N5 N 0.4342(5) 0.2927(5) 0.6035(5)
H37 H 0.369195 0.331600 0.613765
H38 H 0.495541 0.374335 0.696249
C56 C 0.5072(9) 0.3155(10) 0.6551(10)
C57 C 0.4844(7) 0.2868(8) 0.6179(8)
H39 H 0.542061 0.309084 0.666945
H40 H 0.505153 0.262809 0.602885
N7 N 0.6407(5) 0.8026(4) 0.5835(5)
C69 C 0.6120(6) 0.8347(5) 0.6091(6)
C70 C 0.6933(7) 0.8051(6) 0.5867(8)
H49 H 0.574499 0.834680 0.604874
C71 C 0.6341(6) 0.8678(5) 0.6411(6)
H50 H 0.713582 0.783308 0.567725
C72 C 0.7193(7) 0.8356(6) 0.6144(8)
C73 C 0.6003(6) 0.9007(5) 0.6686(5)
C74 C 0.6906(7) 0.8668(7) 0.6444(8)
H51 H 0.757005 0.836497 0.614036
C75 C 0.5547(6) 0.9191(5) 0.6468(5)
C76 C 0.6125(5) 0.9148(5) 0.7159(5)
H52 H 0.708636 0.887130 0.666833
H53 H 0.545181 0.909722 0.613886
C77 C 0.5226(5) 0.9509(4) 0.6723(5)
H54 H 0.643495 0.902937 0.731787
C78 C 0.5795(5) 0.9469(5) 0.7414(5)
C79 C 0.5353(5) 0.9665(4) 0.7189(4)
H55 H 0.490997 0.961948 0.656768
H56 H 0.587817 0.955204 0.774923
Cu8_2 Cu 0.03080(10) 0.46417(10) 1.000000
N14 N 0.0616(5) 0.5747(5) 0.4418(4)
Cu10 Cu 0.60055(8) 0.74827(6) 0.54877(7)
I8 I 0.32982(6) 0.30418(5) 0.500000
I10 I 0.48254(7) 0.22073(7) 0.500000
I5 I 0.67018(6) 0.30418(5) 0.000000
I6 I 0.51746(7) 0.22073(7) 0.000000
Cu7 Cu 0.96920(10) 0.53583(10) 0.000000
Cu12 Cu 0.60055(8) 0.25173(6) 0.04877(7)
I4 I 0.92722(5) 0.54843(5) 0.500000
Cu3 Cu 0.96920(10) 0.46417(10) 0.500000
N9 N 0.9384(5) 0.4253(5) 0.5582(4)
C91 C 0.8960(5) 0.4420(5) 0.5857(5)
C92 C 0.9541(7) 0.3801(6) 0.5669(6)
C93 C 0.8718(5) 0.4147(5) 0.6215(5)
H65 H 0.883167 0.472864 0.579697
H66 H 0.982770 0.367975 0.547708
C94 C 0.9313(7) 0.3516(6) 0.6012(6)
C95 C 0.8289(6) 0.4355(5) 0.6507(5)
C96 C 0.8889(7) 0.3694(6) 0.6296(6)
H67 H 0.943689 0.320426 0.605938
C97 C 0.8263(5) 0.4841(5) 0.6599(5)
C98 C 0.7874(6) 0.4088(5) 0.6727(6)
H68 H 0.872210 0.350395 0.654199
H69 H 0.851291 0.504505 0.644447
C99 C 0.7879(5) 0.5026(5) 0.6913(5)
H70 H 0.786309 0.375969 0.666394
C100 C 0.7490(5) 0.4277(5) 0.7025(5)
C101 C 0.7482(5) 0.4757(5) 0.7126(5)
H71 H 0.788933 0.535252 0.698529
H72 H 0.722535 0.407904 0.716500
C102 C 0.7110(7) 0.500000 0.750000
C103 C 0.6741(6) 0.4637(5) 0.7761(5)
C104 C 0.6772(6) 0.4528(5) 0.8257(5)
C105 C 0.6361(5) 0.4394(6) 0.7465(5)
C106 C 0.6439(6) 0.4199(6) 0.8466(6)
H73 H 0.702735 0.468150 0.846061
C107 C 0.6044(6) 0.4072(6) 0.7665(6)
H74 H 0.633365 0.446292 0.711809
H75 H 0.645609 0.414333 0.881597
C108 C 0.6083(6) 0.3950(6) 0.8182(6)
H76 H 0.578695 0.392014 0.746156
C109 C 0.5730(7) 0.3586(6) 0.8388(6)
C110 C 0.5950(6) 0.3275(6) 0.8760(6)
C111 C 0.5211(6) 0.3528(8) 0.8259(8)
N10 N 0.5658(5) 0.2927(5) 0.8965(5)
H77 H 0.630805 0.331600 0.886235
H78 H 0.504459 0.374335 0.803751
C112 C 0.4928(9) 0.3155(10) 0.8449(10)
C113 C 0.5156(7) 0.2868(8) 0.8821(8)
H79 H 0.457939 0.309084 0.833055
I5_2 I 0.67018(6) 0.30418(5) 1.000000
I6_2 I 0.51746(7) 0.22073(7) 1.000000
H80 H 0.494847 0.262809 0.897115
N11 N 0.9384(5) 0.5747(5) 0.9418(4)
C114 C 0.8960(5) 0.5580(5) 0.9143(5)
C115 C 0.9541(7) 0.6199(6) 0.9331(6)
C116 C 0.8718(5) 0.5853(5) 0.8785(5)
H81 H 0.883167 0.527136 0.920303
H82 H 0.982770 0.632025 0.952292
C117 C 0.9313(7) 0.6484(6) 0.8988(6)
C118 C 0.8289(6) 0.5645(5) 0.8493(5)
C119 C 0.8889(7) 0.6306(6) 0.8704(6)
H83 H 0.943689 0.679574 0.894062
C120 C 0.8263(5) 0.5159(5) 0.8401(5)
C121 C 0.7874(6) 0.5912(5) 0.8273(6)
H84 H 0.872210 0.649605 0.845801
H85 H 0.851291 0.495495 0.855553
C122 C 0.7879(5) 0.4974(5) 0.8087(5)
H86 H 0.786309 0.624031 0.833606
C123 C 0.7490(5) 0.5723(5) 0.7975(5)
C124 C 0.7482(5) 0.5243(5) 0.7874(5)
H87 H 0.788933 0.464748 0.801471
H88 H 0.722535 0.592096 0.783500
C125 C 0.6741(6) 0.5363(5) 0.7239(5)
C126 C 0.6772(6) 0.5472(5) 0.6743(5)
C127 C 0.6361(5) 0.5606(6) 0.7535(5)
C128 C 0.6439(6) 0.5801(6) 0.6534(6)
H89 H 0.702735 0.531850 0.653939
C129 C 0.6044(6) 0.5928(6) 0.7335(6)
H90 H 0.633365 0.553708 0.788191
H91 H 0.645609 0.585667 0.618403
C130 C 0.6083(6) 0.6050(6) 0.6818(6)
H92 H 0.578695 0.607986 0.753844
C131 C 0.5730(7) 0.6414(6) 0.6612(6)
C132 C 0.5950(6) 0.6725(6) 0.6240(6)
C133 C 0.5211(6) 0.6472(8) 0.6741(8)
N12 N 0.5658(5) 0.7073(5) 0.6035(5)
H93 H 0.630805 0.668400 0.613765
H94 H 0.504459 0.625665 0.696249
C134 C 0.4928(9) 0.6845(10) 0.6551(10)
C135 C 0.5156(7) 0.7132(8) 0.6179(8)
H95 H 0.457939 0.690916 0.666945
H96 H 0.494847 0.737191 0.602885
Cu7_2 Cu 0.96920(10) 0.53583(10) 1.000000
N13 N 0.9384(5) 0.4253(5) 0.4418(4)
I7 I 0.67018(6) 0.69582(5) 0.500000
I9 I 0.51746(7) 0.77927(7) 0.500000
I4_2 I 0.07278(5) 0.54843(5) 0.000000
N13_2 N 0.0616(5) 0.4253(5) 0.0582(4)
I4_3 I 0.07278(5) 0.54843(5) 1.000000
Cu12_2 Cu 0.39945(8) 0.25173(6) 0.45123(7)
I1_2 I 0.92722(5) 0.45157(5) 0.000000
N14_2 N 0.9384(5) 0.5747(5) 0.0582(4)
I1_3 I 0.92722(5) 0.45157(5) 1.000000
Cu13_2 Cu 0.60055(8) 0.74827(6) 0.45123(7)
C91_2 C 0.1040(5) 0.5580(5) 0.4143(5)
C92_2 C 0.0459(7) 0.6199(6) 0.4331(6)
C93_2 C 0.1282(5) 0.5853(5) 0.3785(5)
H65_2 H 0.116833 0.527136 0.420303
H66_2 H 0.017230 0.632025 0.452292
C94_2 C 0.0687(7) 0.6484(6) 0.3988(6)
C95_2 C 0.1711(6) 0.5645(5) 0.3493(5)
C96_2 C 0.1111(7) 0.6306(6) 0.3704(6)
H67_2 H 0.056311 0.679574 0.394062
C97_2 C 0.1737(5) 0.5159(5) 0.3401(5)
C98_2 C 0.2126(6) 0.5912(5) 0.3273(6)
H68_2 H 0.127790 0.649605 0.345801
H69_2 H 0.148709 0.495495 0.355553
C99_2 C 0.2121(5) 0.4974(5) 0.3087(5)
H70_2 H 0.213691 0.624031 0.333606
C100_2 C 0.2510(5) 0.5723(5) 0.2975(5)
C101_2 C 0.2518(5) 0.5243(5) 0.2874(5)
H71_2 H 0.211067 0.464748 0.301471
H72_2 H 0.277465 0.592096 0.283500
C102_2 C 0.2890(7) 0.500000 0.250000
C103_2 C 0.3259(6) 0.5363(5) 0.2239(5)
C104_2 C 0.3228(6) 0.5472(5) 0.1743(5)
C105_2 C 0.3639(5) 0.5606(6) 0.2535(5)
C106_2 C 0.3561(6) 0.5801(6) 0.1534(6)
H73_2 H 0.297265 0.531850 0.153939
C107_2 C 0.3956(6) 0.5928(6) 0.2335(6)
H74_2 H 0.366635 0.553708 0.288191
H75_2 H 0.354391 0.585667 0.118403
C108_2 C 0.3917(6) 0.6050(6) 0.1818(6)
H76_2 H 0.421305 0.607986 0.253844
C109_2 C 0.4270(7) 0.6414(6) 0.1612(6)
C110_2 C 0.4050(6) 0.6725(6) 0.1240(6)
C111_2 C 0.4789(6) 0.6472(8) 0.1741(8)
N10_2 N 0.4342(5) 0.7073(5) 0.1035(5)
H77_2 H 0.369195 0.668400 0.113765
H78_2 H 0.495541 0.625665 0.196249
C112_2 C 0.5072(9) 0.6845(10) 0.1551(10)
C113_2 C 0.4844(7) 0.7132(8) 0.1179(8)
H79_2 H 0.542061 0.690916 0.166945
H80_2 H 0.505153 0.737191 0.102885
C114_2 C 0.1040(5) 0.4420(5) 0.0857(5)
C115_2 C 0.0459(7) 0.3801(6) 0.0669(6)
C116_2 C 0.1282(5) 0.4147(5) 0.1215(5)
H81_2 H 0.116833 0.472864 0.079697
H82_2 H 0.017230 0.367975 0.047708
C117_2 C 0.0687(7) 0.3516(6) 0.1012(6)
C118_2 C 0.1711(6) 0.4355(5) 0.1507(5)
C119_2 C 0.1111(7) 0.3694(6) 0.1296(6)
H83_2 H 0.056311 0.320426 0.105938
C120_2 C 0.1737(5) 0.4841(5) 0.1599(5)
C121_2 C 0.2126(6) 0.4088(5) 0.1727(6)
H84_2 H 0.127790 0.350395 0.154199
H85_2 H 0.148709 0.504505 0.144447
C122_2 C 0.2121(5) 0.5026(5) 0.1913(5)
H86_2 H 0.213691 0.375969 0.166394
C123_2 C 0.2510(5) 0.4277(5) 0.2025(5)
C124_2 C 0.2518(5) 0.4757(5) 0.2126(5)
H87_2 H 0.211067 0.535252 0.198529
H88_2 H 0.277465 0.407904 0.216500
C125_2 C 0.3259(6) 0.4637(5) 0.2761(5)
C126_2 C 0.3228(6) 0.4528(5) 0.3257(5)
C127_2 C 0.3639(5) 0.4394(6) 0.2465(5)
C128_2 C 0.3561(6) 0.4199(6) 0.3466(6)
H89_2 H 0.297265 0.468150 0.346061
C129_2 C 0.3956(6) 0.4072(6) 0.2665(6)
H90_2 H 0.366635 0.446292 0.211809
H91_2 H 0.354391 0.414333 0.381597
C130_2 C 0.3917(6) 0.3950(6) 0.3182(6)
H92_2 H 0.421305 0.392014 0.246156
C131_2 C 0.4270(7) 0.3586(6) 0.3388(6)
C132_2 C 0.4050(6) 0.3275(6) 0.3760(6)
C133_2 C 0.4789(6) 0.3528(8) 0.3259(8)
N12_2 N 0.4342(5) 0.2927(5) 0.3965(5)
H93_2 H 0.369195 0.331600 0.386235
H94_2 H 0.495541 0.374335 0.303751
C134_2 C 0.5072(9) 0.3155(10) 0.3449(10)
C135_2 C 0.4844(7) 0.2868(8) 0.3821(8)
H95_2 H 0.542061 0.309084 0.333055
H96_2 H 0.505153 0.262809 0.397115
N15 N 0.3593(5) 0.8026(4) 0.0835(5)
N16 N 0.3593(5) 0.1974(4) 0.4165(5)
C1_2 C 0.8960(5) 0.4420(5) 0.4143(5)
C2_2 C 0.9541(7) 0.3801(6) 0.4331(6)
C3_2 C 0.8718(5) 0.4147(5) 0.3785(5)
H1_2 H 0.883167 0.472864 0.420303
H2_2 H 0.982770 0.367975 0.452292
C4_2 C 0.9313(7) 0.3516(6) 0.3988(6)
C5_2 C 0.8289(6) 0.4355(5) 0.3493(5)
C6_2 C 0.8889(7) 0.3694(6) 0.3704(6)
H3_2 H 0.943689 0.320426 0.394062
C7_2 C 0.8263(5) 0.4841(5) 0.3401(5)
C8_2 C 0.7874(6) 0.4088(5) 0.3273(6)
H4_2 H 0.872210 0.350395 0.345801
H5_2 H 0.851291 0.504505 0.355553
C9_2 C 0.7879(5) 0.5026(5) 0.3087(5)
H6_2 H 0.786309 0.375969 0.333606
C10_2 C 0.7490(5) 0.4277(5) 0.2975(5)
C11_2 C 0.7482(5) 0.4757(5) 0.2874(5)
H7_2 H 0.788933 0.535252 0.301471
H8_2 H 0.722535 0.407904 0.283500
C12_2 C 0.7110(7) 0.500000 0.250000
C13_2 C 0.6741(6) 0.4637(5) 0.2239(5)
C14_2 C 0.6772(6) 0.4528(5) 0.1743(5)
C15_2 C 0.6361(5) 0.4394(6) 0.2535(5)
C16_2 C 0.6439(6) 0.4199(6) 0.1534(6)
H9_2 H 0.702735 0.468150 0.153939
C17_2 C 0.6044(6) 0.4072(6) 0.2335(6)
H10_2 H 0.633365 0.446292 0.288191
H11_2 H 0.645609 0.414333 0.118403
C18_2 C 0.6083(6) 0.3950(6) 0.1818(6)
H12_2 H 0.578695 0.392014 0.253844
C19_2 C 0.5730(7) 0.3586(6) 0.1612(6)
C20_2 C 0.5950(6) 0.3275(6) 0.1240(6)
C21_2 C 0.5211(6) 0.3528(8) 0.1741(8)
N2_2 N 0.5658(5) 0.2927(5) 0.1035(5)
H13_2 H 0.630805 0.331600 0.113765
H14_2 H 0.504459 0.374335 0.196249
C22_2 C 0.4928(9) 0.3155(10) 0.1551(10)
C23_2 C 0.5156(7) 0.2868(8) 0.1179(8)
H15_2 H 0.457939 0.309084 0.166945
N3_2 N 0.6407(5) 0.1974(4) 0.0835(5)
H16_2 H 0.494847 0.262809 0.102885
C24_2 C 0.6120(6) 0.1653(5) 0.1091(6)
C25_2 C 0.6933(7) 0.1949(6) 0.0867(8)
H17_2 H 0.574499 0.165320 0.104874
C26_2 C 0.6341(6) 0.1322(5) 0.1411(6)
H18_2 H 0.713582 0.216692 0.067725
C27_2 C 0.7193(7) 0.1644(6) 0.1144(8)
C28_2 C 0.6003(6) 0.0993(5) 0.1686(5)
C29_2 C 0.6906(7) 0.1332(7) 0.1444(8)
H19_2 H 0.757005 0.163503 0.114036
C30_2 C 0.5547(6) 0.0809(5) 0.1468(5)
C31_2 C 0.6125(5) 0.0852(5) 0.2159(5)
H20_2 H 0.708636 0.112870 0.166833
H21_2 H 0.545181 0.090278 0.113886
C32_2 C 0.5226(5) 0.0491(4) 0.1723(5)
H22_2 H 0.643495 0.097063 0.231787
C33_2 C 0.5795(5) 0.0531(5) 0.2414(5)
C34_2 C 0.5353(5) 0.0335(4) 0.2189(4)
H23_2 H 0.490997 0.038052 0.156768
H24_2 H 0.587817 0.044796 0.274923
C35_3 C 0.500000 0.000000 0.250000
C36_2 C 0.8960(5) 0.5580(5) 0.0857(5)
C37_2 C 0.9541(7) 0.6199(6) 0.0669(6)
C38_2 C 0.8718(5) 0.5853(5) 0.1215(5)
H25_2 H 0.883167 0.527136 0.079697
H26_2 H 0.982770 0.632025 0.047708
C39_2 C 0.9313(7) 0.6484(6) 0.1012(6)
C40_2 C 0.8289(6) 0.5645(5) 0.1507(5)
C41_2 C 0.8889(7) 0.6306(6) 0.1296(6)
H27_2 H 0.943689 0.679574 0.105938
C42_2 C 0.8263(5) 0.5159(5) 0.1599(5)
C43_2 C 0.7874(6) 0.5912(5) 0.1727(6)
H28_2 H 0.872210 0.649605 0.154199
H29_2 H 0.851291 0.495495 0.144447
C44_2 C 0.7879(5) 0.4974(5) 0.1913(5)
H30_2 H 0.786309 0.624031 0.166394
C45_2 C 0.7490(5) 0.5723(5) 0.2025(5)
C46_2 C 0.7482(5) 0.5243(5) 0.2126(5)
H31_2 H 0.788933 0.464748 0.198529
H32_2 H 0.722535 0.592096 0.216500
C47_2 C 0.6741(6) 0.5363(5) 0.2761(5)
C48_2 C 0.6772(6) 0.5472(5) 0.3257(5)
C49_2 C 0.6361(5) 0.5606(6) 0.2465(5)
C50_2 C 0.6439(6) 0.5801(6) 0.3466(6)
H33_2 H 0.702735 0.531850 0.346061
C51_2 C 0.6044(6) 0.5928(6) 0.2665(6)
H34_2 H 0.633365 0.553708 0.211809
H35_2 H 0.645609 0.585667 0.381597
C52_2 C 0.6083(6) 0.6050(6) 0.3182(6)
H36_2 H 0.578695 0.607986 0.246156
C53_2 C 0.5730(7) 0.6414(6) 0.3388(6)
C54_2 C 0.5950(6) 0.6725(6) 0.3760(6)
C55_2 C 0.5211(6) 0.6472(8) 0.3259(8)
N5_2 N 0.5658(5) 0.7073(5) 0.3965(5)
H37_2 H 0.630805 0.668400 0.386235
H38_2 H 0.504459 0.625665 0.303751
C56_2 C 0.4928(9) 0.6845(10) 0.3449(10)
C57_2 C 0.5156(7) 0.7132(8) 0.3821(8)
H39_2 H 0.457939 0.690916 0.333055
H40_2 H 0.494847 0.737191 0.397115
C69_2 C 0.3880(6) 0.1653(5) 0.3909(6)
C70_2 C 0.3067(7) 0.1949(6) 0.4133(8)
H49_2 H 0.425501 0.165320 0.395126
C71_2 C 0.3659(6) 0.1322(5) 0.3589(6)
H50_2 H 0.286418 0.216692 0.432275
C72_2 C 0.2807(7) 0.1644(6) 0.3856(8)
C73_2 C 0.3997(6) 0.0993(5) 0.3314(5)
C74_2 C 0.3094(7) 0.1332(7) 0.3556(8)
H51_2 H 0.242995 0.163503 0.385964
C75_2 C 0.4453(6) 0.0809(5) 0.3532(5)
C76_2 C 0.3875(5) 0.0852(5) 0.2841(5)
H52_2 H 0.291364 0.112870 0.333167
H53_2 H 0.454819 0.090278 0.386114
C77_2 C 0.4774(5) 0.0491(4) 0.3277(5)
H54_2 H 0.356505 0.097063 0.268213
C78_2 C 0.4205(5) 0.0531(5) 0.2586(5)
C79_2 C 0.4647(5) 0.0335(4) 0.2811(4)
H55_2 H 0.509003 0.038052 0.343232
H56_2 H 0.412183 0.044796 0.225077
N17 N 0.6407(5) 0.8026(4) 0.4165(5)
C35_4 C 0.500000 1.000000 0.250000
C58_2 C 0.3880(6) 0.8347(5) 0.1091(6)
C59_2 C 0.3067(7) 0.8051(6) 0.0867(8)
H41_2 H 0.425501 0.834680 0.104874
C60_2 C 0.3659(6) 0.8678(5) 0.1411(6)
H42_2 H 0.286418 0.783308 0.067725
C61_2 C 0.2807(7) 0.8356(6) 0.1144(8)
C62_2 C 0.3997(6) 0.9007(5) 0.1686(5)
C63_2 C 0.3094(7) 0.8668(7) 0.1444(8)
H43_2 H 0.242995 0.836497 0.114036
C64_2 C 0.4453(6) 0.9191(5) 0.1468(5)
C65_2 C 0.3875(5) 0.9148(5) 0.2159(5)
H44_2 H 0.291364 0.887130 0.166833
H45_2 H 0.454819 0.909722 0.113886
C66_2 C 0.4774(5) 0.9509(4) 0.1723(5)
H46_2 H 0.356505 0.902937 0.231787
C67_2 C 0.4205(5) 0.9469(5) 0.2414(5)
C68_2 C 0.4647(5) 0.9665(4) 0.2189(4)
H47_2 H 0.509003 0.961948 0.156768
H48_2 H 0.412183 0.955204 0.274923
C80_2 C 0.6120(6) 0.8347(5) 0.3909(6)
C81_2 C 0.6933(7) 0.8051(6) 0.4133(8)
H57_2 H 0.574499 0.834680 0.395126
C82_2 C 0.6341(6) 0.8678(5) 0.3589(6)
H58_2 H 0.713582 0.783308 0.432275
C83_2 C 0.7193(7) 0.8356(6) 0.3856(8)
C84_2 C 0.6003(6) 0.9007(5) 0.3314(5)
C85_2 C 0.6906(7) 0.8668(7) 0.3556(8)
H59_2 H 0.757005 0.836497 0.385964
C86_2 C 0.5547(6) 0.9191(5) 0.3532(5)
C87_2 C 0.6125(5) 0.9148(5) 0.2841(5)
H60_2 H 0.708636 0.887130 0.333167
H61_2 H 0.545181 0.909722 0.386114
C88_2 C 0.5226(5) 0.9509(4) 0.3277(5)
H62_2 H 0.643495 0.902937 0.268213
C89_2 C 0.5795(5) 0.9469(5) 0.2586(5)
C90_2 C 0.5353(5) 0.9665(4) 0.2811(4)
H63_2 H 0.490997 0.961948 0.343232
H64_2 H 0.587817 0.955204 0.225077
C22_3 C 0.0072(9) 0.1845(10) 0.8449(10)
H15_3 H 0.042061 0.190916 0.833055
H16_3 H 0.005153 0.237191 0.897115
H23_3 H 0.009003 0.461948 0.843232
C35_5 C -0.000000 0.500000 0.750000
N6_2 N 0.1407(5) 0.6974(4) 0.9165(5)
C58_3 C 0.1120(6) 0.6653(5) 0.8909(6)
C59_3 C 0.1933(7) 0.6949(6) 0.9133(8)
H41_3 H 0.074499 0.665320 0.895126
C60_3 C 0.1341(6) 0.6322(5) 0.8589(6)
H42_3 H 0.213582 0.716692 0.932275
C61_3 C 0.2193(7) 0.6644(6) 0.8856(8)
C62_3 C 0.1003(6) 0.5993(5) 0.8314(5)
C63_3 C 0.1906(7) 0.6332(7) 0.8556(8)
H43_3 H 0.257005 0.663503 0.885964
C64_3 C 0.0547(6) 0.5809(5) 0.8532(5)
C65_3 C 0.1125(5) 0.5852(5) 0.7841(5)
H44_3 H 0.208636 0.612870 0.833167
H45_3 H 0.045181 0.590278 0.886114
C66_3 C 0.0226(5) 0.5491(4) 0.8277(5)
H46_3 H 0.143495 0.597063 0.768213
C67_3 C 0.0795(5) 0.5531(5) 0.7586(5)
C68_3 C 0.0353(5) 0.5335(4) 0.7811(4)
H48_3 H 0.087817 0.544796 0.725077
N7_2 N 0.1407(5) 0.3026(4) 0.5835(5)
C69_3 C 0.1120(6) 0.3347(5) 0.6091(6)
C70_3 C 0.1933(7) 0.3051(6) 0.5867(8)
H49_3 H 0.074499 0.334680 0.604874
C71_3 C 0.1341(6) 0.3678(5) 0.6411(6)
H50_3 H 0.213582 0.283308 0.567725
C72_3 C 0.2193(7) 0.3356(6) 0.6144(8)
C73_3 C 0.1003(6) 0.4007(5) 0.6686(5)
C74_3 C 0.1906(7) 0.3668(7) 0.6444(8)
H51_3 H 0.257005 0.336497 0.614036
C75_3 C 0.0547(6) 0.4191(5) 0.6468(5)
C76_3 C 0.1125(5) 0.4148(5) 0.7159(5)
H52_3 H 0.208636 0.387130 0.666833
H53_3 H 0.045181 0.409722 0.613886
C77_3 C 0.0226(5) 0.4509(4) 0.6723(5)
H54_3 H 0.143495 0.402937 0.731787
C78_3 C 0.0795(5) 0.4469(5) 0.7414(5)
C79_3 C 0.0353(5) 0.4665(4) 0.7189(4)
H56_3 H 0.087817 0.455204 0.774923
H63_3 H 0.009003 0.538052 0.656768
Cu9_2 Cu 0.10055(8) 0.75173(6) 0.95123(7)
Cu10_2 Cu 0.10055(8) 0.24827(6) 0.54877(7)
C56_3 C 0.0072(9) 0.8155(10) 0.6551(10)
H39_3 H 0.042061 0.809084 0.666945
H40_3 H 0.005153 0.762809 0.602885
I2_3 I 0.82982(6) 0.19582(5) 0.000000
I3_3 I 0.98254(7) 0.27927(7) 0.000000
Cu7_3 Cu 0.46920(10) 0.03583(10) 0.000000
Cu13_3 Cu 0.89945(8) 0.24827(6) 0.04877(7)
Cu1_2 Cu 0.53080(10) 0.03583(10) 0.500000
N1_2 N 0.5616(5) 0.0747(5) 0.5582(4)
C1_3 C 0.6040(5) 0.0580(5) 0.5857(5)
C2_3 C 0.5459(7) 0.1199(6) 0.5669(6)
C3_3 C 0.6282(5) 0.0853(5) 0.6215(5)
H1_3 H 0.616833 0.027136 0.579697
H2_3 H 0.517230 0.132025 0.547708
C4_3 C 0.5687(7) 0.1484(6) 0.6012(6)
C5_3 C 0.6711(6) 0.0645(5) 0.6507(5)
C6_3 C 0.6111(7) 0.1306(6) 0.6296(6)
H3_3 H 0.556311 0.179574 0.605938
C7_3 C 0.6737(5) 0.0159(5) 0.6599(5)
C8_3 C 0.7126(6) 0.0912(5) 0.6727(6)
H4_3 H 0.627790 0.149605 0.654199
H6_3 H 0.713691 0.124031 0.666394
C10_3 C 0.7510(5) 0.0723(5) 0.7025(5)
C11_3 C 0.7518(5) 0.0243(5) 0.7126(5)
H8_3 H 0.777465 0.092096 0.716500
C12_3 C 0.7890(7) -0.000000 0.750000
C13_3 C 0.8259(6) 0.0363(5) 0.7761(5)
C14_3 C 0.8228(6) 0.0472(5) 0.8257(5)
C15_3 C 0.8639(5) 0.0606(6) 0.7465(5)
C16_3 C 0.8561(6) 0.0801(6) 0.8466(6)
H9_3 H 0.797265 0.031850 0.846061
C17_3 C 0.8956(6) 0.0928(6) 0.7665(6)
H10_3 H 0.866635 0.053708 0.711809
H11_3 H 0.854391 0.085667 0.881597
C18_3 C 0.8917(6) 0.1050(6) 0.8182(6)
H12_3 H 0.921305 0.107986 0.746156
C19_3 C 0.9270(7) 0.1414(6) 0.8388(6)
C20_3 C 0.9050(6) 0.1725(6) 0.8760(6)
C21_3 C 0.9789(6) 0.1472(8) 0.8259(8)
N2_3 N 0.9342(5) 0.2073(5) 0.8965(5)
H13_3 H 0.869195 0.168400 0.886235
H14_3 H 0.995541 0.125665 0.803751
Cu2_2 Cu 0.89945(8) 0.24827(6) 0.95123(7)
C23_3 C 0.9844(7) 0.2132(8) 0.8821(8)
I2_4 I 0.82982(6) 0.19582(5) 1.000000
I3_4 I 0.98254(7) 0.27927(7) 1.000000
N3_3 N 0.8593(5) 0.3026(4) 0.9165(5)
C24_3 C 0.8880(6) 0.3347(5) 0.8909(6)
C25_3 C 0.8067(7) 0.3051(6) 0.9133(8)
H17_3 H 0.925501 0.334680 0.895126
C26_3 C 0.8659(6) 0.3678(5) 0.8589(6)
H18_3 H 0.786418 0.283308 0.932275
C27_3 C 0.7807(7) 0.3356(6) 0.8856(8)
C28_3 C 0.8997(6) 0.4007(5) 0.8314(5)
C29_3 C 0.8094(7) 0.3668(7) 0.8556(8)
H19_3 H 0.742995 0.336497 0.885964
C30_3 C 0.9453(6) 0.4191(5) 0.8532(5)
C31_3 C 0.8875(5) 0.4148(5) 0.7841(5)
H20_3 H 0.791364 0.387130 0.833167
H21_3 H 0.954819 0.409722 0.886114
C32_3 C 0.9774(5) 0.4509(4) 0.8277(5)
H22_3 H 0.856505 0.402937 0.768213
C33_3 C 0.9205(5) 0.4469(5) 0.7586(5)
C34_3 C 0.9647(5) 0.4665(4) 0.7811(4)
H24_3 H 0.912183 0.455204 0.725077
C35_6 C 1.000000 0.500000 0.750000
H29_3 H 0.648709 0.004505 0.855553
C44_3 C 0.7121(5) 0.0026(5) 0.8087(5)
H31_3 H 0.711067 0.035252 0.801471
H47_3 H 0.990997 0.538052 0.843232
H55_3 H 0.990997 0.461948 0.656768
N8_2 N 0.8593(5) 0.6974(4) 0.5835(5)
C80_3 C 0.8880(6) 0.6653(5) 0.6091(6)
C81_3 C 0.8067(7) 0.6949(6) 0.5867(8)
H57_3 H 0.925501 0.665320 0.604874
C82_3 C 0.8659(6) 0.6322(5) 0.6411(6)
H58_3 H 0.786418 0.716692 0.567725
C83_3 C 0.7807(7) 0.6644(6) 0.6144(8)
C84_3 C 0.8997(6) 0.5993(5) 0.6686(5)
C85_3 C 0.8094(7) 0.6332(7) 0.6444(8)
H59_3 H 0.742995 0.663503 0.614036
C86_3 C 0.9453(6) 0.5809(5) 0.6468(5)
C87_3 C 0.8875(5) 0.5852(5) 0.7159(5)
H60_3 H 0.791364 0.612870 0.666833
H61_3 H 0.954819 0.590278 0.613886
C88_3 C 0.9774(5) 0.5491(4) 0.6723(5)
H62_3 H 0.856505 0.597063 0.731787
C89_3 C 0.9205(5) 0.5531(5) 0.7414(5)
C90_3 C 0.9647(5) 0.5335(4) 0.7189(4)
H64_3 H 0.912183 0.544796 0.774923
I4_4 I 0.42722(5) 0.04843(5) 0.500000
H69_3 H 0.351291 0.004505 0.644447
C99_3 C 0.2879(5) 0.0026(5) 0.6913(5)
H71_3 H 0.288933 0.035252 0.698529
C102_3 C 0.2110(7) -0.000000 0.750000
N11_2 N 0.4384(5) 0.0747(5) 0.9418(4)
C114_3 C 0.3960(5) 0.0580(5) 0.9143(5)
C115_3 C 0.4541(7) 0.1199(6) 0.9331(6)
C116_3 C 0.3718(5) 0.0853(5) 0.8785(5)
H81_3 H 0.383167 0.027136 0.920303
H82_3 H 0.482770 0.132025 0.952292
C117_3 C 0.4313(7) 0.1484(6) 0.8988(6)
C118_3 C 0.3289(6) 0.0645(5) 0.8493(5)
C119_3 C 0.3889(7) 0.1306(6) 0.8704(6)
H83_3 H 0.443689 0.179574 0.894062
C120_3 C 0.3263(5) 0.0159(5) 0.8401(5)
C121_3 C 0.2874(6) 0.0912(5) 0.8273(6)
H84_3 H 0.372210 0.149605 0.845801
H86_3 H 0.286309 0.124031 0.833606
C123_3 C 0.2490(5) 0.0723(5) 0.7975(5)
C124_3 C 0.2482(5) 0.0243(5) 0.7874(5)
H88_3 H 0.222535 0.092096 0.783500
C125_3 C 0.1741(6) 0.0363(5) 0.7239(5)
C126_3 C 0.1772(6) 0.0472(5) 0.6743(5)
C127_3 C 0.1361(5) 0.0606(6) 0.7535(5)
C128_3 C 0.1439(6) 0.0801(6) 0.6534(6)
H89_3 H 0.202735 0.031850 0.653939
C129_3 C 0.1044(6) 0.0928(6) 0.7335(6)
H90_3 H 0.133365 0.053708 0.788191
H91_3 H 0.145609 0.085667 0.618403
C130_3 C 0.1083(6) 0.1050(6) 0.6818(6)
H92_3 H 0.078695 0.107986 0.753844
C131_3 C 0.0730(7) 0.1414(6) 0.6612(6)
C132_3 C 0.0950(6) 0.1725(6) 0.6240(6)
C133_3 C 0.0211(6) 0.1472(8) 0.6741(8)
N12_3 N 0.0658(5) 0.2073(5) 0.6035(5)
H93_3 H 0.130805 0.168400 0.613765
H94_3 H 0.004459 0.125665 0.696249
C135_3 C 0.0156(7) 0.2132(8) 0.6179(8)
Cu7_4 Cu 0.46920(10) 0.03583(10) 1.000000
N14_3 N 0.5616(5) 0.0747(5) 0.4418(4)
Cu11_2 Cu 0.89945(8) 0.75173(6) 0.54877(7)
I7_2 I 0.17018(6) 0.19582(5) 0.500000
I9_2 I 0.01746(7) 0.27927(7) 0.500000
I5_3 I 0.17018(6) 0.80418(5) 0.000000
I6_3 I 0.01746(7) 0.72073(7) 0.000000
Cu8_3 Cu 0.53080(10) 0.96417(10) 0.000000
Cu12_3 Cu 0.10055(8) 0.75173(6) 0.04877(7)
I1_4 I 0.57278(5) 0.95157(5) 0.500000
H5_3 H 0.648709 0.995495 0.644447
C9_3 C 0.7121(5) 0.9974(5) 0.6913(5)
H7_3 H 0.711067 0.964748 0.698529
C12_4 C 0.7890(7) 1.000000 0.750000
N4_2 N 0.5616(5) 0.9253(5) 0.9418(4)
C36_3 C 0.6040(5) 0.9420(5) 0.9143(5)
C37_3 C 0.5459(7) 0.8801(6) 0.9331(6)
C38_3 C 0.6282(5) 0.9147(5) 0.8785(5)
H25_3 H 0.616833 0.972864 0.920303
H26_3 H 0.517230 0.867975 0.952292
C39_3 C 0.5687(7) 0.8516(6) 0.8988(6)
C40_3 C 0.6711(6) 0.9355(5) 0.8493(5)
C41_3 C 0.6111(7) 0.8694(6) 0.8704(6)
H27_3 H 0.556311 0.820426 0.894062
C42_3 C 0.6737(5) 0.9841(5) 0.8401(5)
C43_3 C 0.7126(6) 0.9088(5) 0.8273(6)
H28_3 H 0.627790 0.850395 0.845801
H30_3 H 0.713691 0.875969 0.833606
C45_3 C 0.7510(5) 0.9277(5) 0.7975(5)
C46_3 C 0.7518(5) 0.9757(5) 0.7874(5)
H32_3 H 0.777465 0.907904 0.783500
C47_3 C 0.8259(6) 0.9637(5) 0.7239(5)
C48_3 C 0.8228(6) 0.9528(5) 0.6743(5)
C49_3 C 0.8639(5) 0.9394(6) 0.7535(5)
C50_3 C 0.8561(6) 0.9199(6) 0.6534(6)
H33_3 H 0.797265 0.968150 0.653939
C51_3 C 0.8956(6) 0.9072(6) 0.7335(6)
H34_3 H 0.866635 0.946292 0.788191
H35_3 H 0.854391 0.914333 0.618403
C52_3 C 0.8917(6) 0.8950(6) 0.6818(6)
H36_3 H 0.921305 0.892014 0.753844
C53_3 C 0.9270(7) 0.8586(6) 0.6612(6)
C54_3 C 0.9050(6) 0.8275(6) 0.6240(6)
C55_3 C 0.9789(6) 0.8528(8) 0.6741(8)
N5_3 N 0.9342(5) 0.7927(5) 0.6035(5)
H37_3 H 0.869195 0.831600 0.613765
H38_3 H 0.995541 0.874335 0.696249
C57_3 C 0.9844(7) 0.7868(8) 0.6179(8)
Cu3_2 Cu 0.46920(10) 0.96417(10) 0.500000
N9_2 N 0.4384(5) 0.9253(5) 0.5582(4)
C91_3 C 0.3960(5) 0.9420(5) 0.5857(5)
C92_3 C 0.4541(7) 0.8801(6) 0.5669(6)
C93_3 C 0.3718(5) 0.9147(5) 0.6215(5)
H65_3 H 0.383167 0.972864 0.579697
H66_3 H 0.482770 0.867975 0.547708
C94_3 C 0.4313(7) 0.8516(6) 0.6012(6)
C95_3 C 0.3289(6) 0.9355(5) 0.6507(5)
C96_3 C 0.3889(7) 0.8694(6) 0.6296(6)
H67_3 H 0.443689 0.820426 0.605938
C97_3 C 0.3263(5) 0.9841(5) 0.6599(5)
C98_3 C 0.2874(6) 0.9088(5) 0.6727(6)
H68_3 H 0.372210 0.850395 0.654199
H70_3 H 0.286309 0.875969 0.666394
C100_3 C 0.2490(5) 0.9277(5) 0.7025(5)
C101_3 C 0.2482(5) 0.9757(5) 0.7126(5)
H72_3 H 0.222535 0.907904 0.716500
C102_4 C 0.2110(7) 1.000000 0.750000
C103_3 C 0.1741(6) 0.9637(5) 0.7761(5)
C104_3 C 0.1772(6) 0.9528(5) 0.8257(5)
C105_3 C 0.1361(5) 0.9394(6) 0.7465(5)
C106_3 C 0.1439(6) 0.9199(6) 0.8466(6)
H73_3 H 0.202735 0.968150 0.846061
C107_3 C 0.1044(6) 0.9072(6) 0.7665(6)
H74_3 H 0.133365 0.946292 0.711809
H75_3 H 0.145609 0.914333 0.881597
C108_3 C 0.1083(6) 0.8950(6) 0.8182(6)
H76_3 H 0.078695 0.892014 0.746156
C109_3 C 0.0730(7) 0.8586(6) 0.8388(6)
C110_3 C 0.0950(6) 0.8275(6) 0.8760(6)
C111_3 C 0.0211(6) 0.8528(8) 0.8259(8)
N10_3 N 0.0658(5) 0.7927(5) 0.8965(5)
H77_3 H 0.130805 0.831600 0.886235
H78_3 H 0.004459 0.874335 0.803751
C113_3 C 0.0156(7) 0.7868(8) 0.8821(8)
I5_4 I 0.17018(6) 0.80418(5) 1.000000
I6_4 I 0.01746(7) 0.72073(7) 1.000000
H85_3 H 0.351291 0.995495 0.855553
C122_3 C 0.2879(5) 0.9974(5) 0.8087(5)
H87_3 H 0.288933 0.964748 0.801471
Cu8_4 Cu 0.53080(10) 0.96417(10) 1.000000
N13_3 N 0.4384(5) 0.9253(5) 0.4418(4)
I8_2 I 0.82982(6) 0.80418(5) 0.500000
I10_2 I 0.98254(7) 0.72073(7) 0.500000
C134_3 C 0.9928(9) 0.1845(10) 0.6551(10)
H95_3 H 0.957939 0.190916 0.666945
H96_3 H 0.994847 0.237191 0.602885
C112_3 C 0.9928(9) 0.8155(10) 0.8449(10)
H79_3 H 0.957939 0.809084 0.833055
H80_3 H 0.994847 0.762809 0.897115
I4_5 I 0.57278(5) 0.04843(5) 0.000000
N14_4 N 0.4384(5) 0.0747(5) 0.0582(4)
I4_6 I 0.57278(5) 0.04843(5) 1.000000
Cu13_4 Cu 0.10055(8) 0.24827(6) 0.45123(7)
I1_5 I 0.42722(5) 0.95157(5) 0.000000
N13_4 N 0.5616(5) 0.9253(5) 0.0582(4)
I1_6 I 0.42722(5) 0.95157(5) 1.000000
Cu12_4 Cu 0.89945(8) 0.75173(6) 0.45123(7)
C112_4 C 0.0072(9) 0.1845(10) 0.1551(10)
H79_4 H 0.042061 0.190916 0.166945
H80_4 H 0.005153 0.237191 0.102885
C134_4 C 0.0072(9) 0.8155(10) 0.3449(10)
H95_4 H 0.042061 0.809084 0.333055
H96_4 H 0.005153 0.762809 0.397115
H5_4 H 0.351291 0.004505 0.355553
C9_4 C 0.2879(5) 0.0026(5) 0.3087(5)
H7_4 H 0.288933 0.035252 0.301471
C12_5 C 0.2110(7) 0.000000 0.250000
C36_4 C 0.3960(5) 0.0580(5) 0.0857(5)
C37_4 C 0.4541(7) 0.1199(6) 0.0669(6)
C38_4 C 0.3718(5) 0.0853(5) 0.1215(5)
H25_4 H 0.383167 0.027136 0.079697
H26_4 H 0.482770 0.132025 0.047708
C39_4 C 0.4313(7) 0.1484(6) 0.1012(6)
C40_4 C 0.3289(6) 0.0645(5) 0.1507(5)
C41_4 C 0.3889(7) 0.1306(6) 0.1296(6)
H27_4 H 0.443689 0.179574 0.105938
C42_4 C 0.3263(5) 0.0159(5) 0.1599(5)
C43_4 C 0.2874(6) 0.0912(5) 0.1727(6)
H28_4 H 0.372210 0.149605 0.154199
H30_4 H 0.286309 0.124031 0.166394
C45_4 C 0.2490(5) 0.0723(5) 0.2025(5)
C46_4 C 0.2482(5) 0.0243(5) 0.2126(5)
H32_4 H 0.222535 0.092096 0.216500
C47_4 C 0.1741(6) 0.0363(5) 0.2761(5)
C48_4 C 0.1772(6) 0.0472(5) 0.3257(5)
C49_4 C 0.1361(5) 0.0606(6) 0.2465(5)
C50_4 C 0.1439(6) 0.0801(6) 0.3466(6)
H33_4 H 0.202735 0.031850 0.346061
C51_4 C 0.1044(6) 0.0928(6) 0.2665(6)
H34_4 H 0.133365 0.053708 0.211809
H35_4 H 0.145609 0.085667 0.381597
C52_4 C 0.1083(6) 0.1050(6) 0.3182(6)
H36_4 H 0.078695 0.107986 0.246156
C53_4 C 0.0730(7) 0.1414(6) 0.3388(6)
C54_4 C 0.0950(6) 0.1725(6) 0.3760(6)
C55_4 C 0.0211(6) 0.1472(8) 0.3259(8)
N5_4 N 0.0658(5) 0.2073(5) 0.3965(5)
H37_4 H 0.130805 0.168400 0.386235
H38_4 H 0.004459 0.125665 0.303751
C57_4 C 0.0156(7) 0.2132(8) 0.3821(8)
C91_4 C 0.6040(5) 0.0580(5) 0.4143(5)
C92_4 C 0.5459(7) 0.1199(6) 0.4331(6)
C93_4 C 0.6282(5) 0.0853(5) 0.3785(5)
H65_4 H 0.616833 0.027136 0.420303
H66_4 H 0.517230 0.132025 0.452292
C94_4 C 0.5687(7) 0.1484(6) 0.3988(6)
C95_4 C 0.6711(6) 0.0645(5) 0.3493(5)
C96_4 C 0.6111(7) 0.1306(6) 0.3704(6)
H67_4 H 0.556311 0.179574 0.394062
C97_4 C 0.6737(5) 0.0159(5) 0.3401(5)
C98_4 C 0.7126(6) 0.0912(5) 0.3273(6)
H68_4 H 0.627790 0.149605 0.345801
H70_4 H 0.713691 0.124031 0.333606
C100_4 C 0.7510(5) 0.0723(5) 0.2975(5)
C101_4 C 0.7518(5) 0.0243(5) 0.2874(5)
H72_4 H 0.777465 0.092096 0.283500
C102_5 C 0.7890(7) 0.000000 0.250000
C103_4 C 0.8259(6) 0.0363(5) 0.2239(5)
C104_4 C 0.8228(6) 0.0472(5) 0.1743(5)
C105_4 C 0.8639(5) 0.0606(6) 0.2535(5)
C106_4 C 0.8561(6) 0.0801(6) 0.1534(6)
H73_4 H 0.797265 0.031850 0.153939
C107_4 C 0.8956(6) 0.0928(6) 0.2335(6)
H74_4 H 0.866635 0.053708 0.288191
H75_4 H 0.854391 0.085667 0.118403
C108_4 C 0.8917(6) 0.1050(6) 0.1818(6)
H76_4 H 0.921305 0.107986 0.253844
C109_4 C 0.9270(7) 0.1414(6) 0.1612(6)
C110_4 C 0.9050(6) 0.1725(6) 0.1240(6)
C111_4 C 0.9789(6) 0.1472(8) 0.1741(8)
N10_4 N 0.9342(5) 0.2073(5) 0.1035(5)
H77_4 H 0.869195 0.168400 0.113765
H78_4 H 0.995541 0.125665 0.196249
C113_4 C 0.9844(7) 0.2132(8) 0.1179(8)
H85_4 H 0.648709 0.004505 0.144447
C122_4 C 0.7121(5) 0.0026(5) 0.1913(5)
H87_4 H 0.711067 0.035252 0.198529
N15_2 N 0.8593(5) 0.3026(4) 0.0835(5)
N17_2 N 0.1407(5) 0.3026(4) 0.4165(5)
C1_4 C 0.3960(5) 0.9420(5) 0.4143(5)
C2_4 C 0.4541(7) 0.8801(6) 0.4331(6)
C3_4 C 0.3718(5) 0.9147(5) 0.3785(5)
H1_4 H 0.383167 0.972864 0.420303
H2_4 H 0.482770 0.867975 0.452292
C4_4 C 0.4313(7) 0.8516(6) 0.3988(6)
C5_4 C 0.3289(6) 0.9355(5) 0.3493(5)
C6_4 C 0.3889(7) 0.8694(6) 0.3704(6)
H3_4 H 0.443689 0.820426 0.394062
C7_4 C 0.3263(5) 0.9841(5) 0.3401(5)
C8_4 C 0.2874(6) 0.9088(5) 0.3273(6)
H4_4 H 0.372210 0.850395 0.345801
H6_4 H 0.286309 0.875969 0.333606
C10_4 C 0.2490(5) 0.9277(5) 0.2975(5)
C11_4 C 0.2482(5) 0.9757(5) 0.2874(5)
H8_4 H 0.222535 0.907904 0.283500
C12_6 C 0.2110(7) 1.000000 0.250000
C13_4 C 0.1741(6) 0.9637(5) 0.2239(5)
C14_4 C 0.1772(6) 0.9528(5) 0.1743(5)
C15_4 C 0.1361(5) 0.9394(6) 0.2535(5)
C16_4 C 0.1439(6) 0.9199(6) 0.1534(6)
H9_4 H 0.202735 0.968150 0.153939
C17_4 C 0.1044(6) 0.9072(6) 0.2335(6)
H10_4 H 0.133365 0.946292 0.288191
H11_4 H 0.145609 0.914333 0.118403
C18_4 C 0.1083(6) 0.8950(6) 0.1818(6)
H12_4 H 0.078695 0.892014 0.253844
C19_4 C 0.0730(7) 0.8586(6) 0.1612(6)
C20_4 C 0.0950(6) 0.8275(6) 0.1240(6)
C21_4 C 0.0211(6) 0.8528(8) 0.1741(8)
N2_4 N 0.0658(5) 0.7927(5) 0.1035(5)
H13_4 H 0.130805 0.831600 0.113765
H14_4 H 0.004459 0.874335 0.196249
C23_4 C 0.0156(7) 0.7868(8) 0.1179(8)
N3_4 N 0.1407(5) 0.6974(4) 0.0835(5)
C24_4 C 0.1120(6) 0.6653(5) 0.1091(6)
C25_4 C 0.1933(7) 0.6949(6) 0.0867(8)
H17_4 H 0.074499 0.665320 0.104874
C26_4 C 0.1341(6) 0.6322(5) 0.1411(6)
H18_4 H 0.213582 0.716692 0.067725
C27_4 C 0.2193(7) 0.6644(6) 0.1144(8)
C28_4 C 0.1003(6) 0.5993(5) 0.1686(5)
C29_4 C 0.1906(7) 0.6332(7) 0.1444(8)
H19_4 H 0.257005 0.663503 0.114036
C30_4 C 0.0547(6) 0.5809(5) 0.1468(5)
C31_4 C 0.1125(5) 0.5852(5) 0.2159(5)
H20_4 H 0.208636 0.612870 0.166833
H21_4 H 0.045181 0.590278 0.113886
C32_4 C 0.0226(5) 0.5491(4) 0.1723(5)
H22_4 H 0.143495 0.597063 0.231787
C33_4 C 0.0795(5) 0.5531(5) 0.2414(5)
C34_4 C 0.0353(5) 0.5335(4) 0.2189(4)
H24_4 H 0.087817 0.544796 0.274923
C35_7 C 0.000000 0.500000 0.250000
H29_4 H 0.351291 0.995495 0.144447
C44_4 C 0.2879(5) 0.9974(5) 0.1913(5)
H31_4 H 0.288933 0.964748 0.198529
H47_4 H 0.009003 0.461948 0.156768
H55_4 H 0.009003 0.538052 0.343232
C80_4 C 0.1120(6) 0.3347(5) 0.3909(6)
C81_4 C 0.1933(7) 0.3051(6) 0.4133(8)
H57_4 H 0.074499 0.334680 0.395126
C82_4 C 0.1341(6) 0.3678(5) 0.3589(6)
H58_4 H 0.213582 0.283308 0.432275
C83_4 C 0.2193(7) 0.3356(6) 0.3856(8)
C84_4 C 0.1003(6) 0.4007(5) 0.3314(5)
C85_4 C 0.1906(7) 0.3668(7) 0.3556(8)
H59_4 H 0.257005 0.336497 0.385964
C86_4 C 0.0547(6) 0.4191(5) 0.3532(5)
C87_4 C 0.1125(5) 0.4148(5) 0.2841(5)
H60_4 H 0.208636 0.387130 0.333167
H61_4 H 0.045181 0.409722 0.386114
C88_4 C 0.0226(5) 0.4509(4) 0.3277(5)
H62_4 H 0.143495 0.402937 0.268213
C89_4 C 0.0795(5) 0.4469(5) 0.2586(5)
C90_4 C 0.0353(5) 0.4665(4) 0.2811(4)
H64_4 H 0.087817 0.455204 0.225077
H69_4 H 0.648709 0.995495 0.355553
C99_4 C 0.7121(5) 0.9974(5) 0.3087(5)
H71_4 H 0.711067 0.964748 0.301471
C102_6 C 0.7890(7) 1.000000 0.250000
C114_4 C 0.6040(5) 0.9420(5) 0.0857(5)
C115_4 C 0.5459(7) 0.8801(6) 0.0669(6)
C116_4 C 0.6282(5) 0.9147(5) 0.1215(5)
H81_4 H 0.616833 0.972864 0.079697
H82_4 H 0.517230 0.867975 0.047708
C117_4 C 0.5687(7) 0.8516(6) 0.1012(6)
C118_4 C 0.6711(6) 0.9355(5) 0.1507(5)
C119_4 C 0.6111(7) 0.8694(6) 0.1296(6)
H83_4 H 0.556311 0.820426 0.105938
C120_4 C 0.6737(5) 0.9841(5) 0.1599(5)
C121_4 C 0.7126(6) 0.9088(5) 0.1727(6)
H84_4 H 0.627790 0.850395 0.154199
H86_4 H 0.713691 0.875969 0.166394
C123_4 C 0.7510(5) 0.9277(5) 0.2025(5)
C124_4 C 0.7518(5) 0.9757(5) 0.2126(5)
H88_4 H 0.777465 0.907904 0.216500
C125_4 C 0.8259(6) 0.9637(5) 0.2761(5)
C126_4 C 0.8228(6) 0.9528(5) 0.3257(5)
C127_4 C 0.8639(5) 0.9394(6) 0.2465(5)
C128_4 C 0.8561(6) 0.9199(6) 0.3466(6)
H89_4 H 0.797265 0.968150 0.346061
C129_4 C 0.8956(6) 0.9072(6) 0.2665(6)
H90_4 H 0.866635 0.946292 0.211809
H91_4 H 0.854391 0.914333 0.381597
C130_4 C 0.8917(6) 0.8950(6) 0.3182(6)
H92_4 H 0.921305 0.892014 0.246156
C131_4 C 0.9270(7) 0.8586(6) 0.3388(6)
C132_4 C 0.9050(6) 0.8275(6) 0.3760(6)
C133_4 C 0.9789(6) 0.8528(8) 0.3259(8)
N12_4 N 0.9342(5) 0.7927(5) 0.3965(5)
H93_4 H 0.869195 0.831600 0.386235
H94_4 H 0.995541 0.874335 0.303751
C135_4 C 0.9844(7) 0.7868(8) 0.3821(8)
N16_2 N 0.8593(5) 0.6974(4) 0.4165(5)
C56_4 C 0.9928(9) 0.1845(10) 0.3449(10)
H39_4 H 0.957939 0.190916 0.333055
H40_4 H 0.994847 0.237191 0.397115
C22_4 C 0.9928(9) 0.8155(10) 0.1551(10)
H15_4 H 0.957939 0.809084 0.166945
H16_4 H 0.994847 0.762809 0.102885
H23_4 H 0.990997 0.538052 0.156768
C35_8 C 1.000000 0.500000 0.250000
C58_4 C 0.8880(6) 0.3347(5) 0.1091(6)
C59_4 C 0.8067(7) 0.3051(6) 0.0867(8)
H41_4 H 0.925501 0.334680 0.104874
C60_4 C 0.8659(6) 0.3678(5) 0.1411(6)
H42_4 H 0.786418 0.283308 0.067725
C61_4 C 0.7807(7) 0.3356(6) 0.1144(8)
C62_4 C 0.8997(6) 0.4007(5) 0.1686(5)
C63_4 C 0.8094(7) 0.3668(7) 0.1444(8)
H43_4 H 0.742995 0.336497 0.114036
C64_4 C 0.9453(6) 0.4191(5) 0.1468(5)
C65_4 C 0.8875(5) 0.4148(5) 0.2159(5)
H44_4 H 0.791364 0.387130 0.166833
H45_4 H 0.954819 0.409722 0.113886
C66_4 C 0.9774(5) 0.4509(4) 0.1723(5)
H46_4 H 0.856505 0.402937 0.231787
C67_4 C 0.9205(5) 0.4469(5) 0.2414(5)
C68_4 C 0.9647(5) 0.4665(4) 0.2189(4)
H48_4 H 0.912183 0.455204 0.274923
C69_4 C 0.8880(6) 0.6653(5) 0.3909(6)
C70_4 C 0.8067(7) 0.6949(6) 0.4133(8)
H49_4 H 0.925501 0.665320 0.395126
C71_4 C 0.8659(6) 0.6322(5) 0.3589(6)
H50_4 H 0.786418 0.716692 0.432275
C72_4 C 0.7807(7) 0.6644(6) 0.3856(8)
C73_4 C 0.8997(6) 0.5993(5) 0.3314(5)
C74_4 C 0.8094(7) 0.6332(7) 0.3556(8)
H51_4 H 0.742995 0.663503 0.385964
C75_4 C 0.9453(6) 0.5809(5) 0.3532(5)
C76_4 C 0.8875(5) 0.5852(5) 0.2841(5)
H52_4 H 0.791364 0.612870 0.333167
H53_4 H 0.954819 0.590278 0.386114
C77_4 C 0.9774(5) 0.5491(4) 0.3277(5)
H54_4 H 0.856505 0.597063 0.268213
C78_4 C 0.9205(5) 0.5531(5) 0.2586(5)
C79_4 C 0.9647(5) 0.5335(4) 0.2811(4)
H56_4 H 0.912183 0.544796 0.225077
H63_4 H 0.990997 0.461948 0.343232
loop_
_geom_bond_atom_site_label_1
_geom_bond_atom_site_label_2
_geom_bond_site_symmetry_1
_geom_bond_site_symmetry_2
N6 C58 1_555 1_555
C58 H41 1_555 1_555
C59 N6 1_555 1_555
C60 C58 1_555 1_555
H42 C59 1_555 1_555
C61 C59 1_555 1_555
C62 C60 1_555 1_555
C63 C60 1_555 1_555
H43 C61 1_555 1_555
C64 C62 1_555 1_555
C65 C62 1_555 1_555
H44 C63 1_555 1_555
H45 C64 1_555 1_555
C66 C64 1_555 1_555
H46 C65 1_555 1_555
C67 C65 1_555 1_555
C68 C35 1_555 1_555
H47 C66 1_555 1_555
H48 C67 1_555 1_555
N8 C80 1_555 1_555
C80 H57 1_555 1_555
C81 N8 1_555 1_555
C82 C80 1_555 1_555
H58 C81 1_555 1_555
C83 C81 1_555 1_555
C84 C82 1_555 1_555
C85 C82 1_555 1_555
H59 C83 1_555 1_555
C86 C84 1_555 1_555
C87 C84 1_555 1_555
H60 C85 1_555 1_555
H61 C86 1_555 1_555
C88 C86 1_555 1_555
H62 C87 1_555 1_555
C89 C87 1_555 1_555
C90 C35 1_555 1_555
H63 C88 1_555 1_555
H64 C89 1_555 1_555
Cu9 N6 1_555 1_555
Cu11 N8 1_555 1_555
C61 C63 1_555 1_555
C66 C68 1_555 1_555
C67 C68 1_555 1_555
C83 C85 1_555 1_555
C88 C90 1_555 1_555
C89 C90 1_555 1_555
Cu13 I2 1_555 1_555
I3 Cu13 1_555 1_555
I1 Cu1 1_555 1_555
Cu1 N1 1_555 1_555
N1 C1 1_555 1_555
C1 C3 1_555 1_555
C2 N1 1_555 1_555
C3 C5 1_555 1_555
H1 C1 1_555 1_555
H2 C2 1_555 1_555
C4 C2 1_555 1_555
C5 C7 1_555 1_555
C6 C3 1_555 1_555
H3 C4 1_555 1_555
C7 H5 1_555 1_555
C8 C5 1_555 1_555
H4 C6 1_555 1_555
C9 C7 1_555 1_555
H6 C8 1_555 1_555
C10 C8 1_555 1_555
C11 C9 1_555 1_555
H7 C9 1_555 1_555
H8 C10 1_555 1_555
C12 C11 1_555 1_555
C13 C12 1_555 1_555
C14 C13 1_555 1_555
C15 C13 1_555 1_555
C16 C14 1_555 1_555
H9 C14 1_555 1_555
C17 C15 1_555 1_555
H10 C15 1_555 1_555
H11 C16 1_555 1_555
C18 C16 1_555 1_555
H12 C17 1_555 1_555
C19 C18 1_555 1_555
C20 C19 1_555 1_555
C21 C19 1_555 1_555
N2 C20 1_555 1_555
H13 C20 1_555 1_555
H14 C21 1_555 1_555
C22 C21 1_555 1_555
Cu2 N2 1_555 1_555
C23 N2 1_555 1_555
H15 C22 1_555 1_555
I2_2 Cu2 1_555 1_555
I3_2 Cu2 1_555 1_555
N3 Cu2 1_555 1_555
H16 C23 1_555 1_555
C24 N3 1_555 1_555
C25 N3 1_555 1_555
H17 C24 1_555 1_555
C26 C24 1_555 1_555
H18 C25 1_555 1_555
C27 C25 1_555 1_555
C28 C26 1_555 1_555
C29 C26 1_555 1_555
H19 C27 1_555 1_555
C30 C28 1_555 1_555
C31 C28 1_555 1_555
H20 C29 1_555 1_555
H21 C30 1_555 1_555
C32 C30 1_555 1_555
H22 C31 1_555 1_555
C33 C31 1_555 1_555
C34 C32 1_555 1_555
H23 C32 1_555 1_555
H24 C33 1_555 1_555
C35_2 C34 1_555 1_555
N4 C36 1_555 1_555
C36 C38 1_555 1_555
C37 N4 1_555 1_555
C38 C40 1_555 1_555
H25 C36 1_555 1_555
H26 C37 1_555 1_555
C39 C37 1_555 1_555
C40 C42 1_555 1_555
C41 C38 1_555 1_555
H27 C39 1_555 1_555
C42 H29 1_555 1_555
C43 C40 1_555 1_555
H28 C41 1_555 1_555
C44 C42 1_555 1_555
H30 C43 1_555 1_555
C45 C43 1_555 1_555
C46 C12 1_555 1_555
H31 C44 1_555 1_555
H32 C45 1_555 1_555
C47 C12 1_555 1_555
C48 C47 1_555 1_555
C49 C47 1_555 1_555
C50 C48 1_555 1_555
H33 C48 1_555 1_555
C51 C49 1_555 1_555
H34 C49 1_555 1_555
H35 C50 1_555 1_555
C52 C50 1_555 1_555
H36 C51 1_555 1_555
C53 C52 1_555 1_555
C54 C53 1_555 1_555
C55 C53 1_555 1_555
N5 C54 1_555 1_555
H37 C54 1_555 1_555
H38 C55 1_555 1_555
C56 C55 1_555 1_555
C57 N5 1_555 1_555
H39 C56 1_555 1_555
H40 C57 1_555 1_555
N7 C69 1_555 1_555
C69 H49 1_555 1_555
C70 N7 1_555 1_555
C71 C69 1_555 1_555
H50 C70 1_555 1_555
C72 C70 1_555 1_555
C73 C71 1_555 1_555
C74 C71 1_555 1_555
H51 C72 1_555 1_555
C75 C73 1_555 1_555
C76 C73 1_555 1_555
H52 C74 1_555 1_555
H53 C75 1_555 1_555
C77 C75 1_555 1_555
H54 C76 1_555 1_555
C78 C76 1_555 1_555
C79 C35_2 1_555 1_555
H55 C77 1_555 1_555
H56 C78 1_555 1_555
Cu11 N5 1_555 1_555
Cu8_2 N4 1_555 1_555
N14 Cu1 1_555 1_555
Cu10 N7 1_555 1_555
I8 Cu11 1_555 1_555
I10 Cu11 1_555 1_555
C4 C6 1_555 1_555
C10 C11 1_555 1_555
C17 C18 1_555 1_555
C22 C23 1_555 1_555
C27 C29 1_555 1_555
C33 C34 1_555 1_555
C39 C41 1_555 1_555
C44 C46 1_555 1_555
C45 C46 1_555 1_555
C51 C52 1_555 1_555
C56 C57 1_555 1_555
C72 C74 1_555 1_555
C77 C79 1_555 1_555
C78 C79 1_555 1_555
Cu12 I5 1_555 1_555
I6 Cu12 1_555 1_555
N9 Cu3 1_555 1_555
C91 N9 1_555 1_555
C92 N9 1_555 1_555
C93 C91 1_555 1_555
H65 C91 1_555 1_555
H66 C92 1_555 1_555
C94 C92 1_555 1_555
C95 C93 1_555 1_555
C96 C93 1_555 1_555
H67 C94 1_555 1_555
C97 C95 1_555 1_555
C98 C95 1_555 1_555
H68 C96 1_555 1_555
H69 C97 1_555 1_555
C99 C97 1_555 1_555
H70 C98 1_555 1_555
C100 C98 1_555 1_555
C101 C99 1_555 1_555
H71 C99 1_555 1_555
H72 C100 1_555 1_555
C102 C101 1_555 1_555
C103 C102 1_555 1_555
C104 C103 1_555 1_555
C105 C103 1_555 1_555
C106 C104 1_555 1_555
H73 C104 1_555 1_555
C107 C105 1_555 1_555
H74 C105 1_555 1_555
H75 C106 1_555 1_555
C108 C106 1_555 1_555
H76 C107 1_555 1_555
C109 C108 1_555 1_555
C110 C109 1_555 1_555
C111 C109 1_555 1_555
N10 C110 1_555 1_555
H77 C110 1_555 1_555
H78 C111 1_555 1_555
C112 C111 1_555 1_555
Cu9 N10 1_555 1_555
C113 N10 1_555 1_555
H79 C112 1_555 1_555
I5_2 Cu9 1_555 1_555
I6_2 Cu9 1_555 1_555
H80 C113 1_555 1_555
N11 C114 1_555 1_555
C114 C116 1_555 1_555
C115 N11 1_555 1_555
C116 C118 1_555 1_555
H81 C114 1_555 1_555
H82 C115 1_555 1_555
C117 C115 1_555 1_555
C118 C120 1_555 1_555
C119 C116 1_555 1_555
H83 C117 1_555 1_555
C120 H85 1_555 1_555
C121 C118 1_555 1_555
H84 C119 1_555 1_555
C122 C120 1_555 1_555
H86 C121 1_555 1_555
C123 C121 1_555 1_555
C124 C102 1_555 1_555
H87 C122 1_555 1_555
H88 C123 1_555 1_555
C125 C102 1_555 1_555
C126 C125 1_555 1_555
C127 C125 1_555 1_555
C128 C126 1_555 1_555
H89 C126 1_555 1_555
C129 C127 1_555 1_555
H90 C127 1_555 1_555
H91 C128 1_555 1_555
C130 C128 1_555 1_555
H92 C129 1_555 1_555
C131 C130 1_555 1_555
C132 C131 1_555 1_555
C133 C131 1_555 1_555
N12 C132 1_555 1_555
H93 C132 1_555 1_555
H94 C133 1_555 1_555
C134 C133 1_555 1_555
C135 N12 1_555 1_555
H95 C134 1_555 1_555
H96 C135 1_555 1_555
Cu10 N12 1_555 1_555
Cu7_2 N11 1_555 1_555
N13 Cu3 1_555 1_555
I7 Cu10 1_555 1_555
I9 Cu10 1_555 1_555
I4 Cu3 1_555 1_555
C94 C96 1_555 1_555
C100 C101 1_555 1_555
C107 C108 1_555 1_555
C112 C113 1_555 1_555
C117 C119 1_555 1_555
C122 C124 1_555 1_555
C123 C124 1_555 1_555
C129 C130 1_555 1_555
C134 C135 1_555 1_555
N13_2 Cu8 1_555 1_555
I4_2 Cu8 1_555 1_555
Cu12_2 I8 1_555 1_555
I4_3 Cu8_2 1_555 1_555
I10 Cu12_2 1_555 1_555
I1_2 Cu7 1_555 1_555
N14_2 Cu7 1_555 1_555
I1_3 Cu7_2 1_555 1_555
Cu13_2 I7 1_555 1_555
I9 Cu13_2 1_555 1_555
C91_2 N14 1_555 1_555
C92_2 N14 1_555 1_555
C93_2 C91_2 1_555 1_555
H65_2 C91_2 1_555 1_555
H66_2 C92_2 1_555 1_555
C94_2 C92_2 1_555 1_555
C95_2 C93_2 1_555 1_555
C96_2 C93_2 1_555 1_555
H67_2 C94_2 1_555 1_555
C97_2 C95_2 1_555 1_555
C98_2 C95_2 1_555 1_555
H68_2 C96_2 1_555 1_555
H69_2 C97_2 1_555 1_555
C99_2 C97_2 1_555 1_555
H70_2 C98_2 1_555 1_555
C100_2 C98_2 1_555 1_555
C101_2 C99_2 1_555 1_555
H71_2 C99_2 1_555 1_555
H72_2 C100_2 1_555 1_555
C102_2 C101_2 1_555 1_555
C103_2 C102_2 1_555 1_555
C104_2 C103_2 1_555 1_555
C105_2 C103_2 1_555 1_555
C106_2 C104_2 1_555 1_555
H73_2 C104_2 1_555 1_555
C107_2 C105_2 1_555 1_555
H74_2 C105_2 1_555 1_555
H75_2 C106_2 1_555 1_555
C108_2 C106_2 1_555 1_555
H76_2 C107_2 1_555 1_555
C109_2 C108_2 1_555 1_555
C110_2 C109_2 1_555 1_555
C111_2 C109_2 1_555 1_555
N10_2 C110_2 1_555 1_555
H77_2 C110_2 1_555 1_555
H78_2 C111_2 1_555 1_555
C112_2 C111_2 1_555 1_555
Cu13 N10_2 1_555 1_555
C113_2 N10_2 1_555 1_555
H79_2 C112_2 1_555 1_555
H80_2 C113_2 1_555 1_555
N13_2 C114_2 1_555 1_555
C114_2 C116_2 1_555 1_555
C115_2 N13_2 1_555 1_555
C116_2 C118_2 1_555 1_555
H81_2 C114_2 1_555 1_555
H82_2 C115_2 1_555 1_555
C117_2 C115_2 1_555 1_555
C118_2 C120_2 1_555 1_555
C119_2 C116_2 1_555 1_555
H83_2 C117_2 1_555 1_555
C120_2 H85_2 1_555 1_555
C121_2 C118_2 1_555 1_555
H84_2 C119_2 1_555 1_555
C122_2 C120_2 1_555 1_555
H86_2 C121_2 1_555 1_555
C123_2 C121_2 1_555 1_555
C124_2 C102_2 1_555 1_555
H87_2 C122_2 1_555 1_555
H88_2 C123_2 1_555 1_555
C125_2 C102_2 1_555 1_555
C126_2 C125_2 1_555 1_555
C127_2 C125_2 1_555 1_555
C128_2 C126_2 1_555 1_555
H89_2 C126_2 1_555 1_555
C129_2 C127_2 1_555 1_555
H90_2 C127_2 1_555 1_555
H91_2 C128_2 1_555 1_555
C130_2 C128_2 1_555 1_555
H92_2 C129_2 1_555 1_555
C131_2 C130_2 1_555 1_555
C132_2 C131_2 1_555 1_555
C133_2 C131_2 1_555 1_555
N12_2 C132_2 1_555 1_555
H93_2 C132_2 1_555 1_555
H94_2 C133_2 1_555 1_555
C134_2 C133_2 1_555 1_555
C135_2 N12_2 1_555 1_555
H95_2 C134_2 1_555 1_555
H96_2 C135_2 1_555 1_555
Cu12_2 N12_2 1_555 1_555
N15 Cu13 1_555 1_555
N16 Cu12_2 1_555 1_555
C94_2 C96_2 1_555 1_555
C100_2 C101_2 1_555 1_555
C107_2 C108_2 1_555 1_555
C112_2 C113_2 1_555 1_555
C117_2 C119_2 1_555 1_555
C122_2 C124_2 1_555 1_555
C123_2 C124_2 1_555 1_555
C129_2 C130_2 1_555 1_555
C134_2 C135_2 1_555 1_555
N13 C1_2 1_555 1_555
C1_2 C3_2 1_555 1_555
C2_2 N13 1_555 1_555
C3_2 C5_2 1_555 1_555
H1_2 C1_2 1_555 1_555
H2_2 C2_2 1_555 1_555
C4_2 C2_2 1_555 1_555
C5_2 C7_2 1_555 1_555
C6_2 C3_2 1_555 1_555
H3_2 C4_2 1_555 1_555
C7_2 H5_2 1_555 1_555
C8_2 C5_2 1_555 1_555
H4_2 C6_2 1_555 1_555
C9_2 C7_2 1_555 1_555
H6_2 C8_2 1_555 1_555
C10_2 C8_2 1_555 1_555
C11_2 C9_2 1_555 1_555
H7_2 C9_2 1_555 1_555
H8_2 C10_2 1_555 1_555
C12_2 C11_2 1_555 1_555
C13_2 C12_2 1_555 1_555
C14_2 C13_2 1_555 1_555
C15_2 C13_2 1_555 1_555
C16_2 C14_2 1_555 1_555
H9_2 C14_2 1_555 1_555
C17_2 C15_2 1_555 1_555
H10_2 C15_2 1_555 1_555
H11_2 C16_2 1_555 1_555
C18_2 C16_2 1_555 1_555
H12_2 C17_2 1_555 1_555
C19_2 C18_2 1_555 1_555
C20_2 C19_2 1_555 1_555
C21_2 C19_2 1_555 1_555
N2_2 C20_2 1_555 1_555
H13_2 C20_2 1_555 1_555
H14_2 C21_2 1_555 1_555
C22_2 C21_2 1_555 1_555
Cu12 N2_2 1_555 1_555
C23_2 N2_2 1_555 1_555
H15_2 C22_2 1_555 1_555
N3_2 Cu12 1_555 1_555
H16_2 C23_2 1_555 1_555
C24_2 N3_2 1_555 1_555
C25_2 N3_2 1_555 1_555
H17_2 C24_2 1_555 1_555
C26_2 C24_2 1_555 1_555
H18_2 C25_2 1_555 1_555
C27_2 C25_2 1_555 1_555
C28_2 C26_2 1_555 1_555
C29_2 C26_2 1_555 1_555
H19_2 C27_2 1_555 1_555
C30_2 C28_2 1_555 1_555
C31_2 C28_2 1_555 1_555
H20_2 C29_2 1_555 1_555
H21_2 C30_2 1_555 1_555
C32_2 C30_2 1_555 1_555
H22_2 C31_2 1_555 1_555
C33_2 C31_2 1_555 1_555
C34_2 C32_2 1_555 1_555
H23_2 C32_2 1_555 1_555
H24_2 C33_2 1_555 1_555
C35_3 C34_2 1_555 1_555
N14_2 C36_2 1_555 1_555
C36_2 C38_2 1_555 1_555
C37_2 N14_2 1_555 1_555
C38_2 C40_2 1_555 1_555
H25_2 C36_2 1_555 1_555
H26_2 C37_2 1_555 1_555
C39_2 C37_2 1_555 1_555
C40_2 C42_2 1_555 1_555
C41_2 C38_2 1_555 1_555
H27_2 C39_2 1_555 1_555
C42_2 H29_2 1_555 1_555
C43_2 C40_2 1_555 1_555
H28_2 C41_2 1_555 1_555
C44_2 C42_2 1_555 1_555
H30_2 C43_2 1_555 1_555
C45_2 C43_2 1_555 1_555
C46_2 C12_2 1_555 1_555
H31_2 C44_2 1_555 1_555
H32_2 C45_2 1_555 1_555
C47_2 C12_2 1_555 1_555
C48_2 C47_2 1_555 1_555
C49_2 C47_2 1_555 1_555
C50_2 C48_2 1_555 1_555
H33_2 C48_2 1_555 1_555
C51_2 C49_2 1_555 1_555
H34_2 C49_2 1_555 1_555
H35_2 C50_2 1_555 1_555
C52_2 C50_2 1_555 1_555
H36_2 C51_2 1_555 1_555
C53_2 C52_2 1_555 1_555
C54_2 C53_2 1_555 1_555
C55_2 C53_2 1_555 1_555
N5_2 C54_2 1_555 1_555
H37_2 C54_2 1_555 1_555
H38_2 C55_2 1_555 1_555
C56_2 C55_2 1_555 1_555
C57_2 N5_2 1_555 1_555
H39_2 C56_2 1_555 1_555
H40_2 C57_2 1_555 1_555
N16 C69_2 1_555 1_555
C69_2 H49_2 1_555 1_555
C70_2 N16 1_555 1_555
C71_2 C69_2 1_555 1_555
H50_2 C70_2 1_555 1_555
C72_2 C70_2 1_555 1_555
C73_2 C71_2 1_555 1_555
C74_2 C71_2 1_555 1_555
H51_2 C72_2 1_555 1_555
C75_2 C73_2 1_555 1_555
C76_2 C73_2 1_555 1_555
H52_2 C74_2 1_555 1_555
H53_2 C75_2 1_555 1_555
C77_2 C75_2 1_555 1_555
H54_2 C76_2 1_555 1_555
C78_2 C76_2 1_555 1_555
C79_2 C35_3 1_555 1_555
H55_2 C77_2 1_555 1_555
H56_2 C78_2 1_555 1_555
Cu13_2 N5_2 1_555 1_555
N17 Cu13_2 1_555 1_555
C4_2 C6_2 1_555 1_555
C10_2 C11_2 1_555 1_555
C17_2 C18_2 1_555 1_555
C22_2 C23_2 1_555 1_555
C27_2 C29_2 1_555 1_555
C33_2 C34_2 1_555 1_555
C39_2 C41_2 1_555 1_555
C44_2 C46_2 1_555 1_555
C45_2 C46_2 1_555 1_555
C51_2 C52_2 1_555 1_555
C56_2 C57_2 1_555 1_555
C72_2 C74_2 1_555 1_555
C77_2 C79_2 1_555 1_555
C78_2 C79_2 1_555 1_555
N15 C58_2 1_555 1_555
C58_2 H41_2 1_555 1_555
C59_2 N15 1_555 1_555
C60_2 C58_2 1_555 1_555
H42_2 C59_2 1_555 1_555
C61_2 C59_2 1_555 1_555
C62_2 C60_2 1_555 1_555
C63_2 C60_2 1_555 1_555
H43_2 C61_2 1_555 1_555
C64_2 C62_2 1_555 1_555
C65_2 C62_2 1_555 1_555
H44_2 C63_2 1_555 1_555
H45_2 C64_2 1_555 1_555
C66_2 C64_2 1_555 1_555
H46_2 C65_2 1_555 1_555
C67_2 C65_2 1_555 1_555
C68_2 C35_4 1_555 1_555
H47_2 C66_2 1_555 1_555
H48_2 C67_2 1_555 1_555
N17 C80_2 1_555 1_555
C80_2 H57_2 1_555 1_555
C81_2 N17 1_555 1_555
C82_2 C80_2 1_555 1_555
H58_2 C81_2 1_555 1_555
C83_2 C81_2 1_555 1_555
C84_2 C82_2 1_555 1_555
C85_2 C82_2 1_555 1_555
H59_2 C83_2 1_555 1_555
C86_2 C84_2 1_555 1_555
C87_2 C84_2 1_555 1_555
H60_2 C85_2 1_555 1_555
H61_2 C86_2 1_555 1_555
C88_2 C86_2 1_555 1_555
H62_2 C87_2 1_555 1_555
C89_2 C87_2 1_555 1_555
C90_2 C35_4 1_555 1_555
H63_2 C88_2 1_555 1_555
H64_2 C89_2 1_555 1_555
C61_2 C63_2 1_555 1_555
C66_2 C68_2 1_555 1_555
C67_2 C68_2 1_555 1_555
C83_2 C85_2 1_555 1_555
C88_2 C90_2 1_555 1_555
C89_2 C90_2 1_555 1_555
H15_3 C22_3 1_555 1_555
N6_2 C58_3 1_555 1_555
C58_3 H41_3 1_555 1_555
C59_3 N6_2 1_555 1_555
C60_3 C58_3 1_555 1_555
H42_3 C59_3 1_555 1_555
C61_3 C59_3 1_555 1_555
C62_3 C60_3 1_555 1_555
C63_3 C60_3 1_555 1_555
H43_3 C61_3 1_555 1_555
C64_3 C62_3 1_555 1_555
C65_3 C62_3 1_555 1_555
H44_3 C63_3 1_555 1_555
H45_3 C64_3 1_555 1_555
C66_3 C64_3 1_555 1_555
H46_3 C65_3 1_555 1_555
C67_3 C65_3 1_555 1_555
C68_3 C35_5 1_555 1_555
H48_3 C67_3 1_555 1_555
N7_2 C69_3 1_555 1_555
C69_3 H49_3 1_555 1_555
C70_3 N7_2 1_555 1_555
C71_3 C69_3 1_555 1_555
H50_3 C70_3 1_555 1_555
C72_3 C70_3 1_555 1_555
C73_3 C71_3 1_555 1_555
C74_3 C71_3 1_555 1_555
H51_3 C72_3 1_555 1_555
C75_3 C73_3 1_555 1_555
C76_3 C73_3 1_555 1_555
H52_3 C74_3 1_555 1_555
H53_3 C75_3 1_555 1_555
C77_3 C75_3 1_555 1_555
H54_3 C76_3 1_555 1_555
C78_3 C76_3 1_555 1_555
C79_3 C35_5 1_555 1_555
H56_3 C78_3 1_555 1_555
Cu9_2 N6_2 1_555 1_555
Cu10_2 N7_2 1_555 1_555
C61_3 C63_3 1_555 1_555
C66_3 C68_3 1_555 1_555
C67_3 C68_3 1_555 1_555
C72_3 C74_3 1_555 1_555
C77_3 C79_3 1_555 1_555
C78_3 C79_3 1_555 1_555
H39_3 C56_3 1_555 1_555
Cu13_3 I2_3 1_555 1_555
I3_3 Cu13_3 1_555 1_555
Cu1_2 N1_2 1_555 1_555
N1_2 C1_3 1_555 1_555
C1_3 C3_3 1_555 1_555
C2_3 N1_2 1_555 1_555
C3_3 C5_3 1_555 1_555
H1_3 C1_3 1_555 1_555
H2_3 C2_3 1_555 1_555
C4_3 C2_3 1_555 1_555
C5_3 C7_3 1_555 1_555
C6_3 C3_3 1_555 1_555
H3_3 C4_3 1_555 1_555
C8_3 C5_3 1_555 1_555
H4_3 C6_3 1_555 1_555
H6_3 C8_3 1_555 1_555
C10_3 C8_3 1_555 1_555
H8_3 C10_3 1_555 1_555
C12_3 C11_3 1_555 1_555
C13_3 C12_3 1_555 1_555
C14_3 C13_3 1_555 1_555
C15_3 C13_3 1_555 1_555
C16_3 C14_3 1_555 1_555
H9_3 C14_3 1_555 1_555
C17_3 C15_3 1_555 1_555
H10_3 C15_3 1_555 1_555
H11_3 C16_3 1_555 1_555
C18_3 C16_3 1_555 1_555
H12_3 C17_3 1_555 1_555
C19_3 C18_3 1_555 1_555
C20_3 C19_3 1_555 1_555
C21_3 C19_3 1_555 1_555
N2_3 C20_3 1_555 1_555
H13_3 C20_3 1_555 1_555
H14_3 C21_3 1_555 1_555
Cu2_2 N2_3 1_555 1_555
C23_3 N2_3 1_555 1_555
I2_4 Cu2_2 1_555 1_555
I3_4 Cu2_2 1_555 1_555
N3_3 Cu2_2 1_555 1_555
C24_3 N3_3 1_555 1_555
C25_3 N3_3 1_555 1_555
H17_3 C24_3 1_555 1_555
C26_3 C24_3 1_555 1_555
H18_3 C25_3 1_555 1_555
C27_3 C25_3 1_555 1_555
C28_3 C26_3 1_555 1_555
C29_3 C26_3 1_555 1_555
H19_3 C27_3 1_555 1_555
C30_3 C28_3 1_555 1_555
C31_3 C28_3 1_555 1_555
H20_3 C29_3 1_555 1_555
H21_3 C30_3 1_555 1_555
C32_3 C30_3 1_555 1_555
H22_3 C31_3 1_555 1_555
C33_3 C31_3 1_555 1_555
C34_3 C32_3 1_555 1_555
H24_3 C33_3 1_555 1_555
C35_6 C34_3 1_555 1_555
H31_3 C44_3 1_555 1_555
N8_2 C80_3 1_555 1_555
C80_3 H57_3 1_555 1_555
C81_3 N8_2 1_555 1_555
C82_3 C80_3 1_555 1_555
H58_3 C81_3 1_555 1_555
C83_3 C81_3 1_555 1_555
C84_3 C82_3 1_555 1_555
C85_3 C82_3 1_555 1_555
H59_3 C83_3 1_555 1_555
C86_3 C84_3 1_555 1_555
C87_3 C84_3 1_555 1_555
H60_3 C85_3 1_555 1_555
H61_3 C86_3 1_555 1_555
C88_3 C86_3 1_555 1_555
H62_3 C87_3 1_555 1_555
C89_3 C87_3 1_555 1_555
C90_3 C35_6 1_555 1_555
H64_3 C89_3 1_555 1_555
I4_4 Cu1_2 1_555 1_555
H71_3 C99_3 1_555 1_555
N11_2 C114_3 1_555 1_555
C114_3 C116_3 1_555 1_555
C115_3 N11_2 1_555 1_555
C116_3 C118_3 1_555 1_555
H81_3 C114_3 1_555 1_555
H82_3 C115_3 1_555 1_555
C117_3 C115_3 1_555 1_555
C118_3 C120_3 1_555 1_555
C119_3 C116_3 1_555 1_555
H83_3 C117_3 1_555 1_555
C121_3 C118_3 1_555 1_555
H84_3 C119_3 1_555 1_555
H86_3 C121_3 1_555 1_555
C123_3 C121_3 1_555 1_555
C124_3 C102_3 1_555 1_555
H88_3 C123_3 1_555 1_555
C125_3 C102_3 1_555 1_555
C126_3 C125_3 1_555 1_555
C127_3 C125_3 1_555 1_555
C128_3 C126_3 1_555 1_555
H89_3 C126_3 1_555 1_555
C129_3 C127_3 1_555 1_555
H90_3 C127_3 1_555 1_555
H91_3 C128_3 1_555 1_555
C130_3 C128_3 1_555 1_555
H92_3 C129_3 1_555 1_555
C131_3 C130_3 1_555 1_555
C132_3 C131_3 1_555 1_555
C133_3 C131_3 1_555 1_555
N12_3 C132_3 1_555 1_555
H93_3 C132_3 1_555 1_555
H94_3 C133_3 1_555 1_555
C135_3 N12_3 1_555 1_555
Cu10_2 N12_3 1_555 1_555
Cu7_4 N11_2 1_555 1_555
N14_3 Cu1_2 1_555 1_555
Cu11_2 N8_2 1_555 1_555
I7_2 Cu10_2 1_555 1_555
I9_2 Cu10_2 1_555 1_555
C4_3 C6_3 1_555 1_555
C10_3 C11_3 1_555 1_555
C17_3 C18_3 1_555 1_555
C27_3 C29_3 1_555 1_555
C33_3 C34_3 1_555 1_555
C83_3 C85_3 1_555 1_555
C88_3 C90_3 1_555 1_555
C89_3 C90_3 1_555 1_555
C117_3 C119_3 1_555 1_555
C123_3 C124_3 1_555 1_555
C129_3 C130_3 1_555 1_555
Cu12_3 I5_3 1_555 1_555
I6_3 Cu12_3 1_555 1_555
H7_3 C9_3 1_555 1_555
N4_2 C36_3 1_555 1_555
C36_3 C38_3 1_555 1_555
C37_3 N4_2 1_555 1_555
C38_3 C40_3 1_555 1_555
H25_3 C36_3 1_555 1_555
H26_3 C37_3 1_555 1_555
C39_3 C37_3 1_555 1_555
C40_3 C42_3 1_555 1_555
C41_3 C38_3 1_555 1_555
H27_3 C39_3 1_555 1_555
C43_3 C40_3 1_555 1_555
H28_3 C41_3 1_555 1_555
H30_3 C43_3 1_555 1_555
C45_3 C43_3 1_555 1_555
C46_3 C12_4 1_555 1_555
H32_3 C45_3 1_555 1_555
C47_3 C12_4 1_555 1_555
C48_3 C47_3 1_555 1_555
C49_3 C47_3 1_555 1_555
C50_3 C48_3 1_555 1_555
H33_3 C48_3 1_555 1_555
C51_3 C49_3 1_555 1_555
H34_3 C49_3 1_555 1_555
H35_3 C50_3 1_555 1_555
C52_3 C50_3 1_555 1_555
H36_3 C51_3 1_555 1_555
C53_3 C52_3 1_555 1_555
C54_3 C53_3 1_555 1_555
C55_3 C53_3 1_555 1_555
N5_3 C54_3 1_555 1_555
H37_3 C54_3 1_555 1_555
H38_3 C55_3 1_555 1_555
C57_3 N5_3 1_555 1_555
Cu3_2 I1_4 1_555 1_555
N9_2 Cu3_2 1_555 1_555
C91_3 N9_2 1_555 1_555
C92_3 N9_2 1_555 1_555
C93_3 C91_3 1_555 1_555
H65_3 C91_3 1_555 1_555
H66_3 C92_3 1_555 1_555
C94_3 C92_3 1_555 1_555
C95_3 C93_3 1_555 1_555
C96_3 C93_3 1_555 1_555
H67_3 C94_3 1_555 1_555
C97_3 C95_3 1_555 1_555
C98_3 C95_3 1_555 1_555
H68_3 C96_3 1_555 1_555
H70_3 C98_3 1_555 1_555
C100_3 C98_3 1_555 1_555
H72_3 C100_3 1_555 1_555
C102_4 C101_3 1_555 1_555
C103_3 C102_4 1_555 1_555
C104_3 C103_3 1_555 1_555
C105_3 C103_3 1_555 1_555
C106_3 C104_3 1_555 1_555
H73_3 C104_3 1_555 1_555
C107_3 C105_3 1_555 1_555
H74_3 C105_3 1_555 1_555
H75_3 C106_3 1_555 1_555
C108_3 C106_3 1_555 1_555
H76_3 C107_3 1_555 1_555
C109_3 C108_3 1_555 1_555
C110_3 C109_3 1_555 1_555
C111_3 C109_3 1_555 1_555
N10_3 C110_3 1_555 1_555
H77_3 C110_3 1_555 1_555
H78_3 C111_3 1_555 1_555
Cu9_2 N10_3 1_555 1_555
C113_3 N10_3 1_555 1_555
I5_4 Cu9_2 1_555 1_555
I6_4 Cu9_2 1_555 1_555
H87_3 C122_3 1_555 1_555
Cu11_2 N5_3 1_555 1_555
Cu8_4 N4_2 1_555 1_555
N13_3 Cu3_2 1_555 1_555
I8_2 Cu11_2 1_555 1_555
I10_2 Cu11_2 1_555 1_555
C39_3 C41_3 1_555 1_555
C45_3 C46_3 1_555 1_555
C51_3 C52_3 1_555 1_555
C94_3 C96_3 1_555 1_555
C100_3 C101_3 1_555 1_555
C107_3 C108_3 1_555 1_555
H95_3 C134_3 1_555 1_555
H79_3 C112_3 1_555 1_555
I4_5 Cu7_3 1_555 1_555
N14_4 Cu7_3 1_555 1_555
I4_6 Cu7_4 1_555 1_555
Cu13_4 I7_2 1_555 1_555
I9_2 Cu13_4 1_555 1_555
Cu8_3 I1_5 1_555 1_555
N13_4 Cu8_3 1_555 1_555
Cu8_4 I1_6 1_555 1_555
Cu12_4 I8_2 1_555 1_555
I10_2 Cu12_4 1_555 1_555
H79_4 C112_4 1_555 1_555
H95_4 C134_4 1_555 1_555
H7_4 C9_4 1_555 1_555
N14_4 C36_4 1_555 1_555
C36_4 C38_4 1_555 1_555
C37_4 N14_4 1_555 1_555
C38_4 C40_4 1_555 1_555
H25_4 C36_4 1_555 1_555
H26_4 C37_4 1_555 1_555
C39_4 C37_4 1_555 1_555
C40_4 C42_4 1_555 1_555
C41_4 C38_4 1_555 1_555
H27_4 C39_4 1_555 1_555
C43_4 C40_4 1_555 1_555
H28_4 C41_4 1_555 1_555
H30_4 C43_4 1_555 1_555
C45_4 C43_4 1_555 1_555
C46_4 C12_5 1_555 1_555
H32_4 C45_4 1_555 1_555
C47_4 C12_5 1_555 1_555
C48_4 C47_4 1_555 1_555
C49_4 C47_4 1_555 1_555
C50_4 C48_4 1_555 1_555
H33_4 C48_4 1_555 1_555
C51_4 C49_4 1_555 1_555
H34_4 C49_4 1_555 1_555
H35_4 C50_4 1_555 1_555
C52_4 C50_4 1_555 1_555
H36_4 C51_4 1_555 1_555
C53_4 C52_4 1_555 1_555
C54_4 C53_4 1_555 1_555
C55_4 C53_4 1_555 1_555
N5_4 C54_4 1_555 1_555
H37_4 C54_4 1_555 1_555
H38_4 C55_4 1_555 1_555
C57_4 N5_4 1_555 1_555
C91_4 N14_3 1_555 1_555
C92_4 N14_3 1_555 1_555
C93_4 C91_4 1_555 1_555
H65_4 C91_4 1_555 1_555
H66_4 C92_4 1_555 1_555
C94_4 C92_4 1_555 1_555
C95_4 C93_4 1_555 1_555
C96_4 C93_4 1_555 1_555
H67_4 C94_4 1_555 1_555
C97_4 C95_4 1_555 1_555
C98_4 C95_4 1_555 1_555
H68_4 C96_4 1_555 1_555
H70_4 C98_4 1_555 1_555
C100_4 C98_4 1_555 1_555
H72_4 C100_4 1_555 1_555
C102_5 C101_4 1_555 1_555
C103_4 C102_5 1_555 1_555
C104_4 C103_4 1_555 1_555
C105_4 C103_4 1_555 1_555
C106_4 C104_4 1_555 1_555
H73_4 C104_4 1_555 1_555
C107_4 C105_4 1_555 1_555
H74_4 C105_4 1_555 1_555
H75_4 C106_4 1_555 1_555
C108_4 C106_4 1_555 1_555
H76_4 C107_4 1_555 1_555
C109_4 C108_4 1_555 1_555
C110_4 C109_4 1_555 1_555
C111_4 C109_4 1_555 1_555
N10_4 C110_4 1_555 1_555
H77_4 C110_4 1_555 1_555
H78_4 C111_4 1_555 1_555
Cu13_3 N10_4 1_555 1_555
C113_4 N10_4 1_555 1_555
H87_4 C122_4 1_555 1_555
Cu13_4 N5_4 1_555 1_555
N15_2 Cu13_3 1_555 1_555
N17_2 Cu13_4 1_555 1_555
C39_4 C41_4 1_555 1_555
C45_4 C46_4 1_555 1_555
C51_4 C52_4 1_555 1_555
C94_4 C96_4 1_555 1_555
C100_4 C101_4 1_555 1_555
C107_4 C108_4 1_555 1_555
N13_3 C1_4 1_555 1_555
C1_4 C3_4 1_555 1_555
C2_4 N13_3 1_555 1_555
C3_4 C5_4 1_555 1_555
H1_4 C1_4 1_555 1_555
H2_4 C2_4 1_555 1_555
C4_4 C2_4 1_555 1_555
C5_4 C7_4 1_555 1_555
C6_4 C3_4 1_555 1_555
H3_4 C4_4 1_555 1_555
C8_4 C5_4 1_555 1_555
H4_4 C6_4 1_555 1_555
H6_4 C8_4 1_555 1_555
C10_4 C8_4 1_555 1_555
H8_4 C10_4 1_555 1_555
C12_6 C11_4 1_555 1_555
C13_4 C12_6 1_555 1_555
C14_4 C13_4 1_555 1_555
C15_4 C13_4 1_555 1_555
C16_4 C14_4 1_555 1_555
H9_4 C14_4 1_555 1_555
C17_4 C15_4 1_555 1_555
H10_4 C15_4 1_555 1_555
H11_4 C16_4 1_555 1_555
C18_4 C16_4 1_555 1_555
H12_4 C17_4 1_555 1_555
C19_4 C18_4 1_555 1_555
C20_4 C19_4 1_555 1_555
C21_4 C19_4 1_555 1_555
N2_4 C20_4 1_555 1_555
H13_4 C20_4 1_555 1_555
H14_4 C21_4 1_555 1_555
Cu12_3 N2_4 1_555 1_555
C23_4 N2_4 1_555 1_555
N3_4 Cu12_3 1_555 1_555
C24_4 N3_4 1_555 1_555
C25_4 N3_4 1_555 1_555
H17_4 C24_4 1_555 1_555
C26_4 C24_4 1_555 1_555
H18_4 C25_4 1_555 1_555
C27_4 C25_4 1_555 1_555
C28_4 C26_4 1_555 1_555
C29_4 C26_4 1_555 1_555
H19_4 C27_4 1_555 1_555
C30_4 C28_4 1_555 1_555
C31_4 C28_4 1_555 1_555
H20_4 C29_4 1_555 1_555
H21_4 C30_4 1_555 1_555
C32_4 C30_4 1_555 1_555
H22_4 C31_4 1_555 1_555
C33_4 C31_4 1_555 1_555
C34_4 C32_4 1_555 1_555
H24_4 C33_4 1_555 1_555
C35_7 C34_4 1_555 1_555
H31_4 C44_4 1_555 1_555
N17_2 C80_4 1_555 1_555
C80_4 H57_4 1_555 1_555
C81_4 N17_2 1_555 1_555
C82_4 C80_4 1_555 1_555
H58_4 C81_4 1_555 1_555
C83_4 C81_4 1_555 1_555
C84_4 C82_4 1_555 1_555
C85_4 C82_4 1_555 1_555
H59_4 C83_4 1_555 1_555
C86_4 C84_4 1_555 1_555
C87_4 C84_4 1_555 1_555
H60_4 C85_4 1_555 1_555
H61_4 C86_4 1_555 1_555
C88_4 C86_4 1_555 1_555
H62_4 C87_4 1_555 1_555
C89_4 C87_4 1_555 1_555
C90_4 C35_7 1_555 1_555
H64_4 C89_4 1_555 1_555
H71_4 C99_4 1_555 1_555
N13_4 C114_4 1_555 1_555
C114_4 C116_4 1_555 1_555
C115_4 N13_4 1_555 1_555
C116_4 C118_4 1_555 1_555
H81_4 C114_4 1_555 1_555
H82_4 C115_4 1_555 1_555
C117_4 C115_4 1_555 1_555
C118_4 C120_4 1_555 1_555
C119_4 C116_4 1_555 1_555
H83_4 C117_4 1_555 1_555
C121_4 C118_4 1_555 1_555
H84_4 C119_4 1_555 1_555
H86_4 C121_4 1_555 1_555
C123_4 C121_4 1_555 1_555
C124_4 C102_6 1_555 1_555
H88_4 C123_4 1_555 1_555
C125_4 C102_6 1_555 1_555
C126_4 C125_4 1_555 1_555
C127_4 C125_4 1_555 1_555
C128_4 C126_4 1_555 1_555
H89_4 C126_4 1_555 1_555
C129_4 C127_4 1_555 1_555
H90_4 C127_4 1_555 1_555
H91_4 C128_4 1_555 1_555
C130_4 C128_4 1_555 1_555
H92_4 C129_4 1_555 1_555
C131_4 C130_4 1_555 1_555
C132_4 C131_4 1_555 1_555
C133_4 C131_4 1_555 1_555
N12_4 C132_4 1_555 1_555
H93_4 C132_4 1_555 1_555
H94_4 C133_4 1_555 1_555
C135_4 N12_4 1_555 1_555
Cu12_4 N12_4 1_555 1_555
N16_2 Cu12_4 1_555 1_555
C4_4 C6_4 1_555 1_555
C10_4 C11_4 1_555 1_555
C17_4 C18_4 1_555 1_555
C27_4 C29_4 1_555 1_555
C33_4 C34_4 1_555 1_555
C83_4 C85_4 1_555 1_555
C88_4 C90_4 1_555 1_555
C89_4 C90_4 1_555 1_555
C117_4 C119_4 1_555 1_555
C123_4 C124_4 1_555 1_555
C129_4 C130_4 1_555 1_555
H39_4 C56_4 1_555 1_555
H15_4 C22_4 1_555 1_555
N15_2 C58_4 1_555 1_555
C58_4 H41_4 1_555 1_555
C59_4 N15_2 1_555 1_555
C60_4 C58_4 1_555 1_555
H42_4 C59_4 1_555 1_555
C61_4 C59_4 1_555 1_555
C62_4 C60_4 1_555 1_555
C63_4 C60_4 1_555 1_555
H43_4 C61_4 1_555 1_555
C64_4 C62_4 1_555 1_555
C65_4 C62_4 1_555 1_555
H44_4 C63_4 1_555 1_555
H45_4 C64_4 1_555 1_555
C66_4 C64_4 1_555 1_555
H46_4 C65_4 1_555 1_555
C67_4 C65_4 1_555 1_555
C68_4 C35_8 1_555 1_555
H48_4 C67_4 1_555 1_555
N16_2 C69_4 1_555 1_555
C69_4 H49_4 1_555 1_555
C70_4 N16_2 1_555 1_555
C71_4 C69_4 1_555 1_555
H50_4 C70_4 1_555 1_555
C72_4 C70_4 1_555 1_555
C73_4 C71_4 1_555 1_555
C74_4 C71_4 1_555 1_555
H51_4 C72_4 1_555 1_555
C75_4 C73_4 1_555 1_555
C76_4 C73_4 1_555 1_555
H52_4 C74_4 1_555 1_555
H53_4 C75_4 1_555 1_555
C77_4 C75_4 1_555 1_555
H54_4 C76_4 1_555 1_555
C78_4 C76_4 1_555 1_555
C79_4 C35_8 1_555 1_555
H56_4 C78_4 1_555 1_555
C61_4 C63_4 1_555 1_555
C66_4 C68_4 1_555 1_555
C67_4 C68_4 1_555 1_555
C72_4 C74_4 1_555 1_555
C77_4 C79_4 1_555 1_555
C78_4 C79_4 1_555 1_555

#END
