
###############################################################################
#
# This file contains modified crystal structure data generated from the
# MOF subset of the Cambridge Structural Database (CSD) v543 
# hosted by the Cambridge Crystallographic Data Centre (CCDC).
#
# This work is licensed under the Creative Commons
# Attribution-NonCommercial-ShareAlike 4.0 International License.
# To view a copy of this license, visit
# http://creativecommons.org/licenses/by-nc-sa/4.0/
# or send a letter to
# Creative Commons, PO Box 1866, Mountain View, CA 94042, USA.
#
# CIF created using the CSD Python API on 29 September 2022
# The structure has been converted into the P1 space group
# The structure has a 3D framework
# The original CSD entry ABELOM01 is in the orthorhombic crystal system
# The framework has been calculated to contain at least 10.0% void space
# The void calculation uses a probe of radius 1.32A, grid spacing 0.4
#
###############################################################################

data_ABELOM01
_chemical_formula_moiety         '(C548 H384 Cu28 I20 N48)n'
_symmetry_cell_setting           triclinic
_symmetry_space_group_name_H-M   'P 1'
_symmetry_Int_Tables_number      1
_space_group_name_Hall           'P 1'
loop_
_symmetry_equiv_pos_site_id
_symmetry_equiv_pos_as_xyz
1 x,y,z
_cell_length_a                   25.1612(11)
_cell_length_b                   28.4889(12)
_cell_length_c                   26.7526(10)
_cell_angle_alpha                90
_cell_angle_beta                 90
_cell_angle_gamma                90
_cell_volume                     19176.7
loop_
_atom_site_label
_atom_site_type_symbol
_atom_site_fract_x
_atom_site_fract_y
_atom_site_fract_z
C4 C 0.500000 0.000000 0.750000
N6 N 0.6414(4) 0.1972(3) 0.9172(3)
C58 C 0.5348(3) 0.0334(3) 0.7810(3)
C59 C 0.5992(4) 0.0990(3) 0.8319(3)
C60 C 0.5540(4) 0.0811(3) 0.8533(3)
H41 H 0.544315 0.090296 0.886186
C61 C 0.5219(3) 0.0492(3) 0.8267(3)
H42 H 0.489963 0.038385 0.841760
C62 C 0.6129(4) 0.1643(4) 0.8916(4)
H43 H 0.575474 0.163737 0.896060
C63 C 0.6352(4) 0.1317(4) 0.8596(4)
C64 C 0.6109(4) 0.0849(3) 0.7833(4)
H44 H 0.641227 0.097280 0.766891
C65 C 0.5785(4) 0.0527(3) 0.7585(3)
H45 H 0.587001 0.043971 0.725122
C66 C 0.6939(5) 0.1929(4) 0.9155(5)
H46 H 0.714482 0.213395 0.935805
C67 C 0.6903(5) 0.1324(5) 0.8586(6)
H47 H 0.708847 0.111359 0.837209
C68 C 0.7187(5) 0.1634(5) 0.8886(6)
H48 H 0.756404 0.162523 0.888891
N8 N 0.3586(4) 0.1972(3) 0.5828(3)
C80 C 0.4652(3) 0.0334(3) 0.7190(3)
C81 C 0.4008(4) 0.0990(3) 0.6681(3)
C82 C 0.4460(4) 0.0811(3) 0.6467(3)
H57 H 0.455685 0.090296 0.613814
C83 C 0.4781(3) 0.0492(3) 0.6733(3)
H58 H 0.510037 0.038385 0.658240
C84 C 0.3871(4) 0.1643(4) 0.6084(4)
H59 H 0.424526 0.163737 0.603940
C85 C 0.3648(4) 0.1317(4) 0.6404(4)
C86 C 0.3891(4) 0.0849(3) 0.7167(4)
H60 H 0.358773 0.097280 0.733109
C87 C 0.4215(4) 0.0527(3) 0.7415(3)
H61 H 0.412999 0.043971 0.774878
C88 C 0.3061(5) 0.1929(4) 0.5845(5)
H62 H 0.285518 0.213395 0.564195
C89 C 0.3097(5) 0.1324(5) 0.6414(6)
H63 H 0.291153 0.111359 0.662791
C90 C 0.2813(5) 0.1634(5) 0.6114(6)
H64 H 0.243596 0.162523 0.611109
Cu9 Cu 0.60049(5) 0.25178(4) 0.95130(4)
Cu11 Cu 0.39951(5) 0.25178(4) 0.54870(4)
I2 I 0.32975(4) 0.69586(3) 0.000000
I3 I 0.48241(5) 0.77934(4) 0.000000
Cu8 Cu 0.03083(7) 0.46411(7) 0.000000
Cu13 Cu 0.39951(5) 0.74822(4) 0.04870(4)
I1 I 0.07276(4) 0.45158(3) 0.500000
I2_2 I 0.32975(4) 0.69586(3) 1.000000
I3_2 I 0.48241(5) 0.77934(4) 1.000000
Cu1 Cu 0.03083(7) 0.53589(7) 0.500000
Cu2 Cu 0.39951(5) 0.74822(4) 0.95130(4)
N1 N 0.0621(3) 0.5752(3) 0.5592(3)
N2 N 0.3586(4) 0.8028(3) 0.9172(3)
C1 C 0.4652(3) 0.9666(3) 0.7810(3)
C2 C 0.4008(4) 0.9010(3) 0.8319(3)
C3 C 0.1718(4) 0.5644(3) 0.6510(3)
C4_2 C 0.500000 1.000000 0.750000
C5 C 0.4460(4) 0.9189(3) 0.8533(3)
H1 H 0.455685 0.909704 0.886186
C6 C 0.4781(3) 0.9508(3) 0.8267(3)
H2 H 0.510037 0.961615 0.841760
C7 C 0.3871(4) 0.8357(4) 0.8916(4)
H3 H 0.424526 0.836263 0.896060
C8 C 0.1736(3) 0.5168(4) 0.6601(3)
H4 H 0.147844 0.496805 0.645300
C9 C 0.2518(3) 0.5246(3) 0.7122(3)
C10 C 0.1267(4) 0.5847(3) 0.6218(3)
C11 C 0.3648(4) 0.8683(4) 0.8596(4)
C12 C 0.2122(3) 0.4981(4) 0.6902(3)
H5 H 0.211766 0.465227 0.696251
C13 C 0.2119(4) 0.5914(3) 0.6722(3)
H6 H 0.212600 0.624227 0.665779
C14 C 0.1028(4) 0.5596(3) 0.5861(3)
H7 H 0.115753 0.528921 0.579456
C15 C 0.3891(4) 0.9151(3) 0.7833(4)
H8 H 0.358773 0.902720 0.766891
C16 C 0.4215(4) 0.9473(3) 0.7585(3)
H9 H 0.412999 0.956029 0.725122
N3 N 0.4344(4) 0.7066(3) 0.8963(3)
C17 C 0.0457(4) 0.6187(4) 0.5674(4)
H10 H 0.016635 0.630326 0.548449
C18 C 0.3547(4) 0.5808(4) 0.8472(4)
H11 H 0.352117 0.587330 0.881932
C19 C 0.2890(4) 0.500000 0.750000
C20 C 0.1102(5) 0.6300(4) 0.6289(4)
H12 H 0.127487 0.649678 0.652462
C21 C 0.2503(4) 0.5723(3) 0.7019(4)
H13 H 0.276665 0.592161 0.715877
C22 C 0.3911(4) 0.6052(4) 0.8184(4)
C23 C 0.3222(4) 0.5475(4) 0.8264(4)
H14 H 0.297111 0.531882 0.847003
C24 C 0.0678(5) 0.6466(4) 0.6009(4)
H15 H 0.054866 0.677595 0.605667
C25 C 0.4257(4) 0.6427(4) 0.8391(4)
C26 C 0.3061(5) 0.8071(4) 0.9155(5)
H16 H 0.285518 0.786605 0.935805
C27 C 0.3250(4) 0.5360(4) 0.7762(4)
C28 C 0.3097(5) 0.8676(5) 0.8586(6)
H17 H 0.291153 0.888641 0.837209
C29 C 0.3959(4) 0.5928(4) 0.7671(4)
H18 H 0.421980 0.607629 0.746896
C30 C 0.2813(5) 0.8366(5) 0.8886(6)
H19 H 0.243596 0.837477 0.888891
C31 C 0.3639(3) 0.5604(4) 0.7470(4)
H20 H 0.367011 0.553335 0.712388
C32 C 0.4049(4) 0.6725(4) 0.8757(4)
H21 H 0.369132 0.668558 0.886179
C33 C 0.4777(5) 0.6487(5) 0.8251(6)
H22 H 0.493305 0.628758 0.800702
C34 C 0.4838(4) 0.7113(5) 0.8820(5)
H23 H 0.504284 0.735382 0.897333
C35 C 0.5077(6) 0.6850(6) 0.8475(6)
H24 H 0.543604 0.690423 0.838299
N4 N 0.0621(3) 0.4248(3) 0.9408(3)
C36 C 0.1718(4) 0.4356(3) 0.8490(3)
C37 C 0.1736(3) 0.4832(4) 0.8399(3)
H25 H 0.147844 0.503195 0.854700
C38 C 0.2518(3) 0.4754(3) 0.7878(3)
C39 C 0.1267(4) 0.4153(3) 0.8782(3)
C40 C 0.2122(3) 0.5019(4) 0.8098(3)
H26 H 0.211766 0.534773 0.803749
C41 C 0.2119(4) 0.4086(3) 0.8278(3)
H27 H 0.212600 0.375773 0.834221
C42 C 0.1028(4) 0.4404(3) 0.9139(3)
H28 H 0.115753 0.471079 0.920544
N5 N 0.4344(4) 0.2934(3) 0.6037(3)
C43 C 0.0457(4) 0.3813(4) 0.9326(4)
H29 H 0.016635 0.369674 0.951551
C44 C 0.3547(4) 0.4192(4) 0.6528(4)
H30 H 0.352117 0.412670 0.618068
C45 C 0.1102(5) 0.3700(4) 0.8711(4)
H31 H 0.127487 0.350322 0.847538
C46 C 0.2503(4) 0.4277(3) 0.7981(4)
H32 H 0.276665 0.407839 0.784123
C47 C 0.3911(4) 0.3948(4) 0.6816(4)
C48 C 0.3222(4) 0.4525(4) 0.6736(4)
H33 H 0.297111 0.468118 0.652997
C49 C 0.0678(5) 0.3534(4) 0.8991(4)
H34 H 0.054866 0.322405 0.894333
C50 C 0.4257(4) 0.3573(4) 0.6609(4)
C51 C 0.3250(4) 0.4640(4) 0.7238(4)
C52 C 0.3959(4) 0.4072(4) 0.7329(4)
H35 H 0.421980 0.392371 0.753104
C53 C 0.3639(3) 0.4396(4) 0.7530(4)
H36 H 0.367011 0.446665 0.787612
C54 C 0.4049(4) 0.3275(4) 0.6243(4)
H37 H 0.369132 0.331442 0.613821
C55 C 0.4777(5) 0.3513(5) 0.6749(6)
H38 H 0.493305 0.371242 0.699298
C56 C 0.4838(4) 0.2887(5) 0.6180(5)
H39 H 0.504284 0.264618 0.602667
C57 C 0.5077(6) 0.3150(6) 0.6525(6)
H40 H 0.543604 0.309577 0.661701
N7 N 0.6414(4) 0.8028(3) 0.5828(3)
C69 C 0.5348(3) 0.9666(3) 0.7190(3)
C70 C 0.5992(4) 0.9010(3) 0.6681(3)
C71 C 0.5540(4) 0.9189(3) 0.6467(3)
H49 H 0.544315 0.909704 0.613814
C72 C 0.5219(3) 0.9508(3) 0.6733(3)
H50 H 0.489963 0.961615 0.658240
C73 C 0.6129(4) 0.8357(4) 0.6084(4)
H51 H 0.575474 0.836263 0.603940
C74 C 0.6352(4) 0.8683(4) 0.6404(4)
C75 C 0.6109(4) 0.9151(3) 0.7167(4)
H52 H 0.641227 0.902720 0.733109
C76 C 0.5785(4) 0.9473(3) 0.7415(3)
H53 H 0.587001 0.956029 0.774878
C77 C 0.6939(5) 0.8071(4) 0.5845(5)
H54 H 0.714482 0.786605 0.564195
C78 C 0.6903(5) 0.8676(5) 0.6414(6)
H55 H 0.708847 0.888641 0.662791
C79 C 0.7187(5) 0.8366(5) 0.6114(6)
H56 H 0.756404 0.837477 0.611109
I8 I 0.32975(4) 0.30414(3) 0.500000
I10 I 0.48241(5) 0.22066(4) 0.500000
Cu8_2 Cu 0.03083(7) 0.46411(7) 1.000000
Cu10 Cu 0.60049(5) 0.74822(4) 0.54870(4)
N14 N 0.0621(3) 0.5752(3) 0.4408(3)
I5 I 0.67025(4) 0.30414(3) 0.000000
I6 I 0.51759(5) 0.22066(4) 0.000000
Cu7 Cu 0.96917(7) 0.53589(7) 0.000000
Cu12 Cu 0.60049(5) 0.25178(4) 0.04870(4)
I4 I 0.92724(4) 0.54842(3) 0.500000
I5_2 I 0.67025(4) 0.30414(3) 1.000000
I6_2 I 0.51759(5) 0.22066(4) 1.000000
Cu3 Cu 0.96917(7) 0.46411(7) 0.500000
N9 N 0.9379(3) 0.4248(3) 0.5592(3)
C91 C 0.8282(4) 0.4356(3) 0.6510(3)
C92 C 0.8264(3) 0.4832(4) 0.6601(3)
H65 H 0.852156 0.503195 0.645300
C93 C 0.7482(3) 0.4754(3) 0.7122(3)
C94 C 0.8733(4) 0.4153(3) 0.6218(3)
C95 C 0.7878(3) 0.5019(4) 0.6902(3)
H66 H 0.788234 0.534773 0.696251
C96 C 0.7881(4) 0.4086(3) 0.6722(3)
H67 H 0.787400 0.375773 0.665779
C97 C 0.8972(4) 0.4404(3) 0.5861(3)
H68 H 0.884247 0.471079 0.579456
N10 N 0.5656(4) 0.2934(3) 0.8963(3)
C98 C 0.9543(4) 0.3813(4) 0.5674(4)
H69 H 0.983365 0.369674 0.548449
C99 C 0.6453(4) 0.4192(4) 0.8472(4)
H70 H 0.647883 0.412670 0.881932
C100 C 0.7110(4) 0.500000 0.750000
C101 C 0.8898(5) 0.3700(4) 0.6289(4)
H71 H 0.872513 0.350322 0.652462
C102 C 0.7497(4) 0.4277(3) 0.7019(4)
H72 H 0.723335 0.407839 0.715877
C103 C 0.6089(4) 0.3948(4) 0.8184(4)
C104 C 0.6778(4) 0.4525(4) 0.8264(4)
H73 H 0.702889 0.468118 0.847003
C105 C 0.9322(5) 0.3534(4) 0.6009(4)
H74 H 0.945134 0.322405 0.605667
C106 C 0.5743(4) 0.3573(4) 0.8391(4)
C107 C 0.6750(4) 0.4640(4) 0.7762(4)
C108 C 0.6041(4) 0.4072(4) 0.7671(4)
H75 H 0.578020 0.392371 0.746896
C109 C 0.6361(3) 0.4396(4) 0.7470(4)
H76 H 0.632989 0.446665 0.712388
C110 C 0.5951(4) 0.3275(4) 0.8757(4)
H77 H 0.630868 0.331442 0.886179
C111 C 0.5223(5) 0.3513(5) 0.8251(6)
H78 H 0.506695 0.371242 0.800702
C112 C 0.5162(4) 0.2887(5) 0.8820(5)
H79 H 0.495716 0.264618 0.897333
C113 C 0.4923(6) 0.3150(6) 0.8475(6)
H80 H 0.456396 0.309577 0.838299
N11 N 0.9379(3) 0.5752(3) 0.9408(3)
C114 C 0.8282(4) 0.5644(3) 0.8490(3)
C115 C 0.8264(3) 0.5168(4) 0.8399(3)
H81 H 0.852156 0.496805 0.854700
C116 C 0.7482(3) 0.5246(3) 0.7878(3)
C117 C 0.8733(4) 0.5847(3) 0.8782(3)
C118 C 0.7878(3) 0.4981(4) 0.8098(3)
H82 H 0.788234 0.465227 0.803749
C119 C 0.7881(4) 0.5914(3) 0.8278(3)
H83 H 0.787400 0.624227 0.834221
C120 C 0.8972(4) 0.5596(3) 0.9139(3)
H84 H 0.884247 0.528921 0.920544
N12 N 0.5656(4) 0.7066(3) 0.6037(3)
C121 C 0.9543(4) 0.6187(4) 0.9326(4)
H85 H 0.983365 0.630326 0.951551
C122 C 0.6453(4) 0.5808(4) 0.6528(4)
H86 H 0.647883 0.587330 0.618068
C123 C 0.8898(5) 0.6300(4) 0.8711(4)
H87 H 0.872513 0.649678 0.847538
C124 C 0.7497(4) 0.5723(3) 0.7981(4)
H88 H 0.723335 0.592161 0.784123
C125 C 0.6089(4) 0.6052(4) 0.6816(4)
C126 C 0.6778(4) 0.5475(4) 0.6736(4)
H89 H 0.702889 0.531882 0.652997
C127 C 0.9322(5) 0.6466(4) 0.8991(4)
H90 H 0.945134 0.677595 0.894333
C128 C 0.5743(4) 0.6427(4) 0.6609(4)
C129 C 0.6750(4) 0.5360(4) 0.7238(4)
C130 C 0.6041(4) 0.5928(4) 0.7329(4)
H91 H 0.578020 0.607629 0.753104
C131 C 0.6361(3) 0.5604(4) 0.7530(4)
H92 H 0.632989 0.553335 0.787612
C132 C 0.5951(4) 0.6725(4) 0.6243(4)
H93 H 0.630868 0.668558 0.613821
C133 C 0.5223(5) 0.6487(5) 0.6749(6)
H94 H 0.506695 0.628758 0.699298
C134 C 0.5162(4) 0.7113(5) 0.6180(5)
H95 H 0.495716 0.735382 0.602667
C135 C 0.4923(6) 0.6850(6) 0.6525(6)
H96 H 0.456396 0.690423 0.661701
I7 I 0.67025(4) 0.69586(3) 0.500000
I9 I 0.51759(5) 0.77934(4) 0.500000
Cu7_2 Cu 0.96917(7) 0.53589(7) 1.000000
N13 N 0.9379(3) 0.4248(3) 0.4408(3)
I4_2 I 0.07276(4) 0.54842(3) 0.000000
N13_2 N 0.0621(3) 0.4248(3) 0.0592(3)
I4_3 I 0.07276(4) 0.54842(3) 1.000000
Cu12_2 Cu 0.39951(5) 0.25178(4) 0.45130(4)
I1_2 I 0.92724(4) 0.45158(3) 0.000000
N14_2 N 0.9379(3) 0.5752(3) 0.0592(3)
I1_3 I 0.92724(4) 0.45158(3) 1.000000
Cu13_2 Cu 0.60049(5) 0.74822(4) 0.45130(4)
C91_2 C 0.1718(4) 0.5644(3) 0.3490(3)
C92_2 C 0.1736(3) 0.5168(4) 0.3399(3)
H65_2 H 0.147844 0.496805 0.354700
C93_2 C 0.2518(3) 0.5246(3) 0.2878(3)
C94_2 C 0.1267(4) 0.5847(3) 0.3782(3)
C95_2 C 0.2122(3) 0.4981(4) 0.3098(3)
H66_2 H 0.211766 0.465227 0.303749
C96_2 C 0.2119(4) 0.5914(3) 0.3278(3)
H67_2 H 0.212600 0.624227 0.334221
C97_2 C 0.1028(4) 0.5596(3) 0.4139(3)
H68_2 H 0.115753 0.528921 0.420544
N10_2 N 0.4344(4) 0.7066(3) 0.1037(3)
C98_2 C 0.0457(4) 0.6187(4) 0.4326(4)
H69_2 H 0.016635 0.630326 0.451551
C99_2 C 0.3547(4) 0.5808(4) 0.1528(4)
H70_2 H 0.352117 0.587330 0.118068
C100_2 C 0.2890(4) 0.500000 0.250000
C101_2 C 0.1102(5) 0.6300(4) 0.3711(4)
H71_2 H 0.127487 0.649678 0.347538
C102_2 C 0.2503(4) 0.5723(3) 0.2981(4)
H72_2 H 0.276665 0.592161 0.284123
C103_2 C 0.3911(4) 0.6052(4) 0.1816(4)
C104_2 C 0.3222(4) 0.5475(4) 0.1736(4)
H73_2 H 0.297111 0.531882 0.152997
C105_2 C 0.0678(5) 0.6466(4) 0.3991(4)
H74_2 H 0.054866 0.677595 0.394333
C106_2 C 0.4257(4) 0.6427(4) 0.1609(4)
C107_2 C 0.3250(4) 0.5360(4) 0.2238(4)
C108_2 C 0.3959(4) 0.5928(4) 0.2329(4)
H75_2 H 0.421980 0.607629 0.253104
C109_2 C 0.3639(3) 0.5604(4) 0.2530(4)
H76_2 H 0.367011 0.553335 0.287612
C110_2 C 0.4049(4) 0.6725(4) 0.1243(4)
H77_2 H 0.369132 0.668558 0.113821
C111_2 C 0.4777(5) 0.6487(5) 0.1749(6)
H78_2 H 0.493305 0.628758 0.199298
C112_2 C 0.4838(4) 0.7113(5) 0.1180(5)
H79_2 H 0.504284 0.735382 0.102667
C113_2 C 0.5077(6) 0.6850(6) 0.1525(6)
H80_2 H 0.543604 0.690423 0.161701
C114_2 C 0.1718(4) 0.4356(3) 0.1510(3)
C115_2 C 0.1736(3) 0.4832(4) 0.1601(3)
H81_2 H 0.147844 0.503195 0.145300
C116_2 C 0.2518(3) 0.4754(3) 0.2122(3)
C117_2 C 0.1267(4) 0.4153(3) 0.1218(3)
C118_2 C 0.2122(3) 0.5019(4) 0.1902(3)
H82_2 H 0.211766 0.534773 0.196251
C119_2 C 0.2119(4) 0.4086(3) 0.1722(3)
H83_2 H 0.212600 0.375773 0.165779
C120_2 C 0.1028(4) 0.4404(3) 0.0861(3)
H84_2 H 0.115753 0.471079 0.079456
N12_2 N 0.4344(4) 0.2934(3) 0.3963(3)
C121_2 C 0.0457(4) 0.3813(4) 0.0674(4)
H85_2 H 0.016635 0.369674 0.048449
C122_2 C 0.3547(4) 0.4192(4) 0.3472(4)
H86_2 H 0.352117 0.412670 0.381932
C123_2 C 0.1102(5) 0.3700(4) 0.1289(4)
H87_2 H 0.127487 0.350322 0.152462
C124_2 C 0.2503(4) 0.4277(3) 0.2019(4)
H88_2 H 0.276665 0.407839 0.215877
C125_2 C 0.3911(4) 0.3948(4) 0.3184(4)
C126_2 C 0.3222(4) 0.4525(4) 0.3264(4)
H89_2 H 0.297111 0.468118 0.347003
C127_2 C 0.0678(5) 0.3534(4) 0.1009(4)
H90_2 H 0.054866 0.322405 0.105667
C128_2 C 0.4257(4) 0.3573(4) 0.3391(4)
C129_2 C 0.3250(4) 0.4640(4) 0.2762(4)
C130_2 C 0.3959(4) 0.4072(4) 0.2671(4)
H91_2 H 0.421980 0.392371 0.246896
C131_2 C 0.3639(3) 0.4396(4) 0.2470(4)
H92_2 H 0.367011 0.446665 0.212388
C132_2 C 0.4049(4) 0.3275(4) 0.3757(4)
H93_2 H 0.369132 0.331442 0.386179
C133_2 C 0.4777(5) 0.3513(5) 0.3251(6)
H94_2 H 0.493305 0.371242 0.300702
C134_2 C 0.4838(4) 0.2887(5) 0.3820(5)
H95_2 H 0.504284 0.264618 0.397333
C135_2 C 0.5077(6) 0.3150(6) 0.3475(6)
H96_2 H 0.543604 0.309577 0.338299
N15 N 0.3586(4) 0.8028(3) 0.0828(3)
N16 N 0.3586(4) 0.1972(3) 0.4172(3)
N2_2 N 0.6414(4) 0.1972(3) 0.0828(3)
C1_2 C 0.5348(3) 0.0334(3) 0.2190(3)
C2_2 C 0.5992(4) 0.0990(3) 0.1681(3)
C3_2 C 0.8282(4) 0.4356(3) 0.3490(3)
C4_3 C 0.500000 0.000000 0.250000
C5_2 C 0.5540(4) 0.0811(3) 0.1467(3)
H1_2 H 0.544315 0.090296 0.113814
C6_2 C 0.5219(3) 0.0492(3) 0.1733(3)
H2_2 H 0.489963 0.038385 0.158240
C7_2 C 0.6129(4) 0.1643(4) 0.1084(4)
H3_2 H 0.575474 0.163737 0.103940
C8_2 C 0.8264(3) 0.4832(4) 0.3399(3)
H4_2 H 0.852156 0.503195 0.354700
C9_2 C 0.7482(3) 0.4754(3) 0.2878(3)
C10_2 C 0.8733(4) 0.4153(3) 0.3782(3)
C11_2 C 0.6352(4) 0.1317(4) 0.1404(4)
C12_2 C 0.7878(3) 0.5019(4) 0.3098(3)
H5_2 H 0.788234 0.534773 0.303749
C13_2 C 0.7881(4) 0.4086(3) 0.3278(3)
H6_2 H 0.787400 0.375773 0.334221
C14_2 C 0.8972(4) 0.4404(3) 0.4139(3)
H7_2 H 0.884247 0.471079 0.420544
C15_2 C 0.6109(4) 0.0849(3) 0.2167(4)
H8_2 H 0.641227 0.097280 0.233109
C16_2 C 0.5785(4) 0.0527(3) 0.2415(3)
H9_2 H 0.587001 0.043971 0.274878
N3_2 N 0.5656(4) 0.2934(3) 0.1037(3)
C17_2 C 0.9543(4) 0.3813(4) 0.4326(4)
H10_2 H 0.983365 0.369674 0.451551
C18_2 C 0.6453(4) 0.4192(4) 0.1528(4)
H11_2 H 0.647883 0.412670 0.118068
C19_2 C 0.7110(4) 0.500000 0.250000
C20_2 C 0.8898(5) 0.3700(4) 0.3711(4)
H12_2 H 0.872513 0.350322 0.347538
C21_2 C 0.7497(4) 0.4277(3) 0.2981(4)
H13_2 H 0.723335 0.407839 0.284123
C22_2 C 0.6089(4) 0.3948(4) 0.1816(4)
C23_2 C 0.6778(4) 0.4525(4) 0.1736(4)
H14_2 H 0.702889 0.468118 0.152997
C24_2 C 0.9322(5) 0.3534(4) 0.3991(4)
H15_2 H 0.945134 0.322405 0.394333
C25_2 C 0.5743(4) 0.3573(4) 0.1609(4)
C26_2 C 0.6939(5) 0.1929(4) 0.0845(5)
H16_2 H 0.714482 0.213395 0.064195
C27_2 C 0.6750(4) 0.4640(4) 0.2238(4)
C28_2 C 0.6903(5) 0.1324(5) 0.1414(6)
H17_2 H 0.708847 0.111359 0.162791
C29_2 C 0.6041(4) 0.4072(4) 0.2329(4)
H18_2 H 0.578020 0.392371 0.253104
C30_2 C 0.7187(5) 0.1634(5) 0.1114(6)
H19_2 H 0.756404 0.162523 0.111109
C31_2 C 0.6361(3) 0.4396(4) 0.2530(4)
H20_2 H 0.632989 0.446665 0.287612
C32_2 C 0.5951(4) 0.3275(4) 0.1243(4)
H21_2 H 0.630868 0.331442 0.113821
C33_2 C 0.5223(5) 0.3513(5) 0.1749(6)
H22_2 H 0.506695 0.371242 0.199298
C34_2 C 0.5162(4) 0.2887(5) 0.1180(5)
H23_2 H 0.495716 0.264618 0.102667
C35_2 C 0.4923(6) 0.3150(6) 0.1525(6)
H24_2 H 0.456396 0.309577 0.161701
C36_2 C 0.8282(4) 0.5644(3) 0.1510(3)
C37_2 C 0.8264(3) 0.5168(4) 0.1601(3)
H25_2 H 0.852156 0.496805 0.145300
C38_2 C 0.7482(3) 0.5246(3) 0.2122(3)
C39_2 C 0.8733(4) 0.5847(3) 0.1218(3)
C40_2 C 0.7878(3) 0.4981(4) 0.1902(3)
H26_2 H 0.788234 0.465227 0.196251
C41_2 C 0.7881(4) 0.5914(3) 0.1722(3)
H27_2 H 0.787400 0.624227 0.165779
C42_2 C 0.8972(4) 0.5596(3) 0.0861(3)
H28_2 H 0.884247 0.528921 0.079456
N5_2 N 0.5656(4) 0.7066(3) 0.3963(3)
C43_2 C 0.9543(4) 0.6187(4) 0.0674(4)
H29_2 H 0.983365 0.630326 0.048449
C44_2 C 0.6453(4) 0.5808(4) 0.3472(4)
H30_2 H 0.647883 0.587330 0.381932
C45_2 C 0.8898(5) 0.6300(4) 0.1289(4)
H31_2 H 0.872513 0.649678 0.152462
C46_2 C 0.7497(4) 0.5723(3) 0.2019(4)
H32_2 H 0.723335 0.592161 0.215877
C47_2 C 0.6089(4) 0.6052(4) 0.3184(4)
C48_2 C 0.6778(4) 0.5475(4) 0.3264(4)
H33_2 H 0.702889 0.531882 0.347003
C49_2 C 0.9322(5) 0.6466(4) 0.1009(4)
H34_2 H 0.945134 0.677595 0.105667
C50_2 C 0.5743(4) 0.6427(4) 0.3391(4)
C51_2 C 0.6750(4) 0.5360(4) 0.2762(4)
C52_2 C 0.6041(4) 0.5928(4) 0.2671(4)
H35_2 H 0.578020 0.607629 0.246896
C53_2 C 0.6361(3) 0.5604(4) 0.2470(4)
H36_2 H 0.632989 0.553335 0.212388
C54_2 C 0.5951(4) 0.6725(4) 0.3757(4)
H37_2 H 0.630868 0.668558 0.386179
C55_2 C 0.5223(5) 0.6487(5) 0.3251(6)
H38_2 H 0.506695 0.628758 0.300702
C56_2 C 0.5162(4) 0.7113(5) 0.3820(5)
H39_2 H 0.495716 0.735382 0.397333
C57_2 C 0.4923(6) 0.6850(6) 0.3475(6)
H40_2 H 0.456396 0.690423 0.338299
C69_2 C 0.4652(3) 0.0334(3) 0.2810(3)
C70_2 C 0.4008(4) 0.0990(3) 0.3319(3)
C71_2 C 0.4460(4) 0.0811(3) 0.3533(3)
H49_2 H 0.455685 0.090296 0.386186
C72_2 C 0.4781(3) 0.0492(3) 0.3267(3)
H50_2 H 0.510037 0.038385 0.341760
C73_2 C 0.3871(4) 0.1643(4) 0.3916(4)
H51_2 H 0.424526 0.163737 0.396060
C74_2 C 0.3648(4) 0.1317(4) 0.3596(4)
C75_2 C 0.3891(4) 0.0849(3) 0.2833(4)
H52_2 H 0.358773 0.097280 0.266891
C76_2 C 0.4215(4) 0.0527(3) 0.2585(3)
H53_2 H 0.412999 0.043971 0.225122
C77_2 C 0.3061(5) 0.1929(4) 0.4155(5)
H54_2 H 0.285518 0.213395 0.435805
C78_2 C 0.3097(5) 0.1324(5) 0.3586(6)
H55_2 H 0.291153 0.111359 0.337209
C79_2 C 0.2813(5) 0.1634(5) 0.3886(6)
H56_2 H 0.243596 0.162523 0.388891
N17 N 0.6414(4) 0.8028(3) 0.4172(3)
C4_4 C 0.500000 1.000000 0.250000
C58_2 C 0.4652(3) 0.9666(3) 0.2190(3)
C59_2 C 0.4008(4) 0.9010(3) 0.1681(3)
C60_2 C 0.4460(4) 0.9189(3) 0.1467(3)
H41_2 H 0.455685 0.909704 0.113814
C61_2 C 0.4781(3) 0.9508(3) 0.1733(3)
H42_2 H 0.510037 0.961615 0.158240
C62_2 C 0.3871(4) 0.8357(4) 0.1084(4)
H43_2 H 0.424526 0.836263 0.103940
C63_2 C 0.3648(4) 0.8683(4) 0.1404(4)
C64_2 C 0.3891(4) 0.9151(3) 0.2167(4)
H44_2 H 0.358773 0.902720 0.233109
C65_2 C 0.4215(4) 0.9473(3) 0.2415(3)
H45_2 H 0.412999 0.956029 0.274878
C66_2 C 0.3061(5) 0.8071(4) 0.0845(5)
H46_2 H 0.285518 0.786605 0.064195
C67_2 C 0.3097(5) 0.8676(5) 0.1414(6)
H47_2 H 0.291153 0.888641 0.162791
C68_2 C 0.2813(5) 0.8366(5) 0.1114(6)
H48_2 H 0.243596 0.837477 0.111109
C80_2 C 0.5348(3) 0.9666(3) 0.2810(3)
C81_2 C 0.5992(4) 0.9010(3) 0.3319(3)
C82_2 C 0.5540(4) 0.9189(3) 0.3533(3)
H57_2 H 0.544315 0.909704 0.386186
C83_2 C 0.5219(3) 0.9508(3) 0.3267(3)
H58_2 H 0.489963 0.961615 0.341760
C84_2 C 0.6129(4) 0.8357(4) 0.3916(4)
H59_2 H 0.575474 0.836263 0.396060
C85_2 C 0.6352(4) 0.8683(4) 0.3596(4)
C86_2 C 0.6109(4) 0.9151(3) 0.2833(4)
H60_2 H 0.641227 0.902720 0.266891
C87_2 C 0.5785(4) 0.9473(3) 0.2585(3)
H61_2 H 0.587001 0.956029 0.225122
C88_2 C 0.6939(5) 0.8071(4) 0.4155(5)
H62_2 H 0.714482 0.786605 0.435805
C89_2 C 0.6903(5) 0.8676(5) 0.3586(6)
H63_2 H 0.708847 0.888641 0.337209
C90_2 C 0.7187(5) 0.8366(5) 0.3886(6)
H64_2 H 0.756404 0.837477 0.388891
C4_5 C -0.000000 0.500000 0.750000
H2_3 H 0.010037 0.461615 0.841760
H23_3 H 0.004284 0.235382 0.897333
C35_3 C 0.0077(6) 0.1850(6) 0.8475(6)
H24_3 H 0.043604 0.190423 0.838299
N6_2 N 0.1414(4) 0.6972(3) 0.9172(3)
C58_3 C 0.0348(3) 0.5334(3) 0.7810(3)
C59_3 C 0.0992(4) 0.5990(3) 0.8319(3)
C60_3 C 0.0540(4) 0.5811(3) 0.8533(3)
H41_3 H 0.044315 0.590296 0.886186
C61_3 C 0.0219(3) 0.5492(3) 0.8267(3)
C62_3 C 0.1129(4) 0.6643(4) 0.8916(4)
H43_3 H 0.075474 0.663737 0.896060
C63_3 C 0.1352(4) 0.6317(4) 0.8596(4)
C64_3 C 0.1109(4) 0.5849(3) 0.7833(4)
H44_3 H 0.141227 0.597280 0.766891
C65_3 C 0.0785(4) 0.5527(3) 0.7585(3)
H45_3 H 0.087001 0.543971 0.725122
C66_3 C 0.1939(5) 0.6929(4) 0.9155(5)
H46_3 H 0.214482 0.713395 0.935805
C67_3 C 0.1903(5) 0.6324(5) 0.8586(6)
H47_3 H 0.208847 0.611359 0.837209
C68_3 C 0.2187(5) 0.6634(5) 0.8886(6)
H48_3 H 0.256404 0.662523 0.888891
N7_2 N 0.1414(4) 0.3028(3) 0.5828(3)
C69_3 C 0.0348(3) 0.4666(3) 0.7190(3)
C70_3 C 0.0992(4) 0.4010(3) 0.6681(3)
C71_3 C 0.0540(4) 0.4189(3) 0.6467(3)
H49_3 H 0.044315 0.409704 0.613814
C72_3 C 0.0219(3) 0.4508(3) 0.6733(3)
C73_3 C 0.1129(4) 0.3357(4) 0.6084(4)
H51_3 H 0.075474 0.336263 0.603940
C74_3 C 0.1352(4) 0.3683(4) 0.6404(4)
C75_3 C 0.1109(4) 0.4151(3) 0.7167(4)
H52_3 H 0.141227 0.402720 0.733109
C76_3 C 0.0785(4) 0.4473(3) 0.7415(3)
H53_3 H 0.087001 0.456029 0.774878
C77_3 C 0.1939(5) 0.3071(4) 0.5845(5)
H54_3 H 0.214482 0.286605 0.564195
C78_3 C 0.1903(5) 0.3676(5) 0.6414(6)
H55_3 H 0.208847 0.388641 0.662791
C79_3 C 0.2187(5) 0.3366(5) 0.6114(6)
H56_3 H 0.256404 0.337477 0.611109
H58_3 H 0.010037 0.538385 0.658240
Cu9_2 Cu 0.10049(5) 0.75178(4) 0.95130(4)
Cu10_2 Cu 0.10049(5) 0.24822(4) 0.54870(4)
H39_3 H 0.004284 0.764618 0.602667
C57_3 C 0.0077(6) 0.8150(6) 0.6525(6)
H40_3 H 0.043604 0.809577 0.661701
I2_3 I 0.82975(4) 0.19586(3) 0.000000
I3_3 I 0.98241(5) 0.27934(4) 0.000000
Cu7_3 Cu 0.46917(7) 0.03589(7) 0.000000
Cu13_3 Cu 0.89951(5) 0.24822(4) 0.04870(4)
I2_4 I 0.82975(4) 0.19586(3) 1.000000
I3_4 I 0.98241(5) 0.27934(4) 1.000000
Cu1_2 Cu 0.53083(7) 0.03589(7) 0.500000
Cu2_2 Cu 0.89951(5) 0.24822(4) 0.95130(4)
N1_2 N 0.5621(3) 0.0752(3) 0.5592(3)
N2_3 N 0.8586(4) 0.3028(3) 0.9172(3)
C1_3 C 0.9652(3) 0.4666(3) 0.7810(3)
C2_3 C 0.9008(4) 0.4010(3) 0.8319(3)
C3_3 C 0.6718(4) 0.0644(3) 0.6510(3)
C4_6 C 1.000000 0.500000 0.750000
C5_3 C 0.9460(4) 0.4189(3) 0.8533(3)
H1_3 H 0.955685 0.409704 0.886186
C6_3 C 0.9781(3) 0.4508(3) 0.8267(3)
C7_3 C 0.8871(4) 0.3357(4) 0.8916(4)
H3_3 H 0.924526 0.336263 0.896060
C8_3 C 0.6736(3) 0.0168(4) 0.6601(3)
C9_3 C 0.7518(3) 0.0246(3) 0.7122(3)
C10_3 C 0.6267(4) 0.0847(3) 0.6218(3)
C11_3 C 0.8648(4) 0.3683(4) 0.8596(4)
C13_3 C 0.7119(4) 0.0914(3) 0.6722(3)
H6_3 H 0.712600 0.124227 0.665779
C14_3 C 0.6028(4) 0.0596(3) 0.5861(3)
H7_3 H 0.615753 0.028921 0.579456
C15_3 C 0.8891(4) 0.4151(3) 0.7833(4)
H8_3 H 0.858773 0.402720 0.766891
C16_3 C 0.9215(4) 0.4473(3) 0.7585(3)
H9_3 H 0.912999 0.456029 0.725122
N3_3 N 0.9344(4) 0.2066(3) 0.8963(3)
C17_3 C 0.5457(4) 0.1187(4) 0.5674(4)
H10_3 H 0.516635 0.130326 0.548449
C18_3 C 0.8547(4) 0.0808(4) 0.8472(4)
H11_3 H 0.852117 0.087330 0.881932
C19_3 C 0.7890(4) -0.000000 0.750000
C20_3 C 0.6102(5) 0.1300(4) 0.6289(4)
H12_3 H 0.627487 0.149678 0.652462
C21_3 C 0.7503(4) 0.0723(3) 0.7019(4)
H13_3 H 0.776665 0.092161 0.715877
C22_3 C 0.8911(4) 0.1052(4) 0.8184(4)
C23_3 C 0.8222(4) 0.0475(4) 0.8264(4)
H14_3 H 0.797111 0.031882 0.847003
C24_3 C 0.5678(5) 0.1466(4) 0.6009(4)
H15_3 H 0.554866 0.177595 0.605667
C25_3 C 0.9257(4) 0.1427(4) 0.8391(4)
C26_3 C 0.8061(5) 0.3071(4) 0.9155(5)
H16_3 H 0.785518 0.286605 0.935805
C27_3 C 0.8250(4) 0.0360(4) 0.7762(4)
C28_3 C 0.8097(5) 0.3676(5) 0.8586(6)
H17_3 H 0.791153 0.388641 0.837209
C29_3 C 0.8959(4) 0.0928(4) 0.7671(4)
H18_3 H 0.921980 0.107629 0.746896
C30_3 C 0.7813(5) 0.3366(5) 0.8886(6)
H19_3 H 0.743596 0.337477 0.888891
C31_3 C 0.8639(3) 0.0604(4) 0.7470(4)
H20_3 H 0.867011 0.053335 0.712388
C32_3 C 0.9049(4) 0.1725(4) 0.8757(4)
H21_3 H 0.869132 0.168558 0.886179
C33_3 C 0.9777(5) 0.1487(5) 0.8251(6)
H22_3 H 0.993305 0.128758 0.800702
C34_3 C 0.9838(4) 0.2113(5) 0.8820(5)
H25_3 H 0.647844 0.003195 0.854700
C40_3 C 0.7122(3) 0.0019(4) 0.8098(3)
H26_3 H 0.711766 0.034773 0.803749
H42_3 H 0.989963 0.538385 0.841760
H50_3 H 0.989963 0.461615 0.658240
N8_2 N 0.8586(4) 0.6972(3) 0.5828(3)
C80_3 C 0.9652(3) 0.5334(3) 0.7190(3)
C81_3 C 0.9008(4) 0.5990(3) 0.6681(3)
C82_3 C 0.9460(4) 0.5811(3) 0.6467(3)
H57_3 H 0.955685 0.590296 0.613814
C83_3 C 0.9781(3) 0.5492(3) 0.6733(3)
C84_3 C 0.8871(4) 0.6643(4) 0.6084(4)
H59_3 H 0.924526 0.663737 0.603940
C85_3 C 0.8648(4) 0.6317(4) 0.6404(4)
C86_3 C 0.8891(4) 0.5849(3) 0.7167(4)
H60_3 H 0.858773 0.597280 0.733109
C87_3 C 0.9215(4) 0.5527(3) 0.7415(3)
H61_3 H 0.912999 0.543971 0.774878
C88_3 C 0.8061(5) 0.6929(4) 0.5845(5)
H62_3 H 0.785518 0.713395 0.564195
C89_3 C 0.8097(5) 0.6324(5) 0.6414(6)
H63_3 H 0.791153 0.611359 0.662791
C90_3 C 0.7813(5) 0.6634(5) 0.6114(6)
H64_3 H 0.743596 0.662523 0.611109
I4_4 I 0.42724(4) 0.04842(3) 0.500000
H65_3 H 0.352156 0.003195 0.645300
C95_3 C 0.2878(3) 0.0019(4) 0.6902(3)
H66_3 H 0.288234 0.034773 0.696251
C100_3 C 0.2110(4) -0.000000 0.750000
N11_2 N 0.4379(3) 0.0752(3) 0.9408(3)
C114_3 C 0.3282(4) 0.0644(3) 0.8490(3)
C115_3 C 0.3264(3) 0.0168(4) 0.8399(3)
C116_3 C 0.2482(3) 0.0246(3) 0.7878(3)
C117_3 C 0.3733(4) 0.0847(3) 0.8782(3)
C119_3 C 0.2881(4) 0.0914(3) 0.8278(3)
H83_3 H 0.287400 0.124227 0.834221
C120_3 C 0.3972(4) 0.0596(3) 0.9139(3)
H84_3 H 0.384247 0.028921 0.920544
N12_3 N 0.0656(4) 0.2066(3) 0.6037(3)
C121_3 C 0.4543(4) 0.1187(4) 0.9326(4)
H85_3 H 0.483365 0.130326 0.951551
C122_3 C 0.1453(4) 0.0808(4) 0.6528(4)
H86_3 H 0.147883 0.087330 0.618068
C123_3 C 0.3898(5) 0.1300(4) 0.8711(4)
H87_3 H 0.372513 0.149678 0.847538
C124_3 C 0.2497(4) 0.0723(3) 0.7981(4)
H88_3 H 0.223335 0.092161 0.784123
C125_3 C 0.1089(4) 0.1052(4) 0.6816(4)
C126_3 C 0.1778(4) 0.0475(4) 0.6736(4)
H89_3 H 0.202889 0.031882 0.652997
C127_3 C 0.4322(5) 0.1466(4) 0.8991(4)
H90_3 H 0.445134 0.177595 0.894333
C128_3 C 0.0743(4) 0.1427(4) 0.6609(4)
C129_3 C 0.1750(4) 0.0360(4) 0.7238(4)
C130_3 C 0.1041(4) 0.0928(4) 0.7329(4)
H91_3 H 0.078020 0.107629 0.753104
C131_3 C 0.1361(3) 0.0604(4) 0.7530(4)
H92_3 H 0.132989 0.053335 0.787612
C132_3 C 0.0951(4) 0.1725(4) 0.6243(4)
H93_3 H 0.130868 0.168558 0.613821
C133_3 C 0.0223(5) 0.1487(5) 0.6749(6)
H94_3 H 0.006695 0.128758 0.699298
C134_3 C 0.0162(4) 0.2113(5) 0.6180(5)
I7_2 I 0.17025(4) 0.19586(3) 0.500000
I9_2 I 0.01759(5) 0.27934(4) 0.500000
Cu7_4 Cu 0.46917(7) 0.03589(7) 1.000000
Cu11_2 Cu 0.89951(5) 0.75178(4) 0.54870(4)
N14_3 N 0.5621(3) 0.0752(3) 0.4408(3)
I5_3 I 0.17025(4) 0.80414(3) 0.000000
I6_3 I 0.01759(5) 0.72066(4) 0.000000
Cu8_3 Cu 0.53083(7) 0.96411(7) 0.000000
Cu12_3 Cu 0.10049(5) 0.75178(4) 0.04870(4)
I1_4 I 0.57276(4) 0.95158(3) 0.500000
H4_3 H 0.647844 0.996805 0.645300
C12_3 C 0.7122(3) 0.9981(4) 0.6902(3)
H5_3 H 0.711766 0.965227 0.696251
C19_4 C 0.7890(4) 1.000000 0.750000
N4_2 N 0.5621(3) 0.9248(3) 0.9408(3)
C36_3 C 0.6718(4) 0.9356(3) 0.8490(3)
C37_3 C 0.6736(3) 0.9832(4) 0.8399(3)
C38_3 C 0.7518(3) 0.9754(3) 0.7878(3)
C39_3 C 0.6267(4) 0.9153(3) 0.8782(3)
C41_3 C 0.7119(4) 0.9086(3) 0.8278(3)
H27_3 H 0.712600 0.875773 0.834221
C42_3 C 0.6028(4) 0.9404(3) 0.9139(3)
H28_3 H 0.615753 0.971079 0.920544
N5_3 N 0.9344(4) 0.7934(3) 0.6037(3)
C43_3 C 0.5457(4) 0.8813(4) 0.9326(4)
H29_3 H 0.516635 0.869674 0.951551
C44_3 C 0.8547(4) 0.9192(4) 0.6528(4)
H30_3 H 0.852117 0.912670 0.618068
C45_3 C 0.6102(5) 0.8700(4) 0.8711(4)
H31_3 H 0.627487 0.850322 0.847538
C46_3 C 0.7503(4) 0.9277(3) 0.7981(4)
H32_3 H 0.776665 0.907839 0.784123
C47_3 C 0.8911(4) 0.8948(4) 0.6816(4)
C48_3 C 0.8222(4) 0.9525(4) 0.6736(4)
H33_3 H 0.797111 0.968118 0.652997
C49_3 C 0.5678(5) 0.8534(4) 0.8991(4)
H34_3 H 0.554866 0.822405 0.894333
C50_3 C 0.9257(4) 0.8573(4) 0.6609(4)
C51_3 C 0.8250(4) 0.9640(4) 0.7238(4)
C52_3 C 0.8959(4) 0.9072(4) 0.7329(4)
H35_3 H 0.921980 0.892371 0.753104
C53_3 C 0.8639(3) 0.9396(4) 0.7530(4)
H36_3 H 0.867011 0.946665 0.787612
C54_3 C 0.9049(4) 0.8275(4) 0.6243(4)
H37_3 H 0.869132 0.831442 0.613821
C55_3 C 0.9777(5) 0.8513(5) 0.6749(6)
H38_3 H 0.993305 0.871242 0.699298
C56_3 C 0.9838(4) 0.7887(5) 0.6180(5)
I5_4 I 0.17025(4) 0.80414(3) 1.000000
I6_4 I 0.01759(5) 0.72066(4) 1.000000
Cu3_2 Cu 0.46917(7) 0.96411(7) 0.500000
N9_2 N 0.4379(3) 0.9248(3) 0.5592(3)
C91_3 C 0.3282(4) 0.9356(3) 0.6510(3)
C92_3 C 0.3264(3) 0.9832(4) 0.6601(3)
C93_3 C 0.2482(3) 0.9754(3) 0.7122(3)
C94_3 C 0.3733(4) 0.9153(3) 0.6218(3)
C96_3 C 0.2881(4) 0.9086(3) 0.6722(3)
H67_3 H 0.287400 0.875773 0.665779
C97_3 C 0.3972(4) 0.9404(3) 0.5861(3)
H68_3 H 0.384247 0.971079 0.579456
N10_3 N 0.0656(4) 0.7934(3) 0.8963(3)
C98_3 C 0.4543(4) 0.8813(4) 0.5674(4)
H69_3 H 0.483365 0.869674 0.548449
C99_3 C 0.1453(4) 0.9192(4) 0.8472(4)
H70_3 H 0.147883 0.912670 0.881932
C100_4 C 0.2110(4) 1.000000 0.750000
C101_3 C 0.3898(5) 0.8700(4) 0.6289(4)
H71_3 H 0.372513 0.850322 0.652462
C102_3 C 0.2497(4) 0.9277(3) 0.7019(4)
H72_3 H 0.223335 0.907839 0.715877
C103_3 C 0.1089(4) 0.8948(4) 0.8184(4)
C104_3 C 0.1778(4) 0.9525(4) 0.8264(4)
H73_3 H 0.202889 0.968118 0.847003
C105_3 C 0.4322(5) 0.8534(4) 0.6009(4)
H74_3 H 0.445134 0.822405 0.605667
C106_3 C 0.0743(4) 0.8573(4) 0.8391(4)
C107_3 C 0.1750(4) 0.9640(4) 0.7762(4)
C108_3 C 0.1041(4) 0.9072(4) 0.7671(4)
H75_3 H 0.078020 0.892371 0.746896
C109_3 C 0.1361(3) 0.9396(4) 0.7470(4)
H76_3 H 0.132989 0.946665 0.712388
C110_3 C 0.0951(4) 0.8275(4) 0.8757(4)
H77_3 H 0.130868 0.831442 0.886179
C111_3 C 0.0223(5) 0.8513(5) 0.8251(6)
H78_3 H 0.006695 0.871242 0.800702
C112_3 C 0.0162(4) 0.7887(5) 0.8820(5)
H81_3 H 0.352156 0.996805 0.854700
C118_3 C 0.2878(3) 0.9981(4) 0.8098(3)
H82_3 H 0.288234 0.965227 0.803749
I8_2 I 0.82975(4) 0.80414(3) 0.500000
I10_2 I 0.98241(5) 0.72066(4) 0.500000
Cu8_4 Cu 0.53083(7) 0.96411(7) 1.000000
N13_3 N 0.4379(3) 0.9248(3) 0.4408(3)
H95_3 H 0.995716 0.235382 0.602667
C135_3 C 0.9923(6) 0.1850(6) 0.6525(6)
H96_3 H 0.956396 0.190423 0.661701
H79_3 H 0.995716 0.764618 0.897333
C113_3 C 0.9923(6) 0.8150(6) 0.8475(6)
H80_3 H 0.956396 0.809577 0.838299
I4_5 I 0.57276(4) 0.04842(3) 0.000000
N14_4 N 0.4379(3) 0.0752(3) 0.0592(3)
I4_6 I 0.57276(4) 0.04842(3) 1.000000
Cu13_4 Cu 0.10049(5) 0.24822(4) 0.45130(4)
I1_5 I 0.42724(4) 0.95158(3) 0.000000
N13_4 N 0.5621(3) 0.9248(3) 0.0592(3)
I1_6 I 0.42724(4) 0.95158(3) 1.000000
Cu12_4 Cu 0.89951(5) 0.75178(4) 0.45130(4)
H79_4 H 0.004284 0.235382 0.102667
C113_4 C 0.0077(6) 0.1850(6) 0.1525(6)
H80_4 H 0.043604 0.190423 0.161701
H95_4 H 0.004284 0.764618 0.397333
C135_4 C 0.0077(6) 0.8150(6) 0.3475(6)
H96_4 H 0.043604 0.809577 0.338299
H4_4 H 0.352156 0.003195 0.354700
C12_4 C 0.2878(3) 0.0019(4) 0.3098(3)
H5_4 H 0.288234 0.034773 0.303749
C19_5 C 0.2110(4) 0.000000 0.250000
C36_4 C 0.3282(4) 0.0644(3) 0.1510(3)
C37_4 C 0.3264(3) 0.0168(4) 0.1601(3)
C38_4 C 0.2482(3) 0.0246(3) 0.2122(3)
C39_4 C 0.3733(4) 0.0847(3) 0.1218(3)
C41_4 C 0.2881(4) 0.0914(3) 0.1722(3)
H27_4 H 0.287400 0.124227 0.165779
C42_4 C 0.3972(4) 0.0596(3) 0.0861(3)
H28_4 H 0.384247 0.028921 0.079456
N5_4 N 0.0656(4) 0.2066(3) 0.3963(3)
C43_4 C 0.4543(4) 0.1187(4) 0.0674(4)
H29_4 H 0.483365 0.130326 0.048449
C44_4 C 0.1453(4) 0.0808(4) 0.3472(4)
H30_4 H 0.147883 0.087330 0.381932
C45_4 C 0.3898(5) 0.1300(4) 0.1289(4)
H31_4 H 0.372513 0.149678 0.152462
C46_4 C 0.2497(4) 0.0723(3) 0.2019(4)
H32_4 H 0.223335 0.092161 0.215877
C47_4 C 0.1089(4) 0.1052(4) 0.3184(4)
C48_4 C 0.1778(4) 0.0475(4) 0.3264(4)
H33_4 H 0.202889 0.031882 0.347003
C49_4 C 0.4322(5) 0.1466(4) 0.1009(4)
H34_4 H 0.445134 0.177595 0.105667
C50_4 C 0.0743(4) 0.1427(4) 0.3391(4)
C51_4 C 0.1750(4) 0.0360(4) 0.2762(4)
C52_4 C 0.1041(4) 0.0928(4) 0.2671(4)
H35_4 H 0.078020 0.107629 0.246896
C53_4 C 0.1361(3) 0.0604(4) 0.2470(4)
H36_4 H 0.132989 0.053335 0.212388
C54_4 C 0.0951(4) 0.1725(4) 0.3757(4)
H37_4 H 0.130868 0.168558 0.386179
C55_4 C 0.0223(5) 0.1487(5) 0.3251(6)
H38_4 H 0.006695 0.128758 0.300702
C56_4 C 0.0162(4) 0.2113(5) 0.3820(5)
C91_4 C 0.6718(4) 0.0644(3) 0.3490(3)
C92_4 C 0.6736(3) 0.0168(4) 0.3399(3)
C93_4 C 0.7518(3) 0.0246(3) 0.2878(3)
C94_4 C 0.6267(4) 0.0847(3) 0.3782(3)
C96_4 C 0.7119(4) 0.0914(3) 0.3278(3)
H67_4 H 0.712600 0.124227 0.334221
C97_4 C 0.6028(4) 0.0596(3) 0.4139(3)
H68_4 H 0.615753 0.028921 0.420544
N10_4 N 0.9344(4) 0.2066(3) 0.1037(3)
C98_4 C 0.5457(4) 0.1187(4) 0.4326(4)
H69_4 H 0.516635 0.130326 0.451551
C99_4 C 0.8547(4) 0.0808(4) 0.1528(4)
H70_4 H 0.852117 0.087330 0.118068
C100_5 C 0.7890(4) 0.000000 0.250000
C101_4 C 0.6102(5) 0.1300(4) 0.3711(4)
H71_4 H 0.627487 0.149678 0.347538
C102_4 C 0.7503(4) 0.0723(3) 0.2981(4)
H72_4 H 0.776665 0.092161 0.284123
C103_4 C 0.8911(4) 0.1052(4) 0.1816(4)
C104_4 C 0.8222(4) 0.0475(4) 0.1736(4)
H73_4 H 0.797111 0.031882 0.152997
C105_4 C 0.5678(5) 0.1466(4) 0.3991(4)
H74_4 H 0.554866 0.177595 0.394333
C106_4 C 0.9257(4) 0.1427(4) 0.1609(4)
C107_4 C 0.8250(4) 0.0360(4) 0.2238(4)
C108_4 C 0.8959(4) 0.0928(4) 0.2329(4)
H75_4 H 0.921980 0.107629 0.253104
C109_4 C 0.8639(3) 0.0604(4) 0.2530(4)
H76_4 H 0.867011 0.053335 0.287612
C110_4 C 0.9049(4) 0.1725(4) 0.1243(4)
H77_4 H 0.869132 0.168558 0.113821
C111_4 C 0.9777(5) 0.1487(5) 0.1749(6)
H78_4 H 0.993305 0.128758 0.199298
C112_4 C 0.9838(4) 0.2113(5) 0.1180(5)
H81_4 H 0.647844 0.003195 0.145300
C118_4 C 0.7122(3) 0.0019(4) 0.1902(3)
H82_4 H 0.711766 0.034773 0.196251
N15_2 N 0.8586(4) 0.3028(3) 0.0828(3)
N17_2 N 0.1414(4) 0.3028(3) 0.4172(3)
N2_4 N 0.1414(4) 0.6972(3) 0.0828(3)
C1_4 C 0.0348(3) 0.5334(3) 0.2190(3)
C2_4 C 0.0992(4) 0.5990(3) 0.1681(3)
C3_4 C 0.3282(4) 0.9356(3) 0.3490(3)
C4_7 C 0.000000 0.500000 0.250000
C5_4 C 0.0540(4) 0.5811(3) 0.1467(3)
H1_4 H 0.044315 0.590296 0.113814
C6_4 C 0.0219(3) 0.5492(3) 0.1733(3)
C7_4 C 0.1129(4) 0.6643(4) 0.1084(4)
H3_4 H 0.075474 0.663737 0.103940
C8_4 C 0.3264(3) 0.9832(4) 0.3399(3)
C9_4 C 0.2482(3) 0.9754(3) 0.2878(3)
C10_4 C 0.3733(4) 0.9153(3) 0.3782(3)
C11_4 C 0.1352(4) 0.6317(4) 0.1404(4)
C13_4 C 0.2881(4) 0.9086(3) 0.3278(3)
H6_4 H 0.287400 0.875773 0.334221
C14_4 C 0.3972(4) 0.9404(3) 0.4139(3)
H7_4 H 0.384247 0.971079 0.420544
C15_4 C 0.1109(4) 0.5849(3) 0.2167(4)
H8_4 H 0.141227 0.597280 0.233109
C16_4 C 0.0785(4) 0.5527(3) 0.2415(3)
H9_4 H 0.087001 0.543971 0.274878
N3_4 N 0.0656(4) 0.7934(3) 0.1037(3)
C17_4 C 0.4543(4) 0.8813(4) 0.4326(4)
H10_4 H 0.483365 0.869674 0.451551
C18_4 C 0.1453(4) 0.9192(4) 0.1528(4)
H11_4 H 0.147883 0.912670 0.118068
C19_6 C 0.2110(4) 1.000000 0.250000
C20_4 C 0.3898(5) 0.8700(4) 0.3711(4)
H12_4 H 0.372513 0.850322 0.347538
C21_4 C 0.2497(4) 0.9277(3) 0.2981(4)
H13_4 H 0.223335 0.907839 0.284123
C22_4 C 0.1089(4) 0.8948(4) 0.1816(4)
C23_4 C 0.1778(4) 0.9525(4) 0.1736(4)
H14_4 H 0.202889 0.968118 0.152997
C24_4 C 0.4322(5) 0.8534(4) 0.3991(4)
H15_4 H 0.445134 0.822405 0.394333
C25_4 C 0.0743(4) 0.8573(4) 0.1609(4)
C26_4 C 0.1939(5) 0.6929(4) 0.0845(5)
H16_4 H 0.214482 0.713395 0.064195
C27_4 C 0.1750(4) 0.9640(4) 0.2238(4)
C28_4 C 0.1903(5) 0.6324(5) 0.1414(6)
H17_4 H 0.208847 0.611359 0.162791
C29_4 C 0.1041(4) 0.9072(4) 0.2329(4)
H18_4 H 0.078020 0.892371 0.253104
C30_4 C 0.2187(5) 0.6634(5) 0.1114(6)
H19_4 H 0.256404 0.662523 0.111109
C31_4 C 0.1361(3) 0.9396(4) 0.2530(4)
H20_4 H 0.132989 0.946665 0.287612
C32_4 C 0.0951(4) 0.8275(4) 0.1243(4)
H21_4 H 0.130868 0.831442 0.113821
C33_4 C 0.0223(5) 0.8513(5) 0.1749(6)
H22_4 H 0.006695 0.871242 0.199298
C34_4 C 0.0162(4) 0.7887(5) 0.1180(5)
H25_4 H 0.352156 0.996805 0.145300
C40_4 C 0.2878(3) 0.9981(4) 0.1902(3)
H26_4 H 0.288234 0.965227 0.196251
H42_4 H 0.010037 0.461615 0.158240
H50_4 H 0.010037 0.538385 0.341760
C80_4 C 0.0348(3) 0.4666(3) 0.2810(3)
C81_4 C 0.0992(4) 0.4010(3) 0.3319(3)
C82_4 C 0.0540(4) 0.4189(3) 0.3533(3)
H57_4 H 0.044315 0.409704 0.386186
C83_4 C 0.0219(3) 0.4508(3) 0.3267(3)
C84_4 C 0.1129(4) 0.3357(4) 0.3916(4)
H59_4 H 0.075474 0.336263 0.396060
C85_4 C 0.1352(4) 0.3683(4) 0.3596(4)
C86_4 C 0.1109(4) 0.4151(3) 0.2833(4)
H60_4 H 0.141227 0.402720 0.266891
C87_4 C 0.0785(4) 0.4473(3) 0.2585(3)
H61_4 H 0.087001 0.456029 0.225122
C88_4 C 0.1939(5) 0.3071(4) 0.4155(5)
H62_4 H 0.214482 0.286605 0.435805
C89_4 C 0.1903(5) 0.3676(5) 0.3586(6)
H63_4 H 0.208847 0.388641 0.337209
C90_4 C 0.2187(5) 0.3366(5) 0.3886(6)
H64_4 H 0.256404 0.337477 0.388891
H65_4 H 0.647844 0.996805 0.354700
C95_4 C 0.7122(3) 0.9981(4) 0.3098(3)
H66_4 H 0.711766 0.965227 0.303749
C100_6 C 0.7890(4) 1.000000 0.250000
C114_4 C 0.6718(4) 0.9356(3) 0.1510(3)
C115_4 C 0.6736(3) 0.9832(4) 0.1601(3)
C116_4 C 0.7518(3) 0.9754(3) 0.2122(3)
C117_4 C 0.6267(4) 0.9153(3) 0.1218(3)
C119_4 C 0.7119(4) 0.9086(3) 0.1722(3)
H83_4 H 0.712600 0.875773 0.165779
C120_4 C 0.6028(4) 0.9404(3) 0.0861(3)
H84_4 H 0.615753 0.971079 0.079456
N12_4 N 0.9344(4) 0.7934(3) 0.3963(3)
C121_4 C 0.5457(4) 0.8813(4) 0.0674(4)
H85_4 H 0.516635 0.869674 0.048449
C122_4 C 0.8547(4) 0.9192(4) 0.3472(4)
H86_4 H 0.852117 0.912670 0.381932
C123_4 C 0.6102(5) 0.8700(4) 0.1289(4)
H87_4 H 0.627487 0.850322 0.152462
C124_4 C 0.7503(4) 0.9277(3) 0.2019(4)
H88_4 H 0.776665 0.907839 0.215877
C125_4 C 0.8911(4) 0.8948(4) 0.3184(4)
C126_4 C 0.8222(4) 0.9525(4) 0.3264(4)
H89_4 H 0.797111 0.968118 0.347003
C127_4 C 0.5678(5) 0.8534(4) 0.1009(4)
H90_4 H 0.554866 0.822405 0.105667
C128_4 C 0.9257(4) 0.8573(4) 0.3391(4)
C129_4 C 0.8250(4) 0.9640(4) 0.2762(4)
C130_4 C 0.8959(4) 0.9072(4) 0.2671(4)
H91_4 H 0.921980 0.892371 0.246896
C131_4 C 0.8639(3) 0.9396(4) 0.2470(4)
H92_4 H 0.867011 0.946665 0.212388
C132_4 C 0.9049(4) 0.8275(4) 0.3757(4)
H93_4 H 0.869132 0.831442 0.386179
C133_4 C 0.9777(5) 0.8513(5) 0.3251(6)
H94_4 H 0.993305 0.871242 0.300702
C134_4 C 0.9838(4) 0.7887(5) 0.3820(5)
N16_2 N 0.8586(4) 0.6972(3) 0.4172(3)
H39_4 H 0.995716 0.235382 0.397333
C57_4 C 0.9923(6) 0.1850(6) 0.3475(6)
H40_4 H 0.956396 0.190423 0.338299
C4_8 C 1.000000 0.500000 0.250000
H2_4 H 0.989963 0.538385 0.158240
H23_4 H 0.995716 0.764618 0.102667
C35_4 C 0.9923(6) 0.8150(6) 0.1525(6)
H24_4 H 0.956396 0.809577 0.161701
C58_4 C 0.9652(3) 0.4666(3) 0.2190(3)
C59_4 C 0.9008(4) 0.4010(3) 0.1681(3)
C60_4 C 0.9460(4) 0.4189(3) 0.1467(3)
H41_4 H 0.955685 0.409704 0.113814
C61_4 C 0.9781(3) 0.4508(3) 0.1733(3)
C62_4 C 0.8871(4) 0.3357(4) 0.1084(4)
H43_4 H 0.924526 0.336263 0.103940
C63_4 C 0.8648(4) 0.3683(4) 0.1404(4)
C64_4 C 0.8891(4) 0.4151(3) 0.2167(4)
H44_4 H 0.858773 0.402720 0.233109
C65_4 C 0.9215(4) 0.4473(3) 0.2415(3)
H45_4 H 0.912999 0.456029 0.274878
C66_4 C 0.8061(5) 0.3071(4) 0.0845(5)
H46_4 H 0.785518 0.286605 0.064195
C67_4 C 0.8097(5) 0.3676(5) 0.1414(6)
H47_4 H 0.791153 0.388641 0.162791
C68_4 C 0.7813(5) 0.3366(5) 0.1114(6)
H48_4 H 0.743596 0.337477 0.111109
C69_4 C 0.9652(3) 0.5334(3) 0.2810(3)
C70_4 C 0.9008(4) 0.5990(3) 0.3319(3)
C71_4 C 0.9460(4) 0.5811(3) 0.3533(3)
H49_4 H 0.955685 0.590296 0.386186
C72_4 C 0.9781(3) 0.5492(3) 0.3267(3)
C73_4 C 0.8871(4) 0.6643(4) 0.3916(4)
H51_4 H 0.924526 0.663737 0.396060
C74_4 C 0.8648(4) 0.6317(4) 0.3596(4)
C75_4 C 0.8891(4) 0.5849(3) 0.2833(4)
H52_4 H 0.858773 0.597280 0.266891
C76_4 C 0.9215(4) 0.5527(3) 0.2585(3)
H53_4 H 0.912999 0.543971 0.225122
C77_4 C 0.8061(5) 0.6929(4) 0.4155(5)
H54_4 H 0.785518 0.713395 0.435805
C78_4 C 0.8097(5) 0.6324(5) 0.3586(6)
H55_4 H 0.791153 0.611359 0.337209
C79_4 C 0.7813(5) 0.6634(5) 0.3886(6)
H56_4 H 0.743596 0.662523 0.388891
H58_4 H 0.989963 0.461615 0.341760
loop_
_geom_bond_atom_site_label_1
_geom_bond_atom_site_label_2
_geom_bond_site_symmetry_1
_geom_bond_site_symmetry_2
C4 C58 1_555 1_555
N6 C62 1_555 1_555
C58 C61 1_555 1_555
C59 C60 1_555 1_555
C60 H41 1_555 1_555
C61 C60 1_555 1_555
H42 C61 1_555 1_555
C62 H43 1_555 1_555
C63 C59 1_555 1_555
C64 C59 1_555 1_555
H44 C64 1_555 1_555
C65 C58 1_555 1_555
H45 C65 1_555 1_555
C66 N6 1_555 1_555
H46 C66 1_555 1_555
C67 C63 1_555 1_555
H47 C67 1_555 1_555
C68 C66 1_555 1_555
H48 C68 1_555 1_555
N8 C84 1_555 1_555
C80 C4 1_555 1_555
C81 C82 1_555 1_555
C82 H57 1_555 1_555
C83 C80 1_555 1_555
H58 C83 1_555 1_555
C84 H59 1_555 1_555
C85 C81 1_555 1_555
C86 C81 1_555 1_555
H60 C86 1_555 1_555
C87 C80 1_555 1_555
H61 C87 1_555 1_555
C88 N8 1_555 1_555
H62 C88 1_555 1_555
C89 C85 1_555 1_555
H63 C89 1_555 1_555
C90 C88 1_555 1_555
H64 C90 1_555 1_555
Cu9 N6 1_555 1_555
Cu11 N8 1_555 1_555
C62 C63 1_555 1_555
C64 C65 1_555 1_555
C67 C68 1_555 1_555
C82 C83 1_555 1_555
C84 C85 1_555 1_555
C86 C87 1_555 1_555
C89 C90 1_555 1_555
Cu13 I2 1_555 1_555
I3 Cu13 1_555 1_555
I1 Cu1 1_555 1_555
I2_2 Cu2 1_555 1_555
I3_2 Cu2 1_555 1_555
Cu1 N1 1_555 1_555
Cu2 N2 1_555 1_555
N1 C14 1_555 1_555
N2 C7 1_555 1_555
C1 C4_2 1_555 1_555
C2 C5 1_555 1_555
C3 C8 1_555 1_555
C5 H1 1_555 1_555
C6 C1 1_555 1_555
H2 C6 1_555 1_555
C7 H3 1_555 1_555
C8 H4 1_555 1_555
C9 C12 1_555 1_555
C10 C3 1_555 1_555
C11 C2 1_555 1_555
C12 C8 1_555 1_555
H5 C12 1_555 1_555
C13 C3 1_555 1_555
H6 C13 1_555 1_555
C14 C10 1_555 1_555
H7 C14 1_555 1_555
C15 C2 1_555 1_555
H8 C15 1_555 1_555
C16 C1 1_555 1_555
H9 C16 1_555 1_555
N3 Cu2 1_555 1_555
C17 N1 1_555 1_555
H10 C17 1_555 1_555
C18 H11 1_555 1_555
C19 C9 1_555 1_555
C20 C10 1_555 1_555
H12 C20 1_555 1_555
C21 C9 1_555 1_555
H13 C21 1_555 1_555
C22 C18 1_555 1_555
C23 C18 1_555 1_555
H14 C23 1_555 1_555
C24 C17 1_555 1_555
H15 C24 1_555 1_555
C25 C22 1_555 1_555
C26 N2 1_555 1_555
H16 C26 1_555 1_555
C27 C19 1_555 1_555
C28 C11 1_555 1_555
H17 C28 1_555 1_555
C29 C22 1_555 1_555
H18 C29 1_555 1_555
C30 C26 1_555 1_555
H19 C30 1_555 1_555
C31 C27 1_555 1_555
H20 C31 1_555 1_555
C32 N3 1_555 1_555
H21 C32 1_555 1_555
C33 C25 1_555 1_555
H22 C33 1_555 1_555
C34 N3 1_555 1_555
H23 C34 1_555 1_555
C35 C33 1_555 1_555
H24 C35 1_555 1_555
N4 C42 1_555 1_555
C36 C37 1_555 1_555
C37 H25 1_555 1_555
C38 C19 1_555 1_555
C39 C36 1_555 1_555
C40 C37 1_555 1_555
H26 C40 1_555 1_555
C41 C36 1_555 1_555
H27 C41 1_555 1_555
C42 C39 1_555 1_555
H28 C42 1_555 1_555
N5 C54 1_555 1_555
C43 N4 1_555 1_555
H29 C43 1_555 1_555
C44 H30 1_555 1_555
C45 C39 1_555 1_555
H31 C45 1_555 1_555
C46 C38 1_555 1_555
H32 C46 1_555 1_555
C47 C44 1_555 1_555
C48 C44 1_555 1_555
H33 C48 1_555 1_555
C49 C43 1_555 1_555
H34 C49 1_555 1_555
C50 C47 1_555 1_555
C51 C19 1_555 1_555
C52 C47 1_555 1_555
H35 C52 1_555 1_555
C53 C51 1_555 1_555
H36 C53 1_555 1_555
C54 C50 1_555 1_555
H37 C54 1_555 1_555
C55 C50 1_555 1_555
H38 C55 1_555 1_555
C56 N5 1_555 1_555
H39 C56 1_555 1_555
C57 C55 1_555 1_555
H40 C57 1_555 1_555
N7 C73 1_555 1_555
C69 C4_2 1_555 1_555
C70 C71 1_555 1_555
C71 H49 1_555 1_555
C72 C69 1_555 1_555
H50 C72 1_555 1_555
C73 H51 1_555 1_555
C74 C70 1_555 1_555
C75 C70 1_555 1_555
H52 C75 1_555 1_555
C76 C69 1_555 1_555
H53 C76 1_555 1_555
C77 N7 1_555 1_555
H54 C77 1_555 1_555
C78 C74 1_555 1_555
H55 C78 1_555 1_555
C79 C77 1_555 1_555
H56 C79 1_555 1_555
Cu11 N5 1_555 1_555
I8 Cu11 1_555 1_555
I10 Cu11 1_555 1_555
Cu8_2 N4 1_555 1_555
Cu10 N7 1_555 1_555
N14 Cu1 1_555 1_555
C5 C6 1_555 1_555
C7 C11 1_555 1_555
C13 C21 1_555 1_555
C15 C16 1_555 1_555
C20 C24 1_555 1_555
C23 C27 1_555 1_555
C25 C32 1_555 1_555
C28 C30 1_555 1_555
C29 C31 1_555 1_555
C34 C35 1_555 1_555
C38 C40 1_555 1_555
C41 C46 1_555 1_555
C45 C49 1_555 1_555
C48 C51 1_555 1_555
C52 C53 1_555 1_555
C56 C57 1_555 1_555
C71 C72 1_555 1_555
C73 C74 1_555 1_555
C75 C76 1_555 1_555
C78 C79 1_555 1_555
Cu12 I5 1_555 1_555
I6 Cu12 1_555 1_555
I5_2 Cu9 1_555 1_555
I6_2 Cu9 1_555 1_555
Cu9 N10 1_555 1_555
N9 Cu3 1_555 1_555
C91 C92 1_555 1_555
C92 H65 1_555 1_555
C93 C95 1_555 1_555
C94 C91 1_555 1_555
C95 C92 1_555 1_555
H66 C95 1_555 1_555
C96 C91 1_555 1_555
H67 C96 1_555 1_555
C97 N9 1_555 1_555
H68 C97 1_555 1_555
N10 C110 1_555 1_555
C98 N9 1_555 1_555
H69 C98 1_555 1_555
C99 H70 1_555 1_555
C100 C93 1_555 1_555
C101 C94 1_555 1_555
H71 C101 1_555 1_555
C102 C93 1_555 1_555
H72 C102 1_555 1_555
C103 C99 1_555 1_555
C104 C99 1_555 1_555
H73 C104 1_555 1_555
C105 C98 1_555 1_555
H74 C105 1_555 1_555
C106 C103 1_555 1_555
C107 C100 1_555 1_555
C108 C103 1_555 1_555
H75 C108 1_555 1_555
C109 C107 1_555 1_555
H76 C109 1_555 1_555
C110 C106 1_555 1_555
H77 C110 1_555 1_555
C111 C106 1_555 1_555
H78 C111 1_555 1_555
C112 N10 1_555 1_555
H79 C112 1_555 1_555
C113 C111 1_555 1_555
H80 C113 1_555 1_555
N11 C120 1_555 1_555
C114 C115 1_555 1_555
C115 H81 1_555 1_555
C116 C100 1_555 1_555
C117 C114 1_555 1_555
C118 C115 1_555 1_555
H82 C118 1_555 1_555
C119 C114 1_555 1_555
H83 C119 1_555 1_555
C120 C117 1_555 1_555
H84 C120 1_555 1_555
N12 C132 1_555 1_555
C121 N11 1_555 1_555
H85 C121 1_555 1_555
C122 H86 1_555 1_555
C123 C117 1_555 1_555
H87 C123 1_555 1_555
C124 C116 1_555 1_555
H88 C124 1_555 1_555
C125 C122 1_555 1_555
C126 C122 1_555 1_555
H89 C126 1_555 1_555
C127 C121 1_555 1_555
H90 C127 1_555 1_555
C128 C125 1_555 1_555
C129 C100 1_555 1_555
C130 C125 1_555 1_555
H91 C130 1_555 1_555
C131 C129 1_555 1_555
H92 C131 1_555 1_555
C132 C128 1_555 1_555
H93 C132 1_555 1_555
C133 C128 1_555 1_555
H94 C133 1_555 1_555
C134 N12 1_555 1_555
H95 C134 1_555 1_555
C135 C133 1_555 1_555
H96 C135 1_555 1_555
Cu10 N12 1_555 1_555
I7 Cu10 1_555 1_555
I9 Cu10 1_555 1_555
Cu7_2 N11 1_555 1_555
N13 Cu3 1_555 1_555
I4 Cu3 1_555 1_555
C94 C97 1_555 1_555
C96 C102 1_555 1_555
C101 C105 1_555 1_555
C104 C107 1_555 1_555
C108 C109 1_555 1_555
C112 C113 1_555 1_555
C116 C118 1_555 1_555
C119 C124 1_555 1_555
C123 C127 1_555 1_555
C126 C129 1_555 1_555
C130 C131 1_555 1_555
C134 C135 1_555 1_555
N13_2 Cu8 1_555 1_555
I4_2 Cu8 1_555 1_555
Cu12_2 I8 1_555 1_555
I4_3 Cu8_2 1_555 1_555
I10 Cu12_2 1_555 1_555
I1_2 Cu7 1_555 1_555
N14_2 Cu7 1_555 1_555
I1_3 Cu7_2 1_555 1_555
Cu13_2 I7 1_555 1_555
I9 Cu13_2 1_555 1_555
Cu13 N10_2 1_555 1_555
C91_2 C92_2 1_555 1_555
C92_2 H65_2 1_555 1_555
C93_2 C95_2 1_555 1_555
C94_2 C91_2 1_555 1_555
C95_2 C92_2 1_555 1_555
H66_2 C95_2 1_555 1_555
C96_2 C91_2 1_555 1_555
H67_2 C96_2 1_555 1_555
C97_2 N14 1_555 1_555
H68_2 C97_2 1_555 1_555
N10_2 C110_2 1_555 1_555
C98_2 N14 1_555 1_555
H69_2 C98_2 1_555 1_555
C99_2 H70_2 1_555 1_555
C100_2 C93_2 1_555 1_555
C101_2 C94_2 1_555 1_555
H71_2 C101_2 1_555 1_555
C102_2 C93_2 1_555 1_555
H72_2 C102_2 1_555 1_555
C103_2 C99_2 1_555 1_555
C104_2 C99_2 1_555 1_555
H73_2 C104_2 1_555 1_555
C105_2 C98_2 1_555 1_555
H74_2 C105_2 1_555 1_555
C106_2 C103_2 1_555 1_555
C107_2 C100_2 1_555 1_555
C108_2 C103_2 1_555 1_555
H75_2 C108_2 1_555 1_555
C109_2 C107_2 1_555 1_555
H76_2 C109_2 1_555 1_555
C110_2 C106_2 1_555 1_555
H77_2 C110_2 1_555 1_555
C111_2 C106_2 1_555 1_555
H78_2 C111_2 1_555 1_555
C112_2 N10_2 1_555 1_555
H79_2 C112_2 1_555 1_555
C113_2 C111_2 1_555 1_555
H80_2 C113_2 1_555 1_555
N13_2 C120_2 1_555 1_555
C114_2 C115_2 1_555 1_555
C115_2 H81_2 1_555 1_555
C116_2 C100_2 1_555 1_555
C117_2 C114_2 1_555 1_555
C118_2 C115_2 1_555 1_555
H82_2 C118_2 1_555 1_555
C119_2 C114_2 1_555 1_555
H83_2 C119_2 1_555 1_555
C120_2 C117_2 1_555 1_555
H84_2 C120_2 1_555 1_555
N12_2 C132_2 1_555 1_555
C121_2 N13_2 1_555 1_555
H85_2 C121_2 1_555 1_555
C122_2 H86_2 1_555 1_555
C123_2 C117_2 1_555 1_555
H87_2 C123_2 1_555 1_555
C124_2 C116_2 1_555 1_555
H88_2 C124_2 1_555 1_555
C125_2 C122_2 1_555 1_555
C126_2 C122_2 1_555 1_555
H89_2 C126_2 1_555 1_555
C127_2 C121_2 1_555 1_555
H90_2 C127_2 1_555 1_555
C128_2 C125_2 1_555 1_555
C129_2 C100_2 1_555 1_555
C130_2 C125_2 1_555 1_555
H91_2 C130_2 1_555 1_555
C131_2 C129_2 1_555 1_555
H92_2 C131_2 1_555 1_555
C132_2 C128_2 1_555 1_555
H93_2 C132_2 1_555 1_555
C133_2 C128_2 1_555 1_555
H94_2 C133_2 1_555 1_555
C134_2 N12_2 1_555 1_555
H95_2 C134_2 1_555 1_555
C135_2 C133_2 1_555 1_555
H96_2 C135_2 1_555 1_555
Cu12_2 N12_2 1_555 1_555
N15 Cu13 1_555 1_555
N16 Cu12_2 1_555 1_555
C94_2 C97_2 1_555 1_555
C96_2 C102_2 1_555 1_555
C101_2 C105_2 1_555 1_555
C104_2 C107_2 1_555 1_555
C108_2 C109_2 1_555 1_555
C112_2 C113_2 1_555 1_555
C116_2 C118_2 1_555 1_555
C119_2 C124_2 1_555 1_555
C123_2 C127_2 1_555 1_555
C126_2 C129_2 1_555 1_555
C130_2 C131_2 1_555 1_555
C134_2 C135_2 1_555 1_555
Cu12 N2_2 1_555 1_555
N13 C14_2 1_555 1_555
N2_2 C7_2 1_555 1_555
C1_2 C4_3 1_555 1_555
C2_2 C5_2 1_555 1_555
C3_2 C8_2 1_555 1_555
C5_2 H1_2 1_555 1_555
C6_2 C1_2 1_555 1_555
H2_2 C6_2 1_555 1_555
C7_2 H3_2 1_555 1_555
C8_2 H4_2 1_555 1_555
C9_2 C12_2 1_555 1_555
C10_2 C3_2 1_555 1_555
C11_2 C2_2 1_555 1_555
C12_2 C8_2 1_555 1_555
H5_2 C12_2 1_555 1_555
C13_2 C3_2 1_555 1_555
H6_2 C13_2 1_555 1_555
C14_2 C10_2 1_555 1_555
H7_2 C14_2 1_555 1_555
C15_2 C2_2 1_555 1_555
H8_2 C15_2 1_555 1_555
C16_2 C1_2 1_555 1_555
H9_2 C16_2 1_555 1_555
N3_2 Cu12 1_555 1_555
C17_2 N13 1_555 1_555
H10_2 C17_2 1_555 1_555
C18_2 H11_2 1_555 1_555
C19_2 C9_2 1_555 1_555
C20_2 C10_2 1_555 1_555
H12_2 C20_2 1_555 1_555
C21_2 C9_2 1_555 1_555
H13_2 C21_2 1_555 1_555
C22_2 C18_2 1_555 1_555
C23_2 C18_2 1_555 1_555
H14_2 C23_2 1_555 1_555
C24_2 C17_2 1_555 1_555
H15_2 C24_2 1_555 1_555
C25_2 C22_2 1_555 1_555
C26_2 N2_2 1_555 1_555
H16_2 C26_2 1_555 1_555
C27_2 C19_2 1_555 1_555
C28_2 C11_2 1_555 1_555
H17_2 C28_2 1_555 1_555
C29_2 C22_2 1_555 1_555
H18_2 C29_2 1_555 1_555
C30_2 C26_2 1_555 1_555
H19_2 C30_2 1_555 1_555
C31_2 C27_2 1_555 1_555
H20_2 C31_2 1_555 1_555
C32_2 N3_2 1_555 1_555
H21_2 C32_2 1_555 1_555
C33_2 C25_2 1_555 1_555
H22_2 C33_2 1_555 1_555
C34_2 N3_2 1_555 1_555
H23_2 C34_2 1_555 1_555
C35_2 C33_2 1_555 1_555
H24_2 C35_2 1_555 1_555
N14_2 C42_2 1_555 1_555
C36_2 C37_2 1_555 1_555
C37_2 H25_2 1_555 1_555
C38_2 C19_2 1_555 1_555
C39_2 C36_2 1_555 1_555
C40_2 C37_2 1_555 1_555
H26_2 C40_2 1_555 1_555
C41_2 C36_2 1_555 1_555
H27_2 C41_2 1_555 1_555
C42_2 C39_2 1_555 1_555
H28_2 C42_2 1_555 1_555
N5_2 C54_2 1_555 1_555
C43_2 N14_2 1_555 1_555
H29_2 C43_2 1_555 1_555
C44_2 H30_2 1_555 1_555
C45_2 C39_2 1_555 1_555
H31_2 C45_2 1_555 1_555
C46_2 C38_2 1_555 1_555
H32_2 C46_2 1_555 1_555
C47_2 C44_2 1_555 1_555
C48_2 C44_2 1_555 1_555
H33_2 C48_2 1_555 1_555
C49_2 C43_2 1_555 1_555
H34_2 C49_2 1_555 1_555
C50_2 C47_2 1_555 1_555
C51_2 C19_2 1_555 1_555
C52_2 C47_2 1_555 1_555
H35_2 C52_2 1_555 1_555
C53_2 C51_2 1_555 1_555
H36_2 C53_2 1_555 1_555
C54_2 C50_2 1_555 1_555
H37_2 C54_2 1_555 1_555
C55_2 C50_2 1_555 1_555
H38_2 C55_2 1_555 1_555
C56_2 N5_2 1_555 1_555
H39_2 C56_2 1_555 1_555
C57_2 C55_2 1_555 1_555
H40_2 C57_2 1_555 1_555
N16 C73_2 1_555 1_555
C69_2 C4_3 1_555 1_555
C70_2 C71_2 1_555 1_555
C71_2 H49_2 1_555 1_555
C72_2 C69_2 1_555 1_555
H50_2 C72_2 1_555 1_555
C73_2 H51_2 1_555 1_555
C74_2 C70_2 1_555 1_555
C75_2 C70_2 1_555 1_555
H52_2 C75_2 1_555 1_555
C76_2 C69_2 1_555 1_555
H53_2 C76_2 1_555 1_555
C77_2 N16 1_555 1_555
H54_2 C77_2 1_555 1_555
C78_2 C74_2 1_555 1_555
H55_2 C78_2 1_555 1_555
C79_2 C77_2 1_555 1_555
H56_2 C79_2 1_555 1_555
Cu13_2 N5_2 1_555 1_555
N17 Cu13_2 1_555 1_555
C5_2 C6_2 1_555 1_555
C7_2 C11_2 1_555 1_555
C13_2 C21_2 1_555 1_555
C15_2 C16_2 1_555 1_555
C20_2 C24_2 1_555 1_555
C23_2 C27_2 1_555 1_555
C25_2 C32_2 1_555 1_555
C28_2 C30_2 1_555 1_555
C29_2 C31_2 1_555 1_555
C34_2 C35_2 1_555 1_555
C38_2 C40_2 1_555 1_555
C41_2 C46_2 1_555 1_555
C45_2 C49_2 1_555 1_555
C48_2 C51_2 1_555 1_555
C52_2 C53_2 1_555 1_555
C56_2 C57_2 1_555 1_555
C71_2 C72_2 1_555 1_555
C73_2 C74_2 1_555 1_555
C75_2 C76_2 1_555 1_555
C78_2 C79_2 1_555 1_555
C4_4 C58_2 1_555 1_555
N15 C62_2 1_555 1_555
C58_2 C61_2 1_555 1_555
C59_2 C60_2 1_555 1_555
C60_2 H41_2 1_555 1_555
C61_2 C60_2 1_555 1_555
H42_2 C61_2 1_555 1_555
C62_2 H43_2 1_555 1_555
C63_2 C59_2 1_555 1_555
C64_2 C59_2 1_555 1_555
H44_2 C64_2 1_555 1_555
C65_2 C58_2 1_555 1_555
H45_2 C65_2 1_555 1_555
C66_2 N15 1_555 1_555
H46_2 C66_2 1_555 1_555
C67_2 C63_2 1_555 1_555
H47_2 C67_2 1_555 1_555
C68_2 C66_2 1_555 1_555
H48_2 C68_2 1_555 1_555
N17 C84_2 1_555 1_555
C80_2 C4_4 1_555 1_555
C81_2 C82_2 1_555 1_555
C82_2 H57_2 1_555 1_555
C83_2 C80_2 1_555 1_555
H58_2 C83_2 1_555 1_555
C84_2 H59_2 1_555 1_555
C85_2 C81_2 1_555 1_555
C86_2 C81_2 1_555 1_555
H60_2 C86_2 1_555 1_555
C87_2 C80_2 1_555 1_555
H61_2 C87_2 1_555 1_555
C88_2 N17 1_555 1_555
H62_2 C88_2 1_555 1_555
C89_2 C85_2 1_555 1_555
H63_2 C89_2 1_555 1_555
C90_2 C88_2 1_555 1_555
H64_2 C90_2 1_555 1_555
C62_2 C63_2 1_555 1_555
C64_2 C65_2 1_555 1_555
C67_2 C68_2 1_555 1_555
C82_2 C83_2 1_555 1_555
C84_2 C85_2 1_555 1_555
C86_2 C87_2 1_555 1_555
C89_2 C90_2 1_555 1_555
C4_5 C58_3 1_555 1_555
H24_3 C35_3 1_555 1_555
N6_2 C62_3 1_555 1_555
C58_3 C61_3 1_555 1_555
C59_3 C60_3 1_555 1_555
C60_3 H41_3 1_555 1_555
C61_3 C60_3 1_555 1_555
C62_3 H43_3 1_555 1_555
C63_3 C59_3 1_555 1_555
C64_3 C59_3 1_555 1_555
H44_3 C64_3 1_555 1_555
C65_3 C58_3 1_555 1_555
H45_3 C65_3 1_555 1_555
C66_3 N6_2 1_555 1_555
H46_3 C66_3 1_555 1_555
C67_3 C63_3 1_555 1_555
H47_3 C67_3 1_555 1_555
C68_3 C66_3 1_555 1_555
H48_3 C68_3 1_555 1_555
N7_2 C73_3 1_555 1_555
C69_3 C4_5 1_555 1_555
C70_3 C71_3 1_555 1_555
C71_3 H49_3 1_555 1_555
C72_3 C69_3 1_555 1_555
C73_3 H51_3 1_555 1_555
C74_3 C70_3 1_555 1_555
C75_3 C70_3 1_555 1_555
H52_3 C75_3 1_555 1_555
C76_3 C69_3 1_555 1_555
H53_3 C76_3 1_555 1_555
C77_3 N7_2 1_555 1_555
H54_3 C77_3 1_555 1_555
C78_3 C74_3 1_555 1_555
H55_3 C78_3 1_555 1_555
C79_3 C77_3 1_555 1_555
H56_3 C79_3 1_555 1_555
Cu9_2 N6_2 1_555 1_555
Cu10_2 N7_2 1_555 1_555
C62_3 C63_3 1_555 1_555
C64_3 C65_3 1_555 1_555
C67_3 C68_3 1_555 1_555
C71_3 C72_3 1_555 1_555
C73_3 C74_3 1_555 1_555
C75_3 C76_3 1_555 1_555
C78_3 C79_3 1_555 1_555
H40_3 C57_3 1_555 1_555
Cu13_3 I2_3 1_555 1_555
I3_3 Cu13_3 1_555 1_555
I2_4 Cu2_2 1_555 1_555
I3_4 Cu2_2 1_555 1_555
Cu1_2 N1_2 1_555 1_555
Cu2_2 N2_3 1_555 1_555
N1_2 C14_3 1_555 1_555
N2_3 C7_3 1_555 1_555
C1_3 C4_6 1_555 1_555
C2_3 C5_3 1_555 1_555
C3_3 C8_3 1_555 1_555
C5_3 H1_3 1_555 1_555
C6_3 C1_3 1_555 1_555
C7_3 H3_3 1_555 1_555
C10_3 C3_3 1_555 1_555
C11_3 C2_3 1_555 1_555
C13_3 C3_3 1_555 1_555
H6_3 C13_3 1_555 1_555
C14_3 C10_3 1_555 1_555
H7_3 C14_3 1_555 1_555
C15_3 C2_3 1_555 1_555
H8_3 C15_3 1_555 1_555
C16_3 C1_3 1_555 1_555
H9_3 C16_3 1_555 1_555
N3_3 Cu2_2 1_555 1_555
C17_3 N1_2 1_555 1_555
H10_3 C17_3 1_555 1_555
C18_3 H11_3 1_555 1_555
C19_3 C9_3 1_555 1_555
C20_3 C10_3 1_555 1_555
H12_3 C20_3 1_555 1_555
C21_3 C9_3 1_555 1_555
H13_3 C21_3 1_555 1_555
C22_3 C18_3 1_555 1_555
C23_3 C18_3 1_555 1_555
H14_3 C23_3 1_555 1_555
C24_3 C17_3 1_555 1_555
H15_3 C24_3 1_555 1_555
C25_3 C22_3 1_555 1_555
C26_3 N2_3 1_555 1_555
H16_3 C26_3 1_555 1_555
C27_3 C19_3 1_555 1_555
C28_3 C11_3 1_555 1_555
H17_3 C28_3 1_555 1_555
C29_3 C22_3 1_555 1_555
H18_3 C29_3 1_555 1_555
C30_3 C26_3 1_555 1_555
H19_3 C30_3 1_555 1_555
C31_3 C27_3 1_555 1_555
H20_3 C31_3 1_555 1_555
C32_3 N3_3 1_555 1_555
H21_3 C32_3 1_555 1_555
C33_3 C25_3 1_555 1_555
H22_3 C33_3 1_555 1_555
C34_3 N3_3 1_555 1_555
H26_3 C40_3 1_555 1_555
N8_2 C84_3 1_555 1_555
C80_3 C4_6 1_555 1_555
C81_3 C82_3 1_555 1_555
C82_3 H57_3 1_555 1_555
C83_3 C80_3 1_555 1_555
C84_3 H59_3 1_555 1_555
C85_3 C81_3 1_555 1_555
C86_3 C81_3 1_555 1_555
H60_3 C86_3 1_555 1_555
C87_3 C80_3 1_555 1_555
H61_3 C87_3 1_555 1_555
C88_3 N8_2 1_555 1_555
H62_3 C88_3 1_555 1_555
C89_3 C85_3 1_555 1_555
H63_3 C89_3 1_555 1_555
C90_3 C88_3 1_555 1_555
H64_3 C90_3 1_555 1_555
I4_4 Cu1_2 1_555 1_555
H66_3 C95_3 1_555 1_555
N11_2 C120_3 1_555 1_555
C114_3 C115_3 1_555 1_555
C116_3 C100_3 1_555 1_555
C117_3 C114_3 1_555 1_555
C119_3 C114_3 1_555 1_555
H83_3 C119_3 1_555 1_555
C120_3 C117_3 1_555 1_555
H84_3 C120_3 1_555 1_555
N12_3 C132_3 1_555 1_555
C121_3 N11_2 1_555 1_555
H85_3 C121_3 1_555 1_555
C122_3 H86_3 1_555 1_555
C123_3 C117_3 1_555 1_555
H87_3 C123_3 1_555 1_555
C124_3 C116_3 1_555 1_555
H88_3 C124_3 1_555 1_555
C125_3 C122_3 1_555 1_555
C126_3 C122_3 1_555 1_555
H89_3 C126_3 1_555 1_555
C127_3 C121_3 1_555 1_555
H90_3 C127_3 1_555 1_555
C128_3 C125_3 1_555 1_555
C129_3 C100_3 1_555 1_555
C130_3 C125_3 1_555 1_555
H91_3 C130_3 1_555 1_555
C131_3 C129_3 1_555 1_555
H92_3 C131_3 1_555 1_555
C132_3 C128_3 1_555 1_555
H93_3 C132_3 1_555 1_555
C133_3 C128_3 1_555 1_555
H94_3 C133_3 1_555 1_555
C134_3 N12_3 1_555 1_555
Cu10_2 N12_3 1_555 1_555
I7_2 Cu10_2 1_555 1_555
I9_2 Cu10_2 1_555 1_555
Cu7_4 N11_2 1_555 1_555
Cu11_2 N8_2 1_555 1_555
N14_3 Cu1_2 1_555 1_555
C5_3 C6_3 1_555 1_555
C7_3 C11_3 1_555 1_555
C13_3 C21_3 1_555 1_555
C15_3 C16_3 1_555 1_555
C20_3 C24_3 1_555 1_555
C23_3 C27_3 1_555 1_555
C25_3 C32_3 1_555 1_555
C28_3 C30_3 1_555 1_555
C29_3 C31_3 1_555 1_555
C82_3 C83_3 1_555 1_555
C84_3 C85_3 1_555 1_555
C86_3 C87_3 1_555 1_555
C89_3 C90_3 1_555 1_555
C119_3 C124_3 1_555 1_555
C123_3 C127_3 1_555 1_555
C126_3 C129_3 1_555 1_555
C130_3 C131_3 1_555 1_555
Cu12_3 I5_3 1_555 1_555
I6_3 Cu12_3 1_555 1_555
H5_3 C12_3 1_555 1_555
N4_2 C42_3 1_555 1_555
C36_3 C37_3 1_555 1_555
C38_3 C19_4 1_555 1_555
C39_3 C36_3 1_555 1_555
C41_3 C36_3 1_555 1_555
H27_3 C41_3 1_555 1_555
C42_3 C39_3 1_555 1_555
H28_3 C42_3 1_555 1_555
N5_3 C54_3 1_555 1_555
C43_3 N4_2 1_555 1_555
H29_3 C43_3 1_555 1_555
C44_3 H30_3 1_555 1_555
C45_3 C39_3 1_555 1_555
H31_3 C45_3 1_555 1_555
C46_3 C38_3 1_555 1_555
H32_3 C46_3 1_555 1_555
C47_3 C44_3 1_555 1_555
C48_3 C44_3 1_555 1_555
H33_3 C48_3 1_555 1_555
C49_3 C43_3 1_555 1_555
H34_3 C49_3 1_555 1_555
C50_3 C47_3 1_555 1_555
C51_3 C19_4 1_555 1_555
C52_3 C47_3 1_555 1_555
H35_3 C52_3 1_555 1_555
C53_3 C51_3 1_555 1_555
H36_3 C53_3 1_555 1_555
C54_3 C50_3 1_555 1_555
H37_3 C54_3 1_555 1_555
C55_3 C50_3 1_555 1_555
H38_3 C55_3 1_555 1_555
C56_3 N5_3 1_555 1_555
I5_4 Cu9_2 1_555 1_555
I6_4 Cu9_2 1_555 1_555
Cu3_2 I1_4 1_555 1_555
Cu9_2 N10_3 1_555 1_555
N9_2 Cu3_2 1_555 1_555
C91_3 C92_3 1_555 1_555
C94_3 C91_3 1_555 1_555
C96_3 C91_3 1_555 1_555
H67_3 C96_3 1_555 1_555
C97_3 N9_2 1_555 1_555
H68_3 C97_3 1_555 1_555
N10_3 C110_3 1_555 1_555
C98_3 N9_2 1_555 1_555
H69_3 C98_3 1_555 1_555
C99_3 H70_3 1_555 1_555
C100_4 C93_3 1_555 1_555
C101_3 C94_3 1_555 1_555
H71_3 C101_3 1_555 1_555
C102_3 C93_3 1_555 1_555
H72_3 C102_3 1_555 1_555
C103_3 C99_3 1_555 1_555
C104_3 C99_3 1_555 1_555
H73_3 C104_3 1_555 1_555
C105_3 C98_3 1_555 1_555
H74_3 C105_3 1_555 1_555
C106_3 C103_3 1_555 1_555
C107_3 C100_4 1_555 1_555
C108_3 C103_3 1_555 1_555
H75_3 C108_3 1_555 1_555
C109_3 C107_3 1_555 1_555
H76_3 C109_3 1_555 1_555
C110_3 C106_3 1_555 1_555
H77_3 C110_3 1_555 1_555
C111_3 C106_3 1_555 1_555
H78_3 C111_3 1_555 1_555
C112_3 N10_3 1_555 1_555
H82_3 C118_3 1_555 1_555
Cu11_2 N5_3 1_555 1_555
I8_2 Cu11_2 1_555 1_555
I10_2 Cu11_2 1_555 1_555
Cu8_4 N4_2 1_555 1_555
N13_3 Cu3_2 1_555 1_555
C41_3 C46_3 1_555 1_555
C45_3 C49_3 1_555 1_555
C48_3 C51_3 1_555 1_555
C52_3 C53_3 1_555 1_555
C94_3 C97_3 1_555 1_555
C96_3 C102_3 1_555 1_555
C101_3 C105_3 1_555 1_555
C104_3 C107_3 1_555 1_555
C108_3 C109_3 1_555 1_555
H96_3 C135_3 1_555 1_555
H80_3 C113_3 1_555 1_555
I4_5 Cu7_3 1_555 1_555
N14_4 Cu7_3 1_555 1_555
I4_6 Cu7_4 1_555 1_555
Cu13_4 I7_2 1_555 1_555
I9_2 Cu13_4 1_555 1_555
Cu8_3 I1_5 1_555 1_555
N13_4 Cu8_3 1_555 1_555
Cu8_4 I1_6 1_555 1_555
Cu12_4 I8_2 1_555 1_555
I10_2 Cu12_4 1_555 1_555
H80_4 C113_4 1_555 1_555
H96_4 C135_4 1_555 1_555
H5_4 C12_4 1_555 1_555
N14_4 C42_4 1_555 1_555
C36_4 C37_4 1_555 1_555
C38_4 C19_5 1_555 1_555
C39_4 C36_4 1_555 1_555
C41_4 C36_4 1_555 1_555
H27_4 C41_4 1_555 1_555
C42_4 C39_4 1_555 1_555
H28_4 C42_4 1_555 1_555
N5_4 C54_4 1_555 1_555
C43_4 N14_4 1_555 1_555
H29_4 C43_4 1_555 1_555
C44_4 H30_4 1_555 1_555
C45_4 C39_4 1_555 1_555
H31_4 C45_4 1_555 1_555
C46_4 C38_4 1_555 1_555
H32_4 C46_4 1_555 1_555
C47_4 C44_4 1_555 1_555
C48_4 C44_4 1_555 1_555
H33_4 C48_4 1_555 1_555
C49_4 C43_4 1_555 1_555
H34_4 C49_4 1_555 1_555
C50_4 C47_4 1_555 1_555
C51_4 C19_5 1_555 1_555
C52_4 C47_4 1_555 1_555
H35_4 C52_4 1_555 1_555
C53_4 C51_4 1_555 1_555
H36_4 C53_4 1_555 1_555
C54_4 C50_4 1_555 1_555
H37_4 C54_4 1_555 1_555
C55_4 C50_4 1_555 1_555
H38_4 C55_4 1_555 1_555
C56_4 N5_4 1_555 1_555
Cu13_3 N10_4 1_555 1_555
C91_4 C92_4 1_555 1_555
C94_4 C91_4 1_555 1_555
C96_4 C91_4 1_555 1_555
H67_4 C96_4 1_555 1_555
C97_4 N14_3 1_555 1_555
H68_4 C97_4 1_555 1_555
N10_4 C110_4 1_555 1_555
C98_4 N14_3 1_555 1_555
H69_4 C98_4 1_555 1_555
C99_4 H70_4 1_555 1_555
C100_5 C93_4 1_555 1_555
C101_4 C94_4 1_555 1_555
H71_4 C101_4 1_555 1_555
C102_4 C93_4 1_555 1_555
H72_4 C102_4 1_555 1_555
C103_4 C99_4 1_555 1_555
C104_4 C99_4 1_555 1_555
H73_4 C104_4 1_555 1_555
C105_4 C98_4 1_555 1_555
H74_4 C105_4 1_555 1_555
C106_4 C103_4 1_555 1_555
C107_4 C100_5 1_555 1_555
C108_4 C103_4 1_555 1_555
H75_4 C108_4 1_555 1_555
C109_4 C107_4 1_555 1_555
H76_4 C109_4 1_555 1_555
C110_4 C106_4 1_555 1_555
H77_4 C110_4 1_555 1_555
C111_4 C106_4 1_555 1_555
H78_4 C111_4 1_555 1_555
C112_4 N10_4 1_555 1_555
H82_4 C118_4 1_555 1_555
Cu13_4 N5_4 1_555 1_555
N15_2 Cu13_3 1_555 1_555
N17_2 Cu13_4 1_555 1_555
C41_4 C46_4 1_555 1_555
C45_4 C49_4 1_555 1_555
C48_4 C51_4 1_555 1_555
C52_4 C53_4 1_555 1_555
C94_4 C97_4 1_555 1_555
C96_4 C102_4 1_555 1_555
C101_4 C105_4 1_555 1_555
C104_4 C107_4 1_555 1_555
C108_4 C109_4 1_555 1_555
Cu12_3 N2_4 1_555 1_555
N13_3 C14_4 1_555 1_555
N2_4 C7_4 1_555 1_555
C1_4 C4_7 1_555 1_555
C2_4 C5_4 1_555 1_555
C3_4 C8_4 1_555 1_555
C5_4 H1_4 1_555 1_555
C6_4 C1_4 1_555 1_555
C7_4 H3_4 1_555 1_555
C10_4 C3_4 1_555 1_555
C11_4 C2_4 1_555 1_555
C13_4 C3_4 1_555 1_555
H6_4 C13_4 1_555 1_555
C14_4 C10_4 1_555 1_555
H7_4 C14_4 1_555 1_555
C15_4 C2_4 1_555 1_555
H8_4 C15_4 1_555 1_555
C16_4 C1_4 1_555 1_555
H9_4 C16_4 1_555 1_555
N3_4 Cu12_3 1_555 1_555
C17_4 N13_3 1_555 1_555
H10_4 C17_4 1_555 1_555
C18_4 H11_4 1_555 1_555
C19_6 C9_4 1_555 1_555
C20_4 C10_4 1_555 1_555
H12_4 C20_4 1_555 1_555
C21_4 C9_4 1_555 1_555
H13_4 C21_4 1_555 1_555
C22_4 C18_4 1_555 1_555
C23_4 C18_4 1_555 1_555
H14_4 C23_4 1_555 1_555
C24_4 C17_4 1_555 1_555
H15_4 C24_4 1_555 1_555
C25_4 C22_4 1_555 1_555
C26_4 N2_4 1_555 1_555
H16_4 C26_4 1_555 1_555
C27_4 C19_6 1_555 1_555
C28_4 C11_4 1_555 1_555
H17_4 C28_4 1_555 1_555
C29_4 C22_4 1_555 1_555
H18_4 C29_4 1_555 1_555
C30_4 C26_4 1_555 1_555
H19_4 C30_4 1_555 1_555
C31_4 C27_4 1_555 1_555
H20_4 C31_4 1_555 1_555
C32_4 N3_4 1_555 1_555
H21_4 C32_4 1_555 1_555
C33_4 C25_4 1_555 1_555
H22_4 C33_4 1_555 1_555
C34_4 N3_4 1_555 1_555
H26_4 C40_4 1_555 1_555
N17_2 C84_4 1_555 1_555
C80_4 C4_7 1_555 1_555
C81_4 C82_4 1_555 1_555
C82_4 H57_4 1_555 1_555
C83_4 C80_4 1_555 1_555
C84_4 H59_4 1_555 1_555
C85_4 C81_4 1_555 1_555
C86_4 C81_4 1_555 1_555
H60_4 C86_4 1_555 1_555
C87_4 C80_4 1_555 1_555
H61_4 C87_4 1_555 1_555
C88_4 N17_2 1_555 1_555
H62_4 C88_4 1_555 1_555
C89_4 C85_4 1_555 1_555
H63_4 C89_4 1_555 1_555
C90_4 C88_4 1_555 1_555
H64_4 C90_4 1_555 1_555
H66_4 C95_4 1_555 1_555
N13_4 C120_4 1_555 1_555
C114_4 C115_4 1_555 1_555
C116_4 C100_6 1_555 1_555
C117_4 C114_4 1_555 1_555
C119_4 C114_4 1_555 1_555
H83_4 C119_4 1_555 1_555
C120_4 C117_4 1_555 1_555
H84_4 C120_4 1_555 1_555
N12_4 C132_4 1_555 1_555
C121_4 N13_4 1_555 1_555
H85_4 C121_4 1_555 1_555
C122_4 H86_4 1_555 1_555
C123_4 C117_4 1_555 1_555
H87_4 C123_4 1_555 1_555
C124_4 C116_4 1_555 1_555
H88_4 C124_4 1_555 1_555
C125_4 C122_4 1_555 1_555
C126_4 C122_4 1_555 1_555
H89_4 C126_4 1_555 1_555
C127_4 C121_4 1_555 1_555
H90_4 C127_4 1_555 1_555
C128_4 C125_4 1_555 1_555
C129_4 C100_6 1_555 1_555
C130_4 C125_4 1_555 1_555
H91_4 C130_4 1_555 1_555
C131_4 C129_4 1_555 1_555
H92_4 C131_4 1_555 1_555
C132_4 C128_4 1_555 1_555
H93_4 C132_4 1_555 1_555
C133_4 C128_4 1_555 1_555
H94_4 C133_4 1_555 1_555
C134_4 N12_4 1_555 1_555
Cu12_4 N12_4 1_555 1_555
N16_2 Cu12_4 1_555 1_555
C5_4 C6_4 1_555 1_555
C7_4 C11_4 1_555 1_555
C13_4 C21_4 1_555 1_555
C15_4 C16_4 1_555 1_555
C20_4 C24_4 1_555 1_555
C23_4 C27_4 1_555 1_555
C25_4 C32_4 1_555 1_555
C28_4 C30_4 1_555 1_555
C29_4 C31_4 1_555 1_555
C82_4 C83_4 1_555 1_555
C84_4 C85_4 1_555 1_555
C86_4 C87_4 1_555 1_555
C89_4 C90_4 1_555 1_555
C119_4 C124_4 1_555 1_555
C123_4 C127_4 1_555 1_555
C126_4 C129_4 1_555 1_555
C130_4 C131_4 1_555 1_555
H40_4 C57_4 1_555 1_555
C4_8 C58_4 1_555 1_555
H24_4 C35_4 1_555 1_555
N15_2 C62_4 1_555 1_555
C58_4 C61_4 1_555 1_555
C59_4 C60_4 1_555 1_555
C60_4 H41_4 1_555 1_555
C61_4 C60_4 1_555 1_555
C62_4 H43_4 1_555 1_555
C63_4 C59_4 1_555 1_555
C64_4 C59_4 1_555 1_555
H44_4 C64_4 1_555 1_555
C65_4 C58_4 1_555 1_555
H45_4 C65_4 1_555 1_555
C66_4 N15_2 1_555 1_555
H46_4 C66_4 1_555 1_555
C67_4 C63_4 1_555 1_555
H47_4 C67_4 1_555 1_555
C68_4 C66_4 1_555 1_555
H48_4 C68_4 1_555 1_555
N16_2 C73_4 1_555 1_555
C69_4 C4_8 1_555 1_555
C70_4 C71_4 1_555 1_555
C71_4 H49_4 1_555 1_555
C72_4 C69_4 1_555 1_555
C73_4 H51_4 1_555 1_555
C74_4 C70_4 1_555 1_555
C75_4 C70_4 1_555 1_555
H52_4 C75_4 1_555 1_555
C76_4 C69_4 1_555 1_555
H53_4 C76_4 1_555 1_555
C77_4 N16_2 1_555 1_555
H54_4 C77_4 1_555 1_555
C78_4 C74_4 1_555 1_555
H55_4 C78_4 1_555 1_555
C79_4 C77_4 1_555 1_555
H56_4 C79_4 1_555 1_555
C62_4 C63_4 1_555 1_555
C64_4 C65_4 1_555 1_555
C67_4 C68_4 1_555 1_555
C71_4 C72_4 1_555 1_555
C73_4 C74_4 1_555 1_555
C75_4 C76_4 1_555 1_555
C78_4 C79_4 1_555 1_555

#END
