
###############################################################################
#
# This file contains modified crystal structure data generated from the
# MOF subset of the Cambridge Structural Database (CSD) v543 
# hosted by the Cambridge Crystallographic Data Centre (CCDC).
#
# This work is licensed under the Creative Commons
# Attribution-NonCommercial-ShareAlike 4.0 International License.
# To view a copy of this license, visit
# http://creativecommons.org/licenses/by-nc-sa/4.0/
# or send a letter to
# Creative Commons, PO Box 1866, Mountain View, CA 94042, USA.
#
# CIF created using the CSD Python API on 29 September 2022
# The structure has been converted into the P1 space group
# The structure has a 3D framework
# The original CSD entry ABETIN is in the tetragonal crystal system
# The framework has been calculated to contain at least 10.0% void space
# The void calculation uses a probe of radius 1.32A, grid spacing 0.4
# The framework is charged, counterions have been retained in the structure
# H atom positions have been added when not included in the experimental data
#
###############################################################################

data_ABETIN
_chemical_formula_moiety         '(C480 H544 Cu8 N96 O320 P12 W96 16+)n'
_symmetry_cell_setting           triclinic
_symmetry_space_group_name_H-M   'P 1'
_symmetry_Int_Tables_number      1
_space_group_name_Hall           'P 1'
loop_
_symmetry_equiv_pos_site_id
_symmetry_equiv_pos_as_xyz
1 x,y,z
_cell_length_a                   26.9629(3)
_cell_length_b                   26.9629(3)
_cell_length_c                   27.5365(4)
_cell_angle_alpha                90
_cell_angle_beta                 90
_cell_angle_gamma                90
_cell_volume                     20019
loop_
_atom_site_label
_atom_site_type_symbol
_atom_site_fract_x
_atom_site_fract_y
_atom_site_fract_z
Cu1 Cu 0.7500 0.37085(6) 0.5000
N1 N 0.4185(2) 0.4877(2) 0.6897(2)
N2 N 0.6919(2) 0.4166(2) 0.4855(2)
C1 C 0.3957(3) 0.4670(3) 0.6510(3)
H1 H 0.3663 0.4497 0.6562
C2 C 0.4139(3) 0.4701(3) 0.6044(3)
H2 H 0.3969 0.4556 0.5786
C3 C 0.4585(3) 0.4955(3) 0.5965(3)
C4 C 0.4832(3) 0.5143(3) 0.6364(3)
H3 H 0.5140 0.5294 0.6328
C5 C 0.4615(3) 0.5104(3) 0.6820(3)
H4 H 0.4779 0.5243 0.7084
C6 C 0.4797(3) 0.4994(3) 0.5474(3)
C7 C 0.5286(3) 0.4853(3) 0.5390(3)
H5 H 0.5480 0.4758 0.5653
C8 C 0.5494(3) 0.4849(3) 0.4932(3)
C9 C 0.5996(3) 0.4635(3) 0.4880(3)
C10 C 0.6383(3) 0.4797(3) 0.5171(3)
H6 H 0.6340 0.5066 0.5378
C11 C 0.6836(3) 0.4554(3) 0.5148(3)
H7 H 0.7094 0.4666 0.5345
C12 C 0.6550(3) 0.4020(3) 0.4568(3)
H8 H 0.6608 0.3759 0.4354
C13 C 0.6083(3) 0.4237(3) 0.4571(3)
H9 H 0.5833 0.4118 0.4370
N3 N 0.5815(2) 0.5123(2) 0.3103(2)
N4 N 0.3081(2) 0.5834(2) 0.5145(2)
C14 C 0.6043(3) 0.5330(3) 0.3490(3)
H10 H 0.6337 0.5503 0.3438
C15 C 0.5861(3) 0.5299(3) 0.3956(3)
H11 H 0.6031 0.5444 0.4214
C16 C 0.5415(3) 0.5045(3) 0.4035(3)
C17 C 0.5168(3) 0.4857(3) 0.3636(3)
H12 H 0.4860 0.4706 0.3672
C18 C 0.5385(3) 0.4896(3) 0.3180(3)
H13 H 0.5221 0.4757 0.2916
C19 C 0.5203(3) 0.5006(3) 0.4526(3)
C20 C 0.4714(3) 0.5147(3) 0.4610(3)
H14 H 0.4520 0.5242 0.4347
C21 C 0.4506(3) 0.5151(3) 0.5068(3)
C22 C 0.4004(3) 0.5365(3) 0.5120(3)
C23 C 0.3617(3) 0.5203(3) 0.4829(3)
H15 H 0.3660 0.4934 0.4622
C24 C 0.3164(3) 0.5446(3) 0.4852(3)
H16 H 0.2906 0.5334 0.4655
C25 C 0.3450(3) 0.5980(3) 0.5432(3)
H17 H 0.3392 0.6241 0.5646
C26 C 0.3917(3) 0.5763(3) 0.5429(3)
H18 H 0.4167 0.5882 0.5630
Cu2 Cu 0.62085(6) 0.5000 0.2500
Cu3 Cu 0.2500 0.62915(6) 0.5000
Cu4 Cu 0.37915(6) 0.5000 0.7500
N5 N 0.7623(2) 0.3315(2) 0.4397(2)
N6 N 0.7377(2) 0.3315(2) 0.5603(2)
N7 N 0.8081(2) 0.4166(2) 0.5145(2)
Cu4_2 Cu 0.7500 0.12915(6) -0.0000
Cu1_2 Cu 0.87915(6) 0.5000 0.7500
N1_2 N 0.7623(2) 0.1685(2) 0.9397(2)
N2_2 N 0.8334(2) 0.4419(2) 0.7355(2)
C1_2 C 0.7830(3) 0.1457(3) 0.9010(3)
H1_2 H 0.8003 0.1163 0.9062
C2_2 C 0.7799(3) 0.1639(3) 0.8544(3)
H2_2 H 0.7944 0.1469 0.8286
C3_2 C 0.7545(3) 0.2085(3) 0.8465(3)
C4_2 C 0.7357(3) 0.2332(3) 0.8864(3)
H3_2 H 0.7206 0.2640 0.8828
C5_2 C 0.7396(3) 0.2115(3) 0.9320(3)
H4_2 H 0.7257 0.2279 0.9584
C6_2 C 0.7506(3) 0.2297(3) 0.7974(3)
C7_2 C 0.7647(3) 0.2786(3) 0.7890(3)
H5_2 H 0.7742 0.2980 0.8153
C8_2 C 0.7651(3) 0.2994(3) 0.7432(3)
C9_2 C 0.7865(3) 0.3496(3) 0.7380(3)
C10_2 C 0.7703(3) 0.3883(3) 0.7671(3)
H6_2 H 0.7434 0.3840 0.7878
C11_2 C 0.7946(3) 0.4336(3) 0.7648(3)
H7_2 H 0.7834 0.4594 0.7845
C12_2 C 0.8480(3) 0.4050(3) 0.7068(3)
H8_2 H 0.8741 0.4108 0.6854
C13_2 C 0.8263(3) 0.3583(3) 0.7071(3)
H9_2 H 0.8382 0.3333 0.6870
N4_2 N 0.6666(2) 0.0581(2) 0.7645(2)
C14_2 C 0.7170(3) 0.3543(3) 0.5990(3)
H10_2 H 0.6997 0.3837 0.5938
C15_2 C 0.7201(3) 0.3361(3) 0.6456(3)
H11_2 H 0.7056 0.3531 0.6714
C16_2 C 0.7455(3) 0.2915(3) 0.6535(3)
C17_2 C 0.7643(3) 0.2668(3) 0.6136(3)
H12_2 H 0.7794 0.2360 0.6172
C18_2 C 0.7604(3) 0.2885(3) 0.5680(3)
H13_2 H 0.7743 0.2721 0.5416
C19_2 C 0.7494(3) 0.2703(3) 0.7026(3)
C20_2 C 0.7353(3) 0.2214(3) 0.7110(3)
H14_2 H 0.7258 0.2020 0.6847
C21_2 C 0.7349(3) 0.2006(3) 0.7568(3)
C22_2 C 0.7135(3) 0.1504(3) 0.7620(3)
C23_2 C 0.7297(3) 0.1117(3) 0.7329(3)
H15_2 H 0.7566 0.1160 0.7122
C24_2 C 0.7054(3) 0.0664(3) 0.7352(3)
H16_2 H 0.7166 0.0406 0.7155
C25_2 C 0.6520(3) 0.0950(3) 0.7932(3)
H17_2 H 0.6259 0.0892 0.8146
C26_2 C 0.6737(3) 0.1417(3) 0.7929(3)
H18_2 H 0.6618 0.1667 0.8130
Cu3_2 Cu 0.62085(6) -0.0000 0.7500
Cu4_3 Cu 0.7500 0.12915(6) 1.0000
N5_2 N 0.9185(2) 0.5123(2) 0.6897(2)
N6_2 N 0.9185(2) 0.4877(2) 0.8103(2)
N7_2 N 0.8334(2) 0.5581(2) 0.7645(2)
Cu3_3 Cu 0.62085(6) 1.0000 0.7500
Cu1_3 Cu 0.2500 0.12915(6) 0.5000
N1_3 N 0.5815(2) 0.0123(2) 0.6897(2)
N2_3 N 0.3081(2) 0.0834(2) 0.4855(2)
C1_3 C 0.6043(3) 0.0330(3) 0.6510(3)
H1_3 H 0.6337 0.0503 0.6562
C2_3 C 0.5861(3) 0.0299(3) 0.6044(3)
H2_3 H 0.6031 0.0444 0.5786
C3_3 C 0.5415(3) 0.0045(3) 0.5965(3)
C6_3 C 0.5203(3) 0.0006(3) 0.5474(3)
C7_3 C 0.4714(3) 0.0147(3) 0.5390(3)
H5_3 H 0.4520 0.0242 0.5653
C8_3 C 0.4506(3) 0.0151(3) 0.4932(3)
C9_3 C 0.4004(3) 0.0365(3) 0.4880(3)
C10_3 C 0.3617(3) 0.0203(3) 0.5171(3)
C11_3 C 0.3164(3) 0.0446(3) 0.5148(3)
H7_3 H 0.2906 0.0334 0.5345
C12_3 C 0.3450(3) 0.0980(3) 0.4568(3)
H8_3 H 0.3392 0.1241 0.4354
C13_3 C 0.3917(3) 0.0763(3) 0.4571(3)
H9_3 H 0.4167 0.0882 0.4370
C17_3 C 0.4832(3) 0.0143(3) 0.3636(3)
H12_3 H 0.5140 0.0294 0.3672
C18_3 C 0.4615(3) 0.0104(3) 0.3180(3)
H13_3 H 0.4779 0.0243 0.2916
H15_3 H 0.6340 0.0066 0.4622
Cu2_2 Cu 0.37915(6) 0.0000 0.2500
N5_3 N 0.2377(2) 0.1685(2) 0.4397(2)
N6_3 N 0.2623(2) 0.1685(2) 0.5603(2)
N7_3 N 0.1919(2) 0.0834(2) 0.5145(2)
C4_3 C 0.5168(3) 0.9857(3) 0.6364(3)
H3_3 H 0.4860 0.9706 0.6328
C5_3 C 0.5385(3) 0.9896(3) 0.6820(3)
H4_3 H 0.5221 0.9757 0.7084
H6_3 H 0.3660 0.9934 0.5378
N3_2 N 0.4185(2) 0.9877(2) 0.3103(2)
N4_3 N 0.6919(2) 0.9166(2) 0.5145(2)
C14_3 C 0.3957(3) 0.9670(3) 0.3490(3)
H10_3 H 0.3663 0.9497 0.3438
C15_3 C 0.4139(3) 0.9701(3) 0.3956(3)
H11_3 H 0.3969 0.9556 0.4214
C16_3 C 0.4585(3) 0.9955(3) 0.4035(3)
C19_3 C 0.4797(3) 0.9994(3) 0.4526(3)
C20_3 C 0.5286(3) 0.9853(3) 0.4610(3)
H14_3 H 0.5480 0.9758 0.4347
C21_3 C 0.5494(3) 0.9849(3) 0.5068(3)
C22_3 C 0.5996(3) 0.9635(3) 0.5120(3)
C23_3 C 0.6383(3) 0.9797(3) 0.4829(3)
C24_3 C 0.6836(3) 0.9554(3) 0.4852(3)
H16_3 H 0.7094 0.9666 0.4655
C25_3 C 0.6550(3) 0.9020(3) 0.5432(3)
H17_3 H 0.6608 0.8759 0.5646
C26_3 C 0.6083(3) 0.9237(3) 0.5429(3)
H18_3 H 0.5833 0.9118 0.5630
Cu2_3 Cu 0.37915(6) 1.0000 0.2500
Cu3_4 Cu 0.7500 0.87085(6) 0.5000
Cu3_5 Cu 0.87915(6) 0.0000 0.2500
N1_4 N 0.7377(2) 0.8315(2) 0.4397(2)
N2_4 N 0.6666(2) 0.5581(2) 0.2355(2)
C1_4 C 0.7170(3) 0.8543(3) 0.4010(3)
H1_4 H 0.6997 0.8837 0.4062
C2_4 C 0.7201(3) 0.8361(3) 0.3544(3)
H2_4 H 0.7056 0.8531 0.3286
C3_4 C 0.7455(3) 0.7915(3) 0.3465(3)
C4_4 C 0.7643(3) 0.7668(3) 0.3864(3)
H3_4 H 0.7794 0.7360 0.3828
C5_4 C 0.7604(3) 0.7885(3) 0.4320(3)
H4_4 H 0.7743 0.7721 0.4584
C6_4 C 0.7494(3) 0.7703(3) 0.2974(3)
C7_4 C 0.7353(3) 0.7214(3) 0.2890(3)
H5_4 H 0.7258 0.7020 0.3153
C8_4 C 0.7349(3) 0.7006(3) 0.2432(3)
C9_4 C 0.7135(3) 0.6504(3) 0.2380(3)
C10_4 C 0.7297(3) 0.6117(3) 0.2671(3)
H6_4 H 0.7566 0.6160 0.2878
C11_4 C 0.7054(3) 0.5664(3) 0.2648(3)
H7_4 H 0.7166 0.5406 0.2845
C12_4 C 0.6520(3) 0.5950(3) 0.2068(3)
H8_4 H 0.6259 0.5892 0.1854
C13_4 C 0.6737(3) 0.6417(3) 0.2071(3)
H9_4 H 0.6618 0.6667 0.1870
N3_3 N 0.7623(2) 0.6685(2) 0.0603(2)
N4_4 N 0.8334(2) 0.9419(2) 0.2645(2)
C14_4 C 0.7830(3) 0.6457(3) 0.0990(3)
H10_4 H 0.8003 0.6163 0.0938
C15_4 C 0.7799(3) 0.6639(3) 0.1456(3)
H11_4 H 0.7944 0.6469 0.1714
C16_4 C 0.7545(3) 0.7085(3) 0.1535(3)
C17_4 C 0.7357(3) 0.7332(3) 0.1136(3)
H12_4 H 0.7206 0.7640 0.1172
C18_4 C 0.7396(3) 0.7115(3) 0.0680(3)
H13_4 H 0.7257 0.7279 0.0416
C19_4 C 0.7506(3) 0.7297(3) 0.2026(3)
C20_4 C 0.7647(3) 0.7786(3) 0.2110(3)
H14_4 H 0.7742 0.7980 0.1847
C21_4 C 0.7651(3) 0.7994(3) 0.2568(3)
C22_4 C 0.7865(3) 0.8496(3) 0.2620(3)
C23_4 C 0.7703(3) 0.8883(3) 0.2329(3)
H15_4 H 0.7434 0.8840 0.2122
C24_4 C 0.7946(3) 0.9336(3) 0.2352(3)
H16_4 H 0.7834 0.9594 0.2155
C25_4 C 0.8480(3) 0.9050(3) 0.2932(3)
H17_4 H 0.8741 0.9108 0.3146
C26_4 C 0.8263(3) 0.8583(3) 0.2929(3)
H18_4 H 0.8382 0.8333 0.3130
Cu2_4 Cu 0.7500 0.62915(6) -0.0000
Cu3_6 Cu 0.87915(6) 1.0000 0.2500
N5_4 N 0.5815(2) 0.4877(2) 0.1897(2)
N7_4 N 0.6666(2) 0.4419(2) 0.2645(2)
Cu2_5 Cu 0.7500 0.62915(6) 1.0000
N2_5 N 0.6919(2) 0.5834(2) 0.0145(2)
C8_5 C 0.5494(3) 0.5151(3) 0.0068(3)
C9_5 C 0.5996(3) 0.5365(3) 0.0120(3)
C12_5 C 0.6550(3) 0.5980(3) 0.0432(3)
H8_5 H 0.6608 0.6241 0.0646
C13_5 C 0.6083(3) 0.5763(3) 0.0429(3)
H9_5 H 0.5833 0.5882 0.0630
C14_5 C 0.6043(3) 0.4670(3) 0.1510(3)
H10_5 H 0.6337 0.4497 0.1562
C15_5 C 0.5861(3) 0.4701(3) 0.1044(3)
H11_5 H 0.6031 0.4556 0.0786
C16_5 C 0.5415(3) 0.4955(3) 0.0965(3)
C17_5 C 0.5168(3) 0.5143(3) 0.1364(3)
H12_5 H 0.4860 0.5294 0.1328
C18_5 C 0.5385(3) 0.5104(3) 0.1820(3)
H13_5 H 0.5221 0.5243 0.2084
C19_5 C 0.5203(3) 0.4994(3) 0.0474(3)
C20_5 C 0.4714(3) 0.4853(3) 0.0390(3)
H14_5 H 0.4520 0.4758 0.0653
C23_5 C 0.3617(3) 0.4797(3) 0.0171(3)
H15_5 H 0.3660 0.5066 0.0378
C24_5 C 0.3164(3) 0.4554(3) 0.0148(3)
H16_5 H 0.2906 0.4666 0.0345
Cu3_7 Cu 0.2500 0.37085(6) 0.0000
N1_5 N 0.4185(2) 0.5123(2) 0.8103(2)
C1_5 C 0.3957(3) 0.5330(3) 0.8490(3)
H1_5 H 0.3663 0.5503 0.8438
C2_5 C 0.4139(3) 0.5299(3) 0.8956(3)
H2_5 H 0.3969 0.5444 0.9214
C3_5 C 0.4585(3) 0.5045(3) 0.9035(3)
C4_5 C 0.4832(3) 0.4857(3) 0.8636(3)
H3_5 H 0.5140 0.4706 0.8672
C5_5 C 0.4615(3) 0.4896(3) 0.8180(3)
H4_5 H 0.4779 0.4757 0.7916
C6_5 C 0.4797(3) 0.5006(3) 0.9526(3)
C7_5 C 0.5286(3) 0.5147(3) 0.9610(3)
H5_5 H 0.5480 0.5242 0.9347
C10_5 C 0.6383(3) 0.5203(3) 0.9829(3)
H6_5 H 0.6340 0.4934 0.9622
C11_5 C 0.6836(3) 0.5446(3) 0.9852(3)
H7_5 H 0.7094 0.5334 0.9655
N4_5 N 0.3081(2) 0.4166(2) 0.9855(2)
C21_5 C 0.4506(3) 0.4849(3) 0.9932(3)
C22_5 C 0.4004(3) 0.4635(3) 0.9880(3)
C25_5 C 0.3450(3) 0.4020(3) 0.9568(3)
H17_5 H 0.3392 0.3759 0.9354
C26_5 C 0.3917(3) 0.4237(3) 0.9571(3)
H18_5 H 0.4167 0.4118 0.9370
Cu3_8 Cu 0.2500 0.37085(6) 1.0000
N6_4 N 0.7377(2) 0.6685(2) 0.9397(2)
N7_5 N 0.8081(2) 0.5834(2) 0.9855(2)
N1_6 N 0.0815(2) 0.4877(2) 0.3103(2)
C1_6 C 0.1043(3) 0.4670(3) 0.3490(3)
H1_6 H 0.1337 0.4497 0.3438
C2_6 C 0.0861(3) 0.4701(3) 0.3956(3)
H2_6 H 0.1031 0.4556 0.4214
C3_6 C 0.0415(3) 0.4955(3) 0.4035(3)
C4_6 C 0.0168(3) 0.5143(3) 0.3636(3)
C5_6 C 0.0385(3) 0.5104(3) 0.3180(3)
H4_6 H 0.0221 0.5243 0.2916
C6_6 C 0.0203(3) 0.4994(3) 0.4526(3)
N4_6 N 0.1919(2) 0.5834(2) 0.4855(2)
H12_6 H 0.0140 0.4706 0.6328
C20_6 C 0.0286(3) 0.5147(3) 0.5390(3)
H14_6 H 0.0480 0.5242 0.5653
C21_6 C 0.0494(3) 0.5151(3) 0.4932(3)
C22_6 C 0.0996(3) 0.5365(3) 0.4880(3)
C23_6 C 0.1383(3) 0.5203(3) 0.5171(3)
H15_6 H 0.1340 0.4934 0.5378
C24_6 C 0.1836(3) 0.5446(3) 0.5148(3)
H16_6 H 0.2094 0.5334 0.5345
C25_6 C 0.1550(3) 0.5980(3) 0.4568(3)
H17_6 H 0.1608 0.6241 0.4354
C26_6 C 0.1083(3) 0.5763(3) 0.4571(3)
H18_6 H 0.0833 0.5882 0.4370
Cu4_4 Cu 0.12085(6) 0.5000 0.2500
H3_6 H 0.9860 0.5294 0.3672
C7_6 C 0.9714(3) 0.4853(3) 0.4610(3)
H5_6 H 0.9520 0.4758 0.4347
C8_6 C 0.9506(3) 0.4849(3) 0.5068(3)
C9_6 C 0.9004(3) 0.4635(3) 0.5120(3)
C10_6 C 0.8617(3) 0.4797(3) 0.4829(3)
H6_6 H 0.8660 0.5066 0.4622
C11_6 C 0.8164(3) 0.4554(3) 0.4852(3)
H7_6 H 0.7906 0.4666 0.4655
C12_6 C 0.8450(3) 0.4020(3) 0.5432(3)
H8_6 H 0.8392 0.3759 0.5646
C13_6 C 0.8917(3) 0.4237(3) 0.5429(3)
H9_6 H 0.9167 0.4118 0.5630
C14_6 C 0.8957(3) 0.5330(3) 0.6510(3)
H10_6 H 0.8663 0.5503 0.6562
C15_6 C 0.9139(3) 0.5299(3) 0.6044(3)
H11_6 H 0.8969 0.5444 0.5786
C16_6 C 0.9585(3) 0.5045(3) 0.5965(3)
C17_6 C 0.9832(3) 0.4857(3) 0.6364(3)
C18_6 C 0.9615(3) 0.4896(3) 0.6820(3)
H13_6 H 0.9779 0.4757 0.7084
C19_6 C 0.9797(3) 0.5006(3) 0.5474(3)
Cu1_4 Cu 0.12085(6) -0.0000 0.7500
N5_5 N 0.0815(2) 0.0123(2) 0.8103(2)
N7_6 N 0.1666(2) 0.0581(2) 0.7355(2)
Cu2_6 Cu 0.2500 0.87085(6) 0.0000
Cu1_5 Cu 0.12085(6) 1.0000 0.7500
N1_7 N 0.2377(2) 0.6685(2) 0.5603(2)
N2_6 N 0.1666(2) 0.9419(2) 0.7645(2)
C1_7 C 0.2170(3) 0.6457(3) 0.5990(3)
H1_7 H 0.1997 0.6163 0.5938
C2_7 C 0.2201(3) 0.6639(3) 0.6456(3)
H2_7 H 0.2056 0.6469 0.6714
C3_7 C 0.2455(3) 0.7085(3) 0.6535(3)
C4_7 C 0.2643(3) 0.7332(3) 0.6136(3)
H3_7 H 0.2794 0.7640 0.6172
C5_7 C 0.2604(3) 0.7115(3) 0.5680(3)
H4_7 H 0.2743 0.7279 0.5416
C6_7 C 0.2494(3) 0.7297(3) 0.7026(3)
C7_7 C 0.2353(3) 0.7786(3) 0.7110(3)
H5_7 H 0.2258 0.7980 0.6847
C8_7 C 0.2349(3) 0.7994(3) 0.7568(3)
C9_7 C 0.2135(3) 0.8496(3) 0.7620(3)
C10_7 C 0.2297(3) 0.8883(3) 0.7329(3)
H6_7 H 0.2566 0.8840 0.7122
C11_7 C 0.2054(3) 0.9336(3) 0.7352(3)
H7_7 H 0.2166 0.9594 0.7155
C12_7 C 0.1520(3) 0.9050(3) 0.7932(3)
H8_7 H 0.1259 0.9108 0.8146
C13_7 C 0.1737(3) 0.8583(3) 0.7929(3)
H9_7 H 0.1618 0.8333 0.8130
N3_4 N 0.2623(2) 0.8315(2) 0.9397(2)
N4_7 N 0.3334(2) 0.5581(2) 0.7355(2)
C14_7 C 0.2830(3) 0.8543(3) 0.9010(3)
H10_7 H 0.3003 0.8837 0.9062
C15_7 C 0.2799(3) 0.8361(3) 0.8544(3)
H11_7 H 0.2944 0.8531 0.8286
C16_7 C 0.2545(3) 0.7915(3) 0.8465(3)
C17_7 C 0.2357(3) 0.7668(3) 0.8864(3)
H12_7 H 0.2206 0.7360 0.8828
C18_7 C 0.2396(3) 0.7885(3) 0.9320(3)
H13_7 H 0.2257 0.7721 0.9584
C19_7 C 0.2506(3) 0.7703(3) 0.7974(3)
C20_7 C 0.2647(3) 0.7214(3) 0.7890(3)
H14_7 H 0.2742 0.7020 0.8153
C21_7 C 0.2651(3) 0.7006(3) 0.7432(3)
C22_7 C 0.2865(3) 0.6504(3) 0.7380(3)
C23_7 C 0.2703(3) 0.6117(3) 0.7671(3)
H15_7 H 0.2434 0.6160 0.7878
C24_7 C 0.2946(3) 0.5664(3) 0.7648(3)
H16_7 H 0.2834 0.5406 0.7845
C25_7 C 0.3480(3) 0.5950(3) 0.7068(3)
H17_7 H 0.3741 0.5892 0.6854
C26_7 C 0.3263(3) 0.6417(3) 0.7071(3)
H18_7 H 0.3382 0.6667 0.6870
Cu2_7 Cu 0.2500 0.87085(6) 1.0000
N6_5 N 0.0815(2) 0.9877(2) 0.6897(2)
N1_8 N 0.7623(2) 0.8315(2) 0.5603(2)
C1_8 C 0.7830(3) 0.8543(3) 0.5990(3)
H1_8 H 0.8003 0.8837 0.5938
C2_8 C 0.7799(3) 0.8361(3) 0.6456(3)
H2_8 H 0.7944 0.8531 0.6714
C3_8 C 0.7545(3) 0.7915(3) 0.6535(3)
C4_8 C 0.7357(3) 0.7668(3) 0.6136(3)
H3_8 H 0.7206 0.7360 0.6172
C5_8 C 0.7396(3) 0.7885(3) 0.5680(3)
H4_8 H 0.7257 0.7721 0.5416
C6_8 C 0.7506(3) 0.7703(3) 0.7026(3)
C7_8 C 0.7647(3) 0.7214(3) 0.7110(3)
H5_8 H 0.7742 0.7020 0.6847
C8_8 C 0.7651(3) 0.7006(3) 0.7568(3)
C9_8 C 0.7865(3) 0.6504(3) 0.7620(3)
C10_8 C 0.7703(3) 0.6117(3) 0.7329(3)
H6_8 H 0.7434 0.6160 0.7122
C11_8 C 0.7946(3) 0.5664(3) 0.7352(3)
H7_8 H 0.7834 0.5406 0.7155
C12_8 C 0.8480(3) 0.5950(3) 0.7932(3)
H8_8 H 0.8741 0.5892 0.8146
C13_8 C 0.8263(3) 0.6417(3) 0.7929(3)
H9_8 H 0.8382 0.6667 0.8130
N4_8 N 0.6666(2) 0.9419(2) 0.7355(2)
C14_8 C 0.7170(3) 0.6457(3) 0.9010(3)
H10_8 H 0.6997 0.6163 0.9062
C15_8 C 0.7201(3) 0.6639(3) 0.8544(3)
H11_8 H 0.7056 0.6469 0.8286
C16_8 C 0.7455(3) 0.7085(3) 0.8465(3)
C17_8 C 0.7643(3) 0.7332(3) 0.8864(3)
H12_8 H 0.7794 0.7640 0.8828
C18_8 C 0.7604(3) 0.7115(3) 0.9320(3)
H13_8 H 0.7743 0.7279 0.9584
C19_8 C 0.7494(3) 0.7297(3) 0.7974(3)
C20_8 C 0.7353(3) 0.7786(3) 0.7890(3)
H14_8 H 0.7258 0.7980 0.8153
C21_8 C 0.7349(3) 0.7994(3) 0.7432(3)
C22_8 C 0.7135(3) 0.8496(3) 0.7380(3)
C23_8 C 0.7297(3) 0.8883(3) 0.7671(3)
H15_8 H 0.7566 0.8840 0.7878
C24_8 C 0.7054(3) 0.9336(3) 0.7648(3)
H16_8 H 0.7166 0.9594 0.7845
C25_8 C 0.6520(3) 0.9050(3) 0.7068(3)
H17_8 H 0.6259 0.9108 0.6854
C26_8 C 0.6737(3) 0.8583(3) 0.7071(3)
H18_8 H 0.6618 0.8333 0.6870
C14_9 C 0.1043(3) 0.0330(3) 0.8490(3)
H10_9 H 0.1337 0.0503 0.8438
C15_9 C 0.0861(3) 0.0299(3) 0.8956(3)
H11_9 H 0.1031 0.0444 0.9214
C16_9 C 0.0415(3) 0.0045(3) 0.9035(3)
C19_9 C 0.0203(3) 0.0006(3) 0.9526(3)
C7_9 C 0.0286(3) 0.9853(3) 0.0390(3)
H5_9 H 0.0480 0.9758 0.0653
C10_9 C 0.1383(3) 0.9797(3) 0.0171(3)
C11_9 C 0.1836(3) 0.9554(3) 0.0148(3)
H7_9 H 0.2094 0.9666 0.0345
N6_6 N 0.2377(2) 0.8315(2) 0.0603(2)
N7_7 N 0.3081(2) 0.9166(2) 0.0145(2)
N2_7 N 0.1919(2) 0.9166(2) 0.9855(2)
C8_9 C 0.0494(3) 0.9849(3) 0.9932(3)
C9_9 C 0.0996(3) 0.9635(3) 0.9880(3)
C12_9 C 0.1550(3) 0.9020(3) 0.9568(3)
H8_9 H 0.1608 0.8759 0.9354
C13_9 C 0.1083(3) 0.9237(3) 0.9571(3)
H9_9 H 0.0833 0.9118 0.9370
C17_9 C 0.0168(3) 0.9857(3) 0.8636(3)
C18_9 C 0.0385(3) 0.9896(3) 0.8180(3)
H13_9 H 0.0221 0.9757 0.7916
C4_9 C 0.9832(3) 0.0143(3) 0.1364(3)
C5_9 C 0.9615(3) 0.0104(3) 0.1820(3)
H4_9 H 0.9779 0.0243 0.2084
N4_9 N 0.8081(2) 0.0834(2) 0.0145(2)
C21_9 C 0.9506(3) 0.0151(3) 0.0068(3)
C22_9 C 0.9004(3) 0.0365(3) 0.0120(3)
C25_9 C 0.8450(3) 0.0980(3) 0.0432(3)
H17_9 H 0.8392 0.1241 0.0646
C26_9 C 0.8917(3) 0.0763(3) 0.0429(3)
H18_9 H 0.9167 0.0882 0.0630
C20_9 C 0.9714(3) 0.0147(3) 0.9610(3)
H14_9 H 0.9520 0.0242 0.9347
C23_9 C 0.8617(3) 0.0203(3) 0.9829(3)
C24_9 C 0.8164(3) 0.0446(3) 0.9852(3)
H16_9 H 0.7906 0.0334 0.9655
N1_9 N 0.9185(2) 0.9877(2) 0.1897(2)
C1_9 C 0.8957(3) 0.9670(3) 0.1510(3)
H1_9 H 0.8663 0.9497 0.1562
C2_9 C 0.9139(3) 0.9701(3) 0.1044(3)
H2_9 H 0.8969 0.9556 0.0786
C3_9 C 0.9585(3) 0.9955(3) 0.0965(3)
C6_9 C 0.9797(3) 0.9994(3) 0.0474(3)
N5_6 N 0.4185(2) 0.0123(2) 0.1897(2)
N7_8 N 0.3334(2) 0.0581(2) 0.2645(2)
N1_10 N 0.2623(2) 0.6685(2) 0.4397(2)
N2_8 N 0.3334(2) 0.9419(2) 0.2355(2)
C1_10 C 0.2830(3) 0.6457(3) 0.4010(3)
H1_10 H 0.3003 0.6163 0.4062
C2_10 C 0.2799(3) 0.6639(3) 0.3544(3)
H2_10 H 0.2944 0.6469 0.3286
C3_10 C 0.2545(3) 0.7085(3) 0.3465(3)
C4_10 C 0.2357(3) 0.7332(3) 0.3864(3)
H3_9 H 0.2206 0.7640 0.3828
C5_10 C 0.2396(3) 0.7115(3) 0.4320(3)
H4_10 H 0.2257 0.7279 0.4584
C6_10 C 0.2506(3) 0.7297(3) 0.2974(3)
C7_10 C 0.2647(3) 0.7786(3) 0.2890(3)
H5_10 H 0.2742 0.7980 0.3153
C8_10 C 0.2651(3) 0.7994(3) 0.2432(3)
C9_10 C 0.2865(3) 0.8496(3) 0.2380(3)
C10_10 C 0.2703(3) 0.8883(3) 0.2671(3)
H6_9 H 0.2434 0.8840 0.2878
C11_10 C 0.2946(3) 0.9336(3) 0.2648(3)
H7_10 H 0.2834 0.9594 0.2845
C12_10 C 0.3480(3) 0.9050(3) 0.2068(3)
H8_10 H 0.3741 0.9108 0.1854
C13_10 C 0.3263(3) 0.8583(3) 0.2071(3)
H9_10 H 0.3382 0.8333 0.1870
N4_10 N 0.1666(2) 0.5581(2) 0.2645(2)
C14_10 C 0.2170(3) 0.8543(3) 0.0990(3)
H10_10 H 0.1997 0.8837 0.0938
C15_10 C 0.2201(3) 0.8361(3) 0.1456(3)
H11_10 H 0.2056 0.8531 0.1714
C16_10 C 0.2455(3) 0.7915(3) 0.1535(3)
C17_10 C 0.2643(3) 0.7668(3) 0.1136(3)
H12_9 H 0.2794 0.7360 0.1172
C18_10 C 0.2604(3) 0.7885(3) 0.0680(3)
H13_10 H 0.2743 0.7721 0.0416
C19_10 C 0.2494(3) 0.7703(3) 0.2026(3)
C20_10 C 0.2353(3) 0.7214(3) 0.2110(3)
H14_10 H 0.2258 0.7020 0.1847
C21_10 C 0.2349(3) 0.7006(3) 0.2568(3)
C22_10 C 0.2135(3) 0.6504(3) 0.2620(3)
C23_10 C 0.2297(3) 0.6117(3) 0.2329(3)
H15_9 H 0.2566 0.6160 0.2122
C24_10 C 0.2054(3) 0.5664(3) 0.2352(3)
H16_10 H 0.2166 0.5406 0.2155
C25_10 C 0.1520(3) 0.5950(3) 0.2932(3)
H17_10 H 0.1259 0.5892 0.3146
C26_10 C 0.1737(3) 0.6417(3) 0.2929(3)
H18_10 H 0.1618 0.6667 0.3130
N1_11 N 0.0815(2) 0.5123(2) 0.1897(2)
C1_11 C 0.1043(3) 0.5330(3) 0.1510(3)
H1_11 H 0.1337 0.5503 0.1562
C2_11 C 0.0861(3) 0.5299(3) 0.1044(3)
H2_11 H 0.1031 0.5444 0.0786
C3_11 C 0.0415(3) 0.5045(3) 0.0965(3)
C4_11 C 0.0168(3) 0.4857(3) 0.1364(3)
C5_11 C 0.0385(3) 0.4896(3) 0.1820(3)
H4_11 H 0.0221 0.4757 0.2084
C6_11 C 0.0203(3) 0.5006(3) 0.0474(3)
N4_11 N 0.1919(2) 0.4166(2) 0.0145(2)
C21_11 C 0.0494(3) 0.4849(3) 0.0068(3)
C22_11 C 0.0996(3) 0.4635(3) 0.0120(3)
C25_11 C 0.1550(3) 0.4020(3) 0.0432(3)
H17_11 H 0.1608 0.3759 0.0646
C26_11 C 0.1083(3) 0.4237(3) 0.0429(3)
H18_11 H 0.0833 0.4118 0.0630
H12_10 H 0.0140 0.5294 0.8672
C20_11 C 0.0286(3) 0.4853(3) 0.9610(3)
H14_11 H 0.0480 0.4758 0.9347
C23_11 C 0.1383(3) 0.4797(3) 0.9829(3)
H15_10 H 0.1340 0.5066 0.9622
C24_11 C 0.1836(3) 0.4554(3) 0.9852(3)
H16_11 H 0.2094 0.4666 0.9655
H3_10 H 0.9860 0.4706 0.1328
C7_11 C 0.9714(3) 0.5147(3) 0.0390(3)
H5_11 H 0.9520 0.5242 0.0653
C10_11 C 0.8617(3) 0.5203(3) 0.0171(3)
H6_10 H 0.8660 0.4934 0.0378
C11_11 C 0.8164(3) 0.5446(3) 0.0148(3)
H7_11 H 0.7906 0.5334 0.0345
C8_11 C 0.9506(3) 0.5151(3) 0.9932(3)
C9_11 C 0.9004(3) 0.5365(3) 0.9880(3)
C12_11 C 0.8450(3) 0.5980(3) 0.9568(3)
H8_11 H 0.8392 0.6241 0.9354
C13_11 C 0.8917(3) 0.5763(3) 0.9571(3)
H9_11 H 0.9167 0.5882 0.9370
C14_11 C 0.8957(3) 0.4670(3) 0.8490(3)
H10_11 H 0.8663 0.4497 0.8438
C15_11 C 0.9139(3) 0.4701(3) 0.8956(3)
H11_11 H 0.8969 0.4556 0.9214
C16_11 C 0.9585(3) 0.4955(3) 0.9035(3)
C17_11 C 0.9832(3) 0.5143(3) 0.8636(3)
C18_11 C 0.9615(3) 0.5104(3) 0.8180(3)
H13_11 H 0.9779 0.5243 0.7916
C19_11 C 0.9797(3) 0.4994(3) 0.9526(3)
N1_12 N 0.2377(2) 0.3315(2) 0.9397(2)
C1_12 C 0.2170(3) 0.3543(3) 0.9010(3)
H1_12 H 0.1997 0.3837 0.9062
C2_12 C 0.2201(3) 0.3361(3) 0.8544(3)
H2_12 H 0.2056 0.3531 0.8286
C3_12 C 0.2455(3) 0.2915(3) 0.8465(3)
C4_12 C 0.2643(3) 0.2668(3) 0.8864(3)
H3_11 H 0.2794 0.2360 0.8828
C5_12 C 0.2604(3) 0.2885(3) 0.9320(3)
H4_12 H 0.2743 0.2721 0.9584
C6_12 C 0.2494(3) 0.2703(3) 0.7974(3)
C7_12 C 0.2353(3) 0.2214(3) 0.7890(3)
H5_12 H 0.2258 0.2020 0.8153
C8_12 C 0.2349(3) 0.2006(3) 0.7432(3)
C9_12 C 0.2135(3) 0.1504(3) 0.7380(3)
C10_12 C 0.2297(3) 0.1117(3) 0.7671(3)
H6_11 H 0.2566 0.1160 0.7878
C11_12 C 0.2054(3) 0.0664(3) 0.7648(3)
H7_12 H 0.2166 0.0406 0.7845
C12_12 C 0.1520(3) 0.0950(3) 0.7068(3)
H8_12 H 0.1259 0.0892 0.6854
C13_12 C 0.1737(3) 0.1417(3) 0.7071(3)
H9_12 H 0.1618 0.1667 0.6870
N4_12 N 0.3334(2) 0.4419(2) 0.7645(2)
C14_12 C 0.2830(3) 0.1457(3) 0.5990(3)
H10_12 H 0.3003 0.1163 0.5938
C15_12 C 0.2799(3) 0.1639(3) 0.6456(3)
H11_12 H 0.2944 0.1469 0.6714
C16_12 C 0.2545(3) 0.2085(3) 0.6535(3)
C17_12 C 0.2357(3) 0.2332(3) 0.6136(3)
H12_11 H 0.2206 0.2640 0.6172
C18_12 C 0.2396(3) 0.2115(3) 0.5680(3)
H13_12 H 0.2257 0.2279 0.5416
C19_12 C 0.2506(3) 0.2297(3) 0.7026(3)
C20_12 C 0.2647(3) 0.2786(3) 0.7110(3)
H14_12 H 0.2742 0.2980 0.6847
C21_12 C 0.2651(3) 0.2994(3) 0.7568(3)
C22_12 C 0.2865(3) 0.3496(3) 0.7620(3)
C23_12 C 0.2703(3) 0.3883(3) 0.7329(3)
H15_11 H 0.2434 0.3840 0.7122
C24_12 C 0.2946(3) 0.4336(3) 0.7352(3)
H16_12 H 0.2834 0.4594 0.7155
C25_12 C 0.3480(3) 0.4050(3) 0.7932(3)
H17_12 H 0.3741 0.4108 0.8146
C26_12 C 0.3263(3) 0.3583(3) 0.7929(3)
H18_12 H 0.3382 0.3333 0.8130
C7_13 C 0.0286(3) 0.0147(3) 0.4610(3)
H5_13 H 0.0480 0.0242 0.4347
C8_13 C 0.0494(3) 0.0151(3) 0.5068(3)
C9_13 C 0.0996(3) 0.0365(3) 0.5120(3)
C10_13 C 0.1383(3) 0.0203(3) 0.4829(3)
C11_13 C 0.1836(3) 0.0446(3) 0.4852(3)
H7_13 H 0.2094 0.0334 0.4655
C12_13 C 0.1550(3) 0.0980(3) 0.5432(3)
H8_13 H 0.1608 0.1241 0.5646
C13_13 C 0.1083(3) 0.0763(3) 0.5429(3)
H9_13 H 0.0833 0.0882 0.5630
C17_13 C 0.0168(3) 0.0143(3) 0.6364(3)
C18_13 C 0.0385(3) 0.0104(3) 0.6820(3)
H13_13 H 0.0221 0.0243 0.7084
H3_12 H 0.0140 0.9706 0.3672
H6_12 H 0.1340 0.9934 0.4622
C14_13 C 0.1043(3) 0.9670(3) 0.6510(3)
H10_13 H 0.1337 0.9497 0.6562
C15_13 C 0.0861(3) 0.9701(3) 0.6044(3)
H11_13 H 0.1031 0.9556 0.5786
C16_13 C 0.0415(3) 0.9955(3) 0.5965(3)
C19_13 C 0.0203(3) 0.9994(3) 0.5474(3)
N1_13 N 0.9185(2) 0.0123(2) 0.3103(2)
C1_13 C 0.8957(3) 0.0330(3) 0.3490(3)
H1_13 H 0.8663 0.0503 0.3438
C2_13 C 0.9139(3) 0.0299(3) 0.3956(3)
H2_13 H 0.8969 0.0444 0.4214
C3_13 C 0.9585(3) 0.0045(3) 0.4035(3)
C6_13 C 0.9797(3) 0.0006(3) 0.4526(3)
H12_12 H 0.9860 0.0294 0.6328
H15_12 H 0.8660 0.0066 0.5378
C4_13 C 0.9832(3) 0.9857(3) 0.3636(3)
C5_13 C 0.9615(3) 0.9896(3) 0.3180(3)
H4_13 H 0.9779 0.9757 0.2916
N4_13 N 0.8081(2) 0.9166(2) 0.4855(2)
C20_13 C 0.9714(3) 0.9853(3) 0.5390(3)
H14_13 H 0.9520 0.9758 0.5653
C21_13 C 0.9506(3) 0.9849(3) 0.4932(3)
C22_13 C 0.9004(3) 0.9635(3) 0.4880(3)
C23_13 C 0.8617(3) 0.9797(3) 0.5171(3)
C24_13 C 0.8164(3) 0.9554(3) 0.5148(3)
H16_13 H 0.7906 0.9666 0.5345
C25_13 C 0.8450(3) 0.9020(3) 0.4568(3)
H17_13 H 0.8392 0.8759 0.4354
C26_13 C 0.8917(3) 0.9237(3) 0.4571(3)
H18_13 H 0.9167 0.9118 0.4370
C14_14 C 0.3957(3) 0.0330(3) 0.1510(3)
H10_14 H 0.3663 0.0503 0.1562
C15_14 C 0.4139(3) 0.0299(3) 0.1044(3)
H11_14 H 0.3969 0.0444 0.0786
C16_14 C 0.4585(3) 0.0045(3) 0.0965(3)
C19_14 C 0.4797(3) 0.0006(3) 0.0474(3)
C20_14 C 0.5286(3) 0.0147(3) 0.0390(3)
H14_14 H 0.5480 0.0242 0.0653
C23_14 C 0.6383(3) 0.0203(3) 0.0171(3)
C24_14 C 0.6836(3) 0.0446(3) 0.0148(3)
H16_14 H 0.7094 0.0334 0.0345
C4_14 C 0.5168(3) 0.0143(3) 0.8636(3)
H3_13 H 0.4860 0.0294 0.8672
C5_14 C 0.5385(3) 0.0104(3) 0.8180(3)
H4_14 H 0.5221 0.0243 0.7916
H6_13 H 0.3660 0.0066 0.9622
N4_14 N 0.6919(2) 0.0834(2) 0.9855(2)
C21_14 C 0.5494(3) 0.0151(3) 0.9932(3)
C22_14 C 0.5996(3) 0.0365(3) 0.9880(3)
C25_14 C 0.6550(3) 0.0980(3) 0.9568(3)
H17_14 H 0.6608 0.1241 0.9354
C26_14 C 0.6083(3) 0.0763(3) 0.9571(3)
H18_14 H 0.5833 0.0882 0.9370
C8_14 C 0.4506(3) 0.9849(3) 0.0068(3)
C9_14 C 0.4004(3) 0.9635(3) 0.0120(3)
C12_14 C 0.3450(3) 0.9020(3) 0.0432(3)
H8_14 H 0.3392 0.8759 0.0646
C13_14 C 0.3917(3) 0.9237(3) 0.0429(3)
H9_14 H 0.4167 0.9118 0.0630
C17_14 C 0.4832(3) 0.9857(3) 0.1364(3)
H12_13 H 0.5140 0.9706 0.1328
C18_14 C 0.4615(3) 0.9896(3) 0.1820(3)
H13_14 H 0.4779 0.9757 0.2084
H15_13 H 0.6340 0.9934 0.0378
N1_14 N 0.5815(2) 0.9877(2) 0.8103(2)
C1_14 C 0.6043(3) 0.9670(3) 0.8490(3)
H1_14 H 0.6337 0.9497 0.8438
C2_14 C 0.5861(3) 0.9701(3) 0.8956(3)
H2_14 H 0.6031 0.9556 0.9214
C3_14 C 0.5415(3) 0.9955(3) 0.9035(3)
C6_14 C 0.5203(3) 0.9994(3) 0.9526(3)
C7_14 C 0.4714(3) 0.9853(3) 0.9610(3)
H5_14 H 0.4520 0.9758 0.9347
C10_14 C 0.3617(3) 0.9797(3) 0.9829(3)
C11_14 C 0.3164(3) 0.9554(3) 0.9852(3)
H7_14 H 0.2906 0.9666 0.9655
N1_15 N 0.7377(2) 0.1685(2) 0.0603(2)
C1_15 C 0.7170(3) 0.1457(3) 0.0990(3)
H1_15 H 0.6997 0.1163 0.0938
C2_15 C 0.7201(3) 0.1639(3) 0.1456(3)
H2_15 H 0.7056 0.1469 0.1714
C3_15 C 0.7455(3) 0.2085(3) 0.1535(3)
C4_15 C 0.7643(3) 0.2332(3) 0.1136(3)
H3_14 H 0.7794 0.2640 0.1172
C5_15 C 0.7604(3) 0.2115(3) 0.0680(3)
H4_15 H 0.7743 0.2279 0.0416
C6_15 C 0.7494(3) 0.2297(3) 0.2026(3)
C7_15 C 0.7353(3) 0.2786(3) 0.2110(3)
H5_15 H 0.7258 0.2980 0.1847
C8_15 C 0.7349(3) 0.2994(3) 0.2568(3)
C9_15 C 0.7135(3) 0.3496(3) 0.2620(3)
C10_15 C 0.7297(3) 0.3883(3) 0.2329(3)
H6_14 H 0.7566 0.3840 0.2122
C11_15 C 0.7054(3) 0.4336(3) 0.2352(3)
H7_15 H 0.7166 0.4594 0.2155
C12_15 C 0.6520(3) 0.4050(3) 0.2932(3)
H8_15 H 0.6259 0.4108 0.3146
C13_15 C 0.6737(3) 0.3583(3) 0.2929(3)
H9_15 H 0.6618 0.3333 0.3130
N4_15 N 0.8334(2) 0.0581(2) 0.2355(2)
C14_15 C 0.7830(3) 0.3543(3) 0.4010(3)
H10_15 H 0.8003 0.3837 0.4062
C15_15 C 0.7799(3) 0.3361(3) 0.3544(3)
H11_15 H 0.7944 0.3531 0.3286
C16_15 C 0.7545(3) 0.2915(3) 0.3465(3)
C17_15 C 0.7357(3) 0.2668(3) 0.3864(3)
H12_14 H 0.7206 0.2360 0.3828
C18_15 C 0.7396(3) 0.2885(3) 0.4320(3)
H13_15 H 0.7257 0.2721 0.4584
C19_15 C 0.7506(3) 0.2703(3) 0.2974(3)
C20_15 C 0.7647(3) 0.2214(3) 0.2890(3)
H14_15 H 0.7742 0.2020 0.3153
C21_15 C 0.7651(3) 0.2006(3) 0.2432(3)
C22_15 C 0.7865(3) 0.1504(3) 0.2380(3)
C23_15 C 0.7703(3) 0.1117(3) 0.2671(3)
H15_14 H 0.7434 0.1160 0.2878
C24_15 C 0.7946(3) 0.0664(3) 0.2648(3)
H16_15 H 0.7834 0.0406 0.2845
C25_15 C 0.8480(3) 0.0950(3) 0.2068(3)
H17_15 H 0.8741 0.0892 0.1854
C26_15 C 0.8263(3) 0.1417(3) 0.2071(3)
H18_15 H 0.8382 0.1667 0.1870
N1_16 N 0.2623(2) 0.3315(2) 0.0603(2)
C1_16 C 0.2830(3) 0.3543(3) 0.0990(3)
H1_16 H 0.3003 0.3837 0.0938
C2_16 C 0.2799(3) 0.3361(3) 0.1456(3)
H2_16 H 0.2944 0.3531 0.1714
C3_16 C 0.2545(3) 0.2915(3) 0.1535(3)
C4_16 C 0.2357(3) 0.2668(3) 0.1136(3)
H3_15 H 0.2206 0.2360 0.1172
C5_16 C 0.2396(3) 0.2885(3) 0.0680(3)
H4_16 H 0.2257 0.2721 0.0416
C6_16 C 0.2506(3) 0.2703(3) 0.2026(3)
C7_16 C 0.2647(3) 0.2214(3) 0.2110(3)
H5_16 H 0.2742 0.2020 0.1847
C8_16 C 0.2651(3) 0.2006(3) 0.2568(3)
C9_16 C 0.2865(3) 0.1504(3) 0.2620(3)
C10_16 C 0.2703(3) 0.1117(3) 0.2329(3)
H6_15 H 0.2434 0.1160 0.2122
C11_16 C 0.2946(3) 0.0664(3) 0.2352(3)
H7_16 H 0.2834 0.0406 0.2155
C12_16 C 0.3480(3) 0.0950(3) 0.2932(3)
H8_16 H 0.3741 0.0892 0.3146
C13_16 C 0.3263(3) 0.1417(3) 0.2929(3)
H9_16 H 0.3382 0.1667 0.3130
N4_16 N 0.1666(2) 0.4419(2) 0.2355(2)
C14_16 C 0.2170(3) 0.1457(3) 0.4010(3)
H10_16 H 0.1997 0.1163 0.4062
C15_16 C 0.2201(3) 0.1639(3) 0.3544(3)
H11_16 H 0.2056 0.1469 0.3286
C16_16 C 0.2455(3) 0.2085(3) 0.3465(3)
C17_16 C 0.2643(3) 0.2332(3) 0.3864(3)
H12_15 H 0.2794 0.2640 0.3828
C18_16 C 0.2604(3) 0.2115(3) 0.4320(3)
H13_16 H 0.2743 0.2279 0.4584
C19_16 C 0.2494(3) 0.2297(3) 0.2974(3)
C20_16 C 0.2353(3) 0.2786(3) 0.2890(3)
H14_16 H 0.2258 0.2980 0.3153
C21_16 C 0.2349(3) 0.2994(3) 0.2432(3)
C22_16 C 0.2135(3) 0.3496(3) 0.2380(3)
C23_16 C 0.2297(3) 0.3883(3) 0.2671(3)
H15_15 H 0.2566 0.3840 0.2878
C24_16 C 0.2054(3) 0.4336(3) 0.2648(3)
H16_16 H 0.2166 0.4594 0.2845
C25_16 C 0.1520(3) 0.4050(3) 0.2068(3)
H17_16 H 0.1259 0.4108 0.1854
C26_16 C 0.1737(3) 0.3583(3) 0.2071(3)
H18_16 H 0.1618 0.3333 0.1870
H3_16 H 0.0140 0.0294 0.1328
H6_16 H 0.1340 0.0066 0.0378
H12_16 H 0.9860 0.9706 0.8672
H15_16 H 0.8660 0.9934 0.9622
C27 C 0.7108(12) 0.3108(13) 0.0066(12)
H19 H 0.6955 0.2800 0.0157
H20 H 0.7131 0.3320 0.0345
C28 C 0.692(3) 0.367(3) 0.928(2)
H21 H 0.7220 0.3565 0.9130
H22 H 0.6948 0.4004 0.9391
H23 H 0.6649 0.3645 0.9053
N8 N 0.681(2) 0.335(2) 0.9695(17)
H24 H 0.6592 0.3520 0.9866
H25 H 0.6643 0.3098 0.9565
H26 H 0.747811 0.303634 0.992407
C27_2 C 0.9392(13) 0.4608(12) 0.2566(12)
H19_2 H 0.9700 0.4455 0.2657
H20_2 H 0.9180 0.4631 0.2845
C28_2 C 0.883(3) 0.442(3) 0.178(2)
H21_2 H 0.8935 0.4720 0.1630
H22_2 H 0.8496 0.4448 0.1891
H23_2 H 0.8855 0.4149 0.1553
N8_2 N 0.915(2) 0.431(2) 0.2195(17)
H24_2 H 0.8980 0.4092 0.2366
H25_2 H 0.9402 0.4143 0.2065
H26_2 H 0.946366 0.497811 0.242407
C27_3 C 0.2892(12) 0.1892(13) 0.0066(12)
H19_3 H 0.3045 0.2200 0.0157
H20_3 H 0.2869 0.1680 0.0345
C28_3 C 0.308(3) 0.133(3) 0.928(2)
H21_3 H 0.2780 0.1435 0.9130
H22_3 H 0.3052 0.0996 0.9391
H23_3 H 0.3351 0.1355 0.9053
N8_3 N 0.319(2) 0.165(2) 0.9695(17)
H24_3 H 0.3408 0.1480 0.9866
H25_3 H 0.3357 0.1902 0.9565
H26_3 H 0.252189 0.196366 0.992407
C27_4 C 0.5608(13) 0.5392(12) 0.7566(12)
H19_4 H 0.5300 0.5545 0.7657
H20_4 H 0.5820 0.5369 0.7845
C28_4 C 0.617(3) 0.558(3) 0.678(2)
H21_4 H 0.6065 0.5280 0.6630
H22_4 H 0.6504 0.5552 0.6891
H23_4 H 0.6145 0.5851 0.6553
N8_4 N 0.585(2) 0.569(2) 0.7195(17)
H24_4 H 0.6020 0.5908 0.7366
H25_4 H 0.5598 0.5857 0.7065
H26_4 H 0.553634 0.502189 0.742407
C27_5 C 0.7108(12) 0.6892(13) 0.4934(12)
H19_5 H 0.6955 0.7200 0.4843
H20_5 H 0.7131 0.6680 0.4655
C28_5 C 0.692(3) 0.633(3) 0.572(2)
H21_5 H 0.7220 0.6435 0.5870
H22_5 H 0.6948 0.5996 0.5609
H23_5 H 0.6649 0.6355 0.5947
N8_5 N 0.681(2) 0.665(2) 0.5305(17)
H24_5 H 0.6592 0.6480 0.5134
H25_5 H 0.6643 0.6902 0.5435
H26_5 H 0.747811 0.696366 0.507593
C28_6 C 0.808(3) 0.367(3) 0.072(2)
H21_6 H 0.7780 0.3565 0.0870
H22_6 H 0.8052 0.4004 0.0609
H23_6 H 0.8351 0.3645 0.0947
N8_6 N 0.819(2) 0.335(2) 0.0305(17)
H24_6 H 0.8408 0.3520 0.0134
H25_6 H 0.8357 0.3098 0.0435
H26_6 H 0.752189 0.303634 0.00759267
C27_6 C 0.7892(12) 0.3108(13) 0.9934(12)
H19_6 H 0.8045 0.2800 0.9843
H20_6 H 0.7869 0.3320 0.9655
C27_7 C 0.0608(13) 0.9608(12) 0.2434(12)
H19_7 H 0.0300 0.9455 0.2343
H20_7 H 0.0820 0.9631 0.2155
C28_7 C 0.117(3) 0.942(3) 0.322(2)
H21_7 H 0.1065 0.9720 0.3370
H22_7 H 0.1504 0.9448 0.3109
H23_7 H 0.1145 0.9149 0.3447
N8_7 N 0.085(2) 0.931(2) 0.2805(17)
H24_7 H 0.1020 0.9092 0.2634
H25_7 H 0.0598 0.9143 0.2935
H26_7 H 0.0536341 0.997811 0.257593
C27_8 C 0.9392(13) 0.5392(12) 0.2434(12)
H19_8 H 0.9700 0.5545 0.2343
H20_8 H 0.9180 0.5369 0.2155
C28_8 C 0.883(3) 0.558(3) 0.322(2)
H21_8 H 0.8935 0.5280 0.3370
H22_8 H 0.8496 0.5552 0.3109
H23_8 H 0.8855 0.5851 0.3447
N8_8 N 0.915(2) 0.569(2) 0.2805(17)
H24_8 H 0.8980 0.5908 0.2634
H25_8 H 0.9402 0.5857 0.2935
H26_8 H 0.946366 0.502189 0.257593
C27_9 C 0.2108(12) 0.8108(13) 0.5066(12)
H19_9 H 0.1955 0.7800 0.5157
H20_9 H 0.2131 0.8320 0.5345
C28_9 C 0.192(3) 0.867(3) 0.428(2)
H21_9 H 0.2220 0.8565 0.4130
H22_9 H 0.1948 0.9004 0.4391
H23_9 H 0.1649 0.8645 0.4053
N8_9 N 0.181(2) 0.835(2) 0.4695(17)
H24_9 H 0.1592 0.8520 0.4866
H25_9 H 0.1643 0.8098 0.4565
H26_9 H 0.247811 0.803634 0.492407
C27_10 C 0.4392(13) 0.9608(12) 0.7566(12)
H19_10 H 0.4700 0.9455 0.7657
H20_10 H 0.4180 0.9631 0.7845
C28_10 C 0.383(3) 0.942(3) 0.678(2)
H21_10 H 0.3935 0.9720 0.6630
H22_10 H 0.3496 0.9448 0.6891
H23_10 H 0.3855 0.9149 0.6553
N8_10 N 0.415(2) 0.931(2) 0.7195(17)
H24_10 H 0.3980 0.9092 0.7366
H25_10 H 0.4402 0.9143 0.7065
H26_10 H 0.446366 0.997811 0.742407
C27_11 C 0.7892(12) 0.6892(13) 0.5066(12)
H19_11 H 0.8045 0.7200 0.5157
H20_11 H 0.7869 0.6680 0.5345
C28_11 C 0.808(3) 0.633(3) 0.428(2)
H21_11 H 0.7780 0.6435 0.4130
H22_11 H 0.8052 0.5996 0.4391
H23_11 H 0.8351 0.6355 0.4053
N8_11 N 0.819(2) 0.665(2) 0.4695(17)
H24_11 H 0.8408 0.6480 0.4866
H25_11 H 0.8357 0.6902 0.4565
H26_11 H 0.752189 0.696366 0.492407
C27_12 C 0.0608(13) 0.0392(12) 0.2566(12)
H19_12 H 0.0300 0.0545 0.2657
H20_12 H 0.0820 0.0369 0.2845
C28_12 C 0.117(3) 0.058(3) 0.178(2)
H21_12 H 0.1065 0.0280 0.1630
H22_12 H 0.1504 0.0552 0.1891
H23_12 H 0.1145 0.0851 0.1553
N8_12 N 0.085(2) 0.069(2) 0.2195(17)
H24_12 H 0.1020 0.0908 0.2366
H25_12 H 0.0598 0.0857 0.2065
H26_12 H 0.0536341 0.002189 0.242407
C28_13 C 0.192(3) 0.133(3) 0.072(2)
H21_13 H 0.2220 0.1435 0.0870
H22_13 H 0.1948 0.0996 0.0609
H23_13 H 0.1649 0.1355 0.0947
N8_13 N 0.181(2) 0.165(2) 0.0305(17)
H24_13 H 0.1592 0.1480 0.0134
H25_13 H 0.1643 0.1902 0.0435
H26_13 H 0.247811 0.196366 0.00759267
C27_13 C 0.2108(12) 0.1892(13) 0.9934(12)
H19_13 H 0.1955 0.2200 0.9843
H20_13 H 0.2131 0.1680 0.9655
C27_14 C 0.2892(12) 0.8108(13) 0.4934(12)
H19_14 H 0.3045 0.7800 0.4843
H20_14 H 0.2869 0.8320 0.4655
C28_14 C 0.308(3) 0.867(3) 0.572(2)
H21_14 H 0.2780 0.8565 0.5870
H22_14 H 0.3052 0.9004 0.5609
H23_14 H 0.3351 0.8645 0.5947
N8_14 N 0.319(2) 0.835(2) 0.5305(17)
H24_14 H 0.3408 0.8520 0.5134
H25_14 H 0.3357 0.8098 0.5435
H26_14 H 0.252189 0.803634 0.507593
C27_15 C 0.5608(13) 0.4608(12) 0.7434(12)
H19_15 H 0.5300 0.4455 0.7343
H20_15 H 0.5820 0.4631 0.7155
C28_15 C 0.617(3) 0.442(3) 0.822(2)
H21_15 H 0.6065 0.4720 0.8370
H22_15 H 0.6504 0.4448 0.8109
H23_15 H 0.6145 0.4149 0.8447
N8_15 N 0.585(2) 0.431(2) 0.7805(17)
H24_15 H 0.6020 0.4092 0.7634
H25_15 H 0.5598 0.4143 0.7935
H26_15 H 0.553634 0.497811 0.757593
C27_16 C 0.4392(13) 0.0392(12) 0.7434(12)
H19_16 H 0.4700 0.0545 0.7343
H20_16 H 0.4180 0.0369 0.7155
C28_16 C 0.383(3) 0.058(3) 0.822(2)
H21_16 H 0.3935 0.0280 0.8370
H22_16 H 0.3496 0.0552 0.8109
H23_16 H 0.3855 0.0851 0.8447
N8_16 N 0.415(2) 0.069(2) 0.7805(17)
H24_16 H 0.3980 0.0908 0.7634
H25_16 H 0.4402 0.0857 0.7935
H26_16 H 0.446366 0.002189 0.757593
C28_17 C 0.308(3) 0.633(3) 0.072(2)
H21_17 H 0.2780 0.6435 0.0870
H22_17 H 0.3052 0.5996 0.0609
H23_17 H 0.3351 0.6355 0.0947
N8_17 N 0.319(2) 0.665(2) 0.0305(17)
H24_17 H 0.3408 0.6480 0.0134
H25_17 H 0.3357 0.6902 0.0435
H26_17 H 0.252189 0.696366 0.00759267
C27_17 C 0.2892(12) 0.6892(13) 0.9934(12)
H19_17 H 0.3045 0.7200 0.9843
H20_17 H 0.2869 0.6680 0.9655
C27_18 C 0.0608(13) 0.5392(12) 0.7434(12)
H19_18 H 0.0300 0.5545 0.7343
H20_18 H 0.0820 0.5369 0.7155
C28_18 C 0.117(3) 0.558(3) 0.822(2)
H21_18 H 0.1065 0.5280 0.8370
H22_18 H 0.1504 0.5552 0.8109
H23_18 H 0.1145 0.5851 0.8447
N8_18 N 0.085(2) 0.569(2) 0.7805(17)
H24_18 H 0.1020 0.5908 0.7634
H25_18 H 0.0598 0.5857 0.7935
H26_18 H 0.0536341 0.502189 0.757593
C28_19 C 0.692(3) 0.867(3) 0.072(2)
H21_19 H 0.7220 0.8565 0.0870
H22_19 H 0.6948 0.9004 0.0609
H23_19 H 0.6649 0.8645 0.0947
N8_19 N 0.681(2) 0.835(2) 0.0305(17)
H24_19 H 0.6592 0.8520 0.0134
H25_19 H 0.6643 0.8098 0.0435
H26_19 H 0.747811 0.803634 0.00759267
C27_19 C 0.7108(12) 0.8108(13) 0.9934(12)
H19_19 H 0.6955 0.7800 0.9843
H20_19 H 0.7131 0.8320 0.9655
C27_20 C 0.4392(13) 0.4608(12) 0.2434(12)
H19_20 H 0.4700 0.4455 0.2343
H20_20 H 0.4180 0.4631 0.2155
C28_20 C 0.383(3) 0.442(3) 0.322(2)
H21_20 H 0.3935 0.4720 0.3370
H22_20 H 0.3496 0.4448 0.3109
H23_20 H 0.3855 0.4149 0.3447
N8_20 N 0.415(2) 0.431(2) 0.2805(17)
H24_20 H 0.3980 0.4092 0.2634
H25_20 H 0.4402 0.4143 0.2935
H26_20 H 0.446366 0.497811 0.257593
C27_21 C 0.2892(12) 0.3108(13) 0.5066(12)
H19_21 H 0.3045 0.2800 0.5157
H20_21 H 0.2869 0.3320 0.5345
C28_21 C 0.308(3) 0.367(3) 0.428(2)
H21_21 H 0.2780 0.3565 0.4130
H22_21 H 0.3052 0.4004 0.4391
H23_21 H 0.3351 0.3645 0.4053
N8_21 N 0.319(2) 0.335(2) 0.4695(17)
H24_21 H 0.3408 0.3520 0.4866
H25_21 H 0.3357 0.3098 0.4565
H26_21 H 0.252189 0.303634 0.492407
C27_22 C 0.2108(12) 0.6892(13) 0.0066(12)
H19_22 H 0.1955 0.7200 0.0157
H20_22 H 0.2131 0.6680 0.0345
C28_22 C 0.192(3) 0.633(3) 0.928(2)
H21_22 H 0.2220 0.6435 0.9130
H22_22 H 0.1948 0.5996 0.9391
H23_22 H 0.1649 0.6355 0.9053
N8_22 N 0.181(2) 0.665(2) 0.9695(17)
H24_22 H 0.1592 0.6480 0.9866
H25_22 H 0.1643 0.6902 0.9565
H26_22 H 0.247811 0.696366 0.992407
C27_23 C 0.9392(13) 0.0392(12) 0.7566(12)
H19_23 H 0.9700 0.0545 0.7657
H20_23 H 0.9180 0.0369 0.7845
C28_23 C 0.883(3) 0.058(3) 0.678(2)
H21_23 H 0.8935 0.0280 0.6630
H22_23 H 0.8496 0.0552 0.6891
H23_23 H 0.8855 0.0851 0.6553
N8_23 N 0.915(2) 0.069(2) 0.7195(17)
H24_23 H 0.8980 0.0908 0.7366
H25_23 H 0.9402 0.0857 0.7065
H26_23 H 0.946366 0.002189 0.742407
C27_24 C 0.0608(13) 0.4608(12) 0.7566(12)
H19_24 H 0.0300 0.4455 0.7657
H20_24 H 0.0820 0.4631 0.7845
C28_24 C 0.117(3) 0.442(3) 0.678(2)
H21_24 H 0.1065 0.4720 0.6630
H22_24 H 0.1504 0.4448 0.6891
H23_24 H 0.1145 0.4149 0.6553
N8_24 N 0.085(2) 0.431(2) 0.7195(17)
H24_24 H 0.1020 0.4092 0.7366
H25_24 H 0.0598 0.4143 0.7065
H26_24 H 0.0536341 0.497811 0.742407
C27_25 C 0.7892(12) 0.1892(13) 0.4934(12)
H19_25 H 0.8045 0.2200 0.4843
H20_25 H 0.7869 0.1680 0.4655
C28_25 C 0.808(3) 0.133(3) 0.572(2)
H21_25 H 0.7780 0.1435 0.5870
H22_25 H 0.8052 0.0996 0.5609
H23_25 H 0.8351 0.1355 0.5947
N8_25 N 0.819(2) 0.165(2) 0.5305(17)
H24_25 H 0.8408 0.1480 0.5134
H25_25 H 0.8357 0.1902 0.5435
H26_25 H 0.752189 0.196366 0.507593
C27_26 C 0.5608(13) 0.0392(12) 0.2434(12)
H19_26 H 0.5300 0.0545 0.2343
H20_26 H 0.5820 0.0369 0.2155
C28_26 C 0.617(3) 0.058(3) 0.322(2)
H21_26 H 0.6065 0.0280 0.3370
H22_26 H 0.6504 0.0552 0.3109
H23_26 H 0.6145 0.0851 0.3447
N8_26 N 0.585(2) 0.069(2) 0.2805(17)
H24_26 H 0.6020 0.0908 0.2634
H25_26 H 0.5598 0.0857 0.2935
H26_26 H 0.553634 0.002189 0.257593
C27_27 C 0.2108(12) 0.3108(13) 0.4934(12)
H19_27 H 0.1955 0.2800 0.4843
H20_27 H 0.2131 0.3320 0.4655
C28_27 C 0.192(3) 0.367(3) 0.572(2)
H21_27 H 0.2220 0.3565 0.5870
H22_27 H 0.1948 0.4004 0.5609
H23_27 H 0.1649 0.3645 0.5947
N8_27 N 0.181(2) 0.335(2) 0.5305(17)
H24_27 H 0.1592 0.3520 0.5134
H25_27 H 0.1643 0.3098 0.5435
H26_27 H 0.247811 0.303634 0.507593
C27_28 C 0.9392(13) 0.9608(12) 0.7434(12)
H19_28 H 0.9700 0.9455 0.7343
H20_28 H 0.9180 0.9631 0.7155
C28_28 C 0.883(3) 0.942(3) 0.822(2)
H21_28 H 0.8935 0.9720 0.8370
H22_28 H 0.8496 0.9448 0.8109
H23_28 H 0.8855 0.9149 0.8447
N8_28 N 0.915(2) 0.931(2) 0.7805(17)
H24_28 H 0.8980 0.9092 0.7634
H25_28 H 0.9402 0.9143 0.7935
H26_28 H 0.946366 0.997811 0.757593
C27_29 C 0.7892(12) 0.8108(13) 0.0066(12)
H19_29 H 0.8045 0.7800 0.0157
H20_29 H 0.7869 0.8320 0.0345
C28_29 C 0.808(3) 0.867(3) 0.928(2)
H21_29 H 0.7780 0.8565 0.9130
H22_29 H 0.8052 0.9004 0.9391
H23_29 H 0.8351 0.8645 0.9053
N8_29 N 0.819(2) 0.835(2) 0.9695(17)
H24_29 H 0.8408 0.8520 0.9866
H25_29 H 0.8357 0.8098 0.9565
H26_29 H 0.752189 0.803634 0.992407
C27_30 C 0.7108(12) 0.1892(13) 0.5066(12)
H19_30 H 0.6955 0.2200 0.5157
H20_30 H 0.7131 0.1680 0.5345
C28_30 C 0.692(3) 0.133(3) 0.428(2)
H21_30 H 0.7220 0.1435 0.4130
H22_30 H 0.6948 0.0996 0.4391
H23_30 H 0.6649 0.1355 0.4053
N8_30 N 0.681(2) 0.165(2) 0.4695(17)
H24_30 H 0.6592 0.1480 0.4866
H25_30 H 0.6643 0.1902 0.4565
H26_30 H 0.747811 0.196366 0.492407
C27_31 C 0.4392(13) 0.5392(12) 0.2566(12)
H19_31 H 0.4700 0.5545 0.2657
H20_31 H 0.4180 0.5369 0.2845
C28_31 C 0.383(3) 0.558(3) 0.178(2)
H21_31 H 0.3935 0.5280 0.1630
H22_31 H 0.3496 0.5552 0.1891
H23_31 H 0.3855 0.5851 0.1553
N8_31 N 0.415(2) 0.569(2) 0.2195(17)
H24_31 H 0.3980 0.5908 0.2366
H25_31 H 0.4402 0.5857 0.2065
H26_31 H 0.446366 0.502189 0.242407
C27_32 C 0.5608(13) 0.9608(12) 0.2566(12)
H19_32 H 0.5300 0.9455 0.2657
H20_32 H 0.5820 0.9631 0.2845
C28_32 C 0.617(3) 0.942(3) 0.178(2)
H21_32 H 0.6065 0.9720 0.1630
H22_32 H 0.6504 0.9448 0.1891
H23_32 H 0.6145 0.9149 0.1553
N8_32 N 0.585(2) 0.931(2) 0.2195(17)
H24_32 H 0.6020 0.9092 0.2366
H25_32 H 0.5598 0.9143 0.2065
H26_32 H 0.553634 0.997811 0.242407
W1 W 0.59143(2) 0.26973(2) 0.53347(2)
W2 W 0.61303(2) 0.18220(2) 0.62211(2)
W3 W 0.58979(2) 0.27557(2) 0.71660(2)
P1 P 0.5000 0.2500 0.6250
O1 O 0.6659(2) 0.1499(2) 0.6310(3)
O2 O 0.5829(2) 0.1438(2) 0.5714(3)
O3 O 0.5683(2) 0.1532(2) 0.6670(2)
O4 O 0.6335(2) 0.2274(2) 0.5713(2)
O5 O 0.6313(2) 0.2895(2) 0.4900(3)
O6 O 0.5312(2) 0.3020(2) 0.5169(2)
O7 O 0.54029(19) 0.22562(19) 0.5923(2)
O8 O 0.6177(2) 0.2354(2) 0.6669(2)
O9 O 0.6345(2) 0.2769(2) 0.7598(3)
O10 O 0.5398(2) 0.3159(2) 0.7464(3)
O11 O 0.45971(19) 0.27438(19) 0.5923(2)
O12 O 0.52438(19) 0.29029(19) 0.6577(2)
O13 O 0.47562(19) 0.20971(19) 0.6577(2)
W4 W 0.40857(2) 0.23027(2) 0.53347(2)
W5 W 0.38697(2) 0.31780(2) 0.62211(2)
W6 W 0.41021(2) 0.22443(2) 0.71660(2)
O14 O 0.3341(2) 0.3501(2) 0.6310(3)
O15 O 0.4171(2) 0.3562(2) 0.5714(3)
O16 O 0.4317(2) 0.3468(2) 0.6670(2)
O17 O 0.3665(2) 0.2726(2) 0.5713(2)
O18 O 0.3687(2) 0.2105(2) 0.4900(3)
O19 O 0.4688(2) 0.1980(2) 0.5169(2)
O20 O 0.3823(2) 0.2646(2) 0.6669(2)
O21 O 0.3655(2) 0.2231(2) 0.7598(3)
O22 O 0.4602(2) 0.1841(2) 0.7464(3)
W7 W 0.48027(2) 0.34143(2) 0.71653(2)
W8 W 0.56780(2) 0.36303(2) 0.62789(2)
W9 W 0.47443(2) 0.33979(2) 0.53340(2)
O23 O 0.6001(2) 0.4159(2) 0.6190(3)
O24 O 0.6062(2) 0.3329(2) 0.6786(3)
O25 O 0.5968(2) 0.3183(2) 0.5830(2)
O26 O 0.5226(2) 0.3835(2) 0.6787(2)
O27 O 0.4605(2) 0.3813(2) 0.7600(3)
O28 O 0.4480(2) 0.2812(2) 0.7331(2)
O29 O 0.5146(2) 0.3677(2) 0.5831(2)
O30 O 0.4731(2) 0.3845(2) 0.4902(3)
O31 O 0.4341(2) 0.2898(2) 0.5036(3)
W10 W 0.51973(2) 0.15857(2) 0.71653(2)
W11 W 0.43220(2) 0.13697(2) 0.62789(2)
W12 W 0.52557(2) 0.16021(2) 0.53340(2)
O32 O 0.3999(2) 0.0841(2) 0.6190(3)
O33 O 0.3938(2) 0.1671(2) 0.6786(3)
O34 O 0.4032(2) 0.1817(2) 0.5830(2)
O35 O 0.4774(2) 0.1165(2) 0.6787(2)
O36 O 0.5395(2) 0.1187(2) 0.7600(3)
O37 O 0.5520(2) 0.2188(2) 0.7331(2)
O38 O 0.4854(2) 0.1323(2) 0.5831(2)
O39 O 0.5269(2) 0.1155(2) 0.4902(3)
O40 O 0.5659(2) 0.2102(2) 0.5036(3)
O21_2 O 0.0269(2) 0.1155(2) 0.0098(3)
O36_2 O 0.1313(2) 0.2895(2) 0.0100(3)
W2_2 W 0.06780(2) 0.36303(2) 0.87211(2)
P1_2 P 0.0000 0.2500 0.8750
O1_2 O 0.1001(2) 0.4159(2) 0.8810(3)
O2_2 O 0.1062(2) 0.3329(2) 0.8214(3)
O3_2 O 0.0968(2) 0.3183(2) 0.9170(2)
O4_2 O 0.0226(2) 0.3835(2) 0.8213(2)
O7_2 O 0.02438(19) 0.29029(19) 0.8423(2)
O8_2 O 0.0146(2) 0.3677(2) 0.9169(2)
O13_2 O 0.04029(19) 0.22562(19) 0.9077(2)
W4_2 W 0.01973(2) 0.15857(2) 0.78347(2)
W6_2 W 0.02557(2) 0.16021(2) 0.96660(2)
O18_2 O 0.0395(2) 0.1187(2) 0.7400(3)
O19_2 O 0.0520(2) 0.2188(2) 0.7669(2)
O22_2 O 0.0659(2) 0.2102(2) 0.9964(3)
W10_2 W 0.09143(2) 0.26973(2) 0.96653(2)
W11_2 W 0.11303(2) 0.18220(2) 0.87789(2)
W12_2 W 0.08979(2) 0.27557(2) 0.78340(2)
O32_2 O 0.1659(2) 0.1499(2) 0.8690(3)
O33_2 O 0.0829(2) 0.1438(2) 0.9286(3)
O34_2 O 0.0683(2) 0.1532(2) 0.8330(2)
O35_2 O 0.1335(2) 0.2274(2) 0.9287(2)
O37_2 O 0.0312(2) 0.3020(2) 0.9831(2)
O38_2 O 0.1177(2) 0.2354(2) 0.8331(2)
O39_2 O 0.1345(2) 0.2769(2) 0.7402(3)
O40_2 O 0.0398(2) 0.3159(2) 0.7536(3)
O9_2 O 0.9731(2) 0.3845(2) 0.0098(3)
O27_2 O 0.8687(2) 0.2105(2) 0.0100(3)
W1_2 W 0.98027(2) 0.34143(2) 0.78347(2)
W3_2 W 0.97443(2) 0.33979(2) 0.96660(2)
P1_3 P 1.0000 0.2500 0.8750
O5_2 O 0.9605(2) 0.3813(2) 0.7400(3)
O6_2 O 0.9480(2) 0.2812(2) 0.7669(2)
O10_2 O 0.9341(2) 0.2898(2) 0.9964(3)
O11_2 O 0.97562(19) 0.20971(19) 0.8423(2)
O12_2 O 0.95971(19) 0.27438(19) 0.9077(2)
W5_2 W 0.93220(2) 0.13697(2) 0.87211(2)
O14_2 O 0.8999(2) 0.0841(2) 0.8810(3)
O15_2 O 0.8938(2) 0.1671(2) 0.8214(3)
O16_2 O 0.9032(2) 0.1817(2) 0.9170(2)
O17_2 O 0.9774(2) 0.1165(2) 0.8213(2)
O20_2 O 0.9854(2) 0.1323(2) 0.9169(2)
W7_2 W 0.90857(2) 0.23027(2) 0.96653(2)
W8_2 W 0.88697(2) 0.31780(2) 0.87789(2)
W9_2 W 0.91021(2) 0.22443(2) 0.78340(2)
O23_2 O 0.8341(2) 0.3501(2) 0.8690(3)
O24_2 O 0.9171(2) 0.3562(2) 0.9286(3)
O25_2 O 0.9317(2) 0.3468(2) 0.8330(2)
O26_2 O 0.8665(2) 0.2726(2) 0.9287(2)
O28_2 O 0.9688(2) 0.1980(2) 0.9831(2)
O29_2 O 0.8823(2) 0.2646(2) 0.8331(2)
O30_2 O 0.8655(2) 0.2231(2) 0.7402(3)
O31_2 O 0.9602(2) 0.1841(2) 0.7536(3)
W1_3 W 0.51973(2) 0.65857(2) 0.28347(2)
W2_3 W 0.43220(2) 0.63697(2) 0.37211(2)
W3_3 W 0.52557(2) 0.66021(2) 0.46660(2)
P1_4 P 0.5000 0.7500 0.3750
O1_3 O 0.3999(2) 0.5841(2) 0.3810(3)
O2_3 O 0.3938(2) 0.6671(2) 0.3214(3)
O3_3 O 0.4032(2) 0.6817(2) 0.4170(2)
O4_3 O 0.4774(2) 0.6165(2) 0.3213(2)
O5_3 O 0.5395(2) 0.6187(2) 0.2400(3)
O6_3 O 0.5520(2) 0.7188(2) 0.2669(2)
O7_3 O 0.47562(19) 0.70971(19) 0.3423(2)
O8_3 O 0.4854(2) 0.6323(2) 0.4169(2)
O9_3 O 0.5269(2) 0.6155(2) 0.5098(3)
O10_3 O 0.5659(2) 0.7102(2) 0.4964(3)
O11_3 O 0.52438(19) 0.79029(19) 0.3423(2)
O12_3 O 0.54029(19) 0.72562(19) 0.4077(2)
O13_3 O 0.45971(19) 0.77438(19) 0.4077(2)
W4_3 W 0.48027(2) 0.84143(2) 0.28347(2)
W5_3 W 0.56780(2) 0.86303(2) 0.37211(2)
W6_3 W 0.47443(2) 0.83979(2) 0.46660(2)
O14_3 O 0.6001(2) 0.9159(2) 0.3810(3)
O15_3 O 0.6062(2) 0.8329(2) 0.3214(3)
O16_3 O 0.5968(2) 0.8183(2) 0.4170(2)
O17_3 O 0.5226(2) 0.8835(2) 0.3213(2)
O18_3 O 0.4605(2) 0.8813(2) 0.2400(3)
O19_3 O 0.4480(2) 0.7812(2) 0.2669(2)
O20_3 O 0.5146(2) 0.8677(2) 0.4169(2)
O21_3 O 0.4731(2) 0.8845(2) 0.5098(3)
O22_3 O 0.4341(2) 0.7898(2) 0.4964(3)
W7_3 W 0.59143(2) 0.76973(2) 0.46653(2)
W8_3 W 0.61303(2) 0.68220(2) 0.37789(2)
W9_3 W 0.58979(2) 0.77557(2) 0.28340(2)
O23_3 O 0.6659(2) 0.6499(2) 0.3690(3)
O24_3 O 0.5829(2) 0.6438(2) 0.4286(3)
O25_3 O 0.5683(2) 0.6532(2) 0.3330(2)
O26_3 O 0.6335(2) 0.7274(2) 0.4287(2)
O27_3 O 0.6313(2) 0.7895(2) 0.5100(3)
O28_3 O 0.5312(2) 0.8020(2) 0.4831(2)
O29_3 O 0.6177(2) 0.7354(2) 0.3331(2)
O30_3 O 0.6345(2) 0.7769(2) 0.2402(3)
O31_3 O 0.5398(2) 0.8159(2) 0.2536(3)
W10_3 W 0.40857(2) 0.73027(2) 0.46653(2)
W11_3 W 0.38697(2) 0.81780(2) 0.37789(2)
W12_3 W 0.41021(2) 0.72443(2) 0.28340(2)
O32_3 O 0.3341(2) 0.8501(2) 0.3690(3)
O33_3 O 0.4171(2) 0.8562(2) 0.4286(3)
O34_3 O 0.4317(2) 0.8468(2) 0.3330(2)
O35_3 O 0.3665(2) 0.7726(2) 0.4287(2)
O36_3 O 0.3687(2) 0.7105(2) 0.5100(3)
O37_3 O 0.4688(2) 0.6980(2) 0.4831(2)
O38_3 O 0.3823(2) 0.7646(2) 0.3331(2)
O39_3 O 0.3655(2) 0.7231(2) 0.2402(3)
O40_3 O 0.4602(2) 0.6841(2) 0.2536(3)
O5_4 O 0.6313(2) 0.7105(2) 0.0100(3)
O18_4 O 0.3687(2) 0.7895(2) 0.0100(3)
O30_4 O 0.4731(2) 0.6155(2) 0.0098(3)
O39_4 O 0.5269(2) 0.8845(2) 0.0098(3)
W1_4 W 0.59143(2) 0.73027(2) 0.96653(2)
W2_4 W 0.61303(2) 0.81780(2) 0.87789(2)
W3_4 W 0.58979(2) 0.72443(2) 0.78340(2)
P1_5 P 0.5000 0.7500 0.8750
O1_4 O 0.6659(2) 0.8501(2) 0.8690(3)
O2_4 O 0.5829(2) 0.8562(2) 0.9286(3)
O3_4 O 0.5683(2) 0.8468(2) 0.8330(2)
O4_4 O 0.6335(2) 0.7726(2) 0.9287(2)
O6_4 O 0.5312(2) 0.6980(2) 0.9831(2)
O7_4 O 0.54029(19) 0.77438(19) 0.9077(2)
O8_4 O 0.6177(2) 0.7646(2) 0.8331(2)
O9_4 O 0.6345(2) 0.7231(2) 0.7402(3)
O10_4 O 0.5398(2) 0.6841(2) 0.7536(3)
O11_4 O 0.45971(19) 0.72562(19) 0.9077(2)
O12_4 O 0.52438(19) 0.70971(19) 0.8423(2)
O13_4 O 0.47562(19) 0.79029(19) 0.8423(2)
W4_4 W 0.40857(2) 0.76973(2) 0.96653(2)
W5_4 W 0.38697(2) 0.68220(2) 0.87789(2)
W6_4 W 0.41021(2) 0.77557(2) 0.78340(2)
O14_4 O 0.3341(2) 0.6499(2) 0.8690(3)
O15_4 O 0.4171(2) 0.6438(2) 0.9286(3)
O16_4 O 0.4317(2) 0.6532(2) 0.8330(2)
O17_4 O 0.3665(2) 0.7274(2) 0.9287(2)
O19_4 O 0.4688(2) 0.8020(2) 0.9831(2)
O20_4 O 0.3823(2) 0.7354(2) 0.8331(2)
O21_4 O 0.3655(2) 0.7769(2) 0.7402(3)
O22_4 O 0.4602(2) 0.8159(2) 0.7536(3)
W7_4 W 0.48027(2) 0.65857(2) 0.78347(2)
W8_4 W 0.56780(2) 0.63697(2) 0.87211(2)
W9_4 W 0.47443(2) 0.66021(2) 0.96660(2)
O23_4 O 0.6001(2) 0.5841(2) 0.8810(3)
O24_4 O 0.6062(2) 0.6671(2) 0.8214(3)
O25_4 O 0.5968(2) 0.6817(2) 0.9170(2)
O26_4 O 0.5226(2) 0.6165(2) 0.8213(2)
O27_4 O 0.4605(2) 0.6187(2) 0.7400(3)
O28_4 O 0.4480(2) 0.7188(2) 0.7669(2)
O29_4 O 0.5146(2) 0.6323(2) 0.9169(2)
O31_4 O 0.4341(2) 0.7102(2) 0.9964(3)
W10_4 W 0.51973(2) 0.84143(2) 0.78347(2)
W11_4 W 0.43220(2) 0.86303(2) 0.87211(2)
W12_4 W 0.52557(2) 0.83979(2) 0.96660(2)
O32_4 O 0.3999(2) 0.9159(2) 0.8810(3)
O33_4 O 0.3938(2) 0.8329(2) 0.8214(3)
O34_4 O 0.4032(2) 0.8183(2) 0.9170(2)
O35_4 O 0.4774(2) 0.8835(2) 0.8213(2)
O36_4 O 0.5395(2) 0.8813(2) 0.7400(3)
O37_4 O 0.5520(2) 0.7812(2) 0.7669(2)
O38_4 O 0.4854(2) 0.8677(2) 0.9169(2)
O40_4 O 0.5659(2) 0.7898(2) 0.9964(3)
P1_6 P 0.0000 0.2500 0.3750
O11_5 O 0.04029(19) 0.27438(19) 0.4077(2)
O13_5 O 0.02438(19) 0.20971(19) 0.3423(2)
W4_5 W 0.09143(2) 0.23027(2) 0.46653(2)
W5_5 W 0.11303(2) 0.31780(2) 0.37789(2)
W6_5 W 0.08979(2) 0.22443(2) 0.28340(2)
O14_5 O 0.1659(2) 0.3501(2) 0.3690(3)
O15_5 O 0.0829(2) 0.3562(2) 0.4286(3)
O16_5 O 0.0683(2) 0.3468(2) 0.3330(2)
O17_5 O 0.1335(2) 0.2726(2) 0.4287(2)
O18_5 O 0.1313(2) 0.2105(2) 0.5100(3)
O19_5 O 0.0312(2) 0.1980(2) 0.4831(2)
O20_5 O 0.1177(2) 0.2646(2) 0.3331(2)
O21_5 O 0.1345(2) 0.2231(2) 0.2402(3)
O22_5 O 0.0398(2) 0.1841(2) 0.2536(3)
W7_5 W 0.01973(2) 0.34143(2) 0.28347(2)
W9_5 W 0.02557(2) 0.33979(2) 0.46660(2)
O27_5 O 0.0395(2) 0.3813(2) 0.2400(3)
O28_5 O 0.0520(2) 0.2812(2) 0.2669(2)
O30_5 O 0.0269(2) 0.3845(2) 0.5098(3)
O31_5 O 0.0659(2) 0.2898(2) 0.4964(3)
W11_5 W 0.06780(2) 0.13697(2) 0.37211(2)
O32_5 O 0.1001(2) 0.0841(2) 0.3810(3)
O33_5 O 0.1062(2) 0.1671(2) 0.3214(3)
O34_5 O 0.0968(2) 0.1817(2) 0.4170(2)
O35_5 O 0.0226(2) 0.1165(2) 0.3213(2)
O38_5 O 0.0146(2) 0.1323(2) 0.4169(2)
W1_5 W 0.90857(2) 0.26973(2) 0.46653(2)
W2_5 W 0.88697(2) 0.18220(2) 0.37789(2)
W3_5 W 0.91021(2) 0.27557(2) 0.28340(2)
P1_7 P 1.0000 0.2500 0.3750
O1_5 O 0.8341(2) 0.1499(2) 0.3690(3)
O2_5 O 0.9171(2) 0.1438(2) 0.4286(3)
O3_5 O 0.9317(2) 0.1532(2) 0.3330(2)
O4_5 O 0.8665(2) 0.2274(2) 0.4287(2)
O5_5 O 0.8687(2) 0.2895(2) 0.5100(3)
O6_5 O 0.9688(2) 0.3020(2) 0.4831(2)
O7_5 O 0.95971(19) 0.22562(19) 0.4077(2)
O8_5 O 0.8823(2) 0.2354(2) 0.3331(2)
O9_5 O 0.8655(2) 0.2769(2) 0.2402(3)
O10_5 O 0.9602(2) 0.3159(2) 0.2536(3)
O12_5 O 0.97562(19) 0.29029(19) 0.3423(2)
W8_5 W 0.93220(2) 0.36303(2) 0.37211(2)
O23_5 O 0.8999(2) 0.4159(2) 0.3810(3)
O24_5 O 0.8938(2) 0.3329(2) 0.3214(3)
O25_5 O 0.9032(2) 0.3183(2) 0.4170(2)
O26_5 O 0.9774(2) 0.3835(2) 0.3213(2)
O29_5 O 0.9854(2) 0.3677(2) 0.4169(2)
W10_5 W 0.98027(2) 0.15857(2) 0.28347(2)
W12_5 W 0.97443(2) 0.16021(2) 0.46660(2)
O36_5 O 0.9605(2) 0.1187(2) 0.2400(3)
O37_5 O 0.9480(2) 0.2188(2) 0.2669(2)
O39_5 O 0.9731(2) 0.1155(2) 0.5098(3)
O40_5 O 0.9341(2) 0.2102(2) 0.4964(3)
W1_6 W 0.01973(2) 0.84143(2) 0.71653(2)
W3_6 W 0.02557(2) 0.83979(2) 0.53340(2)
P1_8 P -0.0000 0.7500 0.6250
O5_6 O 0.0395(2) 0.8813(2) 0.7600(3)
O6_6 O 0.0520(2) 0.7812(2) 0.7331(2)
O9_6 O 0.0269(2) 0.8845(2) 0.4902(3)
O10_6 O 0.0659(2) 0.7898(2) 0.5036(3)
O11_6 O 0.02438(19) 0.70971(19) 0.6577(2)
O12_6 O 0.04029(19) 0.77438(19) 0.5923(2)
W5_6 W 0.06780(2) 0.63697(2) 0.62789(2)
O14_6 O 0.1001(2) 0.5841(2) 0.6190(3)
O15_6 O 0.1062(2) 0.6671(2) 0.6786(3)
O16_6 O 0.0968(2) 0.6817(2) 0.5830(2)
O17_6 O 0.0226(2) 0.6165(2) 0.6787(2)
O20_6 O 0.0146(2) 0.6323(2) 0.5831(2)
W7_6 W 0.09143(2) 0.73027(2) 0.53347(2)
W8_6 W 0.11303(2) 0.81780(2) 0.62211(2)
W9_6 W 0.08979(2) 0.72443(2) 0.71660(2)
O23_6 O 0.1659(2) 0.8501(2) 0.6310(3)
O24_6 O 0.0829(2) 0.8562(2) 0.5714(3)
O25_6 O 0.0683(2) 0.8468(2) 0.6670(2)
O26_6 O 0.1335(2) 0.7726(2) 0.5713(2)
O27_6 O 0.1313(2) 0.7105(2) 0.4900(3)
O28_6 O 0.0312(2) 0.6980(2) 0.5169(2)
O29_6 O 0.1177(2) 0.7646(2) 0.6669(2)
O30_6 O 0.1345(2) 0.7231(2) 0.7598(3)
O31_6 O 0.0398(2) 0.6841(2) 0.7464(3)
W2_6 W 0.93220(2) 0.86303(2) 0.62789(2)
P1_9 P 1.0000 0.7500 0.6250
O1_6 O 0.8999(2) 0.9159(2) 0.6190(3)
O2_6 O 0.8938(2) 0.8329(2) 0.6786(3)
O3_6 O 0.9032(2) 0.8183(2) 0.5830(2)
O4_6 O 0.9774(2) 0.8835(2) 0.6787(2)
O7_6 O 0.97562(19) 0.79029(19) 0.6577(2)
O8_6 O 0.9854(2) 0.8677(2) 0.5831(2)
O13_6 O 0.95971(19) 0.72562(19) 0.5923(2)
W4_6 W 0.98027(2) 0.65857(2) 0.71653(2)
W6_6 W 0.97443(2) 0.66021(2) 0.53340(2)
O18_6 O 0.9605(2) 0.6187(2) 0.7600(3)
O19_6 O 0.9480(2) 0.7188(2) 0.7331(2)
O21_6 O 0.9731(2) 0.6155(2) 0.4902(3)
O22_6 O 0.9341(2) 0.7102(2) 0.5036(3)
W10_6 W 0.90857(2) 0.76973(2) 0.53347(2)
W11_6 W 0.88697(2) 0.68220(2) 0.62211(2)
W12_6 W 0.91021(2) 0.77557(2) 0.71660(2)
O32_6 O 0.8341(2) 0.6499(2) 0.6310(3)
O33_6 O 0.9171(2) 0.6438(2) 0.5714(3)
O34_6 O 0.9317(2) 0.6532(2) 0.6670(2)
O35_6 O 0.8665(2) 0.7274(2) 0.5713(2)
O36_6 O 0.8687(2) 0.7895(2) 0.4900(3)
O37_6 O 0.9688(2) 0.8020(2) 0.5169(2)
O38_6 O 0.8823(2) 0.7354(2) 0.6669(2)
O39_6 O 0.8655(2) 0.7769(2) 0.7598(3)
O40_6 O 0.9602(2) 0.8159(2) 0.7464(3)
W1_7 W 0.09143(2) 0.76973(2) 0.03347(2)
W2_7 W 0.11303(2) 0.68220(2) 0.12211(2)
W3_7 W 0.08979(2) 0.77557(2) 0.21660(2)
P1_10 P -0.0000 0.7500 0.1250
O1_7 O 0.1659(2) 0.6499(2) 0.1310(3)
O2_7 O 0.0829(2) 0.6438(2) 0.0714(3)
O3_7 O 0.0683(2) 0.6532(2) 0.1670(2)
O4_7 O 0.1335(2) 0.7274(2) 0.0713(2)
O6_7 O 0.0312(2) 0.8020(2) 0.0169(2)
O7_7 O 0.04029(19) 0.72562(19) 0.0923(2)
O8_7 O 0.1177(2) 0.7354(2) 0.1669(2)
O9_7 O 0.1345(2) 0.7769(2) 0.2598(3)
O10_7 O 0.0398(2) 0.8159(2) 0.2464(3)
O12_7 O 0.02438(19) 0.79029(19) 0.1577(2)
W8_7 W 0.06780(2) 0.86303(2) 0.12789(2)
O23_7 O 0.1001(2) 0.9159(2) 0.1190(3)
O24_7 O 0.1062(2) 0.8329(2) 0.1786(3)
O25_7 O 0.0968(2) 0.8183(2) 0.0830(2)
O26_7 O 0.0226(2) 0.8835(2) 0.1787(2)
O29_7 O 0.0146(2) 0.8677(2) 0.0831(2)
W10_7 W 0.01973(2) 0.65857(2) 0.21653(2)
W12_7 W 0.02557(2) 0.66021(2) 0.03340(2)
O36_7 O 0.0395(2) 0.6187(2) 0.2600(3)
O37_7 O 0.0520(2) 0.7188(2) 0.2331(2)
O40_7 O 0.0659(2) 0.7102(2) 0.0036(3)
O5_7 O 0.1313(2) 0.7895(2) 0.9900(3)
O39_7 O 0.0269(2) 0.6155(2) 0.9902(3)
P1_11 P 1.0000 0.7500 0.1250
O11_7 O 0.95971(19) 0.77438(19) 0.0923(2)
O13_7 O 0.97562(19) 0.70971(19) 0.1577(2)
W4_7 W 0.90857(2) 0.73027(2) 0.03347(2)
W5_7 W 0.88697(2) 0.81780(2) 0.12211(2)
W6_7 W 0.91021(2) 0.72443(2) 0.21660(2)
O14_7 O 0.8341(2) 0.8501(2) 0.1310(3)
O15_7 O 0.9171(2) 0.8562(2) 0.0714(3)
O16_7 O 0.9317(2) 0.8468(2) 0.1670(2)
O17_7 O 0.8665(2) 0.7726(2) 0.0713(2)
O19_7 O 0.9688(2) 0.6980(2) 0.0169(2)
O20_7 O 0.8823(2) 0.7646(2) 0.1669(2)
O21_7 O 0.8655(2) 0.7231(2) 0.2598(3)
O22_7 O 0.9602(2) 0.6841(2) 0.2464(3)
W7_7 W 0.98027(2) 0.84143(2) 0.21653(2)
W9_7 W 0.97443(2) 0.83979(2) 0.03340(2)
O27_7 O 0.9605(2) 0.8813(2) 0.2600(3)
O28_7 O 0.9480(2) 0.7812(2) 0.2331(2)
O31_7 O 0.9341(2) 0.7898(2) 0.0036(3)
W11_7 W 0.93220(2) 0.63697(2) 0.12789(2)
O32_7 O 0.8999(2) 0.5841(2) 0.1190(3)
O33_7 O 0.8938(2) 0.6671(2) 0.1786(3)
O34_7 O 0.9032(2) 0.6817(2) 0.0830(2)
O35_7 O 0.9774(2) 0.6165(2) 0.1787(2)
O38_7 O 0.9854(2) 0.6323(2) 0.0831(2)
O18_7 O 0.8687(2) 0.7105(2) 0.9900(3)
O30_7 O 0.9731(2) 0.8845(2) 0.9902(3)
W1_8 W 0.51973(2) 0.34143(2) 0.21653(2)
W2_8 W 0.43220(2) 0.36303(2) 0.12789(2)
W3_8 W 0.52557(2) 0.33979(2) 0.03340(2)
P1_12 P 0.5000 0.2500 0.1250
O1_8 O 0.3999(2) 0.4159(2) 0.1190(3)
O2_8 O 0.3938(2) 0.3329(2) 0.1786(3)
O3_8 O 0.4032(2) 0.3183(2) 0.0830(2)
O4_8 O 0.4774(2) 0.3835(2) 0.1787(2)
O5_8 O 0.5395(2) 0.3813(2) 0.2600(3)
O6_8 O 0.5520(2) 0.2812(2) 0.2331(2)
O7_8 O 0.47562(19) 0.29029(19) 0.1577(2)
O8_8 O 0.4854(2) 0.3677(2) 0.0831(2)
O10_8 O 0.5659(2) 0.2898(2) 0.0036(3)
O11_8 O 0.52438(19) 0.20971(19) 0.1577(2)
O12_8 O 0.54029(19) 0.27438(19) 0.0923(2)
O13_8 O 0.45971(19) 0.22562(19) 0.0923(2)
W4_8 W 0.48027(2) 0.15857(2) 0.21653(2)
W5_8 W 0.56780(2) 0.13697(2) 0.12789(2)
W6_8 W 0.47443(2) 0.16021(2) 0.03340(2)
O14_8 O 0.6001(2) 0.0841(2) 0.1190(3)
O15_8 O 0.6062(2) 0.1671(2) 0.1786(3)
O16_8 O 0.5968(2) 0.1817(2) 0.0830(2)
O17_8 O 0.5226(2) 0.1165(2) 0.1787(2)
O18_8 O 0.4605(2) 0.1187(2) 0.2600(3)
O19_8 O 0.4480(2) 0.2188(2) 0.2331(2)
O20_8 O 0.5146(2) 0.1323(2) 0.0831(2)
O22_8 O 0.4341(2) 0.2102(2) 0.0036(3)
W7_8 W 0.59143(2) 0.23027(2) 0.03347(2)
W8_8 W 0.61303(2) 0.31780(2) 0.12211(2)
W9_8 W 0.58979(2) 0.22443(2) 0.21660(2)
O23_8 O 0.6659(2) 0.3501(2) 0.1310(3)
O24_8 O 0.5829(2) 0.3562(2) 0.0714(3)
O25_8 O 0.5683(2) 0.3468(2) 0.1670(2)
O26_8 O 0.6335(2) 0.2726(2) 0.0713(2)
O28_8 O 0.5312(2) 0.1980(2) 0.0169(2)
O29_8 O 0.6177(2) 0.2646(2) 0.1669(2)
O30_8 O 0.6345(2) 0.2231(2) 0.2598(3)
O31_8 O 0.5398(2) 0.1841(2) 0.2464(3)
W10_8 W 0.40857(2) 0.26973(2) 0.03347(2)
W11_8 W 0.38697(2) 0.18220(2) 0.12211(2)
W12_8 W 0.41021(2) 0.27557(2) 0.21660(2)
O32_8 O 0.3341(2) 0.1499(2) 0.1310(3)
O33_8 O 0.4171(2) 0.1438(2) 0.0714(3)
O34_8 O 0.4317(2) 0.1532(2) 0.1670(2)
O35_8 O 0.3665(2) 0.2274(2) 0.0713(2)
O37_8 O 0.4688(2) 0.3020(2) 0.0169(2)
O38_8 O 0.3823(2) 0.2354(2) 0.1669(2)
O39_8 O 0.3655(2) 0.2769(2) 0.2598(3)
O40_8 O 0.4602(2) 0.3159(2) 0.2464(3)
O9_8 O 0.5269(2) 0.3845(2) 0.9902(3)
O21_8 O 0.4731(2) 0.1155(2) 0.9902(3)
O27_8 O 0.6313(2) 0.2105(2) 0.9900(3)
O36_8 O 0.3687(2) 0.2895(2) 0.9900(3)
loop_
_geom_bond_atom_site_label_1
_geom_bond_atom_site_label_2
_geom_bond_site_symmetry_1
_geom_bond_site_symmetry_2
Cu1 N2 1_555 1_555
N1 C1 1_555 1_555
N2 C11 1_555 1_555
C1 H1 1_555 1_555
C2 C1 1_555 1_555
H2 C2 1_555 1_555
C3 C2 1_555 1_555
C4 C3 1_555 1_555
H3 C4 1_555 1_555
C5 N1 1_555 1_555
H4 C5 1_555 1_555
C6 C3 1_555 1_555
C7 C6 1_555 1_555
H5 C7 1_555 1_555
C8 C7 1_555 1_555
C9 C8 1_555 1_555
C10 C9 1_555 1_555
H6 C10 1_555 1_555
C11 C10 1_555 1_555
H7 C11 1_555 1_555
C12 N2 1_555 1_555
H8 C12 1_555 1_555
C13 C9 1_555 1_555
H9 C13 1_555 1_555
N3 C14 1_555 1_555
N4 C24 1_555 1_555
C14 H10 1_555 1_555
C15 C14 1_555 1_555
H11 C15 1_555 1_555
C16 C15 1_555 1_555
C17 C16 1_555 1_555
H12 C17 1_555 1_555
C18 N3 1_555 1_555
H13 C18 1_555 1_555
C19 C8 1_555 1_555
C20 C19 1_555 1_555
H14 C20 1_555 1_555
C21 C6 1_555 1_555
C22 C21 1_555 1_555
C23 C22 1_555 1_555
H15 C23 1_555 1_555
C24 C23 1_555 1_555
H16 C24 1_555 1_555
C25 N4 1_555 1_555
H17 C25 1_555 1_555
C26 C22 1_555 1_555
H18 C26 1_555 1_555
Cu2 N3 1_555 1_555
Cu3 N4 1_555 1_555
Cu4 N1 1_555 1_555
N5 Cu1 1_555 1_555
N6 Cu1 1_555 1_555
N7 Cu1 1_555 1_555
C4 C5 1_555 1_555
C12 C13 1_555 1_555
C16 C19 1_555 1_555
C17 C18 1_555 1_555
C20 C21 1_555 1_555
C25 C26 1_555 1_555
Cu1_2 N2_2 1_555 1_555
N1_2 C1_2 1_555 1_555
N2_2 C11_2 1_555 1_555
C1_2 H1_2 1_555 1_555
C2_2 C1_2 1_555 1_555
H2_2 C2_2 1_555 1_555
C3_2 C2_2 1_555 1_555
C4_2 C3_2 1_555 1_555
H3_2 C4_2 1_555 1_555
C5_2 N1_2 1_555 1_555
H4_2 C5_2 1_555 1_555
C6_2 C3_2 1_555 1_555
C7_2 C6_2 1_555 1_555
H5_2 C7_2 1_555 1_555
C8_2 C7_2 1_555 1_555
C9_2 C8_2 1_555 1_555
C10_2 C9_2 1_555 1_555
H6_2 C10_2 1_555 1_555
C11_2 C10_2 1_555 1_555
H7_2 C11_2 1_555 1_555
C12_2 N2_2 1_555 1_555
H8_2 C12_2 1_555 1_555
C13_2 C9_2 1_555 1_555
H9_2 C13_2 1_555 1_555
N6 C14_2 1_555 1_555
N4_2 C24_2 1_555 1_555
C14_2 H10_2 1_555 1_555
C15_2 C14_2 1_555 1_555
H11_2 C15_2 1_555 1_555
C16_2 C15_2 1_555 1_555
C17_2 C16_2 1_555 1_555
H12_2 C17_2 1_555 1_555
C18_2 N6 1_555 1_555
H13_2 C18_2 1_555 1_555
C19_2 C8_2 1_555 1_555
C20_2 C19_2 1_555 1_555
H14_2 C20_2 1_555 1_555
C21_2 C6_2 1_555 1_555
C22_2 C21_2 1_555 1_555
C23_2 C22_2 1_555 1_555
H15_2 C23_2 1_555 1_555
C24_2 C23_2 1_555 1_555
H16_2 C24_2 1_555 1_555
C25_2 N4_2 1_555 1_555
H17_2 C25_2 1_555 1_555
C26_2 C22_2 1_555 1_555
H18_2 C26_2 1_555 1_555
Cu3_2 N4_2 1_555 1_555
Cu4_3 N1_2 1_555 1_555
N5_2 Cu1_2 1_555 1_555
N6_2 Cu1_2 1_555 1_555
N7_2 Cu1_2 1_555 1_555
C4_2 C5_2 1_555 1_555
C12_2 C13_2 1_555 1_555
C16_2 C19_2 1_555 1_555
C17_2 C18_2 1_555 1_555
C20_2 C21_2 1_555 1_555
C25_2 C26_2 1_555 1_555
Cu1_3 N2_3 1_555 1_555
N1_3 C1_3 1_555 1_555
N2_3 C11_3 1_555 1_555
C1_3 H1_3 1_555 1_555
C2_3 C1_3 1_555 1_555
H2_3 C2_3 1_555 1_555
C3_3 C2_3 1_555 1_555
C6_3 C3_3 1_555 1_555
C7_3 C6_3 1_555 1_555
H5_3 C7_3 1_555 1_555
C8_3 C7_3 1_555 1_555
C9_3 C8_3 1_555 1_555
C10_3 C9_3 1_555 1_555
C11_3 C10_3 1_555 1_555
H7_3 C11_3 1_555 1_555
C12_3 N2_3 1_555 1_555
H8_3 C12_3 1_555 1_555
C13_3 C9_3 1_555 1_555
H9_3 C13_3 1_555 1_555
H12_3 C17_3 1_555 1_555
H13_3 C18_3 1_555 1_555
Cu3_2 N1_3 1_555 1_555
N5_3 Cu1_3 1_555 1_555
N6_3 Cu1_3 1_555 1_555
N7_3 Cu1_3 1_555 1_555
C12_3 C13_3 1_555 1_555
C17_3 C18_3 1_555 1_555
H3_3 C4_3 1_555 1_555
H4_3 C5_3 1_555 1_555
N3_2 C14_3 1_555 1_555
N4_3 C24_3 1_555 1_555
C14_3 H10_3 1_555 1_555
C15_3 C14_3 1_555 1_555
H11_3 C15_3 1_555 1_555
C16_3 C15_3 1_555 1_555
C20_3 C19_3 1_555 1_555
H14_3 C20_3 1_555 1_555
C22_3 C21_3 1_555 1_555
C23_3 C22_3 1_555 1_555
C24_3 C23_3 1_555 1_555
H16_3 C24_3 1_555 1_555
C25_3 N4_3 1_555 1_555
H17_3 C25_3 1_555 1_555
C26_3 C22_3 1_555 1_555
H18_3 C26_3 1_555 1_555
Cu2_3 N3_2 1_555 1_555
Cu3_4 N4_3 1_555 1_555
C4_3 C5_3 1_555 1_555
C16_3 C19_3 1_555 1_555
C20_3 C21_3 1_555 1_555
C25_3 C26_3 1_555 1_555
Cu2 N2_4 1_555 1_555
N1_4 C1_4 1_555 1_555
N2_4 C11_4 1_555 1_555
C1_4 H1_4 1_555 1_555
C2_4 C1_4 1_555 1_555
H2_4 C2_4 1_555 1_555
C3_4 C2_4 1_555 1_555
C4_4 C3_4 1_555 1_555
H3_4 C4_4 1_555 1_555
C5_4 N1_4 1_555 1_555
H4_4 C5_4 1_555 1_555
C6_4 C3_4 1_555 1_555
C7_4 C6_4 1_555 1_555
H5_4 C7_4 1_555 1_555
C8_4 C7_4 1_555 1_555
C9_4 C8_4 1_555 1_555
C10_4 C9_4 1_555 1_555
H6_4 C10_4 1_555 1_555
C11_4 C10_4 1_555 1_555
H7_4 C11_4 1_555 1_555
C12_4 N2_4 1_555 1_555
H8_4 C12_4 1_555 1_555
C13_4 C9_4 1_555 1_555
H9_4 C13_4 1_555 1_555
N3_3 C14_4 1_555 1_555
N4_4 C24_4 1_555 1_555
C14_4 H10_4 1_555 1_555
C15_4 C14_4 1_555 1_555
H11_4 C15_4 1_555 1_555
C16_4 C15_4 1_555 1_555
C17_4 C16_4 1_555 1_555
H12_4 C17_4 1_555 1_555
C18_4 N3_3 1_555 1_555
H13_4 C18_4 1_555 1_555
C19_4 C8_4 1_555 1_555
C20_4 C19_4 1_555 1_555
H14_4 C20_4 1_555 1_555
C21_4 C6_4 1_555 1_555
C22_4 C21_4 1_555 1_555
C23_4 C22_4 1_555 1_555
H15_4 C23_4 1_555 1_555
C24_4 C23_4 1_555 1_555
H16_4 C24_4 1_555 1_555
C25_4 N4_4 1_555 1_555
H17_4 C25_4 1_555 1_555
C26_4 C22_4 1_555 1_555
H18_4 C26_4 1_555 1_555
Cu2_4 N3_3 1_555 1_555
Cu3_6 N4_4 1_555 1_555
Cu3_4 N1_4 1_555 1_555
N5_4 Cu2 1_555 1_555
N7_4 Cu2 1_555 1_555
C4_4 C5_4 1_555 1_555
C12_4 C13_4 1_555 1_555
C16_4 C19_4 1_555 1_555
C17_4 C18_4 1_555 1_555
C20_4 C21_4 1_555 1_555
C25_4 C26_4 1_555 1_555
Cu2_4 N2_5 1_555 1_555
C9_5 C8_5 1_555 1_555
C12_5 N2_5 1_555 1_555
H8_5 C12_5 1_555 1_555
C13_5 C9_5 1_555 1_555
H9_5 C13_5 1_555 1_555
N5_4 C14_5 1_555 1_555
C14_5 H10_5 1_555 1_555
C15_5 C14_5 1_555 1_555
H11_5 C15_5 1_555 1_555
C16_5 C15_5 1_555 1_555
C17_5 C16_5 1_555 1_555
H12_5 C17_5 1_555 1_555
C18_5 N5_4 1_555 1_555
H13_5 C18_5 1_555 1_555
C19_5 C8_5 1_555 1_555
C20_5 C19_5 1_555 1_555
H14_5 C20_5 1_555 1_555
H15_5 C23_5 1_555 1_555
C24_5 C23_5 1_555 1_555
H16_5 C24_5 1_555 1_555
C12_5 C13_5 1_555 1_555
C16_5 C19_5 1_555 1_555
C17_5 C18_5 1_555 1_555
N1_5 C1_5 1_555 1_555
C1_5 H1_5 1_555 1_555
C2_5 C1_5 1_555 1_555
H2_5 C2_5 1_555 1_555
C3_5 C2_5 1_555 1_555
C4_5 C3_5 1_555 1_555
H3_5 C4_5 1_555 1_555
C5_5 N1_5 1_555 1_555
H4_5 C5_5 1_555 1_555
C6_5 C3_5 1_555 1_555
C7_5 C6_5 1_555 1_555
H5_5 C7_5 1_555 1_555
H6_5 C10_5 1_555 1_555
C11_5 C10_5 1_555 1_555
H7_5 C11_5 1_555 1_555
C21_5 C6_5 1_555 1_555
C22_5 C21_5 1_555 1_555
C25_5 N4_5 1_555 1_555
H17_5 C25_5 1_555 1_555
C26_5 C22_5 1_555 1_555
H18_5 C26_5 1_555 1_555
Cu3_8 N4_5 1_555 1_555
Cu4 N1_5 1_555 1_555
N6_4 Cu2_5 1_555 1_555
N7_5 Cu2_5 1_555 1_555
C4_5 C5_5 1_555 1_555
C25_5 C26_5 1_555 1_555
N1_6 C1_6 1_555 1_555
C1_6 H1_6 1_555 1_555
C2_6 C1_6 1_555 1_555
H2_6 C2_6 1_555 1_555
C3_6 C2_6 1_555 1_555
C4_6 C3_6 1_555 1_555
C5_6 N1_6 1_555 1_555
H4_6 C5_6 1_555 1_555
C6_6 C3_6 1_555 1_555
N4_6 C24_6 1_555 1_555
H14_6 C20_6 1_555 1_555
C21_6 C6_6 1_555 1_555
C22_6 C21_6 1_555 1_555
C23_6 C22_6 1_555 1_555
H15_6 C23_6 1_555 1_555
C24_6 C23_6 1_555 1_555
H16_6 C24_6 1_555 1_555
C25_6 N4_6 1_555 1_555
H17_6 C25_6 1_555 1_555
C26_6 C22_6 1_555 1_555
H18_6 C26_6 1_555 1_555
Cu3 N4_6 1_555 1_555
Cu4_4 N1_6 1_555 1_555
C4_6 C5_6 1_555 1_555
C20_6 C21_6 1_555 1_555
C25_6 C26_6 1_555 1_555
N7 C11_6 1_555 1_555
H5_6 C7_6 1_555 1_555
C8_6 C7_6 1_555 1_555
C9_6 C8_6 1_555 1_555
C10_6 C9_6 1_555 1_555
H6_6 C10_6 1_555 1_555
C11_6 C10_6 1_555 1_555
H7_6 C11_6 1_555 1_555
C12_6 N7 1_555 1_555
H8_6 C12_6 1_555 1_555
C13_6 C9_6 1_555 1_555
H9_6 C13_6 1_555 1_555
N5_2 C14_6 1_555 1_555
C14_6 H10_6 1_555 1_555
C15_6 C14_6 1_555 1_555
H11_6 C15_6 1_555 1_555
C16_6 C15_6 1_555 1_555
C17_6 C16_6 1_555 1_555
C18_6 N5_2 1_555 1_555
H13_6 C18_6 1_555 1_555
C19_6 C8_6 1_555 1_555
C12_6 C13_6 1_555 1_555
C16_6 C19_6 1_555 1_555
C17_6 C18_6 1_555 1_555
N5_5 Cu1_4 1_555 1_555
N7_6 Cu1_4 1_555 1_555
Cu1_5 N2_6 1_555 1_555
N1_7 C1_7 1_555 1_555
N2_6 C11_7 1_555 1_555
C1_7 H1_7 1_555 1_555
C2_7 C1_7 1_555 1_555
H2_7 C2_7 1_555 1_555
C3_7 C2_7 1_555 1_555
C4_7 C3_7 1_555 1_555
H3_7 C4_7 1_555 1_555
C5_7 N1_7 1_555 1_555
H4_7 C5_7 1_555 1_555
C6_7 C3_7 1_555 1_555
C7_7 C6_7 1_555 1_555
H5_7 C7_7 1_555 1_555
C8_7 C7_7 1_555 1_555
C9_7 C8_7 1_555 1_555
C10_7 C9_7 1_555 1_555
H6_7 C10_7 1_555 1_555
C11_7 C10_7 1_555 1_555
H7_7 C11_7 1_555 1_555
C12_7 N2_6 1_555 1_555
H8_7 C12_7 1_555 1_555
C13_7 C9_7 1_555 1_555
H9_7 C13_7 1_555 1_555
N3_4 C14_7 1_555 1_555
N4_7 C24_7 1_555 1_555
C14_7 H10_7 1_555 1_555
C15_7 C14_7 1_555 1_555
H11_7 C15_7 1_555 1_555
C16_7 C15_7 1_555 1_555
C17_7 C16_7 1_555 1_555
H12_7 C17_7 1_555 1_555
C18_7 N3_4 1_555 1_555
H13_7 C18_7 1_555 1_555
C19_7 C8_7 1_555 1_555
C20_7 C19_7 1_555 1_555
H14_7 C20_7 1_555 1_555
C21_7 C6_7 1_555 1_555
C22_7 C21_7 1_555 1_555
C23_7 C22_7 1_555 1_555
H15_7 C23_7 1_555 1_555
C24_7 C23_7 1_555 1_555
H16_7 C24_7 1_555 1_555
C25_7 N4_7 1_555 1_555
H17_7 C25_7 1_555 1_555
C26_7 C22_7 1_555 1_555
H18_7 C26_7 1_555 1_555
Cu2_7 N3_4 1_555 1_555
Cu4 N4_7 1_555 1_555
Cu3 N1_7 1_555 1_555
N6_5 Cu1_5 1_555 1_555
C4_7 C5_7 1_555 1_555
C12_7 C13_7 1_555 1_555
C16_7 C19_7 1_555 1_555
C17_7 C18_7 1_555 1_555
C20_7 C21_7 1_555 1_555
C25_7 C26_7 1_555 1_555
N1_8 C1_8 1_555 1_555
N7_2 C11_8 1_555 1_555
C1_8 H1_8 1_555 1_555
C2_8 C1_8 1_555 1_555
H2_8 C2_8 1_555 1_555
C3_8 C2_8 1_555 1_555
C4_8 C3_8 1_555 1_555
H3_8 C4_8 1_555 1_555
C5_8 N1_8 1_555 1_555
H4_8 C5_8 1_555 1_555
C6_8 C3_8 1_555 1_555
C7_8 C6_8 1_555 1_555
H5_8 C7_8 1_555 1_555
C8_8 C7_8 1_555 1_555
C9_8 C8_8 1_555 1_555
C10_8 C9_8 1_555 1_555
H6_8 C10_8 1_555 1_555
C11_8 C10_8 1_555 1_555
H7_8 C11_8 1_555 1_555
C12_8 N7_2 1_555 1_555
H8_8 C12_8 1_555 1_555
C13_8 C9_8 1_555 1_555
H9_8 C13_8 1_555 1_555
N6_4 C14_8 1_555 1_555
N4_8 C24_8 1_555 1_555
C14_8 H10_8 1_555 1_555
C15_8 C14_8 1_555 1_555
H11_8 C15_8 1_555 1_555
C16_8 C15_8 1_555 1_555
C17_8 C16_8 1_555 1_555
H12_8 C17_8 1_555 1_555
C18_8 N6_4 1_555 1_555
H13_8 C18_8 1_555 1_555
C19_8 C8_8 1_555 1_555
C20_8 C19_8 1_555 1_555
H14_8 C20_8 1_555 1_555
C21_8 C6_8 1_555 1_555
C22_8 C21_8 1_555 1_555
C23_8 C22_8 1_555 1_555
H15_8 C23_8 1_555 1_555
C24_8 C23_8 1_555 1_555
H16_8 C24_8 1_555 1_555
C25_8 N4_8 1_555 1_555
H17_8 C25_8 1_555 1_555
C26_8 C22_8 1_555 1_555
H18_8 C26_8 1_555 1_555
Cu3_3 N4_8 1_555 1_555
Cu3_4 N1_8 1_555 1_555
C4_8 C5_8 1_555 1_555
C12_8 C13_8 1_555 1_555
C16_8 C19_8 1_555 1_555
C17_8 C18_8 1_555 1_555
C20_8 C21_8 1_555 1_555
C25_8 C26_8 1_555 1_555
N5_5 C14_9 1_555 1_555
C14_9 H10_9 1_555 1_555
C15_9 C14_9 1_555 1_555
H11_9 C15_9 1_555 1_555
C16_9 C15_9 1_555 1_555
C16_9 C19_9 1_555 1_555
H5_9 C7_9 1_555 1_555
C11_9 C10_9 1_555 1_555
H7_9 C11_9 1_555 1_555
N6_6 Cu2_6 1_555 1_555
N7_7 Cu2_6 1_555 1_555
Cu2_7 N2_7 1_555 1_555
C9_9 C8_9 1_555 1_555
C12_9 N2_7 1_555 1_555
H8_9 C12_9 1_555 1_555
C13_9 C9_9 1_555 1_555
H9_9 C13_9 1_555 1_555
H13_9 C18_9 1_555 1_555
C12_9 C13_9 1_555 1_555
C17_9 C18_9 1_555 1_555
H4_9 C5_9 1_555 1_555
C22_9 C21_9 1_555 1_555
C25_9 N4_9 1_555 1_555
H17_9 C25_9 1_555 1_555
C26_9 C22_9 1_555 1_555
H18_9 C26_9 1_555 1_555
Cu4_2 N4_9 1_555 1_555
C4_9 C5_9 1_555 1_555
C25_9 C26_9 1_555 1_555
H14_9 C20_9 1_555 1_555
C24_9 C23_9 1_555 1_555
H16_9 C24_9 1_555 1_555
N1_9 C1_9 1_555 1_555
C1_9 H1_9 1_555 1_555
C2_9 C1_9 1_555 1_555
H2_9 C2_9 1_555 1_555
C3_9 C2_9 1_555 1_555
C6_9 C3_9 1_555 1_555
Cu3_6 N1_9 1_555 1_555
N5_6 Cu2_2 1_555 1_555
N7_8 Cu2_2 1_555 1_555
Cu2_3 N2_8 1_555 1_555
N1_10 C1_10 1_555 1_555
N2_8 C11_10 1_555 1_555
C1_10 H1_10 1_555 1_555
C2_10 C1_10 1_555 1_555
H2_10 C2_10 1_555 1_555
C3_10 C2_10 1_555 1_555
C4_10 C3_10 1_555 1_555
H3_9 C4_10 1_555 1_555
C5_10 N1_10 1_555 1_555
H4_10 C5_10 1_555 1_555
C6_10 C3_10 1_555 1_555
C7_10 C6_10 1_555 1_555
H5_10 C7_10 1_555 1_555
C8_10 C7_10 1_555 1_555
C9_10 C8_10 1_555 1_555
C10_10 C9_10 1_555 1_555
H6_9 C10_10 1_555 1_555
C11_10 C10_10 1_555 1_555
H7_10 C11_10 1_555 1_555
C12_10 N2_8 1_555 1_555
H8_10 C12_10 1_555 1_555
C13_10 C9_10 1_555 1_555
H9_10 C13_10 1_555 1_555
N6_6 C14_10 1_555 1_555
N4_10 C24_10 1_555 1_555
C14_10 H10_10 1_555 1_555
C15_10 C14_10 1_555 1_555
H11_10 C15_10 1_555 1_555
C16_10 C15_10 1_555 1_555
C17_10 C16_10 1_555 1_555
H12_9 C17_10 1_555 1_555
C18_10 N6_6 1_555 1_555
H13_10 C18_10 1_555 1_555
C19_10 C8_10 1_555 1_555
C20_10 C19_10 1_555 1_555
H14_10 C20_10 1_555 1_555
C21_10 C6_10 1_555 1_555
C22_10 C21_10 1_555 1_555
C23_10 C22_10 1_555 1_555
H15_9 C23_10 1_555 1_555
C24_10 C23_10 1_555 1_555
H16_10 C24_10 1_555 1_555
C25_10 N4_10 1_555 1_555
H17_10 C25_10 1_555 1_555
C26_10 C22_10 1_555 1_555
H18_10 C26_10 1_555 1_555
Cu4_4 N4_10 1_555 1_555
Cu3 N1_10 1_555 1_555
C4_10 C5_10 1_555 1_555
C12_10 C13_10 1_555 1_555
C16_10 C19_10 1_555 1_555
C17_10 C18_10 1_555 1_555
C20_10 C21_10 1_555 1_555
C25_10 C26_10 1_555 1_555
N1_11 C1_11 1_555 1_555
C1_11 H1_11 1_555 1_555
C2_11 C1_11 1_555 1_555
H2_11 C2_11 1_555 1_555
C3_11 C2_11 1_555 1_555
C4_11 C3_11 1_555 1_555
C5_11 N1_11 1_555 1_555
H4_11 C5_11 1_555 1_555
C6_11 C3_11 1_555 1_555
C21_11 C6_11 1_555 1_555
C22_11 C21_11 1_555 1_555
C25_11 N4_11 1_555 1_555
H17_11 C25_11 1_555 1_555
C26_11 C22_11 1_555 1_555
H18_11 C26_11 1_555 1_555
Cu3_7 N4_11 1_555 1_555
Cu4_4 N1_11 1_555 1_555
C4_11 C5_11 1_555 1_555
C25_11 C26_11 1_555 1_555
H14_11 C20_11 1_555 1_555
H15_10 C23_11 1_555 1_555
C24_11 C23_11 1_555 1_555
H16_11 C24_11 1_555 1_555
H5_11 C7_11 1_555 1_555
H6_10 C10_11 1_555 1_555
C11_11 C10_11 1_555 1_555
H7_11 C11_11 1_555 1_555
C9_11 C8_11 1_555 1_555
C12_11 N7_5 1_555 1_555
H8_11 C12_11 1_555 1_555
C13_11 C9_11 1_555 1_555
H9_11 C13_11 1_555 1_555
N6_2 C14_11 1_555 1_555
C14_11 H10_11 1_555 1_555
C15_11 C14_11 1_555 1_555
H11_11 C15_11 1_555 1_555
C16_11 C15_11 1_555 1_555
C17_11 C16_11 1_555 1_555
C18_11 N6_2 1_555 1_555
H13_11 C18_11 1_555 1_555
C19_11 C8_11 1_555 1_555
C12_11 C13_11 1_555 1_555
C16_11 C19_11 1_555 1_555
C17_11 C18_11 1_555 1_555
N1_12 C1_12 1_555 1_555
N7_6 C11_12 1_555 1_555
C1_12 H1_12 1_555 1_555
C2_12 C1_12 1_555 1_555
H2_12 C2_12 1_555 1_555
C3_12 C2_12 1_555 1_555
C4_12 C3_12 1_555 1_555
H3_11 C4_12 1_555 1_555
C5_12 N1_12 1_555 1_555
H4_12 C5_12 1_555 1_555
C6_12 C3_12 1_555 1_555
C7_12 C6_12 1_555 1_555
H5_12 C7_12 1_555 1_555
C8_12 C7_12 1_555 1_555
C9_12 C8_12 1_555 1_555
C10_12 C9_12 1_555 1_555
H6_11 C10_12 1_555 1_555
C11_12 C10_12 1_555 1_555
H7_12 C11_12 1_555 1_555
C12_12 N7_6 1_555 1_555
H8_12 C12_12 1_555 1_555
C13_12 C9_12 1_555 1_555
H9_12 C13_12 1_555 1_555
N6_3 C14_12 1_555 1_555
N4_12 C24_12 1_555 1_555
C14_12 H10_12 1_555 1_555
C15_12 C14_12 1_555 1_555
H11_12 C15_12 1_555 1_555
C16_12 C15_12 1_555 1_555
C17_12 C16_12 1_555 1_555
H12_11 C17_12 1_555 1_555
C18_12 N6_3 1_555 1_555
H13_12 C18_12 1_555 1_555
C19_12 C8_12 1_555 1_555
C20_12 C19_12 1_555 1_555
H14_12 C20_12 1_555 1_555
C21_12 C6_12 1_555 1_555
C22_12 C21_12 1_555 1_555
C23_12 C22_12 1_555 1_555
H15_11 C23_12 1_555 1_555
C24_12 C23_12 1_555 1_555
H16_12 C24_12 1_555 1_555
C25_12 N4_12 1_555 1_555
H17_12 C25_12 1_555 1_555
C26_12 C22_12 1_555 1_555
H18_12 C26_12 1_555 1_555
Cu4 N4_12 1_555 1_555
Cu3_8 N1_12 1_555 1_555
C4_12 C5_12 1_555 1_555
C12_12 C13_12 1_555 1_555
C16_12 C19_12 1_555 1_555
C17_12 C18_12 1_555 1_555
C20_12 C21_12 1_555 1_555
C25_12 C26_12 1_555 1_555
N7_3 C11_13 1_555 1_555
H5_13 C7_13 1_555 1_555
C8_13 C7_13 1_555 1_555
C9_13 C8_13 1_555 1_555
C10_13 C9_13 1_555 1_555
C11_13 C10_13 1_555 1_555
H7_13 C11_13 1_555 1_555
C12_13 N7_3 1_555 1_555
H8_13 C12_13 1_555 1_555
C13_13 C9_13 1_555 1_555
H9_13 C13_13 1_555 1_555
H13_13 C18_13 1_555 1_555
C12_13 C13_13 1_555 1_555
C17_13 C18_13 1_555 1_555
N6_5 C14_13 1_555 1_555
C14_13 H10_13 1_555 1_555
C15_13 C14_13 1_555 1_555
H11_13 C15_13 1_555 1_555
C16_13 C15_13 1_555 1_555
C16_13 C19_13 1_555 1_555
N1_13 C1_13 1_555 1_555
C1_13 H1_13 1_555 1_555
C2_13 C1_13 1_555 1_555
H2_13 C2_13 1_555 1_555
C3_13 C2_13 1_555 1_555
C6_13 C3_13 1_555 1_555
Cu3_5 N1_13 1_555 1_555
H4_13 C5_13 1_555 1_555
N4_13 C24_13 1_555 1_555
H14_13 C20_13 1_555 1_555
C22_13 C21_13 1_555 1_555
C23_13 C22_13 1_555 1_555
C24_13 C23_13 1_555 1_555
H16_13 C24_13 1_555 1_555
C25_13 N4_13 1_555 1_555
H17_13 C25_13 1_555 1_555
C26_13 C22_13 1_555 1_555
H18_13 C26_13 1_555 1_555
Cu3_4 N4_13 1_555 1_555
C4_13 C5_13 1_555 1_555
C20_13 C21_13 1_555 1_555
C25_13 C26_13 1_555 1_555
N5_6 C14_14 1_555 1_555
C14_14 H10_14 1_555 1_555
C15_14 C14_14 1_555 1_555
H11_14 C15_14 1_555 1_555
C16_14 C15_14 1_555 1_555
C20_14 C19_14 1_555 1_555
H14_14 C20_14 1_555 1_555
C24_14 C23_14 1_555 1_555
H16_14 C24_14 1_555 1_555
C16_14 C19_14 1_555 1_555
H3_13 C4_14 1_555 1_555
H4_14 C5_14 1_555 1_555
C22_14 C21_14 1_555 1_555
C25_14 N4_14 1_555 1_555
H17_14 C25_14 1_555 1_555
C26_14 C22_14 1_555 1_555
H18_14 C26_14 1_555 1_555
Cu4_3 N4_14 1_555 1_555
C4_14 C5_14 1_555 1_555
C25_14 C26_14 1_555 1_555
C9_14 C8_14 1_555 1_555
C12_14 N7_7 1_555 1_555
H8_14 C12_14 1_555 1_555
C13_14 C9_14 1_555 1_555
H9_14 C13_14 1_555 1_555
H12_13 C17_14 1_555 1_555
H13_14 C18_14 1_555 1_555
C12_14 C13_14 1_555 1_555
C17_14 C18_14 1_555 1_555
N1_14 C1_14 1_555 1_555
C1_14 H1_14 1_555 1_555
C2_14 C1_14 1_555 1_555
H2_14 C2_14 1_555 1_555
C3_14 C2_14 1_555 1_555
C6_14 C3_14 1_555 1_555
C7_14 C6_14 1_555 1_555
H5_14 C7_14 1_555 1_555
C11_14 C10_14 1_555 1_555
H7_14 C11_14 1_555 1_555
Cu3_3 N1_14 1_555 1_555
N1_15 C1_15 1_555 1_555
N7_4 C11_15 1_555 1_555
C1_15 H1_15 1_555 1_555
C2_15 C1_15 1_555 1_555
H2_15 C2_15 1_555 1_555
C3_15 C2_15 1_555 1_555
C4_15 C3_15 1_555 1_555
H3_14 C4_15 1_555 1_555
C5_15 N1_15 1_555 1_555
H4_15 C5_15 1_555 1_555
C6_15 C3_15 1_555 1_555
C7_15 C6_15 1_555 1_555
H5_15 C7_15 1_555 1_555
C8_15 C7_15 1_555 1_555
C9_15 C8_15 1_555 1_555
C10_15 C9_15 1_555 1_555
H6_14 C10_15 1_555 1_555
C11_15 C10_15 1_555 1_555
H7_15 C11_15 1_555 1_555
C12_15 N7_4 1_555 1_555
H8_15 C12_15 1_555 1_555
C13_15 C9_15 1_555 1_555
H9_15 C13_15 1_555 1_555
N5 C14_15 1_555 1_555
N4_15 C24_15 1_555 1_555
C14_15 H10_15 1_555 1_555
C15_15 C14_15 1_555 1_555
H11_15 C15_15 1_555 1_555
C16_15 C15_15 1_555 1_555
C17_15 C16_15 1_555 1_555
H12_14 C17_15 1_555 1_555
C18_15 N5 1_555 1_555
H13_15 C18_15 1_555 1_555
C19_15 C8_15 1_555 1_555
C20_15 C19_15 1_555 1_555
H14_15 C20_15 1_555 1_555
C21_15 C6_15 1_555 1_555
C22_15 C21_15 1_555 1_555
C23_15 C22_15 1_555 1_555
H15_14 C23_15 1_555 1_555
C24_15 C23_15 1_555 1_555
H16_15 C24_15 1_555 1_555
C25_15 N4_15 1_555 1_555
H17_15 C25_15 1_555 1_555
C26_15 C22_15 1_555 1_555
H18_15 C26_15 1_555 1_555
Cu3_5 N4_15 1_555 1_555
Cu4_2 N1_15 1_555 1_555
C4_15 C5_15 1_555 1_555
C12_15 C13_15 1_555 1_555
C16_15 C19_15 1_555 1_555
C17_15 C18_15 1_555 1_555
C20_15 C21_15 1_555 1_555
C25_15 C26_15 1_555 1_555
N1_16 C1_16 1_555 1_555
N7_8 C11_16 1_555 1_555
C1_16 H1_16 1_555 1_555
C2_16 C1_16 1_555 1_555
H2_16 C2_16 1_555 1_555
C3_16 C2_16 1_555 1_555
C4_16 C3_16 1_555 1_555
H3_15 C4_16 1_555 1_555
C5_16 N1_16 1_555 1_555
H4_16 C5_16 1_555 1_555
C6_16 C3_16 1_555 1_555
C7_16 C6_16 1_555 1_555
H5_16 C7_16 1_555 1_555
C8_16 C7_16 1_555 1_555
C9_16 C8_16 1_555 1_555
C10_16 C9_16 1_555 1_555
H6_15 C10_16 1_555 1_555
C11_16 C10_16 1_555 1_555
H7_16 C11_16 1_555 1_555
C12_16 N7_8 1_555 1_555
H8_16 C12_16 1_555 1_555
C13_16 C9_16 1_555 1_555
H9_16 C13_16 1_555 1_555
N5_3 C14_16 1_555 1_555
N4_16 C24_16 1_555 1_555
C14_16 H10_16 1_555 1_555
C15_16 C14_16 1_555 1_555
H11_16 C15_16 1_555 1_555
C16_16 C15_16 1_555 1_555
C17_16 C16_16 1_555 1_555
H12_15 C17_16 1_555 1_555
C18_16 N5_3 1_555 1_555
H13_16 C18_16 1_555 1_555
C19_16 C8_16 1_555 1_555
C20_16 C19_16 1_555 1_555
H14_16 C20_16 1_555 1_555
C21_16 C6_16 1_555 1_555
C22_16 C21_16 1_555 1_555
C23_16 C22_16 1_555 1_555
H15_15 C23_16 1_555 1_555
C24_16 C23_16 1_555 1_555
H16_16 C24_16 1_555 1_555
C25_16 N4_16 1_555 1_555
H17_16 C25_16 1_555 1_555
C26_16 C22_16 1_555 1_555
H18_16 C26_16 1_555 1_555
Cu4_4 N4_16 1_555 1_555
Cu3_7 N1_16 1_555 1_555
C4_16 C5_16 1_555 1_555
C12_16 C13_16 1_555 1_555
C16_16 C19_16 1_555 1_555
C17_16 C18_16 1_555 1_555
C20_16 C21_16 1_555 1_555
C25_16 C26_16 1_555 1_555
C27 H19 1_555 1_555
H20 C27 1_555 1_555
C28 H21 1_555 1_555
H22 C28 1_555 1_555
H23 C28 1_555 1_555
H24 N8 1_555 1_555
H25 N8 1_555 1_555
C28 N8 1_555 1_555
C27_2 H19_2 1_555 1_555
H20_2 C27_2 1_555 1_555
C28_2 H21_2 1_555 1_555
H22_2 C28_2 1_555 1_555
H23_2 C28_2 1_555 1_555
N8_2 C27_2 1_555 1_555
H24_2 N8_2 1_555 1_555
H25_2 N8_2 1_555 1_555
C28_2 N8_2 1_555 1_555
C27_2 H26_2 1_555 1_555
C27_3 H19_3 1_555 1_555
H20_3 C27_3 1_555 1_555
C28_3 H21_3 1_555 1_555
H22_3 C28_3 1_555 1_555
H23_3 C28_3 1_555 1_555
H24_3 N8_3 1_555 1_555
H25_3 N8_3 1_555 1_555
C28_3 N8_3 1_555 1_555
C27_4 H19_4 1_555 1_555
H20_4 C27_4 1_555 1_555
C28_4 H21_4 1_555 1_555
H22_4 C28_4 1_555 1_555
H23_4 C28_4 1_555 1_555
N8_4 C27_4 1_555 1_555
H24_4 N8_4 1_555 1_555
H25_4 N8_4 1_555 1_555
C28_4 N8_4 1_555 1_555
C27_4 H26_4 1_555 1_555
C27_5 H19_5 1_555 1_555
H20_5 C27_5 1_555 1_555
C28_5 H21_5 1_555 1_555
H22_5 C28_5 1_555 1_555
H23_5 C28_5 1_555 1_555
N8_5 C27_5 1_555 1_555
H24_5 N8_5 1_555 1_555
H25_5 N8_5 1_555 1_555
C28_5 N8_5 1_555 1_555
C27_5 H26_5 1_555 1_555
C28_6 H21_6 1_555 1_555
H22_6 C28_6 1_555 1_555
H23_6 C28_6 1_555 1_555
H24_6 N8_6 1_555 1_555
H25_6 N8_6 1_555 1_555
C28_6 N8_6 1_555 1_555
C27_6 H19_6 1_555 1_555
H20_6 C27_6 1_555 1_555
C27_7 H19_7 1_555 1_555
H20_7 C27_7 1_555 1_555
C28_7 H21_7 1_555 1_555
H22_7 C28_7 1_555 1_555
H23_7 C28_7 1_555 1_555
N8_7 C27_7 1_555 1_555
H24_7 N8_7 1_555 1_555
H25_7 N8_7 1_555 1_555
C28_7 N8_7 1_555 1_555
C27_7 H26_7 1_555 1_555
C27_8 H19_8 1_555 1_555
H20_8 C27_8 1_555 1_555
C28_8 H21_8 1_555 1_555
H22_8 C28_8 1_555 1_555
H23_8 C28_8 1_555 1_555
N8_8 C27_8 1_555 1_555
H24_8 N8_8 1_555 1_555
H25_8 N8_8 1_555 1_555
C28_8 N8_8 1_555 1_555
C27_8 H26_8 1_555 1_555
C27_9 H19_9 1_555 1_555
H20_9 C27_9 1_555 1_555
C28_9 H21_9 1_555 1_555
H22_9 C28_9 1_555 1_555
H23_9 C28_9 1_555 1_555
N8_9 C27_9 1_555 1_555
H24_9 N8_9 1_555 1_555
H25_9 N8_9 1_555 1_555
C28_9 N8_9 1_555 1_555
C27_9 H26_9 1_555 1_555
C27_10 H19_10 1_555 1_555
H20_10 C27_10 1_555 1_555
C28_10 H21_10 1_555 1_555
H22_10 C28_10 1_555 1_555
H23_10 C28_10 1_555 1_555
N8_10 C27_10 1_555 1_555
H24_10 N8_10 1_555 1_555
H25_10 N8_10 1_555 1_555
C28_10 N8_10 1_555 1_555
C27_10 H26_10 1_555 1_555
C27_11 H19_11 1_555 1_555
H20_11 C27_11 1_555 1_555
C28_11 H21_11 1_555 1_555
H22_11 C28_11 1_555 1_555
H23_11 C28_11 1_555 1_555
N8_11 C27_11 1_555 1_555
H24_11 N8_11 1_555 1_555
H25_11 N8_11 1_555 1_555
C28_11 N8_11 1_555 1_555
C27_11 H26_11 1_555 1_555
C27_12 H19_12 1_555 1_555
H20_12 C27_12 1_555 1_555
C28_12 H21_12 1_555 1_555
H22_12 C28_12 1_555 1_555
H23_12 C28_12 1_555 1_555
N8_12 C27_12 1_555 1_555
H24_12 N8_12 1_555 1_555
H25_12 N8_12 1_555 1_555
C28_12 N8_12 1_555 1_555
C27_12 H26_12 1_555 1_555
C28_13 H21_13 1_555 1_555
H22_13 C28_13 1_555 1_555
H23_13 C28_13 1_555 1_555
H24_13 N8_13 1_555 1_555
H25_13 N8_13 1_555 1_555
C28_13 N8_13 1_555 1_555
C27_13 H19_13 1_555 1_555
H20_13 C27_13 1_555 1_555
C27_14 H19_14 1_555 1_555
H20_14 C27_14 1_555 1_555
C28_14 H21_14 1_555 1_555
H22_14 C28_14 1_555 1_555
H23_14 C28_14 1_555 1_555
N8_14 C27_14 1_555 1_555
H24_14 N8_14 1_555 1_555
H25_14 N8_14 1_555 1_555
C28_14 N8_14 1_555 1_555
C27_14 H26_14 1_555 1_555
C27_15 H19_15 1_555 1_555
H20_15 C27_15 1_555 1_555
C28_15 H21_15 1_555 1_555
H22_15 C28_15 1_555 1_555
H23_15 C28_15 1_555 1_555
N8_15 C27_15 1_555 1_555
H24_15 N8_15 1_555 1_555
H25_15 N8_15 1_555 1_555
C28_15 N8_15 1_555 1_555
C27_15 H26_15 1_555 1_555
C27_16 H19_16 1_555 1_555
H20_16 C27_16 1_555 1_555
C28_16 H21_16 1_555 1_555
H22_16 C28_16 1_555 1_555
H23_16 C28_16 1_555 1_555
N8_16 C27_16 1_555 1_555
H24_16 N8_16 1_555 1_555
H25_16 N8_16 1_555 1_555
C28_16 N8_16 1_555 1_555
C27_16 H26_16 1_555 1_555
C28_17 H21_17 1_555 1_555
H22_17 C28_17 1_555 1_555
H23_17 C28_17 1_555 1_555
H24_17 N8_17 1_555 1_555
H25_17 N8_17 1_555 1_555
C28_17 N8_17 1_555 1_555
C27_17 H19_17 1_555 1_555
H20_17 C27_17 1_555 1_555
C27_18 H19_18 1_555 1_555
H20_18 C27_18 1_555 1_555
C28_18 H21_18 1_555 1_555
H22_18 C28_18 1_555 1_555
H23_18 C28_18 1_555 1_555
N8_18 C27_18 1_555 1_555
H24_18 N8_18 1_555 1_555
H25_18 N8_18 1_555 1_555
C28_18 N8_18 1_555 1_555
C27_18 H26_18 1_555 1_555
C28_19 H21_19 1_555 1_555
H22_19 C28_19 1_555 1_555
H23_19 C28_19 1_555 1_555
H24_19 N8_19 1_555 1_555
H25_19 N8_19 1_555 1_555
C28_19 N8_19 1_555 1_555
C27_19 H19_19 1_555 1_555
H20_19 C27_19 1_555 1_555
C27_20 H19_20 1_555 1_555
H20_20 C27_20 1_555 1_555
C28_20 H21_20 1_555 1_555
H22_20 C28_20 1_555 1_555
H23_20 C28_20 1_555 1_555
N8_20 C27_20 1_555 1_555
H24_20 N8_20 1_555 1_555
H25_20 N8_20 1_555 1_555
C28_20 N8_20 1_555 1_555
C27_20 H26_20 1_555 1_555
C27_21 H19_21 1_555 1_555
H20_21 C27_21 1_555 1_555
C28_21 H21_21 1_555 1_555
H22_21 C28_21 1_555 1_555
H23_21 C28_21 1_555 1_555
N8_21 C27_21 1_555 1_555
H24_21 N8_21 1_555 1_555
H25_21 N8_21 1_555 1_555
C28_21 N8_21 1_555 1_555
C27_21 H26_21 1_555 1_555
C27_22 H19_22 1_555 1_555
H20_22 C27_22 1_555 1_555
C28_22 H21_22 1_555 1_555
H22_22 C28_22 1_555 1_555
H23_22 C28_22 1_555 1_555
H24_22 N8_22 1_555 1_555
H25_22 N8_22 1_555 1_555
C28_22 N8_22 1_555 1_555
C27_23 H19_23 1_555 1_555
H20_23 C27_23 1_555 1_555
C28_23 H21_23 1_555 1_555
H22_23 C28_23 1_555 1_555
H23_23 C28_23 1_555 1_555
N8_23 C27_23 1_555 1_555
H24_23 N8_23 1_555 1_555
H25_23 N8_23 1_555 1_555
C28_23 N8_23 1_555 1_555
C27_23 H26_23 1_555 1_555
C27_24 H19_24 1_555 1_555
H20_24 C27_24 1_555 1_555
C28_24 H21_24 1_555 1_555
H22_24 C28_24 1_555 1_555
H23_24 C28_24 1_555 1_555
N8_24 C27_24 1_555 1_555
H24_24 N8_24 1_555 1_555
H25_24 N8_24 1_555 1_555
C28_24 N8_24 1_555 1_555
C27_24 H26_24 1_555 1_555
C27_25 H19_25 1_555 1_555
H20_25 C27_25 1_555 1_555
C28_25 H21_25 1_555 1_555
H22_25 C28_25 1_555 1_555
H23_25 C28_25 1_555 1_555
N8_25 C27_25 1_555 1_555
H24_25 N8_25 1_555 1_555
H25_25 N8_25 1_555 1_555
C28_25 N8_25 1_555 1_555
C27_25 H26_25 1_555 1_555
C27_26 H19_26 1_555 1_555
H20_26 C27_26 1_555 1_555
C28_26 H21_26 1_555 1_555
H22_26 C28_26 1_555 1_555
H23_26 C28_26 1_555 1_555
N8_26 C27_26 1_555 1_555
H24_26 N8_26 1_555 1_555
H25_26 N8_26 1_555 1_555
C28_26 N8_26 1_555 1_555
C27_26 H26_26 1_555 1_555
C27_27 H19_27 1_555 1_555
H20_27 C27_27 1_555 1_555
C28_27 H21_27 1_555 1_555
H22_27 C28_27 1_555 1_555
H23_27 C28_27 1_555 1_555
N8_27 C27_27 1_555 1_555
H24_27 N8_27 1_555 1_555
H25_27 N8_27 1_555 1_555
C28_27 N8_27 1_555 1_555
C27_27 H26_27 1_555 1_555
C27_28 H19_28 1_555 1_555
H20_28 C27_28 1_555 1_555
C28_28 H21_28 1_555 1_555
H22_28 C28_28 1_555 1_555
H23_28 C28_28 1_555 1_555
N8_28 C27_28 1_555 1_555
H24_28 N8_28 1_555 1_555
H25_28 N8_28 1_555 1_555
C28_28 N8_28 1_555 1_555
C27_28 H26_28 1_555 1_555
C27_29 H19_29 1_555 1_555
H20_29 C27_29 1_555 1_555
C28_29 H21_29 1_555 1_555
H22_29 C28_29 1_555 1_555
H23_29 C28_29 1_555 1_555
H24_29 N8_29 1_555 1_555
H25_29 N8_29 1_555 1_555
C28_29 N8_29 1_555 1_555
C27_30 H19_30 1_555 1_555
H20_30 C27_30 1_555 1_555
C28_30 H21_30 1_555 1_555
H22_30 C28_30 1_555 1_555
H23_30 C28_30 1_555 1_555
N8_30 C27_30 1_555 1_555
H24_30 N8_30 1_555 1_555
H25_30 N8_30 1_555 1_555
C28_30 N8_30 1_555 1_555
C27_30 H26_30 1_555 1_555
C27_31 H19_31 1_555 1_555
H20_31 C27_31 1_555 1_555
C28_31 H21_31 1_555 1_555
H22_31 C28_31 1_555 1_555
H23_31 C28_31 1_555 1_555
N8_31 C27_31 1_555 1_555
H24_31 N8_31 1_555 1_555
H25_31 N8_31 1_555 1_555
C28_31 N8_31 1_555 1_555
C27_31 H26_31 1_555 1_555
C27_32 H19_32 1_555 1_555
H20_32 C27_32 1_555 1_555
C28_32 H21_32 1_555 1_555
H22_32 C28_32 1_555 1_555
H23_32 C28_32 1_555 1_555
N8_32 C27_32 1_555 1_555
H24_32 N8_32 1_555 1_555
H25_32 N8_32 1_555 1_555
C28_32 N8_32 1_555 1_555
C27_32 H26_32 1_555 1_555
W1 O4 1_555 1_555
W2 O1 1_555 1_555
W3 O8 1_555 1_555
P1 O7 1_555 1_555
O2 W2 1_555 1_555
O3 W2 1_555 1_555
O4 W2 1_555 1_555
O5 W1 1_555 1_555
O6 W1 1_555 1_555
O7 W1 1_555 1_555
O8 W2 1_555 1_555
O9 W3 1_555 1_555
O10 W3 1_555 1_555
O11 P1 1_555 1_555
O12 W3 1_555 1_555
O13 P1 1_555 1_555
W4 O11 1_555 1_555
W5 O11 1_555 1_555
W6 O13 1_555 1_555
O14 W5 1_555 1_555
O15 W5 1_555 1_555
O16 W5 1_555 1_555
O17 W4 1_555 1_555
O18 W4 1_555 1_555
O19 W4 1_555 1_555
O20 W5 1_555 1_555
O21 W6 1_555 1_555
O22 W6 1_555 1_555
W7 O10 1_555 1_555
W8 O12 1_555 1_555
W9 O6 1_555 1_555
O23 W8 1_555 1_555
O24 W3 1_555 1_555
O25 W1 1_555 1_555
O26 W7 1_555 1_555
O27 W7 1_555 1_555
O28 W6 1_555 1_555
O29 W8 1_555 1_555
O30 W9 1_555 1_555
O31 W4 1_555 1_555
W10 O3 1_555 1_555
W11 O13 1_555 1_555
W12 O2 1_555 1_555
O32 W11 1_555 1_555
O33 W6 1_555 1_555
O34 W4 1_555 1_555
O35 W10 1_555 1_555
O36 W10 1_555 1_555
O37 W3 1_555 1_555
O38 W11 1_555 1_555
O39 W12 1_555 1_555
O40 W1 1_555 1_555
W2 O7 1_555 1_555
P1 O12 1_555 1_555
O7 W12 1_555 1_555
O11 W9 1_555 1_555
O12 W7 1_555 1_555
O13 W10 1_555 1_555
W5 O17 1_555 1_555
W6 O20 1_555 1_555
O15 W9 1_555 1_555
O16 W7 1_555 1_555
O19 W12 1_555 1_555
O22 W10 1_555 1_555
W7 O28 1_555 1_555
W8 O24 1_555 1_555
W8 O25 1_555 1_555
W8 O26 1_555 1_555
W9 O29 1_555 1_555
W9 O31 1_555 1_555
W10 O37 1_555 1_555
W11 O33 1_555 1_555
W11 O34 1_555 1_555
W11 O35 1_555 1_555
W12 O38 1_555 1_555
W12 O40 1_555 1_555
W2_2 O1_2 1_555 1_555
P1_2 O7_2 1_555 1_555
O2_2 W2_2 1_555 1_555
O3_2 W2_2 1_555 1_555
O4_2 W2_2 1_555 1_555
O8_2 W2_2 1_555 1_555
O13_2 P1_2 1_555 1_555
W6_2 O13_2 1_555 1_555
O18_2 W4_2 1_555 1_555
O19_2 W4_2 1_555 1_555
O22_2 W6_2 1_555 1_555
W10_2 O3_2 1_555 1_555
W11_2 O13_2 1_555 1_555
W12_2 O2_2 1_555 1_555
O32_2 W11_2 1_555 1_555
O33_2 W6_2 1_555 1_555
O34_2 W4_2 1_555 1_555
O35_2 W10_2 1_555 1_555
O38_2 W11_2 1_555 1_555
O39_2 W12_2 1_555 1_555
W2_2 O7_2 1_555 1_555
O7_2 W12_2 1_555 1_555
O13_2 W10_2 1_555 1_555
O19_2 W12_2 1_555 1_555
O22_2 W10_2 1_555 1_555
W10_2 O37_2 1_555 1_555
W11_2 O33_2 1_555 1_555
W11_2 O34_2 1_555 1_555
W11_2 O35_2 1_555 1_555
W12_2 O38_2 1_555 1_555
W12_2 O40_2 1_555 1_555
O5_2 W1_2 1_555 1_555
O6_2 W1_2 1_555 1_555
O10_2 W3_2 1_555 1_555
O11_2 P1_3 1_555 1_555
O12_2 W3_2 1_555 1_555
W5_2 O11_2 1_555 1_555
O14_2 W5_2 1_555 1_555
O15_2 W5_2 1_555 1_555
O16_2 W5_2 1_555 1_555
O20_2 W5_2 1_555 1_555
W7_2 O10_2 1_555 1_555
W8_2 O12_2 1_555 1_555
W9_2 O6_2 1_555 1_555
O23_2 W8_2 1_555 1_555
O24_2 W3_2 1_555 1_555
O25_2 W1_2 1_555 1_555
O26_2 W7_2 1_555 1_555
O29_2 W8_2 1_555 1_555
O30_2 W9_2 1_555 1_555
P1_3 O12_2 1_555 1_555
O11_2 W9_2 1_555 1_555
O12_2 W7_2 1_555 1_555
W5_2 O17_2 1_555 1_555
O15_2 W9_2 1_555 1_555
O16_2 W7_2 1_555 1_555
W7_2 O28_2 1_555 1_555
W8_2 O24_2 1_555 1_555
W8_2 O25_2 1_555 1_555
W8_2 O26_2 1_555 1_555
W9_2 O29_2 1_555 1_555
W9_2 O31_2 1_555 1_555
W1_3 O4_3 1_555 1_555
W2_3 O1_3 1_555 1_555
W3_3 O8_3 1_555 1_555
P1_4 O7_3 1_555 1_555
O2_3 W2_3 1_555 1_555
O3_3 W2_3 1_555 1_555
O4_3 W2_3 1_555 1_555
O5_3 W1_3 1_555 1_555
O6_3 W1_3 1_555 1_555
O7_3 W1_3 1_555 1_555
O8_3 W2_3 1_555 1_555
O9_3 W3_3 1_555 1_555
O10_3 W3_3 1_555 1_555
O11_3 P1_4 1_555 1_555
O12_3 W3_3 1_555 1_555
O13_3 P1_4 1_555 1_555
W4_3 O11_3 1_555 1_555
W5_3 O11_3 1_555 1_555
W6_3 O13_3 1_555 1_555
O14_3 W5_3 1_555 1_555
O15_3 W5_3 1_555 1_555
O16_3 W5_3 1_555 1_555
O17_3 W4_3 1_555 1_555
O18_3 W4_3 1_555 1_555
O19_3 W4_3 1_555 1_555
O20_3 W5_3 1_555 1_555
O21_3 W6_3 1_555 1_555
O22_3 W6_3 1_555 1_555
W7_3 O10_3 1_555 1_555
W8_3 O12_3 1_555 1_555
W9_3 O6_3 1_555 1_555
O23_3 W8_3 1_555 1_555
O24_3 W3_3 1_555 1_555
O25_3 W1_3 1_555 1_555
O26_3 W7_3 1_555 1_555
O27_3 W7_3 1_555 1_555
O28_3 W6_3 1_555 1_555
O29_3 W8_3 1_555 1_555
O30_3 W9_3 1_555 1_555
O31_3 W4_3 1_555 1_555
W10_3 O3_3 1_555 1_555
W11_3 O13_3 1_555 1_555
W12_3 O2_3 1_555 1_555
O32_3 W11_3 1_555 1_555
O33_3 W6_3 1_555 1_555
O34_3 W4_3 1_555 1_555
O35_3 W10_3 1_555 1_555
O36_3 W10_3 1_555 1_555
O37_3 W3_3 1_555 1_555
O38_3 W11_3 1_555 1_555
O39_3 W12_3 1_555 1_555
O40_3 W1_3 1_555 1_555
W2_3 O7_3 1_555 1_555
P1_4 O12_3 1_555 1_555
O7_3 W12_3 1_555 1_555
O11_3 W9_3 1_555 1_555
O12_3 W7_3 1_555 1_555
O13_3 W10_3 1_555 1_555
W5_3 O17_3 1_555 1_555
W6_3 O20_3 1_555 1_555
O15_3 W9_3 1_555 1_555
O16_3 W7_3 1_555 1_555
O19_3 W12_3 1_555 1_555
O22_3 W10_3 1_555 1_555
W7_3 O28_3 1_555 1_555
W8_3 O24_3 1_555 1_555
W8_3 O25_3 1_555 1_555
W8_3 O26_3 1_555 1_555
W9_3 O29_3 1_555 1_555
W9_3 O31_3 1_555 1_555
W10_3 O37_3 1_555 1_555
W11_3 O33_3 1_555 1_555
W11_3 O34_3 1_555 1_555
W11_3 O35_3 1_555 1_555
W12_3 O38_3 1_555 1_555
W12_3 O40_3 1_555 1_555
W1_4 O4_4 1_555 1_555
W2_4 O1_4 1_555 1_555
W3_4 O8_4 1_555 1_555
P1_5 O7_4 1_555 1_555
O2_4 W2_4 1_555 1_555
O3_4 W2_4 1_555 1_555
O4_4 W2_4 1_555 1_555
O6_4 W1_4 1_555 1_555
O7_4 W1_4 1_555 1_555
O8_4 W2_4 1_555 1_555
O9_4 W3_4 1_555 1_555
O10_4 W3_4 1_555 1_555
O11_4 P1_5 1_555 1_555
O12_4 W3_4 1_555 1_555
O13_4 P1_5 1_555 1_555
W4_4 O11_4 1_555 1_555
W5_4 O11_4 1_555 1_555
W6_4 O13_4 1_555 1_555
O14_4 W5_4 1_555 1_555
O15_4 W5_4 1_555 1_555
O16_4 W5_4 1_555 1_555
O17_4 W4_4 1_555 1_555
O19_4 W4_4 1_555 1_555
O20_4 W5_4 1_555 1_555
O21_4 W6_4 1_555 1_555
O22_4 W6_4 1_555 1_555
W7_4 O10_4 1_555 1_555
W8_4 O12_4 1_555 1_555
W9_4 O6_4 1_555 1_555
O23_4 W8_4 1_555 1_555
O24_4 W3_4 1_555 1_555
O25_4 W1_4 1_555 1_555
O26_4 W7_4 1_555 1_555
O27_4 W7_4 1_555 1_555
O28_4 W6_4 1_555 1_555
O29_4 W8_4 1_555 1_555
O31_4 W4_4 1_555 1_555
W10_4 O3_4 1_555 1_555
W11_4 O13_4 1_555 1_555
W12_4 O2_4 1_555 1_555
O32_4 W11_4 1_555 1_555
O33_4 W6_4 1_555 1_555
O34_4 W4_4 1_555 1_555
O35_4 W10_4 1_555 1_555
O36_4 W10_4 1_555 1_555
O37_4 W3_4 1_555 1_555
O38_4 W11_4 1_555 1_555
O40_4 W1_4 1_555 1_555
W2_4 O7_4 1_555 1_555
P1_5 O12_4 1_555 1_555
O7_4 W12_4 1_555 1_555
O11_4 W9_4 1_555 1_555
O12_4 W7_4 1_555 1_555
O13_4 W10_4 1_555 1_555
W5_4 O17_4 1_555 1_555
W6_4 O20_4 1_555 1_555
O15_4 W9_4 1_555 1_555
O16_4 W7_4 1_555 1_555
O19_4 W12_4 1_555 1_555
O22_4 W10_4 1_555 1_555
W7_4 O28_4 1_555 1_555
W8_4 O24_4 1_555 1_555
W8_4 O25_4 1_555 1_555
W8_4 O26_4 1_555 1_555
W9_4 O29_4 1_555 1_555
W9_4 O31_4 1_555 1_555
W10_4 O37_4 1_555 1_555
W11_4 O33_4 1_555 1_555
W11_4 O34_4 1_555 1_555
W11_4 O35_4 1_555 1_555
W12_4 O38_4 1_555 1_555
W12_4 O40_4 1_555 1_555
O11_5 P1_6 1_555 1_555
O13_5 P1_6 1_555 1_555
W4_5 O11_5 1_555 1_555
W5_5 O11_5 1_555 1_555
W6_5 O13_5 1_555 1_555
O14_5 W5_5 1_555 1_555
O15_5 W5_5 1_555 1_555
O16_5 W5_5 1_555 1_555
O17_5 W4_5 1_555 1_555
O18_5 W4_5 1_555 1_555
O19_5 W4_5 1_555 1_555
O20_5 W5_5 1_555 1_555
O21_5 W6_5 1_555 1_555
O22_5 W6_5 1_555 1_555
O27_5 W7_5 1_555 1_555
O28_5 W6_5 1_555 1_555
O30_5 W9_5 1_555 1_555
O31_5 W4_5 1_555 1_555
W11_5 O13_5 1_555 1_555
O32_5 W11_5 1_555 1_555
O33_5 W6_5 1_555 1_555
O34_5 W4_5 1_555 1_555
O38_5 W11_5 1_555 1_555
O11_5 W9_5 1_555 1_555
W5_5 O17_5 1_555 1_555
W6_5 O20_5 1_555 1_555
O15_5 W9_5 1_555 1_555
O16_5 W7_5 1_555 1_555
W7_5 O28_5 1_555 1_555
W9_5 O31_5 1_555 1_555
W11_5 O33_5 1_555 1_555
W11_5 O34_5 1_555 1_555
W11_5 O35_5 1_555 1_555
W1_5 O4_5 1_555 1_555
W2_5 O1_5 1_555 1_555
W3_5 O8_5 1_555 1_555
P1_7 O7_5 1_555 1_555
O2_5 W2_5 1_555 1_555
O3_5 W2_5 1_555 1_555
O4_5 W2_5 1_555 1_555
O5_5 W1_5 1_555 1_555
O6_5 W1_5 1_555 1_555
O7_5 W1_5 1_555 1_555
O8_5 W2_5 1_555 1_555
O9_5 W3_5 1_555 1_555
O10_5 W3_5 1_555 1_555
O12_5 W3_5 1_555 1_555
W8_5 O12_5 1_555 1_555
O23_5 W8_5 1_555 1_555
O24_5 W3_5 1_555 1_555
O25_5 W1_5 1_555 1_555
O29_5 W8_5 1_555 1_555
W10_5 O3_5 1_555 1_555
W12_5 O2_5 1_555 1_555
O36_5 W10_5 1_555 1_555
O37_5 W3_5 1_555 1_555
O39_5 W12_5 1_555 1_555
O40_5 W1_5 1_555 1_555
W2_5 O7_5 1_555 1_555
P1_7 O12_5 1_555 1_555
O7_5 W12_5 1_555 1_555
W8_5 O24_5 1_555 1_555
W8_5 O25_5 1_555 1_555
W8_5 O26_5 1_555 1_555
W10_5 O37_5 1_555 1_555
W12_5 O40_5 1_555 1_555
O5_6 W1_6 1_555 1_555
O6_6 W1_6 1_555 1_555
O9_6 W3_6 1_555 1_555
O10_6 W3_6 1_555 1_555
O11_6 P1_8 1_555 1_555
O12_6 W3_6 1_555 1_555
W5_6 O11_6 1_555 1_555
O14_6 W5_6 1_555 1_555
O15_6 W5_6 1_555 1_555
O16_6 W5_6 1_555 1_555
O20_6 W5_6 1_555 1_555
W7_6 O10_6 1_555 1_555
W8_6 O12_6 1_555 1_555
W9_6 O6_6 1_555 1_555
O23_6 W8_6 1_555 1_555
O24_6 W3_6 1_555 1_555
O25_6 W1_6 1_555 1_555
O26_6 W7_6 1_555 1_555
O27_6 W7_6 1_555 1_555
O29_6 W8_6 1_555 1_555
O30_6 W9_6 1_555 1_555
P1_8 O12_6 1_555 1_555
O11_6 W9_6 1_555 1_555
O12_6 W7_6 1_555 1_555
W5_6 O17_6 1_555 1_555
O15_6 W9_6 1_555 1_555
O16_6 W7_6 1_555 1_555
W7_6 O28_6 1_555 1_555
W8_6 O24_6 1_555 1_555
W8_6 O25_6 1_555 1_555
W8_6 O26_6 1_555 1_555
W9_6 O29_6 1_555 1_555
W9_6 O31_6 1_555 1_555
W2_6 O1_6 1_555 1_555
P1_9 O7_6 1_555 1_555
O2_6 W2_6 1_555 1_555
O3_6 W2_6 1_555 1_555
O4_6 W2_6 1_555 1_555
O8_6 W2_6 1_555 1_555
O13_6 P1_9 1_555 1_555
W6_6 O13_6 1_555 1_555
O18_6 W4_6 1_555 1_555
O19_6 W4_6 1_555 1_555
O21_6 W6_6 1_555 1_555
O22_6 W6_6 1_555 1_555
W10_6 O3_6 1_555 1_555
W11_6 O13_6 1_555 1_555
W12_6 O2_6 1_555 1_555
O32_6 W11_6 1_555 1_555
O33_6 W6_6 1_555 1_555
O34_6 W4_6 1_555 1_555
O35_6 W10_6 1_555 1_555
O36_6 W10_6 1_555 1_555
O38_6 W11_6 1_555 1_555
O39_6 W12_6 1_555 1_555
W2_6 O7_6 1_555 1_555
O7_6 W12_6 1_555 1_555
O13_6 W10_6 1_555 1_555
O19_6 W12_6 1_555 1_555
O22_6 W10_6 1_555 1_555
W10_6 O37_6 1_555 1_555
W11_6 O33_6 1_555 1_555
W11_6 O34_6 1_555 1_555
W11_6 O35_6 1_555 1_555
W12_6 O38_6 1_555 1_555
W12_6 O40_6 1_555 1_555
W1_7 O4_7 1_555 1_555
W2_7 O1_7 1_555 1_555
W3_7 O8_7 1_555 1_555
P1_10 O7_7 1_555 1_555
O2_7 W2_7 1_555 1_555
O3_7 W2_7 1_555 1_555
O4_7 W2_7 1_555 1_555
O6_7 W1_7 1_555 1_555
O7_7 W1_7 1_555 1_555
O8_7 W2_7 1_555 1_555
O9_7 W3_7 1_555 1_555
O10_7 W3_7 1_555 1_555
O12_7 W3_7 1_555 1_555
W8_7 O12_7 1_555 1_555
O23_7 W8_7 1_555 1_555
O24_7 W3_7 1_555 1_555
O25_7 W1_7 1_555 1_555
O29_7 W8_7 1_555 1_555
W10_7 O3_7 1_555 1_555
W12_7 O2_7 1_555 1_555
O36_7 W10_7 1_555 1_555
O37_7 W3_7 1_555 1_555
O40_7 W1_7 1_555 1_555
W2_7 O7_7 1_555 1_555
P1_10 O12_7 1_555 1_555
O7_7 W12_7 1_555 1_555
W8_7 O24_7 1_555 1_555
W8_7 O25_7 1_555 1_555
W8_7 O26_7 1_555 1_555
W10_7 O37_7 1_555 1_555
W12_7 O40_7 1_555 1_555
O11_7 P1_11 1_555 1_555
O13_7 P1_11 1_555 1_555
W4_7 O11_7 1_555 1_555
W5_7 O11_7 1_555 1_555
W6_7 O13_7 1_555 1_555
O14_7 W5_7 1_555 1_555
O15_7 W5_7 1_555 1_555
O16_7 W5_7 1_555 1_555
O17_7 W4_7 1_555 1_555
O19_7 W4_7 1_555 1_555
O20_7 W5_7 1_555 1_555
O21_7 W6_7 1_555 1_555
O22_7 W6_7 1_555 1_555
O27_7 W7_7 1_555 1_555
O28_7 W6_7 1_555 1_555
O31_7 W4_7 1_555 1_555
W11_7 O13_7 1_555 1_555
O32_7 W11_7 1_555 1_555
O33_7 W6_7 1_555 1_555
O34_7 W4_7 1_555 1_555
O38_7 W11_7 1_555 1_555
O11_7 W9_7 1_555 1_555
W5_7 O17_7 1_555 1_555
W6_7 O20_7 1_555 1_555
O15_7 W9_7 1_555 1_555
O16_7 W7_7 1_555 1_555
W7_7 O28_7 1_555 1_555
W9_7 O31_7 1_555 1_555
W11_7 O33_7 1_555 1_555
W11_7 O34_7 1_555 1_555
W11_7 O35_7 1_555 1_555
W1_8 O4_8 1_555 1_555
W2_8 O1_8 1_555 1_555
W3_8 O8_8 1_555 1_555
P1_12 O7_8 1_555 1_555
O2_8 W2_8 1_555 1_555
O3_8 W2_8 1_555 1_555
O4_8 W2_8 1_555 1_555
O5_8 W1_8 1_555 1_555
O6_8 W1_8 1_555 1_555
O7_8 W1_8 1_555 1_555
O8_8 W2_8 1_555 1_555
O10_8 W3_8 1_555 1_555
O11_8 P1_12 1_555 1_555
O12_8 W3_8 1_555 1_555
O13_8 P1_12 1_555 1_555
W4_8 O11_8 1_555 1_555
W5_8 O11_8 1_555 1_555
W6_8 O13_8 1_555 1_555
O14_8 W5_8 1_555 1_555
O15_8 W5_8 1_555 1_555
O16_8 W5_8 1_555 1_555
O17_8 W4_8 1_555 1_555
O18_8 W4_8 1_555 1_555
O19_8 W4_8 1_555 1_555
O20_8 W5_8 1_555 1_555
O22_8 W6_8 1_555 1_555
W7_8 O10_8 1_555 1_555
W8_8 O12_8 1_555 1_555
W9_8 O6_8 1_555 1_555
O23_8 W8_8 1_555 1_555
O24_8 W3_8 1_555 1_555
O25_8 W1_8 1_555 1_555
O26_8 W7_8 1_555 1_555
O28_8 W6_8 1_555 1_555
O29_8 W8_8 1_555 1_555
O30_8 W9_8 1_555 1_555
O31_8 W4_8 1_555 1_555
W10_8 O3_8 1_555 1_555
W11_8 O13_8 1_555 1_555
W12_8 O2_8 1_555 1_555
O32_8 W11_8 1_555 1_555
O33_8 W6_8 1_555 1_555
O34_8 W4_8 1_555 1_555
O35_8 W10_8 1_555 1_555
O37_8 W3_8 1_555 1_555
O38_8 W11_8 1_555 1_555
O39_8 W12_8 1_555 1_555
O40_8 W1_8 1_555 1_555
W2_8 O7_8 1_555 1_555
P1_12 O12_8 1_555 1_555
O7_8 W12_8 1_555 1_555
O11_8 W9_8 1_555 1_555
O12_8 W7_8 1_555 1_555
O13_8 W10_8 1_555 1_555
W5_8 O17_8 1_555 1_555
W6_8 O20_8 1_555 1_555
O15_8 W9_8 1_555 1_555
O16_8 W7_8 1_555 1_555
O19_8 W12_8 1_555 1_555
O22_8 W10_8 1_555 1_555
W7_8 O28_8 1_555 1_555
W8_8 O24_8 1_555 1_555
W8_8 O25_8 1_555 1_555
W8_8 O26_8 1_555 1_555
W9_8 O29_8 1_555 1_555
W9_8 O31_8 1_555 1_555
W10_8 O37_8 1_555 1_555
W11_8 O33_8 1_555 1_555
W11_8 O34_8 1_555 1_555
W11_8 O35_8 1_555 1_555
W12_8 O38_8 1_555 1_555
W12_8 O40_8 1_555 1_555

#END
