
###############################################################################
#
# This file contains modified crystal structure data generated from the
# MOF subset of the Cambridge Structural Database (CSD) v543 
# hosted by the Cambridge Crystallographic Data Centre (CCDC).
#
# This work is licensed under the Creative Commons
# Attribution-NonCommercial-ShareAlike 4.0 International License.
# To view a copy of this license, visit
# http://creativecommons.org/licenses/by-nc-sa/4.0/
# or send a letter to
# Creative Commons, PO Box 1866, Mountain View, CA 94042, USA.
#
# CIF created using the CSD Python API on 29 September 2022
# The structure has been converted into the P1 space group
# The structure has a 3D framework
# The original CSD entry ABEXEN is in the hexagonal crystal system
# The framework has been calculated to contain at least 10.0% void space
# The void calculation uses a probe of radius 1.32A, grid spacing 0.4
# The framework is charged, counterions have been retained in the structure
#
###############################################################################

data_ABEXEN
_chemical_formula_moiety         '(C276 H132 In18 O120 S18 18-)n'
_symmetry_cell_setting           triclinic
_symmetry_space_group_name_H-M   'P 1'
_symmetry_Int_Tables_number      1
_space_group_name_Hall           'P 1'
loop_
_symmetry_equiv_pos_site_id
_symmetry_equiv_pos_as_xyz
1 x,y,z
_cell_length_a                   25.0980(2)
_cell_length_b                   25.0980(2)
_cell_length_c                   28.4464(3)
_cell_angle_alpha                90
_cell_angle_beta                 90
_cell_angle_gamma                120
_cell_volume                     15518
loop_
_atom_site_label
_atom_site_type_symbol
_atom_site_fract_x
_atom_site_fract_y
_atom_site_fract_z
O1 O 0.06868(16) 0.38132(23) 0.0000
O4 O 0.07237(15) 0.47008(22) 0.0000
C6 C 0.0416(2) 0.4120(3) 0.0000
In2 In 0.16294(2) 0.47509(3) 0.0000
O1_2 O 0.06868(16) 0.38132(23) 1.0000
O4_2 O 0.07237(15) 0.47008(22) 1.0000
C6_2 C 0.0416(2) 0.4120(3) 1.0000
In2_2 In 0.16294(2) 0.47509(3) 1.0000
In1 In 0.31215(2) 0.83706(2) 0.0000
S1 S 0.07187(5) 0.69682(6) 0.0000
O2 O 0.20694(14) 0.79797(14) 0.0000
O3 O 0.30313(13) 0.83847(13) 0.07891(9)
C1 C 0.1990(2) 0.7446(2) 0.0000
O5 O 0.24388(14) 0.73576(15) 0.0000
O6 O 0.36359(12) 0.80673(13) 0.05136(8)
C2 C 0.33925(18) 0.81749(19) 0.08539(13)
C3 C 0.1366(2) 0.6903(2) 0.0000
C4 C 0.0255(2) 0.6190(2) 0.0000
C5 C 0.3535(2) 0.8066(2) 0.13425(13)
C7 C 0.1225(3) 0.6309(3) 0.0000
H1 H 0.1519 0.6186 0.0000
C8 C 0.0603(3) 0.5906(2) 0.0000
H2 H 0.0432 0.5481 0.0000
C9 C 0.3267(2) 0.8186(3) 0.17242(15)
H3 H 0.2976 0.8307 0.1676
C10 C 0.3936(3) 0.7852(3) 0.14190(15)
H4 H 0.4101 0.7750 0.1165
C11 C 0.3437(3) 0.8126(3) 0.21798(16)
H5 H 0.3263 0.8215 0.2435
C12 C 0.4096(3) 0.7787(3) 0.18737(15)
H6 H 0.4368 0.7642 0.1921
C13 C 0.3858(2) 0.7935(3) 0.22557(14)
O7 O 0.53534(18) 0.83847(13) 0.42109(9)
O8 O 0.44314(18) 0.80673(13) 0.44864(8)
C14 C 0.47824(26) 0.81749(19) 0.41461(13)
C15 C 0.4531(3) 0.8066(2) 0.36575(13)
C16 C 0.4919(4) 0.8186(3) 0.32758(15)
H7 H 0.5331 0.8307 0.3324
C17 C 0.3916(4) 0.7852(3) 0.35810(15)
H8 H 0.3649 0.7750 0.3835
C18 C 0.4689(4) 0.8126(3) 0.28202(16)
H9 H 0.4952 0.8215 0.2565
C19 C 0.3691(4) 0.7787(3) 0.31263(15)
H10 H 0.3274 0.7642 0.3079
C20 C 0.4077(4) 0.7935(3) 0.27443(14)
In3 In 0.52491(3) 0.83706(2) 0.5000
O9 O 0.31264(28) 0.93132(16) 0.0000
O11 O 0.39771(27) 0.92763(15) 0.0000
In1_2 In 0.31215(2) 0.83706(2) 1.0000
S1_2 S 0.07187(5) 0.69682(6) 1.0000
O2_2 O 0.20694(14) 0.79797(14) 1.0000
C1_2 C 0.1990(2) 0.7446(2) 1.0000
O5_2 O 0.24388(14) 0.73576(15) 1.0000
C3_2 C 0.1366(2) 0.6903(2) 1.0000
C4_2 C 0.0255(2) 0.6190(2) 1.0000
C7_2 C 0.1225(3) 0.6309(3) 1.0000
H1_2 H 0.1519 0.6186 1.0000
C8_2 C 0.0603(3) 0.5906(2) 1.0000
H2_2 H 0.0432 0.5481 1.0000
O9_2 O 0.31264(28) 0.93132(16) 1.0000
O10 O 0.30313(13) 0.83847(13) 0.92109(9)
O11_2 O 0.39771(27) 0.92763(15) 1.0000
O12 O 0.36359(12) 0.80673(13) 0.94864(8)
In1_3 In 0.47509(3) 0.31215(2) 0.0000
S1_3 S 0.37505(8) 0.07187(5) 0.0000
O2_3 O 0.40897(20) 0.20694(14) 0.0000
O3_2 O 0.46466(18) 0.30313(13) 0.07891(9)
C1_3 C 0.4544(3) 0.1990(2) 0.0000
O5_3 O 0.50812(21) 0.24388(14) 0.0000
O6_2 O 0.55686(18) 0.36359(12) 0.05136(8)
C2_2 C 0.52176(26) 0.33925(18) 0.08539(13)
C3_3 C 0.4463(3) 0.1366(2) 0.0000
C4_3 C 0.4065(3) 0.0255(2) 0.0000
C5_2 C 0.5469(3) 0.3535(2) 0.13425(13)
C7_3 C 0.4916(4) 0.1225(3) 0.0000
H1_3 H 0.5333 0.1519 0.0000
C8_3 C 0.4697(4) 0.0603(3) 0.0000
H2_3 H 0.4951 0.0432 0.0000
C9_2 C 0.5081(4) 0.3267(2) 0.17242(15)
H3_2 H 0.4669 0.2976 0.1676
C10_2 C 0.6084(4) 0.3936(3) 0.14190(15)
H4_2 H 0.6351 0.4101 0.1165
C11_2 C 0.5311(4) 0.3437(3) 0.21798(16)
H5_2 H 0.5048 0.3263 0.2435
C12_2 C 0.6309(4) 0.4096(3) 0.18737(15)
H6_2 H 0.6726 0.4368 0.1921
C13_2 C 0.5923(4) 0.3858(2) 0.22557(14)
O7_2 O 0.69687(22) 0.53534(18) 0.42109(9)
O8_2 O 0.63641(22) 0.44314(18) 0.44864(8)
C14_2 C 0.66075(32) 0.47824(26) 0.41461(13)
C15_2 C 0.6465(4) 0.4531(3) 0.36575(13)
C16_2 C 0.6733(5) 0.4919(4) 0.32758(15)
H7_2 H 0.7024 0.5331 0.3324
C17_2 C 0.6064(5) 0.3916(4) 0.35810(15)
H8_2 H 0.5899 0.3649 0.3835
C18_2 C 0.6563(5) 0.4689(4) 0.28202(16)
H9_2 H 0.6737 0.4952 0.2565
C19_2 C 0.5904(5) 0.3691(4) 0.31263(15)
H10_2 H 0.5632 0.3274 0.3079
C20_2 C 0.6142(5) 0.4077(4) 0.27443(14)
In3_2 In 0.68785(4) 0.52491(3) 0.5000
O9_3 O 0.38132(32) 0.31264(28) 0.0000
O11_3 O 0.47008(31) 0.39771(27) 0.0000
In1_4 In 0.47509(3) 0.31215(2) 1.0000
S1_4 S 0.37505(8) 0.07187(5) 1.0000
O2_4 O 0.40897(20) 0.20694(14) 1.0000
C1_4 C 0.4544(3) 0.1990(2) 1.0000
O5_4 O 0.50812(21) 0.24388(14) 1.0000
C3_4 C 0.4463(3) 0.1366(2) 1.0000
C4_4 C 0.4065(3) 0.0255(2) 1.0000
C7_4 C 0.4916(4) 0.1225(3) 1.0000
H1_4 H 0.5333 0.1519 1.0000
C8_4 C 0.4697(4) 0.0603(3) 1.0000
H2_4 H 0.4951 0.0432 1.0000
O9_4 O 0.38132(32) 0.31264(28) 1.0000
O10_2 O 0.46466(18) 0.30313(13) 0.92109(9)
O11_4 O 0.47008(31) 0.39771(27) 1.0000
O12_2 O 0.55686(18) 0.36359(12) 0.94864(8)
C6_3 C 0.3704(4) 0.9584(2) 0.0000
C6_4 C 0.3704(4) 0.9584(2) 1.0000
S1_5 S 0.30318(6) 0.37505(8) 0.0000
O2_5 O 0.20203(14) 0.40897(20) 0.0000
O3_3 O 0.16153(13) 0.46466(18) 0.07891(9)
C1_5 C 0.2554(2) 0.4544(3) 0.0000
O5_5 O 0.26424(15) 0.50812(21) 0.0000
O6_3 O 0.19327(13) 0.55686(18) 0.05136(8)
C2_3 C 0.18251(19) 0.52176(26) 0.08539(13)
C3_5 C 0.3097(2) 0.4463(3) 0.0000
C4_5 C 0.3810(2) 0.4065(3) 0.0000
C5_3 C 0.1934(2) 0.5469(3) 0.13425(13)
C6_5 C 0.4120(3) 0.3704(4) 0.0000
C7_5 C 0.3691(3) 0.4916(4) 0.0000
H1_5 H 0.3814 0.5333 0.0000
C8_5 C 0.4094(2) 0.4697(4) 0.0000
H2_5 H 0.4519 0.4951 0.0000
C9_3 C 0.1814(3) 0.5081(4) 0.17242(15)
H3_3 H 0.1693 0.4669 0.1676
C10_3 C 0.2148(3) 0.6084(4) 0.14190(15)
H4_3 H 0.2250 0.6351 0.1165
C11_3 C 0.1874(3) 0.5311(4) 0.21798(16)
H5_3 H 0.1785 0.5048 0.2435
C12_3 C 0.2213(3) 0.6309(4) 0.18737(15)
H6_3 H 0.2358 0.6726 0.1921
C13_3 C 0.2065(3) 0.5923(4) 0.22557(14)
O7_3 O 0.16153(13) 0.69687(22) 0.42109(9)
O8_3 O 0.19327(13) 0.63641(22) 0.44864(8)
C14_3 C 0.18251(19) 0.66075(32) 0.41461(13)
C15_3 C 0.1934(2) 0.6465(4) 0.36575(13)
C16_3 C 0.1814(3) 0.6733(5) 0.32758(15)
H7_3 H 0.1693 0.7024 0.3324
C17_3 C 0.2148(3) 0.6064(5) 0.35810(15)
H8_3 H 0.2250 0.5899 0.3835
C18_3 C 0.1874(3) 0.6563(5) 0.28202(16)
H9_3 H 0.1785 0.6737 0.2565
C19_3 C 0.2213(3) 0.5904(5) 0.31263(15)
H10_3 H 0.2358 0.5632 0.3079
C20_3 C 0.2065(3) 0.6142(5) 0.27443(14)
In3_3 In 0.16294(2) 0.68785(4) 0.5000
S1_6 S 0.30318(6) 0.37505(8) 1.0000
O2_6 O 0.20203(14) 0.40897(20) 1.0000
C1_6 C 0.2554(2) 0.4544(3) 1.0000
O5_6 O 0.26424(15) 0.50812(21) 1.0000
C3_6 C 0.3097(2) 0.4463(3) 1.0000
C4_6 C 0.3810(2) 0.4065(3) 1.0000
C6_6 C 0.4120(3) 0.3704(4) 1.0000
C7_6 C 0.3691(3) 0.4916(4) 1.0000
H1_6 H 0.3814 0.5333 1.0000
C8_6 C 0.4094(2) 0.4697(4) 1.0000
H2_6 H 0.4519 0.4951 1.0000
O10_3 O 0.16153(13) 0.46466(18) 0.92109(9)
O12_3 O 0.19327(13) 0.55686(18) 0.94864(8)
S1_7 S 0.62495(8) 0.69682(6) 0.5000
O1_3 O 0.68736(28) 0.61868(23) 0.5000
O2_7 O 0.59103(20) 0.79797(14) 0.5000
O4_3 O 0.60229(27) 0.52992(22) 0.5000
C1_7 C 0.5456(3) 0.7446(2) 0.5000
O5_7 O 0.49188(21) 0.73576(15) 0.5000
C3_7 C 0.5537(3) 0.6903(2) 0.5000
C4_7 C 0.5935(3) 0.6190(2) 0.5000
C6_7 C 0.6296(4) 0.5880(3) 0.5000
C7_7 C 0.5084(4) 0.6309(3) 0.5000
H1_7 H 0.4667 0.6186 0.5000
C8_7 C 0.5303(4) 0.5906(2) 0.5000
H2_7 H 0.5049 0.5481 0.5000
O9_5 O 0.61868(32) 0.93132(16) 0.5000
O10_4 O 0.53534(18) 0.83847(13) 0.57891(9)
O11_5 O 0.52992(31) 0.92763(15) 0.5000
O12_4 O 0.44314(18) 0.80673(13) 0.55136(8)
S1_8 S 0.30318(6) 0.92813(5) 0.5000
O2_8 O 0.20203(14) 0.79306(14) 0.5000
C1_8 C 0.2554(2) 0.8010(2) 0.5000
O5_8 O 0.26424(15) 0.75612(14) 0.5000
C3_8 C 0.3097(2) 0.8634(2) 0.5000
C4_8 C 0.3810(2) 0.9745(2) 0.5000
C7_8 C 0.3691(3) 0.8775(3) 0.5000
H1_8 H 0.3814 0.8481 0.5000
C8_8 C 0.4094(2) 0.9397(3) 0.5000
H2_8 H 0.4519 0.9568 0.5000
O9_6 O 0.06868(16) 0.68736(28) 0.5000
O10_5 O 0.16153(13) 0.69687(13) 0.57891(9)
O11_6 O 0.07237(15) 0.60229(27) 0.5000
O12_5 O 0.19327(13) 0.63641(12) 0.55136(8)
C6_8 C 0.5880(3) 0.9584(2) 0.5000
C6_9 C 0.0416(2) 0.6296(4) 0.5000
S1_9 S 0.92813(5) 0.62495(8) 0.5000
O2_9 O 0.79306(14) 0.59103(20) 0.5000
C1_9 C 0.8010(2) 0.5456(3) 0.5000
O5_9 O 0.75612(14) 0.49188(21) 0.5000
C3_9 C 0.8634(2) 0.5537(3) 0.5000
C4_9 C 0.9745(2) 0.5935(3) 0.5000
C7_9 C 0.8775(3) 0.5084(4) 0.5000
H1_9 H 0.8481 0.4667 0.5000
C8_9 C 0.9397(3) 0.5303(4) 0.5000
H2_9 H 0.9568 0.5049 0.5000
O10_6 O 0.69687(13) 0.53534(18) 0.57891(9)
O12_6 O 0.63641(12) 0.44314(18) 0.55136(8)
C2_4 C 0.33925(18) 0.81749(19) 0.91461(13)
C5_4 C 0.3535(2) 0.8066(2) 0.86575(13)
C9_4 C 0.3267(2) 0.8186(3) 0.82758(15)
H3_4 H 0.2976 0.8307 0.8324
C10_4 C 0.3936(3) 0.7852(3) 0.85810(15)
H4_4 H 0.4101 0.7750 0.8835
C11_4 C 0.3437(3) 0.8126(3) 0.78202(16)
H5_4 H 0.3263 0.8215 0.7565
C12_4 C 0.4096(3) 0.7787(3) 0.81263(15)
H6_4 H 0.4368 0.7642 0.8079
C13_4 C 0.3858(2) 0.7935(3) 0.77443(14)
C14_4 C 0.47824(26) 0.81749(19) 0.58539(13)
C15_4 C 0.4531(3) 0.8066(2) 0.63425(13)
C16_4 C 0.4919(4) 0.8186(3) 0.67242(15)
H7_4 H 0.5331 0.8307 0.6676
C17_4 C 0.3916(4) 0.7852(3) 0.64190(15)
H8_4 H 0.3649 0.7750 0.6165
C18_4 C 0.4689(4) 0.8126(3) 0.71798(16)
H9_4 H 0.4952 0.8215 0.7435
C19_4 C 0.3691(4) 0.7787(3) 0.68737(15)
H10_4 H 0.3274 0.7642 0.6921
C20_4 C 0.4077(4) 0.7935(3) 0.72557(14)
C2_5 C 0.52176(26) 0.33925(18) 0.91461(13)
C5_5 C 0.5469(3) 0.3535(2) 0.86575(13)
C9_5 C 0.5081(4) 0.3267(2) 0.82758(15)
H3_5 H 0.4669 0.2976 0.8324
C10_5 C 0.6084(4) 0.3936(3) 0.85810(15)
H4_5 H 0.6351 0.4101 0.8835
C11_5 C 0.5311(4) 0.3437(3) 0.78202(16)
H5_5 H 0.5048 0.3263 0.7565
C12_5 C 0.6309(4) 0.4096(3) 0.81263(15)
H6_5 H 0.6726 0.4368 0.8079
C13_5 C 0.5923(4) 0.3858(2) 0.77443(14)
C14_5 C 0.66075(32) 0.47824(26) 0.58539(13)
C15_5 C 0.6465(4) 0.4531(3) 0.63425(13)
C16_5 C 0.6733(5) 0.4919(4) 0.67242(15)
H7_5 H 0.7024 0.5331 0.6676
C17_5 C 0.6064(5) 0.3916(4) 0.64190(15)
H8_5 H 0.5899 0.3649 0.6165
C18_5 C 0.6563(5) 0.4689(4) 0.71798(16)
H9_5 H 0.6737 0.4952 0.7435
C19_5 C 0.5904(5) 0.3691(4) 0.68737(15)
H10_5 H 0.5632 0.3274 0.6921
C20_5 C 0.6142(5) 0.4077(4) 0.72557(14)
C2_6 C 0.18251(19) 0.52176(26) 0.91461(13)
C5_6 C 0.1934(2) 0.5469(3) 0.86575(13)
C9_6 C 0.1814(3) 0.5081(4) 0.82758(15)
H3_6 H 0.1693 0.4669 0.8324
C10_6 C 0.2148(3) 0.6084(4) 0.85810(15)
H4_6 H 0.2250 0.6351 0.8835
C11_6 C 0.1874(3) 0.5311(4) 0.78202(16)
H5_6 H 0.1785 0.5048 0.7565
C12_6 C 0.2213(3) 0.6309(4) 0.81263(15)
H6_6 H 0.2358 0.6726 0.8079
C13_6 C 0.2065(3) 0.5923(4) 0.77443(14)
C14_6 C 0.18251(19) 0.66075(32) 0.58539(13)
C15_6 C 0.1934(2) 0.6465(4) 0.63425(13)
C16_6 C 0.1814(3) 0.6733(5) 0.67242(15)
H7_6 H 0.1693 0.7024 0.6676
C17_6 C 0.2148(3) 0.6064(5) 0.64190(15)
H8_6 H 0.2250 0.5899 0.6165
C18_6 C 0.1874(3) 0.6563(5) 0.71798(16)
H9_6 H 0.1785 0.6737 0.7435
C19_6 C 0.2213(3) 0.5904(5) 0.68737(15)
H10_6 H 0.2358 0.5632 0.6921
C20_6 C 0.2065(3) 0.6142(5) 0.72557(14)
In1_5 In 0.68785(2) 0.16294(2) 0.0000
S1_10 S 0.92813(5) 0.30318(6) 0.0000
O2_10 O 0.79306(14) 0.20203(14) 0.0000
O3_4 O 0.69687(13) 0.16153(13) 0.07891(9)
C1_10 C 0.8010(2) 0.2554(2) 0.0000
O5_10 O 0.75612(14) 0.26424(15) 0.0000
O6_4 O 0.63641(12) 0.19327(13) 0.05136(8)
C2_7 C 0.66075(18) 0.18251(19) 0.08539(13)
C3_10 C 0.8634(2) 0.3097(2) 0.0000
C4_10 C 0.9745(2) 0.3810(2) 0.0000
C5_7 C 0.6465(2) 0.1934(2) 0.13425(13)
C7_10 C 0.8775(3) 0.3691(3) 0.0000
H1_10 H 0.8481 0.3814 0.0000
C8_10 C 0.9397(3) 0.4094(2) 0.0000
H2_10 H 0.9568 0.4519 0.0000
C9_7 C 0.6733(2) 0.1814(3) 0.17242(15)
H3_7 H 0.7024 0.1693 0.1676
C10_7 C 0.6064(3) 0.2148(3) 0.14190(15)
H4_7 H 0.5899 0.2250 0.1165
C11_7 C 0.6563(3) 0.1874(3) 0.21798(16)
H5_7 H 0.6737 0.1785 0.2435
C12_7 C 0.5904(3) 0.2213(3) 0.18737(15)
H6_7 H 0.5632 0.2358 0.1921
C13_7 C 0.6142(2) 0.2065(3) 0.22557(14)
O7_4 O 0.46466(18) 0.16153(13) 0.42109(9)
O8_4 O 0.55686(18) 0.19327(13) 0.44864(8)
C14_7 C 0.52176(26) 0.18251(19) 0.41461(13)
C15_7 C 0.5469(3) 0.1934(2) 0.36575(13)
C16_7 C 0.5081(4) 0.1814(3) 0.32758(15)
H7_7 H 0.4669 0.1693 0.3324
C17_7 C 0.6084(4) 0.2148(3) 0.35810(15)
H8_7 H 0.6351 0.2250 0.3835
C18_7 C 0.5311(4) 0.1874(3) 0.28202(16)
H9_7 H 0.5048 0.1785 0.2565
C19_7 C 0.6309(4) 0.2213(3) 0.31263(15)
H10_7 H 0.6726 0.2358 0.3079
C20_7 C 0.5923(4) 0.2065(3) 0.27443(14)
In3_4 In 0.47509(3) 0.16294(2) 0.5000
O9_7 O 0.68736(28) 0.06868(16) 0.0000
O11_7 O 0.60229(27) 0.07237(15) 0.0000
In1_6 In 0.68785(2) 0.16294(2) 1.0000
S1_11 S 0.92813(5) 0.30318(6) 1.0000
O2_11 O 0.79306(14) 0.20203(14) 1.0000
C1_11 C 0.8010(2) 0.2554(2) 1.0000
O5_11 O 0.75612(14) 0.26424(15) 1.0000
C3_11 C 0.8634(2) 0.3097(2) 1.0000
C4_11 C 0.9745(2) 0.3810(2) 1.0000
C7_11 C 0.8775(3) 0.3691(3) 1.0000
H1_11 H 0.8481 0.3814 1.0000
C8_11 C 0.9397(3) 0.4094(2) 1.0000
H2_11 H 0.9568 0.4519 1.0000
O9_8 O 0.68736(28) 0.06868(16) 1.0000
O10_7 O 0.69687(13) 0.16153(13) 0.92109(9)
O11_8 O 0.60229(27) 0.07237(15) 1.0000
O12_7 O 0.63641(12) 0.19327(13) 0.94864(8)
C6_10 C 0.6296(4) 0.0416(2) 0.0000
C6_11 C 0.6296(4) 0.0416(2) 1.0000
In1_7 In 0.52491(3) 0.68785(2) 0.0000
S1_12 S 0.62495(8) 0.92813(5) 0.0000
O2_12 O 0.59103(20) 0.79306(14) 0.0000
O3_5 O 0.53534(18) 0.69687(13) 0.07891(9)
C1_12 C 0.5456(3) 0.8010(2) 0.0000
O5_12 O 0.49188(21) 0.75612(14) 0.0000
O6_5 O 0.44314(18) 0.63641(12) 0.05136(8)
C2_8 C 0.47824(26) 0.66075(18) 0.08539(13)
C3_12 C 0.5537(3) 0.8634(2) 0.0000
C4_12 C 0.5935(3) 0.9745(2) 0.0000
C5_8 C 0.4531(3) 0.6465(2) 0.13425(13)
C7_12 C 0.5084(4) 0.8775(3) 0.0000
H1_12 H 0.4667 0.8481 0.0000
C8_12 C 0.5303(4) 0.9397(3) 0.0000
H2_12 H 0.5049 0.9568 0.0000
C9_8 C 0.4919(4) 0.6733(2) 0.17242(15)
H3_8 H 0.5331 0.7024 0.1676
C10_8 C 0.3916(4) 0.6064(3) 0.14190(15)
H4_8 H 0.3649 0.5899 0.1165
C11_8 C 0.4689(4) 0.6563(3) 0.21798(16)
H5_8 H 0.4952 0.6737 0.2435
C12_8 C 0.3691(4) 0.5904(3) 0.18737(15)
H6_8 H 0.3274 0.5632 0.1921
C13_8 C 0.4077(4) 0.6142(2) 0.22557(14)
O7_5 O 0.30313(22) 0.46466(18) 0.42109(9)
O8_5 O 0.36359(22) 0.55686(18) 0.44864(8)
C14_8 C 0.33925(32) 0.52176(26) 0.41461(13)
C15_8 C 0.3535(4) 0.5469(3) 0.36575(13)
C16_8 C 0.3267(5) 0.5081(4) 0.32758(15)
H7_8 H 0.2976 0.4669 0.3324
C17_8 C 0.3936(5) 0.6084(4) 0.35810(15)
H8_8 H 0.4101 0.6351 0.3835
C18_8 C 0.3437(5) 0.5311(4) 0.28202(16)
H9_8 H 0.3263 0.5048 0.2565
C19_8 C 0.4096(5) 0.6309(4) 0.31263(15)
H10_8 H 0.4368 0.6726 0.3079
C20_8 C 0.3858(5) 0.5923(4) 0.27443(14)
In3_5 In 0.31215(4) 0.47509(3) 0.5000
O9_9 O 0.61868(32) 0.68736(28) 0.0000
O11_9 O 0.52992(31) 0.60229(27) 0.0000
In1_8 In 0.52491(3) 0.68785(2) 1.0000
S1_13 S 0.62495(8) 0.92813(5) 1.0000
O2_13 O 0.59103(20) 0.79306(14) 1.0000
C1_13 C 0.5456(3) 0.8010(2) 1.0000
O5_13 O 0.49188(21) 0.75612(14) 1.0000
C3_13 C 0.5537(3) 0.8634(2) 1.0000
C4_13 C 0.5935(3) 0.9745(2) 1.0000
C7_13 C 0.5084(4) 0.8775(3) 1.0000
H1_13 H 0.4667 0.8481 1.0000
C8_13 C 0.5303(4) 0.9397(3) 1.0000
H2_13 H 0.5049 0.9568 1.0000
O9_10 O 0.61868(32) 0.68736(28) 1.0000
O10_8 O 0.53534(18) 0.69687(13) 0.92109(9)
O11_10 O 0.52992(31) 0.60229(27) 1.0000
O12_8 O 0.44314(18) 0.63641(12) 0.94864(8)
In1_9 In 0.83706(2) 0.52491(3) 0.0000
S1_14 S 0.69682(6) 0.62495(8) 0.0000
O2_14 O 0.79797(14) 0.59103(20) 0.0000
O3_6 O 0.83847(13) 0.53534(18) 0.07891(9)
C1_14 C 0.7446(2) 0.5456(3) 0.0000
O5_14 O 0.73576(15) 0.49188(21) 0.0000
O6_6 O 0.80673(13) 0.44314(18) 0.05136(8)
C2_9 C 0.81749(19) 0.47824(26) 0.08539(13)
C3_14 C 0.6903(2) 0.5537(3) 0.0000
C4_14 C 0.6190(2) 0.5935(3) 0.0000
C5_9 C 0.8066(2) 0.4531(3) 0.13425(13)
C6_12 C 0.5880(3) 0.6296(4) 0.0000
C7_14 C 0.6309(3) 0.5084(4) 0.0000
H1_14 H 0.6186 0.4667 0.0000
C8_14 C 0.5906(2) 0.5303(4) 0.0000
H2_14 H 0.5481 0.5049 0.0000
C9_9 C 0.8186(3) 0.4919(4) 0.17242(15)
H3_9 H 0.8307 0.5331 0.1676
C10_9 C 0.7852(3) 0.3916(4) 0.14190(15)
H4_9 H 0.7750 0.3649 0.1165
C11_9 C 0.8126(3) 0.4689(4) 0.21798(16)
H5_9 H 0.8215 0.4952 0.2435
C12_9 C 0.7787(3) 0.3691(4) 0.18737(15)
H6_9 H 0.7642 0.3274 0.1921
C13_9 C 0.7935(3) 0.4077(4) 0.22557(14)
O7_6 O 0.83847(13) 0.30313(22) 0.42109(9)
O8_6 O 0.80673(13) 0.36359(22) 0.44864(8)
C14_9 C 0.81749(19) 0.33925(32) 0.41461(13)
C15_9 C 0.8066(2) 0.3535(4) 0.36575(13)
C16_9 C 0.8186(3) 0.3267(5) 0.32758(15)
H7_9 H 0.8307 0.2976 0.3324
C17_9 C 0.7852(3) 0.3936(5) 0.35810(15)
H8_9 H 0.7750 0.4101 0.3835
C18_9 C 0.8126(3) 0.3437(5) 0.28202(16)
H9_9 H 0.8215 0.3263 0.2565
C19_9 C 0.7787(3) 0.4096(5) 0.31263(15)
H10_9 H 0.7642 0.4368 0.3079
C20_9 C 0.7935(3) 0.3858(5) 0.27443(14)
In3_6 In 0.83706(2) 0.31215(4) 0.5000
O9_11 O 0.93132(16) 0.61868(32) 0.0000
O11_11 O 0.92763(15) 0.52992(31) 0.0000
In1_10 In 0.83706(2) 0.52491(3) 1.0000
S1_15 S 0.69682(6) 0.62495(8) 1.0000
O2_15 O 0.79797(14) 0.59103(20) 1.0000
C1_15 C 0.7446(2) 0.5456(3) 1.0000
O5_15 O 0.73576(15) 0.49188(21) 1.0000
C3_15 C 0.6903(2) 0.5537(3) 1.0000
C4_15 C 0.6190(2) 0.5935(3) 1.0000
C6_13 C 0.5880(3) 0.6296(4) 1.0000
C7_15 C 0.6309(3) 0.5084(4) 1.0000
H1_15 H 0.6186 0.4667 1.0000
C8_15 C 0.5906(2) 0.5303(4) 1.0000
H2_15 H 0.5481 0.5049 1.0000
O9_12 O 0.93132(16) 0.61868(32) 1.0000
O10_9 O 0.83847(13) 0.53534(18) 0.92109(9)
O11_12 O 0.92763(15) 0.52992(31) 1.0000
O12_9 O 0.80673(13) 0.44314(18) 0.94864(8)
C6_14 C 0.9584(2) 0.5880(3) 0.0000
C6_15 C 0.9584(2) 0.5880(3) 1.0000
S1_16 S 0.07187(5) 0.37505(8) 0.5000
O2_16 O 0.20694(14) 0.40897(20) 0.5000
C1_16 C 0.1990(2) 0.4544(3) 0.5000
O5_16 O 0.24388(14) 0.50812(21) 0.5000
C3_16 C 0.1366(2) 0.4463(3) 0.5000
C4_16 C 0.0255(2) 0.4065(3) 0.5000
C7_16 C 0.1225(3) 0.4916(4) 0.5000
H1_16 H 0.1519 0.5333 0.5000
C8_16 C 0.0603(3) 0.4697(4) 0.5000
H2_16 H 0.0432 0.4951 0.5000
O9_13 O 0.31264(28) 0.38132(32) 0.5000
O10_10 O 0.30313(13) 0.46466(18) 0.57891(9)
O11_13 O 0.39771(27) 0.47008(31) 0.5000
O12_10 O 0.36359(12) 0.55686(18) 0.55136(8)
O1_4 O 0.93132(16) 0.31264(28) 0.5000
O4_4 O 0.92763(15) 0.39771(27) 0.5000
C6_16 C 0.9584(2) 0.3704(4) 0.5000
O1_5 O 0.38132(23) 0.06868(16) 0.5000
O4_5 O 0.47008(22) 0.07237(15) 0.5000
C6_17 C 0.4120(3) 0.0416(2) 0.5000
S1_17 S 0.69682(6) 0.07187(5) 0.5000
O2_17 O 0.79797(14) 0.20694(14) 0.5000
C1_17 C 0.7446(2) 0.1990(2) 0.5000
O5_17 O 0.73576(15) 0.24388(14) 0.5000
C3_17 C 0.6903(2) 0.1366(2) 0.5000
C4_17 C 0.6190(2) 0.0255(2) 0.5000
C7_17 C 0.6309(3) 0.1225(3) 0.5000
H1_17 H 0.6186 0.1519 0.5000
C8_17 C 0.5906(2) 0.0603(3) 0.5000
H2_17 H 0.5481 0.0432 0.5000
O10_11 O 0.83847(13) 0.30313(13) 0.57891(9)
O12_11 O 0.80673(13) 0.36359(12) 0.55136(8)
S1_18 S 0.37505(8) 0.30318(6) 0.5000
O2_18 O 0.40897(20) 0.20203(14) 0.5000
C1_18 C 0.4544(3) 0.2554(2) 0.5000
O5_18 O 0.50812(21) 0.26424(15) 0.5000
C3_18 C 0.4463(3) 0.3097(2) 0.5000
C4_18 C 0.4065(3) 0.3810(2) 0.5000
C6_18 C 0.3704(4) 0.4120(3) 0.5000
C7_18 C 0.4916(4) 0.3691(3) 0.5000
H1_18 H 0.5333 0.3814 0.5000
C8_18 C 0.4697(4) 0.4094(2) 0.5000
H2_18 H 0.4951 0.4519 0.5000
O10_12 O 0.46466(18) 0.16153(13) 0.57891(9)
O12_12 O 0.55686(18) 0.19327(13) 0.55136(8)
C2_10 C 0.66075(18) 0.18251(19) 0.91461(13)
C5_10 C 0.6465(2) 0.1934(2) 0.86575(13)
C9_10 C 0.6733(2) 0.1814(3) 0.82758(15)
H3_10 H 0.7024 0.1693 0.8324
C10_10 C 0.6064(3) 0.2148(3) 0.85810(15)
H4_10 H 0.5899 0.2250 0.8835
C11_10 C 0.6563(3) 0.1874(3) 0.78202(16)
H5_10 H 0.6737 0.1785 0.7565
C12_10 C 0.5904(3) 0.2213(3) 0.81263(15)
H6_10 H 0.5632 0.2358 0.8079
C13_10 C 0.6142(2) 0.2065(3) 0.77443(14)
C14_10 C 0.52176(26) 0.18251(19) 0.58539(13)
C15_10 C 0.5469(3) 0.1934(2) 0.63425(13)
C16_10 C 0.5081(4) 0.1814(3) 0.67242(15)
H7_10 H 0.4669 0.1693 0.6676
C17_10 C 0.6084(4) 0.2148(3) 0.64190(15)
H8_10 H 0.6351 0.2250 0.6165
C18_10 C 0.5311(4) 0.1874(3) 0.71798(16)
H9_10 H 0.5048 0.1785 0.7435
C19_10 C 0.6309(4) 0.2213(3) 0.68737(15)
H10_10 H 0.6726 0.2358 0.6921
C20_10 C 0.5923(4) 0.2065(3) 0.72557(14)
C2_11 C 0.47824(26) 0.66075(18) 0.91461(13)
C5_11 C 0.4531(3) 0.6465(2) 0.86575(13)
C9_11 C 0.4919(4) 0.6733(2) 0.82758(15)
H3_11 H 0.5331 0.7024 0.8324
C10_11 C 0.3916(4) 0.6064(3) 0.85810(15)
H4_11 H 0.3649 0.5899 0.8835
C11_11 C 0.4689(4) 0.6563(3) 0.78202(16)
H5_11 H 0.4952 0.6737 0.7565
C12_11 C 0.3691(4) 0.5904(3) 0.81263(15)
H6_11 H 0.3274 0.5632 0.8079
C13_11 C 0.4077(4) 0.6142(2) 0.77443(14)
C14_11 C 0.33925(32) 0.52176(26) 0.58539(13)
C15_11 C 0.3535(4) 0.5469(3) 0.63425(13)
C16_11 C 0.3267(5) 0.5081(4) 0.67242(15)
H7_11 H 0.2976 0.4669 0.6676
C17_11 C 0.3936(5) 0.6084(4) 0.64190(15)
H8_11 H 0.4101 0.6351 0.6165
C18_11 C 0.3437(5) 0.5311(4) 0.71798(16)
H9_11 H 0.3263 0.5048 0.7435
C19_11 C 0.4096(5) 0.6309(4) 0.68737(15)
H10_11 H 0.4368 0.6726 0.6921
C20_11 C 0.3858(5) 0.5923(4) 0.72557(14)
C2_12 C 0.81749(19) 0.47824(26) 0.91461(13)
C5_12 C 0.8066(2) 0.4531(3) 0.86575(13)
C9_12 C 0.8186(3) 0.4919(4) 0.82758(15)
H3_12 H 0.8307 0.5331 0.8324
C10_12 C 0.7852(3) 0.3916(4) 0.85810(15)
H4_12 H 0.7750 0.3649 0.8835
C11_12 C 0.8126(3) 0.4689(4) 0.78202(16)
H5_12 H 0.8215 0.4952 0.7565
C12_12 C 0.7787(3) 0.3691(4) 0.81263(15)
H6_12 H 0.7642 0.3274 0.8079
C13_12 C 0.7935(3) 0.4077(4) 0.77443(14)
C14_12 C 0.81749(19) 0.33925(32) 0.58539(13)
C15_12 C 0.8066(2) 0.3535(4) 0.63425(13)
C16_12 C 0.8186(3) 0.3267(5) 0.67242(15)
H7_12 H 0.8307 0.2976 0.6676
C17_12 C 0.7852(3) 0.3936(5) 0.64190(15)
H8_12 H 0.7750 0.4101 0.6165
C18_12 C 0.8126(3) 0.3437(5) 0.71798(16)
H9_12 H 0.8215 0.3263 0.7435
C19_12 C 0.7787(3) 0.4096(5) 0.68737(15)
H10_12 H 0.7642 0.4368 0.6921
C20_12 C 0.7935(3) 0.3858(5) 0.72557(14)
loop_
_geom_bond_atom_site_label_1
_geom_bond_atom_site_label_2
_geom_bond_site_symmetry_1
_geom_bond_site_symmetry_2
O1 C6 1_555 1_555
O4 C6 1_555 1_555
In2 O1 1_555 1_555
O4 In2 1_555 1_555
O1_2 C6_2 1_555 1_555
O4_2 C6_2 1_555 1_555
In2_2 O1_2 1_555 1_555
O4_2 In2_2 1_555 1_555
In1 O2 1_555 1_555
S1 C3 1_555 1_555
O2 C1 1_555 1_555
O3 In1 1_555 1_555
C1 O5 1_555 1_555
O5 In1 1_555 1_555
O6 In1 1_555 1_555
C2 O3 1_555 1_555
C3 C1 1_555 1_555
C4 S1 1_555 1_555
C5 C2 1_555 1_555
C7 C3 1_555 1_555
H1 C7 1_555 1_555
C8 C4 1_555 1_555
H2 C8 1_555 1_555
C9 C5 1_555 1_555
H3 C9 1_555 1_555
C10 C5 1_555 1_555
H4 C10 1_555 1_555
C11 C9 1_555 1_555
H5 C11 1_555 1_555
C12 C10 1_555 1_555
H6 C12 1_555 1_555
C13 C11 1_555 1_555
O7 C14 1_555 1_555
O8 C14 1_555 1_555
C14 C15 1_555 1_555
C15 C16 1_555 1_555
C16 H7 1_555 1_555
C17 C15 1_555 1_555
H8 C17 1_555 1_555
C18 C16 1_555 1_555
H9 C18 1_555 1_555
C19 C17 1_555 1_555
H10 C19 1_555 1_555
C20 C13 1_555 1_555
In3 O7 1_555 1_555
O9 In1 1_555 1_555
O11 In1 1_555 1_555
O6 C2 1_555 1_555
C7 C8 1_555 1_555
C12 C13 1_555 1_555
O8 In3 1_555 1_555
C18 C20 1_555 1_555
C19 C20 1_555 1_555
In1_2 O2_2 1_555 1_555
S1_2 C3_2 1_555 1_555
O2_2 C1_2 1_555 1_555
C1_2 O5_2 1_555 1_555
O5_2 In1_2 1_555 1_555
C3_2 C1_2 1_555 1_555
C4_2 S1_2 1_555 1_555
C7_2 C3_2 1_555 1_555
H1_2 C7_2 1_555 1_555
C8_2 C4_2 1_555 1_555
H2_2 C8_2 1_555 1_555
O9_2 In1_2 1_555 1_555
O10 In1_2 1_555 1_555
O11_2 In1_2 1_555 1_555
O12 In1_2 1_555 1_555
C7_2 C8_2 1_555 1_555
In1_3 O2_3 1_555 1_555
S1_3 C3_3 1_555 1_555
O2_3 C1_3 1_555 1_555
O3_2 In1_3 1_555 1_555
C1_3 O5_3 1_555 1_555
O5_3 In1_3 1_555 1_555
O6_2 In1_3 1_555 1_555
C2_2 O3_2 1_555 1_555
C3_3 C1_3 1_555 1_555
C4_3 S1_3 1_555 1_555
C5_2 C2_2 1_555 1_555
C7_3 C3_3 1_555 1_555
H1_3 C7_3 1_555 1_555
C8_3 C4_3 1_555 1_555
H2_3 C8_3 1_555 1_555
C9_2 C5_2 1_555 1_555
H3_2 C9_2 1_555 1_555
C10_2 C5_2 1_555 1_555
H4_2 C10_2 1_555 1_555
C11_2 C9_2 1_555 1_555
H5_2 C11_2 1_555 1_555
C12_2 C10_2 1_555 1_555
H6_2 C12_2 1_555 1_555
C13_2 C11_2 1_555 1_555
O7_2 C14_2 1_555 1_555
O8_2 C14_2 1_555 1_555
C14_2 C15_2 1_555 1_555
C15_2 C16_2 1_555 1_555
C16_2 H7_2 1_555 1_555
C17_2 C15_2 1_555 1_555
H8_2 C17_2 1_555 1_555
C18_2 C16_2 1_555 1_555
H9_2 C18_2 1_555 1_555
C19_2 C17_2 1_555 1_555
H10_2 C19_2 1_555 1_555
C20_2 C13_2 1_555 1_555
In3_2 O7_2 1_555 1_555
O9_3 In1_3 1_555 1_555
O11_3 In1_3 1_555 1_555
O6_2 C2_2 1_555 1_555
C7_3 C8_3 1_555 1_555
C12_2 C13_2 1_555 1_555
O8_2 In3_2 1_555 1_555
C18_2 C20_2 1_555 1_555
C19_2 C20_2 1_555 1_555
In1_4 O2_4 1_555 1_555
S1_4 C3_4 1_555 1_555
O2_4 C1_4 1_555 1_555
C1_4 O5_4 1_555 1_555
O5_4 In1_4 1_555 1_555
C3_4 C1_4 1_555 1_555
C4_4 S1_4 1_555 1_555
C7_4 C3_4 1_555 1_555
H1_4 C7_4 1_555 1_555
C8_4 C4_4 1_555 1_555
H2_4 C8_4 1_555 1_555
O9_4 In1_4 1_555 1_555
O10_2 In1_4 1_555 1_555
O11_4 In1_4 1_555 1_555
O12_2 In1_4 1_555 1_555
C7_4 C8_4 1_555 1_555
O9 C6_3 1_555 1_555
O11 C6_3 1_555 1_555
O9_2 C6_4 1_555 1_555
O11_2 C6_4 1_555 1_555
In2 O2_5 1_555 1_555
S1_5 C3_5 1_555 1_555
O9_3 C6_5 1_555 1_555
O2_5 C1_5 1_555 1_555
O3_3 In2 1_555 1_555
O11_3 C6_5 1_555 1_555
C1_5 O5_5 1_555 1_555
O5_5 In2 1_555 1_555
O6_3 In2 1_555 1_555
C2_3 O3_3 1_555 1_555
C3_5 C1_5 1_555 1_555
C4_5 S1_5 1_555 1_555
C5_3 C2_3 1_555 1_555
C6_5 C4_5 1_555 1_555
C7_5 C3_5 1_555 1_555
H1_5 C7_5 1_555 1_555
C8_5 C4_5 1_555 1_555
H2_5 C8_5 1_555 1_555
C9_3 C5_3 1_555 1_555
H3_3 C9_3 1_555 1_555
C10_3 C5_3 1_555 1_555
H4_3 C10_3 1_555 1_555
C11_3 C9_3 1_555 1_555
H5_3 C11_3 1_555 1_555
C12_3 C10_3 1_555 1_555
H6_3 C12_3 1_555 1_555
C13_3 C11_3 1_555 1_555
O7_3 C14_3 1_555 1_555
O8_3 C14_3 1_555 1_555
C14_3 C15_3 1_555 1_555
C15_3 C16_3 1_555 1_555
C16_3 H7_3 1_555 1_555
C17_3 C15_3 1_555 1_555
H8_3 C17_3 1_555 1_555
C18_3 C16_3 1_555 1_555
H9_3 C18_3 1_555 1_555
C19_3 C17_3 1_555 1_555
H10_3 C19_3 1_555 1_555
C20_3 C13_3 1_555 1_555
In3_3 O7_3 1_555 1_555
O6_3 C2_3 1_555 1_555
C7_5 C8_5 1_555 1_555
C12_3 C13_3 1_555 1_555
O8_3 In3_3 1_555 1_555
C18_3 C20_3 1_555 1_555
C19_3 C20_3 1_555 1_555
In2_2 O2_6 1_555 1_555
S1_6 C3_6 1_555 1_555
O9_4 C6_6 1_555 1_555
O2_6 C1_6 1_555 1_555
O11_4 C6_6 1_555 1_555
C1_6 O5_6 1_555 1_555
O5_6 In2_2 1_555 1_555
C3_6 C1_6 1_555 1_555
C4_6 S1_6 1_555 1_555
C6_6 C4_6 1_555 1_555
C7_6 C3_6 1_555 1_555
H1_6 C7_6 1_555 1_555
C8_6 C4_6 1_555 1_555
H2_6 C8_6 1_555 1_555
O10_3 In2_2 1_555 1_555
O12_3 In2_2 1_555 1_555
C7_6 C8_6 1_555 1_555
In3 O2_7 1_555 1_555
S1_7 C3_7 1_555 1_555
O1_3 C6_7 1_555 1_555
O2_7 C1_7 1_555 1_555
O4_3 C6_7 1_555 1_555
C1_7 O5_7 1_555 1_555
O5_7 In3 1_555 1_555
C3_7 C1_7 1_555 1_555
C4_7 S1_7 1_555 1_555
C6_7 C4_7 1_555 1_555
C7_7 C3_7 1_555 1_555
H1_7 C7_7 1_555 1_555
C8_7 C4_7 1_555 1_555
H2_7 C8_7 1_555 1_555
In3_2 O1_3 1_555 1_555
O9_5 In3 1_555 1_555
O10_4 In3 1_555 1_555
O11_5 In3 1_555 1_555
O12_4 In3 1_555 1_555
O4_3 In3_2 1_555 1_555
C7_7 C8_7 1_555 1_555
In3_3 O2_8 1_555 1_555
S1_8 C3_8 1_555 1_555
O2_8 C1_8 1_555 1_555
C1_8 O5_8 1_555 1_555
O5_8 In3_3 1_555 1_555
C3_8 C1_8 1_555 1_555
C4_8 S1_8 1_555 1_555
C7_8 C3_8 1_555 1_555
H1_8 C7_8 1_555 1_555
C8_8 C4_8 1_555 1_555
H2_8 C8_8 1_555 1_555
O9_6 In3_3 1_555 1_555
O10_5 In3_3 1_555 1_555
O11_6 In3_3 1_555 1_555
O12_5 In3_3 1_555 1_555
C7_8 C8_8 1_555 1_555
O9_5 C6_8 1_555 1_555
O11_5 C6_8 1_555 1_555
O9_6 C6_9 1_555 1_555
O11_6 C6_9 1_555 1_555
In3_2 O2_9 1_555 1_555
S1_9 C3_9 1_555 1_555
O2_9 C1_9 1_555 1_555
C1_9 O5_9 1_555 1_555
O5_9 In3_2 1_555 1_555
C3_9 C1_9 1_555 1_555
C4_9 S1_9 1_555 1_555
C7_9 C3_9 1_555 1_555
H1_9 C7_9 1_555 1_555
C8_9 C4_9 1_555 1_555
H2_9 C8_9 1_555 1_555
O10_6 In3_2 1_555 1_555
O12_6 In3_2 1_555 1_555
C7_9 C8_9 1_555 1_555
C2_4 O10 1_555 1_555
C5_4 C2_4 1_555 1_555
C9_4 C5_4 1_555 1_555
H3_4 C9_4 1_555 1_555
C10_4 C5_4 1_555 1_555
H4_4 C10_4 1_555 1_555
C11_4 C9_4 1_555 1_555
H5_4 C11_4 1_555 1_555
C12_4 C10_4 1_555 1_555
H6_4 C12_4 1_555 1_555
C13_4 C11_4 1_555 1_555
O10_4 C14_4 1_555 1_555
O12_4 C14_4 1_555 1_555
C14_4 C15_4 1_555 1_555
C15_4 C16_4 1_555 1_555
C16_4 H7_4 1_555 1_555
C17_4 C15_4 1_555 1_555
H8_4 C17_4 1_555 1_555
C18_4 C16_4 1_555 1_555
H9_4 C18_4 1_555 1_555
C19_4 C17_4 1_555 1_555
H10_4 C19_4 1_555 1_555
C20_4 C13_4 1_555 1_555
O12 C2_4 1_555 1_555
C12_4 C13_4 1_555 1_555
C18_4 C20_4 1_555 1_555
C19_4 C20_4 1_555 1_555
C2_5 O10_2 1_555 1_555
C5_5 C2_5 1_555 1_555
C9_5 C5_5 1_555 1_555
H3_5 C9_5 1_555 1_555
C10_5 C5_5 1_555 1_555
H4_5 C10_5 1_555 1_555
C11_5 C9_5 1_555 1_555
H5_5 C11_5 1_555 1_555
C12_5 C10_5 1_555 1_555
H6_5 C12_5 1_555 1_555
C13_5 C11_5 1_555 1_555
O10_6 C14_5 1_555 1_555
O12_6 C14_5 1_555 1_555
C14_5 C15_5 1_555 1_555
C15_5 C16_5 1_555 1_555
C16_5 H7_5 1_555 1_555
C17_5 C15_5 1_555 1_555
H8_5 C17_5 1_555 1_555
C18_5 C16_5 1_555 1_555
H9_5 C18_5 1_555 1_555
C19_5 C17_5 1_555 1_555
H10_5 C19_5 1_555 1_555
C20_5 C13_5 1_555 1_555
O12_2 C2_5 1_555 1_555
C12_5 C13_5 1_555 1_555
C18_5 C20_5 1_555 1_555
C19_5 C20_5 1_555 1_555
C2_6 O10_3 1_555 1_555
C5_6 C2_6 1_555 1_555
C9_6 C5_6 1_555 1_555
H3_6 C9_6 1_555 1_555
C10_6 C5_6 1_555 1_555
H4_6 C10_6 1_555 1_555
C11_6 C9_6 1_555 1_555
H5_6 C11_6 1_555 1_555
C12_6 C10_6 1_555 1_555
H6_6 C12_6 1_555 1_555
C13_6 C11_6 1_555 1_555
O10_5 C14_6 1_555 1_555
O12_5 C14_6 1_555 1_555
C14_6 C15_6 1_555 1_555
C15_6 C16_6 1_555 1_555
C16_6 H7_6 1_555 1_555
C17_6 C15_6 1_555 1_555
H8_6 C17_6 1_555 1_555
C18_6 C16_6 1_555 1_555
H9_6 C18_6 1_555 1_555
C19_6 C17_6 1_555 1_555
H10_6 C19_6 1_555 1_555
C20_6 C13_6 1_555 1_555
O12_3 C2_6 1_555 1_555
C12_6 C13_6 1_555 1_555
C18_6 C20_6 1_555 1_555
C19_6 C20_6 1_555 1_555
In1_5 O2_10 1_555 1_555
S1_10 C3_10 1_555 1_555
O2_10 C1_10 1_555 1_555
O3_4 In1_5 1_555 1_555
C1_10 O5_10 1_555 1_555
O5_10 In1_5 1_555 1_555
O6_4 In1_5 1_555 1_555
C2_7 O3_4 1_555 1_555
C3_10 C1_10 1_555 1_555
C4_10 S1_10 1_555 1_555
C5_7 C2_7 1_555 1_555
C7_10 C3_10 1_555 1_555
H1_10 C7_10 1_555 1_555
C8_10 C4_10 1_555 1_555
H2_10 C8_10 1_555 1_555
C9_7 C5_7 1_555 1_555
H3_7 C9_7 1_555 1_555
C10_7 C5_7 1_555 1_555
H4_7 C10_7 1_555 1_555
C11_7 C9_7 1_555 1_555
H5_7 C11_7 1_555 1_555
C12_7 C10_7 1_555 1_555
H6_7 C12_7 1_555 1_555
C13_7 C11_7 1_555 1_555
O7_4 C14_7 1_555 1_555
O8_4 C14_7 1_555 1_555
C14_7 C15_7 1_555 1_555
C15_7 C16_7 1_555 1_555
C16_7 H7_7 1_555 1_555
C17_7 C15_7 1_555 1_555
H8_7 C17_7 1_555 1_555
C18_7 C16_7 1_555 1_555
H9_7 C18_7 1_555 1_555
C19_7 C17_7 1_555 1_555
H10_7 C19_7 1_555 1_555
C20_7 C13_7 1_555 1_555
In3_4 O7_4 1_555 1_555
O9_7 In1_5 1_555 1_555
O11_7 In1_5 1_555 1_555
O6_4 C2_7 1_555 1_555
C7_10 C8_10 1_555 1_555
C12_7 C13_7 1_555 1_555
O8_4 In3_4 1_555 1_555
C18_7 C20_7 1_555 1_555
C19_7 C20_7 1_555 1_555
In1_6 O2_11 1_555 1_555
S1_11 C3_11 1_555 1_555
O2_11 C1_11 1_555 1_555
C1_11 O5_11 1_555 1_555
O5_11 In1_6 1_555 1_555
C3_11 C1_11 1_555 1_555
C4_11 S1_11 1_555 1_555
C7_11 C3_11 1_555 1_555
H1_11 C7_11 1_555 1_555
C8_11 C4_11 1_555 1_555
H2_11 C8_11 1_555 1_555
O9_8 In1_6 1_555 1_555
O10_7 In1_6 1_555 1_555
O11_8 In1_6 1_555 1_555
O12_7 In1_6 1_555 1_555
C7_11 C8_11 1_555 1_555
O9_7 C6_10 1_555 1_555
O11_7 C6_10 1_555 1_555
O9_8 C6_11 1_555 1_555
O11_8 C6_11 1_555 1_555
In1_7 O2_12 1_555 1_555
S1_12 C3_12 1_555 1_555
O2_12 C1_12 1_555 1_555
O3_5 In1_7 1_555 1_555
C1_12 O5_12 1_555 1_555
O5_12 In1_7 1_555 1_555
O6_5 In1_7 1_555 1_555
C2_8 O3_5 1_555 1_555
C3_12 C1_12 1_555 1_555
C4_12 S1_12 1_555 1_555
C5_8 C2_8 1_555 1_555
C7_12 C3_12 1_555 1_555
H1_12 C7_12 1_555 1_555
C8_12 C4_12 1_555 1_555
H2_12 C8_12 1_555 1_555
C9_8 C5_8 1_555 1_555
H3_8 C9_8 1_555 1_555
C10_8 C5_8 1_555 1_555
H4_8 C10_8 1_555 1_555
C11_8 C9_8 1_555 1_555
H5_8 C11_8 1_555 1_555
C12_8 C10_8 1_555 1_555
H6_8 C12_8 1_555 1_555
C13_8 C11_8 1_555 1_555
O7_5 C14_8 1_555 1_555
O8_5 C14_8 1_555 1_555
C14_8 C15_8 1_555 1_555
C15_8 C16_8 1_555 1_555
C16_8 H7_8 1_555 1_555
C17_8 C15_8 1_555 1_555
H8_8 C17_8 1_555 1_555
C18_8 C16_8 1_555 1_555
H9_8 C18_8 1_555 1_555
C19_8 C17_8 1_555 1_555
H10_8 C19_8 1_555 1_555
C20_8 C13_8 1_555 1_555
In3_5 O7_5 1_555 1_555
O9_9 In1_7 1_555 1_555
O11_9 In1_7 1_555 1_555
O6_5 C2_8 1_555 1_555
C7_12 C8_12 1_555 1_555
C12_8 C13_8 1_555 1_555
O8_5 In3_5 1_555 1_555
C18_8 C20_8 1_555 1_555
C19_8 C20_8 1_555 1_555
In1_8 O2_13 1_555 1_555
S1_13 C3_13 1_555 1_555
O2_13 C1_13 1_555 1_555
C1_13 O5_13 1_555 1_555
O5_13 In1_8 1_555 1_555
C3_13 C1_13 1_555 1_555
C4_13 S1_13 1_555 1_555
C7_13 C3_13 1_555 1_555
H1_13 C7_13 1_555 1_555
C8_13 C4_13 1_555 1_555
H2_13 C8_13 1_555 1_555
O9_10 In1_8 1_555 1_555
O10_8 In1_8 1_555 1_555
O11_10 In1_8 1_555 1_555
O12_8 In1_8 1_555 1_555
C7_13 C8_13 1_555 1_555
In1_9 O2_14 1_555 1_555
S1_14 C3_14 1_555 1_555
O9_9 C6_12 1_555 1_555
O2_14 C1_14 1_555 1_555
O3_6 In1_9 1_555 1_555
O11_9 C6_12 1_555 1_555
C1_14 O5_14 1_555 1_555
O5_14 In1_9 1_555 1_555
O6_6 In1_9 1_555 1_555
C2_9 O3_6 1_555 1_555
C3_14 C1_14 1_555 1_555
C4_14 S1_14 1_555 1_555
C5_9 C2_9 1_555 1_555
C6_12 C4_14 1_555 1_555
C7_14 C3_14 1_555 1_555
H1_14 C7_14 1_555 1_555
C8_14 C4_14 1_555 1_555
H2_14 C8_14 1_555 1_555
C9_9 C5_9 1_555 1_555
H3_9 C9_9 1_555 1_555
C10_9 C5_9 1_555 1_555
H4_9 C10_9 1_555 1_555
C11_9 C9_9 1_555 1_555
H5_9 C11_9 1_555 1_555
C12_9 C10_9 1_555 1_555
H6_9 C12_9 1_555 1_555
C13_9 C11_9 1_555 1_555
O7_6 C14_9 1_555 1_555
O8_6 C14_9 1_555 1_555
C14_9 C15_9 1_555 1_555
C15_9 C16_9 1_555 1_555
C16_9 H7_9 1_555 1_555
C17_9 C15_9 1_555 1_555
H8_9 C17_9 1_555 1_555
C18_9 C16_9 1_555 1_555
H9_9 C18_9 1_555 1_555
C19_9 C17_9 1_555 1_555
H10_9 C19_9 1_555 1_555
C20_9 C13_9 1_555 1_555
In3_6 O7_6 1_555 1_555
O9_11 In1_9 1_555 1_555
O11_11 In1_9 1_555 1_555
O6_6 C2_9 1_555 1_555
C7_14 C8_14 1_555 1_555
C12_9 C13_9 1_555 1_555
O8_6 In3_6 1_555 1_555
C18_9 C20_9 1_555 1_555
C19_9 C20_9 1_555 1_555
In1_10 O2_15 1_555 1_555
S1_15 C3_15 1_555 1_555
O9_10 C6_13 1_555 1_555
O2_15 C1_15 1_555 1_555
O11_10 C6_13 1_555 1_555
C1_15 O5_15 1_555 1_555
O5_15 In1_10 1_555 1_555
C3_15 C1_15 1_555 1_555
C4_15 S1_15 1_555 1_555
C6_13 C4_15 1_555 1_555
C7_15 C3_15 1_555 1_555
H1_15 C7_15 1_555 1_555
C8_15 C4_15 1_555 1_555
H2_15 C8_15 1_555 1_555
O9_12 In1_10 1_555 1_555
O10_9 In1_10 1_555 1_555
O11_12 In1_10 1_555 1_555
O12_9 In1_10 1_555 1_555
C7_15 C8_15 1_555 1_555
O9_11 C6_14 1_555 1_555
O11_11 C6_14 1_555 1_555
O9_12 C6_15 1_555 1_555
O11_12 C6_15 1_555 1_555
In3_5 O2_16 1_555 1_555
S1_16 C3_16 1_555 1_555
O2_16 C1_16 1_555 1_555
C1_16 O5_16 1_555 1_555
O5_16 In3_5 1_555 1_555
C3_16 C1_16 1_555 1_555
C4_16 S1_16 1_555 1_555
C7_16 C3_16 1_555 1_555
H1_16 C7_16 1_555 1_555
C8_16 C4_16 1_555 1_555
H2_16 C8_16 1_555 1_555
O9_13 In3_5 1_555 1_555
O10_10 In3_5 1_555 1_555
O11_13 In3_5 1_555 1_555
O12_10 In3_5 1_555 1_555
C7_16 C8_16 1_555 1_555
O1_4 C6_16 1_555 1_555
O4_4 C6_16 1_555 1_555
In3_6 O1_4 1_555 1_555
O4_4 In3_6 1_555 1_555
O1_5 C6_17 1_555 1_555
O4_5 C6_17 1_555 1_555
In3_4 O1_5 1_555 1_555
O4_5 In3_4 1_555 1_555
In3_6 O2_17 1_555 1_555
S1_17 C3_17 1_555 1_555
O2_17 C1_17 1_555 1_555
C1_17 O5_17 1_555 1_555
O5_17 In3_6 1_555 1_555
C3_17 C1_17 1_555 1_555
C4_17 S1_17 1_555 1_555
C7_17 C3_17 1_555 1_555
H1_17 C7_17 1_555 1_555
C8_17 C4_17 1_555 1_555
H2_17 C8_17 1_555 1_555
O10_11 In3_6 1_555 1_555
O12_11 In3_6 1_555 1_555
C7_17 C8_17 1_555 1_555
In3_4 O2_18 1_555 1_555
S1_18 C3_18 1_555 1_555
O9_13 C6_18 1_555 1_555
O2_18 C1_18 1_555 1_555
O11_13 C6_18 1_555 1_555
C1_18 O5_18 1_555 1_555
O5_18 In3_4 1_555 1_555
C3_18 C1_18 1_555 1_555
C4_18 S1_18 1_555 1_555
C6_18 C4_18 1_555 1_555
C7_18 C3_18 1_555 1_555
H1_18 C7_18 1_555 1_555
C8_18 C4_18 1_555 1_555
H2_18 C8_18 1_555 1_555
O10_12 In3_4 1_555 1_555
O12_12 In3_4 1_555 1_555
C7_18 C8_18 1_555 1_555
C2_10 O10_7 1_555 1_555
C5_10 C2_10 1_555 1_555
C9_10 C5_10 1_555 1_555
H3_10 C9_10 1_555 1_555
C10_10 C5_10 1_555 1_555
H4_10 C10_10 1_555 1_555
C11_10 C9_10 1_555 1_555
H5_10 C11_10 1_555 1_555
C12_10 C10_10 1_555 1_555
H6_10 C12_10 1_555 1_555
C13_10 C11_10 1_555 1_555
O10_12 C14_10 1_555 1_555
O12_12 C14_10 1_555 1_555
C14_10 C15_10 1_555 1_555
C15_10 C16_10 1_555 1_555
C16_10 H7_10 1_555 1_555
C17_10 C15_10 1_555 1_555
H8_10 C17_10 1_555 1_555
C18_10 C16_10 1_555 1_555
H9_10 C18_10 1_555 1_555
C19_10 C17_10 1_555 1_555
H10_10 C19_10 1_555 1_555
C20_10 C13_10 1_555 1_555
O12_7 C2_10 1_555 1_555
C12_10 C13_10 1_555 1_555
C18_10 C20_10 1_555 1_555
C19_10 C20_10 1_555 1_555
C2_11 O10_8 1_555 1_555
C5_11 C2_11 1_555 1_555
C9_11 C5_11 1_555 1_555
H3_11 C9_11 1_555 1_555
C10_11 C5_11 1_555 1_555
H4_11 C10_11 1_555 1_555
C11_11 C9_11 1_555 1_555
H5_11 C11_11 1_555 1_555
C12_11 C10_11 1_555 1_555
H6_11 C12_11 1_555 1_555
C13_11 C11_11 1_555 1_555
O10_10 C14_11 1_555 1_555
O12_10 C14_11 1_555 1_555
C14_11 C15_11 1_555 1_555
C15_11 C16_11 1_555 1_555
C16_11 H7_11 1_555 1_555
C17_11 C15_11 1_555 1_555
H8_11 C17_11 1_555 1_555
C18_11 C16_11 1_555 1_555
H9_11 C18_11 1_555 1_555
C19_11 C17_11 1_555 1_555
H10_11 C19_11 1_555 1_555
C20_11 C13_11 1_555 1_555
O12_8 C2_11 1_555 1_555
C12_11 C13_11 1_555 1_555
C18_11 C20_11 1_555 1_555
C19_11 C20_11 1_555 1_555
C2_12 O10_9 1_555 1_555
C5_12 C2_12 1_555 1_555
C9_12 C5_12 1_555 1_555
H3_12 C9_12 1_555 1_555
C10_12 C5_12 1_555 1_555
H4_12 C10_12 1_555 1_555
C11_12 C9_12 1_555 1_555
H5_12 C11_12 1_555 1_555
C12_12 C10_12 1_555 1_555
H6_12 C12_12 1_555 1_555
C13_12 C11_12 1_555 1_555
O10_11 C14_12 1_555 1_555
O12_11 C14_12 1_555 1_555
C14_12 C15_12 1_555 1_555
C15_12 C16_12 1_555 1_555
C16_12 H7_12 1_555 1_555
C17_12 C15_12 1_555 1_555
H8_12 C17_12 1_555 1_555
C18_12 C16_12 1_555 1_555
H9_12 C18_12 1_555 1_555
C19_12 C17_12 1_555 1_555
H10_12 C19_12 1_555 1_555
C20_12 C13_12 1_555 1_555
O12_9 C2_12 1_555 1_555
C12_12 C13_12 1_555 1_555
C18_12 C20_12 1_555 1_555
C19_12 C20_12 1_555 1_555

#END
