
###############################################################################
#
# This file contains modified crystal structure data generated from the
# MOF subset of the Cambridge Structural Database (CSD) v543 
# hosted by the Cambridge Crystallographic Data Centre (CCDC).
#
# This work is licensed under the Creative Commons
# Attribution-NonCommercial-ShareAlike 4.0 International License.
# To view a copy of this license, visit
# http://creativecommons.org/licenses/by-nc-sa/4.0/
# or send a letter to
# Creative Commons, PO Box 1866, Mountain View, CA 94042, USA.
#
# CIF created using the CSD Python API on 29 September 2022
# The structure has been converted into the P1 space group
# The structure has a 3D framework
# The original CSD entry ABEXIQ is in the orthorhombic crystal system
# The framework has been calculated to contain at least 10.0% void space
# The void calculation uses a probe of radius 1.32A, grid spacing 0.4
#
###############################################################################

data_ABEXIQ
_chemical_formula_moiety         '(C56 H40 Ce8 N16 O56)n'
_symmetry_cell_setting           triclinic
_symmetry_space_group_name_H-M   'P 1'
_symmetry_Int_Tables_number      1
_space_group_name_Hall           'P 1'
loop_
_symmetry_equiv_pos_site_id
_symmetry_equiv_pos_as_xyz
1 x,y,z
_cell_length_a                   12.0560(3)
_cell_length_b                   11.0360(3)
_cell_length_c                   19.5610(5)
_cell_angle_alpha                90
_cell_angle_beta                 90
_cell_angle_gamma                90
_cell_volume                     2602.59
loop_
_atom_site_label
_atom_site_type_symbol
_atom_site_fract_x
_atom_site_fract_y
_atom_site_fract_z
O3 O 0.1112(4) 0.0405(5) 0.4264(3)
O19 O 0.1609(4) 0.1659(4) 0.2911(3)
Ce1 Ce 0.15983(3) 0.63569(3) 0.12121(2)
N1 N 0.1248(5) 0.7258(6) 0.2490(4)
C1 C 0.0648(6) 0.8259(7) 0.2615(4)
H1 H 0.0101 0.8466 0.2301
N2 N 0.0780(5) 0.8983(5) 0.3163(3)
C2 C 0.1525(6) 0.8627(6) 0.3632(4)
C3 C 0.2145(6) 0.7573(6) 0.3551(4)
H2 H 0.2642 0.7314 0.3884
C4 C 0.1990(6) 0.6929(6) 0.2954(4)
C5 C 0.2741(6) 0.5855(6) 0.2776(4)
O1 O 0.2638(4) 0.5443(4) 0.2184(3)
O2 O 0.3402(4) 0.5506(5) 0.3226(3)
C6 C 0.1728(6) 0.9456(7) 0.4240(4)
O4 O 0.2417(6) 0.9140(6) 0.4647(4)
N3 N 0.0095(5) 0.5005(5) 0.1959(4)
C7 C 0.0281(6) 0.3983(7) 0.2310(4)
H3 H 0.1007 0.3699 0.2323
O13 O 0.1785(5) 0.4161(4) 0.0929(3)
O14 O 0.3422(4) 0.6154(5) 0.0599(3)
H5 H 0.1200 0.3720 0.0976
H6 H 0.2124 0.3897 0.0548
H7 H 0.3620 0.6089 0.0169
H8 H 0.3878 0.6708 0.0741
Ce7 Ce 0.47929(3) 0.38269(3) 0.33556(2)
O17 O 0.2897(4) 0.7959(4) 0.1638(3)
O20 O 0.1515(5) 0.8257(5) 0.0509(3)
O21 O 0.0778(4) 0.6108(4) 0.0047(3)
Ce2 Ce 0.97929(3) 0.11731(3) 0.33556(2)
O9 O 0.8485(5) 0.1743(5) 0.5509(3)
C13 C 0.8841(7) 0.1785(7) 0.4898(4)
O10 O 0.8823(4) 0.0926(5) 0.4478(3)
O11 O 0.9222(4) 0.3892(4) 0.5047(3)
C14 C 0.9366(7) 0.2998(7) 0.4672(4)
O12 O 0.9907(4) 0.2951(5) 0.4122(3)
O15 O 0.9592(5) 0.0789(5) 0.2095(3)
H9 H 0.9249 0.0026 0.2027
H10 H 0.9501 0.1138 0.1676
Ce3 Ce 0.84017(3) 0.36431(3) 0.62121(2)
N5 N 0.9527(5) 0.3340(6) 0.2640(4)
O18 O 0.7882(4) 0.2009(4) 0.3229(3)
C8 C 0.8472(6) 0.3747(6) 0.2602(4)
C9 C 0.8197(6) 0.4799(6) 0.2252(4)
H4 H 0.7468 0.5069 0.2220
C10 C 0.9055(6) 0.5418(6) 0.1958(4)
C11 C 0.8864(6) 0.6600(6) 0.1575(4)
O5 O 0.9663(4) 0.7088(4) 0.1267(3)
O6 O 0.7897(4) 0.7041(4) 0.1638(3)
C12 C 0.7573(6) 0.2970(7) 0.2945(4)
O8 O 0.6609(4) 0.3341(4) 0.2911(3)
Ce4 Ce 0.65983(3) 0.86431(3) 0.12121(2)
O16 O 0.8402(4) 0.9494(5) 0.3226(3)
N4 N 0.0473(5) 0.6660(6) 0.7640(4)
C8_2 C 0.1528(6) 0.6253(6) 0.7602(4)
C9_2 C 0.1803(6) 0.5201(6) 0.7252(4)
H4_2 H 0.2532 0.4931 0.7220
C10_2 C 0.0945(6) 0.4582(6) 0.6958(4)
C11_2 C 0.1136(6) 0.3400(6) 0.6575(4)
O5_2 O 0.0337(4) 0.2912(4) 0.6267(3)
O6_2 O 0.2103(4) 0.2959(4) 0.6638(3)
C12_2 C 0.2427(6) 0.7030(7) 0.7945(4)
O7 O 0.2118(4) 0.7991(4) 0.8229(3)
O8_2 O 0.3391(4) 0.6659(4) 0.7911(3)
Ce4_2 Ce 0.34017(3) 0.13569(3) 0.62121(2)
Ce5 Ce 0.02071(3) 0.88269(3) 0.83556(2)
Ce6 Ce 0.52071(3) 0.61731(3) 0.83556(2)
O16_2 O 0.1598(4) 0.0506(5) 0.8226(3)
C13_2 C 0.1159(7) 0.8215(7) 0.9898(4)
O10_2 O 0.1177(4) 0.9074(5) 0.9478(3)
C14_2 C 0.0634(7) 0.7002(7) 0.9672(4)
O12_2 O 0.0093(4) 0.7049(5) 0.9122(3)
O15_2 O 0.0408(5) 0.9211(5) 0.7095(3)
H9_2 H 0.0751 0.9974 0.7027
H10_2 H 0.0499 0.8862 0.6676
N1_2 N 0.8752(5) 0.2742(6) 0.7490(4)
C1_2 C 0.9352(6) 0.1741(7) 0.7615(4)
H1_2 H 0.9899 0.1534 0.7301
N2_2 N 0.9220(5) 0.1017(5) 0.8163(3)
C2_2 C 0.8475(6) 0.1373(6) 0.8632(4)
C3_2 C 0.7855(6) 0.2427(6) 0.8551(4)
H2_2 H 0.7358 0.2686 0.8884
C4_2 C 0.8010(6) 0.3071(6) 0.7954(4)
C5_2 C 0.7259(6) 0.4145(6) 0.7776(4)
O1_2 O 0.7362(4) 0.4557(4) 0.7184(3)
O2_2 O 0.6598(4) 0.4494(5) 0.8226(3)
C6_2 C 0.8272(6) 0.0544(7) 0.9240(4)
O4_2 O 0.7583(6) 0.0860(6) 0.9647(4)
N3_2 N 0.9905(5) 0.4995(5) 0.6959(4)
C7_2 C 0.9719(6) 0.6017(7) 0.7310(4)
H3_2 H 0.8993 0.6301 0.7323
O13_2 O 0.8215(5) 0.5839(4) 0.5929(3)
O14_2 O 0.6578(4) 0.3846(5) 0.5599(3)
H5_2 H 0.8800 0.6280 0.5976
H6_2 H 0.7876 0.6103 0.5548
H7_2 H 0.6380 0.3911 0.5169
H8_2 H 0.6122 0.3292 0.5741
O17_2 O 0.7103(4) 0.2041(4) 0.6638(3)
O3_2 O 0.8888(4) 0.9595(5) 0.9264(3)
O19_2 O 0.8391(4) 0.8341(4) 0.7911(3)
O9_2 O 0.6515(5) 0.6743(5) 0.0509(3)
O11_2 O 0.5778(4) 0.8892(4) 0.0047(3)
N1_3 N 0.3752(5) 0.2258(6) 0.7490(4)
C1_3 C 0.4352(6) 0.3259(7) 0.7615(4)
H1_3 H 0.4899 0.3466 0.7301
N2_3 N 0.4220(5) 0.3983(5) 0.8163(3)
C2_3 C 0.3475(6) 0.3627(6) 0.8632(4)
C3_3 C 0.2855(6) 0.2573(6) 0.8551(4)
H2_3 H 0.2358 0.2314 0.8884
C4_3 C 0.3010(6) 0.1929(6) 0.7954(4)
C5_3 C 0.2259(6) 0.0855(6) 0.7776(4)
O1_3 O 0.2362(4) 0.0443(4) 0.7184(3)
C6_3 C 0.3272(6) 0.4456(7) 0.9240(4)
O3_3 O 0.3888(4) 0.5405(5) 0.9264(3)
O4_3 O 0.2583(6) 0.4140(6) 0.9647(4)
N3_3 N 0.4905(5) 0.0005(5) 0.6959(4)
H4_3 H 0.7532 0.0069 0.7220
C10_3 C 0.5945(6) 0.0418(6) 0.6958(4)
C11_3 C 0.6136(6) 0.1600(6) 0.6575(4)
O5_3 O 0.5337(4) 0.2088(4) 0.6267(3)
C13_3 C 0.6159(7) 0.6785(7) 0.9898(4)
O10_3 O 0.6177(4) 0.5926(5) 0.9478(3)
C14_3 C 0.5634(7) 0.7998(7) 0.9672(4)
O12_3 O 0.5093(4) 0.7951(5) 0.9122(3)
O14_3 O 0.1578(4) 0.1154(5) 0.5599(3)
O15_3 O 0.5408(5) 0.5789(5) 0.7095(3)
H7_3 H 0.1380 0.1089 0.5169
H8_3 H 0.1122 0.1708 0.5741
H9_3 H 0.5751 0.5026 0.7027
H10_3 H 0.5499 0.6138 0.6676
N5_2 N 0.5473(5) 0.8340(6) 0.7640(4)
O18_2 O 0.7118(4) 0.7009(4) 0.8229(3)
O20_2 O 0.3485(5) 0.3257(5) 0.5509(3)
O21_2 O 0.4222(4) 0.1108(4) 0.5047(3)
C7_3 C 0.4719(6) 0.8983(7) 0.7310(4)
H3_3 H 0.3993 0.8699 0.7323
C8_3 C 0.6528(6) 0.8747(6) 0.7602(4)
C9_3 C 0.6803(6) 0.9799(6) 0.7252(4)
C12_3 C 0.7427(6) 0.7970(7) 0.7945(4)
O13_3 O 0.3215(5) 0.9161(4) 0.5929(3)
H5_3 H 0.3800 0.8720 0.5976
H6_3 H 0.2876 0.8897 0.5548
C7_4 C 0.5281(6) 0.1017(7) 0.2310(4)
H3_4 H 0.6007 0.1301 0.2323
N4_2 N 0.4527(5) 0.1660(6) 0.2640(4)
C8_4 C 0.3472(6) 0.1253(6) 0.2602(4)
C9_4 C 0.3197(6) 0.0201(6) 0.2252(4)
C12_4 C 0.2573(6) 0.2030(7) 0.2945(4)
O7_2 O 0.2882(4) 0.2991(4) 0.3229(3)
O13_4 O 0.6785(5) 0.0839(4) 0.0929(3)
H5_4 H 0.6200 0.1280 0.0976
H6_4 H 0.7124 0.1103 0.0548
N1_4 N 0.6248(5) 0.7742(6) 0.2490(4)
C1_4 C 0.5648(6) 0.6741(7) 0.2615(4)
H1_4 H 0.5101 0.6534 0.2301
N2_4 N 0.5780(5) 0.6017(5) 0.3163(3)
C2_4 C 0.6525(6) 0.6373(6) 0.3632(4)
C3_4 C 0.7145(6) 0.7427(6) 0.3551(4)
H2_4 H 0.7642 0.7686 0.3884
C4_4 C 0.6990(6) 0.8071(6) 0.2954(4)
C5_4 C 0.7741(6) 0.9145(6) 0.2776(4)
O1_4 O 0.7638(4) 0.9557(4) 0.2184(3)
C6_4 C 0.6728(6) 0.5544(7) 0.4240(4)
O3_4 O 0.6112(4) 0.4595(5) 0.4264(3)
O4_4 O 0.7417(6) 0.5860(6) 0.4647(4)
N3_4 N 0.5095(5) 0.9995(5) 0.1959(4)
H4_4 H 0.2468 0.9931 0.2220
C10_4 C 0.4055(6) 0.9582(6) 0.1958(4)
C11_4 C 0.3864(6) 0.8400(6) 0.1575(4)
O5_4 O 0.4663(4) 0.7912(4) 0.1267(3)
C13_4 C 0.3841(7) 0.3215(7) 0.4898(4)
O10_4 O 0.3823(4) 0.4074(5) 0.4478(3)
C14_4 C 0.4366(7) 0.2002(7) 0.4672(4)
O12_4 O 0.4907(4) 0.2049(5) 0.4122(3)
O14_4 O 0.8422(4) 0.8846(5) 0.0599(3)
O15_4 O 0.4592(5) 0.4211(5) 0.2095(3)
H7_4 H 0.8620 0.8911 0.0169
H8_4 H 0.8878 0.8292 0.0741
H9_4 H 0.4249 0.4974 0.2027
H10_4 H 0.4501 0.3862 0.1676
loop_
_geom_bond_atom_site_label_1
_geom_bond_atom_site_label_2
_geom_bond_site_symmetry_1
_geom_bond_site_symmetry_2
Ce1 N1 1_555 1_555
N1 C1 1_555 1_555
C1 H1 1_555 1_555
N2 C1 1_555 1_555
C2 N2 1_555 1_555
C3 C2 1_555 1_555
H2 C3 1_555 1_555
C4 N1 1_555 1_555
C5 C4 1_555 1_555
O1 Ce1 1_555 1_555
O2 C5 1_555 1_555
C6 C2 1_555 1_555
O4 C6 1_555 1_555
N3 Ce1 1_555 1_555
C7 N3 1_555 1_555
H3 C7 1_555 1_555
O13 Ce1 1_555 1_555
O14 Ce1 1_555 1_555
H5 O13 1_555 1_555
H6 O13 1_555 1_555
H7 O14 1_555 1_555
H8 O14 1_555 1_555
Ce7 O2 1_555 1_555
O17 Ce1 1_555 1_555
O20 Ce1 1_555 1_555
O21 Ce1 1_555 1_555
C3 C4 1_555 1_555
C5 O1 1_555 1_555
O9 C13 1_555 1_555
C13 O10 1_555 1_555
O10 Ce2 1_555 1_555
O11 C14 1_555 1_555
C14 C13 1_555 1_555
O12 Ce2 1_555 1_555
O15 Ce2 1_555 1_555
H9 O15 1_555 1_555
H10 O15 1_555 1_555
Ce3 O9 1_555 1_555
N5 Ce2 1_555 1_555
O18 Ce2 1_555 1_555
O11 Ce3 1_555 1_555
C14 O12 1_555 1_555
C8 N5 1_555 1_555
C9 C8 1_555 1_555
H4 C9 1_555 1_555
C11 C10 1_555 1_555
O6 C11 1_555 1_555
C12 C8 1_555 1_555
O18 C12 1_555 1_555
O8 C12 1_555 1_555
Ce4 O6 1_555 1_555
Ce7 O8 1_555 1_555
C9 C10 1_555 1_555
C11 O5 1_555 1_555
C8_2 N4 1_555 1_555
C9_2 C8_2 1_555 1_555
H4_2 C9_2 1_555 1_555
C11_2 C10_2 1_555 1_555
O6_2 C11_2 1_555 1_555
C12_2 C8_2 1_555 1_555
O7 C12_2 1_555 1_555
O8_2 C12_2 1_555 1_555
Ce4_2 O6_2 1_555 1_555
Ce5 N4 1_555 1_555
Ce6 O8_2 1_555 1_555
C9_2 C10_2 1_555 1_555
C11_2 O5_2 1_555 1_555
O7 Ce5 1_555 1_555
C13_2 O10_2 1_555 1_555
O10_2 Ce5 1_555 1_555
C14_2 C13_2 1_555 1_555
O12_2 Ce5 1_555 1_555
O15_2 Ce5 1_555 1_555
H9_2 O15_2 1_555 1_555
H10_2 O15_2 1_555 1_555
C14_2 O12_2 1_555 1_555
Ce3 N1_2 1_555 1_555
N1_2 C1_2 1_555 1_555
C1_2 H1_2 1_555 1_555
N2_2 C1_2 1_555 1_555
C2_2 N2_2 1_555 1_555
C3_2 C2_2 1_555 1_555
H2_2 C3_2 1_555 1_555
C4_2 N1_2 1_555 1_555
C5_2 C4_2 1_555 1_555
O1_2 Ce3 1_555 1_555
O2_2 C5_2 1_555 1_555
C6_2 C2_2 1_555 1_555
O4_2 C6_2 1_555 1_555
N3_2 Ce3 1_555 1_555
C7_2 N3_2 1_555 1_555
H3_2 C7_2 1_555 1_555
O13_2 Ce3 1_555 1_555
O14_2 Ce3 1_555 1_555
H5_2 O13_2 1_555 1_555
H6_2 O13_2 1_555 1_555
H7_2 O14_2 1_555 1_555
H8_2 O14_2 1_555 1_555
Ce6 O2_2 1_555 1_555
O17_2 Ce3 1_555 1_555
C3_2 C4_2 1_555 1_555
C5_2 O1_2 1_555 1_555
Ce4 O9_2 1_555 1_555
O11_2 Ce4 1_555 1_555
Ce4_2 N1_3 1_555 1_555
Ce6 N2_3 1_555 1_555
N1_3 C1_3 1_555 1_555
C1_3 H1_3 1_555 1_555
N2_3 C1_3 1_555 1_555
C2_3 N2_3 1_555 1_555
C3_3 C2_3 1_555 1_555
H2_3 C3_3 1_555 1_555
C4_3 N1_3 1_555 1_555
C5_3 C4_3 1_555 1_555
O1_3 Ce4_2 1_555 1_555
O16_2 C5_3 1_555 1_555
C6_3 C2_3 1_555 1_555
O3_3 Ce6 1_555 1_555
O4_3 C6_3 1_555 1_555
N3_3 Ce4_2 1_555 1_555
C10_3 N3_3 1_555 1_555
C11_3 C10_3 1_555 1_555
O5_3 Ce4_2 1_555 1_555
O17_2 C11_3 1_555 1_555
C13_3 O10_3 1_555 1_555
O10_3 Ce6 1_555 1_555
C14_3 C13_3 1_555 1_555
O12_3 Ce6 1_555 1_555
O14_3 Ce4_2 1_555 1_555
O15_3 Ce6 1_555 1_555
H7_3 O14_3 1_555 1_555
H8_3 O14_3 1_555 1_555
H9_3 O15_3 1_555 1_555
H10_3 O15_3 1_555 1_555
N5_2 Ce6 1_555 1_555
O18_2 Ce6 1_555 1_555
O20_2 Ce4_2 1_555 1_555
O21_2 Ce4_2 1_555 1_555
C3_3 C4_3 1_555 1_555
C5_3 O1_3 1_555 1_555
C6_3 O3_3 1_555 1_555
C11_3 O5_3 1_555 1_555
C14_3 O12_3 1_555 1_555
H3_3 C7_3 1_555 1_555
N5_2 C7_3 1_555 1_555
C8_3 N5_2 1_555 1_555
C9_3 C8_3 1_555 1_555
C12_3 C8_3 1_555 1_555
O18_2 C12_3 1_555 1_555
O19_2 C12_3 1_555 1_555
H5_3 O13_3 1_555 1_555
H6_3 O13_3 1_555 1_555
H3_4 C7_4 1_555 1_555
N4_2 C7_4 1_555 1_555
C8_4 N4_2 1_555 1_555
C9_4 C8_4 1_555 1_555
C12_4 C8_4 1_555 1_555
O7_2 C12_4 1_555 1_555
O19 C12_4 1_555 1_555
H5_4 O13_4 1_555 1_555
H6_4 O13_4 1_555 1_555
Ce7 N4_2 1_555 1_555
O7_2 Ce7 1_555 1_555
Ce4 N1_4 1_555 1_555
Ce7 N2_4 1_555 1_555
N1_4 C1_4 1_555 1_555
C1_4 H1_4 1_555 1_555
N2_4 C1_4 1_555 1_555
C2_4 N2_4 1_555 1_555
C3_4 C2_4 1_555 1_555
H2_4 C3_4 1_555 1_555
C4_4 N1_4 1_555 1_555
C5_4 C4_4 1_555 1_555
O1_4 Ce4 1_555 1_555
O16 C5_4 1_555 1_555
C6_4 C2_4 1_555 1_555
O3_4 Ce7 1_555 1_555
O4_4 C6_4 1_555 1_555
N3_4 Ce4 1_555 1_555
C10_4 N3_4 1_555 1_555
C11_4 C10_4 1_555 1_555
O5_4 Ce4 1_555 1_555
O17 C11_4 1_555 1_555
O20_2 C13_4 1_555 1_555
C13_4 O10_4 1_555 1_555
O10_4 Ce7 1_555 1_555
O21_2 C14_4 1_555 1_555
C14_4 C13_4 1_555 1_555
O12_4 Ce7 1_555 1_555
O14_4 Ce4 1_555 1_555
O15_4 Ce7 1_555 1_555
H7_4 O14_4 1_555 1_555
H8_4 O14_4 1_555 1_555
H9_4 O15_4 1_555 1_555
H10_4 O15_4 1_555 1_555
C3_4 C4_4 1_555 1_555
C5_4 O1_4 1_555 1_555
C6_4 O3_4 1_555 1_555
C11_4 O5_4 1_555 1_555
C14_4 O12_4 1_555 1_555

#END
