
###############################################################################
#
# This file contains modified crystal structure data generated from the
# MOF subset of the Cambridge Structural Database (CSD) v543 
# hosted by the Cambridge Crystallographic Data Centre (CCDC).
#
# This work is licensed under the Creative Commons
# Attribution-NonCommercial-ShareAlike 4.0 International License.
# To view a copy of this license, visit
# http://creativecommons.org/licenses/by-nc-sa/4.0/
# or send a letter to
# Creative Commons, PO Box 1866, Mountain View, CA 94042, USA.
#
# CIF created using the CSD Python API on 29 September 2022
# The structure has been converted into the P1 space group
# The structure has a 3D framework
# The original CSD entry ABEXOW is in the orthorhombic crystal system
# The framework has been calculated to contain at least 10.0% void space
# The void calculation uses a probe of radius 1.32A, grid spacing 0.4
#
###############################################################################

data_ABEXOW
_chemical_formula_moiety         '(C56 H40 N16 O58 Pr8)n'
_symmetry_cell_setting           triclinic
_symmetry_space_group_name_H-M   'P 1'
_symmetry_Int_Tables_number      1
_space_group_name_Hall           'P 1'
loop_
_symmetry_equiv_pos_site_id
_symmetry_equiv_pos_as_xyz
1 x,y,z
_cell_length_a                   12.0020(2)
_cell_length_b                   11.0080(1)
_cell_length_c                   19.4730(4)
_cell_angle_alpha                90
_cell_angle_beta                 90
_cell_angle_gamma                90
_cell_volume                     2572.73
loop_
_atom_site_label
_atom_site_type_symbol
_atom_site_fract_x
_atom_site_fract_y
_atom_site_fract_z
Pr7 Pr 0.02283(2) 0.88228(3) 0.137520(18)
Pr1 Pr 0.34101(3) 0.13620(3) 0.351618(18)
Pr2 Pr 0.52283(2) 0.61772(3) 0.137520(18)
N1 N 0.3775(5) 0.2274(5) 0.2251(3)
C1 C 0.4372(6) 0.3274(6) 0.2119(4)
H1 H 0.4920 0.3489 0.2434
N2 N 0.4241(4) 0.3988(5) 0.1571(3)
C2 C 0.3496(5) 0.3637(6) 0.1102(3)
C3 C 0.2884(5) 0.2575(6) 0.1180(3)
H2 H 0.2394 0.2313 0.0841
C4 C 0.3027(5) 0.1926(6) 0.1774(3)
C5 C 0.2285(5) 0.0862(5) 0.1957(3)
O1 O 0.2373(4) 0.0447(4) 0.2556(2)
O2 O 0.1615(3) 0.0509(4) 0.1502(2)
C6 C 0.3307(6) 0.4468(6) 0.0494(4)
O3 O 0.3914(4) 0.5417(4) 0.0471(2)
O4 O 0.2601(5) 0.4158(5) 0.0082(3)
N3 N 0.4906(4) 0.0004(5) 0.2769(3)
H4 H 0.7552 0.0060 0.2515
C10 C 0.5948(5) 0.0412(5) 0.2775(3)
C11 C 0.6145(5) 0.1606(5) 0.3155(3)
O5 O 0.5344(3) 0.2086(4) 0.3468(3)
O6 O 0.7111(4) 0.2054(4) 0.3091(2)
O9 O 0.6189(4) 0.5922(4) 0.0253(2)
O11 O 0.5107(4) 0.7960(4) 0.0616(3)
C14 C 0.5645(6) 0.7999(6) 0.0062(4)
O14 O 0.1595(4) 0.1149(4) 0.4134(3)
O15 O 0.5416(4) 0.5790(5) 0.2628(3)
H7 H 0.1336 0.0949 0.4534
H8 H 0.1134 0.1655 0.3976
H9 H 0.6062 0.5475 0.2648
H10 H 0.5377 0.6271 0.2970
Pr3 Pr 0.84101(3) 0.36380(3) 0.351618(18)
O16 O 0.6615(3) 0.4491(4) 0.1502(2)
N5 N 0.5475(4) 0.8333(5) 0.2088(3)
O17 O 0.2111(4) 0.2946(4) 0.3091(2)
O18 O 0.7134(4) 0.7005(4) 0.1497(3)
O19 O 0.3412(4) 0.6658(4) 0.1821(3)
O20 O 0.3478(4) 0.3260(4) 0.4219(3)
O21 O 0.4214(4) 0.1106(4) 0.4683(2)
C13 C 0.6165(6) 0.6777(6) 0.9822(4)
O10 O 0.6522(4) 0.6740(4) 0.9219(3)
O12 O 0.5786(4) 0.8894(4) 0.9683(2)
Pr4 Pr 0.65899(3) 0.86380(3) 0.851618(18)
C7 C 0.4715(5) 0.8983(6) 0.2418(4)
H3 H 0.3984 0.8704 0.2403
C8 C 0.6537(5) 0.8739(6) 0.2128(3)
C9 C 0.6819(6) 0.9792(6) 0.2481(4)
C12 C 0.7431(6) 0.7966(6) 0.1778(3)
O8 O 0.8412(4) 0.8342(4) 0.1821(3)
O13 O 0.3213(4) 0.9183(4) 0.3795(3)
H5 H 0.3782 0.8712 0.3823
H6 H 0.2913 0.9158 0.4193
C7_2 C 0.5285(5) 0.1017(6) 0.7418(4)
H3_2 H 0.6016 0.1296 0.7403
N4 N 0.4525(4) 0.1667(5) 0.7088(3)
C8_2 C 0.3463(5) 0.1261(6) 0.7128(3)
C9_2 C 0.3181(6) 0.0208(6) 0.7481(4)
C12_2 C 0.2569(6) 0.2034(6) 0.6778(3)
O7 O 0.2866(4) 0.2995(4) 0.6497(3)
O8_2 O 0.1588(4) 0.1658(4) 0.6821(3)
O13_2 O 0.6787(4) 0.0817(4) 0.8795(3)
H5_2 H 0.6218 0.1288 0.8823
H6_2 H 0.7087 0.0842 0.9193
Pr5 Pr 0.97717(2) 0.11772(3) 0.637520(18)
Pr6 Pr 0.47717(2) 0.38228(3) 0.637520(18)
N1_2 N 0.6225(5) 0.7726(5) 0.7251(3)
C1_2 C 0.5628(6) 0.6726(6) 0.7119(4)
H1_2 H 0.5080 0.6511 0.7434
N2_2 N 0.5759(4) 0.6012(5) 0.6571(3)
C2_2 C 0.6504(5) 0.6363(6) 0.6102(3)
C3_2 C 0.7116(5) 0.7425(6) 0.6180(3)
H2_2 H 0.7606 0.7687 0.5841
C4_2 C 0.6973(5) 0.8074(6) 0.6774(3)
C5_2 C 0.7715(5) 0.9138(5) 0.6957(3)
O1_2 O 0.7627(4) 0.9553(4) 0.7556(2)
O2_2 O 0.8385(3) 0.9491(4) 0.6502(2)
C6_2 C 0.6693(6) 0.5532(6) 0.5494(4)
O3_2 O 0.6086(4) 0.4583(4) 0.5471(2)
O4_2 O 0.7399(5) 0.5842(5) 0.5082(3)
N3_2 N 0.5094(4) 0.9996(5) 0.7769(3)
H4_2 H 0.2448 0.9940 0.7515
C10_2 C 0.4052(5) 0.9588(5) 0.7775(3)
C11_2 C 0.3855(5) 0.8394(5) 0.8155(3)
O5_2 O 0.4656(3) 0.7914(4) 0.8468(3)
O6_2 O 0.2889(4) 0.7946(4) 0.8091(2)
O9_2 O 0.3811(4) 0.4078(4) 0.5253(2)
C13_2 C 0.3835(6) 0.3223(6) 0.4822(4)
O11_2 O 0.4893(4) 0.2040(4) 0.5616(3)
C14_2 C 0.4355(6) 0.2001(6) 0.5062(4)
O14_2 O 0.8405(4) 0.8851(4) 0.9134(3)
O15_2 O 0.4584(4) 0.4210(5) 0.7628(3)
H7_2 H 0.8664 0.9051 0.9534
H8_2 H 0.8866 0.8345 0.8976
H9_2 H 0.3938 0.4525 0.7648
H10_2 H 0.4623 0.3729 0.7970
Pr3_2 Pr 0.15899(3) 0.63620(3) 0.851618(18)
O16_2 O 0.3385(3) 0.5509(4) 0.6502(2)
O17_2 O 0.7889(4) 0.7054(4) 0.8091(2)
O19_2 O 0.6588(4) 0.3342(4) 0.6821(3)
O3_3 O 0.1086(4) 0.0417(4) 0.5471(2)
N1_3 N 0.1225(5) 0.7274(5) 0.7251(3)
C1_3 C 0.0628(6) 0.8274(6) 0.7119(4)
H1_3 H 0.0080 0.8489 0.7434
N2_3 N 0.0759(4) 0.8988(5) 0.6571(3)
C2_3 C 0.1504(5) 0.8637(6) 0.6102(3)
C3_3 C 0.2116(5) 0.7575(6) 0.6180(3)
H2_3 H 0.2606 0.7313 0.5841
C4_3 C 0.1973(5) 0.6926(6) 0.6774(3)
C5_3 C 0.2715(5) 0.5862(5) 0.6957(3)
O1_3 O 0.2627(4) 0.5447(4) 0.7556(2)
C6_3 C 0.1693(6) 0.9468(6) 0.5494(4)
O4_3 O 0.2399(5) 0.9158(5) 0.5082(3)
N3_3 N 0.0094(4) 0.5004(5) 0.7769(3)
C7_3 C 0.0285(5) 0.3983(6) 0.7418(4)
H3_3 H 0.1016 0.3704 0.7403
O13_3 O 0.1787(4) 0.4183(4) 0.8795(3)
O14_3 O 0.3405(4) 0.6149(4) 0.9134(3)
H5_3 H 0.1218 0.3712 0.8823
H6_3 H 0.2087 0.4158 0.9193
H7_3 H 0.3664 0.5949 0.9534
H8_3 H 0.3866 0.6655 0.8976
O20_2 O 0.1522(4) 0.8260(4) 0.9219(3)
O21_2 O 0.0786(4) 0.6106(4) 0.9683(2)
O9_3 O 0.8811(4) 0.0922(4) 0.5253(2)
C13_3 C 0.8835(6) 0.1777(6) 0.4822(4)
O10_2 O 0.8478(4) 0.1740(4) 0.4219(3)
O11_3 O 0.9893(4) 0.2960(4) 0.5616(3)
C14_3 C 0.9355(6) 0.2999(6) 0.5062(4)
O12_2 O 0.9214(4) 0.3894(4) 0.4683(2)
O15_3 O 0.9584(4) 0.0790(5) 0.7628(3)
H9_3 H 0.8938 0.0475 0.7648
H10_3 H 0.9623 0.1271 0.7970
N5_2 N 0.9525(4) 0.3333(5) 0.7088(3)
O18_2 O 0.7866(4) 0.2005(4) 0.6497(3)
C8_3 C 0.8463(5) 0.3739(6) 0.7128(3)
C9_3 C 0.8181(6) 0.4792(6) 0.7481(4)
H4_3 H 0.7448 0.5060 0.7515
C10_3 C 0.9052(5) 0.5412(5) 0.7775(3)
C11_3 C 0.8855(5) 0.6606(5) 0.8155(3)
O5_3 O 0.9656(3) 0.7086(4) 0.8468(3)
C12_3 C 0.7569(6) 0.2966(6) 0.6778(3)
N4_2 N 0.0475(4) 0.6667(5) 0.2088(3)
C8_4 C 0.1537(5) 0.6261(6) 0.2128(3)
C9_4 C 0.1819(6) 0.5208(6) 0.2481(4)
H4_4 H 0.2552 0.4940 0.2515
C10_4 C 0.0948(5) 0.4588(5) 0.2775(3)
C11_4 C 0.1145(5) 0.3394(5) 0.3155(3)
O5_4 O 0.0344(3) 0.2914(4) 0.3468(3)
C12_4 C 0.2431(6) 0.7034(6) 0.1778(3)
O7_2 O 0.2134(4) 0.7995(4) 0.1497(3)
O9_4 O 0.1189(4) 0.9078(4) 0.0253(2)
O11_4 O 0.0107(4) 0.7040(4) 0.0616(3)
C14_4 C 0.0645(6) 0.7001(6) 0.0062(4)
O15_4 O 0.0416(4) 0.9210(5) 0.2628(3)
H9_4 H 0.1062 0.9525 0.2648
H10_4 H 0.0377 0.8729 0.2970
C13_4 C 0.1165(6) 0.8223(6) 0.9822(4)
N1_4 N 0.8775(5) 0.2726(5) 0.2251(3)
C1_4 C 0.9372(6) 0.1726(6) 0.2119(4)
H1_4 H 0.9920 0.1511 0.2434
N2_4 N 0.9241(4) 0.1012(5) 0.1571(3)
C2_4 C 0.8496(5) 0.1363(6) 0.1102(3)
C3_4 C 0.7884(5) 0.2425(6) 0.1180(3)
H2_4 H 0.7394 0.2687 0.0841
C4_4 C 0.8027(5) 0.3074(6) 0.1774(3)
C5_4 C 0.7285(5) 0.4138(5) 0.1957(3)
O1_4 O 0.7373(4) 0.4553(4) 0.2556(2)
C6_4 C 0.8307(6) 0.0532(6) 0.0494(4)
O4_4 O 0.7601(5) 0.0842(5) 0.0082(3)
N3_4 N 0.9906(4) 0.4996(5) 0.2769(3)
C7_4 C 0.9715(5) 0.6017(6) 0.2418(4)
H3_4 H 0.8984 0.6296 0.2403
O13_4 O 0.8213(4) 0.5817(4) 0.3795(3)
O14_4 O 0.6595(4) 0.3851(4) 0.4134(3)
H5_4 H 0.8782 0.6288 0.3823
H6_4 H 0.7913 0.5842 0.4193
H7_4 H 0.6336 0.4051 0.4534
H8_4 H 0.6134 0.3345 0.3976
O3_4 O 0.8914(4) 0.9583(4) 0.0471(2)
loop_
_geom_bond_atom_site_label_1
_geom_bond_atom_site_label_2
_geom_bond_site_symmetry_1
_geom_bond_site_symmetry_2
Pr1 N1 1_555 1_555
Pr2 N2 1_555 1_555
N1 C1 1_555 1_555
C1 H1 1_555 1_555
N2 C1 1_555 1_555
C2 N2 1_555 1_555
C3 C2 1_555 1_555
H2 C3 1_555 1_555
C4 N1 1_555 1_555
C5 C4 1_555 1_555
O1 Pr1 1_555 1_555
O2 C5 1_555 1_555
C6 C2 1_555 1_555
O3 Pr2 1_555 1_555
O4 C6 1_555 1_555
N3 Pr1 1_555 1_555
C10 N3 1_555 1_555
C11 C10 1_555 1_555
O5 Pr1 1_555 1_555
O6 C11 1_555 1_555
O9 Pr2 1_555 1_555
O11 Pr2 1_555 1_555
O14 Pr1 1_555 1_555
O15 Pr2 1_555 1_555
H7 O14 1_555 1_555
H8 O14 1_555 1_555
H9 O15 1_555 1_555
H10 O15 1_555 1_555
Pr3 O6 1_555 1_555
O16 Pr2 1_555 1_555
N5 Pr2 1_555 1_555
O17 Pr1 1_555 1_555
O18 Pr2 1_555 1_555
O19 Pr2 1_555 1_555
O20 Pr1 1_555 1_555
O21 Pr1 1_555 1_555
C3 C4 1_555 1_555
C5 O1 1_555 1_555
C6 O3 1_555 1_555
C11 O5 1_555 1_555
O11 C14 1_555 1_555
O10 C13 1_555 1_555
Pr4 O10 1_555 1_555
O12 Pr4 1_555 1_555
H3 C7 1_555 1_555
N5 C7 1_555 1_555
C8 N5 1_555 1_555
C9 C8 1_555 1_555
C12 C8 1_555 1_555
O18 C12 1_555 1_555
O8 C12 1_555 1_555
H5 O13 1_555 1_555
H6 O13 1_555 1_555
H3_2 C7_2 1_555 1_555
N4 C7_2 1_555 1_555
C8_2 N4 1_555 1_555
C9_2 C8_2 1_555 1_555
C12_2 C8_2 1_555 1_555
O7 C12_2 1_555 1_555
O8_2 C12_2 1_555 1_555
H5_2 O13_2 1_555 1_555
H6_2 O13_2 1_555 1_555
Pr6 N4 1_555 1_555
O7 Pr6 1_555 1_555
Pr4 N1_2 1_555 1_555
Pr6 N2_2 1_555 1_555
N1_2 C1_2 1_555 1_555
C1_2 H1_2 1_555 1_555
N2_2 C1_2 1_555 1_555
C2_2 N2_2 1_555 1_555
C3_2 C2_2 1_555 1_555
H2_2 C3_2 1_555 1_555
C4_2 N1_2 1_555 1_555
C5_2 C4_2 1_555 1_555
O1_2 Pr4 1_555 1_555
O2_2 C5_2 1_555 1_555
C6_2 C2_2 1_555 1_555
O3_2 Pr6 1_555 1_555
O4_2 C6_2 1_555 1_555
N3_2 Pr4 1_555 1_555
C10_2 N3_2 1_555 1_555
C11_2 C10_2 1_555 1_555
O5_2 Pr4 1_555 1_555
O6_2 C11_2 1_555 1_555
O9_2 Pr6 1_555 1_555
C13_2 O9_2 1_555 1_555
O20 C13_2 1_555 1_555
O11_2 Pr6 1_555 1_555
C14_2 C13_2 1_555 1_555
O21 C14_2 1_555 1_555
O14_2 Pr4 1_555 1_555
O15_2 Pr6 1_555 1_555
H7_2 O14_2 1_555 1_555
H8_2 O14_2 1_555 1_555
H9_2 O15_2 1_555 1_555
H10_2 O15_2 1_555 1_555
Pr3_2 O6_2 1_555 1_555
O16_2 Pr6 1_555 1_555
O17_2 Pr4 1_555 1_555
O19_2 Pr6 1_555 1_555
C3_2 C4_2 1_555 1_555
C5_2 O1_2 1_555 1_555
C6_2 O3_2 1_555 1_555
C11_2 O5_2 1_555 1_555
O11_2 C14_2 1_555 1_555
Pr3_2 N1_3 1_555 1_555
N1_3 C1_3 1_555 1_555
C1_3 H1_3 1_555 1_555
N2_3 C1_3 1_555 1_555
C2_3 N2_3 1_555 1_555
C3_3 C2_3 1_555 1_555
H2_3 C3_3 1_555 1_555
C4_3 N1_3 1_555 1_555
C5_3 C4_3 1_555 1_555
O1_3 Pr3_2 1_555 1_555
O16_2 C5_3 1_555 1_555
C6_3 C2_3 1_555 1_555
O4_3 C6_3 1_555 1_555
N3_3 Pr3_2 1_555 1_555
C7_3 N3_3 1_555 1_555
H3_3 C7_3 1_555 1_555
O13_3 Pr3_2 1_555 1_555
O14_3 Pr3_2 1_555 1_555
H5_3 O13_3 1_555 1_555
H6_3 O13_3 1_555 1_555
H7_3 O14_3 1_555 1_555
H8_3 O14_3 1_555 1_555
O20_2 Pr3_2 1_555 1_555
O21_2 Pr3_2 1_555 1_555
C3_3 C4_3 1_555 1_555
C5_3 O1_3 1_555 1_555
O9_3 Pr5 1_555 1_555
C13_3 O9_3 1_555 1_555
O10_2 C13_3 1_555 1_555
O11_3 Pr5 1_555 1_555
C14_3 C13_3 1_555 1_555
O12_2 C14_3 1_555 1_555
O15_3 Pr5 1_555 1_555
H9_3 O15_3 1_555 1_555
H10_3 O15_3 1_555 1_555
Pr3 O10_2 1_555 1_555
N5_2 Pr5 1_555 1_555
O18_2 Pr5 1_555 1_555
O11_3 C14_3 1_555 1_555
O12_2 Pr3 1_555 1_555
C8_3 N5_2 1_555 1_555
C9_3 C8_3 1_555 1_555
H4_3 C9_3 1_555 1_555
C11_3 C10_3 1_555 1_555
O17_2 C11_3 1_555 1_555
C12_3 C8_3 1_555 1_555
O18_2 C12_3 1_555 1_555
O19_2 C12_3 1_555 1_555
C9_3 C10_3 1_555 1_555
C11_3 O5_3 1_555 1_555
C8_4 N4_2 1_555 1_555
C9_4 C8_4 1_555 1_555
H4_4 C9_4 1_555 1_555
C11_4 C10_4 1_555 1_555
O17 C11_4 1_555 1_555
C12_4 C8_4 1_555 1_555
O7_2 C12_4 1_555 1_555
O19 C12_4 1_555 1_555
Pr7 N4_2 1_555 1_555
C9_4 C10_4 1_555 1_555
C11_4 O5_4 1_555 1_555
O7_2 Pr7 1_555 1_555
O9_4 Pr7 1_555 1_555
O11_4 Pr7 1_555 1_555
O15_4 Pr7 1_555 1_555
H9_4 O15_4 1_555 1_555
H10_4 O15_4 1_555 1_555
O11_4 C14_4 1_555 1_555
O20_2 C13_4 1_555 1_555
Pr3 N1_4 1_555 1_555
N1_4 C1_4 1_555 1_555
C1_4 H1_4 1_555 1_555
N2_4 C1_4 1_555 1_555
C2_4 N2_4 1_555 1_555
C3_4 C2_4 1_555 1_555
H2_4 C3_4 1_555 1_555
C4_4 N1_4 1_555 1_555
C5_4 C4_4 1_555 1_555
O1_4 Pr3 1_555 1_555
O16 C5_4 1_555 1_555
C6_4 C2_4 1_555 1_555
O4_4 C6_4 1_555 1_555
N3_4 Pr3 1_555 1_555
C7_4 N3_4 1_555 1_555
H3_4 C7_4 1_555 1_555
O13_4 Pr3 1_555 1_555
O14_4 Pr3 1_555 1_555
H5_4 O13_4 1_555 1_555
H6_4 O13_4 1_555 1_555
H7_4 O14_4 1_555 1_555
H8_4 O14_4 1_555 1_555
C3_4 C4_4 1_555 1_555
C5_4 O1_4 1_555 1_555

#END
