
###############################################################################
#
# This file contains modified crystal structure data generated from the
# MOF subset of the Cambridge Structural Database (CSD) v543 
# hosted by the Cambridge Crystallographic Data Centre (CCDC).
#
# This work is licensed under the Creative Commons
# Attribution-NonCommercial-ShareAlike 4.0 International License.
# To view a copy of this license, visit
# http://creativecommons.org/licenses/by-nc-sa/4.0/
# or send a letter to
# Creative Commons, PO Box 1866, Mountain View, CA 94042, USA.
#
# CIF created using the CSD Python API on 29 September 2022
# The structure has been converted into the P1 space group
# The structure has a 3D framework
# The original CSD entry ABEYEN is in the orthorhombic crystal system
# The framework has been calculated to contain at least 10.0% void space
# The void calculation uses a probe of radius 1.32A, grid spacing 0.4
#
###############################################################################

data_ABEYEN
_chemical_formula_moiety         '(C56 H40 Eu8 N16 O58)n'
_symmetry_cell_setting           triclinic
_symmetry_space_group_name_H-M   'P 1'
_symmetry_Int_Tables_number      1
_space_group_name_Hall           'P 1'
loop_
_symmetry_equiv_pos_site_id
_symmetry_equiv_pos_as_xyz
1 x,y,z
_cell_length_a                   11.8280(3)
_cell_length_b                   10.9430(17)
_cell_length_c                   19.2610(4)
_cell_angle_alpha                90
_cell_angle_beta                 90
_cell_angle_gamma                90
_cell_volume                     2493.02
loop_
_atom_site_label
_atom_site_type_symbol
_atom_site_fract_x
_atom_site_fract_y
_atom_site_fract_z
O21 O 0.0818(4) 0.1098(4) 0.0136(2)
Eu1 Eu 0.15751(3) 0.13755(2) 0.896995(16)
N1 N 0.1161(5) 0.2301(4) 0.7717(3)
C1 C 0.0584(6) 0.3313(5) 0.7591(3)
H1 H 0.0055 0.3544 0.7923
N2 N 0.0684(5) 0.4026(4) 0.7043(3)
C2 C 0.1421(6) 0.3644(5) 0.6560(3)
C3 C 0.2031(6) 0.2573(5) 0.6629(3)
H2 H 0.2499 0.2295 0.6275
C4 C 0.1922(6) 0.1942(5) 0.7232(3)
C5 C 0.2673(6) 0.0865(5) 0.7412(3)
O1 O 0.2595(4) 0.0456(4) 0.8016(2)
O2 O 0.3333(4) 0.0492(4) 0.6950(2)
C6 C 0.1600(6) 0.4485(5) 0.5938(3)
O3 O 0.1035(4) 0.5461(4) 0.5930(2)
O4 O 0.2308(5) 0.4146(5) 0.5506(3)
N3 N 0.0093(5) 0.0011(4) 0.8227(3)
O14 O 0.3358(4) 0.1161(4) 0.9575(2)
H7 H 0.3570 0.1021 0.9994
H8 H 0.3846 0.1686 0.9430
O17 O 0.2883(4) 0.2925(4) 0.8542(2)
O19 O 0.1514(4) 0.6665(4) 0.7264(3)
O20 O 0.1533(4) 0.3266(4) 0.9653(3)
C7 C 0.0274(6) 0.8983(5) 0.7859(3)
H3 H 0.1015 0.8704 0.7833
O13 O 0.1773(4) 0.9233(4) 0.9232(2)
H5 H 0.1237 0.8708 0.9225
H6 H 0.2038 0.9174 0.9645
Eu7 Eu 0.47153(3) 0.88106(2) 0.682539(18)
Eu2 Eu 0.97153(3) 0.61894(2) 0.682539(18)
H4 H 0.7411 0.0064 0.7971
C10 C 0.9027(6) 0.0405(5) 0.8237(3)
C11 C 0.8840(6) 0.1603(5) 0.8624(3)
O5 O 0.9647(4) 0.2050(3) 0.8957(3)
O6 O 0.7883(4) 0.2075(4) 0.8542(2)
O9 O 0.8759(4) 0.5918(4) 0.5710(2)
C13 C 0.8795(6) 0.6772(5) 0.5269(4)
O10 O 0.8467(4) 0.6734(4) 0.4653(3)
O11 O 0.9854(4) 0.7953(4) 0.6081(3)
C14 C 0.9318(6) 0.7989(5) 0.5514(4)
O12 O 0.9182(4) 0.8902(4) 0.5136(2)
O15 O 0.9519(4) 0.5825(4) 0.8065(2)
H9 H 0.9053 0.5417 0.8440
H10 H 0.9868 0.6416 0.8306
Eu3 Eu 0.84249(3) 0.86245(2) 0.396995(16)
Eu4 Eu 0.65751(3) 0.36245(2) 0.896995(16)
O16 O 0.8333(4) 0.4508(4) 0.6950(2)
N5 N 0.9489(5) 0.8325(4) 0.7527(3)
O18 O 0.7826(4) 0.6995(3) 0.6935(3)
C8 C 0.8438(6) 0.8734(5) 0.7578(3)
C9 C 0.8154(6) 0.9792(5) 0.7937(4)
C12 C 0.7508(6) 0.7962(5) 0.7226(3)
O8 O 0.6514(4) 0.8335(4) 0.7264(3)
N4 N 0.0511(5) 0.1675(4) 0.2527(3)
C8_2 C 0.1562(6) 0.1266(5) 0.2578(3)
C9_2 C 0.1846(6) 0.0208(5) 0.2937(4)
C12_2 C 0.2492(6) 0.2038(5) 0.2226(3)
O7 O 0.2174(4) 0.3005(3) 0.1935(3)
O8_2 O 0.3486(4) 0.1665(4) 0.2264(3)
Eu5 Eu 0.02847(3) 0.38106(2) 0.182539(18)
Eu6 Eu 0.52847(3) 0.11894(2) 0.182539(18)
H4_2 H 0.2589 0.9936 0.2971
C10_2 C 0.0973(6) 0.9595(5) 0.3237(3)
C11_2 C 0.1160(6) 0.8397(5) 0.3624(3)
O5_2 O 0.0353(4) 0.7950(3) 0.3957(3)
O6_2 O 0.2117(4) 0.7925(4) 0.3542(2)
O9_2 O 0.1241(4) 0.4082(4) 0.0710(2)
C13_2 C 0.1205(6) 0.3228(5) 0.0269(4)
O11_2 O 0.0146(4) 0.2047(4) 0.1081(3)
C14_2 C 0.0682(6) 0.2011(5) 0.0514(4)
O15_2 O 0.0481(4) 0.4175(4) 0.3065(2)
H9_2 H 0.0947 0.4583 0.3440
H10_2 H 0.0132 0.3584 0.3306
Eu4_2 Eu 0.34249(3) 0.63755(2) 0.396995(16)
O16_2 O 0.1667(4) 0.5492(4) 0.1950(2)
C7_2 C 0.9726(6) 0.1017(5) 0.2859(3)
H3_2 H 0.8985 0.1296 0.2833
O13_2 O 0.8227(4) 0.0767(4) 0.4232(2)
H5_2 H 0.8763 0.1292 0.4225
H6_2 H 0.7962 0.0826 0.4645
N1_2 N 0.8839(5) 0.7699(4) 0.2717(3)
C1_2 C 0.9416(6) 0.6687(5) 0.2591(3)
H1_2 H 0.9945 0.6456 0.2923
N2_2 N 0.9316(5) 0.5974(4) 0.2043(3)
C2_2 C 0.8579(6) 0.6356(5) 0.1560(3)
C3_2 C 0.7969(6) 0.7427(5) 0.1629(3)
H2_2 H 0.7501 0.7705 0.1275
C4_2 C 0.8078(6) 0.8058(5) 0.2232(3)
C5_2 C 0.7327(6) 0.9135(5) 0.2412(3)
O1_2 O 0.7405(4) 0.9544(4) 0.3016(2)
O2_2 O 0.6667(4) 0.9508(4) 0.1950(2)
C6_2 C 0.8400(6) 0.5515(5) 0.0938(3)
O3_2 O 0.8965(4) 0.4539(4) 0.0930(2)
O4_2 O 0.7692(5) 0.5854(5) 0.0506(3)
N3_2 N 0.9907(5) 0.9989(4) 0.3227(3)
O14_2 O 0.6642(4) 0.8839(4) 0.4575(2)
H7_2 H 0.6430 0.8979 0.4994
H8_2 H 0.6154 0.8314 0.4430
O17_2 O 0.7117(4) 0.7075(4) 0.3542(2)
O19_2 O 0.8486(4) 0.3335(4) 0.2264(3)
O3_3 O 0.3965(4) 0.0461(4) 0.0930(2)
O9_3 O 0.6241(4) 0.0918(4) 0.0710(2)
C13_3 C 0.6205(6) 0.1772(5) 0.0269(4)
O11_3 O 0.5146(4) 0.2953(4) 0.1081(3)
C14_3 C 0.5682(6) 0.2989(5) 0.0514(4)
O12_2 O 0.5818(4) 0.3902(4) 0.0136(2)
O15_3 O 0.5481(4) 0.0825(4) 0.3065(2)
H9_3 H 0.5947 0.0417 0.3440
H10_3 H 0.5132 0.1416 0.3306
N5_2 N 0.5511(5) 0.3325(4) 0.2527(3)
O18_2 O 0.7174(4) 0.1995(3) 0.1935(3)
O10_2 O 0.6533(4) 0.1734(4) 0.9653(3)
N1_3 N 0.3839(5) 0.7301(4) 0.2717(3)
C1_3 C 0.4416(6) 0.8313(5) 0.2591(3)
H1_3 H 0.4945 0.8544 0.2923
N2_3 N 0.4316(5) 0.9026(4) 0.2043(3)
C2_3 C 0.3579(6) 0.8644(5) 0.1560(3)
C3_3 C 0.2969(6) 0.7573(5) 0.1629(3)
H2_3 H 0.2501 0.7295 0.1275
C4_3 C 0.3078(6) 0.6942(5) 0.2232(3)
C5_3 C 0.2327(6) 0.5865(5) 0.2412(3)
O1_3 O 0.2405(4) 0.5456(4) 0.3016(2)
C6_3 C 0.3400(6) 0.9485(5) 0.0938(3)
O4_3 O 0.2692(5) 0.9146(5) 0.0506(3)
N3_3 N 0.4907(5) 0.5011(4) 0.3227(3)
C7_3 C 0.4726(6) 0.3983(5) 0.2859(3)
H3_3 H 0.3985 0.3704 0.2833
C8_3 C 0.6562(6) 0.3734(5) 0.2578(3)
C9_3 C 0.6846(6) 0.4792(5) 0.2937(4)
H4_3 H 0.7589 0.5064 0.2971
C10_3 C 0.5973(6) 0.5405(5) 0.3237(3)
C11_3 C 0.6160(6) 0.6603(5) 0.3624(3)
O5_3 O 0.5353(4) 0.7050(3) 0.3957(3)
C12_3 C 0.7492(6) 0.2962(5) 0.2226(3)
O13_3 O 0.3227(4) 0.4233(4) 0.4232(2)
O14_3 O 0.1642(4) 0.6161(4) 0.4575(2)
H5_3 H 0.3763 0.3708 0.4225
H6_3 H 0.2962 0.4174 0.4645
H7_3 H 0.1430 0.6021 0.4994
H8_3 H 0.1154 0.6686 0.4430
O20_2 O 0.3467(4) 0.8266(4) 0.4653(3)
O21_2 O 0.4182(4) 0.6098(4) 0.5136(2)
N1_4 N 0.6161(5) 0.2699(4) 0.7717(3)
C1_4 C 0.5584(6) 0.1687(5) 0.7591(3)
H1_4 H 0.5055 0.1456 0.7923
N2_4 N 0.5684(5) 0.0974(4) 0.7043(3)
C2_4 C 0.6421(6) 0.1356(5) 0.6560(3)
C3_4 C 0.7031(6) 0.2427(5) 0.6629(3)
H2_4 H 0.7499 0.2705 0.6275
C4_4 C 0.6922(6) 0.3058(5) 0.7232(3)
C5_4 C 0.7673(6) 0.4135(5) 0.7412(3)
O1_4 O 0.7595(4) 0.4544(4) 0.8016(2)
C6_4 C 0.6600(6) 0.0515(5) 0.5938(3)
O4_4 O 0.7308(5) 0.0854(5) 0.5506(3)
N3_4 N 0.5093(5) 0.4989(4) 0.8227(3)
C7_4 C 0.5274(6) 0.6017(5) 0.7859(3)
H3_4 H 0.6015 0.6296 0.7833
N4_2 N 0.4489(5) 0.6675(4) 0.7527(3)
C8_4 C 0.3438(6) 0.6266(5) 0.7578(3)
C9_4 C 0.3154(6) 0.5208(5) 0.7937(4)
H4_4 H 0.2411 0.4936 0.7971
C10_4 C 0.4027(6) 0.4595(5) 0.8237(3)
C11_4 C 0.3840(6) 0.3397(5) 0.8624(3)
O5_4 O 0.4647(4) 0.2950(3) 0.8957(3)
C12_4 C 0.2508(6) 0.7038(5) 0.7226(3)
O7_2 O 0.2826(4) 0.8005(3) 0.6935(3)
O13_4 O 0.6773(4) 0.5767(4) 0.9232(2)
O14_4 O 0.8358(4) 0.3839(4) 0.9575(2)
H5_4 H 0.6237 0.6292 0.9225
H6_4 H 0.7038 0.5826 0.9645
H7_4 H 0.8570 0.3979 0.9994
H8_4 H 0.8846 0.3314 0.9430
O3_4 O 0.6035(4) 0.9539(4) 0.5930(2)
O9_4 O 0.3759(4) 0.9082(4) 0.5710(2)
C13_4 C 0.3795(6) 0.8228(5) 0.5269(4)
O11_4 O 0.4854(4) 0.7047(4) 0.6081(3)
C14_4 C 0.4318(6) 0.7011(5) 0.5514(4)
O15_4 O 0.4519(4) 0.9175(4) 0.8065(2)
H9_4 H 0.4053 0.9583 0.8440
H10_4 H 0.4868 0.8584 0.8306
loop_
_geom_bond_atom_site_label_1
_geom_bond_atom_site_label_2
_geom_bond_site_symmetry_1
_geom_bond_site_symmetry_2
Eu1 N1 1_555 1_555
N1 C1 1_555 1_555
C1 H1 1_555 1_555
N2 C1 1_555 1_555
C2 N2 1_555 1_555
C3 C2 1_555 1_555
H2 C3 1_555 1_555
C4 N1 1_555 1_555
C5 C4 1_555 1_555
O1 Eu1 1_555 1_555
O2 C5 1_555 1_555
C6 C2 1_555 1_555
O4 C6 1_555 1_555
N3 Eu1 1_555 1_555
O14 Eu1 1_555 1_555
H7 O14 1_555 1_555
H8 O14 1_555 1_555
O17 Eu1 1_555 1_555
O20 Eu1 1_555 1_555
C3 C4 1_555 1_555
C5 O1 1_555 1_555
C6 O3 1_555 1_555
H3 C7 1_555 1_555
H5 O13 1_555 1_555
H6 O13 1_555 1_555
C11 C10 1_555 1_555
O6 C11 1_555 1_555
O9 Eu2 1_555 1_555
C13 O9 1_555 1_555
O10 C13 1_555 1_555
O11 Eu2 1_555 1_555
C14 C13 1_555 1_555
O12 C14 1_555 1_555
O15 Eu2 1_555 1_555
H9 O15 1_555 1_555
H10 O15 1_555 1_555
Eu3 O10 1_555 1_555
Eu4 O6 1_555 1_555
O16 Eu2 1_555 1_555
N5 Eu2 1_555 1_555
O18 Eu2 1_555 1_555
C11 O5 1_555 1_555
O11 C14 1_555 1_555
O12 Eu3 1_555 1_555
C8 N5 1_555 1_555
C9 C8 1_555 1_555
C12 C8 1_555 1_555
O18 C12 1_555 1_555
O8 C12 1_555 1_555
Eu7 O8 1_555 1_555
C8_2 N4 1_555 1_555
C9_2 C8_2 1_555 1_555
C12_2 C8_2 1_555 1_555
O7 C12_2 1_555 1_555
O8_2 C12_2 1_555 1_555
Eu5 N4 1_555 1_555
Eu6 O8_2 1_555 1_555
O7 Eu5 1_555 1_555
C11_2 C10_2 1_555 1_555
O6_2 C11_2 1_555 1_555
O9_2 Eu5 1_555 1_555
C13_2 O9_2 1_555 1_555
O11_2 Eu5 1_555 1_555
C14_2 C13_2 1_555 1_555
O21 C14_2 1_555 1_555
O15_2 Eu5 1_555 1_555
H9_2 O15_2 1_555 1_555
H10_2 O15_2 1_555 1_555
Eu4_2 O6_2 1_555 1_555
O16_2 Eu5 1_555 1_555
C11_2 O5_2 1_555 1_555
O11_2 C14_2 1_555 1_555
H3_2 C7_2 1_555 1_555
H5_2 O13_2 1_555 1_555
H6_2 O13_2 1_555 1_555
Eu3 N1_2 1_555 1_555
N1_2 C1_2 1_555 1_555
C1_2 H1_2 1_555 1_555
N2_2 C1_2 1_555 1_555
C2_2 N2_2 1_555 1_555
C3_2 C2_2 1_555 1_555
H2_2 C3_2 1_555 1_555
C4_2 N1_2 1_555 1_555
C5_2 C4_2 1_555 1_555
O1_2 Eu3 1_555 1_555
O2_2 C5_2 1_555 1_555
C6_2 C2_2 1_555 1_555
O4_2 C6_2 1_555 1_555
N3_2 Eu3 1_555 1_555
O14_2 Eu3 1_555 1_555
H7_2 O14_2 1_555 1_555
H8_2 O14_2 1_555 1_555
O17_2 Eu3 1_555 1_555
C3_2 C4_2 1_555 1_555
C5_2 O1_2 1_555 1_555
C6_2 O3_2 1_555 1_555
O3_3 Eu6 1_555 1_555
O9_3 Eu6 1_555 1_555
C13_3 O9_3 1_555 1_555
O11_3 Eu6 1_555 1_555
C14_3 C13_3 1_555 1_555
O12_2 C14_3 1_555 1_555
O15_3 Eu6 1_555 1_555
H9_3 O15_3 1_555 1_555
H10_3 O15_3 1_555 1_555
N5_2 Eu6 1_555 1_555
O18_2 Eu6 1_555 1_555
O11_3 C14_3 1_555 1_555
Eu4 O10_2 1_555 1_555
Eu4_2 N1_3 1_555 1_555
N1_3 C1_3 1_555 1_555
C1_3 H1_3 1_555 1_555
N2_3 C1_3 1_555 1_555
C2_3 N2_3 1_555 1_555
C3_3 C2_3 1_555 1_555
H2_3 C3_3 1_555 1_555
C4_3 N1_3 1_555 1_555
C5_3 C4_3 1_555 1_555
O1_3 Eu4_2 1_555 1_555
O16_2 C5_3 1_555 1_555
C6_3 C2_3 1_555 1_555
O4_3 C6_3 1_555 1_555
N3_3 Eu4_2 1_555 1_555
C7_3 N3_3 1_555 1_555
H3_3 C7_3 1_555 1_555
N5_2 C7_3 1_555 1_555
C8_3 N5_2 1_555 1_555
C9_3 C8_3 1_555 1_555
H4_3 C9_3 1_555 1_555
C10_3 N3_3 1_555 1_555
C11_3 C10_3 1_555 1_555
O5_3 Eu4_2 1_555 1_555
O17_2 C11_3 1_555 1_555
C12_3 C8_3 1_555 1_555
O18_2 C12_3 1_555 1_555
O19_2 C12_3 1_555 1_555
O13_3 Eu4_2 1_555 1_555
O14_3 Eu4_2 1_555 1_555
H5_3 O13_3 1_555 1_555
H6_3 O13_3 1_555 1_555
H7_3 O14_3 1_555 1_555
H8_3 O14_3 1_555 1_555
O20_2 Eu4_2 1_555 1_555
O21_2 Eu4_2 1_555 1_555
C3_3 C4_3 1_555 1_555
C5_3 O1_3 1_555 1_555
C9_3 C10_3 1_555 1_555
C11_3 O5_3 1_555 1_555
Eu4 N1_4 1_555 1_555
N1_4 C1_4 1_555 1_555
C1_4 H1_4 1_555 1_555
N2_4 C1_4 1_555 1_555
C2_4 N2_4 1_555 1_555
C3_4 C2_4 1_555 1_555
H2_4 C3_4 1_555 1_555
C4_4 N1_4 1_555 1_555
C5_4 C4_4 1_555 1_555
O1_4 Eu4 1_555 1_555
O16 C5_4 1_555 1_555
C6_4 C2_4 1_555 1_555
O4_4 C6_4 1_555 1_555
N3_4 Eu4 1_555 1_555
C7_4 N3_4 1_555 1_555
H3_4 C7_4 1_555 1_555
N4_2 C7_4 1_555 1_555
C8_4 N4_2 1_555 1_555
C9_4 C8_4 1_555 1_555
H4_4 C9_4 1_555 1_555
C10_4 N3_4 1_555 1_555
C11_4 C10_4 1_555 1_555
O5_4 Eu4 1_555 1_555
O17 C11_4 1_555 1_555
C12_4 C8_4 1_555 1_555
O7_2 C12_4 1_555 1_555
O19 C12_4 1_555 1_555
O13_4 Eu4 1_555 1_555
O14_4 Eu4 1_555 1_555
H5_4 O13_4 1_555 1_555
H6_4 O13_4 1_555 1_555
H7_4 O14_4 1_555 1_555
H8_4 O14_4 1_555 1_555
Eu7 N4_2 1_555 1_555
C3_4 C4_4 1_555 1_555
C5_4 O1_4 1_555 1_555
C9_4 C10_4 1_555 1_555
C11_4 O5_4 1_555 1_555
O7_2 Eu7 1_555 1_555
O3_4 Eu7 1_555 1_555
O9_4 Eu7 1_555 1_555
C13_4 O9_4 1_555 1_555
O20_2 C13_4 1_555 1_555
O11_4 Eu7 1_555 1_555
C14_4 C13_4 1_555 1_555
O21_2 C14_4 1_555 1_555
O15_4 Eu7 1_555 1_555
H9_4 O15_4 1_555 1_555
H10_4 O15_4 1_555 1_555
O11_4 C14_4 1_555 1_555

#END
