
###############################################################################
#
# This file contains modified crystal structure data generated from the
# MOF subset of the Cambridge Structural Database (CSD) v543 
# hosted by the Cambridge Crystallographic Data Centre (CCDC).
#
# This work is licensed under the Creative Commons
# Attribution-NonCommercial-ShareAlike 4.0 International License.
# To view a copy of this license, visit
# http://creativecommons.org/licenses/by-nc-sa/4.0/
# or send a letter to
# Creative Commons, PO Box 1866, Mountain View, CA 94042, USA.
#
# CIF created using the CSD Python API on 29 September 2022
# The structure has been converted into the P1 space group
# The structure has a 3D framework
# The original CSD entry ABEYAJ is in the orthorhombic crystal system
# The framework has been calculated to contain at least 10.0% void space
# The void calculation uses a probe of radius 1.32A, grid spacing 0.4
#
###############################################################################

data_ABEYAJ
_chemical_formula_moiety         '(C56 H40 N16 O58 Sm8)n'
_symmetry_cell_setting           triclinic
_symmetry_space_group_name_H-M   'P 1'
_symmetry_Int_Tables_number      1
_space_group_name_Hall           'P 1'
loop_
_symmetry_equiv_pos_site_id
_symmetry_equiv_pos_as_xyz
1 x,y,z
_cell_length_a                   11.8680(2)
_cell_length_b                   10.9620(3)
_cell_length_c                   19.3070(4)
_cell_angle_alpha                90
_cell_angle_beta                 90
_cell_angle_gamma                90
_cell_volume                     2511.78
loop_
_atom_site_label
_atom_site_type_symbol
_atom_site_fract_x
_atom_site_fract_y
_atom_site_fract_z
Sm7 Sm 0.02708(2) 0.38120(3) 0.184365(17)
Sm2 Sm 0.52708(2) 0.11880(3) 0.184365(17)
O3 O 0.3955(4) 0.0442(4) 0.0944(2)
C13 C 0.6198(6) 0.1779(6) 0.0290(4)
O10 O 0.6232(4) 0.0914(4) 0.0729(2)
O11 O 0.5814(4) 0.3905(4) 0.0154(2)
C14 C 0.5675(6) 0.2995(6) 0.0531(4)
O12 O 0.5132(4) 0.2958(4) 0.1099(2)
O15 O 0.5465(4) 0.0819(4) 0.3088(2)
H9 H 0.5980 0.0353 0.3257
H10 H 0.5331 0.1348 0.3415
N5 N 0.5496(4) 0.3330(5) 0.2548(3)
O18 O 0.7161(4) 0.2002(4) 0.1957(2)
O19 O 0.3461(4) 0.1660(4) 0.2280(2)
O9 O 0.6535(4) 0.1747(4) 0.9677(2)
Sm4 Sm 0.65766(3) 0.36276(3) 0.898815(15)
Sm1 Sm 0.34234(3) 0.63724(3) 0.398815(15)
N1 N 0.3811(4) 0.7296(5) 0.2738(3)
C1 C 0.4408(6) 0.8302(6) 0.2606(3)
H1 H 0.4953 0.8520 0.2929
N2 N 0.4296(4) 0.9016(5) 0.2060(3)
C2 C 0.3559(5) 0.8644(6) 0.1575(3)
C3 C 0.2951(5) 0.7569(6) 0.1650(3)
H2 H 0.2474 0.7291 0.1302
C4 C 0.3080(6) 0.6936(6) 0.2252(3)
C5 C 0.2313(5) 0.5870(6) 0.2435(3)
O1 O 0.2399(4) 0.5455(4) 0.3038(2)
O2 O 0.1657(3) 0.5502(4) 0.1969(2)
C6 C 0.3372(6) 0.9483(6) 0.0957(3)
O4 O 0.2668(5) 0.9155(5) 0.0535(3)
N3 N 0.4909(4) 0.5011(5) 0.3243(3)
C7 C 0.4725(6) 0.3993(6) 0.2877(3)
H3 H 0.3984 0.3723 0.2849
C8 C 0.6571(5) 0.3735(6) 0.2600(3)
C9 C 0.6839(6) 0.4779(6) 0.2953(3)
H4 H 0.7580 0.5049 0.2985
C10 C 0.5972(5) 0.5413(6) 0.3258(3)
C11 C 0.6165(6) 0.6610(6) 0.3639(3)
O5 O 0.5344(3) 0.7060(4) 0.3967(2)
O6 O 0.7115(4) 0.7081(4) 0.3564(2)
C12 C 0.7469(6) 0.2964(6) 0.2246(3)
O8 O 0.8461(4) 0.3340(4) 0.2280(2)
O13 O 0.3219(4) 0.4218(4) 0.4263(2)
O14 O 0.1627(4) 0.6168(4) 0.4598(2)
H5 H 0.3874 0.3894 0.4146
H6 H 0.3123 0.4082 0.4714
H7 H 0.1349 0.5546 0.4928
H8 H 0.1162 0.6849 0.4579
Sm3 Sm 0.84234(3) 0.86276(3) 0.398815(15)
O16 O 0.6657(3) 0.9498(4) 0.1969(2)
O17 O 0.2115(4) 0.7919(4) 0.3564(2)
O20 O 0.3465(4) 0.8253(4) 0.4677(2)
O21 O 0.4186(4) 0.6095(4) 0.5154(2)
N1_2 N 0.6189(4) 0.2704(5) 0.7738(3)
C1_2 C 0.5592(6) 0.1698(6) 0.7606(3)
H1_2 H 0.5047 0.1480 0.7929
N2_2 N 0.5704(4) 0.0984(5) 0.7060(3)
C2_2 C 0.6441(5) 0.1356(6) 0.6575(3)
C3_2 C 0.7049(5) 0.2431(6) 0.6650(3)
H2_2 H 0.7526 0.2709 0.6302
C4_2 C 0.6920(6) 0.3064(6) 0.7252(3)
C5_2 C 0.7687(5) 0.4130(6) 0.7435(3)
O1_2 O 0.7601(4) 0.4545(4) 0.8038(2)
O2_2 O 0.8343(3) 0.4498(4) 0.6969(2)
C6_2 C 0.6628(6) 0.0517(6) 0.5957(3)
O4_2 O 0.7332(5) 0.0845(5) 0.5535(3)
N3_2 N 0.5091(4) 0.4989(5) 0.8243(3)
C7_2 C 0.5275(6) 0.6007(6) 0.7877(3)
H3_2 H 0.6016 0.6277 0.7849
N4 N 0.4504(4) 0.6670(5) 0.7548(3)
C8_2 C 0.3429(5) 0.6265(6) 0.7600(3)
C9_2 C 0.3161(6) 0.5221(6) 0.7953(3)
H4_2 H 0.2420 0.4951 0.7985
C10_2 C 0.4028(5) 0.4587(6) 0.8258(3)
C11_2 C 0.3835(6) 0.3390(6) 0.8639(3)
O5_2 O 0.4656(3) 0.2940(4) 0.8967(2)
O6_2 O 0.2885(4) 0.2919(4) 0.8564(2)
C12_2 C 0.2531(6) 0.7036(6) 0.7246(3)
O7 O 0.2839(4) 0.7998(4) 0.6957(2)
O8_2 O 0.1539(4) 0.6660(4) 0.7280(2)
O13_2 O 0.6781(4) 0.5782(4) 0.9263(2)
O14_2 O 0.8373(4) 0.3832(4) 0.9598(2)
H5_2 H 0.6126 0.6106 0.9146
H6_2 H 0.6877 0.5918 0.9714
H7_2 H 0.8651 0.4454 0.9928
H8_2 H 0.8838 0.3151 0.9579
Sm3_2 Sm 0.15766(3) 0.13724(3) 0.898815(15)
Sm5 Sm 0.97292(2) 0.61880(3) 0.684365(17)
Sm6 Sm 0.47292(2) 0.88120(3) 0.684365(17)
O16_2 O 0.3343(3) 0.0502(4) 0.6969(2)
O17_2 O 0.7885(4) 0.2081(4) 0.8564(2)
O3_2 O 0.6045(4) 0.9558(4) 0.5944(2)
C13_2 C 0.3802(6) 0.8221(6) 0.5290(4)
O10_2 O 0.3768(4) 0.9086(4) 0.5729(2)
C14_2 C 0.4325(6) 0.7005(6) 0.5531(4)
O12_2 O 0.4868(4) 0.7042(4) 0.6099(2)
O15_2 O 0.4535(4) 0.9181(4) 0.8088(2)
H9_2 H 0.4020 0.9647 0.8257
H10_2 H 0.4669 0.8652 0.8415
O19_2 O 0.6539(4) 0.8340(4) 0.7280(2)
O21_2 O 0.0814(4) 0.1095(4) 0.0154(2)
N1_3 N 0.1189(4) 0.2296(5) 0.7738(3)
C1_3 C 0.0592(6) 0.3302(6) 0.7606(3)
H1_3 H 0.0047 0.3520 0.7929
N2_3 N 0.0704(4) 0.4016(5) 0.7060(3)
C2_3 C 0.1441(5) 0.3644(6) 0.6575(3)
C3_3 C 0.2049(5) 0.2569(6) 0.6650(3)
H2_3 H 0.2526 0.2291 0.6302
C4_3 C 0.1920(6) 0.1936(6) 0.7252(3)
C5_3 C 0.2687(5) 0.0870(6) 0.7435(3)
O1_3 O 0.2601(4) 0.0455(4) 0.8038(2)
C6_3 C 0.1628(6) 0.4483(6) 0.5957(3)
O3_3 O 0.1045(4) 0.5442(4) 0.5944(2)
O4_3 O 0.2332(5) 0.4155(5) 0.5535(3)
N3_3 N 0.0091(4) 0.0011(5) 0.8243(3)
O14_3 O 0.3373(4) 0.1168(4) 0.9598(2)
H7_3 H 0.3651 0.0546 0.9928
H8_3 H 0.3838 0.1849 0.9579
O20_2 O 0.1535(4) 0.3253(4) 0.9677(2)
C7_3 C 0.0275(6) 0.8993(6) 0.7877(3)
H3_3 H 0.1016 0.8723 0.7849
O13_3 O 0.1781(4) 0.9218(4) 0.9263(2)
H5_3 H 0.1126 0.8894 0.9146
H6_3 H 0.1877 0.9082 0.9714
H4_3 H 0.7420 0.0049 0.7985
C10_3 C 0.9028(5) 0.0413(6) 0.8258(3)
C11_3 C 0.8835(6) 0.1610(6) 0.8639(3)
O5_3 O 0.9656(3) 0.2060(4) 0.8967(2)
O9_2 O 0.8465(4) 0.6747(4) 0.4677(2)
C13_3 C 0.8802(6) 0.6779(6) 0.5290(4)
O10_3 O 0.8768(4) 0.5914(4) 0.5729(2)
O11_2 O 0.9186(4) 0.8905(4) 0.5154(2)
C14_3 C 0.9325(6) 0.7995(6) 0.5531(4)
O12_3 O 0.9868(4) 0.7958(4) 0.6099(2)
O15_3 O 0.9535(4) 0.5819(4) 0.8088(2)
H9_3 H 0.9020 0.5353 0.8257
H10_3 H 0.9669 0.6348 0.8415
N5_2 N 0.9504(4) 0.8330(5) 0.7548(3)
O18_2 O 0.7839(4) 0.7002(4) 0.6957(2)
C8_3 C 0.8429(5) 0.8735(6) 0.7600(3)
C9_3 C 0.8161(6) 0.9779(6) 0.7953(3)
C12_3 C 0.7531(6) 0.7964(6) 0.7246(3)
N4_2 N 0.0496(4) 0.1670(5) 0.2548(3)
C8_4 C 0.1571(5) 0.1265(6) 0.2600(3)
C9_4 C 0.1839(6) 0.0221(6) 0.2953(3)
C12_4 C 0.2469(6) 0.2036(6) 0.2246(3)
O7_2 O 0.2161(4) 0.2998(4) 0.1957(2)
H4_4 H 0.2580 0.9951 0.2985
C10_4 C 0.0972(5) 0.9587(6) 0.3258(3)
C11_4 C 0.1165(6) 0.8390(6) 0.3639(3)
O5_4 O 0.0344(3) 0.7940(4) 0.3967(2)
C13_4 C 0.1198(6) 0.3221(6) 0.0290(4)
O10_4 O 0.1232(4) 0.4086(4) 0.0729(2)
C14_4 C 0.0675(6) 0.2005(6) 0.0531(4)
O12_4 O 0.0132(4) 0.2042(4) 0.1099(2)
O15_4 O 0.0465(4) 0.4181(4) 0.3088(2)
H9_4 H 0.0980 0.4647 0.3257
H10_4 H 0.0331 0.3652 0.3415
C7_4 C 0.9725(6) 0.1007(6) 0.2877(3)
H3_4 H 0.8984 0.1277 0.2849
O13_4 O 0.8219(4) 0.0782(4) 0.4263(2)
H5_4 H 0.8874 0.1106 0.4146
H6_4 H 0.8123 0.0918 0.4714
N1_4 N 0.8811(4) 0.7704(5) 0.2738(3)
C1_4 C 0.9408(6) 0.6698(6) 0.2606(3)
H1_4 H 0.9953 0.6480 0.2929
N2_4 N 0.9296(4) 0.5984(5) 0.2060(3)
C2_4 C 0.8559(5) 0.6356(6) 0.1575(3)
C3_4 C 0.7951(5) 0.7431(6) 0.1650(3)
H2_4 H 0.7474 0.7709 0.1302
C4_4 C 0.8080(6) 0.8064(6) 0.2252(3)
C5_4 C 0.7313(5) 0.9130(6) 0.2435(3)
O1_4 O 0.7399(4) 0.9545(4) 0.3038(2)
C6_4 C 0.8372(6) 0.5517(6) 0.0957(3)
O3_4 O 0.8955(4) 0.4558(4) 0.0944(2)
O4_4 O 0.7668(5) 0.5845(5) 0.0535(3)
N3_4 N 0.9909(4) 0.9989(5) 0.3243(3)
O14_4 O 0.6627(4) 0.8832(4) 0.4598(2)
H7_4 H 0.6349 0.9454 0.4928
H8_4 H 0.6162 0.8151 0.4579
loop_
_geom_bond_atom_site_label_1
_geom_bond_atom_site_label_2
_geom_bond_site_symmetry_1
_geom_bond_site_symmetry_2
O3 Sm2 1_555 1_555
C13 O10 1_555 1_555
O10 Sm2 1_555 1_555
O11 C14 1_555 1_555
C14 C13 1_555 1_555
O12 Sm2 1_555 1_555
O15 Sm2 1_555 1_555
H9 O15 1_555 1_555
H10 O15 1_555 1_555
N5 Sm2 1_555 1_555
O18 Sm2 1_555 1_555
O19 Sm2 1_555 1_555
C14 O12 1_555 1_555
Sm4 O9 1_555 1_555
Sm1 N1 1_555 1_555
N1 C1 1_555 1_555
C1 H1 1_555 1_555
N2 C1 1_555 1_555
C2 N2 1_555 1_555
C3 C2 1_555 1_555
H2 C3 1_555 1_555
C4 N1 1_555 1_555
C5 C4 1_555 1_555
O1 Sm1 1_555 1_555
O2 C5 1_555 1_555
C6 C2 1_555 1_555
O4 C6 1_555 1_555
N3 Sm1 1_555 1_555
C7 N3 1_555 1_555
H3 C7 1_555 1_555
N5 C7 1_555 1_555
C8 N5 1_555 1_555
C9 C8 1_555 1_555
H4 C9 1_555 1_555
C10 N3 1_555 1_555
C11 C10 1_555 1_555
O5 Sm1 1_555 1_555
O6 C11 1_555 1_555
C12 C8 1_555 1_555
O18 C12 1_555 1_555
O8 C12 1_555 1_555
O13 Sm1 1_555 1_555
O14 Sm1 1_555 1_555
H5 O13 1_555 1_555
H6 O13 1_555 1_555
H7 O14 1_555 1_555
H8 O14 1_555 1_555
Sm3 O6 1_555 1_555
Sm7 O2 1_555 1_555
O17 Sm1 1_555 1_555
O20 Sm1 1_555 1_555
O21 Sm1 1_555 1_555
C3 C4 1_555 1_555
C5 O1 1_555 1_555
C9 C10 1_555 1_555
C11 O5 1_555 1_555
Sm4 N1_2 1_555 1_555
N1_2 C1_2 1_555 1_555
C1_2 H1_2 1_555 1_555
N2_2 C1_2 1_555 1_555
C2_2 N2_2 1_555 1_555
C3_2 C2_2 1_555 1_555
H2_2 C3_2 1_555 1_555
C4_2 N1_2 1_555 1_555
C5_2 C4_2 1_555 1_555
O1_2 Sm4 1_555 1_555
O2_2 C5_2 1_555 1_555
C6_2 C2_2 1_555 1_555
O4_2 C6_2 1_555 1_555
N3_2 Sm4 1_555 1_555
C7_2 N3_2 1_555 1_555
H3_2 C7_2 1_555 1_555
N4 C7_2 1_555 1_555
C8_2 N4 1_555 1_555
C9_2 C8_2 1_555 1_555
H4_2 C9_2 1_555 1_555
C10_2 N3_2 1_555 1_555
C11_2 C10_2 1_555 1_555
O5_2 Sm4 1_555 1_555
O6_2 C11_2 1_555 1_555
C12_2 C8_2 1_555 1_555
O7 C12_2 1_555 1_555
O8_2 C12_2 1_555 1_555
O13_2 Sm4 1_555 1_555
O14_2 Sm4 1_555 1_555
H5_2 O13_2 1_555 1_555
H6_2 O13_2 1_555 1_555
H7_2 O14_2 1_555 1_555
H8_2 O14_2 1_555 1_555
Sm3_2 O6_2 1_555 1_555
Sm5 O2_2 1_555 1_555
Sm6 N4 1_555 1_555
O17_2 Sm4 1_555 1_555
C3_2 C4_2 1_555 1_555
C5_2 O1_2 1_555 1_555
C9_2 C10_2 1_555 1_555
C11_2 O5_2 1_555 1_555
O7 Sm6 1_555 1_555
O3_2 Sm6 1_555 1_555
O20 C13_2 1_555 1_555
C13_2 O10_2 1_555 1_555
O10_2 Sm6 1_555 1_555
O21 C14_2 1_555 1_555
C14_2 C13_2 1_555 1_555
O12_2 Sm6 1_555 1_555
O15_2 Sm6 1_555 1_555
H9_2 O15_2 1_555 1_555
H10_2 O15_2 1_555 1_555
O19_2 Sm6 1_555 1_555
C14_2 O12_2 1_555 1_555
Sm3_2 N1_3 1_555 1_555
N1_3 C1_3 1_555 1_555
C1_3 H1_3 1_555 1_555
N2_3 C1_3 1_555 1_555
C2_3 N2_3 1_555 1_555
C3_3 C2_3 1_555 1_555
H2_3 C3_3 1_555 1_555
C4_3 N1_3 1_555 1_555
C5_3 C4_3 1_555 1_555
O1_3 Sm3_2 1_555 1_555
O16_2 C5_3 1_555 1_555
C6_3 C2_3 1_555 1_555
O4_3 C6_3 1_555 1_555
N3_3 Sm3_2 1_555 1_555
O14_3 Sm3_2 1_555 1_555
H7_3 O14_3 1_555 1_555
H8_3 O14_3 1_555 1_555
O20_2 Sm3_2 1_555 1_555
C3_3 C4_3 1_555 1_555
C5_3 O1_3 1_555 1_555
C6_3 O3_3 1_555 1_555
H3_3 C7_3 1_555 1_555
H5_3 O13_3 1_555 1_555
H6_3 O13_3 1_555 1_555
C11_3 C10_3 1_555 1_555
O17_2 C11_3 1_555 1_555
O9_2 C13_3 1_555 1_555
C13_3 O10_3 1_555 1_555
O10_3 Sm5 1_555 1_555
O11_2 C14_3 1_555 1_555
C14_3 C13_3 1_555 1_555
O12_3 Sm5 1_555 1_555
O15_3 Sm5 1_555 1_555
H9_3 O15_3 1_555 1_555
H10_3 O15_3 1_555 1_555
Sm3 O9_2 1_555 1_555
N5_2 Sm5 1_555 1_555
O18_2 Sm5 1_555 1_555
C11_3 O5_3 1_555 1_555
O11_2 Sm3 1_555 1_555
C14_3 O12_3 1_555 1_555
C8_3 N5_2 1_555 1_555
C9_3 C8_3 1_555 1_555
C12_3 C8_3 1_555 1_555
O18_2 C12_3 1_555 1_555
O19_2 C12_3 1_555 1_555
C8_4 N4_2 1_555 1_555
C9_4 C8_4 1_555 1_555
C12_4 C8_4 1_555 1_555
O7_2 C12_4 1_555 1_555
O19 C12_4 1_555 1_555
Sm7 N4_2 1_555 1_555
O7_2 Sm7 1_555 1_555
C11_4 C10_4 1_555 1_555
O17 C11_4 1_555 1_555
C13_4 O10_4 1_555 1_555
O10_4 Sm7 1_555 1_555
O21_2 C14_4 1_555 1_555
C14_4 C13_4 1_555 1_555
O12_4 Sm7 1_555 1_555
O15_4 Sm7 1_555 1_555
H9_4 O15_4 1_555 1_555
H10_4 O15_4 1_555 1_555
C11_4 O5_4 1_555 1_555
C14_4 O12_4 1_555 1_555
H3_4 C7_4 1_555 1_555
H5_4 O13_4 1_555 1_555
H6_4 O13_4 1_555 1_555
Sm3 N1_4 1_555 1_555
N1_4 C1_4 1_555 1_555
C1_4 H1_4 1_555 1_555
N2_4 C1_4 1_555 1_555
C2_4 N2_4 1_555 1_555
C3_4 C2_4 1_555 1_555
H2_4 C3_4 1_555 1_555
C4_4 N1_4 1_555 1_555
C5_4 C4_4 1_555 1_555
O1_4 Sm3 1_555 1_555
O16 C5_4 1_555 1_555
C6_4 C2_4 1_555 1_555
O4_4 C6_4 1_555 1_555
N3_4 Sm3 1_555 1_555
O14_4 Sm3 1_555 1_555
H7_4 O14_4 1_555 1_555
H8_4 O14_4 1_555 1_555
C3_4 C4_4 1_555 1_555
C5_4 O1_4 1_555 1_555
C6_4 O3_4 1_555 1_555

#END
