
###############################################################################
#
# This file contains modified crystal structure data generated from the
# MOF subset of the Cambridge Structural Database (CSD) v543 
# hosted by the Cambridge Crystallographic Data Centre (CCDC).
#
# This work is licensed under the Creative Commons
# Attribution-NonCommercial-ShareAlike 4.0 International License.
# To view a copy of this license, visit
# http://creativecommons.org/licenses/by-nc-sa/4.0/
# or send a letter to
# Creative Commons, PO Box 1866, Mountain View, CA 94042, USA.
#
# CIF created using the CSD Python API on 29 September 2022
# The structure has been converted into the P1 space group
# The structure has a 3D framework
# The original CSD entry ABEYIR is in the orthorhombic crystal system
# The framework has been calculated to contain at least 10.0% void space
# The void calculation uses a probe of radius 1.32A, grid spacing 0.4
#
###############################################################################

data_ABEYIR
_chemical_formula_moiety         '(C56 H40 Gd8 N16 O58)n'
_symmetry_cell_setting           triclinic
_symmetry_space_group_name_H-M   'P 1'
_symmetry_Int_Tables_number      1
_space_group_name_Hall           'P 1'
loop_
_symmetry_equiv_pos_site_id
_symmetry_equiv_pos_as_xyz
1 x,y,z
_cell_length_a                   11.7927(4)
_cell_length_b                   10.9340(3)
_cell_length_c                   19.2152(7)
_cell_angle_alpha                90
_cell_angle_beta                 90
_cell_angle_gamma                90
_cell_volume                     2477.63
loop_
_atom_site_label
_atom_site_type_symbol
_atom_site_fract_x
_atom_site_fract_y
_atom_site_fract_z
O3 O 0.1015(4) 0.0459(3) 0.8781(2)
O19 O 0.1512(4) 0.1658(3) 0.7451(2)
Gd1 Gd 0.15724(2) 0.63790(2) 0.574160(15)
N1 N 0.1165(4) 0.7302(4) 0.6984(3)
C1 C 0.0570(5) 0.8315(5) 0.7112(3)
H1 H 0.0031 0.8542 0.6784
N2 N 0.0682(4) 0.9029(4) 0.7669(3)
C2 C 0.1407(5) 0.8650(5) 0.8153(3)
C3 C 0.2031(5) 0.7571(5) 0.8086(3)
H2 H 0.2507 0.7293 0.8437
C4 C 0.1902(5) 0.6950(5) 0.7479(3)
C5 C 0.2672(5) 0.5861(5) 0.7304(3)
O1 O 0.2595(4) 0.5462(3) 0.6686(2)
O2 O 0.3327(3) 0.5493(3) 0.7763(2)
C6 C 0.1589(6) 0.9476(5) 0.8777(3)
O4 O 0.2280(5) 0.9133(4) 0.9207(3)
N3 N 0.0092(4) 0.5008(4) 0.6488(3)
C7 C 0.0271(5) 0.3984(5) 0.6858(3)
H3 H 0.1014 0.3706 0.6887
O13 O 0.1776(3) 0.4249(3) 0.5476(2)
O14 O 0.3354(3) 0.6164(3) 0.5136(2)
H5 H 0.1274 0.3682 0.5484
H6 H 0.2076 0.4172 0.5071
H7 H 0.3457 0.6095 0.4684
H8 H 0.3781 0.6805 0.5224
Gd5 Gd 0.47056(2) 0.38086(2) 0.788630(17)
O17 O 0.2877(3) 0.7915(3) 0.6167(2)
O20 O 0.0825(4) 0.6107(3) 0.4577(2)
O21 O 0.1536(4) 0.8269(3) 0.5065(2)
O11 O 0.8464(4) 0.1731(3) 0.0065(2)
Gd4 Gd 0.84276(2) 0.36210(2) 0.074160(15)
Gd2 Gd 0.97056(2) 0.11914(2) 0.788630(17)
O9 O 0.9175(4) 0.3893(3) 0.9577(2)
C13 C 0.9308(6) 0.2995(5) 0.9196(3)
O10 O 0.9849(4) 0.2953(3) 0.8628(3)
C14 C 0.8793(5) 0.1774(5) 0.9450(4)
O12 O 0.8751(4) 0.0909(3) 0.8997(2)
O15 O 0.9515(3) 0.0840(3) 0.6646(2)
H9 H 0.8862 0.0480 0.6575
H10 H 0.9581 0.1295 0.6278
N5 N 0.9486(4) 0.3331(4) 0.7187(3)
O18 O 0.7824(3) 0.1998(3) 0.7780(2)
C8 C 0.8417(5) 0.3734(5) 0.7136(3)
C9 C 0.8138(5) 0.4790(5) 0.6776(3)
H4 H 0.7394 0.5068 0.6743
C10 C 0.9027(5) 0.5399(5) 0.6472(3)
C11 C 0.8836(5) 0.6604(5) 0.6090(3)
O5 O 0.9646(3) 0.7046(3) 0.5746(3)
O6 O 0.7877(3) 0.7085(3) 0.6167(2)
C12 C 0.7503(5) 0.2965(5) 0.7491(3)
O8 O 0.6512(4) 0.3342(3) 0.7451(2)
Gd3 Gd 0.65724(2) 0.86210(2) 0.574160(15)
O16 O 0.8327(3) 0.9507(3) 0.7763(2)
N4 N 0.0514(4) 0.6669(4) 0.2187(3)
C8_2 C 0.1583(5) 0.6266(5) 0.2136(3)
C9_2 C 0.1862(5) 0.5210(5) 0.1776(3)
H4_2 H 0.2606 0.4932 0.1743
C10_2 C 0.0973(5) 0.4601(5) 0.1472(3)
C11_2 C 0.1164(5) 0.3396(5) 0.1090(3)
O5_2 O 0.0354(3) 0.2954(3) 0.0746(3)
O6_2 O 0.2123(3) 0.2915(3) 0.1167(2)
C12_2 C 0.2497(5) 0.7035(5) 0.2491(3)
O7 O 0.2176(3) 0.8002(3) 0.2780(2)
O8_2 O 0.3488(4) 0.6658(3) 0.2451(2)
Gd3_2 Gd 0.34276(2) 0.13790(2) 0.074160(15)
Gd6 Gd 0.02944(2) 0.88086(2) 0.288630(17)
Gd7 Gd 0.52944(2) 0.61914(2) 0.288630(17)
O16_2 O 0.1673(3) 0.0493(3) 0.2763(2)
C13_2 C 0.0692(6) 0.7005(5) 0.4196(3)
O10_2 O 0.0151(4) 0.7047(3) 0.3628(3)
C14_2 C 0.1207(5) 0.8226(5) 0.4450(4)
O12_2 O 0.1249(4) 0.9091(3) 0.3997(2)
O15_2 O 0.0485(3) 0.9160(3) 0.1646(2)
H9_2 H 0.1138 0.9520 0.1575
H10_2 H 0.0419 0.8705 0.1278
N1_2 N 0.8835(4) 0.2698(4) 0.1984(3)
C1_2 C 0.9430(5) 0.1685(5) 0.2112(3)
H1_2 H 0.9969 0.1458 0.1784
N2_2 N 0.9318(4) 0.0971(4) 0.2669(3)
C2_2 C 0.8593(5) 0.1350(5) 0.3153(3)
C3_2 C 0.7969(5) 0.2429(5) 0.3086(3)
H2_2 H 0.7493 0.2707 0.3437
C4_2 C 0.8098(5) 0.3050(5) 0.2479(3)
C5_2 C 0.7328(5) 0.4139(5) 0.2304(3)
O1_2 O 0.7405(4) 0.4538(3) 0.1686(2)
O2_2 O 0.6673(3) 0.4507(3) 0.2763(2)
C6_2 C 0.8411(6) 0.0524(5) 0.3777(3)
O4_2 O 0.7720(5) 0.0867(4) 0.4207(3)
N3_2 N 0.9908(4) 0.4992(4) 0.1488(3)
C7_2 C 0.9729(5) 0.6016(5) 0.1858(3)
H3_2 H 0.8986 0.6294 0.1887
O13_2 O 0.8224(3) 0.5751(3) 0.0476(2)
O14_2 O 0.6646(3) 0.3836(3) 0.0136(2)
H5_2 H 0.8726 0.6318 0.0484
H6_2 H 0.7924 0.5828 0.0071
H8_2 H 0.6219 0.3195 0.0224
O17_2 O 0.7123(3) 0.2085(3) 0.1167(2)
H7_2 H 0.6543 0.3905 0.9684
O3_2 O 0.8985(4) 0.9541(3) 0.3781(2)
O19_2 O 0.8488(4) 0.8342(3) 0.2451(2)
N1_3 N 0.3835(4) 0.2302(4) 0.1984(3)
C1_3 C 0.4430(5) 0.3315(5) 0.2112(3)
H1_3 H 0.4969 0.3542 0.1784
N2_3 N 0.4318(4) 0.4029(4) 0.2669(3)
C2_3 C 0.3593(5) 0.3650(5) 0.3153(3)
C3_3 C 0.2969(5) 0.2571(5) 0.3086(3)
H2_3 H 0.2493 0.2293 0.3437
C4_3 C 0.3098(5) 0.1950(5) 0.2479(3)
C5_3 C 0.2328(5) 0.0861(5) 0.2304(3)
O1_3 O 0.2405(4) 0.0462(3) 0.1686(2)
C6_3 C 0.3411(6) 0.4476(5) 0.3777(3)
O3_3 O 0.3985(4) 0.5459(3) 0.3781(2)
O4_3 O 0.2720(5) 0.4133(4) 0.4207(3)
N3_3 N 0.4908(4) 0.0008(4) 0.1488(3)
H4_3 H 0.7606 0.0068 0.1743
C10_3 C 0.5973(5) 0.0399(5) 0.1472(3)
C11_3 C 0.6164(5) 0.1604(5) 0.1090(3)
O5_3 O 0.5354(3) 0.2046(3) 0.0746(3)
O9_2 O 0.5825(4) 0.8893(3) 0.4577(2)
C13_3 C 0.5692(6) 0.7995(5) 0.4196(3)
O10_3 O 0.5151(4) 0.7953(3) 0.3628(3)
O11_2 O 0.6536(4) 0.6731(3) 0.5065(2)
C14_3 C 0.6207(5) 0.6774(5) 0.4450(4)
O12_3 O 0.6249(4) 0.5909(3) 0.3997(2)
O14_3 O 0.1646(3) 0.1164(3) 0.0136(2)
O15_3 O 0.5485(3) 0.5840(3) 0.1646(2)
H8_3 H 0.1219 0.1805 0.0224
H9_3 H 0.6138 0.5480 0.1575
H10_3 H 0.5419 0.6295 0.1278
N5_2 N 0.5514(4) 0.8331(4) 0.2187(3)
O18_2 O 0.7176(3) 0.6998(3) 0.2780(2)
O21_2 O 0.3464(4) 0.3269(3) 0.0065(2)
H7_3 H 0.1543 0.1095 0.9684
O20_2 O 0.4175(4) 0.1107(3) 0.9577(2)
C7_3 C 0.4729(5) 0.8984(5) 0.1858(3)
H3_3 H 0.3986 0.8706 0.1887
C8_3 C 0.6583(5) 0.8734(5) 0.2136(3)
C9_3 C 0.6862(5) 0.9790(5) 0.1776(3)
C12_3 C 0.7497(5) 0.7965(5) 0.2491(3)
O13_3 O 0.3224(3) 0.9249(3) 0.0476(2)
H5_3 H 0.3726 0.8682 0.0484
H6_3 H 0.2924 0.9172 0.0071
C7_4 C 0.5271(5) 0.1016(5) 0.6858(3)
H3_4 H 0.6014 0.1294 0.6887
N4_2 N 0.4486(4) 0.1669(4) 0.7187(3)
C8_4 C 0.3417(5) 0.1266(5) 0.7136(3)
C9_4 C 0.3138(5) 0.0210(5) 0.6776(3)
C12_4 C 0.2503(5) 0.2035(5) 0.7491(3)
O7_2 O 0.2824(3) 0.3002(3) 0.7780(2)
O13_4 O 0.6776(3) 0.0751(3) 0.5476(2)
H5_4 H 0.6274 0.1318 0.5484
H6_4 H 0.7076 0.0828 0.5071
N1_4 N 0.6165(4) 0.7698(4) 0.6984(3)
C1_4 C 0.5570(5) 0.6685(5) 0.7112(3)
H1_4 H 0.5031 0.6458 0.6784
N2_4 N 0.5682(4) 0.5971(4) 0.7669(3)
C2_4 C 0.6407(5) 0.6350(5) 0.8153(3)
C3_4 C 0.7031(5) 0.7429(5) 0.8086(3)
H2_4 H 0.7507 0.7707 0.8437
C4_4 C 0.6902(5) 0.8050(5) 0.7479(3)
C5_4 C 0.7672(5) 0.9139(5) 0.7304(3)
O1_4 O 0.7595(4) 0.9538(3) 0.6686(2)
C6_4 C 0.6589(6) 0.5524(5) 0.8777(3)
O3_4 O 0.6015(4) 0.4541(3) 0.8781(2)
O4_4 O 0.7280(5) 0.5867(4) 0.9207(3)
N3_4 N 0.5092(4) 0.9992(4) 0.6488(3)
H4_4 H 0.2394 0.9932 0.6743
C10_4 C 0.4027(5) 0.9601(5) 0.6472(3)
C11_4 C 0.3836(5) 0.8396(5) 0.6090(3)
O5_4 O 0.4646(3) 0.7954(3) 0.5746(3)
C13_4 C 0.4308(6) 0.2005(5) 0.9196(3)
O10_4 O 0.4849(4) 0.2047(3) 0.8628(3)
C14_4 C 0.3793(5) 0.3226(5) 0.9450(4)
O12_4 O 0.3751(4) 0.4091(3) 0.8997(2)
O14_4 O 0.8354(3) 0.8836(3) 0.5136(2)
O15_4 O 0.4515(3) 0.4160(3) 0.6646(2)
H7_4 H 0.8457 0.8905 0.4684
H8_4 H 0.8781 0.8195 0.5224
H9_4 H 0.3862 0.4520 0.6575
H10_4 H 0.4581 0.3705 0.6278
loop_
_geom_bond_atom_site_label_1
_geom_bond_atom_site_label_2
_geom_bond_site_symmetry_1
_geom_bond_site_symmetry_2
Gd1 N1 1_555 1_555
N1 C1 1_555 1_555
C1 H1 1_555 1_555
N2 C1 1_555 1_555
C2 N2 1_555 1_555
C3 C2 1_555 1_555
H2 C3 1_555 1_555
C4 N1 1_555 1_555
C5 C4 1_555 1_555
O1 Gd1 1_555 1_555
O2 C5 1_555 1_555
C6 C2 1_555 1_555
O4 C6 1_555 1_555
N3 Gd1 1_555 1_555
C7 N3 1_555 1_555
H3 C7 1_555 1_555
O13 Gd1 1_555 1_555
O14 Gd1 1_555 1_555
H5 O13 1_555 1_555
H6 O13 1_555 1_555
H7 O14 1_555 1_555
H8 O14 1_555 1_555
Gd5 O2 1_555 1_555
O17 Gd1 1_555 1_555
O20 Gd1 1_555 1_555
O21 Gd1 1_555 1_555
C3 C4 1_555 1_555
C5 O1 1_555 1_555
O11 Gd4 1_555 1_555
O9 C13 1_555 1_555
C13 O10 1_555 1_555
O10 Gd2 1_555 1_555
C14 C13 1_555 1_555
O12 Gd2 1_555 1_555
O15 Gd2 1_555 1_555
H9 O15 1_555 1_555
H10 O15 1_555 1_555
N5 Gd2 1_555 1_555
O18 Gd2 1_555 1_555
C14 O12 1_555 1_555
C8 N5 1_555 1_555
C9 C8 1_555 1_555
H4 C9 1_555 1_555
C11 C10 1_555 1_555
O6 C11 1_555 1_555
C12 C8 1_555 1_555
O18 C12 1_555 1_555
O8 C12 1_555 1_555
Gd3 O6 1_555 1_555
Gd5 O8 1_555 1_555
C9 C10 1_555 1_555
C11 O5 1_555 1_555
C8_2 N4 1_555 1_555
C9_2 C8_2 1_555 1_555
H4_2 C9_2 1_555 1_555
C11_2 C10_2 1_555 1_555
O6_2 C11_2 1_555 1_555
C12_2 C8_2 1_555 1_555
O7 C12_2 1_555 1_555
O8_2 C12_2 1_555 1_555
Gd3_2 O6_2 1_555 1_555
Gd6 N4 1_555 1_555
Gd7 O8_2 1_555 1_555
C9_2 C10_2 1_555 1_555
C11_2 O5_2 1_555 1_555
O7 Gd6 1_555 1_555
O20 C13_2 1_555 1_555
C13_2 O10_2 1_555 1_555
O10_2 Gd6 1_555 1_555
O21 C14_2 1_555 1_555
C14_2 C13_2 1_555 1_555
O12_2 Gd6 1_555 1_555
O15_2 Gd6 1_555 1_555
H9_2 O15_2 1_555 1_555
H10_2 O15_2 1_555 1_555
C14_2 O12_2 1_555 1_555
Gd4 N1_2 1_555 1_555
N1_2 C1_2 1_555 1_555
C1_2 H1_2 1_555 1_555
N2_2 C1_2 1_555 1_555
C2_2 N2_2 1_555 1_555
C3_2 C2_2 1_555 1_555
H2_2 C3_2 1_555 1_555
C4_2 N1_2 1_555 1_555
C5_2 C4_2 1_555 1_555
O1_2 Gd4 1_555 1_555
O2_2 C5_2 1_555 1_555
C6_2 C2_2 1_555 1_555
O4_2 C6_2 1_555 1_555
N3_2 Gd4 1_555 1_555
C7_2 N3_2 1_555 1_555
H3_2 C7_2 1_555 1_555
O13_2 Gd4 1_555 1_555
O14_2 Gd4 1_555 1_555
H5_2 O13_2 1_555 1_555
H6_2 O13_2 1_555 1_555
H8_2 O14_2 1_555 1_555
Gd7 O2_2 1_555 1_555
O17_2 Gd4 1_555 1_555
C3_2 C4_2 1_555 1_555
C5_2 O1_2 1_555 1_555
Gd3_2 N1_3 1_555 1_555
Gd7 N2_3 1_555 1_555
N1_3 C1_3 1_555 1_555
C1_3 H1_3 1_555 1_555
N2_3 C1_3 1_555 1_555
C2_3 N2_3 1_555 1_555
C3_3 C2_3 1_555 1_555
H2_3 C3_3 1_555 1_555
C4_3 N1_3 1_555 1_555
C5_3 C4_3 1_555 1_555
O1_3 Gd3_2 1_555 1_555
O16_2 C5_3 1_555 1_555
C6_3 C2_3 1_555 1_555
O3_3 Gd7 1_555 1_555
O4_3 C6_3 1_555 1_555
N3_3 Gd3_2 1_555 1_555
C10_3 N3_3 1_555 1_555
C11_3 C10_3 1_555 1_555
O5_3 Gd3_2 1_555 1_555
O17_2 C11_3 1_555 1_555
O9_2 C13_3 1_555 1_555
C13_3 O10_3 1_555 1_555
O10_3 Gd7 1_555 1_555
O11_2 C14_3 1_555 1_555
C14_3 C13_3 1_555 1_555
O12_3 Gd7 1_555 1_555
O14_3 Gd3_2 1_555 1_555
O15_3 Gd7 1_555 1_555
H8_3 O14_3 1_555 1_555
H9_3 O15_3 1_555 1_555
H10_3 O15_3 1_555 1_555
Gd3 O9_2 1_555 1_555
N5_2 Gd7 1_555 1_555
O18_2 Gd7 1_555 1_555
O21_2 Gd3_2 1_555 1_555
C3_3 C4_3 1_555 1_555
C5_3 O1_3 1_555 1_555
C6_3 O3_3 1_555 1_555
C11_3 O5_3 1_555 1_555
O11_2 Gd3 1_555 1_555
C14_3 O12_3 1_555 1_555
H3_3 C7_3 1_555 1_555
N5_2 C7_3 1_555 1_555
C8_3 N5_2 1_555 1_555
C9_3 C8_3 1_555 1_555
C12_3 C8_3 1_555 1_555
O18_2 C12_3 1_555 1_555
O19_2 C12_3 1_555 1_555
H5_3 O13_3 1_555 1_555
H6_3 O13_3 1_555 1_555
H3_4 C7_4 1_555 1_555
N4_2 C7_4 1_555 1_555
C8_4 N4_2 1_555 1_555
C9_4 C8_4 1_555 1_555
C12_4 C8_4 1_555 1_555
O7_2 C12_4 1_555 1_555
O19 C12_4 1_555 1_555
H5_4 O13_4 1_555 1_555
H6_4 O13_4 1_555 1_555
Gd5 N4_2 1_555 1_555
O7_2 Gd5 1_555 1_555
Gd3 N1_4 1_555 1_555
Gd5 N2_4 1_555 1_555
N1_4 C1_4 1_555 1_555
C1_4 H1_4 1_555 1_555
N2_4 C1_4 1_555 1_555
C2_4 N2_4 1_555 1_555
C3_4 C2_4 1_555 1_555
H2_4 C3_4 1_555 1_555
C4_4 N1_4 1_555 1_555
C5_4 C4_4 1_555 1_555
O1_4 Gd3 1_555 1_555
O16 C5_4 1_555 1_555
C6_4 C2_4 1_555 1_555
O3_4 Gd5 1_555 1_555
O4_4 C6_4 1_555 1_555
N3_4 Gd3 1_555 1_555
C10_4 N3_4 1_555 1_555
C11_4 C10_4 1_555 1_555
O5_4 Gd3 1_555 1_555
O17 C11_4 1_555 1_555
O20_2 C13_4 1_555 1_555
C13_4 O10_4 1_555 1_555
O10_4 Gd5 1_555 1_555
C14_4 C13_4 1_555 1_555
O12_4 Gd5 1_555 1_555
O14_4 Gd3 1_555 1_555
O15_4 Gd5 1_555 1_555
H7_4 O14_4 1_555 1_555
H8_4 O14_4 1_555 1_555
H9_4 O15_4 1_555 1_555
H10_4 O15_4 1_555 1_555
C3_4 C4_4 1_555 1_555
C5_4 O1_4 1_555 1_555
C6_4 O3_4 1_555 1_555
C11_4 O5_4 1_555 1_555
C14_4 O12_4 1_555 1_555

#END
