
###############################################################################
#
# This file contains modified crystal structure data generated from the
# MOF subset of the Cambridge Structural Database (CSD) v543 
# hosted by the Cambridge Crystallographic Data Centre (CCDC).
#
# This work is licensed under the Creative Commons
# Attribution-NonCommercial-ShareAlike 4.0 International License.
# To view a copy of this license, visit
# http://creativecommons.org/licenses/by-nc-sa/4.0/
# or send a letter to
# Creative Commons, PO Box 1866, Mountain View, CA 94042, USA.
#
# CIF created using the CSD Python API on 29 September 2022
# The structure has been converted into the P1 space group
# The structure has a 3D framework
# The original CSD entry ABIRAI is in the cubic crystal system
# The framework has been calculated to contain at least 10.0% void space
# The void calculation uses a probe of radius 1.32A, grid spacing 0.4
# H atom positions have been added when not included in the experimental data
#
###############################################################################

data_ABIRAI
_chemical_formula_moiety         '(C96 H336 N192 Ni31 O522 P18 W144)n'
_symmetry_cell_setting           triclinic
_symmetry_space_group_name_H-M   'P 1'
_symmetry_Int_Tables_number      1
_space_group_name_Hall           'P 1'
loop_
_symmetry_equiv_pos_site_id
_symmetry_equiv_pos_as_xyz
1 x,y,z
_cell_length_a                   25.3919(4)
_cell_length_b                   25.3919(4)
_cell_length_c                   25.3919(4)
_cell_angle_alpha                90
_cell_angle_beta                 90
_cell_angle_gamma                90
_cell_volume                     16371.4
loop_
_atom_site_label
_atom_site_type_symbol
_atom_site_fract_x
_atom_site_fract_y
_atom_site_fract_z
P1 P -0.000000 0.250000 0.375000
O3 O 0.0301(6) 0.1946(6) 0.4924(6)
W6 W 0.02136(3) 0.34596(4) 0.27611(4)
O13 O 0.0463(6) 0.3884(6) 0.2287(7)
W7 W 0.12103(3) 0.31875(3) 0.37946(4)
W8 W 0.03003(4) 0.34366(3) 0.47296(3)
W9 W 0.09596(4) 0.22864(3) 0.47389(4)
O22 O 0.1238(6) 0.2615(6) 0.3314(6)
O23 O 0.1384(6) 0.2037(6) 0.5213(7)
O25 O 0.0743(6) 0.3508(6) 0.3292(6)
O26 O 0.1773(6) 0.3518(7) 0.3667(6)
O27 O 0.0320(6) 0.3957(6) 0.5172(6)
O28 O 0.1443(6) 0.2719(6) 0.4338(6)
O29 O 0.0435(6) 0.2758(6) 0.4122(6)
O30 O 0.0927(6) 0.3619(6) 0.4336(6)
O31 O 0.0721(6) 0.2915(6) 0.5086(6)
W10 W 0.06875(3) 0.12897(3) 0.37054(4)
W11 W 0.09366(3) 0.21997(4) 0.27704(3)
O32 O 0.0115(6) 0.1262(6) 0.4186(6)
O34 O 0.0554(6) 0.2801(6) 0.2576(6)
O35 O 0.1008(6) 0.1757(6) 0.4208(6)
O36 O 0.1018(7) 0.0727(6) 0.3833(6)
O37 O 0.1457(6) 0.2180(6) 0.2328(6)
O38 O 0.0219(6) 0.1057(6) 0.3162(6)
O39 O 0.0258(6) 0.2065(6) 0.3378(6)
O40 O 0.1119(6) 0.1573(6) 0.3164(6)
O41 O 0.0415(6) 0.1779(6) 0.2414(6)
N5 N 0.1372(8) 0.0617(8) 0.5146(8)
N7 N 0.0565(8) 0.0343(7) 0.5101(8)
N8 N 0.1832(8) 0.0934(10) 0.5243(10)
C3 C 0.0877(9) 0.0734(9) 0.5262(8)
H7 H 0.076436 0.104034 0.542839
C4 C 0.1380(9) 0.0174(10) 0.4873(10)
H8 H 0.167650 0.002361 0.471919
P2 P 0.125000 0.000000 0.750000
W13 W 0.12054(4) 0.12103(3) 0.68125(3)
W14 W 0.02704(3) 0.03003(4) 0.65634(3)
W15 W 0.02611(4) 0.09596(4) 0.77136(3)
O44 O 0.1686(6) 0.1238(6) 0.7385(6)
O47 O 0.1708(6) 0.0743(6) 0.6492(6)
O48 O 0.1333(6) 0.1773(6) 0.6482(7)
O50 O 0.0662(6) 0.1443(6) 0.7281(6)
O51 O 0.0878(6) 0.0435(6) 0.7242(6)
O52 O 0.0664(6) 0.0927(6) 0.6381(6)
W16 W 0.12946(4) 0.06875(3) 0.87103(3)
W17 W 0.22296(3) 0.09366(3) 0.78003(4)
O54 O 0.0814(6) 0.0115(6) 0.8738(6)
O56 O 0.2424(6) 0.0554(6) 0.7199(6)
O57 O 0.0792(6) 0.1008(6) 0.8243(6)
O58 O 0.1167(6) 0.1018(7) 0.9273(6)
O59 O 0.2672(6) 0.1457(6) 0.7820(6)
O60 O 0.1838(6) 0.0219(6) 0.8943(6)
O61 O 0.1622(6) 0.0258(6) 0.7935(6)
O62 O 0.1836(6) 0.1119(6) 0.8427(6)
O63 O 0.2586(6) 0.0415(6) 0.8221(6)
O66 O 0.0076(6) 0.0301(6) 0.8054(6)
W24 W 0.22389(4) 0.02136(3) 0.65404(4)
O75 O 0.2713(7) 0.0463(6) 0.6116(6)
Ni7 Ni 0.27220(11) 0.22780(11) 0.77220(11)
Ni8 Ni 0.18856(12) 0.31144(12) 0.68856(12)
O130 O 0.1308(7) 0.2879(6) 0.6361(7)
H37 H 0.128454 0.254481 0.636625
H38 H 0.101044 0.298561 0.646965
N37 N 0.3117(8) 0.3872(8) 0.7646(8)
N38 N 0.2474(8) 0.3383(8) 0.7354(7)
N39 N 0.2843(7) 0.3065(8) 0.7601(8)
N40 N 0.3434(10) 0.4332(8) 0.7743(10)
C19 C 0.3234(9) 0.3377(9) 0.7762(8)
H39 H 0.354034 0.326436 0.792839
C20 C 0.2674(10) 0.3880(9) 0.7373(10)
H40 H 0.252361 0.417650 0.721919
O131 O 0.2121(6) 0.3639(7) 0.6308(7)
H41 H 0.245519 0.363375 0.628454
H42 H 0.201439 0.353035 0.601044
N41 N 0.1128(8) 0.2354(8) 0.8117(8)
N42 N 0.1617(8) 0.2646(7) 0.7474(8)
N43 N 0.1935(8) 0.2399(8) 0.7843(7)
N44 N 0.0668(8) 0.2257(10) 0.8434(10)
C21 C 0.1623(9) 0.2238(8) 0.8234(9)
H43 H 0.173564 0.207161 0.854034
C22 C 0.1120(9) 0.2627(10) 0.7674(10)
H44 H 0.082350 0.278081 0.752361
O132 O 0.1361(7) 0.3692(7) 0.7121(6)
H45 H 0.136625 0.371546 0.745519
H46 H 0.146965 0.398956 0.701439
N45 N 0.2646(8) 0.1883(8) 0.6128(8)
N46 N 0.2354(7) 0.2526(8) 0.6617(8)
N47 N 0.2601(8) 0.2157(7) 0.6935(8)
N48 N 0.2743(10) 0.1566(10) 0.5668(8)
C23 C 0.2762(8) 0.1766(9) 0.6623(9)
H47 H 0.292839 0.145966 0.673564
C24 C 0.2373(10) 0.2326(10) 0.6120(9)
H48 H 0.221919 0.247639 0.582350
Ni9 Ni 0.02220(11) 0.47780(11) 0.52220(11)
Ni14 Ni 0.22780(11) 0.22780(11) 0.22780(11)
O133 O 0.3543(6) 0.2180(6) 0.7672(6)
O136 O 0.2820(6) 0.2328(6) 0.8543(6)
H51 H 0.378262 0.429655 0.755067
H52 H 0.324155 0.465664 0.761126
H53 H 0.0703449 0.244933 0.878262
H54 H 0.0343356 0.238874 0.824155
H55 H 0.255067 0.121738 0.570345
H56 H 0.261126 0.175845 0.534336
H71 H 0.18671 0.100131 0.563546
H72 H 0.215664 0.0741551 0.511126
Ni2 Ni 0.06144(12) 0.93856(12) 0.43856(12)
O11 O 0.1192(7) 0.8861(7) 0.4621(6)
H1 H 0.121546 0.886625 0.495519
H2 H 0.148956 0.896965 0.451439
N2 N 0.0026(8) 0.9854(7) 0.4117(8)
O42 O 0.0379(6) 0.8808(7) 0.3861(7)
H5 H 0.004481 0.878454 0.386625
H6 H 0.048561 0.851044 0.396965
N6 N 0.0883(8) 0.9974(8) 0.4854(7)
O43 O 0.1139(7) 0.9621(6) 0.3808(7)
H9 H 0.113375 0.995519 0.378454
H10 H 0.103035 0.951439 0.351044
N10 N 0.0146(7) 0.9117(8) 0.4974(8)
C6 C 0.0127(10) 0.8620(9) 0.5174(10)
H12 H 0.028081 0.832350 0.502361
P2_2 P 0.125000 1.000000 0.750000
O46 O 0.0076(6) 0.9699(6) 0.6946(6)
W18 W 0.22389(4) 0.97864(3) 0.84596(4)
O55 O 0.2713(7) 0.9537(6) 0.8884(6)
W19 W 0.12054(4) 0.87897(3) 0.81875(3)
W20 W 0.02704(3) 0.96997(4) 0.84366(3)
W21 W 0.02611(4) 0.90404(4) 0.72864(3)
O64 O 0.1686(6) 0.8762(6) 0.7615(6)
O67 O 0.1708(6) 0.9257(6) 0.8508(6)
O68 O 0.1333(6) 0.8227(6) 0.8518(7)
O70 O 0.0662(6) 0.8557(6) 0.7719(6)
O71 O 0.0878(6) 0.9565(6) 0.7758(6)
O72 O 0.0664(6) 0.9073(6) 0.8619(6)
W22 W 0.12946(4) 0.93125(3) 0.62897(3)
W23 W 0.22296(3) 0.90634(3) 0.71997(4)
O74 O 0.0814(6) 0.9885(6) 0.6262(6)
O76 O 0.2424(6) 0.9446(6) 0.7801(6)
O77 O 0.0792(6) 0.8992(6) 0.6757(6)
O78 O 0.1167(6) 0.8982(7) 0.5727(6)
O79 O 0.2672(6) 0.8543(6) 0.7180(6)
O80 O 0.1838(6) 0.9781(6) 0.6057(6)
O81 O 0.1622(6) 0.9742(6) 0.7065(6)
O82 O 0.1836(6) 0.8881(6) 0.6573(6)
O83 O 0.2586(6) 0.9585(6) 0.6779(6)
Ni13 Ni 0.27220(11) 0.77220(11) 0.72780(11)
P1_2 P 1.000000 0.250000 0.375000
W1 W 0.87897(3) 0.18125(3) 0.37946(4)
W2 W 0.96997(4) 0.15634(3) 0.47296(3)
W3 W 0.90404(4) 0.27136(3) 0.47389(4)
Ni1 Ni 0.97780(11) 0.02220(11) 0.52220(11)
O1 O 0.8762(6) 0.2385(6) 0.3314(6)
O2 O 0.8616(6) 0.2963(6) 0.5213(7)
O4 O 0.9257(6) 0.1492(6) 0.3292(6)
O5 O 0.8227(6) 0.1482(7) 0.3667(6)
O6 O 0.9680(6) 0.1043(6) 0.5172(6)
O7 O 0.8557(6) 0.2281(6) 0.4338(6)
O8 O 0.9565(6) 0.2242(6) 0.4122(6)
O9 O 0.9073(6) 0.1381(6) 0.4336(6)
O10 O 0.9279(6) 0.2085(6) 0.5086(6)
N1 N 0.9383(8) 0.0146(8) 0.3628(8)
N3 N 0.9657(7) 0.0101(8) 0.4435(8)
N4 N 0.9066(10) 0.0243(10) 0.3168(8)
C1 C 0.9266(9) 0.0262(8) 0.4123(9)
H3 H 0.895966 0.042839 0.423564
W4 W 0.93125(3) 0.37103(3) 0.37054(4)
W5 W 0.90634(3) 0.28003(4) 0.27704(3)
O12 O 0.9885(6) 0.3738(6) 0.4186(6)
O14 O 0.9446(6) 0.2199(6) 0.2576(6)
O15 O 0.8992(6) 0.3243(6) 0.4208(6)
O16 O 0.8982(7) 0.4273(6) 0.3833(6)
O17 O 0.8543(6) 0.2820(6) 0.2328(6)
O18 O 0.9781(6) 0.3943(6) 0.3162(6)
O19 O 0.9742(6) 0.2935(6) 0.3378(6)
O20 O 0.8881(6) 0.3427(6) 0.3164(6)
O21 O 0.9585(6) 0.3221(6) 0.2414(6)
O24 O 0.9699(6) 0.3054(6) 0.4924(6)
W12 W 0.97864(3) 0.15404(4) 0.27611(4)
O33 O 0.9537(6) 0.1116(6) 0.2287(7)
O45 O 0.9787(7) 0.1384(6) 0.7963(6)
O49 O 0.9828(6) 0.0320(6) 0.6043(6)
O53 O 0.9914(6) 0.0721(6) 0.7085(6)
O85 O 0.7037(6) 0.0213(7) 0.6384(6)
O89 O 0.8957(6) 0.0172(6) 0.5320(6)
O93 O 0.7915(6) 0.0086(6) 0.5721(6)
O105 O 0.7963(6) 0.0213(7) 0.3616(6)
O109 O 0.6043(6) 0.0172(6) 0.4680(6)
O113 O 0.7085(6) 0.0086(6) 0.4279(6)
Ni3 Ni 0.77220(11) 0.27220(11) 0.22780(11)
Ni4 Ni 0.68856(12) 0.18856(12) 0.31144(12)
O124 O 0.6361(7) 0.1308(7) 0.2879(6)
H13 H 0.636625 0.128454 0.254481
H14 H 0.646965 0.101044 0.298561
N13 N 0.7646(8) 0.3117(8) 0.3872(8)
N14 N 0.7354(7) 0.2474(8) 0.3383(8)
N15 N 0.7601(8) 0.2843(7) 0.3065(8)
N16 N 0.7743(10) 0.3434(10) 0.4332(8)
C7 C 0.7762(8) 0.3234(9) 0.3377(9)
H15 H 0.792839 0.354034 0.326436
C8 C 0.7373(10) 0.2674(10) 0.3880(9)
H16 H 0.721919 0.252361 0.417650
O125 O 0.6308(7) 0.2121(6) 0.3639(7)
H17 H 0.628454 0.245519 0.363375
H18 H 0.601044 0.201439 0.353035
N17 N 0.8117(8) 0.1128(8) 0.2354(8)
N18 N 0.7474(8) 0.1617(8) 0.2646(7)
N19 N 0.7843(7) 0.1935(8) 0.2399(8)
N20 N 0.8434(10) 0.0668(8) 0.2257(10)
C9 C 0.8234(9) 0.1623(9) 0.2238(8)
H19 H 0.854034 0.173564 0.207161
C10 C 0.7674(10) 0.1120(9) 0.2627(10)
H20 H 0.752361 0.082350 0.278081
O126 O 0.7121(6) 0.1361(7) 0.3692(7)
H21 H 0.745519 0.136625 0.371546
H22 H 0.701439 0.146965 0.398956
N21 N 0.6128(8) 0.2646(8) 0.1883(8)
N22 N 0.6617(8) 0.2354(7) 0.2526(8)
N23 N 0.6935(8) 0.2601(8) 0.2157(7)
N24 N 0.5668(8) 0.2743(10) 0.1566(10)
C11 C 0.6623(9) 0.2762(8) 0.1766(9)
H23 H 0.673564 0.292839 0.145966
C12 C 0.6120(9) 0.2373(10) 0.2326(10)
H24 H 0.582350 0.221919 0.247639
Ni10 Ni 0.52220(11) 0.02220(11) 0.47780(11)
O135 O 0.7820(6) 0.2672(6) 0.1457(6)
O137 O 0.7672(6) 0.3543(6) 0.2180(6)
H57 H 0.755067 0.378262 0.429655
H58 H 0.761126 0.324155 0.465664
H59 H 0.878262 0.0703449 0.244933
H60 H 0.824155 0.0343356 0.238874
H61 H 0.570345 0.255067 0.121738
H62 H 0.534336 0.261126 0.175845
H67 H 0.899869 0.063546 0.31329
H68 H 0.925845 0.0111256 0.284336
C2 C 0.9826(10) 0.9873(10) 0.3620(9)
H4 H 0.997639 0.971919 0.332350
N9 N 0.9854(8) 0.8628(8) 0.5617(8)
N11 N 0.9899(8) 0.9435(8) 0.5343(7)
N12 N 0.9757(10) 0.8168(8) 0.5934(10)
C5 C 0.9738(8) 0.9123(9) 0.5734(9)
H11 H 0.957161 0.923564 0.604034
O65 O 0.9787(7) 0.8616(6) 0.7037(6)
O69 O 0.9828(6) 0.9680(6) 0.8957(6)
O73 O 0.9914(6) 0.9279(6) 0.7915(6)
P3 P 0.750000 0.875000 0.500000
W25 W 0.81875(3) 0.87946(4) 0.62103(3)
W26 W 0.84366(3) 0.97296(3) 0.53003(4)
W27 W 0.72864(3) 0.97389(4) 0.59596(4)
O84 O 0.7615(6) 0.8314(6) 0.6238(6)
O86 O 0.8054(6) 0.9924(6) 0.4699(6)
O87 O 0.8508(6) 0.8292(6) 0.5743(6)
O88 O 0.8518(7) 0.8667(6) 0.6773(6)
O90 O 0.7719(6) 0.9338(6) 0.6443(6)
O91 O 0.7758(6) 0.9122(6) 0.5435(6)
O92 O 0.8619(6) 0.9336(6) 0.5927(6)
W28 W 0.62897(3) 0.87054(4) 0.56875(3)
W29 W 0.71997(4) 0.77704(3) 0.59366(3)
W30 W 0.65404(4) 0.77611(4) 0.47864(3)
O94 O 0.6262(6) 0.9186(6) 0.5115(6)
O95 O 0.6116(6) 0.7287(7) 0.4537(6)
O96 O 0.7801(6) 0.7576(6) 0.5554(6)
O97 O 0.6757(6) 0.9208(6) 0.6008(6)
O98 O 0.5727(6) 0.8833(6) 0.6018(7)
O99 O 0.7180(6) 0.7328(6) 0.6457(6)
O100 O 0.6057(6) 0.8162(6) 0.5219(6)
O101 O 0.7065(6) 0.8378(6) 0.5258(6)
O102 O 0.6573(6) 0.8164(6) 0.6119(6)
O103 O 0.6779(6) 0.7414(6) 0.5415(6)
W31 W 0.68125(3) 0.87946(4) 0.37897(3)
W32 W 0.65634(3) 0.97296(3) 0.46997(4)
W33 W 0.77136(3) 0.97389(4) 0.40404(4)
O104 O 0.7385(6) 0.8314(6) 0.3762(6)
O106 O 0.6946(6) 0.9924(6) 0.5301(6)
O107 O 0.6492(6) 0.8292(6) 0.4257(6)
O108 O 0.6482(7) 0.8667(6) 0.3227(6)
O110 O 0.7281(6) 0.9338(6) 0.3557(6)
O111 O 0.7242(6) 0.9122(6) 0.4565(6)
O112 O 0.6381(6) 0.9336(6) 0.4073(6)
W34 W 0.87103(3) 0.87054(4) 0.43125(3)
W35 W 0.78003(4) 0.77704(3) 0.40634(3)
W36 W 0.84596(4) 0.77611(4) 0.52136(3)
O114 O 0.8738(6) 0.9186(6) 0.4885(6)
O115 O 0.8884(6) 0.7287(7) 0.5463(6)
O116 O 0.7199(6) 0.7576(6) 0.4446(6)
O117 O 0.8243(6) 0.9208(6) 0.3992(6)
O118 O 0.9273(6) 0.8833(6) 0.3982(7)
O119 O 0.7820(6) 0.7328(6) 0.3543(6)
O120 O 0.8943(6) 0.8162(6) 0.4781(6)
O121 O 0.7935(6) 0.8378(6) 0.4742(6)
O122 O 0.8427(6) 0.8164(6) 0.3881(6)
O123 O 0.8221(6) 0.7414(6) 0.4585(6)
Ni5 Ni 0.72780(11) 0.72780(11) 0.72780(11)
Ni6 Ni 0.81144(12) 0.81144(12) 0.81144(12)
O127 O 0.8639(7) 0.8692(7) 0.7879(6)
H25 H 0.863375 0.871546 0.754481
H26 H 0.853035 0.898956 0.798561
N25 N 0.7354(8) 0.6883(8) 0.8872(8)
N26 N 0.7646(7) 0.7526(8) 0.8383(8)
N27 N 0.7399(8) 0.7157(7) 0.8065(8)
N28 N 0.7257(10) 0.6566(10) 0.9332(8)
C13 C 0.7238(8) 0.6766(9) 0.8377(9)
H27 H 0.707161 0.645966 0.826436
C14 C 0.7627(10) 0.7326(10) 0.8880(9)
H28 H 0.778081 0.747639 0.917650
O128 O 0.8692(7) 0.7879(6) 0.8639(7)
H29 H 0.871546 0.754481 0.863375
H30 H 0.898956 0.798561 0.853035
N29 N 0.6883(8) 0.8872(8) 0.7354(8)
N30 N 0.7526(8) 0.8383(8) 0.7646(7)
N31 N 0.7157(7) 0.8065(8) 0.7399(8)
N32 N 0.6566(10) 0.9332(8) 0.7257(10)
C15 C 0.6766(9) 0.8377(9) 0.7238(8)
H31 H 0.645966 0.826436 0.707161
C16 C 0.7326(10) 0.8880(9) 0.7627(10)
H32 H 0.747639 0.917650 0.778081
O129 O 0.7879(6) 0.8639(7) 0.8692(7)
H33 H 0.754481 0.863375 0.871546
H34 H 0.798561 0.853035 0.898956
N33 N 0.8872(8) 0.7354(8) 0.6883(8)
N34 N 0.8383(8) 0.7646(7) 0.7526(8)
N35 N 0.8065(8) 0.7399(8) 0.7157(7)
N36 N 0.9332(8) 0.7257(10) 0.6566(10)
C17 C 0.8377(9) 0.7238(8) 0.6766(9)
H35 H 0.826436 0.707161 0.645966
C18 C 0.8880(9) 0.7627(10) 0.7326(10)
H36 H 0.917650 0.778081 0.747639
Ni11 Ni 0.97780(11) 0.97780(11) 0.97780(11)
Ni12 Ni 0.77220(11) 0.72780(11) 0.27220(11)
O134 O 0.6457(6) 0.7180(6) 0.7328(6)
O138 O 0.7328(6) 0.6457(6) 0.7180(6)
H49 H 0.929655 0.744933 0.621738
H50 H 0.965664 0.738874 0.675845
H63 H 0.744933 0.621738 0.929655
H64 H 0.738874 0.675845 0.965664
H65 H 0.621738 0.929655 0.744933
H66 H 0.675845 0.965664 0.738874
H69 H 0.936454 0.81329 0.600131
H70 H 0.988874 0.784336 0.574155
N9_2 N 0.5146(8) 0.1372(8) 0.0617(8)
N11_2 N 0.5101(8) 0.0565(8) 0.0343(7)
N12_2 N 0.5243(10) 0.1832(8) 0.0934(10)
C5_2 C 0.5262(8) 0.0877(9) 0.0734(9)
H11_2 H 0.542839 0.076436 0.104034
C6_2 C 0.4873(10) 0.1380(9) 0.0174(10)
H12_2 H 0.471919 0.167650 0.002361
P2_3 P 0.375000 0.000000 0.250000
O46_2 O 0.4924(6) 0.0301(6) 0.1946(6)
W18_2 W 0.27611(4) 0.02136(3) 0.34596(4)
O55_2 O 0.2287(7) 0.0463(6) 0.3884(6)
W19_2 W 0.37946(4) 0.12103(3) 0.31875(3)
W20_2 W 0.47296(3) 0.03003(4) 0.34366(3)
W21_2 W 0.47389(4) 0.09596(4) 0.22864(3)
O64_2 O 0.3314(6) 0.1238(6) 0.2615(6)
O65_2 O 0.5213(7) 0.1384(6) 0.2037(6)
O67_2 O 0.3292(6) 0.0743(6) 0.3508(6)
O68_2 O 0.3667(6) 0.1773(6) 0.3518(7)
O69_2 O 0.5172(6) 0.0320(6) 0.3957(6)
O70_2 O 0.4338(6) 0.1443(6) 0.2719(6)
O71_2 O 0.4122(6) 0.0435(6) 0.2758(6)
O72_2 O 0.4336(6) 0.0927(6) 0.3619(6)
O73_2 O 0.5086(6) 0.0721(6) 0.2915(6)
W22_2 W 0.37054(4) 0.06875(3) 0.12897(3)
W23_2 W 0.27704(3) 0.09366(3) 0.21997(4)
O74_2 O 0.4186(6) 0.0115(6) 0.1262(6)
O76_2 O 0.2576(6) 0.0554(6) 0.2801(6)
O77_2 O 0.4208(6) 0.1008(6) 0.1757(6)
O78_2 O 0.3833(6) 0.1018(7) 0.0727(6)
O79_2 O 0.2328(6) 0.1457(6) 0.2180(6)
O80_2 O 0.3162(6) 0.0219(6) 0.1057(6)
O81_2 O 0.3378(6) 0.0258(6) 0.2065(6)
O82_2 O 0.3164(6) 0.1119(6) 0.1573(6)
O83_2 O 0.2414(6) 0.0415(6) 0.1779(6)
P3_2 P 0.750000 0.125000 0.000000
W25_2 W 0.68125(3) 0.12054(4) 0.12103(3)
W26_2 W 0.65634(3) 0.02704(3) 0.03003(4)
W27_2 W 0.77136(3) 0.02611(4) 0.09596(4)
O84_2 O 0.7385(6) 0.1686(6) 0.1238(6)
O87_2 O 0.6492(6) 0.1708(6) 0.0743(6)
O88_2 O 0.6482(7) 0.1333(6) 0.1773(6)
O90_2 O 0.7281(6) 0.0662(6) 0.1443(6)
O91_2 O 0.7242(6) 0.0878(6) 0.0435(6)
O92_2 O 0.6381(6) 0.0664(6) 0.0927(6)
W28_2 W 0.87103(3) 0.12946(4) 0.06875(3)
W29_2 W 0.78003(4) 0.22296(3) 0.09366(3)
O94_2 O 0.8738(6) 0.0814(6) 0.0115(6)
O96_2 O 0.7199(6) 0.2424(6) 0.0554(6)
O97_2 O 0.8243(6) 0.0792(6) 0.1008(6)
O98_2 O 0.9273(6) 0.1167(6) 0.1018(7)
O100_2 O 0.8943(6) 0.1838(6) 0.0219(6)
O101_2 O 0.7935(6) 0.1622(6) 0.0258(6)
O102_2 O 0.8427(6) 0.1836(6) 0.1119(6)
O103_2 O 0.8221(6) 0.2586(6) 0.0415(6)
O106_2 O 0.8054(6) 0.0076(6) 0.0301(6)
W36_2 W 0.65404(4) 0.22389(4) 0.02136(3)
O115_2 O 0.6116(6) 0.2713(7) 0.0463(6)
H69_2 H 0.563546 0.18671 0.100131
H70_2 H 0.511126 0.215664 0.0741551
Ni2_2 Ni 0.43856(12) 0.06144(12) 0.93856(12)
O11_2 O 0.3808(7) 0.1139(7) 0.9621(6)
H1_2 H 0.378454 0.113375 0.995519
H2_2 H 0.351044 0.103035 0.951439
N2_2 N 0.4974(8) 0.0146(7) 0.9117(8)
C2_2 C 0.5174(10) 0.0127(10) 0.8620(9)
H4_2 H 0.502361 0.028081 0.832350
O42_2 O 0.4621(6) 0.1192(7) 0.8861(7)
H5_2 H 0.495519 0.121546 0.886625
H6_2 H 0.451439 0.148956 0.896965
N6_2 N 0.4117(8) 0.0026(8) 0.9854(7)
O43_2 O 0.3861(7) 0.0379(6) 0.8808(7)
H9_2 H 0.386625 0.004481 0.878454
H10_2 H 0.396965 0.048561 0.851044
N10_2 N 0.4854(7) 0.0883(8) 0.9974(8)
P3_3 P 0.750000 0.125000 1.000000
O86_2 O 0.6946(6) 0.0076(6) 0.9699(6)
W30_2 W 0.84596(4) 0.22389(4) 0.97864(3)
O95_2 O 0.8884(6) 0.2713(7) 0.9537(6)
W31_2 W 0.81875(3) 0.12054(4) 0.87897(3)
W32_2 W 0.84366(3) 0.02704(3) 0.96997(4)
W33_2 W 0.72864(3) 0.02611(4) 0.90404(4)
O104_2 O 0.7615(6) 0.1686(6) 0.8762(6)
O107_2 O 0.8508(6) 0.1708(6) 0.9257(6)
O108_2 O 0.8518(7) 0.1333(6) 0.8227(6)
O110_2 O 0.7719(6) 0.0662(6) 0.8557(6)
O111_2 O 0.7758(6) 0.0878(6) 0.9565(6)
O112_2 O 0.8619(6) 0.0664(6) 0.9073(6)
W34_2 W 0.62897(3) 0.12946(4) 0.93125(3)
W35_2 W 0.71997(4) 0.22296(3) 0.90634(3)
O114_2 O 0.6262(6) 0.0814(6) 0.9885(6)
O116_2 O 0.7801(6) 0.2424(6) 0.9446(6)
O117_2 O 0.6757(6) 0.0792(6) 0.8992(6)
O118_2 O 0.5727(6) 0.1167(6) 0.8982(7)
O119_2 O 0.7180(6) 0.2672(6) 0.8543(6)
O120_2 O 0.6057(6) 0.1838(6) 0.9781(6)
O121_2 O 0.7065(6) 0.1622(6) 0.9742(6)
O122_2 O 0.6573(6) 0.1836(6) 0.8881(6)
O123_2 O 0.6779(6) 0.2586(6) 0.9585(6)
Ni12_2 Ni 0.72780(11) 0.27220(11) 0.77220(11)
Ni1_2 Ni 0.52220(11) 0.97780(11) 0.02220(11)
O2_2 O 0.6384(6) 0.7037(6) 0.0213(7)
O6_2 O 0.5320(6) 0.8957(6) 0.0172(6)
O10_2 O 0.5721(6) 0.7915(6) 0.0086(6)
O23_2 O 0.3616(6) 0.7963(6) 0.0213(7)
O27_2 O 0.4680(6) 0.6043(6) 0.0172(6)
O31_2 O 0.4279(6) 0.7085(6) 0.0086(6)
N5_2 N 0.3628(8) 0.9383(8) 0.0146(8)
N7_2 N 0.4435(8) 0.9657(7) 0.0101(8)
N8_2 N 0.3168(8) 0.9066(10) 0.0243(10)
C3_2 C 0.4123(9) 0.9266(9) 0.0262(8)
H7_2 H 0.423564 0.895966 0.042839
P2_4 P 0.375000 1.000000 0.250000
W13_2 W 0.37946(4) 0.87897(3) 0.18125(3)
W14_2 W 0.47296(3) 0.96997(4) 0.15634(3)
W15_2 W 0.47389(4) 0.90404(4) 0.27136(3)
O44_2 O 0.3314(6) 0.8762(6) 0.2385(6)
O45_2 O 0.5213(7) 0.8616(6) 0.2963(6)
O47_2 O 0.3292(6) 0.9257(6) 0.1492(6)
O48_2 O 0.3667(6) 0.8227(6) 0.1482(7)
O49_2 O 0.5172(6) 0.9680(6) 0.1043(6)
O50_2 O 0.4338(6) 0.8557(6) 0.2281(6)
O51_2 O 0.4122(6) 0.9565(6) 0.2242(6)
O52_2 O 0.4336(6) 0.9073(6) 0.1381(6)
O53_2 O 0.5086(6) 0.9279(6) 0.2085(6)
W16_2 W 0.37054(4) 0.93125(3) 0.37103(3)
W17_2 W 0.27704(3) 0.90634(3) 0.28003(4)
O54_2 O 0.4186(6) 0.9885(6) 0.3738(6)
O56_2 O 0.2576(6) 0.9446(6) 0.2199(6)
O57_2 O 0.4208(6) 0.8992(6) 0.3243(6)
O58_2 O 0.3833(6) 0.8982(7) 0.4273(6)
O59_2 O 0.2328(6) 0.8543(6) 0.2820(6)
O60_2 O 0.3162(6) 0.9781(6) 0.3943(6)
O61_2 O 0.3378(6) 0.9742(6) 0.2935(6)
O62_2 O 0.3164(6) 0.8881(6) 0.3427(6)
O63_2 O 0.2414(6) 0.9585(6) 0.3221(6)
O66_2 O 0.4924(6) 0.9699(6) 0.3054(6)
W24_2 W 0.27611(4) 0.97864(3) 0.15404(4)
O75_2 O 0.2287(7) 0.9537(6) 0.1116(6)
O85_2 O 0.7963(6) 0.9787(7) 0.1384(6)
O89_2 O 0.6043(6) 0.9828(6) 0.0320(6)
O93_2 O 0.7085(6) 0.9914(6) 0.0721(6)
Ni7_2 Ni 0.22780(11) 0.77220(11) 0.27220(11)
Ni8_2 Ni 0.31144(12) 0.68856(12) 0.18856(12)
O130_2 O 0.3692(7) 0.7121(6) 0.1361(7)
H37_2 H 0.371546 0.745519 0.136625
H38_2 H 0.398956 0.701439 0.146965
N37_2 N 0.1883(8) 0.6128(8) 0.2646(8)
N38_2 N 0.2526(8) 0.6617(8) 0.2354(7)
N39_2 N 0.2157(7) 0.6935(8) 0.2601(8)
N40_2 N 0.1566(10) 0.5668(8) 0.2743(10)
C19_2 C 0.1766(9) 0.6623(9) 0.2762(8)
H39_2 H 0.145966 0.673564 0.292839
C20_2 C 0.2326(10) 0.6120(9) 0.2373(10)
H40_2 H 0.247639 0.582350 0.221919
O131_2 O 0.2879(6) 0.6361(7) 0.1308(7)
H41_2 H 0.254481 0.636625 0.128454
H42_2 H 0.298561 0.646965 0.101044
N41_2 N 0.3872(8) 0.7646(8) 0.3117(8)
N42_2 N 0.3383(8) 0.7354(7) 0.2474(8)
N43_2 N 0.3065(8) 0.7601(8) 0.2843(7)
N44_2 N 0.4332(8) 0.7743(10) 0.3434(10)
C21_2 C 0.3377(9) 0.7762(8) 0.3234(9)
H43_2 H 0.326436 0.792839 0.354034
C22_2 C 0.3880(9) 0.7373(10) 0.2674(10)
H44_2 H 0.417650 0.721919 0.252361
O132_2 O 0.3639(7) 0.6308(7) 0.2121(6)
H45_2 H 0.363375 0.628454 0.245519
H46_2 H 0.353035 0.601044 0.201439
N45_2 N 0.2354(8) 0.8117(8) 0.1128(8)
N46_2 N 0.2646(7) 0.7474(8) 0.1617(8)
N47_2 N 0.2399(8) 0.7843(7) 0.1935(8)
N48_2 N 0.2257(10) 0.8434(10) 0.0668(8)
C23_2 C 0.2238(8) 0.8234(9) 0.1623(9)
H47_2 H 0.207161 0.854034 0.173564
C24_2 C 0.2627(10) 0.7674(10) 0.1120(9)
H48_2 H 0.278081 0.752361 0.082350
Ni9_2 Ni 0.47780(11) 0.52220(11) 0.02220(11)
O133_2 O 0.1457(6) 0.7820(6) 0.2672(6)
O136_2 O 0.2180(6) 0.7672(6) 0.3543(6)
H51_2 H 0.121738 0.570345 0.255067
H52_2 H 0.175845 0.534336 0.261126
H53_2 H 0.429655 0.755067 0.378262
H54_2 H 0.465664 0.761126 0.324155
H55_2 H 0.244933 0.878262 0.0703449
H56_2 H 0.238874 0.824155 0.0343356
H71_2 H 0.31329 0.899869 0.063546
H72_2 H 0.284336 0.925845 0.0111256
P1_3 P 0.500000 0.750000 0.875000
W1_2 W 0.62103(3) 0.81875(3) 0.87946(4)
W2_2 W 0.53003(4) 0.84366(3) 0.97296(3)
W3_2 W 0.59596(4) 0.72864(3) 0.97389(4)
O1_2 O 0.6238(6) 0.7615(6) 0.8314(6)
O3_2 O 0.4699(6) 0.8054(6) 0.9924(6)
O4_2 O 0.5743(6) 0.8508(6) 0.8292(6)
O5_2 O 0.6773(6) 0.8518(7) 0.8667(6)
O7_2 O 0.6443(6) 0.7719(6) 0.9338(6)
O8_2 O 0.5435(6) 0.7758(6) 0.9122(6)
O9_2 O 0.5927(6) 0.8619(6) 0.9336(6)
N1_2 N 0.5617(8) 0.9854(8) 0.8628(8)
N3_2 N 0.5343(7) 0.9899(8) 0.9435(8)
N4_2 N 0.5934(10) 0.9757(10) 0.8168(8)
C1_2 C 0.5734(9) 0.9738(8) 0.9123(9)
H3_2 H 0.604034 0.957161 0.923564
W4_2 W 0.56875(3) 0.62897(3) 0.87054(4)
W5_2 W 0.59366(3) 0.71997(4) 0.77704(3)
W6_2 W 0.47864(3) 0.65404(4) 0.77611(4)
O12_2 O 0.5115(6) 0.6262(6) 0.9186(6)
O13_2 O 0.4537(6) 0.6116(6) 0.7287(7)
O14_2 O 0.5554(6) 0.7801(6) 0.7576(6)
O15_2 O 0.6008(6) 0.6757(6) 0.9208(6)
O16_2 O 0.6018(7) 0.5727(6) 0.8833(6)
O18_2 O 0.5219(6) 0.6057(6) 0.8162(6)
O19_2 O 0.5258(6) 0.7065(6) 0.8378(6)
O20_2 O 0.6119(6) 0.6573(6) 0.8164(6)
O21_2 O 0.5415(6) 0.6779(6) 0.7414(6)
W7_2 W 0.37897(3) 0.68125(3) 0.87946(4)
W8_2 W 0.46997(4) 0.65634(3) 0.97296(3)
W9_2 W 0.40404(4) 0.77136(3) 0.97389(4)
O22_2 O 0.3762(6) 0.7385(6) 0.8314(6)
O24_2 O 0.5301(6) 0.6946(6) 0.9924(6)
O25_2 O 0.4257(6) 0.6492(6) 0.8292(6)
O26_2 O 0.3227(6) 0.6482(7) 0.8667(6)
O28_2 O 0.3557(6) 0.7281(6) 0.9338(6)
O29_2 O 0.4565(6) 0.7242(6) 0.9122(6)
O30_2 O 0.4073(6) 0.6381(6) 0.9336(6)
W10_2 W 0.43125(3) 0.87103(3) 0.87054(4)
W11_2 W 0.40634(3) 0.78003(4) 0.77704(3)
W12_2 W 0.52136(3) 0.84596(4) 0.77611(4)
O32_2 O 0.4885(6) 0.8738(6) 0.9186(6)
O33_2 O 0.5463(6) 0.8884(6) 0.7287(7)
O34_2 O 0.4446(6) 0.7199(6) 0.7576(6)
O35_2 O 0.3992(6) 0.8243(6) 0.9208(6)
O36_2 O 0.3982(7) 0.9273(6) 0.8833(6)
O37_2 O 0.3543(6) 0.7820(6) 0.7328(6)
O38_2 O 0.4781(6) 0.8943(6) 0.8162(6)
O39_2 O 0.4742(6) 0.7935(6) 0.8378(6)
O40_2 O 0.3881(6) 0.8427(6) 0.8164(6)
O41_2 O 0.4585(6) 0.8221(6) 0.7414(6)
C4_2 C 0.3620(9) 0.9826(10) 0.9873(10)
H8_2 H 0.332350 0.997639 0.971919
O105_2 O 0.7037(6) 0.9787(7) 0.8616(6)
O109_2 O 0.8957(6) 0.9828(6) 0.9680(6)
O113_2 O 0.7915(6) 0.9914(6) 0.9279(6)
H67_2 H 0.600131 0.936454 0.81329
H68_2 H 0.574155 0.988874 0.784336
P1_4 P 0.000000 0.750000 0.125000
W1_3 W 0.12103(3) 0.68125(3) 0.12054(4)
W2_3 W 0.03003(4) 0.65634(3) 0.02704(3)
W3_3 W 0.09596(4) 0.77136(3) 0.02611(4)
O1_3 O 0.1238(6) 0.7385(6) 0.1686(6)
O4_3 O 0.0743(6) 0.6492(6) 0.1708(6)
O5_3 O 0.1773(6) 0.6482(7) 0.1333(6)
O7_3 O 0.1443(6) 0.7281(6) 0.0662(6)
O8_3 O 0.0435(6) 0.7242(6) 0.0878(6)
O9_3 O 0.0927(6) 0.6381(6) 0.0664(6)
N1_3 N 0.0617(8) 0.5146(8) 0.1372(8)
N3_3 N 0.0343(7) 0.5101(8) 0.0565(8)
N4_3 N 0.0934(10) 0.5243(10) 0.1832(8)
C1_3 C 0.0734(9) 0.5262(8) 0.0877(9)
H3_3 H 0.104034 0.542839 0.076436
C2_3 C 0.0174(10) 0.4873(10) 0.1380(9)
H4_3 H 0.002361 0.471919 0.167650
W4_3 W 0.06875(3) 0.87103(3) 0.12946(4)
W5_3 W 0.09366(3) 0.78003(4) 0.22296(3)
O12_3 O 0.0115(6) 0.8738(6) 0.0814(6)
O14_3 O 0.0554(6) 0.7199(6) 0.2424(6)
O15_3 O 0.1008(6) 0.8243(6) 0.0792(6)
O16_3 O 0.1018(7) 0.9273(6) 0.1167(6)
O18_3 O 0.0219(6) 0.8943(6) 0.1838(6)
O19_3 O 0.0258(6) 0.7935(6) 0.1622(6)
O20_3 O 0.1119(6) 0.8427(6) 0.1836(6)
O21_3 O 0.0415(6) 0.8221(6) 0.2586(6)
O24_3 O 0.0301(6) 0.8054(6) 0.0076(6)
W12_3 W 0.02136(3) 0.65404(4) 0.22389(4)
O33_3 O 0.0463(6) 0.6116(6) 0.2713(7)
P3_4 P 0.250000 0.375000 0.000000
O86_3 O 0.1946(6) 0.4924(6) 0.0301(6)
W30_3 W 0.34596(4) 0.27611(4) 0.02136(3)
O95_3 O 0.3884(6) 0.2287(7) 0.0463(6)
W31_3 W 0.31875(3) 0.37946(4) 0.12103(3)
W32_3 W 0.34366(3) 0.47296(3) 0.03003(4)
W33_3 W 0.22864(3) 0.47389(4) 0.09596(4)
O104_3 O 0.2615(6) 0.3314(6) 0.1238(6)
O105_3 O 0.2037(6) 0.5213(7) 0.1384(6)
O107_3 O 0.3508(6) 0.3292(6) 0.0743(6)
O108_3 O 0.3518(7) 0.3667(6) 0.1773(6)
O109_3 O 0.3957(6) 0.5172(6) 0.0320(6)
O110_3 O 0.2719(6) 0.4338(6) 0.1443(6)
O111_3 O 0.2758(6) 0.4122(6) 0.0435(6)
O112_3 O 0.3619(6) 0.4336(6) 0.0927(6)
O113_3 O 0.2915(6) 0.5086(6) 0.0721(6)
W34_3 W 0.12897(3) 0.37054(4) 0.06875(3)
W35_3 W 0.21997(4) 0.27704(3) 0.09366(3)
O114_3 O 0.1262(6) 0.4186(6) 0.0115(6)
O116_3 O 0.2801(6) 0.2576(6) 0.0554(6)
O117_3 O 0.1757(6) 0.4208(6) 0.1008(6)
O118_3 O 0.0727(6) 0.3833(6) 0.1018(7)
O119_3 O 0.2180(6) 0.2328(6) 0.1457(6)
O120_3 O 0.1057(6) 0.3162(6) 0.0219(6)
O121_3 O 0.2065(6) 0.3378(6) 0.0258(6)
O122_3 O 0.1573(6) 0.3164(6) 0.1119(6)
O123_3 O 0.1779(6) 0.2414(6) 0.0415(6)
H67_3 H 0.100131 0.563546 0.18671
H68_3 H 0.0741551 0.511126 0.215664
Ni1_3 Ni 0.02220(11) 0.52220(11) 0.97780(11)
O2_3 O 0.1384(6) 0.7963(6) 0.9787(7)
O6_3 O 0.0320(6) 0.6043(6) 0.9828(6)
O10_3 O 0.0721(6) 0.7085(6) 0.9914(6)
N9_3 N 0.0146(8) 0.3628(8) 0.9383(8)
N11_3 N 0.0101(8) 0.4435(8) 0.9657(7)
N12_3 N 0.0243(10) 0.3168(8) 0.9066(10)
C5_3 C 0.0262(8) 0.4123(9) 0.9266(9)
H11_3 H 0.042839 0.423564 0.895966
O45_3 O 0.0213(7) 0.6384(6) 0.7037(6)
O49_3 O 0.0172(6) 0.5320(6) 0.8957(6)
O53_3 O 0.0086(6) 0.5721(6) 0.7915(6)
O65_3 O 0.0213(7) 0.3616(6) 0.7963(6)
O69_3 O 0.0172(6) 0.4680(6) 0.6043(6)
O73_3 O 0.0086(6) 0.4279(6) 0.7085(6)
P3_5 P 0.250000 0.375000 1.000000
W25_3 W 0.18125(3) 0.37946(4) 0.87897(3)
W26_3 W 0.15634(3) 0.47296(3) 0.96997(4)
W27_3 W 0.27136(3) 0.47389(4) 0.90404(4)
O84_3 O 0.2385(6) 0.3314(6) 0.8762(6)
O85_3 O 0.2963(6) 0.5213(7) 0.8616(6)
O87_3 O 0.1492(6) 0.3292(6) 0.9257(6)
O88_3 O 0.1482(7) 0.3667(6) 0.8227(6)
O89_3 O 0.1043(6) 0.5172(6) 0.9680(6)
O90_3 O 0.2281(6) 0.4338(6) 0.8557(6)
O91_3 O 0.2242(6) 0.4122(6) 0.9565(6)
O92_3 O 0.1381(6) 0.4336(6) 0.9073(6)
O93_3 O 0.2085(6) 0.5086(6) 0.9279(6)
W28_3 W 0.37103(3) 0.37054(4) 0.93125(3)
W29_3 W 0.28003(4) 0.27704(3) 0.90634(3)
O94_3 O 0.3738(6) 0.4186(6) 0.9885(6)
O96_3 O 0.2199(6) 0.2576(6) 0.9446(6)
O97_3 O 0.3243(6) 0.4208(6) 0.8992(6)
O98_3 O 0.4273(6) 0.3833(6) 0.8982(7)
O100_3 O 0.3943(6) 0.3162(6) 0.9781(6)
O101_3 O 0.2935(6) 0.3378(6) 0.9742(6)
O102_3 O 0.3427(6) 0.3164(6) 0.8881(6)
O103_3 O 0.3221(6) 0.2414(6) 0.9585(6)
O106_3 O 0.3054(6) 0.4924(6) 0.9699(6)
W36_3 W 0.15404(4) 0.27611(4) 0.97864(3)
O115_3 O 0.1116(6) 0.2287(7) 0.9537(6)
H69_3 H 0.063546 0.31329 0.899869
H70_3 H 0.0111256 0.284336 0.925845
P1_5 P 1.000000 0.750000 0.125000
Ni2_3 Ni 0.93856(12) 0.43856(12) 0.06144(12)
O3_3 O 0.9699(6) 0.6946(6) 0.0076(6)
O11_3 O 0.8808(7) 0.3861(7) 0.0379(6)
H1_3 H 0.878454 0.386625 0.004481
H2_3 H 0.851044 0.396965 0.048561
N2_3 N 0.9974(8) 0.4854(7) 0.0883(8)
W6_3 W 0.97864(3) 0.84596(4) 0.22389(4)
O13_3 O 0.9537(6) 0.8884(6) 0.2713(7)
W7_3 W 0.87897(3) 0.81875(3) 0.12054(4)
W8_3 W 0.96997(4) 0.84366(3) 0.02704(3)
W9_3 W 0.90404(4) 0.72864(3) 0.02611(4)
O22_3 O 0.8762(6) 0.7615(6) 0.1686(6)
O25_3 O 0.9257(6) 0.8508(6) 0.1708(6)
O26_3 O 0.8227(6) 0.8518(7) 0.1333(6)
O28_3 O 0.8557(6) 0.7719(6) 0.0662(6)
O29_3 O 0.9565(6) 0.7758(6) 0.0878(6)
O30_3 O 0.9073(6) 0.8619(6) 0.0664(6)
W10_3 W 0.93125(3) 0.62897(3) 0.12946(4)
W11_3 W 0.90634(3) 0.71997(4) 0.22296(3)
O32_3 O 0.9885(6) 0.6262(6) 0.0814(6)
O34_3 O 0.9446(6) 0.7801(6) 0.2424(6)
O35_3 O 0.8992(6) 0.6757(6) 0.0792(6)
O36_3 O 0.8982(7) 0.5727(6) 0.1167(6)
O37_3 O 0.8543(6) 0.7180(6) 0.2672(6)
O38_3 O 0.9781(6) 0.6057(6) 0.1838(6)
O39_3 O 0.9742(6) 0.7065(6) 0.1622(6)
O40_3 O 0.8881(6) 0.6573(6) 0.1836(6)
O41_3 O 0.9585(6) 0.6779(6) 0.2586(6)
O42_3 O 0.9621(6) 0.3808(7) 0.1139(7)
H5_3 H 0.995519 0.378454 0.113375
H6_3 H 0.951439 0.351044 0.103035
N6_3 N 0.9117(8) 0.4974(8) 0.0146(7)
C4_3 C 0.8620(9) 0.5174(10) 0.0127(10)
H8_3 H 0.832350 0.502361 0.028081
O43_3 O 0.8861(7) 0.4621(6) 0.1192(7)
H9_3 H 0.886625 0.495519 0.121546
H10_3 H 0.896965 0.451439 0.148956
N10_3 N 0.9854(7) 0.4117(8) 0.0026(8)
O23_3 O 0.8616(6) 0.7037(6) 0.9787(7)
O27_3 O 0.9680(6) 0.8957(6) 0.9828(6)
O31_3 O 0.9279(6) 0.7915(6) 0.9914(6)
N5_3 N 0.8628(8) 0.5617(8) 0.9854(8)
N7_3 N 0.9435(8) 0.5343(7) 0.9899(8)
N8_3 N 0.8168(8) 0.5934(10) 0.9757(10)
C3_3 C 0.9123(9) 0.5734(9) 0.9738(8)
H7_3 H 0.923564 0.604034 0.957161
C6_3 C 0.9873(10) 0.3620(9) 0.9826(10)
H12_3 H 0.971919 0.332350 0.997639
P2_5 P 0.875000 0.500000 0.750000
W13_3 W 0.87946(4) 0.62103(3) 0.81875(3)
W14_3 W 0.97296(3) 0.53003(4) 0.84366(3)
W15_3 W 0.97389(4) 0.59596(4) 0.72864(3)
O44_3 O 0.8314(6) 0.6238(6) 0.7615(6)
O46_3 O 0.9924(6) 0.4699(6) 0.8054(6)
O47_3 O 0.8292(6) 0.5743(6) 0.8508(6)
O48_3 O 0.8667(6) 0.6773(6) 0.8518(7)
O50_3 O 0.9338(6) 0.6443(6) 0.7719(6)
O51_3 O 0.9122(6) 0.5435(6) 0.7758(6)
O52_3 O 0.9336(6) 0.5927(6) 0.8619(6)
W16_3 W 0.87054(4) 0.56875(3) 0.62897(3)
W17_3 W 0.77704(3) 0.59366(3) 0.71997(4)
W18_3 W 0.77611(4) 0.47864(3) 0.65404(4)
O54_3 O 0.9186(6) 0.5115(6) 0.6262(6)
O55_3 O 0.7287(7) 0.4537(6) 0.6116(6)
O56_3 O 0.7576(6) 0.5554(6) 0.7801(6)
O57_3 O 0.9208(6) 0.6008(6) 0.6757(6)
O58_3 O 0.8833(6) 0.6018(7) 0.5727(6)
O60_3 O 0.8162(6) 0.5219(6) 0.6057(6)
O61_3 O 0.8378(6) 0.5258(6) 0.7065(6)
O62_3 O 0.8164(6) 0.6119(6) 0.6573(6)
O63_3 O 0.7414(6) 0.5415(6) 0.6779(6)
W19_3 W 0.87946(4) 0.37897(3) 0.68125(3)
W20_3 W 0.97296(3) 0.46997(4) 0.65634(3)
W21_3 W 0.97389(4) 0.40404(4) 0.77136(3)
O64_3 O 0.8314(6) 0.3762(6) 0.7385(6)
O66_3 O 0.9924(6) 0.5301(6) 0.6946(6)
O67_3 O 0.8292(6) 0.4257(6) 0.6492(6)
O68_3 O 0.8667(6) 0.3227(6) 0.6482(7)
O70_3 O 0.9338(6) 0.3557(6) 0.7281(6)
O71_3 O 0.9122(6) 0.4565(6) 0.7242(6)
O72_3 O 0.9336(6) 0.4073(6) 0.6381(6)
W22_3 W 0.87054(4) 0.43125(3) 0.87103(3)
W23_3 W 0.77704(3) 0.40634(3) 0.78003(4)
W24_3 W 0.77611(4) 0.52136(3) 0.84596(4)
O74_3 O 0.9186(6) 0.4885(6) 0.8738(6)
O75_3 O 0.7287(7) 0.5463(6) 0.8884(6)
O76_3 O 0.7576(6) 0.4446(6) 0.7199(6)
O77_3 O 0.9208(6) 0.3992(6) 0.8243(6)
O78_3 O 0.8833(6) 0.3982(7) 0.9273(6)
O79_3 O 0.7328(6) 0.3543(6) 0.7820(6)
O80_3 O 0.8162(6) 0.4781(6) 0.8943(6)
O81_3 O 0.8378(6) 0.4742(6) 0.7935(6)
O82_3 O 0.8164(6) 0.3881(6) 0.8427(6)
O83_3 O 0.7414(6) 0.4585(6) 0.8221(6)
H71_3 H 0.81329 0.600131 0.936454
H72_3 H 0.784336 0.574155 0.988874
P1_6 P 0.500000 0.250000 0.625000
W1_4 W 0.37897(3) 0.31875(3) 0.62054(4)
W2_4 W 0.46997(4) 0.34366(3) 0.52704(3)
W3_4 W 0.40404(4) 0.22864(3) 0.52611(4)
Ni1_4 Ni 0.47780(11) 0.47780(11) 0.47780(11)
Ni2_4 Ni 0.56144(12) 0.56144(12) 0.56144(12)
O1_4 O 0.3762(6) 0.2615(6) 0.6686(6)
O2_4 O 0.3616(6) 0.2037(6) 0.4787(7)
O3_4 O 0.5301(6) 0.3054(6) 0.5076(6)
O4_4 O 0.4257(6) 0.3508(6) 0.6708(6)
O5_4 O 0.3227(6) 0.3518(7) 0.6333(6)
O6_4 O 0.4680(6) 0.3957(6) 0.4828(6)
O7_4 O 0.3557(6) 0.2719(6) 0.5662(6)
O8_4 O 0.4565(6) 0.2758(6) 0.5878(6)
O9_4 O 0.4073(6) 0.3619(6) 0.5664(6)
O10_4 O 0.4279(6) 0.2915(6) 0.4914(6)
O11_4 O 0.6192(7) 0.6139(7) 0.5379(6)
H1_4 H 0.621546 0.613375 0.504481
H2_4 H 0.648956 0.603035 0.548561
N1_4 N 0.4383(8) 0.4854(8) 0.6372(8)
N2_4 N 0.5026(8) 0.5146(7) 0.5883(8)
N3_4 N 0.4657(7) 0.4899(8) 0.5565(8)
N4_4 N 0.4066(10) 0.4757(10) 0.6832(8)
C1_4 C 0.4266(9) 0.4738(8) 0.5877(9)
H3_4 H 0.395966 0.457161 0.576436
C2_4 C 0.4826(10) 0.5127(10) 0.6380(9)
H4_4 H 0.497639 0.528081 0.667650
W4_4 W 0.43125(3) 0.12897(3) 0.62946(4)
W5_4 W 0.40634(3) 0.21997(4) 0.72296(3)
W6_4 W 0.52136(3) 0.15404(4) 0.72389(4)
O12_4 O 0.4885(6) 0.1262(6) 0.5814(6)
O13_4 O 0.5463(6) 0.1116(6) 0.7713(7)
O14_4 O 0.4446(6) 0.2801(6) 0.7424(6)
O15_4 O 0.3992(6) 0.1757(6) 0.5792(6)
O16_4 O 0.3982(7) 0.0727(6) 0.6167(6)
O18_4 O 0.4781(6) 0.1057(6) 0.6838(6)
O19_4 O 0.4742(6) 0.2065(6) 0.6622(6)
O20_4 O 0.3881(6) 0.1573(6) 0.6836(6)
O21_4 O 0.4585(6) 0.1779(6) 0.7586(6)
W7_4 W 0.62103(3) 0.18125(3) 0.62054(4)
W8_4 W 0.53003(4) 0.15634(3) 0.52704(3)
W9_4 W 0.59596(4) 0.27136(3) 0.52611(4)
O22_4 O 0.6238(6) 0.2385(6) 0.6686(6)
O23_4 O 0.6384(6) 0.2963(6) 0.4787(7)
O24_4 O 0.4699(6) 0.1946(6) 0.5076(6)
O25_4 O 0.5743(6) 0.1492(6) 0.6708(6)
O26_4 O 0.6773(6) 0.1482(7) 0.6333(6)
O27_4 O 0.5320(6) 0.1043(6) 0.4828(6)
O28_4 O 0.6443(6) 0.2281(6) 0.5662(6)
O29_4 O 0.5435(6) 0.2242(6) 0.5878(6)
O30_4 O 0.5927(6) 0.1381(6) 0.5664(6)
O31_4 O 0.5721(6) 0.2085(6) 0.4914(6)
W10_4 W 0.56875(3) 0.37103(3) 0.62946(4)
W11_4 W 0.59366(3) 0.28003(4) 0.72296(3)
W12_4 W 0.47864(3) 0.34596(4) 0.72389(4)
O32_4 O 0.5115(6) 0.3738(6) 0.5814(6)
O33_4 O 0.4537(6) 0.3884(6) 0.7713(7)
O34_4 O 0.5554(6) 0.2199(6) 0.7424(6)
O35_4 O 0.6008(6) 0.3243(6) 0.5792(6)
O36_4 O 0.6018(7) 0.4273(6) 0.6167(6)
O37_4 O 0.6457(6) 0.2820(6) 0.7672(6)
O38_4 O 0.5219(6) 0.3943(6) 0.6838(6)
O39_4 O 0.5258(6) 0.2935(6) 0.6622(6)
O40_4 O 0.6119(6) 0.3427(6) 0.6836(6)
O41_4 O 0.5415(6) 0.3221(6) 0.7586(6)
O42_4 O 0.5379(6) 0.6192(7) 0.6139(7)
H5_4 H 0.504481 0.621546 0.613375
H6_4 H 0.548561 0.648956 0.603035
N5_4 N 0.6372(8) 0.4383(8) 0.4854(8)
N6_4 N 0.5883(8) 0.5026(8) 0.5146(7)
N7_4 N 0.5565(8) 0.4657(7) 0.4899(8)
N8_4 N 0.6832(8) 0.4066(10) 0.4757(10)
C3_4 C 0.5877(9) 0.4266(9) 0.4738(8)
H7_4 H 0.576436 0.395966 0.457161
C4_4 C 0.6380(9) 0.4826(10) 0.5127(10)
H8_4 H 0.667650 0.497639 0.528081
O43_4 O 0.6139(7) 0.5379(6) 0.6192(7)
H9_4 H 0.613375 0.504481 0.621546
H10_4 H 0.603035 0.548561 0.648956
N9_4 N 0.4854(8) 0.6372(8) 0.4383(8)
N10_4 N 0.5146(7) 0.5883(8) 0.5026(8)
N11_4 N 0.4899(8) 0.5565(8) 0.4657(7)
N12_4 N 0.4757(10) 0.6832(8) 0.4066(10)
C5_4 C 0.4738(8) 0.5877(9) 0.4266(9)
H11_4 H 0.457161 0.576436 0.395966
C6_4 C 0.5127(10) 0.6380(9) 0.4826(10)
H12_4 H 0.528081 0.667650 0.497639
P2_6 P 0.625000 0.500000 0.250000
W13_4 W 0.62054(4) 0.37897(3) 0.31875(3)
W14_4 W 0.52704(3) 0.46997(4) 0.34366(3)
W15_4 W 0.52611(4) 0.40404(4) 0.22864(3)
O44_4 O 0.6686(6) 0.3762(6) 0.2615(6)
O45_4 O 0.4787(7) 0.3616(6) 0.2037(6)
O46_4 O 0.5076(6) 0.5301(6) 0.3054(6)
O47_4 O 0.6708(6) 0.4257(6) 0.3508(6)
O48_4 O 0.6333(6) 0.3227(6) 0.3518(7)
O49_4 O 0.4828(6) 0.4680(6) 0.3957(6)
O50_4 O 0.5662(6) 0.3557(6) 0.2719(6)
O51_4 O 0.5878(6) 0.4565(6) 0.2758(6)
O52_4 O 0.5664(6) 0.4073(6) 0.3619(6)
O53_4 O 0.4914(6) 0.4279(6) 0.2915(6)
W16_4 W 0.62946(4) 0.43125(3) 0.12897(3)
W17_4 W 0.72296(3) 0.40634(3) 0.21997(4)
W18_4 W 0.72389(4) 0.52136(3) 0.15404(4)
O54_4 O 0.5814(6) 0.4885(6) 0.1262(6)
O55_4 O 0.7713(7) 0.5463(6) 0.1116(6)
O56_4 O 0.7424(6) 0.4446(6) 0.2801(6)
O57_4 O 0.5792(6) 0.3992(6) 0.1757(6)
O58_4 O 0.6167(6) 0.3982(7) 0.0727(6)
O60_4 O 0.6838(6) 0.4781(6) 0.1057(6)
O61_4 O 0.6622(6) 0.4742(6) 0.2065(6)
O62_4 O 0.6836(6) 0.3881(6) 0.1573(6)
O63_4 O 0.7586(6) 0.4585(6) 0.1779(6)
W19_4 W 0.62054(4) 0.62103(3) 0.18125(3)
W20_4 W 0.52704(3) 0.53003(4) 0.15634(3)
W21_4 W 0.52611(4) 0.59596(4) 0.27136(3)
O64_4 O 0.6686(6) 0.6238(6) 0.2385(6)
O65_4 O 0.4787(7) 0.6384(6) 0.2963(6)
O66_4 O 0.5076(6) 0.4699(6) 0.1946(6)
O67_4 O 0.6708(6) 0.5743(6) 0.1492(6)
O68_4 O 0.6333(6) 0.6773(6) 0.1482(7)
O69_4 O 0.4828(6) 0.5320(6) 0.1043(6)
O70_4 O 0.5662(6) 0.6443(6) 0.2281(6)
O71_4 O 0.5878(6) 0.5435(6) 0.2242(6)
O72_4 O 0.5664(6) 0.5927(6) 0.1381(6)
O73_4 O 0.4914(6) 0.5721(6) 0.2085(6)
W22_4 W 0.62946(4) 0.56875(3) 0.37103(3)
W23_4 W 0.72296(3) 0.59366(3) 0.28003(4)
W24_4 W 0.72389(4) 0.47864(3) 0.34596(4)
O74_4 O 0.5814(6) 0.5115(6) 0.3738(6)
O75_4 O 0.7713(7) 0.4537(6) 0.3884(6)
O76_4 O 0.7424(6) 0.5554(6) 0.2199(6)
O77_4 O 0.5792(6) 0.6008(6) 0.3243(6)
O78_4 O 0.6167(6) 0.6018(7) 0.4273(6)
O79_4 O 0.7672(6) 0.6457(6) 0.2820(6)
O80_4 O 0.6838(6) 0.5219(6) 0.3943(6)
O81_4 O 0.6622(6) 0.5258(6) 0.2935(6)
O82_4 O 0.6836(6) 0.6119(6) 0.3427(6)
O83_4 O 0.7586(6) 0.5415(6) 0.3221(6)
P3_6 P 0.250000 0.625000 0.500000
W25_4 W 0.31875(3) 0.62054(4) 0.37897(3)
W26_4 W 0.34366(3) 0.52704(3) 0.46997(4)
W27_4 W 0.22864(3) 0.52611(4) 0.40404(4)
O84_4 O 0.2615(6) 0.6686(6) 0.3762(6)
O85_4 O 0.2037(6) 0.4787(7) 0.3616(6)
O86_4 O 0.3054(6) 0.5076(6) 0.5301(6)
O87_4 O 0.3508(6) 0.6708(6) 0.4257(6)
O88_4 O 0.3518(7) 0.6333(6) 0.3227(6)
O89_4 O 0.3957(6) 0.4828(6) 0.4680(6)
O90_4 O 0.2719(6) 0.5662(6) 0.3557(6)
O91_4 O 0.2758(6) 0.5878(6) 0.4565(6)
O92_4 O 0.3619(6) 0.5664(6) 0.4073(6)
O93_4 O 0.2915(6) 0.4914(6) 0.4279(6)
W28_4 W 0.12897(3) 0.62946(4) 0.43125(3)
W29_4 W 0.21997(4) 0.72296(3) 0.40634(3)
W30_4 W 0.15404(4) 0.72389(4) 0.52136(3)
O94_4 O 0.1262(6) 0.5814(6) 0.4885(6)
O95_4 O 0.1116(6) 0.7713(7) 0.5463(6)
O96_4 O 0.2801(6) 0.7424(6) 0.4446(6)
O97_4 O 0.1757(6) 0.5792(6) 0.3992(6)
O98_4 O 0.0727(6) 0.6167(6) 0.3982(7)
O100_4 O 0.1057(6) 0.6838(6) 0.4781(6)
O101_4 O 0.2065(6) 0.6622(6) 0.4742(6)
O102_4 O 0.1573(6) 0.6836(6) 0.3881(6)
O103_4 O 0.1779(6) 0.7586(6) 0.4585(6)
W31_4 W 0.18125(3) 0.62054(4) 0.62103(3)
W32_4 W 0.15634(3) 0.52704(3) 0.53003(4)
W33_4 W 0.27136(3) 0.52611(4) 0.59596(4)
O104_4 O 0.2385(6) 0.6686(6) 0.6238(6)
O105_4 O 0.2963(6) 0.4787(7) 0.6384(6)
O106_4 O 0.1946(6) 0.5076(6) 0.4699(6)
O107_4 O 0.1492(6) 0.6708(6) 0.5743(6)
O108_4 O 0.1482(7) 0.6333(6) 0.6773(6)
O109_4 O 0.1043(6) 0.4828(6) 0.5320(6)
O110_4 O 0.2281(6) 0.5662(6) 0.6443(6)
O111_4 O 0.2242(6) 0.5878(6) 0.5435(6)
O112_4 O 0.1381(6) 0.5664(6) 0.5927(6)
O113_4 O 0.2085(6) 0.4914(6) 0.5721(6)
W34_4 W 0.37103(3) 0.62946(4) 0.56875(3)
W35_4 W 0.28003(4) 0.72296(3) 0.59366(3)
W36_4 W 0.34596(4) 0.72389(4) 0.47864(3)
O114_4 O 0.3738(6) 0.5814(6) 0.5115(6)
O115_4 O 0.3884(6) 0.7713(7) 0.4537(6)
O116_4 O 0.2199(6) 0.7424(6) 0.5554(6)
O117_4 O 0.3243(6) 0.5792(6) 0.6008(6)
O118_4 O 0.4273(6) 0.6167(6) 0.6018(7)
O119_4 O 0.2820(6) 0.7672(6) 0.6457(6)
O120_4 O 0.3943(6) 0.6838(6) 0.5219(6)
O121_4 O 0.2935(6) 0.6622(6) 0.5258(6)
O122_4 O 0.3427(6) 0.6836(6) 0.6119(6)
O123_4 O 0.3221(6) 0.7586(6) 0.5415(6)
H67_4 H 0.399869 0.436454 0.68671
H68_4 H 0.425845 0.488874 0.715664
H69_4 H 0.436454 0.68671 0.399869
H70_4 H 0.488874 0.715664 0.425845
H71_4 H 0.68671 0.399869 0.436454
H72_4 H 0.715664 0.425845 0.488874
Ni6_2 Ni 0.06144(12) 0.06144(12) 0.06144(12)
O127_2 O 0.1192(7) 0.1139(7) 0.0379(6)
H25_2 H 0.121546 0.113375 0.004481
H26_2 H 0.148956 0.103035 0.048561
N26_2 N 0.0026(8) 0.0146(7) 0.0883(8)
O128_2 O 0.0379(6) 0.1192(7) 0.1139(7)
H29_2 H 0.004481 0.121546 0.113375
H30_2 H 0.048561 0.148956 0.103035
N30_2 N 0.0883(8) 0.0026(8) 0.0146(7)
O129_2 O 0.1139(7) 0.0379(6) 0.1192(7)
H33_2 H 0.113375 0.004481 0.121546
H34_2 H 0.103035 0.048561 0.148956
N34_2 N 0.0146(7) 0.0883(8) 0.0026(8)
N37_3 N 0.6372(8) 0.5617(8) 0.0146(8)
N39_3 N 0.5565(8) 0.5343(7) 0.0101(8)
N40_3 N 0.6832(8) 0.5934(10) 0.0243(10)
C19_3 C 0.5877(9) 0.5734(9) 0.0262(8)
H39_3 H 0.576436 0.604034 0.042839
N41_3 N 0.4854(8) 0.3628(8) 0.0617(8)
N43_3 N 0.4899(8) 0.4435(8) 0.0343(7)
N44_3 N 0.4757(10) 0.3168(8) 0.0934(10)
C21_3 C 0.4738(8) 0.4123(9) 0.0734(9)
H43_3 H 0.457161 0.423564 0.104034
C22_3 C 0.5127(10) 0.3620(9) 0.0174(10)
H44_3 H 0.528081 0.332350 0.002361
H51_3 H 0.679655 0.628262 0.00506674
H52_3 H 0.715664 0.574155 0.0111256
H53_3 H 0.494933 0.320345 0.128262
H54_3 H 0.488874 0.284336 0.0741551
N13_2 N 0.5617(8) 0.0146(8) 0.6372(8)
N15_2 N 0.5343(7) 0.0101(8) 0.5565(8)
N16_2 N 0.5934(10) 0.0243(10) 0.6832(8)
C7_2 C 0.5734(9) 0.0262(8) 0.5877(9)
H15_2 H 0.604034 0.042839 0.576436
N17_2 N 0.3628(8) 0.0617(8) 0.4854(8)
N19_2 N 0.4435(8) 0.0343(7) 0.4899(8)
N20_2 N 0.3168(8) 0.0934(10) 0.4757(10)
C9_2 C 0.4123(9) 0.0734(9) 0.4738(8)
H19_2 H 0.423564 0.104034 0.457161
C10_2 C 0.3620(9) 0.0174(10) 0.5127(10)
H20_2 H 0.332350 0.002361 0.528081
C18_2 C 0.0127(10) 0.1380(9) 0.9826(10)
H36_2 H 0.028081 0.167650 0.997639
Ni8_3 Ni 0.56144(12) 0.43856(12) 0.93856(12)
O130_3 O 0.5379(6) 0.3808(7) 0.8861(7)
H37_3 H 0.504481 0.378454 0.886625
H38_3 H 0.548561 0.351044 0.896965
N38_3 N 0.5883(8) 0.4974(8) 0.9854(7)
C20_3 C 0.6380(9) 0.5174(10) 0.9873(10)
H40_3 H 0.667650 0.502361 0.971919
O131_3 O 0.6139(7) 0.4621(6) 0.8808(7)
H41_3 H 0.613375 0.495519 0.878454
H42_3 H 0.603035 0.451439 0.851044
N42_3 N 0.5146(7) 0.4117(8) 0.9974(8)
O132_3 O 0.6192(7) 0.3861(7) 0.9621(6)
H45_3 H 0.621546 0.386625 0.995519
H46_3 H 0.648956 0.396965 0.951439
N45_3 N 0.4383(8) 0.5146(8) 0.8628(8)
N46_3 N 0.5026(8) 0.4854(7) 0.9117(8)
N47_3 N 0.4657(7) 0.5101(8) 0.9435(8)
N48_3 N 0.4066(10) 0.5243(10) 0.8168(8)
C23_3 C 0.4266(9) 0.5262(8) 0.9123(9)
H47_3 H 0.395966 0.542839 0.923564
C24_3 C 0.4826(10) 0.4873(10) 0.8620(9)
H48_3 H 0.497639 0.471919 0.832350
H55_3 H 0.371738 0.505067 0.820345
H56_3 H 0.425845 0.511126 0.784336
H57_2 H 0.628262 0.00506674 0.679655
H58_2 H 0.574155 0.0111256 0.715664
H59_2 H 0.320345 0.128262 0.494933
H60_2 H 0.284336 0.0741551 0.488874
H67_5 H 0.313546 0.149869 0.56329
H69_5 H 0.06329 0.186454 0.850131
H71_5 H 0.350131 0.43671 0.813546
C16_2 C 0.1380(9) 0.9826(10) 0.0127(10)
H32_2 H 0.167650 0.997639 0.028081
Ni4_2 Ni 0.43856(12) 0.93856(12) 0.56144(12)
O124_2 O 0.3808(7) 0.8861(7) 0.5379(6)
H13_2 H 0.378454 0.886625 0.504481
H14_2 H 0.351044 0.896965 0.548561
N14_2 N 0.4974(8) 0.9854(7) 0.5883(8)
C8_2 C 0.5174(10) 0.9873(10) 0.6380(9)
H16_2 H 0.502361 0.971919 0.667650
O125_2 O 0.4621(6) 0.8808(7) 0.6139(7)
H17_2 H 0.495519 0.878454 0.613375
H18_2 H 0.451439 0.851044 0.603035
N18_2 N 0.4117(8) 0.9974(8) 0.5146(7)
O126_2 O 0.3861(7) 0.9621(6) 0.6192(7)
H21_2 H 0.386625 0.995519 0.621546
H22_2 H 0.396965 0.951439 0.648956
N21_2 N 0.5146(8) 0.8628(8) 0.4383(8)
N22_2 N 0.4854(7) 0.9117(8) 0.5026(8)
N23_2 N 0.5101(8) 0.9435(8) 0.4657(7)
N24_2 N 0.5243(10) 0.8168(8) 0.4066(10)
C11_2 C 0.5262(8) 0.9123(9) 0.4266(9)
H23_2 H 0.542839 0.923564 0.395966
C12_2 C 0.4873(10) 0.8620(9) 0.4826(10)
H24_2 H 0.471919 0.832350 0.497639
N29_2 N 0.1372(8) 0.9383(8) 0.9854(8)
N31_2 N 0.0565(8) 0.9657(7) 0.9899(8)
N32_2 N 0.1832(8) 0.9066(10) 0.9757(10)
C15_2 C 0.0877(9) 0.9266(9) 0.9738(8)
H31_2 H 0.076436 0.895966 0.957161
H61_2 H 0.505067 0.820345 0.371738
H62_2 H 0.511126 0.784336 0.425845
H65_2 H 0.179655 0.871738 0.994933
H66_2 H 0.215664 0.925845 0.988874
C14_2 C 0.9826(10) 0.0127(10) 0.1380(9)
H28_2 H 0.997639 0.028081 0.167650
N33_2 N 0.9854(8) 0.1372(8) 0.9383(8)
N35_2 N 0.9899(8) 0.0565(8) 0.9657(7)
N36_2 N 0.9757(10) 0.1832(8) 0.9066(10)
C17_2 C 0.9738(8) 0.0877(9) 0.9266(9)
H35_2 H 0.957161 0.076436 0.895966
H49_2 H 0.994933 0.179655 0.871738
H50_2 H 0.988874 0.215664 0.925845
N25_2 N 0.9383(8) 0.9854(8) 0.1372(8)
N27_2 N 0.9657(7) 0.9899(8) 0.0565(8)
N28_2 N 0.9066(10) 0.9757(10) 0.1832(8)
C13_2 C 0.9266(9) 0.9738(8) 0.0877(9)
H27_2 H 0.895966 0.957161 0.076436
H63_2 H 0.871738 0.994933 0.179655
H64_2 H 0.925845 0.988874 0.215664
N41_4 N 0.0146(8) 0.6372(8) 0.5617(8)
N43_4 N 0.0101(8) 0.5565(8) 0.5343(7)
N44_4 N 0.0243(10) 0.6832(8) 0.5934(10)
C21_4 C 0.0262(8) 0.5877(9) 0.5734(9)
H43_4 H 0.042839 0.576436 0.604034
N45_4 N 0.0617(8) 0.4854(8) 0.3628(8)
N47_4 N 0.0343(7) 0.4899(8) 0.4435(8)
N48_4 N 0.0934(10) 0.4757(10) 0.3168(8)
C23_4 C 0.0734(9) 0.4738(8) 0.4123(9)
H47_4 H 0.104034 0.457161 0.423564
C24_4 C 0.0174(10) 0.5127(10) 0.3620(9)
H48_4 H 0.002361 0.528081 0.332350
H53_4 H 0.00506674 0.679655 0.628262
H54_4 H 0.0111256 0.715664 0.574155
H55_4 H 0.128262 0.494933 0.320345
H56_4 H 0.0741551 0.488874 0.284336
H67_6 H 0.186454 0.850131 0.06329
H69_6 H 0.43671 0.813546 0.350131
H71_6 H 0.149869 0.56329 0.313546
Ni8_4 Ni 0.93856(12) 0.56144(12) 0.43856(12)
O130_4 O 0.9621(6) 0.6192(7) 0.3861(7)
H37_4 H 0.995519 0.621546 0.386625
H38_4 H 0.951439 0.648956 0.396965
N37_4 N 0.8628(8) 0.4383(8) 0.5146(8)
N38_4 N 0.9117(8) 0.5026(8) 0.4854(7)
N39_4 N 0.9435(8) 0.4657(7) 0.5101(8)
N40_4 N 0.8168(8) 0.4066(10) 0.5243(10)
C19_4 C 0.9123(9) 0.4266(9) 0.5262(8)
H39_4 H 0.923564 0.395966 0.542839
C20_4 C 0.8620(9) 0.4826(10) 0.4873(10)
H40_4 H 0.832350 0.497639 0.471919
O131_4 O 0.8861(7) 0.5379(6) 0.3808(7)
H41_4 H 0.886625 0.504481 0.378454
H42_4 H 0.896965 0.548561 0.351044
N42_4 N 0.9854(7) 0.5883(8) 0.4974(8)
C22_4 C 0.9873(10) 0.6380(9) 0.5174(10)
H44_4 H 0.971919 0.667650 0.502361
O132_4 O 0.8808(7) 0.6139(7) 0.4621(6)
H45_4 H 0.878454 0.613375 0.495519
H46_4 H 0.851044 0.603035 0.451439
N46_4 N 0.9974(8) 0.5146(7) 0.4117(8)
H51_4 H 0.820345 0.371738 0.505067
H52_4 H 0.784336 0.425845 0.511126
H67_7 H 0.813546 0.350131 0.43671
H69_7 H 0.56329 0.313546 0.149869
H71_7 H 0.850131 0.06329 0.186454
H67_8 H 0.686454 0.649869 0.93671
H69_8 H 0.93671 0.686454 0.649869
H71_8 H 0.649869 0.93671 0.686454
Ni6_3 Ni 0.31144(12) 0.31144(12) 0.31144(12)
O127_3 O 0.3639(7) 0.3692(7) 0.2879(6)
H25_3 H 0.363375 0.371546 0.254481
H26_3 H 0.353035 0.398956 0.298561
N25_3 N 0.2354(8) 0.1883(8) 0.3872(8)
N26_3 N 0.2646(7) 0.2526(8) 0.3383(8)
N27_3 N 0.2399(8) 0.2157(7) 0.3065(8)
N28_3 N 0.2257(10) 0.1566(10) 0.4332(8)
C13_3 C 0.2238(8) 0.1766(9) 0.3377(9)
H27_3 H 0.207161 0.145966 0.326436
C14_3 C 0.2627(10) 0.2326(10) 0.3880(9)
H28_3 H 0.278081 0.247639 0.417650
O128_3 O 0.3692(7) 0.2879(6) 0.3639(7)
H29_3 H 0.371546 0.254481 0.363375
H30_3 H 0.398956 0.298561 0.353035
N29_3 N 0.1883(8) 0.3872(8) 0.2354(8)
N30_3 N 0.2526(8) 0.3383(8) 0.2646(7)
N31_3 N 0.2157(7) 0.3065(8) 0.2399(8)
N32_3 N 0.1566(10) 0.4332(8) 0.2257(10)
C15_3 C 0.1766(9) 0.3377(9) 0.2238(8)
H31_3 H 0.145966 0.326436 0.207161
C16_3 C 0.2326(10) 0.3880(9) 0.2627(10)
H32_3 H 0.247639 0.417650 0.278081
O129_3 O 0.2879(6) 0.3639(7) 0.3692(7)
H33_3 H 0.254481 0.363375 0.371546
H34_3 H 0.298561 0.353035 0.398956
N33_3 N 0.3872(8) 0.2354(8) 0.1883(8)
N34_3 N 0.3383(8) 0.2646(7) 0.2526(8)
N35_3 N 0.3065(8) 0.2399(8) 0.2157(7)
N36_3 N 0.4332(8) 0.2257(10) 0.1566(10)
C17_3 C 0.3377(9) 0.2238(8) 0.1766(9)
H35_3 H 0.326436 0.207161 0.145966
C18_3 C 0.3880(9) 0.2627(10) 0.2326(10)
H36_3 H 0.417650 0.278081 0.247639
Ni8_5 Ni 0.68856(12) 0.81144(12) 0.18856(12)
O130_5 O 0.6308(7) 0.7879(6) 0.1361(7)
H37_5 H 0.628454 0.754481 0.136625
H38_5 H 0.601044 0.798561 0.146965
N37_5 N 0.8117(8) 0.8872(8) 0.2646(8)
N38_5 N 0.7474(8) 0.8383(8) 0.2354(7)
N39_5 N 0.7843(7) 0.8065(8) 0.2601(8)
N40_5 N 0.8434(10) 0.9332(8) 0.2743(10)
C19_5 C 0.8234(9) 0.8377(9) 0.2762(8)
H39_5 H 0.854034 0.826436 0.292839
C20_5 C 0.7674(10) 0.8880(9) 0.2373(10)
H40_5 H 0.752361 0.917650 0.221919
O131_5 O 0.7121(6) 0.8639(7) 0.1308(7)
H41_5 H 0.745519 0.863375 0.128454
H42_5 H 0.701439 0.853035 0.101044
N41_5 N 0.6128(8) 0.7354(8) 0.3117(8)
N42_5 N 0.6617(8) 0.7646(7) 0.2474(8)
N43_5 N 0.6935(8) 0.7399(8) 0.2843(7)
N44_5 N 0.5668(8) 0.7257(10) 0.3434(10)
C21_5 C 0.6623(9) 0.7238(8) 0.3234(9)
H43_5 H 0.673564 0.707161 0.354034
C22_5 C 0.6120(9) 0.7627(10) 0.2674(10)
H44_5 H 0.582350 0.778081 0.252361
O132_5 O 0.6361(7) 0.8692(7) 0.2121(6)
H45_5 H 0.636625 0.871546 0.245519
H46_5 H 0.646965 0.898956 0.201439
N45_5 N 0.7646(8) 0.6883(8) 0.1128(8)
N46_5 N 0.7354(7) 0.7526(8) 0.1617(8)
N47_5 N 0.7601(8) 0.7157(7) 0.1935(8)
N48_5 N 0.7743(10) 0.6566(10) 0.0668(8)
C23_5 C 0.7762(8) 0.6766(9) 0.1623(9)
H47_5 H 0.792839 0.645966 0.173564
C24_5 C 0.7373(10) 0.7326(10) 0.1120(9)
H48_5 H 0.721919 0.747639 0.082350
H49_3 H 0.429655 0.244933 0.121738
H50_3 H 0.465664 0.238874 0.175845
H51_5 H 0.878262 0.929655 0.255067
H52_5 H 0.824155 0.965664 0.261126
H53_5 H 0.570345 0.744933 0.378262
H54_5 H 0.534336 0.738874 0.324155
H55_5 H 0.755067 0.621738 0.0703449
H56_5 H 0.761126 0.675845 0.0343356
H63_3 H 0.244933 0.121738 0.429655
H64_3 H 0.238874 0.175845 0.465664
H65_3 H 0.121738 0.429655 0.244933
H66_3 H 0.175845 0.465664 0.238874
H69_9 H 0.436454 0.31329 0.100131
H71_9 H 0.68671 0.600131 0.063546
Ni4_3 Ni 0.18856(12) 0.68856(12) 0.81144(12)
O124_3 O 0.1361(7) 0.6308(7) 0.7879(6)
H13_3 H 0.136625 0.628454 0.754481
H14_3 H 0.146965 0.601044 0.798561
N13_3 N 0.2646(8) 0.8117(8) 0.8872(8)
N14_3 N 0.2354(7) 0.7474(8) 0.8383(8)
N15_3 N 0.2601(8) 0.7843(7) 0.8065(8)
N16_3 N 0.2743(10) 0.8434(10) 0.9332(8)
C7_3 C 0.2762(8) 0.8234(9) 0.8377(9)
H15_3 H 0.292839 0.854034 0.826436
C8_3 C 0.2373(10) 0.7674(10) 0.8880(9)
H16_3 H 0.221919 0.752361 0.917650
O125_3 O 0.1308(7) 0.7121(6) 0.8639(7)
H17_3 H 0.128454 0.745519 0.863375
H18_3 H 0.101044 0.701439 0.853035
N17_3 N 0.3117(8) 0.6128(8) 0.7354(8)
N18_3 N 0.2474(8) 0.6617(8) 0.7646(7)
N19_3 N 0.2843(7) 0.6935(8) 0.7399(8)
N20_3 N 0.3434(10) 0.5668(8) 0.7257(10)
C9_3 C 0.3234(9) 0.6623(9) 0.7238(8)
H19_3 H 0.354034 0.673564 0.707161
C10_3 C 0.2674(10) 0.6120(9) 0.7627(10)
H20_3 H 0.252361 0.582350 0.778081
O126_3 O 0.2121(6) 0.6361(7) 0.8692(7)
H21_3 H 0.245519 0.636625 0.871546
H22_3 H 0.201439 0.646965 0.898956
N21_3 N 0.1128(8) 0.7646(8) 0.6883(8)
N22_3 N 0.1617(8) 0.7354(7) 0.7526(8)
N23_3 N 0.1935(8) 0.7601(8) 0.7157(7)
N24_3 N 0.0668(8) 0.7743(10) 0.6566(10)
C11_3 C 0.1623(9) 0.7762(8) 0.6766(9)
H23_3 H 0.173564 0.792839 0.645966
C12_3 C 0.1120(9) 0.7373(10) 0.7326(10)
H24_3 H 0.082350 0.721919 0.747639
H57_3 H 0.255067 0.878262 0.929655
H58_3 H 0.261126 0.824155 0.965664
H59_3 H 0.378262 0.570345 0.744933
H60_3 H 0.324155 0.534336 0.738874
H61_3 H 0.0703449 0.755067 0.621738
H62_3 H 0.0343356 0.761126 0.675845
H67_9 H 0.399869 0.563546 0.81329
H67_10 H 0.100131 0.436454 0.31329
H69_10 H 0.063546 0.68671 0.600131
Ni8_6 Ni 0.81144(12) 0.18856(12) 0.68856(12)
O130_6 O 0.8692(7) 0.2121(6) 0.6361(7)
H37_6 H 0.871546 0.245519 0.636625
H38_6 H 0.898956 0.201439 0.646965
N37_6 N 0.6883(8) 0.1128(8) 0.7646(8)
N38_6 N 0.7526(8) 0.1617(8) 0.7354(7)
N39_6 N 0.7157(7) 0.1935(8) 0.7601(8)
N40_6 N 0.6566(10) 0.0668(8) 0.7743(10)
C19_6 C 0.6766(9) 0.1623(9) 0.7762(8)
H39_6 H 0.645966 0.173564 0.792839
C20_6 C 0.7326(10) 0.1120(9) 0.7373(10)
H40_6 H 0.747639 0.082350 0.721919
O131_6 O 0.7879(6) 0.1361(7) 0.6308(7)
H41_6 H 0.754481 0.136625 0.628454
H42_6 H 0.798561 0.146965 0.601044
N41_6 N 0.8872(8) 0.2646(8) 0.8117(8)
N42_6 N 0.8383(8) 0.2354(7) 0.7474(8)
N43_6 N 0.8065(8) 0.2601(8) 0.7843(7)
N44_6 N 0.9332(8) 0.2743(10) 0.8434(10)
C21_6 C 0.8377(9) 0.2762(8) 0.8234(9)
H43_6 H 0.826436 0.292839 0.854034
C22_6 C 0.8880(9) 0.2373(10) 0.7674(10)
H44_6 H 0.917650 0.221919 0.752361
O132_6 O 0.8639(7) 0.1308(7) 0.7121(6)
H45_6 H 0.863375 0.128454 0.745519
H46_6 H 0.853035 0.101044 0.701439
N45_6 N 0.7354(8) 0.3117(8) 0.6128(8)
N46_6 N 0.7646(7) 0.2474(8) 0.6617(8)
N47_6 N 0.7399(8) 0.2843(7) 0.6935(8)
N48_6 N 0.7257(10) 0.3434(10) 0.5668(8)
C23_6 C 0.7238(8) 0.3234(9) 0.6623(9)
H47_6 H 0.707161 0.354034 0.673564
C24_6 C 0.7627(10) 0.2674(10) 0.6120(9)
H48_6 H 0.778081 0.252361 0.582350
H51_6 H 0.621738 0.0703449 0.755067
H52_6 H 0.675845 0.0343356 0.761126
H53_6 H 0.929655 0.255067 0.878262
H54_6 H 0.965664 0.261126 0.824155
H55_6 H 0.744933 0.378262 0.570345
H56_6 H 0.738874 0.324155 0.534336
H71_10 H 0.81329 0.399869 0.563546
H67_11 H 0.600131 0.063546 0.68671
H71_11 H 0.31329 0.100131 0.436454
H69_11 H 0.563546 0.81329 0.399869
H71_12 H 0.18671 0.899869 0.936454
H69_12 H 0.936454 0.18671 0.899869
H67_12 H 0.899869 0.936454 0.18671
H51_7 H 0.179655 0.128262 0.505067
H57_4 H 0.128262 0.505067 0.179655
H61_4 H 0.00506674 0.320345 0.871738
H55_7 H 0.871738 0.00506674 0.320345
H49_4 H 0.494933 0.679655 0.371738
H53_7 H 0.994933 0.820345 0.628262
H63_4 H 0.371738 0.494933 0.679655
H65_4 H 0.679655 0.371738 0.494933
H67_13 H 0.813546 0.649869 0.06329
H69_13 H 0.56329 0.686454 0.350131
H71_13 H 0.850131 0.93671 0.313546
H59_4 H 0.820345 0.628262 0.994933
H53_8 H 0.505067 0.179655 0.128262
H67_14 H 0.686454 0.350131 0.56329
H69_14 H 0.93671 0.313546 0.850131
H71_14 H 0.649869 0.06329 0.813546
H51_8 H 0.320345 0.871738 0.00506674
H55_8 H 0.628262 0.994933 0.820345
H67_15 H 0.313546 0.850131 0.93671
H69_15 H 0.06329 0.813546 0.649869
H71_15 H 0.350131 0.56329 0.686454
H67_16 H 0.186454 0.149869 0.43671
H69_16 H 0.43671 0.186454 0.149869
H71_16 H 0.149869 0.43671 0.186454
loop_
_geom_bond_atom_site_label_1
_geom_bond_atom_site_label_2
_geom_bond_site_symmetry_1
_geom_bond_site_symmetry_2
O3 W9 1_555 1_555
W6 O13 1_555 1_555
W7 O22 1_555 1_555
W9 O23 1_555 1_555
O22 W11 1_555 1_555
O25 W6 1_555 1_555
O26 W7 1_555 1_555
O27 W8 1_555 1_555
O28 W7 1_555 1_555
O29 P1 1_555 1_555
O30 W7 1_555 1_555
O31 W8 1_555 1_555
W10 O32 1_555 1_555
W11 O34 1_555 1_555
O34 W6 1_555 1_555
O35 W9 1_555 1_555
O36 W10 1_555 1_555
O37 W11 1_555 1_555
O38 W10 1_555 1_555
O39 P1 1_555 1_555
O40 W10 1_555 1_555
O41 W11 1_555 1_555
N5 N8 1_555 1_555
C3 N5 1_555 1_555
H7 C3 1_555 1_555
C4 N5 1_555 1_555
H8 C4 1_555 1_555
P2 O51 1_555 1_555
W13 O44 1_555 1_555
O44 W17 1_555 1_555
O47 W13 1_555 1_555
O48 W13 1_555 1_555
O50 W13 1_555 1_555
O51 W13 1_555 1_555
O52 W13 1_555 1_555
W16 O54 1_555 1_555
W17 O56 1_555 1_555
O56 W24 1_555 1_555
O57 W15 1_555 1_555
O58 W16 1_555 1_555
O59 W17 1_555 1_555
O60 W16 1_555 1_555
O61 P2 1_555 1_555
O62 W16 1_555 1_555
O63 W17 1_555 1_555
O66 W15 1_555 1_555
W24 O47 1_555 1_555
O75 W24 1_555 1_555
Ni7 O59 1_555 1_555
Ni8 O130 1_555 1_555
O130 H37 1_555 1_555
H38 O130 1_555 1_555
N37 N40 1_555 1_555
N38 Ni8 1_555 1_555
N39 Ni7 1_555 1_555
C19 N37 1_555 1_555
H39 C19 1_555 1_555
C20 N37 1_555 1_555
H40 C20 1_555 1_555
O131 Ni8 1_555 1_555
H41 O131 1_555 1_555
H42 O131 1_555 1_555
N41 N44 1_555 1_555
N42 Ni8 1_555 1_555
N43 Ni7 1_555 1_555
C21 N41 1_555 1_555
H43 C21 1_555 1_555
C22 N41 1_555 1_555
H44 C22 1_555 1_555
O132 Ni8 1_555 1_555
H45 O132 1_555 1_555
H46 O132 1_555 1_555
N45 N48 1_555 1_555
N46 Ni8 1_555 1_555
N47 Ni7 1_555 1_555
C23 N45 1_555 1_555
H47 C23 1_555 1_555
C24 N45 1_555 1_555
H48 C24 1_555 1_555
Ni9 O27 1_555 1_555
Ni14 O37 1_555 1_555
O133 Ni7 1_555 1_555
O136 Ni7 1_555 1_555
W7 O25 1_555 1_555
W7 O29 1_555 1_555
W8 O29 1_555 1_555
W8 O30 1_555 1_555
W9 O28 1_555 1_555
W9 O29 1_555 1_555
W9 O31 1_555 1_555
W10 O35 1_555 1_555
W10 O39 1_555 1_555
W11 O39 1_555 1_555
W11 O40 1_555 1_555
N7 C3 1_555 1_555
W14 O51 1_555 1_555
W14 O52 1_555 1_555
W15 O50 1_555 1_555
W15 O51 1_555 1_555
W16 O57 1_555 1_555
W16 O61 1_555 1_555
W17 O61 1_555 1_555
W17 O62 1_555 1_555
N38 N39 1_555 1_555
N38 C20 1_555 1_555
N39 C19 1_555 1_555
N42 N43 1_555 1_555
N42 C22 1_555 1_555
N43 C21 1_555 1_555
N46 N47 1_555 1_555
N46 C24 1_555 1_555
N47 C23 1_555 1_555
N40 H51 1_555 1_555
N40 H52 1_555 1_555
N44 H53 1_555 1_555
N44 H54 1_555 1_555
N48 H55 1_555 1_555
N48 H56 1_555 1_555
N8 H71 1_555 1_555
N8 H72 1_555 1_555
Ni2 O11 1_555 1_555
O11 H1 1_555 1_555
H2 O11 1_555 1_555
N2 Ni2 1_555 1_555
O42 Ni2 1_555 1_555
H5 O42 1_555 1_555
H6 O42 1_555 1_555
N6 Ni2 1_555 1_555
O43 Ni2 1_555 1_555
H9 O43 1_555 1_555
H10 O43 1_555 1_555
N10 Ni2 1_555 1_555
H12 C6 1_555 1_555
O46 W21 1_555 1_555
W18 O55 1_555 1_555
W19 O64 1_555 1_555
O64 W23 1_555 1_555
O67 W18 1_555 1_555
O68 W19 1_555 1_555
O70 W19 1_555 1_555
O71 P2_2 1_555 1_555
O72 W19 1_555 1_555
W22 O74 1_555 1_555
W23 O76 1_555 1_555
O76 W18 1_555 1_555
O77 W21 1_555 1_555
O78 W22 1_555 1_555
O79 W23 1_555 1_555
O80 W22 1_555 1_555
O81 P2_2 1_555 1_555
O82 W22 1_555 1_555
O83 W23 1_555 1_555
Ni13 O79 1_555 1_555
N10 C6 1_555 1_555
W19 O67 1_555 1_555
W19 O71 1_555 1_555
W20 O71 1_555 1_555
W20 O72 1_555 1_555
W21 O70 1_555 1_555
W21 O71 1_555 1_555
W22 O77 1_555 1_555
W22 O81 1_555 1_555
W23 O81 1_555 1_555
W23 O82 1_555 1_555
P1_2 O8 1_555 1_555
W1 O1 1_555 1_555
W3 O2 1_555 1_555
Ni1 O6 1_555 1_555
O1 W5 1_555 1_555
O4 W1 1_555 1_555
O5 W1 1_555 1_555
O6 W2 1_555 1_555
O7 W1 1_555 1_555
O8 W1 1_555 1_555
O9 W1 1_555 1_555
O10 W2 1_555 1_555
N1 N4 1_555 1_555
N3 Ni1 1_555 1_555
C1 N1 1_555 1_555
H3 C1 1_555 1_555
W4 O12 1_555 1_555
W5 O14 1_555 1_555
O14 W12 1_555 1_555
O15 W3 1_555 1_555
O16 W4 1_555 1_555
O17 W5 1_555 1_555
O18 W4 1_555 1_555
O19 P1_2 1_555 1_555
O20 W4 1_555 1_555
O21 W5 1_555 1_555
O24 W3 1_555 1_555
W12 O4 1_555 1_555
O33 W12 1_555 1_555
O49 Ni1 1_555 1_555
O89 Ni1 1_555 1_555
Ni3 O17 1_555 1_555
Ni4 O124 1_555 1_555
O124 H13 1_555 1_555
H14 O124 1_555 1_555
N13 N16 1_555 1_555
N14 Ni4 1_555 1_555
N15 Ni3 1_555 1_555
C7 N13 1_555 1_555
H15 C7 1_555 1_555
C8 N13 1_555 1_555
H16 C8 1_555 1_555
O125 Ni4 1_555 1_555
H17 O125 1_555 1_555
H18 O125 1_555 1_555
N17 N20 1_555 1_555
N18 Ni4 1_555 1_555
N19 Ni3 1_555 1_555
C9 N17 1_555 1_555
H19 C9 1_555 1_555
C10 N17 1_555 1_555
H20 C10 1_555 1_555
O126 Ni4 1_555 1_555
H21 O126 1_555 1_555
H22 O126 1_555 1_555
N21 N24 1_555 1_555
N22 Ni4 1_555 1_555
N23 Ni3 1_555 1_555
C11 N21 1_555 1_555
H23 C11 1_555 1_555
C12 N21 1_555 1_555
H24 C12 1_555 1_555
Ni10 O109 1_555 1_555
O135 Ni3 1_555 1_555
O137 Ni3 1_555 1_555
W2 O8 1_555 1_555
W2 O9 1_555 1_555
W3 O7 1_555 1_555
W3 O8 1_555 1_555
W3 O10 1_555 1_555
N3 C1 1_555 1_555
W4 O15 1_555 1_555
W4 O19 1_555 1_555
W5 O19 1_555 1_555
W5 O20 1_555 1_555
N14 N15 1_555 1_555
N14 C8 1_555 1_555
N15 C7 1_555 1_555
N18 N19 1_555 1_555
N18 C10 1_555 1_555
N19 C9 1_555 1_555
N22 N23 1_555 1_555
N22 C12 1_555 1_555
N23 C11 1_555 1_555
N16 H57 1_555 1_555
N16 H58 1_555 1_555
N20 H59 1_555 1_555
N20 H60 1_555 1_555
N24 H61 1_555 1_555
N24 H62 1_555 1_555
N4 H67 1_555 1_555
N4 H68 1_555 1_555
H4 C2 1_555 1_555
N9 N12 1_555 1_555
C5 N9 1_555 1_555
H11 C5 1_555 1_555
P3 O91 1_555 1_555
W25 O84 1_555 1_555
W26 O86 1_555 1_555
O84 W29 1_555 1_555
O86 W33 1_555 1_555
O87 W25 1_555 1_555
O88 W25 1_555 1_555
O90 W25 1_555 1_555
O91 W25 1_555 1_555
O92 W25 1_555 1_555
W28 O94 1_555 1_555
W29 O96 1_555 1_555
W30 O95 1_555 1_555
O94 W32 1_555 1_555
O96 W36 1_555 1_555
O97 W27 1_555 1_555
O98 W28 1_555 1_555
O99 W29 1_555 1_555
O100 W28 1_555 1_555
O101 P3 1_555 1_555
O102 W28 1_555 1_555
O103 W29 1_555 1_555
W31 O104 1_555 1_555
W32 O106 1_555 1_555
O104 W35 1_555 1_555
O106 W27 1_555 1_555
O107 W30 1_555 1_555
O108 W31 1_555 1_555
O110 W31 1_555 1_555
O111 P3 1_555 1_555
O112 W31 1_555 1_555
W34 O114 1_555 1_555
W35 O116 1_555 1_555
W36 O87 1_555 1_555
O114 W26 1_555 1_555
O115 W36 1_555 1_555
O116 W30 1_555 1_555
O117 W33 1_555 1_555
O118 W34 1_555 1_555
O119 W35 1_555 1_555
O120 W34 1_555 1_555
O121 P3 1_555 1_555
O122 W34 1_555 1_555
O123 W35 1_555 1_555
Ni5 O99 1_555 1_555
Ni6 O127 1_555 1_555
O127 H25 1_555 1_555
H26 O127 1_555 1_555
N25 N28 1_555 1_555
N26 Ni6 1_555 1_555
N27 Ni5 1_555 1_555
C13 N25 1_555 1_555
H27 C13 1_555 1_555
C14 N25 1_555 1_555
H28 C14 1_555 1_555
O128 Ni6 1_555 1_555
H29 O128 1_555 1_555
H30 O128 1_555 1_555
N29 N32 1_555 1_555
N30 Ni6 1_555 1_555
N31 Ni5 1_555 1_555
C15 N29 1_555 1_555
H31 C15 1_555 1_555
C16 N29 1_555 1_555
H32 C16 1_555 1_555
O129 Ni6 1_555 1_555
H33 O129 1_555 1_555
H34 O129 1_555 1_555
N33 N36 1_555 1_555
N34 Ni6 1_555 1_555
N35 Ni5 1_555 1_555
C17 N33 1_555 1_555
H35 C17 1_555 1_555
C18 N33 1_555 1_555
H36 C18 1_555 1_555
Ni11 O69 1_555 1_555
Ni12 O119 1_555 1_555
O134 Ni5 1_555 1_555
O138 Ni5 1_555 1_555
N11 C5 1_555 1_555
W26 O91 1_555 1_555
W26 O92 1_555 1_555
W27 O90 1_555 1_555
W27 O91 1_555 1_555
W28 O97 1_555 1_555
W28 O101 1_555 1_555
W29 O101 1_555 1_555
W29 O102 1_555 1_555
W30 O100 1_555 1_555
W30 O101 1_555 1_555
W30 O103 1_555 1_555
W31 O107 1_555 1_555
W31 O111 1_555 1_555
W32 O111 1_555 1_555
W32 O112 1_555 1_555
W33 O110 1_555 1_555
W33 O111 1_555 1_555
W34 O117 1_555 1_555
W34 O121 1_555 1_555
W35 O121 1_555 1_555
W35 O122 1_555 1_555
W36 O120 1_555 1_555
W36 O121 1_555 1_555
W36 O123 1_555 1_555
N26 N27 1_555 1_555
N26 C14 1_555 1_555
N27 C13 1_555 1_555
N30 N31 1_555 1_555
N30 C16 1_555 1_555
N31 C15 1_555 1_555
N34 N35 1_555 1_555
N34 C18 1_555 1_555
N35 C17 1_555 1_555
N36 H49 1_555 1_555
N36 H50 1_555 1_555
N28 H63 1_555 1_555
N28 H64 1_555 1_555
N32 H65 1_555 1_555
N32 H66 1_555 1_555
N12 H69 1_555 1_555
N12 H70 1_555 1_555
N9_2 N12_2 1_555 1_555
C5_2 N9_2 1_555 1_555
H11_2 C5_2 1_555 1_555
C6_2 N9_2 1_555 1_555
H12_2 C6_2 1_555 1_555
O46_2 W21_2 1_555 1_555
W18_2 O55_2 1_555 1_555
W19_2 O64_2 1_555 1_555
W21_2 O65_2 1_555 1_555
O64_2 W23_2 1_555 1_555
O67_2 W18_2 1_555 1_555
O68_2 W19_2 1_555 1_555
O69_2 W20_2 1_555 1_555
O70_2 W19_2 1_555 1_555
O71_2 P2_3 1_555 1_555
O72_2 W19_2 1_555 1_555
O73_2 W20_2 1_555 1_555
W22_2 O74_2 1_555 1_555
W23_2 O76_2 1_555 1_555
O76_2 W18_2 1_555 1_555
O77_2 W21_2 1_555 1_555
O78_2 W22_2 1_555 1_555
O79_2 W23_2 1_555 1_555
O80_2 W22_2 1_555 1_555
O81_2 P2_3 1_555 1_555
O82_2 W22_2 1_555 1_555
O83_2 W23_2 1_555 1_555
P3_2 O91_2 1_555 1_555
W25_2 O84_2 1_555 1_555
O84_2 W29_2 1_555 1_555
O87_2 W25_2 1_555 1_555
O88_2 W25_2 1_555 1_555
O90_2 W25_2 1_555 1_555
O91_2 W25_2 1_555 1_555
O92_2 W25_2 1_555 1_555
W28_2 O94_2 1_555 1_555
W29_2 O96_2 1_555 1_555
O96_2 W36_2 1_555 1_555
O97_2 W27_2 1_555 1_555
O98_2 W28_2 1_555 1_555
O135 W29_2 1_555 1_555
O100_2 W28_2 1_555 1_555
O101_2 P3_2 1_555 1_555
O102_2 W28_2 1_555 1_555
O103_2 W29_2 1_555 1_555
O106_2 W27_2 1_555 1_555
W36_2 O87_2 1_555 1_555
O115_2 W36_2 1_555 1_555
Ni10 O69_2 1_555 1_555
Ni14 O79_2 1_555 1_555
N11_2 C5_2 1_555 1_555
W19_2 O67_2 1_555 1_555
W19_2 O71_2 1_555 1_555
W20_2 O71_2 1_555 1_555
W20_2 O72_2 1_555 1_555
W21_2 O70_2 1_555 1_555
W21_2 O71_2 1_555 1_555
W21_2 O73_2 1_555 1_555
W22_2 O77_2 1_555 1_555
W22_2 O81_2 1_555 1_555
W23_2 O81_2 1_555 1_555
W23_2 O82_2 1_555 1_555
W26_2 O91_2 1_555 1_555
W26_2 O92_2 1_555 1_555
W27_2 O90_2 1_555 1_555
W27_2 O91_2 1_555 1_555
W28_2 O97_2 1_555 1_555
W28_2 O101_2 1_555 1_555
W29_2 O101_2 1_555 1_555
W29_2 O102_2 1_555 1_555
N12_2 H69_2 1_555 1_555
N12_2 H70_2 1_555 1_555
Ni2_2 O11_2 1_555 1_555
O11_2 H1_2 1_555 1_555
H2_2 O11_2 1_555 1_555
N2_2 Ni2_2 1_555 1_555
H4_2 C2_2 1_555 1_555
O42_2 Ni2_2 1_555 1_555
H5_2 O42_2 1_555 1_555
H6_2 O42_2 1_555 1_555
N6_2 Ni2_2 1_555 1_555
O43_2 Ni2_2 1_555 1_555
H9_2 O43_2 1_555 1_555
H10_2 O43_2 1_555 1_555
N10_2 Ni2_2 1_555 1_555
O86_2 W33_2 1_555 1_555
W30_2 O95_2 1_555 1_555
W31_2 O104_2 1_555 1_555
O104_2 W35_2 1_555 1_555
O107_2 W30_2 1_555 1_555
O108_2 W31_2 1_555 1_555
O110_2 W31_2 1_555 1_555
O111_2 P3_3 1_555 1_555
O112_2 W31_2 1_555 1_555
W34_2 O114_2 1_555 1_555
W35_2 O116_2 1_555 1_555
O116_2 W30_2 1_555 1_555
O117_2 W33_2 1_555 1_555
O118_2 W34_2 1_555 1_555
O119_2 W35_2 1_555 1_555
O120_2 W34_2 1_555 1_555
O121_2 P3_3 1_555 1_555
O122_2 W34_2 1_555 1_555
O123_2 W35_2 1_555 1_555
Ni12_2 O119_2 1_555 1_555
N2_2 C2_2 1_555 1_555
W31_2 O107_2 1_555 1_555
W31_2 O111_2 1_555 1_555
W32_2 O111_2 1_555 1_555
W32_2 O112_2 1_555 1_555
W33_2 O110_2 1_555 1_555
W33_2 O111_2 1_555 1_555
W34_2 O117_2 1_555 1_555
W34_2 O121_2 1_555 1_555
W35_2 O121_2 1_555 1_555
W35_2 O122_2 1_555 1_555
Ni1_2 O6_2 1_555 1_555
N5_2 N8_2 1_555 1_555
N7_2 Ni1_2 1_555 1_555
C3_2 N5_2 1_555 1_555
H7_2 C3_2 1_555 1_555
P2_4 O51_2 1_555 1_555
W13_2 O44_2 1_555 1_555
W15_2 O45_2 1_555 1_555
O44_2 W17_2 1_555 1_555
O47_2 W13_2 1_555 1_555
O48_2 W13_2 1_555 1_555
O49_2 Ni1_2 1_555 1_555
O50_2 W13_2 1_555 1_555
O51_2 W13_2 1_555 1_555
O52_2 W13_2 1_555 1_555
O53_2 W14_2 1_555 1_555
W16_2 O54_2 1_555 1_555
W17_2 O56_2 1_555 1_555
O56_2 W24_2 1_555 1_555
O57_2 W15_2 1_555 1_555
O58_2 W16_2 1_555 1_555
O59_2 W17_2 1_555 1_555
O60_2 W16_2 1_555 1_555
O61_2 P2_4 1_555 1_555
O62_2 W16_2 1_555 1_555
O63_2 W17_2 1_555 1_555
O66_2 W15_2 1_555 1_555
W24_2 O47_2 1_555 1_555
O75_2 W24_2 1_555 1_555
O89_2 Ni1_2 1_555 1_555
Ni7_2 O59_2 1_555 1_555
Ni8_2 O130_2 1_555 1_555
O130_2 H37_2 1_555 1_555
H38_2 O130_2 1_555 1_555
N37_2 N40_2 1_555 1_555
N38_2 Ni8_2 1_555 1_555
N39_2 Ni7_2 1_555 1_555
C19_2 N37_2 1_555 1_555
H39_2 C19_2 1_555 1_555
C20_2 N37_2 1_555 1_555
H40_2 C20_2 1_555 1_555
O131_2 Ni8_2 1_555 1_555
H41_2 O131_2 1_555 1_555
H42_2 O131_2 1_555 1_555
N41_2 N44_2 1_555 1_555
N42_2 Ni8_2 1_555 1_555
N43_2 Ni7_2 1_555 1_555
C21_2 N41_2 1_555 1_555
H43_2 C21_2 1_555 1_555
C22_2 N41_2 1_555 1_555
H44_2 C22_2 1_555 1_555
O132_2 Ni8_2 1_555 1_555
H45_2 O132_2 1_555 1_555
H46_2 O132_2 1_555 1_555
N45_2 N48_2 1_555 1_555
N46_2 Ni8_2 1_555 1_555
N47_2 Ni7_2 1_555 1_555
C23_2 N45_2 1_555 1_555
H47_2 C23_2 1_555 1_555
C24_2 N45_2 1_555 1_555
H48_2 C24_2 1_555 1_555
Ni9_2 O27_2 1_555 1_555
O133_2 Ni7_2 1_555 1_555
O136_2 Ni7_2 1_555 1_555
N7_2 C3_2 1_555 1_555
W14_2 O49_2 1_555 1_555
W14_2 O51_2 1_555 1_555
W14_2 O52_2 1_555 1_555
W15_2 O50_2 1_555 1_555
W15_2 O51_2 1_555 1_555
W15_2 O53_2 1_555 1_555
W16_2 O57_2 1_555 1_555
W16_2 O61_2 1_555 1_555
W17_2 O61_2 1_555 1_555
W17_2 O62_2 1_555 1_555
N38_2 N39_2 1_555 1_555
N38_2 C20_2 1_555 1_555
N39_2 C19_2 1_555 1_555
N42_2 N43_2 1_555 1_555
N42_2 C22_2 1_555 1_555
N43_2 C21_2 1_555 1_555
N46_2 N47_2 1_555 1_555
N46_2 C24_2 1_555 1_555
N47_2 C23_2 1_555 1_555
N40_2 H51_2 1_555 1_555
N40_2 H52_2 1_555 1_555
N44_2 H53_2 1_555 1_555
N44_2 H54_2 1_555 1_555
N48_2 H55_2 1_555 1_555
N48_2 H56_2 1_555 1_555
N8_2 H71_2 1_555 1_555
N8_2 H72_2 1_555 1_555
P1_3 O8_2 1_555 1_555
W1_2 O1_2 1_555 1_555
W2_2 O3_2 1_555 1_555
O1_2 W5_2 1_555 1_555
O3_2 W9_2 1_555 1_555
O4_2 W1_2 1_555 1_555
O5_2 W1_2 1_555 1_555
O7_2 W1_2 1_555 1_555
O8_2 W1_2 1_555 1_555
O9_2 W1_2 1_555 1_555
N1_2 N4_2 1_555 1_555
C1_2 N1_2 1_555 1_555
H3_2 C1_2 1_555 1_555
W4_2 O12_2 1_555 1_555
W5_2 O14_2 1_555 1_555
W6_2 O13_2 1_555 1_555
O12_2 W8_2 1_555 1_555
O14_2 W12_2 1_555 1_555
O15_2 W3_2 1_555 1_555
O16_2 W4_2 1_555 1_555
O134 W5_2 1_555 1_555
O18_2 W4_2 1_555 1_555
O19_2 P1_3 1_555 1_555
O20_2 W4_2 1_555 1_555
O21_2 W5_2 1_555 1_555
W7_2 O22_2 1_555 1_555
W8_2 O24_2 1_555 1_555
O22_2 W11_2 1_555 1_555
O24_2 W3_2 1_555 1_555
O25_2 W6_2 1_555 1_555
O26_2 W7_2 1_555 1_555
O28_2 W7_2 1_555 1_555
O29_2 P1_3 1_555 1_555
O30_2 W7_2 1_555 1_555
W10_2 O32_2 1_555 1_555
W11_2 O34_2 1_555 1_555
W12_2 O4_2 1_555 1_555
O32_2 W2_2 1_555 1_555
O33_2 W12_2 1_555 1_555
O34_2 W6_2 1_555 1_555
O35_2 W9_2 1_555 1_555
O36_2 W10_2 1_555 1_555
O37_2 W11_2 1_555 1_555
O38_2 W10_2 1_555 1_555
O39_2 P1_3 1_555 1_555
O40_2 W10_2 1_555 1_555
O41_2 W11_2 1_555 1_555
H8_2 C4_2 1_555 1_555
Ni11 O109_2 1_555 1_555
Ni13 O37_2 1_555 1_555
W2_2 O8_2 1_555 1_555
W2_2 O9_2 1_555 1_555
W3_2 O7_2 1_555 1_555
W3_2 O8_2 1_555 1_555
N3_2 C1_2 1_555 1_555
W4_2 O15_2 1_555 1_555
W4_2 O19_2 1_555 1_555
W5_2 O19_2 1_555 1_555
W5_2 O20_2 1_555 1_555
W6_2 O18_2 1_555 1_555
W6_2 O19_2 1_555 1_555
W6_2 O21_2 1_555 1_555
W7_2 O25_2 1_555 1_555
W7_2 O29_2 1_555 1_555
W8_2 O29_2 1_555 1_555
W8_2 O30_2 1_555 1_555
W9_2 O28_2 1_555 1_555
W9_2 O29_2 1_555 1_555
W10_2 O35_2 1_555 1_555
W10_2 O39_2 1_555 1_555
W11_2 O39_2 1_555 1_555
W11_2 O40_2 1_555 1_555
W12_2 O38_2 1_555 1_555
W12_2 O39_2 1_555 1_555
W12_2 O41_2 1_555 1_555
N4_2 H67_2 1_555 1_555
N4_2 H68_2 1_555 1_555
P1_4 O8_3 1_555 1_555
W1_3 O1_3 1_555 1_555
O1_3 W5_3 1_555 1_555
O4_3 W1_3 1_555 1_555
O5_3 W1_3 1_555 1_555
O7_3 W1_3 1_555 1_555
O8_3 W1_3 1_555 1_555
O9_3 W1_3 1_555 1_555
N1_3 N4_3 1_555 1_555
C1_3 N1_3 1_555 1_555
H3_3 C1_3 1_555 1_555
C2_3 N1_3 1_555 1_555
H4_3 C2_3 1_555 1_555
W4_3 O12_3 1_555 1_555
W5_3 O14_3 1_555 1_555
O14_3 W12_3 1_555 1_555
O15_3 W3_3 1_555 1_555
O16_3 W4_3 1_555 1_555
O133_2 W5_3 1_555 1_555
O18_3 W4_3 1_555 1_555
O19_3 P1_4 1_555 1_555
O20_3 W4_3 1_555 1_555
O21_3 W5_3 1_555 1_555
O24_3 W3_3 1_555 1_555
W12_3 O4_3 1_555 1_555
O33_3 W12_3 1_555 1_555
O86_3 W33_3 1_555 1_555
W30_3 O95_3 1_555 1_555
W31_3 O104_3 1_555 1_555
W33_3 O105_3 1_555 1_555
O104_3 W35_3 1_555 1_555
O107_3 W30_3 1_555 1_555
O108_3 W31_3 1_555 1_555
O109_3 W32_3 1_555 1_555
O110_3 W31_3 1_555 1_555
O111_3 P3_4 1_555 1_555
O112_3 W31_3 1_555 1_555
O113_3 W32_3 1_555 1_555
W34_3 O114_3 1_555 1_555
W35_3 O116_3 1_555 1_555
O116_3 W30_3 1_555 1_555
O117_3 W33_3 1_555 1_555
O118_3 W34_3 1_555 1_555
O119_3 W35_3 1_555 1_555
O120_3 W34_3 1_555 1_555
O121_3 P3_4 1_555 1_555
O122_3 W34_3 1_555 1_555
O123_3 W35_3 1_555 1_555
Ni9_2 O109_3 1_555 1_555
Ni14 O119_3 1_555 1_555
W2_3 O8_3 1_555 1_555
W2_3 O9_3 1_555 1_555
W3_3 O7_3 1_555 1_555
W3_3 O8_3 1_555 1_555
N3_3 C1_3 1_555 1_555
W4_3 O15_3 1_555 1_555
W4_3 O19_3 1_555 1_555
W5_3 O19_3 1_555 1_555
W5_3 O20_3 1_555 1_555
W31_3 O107_3 1_555 1_555
W31_3 O111_3 1_555 1_555
W32_3 O111_3 1_555 1_555
W32_3 O112_3 1_555 1_555
W33_3 O110_3 1_555 1_555
W33_3 O111_3 1_555 1_555
W33_3 O113_3 1_555 1_555
W34_3 O117_3 1_555 1_555
W34_3 O121_3 1_555 1_555
W35_3 O121_3 1_555 1_555
W35_3 O122_3 1_555 1_555
N4_3 H67_3 1_555 1_555
N4_3 H68_3 1_555 1_555
Ni1_3 O6_3 1_555 1_555
N9_3 N12_3 1_555 1_555
N11_3 Ni1_3 1_555 1_555
C5_3 N9_3 1_555 1_555
H11_3 C5_3 1_555 1_555
O49_3 Ni1_3 1_555 1_555
P3_5 O91_3 1_555 1_555
W25_3 O84_3 1_555 1_555
W27_3 O85_3 1_555 1_555
O84_3 W29_3 1_555 1_555
O87_3 W25_3 1_555 1_555
O88_3 W25_3 1_555 1_555
O89_3 Ni1_3 1_555 1_555
O90_3 W25_3 1_555 1_555
O91_3 W25_3 1_555 1_555
O92_3 W25_3 1_555 1_555
O93_3 W26_3 1_555 1_555
W28_3 O94_3 1_555 1_555
W29_3 O96_3 1_555 1_555
O96_3 W36_3 1_555 1_555
O97_3 W27_3 1_555 1_555
O98_3 W28_3 1_555 1_555
O136 W29_3 1_555 1_555
O100_3 W28_3 1_555 1_555
O101_3 P3_5 1_555 1_555
O102_3 W28_3 1_555 1_555
O103_3 W29_3 1_555 1_555
O106_3 W27_3 1_555 1_555
W36_3 O87_3 1_555 1_555
O115_3 W36_3 1_555 1_555
Ni9 O69_3 1_555 1_555
N11_3 C5_3 1_555 1_555
W26_3 O89_3 1_555 1_555
W26_3 O91_3 1_555 1_555
W26_3 O92_3 1_555 1_555
W27_3 O90_3 1_555 1_555
W27_3 O91_3 1_555 1_555
W27_3 O93_3 1_555 1_555
W28_3 O97_3 1_555 1_555
W28_3 O101_3 1_555 1_555
W29_3 O101_3 1_555 1_555
W29_3 O102_3 1_555 1_555
N12_3 H69_3 1_555 1_555
N12_3 H70_3 1_555 1_555
Ni2_3 O11_3 1_555 1_555
O3_3 W9_3 1_555 1_555
O11_3 H1_3 1_555 1_555
H2_3 O11_3 1_555 1_555
N2_3 Ni2_3 1_555 1_555
W6_3 O13_3 1_555 1_555
W7_3 O22_3 1_555 1_555
O22_3 W11_3 1_555 1_555
O25_3 W6_3 1_555 1_555
O26_3 W7_3 1_555 1_555
O28_3 W7_3 1_555 1_555
O29_3 P1_5 1_555 1_555
O30_3 W7_3 1_555 1_555
W10_3 O32_3 1_555 1_555
W11_3 O34_3 1_555 1_555
O34_3 W6_3 1_555 1_555
O35_3 W9_3 1_555 1_555
O36_3 W10_3 1_555 1_555
O37_3 W11_3 1_555 1_555
O38_3 W10_3 1_555 1_555
O39_3 P1_5 1_555 1_555
O40_3 W10_3 1_555 1_555
O41_3 W11_3 1_555 1_555
O42_3 Ni2_3 1_555 1_555
H5_3 O42_3 1_555 1_555
H6_3 O42_3 1_555 1_555
N6_3 Ni2_3 1_555 1_555
H8_3 C4_3 1_555 1_555
O43_3 Ni2_3 1_555 1_555
H9_3 O43_3 1_555 1_555
H10_3 O43_3 1_555 1_555
N10_3 Ni2_3 1_555 1_555
Ni12 O37_3 1_555 1_555
W7_3 O25_3 1_555 1_555
W7_3 O29_3 1_555 1_555
W8_3 O29_3 1_555 1_555
W8_3 O30_3 1_555 1_555
W9_3 O28_3 1_555 1_555
W9_3 O29_3 1_555 1_555
W10_3 O35_3 1_555 1_555
W10_3 O39_3 1_555 1_555
W11_3 O39_3 1_555 1_555
W11_3 O40_3 1_555 1_555
N6_3 C4_3 1_555 1_555
N5_3 N8_3 1_555 1_555
C3_3 N5_3 1_555 1_555
H7_3 C3_3 1_555 1_555
H12_3 C6_3 1_555 1_555
P2_5 O51_3 1_555 1_555
W13_3 O44_3 1_555 1_555
W14_3 O46_3 1_555 1_555
O44_3 W17_3 1_555 1_555
O46_3 W21_3 1_555 1_555
O47_3 W13_3 1_555 1_555
O48_3 W13_3 1_555 1_555
O50_3 W13_3 1_555 1_555
O51_3 W13_3 1_555 1_555
O52_3 W13_3 1_555 1_555
W16_3 O54_3 1_555 1_555
W17_3 O56_3 1_555 1_555
W18_3 O55_3 1_555 1_555
O54_3 W20_3 1_555 1_555
O56_3 W24_3 1_555 1_555
O57_3 W15_3 1_555 1_555
O58_3 W16_3 1_555 1_555
O138 W17_3 1_555 1_555
O60_3 W16_3 1_555 1_555
O61_3 P2_5 1_555 1_555
O62_3 W16_3 1_555 1_555
O63_3 W17_3 1_555 1_555
W19_3 O64_3 1_555 1_555
W20_3 O66_3 1_555 1_555
O64_3 W23_3 1_555 1_555
O66_3 W15_3 1_555 1_555
O67_3 W18_3 1_555 1_555
O68_3 W19_3 1_555 1_555
O70_3 W19_3 1_555 1_555
O71_3 P2_5 1_555 1_555
O72_3 W19_3 1_555 1_555
W22_3 O74_3 1_555 1_555
W23_3 O76_3 1_555 1_555
W24_3 O47_3 1_555 1_555
O74_3 W14_3 1_555 1_555
O75_3 W24_3 1_555 1_555
O76_3 W18_3 1_555 1_555
O77_3 W21_3 1_555 1_555
O78_3 W22_3 1_555 1_555
O79_3 W23_3 1_555 1_555
O80_3 W22_3 1_555 1_555
O81_3 P2_5 1_555 1_555
O82_3 W22_3 1_555 1_555
O83_3 W23_3 1_555 1_555
Ni11 O27_3 1_555 1_555
Ni12_2 O79_3 1_555 1_555
N7_3 C3_3 1_555 1_555
W14_3 O51_3 1_555 1_555
W14_3 O52_3 1_555 1_555
W15_3 O50_3 1_555 1_555
W15_3 O51_3 1_555 1_555
W16_3 O57_3 1_555 1_555
W16_3 O61_3 1_555 1_555
W17_3 O61_3 1_555 1_555
W17_3 O62_3 1_555 1_555
W18_3 O60_3 1_555 1_555
W18_3 O61_3 1_555 1_555
W18_3 O63_3 1_555 1_555
W19_3 O67_3 1_555 1_555
W19_3 O71_3 1_555 1_555
W20_3 O71_3 1_555 1_555
W20_3 O72_3 1_555 1_555
W21_3 O70_3 1_555 1_555
W21_3 O71_3 1_555 1_555
W22_3 O77_3 1_555 1_555
W22_3 O81_3 1_555 1_555
W23_3 O81_3 1_555 1_555
W23_3 O82_3 1_555 1_555
W24_3 O80_3 1_555 1_555
W24_3 O81_3 1_555 1_555
W24_3 O83_3 1_555 1_555
N8_3 H71_3 1_555 1_555
N8_3 H72_3 1_555 1_555
P1_6 O8_4 1_555 1_555
W1_4 O1_4 1_555 1_555
W2_4 O3_4 1_555 1_555
W3_4 O2_4 1_555 1_555
Ni1_4 O6_4 1_555 1_555
Ni2_4 O11_4 1_555 1_555
O1_4 W5_4 1_555 1_555
O3_4 W9_4 1_555 1_555
O4_4 W1_4 1_555 1_555
O5_4 W1_4 1_555 1_555
O6_4 W2_4 1_555 1_555
O7_4 W1_4 1_555 1_555
O8_4 W1_4 1_555 1_555
O9_4 W1_4 1_555 1_555
O10_4 W2_4 1_555 1_555
O11_4 H1_4 1_555 1_555
H2_4 O11_4 1_555 1_555
N1_4 N4_4 1_555 1_555
N2_4 Ni2_4 1_555 1_555
N3_4 Ni1_4 1_555 1_555
C1_4 N1_4 1_555 1_555
H3_4 C1_4 1_555 1_555
C2_4 N1_4 1_555 1_555
H4_4 C2_4 1_555 1_555
W4_4 O12_4 1_555 1_555
W5_4 O14_4 1_555 1_555
W6_4 O13_4 1_555 1_555
O12_4 W8_4 1_555 1_555
O14_4 W12_4 1_555 1_555
O15_4 W3_4 1_555 1_555
O16_4 W4_4 1_555 1_555
O133 W5_4 1_555 1_555
O18_4 W4_4 1_555 1_555
O19_4 P1_6 1_555 1_555
O20_4 W4_4 1_555 1_555
O21_4 W5_4 1_555 1_555
W7_4 O22_4 1_555 1_555
W8_4 O24_4 1_555 1_555
W9_4 O23_4 1_555 1_555
O22_4 W11_4 1_555 1_555
O24_4 W3_4 1_555 1_555
O25_4 W6_4 1_555 1_555
O26_4 W7_4 1_555 1_555
O27_4 W8_4 1_555 1_555
O28_4 W7_4 1_555 1_555
O29_4 P1_6 1_555 1_555
O30_4 W7_4 1_555 1_555
O31_4 W8_4 1_555 1_555
W10_4 O32_4 1_555 1_555
W11_4 O34_4 1_555 1_555
W12_4 O4_4 1_555 1_555
O32_4 W2_4 1_555 1_555
O33_4 W12_4 1_555 1_555
O34_4 W6_4 1_555 1_555
O35_4 W9_4 1_555 1_555
O36_4 W10_4 1_555 1_555
O37_4 W11_4 1_555 1_555
O38_4 W10_4 1_555 1_555
O39_4 P1_6 1_555 1_555
O40_4 W10_4 1_555 1_555
O41_4 W11_4 1_555 1_555
O42_4 Ni2_4 1_555 1_555
H5_4 O42_4 1_555 1_555
H6_4 O42_4 1_555 1_555
N5_4 N8_4 1_555 1_555
N6_4 Ni2_4 1_555 1_555
N7_4 Ni1_4 1_555 1_555
C3_4 N5_4 1_555 1_555
H7_4 C3_4 1_555 1_555
C4_4 N5_4 1_555 1_555
H8_4 C4_4 1_555 1_555
O43_4 Ni2_4 1_555 1_555
H9_4 O43_4 1_555 1_555
H10_4 O43_4 1_555 1_555
N9_4 N12_4 1_555 1_555
N10_4 Ni2_4 1_555 1_555
N11_4 Ni1_4 1_555 1_555
C5_4 N9_4 1_555 1_555
H11_4 C5_4 1_555 1_555
C6_4 N9_4 1_555 1_555
H12_4 C6_4 1_555 1_555
P2_6 O51_4 1_555 1_555
W13_4 O44_4 1_555 1_555
W14_4 O46_4 1_555 1_555
W15_4 O45_4 1_555 1_555
O44_4 W17_4 1_555 1_555
O46_4 W21_4 1_555 1_555
O47_4 W13_4 1_555 1_555
O48_4 W13_4 1_555 1_555
O49_4 Ni1_4 1_555 1_555
O50_4 W13_4 1_555 1_555
O51_4 W13_4 1_555 1_555
O52_4 W13_4 1_555 1_555
O53_4 W14_4 1_555 1_555
W16_4 O54_4 1_555 1_555
W17_4 O56_4 1_555 1_555
W18_4 O55_4 1_555 1_555
O54_4 W20_4 1_555 1_555
O56_4 W24_4 1_555 1_555
O57_4 W15_4 1_555 1_555
O58_4 W16_4 1_555 1_555
O137 W17_4 1_555 1_555
O60_4 W16_4 1_555 1_555
O61_4 P2_6 1_555 1_555
O62_4 W16_4 1_555 1_555
O63_4 W17_4 1_555 1_555
W19_4 O64_4 1_555 1_555
W20_4 O66_4 1_555 1_555
W21_4 O65_4 1_555 1_555
O64_4 W23_4 1_555 1_555
O66_4 W15_4 1_555 1_555
O67_4 W18_4 1_555 1_555
O68_4 W19_4 1_555 1_555
O69_4 W20_4 1_555 1_555
O70_4 W19_4 1_555 1_555
O71_4 P2_6 1_555 1_555
O72_4 W19_4 1_555 1_555
O73_4 W20_4 1_555 1_555
W22_4 O74_4 1_555 1_555
W23_4 O76_4 1_555 1_555
W24_4 O47_4 1_555 1_555
O74_4 W14_4 1_555 1_555
O75_4 W24_4 1_555 1_555
O76_4 W18_4 1_555 1_555
O77_4 W21_4 1_555 1_555
O78_4 W22_4 1_555 1_555
O79_4 W23_4 1_555 1_555
O80_4 W22_4 1_555 1_555
O81_4 P2_6 1_555 1_555
O82_4 W22_4 1_555 1_555
O83_4 W23_4 1_555 1_555
P3_6 O91_4 1_555 1_555
W25_4 O84_4 1_555 1_555
W26_4 O86_4 1_555 1_555
W27_4 O85_4 1_555 1_555
O84_4 W29_4 1_555 1_555
O86_4 W33_4 1_555 1_555
O87_4 W25_4 1_555 1_555
O88_4 W25_4 1_555 1_555
O89_4 Ni1_4 1_555 1_555
O90_4 W25_4 1_555 1_555
O91_4 W25_4 1_555 1_555
O92_4 W25_4 1_555 1_555
O93_4 W26_4 1_555 1_555
W28_4 O94_4 1_555 1_555
W29_4 O96_4 1_555 1_555
W30_4 O95_4 1_555 1_555
O94_4 W32_4 1_555 1_555
O96_4 W36_4 1_555 1_555
O97_4 W27_4 1_555 1_555
O98_4 W28_4 1_555 1_555
O136_2 W29_4 1_555 1_555
O100_4 W28_4 1_555 1_555
O101_4 P3_6 1_555 1_555
O102_4 W28_4 1_555 1_555
O103_4 W29_4 1_555 1_555
W31_4 O104_4 1_555 1_555
W32_4 O106_4 1_555 1_555
W33_4 O105_4 1_555 1_555
O104_4 W35_4 1_555 1_555
O106_4 W27_4 1_555 1_555
O107_4 W30_4 1_555 1_555
O108_4 W31_4 1_555 1_555
O109_4 W32_4 1_555 1_555
O110_4 W31_4 1_555 1_555
O111_4 P3_6 1_555 1_555
O112_4 W31_4 1_555 1_555
O113_4 W32_4 1_555 1_555
W34_4 O114_4 1_555 1_555
W35_4 O116_4 1_555 1_555
W36_4 O87_4 1_555 1_555
O114_4 W26_4 1_555 1_555
O115_4 W36_4 1_555 1_555
O116_4 W30_4 1_555 1_555
O117_4 W33_4 1_555 1_555
O118_4 W34_4 1_555 1_555
O119_4 W35_4 1_555 1_555
O120_4 W34_4 1_555 1_555
O121_4 P3_6 1_555 1_555
O122_4 W34_4 1_555 1_555
O123_4 W35_4 1_555 1_555
Ni10 O27_4 1_555 1_555
Ni9 O109_4 1_555 1_555
Ni9_2 O69_4 1_555 1_555
Ni13 O119_4 1_555 1_555
Ni12 O79_4 1_555 1_555
Ni12_2 O37_4 1_555 1_555
W2_4 O8_4 1_555 1_555
W2_4 O9_4 1_555 1_555
W3_4 O7_4 1_555 1_555
W3_4 O8_4 1_555 1_555
W3_4 O10_4 1_555 1_555
N2_4 N3_4 1_555 1_555
N2_4 C2_4 1_555 1_555
N3_4 C1_4 1_555 1_555
W4_4 O15_4 1_555 1_555
W4_4 O19_4 1_555 1_555
W5_4 O19_4 1_555 1_555
W5_4 O20_4 1_555 1_555
W6_4 O18_4 1_555 1_555
W6_4 O19_4 1_555 1_555
W6_4 O21_4 1_555 1_555
W7_4 O25_4 1_555 1_555
W7_4 O29_4 1_555 1_555
W8_4 O29_4 1_555 1_555
W8_4 O30_4 1_555 1_555
W9_4 O28_4 1_555 1_555
W9_4 O29_4 1_555 1_555
W9_4 O31_4 1_555 1_555
W10_4 O35_4 1_555 1_555
W10_4 O39_4 1_555 1_555
W11_4 O39_4 1_555 1_555
W11_4 O40_4 1_555 1_555
W12_4 O38_4 1_555 1_555
W12_4 O39_4 1_555 1_555
W12_4 O41_4 1_555 1_555
N6_4 N7_4 1_555 1_555
N6_4 C4_4 1_555 1_555
N7_4 C3_4 1_555 1_555
N10_4 N11_4 1_555 1_555
N10_4 C6_4 1_555 1_555
N11_4 C5_4 1_555 1_555
W14_4 O49_4 1_555 1_555
W14_4 O51_4 1_555 1_555
W14_4 O52_4 1_555 1_555
W15_4 O50_4 1_555 1_555
W15_4 O51_4 1_555 1_555
W15_4 O53_4 1_555 1_555
W16_4 O57_4 1_555 1_555
W16_4 O61_4 1_555 1_555
W17_4 O61_4 1_555 1_555
W17_4 O62_4 1_555 1_555
W18_4 O60_4 1_555 1_555
W18_4 O61_4 1_555 1_555
W18_4 O63_4 1_555 1_555
W19_4 O67_4 1_555 1_555
W19_4 O71_4 1_555 1_555
W20_4 O71_4 1_555 1_555
W20_4 O72_4 1_555 1_555
W21_4 O70_4 1_555 1_555
W21_4 O71_4 1_555 1_555
W21_4 O73_4 1_555 1_555
W22_4 O77_4 1_555 1_555
W22_4 O81_4 1_555 1_555
W23_4 O81_4 1_555 1_555
W23_4 O82_4 1_555 1_555
W24_4 O80_4 1_555 1_555
W24_4 O81_4 1_555 1_555
W24_4 O83_4 1_555 1_555
W26_4 O89_4 1_555 1_555
W26_4 O91_4 1_555 1_555
W26_4 O92_4 1_555 1_555
W27_4 O90_4 1_555 1_555
W27_4 O91_4 1_555 1_555
W27_4 O93_4 1_555 1_555
W28_4 O97_4 1_555 1_555
W28_4 O101_4 1_555 1_555
W29_4 O101_4 1_555 1_555
W29_4 O102_4 1_555 1_555
W30_4 O100_4 1_555 1_555
W30_4 O101_4 1_555 1_555
W30_4 O103_4 1_555 1_555
W31_4 O107_4 1_555 1_555
W31_4 O111_4 1_555 1_555
W32_4 O111_4 1_555 1_555
W32_4 O112_4 1_555 1_555
W33_4 O110_4 1_555 1_555
W33_4 O111_4 1_555 1_555
W33_4 O113_4 1_555 1_555
W34_4 O117_4 1_555 1_555
W34_4 O121_4 1_555 1_555
W35_4 O121_4 1_555 1_555
W35_4 O122_4 1_555 1_555
W36_4 O120_4 1_555 1_555
W36_4 O121_4 1_555 1_555
W36_4 O123_4 1_555 1_555
N4_4 H67_4 1_555 1_555
N4_4 H68_4 1_555 1_555
N12_4 H69_4 1_555 1_555
N12_4 H70_4 1_555 1_555
N8_4 H71_4 1_555 1_555
N8_4 H72_4 1_555 1_555
Ni6_2 O127_2 1_555 1_555
O127_2 H25_2 1_555 1_555
H26_2 O127_2 1_555 1_555
N26_2 Ni6_2 1_555 1_555
O128_2 Ni6_2 1_555 1_555
H29_2 O128_2 1_555 1_555
H30_2 O128_2 1_555 1_555
N30_2 Ni6_2 1_555 1_555
O129_2 Ni6_2 1_555 1_555
H33_2 O129_2 1_555 1_555
H34_2 O129_2 1_555 1_555
N34_2 Ni6_2 1_555 1_555
N37_3 N40_3 1_555 1_555
N39_3 Ni9_2 1_555 1_555
C19_3 N37_3 1_555 1_555
H39_3 C19_3 1_555 1_555
N41_3 N44_3 1_555 1_555
N43_3 Ni9_2 1_555 1_555
C21_3 N41_3 1_555 1_555
H43_3 C21_3 1_555 1_555
C22_3 N41_3 1_555 1_555
H44_3 C22_3 1_555 1_555
N39_3 C19_3 1_555 1_555
N43_3 C21_3 1_555 1_555
N40_3 H51_3 1_555 1_555
N40_3 H52_3 1_555 1_555
N44_3 H53_3 1_555 1_555
N44_3 H54_3 1_555 1_555
N13_2 N16_2 1_555 1_555
N15_2 Ni10 1_555 1_555
C7_2 N13_2 1_555 1_555
H15_2 C7_2 1_555 1_555
N17_2 N20_2 1_555 1_555
N19_2 Ni10 1_555 1_555
C9_2 N17_2 1_555 1_555
H19_2 C9_2 1_555 1_555
C10_2 N17_2 1_555 1_555
H20_2 C10_2 1_555 1_555
H36_2 C18_2 1_555 1_555
Ni8_3 O130_3 1_555 1_555
O130_3 H37_3 1_555 1_555
H38_3 O130_3 1_555 1_555
N38_3 Ni8_3 1_555 1_555
H40_3 C20_3 1_555 1_555
O131_3 Ni8_3 1_555 1_555
H41_3 O131_3 1_555 1_555
H42_3 O131_3 1_555 1_555
N42_3 Ni8_3 1_555 1_555
O132_3 Ni8_3 1_555 1_555
H45_3 O132_3 1_555 1_555
H46_3 O132_3 1_555 1_555
N45_3 N48_3 1_555 1_555
N46_3 Ni8_3 1_555 1_555
C23_3 N45_3 1_555 1_555
H47_3 C23_3 1_555 1_555
C24_3 N45_3 1_555 1_555
H48_3 C24_3 1_555 1_555
N15_2 C7_2 1_555 1_555
N19_2 C9_2 1_555 1_555
N38_3 C20_3 1_555 1_555
N46_3 N47_3 1_555 1_555
N46_3 C24_3 1_555 1_555
N47_3 C23_3 1_555 1_555
N48_3 H55_3 1_555 1_555
N48_3 H56_3 1_555 1_555
N16_2 H57_2 1_555 1_555
N16_2 H58_2 1_555 1_555
N20_2 H59_2 1_555 1_555
N20_2 H60_2 1_555 1_555
N48 H67_5 1_555 1_555
N44 H69_5 1_555 1_555
N40 H71_5 1_555 1_555
H32_2 C16_2 1_555 1_555
Ni4_2 O124_2 1_555 1_555
O124_2 H13_2 1_555 1_555
H14_2 O124_2 1_555 1_555
N14_2 Ni4_2 1_555 1_555
H16_2 C8_2 1_555 1_555
O125_2 Ni4_2 1_555 1_555
H17_2 O125_2 1_555 1_555
H18_2 O125_2 1_555 1_555
N18_2 Ni4_2 1_555 1_555
O126_2 Ni4_2 1_555 1_555
H21_2 O126_2 1_555 1_555
H22_2 O126_2 1_555 1_555
N21_2 N24_2 1_555 1_555
N22_2 Ni4_2 1_555 1_555
C11_2 N21_2 1_555 1_555
H23_2 C11_2 1_555 1_555
C12_2 N21_2 1_555 1_555
H24_2 C12_2 1_555 1_555
N29_2 N32_2 1_555 1_555
C15_2 N29_2 1_555 1_555
H31_2 C15_2 1_555 1_555
N14_2 C8_2 1_555 1_555
N22_2 N23_2 1_555 1_555
N22_2 C12_2 1_555 1_555
N23_2 C11_2 1_555 1_555
N31_2 C15_2 1_555 1_555
N24_2 H61_2 1_555 1_555
N24_2 H62_2 1_555 1_555
N32_2 H65_2 1_555 1_555
N32_2 H66_2 1_555 1_555
H28_2 C14_2 1_555 1_555
N33_2 N36_2 1_555 1_555
C17_2 N33_2 1_555 1_555
H35_2 C17_2 1_555 1_555
N35_2 C17_2 1_555 1_555
N36_2 H49_2 1_555 1_555
N36_2 H50_2 1_555 1_555
N25_2 N28_2 1_555 1_555
C13_2 N25_2 1_555 1_555
H27_2 C13_2 1_555 1_555
N27_2 C13_2 1_555 1_555
N28_2 H63_2 1_555 1_555
N28_2 H64_2 1_555 1_555
N41_4 N44_4 1_555 1_555
N43_4 Ni9 1_555 1_555
C21_4 N41_4 1_555 1_555
H43_4 C21_4 1_555 1_555
N45_4 N48_4 1_555 1_555
N47_4 Ni9 1_555 1_555
C23_4 N45_4 1_555 1_555
H47_4 C23_4 1_555 1_555
C24_4 N45_4 1_555 1_555
H48_4 C24_4 1_555 1_555
N43_4 C21_4 1_555 1_555
N47_4 C23_4 1_555 1_555
N44_4 H53_4 1_555 1_555
N44_4 H54_4 1_555 1_555
N48_4 H55_4 1_555 1_555
N48_4 H56_4 1_555 1_555
N48_2 H67_6 1_555 1_555
N44_2 H69_6 1_555 1_555
N40_2 H71_6 1_555 1_555
Ni8_4 O130_4 1_555 1_555
O130_4 H37_4 1_555 1_555
H38_4 O130_4 1_555 1_555
N37_4 N40_4 1_555 1_555
N38_4 Ni8_4 1_555 1_555
C19_4 N37_4 1_555 1_555
H39_4 C19_4 1_555 1_555
C20_4 N37_4 1_555 1_555
H40_4 C20_4 1_555 1_555
O131_4 Ni8_4 1_555 1_555
H41_4 O131_4 1_555 1_555
H42_4 O131_4 1_555 1_555
N42_4 Ni8_4 1_555 1_555
H44_4 C22_4 1_555 1_555
O132_4 Ni8_4 1_555 1_555
H45_4 O132_4 1_555 1_555
H46_4 O132_4 1_555 1_555
N46_4 Ni8_4 1_555 1_555
N38_4 N39_4 1_555 1_555
N38_4 C20_4 1_555 1_555
N39_4 C19_4 1_555 1_555
N42_4 C22_4 1_555 1_555
N40_4 H51_4 1_555 1_555
N40_4 H52_4 1_555 1_555
N16 H67_7 1_555 1_555
N24 H69_7 1_555 1_555
N20 H71_7 1_555 1_555
N28 H67_8 1_555 1_555
N36 H69_8 1_555 1_555
N32 H71_8 1_555 1_555
Ni6_3 O127_3 1_555 1_555
O127_3 H25_3 1_555 1_555
H26_3 O127_3 1_555 1_555
N25_3 N28_3 1_555 1_555
N26_3 Ni6_3 1_555 1_555
N27_3 Ni14 1_555 1_555
C13_3 N25_3 1_555 1_555
H27_3 C13_3 1_555 1_555
C14_3 N25_3 1_555 1_555
H28_3 C14_3 1_555 1_555
O128_3 Ni6_3 1_555 1_555
H29_3 O128_3 1_555 1_555
H30_3 O128_3 1_555 1_555
N29_3 N32_3 1_555 1_555
N30_3 Ni6_3 1_555 1_555
N31_3 Ni14 1_555 1_555
C15_3 N29_3 1_555 1_555
H31_3 C15_3 1_555 1_555
C16_3 N29_3 1_555 1_555
H32_3 C16_3 1_555 1_555
O129_3 Ni6_3 1_555 1_555
H33_3 O129_3 1_555 1_555
H34_3 O129_3 1_555 1_555
N33_3 N36_3 1_555 1_555
N34_3 Ni6_3 1_555 1_555
N35_3 Ni14 1_555 1_555
C17_3 N33_3 1_555 1_555
H35_3 C17_3 1_555 1_555
C18_3 N33_3 1_555 1_555
H36_3 C18_3 1_555 1_555
Ni8_5 O130_5 1_555 1_555
O130_5 H37_5 1_555 1_555
H38_5 O130_5 1_555 1_555
N37_5 N40_5 1_555 1_555
N38_5 Ni8_5 1_555 1_555
N39_5 Ni12 1_555 1_555
C19_5 N37_5 1_555 1_555
H39_5 C19_5 1_555 1_555
C20_5 N37_5 1_555 1_555
H40_5 C20_5 1_555 1_555
O131_5 Ni8_5 1_555 1_555
H41_5 O131_5 1_555 1_555
H42_5 O131_5 1_555 1_555
N41_5 N44_5 1_555 1_555
N42_5 Ni8_5 1_555 1_555
N43_5 Ni12 1_555 1_555
C21_5 N41_5 1_555 1_555
H43_5 C21_5 1_555 1_555
C22_5 N41_5 1_555 1_555
H44_5 C22_5 1_555 1_555
O132_5 Ni8_5 1_555 1_555
H45_5 O132_5 1_555 1_555
H46_5 O132_5 1_555 1_555
N45_5 N48_5 1_555 1_555
N46_5 Ni8_5 1_555 1_555
N47_5 Ni12 1_555 1_555
C23_5 N45_5 1_555 1_555
H47_5 C23_5 1_555 1_555
C24_5 N45_5 1_555 1_555
H48_5 C24_5 1_555 1_555
N26_3 N27_3 1_555 1_555
N26_3 C14_3 1_555 1_555
N27_3 C13_3 1_555 1_555
N30_3 N31_3 1_555 1_555
N30_3 C16_3 1_555 1_555
N31_3 C15_3 1_555 1_555
N34_3 N35_3 1_555 1_555
N34_3 C18_3 1_555 1_555
N35_3 C17_3 1_555 1_555
N38_5 N39_5 1_555 1_555
N38_5 C20_5 1_555 1_555
N39_5 C19_5 1_555 1_555
N42_5 N43_5 1_555 1_555
N42_5 C22_5 1_555 1_555
N43_5 C21_5 1_555 1_555
N46_5 N47_5 1_555 1_555
N46_5 C24_5 1_555 1_555
N47_5 C23_5 1_555 1_555
N36_3 H49_3 1_555 1_555
N36_3 H50_3 1_555 1_555
N40_5 H51_5 1_555 1_555
N40_5 H52_5 1_555 1_555
N44_5 H53_5 1_555 1_555
N44_5 H54_5 1_555 1_555
N48_5 H55_5 1_555 1_555
N48_5 H56_5 1_555 1_555
N28_3 H63_3 1_555 1_555
N28_3 H64_3 1_555 1_555
N32_3 H65_3 1_555 1_555
N32_3 H66_3 1_555 1_555
N44_3 H69_9 1_555 1_555
N40_3 H71_9 1_555 1_555
Ni4_3 O124_3 1_555 1_555
O124_3 H13_3 1_555 1_555
H14_3 O124_3 1_555 1_555
N13_3 N16_3 1_555 1_555
N14_3 Ni4_3 1_555 1_555
N15_3 Ni13 1_555 1_555
C7_3 N13_3 1_555 1_555
H15_3 C7_3 1_555 1_555
C8_3 N13_3 1_555 1_555
H16_3 C8_3 1_555 1_555
O125_3 Ni4_3 1_555 1_555
H17_3 O125_3 1_555 1_555
H18_3 O125_3 1_555 1_555
N17_3 N20_3 1_555 1_555
N18_3 Ni4_3 1_555 1_555
N19_3 Ni13 1_555 1_555
C9_3 N17_3 1_555 1_555
H19_3 C9_3 1_555 1_555
C10_3 N17_3 1_555 1_555
H20_3 C10_3 1_555 1_555
O126_3 Ni4_3 1_555 1_555
H21_3 O126_3 1_555 1_555
H22_3 O126_3 1_555 1_555
N21_3 N24_3 1_555 1_555
N22_3 Ni4_3 1_555 1_555
N23_3 Ni13 1_555 1_555
C11_3 N21_3 1_555 1_555
H23_3 C11_3 1_555 1_555
C12_3 N21_3 1_555 1_555
H24_3 C12_3 1_555 1_555
N14_3 N15_3 1_555 1_555
N14_3 C8_3 1_555 1_555
N15_3 C7_3 1_555 1_555
N18_3 N19_3 1_555 1_555
N18_3 C10_3 1_555 1_555
N19_3 C9_3 1_555 1_555
N22_3 N23_3 1_555 1_555
N22_3 C12_3 1_555 1_555
N23_3 C11_3 1_555 1_555
N16_3 H57_3 1_555 1_555
N16_3 H58_3 1_555 1_555
N20_3 H59_3 1_555 1_555
N20_3 H60_3 1_555 1_555
N24_3 H61_3 1_555 1_555
N24_3 H62_3 1_555 1_555
N48_3 H67_9 1_555 1_555
N48_4 H67_10 1_555 1_555
N44_4 H69_10 1_555 1_555
Ni8_6 O130_6 1_555 1_555
O130_6 H37_6 1_555 1_555
H38_6 O130_6 1_555 1_555
N37_6 N40_6 1_555 1_555
N38_6 Ni8_6 1_555 1_555
N39_6 Ni12_2 1_555 1_555
C19_6 N37_6 1_555 1_555
H39_6 C19_6 1_555 1_555
C20_6 N37_6 1_555 1_555
H40_6 C20_6 1_555 1_555
O131_6 Ni8_6 1_555 1_555
H41_6 O131_6 1_555 1_555
H42_6 O131_6 1_555 1_555
N41_6 N44_6 1_555 1_555
N42_6 Ni8_6 1_555 1_555
N43_6 Ni12_2 1_555 1_555
C21_6 N41_6 1_555 1_555
H43_6 C21_6 1_555 1_555
C22_6 N41_6 1_555 1_555
H44_6 C22_6 1_555 1_555
O132_6 Ni8_6 1_555 1_555
H45_6 O132_6 1_555 1_555
H46_6 O132_6 1_555 1_555
N45_6 N48_6 1_555 1_555
N46_6 Ni8_6 1_555 1_555
N47_6 Ni12_2 1_555 1_555
C23_6 N45_6 1_555 1_555
H47_6 C23_6 1_555 1_555
C24_6 N45_6 1_555 1_555
H48_6 C24_6 1_555 1_555
N38_6 N39_6 1_555 1_555
N38_6 C20_6 1_555 1_555
N39_6 C19_6 1_555 1_555
N42_6 N43_6 1_555 1_555
N42_6 C22_6 1_555 1_555
N43_6 C21_6 1_555 1_555
N46_6 N47_6 1_555 1_555
N46_6 C24_6 1_555 1_555
N47_6 C23_6 1_555 1_555
N40_6 H51_6 1_555 1_555
N40_6 H52_6 1_555 1_555
N44_6 H53_6 1_555 1_555
N44_6 H54_6 1_555 1_555
N48_6 H55_6 1_555 1_555
N48_6 H56_6 1_555 1_555
N40_4 H71_10 1_555 1_555
N16_2 H67_11 1_555 1_555
N20_2 H71_11 1_555 1_555
N24_2 H69_11 1_555 1_555
N32_2 H71_12 1_555 1_555
N36_2 H69_12 1_555 1_555
N28_2 H67_12 1_555 1_555
N8 H51_7 1_555 1_555
N4_3 H57_4 1_555 1_555
N12_3 H61_4 1_555 1_555
N4 H55_7 1_555 1_555
N12_4 H49_4 1_555 1_555
N12 H53_7 1_555 1_555
N4_4 H63_4 1_555 1_555
N8_4 H65_4 1_555 1_555
N48_5 H67_13 1_555 1_555
N44_5 H69_13 1_555 1_555
N40_5 H71_13 1_555 1_555
N8_3 H59_4 1_555 1_555
N12_2 H53_8 1_555 1_555
N48_6 H67_14 1_555 1_555
N44_6 H69_14 1_555 1_555
N40_6 H71_14 1_555 1_555
N8_2 H51_8 1_555 1_555
N4_2 H55_8 1_555 1_555
N16_3 H67_15 1_555 1_555
N24_3 H69_15 1_555 1_555
N20_3 H71_15 1_555 1_555
N28_3 H67_16 1_555 1_555
N36_3 H69_16 1_555 1_555
N32_3 H71_16 1_555 1_555

#END
