
###############################################################################
#
# This file contains modified crystal structure data generated from the
# MOF subset of the Cambridge Structural Database (CSD) v543 
# hosted by the Cambridge Crystallographic Data Centre (CCDC).
#
# This work is licensed under the Creative Commons
# Attribution-NonCommercial-ShareAlike 4.0 International License.
# To view a copy of this license, visit
# http://creativecommons.org/licenses/by-nc-sa/4.0/
# or send a letter to
# Creative Commons, PO Box 1866, Mountain View, CA 94042, USA.
#
# CIF created using the CSD Python API on 29 September 2022
# The structure has been converted into the P1 space group
# The structure has a 3D framework
# The original CSD entry ABIYIV is in the orthorhombic crystal system
# The framework has been calculated to contain at least 10.0% void space
# The void calculation uses a probe of radius 1.32A, grid spacing 0.4
#
###############################################################################

data_ABIYIV
_chemical_formula_moiety         '(C160 H112 Co20 N40 O30)n'
_symmetry_cell_setting           triclinic
_symmetry_space_group_name_H-M   'P 1'
_symmetry_Int_Tables_number      1
_space_group_name_Hall           'P 1'
loop_
_symmetry_equiv_pos_site_id
_symmetry_equiv_pos_as_xyz
1 x,y,z
_cell_length_a                   11.1040(3)
_cell_length_b                   19.8834(5)
_cell_length_c                   21.3025(5)
_cell_angle_alpha                90
_cell_angle_beta                 90
_cell_angle_gamma                90
_cell_volume                     4703.28
loop_
_atom_site_label
_atom_site_type_symbol
_atom_site_fract_x
_atom_site_fract_y
_atom_site_fract_z
Co2 Co 0.0000 0.5000 0.0000
N1 N 0.0434(2) 0.51193(12) 0.09282(12)
C7 C 0.2052(3) 0.40099(18) 0.01700(17)
H4 H 0.2438 0.4416 0.0290
C9 C 0.2166(3) 0.28192(17) 0.00020(15)
C11 C 0.1330(3) 0.53256(16) 0.13024(14)
H7 H 0.2060 0.5513 0.1149
C14 C 0.2709(3) 0.34209(17) 0.01803(17)
H10 H 0.3529 0.3426 0.0308
O4 O 0.01911(18) 0.49902(11) 0.30279(9)
N5 N 0.1098(2) 0.52414(13) 0.19119(12)
Co4 Co 0.19405(4) 0.53703(3) 0.27648(2)
Co7 Co 0.5000 0.0000 0.0000
C27 C 0.2948(3) 0.09901(18) 0.01700(17)
H18 H 0.2562 0.0584 0.0290
C29 C 0.2834(3) 0.21808(17) 0.00020(15)
C34 C 0.2291(3) 0.15791(17) 0.01803(17)
H24 H 0.1471 0.1574 0.0308
Co2_2 Co 0.0000 0.5000 1.0000
N4 N 0.0896(2) 0.40326(13) 0.99991(12)
C3 C 0.0366(3) 0.34603(17) 0.98317(16)
C12 C 0.0950(3) 0.28500(18) 0.98277(16)
H8 H 0.0533 0.2453 0.9708
Co3 Co 0.30595(4) 0.53703(3) 0.77648(2)
Co7_2 Co 0.5000 -0.0000 1.0000
O5 O 0.15285(17) 0.54239(11) 0.95638(9)
O6 O 0.14093(18) 0.55584(11) 0.73381(10)
O7 O 0.25072(19) 0.54682(11) 0.86648(9)
N7 N 0.3660(2) 0.64180(13) 0.78361(13)
N9 N 0.2626(2) 0.42814(13) 0.77705(13)
N10 N 0.4104(2) 0.09674(13) 0.99991(12)
C21 C 0.1566(3) 0.53563(16) 0.89693(14)
C23 C 0.4634(3) 0.15397(17) 0.98317(16)
H15 H 0.5457 0.1526 0.9709
C25 C 0.0439(3) 0.51164(15) 0.86722(15)
C30 C 0.3844(4) 0.67971(19) 0.73255(19)
H20 H 0.3741 0.6595 0.6925
C32 C 0.4050(3) 0.21500(18) 0.98277(16)
H22 H 0.4467 0.2547 0.9708
C35 C 0.4176(4) 0.7465(2) 0.7351(2)
H25 H 0.4293 0.7714 0.6975
C36 C 0.4182(4) 0.7379(2) 0.8454(2)
H26 H 0.4306 0.7568 0.8858
C37 C 0.3843(4) 0.67080(19) 0.83901(19)
H27 H 0.3738 0.6446 0.8759
C38 C 0.4337(4) 0.7765(2) 0.7923(2)
H28 H 0.4548 0.8227 0.7953
C39 C 0.0026(3) 0.50433(15) 0.80588(14)
C40 C 0.0455(3) 0.52153(15) 0.74189(14)
O10 O 0.48089(18) 0.49902(11) 0.80279(9)
N14 N 0.3902(2) 0.52414(13) 0.69119(12)
Co7_3 Co 0.5000 1.0000 0.0000
Co7_4 Co 0.5000 1.0000 1.0000
Co5 Co 0.80595(4) 0.03703(3) 0.22352(2)
Co1 Co 0.69405(4) 0.46297(3) 0.22352(2)
Co2_3 Co 1.0000 0.5000 0.0000
O1 O 0.84715(17) 0.45761(11) 0.04362(9)
O2 O 0.85907(18) 0.44416(11) 0.26619(10)
O3 O 0.74928(19) 0.45318(11) 0.13352(9)
N2 N 0.6340(2) 0.35820(13) 0.21639(13)
N3 N 0.7374(2) 0.57186(13) 0.22295(13)
C1 C 0.8434(3) 0.46437(16) 0.10307(14)
C2 C 0.7471(3) 0.71258(16) 0.22423(17)
C4 C 0.7712(3) 0.60567(17) 0.27411(16)
H2 H 0.7919 0.5808 0.3107
C5 C 0.9561(3) 0.48836(15) 0.13278(15)
C6 C 0.7083(3) 0.60849(17) 0.17200(16)
H3 H 0.6836 0.5854 0.1351
C8 C 0.7126(3) 0.67742(17) 0.17064(16)
H5 H 0.6921 0.7010 0.1334
C10 C 0.6156(4) 0.32029(19) 0.26745(19)
H6 H 0.6259 0.3405 0.3075
C13 C 0.7778(3) 0.67489(17) 0.27654(17)
H9 H 0.8033 0.6967 0.3139
C15 C 0.5824(4) 0.2535(2) 0.2649(2)
H11 H 0.5707 0.2286 0.3025
C16 C 0.5818(4) 0.2621(2) 0.1546(2)
H12 H 0.5694 0.2432 0.1142
C17 C 0.6157(4) 0.32920(19) 0.16099(19)
H13 H 0.6262 0.3554 0.1241
C18 C 0.5663(4) 0.2235(2) 0.2077(2)
H14 H 0.5452 0.1773 0.2047
C19 C 0.9974(3) 0.49567(15) 0.19412(14)
C20 C 0.9545(3) 0.47847(15) 0.25811(14)
N8 N 0.7626(2) 0.92814(13) 0.22295(13)
N11 N 0.9104(2) 0.59674(13) 0.00009(12)
C22 C 0.7529(3) 0.78742(16) 0.22423(17)
C24 C 0.7288(3) 0.89433(17) 0.27411(16)
H16 H 0.7081 0.9192 0.3107
C26 C 0.7917(3) 0.89151(17) 0.17200(16)
H17 H 0.8164 0.9146 0.1351
C28 C 0.7874(3) 0.82258(17) 0.17064(16)
H19 H 0.8079 0.7990 0.1334
C33 C 0.7222(3) 0.82511(17) 0.27654(17)
H23 H 0.6967 0.8033 0.3139
O9 O 0.51911(18) 0.50098(11) 0.19721(9)
N13 N 0.6098(2) 0.47586(13) 0.30881(12)
Co2_4 Co 1.0000 0.5000 1.0000
H1 H 0.9543 0.3474 0.9709
Co6 Co 0.80595(4) 0.46297(3) 0.72352(2)
N6 N 0.9566(2) 0.48807(12) 0.90718(12)
C31 C 0.8670(3) 0.46744(16) 0.86976(14)
H21 H 0.7940 0.4487 0.8851
O8 O 0.98089(18) 0.50098(11) 0.69721(9)
N12 N 0.8902(2) 0.47586(13) 0.80881(12)
O1_2 O 0.65285(17) 0.04239(11) 0.04362(9)
O2_2 O 0.64093(18) 0.05584(11) 0.26619(10)
O3_2 O 0.75072(19) 0.04682(11) 0.13352(9)
N2_2 N 0.8660(2) 0.14180(13) 0.21639(13)
C1_2 C 0.6566(3) 0.03563(16) 0.10307(14)
C5_2 C 0.5439(3) 0.01164(15) 0.13278(15)
C10_2 C 0.8844(4) 0.17971(19) 0.26745(19)
H6_2 H 0.8741 0.1595 0.3075
C15_2 C 0.9176(4) 0.2465(2) 0.2649(2)
H11_2 H 0.9293 0.2714 0.3025
C16_2 C 0.9182(4) 0.2379(2) 0.1546(2)
H12_2 H 0.9306 0.2568 0.1142
C17_2 C 0.8843(4) 0.17080(19) 0.16099(19)
H13_2 H 0.8738 0.1446 0.1241
C18_2 C 0.9337(4) 0.2765(2) 0.2077(2)
H14_2 H 0.9548 0.3227 0.2047
C19_2 C 0.5026(3) 0.00433(15) 0.19412(14)
C20_2 C 0.5455(3) 0.02153(15) 0.25811(14)
O4_2 O 0.48089(18) 0.00098(11) 0.30279(9)
N13_2 N 0.8902(2) 0.02414(13) 0.30881(12)
Co6_2 Co 0.69405(4) 0.03703(3) 0.72352(2)
N6_2 N 0.5434(2) 0.01193(12) 0.90718(12)
N9_2 N 0.2374(2) 0.07186(13) 0.77705(13)
C31_2 C 0.6330(3) 0.03256(16) 0.86976(14)
H21_2 H 0.7060 0.0513 0.8851
O10_2 O 0.01911(18) 0.00098(11) 0.80279(9)
N12_2 N 0.6098(2) 0.02414(13) 0.80881(12)
N1_2 N 0.4566(2) 0.98807(12) 0.09282(12)
C11_2 C 0.3670(3) 0.96744(16) 0.13024(14)
H7_2 H 0.2940 0.9487 0.1149
N5_2 N 0.3902(2) 0.97586(13) 0.19119(12)
Co4_2 Co 0.30595(4) 0.96297(3) 0.27648(2)
N11_2 N 0.5896(2) 0.90326(13) 0.00009(12)
O9_2 O 0.98089(18) 0.99902(11) 0.19721(9)
Co3_2 Co 0.19405(4) 0.96297(3) 0.77648(2)
O5_2 O 0.34715(17) 0.95761(11) 0.95638(9)
O6_2 O 0.35907(18) 0.94416(11) 0.73381(10)
O7_2 O 0.24928(19) 0.95318(11) 0.86648(9)
N7_2 N 0.1340(2) 0.85820(13) 0.78361(13)
C21_2 C 0.3434(3) 0.96437(16) 0.89693(14)
C25_2 C 0.4561(3) 0.98836(15) 0.86722(15)
C30_2 C 0.1156(4) 0.82029(19) 0.73255(19)
H20_2 H 0.1259 0.8405 0.6925
C35_2 C 0.0824(4) 0.7535(2) 0.7351(2)
H25_2 H 0.0707 0.7286 0.6975
C36_2 C 0.0818(4) 0.7621(2) 0.8454(2)
H26_2 H 0.0694 0.7432 0.8858
C37_2 C 0.1157(4) 0.82920(19) 0.83901(19)
H27_2 H 0.1262 0.8554 0.8759
C38_2 C 0.0663(4) 0.7235(2) 0.7923(2)
H28_2 H 0.0452 0.6773 0.7953
C39_2 C 0.4974(3) 0.99567(15) 0.80588(14)
C40_2 C 0.4545(3) 0.97847(15) 0.74189(14)
O8_2 O 0.51911(18) 0.99902(11) 0.69721(9)
N14_2 N 0.1098(2) 0.97586(13) 0.69119(12)
Co2_5 Co 0.0000 -0.0000 0.5000
N3_2 N 0.2626(2) 0.07186(13) 0.27705(13)
C2_2 C 0.2529(3) 0.21258(16) 0.27577(17)
C4_2 C 0.2288(3) 0.10567(17) 0.22589(16)
H2_2 H 0.2081 0.0808 0.1893
C6_2 C 0.2917(3) 0.10849(17) 0.32800(16)
H3_2 H 0.3164 0.0854 0.3649
C8_2 C 0.2874(3) 0.17742(17) 0.32936(16)
H5_2 H 0.3079 0.2010 0.3666
C13_2 C 0.2222(3) 0.17489(17) 0.22346(17)
H9_2 H 0.1967 0.1967 0.1861
N8_2 N 0.2374(2) 0.42814(13) 0.27705(13)
N11_3 N 0.0896(2) 0.09674(13) 0.49991(12)
C22_2 C 0.2471(3) 0.28742(16) 0.27577(17)
C24_2 C 0.2712(3) 0.39433(17) 0.22589(16)
H16_2 H 0.2919 0.4192 0.1893
C26_2 C 0.2083(3) 0.39151(17) 0.32800(16)
H17_2 H 0.1836 0.4146 0.3649
C28_2 C 0.2126(3) 0.32258(17) 0.32936(16)
H19_2 H 0.1921 0.2990 0.3666
C33_2 C 0.2778(3) 0.32511(17) 0.22346(17)
H23_2 H 0.3033 0.3033 0.1861
Co2_6 Co 0.0000 1.0000 0.5000
O1_3 O 0.15285(17) 0.95761(11) 0.45638(9)
O2_3 O 0.14093(18) 0.94416(11) 0.23381(10)
O3_3 O 0.25072(19) 0.95318(11) 0.36648(9)
N2_3 N 0.3660(2) 0.85820(13) 0.28361(13)
C1_3 C 0.1566(3) 0.96437(16) 0.39693(14)
H1_2 H 0.0457 0.8474 0.5291
C5_3 C 0.0439(3) 0.98836(15) 0.36722(15)
C10_3 C 0.3844(4) 0.82029(19) 0.23255(19)
H6_3 H 0.3741 0.8405 0.1925
C15_3 C 0.4176(4) 0.7535(2) 0.2351(2)
H11_3 H 0.4293 0.7286 0.1975
C16_3 C 0.4182(4) 0.7621(2) 0.3454(2)
H12_3 H 0.4306 0.7432 0.3858
C17_3 C 0.3843(4) 0.82920(19) 0.33901(19)
H13_3 H 0.3738 0.8554 0.3759
C18_3 C 0.4337(4) 0.7235(2) 0.2923(2)
H14_3 H 0.4548 0.6773 0.2953
C19_3 C 0.0026(3) 0.99567(15) 0.30588(14)
C20_3 C 0.0455(3) 0.97847(15) 0.24189(14)
N6_3 N 0.0434(2) 0.98807(12) 0.59282(12)
C31_3 C 0.1330(3) 0.96744(16) 0.63024(14)
H21_3 H 0.2060 0.9487 0.6149
Co2_7 Co 1.0000 -0.0000 0.5000
N1_3 N 0.9566(2) 0.01193(12) 0.40718(12)
C11_3 C 0.8670(3) 0.03256(16) 0.36976(14)
H7_3 H 0.7940 0.0513 0.3851
O5_3 O 0.84715(17) 0.04239(11) 0.54362(9)
O6_3 O 0.85907(18) 0.05584(11) 0.76619(10)
O7_3 O 0.74928(19) 0.04682(11) 0.63352(9)
N7_3 N 0.6340(2) 0.14180(13) 0.71639(13)
C21_3 C 0.8434(3) 0.03563(16) 0.60307(14)
C25_3 C 0.9561(3) 0.01164(15) 0.63278(15)
C30_3 C 0.6156(4) 0.17971(19) 0.76745(19)
H20_3 H 0.6259 0.1595 0.8075
C35_3 C 0.5824(4) 0.2465(2) 0.7649(2)
H25_3 H 0.5707 0.2714 0.8025
C36_3 C 0.5818(4) 0.2379(2) 0.6546(2)
H26_3 H 0.5694 0.2568 0.6142
C37_3 C 0.6157(4) 0.17080(19) 0.66099(19)
H27_3 H 0.6262 0.1446 0.6241
C38_3 C 0.5663(4) 0.2765(2) 0.7077(2)
H28_3 H 0.5452 0.3227 0.7047
C39_3 C 0.9974(3) 0.00433(15) 0.69412(14)
C40_3 C 0.9545(3) 0.02153(15) 0.75811(14)
Co2_8 Co 1.0000 1.0000 0.5000
N4_2 N 0.9104(2) 0.90326(13) 0.50009(12)
C3_2 C 0.9634(3) 0.84603(17) 0.51683(16)
C7_2 C 0.7948(3) 0.90099(18) 0.48300(17)
H4_2 H 0.7562 0.9416 0.4710
C9_2 C 0.7834(3) 0.78192(17) 0.49980(15)
C12_2 C 0.9050(3) 0.78500(18) 0.51723(16)
H8_2 H 0.9467 0.7453 0.5292
C14_2 C 0.7291(3) 0.84209(17) 0.48197(17)
H10_2 H 0.6471 0.8426 0.4692
Co7_5 Co 0.5000 0.5000 0.5000
N9_3 N 0.7374(2) 0.92814(13) 0.72295(13)
N10_2 N 0.5896(2) 0.59674(13) 0.50009(12)
C23_2 C 0.5366(3) 0.65397(17) 0.51683(16)
H15_2 H 0.4543 0.6526 0.5291
C27_2 C 0.7052(3) 0.59901(18) 0.48300(17)
H18_2 H 0.7438 0.5584 0.4710
C29_2 C 0.7166(3) 0.71808(17) 0.49980(15)
C32_2 C 0.5950(3) 0.71500(18) 0.51723(16)
H22_2 H 0.5533 0.7547 0.5292
C34_2 C 0.7709(3) 0.65791(17) 0.48197(17)
H24_2 H 0.8529 0.6574 0.4692
O1_4 O 0.34715(17) 0.54239(11) 0.45638(9)
O2_4 O 0.35907(18) 0.55584(11) 0.23381(10)
N1_4 N 0.5434(2) 0.48807(12) 0.40718(12)
O3_4 O 0.24928(19) 0.54682(11) 0.36648(9)
N2_4 N 0.1340(2) 0.64180(13) 0.28361(13)
C1_4 C 0.3434(3) 0.53563(16) 0.39693(14)
C5_4 C 0.4561(3) 0.51164(15) 0.36722(15)
C10_4 C 0.1156(4) 0.67971(19) 0.23255(19)
H6_4 H 0.1259 0.6595 0.1925
C11_4 C 0.6330(3) 0.46744(16) 0.36976(14)
H7_4 H 0.7060 0.4487 0.3851
C15_4 C 0.0824(4) 0.7465(2) 0.2351(2)
H11_4 H 0.0707 0.7714 0.1975
C16_4 C 0.0818(4) 0.7379(2) 0.3454(2)
H12_4 H 0.0694 0.7568 0.3858
C17_4 C 0.1157(4) 0.67080(19) 0.33901(19)
H13_4 H 0.1262 0.6446 0.3759
C18_4 C 0.0663(4) 0.7765(2) 0.2923(2)
H14_4 H 0.0452 0.8227 0.2953
C19_4 C 0.4974(3) 0.50433(15) 0.30588(14)
C20_4 C 0.4545(3) 0.52153(15) 0.24189(14)
O5_4 O 0.65285(17) 0.45761(11) 0.54362(9)
O6_4 O 0.64093(18) 0.44416(11) 0.76619(10)
N6_4 N 0.4566(2) 0.51193(12) 0.59282(12)
O7_4 O 0.75072(19) 0.45318(11) 0.63352(9)
N7_4 N 0.8660(2) 0.35820(13) 0.71639(13)
N9_4 N 0.7626(2) 0.57186(13) 0.72295(13)
N11_4 N 0.4104(2) 0.40326(13) 0.49991(12)
C21_4 C 0.6566(3) 0.46437(16) 0.60307(14)
C25_4 C 0.5439(3) 0.48836(15) 0.63278(15)
C30_4 C 0.8844(4) 0.32029(19) 0.76745(19)
H20_4 H 0.8741 0.3405 0.8075
C31_4 C 0.3670(3) 0.53256(16) 0.63024(14)
H21_4 H 0.2940 0.5513 0.6149
C35_4 C 0.9176(4) 0.2535(2) 0.7649(2)
H25_4 H 0.9293 0.2286 0.8025
C36_4 C 0.9182(4) 0.2621(2) 0.6546(2)
H26_4 H 0.9306 0.2432 0.6142
C37_4 C 0.8843(4) 0.32920(19) 0.66099(19)
H27_4 H 0.8738 0.3554 0.6241
C38_4 C 0.9337(4) 0.2235(2) 0.7077(2)
H28_4 H 0.9548 0.1773 0.7047
C39_4 C 0.5026(3) 0.49567(15) 0.69412(14)
C40_4 C 0.5455(3) 0.47847(15) 0.75811(14)
H1_3 H 0.0457 0.6526 0.0291
C2_3 C 0.2529(3) 0.28742(16) 0.77577(17)
C4_3 C 0.2288(3) 0.39433(17) 0.72589(16)
H2_3 H 0.2081 0.4192 0.6893
C6_3 C 0.2917(3) 0.39151(17) 0.82800(16)
H3_3 H 0.3164 0.4146 0.8649
C8_3 C 0.2874(3) 0.32258(17) 0.82936(16)
H5_3 H 0.3079 0.2990 0.8666
C13_3 C 0.2222(3) 0.32511(17) 0.72346(17)
H9_3 H 0.1967 0.3033 0.6861
C22_3 C 0.2471(3) 0.21258(16) 0.77577(17)
C24_3 C 0.2712(3) 0.10567(17) 0.72589(16)
H16_3 H 0.2919 0.0808 0.6893
C26_3 C 0.2083(3) 0.10849(17) 0.82800(16)
H17_3 H 0.1836 0.0854 0.8649
C28_3 C 0.2126(3) 0.17742(17) 0.82936(16)
H19_3 H 0.1921 0.2010 0.8666
C33_3 C 0.2778(3) 0.17489(17) 0.72346(17)
H23_3 H 0.3033 0.1967 0.6861
C3_3 C 0.9634(3) 0.65397(17) 0.01683(16)
C12_3 C 0.9050(3) 0.71500(18) 0.01723(16)
H8_3 H 0.9467 0.7547 0.0292
C23_3 C 0.5366(3) 0.84603(17) 0.01683(16)
H15_3 H 0.4543 0.8474 0.0291
C32_3 C 0.5950(3) 0.78500(18) 0.01723(16)
H22_3 H 0.5533 0.7453 0.0292
C7_3 C 0.7948(3) 0.59901(18) 0.98300(17)
H4_3 H 0.7562 0.5584 0.9710
C9_3 C 0.7834(3) 0.71808(17) 0.99980(15)
C14_3 C 0.7291(3) 0.65791(17) 0.98197(17)
H10_3 H 0.6471 0.6574 0.9692
C27_3 C 0.7052(3) 0.90099(18) 0.98300(17)
H18_3 H 0.7438 0.9416 0.9710
C29_3 C 0.7166(3) 0.78192(17) 0.99980(15)
C34_3 C 0.7709(3) 0.84209(17) 0.98197(17)
H24_3 H 0.8529 0.8426 0.9692
C3_4 C 0.0366(3) 0.15397(17) 0.48317(16)
C7_4 C 0.2052(3) 0.09901(18) 0.51700(17)
H4_4 H 0.2438 0.0584 0.5290
C9_4 C 0.2166(3) 0.21808(17) 0.50020(15)
C12_4 C 0.0950(3) 0.21500(18) 0.48277(16)
H8_4 H 0.0533 0.2547 0.4708
C14_4 C 0.2709(3) 0.15791(17) 0.51803(17)
H10_4 H 0.3529 0.1574 0.5308
C23_4 C 0.4634(3) 0.34603(17) 0.48317(16)
H15_4 H 0.5457 0.3474 0.4709
C27_4 C 0.2948(3) 0.40099(18) 0.51700(17)
H18_4 H 0.2562 0.4416 0.5290
C29_4 C 0.2834(3) 0.28192(17) 0.50020(15)
C32_4 C 0.4050(3) 0.28500(18) 0.48277(16)
H22_4 H 0.4467 0.2453 0.4708
C34_4 C 0.2291(3) 0.34209(17) 0.51803(17)
H24_4 H 0.1471 0.3426 0.5308
H1_4 H 0.9543 0.1526 0.4709
C2_4 C 0.7471(3) 0.78742(16) 0.72423(17)
C4_4 C 0.7712(3) 0.89433(17) 0.77411(16)
H2_4 H 0.7919 0.9192 0.8107
C6_4 C 0.7083(3) 0.89151(17) 0.67200(16)
H3_4 H 0.6836 0.9146 0.6351
C8_4 C 0.7126(3) 0.82258(17) 0.67064(16)
H5_4 H 0.6921 0.7990 0.6334
C13_4 C 0.7778(3) 0.82511(17) 0.77654(17)
H9_4 H 0.8033 0.8033 0.8139
C22_4 C 0.7529(3) 0.71258(16) 0.72423(17)
C24_4 C 0.7288(3) 0.60567(17) 0.77411(16)
H16_4 H 0.7081 0.5808 0.8107
C26_4 C 0.7917(3) 0.60849(17) 0.67200(16)
H17_4 H 0.8164 0.5854 0.6351
C28_4 C 0.7874(3) 0.67742(17) 0.67064(16)
H19_4 H 0.8079 0.7010 0.6334
C33_4 C 0.7222(3) 0.67489(17) 0.77654(17)
H23_4 H 0.6967 0.6967 0.8139
loop_
_geom_bond_atom_site_label_1
_geom_bond_atom_site_label_2
_geom_bond_site_symmetry_1
_geom_bond_site_symmetry_2
N1 Co2 1_555 1_555
H4 C7 1_555 1_555
C11 N1 1_555 1_555
H7 C11 1_555 1_555
C14 C7 1_555 1_555
H10 C14 1_555 1_555
N5 C11 1_555 1_555
Co4 O4 1_555 1_555
H18 C27 1_555 1_555
C29 C9 1_555 1_555
C34 C27 1_555 1_555
H24 C34 1_555 1_555
C9 C14 1_555 1_555
N5 Co4 1_555 1_555
C29 C34 1_555 1_555
N4 Co2_2 1_555 1_555
C3 N4 1_555 1_555
C12 C3 1_555 1_555
H8 C12 1_555 1_555
Co3 O6 1_555 1_555
Co7_2 N10 1_555 1_555
O5 Co2_2 1_555 1_555
O6 C40 1_555 1_555
O7 Co3 1_555 1_555
N7 Co3 1_555 1_555
N9 Co3 1_555 1_555
N10 C23 1_555 1_555
C21 O5 1_555 1_555
C23 H15 1_555 1_555
C30 N7 1_555 1_555
H20 C30 1_555 1_555
C32 C23 1_555 1_555
H22 C32 1_555 1_555
C35 C30 1_555 1_555
H25 C35 1_555 1_555
C36 H26 1_555 1_555
C37 N7 1_555 1_555
H27 C37 1_555 1_555
C38 C35 1_555 1_555
H28 C38 1_555 1_555
C39 C25 1_555 1_555
C40 C39 1_555 1_555
O10 Co3 1_555 1_555
N14 Co3 1_555 1_555
O7 C21 1_555 1_555
C21 C25 1_555 1_555
C36 C37 1_555 1_555
C36 C38 1_555 1_555
Co1 O2 1_555 1_555
Co2_3 O1 1_555 1_555
O1 C1 1_555 1_555
O2 C20 1_555 1_555
O3 Co1 1_555 1_555
N2 Co1 1_555 1_555
N3 Co1 1_555 1_555
C1 O3 1_555 1_555
C2 C8 1_555 1_555
C4 N3 1_555 1_555
H2 C4 1_555 1_555
C6 N3 1_555 1_555
H3 C6 1_555 1_555
C8 C6 1_555 1_555
H5 C8 1_555 1_555
C10 N2 1_555 1_555
H6 C10 1_555 1_555
C13 C2 1_555 1_555
H9 C13 1_555 1_555
C15 C10 1_555 1_555
H11 C15 1_555 1_555
C16 H12 1_555 1_555
C17 N2 1_555 1_555
H13 C17 1_555 1_555
C18 C15 1_555 1_555
H14 C18 1_555 1_555
C19 C5 1_555 1_555
C20 C19 1_555 1_555
N8 C24 1_555 1_555
N11 Co2_3 1_555 1_555
C22 C2 1_555 1_555
C24 H16 1_555 1_555
C26 N8 1_555 1_555
H17 C26 1_555 1_555
C28 C22 1_555 1_555
H19 C28 1_555 1_555
C33 C22 1_555 1_555
H23 C33 1_555 1_555
O9 Co1 1_555 1_555
N13 Co1 1_555 1_555
C1 C5 1_555 1_555
C4 C13 1_555 1_555
C16 C17 1_555 1_555
C16 C18 1_555 1_555
C24 C33 1_555 1_555
C26 C28 1_555 1_555
Co6 O8 1_555 1_555
N6 Co2_4 1_555 1_555
C31 N6 1_555 1_555
H21 C31 1_555 1_555
N12 Co6 1_555 1_555
C31 N12 1_555 1_555
Co5 O2_2 1_555 1_555
Co7 O1_2 1_555 1_555
O1_2 C1_2 1_555 1_555
O2_2 C20_2 1_555 1_555
O3_2 Co5 1_555 1_555
N2_2 Co5 1_555 1_555
C1_2 O3_2 1_555 1_555
C10_2 N2_2 1_555 1_555
H6_2 C10_2 1_555 1_555
C15_2 C10_2 1_555 1_555
H11_2 C15_2 1_555 1_555
C16_2 H12_2 1_555 1_555
C17_2 N2_2 1_555 1_555
H13_2 C17_2 1_555 1_555
C18_2 C15_2 1_555 1_555
H14_2 C18_2 1_555 1_555
C19_2 C5_2 1_555 1_555
C20_2 C19_2 1_555 1_555
O4_2 C20_2 1_555 1_555
N13_2 Co5 1_555 1_555
C1_2 C5_2 1_555 1_555
C16_2 C17_2 1_555 1_555
C16_2 C18_2 1_555 1_555
N6_2 Co7_2 1_555 1_555
C31_2 N6_2 1_555 1_555
H21_2 C31_2 1_555 1_555
N12_2 Co6_2 1_555 1_555
C31_2 N12_2 1_555 1_555
N1_2 Co7_3 1_555 1_555
C11_2 N1_2 1_555 1_555
H7_2 C11_2 1_555 1_555
N5_2 C11_2 1_555 1_555
N11_2 Co7_3 1_555 1_555
N5_2 Co4_2 1_555 1_555
Co3_2 O6_2 1_555 1_555
O5_2 Co7_4 1_555 1_555
O6_2 C40_2 1_555 1_555
O7_2 Co3_2 1_555 1_555
N7_2 Co3_2 1_555 1_555
C21_2 O5_2 1_555 1_555
C30_2 N7_2 1_555 1_555
H20_2 C30_2 1_555 1_555
C35_2 C30_2 1_555 1_555
H25_2 C35_2 1_555 1_555
C36_2 H26_2 1_555 1_555
C37_2 N7_2 1_555 1_555
H27_2 C37_2 1_555 1_555
C38_2 C35_2 1_555 1_555
H28_2 C38_2 1_555 1_555
C39_2 C25_2 1_555 1_555
C40_2 C39_2 1_555 1_555
O8_2 C40_2 1_555 1_555
N14_2 Co3_2 1_555 1_555
O7_2 C21_2 1_555 1_555
C21_2 C25_2 1_555 1_555
C36_2 C37_2 1_555 1_555
C36_2 C38_2 1_555 1_555
C2_2 C8_2 1_555 1_555
C4_2 N3_2 1_555 1_555
H2_2 C4_2 1_555 1_555
C6_2 N3_2 1_555 1_555
H3_2 C6_2 1_555 1_555
C8_2 C6_2 1_555 1_555
H5_2 C8_2 1_555 1_555
C13_2 C2_2 1_555 1_555
H9_2 C13_2 1_555 1_555
Co4 N8_2 1_555 1_555
N8_2 C24_2 1_555 1_555
N11_3 Co2_5 1_555 1_555
C22_2 C2_2 1_555 1_555
C24_2 H16_2 1_555 1_555
C26_2 N8_2 1_555 1_555
H17_2 C26_2 1_555 1_555
C28_2 C22_2 1_555 1_555
H19_2 C28_2 1_555 1_555
C33_2 C22_2 1_555 1_555
H23_2 C33_2 1_555 1_555
C4_2 C13_2 1_555 1_555
C24_2 C33_2 1_555 1_555
C26_2 C28_2 1_555 1_555
Co4_2 O2_3 1_555 1_555
Co2_6 O1_3 1_555 1_555
O1_3 C1_3 1_555 1_555
O2_3 C20_3 1_555 1_555
O3_3 Co4_2 1_555 1_555
N2_3 Co4_2 1_555 1_555
C1_3 O3_3 1_555 1_555
C10_3 N2_3 1_555 1_555
H6_3 C10_3 1_555 1_555
C15_3 C10_3 1_555 1_555
H11_3 C15_3 1_555 1_555
C16_3 H12_3 1_555 1_555
C17_3 N2_3 1_555 1_555
H13_3 C17_3 1_555 1_555
C18_3 C15_3 1_555 1_555
H14_3 C18_3 1_555 1_555
C19_3 C5_3 1_555 1_555
C20_3 C19_3 1_555 1_555
N6_3 Co2_6 1_555 1_555
C31_3 N6_3 1_555 1_555
H21_3 C31_3 1_555 1_555
C1_3 C5_3 1_555 1_555
C16_3 C17_3 1_555 1_555
C16_3 C18_3 1_555 1_555
C31_3 N14_2 1_555 1_555
N1_3 Co2_7 1_555 1_555
C11_3 N1_3 1_555 1_555
H7_3 C11_3 1_555 1_555
N13_2 C11_3 1_555 1_555
Co6_2 O6_3 1_555 1_555
O5_3 Co2_7 1_555 1_555
O6_3 C40_3 1_555 1_555
O7_3 Co6_2 1_555 1_555
N7_3 Co6_2 1_555 1_555
C21_3 O5_3 1_555 1_555
C30_3 N7_3 1_555 1_555
H20_3 C30_3 1_555 1_555
C35_3 C30_3 1_555 1_555
H25_3 C35_3 1_555 1_555
C36_3 H26_3 1_555 1_555
C37_3 N7_3 1_555 1_555
H27_3 C37_3 1_555 1_555
C38_3 C35_3 1_555 1_555
H28_3 C38_3 1_555 1_555
C39_3 C25_3 1_555 1_555
C40_3 C39_3 1_555 1_555
O7_3 C21_3 1_555 1_555
C21_3 C25_3 1_555 1_555
C36_3 C37_3 1_555 1_555
C36_3 C38_3 1_555 1_555
N4_2 Co2_8 1_555 1_555
C3_2 N4_2 1_555 1_555
C7_2 N4_2 1_555 1_555
H4_2 C7_2 1_555 1_555
C9_2 C12_2 1_555 1_555
C12_2 C3_2 1_555 1_555
H8_2 C12_2 1_555 1_555
C14_2 C7_2 1_555 1_555
H10_2 C14_2 1_555 1_555
Co7_5 N10_2 1_555 1_555
N10_2 C23_2 1_555 1_555
C23_2 H15_2 1_555 1_555
C27_2 N10_2 1_555 1_555
H18_2 C27_2 1_555 1_555
C29_2 C9_2 1_555 1_555
C32_2 C23_2 1_555 1_555
H22_2 C32_2 1_555 1_555
C34_2 C27_2 1_555 1_555
H24_2 C34_2 1_555 1_555
C9_2 C14_2 1_555 1_555
C29_2 C32_2 1_555 1_555
C29_2 C34_2 1_555 1_555
Co4 O2_4 1_555 1_555
Co7_5 O1_4 1_555 1_555
O1_4 C1_4 1_555 1_555
O2_4 C20_4 1_555 1_555
N1_4 Co7_5 1_555 1_555
O3_4 Co4 1_555 1_555
N2_4 Co4 1_555 1_555
C1_4 O3_4 1_555 1_555
C5_4 N1_4 1_555 1_555
C10_4 N2_4 1_555 1_555
H6_4 C10_4 1_555 1_555
C11_4 N1_4 1_555 1_555
H7_4 C11_4 1_555 1_555
C15_4 C10_4 1_555 1_555
H11_4 C15_4 1_555 1_555
C16_4 H12_4 1_555 1_555
C17_4 N2_4 1_555 1_555
H13_4 C17_4 1_555 1_555
C18_4 C15_4 1_555 1_555
H14_4 C18_4 1_555 1_555
C19_4 C5_4 1_555 1_555
C20_4 C19_4 1_555 1_555
O9 C20_4 1_555 1_555
N13 C11_4 1_555 1_555
Co6 O6_4 1_555 1_555
O5_4 Co7_5 1_555 1_555
O6_4 C40_4 1_555 1_555
N6_4 Co7_5 1_555 1_555
O7_4 Co6 1_555 1_555
N7_4 Co6 1_555 1_555
N9_4 Co6 1_555 1_555
N11_4 Co7_5 1_555 1_555
C21_4 O5_4 1_555 1_555
C25_4 N6_4 1_555 1_555
C30_4 N7_4 1_555 1_555
H20_4 C30_4 1_555 1_555
C31_4 N6_4 1_555 1_555
H21_4 C31_4 1_555 1_555
C35_4 C30_4 1_555 1_555
H25_4 C35_4 1_555 1_555
C36_4 H26_4 1_555 1_555
C37_4 N7_4 1_555 1_555
H27_4 C37_4 1_555 1_555
C38_4 C35_4 1_555 1_555
H28_4 C38_4 1_555 1_555
C39_4 C25_4 1_555 1_555
C40_4 C39_4 1_555 1_555
O10 C40_4 1_555 1_555
C1_4 C5_4 1_555 1_555
C16_4 C17_4 1_555 1_555
C16_4 C18_4 1_555 1_555
C19_4 N13 1_555 1_555
O7_4 C21_4 1_555 1_555
C21_4 C25_4 1_555 1_555
C31_4 N14 1_555 1_555
C36_4 C37_4 1_555 1_555
C36_4 C38_4 1_555 1_555
C39_4 N14 1_555 1_555
C2_3 C8_3 1_555 1_555
C4_3 N9 1_555 1_555
H2_3 C4_3 1_555 1_555
C6_3 N9 1_555 1_555
H3_3 C6_3 1_555 1_555
C8_3 C6_3 1_555 1_555
H5_3 C8_3 1_555 1_555
C13_3 C2_3 1_555 1_555
H9_3 C13_3 1_555 1_555
N9_2 C24_3 1_555 1_555
C22_3 C2_3 1_555 1_555
C24_3 H16_3 1_555 1_555
C26_3 N9_2 1_555 1_555
H17_3 C26_3 1_555 1_555
C28_3 C22_3 1_555 1_555
H19_3 C28_3 1_555 1_555
C33_3 C22_3 1_555 1_555
H23_3 C33_3 1_555 1_555
C4_3 C13_3 1_555 1_555
C24_3 C33_3 1_555 1_555
C26_3 C28_3 1_555 1_555
C3_3 N11 1_555 1_555
C12_3 C3_3 1_555 1_555
H8_3 C12_3 1_555 1_555
N11_2 C23_3 1_555 1_555
C23_3 H15_3 1_555 1_555
C32_3 C23_3 1_555 1_555
H22_3 C32_3 1_555 1_555
H4_3 C7_3 1_555 1_555
C14_3 C7_3 1_555 1_555
H10_3 C14_3 1_555 1_555
H18_3 C27_3 1_555 1_555
C29_3 C9_3 1_555 1_555
C34_3 C27_3 1_555 1_555
H24_3 C34_3 1_555 1_555
C9_3 C14_3 1_555 1_555
C29_3 C34_3 1_555 1_555
C3_4 N11_3 1_555 1_555
C7_4 N11_3 1_555 1_555
H4_4 C7_4 1_555 1_555
C9_4 C12_4 1_555 1_555
C12_4 C3_4 1_555 1_555
H8_4 C12_4 1_555 1_555
C14_4 C7_4 1_555 1_555
H10_4 C14_4 1_555 1_555
N11_4 C23_4 1_555 1_555
C23_4 H15_4 1_555 1_555
C27_4 N11_4 1_555 1_555
H18_4 C27_4 1_555 1_555
C29_4 C9_4 1_555 1_555
C32_4 C23_4 1_555 1_555
H22_4 C32_4 1_555 1_555
C34_4 C27_4 1_555 1_555
H24_4 C34_4 1_555 1_555
C9_4 C14_4 1_555 1_555
C29_4 C32_4 1_555 1_555
C29_4 C34_4 1_555 1_555
C2_4 C8_4 1_555 1_555
C4_4 N9_3 1_555 1_555
H2_4 C4_4 1_555 1_555
C6_4 N9_3 1_555 1_555
H3_4 C6_4 1_555 1_555
C8_4 C6_4 1_555 1_555
H5_4 C8_4 1_555 1_555
C13_4 C2_4 1_555 1_555
H9_4 C13_4 1_555 1_555
N9_4 C24_4 1_555 1_555
C22_4 C2_4 1_555 1_555
C24_4 H16_4 1_555 1_555
C26_4 N9_4 1_555 1_555
H17_4 C26_4 1_555 1_555
C28_4 C22_4 1_555 1_555
H19_4 C28_4 1_555 1_555
C33_4 C22_4 1_555 1_555
H23_4 C33_4 1_555 1_555
C4_4 C13_4 1_555 1_555
C24_4 C33_4 1_555 1_555
C26_4 C28_4 1_555 1_555

#END
