
###############################################################################
#
# This file contains modified crystal structure data generated from the
# MOF subset of the Cambridge Structural Database (CSD) v543 
# hosted by the Cambridge Crystallographic Data Centre (CCDC).
#
# This work is licensed under the Creative Commons
# Attribution-NonCommercial-ShareAlike 4.0 International License.
# To view a copy of this license, visit
# http://creativecommons.org/licenses/by-nc-sa/4.0/
# or send a letter to
# Creative Commons, PO Box 1866, Mountain View, CA 94042, USA.
#
# CIF created using the CSD Python API on 29 September 2022
# The structure has been converted into the P1 space group
# The structure has a 3D framework
# The original CSD entry ABUHAJ is in the monoclinic crystal system
# The framework has been calculated to contain at least 10.0% void space
# The void calculation uses a probe of radius 1.32A, grid spacing 0.4
#
###############################################################################

data_ABUHAJ
_chemical_formula_moiety         '(C256 H192 Mn16 N24 O84)n'
_symmetry_cell_setting           triclinic
_symmetry_space_group_name_H-M   'P 1'
_symmetry_Int_Tables_number      1
_space_group_name_Hall           'P 1'
loop_
_symmetry_equiv_pos_site_id
_symmetry_equiv_pos_as_xyz
1 x,y,z
_cell_length_a                   10.1158(4)
_cell_length_b                   23.1654(10)
_cell_length_c                   30.3969(11)
_cell_angle_alpha                90
_cell_angle_beta                 109.1200(10)
_cell_angle_gamma                90
_cell_volume                     6730.16
loop_
_atom_site_label
_atom_site_type_symbol
_atom_site_fract_x
_atom_site_fract_y
_atom_site_fract_z
N6 N 0.3119(3) 0.08547(11) 0.70911(9)
C60 C 0.3197(4) 0.05699(14) 0.74824(12)
H35 H 0.3271 0.0783 0.7749
C61 C 0.2998(4) 0.05334(15) 0.67182(12)
H36 H 0.2937 0.0721 0.6442
Mn8 Mn 0.31173(4) 0.182006(18) 0.700815(15)
O14 O 0.4551(2) 0.57458(12) 0.02142(9)
O15 O 0.0420(2) 0.55710(10) 0.06475(8)
O16 O 0.1569(2) 0.52263(10) 0.01974(7)
C25 C 0.2910(3) 0.69231(14) 0.00459(10)
C26 C 0.2370(4) 0.73781(15) 0.02206(11)
H11 H 0.2602 0.7756 0.0173
C27 C 0.1471(4) 0.72630(16) 0.04696(12)
H12 H 0.1110 0.7565 0.0597
C28 C 0.1111(3) 0.67000(15) 0.05280(11)
H13 H 0.0483 0.6627 0.0687
C29 C 0.1674(3) 0.62397(14) 0.03531(10)
C30 C 0.2620(3) 0.63503(14) 0.01121(10)
C31 C 0.1195(3) 0.56364(14) 0.04013(10)
Mn1 Mn 0.30392(4) 0.682230(18) 0.711407(15)
Mn2 Mn 0.68827(4) 0.682006(18) 0.799185(15)
Mn4 Mn 0.11537(5) 0.50742(2) 0.946397(16)
N1 N 0.1004(3) 0.49622(12) 0.87096(9)
N3 N 0.3169(3) 0.58531(11) 0.71167(9)
N4 N 0.3259(3) 0.27919(11) 0.70166(9)
N5 N 0.3023(3) 0.77911(11) 0.71488(9)
O1 O 0.0817(2) 0.68103(11) 0.71651(7)
O2 O 0.1078(2) 0.68206(10) 0.64811(7)
O7 O 0.0503(3) 0.61413(14) 0.44868(10)
O9 O 0.3993(2) 0.68189(10) 0.78531(7)
O10 O 0.5779(2) 0.67913(9) 0.85011(7)
O13 O 0.2832(2) 0.56886(10) 0.95349(8)
O18 O 0.3791(2) 0.70380(10) 0.97823(7)
C1 C 0.0308(3) 0.68147(13) 0.67298(10)
C17 C 0.4482(3) 0.68327(12) 0.82867(10)
C18 C 0.3505(3) 0.69055(12) 0.85630(10)
C19 C 0.2061(3) 0.69023(12) 0.83411(10)
H8 H 0.1692 0.6875 0.8019
C20 C 0.1182(3) 0.69406(13) 0.86078(10)
C21 C 0.1723(3) 0.69863(13) 0.90891(10)
H9 H 0.1127 0.7010 0.9265
C22 C 0.3172(3) 0.69961(13) 0.93056(10)
C23 C 0.4049(3) 0.69564(13) 0.90441(10)
H10 H 0.5013 0.6964 0.9190
C32 C 0.3387(3) 0.58881(15) 0.99402(12)
C33 C 0.1015(4) 0.54199(15) 0.84465(12)
H14 H 0.1269 0.5775 0.8593
C34 C 0.0671(4) 0.53965(15) 0.79704(11)
H15 H 0.0675 0.5731 0.7802
C35 C 0.0319(3) 0.48705(14) 0.77427(11)
C36 C 0.0356(3) 0.43928(15) 0.80179(11)
H16 H 0.0167 0.4028 0.7884
C37 C 0.0674(4) 0.44588(15) 0.84934(11)
H17 H 0.0655 0.4134 0.8671
H21 H 0.0056 0.3959 0.7177
C43 C 0.2945(4) 0.55737(15) 0.67137(12)
H22 H 0.2786 0.5792 0.6444
C44 C 0.2938(4) 0.49832(15) 0.66759(12)
H23 H 0.2763 0.4810 0.6386
C45 C 0.3191(3) 0.46490(13) 0.70699(11)
C46 C 0.3425(3) 0.49331(13) 0.74907(11)
H24 H 0.3597 0.4725 0.7765
C47 C 0.3400(3) 0.55275(13) 0.74968(11)
H25 H 0.3551 0.5712 0.7781
C48 C 0.3204(3) 0.40061(13) 0.70467(11)
C49 C 0.3242(4) 0.37085(14) 0.66535(12)
H26 H 0.3245 0.3911 0.6390
C50 C 0.3277(4) 0.31142(14) 0.66542(12)
H27 H 0.3314 0.2927 0.6388
C51 C 0.3207(4) 0.30789(14) 0.73936(12)
H28 H 0.3184 0.2865 0.7650
C52 C 0.3185(4) 0.36704(14) 0.74230(12)
H29 H 0.3158 0.3846 0.7695
C53 C 0.3166(4) 0.81022(14) 0.75273(12)
H30 H 0.3267 0.7908 0.7804
C54 C 0.3174(4) 0.86978(14) 0.75343(12)
H31 H 0.3282 0.8893 0.7811
C55 C 0.3022(3) 0.90062(14) 0.71311(11)
C56 C 0.2837(5) 0.86766(16) 0.67383(13)
H32 H 0.2699 0.8858 0.6454
C57 C 0.2851(5) 0.80877(16) 0.67592(13)
H33 H 0.2735 0.7883 0.6486
C58 C 0.3045(3) 0.96476(14) 0.71196(11)
C59 C 0.3174(4) 0.99793(14) 0.75102(12)
H34 H 0.3245 0.9802 0.7791
C62 C 0.2957(4) 0.99406(15) 0.67172(12)
H37 H 0.2869 0.9738 0.6445
O22 O 0.2638(2) 0.43382(11) 0.96942(8)
H47 H 0.2639 0.4246 0.9965
H48 H 0.3510 0.4344 0.9734
Mn9 Mn 0.16580(6) 0.53594(2) 0.453940(18)
N7 N 0.6741(3) 0.77919(11) 0.79834(9)
N8 N 0.6881(3) 0.58547(11) 0.79089(9)
O23 O 0.5925(2) 0.68429(10) 0.72565(7)
O24 O 0.4138(2) 0.68377(10) 0.66109(7)
O26 O 0.9064(2) 0.69757(10) 0.79585(7)
O27 O 0.8895(2) 0.67520(10) 0.86377(7)
Mn10 Mn 0.88463(5) 0.49258(2) 0.053603(16)
Mn3 Mn 0.83420(6) 0.46406(2) 0.546060(18)
N2 N 0.9078(3) 0.47380(13) 0.62483(9)
O5 O 0.6301(3) 0.55529(14) 0.49812(15)
O6 O 0.8532(3) 0.55469(11) 0.53844(8)
O8 O 0.8830(4) 0.55204(13) 0.44380(11)
O17 O 0.6146(2) 0.67558(11) 0.53253(7)
O19 O 0.6471(3) 0.42125(15) 0.54817(11)
H1 H 0.5945 0.4491 0.5393
C2 C 0.8738(3) 0.68108(13) 0.65021(10)
C3 C 0.7855(3) 0.68096(13) 0.67656(10)
H2 H 0.8223 0.6815 0.7089
C4 C 0.6406(3) 0.68001(13) 0.65444(10)
C5 C 0.5866(3) 0.67763(14) 0.60624(10)
H3 H 0.4904 0.6761 0.5914
C6 C 0.6762(3) 0.67761(14) 0.58020(10)
C7 C 0.8198(3) 0.68017(14) 0.60189(10)
H4 H 0.8795 0.6813 0.5843
C8 C 0.5427(3) 0.68276(12) 0.68223(10)
C9 C 0.7013(3) 0.68442(15) 0.50550(10)
C10 C 0.7178(4) 0.74012(16) 0.49236(12)
H5 H 0.6728 0.7706 0.5015
C11 C 0.8025(4) 0.75006(16) 0.46535(13)
H6 H 0.8135 0.7873 0.4556
C12 C 0.8704(4) 0.70434(16) 0.45304(11)
H7 H 0.9286 0.7112 0.4354
C13 C 0.8538(3) 0.64865(15) 0.46629(10)
C14 C 0.7663(3) 0.63759(14) 0.49278(10)
C15 C 0.7461(4) 0.57814(16) 0.51045(13)
C16 C 0.9336(4) 0.60111(18) 0.45216(11)
C24 C 0.9617(3) 0.68896(13) 0.83863(11)
C38 C 0.9891(3) 0.48242(14) 0.72251(11)
C39 C 0.9512(4) 0.53051(16) 0.69403(12)
H18 H 0.9524 0.5669 0.7071
C40 C 0.9116(4) 0.52449(16) 0.64628(12)
H19 H 0.8862 0.5575 0.6280
C41 C 0.9454(4) 0.42781(15) 0.65248(11)
H20 H 0.9460 0.3921 0.6386
C42 C 0.9837(4) 0.42976(15) 0.70039(11)
C63 C 0.6468(5) 0.3624(2) 0.56647(18)
H38 H 0.5906 0.3375 0.5418
H39 H 0.7416 0.3474 0.5771
C64 C 0.5906(7) 0.3621(3) 0.6051(2)
H40 H 0.5900 0.4007 0.6164
H41 H 0.6480 0.3380 0.6297
H42 H 0.4968 0.3472 0.5944
O20 O 0.7717(3) 0.45577(13) 0.47089(9)
H43 H 0.7955 0.4860 0.4596
H44 H 0.7827 0.4263 0.4558
O21 O 0.9627(2) 0.57957(11) 0.92977(8)
H45 H 0.9550 0.6059 0.9096
H46 H 0.8816 0.5740 0.9316
O25 O 0.9497(3) 0.38587(14) 0.55132(10)
O28 O 0.9580(2) 0.44290(10) 0.93525(8)
O3 O 0.4075(2) 0.18429(10) 0.77435(7)
O4 O 0.5862(2) 0.18377(10) 0.83891(7)
O6_2 O 0.1468(3) 0.05469(11) 0.96156(8)
O11 O 0.0936(2) 0.19757(10) 0.70415(7)
O12 O 0.1105(2) 0.17520(10) 0.63623(7)
O17_2 O 0.3854(2) 0.17558(11) 0.96747(7)
C2_2 C 0.1262(3) 0.18108(13) 0.84979(10)
C3_2 C 0.2145(3) 0.18096(13) 0.82344(10)
H2_2 H 0.1777 0.1815 0.7911
C4_2 C 0.3594(3) 0.18001(13) 0.84556(10)
C5_2 C 0.4134(3) 0.17763(14) 0.89376(10)
H3_2 H 0.5096 0.1761 0.9086
C6_2 C 0.3238(3) 0.17761(14) 0.91980(10)
C7_2 C 0.1802(3) 0.18017(14) 0.89811(10)
H4_2 H 0.1205 0.1813 0.9157
C8_2 C 0.4573(3) 0.18276(12) 0.81777(10)
C9_2 C 0.2987(3) 0.18442(15) 0.99450(10)
H5_2 H 0.3272 0.2706 0.9985
C15_2 C 0.2539(4) 0.07814(16) 0.98955(13)
C24_2 C 0.0383(3) 0.18896(13) 0.66137(11)
C39_2 C 0.0488(4) 0.03051(16) 0.80597(12)
H18_2 H 0.0476 0.0669 0.7929
C40_2 C 0.0884(4) 0.02449(16) 0.85372(12)
H19_2 H 0.1138 0.0575 0.8720
O21_2 O 0.0373(2) 0.07957(11) 0.57023(8)
H45_2 H 0.0450 0.1059 0.5904
H46_2 H 0.1184 0.0740 0.5684
Mn5 Mn 0.69608(4) 0.182230(18) 0.788593(15)
Mn3_2 Mn 0.16580(6) 0.96406(2) 0.953940(18)
N2_2 N 0.0922(3) 0.97380(13) 0.87517(9)
O19_2 O 0.3529(3) 0.92125(15) 0.95183(11)
H1_2 H 0.4055 0.9491 0.9607
C38_2 C 0.0109(3) 0.98242(14) 0.77749(11)
C41_2 C 0.0546(4) 0.92781(15) 0.84752(11)
H20_2 H 0.0540 0.8921 0.8614
C42_2 C 0.0163(4) 0.92976(15) 0.79961(11)
C63_2 C 0.3532(5) 0.8624(2) 0.93353(18)
H38_2 H 0.4094 0.8375 0.9582
H39_2 H 0.2584 0.8474 0.9229
C64_2 C 0.4094(7) 0.8621(3) 0.8949(2)
H40_2 H 0.4100 0.9007 0.8836
H41_2 H 0.3520 0.8380 0.8703
H42_2 H 0.5032 0.8472 0.9056
Mn10_2 Mn 0.11537(5) 0.99258(2) 0.446397(16)
O25_2 O 0.0503(3) 0.88587(14) 0.94868(10)
O28_2 O 0.0420(2) 0.94290(10) 0.56475(8)
O7_2 O 0.9497(3) 0.11413(14) 0.05132(10)
Mn9_2 Mn 0.83420(6) 0.03594(2) 0.046060(18)
Mn4_2 Mn 0.88463(5) 0.00742(2) 0.553603(16)
N3_2 N 0.6831(3) 0.08531(11) 0.78833(9)
N5_2 N 0.6977(3) 0.27911(11) 0.78512(9)
O1_2 O 0.9183(2) 0.18103(11) 0.78349(7)
O2_2 O 0.8922(2) 0.18206(10) 0.85189(7)
O9_2 O 0.6007(2) 0.18189(10) 0.71469(7)
O10_2 O 0.4221(2) 0.17913(9) 0.64989(7)
O13_2 O 0.7168(2) 0.06886(10) 0.54651(8)
O14_2 O 0.5449(2) 0.07458(12) 0.47858(9)
O15_2 O 0.9580(2) 0.05710(10) 0.43525(8)
O16_2 O 0.8431(2) 0.02263(10) 0.48026(7)
O18_2 O 0.6209(2) 0.20380(10) 0.52177(7)
C1_2 C 0.9692(3) 0.18147(13) 0.82702(10)
C17_2 C 0.5518(3) 0.18327(12) 0.67133(10)
C18_2 C 0.6495(3) 0.19055(12) 0.64370(10)
C19_2 C 0.7939(3) 0.19023(12) 0.66589(10)
H8_2 H 0.8308 0.1875 0.6981
C20_2 C 0.8818(3) 0.19406(13) 0.63922(10)
C21_2 C 0.8277(3) 0.19863(13) 0.59109(10)
H9_2 H 0.8873 0.2010 0.5735
C22_2 C 0.6828(3) 0.19961(13) 0.56944(10)
C23_2 C 0.5951(3) 0.19564(13) 0.59559(10)
H10_2 H 0.4987 0.1964 0.5810
C25_2 C 0.7090(3) 0.19231(14) 0.49541(10)
C26_2 C 0.7630(4) 0.23781(15) 0.47794(11)
H11_2 H 0.7398 0.2756 0.4827
C27_2 C 0.8529(4) 0.22630(16) 0.45304(12)
H12_2 H 0.8890 0.2565 0.4403
C28_2 C 0.8889(3) 0.17000(15) 0.44720(11)
H13_2 H 0.9517 0.1627 0.4313
C29_2 C 0.8326(3) 0.12397(14) 0.46469(10)
C30_2 C 0.7380(3) 0.13503(14) 0.48879(10)
C31_2 C 0.8805(3) 0.06364(14) 0.45987(10)
C32_2 C 0.6613(3) 0.08881(15) 0.50598(12)
C33_2 C 0.8985(4) 0.04199(15) 0.65535(12)
H14_2 H 0.8731 0.0775 0.6407
C34_2 C 0.9329(4) 0.03965(15) 0.70296(11)
H15_2 H 0.9325 0.0731 0.7198
C43_2 C 0.7055(4) 0.05737(15) 0.82863(12)
H22_2 H 0.7214 0.0792 0.8556
C47_2 C 0.6600(3) 0.05275(13) 0.75032(11)
H25_2 H 0.6449 0.0712 0.7219
C53_2 C 0.6834(4) 0.31022(14) 0.74727(12)
H30_2 H 0.6733 0.2908 0.7196
C54_2 C 0.6826(4) 0.36978(14) 0.74657(12)
H31_2 H 0.6718 0.3893 0.7189
C55_2 C 0.6978(3) 0.40062(14) 0.78689(11)
C56_2 C 0.7163(5) 0.36766(16) 0.82617(13)
H32_2 H 0.7301 0.3858 0.8546
C57_2 C 0.7149(5) 0.30877(16) 0.82408(13)
H33_2 H 0.7265 0.2883 0.8514
C58_2 C 0.6955(3) 0.46476(14) 0.78804(11)
C59_2 C 0.6826(4) 0.49793(14) 0.74898(12)
H34_2 H 0.6755 0.4802 0.7209
C60_2 C 0.6803(4) 0.55699(14) 0.75176(12)
H35_2 H 0.6729 0.5783 0.7251
C61_2 C 0.7002(4) 0.55334(15) 0.82818(12)
H36_2 H 0.7063 0.5721 0.8558
C62_2 C 0.7043(4) 0.49406(15) 0.82828(12)
H37_2 H 0.7131 0.4738 0.8555
N1_2 N 0.8996(3) 0.99622(12) 0.62904(9)
C35_2 C 0.9681(3) 0.98705(14) 0.72573(11)
C36_2 C 0.9644(3) 0.93928(15) 0.69821(11)
H16_2 H 0.9833 0.9028 0.7116
C37_2 C 0.9326(4) 0.94588(15) 0.65066(11)
H17_2 H 0.9345 0.9134 0.6329
H21_2 H 0.9944 0.8959 0.7823
C44_2 C 0.7062(4) 0.99832(15) 0.83241(12)
H23_2 H 0.7237 0.9810 0.8614
C45_2 C 0.6809(3) 0.96490(13) 0.79301(11)
C46_2 C 0.6575(3) 0.99331(13) 0.75093(11)
H24_2 H 0.6403 0.9725 0.7235
C48_2 C 0.6796(3) 0.90061(13) 0.79533(11)
C49_2 C 0.6758(4) 0.87085(14) 0.83465(12)
H26_2 H 0.6755 0.8911 0.8610
C50_2 C 0.6723(4) 0.81142(14) 0.83458(12)
H27_2 H 0.6686 0.7927 0.8612
C51_2 C 0.6793(4) 0.80789(14) 0.76064(12)
H28_2 H 0.6816 0.7865 0.7350
C52_2 C 0.6815(4) 0.86704(14) 0.75770(12)
H29_2 H 0.6842 0.8846 0.7305
O22_2 O 0.7362(2) 0.93382(11) 0.53058(8)
H47_2 H 0.7361 0.9246 0.5035
H48_2 H 0.6490 0.9344 0.5266
N2_3 N 0.0922(3) 0.52620(13) 0.37517(9)
O3_2 O 0.4075(2) 0.31571(10) 0.27435(7)
O4_2 O 0.5862(2) 0.31623(10) 0.33891(7)
O5_2 O 0.3699(3) 0.44471(14) 0.50188(15)
O6_3 O 0.1468(3) 0.44531(11) 0.46156(8)
O8_2 O 0.1170(4) 0.44796(13) 0.55620(11)
O11_2 O 0.0936(2) 0.30243(10) 0.20415(7)
O12_2 O 0.1105(2) 0.32480(10) 0.13623(7)
O17_3 O 0.3854(2) 0.32442(11) 0.46747(7)
O19_3 O 0.3529(3) 0.57875(15) 0.45183(11)
H1_3 H 0.4055 0.5509 0.4607
C2_3 C 0.1262(3) 0.31892(13) 0.34979(10)
C3_3 C 0.2145(3) 0.31904(13) 0.32344(10)
H2_3 H 0.1777 0.3185 0.2911
C4_3 C 0.3594(3) 0.31999(13) 0.34556(10)
C5_3 C 0.4134(3) 0.32237(14) 0.39376(10)
H3_3 H 0.5096 0.3239 0.4086
C6_3 C 0.3238(3) 0.32239(14) 0.41980(10)
C7_3 C 0.1802(3) 0.31983(14) 0.39811(10)
H4_3 H 0.1205 0.3187 0.4157
C8_3 C 0.4573(3) 0.31724(12) 0.31777(10)
C9_3 C 0.2987(3) 0.31558(15) 0.49450(10)
C10_2 C 0.2822(4) 0.25988(16) 0.50764(12)
H5_3 H 0.3272 0.2294 0.4985
C11_2 C 0.1975(4) 0.24994(16) 0.53465(13)
H6_2 H 0.1865 0.2127 0.5444
C12_2 C 0.1296(4) 0.29566(16) 0.54696(11)
H7_2 H 0.0714 0.2888 0.5646
C13_2 C 0.1462(3) 0.35135(15) 0.53371(10)
C14_2 C 0.2337(3) 0.36241(14) 0.50722(10)
C15_3 C 0.2539(4) 0.42186(16) 0.48955(13)
C16_2 C 0.0664(4) 0.39889(18) 0.54784(11)
C24_3 C 0.0383(3) 0.31104(13) 0.16137(11)
C38_3 C 0.0109(3) 0.51758(14) 0.27749(11)
C39_3 C 0.0488(4) 0.46949(16) 0.30597(12)
H18_3 H 0.0476 0.4331 0.2929
C40_3 C 0.0884(4) 0.47551(16) 0.35372(12)
H19_3 H 0.1138 0.4425 0.3720
C41_3 C 0.0546(4) 0.57219(15) 0.34752(11)
H20_3 H 0.0540 0.6079 0.3614
C42_3 C 0.0163(4) 0.57024(15) 0.29961(11)
C63_3 C 0.3532(5) 0.6376(2) 0.43353(18)
H38_3 H 0.4094 0.6625 0.4582
H39_3 H 0.2584 0.6526 0.4229
C64_3 C 0.4094(7) 0.6379(3) 0.3949(2)
H40_3 H 0.4100 0.5993 0.3836
H41_3 H 0.3520 0.6620 0.3703
H42_3 H 0.5032 0.6528 0.4056
O20_2 O 0.2283(3) 0.54423(13) 0.52911(9)
H43_2 H 0.2045 0.5140 0.5404
H44_2 H 0.2173 0.5737 0.5442
O21_3 O 0.0373(2) 0.42043(11) 0.07023(8)
H45_3 H 0.0450 0.3941 0.0904
H46_3 H 0.1184 0.4260 0.0684
Mn5_2 Mn 0.69608(4) 0.317770(18) 0.288593(15)
Mn6 Mn 0.31173(4) 0.317994(18) 0.200815(15)
N1_3 N 0.8996(3) 0.50378(12) 0.12904(9)
N3_3 N 0.6831(3) 0.41469(11) 0.28833(9)
N4_2 N 0.6741(3) 0.72081(11) 0.29834(9)
N5_3 N 0.6977(3) 0.22089(11) 0.28512(9)
O1_3 O 0.9183(2) 0.31897(11) 0.28349(7)
O2_3 O 0.8922(2) 0.31794(10) 0.35189(7)
O9_3 O 0.6007(2) 0.31811(10) 0.21469(7)
O10_3 O 0.4221(2) 0.32087(9) 0.14989(7)
O13_3 O 0.7168(2) 0.43114(10) 0.04651(8)
O18_3 O 0.6209(2) 0.29620(10) 0.02177(7)
C1_3 C 0.9692(3) 0.31853(13) 0.32702(10)
C17_3 C 0.5518(3) 0.31673(12) 0.17133(10)
C18_3 C 0.6495(3) 0.30945(12) 0.14370(10)
C19_3 C 0.7939(3) 0.30977(12) 0.16589(10)
H8_3 H 0.8308 0.3125 0.1981
C20_3 C 0.8818(3) 0.30594(13) 0.13922(10)
C21_3 C 0.8277(3) 0.30137(13) 0.09109(10)
H9_3 H 0.8873 0.2990 0.0735
C22_3 C 0.6828(3) 0.30039(13) 0.06944(10)
C23_3 C 0.5951(3) 0.30436(13) 0.09559(10)
H10_3 H 0.4987 0.3036 0.0810
C32_3 C 0.6613(3) 0.41119(15) 0.00598(12)
C33_3 C 0.8985(4) 0.45801(15) 0.15535(12)
H14_3 H 0.8731 0.4225 0.1407
C34_3 C 0.9329(4) 0.46035(15) 0.20296(11)
H15_3 H 0.9325 0.4269 0.2198
C35_3 C 0.9681(3) 0.51295(14) 0.22573(11)
C36_3 C 0.9644(3) 0.56072(15) 0.19821(11)
H16_3 H 0.9833 0.5972 0.2116
C37_3 C 0.9326(4) 0.55412(15) 0.15066(11)
H17_3 H 0.9345 0.5866 0.1329
H21_3 H 0.9944 0.6041 0.2823
C43_3 C 0.7055(4) 0.44263(15) 0.32863(12)
H22_3 H 0.7214 0.4208 0.3556
C44_3 C 0.7062(4) 0.50168(15) 0.33241(12)
H23_3 H 0.7237 0.5190 0.3614
C45_3 C 0.6809(3) 0.53510(13) 0.29301(11)
C46_3 C 0.6575(3) 0.50669(13) 0.25093(11)
H24_3 H 0.6403 0.5275 0.2235
C47_3 C 0.6600(3) 0.44725(13) 0.25032(11)
H25_3 H 0.6449 0.4288 0.2219
C48_3 C 0.6796(3) 0.59939(13) 0.29533(11)
C49_3 C 0.6758(4) 0.62915(14) 0.33465(12)
H26_3 H 0.6755 0.6089 0.3610
C50_3 C 0.6723(4) 0.68858(14) 0.33458(12)
H27_3 H 0.6686 0.7073 0.3612
C51_3 C 0.6793(4) 0.69211(14) 0.26064(12)
H28_3 H 0.6816 0.7135 0.2350
C52_3 C 0.6815(4) 0.63296(14) 0.25770(12)
H29_3 H 0.6842 0.6154 0.2305
C53_3 C 0.6834(4) 0.18978(14) 0.24727(12)
H30_3 H 0.6733 0.2092 0.2196
C54_3 C 0.6826(4) 0.13022(14) 0.24657(12)
H31_3 H 0.6718 0.1107 0.2189
C55_3 C 0.6978(3) 0.09938(14) 0.28689(11)
C56_3 C 0.7163(5) 0.13234(16) 0.32617(13)
H32_3 H 0.7301 0.1142 0.3546
C57_3 C 0.7149(5) 0.19123(16) 0.32408(13)
H33_3 H 0.7265 0.2117 0.3514
C58_3 C 0.6955(3) 0.03524(14) 0.28804(11)
C59_3 C 0.6826(4) 0.00207(14) 0.24898(12)
H34_3 H 0.6755 0.0198 0.2209
C62_3 C 0.7043(4) 0.00594(15) 0.32828(12)
H37_3 H 0.7131 0.0262 0.3555
O22_3 O 0.7362(2) 0.56618(11) 0.03058(8)
H47_3 H 0.7361 0.5754 0.0035
H48_3 H 0.6490 0.5656 0.0266
Mn7 Mn 0.68827(4) 0.817994(18) 0.299185(15)
N7_2 N 0.3259(3) 0.22081(11) 0.20166(9)
N8_2 N 0.3119(3) 0.41453(11) 0.20911(9)
O14_3 O 0.5449(2) 0.42542(12) 0.97858(9)
O16_3 O 0.8431(2) 0.47737(10) 0.98026(7)
C25_3 C 0.7090(3) 0.30769(14) 0.99541(10)
C26_3 C 0.7630(4) 0.26219(15) 0.97794(11)
H11_3 H 0.7398 0.2244 0.9827
C27_3 C 0.8529(4) 0.27370(16) 0.95304(12)
H12_3 H 0.8890 0.2435 0.9403
C28_3 C 0.8889(3) 0.33000(15) 0.94720(11)
H13_3 H 0.9517 0.3373 0.9313
C29_3 C 0.8326(3) 0.37603(14) 0.96469(10)
C30_3 C 0.7380(3) 0.36497(14) 0.98879(10)
C31_3 C 0.8805(3) 0.43636(14) 0.95987(10)
N6_2 N 0.6881(3) 0.91453(11) 0.29089(9)
C60_3 C 0.6803(4) 0.94301(14) 0.25176(12)
H35_3 H 0.6729 0.9217 0.2251
C61_3 C 0.7002(4) 0.94666(15) 0.32818(12)
H36_3 H 0.7063 0.9279 0.3558
N1_4 N 0.1004(3) 0.00378(12) 0.37096(9)
C35_4 C 0.0319(3) 0.01295(14) 0.27427(11)
C36_4 C 0.0356(3) 0.06072(15) 0.30179(11)
H16_4 H 0.0167 0.0972 0.2884
C37_4 C 0.0674(4) 0.05412(15) 0.34934(11)
H17_4 H 0.0655 0.0866 0.3671
H21_4 H 0.0056 0.1041 0.2177
C44_4 C 0.2938(4) 0.00168(15) 0.16759(12)
H23_4 H 0.2763 0.0190 0.1386
C45_4 C 0.3191(3) 0.03510(13) 0.20699(11)
C46_4 C 0.3425(3) 0.00669(13) 0.24907(11)
H24_4 H 0.3597 0.0275 0.2765
C48_4 C 0.3204(3) 0.09939(13) 0.20467(11)
C49_4 C 0.3242(4) 0.12915(14) 0.16535(12)
H26_4 H 0.3245 0.1089 0.1390
C50_4 C 0.3277(4) 0.18858(14) 0.16542(12)
H27_4 H 0.3314 0.2073 0.1388
C51_4 C 0.3207(4) 0.19211(14) 0.23936(12)
H28_4 H 0.3184 0.2135 0.2650
C52_4 C 0.3185(4) 0.13296(14) 0.24230(12)
H29_4 H 0.3158 0.1154 0.2695
O22_4 O 0.2638(2) 0.06618(11) 0.46942(8)
H47_4 H 0.2639 0.0754 0.4965
H48_4 H 0.3510 0.0656 0.4734
Mn1_2 Mn 0.30392(4) 0.817770(18) 0.211407(15)
N3_4 N 0.3169(3) 0.91469(11) 0.21167(9)
N5_4 N 0.3023(3) 0.72089(11) 0.21488(9)
O1_4 O 0.0817(2) 0.81897(11) 0.21651(7)
O2_4 O 0.1078(2) 0.81794(10) 0.14811(7)
O9_4 O 0.3993(2) 0.81811(10) 0.28531(7)
O10_4 O 0.5779(2) 0.82087(9) 0.35011(7)
O13_4 O 0.2832(2) 0.93114(10) 0.45349(8)
O14_4 O 0.4551(2) 0.92542(12) 0.52142(9)
O16_4 O 0.1569(2) 0.97737(10) 0.51974(7)
O18_4 O 0.3791(2) 0.79620(10) 0.47823(7)
C1_4 C 0.0308(3) 0.81853(13) 0.17298(10)
C17_4 C 0.4482(3) 0.81673(12) 0.32867(10)
C18_4 C 0.3505(3) 0.80945(12) 0.35630(10)
C19_4 C 0.2061(3) 0.80977(12) 0.33411(10)
H8_4 H 0.1692 0.8125 0.3019
C20_4 C 0.1182(3) 0.80594(13) 0.36078(10)
C21_4 C 0.1723(3) 0.80137(13) 0.40891(10)
H9_4 H 0.1127 0.7990 0.4265
C22_4 C 0.3172(3) 0.80039(13) 0.43056(10)
C23_4 C 0.4049(3) 0.80436(13) 0.40441(10)
H10_4 H 0.5013 0.8036 0.4190
C25_4 C 0.2910(3) 0.80769(14) 0.50459(10)
C26_4 C 0.2370(4) 0.76219(15) 0.52206(11)
H11_4 H 0.2602 0.7244 0.5173
C27_4 C 0.1471(4) 0.77370(16) 0.54696(12)
H12_4 H 0.1110 0.7435 0.5597
C28_4 C 0.1111(3) 0.83000(15) 0.55280(11)
H13_4 H 0.0483 0.8373 0.5687
C29_4 C 0.1674(3) 0.87603(14) 0.53531(10)
C30_4 C 0.2620(3) 0.86497(14) 0.51121(10)
C31_4 C 0.1195(3) 0.93636(14) 0.54013(10)
C32_4 C 0.3387(3) 0.91119(15) 0.49402(12)
C33_4 C 0.1015(4) 0.95801(15) 0.34465(12)
H14_4 H 0.1269 0.9225 0.3593
C34_4 C 0.0671(4) 0.96035(15) 0.29704(11)
H15_4 H 0.0675 0.9269 0.2802
C43_4 C 0.2945(4) 0.94263(15) 0.17137(12)
H22_4 H 0.2786 0.9208 0.1444
C47_4 C 0.3400(3) 0.94725(13) 0.24968(11)
H25_4 H 0.3551 0.9288 0.2781
C53_4 C 0.3166(4) 0.68978(14) 0.25273(12)
H30_4 H 0.3267 0.7092 0.2804
C54_4 C 0.3174(4) 0.63022(14) 0.25343(12)
H31_4 H 0.3282 0.6107 0.2811
C55_4 C 0.3022(3) 0.59938(14) 0.21311(11)
C56_4 C 0.2837(5) 0.63234(16) 0.17383(13)
H32_4 H 0.2699 0.6142 0.1454
C57_4 C 0.2851(5) 0.69123(16) 0.17592(13)
H33_4 H 0.2735 0.7117 0.1486
C58_4 C 0.3045(3) 0.53524(14) 0.21196(11)
C59_4 C 0.3174(4) 0.50207(14) 0.25102(12)
H34_4 H 0.3245 0.5198 0.2791
C60_4 C 0.3197(4) 0.44301(14) 0.24824(12)
H35_4 H 0.3271 0.4217 0.2749
C61_4 C 0.2998(4) 0.44666(15) 0.17182(12)
H36_4 H 0.2937 0.4279 0.1442
C62_4 C 0.2957(4) 0.50594(15) 0.17172(12)
H37_4 H 0.2869 0.5262 0.1445
O23_2 O 0.5925(2) 0.81571(10) 0.22565(7)
O24_2 O 0.4138(2) 0.81623(10) 0.16109(7)
O26_2 O 0.9064(2) 0.80243(10) 0.29585(7)
O27_2 O 0.8895(2) 0.82480(10) 0.36377(7)
N2_4 N 0.9078(3) 0.02620(13) 0.12483(9)
O19_4 O 0.6471(3) 0.07875(15) 0.04817(11)
H1_4 H 0.5945 0.0509 0.0393
C38_4 C 0.9891(3) 0.01758(14) 0.22251(11)
C41_4 C 0.9454(4) 0.07219(15) 0.15248(11)
H20_4 H 0.9460 0.1079 0.1386
C42_4 C 0.9837(4) 0.07024(15) 0.20039(11)
C63_4 C 0.6468(5) 0.1376(2) 0.06647(18)
H38_4 H 0.5906 0.1625 0.0418
H39_4 H 0.7416 0.1526 0.0771
C64_4 C 0.5906(7) 0.1379(3) 0.1051(2)
H40_4 H 0.5900 0.0993 0.1164
H41_4 H 0.6480 0.1620 0.1297
H42_4 H 0.4968 0.1528 0.0944
O6_4 O 0.8532(3) 0.94531(11) 0.03844(8)
O17_4 O 0.6146(2) 0.82442(11) 0.03253(7)
C2_4 C 0.8738(3) 0.81892(13) 0.15021(10)
C3_4 C 0.7855(3) 0.81904(13) 0.17656(10)
H2_4 H 0.8223 0.8185 0.2089
C4_4 C 0.6406(3) 0.81999(13) 0.15444(10)
C5_4 C 0.5866(3) 0.82237(14) 0.10624(10)
H3_4 H 0.4904 0.8239 0.0914
C6_4 C 0.6762(3) 0.82239(14) 0.08020(10)
C7_4 C 0.8198(3) 0.81983(14) 0.10189(10)
H4_4 H 0.8795 0.8187 0.0843
C8_4 C 0.5427(3) 0.81724(12) 0.18223(10)
C9_4 C 0.7013(3) 0.81558(15) 0.00550(10)
H5_4 H 0.6728 0.7294 0.0015
C15_4 C 0.7461(4) 0.92186(16) 0.01045(13)
C24_4 C 0.9617(3) 0.81104(13) 0.33863(11)
C39_4 C 0.9512(4) 0.96949(16) 0.19403(12)
H18_4 H 0.9524 0.9331 0.2071
C40_4 C 0.9116(4) 0.97551(16) 0.14628(12)
H19_4 H 0.8862 0.9425 0.1280
O21_4 O 0.9627(2) 0.92043(11) 0.42977(8)
H45_4 H 0.9550 0.8941 0.4096
H46_4 H 0.8816 0.9260 0.4316
O5_3 O 0.3699(3) 0.05529(14) 0.00188(15)
O8_3 O 0.1170(4) 0.05204(13) 0.05620(11)
C10_3 C 0.2822(4) 0.24012(16) 0.00764(12)
C11_3 C 0.1975(4) 0.25006(16) 0.03465(13)
H6_3 H 0.1865 0.2873 0.0444
C12_3 C 0.1296(4) 0.20434(16) 0.04696(11)
H7_3 H 0.0714 0.2112 0.0646
C13_3 C 0.1462(3) 0.14865(15) 0.03371(10)
C14_3 C 0.2337(3) 0.13759(14) 0.00722(10)
C16_3 C 0.0664(4) 0.10111(18) 0.04784(11)
O20_3 O 0.2283(3) 0.95577(13) 0.02911(9)
H43_3 H 0.2045 0.9860 0.0404
H44_3 H 0.2173 0.9263 0.0442
O20_4 O 0.7717(3) 0.04423(13) 0.97089(9)
H43_4 H 0.7955 0.0140 0.9596
H44_4 H 0.7827 0.0737 0.9558
O5_4 O 0.6301(3) 0.94471(14) 0.99812(15)
O8_4 O 0.8830(4) 0.94796(13) 0.94380(11)
C10_4 C 0.7178(4) 0.75988(16) 0.99236(12)
C11_4 C 0.8025(4) 0.74994(16) 0.96535(13)
H6_4 H 0.8135 0.7127 0.9556
C12_4 C 0.8704(4) 0.79566(16) 0.95304(11)
H7_4 H 0.9286 0.7888 0.9354
C13_4 C 0.8538(3) 0.85135(15) 0.96629(10)
C14_4 C 0.7663(3) 0.86241(14) 0.99278(10)
C16_4 C 0.9336(4) 0.89889(18) 0.95216(11)
loop_
_geom_bond_atom_site_label_1
_geom_bond_atom_site_label_2
_geom_bond_site_symmetry_1
_geom_bond_site_symmetry_2
N6 C60 1_555 1_555
H35 C60 1_555 1_555
C61 N6 1_555 1_555
H36 C61 1_555 1_555
Mn8 N6 1_555 1_555
O15 C31 1_555 1_555
C26 C25 1_555 1_555
H11 C26 1_555 1_555
C27 C26 1_555 1_555
H12 C27 1_555 1_555
C28 C27 1_555 1_555
H13 C28 1_555 1_555
C29 C28 1_555 1_555
C30 C25 1_555 1_555
C31 O16 1_555 1_555
C29 C30 1_555 1_555
C29 C31 1_555 1_555
Mn1 N3 1_555 1_555
Mn2 O10 1_555 1_555
Mn4 N1 1_555 1_555
N1 C33 1_555 1_555
N3 C43 1_555 1_555
N4 C50 1_555 1_555
N5 Mn1 1_555 1_555
O1 Mn1 1_555 1_555
O2 Mn1 1_555 1_555
O9 Mn1 1_555 1_555
O10 C17 1_555 1_555
O13 Mn4 1_555 1_555
O18 C22 1_555 1_555
C1 O1 1_555 1_555
C17 O9 1_555 1_555
C18 C17 1_555 1_555
C19 C18 1_555 1_555
H8 C19 1_555 1_555
C20 C19 1_555 1_555
C21 C20 1_555 1_555
H9 C21 1_555 1_555
C22 C21 1_555 1_555
C23 C18 1_555 1_555
H10 C23 1_555 1_555
C32 O13 1_555 1_555
C33 H14 1_555 1_555
C34 C33 1_555 1_555
H15 C34 1_555 1_555
C35 C34 1_555 1_555
C36 C35 1_555 1_555
H16 C36 1_555 1_555
C37 N1 1_555 1_555
H17 C37 1_555 1_555
C43 H22 1_555 1_555
C44 C43 1_555 1_555
H23 C44 1_555 1_555
C45 C44 1_555 1_555
C46 C45 1_555 1_555
H24 C46 1_555 1_555
C47 N3 1_555 1_555
H25 C47 1_555 1_555
C48 C45 1_555 1_555
C49 C48 1_555 1_555
H26 C49 1_555 1_555
C50 C49 1_555 1_555
H27 C50 1_555 1_555
C51 N4 1_555 1_555
H28 C51 1_555 1_555
C52 C48 1_555 1_555
H29 C52 1_555 1_555
C53 N5 1_555 1_555
H30 C53 1_555 1_555
C54 C53 1_555 1_555
H31 C54 1_555 1_555
C55 C54 1_555 1_555
C56 C55 1_555 1_555
H32 C56 1_555 1_555
C57 N5 1_555 1_555
H33 C57 1_555 1_555
C58 C55 1_555 1_555
C59 C58 1_555 1_555
H34 C59 1_555 1_555
C62 C58 1_555 1_555
H37 C62 1_555 1_555
O22 Mn4 1_555 1_555
H47 O22 1_555 1_555
H48 O22 1_555 1_555
Mn8 N4 1_555 1_555
Mn9 O7 1_555 1_555
N7 Mn2 1_555 1_555
N8 Mn2 1_555 1_555
O23 Mn2 1_555 1_555
O24 Mn1 1_555 1_555
O26 Mn2 1_555 1_555
O27 Mn2 1_555 1_555
O2 C1 1_555 1_555
C22 C23 1_555 1_555
C36 C37 1_555 1_555
C46 C47 1_555 1_555
C51 C52 1_555 1_555
C56 C57 1_555 1_555
Mn3 N2 1_555 1_555
N2 C40 1_555 1_555
O23 C8 1_555 1_555
O24 C8 1_555 1_555
O5 C15 1_555 1_555
O6 Mn3 1_555 1_555
O8 C16 1_555 1_555
O26 C24 1_555 1_555
O27 C24 1_555 1_555
O17 C6 1_555 1_555
O19 Mn3 1_555 1_555
H1 O19 1_555 1_555
C3 C2 1_555 1_555
H2 C3 1_555 1_555
C4 C3 1_555 1_555
C5 C4 1_555 1_555
H3 C5 1_555 1_555
C6 C5 1_555 1_555
C7 C2 1_555 1_555
H4 C7 1_555 1_555
C8 C4 1_555 1_555
C9 O17 1_555 1_555
C10 C9 1_555 1_555
H5 C10 1_555 1_555
C11 C10 1_555 1_555
H6 C11 1_555 1_555
C12 C11 1_555 1_555
H7 C12 1_555 1_555
C13 C12 1_555 1_555
C14 C9 1_555 1_555
C15 O6 1_555 1_555
C16 C13 1_555 1_555
C39 C38 1_555 1_555
H18 C39 1_555 1_555
C40 C39 1_555 1_555
H19 C40 1_555 1_555
C41 N2 1_555 1_555
H20 C41 1_555 1_555
C42 C38 1_555 1_555
C63 O19 1_555 1_555
H38 C63 1_555 1_555
H39 C63 1_555 1_555
C64 C63 1_555 1_555
H40 C64 1_555 1_555
H41 C64 1_555 1_555
H42 C64 1_555 1_555
O20 Mn3 1_555 1_555
H43 O20 1_555 1_555
H44 O20 1_555 1_555
H45 O21 1_555 1_555
H46 O21 1_555 1_555
O25 Mn3 1_555 1_555
C6 C7 1_555 1_555
C13 C14 1_555 1_555
C14 C15 1_555 1_555
C41 C42 1_555 1_555
O3 C8_2 1_555 1_555
O4 C8_2 1_555 1_555
O11 C24_2 1_555 1_555
O12 C24_2 1_555 1_555
O17_2 C6_2 1_555 1_555
C3_2 C2_2 1_555 1_555
H2_2 C3_2 1_555 1_555
C4_2 C3_2 1_555 1_555
C5_2 C4_2 1_555 1_555
H3_2 C5_2 1_555 1_555
C6_2 C5_2 1_555 1_555
C7_2 C2_2 1_555 1_555
H4_2 C7_2 1_555 1_555
C8_2 C4_2 1_555 1_555
C9_2 O17_2 1_555 1_555
C15_2 O6_2 1_555 1_555
H18_2 C39_2 1_555 1_555
C40_2 C39_2 1_555 1_555
H19_2 C40_2 1_555 1_555
H45_2 O21_2 1_555 1_555
H46_2 O21_2 1_555 1_555
Mn5 O4 1_555 1_555
Mn8 O3 1_555 1_555
O11 Mn8 1_555 1_555
O12 Mn8 1_555 1_555
C6_2 C7_2 1_555 1_555
Mn3_2 N2_2 1_555 1_555
O19_2 Mn3_2 1_555 1_555
H1_2 O19_2 1_555 1_555
C41_2 N2_2 1_555 1_555
H20_2 C41_2 1_555 1_555
C42_2 C38_2 1_555 1_555
C63_2 O19_2 1_555 1_555
H38_2 C63_2 1_555 1_555
H39_2 C63_2 1_555 1_555
C64_2 C63_2 1_555 1_555
H40_2 C64_2 1_555 1_555
H41_2 C64_2 1_555 1_555
H42_2 C64_2 1_555 1_555
O25_2 Mn3_2 1_555 1_555
C41_2 C42_2 1_555 1_555
Mn9_2 O7_2 1_555 1_555
Mn5 N3_2 1_555 1_555
Mn8 O10_2 1_555 1_555
N3_2 C43_2 1_555 1_555
N5_2 Mn5 1_555 1_555
N8 C60_2 1_555 1_555
O1_2 Mn5 1_555 1_555
O2_2 Mn5 1_555 1_555
O9_2 Mn5 1_555 1_555
O10_2 C17_2 1_555 1_555
O13_2 Mn4_2 1_555 1_555
O14_2 C32_2 1_555 1_555
O15_2 C31_2 1_555 1_555
O16_2 Mn4_2 1_555 1_555
O18_2 C22_2 1_555 1_555
C1_2 O1_2 1_555 1_555
C17_2 O9_2 1_555 1_555
C18_2 C17_2 1_555 1_555
C19_2 C18_2 1_555 1_555
H8_2 C19_2 1_555 1_555
C20_2 C19_2 1_555 1_555
C21_2 C20_2 1_555 1_555
H9_2 C21_2 1_555 1_555
C22_2 C21_2 1_555 1_555
C23_2 C18_2 1_555 1_555
H10_2 C23_2 1_555 1_555
C25_2 O18_2 1_555 1_555
C26_2 C25_2 1_555 1_555
H11_2 C26_2 1_555 1_555
C27_2 C26_2 1_555 1_555
H12_2 C27_2 1_555 1_555
C28_2 C27_2 1_555 1_555
H13_2 C28_2 1_555 1_555
C29_2 C28_2 1_555 1_555
C30_2 C25_2 1_555 1_555
C31_2 O16_2 1_555 1_555
C32_2 O13_2 1_555 1_555
C33_2 H14_2 1_555 1_555
C34_2 C33_2 1_555 1_555
H15_2 C34_2 1_555 1_555
C43_2 H22_2 1_555 1_555
C47_2 N3_2 1_555 1_555
H25_2 C47_2 1_555 1_555
C53_2 N5_2 1_555 1_555
H30_2 C53_2 1_555 1_555
C54_2 C53_2 1_555 1_555
H31_2 C54_2 1_555 1_555
C55_2 C54_2 1_555 1_555
C56_2 C55_2 1_555 1_555
H32_2 C56_2 1_555 1_555
C57_2 N5_2 1_555 1_555
H33_2 C57_2 1_555 1_555
C58_2 C55_2 1_555 1_555
C59_2 C58_2 1_555 1_555
H34_2 C59_2 1_555 1_555
C60_2 C59_2 1_555 1_555
H35_2 C60_2 1_555 1_555
C61_2 N8 1_555 1_555
H36_2 C61_2 1_555 1_555
C62_2 C58_2 1_555 1_555
H37_2 C62_2 1_555 1_555
O2_2 C1_2 1_555 1_555
C22_2 C23_2 1_555 1_555
C29_2 C30_2 1_555 1_555
C29_2 C31_2 1_555 1_555
C30_2 C32_2 1_555 1_555
C56_2 C57_2 1_555 1_555
C61_2 C62_2 1_555 1_555
N7 C50_2 1_555 1_555
C36_2 C35_2 1_555 1_555
H16_2 C36_2 1_555 1_555
C37_2 N1_2 1_555 1_555
H17_2 C37_2 1_555 1_555
H23_2 C44_2 1_555 1_555
C45_2 C44_2 1_555 1_555
C46_2 C45_2 1_555 1_555
H24_2 C46_2 1_555 1_555
C48_2 C45_2 1_555 1_555
C49_2 C48_2 1_555 1_555
H26_2 C49_2 1_555 1_555
C50_2 C49_2 1_555 1_555
H27_2 C50_2 1_555 1_555
C51_2 N7 1_555 1_555
H28_2 C51_2 1_555 1_555
C52_2 C48_2 1_555 1_555
H29_2 C52_2 1_555 1_555
H47_2 O22_2 1_555 1_555
H48_2 O22_2 1_555 1_555
C36_2 C37_2 1_555 1_555
C51_2 C52_2 1_555 1_555
Mn9 N2_3 1_555 1_555
N2_3 C40_3 1_555 1_555
O3_2 C8_3 1_555 1_555
O4_2 C8_3 1_555 1_555
O5_2 C15_3 1_555 1_555
O6_3 Mn9 1_555 1_555
O8_2 C16_2 1_555 1_555
O11_2 C24_3 1_555 1_555
O12_2 C24_3 1_555 1_555
O17_3 C6_3 1_555 1_555
O19_3 Mn9 1_555 1_555
H1_3 O19_3 1_555 1_555
C3_3 C2_3 1_555 1_555
H2_3 C3_3 1_555 1_555
C4_3 C3_3 1_555 1_555
C5_3 C4_3 1_555 1_555
H3_3 C5_3 1_555 1_555
C6_3 C5_3 1_555 1_555
C7_3 C2_3 1_555 1_555
H4_3 C7_3 1_555 1_555
C8_3 C4_3 1_555 1_555
C9_3 O17_3 1_555 1_555
C10_2 C9_3 1_555 1_555
H5_3 C10_2 1_555 1_555
C11_2 C10_2 1_555 1_555
H6_2 C11_2 1_555 1_555
C12_2 C11_2 1_555 1_555
H7_2 C12_2 1_555 1_555
C13_2 C12_2 1_555 1_555
C14_2 C9_3 1_555 1_555
C15_3 O6_3 1_555 1_555
C16_2 C13_2 1_555 1_555
C39_3 C38_3 1_555 1_555
H18_3 C39_3 1_555 1_555
C40_3 C39_3 1_555 1_555
H19_3 C40_3 1_555 1_555
C41_3 N2_3 1_555 1_555
H20_3 C41_3 1_555 1_555
C42_3 C38_3 1_555 1_555
C63_3 O19_3 1_555 1_555
H38_3 C63_3 1_555 1_555
H39_3 C63_3 1_555 1_555
C64_3 C63_3 1_555 1_555
H40_3 C64_3 1_555 1_555
H41_3 C64_3 1_555 1_555
H42_3 C64_3 1_555 1_555
O20_2 Mn9 1_555 1_555
H43_2 O20_2 1_555 1_555
H44_2 O20_2 1_555 1_555
H45_3 O21_3 1_555 1_555
H46_3 O21_3 1_555 1_555
Mn5_2 O4_2 1_555 1_555
Mn6 O3_2 1_555 1_555
O11_2 Mn6 1_555 1_555
O12_2 Mn6 1_555 1_555
C6_3 C7_3 1_555 1_555
C13_2 C14_2 1_555 1_555
C14_2 C15_3 1_555 1_555
C41_3 C42_3 1_555 1_555
Mn5_2 N3_3 1_555 1_555
Mn6 O10_3 1_555 1_555
Mn10 N1_3 1_555 1_555
N1_3 C33_3 1_555 1_555
N3_3 C43_3 1_555 1_555
N4_2 C50_3 1_555 1_555
N5_3 Mn5_2 1_555 1_555
O1_3 Mn5_2 1_555 1_555
O2_3 Mn5_2 1_555 1_555
O9_3 Mn5_2 1_555 1_555
O10_3 C17_3 1_555 1_555
O13_3 Mn10 1_555 1_555
O18_3 C22_3 1_555 1_555
C1_3 O1_3 1_555 1_555
C17_3 O9_3 1_555 1_555
C18_3 C17_3 1_555 1_555
C19_3 C18_3 1_555 1_555
H8_3 C19_3 1_555 1_555
C20_3 C19_3 1_555 1_555
C21_3 C20_3 1_555 1_555
H9_3 C21_3 1_555 1_555
C22_3 C21_3 1_555 1_555
C23_3 C18_3 1_555 1_555
H10_3 C23_3 1_555 1_555
C32_3 O13_3 1_555 1_555
C33_3 H14_3 1_555 1_555
C34_3 C33_3 1_555 1_555
H15_3 C34_3 1_555 1_555
C35_3 C34_3 1_555 1_555
C36_3 C35_3 1_555 1_555
H16_3 C36_3 1_555 1_555
C37_3 N1_3 1_555 1_555
H17_3 C37_3 1_555 1_555
C43_3 H22_3 1_555 1_555
C44_3 C43_3 1_555 1_555
H23_3 C44_3 1_555 1_555
C45_3 C44_3 1_555 1_555
C46_3 C45_3 1_555 1_555
H24_3 C46_3 1_555 1_555
C47_3 N3_3 1_555 1_555
H25_3 C47_3 1_555 1_555
C48_3 C45_3 1_555 1_555
C49_3 C48_3 1_555 1_555
H26_3 C49_3 1_555 1_555
C50_3 C49_3 1_555 1_555
H27_3 C50_3 1_555 1_555
C51_3 N4_2 1_555 1_555
H28_3 C51_3 1_555 1_555
C52_3 C48_3 1_555 1_555
H29_3 C52_3 1_555 1_555
C53_3 N5_3 1_555 1_555
H30_3 C53_3 1_555 1_555
C54_3 C53_3 1_555 1_555
H31_3 C54_3 1_555 1_555
C55_3 C54_3 1_555 1_555
C56_3 C55_3 1_555 1_555
H32_3 C56_3 1_555 1_555
C57_3 N5_3 1_555 1_555
H33_3 C57_3 1_555 1_555
C58_3 C55_3 1_555 1_555
C59_3 C58_3 1_555 1_555
H34_3 C59_3 1_555 1_555
C62_3 C58_3 1_555 1_555
H37_3 C62_3 1_555 1_555
O22_3 Mn10 1_555 1_555
H47_3 O22_3 1_555 1_555
H48_3 O22_3 1_555 1_555
Mn7 N4_2 1_555 1_555
N7_2 Mn6 1_555 1_555
N8_2 Mn6 1_555 1_555
O2_3 C1_3 1_555 1_555
C22_3 C23_3 1_555 1_555
C36_3 C37_3 1_555 1_555
C46_3 C47_3 1_555 1_555
C51_3 C52_3 1_555 1_555
C56_3 C57_3 1_555 1_555
O28 C31_3 1_555 1_555
C26_3 C25_3 1_555 1_555
H11_3 C26_3 1_555 1_555
C27_3 C26_3 1_555 1_555
H12_3 C27_3 1_555 1_555
C28_3 C27_3 1_555 1_555
H13_3 C28_3 1_555 1_555
C29_3 C28_3 1_555 1_555
C30_3 C25_3 1_555 1_555
C31_3 O16_3 1_555 1_555
C29_3 C30_3 1_555 1_555
C29_3 C31_3 1_555 1_555
N6_2 C60_3 1_555 1_555
H35_3 C60_3 1_555 1_555
C61_3 N6_2 1_555 1_555
H36_3 C61_3 1_555 1_555
Mn7 N6_2 1_555 1_555
N7_2 C50_4 1_555 1_555
C36_4 C35_4 1_555 1_555
H16_4 C36_4 1_555 1_555
C37_4 N1_4 1_555 1_555
H17_4 C37_4 1_555 1_555
H23_4 C44_4 1_555 1_555
C45_4 C44_4 1_555 1_555
C46_4 C45_4 1_555 1_555
H24_4 C46_4 1_555 1_555
C48_4 C45_4 1_555 1_555
C49_4 C48_4 1_555 1_555
H26_4 C49_4 1_555 1_555
C50_4 C49_4 1_555 1_555
H27_4 C50_4 1_555 1_555
C51_4 N7_2 1_555 1_555
H28_4 C51_4 1_555 1_555
C52_4 C48_4 1_555 1_555
H29_4 C52_4 1_555 1_555
H47_4 O22_4 1_555 1_555
H48_4 O22_4 1_555 1_555
C36_4 C37_4 1_555 1_555
C51_4 C52_4 1_555 1_555
Mn1_2 N3_4 1_555 1_555
Mn7 O10_4 1_555 1_555
N3_4 C43_4 1_555 1_555
N5_4 Mn1_2 1_555 1_555
N8_2 C60_4 1_555 1_555
O1_4 Mn1_2 1_555 1_555
O2_4 Mn1_2 1_555 1_555
O9_4 Mn1_2 1_555 1_555
O10_4 C17_4 1_555 1_555
O13_4 Mn10_2 1_555 1_555
O14_4 C32_4 1_555 1_555
O28_2 C31_4 1_555 1_555
O16_4 Mn10_2 1_555 1_555
O18_4 C22_4 1_555 1_555
C1_4 O1_4 1_555 1_555
C17_4 O9_4 1_555 1_555
C18_4 C17_4 1_555 1_555
C19_4 C18_4 1_555 1_555
H8_4 C19_4 1_555 1_555
C20_4 C19_4 1_555 1_555
C21_4 C20_4 1_555 1_555
H9_4 C21_4 1_555 1_555
C22_4 C21_4 1_555 1_555
C23_4 C18_4 1_555 1_555
H10_4 C23_4 1_555 1_555
C25_4 O18_4 1_555 1_555
C26_4 C25_4 1_555 1_555
H11_4 C26_4 1_555 1_555
C27_4 C26_4 1_555 1_555
H12_4 C27_4 1_555 1_555
C28_4 C27_4 1_555 1_555
H13_4 C28_4 1_555 1_555
C29_4 C28_4 1_555 1_555
C30_4 C25_4 1_555 1_555
C31_4 O16_4 1_555 1_555
C32_4 O13_4 1_555 1_555
C33_4 H14_4 1_555 1_555
C34_4 C33_4 1_555 1_555
H15_4 C34_4 1_555 1_555
C43_4 H22_4 1_555 1_555
C47_4 N3_4 1_555 1_555
H25_4 C47_4 1_555 1_555
C53_4 N5_4 1_555 1_555
H30_4 C53_4 1_555 1_555
C54_4 C53_4 1_555 1_555
H31_4 C54_4 1_555 1_555
C55_4 C54_4 1_555 1_555
C56_4 C55_4 1_555 1_555
H32_4 C56_4 1_555 1_555
C57_4 N5_4 1_555 1_555
H33_4 C57_4 1_555 1_555
C58_4 C55_4 1_555 1_555
C59_4 C58_4 1_555 1_555
H34_4 C59_4 1_555 1_555
C60_4 C59_4 1_555 1_555
H35_4 C60_4 1_555 1_555
C61_4 N8_2 1_555 1_555
H36_4 C61_4 1_555 1_555
C62_4 C58_4 1_555 1_555
H37_4 C62_4 1_555 1_555
O23_2 Mn7 1_555 1_555
O24_2 Mn1_2 1_555 1_555
O26_2 Mn7 1_555 1_555
O27_2 Mn7 1_555 1_555
O2_4 C1_4 1_555 1_555
C22_4 C23_4 1_555 1_555
C29_4 C30_4 1_555 1_555
C29_4 C31_4 1_555 1_555
C30_4 C32_4 1_555 1_555
C56_4 C57_4 1_555 1_555
C61_4 C62_4 1_555 1_555
Mn9_2 N2_4 1_555 1_555
O19_4 Mn9_2 1_555 1_555
H1_4 O19_4 1_555 1_555
C41_4 N2_4 1_555 1_555
H20_4 C41_4 1_555 1_555
C42_4 C38_4 1_555 1_555
C63_4 O19_4 1_555 1_555
H38_4 C63_4 1_555 1_555
H39_4 C63_4 1_555 1_555
C64_4 C63_4 1_555 1_555
H40_4 C64_4 1_555 1_555
H41_4 C64_4 1_555 1_555
H42_4 C64_4 1_555 1_555
C41_4 C42_4 1_555 1_555
O23_2 C8_4 1_555 1_555
O24_2 C8_4 1_555 1_555
O26_2 C24_4 1_555 1_555
O27_2 C24_4 1_555 1_555
O17_4 C6_4 1_555 1_555
C3_4 C2_4 1_555 1_555
H2_4 C3_4 1_555 1_555
C4_4 C3_4 1_555 1_555
C5_4 C4_4 1_555 1_555
H3_4 C5_4 1_555 1_555
C6_4 C5_4 1_555 1_555
C7_4 C2_4 1_555 1_555
H4_4 C7_4 1_555 1_555
C8_4 C4_4 1_555 1_555
C9_4 O17_4 1_555 1_555
C15_4 O6_4 1_555 1_555
H18_4 C39_4 1_555 1_555
C40_4 C39_4 1_555 1_555
H19_4 C40_4 1_555 1_555
H45_4 O21_4 1_555 1_555
H46_4 O21_4 1_555 1_555
C6_4 C7_4 1_555 1_555
O8_3 C16_3 1_555 1_555
C11_3 C10_3 1_555 1_555
H6_3 C11_3 1_555 1_555
C12_3 C11_3 1_555 1_555
H7_3 C12_3 1_555 1_555
C13_3 C12_3 1_555 1_555
C16_3 C13_3 1_555 1_555
C13_3 C14_3 1_555 1_555
H43_3 O20_3 1_555 1_555
H44_3 O20_3 1_555 1_555
H43_4 O20_4 1_555 1_555
H44_4 O20_4 1_555 1_555
O8_4 C16_4 1_555 1_555
C11_4 C10_4 1_555 1_555
H6_4 C11_4 1_555 1_555
C12_4 C11_4 1_555 1_555
H7_4 C12_4 1_555 1_555
C13_4 C12_4 1_555 1_555
C16_4 C13_4 1_555 1_555
C13_4 C14_4 1_555 1_555

#END
