
###############################################################################
#
# This file contains modified crystal structure data generated from the
# MOF subset of the Cambridge Structural Database (CSD) v543 
# hosted by the Cambridge Crystallographic Data Centre (CCDC).
#
# This work is licensed under the Creative Commons
# Attribution-NonCommercial-ShareAlike 4.0 International License.
# To view a copy of this license, visit
# http://creativecommons.org/licenses/by-nc-sa/4.0/
# or send a letter to
# Creative Commons, PO Box 1866, Mountain View, CA 94042, USA.
#
# CIF created using the CSD Python API on 29 September 2022
# The structure has been converted into the P1 space group
# The structure has a 3D framework
# The original CSD entry ACAJOF is in the orthorhombic crystal system
# The framework has been calculated to contain at least 10.0% void space
# The void calculation uses a probe of radius 1.32A, grid spacing 0.4
#
###############################################################################

data_ACAJOF
_chemical_formula_moiety         '(C92 H104 Cu7 N8 O26)n'
_symmetry_cell_setting           triclinic
_symmetry_space_group_name_H-M   'P 1'
_symmetry_Int_Tables_number      1
_space_group_name_Hall           'P 1'
loop_
_symmetry_equiv_pos_site_id
_symmetry_equiv_pos_as_xyz
1 x,y,z
_cell_length_a                   13.042(3)
_cell_length_b                   28.201(6)
_cell_length_c                   8.6770(17)
_cell_angle_alpha                90
_cell_angle_beta                 90
_cell_angle_gamma                90
_cell_volume                     3191.38
loop_
_atom_site_label
_atom_site_type_symbol
_atom_site_fract_x
_atom_site_fract_y
_atom_site_fract_z
Cu1 Cu 0.04656(3) 0.538769(15) 0.05074(5)
N1 N 0.1097(2) 0.59747(10) 0.1822(4)
H3 H 0.3576 0.4382 0.0862
H4 H 0.3721 0.4876 0.0058
C6 C 0.2039(3) 0.59660(14) 0.2425(5)
H7 H 0.2470 0.5717 0.2151
C7 C 0.2411(3) 0.63044(14) 0.3433(5)
H8 H 0.3075 0.6281 0.3816
C8 C 0.1791(3) 0.66750(13) 0.3861(4)
C9 C 0.0804(3) 0.66883(14) 0.3254(6)
H9 H 0.0357 0.6932 0.3519
C10 C 0.0500(3) 0.63370(15) 0.2258(6)
C11 C 0.2153(4) 0.70734(14) 0.4893(5)
H11 H 0.2718 0.6963 0.5525
H12 H 0.1599 0.7168 0.5574
C12 C 0.2500 0.7500 0.3945(7)
H13 H 0.3061 0.7402 0.3285
Cu5 Cu 0.45344(3) 0.961231(15) 0.05074(5)
O8 O 0.04032(19) 0.50076(10) 0.2423(3)
N2 N 0.3903(2) 0.90253(10) 0.1822(4)
C18 C 0.2961(3) 0.90340(14) 0.2425(5)
H20 H 0.2530 0.9283 0.2151
C19 C 0.2589(3) 0.86956(14) 0.3433(5)
H21 H 0.1925 0.8719 0.3816
C20 C 0.3209(3) 0.83250(13) 0.3861(4)
C21 C 0.4196(3) 0.83117(14) 0.3254(6)
H22 H 0.4643 0.8068 0.3519
C22 C 0.4500(3) 0.86630(15) 0.2258(6)
H23 H 0.5162 0.8648 0.1862
C23 C 0.2847(4) 0.79266(14) 0.4893(5)
H24 H 0.2282 0.8037 0.5525
H25 H 0.3401 0.7832 0.5574
H26 H 0.1939 0.7598 0.3285
O1 O 0.17531(18) 0.50574(10) 0.9942(3)
O2 O 0.09599(19) 0.44026(10) 0.9151(3)
O3 O 0.45968(19) 0.50076(10) 0.7423(3)
O4 O 0.5360(2) 0.43513(10) 0.6601(3)
C1 C 0.1748(3) 0.46516(13) 0.9380(4)
C2 C 0.2756(3) 0.44378(15) 0.8859(5)
H1 H 0.2670 0.4097 0.8784
H2 H 0.2906 0.4555 0.7832
C3 C 0.3672(3) 0.45370(15) 0.9875(5)
C4 C 0.4681(3) 0.43603(16) 0.9139(5)
H5 H 0.5245 0.4426 0.9836
H6 H 0.4642 0.4019 0.9001
C5 C 0.4896(3) 0.45900(14) 0.7606(4)
Cu3 Cu 0.45344(3) 0.538769(15) 0.55074(5)
Cu4 Cu 0.54656(3) 0.461231(15) 0.44926(5)
O11 O 0.0360(2) 0.56487(10) 0.8399(3)
H10 H 0.9838 0.6352 0.1862
O5 O 0.82469(18) 0.49426(10) 0.0058(3)
O6 O 0.90401(19) 0.55974(10) 0.0849(3)
O7 O 0.54032(19) 0.49924(10) 0.2577(3)
O10 O 0.4640(2) 0.56487(10) 0.3399(3)
O12 O 0.9640(2) 0.43513(10) 0.1601(3)
C13 C 0.8252(3) 0.53484(13) 0.0620(4)
C14 C 0.7244(3) 0.55622(15) 0.1141(5)
H14 H 0.7330 0.5903 0.1216
H15 H 0.7094 0.5445 0.2168
C15 C 0.6328(3) 0.54630(15) 0.0125(5)
C16 C 0.5319(3) 0.56397(16) 0.0861(5)
H18 H 0.4755 0.5574 0.0164
H19 H 0.5358 0.5981 0.0999
C17 C 0.5104(3) 0.54100(14) 0.2394(4)
Cu2 Cu 0.95344(3) 0.461231(15) 0.94926(5)
O9 O 0.95968(19) 0.49924(10) 0.7577(3)
N3 N 0.8903(2) 0.40253(10) 0.8178(4)
H16 H 0.6424 0.5618 0.9138
H17 H 0.6279 0.5124 0.9942
Cu7 Cu 0.04656(3) 0.961231(15) 0.55074(5)
O10_2 O 0.0360(2) 0.93513(10) 0.3399(3)
H18_2 H 0.0245 0.9426 0.0164
H3_2 H 0.1424 0.0618 0.0862
H4_2 H 0.1279 0.0124 0.0058
Cu6 Cu 0.95344(3) 0.038769(15) 0.44926(5)
O5_2 O 0.67531(18) 0.00574(10) 0.0058(3)
O7_2 O 0.95968(19) 0.00076(10) 0.2577(3)
O12_2 O 0.5360(2) 0.06487(10) 0.1601(3)
O2_2 O 0.40401(19) 0.05974(10) 0.9151(3)
C1_2 C 0.3252(3) 0.03484(13) 0.9380(4)
C2_2 C 0.2244(3) 0.05622(15) 0.8859(5)
H1_2 H 0.2330 0.0903 0.8784
H2_2 H 0.2094 0.0445 0.7832
C3_2 C 0.1328(3) 0.04630(15) 0.9875(5)
C4_2 C 0.0319(3) 0.06397(16) 0.9139(5)
H6_2 H 0.0358 0.0981 0.9001
C5_2 C 0.0104(3) 0.04100(14) 0.7606(4)
Cu2_2 Cu 0.54656(3) 0.038769(15) 0.94926(5)
O9_2 O 0.54032(19) 0.00076(10) 0.7577(3)
N3_2 N 0.6097(2) 0.09747(10) 0.8178(4)
O6_2 O 0.59599(19) 0.94026(10) 0.0849(3)
O8_2 O 0.45968(19) 0.99924(10) 0.2423(3)
C13_2 C 0.6748(3) 0.96516(13) 0.0620(4)
C14_2 C 0.7756(3) 0.94378(15) 0.1141(5)
H14_2 H 0.7670 0.9097 0.1216
H15_2 H 0.7906 0.9555 0.2168
C15_2 C 0.8672(3) 0.95370(15) 0.0125(5)
C16_2 C 0.9681(3) 0.93603(16) 0.0861(5)
H19_2 H 0.9642 0.9019 0.0999
C17_2 C 0.9896(3) 0.95900(14) 0.2394(4)
O1_2 O 0.32469(18) 0.99426(10) 0.9942(3)
O3_2 O 0.04032(19) 0.99924(10) 0.7423(3)
O11_2 O 0.4640(2) 0.93513(10) 0.8399(3)
H16_2 H 0.8576 0.9382 0.9138
H17_2 H 0.8721 0.9876 0.9942
O4_2 O 0.9640(2) 0.06487(10) 0.6601(3)
H5_2 H 0.9755 0.0574 0.9836
H10_2 H 0.0162 0.1352 0.3138
O6_3 O 0.09599(19) 0.05974(10) 0.4151(3)
C13_3 C 0.1748(3) 0.03484(13) 0.4380(4)
C14_3 C 0.2756(3) 0.05622(15) 0.3859(5)
H14_3 H 0.2670 0.0903 0.3784
H15_3 H 0.2906 0.0445 0.2832
C15_3 C 0.3672(3) 0.04630(15) 0.4875(5)
H16_3 H 0.3576 0.0618 0.5862
H17_3 H 0.3721 0.0124 0.5058
C16_3 C 0.4681(3) 0.06397(16) 0.4139(5)
H18_3 H 0.5245 0.0574 0.4836
H19_3 H 0.4642 0.0981 0.4001
C17_3 C 0.4896(3) 0.04100(14) 0.2606(4)
O5_3 O 0.17531(18) 0.99426(10) 0.4942(3)
N3_3 N 0.1097(2) 0.90253(10) 0.6822(4)
O1_3 O 0.82469(18) 0.00574(10) 0.5058(3)
N1_2 N 0.8903(2) 0.09747(10) 0.3178(4)
C6_2 C 0.7961(3) 0.09660(14) 0.2575(5)
H7_2 H 0.7530 0.0717 0.2849
C7_2 C 0.7589(3) 0.13044(14) 0.1567(5)
H8_2 H 0.6925 0.1281 0.1184
C8_2 C 0.8209(3) 0.16750(13) 0.1139(4)
C9_2 C 0.9196(3) 0.16883(14) 0.1746(6)
H9_2 H 0.9643 0.1932 0.1481
C10_2 C 0.9500(3) 0.13370(15) 0.2742(6)
C11_2 C 0.7847(4) 0.20734(14) 0.0107(5)
C12_2 C 0.7500 0.2500 0.1055(7)
H13_2 H 0.6939 0.2402 0.1715
N2_2 N 0.6097(2) 0.40253(10) 0.3178(4)
C18_2 C 0.7039(3) 0.40340(14) 0.2575(5)
H20_2 H 0.7470 0.4283 0.2849
C19_2 C 0.7411(3) 0.36956(14) 0.1567(5)
H21_2 H 0.8075 0.3719 0.1184
C20_2 C 0.6791(3) 0.33250(13) 0.1139(4)
C21_2 C 0.5804(3) 0.33117(14) 0.1746(6)
H22_2 H 0.5357 0.3068 0.1481
C22_2 C 0.5500(3) 0.36630(15) 0.2742(6)
H23_2 H 0.4838 0.3648 0.3138
C23_2 C 0.7153(4) 0.29266(14) 0.0107(5)
H26_2 H 0.8061 0.2598 0.1715
O2_3 O 0.90401(19) 0.94026(10) 0.5849(3)
C1_3 C 0.8252(3) 0.96516(13) 0.5620(4)
C2_3 C 0.7244(3) 0.94378(15) 0.6141(5)
H1_3 H 0.7330 0.9097 0.6216
H2_3 H 0.7094 0.9555 0.7168
C3_3 C 0.6328(3) 0.95370(15) 0.5125(5)
H3_3 H 0.6424 0.9382 0.4138
H4_3 H 0.6279 0.9876 0.4942
C4_3 C 0.5319(3) 0.93603(16) 0.5861(5)
H5_3 H 0.4755 0.9426 0.5164
H6_3 H 0.5358 0.9019 0.5999
C5_3 C 0.5104(3) 0.95900(14) 0.7394(4)
H5_4 H 0.0245 0.5574 0.5164
O1_4 O 0.67531(18) 0.49426(10) 0.5058(3)
O2_4 O 0.59599(19) 0.55974(10) 0.5849(3)
C1_4 C 0.6748(3) 0.53484(13) 0.5620(4)
C2_4 C 0.7756(3) 0.55622(15) 0.6141(5)
H1_4 H 0.7670 0.5903 0.6216
H2_4 H 0.7906 0.5445 0.7168
C3_4 C 0.8672(3) 0.54630(15) 0.5125(5)
H3_4 H 0.8576 0.5618 0.4138
H4_4 H 0.8721 0.5124 0.4942
C4_4 C 0.9681(3) 0.56397(16) 0.5861(5)
H6_4 H 0.9642 0.5981 0.5999
C5_4 C 0.9896(3) 0.54100(14) 0.7394(4)
O5_4 O 0.32469(18) 0.50574(10) 0.4942(3)
O6_4 O 0.40401(19) 0.44026(10) 0.4151(3)
N3_4 N 0.3903(2) 0.59747(10) 0.6822(4)
C13_4 C 0.3252(3) 0.46516(13) 0.4380(4)
C14_4 C 0.2244(3) 0.44378(15) 0.3859(5)
H14_4 H 0.2330 0.4097 0.3784
H15_4 H 0.2094 0.4555 0.2832
C15_4 C 0.1328(3) 0.45370(15) 0.4875(5)
H16_4 H 0.1424 0.4382 0.5862
H17_4 H 0.1279 0.4876 0.5058
C16_4 C 0.0319(3) 0.43603(16) 0.4139(5)
H19_4 H 0.0358 0.4019 0.4001
C17_4 C 0.0104(3) 0.45900(14) 0.2606(4)
H18_4 H 0.9755 0.4426 0.4836
H10_3 H 0.0162 0.3648 0.8138
C6_3 C 0.7961(3) 0.40340(14) 0.7575(5)
H7_3 H 0.7530 0.4283 0.7849
C7_3 C 0.7589(3) 0.36956(14) 0.6567(5)
H8_3 H 0.6925 0.3719 0.6184
C8_3 C 0.8209(3) 0.33250(13) 0.6139(4)
C9_3 C 0.9196(3) 0.33117(14) 0.6746(6)
H9_3 H 0.9643 0.3068 0.6481
C10_3 C 0.9500(3) 0.36630(15) 0.7742(6)
C11_3 C 0.7847(4) 0.29266(14) 0.5107(5)
H11_2 H 0.7282 0.3037 0.4475
H12_2 H 0.8401 0.2832 0.4426
C12_3 C 0.7500 0.2500 0.6055(7)
H13_3 H 0.6939 0.2598 0.6715
C18_3 C 0.7039(3) 0.09660(14) 0.7575(5)
H20_3 H 0.7470 0.0717 0.7849
C19_3 C 0.7411(3) 0.13044(14) 0.6567(5)
H21_3 H 0.8075 0.1281 0.6184
C20_3 C 0.6791(3) 0.16750(13) 0.6139(4)
C21_3 C 0.5804(3) 0.16883(14) 0.6746(6)
H22_3 H 0.5357 0.1932 0.6481
C22_3 C 0.5500(3) 0.13370(15) 0.7742(6)
H23_3 H 0.4838 0.1352 0.8138
C23_3 C 0.7153(4) 0.20734(14) 0.5107(5)
H24_2 H 0.7718 0.1963 0.4475
H25_2 H 0.6599 0.2168 0.4426
H26_3 H 0.8061 0.2402 0.6715
C6_4 C 0.2039(3) 0.90340(14) 0.7425(5)
H7_4 H 0.2470 0.9283 0.7151
C7_4 C 0.2411(3) 0.86956(14) 0.8433(5)
H8_4 H 0.3075 0.8719 0.8816
C8_4 C 0.1791(3) 0.83250(13) 0.8861(4)
C9_4 C 0.0804(3) 0.83117(14) 0.8254(6)
H9_4 H 0.0357 0.8068 0.8519
C10_4 C 0.0500(3) 0.86630(15) 0.7258(6)
C11_4 C 0.2153(4) 0.79266(14) 0.9893(5)
C12_4 C 0.2500 0.7500 0.8945(7)
H13_4 H 0.3061 0.7598 0.8285
C18_4 C 0.2961(3) 0.59660(14) 0.7425(5)
H20_4 H 0.2530 0.5717 0.7151
C19_4 C 0.2589(3) 0.63044(14) 0.8433(5)
H21_4 H 0.1925 0.6281 0.8816
C20_4 C 0.3209(3) 0.66750(13) 0.8861(4)
C21_4 C 0.4196(3) 0.66883(14) 0.8254(6)
H22_4 H 0.4643 0.6932 0.8519
C22_4 C 0.4500(3) 0.63370(15) 0.7258(6)
H23_4 H 0.5162 0.6352 0.6862
C23_4 C 0.2847(4) 0.70734(14) 0.9893(5)
H26_4 H 0.1939 0.7402 0.8285
H10_4 H 0.9838 0.8648 0.6862
H11_3 H 0.7282 0.1963 0.9475
H12_3 H 0.8401 0.2168 0.9426
H24_3 H 0.7718 0.3037 0.9475
H25_3 H 0.6599 0.2832 0.9426
H11_4 H 0.2718 0.8037 0.0525
H12_4 H 0.1599 0.7832 0.0574
H24_4 H 0.2282 0.6963 0.0525
H25_4 H 0.3401 0.7168 0.0574
loop_
_geom_bond_atom_site_label_1
_geom_bond_atom_site_label_2
_geom_bond_site_symmetry_1
_geom_bond_site_symmetry_2
N1 Cu1 1_555 1_555
C6 N1 1_555 1_555
H7 C6 1_555 1_555
C7 C6 1_555 1_555
H8 C7 1_555 1_555
C8 C7 1_555 1_555
C9 C8 1_555 1_555
H9 C9 1_555 1_555
C10 N1 1_555 1_555
C11 C8 1_555 1_555
H11 C11 1_555 1_555
H12 C11 1_555 1_555
C12 C11 1_555 1_555
H13 C12 1_555 1_555
Cu5 N2 1_555 1_555
O8 Cu1 1_555 1_555
N2 C18 1_555 1_555
C18 H20 1_555 1_555
C19 C18 1_555 1_555
H21 C19 1_555 1_555
C20 C19 1_555 1_555
C21 C20 1_555 1_555
H22 C21 1_555 1_555
C22 N2 1_555 1_555
H23 C22 1_555 1_555
C23 C12 1_555 1_555
H24 C23 1_555 1_555
H25 C23 1_555 1_555
H26 C12 1_555 1_555
C9 C10 1_555 1_555
C20 C23 1_555 1_555
C21 C22 1_555 1_555
O1 C1 1_555 1_555
O2 C1 1_555 1_555
O3 C5 1_555 1_555
O4 C5 1_555 1_555
C1 C2 1_555 1_555
C2 H1 1_555 1_555
H2 C2 1_555 1_555
C3 C2 1_555 1_555
C4 C3 1_555 1_555
H5 C4 1_555 1_555
H6 C4 1_555 1_555
C5 C4 1_555 1_555
Cu3 O3 1_555 1_555
Cu4 O4 1_555 1_555
Cu4 O7 1_555 1_555
Cu3 O10 1_555 1_555
O7 C17 1_555 1_555
O10 C17 1_555 1_555
C13 O5 1_555 1_555
C14 C13 1_555 1_555
H14 C14 1_555 1_555
H15 C14 1_555 1_555
C15 C14 1_555 1_555
C16 C15 1_555 1_555
H18 C16 1_555 1_555
H19 C16 1_555 1_555
C17 C16 1_555 1_555
O6 C13 1_555 1_555
O9 Cu2 1_555 1_555
N3 Cu2 1_555 1_555
Cu7 O10_2 1_555 1_555
Cu6 O7_2 1_555 1_555
O2_2 C1_2 1_555 1_555
C1_2 C2_2 1_555 1_555
C2_2 H1_2 1_555 1_555
H2_2 C2_2 1_555 1_555
C3_2 C2_2 1_555 1_555
C4_2 C3_2 1_555 1_555
H6_2 C4_2 1_555 1_555
C5_2 C4_2 1_555 1_555
Cu2_2 O2_2 1_555 1_555
O9_2 Cu2_2 1_555 1_555
N3_2 Cu2_2 1_555 1_555
O6_2 Cu5 1_555 1_555
O8_2 Cu5 1_555 1_555
C14_2 C13_2 1_555 1_555
H14_2 C14_2 1_555 1_555
H15_2 C14_2 1_555 1_555
C15_2 C14_2 1_555 1_555
C16_2 C15_2 1_555 1_555
H19_2 C16_2 1_555 1_555
C17_2 C16_2 1_555 1_555
O6_2 C13_2 1_555 1_555
Cu7 O3_2 1_555 1_555
Cu6 O4_2 1_555 1_555
O12_2 C17_3 1_555 1_555
C14_3 C13_3 1_555 1_555
H14_3 C14_3 1_555 1_555
H15_3 C14_3 1_555 1_555
C15_3 C14_3 1_555 1_555
H16_3 C15_3 1_555 1_555
H17_3 C15_3 1_555 1_555
C16_3 C15_3 1_555 1_555
H18_3 C16_3 1_555 1_555
H19_3 C16_3 1_555 1_555
C17_3 C16_3 1_555 1_555
O6_3 C13_3 1_555 1_555
O5_3 Cu7 1_555 1_555
N3_3 Cu7 1_555 1_555
Cu6 O1_3 1_555 1_555
N1_2 Cu6 1_555 1_555
C6_2 N1_2 1_555 1_555
H7_2 C6_2 1_555 1_555
C7_2 C6_2 1_555 1_555
H8_2 C7_2 1_555 1_555
C8_2 C7_2 1_555 1_555
C9_2 C8_2 1_555 1_555
H9_2 C9_2 1_555 1_555
C10_2 N1_2 1_555 1_555
C11_2 C8_2 1_555 1_555
C12_2 C11_2 1_555 1_555
H13_2 C12_2 1_555 1_555
Cu4 N2_2 1_555 1_555
N2_2 C18_2 1_555 1_555
C18_2 H20_2 1_555 1_555
C19_2 C18_2 1_555 1_555
H21_2 C19_2 1_555 1_555
C20_2 C19_2 1_555 1_555
C21_2 C20_2 1_555 1_555
H22_2 C21_2 1_555 1_555
C22_2 N2_2 1_555 1_555
H23_2 C22_2 1_555 1_555
C23_2 C12_2 1_555 1_555
H26_2 C12_2 1_555 1_555
C9_2 C10_2 1_555 1_555
C20_2 C23_2 1_555 1_555
C21_2 C22_2 1_555 1_555
O2_3 C1_3 1_555 1_555
O11_2 C5_3 1_555 1_555
C1_3 C2_3 1_555 1_555
C2_3 H1_3 1_555 1_555
H2_3 C2_3 1_555 1_555
C3_3 C2_3 1_555 1_555
H3_3 C3_3 1_555 1_555
H4_3 C3_3 1_555 1_555
C4_3 C3_3 1_555 1_555
H5_3 C4_3 1_555 1_555
H6_3 C4_3 1_555 1_555
C5_3 C4_3 1_555 1_555
Cu4 O1_4 1_555 1_555
O1_4 C1_4 1_555 1_555
O2_4 C1_4 1_555 1_555
O9 C5_4 1_555 1_555
C1_4 C2_4 1_555 1_555
C2_4 H1_4 1_555 1_555
H2_4 C2_4 1_555 1_555
C3_4 C2_4 1_555 1_555
H3_4 C3_4 1_555 1_555
H4_4 C3_4 1_555 1_555
C4_4 C3_4 1_555 1_555
H6_4 C4_4 1_555 1_555
C5_4 C4_4 1_555 1_555
Cu3 O2_4 1_555 1_555
O5_4 Cu3 1_555 1_555
O6_4 Cu4 1_555 1_555
O8 C17_4 1_555 1_555
N3_4 Cu3 1_555 1_555
C13_4 O5_4 1_555 1_555
C14_4 C13_4 1_555 1_555
H14_4 C14_4 1_555 1_555
H15_4 C14_4 1_555 1_555
C15_4 C14_4 1_555 1_555
H16_4 C15_4 1_555 1_555
H17_4 C15_4 1_555 1_555
C16_4 C15_4 1_555 1_555
H19_4 C16_4 1_555 1_555
C17_4 C16_4 1_555 1_555
O6_4 C13_4 1_555 1_555
C6_3 N3 1_555 1_555
H7_3 C6_3 1_555 1_555
C7_3 C6_3 1_555 1_555
H8_3 C7_3 1_555 1_555
C8_3 C7_3 1_555 1_555
C9_3 C8_3 1_555 1_555
H9_3 C9_3 1_555 1_555
C10_3 N3 1_555 1_555
C11_3 C8_3 1_555 1_555
H11_2 C11_3 1_555 1_555
H12_2 C11_3 1_555 1_555
C12_3 C11_3 1_555 1_555
H13_3 C12_3 1_555 1_555
N3_2 C18_3 1_555 1_555
C18_3 H20_3 1_555 1_555
C19_3 C18_3 1_555 1_555
H21_3 C19_3 1_555 1_555
C20_3 C19_3 1_555 1_555
C21_3 C20_3 1_555 1_555
H22_3 C21_3 1_555 1_555
C22_3 N3_2 1_555 1_555
H23_3 C22_3 1_555 1_555
C23_3 C12_3 1_555 1_555
H24_2 C23_3 1_555 1_555
H25_2 C23_3 1_555 1_555
H26_3 C12_3 1_555 1_555
C9_3 C10_3 1_555 1_555
C20_3 C23_3 1_555 1_555
C21_3 C22_3 1_555 1_555
C6_4 N3_3 1_555 1_555
H7_4 C6_4 1_555 1_555
C7_4 C6_4 1_555 1_555
H8_4 C7_4 1_555 1_555
C8_4 C7_4 1_555 1_555
C9_4 C8_4 1_555 1_555
H9_4 C9_4 1_555 1_555
C10_4 N3_3 1_555 1_555
C11_4 C8_4 1_555 1_555
C12_4 C11_4 1_555 1_555
H13_4 C12_4 1_555 1_555
N3_4 C18_4 1_555 1_555
C18_4 H20_4 1_555 1_555
C19_4 C18_4 1_555 1_555
H21_4 C19_4 1_555 1_555
C20_4 C19_4 1_555 1_555
C21_4 C20_4 1_555 1_555
H22_4 C21_4 1_555 1_555
C22_4 N3_4 1_555 1_555
H23_4 C22_4 1_555 1_555
C23_4 C12_4 1_555 1_555
H26_4 C12_4 1_555 1_555
C9_4 C10_4 1_555 1_555
C20_4 C23_4 1_555 1_555
C21_4 C22_4 1_555 1_555

#END
