
###############################################################################
#
# This file contains modified crystal structure data generated from the
# MOF subset of the Cambridge Structural Database (CSD) v543 
# hosted by the Cambridge Crystallographic Data Centre (CCDC).
#
# This work is licensed under the Creative Commons
# Attribution-NonCommercial-ShareAlike 4.0 International License.
# To view a copy of this license, visit
# http://creativecommons.org/licenses/by-nc-sa/4.0/
# or send a letter to
# Creative Commons, PO Box 1866, Mountain View, CA 94042, USA.
#
# CIF created using the CSD Python API on 29 September 2022
# The structure has been converted into the P1 space group
# The structure has a 3D framework
# The original CSD entry ACALEX is in the monoclinic crystal system
# The framework has been calculated to contain at least 10.0% void space
# The void calculation uses a probe of radius 1.32A, grid spacing 0.4
# H atom positions have been added when not included in the experimental data
#
###############################################################################

data_ACALEX
_chemical_formula_moiety         '(C72 H56 N12 O44 Tb4)n'
_symmetry_cell_setting           triclinic
_symmetry_space_group_name_H-M   'P 1'
_symmetry_Int_Tables_number      1
_space_group_name_Hall           'P 1'
loop_
_symmetry_equiv_pos_site_id
_symmetry_equiv_pos_as_xyz
1 x,y,z
_cell_length_a                   10.547(2)
_cell_length_b                   20.708(4)
_cell_length_c                   10.434(2)
_cell_angle_alpha                90
_cell_angle_beta                 111.95(3)
_cell_angle_gamma                90
_cell_volume                     2113.67
loop_
_atom_site_label
_atom_site_type_symbol
_atom_site_fract_x
_atom_site_fract_y
_atom_site_fract_z
O2 O 0.6356(8) 0.4254(3) 0.0130(7)
O4 O 0.7618(8) 0.1243(3) 0.0627(6)
C3 C 0.7038(10) 0.3727(4) 0.0329(8)
O7 O 0.8091(7) 0.3658(3) 0.1371(6)
H3 H 0.7603 0.2495 0.0659
Tb2 Tb 0.79816(5) 0.469491(17) 0.23738(4)
C1 C 0.0595(9) 0.0958(4) 0.0296(9)
O3 O 0.6814(7) 0.0931(3) 0.8422(6)
C2 C 0.1896(9) 0.2536(4) 0.2191(8)
C4 C 0.2836(9) 0.2755(4) 0.3549(8)
N1 N 0.3184(10) 0.3387(4) 0.3784(8)
C5 C 0.1722(10) 0.1881(4) 0.1898(8)
H2 H 0.2220 0.1581 0.2559
O10 O 0.1277(8) 0.0581(3) 0.1246(7)
N2 N 0.4283(8) 0.2853(3) 0.5650(8)
C7 C 0.6992(9) 0.2559(4) 0.9757(8)
C8 C 0.7038(10) 0.1359(4) 0.9344(8)
C9 C 0.5696(10) 0.2143(4) 0.7500(9)
H4 H 0.5447 0.1800 0.6881
C10 C 0.0816(9) 0.1671(4) 0.0635(8)
C11 C 0.3525(9) 0.2414(4) 0.4693(8)
H5 H 0.3492 0.1970 0.4810
C12 C 0.6560(10) 0.2035(4) 0.8869(8)
C13 C 0.5208(9) 0.2754(4) 0.7059(8)
N3 N 0.4063(10) 0.3447(4) 0.5053(8)
C14 C 0.1173(9) 0.2991(4) 0.1224(8)
H6 H 0.1260 0.3428 0.1443
C16 C 0.5614(10) 0.3283(4) 0.7979(9)
H8 H 0.5275 0.3695 0.7691
C17 C 0.6524(10) 0.3179(4) 0.9315(8)
Tb3 Tb 0.79816(5) 0.030509(17) 0.73738(4)
O1 O 0.9752(7) 0.0791(3) 0.9152(6)
O5 O 0.8707(7) 0.3028(3) 0.7721(6)
H1 H 0.8291 0.3312 0.6950
O8 O 0.9819(9) 0.3854(3) 0.9023(8)
H7 H 0.9554 0.1986 0.8719
C18 C 0.9585(10) 0.3275(4) 0.8851(8)
O12 O 0.6356(8) 0.0746(3) 0.5130(7)
O14 O 0.8091(7) 0.1342(3) 0.6371(6)
H9 H 0.521208 0.0126449 0.720091
C1_2 C 0.9405(9) 0.5958(4) 0.4704(9)
C2_2 C 0.8104(9) 0.7536(4) 0.2809(8)
C4_2 C 0.7164(9) 0.7755(4) 0.1451(8)
N1_2 N 0.6816(10) 0.8387(4) 0.1216(8)
C5_2 C 0.8278(10) 0.6881(4) 0.3102(8)
H2_2 H 0.7780 0.6581 0.2441
C6 C 0.9693(9) 0.7783(4) 0.5088(9)
O10_2 O 0.8723(8) 0.5581(3) 0.3754(7)
C10_2 C 0.9184(9) 0.6671(4) 0.4365(8)
C11_2 C 0.6475(9) 0.7414(4) 0.0307(8)
H5_2 H 0.6508 0.6970 0.0190
C14_2 C 0.8827(9) 0.7991(4) 0.3776(8)
H6_2 H 0.8740 0.8428 0.3557
C15 C 0.9878(9) 0.7123(4) 0.5405(8)
O11 O 0.9997(13) 0.5193(5) 0.8179(16)
H11 H 0.92912 0.49459 0.743551
O6 O 0.4178(8) 0.0191(4) 0.2995(8)
O9 O 0.2390(10) 0.0568(4) 0.4359(9)
H10 H 0.460304 0.0337067 0.396978
H12 H 0.0234515 0.00405232 0.406958
H13 H 0.206296 0.0984483 0.387699
H14 H 0.338006 0.0601045 0.493258
O3_2 O 0.6814(7) 0.4069(3) 0.3422(6)
O4_2 O 0.7618(8) 0.3757(3) 0.5627(6)
C3_2 C 0.7038(10) 0.1273(4) 0.5329(8)
N2_2 N 0.4283(8) 0.2147(3) 0.0650(8)
C7_2 C 0.6992(9) 0.2441(4) 0.4757(8)
H3_2 H 0.7603 0.2505 0.5659
C8_2 C 0.7038(10) 0.3641(4) 0.4344(8)
C9_2 C 0.5696(10) 0.2857(4) 0.2500(9)
H4_2 H 0.5447 0.3200 0.1881
C12_2 C 0.6560(10) 0.2965(4) 0.3869(8)
C13_2 C 0.5208(9) 0.2246(4) 0.2059(8)
N3_2 N 0.4063(10) 0.1553(4) 0.0053(8)
C16_2 C 0.5614(10) 0.1717(4) 0.2979(9)
H8_2 H 0.5275 0.1305 0.2691
C17_2 C 0.6524(10) 0.1821(4) 0.4315(8)
O1_2 O 0.9752(7) 0.4209(3) 0.4152(6)
O5_2 O 0.8707(7) 0.1972(3) 0.2721(6)
H1_2 H 0.8291 0.1688 0.1950
O6_2 O 0.5822(8) 0.5191(4) 0.2005(8)
O8_2 O 0.9819(9) 0.1146(3) 0.4023(8)
O9_2 O 0.7610(10) 0.5568(4) 0.0641(9)
H7_2 H 0.9554 0.3014 0.3719
C18_2 C 0.9585(10) 0.1725(4) 0.3851(8)
H9_2 H 0.521208 0.487355 0.220091
H10_2 H 0.539696 0.533707 0.103022
H12_2 H 0.976549 0.504052 0.093042
H13_2 H 0.793704 0.598448 0.112301
H14_2 H 0.661994 0.560104 0.00674223
C6_2 C 0.0307(9) 0.2783(4) 0.9912(9)
C15_2 C 0.0122(9) 0.2123(4) 0.9595(8)
O11_2 O 0.0003(13) 0.0193(5) 0.6821(16)
Tb4 Tb 0.20184(5) 0.969491(17) 0.26262(4)
O6_3 O 0.5822(8) 0.9809(4) 0.7005(8)
O9_3 O 0.7610(10) 0.9432(4) 0.5641(9)
O15 O 0.8723(8) 0.9419(3) 0.8754(7)
H10_3 H 0.539696 0.966293 0.603022
H12_3 H 0.976549 0.995948 0.593042
H13_3 H 0.793704 0.901552 0.612301
H14_3 H 0.661994 0.939896 0.506742
Tb1 Tb 0.20184(5) 0.530509(17) 0.76262(4)
O1_3 O 0.0248(7) 0.5791(3) 0.5848(6)
O5_3 O 0.1293(7) 0.8028(3) 0.7279(6)
H1_3 H 0.1709 0.8312 0.8050
O6_4 O 0.4178(8) 0.4809(4) 0.7995(8)
O8_3 O 0.0181(9) 0.8854(3) 0.5977(8)
O9_4 O 0.2390(10) 0.4432(4) 0.9359(9)
H7_3 H 0.0446 0.6986 0.6281
C18_3 C 0.0415(10) 0.8275(4) 0.6149(8)
O12_2 O 0.3644(8) 0.5746(3) 0.9870(7)
O13 O 0.3186(7) 0.5931(3) 0.6578(6)
O14_2 O 0.1909(7) 0.6342(3) 0.8629(6)
O15_2 O 0.1277(8) 0.4419(3) 0.6246(7)
H9_3 H 0.478792 0.512645 0.779909
H10_4 H 0.460304 0.466293 0.896978
H12_4 H 0.0234515 0.495948 0.906958
H13_4 H 0.206296 0.401552 0.887699
H14_4 H 0.338006 0.439896 0.993258
O2_2 O 0.3644(8) 0.9254(3) 0.4870(7)
O4_3 O 0.2382(8) 0.6243(3) 0.4373(6)
C3_3 C 0.2962(10) 0.8727(4) 0.4671(8)
O7_2 O 0.1909(7) 0.8658(3) 0.3629(6)
N2_3 N 0.5717(8) 0.7853(3) 0.9350(8)
C7_3 C 0.3008(9) 0.7559(4) 0.5243(8)
H3_3 H 0.2397 0.7495 0.4341
C8_3 C 0.2962(10) 0.6359(4) 0.5656(8)
C9_3 C 0.4304(10) 0.7143(4) 0.7500(9)
H4_3 H 0.4553 0.6800 0.8119
C12_3 C 0.3440(10) 0.7035(4) 0.6131(8)
C13_3 C 0.4792(9) 0.7754(4) 0.7941(8)
N3_3 N 0.5937(10) 0.8447(4) 0.9947(8)
C16_3 C 0.4386(10) 0.8283(4) 0.7021(9)
H8_3 H 0.4725 0.8695 0.7309
C17_3 C 0.3476(10) 0.8179(4) 0.5685(8)
O1_4 O 0.0248(7) 0.9209(3) 0.0848(6)
O5_4 O 0.1293(7) 0.6972(3) 0.2279(6)
H1_4 H 0.1709 0.6688 0.3050
O8_4 O 0.0181(9) 0.6146(3) 0.0977(8)
H7_4 H 0.0446 0.8014 0.1281
C18_4 C 0.0415(10) 0.6725(4) 0.1149(8)
O13_2 O 0.3186(7) 0.9069(3) 0.1578(6)
H9_4 H 0.478792 0.987355 0.279909
C1_3 C 0.9405(9) 0.9042(4) 0.9704(9)
C2_3 C 0.8104(9) 0.7464(4) 0.7809(8)
C4_3 C 0.7164(9) 0.7245(4) 0.6451(8)
N1_3 N 0.6816(10) 0.6613(4) 0.6216(8)
C5_3 C 0.8278(10) 0.8119(4) 0.8102(8)
H2_3 H 0.7780 0.8419 0.7441
N2_4 N 0.5717(8) 0.7147(3) 0.4350(8)
C7_4 C 0.3008(9) 0.7441(4) 0.0243(8)
C8_4 C 0.2962(10) 0.8641(4) 0.0656(8)
C9_4 C 0.4304(10) 0.7857(4) 0.2500(9)
H4_4 H 0.4553 0.8200 0.3119
C10_3 C 0.9184(9) 0.8329(4) 0.9365(8)
C11_3 C 0.6475(9) 0.7586(4) 0.5307(8)
H5_3 H 0.6508 0.8030 0.5190
C12_4 C 0.3440(10) 0.7965(4) 0.1131(8)
C13_4 C 0.4792(9) 0.7246(4) 0.2941(8)
N3_4 N 0.5937(10) 0.6553(4) 0.4947(8)
C14_3 C 0.8827(9) 0.7009(4) 0.8776(8)
H6_3 H 0.8740 0.6572 0.8557
C16_4 C 0.4386(10) 0.6717(4) 0.2021(9)
H8_4 H 0.4725 0.6305 0.2309
C17_4 C 0.3476(10) 0.6821(4) 0.0685(8)
O4_4 O 0.2382(8) 0.8757(3) 0.9373(6)
C3_4 C 0.2962(10) 0.6273(4) 0.9671(8)
H3_4 H 0.2397 0.7505 0.9341
C1_4 C 0.0595(9) 0.4042(4) 0.5296(9)
C2_4 C 0.1896(9) 0.2464(4) 0.7191(8)
C4_4 C 0.2836(9) 0.2245(4) 0.8549(8)
N1_4 N 0.3184(10) 0.1613(4) 0.8784(8)
C5_4 C 0.1722(10) 0.3119(4) 0.6898(8)
H2_4 H 0.2220 0.3419 0.7559
C6_3 C 0.0307(9) 0.2217(4) 0.4912(9)
C10_4 C 0.0816(9) 0.3329(4) 0.5635(8)
C11_4 C 0.3525(9) 0.2586(4) 0.9693(8)
H5_4 H 0.3492 0.3030 0.9810
C14_4 C 0.1173(9) 0.2009(4) 0.6224(8)
H6_4 H 0.1260 0.1572 0.6443
C15_3 C 0.0122(9) 0.2877(4) 0.4595(8)
O11_3 O 0.0003(13) 0.4807(5) 0.1821(16)
H11_2 H 0.0708802 0.50541 0.256449
H11_3 H 0.0708802 0.99459 0.756449
H11_4 H 0.92912 0.00540989 0.243551
C6_4 C 0.9693(9) 0.7217(4) 0.0088(9)
C15_4 C 0.9878(9) 0.7877(4) 0.0405(8)
O11_4 O 0.9997(13) 0.9807(5) 0.3179(16)
loop_
_geom_bond_atom_site_label_1
_geom_bond_atom_site_label_2
_geom_bond_site_symmetry_1
_geom_bond_site_symmetry_2
O2 C3 1_555 1_555
C3 O7 1_555 1_555
O7 Tb2 1_555 1_555
Tb2 O2 1_555 1_555
C1 O10 1_555 1_555
O3 C8 1_555 1_555
C2 C4 1_555 1_555
C4 N1 1_555 1_555
N1 N3 1_555 1_555
C5 C2 1_555 1_555
H2 C5 1_555 1_555
N2 C11 1_555 1_555
C8 C12 1_555 1_555
C9 H4 1_555 1_555
C10 C1 1_555 1_555
C11 C4 1_555 1_555
H5 C11 1_555 1_555
C12 C7 1_555 1_555
C13 N2 1_555 1_555
N3 N2 1_555 1_555
C14 C2 1_555 1_555
H6 C14 1_555 1_555
C16 C13 1_555 1_555
H8 C16 1_555 1_555
Tb3 O3 1_555 1_555
C5 C10 1_555 1_555
C7 C17 1_555 1_555
C9 C12 1_555 1_555
C9 C13 1_555 1_555
C16 C17 1_555 1_555
Tb3 O1 1_555 1_555
O5 H1 1_555 1_555
O8 C18 1_555 1_555
C18 O5 1_555 1_555
O12 Tb3 1_555 1_555
O14 Tb3 1_555 1_555
C1_2 O10_2 1_555 1_555
C2_2 C4_2 1_555 1_555
C4_2 N1_2 1_555 1_555
C5_2 C2_2 1_555 1_555
H2_2 C5_2 1_555 1_555
C6 C14_2 1_555 1_555
O10_2 Tb2 1_555 1_555
C10_2 C1_2 1_555 1_555
C11_2 C4_2 1_555 1_555
H5_2 C11_2 1_555 1_555
C14_2 C2_2 1_555 1_555
H6_2 C14_2 1_555 1_555
C15 C6 1_555 1_555
C5_2 C10_2 1_555 1_555
C10_2 C15 1_555 1_555
O11 H11 1_555 1_555
O6 H10 1_555 1_555
O9 H13 1_555 1_555
O9 H14 1_555 1_555
O12 C3_2 1_555 1_555
O3_2 C8_2 1_555 1_555
O4_2 C8_2 1_555 1_555
C3_2 O14 1_555 1_555
C7_2 H3_2 1_555 1_555
C8_2 C12_2 1_555 1_555
C9_2 H4_2 1_555 1_555
C12_2 C7_2 1_555 1_555
C13_2 N2_2 1_555 1_555
N3_2 N2_2 1_555 1_555
C16_2 C13_2 1_555 1_555
H8_2 C16_2 1_555 1_555
C17_2 C3_2 1_555 1_555
Tb2 O3_2 1_555 1_555
C7_2 C17_2 1_555 1_555
C9_2 C12_2 1_555 1_555
C9_2 C13_2 1_555 1_555
C16_2 C17_2 1_555 1_555
Tb2 O1_2 1_555 1_555
O5_2 H1_2 1_555 1_555
O6_2 Tb2 1_555 1_555
O8_2 C18_2 1_555 1_555
O9_2 Tb2 1_555 1_555
C18_2 O5_2 1_555 1_555
O6_2 H9_2 1_555 1_555
O6_2 H10_2 1_555 1_555
O9_2 H13_2 1_555 1_555
O9_2 H14_2 1_555 1_555
C15_2 C6_2 1_555 1_555
O6_3 H10_3 1_555 1_555
O9_3 H13_3 1_555 1_555
O9_3 H14_3 1_555 1_555
Tb1 O1_3 1_555 1_555
O5_3 H1_3 1_555 1_555
O6_4 Tb1 1_555 1_555
O8_3 C18_3 1_555 1_555
O9_4 Tb1 1_555 1_555
C18_3 O5_3 1_555 1_555
O12_2 Tb1 1_555 1_555
O13 Tb1 1_555 1_555
O14_2 Tb1 1_555 1_555
O15_2 Tb1 1_555 1_555
O6_4 H9_3 1_555 1_555
O6_4 H10_4 1_555 1_555
O9_4 H13_4 1_555 1_555
O9_4 H14_4 1_555 1_555
O2_2 C3_3 1_555 1_555
O13 C8_3 1_555 1_555
O4_3 C8_3 1_555 1_555
C3_3 O7_2 1_555 1_555
O7_2 Tb4 1_555 1_555
C7_3 H3_3 1_555 1_555
C8_3 C12_3 1_555 1_555
C9_3 H4_3 1_555 1_555
C12_3 C7_3 1_555 1_555
C13_3 N2_3 1_555 1_555
N3_3 N2_3 1_555 1_555
C16_3 C13_3 1_555 1_555
H8_3 C16_3 1_555 1_555
C17_3 C3_3 1_555 1_555
Tb4 O2_2 1_555 1_555
C7_3 C17_3 1_555 1_555
C9_3 C12_3 1_555 1_555
C9_3 C13_3 1_555 1_555
C16_3 C17_3 1_555 1_555
Tb4 O1_4 1_555 1_555
O5_4 H1_4 1_555 1_555
O8_4 C18_4 1_555 1_555
C18_4 O5_4 1_555 1_555
O13_2 Tb4 1_555 1_555
C1_3 O15 1_555 1_555
O13_2 C8_4 1_555 1_555
C2_3 C4_3 1_555 1_555
C4_3 N1_3 1_555 1_555
N1_3 N3_4 1_555 1_555
C5_3 C2_3 1_555 1_555
H2_3 C5_3 1_555 1_555
N2_4 C11_3 1_555 1_555
C8_4 C12_4 1_555 1_555
C9_4 H4_4 1_555 1_555
C10_3 C1_3 1_555 1_555
C11_3 C4_3 1_555 1_555
H5_3 C11_3 1_555 1_555
C12_4 C7_4 1_555 1_555
C13_4 N2_4 1_555 1_555
N3_4 N2_4 1_555 1_555
C14_3 C2_3 1_555 1_555
H6_3 C14_3 1_555 1_555
C16_4 C13_4 1_555 1_555
H8_4 C16_4 1_555 1_555
C5_3 C10_3 1_555 1_555
C7_4 C17_4 1_555 1_555
C9_4 C12_4 1_555 1_555
C9_4 C13_4 1_555 1_555
C16_4 C17_4 1_555 1_555
O12_2 C3_4 1_555 1_555
C3_4 O14_2 1_555 1_555
C1_4 O15_2 1_555 1_555
C2_4 C4_4 1_555 1_555
C4_4 N1_4 1_555 1_555
C5_4 C2_4 1_555 1_555
H2_4 C5_4 1_555 1_555
C6_3 C14_4 1_555 1_555
C10_4 C1_4 1_555 1_555
C11_4 C4_4 1_555 1_555
H5_4 C11_4 1_555 1_555
C14_4 C2_4 1_555 1_555
H6_4 C14_4 1_555 1_555
C15_3 C6_3 1_555 1_555
C5_4 C10_4 1_555 1_555
C10_4 C15_3 1_555 1_555
O11_3 H11_2 1_555 1_555
C15_4 C6_4 1_555 1_555

#END
