
###############################################################################
#
# This file contains modified crystal structure data generated from the
# MOF subset of the Cambridge Structural Database (CSD) v543 
# hosted by the Cambridge Crystallographic Data Centre (CCDC).
#
# This work is licensed under the Creative Commons
# Attribution-NonCommercial-ShareAlike 4.0 International License.
# To view a copy of this license, visit
# http://creativecommons.org/licenses/by-nc-sa/4.0/
# or send a letter to
# Creative Commons, PO Box 1866, Mountain View, CA 94042, USA.
#
# CIF created using the CSD Python API on 29 September 2022
# The structure has been converted into the P1 space group
# The structure has a 3D framework
# The original CSD entry ACEMAA is in the cubic crystal system
# The framework has been calculated to contain at least 10.0% void space
# The void calculation uses a probe of radius 1.32A, grid spacing 0.4
#
###############################################################################

data_ACEMAA
_chemical_formula_moiety         '(C1824 H960 Cu96 F96 N480 O288 48-)n'
_symmetry_cell_setting           triclinic
_symmetry_space_group_name_H-M   'P 1'
_symmetry_Int_Tables_number      1
_space_group_name_Hall           'P 1'
loop_
_symmetry_equiv_pos_site_id
_symmetry_equiv_pos_as_xyz
1 x,y,z
_cell_length_a                   41.50740(10)
_cell_length_b                   41.50740(10)
_cell_length_c                   41.50740(10)
_cell_angle_alpha                90
_cell_angle_beta                 90
_cell_angle_gamma                90
_cell_volume                     71511.6
loop_
_atom_site_label
_atom_site_type_symbol
_atom_site_fract_x
_atom_site_fract_y
_atom_site_fract_z
O1 O 0.4943(4) 0.1098(4) 0.4514(4)
O2 O 0.5173(4) 0.1726(4) 0.4346(4)
O3 O 0.5604(6) 0.1253(7) 0.4592(9)
N1 N 0.5237(5) 0.1356(4) 0.4479(5)
O1_2 O 0.0057(4) 0.8902(4) 0.9514(4)
O2_2 O 0.9827(4) 0.8274(4) 0.9346(4)
O3_2 O 0.9396(6) 0.8747(7) 0.9592(9)
N1_2 N 0.9763(5) 0.8644(4) 0.9479(5)
O1_3 O 0.5057(4) 0.6098(4) 0.0486(4)
O2_3 O 0.4827(4) 0.6726(4) 0.0654(4)
O3_3 O 0.4396(6) 0.6253(7) 0.0408(9)
N1_3 N 0.4763(5) 0.6356(4) 0.0521(5)
O2_4 O 0.0173(4) 0.3274(4) 0.5654(4)
O3_4 O 0.0604(6) 0.3747(7) 0.5408(9)
N1_4 N 0.0237(5) 0.3644(4) 0.5521(5)
O1_4 O 0.9943(4) 0.3902(4) 0.5486(4)
O1_5 O 0.4514(4) 0.4943(4) 0.1098(4)
O2_5 O 0.4346(4) 0.5173(4) 0.1726(4)
O3_5 O 0.4592(9) 0.5604(6) 0.1253(7)
N1_5 N 0.4479(5) 0.5237(5) 0.1356(4)
O1_6 O 0.9514(4) 0.0057(4) 0.8902(4)
O2_6 O 0.9346(4) 0.9827(4) 0.8274(4)
O3_6 O 0.9592(9) 0.9396(6) 0.8747(7)
N1_6 N 0.9479(5) 0.9763(5) 0.8644(4)
O1_7 O 0.0486(4) 0.5057(4) 0.6098(4)
O2_7 O 0.0654(4) 0.4827(4) 0.6726(4)
O3_7 O 0.0408(9) 0.4396(6) 0.6253(7)
N1_7 N 0.0521(5) 0.4763(5) 0.6356(4)
O2_8 O 0.5654(4) 0.0173(4) 0.3274(4)
O3_8 O 0.5408(9) 0.0604(6) 0.3747(7)
N1_8 N 0.5521(5) 0.0237(5) 0.3644(4)
O1_8 O 0.5486(4) 0.9943(4) 0.3902(4)
O1_9 O 0.1098(4) 0.4514(4) 0.4943(4)
O2_9 O 0.1726(4) 0.4346(4) 0.5173(4)
O3_9 O 0.1253(7) 0.4592(9) 0.5604(6)
N1_9 N 0.1356(4) 0.4479(5) 0.5237(5)
O1_10 O 0.8902(4) 0.9514(4) 0.0057(4)
O2_10 O 0.8274(4) 0.9346(4) 0.9827(4)
O3_10 O 0.8747(7) 0.9592(9) 0.9396(6)
N1_10 N 0.8644(4) 0.9479(5) 0.9763(5)
O1_11 O 0.6098(4) 0.0486(4) 0.5057(4)
O2_11 O 0.6726(4) 0.0654(4) 0.4827(4)
O3_11 O 0.6253(7) 0.0408(9) 0.4396(6)
N1_11 N 0.6356(4) 0.0521(5) 0.4763(5)
O2_12 O 0.3274(4) 0.5654(4) 0.0173(4)
O3_12 O 0.3747(7) 0.5408(9) 0.0604(6)
N1_12 N 0.3644(4) 0.5521(5) 0.0237(5)
O1_12 O 0.3902(4) 0.5486(4) 0.9943(4)
O1_13 O 0.8598(4) 0.7443(4) 0.7986(4)
O2_13 O 0.9226(4) 0.7673(4) 0.8154(4)
O3_13 O 0.8753(7) 0.8104(6) 0.7908(9)
N1_13 N 0.8856(4) 0.7737(5) 0.8021(5)
O1_14 O 0.6402(4) 0.2557(4) 0.2986(4)
O2_14 O 0.5774(4) 0.2327(4) 0.3154(4)
O3_14 O 0.6247(7) 0.1896(6) 0.2908(9)
N1_14 N 0.6144(4) 0.2263(5) 0.3021(5)
O1_15 O 0.3598(4) 0.7557(4) 0.2014(4)
O2_15 O 0.4226(4) 0.7327(4) 0.1846(4)
O3_15 O 0.3753(7) 0.6896(6) 0.2092(9)
N1_15 N 0.3856(4) 0.7263(5) 0.1979(5)
O1_16 O 0.1402(4) 0.2443(4) 0.7014(4)
O2_16 O 0.0774(4) 0.2673(4) 0.6846(4)
O3_16 O 0.1247(7) 0.3104(6) 0.7092(9)
N1_16 N 0.1144(4) 0.2737(5) 0.6979(5)
O1_17 O 0.2443(4) 0.7014(4) 0.1402(4)
O2_17 O 0.2673(4) 0.6846(4) 0.0774(4)
O3_17 O 0.3104(6) 0.7092(9) 0.1247(7)
N1_17 N 0.2737(5) 0.6979(5) 0.1144(4)
O1_18 O 0.7557(4) 0.2014(4) 0.3598(4)
O2_18 O 0.7327(4) 0.1846(4) 0.4226(4)
O3_18 O 0.6896(6) 0.2092(9) 0.3753(7)
N1_18 N 0.7263(5) 0.1979(5) 0.3856(4)
O1_19 O 0.2557(4) 0.2986(4) 0.6402(4)
O2_19 O 0.2327(4) 0.3154(4) 0.5774(4)
O3_19 O 0.1896(6) 0.2908(9) 0.6247(7)
N1_19 N 0.2263(5) 0.3021(5) 0.6144(4)
O1_20 O 0.7443(4) 0.7986(4) 0.8598(4)
O2_20 O 0.7673(4) 0.8154(4) 0.9226(4)
O3_20 O 0.8104(6) 0.7908(9) 0.8753(7)
N1_20 N 0.7737(5) 0.8021(5) 0.8856(4)
O1_21 O 0.2014(4) 0.3598(4) 0.7557(4)
O2_21 O 0.1846(4) 0.4226(4) 0.7327(4)
O3_21 O 0.2092(9) 0.3753(7) 0.6896(6)
N1_21 N 0.1979(5) 0.3856(4) 0.7263(5)
O1_22 O 0.7014(4) 0.1402(4) 0.2443(4)
O2_22 O 0.6846(4) 0.0774(4) 0.2673(4)
O3_22 O 0.7092(9) 0.1247(7) 0.3104(6)
N1_22 N 0.6979(5) 0.1144(4) 0.2737(5)
O1_23 O 0.7986(4) 0.8598(4) 0.7443(4)
O2_23 O 0.8154(4) 0.9226(4) 0.7673(4)
O3_23 O 0.7908(9) 0.8753(7) 0.8104(6)
N1_23 N 0.8021(5) 0.8856(4) 0.7737(5)
O1_24 O 0.2986(4) 0.6402(4) 0.2557(4)
O2_24 O 0.3154(4) 0.5774(4) 0.2327(4)
O3_24 O 0.2908(9) 0.6247(7) 0.1896(6)
N1_24 N 0.3021(5) 0.6144(4) 0.2263(5)
O2_25 O 0.0173(4) 0.6726(4) 0.9346(4)
O3_25 O 0.0604(6) 0.6253(7) 0.9592(9)
N1_25 N 0.0237(5) 0.6356(4) 0.9479(5)
O1_25 O 0.9943(4) 0.6098(4) 0.9514(4)
O1_26 O 0.5057(4) 0.3902(4) 0.4514(4)
O2_26 O 0.4827(4) 0.3274(4) 0.4346(4)
O3_26 O 0.4396(6) 0.3747(7) 0.4592(9)
N1_26 N 0.4763(5) 0.3644(4) 0.4479(5)
O1_27 O 0.0057(4) 0.1098(4) 0.5486(4)
O2_27 O 0.9827(4) 0.1726(4) 0.5654(4)
O3_27 O 0.9396(6) 0.1253(7) 0.5408(9)
N1_27 N 0.9763(5) 0.1356(4) 0.5521(5)
O1_28 O 0.4943(4) 0.8902(4) 0.0486(4)
O2_28 O 0.5173(4) 0.8274(4) 0.0654(4)
O3_28 O 0.5604(6) 0.8747(7) 0.0408(9)
N1_28 N 0.5237(5) 0.8644(4) 0.0521(5)
O2_29 O 0.9346(4) 0.0173(4) 0.6726(4)
O3_29 O 0.9592(9) 0.0604(6) 0.6253(7)
N1_29 N 0.9479(5) 0.0237(5) 0.6356(4)
O1_29 O 0.9514(4) 0.9943(4) 0.6098(4)
O1_30 O 0.4514(4) 0.5057(4) 0.3902(4)
O2_30 O 0.4346(4) 0.4827(4) 0.3274(4)
O3_30 O 0.4592(9) 0.4396(6) 0.3747(7)
N1_30 N 0.4479(5) 0.4763(5) 0.3644(4)
O1_31 O 0.5486(4) 0.0057(4) 0.1098(4)
O2_31 O 0.5654(4) 0.9827(4) 0.1726(4)
O3_31 O 0.5408(9) 0.9396(6) 0.1253(7)
N1_31 N 0.5521(5) 0.9763(5) 0.1356(4)
O1_32 O 0.0486(4) 0.4943(4) 0.8902(4)
O2_32 O 0.0654(4) 0.5173(4) 0.8274(4)
O3_32 O 0.0408(9) 0.5604(6) 0.8747(7)
N1_32 N 0.0521(5) 0.5237(5) 0.8644(4)
O2_33 O 0.6726(4) 0.9346(4) 0.0173(4)
O3_33 O 0.6253(7) 0.9592(9) 0.0604(6)
N1_33 N 0.6356(4) 0.9479(5) 0.0237(5)
O1_33 O 0.6098(4) 0.9514(4) 0.9943(4)
O1_34 O 0.3902(4) 0.4514(4) 0.5057(4)
O2_34 O 0.3274(4) 0.4346(4) 0.4827(4)
O3_34 O 0.3747(7) 0.4592(9) 0.4396(6)
N1_34 N 0.3644(4) 0.4479(5) 0.4763(5)
O1_35 O 0.1098(4) 0.5486(4) 0.0057(4)
O2_35 O 0.1726(4) 0.5654(4) 0.9827(4)
O3_35 O 0.1253(7) 0.5408(9) 0.9396(6)
N1_35 N 0.1356(4) 0.5521(5) 0.9763(5)
O1_36 O 0.8902(4) 0.0486(4) 0.4943(4)
O2_36 O 0.8274(4) 0.0654(4) 0.5173(4)
O3_36 O 0.8747(7) 0.0408(9) 0.5604(6)
N1_36 N 0.8644(4) 0.0521(5) 0.5237(5)
O1_37 O 0.3598(4) 0.2443(4) 0.2986(4)
O2_37 O 0.4226(4) 0.2673(4) 0.3154(4)
O3_37 O 0.3753(7) 0.3104(6) 0.2908(9)
N1_37 N 0.3856(4) 0.2737(5) 0.3021(5)
O1_38 O 0.1402(4) 0.7557(4) 0.7986(4)
O2_38 O 0.0774(4) 0.7327(4) 0.8154(4)
O3_38 O 0.1247(7) 0.6896(6) 0.7908(9)
N1_38 N 0.1144(4) 0.7263(5) 0.8021(5)
O1_39 O 0.8598(4) 0.2557(4) 0.7014(4)
O2_39 O 0.9226(4) 0.2327(4) 0.6846(4)
O3_39 O 0.8753(7) 0.1896(6) 0.7092(9)
N1_39 N 0.8856(4) 0.2263(5) 0.6979(5)
O1_40 O 0.6402(4) 0.7443(4) 0.2014(4)
O2_40 O 0.5774(4) 0.7673(4) 0.1846(4)
O3_40 O 0.6247(7) 0.8104(6) 0.2092(9)
N1_40 N 0.6144(4) 0.7737(5) 0.1979(5)
O1_41 O 0.7443(4) 0.2014(4) 0.6402(4)
O2_41 O 0.7673(4) 0.1846(4) 0.5774(4)
O3_41 O 0.8104(6) 0.2092(9) 0.6247(7)
N1_41 N 0.7737(5) 0.1979(5) 0.6144(4)
O1_42 O 0.2557(4) 0.7014(4) 0.8598(4)
O2_42 O 0.2327(4) 0.6846(4) 0.9226(4)
O3_42 O 0.1896(6) 0.7092(9) 0.8753(7)
N1_42 N 0.2263(5) 0.6979(5) 0.8856(4)
O1_43 O 0.7557(4) 0.7986(4) 0.1402(4)
O2_43 O 0.7327(4) 0.8154(4) 0.0774(4)
O3_43 O 0.6896(6) 0.7908(9) 0.1247(7)
N1_43 N 0.7263(5) 0.8021(5) 0.1144(4)
O1_44 O 0.2443(4) 0.2986(4) 0.3598(4)
O2_44 O 0.2673(4) 0.3154(4) 0.4226(4)
O3_44 O 0.3104(6) 0.2908(9) 0.3753(7)
N1_44 N 0.2737(5) 0.3021(5) 0.3856(4)
O1_45 O 0.7014(4) 0.8598(4) 0.2557(4)
O2_45 O 0.6846(4) 0.9226(4) 0.2327(4)
O3_45 O 0.7092(9) 0.8753(7) 0.1896(6)
N1_45 N 0.6979(5) 0.8856(4) 0.2263(5)
O1_46 O 0.2014(4) 0.6402(4) 0.7443(4)
O2_46 O 0.1846(4) 0.5774(4) 0.7673(4)
O3_46 O 0.2092(9) 0.6247(7) 0.8104(6)
N1_46 N 0.1979(5) 0.6144(4) 0.7737(5)
O1_47 O 0.2986(4) 0.3598(4) 0.2443(4)
O2_47 O 0.3154(4) 0.4226(4) 0.2673(4)
O3_47 O 0.2908(9) 0.3753(7) 0.3104(6)
N1_47 N 0.3021(5) 0.3856(4) 0.2737(5)
O1_48 O 0.7986(4) 0.1402(4) 0.7557(4)
O2_48 O 0.8154(4) 0.0774(4) 0.7327(4)
O3_48 O 0.7908(9) 0.1247(7) 0.6896(6)
N1_48 N 0.8021(5) 0.1144(4) 0.7263(5)
O1_49 O 0.5057(4) 0.8902(4) 0.5486(4)
O2_49 O 0.4827(4) 0.8274(4) 0.5654(4)
O3_49 O 0.4396(6) 0.8747(7) 0.5408(9)
N1_49 N 0.4763(5) 0.8644(4) 0.5521(5)
O2_50 O 0.0173(4) 0.1726(4) 0.0654(4)
O3_50 O 0.0604(6) 0.1253(7) 0.0408(9)
N1_50 N 0.0237(5) 0.1356(4) 0.0521(5)
O1_50 O 0.9943(4) 0.1098(4) 0.0486(4)
O1_51 O 0.4943(4) 0.3902(4) 0.9514(4)
O2_51 O 0.5173(4) 0.3274(4) 0.9346(4)
O3_51 O 0.5604(6) 0.3747(7) 0.9592(9)
N1_51 N 0.5237(5) 0.3644(4) 0.9479(5)
O1_52 O 0.0057(4) 0.6098(4) 0.4514(4)
O2_52 O 0.9827(4) 0.6726(4) 0.4346(4)
O3_52 O 0.9396(6) 0.6253(7) 0.4592(9)
N1_52 N 0.9763(5) 0.6356(4) 0.4479(5)
O1_53 O 0.5486(4) 0.5057(4) 0.8902(4)
O2_53 O 0.5654(4) 0.4827(4) 0.8274(4)
O3_53 O 0.5408(9) 0.4396(6) 0.8747(7)
N1_53 N 0.5521(5) 0.4763(5) 0.8644(4)
O2_54 O 0.0654(4) 0.0173(4) 0.1726(4)
O3_54 O 0.0408(9) 0.0604(6) 0.1253(7)
N1_54 N 0.0521(5) 0.0237(5) 0.1356(4)
O1_54 O 0.0486(4) 0.9943(4) 0.1098(4)
O1_55 O 0.9514(4) 0.4943(4) 0.3902(4)
O2_55 O 0.9346(4) 0.5173(4) 0.3274(4)
O3_55 O 0.9592(9) 0.5604(6) 0.3747(7)
N1_55 N 0.9479(5) 0.5237(5) 0.3644(4)
O1_56 O 0.4514(4) 0.0057(4) 0.6098(4)
O2_56 O 0.4346(4) 0.9827(4) 0.6726(4)
O3_56 O 0.4592(9) 0.9396(6) 0.6253(7)
N1_56 N 0.4479(5) 0.9763(5) 0.6356(4)
O1_57 O 0.8902(4) 0.5486(4) 0.5057(4)
O2_57 O 0.8274(4) 0.5654(4) 0.4827(4)
O3_57 O 0.8747(7) 0.5408(9) 0.4396(6)
N1_57 N 0.8644(4) 0.5521(5) 0.4763(5)
O2_58 O 0.1726(4) 0.0654(4) 0.0173(4)
O3_58 O 0.1253(7) 0.0408(9) 0.0604(6)
N1_58 N 0.1356(4) 0.0521(5) 0.0237(5)
O1_58 O 0.1098(4) 0.0486(4) 0.9943(4)
O1_59 O 0.3902(4) 0.9514(4) 0.4943(4)
O2_59 O 0.3274(4) 0.9346(4) 0.5173(4)
O3_59 O 0.3747(7) 0.9592(9) 0.5604(6)
N1_59 N 0.3644(4) 0.9479(5) 0.5237(5)
O1_60 O 0.6098(4) 0.4514(4) 0.0057(4)
O2_60 O 0.6726(4) 0.4346(4) 0.9827(4)
O3_60 O 0.6253(7) 0.4592(9) 0.9396(6)
N1_60 N 0.6356(4) 0.4479(5) 0.9763(5)
O1_61 O 0.1402(4) 0.2557(4) 0.2014(4)
O2_61 O 0.0774(4) 0.2327(4) 0.1846(4)
O3_61 O 0.1247(7) 0.1896(6) 0.2092(9)
N1_61 N 0.1144(4) 0.2263(5) 0.1979(5)
O1_62 O 0.3598(4) 0.7443(4) 0.7014(4)
O2_62 O 0.4226(4) 0.7673(4) 0.6846(4)
O3_62 O 0.3753(7) 0.8104(6) 0.7092(9)
N1_62 N 0.3856(4) 0.7737(5) 0.6979(5)
O1_63 O 0.6402(4) 0.2443(4) 0.7986(4)
O2_63 O 0.5774(4) 0.2673(4) 0.8154(4)
O3_63 O 0.6247(7) 0.3104(6) 0.7908(9)
N1_63 N 0.6144(4) 0.2737(5) 0.8021(5)
O1_64 O 0.8598(4) 0.7557(4) 0.2986(4)
O2_64 O 0.9226(4) 0.7327(4) 0.3154(4)
O3_64 O 0.8753(7) 0.6896(6) 0.2908(9)
N1_64 N 0.8856(4) 0.7263(5) 0.3021(5)
O1_65 O 0.7557(4) 0.2986(4) 0.8598(4)
O2_65 O 0.7327(4) 0.3154(4) 0.9226(4)
O3_65 O 0.6896(6) 0.2908(9) 0.8753(7)
N1_65 N 0.7263(5) 0.3021(5) 0.8856(4)
O1_66 O 0.2443(4) 0.7986(4) 0.6402(4)
O2_66 O 0.2673(4) 0.8154(4) 0.5774(4)
O3_66 O 0.3104(6) 0.7908(9) 0.6247(7)
N1_66 N 0.2737(5) 0.8021(5) 0.6144(4)
O1_67 O 0.7443(4) 0.7014(4) 0.3598(4)
O2_67 O 0.7673(4) 0.6846(4) 0.4226(4)
O3_67 O 0.8104(6) 0.7092(9) 0.3753(7)
N1_67 N 0.7737(5) 0.6979(5) 0.3856(4)
O1_68 O 0.2557(4) 0.2014(4) 0.1402(4)
O2_68 O 0.2327(4) 0.1846(4) 0.0774(4)
O3_68 O 0.1896(6) 0.2092(9) 0.1247(7)
N1_68 N 0.2263(5) 0.1979(5) 0.1144(4)
O1_69 O 0.7986(4) 0.6402(4) 0.2443(4)
O2_69 O 0.8154(4) 0.5774(4) 0.2673(4)
O3_69 O 0.7908(9) 0.6247(7) 0.3104(6)
N1_69 N 0.8021(5) 0.6144(4) 0.2737(5)
O1_70 O 0.2986(4) 0.8598(4) 0.7557(4)
O2_70 O 0.3154(4) 0.9226(4) 0.7327(4)
O3_70 O 0.2908(9) 0.8753(7) 0.6896(6)
N1_70 N 0.3021(5) 0.8856(4) 0.7263(5)
O1_71 O 0.2014(4) 0.1402(4) 0.2557(4)
O2_71 O 0.1846(4) 0.0774(4) 0.2327(4)
O3_71 O 0.2092(9) 0.1247(7) 0.1896(6)
N1_71 N 0.1979(5) 0.1144(4) 0.2263(5)
O1_72 O 0.7014(4) 0.3598(4) 0.7443(4)
O2_72 O 0.6846(4) 0.4226(4) 0.7673(4)
O3_72 O 0.7092(9) 0.3753(7) 0.8104(6)
N1_72 N 0.6979(5) 0.3856(4) 0.7737(5)
O1_73 O 0.0057(4) 0.3902(4) 0.0486(4)
O2_73 O 0.9827(4) 0.3274(4) 0.0654(4)
O3_73 O 0.9396(6) 0.3747(7) 0.0408(9)
N1_73 N 0.9763(5) 0.3644(4) 0.0521(5)
O1_74 O 0.4943(4) 0.6098(4) 0.5486(4)
O2_74 O 0.5173(4) 0.6726(4) 0.5654(4)
O3_74 O 0.5604(6) 0.6253(7) 0.5408(9)
N1_74 N 0.5237(5) 0.6356(4) 0.5521(5)
O2_75 O 0.0173(4) 0.8274(4) 0.4346(4)
O3_75 O 0.0604(6) 0.8747(7) 0.4592(9)
N1_75 N 0.0237(5) 0.8644(4) 0.4479(5)
O1_75 O 0.9943(4) 0.8902(4) 0.4514(4)
O1_76 O 0.5057(4) 0.1098(4) 0.9514(4)
O2_76 O 0.4827(4) 0.1726(4) 0.9346(4)
O3_76 O 0.4396(6) 0.1253(7) 0.9592(9)
N1_76 N 0.4763(5) 0.1356(4) 0.9479(5)
O1_77 O 0.0486(4) 0.0057(4) 0.3902(4)
O2_77 O 0.0654(4) 0.9827(4) 0.3274(4)
O3_77 O 0.0408(9) 0.9396(6) 0.3747(7)
N1_77 N 0.0521(5) 0.9763(5) 0.3644(4)
O1_78 O 0.5486(4) 0.4943(4) 0.6098(4)
O2_78 O 0.5654(4) 0.5173(4) 0.6726(4)
O3_78 O 0.5408(9) 0.5604(6) 0.6253(7)
N1_78 N 0.5521(5) 0.5237(5) 0.6356(4)
O2_79 O 0.4346(4) 0.0173(4) 0.8274(4)
O3_79 O 0.4592(9) 0.0604(6) 0.8747(7)
N1_79 N 0.4479(5) 0.0237(5) 0.8644(4)
O1_79 O 0.4514(4) 0.9943(4) 0.8902(4)
O1_80 O 0.9514(4) 0.5057(4) 0.1098(4)
O2_80 O 0.9346(4) 0.4827(4) 0.1726(4)
O3_80 O 0.9592(9) 0.4396(6) 0.1253(7)
N1_80 N 0.9479(5) 0.4763(5) 0.1356(4)
O1_81 O 0.3902(4) 0.0486(4) 0.0057(4)
O2_81 O 0.3274(4) 0.0654(4) 0.9827(4)
O3_81 O 0.3747(7) 0.0408(9) 0.9396(6)
N1_81 N 0.3644(4) 0.0521(5) 0.9763(5)
O1_82 O 0.6098(4) 0.5486(4) 0.4943(4)
O2_82 O 0.6726(4) 0.5654(4) 0.5173(4)
O3_82 O 0.6253(7) 0.5408(9) 0.5604(6)
N1_82 N 0.6356(4) 0.5521(5) 0.5237(5)
O2_83 O 0.8274(4) 0.4346(4) 0.0173(4)
O3_83 O 0.8747(7) 0.4592(9) 0.0604(6)
N1_83 N 0.8644(4) 0.4479(5) 0.0237(5)
O1_83 O 0.8902(4) 0.4514(4) 0.9943(4)
O1_84 O 0.1098(4) 0.9514(4) 0.5057(4)
O2_84 O 0.1726(4) 0.9346(4) 0.4827(4)
O3_84 O 0.1253(7) 0.9592(9) 0.4396(6)
N1_84 N 0.1356(4) 0.9479(5) 0.4763(5)
O1_85 O 0.6402(4) 0.7557(4) 0.7014(4)
O2_85 O 0.5774(4) 0.7327(4) 0.6846(4)
O3_85 O 0.6247(7) 0.6896(6) 0.7092(9)
N1_85 N 0.6144(4) 0.7263(5) 0.6979(5)
O1_86 O 0.8598(4) 0.2443(4) 0.2014(4)
O2_86 O 0.9226(4) 0.2673(4) 0.1846(4)
O3_86 O 0.8753(7) 0.3104(6) 0.2092(9)
N1_86 N 0.8856(4) 0.2737(5) 0.1979(5)
O1_87 O 0.1402(4) 0.7443(4) 0.2986(4)
O2_87 O 0.0774(4) 0.7673(4) 0.3154(4)
O3_87 O 0.1247(7) 0.8104(6) 0.2908(9)
N1_87 N 0.1144(4) 0.7737(5) 0.3021(5)
O1_88 O 0.3598(4) 0.2557(4) 0.7986(4)
O2_88 O 0.4226(4) 0.2327(4) 0.8154(4)
O3_88 O 0.3753(7) 0.1896(6) 0.7908(9)
N1_88 N 0.3856(4) 0.2263(5) 0.8021(5)
O1_89 O 0.2557(4) 0.7986(4) 0.3598(4)
O2_89 O 0.2327(4) 0.8154(4) 0.4226(4)
O3_89 O 0.1896(6) 0.7908(9) 0.3753(7)
N1_89 N 0.2263(5) 0.8021(5) 0.3856(4)
O1_90 O 0.7443(4) 0.2986(4) 0.1402(4)
O2_90 O 0.7673(4) 0.3154(4) 0.0774(4)
O3_90 O 0.8104(6) 0.2908(9) 0.1247(7)
N1_90 N 0.7737(5) 0.3021(5) 0.1144(4)
O1_91 O 0.2443(4) 0.2014(4) 0.8598(4)
O2_91 O 0.2673(4) 0.1846(4) 0.9226(4)
O3_91 O 0.3104(6) 0.2092(9) 0.8753(7)
N1_91 N 0.2737(5) 0.1979(5) 0.8856(4)
O1_92 O 0.7557(4) 0.7014(4) 0.6402(4)
O2_92 O 0.7327(4) 0.6846(4) 0.5774(4)
O3_92 O 0.6896(6) 0.7092(9) 0.6247(7)
N1_92 N 0.7263(5) 0.6979(5) 0.6144(4)
O1_93 O 0.2986(4) 0.1402(4) 0.7443(4)
O2_93 O 0.3154(4) 0.0774(4) 0.7673(4)
O3_93 O 0.2908(9) 0.1247(7) 0.8104(6)
N1_93 N 0.3021(5) 0.1144(4) 0.7737(5)
O1_94 O 0.7986(4) 0.3598(4) 0.2557(4)
O2_94 O 0.8154(4) 0.4226(4) 0.2327(4)
O3_94 O 0.7908(9) 0.3753(7) 0.1896(6)
N1_94 N 0.8021(5) 0.3856(4) 0.2263(5)
O1_95 O 0.7014(4) 0.6402(4) 0.7557(4)
O2_95 O 0.6846(4) 0.5774(4) 0.7327(4)
O3_95 O 0.7092(9) 0.6247(7) 0.6896(6)
N1_95 N 0.6979(5) 0.6144(4) 0.7263(5)
O1_96 O 0.2014(4) 0.8598(4) 0.2443(4)
O2_96 O 0.1846(4) 0.9226(4) 0.2673(4)
O3_96 O 0.2092(9) 0.8753(7) 0.3104(6)
N1_96 N 0.1979(5) 0.8856(4) 0.2737(5)
Cu1 Cu 0.38082(2) 0.13082(2) 0.375000
Cu2 Cu 0.375000 0.20738(2) 0.54262(2)
Cu3 Cu 0.250000 0.17330(2) 0.500000
F1 F 0.25242(7) 0.22211(9) 0.63847(7)
N2 N 0.33677(8) 0.14049(7) 0.39355(7)
N3 N 0.39579(8) 0.14723(10) 0.41789(8)
N4 N 0.34449(6) 0.18488(7) 0.51860(7)
N5 N 0.29476(6) 0.17503(7) 0.49908(7)
C1 C 0.30769(10) 0.13741(9) 0.38034(9)
H1 H 0.306292 0.130943 0.358427
C2 C 0.27936(10) 0.14320(9) 0.39706(9)
H2 H 0.259091 0.141003 0.386666
C3 C 0.28102(9) 0.15215(9) 0.42881(9)
H3 H 0.261820 0.155381 0.440854
C4 C 0.31123(8) 0.15653(8) 0.44349(8)
C5 C 0.33880(9) 0.15046(8) 0.42457(8)
C6 C 0.37079(9) 0.15483(9) 0.43781(9)
C7 C 0.37563(9) 0.16688(10) 0.46904(9)
C8 C 0.40741(9) 0.17146(14) 0.47925(11)
H4 H 0.411706 0.179721 0.500158
C9 C 0.43220(11) 0.16401(17) 0.45900(12)
H5 H 0.453877 0.166933 0.465747
C10 C 0.42552(11) 0.15216(16) 0.42856(12)
H6 H 0.443044 0.147342 0.414643
C11 C 0.31665(8) 0.16743(8) 0.47561(8)
C12 C 0.34721(8) 0.17329(8) 0.48762(8)
C13 C 0.31247(8) 0.18549(8) 0.52424(8)
C14 C 0.29765(8) 0.19597(9) 0.55473(8)
C15 C 0.30760(8) 0.18322(10) 0.58387(9)
H7 H 0.325042 0.168408 0.584415
C16 C 0.29229(10) 0.19189(12) 0.61238(10)
H8 H 0.298848 0.183121 0.632482
C17 C 0.26737(10) 0.21355(12) 0.61050(11)
C18 C 0.25698(9) 0.22760(11) 0.58211(11)
H9 H 0.239957 0.242900 0.581984
C19 C 0.27230(8) 0.21857(10) 0.55392(10)
H10 H 0.265718 0.227622 0.533952
F2 F 0.49758(7) 0.11153(7) 0.52789(9)
N6 N 0.41323(8) 0.35645(7) 0.60951(7)
N7 N 0.35421(8) 0.33211(8) 0.60277(10)
N8 N 0.40551(6) 0.23140(7) 0.56512(7)
N9 N 0.45524(6) 0.25092(7) 0.57497(7)
C20 C 0.44231(10) 0.36966(9) 0.61259(9)
H11 H 0.443708 0.391573 0.619057
C21 C 0.47064(10) 0.35294(9) 0.60680(9)
H12 H 0.490909 0.363334 0.608997
C22 C 0.46898(9) 0.32119(9) 0.59785(9)
H13 H 0.488180 0.309146 0.594619
C23 C 0.43877(8) 0.30651(8) 0.59347(8)
C24 C 0.41120(9) 0.32543(8) 0.59954(8)
C25 C 0.37921(9) 0.31219(9) 0.59517(9)
C26 C 0.37437(9) 0.28096(9) 0.58312(10)
C27 C 0.34259(9) 0.27075(11) 0.57854(14)
H14 H 0.338294 0.249842 0.570279
C28 C 0.31780(11) 0.29100(12) 0.58599(17)
H15 H 0.296123 0.284253 0.583067
C29 C 0.32448(11) 0.32144(12) 0.59784(16)
H16 H 0.306956 0.335357 0.602658
C30 C 0.43335(8) 0.27439(8) 0.58257(8)
C31 C 0.40279(8) 0.26238(8) 0.57671(8)
C32 C 0.43753(8) 0.22576(8) 0.56451(8)
C33 C 0.45235(8) 0.19527(8) 0.55403(9)
C34 C 0.44240(8) 0.16613(9) 0.56678(10)
H17 H 0.424958 0.165585 0.581592
C35 C 0.45771(10) 0.13762(10) 0.55811(12)
H18 H 0.451152 0.117518 0.566879
C36 C 0.48263(10) 0.13950(11) 0.53645(12)
C37 C 0.49302(9) 0.16789(11) 0.52240(11)
H19 H 0.510043 0.168016 0.507100
C38 C 0.47770(8) 0.19608(10) 0.53143(10)
H20 H 0.484282 0.216048 0.522378
Cu4 Cu 0.36918(2) 0.375000 0.61918(2)
Cu5 Cu 0.500000 0.250000 0.57670(2)
N10 N 0.39049(7) 0.08677(8) 0.35645(7)
N11 N 0.39723(10) 0.14579(8) 0.33211(8)
N12 N 0.20524(6) 0.17503(7) 0.50092(7)
Cu2_2 Cu 0.125000 0.79262(2) 0.04262(2)
Cu3_2 Cu 0.250000 0.82670(2) 0.000000
F1_2 F 0.24758(7) 0.77789(9) 0.13847(7)
N4_2 N 0.15551(6) 0.81512(7) 0.01860(7)
H4_2 H 0.088294 0.820279 0.000158
C13_2 C 0.18753(8) 0.81451(8) 0.02424(8)
C14_2 C 0.20235(8) 0.80403(9) 0.05473(8)
C15_2 C 0.19240(8) 0.81678(10) 0.08387(9)
H7_2 H 0.174958 0.831592 0.084415
C16_2 C 0.20771(10) 0.80811(12) 0.11238(10)
H8_2 H 0.201152 0.816879 0.132482
C17_2 C 0.23263(10) 0.78645(12) 0.11050(11)
C18_2 C 0.24302(9) 0.77240(11) 0.08211(11)
H9_2 H 0.260043 0.757100 0.081984
C19_2 C 0.22770(8) 0.78143(10) 0.05392(10)
H10_2 H 0.234282 0.772378 0.033952
F2_2 F 0.00242(7) 0.88847(7) 0.02789(9)
N6_2 N 0.08677(8) 0.64355(7) 0.10951(7)
N7_2 N 0.14579(8) 0.66789(8) 0.10277(10)
N8_2 N 0.09449(6) 0.76860(7) 0.06512(7)
N9_2 N 0.04476(6) 0.74908(7) 0.07497(7)
C20_2 C 0.05769(10) 0.63034(9) 0.11259(9)
H11_2 H 0.056292 0.608427 0.119057
C21_2 C 0.02936(10) 0.64706(9) 0.10680(9)
H12_2 H 0.009091 0.636666 0.108997
C22_2 C 0.03102(9) 0.67881(9) 0.09785(9)
H13_2 H 0.011820 0.690854 0.094619
C23_2 C 0.06123(8) 0.69349(8) 0.09347(8)
C24_2 C 0.08880(9) 0.67457(8) 0.09954(8)
C25_2 C 0.12079(9) 0.68781(9) 0.09517(9)
C26_2 C 0.12563(9) 0.71904(9) 0.08312(10)
C27_2 C 0.15741(9) 0.72925(11) 0.07854(14)
H14_2 H 0.161706 0.750158 0.070279
C28_2 C 0.18220(11) 0.70900(12) 0.08599(17)
H15_2 H 0.203877 0.715747 0.083067
C29_2 C 0.17552(11) 0.67856(12) 0.09784(16)
H16_2 H 0.193044 0.664643 0.102658
C30_2 C 0.06665(8) 0.72561(8) 0.08257(8)
C31_2 C 0.09721(8) 0.73762(8) 0.07671(8)
C32_2 C 0.06247(8) 0.77424(8) 0.06451(8)
C33_2 C 0.04765(8) 0.80473(8) 0.05403(9)
C34_2 C 0.05760(8) 0.83387(9) 0.06678(10)
H17_2 H 0.075042 0.834415 0.081592
C35_2 C 0.04229(10) 0.86238(10) 0.05811(12)
H18_2 H 0.048848 0.882482 0.066879
C36_2 C 0.01737(10) 0.86050(11) 0.03645(12)
C37_2 C 0.00698(9) 0.83211(11) 0.02240(11)
C38_2 C 0.02230(8) 0.80392(10) 0.03143(10)
H20_2 H 0.015718 0.783952 0.022378
Cu4_2 Cu 0.13082(2) 0.625000 0.11918(2)
Cu5_2 Cu 0.000000 0.750000 0.07670(2)
N12_2 N 0.29476(6) 0.82497(7) 0.00092(7)
Cu1_2 Cu 0.11918(2) 0.86918(2) 0.875000
Cu3_3 Cu 0.250000 0.82670(2) 1.000000
N2_2 N 0.16323(8) 0.85951(7) 0.89355(7)
N3_2 N 0.10421(8) 0.85277(10) 0.91789(8)
N5_2 N 0.20524(6) 0.82497(7) 0.99908(7)
C1_2 C 0.19231(10) 0.86259(9) 0.88034(9)
H1_2 H 0.193708 0.869057 0.858427
C2_2 C 0.22064(10) 0.85680(9) 0.89706(9)
H2_2 H 0.240909 0.858997 0.886666
C3_2 C 0.21898(9) 0.84785(9) 0.92881(9)
H3_2 H 0.238180 0.844619 0.940854
C4_2 C 0.18877(8) 0.84347(8) 0.94349(8)
C5_2 C 0.16120(9) 0.84954(8) 0.92457(8)
C6_2 C 0.12921(9) 0.84517(9) 0.93781(9)
C7_2 C 0.12437(9) 0.83312(10) 0.96904(9)
C8_2 C 0.09259(9) 0.82854(14) 0.97925(11)
C9_2 C 0.06780(11) 0.83599(17) 0.95900(12)
H5_2 H 0.046123 0.833067 0.965747
C10_2 C 0.07448(11) 0.84784(16) 0.92856(12)
H6_2 H 0.056956 0.852658 0.914643
C11_2 C 0.18335(8) 0.83257(8) 0.97561(8)
C12_2 C 0.15279(8) 0.82671(8) 0.98762(8)
N10_2 N 0.10951(7) 0.91323(8) 0.85645(7)
N11_2 N 0.10277(10) 0.85421(8) 0.83211(8)
H19_2 H 0.989957 0.831984 0.007100
Cu5_3 Cu 1.000000 0.750000 0.07670(2)
Cu1_3 Cu 0.61918(2) 0.63082(2) 0.125000
Cu3_4 Cu 0.750000 0.67330(2) 0.000000
N2_3 N 0.66323(8) 0.64049(7) 0.10645(7)
N3_3 N 0.60421(8) 0.64723(10) 0.08211(8)
N5_3 N 0.70524(6) 0.67503(7) 0.00092(7)
C1_3 C 0.69231(10) 0.63741(9) 0.11966(9)
H1_3 H 0.693708 0.630943 0.141573
C2_3 C 0.72064(10) 0.64320(9) 0.10294(9)
H2_3 H 0.740909 0.641003 0.113334
C3_3 C 0.71898(9) 0.65215(9) 0.07119(9)
H3_3 H 0.738180 0.655381 0.059146
C4_3 C 0.68877(8) 0.65653(8) 0.05651(8)
C5_3 C 0.66120(9) 0.65046(8) 0.07543(8)
C6_3 C 0.62921(9) 0.65483(9) 0.06219(9)
C7_3 C 0.62437(9) 0.66688(10) 0.03096(9)
C8_3 C 0.59259(9) 0.67146(14) 0.02075(11)
C9_3 C 0.56780(11) 0.66401(17) 0.04100(12)
H5_3 H 0.546123 0.666933 0.034253
C10_3 C 0.57448(11) 0.65216(16) 0.07144(12)
H6_3 H 0.556956 0.647342 0.085357
C11_3 C 0.68335(8) 0.66743(8) 0.02439(8)
C12_3 C 0.65279(8) 0.67329(8) 0.01238(8)
N10_3 N 0.60951(7) 0.58677(8) 0.14355(7)
N11_3 N 0.60277(10) 0.64579(8) 0.16789(8)
Cu2_3 Cu 0.625000 0.70738(2) 0.95738(2)
Cu3_5 Cu 0.750000 0.67330(2) 1.000000
F1_3 F 0.74758(7) 0.72211(9) 0.86153(7)
N4_3 N 0.65551(6) 0.68488(7) 0.98140(7)
H4_3 H 0.588294 0.679721 0.999842
C13_3 C 0.68753(8) 0.68549(8) 0.97576(8)
C14_3 C 0.70235(8) 0.69597(9) 0.94527(8)
C15_3 C 0.69240(8) 0.68322(10) 0.91613(9)
H7_3 H 0.674958 0.668408 0.915585
C16_3 C 0.70771(10) 0.69189(12) 0.88762(10)
H8_3 H 0.701152 0.683121 0.867518
C17_3 C 0.73263(10) 0.71355(12) 0.88950(11)
C18_3 C 0.74302(9) 0.72760(11) 0.91789(11)
H9_3 H 0.760043 0.742900 0.918016
C19_3 C 0.72770(8) 0.71857(10) 0.94608(10)
H10_3 H 0.734282 0.727622 0.966048
F2_3 F 0.50242(7) 0.61153(7) 0.97211(9)
N6_3 N 0.58677(8) 0.85645(7) 0.89049(7)
N7_3 N 0.64579(8) 0.83211(8) 0.89723(10)
N8_3 N 0.59449(6) 0.73140(7) 0.93488(7)
N9_3 N 0.54476(6) 0.75092(7) 0.92503(7)
C20_3 C 0.55769(10) 0.86966(9) 0.88741(9)
H11_3 H 0.556292 0.891573 0.880943
C21_3 C 0.52936(10) 0.85294(9) 0.89320(9)
H12_3 H 0.509091 0.863334 0.891003
C22_3 C 0.53102(9) 0.82119(9) 0.90215(9)
H13_3 H 0.511820 0.809146 0.905381
C23_3 C 0.56123(8) 0.80651(8) 0.90653(8)
C24_3 C 0.58880(9) 0.82543(8) 0.90046(8)
C25_3 C 0.62079(9) 0.81219(9) 0.90483(9)
C26_3 C 0.62563(9) 0.78096(9) 0.91688(10)
C27_3 C 0.65741(9) 0.77075(11) 0.92146(14)
H14_3 H 0.661706 0.749842 0.929721
C28_3 C 0.68220(11) 0.79100(12) 0.91401(17)
H15_3 H 0.703877 0.784253 0.916933
C29_3 C 0.67552(11) 0.82144(12) 0.90216(16)
H16_3 H 0.693044 0.835357 0.897342
C30_3 C 0.56665(8) 0.77439(8) 0.91743(8)
C31_3 C 0.59721(8) 0.76238(8) 0.92329(8)
C32_3 C 0.56247(8) 0.72576(8) 0.93549(8)
C33_3 C 0.54765(8) 0.69527(8) 0.94597(9)
C34_3 C 0.55760(8) 0.66613(9) 0.93322(10)
H17_3 H 0.575042 0.665585 0.918408
C35_3 C 0.54229(10) 0.63762(10) 0.94189(12)
H18_3 H 0.548848 0.617518 0.933121
C36_3 C 0.51737(10) 0.63950(11) 0.96355(12)
C37_3 C 0.50698(9) 0.66789(11) 0.97760(11)
H19_3 H 0.489957 0.668016 0.992900
C38_3 C 0.52230(8) 0.69608(10) 0.96857(10)
H20_3 H 0.515718 0.716048 0.977622
Cu4_3 Cu 0.63082(2) 0.875000 0.88082(2)
Cu5_4 Cu 0.500000 0.750000 0.92330(2)
N12_3 N 0.79476(6) 0.67503(7) 0.99908(7)
H19_4 H 0.010043 0.331984 0.492900
Cu5_5 Cu -0.000000 0.250000 0.42330(2)
Cu1_4 Cu 0.88082(2) 0.36918(2) 0.625000
Cu2_4 Cu 0.875000 0.29262(2) 0.45738(2)
Cu3_6 Cu 0.750000 0.32670(2) 0.500000
F1_4 F 0.75242(7) 0.27789(9) 0.36153(7)
N2_4 N 0.83677(8) 0.35951(7) 0.60645(7)
N3_4 N 0.89579(8) 0.35277(10) 0.58211(8)
N4_4 N 0.84449(6) 0.31512(7) 0.48140(7)
N5_4 N 0.79476(6) 0.32497(7) 0.50092(7)
C1_4 C 0.80769(10) 0.36259(9) 0.61966(9)
H1_4 H 0.806292 0.369057 0.641573
C2_4 C 0.77936(10) 0.35680(9) 0.60294(9)
H2_4 H 0.759091 0.358997 0.613334
C3_4 C 0.78102(9) 0.34785(9) 0.57119(9)
H3_4 H 0.761820 0.344619 0.559146
C4_4 C 0.81123(8) 0.34347(8) 0.55651(8)
C5_4 C 0.83880(9) 0.34954(8) 0.57543(8)
C6_4 C 0.87079(9) 0.34517(9) 0.56219(9)
C7_4 C 0.87563(9) 0.33312(10) 0.53096(9)
C8_4 C 0.90741(9) 0.32854(14) 0.52075(11)
H4_4 H 0.911706 0.320279 0.499842
C9_4 C 0.93220(11) 0.33599(17) 0.54100(12)
H5_4 H 0.953877 0.333067 0.534253
C10_4 C 0.92552(11) 0.34784(16) 0.57144(12)
H6_4 H 0.943044 0.352658 0.585357
C11_4 C 0.81665(8) 0.33257(8) 0.52439(8)
C12_4 C 0.84721(8) 0.32671(8) 0.51238(8)
C13_4 C 0.81247(8) 0.31451(8) 0.47576(8)
C14_4 C 0.79765(8) 0.30403(9) 0.44527(8)
C15_4 C 0.80760(8) 0.31678(10) 0.41613(9)
H7_4 H 0.825042 0.331592 0.415585
C16_4 C 0.79229(10) 0.30811(12) 0.38762(10)
H8_4 H 0.798848 0.316879 0.367518
C17_4 C 0.76737(10) 0.28645(12) 0.38950(11)
C18_4 C 0.75698(9) 0.27240(11) 0.41789(11)
H9_4 H 0.739957 0.257100 0.418016
C19_4 C 0.77230(8) 0.28143(10) 0.44608(10)
H10_4 H 0.765718 0.272378 0.466048
F2_4 F 0.99758(7) 0.38847(7) 0.47211(9)
N6_4 N 0.91323(8) 0.14355(7) 0.39049(7)
N7_4 N 0.85421(8) 0.16789(8) 0.39723(10)
N8_4 N 0.90551(6) 0.26860(7) 0.43488(7)
N9_4 N 0.95524(6) 0.24908(7) 0.42503(7)
C20_4 C 0.94231(10) 0.13034(9) 0.38741(9)
H11_4 H 0.943708 0.108427 0.380943
C21_4 C 0.97064(10) 0.14706(9) 0.39320(9)
H12_4 H 0.990909 0.136666 0.391003
C22_4 C 0.96898(9) 0.17881(9) 0.40215(9)
H13_4 H 0.988180 0.190854 0.405381
C23_4 C 0.93877(8) 0.19349(8) 0.40653(8)
C24_4 C 0.91120(9) 0.17457(8) 0.40046(8)
C25_4 C 0.87921(9) 0.18781(9) 0.40483(9)
C26_4 C 0.87437(9) 0.21904(9) 0.41688(10)
C27_4 C 0.84259(9) 0.22925(11) 0.42146(14)
H14_4 H 0.838294 0.250158 0.429721
C28_4 C 0.81780(11) 0.20900(12) 0.41401(17)
H15_4 H 0.796123 0.215747 0.416933
C29_4 C 0.82448(11) 0.17856(12) 0.40216(16)
H16_4 H 0.806956 0.164643 0.397342
C30_4 C 0.93335(8) 0.22561(8) 0.41743(8)
C31_4 C 0.90279(8) 0.23762(8) 0.42329(8)
C32_4 C 0.93753(8) 0.27424(8) 0.43549(8)
C33_4 C 0.95235(8) 0.30473(8) 0.44597(9)
C34_4 C 0.94240(8) 0.33387(9) 0.43322(10)
H17_4 H 0.924958 0.334415 0.418408
C35_4 C 0.95771(10) 0.36238(10) 0.44189(12)
H18_4 H 0.951152 0.382482 0.433121
C36_4 C 0.98263(10) 0.36050(11) 0.46355(12)
C37_4 C 0.99302(9) 0.33211(11) 0.47760(11)
C38_4 C 0.97770(8) 0.30392(10) 0.46857(10)
H20_4 H 0.984282 0.283952 0.477622
Cu4_4 Cu 0.86918(2) 0.125000 0.38082(2)
Cu5_6 Cu 1.000000 0.250000 0.42330(2)
N10_4 N 0.89049(7) 0.41323(8) 0.64355(7)
N11_4 N 0.89723(10) 0.35421(8) 0.66789(8)
N12_4 N 0.70524(6) 0.32497(7) 0.49908(7)
Cu1_5 Cu 0.375000 0.38082(2) 0.13082(2)
Cu2_5 Cu 0.54262(2) 0.375000 0.20738(2)
Cu3_7 Cu 0.500000 0.250000 0.17330(2)
F1_5 F 0.63847(7) 0.25242(7) 0.22211(9)
N2_5 N 0.39355(7) 0.33677(8) 0.14049(7)
N3_5 N 0.41789(8) 0.39579(8) 0.14723(10)
N4_5 N 0.51860(7) 0.34449(6) 0.18488(7)
N5_5 N 0.49908(7) 0.29476(6) 0.17503(7)
C1_5 C 0.38034(9) 0.30769(10) 0.13741(9)
H1_5 H 0.358427 0.306292 0.130943
C2_5 C 0.39706(9) 0.27936(10) 0.14320(9)
H2_5 H 0.386666 0.259091 0.141003
C3_5 C 0.42881(9) 0.28102(9) 0.15215(9)
H3_5 H 0.440854 0.261820 0.155381
C4_5 C 0.44349(8) 0.31123(8) 0.15653(8)
C5_5 C 0.42457(8) 0.33880(9) 0.15046(8)
C6_5 C 0.43781(9) 0.37079(9) 0.15483(9)
C7_5 C 0.46904(9) 0.37563(9) 0.16688(10)
C8_5 C 0.47925(11) 0.40741(9) 0.17146(14)
H4_5 H 0.500158 0.411706 0.179721
C9_5 C 0.45900(12) 0.43220(11) 0.16401(17)
H5_5 H 0.465747 0.453877 0.166933
C10_5 C 0.42856(12) 0.42552(11) 0.15216(16)
H6_5 H 0.414643 0.443044 0.147342
C11_5 C 0.47561(8) 0.31665(8) 0.16743(8)
C12_5 C 0.48762(8) 0.34721(8) 0.17329(8)
C13_5 C 0.52424(8) 0.31247(8) 0.18549(8)
C14_5 C 0.55473(8) 0.29765(8) 0.19597(9)
C15_5 C 0.58387(9) 0.30760(8) 0.18322(10)
H7_5 H 0.584415 0.325042 0.168408
C16_5 C 0.61238(10) 0.29229(10) 0.19189(12)
H8_5 H 0.632482 0.298848 0.183121
C17_5 C 0.61050(11) 0.26737(10) 0.21355(12)
C18_5 C 0.58211(11) 0.25698(9) 0.22760(11)
H9_5 H 0.581984 0.239957 0.242900
C19_5 C 0.55392(10) 0.27230(8) 0.21857(10)
H10_5 H 0.533952 0.265718 0.227622
F2_5 F 0.52789(9) 0.49758(7) 0.11153(7)
N6_5 N 0.60951(7) 0.41323(8) 0.35645(7)
N7_5 N 0.60277(10) 0.35421(8) 0.33211(8)
N8_5 N 0.56512(7) 0.40551(6) 0.23140(7)
N9_5 N 0.57497(7) 0.45524(6) 0.25092(7)
C20_5 C 0.61259(9) 0.44231(10) 0.36966(9)
H11_5 H 0.619057 0.443708 0.391573
C21_5 C 0.60680(9) 0.47064(10) 0.35294(9)
H12_5 H 0.608997 0.490909 0.363334
C22_5 C 0.59785(9) 0.46898(9) 0.32119(9)
H13_5 H 0.594619 0.488180 0.309146
C23_5 C 0.59347(8) 0.43877(8) 0.30651(8)
C24_5 C 0.59954(8) 0.41120(9) 0.32543(8)
C25_5 C 0.59517(9) 0.37921(9) 0.31219(9)
C26_5 C 0.58312(10) 0.37437(9) 0.28096(9)
C27_5 C 0.57854(14) 0.34259(9) 0.27075(11)
H14_5 H 0.570279 0.338294 0.249842
C28_5 C 0.58599(17) 0.31780(11) 0.29100(12)
H15_5 H 0.583067 0.296123 0.284253
C29_5 C 0.59784(16) 0.32448(11) 0.32144(12)
H16_5 H 0.602658 0.306956 0.335357
C30_5 C 0.58257(8) 0.43335(8) 0.27439(8)
C31_5 C 0.57671(8) 0.40279(8) 0.26238(8)
C32_5 C 0.56451(8) 0.43753(8) 0.22576(8)
C33_5 C 0.55403(9) 0.45235(8) 0.19527(8)
C34_5 C 0.56678(10) 0.44240(8) 0.16613(9)
H17_5 H 0.581592 0.424958 0.165585
C35_5 C 0.55811(12) 0.45771(10) 0.13762(10)
H18_5 H 0.566879 0.451152 0.117518
C36_5 C 0.53645(12) 0.48263(10) 0.13950(11)
C37_5 C 0.52240(11) 0.49302(9) 0.16789(11)
H19_5 H 0.507100 0.510043 0.168016
C38_5 C 0.53143(10) 0.47770(8) 0.19608(10)
H20_5 H 0.522378 0.484282 0.216048
Cu4_5 Cu 0.61918(2) 0.36918(2) 0.375000
Cu5_7 Cu 0.57670(2) 0.500000 0.250000
N10_5 N 0.35645(7) 0.39049(7) 0.08677(8)
N11_5 N 0.33211(8) 0.39723(10) 0.14579(8)
N12_5 N 0.50092(7) 0.20524(6) 0.17503(7)
Cu2_6 Cu 0.04262(2) 0.125000 0.79262(2)
Cu3_8 Cu 0.000000 0.250000 0.82670(2)
F1_6 F 0.13847(7) 0.24758(7) 0.77789(9)
N4_6 N 0.01860(7) 0.15551(6) 0.81512(7)
H4_6 H 0.000158 0.088294 0.820279
C13_6 C 0.02424(8) 0.18753(8) 0.81451(8)
C14_6 C 0.05473(8) 0.20235(8) 0.80403(9)
C15_6 C 0.08387(9) 0.19240(8) 0.81678(10)
H7_6 H 0.084415 0.174958 0.831592
C16_6 C 0.11238(10) 0.20771(10) 0.80811(12)
H8_6 H 0.132482 0.201152 0.816879
C17_6 C 0.11050(11) 0.23263(10) 0.78645(12)
C18_6 C 0.08211(11) 0.24302(9) 0.77240(11)
H9_6 H 0.081984 0.260043 0.757100
C19_6 C 0.05392(10) 0.22770(8) 0.78143(10)
H10_6 H 0.033952 0.234282 0.772378
F2_6 F 0.02789(9) 0.00242(7) 0.88847(7)
N6_6 N 0.10951(7) 0.08677(8) 0.64355(7)
N7_6 N 0.10277(10) 0.14579(8) 0.66789(8)
N8_6 N 0.06512(7) 0.09449(6) 0.76860(7)
N9_6 N 0.07497(7) 0.04476(6) 0.74908(7)
C20_6 C 0.11259(9) 0.05769(10) 0.63034(9)
H11_6 H 0.119057 0.056292 0.608427
C21_6 C 0.10680(9) 0.02936(10) 0.64706(9)
H12_6 H 0.108997 0.009091 0.636666
C22_6 C 0.09785(9) 0.03102(9) 0.67881(9)
H13_6 H 0.094619 0.011820 0.690854
C23_6 C 0.09347(8) 0.06123(8) 0.69349(8)
C24_6 C 0.09954(8) 0.08880(9) 0.67457(8)
C25_6 C 0.09517(9) 0.12079(9) 0.68781(9)
C26_6 C 0.08312(10) 0.12563(9) 0.71904(9)
C27_6 C 0.07854(14) 0.15741(9) 0.72925(11)
H14_6 H 0.070279 0.161706 0.750158
C28_6 C 0.08599(17) 0.18220(11) 0.70900(12)
H15_6 H 0.083067 0.203877 0.715747
C29_6 C 0.09784(16) 0.17552(11) 0.67856(12)
H16_6 H 0.102658 0.193044 0.664643
C30_6 C 0.08257(8) 0.06665(8) 0.72561(8)
C31_6 C 0.07671(8) 0.09721(8) 0.73762(8)
C32_6 C 0.06451(8) 0.06247(8) 0.77424(8)
C33_6 C 0.05403(9) 0.04765(8) 0.80473(8)
C34_6 C 0.06678(10) 0.05760(8) 0.83387(9)
H17_6 H 0.081592 0.075042 0.834415
C35_6 C 0.05811(12) 0.04229(10) 0.86238(10)
H18_6 H 0.066879 0.048848 0.882482
C36_6 C 0.03645(12) 0.01737(10) 0.86050(11)
C37_6 C 0.02240(11) 0.00698(9) 0.83211(11)
C38_6 C 0.03143(10) 0.02230(8) 0.80392(10)
H20_6 H 0.022378 0.015718 0.783952
Cu4_6 Cu 0.11918(2) 0.13082(2) 0.625000
Cu5_8 Cu 0.07670(2) 0.000000 0.750000
N12_6 N 0.00092(7) 0.29476(6) 0.82497(7)
H19_6 H 0.007100 0.989957 0.831984
Cu5_9 Cu 0.07670(2) 1.000000 0.750000
Cu1_6 Cu 0.875000 0.11918(2) 0.86918(2)
Cu3_9 Cu 1.000000 0.250000 0.82670(2)
N2_6 N 0.89355(7) 0.16323(8) 0.85951(7)
N3_6 N 0.91789(8) 0.10421(8) 0.85277(10)
N5_6 N 0.99908(7) 0.20524(6) 0.82497(7)
C1_6 C 0.88034(9) 0.19231(10) 0.86259(9)
H1_6 H 0.858427 0.193708 0.869057
C2_6 C 0.89706(9) 0.22064(10) 0.85680(9)
H2_6 H 0.886666 0.240909 0.858997
C3_6 C 0.92881(9) 0.21898(9) 0.84785(9)
H3_6 H 0.940854 0.238180 0.844619
C4_6 C 0.94349(8) 0.18877(8) 0.84347(8)
C5_6 C 0.92457(8) 0.16120(9) 0.84954(8)
C6_6 C 0.93781(9) 0.12921(9) 0.84517(9)
C7_6 C 0.96904(9) 0.12437(9) 0.83312(10)
C8_6 C 0.97925(11) 0.09259(9) 0.82854(14)
C9_6 C 0.95900(12) 0.06780(11) 0.83599(17)
H5_6 H 0.965747 0.046123 0.833067
C10_6 C 0.92856(12) 0.07448(11) 0.84784(16)
H6_6 H 0.914643 0.056956 0.852658
C11_6 C 0.97561(8) 0.18335(8) 0.83257(8)
C12_6 C 0.98762(8) 0.15279(8) 0.82671(8)
N10_6 N 0.85645(7) 0.10951(7) 0.91323(8)
N11_6 N 0.83211(8) 0.10277(10) 0.85421(8)
Cu1_7 Cu 0.125000 0.61918(2) 0.63082(2)
Cu3_10 Cu 0.000000 0.750000 0.67330(2)
N2_7 N 0.10645(7) 0.66323(8) 0.64049(7)
N3_7 N 0.08211(8) 0.60421(8) 0.64723(10)
N5_7 N 0.00092(7) 0.70524(6) 0.67503(7)
C1_7 C 0.11966(9) 0.69231(10) 0.63741(9)
H1_7 H 0.141573 0.693708 0.630943
C2_7 C 0.10294(9) 0.72064(10) 0.64320(9)
H2_7 H 0.113334 0.740909 0.641003
C3_7 C 0.07119(9) 0.71898(9) 0.65215(9)
H3_7 H 0.059146 0.738180 0.655381
C4_7 C 0.05651(8) 0.68877(8) 0.65653(8)
C5_7 C 0.07543(8) 0.66120(9) 0.65046(8)
C6_7 C 0.06219(9) 0.62921(9) 0.65483(9)
C7_7 C 0.03096(9) 0.62437(9) 0.66688(10)
C8_7 C 0.02075(11) 0.59259(9) 0.67146(14)
C9_7 C 0.04100(12) 0.56780(11) 0.66401(17)
H5_7 H 0.034253 0.546123 0.666933
C10_7 C 0.07144(12) 0.57448(11) 0.65216(16)
H6_7 H 0.085357 0.556956 0.647342
C11_7 C 0.02439(8) 0.68335(8) 0.66743(8)
C12_7 C 0.01238(8) 0.65279(8) 0.67329(8)
N10_7 N 0.14355(7) 0.60951(7) 0.58677(8)
N11_7 N 0.16789(8) 0.60277(10) 0.64579(8)
Cu2_7 Cu 0.95738(2) 0.625000 0.70738(2)
Cu3_11 Cu 1.000000 0.750000 0.67330(2)
F1_7 F 0.86153(7) 0.74758(7) 0.72211(9)
N4_7 N 0.98140(7) 0.65551(6) 0.68488(7)
H4_7 H 0.999842 0.588294 0.679721
C13_7 C 0.97576(8) 0.68753(8) 0.68549(8)
C14_7 C 0.94527(8) 0.70235(8) 0.69597(9)
C15_7 C 0.91613(9) 0.69240(8) 0.68322(10)
H7_7 H 0.915585 0.674958 0.668408
C16_7 C 0.88762(10) 0.70771(10) 0.69189(12)
H8_7 H 0.867518 0.701152 0.683121
C17_7 C 0.88950(11) 0.73263(10) 0.71355(12)
C18_7 C 0.91789(11) 0.74302(9) 0.72760(11)
H9_7 H 0.918016 0.760043 0.742900
C19_7 C 0.94608(10) 0.72770(8) 0.71857(10)
H10_7 H 0.966048 0.734282 0.727622
F2_7 F 0.97211(9) 0.50242(7) 0.61153(7)
N6_7 N 0.89049(7) 0.58677(8) 0.85645(7)
N7_7 N 0.89723(10) 0.64579(8) 0.83211(8)
N8_7 N 0.93488(7) 0.59449(6) 0.73140(7)
N9_7 N 0.92503(7) 0.54476(6) 0.75092(7)
C20_7 C 0.88741(9) 0.55769(10) 0.86966(9)
H11_7 H 0.880943 0.556292 0.891573
C21_7 C 0.89320(9) 0.52936(10) 0.85294(9)
H12_7 H 0.891003 0.509091 0.863334
C22_7 C 0.90215(9) 0.53102(9) 0.82119(9)
H13_7 H 0.905381 0.511820 0.809146
C23_7 C 0.90653(8) 0.56123(8) 0.80651(8)
C24_7 C 0.90046(8) 0.58880(9) 0.82543(8)
C25_7 C 0.90483(9) 0.62079(9) 0.81219(9)
C26_7 C 0.91688(10) 0.62563(9) 0.78096(9)
C27_7 C 0.92146(14) 0.65741(9) 0.77075(11)
H14_7 H 0.929721 0.661706 0.749842
C28_7 C 0.91401(17) 0.68220(11) 0.79100(12)
H15_7 H 0.916933 0.703877 0.784253
C29_7 C 0.90216(16) 0.67552(11) 0.82144(12)
H16_7 H 0.897342 0.693044 0.835357
C30_7 C 0.91743(8) 0.56665(8) 0.77439(8)
C31_7 C 0.92329(8) 0.59721(8) 0.76238(8)
C32_7 C 0.93549(8) 0.56247(8) 0.72576(8)
C33_7 C 0.94597(9) 0.54765(8) 0.69527(8)
C34_7 C 0.93322(10) 0.55760(8) 0.66613(9)
H17_7 H 0.918408 0.575042 0.665585
C35_7 C 0.94189(12) 0.54229(10) 0.63762(10)
H18_7 H 0.933121 0.548848 0.617518
C36_7 C 0.96355(12) 0.51737(10) 0.63950(11)
C37_7 C 0.97760(11) 0.50698(9) 0.66789(11)
H19_7 H 0.992900 0.489957 0.668016
C38_7 C 0.96857(10) 0.52230(8) 0.69608(10)
H20_7 H 0.977622 0.515718 0.716048
Cu4_7 Cu 0.88082(2) 0.63082(2) 0.875000
Cu5_10 Cu 0.92330(2) 0.500000 0.750000
N12_7 N 0.99908(7) 0.79476(6) 0.67503(7)
H19_8 H 0.492900 0.010043 0.331984
Cu5_11 Cu 0.42330(2) -0.000000 0.250000
Cu1_8 Cu 0.625000 0.88082(2) 0.36918(2)
Cu2_8 Cu 0.45738(2) 0.875000 0.29262(2)
Cu3_12 Cu 0.500000 0.750000 0.32670(2)
F1_8 F 0.36153(7) 0.75242(7) 0.27789(9)
N2_8 N 0.60645(7) 0.83677(8) 0.35951(7)
N3_8 N 0.58211(8) 0.89579(8) 0.35277(10)
N4_8 N 0.48140(7) 0.84449(6) 0.31512(7)
N5_8 N 0.50092(7) 0.79476(6) 0.32497(7)
C1_8 C 0.61966(9) 0.80769(10) 0.36259(9)
H1_8 H 0.641573 0.806292 0.369057
C2_8 C 0.60294(9) 0.77936(10) 0.35680(9)
H2_8 H 0.613334 0.759091 0.358997
C3_8 C 0.57119(9) 0.78102(9) 0.34785(9)
H3_8 H 0.559146 0.761820 0.344619
C4_8 C 0.55651(8) 0.81123(8) 0.34347(8)
C5_8 C 0.57543(8) 0.83880(9) 0.34954(8)
C6_8 C 0.56219(9) 0.87079(9) 0.34517(9)
C7_8 C 0.53096(9) 0.87563(9) 0.33312(10)
C8_8 C 0.52075(11) 0.90741(9) 0.32854(14)
H4_8 H 0.499842 0.911706 0.320279
C9_8 C 0.54100(12) 0.93220(11) 0.33599(17)
H5_8 H 0.534253 0.953877 0.333067
C10_8 C 0.57144(12) 0.92552(11) 0.34784(16)
H6_8 H 0.585357 0.943044 0.352658
C11_8 C 0.52439(8) 0.81665(8) 0.33257(8)
C12_8 C 0.51238(8) 0.84721(8) 0.32671(8)
C13_8 C 0.47576(8) 0.81247(8) 0.31451(8)
C14_8 C 0.44527(8) 0.79765(8) 0.30403(9)
C15_8 C 0.41613(9) 0.80760(8) 0.31678(10)
H7_8 H 0.415585 0.825042 0.331592
C16_8 C 0.38762(10) 0.79229(10) 0.30811(12)
H8_8 H 0.367518 0.798848 0.316879
C17_8 C 0.38950(11) 0.76737(10) 0.28645(12)
C18_8 C 0.41789(11) 0.75698(9) 0.27240(11)
H9_8 H 0.418016 0.739957 0.257100
C19_8 C 0.44608(10) 0.77230(8) 0.28143(10)
H10_8 H 0.466048 0.765718 0.272378
F2_8 F 0.47211(9) 0.99758(7) 0.38847(7)
N6_8 N 0.39049(7) 0.91323(8) 0.14355(7)
N7_8 N 0.39723(10) 0.85421(8) 0.16789(8)
N8_8 N 0.43488(7) 0.90551(6) 0.26860(7)
N9_8 N 0.42503(7) 0.95524(6) 0.24908(7)
C20_8 C 0.38741(9) 0.94231(10) 0.13034(9)
H11_8 H 0.380943 0.943708 0.108427
C21_8 C 0.39320(9) 0.97064(10) 0.14706(9)
H12_8 H 0.391003 0.990909 0.136666
C22_8 C 0.40215(9) 0.96898(9) 0.17881(9)
H13_8 H 0.405381 0.988180 0.190854
C23_8 C 0.40653(8) 0.93877(8) 0.19349(8)
C24_8 C 0.40046(8) 0.91120(9) 0.17457(8)
C25_8 C 0.40483(9) 0.87921(9) 0.18781(9)
C26_8 C 0.41688(10) 0.87437(9) 0.21904(9)
C27_8 C 0.42146(14) 0.84259(9) 0.22925(11)
H14_8 H 0.429721 0.838294 0.250158
C28_8 C 0.41401(17) 0.81780(11) 0.20900(12)
H15_8 H 0.416933 0.796123 0.215747
C29_8 C 0.40216(16) 0.82448(11) 0.17856(12)
H16_8 H 0.397342 0.806956 0.164643
C30_8 C 0.41743(8) 0.93335(8) 0.22561(8)
C31_8 C 0.42329(8) 0.90279(8) 0.23762(8)
C32_8 C 0.43549(8) 0.93753(8) 0.27424(8)
C33_8 C 0.44597(9) 0.95235(8) 0.30473(8)
C34_8 C 0.43322(10) 0.94240(8) 0.33387(9)
H17_8 H 0.418408 0.924958 0.334415
C35_8 C 0.44189(12) 0.95771(10) 0.36238(10)
H18_8 H 0.433121 0.951152 0.382482
C36_8 C 0.46355(12) 0.98263(10) 0.36050(11)
C37_8 C 0.47760(11) 0.99302(9) 0.33211(11)
C38_8 C 0.46857(10) 0.97770(8) 0.30392(10)
H20_8 H 0.477622 0.984282 0.283952
Cu4_8 Cu 0.38082(2) 0.86918(2) 0.125000
Cu5_12 Cu 0.42330(2) 1.000000 0.250000
N10_8 N 0.64355(7) 0.89049(7) 0.41323(8)
N11_8 N 0.66789(8) 0.89723(10) 0.35421(8)
N12_8 N 0.49908(7) 0.70524(6) 0.32497(7)
Cu1_9 Cu 0.13082(2) 0.375000 0.38082(2)
Cu2_9 Cu 0.20738(2) 0.54262(2) 0.375000
Cu3_13 Cu 0.17330(2) 0.500000 0.250000
F1_9 F 0.22211(9) 0.63847(7) 0.25242(7)
N2_9 N 0.14049(7) 0.39355(7) 0.33677(8)
N3_9 N 0.14723(10) 0.41789(8) 0.39579(8)
N4_9 N 0.18488(7) 0.51860(7) 0.34449(6)
N5_9 N 0.17503(7) 0.49908(7) 0.29476(6)
C1_9 C 0.13741(9) 0.38034(9) 0.30769(10)
H1_9 H 0.130943 0.358427 0.306292
C2_9 C 0.14320(9) 0.39706(9) 0.27936(10)
H2_9 H 0.141003 0.386666 0.259091
C3_9 C 0.15215(9) 0.42881(9) 0.28102(9)
H3_9 H 0.155381 0.440854 0.261820
C4_9 C 0.15653(8) 0.44349(8) 0.31123(8)
C5_9 C 0.15046(8) 0.42457(8) 0.33880(9)
C6_9 C 0.15483(9) 0.43781(9) 0.37079(9)
C7_9 C 0.16688(10) 0.46904(9) 0.37563(9)
C8_9 C 0.17146(14) 0.47925(11) 0.40741(9)
H4_9 H 0.179721 0.500158 0.411706
C9_9 C 0.16401(17) 0.45900(12) 0.43220(11)
H5_9 H 0.166933 0.465747 0.453877
C10_9 C 0.15216(16) 0.42856(12) 0.42552(11)
H6_9 H 0.147342 0.414643 0.443044
C11_9 C 0.16743(8) 0.47561(8) 0.31665(8)
C12_9 C 0.17329(8) 0.48762(8) 0.34721(8)
C13_9 C 0.18549(8) 0.52424(8) 0.31247(8)
C14_9 C 0.19597(9) 0.55473(8) 0.29765(8)
C15_9 C 0.18322(10) 0.58387(9) 0.30760(8)
H7_9 H 0.168408 0.584415 0.325042
C16_9 C 0.19189(12) 0.61238(10) 0.29229(10)
H8_9 H 0.183121 0.632482 0.298848
C17_9 C 0.21355(12) 0.61050(11) 0.26737(10)
C18_9 C 0.22760(11) 0.58211(11) 0.25698(9)
H9_9 H 0.242900 0.581984 0.239957
C19_9 C 0.21857(10) 0.55392(10) 0.27230(8)
H10_9 H 0.227622 0.533952 0.265718
F2_9 F 0.11153(7) 0.52789(9) 0.49758(7)
N6_9 N 0.35645(7) 0.60951(7) 0.41323(8)
N7_9 N 0.33211(8) 0.60277(10) 0.35421(8)
N8_9 N 0.23140(7) 0.56512(7) 0.40551(6)
N9_9 N 0.25092(7) 0.57497(7) 0.45524(6)
C20_9 C 0.36966(9) 0.61259(9) 0.44231(10)
H11_9 H 0.391573 0.619057 0.443708
C21_9 C 0.35294(9) 0.60680(9) 0.47064(10)
H12_9 H 0.363334 0.608997 0.490909
C22_9 C 0.32119(9) 0.59785(9) 0.46898(9)
H13_9 H 0.309146 0.594619 0.488180
C23_9 C 0.30651(8) 0.59347(8) 0.43877(8)
C24_9 C 0.32543(8) 0.59954(8) 0.41120(9)
C25_9 C 0.31219(9) 0.59517(9) 0.37921(9)
C26_9 C 0.28096(9) 0.58312(10) 0.37437(9)
C27_9 C 0.27075(11) 0.57854(14) 0.34259(9)
H14_9 H 0.249842 0.570279 0.338294
C28_9 C 0.29100(12) 0.58599(17) 0.31780(11)
H15_9 H 0.284253 0.583067 0.296123
C29_9 C 0.32144(12) 0.59784(16) 0.32448(11)
H16_9 H 0.335357 0.602658 0.306956
C30_9 C 0.27439(8) 0.58257(8) 0.43335(8)
C31_9 C 0.26238(8) 0.57671(8) 0.40279(8)
C32_9 C 0.22576(8) 0.56451(8) 0.43753(8)
C33_9 C 0.19527(8) 0.55403(9) 0.45235(8)
C34_9 C 0.16613(9) 0.56678(10) 0.44240(8)
H17_9 H 0.165585 0.581592 0.424958
C35_9 C 0.13762(10) 0.55811(12) 0.45771(10)
H18_9 H 0.117518 0.566879 0.451152
C36_9 C 0.13950(11) 0.53645(12) 0.48263(10)
C37_9 C 0.16789(11) 0.52240(11) 0.49302(9)
H19_9 H 0.168016 0.507100 0.510043
C38_9 C 0.19608(10) 0.53143(10) 0.47770(8)
H20_9 H 0.216048 0.522378 0.484282
Cu4_9 Cu 0.375000 0.61918(2) 0.36918(2)
Cu5_13 Cu 0.250000 0.57670(2) 0.500000
N10_9 N 0.08677(8) 0.35645(7) 0.39049(7)
N11_9 N 0.14579(8) 0.33211(8) 0.39723(10)
N12_9 N 0.17503(7) 0.50092(7) 0.20524(6)
Cu2_10 Cu 0.79262(2) 0.04262(2) 0.125000
Cu3_14 Cu 0.82670(2) 0.000000 0.250000
F1_10 F 0.77789(9) 0.13847(7) 0.24758(7)
N4_10 N 0.81512(7) 0.01860(7) 0.15551(6)
H4_10 H 0.820279 0.000158 0.088294
C13_10 C 0.81451(8) 0.02424(8) 0.18753(8)
C14_10 C 0.80403(9) 0.05473(8) 0.20235(8)
C15_10 C 0.81678(10) 0.08387(9) 0.19240(8)
H7_10 H 0.831592 0.084415 0.174958
C16_10 C 0.80811(12) 0.11238(10) 0.20771(10)
H8_10 H 0.816879 0.132482 0.201152
C17_10 C 0.78645(12) 0.11050(11) 0.23263(10)
C18_10 C 0.77240(11) 0.08211(11) 0.24302(9)
H9_10 H 0.757100 0.081984 0.260043
C19_10 C 0.78143(10) 0.05392(10) 0.22770(8)
H10_10 H 0.772378 0.033952 0.234282
F2_10 F 0.88847(7) 0.02789(9) 0.00242(7)
N6_10 N 0.64355(7) 0.10951(7) 0.08677(8)
N7_10 N 0.66789(8) 0.10277(10) 0.14579(8)
N8_10 N 0.76860(7) 0.06512(7) 0.09449(6)
N9_10 N 0.74908(7) 0.07497(7) 0.04476(6)
C20_10 C 0.63034(9) 0.11259(9) 0.05769(10)
H11_10 H 0.608427 0.119057 0.056292
C21_10 C 0.64706(9) 0.10680(9) 0.02936(10)
H12_10 H 0.636666 0.108997 0.009091
C22_10 C 0.67881(9) 0.09785(9) 0.03102(9)
H13_10 H 0.690854 0.094619 0.011820
C23_10 C 0.69349(8) 0.09347(8) 0.06123(8)
C24_10 C 0.67457(8) 0.09954(8) 0.08880(9)
C25_10 C 0.68781(9) 0.09517(9) 0.12079(9)
C26_10 C 0.71904(9) 0.08312(10) 0.12563(9)
C27_10 C 0.72925(11) 0.07854(14) 0.15741(9)
H14_10 H 0.750158 0.070279 0.161706
C28_10 C 0.70900(12) 0.08599(17) 0.18220(11)
H15_10 H 0.715747 0.083067 0.203877
C29_10 C 0.67856(12) 0.09784(16) 0.17552(11)
H16_10 H 0.664643 0.102658 0.193044
C30_10 C 0.72561(8) 0.08257(8) 0.06665(8)
C31_10 C 0.73762(8) 0.07671(8) 0.09721(8)
C32_10 C 0.77424(8) 0.06451(8) 0.06247(8)
C33_10 C 0.80473(8) 0.05403(9) 0.04765(8)
C34_10 C 0.83387(9) 0.06678(10) 0.05760(8)
H17_10 H 0.834415 0.081592 0.075042
C35_10 C 0.86238(10) 0.05811(12) 0.04229(10)
H18_10 H 0.882482 0.066879 0.048848
C36_10 C 0.86050(11) 0.03645(12) 0.01737(10)
C37_10 C 0.83211(11) 0.02240(11) 0.00698(9)
C38_10 C 0.80392(10) 0.03143(10) 0.02230(8)
H20_10 H 0.783952 0.022378 0.015718
Cu4_10 Cu 0.625000 0.11918(2) 0.13082(2)
Cu5_14 Cu 0.750000 0.07670(2) 0.000000
N12_10 N 0.82497(7) 0.00092(7) 0.29476(6)
H19_10 H 0.831984 0.007100 0.989957
Cu5_15 Cu 0.750000 0.07670(2) 1.000000
Cu1_10 Cu 0.86918(2) 0.875000 0.11918(2)
Cu3_15 Cu 0.82670(2) 1.000000 0.250000
N2_10 N 0.85951(7) 0.89355(7) 0.16323(8)
N3_10 N 0.85277(10) 0.91789(8) 0.10421(8)
N5_10 N 0.82497(7) 0.99908(7) 0.20524(6)
C1_10 C 0.86259(9) 0.88034(9) 0.19231(10)
H1_10 H 0.869057 0.858427 0.193708
C2_10 C 0.85680(9) 0.89706(9) 0.22064(10)
H2_10 H 0.858997 0.886666 0.240909
C3_10 C 0.84785(9) 0.92881(9) 0.21898(9)
H3_10 H 0.844619 0.940854 0.238180
C4_10 C 0.84347(8) 0.94349(8) 0.18877(8)
C5_10 C 0.84954(8) 0.92457(8) 0.16120(9)
C6_10 C 0.84517(9) 0.93781(9) 0.12921(9)
C7_10 C 0.83312(10) 0.96904(9) 0.12437(9)
C8_10 C 0.82854(14) 0.97925(11) 0.09259(9)
C9_10 C 0.83599(17) 0.95900(12) 0.06780(11)
H5_10 H 0.833067 0.965747 0.046123
C10_10 C 0.84784(16) 0.92856(12) 0.07448(11)
H6_10 H 0.852658 0.914643 0.056956
C11_10 C 0.83257(8) 0.97561(8) 0.18335(8)
C12_10 C 0.82671(8) 0.98762(8) 0.15279(8)
N10_10 N 0.91323(8) 0.85645(7) 0.10951(7)
N11_10 N 0.85421(8) 0.83211(8) 0.10277(10)
Cu1_11 Cu 0.63082(2) 0.125000 0.61918(2)
Cu3_16 Cu 0.67330(2) 0.000000 0.750000
N2_11 N 0.64049(7) 0.10645(7) 0.66323(8)
N3_11 N 0.64723(10) 0.08211(8) 0.60421(8)
N5_11 N 0.67503(7) 0.00092(7) 0.70524(6)
C1_11 C 0.63741(9) 0.11966(9) 0.69231(10)
H1_11 H 0.630943 0.141573 0.693708
C2_11 C 0.64320(9) 0.10294(9) 0.72064(10)
H2_11 H 0.641003 0.113334 0.740909
C3_11 C 0.65215(9) 0.07119(9) 0.71898(9)
H3_11 H 0.655381 0.059146 0.738180
C4_11 C 0.65653(8) 0.05651(8) 0.68877(8)
C5_11 C 0.65046(8) 0.07543(8) 0.66120(9)
C6_11 C 0.65483(9) 0.06219(9) 0.62921(9)
C7_11 C 0.66688(10) 0.03096(9) 0.62437(9)
C8_11 C 0.67146(14) 0.02075(11) 0.59259(9)
C9_11 C 0.66401(17) 0.04100(12) 0.56780(11)
H5_11 H 0.666933 0.034253 0.546123
C10_11 C 0.65216(16) 0.07144(12) 0.57448(11)
H6_11 H 0.647342 0.085357 0.556956
C11_11 C 0.66743(8) 0.02439(8) 0.68335(8)
C12_11 C 0.67329(8) 0.01238(8) 0.65279(8)
N10_11 N 0.58677(8) 0.14355(7) 0.60951(7)
N11_11 N 0.64579(8) 0.16789(8) 0.60277(10)
Cu2_11 Cu 0.70738(2) 0.95738(2) 0.625000
Cu3_17 Cu 0.67330(2) 1.000000 0.750000
F1_11 F 0.72211(9) 0.86153(7) 0.74758(7)
N4_11 N 0.68488(7) 0.98140(7) 0.65551(6)
H4_11 H 0.679721 0.999842 0.588294
C13_11 C 0.68549(8) 0.97576(8) 0.68753(8)
C14_11 C 0.69597(9) 0.94527(8) 0.70235(8)
C15_11 C 0.68322(10) 0.91613(9) 0.69240(8)
H7_11 H 0.668408 0.915585 0.674958
C16_11 C 0.69189(12) 0.88762(10) 0.70771(10)
H8_11 H 0.683121 0.867518 0.701152
C17_11 C 0.71355(12) 0.88950(11) 0.73263(10)
C18_11 C 0.72760(11) 0.91789(11) 0.74302(9)
H9_11 H 0.742900 0.918016 0.760043
C19_11 C 0.71857(10) 0.94608(10) 0.72770(8)
H10_11 H 0.727622 0.966048 0.734282
F2_11 F 0.61153(7) 0.97211(9) 0.50242(7)
N6_11 N 0.85645(7) 0.89049(7) 0.58677(8)
N7_11 N 0.83211(8) 0.89723(10) 0.64579(8)
N8_11 N 0.73140(7) 0.93488(7) 0.59449(6)
N9_11 N 0.75092(7) 0.92503(7) 0.54476(6)
C20_11 C 0.86966(9) 0.88741(9) 0.55769(10)
H11_11 H 0.891573 0.880943 0.556292
C21_11 C 0.85294(9) 0.89320(9) 0.52936(10)
H12_11 H 0.863334 0.891003 0.509091
C22_11 C 0.82119(9) 0.90215(9) 0.53102(9)
H13_11 H 0.809146 0.905381 0.511820
C23_11 C 0.80651(8) 0.90653(8) 0.56123(8)
C24_11 C 0.82543(8) 0.90046(8) 0.58880(9)
C25_11 C 0.81219(9) 0.90483(9) 0.62079(9)
C26_11 C 0.78096(9) 0.91688(10) 0.62563(9)
C27_11 C 0.77075(11) 0.92146(14) 0.65741(9)
H14_11 H 0.749842 0.929721 0.661706
C28_11 C 0.79100(12) 0.91401(17) 0.68220(11)
H15_11 H 0.784253 0.916933 0.703877
C29_11 C 0.82144(12) 0.90216(16) 0.67552(11)
H16_11 H 0.835357 0.897342 0.693044
C30_11 C 0.77439(8) 0.91743(8) 0.56665(8)
C31_11 C 0.76238(8) 0.92329(8) 0.59721(8)
C32_11 C 0.72576(8) 0.93549(8) 0.56247(8)
C33_11 C 0.69527(8) 0.94597(9) 0.54765(8)
C34_11 C 0.66613(9) 0.93322(10) 0.55760(8)
H17_11 H 0.665585 0.918408 0.575042
C35_11 C 0.63762(10) 0.94189(12) 0.54229(10)
H18_11 H 0.617518 0.933121 0.548848
C36_11 C 0.63950(11) 0.96355(12) 0.51737(10)
C37_11 C 0.66789(11) 0.97760(11) 0.50698(9)
H19_11 H 0.668016 0.992900 0.489957
C38_11 C 0.69608(10) 0.96857(10) 0.52230(8)
H20_11 H 0.716048 0.977622 0.515718
Cu4_11 Cu 0.875000 0.88082(2) 0.63082(2)
Cu5_16 Cu 0.750000 0.92330(2) 0.500000
N12_11 N 0.67503(7) 0.99908(7) 0.79476(6)
H19_12 H 0.331984 0.492900 0.010043
Cu5_17 Cu 0.250000 0.42330(2) -0.000000
Cu1_12 Cu 0.36918(2) 0.625000 0.88082(2)
Cu2_12 Cu 0.29262(2) 0.45738(2) 0.875000
Cu3_18 Cu 0.32670(2) 0.500000 0.750000
F1_12 F 0.27789(9) 0.36153(7) 0.75242(7)
N2_12 N 0.35951(7) 0.60645(7) 0.83677(8)
N3_12 N 0.35277(10) 0.58211(8) 0.89579(8)
N4_12 N 0.31512(7) 0.48140(7) 0.84449(6)
N5_12 N 0.32497(7) 0.50092(7) 0.79476(6)
C1_12 C 0.36259(9) 0.61966(9) 0.80769(10)
H1_12 H 0.369057 0.641573 0.806292
C2_12 C 0.35680(9) 0.60294(9) 0.77936(10)
H2_12 H 0.358997 0.613334 0.759091
C3_12 C 0.34785(9) 0.57119(9) 0.78102(9)
H3_12 H 0.344619 0.559146 0.761820
C4_12 C 0.34347(8) 0.55651(8) 0.81123(8)
C5_12 C 0.34954(8) 0.57543(8) 0.83880(9)
C6_12 C 0.34517(9) 0.56219(9) 0.87079(9)
C7_12 C 0.33312(10) 0.53096(9) 0.87563(9)
C8_12 C 0.32854(14) 0.52075(11) 0.90741(9)
H4_12 H 0.320279 0.499842 0.911706
C9_12 C 0.33599(17) 0.54100(12) 0.93220(11)
H5_12 H 0.333067 0.534253 0.953877
C10_12 C 0.34784(16) 0.57144(12) 0.92552(11)
H6_12 H 0.352658 0.585357 0.943044
C11_12 C 0.33257(8) 0.52439(8) 0.81665(8)
C12_12 C 0.32671(8) 0.51238(8) 0.84721(8)
C13_12 C 0.31451(8) 0.47576(8) 0.81247(8)
C14_12 C 0.30403(9) 0.44527(8) 0.79765(8)
C15_12 C 0.31678(10) 0.41613(9) 0.80760(8)
H7_12 H 0.331592 0.415585 0.825042
C16_12 C 0.30811(12) 0.38762(10) 0.79229(10)
H8_12 H 0.316879 0.367518 0.798848
C17_12 C 0.28645(12) 0.38950(11) 0.76737(10)
C18_12 C 0.27240(11) 0.41789(11) 0.75698(9)
H9_12 H 0.257100 0.418016 0.739957
C19_12 C 0.28143(10) 0.44608(10) 0.77230(8)
H10_12 H 0.272378 0.466048 0.765718
F2_12 F 0.38847(7) 0.47211(9) 0.99758(7)
N6_12 N 0.14355(7) 0.39049(7) 0.91323(8)
N7_12 N 0.16789(8) 0.39723(10) 0.85421(8)
N8_12 N 0.26860(7) 0.43488(7) 0.90551(6)
N9_12 N 0.24908(7) 0.42503(7) 0.95524(6)
C20_12 C 0.13034(9) 0.38741(9) 0.94231(10)
H11_12 H 0.108427 0.380943 0.943708
C21_12 C 0.14706(9) 0.39320(9) 0.97064(10)
H12_12 H 0.136666 0.391003 0.990909
C22_12 C 0.17881(9) 0.40215(9) 0.96898(9)
H13_12 H 0.190854 0.405381 0.988180
C23_12 C 0.19349(8) 0.40653(8) 0.93877(8)
C24_12 C 0.17457(8) 0.40046(8) 0.91120(9)
C25_12 C 0.18781(9) 0.40483(9) 0.87921(9)
C26_12 C 0.21904(9) 0.41688(10) 0.87437(9)
C27_12 C 0.22925(11) 0.42146(14) 0.84259(9)
H14_12 H 0.250158 0.429721 0.838294
C28_12 C 0.20900(12) 0.41401(17) 0.81780(11)
H15_12 H 0.215747 0.416933 0.796123
C29_12 C 0.17856(12) 0.40216(16) 0.82448(11)
H16_12 H 0.164643 0.397342 0.806956
C30_12 C 0.22561(8) 0.41743(8) 0.93335(8)
C31_12 C 0.23762(8) 0.42329(8) 0.90279(8)
C32_12 C 0.27424(8) 0.43549(8) 0.93753(8)
C33_12 C 0.30473(8) 0.44597(9) 0.95235(8)
C34_12 C 0.33387(9) 0.43322(10) 0.94240(8)
H17_12 H 0.334415 0.418408 0.924958
C35_12 C 0.36238(10) 0.44189(12) 0.95771(10)
H18_12 H 0.382482 0.433121 0.951152
C36_12 C 0.36050(11) 0.46355(12) 0.98263(10)
C37_12 C 0.33211(11) 0.47760(11) 0.99302(9)
C38_12 C 0.30392(10) 0.46857(10) 0.97770(8)
H20_12 H 0.283952 0.477622 0.984282
Cu4_12 Cu 0.125000 0.38082(2) 0.86918(2)
Cu5_18 Cu 0.250000 0.42330(2) 1.000000
N10_12 N 0.41323(8) 0.64355(7) 0.89049(7)
N11_12 N 0.35421(8) 0.66789(8) 0.89723(10)
N12_12 N 0.32497(7) 0.49908(7) 0.70524(6)
N10_13 N 0.83677(8) 0.64049(7) 0.89355(7)
N11_13 N 0.89579(8) 0.64723(10) 0.91789(8)
N12_13 N 0.92503(7) 0.45524(6) 0.74908(7)
N10_14 N 0.66323(8) 0.35951(7) 0.39355(7)
N11_14 N 0.60421(8) 0.35277(10) 0.41789(8)
N12_14 N 0.57497(7) 0.54476(6) 0.24908(7)
N12_15 N 0.42503(7) 0.04476(6) 0.25092(7)
N10_15 N 0.33677(8) 0.85951(7) 0.10645(7)
N11_15 N 0.39579(8) 0.85277(10) 0.08211(8)
N10_16 N 0.16323(8) 0.14049(7) 0.60645(7)
N11_16 N 0.10421(8) 0.14723(10) 0.58211(8)
N12_16 N 0.07497(7) 0.95524(6) 0.75092(7)
N10_17 N 0.14049(7) 0.60645(7) 0.16323(8)
N11_17 N 0.14723(10) 0.58211(8) 0.10421(8)
N12_17 N 0.95524(6) 0.75092(7) 0.07497(7)
N12_18 N 0.04476(6) 0.25092(7) 0.42503(7)
N10_18 N 0.85951(7) 0.10645(7) 0.33677(8)
N11_18 N 0.85277(10) 0.08211(8) 0.39579(8)
N10_19 N 0.35951(7) 0.39355(7) 0.66323(8)
N11_19 N 0.35277(10) 0.41789(8) 0.60421(8)
N12_19 N 0.54476(6) 0.24908(7) 0.57497(7)
N10_20 N 0.64049(7) 0.89355(7) 0.83677(8)
N11_20 N 0.64723(10) 0.91789(8) 0.89579(8)
N12_20 N 0.45524(6) 0.74908(7) 0.92503(7)
N12_21 N 0.25092(7) 0.42503(7) 0.04476(6)
N10_21 N 0.10645(7) 0.33677(8) 0.85951(7)
N11_21 N 0.08211(8) 0.39579(8) 0.85277(10)
N10_22 N 0.60645(7) 0.16323(8) 0.14049(7)
N11_22 N 0.58211(8) 0.10421(8) 0.14723(10)
N12_22 N 0.75092(7) 0.07497(7) 0.95524(6)
N10_23 N 0.89355(7) 0.83677(8) 0.64049(7)
N11_23 N 0.91789(8) 0.89579(8) 0.64723(10)
N12_23 N 0.74908(7) 0.92503(7) 0.45524(6)
N10_24 N 0.39355(7) 0.66323(8) 0.35951(7)
N11_24 N 0.41789(8) 0.60421(8) 0.35277(10)
N12_24 N 0.24908(7) 0.57497(7) 0.54476(6)
H19_13 H 0.010043 0.668016 0.007100
Cu2_13 Cu 0.875000 0.70738(2) 0.04262(2)
F1_13 F 0.75242(7) 0.72211(9) 0.13847(7)
N4_13 N 0.84449(6) 0.68488(7) 0.01860(7)
H4_13 H 0.911706 0.679721 0.000158
C13_13 C 0.81247(8) 0.68549(8) 0.02424(8)
C14_13 C 0.79765(8) 0.69597(9) 0.05473(8)
C15_13 C 0.80760(8) 0.68322(10) 0.08387(9)
H7_13 H 0.825042 0.668408 0.084415
C16_13 C 0.79229(10) 0.69189(12) 0.11238(10)
H8_13 H 0.798848 0.683121 0.132482
C17_13 C 0.76737(10) 0.71355(12) 0.11050(11)
C18_13 C 0.75698(9) 0.72760(11) 0.08211(11)
H9_13 H 0.739957 0.742900 0.081984
C19_13 C 0.77230(8) 0.71857(10) 0.05392(10)
H10_13 H 0.765718 0.727622 0.033952
F2_13 F 0.99758(7) 0.61153(7) 0.02789(9)
N8_13 N 0.90551(6) 0.73140(7) 0.06512(7)
C20_13 C 0.94231(10) 0.86966(9) 0.11259(9)
H11_13 H 0.943708 0.891573 0.119057
C21_13 C 0.97064(10) 0.85294(9) 0.10680(9)
H12_13 H 0.990909 0.863334 0.108997
C22_13 C 0.96898(9) 0.82119(9) 0.09785(9)
H13_13 H 0.988180 0.809146 0.094619
C23_13 C 0.93877(8) 0.80651(8) 0.09347(8)
C24_13 C 0.91120(9) 0.82543(8) 0.09954(8)
C25_13 C 0.87921(9) 0.81219(9) 0.09517(9)
C26_13 C 0.87437(9) 0.78096(9) 0.08312(10)
C27_13 C 0.84259(9) 0.77075(11) 0.07854(14)
H14_13 H 0.838294 0.749842 0.070279
C28_13 C 0.81780(11) 0.79100(12) 0.08599(17)
H15_13 H 0.796123 0.784253 0.083067
C29_13 C 0.82448(11) 0.82144(12) 0.09784(16)
H16_13 H 0.806956 0.835357 0.102658
C30_13 C 0.93335(8) 0.77439(8) 0.08257(8)
C31_13 C 0.90279(8) 0.76238(8) 0.07671(8)
C32_13 C 0.93753(8) 0.72576(8) 0.06451(8)
C33_13 C 0.95235(8) 0.69527(8) 0.05403(9)
C34_13 C 0.94240(8) 0.66613(9) 0.06678(10)
H17_13 H 0.924958 0.665585 0.081592
C35_13 C 0.95771(10) 0.63762(10) 0.05811(12)
H18_13 H 0.951152 0.617518 0.066879
C36_13 C 0.98263(10) 0.63950(11) 0.03645(12)
C37_13 C 0.99302(9) 0.66789(11) 0.02240(11)
C38_13 C 0.97770(8) 0.69608(10) 0.03143(10)
H20_13 H 0.984282 0.716048 0.022378
C1_13 C 0.80769(10) 0.63741(9) 0.88034(9)
H1_13 H 0.806292 0.630943 0.858427
C2_13 C 0.77936(10) 0.64320(9) 0.89706(9)
H2_13 H 0.759091 0.641003 0.886666
C3_13 C 0.78102(9) 0.65215(9) 0.92881(9)
H3_13 H 0.761820 0.655381 0.940854
C4_13 C 0.81123(8) 0.65653(8) 0.94349(8)
C5_13 C 0.83880(9) 0.65046(8) 0.92457(8)
C6_13 C 0.87079(9) 0.65483(9) 0.93781(9)
C7_13 C 0.87563(9) 0.66688(10) 0.96904(9)
C8_13 C 0.90741(9) 0.67146(14) 0.97925(11)
C9_13 C 0.93220(11) 0.66401(17) 0.95900(12)
H5_13 H 0.953877 0.666933 0.965747
C10_13 C 0.92552(11) 0.65216(16) 0.92856(12)
H6_13 H 0.943044 0.647342 0.914643
C11_13 C 0.81665(8) 0.66743(8) 0.97561(8)
C12_13 C 0.84721(8) 0.67329(8) 0.98762(8)
Cu2_14 Cu 0.625000 0.29262(2) 0.54262(2)
F1_14 F 0.74758(7) 0.27789(9) 0.63847(7)
N4_14 N 0.65551(6) 0.31512(7) 0.51860(7)
C1_14 C 0.69231(10) 0.36259(9) 0.38034(9)
H1_14 H 0.693708 0.369057 0.358427
C2_14 C 0.72064(10) 0.35680(9) 0.39706(9)
H2_14 H 0.740909 0.358997 0.386666
C3_14 C 0.71898(9) 0.34785(9) 0.42881(9)
H3_14 H 0.738180 0.344619 0.440854
C4_14 C 0.68877(8) 0.34347(8) 0.44349(8)
C5_14 C 0.66120(9) 0.34954(8) 0.42457(8)
C6_14 C 0.62921(9) 0.34517(9) 0.43781(9)
C7_14 C 0.62437(9) 0.33312(10) 0.46904(9)
C8_14 C 0.59259(9) 0.32854(14) 0.47925(11)
H4_14 H 0.588294 0.320279 0.500158
C9_14 C 0.56780(11) 0.33599(17) 0.45900(12)
H5_14 H 0.546123 0.333067 0.465747
C10_14 C 0.57448(11) 0.34784(16) 0.42856(12)
H6_14 H 0.556956 0.352658 0.414643
C11_14 C 0.68335(8) 0.33257(8) 0.47561(8)
C12_14 C 0.65279(8) 0.32671(8) 0.48762(8)
C13_14 C 0.68753(8) 0.31451(8) 0.52424(8)
C14_14 C 0.70235(8) 0.30403(9) 0.55473(8)
C15_14 C 0.69240(8) 0.31678(10) 0.58387(9)
H7_14 H 0.674958 0.331592 0.584415
C16_14 C 0.70771(10) 0.30811(12) 0.61238(10)
H8_14 H 0.701152 0.316879 0.632482
C17_14 C 0.73263(10) 0.28645(12) 0.61050(11)
C18_14 C 0.74302(9) 0.27240(11) 0.58211(11)
H9_14 H 0.760043 0.257100 0.581984
C19_14 C 0.72770(8) 0.28143(10) 0.55392(10)
H10_14 H 0.734282 0.272378 0.533952
F2_14 F 0.50242(7) 0.38847(7) 0.52789(9)
N8_14 N 0.59449(6) 0.26860(7) 0.56512(7)
C20_14 C 0.55769(10) 0.13034(9) 0.61259(9)
H11_14 H 0.556292 0.108427 0.619057
C21_14 C 0.52936(10) 0.14706(9) 0.60680(9)
H12_14 H 0.509091 0.136666 0.608997
C22_14 C 0.53102(9) 0.17881(9) 0.59785(9)
H13_14 H 0.511820 0.190854 0.594619
C23_14 C 0.56123(8) 0.19349(8) 0.59347(8)
C24_14 C 0.58880(9) 0.17457(8) 0.59954(8)
C25_14 C 0.62079(9) 0.18781(9) 0.59517(9)
C26_14 C 0.62563(9) 0.21904(9) 0.58312(10)
C27_14 C 0.65741(9) 0.22925(11) 0.57854(14)
H14_14 H 0.661706 0.250158 0.570279
C28_14 C 0.68220(11) 0.20900(12) 0.58599(17)
H15_14 H 0.703877 0.215747 0.583067
C29_14 C 0.67552(11) 0.17856(12) 0.59784(16)
H16_14 H 0.693044 0.164643 0.602658
C30_14 C 0.56665(8) 0.22561(8) 0.58257(8)
C31_14 C 0.59721(8) 0.23762(8) 0.57671(8)
C32_14 C 0.56247(8) 0.27424(8) 0.56451(8)
C33_14 C 0.54765(8) 0.30473(8) 0.55403(9)
C34_14 C 0.55760(8) 0.33387(9) 0.56678(10)
H17_14 H 0.575042 0.334415 0.581592
C35_14 C 0.54229(10) 0.36238(10) 0.55811(12)
H18_14 H 0.548848 0.382482 0.566879
C36_14 C 0.51737(10) 0.36050(11) 0.53645(12)
C37_14 C 0.50698(9) 0.33211(11) 0.52240(11)
H19_14 H 0.489957 0.331984 0.507100
C38_14 C 0.52230(8) 0.30392(10) 0.53143(10)
H20_14 H 0.515718 0.283952 0.522378
Cu2_15 Cu 0.125000 0.20738(2) 0.45738(2)
F1_15 F 0.24758(7) 0.22211(9) 0.36153(7)
N4_15 N 0.15551(6) 0.18488(7) 0.48140(7)
C1_15 C 0.19231(10) 0.13741(9) 0.61966(9)
H1_15 H 0.193708 0.130943 0.641573
C2_15 C 0.22064(10) 0.14320(9) 0.60294(9)
H2_15 H 0.240909 0.141003 0.613334
C3_15 C 0.21898(9) 0.15215(9) 0.57119(9)
H3_15 H 0.238180 0.155381 0.559146
C4_15 C 0.18877(8) 0.15653(8) 0.55651(8)
C5_15 C 0.16120(9) 0.15046(8) 0.57543(8)
C6_15 C 0.12921(9) 0.15483(9) 0.56219(9)
C7_15 C 0.12437(9) 0.16688(10) 0.53096(9)
C8_15 C 0.09259(9) 0.17146(14) 0.52075(11)
H4_15 H 0.088294 0.179721 0.499842
C9_15 C 0.06780(11) 0.16401(17) 0.54100(12)
H5_15 H 0.046123 0.166933 0.534253
C10_15 C 0.07448(11) 0.15216(16) 0.57144(12)
H6_15 H 0.056956 0.147342 0.585357
C11_15 C 0.18335(8) 0.16743(8) 0.52439(8)
C12_15 C 0.15279(8) 0.17329(8) 0.51238(8)
C13_15 C 0.18753(8) 0.18549(8) 0.47576(8)
C14_15 C 0.20235(8) 0.19597(9) 0.44527(8)
C15_15 C 0.19240(8) 0.18322(10) 0.41613(9)
H7_15 H 0.174958 0.168408 0.415585
C16_15 C 0.20771(10) 0.19189(12) 0.38762(10)
H8_15 H 0.201152 0.183121 0.367518
C17_15 C 0.23263(10) 0.21355(12) 0.38950(11)
C18_15 C 0.24302(9) 0.22760(11) 0.41789(11)
H9_15 H 0.260043 0.242900 0.418016
C19_15 C 0.22770(8) 0.21857(10) 0.44608(10)
H10_15 H 0.234282 0.227622 0.466048
F2_15 F 0.00242(7) 0.11153(7) 0.47211(9)
N8_15 N 0.09449(6) 0.23140(7) 0.43488(7)
C20_15 C 0.05769(10) 0.36966(9) 0.38741(9)
H11_15 H 0.056292 0.391573 0.380943
C21_15 C 0.02936(10) 0.35294(9) 0.39320(9)
H12_15 H 0.009091 0.363334 0.391003
C22_15 C 0.03102(9) 0.32119(9) 0.40215(9)
H13_15 H 0.011820 0.309146 0.405381
C23_15 C 0.06123(8) 0.30651(8) 0.40653(8)
C24_15 C 0.08880(9) 0.32543(8) 0.40046(8)
C25_15 C 0.12079(9) 0.31219(9) 0.40483(9)
C26_15 C 0.12563(9) 0.28096(9) 0.41688(10)
C27_15 C 0.15741(9) 0.27075(11) 0.42146(14)
H14_15 H 0.161706 0.249842 0.429721
C28_15 C 0.18220(11) 0.29100(12) 0.41401(17)
H15_15 H 0.203877 0.284253 0.416933
C29_15 C 0.17552(11) 0.32144(12) 0.40216(16)
H16_15 H 0.193044 0.335357 0.397342
C30_15 C 0.06665(8) 0.27439(8) 0.41743(8)
C31_15 C 0.09721(8) 0.26238(8) 0.42329(8)
C32_15 C 0.06247(8) 0.22576(8) 0.43549(8)
C33_15 C 0.04765(8) 0.19527(8) 0.44597(9)
C34_15 C 0.05760(8) 0.16613(9) 0.43322(10)
H17_15 H 0.075042 0.165585 0.418408
C35_15 C 0.04229(10) 0.13762(10) 0.44189(12)
H18_15 H 0.048848 0.117518 0.433121
C36_15 C 0.01737(10) 0.13950(11) 0.46355(12)
C37_15 C 0.00698(9) 0.16789(11) 0.47760(11)
C38_15 C 0.02230(8) 0.19608(10) 0.46857(10)
H20_15 H 0.015718 0.216048 0.477622
H19_15 H 0.989957 0.168016 0.492900
C1_16 C 0.30769(10) 0.86259(9) 0.11966(9)
H1_16 H 0.306292 0.869057 0.141573
C2_16 C 0.27936(10) 0.85680(9) 0.10294(9)
H2_16 H 0.259091 0.858997 0.113334
C3_16 C 0.28102(9) 0.84785(9) 0.07119(9)
H3_16 H 0.261820 0.844619 0.059146
C4_16 C 0.31123(8) 0.84347(8) 0.05651(8)
C5_16 C 0.33880(9) 0.84954(8) 0.07543(8)
C6_16 C 0.37079(9) 0.84517(9) 0.06219(9)
C7_16 C 0.37563(9) 0.83312(10) 0.03096(9)
C8_16 C 0.40741(9) 0.82854(14) 0.02075(11)
C9_16 C 0.43220(11) 0.83599(17) 0.04100(12)
H5_16 H 0.453877 0.833067 0.034253
C10_16 C 0.42552(11) 0.84784(16) 0.07144(12)
H6_16 H 0.443044 0.852658 0.085357
C11_16 C 0.31665(8) 0.83257(8) 0.02439(8)
C12_16 C 0.34721(8) 0.82671(8) 0.01238(8)
Cu2_16 Cu 0.375000 0.79262(2) 0.95738(2)
F1_16 F 0.25242(7) 0.77789(9) 0.86153(7)
N4_16 N 0.34449(6) 0.81512(7) 0.98140(7)
H4_16 H 0.411706 0.820279 0.999842
C13_16 C 0.31247(8) 0.81451(8) 0.97576(8)
C14_16 C 0.29765(8) 0.80403(9) 0.94527(8)
C15_16 C 0.30760(8) 0.81678(10) 0.91613(9)
H7_16 H 0.325042 0.831592 0.915585
C16_16 C 0.29229(10) 0.80811(12) 0.88762(10)
H8_16 H 0.298848 0.816879 0.867518
C17_16 C 0.26737(10) 0.78645(12) 0.88950(11)
C18_16 C 0.25698(9) 0.77240(11) 0.91789(11)
H9_16 H 0.239957 0.757100 0.918016
C19_16 C 0.27230(8) 0.78143(10) 0.94608(10)
H10_16 H 0.265718 0.772378 0.966048
F2_16 F 0.49758(7) 0.88847(7) 0.97211(9)
N8_16 N 0.40551(6) 0.76860(7) 0.93488(7)
C20_16 C 0.44231(10) 0.63034(9) 0.88741(9)
H11_16 H 0.443708 0.608427 0.880943
C21_16 C 0.47064(10) 0.64706(9) 0.89320(9)
H12_16 H 0.490909 0.636666 0.891003
C22_16 C 0.46898(9) 0.67881(9) 0.90215(9)
H13_16 H 0.488180 0.690854 0.905381
C23_16 C 0.43877(8) 0.69349(8) 0.90653(8)
C24_16 C 0.41120(9) 0.67457(8) 0.90046(8)
C25_16 C 0.37921(9) 0.68781(9) 0.90483(9)
C26_16 C 0.37437(9) 0.71904(9) 0.91688(10)
C27_16 C 0.34259(9) 0.72925(11) 0.92146(14)
H14_16 H 0.338294 0.750158 0.929721
C28_16 C 0.31780(11) 0.70900(12) 0.91401(17)
H15_16 H 0.296123 0.715747 0.916933
C29_16 C 0.32448(11) 0.67856(12) 0.90216(16)
H16_16 H 0.306956 0.664643 0.897342
C30_16 C 0.43335(8) 0.72561(8) 0.91743(8)
C31_16 C 0.40279(8) 0.73762(8) 0.92329(8)
C32_16 C 0.43753(8) 0.77424(8) 0.93549(8)
C33_16 C 0.45235(8) 0.80473(8) 0.94597(9)
C34_16 C 0.44240(8) 0.83387(9) 0.93322(10)
H17_16 H 0.424958 0.834415 0.918408
C35_16 C 0.45771(10) 0.86238(10) 0.94189(12)
H18_16 H 0.451152 0.882482 0.933121
C36_16 C 0.48263(10) 0.86050(11) 0.96355(12)
C37_16 C 0.49302(9) 0.83211(11) 0.97760(11)
H19_16 H 0.510043 0.831984 0.992900
C38_16 C 0.47770(8) 0.80392(10) 0.96857(10)
H20_16 H 0.484282 0.783952 0.977622
H19_17 H 0.007100 0.010043 0.668016
Cu2_17 Cu 0.04262(2) 0.875000 0.70738(2)
F1_17 F 0.13847(7) 0.75242(7) 0.72211(9)
N4_17 N 0.01860(7) 0.84449(6) 0.68488(7)
H4_17 H 0.000158 0.911706 0.679721
C13_17 C 0.02424(8) 0.81247(8) 0.68549(8)
C14_17 C 0.05473(8) 0.79765(8) 0.69597(9)
C15_17 C 0.08387(9) 0.80760(8) 0.68322(10)
H7_17 H 0.084415 0.825042 0.668408
C16_17 C 0.11238(10) 0.79229(10) 0.69189(12)
H8_17 H 0.132482 0.798848 0.683121
C17_17 C 0.11050(11) 0.76737(10) 0.71355(12)
C18_17 C 0.08211(11) 0.75698(9) 0.72760(11)
H9_17 H 0.081984 0.739957 0.742900
C19_17 C 0.05392(10) 0.77230(8) 0.71857(10)
H10_17 H 0.033952 0.765718 0.727622
F2_17 F 0.02789(9) 0.99758(7) 0.61153(7)
N8_17 N 0.06512(7) 0.90551(6) 0.73140(7)
C20_17 C 0.11259(9) 0.94231(10) 0.86966(9)
H11_17 H 0.119057 0.943708 0.891573
C21_17 C 0.10680(9) 0.97064(10) 0.85294(9)
H12_17 H 0.108997 0.990909 0.863334
C22_17 C 0.09785(9) 0.96898(9) 0.82119(9)
H13_17 H 0.094619 0.988180 0.809146
C23_17 C 0.09347(8) 0.93877(8) 0.80651(8)
C24_17 C 0.09954(8) 0.91120(9) 0.82543(8)
C25_17 C 0.09517(9) 0.87921(9) 0.81219(9)
C26_17 C 0.08312(10) 0.87437(9) 0.78096(9)
C27_17 C 0.07854(14) 0.84259(9) 0.77075(11)
H14_17 H 0.070279 0.838294 0.749842
C28_17 C 0.08599(17) 0.81780(11) 0.79100(12)
H15_17 H 0.083067 0.796123 0.784253
C29_17 C 0.09784(16) 0.82448(11) 0.82144(12)
H16_17 H 0.102658 0.806956 0.835357
C30_17 C 0.08257(8) 0.93335(8) 0.77439(8)
C31_17 C 0.07671(8) 0.90279(8) 0.76238(8)
C32_17 C 0.06451(8) 0.93753(8) 0.72576(8)
C33_17 C 0.05403(9) 0.95235(8) 0.69527(8)
C34_17 C 0.06678(10) 0.94240(8) 0.66613(9)
H17_17 H 0.081592 0.924958 0.665585
C35_17 C 0.05811(12) 0.95771(10) 0.63762(10)
H18_17 H 0.066879 0.951152 0.617518
C36_17 C 0.03645(12) 0.98263(10) 0.63950(11)
C37_17 C 0.02240(11) 0.99302(9) 0.66789(11)
C38_17 C 0.03143(10) 0.97770(8) 0.69608(10)
H20_17 H 0.022378 0.984282 0.716048
C1_17 C 0.88034(9) 0.80769(10) 0.63741(9)
H1_17 H 0.858427 0.806292 0.630943
C2_17 C 0.89706(9) 0.77936(10) 0.64320(9)
H2_17 H 0.886666 0.759091 0.641003
C3_17 C 0.92881(9) 0.78102(9) 0.65215(9)
H3_17 H 0.940854 0.761820 0.655381
C4_17 C 0.94349(8) 0.81123(8) 0.65653(8)
C5_17 C 0.92457(8) 0.83880(9) 0.65046(8)
C6_17 C 0.93781(9) 0.87079(9) 0.65483(9)
C7_17 C 0.96904(9) 0.87563(9) 0.66688(10)
C8_17 C 0.97925(11) 0.90741(9) 0.67146(14)
C9_17 C 0.95900(12) 0.93220(11) 0.66401(17)
H5_17 H 0.965747 0.953877 0.666933
C10_17 C 0.92856(12) 0.92552(11) 0.65216(16)
H6_17 H 0.914643 0.943044 0.647342
C11_17 C 0.97561(8) 0.81665(8) 0.66743(8)
C12_17 C 0.98762(8) 0.84721(8) 0.67329(8)
Cu2_18 Cu 0.54262(2) 0.625000 0.29262(2)
F1_18 F 0.63847(7) 0.74758(7) 0.27789(9)
N4_18 N 0.51860(7) 0.65551(6) 0.31512(7)
C1_18 C 0.38034(9) 0.69231(10) 0.36259(9)
H1_18 H 0.358427 0.693708 0.369057
C2_18 C 0.39706(9) 0.72064(10) 0.35680(9)
H2_18 H 0.386666 0.740909 0.358997
C3_18 C 0.42881(9) 0.71898(9) 0.34785(9)
H3_18 H 0.440854 0.738180 0.344619
C4_18 C 0.44349(8) 0.68877(8) 0.34347(8)
C5_18 C 0.42457(8) 0.66120(9) 0.34954(8)
C6_18 C 0.43781(9) 0.62921(9) 0.34517(9)
C7_18 C 0.46904(9) 0.62437(9) 0.33312(10)
C8_18 C 0.47925(11) 0.59259(9) 0.32854(14)
H4_18 H 0.500158 0.588294 0.320279
C9_18 C 0.45900(12) 0.56780(11) 0.33599(17)
H5_18 H 0.465747 0.546123 0.333067
C10_18 C 0.42856(12) 0.57448(11) 0.34784(16)
H6_18 H 0.414643 0.556956 0.352658
C11_18 C 0.47561(8) 0.68335(8) 0.33257(8)
C12_18 C 0.48762(8) 0.65279(8) 0.32671(8)
C13_18 C 0.52424(8) 0.68753(8) 0.31451(8)
C14_18 C 0.55473(8) 0.70235(8) 0.30403(9)
C15_18 C 0.58387(9) 0.69240(8) 0.31678(10)
H7_18 H 0.584415 0.674958 0.331592
C16_18 C 0.61238(10) 0.70771(10) 0.30811(12)
H8_18 H 0.632482 0.701152 0.316879
C17_18 C 0.61050(11) 0.73263(10) 0.28645(12)
C18_18 C 0.58211(11) 0.74302(9) 0.27240(11)
H9_18 H 0.581984 0.760043 0.257100
C19_18 C 0.55392(10) 0.72770(8) 0.28143(10)
H10_18 H 0.533952 0.734282 0.272378
F2_18 F 0.52789(9) 0.50242(7) 0.38847(7)
N8_18 N 0.56512(7) 0.59449(6) 0.26860(7)
C20_18 C 0.61259(9) 0.55769(10) 0.13034(9)
H11_18 H 0.619057 0.556292 0.108427
C21_18 C 0.60680(9) 0.52936(10) 0.14706(9)
H12_18 H 0.608997 0.509091 0.136666
C22_18 C 0.59785(9) 0.53102(9) 0.17881(9)
H13_18 H 0.594619 0.511820 0.190854
C23_18 C 0.59347(8) 0.56123(8) 0.19349(8)
C24_18 C 0.59954(8) 0.58880(9) 0.17457(8)
C25_18 C 0.59517(9) 0.62079(9) 0.18781(9)
C26_18 C 0.58312(10) 0.62563(9) 0.21904(9)
C27_18 C 0.57854(14) 0.65741(9) 0.22925(11)
H14_18 H 0.570279 0.661706 0.250158
C28_18 C 0.58599(17) 0.68220(11) 0.20900(12)
H15_18 H 0.583067 0.703877 0.215747
C29_18 C 0.59784(16) 0.67552(11) 0.17856(12)
H16_18 H 0.602658 0.693044 0.164643
C30_18 C 0.58257(8) 0.56665(8) 0.22561(8)
C31_18 C 0.57671(8) 0.59721(8) 0.23762(8)
C32_18 C 0.56451(8) 0.56247(8) 0.27424(8)
C33_18 C 0.55403(9) 0.54765(8) 0.30473(8)
C34_18 C 0.56678(10) 0.55760(8) 0.33387(9)
H17_18 H 0.581592 0.575042 0.334415
C35_18 C 0.55811(12) 0.54229(10) 0.36238(10)
H18_18 H 0.566879 0.548848 0.382482
C36_18 C 0.53645(12) 0.51737(10) 0.36050(11)
C37_18 C 0.52240(11) 0.50698(9) 0.33211(11)
H19_18 H 0.507100 0.489957 0.331984
C38_18 C 0.53143(10) 0.52230(8) 0.30392(10)
H20_18 H 0.522378 0.515718 0.283952
Cu2_19 Cu 0.45738(2) 0.125000 0.20738(2)
F1_19 F 0.36153(7) 0.24758(7) 0.22211(9)
N4_19 N 0.48140(7) 0.15551(6) 0.18488(7)
C1_19 C 0.61966(9) 0.19231(10) 0.13741(9)
H1_19 H 0.641573 0.193708 0.130943
C2_19 C 0.60294(9) 0.22064(10) 0.14320(9)
H2_19 H 0.613334 0.240909 0.141003
C3_19 C 0.57119(9) 0.21898(9) 0.15215(9)
H3_19 H 0.559146 0.238180 0.155381
C4_19 C 0.55651(8) 0.18877(8) 0.15653(8)
C5_19 C 0.57543(8) 0.16120(9) 0.15046(8)
C6_19 C 0.56219(9) 0.12921(9) 0.15483(9)
C7_19 C 0.53096(9) 0.12437(9) 0.16688(10)
C8_19 C 0.52075(11) 0.09259(9) 0.17146(14)
H4_19 H 0.499842 0.088294 0.179721
C9_19 C 0.54100(12) 0.06780(11) 0.16401(17)
H5_19 H 0.534253 0.046123 0.166933
C10_19 C 0.57144(12) 0.07448(11) 0.15216(16)
H6_19 H 0.585357 0.056956 0.147342
C11_19 C 0.52439(8) 0.18335(8) 0.16743(8)
C12_19 C 0.51238(8) 0.15279(8) 0.17329(8)
C13_19 C 0.47576(8) 0.18753(8) 0.18549(8)
C14_19 C 0.44527(8) 0.20235(8) 0.19597(9)
C15_19 C 0.41613(9) 0.19240(8) 0.18322(10)
H7_19 H 0.415585 0.174958 0.168408
C16_19 C 0.38762(10) 0.20771(10) 0.19189(12)
H8_19 H 0.367518 0.201152 0.183121
C17_19 C 0.38950(11) 0.23263(10) 0.21355(12)
C18_19 C 0.41789(11) 0.24302(9) 0.22760(11)
H9_19 H 0.418016 0.260043 0.242900
C19_19 C 0.44608(10) 0.22770(8) 0.21857(10)
H10_19 H 0.466048 0.234282 0.227622
F2_19 F 0.47211(9) 0.00242(7) 0.11153(7)
N8_19 N 0.43488(7) 0.09449(6) 0.23140(7)
C20_19 C 0.38741(9) 0.05769(10) 0.36966(9)
H11_19 H 0.380943 0.056292 0.391573
C21_19 C 0.39320(9) 0.02936(10) 0.35294(9)
H12_19 H 0.391003 0.009091 0.363334
C22_19 C 0.40215(9) 0.03102(9) 0.32119(9)
H13_19 H 0.405381 0.011820 0.309146
C23_19 C 0.40653(8) 0.06123(8) 0.30651(8)
C24_19 C 0.40046(8) 0.08880(9) 0.32543(8)
C25_19 C 0.40483(9) 0.12079(9) 0.31219(9)
C26_19 C 0.41688(10) 0.12563(9) 0.28096(9)
C27_19 C 0.42146(14) 0.15741(9) 0.27075(11)
H14_19 H 0.429721 0.161706 0.249842
C28_19 C 0.41401(17) 0.18220(11) 0.29100(12)
H15_19 H 0.416933 0.203877 0.284253
C29_19 C 0.40216(16) 0.17552(11) 0.32144(12)
H16_19 H 0.397342 0.193044 0.335357
C30_19 C 0.41743(8) 0.06665(8) 0.27439(8)
C31_19 C 0.42329(8) 0.09721(8) 0.26238(8)
C32_19 C 0.43549(8) 0.06247(8) 0.22576(8)
C33_19 C 0.44597(9) 0.04765(8) 0.19527(8)
C34_19 C 0.43322(10) 0.05760(8) 0.16613(9)
H17_19 H 0.418408 0.075042 0.165585
C35_19 C 0.44189(12) 0.04229(10) 0.13762(10)
H18_19 H 0.433121 0.048848 0.117518
C36_19 C 0.46355(12) 0.01737(10) 0.13950(11)
C37_19 C 0.47760(11) 0.00698(9) 0.16789(11)
C38_19 C 0.46857(10) 0.02230(8) 0.19608(10)
H20_19 H 0.477622 0.015718 0.216048
H19_19 H 0.492900 0.989957 0.168016
C1_20 C 0.11966(9) 0.30769(10) 0.86259(9)
H1_20 H 0.141573 0.306292 0.869057
C2_20 C 0.10294(9) 0.27936(10) 0.85680(9)
H2_20 H 0.113334 0.259091 0.858997
C3_20 C 0.07119(9) 0.28102(9) 0.84785(9)
H3_20 H 0.059146 0.261820 0.844619
C4_20 C 0.05651(8) 0.31123(8) 0.84347(8)
C5_20 C 0.07543(8) 0.33880(9) 0.84954(8)
C6_20 C 0.06219(9) 0.37079(9) 0.84517(9)
C7_20 C 0.03096(9) 0.37563(9) 0.83312(10)
C8_20 C 0.02075(11) 0.40741(9) 0.82854(14)
C9_20 C 0.04100(12) 0.43220(11) 0.83599(17)
H5_20 H 0.034253 0.453877 0.833067
C10_20 C 0.07144(12) 0.42552(11) 0.84784(16)
H6_20 H 0.085357 0.443044 0.852658
C11_20 C 0.02439(8) 0.31665(8) 0.83257(8)
C12_20 C 0.01238(8) 0.34721(8) 0.82671(8)
Cu2_20 Cu 0.95738(2) 0.375000 0.79262(2)
F1_20 F 0.86153(7) 0.25242(7) 0.77789(9)
N4_20 N 0.98140(7) 0.34449(6) 0.81512(7)
H4_20 H 0.999842 0.411706 0.820279
C13_20 C 0.97576(8) 0.31247(8) 0.81451(8)
C14_20 C 0.94527(8) 0.29765(8) 0.80403(9)
C15_20 C 0.91613(9) 0.30760(8) 0.81678(10)
H7_20 H 0.915585 0.325042 0.831592
C16_20 C 0.88762(10) 0.29229(10) 0.80811(12)
H8_20 H 0.867518 0.298848 0.816879
C17_20 C 0.88950(11) 0.26737(10) 0.78645(12)
C18_20 C 0.91789(11) 0.25698(9) 0.77240(11)
H9_20 H 0.918016 0.239957 0.757100
C19_20 C 0.94608(10) 0.27230(8) 0.78143(10)
H10_20 H 0.966048 0.265718 0.772378
F2_20 F 0.97211(9) 0.49758(7) 0.88847(7)
N8_20 N 0.93488(7) 0.40551(6) 0.76860(7)
C20_20 C 0.88741(9) 0.44231(10) 0.63034(9)
H11_20 H 0.880943 0.443708 0.608427
C21_20 C 0.89320(9) 0.47064(10) 0.64706(9)
H12_20 H 0.891003 0.490909 0.636666
C22_20 C 0.90215(9) 0.46898(9) 0.67881(9)
H13_20 H 0.905381 0.488180 0.690854
C23_20 C 0.90653(8) 0.43877(8) 0.69349(8)
C24_20 C 0.90046(8) 0.41120(9) 0.67457(8)
C25_20 C 0.90483(9) 0.37921(9) 0.68781(9)
C26_20 C 0.91688(10) 0.37437(9) 0.71904(9)
C27_20 C 0.92146(14) 0.34259(9) 0.72925(11)
H14_20 H 0.929721 0.338294 0.750158
C28_20 C 0.91401(17) 0.31780(11) 0.70900(12)
H15_20 H 0.916933 0.296123 0.715747
C29_20 C 0.90216(16) 0.32448(11) 0.67856(12)
H16_20 H 0.897342 0.306956 0.664643
C30_20 C 0.91743(8) 0.43335(8) 0.72561(8)
C31_20 C 0.92329(8) 0.40279(8) 0.73762(8)
C32_20 C 0.93549(8) 0.43753(8) 0.77424(8)
C33_20 C 0.94597(9) 0.45235(8) 0.80473(8)
C34_20 C 0.93322(10) 0.44240(8) 0.83387(9)
H17_20 H 0.918408 0.424958 0.834415
C35_20 C 0.94189(12) 0.45771(10) 0.86238(10)
H18_20 H 0.933121 0.451152 0.882482
C36_20 C 0.96355(12) 0.48263(10) 0.86050(11)
C37_20 C 0.97760(11) 0.49302(9) 0.83211(11)
H19_20 H 0.992900 0.510043 0.831984
C38_20 C 0.96857(10) 0.47770(8) 0.80392(10)
H20_20 H 0.977622 0.484282 0.783952
H19_21 H 0.668016 0.007100 0.010043
Cu2_21 Cu 0.70738(2) 0.04262(2) 0.875000
F1_21 F 0.72211(9) 0.13847(7) 0.75242(7)
N4_21 N 0.68488(7) 0.01860(7) 0.84449(6)
H4_21 H 0.679721 0.000158 0.911706
C13_21 C 0.68549(8) 0.02424(8) 0.81247(8)
C14_21 C 0.69597(9) 0.05473(8) 0.79765(8)
C15_21 C 0.68322(10) 0.08387(9) 0.80760(8)
H7_21 H 0.668408 0.084415 0.825042
C16_21 C 0.69189(12) 0.11238(10) 0.79229(10)
H8_21 H 0.683121 0.132482 0.798848
C17_21 C 0.71355(12) 0.11050(11) 0.76737(10)
C18_21 C 0.72760(11) 0.08211(11) 0.75698(9)
H9_21 H 0.742900 0.081984 0.739957
C19_21 C 0.71857(10) 0.05392(10) 0.77230(8)
H10_21 H 0.727622 0.033952 0.765718
F2_21 F 0.61153(7) 0.02789(9) 0.99758(7)
N8_21 N 0.73140(7) 0.06512(7) 0.90551(6)
C20_21 C 0.86966(9) 0.11259(9) 0.94231(10)
H11_21 H 0.891573 0.119057 0.943708
C21_21 C 0.85294(9) 0.10680(9) 0.97064(10)
H12_21 H 0.863334 0.108997 0.990909
C22_21 C 0.82119(9) 0.09785(9) 0.96898(9)
H13_21 H 0.809146 0.094619 0.988180
C23_21 C 0.80651(8) 0.09347(8) 0.93877(8)
C24_21 C 0.82543(8) 0.09954(8) 0.91120(9)
C25_21 C 0.81219(9) 0.09517(9) 0.87921(9)
C26_21 C 0.78096(9) 0.08312(10) 0.87437(9)
C27_21 C 0.77075(11) 0.07854(14) 0.84259(9)
H14_21 H 0.749842 0.070279 0.838294
C28_21 C 0.79100(12) 0.08599(17) 0.81780(11)
H15_21 H 0.784253 0.083067 0.796123
C29_21 C 0.82144(12) 0.09784(16) 0.82448(11)
H16_21 H 0.835357 0.102658 0.806956
C30_21 C 0.77439(8) 0.08257(8) 0.93335(8)
C31_21 C 0.76238(8) 0.07671(8) 0.90279(8)
C32_21 C 0.72576(8) 0.06451(8) 0.93753(8)
C33_21 C 0.69527(8) 0.05403(9) 0.95235(8)
C34_21 C 0.66613(9) 0.06678(10) 0.94240(8)
H17_21 H 0.665585 0.081592 0.924958
C35_21 C 0.63762(10) 0.05811(12) 0.95771(10)
H18_21 H 0.617518 0.066879 0.951152
C36_21 C 0.63950(11) 0.03645(12) 0.98263(10)
C37_21 C 0.66789(11) 0.02240(11) 0.99302(9)
C38_21 C 0.69608(10) 0.03143(10) 0.97770(8)
H20_21 H 0.716048 0.022378 0.984282
C1_21 C 0.63741(9) 0.88034(9) 0.80769(10)
H1_21 H 0.630943 0.858427 0.806292
C2_21 C 0.64320(9) 0.89706(9) 0.77936(10)
H2_21 H 0.641003 0.886666 0.759091
C3_21 C 0.65215(9) 0.92881(9) 0.78102(9)
H3_21 H 0.655381 0.940854 0.761820
C4_21 C 0.65653(8) 0.94349(8) 0.81123(8)
C5_21 C 0.65046(8) 0.92457(8) 0.83880(9)
C6_21 C 0.65483(9) 0.93781(9) 0.87079(9)
C7_21 C 0.66688(10) 0.96904(9) 0.87563(9)
C8_21 C 0.67146(14) 0.97925(11) 0.90741(9)
C9_21 C 0.66401(17) 0.95900(12) 0.93220(11)
H5_21 H 0.666933 0.965747 0.953877
C10_21 C 0.65216(16) 0.92856(12) 0.92552(11)
H6_21 H 0.647342 0.914643 0.943044
C11_21 C 0.66743(8) 0.97561(8) 0.81665(8)
C12_21 C 0.67329(8) 0.98762(8) 0.84721(8)
Cu2_22 Cu 0.29262(2) 0.54262(2) 0.625000
F1_22 F 0.27789(9) 0.63847(7) 0.74758(7)
N4_22 N 0.31512(7) 0.51860(7) 0.65551(6)
C1_22 C 0.36259(9) 0.38034(9) 0.69231(10)
H1_22 H 0.369057 0.358427 0.693708
C2_22 C 0.35680(9) 0.39706(9) 0.72064(10)
H2_22 H 0.358997 0.386666 0.740909
C3_22 C 0.34785(9) 0.42881(9) 0.71898(9)
H3_22 H 0.344619 0.440854 0.738180
C4_22 C 0.34347(8) 0.44349(8) 0.68877(8)
C5_22 C 0.34954(8) 0.42457(8) 0.66120(9)
C6_22 C 0.34517(9) 0.43781(9) 0.62921(9)
C7_22 C 0.33312(10) 0.46904(9) 0.62437(9)
C8_22 C 0.32854(14) 0.47925(11) 0.59259(9)
H4_22 H 0.320279 0.500158 0.588294
C9_22 C 0.33599(17) 0.45900(12) 0.56780(11)
H5_22 H 0.333067 0.465747 0.546123
C10_22 C 0.34784(16) 0.42856(12) 0.57448(11)
H6_22 H 0.352658 0.414643 0.556956
C11_22 C 0.33257(8) 0.47561(8) 0.68335(8)
C12_22 C 0.32671(8) 0.48762(8) 0.65279(8)
C13_22 C 0.31451(8) 0.52424(8) 0.68753(8)
C14_22 C 0.30403(9) 0.55473(8) 0.70235(8)
C15_22 C 0.31678(10) 0.58387(9) 0.69240(8)
H7_22 H 0.331592 0.584415 0.674958
C16_22 C 0.30811(12) 0.61238(10) 0.70771(10)
H8_22 H 0.316879 0.632482 0.701152
C17_22 C 0.28645(12) 0.61050(11) 0.73263(10)
C18_22 C 0.27240(11) 0.58211(11) 0.74302(9)
H9_22 H 0.257100 0.581984 0.760043
C19_22 C 0.28143(10) 0.55392(10) 0.72770(8)
H10_22 H 0.272378 0.533952 0.734282
F2_22 F 0.38847(7) 0.52789(9) 0.50242(7)
N8_22 N 0.26860(7) 0.56512(7) 0.59449(6)
C20_22 C 0.13034(9) 0.61259(9) 0.55769(10)
H11_22 H 0.108427 0.619057 0.556292
C21_22 C 0.14706(9) 0.60680(9) 0.52936(10)
H12_22 H 0.136666 0.608997 0.509091
C22_22 C 0.17881(9) 0.59785(9) 0.53102(9)
H13_22 H 0.190854 0.594619 0.511820
C23_22 C 0.19349(8) 0.59347(8) 0.56123(8)
C24_22 C 0.17457(8) 0.59954(8) 0.58880(9)
C25_22 C 0.18781(9) 0.59517(9) 0.62079(9)
C26_22 C 0.21904(9) 0.58312(10) 0.62563(9)
C27_22 C 0.22925(11) 0.57854(14) 0.65741(9)
H14_22 H 0.250158 0.570279 0.661706
C28_22 C 0.20900(12) 0.58599(17) 0.68220(11)
H15_22 H 0.215747 0.583067 0.703877
C29_22 C 0.17856(12) 0.59784(16) 0.67552(11)
H16_22 H 0.164643 0.602658 0.693044
C30_22 C 0.22561(8) 0.58257(8) 0.56665(8)
C31_22 C 0.23762(8) 0.57671(8) 0.59721(8)
C32_22 C 0.27424(8) 0.56451(8) 0.56247(8)
C33_22 C 0.30473(8) 0.55403(9) 0.54765(8)
C34_22 C 0.33387(9) 0.56678(10) 0.55760(8)
H17_22 H 0.334415 0.581592 0.575042
C35_22 C 0.36238(10) 0.55811(12) 0.54229(10)
H18_22 H 0.382482 0.566879 0.548848
C36_22 C 0.36050(11) 0.53645(12) 0.51737(10)
C37_22 C 0.33211(11) 0.52240(11) 0.50698(9)
H19_22 H 0.331984 0.507100 0.489957
C38_22 C 0.30392(10) 0.53143(10) 0.52230(8)
H20_22 H 0.283952 0.522378 0.515718
Cu2_23 Cu 0.20738(2) 0.45738(2) 0.125000
F1_23 F 0.22211(9) 0.36153(7) 0.24758(7)
N4_23 N 0.18488(7) 0.48140(7) 0.15551(6)
C1_23 C 0.13741(9) 0.61966(9) 0.19231(10)
H1_23 H 0.130943 0.641573 0.193708
C2_23 C 0.14320(9) 0.60294(9) 0.22064(10)
H2_23 H 0.141003 0.613334 0.240909
C3_23 C 0.15215(9) 0.57119(9) 0.21898(9)
H3_23 H 0.155381 0.559146 0.238180
C4_23 C 0.15653(8) 0.55651(8) 0.18877(8)
C5_23 C 0.15046(8) 0.57543(8) 0.16120(9)
C6_23 C 0.15483(9) 0.56219(9) 0.12921(9)
C7_23 C 0.16688(10) 0.53096(9) 0.12437(9)
C8_23 C 0.17146(14) 0.52075(11) 0.09259(9)
H4_23 H 0.179721 0.499842 0.088294
C9_23 C 0.16401(17) 0.54100(12) 0.06780(11)
H5_23 H 0.166933 0.534253 0.046123
C10_23 C 0.15216(16) 0.57144(12) 0.07448(11)
H6_23 H 0.147342 0.585357 0.056956
C11_23 C 0.16743(8) 0.52439(8) 0.18335(8)
C12_23 C 0.17329(8) 0.51238(8) 0.15279(8)
C13_23 C 0.18549(8) 0.47576(8) 0.18753(8)
C14_23 C 0.19597(9) 0.44527(8) 0.20235(8)
C15_23 C 0.18322(10) 0.41613(9) 0.19240(8)
H7_23 H 0.168408 0.415585 0.174958
C16_23 C 0.19189(12) 0.38762(10) 0.20771(10)
H8_23 H 0.183121 0.367518 0.201152
C17_23 C 0.21355(12) 0.38950(11) 0.23263(10)
C18_23 C 0.22760(11) 0.41789(11) 0.24302(9)
H9_23 H 0.242900 0.418016 0.260043
C19_23 C 0.21857(10) 0.44608(10) 0.22770(8)
H10_23 H 0.227622 0.466048 0.234282
F2_23 F 0.11153(7) 0.47211(9) 0.00242(7)
N8_23 N 0.23140(7) 0.43488(7) 0.09449(6)
C20_23 C 0.36966(9) 0.38741(9) 0.05769(10)
H11_23 H 0.391573 0.380943 0.056292
C21_23 C 0.35294(9) 0.39320(9) 0.02936(10)
H12_23 H 0.363334 0.391003 0.009091
C22_23 C 0.32119(9) 0.40215(9) 0.03102(9)
H13_23 H 0.309146 0.405381 0.011820
C23_23 C 0.30651(8) 0.40653(8) 0.06123(8)
C24_23 C 0.32543(8) 0.40046(8) 0.08880(9)
C25_23 C 0.31219(9) 0.40483(9) 0.12079(9)
C26_23 C 0.28096(9) 0.41688(10) 0.12563(9)
C27_23 C 0.27075(11) 0.42146(14) 0.15741(9)
H14_23 H 0.249842 0.429721 0.161706
C28_23 C 0.29100(12) 0.41401(17) 0.18220(11)
H15_23 H 0.284253 0.416933 0.203877
C29_23 C 0.32144(12) 0.40216(16) 0.17552(11)
H16_23 H 0.335357 0.397342 0.193044
C30_23 C 0.27439(8) 0.41743(8) 0.06665(8)
C31_23 C 0.26238(8) 0.42329(8) 0.09721(8)
C32_23 C 0.22576(8) 0.43549(8) 0.06247(8)
C33_23 C 0.19527(8) 0.44597(9) 0.04765(8)
C34_23 C 0.16613(9) 0.43322(10) 0.05760(8)
H17_23 H 0.165585 0.418408 0.075042
C35_23 C 0.13762(10) 0.44189(12) 0.04229(10)
H18_23 H 0.117518 0.433121 0.048848
C36_23 C 0.13950(11) 0.46355(12) 0.01737(10)
C37_23 C 0.16789(11) 0.47760(11) 0.00698(9)
C38_23 C 0.19608(10) 0.46857(10) 0.02230(8)
H20_23 H 0.216048 0.477622 0.015718
H19_23 H 0.168016 0.492900 0.989957
C1_24 C 0.86259(9) 0.11966(9) 0.30769(10)
H1_24 H 0.869057 0.141573 0.306292
C2_24 C 0.85680(9) 0.10294(9) 0.27936(10)
H2_24 H 0.858997 0.113334 0.259091
C3_24 C 0.84785(9) 0.07119(9) 0.28102(9)
H3_24 H 0.844619 0.059146 0.261820
C4_24 C 0.84347(8) 0.05651(8) 0.31123(8)
C5_24 C 0.84954(8) 0.07543(8) 0.33880(9)
C6_24 C 0.84517(9) 0.06219(9) 0.37079(9)
C7_24 C 0.83312(10) 0.03096(9) 0.37563(9)
C8_24 C 0.82854(14) 0.02075(11) 0.40741(9)
C9_24 C 0.83599(17) 0.04100(12) 0.43220(11)
H5_24 H 0.833067 0.034253 0.453877
C10_24 C 0.84784(16) 0.07144(12) 0.42552(11)
H6_24 H 0.852658 0.085357 0.443044
C11_24 C 0.83257(8) 0.02439(8) 0.31665(8)
C12_24 C 0.82671(8) 0.01238(8) 0.34721(8)
Cu2_24 Cu 0.79262(2) 0.95738(2) 0.375000
F1_24 F 0.77789(9) 0.86153(7) 0.25242(7)
N4_24 N 0.81512(7) 0.98140(7) 0.34449(6)
H4_24 H 0.820279 0.999842 0.411706
C13_24 C 0.81451(8) 0.97576(8) 0.31247(8)
C14_24 C 0.80403(9) 0.94527(8) 0.29765(8)
C15_24 C 0.81678(10) 0.91613(9) 0.30760(8)
H7_24 H 0.831592 0.915585 0.325042
C16_24 C 0.80811(12) 0.88762(10) 0.29229(10)
H8_24 H 0.816879 0.867518 0.298848
C17_24 C 0.78645(12) 0.88950(11) 0.26737(10)
C18_24 C 0.77240(11) 0.91789(11) 0.25698(9)
H9_24 H 0.757100 0.918016 0.239957
C19_24 C 0.78143(10) 0.94608(10) 0.27230(8)
H10_24 H 0.772378 0.966048 0.265718
F2_24 F 0.88847(7) 0.97211(9) 0.49758(7)
N8_24 N 0.76860(7) 0.93488(7) 0.40551(6)
C20_24 C 0.63034(9) 0.88741(9) 0.44231(10)
H11_24 H 0.608427 0.880943 0.443708
C21_24 C 0.64706(9) 0.89320(9) 0.47064(10)
H12_24 H 0.636666 0.891003 0.490909
C22_24 C 0.67881(9) 0.90215(9) 0.46898(9)
H13_24 H 0.690854 0.905381 0.488180
C23_24 C 0.69349(8) 0.90653(8) 0.43877(8)
C24_24 C 0.67457(8) 0.90046(8) 0.41120(9)
C25_24 C 0.68781(9) 0.90483(9) 0.37921(9)
C26_24 C 0.71904(9) 0.91688(10) 0.37437(9)
C27_24 C 0.72925(11) 0.92146(14) 0.34259(9)
H14_24 H 0.750158 0.929721 0.338294
C28_24 C 0.70900(12) 0.91401(17) 0.31780(11)
H15_24 H 0.715747 0.916933 0.296123
C29_24 C 0.67856(12) 0.90216(16) 0.32448(11)
H16_24 H 0.664643 0.897342 0.306956
C30_24 C 0.72561(8) 0.91743(8) 0.43335(8)
C31_24 C 0.73762(8) 0.92329(8) 0.40279(8)
C32_24 C 0.77424(8) 0.93549(8) 0.43753(8)
C33_24 C 0.80473(8) 0.94597(9) 0.45235(8)
C34_24 C 0.83387(9) 0.93322(10) 0.44240(8)
H17_24 H 0.834415 0.918408 0.424958
C35_24 C 0.86238(10) 0.94189(12) 0.45771(10)
H18_24 H 0.882482 0.933121 0.451152
C36_24 C 0.86050(11) 0.96355(12) 0.48263(10)
C37_24 C 0.83211(11) 0.97760(11) 0.49302(9)
H19_24 H 0.831984 0.992900 0.510043
C38_24 C 0.80392(10) 0.96857(10) 0.47770(8)
H20_24 H 0.783952 0.977622 0.484282
Cu1_13 Cu 0.61918(2) 0.86918(2) 0.625000
Cu2_25 Cu 0.625000 0.79262(2) 0.45738(2)
Cu3_19 Cu 0.750000 0.82670(2) 0.500000
F1_25 F 0.74758(7) 0.77789(9) 0.36153(7)
N2_13 N 0.66323(8) 0.85951(7) 0.60645(7)
N3_13 N 0.60421(8) 0.85277(10) 0.58211(8)
N4_25 N 0.65551(6) 0.81512(7) 0.48140(7)
N5_13 N 0.70524(6) 0.82497(7) 0.50092(7)
C1_25 C 0.69231(10) 0.86259(9) 0.61966(9)
H1_25 H 0.693708 0.869057 0.641573
C2_25 C 0.72064(10) 0.85680(9) 0.60294(9)
H2_25 H 0.740909 0.858997 0.613334
C3_25 C 0.71898(9) 0.84785(9) 0.57119(9)
H3_25 H 0.738180 0.844619 0.559146
C4_25 C 0.68877(8) 0.84347(8) 0.55651(8)
C5_25 C 0.66120(9) 0.84954(8) 0.57543(8)
C6_25 C 0.62921(9) 0.84517(9) 0.56219(9)
C7_25 C 0.62437(9) 0.83312(10) 0.53096(9)
C8_25 C 0.59259(9) 0.82854(14) 0.52075(11)
H4_25 H 0.588294 0.820279 0.499842
C9_25 C 0.56780(11) 0.83599(17) 0.54100(12)
H5_25 H 0.546123 0.833067 0.534253
C10_25 C 0.57448(11) 0.84784(16) 0.57144(12)
H6_25 H 0.556956 0.852658 0.585357
C11_25 C 0.68335(8) 0.83257(8) 0.52439(8)
C12_25 C 0.65279(8) 0.82671(8) 0.51238(8)
C13_25 C 0.68753(8) 0.81451(8) 0.47576(8)
C14_25 C 0.70235(8) 0.80403(9) 0.44527(8)
C15_25 C 0.69240(8) 0.81678(10) 0.41613(9)
H7_25 H 0.674958 0.831592 0.415585
C16_25 C 0.70771(10) 0.80811(12) 0.38762(10)
H8_25 H 0.701152 0.816879 0.367518
C17_25 C 0.73263(10) 0.78645(12) 0.38950(11)
C18_25 C 0.74302(9) 0.77240(11) 0.41789(11)
H9_25 H 0.760043 0.757100 0.418016
C19_25 C 0.72770(8) 0.78143(10) 0.44608(10)
H10_25 H 0.734282 0.772378 0.466048
F2_25 F 0.50242(7) 0.88847(7) 0.47211(9)
N6_13 N 0.58677(8) 0.64355(7) 0.39049(7)
N7_13 N 0.64579(8) 0.66789(8) 0.39723(10)
N8_25 N 0.59449(6) 0.76860(7) 0.43488(7)
N9_13 N 0.54476(6) 0.74908(7) 0.42503(7)
C20_25 C 0.55769(10) 0.63034(9) 0.38741(9)
H11_25 H 0.556292 0.608427 0.380943
C21_25 C 0.52936(10) 0.64706(9) 0.39320(9)
H12_25 H 0.509091 0.636666 0.391003
C22_25 C 0.53102(9) 0.67881(9) 0.40215(9)
H13_25 H 0.511820 0.690854 0.405381
C23_25 C 0.56123(8) 0.69349(8) 0.40653(8)
C24_25 C 0.58880(9) 0.67457(8) 0.40046(8)
C25_25 C 0.62079(9) 0.68781(9) 0.40483(9)
C26_25 C 0.62563(9) 0.71904(9) 0.41688(10)
C27_25 C 0.65741(9) 0.72925(11) 0.42146(14)
H14_25 H 0.661706 0.750158 0.429721
C28_25 C 0.68220(11) 0.70900(12) 0.41401(17)
H15_25 H 0.703877 0.715747 0.416933
C29_25 C 0.67552(11) 0.67856(12) 0.40216(16)
H16_25 H 0.693044 0.664643 0.397342
C30_25 C 0.56665(8) 0.72561(8) 0.41743(8)
C31_25 C 0.59721(8) 0.73762(8) 0.42329(8)
C32_25 C 0.56247(8) 0.77424(8) 0.43549(8)
C33_25 C 0.54765(8) 0.80473(8) 0.44597(9)
C34_25 C 0.55760(8) 0.83387(9) 0.43322(10)
H17_25 H 0.575042 0.834415 0.418408
C35_25 C 0.54229(10) 0.86238(10) 0.44189(12)
H18_25 H 0.548848 0.882482 0.433121
C36_25 C 0.51737(10) 0.86050(11) 0.46355(12)
C37_25 C 0.50698(9) 0.83211(11) 0.47760(11)
H19_25 H 0.489957 0.831984 0.492900
C38_25 C 0.52230(8) 0.80392(10) 0.46857(10)
H20_25 H 0.515718 0.783952 0.477622
Cu4_13 Cu 0.63082(2) 0.625000 0.38082(2)
Cu5_19 Cu 0.500000 0.750000 0.42330(2)
N10_25 N 0.60951(7) 0.91323(8) 0.64355(7)
N11_25 N 0.60277(10) 0.85421(8) 0.66789(8)
N12_25 N 0.79476(6) 0.82497(7) 0.49908(7)
H19_26 H 0.010043 0.168016 0.992900
Cu5_20 Cu -0.000000 0.250000 0.92330(2)
Cu1_14 Cu 0.88082(2) 0.13082(2) 0.125000
Cu3_20 Cu 0.750000 0.17330(2) 0.000000
N2_14 N 0.83677(8) 0.14049(7) 0.10645(7)
N3_14 N 0.89579(8) 0.14723(10) 0.08211(8)
N5_14 N 0.79476(6) 0.17503(7) 0.00092(7)
C1_26 C 0.80769(10) 0.13741(9) 0.11966(9)
H1_26 H 0.806292 0.130943 0.141573
C2_26 C 0.77936(10) 0.14320(9) 0.10294(9)
H2_26 H 0.759091 0.141003 0.113334
C3_26 C 0.78102(9) 0.15215(9) 0.07119(9)
H3_26 H 0.761820 0.155381 0.059146
C4_26 C 0.81123(8) 0.15653(8) 0.05651(8)
C5_26 C 0.83880(9) 0.15046(8) 0.07543(8)
C6_26 C 0.87079(9) 0.15483(9) 0.06219(9)
C7_26 C 0.87563(9) 0.16688(10) 0.03096(9)
C8_26 C 0.90741(9) 0.17146(14) 0.02075(11)
C9_26 C 0.93220(11) 0.16401(17) 0.04100(12)
H5_26 H 0.953877 0.166933 0.034253
C10_26 C 0.92552(11) 0.15216(16) 0.07144(12)
H6_26 H 0.943044 0.147342 0.085357
C11_26 C 0.81665(8) 0.16743(8) 0.02439(8)
C12_26 C 0.84721(8) 0.17329(8) 0.01238(8)
N10_26 N 0.89049(7) 0.08677(8) 0.14355(7)
N11_26 N 0.89723(10) 0.14579(8) 0.16789(8)
Cu2_26 Cu 0.875000 0.20738(2) 0.95738(2)
Cu3_21 Cu 0.750000 0.17330(2) 1.000000
F1_26 F 0.75242(7) 0.22211(9) 0.86153(7)
N4_26 N 0.84449(6) 0.18488(7) 0.98140(7)
H4_26 H 0.911706 0.179721 0.999842
C13_26 C 0.81247(8) 0.18549(8) 0.97576(8)
C14_26 C 0.79765(8) 0.19597(9) 0.94527(8)
C15_26 C 0.80760(8) 0.18322(10) 0.91613(9)
H7_26 H 0.825042 0.168408 0.915585
C16_26 C 0.79229(10) 0.19189(12) 0.88762(10)
H8_26 H 0.798848 0.183121 0.867518
C17_26 C 0.76737(10) 0.21355(12) 0.88950(11)
C18_26 C 0.75698(9) 0.22760(11) 0.91789(11)
H9_26 H 0.739957 0.242900 0.918016
C19_26 C 0.77230(8) 0.21857(10) 0.94608(10)
H10_26 H 0.765718 0.227622 0.966048
F2_26 F 0.99758(7) 0.11153(7) 0.97211(9)
N6_14 N 0.91323(8) 0.35645(7) 0.89049(7)
N7_14 N 0.85421(8) 0.33211(8) 0.89723(10)
N8_26 N 0.90551(6) 0.23140(7) 0.93488(7)
N9_14 N 0.95524(6) 0.25092(7) 0.92503(7)
C20_26 C 0.94231(10) 0.36966(9) 0.88741(9)
H11_26 H 0.943708 0.391573 0.880943
C21_26 C 0.97064(10) 0.35294(9) 0.89320(9)
H12_26 H 0.990909 0.363334 0.891003
C22_26 C 0.96898(9) 0.32119(9) 0.90215(9)
H13_26 H 0.988180 0.309146 0.905381
C23_26 C 0.93877(8) 0.30651(8) 0.90653(8)
C24_26 C 0.91120(9) 0.32543(8) 0.90046(8)
C25_26 C 0.87921(9) 0.31219(9) 0.90483(9)
C26_26 C 0.87437(9) 0.28096(9) 0.91688(10)
C27_26 C 0.84259(9) 0.27075(11) 0.92146(14)
H14_26 H 0.838294 0.249842 0.929721
C28_26 C 0.81780(11) 0.29100(12) 0.91401(17)
H15_26 H 0.796123 0.284253 0.916933
C29_26 C 0.82448(11) 0.32144(12) 0.90216(16)
H16_26 H 0.806956 0.335357 0.897342
C30_26 C 0.93335(8) 0.27439(8) 0.91743(8)
C31_26 C 0.90279(8) 0.26238(8) 0.92329(8)
C32_26 C 0.93753(8) 0.22576(8) 0.93549(8)
C33_26 C 0.95235(8) 0.19527(8) 0.94597(9)
C34_26 C 0.94240(8) 0.16613(9) 0.93322(10)
H17_26 H 0.924958 0.165585 0.918408
C35_26 C 0.95771(10) 0.13762(10) 0.94189(12)
H18_26 H 0.951152 0.117518 0.933121
C36_26 C 0.98263(10) 0.13950(11) 0.96355(12)
C37_26 C 0.99302(9) 0.16789(11) 0.97760(11)
C38_26 C 0.97770(8) 0.19608(10) 0.96857(10)
H20_26 H 0.984282 0.216048 0.977622
Cu4_14 Cu 0.86918(2) 0.375000 0.88082(2)
Cu5_21 Cu 1.000000 0.250000 0.92330(2)
N12_26 N 0.70524(6) 0.17503(7) 0.99908(7)
Cu2_27 Cu 0.375000 0.29262(2) 0.04262(2)
Cu3_22 Cu 0.250000 0.32670(2) 0.000000
F1_27 F 0.25242(7) 0.27789(9) 0.13847(7)
N4_27 N 0.34449(6) 0.31512(7) 0.01860(7)
H4_27 H 0.411706 0.320279 0.000158
C13_27 C 0.31247(8) 0.31451(8) 0.02424(8)
C14_27 C 0.29765(8) 0.30403(9) 0.05473(8)
C15_27 C 0.30760(8) 0.31678(10) 0.08387(9)
H7_27 H 0.325042 0.331592 0.084415
C16_27 C 0.29229(10) 0.30811(12) 0.11238(10)
H8_27 H 0.298848 0.316879 0.132482
C17_27 C 0.26737(10) 0.28645(12) 0.11050(11)
C18_27 C 0.25698(9) 0.27240(11) 0.08211(11)
H9_27 H 0.239957 0.257100 0.081984
C19_27 C 0.27230(8) 0.28143(10) 0.05392(10)
H10_27 H 0.265718 0.272378 0.033952
F2_27 F 0.49758(7) 0.38847(7) 0.02789(9)
N6_15 N 0.41323(8) 0.14355(7) 0.10951(7)
N7_15 N 0.35421(8) 0.16789(8) 0.10277(10)
N8_27 N 0.40551(6) 0.26860(7) 0.06512(7)
N9_15 N 0.45524(6) 0.24908(7) 0.07497(7)
C20_27 C 0.44231(10) 0.13034(9) 0.11259(9)
H11_27 H 0.443708 0.108427 0.119057
C21_27 C 0.47064(10) 0.14706(9) 0.10680(9)
H12_27 H 0.490909 0.136666 0.108997
C22_27 C 0.46898(9) 0.17881(9) 0.09785(9)
H13_27 H 0.488180 0.190854 0.094619
C23_27 C 0.43877(8) 0.19349(8) 0.09347(8)
C24_27 C 0.41120(9) 0.17457(8) 0.09954(8)
C25_27 C 0.37921(9) 0.18781(9) 0.09517(9)
C26_27 C 0.37437(9) 0.21904(9) 0.08312(10)
C27_27 C 0.34259(9) 0.22925(11) 0.07854(14)
H14_27 H 0.338294 0.250158 0.070279
C28_27 C 0.31780(11) 0.20900(12) 0.08599(17)
H15_27 H 0.296123 0.215747 0.083067
C29_27 C 0.32448(11) 0.17856(12) 0.09784(16)
H16_27 H 0.306956 0.164643 0.102658
C30_27 C 0.43335(8) 0.22561(8) 0.08257(8)
C31_27 C 0.40279(8) 0.23762(8) 0.07671(8)
C32_27 C 0.43753(8) 0.27424(8) 0.06451(8)
C33_27 C 0.45235(8) 0.30473(8) 0.05403(9)
C34_27 C 0.44240(8) 0.33387(9) 0.06678(10)
H17_27 H 0.424958 0.334415 0.081592
C35_27 C 0.45771(10) 0.36238(10) 0.05811(12)
H18_27 H 0.451152 0.382482 0.066879
C36_27 C 0.48263(10) 0.36050(11) 0.03645(12)
C37_27 C 0.49302(9) 0.33211(11) 0.02240(11)
H19_27 H 0.510043 0.331984 0.007100
C38_27 C 0.47770(8) 0.30392(10) 0.03143(10)
H20_27 H 0.484282 0.283952 0.022378
Cu4_15 Cu 0.36918(2) 0.125000 0.11918(2)
Cu5_22 Cu 0.500000 0.250000 0.07670(2)
N12_27 N 0.20524(6) 0.32497(7) 0.00092(7)
Cu1_15 Cu 0.38082(2) 0.36918(2) 0.875000
Cu3_23 Cu 0.250000 0.32670(2) 1.000000
N2_15 N 0.33677(8) 0.35951(7) 0.89355(7)
N3_15 N 0.39579(8) 0.35277(10) 0.91789(8)
N5_15 N 0.29476(6) 0.32497(7) 0.99908(7)
C1_27 C 0.30769(10) 0.36259(9) 0.88034(9)
H1_27 H 0.306292 0.369057 0.858427
C2_27 C 0.27936(10) 0.35680(9) 0.89706(9)
H2_27 H 0.259091 0.358997 0.886666
C3_27 C 0.28102(9) 0.34785(9) 0.92881(9)
H3_27 H 0.261820 0.344619 0.940854
C4_27 C 0.31123(8) 0.34347(8) 0.94349(8)
C5_27 C 0.33880(9) 0.34954(8) 0.92457(8)
C6_27 C 0.37079(9) 0.34517(9) 0.93781(9)
C7_27 C 0.37563(9) 0.33312(10) 0.96904(9)
C8_27 C 0.40741(9) 0.32854(14) 0.97925(11)
C9_27 C 0.43220(11) 0.33599(17) 0.95900(12)
H5_27 H 0.453877 0.333067 0.965747
C10_27 C 0.42552(11) 0.34784(16) 0.92856(12)
H6_27 H 0.443044 0.352658 0.914643
C11_27 C 0.31665(8) 0.33257(8) 0.97561(8)
C12_27 C 0.34721(8) 0.32671(8) 0.98762(8)
N10_27 N 0.39049(7) 0.41323(8) 0.85645(7)
N11_27 N 0.39723(10) 0.35421(8) 0.83211(8)
Cu1_16 Cu 0.11918(2) 0.63082(2) 0.375000
Cu2_28 Cu 0.125000 0.70738(2) 0.54262(2)
Cu3_24 Cu 0.250000 0.67330(2) 0.500000
F1_28 F 0.24758(7) 0.72211(9) 0.63847(7)
N2_16 N 0.16323(8) 0.64049(7) 0.39355(7)
N3_16 N 0.10421(8) 0.64723(10) 0.41789(8)
N4_28 N 0.15551(6) 0.68488(7) 0.51860(7)
N5_16 N 0.20524(6) 0.67503(7) 0.49908(7)
C1_28 C 0.19231(10) 0.63741(9) 0.38034(9)
H1_28 H 0.193708 0.630943 0.358427
C2_28 C 0.22064(10) 0.64320(9) 0.39706(9)
H2_28 H 0.240909 0.641003 0.386666
C3_28 C 0.21898(9) 0.65215(9) 0.42881(9)
H3_28 H 0.238180 0.655381 0.440854
C4_28 C 0.18877(8) 0.65653(8) 0.44349(8)
C5_28 C 0.16120(9) 0.65046(8) 0.42457(8)
C6_28 C 0.12921(9) 0.65483(9) 0.43781(9)
C7_28 C 0.12437(9) 0.66688(10) 0.46904(9)
C8_28 C 0.09259(9) 0.67146(14) 0.47925(11)
H4_28 H 0.088294 0.679721 0.500158
C9_28 C 0.06780(11) 0.66401(17) 0.45900(12)
H5_28 H 0.046123 0.666933 0.465747
C10_28 C 0.07448(11) 0.65216(16) 0.42856(12)
H6_28 H 0.056956 0.647342 0.414643
C11_28 C 0.18335(8) 0.66743(8) 0.47561(8)
C12_28 C 0.15279(8) 0.67329(8) 0.48762(8)
C13_28 C 0.18753(8) 0.68549(8) 0.52424(8)
C14_28 C 0.20235(8) 0.69597(9) 0.55473(8)
C15_28 C 0.19240(8) 0.68322(10) 0.58387(9)
H7_28 H 0.174958 0.668408 0.584415
C16_28 C 0.20771(10) 0.69189(12) 0.61238(10)
H8_28 H 0.201152 0.683121 0.632482
C17_28 C 0.23263(10) 0.71355(12) 0.61050(11)
C18_28 C 0.24302(9) 0.72760(11) 0.58211(11)
H9_28 H 0.260043 0.742900 0.581984
C19_28 C 0.22770(8) 0.71857(10) 0.55392(10)
H10_28 H 0.234282 0.727622 0.533952
F2_28 F 0.00242(7) 0.61153(7) 0.52789(9)
N6_16 N 0.08677(8) 0.85645(7) 0.60951(7)
N7_16 N 0.14579(8) 0.83211(8) 0.60277(10)
N8_28 N 0.09449(6) 0.73140(7) 0.56512(7)
N9_16 N 0.04476(6) 0.75092(7) 0.57497(7)
C20_28 C 0.05769(10) 0.86966(9) 0.61259(9)
H11_28 H 0.056292 0.891573 0.619057
C21_28 C 0.02936(10) 0.85294(9) 0.60680(9)
H12_28 H 0.009091 0.863334 0.608997
C22_28 C 0.03102(9) 0.82119(9) 0.59785(9)
H13_28 H 0.011820 0.809146 0.594619
C23_28 C 0.06123(8) 0.80651(8) 0.59347(8)
C24_28 C 0.08880(9) 0.82543(8) 0.59954(8)
C25_28 C 0.12079(9) 0.81219(9) 0.59517(9)
C26_28 C 0.12563(9) 0.78096(9) 0.58312(10)
C27_28 C 0.15741(9) 0.77075(11) 0.57854(14)
H14_28 H 0.161706 0.749842 0.570279
C28_28 C 0.18220(11) 0.79100(12) 0.58599(17)
H15_28 H 0.203877 0.784253 0.583067
C29_28 C 0.17552(11) 0.82144(12) 0.59784(16)
H16_28 H 0.193044 0.835357 0.602658
C30_28 C 0.06665(8) 0.77439(8) 0.58257(8)
C31_28 C 0.09721(8) 0.76238(8) 0.57671(8)
C32_28 C 0.06247(8) 0.72576(8) 0.56451(8)
C33_28 C 0.04765(8) 0.69527(8) 0.55403(9)
C34_28 C 0.05760(8) 0.66613(9) 0.56678(10)
H17_28 H 0.075042 0.665585 0.581592
C35_28 C 0.04229(10) 0.63762(10) 0.55811(12)
H18_28 H 0.048848 0.617518 0.566879
C36_28 C 0.01737(10) 0.63950(11) 0.53645(12)
C37_28 C 0.00698(9) 0.66789(11) 0.52240(11)
C38_28 C 0.02230(8) 0.69608(10) 0.53143(10)
H20_28 H 0.015718 0.716048 0.522378
Cu4_16 Cu 0.13082(2) 0.875000 0.61918(2)
Cu5_23 Cu 0.000000 0.750000 0.57670(2)
N10_28 N 0.10951(7) 0.58677(8) 0.35645(7)
N11_28 N 0.10277(10) 0.64579(8) 0.33211(8)
N12_28 N 0.29476(6) 0.67503(7) 0.50092(7)
H19_28 H 0.989957 0.668016 0.507100
Cu5_24 Cu 1.000000 0.750000 0.57670(2)
Cu1_17 Cu 0.625000 0.61918(2) 0.86918(2)
Cu2_29 Cu 0.45738(2) 0.625000 0.79262(2)
Cu3_25 Cu 0.500000 0.750000 0.82670(2)
F1_29 F 0.36153(7) 0.74758(7) 0.77789(9)
N2_17 N 0.60645(7) 0.66323(8) 0.85951(7)
N3_17 N 0.58211(8) 0.60421(8) 0.85277(10)
N4_29 N 0.48140(7) 0.65551(6) 0.81512(7)
N5_17 N 0.50092(7) 0.70524(6) 0.82497(7)
C1_29 C 0.61966(9) 0.69231(10) 0.86259(9)
H1_29 H 0.641573 0.693708 0.869057
C2_29 C 0.60294(9) 0.72064(10) 0.85680(9)
H2_29 H 0.613334 0.740909 0.858997
C3_29 C 0.57119(9) 0.71898(9) 0.84785(9)
H3_29 H 0.559146 0.738180 0.844619
C4_29 C 0.55651(8) 0.68877(8) 0.84347(8)
C5_29 C 0.57543(8) 0.66120(9) 0.84954(8)
C6_29 C 0.56219(9) 0.62921(9) 0.84517(9)
C7_29 C 0.53096(9) 0.62437(9) 0.83312(10)
C8_29 C 0.52075(11) 0.59259(9) 0.82854(14)
H4_29 H 0.499842 0.588294 0.820279
C9_29 C 0.54100(12) 0.56780(11) 0.83599(17)
H5_29 H 0.534253 0.546123 0.833067
C10_29 C 0.57144(12) 0.57448(11) 0.84784(16)
H6_29 H 0.585357 0.556956 0.852658
C11_29 C 0.52439(8) 0.68335(8) 0.83257(8)
C12_29 C 0.51238(8) 0.65279(8) 0.82671(8)
C13_29 C 0.47576(8) 0.68753(8) 0.81451(8)
C14_29 C 0.44527(8) 0.70235(8) 0.80403(9)
C15_29 C 0.41613(9) 0.69240(8) 0.81678(10)
H7_29 H 0.415585 0.674958 0.831592
C16_29 C 0.38762(10) 0.70771(10) 0.80811(12)
H8_29 H 0.367518 0.701152 0.816879
C17_29 C 0.38950(11) 0.73263(10) 0.78645(12)
C18_29 C 0.41789(11) 0.74302(9) 0.77240(11)
H9_29 H 0.418016 0.760043 0.757100
C19_29 C 0.44608(10) 0.72770(8) 0.78143(10)
H10_29 H 0.466048 0.734282 0.772378
F2_29 F 0.47211(9) 0.50242(7) 0.88847(7)
N6_17 N 0.39049(7) 0.58677(8) 0.64355(7)
N7_17 N 0.39723(10) 0.64579(8) 0.66789(8)
N8_29 N 0.43488(7) 0.59449(6) 0.76860(7)
N9_17 N 0.42503(7) 0.54476(6) 0.74908(7)
C20_29 C 0.38741(9) 0.55769(10) 0.63034(9)
H11_29 H 0.380943 0.556292 0.608427
C21_29 C 0.39320(9) 0.52936(10) 0.64706(9)
H12_29 H 0.391003 0.509091 0.636666
C22_29 C 0.40215(9) 0.53102(9) 0.67881(9)
H13_29 H 0.405381 0.511820 0.690854
C23_29 C 0.40653(8) 0.56123(8) 0.69349(8)
C24_29 C 0.40046(8) 0.58880(9) 0.67457(8)
C25_29 C 0.40483(9) 0.62079(9) 0.68781(9)
C26_29 C 0.41688(10) 0.62563(9) 0.71904(9)
C27_29 C 0.42146(14) 0.65741(9) 0.72925(11)
H14_29 H 0.429721 0.661706 0.750158
C28_29 C 0.41401(17) 0.68220(11) 0.70900(12)
H15_29 H 0.416933 0.703877 0.715747
C29_29 C 0.40216(16) 0.67552(11) 0.67856(12)
H16_29 H 0.397342 0.693044 0.664643
C30_29 C 0.41743(8) 0.56665(8) 0.72561(8)
C31_29 C 0.42329(8) 0.59721(8) 0.73762(8)
C32_29 C 0.43549(8) 0.56247(8) 0.77424(8)
C33_29 C 0.44597(9) 0.54765(8) 0.80473(8)
C34_29 C 0.43322(10) 0.55760(8) 0.83387(9)
H17_29 H 0.418408 0.575042 0.834415
C35_29 C 0.44189(12) 0.54229(10) 0.86238(10)
H18_29 H 0.433121 0.548848 0.882482
C36_29 C 0.46355(12) 0.51737(10) 0.86050(11)
C37_29 C 0.47760(11) 0.50698(9) 0.83211(11)
H19_29 H 0.492900 0.489957 0.831984
C38_29 C 0.46857(10) 0.52230(8) 0.80392(10)
H20_29 H 0.477622 0.515718 0.783952
Cu4_17 Cu 0.38082(2) 0.63082(2) 0.625000
Cu5_25 Cu 0.42330(2) 0.500000 0.750000
N10_29 N 0.64355(7) 0.60951(7) 0.91323(8)
N11_29 N 0.66789(8) 0.60277(10) 0.85421(8)
N12_29 N 0.49908(7) 0.79476(6) 0.82497(7)
Cu1_18 Cu 0.125000 0.88082(2) 0.13082(2)
Cu3_26 Cu 0.000000 0.750000 0.17330(2)
N2_18 N 0.10645(7) 0.83677(8) 0.14049(7)
N3_18 N 0.08211(8) 0.89579(8) 0.14723(10)
N5_18 N 0.00092(7) 0.79476(6) 0.17503(7)
C1_30 C 0.11966(9) 0.80769(10) 0.13741(9)
H1_30 H 0.141573 0.806292 0.130943
C2_30 C 0.10294(9) 0.77936(10) 0.14320(9)
H2_30 H 0.113334 0.759091 0.141003
C3_30 C 0.07119(9) 0.78102(9) 0.15215(9)
H3_30 H 0.059146 0.761820 0.155381
C4_30 C 0.05651(8) 0.81123(8) 0.15653(8)
C5_30 C 0.07543(8) 0.83880(9) 0.15046(8)
C6_30 C 0.06219(9) 0.87079(9) 0.15483(9)
C7_30 C 0.03096(9) 0.87563(9) 0.16688(10)
C8_30 C 0.02075(11) 0.90741(9) 0.17146(14)
C9_30 C 0.04100(12) 0.93220(11) 0.16401(17)
H5_30 H 0.034253 0.953877 0.166933
C10_30 C 0.07144(12) 0.92552(11) 0.15216(16)
H6_30 H 0.085357 0.943044 0.147342
C11_30 C 0.02439(8) 0.81665(8) 0.16743(8)
C12_30 C 0.01238(8) 0.84721(8) 0.17329(8)
N10_30 N 0.14355(7) 0.89049(7) 0.08677(8)
N11_30 N 0.16789(8) 0.89723(10) 0.14579(8)
H19_30 H 0.992900 0.010043 0.168016
Cu5_26 Cu 0.92330(2) -0.000000 0.250000
Cu2_30 Cu 0.95738(2) 0.875000 0.20738(2)
Cu3_27 Cu 1.000000 0.750000 0.17330(2)
F1_30 F 0.86153(7) 0.75242(7) 0.22211(9)
N4_30 N 0.98140(7) 0.84449(6) 0.18488(7)
H4_30 H 0.999842 0.911706 0.179721
C13_30 C 0.97576(8) 0.81247(8) 0.18549(8)
C14_30 C 0.94527(8) 0.79765(8) 0.19597(9)
C15_30 C 0.91613(9) 0.80760(8) 0.18322(10)
H7_30 H 0.915585 0.825042 0.168408
C16_30 C 0.88762(10) 0.79229(10) 0.19189(12)
H8_30 H 0.867518 0.798848 0.183121
C17_30 C 0.88950(11) 0.76737(10) 0.21355(12)
C18_30 C 0.91789(11) 0.75698(9) 0.22760(11)
H9_30 H 0.918016 0.739957 0.242900
C19_30 C 0.94608(10) 0.77230(8) 0.21857(10)
H10_30 H 0.966048 0.765718 0.227622
F2_30 F 0.97211(9) 0.99758(7) 0.11153(7)
N6_18 N 0.89049(7) 0.91323(8) 0.35645(7)
N7_18 N 0.89723(10) 0.85421(8) 0.33211(8)
N8_30 N 0.93488(7) 0.90551(6) 0.23140(7)
N9_18 N 0.92503(7) 0.95524(6) 0.25092(7)
C20_30 C 0.88741(9) 0.94231(10) 0.36966(9)
H11_30 H 0.880943 0.943708 0.391573
C21_30 C 0.89320(9) 0.97064(10) 0.35294(9)
H12_30 H 0.891003 0.990909 0.363334
C22_30 C 0.90215(9) 0.96898(9) 0.32119(9)
H13_30 H 0.905381 0.988180 0.309146
C23_30 C 0.90653(8) 0.93877(8) 0.30651(8)
C24_30 C 0.90046(8) 0.91120(9) 0.32543(8)
C25_30 C 0.90483(9) 0.87921(9) 0.31219(9)
C26_30 C 0.91688(10) 0.87437(9) 0.28096(9)
C27_30 C 0.92146(14) 0.84259(9) 0.27075(11)
H14_30 H 0.929721 0.838294 0.249842
C28_30 C 0.91401(17) 0.81780(11) 0.29100(12)
H15_30 H 0.916933 0.796123 0.284253
C29_30 C 0.90216(16) 0.82448(11) 0.32144(12)
H16_30 H 0.897342 0.806956 0.335357
C30_30 C 0.91743(8) 0.93335(8) 0.27439(8)
C31_30 C 0.92329(8) 0.90279(8) 0.26238(8)
C32_30 C 0.93549(8) 0.93753(8) 0.22576(8)
C33_30 C 0.94597(9) 0.95235(8) 0.19527(8)
C34_30 C 0.93322(10) 0.94240(8) 0.16613(9)
H17_30 H 0.918408 0.924958 0.165585
C35_30 C 0.94189(12) 0.95771(10) 0.13762(10)
H18_30 H 0.933121 0.951152 0.117518
C36_30 C 0.96355(12) 0.98263(10) 0.13950(11)
C37_30 C 0.97760(11) 0.99302(9) 0.16789(11)
C38_30 C 0.96857(10) 0.97770(8) 0.19608(10)
H20_30 H 0.977622 0.984282 0.216048
Cu4_18 Cu 0.88082(2) 0.86918(2) 0.375000
Cu5_27 Cu 0.92330(2) 1.000000 0.250000
N12_30 N 0.99908(7) 0.70524(6) 0.17503(7)
Cu2_31 Cu 0.04262(2) 0.375000 0.29262(2)
Cu3_28 Cu 0.000000 0.250000 0.32670(2)
F1_31 F 0.13847(7) 0.25242(7) 0.27789(9)
N4_31 N 0.01860(7) 0.34449(6) 0.31512(7)
H4_31 H 0.000158 0.411706 0.320279
C13_31 C 0.02424(8) 0.31247(8) 0.31451(8)
C14_31 C 0.05473(8) 0.29765(8) 0.30403(9)
C15_31 C 0.08387(9) 0.30760(8) 0.31678(10)
H7_31 H 0.084415 0.325042 0.331592
C16_31 C 0.11238(10) 0.29229(10) 0.30811(12)
H8_31 H 0.132482 0.298848 0.316879
C17_31 C 0.11050(11) 0.26737(10) 0.28645(12)
C18_31 C 0.08211(11) 0.25698(9) 0.27240(11)
H9_31 H 0.081984 0.239957 0.257100
C19_31 C 0.05392(10) 0.27230(8) 0.28143(10)
H10_31 H 0.033952 0.265718 0.272378
F2_31 F 0.02789(9) 0.49758(7) 0.38847(7)
N6_19 N 0.10951(7) 0.41323(8) 0.14355(7)
N7_19 N 0.10277(10) 0.35421(8) 0.16789(8)
N8_31 N 0.06512(7) 0.40551(6) 0.26860(7)
N9_19 N 0.07497(7) 0.45524(6) 0.24908(7)
C20_31 C 0.11259(9) 0.44231(10) 0.13034(9)
H11_31 H 0.119057 0.443708 0.108427
C21_31 C 0.10680(9) 0.47064(10) 0.14706(9)
H12_31 H 0.108997 0.490909 0.136666
C22_31 C 0.09785(9) 0.46898(9) 0.17881(9)
H13_31 H 0.094619 0.488180 0.190854
C23_31 C 0.09347(8) 0.43877(8) 0.19349(8)
C24_31 C 0.09954(8) 0.41120(9) 0.17457(8)
C25_31 C 0.09517(9) 0.37921(9) 0.18781(9)
C26_31 C 0.08312(10) 0.37437(9) 0.21904(9)
C27_31 C 0.07854(14) 0.34259(9) 0.22925(11)
H14_31 H 0.070279 0.338294 0.250158
C28_31 C 0.08599(17) 0.31780(11) 0.20900(12)
H15_31 H 0.083067 0.296123 0.215747
C29_31 C 0.09784(16) 0.32448(11) 0.17856(12)
H16_31 H 0.102658 0.306956 0.164643
C30_31 C 0.08257(8) 0.43335(8) 0.22561(8)
C31_31 C 0.07671(8) 0.40279(8) 0.23762(8)
C32_31 C 0.06451(8) 0.43753(8) 0.27424(8)
C33_31 C 0.05403(9) 0.45235(8) 0.30473(8)
C34_31 C 0.06678(10) 0.44240(8) 0.33387(9)
H17_31 H 0.081592 0.424958 0.334415
C35_31 C 0.05811(12) 0.45771(10) 0.36238(10)
H18_31 H 0.066879 0.451152 0.382482
C36_31 C 0.03645(12) 0.48263(10) 0.36050(11)
C37_31 C 0.02240(11) 0.49302(9) 0.33211(11)
H19_31 H 0.007100 0.510043 0.331984
C38_31 C 0.03143(10) 0.47770(8) 0.30392(10)
H20_31 H 0.022378 0.484282 0.283952
Cu4_19 Cu 0.11918(2) 0.36918(2) 0.125000
Cu5_28 Cu 0.07670(2) 0.500000 0.250000
N12_31 N 0.00092(7) 0.20524(6) 0.32497(7)
Cu1_19 Cu 0.875000 0.38082(2) 0.36918(2)
Cu3_29 Cu 1.000000 0.250000 0.32670(2)
N2_19 N 0.89355(7) 0.33677(8) 0.35951(7)
N3_19 N 0.91789(8) 0.39579(8) 0.35277(10)
N5_19 N 0.99908(7) 0.29476(6) 0.32497(7)
C1_31 C 0.88034(9) 0.30769(10) 0.36259(9)
H1_31 H 0.858427 0.306292 0.369057
C2_31 C 0.89706(9) 0.27936(10) 0.35680(9)
H2_31 H 0.886666 0.259091 0.358997
C3_31 C 0.92881(9) 0.28102(9) 0.34785(9)
H3_31 H 0.940854 0.261820 0.344619
C4_31 C 0.94349(8) 0.31123(8) 0.34347(8)
C5_31 C 0.92457(8) 0.33880(9) 0.34954(8)
C6_31 C 0.93781(9) 0.37079(9) 0.34517(9)
C7_31 C 0.96904(9) 0.37563(9) 0.33312(10)
C8_31 C 0.97925(11) 0.40741(9) 0.32854(14)
C9_31 C 0.95900(12) 0.43220(11) 0.33599(17)
H5_31 H 0.965747 0.453877 0.333067
C10_31 C 0.92856(12) 0.42552(11) 0.34784(16)
H6_31 H 0.914643 0.443044 0.352658
C11_31 C 0.97561(8) 0.31665(8) 0.33257(8)
C12_31 C 0.98762(8) 0.34721(8) 0.32671(8)
N10_31 N 0.85645(7) 0.39049(7) 0.41323(8)
N11_31 N 0.83211(8) 0.39723(10) 0.35421(8)
Cu1_20 Cu 0.375000 0.11918(2) 0.63082(2)
Cu2_32 Cu 0.54262(2) 0.125000 0.70738(2)
Cu3_30 Cu 0.500000 0.250000 0.67330(2)
F1_32 F 0.63847(7) 0.24758(7) 0.72211(9)
N2_20 N 0.39355(7) 0.16323(8) 0.64049(7)
N3_20 N 0.41789(8) 0.10421(8) 0.64723(10)
N4_32 N 0.51860(7) 0.15551(6) 0.68488(7)
N5_20 N 0.49908(7) 0.20524(6) 0.67503(7)
C1_32 C 0.38034(9) 0.19231(10) 0.63741(9)
H1_32 H 0.358427 0.193708 0.630943
C2_32 C 0.39706(9) 0.22064(10) 0.64320(9)
H2_32 H 0.386666 0.240909 0.641003
C3_32 C 0.42881(9) 0.21898(9) 0.65215(9)
H3_32 H 0.440854 0.238180 0.655381
C4_32 C 0.44349(8) 0.18877(8) 0.65653(8)
C5_32 C 0.42457(8) 0.16120(9) 0.65046(8)
C6_32 C 0.43781(9) 0.12921(9) 0.65483(9)
C7_32 C 0.46904(9) 0.12437(9) 0.66688(10)
C8_32 C 0.47925(11) 0.09259(9) 0.67146(14)
H4_32 H 0.500158 0.088294 0.679721
C9_32 C 0.45900(12) 0.06780(11) 0.66401(17)
H5_32 H 0.465747 0.046123 0.666933
C10_32 C 0.42856(12) 0.07448(11) 0.65216(16)
H6_32 H 0.414643 0.056956 0.647342
C11_32 C 0.47561(8) 0.18335(8) 0.66743(8)
C12_32 C 0.48762(8) 0.15279(8) 0.67329(8)
C13_32 C 0.52424(8) 0.18753(8) 0.68549(8)
C14_32 C 0.55473(8) 0.20235(8) 0.69597(9)
C15_32 C 0.58387(9) 0.19240(8) 0.68322(10)
H7_32 H 0.584415 0.174958 0.668408
C16_32 C 0.61238(10) 0.20771(10) 0.69189(12)
H8_32 H 0.632482 0.201152 0.683121
C17_32 C 0.61050(11) 0.23263(10) 0.71355(12)
C18_32 C 0.58211(11) 0.24302(9) 0.72760(11)
H9_32 H 0.581984 0.260043 0.742900
C19_32 C 0.55392(10) 0.22770(8) 0.71857(10)
H10_32 H 0.533952 0.234282 0.727622
F2_32 F 0.52789(9) 0.00242(7) 0.61153(7)
N6_20 N 0.60951(7) 0.08677(8) 0.85645(7)
N7_20 N 0.60277(10) 0.14579(8) 0.83211(8)
N8_32 N 0.56512(7) 0.09449(6) 0.73140(7)
N9_20 N 0.57497(7) 0.04476(6) 0.75092(7)
C20_32 C 0.61259(9) 0.05769(10) 0.86966(9)
H11_32 H 0.619057 0.056292 0.891573
C21_32 C 0.60680(9) 0.02936(10) 0.85294(9)
H12_32 H 0.608997 0.009091 0.863334
C22_32 C 0.59785(9) 0.03102(9) 0.82119(9)
H13_32 H 0.594619 0.011820 0.809146
C23_32 C 0.59347(8) 0.06123(8) 0.80651(8)
C24_32 C 0.59954(8) 0.08880(9) 0.82543(8)
C25_32 C 0.59517(9) 0.12079(9) 0.81219(9)
C26_32 C 0.58312(10) 0.12563(9) 0.78096(9)
C27_32 C 0.57854(14) 0.15741(9) 0.77075(11)
H14_32 H 0.570279 0.161706 0.749842
C28_32 C 0.58599(17) 0.18220(11) 0.79100(12)
H15_32 H 0.583067 0.203877 0.784253
C29_32 C 0.59784(16) 0.17552(11) 0.82144(12)
H16_32 H 0.602658 0.193044 0.835357
C30_32 C 0.58257(8) 0.06665(8) 0.77439(8)
C31_32 C 0.57671(8) 0.09721(8) 0.76238(8)
C32_32 C 0.56451(8) 0.06247(8) 0.72576(8)
C33_32 C 0.55403(9) 0.04765(8) 0.69527(8)
C34_32 C 0.56678(10) 0.05760(8) 0.66613(9)
H17_32 H 0.581592 0.075042 0.665585
C35_32 C 0.55811(12) 0.04229(10) 0.63762(10)
H18_32 H 0.566879 0.048848 0.617518
C36_32 C 0.53645(12) 0.01737(10) 0.63950(11)
C37_32 C 0.52240(11) 0.00698(9) 0.66789(11)
C38_32 C 0.53143(10) 0.02230(8) 0.69608(10)
H20_32 H 0.522378 0.015718 0.716048
Cu4_20 Cu 0.61918(2) 0.13082(2) 0.875000
Cu5_29 Cu 0.57670(2) 0.000000 0.750000
N10_32 N 0.35645(7) 0.10951(7) 0.58677(8)
N11_32 N 0.33211(8) 0.10277(10) 0.64579(8)
N12_32 N 0.50092(7) 0.29476(6) 0.67503(7)
H19_32 H 0.507100 0.989957 0.668016
Cu5_30 Cu 0.57670(2) 1.000000 0.750000
Cu1_21 Cu 0.86918(2) 0.625000 0.61918(2)
Cu2_33 Cu 0.79262(2) 0.45738(2) 0.625000
Cu3_31 Cu 0.82670(2) 0.500000 0.750000
F1_33 F 0.77789(9) 0.36153(7) 0.74758(7)
N2_21 N 0.85951(7) 0.60645(7) 0.66323(8)
N3_21 N 0.85277(10) 0.58211(8) 0.60421(8)
N4_33 N 0.81512(7) 0.48140(7) 0.65551(6)
N5_21 N 0.82497(7) 0.50092(7) 0.70524(6)
C1_33 C 0.86259(9) 0.61966(9) 0.69231(10)
H1_33 H 0.869057 0.641573 0.693708
C2_33 C 0.85680(9) 0.60294(9) 0.72064(10)
H2_33 H 0.858997 0.613334 0.740909
C3_33 C 0.84785(9) 0.57119(9) 0.71898(9)
H3_33 H 0.844619 0.559146 0.738180
C4_33 C 0.84347(8) 0.55651(8) 0.68877(8)
C5_33 C 0.84954(8) 0.57543(8) 0.66120(9)
C6_33 C 0.84517(9) 0.56219(9) 0.62921(9)
C7_33 C 0.83312(10) 0.53096(9) 0.62437(9)
C8_33 C 0.82854(14) 0.52075(11) 0.59259(9)
H4_33 H 0.820279 0.499842 0.588294
C9_33 C 0.83599(17) 0.54100(12) 0.56780(11)
H5_33 H 0.833067 0.534253 0.546123
C10_33 C 0.84784(16) 0.57144(12) 0.57448(11)
H6_33 H 0.852658 0.585357 0.556956
C11_33 C 0.83257(8) 0.52439(8) 0.68335(8)
C12_33 C 0.82671(8) 0.51238(8) 0.65279(8)
C13_33 C 0.81451(8) 0.47576(8) 0.68753(8)
C14_33 C 0.80403(9) 0.44527(8) 0.70235(8)
C15_33 C 0.81678(10) 0.41613(9) 0.69240(8)
H7_33 H 0.831592 0.415585 0.674958
C16_33 C 0.80811(12) 0.38762(10) 0.70771(10)
H8_33 H 0.816879 0.367518 0.701152
C17_33 C 0.78645(12) 0.38950(11) 0.73263(10)
C18_33 C 0.77240(11) 0.41789(11) 0.74302(9)
H9_33 H 0.757100 0.418016 0.760043
C19_33 C 0.78143(10) 0.44608(10) 0.72770(8)
H10_33 H 0.772378 0.466048 0.734282
F2_33 F 0.88847(7) 0.47211(9) 0.50242(7)
N6_21 N 0.64355(7) 0.39049(7) 0.58677(8)
N7_21 N 0.66789(8) 0.39723(10) 0.64579(8)
N8_33 N 0.76860(7) 0.43488(7) 0.59449(6)
N9_21 N 0.74908(7) 0.42503(7) 0.54476(6)
C20_33 C 0.63034(9) 0.38741(9) 0.55769(10)
H11_33 H 0.608427 0.380943 0.556292
C21_33 C 0.64706(9) 0.39320(9) 0.52936(10)
H12_33 H 0.636666 0.391003 0.509091
C22_33 C 0.67881(9) 0.40215(9) 0.53102(9)
H13_33 H 0.690854 0.405381 0.511820
C23_33 C 0.69349(8) 0.40653(8) 0.56123(8)
C24_33 C 0.67457(8) 0.40046(8) 0.58880(9)
C25_33 C 0.68781(9) 0.40483(9) 0.62079(9)
C26_33 C 0.71904(9) 0.41688(10) 0.62563(9)
C27_33 C 0.72925(11) 0.42146(14) 0.65741(9)
H14_33 H 0.750158 0.429721 0.661706
C28_33 C 0.70900(12) 0.41401(17) 0.68220(11)
H15_33 H 0.715747 0.416933 0.703877
C29_33 C 0.67856(12) 0.40216(16) 0.67552(11)
H16_33 H 0.664643 0.397342 0.693044
C30_33 C 0.72561(8) 0.41743(8) 0.56665(8)
C31_33 C 0.73762(8) 0.42329(8) 0.59721(8)
C32_33 C 0.77424(8) 0.43549(8) 0.56247(8)
C33_33 C 0.80473(8) 0.44597(9) 0.54765(8)
C34_33 C 0.83387(9) 0.43322(10) 0.55760(8)
H17_33 H 0.834415 0.418408 0.575042
C35_33 C 0.86238(10) 0.44189(12) 0.54229(10)
H18_33 H 0.882482 0.433121 0.548848
C36_33 C 0.86050(11) 0.46355(12) 0.51737(10)
C37_33 C 0.83211(11) 0.47760(11) 0.50698(9)
H19_33 H 0.831984 0.492900 0.489957
C38_33 C 0.80392(10) 0.46857(10) 0.52230(8)
H20_33 H 0.783952 0.477622 0.515718
Cu4_21 Cu 0.625000 0.38082(2) 0.63082(2)
Cu5_31 Cu 0.750000 0.42330(2) 0.500000
N10_33 N 0.91323(8) 0.64355(7) 0.60951(7)
N11_33 N 0.85421(8) 0.66789(8) 0.60277(10)
N12_33 N 0.82497(7) 0.49908(7) 0.79476(6)
Cu1_22 Cu 0.13082(2) 0.125000 0.88082(2)
Cu3_32 Cu 0.17330(2) 0.000000 0.750000
N2_22 N 0.14049(7) 0.10645(7) 0.83677(8)
N3_22 N 0.14723(10) 0.08211(8) 0.89579(8)
N5_22 N 0.17503(7) 0.00092(7) 0.79476(6)
C1_34 C 0.13741(9) 0.11966(9) 0.80769(10)
H1_34 H 0.130943 0.141573 0.806292
C2_34 C 0.14320(9) 0.10294(9) 0.77936(10)
H2_34 H 0.141003 0.113334 0.759091
C3_34 C 0.15215(9) 0.07119(9) 0.78102(9)
H3_34 H 0.155381 0.059146 0.761820
C4_34 C 0.15653(8) 0.05651(8) 0.81123(8)
C5_34 C 0.15046(8) 0.07543(8) 0.83880(9)
C6_34 C 0.15483(9) 0.06219(9) 0.87079(9)
C7_34 C 0.16688(10) 0.03096(9) 0.87563(9)
C8_34 C 0.17146(14) 0.02075(11) 0.90741(9)
C9_34 C 0.16401(17) 0.04100(12) 0.93220(11)
H5_34 H 0.166933 0.034253 0.953877
C10_34 C 0.15216(16) 0.07144(12) 0.92552(11)
H6_34 H 0.147342 0.085357 0.943044
C11_34 C 0.16743(8) 0.02439(8) 0.81665(8)
C12_34 C 0.17329(8) 0.01238(8) 0.84721(8)
N10_34 N 0.08677(8) 0.14355(7) 0.89049(7)
N11_34 N 0.14579(8) 0.16789(8) 0.89723(10)
H19_34 H 0.168016 0.992900 0.010043
Cu5_32 Cu 0.250000 0.92330(2) -0.000000
Cu2_34 Cu 0.20738(2) 0.95738(2) 0.875000
Cu3_33 Cu 0.17330(2) 1.000000 0.750000
F1_34 F 0.22211(9) 0.86153(7) 0.75242(7)
N4_34 N 0.18488(7) 0.98140(7) 0.84449(6)
H4_34 H 0.179721 0.999842 0.911706
C13_34 C 0.18549(8) 0.97576(8) 0.81247(8)
C14_34 C 0.19597(9) 0.94527(8) 0.79765(8)
C15_34 C 0.18322(10) 0.91613(9) 0.80760(8)
H7_34 H 0.168408 0.915585 0.825042
C16_34 C 0.19189(12) 0.88762(10) 0.79229(10)
H8_34 H 0.183121 0.867518 0.798848
C17_34 C 0.21355(12) 0.88950(11) 0.76737(10)
C18_34 C 0.22760(11) 0.91789(11) 0.75698(9)
H9_34 H 0.242900 0.918016 0.739957
C19_34 C 0.21857(10) 0.94608(10) 0.77230(8)
H10_34 H 0.227622 0.966048 0.765718
F2_34 F 0.11153(7) 0.97211(9) 0.99758(7)
N6_22 N 0.35645(7) 0.89049(7) 0.91323(8)
N7_22 N 0.33211(8) 0.89723(10) 0.85421(8)
N8_34 N 0.23140(7) 0.93488(7) 0.90551(6)
N9_22 N 0.25092(7) 0.92503(7) 0.95524(6)
C20_34 C 0.36966(9) 0.88741(9) 0.94231(10)
H11_34 H 0.391573 0.880943 0.943708
C21_34 C 0.35294(9) 0.89320(9) 0.97064(10)
H12_34 H 0.363334 0.891003 0.990909
C22_34 C 0.32119(9) 0.90215(9) 0.96898(9)
H13_34 H 0.309146 0.905381 0.988180
C23_34 C 0.30651(8) 0.90653(8) 0.93877(8)
C24_34 C 0.32543(8) 0.90046(8) 0.91120(9)
C25_34 C 0.31219(9) 0.90483(9) 0.87921(9)
C26_34 C 0.28096(9) 0.91688(10) 0.87437(9)
C27_34 C 0.27075(11) 0.92146(14) 0.84259(9)
H14_34 H 0.249842 0.929721 0.838294
C28_34 C 0.29100(12) 0.91401(17) 0.81780(11)
H15_34 H 0.284253 0.916933 0.796123
C29_34 C 0.32144(12) 0.90216(16) 0.82448(11)
H16_34 H 0.335357 0.897342 0.806956
C30_34 C 0.27439(8) 0.91743(8) 0.93335(8)
C31_34 C 0.26238(8) 0.92329(8) 0.90279(8)
C32_34 C 0.22576(8) 0.93549(8) 0.93753(8)
C33_34 C 0.19527(8) 0.94597(9) 0.95235(8)
C34_34 C 0.16613(9) 0.93322(10) 0.94240(8)
H17_34 H 0.165585 0.918408 0.924958
C35_34 C 0.13762(10) 0.94189(12) 0.95771(10)
H18_34 H 0.117518 0.933121 0.951152
C36_34 C 0.13950(11) 0.96355(12) 0.98263(10)
C37_34 C 0.16789(11) 0.97760(11) 0.99302(9)
C38_34 C 0.19608(10) 0.96857(10) 0.97770(8)
H20_34 H 0.216048 0.977622 0.984282
Cu4_22 Cu 0.375000 0.88082(2) 0.86918(2)
Cu5_33 Cu 0.250000 0.92330(2) 1.000000
N12_34 N 0.17503(7) 0.99908(7) 0.70524(6)
Cu2_35 Cu 0.29262(2) 0.04262(2) 0.375000
Cu3_34 Cu 0.32670(2) 0.000000 0.250000
F1_35 F 0.27789(9) 0.13847(7) 0.25242(7)
N4_35 N 0.31512(7) 0.01860(7) 0.34449(6)
H4_35 H 0.320279 0.000158 0.411706
C13_35 C 0.31451(8) 0.02424(8) 0.31247(8)
C14_35 C 0.30403(9) 0.05473(8) 0.29765(8)
C15_35 C 0.31678(10) 0.08387(9) 0.30760(8)
H7_35 H 0.331592 0.084415 0.325042
C16_35 C 0.30811(12) 0.11238(10) 0.29229(10)
H8_35 H 0.316879 0.132482 0.298848
C17_35 C 0.28645(12) 0.11050(11) 0.26737(10)
C18_35 C 0.27240(11) 0.08211(11) 0.25698(9)
H9_35 H 0.257100 0.081984 0.239957
C19_35 C 0.28143(10) 0.05392(10) 0.27230(8)
H10_35 H 0.272378 0.033952 0.265718
F2_35 F 0.38847(7) 0.02789(9) 0.49758(7)
N6_23 N 0.14355(7) 0.10951(7) 0.41323(8)
N7_23 N 0.16789(8) 0.10277(10) 0.35421(8)
N8_35 N 0.26860(7) 0.06512(7) 0.40551(6)
N9_23 N 0.24908(7) 0.07497(7) 0.45524(6)
C20_35 C 0.13034(9) 0.11259(9) 0.44231(10)
H11_35 H 0.108427 0.119057 0.443708
C21_35 C 0.14706(9) 0.10680(9) 0.47064(10)
H12_35 H 0.136666 0.108997 0.490909
C22_35 C 0.17881(9) 0.09785(9) 0.46898(9)
H13_35 H 0.190854 0.094619 0.488180
C23_35 C 0.19349(8) 0.09347(8) 0.43877(8)
C24_35 C 0.17457(8) 0.09954(8) 0.41120(9)
C25_35 C 0.18781(9) 0.09517(9) 0.37921(9)
C26_35 C 0.21904(9) 0.08312(10) 0.37437(9)
C27_35 C 0.22925(11) 0.07854(14) 0.34259(9)
H14_35 H 0.250158 0.070279 0.338294
C28_35 C 0.20900(12) 0.08599(17) 0.31780(11)
H15_35 H 0.215747 0.083067 0.296123
C29_35 C 0.17856(12) 0.09784(16) 0.32448(11)
H16_35 H 0.164643 0.102658 0.306956
C30_35 C 0.22561(8) 0.08257(8) 0.43335(8)
C31_35 C 0.23762(8) 0.07671(8) 0.40279(8)
C32_35 C 0.27424(8) 0.06451(8) 0.43753(8)
C33_35 C 0.30473(8) 0.05403(9) 0.45235(8)
C34_35 C 0.33387(9) 0.06678(10) 0.44240(8)
H17_35 H 0.334415 0.081592 0.424958
C35_35 C 0.36238(10) 0.05811(12) 0.45771(10)
H18_35 H 0.382482 0.066879 0.451152
C36_35 C 0.36050(11) 0.03645(12) 0.48263(10)
C37_35 C 0.33211(11) 0.02240(11) 0.49302(9)
H19_35 H 0.331984 0.007100 0.510043
C38_35 C 0.30392(10) 0.03143(10) 0.47770(8)
H20_35 H 0.283952 0.022378 0.484282
Cu4_23 Cu 0.125000 0.11918(2) 0.36918(2)
Cu5_34 Cu 0.250000 0.07670(2) 0.500000
N12_35 N 0.32497(7) 0.00092(7) 0.20524(6)
Cu1_23 Cu 0.36918(2) 0.875000 0.38082(2)
Cu3_35 Cu 0.32670(2) 1.000000 0.250000
N2_23 N 0.35951(7) 0.89355(7) 0.33677(8)
N3_23 N 0.35277(10) 0.91789(8) 0.39579(8)
N5_23 N 0.32497(7) 0.99908(7) 0.29476(6)
C1_35 C 0.36259(9) 0.88034(9) 0.30769(10)
H1_35 H 0.369057 0.858427 0.306292
C2_35 C 0.35680(9) 0.89706(9) 0.27936(10)
H2_35 H 0.358997 0.886666 0.259091
C3_35 C 0.34785(9) 0.92881(9) 0.28102(9)
H3_35 H 0.344619 0.940854 0.261820
C4_35 C 0.34347(8) 0.94349(8) 0.31123(8)
C5_35 C 0.34954(8) 0.92457(8) 0.33880(9)
C6_35 C 0.34517(9) 0.93781(9) 0.37079(9)
C7_35 C 0.33312(10) 0.96904(9) 0.37563(9)
C8_35 C 0.32854(14) 0.97925(11) 0.40741(9)
C9_35 C 0.33599(17) 0.95900(12) 0.43220(11)
H5_35 H 0.333067 0.965747 0.453877
C10_35 C 0.34784(16) 0.92856(12) 0.42552(11)
H6_35 H 0.352658 0.914643 0.443044
C11_35 C 0.33257(8) 0.97561(8) 0.31665(8)
C12_35 C 0.32671(8) 0.98762(8) 0.34721(8)
N10_35 N 0.41323(8) 0.85645(7) 0.39049(7)
N11_35 N 0.35421(8) 0.83211(8) 0.39723(10)
Cu1_24 Cu 0.63082(2) 0.375000 0.11918(2)
Cu2_36 Cu 0.70738(2) 0.54262(2) 0.125000
Cu3_36 Cu 0.67330(2) 0.500000 0.250000
F1_36 F 0.72211(9) 0.63847(7) 0.24758(7)
N2_24 N 0.64049(7) 0.39355(7) 0.16323(8)
N3_24 N 0.64723(10) 0.41789(8) 0.10421(8)
N4_36 N 0.68488(7) 0.51860(7) 0.15551(6)
N5_24 N 0.67503(7) 0.49908(7) 0.20524(6)
C1_36 C 0.63741(9) 0.38034(9) 0.19231(10)
H1_36 H 0.630943 0.358427 0.193708
C2_36 C 0.64320(9) 0.39706(9) 0.22064(10)
H2_36 H 0.641003 0.386666 0.240909
C3_36 C 0.65215(9) 0.42881(9) 0.21898(9)
H3_36 H 0.655381 0.440854 0.238180
C4_36 C 0.65653(8) 0.44349(8) 0.18877(8)
C5_36 C 0.65046(8) 0.42457(8) 0.16120(9)
C6_36 C 0.65483(9) 0.43781(9) 0.12921(9)
C7_36 C 0.66688(10) 0.46904(9) 0.12437(9)
C8_36 C 0.67146(14) 0.47925(11) 0.09259(9)
H4_36 H 0.679721 0.500158 0.088294
C9_36 C 0.66401(17) 0.45900(12) 0.06780(11)
H5_36 H 0.666933 0.465747 0.046123
C10_36 C 0.65216(16) 0.42856(12) 0.07448(11)
H6_36 H 0.647342 0.414643 0.056956
C11_36 C 0.66743(8) 0.47561(8) 0.18335(8)
C12_36 C 0.67329(8) 0.48762(8) 0.15279(8)
C13_36 C 0.68549(8) 0.52424(8) 0.18753(8)
C14_36 C 0.69597(9) 0.55473(8) 0.20235(8)
C15_36 C 0.68322(10) 0.58387(9) 0.19240(8)
H7_36 H 0.668408 0.584415 0.174958
C16_36 C 0.69189(12) 0.61238(10) 0.20771(10)
H8_36 H 0.683121 0.632482 0.201152
C17_36 C 0.71355(12) 0.61050(11) 0.23263(10)
C18_36 C 0.72760(11) 0.58211(11) 0.24302(9)
H9_36 H 0.742900 0.581984 0.260043
C19_36 C 0.71857(10) 0.55392(10) 0.22770(8)
H10_36 H 0.727622 0.533952 0.234282
F2_36 F 0.61153(7) 0.52789(9) 0.00242(7)
N6_24 N 0.85645(7) 0.60951(7) 0.08677(8)
N7_24 N 0.83211(8) 0.60277(10) 0.14579(8)
N8_36 N 0.73140(7) 0.56512(7) 0.09449(6)
N9_24 N 0.75092(7) 0.57497(7) 0.04476(6)
C20_36 C 0.86966(9) 0.61259(9) 0.05769(10)
H11_36 H 0.891573 0.619057 0.056292
C21_36 C 0.85294(9) 0.60680(9) 0.02936(10)
H12_36 H 0.863334 0.608997 0.009091
C22_36 C 0.82119(9) 0.59785(9) 0.03102(9)
H13_36 H 0.809146 0.594619 0.011820
C23_36 C 0.80651(8) 0.59347(8) 0.06123(8)
C24_36 C 0.82543(8) 0.59954(8) 0.08880(9)
C25_36 C 0.81219(9) 0.59517(9) 0.12079(9)
C26_36 C 0.78096(9) 0.58312(10) 0.12563(9)
C27_36 C 0.77075(11) 0.57854(14) 0.15741(9)
H14_36 H 0.749842 0.570279 0.161706
C28_36 C 0.79100(12) 0.58599(17) 0.18220(11)
H15_36 H 0.784253 0.583067 0.203877
C29_36 C 0.82144(12) 0.59784(16) 0.17552(11)
H16_36 H 0.835357 0.602658 0.193044
C30_36 C 0.77439(8) 0.58257(8) 0.06665(8)
C31_36 C 0.76238(8) 0.57671(8) 0.09721(8)
C32_36 C 0.72576(8) 0.56451(8) 0.06247(8)
C33_36 C 0.69527(8) 0.55403(9) 0.04765(8)
C34_36 C 0.66613(9) 0.56678(10) 0.05760(8)
H17_36 H 0.665585 0.581592 0.075042
C35_36 C 0.63762(10) 0.55811(12) 0.04229(10)
H18_36 H 0.617518 0.566879 0.048848
C36_36 C 0.63950(11) 0.53645(12) 0.01737(10)
C37_36 C 0.66789(11) 0.52240(11) 0.00698(9)
C38_36 C 0.69608(10) 0.53143(10) 0.02230(8)
H20_36 H 0.716048 0.522378 0.015718
Cu4_24 Cu 0.875000 0.61918(2) 0.13082(2)
Cu5_35 Cu 0.750000 0.57670(2) 0.000000
N10_36 N 0.58677(8) 0.35645(7) 0.10951(7)
N11_36 N 0.64579(8) 0.33211(8) 0.10277(10)
N12_36 N 0.67503(7) 0.50092(7) 0.29476(6)
H19_36 H 0.668016 0.507100 0.989957
Cu5_36 Cu 0.750000 0.57670(2) 1.000000
N10_37 N 0.16323(8) 0.35951(7) 0.10645(7)
N11_37 N 0.10421(8) 0.35277(10) 0.08211(8)
N12_37 N 0.07497(7) 0.54476(6) 0.25092(7)
N10_38 N 0.33677(8) 0.64049(7) 0.60645(7)
N11_38 N 0.39579(8) 0.64723(10) 0.58211(8)
N12_38 N 0.42503(7) 0.45524(6) 0.75092(7)
N10_39 N 0.66323(8) 0.14049(7) 0.89355(7)
N11_39 N 0.60421(8) 0.14723(10) 0.91789(8)
N12_39 N 0.57497(7) 0.95524(6) 0.74908(7)
N12_40 N 0.92503(7) 0.04476(6) 0.24908(7)
N10_40 N 0.83677(8) 0.85951(7) 0.39355(7)
N11_40 N 0.89579(8) 0.85277(10) 0.41789(8)
N12_41 N 0.04476(6) 0.24908(7) 0.92503(7)
N10_41 N 0.85951(7) 0.39355(7) 0.83677(8)
N11_41 N 0.85277(10) 0.41789(8) 0.89579(8)
N10_42 N 0.14049(7) 0.89355(7) 0.66323(8)
N11_42 N 0.14723(10) 0.91789(8) 0.60421(8)
N12_42 N 0.95524(6) 0.74908(7) 0.57497(7)
N10_43 N 0.64049(7) 0.60645(7) 0.33677(8)
N11_43 N 0.64723(10) 0.58211(8) 0.39579(8)
N12_43 N 0.45524(6) 0.75092(7) 0.42503(7)
N10_44 N 0.35951(7) 0.10645(7) 0.16323(8)
N11_44 N 0.35277(10) 0.08211(8) 0.10421(8)
N12_44 N 0.54476(6) 0.25092(7) 0.07497(7)
N10_45 N 0.89355(7) 0.66323(8) 0.14049(7)
N11_45 N 0.91789(8) 0.60421(8) 0.14723(10)
N12_45 N 0.74908(7) 0.57497(7) 0.95524(6)
N12_46 N 0.24908(7) 0.92503(7) 0.04476(6)
N10_46 N 0.39355(7) 0.83677(8) 0.85951(7)
N11_46 N 0.41789(8) 0.89579(8) 0.85277(10)
N10_47 N 0.10645(7) 0.16323(8) 0.35951(7)
N11_47 N 0.08211(8) 0.10421(8) 0.35277(10)
N12_47 N 0.25092(7) 0.07497(7) 0.54476(6)
N10_48 N 0.60645(7) 0.33677(8) 0.64049(7)
N11_48 N 0.58211(8) 0.39579(8) 0.64723(10)
N12_48 N 0.75092(7) 0.42503(7) 0.45524(6)
C1_37 C 0.19231(10) 0.36259(9) 0.11966(9)
H1_37 H 0.193708 0.369057 0.141573
C2_37 C 0.22064(10) 0.35680(9) 0.10294(9)
H2_37 H 0.240909 0.358997 0.113334
C3_37 C 0.21898(9) 0.34785(9) 0.07119(9)
H3_37 H 0.238180 0.344619 0.059146
C4_37 C 0.18877(8) 0.34347(8) 0.05651(8)
C5_37 C 0.16120(9) 0.34954(8) 0.07543(8)
C6_37 C 0.12921(9) 0.34517(9) 0.06219(9)
C7_37 C 0.12437(9) 0.33312(10) 0.03096(9)
C8_37 C 0.09259(9) 0.32854(14) 0.02075(11)
C9_37 C 0.06780(11) 0.33599(17) 0.04100(12)
H5_37 H 0.046123 0.333067 0.034253
C10_37 C 0.07448(11) 0.34784(16) 0.07144(12)
H6_37 H 0.056956 0.352658 0.085357
C11_37 C 0.18335(8) 0.33257(8) 0.02439(8)
C12_37 C 0.15279(8) 0.32671(8) 0.01238(8)
Cu2_37 Cu 0.125000 0.29262(2) 0.95738(2)
F1_37 F 0.24758(7) 0.27789(9) 0.86153(7)
N4_37 N 0.15551(6) 0.31512(7) 0.98140(7)
H4_37 H 0.088294 0.320279 0.999842
C13_37 C 0.18753(8) 0.31451(8) 0.97576(8)
C14_37 C 0.20235(8) 0.30403(9) 0.94527(8)
C15_37 C 0.19240(8) 0.31678(10) 0.91613(9)
H7_37 H 0.174958 0.331592 0.915585
C16_37 C 0.20771(10) 0.30811(12) 0.88762(10)
H8_37 H 0.201152 0.316879 0.867518
C17_37 C 0.23263(10) 0.28645(12) 0.88950(11)
C18_37 C 0.24302(9) 0.27240(11) 0.91789(11)
H9_37 H 0.260043 0.257100 0.918016
C19_37 C 0.22770(8) 0.28143(10) 0.94608(10)
H10_37 H 0.234282 0.272378 0.966048
F2_37 F 0.00242(7) 0.38847(7) 0.97211(9)
N8_37 N 0.09449(6) 0.26860(7) 0.93488(7)
C20_37 C 0.05769(10) 0.13034(9) 0.88741(9)
H11_37 H 0.056292 0.108427 0.880943
C21_37 C 0.02936(10) 0.14706(9) 0.89320(9)
H12_37 H 0.009091 0.136666 0.891003
C22_37 C 0.03102(9) 0.17881(9) 0.90215(9)
H13_37 H 0.011820 0.190854 0.905381
C23_37 C 0.06123(8) 0.19349(8) 0.90653(8)
C24_37 C 0.08880(9) 0.17457(8) 0.90046(8)
C25_37 C 0.12079(9) 0.18781(9) 0.90483(9)
C26_37 C 0.12563(9) 0.21904(9) 0.91688(10)
C27_37 C 0.15741(9) 0.22925(11) 0.92146(14)
H14_37 H 0.161706 0.250158 0.929721
C28_37 C 0.18220(11) 0.20900(12) 0.91401(17)
H15_37 H 0.203877 0.215747 0.916933
C29_37 C 0.17552(11) 0.17856(12) 0.90216(16)
H16_37 H 0.193044 0.164643 0.897342
C30_37 C 0.06665(8) 0.22561(8) 0.91743(8)
C31_37 C 0.09721(8) 0.23762(8) 0.92329(8)
C32_37 C 0.06247(8) 0.27424(8) 0.93549(8)
C33_37 C 0.04765(8) 0.30473(8) 0.94597(9)
C34_37 C 0.05760(8) 0.33387(9) 0.93322(10)
H17_37 H 0.075042 0.334415 0.918408
C35_37 C 0.04229(10) 0.36238(10) 0.94189(12)
H18_37 H 0.048848 0.382482 0.933121
C36_37 C 0.01737(10) 0.36050(11) 0.96355(12)
C37_37 C 0.00698(9) 0.33211(11) 0.97760(11)
C38_37 C 0.02230(8) 0.30392(10) 0.96857(10)
H20_37 H 0.015718 0.283952 0.977622
H19_37 H 0.989957 0.331984 0.992900
Cu2_38 Cu 0.375000 0.70738(2) 0.45738(2)
F1_38 F 0.25242(7) 0.72211(9) 0.36153(7)
N4_38 N 0.34449(6) 0.68488(7) 0.48140(7)
C1_38 C 0.30769(10) 0.63741(9) 0.61966(9)
H1_38 H 0.306292 0.630943 0.641573
C2_38 C 0.27936(10) 0.64320(9) 0.60294(9)
H2_38 H 0.259091 0.641003 0.613334
C3_38 C 0.28102(9) 0.65215(9) 0.57119(9)
H3_38 H 0.261820 0.655381 0.559146
C4_38 C 0.31123(8) 0.65653(8) 0.55651(8)
C5_38 C 0.33880(9) 0.65046(8) 0.57543(8)
C6_38 C 0.37079(9) 0.65483(9) 0.56219(9)
C7_38 C 0.37563(9) 0.66688(10) 0.53096(9)
C8_38 C 0.40741(9) 0.67146(14) 0.52075(11)
H4_38 H 0.411706 0.679721 0.499842
C9_38 C 0.43220(11) 0.66401(17) 0.54100(12)
H5_38 H 0.453877 0.666933 0.534253
C10_38 C 0.42552(11) 0.65216(16) 0.57144(12)
H6_38 H 0.443044 0.647342 0.585357
C11_38 C 0.31665(8) 0.66743(8) 0.52439(8)
C12_38 C 0.34721(8) 0.67329(8) 0.51238(8)
C13_38 C 0.31247(8) 0.68549(8) 0.47576(8)
C14_38 C 0.29765(8) 0.69597(9) 0.44527(8)
C15_38 C 0.30760(8) 0.68322(10) 0.41613(9)
H7_38 H 0.325042 0.668408 0.415585
C16_38 C 0.29229(10) 0.69189(12) 0.38762(10)
H8_38 H 0.298848 0.683121 0.367518
C17_38 C 0.26737(10) 0.71355(12) 0.38950(11)
C18_38 C 0.25698(9) 0.72760(11) 0.41789(11)
H9_38 H 0.239957 0.742900 0.418016
C19_38 C 0.27230(8) 0.71857(10) 0.44608(10)
H10_38 H 0.265718 0.727622 0.466048
F2_38 F 0.49758(7) 0.61153(7) 0.47211(9)
N8_38 N 0.40551(6) 0.73140(7) 0.43488(7)
C20_38 C 0.44231(10) 0.86966(9) 0.38741(9)
H11_38 H 0.443708 0.891573 0.380943
C21_38 C 0.47064(10) 0.85294(9) 0.39320(9)
H12_38 H 0.490909 0.863334 0.391003
C22_38 C 0.46898(9) 0.82119(9) 0.40215(9)
H13_38 H 0.488180 0.809146 0.405381
C23_38 C 0.43877(8) 0.80651(8) 0.40653(8)
C24_38 C 0.41120(9) 0.82543(8) 0.40046(8)
C25_38 C 0.37921(9) 0.81219(9) 0.40483(9)
C26_38 C 0.37437(9) 0.78096(9) 0.41688(10)
C27_38 C 0.34259(9) 0.77075(11) 0.42146(14)
H14_38 H 0.338294 0.749842 0.429721
C28_38 C 0.31780(11) 0.79100(12) 0.41401(17)
H15_38 H 0.296123 0.784253 0.416933
C29_38 C 0.32448(11) 0.82144(12) 0.40216(16)
H16_38 H 0.306956 0.835357 0.397342
C30_38 C 0.43335(8) 0.77439(8) 0.41743(8)
C31_38 C 0.40279(8) 0.76238(8) 0.42329(8)
C32_38 C 0.43753(8) 0.72576(8) 0.43549(8)
C33_38 C 0.45235(8) 0.69527(8) 0.44597(9)
C34_38 C 0.44240(8) 0.66613(9) 0.43322(10)
H17_38 H 0.424958 0.665585 0.418408
C35_38 C 0.45771(10) 0.63762(10) 0.44189(12)
H18_38 H 0.451152 0.617518 0.433121
C36_38 C 0.48263(10) 0.63950(11) 0.46355(12)
C37_38 C 0.49302(9) 0.66789(11) 0.47760(11)
H19_38 H 0.510043 0.668016 0.492900
C38_38 C 0.47770(8) 0.69608(10) 0.46857(10)
H20_38 H 0.484282 0.716048 0.477622
H19_39 H 0.010043 0.831984 0.507100
Cu2_39 Cu 0.875000 0.79262(2) 0.54262(2)
F1_39 F 0.75242(7) 0.77789(9) 0.63847(7)
N4_39 N 0.84449(6) 0.81512(7) 0.51860(7)
C1_39 C 0.80769(10) 0.86259(9) 0.38034(9)
H1_39 H 0.806292 0.869057 0.358427
C2_39 C 0.77936(10) 0.85680(9) 0.39706(9)
H2_39 H 0.759091 0.858997 0.386666
C3_39 C 0.78102(9) 0.84785(9) 0.42881(9)
H3_39 H 0.761820 0.844619 0.440854
C4_39 C 0.81123(8) 0.84347(8) 0.44349(8)
C5_39 C 0.83880(9) 0.84954(8) 0.42457(8)
C6_39 C 0.87079(9) 0.84517(9) 0.43781(9)
C7_39 C 0.87563(9) 0.83312(10) 0.46904(9)
C8_39 C 0.90741(9) 0.82854(14) 0.47925(11)
H4_39 H 0.911706 0.820279 0.500158
C9_39 C 0.93220(11) 0.83599(17) 0.45900(12)
H5_39 H 0.953877 0.833067 0.465747
C10_39 C 0.92552(11) 0.84784(16) 0.42856(12)
H6_39 H 0.943044 0.852658 0.414643
C11_39 C 0.81665(8) 0.83257(8) 0.47561(8)
C12_39 C 0.84721(8) 0.82671(8) 0.48762(8)
C13_39 C 0.81247(8) 0.81451(8) 0.52424(8)
C14_39 C 0.79765(8) 0.80403(9) 0.55473(8)
C15_39 C 0.80760(8) 0.81678(10) 0.58387(9)
H7_39 H 0.825042 0.831592 0.584415
C16_39 C 0.79229(10) 0.80811(12) 0.61238(10)
H8_39 H 0.798848 0.816879 0.632482
C17_39 C 0.76737(10) 0.78645(12) 0.61050(11)
C18_39 C 0.75698(9) 0.77240(11) 0.58211(11)
H9_39 H 0.739957 0.757100 0.581984
C19_39 C 0.77230(8) 0.78143(10) 0.55392(10)
H10_39 H 0.765718 0.772378 0.533952
F2_39 F 0.99758(7) 0.88847(7) 0.52789(9)
N8_39 N 0.90551(6) 0.76860(7) 0.56512(7)
C20_39 C 0.94231(10) 0.63034(9) 0.61259(9)
H11_39 H 0.943708 0.608427 0.619057
C21_39 C 0.97064(10) 0.64706(9) 0.60680(9)
H12_39 H 0.990909 0.636666 0.608997
C22_39 C 0.96898(9) 0.67881(9) 0.59785(9)
H13_39 H 0.988180 0.690854 0.594619
C23_39 C 0.93877(8) 0.69349(8) 0.59347(8)
C24_39 C 0.91120(9) 0.67457(8) 0.59954(8)
C25_39 C 0.87921(9) 0.68781(9) 0.59517(9)
C26_39 C 0.87437(9) 0.71904(9) 0.58312(10)
C27_39 C 0.84259(9) 0.72925(11) 0.57854(14)
H14_39 H 0.838294 0.750158 0.570279
C28_39 C 0.81780(11) 0.70900(12) 0.58599(17)
H15_39 H 0.796123 0.715747 0.583067
C29_39 C 0.82448(11) 0.67856(12) 0.59784(16)
H16_39 H 0.806956 0.664643 0.602658
C30_39 C 0.93335(8) 0.72561(8) 0.58257(8)
C31_39 C 0.90279(8) 0.73762(8) 0.57671(8)
C32_39 C 0.93753(8) 0.77424(8) 0.56451(8)
C33_39 C 0.95235(8) 0.80473(8) 0.55403(9)
C34_39 C 0.94240(8) 0.83387(9) 0.56678(10)
H17_39 H 0.924958 0.834415 0.581592
C35_39 C 0.95771(10) 0.86238(10) 0.55811(12)
H18_39 H 0.951152 0.882482 0.566879
C36_39 C 0.98263(10) 0.86050(11) 0.53645(12)
C37_39 C 0.99302(9) 0.83211(11) 0.52240(11)
C38_39 C 0.97770(8) 0.80392(10) 0.53143(10)
H20_39 H 0.984282 0.783952 0.522378
Cu2_40 Cu 0.625000 0.20738(2) 0.04262(2)
F1_40 F 0.74758(7) 0.22211(9) 0.13847(7)
N4_40 N 0.65551(6) 0.18488(7) 0.01860(7)
H4_40 H 0.588294 0.179721 0.000158
C13_40 C 0.68753(8) 0.18549(8) 0.02424(8)
C14_40 C 0.70235(8) 0.19597(9) 0.05473(8)
C15_40 C 0.69240(8) 0.18322(10) 0.08387(9)
H7_40 H 0.674958 0.168408 0.084415
C16_40 C 0.70771(10) 0.19189(12) 0.11238(10)
H8_40 H 0.701152 0.183121 0.132482
C17_40 C 0.73263(10) 0.21355(12) 0.11050(11)
C18_40 C 0.74302(9) 0.22760(11) 0.08211(11)
H9_40 H 0.760043 0.242900 0.081984
C19_40 C 0.72770(8) 0.21857(10) 0.05392(10)
H10_40 H 0.734282 0.227622 0.033952
F2_40 F 0.50242(7) 0.11153(7) 0.02789(9)
N8_40 N 0.59449(6) 0.23140(7) 0.06512(7)
C20_40 C 0.55769(10) 0.36966(9) 0.11259(9)
H11_40 H 0.556292 0.391573 0.119057
C21_40 C 0.52936(10) 0.35294(9) 0.10680(9)
H12_40 H 0.509091 0.363334 0.108997
C22_40 C 0.53102(9) 0.32119(9) 0.09785(9)
H13_40 H 0.511820 0.309146 0.094619
C23_40 C 0.56123(8) 0.30651(8) 0.09347(8)
C24_40 C 0.58880(9) 0.32543(8) 0.09954(8)
C25_40 C 0.62079(9) 0.31219(9) 0.09517(9)
C26_40 C 0.62563(9) 0.28096(9) 0.08312(10)
C27_40 C 0.65741(9) 0.27075(11) 0.07854(14)
H14_40 H 0.661706 0.249842 0.070279
C28_40 C 0.68220(11) 0.29100(12) 0.08599(17)
H15_40 H 0.703877 0.284253 0.083067
C29_40 C 0.67552(11) 0.32144(12) 0.09784(16)
H16_40 H 0.693044 0.335357 0.102658
C30_40 C 0.56665(8) 0.27439(8) 0.08257(8)
C31_40 C 0.59721(8) 0.26238(8) 0.07671(8)
C32_40 C 0.56247(8) 0.22576(8) 0.06451(8)
C33_40 C 0.54765(8) 0.19527(8) 0.05403(9)
C34_40 C 0.55760(8) 0.16613(9) 0.06678(10)
H17_40 H 0.575042 0.165585 0.081592
C35_40 C 0.54229(10) 0.13762(10) 0.05811(12)
H18_40 H 0.548848 0.117518 0.066879
C36_40 C 0.51737(10) 0.13950(11) 0.03645(12)
C37_40 C 0.50698(9) 0.16789(11) 0.02240(11)
H19_40 H 0.489957 0.168016 0.007100
C38_40 C 0.52230(8) 0.19608(10) 0.03143(10)
H20_40 H 0.515718 0.216048 0.022378
C1_40 C 0.69231(10) 0.13741(9) 0.88034(9)
H1_40 H 0.693708 0.130943 0.858427
C2_40 C 0.72064(10) 0.14320(9) 0.89706(9)
H2_40 H 0.740909 0.141003 0.886666
C3_40 C 0.71898(9) 0.15215(9) 0.92881(9)
H3_40 H 0.738180 0.155381 0.940854
C4_40 C 0.68877(8) 0.15653(8) 0.94349(8)
C5_40 C 0.66120(9) 0.15046(8) 0.92457(8)
C6_40 C 0.62921(9) 0.15483(9) 0.93781(9)
C7_40 C 0.62437(9) 0.16688(10) 0.96904(9)
C8_40 C 0.59259(9) 0.17146(14) 0.97925(11)
C9_40 C 0.56780(11) 0.16401(17) 0.95900(12)
H5_40 H 0.546123 0.166933 0.965747
C10_40 C 0.57448(11) 0.15216(16) 0.92856(12)
H6_40 H 0.556956 0.147342 0.914643
C11_40 C 0.68335(8) 0.16743(8) 0.97561(8)
C12_40 C 0.65279(8) 0.17329(8) 0.98762(8)
C1_41 C 0.11966(9) 0.19231(10) 0.36259(9)
H1_41 H 0.141573 0.193708 0.369057
C2_41 C 0.10294(9) 0.22064(10) 0.35680(9)
H2_41 H 0.113334 0.240909 0.358997
C3_41 C 0.07119(9) 0.21898(9) 0.34785(9)
H3_41 H 0.059146 0.238180 0.344619
C4_41 C 0.05651(8) 0.18877(8) 0.34347(8)
C5_41 C 0.07543(8) 0.16120(9) 0.34954(8)
C6_41 C 0.06219(9) 0.12921(9) 0.34517(9)
C7_41 C 0.03096(9) 0.12437(9) 0.33312(10)
C8_41 C 0.02075(11) 0.09259(9) 0.32854(14)
C9_41 C 0.04100(12) 0.06780(11) 0.33599(17)
H5_41 H 0.034253 0.046123 0.333067
C10_41 C 0.07144(12) 0.07448(11) 0.34784(16)
H6_41 H 0.085357 0.056956 0.352658
C11_41 C 0.02439(8) 0.18335(8) 0.33257(8)
C12_41 C 0.01238(8) 0.15279(8) 0.32671(8)
Cu2_41 Cu 0.95738(2) 0.125000 0.29262(2)
F1_41 F 0.86153(7) 0.24758(7) 0.27789(9)
N4_41 N 0.98140(7) 0.15551(6) 0.31512(7)
H4_41 H 0.999842 0.088294 0.320279
C13_41 C 0.97576(8) 0.18753(8) 0.31451(8)
C14_41 C 0.94527(8) 0.20235(8) 0.30403(9)
C15_41 C 0.91613(9) 0.19240(8) 0.31678(10)
H7_41 H 0.915585 0.174958 0.331592
C16_41 C 0.88762(10) 0.20771(10) 0.30811(12)
H8_41 H 0.867518 0.201152 0.316879
C17_41 C 0.88950(11) 0.23263(10) 0.28645(12)
C18_41 C 0.91789(11) 0.24302(9) 0.27240(11)
H9_41 H 0.918016 0.260043 0.257100
C19_41 C 0.94608(10) 0.22770(8) 0.28143(10)
H10_41 H 0.966048 0.234282 0.272378
F2_41 F 0.97211(9) 0.00242(7) 0.38847(7)
N8_41 N 0.93488(7) 0.09449(6) 0.26860(7)
C20_41 C 0.88741(9) 0.05769(10) 0.13034(9)
H11_41 H 0.880943 0.056292 0.108427
C21_41 C 0.89320(9) 0.02936(10) 0.14706(9)
H12_41 H 0.891003 0.009091 0.136666
C22_41 C 0.90215(9) 0.03102(9) 0.17881(9)
H13_41 H 0.905381 0.011820 0.190854
C23_41 C 0.90653(8) 0.06123(8) 0.19349(8)
C24_41 C 0.90046(8) 0.08880(9) 0.17457(8)
C25_41 C 0.90483(9) 0.12079(9) 0.18781(9)
C26_41 C 0.91688(10) 0.12563(9) 0.21904(9)
C27_41 C 0.92146(14) 0.15741(9) 0.22925(11)
H14_41 H 0.929721 0.161706 0.250158
C28_41 C 0.91401(17) 0.18220(11) 0.20900(12)
H15_41 H 0.916933 0.203877 0.215747
C29_41 C 0.90216(16) 0.17552(11) 0.17856(12)
H16_41 H 0.897342 0.193044 0.164643
C30_41 C 0.91743(8) 0.06665(8) 0.22561(8)
C31_41 C 0.92329(8) 0.09721(8) 0.23762(8)
C32_41 C 0.93549(8) 0.06247(8) 0.27424(8)
C33_41 C 0.94597(9) 0.04765(8) 0.30473(8)
C34_41 C 0.93322(10) 0.05760(8) 0.33387(9)
H17_41 H 0.918408 0.075042 0.334415
C35_41 C 0.94189(12) 0.04229(10) 0.36238(10)
H18_41 H 0.933121 0.048848 0.382482
C36_41 C 0.96355(12) 0.01737(10) 0.36050(11)
C37_41 C 0.97760(11) 0.00698(9) 0.33211(11)
C38_41 C 0.96857(10) 0.02230(8) 0.30392(10)
H20_41 H 0.977622 0.015718 0.283952
H19_41 H 0.992900 0.989957 0.331984
Cu2_42 Cu 0.45738(2) 0.375000 0.70738(2)
F1_42 F 0.36153(7) 0.25242(7) 0.72211(9)
N4_42 N 0.48140(7) 0.34449(6) 0.68488(7)
C1_42 C 0.61966(9) 0.30769(10) 0.63741(9)
H1_42 H 0.641573 0.306292 0.630943
C2_42 C 0.60294(9) 0.27936(10) 0.64320(9)
H2_42 H 0.613334 0.259091 0.641003
C3_42 C 0.57119(9) 0.28102(9) 0.65215(9)
H3_42 H 0.559146 0.261820 0.655381
C4_42 C 0.55651(8) 0.31123(8) 0.65653(8)
C5_42 C 0.57543(8) 0.33880(9) 0.65046(8)
C6_42 C 0.56219(9) 0.37079(9) 0.65483(9)
C7_42 C 0.53096(9) 0.37563(9) 0.66688(10)
C8_42 C 0.52075(11) 0.40741(9) 0.67146(14)
H4_42 H 0.499842 0.411706 0.679721
C9_42 C 0.54100(12) 0.43220(11) 0.66401(17)
H5_42 H 0.534253 0.453877 0.666933
C10_42 C 0.57144(12) 0.42552(11) 0.65216(16)
H6_42 H 0.585357 0.443044 0.647342
C11_42 C 0.52439(8) 0.31665(8) 0.66743(8)
C12_42 C 0.51238(8) 0.34721(8) 0.67329(8)
C13_42 C 0.47576(8) 0.31247(8) 0.68549(8)
C14_42 C 0.44527(8) 0.29765(8) 0.69597(9)
C15_42 C 0.41613(9) 0.30760(8) 0.68322(10)
H7_42 H 0.415585 0.325042 0.668408
C16_42 C 0.38762(10) 0.29229(10) 0.69189(12)
H8_42 H 0.367518 0.298848 0.683121
C17_42 C 0.38950(11) 0.26737(10) 0.71355(12)
C18_42 C 0.41789(11) 0.25698(9) 0.72760(11)
H9_42 H 0.418016 0.239957 0.742900
C19_42 C 0.44608(10) 0.27230(8) 0.71857(10)
H10_42 H 0.466048 0.265718 0.727622
F2_42 F 0.47211(9) 0.49758(7) 0.61153(7)
N8_42 N 0.43488(7) 0.40551(6) 0.73140(7)
C20_42 C 0.38741(9) 0.44231(10) 0.86966(9)
H11_42 H 0.380943 0.443708 0.891573
C21_42 C 0.39320(9) 0.47064(10) 0.85294(9)
H12_42 H 0.391003 0.490909 0.863334
C22_42 C 0.40215(9) 0.46898(9) 0.82119(9)
H13_42 H 0.405381 0.488180 0.809146
C23_42 C 0.40653(8) 0.43877(8) 0.80651(8)
C24_42 C 0.40046(8) 0.41120(9) 0.82543(8)
C25_42 C 0.40483(9) 0.37921(9) 0.81219(9)
C26_42 C 0.41688(10) 0.37437(9) 0.78096(9)
C27_42 C 0.42146(14) 0.34259(9) 0.77075(11)
H14_42 H 0.429721 0.338294 0.749842
C28_42 C 0.41401(17) 0.31780(11) 0.79100(12)
H15_42 H 0.416933 0.296123 0.784253
C29_42 C 0.40216(16) 0.32448(11) 0.82144(12)
H16_42 H 0.397342 0.306956 0.835357
C30_42 C 0.41743(8) 0.43335(8) 0.77439(8)
C31_42 C 0.42329(8) 0.40279(8) 0.76238(8)
C32_42 C 0.43549(8) 0.43753(8) 0.72576(8)
C33_42 C 0.44597(9) 0.45235(8) 0.69527(8)
C34_42 C 0.43322(10) 0.44240(8) 0.66613(9)
H17_42 H 0.418408 0.424958 0.665585
C35_42 C 0.44189(12) 0.45771(10) 0.63762(10)
H18_42 H 0.433121 0.451152 0.617518
C36_42 C 0.46355(12) 0.48263(10) 0.63950(11)
C37_42 C 0.47760(11) 0.49302(9) 0.66789(11)
H19_42 H 0.492900 0.510043 0.668016
C38_42 C 0.46857(10) 0.47770(8) 0.69608(10)
H20_42 H 0.477622 0.484282 0.716048
H19_43 H 0.507100 0.010043 0.831984
Cu2_43 Cu 0.54262(2) 0.875000 0.79262(2)
F1_43 F 0.63847(7) 0.75242(7) 0.77789(9)
N4_43 N 0.51860(7) 0.84449(6) 0.81512(7)
C1_43 C 0.38034(9) 0.80769(10) 0.86259(9)
H1_43 H 0.358427 0.806292 0.869057
C2_43 C 0.39706(9) 0.77936(10) 0.85680(9)
H2_43 H 0.386666 0.759091 0.858997
C3_43 C 0.42881(9) 0.78102(9) 0.84785(9)
H3_43 H 0.440854 0.761820 0.844619
C4_43 C 0.44349(8) 0.81123(8) 0.84347(8)
C5_43 C 0.42457(8) 0.83880(9) 0.84954(8)
C6_43 C 0.43781(9) 0.87079(9) 0.84517(9)
C7_43 C 0.46904(9) 0.87563(9) 0.83312(10)
C8_43 C 0.47925(11) 0.90741(9) 0.82854(14)
H4_43 H 0.500158 0.911706 0.820279
C9_43 C 0.45900(12) 0.93220(11) 0.83599(17)
H5_43 H 0.465747 0.953877 0.833067
C10_43 C 0.42856(12) 0.92552(11) 0.84784(16)
H6_43 H 0.414643 0.943044 0.852658
C11_43 C 0.47561(8) 0.81665(8) 0.83257(8)
C12_43 C 0.48762(8) 0.84721(8) 0.82671(8)
C13_43 C 0.52424(8) 0.81247(8) 0.81451(8)
C14_43 C 0.55473(8) 0.79765(8) 0.80403(9)
C15_43 C 0.58387(9) 0.80760(8) 0.81678(10)
H7_43 H 0.584415 0.825042 0.831592
C16_43 C 0.61238(10) 0.79229(10) 0.80811(12)
H8_43 H 0.632482 0.798848 0.816879
C17_43 C 0.61050(11) 0.76737(10) 0.78645(12)
C18_43 C 0.58211(11) 0.75698(9) 0.77240(11)
H9_43 H 0.581984 0.739957 0.757100
C19_43 C 0.55392(10) 0.77230(8) 0.78143(10)
H10_43 H 0.533952 0.765718 0.772378
F2_43 F 0.52789(9) 0.99758(7) 0.88847(7)
N8_43 N 0.56512(7) 0.90551(6) 0.76860(7)
C20_43 C 0.61259(9) 0.94231(10) 0.63034(9)
H11_43 H 0.619057 0.943708 0.608427
C21_43 C 0.60680(9) 0.97064(10) 0.64706(9)
H12_43 H 0.608997 0.990909 0.636666
C22_43 C 0.59785(9) 0.96898(9) 0.67881(9)
H13_43 H 0.594619 0.988180 0.690854
C23_43 C 0.59347(8) 0.93877(8) 0.69349(8)
C24_43 C 0.59954(8) 0.91120(9) 0.67457(8)
C25_43 C 0.59517(9) 0.87921(9) 0.68781(9)
C26_43 C 0.58312(10) 0.87437(9) 0.71904(9)
C27_43 C 0.57854(14) 0.84259(9) 0.72925(11)
H14_43 H 0.570279 0.838294 0.750158
C28_43 C 0.58599(17) 0.81780(11) 0.70900(12)
H15_43 H 0.583067 0.796123 0.715747
C29_43 C 0.59784(16) 0.82448(11) 0.67856(12)
H16_43 H 0.602658 0.806956 0.664643
C30_43 C 0.58257(8) 0.93335(8) 0.72561(8)
C31_43 C 0.57671(8) 0.90279(8) 0.73762(8)
C32_43 C 0.56451(8) 0.93753(8) 0.77424(8)
C33_43 C 0.55403(9) 0.95235(8) 0.80473(8)
C34_43 C 0.56678(10) 0.94240(8) 0.83387(9)
H17_43 H 0.581592 0.924958 0.834415
C35_43 C 0.55811(12) 0.95771(10) 0.86238(10)
H18_43 H 0.566879 0.951152 0.882482
C36_43 C 0.53645(12) 0.98263(10) 0.86050(11)
C37_43 C 0.52240(11) 0.99302(9) 0.83211(11)
C38_43 C 0.53143(10) 0.97770(8) 0.80392(10)
H20_43 H 0.522378 0.984282 0.783952
Cu2_44 Cu 0.04262(2) 0.625000 0.20738(2)
F1_44 F 0.13847(7) 0.74758(7) 0.22211(9)
N4_44 N 0.01860(7) 0.65551(6) 0.18488(7)
H4_44 H 0.000158 0.588294 0.179721
C13_44 C 0.02424(8) 0.68753(8) 0.18549(8)
C14_44 C 0.05473(8) 0.70235(8) 0.19597(9)
C15_44 C 0.08387(9) 0.69240(8) 0.18322(10)
H7_44 H 0.084415 0.674958 0.168408
C16_44 C 0.11238(10) 0.70771(10) 0.19189(12)
H8_44 H 0.132482 0.701152 0.183121
C17_44 C 0.11050(11) 0.73263(10) 0.21355(12)
C18_44 C 0.08211(11) 0.74302(9) 0.22760(11)
H9_44 H 0.081984 0.760043 0.242900
C19_44 C 0.05392(10) 0.72770(8) 0.21857(10)
H10_44 H 0.033952 0.734282 0.227622
F2_44 F 0.02789(9) 0.50242(7) 0.11153(7)
N8_44 N 0.06512(7) 0.59449(6) 0.23140(7)
C20_44 C 0.11259(9) 0.55769(10) 0.36966(9)
H11_44 H 0.119057 0.556292 0.391573
C21_44 C 0.10680(9) 0.52936(10) 0.35294(9)
H12_44 H 0.108997 0.509091 0.363334
C22_44 C 0.09785(9) 0.53102(9) 0.32119(9)
H13_44 H 0.094619 0.511820 0.309146
C23_44 C 0.09347(8) 0.56123(8) 0.30651(8)
C24_44 C 0.09954(8) 0.58880(9) 0.32543(8)
C25_44 C 0.09517(9) 0.62079(9) 0.31219(9)
C26_44 C 0.08312(10) 0.62563(9) 0.28096(9)
C27_44 C 0.07854(14) 0.65741(9) 0.27075(11)
H14_44 H 0.070279 0.661706 0.249842
C28_44 C 0.08599(17) 0.68220(11) 0.29100(12)
H15_44 H 0.083067 0.703877 0.284253
C29_44 C 0.09784(16) 0.67552(11) 0.32144(12)
H16_44 H 0.102658 0.693044 0.335357
C30_44 C 0.08257(8) 0.56665(8) 0.27439(8)
C31_44 C 0.07671(8) 0.59721(8) 0.26238(8)
C32_44 C 0.06451(8) 0.56247(8) 0.22576(8)
C33_44 C 0.05403(9) 0.54765(8) 0.19527(8)
C34_44 C 0.06678(10) 0.55760(8) 0.16613(9)
H17_44 H 0.081592 0.575042 0.165585
C35_44 C 0.05811(12) 0.54229(10) 0.13762(10)
H18_44 H 0.066879 0.548848 0.117518
C36_44 C 0.03645(12) 0.51737(10) 0.13950(11)
C37_44 C 0.02240(11) 0.50698(9) 0.16789(11)
H19_44 H 0.007100 0.489957 0.168016
C38_44 C 0.03143(10) 0.52230(8) 0.19608(10)
H20_44 H 0.022378 0.515718 0.216048
C1_44 C 0.88034(9) 0.69231(10) 0.13741(9)
H1_44 H 0.858427 0.693708 0.130943
C2_44 C 0.89706(9) 0.72064(10) 0.14320(9)
H2_44 H 0.886666 0.740909 0.141003
C3_44 C 0.92881(9) 0.71898(9) 0.15215(9)
H3_44 H 0.940854 0.738180 0.155381
C4_44 C 0.94349(8) 0.68877(8) 0.15653(8)
C5_44 C 0.92457(8) 0.66120(9) 0.15046(8)
C6_44 C 0.93781(9) 0.62921(9) 0.15483(9)
C7_44 C 0.96904(9) 0.62437(9) 0.16688(10)
C8_44 C 0.97925(11) 0.59259(9) 0.17146(14)
C9_44 C 0.95900(12) 0.56780(11) 0.16401(17)
H5_44 H 0.965747 0.546123 0.166933
C10_44 C 0.92856(12) 0.57448(11) 0.15216(16)
H6_44 H 0.914643 0.556956 0.147342
C11_44 C 0.97561(8) 0.68335(8) 0.16743(8)
C12_44 C 0.98762(8) 0.65279(8) 0.17329(8)
C1_45 C 0.36259(9) 0.11966(9) 0.19231(10)
H1_45 H 0.369057 0.141573 0.193708
C2_45 C 0.35680(9) 0.10294(9) 0.22064(10)
H2_45 H 0.358997 0.113334 0.240909
C3_45 C 0.34785(9) 0.07119(9) 0.21898(9)
H3_45 H 0.344619 0.059146 0.238180
C4_45 C 0.34347(8) 0.05651(8) 0.18877(8)
C5_45 C 0.34954(8) 0.07543(8) 0.16120(9)
C6_45 C 0.34517(9) 0.06219(9) 0.12921(9)
C7_45 C 0.33312(10) 0.03096(9) 0.12437(9)
C8_45 C 0.32854(14) 0.02075(11) 0.09259(9)
C9_45 C 0.33599(17) 0.04100(12) 0.06780(11)
H5_45 H 0.333067 0.034253 0.046123
C10_45 C 0.34784(16) 0.07144(12) 0.07448(11)
H6_45 H 0.352658 0.085357 0.056956
C11_45 C 0.33257(8) 0.02439(8) 0.18335(8)
C12_45 C 0.32671(8) 0.01238(8) 0.15279(8)
Cu2_45 Cu 0.29262(2) 0.95738(2) 0.125000
F1_45 F 0.27789(9) 0.86153(7) 0.24758(7)
N4_45 N 0.31512(7) 0.98140(7) 0.15551(6)
H4_45 H 0.320279 0.999842 0.088294
C13_45 C 0.31451(8) 0.97576(8) 0.18753(8)
C14_45 C 0.30403(9) 0.94527(8) 0.20235(8)
C15_45 C 0.31678(10) 0.91613(9) 0.19240(8)
H7_45 H 0.331592 0.915585 0.174958
C16_45 C 0.30811(12) 0.88762(10) 0.20771(10)
H8_45 H 0.316879 0.867518 0.201152
C17_45 C 0.28645(12) 0.88950(11) 0.23263(10)
C18_45 C 0.27240(11) 0.91789(11) 0.24302(9)
H9_45 H 0.257100 0.918016 0.260043
C19_45 C 0.28143(10) 0.94608(10) 0.22770(8)
H10_45 H 0.272378 0.966048 0.234282
F2_45 F 0.38847(7) 0.97211(9) 0.00242(7)
N8_45 N 0.26860(7) 0.93488(7) 0.09449(6)
C20_45 C 0.13034(9) 0.88741(9) 0.05769(10)
H11_45 H 0.108427 0.880943 0.056292
C21_45 C 0.14706(9) 0.89320(9) 0.02936(10)
H12_45 H 0.136666 0.891003 0.009091
C22_45 C 0.17881(9) 0.90215(9) 0.03102(9)
H13_45 H 0.190854 0.905381 0.011820
C23_45 C 0.19349(8) 0.90653(8) 0.06123(8)
C24_45 C 0.17457(8) 0.90046(8) 0.08880(9)
C25_45 C 0.18781(9) 0.90483(9) 0.12079(9)
C26_45 C 0.21904(9) 0.91688(10) 0.12563(9)
C27_45 C 0.22925(11) 0.92146(14) 0.15741(9)
H14_45 H 0.250158 0.929721 0.161706
C28_45 C 0.20900(12) 0.91401(17) 0.18220(11)
H15_45 H 0.215747 0.916933 0.203877
C29_45 C 0.17856(12) 0.90216(16) 0.17552(11)
H16_45 H 0.164643 0.897342 0.193044
C30_45 C 0.22561(8) 0.91743(8) 0.06665(8)
C31_45 C 0.23762(8) 0.92329(8) 0.09721(8)
C32_45 C 0.27424(8) 0.93549(8) 0.06247(8)
C33_45 C 0.30473(8) 0.94597(9) 0.04765(8)
C34_45 C 0.33387(9) 0.93322(10) 0.05760(8)
H17_45 H 0.334415 0.918408 0.075042
C35_45 C 0.36238(10) 0.94189(12) 0.04229(10)
H18_45 H 0.382482 0.933121 0.048848
C36_45 C 0.36050(11) 0.96355(12) 0.01737(10)
C37_45 C 0.33211(11) 0.97760(11) 0.00698(9)
C38_45 C 0.30392(10) 0.96857(10) 0.02230(8)
H20_45 H 0.283952 0.977622 0.015718
H19_45 H 0.331984 0.992900 0.989957
Cu2_46 Cu 0.70738(2) 0.45738(2) 0.375000
F1_46 F 0.72211(9) 0.36153(7) 0.25242(7)
N4_46 N 0.68488(7) 0.48140(7) 0.34449(6)
C1_46 C 0.63741(9) 0.61966(9) 0.30769(10)
H1_46 H 0.630943 0.641573 0.306292
C2_46 C 0.64320(9) 0.60294(9) 0.27936(10)
H2_46 H 0.641003 0.613334 0.259091
C3_46 C 0.65215(9) 0.57119(9) 0.28102(9)
H3_46 H 0.655381 0.559146 0.261820
C4_46 C 0.65653(8) 0.55651(8) 0.31123(8)
C5_46 C 0.65046(8) 0.57543(8) 0.33880(9)
C6_46 C 0.65483(9) 0.56219(9) 0.37079(9)
C7_46 C 0.66688(10) 0.53096(9) 0.37563(9)
C8_46 C 0.67146(14) 0.52075(11) 0.40741(9)
H4_46 H 0.679721 0.499842 0.411706
C9_46 C 0.66401(17) 0.54100(12) 0.43220(11)
H5_46 H 0.666933 0.534253 0.453877
C10_46 C 0.65216(16) 0.57144(12) 0.42552(11)
H6_46 H 0.647342 0.585357 0.443044
C11_46 C 0.66743(8) 0.52439(8) 0.31665(8)
C12_46 C 0.67329(8) 0.51238(8) 0.34721(8)
C13_46 C 0.68549(8) 0.47576(8) 0.31247(8)
C14_46 C 0.69597(9) 0.44527(8) 0.29765(8)
C15_46 C 0.68322(10) 0.41613(9) 0.30760(8)
H7_46 H 0.668408 0.415585 0.325042
C16_46 C 0.69189(12) 0.38762(10) 0.29229(10)
H8_46 H 0.683121 0.367518 0.298848
C17_46 C 0.71355(12) 0.38950(11) 0.26737(10)
C18_46 C 0.72760(11) 0.41789(11) 0.25698(9)
H9_46 H 0.742900 0.418016 0.239957
C19_46 C 0.71857(10) 0.44608(10) 0.27230(8)
H10_46 H 0.727622 0.466048 0.265718
F2_46 F 0.61153(7) 0.47211(9) 0.49758(7)
N8_46 N 0.73140(7) 0.43488(7) 0.40551(6)
C20_46 C 0.86966(9) 0.38741(9) 0.44231(10)
H11_46 H 0.891573 0.380943 0.443708
C21_46 C 0.85294(9) 0.39320(9) 0.47064(10)
H12_46 H 0.863334 0.391003 0.490909
C22_46 C 0.82119(9) 0.40215(9) 0.46898(9)
H13_46 H 0.809146 0.405381 0.488180
C23_46 C 0.80651(8) 0.40653(8) 0.43877(8)
C24_46 C 0.82543(8) 0.40046(8) 0.41120(9)
C25_46 C 0.81219(9) 0.40483(9) 0.37921(9)
C26_46 C 0.78096(9) 0.41688(10) 0.37437(9)
C27_46 C 0.77075(11) 0.42146(14) 0.34259(9)
H14_46 H 0.749842 0.429721 0.338294
C28_46 C 0.79100(12) 0.41401(17) 0.31780(11)
H15_46 H 0.784253 0.416933 0.296123
C29_46 C 0.82144(12) 0.40216(16) 0.32448(11)
H16_46 H 0.835357 0.397342 0.306956
C30_46 C 0.77439(8) 0.41743(8) 0.43335(8)
C31_46 C 0.76238(8) 0.42329(8) 0.40279(8)
C32_46 C 0.72576(8) 0.43549(8) 0.43753(8)
C33_46 C 0.69527(8) 0.44597(9) 0.45235(8)
C34_46 C 0.66613(9) 0.43322(10) 0.44240(8)
H17_46 H 0.665585 0.418408 0.424958
C35_46 C 0.63762(10) 0.44189(12) 0.45771(10)
H18_46 H 0.617518 0.433121 0.451152
C36_46 C 0.63950(11) 0.46355(12) 0.48263(10)
C37_46 C 0.66789(11) 0.47760(11) 0.49302(9)
H19_46 H 0.668016 0.492900 0.510043
C38_46 C 0.69608(10) 0.46857(10) 0.47770(8)
H20_46 H 0.716048 0.477622 0.484282
H19_47 H 0.831984 0.507100 0.010043
Cu2_47 Cu 0.79262(2) 0.54262(2) 0.875000
F1_47 F 0.77789(9) 0.63847(7) 0.75242(7)
N4_47 N 0.81512(7) 0.51860(7) 0.84449(6)
C1_47 C 0.86259(9) 0.38034(9) 0.80769(10)
H1_47 H 0.869057 0.358427 0.806292
C2_47 C 0.85680(9) 0.39706(9) 0.77936(10)
H2_47 H 0.858997 0.386666 0.759091
C3_47 C 0.84785(9) 0.42881(9) 0.78102(9)
H3_47 H 0.844619 0.440854 0.761820
C4_47 C 0.84347(8) 0.44349(8) 0.81123(8)
C5_47 C 0.84954(8) 0.42457(8) 0.83880(9)
C6_47 C 0.84517(9) 0.43781(9) 0.87079(9)
C7_47 C 0.83312(10) 0.46904(9) 0.87563(9)
C8_47 C 0.82854(14) 0.47925(11) 0.90741(9)
H4_47 H 0.820279 0.500158 0.911706
C9_47 C 0.83599(17) 0.45900(12) 0.93220(11)
H5_47 H 0.833067 0.465747 0.953877
C10_47 C 0.84784(16) 0.42856(12) 0.92552(11)
H6_47 H 0.852658 0.414643 0.943044
C11_47 C 0.83257(8) 0.47561(8) 0.81665(8)
C12_47 C 0.82671(8) 0.48762(8) 0.84721(8)
C13_47 C 0.81451(8) 0.52424(8) 0.81247(8)
C14_47 C 0.80403(9) 0.55473(8) 0.79765(8)
C15_47 C 0.81678(10) 0.58387(9) 0.80760(8)
H7_47 H 0.831592 0.584415 0.825042
C16_47 C 0.80811(12) 0.61238(10) 0.79229(10)
H8_47 H 0.816879 0.632482 0.798848
C17_47 C 0.78645(12) 0.61050(11) 0.76737(10)
C18_47 C 0.77240(11) 0.58211(11) 0.75698(9)
H9_47 H 0.757100 0.581984 0.739957
C19_47 C 0.78143(10) 0.55392(10) 0.77230(8)
H10_47 H 0.772378 0.533952 0.765718
F2_47 F 0.88847(7) 0.52789(9) 0.99758(7)
N8_47 N 0.76860(7) 0.56512(7) 0.90551(6)
C20_47 C 0.63034(9) 0.61259(9) 0.94231(10)
H11_47 H 0.608427 0.619057 0.943708
C21_47 C 0.64706(9) 0.60680(9) 0.97064(10)
H12_47 H 0.636666 0.608997 0.990909
C22_47 C 0.67881(9) 0.59785(9) 0.96898(9)
H13_47 H 0.690854 0.594619 0.988180
C23_47 C 0.69349(8) 0.59347(8) 0.93877(8)
C24_47 C 0.67457(8) 0.59954(8) 0.91120(9)
C25_47 C 0.68781(9) 0.59517(9) 0.87921(9)
C26_47 C 0.71904(9) 0.58312(10) 0.87437(9)
C27_47 C 0.72925(11) 0.57854(14) 0.84259(9)
H14_47 H 0.750158 0.570279 0.838294
C28_47 C 0.70900(12) 0.58599(17) 0.81780(11)
H15_47 H 0.715747 0.583067 0.796123
C29_47 C 0.67856(12) 0.59784(16) 0.82448(11)
H16_47 H 0.664643 0.602658 0.806956
C30_47 C 0.72561(8) 0.58257(8) 0.93335(8)
C31_47 C 0.73762(8) 0.57671(8) 0.90279(8)
C32_47 C 0.77424(8) 0.56451(8) 0.93753(8)
C33_47 C 0.80473(8) 0.55403(9) 0.95235(8)
C34_47 C 0.83387(9) 0.56678(10) 0.94240(8)
H17_47 H 0.834415 0.581592 0.924958
C35_47 C 0.86238(10) 0.55811(12) 0.95771(10)
H18_47 H 0.882482 0.566879 0.951152
C36_47 C 0.86050(11) 0.53645(12) 0.98263(10)
C37_47 C 0.83211(11) 0.52240(11) 0.99302(9)
C38_47 C 0.80392(10) 0.53143(10) 0.97770(8)
H20_47 H 0.783952 0.522378 0.984282
Cu2_48 Cu 0.20738(2) 0.04262(2) 0.625000
F1_48 F 0.22211(9) 0.13847(7) 0.74758(7)
N4_48 N 0.18488(7) 0.01860(7) 0.65551(6)
H4_48 H 0.179721 0.000158 0.588294
C13_48 C 0.18549(8) 0.02424(8) 0.68753(8)
C14_48 C 0.19597(9) 0.05473(8) 0.70235(8)
C15_48 C 0.18322(10) 0.08387(9) 0.69240(8)
H7_48 H 0.168408 0.084415 0.674958
C16_48 C 0.19189(12) 0.11238(10) 0.70771(10)
H8_48 H 0.183121 0.132482 0.701152
C17_48 C 0.21355(12) 0.11050(11) 0.73263(10)
C18_48 C 0.22760(11) 0.08211(11) 0.74302(9)
H9_48 H 0.242900 0.081984 0.760043
C19_48 C 0.21857(10) 0.05392(10) 0.72770(8)
H10_48 H 0.227622 0.033952 0.734282
F2_48 F 0.11153(7) 0.02789(9) 0.50242(7)
N8_48 N 0.23140(7) 0.06512(7) 0.59449(6)
C20_48 C 0.36966(9) 0.11259(9) 0.55769(10)
H11_48 H 0.391573 0.119057 0.556292
C21_48 C 0.35294(9) 0.10680(9) 0.52936(10)
H12_48 H 0.363334 0.108997 0.509091
C22_48 C 0.32119(9) 0.09785(9) 0.53102(9)
H13_48 H 0.309146 0.094619 0.511820
C23_48 C 0.30651(8) 0.09347(8) 0.56123(8)
C24_48 C 0.32543(8) 0.09954(8) 0.58880(9)
C25_48 C 0.31219(9) 0.09517(9) 0.62079(9)
C26_48 C 0.28096(9) 0.08312(10) 0.62563(9)
C27_48 C 0.27075(11) 0.07854(14) 0.65741(9)
H14_48 H 0.249842 0.070279 0.661706
C28_48 C 0.29100(12) 0.08599(17) 0.68220(11)
H15_48 H 0.284253 0.083067 0.703877
C29_48 C 0.32144(12) 0.09784(16) 0.67552(11)
H16_48 H 0.335357 0.102658 0.693044
C30_48 C 0.27439(8) 0.08257(8) 0.56665(8)
C31_48 C 0.26238(8) 0.07671(8) 0.59721(8)
C32_48 C 0.22576(8) 0.06451(8) 0.56247(8)
C33_48 C 0.19527(8) 0.05403(9) 0.54765(8)
C34_48 C 0.16613(9) 0.06678(10) 0.55760(8)
H17_48 H 0.165585 0.081592 0.575042
C35_48 C 0.13762(10) 0.05811(12) 0.54229(10)
H18_48 H 0.117518 0.066879 0.548848
C36_48 C 0.13950(11) 0.03645(12) 0.51737(10)
C37_48 C 0.16789(11) 0.02240(11) 0.50698(9)
H19_48 H 0.168016 0.007100 0.489957
C38_48 C 0.19608(10) 0.03143(10) 0.52230(8)
H20_48 H 0.216048 0.022378 0.515718
C1_48 C 0.13741(9) 0.88034(9) 0.69231(10)
H1_48 H 0.130943 0.858427 0.693708
C2_48 C 0.14320(9) 0.89706(9) 0.72064(10)
H2_48 H 0.141003 0.886666 0.740909
C3_48 C 0.15215(9) 0.92881(9) 0.71898(9)
H3_48 H 0.155381 0.940854 0.738180
C4_48 C 0.15653(8) 0.94349(8) 0.68877(8)
C5_48 C 0.15046(8) 0.92457(8) 0.66120(9)
C6_48 C 0.15483(9) 0.93781(9) 0.62921(9)
C7_48 C 0.16688(10) 0.96904(9) 0.62437(9)
C8_48 C 0.17146(14) 0.97925(11) 0.59259(9)
C9_48 C 0.16401(17) 0.95900(12) 0.56780(11)
H5_48 H 0.166933 0.965747 0.546123
C10_48 C 0.15216(16) 0.92856(12) 0.57448(11)
H6_48 H 0.147342 0.914643 0.556956
C11_48 C 0.16743(8) 0.97561(8) 0.68335(8)
C12_48 C 0.17329(8) 0.98762(8) 0.65279(8)
loop_
_geom_bond_atom_site_label_1
_geom_bond_atom_site_label_2
_geom_bond_site_symmetry_1
_geom_bond_site_symmetry_2
O1 N1 1_555 1_555
O2 N1 1_555 1_555
O3 N1 1_555 1_555
O2_2 N1_2 1_555 1_555
O3_2 N1_2 1_555 1_555
O1_3 N1_3 1_555 1_555
O2_3 N1_3 1_555 1_555
O3_3 N1_3 1_555 1_555
O2_4 N1_4 1_555 1_555
O3_4 N1_4 1_555 1_555
O1_5 N1_5 1_555 1_555
O2_5 N1_5 1_555 1_555
O3_5 N1_5 1_555 1_555
O2_6 N1_6 1_555 1_555
O3_6 N1_6 1_555 1_555
O1_7 N1_7 1_555 1_555
O2_7 N1_7 1_555 1_555
O3_7 N1_7 1_555 1_555
O2_8 N1_8 1_555 1_555
O3_8 N1_8 1_555 1_555
O1_9 N1_9 1_555 1_555
O2_9 N1_9 1_555 1_555
O3_9 N1_9 1_555 1_555
O2_10 N1_10 1_555 1_555
O3_10 N1_10 1_555 1_555
O1_11 N1_11 1_555 1_555
O2_11 N1_11 1_555 1_555
O3_11 N1_11 1_555 1_555
O2_12 N1_12 1_555 1_555
O3_12 N1_12 1_555 1_555
O1_13 N1_13 1_555 1_555
O2_13 N1_13 1_555 1_555
O3_13 N1_13 1_555 1_555
O1_14 N1_14 1_555 1_555
O2_14 N1_14 1_555 1_555
O3_14 N1_14 1_555 1_555
O1_15 N1_15 1_555 1_555
O2_15 N1_15 1_555 1_555
O3_15 N1_15 1_555 1_555
O1_16 N1_16 1_555 1_555
O2_16 N1_16 1_555 1_555
O3_16 N1_16 1_555 1_555
O1_17 N1_17 1_555 1_555
O2_17 N1_17 1_555 1_555
O3_17 N1_17 1_555 1_555
O1_18 N1_18 1_555 1_555
O2_18 N1_18 1_555 1_555
O3_18 N1_18 1_555 1_555
O1_19 N1_19 1_555 1_555
O2_19 N1_19 1_555 1_555
O3_19 N1_19 1_555 1_555
O1_20 N1_20 1_555 1_555
O2_20 N1_20 1_555 1_555
O3_20 N1_20 1_555 1_555
O1_21 N1_21 1_555 1_555
O2_21 N1_21 1_555 1_555
O3_21 N1_21 1_555 1_555
O1_22 N1_22 1_555 1_555
O2_22 N1_22 1_555 1_555
O3_22 N1_22 1_555 1_555
O1_23 N1_23 1_555 1_555
O2_23 N1_23 1_555 1_555
O3_23 N1_23 1_555 1_555
O1_24 N1_24 1_555 1_555
O2_24 N1_24 1_555 1_555
O3_24 N1_24 1_555 1_555
O2_25 N1_25 1_555 1_555
O3_25 N1_25 1_555 1_555
O1_26 N1_26 1_555 1_555
O2_26 N1_26 1_555 1_555
O3_26 N1_26 1_555 1_555
O2_27 N1_27 1_555 1_555
O3_27 N1_27 1_555 1_555
O1_28 N1_28 1_555 1_555
O2_28 N1_28 1_555 1_555
O3_28 N1_28 1_555 1_555
O2_29 N1_29 1_555 1_555
O3_29 N1_29 1_555 1_555
O1_30 N1_30 1_555 1_555
O2_30 N1_30 1_555 1_555
O3_30 N1_30 1_555 1_555
O2_31 N1_31 1_555 1_555
O3_31 N1_31 1_555 1_555
O1_32 N1_32 1_555 1_555
O2_32 N1_32 1_555 1_555
O3_32 N1_32 1_555 1_555
O2_33 N1_33 1_555 1_555
O3_33 N1_33 1_555 1_555
O1_34 N1_34 1_555 1_555
O2_34 N1_34 1_555 1_555
O3_34 N1_34 1_555 1_555
O2_35 N1_35 1_555 1_555
O3_35 N1_35 1_555 1_555
O1_36 N1_36 1_555 1_555
O2_36 N1_36 1_555 1_555
O3_36 N1_36 1_555 1_555
O1_37 N1_37 1_555 1_555
O2_37 N1_37 1_555 1_555
O3_37 N1_37 1_555 1_555
O1_38 N1_38 1_555 1_555
O2_38 N1_38 1_555 1_555
O3_38 N1_38 1_555 1_555
O1_39 N1_39 1_555 1_555
O2_39 N1_39 1_555 1_555
O3_39 N1_39 1_555 1_555
O1_40 N1_40 1_555 1_555
O2_40 N1_40 1_555 1_555
O3_40 N1_40 1_555 1_555
O1_41 N1_41 1_555 1_555
O2_41 N1_41 1_555 1_555
O3_41 N1_41 1_555 1_555
O1_42 N1_42 1_555 1_555
O2_42 N1_42 1_555 1_555
O3_42 N1_42 1_555 1_555
O1_43 N1_43 1_555 1_555
O2_43 N1_43 1_555 1_555
O3_43 N1_43 1_555 1_555
O1_44 N1_44 1_555 1_555
O2_44 N1_44 1_555 1_555
O3_44 N1_44 1_555 1_555
O1_45 N1_45 1_555 1_555
O2_45 N1_45 1_555 1_555
O3_45 N1_45 1_555 1_555
O1_46 N1_46 1_555 1_555
O2_46 N1_46 1_555 1_555
O3_46 N1_46 1_555 1_555
O1_47 N1_47 1_555 1_555
O2_47 N1_47 1_555 1_555
O3_47 N1_47 1_555 1_555
O1_48 N1_48 1_555 1_555
O2_48 N1_48 1_555 1_555
O3_48 N1_48 1_555 1_555
O1_49 N1_49 1_555 1_555
O2_49 N1_49 1_555 1_555
O3_49 N1_49 1_555 1_555
O2_50 N1_50 1_555 1_555
O3_50 N1_50 1_555 1_555
O1_51 N1_51 1_555 1_555
O2_51 N1_51 1_555 1_555
O3_51 N1_51 1_555 1_555
O2_52 N1_52 1_555 1_555
O3_52 N1_52 1_555 1_555
O1_53 N1_53 1_555 1_555
O2_53 N1_53 1_555 1_555
O3_53 N1_53 1_555 1_555
O2_54 N1_54 1_555 1_555
O3_54 N1_54 1_555 1_555
O1_55 N1_55 1_555 1_555
O2_55 N1_55 1_555 1_555
O3_55 N1_55 1_555 1_555
O2_56 N1_56 1_555 1_555
O3_56 N1_56 1_555 1_555
O1_57 N1_57 1_555 1_555
O2_57 N1_57 1_555 1_555
O3_57 N1_57 1_555 1_555
O2_58 N1_58 1_555 1_555
O3_58 N1_58 1_555 1_555
O1_59 N1_59 1_555 1_555
O2_59 N1_59 1_555 1_555
O3_59 N1_59 1_555 1_555
O2_60 N1_60 1_555 1_555
O3_60 N1_60 1_555 1_555
O1_61 N1_61 1_555 1_555
O2_61 N1_61 1_555 1_555
O3_61 N1_61 1_555 1_555
O1_62 N1_62 1_555 1_555
O2_62 N1_62 1_555 1_555
O3_62 N1_62 1_555 1_555
O1_63 N1_63 1_555 1_555
O2_63 N1_63 1_555 1_555
O3_63 N1_63 1_555 1_555
O1_64 N1_64 1_555 1_555
O2_64 N1_64 1_555 1_555
O3_64 N1_64 1_555 1_555
O1_65 N1_65 1_555 1_555
O2_65 N1_65 1_555 1_555
O3_65 N1_65 1_555 1_555
O1_66 N1_66 1_555 1_555
O2_66 N1_66 1_555 1_555
O3_66 N1_66 1_555 1_555
O1_67 N1_67 1_555 1_555
O2_67 N1_67 1_555 1_555
O3_67 N1_67 1_555 1_555
O1_68 N1_68 1_555 1_555
O2_68 N1_68 1_555 1_555
O3_68 N1_68 1_555 1_555
O1_69 N1_69 1_555 1_555
O2_69 N1_69 1_555 1_555
O3_69 N1_69 1_555 1_555
O1_70 N1_70 1_555 1_555
O2_70 N1_70 1_555 1_555
O3_70 N1_70 1_555 1_555
O1_71 N1_71 1_555 1_555
O2_71 N1_71 1_555 1_555
O3_71 N1_71 1_555 1_555
O1_72 N1_72 1_555 1_555
O2_72 N1_72 1_555 1_555
O3_72 N1_72 1_555 1_555
O2_73 N1_73 1_555 1_555
O3_73 N1_73 1_555 1_555
O1_74 N1_74 1_555 1_555
O2_74 N1_74 1_555 1_555
O3_74 N1_74 1_555 1_555
O2_75 N1_75 1_555 1_555
O3_75 N1_75 1_555 1_555
O1_76 N1_76 1_555 1_555
O2_76 N1_76 1_555 1_555
O3_76 N1_76 1_555 1_555
O2_77 N1_77 1_555 1_555
O3_77 N1_77 1_555 1_555
O1_78 N1_78 1_555 1_555
O2_78 N1_78 1_555 1_555
O3_78 N1_78 1_555 1_555
O2_79 N1_79 1_555 1_555
O3_79 N1_79 1_555 1_555
O1_80 N1_80 1_555 1_555
O2_80 N1_80 1_555 1_555
O3_80 N1_80 1_555 1_555
O2_81 N1_81 1_555 1_555
O3_81 N1_81 1_555 1_555
O1_82 N1_82 1_555 1_555
O2_82 N1_82 1_555 1_555
O3_82 N1_82 1_555 1_555
O2_83 N1_83 1_555 1_555
O3_83 N1_83 1_555 1_555
O1_84 N1_84 1_555 1_555
O2_84 N1_84 1_555 1_555
O3_84 N1_84 1_555 1_555
O1_85 N1_85 1_555 1_555
O2_85 N1_85 1_555 1_555
O3_85 N1_85 1_555 1_555
O1_86 N1_86 1_555 1_555
O2_86 N1_86 1_555 1_555
O3_86 N1_86 1_555 1_555
O1_87 N1_87 1_555 1_555
O2_87 N1_87 1_555 1_555
O3_87 N1_87 1_555 1_555
O1_88 N1_88 1_555 1_555
O2_88 N1_88 1_555 1_555
O3_88 N1_88 1_555 1_555
O1_89 N1_89 1_555 1_555
O2_89 N1_89 1_555 1_555
O3_89 N1_89 1_555 1_555
O1_90 N1_90 1_555 1_555
O2_90 N1_90 1_555 1_555
O3_90 N1_90 1_555 1_555
O1_91 N1_91 1_555 1_555
O2_91 N1_91 1_555 1_555
O3_91 N1_91 1_555 1_555
O1_92 N1_92 1_555 1_555
O2_92 N1_92 1_555 1_555
O3_92 N1_92 1_555 1_555
O1_93 N1_93 1_555 1_555
O2_93 N1_93 1_555 1_555
O3_93 N1_93 1_555 1_555
O1_94 N1_94 1_555 1_555
O2_94 N1_94 1_555 1_555
O3_94 N1_94 1_555 1_555
O1_95 N1_95 1_555 1_555
O2_95 N1_95 1_555 1_555
O3_95 N1_95 1_555 1_555
O1_96 N1_96 1_555 1_555
O2_96 N1_96 1_555 1_555
O3_96 N1_96 1_555 1_555
Cu1 N2 1_555 1_555
Cu2 N4 1_555 1_555
Cu3 N5 1_555 1_555
F1 C17 1_555 1_555
N2 C1 1_555 1_555
N3 Cu1 1_555 1_555
N4 C12 1_555 1_555
N5 C11 1_555 1_555
C1 H1 1_555 1_555
C2 C1 1_555 1_555
H2 C2 1_555 1_555
C3 C2 1_555 1_555
H3 C3 1_555 1_555
C4 C3 1_555 1_555
C5 N2 1_555 1_555
C6 N3 1_555 1_555
C7 C6 1_555 1_555
C8 C7 1_555 1_555
H4 C8 1_555 1_555
C9 C8 1_555 1_555
H5 C9 1_555 1_555
C10 N3 1_555 1_555
H6 C10 1_555 1_555
C11 C4 1_555 1_555
C12 C7 1_555 1_555
C13 N4 1_555 1_555
C14 C13 1_555 1_555
C15 C14 1_555 1_555
H7 C15 1_555 1_555
C16 C15 1_555 1_555
H8 C16 1_555 1_555
C17 C16 1_555 1_555
C18 C17 1_555 1_555
H9 C18 1_555 1_555
C19 C14 1_555 1_555
H10 C19 1_555 1_555
F2 C36 1_555 1_555
N6 C20 1_555 1_555
N7 C25 1_555 1_555
N8 Cu2 1_555 1_555
N9 C30 1_555 1_555
C20 H11 1_555 1_555
C21 C20 1_555 1_555
H12 C21 1_555 1_555
C22 C21 1_555 1_555
H13 C22 1_555 1_555
C23 C22 1_555 1_555
C24 N6 1_555 1_555
C25 C24 1_555 1_555
C26 C25 1_555 1_555
C27 C26 1_555 1_555
H14 C27 1_555 1_555
C28 C27 1_555 1_555
H15 C28 1_555 1_555
C29 N7 1_555 1_555
H16 C29 1_555 1_555
C30 C23 1_555 1_555
C31 N8 1_555 1_555
C32 N8 1_555 1_555
C33 C32 1_555 1_555
C34 C33 1_555 1_555
H17 C34 1_555 1_555
C35 C34 1_555 1_555
H18 C35 1_555 1_555
C36 C35 1_555 1_555
C37 C36 1_555 1_555
H19 C37 1_555 1_555
C38 C33 1_555 1_555
H20 C38 1_555 1_555
Cu4 N6 1_555 1_555
Cu5 N9 1_555 1_555
N10 Cu1 1_555 1_555
N11 Cu1 1_555 1_555
N12 Cu3 1_555 1_555
N5 C13 1_555 1_555
C4 C5 1_555 1_555
C5 C6 1_555 1_555
C9 C10 1_555 1_555
C11 C12 1_555 1_555
C18 C19 1_555 1_555
N7 Cu4 1_555 1_555
N9 C32 1_555 1_555
C23 C24 1_555 1_555
C26 C31 1_555 1_555
C28 C29 1_555 1_555
C30 C31 1_555 1_555
C37 C38 1_555 1_555
Cu2_2 N4_2 1_555 1_555
F1_2 C17_2 1_555 1_555
C13_2 N4_2 1_555 1_555
C14_2 C13_2 1_555 1_555
C15_2 C14_2 1_555 1_555
H7_2 C15_2 1_555 1_555
C16_2 C15_2 1_555 1_555
H8_2 C16_2 1_555 1_555
C17_2 C16_2 1_555 1_555
C18_2 C17_2 1_555 1_555
H9_2 C18_2 1_555 1_555
C19_2 C14_2 1_555 1_555
H10_2 C19_2 1_555 1_555
F2_2 C36_2 1_555 1_555
N6_2 C20_2 1_555 1_555
N7_2 C25_2 1_555 1_555
N8_2 Cu2_2 1_555 1_555
N9_2 C30_2 1_555 1_555
C20_2 H11_2 1_555 1_555
C21_2 C20_2 1_555 1_555
H12_2 C21_2 1_555 1_555
C22_2 C21_2 1_555 1_555
H13_2 C22_2 1_555 1_555
C23_2 C22_2 1_555 1_555
C24_2 N6_2 1_555 1_555
C25_2 C24_2 1_555 1_555
C26_2 C25_2 1_555 1_555
C27_2 C26_2 1_555 1_555
H14_2 C27_2 1_555 1_555
C28_2 C27_2 1_555 1_555
H15_2 C28_2 1_555 1_555
C29_2 N7_2 1_555 1_555
H16_2 C29_2 1_555 1_555
C30_2 C23_2 1_555 1_555
C31_2 N8_2 1_555 1_555
C32_2 N8_2 1_555 1_555
C33_2 C32_2 1_555 1_555
C34_2 C33_2 1_555 1_555
H17_2 C34_2 1_555 1_555
C35_2 C34_2 1_555 1_555
H18_2 C35_2 1_555 1_555
C36_2 C35_2 1_555 1_555
C37_2 C36_2 1_555 1_555
C38_2 C33_2 1_555 1_555
H20_2 C38_2 1_555 1_555
Cu4_2 N6_2 1_555 1_555
Cu5_2 N9_2 1_555 1_555
N12_2 Cu3_2 1_555 1_555
C18_2 C19_2 1_555 1_555
N7_2 Cu4_2 1_555 1_555
N9_2 C32_2 1_555 1_555
C23_2 C24_2 1_555 1_555
C26_2 C31_2 1_555 1_555
C28_2 C29_2 1_555 1_555
C30_2 C31_2 1_555 1_555
C37_2 C38_2 1_555 1_555
Cu1_2 N2_2 1_555 1_555
Cu3_3 N5_2 1_555 1_555
N2_2 C1_2 1_555 1_555
N3_2 Cu1_2 1_555 1_555
N5_2 C11_2 1_555 1_555
C1_2 H1_2 1_555 1_555
C2_2 C1_2 1_555 1_555
H2_2 C2_2 1_555 1_555
C3_2 C2_2 1_555 1_555
H3_2 C3_2 1_555 1_555
C4_2 C3_2 1_555 1_555
C5_2 N2_2 1_555 1_555
C6_2 N3_2 1_555 1_555
C7_2 C6_2 1_555 1_555
C8_2 C7_2 1_555 1_555
C9_2 C8_2 1_555 1_555
H5_2 C9_2 1_555 1_555
C10_2 N3_2 1_555 1_555
H6_2 C10_2 1_555 1_555
C11_2 C4_2 1_555 1_555
C12_2 C7_2 1_555 1_555
N10_2 Cu1_2 1_555 1_555
N11_2 Cu1_2 1_555 1_555
C4_2 C5_2 1_555 1_555
C5_2 C6_2 1_555 1_555
C9_2 C10_2 1_555 1_555
C11_2 C12_2 1_555 1_555
Cu1_3 N2_3 1_555 1_555
Cu3_4 N5_3 1_555 1_555
N2_3 C1_3 1_555 1_555
N3_3 Cu1_3 1_555 1_555
N5_3 C11_3 1_555 1_555
C1_3 H1_3 1_555 1_555
C2_3 C1_3 1_555 1_555
H2_3 C2_3 1_555 1_555
C3_3 C2_3 1_555 1_555
H3_3 C3_3 1_555 1_555
C4_3 C3_3 1_555 1_555
C5_3 N2_3 1_555 1_555
C6_3 N3_3 1_555 1_555
C7_3 C6_3 1_555 1_555
C8_3 C7_3 1_555 1_555
C9_3 C8_3 1_555 1_555
H5_3 C9_3 1_555 1_555
C10_3 N3_3 1_555 1_555
H6_3 C10_3 1_555 1_555
C11_3 C4_3 1_555 1_555
C12_3 C7_3 1_555 1_555
N10_3 Cu1_3 1_555 1_555
N11_3 Cu1_3 1_555 1_555
C4_3 C5_3 1_555 1_555
C5_3 C6_3 1_555 1_555
C9_3 C10_3 1_555 1_555
C11_3 C12_3 1_555 1_555
Cu2_3 N4_3 1_555 1_555
F1_3 C17_3 1_555 1_555
C13_3 N4_3 1_555 1_555
C14_3 C13_3 1_555 1_555
C15_3 C14_3 1_555 1_555
H7_3 C15_3 1_555 1_555
C16_3 C15_3 1_555 1_555
H8_3 C16_3 1_555 1_555
C17_3 C16_3 1_555 1_555
C18_3 C17_3 1_555 1_555
H9_3 C18_3 1_555 1_555
C19_3 C14_3 1_555 1_555
H10_3 C19_3 1_555 1_555
F2_3 C36_3 1_555 1_555
N6_3 C20_3 1_555 1_555
N7_3 C25_3 1_555 1_555
N8_3 Cu2_3 1_555 1_555
N9_3 C30_3 1_555 1_555
C20_3 H11_3 1_555 1_555
C21_3 C20_3 1_555 1_555
H12_3 C21_3 1_555 1_555
C22_3 C21_3 1_555 1_555
H13_3 C22_3 1_555 1_555
C23_3 C22_3 1_555 1_555
C24_3 N6_3 1_555 1_555
C25_3 C24_3 1_555 1_555
C26_3 C25_3 1_555 1_555
C27_3 C26_3 1_555 1_555
H14_3 C27_3 1_555 1_555
C28_3 C27_3 1_555 1_555
H15_3 C28_3 1_555 1_555
C29_3 N7_3 1_555 1_555
H16_3 C29_3 1_555 1_555
C30_3 C23_3 1_555 1_555
C31_3 N8_3 1_555 1_555
C32_3 N8_3 1_555 1_555
C33_3 C32_3 1_555 1_555
C34_3 C33_3 1_555 1_555
H17_3 C34_3 1_555 1_555
C35_3 C34_3 1_555 1_555
H18_3 C35_3 1_555 1_555
C36_3 C35_3 1_555 1_555
C37_3 C36_3 1_555 1_555
H19_3 C37_3 1_555 1_555
C38_3 C33_3 1_555 1_555
H20_3 C38_3 1_555 1_555
Cu4_3 N6_3 1_555 1_555
Cu5_4 N9_3 1_555 1_555
N12_3 Cu3_5 1_555 1_555
C18_3 C19_3 1_555 1_555
N7_3 Cu4_3 1_555 1_555
N9_3 C32_3 1_555 1_555
C23_3 C24_3 1_555 1_555
C26_3 C31_3 1_555 1_555
C28_3 C29_3 1_555 1_555
C30_3 C31_3 1_555 1_555
C37_3 C38_3 1_555 1_555
Cu1_4 N2_4 1_555 1_555
Cu2_4 N4_4 1_555 1_555
Cu3_6 N5_4 1_555 1_555
F1_4 C17_4 1_555 1_555
N2_4 C1_4 1_555 1_555
N3_4 Cu1_4 1_555 1_555
N4_4 C12_4 1_555 1_555
N5_4 C11_4 1_555 1_555
C1_4 H1_4 1_555 1_555
C2_4 C1_4 1_555 1_555
H2_4 C2_4 1_555 1_555
C3_4 C2_4 1_555 1_555
H3_4 C3_4 1_555 1_555
C4_4 C3_4 1_555 1_555
C5_4 N2_4 1_555 1_555
C6_4 N3_4 1_555 1_555
C7_4 C6_4 1_555 1_555
C8_4 C7_4 1_555 1_555
H4_4 C8_4 1_555 1_555
C9_4 C8_4 1_555 1_555
H5_4 C9_4 1_555 1_555
C10_4 N3_4 1_555 1_555
H6_4 C10_4 1_555 1_555
C11_4 C4_4 1_555 1_555
C12_4 C7_4 1_555 1_555
C13_4 N4_4 1_555 1_555
C14_4 C13_4 1_555 1_555
C15_4 C14_4 1_555 1_555
H7_4 C15_4 1_555 1_555
C16_4 C15_4 1_555 1_555
H8_4 C16_4 1_555 1_555
C17_4 C16_4 1_555 1_555
C18_4 C17_4 1_555 1_555
H9_4 C18_4 1_555 1_555
C19_4 C14_4 1_555 1_555
H10_4 C19_4 1_555 1_555
F2_4 C36_4 1_555 1_555
N6_4 C20_4 1_555 1_555
N7_4 C25_4 1_555 1_555
N8_4 Cu2_4 1_555 1_555
N9_4 C30_4 1_555 1_555
C20_4 H11_4 1_555 1_555
C21_4 C20_4 1_555 1_555
H12_4 C21_4 1_555 1_555
C22_4 C21_4 1_555 1_555
H13_4 C22_4 1_555 1_555
C23_4 C22_4 1_555 1_555
C24_4 N6_4 1_555 1_555
C25_4 C24_4 1_555 1_555
C26_4 C25_4 1_555 1_555
C27_4 C26_4 1_555 1_555
H14_4 C27_4 1_555 1_555
C28_4 C27_4 1_555 1_555
H15_4 C28_4 1_555 1_555
C29_4 N7_4 1_555 1_555
H16_4 C29_4 1_555 1_555
C30_4 C23_4 1_555 1_555
C31_4 N8_4 1_555 1_555
C32_4 N8_4 1_555 1_555
C33_4 C32_4 1_555 1_555
C34_4 C33_4 1_555 1_555
H17_4 C34_4 1_555 1_555
C35_4 C34_4 1_555 1_555
H18_4 C35_4 1_555 1_555
C36_4 C35_4 1_555 1_555
C37_4 C36_4 1_555 1_555
C38_4 C33_4 1_555 1_555
H20_4 C38_4 1_555 1_555
Cu4_4 N6_4 1_555 1_555
Cu5_6 N9_4 1_555 1_555
N10_4 Cu1_4 1_555 1_555
N11_4 Cu1_4 1_555 1_555
N12_4 Cu3_6 1_555 1_555
N5_4 C13_4 1_555 1_555
C4_4 C5_4 1_555 1_555
C5_4 C6_4 1_555 1_555
C9_4 C10_4 1_555 1_555
C11_4 C12_4 1_555 1_555
C18_4 C19_4 1_555 1_555
N7_4 Cu4_4 1_555 1_555
N9_4 C32_4 1_555 1_555
C23_4 C24_4 1_555 1_555
C26_4 C31_4 1_555 1_555
C28_4 C29_4 1_555 1_555
C30_4 C31_4 1_555 1_555
C37_4 C38_4 1_555 1_555
Cu1_5 N2_5 1_555 1_555
Cu2_5 N4_5 1_555 1_555
Cu3_7 N5_5 1_555 1_555
F1_5 C17_5 1_555 1_555
N2_5 C1_5 1_555 1_555
N3_5 Cu1_5 1_555 1_555
N4_5 C12_5 1_555 1_555
N5_5 C11_5 1_555 1_555
C1_5 H1_5 1_555 1_555
C2_5 C1_5 1_555 1_555
H2_5 C2_5 1_555 1_555
C3_5 C2_5 1_555 1_555
H3_5 C3_5 1_555 1_555
C4_5 C3_5 1_555 1_555
C5_5 N2_5 1_555 1_555
C6_5 N3_5 1_555 1_555
C7_5 C6_5 1_555 1_555
C8_5 C7_5 1_555 1_555
H4_5 C8_5 1_555 1_555
C9_5 C8_5 1_555 1_555
H5_5 C9_5 1_555 1_555
C10_5 N3_5 1_555 1_555
H6_5 C10_5 1_555 1_555
C11_5 C4_5 1_555 1_555
C12_5 C7_5 1_555 1_555
C13_5 N4_5 1_555 1_555
C14_5 C13_5 1_555 1_555
C15_5 C14_5 1_555 1_555
H7_5 C15_5 1_555 1_555
C16_5 C15_5 1_555 1_555
H8_5 C16_5 1_555 1_555
C17_5 C16_5 1_555 1_555
C18_5 C17_5 1_555 1_555
H9_5 C18_5 1_555 1_555
C19_5 C14_5 1_555 1_555
H10_5 C19_5 1_555 1_555
F2_5 C36_5 1_555 1_555
N6_5 C20_5 1_555 1_555
N7_5 C25_5 1_555 1_555
N8_5 Cu2_5 1_555 1_555
N9_5 C30_5 1_555 1_555
C20_5 H11_5 1_555 1_555
C21_5 C20_5 1_555 1_555
H12_5 C21_5 1_555 1_555
C22_5 C21_5 1_555 1_555
H13_5 C22_5 1_555 1_555
C23_5 C22_5 1_555 1_555
C24_5 N6_5 1_555 1_555
C25_5 C24_5 1_555 1_555
C26_5 C25_5 1_555 1_555
C27_5 C26_5 1_555 1_555
H14_5 C27_5 1_555 1_555
C28_5 C27_5 1_555 1_555
H15_5 C28_5 1_555 1_555
C29_5 N7_5 1_555 1_555
H16_5 C29_5 1_555 1_555
C30_5 C23_5 1_555 1_555
C31_5 N8_5 1_555 1_555
C32_5 N8_5 1_555 1_555
C33_5 C32_5 1_555 1_555
C34_5 C33_5 1_555 1_555
H17_5 C34_5 1_555 1_555
C35_5 C34_5 1_555 1_555
H18_5 C35_5 1_555 1_555
C36_5 C35_5 1_555 1_555
C37_5 C36_5 1_555 1_555
H19_5 C37_5 1_555 1_555
C38_5 C33_5 1_555 1_555
H20_5 C38_5 1_555 1_555
Cu4_5 N6_5 1_555 1_555
Cu5_7 N9_5 1_555 1_555
N10_5 Cu1_5 1_555 1_555
N11_5 Cu1_5 1_555 1_555
N12_5 Cu3_7 1_555 1_555
N5_5 C13_5 1_555 1_555
C4_5 C5_5 1_555 1_555
C5_5 C6_5 1_555 1_555
C9_5 C10_5 1_555 1_555
C11_5 C12_5 1_555 1_555
C18_5 C19_5 1_555 1_555
N7_5 Cu4_5 1_555 1_555
N9_5 C32_5 1_555 1_555
C23_5 C24_5 1_555 1_555
C26_5 C31_5 1_555 1_555
C28_5 C29_5 1_555 1_555
C30_5 C31_5 1_555 1_555
C37_5 C38_5 1_555 1_555
Cu2_6 N4_6 1_555 1_555
F1_6 C17_6 1_555 1_555
C13_6 N4_6 1_555 1_555
C14_6 C13_6 1_555 1_555
C15_6 C14_6 1_555 1_555
H7_6 C15_6 1_555 1_555
C16_6 C15_6 1_555 1_555
H8_6 C16_6 1_555 1_555
C17_6 C16_6 1_555 1_555
C18_6 C17_6 1_555 1_555
H9_6 C18_6 1_555 1_555
C19_6 C14_6 1_555 1_555
H10_6 C19_6 1_555 1_555
F2_6 C36_6 1_555 1_555
N6_6 C20_6 1_555 1_555
N7_6 C25_6 1_555 1_555
N8_6 Cu2_6 1_555 1_555
N9_6 C30_6 1_555 1_555
C20_6 H11_6 1_555 1_555
C21_6 C20_6 1_555 1_555
H12_6 C21_6 1_555 1_555
C22_6 C21_6 1_555 1_555
H13_6 C22_6 1_555 1_555
C23_6 C22_6 1_555 1_555
C24_6 N6_6 1_555 1_555
C25_6 C24_6 1_555 1_555
C26_6 C25_6 1_555 1_555
C27_6 C26_6 1_555 1_555
H14_6 C27_6 1_555 1_555
C28_6 C27_6 1_555 1_555
H15_6 C28_6 1_555 1_555
C29_6 N7_6 1_555 1_555
H16_6 C29_6 1_555 1_555
C30_6 C23_6 1_555 1_555
C31_6 N8_6 1_555 1_555
C32_6 N8_6 1_555 1_555
C33_6 C32_6 1_555 1_555
C34_6 C33_6 1_555 1_555
H17_6 C34_6 1_555 1_555
C35_6 C34_6 1_555 1_555
H18_6 C35_6 1_555 1_555
C36_6 C35_6 1_555 1_555
C37_6 C36_6 1_555 1_555
C38_6 C33_6 1_555 1_555
H20_6 C38_6 1_555 1_555
Cu4_6 N6_6 1_555 1_555
Cu5_8 N9_6 1_555 1_555
N12_6 Cu3_8 1_555 1_555
C18_6 C19_6 1_555 1_555
N7_6 Cu4_6 1_555 1_555
N9_6 C32_6 1_555 1_555
C23_6 C24_6 1_555 1_555
C26_6 C31_6 1_555 1_555
C28_6 C29_6 1_555 1_555
C30_6 C31_6 1_555 1_555
C37_6 C38_6 1_555 1_555
Cu1_6 N2_6 1_555 1_555
Cu3_9 N5_6 1_555 1_555
N2_6 C1_6 1_555 1_555
N3_6 Cu1_6 1_555 1_555
N5_6 C11_6 1_555 1_555
C1_6 H1_6 1_555 1_555
C2_6 C1_6 1_555 1_555
H2_6 C2_6 1_555 1_555
C3_6 C2_6 1_555 1_555
H3_6 C3_6 1_555 1_555
C4_6 C3_6 1_555 1_555
C5_6 N2_6 1_555 1_555
C6_6 N3_6 1_555 1_555
C7_6 C6_6 1_555 1_555
C8_6 C7_6 1_555 1_555
C9_6 C8_6 1_555 1_555
H5_6 C9_6 1_555 1_555
C10_6 N3_6 1_555 1_555
H6_6 C10_6 1_555 1_555
C11_6 C4_6 1_555 1_555
C12_6 C7_6 1_555 1_555
N10_6 Cu1_6 1_555 1_555
N11_6 Cu1_6 1_555 1_555
C4_6 C5_6 1_555 1_555
C5_6 C6_6 1_555 1_555
C9_6 C10_6 1_555 1_555
C11_6 C12_6 1_555 1_555
Cu1_7 N2_7 1_555 1_555
Cu3_10 N5_7 1_555 1_555
N2_7 C1_7 1_555 1_555
N3_7 Cu1_7 1_555 1_555
N5_7 C11_7 1_555 1_555
C1_7 H1_7 1_555 1_555
C2_7 C1_7 1_555 1_555
H2_7 C2_7 1_555 1_555
C3_7 C2_7 1_555 1_555
H3_7 C3_7 1_555 1_555
C4_7 C3_7 1_555 1_555
C5_7 N2_7 1_555 1_555
C6_7 N3_7 1_555 1_555
C7_7 C6_7 1_555 1_555
C8_7 C7_7 1_555 1_555
C9_7 C8_7 1_555 1_555
H5_7 C9_7 1_555 1_555
C10_7 N3_7 1_555 1_555
H6_7 C10_7 1_555 1_555
C11_7 C4_7 1_555 1_555
C12_7 C7_7 1_555 1_555
N10_7 Cu1_7 1_555 1_555
N11_7 Cu1_7 1_555 1_555
C4_7 C5_7 1_555 1_555
C5_7 C6_7 1_555 1_555
C9_7 C10_7 1_555 1_555
C11_7 C12_7 1_555 1_555
Cu2_7 N4_7 1_555 1_555
F1_7 C17_7 1_555 1_555
C13_7 N4_7 1_555 1_555
C14_7 C13_7 1_555 1_555
C15_7 C14_7 1_555 1_555
H7_7 C15_7 1_555 1_555
C16_7 C15_7 1_555 1_555
H8_7 C16_7 1_555 1_555
C17_7 C16_7 1_555 1_555
C18_7 C17_7 1_555 1_555
H9_7 C18_7 1_555 1_555
C19_7 C14_7 1_555 1_555
H10_7 C19_7 1_555 1_555
F2_7 C36_7 1_555 1_555
N6_7 C20_7 1_555 1_555
N7_7 C25_7 1_555 1_555
N8_7 Cu2_7 1_555 1_555
N9_7 C30_7 1_555 1_555
C20_7 H11_7 1_555 1_555
C21_7 C20_7 1_555 1_555
H12_7 C21_7 1_555 1_555
C22_7 C21_7 1_555 1_555
H13_7 C22_7 1_555 1_555
C23_7 C22_7 1_555 1_555
C24_7 N6_7 1_555 1_555
C25_7 C24_7 1_555 1_555
C26_7 C25_7 1_555 1_555
C27_7 C26_7 1_555 1_555
H14_7 C27_7 1_555 1_555
C28_7 C27_7 1_555 1_555
H15_7 C28_7 1_555 1_555
C29_7 N7_7 1_555 1_555
H16_7 C29_7 1_555 1_555
C30_7 C23_7 1_555 1_555
C31_7 N8_7 1_555 1_555
C32_7 N8_7 1_555 1_555
C33_7 C32_7 1_555 1_555
C34_7 C33_7 1_555 1_555
H17_7 C34_7 1_555 1_555
C35_7 C34_7 1_555 1_555
H18_7 C35_7 1_555 1_555
C36_7 C35_7 1_555 1_555
C37_7 C36_7 1_555 1_555
H19_7 C37_7 1_555 1_555
C38_7 C33_7 1_555 1_555
H20_7 C38_7 1_555 1_555
Cu4_7 N6_7 1_555 1_555
Cu5_10 N9_7 1_555 1_555
N12_7 Cu3_11 1_555 1_555
C18_7 C19_7 1_555 1_555
N7_7 Cu4_7 1_555 1_555
N9_7 C32_7 1_555 1_555
C23_7 C24_7 1_555 1_555
C26_7 C31_7 1_555 1_555
C28_7 C29_7 1_555 1_555
C30_7 C31_7 1_555 1_555
C37_7 C38_7 1_555 1_555
Cu1_8 N2_8 1_555 1_555
Cu2_8 N4_8 1_555 1_555
Cu3_12 N5_8 1_555 1_555
F1_8 C17_8 1_555 1_555
N2_8 C1_8 1_555 1_555
N3_8 Cu1_8 1_555 1_555
N4_8 C12_8 1_555 1_555
N5_8 C11_8 1_555 1_555
C1_8 H1_8 1_555 1_555
C2_8 C1_8 1_555 1_555
H2_8 C2_8 1_555 1_555
C3_8 C2_8 1_555 1_555
H3_8 C3_8 1_555 1_555
C4_8 C3_8 1_555 1_555
C5_8 N2_8 1_555 1_555
C6_8 N3_8 1_555 1_555
C7_8 C6_8 1_555 1_555
C8_8 C7_8 1_555 1_555
H4_8 C8_8 1_555 1_555
C9_8 C8_8 1_555 1_555
H5_8 C9_8 1_555 1_555
C10_8 N3_8 1_555 1_555
H6_8 C10_8 1_555 1_555
C11_8 C4_8 1_555 1_555
C12_8 C7_8 1_555 1_555
C13_8 N4_8 1_555 1_555
C14_8 C13_8 1_555 1_555
C15_8 C14_8 1_555 1_555
H7_8 C15_8 1_555 1_555
C16_8 C15_8 1_555 1_555
H8_8 C16_8 1_555 1_555
C17_8 C16_8 1_555 1_555
C18_8 C17_8 1_555 1_555
H9_8 C18_8 1_555 1_555
C19_8 C14_8 1_555 1_555
H10_8 C19_8 1_555 1_555
F2_8 C36_8 1_555 1_555
N6_8 C20_8 1_555 1_555
N7_8 C25_8 1_555 1_555
N8_8 Cu2_8 1_555 1_555
N9_8 C30_8 1_555 1_555
C20_8 H11_8 1_555 1_555
C21_8 C20_8 1_555 1_555
H12_8 C21_8 1_555 1_555
C22_8 C21_8 1_555 1_555
H13_8 C22_8 1_555 1_555
C23_8 C22_8 1_555 1_555
C24_8 N6_8 1_555 1_555
C25_8 C24_8 1_555 1_555
C26_8 C25_8 1_555 1_555
C27_8 C26_8 1_555 1_555
H14_8 C27_8 1_555 1_555
C28_8 C27_8 1_555 1_555
H15_8 C28_8 1_555 1_555
C29_8 N7_8 1_555 1_555
H16_8 C29_8 1_555 1_555
C30_8 C23_8 1_555 1_555
C31_8 N8_8 1_555 1_555
C32_8 N8_8 1_555 1_555
C33_8 C32_8 1_555 1_555
C34_8 C33_8 1_555 1_555
H17_8 C34_8 1_555 1_555
C35_8 C34_8 1_555 1_555
H18_8 C35_8 1_555 1_555
C36_8 C35_8 1_555 1_555
C37_8 C36_8 1_555 1_555
C38_8 C33_8 1_555 1_555
H20_8 C38_8 1_555 1_555
Cu4_8 N6_8 1_555 1_555
Cu5_12 N9_8 1_555 1_555
N10_8 Cu1_8 1_555 1_555
N11_8 Cu1_8 1_555 1_555
N12_8 Cu3_12 1_555 1_555
N5_8 C13_8 1_555 1_555
C4_8 C5_8 1_555 1_555
C5_8 C6_8 1_555 1_555
C9_8 C10_8 1_555 1_555
C11_8 C12_8 1_555 1_555
C18_8 C19_8 1_555 1_555
N7_8 Cu4_8 1_555 1_555
N9_8 C32_8 1_555 1_555
C23_8 C24_8 1_555 1_555
C26_8 C31_8 1_555 1_555
C28_8 C29_8 1_555 1_555
C30_8 C31_8 1_555 1_555
C37_8 C38_8 1_555 1_555
Cu1_9 N2_9 1_555 1_555
Cu2_9 N4_9 1_555 1_555
Cu3_13 N5_9 1_555 1_555
F1_9 C17_9 1_555 1_555
N2_9 C1_9 1_555 1_555
N3_9 Cu1_9 1_555 1_555
N4_9 C12_9 1_555 1_555
N5_9 C11_9 1_555 1_555
C1_9 H1_9 1_555 1_555
C2_9 C1_9 1_555 1_555
H2_9 C2_9 1_555 1_555
C3_9 C2_9 1_555 1_555
H3_9 C3_9 1_555 1_555
C4_9 C3_9 1_555 1_555
C5_9 N2_9 1_555 1_555
C6_9 N3_9 1_555 1_555
C7_9 C6_9 1_555 1_555
C8_9 C7_9 1_555 1_555
H4_9 C8_9 1_555 1_555
C9_9 C8_9 1_555 1_555
H5_9 C9_9 1_555 1_555
C10_9 N3_9 1_555 1_555
H6_9 C10_9 1_555 1_555
C11_9 C4_9 1_555 1_555
C12_9 C7_9 1_555 1_555
C13_9 N4_9 1_555 1_555
C14_9 C13_9 1_555 1_555
C15_9 C14_9 1_555 1_555
H7_9 C15_9 1_555 1_555
C16_9 C15_9 1_555 1_555
H8_9 C16_9 1_555 1_555
C17_9 C16_9 1_555 1_555
C18_9 C17_9 1_555 1_555
H9_9 C18_9 1_555 1_555
C19_9 C14_9 1_555 1_555
H10_9 C19_9 1_555 1_555
F2_9 C36_9 1_555 1_555
N6_9 C20_9 1_555 1_555
N7_9 C25_9 1_555 1_555
N8_9 Cu2_9 1_555 1_555
N9_9 C30_9 1_555 1_555
C20_9 H11_9 1_555 1_555
C21_9 C20_9 1_555 1_555
H12_9 C21_9 1_555 1_555
C22_9 C21_9 1_555 1_555
H13_9 C22_9 1_555 1_555
C23_9 C22_9 1_555 1_555
C24_9 N6_9 1_555 1_555
C25_9 C24_9 1_555 1_555
C26_9 C25_9 1_555 1_555
C27_9 C26_9 1_555 1_555
H14_9 C27_9 1_555 1_555
C28_9 C27_9 1_555 1_555
H15_9 C28_9 1_555 1_555
C29_9 N7_9 1_555 1_555
H16_9 C29_9 1_555 1_555
C30_9 C23_9 1_555 1_555
C31_9 N8_9 1_555 1_555
C32_9 N8_9 1_555 1_555
C33_9 C32_9 1_555 1_555
C34_9 C33_9 1_555 1_555
H17_9 C34_9 1_555 1_555
C35_9 C34_9 1_555 1_555
H18_9 C35_9 1_555 1_555
C36_9 C35_9 1_555 1_555
C37_9 C36_9 1_555 1_555
H19_9 C37_9 1_555 1_555
C38_9 C33_9 1_555 1_555
H20_9 C38_9 1_555 1_555
Cu4_9 N6_9 1_555 1_555
Cu5_13 N9_9 1_555 1_555
N10_9 Cu1_9 1_555 1_555
N11_9 Cu1_9 1_555 1_555
N12_9 Cu3_13 1_555 1_555
N5_9 C13_9 1_555 1_555
C4_9 C5_9 1_555 1_555
C5_9 C6_9 1_555 1_555
C9_9 C10_9 1_555 1_555
C11_9 C12_9 1_555 1_555
C18_9 C19_9 1_555 1_555
N7_9 Cu4_9 1_555 1_555
N9_9 C32_9 1_555 1_555
C23_9 C24_9 1_555 1_555
C26_9 C31_9 1_555 1_555
C28_9 C29_9 1_555 1_555
C30_9 C31_9 1_555 1_555
C37_9 C38_9 1_555 1_555
Cu2_10 N4_10 1_555 1_555
F1_10 C17_10 1_555 1_555
C13_10 N4_10 1_555 1_555
C14_10 C13_10 1_555 1_555
C15_10 C14_10 1_555 1_555
H7_10 C15_10 1_555 1_555
C16_10 C15_10 1_555 1_555
H8_10 C16_10 1_555 1_555
C17_10 C16_10 1_555 1_555
C18_10 C17_10 1_555 1_555
H9_10 C18_10 1_555 1_555
C19_10 C14_10 1_555 1_555
H10_10 C19_10 1_555 1_555
F2_10 C36_10 1_555 1_555
N6_10 C20_10 1_555 1_555
N7_10 C25_10 1_555 1_555
N8_10 Cu2_10 1_555 1_555
N9_10 C30_10 1_555 1_555
C20_10 H11_10 1_555 1_555
C21_10 C20_10 1_555 1_555
H12_10 C21_10 1_555 1_555
C22_10 C21_10 1_555 1_555
H13_10 C22_10 1_555 1_555
C23_10 C22_10 1_555 1_555
C24_10 N6_10 1_555 1_555
C25_10 C24_10 1_555 1_555
C26_10 C25_10 1_555 1_555
C27_10 C26_10 1_555 1_555
H14_10 C27_10 1_555 1_555
C28_10 C27_10 1_555 1_555
H15_10 C28_10 1_555 1_555
C29_10 N7_10 1_555 1_555
H16_10 C29_10 1_555 1_555
C30_10 C23_10 1_555 1_555
C31_10 N8_10 1_555 1_555
C32_10 N8_10 1_555 1_555
C33_10 C32_10 1_555 1_555
C34_10 C33_10 1_555 1_555
H17_10 C34_10 1_555 1_555
C35_10 C34_10 1_555 1_555
H18_10 C35_10 1_555 1_555
C36_10 C35_10 1_555 1_555
C37_10 C36_10 1_555 1_555
C38_10 C33_10 1_555 1_555
H20_10 C38_10 1_555 1_555
Cu4_10 N6_10 1_555 1_555
Cu5_14 N9_10 1_555 1_555
N12_10 Cu3_14 1_555 1_555
C18_10 C19_10 1_555 1_555
N7_10 Cu4_10 1_555 1_555
N9_10 C32_10 1_555 1_555
C23_10 C24_10 1_555 1_555
C26_10 C31_10 1_555 1_555
C28_10 C29_10 1_555 1_555
C30_10 C31_10 1_555 1_555
C37_10 C38_10 1_555 1_555
Cu1_10 N2_10 1_555 1_555
Cu3_15 N5_10 1_555 1_555
N2_10 C1_10 1_555 1_555
N3_10 Cu1_10 1_555 1_555
N5_10 C11_10 1_555 1_555
C1_10 H1_10 1_555 1_555
C2_10 C1_10 1_555 1_555
H2_10 C2_10 1_555 1_555
C3_10 C2_10 1_555 1_555
H3_10 C3_10 1_555 1_555
C4_10 C3_10 1_555 1_555
C5_10 N2_10 1_555 1_555
C6_10 N3_10 1_555 1_555
C7_10 C6_10 1_555 1_555
C8_10 C7_10 1_555 1_555
C9_10 C8_10 1_555 1_555
H5_10 C9_10 1_555 1_555
C10_10 N3_10 1_555 1_555
H6_10 C10_10 1_555 1_555
C11_10 C4_10 1_555 1_555
C12_10 C7_10 1_555 1_555
N10_10 Cu1_10 1_555 1_555
N11_10 Cu1_10 1_555 1_555
C4_10 C5_10 1_555 1_555
C5_10 C6_10 1_555 1_555
C9_10 C10_10 1_555 1_555
C11_10 C12_10 1_555 1_555
Cu1_11 N2_11 1_555 1_555
Cu3_16 N5_11 1_555 1_555
N2_11 C1_11 1_555 1_555
N3_11 Cu1_11 1_555 1_555
N5_11 C11_11 1_555 1_555
C1_11 H1_11 1_555 1_555
C2_11 C1_11 1_555 1_555
H2_11 C2_11 1_555 1_555
C3_11 C2_11 1_555 1_555
H3_11 C3_11 1_555 1_555
C4_11 C3_11 1_555 1_555
C5_11 N2_11 1_555 1_555
C6_11 N3_11 1_555 1_555
C7_11 C6_11 1_555 1_555
C8_11 C7_11 1_555 1_555
C9_11 C8_11 1_555 1_555
H5_11 C9_11 1_555 1_555
C10_11 N3_11 1_555 1_555
H6_11 C10_11 1_555 1_555
C11_11 C4_11 1_555 1_555
C12_11 C7_11 1_555 1_555
N10_11 Cu1_11 1_555 1_555
N11_11 Cu1_11 1_555 1_555
C4_11 C5_11 1_555 1_555
C5_11 C6_11 1_555 1_555
C9_11 C10_11 1_555 1_555
C11_11 C12_11 1_555 1_555
Cu2_11 N4_11 1_555 1_555
F1_11 C17_11 1_555 1_555
C13_11 N4_11 1_555 1_555
C14_11 C13_11 1_555 1_555
C15_11 C14_11 1_555 1_555
H7_11 C15_11 1_555 1_555
C16_11 C15_11 1_555 1_555
H8_11 C16_11 1_555 1_555
C17_11 C16_11 1_555 1_555
C18_11 C17_11 1_555 1_555
H9_11 C18_11 1_555 1_555
C19_11 C14_11 1_555 1_555
H10_11 C19_11 1_555 1_555
F2_11 C36_11 1_555 1_555
N6_11 C20_11 1_555 1_555
N7_11 C25_11 1_555 1_555
N8_11 Cu2_11 1_555 1_555
N9_11 C30_11 1_555 1_555
C20_11 H11_11 1_555 1_555
C21_11 C20_11 1_555 1_555
H12_11 C21_11 1_555 1_555
C22_11 C21_11 1_555 1_555
H13_11 C22_11 1_555 1_555
C23_11 C22_11 1_555 1_555
C24_11 N6_11 1_555 1_555
C25_11 C24_11 1_555 1_555
C26_11 C25_11 1_555 1_555
C27_11 C26_11 1_555 1_555
H14_11 C27_11 1_555 1_555
C28_11 C27_11 1_555 1_555
H15_11 C28_11 1_555 1_555
C29_11 N7_11 1_555 1_555
H16_11 C29_11 1_555 1_555
C30_11 C23_11 1_555 1_555
C31_11 N8_11 1_555 1_555
C32_11 N8_11 1_555 1_555
C33_11 C32_11 1_555 1_555
C34_11 C33_11 1_555 1_555
H17_11 C34_11 1_555 1_555
C35_11 C34_11 1_555 1_555
H18_11 C35_11 1_555 1_555
C36_11 C35_11 1_555 1_555
C37_11 C36_11 1_555 1_555
H19_11 C37_11 1_555 1_555
C38_11 C33_11 1_555 1_555
H20_11 C38_11 1_555 1_555
Cu4_11 N6_11 1_555 1_555
Cu5_16 N9_11 1_555 1_555
N12_11 Cu3_17 1_555 1_555
C18_11 C19_11 1_555 1_555
N7_11 Cu4_11 1_555 1_555
N9_11 C32_11 1_555 1_555
C23_11 C24_11 1_555 1_555
C26_11 C31_11 1_555 1_555
C28_11 C29_11 1_555 1_555
C30_11 C31_11 1_555 1_555
C37_11 C38_11 1_555 1_555
Cu1_12 N2_12 1_555 1_555
Cu2_12 N4_12 1_555 1_555
Cu3_18 N5_12 1_555 1_555
F1_12 C17_12 1_555 1_555
N2_12 C1_12 1_555 1_555
N3_12 Cu1_12 1_555 1_555
N4_12 C12_12 1_555 1_555
N5_12 C11_12 1_555 1_555
C1_12 H1_12 1_555 1_555
C2_12 C1_12 1_555 1_555
H2_12 C2_12 1_555 1_555
C3_12 C2_12 1_555 1_555
H3_12 C3_12 1_555 1_555
C4_12 C3_12 1_555 1_555
C5_12 N2_12 1_555 1_555
C6_12 N3_12 1_555 1_555
C7_12 C6_12 1_555 1_555
C8_12 C7_12 1_555 1_555
H4_12 C8_12 1_555 1_555
C9_12 C8_12 1_555 1_555
H5_12 C9_12 1_555 1_555
C10_12 N3_12 1_555 1_555
H6_12 C10_12 1_555 1_555
C11_12 C4_12 1_555 1_555
C12_12 C7_12 1_555 1_555
C13_12 N4_12 1_555 1_555
C14_12 C13_12 1_555 1_555
C15_12 C14_12 1_555 1_555
H7_12 C15_12 1_555 1_555
C16_12 C15_12 1_555 1_555
H8_12 C16_12 1_555 1_555
C17_12 C16_12 1_555 1_555
C18_12 C17_12 1_555 1_555
H9_12 C18_12 1_555 1_555
C19_12 C14_12 1_555 1_555
H10_12 C19_12 1_555 1_555
F2_12 C36_12 1_555 1_555
N6_12 C20_12 1_555 1_555
N7_12 C25_12 1_555 1_555
N8_12 Cu2_12 1_555 1_555
N9_12 C30_12 1_555 1_555
C20_12 H11_12 1_555 1_555
C21_12 C20_12 1_555 1_555
H12_12 C21_12 1_555 1_555
C22_12 C21_12 1_555 1_555
H13_12 C22_12 1_555 1_555
C23_12 C22_12 1_555 1_555
C24_12 N6_12 1_555 1_555
C25_12 C24_12 1_555 1_555
C26_12 C25_12 1_555 1_555
C27_12 C26_12 1_555 1_555
H14_12 C27_12 1_555 1_555
C28_12 C27_12 1_555 1_555
H15_12 C28_12 1_555 1_555
C29_12 N7_12 1_555 1_555
H16_12 C29_12 1_555 1_555
C30_12 C23_12 1_555 1_555
C31_12 N8_12 1_555 1_555
C32_12 N8_12 1_555 1_555
C33_12 C32_12 1_555 1_555
C34_12 C33_12 1_555 1_555
H17_12 C34_12 1_555 1_555
C35_12 C34_12 1_555 1_555
H18_12 C35_12 1_555 1_555
C36_12 C35_12 1_555 1_555
C37_12 C36_12 1_555 1_555
C38_12 C33_12 1_555 1_555
H20_12 C38_12 1_555 1_555
Cu4_12 N6_12 1_555 1_555
Cu5_18 N9_12 1_555 1_555
N10_12 Cu1_12 1_555 1_555
N11_12 Cu1_12 1_555 1_555
N12_12 Cu3_18 1_555 1_555
N5_12 C13_12 1_555 1_555
C4_12 C5_12 1_555 1_555
C5_12 C6_12 1_555 1_555
C9_12 C10_12 1_555 1_555
C11_12 C12_12 1_555 1_555
C18_12 C19_12 1_555 1_555
N7_12 Cu4_12 1_555 1_555
N9_12 C32_12 1_555 1_555
C23_12 C24_12 1_555 1_555
C26_12 C31_12 1_555 1_555
C28_12 C29_12 1_555 1_555
C30_12 C31_12 1_555 1_555
C37_12 C38_12 1_555 1_555
N10_13 Cu4_7 1_555 1_555
N11_13 Cu4_7 1_555 1_555
N12_13 Cu5_10 1_555 1_555
N10_14 Cu4_5 1_555 1_555
N11_14 Cu4_5 1_555 1_555
N12_14 Cu5_7 1_555 1_555
N12_15 Cu5_11 1_555 1_555
N10_15 Cu4_8 1_555 1_555
N11_15 Cu4_8 1_555 1_555
N10_16 Cu4_6 1_555 1_555
N11_16 Cu4_6 1_555 1_555
N12_16 Cu5_9 1_555 1_555
N10_17 Cu4_2 1_555 1_555
N11_17 Cu4_2 1_555 1_555
N12_17 Cu5_3 1_555 1_555
N12_18 Cu5_5 1_555 1_555
N10_18 Cu4_4 1_555 1_555
N11_18 Cu4_4 1_555 1_555
N10_19 Cu4 1_555 1_555
N11_19 Cu4 1_555 1_555
N12_19 Cu5 1_555 1_555
N10_20 Cu4_3 1_555 1_555
N11_20 Cu4_3 1_555 1_555
N12_20 Cu5_4 1_555 1_555
N12_21 Cu5_17 1_555 1_555
N10_21 Cu4_12 1_555 1_555
N11_21 Cu4_12 1_555 1_555
N10_22 Cu4_10 1_555 1_555
N11_22 Cu4_10 1_555 1_555
N12_22 Cu5_15 1_555 1_555
N10_23 Cu4_11 1_555 1_555
N11_23 Cu4_11 1_555 1_555
N12_23 Cu5_16 1_555 1_555
N10_24 Cu4_9 1_555 1_555
N11_24 Cu4_9 1_555 1_555
N12_24 Cu5_13 1_555 1_555
Cu2_13 N4_13 1_555 1_555
F1_13 C17_13 1_555 1_555
C13_13 N4_13 1_555 1_555
C14_13 C13_13 1_555 1_555
C15_13 C14_13 1_555 1_555
H7_13 C15_13 1_555 1_555
C16_13 C15_13 1_555 1_555
H8_13 C16_13 1_555 1_555
C17_13 C16_13 1_555 1_555
C18_13 C17_13 1_555 1_555
H9_13 C18_13 1_555 1_555
C19_13 C14_13 1_555 1_555
H10_13 C19_13 1_555 1_555
F2_13 C36_13 1_555 1_555
N10_10 C20_13 1_555 1_555
N11_10 C25_13 1_555 1_555
N8_13 Cu2_13 1_555 1_555
N12_17 C30_13 1_555 1_555
C20_13 H11_13 1_555 1_555
C21_13 C20_13 1_555 1_555
H12_13 C21_13 1_555 1_555
C22_13 C21_13 1_555 1_555
H13_13 C22_13 1_555 1_555
C23_13 C22_13 1_555 1_555
C24_13 N10_10 1_555 1_555
C25_13 C24_13 1_555 1_555
C26_13 C25_13 1_555 1_555
C27_13 C26_13 1_555 1_555
H14_13 C27_13 1_555 1_555
C28_13 C27_13 1_555 1_555
H15_13 C28_13 1_555 1_555
C29_13 N11_10 1_555 1_555
H16_13 C29_13 1_555 1_555
C30_13 C23_13 1_555 1_555
C31_13 N8_13 1_555 1_555
C32_13 N8_13 1_555 1_555
C33_13 C32_13 1_555 1_555
C34_13 C33_13 1_555 1_555
H17_13 C34_13 1_555 1_555
C35_13 C34_13 1_555 1_555
H18_13 C35_13 1_555 1_555
C36_13 C35_13 1_555 1_555
C37_13 C36_13 1_555 1_555
C38_13 C33_13 1_555 1_555
H20_13 C38_13 1_555 1_555
C18_13 C19_13 1_555 1_555
N12_17 C32_13 1_555 1_555
C23_13 C24_13 1_555 1_555
C26_13 C31_13 1_555 1_555
C28_13 C29_13 1_555 1_555
C30_13 C31_13 1_555 1_555
C37_13 C38_13 1_555 1_555
N10_13 C1_13 1_555 1_555
N12_3 C11_13 1_555 1_555
C1_13 H1_13 1_555 1_555
C2_13 C1_13 1_555 1_555
H2_13 C2_13 1_555 1_555
C3_13 C2_13 1_555 1_555
H3_13 C3_13 1_555 1_555
C4_13 C3_13 1_555 1_555
C5_13 N10_13 1_555 1_555
C6_13 N11_13 1_555 1_555
C7_13 C6_13 1_555 1_555
C8_13 C7_13 1_555 1_555
C9_13 C8_13 1_555 1_555
H5_13 C9_13 1_555 1_555
C10_13 N11_13 1_555 1_555
H6_13 C10_13 1_555 1_555
C11_13 C4_13 1_555 1_555
C12_13 C7_13 1_555 1_555
C4_13 C5_13 1_555 1_555
C5_13 C6_13 1_555 1_555
C9_13 C10_13 1_555 1_555
C11_13 C12_13 1_555 1_555
Cu2_14 N4_14 1_555 1_555
F1_14 C17_14 1_555 1_555
N10_14 C1_14 1_555 1_555
N4_14 C12_14 1_555 1_555
N12_4 C11_14 1_555 1_555
C1_14 H1_14 1_555 1_555
C2_14 C1_14 1_555 1_555
H2_14 C2_14 1_555 1_555
C3_14 C2_14 1_555 1_555
H3_14 C3_14 1_555 1_555
C4_14 C3_14 1_555 1_555
C5_14 N10_14 1_555 1_555
C6_14 N11_14 1_555 1_555
C7_14 C6_14 1_555 1_555
C8_14 C7_14 1_555 1_555
H4_14 C8_14 1_555 1_555
C9_14 C8_14 1_555 1_555
H5_14 C9_14 1_555 1_555
C10_14 N11_14 1_555 1_555
H6_14 C10_14 1_555 1_555
C11_14 C4_14 1_555 1_555
C12_14 C7_14 1_555 1_555
C13_14 N4_14 1_555 1_555
C14_14 C13_14 1_555 1_555
C15_14 C14_14 1_555 1_555
H7_14 C15_14 1_555 1_555
C16_14 C15_14 1_555 1_555
H8_14 C16_14 1_555 1_555
C17_14 C16_14 1_555 1_555
C18_14 C17_14 1_555 1_555
H9_14 C18_14 1_555 1_555
C19_14 C14_14 1_555 1_555
H10_14 C19_14 1_555 1_555
F2_14 C36_14 1_555 1_555
N10_11 C20_14 1_555 1_555
N11_11 C25_14 1_555 1_555
N8_14 Cu2_14 1_555 1_555
N12_19 C30_14 1_555 1_555
C20_14 H11_14 1_555 1_555
C21_14 C20_14 1_555 1_555
H12_14 C21_14 1_555 1_555
C22_14 C21_14 1_555 1_555
H13_14 C22_14 1_555 1_555
C23_14 C22_14 1_555 1_555
C24_14 N10_11 1_555 1_555
C25_14 C24_14 1_555 1_555
C26_14 C25_14 1_555 1_555
C27_14 C26_14 1_555 1_555
H14_14 C27_14 1_555 1_555
C28_14 C27_14 1_555 1_555
H15_14 C28_14 1_555 1_555
C29_14 N11_11 1_555 1_555
H16_14 C29_14 1_555 1_555
C30_14 C23_14 1_555 1_555
C31_14 N8_14 1_555 1_555
C32_14 N8_14 1_555 1_555
C33_14 C32_14 1_555 1_555
C34_14 C33_14 1_555 1_555
H17_14 C34_14 1_555 1_555
C35_14 C34_14 1_555 1_555
H18_14 C35_14 1_555 1_555
C36_14 C35_14 1_555 1_555
C37_14 C36_14 1_555 1_555
H19_14 C37_14 1_555 1_555
C38_14 C33_14 1_555 1_555
H20_14 C38_14 1_555 1_555
N12_4 C13_14 1_555 1_555
C4_14 C5_14 1_555 1_555
C5_14 C6_14 1_555 1_555
C9_14 C10_14 1_555 1_555
C11_14 C12_14 1_555 1_555
C18_14 C19_14 1_555 1_555
N12_19 C32_14 1_555 1_555
C23_14 C24_14 1_555 1_555
C26_14 C31_14 1_555 1_555
C28_14 C29_14 1_555 1_555
C30_14 C31_14 1_555 1_555
C37_14 C38_14 1_555 1_555
Cu2_15 N4_15 1_555 1_555
F1_15 C17_15 1_555 1_555
N10_16 C1_15 1_555 1_555
N4_15 C12_15 1_555 1_555
N12 C11_15 1_555 1_555
C1_15 H1_15 1_555 1_555
C2_15 C1_15 1_555 1_555
H2_15 C2_15 1_555 1_555
C3_15 C2_15 1_555 1_555
H3_15 C3_15 1_555 1_555
C4_15 C3_15 1_555 1_555
C5_15 N10_16 1_555 1_555
C6_15 N11_16 1_555 1_555
C7_15 C6_15 1_555 1_555
C8_15 C7_15 1_555 1_555
H4_15 C8_15 1_555 1_555
C9_15 C8_15 1_555 1_555
H5_15 C9_15 1_555 1_555
C10_15 N11_16 1_555 1_555
H6_15 C10_15 1_555 1_555
C11_15 C4_15 1_555 1_555
C12_15 C7_15 1_555 1_555
C13_15 N4_15 1_555 1_555
C14_15 C13_15 1_555 1_555
C15_15 C14_15 1_555 1_555
H7_15 C15_15 1_555 1_555
C16_15 C15_15 1_555 1_555
H8_15 C16_15 1_555 1_555
C17_15 C16_15 1_555 1_555
C18_15 C17_15 1_555 1_555
H9_15 C18_15 1_555 1_555
C19_15 C14_15 1_555 1_555
H10_15 C19_15 1_555 1_555
F2_15 C36_15 1_555 1_555
N10_9 C20_15 1_555 1_555
N11_9 C25_15 1_555 1_555
N8_15 Cu2_15 1_555 1_555
N12_18 C30_15 1_555 1_555
C20_15 H11_15 1_555 1_555
C21_15 C20_15 1_555 1_555
H12_15 C21_15 1_555 1_555
C22_15 C21_15 1_555 1_555
H13_15 C22_15 1_555 1_555
C23_15 C22_15 1_555 1_555
C24_15 N10_9 1_555 1_555
C25_15 C24_15 1_555 1_555
C26_15 C25_15 1_555 1_555
C27_15 C26_15 1_555 1_555
H14_15 C27_15 1_555 1_555
C28_15 C27_15 1_555 1_555
H15_15 C28_15 1_555 1_555
C29_15 N11_9 1_555 1_555
H16_15 C29_15 1_555 1_555
C30_15 C23_15 1_555 1_555
C31_15 N8_15 1_555 1_555
C32_15 N8_15 1_555 1_555
C33_15 C32_15 1_555 1_555
C34_15 C33_15 1_555 1_555
H17_15 C34_15 1_555 1_555
C35_15 C34_15 1_555 1_555
H18_15 C35_15 1_555 1_555
C36_15 C35_15 1_555 1_555
C37_15 C36_15 1_555 1_555
C38_15 C33_15 1_555 1_555
H20_15 C38_15 1_555 1_555
N12 C13_15 1_555 1_555
C4_15 C5_15 1_555 1_555
C5_15 C6_15 1_555 1_555
C9_15 C10_15 1_555 1_555
C11_15 C12_15 1_555 1_555
C18_15 C19_15 1_555 1_555
N12_18 C32_15 1_555 1_555
C23_15 C24_15 1_555 1_555
C26_15 C31_15 1_555 1_555
C28_15 C29_15 1_555 1_555
C30_15 C31_15 1_555 1_555
C37_15 C38_15 1_555 1_555
N10_15 C1_16 1_555 1_555
N12_2 C11_16 1_555 1_555
C1_16 H1_16 1_555 1_555
C2_16 C1_16 1_555 1_555
H2_16 C2_16 1_555 1_555
C3_16 C2_16 1_555 1_555
H3_16 C3_16 1_555 1_555
C4_16 C3_16 1_555 1_555
C5_16 N10_15 1_555 1_555
C6_16 N11_15 1_555 1_555
C7_16 C6_16 1_555 1_555
C8_16 C7_16 1_555 1_555
C9_16 C8_16 1_555 1_555
H5_16 C9_16 1_555 1_555
C10_16 N11_15 1_555 1_555
H6_16 C10_16 1_555 1_555
C11_16 C4_16 1_555 1_555
C12_16 C7_16 1_555 1_555
C4_16 C5_16 1_555 1_555
C5_16 C6_16 1_555 1_555
C9_16 C10_16 1_555 1_555
C11_16 C12_16 1_555 1_555
Cu2_16 N4_16 1_555 1_555
F1_16 C17_16 1_555 1_555
C13_16 N4_16 1_555 1_555
C14_16 C13_16 1_555 1_555
C15_16 C14_16 1_555 1_555
H7_16 C15_16 1_555 1_555
C16_16 C15_16 1_555 1_555
H8_16 C16_16 1_555 1_555
C17_16 C16_16 1_555 1_555
C18_16 C17_16 1_555 1_555
H9_16 C18_16 1_555 1_555
C19_16 C14_16 1_555 1_555
H10_16 C19_16 1_555 1_555
F2_16 C36_16 1_555 1_555
N10_12 C20_16 1_555 1_555
N11_12 C25_16 1_555 1_555
N8_16 Cu2_16 1_555 1_555
N12_20 C30_16 1_555 1_555
C20_16 H11_16 1_555 1_555
C21_16 C20_16 1_555 1_555
H12_16 C21_16 1_555 1_555
C22_16 C21_16 1_555 1_555
H13_16 C22_16 1_555 1_555
C23_16 C22_16 1_555 1_555
C24_16 N10_12 1_555 1_555
C25_16 C24_16 1_555 1_555
C26_16 C25_16 1_555 1_555
C27_16 C26_16 1_555 1_555
H14_16 C27_16 1_555 1_555
C28_16 C27_16 1_555 1_555
H15_16 C28_16 1_555 1_555
C29_16 N11_12 1_555 1_555
H16_16 C29_16 1_555 1_555
C30_16 C23_16 1_555 1_555
C31_16 N8_16 1_555 1_555
C32_16 N8_16 1_555 1_555
C33_16 C32_16 1_555 1_555
C34_16 C33_16 1_555 1_555
H17_16 C34_16 1_555 1_555
C35_16 C34_16 1_555 1_555
H18_16 C35_16 1_555 1_555
C36_16 C35_16 1_555 1_555
C37_16 C36_16 1_555 1_555
H19_16 C37_16 1_555 1_555
C38_16 C33_16 1_555 1_555
H20_16 C38_16 1_555 1_555
C18_16 C19_16 1_555 1_555
N12_20 C32_16 1_555 1_555
C23_16 C24_16 1_555 1_555
C26_16 C31_16 1_555 1_555
C28_16 C29_16 1_555 1_555
C30_16 C31_16 1_555 1_555
C37_16 C38_16 1_555 1_555
Cu2_17 N4_17 1_555 1_555
F1_17 C17_17 1_555 1_555
C13_17 N4_17 1_555 1_555
C14_17 C13_17 1_555 1_555
C15_17 C14_17 1_555 1_555
H7_17 C15_17 1_555 1_555
C16_17 C15_17 1_555 1_555
H8_17 C16_17 1_555 1_555
C17_17 C16_17 1_555 1_555
C18_17 C17_17 1_555 1_555
H9_17 C18_17 1_555 1_555
C19_17 C14_17 1_555 1_555
H10_17 C19_17 1_555 1_555
F2_17 C36_17 1_555 1_555
N10_2 C20_17 1_555 1_555
N11_2 C25_17 1_555 1_555
N8_17 Cu2_17 1_555 1_555
N12_16 C30_17 1_555 1_555
C20_17 H11_17 1_555 1_555
C21_17 C20_17 1_555 1_555
H12_17 C21_17 1_555 1_555
C22_17 C21_17 1_555 1_555
H13_17 C22_17 1_555 1_555
C23_17 C22_17 1_555 1_555
C24_17 N10_2 1_555 1_555
C25_17 C24_17 1_555 1_555
C26_17 C25_17 1_555 1_555
C27_17 C26_17 1_555 1_555
H14_17 C27_17 1_555 1_555
C28_17 C27_17 1_555 1_555
H15_17 C28_17 1_555 1_555
C29_17 N11_2 1_555 1_555
H16_17 C29_17 1_555 1_555
C30_17 C23_17 1_555 1_555
C31_17 N8_17 1_555 1_555
C32_17 N8_17 1_555 1_555
C33_17 C32_17 1_555 1_555
C34_17 C33_17 1_555 1_555
H17_17 C34_17 1_555 1_555
C35_17 C34_17 1_555 1_555
H18_17 C35_17 1_555 1_555
C36_17 C35_17 1_555 1_555
C37_17 C36_17 1_555 1_555
C38_17 C33_17 1_555 1_555
H20_17 C38_17 1_555 1_555
C18_17 C19_17 1_555 1_555
N12_16 C32_17 1_555 1_555
C23_17 C24_17 1_555 1_555
C26_17 C31_17 1_555 1_555
C28_17 C29_17 1_555 1_555
C30_17 C31_17 1_555 1_555
C37_17 C38_17 1_555 1_555
N10_23 C1_17 1_555 1_555
N12_7 C11_17 1_555 1_555
C1_17 H1_17 1_555 1_555
C2_17 C1_17 1_555 1_555
H2_17 C2_17 1_555 1_555
C3_17 C2_17 1_555 1_555
H3_17 C3_17 1_555 1_555
C4_17 C3_17 1_555 1_555
C5_17 N10_23 1_555 1_555
C6_17 N11_23 1_555 1_555
C7_17 C6_17 1_555 1_555
C8_17 C7_17 1_555 1_555
C9_17 C8_17 1_555 1_555
H5_17 C9_17 1_555 1_555
C10_17 N11_23 1_555 1_555
H6_17 C10_17 1_555 1_555
C11_17 C4_17 1_555 1_555
C12_17 C7_17 1_555 1_555
C4_17 C5_17 1_555 1_555
C5_17 C6_17 1_555 1_555
C9_17 C10_17 1_555 1_555
C11_17 C12_17 1_555 1_555
Cu2_18 N4_18 1_555 1_555
F1_18 C17_18 1_555 1_555
N10_24 C1_18 1_555 1_555
N4_18 C12_18 1_555 1_555
N12_8 C11_18 1_555 1_555
C1_18 H1_18 1_555 1_555
C2_18 C1_18 1_555 1_555
H2_18 C2_18 1_555 1_555
C3_18 C2_18 1_555 1_555
H3_18 C3_18 1_555 1_555
C4_18 C3_18 1_555 1_555
C5_18 N10_24 1_555 1_555
C6_18 N11_24 1_555 1_555
C7_18 C6_18 1_555 1_555
C8_18 C7_18 1_555 1_555
H4_18 C8_18 1_555 1_555
C9_18 C8_18 1_555 1_555
H5_18 C9_18 1_555 1_555
C10_18 N11_24 1_555 1_555
H6_18 C10_18 1_555 1_555
C11_18 C4_18 1_555 1_555
C12_18 C7_18 1_555 1_555
C13_18 N4_18 1_555 1_555
C14_18 C13_18 1_555 1_555
C15_18 C14_18 1_555 1_555
H7_18 C15_18 1_555 1_555
C16_18 C15_18 1_555 1_555
H8_18 C16_18 1_555 1_555
C17_18 C16_18 1_555 1_555
C18_18 C17_18 1_555 1_555
H9_18 C18_18 1_555 1_555
C19_18 C14_18 1_555 1_555
H10_18 C19_18 1_555 1_555
F2_18 C36_18 1_555 1_555
N10_3 C20_18 1_555 1_555
N11_3 C25_18 1_555 1_555
N8_18 Cu2_18 1_555 1_555
N12_14 C30_18 1_555 1_555
C20_18 H11_18 1_555 1_555
C21_18 C20_18 1_555 1_555
H12_18 C21_18 1_555 1_555
C22_18 C21_18 1_555 1_555
H13_18 C22_18 1_555 1_555
C23_18 C22_18 1_555 1_555
C24_18 N10_3 1_555 1_555
C25_18 C24_18 1_555 1_555
C26_18 C25_18 1_555 1_555
C27_18 C26_18 1_555 1_555
H14_18 C27_18 1_555 1_555
C28_18 C27_18 1_555 1_555
H15_18 C28_18 1_555 1_555
C29_18 N11_3 1_555 1_555
H16_18 C29_18 1_555 1_555
C30_18 C23_18 1_555 1_555
C31_18 N8_18 1_555 1_555
C32_18 N8_18 1_555 1_555
C33_18 C32_18 1_555 1_555
C34_18 C33_18 1_555 1_555
H17_18 C34_18 1_555 1_555
C35_18 C34_18 1_555 1_555
H18_18 C35_18 1_555 1_555
C36_18 C35_18 1_555 1_555
C37_18 C36_18 1_555 1_555
H19_18 C37_18 1_555 1_555
C38_18 C33_18 1_555 1_555
H20_18 C38_18 1_555 1_555
N12_8 C13_18 1_555 1_555
C4_18 C5_18 1_555 1_555
C5_18 C6_18 1_555 1_555
C9_18 C10_18 1_555 1_555
C11_18 C12_18 1_555 1_555
C18_18 C19_18 1_555 1_555
N12_14 C32_18 1_555 1_555
C23_18 C24_18 1_555 1_555
C26_18 C31_18 1_555 1_555
C28_18 C29_18 1_555 1_555
C30_18 C31_18 1_555 1_555
C37_18 C38_18 1_555 1_555
Cu2_19 N4_19 1_555 1_555
F1_19 C17_19 1_555 1_555
N10_22 C1_19 1_555 1_555
N4_19 C12_19 1_555 1_555
N12_5 C11_19 1_555 1_555
C1_19 H1_19 1_555 1_555
C2_19 C1_19 1_555 1_555
H2_19 C2_19 1_555 1_555
C3_19 C2_19 1_555 1_555
H3_19 C3_19 1_555 1_555
C4_19 C3_19 1_555 1_555
C5_19 N10_22 1_555 1_555
C6_19 N11_22 1_555 1_555
C7_19 C6_19 1_555 1_555
C8_19 C7_19 1_555 1_555
H4_19 C8_19 1_555 1_555
C9_19 C8_19 1_555 1_555
H5_19 C9_19 1_555 1_555
C10_19 N11_22 1_555 1_555
H6_19 C10_19 1_555 1_555
C11_19 C4_19 1_555 1_555
C12_19 C7_19 1_555 1_555
C13_19 N4_19 1_555 1_555
C14_19 C13_19 1_555 1_555
C15_19 C14_19 1_555 1_555
H7_19 C15_19 1_555 1_555
C16_19 C15_19 1_555 1_555
H8_19 C16_19 1_555 1_555
C17_19 C16_19 1_555 1_555
C18_19 C17_19 1_555 1_555
H9_19 C18_19 1_555 1_555
C19_19 C14_19 1_555 1_555
H10_19 C19_19 1_555 1_555
F2_19 C36_19 1_555 1_555
N10 C20_19 1_555 1_555
N11 C25_19 1_555 1_555
N8_19 Cu2_19 1_555 1_555
N12_15 C30_19 1_555 1_555
C20_19 H11_19 1_555 1_555
C21_19 C20_19 1_555 1_555
H12_19 C21_19 1_555 1_555
C22_19 C21_19 1_555 1_555
H13_19 C22_19 1_555 1_555
C23_19 C22_19 1_555 1_555
C24_19 N10 1_555 1_555
C25_19 C24_19 1_555 1_555
C26_19 C25_19 1_555 1_555
C27_19 C26_19 1_555 1_555
H14_19 C27_19 1_555 1_555
C28_19 C27_19 1_555 1_555
H15_19 C28_19 1_555 1_555
C29_19 N11 1_555 1_555
H16_19 C29_19 1_555 1_555
C30_19 C23_19 1_555 1_555
C31_19 N8_19 1_555 1_555
C32_19 N8_19 1_555 1_555
C33_19 C32_19 1_555 1_555
C34_19 C33_19 1_555 1_555
H17_19 C34_19 1_555 1_555
C35_19 C34_19 1_555 1_555
H18_19 C35_19 1_555 1_555
C36_19 C35_19 1_555 1_555
C37_19 C36_19 1_555 1_555
C38_19 C33_19 1_555 1_555
H20_19 C38_19 1_555 1_555
N12_5 C13_19 1_555 1_555
C4_19 C5_19 1_555 1_555
C5_19 C6_19 1_555 1_555
C9_19 C10_19 1_555 1_555
C11_19 C12_19 1_555 1_555
C18_19 C19_19 1_555 1_555
N12_15 C32_19 1_555 1_555
C23_19 C24_19 1_555 1_555
C26_19 C31_19 1_555 1_555
C28_19 C29_19 1_555 1_555
C30_19 C31_19 1_555 1_555
C37_19 C38_19 1_555 1_555
N10_21 C1_20 1_555 1_555
N12_6 C11_20 1_555 1_555
C1_20 H1_20 1_555 1_555
C2_20 C1_20 1_555 1_555
H2_20 C2_20 1_555 1_555
C3_20 C2_20 1_555 1_555
H3_20 C3_20 1_555 1_555
C4_20 C3_20 1_555 1_555
C5_20 N10_21 1_555 1_555
C6_20 N11_21 1_555 1_555
C7_20 C6_20 1_555 1_555
C8_20 C7_20 1_555 1_555
C9_20 C8_20 1_555 1_555
H5_20 C9_20 1_555 1_555
C10_20 N11_21 1_555 1_555
H6_20 C10_20 1_555 1_555
C11_20 C4_20 1_555 1_555
C12_20 C7_20 1_555 1_555
C4_20 C5_20 1_555 1_555
C5_20 C6_20 1_555 1_555
C9_20 C10_20 1_555 1_555
C11_20 C12_20 1_555 1_555
Cu2_20 N4_20 1_555 1_555
F1_20 C17_20 1_555 1_555
C13_20 N4_20 1_555 1_555
C14_20 C13_20 1_555 1_555
C15_20 C14_20 1_555 1_555
H7_20 C15_20 1_555 1_555
C16_20 C15_20 1_555 1_555
H8_20 C16_20 1_555 1_555
C17_20 C16_20 1_555 1_555
C18_20 C17_20 1_555 1_555
H9_20 C18_20 1_555 1_555
C19_20 C14_20 1_555 1_555
H10_20 C19_20 1_555 1_555
F2_20 C36_20 1_555 1_555
N10_4 C20_20 1_555 1_555
N11_4 C25_20 1_555 1_555
N8_20 Cu2_20 1_555 1_555
N12_13 C30_20 1_555 1_555
C20_20 H11_20 1_555 1_555
C21_20 C20_20 1_555 1_555
H12_20 C21_20 1_555 1_555
C22_20 C21_20 1_555 1_555
H13_20 C22_20 1_555 1_555
C23_20 C22_20 1_555 1_555
C24_20 N10_4 1_555 1_555
C25_20 C24_20 1_555 1_555
C26_20 C25_20 1_555 1_555
C27_20 C26_20 1_555 1_555
H14_20 C27_20 1_555 1_555
C28_20 C27_20 1_555 1_555
H15_20 C28_20 1_555 1_555
C29_20 N11_4 1_555 1_555
H16_20 C29_20 1_555 1_555
C30_20 C23_20 1_555 1_555
C31_20 N8_20 1_555 1_555
C32_20 N8_20 1_555 1_555
C33_20 C32_20 1_555 1_555
C34_20 C33_20 1_555 1_555
H17_20 C34_20 1_555 1_555
C35_20 C34_20 1_555 1_555
H18_20 C35_20 1_555 1_555
C36_20 C35_20 1_555 1_555
C37_20 C36_20 1_555 1_555
H19_20 C37_20 1_555 1_555
C38_20 C33_20 1_555 1_555
H20_20 C38_20 1_555 1_555
C18_20 C19_20 1_555 1_555
N12_13 C32_20 1_555 1_555
C23_20 C24_20 1_555 1_555
C26_20 C31_20 1_555 1_555
C28_20 C29_20 1_555 1_555
C30_20 C31_20 1_555 1_555
C37_20 C38_20 1_555 1_555
Cu2_21 N4_21 1_555 1_555
F1_21 C17_21 1_555 1_555
C13_21 N4_21 1_555 1_555
C14_21 C13_21 1_555 1_555
C15_21 C14_21 1_555 1_555
H7_21 C15_21 1_555 1_555
C16_21 C15_21 1_555 1_555
H8_21 C16_21 1_555 1_555
C17_21 C16_21 1_555 1_555
C18_21 C17_21 1_555 1_555
H9_21 C18_21 1_555 1_555
C19_21 C14_21 1_555 1_555
H10_21 C19_21 1_555 1_555
F2_21 C36_21 1_555 1_555
N10_6 C20_21 1_555 1_555
N11_6 C25_21 1_555 1_555
N8_21 Cu2_21 1_555 1_555
N12_22 C30_21 1_555 1_555
C20_21 H11_21 1_555 1_555
C21_21 C20_21 1_555 1_555
H12_21 C21_21 1_555 1_555
C22_21 C21_21 1_555 1_555
H13_21 C22_21 1_555 1_555
C23_21 C22_21 1_555 1_555
C24_21 N10_6 1_555 1_555
C25_21 C24_21 1_555 1_555
C26_21 C25_21 1_555 1_555
C27_21 C26_21 1_555 1_555
H14_21 C27_21 1_555 1_555
C28_21 C27_21 1_555 1_555
H15_21 C28_21 1_555 1_555
C29_21 N11_6 1_555 1_555
H16_21 C29_21 1_555 1_555
C30_21 C23_21 1_555 1_555
C31_21 N8_21 1_555 1_555
C32_21 N8_21 1_555 1_555
C33_21 C32_21 1_555 1_555
C34_21 C33_21 1_555 1_555
H17_21 C34_21 1_555 1_555
C35_21 C34_21 1_555 1_555
H18_21 C35_21 1_555 1_555
C36_21 C35_21 1_555 1_555
C37_21 C36_21 1_555 1_555
C38_21 C33_21 1_555 1_555
H20_21 C38_21 1_555 1_555
C18_21 C19_21 1_555 1_555
N12_22 C32_21 1_555 1_555
C23_21 C24_21 1_555 1_555
C26_21 C31_21 1_555 1_555
C28_21 C29_21 1_555 1_555
C30_21 C31_21 1_555 1_555
C37_21 C38_21 1_555 1_555
N10_20 C1_21 1_555 1_555
N12_11 C11_21 1_555 1_555
C1_21 H1_21 1_555 1_555
C2_21 C1_21 1_555 1_555
H2_21 C2_21 1_555 1_555
C3_21 C2_21 1_555 1_555
H3_21 C3_21 1_555 1_555
C4_21 C3_21 1_555 1_555
C5_21 N10_20 1_555 1_555
C6_21 N11_20 1_555 1_555
C7_21 C6_21 1_555 1_555
C8_21 C7_21 1_555 1_555
C9_21 C8_21 1_555 1_555
H5_21 C9_21 1_555 1_555
C10_21 N11_20 1_555 1_555
H6_21 C10_21 1_555 1_555
C11_21 C4_21 1_555 1_555
C12_21 C7_21 1_555 1_555
C4_21 C5_21 1_555 1_555
C5_21 C6_21 1_555 1_555
C9_21 C10_21 1_555 1_555
C11_21 C12_21 1_555 1_555
Cu2_22 N4_22 1_555 1_555
F1_22 C17_22 1_555 1_555
N10_19 C1_22 1_555 1_555
N4_22 C12_22 1_555 1_555
N12_12 C11_22 1_555 1_555
C1_22 H1_22 1_555 1_555
C2_22 C1_22 1_555 1_555
H2_22 C2_22 1_555 1_555
C3_22 C2_22 1_555 1_555
H3_22 C3_22 1_555 1_555
C4_22 C3_22 1_555 1_555
C5_22 N10_19 1_555 1_555
C6_22 N11_19 1_555 1_555
C7_22 C6_22 1_555 1_555
C8_22 C7_22 1_555 1_555
H4_22 C8_22 1_555 1_555
C9_22 C8_22 1_555 1_555
H5_22 C9_22 1_555 1_555
C10_22 N11_19 1_555 1_555
H6_22 C10_22 1_555 1_555
C11_22 C4_22 1_555 1_555
C12_22 C7_22 1_555 1_555
C13_22 N4_22 1_555 1_555
C14_22 C13_22 1_555 1_555
C15_22 C14_22 1_555 1_555
H7_22 C15_22 1_555 1_555
C16_22 C15_22 1_555 1_555
H8_22 C16_22 1_555 1_555
C17_22 C16_22 1_555 1_555
C18_22 C17_22 1_555 1_555
H9_22 C18_22 1_555 1_555
C19_22 C14_22 1_555 1_555
H10_22 C19_22 1_555 1_555
F2_22 C36_22 1_555 1_555
N10_7 C20_22 1_555 1_555
N11_7 C25_22 1_555 1_555
N8_22 Cu2_22 1_555 1_555
N12_24 C30_22 1_555 1_555
C20_22 H11_22 1_555 1_555
C21_22 C20_22 1_555 1_555
H12_22 C21_22 1_555 1_555
C22_22 C21_22 1_555 1_555
H13_22 C22_22 1_555 1_555
C23_22 C22_22 1_555 1_555
C24_22 N10_7 1_555 1_555
C25_22 C24_22 1_555 1_555
C26_22 C25_22 1_555 1_555
C27_22 C26_22 1_555 1_555
H14_22 C27_22 1_555 1_555
C28_22 C27_22 1_555 1_555
H15_22 C28_22 1_555 1_555
C29_22 N11_7 1_555 1_555
H16_22 C29_22 1_555 1_555
C30_22 C23_22 1_555 1_555
C31_22 N8_22 1_555 1_555
C32_22 N8_22 1_555 1_555
C33_22 C32_22 1_555 1_555
C34_22 C33_22 1_555 1_555
H17_22 C34_22 1_555 1_555
C35_22 C34_22 1_555 1_555
H18_22 C35_22 1_555 1_555
C36_22 C35_22 1_555 1_555
C37_22 C36_22 1_555 1_555
H19_22 C37_22 1_555 1_555
C38_22 C33_22 1_555 1_555
H20_22 C38_22 1_555 1_555
N12_12 C13_22 1_555 1_555
C4_22 C5_22 1_555 1_555
C5_22 C6_22 1_555 1_555
C9_22 C10_22 1_555 1_555
C11_22 C12_22 1_555 1_555
C18_22 C19_22 1_555 1_555
N12_24 C32_22 1_555 1_555
C23_22 C24_22 1_555 1_555
C26_22 C31_22 1_555 1_555
C28_22 C29_22 1_555 1_555
C30_22 C31_22 1_555 1_555
C37_22 C38_22 1_555 1_555
Cu2_23 N4_23 1_555 1_555
F1_23 C17_23 1_555 1_555
N10_17 C1_23 1_555 1_555
N4_23 C12_23 1_555 1_555
N12_9 C11_23 1_555 1_555
C1_23 H1_23 1_555 1_555
C2_23 C1_23 1_555 1_555
H2_23 C2_23 1_555 1_555
C3_23 C2_23 1_555 1_555
H3_23 C3_23 1_555 1_555
C4_23 C3_23 1_555 1_555
C5_23 N10_17 1_555 1_555
C6_23 N11_17 1_555 1_555
C7_23 C6_23 1_555 1_555
C8_23 C7_23 1_555 1_555
H4_23 C8_23 1_555 1_555
C9_23 C8_23 1_555 1_555
H5_23 C9_23 1_555 1_555
C10_23 N11_17 1_555 1_555
H6_23 C10_23 1_555 1_555
C11_23 C4_23 1_555 1_555
C12_23 C7_23 1_555 1_555
C13_23 N4_23 1_555 1_555
C14_23 C13_23 1_555 1_555
C15_23 C14_23 1_555 1_555
H7_23 C15_23 1_555 1_555
C16_23 C15_23 1_555 1_555
H8_23 C16_23 1_555 1_555
C17_23 C16_23 1_555 1_555
C18_23 C17_23 1_555 1_555
H9_23 C18_23 1_555 1_555
C19_23 C14_23 1_555 1_555
H10_23 C19_23 1_555 1_555
F2_23 C36_23 1_555 1_555
N10_5 C20_23 1_555 1_555
N11_5 C25_23 1_555 1_555
N8_23 Cu2_23 1_555 1_555
N12_21 C30_23 1_555 1_555
C20_23 H11_23 1_555 1_555
C21_23 C20_23 1_555 1_555
H12_23 C21_23 1_555 1_555
C22_23 C21_23 1_555 1_555
H13_23 C22_23 1_555 1_555
C23_23 C22_23 1_555 1_555
C24_23 N10_5 1_555 1_555
C25_23 C24_23 1_555 1_555
C26_23 C25_23 1_555 1_555
C27_23 C26_23 1_555 1_555
H14_23 C27_23 1_555 1_555
C28_23 C27_23 1_555 1_555
H15_23 C28_23 1_555 1_555
C29_23 N11_5 1_555 1_555
H16_23 C29_23 1_555 1_555
C30_23 C23_23 1_555 1_555
C31_23 N8_23 1_555 1_555
C32_23 N8_23 1_555 1_555
C33_23 C32_23 1_555 1_555
C34_23 C33_23 1_555 1_555
H17_23 C34_23 1_555 1_555
C35_23 C34_23 1_555 1_555
H18_23 C35_23 1_555 1_555
C36_23 C35_23 1_555 1_555
C37_23 C36_23 1_555 1_555
C38_23 C33_23 1_555 1_555
H20_23 C38_23 1_555 1_555
N12_9 C13_23 1_555 1_555
C4_23 C5_23 1_555 1_555
C5_23 C6_23 1_555 1_555
C9_23 C10_23 1_555 1_555
C11_23 C12_23 1_555 1_555
C18_23 C19_23 1_555 1_555
N12_21 C32_23 1_555 1_555
C23_23 C24_23 1_555 1_555
C26_23 C31_23 1_555 1_555
C28_23 C29_23 1_555 1_555
C30_23 C31_23 1_555 1_555
C37_23 C38_23 1_555 1_555
N10_18 C1_24 1_555 1_555
N12_10 C11_24 1_555 1_555
C1_24 H1_24 1_555 1_555
C2_24 C1_24 1_555 1_555
H2_24 C2_24 1_555 1_555
C3_24 C2_24 1_555 1_555
H3_24 C3_24 1_555 1_555
C4_24 C3_24 1_555 1_555
C5_24 N10_18 1_555 1_555
C6_24 N11_18 1_555 1_555
C7_24 C6_24 1_555 1_555
C8_24 C7_24 1_555 1_555
C9_24 C8_24 1_555 1_555
H5_24 C9_24 1_555 1_555
C10_24 N11_18 1_555 1_555
H6_24 C10_24 1_555 1_555
C11_24 C4_24 1_555 1_555
C12_24 C7_24 1_555 1_555
C4_24 C5_24 1_555 1_555
C5_24 C6_24 1_555 1_555
C9_24 C10_24 1_555 1_555
C11_24 C12_24 1_555 1_555
Cu2_24 N4_24 1_555 1_555
F1_24 C17_24 1_555 1_555
C13_24 N4_24 1_555 1_555
C14_24 C13_24 1_555 1_555
C15_24 C14_24 1_555 1_555
H7_24 C15_24 1_555 1_555
C16_24 C15_24 1_555 1_555
H8_24 C16_24 1_555 1_555
C17_24 C16_24 1_555 1_555
C18_24 C17_24 1_555 1_555
H9_24 C18_24 1_555 1_555
C19_24 C14_24 1_555 1_555
H10_24 C19_24 1_555 1_555
F2_24 C36_24 1_555 1_555
N10_8 C20_24 1_555 1_555
N11_8 C25_24 1_555 1_555
N8_24 Cu2_24 1_555 1_555
N12_23 C30_24 1_555 1_555
C20_24 H11_24 1_555 1_555
C21_24 C20_24 1_555 1_555
H12_24 C21_24 1_555 1_555
C22_24 C21_24 1_555 1_555
H13_24 C22_24 1_555 1_555
C23_24 C22_24 1_555 1_555
C24_24 N10_8 1_555 1_555
C25_24 C24_24 1_555 1_555
C26_24 C25_24 1_555 1_555
C27_24 C26_24 1_555 1_555
H14_24 C27_24 1_555 1_555
C28_24 C27_24 1_555 1_555
H15_24 C28_24 1_555 1_555
C29_24 N11_8 1_555 1_555
H16_24 C29_24 1_555 1_555
C30_24 C23_24 1_555 1_555
C31_24 N8_24 1_555 1_555
C32_24 N8_24 1_555 1_555
C33_24 C32_24 1_555 1_555
C34_24 C33_24 1_555 1_555
H17_24 C34_24 1_555 1_555
C35_24 C34_24 1_555 1_555
H18_24 C35_24 1_555 1_555
C36_24 C35_24 1_555 1_555
C37_24 C36_24 1_555 1_555
H19_24 C37_24 1_555 1_555
C38_24 C33_24 1_555 1_555
H20_24 C38_24 1_555 1_555
C18_24 C19_24 1_555 1_555
N12_23 C32_24 1_555 1_555
C23_24 C24_24 1_555 1_555
C26_24 C31_24 1_555 1_555
C28_24 C29_24 1_555 1_555
C30_24 C31_24 1_555 1_555
C37_24 C38_24 1_555 1_555
Cu1_13 N2_13 1_555 1_555
Cu2_25 N4_25 1_555 1_555
Cu3_19 N5_13 1_555 1_555
F1_25 C17_25 1_555 1_555
N2_13 C1_25 1_555 1_555
N3_13 Cu1_13 1_555 1_555
N4_25 C12_25 1_555 1_555
N5_13 C11_25 1_555 1_555
C1_25 H1_25 1_555 1_555
C2_25 C1_25 1_555 1_555
H2_25 C2_25 1_555 1_555
C3_25 C2_25 1_555 1_555
H3_25 C3_25 1_555 1_555
C4_25 C3_25 1_555 1_555
C5_25 N2_13 1_555 1_555
C6_25 N3_13 1_555 1_555
C7_25 C6_25 1_555 1_555
C8_25 C7_25 1_555 1_555
H4_25 C8_25 1_555 1_555
C9_25 C8_25 1_555 1_555
H5_25 C9_25 1_555 1_555
C10_25 N3_13 1_555 1_555
H6_25 C10_25 1_555 1_555
C11_25 C4_25 1_555 1_555
C12_25 C7_25 1_555 1_555
C13_25 N4_25 1_555 1_555
C14_25 C13_25 1_555 1_555
C15_25 C14_25 1_555 1_555
H7_25 C15_25 1_555 1_555
C16_25 C15_25 1_555 1_555
H8_25 C16_25 1_555 1_555
C17_25 C16_25 1_555 1_555
C18_25 C17_25 1_555 1_555
H9_25 C18_25 1_555 1_555
C19_25 C14_25 1_555 1_555
H10_25 C19_25 1_555 1_555
F2_25 C36_25 1_555 1_555
N6_13 C20_25 1_555 1_555
N7_13 C25_25 1_555 1_555
N8_25 Cu2_25 1_555 1_555
N9_13 C30_25 1_555 1_555
C20_25 H11_25 1_555 1_555
C21_25 C20_25 1_555 1_555
H12_25 C21_25 1_555 1_555
C22_25 C21_25 1_555 1_555
H13_25 C22_25 1_555 1_555
C23_25 C22_25 1_555 1_555
C24_25 N6_13 1_555 1_555
C25_25 C24_25 1_555 1_555
C26_25 C25_25 1_555 1_555
C27_25 C26_25 1_555 1_555
H14_25 C27_25 1_555 1_555
C28_25 C27_25 1_555 1_555
H15_25 C28_25 1_555 1_555
C29_25 N7_13 1_555 1_555
H16_25 C29_25 1_555 1_555
C30_25 C23_25 1_555 1_555
C31_25 N8_25 1_555 1_555
C32_25 N8_25 1_555 1_555
C33_25 C32_25 1_555 1_555
C34_25 C33_25 1_555 1_555
H17_25 C34_25 1_555 1_555
C35_25 C34_25 1_555 1_555
H18_25 C35_25 1_555 1_555
C36_25 C35_25 1_555 1_555
C37_25 C36_25 1_555 1_555
H19_25 C37_25 1_555 1_555
C38_25 C33_25 1_555 1_555
H20_25 C38_25 1_555 1_555
Cu4_13 N6_13 1_555 1_555
Cu5_19 N9_13 1_555 1_555
N10_25 Cu1_13 1_555 1_555
N11_25 Cu1_13 1_555 1_555
N12_25 Cu3_19 1_555 1_555
N5_13 C13_25 1_555 1_555
C4_25 C5_25 1_555 1_555
C5_25 C6_25 1_555 1_555
C9_25 C10_25 1_555 1_555
C11_25 C12_25 1_555 1_555
C18_25 C19_25 1_555 1_555
N7_13 Cu4_13 1_555 1_555
N9_13 C32_25 1_555 1_555
C23_25 C24_25 1_555 1_555
C26_25 C31_25 1_555 1_555
C28_25 C29_25 1_555 1_555
C30_25 C31_25 1_555 1_555
C37_25 C38_25 1_555 1_555
Cu1_14 N2_14 1_555 1_555
Cu3_20 N5_14 1_555 1_555
N2_14 C1_26 1_555 1_555
N3_14 Cu1_14 1_555 1_555
N5_14 C11_26 1_555 1_555
C1_26 H1_26 1_555 1_555
C2_26 C1_26 1_555 1_555
H2_26 C2_26 1_555 1_555
C3_26 C2_26 1_555 1_555
H3_26 C3_26 1_555 1_555
C4_26 C3_26 1_555 1_555
C5_26 N2_14 1_555 1_555
C6_26 N3_14 1_555 1_555
C7_26 C6_26 1_555 1_555
C8_26 C7_26 1_555 1_555
C9_26 C8_26 1_555 1_555
H5_26 C9_26 1_555 1_555
C10_26 N3_14 1_555 1_555
H6_26 C10_26 1_555 1_555
C11_26 C4_26 1_555 1_555
C12_26 C7_26 1_555 1_555
N10_26 Cu1_14 1_555 1_555
N11_26 Cu1_14 1_555 1_555
C4_26 C5_26 1_555 1_555
C5_26 C6_26 1_555 1_555
C9_26 C10_26 1_555 1_555
C11_26 C12_26 1_555 1_555
Cu2_26 N4_26 1_555 1_555
F1_26 C17_26 1_555 1_555
C13_26 N4_26 1_555 1_555
C14_26 C13_26 1_555 1_555
C15_26 C14_26 1_555 1_555
H7_26 C15_26 1_555 1_555
C16_26 C15_26 1_555 1_555
H8_26 C16_26 1_555 1_555
C17_26 C16_26 1_555 1_555
C18_26 C17_26 1_555 1_555
H9_26 C18_26 1_555 1_555
C19_26 C14_26 1_555 1_555
H10_26 C19_26 1_555 1_555
F2_26 C36_26 1_555 1_555
N6_14 C20_26 1_555 1_555
N7_14 C25_26 1_555 1_555
N8_26 Cu2_26 1_555 1_555
N9_14 C30_26 1_555 1_555
C20_26 H11_26 1_555 1_555
C21_26 C20_26 1_555 1_555
H12_26 C21_26 1_555 1_555
C22_26 C21_26 1_555 1_555
H13_26 C22_26 1_555 1_555
C23_26 C22_26 1_555 1_555
C24_26 N6_14 1_555 1_555
C25_26 C24_26 1_555 1_555
C26_26 C25_26 1_555 1_555
C27_26 C26_26 1_555 1_555
H14_26 C27_26 1_555 1_555
C28_26 C27_26 1_555 1_555
H15_26 C28_26 1_555 1_555
C29_26 N7_14 1_555 1_555
H16_26 C29_26 1_555 1_555
C30_26 C23_26 1_555 1_555
C31_26 N8_26 1_555 1_555
C32_26 N8_26 1_555 1_555
C33_26 C32_26 1_555 1_555
C34_26 C33_26 1_555 1_555
H17_26 C34_26 1_555 1_555
C35_26 C34_26 1_555 1_555
H18_26 C35_26 1_555 1_555
C36_26 C35_26 1_555 1_555
C37_26 C36_26 1_555 1_555
C38_26 C33_26 1_555 1_555
H20_26 C38_26 1_555 1_555
Cu4_14 N6_14 1_555 1_555
Cu5_21 N9_14 1_555 1_555
N12_26 Cu3_21 1_555 1_555
C18_26 C19_26 1_555 1_555
N7_14 Cu4_14 1_555 1_555
N9_14 C32_26 1_555 1_555
C23_26 C24_26 1_555 1_555
C26_26 C31_26 1_555 1_555
C28_26 C29_26 1_555 1_555
C30_26 C31_26 1_555 1_555
C37_26 C38_26 1_555 1_555
Cu2_27 N4_27 1_555 1_555
F1_27 C17_27 1_555 1_555
C13_27 N4_27 1_555 1_555
C14_27 C13_27 1_555 1_555
C15_27 C14_27 1_555 1_555
H7_27 C15_27 1_555 1_555
C16_27 C15_27 1_555 1_555
H8_27 C16_27 1_555 1_555
C17_27 C16_27 1_555 1_555
C18_27 C17_27 1_555 1_555
H9_27 C18_27 1_555 1_555
C19_27 C14_27 1_555 1_555
H10_27 C19_27 1_555 1_555
F2_27 C36_27 1_555 1_555
N6_15 C20_27 1_555 1_555
N7_15 C25_27 1_555 1_555
N8_27 Cu2_27 1_555 1_555
N9_15 C30_27 1_555 1_555
C20_27 H11_27 1_555 1_555
C21_27 C20_27 1_555 1_555
H12_27 C21_27 1_555 1_555
C22_27 C21_27 1_555 1_555
H13_27 C22_27 1_555 1_555
C23_27 C22_27 1_555 1_555
C24_27 N6_15 1_555 1_555
C25_27 C24_27 1_555 1_555
C26_27 C25_27 1_555 1_555
C27_27 C26_27 1_555 1_555
H14_27 C27_27 1_555 1_555
C28_27 C27_27 1_555 1_555
H15_27 C28_27 1_555 1_555
C29_27 N7_15 1_555 1_555
H16_27 C29_27 1_555 1_555
C30_27 C23_27 1_555 1_555
C31_27 N8_27 1_555 1_555
C32_27 N8_27 1_555 1_555
C33_27 C32_27 1_555 1_555
C34_27 C33_27 1_555 1_555
H17_27 C34_27 1_555 1_555
C35_27 C34_27 1_555 1_555
H18_27 C35_27 1_555 1_555
C36_27 C35_27 1_555 1_555
C37_27 C36_27 1_555 1_555
H19_27 C37_27 1_555 1_555
C38_27 C33_27 1_555 1_555
H20_27 C38_27 1_555 1_555
Cu4_15 N6_15 1_555 1_555
Cu5_22 N9_15 1_555 1_555
N12_27 Cu3_22 1_555 1_555
C18_27 C19_27 1_555 1_555
N7_15 Cu4_15 1_555 1_555
N9_15 C32_27 1_555 1_555
C23_27 C24_27 1_555 1_555
C26_27 C31_27 1_555 1_555
C28_27 C29_27 1_555 1_555
C30_27 C31_27 1_555 1_555
C37_27 C38_27 1_555 1_555
Cu1_15 N2_15 1_555 1_555
Cu3_23 N5_15 1_555 1_555
N2_15 C1_27 1_555 1_555
N3_15 Cu1_15 1_555 1_555
N5_15 C11_27 1_555 1_555
C1_27 H1_27 1_555 1_555
C2_27 C1_27 1_555 1_555
H2_27 C2_27 1_555 1_555
C3_27 C2_27 1_555 1_555
H3_27 C3_27 1_555 1_555
C4_27 C3_27 1_555 1_555
C5_27 N2_15 1_555 1_555
C6_27 N3_15 1_555 1_555
C7_27 C6_27 1_555 1_555
C8_27 C7_27 1_555 1_555
C9_27 C8_27 1_555 1_555
H5_27 C9_27 1_555 1_555
C10_27 N3_15 1_555 1_555
H6_27 C10_27 1_555 1_555
C11_27 C4_27 1_555 1_555
C12_27 C7_27 1_555 1_555
N10_27 Cu1_15 1_555 1_555
N11_27 Cu1_15 1_555 1_555
C4_27 C5_27 1_555 1_555
C5_27 C6_27 1_555 1_555
C9_27 C10_27 1_555 1_555
C11_27 C12_27 1_555 1_555
Cu1_16 N2_16 1_555 1_555
Cu2_28 N4_28 1_555 1_555
Cu3_24 N5_16 1_555 1_555
F1_28 C17_28 1_555 1_555
N2_16 C1_28 1_555 1_555
N3_16 Cu1_16 1_555 1_555
N4_28 C12_28 1_555 1_555
N5_16 C11_28 1_555 1_555
C1_28 H1_28 1_555 1_555
C2_28 C1_28 1_555 1_555
H2_28 C2_28 1_555 1_555
C3_28 C2_28 1_555 1_555
H3_28 C3_28 1_555 1_555
C4_28 C3_28 1_555 1_555
C5_28 N2_16 1_555 1_555
C6_28 N3_16 1_555 1_555
C7_28 C6_28 1_555 1_555
C8_28 C7_28 1_555 1_555
H4_28 C8_28 1_555 1_555
C9_28 C8_28 1_555 1_555
H5_28 C9_28 1_555 1_555
C10_28 N3_16 1_555 1_555
H6_28 C10_28 1_555 1_555
C11_28 C4_28 1_555 1_555
C12_28 C7_28 1_555 1_555
C13_28 N4_28 1_555 1_555
C14_28 C13_28 1_555 1_555
C15_28 C14_28 1_555 1_555
H7_28 C15_28 1_555 1_555
C16_28 C15_28 1_555 1_555
H8_28 C16_28 1_555 1_555
C17_28 C16_28 1_555 1_555
C18_28 C17_28 1_555 1_555
H9_28 C18_28 1_555 1_555
C19_28 C14_28 1_555 1_555
H10_28 C19_28 1_555 1_555
F2_28 C36_28 1_555 1_555
N6_16 C20_28 1_555 1_555
N7_16 C25_28 1_555 1_555
N8_28 Cu2_28 1_555 1_555
N9_16 C30_28 1_555 1_555
C20_28 H11_28 1_555 1_555
C21_28 C20_28 1_555 1_555
H12_28 C21_28 1_555 1_555
C22_28 C21_28 1_555 1_555
H13_28 C22_28 1_555 1_555
C23_28 C22_28 1_555 1_555
C24_28 N6_16 1_555 1_555
C25_28 C24_28 1_555 1_555
C26_28 C25_28 1_555 1_555
C27_28 C26_28 1_555 1_555
H14_28 C27_28 1_555 1_555
C28_28 C27_28 1_555 1_555
H15_28 C28_28 1_555 1_555
C29_28 N7_16 1_555 1_555
H16_28 C29_28 1_555 1_555
C30_28 C23_28 1_555 1_555
C31_28 N8_28 1_555 1_555
C32_28 N8_28 1_555 1_555
C33_28 C32_28 1_555 1_555
C34_28 C33_28 1_555 1_555
H17_28 C34_28 1_555 1_555
C35_28 C34_28 1_555 1_555
H18_28 C35_28 1_555 1_555
C36_28 C35_28 1_555 1_555
C37_28 C36_28 1_555 1_555
C38_28 C33_28 1_555 1_555
H20_28 C38_28 1_555 1_555
Cu4_16 N6_16 1_555 1_555
Cu5_23 N9_16 1_555 1_555
N10_28 Cu1_16 1_555 1_555
N11_28 Cu1_16 1_555 1_555
N12_28 Cu3_24 1_555 1_555
N5_16 C13_28 1_555 1_555
C4_28 C5_28 1_555 1_555
C5_28 C6_28 1_555 1_555
C9_28 C10_28 1_555 1_555
C11_28 C12_28 1_555 1_555
C18_28 C19_28 1_555 1_555
N7_16 Cu4_16 1_555 1_555
N9_16 C32_28 1_555 1_555
C23_28 C24_28 1_555 1_555
C26_28 C31_28 1_555 1_555
C28_28 C29_28 1_555 1_555
C30_28 C31_28 1_555 1_555
C37_28 C38_28 1_555 1_555
Cu1_17 N2_17 1_555 1_555
Cu2_29 N4_29 1_555 1_555
Cu3_25 N5_17 1_555 1_555
F1_29 C17_29 1_555 1_555
N2_17 C1_29 1_555 1_555
N3_17 Cu1_17 1_555 1_555
N4_29 C12_29 1_555 1_555
N5_17 C11_29 1_555 1_555
C1_29 H1_29 1_555 1_555
C2_29 C1_29 1_555 1_555
H2_29 C2_29 1_555 1_555
C3_29 C2_29 1_555 1_555
H3_29 C3_29 1_555 1_555
C4_29 C3_29 1_555 1_555
C5_29 N2_17 1_555 1_555
C6_29 N3_17 1_555 1_555
C7_29 C6_29 1_555 1_555
C8_29 C7_29 1_555 1_555
H4_29 C8_29 1_555 1_555
C9_29 C8_29 1_555 1_555
H5_29 C9_29 1_555 1_555
C10_29 N3_17 1_555 1_555
H6_29 C10_29 1_555 1_555
C11_29 C4_29 1_555 1_555
C12_29 C7_29 1_555 1_555
C13_29 N4_29 1_555 1_555
C14_29 C13_29 1_555 1_555
C15_29 C14_29 1_555 1_555
H7_29 C15_29 1_555 1_555
C16_29 C15_29 1_555 1_555
H8_29 C16_29 1_555 1_555
C17_29 C16_29 1_555 1_555
C18_29 C17_29 1_555 1_555
H9_29 C18_29 1_555 1_555
C19_29 C14_29 1_555 1_555
H10_29 C19_29 1_555 1_555
F2_29 C36_29 1_555 1_555
N6_17 C20_29 1_555 1_555
N7_17 C25_29 1_555 1_555
N8_29 Cu2_29 1_555 1_555
N9_17 C30_29 1_555 1_555
C20_29 H11_29 1_555 1_555
C21_29 C20_29 1_555 1_555
H12_29 C21_29 1_555 1_555
C22_29 C21_29 1_555 1_555
H13_29 C22_29 1_555 1_555
C23_29 C22_29 1_555 1_555
C24_29 N6_17 1_555 1_555
C25_29 C24_29 1_555 1_555
C26_29 C25_29 1_555 1_555
C27_29 C26_29 1_555 1_555
H14_29 C27_29 1_555 1_555
C28_29 C27_29 1_555 1_555
H15_29 C28_29 1_555 1_555
C29_29 N7_17 1_555 1_555
H16_29 C29_29 1_555 1_555
C30_29 C23_29 1_555 1_555
C31_29 N8_29 1_555 1_555
C32_29 N8_29 1_555 1_555
C33_29 C32_29 1_555 1_555
C34_29 C33_29 1_555 1_555
H17_29 C34_29 1_555 1_555
C35_29 C34_29 1_555 1_555
H18_29 C35_29 1_555 1_555
C36_29 C35_29 1_555 1_555
C37_29 C36_29 1_555 1_555
H19_29 C37_29 1_555 1_555
C38_29 C33_29 1_555 1_555
H20_29 C38_29 1_555 1_555
Cu4_17 N6_17 1_555 1_555
Cu5_25 N9_17 1_555 1_555
N10_29 Cu1_17 1_555 1_555
N11_29 Cu1_17 1_555 1_555
N12_29 Cu3_25 1_555 1_555
N5_17 C13_29 1_555 1_555
C4_29 C5_29 1_555 1_555
C5_29 C6_29 1_555 1_555
C9_29 C10_29 1_555 1_555
C11_29 C12_29 1_555 1_555
C18_29 C19_29 1_555 1_555
N7_17 Cu4_17 1_555 1_555
N9_17 C32_29 1_555 1_555
C23_29 C24_29 1_555 1_555
C26_29 C31_29 1_555 1_555
C28_29 C29_29 1_555 1_555
C30_29 C31_29 1_555 1_555
C37_29 C38_29 1_555 1_555
Cu1_18 N2_18 1_555 1_555
Cu3_26 N5_18 1_555 1_555
N2_18 C1_30 1_555 1_555
N3_18 Cu1_18 1_555 1_555
N5_18 C11_30 1_555 1_555
C1_30 H1_30 1_555 1_555
C2_30 C1_30 1_555 1_555
H2_30 C2_30 1_555 1_555
C3_30 C2_30 1_555 1_555
H3_30 C3_30 1_555 1_555
C4_30 C3_30 1_555 1_555
C5_30 N2_18 1_555 1_555
C6_30 N3_18 1_555 1_555
C7_30 C6_30 1_555 1_555
C8_30 C7_30 1_555 1_555
C9_30 C8_30 1_555 1_555
H5_30 C9_30 1_555 1_555
C10_30 N3_18 1_555 1_555
H6_30 C10_30 1_555 1_555
C11_30 C4_30 1_555 1_555
C12_30 C7_30 1_555 1_555
N10_30 Cu1_18 1_555 1_555
N11_30 Cu1_18 1_555 1_555
C4_30 C5_30 1_555 1_555
C5_30 C6_30 1_555 1_555
C9_30 C10_30 1_555 1_555
C11_30 C12_30 1_555 1_555
Cu2_30 N4_30 1_555 1_555
F1_30 C17_30 1_555 1_555
C13_30 N4_30 1_555 1_555
C14_30 C13_30 1_555 1_555
C15_30 C14_30 1_555 1_555
H7_30 C15_30 1_555 1_555
C16_30 C15_30 1_555 1_555
H8_30 C16_30 1_555 1_555
C17_30 C16_30 1_555 1_555
C18_30 C17_30 1_555 1_555
H9_30 C18_30 1_555 1_555
C19_30 C14_30 1_555 1_555
H10_30 C19_30 1_555 1_555
F2_30 C36_30 1_555 1_555
N6_18 C20_30 1_555 1_555
N7_18 C25_30 1_555 1_555
N8_30 Cu2_30 1_555 1_555
N9_18 C30_30 1_555 1_555
C20_30 H11_30 1_555 1_555
C21_30 C20_30 1_555 1_555
H12_30 C21_30 1_555 1_555
C22_30 C21_30 1_555 1_555
H13_30 C22_30 1_555 1_555
C23_30 C22_30 1_555 1_555
C24_30 N6_18 1_555 1_555
C25_30 C24_30 1_555 1_555
C26_30 C25_30 1_555 1_555
C27_30 C26_30 1_555 1_555
H14_30 C27_30 1_555 1_555
C28_30 C27_30 1_555 1_555
H15_30 C28_30 1_555 1_555
C29_30 N7_18 1_555 1_555
H16_30 C29_30 1_555 1_555
C30_30 C23_30 1_555 1_555
C31_30 N8_30 1_555 1_555
C32_30 N8_30 1_555 1_555
C33_30 C32_30 1_555 1_555
C34_30 C33_30 1_555 1_555
H17_30 C34_30 1_555 1_555
C35_30 C34_30 1_555 1_555
H18_30 C35_30 1_555 1_555
C36_30 C35_30 1_555 1_555
C37_30 C36_30 1_555 1_555
C38_30 C33_30 1_555 1_555
H20_30 C38_30 1_555 1_555
Cu4_18 N6_18 1_555 1_555
Cu5_27 N9_18 1_555 1_555
N12_30 Cu3_27 1_555 1_555
C18_30 C19_30 1_555 1_555
N7_18 Cu4_18 1_555 1_555
N9_18 C32_30 1_555 1_555
C23_30 C24_30 1_555 1_555
C26_30 C31_30 1_555 1_555
C28_30 C29_30 1_555 1_555
C30_30 C31_30 1_555 1_555
C37_30 C38_30 1_555 1_555
Cu2_31 N4_31 1_555 1_555
F1_31 C17_31 1_555 1_555
C13_31 N4_31 1_555 1_555
C14_31 C13_31 1_555 1_555
C15_31 C14_31 1_555 1_555
H7_31 C15_31 1_555 1_555
C16_31 C15_31 1_555 1_555
H8_31 C16_31 1_555 1_555
C17_31 C16_31 1_555 1_555
C18_31 C17_31 1_555 1_555
H9_31 C18_31 1_555 1_555
C19_31 C14_31 1_555 1_555
H10_31 C19_31 1_555 1_555
F2_31 C36_31 1_555 1_555
N6_19 C20_31 1_555 1_555
N7_19 C25_31 1_555 1_555
N8_31 Cu2_31 1_555 1_555
N9_19 C30_31 1_555 1_555
C20_31 H11_31 1_555 1_555
C21_31 C20_31 1_555 1_555
H12_31 C21_31 1_555 1_555
C22_31 C21_31 1_555 1_555
H13_31 C22_31 1_555 1_555
C23_31 C22_31 1_555 1_555
C24_31 N6_19 1_555 1_555
C25_31 C24_31 1_555 1_555
C26_31 C25_31 1_555 1_555
C27_31 C26_31 1_555 1_555
H14_31 C27_31 1_555 1_555
C28_31 C27_31 1_555 1_555
H15_31 C28_31 1_555 1_555
C29_31 N7_19 1_555 1_555
H16_31 C29_31 1_555 1_555
C30_31 C23_31 1_555 1_555
C31_31 N8_31 1_555 1_555
C32_31 N8_31 1_555 1_555
C33_31 C32_31 1_555 1_555
C34_31 C33_31 1_555 1_555
H17_31 C34_31 1_555 1_555
C35_31 C34_31 1_555 1_555
H18_31 C35_31 1_555 1_555
C36_31 C35_31 1_555 1_555
C37_31 C36_31 1_555 1_555
H19_31 C37_31 1_555 1_555
C38_31 C33_31 1_555 1_555
H20_31 C38_31 1_555 1_555
Cu4_19 N6_19 1_555 1_555
Cu5_28 N9_19 1_555 1_555
N12_31 Cu3_28 1_555 1_555
C18_31 C19_31 1_555 1_555
N7_19 Cu4_19 1_555 1_555
N9_19 C32_31 1_555 1_555
C23_31 C24_31 1_555 1_555
C26_31 C31_31 1_555 1_555
C28_31 C29_31 1_555 1_555
C30_31 C31_31 1_555 1_555
C37_31 C38_31 1_555 1_555
Cu1_19 N2_19 1_555 1_555
Cu3_29 N5_19 1_555 1_555
N2_19 C1_31 1_555 1_555
N3_19 Cu1_19 1_555 1_555
N5_19 C11_31 1_555 1_555
C1_31 H1_31 1_555 1_555
C2_31 C1_31 1_555 1_555
H2_31 C2_31 1_555 1_555
C3_31 C2_31 1_555 1_555
H3_31 C3_31 1_555 1_555
C4_31 C3_31 1_555 1_555
C5_31 N2_19 1_555 1_555
C6_31 N3_19 1_555 1_555
C7_31 C6_31 1_555 1_555
C8_31 C7_31 1_555 1_555
C9_31 C8_31 1_555 1_555
H5_31 C9_31 1_555 1_555
C10_31 N3_19 1_555 1_555
H6_31 C10_31 1_555 1_555
C11_31 C4_31 1_555 1_555
C12_31 C7_31 1_555 1_555
N10_31 Cu1_19 1_555 1_555
N11_31 Cu1_19 1_555 1_555
C4_31 C5_31 1_555 1_555
C5_31 C6_31 1_555 1_555
C9_31 C10_31 1_555 1_555
C11_31 C12_31 1_555 1_555
Cu1_20 N2_20 1_555 1_555
Cu2_32 N4_32 1_555 1_555
Cu3_30 N5_20 1_555 1_555
F1_32 C17_32 1_555 1_555
N2_20 C1_32 1_555 1_555
N3_20 Cu1_20 1_555 1_555
N4_32 C12_32 1_555 1_555
N5_20 C11_32 1_555 1_555
C1_32 H1_32 1_555 1_555
C2_32 C1_32 1_555 1_555
H2_32 C2_32 1_555 1_555
C3_32 C2_32 1_555 1_555
H3_32 C3_32 1_555 1_555
C4_32 C3_32 1_555 1_555
C5_32 N2_20 1_555 1_555
C6_32 N3_20 1_555 1_555
C7_32 C6_32 1_555 1_555
C8_32 C7_32 1_555 1_555
H4_32 C8_32 1_555 1_555
C9_32 C8_32 1_555 1_555
H5_32 C9_32 1_555 1_555
C10_32 N3_20 1_555 1_555
H6_32 C10_32 1_555 1_555
C11_32 C4_32 1_555 1_555
C12_32 C7_32 1_555 1_555
C13_32 N4_32 1_555 1_555
C14_32 C13_32 1_555 1_555
C15_32 C14_32 1_555 1_555
H7_32 C15_32 1_555 1_555
C16_32 C15_32 1_555 1_555
H8_32 C16_32 1_555 1_555
C17_32 C16_32 1_555 1_555
C18_32 C17_32 1_555 1_555
H9_32 C18_32 1_555 1_555
C19_32 C14_32 1_555 1_555
H10_32 C19_32 1_555 1_555
F2_32 C36_32 1_555 1_555
N6_20 C20_32 1_555 1_555
N7_20 C25_32 1_555 1_555
N8_32 Cu2_32 1_555 1_555
N9_20 C30_32 1_555 1_555
C20_32 H11_32 1_555 1_555
C21_32 C20_32 1_555 1_555
H12_32 C21_32 1_555 1_555
C22_32 C21_32 1_555 1_555
H13_32 C22_32 1_555 1_555
C23_32 C22_32 1_555 1_555
C24_32 N6_20 1_555 1_555
C25_32 C24_32 1_555 1_555
C26_32 C25_32 1_555 1_555
C27_32 C26_32 1_555 1_555
H14_32 C27_32 1_555 1_555
C28_32 C27_32 1_555 1_555
H15_32 C28_32 1_555 1_555
C29_32 N7_20 1_555 1_555
H16_32 C29_32 1_555 1_555
C30_32 C23_32 1_555 1_555
C31_32 N8_32 1_555 1_555
C32_32 N8_32 1_555 1_555
C33_32 C32_32 1_555 1_555
C34_32 C33_32 1_555 1_555
H17_32 C34_32 1_555 1_555
C35_32 C34_32 1_555 1_555
H18_32 C35_32 1_555 1_555
C36_32 C35_32 1_555 1_555
C37_32 C36_32 1_555 1_555
C38_32 C33_32 1_555 1_555
H20_32 C38_32 1_555 1_555
Cu4_20 N6_20 1_555 1_555
Cu5_29 N9_20 1_555 1_555
N10_32 Cu1_20 1_555 1_555
N11_32 Cu1_20 1_555 1_555
N12_32 Cu3_30 1_555 1_555
N5_20 C13_32 1_555 1_555
C4_32 C5_32 1_555 1_555
C5_32 C6_32 1_555 1_555
C9_32 C10_32 1_555 1_555
C11_32 C12_32 1_555 1_555
C18_32 C19_32 1_555 1_555
N7_20 Cu4_20 1_555 1_555
N9_20 C32_32 1_555 1_555
C23_32 C24_32 1_555 1_555
C26_32 C31_32 1_555 1_555
C28_32 C29_32 1_555 1_555
C30_32 C31_32 1_555 1_555
C37_32 C38_32 1_555 1_555
Cu1_21 N2_21 1_555 1_555
Cu2_33 N4_33 1_555 1_555
Cu3_31 N5_21 1_555 1_555
F1_33 C17_33 1_555 1_555
N2_21 C1_33 1_555 1_555
N3_21 Cu1_21 1_555 1_555
N4_33 C12_33 1_555 1_555
N5_21 C11_33 1_555 1_555
C1_33 H1_33 1_555 1_555
C2_33 C1_33 1_555 1_555
H2_33 C2_33 1_555 1_555
C3_33 C2_33 1_555 1_555
H3_33 C3_33 1_555 1_555
C4_33 C3_33 1_555 1_555
C5_33 N2_21 1_555 1_555
C6_33 N3_21 1_555 1_555
C7_33 C6_33 1_555 1_555
C8_33 C7_33 1_555 1_555
H4_33 C8_33 1_555 1_555
C9_33 C8_33 1_555 1_555
H5_33 C9_33 1_555 1_555
C10_33 N3_21 1_555 1_555
H6_33 C10_33 1_555 1_555
C11_33 C4_33 1_555 1_555
C12_33 C7_33 1_555 1_555
C13_33 N4_33 1_555 1_555
C14_33 C13_33 1_555 1_555
C15_33 C14_33 1_555 1_555
H7_33 C15_33 1_555 1_555
C16_33 C15_33 1_555 1_555
H8_33 C16_33 1_555 1_555
C17_33 C16_33 1_555 1_555
C18_33 C17_33 1_555 1_555
H9_33 C18_33 1_555 1_555
C19_33 C14_33 1_555 1_555
H10_33 C19_33 1_555 1_555
F2_33 C36_33 1_555 1_555
N6_21 C20_33 1_555 1_555
N7_21 C25_33 1_555 1_555
N8_33 Cu2_33 1_555 1_555
N9_21 C30_33 1_555 1_555
C20_33 H11_33 1_555 1_555
C21_33 C20_33 1_555 1_555
H12_33 C21_33 1_555 1_555
C22_33 C21_33 1_555 1_555
H13_33 C22_33 1_555 1_555
C23_33 C22_33 1_555 1_555
C24_33 N6_21 1_555 1_555
C25_33 C24_33 1_555 1_555
C26_33 C25_33 1_555 1_555
C27_33 C26_33 1_555 1_555
H14_33 C27_33 1_555 1_555
C28_33 C27_33 1_555 1_555
H15_33 C28_33 1_555 1_555
C29_33 N7_21 1_555 1_555
H16_33 C29_33 1_555 1_555
C30_33 C23_33 1_555 1_555
C31_33 N8_33 1_555 1_555
C32_33 N8_33 1_555 1_555
C33_33 C32_33 1_555 1_555
C34_33 C33_33 1_555 1_555
H17_33 C34_33 1_555 1_555
C35_33 C34_33 1_555 1_555
H18_33 C35_33 1_555 1_555
C36_33 C35_33 1_555 1_555
C37_33 C36_33 1_555 1_555
H19_33 C37_33 1_555 1_555
C38_33 C33_33 1_555 1_555
H20_33 C38_33 1_555 1_555
Cu4_21 N6_21 1_555 1_555
Cu5_31 N9_21 1_555 1_555
N10_33 Cu1_21 1_555 1_555
N11_33 Cu1_21 1_555 1_555
N12_33 Cu3_31 1_555 1_555
N5_21 C13_33 1_555 1_555
C4_33 C5_33 1_555 1_555
C5_33 C6_33 1_555 1_555
C9_33 C10_33 1_555 1_555
C11_33 C12_33 1_555 1_555
C18_33 C19_33 1_555 1_555
N7_21 Cu4_21 1_555 1_555
N9_21 C32_33 1_555 1_555
C23_33 C24_33 1_555 1_555
C26_33 C31_33 1_555 1_555
C28_33 C29_33 1_555 1_555
C30_33 C31_33 1_555 1_555
C37_33 C38_33 1_555 1_555
Cu1_22 N2_22 1_555 1_555
Cu3_32 N5_22 1_555 1_555
N2_22 C1_34 1_555 1_555
N3_22 Cu1_22 1_555 1_555
N5_22 C11_34 1_555 1_555
C1_34 H1_34 1_555 1_555
C2_34 C1_34 1_555 1_555
H2_34 C2_34 1_555 1_555
C3_34 C2_34 1_555 1_555
H3_34 C3_34 1_555 1_555
C4_34 C3_34 1_555 1_555
C5_34 N2_22 1_555 1_555
C6_34 N3_22 1_555 1_555
C7_34 C6_34 1_555 1_555
C8_34 C7_34 1_555 1_555
C9_34 C8_34 1_555 1_555
H5_34 C9_34 1_555 1_555
C10_34 N3_22 1_555 1_555
H6_34 C10_34 1_555 1_555
C11_34 C4_34 1_555 1_555
C12_34 C7_34 1_555 1_555
N10_34 Cu1_22 1_555 1_555
N11_34 Cu1_22 1_555 1_555
C4_34 C5_34 1_555 1_555
C5_34 C6_34 1_555 1_555
C9_34 C10_34 1_555 1_555
C11_34 C12_34 1_555 1_555
Cu2_34 N4_34 1_555 1_555
F1_34 C17_34 1_555 1_555
C13_34 N4_34 1_555 1_555
C14_34 C13_34 1_555 1_555
C15_34 C14_34 1_555 1_555
H7_34 C15_34 1_555 1_555
C16_34 C15_34 1_555 1_555
H8_34 C16_34 1_555 1_555
C17_34 C16_34 1_555 1_555
C18_34 C17_34 1_555 1_555
H9_34 C18_34 1_555 1_555
C19_34 C14_34 1_555 1_555
H10_34 C19_34 1_555 1_555
F2_34 C36_34 1_555 1_555
N6_22 C20_34 1_555 1_555
N7_22 C25_34 1_555 1_555
N8_34 Cu2_34 1_555 1_555
N9_22 C30_34 1_555 1_555
C20_34 H11_34 1_555 1_555
C21_34 C20_34 1_555 1_555
H12_34 C21_34 1_555 1_555
C22_34 C21_34 1_555 1_555
H13_34 C22_34 1_555 1_555
C23_34 C22_34 1_555 1_555
C24_34 N6_22 1_555 1_555
C25_34 C24_34 1_555 1_555
C26_34 C25_34 1_555 1_555
C27_34 C26_34 1_555 1_555
H14_34 C27_34 1_555 1_555
C28_34 C27_34 1_555 1_555
H15_34 C28_34 1_555 1_555
C29_34 N7_22 1_555 1_555
H16_34 C29_34 1_555 1_555
C30_34 C23_34 1_555 1_555
C31_34 N8_34 1_555 1_555
C32_34 N8_34 1_555 1_555
C33_34 C32_34 1_555 1_555
C34_34 C33_34 1_555 1_555
H17_34 C34_34 1_555 1_555
C35_34 C34_34 1_555 1_555
H18_34 C35_34 1_555 1_555
C36_34 C35_34 1_555 1_555
C37_34 C36_34 1_555 1_555
C38_34 C33_34 1_555 1_555
H20_34 C38_34 1_555 1_555
Cu4_22 N6_22 1_555 1_555
Cu5_33 N9_22 1_555 1_555
N12_34 Cu3_33 1_555 1_555
C18_34 C19_34 1_555 1_555
N7_22 Cu4_22 1_555 1_555
N9_22 C32_34 1_555 1_555
C23_34 C24_34 1_555 1_555
C26_34 C31_34 1_555 1_555
C28_34 C29_34 1_555 1_555
C30_34 C31_34 1_555 1_555
C37_34 C38_34 1_555 1_555
Cu2_35 N4_35 1_555 1_555
F1_35 C17_35 1_555 1_555
C13_35 N4_35 1_555 1_555
C14_35 C13_35 1_555 1_555
C15_35 C14_35 1_555 1_555
H7_35 C15_35 1_555 1_555
C16_35 C15_35 1_555 1_555
H8_35 C16_35 1_555 1_555
C17_35 C16_35 1_555 1_555
C18_35 C17_35 1_555 1_555
H9_35 C18_35 1_555 1_555
C19_35 C14_35 1_555 1_555
H10_35 C19_35 1_555 1_555
F2_35 C36_35 1_555 1_555
N6_23 C20_35 1_555 1_555
N7_23 C25_35 1_555 1_555
N8_35 Cu2_35 1_555 1_555
N9_23 C30_35 1_555 1_555
C20_35 H11_35 1_555 1_555
C21_35 C20_35 1_555 1_555
H12_35 C21_35 1_555 1_555
C22_35 C21_35 1_555 1_555
H13_35 C22_35 1_555 1_555
C23_35 C22_35 1_555 1_555
C24_35 N6_23 1_555 1_555
C25_35 C24_35 1_555 1_555
C26_35 C25_35 1_555 1_555
C27_35 C26_35 1_555 1_555
H14_35 C27_35 1_555 1_555
C28_35 C27_35 1_555 1_555
H15_35 C28_35 1_555 1_555
C29_35 N7_23 1_555 1_555
H16_35 C29_35 1_555 1_555
C30_35 C23_35 1_555 1_555
C31_35 N8_35 1_555 1_555
C32_35 N8_35 1_555 1_555
C33_35 C32_35 1_555 1_555
C34_35 C33_35 1_555 1_555
H17_35 C34_35 1_555 1_555
C35_35 C34_35 1_555 1_555
H18_35 C35_35 1_555 1_555
C36_35 C35_35 1_555 1_555
C37_35 C36_35 1_555 1_555
H19_35 C37_35 1_555 1_555
C38_35 C33_35 1_555 1_555
H20_35 C38_35 1_555 1_555
Cu4_23 N6_23 1_555 1_555
Cu5_34 N9_23 1_555 1_555
N12_35 Cu3_34 1_555 1_555
C18_35 C19_35 1_555 1_555
N7_23 Cu4_23 1_555 1_555
N9_23 C32_35 1_555 1_555
C23_35 C24_35 1_555 1_555
C26_35 C31_35 1_555 1_555
C28_35 C29_35 1_555 1_555
C30_35 C31_35 1_555 1_555
C37_35 C38_35 1_555 1_555
Cu1_23 N2_23 1_555 1_555
Cu3_35 N5_23 1_555 1_555
N2_23 C1_35 1_555 1_555
N3_23 Cu1_23 1_555 1_555
N5_23 C11_35 1_555 1_555
C1_35 H1_35 1_555 1_555
C2_35 C1_35 1_555 1_555
H2_35 C2_35 1_555 1_555
C3_35 C2_35 1_555 1_555
H3_35 C3_35 1_555 1_555
C4_35 C3_35 1_555 1_555
C5_35 N2_23 1_555 1_555
C6_35 N3_23 1_555 1_555
C7_35 C6_35 1_555 1_555
C8_35 C7_35 1_555 1_555
C9_35 C8_35 1_555 1_555
H5_35 C9_35 1_555 1_555
C10_35 N3_23 1_555 1_555
H6_35 C10_35 1_555 1_555
C11_35 C4_35 1_555 1_555
C12_35 C7_35 1_555 1_555
N10_35 Cu1_23 1_555 1_555
N11_35 Cu1_23 1_555 1_555
C4_35 C5_35 1_555 1_555
C5_35 C6_35 1_555 1_555
C9_35 C10_35 1_555 1_555
C11_35 C12_35 1_555 1_555
Cu1_24 N2_24 1_555 1_555
Cu2_36 N4_36 1_555 1_555
Cu3_36 N5_24 1_555 1_555
F1_36 C17_36 1_555 1_555
N2_24 C1_36 1_555 1_555
N3_24 Cu1_24 1_555 1_555
N4_36 C12_36 1_555 1_555
N5_24 C11_36 1_555 1_555
C1_36 H1_36 1_555 1_555
C2_36 C1_36 1_555 1_555
H2_36 C2_36 1_555 1_555
C3_36 C2_36 1_555 1_555
H3_36 C3_36 1_555 1_555
C4_36 C3_36 1_555 1_555
C5_36 N2_24 1_555 1_555
C6_36 N3_24 1_555 1_555
C7_36 C6_36 1_555 1_555
C8_36 C7_36 1_555 1_555
H4_36 C8_36 1_555 1_555
C9_36 C8_36 1_555 1_555
H5_36 C9_36 1_555 1_555
C10_36 N3_24 1_555 1_555
H6_36 C10_36 1_555 1_555
C11_36 C4_36 1_555 1_555
C12_36 C7_36 1_555 1_555
C13_36 N4_36 1_555 1_555
C14_36 C13_36 1_555 1_555
C15_36 C14_36 1_555 1_555
H7_36 C15_36 1_555 1_555
C16_36 C15_36 1_555 1_555
H8_36 C16_36 1_555 1_555
C17_36 C16_36 1_555 1_555
C18_36 C17_36 1_555 1_555
H9_36 C18_36 1_555 1_555
C19_36 C14_36 1_555 1_555
H10_36 C19_36 1_555 1_555
F2_36 C36_36 1_555 1_555
N6_24 C20_36 1_555 1_555
N7_24 C25_36 1_555 1_555
N8_36 Cu2_36 1_555 1_555
N9_24 C30_36 1_555 1_555
C20_36 H11_36 1_555 1_555
C21_36 C20_36 1_555 1_555
H12_36 C21_36 1_555 1_555
C22_36 C21_36 1_555 1_555
H13_36 C22_36 1_555 1_555
C23_36 C22_36 1_555 1_555
C24_36 N6_24 1_555 1_555
C25_36 C24_36 1_555 1_555
C26_36 C25_36 1_555 1_555
C27_36 C26_36 1_555 1_555
H14_36 C27_36 1_555 1_555
C28_36 C27_36 1_555 1_555
H15_36 C28_36 1_555 1_555
C29_36 N7_24 1_555 1_555
H16_36 C29_36 1_555 1_555
C30_36 C23_36 1_555 1_555
C31_36 N8_36 1_555 1_555
C32_36 N8_36 1_555 1_555
C33_36 C32_36 1_555 1_555
C34_36 C33_36 1_555 1_555
H17_36 C34_36 1_555 1_555
C35_36 C34_36 1_555 1_555
H18_36 C35_36 1_555 1_555
C36_36 C35_36 1_555 1_555
C37_36 C36_36 1_555 1_555
C38_36 C33_36 1_555 1_555
H20_36 C38_36 1_555 1_555
Cu4_24 N6_24 1_555 1_555
Cu5_35 N9_24 1_555 1_555
N10_36 Cu1_24 1_555 1_555
N11_36 Cu1_24 1_555 1_555
N12_36 Cu3_36 1_555 1_555
N5_24 C13_36 1_555 1_555
C4_36 C5_36 1_555 1_555
C5_36 C6_36 1_555 1_555
C9_36 C10_36 1_555 1_555
C11_36 C12_36 1_555 1_555
C18_36 C19_36 1_555 1_555
N7_24 Cu4_24 1_555 1_555
N9_24 C32_36 1_555 1_555
C23_36 C24_36 1_555 1_555
C26_36 C31_36 1_555 1_555
C28_36 C29_36 1_555 1_555
C30_36 C31_36 1_555 1_555
C37_36 C38_36 1_555 1_555
N10_37 Cu4_19 1_555 1_555
N11_37 Cu4_19 1_555 1_555
N12_37 Cu5_28 1_555 1_555
N10_38 Cu4_17 1_555 1_555
N11_38 Cu4_17 1_555 1_555
N12_38 Cu5_25 1_555 1_555
N10_39 Cu4_20 1_555 1_555
N11_39 Cu4_20 1_555 1_555
N12_39 Cu5_30 1_555 1_555
N12_40 Cu5_26 1_555 1_555
N10_40 Cu4_18 1_555 1_555
N11_40 Cu4_18 1_555 1_555
N12_41 Cu5_20 1_555 1_555
N10_41 Cu4_14 1_555 1_555
N11_41 Cu4_14 1_555 1_555
N10_42 Cu4_16 1_555 1_555
N11_42 Cu4_16 1_555 1_555
N12_42 Cu5_24 1_555 1_555
N10_43 Cu4_13 1_555 1_555
N11_43 Cu4_13 1_555 1_555
N12_43 Cu5_19 1_555 1_555
N10_44 Cu4_15 1_555 1_555
N11_44 Cu4_15 1_555 1_555
N12_44 Cu5_22 1_555 1_555
N10_45 Cu4_24 1_555 1_555
N11_45 Cu4_24 1_555 1_555
N12_45 Cu5_36 1_555 1_555
N12_46 Cu5_32 1_555 1_555
N10_46 Cu4_22 1_555 1_555
N11_46 Cu4_22 1_555 1_555
N10_47 Cu4_23 1_555 1_555
N11_47 Cu4_23 1_555 1_555
N12_47 Cu5_34 1_555 1_555
N10_48 Cu4_21 1_555 1_555
N11_48 Cu4_21 1_555 1_555
N12_48 Cu5_31 1_555 1_555
N10_37 C1_37 1_555 1_555
N12_27 C11_37 1_555 1_555
C1_37 H1_37 1_555 1_555
C2_37 C1_37 1_555 1_555
H2_37 C2_37 1_555 1_555
C3_37 C2_37 1_555 1_555
H3_37 C3_37 1_555 1_555
C4_37 C3_37 1_555 1_555
C5_37 N10_37 1_555 1_555
C6_37 N11_37 1_555 1_555
C7_37 C6_37 1_555 1_555
C8_37 C7_37 1_555 1_555
C9_37 C8_37 1_555 1_555
H5_37 C9_37 1_555 1_555
C10_37 N11_37 1_555 1_555
H6_37 C10_37 1_555 1_555
C11_37 C4_37 1_555 1_555
C12_37 C7_37 1_555 1_555
C4_37 C5_37 1_555 1_555
C5_37 C6_37 1_555 1_555
C9_37 C10_37 1_555 1_555
C11_37 C12_37 1_555 1_555
Cu2_37 N4_37 1_555 1_555
F1_37 C17_37 1_555 1_555
C13_37 N4_37 1_555 1_555
C14_37 C13_37 1_555 1_555
C15_37 C14_37 1_555 1_555
H7_37 C15_37 1_555 1_555
C16_37 C15_37 1_555 1_555
H8_37 C16_37 1_555 1_555
C17_37 C16_37 1_555 1_555
C18_37 C17_37 1_555 1_555
H9_37 C18_37 1_555 1_555
C19_37 C14_37 1_555 1_555
H10_37 C19_37 1_555 1_555
F2_37 C36_37 1_555 1_555
N10_34 C20_37 1_555 1_555
N11_34 C25_37 1_555 1_555
N8_37 Cu2_37 1_555 1_555
N12_41 C30_37 1_555 1_555
C20_37 H11_37 1_555 1_555
C21_37 C20_37 1_555 1_555
H12_37 C21_37 1_555 1_555
C22_37 C21_37 1_555 1_555
H13_37 C22_37 1_555 1_555
C23_37 C22_37 1_555 1_555
C24_37 N10_34 1_555 1_555
C25_37 C24_37 1_555 1_555
C26_37 C25_37 1_555 1_555
C27_37 C26_37 1_555 1_555
H14_37 C27_37 1_555 1_555
C28_37 C27_37 1_555 1_555
H15_37 C28_37 1_555 1_555
C29_37 N11_34 1_555 1_555
H16_37 C29_37 1_555 1_555
C30_37 C23_37 1_555 1_555
C31_37 N8_37 1_555 1_555
C32_37 N8_37 1_555 1_555
C33_37 C32_37 1_555 1_555
C34_37 C33_37 1_555 1_555
H17_37 C34_37 1_555 1_555
C35_37 C34_37 1_555 1_555
H18_37 C35_37 1_555 1_555
C36_37 C35_37 1_555 1_555
C37_37 C36_37 1_555 1_555
C38_37 C33_37 1_555 1_555
H20_37 C38_37 1_555 1_555
C18_37 C19_37 1_555 1_555
N12_41 C32_37 1_555 1_555
C23_37 C24_37 1_555 1_555
C26_37 C31_37 1_555 1_555
C28_37 C29_37 1_555 1_555
C30_37 C31_37 1_555 1_555
C37_37 C38_37 1_555 1_555
Cu2_38 N4_38 1_555 1_555
F1_38 C17_38 1_555 1_555
N10_38 C1_38 1_555 1_555
N4_38 C12_38 1_555 1_555
N12_28 C11_38 1_555 1_555
C1_38 H1_38 1_555 1_555
C2_38 C1_38 1_555 1_555
H2_38 C2_38 1_555 1_555
C3_38 C2_38 1_555 1_555
H3_38 C3_38 1_555 1_555
C4_38 C3_38 1_555 1_555
C5_38 N10_38 1_555 1_555
C6_38 N11_38 1_555 1_555
C7_38 C6_38 1_555 1_555
C8_38 C7_38 1_555 1_555
H4_38 C8_38 1_555 1_555
C9_38 C8_38 1_555 1_555
H5_38 C9_38 1_555 1_555
C10_38 N11_38 1_555 1_555
H6_38 C10_38 1_555 1_555
C11_38 C4_38 1_555 1_555
C12_38 C7_38 1_555 1_555
C13_38 N4_38 1_555 1_555
C14_38 C13_38 1_555 1_555
C15_38 C14_38 1_555 1_555
H7_38 C15_38 1_555 1_555
C16_38 C15_38 1_555 1_555
H8_38 C16_38 1_555 1_555
C17_38 C16_38 1_555 1_555
C18_38 C17_38 1_555 1_555
H9_38 C18_38 1_555 1_555
C19_38 C14_38 1_555 1_555
H10_38 C19_38 1_555 1_555
F2_38 C36_38 1_555 1_555
N10_35 C20_38 1_555 1_555
N11_35 C25_38 1_555 1_555
N8_38 Cu2_38 1_555 1_555
N12_43 C30_38 1_555 1_555
C20_38 H11_38 1_555 1_555
C21_38 C20_38 1_555 1_555
H12_38 C21_38 1_555 1_555
C22_38 C21_38 1_555 1_555
H13_38 C22_38 1_555 1_555
C23_38 C22_38 1_555 1_555
C24_38 N10_35 1_555 1_555
C25_38 C24_38 1_555 1_555
C26_38 C25_38 1_555 1_555
C27_38 C26_38 1_555 1_555
H14_38 C27_38 1_555 1_555
C28_38 C27_38 1_555 1_555
H15_38 C28_38 1_555 1_555
C29_38 N11_35 1_555 1_555
H16_38 C29_38 1_555 1_555
C30_38 C23_38 1_555 1_555
C31_38 N8_38 1_555 1_555
C32_38 N8_38 1_555 1_555
C33_38 C32_38 1_555 1_555
C34_38 C33_38 1_555 1_555
H17_38 C34_38 1_555 1_555
C35_38 C34_38 1_555 1_555
H18_38 C35_38 1_555 1_555
C36_38 C35_38 1_555 1_555
C37_38 C36_38 1_555 1_555
H19_38 C37_38 1_555 1_555
C38_38 C33_38 1_555 1_555
H20_38 C38_38 1_555 1_555
N12_28 C13_38 1_555 1_555
C4_38 C5_38 1_555 1_555
C5_38 C6_38 1_555 1_555
C9_38 C10_38 1_555 1_555
C11_38 C12_38 1_555 1_555
C18_38 C19_38 1_555 1_555
N12_43 C32_38 1_555 1_555
C23_38 C24_38 1_555 1_555
C26_38 C31_38 1_555 1_555
C28_38 C29_38 1_555 1_555
C30_38 C31_38 1_555 1_555
C37_38 C38_38 1_555 1_555
Cu2_39 N4_39 1_555 1_555
F1_39 C17_39 1_555 1_555
N10_40 C1_39 1_555 1_555
N4_39 C12_39 1_555 1_555
N12_25 C11_39 1_555 1_555
C1_39 H1_39 1_555 1_555
C2_39 C1_39 1_555 1_555
H2_39 C2_39 1_555 1_555
C3_39 C2_39 1_555 1_555
H3_39 C3_39 1_555 1_555
C4_39 C3_39 1_555 1_555
C5_39 N10_40 1_555 1_555
C6_39 N11_40 1_555 1_555
C7_39 C6_39 1_555 1_555
C8_39 C7_39 1_555 1_555
H4_39 C8_39 1_555 1_555
C9_39 C8_39 1_555 1_555
H5_39 C9_39 1_555 1_555
C10_39 N11_40 1_555 1_555
H6_39 C10_39 1_555 1_555
C11_39 C4_39 1_555 1_555
C12_39 C7_39 1_555 1_555
C13_39 N4_39 1_555 1_555
C14_39 C13_39 1_555 1_555
C15_39 C14_39 1_555 1_555
H7_39 C15_39 1_555 1_555
C16_39 C15_39 1_555 1_555
H8_39 C16_39 1_555 1_555
C17_39 C16_39 1_555 1_555
C18_39 C17_39 1_555 1_555
H9_39 C18_39 1_555 1_555
C19_39 C14_39 1_555 1_555
H10_39 C19_39 1_555 1_555
F2_39 C36_39 1_555 1_555
N10_33 C20_39 1_555 1_555
N11_33 C25_39 1_555 1_555
N8_39 Cu2_39 1_555 1_555
N12_42 C30_39 1_555 1_555
C20_39 H11_39 1_555 1_555
C21_39 C20_39 1_555 1_555
H12_39 C21_39 1_555 1_555
C22_39 C21_39 1_555 1_555
H13_39 C22_39 1_555 1_555
C23_39 C22_39 1_555 1_555
C24_39 N10_33 1_555 1_555
C25_39 C24_39 1_555 1_555
C26_39 C25_39 1_555 1_555
C27_39 C26_39 1_555 1_555
H14_39 C27_39 1_555 1_555
C28_39 C27_39 1_555 1_555
H15_39 C28_39 1_555 1_555
C29_39 N11_33 1_555 1_555
H16_39 C29_39 1_555 1_555
C30_39 C23_39 1_555 1_555
C31_39 N8_39 1_555 1_555
C32_39 N8_39 1_555 1_555
C33_39 C32_39 1_555 1_555
C34_39 C33_39 1_555 1_555
H17_39 C34_39 1_555 1_555
C35_39 C34_39 1_555 1_555
H18_39 C35_39 1_555 1_555
C36_39 C35_39 1_555 1_555
C37_39 C36_39 1_555 1_555
C38_39 C33_39 1_555 1_555
H20_39 C38_39 1_555 1_555
N12_25 C13_39 1_555 1_555
C4_39 C5_39 1_555 1_555
C5_39 C6_39 1_555 1_555
C9_39 C10_39 1_555 1_555
C11_39 C12_39 1_555 1_555
C18_39 C19_39 1_555 1_555
N12_42 C32_39 1_555 1_555
C23_39 C24_39 1_555 1_555
C26_39 C31_39 1_555 1_555
C28_39 C29_39 1_555 1_555
C30_39 C31_39 1_555 1_555
C37_39 C38_39 1_555 1_555
Cu2_40 N4_40 1_555 1_555
F1_40 C17_40 1_555 1_555
C13_40 N4_40 1_555 1_555
C14_40 C13_40 1_555 1_555
C15_40 C14_40 1_555 1_555
H7_40 C15_40 1_555 1_555
C16_40 C15_40 1_555 1_555
H8_40 C16_40 1_555 1_555
C17_40 C16_40 1_555 1_555
C18_40 C17_40 1_555 1_555
H9_40 C18_40 1_555 1_555
C19_40 C14_40 1_555 1_555
H10_40 C19_40 1_555 1_555
F2_40 C36_40 1_555 1_555
N10_36 C20_40 1_555 1_555
N11_36 C25_40 1_555 1_555
N8_40 Cu2_40 1_555 1_555
N12_44 C30_40 1_555 1_555
C20_40 H11_40 1_555 1_555
C21_40 C20_40 1_555 1_555
H12_40 C21_40 1_555 1_555
C22_40 C21_40 1_555 1_555
H13_40 C22_40 1_555 1_555
C23_40 C22_40 1_555 1_555
C24_40 N10_36 1_555 1_555
C25_40 C24_40 1_555 1_555
C26_40 C25_40 1_555 1_555
C27_40 C26_40 1_555 1_555
H14_40 C27_40 1_555 1_555
C28_40 C27_40 1_555 1_555
H15_40 C28_40 1_555 1_555
C29_40 N11_36 1_555 1_555
H16_40 C29_40 1_555 1_555
C30_40 C23_40 1_555 1_555
C31_40 N8_40 1_555 1_555
C32_40 N8_40 1_555 1_555
C33_40 C32_40 1_555 1_555
C34_40 C33_40 1_555 1_555
H17_40 C34_40 1_555 1_555
C35_40 C34_40 1_555 1_555
H18_40 C35_40 1_555 1_555
C36_40 C35_40 1_555 1_555
C37_40 C36_40 1_555 1_555
H19_40 C37_40 1_555 1_555
C38_40 C33_40 1_555 1_555
H20_40 C38_40 1_555 1_555
C18_40 C19_40 1_555 1_555
N12_44 C32_40 1_555 1_555
C23_40 C24_40 1_555 1_555
C26_40 C31_40 1_555 1_555
C28_40 C29_40 1_555 1_555
C30_40 C31_40 1_555 1_555
C37_40 C38_40 1_555 1_555
N10_39 C1_40 1_555 1_555
N12_26 C11_40 1_555 1_555
C1_40 H1_40 1_555 1_555
C2_40 C1_40 1_555 1_555
H2_40 C2_40 1_555 1_555
C3_40 C2_40 1_555 1_555
H3_40 C3_40 1_555 1_555
C4_40 C3_40 1_555 1_555
C5_40 N10_39 1_555 1_555
C6_40 N11_39 1_555 1_555
C7_40 C6_40 1_555 1_555
C8_40 C7_40 1_555 1_555
C9_40 C8_40 1_555 1_555
H5_40 C9_40 1_555 1_555
C10_40 N11_39 1_555 1_555
H6_40 C10_40 1_555 1_555
C11_40 C4_40 1_555 1_555
C12_40 C7_40 1_555 1_555
C4_40 C5_40 1_555 1_555
C5_40 C6_40 1_555 1_555
C9_40 C10_40 1_555 1_555
C11_40 C12_40 1_555 1_555
N10_47 C1_41 1_555 1_555
N12_31 C11_41 1_555 1_555
C1_41 H1_41 1_555 1_555
C2_41 C1_41 1_555 1_555
H2_41 C2_41 1_555 1_555
C3_41 C2_41 1_555 1_555
H3_41 C3_41 1_555 1_555
C4_41 C3_41 1_555 1_555
C5_41 N10_47 1_555 1_555
C6_41 N11_47 1_555 1_555
C7_41 C6_41 1_555 1_555
C8_41 C7_41 1_555 1_555
C9_41 C8_41 1_555 1_555
H5_41 C9_41 1_555 1_555
C10_41 N11_47 1_555 1_555
H6_41 C10_41 1_555 1_555
C11_41 C4_41 1_555 1_555
C12_41 C7_41 1_555 1_555
C4_41 C5_41 1_555 1_555
C5_41 C6_41 1_555 1_555
C9_41 C10_41 1_555 1_555
C11_41 C12_41 1_555 1_555
Cu2_41 N4_41 1_555 1_555
F1_41 C17_41 1_555 1_555
C13_41 N4_41 1_555 1_555
C14_41 C13_41 1_555 1_555
C15_41 C14_41 1_555 1_555
H7_41 C15_41 1_555 1_555
C16_41 C15_41 1_555 1_555
H8_41 C16_41 1_555 1_555
C17_41 C16_41 1_555 1_555
C18_41 C17_41 1_555 1_555
H9_41 C18_41 1_555 1_555
C19_41 C14_41 1_555 1_555
H10_41 C19_41 1_555 1_555
F2_41 C36_41 1_555 1_555
N10_26 C20_41 1_555 1_555
N11_26 C25_41 1_555 1_555
N8_41 Cu2_41 1_555 1_555
N12_40 C30_41 1_555 1_555
C20_41 H11_41 1_555 1_555
C21_41 C20_41 1_555 1_555
H12_41 C21_41 1_555 1_555
C22_41 C21_41 1_555 1_555
H13_41 C22_41 1_555 1_555
C23_41 C22_41 1_555 1_555
C24_41 N10_26 1_555 1_555
C25_41 C24_41 1_555 1_555
C26_41 C25_41 1_555 1_555
C27_41 C26_41 1_555 1_555
H14_41 C27_41 1_555 1_555
C28_41 C27_41 1_555 1_555
H15_41 C28_41 1_555 1_555
C29_41 N11_26 1_555 1_555
H16_41 C29_41 1_555 1_555
C30_41 C23_41 1_555 1_555
C31_41 N8_41 1_555 1_555
C32_41 N8_41 1_555 1_555
C33_41 C32_41 1_555 1_555
C34_41 C33_41 1_555 1_555
H17_41 C34_41 1_555 1_555
C35_41 C34_41 1_555 1_555
H18_41 C35_41 1_555 1_555
C36_41 C35_41 1_555 1_555
C37_41 C36_41 1_555 1_555
C38_41 C33_41 1_555 1_555
H20_41 C38_41 1_555 1_555
C18_41 C19_41 1_555 1_555
N12_40 C32_41 1_555 1_555
C23_41 C24_41 1_555 1_555
C26_41 C31_41 1_555 1_555
C28_41 C29_41 1_555 1_555
C30_41 C31_41 1_555 1_555
C37_41 C38_41 1_555 1_555
Cu2_42 N4_42 1_555 1_555
F1_42 C17_42 1_555 1_555
N10_48 C1_42 1_555 1_555
N4_42 C12_42 1_555 1_555
N12_32 C11_42 1_555 1_555
C1_42 H1_42 1_555 1_555
C2_42 C1_42 1_555 1_555
H2_42 C2_42 1_555 1_555
C3_42 C2_42 1_555 1_555
H3_42 C3_42 1_555 1_555
C4_42 C3_42 1_555 1_555
C5_42 N10_48 1_555 1_555
C6_42 N11_48 1_555 1_555
C7_42 C6_42 1_555 1_555
C8_42 C7_42 1_555 1_555
H4_42 C8_42 1_555 1_555
C9_42 C8_42 1_555 1_555
H5_42 C9_42 1_555 1_555
C10_42 N11_48 1_555 1_555
H6_42 C10_42 1_555 1_555
C11_42 C4_42 1_555 1_555
C12_42 C7_42 1_555 1_555
C13_42 N4_42 1_555 1_555
C14_42 C13_42 1_555 1_555
C15_42 C14_42 1_555 1_555
H7_42 C15_42 1_555 1_555
C16_42 C15_42 1_555 1_555
H8_42 C16_42 1_555 1_555
C17_42 C16_42 1_555 1_555
C18_42 C17_42 1_555 1_555
H9_42 C18_42 1_555 1_555
C19_42 C14_42 1_555 1_555
H10_42 C19_42 1_555 1_555
F2_42 C36_42 1_555 1_555
N10_27 C20_42 1_555 1_555
N11_27 C25_42 1_555 1_555
N8_42 Cu2_42 1_555 1_555
N12_38 C30_42 1_555 1_555
C20_42 H11_42 1_555 1_555
C21_42 C20_42 1_555 1_555
H12_42 C21_42 1_555 1_555
C22_42 C21_42 1_555 1_555
H13_42 C22_42 1_555 1_555
C23_42 C22_42 1_555 1_555
C24_42 N10_27 1_555 1_555
C25_42 C24_42 1_555 1_555
C26_42 C25_42 1_555 1_555
C27_42 C26_42 1_555 1_555
H14_42 C27_42 1_555 1_555
C28_42 C27_42 1_555 1_555
H15_42 C28_42 1_555 1_555
C29_42 N11_27 1_555 1_555
H16_42 C29_42 1_555 1_555
C30_42 C23_42 1_555 1_555
C31_42 N8_42 1_555 1_555
C32_42 N8_42 1_555 1_555
C33_42 C32_42 1_555 1_555
C34_42 C33_42 1_555 1_555
H17_42 C34_42 1_555 1_555
C35_42 C34_42 1_555 1_555
H18_42 C35_42 1_555 1_555
C36_42 C35_42 1_555 1_555
C37_42 C36_42 1_555 1_555
H19_42 C37_42 1_555 1_555
C38_42 C33_42 1_555 1_555
H20_42 C38_42 1_555 1_555
N12_32 C13_42 1_555 1_555
C4_42 C5_42 1_555 1_555
C5_42 C6_42 1_555 1_555
C9_42 C10_42 1_555 1_555
C11_42 C12_42 1_555 1_555
C18_42 C19_42 1_555 1_555
N12_38 C32_42 1_555 1_555
C23_42 C24_42 1_555 1_555
C26_42 C31_42 1_555 1_555
C28_42 C29_42 1_555 1_555
C30_42 C31_42 1_555 1_555
C37_42 C38_42 1_555 1_555
Cu2_43 N4_43 1_555 1_555
F1_43 C17_43 1_555 1_555
N10_46 C1_43 1_555 1_555
N4_43 C12_43 1_555 1_555
N12_29 C11_43 1_555 1_555
C1_43 H1_43 1_555 1_555
C2_43 C1_43 1_555 1_555
H2_43 C2_43 1_555 1_555
C3_43 C2_43 1_555 1_555
H3_43 C3_43 1_555 1_555
C4_43 C3_43 1_555 1_555
C5_43 N10_46 1_555 1_555
C6_43 N11_46 1_555 1_555
C7_43 C6_43 1_555 1_555
C8_43 C7_43 1_555 1_555
H4_43 C8_43 1_555 1_555
C9_43 C8_43 1_555 1_555
H5_43 C9_43 1_555 1_555
C10_43 N11_46 1_555 1_555
H6_43 C10_43 1_555 1_555
C11_43 C4_43 1_555 1_555
C12_43 C7_43 1_555 1_555
C13_43 N4_43 1_555 1_555
C14_43 C13_43 1_555 1_555
C15_43 C14_43 1_555 1_555
H7_43 C15_43 1_555 1_555
C16_43 C15_43 1_555 1_555
H8_43 C16_43 1_555 1_555
C17_43 C16_43 1_555 1_555
C18_43 C17_43 1_555 1_555
H9_43 C18_43 1_555 1_555
C19_43 C14_43 1_555 1_555
H10_43 C19_43 1_555 1_555
F2_43 C36_43 1_555 1_555
N10_25 C20_43 1_555 1_555
N11_25 C25_43 1_555 1_555
N8_43 Cu2_43 1_555 1_555
N12_39 C30_43 1_555 1_555
C20_43 H11_43 1_555 1_555
C21_43 C20_43 1_555 1_555
H12_43 C21_43 1_555 1_555
C22_43 C21_43 1_555 1_555
H13_43 C22_43 1_555 1_555
C23_43 C22_43 1_555 1_555
C24_43 N10_25 1_555 1_555
C25_43 C24_43 1_555 1_555
C26_43 C25_43 1_555 1_555
C27_43 C26_43 1_555 1_555
H14_43 C27_43 1_555 1_555
C28_43 C27_43 1_555 1_555
H15_43 C28_43 1_555 1_555
C29_43 N11_25 1_555 1_555
H16_43 C29_43 1_555 1_555
C30_43 C23_43 1_555 1_555
C31_43 N8_43 1_555 1_555
C32_43 N8_43 1_555 1_555
C33_43 C32_43 1_555 1_555
C34_43 C33_43 1_555 1_555
H17_43 C34_43 1_555 1_555
C35_43 C34_43 1_555 1_555
H18_43 C35_43 1_555 1_555
C36_43 C35_43 1_555 1_555
C37_43 C36_43 1_555 1_555
C38_43 C33_43 1_555 1_555
H20_43 C38_43 1_555 1_555
N12_29 C13_43 1_555 1_555
C4_43 C5_43 1_555 1_555
C5_43 C6_43 1_555 1_555
C9_43 C10_43 1_555 1_555
C11_43 C12_43 1_555 1_555
C18_43 C19_43 1_555 1_555
N12_39 C32_43 1_555 1_555
C23_43 C24_43 1_555 1_555
C26_43 C31_43 1_555 1_555
C28_43 C29_43 1_555 1_555
C30_43 C31_43 1_555 1_555
C37_43 C38_43 1_555 1_555
Cu2_44 N4_44 1_555 1_555
F1_44 C17_44 1_555 1_555
C13_44 N4_44 1_555 1_555
C14_44 C13_44 1_555 1_555
C15_44 C14_44 1_555 1_555
H7_44 C15_44 1_555 1_555
C16_44 C15_44 1_555 1_555
H8_44 C16_44 1_555 1_555
C17_44 C16_44 1_555 1_555
C18_44 C17_44 1_555 1_555
H9_44 C18_44 1_555 1_555
C19_44 C14_44 1_555 1_555
H10_44 C19_44 1_555 1_555
F2_44 C36_44 1_555 1_555
N10_28 C20_44 1_555 1_555
N11_28 C25_44 1_555 1_555
N8_44 Cu2_44 1_555 1_555
N12_37 C30_44 1_555 1_555
C20_44 H11_44 1_555 1_555
C21_44 C20_44 1_555 1_555
H12_44 C21_44 1_555 1_555
C22_44 C21_44 1_555 1_555
H13_44 C22_44 1_555 1_555
C23_44 C22_44 1_555 1_555
C24_44 N10_28 1_555 1_555
C25_44 C24_44 1_555 1_555
C26_44 C25_44 1_555 1_555
C27_44 C26_44 1_555 1_555
H14_44 C27_44 1_555 1_555
C28_44 C27_44 1_555 1_555
H15_44 C28_44 1_555 1_555
C29_44 N11_28 1_555 1_555
H16_44 C29_44 1_555 1_555
C30_44 C23_44 1_555 1_555
C31_44 N8_44 1_555 1_555
C32_44 N8_44 1_555 1_555
C33_44 C32_44 1_555 1_555
C34_44 C33_44 1_555 1_555
H17_44 C34_44 1_555 1_555
C35_44 C34_44 1_555 1_555
H18_44 C35_44 1_555 1_555
C36_44 C35_44 1_555 1_555
C37_44 C36_44 1_555 1_555
H19_44 C37_44 1_555 1_555
C38_44 C33_44 1_555 1_555
H20_44 C38_44 1_555 1_555
C18_44 C19_44 1_555 1_555
N12_37 C32_44 1_555 1_555
C23_44 C24_44 1_555 1_555
C26_44 C31_44 1_555 1_555
C28_44 C29_44 1_555 1_555
C30_44 C31_44 1_555 1_555
C37_44 C38_44 1_555 1_555
N10_45 C1_44 1_555 1_555
N12_30 C11_44 1_555 1_555
C1_44 H1_44 1_555 1_555
C2_44 C1_44 1_555 1_555
H2_44 C2_44 1_555 1_555
C3_44 C2_44 1_555 1_555
H3_44 C3_44 1_555 1_555
C4_44 C3_44 1_555 1_555
C5_44 N10_45 1_555 1_555
C6_44 N11_45 1_555 1_555
C7_44 C6_44 1_555 1_555
C8_44 C7_44 1_555 1_555
C9_44 C8_44 1_555 1_555
H5_44 C9_44 1_555 1_555
C10_44 N11_45 1_555 1_555
H6_44 C10_44 1_555 1_555
C11_44 C4_44 1_555 1_555
C12_44 C7_44 1_555 1_555
C4_44 C5_44 1_555 1_555
C5_44 C6_44 1_555 1_555
C9_44 C10_44 1_555 1_555
C11_44 C12_44 1_555 1_555
N10_44 C1_45 1_555 1_555
N12_35 C11_45 1_555 1_555
C1_45 H1_45 1_555 1_555
C2_45 C1_45 1_555 1_555
H2_45 C2_45 1_555 1_555
C3_45 C2_45 1_555 1_555
H3_45 C3_45 1_555 1_555
C4_45 C3_45 1_555 1_555
C5_45 N10_44 1_555 1_555
C6_45 N11_44 1_555 1_555
C7_45 C6_45 1_555 1_555
C8_45 C7_45 1_555 1_555
C9_45 C8_45 1_555 1_555
H5_45 C9_45 1_555 1_555
C10_45 N11_44 1_555 1_555
H6_45 C10_45 1_555 1_555
C11_45 C4_45 1_555 1_555
C12_45 C7_45 1_555 1_555
C4_45 C5_45 1_555 1_555
C5_45 C6_45 1_555 1_555
C9_45 C10_45 1_555 1_555
C11_45 C12_45 1_555 1_555
Cu2_45 N4_45 1_555 1_555
F1_45 C17_45 1_555 1_555
C13_45 N4_45 1_555 1_555
C14_45 C13_45 1_555 1_555
C15_45 C14_45 1_555 1_555
H7_45 C15_45 1_555 1_555
C16_45 C15_45 1_555 1_555
H8_45 C16_45 1_555 1_555
C17_45 C16_45 1_555 1_555
C18_45 C17_45 1_555 1_555
H9_45 C18_45 1_555 1_555
C19_45 C14_45 1_555 1_555
H10_45 C19_45 1_555 1_555
F2_45 C36_45 1_555 1_555
N10_30 C20_45 1_555 1_555
N11_30 C25_45 1_555 1_555
N8_45 Cu2_45 1_555 1_555
N12_46 C30_45 1_555 1_555
C20_45 H11_45 1_555 1_555
C21_45 C20_45 1_555 1_555
H12_45 C21_45 1_555 1_555
C22_45 C21_45 1_555 1_555
H13_45 C22_45 1_555 1_555
C23_45 C22_45 1_555 1_555
C24_45 N10_30 1_555 1_555
C25_45 C24_45 1_555 1_555
C26_45 C25_45 1_555 1_555
C27_45 C26_45 1_555 1_555
H14_45 C27_45 1_555 1_555
C28_45 C27_45 1_555 1_555
H15_45 C28_45 1_555 1_555
C29_45 N11_30 1_555 1_555
H16_45 C29_45 1_555 1_555
C30_45 C23_45 1_555 1_555
C31_45 N8_45 1_555 1_555
C32_45 N8_45 1_555 1_555
C33_45 C32_45 1_555 1_555
C34_45 C33_45 1_555 1_555
H17_45 C34_45 1_555 1_555
C35_45 C34_45 1_555 1_555
H18_45 C35_45 1_555 1_555
C36_45 C35_45 1_555 1_555
C37_45 C36_45 1_555 1_555
C38_45 C33_45 1_555 1_555
H20_45 C38_45 1_555 1_555
C18_45 C19_45 1_555 1_555
N12_46 C32_45 1_555 1_555
C23_45 C24_45 1_555 1_555
C26_45 C31_45 1_555 1_555
C28_45 C29_45 1_555 1_555
C30_45 C31_45 1_555 1_555
C37_45 C38_45 1_555 1_555
Cu2_46 N4_46 1_555 1_555
F1_46 C17_46 1_555 1_555
N10_43 C1_46 1_555 1_555
N4_46 C12_46 1_555 1_555
N12_36 C11_46 1_555 1_555
C1_46 H1_46 1_555 1_555
C2_46 C1_46 1_555 1_555
H2_46 C2_46 1_555 1_555
C3_46 C2_46 1_555 1_555
H3_46 C3_46 1_555 1_555
C4_46 C3_46 1_555 1_555
C5_46 N10_43 1_555 1_555
C6_46 N11_43 1_555 1_555
C7_46 C6_46 1_555 1_555
C8_46 C7_46 1_555 1_555
H4_46 C8_46 1_555 1_555
C9_46 C8_46 1_555 1_555
H5_46 C9_46 1_555 1_555
C10_46 N11_43 1_555 1_555
H6_46 C10_46 1_555 1_555
C11_46 C4_46 1_555 1_555
C12_46 C7_46 1_555 1_555
C13_46 N4_46 1_555 1_555
C14_46 C13_46 1_555 1_555
C15_46 C14_46 1_555 1_555
H7_46 C15_46 1_555 1_555
C16_46 C15_46 1_555 1_555
H8_46 C16_46 1_555 1_555
C17_46 C16_46 1_555 1_555
C18_46 C17_46 1_555 1_555
H9_46 C18_46 1_555 1_555
C19_46 C14_46 1_555 1_555
H10_46 C19_46 1_555 1_555
F2_46 C36_46 1_555 1_555
N10_31 C20_46 1_555 1_555
N11_31 C25_46 1_555 1_555
N8_46 Cu2_46 1_555 1_555
N12_48 C30_46 1_555 1_555
C20_46 H11_46 1_555 1_555
C21_46 C20_46 1_555 1_555
H12_46 C21_46 1_555 1_555
C22_46 C21_46 1_555 1_555
H13_46 C22_46 1_555 1_555
C23_46 C22_46 1_555 1_555
C24_46 N10_31 1_555 1_555
C25_46 C24_46 1_555 1_555
C26_46 C25_46 1_555 1_555
C27_46 C26_46 1_555 1_555
H14_46 C27_46 1_555 1_555
C28_46 C27_46 1_555 1_555
H15_46 C28_46 1_555 1_555
C29_46 N11_31 1_555 1_555
H16_46 C29_46 1_555 1_555
C30_46 C23_46 1_555 1_555
C31_46 N8_46 1_555 1_555
C32_46 N8_46 1_555 1_555
C33_46 C32_46 1_555 1_555
C34_46 C33_46 1_555 1_555
H17_46 C34_46 1_555 1_555
C35_46 C34_46 1_555 1_555
H18_46 C35_46 1_555 1_555
C36_46 C35_46 1_555 1_555
C37_46 C36_46 1_555 1_555
H19_46 C37_46 1_555 1_555
C38_46 C33_46 1_555 1_555
H20_46 C38_46 1_555 1_555
N12_36 C13_46 1_555 1_555
C4_46 C5_46 1_555 1_555
C5_46 C6_46 1_555 1_555
C9_46 C10_46 1_555 1_555
C11_46 C12_46 1_555 1_555
C18_46 C19_46 1_555 1_555
N12_48 C32_46 1_555 1_555
C23_46 C24_46 1_555 1_555
C26_46 C31_46 1_555 1_555
C28_46 C29_46 1_555 1_555
C30_46 C31_46 1_555 1_555
C37_46 C38_46 1_555 1_555
Cu2_47 N4_47 1_555 1_555
F1_47 C17_47 1_555 1_555
N10_41 C1_47 1_555 1_555
N4_47 C12_47 1_555 1_555
N12_33 C11_47 1_555 1_555
C1_47 H1_47 1_555 1_555
C2_47 C1_47 1_555 1_555
H2_47 C2_47 1_555 1_555
C3_47 C2_47 1_555 1_555
H3_47 C3_47 1_555 1_555
C4_47 C3_47 1_555 1_555
C5_47 N10_41 1_555 1_555
C6_47 N11_41 1_555 1_555
C7_47 C6_47 1_555 1_555
C8_47 C7_47 1_555 1_555
H4_47 C8_47 1_555 1_555
C9_47 C8_47 1_555 1_555
H5_47 C9_47 1_555 1_555
C10_47 N11_41 1_555 1_555
H6_47 C10_47 1_555 1_555
C11_47 C4_47 1_555 1_555
C12_47 C7_47 1_555 1_555
C13_47 N4_47 1_555 1_555
C14_47 C13_47 1_555 1_555
C15_47 C14_47 1_555 1_555
H7_47 C15_47 1_555 1_555
C16_47 C15_47 1_555 1_555
H8_47 C16_47 1_555 1_555
C17_47 C16_47 1_555 1_555
C18_47 C17_47 1_555 1_555
H9_47 C18_47 1_555 1_555
C19_47 C14_47 1_555 1_555
H10_47 C19_47 1_555 1_555
F2_47 C36_47 1_555 1_555
N10_29 C20_47 1_555 1_555
N11_29 C25_47 1_555 1_555
N8_47 Cu2_47 1_555 1_555
N12_45 C30_47 1_555 1_555
C20_47 H11_47 1_555 1_555
C21_47 C20_47 1_555 1_555
H12_47 C21_47 1_555 1_555
C22_47 C21_47 1_555 1_555
H13_47 C22_47 1_555 1_555
C23_47 C22_47 1_555 1_555
C24_47 N10_29 1_555 1_555
C25_47 C24_47 1_555 1_555
C26_47 C25_47 1_555 1_555
C27_47 C26_47 1_555 1_555
H14_47 C27_47 1_555 1_555
C28_47 C27_47 1_555 1_555
H15_47 C28_47 1_555 1_555
C29_47 N11_29 1_555 1_555
H16_47 C29_47 1_555 1_555
C30_47 C23_47 1_555 1_555
C31_47 N8_47 1_555 1_555
C32_47 N8_47 1_555 1_555
C33_47 C32_47 1_555 1_555
C34_47 C33_47 1_555 1_555
H17_47 C34_47 1_555 1_555
C35_47 C34_47 1_555 1_555
H18_47 C35_47 1_555 1_555
C36_47 C35_47 1_555 1_555
C37_47 C36_47 1_555 1_555
C38_47 C33_47 1_555 1_555
H20_47 C38_47 1_555 1_555
N12_33 C13_47 1_555 1_555
C4_47 C5_47 1_555 1_555
C5_47 C6_47 1_555 1_555
C9_47 C10_47 1_555 1_555
C11_47 C12_47 1_555 1_555
C18_47 C19_47 1_555 1_555
N12_45 C32_47 1_555 1_555
C23_47 C24_47 1_555 1_555
C26_47 C31_47 1_555 1_555
C28_47 C29_47 1_555 1_555
C30_47 C31_47 1_555 1_555
C37_47 C38_47 1_555 1_555
Cu2_48 N4_48 1_555 1_555
F1_48 C17_48 1_555 1_555
C13_48 N4_48 1_555 1_555
C14_48 C13_48 1_555 1_555
C15_48 C14_48 1_555 1_555
H7_48 C15_48 1_555 1_555
C16_48 C15_48 1_555 1_555
H8_48 C16_48 1_555 1_555
C17_48 C16_48 1_555 1_555
C18_48 C17_48 1_555 1_555
H9_48 C18_48 1_555 1_555
C19_48 C14_48 1_555 1_555
H10_48 C19_48 1_555 1_555
F2_48 C36_48 1_555 1_555
N10_32 C20_48 1_555 1_555
N11_32 C25_48 1_555 1_555
N8_48 Cu2_48 1_555 1_555
N12_47 C30_48 1_555 1_555
C20_48 H11_48 1_555 1_555
C21_48 C20_48 1_555 1_555
H12_48 C21_48 1_555 1_555
C22_48 C21_48 1_555 1_555
H13_48 C22_48 1_555 1_555
C23_48 C22_48 1_555 1_555
C24_48 N10_32 1_555 1_555
C25_48 C24_48 1_555 1_555
C26_48 C25_48 1_555 1_555
C27_48 C26_48 1_555 1_555
H14_48 C27_48 1_555 1_555
C28_48 C27_48 1_555 1_555
H15_48 C28_48 1_555 1_555
C29_48 N11_32 1_555 1_555
H16_48 C29_48 1_555 1_555
C30_48 C23_48 1_555 1_555
C31_48 N8_48 1_555 1_555
C32_48 N8_48 1_555 1_555
C33_48 C32_48 1_555 1_555
C34_48 C33_48 1_555 1_555
H17_48 C34_48 1_555 1_555
C35_48 C34_48 1_555 1_555
H18_48 C35_48 1_555 1_555
C36_48 C35_48 1_555 1_555
C37_48 C36_48 1_555 1_555
H19_48 C37_48 1_555 1_555
C38_48 C33_48 1_555 1_555
H20_48 C38_48 1_555 1_555
C18_48 C19_48 1_555 1_555
N12_47 C32_48 1_555 1_555
C23_48 C24_48 1_555 1_555
C26_48 C31_48 1_555 1_555
C28_48 C29_48 1_555 1_555
C30_48 C31_48 1_555 1_555
C37_48 C38_48 1_555 1_555
N10_42 C1_48 1_555 1_555
N12_34 C11_48 1_555 1_555
C1_48 H1_48 1_555 1_555
C2_48 C1_48 1_555 1_555
H2_48 C2_48 1_555 1_555
C3_48 C2_48 1_555 1_555
H3_48 C3_48 1_555 1_555
C4_48 C3_48 1_555 1_555
C5_48 N10_42 1_555 1_555
C6_48 N11_42 1_555 1_555
C7_48 C6_48 1_555 1_555
C8_48 C7_48 1_555 1_555
C9_48 C8_48 1_555 1_555
H5_48 C9_48 1_555 1_555
C10_48 N11_42 1_555 1_555
H6_48 C10_48 1_555 1_555
C11_48 C4_48 1_555 1_555
C12_48 C7_48 1_555 1_555
C4_48 C5_48 1_555 1_555
C5_48 C6_48 1_555 1_555
C9_48 C10_48 1_555 1_555
C11_48 C12_48 1_555 1_555

#END
