
###############################################################################
#
# This file contains modified crystal structure data generated from the
# MOF subset of the Cambridge Structural Database (CSD) v543 
# hosted by the Cambridge Crystallographic Data Centre (CCDC).
#
# This work is licensed under the Creative Commons
# Attribution-NonCommercial-ShareAlike 4.0 International License.
# To view a copy of this license, visit
# http://creativecommons.org/licenses/by-nc-sa/4.0/
# or send a letter to
# Creative Commons, PO Box 1866, Mountain View, CA 94042, USA.
#
# CIF created using the CSD Python API on 29 September 2022
# The structure has been converted into the P1 space group
# The structure has a 3D framework
# The original CSD entry ACENIF is in the orthorhombic crystal system
# The framework has been calculated to contain at least 10.0% void space
# The void calculation uses a probe of radius 1.32A, grid spacing 0.4
#
###############################################################################

data_ACENIF
_chemical_formula_moiety         '(C314 H320 N32 O159 Zn48)n'
_symmetry_cell_setting           triclinic
_symmetry_space_group_name_H-M   'P 1'
_symmetry_Int_Tables_number      1
_space_group_name_Hall           'P 1'
loop_
_symmetry_equiv_pos_site_id
_symmetry_equiv_pos_as_xyz
1 x,y,z
_cell_length_a                   16.627(1)
_cell_length_b                   27.141(2)
_cell_length_c                   28.356(2)
_cell_angle_alpha                90
_cell_angle_beta                 90
_cell_angle_gamma                90
_cell_volume                     12796.3
loop_
_atom_site_label
_atom_site_type_symbol
_atom_site_fract_x
_atom_site_fract_y
_atom_site_fract_z
C16 C 0.0642(8) 0.2687(7) 0.8254(6)
H12 H 0.0500(18) 0.2592(30) 0.8569(8)
H13 H 0.0790(32) 0.3029(8) 0.8250(23)
H14 H 0.1088(17) 0.2491(24) 0.8148(18)
C32 C 0.0113(10) 0.4217(7) 0.7752(6)
H30 H 0.0286(61) 0.4303(44) 0.7439(6)
H31 H 0.0551(36) 0.4068(22) 0.7920(48)
O15 O 0.0171(5) 0.3497(3) 0.6307(3)
C33 C 0.0191(7) 0.3040(5) 0.6310(4)
C34 C 0.0725(10) 0.2751(5) 0.5982(6)
H32 H 0.0765(52) 0.2417(11) 0.6091(22)
H33 H 0.0501(32) 0.2755(32) 0.5670(10)
H34 H 0.1251(19) 0.2897(23) 0.5977(28)
Zn8 Zn 0.05617(7) 0.39867(4) 0.58368(4)
Zn1 Zn 0.84092(7) 0.21298(5) 0.77813(4)
Zn2 Zn 0.69383(7) 0.14867(4) 0.83368(4)
Zn3 Zn 0.90271(8) 0.30554(5) 0.70706(4)
O1 O 0.7639(4) 0.2082(2) 0.8286(2)
N1 N 0.6399(5) 0.1976(3) 0.8832(3)
C1 C 0.5761(8) 0.1876(5) 0.9110(5)
H1 H 0.5511(8) 0.1571(5) 0.9081(5)
C2 C 0.5476(8) 0.2194(5) 0.9424(5)
H2 H 0.5025(8) 0.2115(5) 0.9603(5)
C3 C 0.5866(8) 0.2656(6) 0.9484(5)
H3 H 0.5683(8) 0.2880(6) 0.9708(5)
C4 C 0.6506(7) 0.2762(5) 0.9211(4)
H4 H 0.6765(7) 0.3064(5) 0.9233(4)
C5 C 0.6772(6) 0.2399(3) 0.8890(3)
C6 C 0.7500 0.2500 0.8562(4)
O2 O 0.8196(4) 0.2552(2) 0.7253(2)
N2 N 0.8071(5) 0.3242(3) 0.6617(3)
C7 C 0.8067(9) 0.3644(6) 0.6323(5)
H5 H 0.8526(9) 0.3837(6) 0.6292(5)
C8 C 0.7413(10) 0.3754(6) 0.6085(7)
H6 H 0.7402(10) 0.4043(6) 0.5908(7)
C9 C 0.6697(10) 0.3434(6) 0.6090(6)
H7 H 0.6254(10) 0.3488(6) 0.5897(6)
C10 C 0.6739(8) 0.3043(4) 0.6411(4)
H8 H 0.6288(8) 0.2846(4) 0.6457(4)
C11 C 0.7419(6) 0.2945(3) 0.6655(3)
C12 C 0.7500 0.2500 0.6976(4)
O3 O 0.5804(6) 0.1265(3) 0.7328(3)
O4 O 0.5870(4) 0.1265(3) 0.8111(2)
C13 C 0.5591(6) 0.1150(4) 0.7722(4)
C14 C 0.4887(10) 0.0783(7) 0.7752(6)
H9 H 0.5059(29) 0.0492(25) 0.7915(48)
H10 H 0.4714(61) 0.0697(44) 0.7439(6)
H11 H 0.4449(36) 0.0932(22) 0.7920(48)
O5 O 0.9888(5) 0.2811(3) 0.7568(3)
O6 O 0.9408(5) 0.2317(3) 0.8102(3)
C15 C 0.9938(6) 0.2607(4) 0.7933(4)
O7 O 0.7566(5) 0.1109(3) 0.7812(4)
O8 O 0.8676(5) 0.1467(3) 0.7562(3)
C17 C 0.8228(7) 0.1110(4) 0.7643(5)
C18 C 0.8577(12) 0.0635(6) 0.7463(10)
H15 H 0.9148(13) 0.0669(12) 0.7428(31)
H16 H 0.8341(39) 0.0557(16) 0.7163(16)
H17 H 0.8463(46) 0.0375(9) 0.7683(16)
O9 O 0.7329(5) 0.0997(3) 0.8807(3)
O10 O 0.7742(5) 0.0279(3) 0.9084(3)
C19 C 0.7309(7) 0.0540(5) 0.8810(4)
C20 C 0.6775(10) 0.0251(5) 0.8482(6)
H19 H 0.6999(32) 0.0255(32) 0.8170(10)
H20 H 0.6249(19) 0.0397(23) 0.8477(28)
O11 O 0.7361(4) 0.2918(2) 0.8286(2)
C21 C 0.8228(6) 0.2601(3) 0.8890(3)
N3 N 0.8601(5) 0.3024(3) 0.8832(3)
C22 C 0.9239(8) 0.3124(5) 0.9110(5)
H21 H 0.9489(8) 0.3429(5) 0.9081(5)
C23 C 0.9524(8) 0.2806(5) 0.9424(5)
H22 H 0.9975(8) 0.2885(5) 0.9603(5)
C24 C 0.9134(8) 0.2344(6) 0.9484(5)
H23 H 0.9317(8) 0.2120(6) 0.9708(5)
C25 C 0.8494(7) 0.2238(5) 0.9211(4)
H24 H 0.8235(7) 0.1936(5) 0.9233(4)
O12 O 0.6804(4) 0.2448(2) 0.7253(2)
C26 C 0.7581(6) 0.2055(3) 0.6655(3)
N4 N 0.6929(5) 0.1758(3) 0.6617(3)
C27 C 0.6933(9) 0.1356(6) 0.6323(5)
H25 H 0.6474(9) 0.1163(6) 0.6292(5)
C28 C 0.7587(10) 0.1246(6) 0.6085(7)
H26 H 0.7598(10) 0.0957(6) 0.5908(7)
C29 C 0.8303(10) 0.1566(6) 0.6090(6)
H27 H 0.8746(10) 0.1512(6) 0.5897(6)
C30 C 0.8261(8) 0.1957(4) 0.6411(4)
H28 H 0.8712(8) 0.2154(4) 0.6457(4)
Zn4 Zn 0.65908(7) 0.28702(5) 0.77813(4)
Zn5 Zn 0.80617(7) 0.35133(4) 0.83368(4)
Zn6 Zn 0.59729(8) 0.19446(5) 0.70706(4)
O13 O 0.9196(6) 0.3735(3) 0.7328(3)
O14 O 0.9130(4) 0.3735(3) 0.8111(2)
C31 C 0.9409(6) 0.3850(4) 0.7722(4)
H29 H 0.9941(29) 0.4508(25) 0.7915(48)
O16 O 0.9758(5) 0.2779(3) 0.6584(3)
O17 O 0.5112(5) 0.2189(3) 0.7568(3)
O18 O 0.5592(5) 0.2683(3) 0.8102(3)
C35 C 0.5062(6) 0.2393(4) 0.7933(4)
C36 C 0.4358(8) 0.2313(7) 0.8254(6)
H35 H 0.4500(18) 0.2408(30) 0.8569(8)
H36 H 0.4210(32) 0.1971(8) 0.8250(23)
H37 H 0.3912(17) 0.2509(24) 0.8148(18)
O19 O 0.7434(5) 0.3891(3) 0.7812(4)
O20 O 0.6324(5) 0.3533(3) 0.7562(3)
C37 C 0.6772(7) 0.3890(4) 0.7643(5)
C38 C 0.6423(12) 0.4365(6) 0.7463(10)
H38 H 0.5852(13) 0.4331(12) 0.7428(31)
H39 H 0.6659(39) 0.4443(16) 0.7163(16)
H40 H 0.6537(46) 0.4625(9) 0.7683(16)
Zn7 Zn 0.84729(8) 0.05554(5) 0.95706(4)
O21 O 0.7671(5) 0.4003(3) 0.8807(3)
O22 O 0.5242(5) 0.2221(3) 0.6584(3)
Zn1_2 Zn 0.15908(7) 0.78702(5) 0.77813(4)
Zn2_2 Zn 0.30617(7) 0.85133(4) 0.83368(4)
Zn3_2 Zn 0.09729(8) 0.69446(5) 0.70706(4)
O1_2 O 0.2361(4) 0.7918(2) 0.8286(2)
N1_2 N 0.3601(5) 0.8024(3) 0.8832(3)
C1_2 C 0.4239(8) 0.8124(5) 0.9110(5)
H1_2 H 0.4489(8) 0.8429(5) 0.9081(5)
C2_2 C 0.4524(8) 0.7806(5) 0.9424(5)
H2_2 H 0.4975(8) 0.7885(5) 0.9603(5)
C3_2 C 0.4134(8) 0.7344(6) 0.9484(5)
H3_2 H 0.4317(8) 0.7120(6) 0.9708(5)
C4_2 C 0.3494(7) 0.7238(5) 0.9211(4)
H4_2 H 0.3235(7) 0.6936(5) 0.9233(4)
C5_2 C 0.3228(6) 0.7601(3) 0.8890(3)
C6_2 C 0.2500 0.7500 0.8562(4)
O2_2 O 0.1804(4) 0.7448(2) 0.7253(2)
N2_2 N 0.1929(5) 0.6758(3) 0.6617(3)
C7_2 C 0.1933(9) 0.6356(6) 0.6323(5)
H5_2 H 0.1474(9) 0.6163(6) 0.6292(5)
C8_2 C 0.2587(10) 0.6246(6) 0.6085(7)
H6_2 H 0.2598(10) 0.5957(6) 0.5908(7)
C9_2 C 0.3303(10) 0.6566(6) 0.6090(6)
H7_2 H 0.3746(10) 0.6512(6) 0.5897(6)
C10_2 C 0.3261(8) 0.6957(4) 0.6411(4)
H8_2 H 0.3712(8) 0.7154(4) 0.6457(4)
C11_2 C 0.2581(6) 0.7055(3) 0.6655(3)
C12_2 C 0.2500 0.7500 0.6976(4)
O3_2 O 0.4196(6) 0.8735(3) 0.7328(3)
O4_2 O 0.4130(4) 0.8735(3) 0.8111(2)
C13_2 C 0.4409(6) 0.8850(4) 0.7722(4)
C14_2 C 0.5113(10) 0.9217(7) 0.7752(6)
H9_2 H 0.4941(29) 0.9508(25) 0.7915(48)
H10_2 H 0.5286(61) 0.9303(44) 0.7439(6)
H11_2 H 0.5551(36) 0.9068(22) 0.7920(48)
O5_2 O 0.0112(5) 0.7189(3) 0.7568(3)
O6_2 O 0.0592(5) 0.7683(3) 0.8102(3)
C15_2 C 0.0062(6) 0.7393(4) 0.7933(4)
O7_2 O 0.2434(5) 0.8891(3) 0.7812(4)
O8_2 O 0.1324(5) 0.8533(3) 0.7562(3)
C17_2 C 0.1772(7) 0.8890(4) 0.7643(5)
C18_2 C 0.1423(12) 0.9365(6) 0.7463(10)
H15_2 H 0.0852(13) 0.9331(12) 0.7428(31)
H16_2 H 0.1659(39) 0.9443(16) 0.7163(16)
H17_2 H 0.1537(46) 0.9625(9) 0.7683(16)
O9_2 O 0.2671(5) 0.9003(3) 0.8807(3)
O10_2 O 0.2258(5) 0.9721(3) 0.9084(3)
C19_2 C 0.2691(7) 0.9460(5) 0.8810(4)
C20_2 C 0.3225(10) 0.9749(5) 0.8482(6)
H19_2 H 0.3001(32) 0.9745(32) 0.8170(10)
H20_2 H 0.3751(19) 0.9603(23) 0.8477(28)
O11_2 O 0.2639(4) 0.7082(2) 0.8286(2)
C21_2 C 0.1772(6) 0.7399(3) 0.8890(3)
N3_2 N 0.1399(5) 0.6976(3) 0.8832(3)
C22_2 C 0.0761(8) 0.6876(5) 0.9110(5)
H21_2 H 0.0511(8) 0.6571(5) 0.9081(5)
C23_2 C 0.0476(8) 0.7194(5) 0.9424(5)
H22_2 H 0.0025(8) 0.7115(5) 0.9603(5)
C24_2 C 0.0866(8) 0.7656(6) 0.9484(5)
H23_2 H 0.0683(8) 0.7880(6) 0.9708(5)
C25_2 C 0.1506(7) 0.7762(5) 0.9211(4)
H24_2 H 0.1765(7) 0.8064(5) 0.9233(4)
O12_2 O 0.3196(4) 0.7552(2) 0.7253(2)
C26_2 C 0.2419(6) 0.7945(3) 0.6655(3)
N4_2 N 0.3071(5) 0.8242(3) 0.6617(3)
C27_2 C 0.3067(9) 0.8644(6) 0.6323(5)
H25_2 H 0.3526(9) 0.8837(6) 0.6292(5)
C28_2 C 0.2413(10) 0.8754(6) 0.6085(7)
H26_2 H 0.2402(10) 0.9043(6) 0.5908(7)
C29_2 C 0.1697(10) 0.8434(6) 0.6090(6)
H27_2 H 0.1254(10) 0.8488(6) 0.5897(6)
C30_2 C 0.1739(8) 0.8043(4) 0.6411(4)
H28_2 H 0.1288(8) 0.7846(4) 0.6457(4)
Zn4_2 Zn 0.34092(7) 0.71298(5) 0.77813(4)
Zn5_2 Zn 0.19383(7) 0.64867(4) 0.83368(4)
Zn6_2 Zn 0.40271(8) 0.80554(5) 0.70706(4)
O13_2 O 0.0804(6) 0.6265(3) 0.7328(3)
O14_2 O 0.0870(4) 0.6265(3) 0.8111(2)
C31_2 C 0.0591(6) 0.6150(4) 0.7722(4)
H29_2 H 0.0059(29) 0.5492(25) 0.7915(48)
O16_2 O 0.0242(5) 0.7221(3) 0.6584(3)
O17_2 O 0.4888(5) 0.7811(3) 0.7568(3)
O18_2 O 0.4408(5) 0.7317(3) 0.8102(3)
C35_2 C 0.4938(6) 0.7607(4) 0.7933(4)
C36_2 C 0.5642(8) 0.7687(7) 0.8254(6)
H35_2 H 0.5500(18) 0.7592(30) 0.8569(8)
H36_2 H 0.5790(32) 0.8029(8) 0.8250(23)
H37_2 H 0.6088(17) 0.7491(24) 0.8148(18)
O19_2 O 0.2566(5) 0.6109(3) 0.7812(4)
O20_2 O 0.3676(5) 0.6467(3) 0.7562(3)
C37_2 C 0.3228(7) 0.6110(4) 0.7643(5)
C38_2 C 0.3577(12) 0.5635(6) 0.7463(10)
H38_2 H 0.4148(13) 0.5669(12) 0.7428(31)
H39_2 H 0.3341(39) 0.5557(16) 0.7163(16)
H40_2 H 0.3463(46) 0.5375(9) 0.7683(16)
Zn7_2 Zn 0.15271(8) 0.94446(5) 0.95706(4)
O21_2 O 0.2329(5) 0.5997(3) 0.8807(3)
O22_2 O 0.4758(5) 0.7779(3) 0.6584(3)
C16_2 C 0.9358(8) 0.7313(7) 0.8254(6)
H12_2 H 0.9500(18) 0.7408(30) 0.8569(8)
H13_2 H 0.9210(32) 0.6971(8) 0.8250(23)
H14_2 H 0.8912(17) 0.7509(24) 0.8148(18)
C32_2 C 0.9887(10) 0.5783(7) 0.7752(6)
H30_2 H 0.9714(61) 0.5697(44) 0.7439(6)
H31_2 H 0.9449(36) 0.5932(22) 0.7920(48)
O15_2 O 0.9829(5) 0.6503(3) 0.6307(3)
C33_2 C 0.9809(7) 0.6960(5) 0.6310(4)
C34_2 C 0.9275(10) 0.7249(5) 0.5982(6)
H32_2 H 0.9235(52) 0.7583(11) 0.6091(22)
H33_2 H 0.9499(32) 0.7245(32) 0.5670(10)
H34_2 H 0.8749(19) 0.7103(23) 0.5977(28)
Zn8_2 Zn 0.94383(7) 0.60133(4) 0.58368(4)
Zn1_3 Zn 0.09092(7) 0.03702(5) 0.02813(4)
O1_3 O 0.0139(4) 0.0418(2) 0.0786(2)
C6_3 C 0.0000 0.0000 0.1062(4)
O6_3 O 0.1908(5) 0.0183(3) 0.0602(3)
H14_3 H 0.3588(17) 0.0009(24) 0.0648(18)
O7_3 O 0.0066(5) 0.1391(3) 0.0312(4)
O8_3 O 0.1176(5) 0.1033(3) 0.0062(3)
C17_3 C 0.0728(7) 0.1390(4) 0.0143(5)
H17_3 H 0.0963(46) 0.2125(9) 0.0183(16)
O10_3 O 0.0242(5) 0.2221(3) 0.1584(3)
C24_3 C 0.1634(8) 0.0156(6) 0.1984(5)
H23_3 H 0.1817(8) 0.0380(6) 0.2208(5)
C25_3 C 0.0994(7) 0.0262(5) 0.1711(4)
H24_3 H 0.0735(7) 0.0564(5) 0.1733(4)
Zn7_3 Zn 0.09729(8) 0.19446(5) 0.20706(4)
O2_3 O 0.0696(4) 0.9948(2) 0.9753(2)
N2_3 N 0.0571(5) 0.9258(3) 0.9117(3)
C7_3 C 0.0567(9) 0.8856(6) 0.8823(5)
H5_3 H 0.1026(9) 0.8663(6) 0.8792(5)
C12_3 C 0.0000 1.0000 0.9476(4)
O13_3 O 0.1696(6) 0.8765(3) 0.9828(3)
H30_3 H 0.2786(61) 0.8197(44) 0.9939(6)
C12_4 C 1.0000 0.0000 0.9476(4)
O3_3 O 0.8304(6) 0.1235(3) 0.9828(3)
H10_3 H 0.7214(61) 0.1803(44) 0.9939(6)
O12_3 O 0.9304(4) 0.0052(2) 0.9753(2)
N4_3 N 0.9429(5) 0.0742(3) 0.9117(3)
C27_3 C 0.9433(9) 0.1144(6) 0.8823(5)
H25_3 H 0.8974(9) 0.1337(6) 0.8792(5)
C3_3 C 0.8366(8) 0.9844(6) 0.1984(5)
H3_3 H 0.8183(8) 0.9620(6) 0.2208(5)
C4_3 C 0.9006(7) 0.9738(5) 0.1711(4)
H4_3 H 0.9265(7) 0.9436(5) 0.1733(4)
C6_4 C 1.0000 1.0000 0.1062(4)
O11_3 O 0.9861(4) 0.9582(2) 0.0786(2)
Zn4_3 Zn 0.90908(7) 0.96298(5) 0.02813(4)
O18_3 O 0.8092(5) 0.9817(3) 0.0602(3)
H37_3 H 0.6412(17) 0.9991(24) 0.0648(18)
O19_3 O 0.9934(5) 0.8609(3) 0.0312(4)
O20_3 O 0.8824(5) 0.8967(3) 0.0062(3)
C37_3 C 0.9272(7) 0.8610(4) 0.0143(5)
H40_3 H 0.9037(46) 0.7875(9) 0.0183(16)
Zn1_4 Zn 0.40908(7) 0.46298(5) 0.02813(4)
Zn2_3 Zn 0.55617(7) 0.39867(4) 0.08368(4)
O1_4 O 0.4861(4) 0.4582(2) 0.0786(2)
N1_3 N 0.6101(5) 0.4476(3) 0.1332(3)
C1_3 C 0.6739(8) 0.4376(5) 0.1610(5)
H1_3 H 0.6989(8) 0.4071(5) 0.1581(5)
C2_3 C 0.7024(8) 0.4694(5) 0.1924(5)
H2_3 H 0.7475(8) 0.4615(5) 0.2103(5)
C3_4 C 0.6634(8) 0.5156(6) 0.1984(5)
H3_4 H 0.6817(8) 0.5380(6) 0.2208(5)
C4_4 C 0.5994(7) 0.5262(5) 0.1711(4)
H4_4 H 0.5735(7) 0.5564(5) 0.1733(4)
C5_3 C 0.5728(6) 0.4899(3) 0.1390(3)
C6_5 C 0.5000 0.5000 0.1062(4)
O4_3 O 0.6630(4) 0.3765(3) 0.0611(2)
C13_3 C 0.6909(6) 0.3650(4) 0.0222(4)
C14_3 C 0.7613(10) 0.3283(7) 0.0252(6)
H9_3 H 0.7441(29) 0.2992(25) 0.0415(48)
H11_3 H 0.8051(36) 0.3432(22) 0.0420(48)
O5_3 O 0.2612(5) 0.5311(3) 0.0068(3)
O6_4 O 0.3092(5) 0.4817(3) 0.0602(3)
C15_3 C 0.2562(6) 0.5107(4) 0.0433(4)
C16_3 C 0.1858(8) 0.5187(7) 0.0754(6)
H12_3 H 0.2000(18) 0.5092(30) 0.1069(8)
H13_3 H 0.1710(32) 0.5529(8) 0.0750(23)
H14_4 H 0.1412(17) 0.4991(24) 0.0648(18)
O7_4 O 0.4934(5) 0.3609(3) 0.0312(4)
O8_4 O 0.3824(5) 0.3967(3) 0.0062(3)
C17_4 C 0.4272(7) 0.3610(4) 0.0143(5)
H17_4 H 0.4037(46) 0.2875(9) 0.0183(16)
O9_3 O 0.5171(5) 0.3497(3) 0.1307(3)
O10_4 O 0.4758(5) 0.2779(3) 0.1584(3)
C19_3 C 0.5191(7) 0.3040(5) 0.1310(4)
C20_3 C 0.5725(10) 0.2751(5) 0.0982(6)
H18 H 0.5765(52) 0.2417(11) 0.1091(22)
H19_3 H 0.5501(32) 0.2755(32) 0.0670(10)
H20_3 H 0.6251(19) 0.2897(23) 0.0977(28)
O11_4 O 0.5139(4) 0.5418(2) 0.0786(2)
C21_3 C 0.4272(6) 0.5101(3) 0.1390(3)
N3_3 N 0.3899(5) 0.5524(3) 0.1332(3)
C22_3 C 0.3261(8) 0.5624(5) 0.1610(5)
H21_3 H 0.3011(8) 0.5929(5) 0.1581(5)
C23_3 C 0.2976(8) 0.5306(5) 0.1924(5)
H22_3 H 0.2525(8) 0.5385(5) 0.2103(5)
C24_4 C 0.3366(8) 0.4844(6) 0.1984(5)
H23_4 H 0.3183(8) 0.4620(6) 0.2208(5)
C25_4 C 0.4006(7) 0.4738(5) 0.1711(4)
H24_4 H 0.4265(7) 0.4436(5) 0.1733(4)
Zn4_4 Zn 0.59092(7) 0.53702(5) 0.02813(4)
Zn5_3 Zn 0.44383(7) 0.60133(4) 0.08368(4)
O14_3 O 0.3370(4) 0.6235(3) 0.0611(2)
C31_3 C 0.3091(6) 0.6350(4) 0.0222(4)
C32_3 C 0.2387(10) 0.6717(7) 0.0252(6)
H29_3 H 0.2559(29) 0.7008(25) 0.0415(48)
H31_3 H 0.1949(36) 0.6568(22) 0.0420(48)
O17_3 O 0.7388(5) 0.4689(3) 0.0068(3)
O18_4 O 0.6908(5) 0.5183(3) 0.0602(3)
C35_3 C 0.7438(6) 0.4893(4) 0.0433(4)
C36_3 C 0.8142(8) 0.4813(7) 0.0754(6)
H35_3 H 0.8000(18) 0.4908(30) 0.1069(8)
H36_3 H 0.8290(32) 0.4471(8) 0.0750(23)
H37_4 H 0.8588(17) 0.5009(24) 0.0648(18)
O19_4 O 0.5066(5) 0.6391(3) 0.0312(4)
O20_4 O 0.6176(5) 0.6033(3) 0.0062(3)
C37_4 C 0.5728(7) 0.6390(4) 0.0143(5)
H40_4 H 0.5963(46) 0.7125(9) 0.0183(16)
Zn7_4 Zn 0.40271(8) 0.30554(5) 0.20706(4)
O21_3 O 0.4829(5) 0.6503(3) 0.1307(3)
Zn3_3 Zn 0.34729(8) 0.55554(5) 0.95706(4)
O2_4 O 0.4304(4) 0.5052(2) 0.9753(2)
N2_4 N 0.4429(5) 0.5742(3) 0.9117(3)
C7_4 C 0.4433(9) 0.6144(6) 0.8823(5)
H5_4 H 0.3974(9) 0.6337(6) 0.8792(5)
C8_3 C 0.5087(10) 0.6254(6) 0.8585(7)
H6_3 H 0.5098(10) 0.6543(6) 0.8408(7)
C9_3 C 0.5803(10) 0.5934(6) 0.8590(6)
H7_3 H 0.6246(10) 0.5988(6) 0.8397(6)
C10_3 C 0.5761(8) 0.5543(4) 0.8911(4)
H8_3 H 0.6212(8) 0.5346(4) 0.8957(4)
C11_3 C 0.5081(6) 0.5445(3) 0.9155(3)
C12_5 C 0.5000 0.5000 0.9476(4)
O3_4 O 0.6696(6) 0.3765(3) 0.9828(3)
H10_4 H 0.7786(61) 0.3197(44) 0.9939(6)
C18_3 C 0.3923(12) 0.3135(6) 0.9963(10)
H15_3 H 0.3352(13) 0.3169(12) 0.9928(31)
H16_3 H 0.4159(39) 0.3057(16) 0.9663(16)
O12_4 O 0.5696(4) 0.4948(2) 0.9753(2)
C26_3 C 0.4919(6) 0.4555(3) 0.9155(3)
N4_4 N 0.5571(5) 0.4258(3) 0.9117(3)
C27_4 C 0.5567(9) 0.3856(6) 0.8823(5)
H25_4 H 0.6026(9) 0.3663(6) 0.8792(5)
C28_3 C 0.4913(10) 0.3746(6) 0.8585(7)
H26_3 H 0.4902(10) 0.3457(6) 0.8408(7)
C29_3 C 0.4197(10) 0.4066(6) 0.8590(6)
H27_3 H 0.3754(10) 0.4012(6) 0.8397(6)
C30_3 C 0.4239(8) 0.4457(4) 0.8911(4)
H28_3 H 0.3788(8) 0.4654(4) 0.8957(4)
Zn6_3 Zn 0.65271(8) 0.44446(5) 0.95706(4)
O13_4 O 0.3304(6) 0.6235(3) 0.9828(3)
H30_4 H 0.2214(61) 0.6803(44) 0.9939(6)
O16_3 O 0.2742(5) 0.5279(3) 0.9084(3)
C33_3 C 0.2309(7) 0.5540(5) 0.8810(4)
C34_3 C 0.1775(10) 0.5251(5) 0.8482(6)
H32_3 H 0.1735(52) 0.4917(11) 0.8591(22)
H33_3 H 0.1999(32) 0.5255(32) 0.8170(10)
H34_3 H 0.1249(19) 0.5397(23) 0.8477(28)
C38_3 C 0.6077(12) 0.6865(6) 0.9963(10)
H38_3 H 0.6648(13) 0.6831(12) 0.9928(31)
H39_3 H 0.5841(39) 0.6943(16) 0.9663(16)
O22_3 O 0.7258(5) 0.4721(3) 0.9084(3)
Zn1_5 Zn 0.84092(7) 0.71298(5) 0.27813(4)
Zn2_4 Zn 0.69383(7) 0.64867(4) 0.33368(4)
Zn3_4 Zn 0.90271(8) 0.80554(5) 0.20706(4)
O1_5 O 0.7639(4) 0.7082(2) 0.3286(2)
N1_4 N 0.6399(5) 0.6976(3) 0.3832(3)
C1_4 C 0.5761(8) 0.6876(5) 0.4110(5)
H1_4 H 0.5511(8) 0.6571(5) 0.4081(5)
C2_4 C 0.5476(8) 0.7194(5) 0.4424(5)
H2_4 H 0.5025(8) 0.7115(5) 0.4603(5)
C3_5 C 0.5866(8) 0.7656(6) 0.4484(5)
H3_5 H 0.5683(8) 0.7880(6) 0.4708(5)
C4_5 C 0.6506(7) 0.7762(5) 0.4211(4)
H4_5 H 0.6765(7) 0.8064(5) 0.4233(4)
C5_4 C 0.6772(6) 0.7399(3) 0.3890(3)
C6_6 C 0.7500 0.7500 0.3562(4)
O2_5 O 0.8196(4) 0.7552(2) 0.2253(2)
N2_5 N 0.8071(5) 0.8242(3) 0.1617(3)
C7_5 C 0.8067(9) 0.8644(6) 0.1323(5)
H5_5 H 0.8526(9) 0.8837(6) 0.1292(5)
C8_4 C 0.7413(10) 0.8754(6) 0.1085(7)
H6_4 H 0.7402(10) 0.9043(6) 0.0908(7)
C9_4 C 0.6697(10) 0.8434(6) 0.1090(6)
H7_4 H 0.6254(10) 0.8488(6) 0.0897(6)
C10_4 C 0.6739(8) 0.8043(4) 0.1411(4)
H8_4 H 0.6288(8) 0.7846(4) 0.1457(4)
C11_4 C 0.7419(6) 0.7945(3) 0.1655(3)
C12_6 C 0.7500 0.7500 0.1976(4)
O3_5 O 0.5804(6) 0.6265(3) 0.2328(3)
O4_4 O 0.5870(4) 0.6265(3) 0.3111(2)
C13_4 C 0.5591(6) 0.6150(4) 0.2722(4)
C14_4 C 0.4887(10) 0.5783(7) 0.2752(6)
H9_4 H 0.5059(29) 0.5492(25) 0.2915(48)
H10_5 H 0.4714(61) 0.5697(44) 0.2439(6)
H11_4 H 0.4449(36) 0.5932(22) 0.2920(48)
O5_4 O 0.9888(5) 0.7811(3) 0.2568(3)
O6_5 O 0.9408(5) 0.7317(3) 0.3102(3)
C15_4 C 0.9938(6) 0.7607(4) 0.2933(4)
O7_5 O 0.7566(5) 0.6109(3) 0.2812(4)
O8_5 O 0.8676(5) 0.6467(3) 0.2562(3)
C17_5 C 0.8228(7) 0.6110(4) 0.2643(5)
C18_4 C 0.8577(12) 0.5635(6) 0.2463(10)
H15_4 H 0.9148(13) 0.5669(12) 0.2428(31)
H16_4 H 0.8341(39) 0.5557(16) 0.2163(16)
H17_5 H 0.8463(46) 0.5375(9) 0.2683(16)
O9_4 O 0.7329(5) 0.5997(3) 0.3807(3)
O10_5 O 0.7742(5) 0.5279(3) 0.4084(3)
C19_4 C 0.7309(7) 0.5540(5) 0.3810(4)
C20_4 C 0.6775(10) 0.5251(5) 0.3482(6)
H18_2 H 0.6735(52) 0.4917(11) 0.3591(22)
H19_4 H 0.6999(32) 0.5255(32) 0.3170(10)
H20_4 H 0.6249(19) 0.5397(23) 0.3477(28)
O11_5 O 0.7361(4) 0.7918(2) 0.3286(2)
C21_4 C 0.8228(6) 0.7601(3) 0.3890(3)
N3_4 N 0.8601(5) 0.8024(3) 0.3832(3)
C22_4 C 0.9239(8) 0.8124(5) 0.4110(5)
H21_4 H 0.9489(8) 0.8429(5) 0.4081(5)
C23_4 C 0.9524(8) 0.7806(5) 0.4424(5)
H22_4 H 0.9975(8) 0.7885(5) 0.4603(5)
C24_5 C 0.9134(8) 0.7344(6) 0.4484(5)
H23_5 H 0.9317(8) 0.7120(6) 0.4708(5)
C25_5 C 0.8494(7) 0.7238(5) 0.4211(4)
H24_5 H 0.8235(7) 0.6936(5) 0.4233(4)
O12_5 O 0.6804(4) 0.7448(2) 0.2253(2)
C26_4 C 0.7581(6) 0.7055(3) 0.1655(3)
N4_5 N 0.6929(5) 0.6758(3) 0.1617(3)
C27_5 C 0.6933(9) 0.6356(6) 0.1323(5)
H25_5 H 0.6474(9) 0.6163(6) 0.1292(5)
C28_4 C 0.7587(10) 0.6246(6) 0.1085(7)
H26_4 H 0.7598(10) 0.5957(6) 0.0908(7)
C29_4 C 0.8303(10) 0.6566(6) 0.1090(6)
H27_4 H 0.8746(10) 0.6512(6) 0.0897(6)
C30_4 C 0.8261(8) 0.6957(4) 0.1411(4)
H28_4 H 0.8712(8) 0.7154(4) 0.1457(4)
Zn4_5 Zn 0.65908(7) 0.78702(5) 0.27813(4)
Zn5_4 Zn 0.80617(7) 0.85133(4) 0.33368(4)
Zn6_4 Zn 0.59729(8) 0.69446(5) 0.20706(4)
O13_5 O 0.9196(6) 0.8735(3) 0.2328(3)
O14_4 O 0.9130(4) 0.8735(3) 0.3111(2)
C31_4 C 0.9409(6) 0.8850(4) 0.2722(4)
H29_4 H 0.9941(29) 0.9508(25) 0.2915(48)
O16_4 O 0.9758(5) 0.7779(3) 0.1584(3)
O17_4 O 0.5112(5) 0.7189(3) 0.2568(3)
O18_5 O 0.5592(5) 0.7683(3) 0.3102(3)
C35_4 C 0.5062(6) 0.7393(4) 0.2933(4)
C36_4 C 0.4358(8) 0.7313(7) 0.3254(6)
H35_4 H 0.4500(18) 0.7408(30) 0.3569(8)
H36_4 H 0.4210(32) 0.6971(8) 0.3250(23)
H37_5 H 0.3912(17) 0.7509(24) 0.3148(18)
O19_5 O 0.7434(5) 0.8891(3) 0.2812(4)
O20_5 O 0.6324(5) 0.8533(3) 0.2562(3)
C37_5 C 0.6772(7) 0.8890(4) 0.2643(5)
C38_4 C 0.6423(12) 0.9365(6) 0.2463(10)
H38_4 H 0.5852(13) 0.9331(12) 0.2428(31)
H39_4 H 0.6659(39) 0.9443(16) 0.2163(16)
H40_5 H 0.6537(46) 0.9625(9) 0.2683(16)
Zn7_5 Zn 0.84729(8) 0.55554(5) 0.45706(4)
O21_4 O 0.7671(5) 0.9003(3) 0.3807(3)
O22_4 O 0.5242(5) 0.7221(3) 0.1584(3)
Zn1_6 Zn 0.15908(7) 0.28702(5) 0.27813(4)
Zn2_5 Zn 0.30617(7) 0.35133(4) 0.33368(4)
O1_6 O 0.2361(4) 0.2918(2) 0.3286(2)
N1_5 N 0.3601(5) 0.3024(3) 0.3832(3)
C1_5 C 0.4239(8) 0.3124(5) 0.4110(5)
H1_5 H 0.4489(8) 0.3429(5) 0.4081(5)
C2_5 C 0.4524(8) 0.2806(5) 0.4424(5)
H2_5 H 0.4975(8) 0.2885(5) 0.4603(5)
C3_6 C 0.4134(8) 0.2344(6) 0.4484(5)
H3_6 H 0.4317(8) 0.2120(6) 0.4708(5)
C4_6 C 0.3494(7) 0.2238(5) 0.4211(4)
H4_6 H 0.3235(7) 0.1936(5) 0.4233(4)
C5_5 C 0.3228(6) 0.2601(3) 0.3890(3)
C6_7 C 0.2500 0.2500 0.3562(4)
O2_6 O 0.1804(4) 0.2448(2) 0.2253(2)
N2_6 N 0.1929(5) 0.1758(3) 0.1617(3)
C7_6 C 0.1933(9) 0.1356(6) 0.1323(5)
H5_6 H 0.1474(9) 0.1163(6) 0.1292(5)
C8_5 C 0.2587(10) 0.1246(6) 0.1085(7)
H6_5 H 0.2598(10) 0.0957(6) 0.0908(7)
C9_5 C 0.3303(10) 0.1566(6) 0.1090(6)
H7_5 H 0.3746(10) 0.1512(6) 0.0897(6)
C10_5 C 0.3261(8) 0.1957(4) 0.1411(4)
H8_5 H 0.3712(8) 0.2154(4) 0.1457(4)
C11_5 C 0.2581(6) 0.2055(3) 0.1655(3)
C12_7 C 0.2500 0.2500 0.1976(4)
O3_6 O 0.4196(6) 0.3735(3) 0.2328(3)
O4_5 O 0.4130(4) 0.3735(3) 0.3111(2)
C13_5 C 0.4409(6) 0.3850(4) 0.2722(4)
C14_5 C 0.5113(10) 0.4217(7) 0.2752(6)
H9_5 H 0.4941(29) 0.4508(25) 0.2915(48)
H10_6 H 0.5286(61) 0.4303(44) 0.2439(6)
H11_5 H 0.5551(36) 0.4068(22) 0.2920(48)
O5_5 O 0.0112(5) 0.2189(3) 0.2568(3)
O6_6 O 0.0592(5) 0.2683(3) 0.3102(3)
C15_5 C 0.0062(6) 0.2393(4) 0.2933(4)
O7_6 O 0.2434(5) 0.3891(3) 0.2812(4)
O8_6 O 0.1324(5) 0.3533(3) 0.2562(3)
C17_6 C 0.1772(7) 0.3890(4) 0.2643(5)
C18_5 C 0.1423(12) 0.4365(6) 0.2463(10)
H15_5 H 0.0852(13) 0.4331(12) 0.2428(31)
H16_5 H 0.1659(39) 0.4443(16) 0.2163(16)
H17_6 H 0.1537(46) 0.4625(9) 0.2683(16)
O9_5 O 0.2671(5) 0.4003(3) 0.3807(3)
O10_6 O 0.2258(5) 0.4721(3) 0.4084(3)
C19_5 C 0.2691(7) 0.4460(5) 0.3810(4)
C20_5 C 0.3225(10) 0.4749(5) 0.3482(6)
H18_3 H 0.3265(52) 0.5083(11) 0.3591(22)
H19_5 H 0.3001(32) 0.4745(32) 0.3170(10)
H20_5 H 0.3751(19) 0.4603(23) 0.3477(28)
O11_6 O 0.2639(4) 0.2082(2) 0.3286(2)
C21_5 C 0.1772(6) 0.2399(3) 0.3890(3)
N3_5 N 0.1399(5) 0.1976(3) 0.3832(3)
C22_5 C 0.0761(8) 0.1876(5) 0.4110(5)
H21_5 H 0.0511(8) 0.1571(5) 0.4081(5)
C23_5 C 0.0476(8) 0.2194(5) 0.4424(5)
H22_5 H 0.0025(8) 0.2115(5) 0.4603(5)
C24_6 C 0.0866(8) 0.2656(6) 0.4484(5)
H23_6 H 0.0683(8) 0.2880(6) 0.4708(5)
C25_6 C 0.1506(7) 0.2762(5) 0.4211(4)
H24_6 H 0.1765(7) 0.3064(5) 0.4233(4)
O12_6 O 0.3196(4) 0.2552(2) 0.2253(2)
C26_5 C 0.2419(6) 0.2945(3) 0.1655(3)
N4_6 N 0.3071(5) 0.3242(3) 0.1617(3)
C27_6 C 0.3067(9) 0.3644(6) 0.1323(5)
H25_6 H 0.3526(9) 0.3837(6) 0.1292(5)
C28_5 C 0.2413(10) 0.3754(6) 0.1085(7)
H26_5 H 0.2402(10) 0.4043(6) 0.0908(7)
C29_5 C 0.1697(10) 0.3434(6) 0.1090(6)
H27_5 H 0.1254(10) 0.3488(6) 0.0897(6)
C30_5 C 0.1739(8) 0.3043(4) 0.1411(4)
H28_5 H 0.1288(8) 0.2846(4) 0.1457(4)
Zn4_6 Zn 0.34092(7) 0.21298(5) 0.27813(4)
Zn5_5 Zn 0.19383(7) 0.14867(4) 0.33368(4)
O13_6 O 0.0804(6) 0.1265(3) 0.2328(3)
O14_5 O 0.0870(4) 0.1265(3) 0.3111(2)
C31_5 C 0.0591(6) 0.1150(4) 0.2722(4)
H29_5 H 0.0059(29) 0.0492(25) 0.2915(48)
O17_5 O 0.4888(5) 0.2811(3) 0.2568(3)
O18_6 O 0.4408(5) 0.2317(3) 0.3102(3)
C35_5 C 0.4938(6) 0.2607(4) 0.2933(4)
C36_5 C 0.5642(8) 0.2687(7) 0.3254(6)
H35_5 H 0.5500(18) 0.2592(30) 0.3569(8)
H36_5 H 0.5790(32) 0.3029(8) 0.3250(23)
H37_6 H 0.6088(17) 0.2491(24) 0.3148(18)
O19_6 O 0.2566(5) 0.1109(3) 0.2812(4)
O20_6 O 0.3676(5) 0.1467(3) 0.2562(3)
C37_6 C 0.3228(7) 0.1110(4) 0.2643(5)
C38_5 C 0.3577(12) 0.0635(6) 0.2463(10)
H38_5 H 0.4148(13) 0.0669(12) 0.2428(31)
H39_5 H 0.3341(39) 0.0557(16) 0.2163(16)
H40_6 H 0.3463(46) 0.0375(9) 0.2683(16)
Zn7_6 Zn 0.15271(8) 0.44446(5) 0.45706(4)
O21_5 O 0.2329(5) 0.0997(3) 0.3807(3)
Zn1_7 Zn 0.09092(7) 0.53702(5) 0.52813(4)
O1_7 O 0.0139(4) 0.5418(2) 0.5786(2)
C6_8 C 0.0000 0.5000 0.6062(4)
O2_7 O 0.0696(4) 0.4948(2) 0.4753(2)
N2_7 N 0.0571(5) 0.4258(3) 0.4117(3)
C7_7 C 0.0567(9) 0.3856(6) 0.3823(5)
H5_7 H 0.1026(9) 0.3663(6) 0.3792(5)
C12_8 C 0.0000 0.5000 0.4476(4)
O5_6 O 0.2388(5) 0.4689(3) 0.5068(3)
O6_7 O 0.1908(5) 0.5183(3) 0.5602(3)
C15_6 C 0.2438(6) 0.4893(4) 0.5433(4)
C16_4 C 0.3142(8) 0.4813(7) 0.5754(6)
H12_4 H 0.3000(18) 0.4908(30) 0.6069(8)
H13_4 H 0.3290(32) 0.4471(8) 0.5750(23)
H14_5 H 0.3588(17) 0.5009(24) 0.5648(18)
O7_7 O 0.0066(5) 0.6391(3) 0.5312(4)
O8_7 O 0.1176(5) 0.6033(3) 0.5062(3)
C17_7 C 0.0728(7) 0.6390(4) 0.5143(5)
C18_6 C 0.1077(12) 0.6865(6) 0.4963(10)
H15_6 H 0.1648(13) 0.6831(12) 0.4928(31)
H16_6 H 0.0841(39) 0.6943(16) 0.4663(16)
H17_7 H 0.0963(46) 0.7125(9) 0.5183(16)
C21_6 C 0.0728(6) 0.4899(3) 0.6390(3)
N3_6 N 0.1101(5) 0.4476(3) 0.6332(3)
C22_6 C 0.1739(8) 0.4376(5) 0.6610(5)
H21_6 H 0.1989(8) 0.4071(5) 0.6581(5)
C23_6 C 0.2024(8) 0.4694(5) 0.6924(5)
H22_6 H 0.2475(8) 0.4615(5) 0.7103(5)
C24_7 C 0.1634(8) 0.5156(6) 0.6984(5)
H23_7 H 0.1817(8) 0.5380(6) 0.7208(5)
C25_7 C 0.0994(7) 0.5262(5) 0.6711(4)
H24_7 H 0.0735(7) 0.5564(5) 0.6733(4)
C26_6 C 0.0081(6) 0.5445(3) 0.4155(3)
C28_6 C 0.0087(10) 0.6254(6) 0.3585(7)
H26_6 H 0.0098(10) 0.6543(6) 0.3408(7)
C29_6 C 0.0803(10) 0.5934(6) 0.3590(6)
H27_6 H 0.1246(10) 0.5988(6) 0.3397(6)
C30_6 C 0.0761(8) 0.5543(4) 0.3911(4)
H28_6 H 0.1212(8) 0.5346(4) 0.3957(4)
O13_7 O 0.1696(6) 0.3765(3) 0.4828(3)
O14_6 O 0.1630(4) 0.3765(3) 0.5611(2)
C31_6 C 0.1909(6) 0.3650(4) 0.5222(4)
C32_4 C 0.2613(10) 0.3283(7) 0.5252(6)
H29_6 H 0.2441(29) 0.2992(25) 0.5415(48)
H30_5 H 0.2786(61) 0.3197(44) 0.4939(6)
H31_4 H 0.3051(36) 0.3432(22) 0.5420(48)
N1_6 N 0.8899(5) 0.5524(3) 0.6332(3)
C1_6 C 0.8261(8) 0.5624(5) 0.6610(5)
H1_6 H 0.8011(8) 0.5929(5) 0.6581(5)
C2_6 C 0.7976(8) 0.5306(5) 0.6924(5)
H2_6 H 0.7525(8) 0.5385(5) 0.7103(5)
C3_7 C 0.8366(8) 0.4844(6) 0.6984(5)
H3_7 H 0.8183(8) 0.4620(6) 0.7208(5)
C4_7 C 0.9006(7) 0.4738(5) 0.6711(4)
H4_7 H 0.9265(7) 0.4436(5) 0.6733(4)
C5_6 C 0.9272(6) 0.5101(3) 0.6390(3)
C6_9 C 1.0000 0.5000 0.6062(4)
C8_6 C 0.9913(10) 0.3746(6) 0.3585(7)
H6_6 H 0.9902(10) 0.3457(6) 0.3408(7)
C9_6 C 0.9197(10) 0.4066(6) 0.3590(6)
H7_6 H 0.8754(10) 0.4012(6) 0.3397(6)
C10_6 C 0.9239(8) 0.4457(4) 0.3911(4)
H8_6 H 0.8788(8) 0.4654(4) 0.3957(4)
C11_6 C 0.9919(6) 0.4555(3) 0.4155(3)
C12_9 C 1.0000 0.5000 0.4476(4)
O3_7 O 0.8304(6) 0.6235(3) 0.4828(3)
O4_6 O 0.8370(4) 0.6235(3) 0.5611(2)
C13_6 C 0.8091(6) 0.6350(4) 0.5222(4)
C14_6 C 0.7387(10) 0.6717(7) 0.5252(6)
H9_6 H 0.7559(29) 0.7008(25) 0.5415(48)
H10_7 H 0.7214(61) 0.6803(44) 0.4939(6)
H11_6 H 0.6949(36) 0.6568(22) 0.5420(48)
O11_7 O 0.9861(4) 0.4582(2) 0.5786(2)
O12_7 O 0.9304(4) 0.5052(2) 0.4753(2)
N4_7 N 0.9429(5) 0.5742(3) 0.4117(3)
C27_7 C 0.9433(9) 0.6144(6) 0.3823(5)
H25_7 H 0.8974(9) 0.6337(6) 0.3792(5)
Zn4_7 Zn 0.90908(7) 0.46298(5) 0.52813(4)
O17_6 O 0.7612(5) 0.5311(3) 0.5068(3)
O18_7 O 0.8092(5) 0.4817(3) 0.5602(3)
C35_6 C 0.7562(6) 0.5107(4) 0.5433(4)
C36_6 C 0.6858(8) 0.5187(7) 0.5754(6)
H35_6 H 0.7000(18) 0.5092(30) 0.6069(8)
H36_6 H 0.6710(32) 0.5529(8) 0.5750(23)
H37_7 H 0.6412(17) 0.4991(24) 0.5648(18)
O19_7 O 0.9934(5) 0.3609(3) 0.5312(4)
O20_7 O 0.8824(5) 0.3967(3) 0.5062(3)
C37_7 C 0.9272(7) 0.3610(4) 0.5143(5)
C38_6 C 0.8923(12) 0.3135(6) 0.4963(10)
H38_6 H 0.8352(13) 0.3169(12) 0.4928(31)
H39_6 H 0.9159(39) 0.3057(16) 0.4663(16)
H40_7 H 0.9037(46) 0.2875(9) 0.5183(16)
Zn3_5 Zn 0.34729(8) 0.05554(5) 0.45706(4)
C3_8 C 0.6634(8) 0.0156(6) 0.6984(5)
H3_8 H 0.6817(8) 0.0380(6) 0.7208(5)
C4_8 C 0.5994(7) 0.0262(5) 0.6711(4)
H4_8 H 0.5735(7) 0.0564(5) 0.6733(4)
C6_10 C 0.5000 0.0000 0.6062(4)
O2_8 O 0.4304(4) 0.0052(2) 0.4753(2)
N2_8 N 0.4429(5) 0.0742(3) 0.4117(3)
C7_8 C 0.4433(9) 0.1144(6) 0.3823(5)
H5_8 H 0.3974(9) 0.1337(6) 0.3792(5)
C8_7 C 0.5087(10) 0.1254(6) 0.3585(7)
H6_7 H 0.5098(10) 0.1543(6) 0.3408(7)
C9_7 C 0.5803(10) 0.0934(6) 0.3590(6)
H7_7 H 0.6246(10) 0.0988(6) 0.3397(6)
C10_7 C 0.5761(8) 0.0543(4) 0.3911(4)
H8_7 H 0.6212(8) 0.0346(4) 0.3957(4)
C11_7 C 0.5081(6) 0.0445(3) 0.4155(3)
C12_10 C 0.5000 0.0000 0.4476(4)
O5_7 O 0.2612(5) 0.0311(3) 0.5068(3)
C15_7 C 0.2562(6) 0.0107(4) 0.5433(4)
C16_5 C 0.1858(8) 0.0187(7) 0.5754(6)
H12_5 H 0.2000(18) 0.0092(30) 0.6069(8)
H13_5 H 0.1710(32) 0.0529(8) 0.5750(23)
O11_8 O 0.5139(4) 0.0418(2) 0.5786(2)
C21_7 C 0.4272(6) 0.0101(3) 0.6390(3)
N3_7 N 0.3899(5) 0.0524(3) 0.6332(3)
C22_7 C 0.3261(8) 0.0624(5) 0.6610(5)
H21_7 H 0.3011(8) 0.0929(5) 0.6581(5)
C23_7 C 0.2976(8) 0.0306(5) 0.6924(5)
H22_7 H 0.2525(8) 0.0385(5) 0.7103(5)
Zn4_8 Zn 0.59092(7) 0.03702(5) 0.52813(4)
Zn5_6 Zn 0.44383(7) 0.10133(4) 0.58368(4)
O13_8 O 0.3304(6) 0.1235(3) 0.4828(3)
O14_7 O 0.3370(4) 0.1235(3) 0.5611(2)
C31_7 C 0.3091(6) 0.1350(4) 0.5222(4)
C32_5 C 0.2387(10) 0.1717(7) 0.5252(6)
H29_7 H 0.2559(29) 0.2008(25) 0.5415(48)
H30_6 H 0.2214(61) 0.1803(44) 0.4939(6)
H31_5 H 0.1949(36) 0.1568(22) 0.5420(48)
O16_5 O 0.2742(5) 0.0279(3) 0.4084(3)
C33_4 C 0.2309(7) 0.0540(5) 0.3810(4)
C34_4 C 0.1775(10) 0.0251(5) 0.3482(6)
H33_4 H 0.1999(32) 0.0255(32) 0.3170(10)
H34_4 H 0.1249(19) 0.0397(23) 0.3477(28)
O18_8 O 0.6908(5) 0.0183(3) 0.5602(3)
H37_8 H 0.8588(17) 0.0009(24) 0.5648(18)
O19_8 O 0.5066(5) 0.1391(3) 0.5312(4)
O20_8 O 0.6176(5) 0.1033(3) 0.5062(3)
C37_8 C 0.5728(7) 0.1390(4) 0.5143(5)
C38_7 C 0.6077(12) 0.1865(6) 0.4963(10)
H38_7 H 0.6648(13) 0.1831(12) 0.4928(31)
H39_7 H 0.5841(39) 0.1943(16) 0.4663(16)
H40_8 H 0.5963(46) 0.2125(9) 0.5183(16)
O21_6 O 0.4829(5) 0.1503(3) 0.6307(3)
Zn1_8 Zn 0.40908(7) 0.96298(5) 0.52813(4)
Zn2_6 Zn 0.55617(7) 0.89867(4) 0.58368(4)
O1_8 O 0.4861(4) 0.9582(2) 0.5786(2)
N1_7 N 0.6101(5) 0.9476(3) 0.6332(3)
C1_7 C 0.6739(8) 0.9376(5) 0.6610(5)
H1_7 H 0.6989(8) 0.9071(5) 0.6581(5)
C2_7 C 0.7024(8) 0.9694(5) 0.6924(5)
H2_7 H 0.7475(8) 0.9615(5) 0.7103(5)
C5_7 C 0.5728(6) 0.9899(3) 0.6390(3)
C6_11 C 0.5000 1.0000 0.6062(4)
C12_11 C 0.5000 1.0000 0.4476(4)
O3_8 O 0.6696(6) 0.8765(3) 0.4828(3)
O4_7 O 0.6630(4) 0.8765(3) 0.5611(2)
C13_7 C 0.6909(6) 0.8650(4) 0.5222(4)
C14_7 C 0.7613(10) 0.8283(7) 0.5252(6)
H9_7 H 0.7441(29) 0.7992(25) 0.5415(48)
H10_8 H 0.7786(61) 0.8197(44) 0.4939(6)
H11_7 H 0.8051(36) 0.8432(22) 0.5420(48)
O6_8 O 0.3092(5) 0.9817(3) 0.5602(3)
H14_6 H 0.1412(17) 0.9991(24) 0.5648(18)
O7_8 O 0.4934(5) 0.8609(3) 0.5312(4)
O8_8 O 0.3824(5) 0.8967(3) 0.5062(3)
C17_8 C 0.4272(7) 0.8610(4) 0.5143(5)
C18_7 C 0.3923(12) 0.8135(6) 0.4963(10)
H15_7 H 0.3352(13) 0.8169(12) 0.4928(31)
H16_7 H 0.4159(39) 0.8057(16) 0.4663(16)
H17_8 H 0.4037(46) 0.7875(9) 0.5183(16)
O9_6 O 0.5171(5) 0.8497(3) 0.6307(3)
C19_6 C 0.5191(7) 0.8040(5) 0.6310(4)
C20_6 C 0.5725(10) 0.7751(5) 0.5982(6)
H18_4 H 0.5765(52) 0.7417(11) 0.6091(22)
H19_6 H 0.5501(32) 0.7755(32) 0.5670(10)
H20_6 H 0.6251(19) 0.7897(23) 0.5977(28)
C24_8 C 0.3366(8) 0.9844(6) 0.6984(5)
H23_8 H 0.3183(8) 0.9620(6) 0.7208(5)
C25_8 C 0.4006(7) 0.9738(5) 0.6711(4)
H24_8 H 0.4265(7) 0.9436(5) 0.6733(4)
O12_8 O 0.5696(4) 0.9948(2) 0.4753(2)
C26_7 C 0.4919(6) 0.9555(3) 0.4155(3)
N4_8 N 0.5571(5) 0.9258(3) 0.4117(3)
C27_8 C 0.5567(9) 0.8856(6) 0.3823(5)
H25_8 H 0.6026(9) 0.8663(6) 0.3792(5)
C28_7 C 0.4913(10) 0.8746(6) 0.3585(7)
H26_7 H 0.4902(10) 0.8457(6) 0.3408(7)
C29_7 C 0.4197(10) 0.9066(6) 0.3590(6)
H27_7 H 0.3754(10) 0.9012(6) 0.3397(6)
C30_7 C 0.4239(8) 0.9457(4) 0.3911(4)
H28_7 H 0.3788(8) 0.9654(4) 0.3957(4)
Zn6_5 Zn 0.65271(8) 0.94446(5) 0.45706(4)
H32_4 H 0.1735(52) 0.9917(11) 0.3591(22)
O17_7 O 0.7388(5) 0.9689(3) 0.5068(3)
C35_7 C 0.7438(6) 0.9893(4) 0.5433(4)
C36_7 C 0.8142(8) 0.9813(7) 0.5754(6)
H35_7 H 0.8000(18) 0.9908(30) 0.6069(8)
H36_7 H 0.8290(32) 0.9471(8) 0.5750(23)
O22_5 O 0.7258(5) 0.9721(3) 0.4084(3)
H18_5 H 0.8265(52) 0.0083(11) 0.3591(22)
C19_7 C 0.7691(7) 0.9460(5) 0.3810(4)
C20_7 C 0.8225(10) 0.9749(5) 0.3482(6)
H19_7 H 0.8001(32) 0.9745(32) 0.3170(10)
H20_7 H 0.8751(19) 0.9603(23) 0.3477(28)
C33_5 C 0.4809(7) 0.6960(5) 0.1310(4)
C34_5 C 0.4275(10) 0.7249(5) 0.0982(6)
H32_5 H 0.4235(52) 0.7583(11) 0.1091(22)
H33_5 H 0.4499(32) 0.7245(32) 0.0670(10)
H34_5 H 0.3749(19) 0.7103(23) 0.0977(28)
C19_8 C 0.4809(7) 0.1960(5) 0.6310(4)
C20_8 C 0.4275(10) 0.2249(5) 0.5982(6)
H18_6 H 0.4235(52) 0.2583(11) 0.6091(22)
H19_8 H 0.4499(32) 0.2245(32) 0.5670(10)
H20_8 H 0.3749(19) 0.2103(23) 0.5977(28)
C19_9 C 0.7691(7) 0.4460(5) 0.8810(4)
C20_9 C 0.8225(10) 0.4749(5) 0.8482(6)
H18_7 H 0.8265(52) 0.5083(11) 0.8591(22)
H19_9 H 0.8001(32) 0.4745(32) 0.8170(10)
H20_9 H 0.8751(19) 0.4603(23) 0.8477(28)
H18_8 H 0.6735(52) 0.9917(11) 0.8591(22)
C8_8 C 0.9913(10) 0.8746(6) 0.8585(7)
H6_8 H 0.9902(10) 0.8457(6) 0.8408(7)
C9_8 C 0.9197(10) 0.9066(6) 0.8590(6)
H7_8 H 0.8754(10) 0.9012(6) 0.8397(6)
C10_8 C 0.9239(8) 0.9457(4) 0.8911(4)
H8_8 H 0.8788(8) 0.9654(4) 0.8957(4)
C11_8 C 0.9919(6) 0.9555(3) 0.9155(3)
C12_12 C 1.0000 1.0000 0.9476(4)
C38_8 C 0.8923(12) 0.8135(6) 0.9963(10)
H38_8 H 0.8352(13) 0.8169(12) 0.9928(31)
H39_8 H 0.9159(39) 0.8057(16) 0.9663(16)
H18_9 H 0.3265(52) 0.0083(11) 0.8591(22)
C12_13 C -0.0000 0.0000 0.9476(4)
C18_8 C 0.1077(12) 0.1865(6) 0.9963(10)
H15_8 H 0.1648(13) 0.1831(12) 0.9928(31)
H16_8 H 0.0841(39) 0.1943(16) 0.9663(16)
C26_8 C 0.0081(6) 0.0445(3) 0.9155(3)
C28_8 C 0.0087(10) 0.1254(6) 0.8585(7)
H26_8 H 0.0098(10) 0.1543(6) 0.8408(7)
C29_8 C 0.0803(10) 0.0934(6) 0.8590(6)
H27_8 H 0.1246(10) 0.0988(6) 0.8397(6)
C30_8 C 0.0761(8) 0.0543(4) 0.8911(4)
H28_8 H 0.1212(8) 0.0346(4) 0.8957(4)
C6_12 C 0.0000 1.0000 0.1062(4)
O5_8 O 0.2388(5) 0.9689(3) 0.0068(3)
C15_8 C 0.2438(6) 0.9893(4) 0.0433(4)
C16_6 C 0.3142(8) 0.9813(7) 0.0754(6)
H12_6 H 0.3000(18) 0.9908(30) 0.1069(8)
H13_6 H 0.3290(32) 0.9471(8) 0.0750(23)
C21_8 C 0.0728(6) 0.9899(3) 0.1390(3)
N3_8 N 0.1101(5) 0.9476(3) 0.1332(3)
C22_8 C 0.1739(8) 0.9376(5) 0.1610(5)
H21_8 H 0.1989(8) 0.9071(5) 0.1581(5)
C23_8 C 0.2024(8) 0.9694(5) 0.1924(5)
H22_8 H 0.2475(8) 0.9615(5) 0.2103(5)
Zn5_7 Zn 0.05617(7) 0.89867(4) 0.08368(4)
O14_8 O 0.1630(4) 0.8765(3) 0.0611(2)
C31_8 C 0.1909(6) 0.8650(4) 0.0222(4)
C32_6 C 0.2613(10) 0.8283(7) 0.0252(6)
H29_8 H 0.2441(29) 0.7992(25) 0.0415(48)
H31_6 H 0.3051(36) 0.8432(22) 0.0420(48)
O21_7 O 0.0171(5) 0.8497(3) 0.1307(3)
C16_7 C 0.0642(8) 0.7687(7) 0.3254(6)
H12_7 H 0.0500(18) 0.7592(30) 0.3569(8)
H13_7 H 0.0790(32) 0.8029(8) 0.3250(23)
H14_7 H 0.1088(17) 0.7491(24) 0.3148(18)
C32_7 C 0.0113(10) 0.9217(7) 0.2752(6)
H30_7 H 0.0286(61) 0.9303(44) 0.2439(6)
H31_7 H 0.0551(36) 0.9068(22) 0.2920(48)
C33_6 C 0.0191(7) 0.8040(5) 0.1310(4)
C34_6 C 0.0725(10) 0.7751(5) 0.0982(6)
H32_6 H 0.0765(52) 0.7417(11) 0.1091(22)
H33_6 H 0.0501(32) 0.7755(32) 0.0670(10)
H34_6 H 0.1251(19) 0.7897(23) 0.0977(28)
Zn2_7 Zn 0.94383(7) 0.10133(4) 0.08368(4)
N1_8 N 0.8899(5) 0.0524(3) 0.1332(3)
C1_8 C 0.8261(8) 0.0624(5) 0.1610(5)
H1_8 H 0.8011(8) 0.0929(5) 0.1581(5)
C2_8 C 0.7976(8) 0.0306(5) 0.1924(5)
H2_8 H 0.7525(8) 0.0385(5) 0.2103(5)
C5_8 C 0.9272(6) 0.0101(3) 0.1390(3)
C6_13 C 1.0000 0.0000 0.1062(4)
O4_8 O 0.8370(4) 0.1235(3) 0.0611(2)
C13_8 C 0.8091(6) 0.1350(4) 0.0222(4)
C14_8 C 0.7387(10) 0.1717(7) 0.0252(6)
H9_8 H 0.7559(29) 0.2008(25) 0.0415(48)
H11_8 H 0.6949(36) 0.1568(22) 0.0420(48)
O9_7 O 0.9829(5) 0.1503(3) 0.1307(3)
C19_10 C 0.9809(7) 0.1960(5) 0.1310(4)
C20_10 C 0.9275(10) 0.2249(5) 0.0982(6)
H18_10 H 0.9235(52) 0.2583(11) 0.1091(22)
H19_10 H 0.9499(32) 0.2245(32) 0.0670(10)
H20_10 H 0.8749(19) 0.2103(23) 0.0977(28)
O17_8 O 0.7612(5) 0.0311(3) 0.0068(3)
C35_8 C 0.7562(6) 0.0107(4) 0.0433(4)
C36_8 C 0.6858(8) 0.0187(7) 0.0754(6)
H35_8 H 0.7000(18) 0.0092(30) 0.1069(8)
H36_8 H 0.6710(32) 0.0529(8) 0.0750(23)
C16_8 C 0.9358(8) 0.2313(7) 0.3254(6)
H12_8 H 0.9500(18) 0.2408(30) 0.3569(8)
H13_8 H 0.9210(32) 0.1971(8) 0.3250(23)
H14_8 H 0.8912(17) 0.2509(24) 0.3148(18)
C32_8 C 0.9887(10) 0.0783(7) 0.2752(6)
H30_8 H 0.9714(61) 0.0697(44) 0.2439(6)
H31_8 H 0.9449(36) 0.0932(22) 0.2920(48)
loop_
_geom_bond_atom_site_label_1
_geom_bond_atom_site_label_2
_geom_bond_site_symmetry_1
_geom_bond_site_symmetry_2
H12 C16 1_555 1_555
H13 C16 1_555 1_555
H14 C16 1_555 1_555
H30 C32 1_555 1_555
H31 C32 1_555 1_555
O15 C33 1_555 1_555
C34 C33 1_555 1_555
H32 C34 1_555 1_555
H33 C34 1_555 1_555
H34 C34 1_555 1_555
Zn8 O15 1_555 1_555
Zn1 O1 1_555 1_555
Zn2 O1 1_555 1_555
Zn3 O2 1_555 1_555
O1 C6 1_555 1_555
N1 Zn2 1_555 1_555
C1 N1 1_555 1_555
H1 C1 1_555 1_555
C2 C1 1_555 1_555
H2 C2 1_555 1_555
C3 C2 1_555 1_555
H3 C3 1_555 1_555
C4 C3 1_555 1_555
H4 C4 1_555 1_555
C5 N1 1_555 1_555
C6 C5 1_555 1_555
O2 Zn1 1_555 1_555
N2 Zn3 1_555 1_555
C7 N2 1_555 1_555
H5 C7 1_555 1_555
C8 C7 1_555 1_555
H6 C8 1_555 1_555
C9 C8 1_555 1_555
H7 C9 1_555 1_555
C10 C9 1_555 1_555
H8 C10 1_555 1_555
C11 N2 1_555 1_555
C12 O2 1_555 1_555
O3 C13 1_555 1_555
O4 Zn2 1_555 1_555
C13 O4 1_555 1_555
C14 C13 1_555 1_555
H9 C14 1_555 1_555
H10 C14 1_555 1_555
H11 C14 1_555 1_555
O5 Zn3 1_555 1_555
O6 Zn1 1_555 1_555
C15 O5 1_555 1_555
O7 Zn2 1_555 1_555
O8 Zn1 1_555 1_555
C17 O7 1_555 1_555
C18 C17 1_555 1_555
H15 C18 1_555 1_555
H16 C18 1_555 1_555
H17 C18 1_555 1_555
O9 Zn2 1_555 1_555
O10 C19 1_555 1_555
C19 O9 1_555 1_555
C20 C19 1_555 1_555
H19 C20 1_555 1_555
H20 C20 1_555 1_555
O11 C6 1_555 1_555
C21 C6 1_555 1_555
N3 C21 1_555 1_555
C22 N3 1_555 1_555
H21 C22 1_555 1_555
C23 C22 1_555 1_555
H22 C23 1_555 1_555
C24 C23 1_555 1_555
H23 C24 1_555 1_555
C25 C21 1_555 1_555
H24 C25 1_555 1_555
O12 C12 1_555 1_555
C26 C12 1_555 1_555
N4 C26 1_555 1_555
C27 N4 1_555 1_555
H25 C27 1_555 1_555
C28 C27 1_555 1_555
H26 C28 1_555 1_555
C29 C28 1_555 1_555
H27 C29 1_555 1_555
C30 C26 1_555 1_555
H28 C30 1_555 1_555
Zn4 O11 1_555 1_555
Zn5 O11 1_555 1_555
Zn6 O3 1_555 1_555
O13 Zn3 1_555 1_555
O14 Zn5 1_555 1_555
C31 O13 1_555 1_555
O16 Zn3 1_555 1_555
O17 Zn6 1_555 1_555
O18 Zn4 1_555 1_555
C35 O17 1_555 1_555
C36 C35 1_555 1_555
H35 C36 1_555 1_555
H36 C36 1_555 1_555
H37 C36 1_555 1_555
O19 Zn5 1_555 1_555
O20 Zn4 1_555 1_555
C37 O19 1_555 1_555
C38 C37 1_555 1_555
H38 C38 1_555 1_555
H39 C38 1_555 1_555
H40 C38 1_555 1_555
Zn7 O10 1_555 1_555
O21 Zn5 1_555 1_555
O22 Zn6 1_555 1_555
C4 C5 1_555 1_555
C10 C11 1_555 1_555
C11 C12 1_555 1_555
O6 C15 1_555 1_555
O8 C17 1_555 1_555
N3 Zn5 1_555 1_555
C24 C25 1_555 1_555
O12 Zn4 1_555 1_555
O12 Zn6 1_555 1_555
N4 Zn6 1_555 1_555
C29 C30 1_555 1_555
O14 C31 1_555 1_555
O18 C35 1_555 1_555
O20 C37 1_555 1_555
Zn1_2 O1_2 1_555 1_555
Zn2_2 O1_2 1_555 1_555
Zn3_2 O2_2 1_555 1_555
O1_2 C6_2 1_555 1_555
N1_2 Zn2_2 1_555 1_555
C1_2 N1_2 1_555 1_555
H1_2 C1_2 1_555 1_555
C2_2 C1_2 1_555 1_555
H2_2 C2_2 1_555 1_555
C3_2 C2_2 1_555 1_555
H3_2 C3_2 1_555 1_555
C4_2 C3_2 1_555 1_555
H4_2 C4_2 1_555 1_555
C5_2 N1_2 1_555 1_555
C6_2 C5_2 1_555 1_555
O2_2 Zn1_2 1_555 1_555
N2_2 Zn3_2 1_555 1_555
C7_2 N2_2 1_555 1_555
H5_2 C7_2 1_555 1_555
C8_2 C7_2 1_555 1_555
H6_2 C8_2 1_555 1_555
C9_2 C8_2 1_555 1_555
H7_2 C9_2 1_555 1_555
C10_2 C9_2 1_555 1_555
H8_2 C10_2 1_555 1_555
C11_2 N2_2 1_555 1_555
C12_2 O2_2 1_555 1_555
O3_2 C13_2 1_555 1_555
O4_2 Zn2_2 1_555 1_555
C13_2 O4_2 1_555 1_555
C14_2 C13_2 1_555 1_555
H9_2 C14_2 1_555 1_555
H10_2 C14_2 1_555 1_555
H11_2 C14_2 1_555 1_555
O5_2 Zn3_2 1_555 1_555
O6_2 Zn1_2 1_555 1_555
C15_2 O5_2 1_555 1_555
O7_2 Zn2_2 1_555 1_555
O8_2 Zn1_2 1_555 1_555
C17_2 O7_2 1_555 1_555
C18_2 C17_2 1_555 1_555
H15_2 C18_2 1_555 1_555
H16_2 C18_2 1_555 1_555
H17_2 C18_2 1_555 1_555
O9_2 Zn2_2 1_555 1_555
O10_2 C19_2 1_555 1_555
C19_2 O9_2 1_555 1_555
C20_2 C19_2 1_555 1_555
H19_2 C20_2 1_555 1_555
H20_2 C20_2 1_555 1_555
O11_2 C6_2 1_555 1_555
C21_2 C6_2 1_555 1_555
N3_2 C21_2 1_555 1_555
C22_2 N3_2 1_555 1_555
H21_2 C22_2 1_555 1_555
C23_2 C22_2 1_555 1_555
H22_2 C23_2 1_555 1_555
C24_2 C23_2 1_555 1_555
H23_2 C24_2 1_555 1_555
C25_2 C21_2 1_555 1_555
H24_2 C25_2 1_555 1_555
O12_2 C12_2 1_555 1_555
C26_2 C12_2 1_555 1_555
N4_2 C26_2 1_555 1_555
C27_2 N4_2 1_555 1_555
H25_2 C27_2 1_555 1_555
C28_2 C27_2 1_555 1_555
H26_2 C28_2 1_555 1_555
C29_2 C28_2 1_555 1_555
H27_2 C29_2 1_555 1_555
C30_2 C26_2 1_555 1_555
H28_2 C30_2 1_555 1_555
Zn4_2 O11_2 1_555 1_555
Zn5_2 O11_2 1_555 1_555
Zn6_2 O3_2 1_555 1_555
O13_2 Zn3_2 1_555 1_555
O14_2 Zn5_2 1_555 1_555
C31_2 O13_2 1_555 1_555
O16_2 Zn3_2 1_555 1_555
O17_2 Zn6_2 1_555 1_555
O18_2 Zn4_2 1_555 1_555
C35_2 O17_2 1_555 1_555
C36_2 C35_2 1_555 1_555
H35_2 C36_2 1_555 1_555
H36_2 C36_2 1_555 1_555
H37_2 C36_2 1_555 1_555
O19_2 Zn5_2 1_555 1_555
O20_2 Zn4_2 1_555 1_555
C37_2 O19_2 1_555 1_555
C38_2 C37_2 1_555 1_555
H38_2 C38_2 1_555 1_555
H39_2 C38_2 1_555 1_555
H40_2 C38_2 1_555 1_555
Zn7_2 O10_2 1_555 1_555
O21_2 Zn5_2 1_555 1_555
O22_2 Zn6_2 1_555 1_555
C4_2 C5_2 1_555 1_555
C10_2 C11_2 1_555 1_555
C11_2 C12_2 1_555 1_555
O6_2 C15_2 1_555 1_555
O8_2 C17_2 1_555 1_555
N3_2 Zn5_2 1_555 1_555
C24_2 C25_2 1_555 1_555
O12_2 Zn4_2 1_555 1_555
O12_2 Zn6_2 1_555 1_555
N4_2 Zn6_2 1_555 1_555
C29_2 C30_2 1_555 1_555
O14_2 C31_2 1_555 1_555
O18_2 C35_2 1_555 1_555
O20_2 C37_2 1_555 1_555
H12_2 C16_2 1_555 1_555
H13_2 C16_2 1_555 1_555
H14_2 C16_2 1_555 1_555
H30_2 C32_2 1_555 1_555
H31_2 C32_2 1_555 1_555
O15_2 C33_2 1_555 1_555
C34_2 C33_2 1_555 1_555
H32_2 C34_2 1_555 1_555
H33_2 C34_2 1_555 1_555
H34_2 C34_2 1_555 1_555
Zn8_2 O15_2 1_555 1_555
Zn1_3 O1_3 1_555 1_555
O1_3 C6_3 1_555 1_555
O6_3 Zn1_3 1_555 1_555
O8_3 Zn1_3 1_555 1_555
C17_3 O7_3 1_555 1_555
H23_3 C24_3 1_555 1_555
H24_3 C25_3 1_555 1_555
Zn7_3 O10_3 1_555 1_555
O8_3 C17_3 1_555 1_555
C24_3 C25_3 1_555 1_555
Zn7_2 O2_3 1_555 1_555
N2_3 Zn7_2 1_555 1_555
C7_3 N2_3 1_555 1_555
H5_3 C7_3 1_555 1_555
C12_3 O2_3 1_555 1_555
O13_3 Zn7_2 1_555 1_555
O12_3 C12_4 1_555 1_555
C27_3 N4_3 1_555 1_555
H25_3 C27_3 1_555 1_555
Zn7 O3_3 1_555 1_555
O12_3 Zn7 1_555 1_555
N4_3 Zn7 1_555 1_555
H3_3 C3_3 1_555 1_555
C4_3 C3_3 1_555 1_555
H4_3 C4_3 1_555 1_555
O11_3 C6_4 1_555 1_555
Zn4_3 O11_3 1_555 1_555
O18_3 Zn4_3 1_555 1_555
O20_3 Zn4_3 1_555 1_555
C37_3 O19_3 1_555 1_555
O20_3 C37_3 1_555 1_555
Zn1_4 O1_4 1_555 1_555
Zn2_3 O1_4 1_555 1_555
O1_4 C6_5 1_555 1_555
N1_3 Zn2_3 1_555 1_555
C1_3 N1_3 1_555 1_555
H1_3 C1_3 1_555 1_555
C2_3 C1_3 1_555 1_555
H2_3 C2_3 1_555 1_555
C3_4 C2_3 1_555 1_555
H3_4 C3_4 1_555 1_555
C4_4 C3_4 1_555 1_555
H4_4 C4_4 1_555 1_555
C5_3 N1_3 1_555 1_555
C6_5 C5_3 1_555 1_555
O4_3 Zn2_3 1_555 1_555
C13_3 O4_3 1_555 1_555
C14_3 C13_3 1_555 1_555
H9_3 C14_3 1_555 1_555
H11_3 C14_3 1_555 1_555
O6_4 Zn1_4 1_555 1_555
C15_3 O5_3 1_555 1_555
C16_3 C15_3 1_555 1_555
H12_3 C16_3 1_555 1_555
H13_3 C16_3 1_555 1_555
H14_4 C16_3 1_555 1_555
O7_4 Zn2_3 1_555 1_555
O8_4 Zn1_4 1_555 1_555
C17_4 O7_4 1_555 1_555
O9_3 Zn2_3 1_555 1_555
O10_4 C19_3 1_555 1_555
C19_3 O9_3 1_555 1_555
C20_3 C19_3 1_555 1_555
H18 C20_3 1_555 1_555
H19_3 C20_3 1_555 1_555
H20_3 C20_3 1_555 1_555
O11_4 C6_5 1_555 1_555
C21_3 C6_5 1_555 1_555
N3_3 C21_3 1_555 1_555
C22_3 N3_3 1_555 1_555
H21_3 C22_3 1_555 1_555
C23_3 C22_3 1_555 1_555
H22_3 C23_3 1_555 1_555
C24_4 C23_3 1_555 1_555
H23_4 C24_4 1_555 1_555
C25_4 C21_3 1_555 1_555
H24_4 C25_4 1_555 1_555
Zn4_4 O11_4 1_555 1_555
Zn5_3 O11_4 1_555 1_555
O14_3 Zn5_3 1_555 1_555
C32_3 C31_3 1_555 1_555
H29_3 C32_3 1_555 1_555
H31_3 C32_3 1_555 1_555
O18_4 Zn4_4 1_555 1_555
C35_3 O17_3 1_555 1_555
C36_3 C35_3 1_555 1_555
H35_3 C36_3 1_555 1_555
H36_3 C36_3 1_555 1_555
H37_4 C36_3 1_555 1_555
O19_4 Zn5_3 1_555 1_555
O20_4 Zn4_4 1_555 1_555
C37_4 O19_4 1_555 1_555
Zn7_4 O10_4 1_555 1_555
O21_3 Zn5_3 1_555 1_555
C4_4 C5_3 1_555 1_555
O6_4 C15_3 1_555 1_555
O8_4 C17_4 1_555 1_555
N3_3 Zn5_3 1_555 1_555
C24_4 C25_4 1_555 1_555
O14_3 C31_3 1_555 1_555
O18_4 C35_3 1_555 1_555
O20_4 C37_4 1_555 1_555
Zn3_3 O2_4 1_555 1_555
N2_4 Zn3_3 1_555 1_555
C7_4 N2_4 1_555 1_555
H5_4 C7_4 1_555 1_555
C8_3 C7_4 1_555 1_555
H6_3 C8_3 1_555 1_555
C9_3 C8_3 1_555 1_555
H7_3 C9_3 1_555 1_555
C10_3 C9_3 1_555 1_555
H8_3 C10_3 1_555 1_555
C11_3 N2_4 1_555 1_555
C12_5 O2_4 1_555 1_555
H15_3 C18_3 1_555 1_555
H16_3 C18_3 1_555 1_555
O12_4 C12_5 1_555 1_555
C26_3 C12_5 1_555 1_555
N4_4 C26_3 1_555 1_555
C27_4 N4_4 1_555 1_555
H25_4 C27_4 1_555 1_555
C28_3 C27_4 1_555 1_555
H26_3 C28_3 1_555 1_555
C29_3 C28_3 1_555 1_555
H27_3 C29_3 1_555 1_555
C30_3 C26_3 1_555 1_555
H28_3 C30_3 1_555 1_555
Zn6_3 O3_4 1_555 1_555
O13_4 Zn3_3 1_555 1_555
O21_2 C33_3 1_555 1_555
O16_3 Zn3_3 1_555 1_555
C33_3 O16_3 1_555 1_555
C34_3 C33_3 1_555 1_555
H32_3 C34_3 1_555 1_555
H33_3 C34_3 1_555 1_555
H34_3 C34_3 1_555 1_555
H38_3 C38_3 1_555 1_555
H39_3 C38_3 1_555 1_555
O22_3 Zn6_3 1_555 1_555
C10_3 C11_3 1_555 1_555
C11_3 C12_5 1_555 1_555
O12_4 Zn6_3 1_555 1_555
N4_4 Zn6_3 1_555 1_555
C29_3 C30_3 1_555 1_555
Zn1_5 O1_5 1_555 1_555
Zn2_4 O1_5 1_555 1_555
Zn3_4 O2_5 1_555 1_555
O1_5 C6_6 1_555 1_555
N1_4 Zn2_4 1_555 1_555
C1_4 N1_4 1_555 1_555
H1_4 C1_4 1_555 1_555
C2_4 C1_4 1_555 1_555
H2_4 C2_4 1_555 1_555
C3_5 C2_4 1_555 1_555
H3_5 C3_5 1_555 1_555
C4_5 C3_5 1_555 1_555
H4_5 C4_5 1_555 1_555
C5_4 N1_4 1_555 1_555
C6_6 C5_4 1_555 1_555
O2_5 Zn1_5 1_555 1_555
N2_5 Zn3_4 1_555 1_555
C7_5 N2_5 1_555 1_555
H5_5 C7_5 1_555 1_555
C8_4 C7_5 1_555 1_555
H6_4 C8_4 1_555 1_555
C9_4 C8_4 1_555 1_555
H7_4 C9_4 1_555 1_555
C10_4 C9_4 1_555 1_555
H8_4 C10_4 1_555 1_555
C11_4 N2_5 1_555 1_555
C12_6 O2_5 1_555 1_555
O3_5 C13_4 1_555 1_555
O4_4 Zn2_4 1_555 1_555
C13_4 O4_4 1_555 1_555
C14_4 C13_4 1_555 1_555
H9_4 C14_4 1_555 1_555
H10_5 C14_4 1_555 1_555
H11_4 C14_4 1_555 1_555
O5_4 Zn3_4 1_555 1_555
O6_5 Zn1_5 1_555 1_555
C15_4 O5_4 1_555 1_555
O7_5 Zn2_4 1_555 1_555
O8_5 Zn1_5 1_555 1_555
C17_5 O7_5 1_555 1_555
C18_4 C17_5 1_555 1_555
H15_4 C18_4 1_555 1_555
H16_4 C18_4 1_555 1_555
H17_5 C18_4 1_555 1_555
O9_4 Zn2_4 1_555 1_555
O10_5 C19_4 1_555 1_555
C19_4 O9_4 1_555 1_555
C20_4 C19_4 1_555 1_555
H18_2 C20_4 1_555 1_555
H19_4 C20_4 1_555 1_555
H20_4 C20_4 1_555 1_555
O11_5 C6_6 1_555 1_555
C21_4 C6_6 1_555 1_555
N3_4 C21_4 1_555 1_555
C22_4 N3_4 1_555 1_555
H21_4 C22_4 1_555 1_555
C23_4 C22_4 1_555 1_555
H22_4 C23_4 1_555 1_555
C24_5 C23_4 1_555 1_555
H23_5 C24_5 1_555 1_555
C25_5 C21_4 1_555 1_555
H24_5 C25_5 1_555 1_555
O12_5 C12_6 1_555 1_555
C26_4 C12_6 1_555 1_555
N4_5 C26_4 1_555 1_555
C27_5 N4_5 1_555 1_555
H25_5 C27_5 1_555 1_555
C28_4 C27_5 1_555 1_555
H26_4 C28_4 1_555 1_555
C29_4 C28_4 1_555 1_555
H27_4 C29_4 1_555 1_555
C30_4 C26_4 1_555 1_555
H28_4 C30_4 1_555 1_555
Zn4_5 O11_5 1_555 1_555
Zn5_4 O11_5 1_555 1_555
Zn6_4 O3_5 1_555 1_555
O13_5 Zn3_4 1_555 1_555
O14_4 Zn5_4 1_555 1_555
C31_4 O13_5 1_555 1_555
O16_4 Zn3_4 1_555 1_555
O17_4 Zn6_4 1_555 1_555
O18_5 Zn4_5 1_555 1_555
C35_4 O17_4 1_555 1_555
C36_4 C35_4 1_555 1_555
H35_4 C36_4 1_555 1_555
H36_4 C36_4 1_555 1_555
H37_5 C36_4 1_555 1_555
O19_5 Zn5_4 1_555 1_555
O20_5 Zn4_5 1_555 1_555
C37_5 O19_5 1_555 1_555
C38_4 C37_5 1_555 1_555
H38_4 C38_4 1_555 1_555
H39_4 C38_4 1_555 1_555
H40_5 C38_4 1_555 1_555
Zn7_5 O10_5 1_555 1_555
O21_4 Zn5_4 1_555 1_555
O22_4 Zn6_4 1_555 1_555
C4_5 C5_4 1_555 1_555
C10_4 C11_4 1_555 1_555
C11_4 C12_6 1_555 1_555
O6_5 C15_4 1_555 1_555
O8_5 C17_5 1_555 1_555
N3_4 Zn5_4 1_555 1_555
C24_5 C25_5 1_555 1_555
O12_5 Zn4_5 1_555 1_555
O12_5 Zn6_4 1_555 1_555
N4_5 Zn6_4 1_555 1_555
C29_4 C30_4 1_555 1_555
O14_4 C31_4 1_555 1_555
O18_5 C35_4 1_555 1_555
O20_5 C37_5 1_555 1_555
Zn1_6 O1_6 1_555 1_555
Zn2_5 O1_6 1_555 1_555
Zn7_3 O2_6 1_555 1_555
O1_6 C6_7 1_555 1_555
N1_5 Zn2_5 1_555 1_555
C1_5 N1_5 1_555 1_555
H1_5 C1_5 1_555 1_555
C2_5 C1_5 1_555 1_555
H2_5 C2_5 1_555 1_555
C3_6 C2_5 1_555 1_555
H3_6 C3_6 1_555 1_555
C4_6 C3_6 1_555 1_555
H4_6 C4_6 1_555 1_555
C5_5 N1_5 1_555 1_555
C6_7 C5_5 1_555 1_555
O2_6 Zn1_6 1_555 1_555
N2_6 Zn7_3 1_555 1_555
C7_6 N2_6 1_555 1_555
H5_6 C7_6 1_555 1_555
C8_5 C7_6 1_555 1_555
H6_5 C8_5 1_555 1_555
C9_5 C8_5 1_555 1_555
H7_5 C9_5 1_555 1_555
C10_5 C9_5 1_555 1_555
H8_5 C10_5 1_555 1_555
C11_5 N2_6 1_555 1_555
C12_7 O2_6 1_555 1_555
O3_6 C13_5 1_555 1_555
O4_5 Zn2_5 1_555 1_555
C13_5 O4_5 1_555 1_555
C14_5 C13_5 1_555 1_555
H9_5 C14_5 1_555 1_555
H10_6 C14_5 1_555 1_555
H11_5 C14_5 1_555 1_555
O5_5 Zn7_3 1_555 1_555
O6_6 Zn1_6 1_555 1_555
C15_5 O5_5 1_555 1_555
O7_6 Zn2_5 1_555 1_555
O8_6 Zn1_6 1_555 1_555
C17_6 O7_6 1_555 1_555
C18_5 C17_6 1_555 1_555
H15_5 C18_5 1_555 1_555
H16_5 C18_5 1_555 1_555
H17_6 C18_5 1_555 1_555
O9_5 Zn2_5 1_555 1_555
O10_6 C19_5 1_555 1_555
C19_5 O9_5 1_555 1_555
C20_5 C19_5 1_555 1_555
H18_3 C20_5 1_555 1_555
H19_5 C20_5 1_555 1_555
H20_5 C20_5 1_555 1_555
O11_6 C6_7 1_555 1_555
C21_5 C6_7 1_555 1_555
N3_5 C21_5 1_555 1_555
C22_5 N3_5 1_555 1_555
H21_5 C22_5 1_555 1_555
C23_5 C22_5 1_555 1_555
H22_5 C23_5 1_555 1_555
C24_6 C23_5 1_555 1_555
H23_6 C24_6 1_555 1_555
C25_6 C21_5 1_555 1_555
H24_6 C25_6 1_555 1_555
O12_6 C12_7 1_555 1_555
C26_5 C12_7 1_555 1_555
N4_6 C26_5 1_555 1_555
C27_6 N4_6 1_555 1_555
H25_6 C27_6 1_555 1_555
C28_5 C27_6 1_555 1_555
H26_5 C28_5 1_555 1_555
C29_5 C28_5 1_555 1_555
H27_5 C29_5 1_555 1_555
C30_5 C26_5 1_555 1_555
H28_5 C30_5 1_555 1_555
Zn4_6 O11_6 1_555 1_555
Zn5_5 O11_6 1_555 1_555
Zn7_4 O3_6 1_555 1_555
O13_6 Zn7_3 1_555 1_555
O14_5 Zn5_5 1_555 1_555
C31_5 O13_6 1_555 1_555
O17_5 Zn7_4 1_555 1_555
O18_6 Zn4_6 1_555 1_555
C35_5 O17_5 1_555 1_555
C36_5 C35_5 1_555 1_555
H35_5 C36_5 1_555 1_555
H36_5 C36_5 1_555 1_555
H37_6 C36_5 1_555 1_555
O19_6 Zn5_5 1_555 1_555
O20_6 Zn4_6 1_555 1_555
C37_6 O19_6 1_555 1_555
C38_5 C37_6 1_555 1_555
H38_5 C38_5 1_555 1_555
H39_5 C38_5 1_555 1_555
H40_6 C38_5 1_555 1_555
Zn7_6 O10_6 1_555 1_555
O21_5 Zn5_5 1_555 1_555
C4_6 C5_5 1_555 1_555
C10_5 C11_5 1_555 1_555
C11_5 C12_7 1_555 1_555
O6_6 C15_5 1_555 1_555
O8_6 C17_6 1_555 1_555
N3_5 Zn5_5 1_555 1_555
C24_6 C25_6 1_555 1_555
O12_6 Zn4_6 1_555 1_555
O12_6 Zn7_4 1_555 1_555
N4_6 Zn7_4 1_555 1_555
C29_5 C30_5 1_555 1_555
O14_5 C31_5 1_555 1_555
O18_6 C35_5 1_555 1_555
O20_6 C37_6 1_555 1_555
Zn1_7 O1_7 1_555 1_555
Zn7_6 O2_7 1_555 1_555
O1_7 C6_8 1_555 1_555
O2_7 Zn1_7 1_555 1_555
N2_7 Zn7_6 1_555 1_555
C7_7 N2_7 1_555 1_555
H5_7 C7_7 1_555 1_555
C12_8 O2_7 1_555 1_555
O5_6 Zn7_6 1_555 1_555
O6_7 Zn1_7 1_555 1_555
C15_6 O5_6 1_555 1_555
C16_4 C15_6 1_555 1_555
H12_4 C16_4 1_555 1_555
H13_4 C16_4 1_555 1_555
H14_5 C16_4 1_555 1_555
O8_7 Zn1_7 1_555 1_555
C17_7 O7_7 1_555 1_555
C18_6 C17_7 1_555 1_555
H15_6 C18_6 1_555 1_555
H16_6 C18_6 1_555 1_555
H17_7 C18_6 1_555 1_555
C21_6 C6_8 1_555 1_555
N3_6 C21_6 1_555 1_555
C22_6 N3_6 1_555 1_555
H21_6 C22_6 1_555 1_555
C23_6 C22_6 1_555 1_555
H22_6 C23_6 1_555 1_555
C24_7 C23_6 1_555 1_555
H23_7 C24_7 1_555 1_555
C25_7 C21_6 1_555 1_555
H24_7 C25_7 1_555 1_555
C26_6 C12_8 1_555 1_555
H26_6 C28_6 1_555 1_555
C29_6 C28_6 1_555 1_555
H27_6 C29_6 1_555 1_555
C30_6 C26_6 1_555 1_555
H28_6 C30_6 1_555 1_555
O13_7 Zn7_6 1_555 1_555
O14_6 Zn8 1_555 1_555
C31_6 O13_7 1_555 1_555
C32_4 C31_6 1_555 1_555
H29_6 C32_4 1_555 1_555
H30_5 C32_4 1_555 1_555
H31_4 C32_4 1_555 1_555
O6_7 C15_6 1_555 1_555
O8_7 C17_7 1_555 1_555
N3_6 Zn8 1_555 1_555
C24_7 C25_7 1_555 1_555
C29_6 C30_6 1_555 1_555
O14_6 C31_6 1_555 1_555
N1_6 Zn8_2 1_555 1_555
C1_6 N1_6 1_555 1_555
H1_6 C1_6 1_555 1_555
C2_6 C1_6 1_555 1_555
H2_6 C2_6 1_555 1_555
C3_7 C2_6 1_555 1_555
H3_7 C3_7 1_555 1_555
C4_7 C3_7 1_555 1_555
H4_7 C4_7 1_555 1_555
C5_6 N1_6 1_555 1_555
C6_9 C5_6 1_555 1_555
H6_6 C8_6 1_555 1_555
C9_6 C8_6 1_555 1_555
H7_6 C9_6 1_555 1_555
C10_6 C9_6 1_555 1_555
H8_6 C10_6 1_555 1_555
O3_7 C13_6 1_555 1_555
O4_6 Zn8_2 1_555 1_555
C13_6 O4_6 1_555 1_555
C14_6 C13_6 1_555 1_555
H9_6 C14_6 1_555 1_555
H10_7 C14_6 1_555 1_555
H11_6 C14_6 1_555 1_555
O11_7 C6_9 1_555 1_555
O12_7 C12_9 1_555 1_555
C27_7 N4_7 1_555 1_555
H25_7 C27_7 1_555 1_555
Zn4_7 O11_7 1_555 1_555
Zn7_5 O3_7 1_555 1_555
O17_6 Zn7_5 1_555 1_555
O18_7 Zn4_7 1_555 1_555
C35_6 O17_6 1_555 1_555
C36_6 C35_6 1_555 1_555
H35_6 C36_6 1_555 1_555
H36_6 C36_6 1_555 1_555
H37_7 C36_6 1_555 1_555
O20_7 Zn4_7 1_555 1_555
C37_7 O19_7 1_555 1_555
C38_6 C37_7 1_555 1_555
H38_6 C38_6 1_555 1_555
H39_6 C38_6 1_555 1_555
H40_7 C38_6 1_555 1_555
C4_7 C5_6 1_555 1_555
C10_6 C11_6 1_555 1_555
C11_6 C12_9 1_555 1_555
O12_7 Zn4_7 1_555 1_555
O12_7 Zn7_5 1_555 1_555
N4_7 Zn7_5 1_555 1_555
O18_7 C35_6 1_555 1_555
O20_7 C37_7 1_555 1_555
Zn3_5 O2_8 1_555 1_555
H3_8 C3_8 1_555 1_555
C4_8 C3_8 1_555 1_555
H4_8 C4_8 1_555 1_555
N2_8 Zn3_5 1_555 1_555
C7_8 N2_8 1_555 1_555
H5_8 C7_8 1_555 1_555
C8_7 C7_8 1_555 1_555
H6_7 C8_7 1_555 1_555
C9_7 C8_7 1_555 1_555
H7_7 C9_7 1_555 1_555
C10_7 C9_7 1_555 1_555
H8_7 C10_7 1_555 1_555
C11_7 N2_8 1_555 1_555
C12_10 O2_8 1_555 1_555
O5_7 Zn3_5 1_555 1_555
C15_7 O5_7 1_555 1_555
C16_5 C15_7 1_555 1_555
H12_5 C16_5 1_555 1_555
H13_5 C16_5 1_555 1_555
O11_8 C6_10 1_555 1_555
C21_7 C6_10 1_555 1_555
N3_7 C21_7 1_555 1_555
C22_7 N3_7 1_555 1_555
H21_7 C22_7 1_555 1_555
C23_7 C22_7 1_555 1_555
H22_7 C23_7 1_555 1_555
Zn4_8 O11_8 1_555 1_555
Zn5_6 O11_8 1_555 1_555
O13_8 Zn3_5 1_555 1_555
O14_7 Zn5_6 1_555 1_555
C31_7 O13_8 1_555 1_555
C32_5 C31_7 1_555 1_555
H29_7 C32_5 1_555 1_555
H30_6 C32_5 1_555 1_555
H31_5 C32_5 1_555 1_555
O21_5 C33_4 1_555 1_555
O16_5 Zn3_5 1_555 1_555
C33_4 O16_5 1_555 1_555
C34_4 C33_4 1_555 1_555
H33_4 C34_4 1_555 1_555
H34_4 C34_4 1_555 1_555
O18_8 Zn4_8 1_555 1_555
O19_8 Zn5_6 1_555 1_555
O20_8 Zn4_8 1_555 1_555
C37_8 O19_8 1_555 1_555
C38_7 C37_8 1_555 1_555
H38_7 C38_7 1_555 1_555
H39_7 C38_7 1_555 1_555
H40_8 C38_7 1_555 1_555
O21_6 Zn5_6 1_555 1_555
C10_7 C11_7 1_555 1_555
C11_7 C12_10 1_555 1_555
N3_7 Zn5_6 1_555 1_555
O14_7 C31_7 1_555 1_555
O20_8 C37_8 1_555 1_555
Zn1_8 O1_8 1_555 1_555
Zn2_6 O1_8 1_555 1_555
O1_8 C6_11 1_555 1_555
N1_7 Zn2_6 1_555 1_555
C1_7 N1_7 1_555 1_555
H1_7 C1_7 1_555 1_555
C2_7 C1_7 1_555 1_555
H2_7 C2_7 1_555 1_555
C5_7 N1_7 1_555 1_555
C6_11 C5_7 1_555 1_555
O3_8 C13_7 1_555 1_555
O4_7 Zn2_6 1_555 1_555
C13_7 O4_7 1_555 1_555
C14_7 C13_7 1_555 1_555
H9_7 C14_7 1_555 1_555
H10_8 C14_7 1_555 1_555
H11_7 C14_7 1_555 1_555
O6_8 Zn1_8 1_555 1_555
O7_8 Zn2_6 1_555 1_555
O8_8 Zn1_8 1_555 1_555
C17_8 O7_8 1_555 1_555
C18_7 C17_8 1_555 1_555
H15_7 C18_7 1_555 1_555
H16_7 C18_7 1_555 1_555
H17_8 C18_7 1_555 1_555
O9_6 Zn2_6 1_555 1_555
O22_2 C19_6 1_555 1_555
C19_6 O9_6 1_555 1_555
C20_6 C19_6 1_555 1_555
H18_4 C20_6 1_555 1_555
H19_6 C20_6 1_555 1_555
H20_6 C20_6 1_555 1_555
H23_8 C24_8 1_555 1_555
H24_8 C25_8 1_555 1_555
O12_8 C12_11 1_555 1_555
C26_7 C12_11 1_555 1_555
N4_8 C26_7 1_555 1_555
C27_8 N4_8 1_555 1_555
H25_8 C27_8 1_555 1_555
C28_7 C27_8 1_555 1_555
H26_7 C28_7 1_555 1_555
C29_7 C28_7 1_555 1_555
H27_7 C29_7 1_555 1_555
C30_7 C26_7 1_555 1_555
H28_7 C30_7 1_555 1_555
Zn6_5 O3_8 1_555 1_555
O17_7 Zn6_5 1_555 1_555
C35_7 O17_7 1_555 1_555
C36_7 C35_7 1_555 1_555
H35_7 C36_7 1_555 1_555
H36_7 C36_7 1_555 1_555
O22_5 Zn6_5 1_555 1_555
O8_8 C17_8 1_555 1_555
C24_8 C25_8 1_555 1_555
O12_8 Zn6_5 1_555 1_555
N4_8 Zn6_5 1_555 1_555
C29_7 C30_7 1_555 1_555
O22_5 C19_7 1_555 1_555
C19_7 O21_4 1_555 1_555
C20_7 C19_7 1_555 1_555
H19_7 C20_7 1_555 1_555
H20_7 C20_7 1_555 1_555
O21_3 C33_5 1_555 1_555
C33_5 O22_4 1_555 1_555
C34_5 C33_5 1_555 1_555
H32_5 C34_5 1_555 1_555
H33_5 C34_5 1_555 1_555
H34_5 C34_5 1_555 1_555
O22 C19_8 1_555 1_555
C19_8 O21_6 1_555 1_555
C20_8 C19_8 1_555 1_555
H18_6 C20_8 1_555 1_555
H19_8 C20_8 1_555 1_555
H20_8 C20_8 1_555 1_555
O22_3 C19_9 1_555 1_555
C19_9 O21 1_555 1_555
C20_9 C19_9 1_555 1_555
H18_7 C20_9 1_555 1_555
H19_9 C20_9 1_555 1_555
H20_9 C20_9 1_555 1_555
H6_8 C8_8 1_555 1_555
C9_8 C8_8 1_555 1_555
H7_8 C9_8 1_555 1_555
C10_8 C9_8 1_555 1_555
H8_8 C10_8 1_555 1_555
H38_8 C38_8 1_555 1_555
H39_8 C38_8 1_555 1_555
C10_8 C11_8 1_555 1_555
C11_8 C12_12 1_555 1_555
H15_8 C18_8 1_555 1_555
H16_8 C18_8 1_555 1_555
C26_8 C12_13 1_555 1_555
H26_8 C28_8 1_555 1_555
C29_8 C28_8 1_555 1_555
H27_8 C29_8 1_555 1_555
C30_8 C26_8 1_555 1_555
H28_8 C30_8 1_555 1_555
C29_8 C30_8 1_555 1_555
C15_8 O5_8 1_555 1_555
C16_6 C15_8 1_555 1_555
H12_6 C16_6 1_555 1_555
H13_6 C16_6 1_555 1_555
C21_8 C6_12 1_555 1_555
N3_8 C21_8 1_555 1_555
C22_8 N3_8 1_555 1_555
H21_8 C22_8 1_555 1_555
C23_8 C22_8 1_555 1_555
H22_8 C23_8 1_555 1_555
O14_8 Zn5_7 1_555 1_555
C32_6 C31_8 1_555 1_555
H29_8 C32_6 1_555 1_555
H31_6 C32_6 1_555 1_555
O21_7 Zn5_7 1_555 1_555
N3_8 Zn5_7 1_555 1_555
O14_8 C31_8 1_555 1_555
H12_7 C16_7 1_555 1_555
H13_7 C16_7 1_555 1_555
H14_7 C16_7 1_555 1_555
H30_7 C32_7 1_555 1_555
H31_7 C32_7 1_555 1_555
O21_7 C33_6 1_555 1_555
C34_6 C33_6 1_555 1_555
H32_6 C34_6 1_555 1_555
H33_6 C34_6 1_555 1_555
H34_6 C34_6 1_555 1_555
N1_8 Zn2_7 1_555 1_555
C1_8 N1_8 1_555 1_555
H1_8 C1_8 1_555 1_555
C2_8 C1_8 1_555 1_555
H2_8 C2_8 1_555 1_555
C5_8 N1_8 1_555 1_555
C6_13 C5_8 1_555 1_555
O4_8 Zn2_7 1_555 1_555
C13_8 O4_8 1_555 1_555
C14_8 C13_8 1_555 1_555
H9_8 C14_8 1_555 1_555
H11_8 C14_8 1_555 1_555
O9_7 Zn2_7 1_555 1_555
C19_10 O9_7 1_555 1_555
C20_10 C19_10 1_555 1_555
H18_10 C20_10 1_555 1_555
H19_10 C20_10 1_555 1_555
H20_10 C20_10 1_555 1_555
C35_8 O17_8 1_555 1_555
C36_8 C35_8 1_555 1_555
H35_8 C36_8 1_555 1_555
H36_8 C36_8 1_555 1_555
H12_8 C16_8 1_555 1_555
H13_8 C16_8 1_555 1_555
H14_8 C16_8 1_555 1_555
H30_8 C32_8 1_555 1_555
H31_8 C32_8 1_555 1_555

#END
