
###############################################################################
#
# This file contains modified crystal structure data generated from the
# MOF subset of the Cambridge Structural Database (CSD) v543 
# hosted by the Cambridge Crystallographic Data Centre (CCDC).
#
# This work is licensed under the Creative Commons
# Attribution-NonCommercial-ShareAlike 4.0 International License.
# To view a copy of this license, visit
# http://creativecommons.org/licenses/by-nc-sa/4.0/
# or send a letter to
# Creative Commons, PO Box 1866, Mountain View, CA 94042, USA.
#
# CIF created using the CSD Python API on 29 September 2022
# The structure has been converted into the P1 space group
# The structure has a 3D framework
# The original CSD entry ACIBOE is in the tetragonal crystal system
# The framework has been calculated to contain at least 10.0% void space
# The void calculation uses a probe of radius 1.32A, grid spacing 0.4
# H atom positions have been added when not included in the experimental data
# Generated hydrogen atom positions removed from atoms on special positions
#
###############################################################################

data_ACIBOE
_chemical_formula_moiety         '(C168 H168 N8 O128 Zn24)n'
_symmetry_cell_setting           triclinic
_symmetry_space_group_name_H-M   'P 1'
_symmetry_Int_Tables_number      1
_space_group_name_Hall           'P 1'
loop_
_symmetry_equiv_pos_site_id
_symmetry_equiv_pos_as_xyz
1 x,y,z
_cell_length_a                   20.588(3)
_cell_length_b                   20.588(3)
_cell_length_c                   17.832(4)
_cell_angle_alpha                90
_cell_angle_beta                 90
_cell_angle_gamma                90
_cell_volume                     7558.37
loop_
_atom_site_label
_atom_site_type_symbol
_atom_site_fract_x
_atom_site_fract_y
_atom_site_fract_z
Zn1 Zn 0.34308(3) 0.84308(3) 0.22726(5)
Zn2 Zn 0.38013(3) 0.75718(3) 0.08142(4)
O1 O 0.1918(2) 0.8261(3) 0.1335(2)
O2 O 0.2417(2) 0.8380(3) 0.2431(3)
O3 O 0.6296(3) 0.7357(3) 0.4762(3)
O4 O 0.5566(4) 0.8128(3) 0.4633(3)
O5 O 0.4444(2) 0.8365(2) 0.2192(3)
O6 O 0.4635(3) 0.7574(3) 0.1331(3)
O7 O 0.34001(19) 0.84001(19) 0.1089(3)
O8 O 0.3566(3) 0.8566(3) 0.3400(4)
O9 O 0.3444(5) 0.9182(5) 0.0573(4)
C1 C 0.6410(3) 0.7168(3) 0.2411(3)
C2 C 0.6434(3) 0.7282(3) 0.3179(3)
H1 H 0.6787 0.7136 0.3458
C3 C 0.5925(3) 0.7618(3) 0.3535(3)
C4 C 0.5401(3) 0.7840(3) 0.3121(3)
H2 H 0.5070 0.8072 0.3355
C5 C 0.5371(3) 0.7715(3) 0.2350(3)
C6 C 0.5874(3) 0.7371(4) 0.2001(3)
H3 H 0.5850 0.7279 0.1492
C7 C 0.1962(3) 0.8181(3) 0.2031(3)
C8 C 0.5922(4) 0.7721(3) 0.4371(3)
C9 C 0.4765(3) 0.7905(3) 0.1920(3)
C10 C 0.3319(5) 0.8319(5) 0.3862(9)
C11 C 0.3090(15) 0.8090(15) 0.5194(15)
C12 C 0.3895(6) 0.8895(6) 0.4792(14)
N1 N 0.3423(5) 0.8423(5) 0.4626(8)
Zn3 Zn 0.84308(3) 0.65692(3) 0.22726(5)
Zn5 Zn 0.61987(3) 0.75718(3) 0.58142(4)
Zn6 Zn 0.25718(3) 0.88013(3) 0.08142(4)
Zn7 Zn 0.75718(3) 0.61987(3) 0.08142(4)
Zn8 Zn 0.11987(3) 0.74282(3) 0.58142(4)
O10 O 0.3261(3) 0.6918(2) 0.1335(2)
O11 O 0.6918(2) 0.6739(3) 0.1335(2)
O12 O 0.3380(3) 0.7417(2) 0.2431(3)
O13 O 0.7417(2) 0.6620(3) 0.2431(3)
O16 O 0.1296(3) 0.7643(3) 0.4762(3)
O17 O 0.0566(4) 0.6872(3) 0.4633(3)
O18 O 0.3365(2) 0.9444(2) 0.2192(3)
O20 O 0.2574(3) 0.9635(3) 0.1331(3)
O22 O 0.4182(5) 0.8444(5) 0.0573(4)
C13 C 0.1410(3) 0.7832(3) 0.2411(3)
C14 C 0.1434(3) 0.7718(3) 0.3179(3)
H4 H 0.1787 0.7864 0.3458
C15 C 0.0925(3) 0.7382(3) 0.3535(3)
C16 C 0.0401(3) 0.7160(3) 0.3121(3)
H5 H 0.0070 0.6928 0.3355
C17 C 0.0371(3) 0.7285(3) 0.2350(3)
C18 C 0.0874(3) 0.7629(4) 0.2001(3)
H6 H 0.0850 0.7721 0.1492
C19 C 0.6962(3) 0.6819(3) 0.2031(3)
C20 C 0.0922(4) 0.7279(3) 0.4371(3)
H9 H 0.295656 0.795656 0.371122
H10 H 0.318181 0.757103 0.514198
H11 H 0.325852 0.825852 0.57392
H12 H 0.257103 0.818181 0.514198
H13 H 0.374862 0.935939 0.455343
H14 H 0.394263 0.894263 0.539773
H15 H 0.435939 0.874862 0.455343
O14 O 0.3704(3) 0.7357(3) 0.9762(3)
O15 O 0.2357(3) 0.8704(3) 0.9762(3)
Zn9 Zn 0.88013(3) 0.74282(3) 0.08142(4)
O19 O 0.9444(2) 0.6635(2) 0.2192(3)
O21 O 0.9635(3) 0.7426(3) 0.1331(3)
C21 C 0.9765(3) 0.7095(3) 0.1920(3)
Zn4 Zn 0.15692(3) 0.34308(3) 0.22726(5)
Zn9_2 Zn 0.11987(3) 0.25718(3) 0.08142(4)
O19_2 O 0.0556(2) 0.3365(2) 0.2192(3)
O21_2 O 0.0365(3) 0.2574(3) 0.1331(3)
C21_2 C 0.0235(3) 0.2905(3) 0.1920(3)
Zn1_2 Zn 0.65692(3) 0.15692(3) 0.22726(5)
Zn2_2 Zn 0.61987(3) 0.24282(3) 0.08142(4)
O1_2 O 0.8082(2) 0.1739(3) 0.1335(2)
O2_2 O 0.7583(2) 0.1620(3) 0.2431(3)
O3_2 O 0.3704(3) 0.2643(3) 0.4762(3)
O4_2 O 0.4434(4) 0.1872(3) 0.4633(3)
O5_2 O 0.5556(2) 0.1635(2) 0.2192(3)
O6_2 O 0.5365(3) 0.2426(3) 0.1331(3)
O7_2 O 0.65999(19) 0.15999(19) 0.1089(3)
O8_2 O 0.6434(3) 0.1434(3) 0.3400(4)
O9_2 O 0.6556(5) 0.0818(5) 0.0573(4)
C1_2 C 0.3590(3) 0.2832(3) 0.2411(3)
C2_2 C 0.3566(3) 0.2718(3) 0.3179(3)
H1_2 H 0.3213 0.2864 0.3458
C3_2 C 0.4075(3) 0.2382(3) 0.3535(3)
C4_2 C 0.4599(3) 0.2160(3) 0.3121(3)
H2_2 H 0.4930 0.1928 0.3355
C5_2 C 0.4629(3) 0.2285(3) 0.2350(3)
C6_2 C 0.4126(3) 0.2629(4) 0.2001(3)
H3_2 H 0.4150 0.2721 0.1492
C7_2 C 0.8038(3) 0.1819(3) 0.2031(3)
C8_2 C 0.4078(4) 0.2279(3) 0.4371(3)
C9_2 C 0.5235(3) 0.2095(3) 0.1920(3)
C10_2 C 0.6681(5) 0.1681(5) 0.3862(9)
C11_2 C 0.6910(15) 0.1910(15) 0.5194(15)
C12_2 C 0.6105(6) 0.1105(6) 0.4792(14)
N1_2 N 0.6577(5) 0.1577(5) 0.4626(8)
Zn5_2 Zn 0.38013(3) 0.24282(3) 0.58142(4)
Zn6_2 Zn 0.74282(3) 0.11987(3) 0.08142(4)
Zn7_2 Zn 0.24282(3) 0.38013(3) 0.08142(4)
Zn8_2 Zn 0.88013(3) 0.25718(3) 0.58142(4)
O10_2 O 0.6739(3) 0.3082(2) 0.1335(2)
O11_2 O 0.3082(2) 0.3261(3) 0.1335(2)
O12_2 O 0.6620(3) 0.2583(2) 0.2431(3)
O13_2 O 0.2583(2) 0.3380(3) 0.2431(3)
O16_2 O 0.8704(3) 0.2357(3) 0.4762(3)
O17_2 O 0.9434(4) 0.3128(3) 0.4633(3)
O18_2 O 0.6635(2) 0.0556(2) 0.2192(3)
O20_2 O 0.7426(3) 0.0365(3) 0.1331(3)
O22_2 O 0.5818(5) 0.1556(5) 0.0573(4)
C13_2 C 0.8590(3) 0.2168(3) 0.2411(3)
C14_2 C 0.8566(3) 0.2282(3) 0.3179(3)
H4_2 H 0.8213 0.2136 0.3458
C15_2 C 0.9075(3) 0.2618(3) 0.3535(3)
C16_2 C 0.9599(3) 0.2840(3) 0.3121(3)
H5_2 H 0.9930 0.3072 0.3355
C17_2 C 0.9629(3) 0.2715(3) 0.2350(3)
C18_2 C 0.9126(3) 0.2371(4) 0.2001(3)
H6_2 H 0.9150 0.2279 0.1492
C19_2 C 0.3038(3) 0.3181(3) 0.2031(3)
C20_2 C 0.9078(4) 0.2721(3) 0.4371(3)
H9_2 H 0.704344 0.204344 0.371122
H10_2 H 0.681819 0.242897 0.514198
H11_2 H 0.674148 0.174148 0.57392
H12_2 H 0.742897 0.181819 0.514198
H13_2 H 0.625138 0.0640606 0.455343
H14_2 H 0.605737 0.105737 0.539773
H15_2 H 0.564061 0.125138 0.455343
O14_2 O 0.6296(3) 0.2643(3) 0.9762(3)
O15_2 O 0.7643(3) 0.1296(3) 0.9762(3)
O1_3 O 0.1739(3) 0.1918(2) 0.1335(2)
O2_3 O 0.1620(3) 0.2417(2) 0.2431(3)
O3_3 O 0.2643(3) 0.6296(3) 0.4762(3)
O4_3 O 0.1872(3) 0.5566(4) 0.4633(3)
O5_3 O 0.1635(2) 0.4444(2) 0.2192(3)
O6_3 O 0.2426(3) 0.4635(3) 0.1331(3)
O7_3 O 0.15999(19) 0.34001(19) 0.1089(3)
O8_3 O 0.1434(3) 0.3566(3) 0.3400(4)
O9_3 O 0.0818(5) 0.3444(5) 0.0573(4)
C1_3 C 0.2832(3) 0.6410(3) 0.2411(3)
C2_3 C 0.2718(3) 0.6434(3) 0.3179(3)
H1_3 H 0.2864 0.6787 0.3458
C3_3 C 0.2382(3) 0.5925(3) 0.3535(3)
C4_3 C 0.2160(3) 0.5401(3) 0.3121(3)
H2_3 H 0.1928 0.5070 0.3355
C5_3 C 0.2285(3) 0.5371(3) 0.2350(3)
C6_3 C 0.2629(4) 0.5874(3) 0.2001(3)
H3_3 H 0.2721 0.5850 0.1492
C7_3 C 0.1819(3) 0.1962(3) 0.2031(3)
C8_3 C 0.2279(3) 0.5922(4) 0.4371(3)
C9_3 C 0.2095(3) 0.4765(3) 0.1920(3)
C10_3 C 0.1681(5) 0.3319(5) 0.3862(9)
C11_3 C 0.1910(15) 0.3090(15) 0.5194(15)
C12_3 C 0.1105(6) 0.3895(6) 0.4792(14)
N1_3 N 0.1577(5) 0.3423(5) 0.4626(8)
Zn5_3 Zn 0.24282(3) 0.61987(3) 0.58142(4)
Zn8_3 Zn 0.25718(3) 0.11987(3) 0.58142(4)
O16_3 O 0.2357(3) 0.1296(3) 0.4762(3)
O17_3 O 0.3128(3) 0.0566(4) 0.4633(3)
O22_3 O 0.1556(5) 0.4182(5) 0.0573(4)
C13_3 C 0.2168(3) 0.1410(3) 0.2411(3)
C14_3 C 0.2282(3) 0.1434(3) 0.3179(3)
H4_3 H 0.2136 0.1787 0.3458
C15_3 C 0.2618(3) 0.0925(3) 0.3535(3)
C16_3 C 0.2840(3) 0.0401(3) 0.3121(3)
H5_3 H 0.3072 0.0070 0.3355
C17_3 C 0.2715(3) 0.0371(3) 0.2350(3)
C18_3 C 0.2371(4) 0.0874(3) 0.2001(3)
H6_3 H 0.2279 0.0850 0.1492
C19_3 C 0.3181(3) 0.6962(3) 0.2031(3)
C20_3 C 0.2721(3) 0.0922(4) 0.4371(3)
H9_3 H 0.204344 0.295656 0.371122
H10_3 H 0.242897 0.318181 0.514198
H11_3 H 0.174148 0.325852 0.57392
H12_3 H 0.181819 0.257103 0.514198
H13_3 H 0.0640606 0.374862 0.455343
H14_3 H 0.105737 0.394263 0.539773
H15_3 H 0.125138 0.435939 0.455343
O14_3 O 0.2643(3) 0.3704(3) 0.9762(3)
O15_3 O 0.1296(3) 0.2357(3) 0.9762(3)
C21_3 C 0.2905(3) 0.9765(3) 0.1920(3)
C21_4 C 0.7095(3) 0.0235(3) 0.1920(3)
O1_4 O 0.8261(3) 0.8082(2) 0.1335(2)
O2_4 O 0.8380(3) 0.7583(2) 0.2431(3)
O3_4 O 0.7357(3) 0.3704(3) 0.4762(3)
O4_4 O 0.8128(3) 0.4434(4) 0.4633(3)
O5_4 O 0.8365(2) 0.5556(2) 0.2192(3)
O6_4 O 0.7574(3) 0.5365(3) 0.1331(3)
O7_4 O 0.84001(19) 0.65999(19) 0.1089(3)
O8_4 O 0.8566(3) 0.6434(3) 0.3400(4)
O9_4 O 0.9182(5) 0.6556(5) 0.0573(4)
C1_4 C 0.7168(3) 0.3590(3) 0.2411(3)
C2_4 C 0.7282(3) 0.3566(3) 0.3179(3)
H1_4 H 0.7136 0.3213 0.3458
C3_4 C 0.7618(3) 0.4075(3) 0.3535(3)
C4_4 C 0.7840(3) 0.4599(3) 0.3121(3)
H2_4 H 0.8072 0.4930 0.3355
C5_4 C 0.7715(3) 0.4629(3) 0.2350(3)
C6_4 C 0.7371(4) 0.4126(3) 0.2001(3)
H3_4 H 0.7279 0.4150 0.1492
C7_4 C 0.8181(3) 0.8038(3) 0.2031(3)
C8_4 C 0.7721(3) 0.4078(4) 0.4371(3)
C9_4 C 0.7905(3) 0.5235(3) 0.1920(3)
C10_4 C 0.8319(5) 0.6681(5) 0.3862(9)
C11_4 C 0.8090(15) 0.6910(15) 0.5194(15)
C12_4 C 0.8895(6) 0.6105(6) 0.4792(14)
N1_4 N 0.8423(5) 0.6577(5) 0.4626(8)
Zn5_4 Zn 0.75718(3) 0.38013(3) 0.58142(4)
Zn8_4 Zn 0.74282(3) 0.88013(3) 0.58142(4)
O16_4 O 0.7643(3) 0.8704(3) 0.4762(3)
O17_4 O 0.6872(3) 0.9434(4) 0.4633(3)
O22_4 O 0.8444(5) 0.5818(5) 0.0573(4)
C13_4 C 0.7832(3) 0.8590(3) 0.2411(3)
C14_4 C 0.7718(3) 0.8566(3) 0.3179(3)
H4_4 H 0.7864 0.8213 0.3458
C15_4 C 0.7382(3) 0.9075(3) 0.3535(3)
C16_4 C 0.7160(3) 0.9599(3) 0.3121(3)
H5_4 H 0.6928 0.9930 0.3355
C17_4 C 0.7285(3) 0.9629(3) 0.2350(3)
C18_4 C 0.7629(4) 0.9126(3) 0.2001(3)
H6_4 H 0.7721 0.9150 0.1492
C19_4 C 0.6819(3) 0.3038(3) 0.2031(3)
C20_4 C 0.7279(3) 0.9078(4) 0.4371(3)
H9_4 H 0.795656 0.704344 0.371122
H10_4 H 0.757103 0.681819 0.514198
H11_4 H 0.825852 0.674148 0.57392
H12_4 H 0.818181 0.742897 0.514198
H13_4 H 0.935939 0.625138 0.455343
H14_4 H 0.894263 0.605737 0.539773
H15_4 H 0.874862 0.564061 0.455343
O14_4 O 0.7357(3) 0.6296(3) 0.9762(3)
O15_4 O 0.8704(3) 0.7643(3) 0.9762(3)
C11_5 C 0.3090(15) 0.1910(15) 0.0194(15)
H10_5 H 0.318181 0.242897 0.014198
H11_5 H 0.325852 0.174148 0.0739198
H12_5 H 0.257103 0.181819 0.014198
H14_5 H 0.394263 0.105737 0.0397729
Zn1_3 Zn 0.34308(3) 0.15692(3) 0.72726(5)
O1_5 O 0.1918(2) 0.1739(3) 0.6335(2)
O2_5 O 0.2417(2) 0.1620(3) 0.7431(3)
O4_5 O 0.5566(4) 0.1872(3) 0.9633(3)
O5_5 O 0.4444(2) 0.1635(2) 0.7192(3)
O6_5 O 0.4635(3) 0.2426(3) 0.6331(3)
O7_5 O 0.34001(19) 0.15999(19) 0.6089(3)
O8_5 O 0.3566(3) 0.1434(3) 0.8400(4)
O9_5 O 0.3444(5) 0.0818(5) 0.5573(4)
C1_5 C 0.6410(3) 0.2832(3) 0.7411(3)
C2_5 C 0.6434(3) 0.2718(3) 0.8179(3)
H1_5 H 0.6787 0.2864 0.8458
C3_5 C 0.5925(3) 0.2382(3) 0.8535(3)
C4_5 C 0.5401(3) 0.2160(3) 0.8121(3)
H2_5 H 0.5070 0.1928 0.8355
C5_5 C 0.5371(3) 0.2285(3) 0.7350(3)
C6_5 C 0.5874(3) 0.2629(4) 0.7001(3)
H3_5 H 0.5850 0.2721 0.6492
C7_5 C 0.1962(3) 0.1819(3) 0.7031(3)
C8_5 C 0.5922(4) 0.2279(3) 0.9371(3)
C9_5 C 0.4765(3) 0.2095(3) 0.6920(3)
C10_5 C 0.3319(5) 0.1681(5) 0.8862(9)
C12_5 C 0.3895(6) 0.1105(6) 0.9792(14)
N1_5 N 0.3423(5) 0.1577(5) 0.9626(8)
Zn3_2 Zn 0.84308(3) 0.34308(3) 0.72726(5)
O10_3 O 0.3261(3) 0.3082(2) 0.6335(2)
O11_3 O 0.6918(2) 0.3261(3) 0.6335(2)
O12_3 O 0.3380(3) 0.2583(2) 0.7431(3)
O13_3 O 0.7417(2) 0.3380(3) 0.7431(3)
O17_5 O 0.0566(4) 0.3128(3) 0.9633(3)
O18_3 O 0.3365(2) 0.0556(2) 0.7192(3)
O20_3 O 0.2574(3) 0.0365(3) 0.6331(3)
O22_5 O 0.4182(5) 0.1556(5) 0.5573(4)
C13_5 C 0.1410(3) 0.2168(3) 0.7411(3)
C14_5 C 0.1434(3) 0.2282(3) 0.8179(3)
H4_5 H 0.1787 0.2136 0.8458
C15_5 C 0.0925(3) 0.2618(3) 0.8535(3)
C16_5 C 0.0401(3) 0.2840(3) 0.8121(3)
H5_5 H 0.0070 0.3072 0.8355
C17_5 C 0.0371(3) 0.2715(3) 0.7350(3)
C18_5 C 0.0874(3) 0.2371(4) 0.7001(3)
H6_5 H 0.0850 0.2279 0.6492
C19_5 C 0.6962(3) 0.3181(3) 0.7031(3)
C20_5 C 0.0922(4) 0.2721(3) 0.9371(3)
H9_5 H 0.295656 0.204344 0.871122
H13_5 H 0.374862 0.0640606 0.955343
H15_5 H 0.435939 0.125138 0.955343
O19_3 O 0.9444(2) 0.3365(2) 0.7192(3)
O21_3 O 0.9635(3) 0.2574(3) 0.6331(3)
C21_5 C 0.9765(3) 0.2905(3) 0.6920(3)
Zn4_2 Zn 0.15692(3) 0.65692(3) 0.72726(5)
O19_4 O 0.0556(2) 0.6635(2) 0.7192(3)
O21_4 O 0.0365(3) 0.7426(3) 0.6331(3)
C21_6 C 0.0235(3) 0.7095(3) 0.6920(3)
C11_6 C 0.6910(15) 0.8090(15) 0.0194(15)
H10_6 H 0.681819 0.757103 0.014198
H11_6 H 0.674148 0.825852 0.0739198
H12_6 H 0.742897 0.818181 0.014198
H14_6 H 0.605737 0.894263 0.0397729
Zn1_4 Zn 0.65692(3) 0.84308(3) 0.72726(5)
O1_6 O 0.8082(2) 0.8261(3) 0.6335(2)
O2_6 O 0.7583(2) 0.8380(3) 0.7431(3)
O4_6 O 0.4434(4) 0.8128(3) 0.9633(3)
O5_6 O 0.5556(2) 0.8365(2) 0.7192(3)
O6_6 O 0.5365(3) 0.7574(3) 0.6331(3)
O7_6 O 0.65999(19) 0.84001(19) 0.6089(3)
O8_6 O 0.6434(3) 0.8566(3) 0.8400(4)
O9_6 O 0.6556(5) 0.9182(5) 0.5573(4)
C1_6 C 0.3590(3) 0.7168(3) 0.7411(3)
C2_6 C 0.3566(3) 0.7282(3) 0.8179(3)
H1_6 H 0.3213 0.7136 0.8458
C3_6 C 0.4075(3) 0.7618(3) 0.8535(3)
C4_6 C 0.4599(3) 0.7840(3) 0.8121(3)
H2_6 H 0.4930 0.8072 0.8355
C5_6 C 0.4629(3) 0.7715(3) 0.7350(3)
C6_6 C 0.4126(3) 0.7371(4) 0.7001(3)
H3_6 H 0.4150 0.7279 0.6492
C7_6 C 0.8038(3) 0.8181(3) 0.7031(3)
C8_6 C 0.4078(4) 0.7721(3) 0.9371(3)
C9_6 C 0.5235(3) 0.7905(3) 0.6920(3)
C10_6 C 0.6681(5) 0.8319(5) 0.8862(9)
C12_6 C 0.6105(6) 0.8895(6) 0.9792(14)
N1_6 N 0.6577(5) 0.8423(5) 0.9626(8)
O10_4 O 0.6739(3) 0.6918(2) 0.6335(2)
O11_4 O 0.3082(2) 0.6739(3) 0.6335(2)
O12_4 O 0.6620(3) 0.7417(2) 0.7431(3)
O13_4 O 0.2583(2) 0.6620(3) 0.7431(3)
O17_6 O 0.9434(4) 0.6872(3) 0.9633(3)
O18_4 O 0.6635(2) 0.9444(2) 0.7192(3)
O20_4 O 0.7426(3) 0.9635(3) 0.6331(3)
O22_6 O 0.5818(5) 0.8444(5) 0.5573(4)
C13_6 C 0.8590(3) 0.7832(3) 0.7411(3)
C14_6 C 0.8566(3) 0.7718(3) 0.8179(3)
H4_6 H 0.8213 0.7864 0.8458
C15_6 C 0.9075(3) 0.7382(3) 0.8535(3)
C16_6 C 0.9599(3) 0.7160(3) 0.8121(3)
H5_6 H 0.9930 0.6928 0.8355
C17_6 C 0.9629(3) 0.7285(3) 0.7350(3)
C18_6 C 0.9126(3) 0.7629(4) 0.7001(3)
H6_6 H 0.9150 0.7721 0.6492
C19_6 C 0.3038(3) 0.6819(3) 0.7031(3)
C20_6 C 0.9078(4) 0.7279(3) 0.9371(3)
H9_6 H 0.704344 0.795656 0.871122
H13_6 H 0.625138 0.935939 0.955343
H15_6 H 0.564061 0.874862 0.955343
C21_7 C 0.2905(3) 0.0235(3) 0.6920(3)
C11_7 C 0.1910(15) 0.6910(15) 0.0194(15)
H10_7 H 0.242897 0.681819 0.014198
H11_7 H 0.174148 0.674148 0.0739198
H12_7 H 0.181819 0.742897 0.014198
H14_7 H 0.105737 0.605737 0.0397729
O1_7 O 0.1739(3) 0.8082(2) 0.6335(2)
O2_7 O 0.1620(3) 0.7583(2) 0.7431(3)
O4_7 O 0.1872(3) 0.4434(4) 0.9633(3)
O5_7 O 0.1635(2) 0.5556(2) 0.7192(3)
O6_7 O 0.2426(3) 0.5365(3) 0.6331(3)
O7_7 O 0.15999(19) 0.65999(19) 0.6089(3)
O8_7 O 0.1434(3) 0.6434(3) 0.8400(4)
O9_7 O 0.0818(5) 0.6556(5) 0.5573(4)
C1_7 C 0.2832(3) 0.3590(3) 0.7411(3)
C2_7 C 0.2718(3) 0.3566(3) 0.8179(3)
H1_7 H 0.2864 0.3213 0.8458
C3_7 C 0.2382(3) 0.4075(3) 0.8535(3)
C4_7 C 0.2160(3) 0.4599(3) 0.8121(3)
H2_7 H 0.1928 0.4930 0.8355
C5_7 C 0.2285(3) 0.4629(3) 0.7350(3)
C6_7 C 0.2629(4) 0.4126(3) 0.7001(3)
H3_7 H 0.2721 0.4150 0.6492
C7_7 C 0.1819(3) 0.8038(3) 0.7031(3)
C8_7 C 0.2279(3) 0.4078(4) 0.9371(3)
C9_7 C 0.2095(3) 0.5235(3) 0.6920(3)
C10_7 C 0.1681(5) 0.6681(5) 0.8862(9)
C12_7 C 0.1105(6) 0.6105(6) 0.9792(14)
N1_7 N 0.1577(5) 0.6577(5) 0.9626(8)
O17_7 O 0.3128(3) 0.9434(4) 0.9633(3)
O22_7 O 0.1556(5) 0.5818(5) 0.5573(4)
C13_7 C 0.2168(3) 0.8590(3) 0.7411(3)
C14_7 C 0.2282(3) 0.8566(3) 0.8179(3)
H4_7 H 0.2136 0.8213 0.8458
C15_7 C 0.2618(3) 0.9075(3) 0.8535(3)
C16_7 C 0.2840(3) 0.9599(3) 0.8121(3)
H5_7 H 0.3072 0.9930 0.8355
C17_7 C 0.2715(3) 0.9629(3) 0.7350(3)
C18_7 C 0.2371(4) 0.9126(3) 0.7001(3)
H6_7 H 0.2279 0.9150 0.6492
C19_7 C 0.3181(3) 0.3038(3) 0.7031(3)
C20_7 C 0.2721(3) 0.9078(4) 0.9371(3)
H9_7 H 0.204344 0.704344 0.871122
H13_7 H 0.0640606 0.625138 0.955343
H15_7 H 0.125138 0.564061 0.955343
C11_8 C 0.8090(15) 0.3090(15) 0.0194(15)
H10_8 H 0.757103 0.318181 0.014198
H11_8 H 0.825852 0.325852 0.0739198
H12_8 H 0.818181 0.257103 0.014198
H14_8 H 0.894263 0.394263 0.0397729
O1_8 O 0.8261(3) 0.1918(2) 0.6335(2)
O2_8 O 0.8380(3) 0.2417(2) 0.7431(3)
O4_8 O 0.8128(3) 0.5566(4) 0.9633(3)
O5_8 O 0.8365(2) 0.4444(2) 0.7192(3)
O6_8 O 0.7574(3) 0.4635(3) 0.6331(3)
O7_8 O 0.84001(19) 0.34001(19) 0.6089(3)
O8_8 O 0.8566(3) 0.3566(3) 0.8400(4)
O9_8 O 0.9182(5) 0.3444(5) 0.5573(4)
C1_8 C 0.7168(3) 0.6410(3) 0.7411(3)
C2_8 C 0.7282(3) 0.6434(3) 0.8179(3)
H1_8 H 0.7136 0.6787 0.8458
C3_8 C 0.7618(3) 0.5925(3) 0.8535(3)
C4_8 C 0.7840(3) 0.5401(3) 0.8121(3)
H2_8 H 0.8072 0.5070 0.8355
C5_8 C 0.7715(3) 0.5371(3) 0.7350(3)
C6_8 C 0.7371(4) 0.5874(3) 0.7001(3)
H3_8 H 0.7279 0.5850 0.6492
C7_8 C 0.8181(3) 0.1962(3) 0.7031(3)
C8_8 C 0.7721(3) 0.5922(4) 0.9371(3)
C9_8 C 0.7905(3) 0.4765(3) 0.6920(3)
C10_8 C 0.8319(5) 0.3319(5) 0.8862(9)
C12_8 C 0.8895(6) 0.3895(6) 0.9792(14)
N1_8 N 0.8423(5) 0.3423(5) 0.9626(8)
O17_8 O 0.6872(3) 0.0566(4) 0.9633(3)
O22_8 O 0.8444(5) 0.4182(5) 0.5573(4)
C13_8 C 0.7832(3) 0.1410(3) 0.7411(3)
C14_8 C 0.7718(3) 0.1434(3) 0.8179(3)
H4_8 H 0.7864 0.1787 0.8458
C15_8 C 0.7382(3) 0.0925(3) 0.8535(3)
C16_8 C 0.7160(3) 0.0401(3) 0.8121(3)
H5_8 H 0.6928 0.0070 0.8355
C17_8 C 0.7285(3) 0.0371(3) 0.7350(3)
C18_8 C 0.7629(4) 0.0874(3) 0.7001(3)
H6_8 H 0.7721 0.0850 0.6492
C19_8 C 0.6819(3) 0.6962(3) 0.7031(3)
C20_8 C 0.7279(3) 0.0922(4) 0.9371(3)
H9_8 H 0.795656 0.295656 0.871122
H13_8 H 0.935939 0.374862 0.955343
H15_8 H 0.874862 0.435939 0.955343
C21_8 C 0.7095(3) 0.9765(3) 0.6920(3)
loop_
_geom_bond_atom_site_label_1
_geom_bond_atom_site_label_2
_geom_bond_site_symmetry_1
_geom_bond_site_symmetry_2
Zn1 O2 1_555 1_555
Zn2 O6 1_555 1_555
O1 C7 1_555 1_555
O2 C7 1_555 1_555
O3 C8 1_555 1_555
O4 C8 1_555 1_555
O5 Zn1 1_555 1_555
O6 C9 1_555 1_555
O7 Zn1 1_555 1_555
O8 Zn1 1_555 1_555
O9 Zn6 1_555 1_555
C1 C2 1_555 1_555
C2 H1 1_555 1_555
C3 C2 1_555 1_555
C4 C3 1_555 1_555
H2 C4 1_555 1_555
C5 C4 1_555 1_555
C6 C1 1_555 1_555
H3 C6 1_555 1_555
C7 C13 1_555 1_555
C8 C3 1_555 1_555
C9 O5 1_555 1_555
C10 O8 1_555 1_555
C11 N1 1_555 1_555
C12 N1 1_555 1_555
N1 C10 1_555 1_555
Zn3 O13 1_555 1_555
Zn5 O3 1_555 1_555
Zn6 O1 1_555 1_555
Zn7 O11 1_555 1_555
Zn8 O16 1_555 1_555
O10 Zn2 1_555 1_555
O11 C19 1_555 1_555
O12 Zn1 1_555 1_555
O13 C19 1_555 1_555
O16 C20 1_555 1_555
O17 C20 1_555 1_555
O18 Zn1 1_555 1_555
O20 Zn6 1_555 1_555
O22 Zn2 1_555 1_555
C13 C14 1_555 1_555
C14 H4 1_555 1_555
C15 C14 1_555 1_555
C16 C15 1_555 1_555
H5 C16 1_555 1_555
C17 C16 1_555 1_555
C18 C13 1_555 1_555
H6 C18 1_555 1_555
C19 C1 1_555 1_555
C20 C15 1_555 1_555
Zn2 O7 1_555 1_555
O7 Zn6 1_555 1_555
C5 C6 1_555 1_555
C5 C9 1_555 1_555
C17 C18 1_555 1_555
C10 H9 1_555 1_555
C11 H10 1_555 1_555
C11 H11 1_555 1_555
C11 H12 1_555 1_555
C12 H13 1_555 1_555
C12 H14 1_555 1_555
C12 H15 1_555 1_555
Zn3 O19 1_555 1_555
Zn9 O21 1_555 1_555
O19 C21 1_555 1_555
O21 C21 1_555 1_555
Zn4 O19_2 1_555 1_555
Zn9_2 O21_2 1_555 1_555
O19_2 C21_2 1_555 1_555
O21_2 C21_2 1_555 1_555
Zn1_2 O2_2 1_555 1_555
Zn2_2 O6_2 1_555 1_555
O1_2 C7_2 1_555 1_555
O2_2 C7_2 1_555 1_555
O3_2 C8_2 1_555 1_555
O4_2 C8_2 1_555 1_555
O5_2 Zn1_2 1_555 1_555
O6_2 C9_2 1_555 1_555
O7_2 Zn1_2 1_555 1_555
O8_2 Zn1_2 1_555 1_555
O9_2 Zn6_2 1_555 1_555
C1_2 C2_2 1_555 1_555
C2_2 H1_2 1_555 1_555
C3_2 C2_2 1_555 1_555
C4_2 C3_2 1_555 1_555
H2_2 C4_2 1_555 1_555
C5_2 C4_2 1_555 1_555
C6_2 C1_2 1_555 1_555
H3_2 C6_2 1_555 1_555
C7_2 C13_2 1_555 1_555
C8_2 C3_2 1_555 1_555
C9_2 O5_2 1_555 1_555
C10_2 O8_2 1_555 1_555
C11_2 N1_2 1_555 1_555
C12_2 N1_2 1_555 1_555
N1_2 C10_2 1_555 1_555
Zn4 O13_2 1_555 1_555
Zn5_2 O3_2 1_555 1_555
Zn6_2 O1_2 1_555 1_555
Zn7_2 O11_2 1_555 1_555
Zn8_2 O16_2 1_555 1_555
O10_2 Zn2_2 1_555 1_555
O11_2 C19_2 1_555 1_555
O12_2 Zn1_2 1_555 1_555
O13_2 C19_2 1_555 1_555
O16_2 C20_2 1_555 1_555
O17_2 C20_2 1_555 1_555
O18_2 Zn1_2 1_555 1_555
O20_2 Zn6_2 1_555 1_555
O22_2 Zn2_2 1_555 1_555
C13_2 C14_2 1_555 1_555
C14_2 H4_2 1_555 1_555
C15_2 C14_2 1_555 1_555
C16_2 C15_2 1_555 1_555
H5_2 C16_2 1_555 1_555
C17_2 C16_2 1_555 1_555
C18_2 C13_2 1_555 1_555
H6_2 C18_2 1_555 1_555
C19_2 C1_2 1_555 1_555
C20_2 C15_2 1_555 1_555
Zn2_2 O7_2 1_555 1_555
O7_2 Zn6_2 1_555 1_555
C5_2 C6_2 1_555 1_555
C5_2 C9_2 1_555 1_555
C17_2 C18_2 1_555 1_555
C10_2 H9_2 1_555 1_555
C11_2 H10_2 1_555 1_555
C11_2 H11_2 1_555 1_555
C11_2 H12_2 1_555 1_555
C12_2 H13_2 1_555 1_555
C12_2 H14_2 1_555 1_555
C12_2 H15_2 1_555 1_555
Zn4 O2_3 1_555 1_555
Zn7_2 O6_3 1_555 1_555
O1_3 C7_3 1_555 1_555
O2_3 C7_3 1_555 1_555
O3_3 C8_3 1_555 1_555
O4_3 C8_3 1_555 1_555
O5_3 Zn4 1_555 1_555
O6_3 C9_3 1_555 1_555
O7_3 Zn4 1_555 1_555
O8_3 Zn4 1_555 1_555
O9_3 Zn9_2 1_555 1_555
C1_3 C2_3 1_555 1_555
C2_3 H1_3 1_555 1_555
C3_3 C2_3 1_555 1_555
C4_3 C3_3 1_555 1_555
H2_3 C4_3 1_555 1_555
C5_3 C4_3 1_555 1_555
C6_3 C1_3 1_555 1_555
H3_3 C6_3 1_555 1_555
C7_3 C13_3 1_555 1_555
C8_3 C3_3 1_555 1_555
C9_3 O5_3 1_555 1_555
C10_3 O8_3 1_555 1_555
C11_3 N1_3 1_555 1_555
C12_3 N1_3 1_555 1_555
N1_3 C10_3 1_555 1_555
Zn5_3 O3_3 1_555 1_555
Zn9_2 O1_3 1_555 1_555
Zn8_3 O16_3 1_555 1_555
O10 C19_3 1_555 1_555
O12 C19_3 1_555 1_555
O16_3 C20_3 1_555 1_555
O17_3 C20_3 1_555 1_555
O22_3 Zn7_2 1_555 1_555
C13_3 C14_3 1_555 1_555
C14_3 H4_3 1_555 1_555
C15_3 C14_3 1_555 1_555
C16_3 C15_3 1_555 1_555
H5_3 C16_3 1_555 1_555
C17_3 C16_3 1_555 1_555
C18_3 C13_3 1_555 1_555
H6_3 C18_3 1_555 1_555
C19_3 C1_3 1_555 1_555
C20_3 C15_3 1_555 1_555
Zn7_2 O7_3 1_555 1_555
O7_3 Zn9_2 1_555 1_555
C5_3 C6_3 1_555 1_555
C5_3 C9_3 1_555 1_555
C17_3 C18_3 1_555 1_555
C10_3 H9_3 1_555 1_555
C11_3 H10_3 1_555 1_555
C11_3 H11_3 1_555 1_555
C11_3 H12_3 1_555 1_555
C12_3 H13_3 1_555 1_555
C12_3 H14_3 1_555 1_555
C12_3 H15_3 1_555 1_555
O18 C21_3 1_555 1_555
O20 C21_3 1_555 1_555
O18_2 C21_4 1_555 1_555
O20_2 C21_4 1_555 1_555
Zn3 O2_4 1_555 1_555
Zn7 O6_4 1_555 1_555
O1_4 C7_4 1_555 1_555
O2_4 C7_4 1_555 1_555
O3_4 C8_4 1_555 1_555
O4_4 C8_4 1_555 1_555
O5_4 Zn3 1_555 1_555
O6_4 C9_4 1_555 1_555
O7_4 Zn3 1_555 1_555
O8_4 Zn3 1_555 1_555
O9_4 Zn9 1_555 1_555
C1_4 C2_4 1_555 1_555
C2_4 H1_4 1_555 1_555
C3_4 C2_4 1_555 1_555
C4_4 C3_4 1_555 1_555
H2_4 C4_4 1_555 1_555
C5_4 C4_4 1_555 1_555
C6_4 C1_4 1_555 1_555
H3_4 C6_4 1_555 1_555
C7_4 C13_4 1_555 1_555
C8_4 C3_4 1_555 1_555
C9_4 O5_4 1_555 1_555
C10_4 O8_4 1_555 1_555
C11_4 N1_4 1_555 1_555
C12_4 N1_4 1_555 1_555
N1_4 C10_4 1_555 1_555
Zn5_4 O3_4 1_555 1_555
Zn9 O1_4 1_555 1_555
Zn8_4 O16_4 1_555 1_555
O10_2 C19_4 1_555 1_555
O12_2 C19_4 1_555 1_555
O16_4 C20_4 1_555 1_555
O17_4 C20_4 1_555 1_555
O22_4 Zn7 1_555 1_555
C13_4 C14_4 1_555 1_555
C14_4 H4_4 1_555 1_555
C15_4 C14_4 1_555 1_555
C16_4 C15_4 1_555 1_555
H5_4 C16_4 1_555 1_555
C17_4 C16_4 1_555 1_555
C18_4 C13_4 1_555 1_555
H6_4 C18_4 1_555 1_555
C19_4 C1_4 1_555 1_555
C20_4 C15_4 1_555 1_555
Zn7 O7_4 1_555 1_555
O7_4 Zn9 1_555 1_555
C5_4 C6_4 1_555 1_555
C5_4 C9_4 1_555 1_555
C17_4 C18_4 1_555 1_555
C10_4 H9_4 1_555 1_555
C11_4 H10_4 1_555 1_555
C11_4 H11_4 1_555 1_555
C11_4 H12_4 1_555 1_555
C12_4 H13_4 1_555 1_555
C12_4 H14_4 1_555 1_555
C12_4 H15_4 1_555 1_555
C11_5 H10_5 1_555 1_555
C11_5 H11_5 1_555 1_555
C11_5 H12_5 1_555 1_555
Zn1_3 O2_5 1_555 1_555
Zn5_2 O6_5 1_555 1_555
O1_5 C7_5 1_555 1_555
O2_5 C7_5 1_555 1_555
O14_2 C8_5 1_555 1_555
O4_5 C8_5 1_555 1_555
O5_5 Zn1_3 1_555 1_555
O6_5 C9_5 1_555 1_555
O7_5 Zn1_3 1_555 1_555
O8_5 Zn1_3 1_555 1_555
O9_5 Zn8_3 1_555 1_555
C1_5 C2_5 1_555 1_555
C2_5 H1_5 1_555 1_555
C3_5 C2_5 1_555 1_555
C4_5 C3_5 1_555 1_555
H2_5 C4_5 1_555 1_555
C5_5 C4_5 1_555 1_555
C6_5 C1_5 1_555 1_555
H3_5 C6_5 1_555 1_555
C7_5 C13_5 1_555 1_555
C8_5 C3_5 1_555 1_555
C9_5 O5_5 1_555 1_555
C10_5 O8_5 1_555 1_555
C12_5 N1_5 1_555 1_555
N1_5 C10_5 1_555 1_555
Zn3_2 O13_3 1_555 1_555
Zn8_3 O1_5 1_555 1_555
Zn5_4 O11_3 1_555 1_555
O10_3 Zn5_2 1_555 1_555
O11_3 C19_5 1_555 1_555
O12_3 Zn1_3 1_555 1_555
O13_3 C19_5 1_555 1_555
O15_3 C20_5 1_555 1_555
O17_5 C20_5 1_555 1_555
O18_3 Zn1_3 1_555 1_555
O20_3 Zn8_3 1_555 1_555
O22_5 Zn5_2 1_555 1_555
C13_5 C14_5 1_555 1_555
C14_5 H4_5 1_555 1_555
C15_5 C14_5 1_555 1_555
C16_5 C15_5 1_555 1_555
H5_5 C16_5 1_555 1_555
C17_5 C16_5 1_555 1_555
C18_5 C13_5 1_555 1_555
H6_5 C18_5 1_555 1_555
C19_5 C1_5 1_555 1_555
C20_5 C15_5 1_555 1_555
Zn5_2 O7_5 1_555 1_555
O7_5 Zn8_3 1_555 1_555
C5_5 C6_5 1_555 1_555
C5_5 C9_5 1_555 1_555
C17_5 C18_5 1_555 1_555
C10_5 H9_5 1_555 1_555
C12_5 H13_5 1_555 1_555
C12_5 H15_5 1_555 1_555
Zn3_2 O19_3 1_555 1_555
Zn8_2 O21_3 1_555 1_555
O19_3 C21_5 1_555 1_555
O21_3 C21_5 1_555 1_555
Zn4_2 O19_4 1_555 1_555
Zn8 O21_4 1_555 1_555
O19_4 C21_6 1_555 1_555
O21_4 C21_6 1_555 1_555
C11_6 H10_6 1_555 1_555
C11_6 H11_6 1_555 1_555
C11_6 H12_6 1_555 1_555
Zn1_4 O2_6 1_555 1_555
Zn5 O6_6 1_555 1_555
O1_6 C7_6 1_555 1_555
O2_6 C7_6 1_555 1_555
O14 C8_6 1_555 1_555
O4_6 C8_6 1_555 1_555
O5_6 Zn1_4 1_555 1_555
O6_6 C9_6 1_555 1_555
O7_6 Zn1_4 1_555 1_555
O8_6 Zn1_4 1_555 1_555
O9_6 Zn8_4 1_555 1_555
C1_6 C2_6 1_555 1_555
C2_6 H1_6 1_555 1_555
C3_6 C2_6 1_555 1_555
C4_6 C3_6 1_555 1_555
H2_6 C4_6 1_555 1_555
C5_6 C4_6 1_555 1_555
C6_6 C1_6 1_555 1_555
H3_6 C6_6 1_555 1_555
C7_6 C13_6 1_555 1_555
C8_6 C3_6 1_555 1_555
C9_6 O5_6 1_555 1_555
C10_6 O8_6 1_555 1_555
C12_6 N1_6 1_555 1_555
N1_6 C10_6 1_555 1_555
Zn4_2 O13_4 1_555 1_555
Zn8_4 O1_6 1_555 1_555
Zn5_3 O11_4 1_555 1_555
O10_4 Zn5 1_555 1_555
O11_4 C19_6 1_555 1_555
O12_4 Zn1_4 1_555 1_555
O13_4 C19_6 1_555 1_555
O15_4 C20_6 1_555 1_555
O17_6 C20_6 1_555 1_555
O18_4 Zn1_4 1_555 1_555
O20_4 Zn8_4 1_555 1_555
O22_6 Zn5 1_555 1_555
C13_6 C14_6 1_555 1_555
C14_6 H4_6 1_555 1_555
C15_6 C14_6 1_555 1_555
C16_6 C15_6 1_555 1_555
H5_6 C16_6 1_555 1_555
C17_6 C16_6 1_555 1_555
C18_6 C13_6 1_555 1_555
H6_6 C18_6 1_555 1_555
C19_6 C1_6 1_555 1_555
C20_6 C15_6 1_555 1_555
Zn5 O7_6 1_555 1_555
O7_6 Zn8_4 1_555 1_555
C5_6 C6_6 1_555 1_555
C5_6 C9_6 1_555 1_555
C17_6 C18_6 1_555 1_555
C10_6 H9_6 1_555 1_555
C12_6 H13_6 1_555 1_555
C12_6 H15_6 1_555 1_555
O18_3 C21_7 1_555 1_555
O20_3 C21_7 1_555 1_555
C11_7 H10_7 1_555 1_555
C11_7 H11_7 1_555 1_555
C11_7 H12_7 1_555 1_555
Zn4_2 O2_7 1_555 1_555
Zn5_3 O6_7 1_555 1_555
O1_7 C7_7 1_555 1_555
O2_7 C7_7 1_555 1_555
O14_3 C8_7 1_555 1_555
O4_7 C8_7 1_555 1_555
O5_7 Zn4_2 1_555 1_555
O6_7 C9_7 1_555 1_555
O7_7 Zn4_2 1_555 1_555
O8_7 Zn4_2 1_555 1_555
O9_7 Zn8 1_555 1_555
C1_7 C2_7 1_555 1_555
C2_7 H1_7 1_555 1_555
C3_7 C2_7 1_555 1_555
C4_7 C3_7 1_555 1_555
H2_7 C4_7 1_555 1_555
C5_7 C4_7 1_555 1_555
C6_7 C1_7 1_555 1_555
H3_7 C6_7 1_555 1_555
C7_7 C13_7 1_555 1_555
C8_7 C3_7 1_555 1_555
C9_7 O5_7 1_555 1_555
C10_7 O8_7 1_555 1_555
C12_7 N1_7 1_555 1_555
N1_7 C10_7 1_555 1_555
Zn8 O1_7 1_555 1_555
O10_3 C19_7 1_555 1_555
O12_3 C19_7 1_555 1_555
O15 C20_7 1_555 1_555
O17_7 C20_7 1_555 1_555
O22_7 Zn5_3 1_555 1_555
C13_7 C14_7 1_555 1_555
C14_7 H4_7 1_555 1_555
C15_7 C14_7 1_555 1_555
C16_7 C15_7 1_555 1_555
H5_7 C16_7 1_555 1_555
C17_7 C16_7 1_555 1_555
C18_7 C13_7 1_555 1_555
H6_7 C18_7 1_555 1_555
C19_7 C1_7 1_555 1_555
C20_7 C15_7 1_555 1_555
Zn5_3 O7_7 1_555 1_555
O7_7 Zn8 1_555 1_555
C5_7 C6_7 1_555 1_555
C5_7 C9_7 1_555 1_555
C17_7 C18_7 1_555 1_555
C10_7 H9_7 1_555 1_555
C12_7 H13_7 1_555 1_555
C12_7 H15_7 1_555 1_555
C11_8 H10_8 1_555 1_555
C11_8 H11_8 1_555 1_555
C11_8 H12_8 1_555 1_555
Zn3_2 O2_8 1_555 1_555
Zn5_4 O6_8 1_555 1_555
O1_8 C7_8 1_555 1_555
O2_8 C7_8 1_555 1_555
O14_4 C8_8 1_555 1_555
O4_8 C8_8 1_555 1_555
O5_8 Zn3_2 1_555 1_555
O6_8 C9_8 1_555 1_555
O7_8 Zn3_2 1_555 1_555
O8_8 Zn3_2 1_555 1_555
O9_8 Zn8_2 1_555 1_555
C1_8 C2_8 1_555 1_555
C2_8 H1_8 1_555 1_555
C3_8 C2_8 1_555 1_555
C4_8 C3_8 1_555 1_555
H2_8 C4_8 1_555 1_555
C5_8 C4_8 1_555 1_555
C6_8 C1_8 1_555 1_555
H3_8 C6_8 1_555 1_555
C7_8 C13_8 1_555 1_555
C8_8 C3_8 1_555 1_555
C9_8 O5_8 1_555 1_555
C10_8 O8_8 1_555 1_555
C12_8 N1_8 1_555 1_555
N1_8 C10_8 1_555 1_555
Zn8_2 O1_8 1_555 1_555
O10_4 C19_8 1_555 1_555
O12_4 C19_8 1_555 1_555
O15_2 C20_8 1_555 1_555
O17_8 C20_8 1_555 1_555
O22_8 Zn5_4 1_555 1_555
C13_8 C14_8 1_555 1_555
C14_8 H4_8 1_555 1_555
C15_8 C14_8 1_555 1_555
C16_8 C15_8 1_555 1_555
H5_8 C16_8 1_555 1_555
C17_8 C16_8 1_555 1_555
C18_8 C13_8 1_555 1_555
H6_8 C18_8 1_555 1_555
C19_8 C1_8 1_555 1_555
C20_8 C15_8 1_555 1_555
Zn5_4 O7_8 1_555 1_555
O7_8 Zn8_2 1_555 1_555
C5_8 C6_8 1_555 1_555
C5_8 C9_8 1_555 1_555
C17_8 C18_8 1_555 1_555
C10_8 H9_8 1_555 1_555
C12_8 H13_8 1_555 1_555
C12_8 H15_8 1_555 1_555
O18_4 C21_8 1_555 1_555
O20_4 C21_8 1_555 1_555

#END
