
###############################################################################
#
# This file contains modified crystal structure data generated from the
# MOF subset of the Cambridge Structural Database (CSD) v543 
# hosted by the Cambridge Crystallographic Data Centre (CCDC).
#
# This work is licensed under the Creative Commons
# Attribution-NonCommercial-ShareAlike 4.0 International License.
# To view a copy of this license, visit
# http://creativecommons.org/licenses/by-nc-sa/4.0/
# or send a letter to
# Creative Commons, PO Box 1866, Mountain View, CA 94042, USA.
#
# CIF created using the CSD Python API on 29 September 2022
# The structure has been converted into the P1 space group
# The structure has a 3D framework
# The original CSD entry ACICOH is in the monoclinic crystal system
# The framework has been calculated to contain at least 10.0% void space
# The void calculation uses a probe of radius 1.32A, grid spacing 0.4
#
###############################################################################

data_ACICOH
_chemical_formula_moiety         '(C24 H16 N4 Ni2 O7)n'
_symmetry_cell_setting           triclinic
_symmetry_space_group_name_H-M   'P 1'
_symmetry_Int_Tables_number      1
_space_group_name_Hall           'P 1'
loop_
_symmetry_equiv_pos_site_id
_symmetry_equiv_pos_as_xyz
1 x,y,z
_cell_length_a                   6.2528(4)
_cell_length_b                   12.5234(8)
_cell_length_c                   10.2768(6)
_cell_angle_alpha                90
_cell_angle_beta                 91.269(2)
_cell_angle_gamma                90
_cell_volume                     804.541
loop_
_atom_site_label
_atom_site_type_symbol
_atom_site_fract_x
_atom_site_fract_y
_atom_site_fract_z
O4 O 0.0665(4) 0.1198(2) 0.4742(2)
Ni1 Ni 0.49480(11) 0.75396(4) 0.83943(8)
O1 O 0.2413(4) 0.34962(18) 0.3929(2)
N1 N 0.6279(4) 0.8429(2) 0.6962(3)
N2 N 0.3611(5) 0.6461(2) 0.7151(3)
C1 C 0.5878(6) 0.9593(3) 0.5134(3)
H1 H 0.5002 0.9862 0.4441
C2 C 0.7932(6) 0.9980(3) 0.5337(3)
C3 C 0.9171(5) 0.9546(3) 0.6354(3)
C4 C 0.4077(6) 0.5191(3) 0.5441(3)
H3 H 0.4951 0.4910 0.4778
C5 C 0.4803(5) 0.6032(3) 0.6217(3)
H4 H 0.6191 0.6313 0.6079
C6 C 0.5115(5) 0.8809(3) 0.5950(3)
H5 H 0.3721 0.8530 0.5791
C7 C 0.8285(5) 0.8777(3) 0.7137(3)
H6 H 0.9133 0.8483 0.7826
C8 C 0.1645(5) 0.6045(3) 0.7346(3)
H7 H 0.0793 0.6346 0.8007
C9 C 0.0826(5) 0.5203(3) 0.6626(3)
C10 C 0.2079(5) 0.4770(3) 0.5646(3)
C12 C 0.1220(6) 0.3862(3) 0.4815(3)
O5 O 0.7413(4) 0.65038(18) 0.8929(2)
O6 O 0.2549(4) 0.86692(18) 0.8702(2)
O7 O 0.4369(4) 0.64777(19) 0.9973(2)
O8 O 0.5665(4) 0.8802(2) 0.9742(2)
N1_2 N 0.1279(4) 0.1571(2) 0.1962(3)
C1_2 C 0.0878(6) 0.0407(3) 0.0134(3)
C2_2 C 0.2932(6) 0.0020(3) 0.0337(3)
C3_2 C 0.4171(5) 0.0454(3) 0.1354(3)
H2 H 0.5602 0.0222 0.1505
H4_2 H 0.1191 0.3687 0.1079
C6_2 C 0.0115(5) 0.1191(3) 0.0950(3)
C7_2 C 0.3285(5) 0.1223(3) 0.2137(3)
H6_2 H 0.4133 0.1517 0.2826
C11 C 0.3780(5) 0.9107(3) 0.9550(3)
H3_2 H 0.9951 0.5090 0.9778
C12_2 C 0.6220(6) 0.6138(3) 0.9815(3)
H2_2 H 0.0602 0.9778 0.6505
O2 O 0.7549(4) 0.13308(18) 0.3702(2)
C11_2 C 0.8780(5) 0.0893(3) 0.4550(3)
Ni3 Ni 0.99480(11) 0.24604(4) 0.33943(8)
O3 O 0.9369(4) 0.35223(19) 0.4973(2)
H8 H 0.9446 0.4925 0.6791
N2_2 N 0.8611(5) 0.3539(2) 0.2151(3)
C4_2 C 0.9077(6) 0.4809(3) 0.0441(3)
C5_2 C 0.9803(5) 0.3968(3) 0.1217(3)
H5_2 H 0.8721 0.1470 0.0791
C8_2 C 0.6645(5) 0.3955(3) 0.2346(3)
H7_2 H 0.5793 0.3654 0.3007
C9_2 C 0.5826(5) 0.4797(3) 0.1626(3)
H8_2 H 0.4446 0.5075 0.1791
C10_2 C 0.7079(5) 0.5230(3) 0.0646(3)
H1_2 H 0.0002 0.0138 0.9441
loop_
_geom_bond_atom_site_label_1
_geom_bond_atom_site_label_2
_geom_bond_site_symmetry_1
_geom_bond_site_symmetry_2
Ni1 N1 1_555 1_555
O1 C12 1_555 1_555
N1 C6 1_555 1_555
N2 Ni1 1_555 1_555
C1 H1 1_555 1_555
C2 C1 1_555 1_555
C3 C2 1_555 1_555
C4 H3 1_555 1_555
C5 N2 1_555 1_555
H4 C5 1_555 1_555
C6 C1 1_555 1_555
H5 C6 1_555 1_555
C7 N1 1_555 1_555
H6 C7 1_555 1_555
C8 N2 1_555 1_555
H7 C8 1_555 1_555
C9 C8 1_555 1_555
C10 C4 1_555 1_555
C12 C10 1_555 1_555
O5 Ni1 1_555 1_555
O6 Ni1 1_555 1_555
O7 Ni1 1_555 1_555
O8 Ni1 1_555 1_555
C3 C7 1_555 1_555
C4 C5 1_555 1_555
C9 C10 1_555 1_555
N1_2 C6_2 1_555 1_555
C2_2 C1_2 1_555 1_555
C3_2 C2_2 1_555 1_555
H2 C3_2 1_555 1_555
C6_2 C1_2 1_555 1_555
C7_2 N1_2 1_555 1_555
H6_2 C7_2 1_555 1_555
C3_2 C7_2 1_555 1_555
O6 C11 1_555 1_555
O8 C11 1_555 1_555
O5 C12_2 1_555 1_555
O7 C12_2 1_555 1_555
O2 C11_2 1_555 1_555
Ni3 O2 1_555 1_555
O3 Ni3 1_555 1_555
N2_2 Ni3 1_555 1_555
C5_2 N2_2 1_555 1_555
C8_2 N2_2 1_555 1_555
H7_2 C8_2 1_555 1_555
C9_2 C8_2 1_555 1_555
H8_2 C9_2 1_555 1_555
C10_2 C4_2 1_555 1_555
C4_2 C5_2 1_555 1_555
C9_2 C10_2 1_555 1_555

#END
