
###############################################################################
#
# This file contains modified crystal structure data generated from the
# MOF subset of the Cambridge Structural Database (CSD) v543 
# hosted by the Cambridge Crystallographic Data Centre (CCDC).
#
# This work is licensed under the Creative Commons
# Attribution-NonCommercial-ShareAlike 4.0 International License.
# To view a copy of this license, visit
# http://creativecommons.org/licenses/by-nc-sa/4.0/
# or send a letter to
# Creative Commons, PO Box 1866, Mountain View, CA 94042, USA.
#
# CIF created using the CSD Python API on 29 September 2022
# The structure has been converted into the P1 space group
# The structure has a 3D framework
# The original CSD entry ACMPCD is in the monoclinic crystal system
# The original CSD entry ACMPCD is in a Sohncke space group
# The framework has been calculated to contain at least 10.0% void space
# The void calculation uses a probe of radius 1.32A, grid spacing 0.4
# H atom positions have been added when not included in the experimental data
#
###############################################################################

data_ACMPCD
_chemical_formula_moiety         '(C72 H112 Cd10 N24 O68 P8)n'
_symmetry_cell_setting           triclinic
_symmetry_space_group_name_H-M   'P 1'
_symmetry_Int_Tables_number      1
_space_group_name_Hall           'P 1'
loop_
_symmetry_equiv_pos_site_id
_symmetry_equiv_pos_as_xyz
1 x,y,z
_cell_length_a                   31.480(12)
_cell_length_b                   5.349(3)
_cell_length_c                   25.200(9)
_cell_angle_alpha                90
_cell_angle_beta                 128.52(2)
_cell_angle_gamma                90
_cell_volume                     3319.95
loop_
_atom_site_label
_atom_site_type_symbol
_atom_site_fract_x
_atom_site_fract_y
_atom_site_fract_z
C10 C 0.04600 0.05100 0.74800
O6 O 0.06900 0.04800 0.67500
H6 H 0.106872 0.0380108 0.717811
H12 H 0.0827453 0.164123 0.777645
C9 C 0.27900 0.01500 0.30100
O3 O 0.25700 0.19200 0.24900
O5 O 0.37700 0.07600 0.36400
C15 C 0.29000 0.23600 0.22900
C17 C 0.25500 0.28300 0.15400
P1 P 0.20400 0.03860 0.04150
O9 O 0.23000 0.06300 0.11800
O11 O 0.24100 0.16800 0.03100
O13 O 0.15300 0.18500 0.00200
O24 O 0.20000 0.76400 0.03100
Cd3 Cd 0.31432 -0.00000 0.04510
H3 H 0.319517 0.384527 0.258389
H8 H 0.280121 0.355176 0.141451
H9 H 0.223971 0.42004 0.139941
H13 H 0.28911 0.112865 0.345449
H16 H 0.382207 0.0938031 0.406943
Cd1 Cd 0.18568 0.50000 0.95490
N2 N 0.04200 0.83900 0.78800
C2 C 0.08900 0.73000 0.83900
O2 O 0.13300 0.80600 0.85400
N4 N 0.09100 0.54800 0.87700
C4 C 0.04500 0.45200 0.86000
N6 N 0.04900 0.26200 0.89600
C12 C 0.03400 0.89700 0.68100
O17 O 0.18100 0.24700 0.87700
O19 O 0.25900 0.66800 0.96900
H10 H 0.0149775 0.182866 0.884842
H11 H 0.0861098 0.194491 0.934944
H18 H 0.199244 0.331207 0.860939
H19 H 0.19938 0.0855408 0.898748
H27 H 0.04305 0.697733 0.688508
Cd2 Cd 0.23368 0.38827 0.42153
N1 N 0.23800 0.81700 0.28300
C1 C 0.24600 0.67500 0.33200
O1 O 0.28700 0.71700 0.39000
N3 N 0.21200 0.50100 0.31800
C3 C 0.16900 0.46000 0.25600
N5 N 0.13300 0.26900 0.24100
C5 C 0.15800 0.61300 0.20000
C7 C 0.19500 0.77400 0.21600
C11 C 0.33200 0.91700 0.31900
C13 C 0.31900 0.94200 0.25500
O7 O 0.36300 0.94400 0.25000
O18 O 0.30500 0.11100 0.46400
O20 O 0.29400 0.56000 0.52200
O21 O 0.20600 0.06000 0.47800
O22 O 0.17800 0.05500 0.36400
O23 O 0.17500 0.64700 0.41400
Cd3_2 Cd 0.31432 1.00000 0.04510
H4 H 0.339614 0.19172 0.501637
H7 H 0.289029 0.801515 0.220719
H21 H 0.120849 0.591807 0.148101
H22 H 0.33998 0.723775 0.336365
H23 H 0.192054 0.875431 0.176349
H24 H 0.0995602 0.239105 0.192316
H25 H 0.140188 0.159615 0.278746
H28 H 0.383523 0.784525 0.268098
O4 O 0.99700 0.18200 0.71500
C16 C 0.97000 0.18600 0.64600
C18 C 0.90500 0.20100 0.60700
O12 O 0.79400 0.06000 0.52200
O14 O 0.82200 0.05500 0.63600
Cd5 Cd 0.76632 0.38827 0.57847
H1 H 0.882739 0.225374 0.552704
H2 H 0.896008 0.355986 0.626613
H26 H 0.982891 0.346891 0.632738
C6 C 0.99500 0.57800 0.80900
C8 C 0.99200 0.75200 0.77100
C14 C 0.98800 0.95100 0.63400
O8 O 0.98000 0.93100 0.57200
P2 P 0.83040 0.93290 0.59060
O10 O 0.89100 0.97300 0.62000
O16 O 0.82500 0.64700 0.58600
Cd4 Cd 0.73368 0.88827 0.42153
H14 H 0.958389 0.52554 0.802037
H15 H 0.953119 0.828338 0.728069
H17 H 0.987308 0.756636 0.5662
H20 H 0.963033 0.804223 0.631937
O24_2 O 0.70000 0.26400 0.03100
Cd1_2 Cd 0.68568 -0.00000 0.95490
N2_2 N 0.54200 0.33900 0.78800
C2_2 C 0.58900 0.23000 0.83900
O2_2 O 0.63300 0.30600 0.85400
N4_2 N 0.59100 0.04800 0.87700
C6_2 C 0.49500 0.07800 0.80900
C8_2 C 0.49200 0.25200 0.77100
C10_2 C 0.54600 0.55100 0.74800
O4_2 O 0.49700 0.68200 0.71500
C12_2 C 0.53400 0.39700 0.68100
O6_2 O 0.56900 0.54800 0.67500
C14_2 C 0.48800 0.45100 0.63400
O8_2 O 0.48000 0.43100 0.57200
C16_2 C 0.47000 0.68600 0.64600
C18_2 C 0.40500 0.70100 0.60700
P2_2 P 0.33040 0.43290 0.59060
O10_2 O 0.39100 0.47300 0.62000
O14_2 O 0.32200 0.55500 0.63600
O16_2 O 0.32500 0.14700 0.58600
O19_2 O 0.75900 0.16800 0.96900
Cd5_2 Cd 0.26632 0.88827 0.57847
H1_2 H 0.382739 0.725374 0.552704
H2_2 H 0.396008 0.855986 0.626613
H6_2 H 0.606872 0.538011 0.717811
H12_2 H 0.582745 0.664123 0.777645
H14_2 H 0.458389 0.0255402 0.802037
H15_2 H 0.453119 0.328338 0.728069
H17_2 H 0.487308 0.256636 0.5662
H20_2 H 0.463033 0.304223 0.631937
H26_2 H 0.482891 0.846891 0.632738
H27_2 H 0.54305 0.197733 0.688508
N1_2 N 0.73800 0.31700 0.28300
C1_2 C 0.74600 0.17500 0.33200
O1_2 O 0.78700 0.21700 0.39000
N3_2 N 0.71200 0.00100 0.31800
C5_2 C 0.65800 0.11300 0.20000
C7_2 C 0.69500 0.27400 0.21600
C9_2 C 0.77900 0.51500 0.30100
O3_2 O 0.75700 0.69200 0.24900
C11_2 C 0.83200 0.41700 0.31900
O5_2 O 0.87700 0.57600 0.36400
C13_2 C 0.81900 0.44200 0.25500
O7_2 O 0.86300 0.44400 0.25000
C15_2 C 0.79000 0.73600 0.22900
C17_2 C 0.75500 0.78300 0.15400
P1_2 P 0.70400 0.53860 0.04150
O9_2 O 0.73000 0.56300 0.11800
O11_2 O 0.74100 0.66800 0.03100
O13_2 O 0.65300 0.68500 0.00200
O23_2 O 0.67500 0.14700 0.41400
Cd3_3 Cd 0.81432 0.50000 0.04510
H3_2 H 0.819517 0.884527 0.258389
H7_2 H 0.789029 0.301515 0.220719
H8_2 H 0.780121 0.855176 0.141451
H9_2 H 0.723971 0.92004 0.139941
H13_2 H 0.78911 0.612865 0.345449
H16_2 H 0.882207 0.593803 0.406943
H21_2 H 0.620849 0.0918068 0.148101
H22_2 H 0.83998 0.223775 0.336365
H23_2 H 0.692054 0.375431 0.176349
H28_2 H 0.883523 0.284525 0.268098
Cd1_3 Cd 0.68568 1.00000 0.95490
C4_2 C 0.54500 0.95200 0.86000
N6_2 N 0.54900 0.76200 0.89600
O17_2 O 0.68100 0.74700 0.87700
H10_2 H 0.514977 0.682866 0.884842
H11_2 H 0.58611 0.694491 0.934944
H18_2 H 0.699244 0.831207 0.860939
H19_2 H 0.69938 0.585541 0.898748
C3_2 C 0.66900 0.96000 0.25600
N5_2 N 0.63300 0.76900 0.24100
O18_2 O 0.80500 0.61100 0.46400
O21_2 O 0.70600 0.56000 0.47800
O22_2 O 0.67800 0.55500 0.36400
H4_2 H 0.839614 0.69172 0.501637
H5 H 0.799026 0.458816 0.481151
H24_2 H 0.59956 0.739105 0.192316
H25_2 H 0.640188 0.659615 0.278746
O4_3 O 0.00300 0.18200 0.28500
C16_3 C 0.03000 0.18600 0.35400
C18_3 C 0.09500 0.20100 0.39300
H1_3 H 0.117261 0.225374 0.447296
H2_3 H 0.103992 0.355986 0.373387
H26_3 H 0.0171091 0.346891 0.367262
C6_3 C 0.00500 0.57800 0.19100
C8_3 C 0.00800 0.75200 0.22900
C14_3 C 0.01200 0.95100 0.36600
O8_3 O 0.02000 0.93100 0.42800
P2_3 P 0.16960 0.93290 0.40940
O10_3 O 0.10900 0.97300 0.38000
H14_3 H 0.0416108 0.52554 0.197963
H15_3 H 0.0468812 0.828338 0.271931
H17_3 H 0.0126918 0.756636 0.4338
H20_3 H 0.0369666 0.804223 0.368063
N2_3 N 0.95800 0.83900 0.21200
C2_3 C 0.91100 0.73000 0.16100
O2_3 O 0.86700 0.80600 0.14600
N4_3 N 0.90900 0.54800 0.12300
C4_3 C 0.95500 0.45200 0.14000
N6_3 N 0.95100 0.26200 0.10400
C12_3 C 0.96600 0.89700 0.31900
O17_3 O 0.81900 0.24700 0.12300
H10_3 H 0.985023 0.182866 0.115158
H11_3 H 0.91389 0.194491 0.0650565
H18_3 H 0.800756 0.331207 0.139061
H19_3 H 0.80062 0.0855408 0.101252
H27_3 H 0.95695 0.697733 0.311492
C9_3 C 0.72100 0.01500 0.69900
O3_3 O 0.74300 0.19200 0.75100
O5_3 O 0.62300 0.07600 0.63600
C15_3 C 0.71000 0.23600 0.77100
C17_3 C 0.74500 0.28300 0.84600
P1_3 P 0.79600 0.03860 0.95850
O9_3 O 0.77000 0.06300 0.88200
O13_3 O 0.84700 0.18500 0.99800
O24_3 O 0.80000 0.76400 0.96900
H3_3 H 0.680483 0.384527 0.741611
H8_3 H 0.719879 0.355176 0.858549
H9_3 H 0.776029 0.42004 0.860059
H13_3 H 0.71089 0.112865 0.654551
H16_3 H 0.617793 0.0938031 0.593057
N1_3 N 0.76200 0.81700 0.71700
C1_3 C 0.75400 0.67500 0.66800
O1_3 O 0.71300 0.71700 0.61000
N3_3 N 0.78800 0.50100 0.68200
C3_3 C 0.83100 0.46000 0.74400
N5_3 N 0.86700 0.26900 0.75900
C5_3 C 0.84200 0.61300 0.80000
C7_3 C 0.80500 0.77400 0.78400
C11_3 C 0.66800 0.91700 0.68100
C13_3 C 0.68100 0.94200 0.74500
O7_3 O 0.63700 0.94400 0.75000
O18_3 O 0.69500 0.11100 0.53600
H4_3 H 0.660386 0.19172 0.498363
H7_3 H 0.710971 0.801515 0.779281
H21_3 H 0.879151 0.591807 0.851899
H22_3 H 0.66002 0.723775 0.663635
H23_3 H 0.807946 0.875431 0.823651
H24_3 H 0.90044 0.239105 0.807684
H25_3 H 0.859812 0.159615 0.721254
H28_3 H 0.616477 0.784525 0.731902
N2_4 N 0.45800 0.33900 0.21200
C2_4 C 0.41100 0.23000 0.16100
O2_4 O 0.36700 0.30600 0.14600
N4_4 N 0.40900 0.04800 0.12300
C6_4 C 0.50500 0.07800 0.19100
C8_4 C 0.50800 0.25200 0.22900
C10_3 C 0.45400 0.55100 0.25200
O4_4 O 0.50300 0.68200 0.28500
C12_4 C 0.46600 0.39700 0.31900
O6_3 O 0.43100 0.54800 0.32500
C14_4 C 0.51200 0.45100 0.36600
O8_4 O 0.52000 0.43100 0.42800
C16_4 C 0.53000 0.68600 0.35400
C18_4 C 0.59500 0.70100 0.39300
P2_4 P 0.66960 0.43290 0.40940
O10_4 O 0.60900 0.47300 0.38000
H1_4 H 0.617261 0.725374 0.447296
H2_4 H 0.603992 0.855986 0.373387
H6_3 H 0.393128 0.538011 0.282189
H12_3 H 0.417255 0.664123 0.222355
H14_4 H 0.541611 0.0255402 0.197963
H15_4 H 0.546881 0.328338 0.271931
H17_4 H 0.512692 0.256636 0.4338
H20_4 H 0.536967 0.304223 0.368063
H26_4 H 0.517109 0.846891 0.367262
H27_4 H 0.45695 0.197733 0.311492
O24_4 O 0.30000 0.26400 0.96900
C4_4 C 0.45500 0.95200 0.14000
N6_4 N 0.45100 0.76200 0.10400
O17_4 O 0.31900 0.74700 0.12300
H10_4 H 0.485023 0.682866 0.115158
H11_4 H 0.41389 0.694491 0.0650565
H18_4 H 0.300756 0.831207 0.139061
H19_4 H 0.30062 0.585541 0.101252
N1_4 N 0.26200 0.31700 0.71700
C1_4 C 0.25400 0.17500 0.66800
O1_4 O 0.21300 0.21700 0.61000
N3_4 N 0.28800 0.00100 0.68200
C5_4 C 0.34200 0.11300 0.80000
C7_4 C 0.30500 0.27400 0.78400
C9_4 C 0.22100 0.51500 0.69900
O3_4 O 0.24300 0.69200 0.75100
C11_4 C 0.16800 0.41700 0.68100
O5_4 O 0.12300 0.57600 0.63600
C13_4 C 0.18100 0.44200 0.74500
O7_4 O 0.13700 0.44400 0.75000
C15_4 C 0.21000 0.73600 0.77100
C17_4 C 0.24500 0.78300 0.84600
P1_4 P 0.29600 0.53860 0.95850
O9_4 O 0.27000 0.56300 0.88200
O13_4 O 0.34700 0.68500 0.99800
H3_4 H 0.180483 0.884527 0.741611
H7_4 H 0.210971 0.301515 0.779281
H8_4 H 0.219879 0.855176 0.858549
H9_4 H 0.276029 0.92004 0.860059
H13_4 H 0.21089 0.612865 0.654551
H16_4 H 0.117793 0.593803 0.593057
H21_4 H 0.379151 0.0918068 0.851899
H22_4 H 0.16002 0.223775 0.663635
H23_4 H 0.307946 0.375431 0.823651
H28_4 H 0.116477 0.284525 0.731902
C3_4 C 0.33100 0.96000 0.74400
N5_4 N 0.36700 0.76900 0.75900
O18_4 O 0.19500 0.61100 0.53600
H4_4 H 0.160386 0.69172 0.498363
H5_2 H 0.200974 0.458816 0.518849
H24_4 H 0.40044 0.739105 0.807684
H25_4 H 0.359812 0.659615 0.721254
H5_3 H 0.299026 0.958816 0.481151
C10_4 C 0.95400 0.05100 0.25200
O6_4 O 0.93100 0.04800 0.32500
H6_4 H 0.893128 0.0380108 0.282189
H12_4 H 0.917255 0.164123 0.222355
H5_4 H 0.700974 0.958816 0.518849
loop_
_geom_bond_atom_site_label_1
_geom_bond_atom_site_label_2
_geom_bond_site_symmetry_1
_geom_bond_site_symmetry_2
O6 H6 1_555 1_555
C10 H12 1_555 1_555
O3 C9 1_555 1_555
C15 O3 1_555 1_555
C17 C15 1_555 1_555
P1 O9 1_555 1_555
O9 C17 1_555 1_555
Cd3 O11 1_555 1_555
P1 O11 1_555 1_555
P1 O13 1_555 1_555
C15 H3 1_555 1_555
C17 H8 1_555 1_555
C17 H9 1_555 1_555
C9 H13 1_555 1_555
O5 H16 1_555 1_555
Cd1 O2 1_555 1_555
N2 C2 1_555 1_555
C2 O2 1_555 1_555
N4 Cd1 1_555 1_555
C4 N4 1_555 1_555
N6 C4 1_555 1_555
O17 Cd1 1_555 1_555
O19 Cd1 1_555 1_555
C2 N4 1_555 1_555
N6 H10 1_555 1_555
N6 H11 1_555 1_555
O17 H18 1_555 1_555
O17 H19 1_555 1_555
C12 H27 1_555 1_555
Cd2 O1 1_555 1_555
N1 C1 1_555 1_555
C1 O1 1_555 1_555
N3 Cd2 1_555 1_555
C3 N3 1_555 1_555
N5 C3 1_555 1_555
C5 C3 1_555 1_555
C7 N1 1_555 1_555
C13 C11 1_555 1_555
O7 C13 1_555 1_555
O18 Cd2 1_555 1_555
O20 Cd2 1_555 1_555
O21 Cd2 1_555 1_555
O22 Cd2 1_555 1_555
O23 Cd2 1_555 1_555
C1 N3 1_555 1_555
C5 C7 1_555 1_555
O18 H4 1_555 1_555
C13 H7 1_555 1_555
C5 H21 1_555 1_555
C11 H22 1_555 1_555
C7 H23 1_555 1_555
N5 H24 1_555 1_555
N5 H25 1_555 1_555
O7 H28 1_555 1_555
C16 O4 1_555 1_555
C18 C16 1_555 1_555
Cd5 O12 1_555 1_555
O14 Cd5 1_555 1_555
C18 H1 1_555 1_555
C18 H2 1_555 1_555
C16 H26 1_555 1_555
O8 C14 1_555 1_555
P2 O10 1_555 1_555
O16 P2 1_555 1_555
Cd5 O16 1_555 1_555
C6 C8 1_555 1_555
C6 H14 1_555 1_555
C8 H15 1_555 1_555
O8 H17 1_555 1_555
C14 H20 1_555 1_555
Cd1_2 O2_2 1_555 1_555
N2_2 C2_2 1_555 1_555
C2_2 O2_2 1_555 1_555
N4_2 Cd1_2 1_555 1_555
C8_2 N2_2 1_555 1_555
C10_2 N2_2 1_555 1_555
O4_2 C10_2 1_555 1_555
C12_2 C10_2 1_555 1_555
O6_2 C12_2 1_555 1_555
C14_2 C12_2 1_555 1_555
O8_2 C14_2 1_555 1_555
C16_2 O4_2 1_555 1_555
C18_2 C16_2 1_555 1_555
P2_2 O10_2 1_555 1_555
O10_2 C18_2 1_555 1_555
O20 P2_2 1_555 1_555
O14_2 P2_2 1_555 1_555
O16_2 P2_2 1_555 1_555
O19_2 Cd1_2 1_555 1_555
Cd5_2 O20 1_555 1_555
C2_2 N4_2 1_555 1_555
C6_2 C8_2 1_555 1_555
C14_2 C16_2 1_555 1_555
O14_2 Cd5_2 1_555 1_555
C18_2 H1_2 1_555 1_555
C18_2 H2_2 1_555 1_555
O6_2 H6_2 1_555 1_555
C10_2 H12_2 1_555 1_555
C6_2 H14_2 1_555 1_555
C8_2 H15_2 1_555 1_555
O8_2 H17_2 1_555 1_555
C14_2 H20_2 1_555 1_555
C16_2 H26_2 1_555 1_555
C12_2 H27_2 1_555 1_555
N1_2 C1_2 1_555 1_555
C1_2 O1_2 1_555 1_555
C7_2 N1_2 1_555 1_555
C9_2 N1_2 1_555 1_555
O3_2 C9_2 1_555 1_555
C11_2 C9_2 1_555 1_555
O5_2 C11_2 1_555 1_555
C13_2 C11_2 1_555 1_555
O7_2 C13_2 1_555 1_555
C15_2 O3_2 1_555 1_555
C17_2 C15_2 1_555 1_555
P1_2 O9_2 1_555 1_555
O9_2 C17_2 1_555 1_555
O24_2 P1_2 1_555 1_555
Cd3_3 O11_2 1_555 1_555
C1_2 N3_2 1_555 1_555
C5_2 C7_2 1_555 1_555
C13_2 C15_2 1_555 1_555
P1_2 O11_2 1_555 1_555
P1_2 O13_2 1_555 1_555
C15_2 H3_2 1_555 1_555
C13_2 H7_2 1_555 1_555
C17_2 H8_2 1_555 1_555
C17_2 H9_2 1_555 1_555
C9_2 H13_2 1_555 1_555
O5_2 H16_2 1_555 1_555
C5_2 H21_2 1_555 1_555
C11_2 H22_2 1_555 1_555
C7_2 H23_2 1_555 1_555
O7_2 H28_2 1_555 1_555
N6_2 C4_2 1_555 1_555
O17_2 Cd1_3 1_555 1_555
N6_2 H10_2 1_555 1_555
N6_2 H11_2 1_555 1_555
O17_2 H18_2 1_555 1_555
O17_2 H19_2 1_555 1_555
N5_2 C3_2 1_555 1_555
O18_2 Cd4 1_555 1_555
O21_2 Cd4 1_555 1_555
O22_2 Cd4 1_555 1_555
O18_2 H4_2 1_555 1_555
O18_2 H5 1_555 1_555
N5_2 H24_2 1_555 1_555
N5_2 H25_2 1_555 1_555
C16_3 O4_3 1_555 1_555
C18_3 C16_3 1_555 1_555
C18_3 H1_3 1_555 1_555
C18_3 H2_3 1_555 1_555
C16_3 H26_3 1_555 1_555
O8_3 C14_3 1_555 1_555
P2_3 O10_3 1_555 1_555
O23 P2_3 1_555 1_555
C6_3 C8_3 1_555 1_555
C6_3 H14_3 1_555 1_555
C8_3 H15_3 1_555 1_555
O8_3 H17_3 1_555 1_555
C14_3 H20_3 1_555 1_555
Cd3_3 O2_3 1_555 1_555
N2_3 C2_3 1_555 1_555
C2_3 O2_3 1_555 1_555
N4_3 Cd3_3 1_555 1_555
C4_3 N4_3 1_555 1_555
N6_3 C4_3 1_555 1_555
O17_3 Cd3_3 1_555 1_555
C2_3 N4_3 1_555 1_555
N6_3 H10_3 1_555 1_555
N6_3 H11_3 1_555 1_555
O17_3 H18_3 1_555 1_555
O17_3 H19_3 1_555 1_555
C12_3 H27_3 1_555 1_555
O3_3 C9_3 1_555 1_555
C15_3 O3_3 1_555 1_555
C17_3 C15_3 1_555 1_555
P1_3 O9_3 1_555 1_555
O9_3 C17_3 1_555 1_555
P1_3 O19_2 1_555 1_555
P1_3 O13_3 1_555 1_555
C15_3 H3_3 1_555 1_555
C17_3 H8_3 1_555 1_555
C17_3 H9_3 1_555 1_555
C9_3 H13_3 1_555 1_555
O5_3 H16_3 1_555 1_555
Cd5 O1_3 1_555 1_555
N1_3 C1_3 1_555 1_555
C1_3 O1_3 1_555 1_555
N3_3 Cd5 1_555 1_555
C3_3 N3_3 1_555 1_555
N5_3 C3_3 1_555 1_555
C5_3 C3_3 1_555 1_555
C7_3 N1_3 1_555 1_555
C13_3 C11_3 1_555 1_555
O7_3 C13_3 1_555 1_555
O18_3 Cd5 1_555 1_555
O21_2 Cd5 1_555 1_555
C1_3 N3_3 1_555 1_555
C5_3 C7_3 1_555 1_555
O18_3 H4_3 1_555 1_555
C13_3 H7_3 1_555 1_555
C5_3 H21_3 1_555 1_555
C11_3 H22_3 1_555 1_555
C7_3 H23_3 1_555 1_555
N5_3 H24_3 1_555 1_555
N5_3 H25_3 1_555 1_555
O7_3 H28_3 1_555 1_555
Cd3 O2_4 1_555 1_555
N2_4 C2_4 1_555 1_555
C2_4 O2_4 1_555 1_555
N4_4 Cd3 1_555 1_555
C8_4 N2_4 1_555 1_555
C10_3 N2_4 1_555 1_555
O4_4 C10_3 1_555 1_555
C12_4 C10_3 1_555 1_555
O6_3 C12_4 1_555 1_555
C14_4 C12_4 1_555 1_555
O8_4 C14_4 1_555 1_555
C16_4 O4_4 1_555 1_555
C18_4 C16_4 1_555 1_555
P2_4 O10_4 1_555 1_555
O10_4 C18_4 1_555 1_555
O21_2 P2_4 1_555 1_555
O22_2 P2_4 1_555 1_555
O23_2 P2_4 1_555 1_555
C2_4 N4_4 1_555 1_555
C6_4 C8_4 1_555 1_555
C14_4 C16_4 1_555 1_555
C18_4 H1_4 1_555 1_555
C18_4 H2_4 1_555 1_555
O6_3 H6_3 1_555 1_555
C10_3 H12_3 1_555 1_555
C6_4 H14_4 1_555 1_555
C8_4 H15_4 1_555 1_555
O8_4 H17_4 1_555 1_555
C14_4 H20_4 1_555 1_555
C16_4 H26_4 1_555 1_555
C12_4 H27_4 1_555 1_555
N6_4 C4_4 1_555 1_555
O17_4 Cd3_2 1_555 1_555
N6_4 H10_4 1_555 1_555
N6_4 H11_4 1_555 1_555
O17_4 H18_4 1_555 1_555
O17_4 H19_4 1_555 1_555
N1_4 C1_4 1_555 1_555
C1_4 O1_4 1_555 1_555
C7_4 N1_4 1_555 1_555
C9_4 N1_4 1_555 1_555
O3_4 C9_4 1_555 1_555
C11_4 C9_4 1_555 1_555
O5_4 C11_4 1_555 1_555
C13_4 C11_4 1_555 1_555
O7_4 C13_4 1_555 1_555
C15_4 O3_4 1_555 1_555
C17_4 C15_4 1_555 1_555
P1_4 O9_4 1_555 1_555
O9_4 C17_4 1_555 1_555
O24_4 P1_4 1_555 1_555
C1_4 N3_4 1_555 1_555
C5_4 C7_4 1_555 1_555
C13_4 C15_4 1_555 1_555
P1_4 O19 1_555 1_555
P1_4 O13_4 1_555 1_555
C15_4 H3_4 1_555 1_555
C13_4 H7_4 1_555 1_555
C17_4 H8_4 1_555 1_555
C17_4 H9_4 1_555 1_555
C9_4 H13_4 1_555 1_555
O5_4 H16_4 1_555 1_555
C5_4 H21_4 1_555 1_555
C11_4 H22_4 1_555 1_555
C7_4 H23_4 1_555 1_555
O7_4 H28_4 1_555 1_555
N5_4 C3_4 1_555 1_555
O18_4 Cd5_2 1_555 1_555
O18_4 H4_4 1_555 1_555
O18_4 H5_2 1_555 1_555
N5_4 H24_4 1_555 1_555
N5_4 H25_4 1_555 1_555
O6_4 H6_4 1_555 1_555
C10_4 H12_4 1_555 1_555

#END
