
###############################################################################
#
# This file contains modified crystal structure data generated from the
# MOF subset of the Cambridge Structural Database (CSD) v543 
# hosted by the Cambridge Crystallographic Data Centre (CCDC).
#
# This work is licensed under the Creative Commons
# Attribution-NonCommercial-ShareAlike 4.0 International License.
# To view a copy of this license, visit
# http://creativecommons.org/licenses/by-nc-sa/4.0/
# or send a letter to
# Creative Commons, PO Box 1866, Mountain View, CA 94042, USA.
#
# CIF created using the CSD Python API on 29 September 2022
# The structure has been converted into the P1 space group
# The structure has a 3D framework
# The original CSD entry ACODED is in the orthorhombic crystal system
# The framework has been calculated to contain at least 10.0% void space
# The void calculation uses a probe of radius 1.32A, grid spacing 0.4
#
###############################################################################

data_ACODED
_chemical_formula_moiety         '(C168 H104 Cu8 O52 P8)n'
_symmetry_cell_setting           triclinic
_symmetry_space_group_name_H-M   'P 1'
_symmetry_Int_Tables_number      1
_space_group_name_Hall           'P 1'
loop_
_symmetry_equiv_pos_site_id
_symmetry_equiv_pos_as_xyz
1 x,y,z
_cell_length_a                   16.0811(4)
_cell_length_b                   24.0918(6)
_cell_length_c                   14.2992(4)
_cell_angle_alpha                90
_cell_angle_beta                 90
_cell_angle_gamma                90
_cell_volume                     5539.83
loop_
_atom_site_label
_atom_site_type_symbol
_atom_site_fract_x
_atom_site_fract_y
_atom_site_fract_z
O4 O 0.11259(10) 0.80333(7) 0.21961(11)
O5 O 0.40110(10) 0.41774(6) 0.23962(10)
O6 O 0.48386(9) 0.40017(6) 0.11631(10)
C8 C 0.20144(15) 0.65309(9) 0.00549(15)
C10 C 0.24129(17) 0.68393(12) 0.07426(19)
H7 H 0.2986 0.6777 0.0867
C13 C 0.19841(16) 0.72345(11) 0.12450(19)
H9 H 0.2260 0.7443 0.1716
C14 C 0.11491(14) 0.73264(9) 0.10620(16)
C15 C 0.07424(16) 0.70114(12) 0.0401(2)
H10 H 0.0166 0.7069 0.0289
C16 C 0.07074(14) 0.77801(10) 0.15794(17)
C17 C 0.27693(15) 0.54098(10) 0.08920(16)
H11 H 0.2339 0.5624 0.1169
C18 C 0.31540(15) 0.49883(10) 0.14009(16)
H12 H 0.2986 0.4915 0.2026
C19 C 0.37842(14) 0.46742(9) 0.09936(15)
C20 C 0.40062(14) 0.47672(9) 0.00655(15)
C21 C 0.42439(13) 0.42516(9) 0.15632(15)
Cu2 Cu 0.060268(16) 0.852683(10) 0.311672(18)
Cu3 Cu 0.439732(16) 0.352683(10) 0.311672(18)
Cu4 Cu 0.560268(16) 0.352683(10) 0.188328(18)
Cu1 Cu 0.439732(16) 0.647317(10) 0.811672(18)
O1 O 0.33839(10) 0.64613(6) 0.90240(11)
O2 O 0.04119(19) 0.47765(16) 0.6016(2)
O3 O 0.0520(2) 0.56142(19) 0.5366(2)
H1 H 0.0100 0.5525 0.5052
P1 P 0.26673(4) 0.61111(2) 0.93235(4)
C1 C 0.20525(15) 0.58670(11) 0.83593(16)
C2 C 0.16329(18) 0.53591(14) 0.8382(2)
H2 H 0.1662 0.5134 0.8927
C3 C 0.11764(19) 0.51799(17) 0.7620(2)
H3 H 0.0901 0.4831 0.7643
C4 C 0.1119(2) 0.54969(18) 0.6845(3)
C5 C 0.1513(3) 0.60032(19) 0.6803(2)
H4 H 0.1453 0.6227 0.6260
C6 C 0.2006(2) 0.61954(13) 0.7560(2)
H5 H 0.2296 0.6538 0.7521
C7 C 0.0636(2) 0.5268(2) 0.5987(3)
C9 C 0.11737(16) 0.66080(11) 0.9893(2)
H6 H 0.0892 0.6389 0.9440
C11 C 0.30171(13) 0.55160(9) 0.99746(15)
C12 C 0.36260(14) 0.51868(10) 0.95587(15)
H8 H 0.3781 0.5250 0.8926
H13 H 0.4419 0.4543 0.9779
O8 O 0.38741(10) 0.69667(7) 0.71961(11)
O9 O 0.40110(10) 0.58226(6) 0.73962(10)
O10 O 0.51614(9) 0.59983(6) 0.88369(10)
O11 O 0.49585(10) 0.71261(6) 0.86440(12)
O7 O 0.99585(10) 0.78739(6) 0.13560(12)
Cu5 Cu 0.939732(16) 0.852683(10) 0.188328(18)
O2_2 O 0.45881(19) 0.02235(16) 0.1016(2)
O5_2 O 0.09890(10) 0.08226(6) 0.73962(10)
O6_2 O 0.01614(9) 0.09983(6) 0.61631(10)
H3_2 H 0.4099 0.0169 0.2643
C18_2 C 0.18460(15) 0.00117(10) 0.64009(16)
H12_2 H 0.2014 0.0085 0.7026
C19_2 C 0.12158(14) 0.03258(9) 0.59936(15)
C20_2 C 0.09938(14) 0.02328(9) 0.50655(15)
H13_2 H 0.0581 0.0457 0.4779
C21_2 C 0.07561(13) 0.07484(9) 0.65632(15)
Cu3_2 Cu 0.060268(16) 0.147317(10) 0.811672(18)
O1_2 O 0.16161(10) 0.85387(6) 0.40240(11)
O3_2 O 0.4480(2) 0.93858(19) 0.0366(2)
H1_2 H 0.4900 0.9475 0.0052
O7_2 O 0.50415(10) 0.71261(6) 0.63560(12)
P1_2 P 0.23327(4) 0.88889(2) 0.43235(4)
C1_2 C 0.29475(15) 0.91330(11) 0.33593(16)
C2_2 C 0.33671(18) 0.96409(14) 0.3382(2)
H2_2 H 0.3338 0.9866 0.3927
C3_2 C 0.38236(19) 0.98201(17) 0.2620(2)
C4_2 C 0.3881(2) 0.95031(18) 0.1845(3)
C5_2 C 0.3487(3) 0.89968(19) 0.1803(2)
H4_2 H 0.3547 0.8773 0.1260
C6_2 C 0.2994(2) 0.88046(13) 0.2560(2)
H5_2 H 0.2704 0.8462 0.2521
C7_2 C 0.4364(2) 0.9732(2) 0.0987(3)
C8_2 C 0.29856(15) 0.84691(9) 0.50549(15)
C9_2 C 0.38263(16) 0.83920(11) 0.4893(2)
H6_2 H 0.4108 0.8611 0.4440
C10_2 C 0.25871(17) 0.81607(12) 0.57426(19)
H7_2 H 0.2014 0.8223 0.5867
C11_2 C 0.19829(13) 0.94840(9) 0.49746(15)
C12_2 C 0.13740(14) 0.98132(10) 0.45587(15)
H8_2 H 0.1219 0.9750 0.3926
C13_2 C 0.30159(16) 0.77655(11) 0.62450(19)
H9_2 H 0.2740 0.7557 0.6716
C14_2 C 0.38509(14) 0.76736(9) 0.60620(16)
C15_2 C 0.42576(16) 0.79886(12) 0.5401(2)
H10_2 H 0.4834 0.7931 0.5289
C16_2 C 0.42926(14) 0.72199(10) 0.65794(17)
C17_2 C 0.22307(15) 0.95902(10) 0.58920(16)
H11_2 H 0.2661 0.9376 0.6169
Cu5_2 Cu 0.560268(16) 0.647317(10) 0.688328(18)
O9_2 O 0.09890(10) 0.91774(6) 0.23962(10)
O11_2 O 0.00415(10) 0.78739(6) 0.36440(12)
Cu4_2 Cu 0.939732(16) 0.147317(10) 0.688328(18)
O10_2 O 0.98386(9) 0.90017(6) 0.38369(10)
O1_3 O 0.66161(10) 0.64613(6) 0.59760(11)
O2_3 O 0.95881(19) 0.47765(16) 0.8984(2)
O3_3 O 0.9480(2) 0.56142(19) 0.9634(2)
H1_3 H 0.9900 0.5525 0.9948
O4_2 O 0.88741(10) 0.80333(7) 0.28039(11)
O5_3 O 0.59890(10) 0.41774(6) 0.26038(10)
O6_3 O 0.51614(9) 0.40017(6) 0.38369(10)
P1_3 P 0.73327(4) 0.61111(2) 0.56765(4)
C1_3 C 0.79475(15) 0.58670(11) 0.66407(16)
C2_3 C 0.83671(18) 0.53591(14) 0.6618(2)
H2_3 H 0.8338 0.5134 0.6073
C3_3 C 0.88236(19) 0.51799(17) 0.7380(2)
H3_3 H 0.9099 0.4831 0.7357
C4_3 C 0.8881(2) 0.54969(18) 0.8155(3)
C5_3 C 0.8487(3) 0.60032(19) 0.8197(2)
H4_3 H 0.8547 0.6227 0.8740
C6_3 C 0.7994(2) 0.61954(13) 0.7440(2)
H5_3 H 0.7704 0.6538 0.7479
C7_3 C 0.9364(2) 0.5268(2) 0.9013(3)
C8_3 C 0.79856(15) 0.65309(9) 0.49451(15)
C9_3 C 0.88263(16) 0.66080(11) 0.5107(2)
H6_3 H 0.9108 0.6389 0.5560
C10_3 C 0.75871(17) 0.68393(12) 0.42574(19)
H7_3 H 0.7014 0.6777 0.4133
C11_3 C 0.69829(13) 0.55160(9) 0.50254(15)
C12_3 C 0.63740(14) 0.51868(10) 0.54413(15)
H8_3 H 0.6219 0.5250 0.6074
C13_3 C 0.80159(16) 0.72345(11) 0.37550(19)
H9_3 H 0.7740 0.7443 0.3284
C14_3 C 0.88509(14) 0.73264(9) 0.39380(16)
C15_3 C 0.92576(16) 0.70114(12) 0.4599(2)
H10_3 H 0.9834 0.7069 0.4711
C16_3 C 0.92926(14) 0.77801(10) 0.34206(17)
C17_3 C 0.72307(15) 0.54098(10) 0.41080(16)
H11_3 H 0.7661 0.5624 0.3831
C18_3 C 0.68460(15) 0.49883(10) 0.35991(16)
H12_3 H 0.7014 0.4915 0.2974
C19_3 C 0.62158(14) 0.46742(9) 0.40064(15)
C20_3 C 0.59938(14) 0.47672(9) 0.49345(15)
H13_3 H 0.5581 0.4543 0.5221
C21_3 C 0.57561(13) 0.42516(9) 0.34368(15)
O8_2 O 0.61259(10) 0.69667(7) 0.78039(11)
O9_3 O 0.59890(10) 0.58226(6) 0.76038(10)
O10_3 O 0.48386(9) 0.59983(6) 0.61631(10)
O10_4 O 0.01614(9) 0.90017(6) 0.11631(10)
O5_4 O 0.90110(10) 0.08226(6) 0.76038(10)
O6_4 O 0.98386(9) 0.09983(6) 0.88369(10)
C18_4 C 0.81540(15) 0.00117(10) 0.85991(16)
H12_4 H 0.7986 0.0085 0.7974
C19_4 C 0.87842(14) 0.03258(9) 0.90064(15)
C20_4 C 0.90062(14) 0.02328(9) 0.99345(15)
C21_4 C 0.92439(13) 0.07484(9) 0.84368(15)
O1_4 O 0.83839(10) 0.85387(6) 0.09760(11)
O3_4 O 0.5520(2) 0.93858(19) 0.4634(2)
H1_4 H 0.5100 0.9475 0.4948
P1_4 P 0.76673(4) 0.88889(2) 0.06765(4)
C1_4 C 0.70525(15) 0.91330(11) 0.16407(16)
C2_4 C 0.66329(18) 0.96409(14) 0.1618(2)
H2_4 H 0.6662 0.9866 0.1073
C3_4 C 0.61764(19) 0.98201(17) 0.2380(2)
C4_4 C 0.6119(2) 0.95031(18) 0.3155(3)
C5_4 C 0.6513(3) 0.89968(19) 0.3197(2)
H4_4 H 0.6453 0.8773 0.3740
C6_4 C 0.7006(2) 0.88046(13) 0.2440(2)
H5_4 H 0.7296 0.8462 0.2479
C7_4 C 0.5636(2) 0.9732(2) 0.4013(3)
C9_4 C 0.61737(16) 0.83920(11) 0.0107(2)
H6_4 H 0.5892 0.8611 0.0560
C11_4 C 0.80171(13) 0.94840(9) 0.00254(15)
C12_4 C 0.86260(14) 0.98132(10) 0.04413(15)
H8_4 H 0.8781 0.9750 0.1074
O9_4 O 0.90110(10) 0.91774(6) 0.26038(10)
C8_4 C 0.70144(15) 0.84691(9) 0.99451(15)
C10_4 C 0.74129(17) 0.81607(12) 0.92574(19)
H7_4 H 0.7986 0.8223 0.9133
C13_4 C 0.69841(16) 0.77655(11) 0.87550(19)
H9_4 H 0.7260 0.7557 0.8284
C14_4 C 0.61491(14) 0.76736(9) 0.89380(16)
C15_4 C 0.57424(16) 0.79886(12) 0.9599(2)
H10_4 H 0.5166 0.7931 0.9711
C16_4 C 0.57074(14) 0.72199(10) 0.84206(17)
C17_4 C 0.77693(15) 0.95902(10) 0.91080(16)
H11_4 H 0.7339 0.9376 0.8831
O7_3 O 0.00415(10) 0.21261(6) 0.86440(12)
O1_5 O 0.66161(10) 0.35387(6) 0.09760(11)
O2_4 O 0.95881(19) 0.52235(16) 0.3984(2)
O3_5 O 0.9480(2) 0.43858(19) 0.4634(2)
H1_5 H 0.9900 0.4475 0.4948
P1_5 P 0.73327(4) 0.38889(2) 0.06765(4)
C1_5 C 0.79475(15) 0.41330(11) 0.16407(16)
C2_5 C 0.83671(18) 0.46409(14) 0.1618(2)
H2_5 H 0.8338 0.4866 0.1073
C3_5 C 0.88236(19) 0.48201(17) 0.2380(2)
H3_4 H 0.9099 0.5169 0.2357
C4_5 C 0.8881(2) 0.45031(18) 0.3155(3)
C5_5 C 0.8487(3) 0.39968(19) 0.3197(2)
H4_5 H 0.8547 0.3773 0.3740
C6_5 C 0.7994(2) 0.38046(13) 0.2440(2)
H5_5 H 0.7704 0.3462 0.2479
C7_5 C 0.9364(2) 0.4732(2) 0.4013(3)
C9_5 C 0.88263(16) 0.33920(11) 0.0107(2)
H6_5 H 0.9108 0.3611 0.0560
C11_5 C 0.69829(13) 0.44840(9) 0.00254(15)
C12_5 C 0.63740(14) 0.48132(10) 0.04413(15)
H8_5 H 0.6219 0.4750 0.1074
H13_4 H 0.5581 0.5457 0.0221
O8_3 O 0.61259(10) 0.30333(7) 0.28039(11)
O11_3 O 0.50415(10) 0.28739(6) 0.13560(12)
O4_3 O 0.88741(10) 0.19667(7) 0.78039(11)
C8_5 C 0.79856(15) 0.34691(9) 0.99451(15)
C10_5 C 0.75871(17) 0.31607(12) 0.92574(19)
H7_5 H 0.7014 0.3223 0.9133
C13_5 C 0.80159(16) 0.27655(11) 0.87550(19)
H9_5 H 0.7740 0.2557 0.8284
C14_5 C 0.88509(14) 0.26736(9) 0.89380(16)
C15_5 C 0.92576(16) 0.29886(12) 0.9599(2)
H10_5 H 0.9834 0.2931 0.9711
C16_5 C 0.92926(14) 0.22199(10) 0.84206(17)
C17_5 C 0.72307(15) 0.45902(10) 0.91080(16)
H11_5 H 0.7661 0.4376 0.8831
C18_5 C 0.68460(15) 0.50117(10) 0.85991(16)
H12_5 H 0.7014 0.5085 0.7974
C19_5 C 0.62158(14) 0.53258(9) 0.90064(15)
C20_5 C 0.59938(14) 0.52328(9) 0.99345(15)
C21_5 C 0.57561(13) 0.57484(9) 0.84368(15)
O1_6 O 0.83839(10) 0.14613(6) 0.59760(11)
O3_6 O 0.5520(2) 0.06142(19) 0.9634(2)
H1_6 H 0.5100 0.0525 0.9948
O7_4 O 0.49585(10) 0.28739(6) 0.36440(12)
P1_6 P 0.76673(4) 0.11111(2) 0.56765(4)
C1_6 C 0.70525(15) 0.08670(11) 0.66407(16)
C2_6 C 0.66329(18) 0.03591(14) 0.6618(2)
H2_6 H 0.6662 0.0134 0.6073
C3_6 C 0.61764(19) 0.01799(17) 0.7380(2)
C4_6 C 0.6119(2) 0.04969(18) 0.8155(3)
C5_6 C 0.6513(3) 0.10032(19) 0.8197(2)
H4_6 H 0.6453 0.1227 0.8740
C6_6 C 0.7006(2) 0.11954(13) 0.7440(2)
H5_6 H 0.7296 0.1538 0.7479
C7_6 C 0.5636(2) 0.0268(2) 0.9013(3)
C8_6 C 0.70144(15) 0.15309(9) 0.49451(15)
C9_6 C 0.61737(16) 0.16080(11) 0.5107(2)
H6_6 H 0.5892 0.1389 0.5560
C10_6 C 0.74129(17) 0.18393(12) 0.42574(19)
H7_6 H 0.7986 0.1777 0.4133
C11_6 C 0.80171(13) 0.05160(9) 0.50254(15)
C12_6 C 0.86260(14) 0.01868(10) 0.54413(15)
H8_6 H 0.8781 0.0250 0.6074
C13_6 C 0.69841(16) 0.22345(11) 0.37550(19)
H9_6 H 0.7260 0.2443 0.3284
C14_6 C 0.61491(14) 0.23264(9) 0.39380(16)
C15_6 C 0.57424(16) 0.20114(12) 0.4599(2)
H10_6 H 0.5166 0.2069 0.4711
C16_6 C 0.57074(14) 0.27801(10) 0.34206(17)
C17_6 C 0.77693(15) 0.04098(10) 0.41080(16)
H11_6 H 0.7339 0.0624 0.3831
O11_4 O 0.99585(10) 0.21261(6) 0.63560(12)
O2_5 O 0.54119(19) 0.97765(16) 0.8984(2)
H3_5 H 0.5901 0.9831 0.7357
C18_6 C 0.81540(15) 0.99883(10) 0.35991(16)
H12_6 H 0.7986 0.9915 0.2974
C19_6 C 0.87842(14) 0.96742(9) 0.40064(15)
C20_6 C 0.90062(14) 0.97672(9) 0.49345(15)
H13_5 H 0.9419 0.9543 0.5221
C21_6 C 0.92439(13) 0.92516(9) 0.34368(15)
O1_7 O 0.33839(10) 0.35387(6) 0.40240(11)
O2_6 O 0.04119(19) 0.52235(16) 0.1016(2)
O3_7 O 0.0520(2) 0.43858(19) 0.0366(2)
H1_7 H 0.0100 0.4475 0.0052
O4_4 O 0.11259(10) 0.19667(7) 0.71961(11)
P1_7 P 0.26673(4) 0.38889(2) 0.43235(4)
C1_7 C 0.20525(15) 0.41330(11) 0.33593(16)
C2_7 C 0.16329(18) 0.46409(14) 0.3382(2)
H2_7 H 0.1662 0.4866 0.3927
C3_7 C 0.11764(19) 0.48201(17) 0.2620(2)
H3_6 H 0.0901 0.5169 0.2643
C4_7 C 0.1119(2) 0.45031(18) 0.1845(3)
C5_7 C 0.1513(3) 0.39968(19) 0.1803(2)
H4_7 H 0.1453 0.3773 0.1260
C6_7 C 0.2006(2) 0.38046(13) 0.2560(2)
H5_7 H 0.2296 0.3462 0.2521
C7_7 C 0.0636(2) 0.4732(2) 0.0987(3)
C8_7 C 0.20144(15) 0.34691(9) 0.50549(15)
C9_7 C 0.11737(16) 0.33920(11) 0.4893(2)
H6_7 H 0.0892 0.3611 0.4440
C10_7 C 0.24129(17) 0.31607(12) 0.57426(19)
H7_7 H 0.2986 0.3223 0.5867
C11_7 C 0.30171(13) 0.44840(9) 0.49746(15)
C12_7 C 0.36260(14) 0.48132(10) 0.45587(15)
H8_7 H 0.3781 0.4750 0.3926
C13_7 C 0.19841(16) 0.27655(11) 0.62450(19)
H9_7 H 0.2260 0.2557 0.6716
C14_7 C 0.11491(14) 0.26736(9) 0.60620(16)
C15_7 C 0.07424(16) 0.29886(12) 0.5401(2)
H10_7 H 0.0166 0.2931 0.5289
C16_7 C 0.07074(14) 0.22199(10) 0.65794(17)
C17_7 C 0.27693(15) 0.45902(10) 0.58920(16)
H11_7 H 0.2339 0.4376 0.6169
C18_7 C 0.31540(15) 0.50117(10) 0.64009(16)
H12_7 H 0.2986 0.5085 0.7026
C19_7 C 0.37842(14) 0.53258(9) 0.59936(15)
C20_7 C 0.40062(14) 0.52328(9) 0.50655(15)
H13_6 H 0.4419 0.5457 0.4779
C21_7 C 0.42439(13) 0.57484(9) 0.65632(15)
O8_4 O 0.38741(10) 0.30333(7) 0.21961(11)
C8_8 C 0.29856(15) 0.15309(9) 0.00549(15)
C10_8 C 0.25871(17) 0.18393(12) 0.07426(19)
H7_8 H 0.2014 0.1777 0.0867
C13_8 C 0.30159(16) 0.22345(11) 0.12450(19)
H9_8 H 0.2740 0.2443 0.1716
C14_8 C 0.38509(14) 0.23264(9) 0.10620(16)
C15_8 C 0.42576(16) 0.20114(12) 0.0401(2)
H10_8 H 0.4834 0.2069 0.0289
C16_8 C 0.42926(14) 0.27801(10) 0.15794(17)
C17_8 C 0.22307(15) 0.04098(10) 0.08920(16)
H11_8 H 0.2661 0.0624 0.1169
O1_8 O 0.16161(10) 0.14613(6) 0.90240(11)
O3_8 O 0.4480(2) 0.06142(19) 0.5366(2)
H1_8 H 0.4900 0.0525 0.5052
P1_8 P 0.23327(4) 0.11111(2) 0.93235(4)
C1_8 C 0.29475(15) 0.08670(11) 0.83593(16)
C2_8 C 0.33671(18) 0.03591(14) 0.8382(2)
H2_8 H 0.3338 0.0134 0.8927
C3_8 C 0.38236(19) 0.01799(17) 0.7620(2)
C4_8 C 0.3881(2) 0.04969(18) 0.6845(3)
C5_8 C 0.3487(3) 0.10032(19) 0.6803(2)
H4_8 H 0.3547 0.1227 0.6260
C6_8 C 0.2994(2) 0.11954(13) 0.7560(2)
H5_8 H 0.2704 0.1538 0.7521
C7_8 C 0.4364(2) 0.0268(2) 0.5987(3)
C9_8 C 0.38263(16) 0.16080(11) 0.9893(2)
H6_8 H 0.4108 0.1389 0.9440
C11_8 C 0.19829(13) 0.05160(9) 0.99746(15)
C12_8 C 0.13740(14) 0.01868(10) 0.95587(15)
H8_8 H 0.1219 0.0250 0.8926
C18_8 C 0.18460(15) 0.99883(10) 0.14009(16)
H12_8 H 0.2014 0.9915 0.2026
C19_8 C 0.12158(14) 0.96742(9) 0.09936(15)
C20_8 C 0.09938(14) 0.97672(9) 0.00655(15)
C21_8 C 0.07561(13) 0.92516(9) 0.15632(15)
O2_7 O 0.54119(19) 0.02235(16) 0.3984(2)
H3_7 H 0.5901 0.0169 0.2357
H13_7 H 0.9419 0.0457 0.0221
O2_8 O 0.45881(19) 0.97765(16) 0.6016(2)
H3_8 H 0.4099 0.9831 0.7643
H13_8 H 0.0581 0.9543 0.9779
loop_
_geom_bond_atom_site_label_1
_geom_bond_atom_site_label_2
_geom_bond_site_symmetry_1
_geom_bond_site_symmetry_2
O4 C16 1_555 1_555
O5 C21 1_555 1_555
O6 C21 1_555 1_555
C10 C8 1_555 1_555
H7 C10 1_555 1_555
C13 C10 1_555 1_555
H9 C13 1_555 1_555
C14 C13 1_555 1_555
H10 C15 1_555 1_555
C16 C14 1_555 1_555
H11 C17 1_555 1_555
C18 C17 1_555 1_555
H12 C18 1_555 1_555
C19 C18 1_555 1_555
C21 C19 1_555 1_555
Cu2 O4 1_555 1_555
Cu3 O5 1_555 1_555
Cu4 O6 1_555 1_555
C14 C15 1_555 1_555
C19 C20 1_555 1_555
Cu1 O1 1_555 1_555
O1 P1 1_555 1_555
O2 C7 1_555 1_555
O3 H1 1_555 1_555
P1 C1 1_555 1_555
C1 C2 1_555 1_555
C2 H2 1_555 1_555
C3 C2 1_555 1_555
H3 C3 1_555 1_555
C4 C3 1_555 1_555
C5 C4 1_555 1_555
H4 C5 1_555 1_555
C6 C1 1_555 1_555
H5 C6 1_555 1_555
C7 O3 1_555 1_555
H6 C9 1_555 1_555
C11 P1 1_555 1_555
C12 C11 1_555 1_555
H8 C12 1_555 1_555
O8 Cu1 1_555 1_555
O9 Cu1 1_555 1_555
O10 Cu1 1_555 1_555
O11 Cu1 1_555 1_555
C4 C7 1_555 1_555
C5 C6 1_555 1_555
Cu5 O7 1_555 1_555
O5_2 C21_2 1_555 1_555
O6_2 C21_2 1_555 1_555
H12_2 C18_2 1_555 1_555
C19_2 C18_2 1_555 1_555
H13_2 C20_2 1_555 1_555
C21_2 C19_2 1_555 1_555
Cu3_2 O5_2 1_555 1_555
C19_2 C20_2 1_555 1_555
Cu2 O1_2 1_555 1_555
O1_2 P1_2 1_555 1_555
O3_2 H1_2 1_555 1_555
O8 C16_2 1_555 1_555
O7_2 C16_2 1_555 1_555
P1_2 C1_2 1_555 1_555
C1_2 C2_2 1_555 1_555
C2_2 H2_2 1_555 1_555
C3_2 C2_2 1_555 1_555
C4_2 C3_2 1_555 1_555
C5_2 C4_2 1_555 1_555
H4_2 C5_2 1_555 1_555
C6_2 C1_2 1_555 1_555
H5_2 C6_2 1_555 1_555
C7_2 O3_2 1_555 1_555
C8_2 P1_2 1_555 1_555
C9_2 C8_2 1_555 1_555
H6_2 C9_2 1_555 1_555
C10_2 C8_2 1_555 1_555
H7_2 C10_2 1_555 1_555
C11_2 P1_2 1_555 1_555
C12_2 C11_2 1_555 1_555
H8_2 C12_2 1_555 1_555
C13_2 C10_2 1_555 1_555
H9_2 C13_2 1_555 1_555
C14_2 C13_2 1_555 1_555
C15_2 C9_2 1_555 1_555
H10_2 C15_2 1_555 1_555
C16_2 C14_2 1_555 1_555
C17_2 C11_2 1_555 1_555
H11_2 C17_2 1_555 1_555
Cu5_2 O7_2 1_555 1_555
O9_2 Cu2 1_555 1_555
O11_2 Cu2 1_555 1_555
C4_2 C7_2 1_555 1_555
C5_2 C6_2 1_555 1_555
C14_2 C15_2 1_555 1_555
Cu5_2 O1_3 1_555 1_555
O1_3 P1_3 1_555 1_555
O2_3 C7_3 1_555 1_555
O3_3 H1_3 1_555 1_555
O4_2 C16_3 1_555 1_555
O5_3 C21_3 1_555 1_555
O6_3 C21_3 1_555 1_555
P1_3 C1_3 1_555 1_555
C1_3 C2_3 1_555 1_555
C2_3 H2_3 1_555 1_555
C3_3 C2_3 1_555 1_555
H3_3 C3_3 1_555 1_555
C4_3 C3_3 1_555 1_555
C5_3 C4_3 1_555 1_555
H4_3 C5_3 1_555 1_555
C6_3 C1_3 1_555 1_555
H5_3 C6_3 1_555 1_555
C7_3 O3_3 1_555 1_555
C8_3 P1_3 1_555 1_555
C9_3 C8_3 1_555 1_555
H6_3 C9_3 1_555 1_555
C10_3 C8_3 1_555 1_555
H7_3 C10_3 1_555 1_555
C11_3 P1_3 1_555 1_555
C12_3 C11_3 1_555 1_555
H8_3 C12_3 1_555 1_555
C13_3 C10_3 1_555 1_555
H9_3 C13_3 1_555 1_555
C14_3 C13_3 1_555 1_555
C15_3 C9_3 1_555 1_555
H10_3 C15_3 1_555 1_555
C16_3 C14_3 1_555 1_555
C17_3 C11_3 1_555 1_555
H11_3 C17_3 1_555 1_555
C18_3 C17_3 1_555 1_555
H12_3 C18_3 1_555 1_555
C19_3 C18_3 1_555 1_555
C20_3 C12_3 1_555 1_555
H13_3 C20_3 1_555 1_555
C21_3 C19_3 1_555 1_555
Cu5 O4_2 1_555 1_555
Cu4 O5_3 1_555 1_555
Cu3 O6_3 1_555 1_555
O8_2 Cu5_2 1_555 1_555
O9_3 Cu5_2 1_555 1_555
O10_3 Cu5_2 1_555 1_555
C4_3 C7_3 1_555 1_555
C5_3 C6_3 1_555 1_555
C14_3 C15_3 1_555 1_555
C19_3 C20_3 1_555 1_555
O5_4 C21_4 1_555 1_555
O6_4 C21_4 1_555 1_555
H12_4 C18_4 1_555 1_555
C19_4 C18_4 1_555 1_555
C21_4 C19_4 1_555 1_555
Cu4_2 O5_4 1_555 1_555
C19_4 C20_4 1_555 1_555
Cu5 O1_4 1_555 1_555
O1_4 P1_4 1_555 1_555
O3_4 H1_4 1_555 1_555
P1_4 C1_4 1_555 1_555
C1_4 C2_4 1_555 1_555
C2_4 H2_4 1_555 1_555
C3_4 C2_4 1_555 1_555
C4_4 C3_4 1_555 1_555
C5_4 C4_4 1_555 1_555
H4_4 C5_4 1_555 1_555
C6_4 C1_4 1_555 1_555
H5_4 C6_4 1_555 1_555
C7_4 O3_4 1_555 1_555
H6_4 C9_4 1_555 1_555
C11_4 P1_4 1_555 1_555
C12_4 C11_4 1_555 1_555
H8_4 C12_4 1_555 1_555
O9_4 Cu5 1_555 1_555
C4_4 C7_4 1_555 1_555
C5_4 C6_4 1_555 1_555
O8_2 C16_4 1_555 1_555
O11 C16_4 1_555 1_555
C10_4 C8_4 1_555 1_555
H7_4 C10_4 1_555 1_555
C13_4 C10_4 1_555 1_555
H9_4 C13_4 1_555 1_555
C14_4 C13_4 1_555 1_555
H10_4 C15_4 1_555 1_555
C16_4 C14_4 1_555 1_555
H11_4 C17_4 1_555 1_555
C14_4 C15_4 1_555 1_555
Cu3_2 O7_3 1_555 1_555
Cu4 O1_5 1_555 1_555
O1_5 P1_5 1_555 1_555
O2_4 C7_5 1_555 1_555
O3_5 H1_5 1_555 1_555
P1_5 C1_5 1_555 1_555
C1_5 C2_5 1_555 1_555
C2_5 H2_5 1_555 1_555
C3_5 C2_5 1_555 1_555
H3_4 C3_5 1_555 1_555
C4_5 C3_5 1_555 1_555
C5_5 C4_5 1_555 1_555
H4_5 C5_5 1_555 1_555
C6_5 C1_5 1_555 1_555
H5_5 C6_5 1_555 1_555
C7_5 O3_5 1_555 1_555
H6_5 C9_5 1_555 1_555
C11_5 P1_5 1_555 1_555
C12_5 C11_5 1_555 1_555
H8_5 C12_5 1_555 1_555
O8_3 Cu4 1_555 1_555
O11_3 Cu4 1_555 1_555
C4_5 C7_5 1_555 1_555
C5_5 C6_5 1_555 1_555
O4_3 C16_5 1_555 1_555
O9_3 C21_5 1_555 1_555
O10 C21_5 1_555 1_555
C10_5 C8_5 1_555 1_555
H7_5 C10_5 1_555 1_555
C13_5 C10_5 1_555 1_555
H9_5 C13_5 1_555 1_555
C14_5 C13_5 1_555 1_555
H10_5 C15_5 1_555 1_555
C16_5 C14_5 1_555 1_555
H11_5 C17_5 1_555 1_555
C18_5 C17_5 1_555 1_555
H12_5 C18_5 1_555 1_555
C19_5 C18_5 1_555 1_555
C21_5 C19_5 1_555 1_555
Cu4_2 O4_3 1_555 1_555
C14_5 C15_5 1_555 1_555
C19_5 C20_5 1_555 1_555
Cu4_2 O1_6 1_555 1_555
O1_6 P1_6 1_555 1_555
O3_6 H1_6 1_555 1_555
O8_3 C16_6 1_555 1_555
O7_4 C16_6 1_555 1_555
P1_6 C1_6 1_555 1_555
C1_6 C2_6 1_555 1_555
C2_6 H2_6 1_555 1_555
C3_6 C2_6 1_555 1_555
C4_6 C3_6 1_555 1_555
C5_6 C4_6 1_555 1_555
H4_6 C5_6 1_555 1_555
C6_6 C1_6 1_555 1_555
H5_6 C6_6 1_555 1_555
C7_6 O3_6 1_555 1_555
C8_6 P1_6 1_555 1_555
C9_6 C8_6 1_555 1_555
H6_6 C9_6 1_555 1_555
C10_6 C8_6 1_555 1_555
H7_6 C10_6 1_555 1_555
C11_6 P1_6 1_555 1_555
C12_6 C11_6 1_555 1_555
H8_6 C12_6 1_555 1_555
C13_6 C10_6 1_555 1_555
H9_6 C13_6 1_555 1_555
C14_6 C13_6 1_555 1_555
C15_6 C9_6 1_555 1_555
H10_6 C15_6 1_555 1_555
C16_6 C14_6 1_555 1_555
C17_6 C11_6 1_555 1_555
H11_6 C17_6 1_555 1_555
Cu3 O7_4 1_555 1_555
O11_4 Cu4_2 1_555 1_555
C4_6 C7_6 1_555 1_555
C5_6 C6_6 1_555 1_555
C14_6 C15_6 1_555 1_555
O9_4 C21_6 1_555 1_555
O10_2 C21_6 1_555 1_555
H12_6 C18_6 1_555 1_555
C19_6 C18_6 1_555 1_555
H13_5 C20_6 1_555 1_555
C21_6 C19_6 1_555 1_555
C19_6 C20_6 1_555 1_555
Cu3 O1_7 1_555 1_555
O1_7 P1_7 1_555 1_555
O2_6 C7_7 1_555 1_555
O3_7 H1_7 1_555 1_555
O4_4 C16_7 1_555 1_555
O9 C21_7 1_555 1_555
O10_3 C21_7 1_555 1_555
P1_7 C1_7 1_555 1_555
C1_7 C2_7 1_555 1_555
C2_7 H2_7 1_555 1_555
C3_7 C2_7 1_555 1_555
H3_6 C3_7 1_555 1_555
C4_7 C3_7 1_555 1_555
C5_7 C4_7 1_555 1_555
H4_7 C5_7 1_555 1_555
C6_7 C1_7 1_555 1_555
H5_7 C6_7 1_555 1_555
C7_7 O3_7 1_555 1_555
C8_7 P1_7 1_555 1_555
C9_7 C8_7 1_555 1_555
H6_7 C9_7 1_555 1_555
C10_7 C8_7 1_555 1_555
H7_7 C10_7 1_555 1_555
C11_7 P1_7 1_555 1_555
C12_7 C11_7 1_555 1_555
H8_7 C12_7 1_555 1_555
C13_7 C10_7 1_555 1_555
H9_7 C13_7 1_555 1_555
C14_7 C13_7 1_555 1_555
C15_7 C9_7 1_555 1_555
H10_7 C15_7 1_555 1_555
C16_7 C14_7 1_555 1_555
C17_7 C11_7 1_555 1_555
H11_7 C17_7 1_555 1_555
C18_7 C17_7 1_555 1_555
H12_7 C18_7 1_555 1_555
C19_7 C18_7 1_555 1_555
C20_7 C12_7 1_555 1_555
H13_6 C20_7 1_555 1_555
C21_7 C19_7 1_555 1_555
Cu3_2 O4_4 1_555 1_555
O8_4 Cu3 1_555 1_555
C4_7 C7_7 1_555 1_555
C5_7 C6_7 1_555 1_555
C14_7 C15_7 1_555 1_555
C19_7 C20_7 1_555 1_555
O8_4 C16_8 1_555 1_555
O11_3 C16_8 1_555 1_555
C10_8 C8_8 1_555 1_555
H7_8 C10_8 1_555 1_555
C13_8 C10_8 1_555 1_555
H9_8 C13_8 1_555 1_555
C14_8 C13_8 1_555 1_555
H10_8 C15_8 1_555 1_555
C16_8 C14_8 1_555 1_555
H11_8 C17_8 1_555 1_555
C14_8 C15_8 1_555 1_555
Cu3_2 O1_8 1_555 1_555
O1_8 P1_8 1_555 1_555
O3_8 H1_8 1_555 1_555
P1_8 C1_8 1_555 1_555
C1_8 C2_8 1_555 1_555
C2_8 H2_8 1_555 1_555
C3_8 C2_8 1_555 1_555
C4_8 C3_8 1_555 1_555
C5_8 C4_8 1_555 1_555
H4_8 C5_8 1_555 1_555
C6_8 C1_8 1_555 1_555
H5_8 C6_8 1_555 1_555
C7_8 O3_8 1_555 1_555
H6_8 C9_8 1_555 1_555
C11_8 P1_8 1_555 1_555
C12_8 C11_8 1_555 1_555
H8_8 C12_8 1_555 1_555
C4_8 C7_8 1_555 1_555
C5_8 C6_8 1_555 1_555
O9_2 C21_8 1_555 1_555
O10_4 C21_8 1_555 1_555
H12_8 C18_8 1_555 1_555
C19_8 C18_8 1_555 1_555
C21_8 C19_8 1_555 1_555
C19_8 C20_8 1_555 1_555

#END
