
###############################################################################
#
# This file contains modified crystal structure data generated from the
# MOF subset of the Cambridge Structural Database (CSD) v543 
# hosted by the Cambridge Crystallographic Data Centre (CCDC).
#
# This work is licensed under the Creative Commons
# Attribution-NonCommercial-ShareAlike 4.0 International License.
# To view a copy of this license, visit
# http://creativecommons.org/licenses/by-nc-sa/4.0/
# or send a letter to
# Creative Commons, PO Box 1866, Mountain View, CA 94042, USA.
#
# CIF created using the CSD Python API on 29 September 2022
# The structure has been converted into the P1 space group
# The structure has a 3D framework
# The original CSD entry ACODON is in the monoclinic crystal system
# The framework has been calculated to contain at least 10.0% void space
# The void calculation uses a probe of radius 1.32A, grid spacing 0.4
# The framework is charged, counterions have been retained in the structure
# H atom positions have been added when not included in the experimental data
# Generated hydrogen atom positions removed from atoms on special positions
#
###############################################################################

data_ACODON
_chemical_formula_moiety         '(C86 H62 O32 P4)n'
_symmetry_cell_setting           triclinic
_symmetry_space_group_name_H-M   'P 1'
_symmetry_Int_Tables_number      1
_space_group_name_Hall           'P 1'
loop_
_symmetry_equiv_pos_site_id
_symmetry_equiv_pos_as_xyz
1 x,y,z
_cell_length_a                   14.4794(6)
_cell_length_b                   10.5573(5)
_cell_length_c                   23.3160(11)
_cell_angle_alpha                90
_cell_angle_beta                 107.316(3)
_cell_angle_gamma                90
_cell_volume                     3402.63
loop_
_atom_site_label
_atom_site_type_symbol
_atom_site_fract_x
_atom_site_fract_y
_atom_site_fract_z
O1 O 0.7500 0.6351(15) 0.2500
O1_2 O 0.2500 0.3649(15) 0.7500
O2 O 0.4861(2) 0.0752(3) 0.14949(15)
O3 O 0.4700(2) 0.7973(3) 0.15866(16)
O4 O 0.5806(2) 0.7247(3) 0.23828(16)
O6 O 0.0063(2) 0.0983(3) 0.22062(16)
O9 O 0.6733(2) 0.1328(3) 0.24817(19)
P1 P 0.40153(8) 0.16027(11) 0.12202(5)
C1 C 0.2999(3) 0.1216(4) 0.1479(2)
C2 C 0.2385(4) 0.2116(5) 0.1590(2)
H1 H 0.2500 0.2968 0.1538
C3 C 0.4321(3) 0.3220(4) 0.1384(2)
C4 C 0.5049(5) 0.3501(6) 0.1907(3)
H2 H 0.5373 0.2844 0.2151
C5 C 0.3603(3) 0.1445(4) 0.0418(2)
C6 C 0.2631(4) 0.1360(6) 0.0112(3)
H3 H 0.2178 0.1393 0.0322
C8 C 0.4261(4) 0.1415(6) 0.0097(2)
H5 H 0.4919 0.1495 0.0295
C9 C 0.5298(5) 0.4729(5) 0.2071(3)
H6 H 0.5783 0.4895 0.2427
C10 C 0.4833(4) 0.5739(4) 0.1709(3)
C11 C 0.4114(4) 0.5466(5) 0.1187(3)
H7 H 0.3795 0.6122 0.0941
C12 C 0.3858(4) 0.4219(5) 0.1023(3)
H8 H 0.3372 0.4050 0.0669
C13 C 0.5133(4) 0.7066(5) 0.1909(3)
C16 C 0.1431(3) 0.0512(5) 0.1863(2)
C17 C 0.1599(4) 0.1774(5) 0.1779(2)
H11 H 0.1188 0.2392 0.1849
C18 C 0.0605(3) 0.0153(5) 0.2101(2)
C22 C 0.7500 0.1798(7) 0.2500
H13 H 0.7500 0.2679 0.2500
Tb3 Tb 0.574091(15) 0.95195(2) 0.230027(10)
O19 O 0.4937(2) 0.0983(3) 0.27938(16)
O27 O 0.8267(2) 0.1328(3) 0.25183(19)
O7 O 0.3221(2) 0.0990(4) 0.82261(16)
O8 O 0.1730(2) 0.0892(4) 0.82713(15)
C7 C 0.2326(4) 0.1228(6) 0.9498(2)
H4 H 0.1667 0.1180 0.9298
C19 C 0.3948(3) 0.1268(6) 0.9478(2)
H12 H 0.4397 0.1239 0.9265
C20 C 0.2975(3) 0.1165(5) 0.9175(2)
C21 C 0.2619(3) 0.0996(4) 0.8505(2)
Tb5 Tb 0.425909(15) 0.04805(2) 0.769973(10)
Tb6 Tb 0.074091(15) 0.04805(2) 0.730027(10)
O5 O 0.0504(3) 0.9007(4) 0.22199(18)
C14 C 0.2801(3) 0.9952(5) 0.1556(2)
H9 H 0.3206 0.9330 0.1482
C15 C 0.2028(3) 0.9604(5) 0.1737(2)
H10 H 0.1901 0.8751 0.1776
Tb7 Tb 0.925909(15) 0.95195(2) 0.269973(10)
O16 O 0.4496(3) 0.9007(4) 0.27801(18)
O22 O 0.6779(2) 0.9010(4) 0.17739(16)
O25 O 0.6730(2) 0.9108(4) 0.32713(15)
O2_2 O 0.0139(2) 0.0752(3) 0.35051(15)
O3_2 O 0.0300(2) 0.7973(3) 0.34134(16)
O7_2 O 0.1779(2) 0.0990(4) 0.67739(16)
O8_2 O 0.3270(2) 0.0892(4) 0.67287(15)
P1_2 P 0.09847(8) 0.16027(11) 0.37798(5)
C1_2 C 0.2001(3) 0.1216(4) 0.3521(2)
C2_2 C 0.2615(4) 0.2116(5) 0.3410(2)
H1_2 H 0.2500 0.2968 0.3462
C3_2 C 0.0679(3) 0.3220(4) 0.3616(2)
C5_2 C 0.1397(3) 0.1445(4) 0.4582(2)
C6_2 C 0.2369(4) 0.1360(6) 0.4888(3)
H3_2 H 0.2822 0.1393 0.4678
C7_2 C 0.2674(4) 0.1228(6) 0.5502(2)
H4_2 H 0.3333 0.1180 0.5702
C8_2 C 0.0739(4) 0.1415(6) 0.4903(2)
H5_2 H 0.0081 0.1495 0.4705
C10_2 C 0.0167(4) 0.5739(4) 0.3291(3)
C11_2 C 0.0886(4) 0.5466(5) 0.3813(3)
H7_2 H 0.1205 0.6122 0.4059
C12_2 C 0.1142(4) 0.4219(5) 0.3977(3)
H8_2 H 0.1628 0.4050 0.4331
C16_2 C 0.3569(3) 0.0512(5) 0.3137(2)
C17_2 C 0.3401(4) 0.1774(5) 0.3221(2)
H11_2 H 0.3812 0.2392 0.3151
C18_2 C 0.4395(3) 0.0153(5) 0.2899(2)
C19_2 C 0.1052(3) 0.1268(6) 0.5522(2)
H12_2 H 0.0603 0.1239 0.5735
C20_2 C 0.2025(3) 0.1165(5) 0.5825(2)
C21_2 C 0.2381(3) 0.0996(4) 0.6495(2)
C14_2 C 0.2199(3) 0.9952(5) 0.3444(2)
H9_2 H 0.1794 0.9330 0.3518
C15_2 C 0.2972(3) 0.9604(5) 0.3263(2)
H10_2 H 0.3099 0.8751 0.3224
O4_2 O 0.9194(2) 0.7247(3) 0.26172(16)
C4_2 C 0.9951(5) 0.3501(6) 0.3093(3)
H2_2 H 0.9627 0.2844 0.2849
C9_2 C 0.9702(5) 0.4729(5) 0.2929(3)
H6_2 H 0.9217 0.4895 0.2573
C13_2 C 0.9867(4) 0.7066(5) 0.3091(3)
O22_2 O 0.8221(2) 0.9010(4) 0.32261(16)
O25_2 O 0.8270(2) 0.9108(4) 0.17287(15)
O12 O 0.5300(2) 0.2027(3) 0.84134(16)
O14 O 0.4194(2) 0.2753(3) 0.76172(16)
O15 O 0.9496(3) 0.0993(4) 0.77801(18)
O17 O 0.5504(3) 0.0993(4) 0.72199(18)
C36 C 0.7199(3) 0.0048(5) 0.8444(2)
H22 H 0.6794 0.0670 0.8518
C37 C 0.7972(3) 0.0396(5) 0.8263(2)
H23 H 0.8099 0.1249 0.8224
C29 C 0.7674(4) 0.8772(6) 0.0502(2)
H17 H 0.8333 0.8820 0.0702
C41 C 0.6052(3) 0.8732(6) 0.0522(2)
H25 H 0.5603 0.8761 0.0735
C42 C 0.7025(3) 0.8835(5) 0.0825(2)
C43 C 0.7381(3) 0.9004(4) 0.1495(2)
O10 O 0.5139(2) 0.9248(3) 0.85051(15)
O18 O 0.9937(2) 0.9017(3) 0.77938(16)
O20 O 0.5063(2) 0.9017(3) 0.72062(16)
O28 O 0.3267(2) 0.8672(3) 0.75183(19)
P2 P 0.59847(8) 0.83973(11) 0.87798(5)
C23 C 0.7001(3) 0.8784(4) 0.8521(2)
C24 C 0.7615(4) 0.7884(5) 0.8410(2)
H14 H 0.7500 0.7032 0.8462
C25 C 0.5679(3) 0.6780(4) 0.8616(2)
C26 C 0.4951(5) 0.6499(6) 0.8093(3)
H15 H 0.4627 0.7156 0.7849
C27 C 0.6397(3) 0.8555(4) 0.9582(2)
C28 C 0.7369(4) 0.8640(6) 0.9888(3)
H16 H 0.7822 0.8607 0.9678
C30 C 0.5739(4) 0.8585(6) 0.9903(2)
H18 H 0.5081 0.8505 0.9705
C31 C 0.4702(5) 0.5271(5) 0.7929(3)
H19 H 0.4217 0.5105 0.7573
C32 C 0.5167(4) 0.4261(4) 0.8291(3)
C33 C 0.5886(4) 0.4534(5) 0.8813(3)
H20 H 0.6205 0.3878 0.9059
C34 C 0.6142(4) 0.5781(5) 0.8977(3)
H21 H 0.6628 0.5950 0.9331
C35 C 0.4867(4) 0.2934(5) 0.8091(3)
C38 C 0.8569(3) 0.9488(5) 0.8137(2)
C39 C 0.8401(4) 0.8226(5) 0.8221(2)
H24 H 0.8812 0.7608 0.8151
C40 C 0.9395(3) 0.9847(5) 0.7899(2)
C22_2 C 0.2500 0.8202(7) 0.7500
H13_2 H 0.2500 0.7321 0.7500
O27_2 O 0.1733(2) 0.8672(3) 0.74817(19)
O14_2 O 0.0806(2) 0.2753(3) 0.73828(16)
C26_2 C 0.0049(5) 0.6499(6) 0.6907(3)
H15_2 H 0.0373 0.7156 0.7151
C31_2 C 0.0298(5) 0.5271(5) 0.7071(3)
H19_2 H 0.0783 0.5105 0.7427
C35_2 C 0.0133(4) 0.2934(5) 0.6909(3)
O12_2 O 0.9700(2) 0.2027(3) 0.65866(16)
C36_2 C 0.7801(3) 0.0048(5) 0.6556(2)
H22_2 H 0.8206 0.0670 0.6482
C37_2 C 0.7028(3) 0.0396(5) 0.6737(2)
H23_2 H 0.6901 0.1249 0.6776
O10_2 O 0.9861(2) 0.9248(3) 0.64949(15)
P2_2 P 0.90153(8) 0.83973(11) 0.62202(5)
C23_2 C 0.7999(3) 0.8784(4) 0.6479(2)
C24_2 C 0.7385(4) 0.7884(5) 0.6590(2)
H14_2 H 0.7500 0.7032 0.6538
C25_2 C 0.9321(3) 0.6780(4) 0.6384(2)
C27_2 C 0.8603(3) 0.8555(4) 0.5418(2)
C28_2 C 0.7631(4) 0.8640(6) 0.5112(3)
H16_2 H 0.7178 0.8607 0.5322
C29_2 C 0.7326(4) 0.8772(6) 0.4498(2)
H17_2 H 0.6667 0.8820 0.4298
C30_2 C 0.9261(4) 0.8585(6) 0.5097(2)
H18_2 H 0.9919 0.8505 0.5295
C32_2 C 0.9833(4) 0.4261(4) 0.6709(3)
C33_2 C 0.9114(4) 0.4534(5) 0.6187(3)
H20_2 H 0.8795 0.3878 0.5941
C34_2 C 0.8858(4) 0.5781(5) 0.6023(3)
H21_2 H 0.8372 0.5950 0.5669
C38_2 C 0.6431(3) 0.9488(5) 0.6863(2)
C39_2 C 0.6599(4) 0.8226(5) 0.6779(2)
H24_2 H 0.6188 0.7608 0.6849
C40_2 C 0.5605(3) 0.9847(5) 0.7101(2)
C41_2 C 0.8948(3) 0.8732(6) 0.4478(2)
H25_2 H 0.9397 0.8761 0.4265
C42_2 C 0.7975(3) 0.8835(5) 0.4175(2)
C43_2 C 0.7619(3) 0.9004(4) 0.3505(2)
loop_
_geom_bond_atom_site_label_1
_geom_bond_atom_site_label_2
_geom_bond_site_symmetry_1
_geom_bond_site_symmetry_2
O2 P1 1_555 1_555
O3 C13 1_555 1_555
O4 C13 1_555 1_555
O6 C18 1_555 1_555
P1 C1 1_555 1_555
C1 C2 1_555 1_555
C2 H1 1_555 1_555
C3 P1 1_555 1_555
C4 C3 1_555 1_555
H2 C4 1_555 1_555
C5 P1 1_555 1_555
C6 C5 1_555 1_555
H3 C6 1_555 1_555
C8 C5 1_555 1_555
H5 C8 1_555 1_555
C9 C4 1_555 1_555
H6 C9 1_555 1_555
C10 C9 1_555 1_555
C11 C10 1_555 1_555
H7 C11 1_555 1_555
C12 C3 1_555 1_555
H8 C12 1_555 1_555
C13 C10 1_555 1_555
C17 C2 1_555 1_555
H11 C17 1_555 1_555
C18 C16 1_555 1_555
C22 O9 1_555 1_555
H13 C22 1_555 1_555
Tb3 O3 1_555 1_555
O27 C22 1_555 1_555
O4 Tb3 1_555 1_555
C11 C12 1_555 1_555
C16 C17 1_555 1_555
O7 C21 1_555 1_555
O8 C21 1_555 1_555
H4 C7 1_555 1_555
H12 C19 1_555 1_555
C20 C7 1_555 1_555
C21 C20 1_555 1_555
Tb5 O7 1_555 1_555
Tb6 O8 1_555 1_555
C19 C20 1_555 1_555
H9 C14 1_555 1_555
C15 C14 1_555 1_555
H10 C15 1_555 1_555
O16 Tb3 1_555 1_555
O22 Tb3 1_555 1_555
O25 Tb3 1_555 1_555
O2_2 P1_2 1_555 1_555
O19 C18_2 1_555 1_555
O7_2 C21_2 1_555 1_555
O8_2 C21_2 1_555 1_555
P1_2 C1_2 1_555 1_555
C1_2 C2_2 1_555 1_555
C2_2 H1_2 1_555 1_555
C3_2 P1_2 1_555 1_555
C5_2 P1_2 1_555 1_555
C6_2 C5_2 1_555 1_555
H3_2 C6_2 1_555 1_555
C7_2 C6_2 1_555 1_555
H4_2 C7_2 1_555 1_555
C8_2 C5_2 1_555 1_555
H5_2 C8_2 1_555 1_555
C11_2 C10_2 1_555 1_555
H7_2 C11_2 1_555 1_555
C12_2 C3_2 1_555 1_555
H8_2 C12_2 1_555 1_555
C17_2 C2_2 1_555 1_555
H11_2 C17_2 1_555 1_555
C18_2 C16_2 1_555 1_555
C19_2 C8_2 1_555 1_555
H12_2 C19_2 1_555 1_555
C20_2 C7_2 1_555 1_555
C21_2 C20_2 1_555 1_555
Tb6 O7_2 1_555 1_555
Tb5 O8_2 1_555 1_555
C11_2 C12_2 1_555 1_555
C16_2 C17_2 1_555 1_555
C19_2 C20_2 1_555 1_555
H9_2 C14_2 1_555 1_555
C15_2 C14_2 1_555 1_555
H10_2 C15_2 1_555 1_555
O4_2 C13_2 1_555 1_555
H2_2 C4_2 1_555 1_555
C9_2 C4_2 1_555 1_555
H6_2 C9_2 1_555 1_555
O4_2 Tb7 1_555 1_555
O22_2 Tb7 1_555 1_555
O25_2 Tb7 1_555 1_555
O12 Tb5 1_555 1_555
O14 Tb5 1_555 1_555
O17 Tb5 1_555 1_555
H22 C36 1_555 1_555
C37 C36 1_555 1_555
H23 C37 1_555 1_555
O22 C43 1_555 1_555
O25_2 C43 1_555 1_555
H17 C29 1_555 1_555
H25 C41 1_555 1_555
C42 C29 1_555 1_555
C43 C42 1_555 1_555
C41 C42 1_555 1_555
O10 P2 1_555 1_555
P2 C23 1_555 1_555
C23 C24 1_555 1_555
C24 H14 1_555 1_555
C25 P2 1_555 1_555
C26 C25 1_555 1_555
H15 C26 1_555 1_555
C27 P2 1_555 1_555
C28 C27 1_555 1_555
H16 C28 1_555 1_555
C30 C27 1_555 1_555
H18 C30 1_555 1_555
C31 C26 1_555 1_555
H19 C31 1_555 1_555
C32 C31 1_555 1_555
C33 C32 1_555 1_555
H20 C33 1_555 1_555
C34 C25 1_555 1_555
H21 C34 1_555 1_555
C35 O12 1_555 1_555
C39 C24 1_555 1_555
H24 C39 1_555 1_555
C40 O18 1_555 1_555
O14 C35 1_555 1_555
C32 C35 1_555 1_555
C33 C34 1_555 1_555
C38 C39 1_555 1_555
C38 C40 1_555 1_555
C22_2 O28 1_555 1_555
H13_2 C22_2 1_555 1_555
O27_2 C22_2 1_555 1_555
O14_2 Tb6 1_555 1_555
H15_2 C26_2 1_555 1_555
C31_2 C26_2 1_555 1_555
H19_2 C31_2 1_555 1_555
O14_2 C35_2 1_555 1_555
H22_2 C36_2 1_555 1_555
C37_2 C36_2 1_555 1_555
H23_2 C37_2 1_555 1_555
O10_2 P2_2 1_555 1_555
O22_2 C43_2 1_555 1_555
O25 C43_2 1_555 1_555
P2_2 C23_2 1_555 1_555
C23_2 C24_2 1_555 1_555
C24_2 H14_2 1_555 1_555
C25_2 P2_2 1_555 1_555
C27_2 P2_2 1_555 1_555
C28_2 C27_2 1_555 1_555
H16_2 C28_2 1_555 1_555
C29_2 C28_2 1_555 1_555
H17_2 C29_2 1_555 1_555
C30_2 C27_2 1_555 1_555
H18_2 C30_2 1_555 1_555
C33_2 C32_2 1_555 1_555
H20_2 C33_2 1_555 1_555
C34_2 C25_2 1_555 1_555
H21_2 C34_2 1_555 1_555
C39_2 C24_2 1_555 1_555
H24_2 C39_2 1_555 1_555
C40_2 O20 1_555 1_555
C41_2 C30_2 1_555 1_555
H25_2 C41_2 1_555 1_555
C42_2 C29_2 1_555 1_555
C43_2 C42_2 1_555 1_555
C33_2 C34_2 1_555 1_555
C38_2 C39_2 1_555 1_555
C38_2 C40_2 1_555 1_555
C41_2 C42_2 1_555 1_555

#END
