
###############################################################################
#
# This file contains modified crystal structure data generated from the
# MOF subset of the Cambridge Structural Database (CSD) v543 
# hosted by the Cambridge Crystallographic Data Centre (CCDC).
#
# This work is licensed under the Creative Commons
# Attribution-NonCommercial-ShareAlike 4.0 International License.
# To view a copy of this license, visit
# http://creativecommons.org/licenses/by-nc-sa/4.0/
# or send a letter to
# Creative Commons, PO Box 1866, Mountain View, CA 94042, USA.
#
# CIF created using the CSD Python API on 29 September 2022
# The structure has been converted into the P1 space group
# The structure has a 3D framework
# The original CSD entry ACOGEF is in the monoclinic crystal system
# The framework has been calculated to contain at least 10.0% void space
# The void calculation uses a probe of radius 1.32A, grid spacing 0.4
#
###############################################################################

data_ACOGEF
_chemical_formula_moiety         '(C128 H144 Cd11 I8 N48 O16)n'
_symmetry_cell_setting           triclinic
_symmetry_space_group_name_H-M   'P 1'
_symmetry_Int_Tables_number      1
_space_group_name_Hall           'P 1'
loop_
_symmetry_equiv_pos_site_id
_symmetry_equiv_pos_as_xyz
1 x,y,z
_cell_length_a                   33.074(3)
_cell_length_b                   9.8463(7)
_cell_length_c                   16.8512(12)
_cell_angle_alpha                90
_cell_angle_beta                 101.712(2)
_cell_angle_gamma                90
_cell_volume                     5373.45
loop_
_atom_site_label
_atom_site_type_symbol
_atom_site_fract_x
_atom_site_fract_y
_atom_site_fract_z
Cd3 Cd 0.0000 -0.0000 0.0000
Cd3_2 Cd 0.0000 -0.0000 1.0000
Cd1 Cd 0.0000 0.0000 0.5000
I1 I 0.046806(11) 0.25904(3) 0.46969(2)
Cd3_3 Cd 0.0000 1.0000 0.0000
Cd3_4 Cd 0.0000 1.0000 1.0000
Cd1_2 Cd 0.0000 1.0000 0.5000
N13 N 0.04126(14) 0.9953(5) 0.6362(3)
N14 N 0.05052(11) 0.8678(4) 0.4609(3)
Cd3_5 Cd 1.0000 -0.0000 0.0000
Cd3_6 Cd 1.0000 -0.0000 1.0000
Cd1_3 Cd 1.0000 0.0000 0.5000
N1 N 0.81837(11) 0.0942(4) 0.0432(2)
N2 N 0.79596(12) 0.4635(4) 0.0122(2)
N3 N 0.87610(12) 0.0993(5) 0.1475(3)
H1 H 0.8831 0.1693 0.1230
N4 N 0.95874(14) 0.0047(5) 0.3638(3)
N5 N 0.85691(12) 0.5846(4) 0.0550(3)
H2 H 0.8634 0.5234 0.0918
N6 N 0.94948(11) 0.8678(4) 0.0391(3)
C1 C 0.82615(14) 0.2309(5) 0.0151(3)
H4 H 0.8556 0.2424 0.0194
C2 C 0.81014(14) 0.3454(5) 0.0630(3)
H5 H 0.7875 0.3111 0.0859
H6 H 0.8321 0.3732 0.1074
C3 C 0.78022(14) 0.0271(5) 0.0029(3)
C5 C 0.83958(14) 0.0357(5) 0.1123(3)
C8 C 0.90248(15) 0.0605(6) 0.2188(3)
C9 C 0.9365(2) 0.1342(12) 0.2446(5)
H13 H 0.9421 0.2088 0.2148
C10 C 0.9636(2) 0.0995(13) 0.3162(5)
H14 H 0.9876 0.1510 0.3303
C11 C 0.81802(13) 0.5781(4) 0.0053(3)
C12 C 0.91014(16) 0.8939(5) 0.0059(4)
C13 C 0.87771(15) 0.8065(5) 0.0094(4)
C14 C 0.88623(13) 0.6836(5) 0.0492(3)
C15 C 0.92703(15) 0.6567(6) 0.0853(3)
H17 H 0.9340 0.5765 0.1140
C16 C 0.95670(16) 0.7493(5) 0.0782(4)
H18 H 0.9839 0.7286 0.1021
H21 H 0.6869 0.2609 0.0416
H26 H 0.7269 0.4422 0.0529
C20 C 0.74401(13) 0.0545(5) 0.0436(3)
H28 H 0.7459 0.1467 0.0643
Cd3_7 Cd 1.0000 1.0000 0.0000
N15 N 0.94948(11) 0.1322(4) 0.5391(3)
O2 O 0.80437(11) 0.6678(4) 0.9578(2)
H3 H 0.8131 0.2391 0.9584
H8 H 0.7731 0.0578 0.9471
C4 C 0.75599(13) 0.4455(5) 0.9564(3)
H9 H 0.7545 0.5067 0.9108
H10 H 0.7541 0.3533 0.9357
H15 H 0.9041 0.9759 0.9787
H16 H 0.8508 0.8299 0.9854
O3 O 0.67247(12) 0.5660(4) 0.8592(2)
N7 N 0.68163(11) 0.4058(4) 0.9568(2)
N8 N 0.70404(12) 0.0365(4) 0.9878(2)
N9 N 0.62390(12) 0.4007(5) 0.8525(3)
H19 H 0.6169 0.3307 0.8770
N10 N 0.54126(14) 0.4953(5) 0.6362(3)
C17 C 0.67385(14) 0.2691(5) 0.9849(3)
H22 H 0.6444 0.2576 0.9806
C18 C 0.68986(14) 0.1546(5) 0.9370(3)
H23 H 0.7125 0.1889 0.9141
H24 H 0.6679 0.1268 0.8926
C19 C 0.71978(14) 0.4729(5) 0.9971(3)
H25 H 0.7150 0.5701 0.9977
C21 C 0.66042(14) 0.4643(5) 0.8877(3)
C22 C 0.5732(3) 0.5709(8) 0.6649(6)
H29 H 0.5770 0.6475 0.6350
C23 C 0.6017(3) 0.5486(8) 0.7348(5)
H30 H 0.6237 0.6081 0.7503
C24 C 0.59752(15) 0.4395(6) 0.7812(3)
C25 C 0.5635(2) 0.3658(12) 0.7554(5)
H31 H 0.5579 0.2912 0.7852
C26 C 0.5364(2) 0.4005(13) 0.6838(5)
H32 H 0.5124 0.3490 0.6697
Cd2 Cd 0.5000 0.5000 0.5000
Cd3_8 Cd 1.0000 1.0000 1.0000
Cd1_4 Cd 1.0000 1.0000 0.5000
O1 O 0.82753(12) 0.9340(4) 0.1408(2)
H7 H 0.7850 0.9299 0.0023
C6 C 0.9268(3) 0.9291(8) 0.3351(6)
H11 H 0.9230 0.8525 0.3650
C7 C 0.8983(3) 0.9514(8) 0.2652(5)
H12 H 0.8763 0.8919 0.2497
O4 O 0.69563(11) 0.8322(4) 0.0422(2)
H27 H 0.7455 0.9933 0.0892
H33 H 0.5959 0.5241 0.0213
H34 H 0.6492 0.6701 0.0146
I2 I 0.953194(11) 0.74096(3) 0.53031(2)
Cd4 Cd 0.5000 0.5000 0.0000
N11 N 0.64309(12) 0.9154(4) 0.9450(3)
H20 H 0.6366 0.9766 0.9082
N12 N 0.55052(11) 0.6322(4) 0.9609(3)
C27 C 0.68198(13) 0.9219(4) 0.9947(3)
C28 C 0.58986(16) 0.6061(5) 0.9941(4)
C29 C 0.62229(15) 0.6935(5) 0.9906(4)
C30 C 0.61377(13) 0.8164(5) 0.9508(3)
C31 C 0.57297(15) 0.8433(6) 0.9147(3)
H35 H 0.5660 0.9235 0.8860
C32 C 0.54330(16) 0.7507(5) 0.9218(4)
H36 H 0.5161 0.7714 0.8979
Cd4_2 Cd 0.5000 0.5000 1.0000
N5_2 N 0.35691(12) 0.0846(4) 0.0550(3)
H2_2 H 0.3634 0.0234 0.0918
N6_2 N 0.44948(11) 0.3678(4) 0.0391(3)
C11_2 C 0.31802(13) 0.0781(4) 0.0053(3)
C12_2 C 0.41014(16) 0.3939(5) 0.0059(4)
C13_2 C 0.37771(15) 0.3065(5) 0.0094(4)
C14_2 C 0.38623(13) 0.1836(5) 0.0492(3)
C15_2 C 0.42703(15) 0.1567(6) 0.0853(3)
H17_2 H 0.4340 0.0765 0.1140
C16_2 C 0.45670(16) 0.2493(5) 0.0782(4)
H18_2 H 0.4839 0.2286 0.1021
O2_2 O 0.30437(11) 0.1678(4) 0.9578(2)
H9_2 H 0.2545 0.0067 0.9108
H15_2 H 0.4041 0.4759 0.9787
H16_2 H 0.3508 0.3299 0.9854
O3_2 O 0.17247(12) 0.0660(4) 0.8592(2)
H25_2 H 0.2150 0.0701 0.9977
C22_2 C 0.0732(3) 0.0709(8) 0.6649(6)
H29_2 H 0.0770 0.1475 0.6350
C23_2 C 0.1017(3) 0.0486(8) 0.7348(5)
H30_2 H 0.1237 0.1081 0.7503
I1_2 I 0.546806(11) 0.75904(3) 0.46969(2)
O1_2 O 0.32753(12) 0.4340(4) 0.1408(2)
N1_2 N 0.31837(11) 0.5942(4) 0.0432(2)
N2_2 N 0.29596(12) 0.9635(4) 0.0122(2)
N3_2 N 0.37610(12) 0.5993(5) 0.1475(3)
H1_2 H 0.3831 0.6693 0.1230
N4_2 N 0.45874(14) 0.5047(5) 0.3638(3)
C1_2 C 0.32615(14) 0.7309(5) 0.0151(3)
H4_2 H 0.3556 0.7424 0.0194
C2_2 C 0.31014(14) 0.8454(5) 0.0630(3)
H5_2 H 0.2875 0.8111 0.0859
H6_2 H 0.3321 0.8732 0.1074
C3_2 C 0.28022(14) 0.5271(5) 0.0029(3)
H7_2 H 0.2850 0.4299 0.0023
C5_2 C 0.33958(14) 0.5357(5) 0.1123(3)
C6_2 C 0.4268(3) 0.4291(8) 0.3351(6)
H11_2 H 0.4230 0.3525 0.3650
C7_2 C 0.3983(3) 0.4514(8) 0.2652(5)
H12_2 H 0.3763 0.3919 0.2497
C8_2 C 0.40248(15) 0.5605(6) 0.2188(3)
C9_2 C 0.4365(2) 0.6342(12) 0.2446(5)
H13_2 H 0.4421 0.7088 0.2148
C10_2 C 0.4636(2) 0.5995(13) 0.3162(5)
H14_2 H 0.4876 0.6510 0.3303
O4_2 O 0.19563(11) 0.3322(4) 0.0422(2)
H21_2 H 0.1869 0.7609 0.0416
H26_2 H 0.2269 0.9422 0.0529
C20_2 C 0.24401(13) 0.5545(5) 0.0436(3)
H27_2 H 0.2455 0.4933 0.0892
H28_2 H 0.2459 0.6467 0.0643
H33_2 H 0.0959 0.0241 0.0213
H34_2 H 0.1492 0.1701 0.0146
I2_2 I 0.453194(11) 0.24096(3) 0.53031(2)
N14_2 N 0.55052(11) 0.3678(4) 0.4609(3)
N15_2 N 0.44948(11) 0.6322(4) 0.5391(3)
H3_2 H 0.3131 0.7391 0.9584
H8_2 H 0.2731 0.5578 0.9471
C4_2 C 0.25599(13) 0.9455(5) 0.9564(3)
H10_2 H 0.2541 0.8533 0.9357
N7_2 N 0.18163(11) 0.9058(4) 0.9568(2)
N8_2 N 0.20404(12) 0.5365(4) 0.9878(2)
N9_2 N 0.12390(12) 0.9007(5) 0.8525(3)
H19_2 H 0.1169 0.8307 0.8770
N11_2 N 0.14309(12) 0.4154(4) 0.9450(3)
H20_2 H 0.1366 0.4766 0.9082
N12_2 N 0.05052(11) 0.1322(4) 0.9609(3)
C17_2 C 0.17385(14) 0.7691(5) 0.9849(3)
H22_2 H 0.1444 0.7576 0.9806
C18_2 C 0.18986(14) 0.6546(5) 0.9370(3)
H23_2 H 0.2125 0.6889 0.9141
H24_2 H 0.1679 0.6268 0.8926
C19_2 C 0.21978(14) 0.9729(5) 0.9971(3)
C21_2 C 0.16042(14) 0.9643(5) 0.8877(3)
C24_2 C 0.09752(15) 0.9395(6) 0.7812(3)
C25_2 C 0.0635(2) 0.8658(12) 0.7554(5)
H31_2 H 0.0579 0.7912 0.7852
C26_2 C 0.0364(2) 0.9005(13) 0.6838(5)
H32_2 H 0.0124 0.8490 0.6697
C27_2 C 0.18198(13) 0.4219(4) 0.9947(3)
C28_2 C 0.08986(16) 0.1061(5) 0.9941(4)
C29_2 C 0.12229(15) 0.1935(5) 0.9906(4)
C30_2 C 0.11377(13) 0.3164(5) 0.9508(3)
C31_2 C 0.07297(15) 0.3433(6) 0.9147(3)
H35_2 H 0.0660 0.4235 0.8860
C32_2 C 0.04330(16) 0.2507(5) 0.9218(4)
H36_2 H 0.0161 0.2714 0.8979
O2_3 O 0.19563(11) 0.6678(4) 0.5422(2)
N1_3 N 0.18163(11) 0.0942(4) 0.4568(2)
N2_3 N 0.20404(12) 0.4635(4) 0.4878(2)
N3_3 N 0.12390(12) 0.0993(5) 0.3525(3)
H1_3 H 0.1169 0.1693 0.3770
N4_3 N 0.04126(14) 0.0047(5) 0.1362(3)
N5_3 N 0.14309(12) 0.5846(4) 0.4450(3)
H2_3 H 0.1366 0.5234 0.4082
C1_3 C 0.17385(14) 0.2309(5) 0.4849(3)
H3_3 H 0.1869 0.2391 0.5416
H4_3 H 0.1444 0.2424 0.4806
C2_3 C 0.18986(14) 0.3454(5) 0.4370(3)
H5_3 H 0.2125 0.3111 0.4141
H6_3 H 0.1679 0.3732 0.3926
C3_3 C 0.21978(14) 0.0271(5) 0.4971(3)
H8_3 H 0.2269 0.0578 0.5529
C4_3 C 0.24401(13) 0.4455(5) 0.5436(3)
H9_3 H 0.2455 0.5067 0.5892
H10_3 H 0.2459 0.3533 0.5643
C5_3 C 0.16042(14) 0.0357(5) 0.3877(3)
C8_3 C 0.09752(15) 0.0605(6) 0.2812(3)
C9_3 C 0.0635(2) 0.1342(12) 0.2554(5)
H13_3 H 0.0579 0.2088 0.2852
C10_3 C 0.0364(2) 0.0995(13) 0.1838(5)
H14_3 H 0.0124 0.1510 0.1697
C11_3 C 0.18198(13) 0.5781(4) 0.4947(3)
C12_3 C 0.08986(16) 0.8939(5) 0.4941(4)
H15_3 H 0.0959 0.9759 0.5213
C13_3 C 0.12229(15) 0.8065(5) 0.4906(4)
H16_3 H 0.1492 0.8299 0.5146
C14_3 C 0.11377(13) 0.6836(5) 0.4508(3)
C15_3 C 0.07297(15) 0.6567(6) 0.4147(3)
H17_3 H 0.0660 0.5765 0.3860
C16_3 C 0.04330(16) 0.7493(5) 0.4218(4)
H18_3 H 0.0161 0.7286 0.3979
O3_3 O 0.32753(12) 0.5660(4) 0.6408(2)
N7_3 N 0.31837(11) 0.4058(4) 0.5432(2)
N8_3 N 0.29596(12) 0.0365(4) 0.5122(2)
N9_3 N 0.37610(12) 0.4007(5) 0.6475(3)
H19_3 H 0.3831 0.3307 0.6230
N10_2 N 0.45874(14) 0.4953(5) 0.8638(3)
C17_3 C 0.32615(14) 0.2691(5) 0.5151(3)
H21_3 H 0.3131 0.2609 0.4584
H22_3 H 0.3556 0.2576 0.5194
C18_3 C 0.31014(14) 0.1546(5) 0.5630(3)
H23_3 H 0.2875 0.1889 0.5859
H24_3 H 0.3321 0.1268 0.6074
C19_3 C 0.28022(14) 0.4729(5) 0.5029(3)
H25_3 H 0.2850 0.5701 0.5023
H26_3 H 0.2731 0.4422 0.4471
C20_3 C 0.25599(13) 0.0545(5) 0.4564(3)
H28_3 H 0.2541 0.1467 0.4357
C21_3 C 0.33958(14) 0.4643(5) 0.6123(3)
C22_3 C 0.4268(3) 0.5709(8) 0.8351(6)
H29_3 H 0.4230 0.6475 0.8650
C23_3 C 0.3983(3) 0.5486(8) 0.7652(5)
H30_3 H 0.3763 0.6081 0.7497
C24_3 C 0.40248(15) 0.4395(6) 0.7188(3)
C25_3 C 0.4365(2) 0.3658(12) 0.7446(5)
H31_3 H 0.4421 0.2912 0.7148
C26_3 C 0.4636(2) 0.4005(13) 0.8162(5)
H32_3 H 0.4876 0.3490 0.8303
O1_3 O 0.17247(12) 0.9340(4) 0.3592(2)
H7_3 H 0.2150 0.9299 0.4977
C6_3 C 0.0732(3) 0.9291(8) 0.1649(6)
H11_3 H 0.0770 0.8525 0.1350
C7_3 C 0.1017(3) 0.9514(8) 0.2348(5)
H12_3 H 0.1237 0.8919 0.2503
O4_3 O 0.30437(11) 0.8322(4) 0.4578(2)
N11_3 N 0.35691(12) 0.9154(4) 0.5550(3)
H20_3 H 0.3634 0.9766 0.5918
H27_3 H 0.2545 0.9933 0.4108
C27_3 C 0.31802(13) 0.9219(4) 0.5053(3)
C28_3 C 0.41014(16) 0.6061(5) 0.5059(4)
H33_3 H 0.4041 0.5241 0.4787
C29_3 C 0.37771(15) 0.6935(5) 0.5094(4)
H34_3 H 0.3508 0.6701 0.4854
C30_3 C 0.38623(13) 0.8164(5) 0.5492(3)
C31_3 C 0.42703(15) 0.8433(6) 0.5853(3)
H35_3 H 0.4340 0.9235 0.6140
C32_3 C 0.45670(16) 0.7507(5) 0.5782(4)
H36_3 H 0.4839 0.7714 0.6021
I2_3 I 0.046806(11) 0.74096(3) 0.96969(2)
I1_3 I 0.953194(11) 0.25904(3) 0.03031(2)
N13_2 N 0.95874(14) 0.9953(5) 0.8638(3)
O2_4 O 0.69563(11) 0.1678(4) 0.5422(2)
N5_4 N 0.64309(12) 0.0846(4) 0.4450(3)
H2_4 H 0.6366 0.0234 0.4082
H9_4 H 0.7455 0.0067 0.5892
C11_4 C 0.68198(13) 0.0781(4) 0.4947(3)
C12_4 C 0.58986(16) 0.3939(5) 0.4941(4)
H15_4 H 0.5959 0.4759 0.5213
C13_4 C 0.62229(15) 0.3065(5) 0.4906(4)
H16_4 H 0.6492 0.3299 0.5146
C14_4 C 0.61377(13) 0.1836(5) 0.4508(3)
C15_4 C 0.57297(15) 0.1567(6) 0.4147(3)
H17_4 H 0.5660 0.0765 0.3860
C16_4 C 0.54330(16) 0.2493(5) 0.4218(4)
H18_4 H 0.5161 0.2286 0.3979
O3_4 O 0.82753(12) 0.0660(4) 0.6408(2)
H25_4 H 0.7850 0.0701 0.5023
C22_4 C 0.9268(3) 0.0709(8) 0.8351(6)
H29_4 H 0.9230 0.1475 0.8650
C23_4 C 0.8983(3) 0.0486(8) 0.7652(5)
H30_4 H 0.8763 0.1081 0.7497
I1_4 I 0.453194(11) 0.75904(3) 0.03031(2)
O1_4 O 0.67247(12) 0.4340(4) 0.3592(2)
N1_4 N 0.68163(11) 0.5942(4) 0.4568(2)
N2_4 N 0.70404(12) 0.9635(4) 0.4878(2)
N3_4 N 0.62390(12) 0.5993(5) 0.3525(3)
H1_4 H 0.6169 0.6693 0.3770
N4_4 N 0.54126(14) 0.5047(5) 0.1362(3)
C1_4 C 0.67385(14) 0.7309(5) 0.4849(3)
H3_4 H 0.6869 0.7391 0.5416
H4_4 H 0.6444 0.7424 0.4806
C2_4 C 0.68986(14) 0.8454(5) 0.4370(3)
H5_4 H 0.7125 0.8111 0.4141
H6_4 H 0.6679 0.8732 0.3926
C3_4 C 0.71978(14) 0.5271(5) 0.4971(3)
H7_4 H 0.7150 0.4299 0.4977
H8_4 H 0.7269 0.5578 0.5529
C4_4 C 0.74401(13) 0.9455(5) 0.5436(3)
H10_4 H 0.7459 0.8533 0.5643
C5_4 C 0.66042(14) 0.5357(5) 0.3877(3)
C6_4 C 0.5732(3) 0.4291(8) 0.1649(6)
H11_4 H 0.5770 0.3525 0.1350
C7_4 C 0.6017(3) 0.4514(8) 0.2348(5)
H12_4 H 0.6237 0.3919 0.2503
C8_4 C 0.59752(15) 0.5605(6) 0.2812(3)
C9_4 C 0.5635(2) 0.6342(12) 0.2554(5)
H13_4 H 0.5579 0.7088 0.2852
C10_4 C 0.5364(2) 0.5995(13) 0.1838(5)
H14_4 H 0.5124 0.6510 0.1697
O4_4 O 0.80437(11) 0.3322(4) 0.4578(2)
N7_4 N 0.81837(11) 0.9058(4) 0.5432(2)
N8_4 N 0.79596(12) 0.5365(4) 0.5122(2)
N9_4 N 0.87610(12) 0.9007(5) 0.6475(3)
H19_4 H 0.8831 0.8307 0.6230
N11_4 N 0.85691(12) 0.4154(4) 0.5550(3)
H20_4 H 0.8634 0.4766 0.5918
C17_4 C 0.82615(14) 0.7691(5) 0.5151(3)
H21_4 H 0.8131 0.7609 0.4584
H22_4 H 0.8556 0.7576 0.5194
C18_4 C 0.81014(14) 0.6546(5) 0.5630(3)
H23_4 H 0.7875 0.6889 0.5859
H24_4 H 0.8321 0.6268 0.6074
C19_4 C 0.78022(14) 0.9729(5) 0.5029(3)
H26_4 H 0.7731 0.9422 0.4471
C20_4 C 0.75599(13) 0.5545(5) 0.4564(3)
H27_4 H 0.7545 0.4933 0.4108
H28_4 H 0.7541 0.6467 0.4357
C21_4 C 0.83958(14) 0.9643(5) 0.6123(3)
C24_4 C 0.90248(15) 0.9395(6) 0.7188(3)
C25_4 C 0.9365(2) 0.8658(12) 0.7446(5)
H31_4 H 0.9421 0.7912 0.7148
C26_4 C 0.9636(2) 0.9005(13) 0.8162(5)
H32_4 H 0.9876 0.8490 0.8303
C27_4 C 0.81802(13) 0.4219(4) 0.5053(3)
C28_4 C 0.91014(16) 0.1061(5) 0.5059(4)
H33_4 H 0.9041 0.0241 0.4787
C29_4 C 0.87771(15) 0.1935(5) 0.5094(4)
H34_4 H 0.8508 0.1701 0.4854
C30_4 C 0.88623(13) 0.3164(5) 0.5492(3)
C31_4 C 0.92703(15) 0.3433(6) 0.5853(3)
H35_4 H 0.9340 0.4235 0.6140
C32_4 C 0.95670(16) 0.2507(5) 0.5782(4)
H36_4 H 0.9839 0.2714 0.6021
I2_4 I 0.546806(11) 0.24096(3) 0.96969(2)
loop_
_geom_bond_atom_site_label_1
_geom_bond_atom_site_label_2
_geom_bond_site_symmetry_1
_geom_bond_site_symmetry_2
Cd1 I1 1_555 1_555
N13 Cd1_2 1_555 1_555
N14 Cd1_2 1_555 1_555
N1 C1 1_555 1_555
N2 C2 1_555 1_555
N3 H1 1_555 1_555
N4 Cd1_3 1_555 1_555
N5 H2 1_555 1_555
N6 C12 1_555 1_555
H4 C1 1_555 1_555
C2 C1 1_555 1_555
H5 C2 1_555 1_555
H6 C2 1_555 1_555
C3 N1 1_555 1_555
C5 N1 1_555 1_555
C8 N3 1_555 1_555
C9 C8 1_555 1_555
H13 C9 1_555 1_555
C10 N4 1_555 1_555
H14 C10 1_555 1_555
C11 N2 1_555 1_555
C13 C12 1_555 1_555
C14 N5 1_555 1_555
C15 C14 1_555 1_555
H17 C15 1_555 1_555
C16 N6 1_555 1_555
H18 C16 1_555 1_555
C20 C3 1_555 1_555
H28 C20 1_555 1_555
Cd3_7 N6 1_555 1_555
N15 Cd1_3 1_555 1_555
N3 C5 1_555 1_555
N5 C11 1_555 1_555
C9 C10 1_555 1_555
C13 C14 1_555 1_555
C15 C16 1_555 1_555
H9 C4 1_555 1_555
H10 C4 1_555 1_555
O3 C21 1_555 1_555
N7 C17 1_555 1_555
N8 C18 1_555 1_555
N9 H19 1_555 1_555
N10 C22 1_555 1_555
H22 C17 1_555 1_555
C18 C17 1_555 1_555
H23 C18 1_555 1_555
H24 C18 1_555 1_555
C19 C4 1_555 1_555
H25 C19 1_555 1_555
C21 N7 1_555 1_555
C22 H29 1_555 1_555
C23 C22 1_555 1_555
H30 C23 1_555 1_555
C24 N9 1_555 1_555
C25 C24 1_555 1_555
H31 C25 1_555 1_555
C26 N10 1_555 1_555
H32 C26 1_555 1_555
Cd2 N10 1_555 1_555
N7 C19 1_555 1_555
N9 C21 1_555 1_555
C23 C24 1_555 1_555
C25 C26 1_555 1_555
H11 C6 1_555 1_555
C7 C6 1_555 1_555
H12 C7 1_555 1_555
I2 Cd1_4 1_555 1_555
N11 H20 1_555 1_555
N12 C28 1_555 1_555
C29 C28 1_555 1_555
C30 N11 1_555 1_555
C31 C30 1_555 1_555
H35 C31 1_555 1_555
C32 N12 1_555 1_555
H36 C32 1_555 1_555
Cd4_2 N12 1_555 1_555
N11 C27 1_555 1_555
C29 C30 1_555 1_555
C31 C32 1_555 1_555
N5_2 H2_2 1_555 1_555
N6_2 C12_2 1_555 1_555
C13_2 C12_2 1_555 1_555
C14_2 N5_2 1_555 1_555
C15_2 C14_2 1_555 1_555
H17_2 C15_2 1_555 1_555
C16_2 N6_2 1_555 1_555
H18_2 C16_2 1_555 1_555
Cd4 N6_2 1_555 1_555
N5_2 C11_2 1_555 1_555
C13_2 C14_2 1_555 1_555
C15_2 C16_2 1_555 1_555
C22_2 H29_2 1_555 1_555
C23_2 C22_2 1_555 1_555
H30_2 C23_2 1_555 1_555
Cd2 I1_2 1_555 1_555
O1_2 C5_2 1_555 1_555
N1_2 C1_2 1_555 1_555
N2_2 C2_2 1_555 1_555
N3_2 H1_2 1_555 1_555
N4_2 Cd2 1_555 1_555
H4_2 C1_2 1_555 1_555
C2_2 C1_2 1_555 1_555
H5_2 C2_2 1_555 1_555
H6_2 C2_2 1_555 1_555
C3_2 N1_2 1_555 1_555
H7_2 C3_2 1_555 1_555
C5_2 N1_2 1_555 1_555
C6_2 N4_2 1_555 1_555
H11_2 C6_2 1_555 1_555
C7_2 C6_2 1_555 1_555
H12_2 C7_2 1_555 1_555
C8_2 N3_2 1_555 1_555
C9_2 C8_2 1_555 1_555
H13_2 C9_2 1_555 1_555
C10_2 N4_2 1_555 1_555
H14_2 C10_2 1_555 1_555
C20_2 C3_2 1_555 1_555
H27_2 C20_2 1_555 1_555
H28_2 C20_2 1_555 1_555
I2_2 Cd2 1_555 1_555
N14_2 Cd2 1_555 1_555
N15_2 Cd2 1_555 1_555
N3_2 C5_2 1_555 1_555
C7_2 C8_2 1_555 1_555
C9_2 C10_2 1_555 1_555
H10_2 C4_2 1_555 1_555
N7_2 C17_2 1_555 1_555
N8_2 C18_2 1_555 1_555
N9_2 H19_2 1_555 1_555
N11_2 H20_2 1_555 1_555
N12_2 C28_2 1_555 1_555
H22_2 C17_2 1_555 1_555
C18_2 C17_2 1_555 1_555
H23_2 C18_2 1_555 1_555
H24_2 C18_2 1_555 1_555
C19_2 C4_2 1_555 1_555
C21_2 N7_2 1_555 1_555
C24_2 N9_2 1_555 1_555
C25_2 C24_2 1_555 1_555
H31_2 C25_2 1_555 1_555
C26_2 N13 1_555 1_555
H32_2 C26_2 1_555 1_555
C27_2 N8_2 1_555 1_555
C29_2 C28_2 1_555 1_555
C30_2 N11_2 1_555 1_555
C31_2 C30_2 1_555 1_555
H35_2 C31_2 1_555 1_555
C32_2 N12_2 1_555 1_555
H36_2 C32_2 1_555 1_555
Cd3_2 N12_2 1_555 1_555
N7_2 C19_2 1_555 1_555
N9_2 C21_2 1_555 1_555
N11_2 C27_2 1_555 1_555
C25_2 C26_2 1_555 1_555
C29_2 C30_2 1_555 1_555
C31_2 C32_2 1_555 1_555
O2_3 C11_3 1_555 1_555
N1_3 C1_3 1_555 1_555
N2_3 C2_3 1_555 1_555
N3_3 H1_3 1_555 1_555
N4_3 Cd3 1_555 1_555
N5_3 H2_3 1_555 1_555
N14 C12_3 1_555 1_555
C1_3 H3_3 1_555 1_555
H4_3 C1_3 1_555 1_555
C2_3 C1_3 1_555 1_555
H5_3 C2_3 1_555 1_555
H6_3 C2_3 1_555 1_555
C3_3 N1_3 1_555 1_555
H8_3 C3_3 1_555 1_555
C4_3 N2_3 1_555 1_555
H9_3 C4_3 1_555 1_555
H10_3 C4_3 1_555 1_555
C5_3 N1_3 1_555 1_555
C8_3 N3_3 1_555 1_555
C9_3 C8_3 1_555 1_555
H13_3 C9_3 1_555 1_555
C10_3 N4_3 1_555 1_555
H14_3 C10_3 1_555 1_555
C11_3 N2_3 1_555 1_555
C12_3 H15_3 1_555 1_555
C13_3 C12_3 1_555 1_555
H16_3 C13_3 1_555 1_555
C14_3 N5_3 1_555 1_555
C15_3 C14_3 1_555 1_555
H17_3 C15_3 1_555 1_555
C16_3 N14 1_555 1_555
H18_3 C16_3 1_555 1_555
O3_3 C21_3 1_555 1_555
N7_3 C17_3 1_555 1_555
N8_3 C18_3 1_555 1_555
N9_3 H19_3 1_555 1_555
N10_2 C22_3 1_555 1_555
C17_3 H21_3 1_555 1_555
H22_3 C17_3 1_555 1_555
C18_3 C17_3 1_555 1_555
H23_3 C18_3 1_555 1_555
H24_3 C18_3 1_555 1_555
C19_3 C4_3 1_555 1_555
H25_3 C19_3 1_555 1_555
H26_3 C19_3 1_555 1_555
C20_3 C3_3 1_555 1_555
H28_3 C20_3 1_555 1_555
C21_3 N7_3 1_555 1_555
C22_3 H29_3 1_555 1_555
C23_3 C22_3 1_555 1_555
H30_3 C23_3 1_555 1_555
C24_3 N9_3 1_555 1_555
C25_3 C24_3 1_555 1_555
H31_3 C25_3 1_555 1_555
C26_3 N10_2 1_555 1_555
H32_3 C26_3 1_555 1_555
Cd4_2 N10_2 1_555 1_555
N3_3 C5_3 1_555 1_555
N5_3 C11_3 1_555 1_555
C9_3 C10_3 1_555 1_555
C13_3 C14_3 1_555 1_555
C15_3 C16_3 1_555 1_555
N7_3 C19_3 1_555 1_555
N8_3 C20_3 1_555 1_555
N9_3 C21_3 1_555 1_555
C23_3 C24_3 1_555 1_555
C25_3 C26_3 1_555 1_555
H11_3 C6_3 1_555 1_555
C7_3 C6_3 1_555 1_555
H12_3 C7_3 1_555 1_555
O4_3 C27_3 1_555 1_555
N11_3 H20_3 1_555 1_555
N15_2 C28_3 1_555 1_555
C28_3 H33_3 1_555 1_555
C29_3 C28_3 1_555 1_555
H34_3 C29_3 1_555 1_555
C30_3 N11_3 1_555 1_555
C31_3 C30_3 1_555 1_555
H35_3 C31_3 1_555 1_555
C32_3 N15_2 1_555 1_555
H36_3 C32_3 1_555 1_555
N11_3 C27_3 1_555 1_555
C29_3 C30_3 1_555 1_555
C31_3 C32_3 1_555 1_555
I2_3 Cd3_4 1_555 1_555
Cd3_5 I1_3 1_555 1_555
N13_2 Cd3_8 1_555 1_555
O2_4 C11_4 1_555 1_555
N5_4 H2_4 1_555 1_555
N14_2 C12_4 1_555 1_555
C12_4 H15_4 1_555 1_555
C13_4 C12_4 1_555 1_555
H16_4 C13_4 1_555 1_555
C14_4 N5_4 1_555 1_555
C15_4 C14_4 1_555 1_555
H17_4 C15_4 1_555 1_555
C16_4 N14_2 1_555 1_555
H18_4 C16_4 1_555 1_555
C22_4 H29_4 1_555 1_555
C23_4 C22_4 1_555 1_555
H30_4 C23_4 1_555 1_555
N5_4 C11_4 1_555 1_555
C13_4 C14_4 1_555 1_555
C15_4 C16_4 1_555 1_555
Cd4 I1_4 1_555 1_555
O1_4 C5_4 1_555 1_555
N1_4 C1_4 1_555 1_555
N2_4 C2_4 1_555 1_555
N3_4 H1_4 1_555 1_555
N4_4 Cd4 1_555 1_555
C1_4 H3_4 1_555 1_555
H4_4 C1_4 1_555 1_555
C2_4 C1_4 1_555 1_555
H5_4 C2_4 1_555 1_555
H6_4 C2_4 1_555 1_555
C3_4 N1_4 1_555 1_555
H7_4 C3_4 1_555 1_555
H8_4 C3_4 1_555 1_555
C4_4 N2_4 1_555 1_555
H10_4 C4_4 1_555 1_555
C5_4 N1_4 1_555 1_555
C6_4 N4_4 1_555 1_555
H11_4 C6_4 1_555 1_555
C7_4 C6_4 1_555 1_555
H12_4 C7_4 1_555 1_555
C8_4 N3_4 1_555 1_555
C9_4 C8_4 1_555 1_555
H13_4 C9_4 1_555 1_555
C10_4 N4_4 1_555 1_555
H14_4 C10_4 1_555 1_555
O4_4 C27_4 1_555 1_555
N7_4 C17_4 1_555 1_555
N8_4 C18_4 1_555 1_555
N9_4 H19_4 1_555 1_555
N11_4 H20_4 1_555 1_555
N15 C28_4 1_555 1_555
C17_4 H21_4 1_555 1_555
H22_4 C17_4 1_555 1_555
C18_4 C17_4 1_555 1_555
H23_4 C18_4 1_555 1_555
H24_4 C18_4 1_555 1_555
C19_4 C4_4 1_555 1_555
H26_4 C19_4 1_555 1_555
C20_4 C3_4 1_555 1_555
H27_4 C20_4 1_555 1_555
H28_4 C20_4 1_555 1_555
C21_4 N7_4 1_555 1_555
C24_4 N9_4 1_555 1_555
C25_4 C24_4 1_555 1_555
H31_4 C25_4 1_555 1_555
C26_4 N13_2 1_555 1_555
H32_4 C26_4 1_555 1_555
C27_4 N8_4 1_555 1_555
C28_4 H33_4 1_555 1_555
C29_4 C28_4 1_555 1_555
H34_4 C29_4 1_555 1_555
C30_4 N11_4 1_555 1_555
C31_4 C30_4 1_555 1_555
H35_4 C31_4 1_555 1_555
C32_4 N15 1_555 1_555
H36_4 C32_4 1_555 1_555
N3_4 C5_4 1_555 1_555
C7_4 C8_4 1_555 1_555
C9_4 C10_4 1_555 1_555
N7_4 C19_4 1_555 1_555
N8_4 C20_4 1_555 1_555
N9_4 C21_4 1_555 1_555
N11_4 C27_4 1_555 1_555
C25_4 C26_4 1_555 1_555
C29_4 C30_4 1_555 1_555
C31_4 C32_4 1_555 1_555
I2_4 Cd4_2 1_555 1_555

#END
