
###############################################################################
#
# This file contains modified crystal structure data generated from the
# MOF subset of the Cambridge Structural Database (CSD) v543 
# hosted by the Cambridge Crystallographic Data Centre (CCDC).
#
# This work is licensed under the Creative Commons
# Attribution-NonCommercial-ShareAlike 4.0 International License.
# To view a copy of this license, visit
# http://creativecommons.org/licenses/by-nc-sa/4.0/
# or send a letter to
# Creative Commons, PO Box 1866, Mountain View, CA 94042, USA.
#
# CIF created using the CSD Python API on 29 September 2022
# The structure has been converted into the P1 space group
# The structure has a 3D framework
# The original CSD entry ACOLUB is in the monoclinic crystal system
# The framework has been calculated to contain at least 10.0% void space
# The void calculation uses a probe of radius 1.32A, grid spacing 0.4
#
###############################################################################

data_ACOLUB
_chemical_formula_moiety         '(C256 H200 Cd10 N16 O78)n'
_symmetry_cell_setting           triclinic
_symmetry_space_group_name_H-M   'P 1'
_symmetry_Int_Tables_number      1
_space_group_name_Hall           'P 1'
loop_
_symmetry_equiv_pos_site_id
_symmetry_equiv_pos_as_xyz
1 x,y,z
_cell_length_a                   29.766(6)
_cell_length_b                   20.293(5)
_cell_length_c                   16.483(4)
_cell_angle_alpha                90
_cell_angle_beta                 111.107(4)
_cell_angle_gamma                90
_cell_volume                     9288.43
loop_
_atom_site_label
_atom_site_type_symbol
_atom_site_fract_x
_atom_site_fract_y
_atom_site_fract_z
Cd9 Cd 0.72784(3) 0.08437(3) 0.45077(4)
O3 O 0.5952(2) 0.3086(3) 0.0485(4)
O7 O 0.7233(3) 0.4494(4) 0.3965(4)
O8 O 0.7194(2) 0.3497(3) 0.4436(4)
O9 O 0.3189(2) 0.1880(3) 0.0613(4)
O10 O 0.3397(3) 0.0940(4) 0.0177(6)
C13 C 0.6212(3) 0.3323(5) 0.1284(6)
C14 C 0.6292(4) 0.3970(6) 0.1493(7)
H13 H 0.6156 0.4285 0.1064
C15 C 0.6568(4) 0.4176(5) 0.2323(6)
H14 H 0.6611 0.4622 0.2455
C16 C 0.6778(3) 0.3711(5) 0.2944(6)
C17 C 0.6686(4) 0.3065(5) 0.2729(6)
H15 H 0.6810 0.2749 0.3161
C18 C 0.6421(4) 0.2859(5) 0.1913(6)
H16 H 0.6382 0.2412 0.1783
C19 C 0.7090(4) 0.3916(5) 0.3826(6)
H17 H 0.4271 0.3321 0.0054
C22 C 0.3894(4) 0.2550(5) 0.0204(7)
H18 H 0.3708 0.2786 0.0452
C23 C 0.3828(3) 0.1889(5) 0.0082(6)
C26 C 0.3447(3) 0.1541(5) 0.0303(6)
Cd3 Cd 0.7500 0.2500 0.5000
Cd4 Cd 0.2500 0.2500 0.0000
Cd7 Cd 0.77216(3) 0.41563(3) 0.54923(4)
Cd8 Cd 0.27216(3) 0.08437(3) 0.04923(4)
O19 O 0.2767(3) 0.4494(4) 0.1035(4)
O23 O 0.2806(2) 0.3497(3) 0.0564(4)
N1 N 0.7665(3) 0.5188(3) 0.5865(5)
N2 N 0.7584(3) 0.6253(3) 0.5736(5)
O1 O 0.5000 0.3243(4) 0.7500
O2 O 0.6223(2) 0.3297(3) 0.8745(4)
O4 O 0.4815(2) 0.2926(4) 0.9384(5)
O5 O 0.7482(2) 0.3788(3) 0.6496(4)
O6 O 0.7281(2) 0.2739(3) 0.6119(4)
C1 C 0.5493(3) 0.3146(4) 0.8985(5)
C2 C 0.5216(3) 0.3621(5) 0.8263(5)
H1 H 0.4971 0.3850 0.8415
H2 H 0.5433 0.3946 0.8173
C3 C 0.5887(3) 0.2797(5) 0.8758(6)
H3 H 0.6044 0.2465 0.9190
H4 H 0.5753 0.2586 0.8194
C4 C 0.5719(3) 0.3519(5) 0.9812(5)
H5 H 0.5949 0.3834 0.9746
H6 H 0.5474 0.3761 0.9947
C5 C 0.5154(3) 0.2597(5) 0.9092(6)
H7 H 0.4990 0.2377 0.8543
H8 H 0.5336 0.2273 0.9516
C6 C 0.6486(3) 0.3230(4) 0.8217(5)
C7 C 0.6499(3) 0.2674(5) 0.7760(6)
H9 H 0.6327 0.2301 0.7802
C8 C 0.6774(3) 0.2671(4) 0.7231(5)
H10 H 0.6787 0.2295 0.6918
C9 C 0.7026(3) 0.3231(4) 0.7174(5)
C10 C 0.7019(3) 0.3763(5) 0.7658(6)
H11 H 0.7195 0.4136 0.7631
C11 C 0.6758(3) 0.3760(5) 0.8186(6)
H12 H 0.6766 0.4126 0.8530
C12 C 0.7282(3) 0.3249(5) 0.6545(5)
C20 C 0.4509(3) 0.2557(5) 0.9609(7)
C21 C 0.4233(4) 0.2869(5) 0.9964(8)
C24 C 0.4107(4) 0.1562(5) 0.9731(8)
H19 H 0.4077 0.1108 0.9658
C25 C 0.4446(4) 0.1907(6) 0.9472(7)
H20 H 0.4627 0.1681 0.9205
C27 C 0.7646(3) 0.5681(4) 0.5363(7)
H21 H 0.7671 0.5650 0.4819
C28 C 0.7556(4) 0.6083(6) 0.6520(7)
H22 H 0.7510 0.6370 0.6922
C29 C 0.7608(5) 0.5427(5) 0.6602(8)
H23 H 0.7606 0.5178 0.7075
C30 C 0.7549(3) 0.6899(4) 0.5372(6)
C31 C 0.7805(3) 0.7049(4) 0.4877(7)
H24 H 0.8013 0.6737 0.4792
C32 C 0.7235(4) 0.7340(4) 0.5507(6)
H25 H 0.7055 0.7231 0.5846
Cd4_2 Cd 0.2500 0.2500 1.0000
Cd6 Cd 0.22784(3) 0.41563(3) 0.95077(4)
N3 N 0.7335(3) 0.9812(3) 0.4135(5)
N4 N 0.2335(3) 0.5188(3) 0.9135(5)
N5 N 0.7416(3) 0.8747(3) 0.4264(5)
O11 O 0.3777(2) 0.3297(3) 0.6255(4)
O12 O 0.4048(2) 0.3086(3) 0.4515(4)
O13 O 0.5185(2) 0.2926(4) 0.5616(5)
O14 O 0.2518(2) 0.3788(3) 0.8504(4)
O15 O 0.2719(2) 0.2739(3) 0.8881(4)
O16 O 0.7719(2) 0.2261(3) 0.3881(4)
O22 O 0.7806(2) 0.1503(3) 0.5564(4)
O24 O 0.6811(2) 0.1880(3) 0.4387(4)
O25 O 0.8189(2) 0.3120(3) 0.5613(4)
O26 O 0.1811(2) 0.3120(3) 0.9387(4)
O27 O 0.6603(3) 0.0940(4) 0.4823(6)
O28 O 0.8397(3) 0.4060(4) 0.5177(6)
O29 O 0.1603(3) 0.4060(4) 0.9823(6)
C33 C 0.4507(3) 0.3146(4) 0.6015(5)
C34 C 0.4784(3) 0.3621(5) 0.6737(5)
H26 H 0.5029 0.3850 0.6585
H27 H 0.4567 0.3946 0.6827
C35 C 0.4113(3) 0.2797(5) 0.6242(6)
H28 H 0.3956 0.2465 0.5810
H29 H 0.4247 0.2586 0.6806
C36 C 0.4281(3) 0.3519(5) 0.5188(5)
H30 H 0.4051 0.3834 0.5254
H31 H 0.4526 0.3761 0.5053
C37 C 0.4846(3) 0.2597(5) 0.5908(6)
H32 H 0.5010 0.2377 0.6457
H33 H 0.4664 0.2273 0.5484
C38 C 0.3514(3) 0.3230(4) 0.6783(5)
C39 C 0.3501(3) 0.2674(5) 0.7240(6)
H34 H 0.3673 0.2301 0.7198
C40 C 0.3226(3) 0.2671(4) 0.7769(5)
H35 H 0.3213 0.2295 0.8082
C41 C 0.2974(3) 0.3231(4) 0.7826(5)
C42 C 0.2981(3) 0.3763(5) 0.7342(6)
H36 H 0.2805 0.4136 0.7369
C43 C 0.3242(3) 0.3760(5) 0.6814(6)
H37 H 0.3234 0.4126 0.6470
C44 C 0.2718(3) 0.3249(5) 0.8455(5)
C45 C 0.3788(3) 0.3323(5) 0.3716(6)
C46 C 0.3708(4) 0.3970(6) 0.3507(7)
H38 H 0.3844 0.4285 0.3936
C47 C 0.3432(4) 0.4176(5) 0.2677(6)
H39 H 0.3389 0.4622 0.2545
C48 C 0.3222(3) 0.3711(5) 0.2056(6)
C49 C 0.3314(4) 0.3065(5) 0.2271(6)
H40 H 0.3190 0.2749 0.1839
C50 C 0.3579(4) 0.2859(5) 0.3087(6)
H41 H 0.3618 0.2412 0.3217
C51 C 0.2910(4) 0.3916(5) 0.1174(6)
C52 C 0.5491(3) 0.2557(5) 0.5391(7)
C53 C 0.5767(4) 0.2869(5) 0.5036(8)
H42 H 0.5729 0.3321 0.4946
C54 C 0.6106(4) 0.2550(5) 0.4796(7)
H43 H 0.6292 0.2786 0.4548
C55 C 0.6172(3) 0.1889(5) 0.4918(6)
C56 C 0.5893(4) 0.1562(5) 0.5269(8)
H44 H 0.5923 0.1108 0.5342
C57 C 0.5554(4) 0.1907(6) 0.5528(7)
H45 H 0.5373 0.1681 0.5795
C58 C 0.6553(3) 0.1541(5) 0.4697(6)
C59 C 0.7354(3) 0.9319(4) 0.4637(7)
H46 H 0.7329 0.9350 0.5181
C60 C 0.7444(4) 0.8917(6) 0.3480(7)
H47 H 0.7490 0.8630 0.3078
C61 C 0.7392(5) 0.9573(5) 0.3398(8)
H48 H 0.7394 0.9822 0.2925
C62 C 0.7451(3) 0.8101(4) 0.4628(6)
C63 C 0.7195(3) 0.7951(4) 0.5123(7)
H49 H 0.6987 0.8263 0.5208
C64 C 0.7765(4) 0.7660(4) 0.4493(6)
H50 H 0.7945 0.7769 0.4154
H21_2 H 0.2329 0.5650 0.0181
C31_2 C 0.2195(3) 0.7049(4) 0.0123(7)
H24_2 H 0.1987 0.6737 0.0208
N3_2 N 0.2665(3) 0.9812(3) 0.0865(5)
N5_2 N 0.2584(3) 0.8747(3) 0.0736(5)
O16_2 O 0.2281(2) 0.2261(3) 0.1119(4)
C59_2 C 0.2646(3) 0.9319(4) 0.0363(7)
C60_2 C 0.2556(4) 0.8917(6) 0.1520(7)
H47_2 H 0.2510 0.8630 0.1922
C61_2 C 0.2608(5) 0.9573(5) 0.1602(8)
H48_2 H 0.2606 0.9822 0.2075
C62_2 C 0.2549(3) 0.8101(4) 0.0372(6)
C64_2 C 0.2235(4) 0.7660(4) 0.0507(6)
H50_2 H 0.2055 0.7769 0.0846
N2_2 N 0.2416(3) 0.6253(3) 0.9264(5)
C27_2 C 0.2354(3) 0.5681(4) 0.9637(7)
C28_2 C 0.2444(4) 0.6083(6) 0.8480(7)
H22_2 H 0.2490 0.6370 0.8078
C29_2 C 0.2392(5) 0.5427(5) 0.8398(8)
H23_2 H 0.2394 0.5178 0.7925
C30_2 C 0.2451(3) 0.6899(4) 0.9628(6)
C32_2 C 0.2765(4) 0.7340(4) 0.9493(6)
H25_2 H 0.2945 0.7231 0.9154
O22_2 O 0.2194(2) 0.1503(3) 0.9436(4)
H46_2 H 0.2671 0.9350 0.9819
C63_2 C 0.2805(3) 0.7951(4) 0.9877(7)
H49_2 H 0.3013 0.8263 0.9792
O1_2 O 0.0000 0.1757(4) 0.2500
O4_2 O 0.0185(2) 0.2074(4) 0.0616(5)
H1_2 H 0.0029 0.1150 0.1585
H7_2 H 0.0010 0.2623 0.1457
C20_2 C 0.0491(3) 0.2443(5) 0.0391(7)
C21_2 C 0.0767(4) 0.2131(5) 0.0036(8)
C24_2 C 0.0893(4) 0.3438(5) 0.0269(8)
H19_2 H 0.0923 0.3892 0.0342
C25_2 C 0.0554(4) 0.3093(6) 0.0528(7)
H20_2 H 0.0373 0.3319 0.0795
O11_2 O 0.1223(2) 0.1703(3) 0.3745(4)
O12_2 O 0.0952(2) 0.1914(3) 0.5485(4)
O14_2 O 0.2482(2) 0.1212(3) 0.1496(4)
O17 O 0.2233(3) 0.0506(4) 0.8965(4)
C33_2 C 0.0493(3) 0.1854(4) 0.3985(5)
C34_2 C 0.0216(3) 0.1379(5) 0.3263(5)
H27_2 H 0.0433 0.1054 0.3173
C35_2 C 0.0887(3) 0.2203(5) 0.3758(6)
H28_2 H 0.1044 0.2535 0.4190
H29_2 H 0.0753 0.2414 0.3194
C36_2 C 0.0719(3) 0.1481(5) 0.4812(5)
H30_2 H 0.0949 0.1166 0.4746
H31_2 H 0.0474 0.1239 0.4947
C37_2 C 0.0154(3) 0.2403(5) 0.4092(6)
H33_2 H 0.0336 0.2727 0.4516
C38_2 C 0.1486(3) 0.1770(4) 0.3217(5)
C39_2 C 0.1499(3) 0.2326(5) 0.2760(6)
H34_2 H 0.1327 0.2699 0.2802
C40_2 C 0.1774(3) 0.2329(4) 0.2231(5)
H35_2 H 0.1787 0.2705 0.1918
C41_2 C 0.2026(3) 0.1769(4) 0.2174(5)
C42_2 C 0.2019(3) 0.1237(5) 0.2658(6)
H36_2 H 0.2195 0.0864 0.2631
C43_2 C 0.1758(3) 0.1240(5) 0.3186(6)
H37_2 H 0.1766 0.0874 0.3530
C44_2 C 0.2282(3) 0.1751(5) 0.1545(5)
C45_2 C 0.1212(3) 0.1677(5) 0.6284(6)
C46_2 C 0.1292(4) 0.1030(6) 0.6493(7)
H38_2 H 0.1156 0.0715 0.6064
C47_2 C 0.1568(4) 0.0824(5) 0.7323(6)
H39_2 H 0.1611 0.0378 0.7455
C48_2 C 0.1778(3) 0.1289(5) 0.7944(6)
C49_2 C 0.1686(4) 0.1935(5) 0.7729(6)
H40_2 H 0.1810 0.2251 0.8161
C50_2 C 0.1421(4) 0.2141(5) 0.6913(6)
H41_2 H 0.1382 0.2588 0.6783
C51_2 C 0.2090(4) 0.1084(5) 0.8826(6)
H17_2 H 0.0729 0.1679 0.9946
C22_2 C 0.1106(4) 0.2450(5) 0.9796(7)
H18_2 H 0.1292 0.2214 0.9548
C23_2 C 0.1172(3) 0.3111(5) 0.9918(6)
C26_2 C 0.1553(3) 0.3459(5) 0.9697(6)
O1_3 O 1.0000 0.1757(4) 0.2500
O2_2 O 0.8777(2) 0.1703(3) 0.1255(4)
O5_2 O 0.7518(2) 0.1212(3) 0.3504(4)
C1_2 C 0.9507(3) 0.1854(4) 0.1015(5)
C2_2 C 0.9784(3) 0.1379(5) 0.1737(5)
H2_2 H 0.9567 0.1054 0.1827
C3_2 C 0.9113(3) 0.2203(5) 0.1242(6)
H3_2 H 0.8956 0.2535 0.0810
H4_2 H 0.9247 0.2414 0.1806
C4_2 C 0.9281(3) 0.1481(5) 0.0188(5)
H5_2 H 0.9051 0.1166 0.0254
H6_2 H 0.9526 0.1239 0.0053
C5_2 C 0.9846(3) 0.2403(5) 0.0908(6)
H8_2 H 0.9664 0.2727 0.0484
C6_2 C 0.8514(3) 0.1770(4) 0.1783(5)
C7_2 C 0.8501(3) 0.2326(5) 0.2240(6)
H9_2 H 0.8673 0.2699 0.2198
C8_2 C 0.8226(3) 0.2329(4) 0.2769(5)
H10_2 H 0.8213 0.2705 0.3082
C9_2 C 0.7974(3) 0.1769(4) 0.2826(5)
C10_2 C 0.7981(3) 0.1237(5) 0.2342(6)
H11_2 H 0.7805 0.0864 0.2369
C11_2 C 0.8242(3) 0.1240(5) 0.1814(6)
H12_2 H 0.8234 0.0874 0.1470
C12_2 C 0.7718(3) 0.1751(5) 0.3455(5)
O13_2 O 0.9815(2) 0.2074(4) 0.4384(5)
O18 O 0.7767(3) 0.0506(4) 0.6035(4)
H26_2 H 0.9971 0.1150 0.3415
H32_2 H 0.9990 0.2623 0.3543
C52_2 C 0.9509(3) 0.2443(5) 0.4609(7)
C53_2 C 0.9233(4) 0.2131(5) 0.4964(8)
H42_2 H 0.9271 0.1679 0.5054
C54_2 C 0.8894(4) 0.2450(5) 0.5204(7)
H43_2 H 0.8708 0.2214 0.5452
C55_2 C 0.8828(3) 0.3111(5) 0.5082(6)
C56_2 C 0.9107(4) 0.3438(5) 0.4731(8)
H44_2 H 0.9077 0.3892 0.4658
C57_2 C 0.9446(4) 0.3093(6) 0.4472(7)
H45_2 H 0.9627 0.3319 0.4205
C58_2 C 0.8447(3) 0.3459(5) 0.5303(6)
O3_2 O 0.9048(2) 0.1914(3) 0.9515(4)
C13_2 C 0.8788(3) 0.1677(5) 0.8716(6)
C14_2 C 0.8708(4) 0.1030(6) 0.8507(7)
H13_2 H 0.8844 0.0715 0.8936
C15_2 C 0.8432(4) 0.0824(5) 0.7677(6)
H14_2 H 0.8389 0.0378 0.7545
C16_2 C 0.8222(3) 0.1289(5) 0.7056(6)
C17_2 C 0.8314(4) 0.1935(5) 0.7271(6)
H15_2 H 0.8190 0.2251 0.6839
C18_2 C 0.8579(4) 0.2141(5) 0.8087(6)
H16_2 H 0.8618 0.2588 0.8217
C19_2 C 0.7910(4) 0.1084(5) 0.6174(6)
N1_2 N 0.2665(3) 0.0188(3) 0.5865(5)
N2_3 N 0.2584(3) 0.1253(3) 0.5736(5)
C27_3 C 0.2646(3) 0.0681(4) 0.5363(7)
H21_3 H 0.2671 0.0650 0.4819
C28_3 C 0.2556(4) 0.1083(6) 0.6520(7)
H22_3 H 0.2510 0.1370 0.6922
C29_3 C 0.2608(5) 0.0427(5) 0.6602(8)
H23_3 H 0.2606 0.0178 0.7075
C30_3 C 0.2549(3) 0.1899(4) 0.5372(6)
C31_3 C 0.2805(3) 0.2049(4) 0.4877(7)
H24_3 H 0.3013 0.1737 0.4792
C32_3 C 0.2235(4) 0.2340(4) 0.5507(6)
H25_3 H 0.2055 0.2231 0.5846
Cd9_2 Cd 0.22784(3) 0.58437(3) 0.45077(4)
N3_3 N 0.2335(3) 0.4812(3) 0.4135(5)
N5_3 N 0.2416(3) 0.3747(3) 0.4264(5)
C59_3 C 0.2354(3) 0.4319(4) 0.4637(7)
H46_3 H 0.2329 0.4350 0.5181
C60_3 C 0.2444(4) 0.3917(6) 0.3480(7)
H47_3 H 0.2490 0.3630 0.3078
C61_3 C 0.2392(5) 0.4573(5) 0.3398(8)
H48_3 H 0.2394 0.4822 0.2925
C62_3 C 0.2451(3) 0.3101(4) 0.4628(6)
C63_3 C 0.2195(3) 0.2951(4) 0.5123(7)
H49_3 H 0.1987 0.3263 0.5208
C64_3 C 0.2765(4) 0.2660(4) 0.4493(6)
H50_3 H 0.2945 0.2769 0.4154
O3_3 O 0.0952(2) 0.8086(3) 0.0485(4)
O7_2 O 0.2233(3) 0.9494(4) 0.3965(4)
O8_2 O 0.2194(2) 0.8497(3) 0.4436(4)
C13_3 C 0.1212(3) 0.8323(5) 0.1284(6)
C14_3 C 0.1292(4) 0.8970(6) 0.1493(7)
H13_3 H 0.1156 0.9285 0.1064
C15_3 C 0.1568(4) 0.9176(5) 0.2323(6)
H14_3 H 0.1611 0.9622 0.2455
C16_3 C 0.1778(3) 0.8711(5) 0.2944(6)
C17_3 C 0.1686(4) 0.8065(5) 0.2729(6)
H15_3 H 0.1810 0.7749 0.3161
C18_3 C 0.1421(4) 0.7859(5) 0.1913(6)
H16_3 H 0.1382 0.7412 0.1783
C19_3 C 0.2090(4) 0.8916(5) 0.3826(6)
Cd3_2 Cd 0.2500 0.7500 0.5000
Cd7_2 Cd 0.27216(3) 0.91563(3) 0.54923(4)
O1_4 O 0.0000 0.8243(4) 0.7500
O2_3 O 0.1223(2) 0.8297(3) 0.8745(4)
O5_3 O 0.2482(2) 0.8788(3) 0.6496(4)
O6_2 O 0.2281(2) 0.7739(3) 0.6119(4)
C1_3 C 0.0493(3) 0.8146(4) 0.8985(5)
C2_3 C 0.0216(3) 0.8621(5) 0.8263(5)
H2_3 H 0.0433 0.8946 0.8173
C3_3 C 0.0887(3) 0.7797(5) 0.8758(6)
H3_3 H 0.1044 0.7465 0.9190
H4_3 H 0.0753 0.7586 0.8194
C4_3 C 0.0719(3) 0.8519(5) 0.9812(5)
H5_3 H 0.0949 0.8834 0.9746
H6_3 H 0.0474 0.8761 0.9947
C5_3 C 0.0154(3) 0.7597(5) 0.9092(6)
H8_3 H 0.0336 0.7273 0.9516
C6_3 C 0.1486(3) 0.8230(4) 0.8217(5)
C7_3 C 0.1499(3) 0.7674(5) 0.7760(6)
H9_3 H 0.1327 0.7301 0.7802
C8_3 C 0.1774(3) 0.7671(4) 0.7231(5)
H10_3 H 0.1787 0.7295 0.6918
C9_3 C 0.2026(3) 0.8231(4) 0.7174(5)
C10_3 C 0.2019(3) 0.8763(5) 0.7658(6)
H11_3 H 0.2195 0.9136 0.7631
C11_3 C 0.1758(3) 0.8760(5) 0.8186(6)
H12_3 H 0.1766 0.9126 0.8530
C12_3 C 0.2282(3) 0.8249(5) 0.6545(5)
O13_3 O 0.0185(2) 0.7926(4) 0.5616(5)
O16_3 O 0.2719(2) 0.7261(3) 0.3881(4)
O22_3 O 0.2806(2) 0.6503(3) 0.5564(4)
O24_2 O 0.1811(2) 0.6880(3) 0.4387(4)
O25_2 O 0.3189(2) 0.8120(3) 0.5613(4)
O27_2 O 0.1603(3) 0.5940(4) 0.4823(6)
O28_2 O 0.3397(3) 0.9060(4) 0.5177(6)
H26_3 H 0.0029 0.8850 0.6585
H32_3 H 0.0010 0.7377 0.6457
C52_3 C 0.0491(3) 0.7557(5) 0.5391(7)
C53_3 C 0.0767(4) 0.7869(5) 0.5036(8)
H42_3 H 0.0729 0.8321 0.4946
C54_3 C 0.1106(4) 0.7550(5) 0.4796(7)
H43_3 H 0.1292 0.7786 0.4548
C55_3 C 0.1172(3) 0.6889(5) 0.4918(6)
C56_3 C 0.0893(4) 0.6562(5) 0.5269(8)
H44_3 H 0.0923 0.6108 0.5342
C57_3 C 0.0554(4) 0.6907(6) 0.5528(7)
H45_3 H 0.0373 0.6681 0.5795
C58_3 C 0.1553(3) 0.6541(5) 0.4697(6)
N4_2 N 0.7335(3) 0.0188(3) 0.9135(5)
O9_2 O 0.8189(2) 0.6880(3) 0.0613(4)
O10_2 O 0.8397(3) 0.5940(4) 0.0177(6)
H17_3 H 0.9271 0.8321 0.0054
C22_3 C 0.8894(4) 0.7550(5) 0.0204(7)
H18_3 H 0.8708 0.7786 0.0452
C23_3 C 0.8828(3) 0.6889(5) 0.0082(6)
C26_3 C 0.8447(3) 0.6541(5) 0.0303(6)
Cd4_3 Cd 0.7500 0.7500 0.0000
Cd8_2 Cd 0.77216(3) 0.58437(3) 0.04923(4)
O19_2 O 0.7767(3) 0.9494(4) 0.1035(4)
O23_2 O 0.7806(2) 0.8497(3) 0.0564(4)
O1_5 O 1.0000 0.8243(4) 0.7500
O4_3 O 0.9815(2) 0.7926(4) 0.9384(5)
H1_3 H 0.9971 0.8850 0.8415
H7_3 H 0.9990 0.7377 0.8543
C20_3 C 0.9509(3) 0.7557(5) 0.9609(7)
C21_3 C 0.9233(4) 0.7869(5) 0.9964(8)
C24_3 C 0.9107(4) 0.6562(5) 0.9731(8)
H19_3 H 0.9077 0.6108 0.9658
C25_3 C 0.9446(4) 0.6907(6) 0.9472(7)
H20_3 H 0.9627 0.6681 0.9205
Cd4_4 Cd 0.7500 0.7500 1.0000
Cd6_2 Cd 0.72784(3) 0.91563(3) 0.95077(4)
O11_3 O 0.8777(2) 0.8297(3) 0.6255(4)
O12_3 O 0.9048(2) 0.8086(3) 0.4515(4)
O14_3 O 0.7518(2) 0.8788(3) 0.8504(4)
O15_2 O 0.7719(2) 0.7739(3) 0.8881(4)
O26_2 O 0.6811(2) 0.8120(3) 0.9387(4)
O29_2 O 0.6603(3) 0.9060(4) 0.9823(6)
C33_3 C 0.9507(3) 0.8146(4) 0.6015(5)
C34_3 C 0.9784(3) 0.8621(5) 0.6737(5)
H27_3 H 0.9567 0.8946 0.6827
C35_3 C 0.9113(3) 0.7797(5) 0.6242(6)
H28_3 H 0.8956 0.7465 0.5810
H29_3 H 0.9247 0.7586 0.6806
C36_3 C 0.9281(3) 0.8519(5) 0.5188(5)
H30_3 H 0.9051 0.8834 0.5254
H31_3 H 0.9526 0.8761 0.5053
C37_3 C 0.9846(3) 0.7597(5) 0.5908(6)
H33_3 H 0.9664 0.7273 0.5484
C38_3 C 0.8514(3) 0.8230(4) 0.6783(5)
C39_3 C 0.8501(3) 0.7674(5) 0.7240(6)
H34_3 H 0.8673 0.7301 0.7198
C40_3 C 0.8226(3) 0.7671(4) 0.7769(5)
H35_3 H 0.8213 0.7295 0.8082
C41_3 C 0.7974(3) 0.8231(4) 0.7826(5)
C42_3 C 0.7981(3) 0.8763(5) 0.7342(6)
H36_3 H 0.7805 0.9136 0.7369
C43_3 C 0.8242(3) 0.8760(5) 0.6814(6)
H37_3 H 0.8234 0.9126 0.6470
C44_3 C 0.7718(3) 0.8249(5) 0.8455(5)
C45_3 C 0.8788(3) 0.8323(5) 0.3716(6)
C46_3 C 0.8708(4) 0.8970(6) 0.3507(7)
H38_3 H 0.8844 0.9285 0.3936
C47_3 C 0.8432(4) 0.9176(5) 0.2677(6)
H39_3 H 0.8389 0.9622 0.2545
C48_3 C 0.8222(3) 0.8711(5) 0.2056(6)
C49_3 C 0.8314(4) 0.8065(5) 0.2271(6)
H40_3 H 0.8190 0.7749 0.1839
C50_3 C 0.8579(4) 0.7859(5) 0.3087(6)
H41_3 H 0.8618 0.7412 0.3217
C51_3 C 0.7910(4) 0.8916(5) 0.1174(6)
H21_4 H 0.7329 0.0650 0.0181
C31_4 C 0.7195(3) 0.2049(4) 0.0123(7)
H24_4 H 0.6987 0.1737 0.0208
N3_4 N 0.7665(3) 0.4812(3) 0.0865(5)
N5_4 N 0.7584(3) 0.3747(3) 0.0736(5)
C59_4 C 0.7646(3) 0.4319(4) 0.0363(7)
C60_4 C 0.7556(4) 0.3917(6) 0.1520(7)
H47_4 H 0.7510 0.3630 0.1922
C61_4 C 0.7608(5) 0.4573(5) 0.1602(8)
H48_4 H 0.7606 0.4822 0.2075
C62_4 C 0.7549(3) 0.3101(4) 0.0372(6)
C64_4 C 0.7235(4) 0.2660(4) 0.0507(6)
H50_4 H 0.7055 0.2769 0.0846
N2_4 N 0.7416(3) 0.1253(3) 0.9264(5)
C27_4 C 0.7354(3) 0.0681(4) 0.9637(7)
C28_4 C 0.7444(4) 0.1083(6) 0.8480(7)
H22_4 H 0.7490 0.1370 0.8078
C29_4 C 0.7392(5) 0.0427(5) 0.8398(8)
H23_4 H 0.7394 0.0178 0.7925
C30_4 C 0.7451(3) 0.1899(4) 0.9628(6)
C32_4 C 0.7765(4) 0.2340(4) 0.9493(6)
H25_4 H 0.7945 0.2231 0.9154
H46_4 H 0.7671 0.4350 0.9819
C63_4 C 0.7805(3) 0.2951(4) 0.9877(7)
H49_4 H 0.8013 0.3263 0.9792
O16_4 O 0.7281(2) 0.7261(3) 0.1119(4)
O22_4 O 0.7194(2) 0.6503(3) 0.9436(4)
O1_6 O 0.5000 0.6757(4) 0.2500
O2_4 O 0.3777(2) 0.6703(3) 0.1255(4)
O4_4 O 0.5185(2) 0.7074(4) 0.0616(5)
O5_4 O 0.2518(2) 0.6212(3) 0.3504(4)
C1_4 C 0.4507(3) 0.6854(4) 0.1015(5)
C2_4 C 0.4784(3) 0.6379(5) 0.1737(5)
H1_4 H 0.5029 0.6150 0.1585
H2_4 H 0.4567 0.6054 0.1827
C3_4 C 0.4113(3) 0.7203(5) 0.1242(6)
H3_4 H 0.3956 0.7535 0.0810
H4_4 H 0.4247 0.7414 0.1806
C4_4 C 0.4281(3) 0.6481(5) 0.0188(5)
H5_4 H 0.4051 0.6166 0.0254
H6_4 H 0.4526 0.6239 0.0053
C5_4 C 0.4846(3) 0.7403(5) 0.0908(6)
H7_4 H 0.5010 0.7623 0.1457
H8_4 H 0.4664 0.7727 0.0484
C6_4 C 0.3514(3) 0.6770(4) 0.1783(5)
C7_4 C 0.3501(3) 0.7326(5) 0.2240(6)
H9_4 H 0.3673 0.7699 0.2198
C8_4 C 0.3226(3) 0.7329(4) 0.2769(5)
H10_4 H 0.3213 0.7705 0.3082
C9_4 C 0.2974(3) 0.6769(4) 0.2826(5)
C10_4 C 0.2981(3) 0.6237(5) 0.2342(6)
H11_4 H 0.2805 0.5864 0.2369
C11_4 C 0.3242(3) 0.6240(5) 0.1814(6)
H12_4 H 0.3234 0.5874 0.1470
C12_4 C 0.2718(3) 0.6751(5) 0.3455(5)
C20_4 C 0.5491(3) 0.7443(5) 0.0391(7)
C21_4 C 0.5767(4) 0.7131(5) 0.0036(8)
C24_4 C 0.5893(4) 0.8438(5) 0.0269(8)
H19_4 H 0.5923 0.8892 0.0342
C25_4 C 0.5554(4) 0.8093(6) 0.0528(7)
H20_4 H 0.5373 0.8319 0.0795
O11_4 O 0.6223(2) 0.6703(3) 0.3745(4)
O12_4 O 0.5952(2) 0.6914(3) 0.5485(4)
O13_4 O 0.4815(2) 0.7074(4) 0.4384(5)
O14_4 O 0.7482(2) 0.6212(3) 0.1496(4)
O17_2 O 0.7233(3) 0.5506(4) 0.8965(4)
O18_2 O 0.2767(3) 0.5506(4) 0.6035(4)
C33_4 C 0.5493(3) 0.6854(4) 0.3985(5)
C34_4 C 0.5216(3) 0.6379(5) 0.3263(5)
H26_4 H 0.4971 0.6150 0.3415
H27_4 H 0.5433 0.6054 0.3173
C35_4 C 0.5887(3) 0.7203(5) 0.3758(6)
H28_4 H 0.6044 0.7535 0.4190
H29_4 H 0.5753 0.7414 0.3194
C36_4 C 0.5719(3) 0.6481(5) 0.4812(5)
H30_4 H 0.5949 0.6166 0.4746
H31_4 H 0.5474 0.6239 0.4947
C37_4 C 0.5154(3) 0.7403(5) 0.4092(6)
H32_4 H 0.4990 0.7623 0.3543
H33_4 H 0.5336 0.7727 0.4516
C38_4 C 0.6486(3) 0.6770(4) 0.3217(5)
C39_4 C 0.6499(3) 0.7326(5) 0.2760(6)
H34_4 H 0.6327 0.7699 0.2802
C40_4 C 0.6774(3) 0.7329(4) 0.2231(5)
H35_4 H 0.6787 0.7705 0.1918
C41_4 C 0.7026(3) 0.6769(4) 0.2174(5)
C42_4 C 0.7019(3) 0.6237(5) 0.2658(6)
H36_4 H 0.7195 0.5864 0.2631
C43_4 C 0.6758(3) 0.6240(5) 0.3186(6)
H37_4 H 0.6766 0.5874 0.3530
C44_4 C 0.7282(3) 0.6751(5) 0.1545(5)
C45_4 C 0.6212(3) 0.6677(5) 0.6284(6)
C46_4 C 0.6292(4) 0.6030(6) 0.6493(7)
H38_4 H 0.6156 0.5715 0.6064
C47_4 C 0.6568(4) 0.5824(5) 0.7323(6)
H39_4 H 0.6611 0.5378 0.7455
C48_4 C 0.6778(3) 0.6289(5) 0.7944(6)
C49_4 C 0.6686(4) 0.6935(5) 0.7729(6)
H40_4 H 0.6810 0.7251 0.8161
C50_4 C 0.6421(4) 0.7141(5) 0.6913(6)
H41_4 H 0.6382 0.7588 0.6783
C51_4 C 0.7090(4) 0.6084(5) 0.8826(6)
C52_4 C 0.4509(3) 0.7443(5) 0.4609(7)
C53_4 C 0.4233(4) 0.7131(5) 0.4964(8)
H42_4 H 0.4271 0.6679 0.5054
C54_4 C 0.3894(4) 0.7450(5) 0.5204(7)
H43_4 H 0.3708 0.7214 0.5452
C55_4 C 0.3828(3) 0.8111(5) 0.5082(6)
C56_4 C 0.4107(4) 0.8438(5) 0.4731(8)
H44_4 H 0.4077 0.8892 0.4658
C57_4 C 0.4446(4) 0.8093(6) 0.4472(7)
H45_4 H 0.4627 0.8319 0.4205
C58_4 C 0.3447(3) 0.8459(5) 0.5303(6)
O3_4 O 0.4048(2) 0.6914(3) 0.9515(4)
C13_4 C 0.3788(3) 0.6677(5) 0.8716(6)
C14_4 C 0.3708(4) 0.6030(6) 0.8507(7)
H13_4 H 0.3844 0.5715 0.8936
C15_4 C 0.3432(4) 0.5824(5) 0.7677(6)
H14_4 H 0.3389 0.5378 0.7545
C16_4 C 0.3222(3) 0.6289(5) 0.7056(6)
C17_4 C 0.3314(4) 0.6935(5) 0.7271(6)
H15_4 H 0.3190 0.7251 0.6839
C18_4 C 0.3579(4) 0.7141(5) 0.8087(6)
H16_4 H 0.3618 0.7588 0.8217
C19_4 C 0.2910(4) 0.6084(5) 0.6174(6)
H17_4 H 0.5729 0.6679 0.9946
C22_4 C 0.6106(4) 0.7450(5) 0.9796(7)
H18_4 H 0.6292 0.7214 0.9548
C23_4 C 0.6172(3) 0.8111(5) 0.9918(6)
C26_4 C 0.6553(3) 0.8459(5) 0.9697(6)
loop_
_geom_bond_atom_site_label_1
_geom_bond_atom_site_label_2
_geom_bond_site_symmetry_1
_geom_bond_site_symmetry_2
O7 C19 1_555 1_555
O8 C19 1_555 1_555
O9 C26 1_555 1_555
O10 C26 1_555 1_555
C13 O3 1_555 1_555
C14 C13 1_555 1_555
H13 C14 1_555 1_555
C15 C14 1_555 1_555
H14 C15 1_555 1_555
C16 C15 1_555 1_555
C17 C16 1_555 1_555
H15 C17 1_555 1_555
C18 C13 1_555 1_555
H16 C18 1_555 1_555
C19 C16 1_555 1_555
H18 C22 1_555 1_555
C23 C22 1_555 1_555
C26 C23 1_555 1_555
Cd3 O8 1_555 1_555
Cd4 O9 1_555 1_555
Cd7 O7 1_555 1_555
Cd8 O9 1_555 1_555
O23 Cd4 1_555 1_555
O8 Cd7 1_555 1_555
O10 Cd8 1_555 1_555
C17 C18 1_555 1_555
Cd3 O6 1_555 1_555
Cd7 N1 1_555 1_555
N1 C27 1_555 1_555
N2 C27 1_555 1_555
O1 C2 1_555 1_555
O2 C3 1_555 1_555
O4 C5 1_555 1_555
O5 Cd7 1_555 1_555
O6 C12 1_555 1_555
C1 C2 1_555 1_555
C2 H1 1_555 1_555
H2 C2 1_555 1_555
C3 C1 1_555 1_555
H3 C3 1_555 1_555
H4 C3 1_555 1_555
C4 C1 1_555 1_555
H5 C4 1_555 1_555
H6 C4 1_555 1_555
C5 C1 1_555 1_555
H7 C5 1_555 1_555
H8 C5 1_555 1_555
C6 O2 1_555 1_555
C7 C6 1_555 1_555
H9 C7 1_555 1_555
C8 C7 1_555 1_555
H10 C8 1_555 1_555
C9 C8 1_555 1_555
C10 C9 1_555 1_555
H11 C10 1_555 1_555
C11 C6 1_555 1_555
H12 C11 1_555 1_555
C12 O5 1_555 1_555
C20 O4 1_555 1_555
C21 C20 1_555 1_555
H19 C24 1_555 1_555
C25 C20 1_555 1_555
H20 C25 1_555 1_555
C27 H21 1_555 1_555
C28 N2 1_555 1_555
H22 C28 1_555 1_555
C29 N1 1_555 1_555
H23 C29 1_555 1_555
C30 N2 1_555 1_555
C31 C30 1_555 1_555
H24 C31 1_555 1_555
C32 C30 1_555 1_555
H25 C32 1_555 1_555
Cd6 N4 1_555 1_555
Cd9 O22 1_555 1_555
N3 C59 1_555 1_555
N5 C59 1_555 1_555
O11 C35 1_555 1_555
O12 C36 1_555 1_555
O13 C37 1_555 1_555
O14 Cd6 1_555 1_555
O15 Cd4_2 1_555 1_555
O16 Cd3 1_555 1_555
O19 C51 1_555 1_555
O22 Cd3 1_555 1_555
O24 Cd3 1_555 1_555
O25 Cd3 1_555 1_555
O26 Cd4_2 1_555 1_555
O27 Cd9 1_555 1_555
O28 Cd7 1_555 1_555
O29 Cd6 1_555 1_555
C33 C34 1_555 1_555
C34 O1 1_555 1_555
H26 C34 1_555 1_555
H27 C34 1_555 1_555
C35 C33 1_555 1_555
H28 C35 1_555 1_555
H29 C35 1_555 1_555
C36 C33 1_555 1_555
H30 C36 1_555 1_555
H31 C36 1_555 1_555
C37 C33 1_555 1_555
H32 C37 1_555 1_555
H33 C37 1_555 1_555
C38 O11 1_555 1_555
C39 C38 1_555 1_555
H34 C39 1_555 1_555
C40 C39 1_555 1_555
H35 C40 1_555 1_555
C41 C40 1_555 1_555
C42 C41 1_555 1_555
H36 C42 1_555 1_555
C43 C38 1_555 1_555
H37 C43 1_555 1_555
C44 O14 1_555 1_555
C45 O12 1_555 1_555
C46 C45 1_555 1_555
H38 C46 1_555 1_555
C47 C46 1_555 1_555
H39 C47 1_555 1_555
C48 C47 1_555 1_555
C49 C48 1_555 1_555
H40 C49 1_555 1_555
C50 C45 1_555 1_555
H41 C50 1_555 1_555
C51 O23 1_555 1_555
C52 O13 1_555 1_555
C53 C52 1_555 1_555
H42 C53 1_555 1_555
C54 C53 1_555 1_555
H43 C54 1_555 1_555
C55 C54 1_555 1_555
C56 C55 1_555 1_555
H44 C56 1_555 1_555
C57 C52 1_555 1_555
H45 C57 1_555 1_555
C58 O24 1_555 1_555
C59 H46 1_555 1_555
C60 N5 1_555 1_555
H47 C60 1_555 1_555
C61 N3 1_555 1_555
H48 C61 1_555 1_555
C62 N5 1_555 1_555
C63 C32 1_555 1_555
H49 C63 1_555 1_555
C64 C31 1_555 1_555
H50 C64 1_555 1_555
Cd7 O25 1_555 1_555
C9 C12 1_555 1_555
C10 C11 1_555 1_555
C24 C25 1_555 1_555
C28 C29 1_555 1_555
Cd6 O26 1_555 1_555
Cd9 O24 1_555 1_555
O15 C44 1_555 1_555
O27 C58 1_555 1_555
C41 C44 1_555 1_555
C42 C43 1_555 1_555
C48 C51 1_555 1_555
C49 C50 1_555 1_555
C55 C58 1_555 1_555
C56 C57 1_555 1_555
C60 C61 1_555 1_555
C62 C63 1_555 1_555
C62 C64 1_555 1_555
H24_2 C31_2 1_555 1_555
N3_2 C59_2 1_555 1_555
N5_2 C59_2 1_555 1_555
O16_2 Cd4 1_555 1_555
C60_2 N5_2 1_555 1_555
H47_2 C60_2 1_555 1_555
C61_2 N3_2 1_555 1_555
H48_2 C61_2 1_555 1_555
C62_2 N5_2 1_555 1_555
C64_2 C31_2 1_555 1_555
H50_2 C64_2 1_555 1_555
C60_2 C61_2 1_555 1_555
C62_2 C64_2 1_555 1_555
N4 C27_2 1_555 1_555
N2_2 C27_2 1_555 1_555
C28_2 N2_2 1_555 1_555
H22_2 C28_2 1_555 1_555
C29_2 N4 1_555 1_555
H23_2 C29_2 1_555 1_555
C30_2 N2_2 1_555 1_555
C32_2 C30_2 1_555 1_555
H25_2 C32_2 1_555 1_555
O22_2 Cd4_2 1_555 1_555
C63_2 C32_2 1_555 1_555
H49_2 C63_2 1_555 1_555
C28_2 C29_2 1_555 1_555
C20_2 O4_2 1_555 1_555
C21_2 C20_2 1_555 1_555
H19_2 C24_2 1_555 1_555
C25_2 C20_2 1_555 1_555
H20_2 C25_2 1_555 1_555
O11_2 C35_2 1_555 1_555
O12_2 C36_2 1_555 1_555
O14_2 Cd8 1_555 1_555
O17 C51_2 1_555 1_555
C33_2 C34_2 1_555 1_555
C34_2 O1_2 1_555 1_555
H27_2 C34_2 1_555 1_555
C35_2 C33_2 1_555 1_555
H28_2 C35_2 1_555 1_555
H29_2 C35_2 1_555 1_555
C36_2 C33_2 1_555 1_555
H30_2 C36_2 1_555 1_555
H31_2 C36_2 1_555 1_555
C37_2 C33_2 1_555 1_555
H33_2 C37_2 1_555 1_555
C38_2 O11_2 1_555 1_555
C39_2 C38_2 1_555 1_555
H34_2 C39_2 1_555 1_555
C40_2 C39_2 1_555 1_555
H35_2 C40_2 1_555 1_555
C41_2 C40_2 1_555 1_555
C42_2 C41_2 1_555 1_555
H36_2 C42_2 1_555 1_555
C43_2 C38_2 1_555 1_555
H37_2 C43_2 1_555 1_555
C44_2 O14_2 1_555 1_555
C45_2 O12_2 1_555 1_555
C46_2 C45_2 1_555 1_555
H38_2 C46_2 1_555 1_555
C47_2 C46_2 1_555 1_555
H39_2 C47_2 1_555 1_555
C48_2 C47_2 1_555 1_555
C49_2 C48_2 1_555 1_555
H40_2 C49_2 1_555 1_555
C50_2 C45_2 1_555 1_555
H41_2 C50_2 1_555 1_555
C51_2 O22_2 1_555 1_555
C24_2 C25_2 1_555 1_555
O16_2 C44_2 1_555 1_555
C41_2 C44_2 1_555 1_555
C42_2 C43_2 1_555 1_555
C48_2 C51_2 1_555 1_555
C49_2 C50_2 1_555 1_555
O26 C26_2 1_555 1_555
O29 C26_2 1_555 1_555
H18_2 C22_2 1_555 1_555
C23_2 C22_2 1_555 1_555
C26_2 C23_2 1_555 1_555
O1_3 C2_2 1_555 1_555
O2_2 C3_2 1_555 1_555
O5_2 Cd9 1_555 1_555
O16 C12_2 1_555 1_555
C1_2 C2_2 1_555 1_555
H2_2 C2_2 1_555 1_555
C3_2 C1_2 1_555 1_555
H3_2 C3_2 1_555 1_555
H4_2 C3_2 1_555 1_555
C4_2 C1_2 1_555 1_555
H5_2 C4_2 1_555 1_555
H6_2 C4_2 1_555 1_555
C5_2 C1_2 1_555 1_555
H8_2 C5_2 1_555 1_555
C6_2 O2_2 1_555 1_555
C7_2 C6_2 1_555 1_555
H9_2 C7_2 1_555 1_555
C8_2 C7_2 1_555 1_555
H10_2 C8_2 1_555 1_555
C9_2 C8_2 1_555 1_555
C10_2 C9_2 1_555 1_555
H11_2 C10_2 1_555 1_555
C11_2 C6_2 1_555 1_555
H12_2 C11_2 1_555 1_555
C12_2 O5_2 1_555 1_555
O18 Cd9 1_555 1_555
C52_2 O13_2 1_555 1_555
C53_2 C52_2 1_555 1_555
H42_2 C53_2 1_555 1_555
C54_2 C53_2 1_555 1_555
H43_2 C54_2 1_555 1_555
C55_2 C54_2 1_555 1_555
C56_2 C55_2 1_555 1_555
H44_2 C56_2 1_555 1_555
C57_2 C52_2 1_555 1_555
H45_2 C57_2 1_555 1_555
C58_2 O25 1_555 1_555
C9_2 C12_2 1_555 1_555
C10_2 C11_2 1_555 1_555
O28 C58_2 1_555 1_555
C55_2 C58_2 1_555 1_555
C56_2 C57_2 1_555 1_555
O18 C19_2 1_555 1_555
O22 C19_2 1_555 1_555
C13_2 O3_2 1_555 1_555
C14_2 C13_2 1_555 1_555
H13_2 C14_2 1_555 1_555
C15_2 C14_2 1_555 1_555
H14_2 C15_2 1_555 1_555
C16_2 C15_2 1_555 1_555
C17_2 C16_2 1_555 1_555
H15_2 C17_2 1_555 1_555
C18_2 C13_2 1_555 1_555
H16_2 C18_2 1_555 1_555
C19_2 C16_2 1_555 1_555
C17_2 C18_2 1_555 1_555
N1_2 C27_3 1_555 1_555
N2_3 C27_3 1_555 1_555
C27_3 H21_3 1_555 1_555
C28_3 N2_3 1_555 1_555
H22_3 C28_3 1_555 1_555
C29_3 N1_2 1_555 1_555
H23_3 C29_3 1_555 1_555
C30_3 N2_3 1_555 1_555
C31_3 C30_3 1_555 1_555
H24_3 C31_3 1_555 1_555
C32_3 C30_3 1_555 1_555
H25_3 C32_3 1_555 1_555
Cd9_2 N3_3 1_555 1_555
N3_3 C59_3 1_555 1_555
N5_3 C59_3 1_555 1_555
C59_3 H46_3 1_555 1_555
C60_3 N5_3 1_555 1_555
H47_3 C60_3 1_555 1_555
C61_3 N3_3 1_555 1_555
H48_3 C61_3 1_555 1_555
C62_3 N5_3 1_555 1_555
C63_3 C32_3 1_555 1_555
H49_3 C63_3 1_555 1_555
C64_3 C31_3 1_555 1_555
H50_3 C64_3 1_555 1_555
C28_3 C29_3 1_555 1_555
C60_3 C61_3 1_555 1_555
C62_3 C63_3 1_555 1_555
C62_3 C64_3 1_555 1_555
O7_2 C19_3 1_555 1_555
O8_2 C19_3 1_555 1_555
C13_3 O3_3 1_555 1_555
C14_3 C13_3 1_555 1_555
H13_3 C14_3 1_555 1_555
C15_3 C14_3 1_555 1_555
H14_3 C15_3 1_555 1_555
C16_3 C15_3 1_555 1_555
C17_3 C16_3 1_555 1_555
H15_3 C17_3 1_555 1_555
C18_3 C13_3 1_555 1_555
H16_3 C18_3 1_555 1_555
C19_3 C16_3 1_555 1_555
Cd3_2 O8_2 1_555 1_555
Cd7_2 O7_2 1_555 1_555
O8_2 Cd7_2 1_555 1_555
C17_3 C18_3 1_555 1_555
Cd3_2 O6_2 1_555 1_555
O1_4 C2_3 1_555 1_555
O2_3 C3_3 1_555 1_555
O5_3 Cd7_2 1_555 1_555
O6_2 C12_3 1_555 1_555
C1_3 C2_3 1_555 1_555
H2_3 C2_3 1_555 1_555
C3_3 C1_3 1_555 1_555
H3_3 C3_3 1_555 1_555
H4_3 C3_3 1_555 1_555
C4_3 C1_3 1_555 1_555
H5_3 C4_3 1_555 1_555
H6_3 C4_3 1_555 1_555
C5_3 C1_3 1_555 1_555
H8_3 C5_3 1_555 1_555
C6_3 O2_3 1_555 1_555
C7_3 C6_3 1_555 1_555
H9_3 C7_3 1_555 1_555
C8_3 C7_3 1_555 1_555
H10_3 C8_3 1_555 1_555
C9_3 C8_3 1_555 1_555
C10_3 C9_3 1_555 1_555
H11_3 C10_3 1_555 1_555
C11_3 C6_3 1_555 1_555
H12_3 C11_3 1_555 1_555
C12_3 O5_3 1_555 1_555
Cd9_2 O22_3 1_555 1_555
O16_3 Cd3_2 1_555 1_555
O22_3 Cd3_2 1_555 1_555
O24_2 Cd3_2 1_555 1_555
O25_2 Cd3_2 1_555 1_555
O27_2 Cd9_2 1_555 1_555
O28_2 Cd7_2 1_555 1_555
C52_3 O13_3 1_555 1_555
C53_3 C52_3 1_555 1_555
H42_3 C53_3 1_555 1_555
C54_3 C53_3 1_555 1_555
H43_3 C54_3 1_555 1_555
C55_3 C54_3 1_555 1_555
C56_3 C55_3 1_555 1_555
H44_3 C56_3 1_555 1_555
C57_3 C52_3 1_555 1_555
H45_3 C57_3 1_555 1_555
C58_3 O24_2 1_555 1_555
Cd7_2 O25_2 1_555 1_555
C9_3 C12_3 1_555 1_555
C10_3 C11_3 1_555 1_555
Cd9_2 O24_2 1_555 1_555
O27_2 C58_3 1_555 1_555
C55_3 C58_3 1_555 1_555
C56_3 C57_3 1_555 1_555
O9_2 C26_3 1_555 1_555
O10_2 C26_3 1_555 1_555
H18_3 C22_3 1_555 1_555
C23_3 C22_3 1_555 1_555
C26_3 C23_3 1_555 1_555
Cd4_3 O9_2 1_555 1_555
Cd8_2 O9_2 1_555 1_555
O23_2 Cd4_3 1_555 1_555
O10_2 Cd8_2 1_555 1_555
C20_3 O4_3 1_555 1_555
C21_3 C20_3 1_555 1_555
H19_3 C24_3 1_555 1_555
C25_3 C20_3 1_555 1_555
H20_3 C25_3 1_555 1_555
O11_3 C35_3 1_555 1_555
O12_3 C36_3 1_555 1_555
O14_3 Cd6_2 1_555 1_555
O15_2 Cd4_4 1_555 1_555
O19_2 C51_3 1_555 1_555
O26_2 Cd4_4 1_555 1_555
O29_2 Cd6_2 1_555 1_555
C33_3 C34_3 1_555 1_555
C34_3 O1_5 1_555 1_555
H27_3 C34_3 1_555 1_555
C35_3 C33_3 1_555 1_555
H28_3 C35_3 1_555 1_555
H29_3 C35_3 1_555 1_555
C36_3 C33_3 1_555 1_555
H30_3 C36_3 1_555 1_555
H31_3 C36_3 1_555 1_555
C37_3 C33_3 1_555 1_555
H33_3 C37_3 1_555 1_555
C38_3 O11_3 1_555 1_555
C39_3 C38_3 1_555 1_555
H34_3 C39_3 1_555 1_555
C40_3 C39_3 1_555 1_555
H35_3 C40_3 1_555 1_555
C41_3 C40_3 1_555 1_555
C42_3 C41_3 1_555 1_555
H36_3 C42_3 1_555 1_555
C43_3 C38_3 1_555 1_555
H37_3 C43_3 1_555 1_555
C44_3 O14_3 1_555 1_555
C45_3 O12_3 1_555 1_555
C46_3 C45_3 1_555 1_555
H38_3 C46_3 1_555 1_555
C47_3 C46_3 1_555 1_555
H39_3 C47_3 1_555 1_555
C48_3 C47_3 1_555 1_555
C49_3 C48_3 1_555 1_555
H40_3 C49_3 1_555 1_555
C50_3 C45_3 1_555 1_555
H41_3 C50_3 1_555 1_555
C51_3 O23_2 1_555 1_555
C24_3 C25_3 1_555 1_555
Cd6_2 O26_2 1_555 1_555
O15_2 C44_3 1_555 1_555
C41_3 C44_3 1_555 1_555
C42_3 C43_3 1_555 1_555
C48_3 C51_3 1_555 1_555
C49_3 C50_3 1_555 1_555
H24_4 C31_4 1_555 1_555
Cd8_2 N3_4 1_555 1_555
N3_4 C59_4 1_555 1_555
N5_4 C59_4 1_555 1_555
C60_4 N5_4 1_555 1_555
H47_4 C60_4 1_555 1_555
C61_4 N3_4 1_555 1_555
H48_4 C61_4 1_555 1_555
C62_4 N5_4 1_555 1_555
C64_4 C31_4 1_555 1_555
H50_4 C64_4 1_555 1_555
C60_4 C61_4 1_555 1_555
C62_4 C64_4 1_555 1_555
N4_2 C27_4 1_555 1_555
N2_4 C27_4 1_555 1_555
C28_4 N2_4 1_555 1_555
H22_4 C28_4 1_555 1_555
C29_4 N4_2 1_555 1_555
H23_4 C29_4 1_555 1_555
C30_4 N2_4 1_555 1_555
C32_4 C30_4 1_555 1_555
H25_4 C32_4 1_555 1_555
C63_4 C32_4 1_555 1_555
H49_4 C63_4 1_555 1_555
C28_4 C29_4 1_555 1_555
O16_4 Cd4_3 1_555 1_555
O22_4 Cd4_4 1_555 1_555
O1_6 C2_4 1_555 1_555
O2_4 C3_4 1_555 1_555
O4_4 C5_4 1_555 1_555
O5_4 Cd9_2 1_555 1_555
O16_3 C12_4 1_555 1_555
C1_4 C2_4 1_555 1_555
C2_4 H1_4 1_555 1_555
H2_4 C2_4 1_555 1_555
C3_4 C1_4 1_555 1_555
H3_4 C3_4 1_555 1_555
H4_4 C3_4 1_555 1_555
C4_4 C1_4 1_555 1_555
H5_4 C4_4 1_555 1_555
H6_4 C4_4 1_555 1_555
C5_4 C1_4 1_555 1_555
H7_4 C5_4 1_555 1_555
H8_4 C5_4 1_555 1_555
C6_4 O2_4 1_555 1_555
C7_4 C6_4 1_555 1_555
H9_4 C7_4 1_555 1_555
C8_4 C7_4 1_555 1_555
H10_4 C8_4 1_555 1_555
C9_4 C8_4 1_555 1_555
C10_4 C9_4 1_555 1_555
H11_4 C10_4 1_555 1_555
C11_4 C6_4 1_555 1_555
H12_4 C11_4 1_555 1_555
C12_4 O5_4 1_555 1_555
C20_4 O4_4 1_555 1_555
C21_4 C20_4 1_555 1_555
H19_4 C24_4 1_555 1_555
C25_4 C20_4 1_555 1_555
H20_4 C25_4 1_555 1_555
O11_4 C35_4 1_555 1_555
O12_4 C36_4 1_555 1_555
O13_4 C37_4 1_555 1_555
O14_4 Cd8_2 1_555 1_555
O17_2 C51_4 1_555 1_555
O18_2 Cd9_2 1_555 1_555
C33_4 C34_4 1_555 1_555
C34_4 O1_6 1_555 1_555
H26_4 C34_4 1_555 1_555
H27_4 C34_4 1_555 1_555
C35_4 C33_4 1_555 1_555
H28_4 C35_4 1_555 1_555
H29_4 C35_4 1_555 1_555
C36_4 C33_4 1_555 1_555
H30_4 C36_4 1_555 1_555
H31_4 C36_4 1_555 1_555
C37_4 C33_4 1_555 1_555
H32_4 C37_4 1_555 1_555
H33_4 C37_4 1_555 1_555
C38_4 O11_4 1_555 1_555
C39_4 C38_4 1_555 1_555
H34_4 C39_4 1_555 1_555
C40_4 C39_4 1_555 1_555
H35_4 C40_4 1_555 1_555
C41_4 C40_4 1_555 1_555
C42_4 C41_4 1_555 1_555
H36_4 C42_4 1_555 1_555
C43_4 C38_4 1_555 1_555
H37_4 C43_4 1_555 1_555
C44_4 O14_4 1_555 1_555
C45_4 O12_4 1_555 1_555
C46_4 C45_4 1_555 1_555
H38_4 C46_4 1_555 1_555
C47_4 C46_4 1_555 1_555
H39_4 C47_4 1_555 1_555
C48_4 C47_4 1_555 1_555
C49_4 C48_4 1_555 1_555
H40_4 C49_4 1_555 1_555
C50_4 C45_4 1_555 1_555
H41_4 C50_4 1_555 1_555
C51_4 O22_4 1_555 1_555
C52_4 O13_4 1_555 1_555
C53_4 C52_4 1_555 1_555
H42_4 C53_4 1_555 1_555
C54_4 C53_4 1_555 1_555
H43_4 C54_4 1_555 1_555
C55_4 C54_4 1_555 1_555
C56_4 C55_4 1_555 1_555
H44_4 C56_4 1_555 1_555
C57_4 C52_4 1_555 1_555
H45_4 C57_4 1_555 1_555
C58_4 O25_2 1_555 1_555
C9_4 C12_4 1_555 1_555
C10_4 C11_4 1_555 1_555
C24_4 C25_4 1_555 1_555
O16_4 C44_4 1_555 1_555
O28_2 C58_4 1_555 1_555
C41_4 C44_4 1_555 1_555
C42_4 C43_4 1_555 1_555
C48_4 C51_4 1_555 1_555
C49_4 C50_4 1_555 1_555
C55_4 C58_4 1_555 1_555
C56_4 C57_4 1_555 1_555
O18_2 C19_4 1_555 1_555
O22_3 C19_4 1_555 1_555
O26_2 C26_4 1_555 1_555
O29_2 C26_4 1_555 1_555
C13_4 O3_4 1_555 1_555
C14_4 C13_4 1_555 1_555
H13_4 C14_4 1_555 1_555
C15_4 C14_4 1_555 1_555
H14_4 C15_4 1_555 1_555
C16_4 C15_4 1_555 1_555
C17_4 C16_4 1_555 1_555
H15_4 C17_4 1_555 1_555
C18_4 C13_4 1_555 1_555
H16_4 C18_4 1_555 1_555
C19_4 C16_4 1_555 1_555
H18_4 C22_4 1_555 1_555
C23_4 C22_4 1_555 1_555
C26_4 C23_4 1_555 1_555
C17_4 C18_4 1_555 1_555

#END
