
###############################################################################
#
# This file contains modified crystal structure data generated from the
# MOF subset of the Cambridge Structural Database (CSD) v543 
# hosted by the Cambridge Crystallographic Data Centre (CCDC).
#
# This work is licensed under the Creative Commons
# Attribution-NonCommercial-ShareAlike 4.0 International License.
# To view a copy of this license, visit
# http://creativecommons.org/licenses/by-nc-sa/4.0/
# or send a letter to
# Creative Commons, PO Box 1866, Mountain View, CA 94042, USA.
#
# CIF created using the CSD Python API on 29 September 2022
# The structure has been converted into the P1 space group
# The structure has a 3D framework
# The original CSD entry ACOLIP is in the monoclinic crystal system
# The framework has been calculated to contain at least 10.0% void space
# The void calculation uses a probe of radius 1.32A, grid spacing 0.4
#
###############################################################################

data_ACOLIP
_chemical_formula_moiety         '(C88 H76 N20 O16 Zn4)n'
_symmetry_cell_setting           triclinic
_symmetry_space_group_name_H-M   'P 1'
_symmetry_Int_Tables_number      1
_space_group_name_Hall           'P 1'
loop_
_symmetry_equiv_pos_site_id
_symmetry_equiv_pos_as_xyz
1 x,y,z
_cell_length_a                   20.661(4)
_cell_length_b                   11.567(2)
_cell_length_c                   14.227(3)
_cell_angle_alpha                90
_cell_angle_beta                 116.01(3)
_cell_angle_gamma                90
_cell_volume                     3055.69
loop_
_atom_site_label
_atom_site_type_symbol
_atom_site_fract_x
_atom_site_fract_y
_atom_site_fract_z
C15 C 0.1825(3) 0.0542(4) 0.4457(4)
H10 H 0.2099 0.0887 0.4162
C16 C 0.1261(3) 0.1146(4) 0.4511(3)
C17 C 0.0851(2) 0.0629(4) 0.4952(3)
H11 H 0.0474 0.1033 0.4988
C19 C 0.1034(5) 0.2370(6) 0.4075(5)
H13 H 0.1185 0.2544 0.3534
H14 H 0.0517 0.2472 0.3796
C20 C 0.1063(5) 0.3718(7) 0.5566(6)
H15 H 0.0571 0.3721 0.5378
C21 C 0.2278(4) 0.4147(7) 0.6361(7)
H16 H 0.2717 0.4465 0.6822
C22 C 0.2170(4) 0.3434(7) 0.5489(6)
H17 H 0.2513 0.3225 0.5264
N3 N 0.1602(3) 0.4303(6) 0.6421(5)
N4 N 0.1427(4) 0.3102(5) 0.5026(5)
Zn2 Zn 0.14187(6) 0.51299(5) 0.74376(7)
C1 C 0.0083(5) 0.5876(6) 0.6180(7)
C9 C 0.1742(4) 0.3654(7) 0.9337(5)
H4 H 0.2231 0.3584 0.9523
C10 C 0.0564(4) 0.4088(7) 0.8429(6)
H5 H 0.0131 0.4369 0.7917
C11 C 0.0656(5) 0.3397(7) 0.9298(6)
H6 H 0.0292 0.3141 0.9465
C14 C 0.1980(3) 0.0579(4) 0.9844(4)
H9 H 0.2357 0.0984 0.9807
N1 N 0.1251(4) 0.4267(6) 0.8488(5)
N2 N 0.1390(4) 0.3168(6) 0.9860(6)
O2 O 0.0669(3) 0.6311(4) 0.6780(4)
O5 O 0.2260(3) 0.6327(6) 0.8093(4)
C3 C 0.3836(4) 0.8798(6) 0.9721(6)
C4 C 0.3305(4) 0.7948(8) 0.9109(6)
H1 H 0.2891 0.8199 0.8539
C5 C 0.3385(4) 0.6783(7) 0.9330(5)
C8 C 0.2842(4) 0.5891(8) 0.8702(6)
N5 N 0.3675(3) 0.9851(5) 0.9600(5)
O4 O 0.2912(3) 0.4792(5) 0.8794(5)
C1_2 C 0.0083(5) 0.4124(6) 0.1180(7)
C9_2 C 0.1742(4) 0.6346(7) 0.4337(5)
H4_2 H 0.2231 0.6416 0.4523
C10_2 C 0.0564(4) 0.5912(7) 0.3429(6)
H5_2 H 0.0131 0.5631 0.2917
C11_2 C 0.0656(5) 0.6603(7) 0.4298(6)
H6_2 H 0.0292 0.6859 0.4465
C12 C 0.1699(4) 0.7710(7) 0.5704(6)
H7 H 0.1484 0.7619 0.6185
H8 H 0.2213 0.7582 0.6092
C13 C 0.1570(3) 0.8904(4) 0.5284(4)
C14_2 C 0.1980(3) 0.9421(4) 0.4844(4)
H9_2 H 0.2357 0.9016 0.4807
C18 C 0.1006(3) 0.9508(4) 0.5338(3)
H12 H 0.0732 0.9162 0.5633
N1_2 N 0.1251(4) 0.5733(6) 0.3488(5)
N2_2 N 0.1390(4) 0.6832(6) 0.4860(6)
O2_2 O 0.0669(3) 0.3689(4) 0.1780(4)
Zn1 Zn 0.14187(6) 0.48701(5) 0.24376(7)
N6 N 0.1602(3) 0.5697(6) 0.1421(5)
O5_2 O 0.2260(3) 0.3673(6) 0.3093(4)
C3_2 C 0.8836(4) 0.3798(6) 0.9721(6)
C4_2 C 0.8305(4) 0.2948(8) 0.9109(6)
H1_2 H 0.7891 0.3199 0.8539
C5_2 C 0.8385(4) 0.1783(7) 0.9330(5)
C8_2 C 0.7842(4) 0.0891(8) 0.8702(6)
N5_2 N 0.8675(3) 0.4851(5) 0.9600(5)
H19 H 0.8287 0.5074 0.9077
O3 O 0.7260(3) 0.1327(6) 0.8093(4)
Zn3 Zn 0.64187(6) 0.01299(5) 0.74376(7)
C20_2 C 0.1063(5) 0.6282(7) 0.0566(6)
H15_2 H 0.0571 0.6279 0.0378
C21_2 C 0.2278(4) 0.5853(7) 0.1361(7)
H16_2 H 0.2717 0.5535 0.1822
C22_2 C 0.2170(4) 0.6566(7) 0.0489(6)
H17_2 H 0.2513 0.6775 0.0264
N4_2 N 0.1427(4) 0.6898(5) 0.0026(5)
C1_3 C 0.5083(5) 0.0876(6) 0.6180(7)
C2 C 0.4450(4) 0.1654(7) 0.5540(6)
C3_3 C 0.3836(4) 0.1202(6) 0.4721(6)
C4_3 C 0.3305(4) 0.2052(8) 0.4109(6)
H1_3 H 0.2891 0.1801 0.3539
C5_3 C 0.3385(4) 0.3217(7) 0.4330(5)
C6 C 0.4011(4) 0.3540(6) 0.5158(6)
H2 H 0.4068 0.4324 0.5317
C7 C 0.4548(5) 0.2849(6) 0.5760(7)
H3 H 0.4966 0.3137 0.6299
C8_3 C 0.2842(4) 0.4109(8) 0.3702(6)
N5_3 N 0.3675(3) 0.0149(5) 0.4600(5)
O2_3 O 0.5669(3) 0.1311(4) 0.6780(4)
O4_2 O 0.2912(3) 0.5208(5) 0.3794(5)
C2_2 C 0.9450(4) 0.3346(7) 0.0540(6)
C6_2 C 0.9011(4) 0.1460(6) 0.0158(6)
H2_2 H 0.9068 0.0676 0.0317
C7_2 C 0.9548(5) 0.2151(6) 0.0760(7)
H3_2 H 0.9966 0.1863 0.1299
H18 H 0.8953 0.5350 0.0040
O1 O 0.9943(3) 0.5197(4) 0.1039(5)
O4_3 O 0.7912(3) 0.9792(5) 0.8794(5)
C12_2 C 0.1699(4) 0.2290(7) 0.0704(6)
H7_2 H 0.1484 0.2381 0.1185
H8_2 H 0.2213 0.2418 0.1092
C13_2 C 0.1570(3) 0.1096(4) 0.0284(4)
C18_2 C 0.1006(3) 0.0492(4) 0.0338(3)
H12_2 H 0.0732 0.0838 0.0633
C15_2 C 0.1825(3) 0.9458(4) 0.9457(4)
H10_2 H 0.2099 0.9113 0.9162
C16_2 C 0.1261(3) 0.8854(4) 0.9511(3)
C17_2 C 0.0851(2) 0.9371(4) 0.9952(3)
H11_2 H 0.0474 0.8967 0.9988
C19_2 C 0.1034(5) 0.7630(6) 0.9075(5)
H13_2 H 0.1185 0.7456 0.8534
H14_2 H 0.0517 0.7528 0.8796
O4_4 O 0.7912(3) 0.0208(5) 0.3794(5)
C2_3 C 0.9450(4) 0.6654(7) 0.5540(6)
C3_4 C 0.8836(4) 0.6202(6) 0.4721(6)
C4_4 C 0.8305(4) 0.7052(8) 0.4109(6)
H1_4 H 0.7891 0.6801 0.3539
C5_4 C 0.8385(4) 0.8217(7) 0.4330(5)
C6_3 C 0.9011(4) 0.8540(6) 0.5158(6)
H2_3 H 0.9068 0.9324 0.5317
C7_3 C 0.9548(5) 0.7849(6) 0.5760(7)
H3_3 H 0.9966 0.8137 0.6299
C8_4 C 0.7842(4) 0.9109(8) 0.3702(6)
N5_4 N 0.8675(3) 0.5149(5) 0.4600(5)
H18_2 H 0.8953 0.4650 0.5040
H19_2 H 0.8287 0.4926 0.4077
O1_2 O 0.9943(3) 0.4803(4) 0.6039(5)
O3_2 O 0.7260(3) 0.8673(6) 0.3093(4)
Zn3_2 Zn 0.64187(6) 0.98701(5) 0.24376(7)
C1_4 C 0.5083(5) 0.9124(6) 0.1180(7)
C2_4 C 0.4450(4) 0.8346(7) 0.0540(6)
C6_4 C 0.4011(4) 0.6460(6) 0.0158(6)
H2_4 H 0.4068 0.5676 0.0317
C7_4 C 0.4548(5) 0.7151(6) 0.0760(7)
H3_4 H 0.4966 0.6863 0.1299
O2_4 O 0.5669(3) 0.8689(4) 0.1780(4)
C9_3 C 0.6742(4) 0.1346(7) 0.4337(5)
H4_3 H 0.7231 0.1416 0.4523
C10_3 C 0.5564(4) 0.0912(7) 0.3429(6)
H5_3 H 0.5131 0.0631 0.2917
C11_3 C 0.5656(5) 0.1603(7) 0.4298(6)
H6_3 H 0.5292 0.1859 0.4465
C12_3 C 0.6699(4) 0.2710(7) 0.5704(6)
H7_3 H 0.6484 0.2619 0.6185
H8_3 H 0.7213 0.2582 0.6092
C13_3 C 0.6570(3) 0.3904(4) 0.5284(4)
C14_3 C 0.6980(3) 0.4421(4) 0.4844(4)
H9_3 H 0.7357 0.4016 0.4807
C15_3 C 0.6825(3) 0.5542(4) 0.4457(4)
H10_3 H 0.7099 0.5887 0.4162
C16_3 C 0.6261(3) 0.6146(4) 0.4511(3)
C17_3 C 0.5851(2) 0.5629(4) 0.4952(3)
H11_3 H 0.5474 0.6033 0.4988
C18_3 C 0.6006(3) 0.4508(4) 0.5338(3)
H12_3 H 0.5732 0.4162 0.5633
C19_3 C 0.6034(5) 0.7370(6) 0.4075(5)
H13_3 H 0.6185 0.7544 0.3534
H14_3 H 0.5517 0.7472 0.3796
C20_3 C 0.6063(5) 0.8718(7) 0.5566(6)
H15_3 H 0.5571 0.8721 0.5378
C21_3 C 0.7278(4) 0.9147(7) 0.6361(7)
H16_3 H 0.7717 0.9465 0.6822
C22_3 C 0.7170(4) 0.8434(7) 0.5489(6)
H17_3 H 0.7513 0.8225 0.5264
N1_3 N 0.6251(4) 0.0733(6) 0.3488(5)
N2_3 N 0.6390(4) 0.1832(6) 0.4860(6)
N3_2 N 0.6602(3) 0.9303(6) 0.6421(5)
N4_3 N 0.6427(4) 0.8102(5) 0.5026(5)
H18_3 H 0.3953 0.0350 0.0040
O1_3 O 0.4943(3) 0.0197(4) 0.1039(5)
N6_2 N 0.6602(3) 0.0697(6) 0.1421(5)
C12_4 C 0.6699(4) 0.7290(7) 0.0704(6)
H7_4 H 0.6484 0.7381 0.1185
H8_4 H 0.7213 0.7418 0.1092
C13_4 C 0.6570(3) 0.6096(4) 0.0284(4)
C18_4 C 0.6006(3) 0.5492(4) 0.0338(3)
H12_4 H 0.5732 0.5838 0.0633
C20_4 C 0.6063(5) 0.1282(7) 0.0566(6)
H15_4 H 0.5571 0.1279 0.0378
C21_4 C 0.7278(4) 0.0853(7) 0.1361(7)
H16_4 H 0.7717 0.0535 0.1822
C22_4 C 0.7170(4) 0.1566(7) 0.0489(6)
H17_4 H 0.7513 0.1775 0.0264
N4_4 N 0.6427(4) 0.1898(5) 0.0026(5)
C9_4 C 0.6742(4) 0.8654(7) 0.9337(5)
H4_4 H 0.7231 0.8584 0.9523
C10_4 C 0.5564(4) 0.9088(7) 0.8429(6)
H5_4 H 0.5131 0.9369 0.7917
C11_4 C 0.5656(5) 0.8397(7) 0.9298(6)
H6_4 H 0.5292 0.8141 0.9465
C14_4 C 0.6980(3) 0.5579(4) 0.9844(4)
H9_4 H 0.7357 0.5984 0.9807
C15_4 C 0.6825(3) 0.4458(4) 0.9457(4)
H10_4 H 0.7099 0.4113 0.9162
C16_4 C 0.6261(3) 0.3854(4) 0.9511(3)
C17_4 C 0.5851(2) 0.4371(4) 0.9952(3)
H11_4 H 0.5474 0.3967 0.9988
C19_4 C 0.6034(5) 0.2630(6) 0.9075(5)
H13_4 H 0.6185 0.2456 0.8534
H14_4 H 0.5517 0.2528 0.8796
N1_4 N 0.6251(4) 0.9267(6) 0.8488(5)
N2_4 N 0.6390(4) 0.8168(6) 0.9860(6)
H18_4 H 0.3953 0.9650 0.5040
H19_3 H 0.3287 0.9926 0.4077
O1_4 O 0.4943(3) 0.9803(4) 0.6039(5)
H19_4 H 0.3287 0.0074 0.9077
loop_
_geom_bond_atom_site_label_1
_geom_bond_atom_site_label_2
_geom_bond_site_symmetry_1
_geom_bond_site_symmetry_2
H10 C15 1_555 1_555
C16 C15 1_555 1_555
C17 C16 1_555 1_555
H11 C17 1_555 1_555
C19 C16 1_555 1_555
H13 C19 1_555 1_555
H14 C19 1_555 1_555
C20 H15 1_555 1_555
C21 H16 1_555 1_555
C22 C21 1_555 1_555
H17 C22 1_555 1_555
N3 C20 1_555 1_555
N4 C19 1_555 1_555
Zn2 N3 1_555 1_555
C20 N4 1_555 1_555
C21 N3 1_555 1_555
C22 N4 1_555 1_555
C9 H4 1_555 1_555
C10 H5 1_555 1_555
C11 C10 1_555 1_555
H6 C11 1_555 1_555
H9 C14 1_555 1_555
N1 C9 1_555 1_555
N2 C9 1_555 1_555
O2 C1 1_555 1_555
Zn2 N1 1_555 1_555
O5 Zn2 1_555 1_555
C10 N1 1_555 1_555
C11 N2 1_555 1_555
O2 Zn2 1_555 1_555
C3 C4 1_555 1_555
C4 H1 1_555 1_555
C5 C4 1_555 1_555
C8 C5 1_555 1_555
N5 C3 1_555 1_555
O5 C8 1_555 1_555
O4 C8 1_555 1_555
C9_2 H4_2 1_555 1_555
C10_2 H5_2 1_555 1_555
C11_2 C10_2 1_555 1_555
H6_2 C11_2 1_555 1_555
C12 H7 1_555 1_555
H8 C12 1_555 1_555
C13 C12 1_555 1_555
C14_2 C13 1_555 1_555
H9_2 C14_2 1_555 1_555
C18 C13 1_555 1_555
H12 C18 1_555 1_555
N1_2 C9_2 1_555 1_555
N2_2 C9_2 1_555 1_555
O2_2 C1_2 1_555 1_555
Zn1 N1_2 1_555 1_555
N6 Zn1 1_555 1_555
O5_2 Zn1 1_555 1_555
C10_2 N1_2 1_555 1_555
C11_2 N2_2 1_555 1_555
C12 N2_2 1_555 1_555
O2_2 Zn1 1_555 1_555
C3_2 C4_2 1_555 1_555
C4_2 H1_2 1_555 1_555
C5_2 C4_2 1_555 1_555
C8_2 C5_2 1_555 1_555
N5_2 C3_2 1_555 1_555
H19 N5_2 1_555 1_555
O3 C8_2 1_555 1_555
Zn3 O3 1_555 1_555
C20_2 H15_2 1_555 1_555
C21_2 H16_2 1_555 1_555
C22_2 C21_2 1_555 1_555
H17_2 C22_2 1_555 1_555
N6 C20_2 1_555 1_555
C20_2 N4_2 1_555 1_555
C21_2 N6 1_555 1_555
C22_2 N4_2 1_555 1_555
C1_3 C2 1_555 1_555
C2 C3_3 1_555 1_555
C3_3 C4_3 1_555 1_555
C4_3 H1_3 1_555 1_555
C5_3 C4_3 1_555 1_555
C6 C5_3 1_555 1_555
H2 C6 1_555 1_555
C7 C2 1_555 1_555
H3 C7 1_555 1_555
C8_3 C5_3 1_555 1_555
N5_3 C3_3 1_555 1_555
O2_3 C1_3 1_555 1_555
O5_2 C8_3 1_555 1_555
O4_2 C8_3 1_555 1_555
C6 C7 1_555 1_555
O2_3 Zn3 1_555 1_555
H2_2 C6_2 1_555 1_555
C7_2 C2_2 1_555 1_555
H3_2 C7_2 1_555 1_555
C6_2 C7_2 1_555 1_555
C12_2 H7_2 1_555 1_555
H8_2 C12_2 1_555 1_555
C13_2 C12_2 1_555 1_555
C18_2 C13_2 1_555 1_555
H12_2 C18_2 1_555 1_555
H10_2 C15_2 1_555 1_555
C16_2 C15_2 1_555 1_555
C17_2 C16_2 1_555 1_555
H11_2 C17_2 1_555 1_555
C19_2 C16_2 1_555 1_555
H13_2 C19_2 1_555 1_555
H14_2 C19_2 1_555 1_555
C2_3 C3_4 1_555 1_555
C3_4 C4_4 1_555 1_555
C4_4 H1_4 1_555 1_555
C5_4 C4_4 1_555 1_555
C6_3 C5_4 1_555 1_555
H2_3 C6_3 1_555 1_555
C7_3 C2_3 1_555 1_555
H3_3 C7_3 1_555 1_555
C8_4 C5_4 1_555 1_555
N5_4 C3_4 1_555 1_555
H18_2 N5_4 1_555 1_555
H19_2 N5_4 1_555 1_555
O3_2 C8_4 1_555 1_555
Zn3_2 O3_2 1_555 1_555
C6_3 C7_3 1_555 1_555
C1_4 C2_4 1_555 1_555
H2_4 C6_4 1_555 1_555
C7_4 C2_4 1_555 1_555
H3_4 C7_4 1_555 1_555
O2_4 C1_4 1_555 1_555
C6_4 C7_4 1_555 1_555
O2_4 Zn3_2 1_555 1_555
C9_3 H4_3 1_555 1_555
C10_3 H5_3 1_555 1_555
C11_3 C10_3 1_555 1_555
H6_3 C11_3 1_555 1_555
C12_3 H7_3 1_555 1_555
H8_3 C12_3 1_555 1_555
C13_3 C12_3 1_555 1_555
C14_3 C13_3 1_555 1_555
H9_3 C14_3 1_555 1_555
C15_3 C14_3 1_555 1_555
H10_3 C15_3 1_555 1_555
C16_3 C15_3 1_555 1_555
C17_3 C16_3 1_555 1_555
H11_3 C17_3 1_555 1_555
C18_3 C13_3 1_555 1_555
H12_3 C18_3 1_555 1_555
C19_3 C16_3 1_555 1_555
H13_3 C19_3 1_555 1_555
H14_3 C19_3 1_555 1_555
C20_3 H15_3 1_555 1_555
C21_3 H16_3 1_555 1_555
C22_3 C21_3 1_555 1_555
H17_3 C22_3 1_555 1_555
N1_3 C9_3 1_555 1_555
N2_3 C9_3 1_555 1_555
N3_2 C20_3 1_555 1_555
N4_3 C19_3 1_555 1_555
C10_3 N1_3 1_555 1_555
C11_3 N2_3 1_555 1_555
C12_3 N2_3 1_555 1_555
C17_3 C18_3 1_555 1_555
C20_3 N4_3 1_555 1_555
C21_3 N3_2 1_555 1_555
C22_3 N4_3 1_555 1_555
C12_4 H7_4 1_555 1_555
H8_4 C12_4 1_555 1_555
C13_4 C12_4 1_555 1_555
C18_4 C13_4 1_555 1_555
H12_4 C18_4 1_555 1_555
C20_4 H15_4 1_555 1_555
C21_4 H16_4 1_555 1_555
C22_4 C21_4 1_555 1_555
H17_4 C22_4 1_555 1_555
N6_2 C20_4 1_555 1_555
C20_4 N4_4 1_555 1_555
C21_4 N6_2 1_555 1_555
C22_4 N4_4 1_555 1_555
C9_4 H4_4 1_555 1_555
C10_4 H5_4 1_555 1_555
C11_4 C10_4 1_555 1_555
H6_4 C11_4 1_555 1_555
H9_4 C14_4 1_555 1_555
C15_4 C14_4 1_555 1_555
H10_4 C15_4 1_555 1_555
C16_4 C15_4 1_555 1_555
C17_4 C16_4 1_555 1_555
H11_4 C17_4 1_555 1_555
C19_4 C16_4 1_555 1_555
H13_4 C19_4 1_555 1_555
H14_4 C19_4 1_555 1_555
N1_4 C9_4 1_555 1_555
N2_4 C9_4 1_555 1_555
C10_4 N1_4 1_555 1_555
C11_4 N2_4 1_555 1_555

#END
