
###############################################################################
#
# This file contains modified crystal structure data generated from the
# MOF subset of the Cambridge Structural Database (CSD) v543 
# hosted by the Cambridge Crystallographic Data Centre (CCDC).
#
# This work is licensed under the Creative Commons
# Attribution-NonCommercial-ShareAlike 4.0 International License.
# To view a copy of this license, visit
# http://creativecommons.org/licenses/by-nc-sa/4.0/
# or send a letter to
# Creative Commons, PO Box 1866, Mountain View, CA 94042, USA.
#
# CIF created using the CSD Python API on 29 September 2022
# The structure has been converted into the P1 space group
# The structure has a 3D framework
# The original CSD entry ACUFEK is in the rhombohedral crystal system
# The framework has been calculated to contain at least 10.0% void space
# The void calculation uses a probe of radius 1.32A, grid spacing 0.4
# H atom positions have been added when not included in the experimental data
# Generated hydrogen atom positions removed from atoms on special positions
#
###############################################################################

data_ACUFEK
_chemical_formula_moiety         '(C1152 H1062 Cu72 N144 O360)n'
_symmetry_cell_setting           triclinic
_symmetry_space_group_name_H-M   'P 1'
_symmetry_Int_Tables_number      1
_space_group_name_Hall           'P 1'
loop_
_symmetry_equiv_pos_site_id
_symmetry_equiv_pos_as_xyz
1 x,y,z
_cell_length_a                   32.9680(13)
_cell_length_b                   32.9680(13)
_cell_length_c                   80.783(5)
_cell_angle_alpha                90
_cell_angle_beta                 90
_cell_angle_gamma                120
_cell_volume                     76038.9
loop_
_atom_site_label
_atom_site_type_symbol
_atom_site_fract_x
_atom_site_fract_y
_atom_site_fract_z
O16 O 0.16717(18) 0.26624(14) 0.23984(5)
N9 N 0.04692(17) 0.02346(12) 0.24502(9)
C57 C 0.12299(44) 0.2460(4) 0.24042(9)
C58 C 0.09686(34) 0.1937(3) 0.24203(9)
C59 C 0.1212(4) 0.1700(3) 0.24265(8)
H25 H 0.1537 0.1862 0.2425
C60 C 0.0969(4) 0.1222(3) 0.24344(8)
H26 H 0.1133 0.1061 0.2434
C61 C 0.04867(44) 0.0973(4) 0.24425(10)
C62 C 0.02250(34) 0.0450(3) 0.24492(11)
O17 O 0.09907(12) 0.26624(14) 0.23984(5)
C63 C 0.0488(2) 0.1700(3) 0.24265(8)
H27 H 0.0325 0.1862 0.2425
C64 C 0.0253(2) 0.1222(3) 0.24344(8)
H30 H 0.1133 0.0072 0.2434
Cu22 Cu 0.20708(3) 0.33385(2) 0.236625(8)
Cu26 Cu 0.12677(2) 0.33385(2) 0.236625(8)
O15 O 0.09907(12) 0.83283(18) 0.23984(5)
C51 C 0.12301(19) 0.87701(44) 0.24042(9)
C52 C 0.09684(16) 0.90314(34) 0.24203(9)
C53 C 0.0488(2) 0.8788(4) 0.24265(8)
H23 H 0.0325 0.8463 0.2425
C54 C 0.0253(2) 0.9031(4) 0.24344(8)
C55 C 0.04863(19) 0.95133(44) 0.24425(10)
C56 C 0.02250(17) 0.97750(34) 0.24492(11)
O18 O 0.16717(18) 0.90093(12) 0.23984(5)
C65 C 0.1212(4) 0.9512(2) 0.24265(8)
H29 H 0.1537 0.9675 0.2425
C66 C 0.0969(4) 0.9747(2) 0.24344(8)
Cu21 Cu 0.12677(2) 0.79292(3) 0.236625(8)
Cu28 Cu 0.20708(3) 0.87323(2) 0.236625(8)
Cu1 Cu 0.820184(17) 0.179816(17) 0.083430(11)
Cu2 Cu 0.846751(16) 0.153249(16) 0.056517(11)
O1 O 0.82250(15) 0.09322(14) 0.06850(6)
O2 O 0.80075(15) 0.11629(15) 0.09114(5)
C1 C 0.8057(2) 0.0874(3) 0.08267(10)
C2 C 0.7899(2) 0.0412(3) 0.09063(10)
C3 C 0.7922(2) 0.0066(3) 0.08255(8)
H1 H 0.8022 0.0117 0.0716
C7 C 0.7728(2) 0.0306(3) 0.10687(10)
H4 H 0.7694 0.0527 0.1129
N3 N 0.97654(12) 0.02346(12) 0.24502(9)
H8 H 0.8939 0.0072 0.2434
O5 O 0.86670(15) 0.21668(15) 0.04879(5)
O6 O 0.84368(14) 0.23894(13) 0.07146(5)
N4 N 0.9027(3) 0.45135(13) 0.03475(9)
N5 N 0.92527(18) 0.42687(17) 0.01012(8)
C21 C 0.8607(2) 0.2448(3) 0.05684(9)
C22 C 0.8758(2) 0.2917(2) 0.04924(10)
C23 C 0.8910(3) 0.3002(2) 0.03374(11)
H9 H 0.8928 0.2769 0.0279
C24 C 0.9039(3) 0.3414(3) 0.02616(8)
H10 H 0.9145 0.3458 0.0153
C25 C 0.9019(2) 0.3767(3) 0.03407(9)
C26 C 0.8857(3) 0.3686(3) 0.05018(10)
H11 H 0.8838 0.3918 0.0561
C27 C 0.8726(3) 0.3270(3) 0.05747(9)
H12 H 0.8612 0.3219 0.0683
C28 C 0.9112(2) 0.4227(2) 0.02624(8)
C29 C 0.9316(3) 0.46584(15) 0.00298(12)
O8 O 0.86702(12) 0.13298(12) 0.03468(9)
O11 O 0.79865(13) 0.20135(13) 0.10600(8)
H28 H 0.9928 0.1061 0.2434
O20 O 0.86670(15) 0.65002(21) 0.04879(5)
O21 O 0.84368(14) 0.60474(19) 0.07146(5)
N10 N 0.92527(18) 0.49840(25) 0.01012(8)
C69 C 0.8607(2) 0.6159(4) 0.05684(9)
C70 C 0.8758(2) 0.5841(3) 0.04924(10)
C71 C 0.8910(3) 0.5908(4) 0.03374(11)
H33 H 0.8928 0.6159 0.0279
C72 C 0.9039(3) 0.5625(4) 0.02616(8)
H34 H 0.9145 0.5687 0.0153
C73 C 0.9019(2) 0.5252(4) 0.03407(9)
C74 C 0.8857(3) 0.5171(4) 0.05018(10)
H35 H 0.8838 0.4920 0.0561
C75 C 0.8726(3) 0.5456(4) 0.05747(9)
H36 H 0.8612 0.5393 0.0683
C76 C 0.9112(2) 0.4885(3) 0.02624(8)
O32 O 0.27072(21) 0.09322(14) 0.06850(6)
O33 O 0.31554(21) 0.11629(15) 0.09114(5)
C111 C 0.2817(4) 0.0874(3) 0.08267(10)
C112 C 0.2513(4) 0.0412(3) 0.09063(10)
C113 C 0.2144(4) 0.0066(3) 0.08255(8)
H55 H 0.2095 0.0117 0.0716
C117 C 0.2578(4) 0.0306(3) 0.10687(10)
H58 H 0.2833 0.0527 0.1129
Cu7 Cu 0.359632(24) 0.179816(17) 0.083430(11)
Cu8 Cu 0.306498(23) 0.153249(16) 0.056517(11)
O43 O 0.34998(21) 0.21668(15) 0.04879(5)
O44 O 0.39526(19) 0.23894(13) 0.07146(5)
N19 N 0.54865(13) 0.45135(33) 0.03475(9)
N20 N 0.50160(25) 0.42687(17) 0.01012(8)
C145 C 0.3841(4) 0.2448(3) 0.05684(9)
C146 C 0.4159(3) 0.2917(2) 0.04924(10)
C147 C 0.4092(4) 0.3002(2) 0.03374(11)
H73 H 0.3841 0.2769 0.0279
C148 C 0.4375(4) 0.3414(3) 0.02616(8)
H74 H 0.4313 0.3458 0.0153
C149 C 0.4748(4) 0.3767(3) 0.03407(9)
C150 C 0.4829(4) 0.3686(3) 0.05018(10)
H75 H 0.5080 0.3918 0.0561
C151 C 0.4544(4) 0.3270(3) 0.05747(9)
H76 H 0.4607 0.3219 0.0683
C152 C 0.5115(3) 0.4227(2) 0.02624(8)
C153 C 0.53416(15) 0.46576(34) 0.00298(12)
O46 O 0.26596(17) 0.13298(12) 0.03468(9)
O48 O 0.40270(18) 0.20135(13) 0.10600(8)
O49 O 0.78332(15) 0.65002(21) 0.04879(5)
O50 O 0.76106(13) 0.60474(19) 0.07146(5)
N21 N 0.57313(17) 0.49840(25) 0.01012(8)
C159 C 0.7552(3) 0.6159(4) 0.05684(9)
C160 C 0.7083(2) 0.5841(3) 0.04924(10)
C161 C 0.6998(2) 0.5908(4) 0.03374(11)
H79 H 0.7231 0.6159 0.0279
C162 C 0.6586(3) 0.5625(4) 0.02616(8)
H80 H 0.6542 0.5687 0.0153
C163 C 0.6233(3) 0.5252(4) 0.03407(9)
C164 C 0.6314(3) 0.5171(4) 0.05018(10)
H81 H 0.6082 0.4920 0.0561
C165 C 0.6730(3) 0.5456(4) 0.05747(9)
H82 H 0.6781 0.5393 0.0683
C166 C 0.5773(2) 0.4885(3) 0.02624(8)
O55 O 0.78332(15) 0.13330(15) 0.04879(5)
O56 O 0.76106(13) 0.15632(14) 0.07146(5)
N22 N 0.54865(33) 0.0973(3) 0.03475(9)
N23 N 0.57313(17) 0.07473(18) 0.01012(8)
C169 C 0.7552(3) 0.1393(2) 0.05684(9)
C170 C 0.7083(2) 0.1242(2) 0.04924(10)
C171 C 0.6998(2) 0.1090(3) 0.03374(11)
H85 H 0.7231 0.1072 0.0279
C172 C 0.6586(3) 0.0961(3) 0.02616(8)
H86 H 0.6542 0.0855 0.0153
C173 C 0.6233(3) 0.0981(2) 0.03407(9)
C174 C 0.6314(3) 0.1143(3) 0.05018(10)
H87 H 0.6082 0.1162 0.0561
C175 C 0.6730(3) 0.1274(3) 0.05747(9)
H88 H 0.6781 0.1388 0.0683
C176 C 0.5773(2) 0.0888(2) 0.02624(8)
C177 C 0.53424(34) 0.0684(3) 0.00298(12)
O58 O 0.34998(21) 0.13330(15) 0.04879(5)
O59 O 0.39526(19) 0.15632(14) 0.07146(5)
N24 N 0.50160(25) 0.07473(18) 0.01012(8)
C183 C 0.3841(4) 0.1393(2) 0.05684(9)
C184 C 0.4159(3) 0.1242(2) 0.04924(10)
C185 C 0.4092(4) 0.1090(3) 0.03374(11)
H91 H 0.3841 0.1072 0.0279
C186 C 0.4375(4) 0.0961(3) 0.02616(8)
H92 H 0.4313 0.0855 0.0153
C187 C 0.4748(4) 0.0981(2) 0.03407(9)
C188 C 0.4829(4) 0.1143(3) 0.05018(10)
H93 H 0.5080 0.1162 0.0561
C189 C 0.4544(4) 0.1274(3) 0.05747(9)
H94 H 0.4607 0.1388 0.0683
C190 C 0.5115(3) 0.0888(2) 0.02624(8)
Cu15 Cu 0.820184(17) 0.640368(24) 0.083430(11)
Cu19 Cu 0.846751(16) 0.693502(23) 0.056517(11)
O62 O 0.27072(21) 0.17750(15) 0.06850(6)
O63 O 0.90678(14) 0.17750(15) 0.06850(6)
O65 O 0.31554(21) 0.19925(15) 0.09114(5)
O66 O 0.88371(15) 0.19925(15) 0.09114(5)
O7 O 0.98975(13) 0.52901(13) 0.92720(5)
C30 C 0.9488(3) 0.47440(15) 0.98549(13)
C31 C 0.9554(2) 0.5110(2) 0.97741(9)
H13 H 0.9506 0.5329 0.9830
C32 C 0.9693(2) 0.5201(2) 0.96064(9)
H14 H 0.9740 0.5473 0.9555
C33 C 0.9756(3) 0.48780(13) 0.95229(12)
C34 C 0.9854(3) 0.49273(14) 0.93366(11)
O22 O 0.98975(13) 0.46074(18) 0.92720(5)
C77 C 0.9554(2) 0.4444(3) 0.97741(9)
H37 H 0.9506 0.4177 0.9830
C78 C 0.9693(2) 0.4492(3) 0.96064(9)
H38 H 0.9740 0.4267 0.9555
O45 O 0.53926(18) 0.52901(13) 0.92720(5)
C154 C 0.52560(15) 0.47440(34) 0.98549(13)
C155 C 0.5556(3) 0.5110(2) 0.97741(9)
H77 H 0.5823 0.5329 0.9830
C156 C 0.5508(3) 0.5201(2) 0.96064(9)
H78 H 0.5733 0.5473 0.9555
C157 C 0.51220(13) 0.48780(33) 0.95229(12)
C158 C 0.50727(14) 0.49267(33) 0.93366(11)
O51 O 0.47099(13) 0.46074(18) 0.92720(5)
C167 C 0.4890(2) 0.4444(3) 0.97741(9)
H83 H 0.4671 0.4177 0.9830
C168 C 0.4799(2) 0.4492(3) 0.96064(9)
H84 H 0.4527 0.4267 0.9555
O57 O 0.47099(13) 0.01025(13) 0.92720(5)
C178 C 0.52560(34) 0.0512(3) 0.98549(13)
C179 C 0.4890(2) 0.0446(2) 0.97741(9)
H89 H 0.4671 0.0494 0.9830
C180 C 0.4799(2) 0.0307(2) 0.96064(9)
H90 H 0.4527 0.0260 0.9555
C181 C 0.51220(33) 0.0244(3) 0.95229(12)
C182 C 0.50733(33) 0.0146(3) 0.93366(11)
O60 O 0.53926(18) 0.01025(13) 0.92720(5)
C191 C 0.5556(3) 0.0446(2) 0.97741(9)
H95 H 0.5823 0.0494 0.9830
C192 C 0.5508(3) 0.0307(2) 0.96064(9)
H96 H 0.5733 0.0260 0.9555
Cu23 Cu 0.99948(2) 0.53990(2) 0.903292(8)
Cu24 Cu 0.46010(2) 0.45959(3) 0.903292(8)
Cu25 Cu 0.54041(3) 0.00052(2) 0.903292(8)
Cu27 Cu 0.46010(2) 0.00052(2) 0.903292(8)
Cu29 Cu 0.54041(3) 0.53990(2) 0.903292(8)
Cu30 Cu 0.99948(2) 0.45959(3) 0.903292(8)
Cu3 Cu 0.66615(2) 0.87323(2) 0.236625(8)
O3 O 0.67672(13) 0.87209(13) 0.21252(5)
N1 N 0.7610(2) 0.88049(12) 0.10650(8)
N2 N 0.7388(2) 0.90520(18) 0.12929(7)
C4 C 0.7803(3) 0.9633(3) 0.08977(10)
H2 H 0.7829 0.9407 0.0837
C5 C 0.7649(2) 0.9550(3) 0.10559(10)
C6 C 0.7610(2) 0.9881(3) 0.11399(8)
H3 H 0.7501 0.9822 0.1248
C8 C 0.7543(2) 0.9119(2) 0.11441(9)
C9 C 0.7309(4) 0.86544(18) 0.13580(11)
C10 C 0.7123(3) 0.85615(17) 0.15439(12)
C11 C 0.7073(3) 0.8151(2) 0.16294(10)
H5 H 0.7102 0.7918 0.1575
C12 C 0.6981(3) 0.8128(2) 0.17945(10)
H6 H 0.6944 0.7871 0.1855
C13 C 0.6943(3) 0.84714(17) 0.18731(12)
C14 C 0.6817(3) 0.84084(15) 0.20570(14)
O4 O 0.73376(14) 0.90093(12) 0.23984(5)
C15 C 0.7540(4) 0.87699(19) 0.24042(9)
C16 C 0.8063(3) 0.90316(16) 0.24203(9)
C17 C 0.8300(3) 0.9512(2) 0.24265(8)
H7 H 0.8138 0.9675 0.2425
C18 C 0.8778(3) 0.9747(2) 0.24344(8)
C19 C 0.9027(4) 0.95137(19) 0.24425(10)
C20 C 0.9550(3) 0.97750(17) 0.24492(11)
O9 O 0.66327(16) 0.93664(15) 0.23722(7)
O10 O 0.59920(14) 0.83354(13) 0.23309(5)
N6 N 0.35677(12) 0.64323(12) 0.22417(12)
C35 C 0.5813(3) 0.79065(17) 0.23214(10)
C36 C 0.5272(4) 0.76359(19) 0.22881(12)
C37 C 0.5011(3) 0.7863(2) 0.22791(9)
H15 H 0.5169 0.8189 0.2281
C38 C 0.4552(2) 0.7637(2) 0.22679(10)
H16 H 0.4389 0.7800 0.2270
C39 C 0.4314(4) 0.71570(18) 0.22532(14)
C40 C 0.3777(4) 0.68886(18) 0.22391(16)
O12 O 0.82250(15) 0.72928(21) 0.06850(6)
O13 O 0.80075(15) 0.68446(21) 0.09114(5)
O14 O 0.67672(13) 0.80463(18) 0.21252(5)
N7 N 0.7388(2) 0.83360(27) 0.12929(7)
C41 C 0.8057(2) 0.7183(4) 0.08267(10)
C42 C 0.7899(2) 0.7487(4) 0.09063(10)
C43 C 0.7922(2) 0.7856(4) 0.08255(8)
H17 H 0.8022 0.7905 0.0716
C44 C 0.7803(3) 0.8170(4) 0.08977(10)
H18 H 0.7829 0.8422 0.0837
C45 C 0.7649(2) 0.8099(4) 0.10559(10)
C46 C 0.7610(2) 0.7729(4) 0.11399(8)
H19 H 0.7501 0.7679 0.1248
C47 C 0.7728(2) 0.7422(4) 0.10687(10)
H20 H 0.7694 0.7167 0.1129
C48 C 0.7543(2) 0.8424(3) 0.11441(9)
C49 C 0.7073(3) 0.8922(4) 0.16294(10)
H21 H 0.7102 0.9184 0.1575
C50 C 0.6981(3) 0.8853(4) 0.17945(10)
H22 H 0.6944 0.9073 0.1855
N8 N 0.97654(12) 0.95308(17) 0.24502(9)
H24 H 0.9928 0.8867 0.2434
O19 O 0.73376(14) 0.83283(18) 0.23984(5)
C67 C 0.8300(3) 0.8788(4) 0.24265(8)
H31 H 0.8138 0.8463 0.2425
C68 C 0.8778(3) 0.9031(4) 0.24344(8)
H32 H 0.8939 0.8867 0.2434
O23 O 0.16646(13) 0.76566(19) 0.23309(5)
N11 N 0.35677(12) 0.71354(17) 0.22417(12)
C79 C 0.20935(17) 0.79065(34) 0.23214(10)
C80 C 0.23641(19) 0.76361(44) 0.22881(12)
C81 C 0.2137(2) 0.7148(4) 0.22791(9)
H39 H 0.1811 0.6980 0.2281
C82 C 0.2363(2) 0.6915(3) 0.22679(10)
H40 H 0.2200 0.6589 0.2270
C83 C 0.28430(18) 0.71570(44) 0.22532(14)
C84 C 0.31114(18) 0.68884(44) 0.22391(16)
O24 O 0.23434(19) 0.40080(14) 0.23309(5)
N12 N 0.28646(17) 0.64323(12) 0.22417(12)
C85 C 0.20935(34) 0.4187(3) 0.23214(10)
C86 C 0.23639(44) 0.4728(4) 0.22881(12)
C87 C 0.2852(4) 0.4989(3) 0.22791(9)
H41 H 0.3020 0.4831 0.2281
C88 C 0.3085(3) 0.5448(2) 0.22679(10)
H42 H 0.3411 0.5611 0.2270
C89 C 0.28430(44) 0.5686(4) 0.22532(14)
C90 C 0.31116(44) 0.6223(4) 0.22391(16)
O25 O 0.16646(13) 0.40080(14) 0.23309(5)
C91 C 0.2137(2) 0.4989(3) 0.22791(9)
H43 H 0.1811 0.4831 0.2281
C92 C 0.2363(2) 0.5448(2) 0.22679(10)
H44 H 0.2200 0.5611 0.2270
O26 O 0.23434(19) 0.83354(13) 0.23309(5)
C93 C 0.2852(4) 0.7863(2) 0.22791(9)
H45 H 0.3020 0.8189 0.2281
C94 C 0.3085(3) 0.7637(2) 0.22679(10)
H46 H 0.3411 0.7800 0.2270
O27 O 0.59920(14) 0.76566(19) 0.23309(5)
C95 C 0.5011(3) 0.7148(4) 0.22791(9)
H47 H 0.5169 0.6980 0.2281
C96 C 0.4552(2) 0.6915(3) 0.22679(10)
H48 H 0.4389 0.6589 0.2270
O30 O 0.12791(13) 0.80463(18) 0.21252(5)
N13 N 0.11951(12) 0.88051(23) 0.10650(8)
N14 N 0.09480(18) 0.83360(27) 0.12929(7)
C100 C 0.0367(3) 0.8170(4) 0.08977(10)
H50 H 0.0593 0.8422 0.0837
C101 C 0.0450(3) 0.8099(4) 0.10559(10)
C102 C 0.0119(3) 0.7729(4) 0.11399(8)
H51 H 0.0178 0.7679 0.1248
C104 C 0.0881(2) 0.8424(3) 0.11441(9)
C105 C 0.13456(18) 0.86546(44) 0.13580(11)
C106 C 0.14385(17) 0.85615(34) 0.15439(12)
C107 C 0.1849(2) 0.8922(4) 0.16294(10)
H53 H 0.2082 0.9184 0.1575
C108 C 0.1872(2) 0.8853(4) 0.17945(10)
H54 H 0.2129 0.9073 0.1855
C109 C 0.15286(17) 0.84716(34) 0.18731(12)
C110 C 0.15916(15) 0.84086(34) 0.20570(14)
O31 O 0.06336(15) 0.72663(22) 0.23722(7)
O34 O 0.19537(18) 0.87209(13) 0.21252(5)
N15 N 0.16640(27) 0.90520(18) 0.12929(7)
C114 C 0.1830(4) 0.9633(3) 0.08977(10)
H56 H 0.1578 0.9407 0.0837
C115 C 0.1901(4) 0.9550(3) 0.10559(10)
C116 C 0.2271(4) 0.9881(3) 0.11399(8)
H57 H 0.2321 0.9822 0.1248
C118 C 0.1576(3) 0.9119(2) 0.11441(9)
C119 C 0.1078(4) 0.8151(2) 0.16294(10)
H59 H 0.0816 0.7918 0.1575
C120 C 0.1147(4) 0.8128(2) 0.17945(10)
H60 H 0.0927 0.7871 0.1855
O37 O 0.19537(18) 0.32328(13) 0.21252(5)
N16 N 0.11949(23) 0.2390(2) 0.10650(8)
N17 N 0.16640(27) 0.2612(2) 0.12929(7)
C121 C 0.2817(4) 0.1943(2) 0.08267(10)
C122 C 0.2513(4) 0.2101(2) 0.09063(10)
C123 C 0.2144(4) 0.2078(2) 0.08255(8)
H61 H 0.2095 0.1978 0.0716
C124 C 0.1830(4) 0.2197(3) 0.08977(10)
H62 H 0.1578 0.2171 0.0837
C125 C 0.1901(4) 0.2351(2) 0.10559(10)
C126 C 0.2271(4) 0.2390(2) 0.11399(8)
H63 H 0.2321 0.2499 0.1248
C127 C 0.2578(4) 0.2272(2) 0.10687(10)
H64 H 0.2833 0.2306 0.1129
C128 C 0.1576(3) 0.2457(2) 0.11441(9)
C129 C 0.13454(44) 0.2691(4) 0.13580(11)
C130 C 0.14385(34) 0.2877(3) 0.15439(12)
C131 C 0.1078(4) 0.2927(3) 0.16294(10)
H65 H 0.0816 0.2898 0.1575
C132 C 0.1147(4) 0.3019(3) 0.17945(10)
H66 H 0.0927 0.3056 0.1855
C133 C 0.15284(34) 0.3057(3) 0.18731(12)
C134 C 0.15914(34) 0.3183(3) 0.20570(14)
O38 O 0.27337(22) 0.33673(16) 0.23722(7)
O41 O 0.12791(13) 0.32328(13) 0.21252(5)
N18 N 0.09480(18) 0.2612(2) 0.12929(7)
C138 C 0.0367(3) 0.2197(3) 0.08977(10)
H68 H 0.0593 0.2171 0.0837
C139 C 0.0450(3) 0.2351(2) 0.10559(10)
C140 C 0.0119(3) 0.2390(2) 0.11399(8)
H69 H 0.0178 0.2499 0.1248
C142 C 0.0881(2) 0.2457(2) 0.11441(9)
C143 C 0.1849(2) 0.2927(3) 0.16294(10)
H71 H 0.2082 0.2898 0.1575
C144 C 0.1872(2) 0.3019(3) 0.17945(10)
H72 H 0.2129 0.3056 0.1855
O42 O 0.06336(15) 0.33673(16) 0.23722(7)
O47 O 0.27337(22) 0.93664(15) 0.23722(7)
Cu12 Cu 0.66615(2) 0.79292(3) 0.236625(8)
O52 O 0.86702(12) 0.73404(17) 0.03468(9)
O53 O 0.66327(16) 0.72663(22) 0.23722(7)
O54 O 0.79865(13) 0.59730(18) 0.10600(8)
O61 O 0.90678(14) 0.72928(21) 0.06850(6)
O64 O 0.88371(15) 0.68446(21) 0.09114(5)
O75 O 0.65642(13) 0.86234(13) 0.26053(5)
O76 O 0.13766(13) 0.79407(18) 0.26053(5)
O77 O 0.20593(18) 0.34358(13) 0.26053(5)
O78 O 0.13766(13) 0.34358(13) 0.26053(5)
O79 O 0.20593(18) 0.86234(13) 0.26053(5)
O80 O 0.65642(13) 0.79407(18) 0.26053(5)
C97 C 0.9126(3) 0.7183(4) 0.08267(10)
C98 C 0.9588(3) 0.7487(4) 0.09063(10)
C99 C 0.9934(3) 0.7856(4) 0.08255(8)
H49 H 0.9883 0.7905 0.0716
C103 C 0.9694(3) 0.7422(4) 0.10687(10)
H52 H 0.9473 0.7167 0.1129
C135 C 0.9126(3) 0.1943(2) 0.08267(10)
C136 C 0.9588(3) 0.2101(2) 0.09063(10)
C137 C 0.9934(3) 0.2078(2) 0.08255(8)
H67 H 0.9883 0.1978 0.0716
C141 C 0.9694(3) 0.2272(2) 0.10687(10)
H70 H 0.9473 0.2306 0.1129
Cu19_2 Cu 0.513418(16) 0.026835(23) 0.389850(11)
Cu1_2 Cu 0.486851(17) 0.513149(17) 0.416763(11)
Cu2_2 Cu 0.513418(16) 0.486582(16) 0.389850(11)
Cu3_2 Cu 0.33282(2) 0.20656(2) 0.569958(8)
O1_2 O 0.48917(15) 0.42655(14) 0.40183(6)
O2_2 O 0.46742(15) 0.44962(15) 0.42447(5)
O3_2 O 0.34339(13) 0.20542(13) 0.54585(5)
N1_2 N 0.4277(2) 0.21382(12) 0.43983(8)
N2_2 N 0.4055(2) 0.23853(18) 0.46262(7)
C1_2 C 0.4724(2) 0.4207(3) 0.41600(10)
C2_2 C 0.4566(2) 0.3745(3) 0.42396(10)
C3_2 C 0.4589(2) 0.3399(3) 0.41588(8)
H1_2 H 0.4689 0.3450 0.4049
C4_2 C 0.4470(3) 0.2966(3) 0.42310(10)
H2_2 H 0.4496 0.2740 0.4170
C5_2 C 0.4316(2) 0.2883(3) 0.43892(10)
C6_2 C 0.4277(2) 0.3214(3) 0.44732(8)
H3_2 H 0.4168 0.3155 0.4581
C7_2 C 0.4395(2) 0.3639(3) 0.44020(10)
H4_2 H 0.4361 0.3860 0.4462
C8_2 C 0.4210(2) 0.2452(2) 0.44774(9)
C9_2 C 0.3976(4) 0.19877(18) 0.46913(11)
C10_2 C 0.3790(3) 0.18948(17) 0.48772(12)
C11_2 C 0.3740(3) 0.1484(2) 0.49627(10)
H5_2 H 0.3769 0.1251 0.4908
C12_2 C 0.3648(3) 0.1461(2) 0.51278(10)
H6_2 H 0.3611 0.1204 0.5188
C13_2 C 0.3610(3) 0.18047(17) 0.52064(12)
C14_2 C 0.3484(3) 0.17417(15) 0.53903(14)
O4_2 O 0.40043(14) 0.23426(12) 0.57317(5)
N3_2 N 0.64321(12) 0.35679(12) 0.57835(9)
C15_2 C 0.4207(4) 0.21032(19) 0.57375(9)
C16_2 C 0.4730(3) 0.23649(16) 0.57536(9)
C17_2 C 0.4967(3) 0.2845(2) 0.57598(8)
H7_2 H 0.4805 0.3008 0.5758
C18_2 C 0.5445(3) 0.3080(2) 0.57677(8)
H8_2 H 0.5606 0.3405 0.5767
C19_2 C 0.5694(4) 0.28470(19) 0.57758(10)
C20_2 C 0.6217(3) 0.31083(17) 0.57825(11)
O5_2 O 0.53337(15) 0.55001(15) 0.38212(5)
O6_2 O 0.51035(14) 0.57227(13) 0.40479(5)
N4_2 N 0.5694(3) 0.78468(13) 0.36808(9)
N5_2 N 0.59194(18) 0.76020(17) 0.34345(8)
C21_2 C 0.5274(2) 0.5781(3) 0.39017(9)
C22_2 C 0.5425(2) 0.6250(2) 0.38257(10)
C23_2 C 0.5577(3) 0.6335(2) 0.36707(11)
H9_2 H 0.5595 0.6102 0.3612
C24_2 C 0.5706(3) 0.6747(3) 0.35949(8)
H10_2 H 0.5812 0.6791 0.3486
C25_2 C 0.5686(2) 0.7100(3) 0.36740(9)
C26_2 C 0.5524(3) 0.7019(3) 0.38351(10)
H11_2 H 0.5505 0.7251 0.3894
C27_2 C 0.5393(3) 0.6603(3) 0.39080(9)
H12_2 H 0.5279 0.6552 0.4016
C28_2 C 0.5779(2) 0.7560(2) 0.35957(8)
C29_2 C 0.5983(3) 0.79917(15) 0.33631(12)
C30_2 C 0.6155(3) 0.80773(15) 0.31882(13)
C31_2 C 0.6221(2) 0.8443(2) 0.31074(9)
H13_2 H 0.6173 0.8662 0.3163
C32_2 C 0.6360(2) 0.8534(2) 0.29397(9)
H14_2 H 0.6407 0.8806 0.2888
C33_2 C 0.6423(3) 0.82113(13) 0.28562(12)
C34_2 C 0.6521(3) 0.82606(14) 0.26699(11)
O8_2 O 0.53369(12) 0.46631(12) 0.36801(9)
O9_2 O 0.32994(16) 0.26997(15) 0.57055(7)
O10_2 O 0.26587(14) 0.16687(13) 0.56642(5)
C35_2 C 0.2480(3) 0.12398(17) 0.56547(10)
C36_2 C 0.1939(4) 0.09692(19) 0.56214(12)
C37_2 C 0.1678(3) 0.1196(2) 0.56124(9)
H15_2 H 0.1836 0.1522 0.5614
C38_2 C 0.1219(2) 0.0970(2) 0.56012(10)
H16_2 H 0.1056 0.1133 0.5603
C39_2 C 0.0981(4) 0.04903(18) 0.55865(14)
C40_2 C 0.0444(4) 0.02219(18) 0.55724(16)
O11_2 O 0.46532(13) 0.53468(13) 0.43933(8)
O12_2 O 0.48917(15) 0.06261(21) 0.40183(6)
O13_2 O 0.46742(15) 0.01779(21) 0.42447(5)
O14_2 O 0.34339(13) 0.13796(18) 0.54585(5)
N7_2 N 0.4055(2) 0.16693(27) 0.46262(7)
C41_2 C 0.4724(2) 0.0516(4) 0.41600(10)
C42_2 C 0.4566(2) 0.0820(4) 0.42396(10)
C43_2 C 0.4589(2) 0.1189(4) 0.41588(8)
H17_2 H 0.4689 0.1238 0.4049
C44_2 C 0.4470(3) 0.1503(4) 0.42310(10)
H18_2 H 0.4496 0.1755 0.4170
C45_2 C 0.4316(2) 0.1432(4) 0.43892(10)
C46_2 C 0.4277(2) 0.1062(4) 0.44732(8)
H19_2 H 0.4168 0.1012 0.4581
C47_2 C 0.4395(2) 0.0755(4) 0.44020(10)
H20_2 H 0.4361 0.0500 0.4462
C48_2 C 0.4210(2) 0.1757(3) 0.44774(9)
C49_2 C 0.3740(3) 0.2255(4) 0.49627(10)
H21_2 H 0.3769 0.2517 0.4908
C50_2 C 0.3648(3) 0.2186(4) 0.51278(10)
H22_2 H 0.3611 0.2406 0.5188
O15_2 O 0.76574(12) 0.16616(18) 0.57317(5)
N8_2 N 0.64321(12) 0.28641(17) 0.57835(9)
C51_2 C 0.78968(19) 0.21034(44) 0.57375(9)
C52_2 C 0.76351(16) 0.23647(34) 0.57536(9)
C53_2 C 0.7155(2) 0.2121(4) 0.57598(8)
H23_2 H 0.6992 0.1796 0.5758
C54_2 C 0.6920(2) 0.2364(4) 0.57677(8)
H24_2 H 0.6595 0.2200 0.5767
C55_2 C 0.71530(19) 0.28466(44) 0.57758(10)
C56_2 C 0.68917(17) 0.31083(34) 0.57825(11)
O16_2 O 0.83384(18) 0.59957(14) 0.57317(5)
N9_2 N 0.71359(17) 0.35679(12) 0.57835(9)
C57_2 C 0.78966(44) 0.5793(4) 0.57375(9)
C58_2 C 0.76353(34) 0.5270(3) 0.57536(9)
C59_2 C 0.7879(4) 0.5033(3) 0.57598(8)
H25_2 H 0.8204 0.5195 0.5758
C60_2 C 0.7636(4) 0.4555(3) 0.57677(8)
H26_2 H 0.7800 0.4394 0.5767
C61_2 C 0.71534(44) 0.4306(4) 0.57758(10)
C62_2 C 0.68917(34) 0.3783(3) 0.57825(11)
O17_2 O 0.76574(12) 0.59957(14) 0.57317(5)
C63_2 C 0.7155(2) 0.5033(3) 0.57598(8)
H27_2 H 0.6992 0.5195 0.5758
C64_2 C 0.6920(2) 0.4555(3) 0.57677(8)
H28_2 H 0.6595 0.4394 0.5767
O18_2 O 0.83384(18) 0.23426(12) 0.57317(5)
C65_2 C 0.7879(4) 0.2845(2) 0.57598(8)
H29_2 H 0.8204 0.3008 0.5758
C66_2 C 0.7636(4) 0.3080(2) 0.57677(8)
H30_2 H 0.7800 0.3405 0.5767
O19_2 O 0.40043(14) 0.16616(18) 0.57317(5)
C67_2 C 0.4967(3) 0.2121(4) 0.57598(8)
H31_2 H 0.4805 0.1796 0.5758
C68_2 C 0.5445(3) 0.2364(4) 0.57677(8)
H32_2 H 0.5606 0.2200 0.5767
O20_2 O 0.53337(15) 0.98335(21) 0.38212(5)
O21_2 O 0.51035(14) 0.93807(19) 0.40479(5)
N10_2 N 0.59194(18) 0.83173(25) 0.34345(8)
C69_2 C 0.5274(2) 0.9492(4) 0.39017(9)
C70_2 C 0.5425(2) 0.9174(3) 0.38257(10)
C71_2 C 0.5577(3) 0.9241(4) 0.36707(11)
H33_2 H 0.5595 0.9492 0.3612
C72_2 C 0.5706(3) 0.8958(4) 0.35949(8)
H34_2 H 0.5812 0.9020 0.3486
C73_2 C 0.5686(2) 0.8585(4) 0.36740(9)
C74_2 C 0.5524(3) 0.8504(4) 0.38351(10)
H35_2 H 0.5505 0.8253 0.3894
C75_2 C 0.5393(3) 0.8789(4) 0.39080(9)
H36_2 H 0.5279 0.8726 0.4016
C76_2 C 0.5779(2) 0.8218(3) 0.35957(8)
C77_2 C 0.6221(2) 0.7777(3) 0.31074(9)
H37_2 H 0.6173 0.7510 0.3163
C78_2 C 0.6360(2) 0.7825(3) 0.29397(9)
H38_2 H 0.6407 0.7600 0.2888
N11_2 N 0.02344(12) 0.04687(17) 0.55750(12)
H46_2 H 0.0078 0.1133 0.5603
O27_2 O 0.26587(14) 0.09899(19) 0.56642(5)
C95_2 C 0.1678(3) 0.0481(4) 0.56124(9)
H47_2 H 0.1836 0.0313 0.5614
C96_2 C 0.1219(2) 0.0248(3) 0.56012(10)
Cu7_2 Cu 0.026299(24) 0.513149(17) 0.416763(11)
O43_2 O 0.01665(21) 0.55001(15) 0.38212(5)
O44_2 O 0.06193(19) 0.57227(13) 0.40479(5)
N19_2 N 0.21532(13) 0.78468(33) 0.36808(9)
N20_2 N 0.16827(25) 0.76020(17) 0.34345(8)
C145_2 C 0.0508(4) 0.5781(3) 0.39017(9)
C146_2 C 0.0826(3) 0.6250(2) 0.38257(10)
C147_2 C 0.0759(4) 0.6335(2) 0.36707(11)
H73_2 H 0.0508 0.6102 0.3612
C148_2 C 0.1042(4) 0.6747(3) 0.35949(8)
H74_2 H 0.0980 0.6791 0.3486
C149_2 C 0.1415(4) 0.7100(3) 0.36740(9)
C150_2 C 0.1496(4) 0.7019(3) 0.38351(10)
H75_2 H 0.1747 0.7251 0.3894
C151_2 C 0.1211(4) 0.6603(3) 0.39080(9)
H76_2 H 0.1274 0.6552 0.4016
C152_2 C 0.1782(3) 0.7560(2) 0.35957(8)
C153_2 C 0.20083(15) 0.79909(34) 0.33631(12)
C154_2 C 0.19227(15) 0.80773(34) 0.31882(13)
C155_2 C 0.2223(3) 0.8443(2) 0.31074(9)
H77_2 H 0.2490 0.8662 0.3163
C156_2 C 0.2175(3) 0.8534(2) 0.29397(9)
H78_2 H 0.2400 0.8806 0.2888
C157_2 C 0.17887(13) 0.82113(33) 0.28562(12)
C158_2 C 0.17394(14) 0.82600(33) 0.26699(11)
O48_2 O 0.06937(18) 0.53468(13) 0.43933(8)
O49_2 O 0.44999(15) 0.98335(21) 0.38212(5)
O50_2 O 0.42773(13) 0.93807(19) 0.40479(5)
N21_2 N 0.23980(17) 0.83173(25) 0.34345(8)
C159_2 C 0.4219(3) 0.9492(4) 0.39017(9)
C160_2 C 0.3750(2) 0.9174(3) 0.38257(10)
C161_2 C 0.3665(2) 0.9241(4) 0.36707(11)
H79_2 H 0.3898 0.9492 0.3612
C162_2 C 0.3253(3) 0.8958(4) 0.35949(8)
H80_2 H 0.3209 0.9020 0.3486
C163_2 C 0.2900(3) 0.8585(4) 0.36740(9)
C164_2 C 0.2981(3) 0.8504(4) 0.38351(10)
H81_2 H 0.2749 0.8253 0.3894
C165_2 C 0.3397(3) 0.8789(4) 0.39080(9)
H82_2 H 0.3448 0.8726 0.4016
C166_2 C 0.2440(2) 0.8218(3) 0.35957(8)
C167_2 C 0.1557(2) 0.7777(3) 0.31074(9)
H83_2 H 0.1338 0.7510 0.3163
C168_2 C 0.1466(2) 0.7825(3) 0.29397(9)
H84_2 H 0.1194 0.7600 0.2888
Cu12_2 Cu 0.33282(2) 0.12625(3) 0.569958(8)
O52_2 O 0.53369(12) 0.06737(17) 0.36801(9)
O53_2 O 0.32994(16) 0.05996(22) 0.57055(7)
O55_2 O 0.44999(15) 0.46663(15) 0.38212(5)
O56_2 O 0.42773(13) 0.48965(14) 0.40479(5)
N22_2 N 0.21532(33) 0.4306(3) 0.36808(9)
N23_2 N 0.23980(17) 0.40806(18) 0.34345(8)
C169_2 C 0.4219(3) 0.4726(2) 0.39017(9)
C170_2 C 0.3750(2) 0.4575(2) 0.38257(10)
C171_2 C 0.3665(2) 0.4423(3) 0.36707(11)
H85_2 H 0.3898 0.4405 0.3612
C172_2 C 0.3253(3) 0.4294(3) 0.35949(8)
H86_2 H 0.3209 0.4188 0.3486
C173_2 C 0.2900(3) 0.4314(2) 0.36740(9)
C174_2 C 0.2981(3) 0.4476(3) 0.38351(10)
H87_2 H 0.2749 0.4495 0.3894
C175_2 C 0.3397(3) 0.4607(3) 0.39080(9)
H88_2 H 0.3448 0.4721 0.4016
C176_2 C 0.2440(2) 0.4221(2) 0.35957(8)
C177_2 C 0.20091(34) 0.4017(3) 0.33631(12)
C178_2 C 0.19227(34) 0.3845(3) 0.31882(13)
C179_2 C 0.1557(2) 0.3779(2) 0.31074(9)
H89_2 H 0.1338 0.3827 0.3163
C180_2 C 0.1466(2) 0.3640(2) 0.29397(9)
H90_2 H 0.1194 0.3593 0.2888
C181_2 C 0.17887(33) 0.3577(3) 0.28562(12)
C182_2 C 0.17400(33) 0.3479(3) 0.26699(11)
O58_2 O 0.01665(21) 0.46663(15) 0.38212(5)
O59_2 O 0.06193(19) 0.48965(14) 0.40479(5)
N24_2 N 0.16827(25) 0.40806(18) 0.34345(8)
C183_2 C 0.0508(4) 0.4726(2) 0.39017(9)
C184_2 C 0.0826(3) 0.4575(2) 0.38257(10)
C185_2 C 0.0759(4) 0.4423(3) 0.36707(11)
H91_2 H 0.0508 0.4405 0.3612
C186_2 C 0.1042(4) 0.4294(3) 0.35949(8)
H92_2 H 0.0980 0.4188 0.3486
C187_2 C 0.1415(4) 0.4314(2) 0.36740(9)
C188_2 C 0.1496(4) 0.4476(3) 0.38351(10)
H93_2 H 0.1747 0.4495 0.3894
C189_2 C 0.1211(4) 0.4607(3) 0.39080(9)
H94_2 H 0.1274 0.4721 0.4016
C190_2 C 0.1782(3) 0.4221(2) 0.35957(8)
C191_2 C 0.2223(3) 0.3779(2) 0.31074(9)
H95_2 H 0.2490 0.3827 0.3163
C192_2 C 0.2175(3) 0.3640(2) 0.29397(9)
H96_2 H 0.2400 0.3593 0.2888
Cu15_2 Cu 0.486851(17) 0.973701(24) 0.416763(11)
Cu21_2 Cu 0.79344(2) 0.12625(3) 0.569958(8)
Cu22_2 Cu 0.87375(3) 0.66718(2) 0.569958(8)
Cu26_2 Cu 0.79344(2) 0.66718(2) 0.569958(8)
Cu28_2 Cu 0.87375(3) 0.20656(2) 0.569958(8)
O61_2 O 0.57345(14) 0.06261(21) 0.40183(6)
O63_2 O 0.57345(14) 0.51083(15) 0.40183(6)
O64_2 O 0.55038(15) 0.01779(21) 0.42447(5)
O66_2 O 0.55038(15) 0.53258(15) 0.42447(5)
O75_2 O 0.32308(13) 0.19568(13) 0.59387(5)
O80_2 O 0.32308(13) 0.12741(18) 0.59387(5)
N6_2 N 0.02344(12) 0.97656(12) 0.55750(12)
H42_2 H 0.0078 0.8944 0.5603
H48_2 H 0.1056 0.9922 0.5603
O54_2 O 0.46532(13) 0.93063(18) 0.43933(8)
O23_2 O 0.83313(13) 0.09899(19) 0.56642(5)
C79_2 C 0.87602(17) 0.12398(34) 0.56547(10)
C80_2 C 0.90308(19) 0.09694(44) 0.56214(12)
C81_2 C 0.8804(2) 0.0481(4) 0.56124(9)
H39_2 H 0.8478 0.0313 0.5614
C82_2 C 0.9030(2) 0.0248(3) 0.56012(10)
C83_2 C 0.95097(18) 0.04903(44) 0.55865(14)
C84_2 C 0.97781(18) 0.02217(44) 0.55724(16)
O26_2 O 0.90101(19) 0.16687(13) 0.56642(5)
C93_2 C 0.9519(4) 0.1196(2) 0.56124(9)
H45_2 H 0.9687 0.1522 0.5614
C94_2 C 0.9752(3) 0.0970(2) 0.56012(10)
O30_2 O 0.79458(13) 0.13796(18) 0.54585(5)
N13_2 N 0.78618(12) 0.21384(23) 0.43983(8)
N14_2 N 0.76147(18) 0.16693(27) 0.46262(7)
C97_2 C 0.5793(3) 0.0516(4) 0.41600(10)
C98_2 C 0.6255(3) 0.0820(4) 0.42396(10)
C99_2 C 0.6601(3) 0.1189(4) 0.41588(8)
H49_2 H 0.6550 0.1238 0.4049
C100_2 C 0.7034(3) 0.1503(4) 0.42310(10)
H50_2 H 0.7260 0.1755 0.4170
C101_2 C 0.7117(3) 0.1432(4) 0.43892(10)
C102_2 C 0.6786(3) 0.1062(4) 0.44732(8)
H51_2 H 0.6845 0.1012 0.4581
C103_2 C 0.6361(3) 0.0755(4) 0.44020(10)
H52_2 H 0.6140 0.0500 0.4462
C104_2 C 0.7548(2) 0.1757(3) 0.44774(9)
C105_2 C 0.80123(18) 0.19879(44) 0.46913(11)
C106_2 C 0.81052(17) 0.18948(34) 0.48772(12)
C107_2 C 0.8516(2) 0.2255(4) 0.49627(10)
H53_2 H 0.8749 0.2517 0.4908
C108_2 C 0.8539(2) 0.2186(4) 0.51278(10)
H54_2 H 0.8796 0.2406 0.5188
C109_2 C 0.81953(17) 0.18049(34) 0.52064(12)
C110_2 C 0.82583(15) 0.17419(34) 0.53903(14)
O31_2 O 0.73003(15) 0.05996(22) 0.57055(7)
O32_2 O 0.93739(21) 0.42655(14) 0.40183(6)
O33_2 O 0.98221(21) 0.44962(15) 0.42447(5)
O34_2 O 0.86204(18) 0.20542(13) 0.54585(5)
N15_2 N 0.83307(27) 0.23853(18) 0.46262(7)
C111_2 C 0.9484(4) 0.4207(3) 0.41600(10)
C112_2 C 0.9180(4) 0.3745(3) 0.42396(10)
C113_2 C 0.8811(4) 0.3399(3) 0.41588(8)
H55_2 H 0.8762 0.3450 0.4049
C114_2 C 0.8497(4) 0.2966(3) 0.42310(10)
H56_2 H 0.8245 0.2740 0.4170
C115_2 C 0.8568(4) 0.2883(3) 0.43892(10)
C116_2 C 0.8938(4) 0.3214(3) 0.44732(8)
H57_2 H 0.8988 0.3155 0.4581
C117_2 C 0.9245(4) 0.3639(3) 0.44020(10)
H58_2 H 0.9500 0.3860 0.4462
C118_2 C 0.8243(3) 0.2452(2) 0.44774(9)
C119_2 C 0.7745(4) 0.1484(2) 0.49627(10)
H59_2 H 0.7483 0.1251 0.4908
C120_2 C 0.7814(4) 0.1461(2) 0.51278(10)
H60_2 H 0.7594 0.1204 0.5188
Cu8_2 Cu 0.973165(23) 0.486582(16) 0.389850(11)
O46_2 O 0.93263(17) 0.46631(12) 0.36801(9)
O47_2 O 0.94004(22) 0.26997(15) 0.57055(7)
O62_2 O 0.93739(21) 0.51083(15) 0.40183(6)
O65_2 O 0.98221(21) 0.53258(15) 0.42447(5)
O76_2 O 0.80432(13) 0.12741(18) 0.59387(5)
O79_2 O 0.87259(18) 0.19568(13) 0.59387(5)
H40_2 H 0.8867 0.9922 0.5603
O24_2 O 0.90101(19) 0.73413(14) 0.56642(5)
N12_2 N 0.95313(17) 0.97656(12) 0.55750(12)
C85_2 C 0.87602(34) 0.7520(3) 0.56547(10)
C86_2 C 0.90306(44) 0.8061(4) 0.56214(12)
C87_2 C 0.9519(4) 0.8322(3) 0.56124(9)
H41_2 H 0.9687 0.8164 0.5614
C88_2 C 0.9752(3) 0.8781(2) 0.56012(10)
C89_2 C 0.95097(44) 0.9019(4) 0.55865(14)
C90_2 C 0.97783(44) 0.9556(4) 0.55724(16)
O25_2 O 0.83313(13) 0.73413(14) 0.56642(5)
C91_2 C 0.8804(2) 0.8322(3) 0.56124(9)
H43_2 H 0.8478 0.8164 0.5614
C92_2 C 0.9030(2) 0.8781(2) 0.56012(10)
H44_2 H 0.8867 0.8944 0.5603
O37_2 O 0.86204(18) 0.65661(13) 0.54585(5)
N16_2 N 0.78616(23) 0.5723(2) 0.43983(8)
N17_2 N 0.83307(27) 0.5945(2) 0.46262(7)
C121_2 C 0.9484(4) 0.5276(2) 0.41600(10)
C122_2 C 0.9180(4) 0.5434(2) 0.42396(10)
C123_2 C 0.8811(4) 0.5411(2) 0.41588(8)
H61_2 H 0.8762 0.5311 0.4049
C124_2 C 0.8497(4) 0.5530(3) 0.42310(10)
H62_2 H 0.8245 0.5504 0.4170
C125_2 C 0.8568(4) 0.5684(2) 0.43892(10)
C126_2 C 0.8938(4) 0.5723(2) 0.44732(8)
H63_2 H 0.8988 0.5832 0.4581
C127_2 C 0.9245(4) 0.5605(2) 0.44020(10)
H64_2 H 0.9500 0.5639 0.4462
C128_2 C 0.8243(3) 0.5790(2) 0.44774(9)
C129_2 C 0.80121(44) 0.6024(4) 0.46913(11)
C130_2 C 0.81052(34) 0.6210(3) 0.48772(12)
C131_2 C 0.7745(4) 0.6260(3) 0.49627(10)
H65_2 H 0.7483 0.6231 0.4908
C132_2 C 0.7814(4) 0.6352(3) 0.51278(10)
H66_2 H 0.7594 0.6389 0.5188
C133_2 C 0.81951(34) 0.6390(3) 0.52064(12)
C134_2 C 0.82581(34) 0.6516(3) 0.53903(14)
O38_2 O 0.94004(22) 0.67006(16) 0.57055(7)
O41_2 O 0.79458(13) 0.65661(13) 0.54585(5)
N18_2 N 0.76147(18) 0.5945(2) 0.46262(7)
C135_2 C 0.5793(3) 0.5276(2) 0.41600(10)
C136_2 C 0.6255(3) 0.5434(2) 0.42396(10)
C137_2 C 0.6601(3) 0.5411(2) 0.41588(8)
H67_2 H 0.6550 0.5311 0.4049
C138_2 C 0.7034(3) 0.5530(3) 0.42310(10)
H68_2 H 0.7260 0.5504 0.4170
C139_2 C 0.7117(3) 0.5684(2) 0.43892(10)
C140_2 C 0.6786(3) 0.5723(2) 0.44732(8)
H69_2 H 0.6845 0.5832 0.4581
C141_2 C 0.6361(3) 0.5605(2) 0.44020(10)
H70_2 H 0.6140 0.5639 0.4462
C142_2 C 0.7548(2) 0.5790(2) 0.44774(9)
C143_2 C 0.8516(2) 0.6260(3) 0.49627(10)
H71_2 H 0.8749 0.6231 0.4908
C144_2 C 0.8539(2) 0.6352(3) 0.51278(10)
H72_2 H 0.8796 0.6389 0.5188
O42_2 O 0.73003(15) 0.67006(16) 0.57055(7)
O77_2 O 0.87259(18) 0.67692(13) 0.59387(5)
O78_2 O 0.80432(13) 0.67692(13) 0.59387(5)
N4_3 N 0.2360(3) 0.11802(13) 0.70142(9)
N5_3 N 0.25860(18) 0.09354(17) 0.67679(8)
C24_3 C 0.2372(3) 0.0081(3) 0.69283(8)
H10_3 H 0.2478 0.0125 0.6820
C25_3 C 0.2352(2) 0.0434(3) 0.70074(9)
C26_3 C 0.2190(3) 0.0353(3) 0.71685(10)
H11_3 H 0.2171 0.0585 0.7228
C28_3 C 0.2445(2) 0.0894(2) 0.69291(8)
C29_3 C 0.2649(3) 0.13251(15) 0.66965(12)
C30_3 C 0.2821(3) 0.14107(15) 0.65216(13)
C31_3 C 0.2887(2) 0.1777(2) 0.64408(9)
H13_3 H 0.2839 0.1996 0.6497
C32_3 C 0.3026(2) 0.1868(2) 0.62731(9)
H14_3 H 0.3073 0.2140 0.6222
C33_3 C 0.3089(3) 0.15447(13) 0.61896(12)
C34_3 C 0.3187(3) 0.15940(14) 0.60033(11)
O20_3 O 0.20003(15) 0.31669(21) 0.71546(5)
O21_3 O 0.17701(14) 0.27141(19) 0.73813(5)
N10_3 N 0.25860(18) 0.16507(25) 0.67679(8)
C69_3 C 0.1940(2) 0.2826(4) 0.72351(9)
C70_3 C 0.2091(2) 0.2508(3) 0.71591(10)
C71_3 C 0.2243(3) 0.2575(4) 0.70041(11)
H33_3 H 0.2261 0.2826 0.6946
C72_3 C 0.2372(3) 0.2292(4) 0.69283(8)
H34_3 H 0.2478 0.2354 0.6820
C73_3 C 0.2352(2) 0.1919(4) 0.70074(9)
C74_3 C 0.2190(3) 0.1838(4) 0.71685(10)
H35_3 H 0.2171 0.1587 0.7228
C75_3 C 0.2059(3) 0.2123(4) 0.72414(9)
H36_3 H 0.1945 0.2060 0.7350
C76_3 C 0.2445(2) 0.1552(3) 0.69291(8)
C77_3 C 0.2887(2) 0.1111(3) 0.64408(9)
H37_3 H 0.2839 0.0844 0.6497
C78_3 C 0.3026(2) 0.1159(3) 0.62731(9)
H38_3 H 0.3073 0.0934 0.6222
O49_3 O 0.11665(15) 0.31669(21) 0.71546(5)
O50_3 O 0.09439(13) 0.27141(19) 0.73813(5)
C159_3 C 0.0885(3) 0.2826(4) 0.72351(9)
C160_3 C 0.0416(2) 0.2508(3) 0.71591(10)
C161_3 C 0.0331(2) 0.2575(4) 0.70041(11)
H79_3 H 0.0564 0.2826 0.6946
C165_3 C 0.0063(3) 0.2123(4) 0.72414(9)
H82_3 H 0.0114 0.2060 0.7350
Cu15_3 Cu 0.153517(17) 0.307035(24) 0.750097(11)
Cu19_3 Cu 0.180084(16) 0.360169(23) 0.723184(11)
Cu1_3 Cu 0.153517(17) 0.846483(17) 0.750097(11)
Cu2_3 Cu 0.180084(16) 0.819916(16) 0.723184(11)
O1_3 O 0.15583(15) 0.75989(14) 0.73517(6)
O2_3 O 0.13408(15) 0.78296(15) 0.75781(5)
O3_3 O 0.01005(13) 0.53876(13) 0.87919(5)
N1_3 N 0.0943(2) 0.54716(12) 0.77317(8)
N2_3 N 0.0721(2) 0.57187(18) 0.79596(7)
C1_3 C 0.1390(2) 0.7541(3) 0.74934(10)
C2_3 C 0.1232(2) 0.7079(3) 0.75730(10)
C3_3 C 0.1255(2) 0.6733(3) 0.74922(8)
H1_3 H 0.1355 0.6784 0.7383
C4_3 C 0.1136(3) 0.6300(3) 0.75644(10)
H2_3 H 0.1162 0.6074 0.7504
C5_3 C 0.0982(2) 0.6217(3) 0.77226(10)
C6_3 C 0.0943(2) 0.6548(3) 0.78066(8)
H3_3 H 0.0834 0.6489 0.7915
C7_3 C 0.1061(2) 0.6973(3) 0.77354(10)
H4_3 H 0.1027 0.7194 0.7796
C8_3 C 0.0876(2) 0.5786(2) 0.78108(9)
C9_3 C 0.0642(4) 0.53211(18) 0.80247(11)
C10_3 C 0.0456(3) 0.52282(17) 0.82106(12)
C11_3 C 0.0406(3) 0.4818(2) 0.82961(10)
H5_3 H 0.0435 0.4585 0.8242
C12_3 C 0.0314(3) 0.4795(2) 0.84612(10)
H6_3 H 0.0277 0.4538 0.8522
C13_3 C 0.0276(3) 0.51381(17) 0.85398(12)
C14_3 C 0.0150(3) 0.50751(15) 0.87237(14)
O4_3 O 0.06709(14) 0.56760(12) 0.90651(5)
N3_3 N 0.30987(12) 0.69013(12) 0.91169(9)
C15_3 C 0.0873(4) 0.54366(19) 0.90709(9)
C16_3 C 0.1396(3) 0.56983(16) 0.90870(9)
C17_3 C 0.1633(3) 0.6179(2) 0.90932(8)
H7_3 H 0.1471 0.6342 0.9092
C18_3 C 0.2111(3) 0.6414(2) 0.91011(8)
H8_3 H 0.2272 0.6739 0.9101
C19_3 C 0.2360(4) 0.61804(19) 0.91092(10)
C20_3 C 0.2883(3) 0.64417(17) 0.91159(11)
O5_3 O 0.20003(15) 0.88335(15) 0.71546(5)
O6_3 O 0.17701(14) 0.90561(13) 0.73813(5)
C21_3 C 0.1940(2) 0.9115(3) 0.72351(9)
C22_3 C 0.2091(2) 0.9584(2) 0.71591(10)
C23_3 C 0.2243(3) 0.9669(2) 0.70041(11)
H9_3 H 0.2261 0.9436 0.6946
C27_3 C 0.2059(3) 0.9937(3) 0.72414(9)
H12_3 H 0.1945 0.9886 0.7350
O8_3 O 0.20035(12) 0.79965(12) 0.70135(9)
O11_3 O 0.13198(13) 0.86802(13) 0.77267(8)
O12_3 O 0.15583(15) 0.39595(21) 0.73517(6)
O13_3 O 0.13408(15) 0.35113(21) 0.75781(5)
O14_3 O 0.01005(13) 0.47130(18) 0.87919(5)
N7_3 N 0.0721(2) 0.50027(27) 0.79596(7)
C41_3 C 0.1390(2) 0.3850(4) 0.74934(10)
C42_3 C 0.1232(2) 0.4154(4) 0.75730(10)
C43_3 C 0.1255(2) 0.4523(4) 0.74922(8)
H17_3 H 0.1355 0.4572 0.7383
C44_3 C 0.1136(3) 0.4837(4) 0.75644(10)
H18_3 H 0.1162 0.5089 0.7504
C45_3 C 0.0982(2) 0.4766(4) 0.77226(10)
C46_3 C 0.0943(2) 0.4396(4) 0.78066(8)
H19_3 H 0.0834 0.4346 0.7915
C47_3 C 0.1061(2) 0.4089(4) 0.77354(10)
H20_3 H 0.1027 0.3834 0.7796
C48_3 C 0.0876(2) 0.5091(3) 0.78108(9)
C49_3 C 0.0406(3) 0.5589(4) 0.82961(10)
H21_3 H 0.0435 0.5851 0.8242
C50_3 C 0.0314(3) 0.5520(4) 0.84612(10)
H22_3 H 0.0277 0.5740 0.8522
O15_3 O 0.43240(12) 0.49950(18) 0.90651(5)
N8_3 N 0.30987(12) 0.61975(17) 0.91169(9)
C51_3 C 0.45634(19) 0.54368(44) 0.90709(9)
C52_3 C 0.43017(16) 0.56981(34) 0.90870(9)
C53_3 C 0.3821(2) 0.5455(4) 0.90932(8)
H23_3 H 0.3658 0.5130 0.9092
C54_3 C 0.3586(2) 0.5698(4) 0.91011(8)
H24_3 H 0.3261 0.5534 0.9101
C55_3 C 0.38196(19) 0.61800(44) 0.91092(10)
C56_3 C 0.35583(17) 0.64417(34) 0.91159(11)
O16_3 O 0.50050(18) 0.93291(14) 0.90651(5)
N9_3 N 0.38025(17) 0.69013(12) 0.91169(9)
C57_3 C 0.45632(44) 0.9127(4) 0.90709(9)
C58_3 C 0.43019(34) 0.8604(3) 0.90870(9)
C59_3 C 0.4545(4) 0.8367(3) 0.90932(8)
H25_3 H 0.4870 0.8529 0.9092
C60_3 C 0.4302(4) 0.7889(3) 0.91011(8)
H26_3 H 0.4466 0.7728 0.9101
C61_3 C 0.38200(44) 0.7640(4) 0.91092(10)
C62_3 C 0.35583(34) 0.7117(3) 0.91159(11)
O17_3 O 0.43240(12) 0.93291(14) 0.90651(5)
C63_3 C 0.3821(2) 0.8367(3) 0.90932(8)
H27_3 H 0.3658 0.8529 0.9092
C64_3 C 0.3586(2) 0.7889(3) 0.91011(8)
H28_3 H 0.3261 0.7728 0.9101
O18_3 O 0.50050(18) 0.56760(12) 0.90651(5)
C65_3 C 0.4545(4) 0.6179(2) 0.90932(8)
H29_3 H 0.4870 0.6342 0.9092
C66_3 C 0.4302(4) 0.6414(2) 0.91011(8)
H30_3 H 0.4466 0.6739 0.9101
O19_3 O 0.06709(14) 0.49950(18) 0.90651(5)
C67_3 C 0.1633(3) 0.5455(4) 0.90932(8)
H31_3 H 0.1471 0.5130 0.9092
C68_3 C 0.2111(3) 0.5698(4) 0.91011(8)
H32_3 H 0.2272 0.5534 0.9101
O52_3 O 0.20035(12) 0.40071(17) 0.70135(9)
O54_3 O 0.13198(13) 0.26397(18) 0.77267(8)
O55_3 O 0.11665(15) 0.79997(15) 0.71546(5)
O56_3 O 0.09439(13) 0.82299(14) 0.73813(5)
C169_3 C 0.0885(3) 0.8060(2) 0.72351(9)
C170_3 C 0.0416(2) 0.7909(2) 0.71591(10)
C171_3 C 0.0331(2) 0.7757(3) 0.70041(11)
H85_3 H 0.0564 0.7739 0.6946
C175_3 C 0.0063(3) 0.7941(3) 0.72414(9)
H88_3 H 0.0114 0.8055 0.7350
O61_3 O 0.24011(14) 0.39595(21) 0.73517(6)
O63_3 O 0.24011(14) 0.84417(15) 0.73517(6)
O64_3 O 0.21704(15) 0.35113(21) 0.75781(5)
O66_3 O 0.21704(15) 0.86592(15) 0.75781(5)
H120 H 0.0244387 0.39592 0.898136
N19_3 N 0.88198(13) 0.11802(33) 0.70142(9)
N20_3 N 0.83493(25) 0.09354(17) 0.67679(8)
C148_3 C 0.7708(4) 0.0081(3) 0.69283(8)
H74_3 H 0.7646 0.0125 0.6820
C149_3 C 0.8081(4) 0.0434(3) 0.70074(9)
C150_3 C 0.8162(4) 0.0353(3) 0.71685(10)
H75_3 H 0.8413 0.0585 0.7228
C152_3 C 0.8448(3) 0.0894(2) 0.69291(8)
C153_3 C 0.86749(15) 0.13243(34) 0.66965(12)
C154_3 C 0.85893(15) 0.14107(34) 0.65216(13)
C155_3 C 0.8889(3) 0.1777(2) 0.64408(9)
H77_3 H 0.9156 0.1996 0.6497
C156_3 C 0.8841(3) 0.1868(2) 0.62731(9)
H78_3 H 0.9066 0.2140 0.6222
C157_3 C 0.84553(13) 0.15447(33) 0.61896(12)
C158_3 C 0.84060(14) 0.15934(33) 0.60033(11)
N21_3 N 0.90646(17) 0.16507(25) 0.67679(8)
C162_3 C 0.9919(3) 0.2292(4) 0.69283(8)
H80_3 H 0.9875 0.2354 0.6820
C163_3 C 0.9566(3) 0.1919(4) 0.70074(9)
C164_3 C 0.9647(3) 0.1838(4) 0.71685(10)
H81_3 H 0.9415 0.1587 0.7228
C166_3 C 0.9106(2) 0.1552(3) 0.69291(8)
C167_3 C 0.8223(2) 0.1111(3) 0.64408(9)
H83_3 H 0.8004 0.0844 0.6497
C168_3 C 0.8132(2) 0.1159(3) 0.62731(9)
H84_3 H 0.7860 0.0934 0.6222
O9_3 O 0.99660(16) 0.60331(15) 0.90389(7)
O10_3 O 0.93253(14) 0.50021(13) 0.89976(5)
N6_3 N 0.69010(12) 0.30990(12) 0.89084(12)
C35_3 C 0.9146(3) 0.45732(17) 0.89881(10)
C36_3 C 0.8605(4) 0.43026(19) 0.89548(12)
C37_3 C 0.8344(3) 0.4530(2) 0.89458(9)
H15_3 H 0.8502 0.4856 0.8948
C38_3 C 0.7885(2) 0.4304(2) 0.89346(10)
H16_3 H 0.7722 0.4467 0.8937
C39_3 C 0.7647(4) 0.38237(18) 0.89199(14)
C40_3 C 0.7110(4) 0.35553(18) 0.89058(16)
O23_3 O 0.49979(13) 0.43233(19) 0.89976(5)
N11_3 N 0.69010(12) 0.38021(17) 0.89084(12)
C79_3 C 0.54268(17) 0.45732(34) 0.89881(10)
C80_3 C 0.56974(19) 0.43028(44) 0.89548(12)
C81_3 C 0.5470(2) 0.3815(4) 0.89458(9)
H39_3 H 0.5144 0.3647 0.8948
C82_3 C 0.5696(2) 0.3582(3) 0.89346(10)
H40_3 H 0.5533 0.3256 0.8937
C83_3 C 0.61763(18) 0.38237(44) 0.89199(14)
C84_3 C 0.64447(18) 0.35551(44) 0.89058(16)
O24_3 O 0.56767(19) 0.06747(14) 0.89976(5)
N12_3 N 0.61979(17) 0.30990(12) 0.89084(12)
C85_3 C 0.54268(34) 0.0854(3) 0.89881(10)
C86_3 C 0.56972(44) 0.1395(4) 0.89548(12)
C87_3 C 0.6185(4) 0.1656(3) 0.89458(9)
H41_3 H 0.6353 0.1498 0.8948
C88_3 C 0.6418(3) 0.2115(2) 0.89346(10)
H42_3 H 0.6744 0.2278 0.8937
C89_3 C 0.61763(44) 0.2353(4) 0.89199(14)
C90_3 C 0.64449(44) 0.2890(4) 0.89058(16)
O25_3 O 0.49979(13) 0.06747(14) 0.89976(5)
C91_3 C 0.5470(2) 0.1656(3) 0.89458(9)
H43_3 H 0.5144 0.1498 0.8948
C92_3 C 0.5696(2) 0.2115(2) 0.89346(10)
H44_3 H 0.5533 0.2278 0.8937
O26_3 O 0.56767(19) 0.50021(13) 0.89976(5)
C93_3 C 0.6185(4) 0.4530(2) 0.89458(9)
H45_3 H 0.6353 0.4856 0.8948
C94_3 C 0.6418(3) 0.4304(2) 0.89346(10)
H46_3 H 0.6744 0.4467 0.8937
O27_3 O 0.93253(14) 0.43233(19) 0.89976(5)
C95_3 C 0.8344(3) 0.3815(4) 0.89458(9)
H47_3 H 0.8502 0.3647 0.8948
C96_3 C 0.7885(2) 0.3582(3) 0.89346(10)
H48_3 H 0.7722 0.3256 0.8937
O30_3 O 0.46124(13) 0.47130(18) 0.87919(5)
N13_3 N 0.45284(12) 0.54718(23) 0.77317(8)
N14_3 N 0.42813(18) 0.50027(27) 0.79596(7)
C97_3 C 0.2459(3) 0.3850(4) 0.74934(10)
C98_3 C 0.2921(3) 0.4154(4) 0.75730(10)
C99_3 C 0.3267(3) 0.4523(4) 0.74922(8)
H49_3 H 0.3216 0.4572 0.7383
C100_3 C 0.3700(3) 0.4837(4) 0.75644(10)
H50_3 H 0.3926 0.5089 0.7504
C101_3 C 0.3783(3) 0.4766(4) 0.77226(10)
C102_3 C 0.3452(3) 0.4396(4) 0.78066(8)
H51_3 H 0.3511 0.4346 0.7915
C103_3 C 0.3027(3) 0.4089(4) 0.77354(10)
H52_3 H 0.2806 0.3834 0.7796
C104_3 C 0.4214(2) 0.5091(3) 0.78108(9)
C105_3 C 0.46789(18) 0.53213(44) 0.80247(11)
C106_3 C 0.47718(17) 0.52282(34) 0.82106(12)
C107_3 C 0.5182(2) 0.5589(4) 0.82961(10)
H53_3 H 0.5415 0.5851 0.8242
C108_3 C 0.5205(2) 0.5520(4) 0.84612(10)
H54_3 H 0.5462 0.5740 0.8522
C109_3 C 0.48619(17) 0.51383(34) 0.85398(12)
C110_3 C 0.49249(15) 0.50753(34) 0.87237(14)
O31_3 O 0.39669(15) 0.39330(22) 0.90389(7)
O32_3 O 0.60405(21) 0.75989(14) 0.73517(6)
O33_3 O 0.64887(21) 0.78296(15) 0.75781(5)
O34_3 O 0.52870(18) 0.53876(13) 0.87919(5)
N15_3 N 0.49973(27) 0.57187(18) 0.79596(7)
C111_3 C 0.6150(4) 0.7541(3) 0.74934(10)
C112_3 C 0.5846(4) 0.7079(3) 0.75730(10)
C113_3 C 0.5477(4) 0.6733(3) 0.74922(8)
H55_3 H 0.5428 0.6784 0.7383
C114_3 C 0.5163(4) 0.6300(3) 0.75644(10)
H56_3 H 0.4911 0.6074 0.7504
C115_3 C 0.5234(4) 0.6217(3) 0.77226(10)
C116_3 C 0.5604(4) 0.6548(3) 0.78066(8)
H57_3 H 0.5654 0.6489 0.7915
C117_3 C 0.5911(4) 0.6973(3) 0.77354(10)
H58_3 H 0.6166 0.7194 0.7796
C118_3 C 0.4909(3) 0.5786(2) 0.78108(9)
C119_3 C 0.4411(4) 0.4818(2) 0.82961(10)
H59_3 H 0.4149 0.4585 0.8242
C120_3 C 0.4480(4) 0.4795(2) 0.84612(10)
H60_3 H 0.4260 0.4538 0.8522
O38_3 O 0.60670(22) 0.00340(16) 0.90389(7)
O42_3 O 0.39669(15) 0.00340(16) 0.90389(7)
Cu7_3 Cu 0.692965(24) 0.846483(17) 0.750097(11)
Cu8_3 Cu 0.639831(23) 0.819916(16) 0.723184(11)
O43_3 O 0.68331(21) 0.88335(15) 0.71546(5)
O44_3 O 0.72859(19) 0.90561(13) 0.73813(5)
C145_3 C 0.7174(4) 0.9115(3) 0.72351(9)
C146_3 C 0.7492(3) 0.9584(2) 0.71591(10)
C147_3 C 0.7425(4) 0.9669(2) 0.70041(11)
H73_3 H 0.7174 0.9436 0.6946
C151_3 C 0.7877(4) 0.9937(3) 0.72414(9)
H76_3 H 0.7940 0.9886 0.7350
O46_3 O 0.59929(17) 0.79965(12) 0.70135(9)
O47_3 O 0.60670(22) 0.60331(15) 0.90389(7)
O48_3 O 0.73603(18) 0.86802(13) 0.77267(8)
O53_3 O 0.99660(16) 0.39330(22) 0.90389(7)
N22_3 N 0.88198(33) 0.7640(3) 0.70142(9)
N23_3 N 0.90646(17) 0.74140(18) 0.67679(8)
C172_3 C 0.9919(3) 0.7628(3) 0.69283(8)
H86_3 H 0.9875 0.7522 0.6820
C173_3 C 0.9566(3) 0.7648(2) 0.70074(9)
C174_3 C 0.9647(3) 0.7810(3) 0.71685(10)
H87_3 H 0.9415 0.7829 0.7228
C176_3 C 0.9106(2) 0.7555(2) 0.69291(8)
C177_3 C 0.86757(34) 0.7351(3) 0.66965(12)
C178_3 C 0.85893(34) 0.7179(3) 0.65216(13)
C179_3 C 0.8223(2) 0.7113(2) 0.64408(9)
H89_3 H 0.8004 0.7161 0.6497
C180_3 C 0.8132(2) 0.6974(2) 0.62731(9)
H90_3 H 0.7860 0.6927 0.6222
C181_3 C 0.84553(33) 0.6911(3) 0.61896(12)
C182_3 C 0.84066(33) 0.6813(3) 0.60033(11)
O58_3 O 0.68331(21) 0.79997(15) 0.71546(5)
O59_3 O 0.72859(19) 0.82299(14) 0.73813(5)
N24_3 N 0.83493(25) 0.74140(18) 0.67679(8)
C183_3 C 0.7174(4) 0.8060(2) 0.72351(9)
C184_3 C 0.7492(3) 0.7909(2) 0.71591(10)
C185_3 C 0.7425(4) 0.7757(3) 0.70041(11)
H91_3 H 0.7174 0.7739 0.6946
C186_3 C 0.7708(4) 0.7628(3) 0.69283(8)
H92_3 H 0.7646 0.7522 0.6820
C187_3 C 0.8081(4) 0.7648(2) 0.70074(9)
C188_3 C 0.8162(4) 0.7810(3) 0.71685(10)
H93_3 H 0.8413 0.7829 0.7228
C189_3 C 0.7877(4) 0.7941(3) 0.72414(9)
H94_3 H 0.7940 0.8055 0.7350
C190_3 C 0.8448(3) 0.7555(2) 0.69291(8)
C191_3 C 0.8889(3) 0.7113(2) 0.64408(9)
H95_3 H 0.9156 0.7161 0.6497
C192_3 C 0.8841(3) 0.6974(2) 0.62731(9)
H96_3 H 0.9066 0.6927 0.6222
O62_3 O 0.60405(21) 0.84417(15) 0.73517(6)
O65_3 O 0.64887(21) 0.86592(15) 0.75781(5)
O37_3 O 0.52870(18) 0.98995(13) 0.87919(5)
N16_3 N 0.45282(23) 0.9057(2) 0.77317(8)
N17_3 N 0.49973(27) 0.9279(2) 0.79596(7)
C121_3 C 0.6150(4) 0.8610(2) 0.74934(10)
C122_3 C 0.5846(4) 0.8768(2) 0.75730(10)
C123_3 C 0.5477(4) 0.8745(2) 0.74922(8)
H61_3 H 0.5428 0.8645 0.7383
C124_3 C 0.5163(4) 0.8864(3) 0.75644(10)
H62_3 H 0.4911 0.8838 0.7504
C125_3 C 0.5234(4) 0.9018(2) 0.77226(10)
C126_3 C 0.5604(4) 0.9057(2) 0.78066(8)
H63_3 H 0.5654 0.9166 0.7915
C127_3 C 0.5911(4) 0.8939(2) 0.77354(10)
H64_3 H 0.6166 0.8973 0.7796
C128_3 C 0.4909(3) 0.9124(2) 0.78108(9)
C129_3 C 0.46787(44) 0.9358(4) 0.80247(11)
C130_3 C 0.47718(34) 0.9544(3) 0.82106(12)
C131_3 C 0.4411(4) 0.9594(3) 0.82961(10)
H65_3 H 0.4149 0.9565 0.8242
C132_3 C 0.4480(4) 0.9686(3) 0.84612(10)
H66_3 H 0.4260 0.9723 0.8522
C133_3 C 0.48617(34) 0.9724(3) 0.85398(12)
C134_3 C 0.49247(34) 0.9850(3) 0.87237(14)
O41_3 O 0.46124(13) 0.98995(13) 0.87919(5)
N18_3 N 0.42813(18) 0.9279(2) 0.79596(7)
C135_3 C 0.2459(3) 0.8610(2) 0.74934(10)
C136_3 C 0.2921(3) 0.8768(2) 0.75730(10)
C137_3 C 0.3267(3) 0.8745(2) 0.74922(8)
H67_3 H 0.3216 0.8645 0.7383
C138_3 C 0.3700(3) 0.8864(3) 0.75644(10)
H68_3 H 0.3926 0.8838 0.7504
C139_3 C 0.3783(3) 0.9018(2) 0.77226(10)
C140_3 C 0.3452(3) 0.9057(2) 0.78066(8)
H69_3 H 0.3511 0.9166 0.7915
C141_3 C 0.3027(3) 0.8939(2) 0.77354(10)
H70_3 H 0.2806 0.8973 0.7796
C142_3 C 0.4214(2) 0.9124(2) 0.78108(9)
C143_3 C 0.5182(2) 0.9594(3) 0.82961(10)
H71_3 H 0.5415 0.9565 0.8242
C144_3 C 0.5205(2) 0.9686(3) 0.84612(10)
H72_3 H 0.5462 0.9723 0.8522
H112 H 0.601733 0.971421 0.905667
H114 H 0.369689 0.971421 0.905667
H112_2 H 0.0285786 0.630311 0.905667
H114_2 H 0.0285786 0.398267 0.905667
H120_2 H 0.371482 0.975561 0.898136
H120_3 H 0.60408 0.975561 0.898136
H120_4 H 0.0244387 0.628518 0.898136
O16_4 O 0.26624(14) 0.16717(18) 0.76016(5)
N9_4 N 0.02346(12) 0.04692(17) 0.75498(9)
C57_4 C 0.2460(4) 0.12299(44) 0.75958(9)
C58_4 C 0.1937(3) 0.09686(34) 0.75797(9)
C59_4 C 0.1700(3) 0.1212(4) 0.75735(8)
H25_4 H 0.1862 0.1537 0.7575
C60_4 C 0.1222(3) 0.0969(4) 0.75656(8)
H26_4 H 0.1061 0.1133 0.7566
C61_4 C 0.0973(4) 0.04867(44) 0.75575(10)
C62_4 C 0.0450(3) 0.02250(34) 0.75508(11)
O17_4 O 0.26624(14) 0.09907(12) 0.76016(5)
C63_4 C 0.1700(3) 0.0488(2) 0.75735(8)
H27_4 H 0.1862 0.0325 0.7575
C64_4 C 0.1222(3) 0.0253(2) 0.75656(8)
H30_4 H 0.0072 0.1133 0.7566
Cu22_3 Cu 0.33385(2) 0.20708(3) 0.763375(8)
Cu26_3 Cu 0.33385(2) 0.12677(2) 0.763375(8)
O7_2 O 0.52901(13) 0.98975(13) 0.07280(5)
C30_4 C 0.47440(15) 0.9488(3) 0.01451(13)
C31_4 C 0.5110(2) 0.9554(2) 0.02259(9)
H13_4 H 0.5329 0.9506 0.0170
C32_4 C 0.5201(2) 0.9693(2) 0.03936(9)
H14_4 H 0.5473 0.9740 0.0445
C33_4 C 0.48780(13) 0.9756(3) 0.04771(12)
C34_4 C 0.49273(14) 0.9854(3) 0.06634(11)
O22_2 O 0.46074(18) 0.98975(13) 0.07280(5)
C77_4 C 0.4444(3) 0.9554(2) 0.02259(9)
H37_4 H 0.4177 0.9506 0.0170
C78_4 C 0.4492(3) 0.9693(2) 0.03936(9)
H38_4 H 0.4267 0.9740 0.0445
O45_2 O 0.52901(13) 0.53926(18) 0.07280(5)
C154_4 C 0.47440(34) 0.52560(15) 0.01451(13)
C155_4 C 0.5110(2) 0.5556(3) 0.02259(9)
H77_4 H 0.5329 0.5823 0.0170
C156_4 C 0.5201(2) 0.5508(3) 0.03936(9)
H78_4 H 0.5473 0.5733 0.0445
C157_4 C 0.48780(33) 0.51220(13) 0.04771(12)
C158_4 C 0.49267(33) 0.50727(14) 0.06634(11)
O51_2 O 0.46074(18) 0.47099(13) 0.07280(5)
C167_4 C 0.4444(3) 0.4890(2) 0.02259(9)
H83_4 H 0.4177 0.4671 0.0170
C168_4 C 0.4492(3) 0.4799(2) 0.03936(9)
H84_4 H 0.4267 0.4527 0.0445
O57_2 O 0.01025(13) 0.47099(13) 0.07280(5)
C178_4 C 0.0512(3) 0.52560(34) 0.01451(13)
C179_4 C 0.0446(2) 0.4890(2) 0.02259(9)
H89_4 H 0.0494 0.4671 0.0170
C180_4 C 0.0307(2) 0.4799(2) 0.03936(9)
H90_4 H 0.0260 0.4527 0.0445
C181_4 C 0.0244(3) 0.51220(33) 0.04771(12)
C182_4 C 0.0146(3) 0.50733(33) 0.06634(11)
O60_2 O 0.01025(13) 0.53926(18) 0.07280(5)
C191_4 C 0.0446(2) 0.5556(3) 0.02259(9)
H95_4 H 0.0494 0.5823 0.0170
C192_4 C 0.0307(2) 0.5508(3) 0.03936(9)
H96_4 H 0.0260 0.5733 0.0445
Cu23_2 Cu 0.53990(2) 0.99948(2) 0.096708(8)
Cu24_2 Cu 0.45959(3) 0.46010(2) 0.096708(8)
Cu25_2 Cu 0.00052(2) 0.54041(3) 0.096708(8)
Cu27_2 Cu 0.00052(2) 0.46010(2) 0.096708(8)
Cu29_2 Cu 0.53990(2) 0.54041(3) 0.096708(8)
Cu30_2 Cu 0.45959(3) 0.99948(2) 0.096708(8)
Cu1_4 Cu 0.179816(17) 0.820184(17) 0.916570(11)
Cu2_4 Cu 0.153249(16) 0.846751(16) 0.943483(11)
O1_4 O 0.09322(14) 0.82250(15) 0.93150(6)
O2_4 O 0.11629(15) 0.80075(15) 0.90886(5)
C1_4 C 0.0874(3) 0.8057(2) 0.91733(10)
C2_4 C 0.0412(3) 0.7899(2) 0.90937(10)
C3_4 C 0.0066(3) 0.7922(2) 0.91745(8)
H1_4 H 0.0117 0.8022 0.9284
C7_4 C 0.0306(3) 0.7728(2) 0.89313(10)
H4_4 H 0.0527 0.7694 0.8871
N3_4 N 0.02346(12) 0.97654(12) 0.75498(9)
H8_4 H 0.0072 0.8939 0.7566
O5_4 O 0.21668(15) 0.86670(15) 0.95121(5)
O6_4 O 0.23894(13) 0.84368(14) 0.92854(5)
N4_4 N 0.45135(13) 0.9027(3) 0.96525(9)
N5_4 N 0.42687(17) 0.92527(18) 0.98988(8)
C21_4 C 0.2448(3) 0.8607(2) 0.94316(9)
C22_4 C 0.2917(2) 0.8758(2) 0.95076(10)
C23_4 C 0.3002(2) 0.8910(3) 0.96626(11)
H9_4 H 0.2769 0.8928 0.9721
C24_4 C 0.3414(3) 0.9039(3) 0.97384(8)
H10_4 H 0.3458 0.9145 0.9847
C25_4 C 0.3767(3) 0.9019(2) 0.96593(9)
C26_4 C 0.3686(3) 0.8857(3) 0.94982(10)
H11_4 H 0.3918 0.8838 0.9439
C27_4 C 0.3270(3) 0.8726(3) 0.94253(9)
H12_4 H 0.3219 0.8612 0.9317
C28_4 C 0.4227(2) 0.9112(2) 0.97376(8)
C29_4 C 0.46584(15) 0.9316(3) 0.99702(12)
O8_4 O 0.13298(12) 0.86702(12) 0.96532(9)
O11_4 O 0.20135(13) 0.79865(13) 0.89400(8)
H28_4 H 0.1061 0.9928 0.7566
O20_4 O 0.65002(21) 0.86670(15) 0.95121(5)
O21_4 O 0.60474(19) 0.84368(14) 0.92854(5)
N10_4 N 0.49840(25) 0.92527(18) 0.98988(8)
C69_4 C 0.6159(4) 0.8607(2) 0.94316(9)
C70_4 C 0.5841(3) 0.8758(2) 0.95076(10)
C71_4 C 0.5908(4) 0.8910(3) 0.96626(11)
H33_4 H 0.6159 0.8928 0.9721
C72_4 C 0.5625(4) 0.9039(3) 0.97384(8)
H34_4 H 0.5687 0.9145 0.9847
C73_4 C 0.5252(4) 0.9019(2) 0.96593(9)
C74_4 C 0.5171(4) 0.8857(3) 0.94982(10)
H35_4 H 0.4920 0.8838 0.9439
C75_4 C 0.5456(4) 0.8726(3) 0.94253(9)
H36_4 H 0.5393 0.8612 0.9317
C76_4 C 0.4885(3) 0.9112(2) 0.97376(8)
O32_4 O 0.09322(14) 0.27072(21) 0.93150(6)
O33_4 O 0.11629(15) 0.31554(21) 0.90886(5)
C111_4 C 0.0874(3) 0.2817(4) 0.91733(10)
C112_4 C 0.0412(3) 0.2513(4) 0.90937(10)
C113_4 C 0.0066(3) 0.2144(4) 0.91745(8)
H55_4 H 0.0117 0.2095 0.9284
C117_4 C 0.0306(3) 0.2578(4) 0.89313(10)
H58_4 H 0.0527 0.2833 0.8871
Cu7_4 Cu 0.179816(17) 0.359632(24) 0.916570(11)
Cu8_4 Cu 0.153249(16) 0.306498(23) 0.943483(11)
O43_4 O 0.21668(15) 0.34998(21) 0.95121(5)
O44_4 O 0.23894(13) 0.39526(19) 0.92854(5)
N19_4 N 0.45135(33) 0.54865(13) 0.96525(9)
N20_4 N 0.42687(17) 0.50160(25) 0.98988(8)
C145_4 C 0.2448(3) 0.3841(4) 0.94316(9)
C146_4 C 0.2917(2) 0.4159(3) 0.95076(10)
C147_4 C 0.3002(2) 0.4092(4) 0.96626(11)
H73_4 H 0.2769 0.3841 0.9721
C148_4 C 0.3414(3) 0.4375(4) 0.97384(8)
H74_4 H 0.3458 0.4313 0.9847
C149_4 C 0.3767(3) 0.4748(4) 0.96593(9)
C150_4 C 0.3686(3) 0.4829(4) 0.94982(10)
H75_4 H 0.3918 0.5080 0.9439
C151_4 C 0.3270(3) 0.4544(4) 0.94253(9)
H76_4 H 0.3219 0.4607 0.9317
C152_4 C 0.4227(2) 0.5115(3) 0.97376(8)
C153_4 C 0.46576(34) 0.53416(15) 0.99702(12)
O46_4 O 0.13298(12) 0.26596(17) 0.96532(9)
O48_4 O 0.20135(13) 0.40270(18) 0.89400(8)
O49_4 O 0.65002(21) 0.78332(15) 0.95121(5)
O50_4 O 0.60474(19) 0.76106(13) 0.92854(5)
N21_4 N 0.49840(25) 0.57313(17) 0.98988(8)
C159_4 C 0.6159(4) 0.7552(3) 0.94316(9)
C160_4 C 0.5841(3) 0.7083(2) 0.95076(10)
C161_4 C 0.5908(4) 0.6998(2) 0.96626(11)
H79_4 H 0.6159 0.7231 0.9721
C162_4 C 0.5625(4) 0.6586(3) 0.97384(8)
H80_4 H 0.5687 0.6542 0.9847
C163_4 C 0.5252(4) 0.6233(3) 0.96593(9)
C164_4 C 0.5171(4) 0.6314(3) 0.94982(10)
H81_4 H 0.4920 0.6082 0.9439
C165_4 C 0.5456(4) 0.6730(3) 0.94253(9)
H82_4 H 0.5393 0.6781 0.9317
C166_4 C 0.4885(3) 0.5773(2) 0.97376(8)
O55_4 O 0.13330(15) 0.78332(15) 0.95121(5)
O56_4 O 0.15632(14) 0.76106(13) 0.92854(5)
N22_4 N 0.0973(3) 0.54865(33) 0.96525(9)
N23_4 N 0.07473(18) 0.57313(17) 0.98988(8)
C169_4 C 0.1393(2) 0.7552(3) 0.94316(9)
C170_4 C 0.1242(2) 0.7083(2) 0.95076(10)
C171_4 C 0.1090(3) 0.6998(2) 0.96626(11)
H85_4 H 0.1072 0.7231 0.9721
C172_4 C 0.0961(3) 0.6586(3) 0.97384(8)
H86_4 H 0.0855 0.6542 0.9847
C173_4 C 0.0981(2) 0.6233(3) 0.96593(9)
C174_4 C 0.1143(3) 0.6314(3) 0.94982(10)
H87_4 H 0.1162 0.6082 0.9439
C175_4 C 0.1274(3) 0.6730(3) 0.94253(9)
H88_4 H 0.1388 0.6781 0.9317
C176_4 C 0.0888(2) 0.5773(2) 0.97376(8)
C177_4 C 0.0684(3) 0.53424(34) 0.99702(12)
O58_4 O 0.13330(15) 0.34998(21) 0.95121(5)
O59_4 O 0.15632(14) 0.39526(19) 0.92854(5)
N24_4 N 0.07473(18) 0.50160(25) 0.98988(8)
C183_4 C 0.1393(2) 0.3841(4) 0.94316(9)
C184_4 C 0.1242(2) 0.4159(3) 0.95076(10)
C185_4 C 0.1090(3) 0.4092(4) 0.96626(11)
H91_4 H 0.1072 0.3841 0.9721
C186_4 C 0.0961(3) 0.4375(4) 0.97384(8)
H92_4 H 0.0855 0.4313 0.9847
C187_4 C 0.0981(2) 0.4748(4) 0.96593(9)
C188_4 C 0.1143(3) 0.4829(4) 0.94982(10)
H93_4 H 0.1162 0.5080 0.9439
C189_4 C 0.1274(3) 0.4544(4) 0.94253(9)
H94_4 H 0.1388 0.4607 0.9317
C190_4 C 0.0888(2) 0.5115(3) 0.97376(8)
Cu15_4 Cu 0.640368(24) 0.820184(17) 0.916570(11)
Cu19_4 Cu 0.693502(23) 0.846751(16) 0.943483(11)
O62_4 O 0.17750(15) 0.27072(21) 0.93150(6)
O63_4 O 0.17750(15) 0.90678(14) 0.93150(6)
O65_4 O 0.19925(15) 0.31554(21) 0.90886(5)
O66_4 O 0.19925(15) 0.88371(15) 0.90886(5)
O15_4 O 0.83283(18) 0.09907(12) 0.76016(5)
C51_4 C 0.87701(44) 0.12301(19) 0.75958(9)
C52_4 C 0.90314(34) 0.09684(16) 0.75797(9)
C53_4 C 0.8788(4) 0.0488(2) 0.75735(8)
H23_4 H 0.8463 0.0325 0.7575
C54_4 C 0.9031(4) 0.0253(2) 0.75656(8)
C55_4 C 0.95133(44) 0.04863(19) 0.75575(10)
C56_4 C 0.97750(34) 0.02250(17) 0.75508(11)
O18_4 O 0.90093(12) 0.16717(18) 0.76016(5)
C65_4 C 0.9512(2) 0.1212(4) 0.75735(8)
H29_4 H 0.9675 0.1537 0.7575
C66_4 C 0.9747(2) 0.0969(4) 0.75656(8)
Cu21_3 Cu 0.79292(3) 0.12677(2) 0.763375(8)
Cu28_3 Cu 0.87323(2) 0.20708(3) 0.763375(8)
Cu3_3 Cu 0.87323(2) 0.66615(2) 0.763375(8)
O3_4 O 0.87209(13) 0.67672(13) 0.78748(5)
N1_4 N 0.88049(12) 0.7610(2) 0.89350(8)
N2_4 N 0.90520(18) 0.7388(2) 0.87071(7)
C4_4 C 0.9633(3) 0.7803(3) 0.91023(10)
H2_4 H 0.9407 0.7829 0.9163
C5_4 C 0.9550(3) 0.7649(2) 0.89441(10)
C6_4 C 0.9881(3) 0.7610(2) 0.88601(8)
H3_4 H 0.9822 0.7501 0.8752
C8_4 C 0.9119(2) 0.7543(2) 0.88559(9)
C9_4 C 0.86544(18) 0.7309(4) 0.86420(11)
C10_4 C 0.85615(17) 0.7123(3) 0.84561(12)
C11_4 C 0.8151(2) 0.7073(3) 0.83706(10)
H5_4 H 0.7918 0.7102 0.8425
C12_4 C 0.8128(2) 0.6981(3) 0.82055(10)
H6_4 H 0.7871 0.6944 0.8145
C13_4 C 0.84714(17) 0.6943(3) 0.81269(12)
C14_4 C 0.84084(15) 0.6817(3) 0.79430(14)
O4_4 O 0.90093(12) 0.73376(14) 0.76016(5)
C15_4 C 0.87699(19) 0.7540(4) 0.75958(9)
C16_4 C 0.90316(16) 0.8063(3) 0.75797(9)
C17_4 C 0.9512(2) 0.8300(3) 0.75735(8)
H7_4 H 0.9675 0.8138 0.7575
C18_4 C 0.9747(2) 0.8778(3) 0.75656(8)
C19_4 C 0.95137(19) 0.9027(4) 0.75575(10)
C20_4 C 0.97750(17) 0.9550(3) 0.75508(11)
O9_4 O 0.93664(15) 0.66327(16) 0.76278(7)
O10_4 O 0.83354(13) 0.59920(14) 0.76691(5)
N6_4 N 0.64323(12) 0.35677(12) 0.77583(12)
C35_4 C 0.79065(17) 0.5813(3) 0.76786(10)
C36_4 C 0.76359(19) 0.5272(4) 0.77119(12)
C37_4 C 0.7863(2) 0.5011(3) 0.77209(9)
H15_4 H 0.8189 0.5169 0.7719
C38_4 C 0.7637(2) 0.4552(2) 0.77321(10)
H16_4 H 0.7800 0.4389 0.7730
C39_4 C 0.71570(18) 0.4314(4) 0.77468(14)
C40_4 C 0.68886(18) 0.3777(4) 0.77609(16)
O12_4 O 0.72928(21) 0.82250(15) 0.93150(6)
O13_4 O 0.68446(21) 0.80075(15) 0.90886(5)
O14_4 O 0.80463(18) 0.67672(13) 0.78748(5)
N7_4 N 0.83360(27) 0.7388(2) 0.87071(7)
C41_4 C 0.7183(4) 0.8057(2) 0.91733(10)
C42_4 C 0.7487(4) 0.7899(2) 0.90937(10)
C43_4 C 0.7856(4) 0.7922(2) 0.91745(8)
H17_4 H 0.7905 0.8022 0.9284
C44_4 C 0.8170(4) 0.7803(3) 0.91023(10)
H18_4 H 0.8422 0.7829 0.9163
C45_4 C 0.8099(4) 0.7649(2) 0.89441(10)
C46_4 C 0.7729(4) 0.7610(2) 0.88601(8)
H19_4 H 0.7679 0.7501 0.8752
C47_4 C 0.7422(4) 0.7728(2) 0.89313(10)
H20_4 H 0.7167 0.7694 0.8871
C48_4 C 0.8424(3) 0.7543(2) 0.88559(9)
C49_4 C 0.8922(4) 0.7073(3) 0.83706(10)
H21_4 H 0.9184 0.7102 0.8425
C50_4 C 0.8853(4) 0.6981(3) 0.82055(10)
H22_4 H 0.9073 0.6944 0.8145
N8_4 N 0.95308(17) 0.97654(12) 0.75498(9)
H24_4 H 0.8867 0.9928 0.7566
O19_4 O 0.83283(18) 0.73376(14) 0.76016(5)
C67_4 C 0.8788(4) 0.8300(3) 0.75735(8)
H31_4 H 0.8463 0.8138 0.7575
C68_4 C 0.9031(4) 0.8778(3) 0.75656(8)
H32_4 H 0.8867 0.8939 0.7566
O23_4 O 0.76566(19) 0.16646(13) 0.76691(5)
N11_4 N 0.71354(17) 0.35677(12) 0.77583(12)
C79_4 C 0.79065(34) 0.20935(17) 0.76786(10)
C80_4 C 0.76361(44) 0.23641(19) 0.77119(12)
C81_4 C 0.7148(4) 0.2137(2) 0.77209(9)
H39_4 H 0.6980 0.1811 0.7719
C82_4 C 0.6915(3) 0.2363(2) 0.77321(10)
H40_4 H 0.6589 0.2200 0.7730
C83_4 C 0.71570(44) 0.28430(18) 0.77468(14)
C84_4 C 0.68884(44) 0.31114(18) 0.77609(16)
O24_4 O 0.40080(14) 0.23434(19) 0.76691(5)
N12_4 N 0.64323(12) 0.28646(17) 0.77583(12)
C85_4 C 0.4187(3) 0.20935(34) 0.76786(10)
C86_4 C 0.4728(4) 0.23639(44) 0.77119(12)
C87_4 C 0.4989(3) 0.2852(4) 0.77209(9)
H41_4 H 0.4831 0.3020 0.7719
C88_4 C 0.5448(2) 0.3085(3) 0.77321(10)
H42_4 H 0.5611 0.3411 0.7730
C89_4 C 0.5686(4) 0.28430(44) 0.77468(14)
C90_4 C 0.6223(4) 0.31116(44) 0.77609(16)
O25_4 O 0.40080(14) 0.16646(13) 0.76691(5)
C91_4 C 0.4989(3) 0.2137(2) 0.77209(9)
H43_4 H 0.4831 0.1811 0.7719
C92_4 C 0.5448(2) 0.2363(2) 0.77321(10)
H44_4 H 0.5611 0.2200 0.7730
O26_4 O 0.83354(13) 0.23434(19) 0.76691(5)
C93_4 C 0.7863(2) 0.2852(4) 0.77209(9)
H45_4 H 0.8189 0.3020 0.7719
C94_4 C 0.7637(2) 0.3085(3) 0.77321(10)
H46_4 H 0.7800 0.3411 0.7730
O27_4 O 0.76566(19) 0.59920(14) 0.76691(5)
C95_4 C 0.7148(4) 0.5011(3) 0.77209(9)
H47_4 H 0.6980 0.5169 0.7719
C96_4 C 0.6915(3) 0.4552(2) 0.77321(10)
H48_4 H 0.6589 0.4389 0.7730
O30_4 O 0.80463(18) 0.12791(13) 0.78748(5)
N13_4 N 0.88051(23) 0.11951(12) 0.89350(8)
N14_4 N 0.83360(27) 0.09480(18) 0.87071(7)
C100_4 C 0.8170(4) 0.0367(3) 0.91023(10)
H50_4 H 0.8422 0.0593 0.9163
C101_4 C 0.8099(4) 0.0450(3) 0.89441(10)
C102_4 C 0.7729(4) 0.0119(3) 0.88601(8)
H51_4 H 0.7679 0.0178 0.8752
C104_4 C 0.8424(3) 0.0881(2) 0.88559(9)
C105_4 C 0.86546(44) 0.13456(18) 0.86420(11)
C106_4 C 0.85615(34) 0.14385(17) 0.84561(12)
C107_4 C 0.8922(4) 0.1849(2) 0.83706(10)
H53_4 H 0.9184 0.2082 0.8425
C108_4 C 0.8853(4) 0.1872(2) 0.82055(10)
H54_4 H 0.9073 0.2129 0.8145
C109_4 C 0.84716(34) 0.15286(17) 0.81269(12)
C110_4 C 0.84086(34) 0.15916(15) 0.79430(14)
O31_4 O 0.72663(22) 0.06336(15) 0.76278(7)
O34_4 O 0.87209(13) 0.19537(18) 0.78748(5)
N15_4 N 0.90520(18) 0.16640(27) 0.87071(7)
C114_4 C 0.9633(3) 0.1830(4) 0.91023(10)
H56_4 H 0.9407 0.1578 0.9163
C115_4 C 0.9550(3) 0.1901(4) 0.89441(10)
C116_4 C 0.9881(3) 0.2271(4) 0.88601(8)
H57_4 H 0.9822 0.2321 0.8752
C118_4 C 0.9119(2) 0.1576(3) 0.88559(9)
C119_4 C 0.8151(2) 0.1078(4) 0.83706(10)
H59_4 H 0.7918 0.0816 0.8425
C120_4 C 0.8128(2) 0.1147(4) 0.82055(10)
H60_4 H 0.7871 0.0927 0.8145
O37_4 O 0.32328(13) 0.19537(18) 0.78748(5)
N16_4 N 0.2390(2) 0.11949(23) 0.89350(8)
N17_4 N 0.2612(2) 0.16640(27) 0.87071(7)
C121_4 C 0.1943(2) 0.2817(4) 0.91733(10)
C122_4 C 0.2101(2) 0.2513(4) 0.90937(10)
C123_4 C 0.2078(2) 0.2144(4) 0.91745(8)
H61_4 H 0.1978 0.2095 0.9284
C124_4 C 0.2197(3) 0.1830(4) 0.91023(10)
H62_4 H 0.2171 0.1578 0.9163
C125_4 C 0.2351(2) 0.1901(4) 0.89441(10)
C126_4 C 0.2390(2) 0.2271(4) 0.88601(8)
H63_4 H 0.2499 0.2321 0.8752
C127_4 C 0.2272(2) 0.2578(4) 0.89313(10)
H64_4 H 0.2306 0.2833 0.8871
C128_4 C 0.2457(2) 0.1576(3) 0.88559(9)
C129_4 C 0.2691(4) 0.13454(44) 0.86420(11)
C130_4 C 0.2877(3) 0.14385(34) 0.84561(12)
C131_4 C 0.2927(3) 0.1078(4) 0.83706(10)
H65_4 H 0.2898 0.0816 0.8425
C132_4 C 0.3019(3) 0.1147(4) 0.82055(10)
H66_4 H 0.3056 0.0927 0.8145
C133_4 C 0.3057(3) 0.15284(34) 0.81269(12)
C134_4 C 0.3183(3) 0.15914(34) 0.79430(14)
O38_4 O 0.33673(16) 0.27337(22) 0.76278(7)
O41_4 O 0.32328(13) 0.12791(13) 0.78748(5)
N18_4 N 0.2612(2) 0.09480(18) 0.87071(7)
C138_4 C 0.2197(3) 0.0367(3) 0.91023(10)
H68_4 H 0.2171 0.0593 0.9163
C139_4 C 0.2351(2) 0.0450(3) 0.89441(10)
C140_4 C 0.2390(2) 0.0119(3) 0.88601(8)
H69_4 H 0.2499 0.0178 0.8752
C142_4 C 0.2457(2) 0.0881(2) 0.88559(9)
C143_4 C 0.2927(3) 0.1849(2) 0.83706(10)
H71_4 H 0.2898 0.2082 0.8425
C144_4 C 0.3019(3) 0.1872(2) 0.82055(10)
H72_4 H 0.3056 0.2129 0.8145
O42_4 O 0.33673(16) 0.06336(15) 0.76278(7)
O47_4 O 0.93664(15) 0.27337(22) 0.76278(7)
Cu12_3 Cu 0.79292(3) 0.66615(2) 0.763375(8)
O52_4 O 0.73404(17) 0.86702(12) 0.96532(9)
O53_4 O 0.72663(22) 0.66327(16) 0.76278(7)
O54_4 O 0.59730(18) 0.79865(13) 0.89400(8)
O61_4 O 0.72928(21) 0.90678(14) 0.93150(6)
O64_4 O 0.68446(21) 0.88371(15) 0.90886(5)
O75_3 O 0.86234(13) 0.65642(13) 0.73947(5)
O76_3 O 0.79407(18) 0.13766(13) 0.73947(5)
O77_3 O 0.34358(13) 0.20593(18) 0.73947(5)
O78_3 O 0.34358(13) 0.13766(13) 0.73947(5)
O79_3 O 0.86234(13) 0.20593(18) 0.73947(5)
O80_3 O 0.79407(18) 0.65642(13) 0.73947(5)
C97_4 C 0.7183(4) 0.9126(3) 0.91733(10)
C98_4 C 0.7487(4) 0.9588(3) 0.90937(10)
C99_4 C 0.7856(4) 0.9934(3) 0.91745(8)
H49_4 H 0.7905 0.9883 0.9284
C103_4 C 0.7422(4) 0.9694(3) 0.89313(10)
H52_4 H 0.7167 0.9473 0.8871
C135_4 C 0.1943(2) 0.9126(3) 0.91733(10)
C136_4 C 0.2101(2) 0.9588(3) 0.90937(10)
C137_4 C 0.2078(2) 0.9934(3) 0.91745(8)
H67_4 H 0.1978 0.9883 0.9284
C141_4 C 0.2272(2) 0.9694(3) 0.89313(10)
H70_4 H 0.2306 0.9473 0.8871
O7_3 O 0.19568(13) 0.32308(13) 0.40613(5)
N4_5 N 0.11802(13) 0.2360(3) 0.29858(9)
N5_5 N 0.09354(17) 0.25860(18) 0.32321(8)
C24_5 C 0.0081(3) 0.2372(3) 0.30717(8)
H10_5 H 0.0125 0.2478 0.3180
C25_5 C 0.0434(3) 0.2352(2) 0.29926(9)
C26_5 C 0.0353(3) 0.2190(3) 0.28315(10)
H11_5 H 0.0585 0.2171 0.2772
C28_5 C 0.0894(2) 0.2445(2) 0.30709(8)
C29_5 C 0.13251(15) 0.2649(3) 0.33035(12)
C30_5 C 0.14107(15) 0.2821(3) 0.34784(13)
C31_5 C 0.1777(2) 0.2887(2) 0.35592(9)
H13_5 H 0.1996 0.2839 0.3503
C32_5 C 0.1868(2) 0.3026(2) 0.37269(9)
H14_5 H 0.2140 0.3073 0.3778
C33_5 C 0.15447(13) 0.3089(3) 0.38104(12)
C34_5 C 0.15940(14) 0.3187(3) 0.39967(11)
O20_5 O 0.31669(21) 0.20003(15) 0.28454(5)
O21_5 O 0.27141(19) 0.17701(14) 0.26187(5)
O22_3 O 0.12741(18) 0.32308(13) 0.40613(5)
N10_5 N 0.16507(25) 0.25860(18) 0.32321(8)
C69_5 C 0.2826(4) 0.1940(2) 0.27649(9)
C70_5 C 0.2508(3) 0.2091(2) 0.28409(10)
C71_5 C 0.2575(4) 0.2243(3) 0.29959(11)
H33_5 H 0.2826 0.2261 0.3054
C72_5 C 0.2292(4) 0.2372(3) 0.30717(8)
H34_5 H 0.2354 0.2478 0.3180
C73_5 C 0.1919(4) 0.2352(2) 0.29926(9)
C74_5 C 0.1838(4) 0.2190(3) 0.28315(10)
H35_5 H 0.1587 0.2171 0.2772
C75_5 C 0.2123(4) 0.2059(3) 0.27586(9)
H36_5 H 0.2060 0.1945 0.2650
C76_5 C 0.1552(3) 0.2445(2) 0.30709(8)
C77_5 C 0.1111(3) 0.2887(2) 0.35592(9)
H37_5 H 0.0844 0.2839 0.3503
C78_5 C 0.1159(3) 0.3026(2) 0.37269(9)
H38_5 H 0.0934 0.3073 0.3778
O49_5 O 0.31669(21) 0.11665(15) 0.28454(5)
O50_5 O 0.27141(19) 0.09439(13) 0.26187(5)
C159_5 C 0.2826(4) 0.0885(3) 0.27649(9)
C160_5 C 0.2508(3) 0.0416(2) 0.28409(10)
C161_5 C 0.2575(4) 0.0331(2) 0.29959(11)
H79_5 H 0.2826 0.0564 0.3054
C165_5 C 0.2123(4) 0.0063(3) 0.27586(9)
H82_5 H 0.2060 0.0114 0.2650
Cu15_5 Cu 0.307035(24) 0.153517(17) 0.249903(11)
Cu19_5 Cu 0.360169(23) 0.180084(16) 0.276816(11)
Cu23_3 Cu 0.20656(2) 0.33282(2) 0.430042(8)
Cu30_3 Cu 0.12625(3) 0.33282(2) 0.430042(8)
O45_3 O 0.19568(13) 0.87259(18) 0.40613(5)
N19_5 N 0.11802(33) 0.88198(13) 0.29858(9)
N20_5 N 0.09354(17) 0.83493(25) 0.32321(8)
C148_5 C 0.0081(3) 0.7708(4) 0.30717(8)
H74_5 H 0.0125 0.7646 0.3180
C149_5 C 0.0434(3) 0.8081(4) 0.29926(9)
C150_5 C 0.0353(3) 0.8162(4) 0.28315(10)
H75_5 H 0.0585 0.8413 0.2772
C152_5 C 0.0894(2) 0.8448(3) 0.30709(8)
C153_5 C 0.13243(34) 0.86749(15) 0.33035(12)
C154_5 C 0.14107(34) 0.85893(15) 0.34784(13)
C155_5 C 0.1777(2) 0.8889(3) 0.35592(9)
H77_5 H 0.1996 0.9156 0.3503
C156_5 C 0.1868(2) 0.8841(3) 0.37269(9)
H78_5 H 0.2140 0.9066 0.3778
C157_5 C 0.15447(33) 0.84553(13) 0.38104(12)
C158_5 C 0.15934(33) 0.84060(14) 0.39967(11)
O51_3 O 0.12741(18) 0.80432(13) 0.40613(5)
N21_5 N 0.16507(25) 0.90646(17) 0.32321(8)
C162_5 C 0.2292(4) 0.9919(3) 0.30717(8)
H80_5 H 0.2354 0.9875 0.3180
C163_5 C 0.1919(4) 0.9566(3) 0.29926(9)
C164_5 C 0.1838(4) 0.9647(3) 0.28315(10)
H81_5 H 0.1587 0.9415 0.2772
C166_5 C 0.1552(3) 0.9106(2) 0.30709(8)
C167_5 C 0.1111(3) 0.8223(2) 0.35592(9)
H83_5 H 0.0844 0.8004 0.3503
C168_5 C 0.1159(3) 0.8132(2) 0.37269(9)
H84_5 H 0.0934 0.7860 0.3778
Cu24_3 Cu 0.12625(3) 0.79344(2) 0.430042(8)
Cu29_3 Cu 0.20656(2) 0.87375(3) 0.430042(8)
Cu1_5 Cu 0.846483(17) 0.153517(17) 0.249903(11)
Cu2_5 Cu 0.819916(16) 0.180084(16) 0.276816(11)
O1_5 O 0.75989(14) 0.15583(15) 0.26483(6)
O2_5 O 0.78296(15) 0.13408(15) 0.24219(5)
O3_5 O 0.53876(13) 0.01005(13) 0.12081(5)
N1_5 N 0.54716(12) 0.0943(2) 0.22683(8)
N2_5 N 0.57187(18) 0.0721(2) 0.20404(7)
C1_5 C 0.7541(3) 0.1390(2) 0.25066(10)
C2_5 C 0.7079(3) 0.1232(2) 0.24270(10)
C3_5 C 0.6733(3) 0.1255(2) 0.25078(8)
H1_5 H 0.6784 0.1355 0.2617
C4_5 C 0.6300(3) 0.1136(3) 0.24356(10)
H2_5 H 0.6074 0.1162 0.2496
C5_5 C 0.6217(3) 0.0982(2) 0.22774(10)
C6_5 C 0.6548(3) 0.0943(2) 0.21934(8)
H3_5 H 0.6489 0.0834 0.2085
C7_5 C 0.6973(3) 0.1061(2) 0.22646(10)
H4_5 H 0.7194 0.1027 0.2204
C8_5 C 0.5786(2) 0.0876(2) 0.21892(9)
C9_5 C 0.53211(18) 0.0642(4) 0.19753(11)
C10_5 C 0.52282(17) 0.0456(3) 0.17894(12)
C11_5 C 0.4818(2) 0.0406(3) 0.17039(10)
H5_5 H 0.4585 0.0435 0.1758
C12_5 C 0.4795(2) 0.0314(3) 0.15388(10)
H6_5 H 0.4538 0.0277 0.1478
C13_5 C 0.51381(17) 0.0276(3) 0.14602(12)
C14_5 C 0.50751(15) 0.0150(3) 0.12763(14)
O4_5 O 0.56760(12) 0.06709(14) 0.09349(5)
N3_5 N 0.69013(12) 0.30987(12) 0.08831(9)
C15_5 C 0.54366(19) 0.0873(4) 0.09291(9)
C16_5 C 0.56983(16) 0.1396(3) 0.09130(9)
C17_5 C 0.6179(2) 0.1633(3) 0.09068(8)
H7_5 H 0.6342 0.1471 0.0908
C18_5 C 0.6414(2) 0.2111(3) 0.08989(8)
H8_5 H 0.6739 0.2272 0.0899
C19_5 C 0.61804(19) 0.2360(4) 0.08908(10)
C20_5 C 0.64417(17) 0.2883(3) 0.08841(11)
O5_5 O 0.88335(15) 0.20003(15) 0.28454(5)
O6_5 O 0.90561(13) 0.17701(14) 0.26187(5)
C21_5 C 0.9115(3) 0.1940(2) 0.27649(9)
C22_5 C 0.9584(2) 0.2091(2) 0.28409(10)
C23_5 C 0.9669(2) 0.2243(3) 0.29959(11)
H9_5 H 0.9436 0.2261 0.3054
C27_5 C 0.9937(3) 0.2059(3) 0.27586(9)
H12_5 H 0.9886 0.1945 0.2650
O8_5 O 0.79965(12) 0.20035(12) 0.29865(9)
O11_5 O 0.86802(13) 0.13198(13) 0.22733(8)
O12_5 O 0.39595(21) 0.15583(15) 0.26483(6)
O13_5 O 0.35113(21) 0.13408(15) 0.24219(5)
O14_5 O 0.47130(18) 0.01005(13) 0.12081(5)
N7_5 N 0.50027(27) 0.0721(2) 0.20404(7)
C41_5 C 0.3850(4) 0.1390(2) 0.25066(10)
C42_5 C 0.4154(4) 0.1232(2) 0.24270(10)
C43_5 C 0.4523(4) 0.1255(2) 0.25078(8)
H17_5 H 0.4572 0.1355 0.2617
C44_5 C 0.4837(4) 0.1136(3) 0.24356(10)
H18_5 H 0.5089 0.1162 0.2496
C45_5 C 0.4766(4) 0.0982(2) 0.22774(10)
C46_5 C 0.4396(4) 0.0943(2) 0.21934(8)
H19_5 H 0.4346 0.0834 0.2085
C47_5 C 0.4089(4) 0.1061(2) 0.22646(10)
H20_5 H 0.3834 0.1027 0.2204
C48_5 C 0.5091(3) 0.0876(2) 0.21892(9)
C49_5 C 0.5589(4) 0.0406(3) 0.17039(10)
H21_5 H 0.5851 0.0435 0.1758
C50_5 C 0.5520(4) 0.0314(3) 0.15388(10)
H22_5 H 0.5740 0.0277 0.1478
O15_5 O 0.49950(18) 0.43240(12) 0.09349(5)
N8_5 N 0.61975(17) 0.30987(12) 0.08831(9)
C51_5 C 0.54368(44) 0.45634(19) 0.09291(9)
C52_5 C 0.56981(34) 0.43017(16) 0.09130(9)
C53_5 C 0.5455(4) 0.3821(2) 0.09068(8)
H23_5 H 0.5130 0.3658 0.0908
C54_5 C 0.5698(4) 0.3586(2) 0.08989(8)
H24_5 H 0.5534 0.3261 0.0899
C55_5 C 0.61800(44) 0.38196(19) 0.08908(10)
C56_5 C 0.64417(34) 0.35583(17) 0.08841(11)
O16_5 O 0.93291(14) 0.50050(18) 0.09349(5)
N9_5 N 0.69013(12) 0.38025(17) 0.08831(9)
C57_5 C 0.9127(4) 0.45632(44) 0.09291(9)
C58_5 C 0.8604(3) 0.43019(34) 0.09130(9)
C59_5 C 0.8367(3) 0.4545(4) 0.09068(8)
H25_5 H 0.8529 0.4870 0.0908
C60_5 C 0.7889(3) 0.4302(4) 0.08989(8)
H26_5 H 0.7728 0.4466 0.0899
C61_5 C 0.7640(4) 0.38200(44) 0.08908(10)
C62_5 C 0.7117(3) 0.35583(34) 0.08841(11)
O17_5 O 0.93291(14) 0.43240(12) 0.09349(5)
C63_5 C 0.8367(3) 0.3821(2) 0.09068(8)
H27_5 H 0.8529 0.3658 0.0908
C64_5 C 0.7889(3) 0.3586(2) 0.08989(8)
H28_5 H 0.7728 0.3261 0.0899
O18_5 O 0.56760(12) 0.50050(18) 0.09349(5)
C65_5 C 0.6179(2) 0.4545(4) 0.09068(8)
H29_5 H 0.6342 0.4870 0.0908
C66_5 C 0.6414(2) 0.4302(4) 0.08989(8)
H30_5 H 0.6739 0.4466 0.0899
O19_5 O 0.49950(18) 0.06709(14) 0.09349(5)
C67_5 C 0.5455(4) 0.1633(3) 0.09068(8)
H31_5 H 0.5130 0.1471 0.0908
C68_5 C 0.5698(4) 0.2111(3) 0.08989(8)
H32_5 H 0.5534 0.2272 0.0899
O52_5 O 0.40071(17) 0.20035(12) 0.29865(9)
O54_5 O 0.26397(18) 0.13198(13) 0.22733(8)
O55_5 O 0.79997(15) 0.11665(15) 0.28454(5)
O56_5 O 0.82299(14) 0.09439(13) 0.26187(5)
C169_5 C 0.8060(2) 0.0885(3) 0.27649(9)
C170_5 C 0.7909(2) 0.0416(2) 0.28409(10)
C171_5 C 0.7757(3) 0.0331(2) 0.29959(11)
H85_5 H 0.7739 0.0564 0.3054
C175_5 C 0.7941(3) 0.0063(3) 0.27586(9)
H88_5 H 0.8055 0.0114 0.2650
O61_5 O 0.39595(21) 0.24011(14) 0.26483(6)
O63_5 O 0.84417(15) 0.24011(14) 0.26483(6)
O64_5 O 0.35113(21) 0.21704(15) 0.24219(5)
O66_5 O 0.86592(15) 0.21704(15) 0.24219(5)
H120_5 H 0.39592 0.0244387 0.101864
O9_5 O 0.60331(15) 0.99660(16) 0.09611(7)
O10_5 O 0.50021(13) 0.93253(14) 0.10024(5)
N6_5 N 0.30990(12) 0.69010(12) 0.10916(12)
C35_5 C 0.45732(17) 0.9146(3) 0.10119(10)
C36_5 C 0.43026(19) 0.8605(4) 0.10452(12)
C37_5 C 0.4530(2) 0.8344(3) 0.10542(9)
H15_5 H 0.4856 0.8502 0.1052
C38_5 C 0.4304(2) 0.7885(2) 0.10654(10)
H16_5 H 0.4467 0.7722 0.1063
C39_5 C 0.38237(18) 0.7647(4) 0.10801(14)
C40_5 C 0.35553(18) 0.7110(4) 0.10942(16)
O23_5 O 0.43233(19) 0.49979(13) 0.10024(5)
N11_5 N 0.38021(17) 0.69010(12) 0.10916(12)
C79_5 C 0.45732(34) 0.54268(17) 0.10119(10)
C80_5 C 0.43028(44) 0.56974(19) 0.10452(12)
C81_5 C 0.3815(4) 0.5470(2) 0.10542(9)
H39_5 H 0.3647 0.5144 0.1052
C82_5 C 0.3582(3) 0.5696(2) 0.10654(10)
H40_5 H 0.3256 0.5533 0.1063
C83_5 C 0.38237(44) 0.61763(18) 0.10801(14)
C84_5 C 0.35551(44) 0.64447(18) 0.10942(16)
O24_5 O 0.06747(14) 0.56767(19) 0.10024(5)
N12_5 N 0.30990(12) 0.61979(17) 0.10916(12)
C85_5 C 0.0854(3) 0.54268(34) 0.10119(10)
C86_5 C 0.1395(4) 0.56972(44) 0.10452(12)
C87_5 C 0.1656(3) 0.6185(4) 0.10542(9)
H41_5 H 0.1498 0.6353 0.1052
C88_5 C 0.2115(2) 0.6418(3) 0.10654(10)
H42_5 H 0.2278 0.6744 0.1063
C89_5 C 0.2353(4) 0.61763(44) 0.10801(14)
C90_5 C 0.2890(4) 0.64449(44) 0.10942(16)
O25_5 O 0.06747(14) 0.49979(13) 0.10024(5)
C91_5 C 0.1656(3) 0.5470(2) 0.10542(9)
H43_5 H 0.1498 0.5144 0.1052
C92_5 C 0.2115(2) 0.5696(2) 0.10654(10)
H44_5 H 0.2278 0.5533 0.1063
O26_5 O 0.50021(13) 0.56767(19) 0.10024(5)
C93_5 C 0.4530(2) 0.6185(4) 0.10542(9)
H45_5 H 0.4856 0.6353 0.1052
C94_5 C 0.4304(2) 0.6418(3) 0.10654(10)
H46_5 H 0.4467 0.6744 0.1063
O27_5 O 0.43233(19) 0.93253(14) 0.10024(5)
C95_5 C 0.3815(4) 0.8344(3) 0.10542(9)
H47_5 H 0.3647 0.8502 0.1052
C96_5 C 0.3582(3) 0.7885(2) 0.10654(10)
H48_5 H 0.3256 0.7722 0.1063
O30_5 O 0.47130(18) 0.46124(13) 0.12081(5)
N13_5 N 0.54718(23) 0.45284(12) 0.22683(8)
N14_5 N 0.50027(27) 0.42813(18) 0.20404(7)
C97_5 C 0.3850(4) 0.2459(3) 0.25066(10)
C98_5 C 0.4154(4) 0.2921(3) 0.24270(10)
C99_5 C 0.4523(4) 0.3267(3) 0.25078(8)
H49_5 H 0.4572 0.3216 0.2617
C100_5 C 0.4837(4) 0.3700(3) 0.24356(10)
H50_5 H 0.5089 0.3926 0.2496
C101_5 C 0.4766(4) 0.3783(3) 0.22774(10)
C102_5 C 0.4396(4) 0.3452(3) 0.21934(8)
H51_5 H 0.4346 0.3511 0.2085
C103_5 C 0.4089(4) 0.3027(3) 0.22646(10)
H52_5 H 0.3834 0.2806 0.2204
C104_5 C 0.5091(3) 0.4214(2) 0.21892(9)
C105_5 C 0.53213(44) 0.46789(18) 0.19753(11)
C106_5 C 0.52282(34) 0.47718(17) 0.17894(12)
C107_5 C 0.5589(4) 0.5182(2) 0.17039(10)
H53_5 H 0.5851 0.5415 0.1758
C108_5 C 0.5520(4) 0.5205(2) 0.15388(10)
H54_5 H 0.5740 0.5462 0.1478
C109_5 C 0.51383(34) 0.48619(17) 0.14602(12)
C110_5 C 0.50753(34) 0.49249(15) 0.12763(14)
O31_5 O 0.39330(22) 0.39669(15) 0.09611(7)
O32_5 O 0.75989(14) 0.60405(21) 0.26483(6)
O33_5 O 0.78296(15) 0.64887(21) 0.24219(5)
O34_5 O 0.53876(13) 0.52870(18) 0.12081(5)
N15_5 N 0.57187(18) 0.49973(27) 0.20404(7)
C111_5 C 0.7541(3) 0.6150(4) 0.25066(10)
C112_5 C 0.7079(3) 0.5846(4) 0.24270(10)
C113_5 C 0.6733(3) 0.5477(4) 0.25078(8)
H55_5 H 0.6784 0.5428 0.2617
C114_5 C 0.6300(3) 0.5163(4) 0.24356(10)
H56_5 H 0.6074 0.4911 0.2496
C115_5 C 0.6217(3) 0.5234(4) 0.22774(10)
C116_5 C 0.6548(3) 0.5604(4) 0.21934(8)
H57_5 H 0.6489 0.5654 0.2085
C117_5 C 0.6973(3) 0.5911(4) 0.22646(10)
H58_5 H 0.7194 0.6166 0.2204
C118_5 C 0.5786(2) 0.4909(3) 0.21892(9)
C119_5 C 0.4818(2) 0.4411(4) 0.17039(10)
H59_5 H 0.4585 0.4149 0.1758
C120_5 C 0.4795(2) 0.4480(4) 0.15388(10)
H60_5 H 0.4538 0.4260 0.1478
O38_5 O 0.00340(16) 0.60670(22) 0.09611(7)
O42_5 O 0.00340(16) 0.39669(15) 0.09611(7)
Cu7_5 Cu 0.846483(17) 0.692965(24) 0.249903(11)
Cu8_5 Cu 0.819916(16) 0.639831(23) 0.276816(11)
O43_5 O 0.88335(15) 0.68331(21) 0.28454(5)
O44_5 O 0.90561(13) 0.72859(19) 0.26187(5)
C145_5 C 0.9115(3) 0.7174(4) 0.27649(9)
C146_5 C 0.9584(2) 0.7492(3) 0.28409(10)
C147_5 C 0.9669(2) 0.7425(4) 0.29959(11)
H73_5 H 0.9436 0.7174 0.3054
C151_5 C 0.9937(3) 0.7877(4) 0.27586(9)
H76_5 H 0.9886 0.7940 0.2650
O46_5 O 0.79965(12) 0.59929(17) 0.29865(9)
O47_5 O 0.60331(15) 0.60670(22) 0.09611(7)
O48_5 O 0.86802(13) 0.73603(18) 0.22733(8)
O53_5 O 0.39330(22) 0.99660(16) 0.09611(7)
O57_3 O 0.67692(13) 0.80432(13) 0.40613(5)
N22_5 N 0.7640(3) 0.88198(33) 0.29858(9)
N23_5 N 0.74140(18) 0.90646(17) 0.32321(8)
C172_5 C 0.7628(3) 0.9919(3) 0.30717(8)
H86_5 H 0.7522 0.9875 0.3180
C173_5 C 0.7648(2) 0.9566(3) 0.29926(9)
C174_5 C 0.7810(3) 0.9647(3) 0.28315(10)
H87_5 H 0.7829 0.9415 0.2772
C176_5 C 0.7555(2) 0.9106(2) 0.30709(8)
C177_5 C 0.7351(3) 0.86757(34) 0.33035(12)
C178_5 C 0.7179(3) 0.85893(34) 0.34784(13)
C179_5 C 0.7113(2) 0.8223(2) 0.35592(9)
H89_5 H 0.7161 0.8004 0.3503
C180_5 C 0.6974(2) 0.8132(2) 0.37269(9)
H90_5 H 0.6927 0.7860 0.3778
C181_5 C 0.6911(3) 0.84553(33) 0.38104(12)
C182_5 C 0.6813(3) 0.84066(33) 0.39967(11)
O58_5 O 0.79997(15) 0.68331(21) 0.28454(5)
O59_5 O 0.82299(14) 0.72859(19) 0.26187(5)
O60_3 O 0.67692(13) 0.87259(18) 0.40613(5)
N24_5 N 0.74140(18) 0.83493(25) 0.32321(8)
C183_5 C 0.8060(2) 0.7174(4) 0.27649(9)
C184_5 C 0.7909(2) 0.7492(3) 0.28409(10)
C185_5 C 0.7757(3) 0.7425(4) 0.29959(11)
H91_5 H 0.7739 0.7174 0.3054
C186_5 C 0.7628(3) 0.7708(4) 0.30717(8)
H92_5 H 0.7522 0.7646 0.3180
C187_5 C 0.7648(2) 0.8081(4) 0.29926(9)
C188_5 C 0.7810(3) 0.8162(4) 0.28315(10)
H93_5 H 0.7829 0.8413 0.2772
C189_5 C 0.7941(3) 0.7877(4) 0.27586(9)
H94_5 H 0.8055 0.7940 0.2650
C190_5 C 0.7555(2) 0.8448(3) 0.30709(8)
C191_5 C 0.7113(2) 0.8889(3) 0.35592(9)
H95_5 H 0.7161 0.9156 0.3503
C192_5 C 0.6974(2) 0.8841(3) 0.37269(9)
H96_5 H 0.6927 0.9066 0.3778
Cu25_3 Cu 0.66718(2) 0.87375(3) 0.430042(8)
Cu27_3 Cu 0.66718(2) 0.79344(2) 0.430042(8)
O62_5 O 0.84417(15) 0.60405(21) 0.26483(6)
O65_5 O 0.86592(15) 0.64887(21) 0.24219(5)
O37_5 O 0.98995(13) 0.52870(18) 0.12081(5)
N16_5 N 0.9057(2) 0.45282(23) 0.22683(8)
N17_5 N 0.9279(2) 0.49973(27) 0.20404(7)
C121_5 C 0.8610(2) 0.6150(4) 0.25066(10)
C122_5 C 0.8768(2) 0.5846(4) 0.24270(10)
C123_5 C 0.8745(2) 0.5477(4) 0.25078(8)
H61_5 H 0.8645 0.5428 0.2617
C124_5 C 0.8864(3) 0.5163(4) 0.24356(10)
H62_5 H 0.8838 0.4911 0.2496
C125_5 C 0.9018(2) 0.5234(4) 0.22774(10)
C126_5 C 0.9057(2) 0.5604(4) 0.21934(8)
H63_5 H 0.9166 0.5654 0.2085
C127_5 C 0.8939(2) 0.5911(4) 0.22646(10)
H64_5 H 0.8973 0.6166 0.2204
C128_5 C 0.9124(2) 0.4909(3) 0.21892(9)
C129_5 C 0.9358(4) 0.46787(44) 0.19753(11)
C130_5 C 0.9544(3) 0.47718(34) 0.17894(12)
C131_5 C 0.9594(3) 0.4411(4) 0.17039(10)
H65_5 H 0.9565 0.4149 0.1758
C132_5 C 0.9686(3) 0.4480(4) 0.15388(10)
H66_5 H 0.9723 0.4260 0.1478
C133_5 C 0.9724(3) 0.48617(34) 0.14602(12)
C134_5 C 0.9850(3) 0.49247(34) 0.12763(14)
O41_5 O 0.98995(13) 0.46124(13) 0.12081(5)
N18_5 N 0.9279(2) 0.42813(18) 0.20404(7)
C135_5 C 0.8610(2) 0.2459(3) 0.25066(10)
C136_5 C 0.8768(2) 0.2921(3) 0.24270(10)
C137_5 C 0.8745(2) 0.3267(3) 0.25078(8)
H67_5 H 0.8645 0.3216 0.2617
C138_5 C 0.8864(3) 0.3700(3) 0.24356(10)
H68_5 H 0.8838 0.3926 0.2496
C139_5 C 0.9018(2) 0.3783(3) 0.22774(10)
C140_5 C 0.9057(2) 0.3452(3) 0.21934(8)
H69_5 H 0.9166 0.3511 0.2085
C141_5 C 0.8939(2) 0.3027(3) 0.22646(10)
H70_5 H 0.8973 0.2806 0.2204
C142_5 C 0.9124(2) 0.4214(2) 0.21892(9)
C143_5 C 0.9594(3) 0.5182(2) 0.17039(10)
H71_5 H 0.9565 0.5415 0.1758
C144_5 C 0.9686(3) 0.5205(2) 0.15388(10)
H72_5 H 0.9723 0.5462 0.1478
H112_3 H 0.971421 0.601733 0.0943327
H114_3 H 0.971421 0.369689 0.0943327
Cu19_6 Cu 0.026835(23) 0.513418(16) 0.610150(11)
Cu1_6 Cu 0.513149(17) 0.486851(17) 0.583237(11)
Cu2_6 Cu 0.486582(16) 0.513418(16) 0.610150(11)
O1_6 O 0.42655(14) 0.48917(15) 0.59817(6)
O2_6 O 0.44962(15) 0.46742(15) 0.57553(5)
O3_6 O 0.20542(13) 0.34339(13) 0.45415(5)
N1_6 N 0.21382(12) 0.4277(2) 0.56017(8)
N2_6 N 0.23853(18) 0.4055(2) 0.53738(7)
C1_6 C 0.4207(3) 0.4724(2) 0.58400(10)
C2_6 C 0.3745(3) 0.4566(2) 0.57604(10)
C3_6 C 0.3399(3) 0.4589(2) 0.58412(8)
H1_6 H 0.3450 0.4689 0.5951
C4_6 C 0.2966(3) 0.4470(3) 0.57690(10)
H2_6 H 0.2740 0.4496 0.5830
C5_6 C 0.2883(3) 0.4316(2) 0.56108(10)
C6_6 C 0.3214(3) 0.4277(2) 0.55268(8)
H3_6 H 0.3155 0.4168 0.5419
C7_6 C 0.3639(3) 0.4395(2) 0.55980(10)
H4_6 H 0.3860 0.4361 0.5538
C8_6 C 0.2452(2) 0.4210(2) 0.55226(9)
C9_6 C 0.19877(18) 0.3976(4) 0.53087(11)
C10_6 C 0.18948(17) 0.3790(3) 0.51228(12)
C11_6 C 0.1484(2) 0.3740(3) 0.50373(10)
H5_6 H 0.1251 0.3769 0.5092
C12_6 C 0.1461(2) 0.3648(3) 0.48722(10)
H6_6 H 0.1204 0.3611 0.4812
C13_6 C 0.18047(17) 0.3610(3) 0.47936(12)
C14_6 C 0.17417(15) 0.3484(3) 0.46097(14)
O4_6 O 0.23426(12) 0.40043(14) 0.42683(5)
N3_6 N 0.35679(12) 0.64321(12) 0.42165(9)
C15_6 C 0.21032(19) 0.4207(4) 0.42625(9)
C16_6 C 0.23649(16) 0.4730(3) 0.42464(9)
C17_6 C 0.2845(2) 0.4967(3) 0.42402(8)
H7_6 H 0.3008 0.4805 0.4242
C18_6 C 0.3080(2) 0.5445(3) 0.42323(8)
H8_6 H 0.3405 0.5606 0.4233
C19_6 C 0.28470(19) 0.5694(4) 0.42242(10)
C20_6 C 0.31083(17) 0.6217(3) 0.42175(11)
O5_6 O 0.55001(15) 0.53337(15) 0.61788(5)
O6_6 O 0.57227(13) 0.51035(14) 0.59521(5)
N4_6 N 0.78468(13) 0.5694(3) 0.63192(9)
N5_6 N 0.76020(17) 0.59194(18) 0.65655(8)
C21_6 C 0.5781(3) 0.5274(2) 0.60983(9)
C22_6 C 0.6250(2) 0.5425(2) 0.61743(10)
C23_6 C 0.6335(2) 0.5577(3) 0.63293(11)
H9_6 H 0.6102 0.5595 0.6388
C24_6 C 0.6747(3) 0.5706(3) 0.64051(8)
H10_6 H 0.6791 0.5812 0.6514
C25_6 C 0.7100(3) 0.5686(2) 0.63260(9)
C26_6 C 0.7019(3) 0.5524(3) 0.61649(10)
H11_6 H 0.7251 0.5505 0.6106
C27_6 C 0.6603(3) 0.5393(3) 0.60920(9)
H12_6 H 0.6552 0.5279 0.5984
C28_6 C 0.7560(2) 0.5779(2) 0.64043(8)
C29_6 C 0.79917(15) 0.5983(3) 0.66369(12)
C30_6 C 0.80773(15) 0.6155(3) 0.68118(13)
C31_6 C 0.8443(2) 0.6221(2) 0.68926(9)
H13_6 H 0.8662 0.6173 0.6837
C32_6 C 0.8534(2) 0.6360(2) 0.70603(9)
H14_6 H 0.8806 0.6407 0.7112
C33_6 C 0.82113(13) 0.6423(3) 0.71438(12)
C34_6 C 0.82606(14) 0.6521(3) 0.73301(11)
O8_6 O 0.46631(12) 0.53369(12) 0.63199(9)
O9_6 O 0.26997(15) 0.32994(16) 0.42945(7)
O10_6 O 0.16687(13) 0.26587(14) 0.43358(5)
C35_6 C 0.12398(17) 0.2480(3) 0.43453(10)
C36_6 C 0.09692(19) 0.1939(4) 0.43786(12)
C37_6 C 0.1196(2) 0.1678(3) 0.43876(9)
H15_6 H 0.1522 0.1836 0.4386
C38_6 C 0.0970(2) 0.1219(2) 0.43988(10)
H16_6 H 0.1133 0.1056 0.4397
C39_6 C 0.04903(18) 0.0981(4) 0.44135(14)
C40_6 C 0.02219(18) 0.0444(4) 0.44276(16)
O11_6 O 0.53468(13) 0.46532(13) 0.56067(8)
O12_6 O 0.06261(21) 0.48917(15) 0.59817(6)
O13_6 O 0.01779(21) 0.46742(15) 0.57553(5)
O14_6 O 0.13796(18) 0.34339(13) 0.45415(5)
N7_6 N 0.16693(27) 0.4055(2) 0.53738(7)
C41_6 C 0.0516(4) 0.4724(2) 0.58400(10)
C42_6 C 0.0820(4) 0.4566(2) 0.57604(10)
C43_6 C 0.1189(4) 0.4589(2) 0.58412(8)
H17_6 H 0.1238 0.4689 0.5951
C44_6 C 0.1503(4) 0.4470(3) 0.57690(10)
H18_6 H 0.1755 0.4496 0.5830
C45_6 C 0.1432(4) 0.4316(2) 0.56108(10)
C46_6 C 0.1062(4) 0.4277(2) 0.55268(8)
H19_6 H 0.1012 0.4168 0.5419
C47_6 C 0.0755(4) 0.4395(2) 0.55980(10)
H20_6 H 0.0500 0.4361 0.5538
C48_6 C 0.1757(3) 0.4210(2) 0.55226(9)
C49_6 C 0.2255(4) 0.3740(3) 0.50373(10)
H21_6 H 0.2517 0.3769 0.5092
C50_6 C 0.2186(4) 0.3648(3) 0.48722(10)
H22_6 H 0.2406 0.3611 0.4812
O15_6 O 0.16616(18) 0.76574(12) 0.42683(5)
N8_6 N 0.28641(17) 0.64321(12) 0.42165(9)
C51_6 C 0.21034(44) 0.78968(19) 0.42625(9)
C52_6 C 0.23647(34) 0.76351(16) 0.42464(9)
C53_6 C 0.2121(4) 0.7155(2) 0.42402(8)
H23_6 H 0.1796 0.6992 0.4242
C54_6 C 0.2364(4) 0.6920(2) 0.42323(8)
H24_6 H 0.2200 0.6595 0.4233
C55_6 C 0.28466(44) 0.71530(19) 0.42242(10)
C56_6 C 0.31083(34) 0.68917(17) 0.42175(11)
O16_6 O 0.59957(14) 0.83384(18) 0.42683(5)
N9_6 N 0.35679(12) 0.71359(17) 0.42165(9)
C57_6 C 0.5793(4) 0.78966(44) 0.42625(9)
C58_6 C 0.5270(3) 0.76353(34) 0.42464(9)
C59_6 C 0.5033(3) 0.7879(4) 0.42402(8)
H25_6 H 0.5195 0.8204 0.4242
C60_6 C 0.4555(3) 0.7636(4) 0.42323(8)
H26_6 H 0.4394 0.7800 0.4233
C61_6 C 0.4306(4) 0.71534(44) 0.42242(10)
C62_6 C 0.3783(3) 0.68917(34) 0.42175(11)
O17_6 O 0.59957(14) 0.76574(12) 0.42683(5)
C63_6 C 0.5033(3) 0.7155(2) 0.42402(8)
H27_6 H 0.5195 0.6992 0.4242
C64_6 C 0.4555(3) 0.6920(2) 0.42323(8)
H28_6 H 0.4394 0.6595 0.4233
O18_6 O 0.23426(12) 0.83384(18) 0.42683(5)
C65_6 C 0.2845(2) 0.7879(4) 0.42402(8)
H29_6 H 0.3008 0.8204 0.4242
C66_6 C 0.3080(2) 0.7636(4) 0.42323(8)
H30_6 H 0.3405 0.7800 0.4233
O19_6 O 0.16616(18) 0.40043(14) 0.42683(5)
C67_6 C 0.2121(4) 0.4967(3) 0.42402(8)
H31_6 H 0.1796 0.4805 0.4242
C68_6 C 0.2364(4) 0.5445(3) 0.42323(8)
H32_6 H 0.2200 0.5606 0.4233
O20_6 O 0.98335(21) 0.53337(15) 0.61788(5)
O21_6 O 0.93807(19) 0.51035(14) 0.59521(5)
N10_6 N 0.83173(25) 0.59194(18) 0.65655(8)
C69_6 C 0.9492(4) 0.5274(2) 0.60983(9)
C70_6 C 0.9174(3) 0.5425(2) 0.61743(10)
C71_6 C 0.9241(4) 0.5577(3) 0.63293(11)
H33_6 H 0.9492 0.5595 0.6388
C72_6 C 0.8958(4) 0.5706(3) 0.64051(8)
H34_6 H 0.9020 0.5812 0.6514
C73_6 C 0.8585(4) 0.5686(2) 0.63260(9)
C74_6 C 0.8504(4) 0.5524(3) 0.61649(10)
H35_6 H 0.8253 0.5505 0.6106
C75_6 C 0.8789(4) 0.5393(3) 0.60920(9)
H36_6 H 0.8726 0.5279 0.5984
C76_6 C 0.8218(3) 0.5779(2) 0.64043(8)
C77_6 C 0.7777(3) 0.6221(2) 0.68926(9)
H37_6 H 0.7510 0.6173 0.6837
C78_6 C 0.7825(3) 0.6360(2) 0.70603(9)
H38_6 H 0.7600 0.6407 0.7112
N11_6 N 0.04687(17) 0.02344(12) 0.44250(12)
H46_6 H 0.1133 0.0078 0.4397
O27_6 O 0.09899(19) 0.26587(14) 0.43358(5)
C95_6 C 0.0481(4) 0.1678(3) 0.43876(9)
H47_6 H 0.0313 0.1836 0.4386
C96_6 C 0.0248(3) 0.1219(2) 0.43988(10)
Cu7_6 Cu 0.513149(17) 0.026299(24) 0.583237(11)
O43_6 O 0.55001(15) 0.01665(21) 0.61788(5)
O44_6 O 0.57227(13) 0.06193(19) 0.59521(5)
N19_6 N 0.78468(33) 0.21532(13) 0.63192(9)
N20_6 N 0.76020(17) 0.16827(25) 0.65655(8)
C145_6 C 0.5781(3) 0.0508(4) 0.60983(9)
C146_6 C 0.6250(2) 0.0826(3) 0.61743(10)
C147_6 C 0.6335(2) 0.0759(4) 0.63293(11)
H73_6 H 0.6102 0.0508 0.6388
C148_6 C 0.6747(3) 0.1042(4) 0.64051(8)
H74_6 H 0.6791 0.0980 0.6514
C149_6 C 0.7100(3) 0.1415(4) 0.63260(9)
C150_6 C 0.7019(3) 0.1496(4) 0.61649(10)
H75_6 H 0.7251 0.1747 0.6106
C151_6 C 0.6603(3) 0.1211(4) 0.60920(9)
H76_6 H 0.6552 0.1274 0.5984
C152_6 C 0.7560(2) 0.1782(3) 0.64043(8)
C153_6 C 0.79909(34) 0.20083(15) 0.66369(12)
C154_6 C 0.80773(34) 0.19227(15) 0.68118(13)
C155_6 C 0.8443(2) 0.2223(3) 0.68926(9)
H77_6 H 0.8662 0.2490 0.6837
C156_6 C 0.8534(2) 0.2175(3) 0.70603(9)
H78_6 H 0.8806 0.2400 0.7112
C157_6 C 0.82113(33) 0.17887(13) 0.71438(12)
C158_6 C 0.82600(33) 0.17394(14) 0.73301(11)
O48_6 O 0.53468(13) 0.06937(18) 0.56067(8)
O49_6 O 0.98335(21) 0.44999(15) 0.61788(5)
O50_6 O 0.93807(19) 0.42773(13) 0.59521(5)
N21_6 N 0.83173(25) 0.23980(17) 0.65655(8)
C159_6 C 0.9492(4) 0.4219(3) 0.60983(9)
C160_6 C 0.9174(3) 0.3750(2) 0.61743(10)
C161_6 C 0.9241(4) 0.3665(2) 0.63293(11)
H79_6 H 0.9492 0.3898 0.6388
C162_6 C 0.8958(4) 0.3253(3) 0.64051(8)
H80_6 H 0.9020 0.3209 0.6514
C163_6 C 0.8585(4) 0.2900(3) 0.63260(9)
C164_6 C 0.8504(4) 0.2981(3) 0.61649(10)
H81_6 H 0.8253 0.2749 0.6106
C165_6 C 0.8789(4) 0.3397(3) 0.60920(9)
H82_6 H 0.8726 0.3448 0.5984
C166_6 C 0.8218(3) 0.2440(2) 0.64043(8)
C167_6 C 0.7777(3) 0.1557(2) 0.68926(9)
H83_6 H 0.7510 0.1338 0.6837
C168_6 C 0.7825(3) 0.1466(2) 0.70603(9)
H84_6 H 0.7600 0.1194 0.7112
O52_6 O 0.06737(17) 0.53369(12) 0.63199(9)
O53_6 O 0.05996(22) 0.32994(16) 0.42945(7)
O55_6 O 0.46663(15) 0.44999(15) 0.61788(5)
O56_6 O 0.48965(14) 0.42773(13) 0.59521(5)
N22_6 N 0.4306(3) 0.21532(33) 0.63192(9)
N23_6 N 0.40806(18) 0.23980(17) 0.65655(8)
C169_6 C 0.4726(2) 0.4219(3) 0.60983(9)
C170_6 C 0.4575(2) 0.3750(2) 0.61743(10)
C171_6 C 0.4423(3) 0.3665(2) 0.63293(11)
H85_6 H 0.4405 0.3898 0.6388
C172_6 C 0.4294(3) 0.3253(3) 0.64051(8)
H86_6 H 0.4188 0.3209 0.6514
C173_6 C 0.4314(2) 0.2900(3) 0.63260(9)
C174_6 C 0.4476(3) 0.2981(3) 0.61649(10)
H87_6 H 0.4495 0.2749 0.6106
C175_6 C 0.4607(3) 0.3397(3) 0.60920(9)
H88_6 H 0.4721 0.3448 0.5984
C176_6 C 0.4221(2) 0.2440(2) 0.64043(8)
C177_6 C 0.4017(3) 0.20091(34) 0.66369(12)
C178_6 C 0.3845(3) 0.19227(34) 0.68118(13)
C179_6 C 0.3779(2) 0.1557(2) 0.68926(9)
H89_6 H 0.3827 0.1338 0.6837
C180_6 C 0.3640(2) 0.1466(2) 0.70603(9)
H90_6 H 0.3593 0.1194 0.7112
C181_6 C 0.3577(3) 0.17887(33) 0.71438(12)
C182_6 C 0.3479(3) 0.17400(33) 0.73301(11)
O58_6 O 0.46663(15) 0.01665(21) 0.61788(5)
O59_6 O 0.48965(14) 0.06193(19) 0.59521(5)
N24_6 N 0.40806(18) 0.16827(25) 0.65655(8)
C183_6 C 0.4726(2) 0.0508(4) 0.60983(9)
C184_6 C 0.4575(2) 0.0826(3) 0.61743(10)
C185_6 C 0.4423(3) 0.0759(4) 0.63293(11)
H91_6 H 0.4405 0.0508 0.6388
C186_6 C 0.4294(3) 0.1042(4) 0.64051(8)
H92_6 H 0.4188 0.0980 0.6514
C187_6 C 0.4314(2) 0.1415(4) 0.63260(9)
C188_6 C 0.4476(3) 0.1496(4) 0.61649(10)
H93_6 H 0.4495 0.1747 0.6106
C189_6 C 0.4607(3) 0.1211(4) 0.60920(9)
H94_6 H 0.4721 0.1274 0.5984
C190_6 C 0.4221(2) 0.1782(3) 0.64043(8)
C191_6 C 0.3779(2) 0.2223(3) 0.68926(9)
H95_6 H 0.3827 0.2490 0.6837
C192_6 C 0.3640(2) 0.2175(3) 0.70603(9)
H96_6 H 0.3593 0.2400 0.7112
Cu15_6 Cu 0.973701(24) 0.486851(17) 0.583237(11)
O61_6 O 0.06261(21) 0.57345(14) 0.59817(6)
O63_6 O 0.51083(15) 0.57345(14) 0.59817(6)
O64_6 O 0.01779(21) 0.55038(15) 0.57553(5)
O66_6 O 0.53258(15) 0.55038(15) 0.57553(5)
O23_6 O 0.09899(19) 0.83313(13) 0.43358(5)
C79_6 C 0.12398(34) 0.87602(17) 0.43453(10)
C80_6 C 0.09694(44) 0.90308(19) 0.43786(12)
C81_6 C 0.0481(4) 0.8804(2) 0.43876(9)
H39_6 H 0.0313 0.8478 0.4386
C82_6 C 0.0248(3) 0.9030(2) 0.43988(10)
C83_6 C 0.04903(44) 0.95097(18) 0.44135(14)
C84_6 C 0.02217(44) 0.97781(18) 0.44276(16)
O26_6 O 0.16687(13) 0.90101(19) 0.43358(5)
C93_6 C 0.1196(2) 0.9519(4) 0.43876(9)
H45_6 H 0.1522 0.9687 0.4386
C94_6 C 0.0970(2) 0.9752(3) 0.43988(10)
O30_6 O 0.13796(18) 0.79458(13) 0.45415(5)
N13_6 N 0.21384(23) 0.78618(12) 0.56017(8)
N14_6 N 0.16693(27) 0.76147(18) 0.53738(7)
C97_6 C 0.0516(4) 0.5793(3) 0.58400(10)
C98_6 C 0.0820(4) 0.6255(3) 0.57604(10)
C99_6 C 0.1189(4) 0.6601(3) 0.58412(8)
H49_6 H 0.1238 0.6550 0.5951
C100_6 C 0.1503(4) 0.7034(3) 0.57690(10)
H50_6 H 0.1755 0.7260 0.5830
C101_6 C 0.1432(4) 0.7117(3) 0.56108(10)
C102_6 C 0.1062(4) 0.6786(3) 0.55268(8)
H51_6 H 0.1012 0.6845 0.5419
C103_6 C 0.0755(4) 0.6361(3) 0.55980(10)
H52_6 H 0.0500 0.6140 0.5538
C104_6 C 0.1757(3) 0.7548(2) 0.55226(9)
C105_6 C 0.19879(44) 0.80123(18) 0.53087(11)
C106_6 C 0.18948(34) 0.81052(17) 0.51228(12)
C107_6 C 0.2255(4) 0.8516(2) 0.50373(10)
H53_6 H 0.2517 0.8749 0.5092
C108_6 C 0.2186(4) 0.8539(2) 0.48722(10)
H54_6 H 0.2406 0.8796 0.4812
C109_6 C 0.18049(34) 0.81953(17) 0.47936(12)
C110_6 C 0.17419(34) 0.82583(15) 0.46097(14)
O31_6 O 0.05996(22) 0.73003(15) 0.42945(7)
O32_6 O 0.42655(14) 0.93739(21) 0.59817(6)
O33_6 O 0.44962(15) 0.98221(21) 0.57553(5)
O34_6 O 0.20542(13) 0.86204(18) 0.45415(5)
N15_6 N 0.23853(18) 0.83307(27) 0.53738(7)
C111_6 C 0.4207(3) 0.9484(4) 0.58400(10)
C112_6 C 0.3745(3) 0.9180(4) 0.57604(10)
C113_6 C 0.3399(3) 0.8811(4) 0.58412(8)
H55_6 H 0.3450 0.8762 0.5951
C114_6 C 0.2966(3) 0.8497(4) 0.57690(10)
H56_6 H 0.2740 0.8245 0.5830
C115_6 C 0.2883(3) 0.8568(4) 0.56108(10)
C116_6 C 0.3214(3) 0.8938(4) 0.55268(8)
H57_6 H 0.3155 0.8988 0.5419
C117_6 C 0.3639(3) 0.9245(4) 0.55980(10)
H58_6 H 0.3860 0.9500 0.5538
C118_6 C 0.2452(2) 0.8243(3) 0.55226(9)
C119_6 C 0.1484(2) 0.7745(4) 0.50373(10)
H59_6 H 0.1251 0.7483 0.5092
C120_6 C 0.1461(2) 0.7814(4) 0.48722(10)
H60_6 H 0.1204 0.7594 0.4812
Cu8_6 Cu 0.486582(16) 0.973165(23) 0.610150(11)
O46_6 O 0.46631(12) 0.93263(17) 0.63199(9)
O47_6 O 0.26997(15) 0.94004(22) 0.42945(7)
O62_6 O 0.51083(15) 0.93739(21) 0.59817(6)
O65_6 O 0.53258(15) 0.98221(21) 0.57553(5)
N6_6 N 0.97656(12) 0.02344(12) 0.44250(12)
H42_6 H 0.8944 0.0078 0.4397
H48_6 H 0.9922 0.1056 0.4397
O54_6 O 0.93063(18) 0.46532(13) 0.56067(8)
H40_6 H 0.9922 0.8867 0.4397
O24_6 O 0.73413(14) 0.90101(19) 0.43358(5)
N12_6 N 0.97656(12) 0.95313(17) 0.44250(12)
C85_6 C 0.7520(3) 0.87602(34) 0.43453(10)
C86_6 C 0.8061(4) 0.90306(44) 0.43786(12)
C87_6 C 0.8322(3) 0.9519(4) 0.43876(9)
H41_6 H 0.8164 0.9687 0.4386
C88_6 C 0.8781(2) 0.9752(3) 0.43988(10)
C89_6 C 0.9019(4) 0.95097(44) 0.44135(14)
C90_6 C 0.9556(4) 0.97783(44) 0.44276(16)
O25_6 O 0.73413(14) 0.83313(13) 0.43358(5)
C91_6 C 0.8322(3) 0.8804(2) 0.43876(9)
H43_6 H 0.8164 0.8478 0.4386
C92_6 C 0.8781(2) 0.9030(2) 0.43988(10)
H44_6 H 0.8944 0.8867 0.4397
O37_6 O 0.65661(13) 0.86204(18) 0.45415(5)
N16_6 N 0.5723(2) 0.78616(23) 0.56017(8)
N17_6 N 0.5945(2) 0.83307(27) 0.53738(7)
C121_6 C 0.5276(2) 0.9484(4) 0.58400(10)
C122_6 C 0.5434(2) 0.9180(4) 0.57604(10)
C123_6 C 0.5411(2) 0.8811(4) 0.58412(8)
H61_6 H 0.5311 0.8762 0.5951
C124_6 C 0.5530(3) 0.8497(4) 0.57690(10)
H62_6 H 0.5504 0.8245 0.5830
C125_6 C 0.5684(2) 0.8568(4) 0.56108(10)
C126_6 C 0.5723(2) 0.8938(4) 0.55268(8)
H63_6 H 0.5832 0.8988 0.5419
C127_6 C 0.5605(2) 0.9245(4) 0.55980(10)
H64_6 H 0.5639 0.9500 0.5538
C128_6 C 0.5790(2) 0.8243(3) 0.55226(9)
C129_6 C 0.6024(4) 0.80121(44) 0.53087(11)
C130_6 C 0.6210(3) 0.81052(34) 0.51228(12)
C131_6 C 0.6260(3) 0.7745(4) 0.50373(10)
H65_6 H 0.6231 0.7483 0.5092
C132_6 C 0.6352(3) 0.7814(4) 0.48722(10)
H66_6 H 0.6389 0.7594 0.4812
C133_6 C 0.6390(3) 0.81951(34) 0.47936(12)
C134_6 C 0.6516(3) 0.82581(34) 0.46097(14)
O38_6 O 0.67006(16) 0.94004(22) 0.42945(7)
O41_6 O 0.65661(13) 0.79458(13) 0.45415(5)
N18_6 N 0.5945(2) 0.76147(18) 0.53738(7)
C135_6 C 0.5276(2) 0.5793(3) 0.58400(10)
C136_6 C 0.5434(2) 0.6255(3) 0.57604(10)
C137_6 C 0.5411(2) 0.6601(3) 0.58412(8)
H67_6 H 0.5311 0.6550 0.5951
C138_6 C 0.5530(3) 0.7034(3) 0.57690(10)
H68_6 H 0.5504 0.7260 0.5830
C139_6 C 0.5684(2) 0.7117(3) 0.56108(10)
C140_6 C 0.5723(2) 0.6786(3) 0.55268(8)
H69_6 H 0.5832 0.6845 0.5419
C141_6 C 0.5605(2) 0.6361(3) 0.55980(10)
H70_6 H 0.5639 0.6140 0.5538
C142_6 C 0.5790(2) 0.7548(2) 0.55226(9)
C143_6 C 0.6260(3) 0.8516(2) 0.50373(10)
H71_6 H 0.6231 0.8749 0.5092
C144_6 C 0.6352(3) 0.8539(2) 0.48722(10)
H72_6 H 0.6389 0.8796 0.4812
O42_6 O 0.67006(16) 0.73003(15) 0.42945(7)
H112_4 H 0.630311 0.0285786 0.0943327
H114_4 H 0.398267 0.0285786 0.0943327
H120_6 H 0.975561 0.371482 0.101864
H120_7 H 0.975561 0.60408 0.101864
H120_8 H 0.628518 0.0244387 0.101864
loop_
_geom_bond_atom_site_label_1
_geom_bond_atom_site_label_2
_geom_bond_site_symmetry_1
_geom_bond_site_symmetry_2
O16 C57 1_555 1_555
C57 C58 1_555 1_555
C58 C59 1_555 1_555
C59 H25 1_555 1_555
C60 C59 1_555 1_555
H26 C60 1_555 1_555
C61 C60 1_555 1_555
O17 C57 1_555 1_555
C63 C58 1_555 1_555
H27 C63 1_555 1_555
C64 C61 1_555 1_555
Cu22 O16 1_555 1_555
Cu26 O17 1_555 1_555
N9 C62 1_555 1_555
C61 C62 1_555 1_555
C63 C64 1_555 1_555
Cu22 Cu26 1_555 1_555
O15 C51 1_555 1_555
C51 C52 1_555 1_555
C52 C53 1_555 1_555
C53 H23 1_555 1_555
C54 C53 1_555 1_555
C55 C54 1_555 1_555
O18 C51 1_555 1_555
C65 C52 1_555 1_555
H29 C65 1_555 1_555
C66 C55 1_555 1_555
Cu21 O15 1_555 1_555
Cu28 O18 1_555 1_555
C55 C56 1_555 1_555
C65 C66 1_555 1_555
Cu21 Cu28 1_555 1_555
Cu1 Cu2 1_555 1_555
Cu2 O1 1_555 1_555
O1 C1 1_555 1_555
O2 Cu1 1_555 1_555
C1 O2 1_555 1_555
C2 C1 1_555 1_555
C3 C2 1_555 1_555
H1 C3 1_555 1_555
C7 C2 1_555 1_555
H4 C7 1_555 1_555
O5 Cu2 1_555 1_555
O6 Cu1 1_555 1_555
N4 C28 1_555 1_555
N5 C28 1_555 1_555
C21 O5 1_555 1_555
C22 C21 1_555 1_555
C23 C22 1_555 1_555
H9 C23 1_555 1_555
C24 C23 1_555 1_555
H10 C24 1_555 1_555
C25 C24 1_555 1_555
C26 C25 1_555 1_555
H11 C26 1_555 1_555
C27 C22 1_555 1_555
H12 C27 1_555 1_555
C28 C25 1_555 1_555
C29 N5 1_555 1_555
O8 Cu2 1_555 1_555
O11 Cu1 1_555 1_555
O20 C69 1_555 1_555
O21 C69 1_555 1_555
N10 C29 1_555 1_555
C69 C70 1_555 1_555
C70 C71 1_555 1_555
C71 H33 1_555 1_555
C72 C71 1_555 1_555
H34 C72 1_555 1_555
C73 C72 1_555 1_555
C74 C73 1_555 1_555
H35 C74 1_555 1_555
C75 C70 1_555 1_555
H36 C75 1_555 1_555
C76 N4 1_555 1_555
O32 C111 1_555 1_555
O33 C111 1_555 1_555
C111 C112 1_555 1_555
C112 C113 1_555 1_555
C113 H55 1_555 1_555
C117 C112 1_555 1_555
H58 C117 1_555 1_555
Cu7 O33 1_555 1_555
Cu8 O32 1_555 1_555
O43 Cu8 1_555 1_555
O44 Cu7 1_555 1_555
N19 C152 1_555 1_555
N20 C152 1_555 1_555
C145 O43 1_555 1_555
C146 C145 1_555 1_555
C147 C146 1_555 1_555
H73 C147 1_555 1_555
C148 C147 1_555 1_555
H74 C148 1_555 1_555
C149 C148 1_555 1_555
C150 C149 1_555 1_555
H75 C150 1_555 1_555
C151 C146 1_555 1_555
H76 C151 1_555 1_555
C152 C149 1_555 1_555
C153 N20 1_555 1_555
O46 Cu8 1_555 1_555
O48 Cu7 1_555 1_555
O49 C159 1_555 1_555
O50 C159 1_555 1_555
N21 C153 1_555 1_555
C159 C160 1_555 1_555
C160 C161 1_555 1_555
C161 H79 1_555 1_555
C162 C161 1_555 1_555
H80 C162 1_555 1_555
C163 C162 1_555 1_555
C164 C163 1_555 1_555
H81 C164 1_555 1_555
C165 C160 1_555 1_555
H82 C165 1_555 1_555
C166 N19 1_555 1_555
O55 Cu2 1_555 1_555
O56 Cu1 1_555 1_555
N22 C176 1_555 1_555
N23 C176 1_555 1_555
C169 O55 1_555 1_555
C170 C169 1_555 1_555
C171 C170 1_555 1_555
H85 C171 1_555 1_555
C172 C171 1_555 1_555
H86 C172 1_555 1_555
C173 C172 1_555 1_555
C174 C173 1_555 1_555
H87 C174 1_555 1_555
C175 C170 1_555 1_555
H88 C175 1_555 1_555
C176 C173 1_555 1_555
C177 N23 1_555 1_555
O58 Cu8 1_555 1_555
O59 Cu7 1_555 1_555
N24 C177 1_555 1_555
C183 O58 1_555 1_555
C184 C183 1_555 1_555
C185 C184 1_555 1_555
H91 C185 1_555 1_555
C186 C185 1_555 1_555
H92 C186 1_555 1_555
C187 C186 1_555 1_555
C188 C187 1_555 1_555
H93 C188 1_555 1_555
C189 C184 1_555 1_555
H94 C189 1_555 1_555
C190 N22 1_555 1_555
Cu15 O21 1_555 1_555
Cu19 O20 1_555 1_555
O62 Cu8 1_555 1_555
O63 Cu2 1_555 1_555
O65 Cu7 1_555 1_555
O66 Cu1 1_555 1_555
O6 C21 1_555 1_555
C26 C27 1_555 1_555
N10 C76 1_555 1_555
C73 C76 1_555 1_555
C74 C75 1_555 1_555
Cu7 Cu8 1_555 1_555
O44 C145 1_555 1_555
C150 C151 1_555 1_555
O49 Cu19 1_555 1_555
O50 Cu15 1_555 1_555
N21 C166 1_555 1_555
C163 C166 1_555 1_555
C164 C165 1_555 1_555
O56 C169 1_555 1_555
C174 C175 1_555 1_555
O59 C183 1_555 1_555
N24 C190 1_555 1_555
C187 C190 1_555 1_555
C188 C189 1_555 1_555
Cu15 Cu19 1_555 1_555
O7 C34 1_555 1_555
C31 C30 1_555 1_555
H13 C31 1_555 1_555
C32 C31 1_555 1_555
H14 C32 1_555 1_555
C33 C32 1_555 1_555
C34 C33 1_555 1_555
O22 C34 1_555 1_555
C77 C30 1_555 1_555
H37 C77 1_555 1_555
C78 C33 1_555 1_555
H38 C78 1_555 1_555
O45 C158 1_555 1_555
C155 C154 1_555 1_555
H77 C155 1_555 1_555
C156 C155 1_555 1_555
H78 C156 1_555 1_555
C157 C156 1_555 1_555
C158 C157 1_555 1_555
O51 C158 1_555 1_555
C167 C154 1_555 1_555
H83 C167 1_555 1_555
C168 C157 1_555 1_555
H84 C168 1_555 1_555
O57 C182 1_555 1_555
C179 C178 1_555 1_555
H89 C179 1_555 1_555
C180 C179 1_555 1_555
H90 C180 1_555 1_555
C181 C180 1_555 1_555
C182 C181 1_555 1_555
O60 C182 1_555 1_555
C191 C178 1_555 1_555
H95 C191 1_555 1_555
C192 C181 1_555 1_555
H96 C192 1_555 1_555
Cu23 O7 1_555 1_555
Cu24 O51 1_555 1_555
Cu25 O60 1_555 1_555
Cu27 O57 1_555 1_555
Cu29 O45 1_555 1_555
Cu30 O22 1_555 1_555
C77 C78 1_555 1_555
C167 C168 1_555 1_555
C191 C192 1_555 1_555
Cu23 Cu30 1_555 1_555
Cu24 Cu29 1_555 1_555
Cu25 Cu27 1_555 1_555
Cu3 O3 1_555 1_555
O3 C14 1_555 1_555
N1 C8 1_555 1_555
N2 C8 1_555 1_555
H2 C4 1_555 1_555
C5 C4 1_555 1_555
C6 C5 1_555 1_555
H3 C6 1_555 1_555
C8 C5 1_555 1_555
C9 N2 1_555 1_555
C10 C9 1_555 1_555
C11 C10 1_555 1_555
H5 C11 1_555 1_555
C12 C11 1_555 1_555
H6 C12 1_555 1_555
C13 C12 1_555 1_555
C14 C13 1_555 1_555
O4 Cu3 1_555 1_555
C15 O4 1_555 1_555
C16 C15 1_555 1_555
C17 C16 1_555 1_555
H7 C17 1_555 1_555
C18 C17 1_555 1_555
C19 C18 1_555 1_555
C20 C19 1_555 1_555
O9 Cu3 1_555 1_555
O10 Cu3 1_555 1_555
N6 C40 1_555 1_555
C35 O10 1_555 1_555
C36 C35 1_555 1_555
C37 C36 1_555 1_555
H15 C37 1_555 1_555
C38 C37 1_555 1_555
H16 C38 1_555 1_555
C39 C38 1_555 1_555
C40 C39 1_555 1_555
O12 C41 1_555 1_555
O13 C41 1_555 1_555
O14 C14 1_555 1_555
N7 C9 1_555 1_555
C41 C42 1_555 1_555
C42 C43 1_555 1_555
C43 H17 1_555 1_555
C44 C43 1_555 1_555
H18 C44 1_555 1_555
C45 C44 1_555 1_555
C46 C45 1_555 1_555
H19 C46 1_555 1_555
C47 C42 1_555 1_555
H20 C47 1_555 1_555
C48 N1 1_555 1_555
C49 C10 1_555 1_555
H21 C49 1_555 1_555
C50 C13 1_555 1_555
H22 C50 1_555 1_555
N8 C20 1_555 1_555
O19 C15 1_555 1_555
C67 C16 1_555 1_555
H31 C67 1_555 1_555
C68 C19 1_555 1_555
H32 C68 1_555 1_555
O23 C79 1_555 1_555
N11 C40 1_555 1_555
C79 C80 1_555 1_555
C80 C81 1_555 1_555
C81 H39 1_555 1_555
C82 C81 1_555 1_555
H40 C82 1_555 1_555
C83 C82 1_555 1_555
C84 N11 1_555 1_555
O24 C85 1_555 1_555
N12 C84 1_555 1_555
C85 C86 1_555 1_555
C86 C87 1_555 1_555
C87 H41 1_555 1_555
C88 C87 1_555 1_555
H42 C88 1_555 1_555
C89 C88 1_555 1_555
C90 N6 1_555 1_555
O25 C85 1_555 1_555
C91 C86 1_555 1_555
H43 C91 1_555 1_555
C92 C89 1_555 1_555
H44 C92 1_555 1_555
O26 C79 1_555 1_555
C93 C80 1_555 1_555
H45 C93 1_555 1_555
C94 C83 1_555 1_555
H46 C94 1_555 1_555
O27 C35 1_555 1_555
C95 C36 1_555 1_555
H47 C95 1_555 1_555
C96 C39 1_555 1_555
H48 C96 1_555 1_555
Cu21 O23 1_555 1_555
O30 Cu21 1_555 1_555
N13 C104 1_555 1_555
N14 C104 1_555 1_555
H50 C100 1_555 1_555
C101 C100 1_555 1_555
C102 C101 1_555 1_555
H51 C102 1_555 1_555
C104 C101 1_555 1_555
C105 N14 1_555 1_555
C106 C105 1_555 1_555
C107 C106 1_555 1_555
H53 C107 1_555 1_555
C108 C107 1_555 1_555
H54 C108 1_555 1_555
C109 C108 1_555 1_555
C110 O30 1_555 1_555
O31 Cu21 1_555 1_555
O34 C110 1_555 1_555
N15 C105 1_555 1_555
H56 C114 1_555 1_555
C115 C114 1_555 1_555
C116 C115 1_555 1_555
H57 C116 1_555 1_555
C118 N13 1_555 1_555
C119 C106 1_555 1_555
H59 C119 1_555 1_555
C120 C109 1_555 1_555
H60 C120 1_555 1_555
Cu22 O24 1_555 1_555
O62 C121 1_555 1_555
O65 C121 1_555 1_555
O37 Cu22 1_555 1_555
N16 C128 1_555 1_555
N17 C128 1_555 1_555
C121 C122 1_555 1_555
C122 C123 1_555 1_555
C123 H61 1_555 1_555
C124 C123 1_555 1_555
H62 C124 1_555 1_555
C125 C124 1_555 1_555
C126 C125 1_555 1_555
H63 C126 1_555 1_555
C127 C122 1_555 1_555
H64 C127 1_555 1_555
C128 C125 1_555 1_555
C129 N17 1_555 1_555
C130 C129 1_555 1_555
C131 C130 1_555 1_555
H65 C131 1_555 1_555
C132 C131 1_555 1_555
H66 C132 1_555 1_555
C133 C132 1_555 1_555
C134 O37 1_555 1_555
O38 Cu22 1_555 1_555
O41 C134 1_555 1_555
N18 C129 1_555 1_555
H68 C138 1_555 1_555
C139 C138 1_555 1_555
C140 C139 1_555 1_555
H69 C140 1_555 1_555
C142 N16 1_555 1_555
C143 C130 1_555 1_555
H71 C143 1_555 1_555
C144 C133 1_555 1_555
H72 C144 1_555 1_555
Cu26 O25 1_555 1_555
O42 Cu26 1_555 1_555
Cu28 O26 1_555 1_555
O47 Cu28 1_555 1_555
Cu15 O13 1_555 1_555
Cu19 O12 1_555 1_555
Cu12 Cu3 1_555 1_555
O52 Cu19 1_555 1_555
O53 Cu12 1_555 1_555
O54 Cu15 1_555 1_555
O61 Cu19 1_555 1_555
O64 Cu15 1_555 1_555
O75 Cu3 1_555 1_555
O76 Cu21 1_555 1_555
O77 Cu22 1_555 1_555
O78 Cu26 1_555 1_555
O79 Cu28 1_555 1_555
O80 Cu12 1_555 1_555
O14 Cu12 1_555 1_555
N7 C48 1_555 1_555
C45 C48 1_555 1_555
C46 C47 1_555 1_555
C49 C50 1_555 1_555
O19 Cu12 1_555 1_555
C67 C68 1_555 1_555
C83 C84 1_555 1_555
N12 C90 1_555 1_555
C89 C90 1_555 1_555
C91 C92 1_555 1_555
C93 C94 1_555 1_555
O27 Cu12 1_555 1_555
C95 C96 1_555 1_555
C109 C110 1_555 1_555
O34 Cu28 1_555 1_555
N15 C118 1_555 1_555
C115 C118 1_555 1_555
C119 C120 1_555 1_555
C126 C127 1_555 1_555
C133 C134 1_555 1_555
O41 Cu26 1_555 1_555
N18 C142 1_555 1_555
C139 C142 1_555 1_555
C143 C144 1_555 1_555
O61 C97 1_555 1_555
O64 C97 1_555 1_555
C97 C98 1_555 1_555
C98 C99 1_555 1_555
C99 H49 1_555 1_555
C103 C98 1_555 1_555
H52 C103 1_555 1_555
O63 C135 1_555 1_555
O66 C135 1_555 1_555
C135 C136 1_555 1_555
C136 C137 1_555 1_555
C137 H67 1_555 1_555
C141 C136 1_555 1_555
H70 C141 1_555 1_555
Cu1_2 Cu2_2 1_555 1_555
Cu2_2 O1_2 1_555 1_555
Cu3_2 O3_2 1_555 1_555
O1_2 C1_2 1_555 1_555
O2_2 Cu1_2 1_555 1_555
O3_2 C14_2 1_555 1_555
N1_2 C8_2 1_555 1_555
N2_2 C8_2 1_555 1_555
C1_2 O2_2 1_555 1_555
C2_2 C1_2 1_555 1_555
C3_2 C2_2 1_555 1_555
H1_2 C3_2 1_555 1_555
C4_2 C3_2 1_555 1_555
H2_2 C4_2 1_555 1_555
C5_2 C4_2 1_555 1_555
C6_2 C5_2 1_555 1_555
H3_2 C6_2 1_555 1_555
C7_2 C2_2 1_555 1_555
H4_2 C7_2 1_555 1_555
C8_2 C5_2 1_555 1_555
C9_2 N2_2 1_555 1_555
C10_2 C9_2 1_555 1_555
C11_2 C10_2 1_555 1_555
H5_2 C11_2 1_555 1_555
C12_2 C11_2 1_555 1_555
H6_2 C12_2 1_555 1_555
C13_2 C12_2 1_555 1_555
C14_2 C13_2 1_555 1_555
O4_2 Cu3_2 1_555 1_555
N3_2 C20_2 1_555 1_555
C15_2 O4_2 1_555 1_555
C16_2 C15_2 1_555 1_555
C17_2 C16_2 1_555 1_555
H7_2 C17_2 1_555 1_555
C18_2 C17_2 1_555 1_555
H8_2 C18_2 1_555 1_555
C19_2 C18_2 1_555 1_555
C20_2 C19_2 1_555 1_555
O5_2 Cu2_2 1_555 1_555
O6_2 Cu1_2 1_555 1_555
O75 C34_2 1_555 1_555
N4_2 C28_2 1_555 1_555
N5_2 C28_2 1_555 1_555
C21_2 O5_2 1_555 1_555
C22_2 C21_2 1_555 1_555
C23_2 C22_2 1_555 1_555
H9_2 C23_2 1_555 1_555
C24_2 C23_2 1_555 1_555
H10_2 C24_2 1_555 1_555
C25_2 C24_2 1_555 1_555
C26_2 C25_2 1_555 1_555
H11_2 C26_2 1_555 1_555
C27_2 C22_2 1_555 1_555
H12_2 C27_2 1_555 1_555
C28_2 C25_2 1_555 1_555
C29_2 N5_2 1_555 1_555
C30_2 C29_2 1_555 1_555
C31_2 C30_2 1_555 1_555
H13_2 C31_2 1_555 1_555
C32_2 C31_2 1_555 1_555
H14_2 C32_2 1_555 1_555
C33_2 C32_2 1_555 1_555
C34_2 C33_2 1_555 1_555
O8_2 Cu2_2 1_555 1_555
O9_2 Cu3_2 1_555 1_555
O10_2 Cu3_2 1_555 1_555
C35_2 O10_2 1_555 1_555
C36_2 C35_2 1_555 1_555
C37_2 C36_2 1_555 1_555
H15_2 C37_2 1_555 1_555
C38_2 C37_2 1_555 1_555
H16_2 C38_2 1_555 1_555
C39_2 C38_2 1_555 1_555
C40_2 C39_2 1_555 1_555
O11_2 Cu1_2 1_555 1_555
O12_2 C41_2 1_555 1_555
O13_2 C41_2 1_555 1_555
O14_2 C14_2 1_555 1_555
N7_2 C9_2 1_555 1_555
C41_2 C42_2 1_555 1_555
C42_2 C43_2 1_555 1_555
C43_2 H17_2 1_555 1_555
C44_2 C43_2 1_555 1_555
H18_2 C44_2 1_555 1_555
C45_2 C44_2 1_555 1_555
C46_2 C45_2 1_555 1_555
H19_2 C46_2 1_555 1_555
C47_2 C42_2 1_555 1_555
H20_2 C47_2 1_555 1_555
C48_2 N1_2 1_555 1_555
C49_2 C10_2 1_555 1_555
H21_2 C49_2 1_555 1_555
C50_2 C13_2 1_555 1_555
H22_2 C50_2 1_555 1_555
O15_2 C51_2 1_555 1_555
N8_2 C20_2 1_555 1_555
C51_2 C52_2 1_555 1_555
C52_2 C53_2 1_555 1_555
C53_2 H23_2 1_555 1_555
C54_2 C53_2 1_555 1_555
H24_2 C54_2 1_555 1_555
C55_2 C54_2 1_555 1_555
C56_2 N8_2 1_555 1_555
O16_2 C57_2 1_555 1_555
N9_2 C56_2 1_555 1_555
C57_2 C58_2 1_555 1_555
C58_2 C59_2 1_555 1_555
C59_2 H25_2 1_555 1_555
C60_2 C59_2 1_555 1_555
H26_2 C60_2 1_555 1_555
C61_2 C60_2 1_555 1_555
C62_2 N3_2 1_555 1_555
O17_2 C57_2 1_555 1_555
C63_2 C58_2 1_555 1_555
H27_2 C63_2 1_555 1_555
C64_2 C61_2 1_555 1_555
H28_2 C64_2 1_555 1_555
O18_2 C51_2 1_555 1_555
C65_2 C52_2 1_555 1_555
H29_2 C65_2 1_555 1_555
C66_2 C55_2 1_555 1_555
H30_2 C66_2 1_555 1_555
O19_2 C15_2 1_555 1_555
C67_2 C16_2 1_555 1_555
H31_2 C67_2 1_555 1_555
C68_2 C19_2 1_555 1_555
H32_2 C68_2 1_555 1_555
O20_2 C69_2 1_555 1_555
O21_2 C69_2 1_555 1_555
O80 C34_2 1_555 1_555
N10_2 C29_2 1_555 1_555
C69_2 C70_2 1_555 1_555
C70_2 C71_2 1_555 1_555
C71_2 H33_2 1_555 1_555
C72_2 C71_2 1_555 1_555
H34_2 C72_2 1_555 1_555
C73_2 C72_2 1_555 1_555
C74_2 C73_2 1_555 1_555
H35_2 C74_2 1_555 1_555
C75_2 C70_2 1_555 1_555
H36_2 C75_2 1_555 1_555
C76_2 N4_2 1_555 1_555
C77_2 C30_2 1_555 1_555
H37_2 C77_2 1_555 1_555
C78_2 C33_2 1_555 1_555
H38_2 C78_2 1_555 1_555
N11_2 C40_2 1_555 1_555
O27_2 C35_2 1_555 1_555
C95_2 C36_2 1_555 1_555
H47_2 C95_2 1_555 1_555
C96_2 C39_2 1_555 1_555
O44_2 Cu7_2 1_555 1_555
O79 C158_2 1_555 1_555
N19_2 C152_2 1_555 1_555
N20_2 C152_2 1_555 1_555
C145_2 O43_2 1_555 1_555
C146_2 C145_2 1_555 1_555
C147_2 C146_2 1_555 1_555
H73_2 C147_2 1_555 1_555
C148_2 C147_2 1_555 1_555
H74_2 C148_2 1_555 1_555
C149_2 C148_2 1_555 1_555
C150_2 C149_2 1_555 1_555
H75_2 C150_2 1_555 1_555
C151_2 C146_2 1_555 1_555
H76_2 C151_2 1_555 1_555
C152_2 C149_2 1_555 1_555
C153_2 N20_2 1_555 1_555
C154_2 C153_2 1_555 1_555
C155_2 C154_2 1_555 1_555
H77_2 C155_2 1_555 1_555
C156_2 C155_2 1_555 1_555
H78_2 C156_2 1_555 1_555
C157_2 C156_2 1_555 1_555
C158_2 C157_2 1_555 1_555
O48_2 Cu7_2 1_555 1_555
O49_2 C159_2 1_555 1_555
O50_2 C159_2 1_555 1_555
O76 C158_2 1_555 1_555
N21_2 C153_2 1_555 1_555
C159_2 C160_2 1_555 1_555
C160_2 C161_2 1_555 1_555
C161_2 H79_2 1_555 1_555
C162_2 C161_2 1_555 1_555
H80_2 C162_2 1_555 1_555
C163_2 C162_2 1_555 1_555
C164_2 C163_2 1_555 1_555
H81_2 C164_2 1_555 1_555
C165_2 C160_2 1_555 1_555
H82_2 C165_2 1_555 1_555
C166_2 N19_2 1_555 1_555
C167_2 C154_2 1_555 1_555
H83_2 C167_2 1_555 1_555
C168_2 C157_2 1_555 1_555
H84_2 C168_2 1_555 1_555
Cu19_2 O12_2 1_555 1_555
Cu12_2 Cu3_2 1_555 1_555
O52_2 Cu19_2 1_555 1_555
O53_2 Cu12_2 1_555 1_555
O55_2 Cu2_2 1_555 1_555
O56_2 Cu1_2 1_555 1_555
O78 C182_2 1_555 1_555
N22_2 C176_2 1_555 1_555
N23_2 C176_2 1_555 1_555
C169_2 O55_2 1_555 1_555
C170_2 C169_2 1_555 1_555
C171_2 C170_2 1_555 1_555
H85_2 C171_2 1_555 1_555
C172_2 C171_2 1_555 1_555
H86_2 C172_2 1_555 1_555
C173_2 C172_2 1_555 1_555
C174_2 C173_2 1_555 1_555
H87_2 C174_2 1_555 1_555
C175_2 C170_2 1_555 1_555
H88_2 C175_2 1_555 1_555
C176_2 C173_2 1_555 1_555
C177_2 N23_2 1_555 1_555
C178_2 C177_2 1_555 1_555
C179_2 C178_2 1_555 1_555
H89_2 C179_2 1_555 1_555
C180_2 C179_2 1_555 1_555
H90_2 C180_2 1_555 1_555
C181_2 C180_2 1_555 1_555
C182_2 C181_2 1_555 1_555
O59_2 Cu7_2 1_555 1_555
O77 C182_2 1_555 1_555
N24_2 C177_2 1_555 1_555
C183_2 O58_2 1_555 1_555
C184_2 C183_2 1_555 1_555
C185_2 C184_2 1_555 1_555
H91_2 C185_2 1_555 1_555
C186_2 C185_2 1_555 1_555
H92_2 C186_2 1_555 1_555
C187_2 C186_2 1_555 1_555
C188_2 C187_2 1_555 1_555
H93_2 C188_2 1_555 1_555
C189_2 C184_2 1_555 1_555
H94_2 C189_2 1_555 1_555
C190_2 N22_2 1_555 1_555
C191_2 C178_2 1_555 1_555
H95_2 C191_2 1_555 1_555
C192_2 C181_2 1_555 1_555
H96_2 C192_2 1_555 1_555
Cu15_2 O21_2 1_555 1_555
Cu21_2 O15_2 1_555 1_555
Cu22_2 O16_2 1_555 1_555
Cu26_2 O17_2 1_555 1_555
Cu28_2 O18_2 1_555 1_555
O61_2 Cu19_2 1_555 1_555
O63_2 Cu2_2 1_555 1_555
O66_2 Cu1_2 1_555 1_555
O75_2 Cu3_2 1_555 1_555
O80_2 Cu12_2 1_555 1_555
C6_2 C7_2 1_555 1_555
O6_2 C21_2 1_555 1_555
C26_2 C27_2 1_555 1_555
O14_2 Cu12_2 1_555 1_555
N7_2 C48_2 1_555 1_555
C45_2 C48_2 1_555 1_555
C46_2 C47_2 1_555 1_555
C49_2 C50_2 1_555 1_555
C55_2 C56_2 1_555 1_555
N9_2 C62_2 1_555 1_555
C61_2 C62_2 1_555 1_555
C63_2 C64_2 1_555 1_555
C65_2 C66_2 1_555 1_555
O19_2 Cu12_2 1_555 1_555
C67_2 C68_2 1_555 1_555
N10_2 C76_2 1_555 1_555
C73_2 C76_2 1_555 1_555
C74_2 C75_2 1_555 1_555
C77_2 C78_2 1_555 1_555
O27_2 Cu12_2 1_555 1_555
C95_2 C96_2 1_555 1_555
O44_2 C145_2 1_555 1_555
C150_2 C151_2 1_555 1_555
O50_2 Cu15_2 1_555 1_555
N21_2 C166_2 1_555 1_555
C163_2 C166_2 1_555 1_555
C164_2 C165_2 1_555 1_555
C167_2 C168_2 1_555 1_555
O56_2 C169_2 1_555 1_555
C174_2 C175_2 1_555 1_555
O59_2 C183_2 1_555 1_555
N24_2 C190_2 1_555 1_555
C187_2 C190_2 1_555 1_555
C188_2 C189_2 1_555 1_555
C191_2 C192_2 1_555 1_555
Cu21_2 Cu28_2 1_555 1_555
Cu22_2 Cu26_2 1_555 1_555
O54_2 Cu15_2 1_555 1_555
O23_2 C79_2 1_555 1_555
C79_2 C80_2 1_555 1_555
C80_2 C81_2 1_555 1_555
C81_2 H39_2 1_555 1_555
C82_2 C81_2 1_555 1_555
C83_2 C82_2 1_555 1_555
O26_2 C79_2 1_555 1_555
C93_2 C80_2 1_555 1_555
H45_2 C93_2 1_555 1_555
C94_2 C83_2 1_555 1_555
Cu21_2 O23_2 1_555 1_555
O61_2 C97_2 1_555 1_555
O64_2 C97_2 1_555 1_555
O30_2 Cu21_2 1_555 1_555
N13_2 C104_2 1_555 1_555
N14_2 C104_2 1_555 1_555
C97_2 C98_2 1_555 1_555
C98_2 C99_2 1_555 1_555
C99_2 H49_2 1_555 1_555
C100_2 C99_2 1_555 1_555
H50_2 C100_2 1_555 1_555
C101_2 C100_2 1_555 1_555
C102_2 C101_2 1_555 1_555
H51_2 C102_2 1_555 1_555
C103_2 C98_2 1_555 1_555
H52_2 C103_2 1_555 1_555
C104_2 C101_2 1_555 1_555
C105_2 N14_2 1_555 1_555
C106_2 C105_2 1_555 1_555
C107_2 C106_2 1_555 1_555
H53_2 C107_2 1_555 1_555
C108_2 C107_2 1_555 1_555
H54_2 C108_2 1_555 1_555
C109_2 C108_2 1_555 1_555
C110_2 O30_2 1_555 1_555
O31_2 Cu21_2 1_555 1_555
O32_2 C111_2 1_555 1_555
O33_2 C111_2 1_555 1_555
O34_2 C110_2 1_555 1_555
N15_2 C105_2 1_555 1_555
C111_2 C112_2 1_555 1_555
C112_2 C113_2 1_555 1_555
C113_2 H55_2 1_555 1_555
C114_2 C113_2 1_555 1_555
H56_2 C114_2 1_555 1_555
C115_2 C114_2 1_555 1_555
C116_2 C115_2 1_555 1_555
H57_2 C116_2 1_555 1_555
C117_2 C112_2 1_555 1_555
H58_2 C117_2 1_555 1_555
C118_2 N13_2 1_555 1_555
C119_2 C106_2 1_555 1_555
H59_2 C119_2 1_555 1_555
C120_2 C109_2 1_555 1_555
H60_2 C120_2 1_555 1_555
Cu8_2 O32_2 1_555 1_555
Cu28_2 O26_2 1_555 1_555
O46_2 Cu8_2 1_555 1_555
O47_2 Cu28_2 1_555 1_555
O62_2 Cu8_2 1_555 1_555
O76_2 Cu21_2 1_555 1_555
O79_2 Cu28_2 1_555 1_555
C83_2 C84_2 1_555 1_555
C93_2 C94_2 1_555 1_555
C102_2 C103_2 1_555 1_555
C109_2 C110_2 1_555 1_555
O34_2 Cu28_2 1_555 1_555
N15_2 C118_2 1_555 1_555
C115_2 C118_2 1_555 1_555
C116_2 C117_2 1_555 1_555
C119_2 C120_2 1_555 1_555
O24_2 C85_2 1_555 1_555
C85_2 C86_2 1_555 1_555
C86_2 C87_2 1_555 1_555
C87_2 H41_2 1_555 1_555
C88_2 C87_2 1_555 1_555
C89_2 C88_2 1_555 1_555
O25_2 C85_2 1_555 1_555
C91_2 C86_2 1_555 1_555
H43_2 C91_2 1_555 1_555
C92_2 C89_2 1_555 1_555
H44_2 C92_2 1_555 1_555
Cu22_2 O24_2 1_555 1_555
O62_2 C121_2 1_555 1_555
O65_2 C121_2 1_555 1_555
O37_2 Cu22_2 1_555 1_555
N16_2 C128_2 1_555 1_555
N17_2 C128_2 1_555 1_555
C121_2 C122_2 1_555 1_555
C122_2 C123_2 1_555 1_555
C123_2 H61_2 1_555 1_555
C124_2 C123_2 1_555 1_555
H62_2 C124_2 1_555 1_555
C125_2 C124_2 1_555 1_555
C126_2 C125_2 1_555 1_555
H63_2 C126_2 1_555 1_555
C127_2 C122_2 1_555 1_555
H64_2 C127_2 1_555 1_555
C128_2 C125_2 1_555 1_555
C129_2 N17_2 1_555 1_555
C130_2 C129_2 1_555 1_555
C131_2 C130_2 1_555 1_555
H65_2 C131_2 1_555 1_555
C132_2 C131_2 1_555 1_555
H66_2 C132_2 1_555 1_555
C133_2 C132_2 1_555 1_555
C134_2 O37_2 1_555 1_555
O38_2 Cu22_2 1_555 1_555
O63_2 C135_2 1_555 1_555
O66_2 C135_2 1_555 1_555
O41_2 C134_2 1_555 1_555
N18_2 C129_2 1_555 1_555
C135_2 C136_2 1_555 1_555
C136_2 C137_2 1_555 1_555
C137_2 H67_2 1_555 1_555
C138_2 C137_2 1_555 1_555
H68_2 C138_2 1_555 1_555
C139_2 C138_2 1_555 1_555
C140_2 C139_2 1_555 1_555
H69_2 C140_2 1_555 1_555
C141_2 C136_2 1_555 1_555
H70_2 C141_2 1_555 1_555
C142_2 N16_2 1_555 1_555
C143_2 C130_2 1_555 1_555
H71_2 C143_2 1_555 1_555
C144_2 C133_2 1_555 1_555
H72_2 C144_2 1_555 1_555
Cu26_2 O25_2 1_555 1_555
O42_2 Cu26_2 1_555 1_555
O77_2 Cu22_2 1_555 1_555
O78_2 Cu26_2 1_555 1_555
N12_2 C90_2 1_555 1_555
C89_2 C90_2 1_555 1_555
C91_2 C92_2 1_555 1_555
C126_2 C127_2 1_555 1_555
C133_2 C134_2 1_555 1_555
O41_2 Cu26_2 1_555 1_555
N18_2 C142_2 1_555 1_555
C139_2 C142_2 1_555 1_555
C140_2 C141_2 1_555 1_555
C143_2 C144_2 1_555 1_555
O75_2 C34_3 1_555 1_555
N4_3 C28_3 1_555 1_555
N5_3 C28_3 1_555 1_555
H10_3 C24_3 1_555 1_555
C25_3 C24_3 1_555 1_555
C26_3 C25_3 1_555 1_555
H11_3 C26_3 1_555 1_555
C28_3 C25_3 1_555 1_555
C29_3 N5_3 1_555 1_555
C30_3 C29_3 1_555 1_555
C31_3 C30_3 1_555 1_555
H13_3 C31_3 1_555 1_555
C32_3 C31_3 1_555 1_555
H14_3 C32_3 1_555 1_555
C33_3 C32_3 1_555 1_555
C34_3 C33_3 1_555 1_555
O20_3 C69_3 1_555 1_555
O21_3 C69_3 1_555 1_555
O80_2 C34_3 1_555 1_555
N10_3 C29_3 1_555 1_555
C69_3 C70_3 1_555 1_555
C70_3 C71_3 1_555 1_555
C71_3 H33_3 1_555 1_555
C72_3 C71_3 1_555 1_555
H34_3 C72_3 1_555 1_555
C73_3 C72_3 1_555 1_555
C74_3 C73_3 1_555 1_555
H35_3 C74_3 1_555 1_555
C75_3 C70_3 1_555 1_555
H36_3 C75_3 1_555 1_555
C76_3 N4_3 1_555 1_555
C77_3 C30_3 1_555 1_555
H37_3 C77_3 1_555 1_555
C78_3 C33_3 1_555 1_555
H38_3 C78_3 1_555 1_555
O49_3 C159_3 1_555 1_555
O50_3 C159_3 1_555 1_555
C159_3 C160_3 1_555 1_555
C160_3 C161_3 1_555 1_555
C161_3 H79_3 1_555 1_555
C165_3 C160_3 1_555 1_555
H82_3 C165_3 1_555 1_555
Cu15_3 O21_3 1_555 1_555
Cu19_3 O20_3 1_555 1_555
N10_3 C76_3 1_555 1_555
C73_3 C76_3 1_555 1_555
C74_3 C75_3 1_555 1_555
C77_3 C78_3 1_555 1_555
O49_3 Cu19_3 1_555 1_555
O50_3 Cu15_3 1_555 1_555
Cu15_3 Cu19_3 1_555 1_555
Cu1_3 Cu2_3 1_555 1_555
Cu2_3 O1_3 1_555 1_555
O1_3 C1_3 1_555 1_555
O2_3 Cu1_3 1_555 1_555
O3_3 C14_3 1_555 1_555
N1_3 C8_3 1_555 1_555
N2_3 C8_3 1_555 1_555
C1_3 O2_3 1_555 1_555
C2_3 C1_3 1_555 1_555
C3_3 C2_3 1_555 1_555
H1_3 C3_3 1_555 1_555
C4_3 C3_3 1_555 1_555
H2_3 C4_3 1_555 1_555
C5_3 C4_3 1_555 1_555
C6_3 C5_3 1_555 1_555
H3_3 C6_3 1_555 1_555
C7_3 C2_3 1_555 1_555
H4_3 C7_3 1_555 1_555
C8_3 C5_3 1_555 1_555
C9_3 N2_3 1_555 1_555
C10_3 C9_3 1_555 1_555
C11_3 C10_3 1_555 1_555
H5_3 C11_3 1_555 1_555
C12_3 C11_3 1_555 1_555
H6_3 C12_3 1_555 1_555
C13_3 C12_3 1_555 1_555
C14_3 C13_3 1_555 1_555
N3_3 C20_3 1_555 1_555
C15_3 O4_3 1_555 1_555
C16_3 C15_3 1_555 1_555
C17_3 C16_3 1_555 1_555
H7_3 C17_3 1_555 1_555
C18_3 C17_3 1_555 1_555
H8_3 C18_3 1_555 1_555
C19_3 C18_3 1_555 1_555
C20_3 C19_3 1_555 1_555
O5_3 Cu2_3 1_555 1_555
O6_3 Cu1_3 1_555 1_555
C21_3 O5_3 1_555 1_555
C22_3 C21_3 1_555 1_555
C23_3 C22_3 1_555 1_555
H9_3 C23_3 1_555 1_555
C27_3 C22_3 1_555 1_555
H12_3 C27_3 1_555 1_555
O8_3 Cu2_3 1_555 1_555
O11_3 Cu1_3 1_555 1_555
O12_3 C41_3 1_555 1_555
O13_3 C41_3 1_555 1_555
O14_3 C14_3 1_555 1_555
N7_3 C9_3 1_555 1_555
C41_3 C42_3 1_555 1_555
C42_3 C43_3 1_555 1_555
C43_3 H17_3 1_555 1_555
C44_3 C43_3 1_555 1_555
H18_3 C44_3 1_555 1_555
C45_3 C44_3 1_555 1_555
C46_3 C45_3 1_555 1_555
H19_3 C46_3 1_555 1_555
C47_3 C42_3 1_555 1_555
H20_3 C47_3 1_555 1_555
C48_3 N1_3 1_555 1_555
C49_3 C10_3 1_555 1_555
H21_3 C49_3 1_555 1_555
C50_3 C13_3 1_555 1_555
H22_3 C50_3 1_555 1_555
O15_3 C51_3 1_555 1_555
N8_3 C20_3 1_555 1_555
C51_3 C52_3 1_555 1_555
C52_3 C53_3 1_555 1_555
C53_3 H23_3 1_555 1_555
C54_3 C53_3 1_555 1_555
H24_3 C54_3 1_555 1_555
C55_3 C54_3 1_555 1_555
C56_3 N8_3 1_555 1_555
O16_3 C57_3 1_555 1_555
N9_3 C56_3 1_555 1_555
C57_3 C58_3 1_555 1_555
C58_3 C59_3 1_555 1_555
C59_3 H25_3 1_555 1_555
C60_3 C59_3 1_555 1_555
H26_3 C60_3 1_555 1_555
C61_3 C60_3 1_555 1_555
C62_3 N3_3 1_555 1_555
O17_3 C57_3 1_555 1_555
C63_3 C58_3 1_555 1_555
H27_3 C63_3 1_555 1_555
C64_3 C61_3 1_555 1_555
H28_3 C64_3 1_555 1_555
O18_3 C51_3 1_555 1_555
C65_3 C52_3 1_555 1_555
H29_3 C65_3 1_555 1_555
C66_3 C55_3 1_555 1_555
H30_3 C66_3 1_555 1_555
O19_3 C15_3 1_555 1_555
C67_3 C16_3 1_555 1_555
H31_3 C67_3 1_555 1_555
C68_3 C19_3 1_555 1_555
H32_3 C68_3 1_555 1_555
Cu15_3 O13_3 1_555 1_555
Cu19_3 O12_3 1_555 1_555
O52_3 Cu19_3 1_555 1_555
O54_3 Cu15_3 1_555 1_555
O55_3 Cu2_3 1_555 1_555
O56_3 Cu1_3 1_555 1_555
C169_3 O55_3 1_555 1_555
C170_3 C169_3 1_555 1_555
C171_3 C170_3 1_555 1_555
H85_3 C171_3 1_555 1_555
C175_3 C170_3 1_555 1_555
H88_3 C175_3 1_555 1_555
Cu24 O15_3 1_555 1_555
Cu29 O18_3 1_555 1_555
O61_3 Cu19_3 1_555 1_555
O63_3 Cu2_3 1_555 1_555
O64_3 Cu15_3 1_555 1_555
O66_3 Cu1_3 1_555 1_555
C6_3 C7_3 1_555 1_555
O6_3 C21_3 1_555 1_555
N7_3 C48_3 1_555 1_555
C45_3 C48_3 1_555 1_555
C46_3 C47_3 1_555 1_555
C49_3 C50_3 1_555 1_555
C55_3 C56_3 1_555 1_555
N9_3 C62_3 1_555 1_555
C61_3 C62_3 1_555 1_555
C63_3 C64_3 1_555 1_555
C65_3 C66_3 1_555 1_555
C67_3 C68_3 1_555 1_555
O56_3 C169_3 1_555 1_555
O79_2 C158_3 1_555 1_555
N19_3 C152_3 1_555 1_555
N20_3 C152_3 1_555 1_555
H74_3 C148_3 1_555 1_555
C149_3 C148_3 1_555 1_555
C150_3 C149_3 1_555 1_555
H75_3 C150_3 1_555 1_555
C152_3 C149_3 1_555 1_555
C153_3 N20_3 1_555 1_555
C154_3 C153_3 1_555 1_555
C155_3 C154_3 1_555 1_555
H77_3 C155_3 1_555 1_555
C156_3 C155_3 1_555 1_555
H78_3 C156_3 1_555 1_555
C157_3 C156_3 1_555 1_555
C158_3 C157_3 1_555 1_555
O76_2 C158_3 1_555 1_555
N21_3 C153_3 1_555 1_555
H80_3 C162_3 1_555 1_555
C163_3 C162_3 1_555 1_555
C164_3 C163_3 1_555 1_555
H81_3 C164_3 1_555 1_555
C166_3 N19_3 1_555 1_555
C167_3 C154_3 1_555 1_555
H83_3 C167_3 1_555 1_555
C168_3 C157_3 1_555 1_555
H84_3 C168_3 1_555 1_555
N21_3 C166_3 1_555 1_555
C163_3 C166_3 1_555 1_555
C167_3 C168_3 1_555 1_555
O9_3 Cu23 1_555 1_555
O10_3 Cu23 1_555 1_555
N6_3 C40_3 1_555 1_555
C35_3 O10_3 1_555 1_555
C36_3 C35_3 1_555 1_555
C37_3 C36_3 1_555 1_555
H15_3 C37_3 1_555 1_555
C38_3 C37_3 1_555 1_555
H16_3 C38_3 1_555 1_555
C39_3 C38_3 1_555 1_555
C40_3 C39_3 1_555 1_555
O23_3 C79_3 1_555 1_555
N11_3 C40_3 1_555 1_555
C79_3 C80_3 1_555 1_555
C80_3 C81_3 1_555 1_555
C81_3 H39_3 1_555 1_555
C82_3 C81_3 1_555 1_555
H40_3 C82_3 1_555 1_555
C83_3 C82_3 1_555 1_555
C84_3 N11_3 1_555 1_555
O24_3 C85_3 1_555 1_555
N12_3 C84_3 1_555 1_555
C85_3 C86_3 1_555 1_555
C86_3 C87_3 1_555 1_555
C87_3 H41_3 1_555 1_555
C88_3 C87_3 1_555 1_555
H42_3 C88_3 1_555 1_555
C89_3 C88_3 1_555 1_555
C90_3 N6_3 1_555 1_555
O25_3 C85_3 1_555 1_555
C91_3 C86_3 1_555 1_555
H43_3 C91_3 1_555 1_555
C92_3 C89_3 1_555 1_555
H44_3 C92_3 1_555 1_555
O26_3 C79_3 1_555 1_555
C93_3 C80_3 1_555 1_555
H45_3 C93_3 1_555 1_555
C94_3 C83_3 1_555 1_555
H46_3 C94_3 1_555 1_555
O27_3 C35_3 1_555 1_555
C95_3 C36_3 1_555 1_555
H47_3 C95_3 1_555 1_555
C96_3 C39_3 1_555 1_555
H48_3 C96_3 1_555 1_555
Cu24 O23_3 1_555 1_555
O61_3 C97_3 1_555 1_555
O64_3 C97_3 1_555 1_555
O30_3 Cu24 1_555 1_555
N13_3 C104_3 1_555 1_555
N14_3 C104_3 1_555 1_555
C97_3 C98_3 1_555 1_555
C98_3 C99_3 1_555 1_555
C99_3 H49_3 1_555 1_555
C100_3 C99_3 1_555 1_555
H50_3 C100_3 1_555 1_555
C101_3 C100_3 1_555 1_555
C102_3 C101_3 1_555 1_555
H51_3 C102_3 1_555 1_555
C103_3 C98_3 1_555 1_555
H52_3 C103_3 1_555 1_555
C104_3 C101_3 1_555 1_555
C105_3 N14_3 1_555 1_555
C106_3 C105_3 1_555 1_555
C107_3 C106_3 1_555 1_555
H53_3 C107_3 1_555 1_555
C108_3 C107_3 1_555 1_555
H54_3 C108_3 1_555 1_555
C109_3 C108_3 1_555 1_555
C110_3 O30_3 1_555 1_555
O31_3 Cu24 1_555 1_555
O32_3 C111_3 1_555 1_555
O33_3 C111_3 1_555 1_555
O34_3 C110_3 1_555 1_555
N15_3 C105_3 1_555 1_555
C111_3 C112_3 1_555 1_555
C112_3 C113_3 1_555 1_555
C113_3 H55_3 1_555 1_555
C114_3 C113_3 1_555 1_555
H56_3 C114_3 1_555 1_555
C115_3 C114_3 1_555 1_555
C116_3 C115_3 1_555 1_555
H57_3 C116_3 1_555 1_555
C117_3 C112_3 1_555 1_555
H58_3 C117_3 1_555 1_555
C118_3 N13_3 1_555 1_555
C119_3 C106_3 1_555 1_555
H59_3 C119_3 1_555 1_555
C120_3 C109_3 1_555 1_555
H60_3 C120_3 1_555 1_555
Cu25 O24_3 1_555 1_555
O38_3 Cu25 1_555 1_555
Cu27 O25_3 1_555 1_555
O42_3 Cu27 1_555 1_555
Cu7_3 O33_3 1_555 1_555
Cu8_3 O32_3 1_555 1_555
Cu29 O26_3 1_555 1_555
O43_3 Cu8_3 1_555 1_555
O44_3 Cu7_3 1_555 1_555
C145_3 O43_3 1_555 1_555
C146_3 C145_3 1_555 1_555
C147_3 C146_3 1_555 1_555
H73_3 C147_3 1_555 1_555
C151_3 C146_3 1_555 1_555
H76_3 C151_3 1_555 1_555
O46_3 Cu8_3 1_555 1_555
O47_3 Cu29 1_555 1_555
O48_3 Cu7_3 1_555 1_555
O53_3 Cu30 1_555 1_555
O78_2 C182_3 1_555 1_555
N22_3 C176_3 1_555 1_555
N23_3 C176_3 1_555 1_555
H86_3 C172_3 1_555 1_555
C173_3 C172_3 1_555 1_555
C174_3 C173_3 1_555 1_555
H87_3 C174_3 1_555 1_555
C176_3 C173_3 1_555 1_555
C177_3 N23_3 1_555 1_555
C178_3 C177_3 1_555 1_555
C179_3 C178_3 1_555 1_555
H89_3 C179_3 1_555 1_555
C180_3 C179_3 1_555 1_555
H90_3 C180_3 1_555 1_555
C181_3 C180_3 1_555 1_555
C182_3 C181_3 1_555 1_555
O58_3 Cu8_3 1_555 1_555
O59_3 Cu7_3 1_555 1_555
O77_2 C182_3 1_555 1_555
N24_3 C177_3 1_555 1_555
C183_3 O58_3 1_555 1_555
C184_3 C183_3 1_555 1_555
C185_3 C184_3 1_555 1_555
H91_3 C185_3 1_555 1_555
C186_3 C185_3 1_555 1_555
H92_3 C186_3 1_555 1_555
C187_3 C186_3 1_555 1_555
C188_3 C187_3 1_555 1_555
H93_3 C188_3 1_555 1_555
C189_3 C184_3 1_555 1_555
H94_3 C189_3 1_555 1_555
C190_3 N22_3 1_555 1_555
C191_3 C178_3 1_555 1_555
H95_3 C191_3 1_555 1_555
C192_3 C181_3 1_555 1_555
H96_3 C192_3 1_555 1_555
O62_3 Cu8_3 1_555 1_555
O65_3 Cu7_3 1_555 1_555
C83_3 C84_3 1_555 1_555
N12_3 C90_3 1_555 1_555
C89_3 C90_3 1_555 1_555
C91_3 C92_3 1_555 1_555
C93_3 C94_3 1_555 1_555
O27_3 Cu30 1_555 1_555
C95_3 C96_3 1_555 1_555
C102_3 C103_3 1_555 1_555
C109_3 C110_3 1_555 1_555
O34_3 Cu29 1_555 1_555
N15_3 C118_3 1_555 1_555
C115_3 C118_3 1_555 1_555
C116_3 C117_3 1_555 1_555
C119_3 C120_3 1_555 1_555
Cu7_3 Cu8_3 1_555 1_555
O44_3 C145_3 1_555 1_555
O59_3 C183_3 1_555 1_555
N24_3 C190_3 1_555 1_555
C187_3 C190_3 1_555 1_555
C188_3 C189_3 1_555 1_555
C191_3 C192_3 1_555 1_555
O62_3 C121_3 1_555 1_555
O65_3 C121_3 1_555 1_555
N16_3 C128_3 1_555 1_555
N17_3 C128_3 1_555 1_555
C121_3 C122_3 1_555 1_555
C122_3 C123_3 1_555 1_555
C123_3 H61_3 1_555 1_555
C124_3 C123_3 1_555 1_555
H62_3 C124_3 1_555 1_555
C125_3 C124_3 1_555 1_555
C126_3 C125_3 1_555 1_555
H63_3 C126_3 1_555 1_555
C127_3 C122_3 1_555 1_555
H64_3 C127_3 1_555 1_555
C128_3 C125_3 1_555 1_555
C129_3 N17_3 1_555 1_555
C130_3 C129_3 1_555 1_555
C131_3 C130_3 1_555 1_555
H65_3 C131_3 1_555 1_555
C132_3 C131_3 1_555 1_555
H66_3 C132_3 1_555 1_555
C133_3 C132_3 1_555 1_555
C134_3 O37_3 1_555 1_555
O63_3 C135_3 1_555 1_555
O66_3 C135_3 1_555 1_555
O41_3 C134_3 1_555 1_555
N18_3 C129_3 1_555 1_555
C135_3 C136_3 1_555 1_555
C136_3 C137_3 1_555 1_555
C137_3 H67_3 1_555 1_555
C138_3 C137_3 1_555 1_555
H68_3 C138_3 1_555 1_555
C139_3 C138_3 1_555 1_555
C140_3 C139_3 1_555 1_555
H69_3 C140_3 1_555 1_555
C141_3 C136_3 1_555 1_555
H70_3 C141_3 1_555 1_555
C142_3 N16_3 1_555 1_555
C143_3 C130_3 1_555 1_555
H71_3 C143_3 1_555 1_555
C144_3 C133_3 1_555 1_555
H72_3 C144_3 1_555 1_555
C126_3 C127_3 1_555 1_555
C133_3 C134_3 1_555 1_555
N18_3 C142_3 1_555 1_555
C139_3 C142_3 1_555 1_555
C140_3 C141_3 1_555 1_555
C143_3 C144_3 1_555 1_555
O16_4 C57_4 1_555 1_555
C57_4 C58_4 1_555 1_555
C58_4 C59_4 1_555 1_555
C59_4 H25_4 1_555 1_555
C60_4 C59_4 1_555 1_555
H26_4 C60_4 1_555 1_555
C61_4 C60_4 1_555 1_555
O17_4 C57_4 1_555 1_555
C63_4 C58_4 1_555 1_555
H27_4 C63_4 1_555 1_555
C64_4 C61_4 1_555 1_555
Cu22_3 O16_4 1_555 1_555
Cu26_3 O17_4 1_555 1_555
N9_4 C62_4 1_555 1_555
C61_4 C62_4 1_555 1_555
C63_4 C64_4 1_555 1_555
Cu22_3 Cu26_3 1_555 1_555
O7_2 C34_4 1_555 1_555
C31_4 C30_4 1_555 1_555
H13_4 C31_4 1_555 1_555
C32_4 C31_4 1_555 1_555
H14_4 C32_4 1_555 1_555
C33_4 C32_4 1_555 1_555
C34_4 C33_4 1_555 1_555
O22_2 C34_4 1_555 1_555
C77_4 C30_4 1_555 1_555
H37_4 C77_4 1_555 1_555
C78_4 C33_4 1_555 1_555
H38_4 C78_4 1_555 1_555
O45_2 C158_4 1_555 1_555
C155_4 C154_4 1_555 1_555
H77_4 C155_4 1_555 1_555
C156_4 C155_4 1_555 1_555
H78_4 C156_4 1_555 1_555
C157_4 C156_4 1_555 1_555
C158_4 C157_4 1_555 1_555
O51_2 C158_4 1_555 1_555
C167_4 C154_4 1_555 1_555
H83_4 C167_4 1_555 1_555
C168_4 C157_4 1_555 1_555
H84_4 C168_4 1_555 1_555
O57_2 C182_4 1_555 1_555
C179_4 C178_4 1_555 1_555
H89_4 C179_4 1_555 1_555
C180_4 C179_4 1_555 1_555
H90_4 C180_4 1_555 1_555
C181_4 C180_4 1_555 1_555
C182_4 C181_4 1_555 1_555
O60_2 C182_4 1_555 1_555
C191_4 C178_4 1_555 1_555
H95_4 C191_4 1_555 1_555
C192_4 C181_4 1_555 1_555
H96_4 C192_4 1_555 1_555
Cu23_2 O7_2 1_555 1_555
Cu24_2 O51_2 1_555 1_555
Cu25_2 O60_2 1_555 1_555
Cu27_2 O57_2 1_555 1_555
Cu29_2 O45_2 1_555 1_555
Cu30_2 O22_2 1_555 1_555
C77_4 C78_4 1_555 1_555
C167_4 C168_4 1_555 1_555
C191_4 C192_4 1_555 1_555
Cu23_2 Cu30_2 1_555 1_555
Cu24_2 Cu29_2 1_555 1_555
Cu25_2 Cu27_2 1_555 1_555
Cu1_4 Cu2_4 1_555 1_555
Cu2_4 O1_4 1_555 1_555
O1_4 C1_4 1_555 1_555
O2_4 Cu1_4 1_555 1_555
C1_4 O2_4 1_555 1_555
C2_4 C1_4 1_555 1_555
C3_4 C2_4 1_555 1_555
H1_4 C3_4 1_555 1_555
C7_4 C2_4 1_555 1_555
H4_4 C7_4 1_555 1_555
O5_4 Cu2_4 1_555 1_555
O6_4 Cu1_4 1_555 1_555
N4_4 C28_4 1_555 1_555
N5_4 C28_4 1_555 1_555
C21_4 O5_4 1_555 1_555
C22_4 C21_4 1_555 1_555
C23_4 C22_4 1_555 1_555
H9_4 C23_4 1_555 1_555
C24_4 C23_4 1_555 1_555
H10_4 C24_4 1_555 1_555
C25_4 C24_4 1_555 1_555
C26_4 C25_4 1_555 1_555
H11_4 C26_4 1_555 1_555
C27_4 C22_4 1_555 1_555
H12_4 C27_4 1_555 1_555
C28_4 C25_4 1_555 1_555
C29_4 N5_4 1_555 1_555
O8_4 Cu2_4 1_555 1_555
O11_4 Cu1_4 1_555 1_555
O20_4 C69_4 1_555 1_555
O21_4 C69_4 1_555 1_555
N10_4 C29_4 1_555 1_555
C69_4 C70_4 1_555 1_555
C70_4 C71_4 1_555 1_555
C71_4 H33_4 1_555 1_555
C72_4 C71_4 1_555 1_555
H34_4 C72_4 1_555 1_555
C73_4 C72_4 1_555 1_555
C74_4 C73_4 1_555 1_555
H35_4 C74_4 1_555 1_555
C75_4 C70_4 1_555 1_555
H36_4 C75_4 1_555 1_555
C76_4 N4_4 1_555 1_555
O32_4 C111_4 1_555 1_555
O33_4 C111_4 1_555 1_555
C111_4 C112_4 1_555 1_555
C112_4 C113_4 1_555 1_555
C113_4 H55_4 1_555 1_555
C117_4 C112_4 1_555 1_555
H58_4 C117_4 1_555 1_555
Cu7_4 O33_4 1_555 1_555
Cu8_4 O32_4 1_555 1_555
O43_4 Cu8_4 1_555 1_555
O44_4 Cu7_4 1_555 1_555
N19_4 C152_4 1_555 1_555
N20_4 C152_4 1_555 1_555
C145_4 O43_4 1_555 1_555
C146_4 C145_4 1_555 1_555
C147_4 C146_4 1_555 1_555
H73_4 C147_4 1_555 1_555
C148_4 C147_4 1_555 1_555
H74_4 C148_4 1_555 1_555
C149_4 C148_4 1_555 1_555
C150_4 C149_4 1_555 1_555
H75_4 C150_4 1_555 1_555
C151_4 C146_4 1_555 1_555
H76_4 C151_4 1_555 1_555
C152_4 C149_4 1_555 1_555
C153_4 N20_4 1_555 1_555
O46_4 Cu8_4 1_555 1_555
O48_4 Cu7_4 1_555 1_555
O49_4 C159_4 1_555 1_555
O50_4 C159_4 1_555 1_555
N21_4 C153_4 1_555 1_555
C159_4 C160_4 1_555 1_555
C160_4 C161_4 1_555 1_555
C161_4 H79_4 1_555 1_555
C162_4 C161_4 1_555 1_555
H80_4 C162_4 1_555 1_555
C163_4 C162_4 1_555 1_555
C164_4 C163_4 1_555 1_555
H81_4 C164_4 1_555 1_555
C165_4 C160_4 1_555 1_555
H82_4 C165_4 1_555 1_555
C166_4 N19_4 1_555 1_555
O55_4 Cu2_4 1_555 1_555
O56_4 Cu1_4 1_555 1_555
N22_4 C176_4 1_555 1_555
N23_4 C176_4 1_555 1_555
C169_4 O55_4 1_555 1_555
C170_4 C169_4 1_555 1_555
C171_4 C170_4 1_555 1_555
H85_4 C171_4 1_555 1_555
C172_4 C171_4 1_555 1_555
H86_4 C172_4 1_555 1_555
C173_4 C172_4 1_555 1_555
C174_4 C173_4 1_555 1_555
H87_4 C174_4 1_555 1_555
C175_4 C170_4 1_555 1_555
H88_4 C175_4 1_555 1_555
C176_4 C173_4 1_555 1_555
C177_4 N23_4 1_555 1_555
O58_4 Cu8_4 1_555 1_555
O59_4 Cu7_4 1_555 1_555
N24_4 C177_4 1_555 1_555
C183_4 O58_4 1_555 1_555
C184_4 C183_4 1_555 1_555
C185_4 C184_4 1_555 1_555
H91_4 C185_4 1_555 1_555
C186_4 C185_4 1_555 1_555
H92_4 C186_4 1_555 1_555
C187_4 C186_4 1_555 1_555
C188_4 C187_4 1_555 1_555
H93_4 C188_4 1_555 1_555
C189_4 C184_4 1_555 1_555
H94_4 C189_4 1_555 1_555
C190_4 N22_4 1_555 1_555
Cu15_4 O21_4 1_555 1_555
Cu19_4 O20_4 1_555 1_555
O62_4 Cu8_4 1_555 1_555
O63_4 Cu2_4 1_555 1_555
O65_4 Cu7_4 1_555 1_555
O66_4 Cu1_4 1_555 1_555
O6_4 C21_4 1_555 1_555
C26_4 C27_4 1_555 1_555
N10_4 C76_4 1_555 1_555
C73_4 C76_4 1_555 1_555
C74_4 C75_4 1_555 1_555
Cu7_4 Cu8_4 1_555 1_555
O44_4 C145_4 1_555 1_555
C150_4 C151_4 1_555 1_555
O49_4 Cu19_4 1_555 1_555
O50_4 Cu15_4 1_555 1_555
N21_4 C166_4 1_555 1_555
C163_4 C166_4 1_555 1_555
C164_4 C165_4 1_555 1_555
O56_4 C169_4 1_555 1_555
C174_4 C175_4 1_555 1_555
O59_4 C183_4 1_555 1_555
N24_4 C190_4 1_555 1_555
C187_4 C190_4 1_555 1_555
C188_4 C189_4 1_555 1_555
Cu15_4 Cu19_4 1_555 1_555
O15_4 C51_4 1_555 1_555
C51_4 C52_4 1_555 1_555
C52_4 C53_4 1_555 1_555
C53_4 H23_4 1_555 1_555
C54_4 C53_4 1_555 1_555
C55_4 C54_4 1_555 1_555
O18_4 C51_4 1_555 1_555
C65_4 C52_4 1_555 1_555
H29_4 C65_4 1_555 1_555
C66_4 C55_4 1_555 1_555
Cu21_3 O15_4 1_555 1_555
Cu28_3 O18_4 1_555 1_555
C55_4 C56_4 1_555 1_555
C65_4 C66_4 1_555 1_555
Cu21_3 Cu28_3 1_555 1_555
Cu3_3 O3_4 1_555 1_555
O3_4 C14_4 1_555 1_555
N1_4 C8_4 1_555 1_555
N2_4 C8_4 1_555 1_555
H2_4 C4_4 1_555 1_555
C5_4 C4_4 1_555 1_555
C6_4 C5_4 1_555 1_555
H3_4 C6_4 1_555 1_555
C8_4 C5_4 1_555 1_555
C9_4 N2_4 1_555 1_555
C10_4 C9_4 1_555 1_555
C11_4 C10_4 1_555 1_555
H5_4 C11_4 1_555 1_555
C12_4 C11_4 1_555 1_555
H6_4 C12_4 1_555 1_555
C13_4 C12_4 1_555 1_555
C14_4 C13_4 1_555 1_555
O4_4 Cu3_3 1_555 1_555
C15_4 O4_4 1_555 1_555
C16_4 C15_4 1_555 1_555
C17_4 C16_4 1_555 1_555
H7_4 C17_4 1_555 1_555
C18_4 C17_4 1_555 1_555
C19_4 C18_4 1_555 1_555
C20_4 C19_4 1_555 1_555
O9_4 Cu3_3 1_555 1_555
O10_4 Cu3_3 1_555 1_555
N6_4 C40_4 1_555 1_555
C35_4 O10_4 1_555 1_555
C36_4 C35_4 1_555 1_555
C37_4 C36_4 1_555 1_555
H15_4 C37_4 1_555 1_555
C38_4 C37_4 1_555 1_555
H16_4 C38_4 1_555 1_555
C39_4 C38_4 1_555 1_555
C40_4 C39_4 1_555 1_555
O12_4 C41_4 1_555 1_555
O13_4 C41_4 1_555 1_555
O14_4 C14_4 1_555 1_555
N7_4 C9_4 1_555 1_555
C41_4 C42_4 1_555 1_555
C42_4 C43_4 1_555 1_555
C43_4 H17_4 1_555 1_555
C44_4 C43_4 1_555 1_555
H18_4 C44_4 1_555 1_555
C45_4 C44_4 1_555 1_555
C46_4 C45_4 1_555 1_555
H19_4 C46_4 1_555 1_555
C47_4 C42_4 1_555 1_555
H20_4 C47_4 1_555 1_555
C48_4 N1_4 1_555 1_555
C49_4 C10_4 1_555 1_555
H21_4 C49_4 1_555 1_555
C50_4 C13_4 1_555 1_555
H22_4 C50_4 1_555 1_555
N8_4 C20_4 1_555 1_555
O19_4 C15_4 1_555 1_555
C67_4 C16_4 1_555 1_555
H31_4 C67_4 1_555 1_555
C68_4 C19_4 1_555 1_555
H32_4 C68_4 1_555 1_555
O23_4 C79_4 1_555 1_555
N11_4 C40_4 1_555 1_555
C79_4 C80_4 1_555 1_555
C80_4 C81_4 1_555 1_555
C81_4 H39_4 1_555 1_555
C82_4 C81_4 1_555 1_555
H40_4 C82_4 1_555 1_555
C83_4 C82_4 1_555 1_555
C84_4 N11_4 1_555 1_555
O24_4 C85_4 1_555 1_555
N12_4 C84_4 1_555 1_555
C85_4 C86_4 1_555 1_555
C86_4 C87_4 1_555 1_555
C87_4 H41_4 1_555 1_555
C88_4 C87_4 1_555 1_555
H42_4 C88_4 1_555 1_555
C89_4 C88_4 1_555 1_555
C90_4 N6_4 1_555 1_555
O25_4 C85_4 1_555 1_555
C91_4 C86_4 1_555 1_555
H43_4 C91_4 1_555 1_555
C92_4 C89_4 1_555 1_555
H44_4 C92_4 1_555 1_555
O26_4 C79_4 1_555 1_555
C93_4 C80_4 1_555 1_555
H45_4 C93_4 1_555 1_555
C94_4 C83_4 1_555 1_555
H46_4 C94_4 1_555 1_555
O27_4 C35_4 1_555 1_555
C95_4 C36_4 1_555 1_555
H47_4 C95_4 1_555 1_555
C96_4 C39_4 1_555 1_555
H48_4 C96_4 1_555 1_555
Cu21_3 O23_4 1_555 1_555
O30_4 Cu21_3 1_555 1_555
N13_4 C104_4 1_555 1_555
N14_4 C104_4 1_555 1_555
H50_4 C100_4 1_555 1_555
C101_4 C100_4 1_555 1_555
C102_4 C101_4 1_555 1_555
H51_4 C102_4 1_555 1_555
C104_4 C101_4 1_555 1_555
C105_4 N14_4 1_555 1_555
C106_4 C105_4 1_555 1_555
C107_4 C106_4 1_555 1_555
H53_4 C107_4 1_555 1_555
C108_4 C107_4 1_555 1_555
H54_4 C108_4 1_555 1_555
C109_4 C108_4 1_555 1_555
C110_4 O30_4 1_555 1_555
O31_4 Cu21_3 1_555 1_555
O34_4 C110_4 1_555 1_555
N15_4 C105_4 1_555 1_555
H56_4 C114_4 1_555 1_555
C115_4 C114_4 1_555 1_555
C116_4 C115_4 1_555 1_555
H57_4 C116_4 1_555 1_555
C118_4 N13_4 1_555 1_555
C119_4 C106_4 1_555 1_555
H59_4 C119_4 1_555 1_555
C120_4 C109_4 1_555 1_555
H60_4 C120_4 1_555 1_555
Cu22_3 O24_4 1_555 1_555
O62_4 C121_4 1_555 1_555
O65_4 C121_4 1_555 1_555
O37_4 Cu22_3 1_555 1_555
N16_4 C128_4 1_555 1_555
N17_4 C128_4 1_555 1_555
C121_4 C122_4 1_555 1_555
C122_4 C123_4 1_555 1_555
C123_4 H61_4 1_555 1_555
C124_4 C123_4 1_555 1_555
H62_4 C124_4 1_555 1_555
C125_4 C124_4 1_555 1_555
C126_4 C125_4 1_555 1_555
H63_4 C126_4 1_555 1_555
C127_4 C122_4 1_555 1_555
H64_4 C127_4 1_555 1_555
C128_4 C125_4 1_555 1_555
C129_4 N17_4 1_555 1_555
C130_4 C129_4 1_555 1_555
C131_4 C130_4 1_555 1_555
H65_4 C131_4 1_555 1_555
C132_4 C131_4 1_555 1_555
H66_4 C132_4 1_555 1_555
C133_4 C132_4 1_555 1_555
C134_4 O37_4 1_555 1_555
O38_4 Cu22_3 1_555 1_555
O41_4 C134_4 1_555 1_555
N18_4 C129_4 1_555 1_555
H68_4 C138_4 1_555 1_555
C139_4 C138_4 1_555 1_555
C140_4 C139_4 1_555 1_555
H69_4 C140_4 1_555 1_555
C142_4 N16_4 1_555 1_555
C143_4 C130_4 1_555 1_555
H71_4 C143_4 1_555 1_555
C144_4 C133_4 1_555 1_555
H72_4 C144_4 1_555 1_555
Cu26_3 O25_4 1_555 1_555
O42_4 Cu26_3 1_555 1_555
Cu28_3 O26_4 1_555 1_555
O47_4 Cu28_3 1_555 1_555
Cu15_4 O13_4 1_555 1_555
Cu19_4 O12_4 1_555 1_555
Cu12_3 Cu3_3 1_555 1_555
O52_4 Cu19_4 1_555 1_555
O53_4 Cu12_3 1_555 1_555
O54_4 Cu15_4 1_555 1_555
O61_4 Cu19_4 1_555 1_555
O64_4 Cu15_4 1_555 1_555
O75_3 Cu3_3 1_555 1_555
O76_3 Cu21_3 1_555 1_555
O77_3 Cu22_3 1_555 1_555
O78_3 Cu26_3 1_555 1_555
O79_3 Cu28_3 1_555 1_555
O80_3 Cu12_3 1_555 1_555
O14_4 Cu12_3 1_555 1_555
N7_4 C48_4 1_555 1_555
C45_4 C48_4 1_555 1_555
C46_4 C47_4 1_555 1_555
C49_4 C50_4 1_555 1_555
O19_4 Cu12_3 1_555 1_555
C67_4 C68_4 1_555 1_555
C83_4 C84_4 1_555 1_555
N12_4 C90_4 1_555 1_555
C89_4 C90_4 1_555 1_555
C91_4 C92_4 1_555 1_555
C93_4 C94_4 1_555 1_555
O27_4 Cu12_3 1_555 1_555
C95_4 C96_4 1_555 1_555
C109_4 C110_4 1_555 1_555
O34_4 Cu28_3 1_555 1_555
N15_4 C118_4 1_555 1_555
C115_4 C118_4 1_555 1_555
C119_4 C120_4 1_555 1_555
C126_4 C127_4 1_555 1_555
C133_4 C134_4 1_555 1_555
O41_4 Cu26_3 1_555 1_555
N18_4 C142_4 1_555 1_555
C139_4 C142_4 1_555 1_555
C143_4 C144_4 1_555 1_555
O61_4 C97_4 1_555 1_555
O64_4 C97_4 1_555 1_555
C97_4 C98_4 1_555 1_555
C98_4 C99_4 1_555 1_555
C99_4 H49_4 1_555 1_555
C103_4 C98_4 1_555 1_555
H52_4 C103_4 1_555 1_555
O63_4 C135_4 1_555 1_555
O66_4 C135_4 1_555 1_555
C135_4 C136_4 1_555 1_555
C136_4 C137_4 1_555 1_555
C137_4 H67_4 1_555 1_555
C141_4 C136_4 1_555 1_555
H70_4 C141_4 1_555 1_555
O7_3 C34_5 1_555 1_555
N4_5 C28_5 1_555 1_555
N5_5 C28_5 1_555 1_555
H10_5 C24_5 1_555 1_555
C25_5 C24_5 1_555 1_555
C26_5 C25_5 1_555 1_555
H11_5 C26_5 1_555 1_555
C28_5 C25_5 1_555 1_555
C29_5 N5_5 1_555 1_555
C30_5 C29_5 1_555 1_555
C31_5 C30_5 1_555 1_555
H13_5 C31_5 1_555 1_555
C32_5 C31_5 1_555 1_555
H14_5 C32_5 1_555 1_555
C33_5 C32_5 1_555 1_555
C34_5 C33_5 1_555 1_555
O20_5 C69_5 1_555 1_555
O21_5 C69_5 1_555 1_555
O22_3 C34_5 1_555 1_555
N10_5 C29_5 1_555 1_555
C69_5 C70_5 1_555 1_555
C70_5 C71_5 1_555 1_555
C71_5 H33_5 1_555 1_555
C72_5 C71_5 1_555 1_555
H34_5 C72_5 1_555 1_555
C73_5 C72_5 1_555 1_555
C74_5 C73_5 1_555 1_555
H35_5 C74_5 1_555 1_555
C75_5 C70_5 1_555 1_555
H36_5 C75_5 1_555 1_555
C76_5 N4_5 1_555 1_555
C77_5 C30_5 1_555 1_555
H37_5 C77_5 1_555 1_555
C78_5 C33_5 1_555 1_555
H38_5 C78_5 1_555 1_555
O49_5 C159_5 1_555 1_555
O50_5 C159_5 1_555 1_555
C159_5 C160_5 1_555 1_555
C160_5 C161_5 1_555 1_555
C161_5 H79_5 1_555 1_555
C165_5 C160_5 1_555 1_555
H82_5 C165_5 1_555 1_555
Cu15_5 O21_5 1_555 1_555
Cu19_5 O20_5 1_555 1_555
Cu23_3 O7_3 1_555 1_555
Cu30_3 O22_3 1_555 1_555
N10_5 C76_5 1_555 1_555
C73_5 C76_5 1_555 1_555
C74_5 C75_5 1_555 1_555
C77_5 C78_5 1_555 1_555
O49_5 Cu19_5 1_555 1_555
O50_5 Cu15_5 1_555 1_555
Cu15_5 Cu19_5 1_555 1_555
Cu23_3 Cu30_3 1_555 1_555
O45_3 C158_5 1_555 1_555
N19_5 C152_5 1_555 1_555
N20_5 C152_5 1_555 1_555
H74_5 C148_5 1_555 1_555
C149_5 C148_5 1_555 1_555
C150_5 C149_5 1_555 1_555
H75_5 C150_5 1_555 1_555
C152_5 C149_5 1_555 1_555
C153_5 N20_5 1_555 1_555
C154_5 C153_5 1_555 1_555
C155_5 C154_5 1_555 1_555
H77_5 C155_5 1_555 1_555
C156_5 C155_5 1_555 1_555
H78_5 C156_5 1_555 1_555
C157_5 C156_5 1_555 1_555
C158_5 C157_5 1_555 1_555
O51_3 C158_5 1_555 1_555
N21_5 C153_5 1_555 1_555
H80_5 C162_5 1_555 1_555
C163_5 C162_5 1_555 1_555
C164_5 C163_5 1_555 1_555
H81_5 C164_5 1_555 1_555
C166_5 N19_5 1_555 1_555
C167_5 C154_5 1_555 1_555
H83_5 C167_5 1_555 1_555
C168_5 C157_5 1_555 1_555
H84_5 C168_5 1_555 1_555
Cu24_3 O51_3 1_555 1_555
Cu29_3 O45_3 1_555 1_555
N21_5 C166_5 1_555 1_555
C163_5 C166_5 1_555 1_555
C167_5 C168_5 1_555 1_555
Cu24_3 Cu29_3 1_555 1_555
Cu1_5 Cu2_5 1_555 1_555
Cu2_5 O1_5 1_555 1_555
O1_5 C1_5 1_555 1_555
O2_5 Cu1_5 1_555 1_555
O3_5 C14_5 1_555 1_555
N1_5 C8_5 1_555 1_555
N2_5 C8_5 1_555 1_555
C1_5 O2_5 1_555 1_555
C2_5 C1_5 1_555 1_555
C3_5 C2_5 1_555 1_555
H1_5 C3_5 1_555 1_555
C4_5 C3_5 1_555 1_555
H2_5 C4_5 1_555 1_555
C5_5 C4_5 1_555 1_555
C6_5 C5_5 1_555 1_555
H3_5 C6_5 1_555 1_555
C7_5 C2_5 1_555 1_555
H4_5 C7_5 1_555 1_555
C8_5 C5_5 1_555 1_555
C9_5 N2_5 1_555 1_555
C10_5 C9_5 1_555 1_555
C11_5 C10_5 1_555 1_555
H5_5 C11_5 1_555 1_555
C12_5 C11_5 1_555 1_555
H6_5 C12_5 1_555 1_555
C13_5 C12_5 1_555 1_555
C14_5 C13_5 1_555 1_555
N3_5 C20_5 1_555 1_555
C15_5 O4_5 1_555 1_555
C16_5 C15_5 1_555 1_555
C17_5 C16_5 1_555 1_555
H7_5 C17_5 1_555 1_555
C18_5 C17_5 1_555 1_555
H8_5 C18_5 1_555 1_555
C19_5 C18_5 1_555 1_555
C20_5 C19_5 1_555 1_555
O5_5 Cu2_5 1_555 1_555
O6_5 Cu1_5 1_555 1_555
C21_5 O5_5 1_555 1_555
C22_5 C21_5 1_555 1_555
C23_5 C22_5 1_555 1_555
H9_5 C23_5 1_555 1_555
C27_5 C22_5 1_555 1_555
H12_5 C27_5 1_555 1_555
O8_5 Cu2_5 1_555 1_555
O11_5 Cu1_5 1_555 1_555
O12_5 C41_5 1_555 1_555
O13_5 C41_5 1_555 1_555
O14_5 C14_5 1_555 1_555
N7_5 C9_5 1_555 1_555
C41_5 C42_5 1_555 1_555
C42_5 C43_5 1_555 1_555
C43_5 H17_5 1_555 1_555
C44_5 C43_5 1_555 1_555
H18_5 C44_5 1_555 1_555
C45_5 C44_5 1_555 1_555
C46_5 C45_5 1_555 1_555
H19_5 C46_5 1_555 1_555
C47_5 C42_5 1_555 1_555
H20_5 C47_5 1_555 1_555
C48_5 N1_5 1_555 1_555
C49_5 C10_5 1_555 1_555
H21_5 C49_5 1_555 1_555
C50_5 C13_5 1_555 1_555
H22_5 C50_5 1_555 1_555
O15_5 C51_5 1_555 1_555
N8_5 C20_5 1_555 1_555
C51_5 C52_5 1_555 1_555
C52_5 C53_5 1_555 1_555
C53_5 H23_5 1_555 1_555
C54_5 C53_5 1_555 1_555
H24_5 C54_5 1_555 1_555
C55_5 C54_5 1_555 1_555
C56_5 N8_5 1_555 1_555
O16_5 C57_5 1_555 1_555
N9_5 C56_5 1_555 1_555
C57_5 C58_5 1_555 1_555
C58_5 C59_5 1_555 1_555
C59_5 H25_5 1_555 1_555
C60_5 C59_5 1_555 1_555
H26_5 C60_5 1_555 1_555
C61_5 C60_5 1_555 1_555
C62_5 N3_5 1_555 1_555
O17_5 C57_5 1_555 1_555
C63_5 C58_5 1_555 1_555
H27_5 C63_5 1_555 1_555
C64_5 C61_5 1_555 1_555
H28_5 C64_5 1_555 1_555
O18_5 C51_5 1_555 1_555
C65_5 C52_5 1_555 1_555
H29_5 C65_5 1_555 1_555
C66_5 C55_5 1_555 1_555
H30_5 C66_5 1_555 1_555
O19_5 C15_5 1_555 1_555
C67_5 C16_5 1_555 1_555
H31_5 C67_5 1_555 1_555
C68_5 C19_5 1_555 1_555
H32_5 C68_5 1_555 1_555
Cu15_5 O13_5 1_555 1_555
Cu19_5 O12_5 1_555 1_555
O52_5 Cu19_5 1_555 1_555
O54_5 Cu15_5 1_555 1_555
O55_5 Cu2_5 1_555 1_555
O56_5 Cu1_5 1_555 1_555
C169_5 O55_5 1_555 1_555
C170_5 C169_5 1_555 1_555
C171_5 C170_5 1_555 1_555
H85_5 C171_5 1_555 1_555
C175_5 C170_5 1_555 1_555
H88_5 C175_5 1_555 1_555
Cu24_2 O15_5 1_555 1_555
Cu29_2 O18_5 1_555 1_555
O61_5 Cu19_5 1_555 1_555
O63_5 Cu2_5 1_555 1_555
O64_5 Cu15_5 1_555 1_555
O66_5 Cu1_5 1_555 1_555
C6_5 C7_5 1_555 1_555
O6_5 C21_5 1_555 1_555
N7_5 C48_5 1_555 1_555
C45_5 C48_5 1_555 1_555
C46_5 C47_5 1_555 1_555
C49_5 C50_5 1_555 1_555
C55_5 C56_5 1_555 1_555
N9_5 C62_5 1_555 1_555
C61_5 C62_5 1_555 1_555
C63_5 C64_5 1_555 1_555
C65_5 C66_5 1_555 1_555
C67_5 C68_5 1_555 1_555
O56_5 C169_5 1_555 1_555
O9_5 Cu23_2 1_555 1_555
O10_5 Cu23_2 1_555 1_555
N6_5 C40_5 1_555 1_555
C35_5 O10_5 1_555 1_555
C36_5 C35_5 1_555 1_555
C37_5 C36_5 1_555 1_555
H15_5 C37_5 1_555 1_555
C38_5 C37_5 1_555 1_555
H16_5 C38_5 1_555 1_555
C39_5 C38_5 1_555 1_555
C40_5 C39_5 1_555 1_555
O23_5 C79_5 1_555 1_555
N11_5 C40_5 1_555 1_555
C79_5 C80_5 1_555 1_555
C80_5 C81_5 1_555 1_555
C81_5 H39_5 1_555 1_555
C82_5 C81_5 1_555 1_555
H40_5 C82_5 1_555 1_555
C83_5 C82_5 1_555 1_555
C84_5 N11_5 1_555 1_555
O24_5 C85_5 1_555 1_555
N12_5 C84_5 1_555 1_555
C85_5 C86_5 1_555 1_555
C86_5 C87_5 1_555 1_555
C87_5 H41_5 1_555 1_555
C88_5 C87_5 1_555 1_555
H42_5 C88_5 1_555 1_555
C89_5 C88_5 1_555 1_555
C90_5 N6_5 1_555 1_555
O25_5 C85_5 1_555 1_555
C91_5 C86_5 1_555 1_555
H43_5 C91_5 1_555 1_555
C92_5 C89_5 1_555 1_555
H44_5 C92_5 1_555 1_555
O26_5 C79_5 1_555 1_555
C93_5 C80_5 1_555 1_555
H45_5 C93_5 1_555 1_555
C94_5 C83_5 1_555 1_555
H46_5 C94_5 1_555 1_555
O27_5 C35_5 1_555 1_555
C95_5 C36_5 1_555 1_555
H47_5 C95_5 1_555 1_555
C96_5 C39_5 1_555 1_555
H48_5 C96_5 1_555 1_555
Cu24_2 O23_5 1_555 1_555
O61_5 C97_5 1_555 1_555
O64_5 C97_5 1_555 1_555
O30_5 Cu24_2 1_555 1_555
N13_5 C104_5 1_555 1_555
N14_5 C104_5 1_555 1_555
C97_5 C98_5 1_555 1_555
C98_5 C99_5 1_555 1_555
C99_5 H49_5 1_555 1_555
C100_5 C99_5 1_555 1_555
H50_5 C100_5 1_555 1_555
C101_5 C100_5 1_555 1_555
C102_5 C101_5 1_555 1_555
H51_5 C102_5 1_555 1_555
C103_5 C98_5 1_555 1_555
H52_5 C103_5 1_555 1_555
C104_5 C101_5 1_555 1_555
C105_5 N14_5 1_555 1_555
C106_5 C105_5 1_555 1_555
C107_5 C106_5 1_555 1_555
H53_5 C107_5 1_555 1_555
C108_5 C107_5 1_555 1_555
H54_5 C108_5 1_555 1_555
C109_5 C108_5 1_555 1_555
C110_5 O30_5 1_555 1_555
O31_5 Cu24_2 1_555 1_555
O32_5 C111_5 1_555 1_555
O33_5 C111_5 1_555 1_555
O34_5 C110_5 1_555 1_555
N15_5 C105_5 1_555 1_555
C111_5 C112_5 1_555 1_555
C112_5 C113_5 1_555 1_555
C113_5 H55_5 1_555 1_555
C114_5 C113_5 1_555 1_555
H56_5 C114_5 1_555 1_555
C115_5 C114_5 1_555 1_555
C116_5 C115_5 1_555 1_555
H57_5 C116_5 1_555 1_555
C117_5 C112_5 1_555 1_555
H58_5 C117_5 1_555 1_555
C118_5 N13_5 1_555 1_555
C119_5 C106_5 1_555 1_555
H59_5 C119_5 1_555 1_555
C120_5 C109_5 1_555 1_555
H60_5 C120_5 1_555 1_555
Cu25_2 O24_5 1_555 1_555
O38_5 Cu25_2 1_555 1_555
Cu27_2 O25_5 1_555 1_555
O42_5 Cu27_2 1_555 1_555
Cu7_5 O33_5 1_555 1_555
Cu8_5 O32_5 1_555 1_555
Cu29_2 O26_5 1_555 1_555
O43_5 Cu8_5 1_555 1_555
O44_5 Cu7_5 1_555 1_555
C145_5 O43_5 1_555 1_555
C146_5 C145_5 1_555 1_555
C147_5 C146_5 1_555 1_555
H73_5 C147_5 1_555 1_555
C151_5 C146_5 1_555 1_555
H76_5 C151_5 1_555 1_555
O46_5 Cu8_5 1_555 1_555
O47_5 Cu29_2 1_555 1_555
O48_5 Cu7_5 1_555 1_555
O53_5 Cu30_2 1_555 1_555
O57_3 C182_5 1_555 1_555
N22_5 C176_5 1_555 1_555
N23_5 C176_5 1_555 1_555
H86_5 C172_5 1_555 1_555
C173_5 C172_5 1_555 1_555
C174_5 C173_5 1_555 1_555
H87_5 C174_5 1_555 1_555
C176_5 C173_5 1_555 1_555
C177_5 N23_5 1_555 1_555
C178_5 C177_5 1_555 1_555
C179_5 C178_5 1_555 1_555
H89_5 C179_5 1_555 1_555
C180_5 C179_5 1_555 1_555
H90_5 C180_5 1_555 1_555
C181_5 C180_5 1_555 1_555
C182_5 C181_5 1_555 1_555
O58_5 Cu8_5 1_555 1_555
O59_5 Cu7_5 1_555 1_555
O60_3 C182_5 1_555 1_555
N24_5 C177_5 1_555 1_555
C183_5 O58_5 1_555 1_555
C184_5 C183_5 1_555 1_555
C185_5 C184_5 1_555 1_555
H91_5 C185_5 1_555 1_555
C186_5 C185_5 1_555 1_555
H92_5 C186_5 1_555 1_555
C187_5 C186_5 1_555 1_555
C188_5 C187_5 1_555 1_555
H93_5 C188_5 1_555 1_555
C189_5 C184_5 1_555 1_555
H94_5 C189_5 1_555 1_555
C190_5 N22_5 1_555 1_555
C191_5 C178_5 1_555 1_555
H95_5 C191_5 1_555 1_555
C192_5 C181_5 1_555 1_555
H96_5 C192_5 1_555 1_555
Cu25_3 O60_3 1_555 1_555
Cu27_3 O57_3 1_555 1_555
O62_5 Cu8_5 1_555 1_555
O65_5 Cu7_5 1_555 1_555
C83_5 C84_5 1_555 1_555
N12_5 C90_5 1_555 1_555
C89_5 C90_5 1_555 1_555
C91_5 C92_5 1_555 1_555
C93_5 C94_5 1_555 1_555
O27_5 Cu30_2 1_555 1_555
C95_5 C96_5 1_555 1_555
C102_5 C103_5 1_555 1_555
C109_5 C110_5 1_555 1_555
O34_5 Cu29_2 1_555 1_555
N15_5 C118_5 1_555 1_555
C115_5 C118_5 1_555 1_555
C116_5 C117_5 1_555 1_555
C119_5 C120_5 1_555 1_555
Cu7_5 Cu8_5 1_555 1_555
O44_5 C145_5 1_555 1_555
O59_5 C183_5 1_555 1_555
N24_5 C190_5 1_555 1_555
C187_5 C190_5 1_555 1_555
C188_5 C189_5 1_555 1_555
C191_5 C192_5 1_555 1_555
Cu25_3 Cu27_3 1_555 1_555
O62_5 C121_5 1_555 1_555
O65_5 C121_5 1_555 1_555
N16_5 C128_5 1_555 1_555
N17_5 C128_5 1_555 1_555
C121_5 C122_5 1_555 1_555
C122_5 C123_5 1_555 1_555
C123_5 H61_5 1_555 1_555
C124_5 C123_5 1_555 1_555
H62_5 C124_5 1_555 1_555
C125_5 C124_5 1_555 1_555
C126_5 C125_5 1_555 1_555
H63_5 C126_5 1_555 1_555
C127_5 C122_5 1_555 1_555
H64_5 C127_5 1_555 1_555
C128_5 C125_5 1_555 1_555
C129_5 N17_5 1_555 1_555
C130_5 C129_5 1_555 1_555
C131_5 C130_5 1_555 1_555
H65_5 C131_5 1_555 1_555
C132_5 C131_5 1_555 1_555
H66_5 C132_5 1_555 1_555
C133_5 C132_5 1_555 1_555
C134_5 O37_5 1_555 1_555
O63_5 C135_5 1_555 1_555
O66_5 C135_5 1_555 1_555
O41_5 C134_5 1_555 1_555
N18_5 C129_5 1_555 1_555
C135_5 C136_5 1_555 1_555
C136_5 C137_5 1_555 1_555
C137_5 H67_5 1_555 1_555
C138_5 C137_5 1_555 1_555
H68_5 C138_5 1_555 1_555
C139_5 C138_5 1_555 1_555
C140_5 C139_5 1_555 1_555
H69_5 C140_5 1_555 1_555
C141_5 C136_5 1_555 1_555
H70_5 C141_5 1_555 1_555
C142_5 N16_5 1_555 1_555
C143_5 C130_5 1_555 1_555
H71_5 C143_5 1_555 1_555
C144_5 C133_5 1_555 1_555
H72_5 C144_5 1_555 1_555
C126_5 C127_5 1_555 1_555
C133_5 C134_5 1_555 1_555
N18_5 C142_5 1_555 1_555
C139_5 C142_5 1_555 1_555
C140_5 C141_5 1_555 1_555
C143_5 C144_5 1_555 1_555
Cu1_6 Cu2_6 1_555 1_555
Cu2_6 O1_6 1_555 1_555
Cu23_3 O3_6 1_555 1_555
O1_6 C1_6 1_555 1_555
O2_6 Cu1_6 1_555 1_555
O3_6 C14_6 1_555 1_555
N1_6 C8_6 1_555 1_555
N2_6 C8_6 1_555 1_555
C1_6 O2_6 1_555 1_555
C2_6 C1_6 1_555 1_555
C3_6 C2_6 1_555 1_555
H1_6 C3_6 1_555 1_555
C4_6 C3_6 1_555 1_555
H2_6 C4_6 1_555 1_555
C5_6 C4_6 1_555 1_555
C6_6 C5_6 1_555 1_555
H3_6 C6_6 1_555 1_555
C7_6 C2_6 1_555 1_555
H4_6 C7_6 1_555 1_555
C8_6 C5_6 1_555 1_555
C9_6 N2_6 1_555 1_555
C10_6 C9_6 1_555 1_555
C11_6 C10_6 1_555 1_555
H5_6 C11_6 1_555 1_555
C12_6 C11_6 1_555 1_555
H6_6 C12_6 1_555 1_555
C13_6 C12_6 1_555 1_555
C14_6 C13_6 1_555 1_555
O4_6 Cu23_3 1_555 1_555
N3_6 C20_6 1_555 1_555
C15_6 O4_6 1_555 1_555
C16_6 C15_6 1_555 1_555
C17_6 C16_6 1_555 1_555
H7_6 C17_6 1_555 1_555
C18_6 C17_6 1_555 1_555
H8_6 C18_6 1_555 1_555
C19_6 C18_6 1_555 1_555
C20_6 C19_6 1_555 1_555
O5_6 Cu2_6 1_555 1_555
O6_6 Cu1_6 1_555 1_555
O75_3 C34_6 1_555 1_555
N4_6 C28_6 1_555 1_555
N5_6 C28_6 1_555 1_555
C21_6 O5_6 1_555 1_555
C22_6 C21_6 1_555 1_555
C23_6 C22_6 1_555 1_555
H9_6 C23_6 1_555 1_555
C24_6 C23_6 1_555 1_555
H10_6 C24_6 1_555 1_555
C25_6 C24_6 1_555 1_555
C26_6 C25_6 1_555 1_555
H11_6 C26_6 1_555 1_555
C27_6 C22_6 1_555 1_555
H12_6 C27_6 1_555 1_555
C28_6 C25_6 1_555 1_555
C29_6 N5_6 1_555 1_555
C30_6 C29_6 1_555 1_555
C31_6 C30_6 1_555 1_555
H13_6 C31_6 1_555 1_555
C32_6 C31_6 1_555 1_555
H14_6 C32_6 1_555 1_555
C33_6 C32_6 1_555 1_555
C34_6 C33_6 1_555 1_555
O8_6 Cu2_6 1_555 1_555
O9_6 Cu23_3 1_555 1_555
O10_6 Cu23_3 1_555 1_555
C35_6 O10_6 1_555 1_555
C36_6 C35_6 1_555 1_555
C37_6 C36_6 1_555 1_555
H15_6 C37_6 1_555 1_555
C38_6 C37_6 1_555 1_555
H16_6 C38_6 1_555 1_555
C39_6 C38_6 1_555 1_555
C40_6 C39_6 1_555 1_555
O11_6 Cu1_6 1_555 1_555
O12_6 C41_6 1_555 1_555
O13_6 C41_6 1_555 1_555
O14_6 C14_6 1_555 1_555
N7_6 C9_6 1_555 1_555
C41_6 C42_6 1_555 1_555
C42_6 C43_6 1_555 1_555
C43_6 H17_6 1_555 1_555
C44_6 C43_6 1_555 1_555
H18_6 C44_6 1_555 1_555
C45_6 C44_6 1_555 1_555
C46_6 C45_6 1_555 1_555
H19_6 C46_6 1_555 1_555
C47_6 C42_6 1_555 1_555
H20_6 C47_6 1_555 1_555
C48_6 N1_6 1_555 1_555
C49_6 C10_6 1_555 1_555
H21_6 C49_6 1_555 1_555
C50_6 C13_6 1_555 1_555
H22_6 C50_6 1_555 1_555
O15_6 C51_6 1_555 1_555
N8_6 C20_6 1_555 1_555
C51_6 C52_6 1_555 1_555
C52_6 C53_6 1_555 1_555
C53_6 H23_6 1_555 1_555
C54_6 C53_6 1_555 1_555
H24_6 C54_6 1_555 1_555
C55_6 C54_6 1_555 1_555
C56_6 N8_6 1_555 1_555
O16_6 C57_6 1_555 1_555
N9_6 C56_6 1_555 1_555
C57_6 C58_6 1_555 1_555
C58_6 C59_6 1_555 1_555
C59_6 H25_6 1_555 1_555
C60_6 C59_6 1_555 1_555
H26_6 C60_6 1_555 1_555
C61_6 C60_6 1_555 1_555
C62_6 N3_6 1_555 1_555
O17_6 C57_6 1_555 1_555
C63_6 C58_6 1_555 1_555
H27_6 C63_6 1_555 1_555
C64_6 C61_6 1_555 1_555
H28_6 C64_6 1_555 1_555
O18_6 C51_6 1_555 1_555
C65_6 C52_6 1_555 1_555
H29_6 C65_6 1_555 1_555
C66_6 C55_6 1_555 1_555
H30_6 C66_6 1_555 1_555
O19_6 C15_6 1_555 1_555
C67_6 C16_6 1_555 1_555
H31_6 C67_6 1_555 1_555
C68_6 C19_6 1_555 1_555
H32_6 C68_6 1_555 1_555
O20_6 C69_6 1_555 1_555
O21_6 C69_6 1_555 1_555
O80_3 C34_6 1_555 1_555
N10_6 C29_6 1_555 1_555
C69_6 C70_6 1_555 1_555
C70_6 C71_6 1_555 1_555
C71_6 H33_6 1_555 1_555
C72_6 C71_6 1_555 1_555
H34_6 C72_6 1_555 1_555
C73_6 C72_6 1_555 1_555
C74_6 C73_6 1_555 1_555
H35_6 C74_6 1_555 1_555
C75_6 C70_6 1_555 1_555
H36_6 C75_6 1_555 1_555
C76_6 N4_6 1_555 1_555
C77_6 C30_6 1_555 1_555
H37_6 C77_6 1_555 1_555
C78_6 C33_6 1_555 1_555
H38_6 C78_6 1_555 1_555
N11_6 C40_6 1_555 1_555
O27_6 C35_6 1_555 1_555
C95_6 C36_6 1_555 1_555
H47_6 C95_6 1_555 1_555
C96_6 C39_6 1_555 1_555
O44_6 Cu7_6 1_555 1_555
O79_3 C158_6 1_555 1_555
N19_6 C152_6 1_555 1_555
N20_6 C152_6 1_555 1_555
C145_6 O43_6 1_555 1_555
C146_6 C145_6 1_555 1_555
C147_6 C146_6 1_555 1_555
H73_6 C147_6 1_555 1_555
C148_6 C147_6 1_555 1_555
H74_6 C148_6 1_555 1_555
C149_6 C148_6 1_555 1_555
C150_6 C149_6 1_555 1_555
H75_6 C150_6 1_555 1_555
C151_6 C146_6 1_555 1_555
H76_6 C151_6 1_555 1_555
C152_6 C149_6 1_555 1_555
C153_6 N20_6 1_555 1_555
C154_6 C153_6 1_555 1_555
C155_6 C154_6 1_555 1_555
H77_6 C155_6 1_555 1_555
C156_6 C155_6 1_555 1_555
H78_6 C156_6 1_555 1_555
C157_6 C156_6 1_555 1_555
C158_6 C157_6 1_555 1_555
O48_6 Cu7_6 1_555 1_555
O49_6 C159_6 1_555 1_555
O50_6 C159_6 1_555 1_555
O76_3 C158_6 1_555 1_555
N21_6 C153_6 1_555 1_555
C159_6 C160_6 1_555 1_555
C160_6 C161_6 1_555 1_555
C161_6 H79_6 1_555 1_555
C162_6 C161_6 1_555 1_555
H80_6 C162_6 1_555 1_555
C163_6 C162_6 1_555 1_555
C164_6 C163_6 1_555 1_555
H81_6 C164_6 1_555 1_555
C165_6 C160_6 1_555 1_555
H82_6 C165_6 1_555 1_555
C166_6 N19_6 1_555 1_555
C167_6 C154_6 1_555 1_555
H83_6 C167_6 1_555 1_555
C168_6 C157_6 1_555 1_555
H84_6 C168_6 1_555 1_555
Cu19_6 O12_6 1_555 1_555
O52_6 Cu19_6 1_555 1_555
O53_6 Cu30_3 1_555 1_555
O55_6 Cu2_6 1_555 1_555
O56_6 Cu1_6 1_555 1_555
O78_3 C182_6 1_555 1_555
N22_6 C176_6 1_555 1_555
N23_6 C176_6 1_555 1_555
C169_6 O55_6 1_555 1_555
C170_6 C169_6 1_555 1_555
C171_6 C170_6 1_555 1_555
H85_6 C171_6 1_555 1_555
C172_6 C171_6 1_555 1_555
H86_6 C172_6 1_555 1_555
C173_6 C172_6 1_555 1_555
C174_6 C173_6 1_555 1_555
H87_6 C174_6 1_555 1_555
C175_6 C170_6 1_555 1_555
H88_6 C175_6 1_555 1_555
C176_6 C173_6 1_555 1_555
C177_6 N23_6 1_555 1_555
C178_6 C177_6 1_555 1_555
C179_6 C178_6 1_555 1_555
H89_6 C179_6 1_555 1_555
C180_6 C179_6 1_555 1_555
H90_6 C180_6 1_555 1_555
C181_6 C180_6 1_555 1_555
C182_6 C181_6 1_555 1_555
O59_6 Cu7_6 1_555 1_555
O77_3 C182_6 1_555 1_555
N24_6 C177_6 1_555 1_555
C183_6 O58_6 1_555 1_555
C184_6 C183_6 1_555 1_555
C185_6 C184_6 1_555 1_555
H91_6 C185_6 1_555 1_555
C186_6 C185_6 1_555 1_555
H92_6 C186_6 1_555 1_555
C187_6 C186_6 1_555 1_555
C188_6 C187_6 1_555 1_555
H93_6 C188_6 1_555 1_555
C189_6 C184_6 1_555 1_555
H94_6 C189_6 1_555 1_555
C190_6 N22_6 1_555 1_555
C191_6 C178_6 1_555 1_555
H95_6 C191_6 1_555 1_555
C192_6 C181_6 1_555 1_555
H96_6 C192_6 1_555 1_555
Cu15_6 O21_6 1_555 1_555
Cu24_3 O15_6 1_555 1_555
Cu25_3 O16_6 1_555 1_555
Cu27_3 O17_6 1_555 1_555
Cu29_3 O18_6 1_555 1_555
O61_6 Cu19_6 1_555 1_555
O63_6 Cu2_6 1_555 1_555
O66_6 Cu1_6 1_555 1_555
C6_6 C7_6 1_555 1_555
O6_6 C21_6 1_555 1_555
C26_6 C27_6 1_555 1_555
O14_6 Cu30_3 1_555 1_555
N7_6 C48_6 1_555 1_555
C45_6 C48_6 1_555 1_555
C46_6 C47_6 1_555 1_555
C49_6 C50_6 1_555 1_555
C55_6 C56_6 1_555 1_555
N9_6 C62_6 1_555 1_555
C61_6 C62_6 1_555 1_555
C63_6 C64_6 1_555 1_555
C65_6 C66_6 1_555 1_555
O19_6 Cu30_3 1_555 1_555
C67_6 C68_6 1_555 1_555
N10_6 C76_6 1_555 1_555
C73_6 C76_6 1_555 1_555
C74_6 C75_6 1_555 1_555
C77_6 C78_6 1_555 1_555
O27_6 Cu30_3 1_555 1_555
C95_6 C96_6 1_555 1_555
O44_6 C145_6 1_555 1_555
C150_6 C151_6 1_555 1_555
O50_6 Cu15_6 1_555 1_555
N21_6 C166_6 1_555 1_555
C163_6 C166_6 1_555 1_555
C164_6 C165_6 1_555 1_555
C167_6 C168_6 1_555 1_555
O56_6 C169_6 1_555 1_555
C174_6 C175_6 1_555 1_555
O59_6 C183_6 1_555 1_555
N24_6 C190_6 1_555 1_555
C187_6 C190_6 1_555 1_555
C188_6 C189_6 1_555 1_555
C191_6 C192_6 1_555 1_555
O23_6 C79_6 1_555 1_555
C79_6 C80_6 1_555 1_555
C80_6 C81_6 1_555 1_555
C81_6 H39_6 1_555 1_555
C82_6 C81_6 1_555 1_555
C83_6 C82_6 1_555 1_555
O26_6 C79_6 1_555 1_555
C93_6 C80_6 1_555 1_555
H45_6 C93_6 1_555 1_555
C94_6 C83_6 1_555 1_555
Cu24_3 O23_6 1_555 1_555
O61_6 C97_6 1_555 1_555
O64_6 C97_6 1_555 1_555
O30_6 Cu24_3 1_555 1_555
N13_6 C104_6 1_555 1_555
N14_6 C104_6 1_555 1_555
C97_6 C98_6 1_555 1_555
C98_6 C99_6 1_555 1_555
C99_6 H49_6 1_555 1_555
C100_6 C99_6 1_555 1_555
H50_6 C100_6 1_555 1_555
C101_6 C100_6 1_555 1_555
C102_6 C101_6 1_555 1_555
H51_6 C102_6 1_555 1_555
C103_6 C98_6 1_555 1_555
H52_6 C103_6 1_555 1_555
C104_6 C101_6 1_555 1_555
C105_6 N14_6 1_555 1_555
C106_6 C105_6 1_555 1_555
C107_6 C106_6 1_555 1_555
H53_6 C107_6 1_555 1_555
C108_6 C107_6 1_555 1_555
H54_6 C108_6 1_555 1_555
C109_6 C108_6 1_555 1_555
C110_6 O30_6 1_555 1_555
O31_6 Cu24_3 1_555 1_555
O32_6 C111_6 1_555 1_555
O33_6 C111_6 1_555 1_555
O34_6 C110_6 1_555 1_555
N15_6 C105_6 1_555 1_555
C111_6 C112_6 1_555 1_555
C112_6 C113_6 1_555 1_555
C113_6 H55_6 1_555 1_555
C114_6 C113_6 1_555 1_555
H56_6 C114_6 1_555 1_555
C115_6 C114_6 1_555 1_555
C116_6 C115_6 1_555 1_555
H57_6 C116_6 1_555 1_555
C117_6 C112_6 1_555 1_555
H58_6 C117_6 1_555 1_555
C118_6 N13_6 1_555 1_555
C119_6 C106_6 1_555 1_555
H59_6 C119_6 1_555 1_555
C120_6 C109_6 1_555 1_555
H60_6 C120_6 1_555 1_555
Cu8_6 O32_6 1_555 1_555
Cu29_3 O26_6 1_555 1_555
O46_6 Cu8_6 1_555 1_555
O47_6 Cu29_3 1_555 1_555
O62_6 Cu8_6 1_555 1_555
C83_6 C84_6 1_555 1_555
C93_6 C94_6 1_555 1_555
C102_6 C103_6 1_555 1_555
C109_6 C110_6 1_555 1_555
O34_6 Cu29_3 1_555 1_555
N15_6 C118_6 1_555 1_555
C115_6 C118_6 1_555 1_555
C116_6 C117_6 1_555 1_555
C119_6 C120_6 1_555 1_555
O54_6 Cu15_6 1_555 1_555
O24_6 C85_6 1_555 1_555
C85_6 C86_6 1_555 1_555
C86_6 C87_6 1_555 1_555
C87_6 H41_6 1_555 1_555
C88_6 C87_6 1_555 1_555
C89_6 C88_6 1_555 1_555
O25_6 C85_6 1_555 1_555
C91_6 C86_6 1_555 1_555
H43_6 C91_6 1_555 1_555
C92_6 C89_6 1_555 1_555
H44_6 C92_6 1_555 1_555
Cu25_3 O24_6 1_555 1_555
O62_6 C121_6 1_555 1_555
O65_6 C121_6 1_555 1_555
O37_6 Cu25_3 1_555 1_555
N16_6 C128_6 1_555 1_555
N17_6 C128_6 1_555 1_555
C121_6 C122_6 1_555 1_555
C122_6 C123_6 1_555 1_555
C123_6 H61_6 1_555 1_555
C124_6 C123_6 1_555 1_555
H62_6 C124_6 1_555 1_555
C125_6 C124_6 1_555 1_555
C126_6 C125_6 1_555 1_555
H63_6 C126_6 1_555 1_555
C127_6 C122_6 1_555 1_555
H64_6 C127_6 1_555 1_555
C128_6 C125_6 1_555 1_555
C129_6 N17_6 1_555 1_555
C130_6 C129_6 1_555 1_555
C131_6 C130_6 1_555 1_555
H65_6 C131_6 1_555 1_555
C132_6 C131_6 1_555 1_555
H66_6 C132_6 1_555 1_555
C133_6 C132_6 1_555 1_555
C134_6 O37_6 1_555 1_555
O38_6 Cu25_3 1_555 1_555
O63_6 C135_6 1_555 1_555
O66_6 C135_6 1_555 1_555
O41_6 C134_6 1_555 1_555
N18_6 C129_6 1_555 1_555
C135_6 C136_6 1_555 1_555
C136_6 C137_6 1_555 1_555
C137_6 H67_6 1_555 1_555
C138_6 C137_6 1_555 1_555
H68_6 C138_6 1_555 1_555
C139_6 C138_6 1_555 1_555
C140_6 C139_6 1_555 1_555
H69_6 C140_6 1_555 1_555
C141_6 C136_6 1_555 1_555
H70_6 C141_6 1_555 1_555
C142_6 N16_6 1_555 1_555
C143_6 C130_6 1_555 1_555
H71_6 C143_6 1_555 1_555
C144_6 C133_6 1_555 1_555
H72_6 C144_6 1_555 1_555
Cu27_3 O25_6 1_555 1_555
O42_6 Cu27_3 1_555 1_555
N12_6 C90_6 1_555 1_555
C89_6 C90_6 1_555 1_555
C91_6 C92_6 1_555 1_555
C126_6 C127_6 1_555 1_555
C133_6 C134_6 1_555 1_555
O41_6 Cu27_3 1_555 1_555
N18_6 C142_6 1_555 1_555
C139_6 C142_6 1_555 1_555
C140_6 C141_6 1_555 1_555
C143_6 C144_6 1_555 1_555

#END
