
###############################################################################
#
# This file contains modified crystal structure data generated from the
# MOF subset of the Cambridge Structural Database (CSD) v543 
# hosted by the Cambridge Crystallographic Data Centre (CCDC).
#
# This work is licensed under the Creative Commons
# Attribution-NonCommercial-ShareAlike 4.0 International License.
# To view a copy of this license, visit
# http://creativecommons.org/licenses/by-nc-sa/4.0/
# or send a letter to
# Creative Commons, PO Box 1866, Mountain View, CA 94042, USA.
#
# CIF created using the CSD Python API on 29 September 2022
# The structure has been converted into the P1 space group
# The structure has a 3D framework
# The original CSD entry ACUREY is in the orthorhombic crystal system
# The framework has been calculated to contain at least 10.0% void space
# The void calculation uses a probe of radius 1.32A, grid spacing 0.4
#
###############################################################################

data_ACUREY
_chemical_formula_moiety         '(C464 H304 N48 Ni16 O92)n'
_symmetry_cell_setting           triclinic
_symmetry_space_group_name_H-M   'P 1'
_symmetry_Int_Tables_number      1
_space_group_name_Hall           'P 1'
loop_
_symmetry_equiv_pos_site_id
_symmetry_equiv_pos_as_xyz
1 x,y,z
_cell_length_a                   19.6682(6)
_cell_length_b                   25.9267(10)
_cell_length_c                   23.5206(10)
_cell_angle_alpha                90
_cell_angle_beta                 90
_cell_angle_gamma                90
_cell_volume                     11993.9
loop_
_atom_site_label
_atom_site_type_symbol
_atom_site_fract_x
_atom_site_fract_y
_atom_site_fract_z
Ni4 Ni 0.066412(14) 0.048478(11) 0.585495(13)
H9 H 0.8378 0.0123 0.5800
O2 O 0.70739(10) 0.02075(9) 0.56887(11)
C29 C 0.96253(11) 0.00582(9) 0.62108(10)
O5 O 0.96143(8) 0.03356(7) 0.57623(7)
N3 N 0.57878(10) 0.59959(8) 0.01864(9)
C28 C 0.63137(15) 0.63089(12) 0.01009(13)
H19 H 0.6656 0.6317 0.0374
Ni3 Ni 0.566412(14) 0.548478(11) 0.085495(13)
Ni1 Ni 0.433588(14) 0.548478(11) 0.585495(13)
C1 C 0.53398(15) 0.62946(11) 0.93048(12)
H1 H 0.4992 0.6279 0.9038
N1 N 0.55544(10) 0.67224(8) 0.82498(9)
C2 C 0.77324(12) 0.95097(8) 0.68676(11)
H2 H 0.7319 0.9404 0.7019
N2 N 0.45910(10) 0.60818(8) 0.64256(9)
C3 C 0.89524(11) 0.95781(8) 0.69464(11)
H3 H 0.9354 0.9508 0.7140
C4 C 0.63821(12) 0.75900(9) 0.80797(11)
C5 C 0.55943(12) 0.69457(9) 0.77389(11)
C6 C 0.63434(13) 0.73491(9) 0.86061(11)
H4 H 0.6592 0.7475 0.8912
O1 O 0.83327(8) 0.91600(7) 0.76822(7)
C7 C 0.43928(12) 0.60592(10) 0.69710(12)
H5 H 0.4036 0.5840 0.7065
C8 C 0.68640(12) 0.80223(9) 0.79735(11)
C9 C 0.59951(12) 0.73826(9) 0.76445(11)
H6 H 0.6002 0.7535 0.7287
C10 C 0.46883(13) 0.63424(10) 0.73969(11)
H7 H 0.4533 0.6309 0.7769
C11 C 0.76514(12) 0.84496(9) 0.73406(11)
H8 H 0.7853 0.8473 0.6984
C12 C 0.89642(10) 0.98515(8) 0.64366(10)
C13 C 0.83665(11) 0.99423(9) 0.61412(11)
C14 C 0.59278(13) 0.69160(10) 0.86731(11)
C15 C 0.52177(12) 0.66776(8) 0.72758(11)
C16 C 0.77508(11) 0.97641(9) 0.63527(11)
C17 C 0.71665(13) 0.80758(9) 0.74449(11)
H10 H 0.7040 0.7854 0.7152
C18 C 0.63796(16) 0.66207(13) 0.96331(14)
H11 H 0.6757 0.6834 0.9596
C19 C 0.58847(14) 0.66168(10) 0.92173(11)
C20 C 0.78361(12) 0.87867(9) 0.77642(11)
C21 C 0.83350(11) 0.94121(9) 0.71598(10)
C22 C 0.54055(15) 0.67172(11) 0.67112(12)
H12 H 0.5746 0.6946 0.6604
C23 C 0.70663(15) 0.83665(10) 0.83990(12)
H13 H 0.6877 0.8339 0.8760
C24 C 0.71010(11) 0.98434(10) 0.60299(12)
C25 C 0.75444(15) 0.87489(11) 0.82922(12)
H14 H 0.7666 0.8979 0.8578
C26 C 0.53098(14) 0.59966(11) 0.97856(12)
H15 H 0.4935 0.5783 0.9835
C27 C 0.50876(15) 0.64168(10) 0.63055(12)
H16 H 0.5226 0.6449 0.5929
O3 O 0.66261(8) 0.95291(6) 0.61381(8)
O4 O 0.41448(8) 0.48615(6) 0.53266(8)
H17 H 0.4255 0.4934 0.4978
H18 H 0.3716 0.4781 0.5334
Ni2 Ni 0.566412(14) 0.951522(11) 0.585495(13)
O7 O 0.33739(8) 0.54709(6) 0.61381(8)
N4 N 0.42122(10) 0.59959(8) 0.51864(9)
O8 O 0.53857(8) 0.53356(7) 0.57623(7)
O9 O 0.48227(8) 0.49754(6) 0.64651(7)
O4_2 O 0.58552(8) 0.01385(6) 0.53266(8)
H17_2 H 0.5745 0.0066 0.4978
H18_2 H 0.6284 0.0219 0.5334
O9_2 O 0.51773(8) 0.00246(6) 0.64651(7)
N3_2 N 0.42122(10) 0.90041(8) 0.01864(9)
C28_2 C 0.36863(15) 0.86911(12) 0.01009(13)
H19_2 H 0.3344 0.8683 0.0374
Ni3_2 Ni 0.433588(14) 0.951522(11) 0.085495(13)
C1_2 C 0.46602(15) 0.87054(11) 0.93048(12)
H1_2 H 0.5008 0.8721 0.9038
N1_2 N 0.44456(10) 0.82776(8) 0.82498(9)
C2_2 C 0.22676(12) 0.54903(8) 0.68676(11)
H2_2 H 0.2681 0.5596 0.7019
N2_2 N 0.54090(10) 0.89182(8) 0.64256(9)
C3_2 C 0.10476(11) 0.54219(8) 0.69464(11)
H3_2 H 0.0646 0.5492 0.7140
C4_2 C 0.36179(12) 0.74100(9) 0.80797(11)
C5_2 C 0.44057(12) 0.80543(9) 0.77389(11)
C6_2 C 0.36566(13) 0.76509(9) 0.86061(11)
H4_2 H 0.3408 0.7525 0.8912
O1_2 O 0.16673(8) 0.58400(7) 0.76822(7)
C7_2 C 0.56072(12) 0.89408(10) 0.69710(12)
H5_2 H 0.5964 0.9160 0.7065
C8_2 C 0.31360(12) 0.69777(9) 0.79735(11)
C9_2 C 0.40049(12) 0.76174(9) 0.76445(11)
H6_2 H 0.3998 0.7465 0.7287
C10_2 C 0.53117(13) 0.86576(10) 0.73969(11)
H7_2 H 0.5467 0.8691 0.7769
C11_2 C 0.23486(12) 0.65504(9) 0.73406(11)
H8_2 H 0.2147 0.6527 0.6984
C12_2 C 0.10358(10) 0.51485(8) 0.64366(10)
C13_2 C 0.16335(11) 0.50577(9) 0.61412(11)
H9_2 H 0.1622 0.4877 0.5800
C14_2 C 0.40722(13) 0.80840(10) 0.86731(11)
C15_2 C 0.47823(12) 0.83224(8) 0.72758(11)
C16_2 C 0.22492(11) 0.52359(9) 0.63527(11)
O2_2 O 0.29261(10) 0.47925(9) 0.56887(11)
C17_2 C 0.28335(13) 0.69242(9) 0.74449(11)
H10_2 H 0.2960 0.7146 0.7152
C18_2 C 0.36204(16) 0.83793(13) 0.96331(14)
H11_2 H 0.3243 0.8166 0.9596
C19_2 C 0.41153(14) 0.83832(10) 0.92173(11)
C20_2 C 0.21639(12) 0.62133(9) 0.77642(11)
C21_2 C 0.16650(11) 0.55879(9) 0.71598(10)
C22_2 C 0.45945(15) 0.82828(11) 0.67112(12)
H12_2 H 0.4254 0.8054 0.6604
C23_2 C 0.29337(15) 0.66335(10) 0.83990(12)
H13_2 H 0.3123 0.6661 0.8760
C24_2 C 0.28990(11) 0.51566(10) 0.60299(12)
C25_2 C 0.24556(15) 0.62511(11) 0.82922(12)
H14_2 H 0.2334 0.6021 0.8578
C26_2 C 0.46902(14) 0.90034(11) 0.97856(12)
H15_2 H 0.5065 0.9217 0.9835
C27_2 C 0.49124(15) 0.85832(10) 0.63055(12)
H16_2 H 0.4774 0.8551 0.5929
C29_2 C 0.03747(11) 0.49418(9) 0.62108(10)
O5_2 O 0.03857(8) 0.46644(7) 0.57623(7)
N4_2 N 0.57878(10) 0.90041(8) 0.51864(9)
O8_2 O 0.46143(8) 0.96644(7) 0.57623(7)
O6 O 0.98227(8) 0.50246(6) 0.64651(7)
Ni4_2 Ni 0.933588(14) 0.451522(11) 0.585495(13)
C1_3 C 0.03398(15) 0.12946(11) 0.43048(12)
N1_3 N 0.05544(10) 0.17224(8) 0.32498(9)
C2_3 C 0.27324(12) 0.45097(8) 0.18676(11)
H2_3 H 0.2319 0.4404 0.2019
C3_3 C 0.39524(11) 0.45781(8) 0.19464(11)
H3_3 H 0.4354 0.4508 0.2140
C4_3 C 0.13821(12) 0.25900(9) 0.30797(11)
C5_3 C 0.05943(12) 0.19457(9) 0.27389(11)
C6_3 C 0.13434(13) 0.23491(9) 0.36061(11)
H4_3 H 0.1592 0.2475 0.3912
O1_3 O 0.33327(8) 0.41600(7) 0.26822(7)
C8_3 C 0.18640(12) 0.30223(9) 0.29735(11)
C9_3 C 0.09951(12) 0.23826(9) 0.26445(11)
H6_3 H 0.1002 0.2535 0.2287
C11_3 C 0.26514(12) 0.34496(9) 0.23406(11)
H8_3 H 0.2853 0.3473 0.1984
C12_3 C 0.39642(10) 0.48515(8) 0.14366(10)
C13_3 C 0.33665(11) 0.49423(9) 0.11412(11)
H9_3 H 0.3378 0.5123 0.0800
C14_3 C 0.09278(13) 0.19160(10) 0.36731(11)
C15_3 C 0.02177(12) 0.16776(8) 0.22758(11)
C16_3 C 0.27508(11) 0.47641(9) 0.13527(11)
O2_3 O 0.20739(10) 0.52075(9) 0.06887(11)
C17_3 C 0.21665(13) 0.30758(9) 0.24449(11)
H10_3 H 0.2040 0.2854 0.2152
C18_3 C 0.13796(16) 0.16207(13) 0.46331(14)
H11_3 H 0.1757 0.1834 0.4596
C19_3 C 0.08847(14) 0.16168(10) 0.42173(11)
C20_3 C 0.28361(12) 0.37867(9) 0.27642(11)
C21_3 C 0.33350(11) 0.44121(9) 0.21598(10)
C22_3 C 0.04055(15) 0.17172(11) 0.17112(12)
H12_3 H 0.0746 0.1946 0.1604
C23_3 C 0.20663(15) 0.33665(10) 0.33990(12)
H13_3 H 0.1877 0.3339 0.3760
C24_3 C 0.21010(11) 0.48434(10) 0.10299(12)
C25_3 C 0.25444(15) 0.37489(11) 0.32922(12)
H14_3 H 0.2666 0.3979 0.3578
C26_3 C 0.03098(14) 0.09966(11) 0.47856(12)
C27_3 C 0.00876(15) 0.14168(10) 0.13055(12)
H16_3 H 0.0226 0.1449 0.0929
O3_2 O 0.16261(8) 0.45291(6) 0.11381(8)
N3_3 N 0.07878(10) 0.09959(8) 0.51864(9)
C28_3 C 0.13137(15) 0.13089(12) 0.51009(13)
H19_3 H 0.1656 0.1317 0.5374
C29_3 C 0.46253(11) 0.50582(9) 0.12108(10)
O5_3 O 0.46143(8) 0.53356(7) 0.07623(7)
O6_2 O 0.51773(8) 0.49754(6) 0.14651(7)
Ni2_2 Ni 0.066412(14) 0.451522(11) 0.085495(13)
O8_3 O 0.03857(8) 0.03356(7) 0.07623(7)
Ni1_2 Ni 0.933588(14) 0.048478(11) 0.085495(13)
H1_3 H 0.9992 0.1279 0.4038
N2_3 N 0.95910(10) 0.10818(8) 0.14256(9)
C7_3 C 0.93928(12) 0.10592(10) 0.19710(12)
H5_3 H 0.9036 0.0840 0.2065
C10_3 C 0.96883(13) 0.13424(10) 0.23969(11)
H7_3 H 0.9533 0.1309 0.2769
H15_3 H 0.9935 0.0783 0.4835
O7_2 O 0.83739(8) 0.04709(6) 0.11381(8)
N4_3 N 0.92122(10) 0.09959(8) 0.01864(9)
H1_4 H 0.0008 0.3721 0.4038
N2_4 N 0.04090(10) 0.39182(8) 0.14256(9)
C7_4 C 0.06072(12) 0.39408(10) 0.19710(12)
H5_4 H 0.0964 0.4160 0.2065
C10_4 C 0.03117(13) 0.36576(10) 0.23969(11)
H7_4 H 0.0467 0.3691 0.2769
H15_4 H 0.0065 0.4217 0.4835
O4_3 O 0.08552(8) 0.51385(6) 0.03266(8)
H18_3 H 0.1284 0.5219 0.0334
N4_4 N 0.07878(10) 0.40041(8) 0.01864(9)
O9_3 O 0.01773(8) 0.50246(6) 0.14651(7)
C1_4 C 0.96602(15) 0.37054(11) 0.43048(12)
N1_4 N 0.94456(10) 0.32776(8) 0.32498(9)
C2_4 C 0.72676(12) 0.04903(8) 0.18676(11)
H2_4 H 0.7681 0.0596 0.2019
C3_4 C 0.60476(11) 0.04219(8) 0.19464(11)
H3_4 H 0.5646 0.0492 0.2140
C4_4 C 0.86179(12) 0.24100(9) 0.30797(11)
C5_4 C 0.94057(12) 0.30543(9) 0.27389(11)
C6_4 C 0.86566(13) 0.26509(9) 0.36061(11)
H4_4 H 0.8408 0.2525 0.3912
O1_4 O 0.66673(8) 0.08400(7) 0.26822(7)
C8_4 C 0.81360(12) 0.19777(9) 0.29735(11)
C9_4 C 0.90049(12) 0.26174(9) 0.26445(11)
H6_4 H 0.8998 0.2465 0.2287
C11_4 C 0.73486(12) 0.15504(9) 0.23406(11)
H8_4 H 0.7147 0.1527 0.1984
C12_4 C 0.60358(10) 0.01485(8) 0.14366(10)
C13_4 C 0.66335(11) 0.00577(9) 0.11412(11)
C14_4 C 0.90722(13) 0.30840(10) 0.36731(11)
C15_4 C 0.97823(12) 0.33224(8) 0.22758(11)
C16_4 C 0.72492(11) 0.02359(9) 0.13527(11)
C17_4 C 0.78335(13) 0.19242(9) 0.24449(11)
H10_4 H 0.7960 0.2146 0.2152
C18_4 C 0.86204(16) 0.33793(13) 0.46331(14)
H11_4 H 0.8243 0.3166 0.4596
C19_4 C 0.91153(14) 0.33832(10) 0.42173(11)
C20_4 C 0.71639(12) 0.12133(9) 0.27642(11)
C21_4 C 0.66650(11) 0.05879(9) 0.21598(10)
C22_4 C 0.95945(15) 0.32828(11) 0.17112(12)
H12_4 H 0.9254 0.3054 0.1604
C23_4 C 0.79337(15) 0.16335(10) 0.33990(12)
H13_4 H 0.8123 0.1661 0.3760
C24_4 C 0.78990(11) 0.01566(10) 0.10299(12)
C25_4 C 0.74556(15) 0.12511(11) 0.32922(12)
H14_4 H 0.7334 0.1021 0.3578
C26_4 C 0.96902(14) 0.40034(11) 0.47856(12)
C27_4 C 0.99124(15) 0.35832(10) 0.13055(12)
H16_4 H 0.9774 0.3551 0.0929
N3_4 N 0.92122(10) 0.40041(8) 0.51864(9)
C28_4 C 0.86863(15) 0.36911(12) 0.51009(13)
H19_4 H 0.8344 0.3683 0.5374
O6_3 O 0.48227(8) 0.00246(6) 0.14651(7)
O8_4 O 0.96143(8) 0.46644(7) 0.07623(7)
H9_4 H 0.6622 0.9877 0.0800
O2_4 O 0.79261(10) 0.97925(9) 0.06887(11)
C29_4 C 0.53747(11) 0.99418(9) 0.12108(10)
O5_4 O 0.53857(8) 0.96644(7) 0.07623(7)
H9_5 H 0.1622 0.0123 0.0800
O2_5 O 0.29261(10) 0.02075(9) 0.06887(11)
C29_5 C 0.03747(11) 0.00582(9) 0.12108(10)
C1_5 C 0.46602(15) 0.62946(11) 0.43048(12)
H1_5 H 0.5008 0.6279 0.4038
N1_5 N 0.44456(10) 0.67224(8) 0.32498(9)
C2_5 C 0.22676(12) 0.95097(8) 0.18676(11)
H2_5 H 0.2681 0.9404 0.2019
N2_5 N 0.54090(10) 0.60818(8) 0.14256(9)
C3_5 C 0.10476(11) 0.95781(8) 0.19464(11)
H3_5 H 0.0646 0.9508 0.2140
C4_5 C 0.36179(12) 0.75900(9) 0.30797(11)
C5_5 C 0.44057(12) 0.69457(9) 0.27389(11)
C6_5 C 0.36566(13) 0.73491(9) 0.36061(11)
H4_5 H 0.3408 0.7475 0.3912
O1_5 O 0.16673(8) 0.91600(7) 0.26822(7)
C7_5 C 0.56072(12) 0.60592(10) 0.19710(12)
H5_5 H 0.5964 0.5840 0.2065
C8_5 C 0.31360(12) 0.80223(9) 0.29735(11)
C9_5 C 0.40049(12) 0.73826(9) 0.26445(11)
H6_5 H 0.3998 0.7535 0.2287
C10_5 C 0.53117(13) 0.63424(10) 0.23969(11)
H7_5 H 0.5467 0.6309 0.2769
C11_5 C 0.23486(12) 0.84496(9) 0.23406(11)
H8_5 H 0.2147 0.8473 0.1984
C12_5 C 0.10358(10) 0.98515(8) 0.14366(10)
C13_5 C 0.16335(11) 0.99423(9) 0.11412(11)
C14_5 C 0.40722(13) 0.69160(10) 0.36731(11)
C15_5 C 0.47823(12) 0.66776(8) 0.22758(11)
C16_5 C 0.22492(11) 0.97641(9) 0.13527(11)
C17_5 C 0.28335(13) 0.80758(9) 0.24449(11)
H10_5 H 0.2960 0.7854 0.2152
C18_5 C 0.36204(16) 0.66207(13) 0.46331(14)
H11_5 H 0.3243 0.6834 0.4596
C19_5 C 0.41153(14) 0.66168(10) 0.42173(11)
C20_5 C 0.21639(12) 0.87867(9) 0.27642(11)
C21_5 C 0.16650(11) 0.94121(9) 0.21598(10)
C22_5 C 0.45945(15) 0.67172(11) 0.17112(12)
H12_5 H 0.4254 0.6946 0.1604
C23_5 C 0.29337(15) 0.83665(10) 0.33990(12)
H13_5 H 0.3123 0.8339 0.3760
C24_5 C 0.28990(11) 0.98434(10) 0.10299(12)
C25_5 C 0.24556(15) 0.87489(11) 0.32922(12)
H14_5 H 0.2334 0.8979 0.3578
C26_5 C 0.46902(14) 0.59966(11) 0.47856(12)
H15_5 H 0.5065 0.5783 0.4835
C27_5 C 0.49124(15) 0.64168(10) 0.13055(12)
H16_5 H 0.4774 0.6449 0.0929
O3_3 O 0.33739(8) 0.95291(6) 0.11381(8)
O4_4 O 0.58552(8) 0.48615(6) 0.03266(8)
H18_4 H 0.6284 0.4781 0.0334
C28_5 C 0.36863(15) 0.63089(12) 0.51009(13)
H19_5 H 0.3344 0.6317 0.5374
O7_3 O 0.66261(8) 0.54709(6) 0.11381(8)
C28_6 C 0.13137(15) 0.36911(12) 0.01009(13)
H19_6 H 0.1656 0.3683 0.0374
C1_6 C 0.03398(15) 0.37054(11) 0.93048(12)
N1_6 N 0.05544(10) 0.32776(8) 0.82498(9)
C2_6 C 0.27324(12) 0.04903(8) 0.68676(11)
H2_6 H 0.2319 0.0596 0.7019
C3_6 C 0.39524(11) 0.04219(8) 0.69464(11)
H3_6 H 0.4354 0.0492 0.7140
C4_6 C 0.13821(12) 0.24100(9) 0.80797(11)
C5_6 C 0.05943(12) 0.30543(9) 0.77389(11)
C6_6 C 0.13434(13) 0.26509(9) 0.86061(11)
H4_6 H 0.1592 0.2525 0.8912
O1_6 O 0.33327(8) 0.08400(7) 0.76822(7)
C8_6 C 0.18640(12) 0.19777(9) 0.79735(11)
C9_6 C 0.09951(12) 0.26174(9) 0.76445(11)
H6_6 H 0.1002 0.2465 0.7287
C11_6 C 0.26514(12) 0.15504(9) 0.73406(11)
H8_6 H 0.2853 0.1527 0.6984
C12_6 C 0.39642(10) 0.01485(8) 0.64366(10)
C13_6 C 0.33665(11) 0.00577(9) 0.61412(11)
C14_6 C 0.09278(13) 0.30840(10) 0.86731(11)
C15_6 C 0.02177(12) 0.33224(8) 0.72758(11)
C16_6 C 0.27508(11) 0.02359(9) 0.63527(11)
C17_6 C 0.21665(13) 0.19242(9) 0.74449(11)
H10_6 H 0.2040 0.2146 0.7152
C18_6 C 0.13796(16) 0.33793(13) 0.96331(14)
H11_6 H 0.1757 0.3166 0.9596
C19_6 C 0.08847(14) 0.33832(10) 0.92173(11)
C20_6 C 0.28361(12) 0.12133(9) 0.77642(11)
C21_6 C 0.33350(11) 0.05879(9) 0.71598(10)
C22_6 C 0.04055(15) 0.32828(11) 0.67112(12)
H12_6 H 0.0746 0.3054 0.6604
C23_6 C 0.20663(15) 0.16335(10) 0.83990(12)
H13_6 H 0.1877 0.1661 0.8760
C24_6 C 0.21010(11) 0.01566(10) 0.60299(12)
C25_6 C 0.25444(15) 0.12511(11) 0.82922(12)
H14_6 H 0.2666 0.1021 0.8578
C26_6 C 0.03098(14) 0.40034(11) 0.97856(12)
C27_6 C 0.00876(15) 0.35832(10) 0.63055(12)
H16_6 H 0.0226 0.3551 0.5929
O3_4 O 0.16261(8) 0.04709(6) 0.61381(8)
H9_6 H 0.3378 0.9877 0.5800
O2_6 O 0.20739(10) 0.97925(9) 0.56887(11)
C29_6 C 0.46253(11) 0.99418(9) 0.62108(10)
H1_6 H 0.9992 0.3721 0.9038
N2_6 N 0.95910(10) 0.39182(8) 0.64256(9)
C7_6 C 0.93928(12) 0.39408(10) 0.69710(12)
H5_6 H 0.9036 0.4160 0.7065
C10_6 C 0.96883(13) 0.36576(10) 0.73969(11)
H7_6 H 0.9533 0.3691 0.7769
H15_6 H 0.9935 0.4217 0.9835
O4_5 O 0.91448(8) 0.51385(6) 0.53266(8)
H17_3 H 0.9255 0.5066 0.4978
H18_5 H 0.8716 0.5219 0.5334
O7_4 O 0.83739(8) 0.45291(6) 0.61381(8)
H1_7 H 0.0008 0.1279 0.9038
N2_7 N 0.04090(10) 0.10818(8) 0.64256(9)
C7_7 C 0.06072(12) 0.10592(10) 0.69710(12)
H5_7 H 0.0964 0.0840 0.7065
C10_7 C 0.03117(13) 0.13424(10) 0.73969(11)
H7_7 H 0.0467 0.1309 0.7769
H15_7 H 0.0065 0.0783 0.9835
C28_7 C 0.86863(15) 0.13089(12) 0.01009(13)
H19_7 H 0.8344 0.1317 0.0374
C1_7 C 0.96602(15) 0.12946(11) 0.93048(12)
N1_7 N 0.94456(10) 0.17224(8) 0.82498(9)
C2_7 C 0.72676(12) 0.45097(8) 0.68676(11)
H2_7 H 0.7681 0.4404 0.7019
C3_7 C 0.60476(11) 0.45781(8) 0.69464(11)
H3_7 H 0.5646 0.4508 0.7140
C4_7 C 0.86179(12) 0.25900(9) 0.80797(11)
C5_7 C 0.94057(12) 0.19457(9) 0.77389(11)
C6_7 C 0.86566(13) 0.23491(9) 0.86061(11)
H4_7 H 0.8408 0.2475 0.8912
O1_7 O 0.66673(8) 0.41600(7) 0.76822(7)
C8_7 C 0.81360(12) 0.30223(9) 0.79735(11)
C9_7 C 0.90049(12) 0.23826(9) 0.76445(11)
H6_7 H 0.8998 0.2535 0.7287
C11_7 C 0.73486(12) 0.34496(9) 0.73406(11)
H8_7 H 0.7147 0.3473 0.6984
C12_7 C 0.60358(10) 0.48515(8) 0.64366(10)
C13_7 C 0.66335(11) 0.49423(9) 0.61412(11)
H9_7 H 0.6622 0.5123 0.5800
C14_7 C 0.90722(13) 0.19160(10) 0.86731(11)
C15_7 C 0.97823(12) 0.16776(8) 0.72758(11)
C16_7 C 0.72492(11) 0.47641(9) 0.63527(11)
O2_7 O 0.79261(10) 0.52075(9) 0.56887(11)
C17_7 C 0.78335(13) 0.30758(9) 0.74449(11)
H10_7 H 0.7960 0.2854 0.7152
C18_7 C 0.86204(16) 0.16207(13) 0.96331(14)
H11_7 H 0.8243 0.1834 0.9596
C19_7 C 0.91153(14) 0.16168(10) 0.92173(11)
C20_7 C 0.71639(12) 0.37867(9) 0.77642(11)
C21_7 C 0.66650(11) 0.44121(9) 0.71598(10)
C22_7 C 0.95945(15) 0.17172(11) 0.67112(12)
H12_7 H 0.9254 0.1946 0.6604
C23_7 C 0.79337(15) 0.33665(10) 0.83990(12)
H13_7 H 0.8123 0.3339 0.8760
C24_7 C 0.78990(11) 0.48434(10) 0.60299(12)
C25_7 C 0.74556(15) 0.37489(11) 0.82922(12)
H14_7 H 0.7334 0.3979 0.8578
C26_7 C 0.96902(14) 0.09966(11) 0.97856(12)
C27_7 C 0.99124(15) 0.14168(10) 0.63055(12)
H16_7 H 0.9774 0.1449 0.5929
C29_7 C 0.53747(11) 0.50582(9) 0.62108(10)
O4_6 O 0.41448(8) 0.01385(6) 0.03266(8)
H18_6 H 0.3716 0.0219 0.0334
C1_8 C 0.53398(15) 0.87054(11) 0.43048(12)
H1_8 H 0.4992 0.8721 0.4038
N1_8 N 0.55544(10) 0.82776(8) 0.32498(9)
C2_8 C 0.77324(12) 0.54903(8) 0.18676(11)
H2_8 H 0.7319 0.5596 0.2019
N2_8 N 0.45910(10) 0.89182(8) 0.14256(9)
C3_8 C 0.89524(11) 0.54219(8) 0.19464(11)
H3_8 H 0.9354 0.5492 0.2140
C4_8 C 0.63821(12) 0.74100(9) 0.30797(11)
C5_8 C 0.55943(12) 0.80543(9) 0.27389(11)
C6_8 C 0.63434(13) 0.76509(9) 0.36061(11)
H4_8 H 0.6592 0.7525 0.3912
O1_8 O 0.83327(8) 0.58400(7) 0.26822(7)
C7_8 C 0.43928(12) 0.89408(10) 0.19710(12)
H5_8 H 0.4036 0.9160 0.2065
C8_8 C 0.68640(12) 0.69777(9) 0.29735(11)
C9_8 C 0.59951(12) 0.76174(9) 0.26445(11)
H6_8 H 0.6002 0.7465 0.2287
C10_8 C 0.46883(13) 0.86576(10) 0.23969(11)
H7_8 H 0.4533 0.8691 0.2769
C11_8 C 0.76514(12) 0.65504(9) 0.23406(11)
H8_8 H 0.7853 0.6527 0.1984
C12_8 C 0.89642(10) 0.51485(8) 0.14366(10)
C13_8 C 0.83665(11) 0.50577(9) 0.11412(11)
H9_8 H 0.8378 0.4877 0.0800
C14_8 C 0.59278(13) 0.80840(10) 0.36731(11)
C15_8 C 0.52177(12) 0.83224(8) 0.22758(11)
C16_8 C 0.77508(11) 0.52359(9) 0.13527(11)
O2_8 O 0.70739(10) 0.47925(9) 0.06887(11)
C17_8 C 0.71665(13) 0.69242(9) 0.24449(11)
H10_8 H 0.7040 0.7146 0.2152
C18_8 C 0.63796(16) 0.83793(13) 0.46331(14)
H11_8 H 0.6757 0.8166 0.4596
C19_8 C 0.58847(14) 0.83832(10) 0.42173(11)
C20_8 C 0.78361(12) 0.62133(9) 0.27642(11)
C21_8 C 0.83350(11) 0.55879(9) 0.21598(10)
C22_8 C 0.54055(15) 0.82828(11) 0.17112(12)
H12_8 H 0.5746 0.8054 0.1604
C23_8 C 0.70663(15) 0.66335(10) 0.33990(12)
H13_8 H 0.6877 0.6661 0.3760
C24_8 C 0.71010(11) 0.51566(10) 0.10299(12)
C25_8 C 0.75444(15) 0.62511(11) 0.32922(12)
H14_8 H 0.7666 0.6021 0.3578
C26_8 C 0.53098(14) 0.90034(11) 0.47856(12)
H15_8 H 0.4935 0.9217 0.4835
C27_8 C 0.50876(15) 0.85832(10) 0.13055(12)
H16_8 H 0.5226 0.8551 0.0929
C28_8 C 0.63137(15) 0.86911(12) 0.51009(13)
H19_8 H 0.6656 0.8683 0.5374
C29_8 C 0.96253(11) 0.49418(9) 0.12108(10)
O6_4 O 0.01773(8) 0.99754(6) 0.64651(7)
O4_7 O 0.08552(8) 0.98615(6) 0.53266(8)
H17_4 H 0.0745 0.9934 0.4978
H18_7 H 0.1284 0.9781 0.5334
O6_5 O 0.01773(8) 0.00246(6) 0.85349(7)
O4_8 O 0.08552(8) 0.01385(6) 0.96734(8)
H18_8 H 0.1284 0.0219 0.9666
Ni4_3 Ni 0.066412(14) 0.951522(11) 0.914505(13)
Ni1_3 Ni 0.433588(14) 0.451522(11) 0.914505(13)
C1_9 C 0.53398(15) 0.37054(11) 0.56952(12)
H1_9 H 0.4992 0.3721 0.5962
N1_9 N 0.55544(10) 0.32776(8) 0.67502(9)
C2_9 C 0.77324(12) 0.04903(8) 0.81324(11)
H2_9 H 0.7319 0.0596 0.7981
N2_9 N 0.45910(10) 0.39182(8) 0.85744(9)
C3_9 C 0.89524(11) 0.04219(8) 0.80536(11)
H3_9 H 0.9354 0.0492 0.7860
C4_9 C 0.63821(12) 0.24100(9) 0.69203(11)
C5_9 C 0.55943(12) 0.30543(9) 0.72611(11)
C6_9 C 0.63434(13) 0.26509(9) 0.63939(11)
H4_9 H 0.6592 0.2525 0.6088
O1_9 O 0.83327(8) 0.08400(7) 0.73178(7)
C7_9 C 0.43928(12) 0.39408(10) 0.80290(12)
H5_9 H 0.4036 0.4160 0.7935
C8_9 C 0.68640(12) 0.19777(9) 0.70265(11)
C9_9 C 0.59951(12) 0.26174(9) 0.73555(11)
H6_9 H 0.6002 0.2465 0.7713
C10_9 C 0.46883(13) 0.36576(10) 0.76031(11)
H7_9 H 0.4533 0.3691 0.7231
C11_9 C 0.76514(12) 0.15504(9) 0.76594(11)
H8_9 H 0.7853 0.1527 0.8016
C12_9 C 0.89642(10) 0.01485(8) 0.85634(10)
C13_9 C 0.83665(11) 0.00577(9) 0.88588(11)
C14_9 C 0.59278(13) 0.30840(10) 0.63269(11)
C15_9 C 0.52177(12) 0.33224(8) 0.77242(11)
C16_9 C 0.77508(11) 0.02359(9) 0.86473(11)
C17_9 C 0.71665(13) 0.19242(9) 0.75551(11)
H10_9 H 0.7040 0.2146 0.7848
C18_9 C 0.63796(16) 0.33793(13) 0.53669(14)
H11_9 H 0.6757 0.3166 0.5404
C19_9 C 0.58847(14) 0.33832(10) 0.57827(11)
C20_9 C 0.78361(12) 0.12133(9) 0.72358(11)
C21_9 C 0.83350(11) 0.05879(9) 0.78402(10)
C22_9 C 0.54055(15) 0.32828(11) 0.82888(12)
H12_9 H 0.5746 0.3054 0.8396
C23_9 C 0.70663(15) 0.16335(10) 0.66010(12)
H13_9 H 0.6877 0.1661 0.6240
C24_9 C 0.71010(11) 0.01566(10) 0.89701(12)
C25_9 C 0.75444(15) 0.12511(11) 0.67078(12)
H14_9 H 0.7666 0.1021 0.6422
C26_9 C 0.53098(14) 0.40034(11) 0.52144(12)
H15_9 H 0.4935 0.4217 0.5165
C27_9 C 0.50876(15) 0.35832(10) 0.86945(12)
H16_9 H 0.5226 0.3551 0.9071
O3_5 O 0.66261(8) 0.04709(6) 0.88619(8)
O4_9 O 0.41448(8) 0.51385(6) 0.96734(8)
H18_9 H 0.3716 0.5219 0.9666
N3_5 N 0.57878(10) 0.40041(8) 0.48136(9)
C28_9 C 0.63137(15) 0.36911(12) 0.48991(13)
H19_9 H 0.6656 0.3683 0.4626
Ni2_3 Ni 0.566412(14) 0.048478(11) 0.914505(13)
Ni3_3 Ni 0.566412(14) 0.451522(11) 0.414505(13)
O7_5 O 0.33739(8) 0.45291(6) 0.88619(8)
N4_5 N 0.42122(10) 0.40041(8) 0.98136(9)
O8_5 O 0.53857(8) 0.46644(7) 0.92377(7)
O9_4 O 0.48227(8) 0.50246(6) 0.85349(7)
H9_9 H 0.8378 0.9877 0.9200
O2_9 O 0.70739(10) 0.97925(9) 0.93113(11)
C29_9 C 0.96253(11) 0.99418(9) 0.87892(10)
O5_5 O 0.96143(8) 0.96644(7) 0.92377(7)
Ni1_4 Ni 0.066412(14) 0.548478(11) 0.414505(13)
H1_10 H 0.0008 0.6279 0.0962
N2_10 N 0.04090(10) 0.60818(8) 0.35744(9)
C7_10 C 0.06072(12) 0.60592(10) 0.30290(12)
H5_10 H 0.0964 0.5840 0.2935
C10_10 C 0.03117(13) 0.63424(10) 0.26031(11)
H7_10 H 0.0467 0.6309 0.2231
H15_10 H 0.0065 0.5783 0.0165
O4_10 O 0.08552(8) 0.48615(6) 0.46734(8)
H17_5 H 0.0745 0.4934 0.5022
H18_10 H 0.1284 0.4781 0.4666
O7_6 O 0.16261(8) 0.54709(6) 0.38619(8)
N4_6 N 0.07878(10) 0.59959(8) 0.48136(9)
O9_5 O 0.01773(8) 0.49754(6) 0.35349(7)
H9_10 H 0.6622 0.0123 0.4200
O2_10 O 0.79261(10) 0.02075(9) 0.43113(11)
C29_10 C 0.53747(11) 0.00582(9) 0.37892(10)
O5_6 O 0.53857(8) 0.03356(7) 0.42377(7)
Ni4_4 Ni 0.433588(14) 0.048478(11) 0.414505(13)
C1_10 C 0.96602(15) 0.62946(11) 0.06952(12)
N1_10 N 0.94456(10) 0.67224(8) 0.17502(9)
C2_10 C 0.72676(12) 0.95097(8) 0.31324(11)
H2_10 H 0.7681 0.9404 0.2981
C3_10 C 0.60476(11) 0.95781(8) 0.30536(11)
H3_10 H 0.5646 0.9508 0.2860
C4_10 C 0.86179(12) 0.75900(9) 0.19203(11)
C5_10 C 0.94057(12) 0.69457(9) 0.22611(11)
C6_10 C 0.86566(13) 0.73491(9) 0.13939(11)
H4_10 H 0.8408 0.7475 0.1088
O1_10 O 0.66673(8) 0.91600(7) 0.23178(7)
C8_10 C 0.81360(12) 0.80223(9) 0.20265(11)
C9_10 C 0.90049(12) 0.73826(9) 0.23555(11)
H6_10 H 0.8998 0.7535 0.2713
C11_10 C 0.73486(12) 0.84496(9) 0.26594(11)
H8_10 H 0.7147 0.8473 0.3016
C12_10 C 0.60358(10) 0.98515(8) 0.35634(10)
C13_10 C 0.66335(11) 0.99423(9) 0.38588(11)
C14_10 C 0.90722(13) 0.69160(10) 0.13269(11)
C15_10 C 0.97823(12) 0.66776(8) 0.27242(11)
C16_10 C 0.72492(11) 0.97641(9) 0.36473(11)
C17_10 C 0.78335(13) 0.80758(9) 0.25551(11)
H10_10 H 0.7960 0.7854 0.2848
C18_10 C 0.86204(16) 0.66207(13) 0.03669(14)
H11_10 H 0.8243 0.6834 0.0404
C19_10 C 0.91153(14) 0.66168(10) 0.07827(11)
C20_10 C 0.71639(12) 0.87867(9) 0.22358(11)
C21_10 C 0.66650(11) 0.94121(9) 0.28402(10)
C22_10 C 0.95945(15) 0.67172(11) 0.32888(12)
H12_10 H 0.9254 0.6946 0.3396
C23_10 C 0.79337(15) 0.83665(10) 0.16010(12)
H13_10 H 0.8123 0.8339 0.1240
C24_10 C 0.78990(11) 0.98434(10) 0.39701(12)
C25_10 C 0.74556(15) 0.87489(11) 0.17078(12)
H14_10 H 0.7334 0.8979 0.1422
C26_10 C 0.96902(14) 0.59966(11) 0.02144(12)
C27_10 C 0.99124(15) 0.64168(10) 0.36945(12)
H16_10 H 0.9774 0.6449 0.4071
O3_6 O 0.83739(8) 0.95291(6) 0.38619(8)
O6_6 O 0.48227(8) 0.99754(6) 0.35349(7)
Ni2_4 Ni 0.933588(14) 0.951522(11) 0.414505(13)
O8_6 O 0.96143(8) 0.53356(7) 0.42377(7)
N3_6 N 0.92122(10) 0.59959(8) 0.98136(9)
C28_10 C 0.86863(15) 0.63089(12) 0.98991(13)
H19_10 H 0.8344 0.6317 0.9626
Ni3_4 Ni 0.933588(14) 0.548478(11) 0.914505(13)
C1_11 C 0.03398(15) 0.87054(11) 0.06952(12)
N1_11 N 0.05544(10) 0.82776(8) 0.17502(9)
C2_11 C 0.27324(12) 0.54903(8) 0.31324(11)
H2_11 H 0.2319 0.5596 0.2981
C3_11 C 0.39524(11) 0.54219(8) 0.30536(11)
H3_11 H 0.4354 0.5492 0.2860
C4_11 C 0.13821(12) 0.74100(9) 0.19203(11)
C5_11 C 0.05943(12) 0.80543(9) 0.22611(11)
C6_11 C 0.13434(13) 0.76509(9) 0.13939(11)
H4_11 H 0.1592 0.7525 0.1088
O1_11 O 0.33327(8) 0.58400(7) 0.23178(7)
C8_11 C 0.18640(12) 0.69777(9) 0.20265(11)
C9_11 C 0.09951(12) 0.76174(9) 0.23555(11)
H6_11 H 0.1002 0.7465 0.2713
C11_11 C 0.26514(12) 0.65504(9) 0.26594(11)
H8_11 H 0.2853 0.6527 0.3016
C12_11 C 0.39642(10) 0.51485(8) 0.35634(10)
C13_11 C 0.33665(11) 0.50577(9) 0.38588(11)
H9_11 H 0.3378 0.4877 0.4200
C14_11 C 0.09278(13) 0.80840(10) 0.13269(11)
C15_11 C 0.02177(12) 0.83224(8) 0.27242(11)
C16_11 C 0.27508(11) 0.52359(9) 0.36473(11)
O2_11 O 0.20739(10) 0.47925(9) 0.43113(11)
C17_11 C 0.21665(13) 0.69242(9) 0.25551(11)
H10_11 H 0.2040 0.7146 0.2848
C18_11 C 0.13796(16) 0.83793(13) 0.03669(14)
H11_11 H 0.1757 0.8166 0.0404
C19_11 C 0.08847(14) 0.83832(10) 0.07827(11)
C20_11 C 0.28361(12) 0.62133(9) 0.22358(11)
C21_11 C 0.33350(11) 0.55879(9) 0.28402(10)
C22_11 C 0.04055(15) 0.82828(11) 0.32888(12)
H12_11 H 0.0746 0.8054 0.3396
C23_11 C 0.20663(15) 0.66335(10) 0.16010(12)
H13_11 H 0.1877 0.6661 0.1240
C24_11 C 0.21010(11) 0.51566(10) 0.39701(12)
C25_11 C 0.25444(15) 0.62511(11) 0.17078(12)
H14_11 H 0.2666 0.6021 0.1422
C26_11 C 0.03098(14) 0.90034(11) 0.02144(12)
C27_11 C 0.00876(15) 0.85832(10) 0.36945(12)
H16_11 H 0.0226 0.8551 0.4071
C29_11 C 0.46253(11) 0.49418(9) 0.37892(10)
O5_7 O 0.46143(8) 0.46644(7) 0.42377(7)
O6_7 O 0.51773(8) 0.50246(6) 0.35349(7)
O8_7 O 0.03857(8) 0.96644(7) 0.42377(7)
N3_7 N 0.07878(10) 0.90041(8) 0.98136(9)
C28_11 C 0.13137(15) 0.86911(12) 0.98991(13)
H19_11 H 0.1656 0.8683 0.9626
H1_11 H 0.9992 0.8721 0.0962
N2_11 N 0.95910(10) 0.89182(8) 0.35744(9)
C7_11 C 0.93928(12) 0.89408(10) 0.30290(12)
H5_11 H 0.9036 0.9160 0.2935
C10_11 C 0.96883(13) 0.86576(10) 0.26031(11)
H7_11 H 0.9533 0.8691 0.2231
H15_11 H 0.9935 0.9217 0.0165
N4_7 N 0.92122(10) 0.90041(8) 0.48136(9)
C1_12 C 0.46602(15) 0.12946(11) 0.56952(12)
H1_12 H 0.5008 0.1279 0.5962
N1_12 N 0.44456(10) 0.17224(8) 0.67502(9)
C2_12 C 0.22676(12) 0.45097(8) 0.81324(11)
H2_12 H 0.2681 0.4404 0.7981
N2_12 N 0.54090(10) 0.10818(8) 0.85744(9)
C3_12 C 0.10476(11) 0.45781(8) 0.80536(11)
H3_12 H 0.0646 0.4508 0.7860
C4_12 C 0.36179(12) 0.25900(9) 0.69203(11)
C5_12 C 0.44057(12) 0.19457(9) 0.72611(11)
C6_12 C 0.36566(13) 0.23491(9) 0.63939(11)
H4_12 H 0.3408 0.2475 0.6088
O1_12 O 0.16673(8) 0.41600(7) 0.73178(7)
C7_12 C 0.56072(12) 0.10592(10) 0.80290(12)
H5_12 H 0.5964 0.0840 0.7935
C8_12 C 0.31360(12) 0.30223(9) 0.70265(11)
C9_12 C 0.40049(12) 0.23826(9) 0.73555(11)
H6_12 H 0.3998 0.2535 0.7713
C10_12 C 0.53117(13) 0.13424(10) 0.76031(11)
H7_12 H 0.5467 0.1309 0.7231
C11_12 C 0.23486(12) 0.34496(9) 0.76594(11)
H8_12 H 0.2147 0.3473 0.8016
C12_12 C 0.10358(10) 0.48515(8) 0.85634(10)
C13_12 C 0.16335(11) 0.49423(9) 0.88588(11)
H9_12 H 0.1622 0.5123 0.9200
C14_12 C 0.40722(13) 0.19160(10) 0.63269(11)
C15_12 C 0.47823(12) 0.16776(8) 0.77242(11)
C16_12 C 0.22492(11) 0.47641(9) 0.86473(11)
O2_12 O 0.29261(10) 0.52075(9) 0.93113(11)
C17_12 C 0.28335(13) 0.30758(9) 0.75551(11)
H10_12 H 0.2960 0.2854 0.7848
C18_12 C 0.36204(16) 0.16207(13) 0.53669(14)
H11_12 H 0.3243 0.1834 0.5404
C19_12 C 0.41153(14) 0.16168(10) 0.57827(11)
C20_12 C 0.21639(12) 0.37867(9) 0.72358(11)
C21_12 C 0.16650(11) 0.44121(9) 0.78402(10)
C22_12 C 0.45945(15) 0.17172(11) 0.82888(12)
H12_12 H 0.4254 0.1946 0.8396
C23_12 C 0.29337(15) 0.33665(10) 0.66010(12)
H13_12 H 0.3123 0.3339 0.6240
C24_12 C 0.28990(11) 0.48434(10) 0.89701(12)
C25_12 C 0.24556(15) 0.37489(11) 0.67078(12)
H14_12 H 0.2334 0.3979 0.6422
C26_12 C 0.46902(14) 0.09966(11) 0.52144(12)
H15_12 H 0.5065 0.0783 0.5165
C27_12 C 0.49124(15) 0.14168(10) 0.86945(12)
H16_12 H 0.4774 0.1449 0.9071
N3_8 N 0.42122(10) 0.09959(8) 0.48136(9)
C28_12 C 0.36863(15) 0.13089(12) 0.48991(13)
H19_12 H 0.3344 0.1317 0.4626
C29_12 C 0.03747(11) 0.50582(9) 0.87892(10)
O5_8 O 0.03857(8) 0.53356(7) 0.92377(7)
N4_8 N 0.57878(10) 0.09959(8) 0.98136(9)
O8_8 O 0.46143(8) 0.03356(7) 0.92377(7)
O4_11 O 0.58552(8) 0.98615(6) 0.96734(8)
H18_11 H 0.6284 0.9781 0.9666
O9_6 O 0.51773(8) 0.99754(6) 0.85349(7)
O6_8 O 0.98227(8) 0.49754(6) 0.85349(7)
C1_13 C 0.46602(15) 0.37054(11) 0.06952(12)
H1_13 H 0.5008 0.3721 0.0962
N1_13 N 0.44456(10) 0.32776(8) 0.17502(9)
C2_13 C 0.22676(12) 0.04903(8) 0.31324(11)
H2_13 H 0.2681 0.0596 0.2981
N2_13 N 0.54090(10) 0.39182(8) 0.35744(9)
C3_13 C 0.10476(11) 0.04219(8) 0.30536(11)
H3_13 H 0.0646 0.0492 0.2860
C4_13 C 0.36179(12) 0.24100(9) 0.19203(11)
C5_13 C 0.44057(12) 0.30543(9) 0.22611(11)
C6_13 C 0.36566(13) 0.26509(9) 0.13939(11)
H4_13 H 0.3408 0.2525 0.1088
O1_13 O 0.16673(8) 0.08400(7) 0.23178(7)
C7_13 C 0.56072(12) 0.39408(10) 0.30290(12)
H5_13 H 0.5964 0.4160 0.2935
C8_13 C 0.31360(12) 0.19777(9) 0.20265(11)
C9_13 C 0.40049(12) 0.26174(9) 0.23555(11)
H6_13 H 0.3998 0.2465 0.2713
C10_13 C 0.53117(13) 0.36576(10) 0.26031(11)
H7_13 H 0.5467 0.3691 0.2231
C11_13 C 0.23486(12) 0.15504(9) 0.26594(11)
H8_13 H 0.2147 0.1527 0.3016
C12_13 C 0.10358(10) 0.01485(8) 0.35634(10)
C13_13 C 0.16335(11) 0.00577(9) 0.38588(11)
C14_13 C 0.40722(13) 0.30840(10) 0.13269(11)
C15_13 C 0.47823(12) 0.33224(8) 0.27242(11)
C16_13 C 0.22492(11) 0.02359(9) 0.36473(11)
C17_13 C 0.28335(13) 0.19242(9) 0.25551(11)
H10_13 H 0.2960 0.2146 0.2848
C18_13 C 0.36204(16) 0.33793(13) 0.03669(14)
H11_13 H 0.3243 0.3166 0.0404
C19_13 C 0.41153(14) 0.33832(10) 0.07827(11)
C20_13 C 0.21639(12) 0.12133(9) 0.22358(11)
C21_13 C 0.16650(11) 0.05879(9) 0.28402(10)
C22_13 C 0.45945(15) 0.32828(11) 0.32888(12)
H12_13 H 0.4254 0.3054 0.3396
C23_13 C 0.29337(15) 0.16335(10) 0.16010(12)
H13_13 H 0.3123 0.1661 0.1240
C24_13 C 0.28990(11) 0.01566(10) 0.39701(12)
C25_13 C 0.24556(15) 0.12511(11) 0.17078(12)
H14_13 H 0.2334 0.1021 0.1422
C26_13 C 0.46902(14) 0.40034(11) 0.02144(12)
H15_13 H 0.5065 0.4217 0.0165
C27_13 C 0.49124(15) 0.35832(10) 0.36945(12)
H16_13 H 0.4774 0.3551 0.4071
O3_7 O 0.33739(8) 0.04709(6) 0.38619(8)
O4_12 O 0.58552(8) 0.51385(6) 0.46734(8)
H17_6 H 0.5745 0.5066 0.5022
H18_12 H 0.6284 0.5219 0.4666
O7_7 O 0.66261(8) 0.45291(6) 0.38619(8)
C28_13 C 0.36863(15) 0.36911(12) 0.98991(13)
H19_13 H 0.3344 0.3683 0.9626
H9_13 H 0.1622 0.9877 0.4200
O2_13 O 0.29261(10) 0.97925(9) 0.43113(11)
C29_13 C 0.03747(11) 0.99418(9) 0.37892(10)
C1_14 C 0.53398(15) 0.12946(11) 0.06952(12)
H1_14 H 0.4992 0.1279 0.0962
N1_14 N 0.55544(10) 0.17224(8) 0.17502(9)
C2_14 C 0.77324(12) 0.45097(8) 0.31324(11)
H2_14 H 0.7319 0.4404 0.2981
N2_14 N 0.45910(10) 0.10818(8) 0.35744(9)
C3_14 C 0.89524(11) 0.45781(8) 0.30536(11)
H3_14 H 0.9354 0.4508 0.2860
C4_14 C 0.63821(12) 0.25900(9) 0.19203(11)
C5_14 C 0.55943(12) 0.19457(9) 0.22611(11)
C6_14 C 0.63434(13) 0.23491(9) 0.13939(11)
H4_14 H 0.6592 0.2475 0.1088
O1_14 O 0.83327(8) 0.41600(7) 0.23178(7)
C7_14 C 0.43928(12) 0.10592(10) 0.30290(12)
H5_14 H 0.4036 0.0840 0.2935
C8_14 C 0.68640(12) 0.30223(9) 0.20265(11)
C9_14 C 0.59951(12) 0.23826(9) 0.23555(11)
H6_14 H 0.6002 0.2535 0.2713
C10_14 C 0.46883(13) 0.13424(10) 0.26031(11)
H7_14 H 0.4533 0.1309 0.2231
C11_14 C 0.76514(12) 0.34496(9) 0.26594(11)
H8_14 H 0.7853 0.3473 0.3016
C12_14 C 0.89642(10) 0.48515(8) 0.35634(10)
C13_14 C 0.83665(11) 0.49423(9) 0.38588(11)
H9_14 H 0.8378 0.5123 0.4200
C14_14 C 0.59278(13) 0.19160(10) 0.13269(11)
C15_14 C 0.52177(12) 0.16776(8) 0.27242(11)
C16_14 C 0.77508(11) 0.47641(9) 0.36473(11)
O2_14 O 0.70739(10) 0.52075(9) 0.43113(11)
C17_14 C 0.71665(13) 0.30758(9) 0.25551(11)
H10_14 H 0.7040 0.2854 0.2848
C18_14 C 0.63796(16) 0.16207(13) 0.03669(14)
H11_14 H 0.6757 0.1834 0.0404
C19_14 C 0.58847(14) 0.16168(10) 0.07827(11)
C20_14 C 0.78361(12) 0.37867(9) 0.22358(11)
C21_14 C 0.83350(11) 0.44121(9) 0.28402(10)
C22_14 C 0.54055(15) 0.17172(11) 0.32888(12)
H12_14 H 0.5746 0.1946 0.3396
C23_14 C 0.70663(15) 0.33665(10) 0.16010(12)
H13_14 H 0.6877 0.3339 0.1240
C24_14 C 0.71010(11) 0.48434(10) 0.39701(12)
C25_14 C 0.75444(15) 0.37489(11) 0.17078(12)
H14_14 H 0.7666 0.3979 0.1422
C26_14 C 0.53098(14) 0.09966(11) 0.02144(12)
H15_14 H 0.4935 0.0783 0.0165
C27_14 C 0.50876(15) 0.14168(10) 0.36945(12)
H16_14 H 0.5226 0.1449 0.4071
C29_14 C 0.96253(11) 0.50582(9) 0.37892(10)
C28_14 C 0.63137(15) 0.13089(12) 0.98991(13)
H19_14 H 0.6656 0.1317 0.9626
O4_13 O 0.41448(8) 0.98615(6) 0.46734(8)
H17_7 H 0.4255 0.9934 0.5022
H18_13 H 0.3716 0.9781 0.4666
H1_15 H 0.0008 0.8721 0.5962
N2_15 N 0.04090(10) 0.89182(8) 0.85744(9)
C7_15 C 0.06072(12) 0.89408(10) 0.80290(12)
H5_15 H 0.0964 0.9160 0.7935
C10_15 C 0.03117(13) 0.86576(10) 0.76031(11)
H7_15 H 0.0467 0.8691 0.7231
H15_15 H 0.0065 0.9217 0.5165
O7_8 O 0.16261(8) 0.95291(6) 0.88619(8)
C1_15 C 0.96602(15) 0.87054(11) 0.56952(12)
N1_15 N 0.94456(10) 0.82776(8) 0.67502(9)
C2_15 C 0.72676(12) 0.54903(8) 0.81324(11)
H2_15 H 0.7681 0.5596 0.7981
C3_15 C 0.60476(11) 0.54219(8) 0.80536(11)
H3_15 H 0.5646 0.5492 0.7860
C4_15 C 0.86179(12) 0.74100(9) 0.69203(11)
C5_15 C 0.94057(12) 0.80543(9) 0.72611(11)
C6_15 C 0.86566(13) 0.76509(9) 0.63939(11)
H4_15 H 0.8408 0.7525 0.6088
O1_15 O 0.66673(8) 0.58400(7) 0.73178(7)
C8_15 C 0.81360(12) 0.69777(9) 0.70265(11)
C9_15 C 0.90049(12) 0.76174(9) 0.73555(11)
H6_15 H 0.8998 0.7465 0.7713
C11_15 C 0.73486(12) 0.65504(9) 0.76594(11)
H8_15 H 0.7147 0.6527 0.8016
C12_15 C 0.60358(10) 0.51485(8) 0.85634(10)
C13_15 C 0.66335(11) 0.50577(9) 0.88588(11)
H9_15 H 0.6622 0.4877 0.9200
C14_15 C 0.90722(13) 0.80840(10) 0.63269(11)
C15_15 C 0.97823(12) 0.83224(8) 0.77242(11)
C16_15 C 0.72492(11) 0.52359(9) 0.86473(11)
O2_15 O 0.79261(10) 0.47925(9) 0.93113(11)
C17_15 C 0.78335(13) 0.69242(9) 0.75551(11)
H10_15 H 0.7960 0.7146 0.7848
C18_15 C 0.86204(16) 0.83793(13) 0.53669(14)
H11_15 H 0.8243 0.8166 0.5404
C19_15 C 0.91153(14) 0.83832(10) 0.57827(11)
C20_15 C 0.71639(12) 0.62133(9) 0.72358(11)
C21_15 C 0.66650(11) 0.55879(9) 0.78402(10)
C22_15 C 0.95945(15) 0.82828(11) 0.82888(12)
H12_15 H 0.9254 0.8054 0.8396
C23_15 C 0.79337(15) 0.66335(10) 0.66010(12)
H13_15 H 0.8123 0.6661 0.6240
C24_15 C 0.78990(11) 0.51566(10) 0.89701(12)
C25_15 C 0.74556(15) 0.62511(11) 0.67078(12)
H14_15 H 0.7334 0.6021 0.6422
C26_15 C 0.96902(14) 0.90034(11) 0.52144(12)
C27_15 C 0.99124(15) 0.85832(10) 0.86945(12)
H16_15 H 0.9774 0.8551 0.9071
O3_8 O 0.83739(8) 0.54709(6) 0.88619(8)
C28_15 C 0.86863(15) 0.86911(12) 0.48991(13)
H19_15 H 0.8344 0.8683 0.4626
C29_15 C 0.53747(11) 0.49418(9) 0.87892(10)
H9_16 H 0.3378 0.0123 0.9200
O2_16 O 0.20739(10) 0.02075(9) 0.93113(11)
C29_16 C 0.46253(11) 0.00582(9) 0.87892(10)
C1_16 C 0.03398(15) 0.62946(11) 0.56952(12)
N1_16 N 0.05544(10) 0.67224(8) 0.67502(9)
C2_16 C 0.27324(12) 0.95097(8) 0.81324(11)
H2_16 H 0.2319 0.9404 0.7981
C3_16 C 0.39524(11) 0.95781(8) 0.80536(11)
H3_16 H 0.4354 0.9508 0.7860
C4_16 C 0.13821(12) 0.75900(9) 0.69203(11)
C5_16 C 0.05943(12) 0.69457(9) 0.72611(11)
C6_16 C 0.13434(13) 0.73491(9) 0.63939(11)
H4_16 H 0.1592 0.7475 0.6088
O1_16 O 0.33327(8) 0.91600(7) 0.73178(7)
C8_16 C 0.18640(12) 0.80223(9) 0.70265(11)
C9_16 C 0.09951(12) 0.73826(9) 0.73555(11)
H6_16 H 0.1002 0.7535 0.7713
C11_16 C 0.26514(12) 0.84496(9) 0.76594(11)
H8_16 H 0.2853 0.8473 0.8016
C12_16 C 0.39642(10) 0.98515(8) 0.85634(10)
C13_16 C 0.33665(11) 0.99423(9) 0.88588(11)
C14_16 C 0.09278(13) 0.69160(10) 0.63269(11)
C15_16 C 0.02177(12) 0.66776(8) 0.77242(11)
C16_16 C 0.27508(11) 0.97641(9) 0.86473(11)
C17_16 C 0.21665(13) 0.80758(9) 0.75551(11)
H10_16 H 0.2040 0.7854 0.7848
C18_16 C 0.13796(16) 0.66207(13) 0.53669(14)
H11_16 H 0.1757 0.6834 0.5404
C19_16 C 0.08847(14) 0.66168(10) 0.57827(11)
C20_16 C 0.28361(12) 0.87867(9) 0.72358(11)
C21_16 C 0.33350(11) 0.94121(9) 0.78402(10)
C22_16 C 0.04055(15) 0.67172(11) 0.82888(12)
H12_16 H 0.0746 0.6946 0.8396
C23_16 C 0.20663(15) 0.83665(10) 0.66010(12)
H13_16 H 0.1877 0.8339 0.6240
C24_16 C 0.21010(11) 0.98434(10) 0.89701(12)
C25_16 C 0.25444(15) 0.87489(11) 0.67078(12)
H14_16 H 0.2666 0.8979 0.6422
C26_16 C 0.03098(14) 0.59966(11) 0.52144(12)
C27_16 C 0.00876(15) 0.64168(10) 0.86945(12)
H16_16 H 0.0226 0.6449 0.9071
C28_16 C 0.13137(15) 0.63089(12) 0.48991(13)
H19_16 H 0.1656 0.6317 0.4626
H1_16 H 0.9992 0.6279 0.5962
N2_16 N 0.95910(10) 0.60818(8) 0.85744(9)
C7_16 C 0.93928(12) 0.60592(10) 0.80290(12)
H5_16 H 0.9036 0.5840 0.7935
C10_16 C 0.96883(13) 0.63424(10) 0.76031(11)
H7_16 H 0.9533 0.6309 0.7231
H15_16 H 0.9935 0.5783 0.5165
O4_14 O 0.91448(8) 0.48615(6) 0.96734(8)
H18_14 H 0.8716 0.4781 0.9666
H17_8 H 0.4255 0.5066 0.0022
O4_15 O 0.91448(8) 0.98615(6) 0.03266(8)
H18_15 H 0.8716 0.9781 0.0334
O9_7 O 0.98227(8) 0.99754(6) 0.14651(7)
H17_9 H 0.9255 0.9934 0.9978
H17_10 H 0.0745 0.5066 0.9978
O4_16 O 0.91448(8) 0.01385(6) 0.46734(8)
H17_11 H 0.9255 0.0066 0.5022
H18_16 H 0.8716 0.0219 0.4666
O9_8 O 0.98227(8) 0.00246(6) 0.35349(7)
H17_12 H 0.5745 0.9934 0.0022
H17_13 H 0.5745 0.4934 0.9978
H17_14 H 0.0745 0.0066 0.0022
H17_15 H 0.9255 0.4934 0.0022
H17_16 H 0.4255 0.0066 0.9978
loop_
_geom_bond_atom_site_label_1
_geom_bond_atom_site_label_2
_geom_bond_site_symmetry_1
_geom_bond_site_symmetry_2
O5 C29 1_555 1_555
H19 C28 1_555 1_555
Ni3 N3 1_555 1_555
N3 C28 1_555 1_555
Ni1 N2 1_555 1_555
C1 H1 1_555 1_555
N1 C5 1_555 1_555
C2 H2 1_555 1_555
N2 C7 1_555 1_555
C3 H3 1_555 1_555
C4 C6 1_555 1_555
C5 C9 1_555 1_555
C6 H4 1_555 1_555
O1 C20 1_555 1_555
C7 H5 1_555 1_555
C8 C4 1_555 1_555
C9 C4 1_555 1_555
H6 C9 1_555 1_555
C10 C7 1_555 1_555
H7 C10 1_555 1_555
C11 H8 1_555 1_555
C12 C3 1_555 1_555
C13 C12 1_555 1_555
C14 N1 1_555 1_555
C15 C5 1_555 1_555
C16 C2 1_555 1_555
C17 C8 1_555 1_555
H10 C17 1_555 1_555
C18 H11 1_555 1_555
C19 C1 1_555 1_555
C20 C11 1_555 1_555
C21 C2 1_555 1_555
C22 C15 1_555 1_555
H12 C22 1_555 1_555
C23 C8 1_555 1_555
H13 C23 1_555 1_555
C24 C16 1_555 1_555
C25 C20 1_555 1_555
H14 C25 1_555 1_555
C26 C1 1_555 1_555
H15 C26 1_555 1_555
C27 N2 1_555 1_555
H16 C27 1_555 1_555
O3 C24 1_555 1_555
O4 Ni1 1_555 1_555
H17 O4 1_555 1_555
H18 O4 1_555 1_555
Ni2 O3 1_555 1_555
O7 Ni1 1_555 1_555
N4 Ni1 1_555 1_555
O8 Ni1 1_555 1_555
O9 Ni1 1_555 1_555
C3 C21 1_555 1_555
C6 C14 1_555 1_555
O1 C21 1_555 1_555
C10 C15 1_555 1_555
C11 C17 1_555 1_555
C13 C16 1_555 1_555
C14 C19 1_555 1_555
C18 C19 1_555 1_555
C22 C27 1_555 1_555
C23 C25 1_555 1_555
H17_2 O4_2 1_555 1_555
H18_2 O4_2 1_555 1_555
H19_2 C28_2 1_555 1_555
Ni3_2 N3_2 1_555 1_555
N3_2 C28_2 1_555 1_555
Ni2 N2_2 1_555 1_555
C1_2 H1_2 1_555 1_555
N1_2 C5_2 1_555 1_555
C2_2 H2_2 1_555 1_555
N2_2 C7_2 1_555 1_555
C3_2 H3_2 1_555 1_555
C4_2 C6_2 1_555 1_555
C5_2 C9_2 1_555 1_555
C6_2 H4_2 1_555 1_555
O1_2 C20_2 1_555 1_555
C7_2 H5_2 1_555 1_555
C8_2 C4_2 1_555 1_555
C9_2 C4_2 1_555 1_555
H6_2 C9_2 1_555 1_555
C10_2 C7_2 1_555 1_555
H7_2 C10_2 1_555 1_555
C11_2 H8_2 1_555 1_555
C12_2 C3_2 1_555 1_555
C13_2 C12_2 1_555 1_555
H9_2 C13_2 1_555 1_555
C14_2 N1_2 1_555 1_555
C15_2 C5_2 1_555 1_555
C16_2 C2_2 1_555 1_555
O2_2 C24_2 1_555 1_555
C17_2 C8_2 1_555 1_555
H10_2 C17_2 1_555 1_555
C18_2 H11_2 1_555 1_555
C19_2 C1_2 1_555 1_555
C20_2 C11_2 1_555 1_555
C21_2 C2_2 1_555 1_555
C22_2 C15_2 1_555 1_555
H12_2 C22_2 1_555 1_555
C23_2 C8_2 1_555 1_555
H13_2 C23_2 1_555 1_555
C24_2 C16_2 1_555 1_555
C25_2 C20_2 1_555 1_555
H14_2 C25_2 1_555 1_555
C26_2 C1_2 1_555 1_555
H15_2 C26_2 1_555 1_555
C27_2 N2_2 1_555 1_555
H16_2 C27_2 1_555 1_555
O7 C24_2 1_555 1_555
C29_2 C12_2 1_555 1_555
O5_2 C29_2 1_555 1_555
N4_2 Ni2 1_555 1_555
O8_2 Ni2 1_555 1_555
C3_2 C21_2 1_555 1_555
C6_2 C14_2 1_555 1_555
O1_2 C21_2 1_555 1_555
C10_2 C15_2 1_555 1_555
C11_2 C17_2 1_555 1_555
C13_2 C16_2 1_555 1_555
C14_2 C19_2 1_555 1_555
C18_2 C19_2 1_555 1_555
C22_2 C27_2 1_555 1_555
C23_2 C25_2 1_555 1_555
O6 Ni4_2 1_555 1_555
N1_3 C5_3 1_555 1_555
C2_3 H2_3 1_555 1_555
C3_3 H3_3 1_555 1_555
C4_3 C6_3 1_555 1_555
C5_3 C9_3 1_555 1_555
C6_3 H4_3 1_555 1_555
O1_3 C20_3 1_555 1_555
C8_3 C4_3 1_555 1_555
C9_3 C4_3 1_555 1_555
H6_3 C9_3 1_555 1_555
C11_3 H8_3 1_555 1_555
C12_3 C3_3 1_555 1_555
C13_3 C12_3 1_555 1_555
H9_3 C13_3 1_555 1_555
C14_3 N1_3 1_555 1_555
C15_3 C5_3 1_555 1_555
C16_3 C2_3 1_555 1_555
O2_3 C24_3 1_555 1_555
C17_3 C8_3 1_555 1_555
H10_3 C17_3 1_555 1_555
C18_3 H11_3 1_555 1_555
C19_3 C1_3 1_555 1_555
C20_3 C11_3 1_555 1_555
C21_3 C2_3 1_555 1_555
C22_3 C15_3 1_555 1_555
H12_3 C22_3 1_555 1_555
C23_3 C8_3 1_555 1_555
H13_3 C23_3 1_555 1_555
C24_3 C16_3 1_555 1_555
C25_3 C20_3 1_555 1_555
H14_3 C25_3 1_555 1_555
C26_3 C1_3 1_555 1_555
H16_3 C27_3 1_555 1_555
O3_2 C24_3 1_555 1_555
N3_3 C26_3 1_555 1_555
C28_3 C18_3 1_555 1_555
H19_3 C28_3 1_555 1_555
C29_3 C12_3 1_555 1_555
O5_3 C29_3 1_555 1_555
O6_2 C29_3 1_555 1_555
Ni2_2 O3_2 1_555 1_555
Ni4 N3_3 1_555 1_555
Ni3 O5_3 1_555 1_555
C3_3 C21_3 1_555 1_555
C6_3 C14_3 1_555 1_555
O1_3 C21_3 1_555 1_555
C11_3 C17_3 1_555 1_555
C13_3 C16_3 1_555 1_555
C14_3 C19_3 1_555 1_555
C18_3 C19_3 1_555 1_555
C22_3 C27_3 1_555 1_555
C23_3 C25_3 1_555 1_555
N3_3 C28_3 1_555 1_555
O6_2 Ni3 1_555 1_555
Ni1_2 N2_3 1_555 1_555
N2_3 C7_3 1_555 1_555
C7_3 H5_3 1_555 1_555
C10_3 C7_3 1_555 1_555
H7_3 C10_3 1_555 1_555
O7_2 Ni1_2 1_555 1_555
N4_3 Ni1_2 1_555 1_555
Ni2_2 N2_4 1_555 1_555
N2_4 C7_4 1_555 1_555
C7_4 H5_4 1_555 1_555
C10_4 C7_4 1_555 1_555
H7_4 C10_4 1_555 1_555
O4_3 Ni2_2 1_555 1_555
H18_3 O4_3 1_555 1_555
N4_4 Ni2_2 1_555 1_555
O9_3 Ni2_2 1_555 1_555
N1_4 C5_4 1_555 1_555
C2_4 H2_4 1_555 1_555
C3_4 H3_4 1_555 1_555
C4_4 C6_4 1_555 1_555
C5_4 C9_4 1_555 1_555
C6_4 H4_4 1_555 1_555
O1_4 C20_4 1_555 1_555
C8_4 C4_4 1_555 1_555
C9_4 C4_4 1_555 1_555
H6_4 C9_4 1_555 1_555
C11_4 H8_4 1_555 1_555
C12_4 C3_4 1_555 1_555
C13_4 C12_4 1_555 1_555
C14_4 N1_4 1_555 1_555
C15_4 C5_4 1_555 1_555
C16_4 C2_4 1_555 1_555
C17_4 C8_4 1_555 1_555
H10_4 C17_4 1_555 1_555
C18_4 H11_4 1_555 1_555
C19_4 C1_4 1_555 1_555
C20_4 C11_4 1_555 1_555
C21_4 C2_4 1_555 1_555
C22_4 C15_4 1_555 1_555
H12_4 C22_4 1_555 1_555
C23_4 C8_4 1_555 1_555
H13_4 C23_4 1_555 1_555
C24_4 C16_4 1_555 1_555
C25_4 C20_4 1_555 1_555
H14_4 C25_4 1_555 1_555
C26_4 C1_4 1_555 1_555
H16_4 C27_4 1_555 1_555
O7_2 C24_4 1_555 1_555
N3_4 C26_4 1_555 1_555
C28_4 C18_4 1_555 1_555
H19_4 C28_4 1_555 1_555
Ni4_2 N3_4 1_555 1_555
C3_4 C21_4 1_555 1_555
C6_4 C14_4 1_555 1_555
O1_4 C21_4 1_555 1_555
C11_4 C17_4 1_555 1_555
C13_4 C16_4 1_555 1_555
C14_4 C19_4 1_555 1_555
C18_4 C19_4 1_555 1_555
C22_4 C27_4 1_555 1_555
C23_4 C25_4 1_555 1_555
N3_4 C28_4 1_555 1_555
O5_4 C29_4 1_555 1_555
Ni3_2 O5_4 1_555 1_555
O8_3 C29_5 1_555 1_555
Ni3 N2_5 1_555 1_555
C1_5 H1_5 1_555 1_555
N1_5 C5_5 1_555 1_555
C2_5 H2_5 1_555 1_555
N2_5 C7_5 1_555 1_555
C3_5 H3_5 1_555 1_555
C4_5 C6_5 1_555 1_555
C5_5 C9_5 1_555 1_555
C6_5 H4_5 1_555 1_555
O1_5 C20_5 1_555 1_555
C7_5 H5_5 1_555 1_555
C8_5 C4_5 1_555 1_555
C9_5 C4_5 1_555 1_555
H6_5 C9_5 1_555 1_555
C10_5 C7_5 1_555 1_555
H7_5 C10_5 1_555 1_555
C11_5 H8_5 1_555 1_555
C12_5 C3_5 1_555 1_555
C13_5 C12_5 1_555 1_555
C14_5 N1_5 1_555 1_555
C15_5 C5_5 1_555 1_555
C16_5 C2_5 1_555 1_555
C17_5 C8_5 1_555 1_555
H10_5 C17_5 1_555 1_555
C18_5 H11_5 1_555 1_555
C19_5 C1_5 1_555 1_555
C20_5 C11_5 1_555 1_555
C21_5 C2_5 1_555 1_555
C22_5 C15_5 1_555 1_555
H12_5 C22_5 1_555 1_555
C23_5 C8_5 1_555 1_555
H13_5 C23_5 1_555 1_555
C24_5 C16_5 1_555 1_555
C25_5 C20_5 1_555 1_555
H14_5 C25_5 1_555 1_555
C26_5 C1_5 1_555 1_555
H15_5 C26_5 1_555 1_555
C27_5 N2_5 1_555 1_555
H16_5 C27_5 1_555 1_555
O3_3 C24_5 1_555 1_555
O4_4 Ni3 1_555 1_555
H18_4 O4_4 1_555 1_555
N4 C26_5 1_555 1_555
C28_5 C18_5 1_555 1_555
H19_5 C28_5 1_555 1_555
Ni3_2 O3_3 1_555 1_555
O7_3 Ni3 1_555 1_555
C3_5 C21_5 1_555 1_555
C6_5 C14_5 1_555 1_555
O1_5 C21_5 1_555 1_555
C10_5 C15_5 1_555 1_555
C11_5 C17_5 1_555 1_555
C13_5 C16_5 1_555 1_555
C14_5 C19_5 1_555 1_555
C18_5 C19_5 1_555 1_555
C22_5 C27_5 1_555 1_555
C23_5 C25_5 1_555 1_555
N4 C28_5 1_555 1_555
H19_6 C28_6 1_555 1_555
N4_4 C28_6 1_555 1_555
N1_6 C5_6 1_555 1_555
C2_6 H2_6 1_555 1_555
C3_6 H3_6 1_555 1_555
C4_6 C6_6 1_555 1_555
C5_6 C9_6 1_555 1_555
C6_6 H4_6 1_555 1_555
O1_6 C20_6 1_555 1_555
C8_6 C4_6 1_555 1_555
C9_6 C4_6 1_555 1_555
H6_6 C9_6 1_555 1_555
C11_6 H8_6 1_555 1_555
C12_6 C3_6 1_555 1_555
C13_6 C12_6 1_555 1_555
C14_6 N1_6 1_555 1_555
C15_6 C5_6 1_555 1_555
C16_6 C2_6 1_555 1_555
C17_6 C8_6 1_555 1_555
H10_6 C17_6 1_555 1_555
C18_6 H11_6 1_555 1_555
C19_6 C1_6 1_555 1_555
C20_6 C11_6 1_555 1_555
C21_6 C2_6 1_555 1_555
C22_6 C15_6 1_555 1_555
H12_6 C22_6 1_555 1_555
C23_6 C8_6 1_555 1_555
H13_6 C23_6 1_555 1_555
C24_6 C16_6 1_555 1_555
C25_6 C20_6 1_555 1_555
H14_6 C25_6 1_555 1_555
C26_6 C1_6 1_555 1_555
H16_6 C27_6 1_555 1_555
O3_4 C24_6 1_555 1_555
Ni4 O3_4 1_555 1_555
C3_6 C21_6 1_555 1_555
C6_6 C14_6 1_555 1_555
O1_6 C21_6 1_555 1_555
C11_6 C17_6 1_555 1_555
C13_6 C16_6 1_555 1_555
C14_6 C19_6 1_555 1_555
C18_6 C19_6 1_555 1_555
C22_6 C27_6 1_555 1_555
C23_6 C25_6 1_555 1_555
O8_2 C29_6 1_555 1_555
Ni4_2 N2_6 1_555 1_555
N2_6 C7_6 1_555 1_555
C7_6 H5_6 1_555 1_555
C10_6 C7_6 1_555 1_555
H7_6 C10_6 1_555 1_555
O4_5 Ni4_2 1_555 1_555
H17_3 O4_5 1_555 1_555
H18_5 O4_5 1_555 1_555
O7_4 Ni4_2 1_555 1_555
Ni4 N2_7 1_555 1_555
N2_7 C7_7 1_555 1_555
C7_7 H5_7 1_555 1_555
C10_7 C7_7 1_555 1_555
H7_7 C10_7 1_555 1_555
H19_7 C28_7 1_555 1_555
N4_3 C28_7 1_555 1_555
N1_7 C5_7 1_555 1_555
C2_7 H2_7 1_555 1_555
C3_7 H3_7 1_555 1_555
C4_7 C6_7 1_555 1_555
C5_7 C9_7 1_555 1_555
C6_7 H4_7 1_555 1_555
O1_7 C20_7 1_555 1_555
C8_7 C4_7 1_555 1_555
C9_7 C4_7 1_555 1_555
H6_7 C9_7 1_555 1_555
C11_7 H8_7 1_555 1_555
C12_7 C3_7 1_555 1_555
C13_7 C12_7 1_555 1_555
H9_7 C13_7 1_555 1_555
C14_7 N1_7 1_555 1_555
C15_7 C5_7 1_555 1_555
C16_7 C2_7 1_555 1_555
O2_7 C24_7 1_555 1_555
C17_7 C8_7 1_555 1_555
H10_7 C17_7 1_555 1_555
C18_7 H11_7 1_555 1_555
C19_7 C1_7 1_555 1_555
C20_7 C11_7 1_555 1_555
C21_7 C2_7 1_555 1_555
C22_7 C15_7 1_555 1_555
H12_7 C22_7 1_555 1_555
C23_7 C8_7 1_555 1_555
H13_7 C23_7 1_555 1_555
C24_7 C16_7 1_555 1_555
C25_7 C20_7 1_555 1_555
H14_7 C25_7 1_555 1_555
C26_7 C1_7 1_555 1_555
H16_7 C27_7 1_555 1_555
O7_4 C24_7 1_555 1_555
C29_7 C12_7 1_555 1_555
O8 C29_7 1_555 1_555
O9 C29_7 1_555 1_555
C3_7 C21_7 1_555 1_555
C6_7 C14_7 1_555 1_555
O1_7 C21_7 1_555 1_555
C11_7 C17_7 1_555 1_555
C13_7 C16_7 1_555 1_555
C14_7 C19_7 1_555 1_555
C18_7 C19_7 1_555 1_555
C22_7 C27_7 1_555 1_555
C23_7 C25_7 1_555 1_555
H18_6 O4_6 1_555 1_555
Ni3_2 N2_8 1_555 1_555
C1_8 H1_8 1_555 1_555
N1_8 C5_8 1_555 1_555
C2_8 H2_8 1_555 1_555
N2_8 C7_8 1_555 1_555
C3_8 H3_8 1_555 1_555
C4_8 C6_8 1_555 1_555
C5_8 C9_8 1_555 1_555
C6_8 H4_8 1_555 1_555
O1_8 C20_8 1_555 1_555
C7_8 H5_8 1_555 1_555
C8_8 C4_8 1_555 1_555
C9_8 C4_8 1_555 1_555
H6_8 C9_8 1_555 1_555
C10_8 C7_8 1_555 1_555
H7_8 C10_8 1_555 1_555
C11_8 H8_8 1_555 1_555
C12_8 C3_8 1_555 1_555
C13_8 C12_8 1_555 1_555
H9_8 C13_8 1_555 1_555
C14_8 N1_8 1_555 1_555
C15_8 C5_8 1_555 1_555
C16_8 C2_8 1_555 1_555
O2_8 C24_8 1_555 1_555
C17_8 C8_8 1_555 1_555
H10_8 C17_8 1_555 1_555
C18_8 H11_8 1_555 1_555
C19_8 C1_8 1_555 1_555
C20_8 C11_8 1_555 1_555
C21_8 C2_8 1_555 1_555
C22_8 C15_8 1_555 1_555
H12_8 C22_8 1_555 1_555
C23_8 C8_8 1_555 1_555
H13_8 C23_8 1_555 1_555
C24_8 C16_8 1_555 1_555
C25_8 C20_8 1_555 1_555
H14_8 C25_8 1_555 1_555
C26_8 C1_8 1_555 1_555
H15_8 C26_8 1_555 1_555
C27_8 N2_8 1_555 1_555
H16_8 C27_8 1_555 1_555
O7_3 C24_8 1_555 1_555
N4_2 C26_8 1_555 1_555
C28_8 C18_8 1_555 1_555
H19_8 C28_8 1_555 1_555
C29_8 C12_8 1_555 1_555
O8_4 C29_8 1_555 1_555
C3_8 C21_8 1_555 1_555
C6_8 C14_8 1_555 1_555
O1_8 C21_8 1_555 1_555
C10_8 C15_8 1_555 1_555
C11_8 C17_8 1_555 1_555
C13_8 C16_8 1_555 1_555
C14_8 C19_8 1_555 1_555
C18_8 C19_8 1_555 1_555
C22_8 C27_8 1_555 1_555
C23_8 C25_8 1_555 1_555
N4_2 C28_8 1_555 1_555
H17_4 O4_7 1_555 1_555
H18_7 O4_7 1_555 1_555
H18_8 O4_8 1_555 1_555
Ni1_3 N2_9 1_555 1_555
C1_9 H1_9 1_555 1_555
N1_9 C5_9 1_555 1_555
C2_9 H2_9 1_555 1_555
N2_9 C7_9 1_555 1_555
C3_9 H3_9 1_555 1_555
C4_9 C6_9 1_555 1_555
C5_9 C9_9 1_555 1_555
C6_9 H4_9 1_555 1_555
O1_9 C20_9 1_555 1_555
C7_9 H5_9 1_555 1_555
C8_9 C4_9 1_555 1_555
C9_9 C4_9 1_555 1_555
H6_9 C9_9 1_555 1_555
C10_9 C7_9 1_555 1_555
H7_9 C10_9 1_555 1_555
C11_9 H8_9 1_555 1_555
C12_9 C3_9 1_555 1_555
C13_9 C12_9 1_555 1_555
C14_9 N1_9 1_555 1_555
C15_9 C5_9 1_555 1_555
C16_9 C2_9 1_555 1_555
C17_9 C8_9 1_555 1_555
H10_9 C17_9 1_555 1_555
C18_9 H11_9 1_555 1_555
C19_9 C1_9 1_555 1_555
C20_9 C11_9 1_555 1_555
C21_9 C2_9 1_555 1_555
C22_9 C15_9 1_555 1_555
H12_9 C22_9 1_555 1_555
C23_9 C8_9 1_555 1_555
H13_9 C23_9 1_555 1_555
C24_9 C16_9 1_555 1_555
C25_9 C20_9 1_555 1_555
H14_9 C25_9 1_555 1_555
C26_9 C1_9 1_555 1_555
H15_9 C26_9 1_555 1_555
C27_9 N2_9 1_555 1_555
H16_9 C27_9 1_555 1_555
O3_5 C24_9 1_555 1_555
O4_9 Ni1_3 1_555 1_555
H18_9 O4_9 1_555 1_555
N3_5 C26_9 1_555 1_555
C28_9 C18_9 1_555 1_555
H19_9 C28_9 1_555 1_555
Ni2_3 O3_5 1_555 1_555
Ni3_3 N3_5 1_555 1_555
O7_5 Ni1_3 1_555 1_555
N4_5 Ni1_3 1_555 1_555
O8_5 Ni1_3 1_555 1_555
O9_4 Ni1_3 1_555 1_555
C3_9 C21_9 1_555 1_555
C6_9 C14_9 1_555 1_555
O1_9 C21_9 1_555 1_555
C10_9 C15_9 1_555 1_555
C11_9 C17_9 1_555 1_555
C13_9 C16_9 1_555 1_555
C14_9 C19_9 1_555 1_555
C18_9 C19_9 1_555 1_555
C22_9 C27_9 1_555 1_555
C23_9 C25_9 1_555 1_555
N3_5 C28_9 1_555 1_555
O5_5 C29_9 1_555 1_555
Ni1_4 N2_10 1_555 1_555
N2_10 C7_10 1_555 1_555
C7_10 H5_10 1_555 1_555
C10_10 C7_10 1_555 1_555
H7_10 C10_10 1_555 1_555
O4_10 Ni1_4 1_555 1_555
H17_5 O4_10 1_555 1_555
H18_10 O4_10 1_555 1_555
O7_6 Ni1_4 1_555 1_555
N4_6 Ni1_4 1_555 1_555
O9_5 Ni1_4 1_555 1_555
O5_6 C29_10 1_555 1_555
Ni4_4 O5_6 1_555 1_555
N1_10 C5_10 1_555 1_555
C2_10 H2_10 1_555 1_555
C3_10 H3_10 1_555 1_555
C4_10 C6_10 1_555 1_555
C5_10 C9_10 1_555 1_555
C6_10 H4_10 1_555 1_555
O1_10 C20_10 1_555 1_555
C8_10 C4_10 1_555 1_555
C9_10 C4_10 1_555 1_555
H6_10 C9_10 1_555 1_555
C11_10 H8_10 1_555 1_555
C12_10 C3_10 1_555 1_555
C13_10 C12_10 1_555 1_555
C14_10 N1_10 1_555 1_555
C15_10 C5_10 1_555 1_555
C16_10 C2_10 1_555 1_555
C17_10 C8_10 1_555 1_555
H10_10 C17_10 1_555 1_555
C18_10 H11_10 1_555 1_555
C19_10 C1_10 1_555 1_555
C20_10 C11_10 1_555 1_555
C21_10 C2_10 1_555 1_555
C22_10 C15_10 1_555 1_555
H12_10 C22_10 1_555 1_555
C23_10 C8_10 1_555 1_555
H13_10 C23_10 1_555 1_555
C24_10 C16_10 1_555 1_555
C25_10 C20_10 1_555 1_555
H14_10 C25_10 1_555 1_555
C26_10 C1_10 1_555 1_555
H16_10 C27_10 1_555 1_555
O3_6 C24_10 1_555 1_555
Ni2_4 O3_6 1_555 1_555
C3_10 C21_10 1_555 1_555
C6_10 C14_10 1_555 1_555
O1_10 C21_10 1_555 1_555
C11_10 C17_10 1_555 1_555
C13_10 C16_10 1_555 1_555
C14_10 C19_10 1_555 1_555
C18_10 C19_10 1_555 1_555
C22_10 C27_10 1_555 1_555
C23_10 C25_10 1_555 1_555
H19_10 C28_10 1_555 1_555
Ni3_4 N3_6 1_555 1_555
N3_6 C28_10 1_555 1_555
N1_11 C5_11 1_555 1_555
C2_11 H2_11 1_555 1_555
C3_11 H3_11 1_555 1_555
C4_11 C6_11 1_555 1_555
C5_11 C9_11 1_555 1_555
C6_11 H4_11 1_555 1_555
O1_11 C20_11 1_555 1_555
C8_11 C4_11 1_555 1_555
C9_11 C4_11 1_555 1_555
H6_11 C9_11 1_555 1_555
C11_11 H8_11 1_555 1_555
C12_11 C3_11 1_555 1_555
C13_11 C12_11 1_555 1_555
H9_11 C13_11 1_555 1_555
C14_11 N1_11 1_555 1_555
C15_11 C5_11 1_555 1_555
C16_11 C2_11 1_555 1_555
O2_11 C24_11 1_555 1_555
C17_11 C8_11 1_555 1_555
H10_11 C17_11 1_555 1_555
C18_11 H11_11 1_555 1_555
C19_11 C1_11 1_555 1_555
C20_11 C11_11 1_555 1_555
C21_11 C2_11 1_555 1_555
C22_11 C15_11 1_555 1_555
H12_11 C22_11 1_555 1_555
C23_11 C8_11 1_555 1_555
H13_11 C23_11 1_555 1_555
C24_11 C16_11 1_555 1_555
C25_11 C20_11 1_555 1_555
H14_11 C25_11 1_555 1_555
C26_11 C1_11 1_555 1_555
H16_11 C27_11 1_555 1_555
O7_6 C24_11 1_555 1_555
C29_11 C12_11 1_555 1_555
O5_7 C29_11 1_555 1_555
O6_7 C29_11 1_555 1_555
Ni3_3 O5_7 1_555 1_555
C3_11 C21_11 1_555 1_555
C6_11 C14_11 1_555 1_555
O1_11 C21_11 1_555 1_555
C11_11 C17_11 1_555 1_555
C13_11 C16_11 1_555 1_555
C14_11 C19_11 1_555 1_555
C18_11 C19_11 1_555 1_555
C22_11 C27_11 1_555 1_555
C23_11 C25_11 1_555 1_555
O6_7 Ni3_3 1_555 1_555
H19_11 C28_11 1_555 1_555
Ni4_3 N3_7 1_555 1_555
N3_7 C28_11 1_555 1_555
Ni2_4 N2_11 1_555 1_555
N2_11 C7_11 1_555 1_555
C7_11 H5_11 1_555 1_555
C10_11 C7_11 1_555 1_555
H7_11 C10_11 1_555 1_555
N4_7 Ni2_4 1_555 1_555
Ni2_3 N2_12 1_555 1_555
C1_12 H1_12 1_555 1_555
N1_12 C5_12 1_555 1_555
C2_12 H2_12 1_555 1_555
N2_12 C7_12 1_555 1_555
C3_12 H3_12 1_555 1_555
C4_12 C6_12 1_555 1_555
C5_12 C9_12 1_555 1_555
C6_12 H4_12 1_555 1_555
O1_12 C20_12 1_555 1_555
C7_12 H5_12 1_555 1_555
C8_12 C4_12 1_555 1_555
C9_12 C4_12 1_555 1_555
H6_12 C9_12 1_555 1_555
C10_12 C7_12 1_555 1_555
H7_12 C10_12 1_555 1_555
C11_12 H8_12 1_555 1_555
C12_12 C3_12 1_555 1_555
C13_12 C12_12 1_555 1_555
H9_12 C13_12 1_555 1_555
C14_12 N1_12 1_555 1_555
C15_12 C5_12 1_555 1_555
C16_12 C2_12 1_555 1_555
O2_12 C24_12 1_555 1_555
C17_12 C8_12 1_555 1_555
H10_12 C17_12 1_555 1_555
C18_12 H11_12 1_555 1_555
C19_12 C1_12 1_555 1_555
C20_12 C11_12 1_555 1_555
C21_12 C2_12 1_555 1_555
C22_12 C15_12 1_555 1_555
H12_12 C22_12 1_555 1_555
C23_12 C8_12 1_555 1_555
H13_12 C23_12 1_555 1_555
C24_12 C16_12 1_555 1_555
C25_12 C20_12 1_555 1_555
H14_12 C25_12 1_555 1_555
C26_12 C1_12 1_555 1_555
H15_12 C26_12 1_555 1_555
C27_12 N2_12 1_555 1_555
H16_12 C27_12 1_555 1_555
O7_5 C24_12 1_555 1_555
N3_8 C26_12 1_555 1_555
C28_12 C18_12 1_555 1_555
H19_12 C28_12 1_555 1_555
C29_12 C12_12 1_555 1_555
O5_8 C29_12 1_555 1_555
Ni4_4 N3_8 1_555 1_555
N4_8 Ni2_3 1_555 1_555
O8_8 Ni2_3 1_555 1_555
C3_12 C21_12 1_555 1_555
C6_12 C14_12 1_555 1_555
O1_12 C21_12 1_555 1_555
C10_12 C15_12 1_555 1_555
C11_12 C17_12 1_555 1_555
C13_12 C16_12 1_555 1_555
C14_12 C19_12 1_555 1_555
C18_12 C19_12 1_555 1_555
C22_12 C27_12 1_555 1_555
C23_12 C25_12 1_555 1_555
N3_8 C28_12 1_555 1_555
H18_11 O4_11 1_555 1_555
O6_8 Ni3_4 1_555 1_555
Ni3_3 N2_13 1_555 1_555
C1_13 H1_13 1_555 1_555
N1_13 C5_13 1_555 1_555
C2_13 H2_13 1_555 1_555
N2_13 C7_13 1_555 1_555
C3_13 H3_13 1_555 1_555
C4_13 C6_13 1_555 1_555
C5_13 C9_13 1_555 1_555
C6_13 H4_13 1_555 1_555
O1_13 C20_13 1_555 1_555
C7_13 H5_13 1_555 1_555
C8_13 C4_13 1_555 1_555
C9_13 C4_13 1_555 1_555
H6_13 C9_13 1_555 1_555
C10_13 C7_13 1_555 1_555
H7_13 C10_13 1_555 1_555
C11_13 H8_13 1_555 1_555
C12_13 C3_13 1_555 1_555
C13_13 C12_13 1_555 1_555
C14_13 N1_13 1_555 1_555
C15_13 C5_13 1_555 1_555
C16_13 C2_13 1_555 1_555
C17_13 C8_13 1_555 1_555
H10_13 C17_13 1_555 1_555
C18_13 H11_13 1_555 1_555
C19_13 C1_13 1_555 1_555
C20_13 C11_13 1_555 1_555
C21_13 C2_13 1_555 1_555
C22_13 C15_13 1_555 1_555
H12_13 C22_13 1_555 1_555
C23_13 C8_13 1_555 1_555
H13_13 C23_13 1_555 1_555
C24_13 C16_13 1_555 1_555
C25_13 C20_13 1_555 1_555
H14_13 C25_13 1_555 1_555
C26_13 C1_13 1_555 1_555
H15_13 C26_13 1_555 1_555
C27_13 N2_13 1_555 1_555
H16_13 C27_13 1_555 1_555
O3_7 C24_13 1_555 1_555
O4_12 Ni3_3 1_555 1_555
H17_6 O4_12 1_555 1_555
H18_12 O4_12 1_555 1_555
Ni4_4 O3_7 1_555 1_555
O7_7 Ni3_3 1_555 1_555
C3_13 C21_13 1_555 1_555
C6_13 C14_13 1_555 1_555
O1_13 C21_13 1_555 1_555
C10_13 C15_13 1_555 1_555
C11_13 C17_13 1_555 1_555
C13_13 C16_13 1_555 1_555
C14_13 C19_13 1_555 1_555
C18_13 C19_13 1_555 1_555
C22_13 C27_13 1_555 1_555
C23_13 C25_13 1_555 1_555
H19_13 C28_13 1_555 1_555
N4_5 C28_13 1_555 1_555
O8_7 C29_13 1_555 1_555
Ni4_4 N2_14 1_555 1_555
C1_14 H1_14 1_555 1_555
N1_14 C5_14 1_555 1_555
C2_14 H2_14 1_555 1_555
N2_14 C7_14 1_555 1_555
C3_14 H3_14 1_555 1_555
C4_14 C6_14 1_555 1_555
C5_14 C9_14 1_555 1_555
C6_14 H4_14 1_555 1_555
O1_14 C20_14 1_555 1_555
C7_14 H5_14 1_555 1_555
C8_14 C4_14 1_555 1_555
C9_14 C4_14 1_555 1_555
H6_14 C9_14 1_555 1_555
C10_14 C7_14 1_555 1_555
H7_14 C10_14 1_555 1_555
C11_14 H8_14 1_555 1_555
C12_14 C3_14 1_555 1_555
C13_14 C12_14 1_555 1_555
H9_14 C13_14 1_555 1_555
C14_14 N1_14 1_555 1_555
C15_14 C5_14 1_555 1_555
C16_14 C2_14 1_555 1_555
O2_14 C24_14 1_555 1_555
C17_14 C8_14 1_555 1_555
H10_14 C17_14 1_555 1_555
C18_14 H11_14 1_555 1_555
C19_14 C1_14 1_555 1_555
C20_14 C11_14 1_555 1_555
C21_14 C2_14 1_555 1_555
C22_14 C15_14 1_555 1_555
H12_14 C22_14 1_555 1_555
C23_14 C8_14 1_555 1_555
H13_14 C23_14 1_555 1_555
C24_14 C16_14 1_555 1_555
C25_14 C20_14 1_555 1_555
H14_14 C25_14 1_555 1_555
C26_14 C1_14 1_555 1_555
H15_14 C26_14 1_555 1_555
C27_14 N2_14 1_555 1_555
H16_14 C27_14 1_555 1_555
O7_7 C24_14 1_555 1_555
C29_14 C12_14 1_555 1_555
O8_6 C29_14 1_555 1_555
C3_14 C21_14 1_555 1_555
C6_14 C14_14 1_555 1_555
O1_14 C21_14 1_555 1_555
C10_14 C15_14 1_555 1_555
C11_14 C17_14 1_555 1_555
C13_14 C16_14 1_555 1_555
C14_14 C19_14 1_555 1_555
C18_14 C19_14 1_555 1_555
C22_14 C27_14 1_555 1_555
C23_14 C25_14 1_555 1_555
H19_14 C28_14 1_555 1_555
N4_8 C28_14 1_555 1_555
H17_7 O4_13 1_555 1_555
H18_13 O4_13 1_555 1_555
Ni4_3 N2_15 1_555 1_555
N2_15 C7_15 1_555 1_555
C7_15 H5_15 1_555 1_555
C10_15 C7_15 1_555 1_555
H7_15 C10_15 1_555 1_555
O7_8 Ni4_3 1_555 1_555
N1_15 C5_15 1_555 1_555
C2_15 H2_15 1_555 1_555
C3_15 H3_15 1_555 1_555
C4_15 C6_15 1_555 1_555
C5_15 C9_15 1_555 1_555
C6_15 H4_15 1_555 1_555
O1_15 C20_15 1_555 1_555
C8_15 C4_15 1_555 1_555
C9_15 C4_15 1_555 1_555
H6_15 C9_15 1_555 1_555
C11_15 H8_15 1_555 1_555
C12_15 C3_15 1_555 1_555
C13_15 C12_15 1_555 1_555
H9_15 C13_15 1_555 1_555
C14_15 N1_15 1_555 1_555
C15_15 C5_15 1_555 1_555
C16_15 C2_15 1_555 1_555
O2_15 C24_15 1_555 1_555
C17_15 C8_15 1_555 1_555
H10_15 C17_15 1_555 1_555
C18_15 H11_15 1_555 1_555
C19_15 C1_15 1_555 1_555
C20_15 C11_15 1_555 1_555
C21_15 C2_15 1_555 1_555
C22_15 C15_15 1_555 1_555
H12_15 C22_15 1_555 1_555
C23_15 C8_15 1_555 1_555
H13_15 C23_15 1_555 1_555
C24_15 C16_15 1_555 1_555
C25_15 C20_15 1_555 1_555
H14_15 C25_15 1_555 1_555
C26_15 C1_15 1_555 1_555
H16_15 C27_15 1_555 1_555
O3_8 C24_15 1_555 1_555
N4_7 C26_15 1_555 1_555
C28_15 C18_15 1_555 1_555
H19_15 C28_15 1_555 1_555
C29_15 C12_15 1_555 1_555
O8_5 C29_15 1_555 1_555
O9_4 C29_15 1_555 1_555
Ni3_4 O3_8 1_555 1_555
C3_15 C21_15 1_555 1_555
C6_15 C14_15 1_555 1_555
O1_15 C21_15 1_555 1_555
C11_15 C17_15 1_555 1_555
C13_15 C16_15 1_555 1_555
C14_15 C19_15 1_555 1_555
C18_15 C19_15 1_555 1_555
C22_15 C27_15 1_555 1_555
C23_15 C25_15 1_555 1_555
N4_7 C28_15 1_555 1_555
O8_8 C29_16 1_555 1_555
N1_16 C5_16 1_555 1_555
C2_16 H2_16 1_555 1_555
C3_16 H3_16 1_555 1_555
C4_16 C6_16 1_555 1_555
C5_16 C9_16 1_555 1_555
C6_16 H4_16 1_555 1_555
O1_16 C20_16 1_555 1_555
C8_16 C4_16 1_555 1_555
C9_16 C4_16 1_555 1_555
H6_16 C9_16 1_555 1_555
C11_16 H8_16 1_555 1_555
C12_16 C3_16 1_555 1_555
C13_16 C12_16 1_555 1_555
C14_16 N1_16 1_555 1_555
C15_16 C5_16 1_555 1_555
C16_16 C2_16 1_555 1_555
C17_16 C8_16 1_555 1_555
H10_16 C17_16 1_555 1_555
C18_16 H11_16 1_555 1_555
C19_16 C1_16 1_555 1_555
C20_16 C11_16 1_555 1_555
C21_16 C2_16 1_555 1_555
C22_16 C15_16 1_555 1_555
H12_16 C22_16 1_555 1_555
C23_16 C8_16 1_555 1_555
H13_16 C23_16 1_555 1_555
C24_16 C16_16 1_555 1_555
C25_16 C20_16 1_555 1_555
H14_16 C25_16 1_555 1_555
C26_16 C1_16 1_555 1_555
H16_16 C27_16 1_555 1_555
O7_8 C24_16 1_555 1_555
N4_6 C26_16 1_555 1_555
C28_16 C18_16 1_555 1_555
H19_16 C28_16 1_555 1_555
C3_16 C21_16 1_555 1_555
C6_16 C14_16 1_555 1_555
O1_16 C21_16 1_555 1_555
C11_16 C17_16 1_555 1_555
C13_16 C16_16 1_555 1_555
C14_16 C19_16 1_555 1_555
C18_16 C19_16 1_555 1_555
C22_16 C27_16 1_555 1_555
C23_16 C25_16 1_555 1_555
N4_6 C28_16 1_555 1_555
Ni3_4 N2_16 1_555 1_555
N2_16 C7_16 1_555 1_555
C7_16 H5_16 1_555 1_555
C10_16 C7_16 1_555 1_555
H7_16 C10_16 1_555 1_555
O4_14 Ni3_4 1_555 1_555
H18_14 O4_14 1_555 1_555
H18_15 O4_15 1_555 1_555
H17_11 O4_16 1_555 1_555
H18_16 O4_16 1_555 1_555

#END
