
###############################################################################
#
# This file contains modified crystal structure data generated from the
# MOF subset of the Cambridge Structural Database (CSD) v543 
# hosted by the Cambridge Crystallographic Data Centre (CCDC).
#
# This work is licensed under the Creative Commons
# Attribution-NonCommercial-ShareAlike 4.0 International License.
# To view a copy of this license, visit
# http://creativecommons.org/licenses/by-nc-sa/4.0/
# or send a letter to
# Creative Commons, PO Box 1866, Mountain View, CA 94042, USA.
#
# CIF created using the CSD Python API on 29 September 2022
# The structure has been converted into the P1 space group
# The structure has a 3D framework
# The original CSD entry ACURUO is in the monoclinic crystal system
# The framework has been calculated to contain at least 10.0% void space
# The void calculation uses a probe of radius 1.32A, grid spacing 0.4
#
###############################################################################

data_ACURUO
_chemical_formula_moiety         '(C148 H128 Cd8 N20 O44)n'
_symmetry_cell_setting           triclinic
_symmetry_space_group_name_H-M   'P 1'
_symmetry_Int_Tables_number      1
_space_group_name_Hall           'P 1'
loop_
_symmetry_equiv_pos_site_id
_symmetry_equiv_pos_as_xyz
1 x,y,z
_cell_length_a                   16.704(5)
_cell_length_b                   19.210(5)
_cell_length_c                   18.532(5)
_cell_angle_alpha                90
_cell_angle_beta                 107.071(5)
_cell_angle_gamma                90
_cell_volume                     5684.62
loop_
_atom_site_label
_atom_site_type_symbol
_atom_site_fract_x
_atom_site_fract_y
_atom_site_fract_z
N3 N 0.52083(16) 0.01893(15) 0.2810(2)
H2 H 0.5090 0.0617 0.2686
N4 N 0.77077(14) 0.14867(13) 0.24227(14)
C11 C 0.3829(2) 0.01186(19) 0.2892(3)
H8 H 0.3797 0.0601 0.2846
C15 C 0.5991(2) 0.0011(2) 0.2886(3)
C16 C 0.65806(19) 0.05548(18) 0.2731(2)
C17 C 0.6309(2) 0.1137(2) 0.2311(3)
H11 H 0.5740 0.1234 0.2122
C18 C 0.6889(2) 0.1575(2) 0.2175(3)
H12 H 0.6693 0.1968 0.1883
C19 C 0.79483(19) 0.09121(18) 0.2805(2)
H13 H 0.8520 0.0820 0.2975
C20 C 0.74083(19) 0.04295(18) 0.2977(2)
H14 H 0.7615 0.0031 0.3254
Cd5 Cd 0.874094(11) 0.228191(10) 0.224435(11)
Cd1 Cd 0.125906(11) 0.728191(10) 0.275565(11)
O3 O 0.24728(12) 0.79664(11) 0.31053(14)
O4 O 0.62507(16) 0.94159(17) 0.3061(3)
O5 O 0.16199(13) 0.69737(10) 0.40793(11)
O6 O 0.08893(12) 0.61835(10) 0.32748(10)
O7 O 0.08381(13) 0.39415(10) 0.62121(11)
O8 O 0.11638(13) 0.48100(10) 0.70253(10)
O11 O 0.09731(16) 0.72551(13) 0.14387(12)
N1 N 0.09429(13) 0.84896(11) 0.27571(11)
N2 N 0.16437(13) 0.89218(11) 0.28288(13)
H1 H 0.1595 0.9366 0.2776
N5 N 0.0544(2) 0.70827(16) 0.01758(14)
C7 C 0.02492(16) 0.88327(14) 0.26203(15)
H6 H 0.0285 0.9316 0.2619
C8 C 0.23967(17) 0.86024(15) 0.29839(17)
C9 C 0.31256(17) 0.90478(15) 0.29822(18)
C10 C 0.3133(2) 0.97413(18) 0.2953(3)
H7 H 0.2659 0.9984 0.2975
C12 C 0.45387(19) 0.97936(17) 0.2897(2)
C13 C 0.4562(2) 0.9083(2) 0.2956(3)
H9 H 0.5052 0.8847 0.2969
C14 C 0.3867(2) 0.8710(2) 0.2996(3)
H10 H 0.3896 0.8228 0.3032
C22 C 0.12639(16) 0.59079(14) 0.45767(15)
C23 C 0.1452(2) 0.61442(15) 0.53070(15)
H18 H 0.1610 0.6606 0.5412
C24 C 0.1412(2) 0.57132(15) 0.58841(16)
H19 H 0.1539 0.5888 0.6373
C25 C 0.11836(16) 0.50141(14) 0.57482(14)
C26 C 0.10288(18) 0.47773(15) 0.50345(16)
H20 H 0.0907 0.4308 0.4938
C27 C 0.10450(19) 0.52147(15) 0.44368(15)
H21 H 0.0909 0.5041 0.3947
C28 C 0.12585(17) 0.63898(15) 0.39441(14)
C29 C 0.10566(16) 0.45536(15) 0.63630(16)
C31 C 0.0434(2) 0.48544(18) 0.07227(18)
H22 H 0.0736 0.4748 0.1217
C34 C 0.0437(3) 0.73338(19) 0.0788(2)
C37 C 0.1292(3) 0.6685(2) 0.0229(2)
H30 H 0.1677 0.6739 0.0725
H32 H 0.1149 0.6203 0.0139
C40 C 0.0681(2) 0.45751(18) 0.01390(16)
H34 H 0.1150 0.4288 0.0244
C73 C 0.0056(3) 0.2801(2) 0.05646(18)
H59 H 0.0542 0.3086 0.0616
H61 H 0.0217 0.2320 0.0615
Cd8 Cd 0.055092(12) 0.380921(10) 0.740104(11)
N11 N 0.22923(14) 0.64867(13) 0.25773(14)
H28 H 0.0197 0.7078 0.9049
H31 H 0.1547 0.6850 0.9860
O12 O 0.00115(15) 0.44912(13) 0.81193(12)
O13 O 0.10954(18) 0.40295(17) 0.88399(13)
C38 C 0.02464(19) 0.47134(15) 0.94091(17)
C41 C 0.0480(2) 0.43878(17) 0.87513(17)
O14 O 0.17650(12) 0.30871(11) 0.77397(13)
O15 O 0.01799(10) 0.26767(9) 0.74039(10)
C42 C 0.16334(17) 0.23685(14) 0.77306(17)
C43 C 0.07795(17) 0.21894(13) 0.75525(15)
C44 C 0.05970(15) 0.14727(14) 0.75349(14)
C45 C 0.12621(19) 0.09810(15) 0.77217(18)
H37 H 0.1140 0.0509 0.7732
C46 C 0.2075(2) 0.11899(17) 0.7886(2)
H38 H 0.2503 0.0862 0.7987
C47 C 0.22607(19) 0.18863(17) 0.7902(2)
H39 H 0.2816 0.2030 0.8029
C62 C 0.2580(2) 0.3347(2) 0.7922(5)
H49 H 0.2923 0.3036 0.7736
H50 H 0.2575 0.3797 0.7696
H51 H 0.2803 0.3387 0.8461
C72 C 0.0341(2) 0.2238(2) 0.9243(2)
H56 H 0.0786 0.2543 0.9215
H57 H 0.0510 0.1981 0.9707
H58 H 0.0217 0.1920 0.8825
O3_2 O 0.75272(12) 0.29664(11) 0.18947(14)
O4_2 O 0.37493(16) 0.44159(17) 0.1939(3)
O5_2 O 0.83801(13) 0.19737(10) 0.09207(11)
O6_2 O 0.91107(12) 0.11835(10) 0.17252(10)
O11_2 O 0.90269(16) 0.22551(13) 0.35613(12)
N1_2 N 0.90571(13) 0.34896(11) 0.22429(11)
N2_2 N 0.83563(13) 0.39218(11) 0.21712(13)
H1_2 H 0.8405 0.4366 0.2224
N3_2 N 0.47917(16) 0.51893(15) 0.2190(2)
H2_2 H 0.4910 0.5617 0.2314
N5_2 N 0.9456(2) 0.20827(16) 0.48242(14)
C7_2 C 0.97508(16) 0.38327(14) 0.23797(15)
H6_2 H 0.9715 0.4316 0.2381
C8_2 C 0.76033(17) 0.36024(15) 0.20161(17)
C9_2 C 0.68744(17) 0.40478(15) 0.20178(18)
C10_2 C 0.6867(2) 0.47413(18) 0.2047(3)
H7_2 H 0.7341 0.4984 0.2025
C11_2 C 0.6171(2) 0.51186(19) 0.2108(3)
H8_2 H 0.6203 0.5601 0.2154
C12_2 C 0.54613(19) 0.47936(17) 0.2103(2)
C13_2 C 0.5438(2) 0.4083(2) 0.2044(3)
H9_2 H 0.4948 0.3847 0.2031
C14_2 C 0.6133(2) 0.3710(2) 0.2004(3)
H10_2 H 0.6104 0.3228 0.1968
C15_2 C 0.4009(2) 0.5011(2) 0.2114(3)
C16_2 C 0.34194(19) 0.55548(18) 0.2269(2)
C17_2 C 0.3691(2) 0.6137(2) 0.2689(3)
H11_2 H 0.4260 0.6234 0.2878
C18_2 C 0.3111(2) 0.6575(2) 0.2825(3)
H12_2 H 0.3307 0.6968 0.3117
C19_2 C 0.20517(19) 0.59121(18) 0.2195(2)
H13_2 H 0.1480 0.5820 0.2025
C20_2 C 0.25917(19) 0.54295(18) 0.2023(2)
H14_2 H 0.2385 0.5031 0.1746
C22_2 C 0.87361(16) 0.09079(14) 0.04233(15)
C27_2 C 0.89550(19) 0.02147(15) 0.05632(15)
H21_2 H 0.9091 0.0041 0.1053
C28_2 C 0.87415(17) 0.13898(15) 0.10559(14)
C34_2 C 0.9563(3) 0.23338(19) 0.4212(2)
H28_2 H 0.9803 0.2078 0.5951
C37_2 C 0.8708(3) 0.1685(2) 0.4771(2)
H30_2 H 0.8323 0.1739 0.4275
H31_2 H 0.8453 0.1850 0.5140
H32_2 H 0.8851 0.1203 0.4861
Cd2 Cd 0.944908(12) 0.619079(10) 0.259896(11)
O1 O 0.82350(12) 0.69129(11) 0.22603(13)
O2 O 0.98201(10) 0.73233(9) 0.25961(10)
O9 O 0.99885(15) 0.55088(13) 0.18807(12)
O10 O 0.89046(18) 0.59705(17) 0.11601(13)
C1 C 0.83666(17) 0.76315(14) 0.22694(17)
C2 C 0.92205(17) 0.78106(13) 0.24475(15)
C3 C 0.94030(15) 0.85273(14) 0.24651(14)
C4 C 0.87379(19) 0.90190(15) 0.22783(18)
H3 H 0.8860 0.9491 0.2268
C5 C 0.7925(2) 0.88101(17) 0.2114(2)
H4 H 0.7497 0.9138 0.2013
C6 C 0.77393(19) 0.81137(17) 0.2098(2)
H5 H 0.7184 0.7970 0.1971
C21 C 0.7420(2) 0.6653(2) 0.2078(5)
H15 H 0.7077 0.6964 0.2264
H16 H 0.7425 0.6203 0.2304
H17 H 0.7197 0.6613 0.1539
C30 C 0.97536(19) 0.52866(15) 0.05909(17)
C33 C 0.9520(2) 0.56122(17) 0.12487(17)
C35 C 0.9659(2) 0.7762(2) 0.0757(2)
H24 H 0.9214 0.7457 0.0785
H25 H 0.9490 0.8019 0.0293
H26 H 0.9783 0.8080 0.1175
H60 H 0.9803 0.2922 0.0951
H63 H 0.8453 0.3150 0.0140
O24 O 0.91619(13) 0.60585(10) 0.37879(11)
O26 O 0.88362(13) 0.51900(10) 0.29747(10)
C32 C 0.9319(2) 0.54249(18) 0.98610(16)
H23 H 0.8850 0.5712 0.9756
C36 C 0.9944(3) 0.7199(2) 0.94354(18)
H27 H 0.9458 0.6914 0.9384
H29 H 0.9783 0.7680 0.9385
C39 C 0.9566(2) 0.51456(18) 0.92773(18)
H33 H 0.9264 0.5252 0.8783
Cd3 Cd 0.874094(11) 0.271809(10) 0.724435(11)
O16 O 0.75272(12) 0.20336(11) 0.68947(14)
O17 O 0.37493(16) 0.05841(17) 0.6939(3)
O18 O 0.83801(13) 0.30263(10) 0.59207(11)
O19 O 0.91107(12) 0.38165(10) 0.67252(10)
O22 O 0.90269(16) 0.27449(13) 0.85613(12)
N6 N 0.90571(13) 0.15104(11) 0.72429(11)
N7 N 0.83563(13) 0.10782(11) 0.71712(13)
H35 H 0.8405 0.0634 0.7224
N10 N 0.9456(2) 0.29173(16) 0.98242(14)
C48 C 0.97508(16) 0.11673(14) 0.73797(15)
H40 H 0.9715 0.0684 0.7381
C49 C 0.76033(17) 0.13976(15) 0.70161(17)
C50 C 0.68744(17) 0.09522(15) 0.70178(18)
C51 C 0.6867(2) 0.02587(18) 0.7047(3)
H41 H 0.7341 0.0016 0.7025
C53 C 0.54613(19) 0.02064(17) 0.7103(2)
C54 C 0.5438(2) 0.0917(2) 0.7044(3)
H43 H 0.4948 0.1153 0.7031
C55 C 0.6133(2) 0.1290(2) 0.7004(3)
H44 H 0.6104 0.1772 0.6968
C63 C 0.87361(16) 0.40921(14) 0.54233(15)
C64 C 0.8548(2) 0.38558(15) 0.46930(15)
H52 H 0.8390 0.3394 0.4588
C65 C 0.8588(2) 0.42868(15) 0.41159(16)
H53 H 0.8461 0.4112 0.3627
C66 C 0.88164(16) 0.49859(14) 0.42518(14)
C67 C 0.89712(18) 0.52227(15) 0.49655(16)
H54 H 0.9093 0.5692 0.5062
C68 C 0.89550(19) 0.47853(15) 0.55632(15)
H55 H 0.9091 0.4959 0.6053
C69 C 0.87415(17) 0.36102(15) 0.60559(14)
C70 C 0.89434(16) 0.54464(15) 0.36370(16)
C71 C 0.9563(3) 0.26662(19) 0.9212(2)
C74 C 0.8708(3) 0.3315(2) 0.9771(2)
H62 H 0.8323 0.3261 0.9275
H64 H 0.8851 0.3797 0.9861
N12 N 0.77077(14) 0.35133(13) 0.74227(14)
N8 N 0.47917(16) 0.98107(15) 0.7190(2)
H36 H 0.4910 0.9383 0.7314
N9 N 0.22923(14) 0.85133(13) 0.75773(14)
C52 C 0.6171(2) 0.98814(19) 0.7108(3)
H42 H 0.6203 0.9399 0.7154
C56 C 0.4009(2) 0.9989(2) 0.7114(3)
C57 C 0.34194(19) 0.94452(18) 0.7269(2)
C58 C 0.3691(2) 0.8863(2) 0.7689(3)
H45 H 0.4260 0.8766 0.7878
C59 C 0.3111(2) 0.8425(2) 0.7825(3)
H46 H 0.3307 0.8032 0.8117
C60 C 0.20517(19) 0.90879(18) 0.7195(2)
H47 H 0.1480 0.9180 0.7025
C61 C 0.25917(19) 0.95705(18) 0.7023(2)
H48 H 0.2385 0.9969 0.6746
Cd6 Cd 0.125906(11) 0.771809(10) 0.775565(11)
O16_2 O 0.24728(12) 0.70336(11) 0.81053(14)
O17_2 O 0.62507(16) 0.55841(17) 0.8061(3)
O18_2 O 0.16199(13) 0.80263(10) 0.90793(11)
O19_2 O 0.08893(12) 0.88165(10) 0.82748(10)
O22_2 O 0.09731(16) 0.77449(13) 0.64387(12)
N6_2 N 0.09429(13) 0.65104(11) 0.77571(11)
N7_2 N 0.16437(13) 0.60782(11) 0.78288(13)
H35_2 H 0.1595 0.5634 0.7776
N8_2 N 0.52083(16) 0.48107(15) 0.7810(2)
H36_2 H 0.5090 0.4383 0.7686
N10_2 N 0.0544(2) 0.79173(16) 0.51758(14)
C48_2 C 0.02492(16) 0.61673(14) 0.76203(15)
H40_2 H 0.0285 0.5684 0.7619
C49_2 C 0.23967(17) 0.63976(15) 0.79839(17)
C50_2 C 0.31256(17) 0.59522(15) 0.79822(18)
C51_2 C 0.3133(2) 0.52587(18) 0.7953(3)
H41_2 H 0.2659 0.5016 0.7975
C52_2 C 0.3829(2) 0.48814(19) 0.7892(3)
H42_2 H 0.3797 0.4399 0.7846
C53_2 C 0.45387(19) 0.52064(17) 0.7897(2)
C54_2 C 0.4562(2) 0.5917(2) 0.7956(3)
H43_2 H 0.5052 0.6153 0.7969
C55_2 C 0.3867(2) 0.6290(2) 0.7996(3)
H44_2 H 0.3896 0.6772 0.8032
C56_2 C 0.5991(2) 0.4989(2) 0.7886(3)
C57_2 C 0.65806(19) 0.44452(18) 0.7731(2)
C58_2 C 0.6309(2) 0.3863(2) 0.7311(3)
H45_2 H 0.5740 0.3766 0.7122
C59_2 C 0.6889(2) 0.3425(2) 0.7175(3)
H46_2 H 0.6693 0.3032 0.6883
C60_2 C 0.79483(19) 0.40879(18) 0.7805(2)
H47_2 H 0.8520 0.4180 0.7975
C61_2 C 0.74083(19) 0.45705(18) 0.7977(2)
H48_2 H 0.7615 0.4969 0.8254
C63_2 C 0.12639(16) 0.90921(14) 0.95767(15)
C68_2 C 0.10450(19) 0.97853(15) 0.94368(15)
H55_2 H 0.0909 0.9959 0.8947
C69_2 C 0.12585(17) 0.86102(15) 0.89441(14)
C71_2 C 0.0437(3) 0.76662(19) 0.5788(2)
H60_2 H 0.0197 0.7922 0.4049
C74_2 C 0.1292(3) 0.8315(2) 0.5229(2)
H62_2 H 0.1677 0.8261 0.5725
H63_2 H 0.1547 0.8150 0.4860
H64_2 H 0.1149 0.8797 0.5139
O20 O 0.08381(13) 0.10585(10) 0.12121(11)
O21 O 0.11638(13) 0.01900(10) 0.20253(10)
C67_2 C 0.10288(18) 0.02227(15) 0.00345(16)
C70_2 C 0.10566(16) 0.04464(15) 0.13630(16)
Cd7 Cd 0.055092(12) 0.119079(10) 0.240104(11)
O1_2 O 0.17650(12) 0.19129(11) 0.27397(13)
O2_2 O 0.01799(10) 0.23233(9) 0.24039(10)
O9_2 O 0.00115(15) 0.05088(13) 0.31193(12)
O10_2 O 0.10954(18) 0.09705(17) 0.38399(13)
C1_2 C 0.16334(17) 0.26315(14) 0.27306(17)
C2_2 C 0.07795(17) 0.28106(13) 0.25525(15)
C3_2 C 0.05970(15) 0.35273(14) 0.25349(14)
C4_2 C 0.12621(19) 0.40190(15) 0.27217(18)
H3_2 H 0.1140 0.4491 0.2732
C5_2 C 0.2075(2) 0.38101(17) 0.2886(2)
H4_2 H 0.2503 0.4138 0.2987
C6_2 C 0.22607(19) 0.31137(17) 0.2902(2)
H5_2 H 0.2816 0.2970 0.3029
C21_2 C 0.2580(2) 0.1653(2) 0.2922(5)
H15_2 H 0.2923 0.1964 0.2736
H16_2 H 0.2575 0.1203 0.2696
H17_2 H 0.2803 0.1613 0.3461
C30_2 C 0.02464(19) 0.02866(15) 0.44091(17)
C32_2 C 0.0681(2) 0.04249(18) 0.51390(16)
H23_2 H 0.1150 0.0712 0.5244
C33_2 C 0.0480(2) 0.06122(17) 0.37513(17)
C35_2 C 0.0341(2) 0.2762(2) 0.4243(2)
H24_2 H 0.0786 0.2457 0.4215
H25_2 H 0.0510 0.3019 0.4707
H26_2 H 0.0217 0.3080 0.3825
C36_2 C 0.0056(3) 0.2199(2) 0.55646(18)
H27_2 H 0.0542 0.1914 0.5616
H29_2 H 0.0217 0.2680 0.5615
C39_2 C 0.0434(2) 0.01456(18) 0.57227(18)
H33_2 H 0.0736 0.0252 0.6217
H54_2 H 0.0907 0.0692 0.9938
C64_2 C 0.1452(2) 0.88558(15) 0.03070(15)
H52_2 H 0.1610 0.8394 0.0412
C65_2 C 0.1412(2) 0.92868(15) 0.08841(16)
H53_2 H 0.1539 0.9112 0.1373
C66_2 C 0.11836(16) 0.99859(14) 0.07482(14)
C23_2 C 0.8548(2) 0.11442(15) 0.96930(15)
H18_2 H 0.8390 0.1606 0.9588
C24_2 C 0.8588(2) 0.07132(15) 0.91159(16)
H19_2 H 0.8461 0.0888 0.8627
C25_2 C 0.88164(16) 0.00141(14) 0.92518(14)
H20_2 H 0.9093 0.9308 0.0062
C31_2 C 0.9566(2) 0.98544(18) 0.42773(18)
H22_2 H 0.9264 0.9748 0.3783
O12_2 O 0.99885(15) 0.94912(13) 0.68807(12)
O13_2 O 0.89046(18) 0.90295(17) 0.61601(13)
C38_2 C 0.97536(19) 0.97134(15) 0.55909(17)
C40_2 C 0.9319(2) 0.95751(18) 0.48610(16)
H34_2 H 0.8850 0.9288 0.4756
C41_2 C 0.9520(2) 0.93878(17) 0.62487(17)
Cd4 Cd 0.944908(12) 0.880921(10) 0.759896(11)
O14_2 O 0.82350(12) 0.80871(11) 0.72603(13)
O15_2 O 0.98201(10) 0.76767(9) 0.75961(10)
C42_2 C 0.83666(17) 0.73685(14) 0.72694(17)
C43_2 C 0.92205(17) 0.71894(13) 0.74475(15)
C44_2 C 0.94030(15) 0.64727(14) 0.74651(14)
C45_2 C 0.87379(19) 0.59810(15) 0.72783(18)
H37_2 H 0.8860 0.5509 0.7268
C46_2 C 0.7925(2) 0.61899(17) 0.7114(2)
H38_2 H 0.7497 0.5862 0.7013
C47_2 C 0.77393(19) 0.68863(17) 0.7098(2)
H39_2 H 0.7184 0.7030 0.6971
C62_2 C 0.7420(2) 0.8347(2) 0.7078(5)
H49_2 H 0.7077 0.8036 0.7264
H50_2 H 0.7425 0.8797 0.7304
H51_2 H 0.7197 0.8387 0.6539
C72_2 C 0.9659(2) 0.7238(2) 0.5757(2)
H56_2 H 0.9214 0.7543 0.5785
H57_2 H 0.9490 0.6981 0.5293
H58_2 H 0.9783 0.6920 0.6175
C73_2 C 0.9944(3) 0.7801(2) 0.44354(18)
H59_2 H 0.9458 0.8086 0.4384
H61_2 H 0.9783 0.7320 0.4385
O23 O 0.91619(13) 0.89415(10) 0.87879(11)
O25 O 0.88362(13) 0.98100(10) 0.79747(10)
C26_2 C 0.89712(18) 0.97773(15) 0.99655(16)
C29_2 C 0.89434(16) 0.95536(15) 0.86370(16)
loop_
_geom_bond_atom_site_label_1
_geom_bond_atom_site_label_2
_geom_bond_site_symmetry_1
_geom_bond_site_symmetry_2
N3 H2 1_555 1_555
N4 C18 1_555 1_555
H8 C11 1_555 1_555
C15 N3 1_555 1_555
C16 C15 1_555 1_555
C17 C16 1_555 1_555
H11 C17 1_555 1_555
C18 C17 1_555 1_555
H12 C18 1_555 1_555
C19 N4 1_555 1_555
H13 C19 1_555 1_555
C20 C16 1_555 1_555
H14 C20 1_555 1_555
Cd5 N4 1_555 1_555
C19 C20 1_555 1_555
O3 Cd1 1_555 1_555
O5 Cd1 1_555 1_555
O6 Cd1 1_555 1_555
O7 C29 1_555 1_555
O8 C29 1_555 1_555
O11 Cd1 1_555 1_555
N1 Cd1 1_555 1_555
N2 N1 1_555 1_555
H1 N2 1_555 1_555
N5 C34 1_555 1_555
C7 N1 1_555 1_555
H6 C7 1_555 1_555
C8 O3 1_555 1_555
C9 C8 1_555 1_555
C10 C9 1_555 1_555
H7 C10 1_555 1_555
C13 C12 1_555 1_555
H9 C13 1_555 1_555
C14 C9 1_555 1_555
H10 C14 1_555 1_555
C22 C23 1_555 1_555
C23 H18 1_555 1_555
C24 C23 1_555 1_555
H19 C24 1_555 1_555
C25 C24 1_555 1_555
C26 C25 1_555 1_555
H20 C26 1_555 1_555
C27 C22 1_555 1_555
H21 C27 1_555 1_555
C28 O5 1_555 1_555
C29 C25 1_555 1_555
C31 H22 1_555 1_555
C34 O11 1_555 1_555
C37 N5 1_555 1_555
H30 C37 1_555 1_555
H32 C37 1_555 1_555
C40 C31 1_555 1_555
H34 C40 1_555 1_555
H59 C73 1_555 1_555
H61 C73 1_555 1_555
Cd8 O7 1_555 1_555
N11 Cd1 1_555 1_555
O6 C28 1_555 1_555
O8 Cd8 1_555 1_555
N2 C8 1_555 1_555
C13 C14 1_555 1_555
C22 C28 1_555 1_555
C26 C27 1_555 1_555
O12 C41 1_555 1_555
O13 C41 1_555 1_555
C41 C38 1_555 1_555
Cd8 O12 1_555 1_555
O14 Cd8 1_555 1_555
O15 Cd8 1_555 1_555
C42 O14 1_555 1_555
C43 O15 1_555 1_555
C44 C43 1_555 1_555
C45 C44 1_555 1_555
H37 C45 1_555 1_555
C46 C45 1_555 1_555
H38 C46 1_555 1_555
C47 C42 1_555 1_555
H39 C47 1_555 1_555
C62 O14 1_555 1_555
H49 C62 1_555 1_555
H50 C62 1_555 1_555
H51 C62 1_555 1_555
H56 C72 1_555 1_555
H57 C72 1_555 1_555
H58 C72 1_555 1_555
O13 Cd8 1_555 1_555
C42 C43 1_555 1_555
C46 C47 1_555 1_555
O3_2 Cd5 1_555 1_555
O4_2 C15_2 1_555 1_555
O5_2 Cd5 1_555 1_555
O6_2 Cd5 1_555 1_555
O11_2 Cd5 1_555 1_555
N1_2 Cd5 1_555 1_555
N2_2 N1_2 1_555 1_555
H1_2 N2_2 1_555 1_555
N3_2 H2_2 1_555 1_555
N11 C18_2 1_555 1_555
N5_2 C34_2 1_555 1_555
C7_2 N1_2 1_555 1_555
H6_2 C7_2 1_555 1_555
C8_2 O3_2 1_555 1_555
C9_2 C8_2 1_555 1_555
C10_2 C9_2 1_555 1_555
H7_2 C10_2 1_555 1_555
C11_2 C10_2 1_555 1_555
H8_2 C11_2 1_555 1_555
C12_2 N3_2 1_555 1_555
C13_2 C12_2 1_555 1_555
H9_2 C13_2 1_555 1_555
C14_2 C9_2 1_555 1_555
H10_2 C14_2 1_555 1_555
C15_2 N3_2 1_555 1_555
C16_2 C15_2 1_555 1_555
C17_2 C16_2 1_555 1_555
H11_2 C17_2 1_555 1_555
C18_2 C17_2 1_555 1_555
H12_2 C18_2 1_555 1_555
C19_2 N11 1_555 1_555
H13_2 C19_2 1_555 1_555
C20_2 C16_2 1_555 1_555
H14_2 C20_2 1_555 1_555
C27_2 C22_2 1_555 1_555
H21_2 C27_2 1_555 1_555
C28_2 O5_2 1_555 1_555
C34_2 O11_2 1_555 1_555
C37_2 N5_2 1_555 1_555
H30_2 C37_2 1_555 1_555
H31_2 C37_2 1_555 1_555
H32_2 C37_2 1_555 1_555
O6_2 C28_2 1_555 1_555
N2_2 C8_2 1_555 1_555
C11_2 C12_2 1_555 1_555
C13_2 C14_2 1_555 1_555
C19_2 C20_2 1_555 1_555
C22_2 C28_2 1_555 1_555
Cd2 O1 1_555 1_555
O1 C1 1_555 1_555
O2 Cd2 1_555 1_555
O9 Cd2 1_555 1_555
O10 Cd2 1_555 1_555
C1 C2 1_555 1_555
C2 O2 1_555 1_555
C3 C2 1_555 1_555
C4 C3 1_555 1_555
H3 C4 1_555 1_555
C5 C4 1_555 1_555
H4 C5 1_555 1_555
C6 C1 1_555 1_555
H5 C6 1_555 1_555
C21 O1 1_555 1_555
H15 C21 1_555 1_555
H16 C21 1_555 1_555
H17 C21 1_555 1_555
C33 O9 1_555 1_555
H24 C35 1_555 1_555
H25 C35 1_555 1_555
H26 C35 1_555 1_555
O24 Cd2 1_555 1_555
O26 Cd2 1_555 1_555
O10 C33 1_555 1_555
C5 C6 1_555 1_555
C30 C33 1_555 1_555
H23 C32 1_555 1_555
H27 C36 1_555 1_555
H29 C36 1_555 1_555
C39 C32 1_555 1_555
H33 C39 1_555 1_555
O16 Cd3 1_555 1_555
O18 Cd3 1_555 1_555
O19 Cd3 1_555 1_555
O24 C70 1_555 1_555
O26 C70 1_555 1_555
O22 Cd3 1_555 1_555
N6 Cd3 1_555 1_555
N7 N6 1_555 1_555
H35 N7 1_555 1_555
N10 C71 1_555 1_555
C48 N6 1_555 1_555
H40 C48 1_555 1_555
C49 O16 1_555 1_555
C50 C49 1_555 1_555
C51 C50 1_555 1_555
H41 C51 1_555 1_555
C54 C53 1_555 1_555
H43 C54 1_555 1_555
C55 C50 1_555 1_555
H44 C55 1_555 1_555
C63 C64 1_555 1_555
C64 H52 1_555 1_555
C65 C64 1_555 1_555
H53 C65 1_555 1_555
C66 C65 1_555 1_555
C67 C66 1_555 1_555
H54 C67 1_555 1_555
C68 C63 1_555 1_555
H55 C68 1_555 1_555
C69 O18 1_555 1_555
C70 C66 1_555 1_555
C71 O22 1_555 1_555
C74 N10 1_555 1_555
H62 C74 1_555 1_555
H64 C74 1_555 1_555
N12 Cd3 1_555 1_555
O19 C69 1_555 1_555
N7 C49 1_555 1_555
C54 C55 1_555 1_555
C63 C69 1_555 1_555
C67 C68 1_555 1_555
N8 H36 1_555 1_555
N9 C59 1_555 1_555
H42 C52 1_555 1_555
C56 N8 1_555 1_555
C57 C56 1_555 1_555
C58 C57 1_555 1_555
H45 C58 1_555 1_555
C59 C58 1_555 1_555
H46 C59 1_555 1_555
C60 N9 1_555 1_555
H47 C60 1_555 1_555
C61 C57 1_555 1_555
H48 C61 1_555 1_555
Cd6 N9 1_555 1_555
C60 C61 1_555 1_555
O16_2 Cd6 1_555 1_555
O17_2 C56_2 1_555 1_555
O18_2 Cd6 1_555 1_555
O19_2 Cd6 1_555 1_555
O22_2 Cd6 1_555 1_555
N6_2 Cd6 1_555 1_555
N7_2 N6_2 1_555 1_555
H35_2 N7_2 1_555 1_555
N8_2 H36_2 1_555 1_555
N12 C59_2 1_555 1_555
N10_2 C71_2 1_555 1_555
C48_2 N6_2 1_555 1_555
H40_2 C48_2 1_555 1_555
C49_2 O16_2 1_555 1_555
C50_2 C49_2 1_555 1_555
C51_2 C50_2 1_555 1_555
H41_2 C51_2 1_555 1_555
C52_2 C51_2 1_555 1_555
H42_2 C52_2 1_555 1_555
C53_2 N8_2 1_555 1_555
C54_2 C53_2 1_555 1_555
H43_2 C54_2 1_555 1_555
C55_2 C50_2 1_555 1_555
H44_2 C55_2 1_555 1_555
C56_2 N8_2 1_555 1_555
C57_2 C56_2 1_555 1_555
C58_2 C57_2 1_555 1_555
H45_2 C58_2 1_555 1_555
C59_2 C58_2 1_555 1_555
H46_2 C59_2 1_555 1_555
C60_2 N12 1_555 1_555
H47_2 C60_2 1_555 1_555
C61_2 C57_2 1_555 1_555
H48_2 C61_2 1_555 1_555
C68_2 C63_2 1_555 1_555
H55_2 C68_2 1_555 1_555
C69_2 O18_2 1_555 1_555
C71_2 O22_2 1_555 1_555
C74_2 N10_2 1_555 1_555
H62_2 C74_2 1_555 1_555
H63_2 C74_2 1_555 1_555
H64_2 C74_2 1_555 1_555
O19_2 C69_2 1_555 1_555
N7_2 C49_2 1_555 1_555
C52_2 C53_2 1_555 1_555
C54_2 C55_2 1_555 1_555
C60_2 C61_2 1_555 1_555
C63_2 C69_2 1_555 1_555
O20 C70_2 1_555 1_555
O21 C70_2 1_555 1_555
Cd7 O20 1_555 1_555
O21 Cd7 1_555 1_555
Cd7 O1_2 1_555 1_555
O1_2 C1_2 1_555 1_555
O2_2 Cd7 1_555 1_555
O9_2 Cd7 1_555 1_555
O10_2 Cd7 1_555 1_555
C1_2 C2_2 1_555 1_555
C2_2 O2_2 1_555 1_555
C3_2 C2_2 1_555 1_555
C4_2 C3_2 1_555 1_555
H3_2 C4_2 1_555 1_555
C5_2 C4_2 1_555 1_555
H4_2 C5_2 1_555 1_555
C6_2 C1_2 1_555 1_555
H5_2 C6_2 1_555 1_555
C21_2 O1_2 1_555 1_555
H15_2 C21_2 1_555 1_555
H16_2 C21_2 1_555 1_555
H17_2 C21_2 1_555 1_555
C32_2 C30_2 1_555 1_555
H23_2 C32_2 1_555 1_555
C33_2 O9_2 1_555 1_555
H24_2 C35_2 1_555 1_555
H25_2 C35_2 1_555 1_555
H26_2 C35_2 1_555 1_555
H27_2 C36_2 1_555 1_555
H29_2 C36_2 1_555 1_555
C39_2 C32_2 1_555 1_555
H33_2 C39_2 1_555 1_555
O10_2 C33_2 1_555 1_555
C5_2 C6_2 1_555 1_555
C30_2 C33_2 1_555 1_555
C64_2 H52_2 1_555 1_555
C65_2 C64_2 1_555 1_555
H53_2 C65_2 1_555 1_555
C66_2 C65_2 1_555 1_555
C23_2 H18_2 1_555 1_555
C24_2 C23_2 1_555 1_555
H19_2 C24_2 1_555 1_555
C25_2 C24_2 1_555 1_555
C31_2 H22_2 1_555 1_555
O12_2 C41_2 1_555 1_555
O13_2 C41_2 1_555 1_555
C40_2 C31_2 1_555 1_555
H34_2 C40_2 1_555 1_555
C41_2 C38_2 1_555 1_555
Cd4 O12_2 1_555 1_555
O14_2 Cd4 1_555 1_555
O15_2 Cd4 1_555 1_555
C42_2 O14_2 1_555 1_555
C43_2 O15_2 1_555 1_555
C44_2 C43_2 1_555 1_555
C45_2 C44_2 1_555 1_555
H37_2 C45_2 1_555 1_555
C46_2 C45_2 1_555 1_555
H38_2 C46_2 1_555 1_555
C47_2 C42_2 1_555 1_555
H39_2 C47_2 1_555 1_555
C62_2 O14_2 1_555 1_555
H49_2 C62_2 1_555 1_555
H50_2 C62_2 1_555 1_555
H51_2 C62_2 1_555 1_555
H56_2 C72_2 1_555 1_555
H57_2 C72_2 1_555 1_555
H58_2 C72_2 1_555 1_555
H59_2 C73_2 1_555 1_555
H61_2 C73_2 1_555 1_555
O23 Cd4 1_555 1_555
O25 Cd4 1_555 1_555
O13_2 Cd4 1_555 1_555
C38_2 C40_2 1_555 1_555
C42_2 C43_2 1_555 1_555
C46_2 C47_2 1_555 1_555
O23 C29_2 1_555 1_555
O25 C29_2 1_555 1_555

#END
