
###############################################################################
#
# This file contains modified crystal structure data generated from the
# MOF subset of the Cambridge Structural Database (CSD) v543 
# hosted by the Cambridge Crystallographic Data Centre (CCDC).
#
# This work is licensed under the Creative Commons
# Attribution-NonCommercial-ShareAlike 4.0 International License.
# To view a copy of this license, visit
# http://creativecommons.org/licenses/by-nc-sa/4.0/
# or send a letter to
# Creative Commons, PO Box 1866, Mountain View, CA 94042, USA.
#
# CIF created using the CSD Python API on 29 September 2022
# The structure has been converted into the P1 space group
# The structure has a 3D framework
# The original CSD entry ACUTOI is in the orthorhombic crystal system
# The framework has been calculated to contain at least 10.0% void space
# The void calculation uses a probe of radius 1.32A, grid spacing 0.4
# H atom positions have been added when not included in the experimental data
# Generated hydrogen atom positions removed from atoms on special positions
#
###############################################################################

data_ACUTOI
_chemical_formula_moiety         '(C88 H96 Cd8 N8 Na8 O64 S8)n'
_symmetry_cell_setting           triclinic
_symmetry_space_group_name_H-M   'P 1'
_symmetry_Int_Tables_number      1
_space_group_name_Hall           'P 1'
loop_
_symmetry_equiv_pos_site_id
_symmetry_equiv_pos_as_xyz
1 x,y,z
_cell_length_a                   20.720(3)
_cell_length_b                   7.0822(10)
_cell_length_c                   22.878(3)
_cell_angle_alpha                90
_cell_angle_beta                 90
_cell_angle_gamma                90
_cell_volume                     3357.19
loop_
_atom_site_label
_atom_site_type_symbol
_atom_site_fract_x
_atom_site_fract_y
_atom_site_fract_z
C10 C 0.0478(7) 0.324(2) 0.2056(7)
H6 H 0.0477 0.4519 0.1905
H7 H 0.0814 0.2539 0.1857
Cd5 Cd 0.04032(2) 0.22058(9) 0.40310(2)
Na2 Na 0.04417(17) 0.6736(7) 0.04959(19)
O16 O 0.0358(3) 0.3280(11) 0.0300(3)
O22 O 0.1091(5) 0.7398(15) 0.1286(5)
N2 N 0.0146(4) 0.2360(10) 0.3060(3)
O24 O 0.0728(3) 0.0949(11) 0.0811(3)
C20 C 0.0103(7) 0.0417(19) 0.2821(5)
C22 C 0.0620(8) 0.328(2) 0.2718(6)
H17 H 0.1034 0.2678 0.2788
H18 H 0.0653 0.4580 0.2845
Cd6 Cd 0.04032(2) 0.77942(9) 0.90310(2)
O14 O 0.1161(3) 0.7599(7) 0.9784(3)
H4 H 0.0207 0.9699 0.1952
H14 H 0.0519 0.9803 0.2858
Cd7 Cd 0.95968(2) 0.22058(9) 0.09690(2)
O11 O 0.5551(3) 0.0603(9) 0.0955(3)
S1 S 0.59094(10) 0.2367(3) 0.10096(9)
Na1 Na 0.45583(17) 0.1736(7) 0.04959(19)
O1 O 0.8458(3) 0.2161(9) 0.1103(3)
C2 C 0.7171(4) 0.2303(10) 0.0697(4)
H1 H 0.7237 0.2191 0.1098
C3 C 0.8375(4) 0.2306(10) 0.0568(4)
O3 O 0.8839(3) 0.2401(7) 0.0216(3)
C4 C 0.6547(4) 0.2386(10) 0.0488(4)
C5 C 0.7702(3) 0.2380(10) 0.0331(4)
O5 O 0.6212(3) 0.2635(10) 0.1562(3)
O6 O 0.5472(3) 0.3908(9) 0.0849(3)
O7 O 0.3909(5) 0.2398(15) 0.1286(5)
N1 N 0.9854(4) 0.2360(10) 0.1940(3)
C9 C 0.9897(7) 0.0417(19) 0.2179(5)
C11 C 0.9380(8) 0.328(2) 0.2282(6)
H8 H 0.8966 0.2678 0.2212
H9 H 0.9347 0.4580 0.2155
Cd2 Cd 0.54032(2) 0.72058(9) 0.09690(2)
S2 S 0.90906(10) 0.7367(3) 0.10096(9)
O9 O 0.6542(3) 0.7161(9) 0.1103(3)
O10 O 0.9449(3) 0.5603(9) 0.0955(3)
C13 C 0.7829(4) 0.7303(10) 0.0697(4)
H10 H 0.7763 0.7191 0.1098
C14 C 0.6625(4) 0.7306(10) 0.0568(4)
O12 O 0.6161(3) 0.7401(7) 0.0216(3)
C15 C 0.8453(4) 0.7386(10) 0.0488(4)
C16 C 0.7298(3) 0.7380(10) 0.0331(4)
O18 O 0.4642(3) 0.8280(11) 0.0300(3)
O19 O 0.8788(3) 0.7635(10) 0.1562(3)
O20 O 0.9528(3) 0.8908(9) 0.0849(3)
N3 N 0.5146(4) 0.7360(10) 0.1940(3)
O25 O 0.4272(3) 0.5949(11) 0.0811(3)
C21 C 0.9522(7) 0.324(2) 0.2944(7)
H15 H 0.9523 0.4519 0.3095
H16 H 0.9186 0.2539 0.3143
C1 C 0.6438(4) 0.2618(10) 0.9883(4)
O4 O 0.5358(3) 0.1720(11) 0.9700(3)
C6 C 0.7598(4) 0.2585(11) 0.9733(4)
H2 H 0.7949 0.2629 0.9480
C7 C 0.6977(4) 0.2726(12) 0.9513(4)
H3 H 0.6916 0.2893 0.9113
C8 C 0.5798(4) 0.2800(12) 0.9586(4)
O8 O 0.5728(3) 0.4051(11) 0.9189(3)
Cd4 Cd 0.45968(2) 0.27942(9) 0.90310(2)
Na3 Na 0.95583(17) 0.3264(7) 0.95041(19)
Na5 Na 0.54417(17) 0.8264(7) 0.95041(19)
C12 C 0.8562(4) 0.7618(10) 0.9883(4)
O13 O 0.3839(3) 0.2599(7) 0.9784(3)
O15 O 0.9642(3) 0.6720(11) 0.9700(3)
C17 C 0.7402(4) 0.7585(11) 0.9733(4)
H11 H 0.7051 0.7629 0.9480
C18 C 0.8023(4) 0.7726(12) 0.9513(4)
H12 H 0.8084 0.7893 0.9113
C19 C 0.9202(4) 0.7800(12) 0.9586(4)
O23 O 0.9272(3) 0.9051(11) 0.9189(3)
H5 H 0.9481 0.9803 0.2142
H13 H 0.9793 0.9699 0.3048
Na1_2 Na 0.04417(17) 0.3264(7) 0.54959(19)
O7_2 O 0.1091(5) 0.2602(15) 0.6286(5)
O13_2 O 0.1161(3) 0.2401(7) 0.4784(3)
O17 O 0.0358(3) 0.6720(11) 0.5300(3)
O25_2 O 0.0728(3) 0.9051(11) 0.5811(3)
Cd1 Cd 0.54032(2) 0.27942(9) 0.59690(2)
S1_2 S 0.90906(10) 0.2633(3) 0.60096(9)
O1_2 O 0.6542(3) 0.2839(9) 0.6103(3)
O2 O 0.9449(3) 0.4397(9) 0.5955(3)
C1_2 C 0.8562(4) 0.2382(10) 0.4883(4)
C2_2 C 0.7829(4) 0.2697(10) 0.5697(4)
H1_2 H 0.7763 0.2809 0.6098
C3_2 C 0.6625(4) 0.2694(10) 0.5568(4)
O3_2 O 0.6161(3) 0.2599(7) 0.5216(3)
C4_2 C 0.8453(4) 0.2614(10) 0.5488(4)
C5_2 C 0.7298(3) 0.2620(10) 0.5331(4)
O4_2 O 0.9642(3) 0.3280(11) 0.4700(3)
C6_2 C 0.7402(4) 0.2415(11) 0.4733(4)
H2_2 H 0.7051 0.2371 0.4480
C7_2 C 0.8023(4) 0.2274(12) 0.4513(4)
H3_2 H 0.8084 0.2107 0.4113
O5_2 O 0.8788(3) 0.2365(10) 0.6562(3)
O6_2 O 0.9528(3) 0.1092(9) 0.5849(3)
N1_2 N 0.5146(4) 0.2640(10) 0.6940(3)
C8_2 C 0.9202(4) 0.2200(12) 0.4586(4)
O8_2 O 0.9272(3) 0.0949(11) 0.4189(3)
C9_2 C 0.5103(7) 0.4583(19) 0.7179(5)
H4_2 H 0.4793 0.5301 0.6952
H5_2 H 0.5519 0.5197 0.7142
C10_2 C 0.4522(7) 0.176(2) 0.7056(7)
H6_2 H 0.4523 0.0481 0.6905
H7_2 H 0.4186 0.2461 0.6857
C11_2 C 0.5620(8) 0.172(2) 0.7282(6)
H8_2 H 0.6034 0.2322 0.7212
H9_2 H 0.5653 0.0420 0.7155
Cd3 Cd 0.95968(2) 0.77942(9) 0.59690(2)
Na3_2 Na 0.54417(17) 0.1736(7) 0.45041(19)
Na4 Na 0.95583(17) 0.6736(7) 0.45041(19)
O16_2 O 0.4642(3) 0.1720(11) 0.5300(3)
O21 O 0.5472(3) 0.6092(9) 0.5849(3)
N2_2 N 0.4854(4) 0.2640(10) 0.8060(3)
O24_2 O 0.4272(3) 0.4051(11) 0.5811(3)
C20_2 C 0.4897(7) 0.4583(19) 0.7821(5)
H13_2 H 0.5207 0.5301 0.8048
H14_2 H 0.4481 0.5197 0.7858
C21_2 C 0.5478(7) 0.176(2) 0.7944(7)
H15_2 H 0.5477 0.0481 0.8095
H16_2 H 0.5814 0.2461 0.8143
C22_2 C 0.4380(8) 0.172(2) 0.7718(6)
H17_2 H 0.3966 0.2322 0.7788
H18_2 H 0.4347 0.0420 0.7845
Cd6_2 Cd 0.45968(2) 0.72058(9) 0.40310(2)
S2_2 S 0.59094(10) 0.7633(3) 0.60096(9)
Na2_2 Na 0.45583(17) 0.8264(7) 0.54959(19)
O9_2 O 0.8458(3) 0.7839(9) 0.6103(3)
O10_2 O 0.5551(3) 0.9397(9) 0.5955(3)
C12_2 C 0.6438(4) 0.7382(10) 0.4883(4)
C13_2 C 0.7171(4) 0.7697(10) 0.5697(4)
H10_2 H 0.7237 0.7809 0.6098
C14_2 C 0.8375(4) 0.7694(10) 0.5568(4)
O12_2 O 0.8839(3) 0.7599(7) 0.5216(3)
O14_2 O 0.3839(3) 0.7401(7) 0.4784(3)
C15_2 C 0.6547(4) 0.7614(10) 0.5488(4)
C16_2 C 0.7702(3) 0.7620(10) 0.5331(4)
O15_2 O 0.5358(3) 0.8280(11) 0.4700(3)
C17_2 C 0.7598(4) 0.7415(11) 0.4733(4)
H11_2 H 0.7949 0.7371 0.4480
C18_2 C 0.6977(4) 0.7274(12) 0.4513(4)
H12_2 H 0.6916 0.7107 0.4113
O19_2 O 0.6212(3) 0.7365(10) 0.6562(3)
O22_2 O 0.3909(5) 0.7602(15) 0.6286(5)
N3_2 N 0.9854(4) 0.7640(10) 0.6940(3)
C19_2 C 0.5798(4) 0.7200(12) 0.4586(4)
O23_2 O 0.5728(3) 0.5949(11) 0.4189(3)
C1_3 C 0.1438(4) 0.2382(10) 0.0117(4)
C6_3 C 0.2598(4) 0.2415(11) 0.0267(4)
H2_3 H 0.2949 0.2371 0.0520
C7_3 C 0.1977(4) 0.2274(12) 0.0487(4)
H3_3 H 0.1916 0.2107 0.0887
C8_3 C 0.0798(4) 0.2200(12) 0.0414(4)
S1_3 S 0.09094(10) 0.2633(3) 0.89904(9)
O1_3 O 0.3458(3) 0.2839(9) 0.8897(3)
O2_2 O 0.0551(3) 0.4397(9) 0.9045(3)
C2_3 C 0.2171(4) 0.2697(10) 0.9303(4)
H1_3 H 0.2237 0.2809 0.8902
C3_3 C 0.3375(4) 0.2694(10) 0.9432(4)
C4_3 C 0.1547(4) 0.2614(10) 0.9512(4)
C5_3 C 0.2702(3) 0.2620(10) 0.9669(4)
O5_3 O 0.1212(3) 0.2365(10) 0.8438(3)
O6_3 O 0.0472(3) 0.1092(9) 0.9151(3)
O21_2 O 0.4528(3) 0.6092(9) 0.9151(3)
C12_3 C 0.3562(4) 0.7382(10) 0.0117(4)
C17_3 C 0.2402(4) 0.7415(11) 0.0267(4)
H11_3 H 0.2051 0.7371 0.0520
C18_3 C 0.3023(4) 0.7274(12) 0.0487(4)
H12_3 H 0.3084 0.7107 0.0887
C19_3 C 0.4202(4) 0.7200(12) 0.0414(4)
S2_3 S 0.40906(10) 0.7633(3) 0.89904(9)
O9_3 O 0.1542(3) 0.7839(9) 0.8897(3)
O10_3 O 0.4449(3) 0.9397(9) 0.9045(3)
C13_3 C 0.2829(4) 0.7697(10) 0.9303(4)
H10_3 H 0.2763 0.7809 0.8902
C14_3 C 0.1625(4) 0.7694(10) 0.9432(4)
C15_3 C 0.3453(4) 0.7614(10) 0.9512(4)
C16_3 C 0.2298(3) 0.7620(10) 0.9669(4)
O19_3 O 0.3788(3) 0.7365(10) 0.8438(3)
O22_3 O 0.6091(5) 0.7602(15) 0.8714(5)
N3_3 N 0.0146(4) 0.7640(10) 0.8060(3)
O7_3 O 0.8909(5) 0.2602(15) 0.8714(5)
O11_2 O 0.4449(3) 0.0603(9) 0.4045(3)
S1_4 S 0.40906(10) 0.2367(3) 0.39904(9)
O1_4 O 0.1542(3) 0.2161(9) 0.3897(3)
C1_4 C 0.3562(4) 0.2618(10) 0.5117(4)
C2_4 C 0.2829(4) 0.2303(10) 0.4303(4)
H1_4 H 0.2763 0.2191 0.3902
C3_4 C 0.1625(4) 0.2306(10) 0.4432(4)
C4_4 C 0.3453(4) 0.2386(10) 0.4512(4)
C5_4 C 0.2298(3) 0.2380(10) 0.4669(4)
C6_4 C 0.2402(4) 0.2585(11) 0.5267(4)
H2_4 H 0.2051 0.2629 0.5520
C7_4 C 0.3023(4) 0.2726(12) 0.5487(4)
H3_4 H 0.3084 0.2893 0.5887
O5_4 O 0.3788(3) 0.2635(10) 0.3438(3)
O6_4 O 0.4528(3) 0.3908(9) 0.4151(3)
O7_4 O 0.6091(5) 0.2398(15) 0.3714(5)
C8_4 C 0.4202(4) 0.2800(12) 0.5414(4)
S2_4 S 0.09094(10) 0.7367(3) 0.39904(9)
O9_4 O 0.3458(3) 0.7161(9) 0.3897(3)
O10_4 O 0.0551(3) 0.5603(9) 0.4045(3)
C12_4 C 0.1438(4) 0.7618(10) 0.5117(4)
C13_4 C 0.2171(4) 0.7303(10) 0.4303(4)
H10_4 H 0.2237 0.7191 0.3902
C14_4 C 0.3375(4) 0.7306(10) 0.4432(4)
C15_4 C 0.1547(4) 0.7386(10) 0.4512(4)
C16_4 C 0.2702(3) 0.7380(10) 0.4669(4)
C17_4 C 0.2598(4) 0.7585(11) 0.5267(4)
H11_4 H 0.2949 0.7629 0.5520
C18_4 C 0.1977(4) 0.7726(12) 0.5487(4)
H12_4 H 0.1916 0.7893 0.5887
O19_4 O 0.1212(3) 0.7635(10) 0.3438(3)
O20_2 O 0.0472(3) 0.8908(9) 0.4151(3)
N3_4 N 0.4854(4) 0.7360(10) 0.3060(3)
C19_4 C 0.0798(4) 0.7800(12) 0.5414(4)
O22_4 O 0.8909(5) 0.7398(15) 0.3714(5)
H5_3 H 0.0519 0.0197 0.7858
H13_3 H 0.0207 0.0301 0.6952
C9_3 C 0.0103(7) 0.9583(19) 0.7821(5)
C11_3 C 0.0620(8) 0.672(2) 0.7718(6)
H8_3 H 0.1034 0.7322 0.7788
H9_3 H 0.0653 0.5420 0.7845
C21_3 C 0.0478(7) 0.676(2) 0.7056(7)
H15_3 H 0.0477 0.5481 0.6905
H16_3 H 0.0814 0.7461 0.6857
H4_3 H 0.9793 0.0301 0.8048
H14_3 H 0.9481 0.0197 0.7142
C10_3 C 0.9522(7) 0.676(2) 0.7944(7)
H6_3 H 0.9523 0.5481 0.8095
H7_3 H 0.9186 0.7461 0.8143
C20_3 C 0.9897(7) 0.9583(19) 0.7179(5)
C22_3 C 0.9380(8) 0.672(2) 0.7282(6)
H17_3 H 0.8966 0.7322 0.7212
H18_3 H 0.9347 0.5420 0.7155
C9_4 C 0.4897(7) 0.5417(19) 0.2821(5)
H4_4 H 0.5207 0.4699 0.3048
H5_4 H 0.4481 0.4803 0.2858
C10_4 C 0.5478(7) 0.824(2) 0.2944(7)
H6_4 H 0.5477 0.9519 0.3095
H7_4 H 0.5814 0.7539 0.3143
C11_4 C 0.4380(8) 0.828(2) 0.2718(6)
H8_4 H 0.3966 0.7678 0.2788
H9_4 H 0.4347 0.9580 0.2845
C20_4 C 0.5103(7) 0.5417(19) 0.2179(5)
H13_4 H 0.4793 0.4699 0.1952
H14_4 H 0.5519 0.4803 0.2142
C21_4 C 0.4522(7) 0.824(2) 0.2056(7)
H15_4 H 0.4523 0.9519 0.1905
H16_4 H 0.4186 0.7539 0.1857
C22_4 C 0.5620(8) 0.828(2) 0.2282(6)
H17_4 H 0.6034 0.7678 0.2212
H18_4 H 0.5653 0.9580 0.2155
loop_
_geom_bond_atom_site_label_1
_geom_bond_atom_site_label_2
_geom_bond_site_symmetry_1
_geom_bond_site_symmetry_2
H6 C10 1_555 1_555
H7 C10 1_555 1_555
Cd5 N2 1_555 1_555
O22 Na2 1_555 1_555
N2 C20 1_555 1_555
C22 C10 1_555 1_555
H17 C22 1_555 1_555
H18 C22 1_555 1_555
Na2 O16 1_555 1_555
N2 C22 1_555 1_555
Cd6 O14 1_555 1_555
Cd7 O1 1_555 1_555
S1 O11 1_555 1_555
Na1 O11 1_555 1_555
O1 C3 1_555 1_555
C2 H1 1_555 1_555
C3 O3 1_555 1_555
O3 Cd7 1_555 1_555
C4 S1 1_555 1_555
C5 C2 1_555 1_555
O5 S1 1_555 1_555
O6 S1 1_555 1_555
O7 Na1 1_555 1_555
N1 Cd7 1_555 1_555
C9 N1 1_555 1_555
C11 N1 1_555 1_555
H8 C11 1_555 1_555
H9 C11 1_555 1_555
Cd2 O6 1_555 1_555
S2 O10 1_555 1_555
O9 Cd2 1_555 1_555
O10 Cd7 1_555 1_555
C13 H10 1_555 1_555
C14 O9 1_555 1_555
O12 Cd2 1_555 1_555
C15 S2 1_555 1_555
C16 C13 1_555 1_555
O18 Cd2 1_555 1_555
O19 S2 1_555 1_555
O20 S2 1_555 1_555
N3 Cd2 1_555 1_555
O25 Cd2 1_555 1_555
C21 C11 1_555 1_555
H15 C21 1_555 1_555
H16 C21 1_555 1_555
Na1 O6 1_555 1_555
C2 C4 1_555 1_555
C3 C5 1_555 1_555
C13 C15 1_555 1_555
C14 O12 1_555 1_555
C14 C16 1_555 1_555
H2 C6 1_555 1_555
C7 C1 1_555 1_555
H3 C7 1_555 1_555
C8 C1 1_555 1_555
O8 C8 1_555 1_555
Cd4 O4 1_555 1_555
H11 C17 1_555 1_555
C18 C12 1_555 1_555
H12 C18 1_555 1_555
C19 C12 1_555 1_555
O4 C8 1_555 1_555
C6 C7 1_555 1_555
O8 Cd4 1_555 1_555
Cd4 O13 1_555 1_555
Na3 O15 1_555 1_555
O15 C19 1_555 1_555
C17 C18 1_555 1_555
C19 O23 1_555 1_555
O7_2 Na1_2 1_555 1_555
O13_2 Na1_2 1_555 1_555
O17 Na1_2 1_555 1_555
Cd5 O13_2 1_555 1_555
Cd1 O1_2 1_555 1_555
S1_2 O2 1_555 1_555
O1_2 C3_2 1_555 1_555
O2 Cd3 1_555 1_555
C1_2 C4_2 1_555 1_555
C2_2 H1_2 1_555 1_555
C3_2 O3_2 1_555 1_555
O3_2 Cd1 1_555 1_555
C4_2 S1_2 1_555 1_555
C5_2 C2_2 1_555 1_555
C6_2 C5_2 1_555 1_555
H2_2 C6_2 1_555 1_555
C7_2 C1_2 1_555 1_555
H3_2 C7_2 1_555 1_555
O5_2 S1_2 1_555 1_555
O6_2 S1_2 1_555 1_555
N1_2 Cd1 1_555 1_555
C8_2 C1_2 1_555 1_555
O8_2 C8_2 1_555 1_555
C9_2 N1_2 1_555 1_555
H4_2 C9_2 1_555 1_555
H5_2 C9_2 1_555 1_555
C10_2 N1_2 1_555 1_555
H6_2 C10_2 1_555 1_555
H7_2 C10_2 1_555 1_555
C11_2 N1_2 1_555 1_555
H8_2 C11_2 1_555 1_555
H9_2 C11_2 1_555 1_555
Cd4 N2_2 1_555 1_555
Na3_2 O3_2 1_555 1_555
Na4 O4_2 1_555 1_555
O16_2 Cd1 1_555 1_555
O21 Cd1 1_555 1_555
N2_2 C20_2 1_555 1_555
O24_2 Cd1 1_555 1_555
C20_2 C9_2 1_555 1_555
H13_2 C20_2 1_555 1_555
H14_2 C20_2 1_555 1_555
C21_2 C11_2 1_555 1_555
H15_2 C21_2 1_555 1_555
H16_2 C21_2 1_555 1_555
C22_2 C10_2 1_555 1_555
H17_2 C22_2 1_555 1_555
H18_2 C22_2 1_555 1_555
C2_2 C4_2 1_555 1_555
C3_2 C5_2 1_555 1_555
O4_2 C8_2 1_555 1_555
C6_2 C7_2 1_555 1_555
Na3_2 O16_2 1_555 1_555
N2_2 C21_2 1_555 1_555
N2_2 C22_2 1_555 1_555
Cd6_2 O14_2 1_555 1_555
S2_2 O10_2 1_555 1_555
Na2_2 O10_2 1_555 1_555
Na4 O12_2 1_555 1_555
O9_2 Cd3 1_555 1_555
C12_2 C15_2 1_555 1_555
C13_2 H10_2 1_555 1_555
C14_2 O9_2 1_555 1_555
O12_2 Cd3 1_555 1_555
O14_2 Na2_2 1_555 1_555
C15_2 S2_2 1_555 1_555
C16_2 C13_2 1_555 1_555
O15_2 Cd6_2 1_555 1_555
C17_2 C16_2 1_555 1_555
H11_2 C17_2 1_555 1_555
C18_2 C12_2 1_555 1_555
H12_2 C18_2 1_555 1_555
O19_2 S2_2 1_555 1_555
O21 S2_2 1_555 1_555
O22_2 Na2_2 1_555 1_555
N3_2 Cd3 1_555 1_555
C19_2 C12_2 1_555 1_555
O23_2 Cd6_2 1_555 1_555
Na2_2 O15_2 1_555 1_555
Na2_2 O21 1_555 1_555
C13_2 C15_2 1_555 1_555
C14_2 O12_2 1_555 1_555
C14_2 C16_2 1_555 1_555
O15_2 C19_2 1_555 1_555
C17_2 C18_2 1_555 1_555
C19_2 O23_2 1_555 1_555
H2_3 C6_3 1_555 1_555
C7_3 C1_3 1_555 1_555
H3_3 C7_3 1_555 1_555
C8_3 C1_3 1_555 1_555
O24 C8_3 1_555 1_555
O16 C8_3 1_555 1_555
C6_3 C7_3 1_555 1_555
Cd4 O1_3 1_555 1_555
S1_3 O2_2 1_555 1_555
O1_3 C3_3 1_555 1_555
O2_2 Cd6 1_555 1_555
C2_3 H1_3 1_555 1_555
C3_3 O13 1_555 1_555
C4_3 S1_3 1_555 1_555
C5_3 C2_3 1_555 1_555
O5_3 S1_3 1_555 1_555
O6_3 S1_3 1_555 1_555
O21_2 Cd4 1_555 1_555
C2_3 C4_3 1_555 1_555
C3_3 C5_3 1_555 1_555
H11_3 C17_3 1_555 1_555
C18_3 C12_3 1_555 1_555
H12_3 C18_3 1_555 1_555
C19_3 C12_3 1_555 1_555
O18 C19_3 1_555 1_555
C17_3 C18_3 1_555 1_555
C19_3 O25 1_555 1_555
S2_3 O10_3 1_555 1_555
Na5 O10_3 1_555 1_555
O9_3 Cd6 1_555 1_555
C13_3 H10_3 1_555 1_555
C14_3 O9_3 1_555 1_555
C15_3 S2_3 1_555 1_555
C16_3 C13_3 1_555 1_555
O19_3 S2_3 1_555 1_555
O21_2 S2_3 1_555 1_555
O22_3 Na5 1_555 1_555
N3_3 Cd6 1_555 1_555
Na5 O21_2 1_555 1_555
C13_3 C15_3 1_555 1_555
C14_3 O14 1_555 1_555
C14_3 C16_3 1_555 1_555
O7_3 Na3 1_555 1_555
Cd5 O1_4 1_555 1_555
S1_4 O11_2 1_555 1_555
Na3_2 O11_2 1_555 1_555
O1_4 C3_4 1_555 1_555
C1_4 C4_4 1_555 1_555
C2_4 H1_4 1_555 1_555
C3_4 O13_2 1_555 1_555
C4_4 S1_4 1_555 1_555
C5_4 C2_4 1_555 1_555
C6_4 C5_4 1_555 1_555
H2_4 C6_4 1_555 1_555
C7_4 C1_4 1_555 1_555
H3_4 C7_4 1_555 1_555
O5_4 S1_4 1_555 1_555
O6_4 S1_4 1_555 1_555
O7_4 Na3_2 1_555 1_555
C8_4 C1_4 1_555 1_555
O24_2 C8_4 1_555 1_555
Cd6_2 O6_4 1_555 1_555
S2_4 O10_4 1_555 1_555
O9_4 Cd6_2 1_555 1_555
O10_4 Cd5 1_555 1_555
C12_4 C15_4 1_555 1_555
C13_4 H10_4 1_555 1_555
C14_4 O9_4 1_555 1_555
C15_4 S2_4 1_555 1_555
C16_4 C13_4 1_555 1_555
C17_4 C16_4 1_555 1_555
H11_4 C17_4 1_555 1_555
C18_4 C12_4 1_555 1_555
H12_4 C18_4 1_555 1_555
O19_4 S2_4 1_555 1_555
O20_2 S2_4 1_555 1_555
N3_4 Cd6_2 1_555 1_555
C19_4 C12_4 1_555 1_555
Na3_2 O6_4 1_555 1_555
C2_4 C4_4 1_555 1_555
C3_4 C5_4 1_555 1_555
O16_2 C8_4 1_555 1_555
C6_4 C7_4 1_555 1_555
C13_4 C15_4 1_555 1_555
C14_4 O14_2 1_555 1_555
C14_4 C16_4 1_555 1_555
O17 C19_4 1_555 1_555
C17_4 C18_4 1_555 1_555
C19_4 O25_2 1_555 1_555
O22_4 Na4 1_555 1_555
C9_3 N3_3 1_555 1_555
C11_3 N3_3 1_555 1_555
H8_3 C11_3 1_555 1_555
H9_3 C11_3 1_555 1_555
C21_3 C11_3 1_555 1_555
H15_3 C21_3 1_555 1_555
H16_3 C21_3 1_555 1_555
H6_3 C10_3 1_555 1_555
H7_3 C10_3 1_555 1_555
N3_2 C20_3 1_555 1_555
C22_3 C10_3 1_555 1_555
H17_3 C22_3 1_555 1_555
H18_3 C22_3 1_555 1_555
N3_2 C22_3 1_555 1_555
C9_4 N3_4 1_555 1_555
H4_4 C9_4 1_555 1_555
H5_4 C9_4 1_555 1_555
C10_4 N3_4 1_555 1_555
H6_4 C10_4 1_555 1_555
H7_4 C10_4 1_555 1_555
C11_4 N3_4 1_555 1_555
H8_4 C11_4 1_555 1_555
H9_4 C11_4 1_555 1_555
N3 C20_4 1_555 1_555
C20_4 C9_4 1_555 1_555
H13_4 C20_4 1_555 1_555
H14_4 C20_4 1_555 1_555
C21_4 C11_4 1_555 1_555
H15_4 C21_4 1_555 1_555
H16_4 C21_4 1_555 1_555
C22_4 C10_4 1_555 1_555
H17_4 C22_4 1_555 1_555
H18_4 C22_4 1_555 1_555
N3 C21_4 1_555 1_555
N3 C22_4 1_555 1_555

#END
