
###############################################################################
#
# This file contains modified crystal structure data generated from the
# MOF subset of the Cambridge Structural Database (CSD) v543 
# hosted by the Cambridge Crystallographic Data Centre (CCDC).
#
# This work is licensed under the Creative Commons
# Attribution-NonCommercial-ShareAlike 4.0 International License.
# To view a copy of this license, visit
# http://creativecommons.org/licenses/by-nc-sa/4.0/
# or send a letter to
# Creative Commons, PO Box 1866, Mountain View, CA 94042, USA.
#
# CIF created using the CSD Python API on 29 September 2022
# The structure has been converted into the P1 space group
# The structure has a 3D framework
# The original CSD entry ADABAK01 is in the monoclinic crystal system
# The framework has been calculated to contain at least 10.0% void space
# The void calculation uses a probe of radius 1.32A, grid spacing 0.4
# H atom positions have been added when not included in the experimental data
#
###############################################################################

data_ADABAK01
_chemical_formula_moiety         '(C70 H56 Cu8 N40 O16)n'
_symmetry_cell_setting           triclinic
_symmetry_space_group_name_H-M   'P 1'
_symmetry_Int_Tables_number      1
_space_group_name_Hall           'P 1'
loop_
_symmetry_equiv_pos_site_id
_symmetry_equiv_pos_as_xyz
1 x,y,z
_cell_length_a                   28.668(6)
_cell_length_b                   9.2413(14)
_cell_length_c                   9.2844(15)
_cell_angle_alpha                90
_cell_angle_beta                 115.953(10)
_cell_angle_gamma                90
_cell_volume                     2211.66
loop_
_atom_site_label
_atom_site_type_symbol
_atom_site_fract_x
_atom_site_fract_y
_atom_site_fract_z
_atom_site_U_iso_or_equiv
_atom_site_thermal_displace_type
N2 N 0.2673(8) 0.095(3) 0.280(2) 0.0210 Uiso
N3 N 0.2534(8) 0.198(2) 0.170(3) 0.0210 Uiso
N4 N 0.2093(8) 0.161(2) 0.046(3) 0.0210 Uiso
C2 C 0.1963(6) 0.0339(19) 0.083(2) 0.0210 Uiso
Cu3 Cu 0.3103(5) 0.3354(19) 0.1850(19) 0.0210 Uiso
Cu4 Cu 0.1897(5) 0.1646(19) 0.8150(19) 0.0210 Uiso
Cu1 Cu 0.1897(5) 0.8354(19) 0.3150(19) 0.0210 Uiso
O2 O 0.1460(11) 0.831(4) 0.068(3) 0.0210 Uiso
N1 N 0.2312(9) 0.991(3) 0.225(2) 0.0210 Uiso
N5 N 0.1342(7) 0.6752(17) 0.308(2) 0.0210 Uiso
C3 C 0.1027(10) 0.7265(16) 0.369(2) 0.0210 Uiso
C4 C 0.0679(9) 0.6427(17) 0.400(2) 0.0210 Uiso
C5 C 0.0657(3) 0.4961(16) 0.3645(8) 0.0210 Uiso
C6 C 0.0976(5) 0.4395(15) 0.301(2) 0.0210 Uiso
C7 C 0.1312(6) 0.5327(16) 0.274(3) 0.0210 Uiso
C8 C 0.0288(2) 0.398(2) 0.39497(19) 0.0210 Uiso
C9 C 0.0000 0.304(2) 0.25000 0.0210 Uiso
Cu6 Cu 0.3103(5) 0.6646(19) 0.6850(19) 0.0210 Uiso
O3 O 0.3771(13) 0.474(3) 0.649(4) 0.0210 Uiso
O4 O 0.3540(11) 0.331(4) 0.432(3) 0.0210 Uiso
N6 N 0.2688(9) 0.491(3) 0.275(2) 0.0210 Uiso
N7 N 0.2327(8) 0.595(3) 0.220(2) 0.0210 Uiso
N8 N 0.2466(8) 0.698(2) 0.330(3) 0.0210 Uiso
N10 N 0.2907(8) 0.661(2) 0.454(3) 0.0210 Uiso
N11 N 0.2093(8) 0.839(2) 0.546(3) 0.0210 Uiso
N14 N 0.3658(7) 0.1752(17) 0.192(2) 0.0210 Uiso
C10 C 0.3493(6) 0.439(3) 0.510(3) 0.0210 Uiso
C11 C 0.3037(6) 0.5339(19) 0.417(2) 0.0210 Uiso
H1 H 0.104609 0.841648 0.395939 . .
H3 H 0.0275432 0.235965 0.229564 . .
H4 H 0.0433789 0.689918 0.450015 . .
H5 H 0.0963907 0.324748 0.272898 . .
H6 H 0.156025 0.488604 0.223399 . .
H7 H 0.00116921 0.463306 0.418026 . .
H8 H 0.0506284 0.329853 0.498521 . .
O1 O 0.1229(13) 0.974(3) 0.851(4) 0.0210 Uiso
C1 C 0.1507(6) 0.939(3) 0.990(3) 0.0210 Uiso
N12 N 0.2907(8) 0.339(2) 0.954(3) 0.0210 Uiso
C9_2 C 1.0000 0.304(2) 0.25000 0.0210 Uiso
Cu5 Cu 0.8103(5) 0.8354(19) 0.1850(19) 0.0210 Uiso
N13 N 0.8658(7) 0.6752(17) 0.192(2) 0.0210 Uiso
C12 C 0.8973(10) 0.7265(16) 0.131(2) 0.0210 Uiso
C13 C 0.9321(9) 0.6427(17) 0.100(2) 0.0210 Uiso
C14 C 0.9343(3) 0.4961(16) 0.1355(8) 0.0210 Uiso
C15 C 0.9024(5) 0.4395(15) 0.199(2) 0.0210 Uiso
C16 C 0.8688(6) 0.5327(16) 0.226(3) 0.0210 Uiso
C17 C 0.9712(2) 0.398(2) 0.10503(19) 0.0210 Uiso
H2 H 0.972457 0.235965 0.270436 . .
H9 H 0.895391 0.841648 0.104061 . .
H10 H 0.903609 0.324748 0.227102 . .
H11 H 0.949372 0.329853 0.00147946 . .
H12 H 0.998831 0.463306 0.0819737 . .
H13 H 0.956621 0.689918 0.0499849 . .
H14 H 0.843975 0.488604 0.276601 . .
N2_2 N 0.7327(8) 0.095(3) 0.220(2) 0.0210 Uiso
N3_2 N 0.7466(8) 0.198(2) 0.330(3) 0.0210 Uiso
N4_2 N 0.7907(8) 0.161(2) 0.454(3) 0.0210 Uiso
C2_2 C 0.8037(6) 0.0339(19) 0.417(2) 0.0210 Uiso
Cu3_2 Cu 0.6897(5) 0.3354(19) 0.3150(19) 0.0210 Uiso
Cu4_2 Cu 0.8103(5) 0.1646(19) 0.6850(19) 0.0210 Uiso
O1_2 O 0.8771(13) 0.974(3) 0.649(4) 0.0210 Uiso
O2_2 O 0.8540(11) 0.831(4) 0.432(3) 0.0210 Uiso
N1_2 N 0.7688(9) 0.991(3) 0.275(2) 0.0210 Uiso
C1_2 C 0.8493(6) 0.939(3) 0.510(3) 0.0210 Uiso
O4_2 O 0.6460(11) 0.331(4) 0.068(3) 0.0210 Uiso
N6_2 N 0.7312(9) 0.491(3) 0.225(2) 0.0210 Uiso
N7_2 N 0.7673(8) 0.595(3) 0.280(2) 0.0210 Uiso
N8_2 N 0.7534(8) 0.698(2) 0.170(3) 0.0210 Uiso
N10_2 N 0.7093(8) 0.661(2) 0.046(3) 0.0210 Uiso
N12_2 N 0.7093(8) 0.339(2) 0.546(3) 0.0210 Uiso
N14_2 N 0.6342(7) 0.1752(17) 0.308(2) 0.0210 Uiso
C11_2 C 0.6963(6) 0.5339(19) 0.083(2) 0.0210 Uiso
Cu6_2 Cu 0.6897(5) 0.6646(19) 0.8150(19) 0.0210 Uiso
O3_2 O 0.6229(13) 0.474(3) 0.851(4) 0.0210 Uiso
N11_2 N 0.7907(8) 0.839(2) 0.954(3) 0.0210 Uiso
C10_2 C 0.6507(6) 0.439(3) 0.990(3) 0.0210 Uiso
C3_2 C 0.6027(10) 0.2265(16) 0.369(2) 0.0210 Uiso
C4_2 C 0.5679(9) 0.1427(17) 0.400(2) 0.0210 Uiso
C7_2 C 0.6312(6) 0.0327(16) 0.274(3) 0.0210 Uiso
C12_2 C 0.3973(10) 0.2265(16) 0.131(2) 0.0210 Uiso
C13_2 C 0.4321(9) 0.1427(17) 0.100(2) 0.0210 Uiso
C16_2 C 0.3688(6) 0.0327(16) 0.226(3) 0.0210 Uiso
H1_2 H 0.604609 0.341648 0.395939 . .
H4_2 H 0.543379 0.189918 0.450015 . .
H9_2 H 0.395391 0.341648 0.104061 . .
H13_2 H 0.456621 0.189918 0.0499849 . .
C5_2 C 0.5657(3) 0.9961(16) 0.3645(8) 0.0210 Uiso
C6_2 C 0.5976(5) 0.9395(15) 0.301(2) 0.0210 Uiso
C8_2 C 0.5288(2) 0.898(2) 0.39497(19) 0.0210 Uiso
C9_3 C 0.5000 0.804(2) 0.25000 0.0210 Uiso
C14_2 C 0.4343(3) 0.9961(16) 0.1355(8) 0.0210 Uiso
C15_2 C 0.4024(5) 0.9395(15) 0.199(2) 0.0210 Uiso
C17_2 C 0.4712(2) 0.898(2) 0.10503(19) 0.0210 Uiso
H2_2 H 0.472457 0.735965 0.270436 . .
H3_2 H 0.527543 0.735965 0.229564 . .
H5_2 H 0.596391 0.824748 0.272898 . .
H6_2 H 0.656025 0.988604 0.223399 . .
H7_2 H 0.501169 0.963306 0.418026 . .
H8_2 H 0.550628 0.829853 0.498521 . .
H10_2 H 0.403609 0.824748 0.227102 . .
H11_2 H 0.449372 0.829853 0.00147946 . .
H12_2 H 0.498831 0.963306 0.0819737 . .
H14_2 H 0.343975 0.988604 0.276601 . .
C9_4 C -0.0000 0.696(2) 0.75000 0.0210 Uiso
N13_2 N 0.1342(7) 0.3248(17) 0.808(2) 0.0210 Uiso
C12_3 C 0.1027(10) 0.2735(16) 0.869(2) 0.0210 Uiso
C13_3 C 0.0679(9) 0.3573(17) 0.900(2) 0.0210 Uiso
C14_3 C 0.0657(3) 0.5039(16) 0.8645(8) 0.0210 Uiso
C15_3 C 0.0976(5) 0.5605(15) 0.801(2) 0.0210 Uiso
C16_3 C 0.1312(6) 0.4673(16) 0.774(3) 0.0210 Uiso
C17_3 C 0.0288(2) 0.602(2) 0.89497(19) 0.0210 Uiso
H2_3 H 0.0275432 0.764035 0.729564 . .
H9_3 H 0.104609 0.158352 0.895939 . .
H10_3 H 0.0963907 0.675252 0.772898 . .
H11_3 H 0.0506284 0.670147 0.998521 . .
H12_3 H 0.00116921 0.536694 0.918026 . .
H13_3 H 0.0433789 0.310082 0.950015 . .
H14_3 H 0.156025 0.511396 0.723399 . .
O1_3 O 0.8771(13) 0.026(3) 0.149(4) 0.0210 Uiso
C1_3 C 0.8493(6) 0.061(3) 0.010(3) 0.0210 Uiso
O2_3 O 0.8540(11) 0.169(4) 0.932(3) 0.0210 Uiso
N1_3 N 0.7688(9) 0.009(3) 0.775(2) 0.0210 Uiso
N5_2 N 0.8658(7) 0.3248(17) 0.692(2) 0.0210 Uiso
C3_3 C 0.8973(10) 0.2735(16) 0.631(2) 0.0210 Uiso
C4_3 C 0.9321(9) 0.3573(17) 0.600(2) 0.0210 Uiso
C5_3 C 0.9343(3) 0.5039(16) 0.6355(8) 0.0210 Uiso
C6_3 C 0.9024(5) 0.5605(15) 0.699(2) 0.0210 Uiso
C7_3 C 0.8688(6) 0.4673(16) 0.726(3) 0.0210 Uiso
C8_3 C 0.9712(2) 0.602(2) 0.60503(19) 0.0210 Uiso
C9_5 C 1.0000 0.696(2) 0.75000 0.0210 Uiso
O3_3 O 0.6229(13) 0.526(3) 0.351(4) 0.0210 Uiso
O4_3 O 0.6460(11) 0.669(4) 0.568(3) 0.0210 Uiso
N6_3 N 0.7312(9) 0.509(3) 0.725(2) 0.0210 Uiso
N7_3 N 0.7673(8) 0.405(3) 0.780(2) 0.0210 Uiso
N8_3 N 0.7534(8) 0.302(2) 0.670(3) 0.0210 Uiso
N9 N 0.7466(8) 0.802(2) 0.830(3) 0.0210 Uiso
N14_3 N 0.6342(7) 0.8248(17) 0.808(2) 0.0210 Uiso
C10_3 C 0.6507(6) 0.561(3) 0.490(3) 0.0210 Uiso
C11_3 C 0.6963(6) 0.4661(19) 0.583(2) 0.0210 Uiso
H1_3 H 0.895391 0.158352 0.604061 . .
H3_3 H 0.972457 0.764035 0.770436 . .
H4_3 H 0.956621 0.310082 0.549985 . .
H5_3 H 0.903609 0.675252 0.727102 . .
H6_3 H 0.843975 0.511396 0.776601 . .
H7_3 H 0.998831 0.536694 0.581974 . .
H8_3 H 0.949372 0.670147 0.501479 . .
N2_3 N 0.7327(8) 0.905(3) 0.720(2) 0.0210 Uiso
C2_3 C 0.8037(6) 0.9661(19) 0.917(2) 0.0210 Uiso
O3_4 O 0.3771(13) 0.526(3) 0.149(4) 0.0210 Uiso
C10_4 C 0.3493(6) 0.561(3) 0.010(3) 0.0210 Uiso
O1_4 O 0.1229(13) 0.026(3) 0.351(4) 0.0210 Uiso
O2_4 O 0.1460(11) 0.169(4) 0.568(3) 0.0210 Uiso
N1_4 N 0.2312(9) 0.009(3) 0.725(2) 0.0210 Uiso
C1_4 C 0.1507(6) 0.061(3) 0.490(3) 0.0210 Uiso
O4_4 O 0.3540(11) 0.669(4) 0.932(3) 0.0210 Uiso
N6_4 N 0.2688(9) 0.509(3) 0.775(2) 0.0210 Uiso
N7_4 N 0.2327(8) 0.405(3) 0.720(2) 0.0210 Uiso
N8_4 N 0.2466(8) 0.302(2) 0.830(3) 0.0210 Uiso
N9_2 N 0.2534(8) 0.802(2) 0.670(3) 0.0210 Uiso
N14_4 N 0.3658(7) 0.8248(17) 0.692(2) 0.0210 Uiso
C11_4 C 0.3037(6) 0.4661(19) 0.917(2) 0.0210 Uiso
N2_4 N 0.2673(8) 0.905(3) 0.780(2) 0.0210 Uiso
C2_4 C 0.1963(6) 0.9661(19) 0.583(2) 0.0210 Uiso
C5_4 C 0.4343(3) 0.0039(16) 0.6355(8) 0.0210 Uiso
C6_4 C 0.4024(5) 0.0605(15) 0.699(2) 0.0210 Uiso
C8_4 C 0.4712(2) 0.102(2) 0.60503(19) 0.0210 Uiso
C9_6 C 0.5000 0.196(2) 0.75000 0.0210 Uiso
C14_4 C 0.5657(3) 0.0039(16) 0.8645(8) 0.0210 Uiso
C15_4 C 0.5976(5) 0.0605(15) 0.801(2) 0.0210 Uiso
C17_4 C 0.5288(2) 0.102(2) 0.89497(19) 0.0210 Uiso
H2_4 H 0.527543 0.264035 0.729564 . .
H3_4 H 0.472457 0.264035 0.770436 . .
H5_4 H 0.403609 0.175252 0.727102 . .
H6_4 H 0.343975 0.0113959 0.776601 . .
H7_4 H 0.498831 0.0366937 0.581974 . .
H8_4 H 0.449372 0.170147 0.501479 . .
H10_4 H 0.596391 0.175252 0.772898 . .
H11_4 H 0.550628 0.170147 0.998521 . .
H12_4 H 0.501169 0.0366937 0.918026 . .
H14_4 H 0.656025 0.0113959 0.723399 . .
C3_4 C 0.3973(10) 0.7735(16) 0.631(2) 0.0210 Uiso
C4_4 C 0.4321(9) 0.8573(17) 0.600(2) 0.0210 Uiso
C7_4 C 0.3688(6) 0.9673(16) 0.726(3) 0.0210 Uiso
C12_4 C 0.6027(10) 0.7735(16) 0.869(2) 0.0210 Uiso
C13_4 C 0.5679(9) 0.8573(17) 0.900(2) 0.0210 Uiso
C16_4 C 0.6312(6) 0.9673(16) 0.774(3) 0.0210 Uiso
H1_4 H 0.395391 0.658352 0.604061 . .
H4_4 H 0.456621 0.810082 0.549985 . .
H9_4 H 0.604609 0.658352 0.895939 . .
H13_4 H 0.543379 0.810082 0.950015 . .
loop_
_geom_bond_atom_site_label_1
_geom_bond_atom_site_label_2
_geom_bond_site_symmetry_1
_geom_bond_site_symmetry_2
N3 N2 1_555 1_555
N4 N3 1_555 1_555
Cu3 N3 1_555 1_555
N4 C2 1_555 1_555
Cu1 O2 1_555 1_555
N1 Cu1 1_555 1_555
N5 Cu1 1_555 1_555
C3 N5 1_555 1_555
C4 C3 1_555 1_555
C5 C4 1_555 1_555
C6 C5 1_555 1_555
C7 N5 1_555 1_555
C8 C5 1_555 1_555
C9 C8 1_555 1_555
Cu3 O4 1_555 1_555
Cu6 N10 1_555 1_555
O3 C10 1_555 1_555
O4 C10 1_555 1_555
N6 Cu3 1_555 1_555
N7 N6 1_555 1_555
N8 Cu1 1_555 1_555
N10 N8 1_555 1_555
N11 Cu1 1_555 1_555
N14 Cu3 1_555 1_555
C10 C11 1_555 1_555
C11 N6 1_555 1_555
C6 C7 1_555 1_555
N7 N8 1_555 1_555
N10 C11 1_555 1_555
C3 H1 1_555 1_555
C9 H3 1_555 1_555
C4 H4 1_555 1_555
C6 H5 1_555 1_555
C7 H6 1_555 1_555
C8 H7 1_555 1_555
C8 H8 1_555 1_555
O1 C1 1_555 1_555
Cu5 N13 1_555 1_555
N13 C12 1_555 1_555
C12 C13 1_555 1_555
C13 C14 1_555 1_555
C14 C15 1_555 1_555
C15 C16 1_555 1_555
C16 N13 1_555 1_555
C17 C9_2 1_555 1_555
C14 C17 1_555 1_555
C9_2 H2 1_555 1_555
C12 H9 1_555 1_555
C15 H10 1_555 1_555
C17 H11 1_555 1_555
C17 H12 1_555 1_555
C13 H13 1_555 1_555
C16 H14 1_555 1_555
N3_2 N2_2 1_555 1_555
N4_2 N3_2 1_555 1_555
Cu3_2 N3_2 1_555 1_555
Cu4_2 N4_2 1_555 1_555
N4_2 C2_2 1_555 1_555
Cu5 O2_2 1_555 1_555
O1_2 C1_2 1_555 1_555
O2_2 C1_2 1_555 1_555
N1_2 Cu5 1_555 1_555
Cu3_2 O4_2 1_555 1_555
N6_2 Cu3_2 1_555 1_555
N7_2 N6_2 1_555 1_555
N8_2 Cu5 1_555 1_555
N10_2 N8_2 1_555 1_555
N12_2 Cu3_2 1_555 1_555
N14_2 Cu3_2 1_555 1_555
C11_2 N6_2 1_555 1_555
N7_2 N8_2 1_555 1_555
N10_2 C11_2 1_555 1_555
O3_2 C10_2 1_555 1_555
C3_2 N14_2 1_555 1_555
C4_2 C3_2 1_555 1_555
C7_2 N14_2 1_555 1_555
N14 C12_2 1_555 1_555
C12_2 C13_2 1_555 1_555
C16_2 N14 1_555 1_555
C3_2 H1_2 1_555 1_555
C4_2 H4_2 1_555 1_555
C12_2 H9_2 1_555 1_555
C13_2 H13_2 1_555 1_555
C6_2 C5_2 1_555 1_555
C8_2 C5_2 1_555 1_555
C9_3 C8_2 1_555 1_555
C14_2 C15_2 1_555 1_555
C17_2 C9_3 1_555 1_555
C14_2 C17_2 1_555 1_555
C9_3 H2_2 1_555 1_555
C9_3 H3_2 1_555 1_555
C6_2 H5_2 1_555 1_555
C8_2 H7_2 1_555 1_555
C8_2 H8_2 1_555 1_555
C15_2 H10_2 1_555 1_555
C17_2 H11_2 1_555 1_555
C17_2 H12_2 1_555 1_555
Cu4 N13_2 1_555 1_555
N13_2 C12_3 1_555 1_555
C12_3 C13_3 1_555 1_555
C13_3 C14_3 1_555 1_555
C14_3 C15_3 1_555 1_555
C15_3 C16_3 1_555 1_555
C16_3 N13_2 1_555 1_555
C17_3 C9_4 1_555 1_555
C14_3 C17_3 1_555 1_555
C9_4 H2_3 1_555 1_555
C12_3 H9_3 1_555 1_555
C15_3 H10_3 1_555 1_555
C17_3 H11_3 1_555 1_555
C17_3 H12_3 1_555 1_555
C13_3 H13_3 1_555 1_555
C16_3 H14_3 1_555 1_555
O1_3 C1_3 1_555 1_555
Cu4_2 O2_3 1_555 1_555
N1_3 Cu4_2 1_555 1_555
N5_2 Cu4_2 1_555 1_555
C3_3 N5_2 1_555 1_555
C4_3 C3_3 1_555 1_555
C5_3 C4_3 1_555 1_555
C6_3 C5_3 1_555 1_555
C7_3 N5_2 1_555 1_555
C8_3 C5_3 1_555 1_555
C9_5 C8_3 1_555 1_555
Cu6_2 O4_3 1_555 1_555
O3_3 C10_3 1_555 1_555
O4_3 C10_3 1_555 1_555
N6_3 Cu6_2 1_555 1_555
N7_3 N6_3 1_555 1_555
N8_3 Cu4_2 1_555 1_555
N9 Cu6_2 1_555 1_555
N12_2 N8_3 1_555 1_555
N14_3 Cu6_2 1_555 1_555
C10_3 C11_3 1_555 1_555
C11_3 N6_3 1_555 1_555
C6_3 C7_3 1_555 1_555
N7_3 N8_3 1_555 1_555
N12_2 C11_3 1_555 1_555
C3_3 H1_3 1_555 1_555
C9_5 H3_3 1_555 1_555
C4_3 H4_3 1_555 1_555
C6_3 H5_3 1_555 1_555
C7_3 H6_3 1_555 1_555
C8_3 H7_3 1_555 1_555
C8_3 H8_3 1_555 1_555
N9 N2_3 1_555 1_555
N11_2 N9 1_555 1_555
N11_2 C2_3 1_555 1_555
O3_4 C10_4 1_555 1_555
Cu4 O2_4 1_555 1_555
O1_4 C1_4 1_555 1_555
O2_4 C1_4 1_555 1_555
N1_4 Cu4 1_555 1_555
Cu6 O4_4 1_555 1_555
N6_4 Cu6 1_555 1_555
N7_4 N6_4 1_555 1_555
N8_4 Cu4 1_555 1_555
N9_2 Cu6 1_555 1_555
N12 N8_4 1_555 1_555
N14_4 Cu6 1_555 1_555
C11_4 N6_4 1_555 1_555
N7_4 N8_4 1_555 1_555
N12 C11_4 1_555 1_555
N9_2 N2_4 1_555 1_555
N11 N9_2 1_555 1_555
N11 C2_4 1_555 1_555
C6_4 C5_4 1_555 1_555
C8_4 C5_4 1_555 1_555
C9_6 C8_4 1_555 1_555
C14_4 C15_4 1_555 1_555
C17_4 C9_6 1_555 1_555
C14_4 C17_4 1_555 1_555
C9_6 H2_4 1_555 1_555
C9_6 H3_4 1_555 1_555
C6_4 H5_4 1_555 1_555
C8_4 H7_4 1_555 1_555
C8_4 H8_4 1_555 1_555
C15_4 H10_4 1_555 1_555
C17_4 H11_4 1_555 1_555
C17_4 H12_4 1_555 1_555
C3_4 N14_4 1_555 1_555
C4_4 C3_4 1_555 1_555
C7_4 N14_4 1_555 1_555
N14_3 C12_4 1_555 1_555
C12_4 C13_4 1_555 1_555
C16_4 N14_3 1_555 1_555
C3_4 H1_4 1_555 1_555
C4_4 H4_4 1_555 1_555
C12_4 H9_4 1_555 1_555
C13_4 H13_4 1_555 1_555

#END
