
###############################################################################
#
# This file contains modified crystal structure data generated from the
# MOF subset of the Cambridge Structural Database (CSD) v543 
# hosted by the Cambridge Crystallographic Data Centre (CCDC).
#
# This work is licensed under the Creative Commons
# Attribution-NonCommercial-ShareAlike 4.0 International License.
# To view a copy of this license, visit
# http://creativecommons.org/licenses/by-nc-sa/4.0/
# or send a letter to
# Creative Commons, PO Box 1866, Mountain View, CA 94042, USA.
#
# CIF created using the CSD Python API on 29 September 2022
# The structure has been converted into the P1 space group
# The structure has a 3D framework
# The original CSD entry ADABUE is in the monoclinic crystal system
# The framework has been calculated to contain at least 10.0% void space
# The void calculation uses a probe of radius 1.32A, grid spacing 0.4
#
###############################################################################

data_ADABUE
_chemical_formula_moiety         '(C70 H56 Cu8 N40 O16)n'
_symmetry_cell_setting           triclinic
_symmetry_space_group_name_H-M   'P 1'
_symmetry_Int_Tables_number      1
_space_group_name_Hall           'P 1'
loop_
_symmetry_equiv_pos_site_id
_symmetry_equiv_pos_as_xyz
1 x,y,z
_cell_length_a                   28.612(2)
_cell_length_b                   9.3899(7)
_cell_length_c                   9.2741(8)
_cell_angle_alpha                90
_cell_angle_beta                 92.657(10)
_cell_angle_gamma                90
_cell_volume                     2488.94
loop_
_atom_site_label
_atom_site_type_symbol
_atom_site_fract_x
_atom_site_fract_y
_atom_site_fract_z
H1 H 0.3730 0.0774 0.8569
C6 C 0.4632(2) 0.0197(7) 0.8196(9)
H5 H 0.4787 0.0821 0.8917
H6 H 0.4480 0.0807 0.7456
H8 H 0.6270 0.0774 0.6431
C15 C 0.5368(2) 0.0197(7) 0.6804(9)
H12 H 0.5213 0.0821 0.6083
H13 H 0.5520 0.0807 0.7544
Cu1 Cu 0.30754(3) 0.66933(7) 0.12004(7)
N1 N 0.35573(18) 0.7845(6) 0.0260(5)
C5 C 0.3993(2) 0.7335(7) 0.0238(8)
H4 H 0.4060 0.6460 0.0693
O2 O 0.35748(18) 0.4203(5) 0.0204(5)
N9 N 0.25623(17) 0.8449(5) 0.1592(5)
N14 N 0.27503(17) 0.5201(5) 0.2310(5)
O5 O 0.34730(16) 0.6816(4) 0.3017(5)
C1 C 0.3806(2) 0.9883(8) 0.8978(9)
C2 C 0.3473(2) 0.9111(7) 0.9632(8)
H2 H 0.3168 0.9485 0.9644
C3 C 0.4349(2) 0.8040(7) 0.9574(9)
H3 H 0.4649 0.7635 0.9566
C4 C 0.4261(2) 0.9351(7) 0.8916(7)
C7 C 0.5000 0.9309(11) 0.7500
H7 H 0.4848 0.8700 0.6776
N2 N 0.27842(18) 0.6061(5) 0.9277(5)
N3 N 0.24377(17) 0.6551(5) 0.8408(5)
N4 N 0.24145(18) 0.5795(5) 0.7203(5)
C8 C 0.2968(2) 0.4981(6) 0.8596(6)
N5 N 0.27503(17) 0.4799(5) 0.7310(5)
C9 C 0.3378(2) 0.4054(6) 0.9008(7)
O1 O 0.34730(16) 0.3184(4) 0.8017(5)
Cu2 Cu 0.69246(3) 0.66933(7) 0.37996(7)
Cu3 Cu 0.69246(3) 0.33067(7) 0.87996(7)
Cu4 Cu 0.30754(3) 0.33067(7) 0.62004(7)
Cu5 Cu 0.19246(3) 0.83067(7) 0.87996(7)
Cu6 Cu 0.80754(3) 0.83067(7) 0.62004(7)
C10 C 0.6194(2) 0.9883(8) 0.6022(9)
C11 C 0.6527(2) 0.9111(7) 0.5368(8)
H9 H 0.6832 0.9485 0.5356
C12 C 0.5651(2) 0.8040(7) 0.5426(9)
H10 H 0.5351 0.7635 0.5434
N6 N 0.64427(18) 0.7845(6) 0.4740(5)
C13 C 0.5739(2) 0.9351(7) 0.6084(7)
C14 C 0.6007(2) 0.7335(7) 0.4762(8)
H11 H 0.5940 0.6460 0.4307
H14 H 0.5152 0.8700 0.8224
N7 N 0.72158(18) 0.6061(5) 0.5723(5)
N8 N 0.75623(17) 0.6551(5) 0.6592(5)
N10 N 0.74377(17) 0.8449(5) 0.3408(5)
N11 N 0.75855(18) 0.5795(5) 0.7797(5)
C16 C 0.7032(2) 0.4981(6) 0.6404(6)
N12 N 0.72497(17) 0.4799(5) 0.7690(5)
N13 N 0.72497(17) 0.5201(5) 0.2690(5)
C17 C 0.6622(2) 0.4054(6) 0.5992(7)
O3 O 0.65270(16) 0.3184(4) 0.6983(5)
O4 O 0.65270(16) 0.6816(4) 0.1983(5)
O6 O 0.64252(18) 0.4203(5) 0.4796(5)
C7_2 C -0.0000 0.4309(11) 0.7500
Cu2_2 Cu 0.19246(3) 0.16933(7) 0.37996(7)
C10_2 C 0.1194(2) 0.4883(8) 0.6022(9)
H8_2 H 0.1270 0.5774 0.6431
C11_2 C 0.1527(2) 0.4111(7) 0.5368(8)
H9_2 H 0.1832 0.4485 0.5356
C12_2 C 0.0651(2) 0.3040(7) 0.5426(9)
H10_2 H 0.0351 0.2635 0.5434
N6_2 N 0.14427(18) 0.2845(6) 0.4740(5)
C13_2 C 0.0739(2) 0.4351(7) 0.6084(7)
C14_2 C 0.1007(2) 0.2335(7) 0.4762(8)
H11_2 H 0.0940 0.1460 0.4307
C15_2 C 0.0368(2) 0.5197(7) 0.6804(9)
H12_2 H 0.0213 0.5821 0.6083
H13_2 H 0.0520 0.5807 0.7544
H14_2 H 0.0152 0.3700 0.8224
N7_2 N 0.22158(18) 0.1061(5) 0.5723(5)
N8_2 N 0.25623(17) 0.1551(5) 0.6592(5)
N10_2 N 0.24377(17) 0.3449(5) 0.3408(5)
N11_2 N 0.25855(18) 0.0795(5) 0.7797(5)
N13_2 N 0.22497(17) 0.0201(5) 0.2690(5)
O4_2 O 0.15270(16) 0.1816(4) 0.1983(5)
C16_2 C 0.2032(2) 0.9981(6) 0.6404(6)
N12_2 N 0.22497(17) 0.9799(5) 0.7690(5)
C17_2 C 0.1622(2) 0.9054(6) 0.5992(7)
O3_2 O 0.15270(16) 0.8184(4) 0.6983(5)
O6_2 O 0.14252(18) 0.9203(5) 0.4796(5)
Cu1_2 Cu 0.80754(3) 0.16933(7) 0.12004(7)
N1_2 N 0.85573(18) 0.2845(6) 0.0260(5)
C5_2 C 0.8993(2) 0.2335(7) 0.0238(8)
H4_2 H 0.9060 0.1460 0.0693
N9_2 N 0.75623(17) 0.3449(5) 0.1592(5)
N14_2 N 0.77503(17) 0.0201(5) 0.2310(5)
O5_2 O 0.84730(16) 0.1816(4) 0.3017(5)
C1_2 C 0.8806(2) 0.4883(8) 0.8978(9)
H1_2 H 0.8730 0.5774 0.8569
C2_2 C 0.8473(2) 0.4111(7) 0.9632(8)
H2_2 H 0.8168 0.4485 0.9644
C3_2 C 0.9349(2) 0.3040(7) 0.9574(9)
H3_2 H 0.9649 0.2635 0.9566
C4_2 C 0.9261(2) 0.4351(7) 0.8916(7)
C6_2 C 0.9632(2) 0.5197(7) 0.8196(9)
H5_2 H 0.9787 0.5821 0.8917
H6_2 H 0.9480 0.5807 0.7456
C7_3 C 1.0000 0.4309(11) 0.7500
H7_2 H 0.9848 0.3700 0.6776
N2_2 N 0.77842(18) 0.1061(5) 0.9277(5)
N3_2 N 0.74377(17) 0.1551(5) 0.8408(5)
N4_2 N 0.74145(18) 0.0795(5) 0.7203(5)
C8_2 C 0.7968(2) 0.9981(6) 0.8596(6)
N5_2 N 0.77503(17) 0.9799(5) 0.7310(5)
C9_2 C 0.8378(2) 0.9054(6) 0.9008(7)
O1_2 O 0.84730(16) 0.8184(4) 0.8017(5)
C1_3 C 0.6194(2) 0.0117(8) 0.1022(9)
C2_3 C 0.6527(2) 0.0889(7) 0.0368(8)
H2_3 H 0.6832 0.0515 0.0356
C3_3 C 0.5651(2) 0.1960(7) 0.0426(9)
H3_3 H 0.5351 0.2365 0.0434
C4_3 C 0.5739(2) 0.0649(7) 0.1084(7)
C7_4 C 0.5000 0.0691(11) 0.2500
H7_3 H 0.5152 0.1300 0.3224
N2_3 N 0.72158(18) 0.3939(5) 0.0723(5)
N4_3 N 0.75855(18) 0.4205(5) 0.2797(5)
C8_3 C 0.7032(2) 0.5019(6) 0.1404(6)
C9_3 C 0.6622(2) 0.5946(6) 0.0992(7)
C10_3 C 0.3806(2) 0.0117(8) 0.3978(9)
C11_3 C 0.3473(2) 0.0889(7) 0.4632(8)
H9_3 H 0.3168 0.0515 0.4644
C12_3 C 0.4349(2) 0.1960(7) 0.4574(9)
H10_3 H 0.4649 0.2365 0.4566
N6_3 N 0.35573(18) 0.2155(6) 0.5260(5)
C13_3 C 0.4261(2) 0.0649(7) 0.3916(7)
C14_3 C 0.3993(2) 0.2665(7) 0.5238(8)
H11_3 H 0.4060 0.3540 0.5693
H14_3 H 0.4848 0.1300 0.1776
N7_3 N 0.27842(18) 0.3939(5) 0.4277(5)
N11_3 N 0.24145(18) 0.4205(5) 0.2203(5)
C16_3 C 0.2968(2) 0.5019(6) 0.3596(6)
C17_3 C 0.3378(2) 0.5946(6) 0.4008(7)
O6_3 O 0.35748(18) 0.5797(5) 0.5204(5)
N1_3 N 0.64427(18) 0.2155(6) 0.9740(5)
C5_3 C 0.6007(2) 0.2665(7) 0.9762(8)
H4_3 H 0.5940 0.3540 0.9307
O2_2 O 0.64252(18) 0.5797(5) 0.9796(5)
C8_4 C 0.2032(2) 0.0019(6) 0.1404(6)
C9_4 C 0.1622(2) 0.0946(6) 0.0992(7)
C1_4 C 0.1194(2) 0.5117(8) 0.1022(9)
H1_3 H 0.1270 0.4226 0.1431
C2_4 C 0.1527(2) 0.5889(7) 0.0368(8)
H2_4 H 0.1832 0.5515 0.0356
C3_4 C 0.0651(2) 0.6960(7) 0.0426(9)
H3_4 H 0.0351 0.7365 0.0434
C4_4 C 0.0739(2) 0.5649(7) 0.1084(7)
C6_3 C 0.0368(2) 0.4803(7) 0.1804(9)
H5_3 H 0.0213 0.4179 0.1083
H6_3 H 0.0520 0.4193 0.2544
C7_5 C 0.0000 0.5691(11) 0.2500
H7_4 H 0.0152 0.6300 0.3224
N2_4 N 0.22158(18) 0.8939(5) 0.0723(5)
N4_4 N 0.25855(18) 0.9205(5) 0.2797(5)
N1_4 N 0.14427(18) 0.7155(6) 0.9740(5)
C5_4 C 0.1007(2) 0.7665(7) 0.9762(8)
H4_4 H 0.0940 0.8540 0.9307
C16_4 C 0.7968(2) 0.0019(6) 0.3596(6)
C17_4 C 0.8378(2) 0.0946(6) 0.4008(7)
O6_4 O 0.85748(18) 0.0797(5) 0.5204(5)
C7_6 C 1.0000 0.5691(11) 0.2500
C10_4 C 0.8806(2) 0.5117(8) 0.3978(9)
H8_3 H 0.8730 0.4226 0.3569
C11_4 C 0.8473(2) 0.5889(7) 0.4632(8)
H9_4 H 0.8168 0.5515 0.4644
C12_4 C 0.9349(2) 0.6960(7) 0.4574(9)
H10_4 H 0.9649 0.7365 0.4566
N6_4 N 0.85573(18) 0.7155(6) 0.5260(5)
C13_4 C 0.9261(2) 0.5649(7) 0.3916(7)
C14_4 C 0.8993(2) 0.7665(7) 0.5238(8)
H11_4 H 0.9060 0.8540 0.5693
C15_3 C 0.9632(2) 0.4803(7) 0.3196(9)
H12_3 H 0.9787 0.4179 0.3917
H13_3 H 0.9480 0.4193 0.2456
H14_4 H 0.9848 0.6300 0.1776
N7_4 N 0.77842(18) 0.8939(5) 0.4277(5)
N11_4 N 0.74145(18) 0.9205(5) 0.2203(5)
O2_3 O 0.85748(18) 0.9203(5) 0.0204(5)
H1_4 H 0.6270 0.9226 0.1431
C6_4 C 0.5368(2) 0.9803(7) 0.1804(9)
H5_4 H 0.5213 0.9179 0.1083
H6_4 H 0.5520 0.9193 0.2544
H8_4 H 0.3730 0.9226 0.3569
C15_4 C 0.4632(2) 0.9803(7) 0.3196(9)
H12_4 H 0.4787 0.9179 0.3917
H13_4 H 0.4480 0.9193 0.2456
O2_4 O 0.14252(18) 0.0797(5) 0.9796(5)
loop_
_geom_bond_atom_site_label_1
_geom_bond_atom_site_label_2
_geom_bond_site_symmetry_1
_geom_bond_site_symmetry_2
H5 C6 1_555 1_555
H6 C6 1_555 1_555
H12 C15 1_555 1_555
H13 C15 1_555 1_555
Cu1 N1 1_555 1_555
H4 C5 1_555 1_555
N9 Cu1 1_555 1_555
N14 Cu1 1_555 1_555
O5 Cu1 1_555 1_555
N1 C5 1_555 1_555
C2 C1 1_555 1_555
H2 C2 1_555 1_555
C3 H3 1_555 1_555
C4 C1 1_555 1_555
H7 C7 1_555 1_555
N3 N2 1_555 1_555
N4 N3 1_555 1_555
C8 N2 1_555 1_555
N5 N4 1_555 1_555
C9 C8 1_555 1_555
O1 C9 1_555 1_555
Cu2 N6 1_555 1_555
Cu3 N12 1_555 1_555
Cu4 N5 1_555 1_555
Cu5 N3 1_555 1_555
Cu6 N8 1_555 1_555
C11 C10 1_555 1_555
H9 C11 1_555 1_555
C12 H10 1_555 1_555
N6 C11 1_555 1_555
C13 C10 1_555 1_555
C14 C12 1_555 1_555
H11 C14 1_555 1_555
H14 C7 1_555 1_555
N7 Cu2 1_555 1_555
N8 N7 1_555 1_555
N10 Cu2 1_555 1_555
N11 N8 1_555 1_555
C16 N7 1_555 1_555
N12 N11 1_555 1_555
N13 Cu2 1_555 1_555
C17 C16 1_555 1_555
O3 Cu3 1_555 1_555
O4 Cu2 1_555 1_555
O6 C17 1_555 1_555
C3 C4 1_555 1_555
C8 N5 1_555 1_555
O1 Cu4 1_555 1_555
C12 C13 1_555 1_555
N6 C14 1_555 1_555
C16 N12 1_555 1_555
C17 O3 1_555 1_555
Cu2_2 N6_2 1_555 1_555
Cu4 N8_2 1_555 1_555
C10_2 H8_2 1_555 1_555
C11_2 C10_2 1_555 1_555
H9_2 C11_2 1_555 1_555
C12_2 H10_2 1_555 1_555
N6_2 C11_2 1_555 1_555
C13_2 C10_2 1_555 1_555
C14_2 C12_2 1_555 1_555
H11_2 C14_2 1_555 1_555
C15_2 C7_2 1_555 1_555
H12_2 C15_2 1_555 1_555
H13_2 C15_2 1_555 1_555
H14_2 C7_2 1_555 1_555
N7_2 Cu2_2 1_555 1_555
N8_2 N7_2 1_555 1_555
N10_2 Cu2_2 1_555 1_555
N11_2 N8_2 1_555 1_555
N13_2 Cu2_2 1_555 1_555
O4_2 Cu2_2 1_555 1_555
C12_2 C13_2 1_555 1_555
N6_2 C14_2 1_555 1_555
C13_2 C15_2 1_555 1_555
Cu5 N12_2 1_555 1_555
C17_2 C16_2 1_555 1_555
O3_2 Cu5 1_555 1_555
O6_2 C17_2 1_555 1_555
C16_2 N12_2 1_555 1_555
C17_2 O3_2 1_555 1_555
Cu1_2 N1_2 1_555 1_555
H4_2 C5_2 1_555 1_555
N9_2 Cu1_2 1_555 1_555
N14_2 Cu1_2 1_555 1_555
O5_2 Cu1_2 1_555 1_555
N1_2 C5_2 1_555 1_555
C1_2 H1_2 1_555 1_555
C2_2 C1_2 1_555 1_555
H2_2 C2_2 1_555 1_555
C3_2 H3_2 1_555 1_555
C4_2 C1_2 1_555 1_555
C6_2 C4_2 1_555 1_555
H5_2 C6_2 1_555 1_555
H6_2 C6_2 1_555 1_555
C7_3 C6_2 1_555 1_555
H7_2 C7_3 1_555 1_555
N3_2 N2_2 1_555 1_555
N4_2 N3_2 1_555 1_555
Cu3 N3_2 1_555 1_555
C3_2 C4_2 1_555 1_555
C9_2 C8_2 1_555 1_555
O1_2 C9_2 1_555 1_555
Cu6 N5_2 1_555 1_555
C8_2 N5_2 1_555 1_555
O1_2 Cu6 1_555 1_555
C2_3 C1_3 1_555 1_555
H2_3 C2_3 1_555 1_555
C3_3 H3_3 1_555 1_555
C4_3 C1_3 1_555 1_555
H7_3 C7_4 1_555 1_555
N9_2 N2_3 1_555 1_555
N4_3 N9_2 1_555 1_555
C8_3 N2_3 1_555 1_555
N13 N4_3 1_555 1_555
C9_3 C8_3 1_555 1_555
O4 C9_3 1_555 1_555
Cu4 N6_3 1_555 1_555
C11_3 C10_3 1_555 1_555
H9_3 C11_3 1_555 1_555
C12_3 H10_3 1_555 1_555
N6_3 C11_3 1_555 1_555
C13_3 C10_3 1_555 1_555
C14_3 C12_3 1_555 1_555
H11_3 C14_3 1_555 1_555
H14_3 C7_4 1_555 1_555
N7_3 Cu4 1_555 1_555
N10_2 N7_3 1_555 1_555
N11_3 N10_2 1_555 1_555
C16_3 N7_3 1_555 1_555
N14 N11_3 1_555 1_555
C17_3 C16_3 1_555 1_555
O6_3 C17_3 1_555 1_555
C3_3 C4_3 1_555 1_555
C8_3 N13 1_555 1_555
C12_3 C13_3 1_555 1_555
N6_3 C14_3 1_555 1_555
C16_3 N14 1_555 1_555
C17_3 O5 1_555 1_555
Cu3 N1_3 1_555 1_555
H4_3 C5_3 1_555 1_555
N1_3 C5_3 1_555 1_555
C9_4 C8_4 1_555 1_555
O4_2 C9_4 1_555 1_555
C8_4 N13_2 1_555 1_555
C1_4 H1_3 1_555 1_555
C2_4 C1_4 1_555 1_555
H2_4 C2_4 1_555 1_555
C3_4 H3_4 1_555 1_555
C4_4 C1_4 1_555 1_555
C6_3 C4_4 1_555 1_555
H5_3 C6_3 1_555 1_555
H6_3 C6_3 1_555 1_555
C7_5 C6_3 1_555 1_555
H7_4 C7_5 1_555 1_555
N9 N2_4 1_555 1_555
N4_4 N9 1_555 1_555
C3_4 C4_4 1_555 1_555
Cu5 N1_4 1_555 1_555
H4_4 C5_4 1_555 1_555
N1_4 C5_4 1_555 1_555
C17_4 C16_4 1_555 1_555
O6_4 C17_4 1_555 1_555
C16_4 N14_2 1_555 1_555
C17_4 O5_2 1_555 1_555
Cu6 N6_4 1_555 1_555
C10_4 H8_3 1_555 1_555
C11_4 C10_4 1_555 1_555
H9_4 C11_4 1_555 1_555
C12_4 H10_4 1_555 1_555
N6_4 C11_4 1_555 1_555
C13_4 C10_4 1_555 1_555
C14_4 C12_4 1_555 1_555
H11_4 C14_4 1_555 1_555
C15_3 C7_6 1_555 1_555
H12_3 C15_3 1_555 1_555
H13_3 C15_3 1_555 1_555
H14_4 C7_6 1_555 1_555
N7_4 Cu6 1_555 1_555
N10 N7_4 1_555 1_555
N11_4 N10 1_555 1_555
C12_4 C13_4 1_555 1_555
N6_4 C14_4 1_555 1_555
C13_4 C15_3 1_555 1_555
H5_4 C6_4 1_555 1_555
H6_4 C6_4 1_555 1_555
H12_4 C15_4 1_555 1_555
H13_4 C15_4 1_555 1_555

#END
