
###############################################################################
#
# This file contains modified crystal structure data generated from the
# MOF subset of the Cambridge Structural Database (CSD) v543 
# hosted by the Cambridge Crystallographic Data Centre (CCDC).
#
# This work is licensed under the Creative Commons
# Attribution-NonCommercial-ShareAlike 4.0 International License.
# To view a copy of this license, visit
# http://creativecommons.org/licenses/by-nc-sa/4.0/
# or send a letter to
# Creative Commons, PO Box 1866, Mountain View, CA 94042, USA.
#
# CIF created using the CSD Python API on 29 September 2022
# The structure has been converted into the P1 space group
# The structure has a 3D framework
# The original CSD entry ADAQAA is in the orthorhombic crystal system
# The framework has been calculated to contain at least 10.0% void space
# The void calculation uses a probe of radius 1.32A, grid spacing 0.4
#
###############################################################################

data_ADAQAA
_chemical_formula_moiety         '(C424 H288 O112 Zr24)n'
_symmetry_cell_setting           triclinic
_symmetry_space_group_name_H-M   'P 1'
_symmetry_Int_Tables_number      1
_space_group_name_Hall           'P 1'
loop_
_symmetry_equiv_pos_site_id
_symmetry_equiv_pos_as_xyz
1 x,y,z
_cell_length_a                   17.842(4)
_cell_length_b                   37.867(8)
_cell_length_c                   33.693(7)
_cell_angle_alpha                90
_cell_angle_beta                 90
_cell_angle_gamma                90
_cell_volume                     22763.8
loop_
_atom_site_label
_atom_site_type_symbol
_atom_site_fract_x
_atom_site_fract_y
_atom_site_fract_z
Zr12 Zr 0.09790(2) 0.00824(2) 0.94752(2)
Zr5 Zr 0.47557(3) 0.56365(2) -0.0000
Zr7 Zr 0.02443(3) 0.93635(2) -0.0000
Zr1 Zr 0.52443(3) 0.56365(2) 0.5000
Zr2 Zr 0.59790(2) 0.49176(2) 0.44752(2)
O1 O 0.6098(3) 0.52288(8) 0.5000
O2 O 0.5871(3) 0.46074(10) 0.5000
O3 O 0.48775(19) 0.46879(8) 0.44705(11)
O4 O 0.5895(2) 0.49248(8) 0.38275(7)
H1 H 0.594(3) 0.4788(9) 0.3623(8)
H2 H 0.577(3) 0.5112(7) 0.3694(11)
O5 O 0.71807(18) 0.48121(7) 0.44891(9)
H3 H 0.7642(10) 0.4869(11) 0.4429(12)
H4 H 0.729(2) 0.4662(9) 0.4670(9)
O6 O 0.46214(15) 0.59888(5) 0.53904(6)
O7 O 0.38466(17) 0.56426(6) 0.57469(8)
O8 O 0.15485(19) 0.95877(6) 0.92639(8)
O9 O 0.10799(15) 0.91279(5) 0.96044(6)
C1 C 0.4175(2) 0.59281(8) 0.56772(10)
C2 C 0.4056(2) 0.62274(9) 0.59573(11)
C3 C 0.3613(3) 0.61899(10) 0.62880(12)
H5 H 0.3356 0.5974 0.6332
C4 C 0.3537(3) 0.64606(10) 0.65550(12)
H6 H 0.3225 0.6430 0.6781
C5 C 0.3914(2) 0.67838(9) 0.64994(12)
C6 C 0.4352(3) 0.68217(10) 0.61587(12)
H7 H 0.4604 0.7038 0.6110
C7 C 0.4422(3) 0.65460(9) 0.58905(12)
H8 H 0.4722 0.6575 0.5660
C8 C 0.3853(2) 0.70784(9) 0.67888(11)
C9 C 0.3205(2) 0.71187(8) 0.70185(9)
H9 H 0.2799 0.6958 0.6992
C10 C 0.3162(2) 0.73947(8) 0.72837(9)
C11 C 0.2500 0.7500 0.75489(12)
C12 C 0.2828(2) 0.78113(7) 0.77740(8)
C13 C 0.2485(2) 0.80178(8) 0.80596(9)
H10 H 0.1999 0.7961 0.8155
C14 C 0.2874(2) 0.83163(8) 0.82062(10)
C15 C 0.3582(2) 0.83924(9) 0.80588(10)
H11 H 0.3840 0.8593 0.8159
C16 C 0.3926(2) 0.81874(9) 0.77712(11)
H12 H 0.4409 0.8246 0.7672
C17 C 0.3540(2) 0.78927(8) 0.76321(9)
C18 C 0.3756(2) 0.76317(8) 0.73281(10)
C19 C 0.4390(2) 0.75945(10) 0.70974(11)
H13 H 0.4792 0.7758 0.7120
C20 C 0.4432(2) 0.73169(10) 0.68332(12)
H14 H 0.4872 0.7289 0.6677
C21 C 0.2513(2) 0.85539(8) 0.85003(10)
C22 C 0.2023(3) 0.84267(9) 0.87917(10)
H15 H 0.1910 0.8182 0.8802
C23 C 0.1704(3) 0.86535(9) 0.90633(11)
H16 H 0.1378 0.8563 0.9262
C24 C 0.1855(3) 0.90136(8) 0.90481(11)
C25 C 0.2328(3) 0.91428(9) 0.87644(12)
H17 H 0.2430 0.9389 0.8754
C26 C 0.2663(3) 0.89184(9) 0.84905(12)
H18 H 0.2993 0.9012 0.8296
C27 C 0.1469(2) 0.92642(9) 0.93282(11)
O10 O 0.03786(15) 0.90112(5) 0.53904(6)
O11 O 0.11534(17) 0.93574(6) 0.57469(8)
O12 O 0.34515(19) 0.54123(6) 0.92639(8)
O13 O 0.39201(15) 0.58721(5) 0.96044(6)
C28 C 0.0825(2) 0.90719(8) 0.56772(10)
C29 C 0.0944(2) 0.87726(9) 0.59573(11)
C30 C 0.1387(3) 0.88101(10) 0.62880(12)
H19 H 0.1644 0.9026 0.6332
C31 C 0.1463(3) 0.85394(10) 0.65550(12)
H20 H 0.1775 0.8570 0.6781
C32 C 0.1086(2) 0.82162(9) 0.64994(12)
C33 C 0.0648(3) 0.81783(10) 0.61587(12)
H21 H 0.0396 0.7962 0.6110
C34 C 0.0578(3) 0.84540(9) 0.58905(12)
H22 H 0.0278 0.8425 0.5660
C35 C 0.1147(2) 0.79216(9) 0.67888(11)
C36 C 0.1795(2) 0.78813(8) 0.70185(9)
H23 H 0.2201 0.8042 0.6992
C37 C 0.1838(2) 0.76053(8) 0.72837(9)
C38 C 0.2172(2) 0.71887(7) 0.77740(8)
C39 C 0.2515(2) 0.69822(8) 0.80596(9)
H24 H 0.3001 0.7039 0.8155
C40 C 0.2126(2) 0.66837(8) 0.82062(10)
C41 C 0.1418(2) 0.66076(9) 0.80588(10)
H25 H 0.1160 0.6407 0.8159
C42 C 0.1074(2) 0.68126(9) 0.77712(11)
H26 H 0.0591 0.6754 0.7672
C43 C 0.1460(2) 0.71073(8) 0.76321(9)
C44 C 0.1244(2) 0.73683(8) 0.73281(10)
C45 C 0.0610(2) 0.74055(10) 0.70974(11)
H27 H 0.0208 0.7242 0.7120
C46 C 0.0568(2) 0.76831(10) 0.68332(12)
H28 H 0.0128 0.7711 0.6677
C47 C 0.2487(2) 0.64461(8) 0.85003(10)
C48 C 0.2977(3) 0.65733(9) 0.87917(10)
H29 H 0.3090 0.6818 0.8802
C49 C 0.3296(3) 0.63465(9) 0.90633(11)
H30 H 0.3622 0.6437 0.9262
C50 C 0.3145(3) 0.59864(8) 0.90481(11)
C51 C 0.2672(3) 0.58572(9) 0.87644(12)
H31 H 0.2570 0.5611 0.8754
C52 C 0.2337(3) 0.60816(9) 0.84905(12)
H32 H 0.2007 0.5988 0.8296
C53 C 0.3531(2) 0.57358(9) 0.93282(11)
Zr3 Zr 0.40210(2) 0.50824(2) 0.44752(2)
O14 O 0.51225(19) 0.53121(8) 0.44705(11)
O15 O 0.4105(2) 0.50752(8) 0.38275(7)
H33 H 0.406(3) 0.5212(9) 0.3623(8)
H34 H 0.423(3) 0.4888(7) 0.3694(11)
O16 O 0.28193(18) 0.51879(7) 0.44891(9)
H35 H 0.2358(10) 0.5131(11) 0.4429(12)
H36 H 0.271(2) 0.5338(9) 0.4670(9)
Zr4 Zr 0.47557(3) 0.43635(2) 0.5000
Zr5_2 Zr 0.47557(3) 0.56365(2) 1.0000
Zr7_2 Zr 0.02443(3) 0.93635(2) 1.0000
Zr8 Zr 0.40210(2) 0.50824(2) 0.55248(2)
Zr9 Zr 0.59790(2) 0.49176(2) 0.55248(2)
Zr10 Zr 0.40210(2) 0.49176(2) 0.94752(2)
Zr11 Zr 0.09790(2) 0.99176(2) 0.55248(2)
O17 O 0.3902(3) 0.47712(8) 0.5000
O18 O 0.4129(3) 0.53926(10) 0.5000
O19 O 0.51225(19) 0.53121(8) 0.55295(11)
O20 O 0.46214(15) 0.59888(5) 0.46096(6)
O21 O 0.61534(17) 0.43574(6) 0.42531(8)
O22 O 0.38466(17) 0.56426(6) 0.42531(8)
O23 O 0.65485(19) 0.54123(6) 0.42639(8)
O24 O 0.34515(19) 0.45877(6) 0.42639(8)
O25 O 0.60799(15) 0.58721(5) 0.53956(6)
O26 O 0.60799(15) 0.58721(5) 0.46044(6)
Zr6 Zr 0.97557(3) 0.93635(2) 0.5000
Zr6_2 Zr 0.02443(3) 0.06365(2) 0.5000
Zr5_3 Zr 0.52443(3) 0.43635(2) -0.0000
Zr7_3 Zr 0.97557(3) 0.06365(2) -0.0000
O6_2 O 0.53786(15) 0.40112(5) 0.53904(6)
O7_2 O 0.61534(17) 0.43574(6) 0.57469(8)
O8_2 O 0.84515(19) 0.04123(6) 0.92639(8)
O9_2 O 0.89201(15) 0.08721(5) 0.96044(6)
C1_2 C 0.5825(2) 0.40719(8) 0.56772(10)
C2_2 C 0.5944(2) 0.37726(9) 0.59573(11)
C3_2 C 0.6387(3) 0.38101(10) 0.62880(12)
H5_2 H 0.6644 0.4026 0.6332
C4_2 C 0.6463(3) 0.35394(10) 0.65550(12)
H6_2 H 0.6775 0.3570 0.6781
C5_2 C 0.6086(2) 0.32162(9) 0.64994(12)
C6_2 C 0.5648(3) 0.31783(10) 0.61587(12)
H7_2 H 0.5396 0.2962 0.6110
C7_2 C 0.5578(3) 0.34540(9) 0.58905(12)
H8_2 H 0.5278 0.3425 0.5660
C8_2 C 0.6147(2) 0.29216(9) 0.67888(11)
C9_2 C 0.6795(2) 0.28813(8) 0.70185(9)
H9_2 H 0.7201 0.3042 0.6992
C10_2 C 0.6838(2) 0.26053(8) 0.72837(9)
C11_2 C 0.7500 0.2500 0.75489(12)
C12_2 C 0.7172(2) 0.21887(7) 0.77740(8)
C13_2 C 0.7515(2) 0.19822(8) 0.80596(9)
H10_2 H 0.8001 0.2039 0.8155
C14_2 C 0.7126(2) 0.16837(8) 0.82062(10)
C15_2 C 0.6418(2) 0.16076(9) 0.80588(10)
H11_2 H 0.6160 0.1407 0.8159
C16_2 C 0.6074(2) 0.18126(9) 0.77712(11)
H12_2 H 0.5591 0.1754 0.7672
C17_2 C 0.6460(2) 0.21073(8) 0.76321(9)
C18_2 C 0.6244(2) 0.23683(8) 0.73281(10)
C19_2 C 0.5610(2) 0.24055(10) 0.70974(11)
H13_2 H 0.5208 0.2242 0.7120
C20_2 C 0.5568(2) 0.26831(10) 0.68332(12)
H14_2 H 0.5128 0.2711 0.6677
C21_2 C 0.7487(2) 0.14461(8) 0.85003(10)
C22_2 C 0.7977(3) 0.15733(9) 0.87917(10)
H15_2 H 0.8090 0.1818 0.8802
C23_2 C 0.8296(3) 0.13465(9) 0.90633(11)
H16_2 H 0.8622 0.1437 0.9262
C24_2 C 0.8145(3) 0.09864(8) 0.90481(11)
C25_2 C 0.7672(3) 0.08572(9) 0.87644(12)
H17_2 H 0.7570 0.0611 0.8754
C26_2 C 0.7337(3) 0.10816(9) 0.84905(12)
H18_2 H 0.7007 0.0988 0.8296
C27_2 C 0.8531(2) 0.07358(9) 0.93282(11)
O10_2 O 0.96214(15) 0.09888(5) 0.53904(6)
O11_2 O 0.88466(17) 0.06426(6) 0.57469(8)
O12_2 O 0.65485(19) 0.45877(6) 0.92639(8)
O13_2 O 0.60799(15) 0.41279(5) 0.96044(6)
C28_2 C 0.9175(2) 0.09281(8) 0.56772(10)
C29_2 C 0.9056(2) 0.12274(9) 0.59573(11)
C30_2 C 0.8613(3) 0.11899(10) 0.62880(12)
H19_2 H 0.8356 0.0974 0.6332
C31_2 C 0.8537(3) 0.14606(10) 0.65550(12)
H20_2 H 0.8225 0.1430 0.6781
C32_2 C 0.8914(2) 0.17838(9) 0.64994(12)
C33_2 C 0.9352(3) 0.18217(10) 0.61587(12)
H21_2 H 0.9604 0.2038 0.6110
C34_2 C 0.9422(3) 0.15460(9) 0.58905(12)
H22_2 H 0.9722 0.1575 0.5660
C35_2 C 0.8853(2) 0.20784(9) 0.67888(11)
C36_2 C 0.8205(2) 0.21187(8) 0.70185(9)
H23_2 H 0.7799 0.1958 0.6992
C37_2 C 0.8162(2) 0.23947(8) 0.72837(9)
C38_2 C 0.7828(2) 0.28113(7) 0.77740(8)
C39_2 C 0.7485(2) 0.30178(8) 0.80596(9)
H24_2 H 0.6999 0.2961 0.8155
C40_2 C 0.7874(2) 0.33163(8) 0.82062(10)
C41_2 C 0.8582(2) 0.33924(9) 0.80588(10)
H25_2 H 0.8840 0.3593 0.8159
C42_2 C 0.8926(2) 0.31874(9) 0.77712(11)
H26_2 H 0.9409 0.3246 0.7672
C43_2 C 0.8540(2) 0.28927(8) 0.76321(9)
C44_2 C 0.8756(2) 0.26317(8) 0.73281(10)
C45_2 C 0.9390(2) 0.25945(10) 0.70974(11)
H27_2 H 0.9792 0.2758 0.7120
C46_2 C 0.9432(2) 0.23169(10) 0.68332(12)
H28_2 H 0.9872 0.2289 0.6677
C47_2 C 0.7513(2) 0.35539(8) 0.85003(10)
C48_2 C 0.7023(3) 0.34267(9) 0.87917(10)
H29_2 H 0.6910 0.3182 0.8802
C49_2 C 0.6704(3) 0.36535(9) 0.90633(11)
H30_2 H 0.6378 0.3563 0.9262
C50_2 C 0.6855(3) 0.40136(8) 0.90481(11)
C51_2 C 0.7328(3) 0.41428(9) 0.87644(12)
H31_2 H 0.7430 0.4389 0.8754
C52_2 C 0.7663(3) 0.39184(9) 0.84905(12)
H32_2 H 0.7993 0.4012 0.8296
C53_2 C 0.6469(2) 0.42642(9) 0.93282(11)
Zr5_4 Zr 0.52443(3) 0.43635(2) 1.0000
Zr7_4 Zr 0.97557(3) 0.06365(2) 1.0000
Zr10_2 Zr 0.59790(2) 0.50824(2) 0.94752(2)
Zr11_2 Zr 0.90210(2) 0.00824(2) 0.55248(2)
O19_2 O 0.48775(19) 0.46879(8) 0.55295(11)
O20_2 O 0.53786(15) 0.40112(5) 0.46096(6)
O25_2 O 0.39201(15) 0.41279(5) 0.53956(6)
O26_2 O 0.39201(15) 0.41279(5) 0.46044(6)
Zr12_2 Zr 0.90210(2) 0.99176(2) 0.94752(2)
Zr2_2 Zr 0.40210(2) 0.49176(2) 0.05248(2)
O1_2 O 0.3902(3) 0.52288(8) 0.0000
O2_2 O 0.4129(3) 0.46074(10) 0.0000
O3_2 O 0.51225(19) 0.46879(8) 0.05295(11)
O4_2 O 0.4105(2) 0.49248(8) 0.11725(7)
H1_2 H 0.406(3) 0.4788(9) 0.1377(8)
H2_2 H 0.423(3) 0.5112(7) 0.1306(11)
O5_2 O 0.28193(18) 0.48121(7) 0.05109(9)
H3_2 H 0.2358(10) 0.4869(11) 0.0571(12)
H4_2 H 0.271(2) 0.4662(9) 0.0330(9)
Zr3_2 Zr 0.59790(2) 0.50824(2) 0.05248(2)
O14_2 O 0.48775(19) 0.53121(8) 0.05295(11)
O15_2 O 0.5895(2) 0.50752(8) 0.11725(7)
H33_2 H 0.594(3) 0.5212(9) 0.1377(8)
H34_2 H 0.577(3) 0.4888(7) 0.1306(11)
O16_2 O 0.71807(18) 0.51879(7) 0.05109(9)
H35_2 H 0.7642(10) 0.5131(11) 0.0571(12)
H36_2 H 0.729(2) 0.5338(9) 0.0330(9)
O17_2 O 0.6098(3) 0.47712(8) 0.0000
O18_2 O 0.5871(3) 0.53926(10) 0.0000
O20_3 O 0.53786(15) 0.59888(5) 0.03904(6)
O21_2 O 0.38466(17) 0.43574(6) 0.07469(8)
O22_2 O 0.61534(17) 0.56426(6) 0.07469(8)
O23_2 O 0.34515(19) 0.54123(6) 0.07361(8)
O24_2 O 0.65485(19) 0.45877(6) 0.07361(8)
O26_3 O 0.39201(15) 0.58721(5) 0.03956(6)
O1_3 O 0.3902(3) 0.52288(8) 1.0000
O2_3 O 0.4129(3) 0.46074(10) 1.0000
O6_3 O 0.53786(15) 0.59888(5) 0.96096(6)
O7_3 O 0.61534(17) 0.56426(6) 0.92531(8)
O8_3 O 0.84515(19) 0.95877(6) 0.57361(8)
O9_3 O 0.89201(15) 0.91279(5) 0.53956(6)
C1_3 C 0.5825(2) 0.59281(8) 0.93228(10)
C2_3 C 0.5944(2) 0.62274(9) 0.90427(11)
C3_3 C 0.6387(3) 0.61899(10) 0.87120(12)
H5_3 H 0.6644 0.5974 0.8668
C4_3 C 0.6463(3) 0.64606(10) 0.84450(12)
H6_3 H 0.6775 0.6430 0.8219
C5_3 C 0.6086(2) 0.67838(9) 0.85006(12)
C6_3 C 0.5648(3) 0.68217(10) 0.88413(12)
H7_3 H 0.5396 0.7038 0.8890
C7_3 C 0.5578(3) 0.65460(9) 0.91095(12)
H8_3 H 0.5278 0.6575 0.9340
C8_3 C 0.6147(2) 0.70784(9) 0.82112(11)
C9_3 C 0.6795(2) 0.71187(8) 0.79815(9)
H9_3 H 0.7201 0.6958 0.8008
C10_3 C 0.6838(2) 0.73947(8) 0.77163(9)
C11_3 C 0.7500 0.7500 0.74511(12)
C12_3 C 0.7172(2) 0.78113(7) 0.72260(8)
C13_3 C 0.7515(2) 0.80178(8) 0.69404(9)
H10_3 H 0.8001 0.7961 0.6845
C14_3 C 0.7126(2) 0.83163(8) 0.67938(10)
C15_3 C 0.6418(2) 0.83924(9) 0.69412(10)
H11_3 H 0.6160 0.8593 0.6841
C16_3 C 0.6074(2) 0.81874(9) 0.72288(11)
H12_3 H 0.5591 0.8246 0.7328
C17_3 C 0.6460(2) 0.78927(8) 0.73679(9)
C18_3 C 0.6244(2) 0.76317(8) 0.76719(10)
C19_3 C 0.5610(2) 0.75945(10) 0.79026(11)
H13_3 H 0.5208 0.7758 0.7880
C20_3 C 0.5568(2) 0.73169(10) 0.81668(12)
H14_3 H 0.5128 0.7289 0.8323
C21_3 C 0.7487(2) 0.85539(8) 0.64997(10)
C22_3 C 0.7977(3) 0.84267(9) 0.62083(10)
H15_3 H 0.8090 0.8182 0.6198
C23_3 C 0.8296(3) 0.86535(9) 0.59367(11)
H16_3 H 0.8622 0.8563 0.5738
C24_3 C 0.8145(3) 0.90136(8) 0.59519(11)
C25_3 C 0.7672(3) 0.91428(9) 0.62356(12)
H17_3 H 0.7570 0.9389 0.6246
C26_3 C 0.7337(3) 0.89184(9) 0.65095(12)
H18_3 H 0.7007 0.9012 0.6704
C27_3 C 0.8531(2) 0.92642(9) 0.56718(11)
O10_3 O 0.96214(15) 0.90112(5) 0.96096(6)
O11_3 O 0.88466(17) 0.93574(6) 0.92531(8)
O12_3 O 0.65485(19) 0.54123(6) 0.57361(8)
C28_3 C 0.9175(2) 0.90719(8) 0.93228(10)
C29_3 C 0.9056(2) 0.87726(9) 0.90427(11)
C30_3 C 0.8613(3) 0.88101(10) 0.87120(12)
H19_3 H 0.8356 0.9026 0.8668
C31_3 C 0.8537(3) 0.85394(10) 0.84450(12)
H20_3 H 0.8225 0.8570 0.8219
C32_3 C 0.8914(2) 0.82162(9) 0.85006(12)
C33_3 C 0.9352(3) 0.81783(10) 0.88413(12)
H21_3 H 0.9604 0.7962 0.8890
C34_3 C 0.9422(3) 0.84540(9) 0.91095(12)
H22_3 H 0.9722 0.8425 0.9340
C35_3 C 0.8853(2) 0.79216(9) 0.82112(11)
C36_3 C 0.8205(2) 0.78813(8) 0.79815(9)
H23_3 H 0.7799 0.8042 0.8008
C37_3 C 0.8162(2) 0.76053(8) 0.77163(9)
C38_3 C 0.7828(2) 0.71887(7) 0.72260(8)
C39_3 C 0.7485(2) 0.69822(8) 0.69404(9)
H24_3 H 0.6999 0.7039 0.6845
C40_3 C 0.7874(2) 0.66837(8) 0.67938(10)
C41_3 C 0.8582(2) 0.66076(9) 0.69412(10)
H25_3 H 0.8840 0.6407 0.6841
C42_3 C 0.8926(2) 0.68126(9) 0.72288(11)
H26_3 H 0.9409 0.6754 0.7328
C43_3 C 0.8540(2) 0.71073(8) 0.73679(9)
C44_3 C 0.8756(2) 0.73683(8) 0.76719(10)
C45_3 C 0.9390(2) 0.74055(10) 0.79026(11)
H27_3 H 0.9792 0.7242 0.7880
C46_3 C 0.9432(2) 0.76831(10) 0.81668(12)
H28_3 H 0.9872 0.7711 0.8323
C47_3 C 0.7513(2) 0.64461(8) 0.64997(10)
C48_3 C 0.7023(3) 0.65733(9) 0.62083(10)
H29_3 H 0.6910 0.6818 0.6198
C49_3 C 0.6704(3) 0.63465(9) 0.59367(11)
H30_3 H 0.6378 0.6437 0.5738
C50_3 C 0.6855(3) 0.59864(8) 0.59519(11)
C51_3 C 0.7328(3) 0.58572(9) 0.62356(12)
H31_3 H 0.7430 0.5611 0.6246
C52_3 C 0.7663(3) 0.60816(9) 0.65095(12)
H32_3 H 0.7993 0.5988 0.6704
C53_3 C 0.6469(2) 0.57358(9) 0.56718(11)
O17_3 O 0.6098(3) 0.47712(8) 1.0000
O18_3 O 0.5871(3) 0.53926(10) 1.0000
O19_3 O 0.48775(19) 0.53121(8) 0.94705(11)
O20_4 O 0.46214(15) 0.40112(5) 0.03904(6)
O26_4 O 0.60799(15) 0.41279(5) 0.03956(6)
O6_4 O 0.46214(15) 0.40112(5) 0.96096(6)
O7_4 O 0.38466(17) 0.43574(6) 0.92531(8)
O8_4 O 0.15485(19) 0.04123(6) 0.57361(8)
O9_4 O 0.10799(15) 0.08721(5) 0.53956(6)
C1_4 C 0.4175(2) 0.40719(8) 0.93228(10)
C2_4 C 0.4056(2) 0.37726(9) 0.90427(11)
C3_4 C 0.3613(3) 0.38101(10) 0.87120(12)
H5_4 H 0.3356 0.4026 0.8668
C4_4 C 0.3537(3) 0.35394(10) 0.84450(12)
H6_4 H 0.3225 0.3570 0.8219
C5_4 C 0.3914(2) 0.32162(9) 0.85006(12)
C6_4 C 0.4352(3) 0.31783(10) 0.88413(12)
H7_4 H 0.4604 0.2962 0.8890
C7_4 C 0.4422(3) 0.34540(9) 0.91095(12)
H8_4 H 0.4722 0.3425 0.9340
C8_4 C 0.3853(2) 0.29216(9) 0.82112(11)
C9_4 C 0.3205(2) 0.28813(8) 0.79815(9)
H9_4 H 0.2799 0.3042 0.8008
C10_4 C 0.3162(2) 0.26053(8) 0.77163(9)
C11_4 C 0.2500 0.2500 0.74511(12)
C12_4 C 0.2828(2) 0.21887(7) 0.72260(8)
C13_4 C 0.2485(2) 0.19822(8) 0.69404(9)
H10_4 H 0.1999 0.2039 0.6845
C14_4 C 0.2874(2) 0.16837(8) 0.67938(10)
C15_4 C 0.3582(2) 0.16076(9) 0.69412(10)
H11_4 H 0.3840 0.1407 0.6841
C16_4 C 0.3926(2) 0.18126(9) 0.72288(11)
H12_4 H 0.4409 0.1754 0.7328
C17_4 C 0.3540(2) 0.21073(8) 0.73679(9)
C18_4 C 0.3756(2) 0.23683(8) 0.76719(10)
C19_4 C 0.4390(2) 0.24055(10) 0.79026(11)
H13_4 H 0.4792 0.2242 0.7880
C20_4 C 0.4432(2) 0.26831(10) 0.81668(12)
H14_4 H 0.4872 0.2711 0.8323
C21_4 C 0.2513(2) 0.14461(8) 0.64997(10)
C22_4 C 0.2023(3) 0.15733(9) 0.62083(10)
H15_4 H 0.1910 0.1818 0.6198
C23_4 C 0.1704(3) 0.13465(9) 0.59367(11)
H16_4 H 0.1378 0.1437 0.5738
C24_4 C 0.1855(3) 0.09864(8) 0.59519(11)
C25_4 C 0.2328(3) 0.08572(9) 0.62356(12)
H17_4 H 0.2430 0.0611 0.6246
C26_4 C 0.2663(3) 0.10816(9) 0.65095(12)
H18_4 H 0.2993 0.0988 0.6704
C27_4 C 0.1469(2) 0.07358(9) 0.56718(11)
O10_4 O 0.03786(15) 0.09888(5) 0.96096(6)
O11_4 O 0.11534(17) 0.06426(6) 0.92531(8)
O12_4 O 0.34515(19) 0.45877(6) 0.57361(8)
C28_4 C 0.0825(2) 0.09281(8) 0.93228(10)
C29_4 C 0.0944(2) 0.12274(9) 0.90427(11)
C30_4 C 0.1387(3) 0.11899(10) 0.87120(12)
H19_4 H 0.1644 0.0974 0.8668
C31_4 C 0.1463(3) 0.14606(10) 0.84450(12)
H20_4 H 0.1775 0.1430 0.8219
C32_4 C 0.1086(2) 0.17838(9) 0.85006(12)
C33_4 C 0.0648(3) 0.18217(10) 0.88413(12)
H21_4 H 0.0396 0.2038 0.8890
C34_4 C 0.0578(3) 0.15460(9) 0.91095(12)
H22_4 H 0.0278 0.1575 0.9340
C35_4 C 0.1147(2) 0.20784(9) 0.82112(11)
C36_4 C 0.1795(2) 0.21187(8) 0.79815(9)
H23_4 H 0.2201 0.1958 0.8008
C37_4 C 0.1838(2) 0.23947(8) 0.77163(9)
C38_4 C 0.2172(2) 0.28113(7) 0.72260(8)
C39_4 C 0.2515(2) 0.30178(8) 0.69404(9)
H24_4 H 0.3001 0.2961 0.6845
C40_4 C 0.2126(2) 0.33163(8) 0.67938(10)
C41_4 C 0.1418(2) 0.33924(9) 0.69412(10)
H25_4 H 0.1160 0.3593 0.6841
C42_4 C 0.1074(2) 0.31874(9) 0.72288(11)
H26_4 H 0.0591 0.3246 0.7328
C43_4 C 0.1460(2) 0.28927(8) 0.73679(9)
C44_4 C 0.1244(2) 0.26317(8) 0.76719(10)
C45_4 C 0.0610(2) 0.25945(10) 0.79026(11)
H27_4 H 0.0208 0.2758 0.7880
C46_4 C 0.0568(2) 0.23169(10) 0.81668(12)
H28_4 H 0.0128 0.2289 0.8323
C47_4 C 0.2487(2) 0.35539(8) 0.64997(10)
C48_4 C 0.2977(3) 0.34267(9) 0.62083(10)
H29_4 H 0.3090 0.3182 0.6198
C49_4 C 0.3296(3) 0.36535(9) 0.59367(11)
H30_4 H 0.3622 0.3563 0.5738
C50_4 C 0.3145(3) 0.40136(8) 0.59519(11)
C51_4 C 0.2672(3) 0.41428(9) 0.62356(12)
H31_4 H 0.2570 0.4389 0.6246
C52_4 C 0.2337(3) 0.39184(9) 0.65095(12)
H32_4 H 0.2007 0.4012 0.6704
C53_4 C 0.3531(2) 0.42642(9) 0.56718(11)
O19_4 O 0.51225(19) 0.46879(8) 0.94705(11)
O1_4 O 0.1098(3) 0.02288(8) 0.5000
H2_3 H 0.077(3) 0.0112(7) 0.3694(11)
O14_3 O 0.01225(19) 0.03121(8) 0.44705(11)
O19_5 O 0.01225(19) 0.03121(8) 0.55295(11)
O23_3 O 0.15485(19) 0.04123(6) 0.42639(8)
O26_5 O 0.10799(15) 0.08721(5) 0.46044(6)
Zr2_3 Zr 0.09790(2) 0.99176(2) 0.44752(2)
O2_4 O 0.0871(3) 0.96074(10) 0.5000
O4_3 O 0.0895(2) 0.99248(8) 0.38275(7)
H1_3 H 0.094(3) 0.9788(9) 0.3623(8)
O5_3 O 0.21807(18) 0.98121(7) 0.44891(9)
H3_3 H 0.2642(10) 0.9869(11) 0.4429(12)
H4_3 H 0.229(2) 0.9662(9) 0.4670(9)
O21_3 O 0.11534(17) 0.93574(6) 0.42531(8)
Zr3_3 Zr 0.90210(2) 0.00824(2) 0.44752(2)
O15_3 O 0.9105(2) 0.00752(8) 0.38275(7)
H33_3 H 0.906(3) 0.0212(9) 0.3623(8)
O16_3 O 0.78193(18) 0.01879(7) 0.44891(9)
H35_3 H 0.7358(10) 0.0131(11) 0.4429(12)
H36_3 H 0.771(2) 0.0338(9) 0.4670(9)
O18_4 O 0.9129(3) 0.03926(10) 0.5000
O20_5 O 0.96214(15) 0.09888(5) 0.46096(6)
O22_3 O 0.88466(17) 0.06426(6) 0.42531(8)
O3_3 O 0.98775(19) 0.96879(8) 0.44705(11)
H34_3 H 0.923(3) 0.9888(7) 0.3694(11)
O17_4 O 0.8902(3) 0.97712(8) 0.5000
O24_3 O 0.84515(19) 0.95877(6) 0.42639(8)
O20_6 O 0.03786(15) 0.90112(5) 0.46096(6)
O19_6 O 0.98775(19) 0.96879(8) 0.55295(11)
O26_6 O 0.89201(15) 0.91279(5) 0.46044(6)
Zr3_4 Zr 0.09790(2) 0.00824(2) 0.05248(2)
O15_4 O 0.0895(2) 0.00752(8) 0.11725(7)
H33_4 H 0.094(3) 0.0212(9) 0.1377(8)
O16_4 O 0.21807(18) 0.01879(7) 0.05109(9)
H35_4 H 0.2642(10) 0.0131(11) 0.0571(12)
H36_4 H 0.229(2) 0.0338(9) 0.0330(9)
O18_5 O 0.0871(3) 0.03926(10) 0.0000
O20_7 O 0.03786(15) 0.09888(5) 0.03904(6)
O22_4 O 0.11534(17) 0.06426(6) 0.07469(8)
O18_6 O 0.0871(3) 0.03926(10) 1.0000
O3_4 O 0.01225(19) 0.96879(8) 0.05295(11)
H34_4 H 0.077(3) 0.9888(7) 0.1306(11)
O17_5 O 0.1098(3) 0.97712(8) 0.0000
O24_4 O 0.15485(19) 0.95877(6) 0.07361(8)
O17_6 O 0.1098(3) 0.97712(8) 1.0000
O1_5 O 0.8902(3) 0.02288(8) 0.0000
H2_4 H 0.923(3) 0.0112(7) 0.1306(11)
O14_4 O 0.98775(19) 0.03121(8) 0.05295(11)
O23_4 O 0.84515(19) 0.04123(6) 0.07361(8)
O26_7 O 0.89201(15) 0.08721(5) 0.03956(6)
O1_6 O 0.8902(3) 0.02288(8) 1.0000
O19_7 O 0.98775(19) 0.03121(8) 0.94705(11)
Zr2_4 Zr 0.90210(2) 0.99176(2) 0.05248(2)
O2_5 O 0.9129(3) 0.96074(10) 0.0000
O4_4 O 0.9105(2) 0.99248(8) 0.11725(7)
H1_4 H 0.906(3) 0.9788(9) 0.1377(8)
O5_4 O 0.78193(18) 0.98121(7) 0.05109(9)
H3_4 H 0.7358(10) 0.9869(11) 0.0571(12)
H4_4 H 0.771(2) 0.9662(9) 0.0330(9)
O21_4 O 0.88466(17) 0.93574(6) 0.07469(8)
O2_6 O 0.9129(3) 0.96074(10) 1.0000
O26_8 O 0.10799(15) 0.91279(5) 0.03956(6)
O19_8 O 0.01225(19) 0.96879(8) 0.94705(11)
O20_8 O 0.96214(15) 0.90112(5) 0.03904(6)
O4_5 O 0.4105(2) 0.50752(8) 0.61725(7)
H1_5 H 0.406(3) 0.5212(9) 0.6377(8)
H2_5 H 0.423(3) 0.4888(7) 0.6306(11)
O5_5 O 0.28193(18) 0.51879(7) 0.55109(9)
H3_5 H 0.2358(10) 0.5131(11) 0.5571(12)
H4_5 H 0.271(2) 0.5338(9) 0.5330(9)
C1_5 C 0.5825(2) 0.40719(8) 0.43228(10)
C2_5 C 0.5944(2) 0.37726(9) 0.40427(11)
C3_5 C 0.6387(3) 0.38101(10) 0.37120(12)
H5_5 H 0.6644 0.4026 0.3668
C4_5 C 0.6463(3) 0.35394(10) 0.34450(12)
H6_5 H 0.6775 0.3570 0.3219
C5_5 C 0.6086(2) 0.32162(9) 0.35006(12)
C6_5 C 0.5648(3) 0.31783(10) 0.38413(12)
H7_5 H 0.5396 0.2962 0.3890
C7_5 C 0.5578(3) 0.34540(9) 0.41095(12)
H8_5 H 0.5278 0.3425 0.4340
C8_5 C 0.6147(2) 0.29216(9) 0.32112(11)
C9_5 C 0.6795(2) 0.28813(8) 0.29815(9)
H9_5 H 0.7201 0.3042 0.3008
C10_5 C 0.6838(2) 0.26053(8) 0.27163(9)
C11_5 C 0.7500 0.2500 0.24511(12)
C12_5 C 0.7172(2) 0.21887(7) 0.22260(8)
C13_5 C 0.7515(2) 0.19822(8) 0.19404(9)
H10_5 H 0.8001 0.2039 0.1845
C14_5 C 0.7126(2) 0.16837(8) 0.17938(10)
C15_5 C 0.6418(2) 0.16076(9) 0.19412(10)
H11_5 H 0.6160 0.1407 0.1841
C16_5 C 0.6074(2) 0.18126(9) 0.22288(11)
H12_5 H 0.5591 0.1754 0.2328
C17_5 C 0.6460(2) 0.21073(8) 0.23679(9)
C18_5 C 0.6244(2) 0.23683(8) 0.26719(10)
C19_5 C 0.5610(2) 0.24055(10) 0.29026(11)
H13_5 H 0.5208 0.2242 0.2880
C20_5 C 0.5568(2) 0.26831(10) 0.31668(12)
H14_5 H 0.5128 0.2711 0.3323
C21_5 C 0.7487(2) 0.14461(8) 0.14997(10)
C22_5 C 0.7977(3) 0.15733(9) 0.12083(10)
H15_5 H 0.8090 0.1818 0.1198
C23_5 C 0.8296(3) 0.13465(9) 0.09367(11)
H16_5 H 0.8622 0.1437 0.0738
C24_5 C 0.8145(3) 0.09864(8) 0.09519(11)
C25_5 C 0.7672(3) 0.08572(9) 0.12356(12)
H17_5 H 0.7570 0.0611 0.1246
C26_5 C 0.7337(3) 0.10816(9) 0.15095(12)
H18_5 H 0.7007 0.0988 0.1704
C27_5 C 0.8531(2) 0.07358(9) 0.06718(11)
C28_5 C 0.9175(2) 0.09281(8) 0.43228(10)
C29_5 C 0.9056(2) 0.12274(9) 0.40427(11)
C30_5 C 0.8613(3) 0.11899(10) 0.37120(12)
H19_5 H 0.8356 0.0974 0.3668
C31_5 C 0.8537(3) 0.14606(10) 0.34450(12)
H20_5 H 0.8225 0.1430 0.3219
C32_5 C 0.8914(2) 0.17838(9) 0.35006(12)
C33_5 C 0.9352(3) 0.18217(10) 0.38413(12)
H21_5 H 0.9604 0.2038 0.3890
C34_5 C 0.9422(3) 0.15460(9) 0.41095(12)
H22_5 H 0.9722 0.1575 0.4340
C35_5 C 0.8853(2) 0.20784(9) 0.32112(11)
C36_5 C 0.8205(2) 0.21187(8) 0.29815(9)
H23_5 H 0.7799 0.1958 0.3008
C37_5 C 0.8162(2) 0.23947(8) 0.27163(9)
C38_5 C 0.7828(2) 0.28113(7) 0.22260(8)
C39_5 C 0.7485(2) 0.30178(8) 0.19404(9)
H24_5 H 0.6999 0.2961 0.1845
C40_5 C 0.7874(2) 0.33163(8) 0.17938(10)
C41_5 C 0.8582(2) 0.33924(9) 0.19412(10)
H25_5 H 0.8840 0.3593 0.1841
C42_5 C 0.8926(2) 0.31874(9) 0.22288(11)
H26_5 H 0.9409 0.3246 0.2328
C43_5 C 0.8540(2) 0.28927(8) 0.23679(9)
C44_5 C 0.8756(2) 0.26317(8) 0.26719(10)
C45_5 C 0.9390(2) 0.25945(10) 0.29026(11)
H27_5 H 0.9792 0.2758 0.2880
C46_5 C 0.9432(2) 0.23169(10) 0.31668(12)
H28_5 H 0.9872 0.2289 0.3323
C47_5 C 0.7513(2) 0.35539(8) 0.14997(10)
C48_5 C 0.7023(3) 0.34267(9) 0.12083(10)
H29_5 H 0.6910 0.3182 0.1198
C49_5 C 0.6704(3) 0.36535(9) 0.09367(11)
H30_5 H 0.6378 0.3563 0.0738
C50_5 C 0.6855(3) 0.40136(8) 0.09519(11)
C51_5 C 0.7328(3) 0.41428(9) 0.12356(12)
H31_5 H 0.7430 0.4389 0.1246
C52_5 C 0.7663(3) 0.39184(9) 0.15095(12)
H32_5 H 0.7993 0.4012 0.1704
C53_5 C 0.6469(2) 0.42642(9) 0.06718(11)
O15_5 O 0.5895(2) 0.49248(8) 0.61725(7)
H33_5 H 0.594(3) 0.4788(9) 0.6377(8)
H34_5 H 0.577(3) 0.5112(7) 0.6306(11)
O16_5 O 0.71807(18) 0.48121(7) 0.55109(9)
H35_5 H 0.7642(10) 0.4869(11) 0.5571(12)
H36_5 H 0.729(2) 0.4662(9) 0.5330(9)
C1_6 C 0.4175(2) 0.59281(8) 0.43228(10)
C2_6 C 0.4056(2) 0.62274(9) 0.40427(11)
C3_6 C 0.3613(3) 0.61899(10) 0.37120(12)
H5_6 H 0.3356 0.5974 0.3668
C4_6 C 0.3537(3) 0.64606(10) 0.34450(12)
H6_6 H 0.3225 0.6430 0.3219
C5_6 C 0.3914(2) 0.67838(9) 0.35006(12)
C6_6 C 0.4352(3) 0.68217(10) 0.38413(12)
H7_6 H 0.4604 0.7038 0.3890
C7_6 C 0.4422(3) 0.65460(9) 0.41095(12)
H8_6 H 0.4722 0.6575 0.4340
C8_6 C 0.3853(2) 0.70784(9) 0.32112(11)
C9_6 C 0.3205(2) 0.71187(8) 0.29815(9)
H9_6 H 0.2799 0.6958 0.3008
C10_6 C 0.3162(2) 0.73947(8) 0.27163(9)
C11_6 C 0.2500 0.7500 0.24511(12)
C12_6 C 0.2828(2) 0.78113(7) 0.22260(8)
C13_6 C 0.2485(2) 0.80178(8) 0.19404(9)
H10_6 H 0.1999 0.7961 0.1845
C14_6 C 0.2874(2) 0.83163(8) 0.17938(10)
C15_6 C 0.3582(2) 0.83924(9) 0.19412(10)
H11_6 H 0.3840 0.8593 0.1841
C16_6 C 0.3926(2) 0.81874(9) 0.22288(11)
H12_6 H 0.4409 0.8246 0.2328
C17_6 C 0.3540(2) 0.78927(8) 0.23679(9)
C18_6 C 0.3756(2) 0.76317(8) 0.26719(10)
C19_6 C 0.4390(2) 0.75945(10) 0.29026(11)
H13_6 H 0.4792 0.7758 0.2880
C20_6 C 0.4432(2) 0.73169(10) 0.31668(12)
H14_6 H 0.4872 0.7289 0.3323
C21_6 C 0.2513(2) 0.85539(8) 0.14997(10)
C22_6 C 0.2023(3) 0.84267(9) 0.12083(10)
H15_6 H 0.1910 0.8182 0.1198
C23_6 C 0.1704(3) 0.86535(9) 0.09367(11)
H16_6 H 0.1378 0.8563 0.0738
C24_6 C 0.1855(3) 0.90136(8) 0.09519(11)
C25_6 C 0.2328(3) 0.91428(9) 0.12356(12)
H17_6 H 0.2430 0.9389 0.1246
C26_6 C 0.2663(3) 0.89184(9) 0.15095(12)
H18_6 H 0.2993 0.9012 0.1704
C27_6 C 0.1469(2) 0.92642(9) 0.06718(11)
C28_6 C 0.0825(2) 0.90719(8) 0.43228(10)
C29_6 C 0.0944(2) 0.87726(9) 0.40427(11)
C30_6 C 0.1387(3) 0.88101(10) 0.37120(12)
H19_6 H 0.1644 0.9026 0.3668
C31_6 C 0.1463(3) 0.85394(10) 0.34450(12)
H20_6 H 0.1775 0.8570 0.3219
C32_6 C 0.1086(2) 0.82162(9) 0.35006(12)
C33_6 C 0.0648(3) 0.81783(10) 0.38413(12)
H21_6 H 0.0396 0.7962 0.3890
C34_6 C 0.0578(3) 0.84540(9) 0.41095(12)
H22_6 H 0.0278 0.8425 0.4340
C35_6 C 0.1147(2) 0.79216(9) 0.32112(11)
C36_6 C 0.1795(2) 0.78813(8) 0.29815(9)
H23_6 H 0.2201 0.8042 0.3008
C37_6 C 0.1838(2) 0.76053(8) 0.27163(9)
C38_6 C 0.2172(2) 0.71887(7) 0.22260(8)
C39_6 C 0.2515(2) 0.69822(8) 0.19404(9)
H24_6 H 0.3001 0.7039 0.1845
C40_6 C 0.2126(2) 0.66837(8) 0.17938(10)
C41_6 C 0.1418(2) 0.66076(9) 0.19412(10)
H25_6 H 0.1160 0.6407 0.1841
C42_6 C 0.1074(2) 0.68126(9) 0.22288(11)
H26_6 H 0.0591 0.6754 0.2328
C43_6 C 0.1460(2) 0.71073(8) 0.23679(9)
C44_6 C 0.1244(2) 0.73683(8) 0.26719(10)
C45_6 C 0.0610(2) 0.74055(10) 0.29026(11)
H27_6 H 0.0208 0.7242 0.2880
C46_6 C 0.0568(2) 0.76831(10) 0.31668(12)
H28_6 H 0.0128 0.7711 0.3323
C47_6 C 0.2487(2) 0.64461(8) 0.14997(10)
C48_6 C 0.2977(3) 0.65733(9) 0.12083(10)
H29_6 H 0.3090 0.6818 0.1198
C49_6 C 0.3296(3) 0.63465(9) 0.09367(11)
H30_6 H 0.3622 0.6437 0.0738
C50_6 C 0.3145(3) 0.59864(8) 0.09519(11)
C51_6 C 0.2672(3) 0.58572(9) 0.12356(12)
H31_6 H 0.2570 0.5611 0.1246
C52_6 C 0.2337(3) 0.60816(9) 0.15095(12)
H32_6 H 0.2007 0.5988 0.1704
C53_6 C 0.3531(2) 0.57358(9) 0.06718(11)
C1_7 C 0.4175(2) 0.40719(8) 0.06772(10)
C2_7 C 0.4056(2) 0.37726(9) 0.09573(11)
C3_7 C 0.3613(3) 0.38101(10) 0.12880(12)
H5_7 H 0.3356 0.4026 0.1332
C4_7 C 0.3537(3) 0.35394(10) 0.15550(12)
H6_7 H 0.3225 0.3570 0.1781
C5_7 C 0.3914(2) 0.32162(9) 0.14994(12)
C6_7 C 0.4352(3) 0.31783(10) 0.11587(12)
H7_7 H 0.4604 0.2962 0.1110
C7_7 C 0.4422(3) 0.34540(9) 0.08905(12)
H8_7 H 0.4722 0.3425 0.0660
C8_7 C 0.3853(2) 0.29216(9) 0.17888(11)
C9_7 C 0.3205(2) 0.28813(8) 0.20185(9)
H9_7 H 0.2799 0.3042 0.1992
C10_7 C 0.3162(2) 0.26053(8) 0.22837(9)
C11_7 C 0.2500 0.2500 0.25489(12)
C12_7 C 0.2828(2) 0.21887(7) 0.27740(8)
C13_7 C 0.2485(2) 0.19822(8) 0.30596(9)
H10_7 H 0.1999 0.2039 0.3155
C14_7 C 0.2874(2) 0.16837(8) 0.32062(10)
C15_7 C 0.3582(2) 0.16076(9) 0.30588(10)
H11_7 H 0.3840 0.1407 0.3159
C16_7 C 0.3926(2) 0.18126(9) 0.27712(11)
H12_7 H 0.4409 0.1754 0.2672
C17_7 C 0.3540(2) 0.21073(8) 0.26321(9)
C18_7 C 0.3756(2) 0.23683(8) 0.23281(10)
C19_7 C 0.4390(2) 0.24055(10) 0.20974(11)
H13_7 H 0.4792 0.2242 0.2120
C20_7 C 0.4432(2) 0.26831(10) 0.18332(12)
H14_7 H 0.4872 0.2711 0.1677
C21_7 C 0.2513(2) 0.14461(8) 0.35003(10)
C22_7 C 0.2023(3) 0.15733(9) 0.37917(10)
H15_7 H 0.1910 0.1818 0.3802
C23_7 C 0.1704(3) 0.13465(9) 0.40633(11)
H16_7 H 0.1378 0.1437 0.4262
C24_7 C 0.1855(3) 0.09864(8) 0.40481(11)
C25_7 C 0.2328(3) 0.08572(9) 0.37644(12)
H17_7 H 0.2430 0.0611 0.3754
C26_7 C 0.2663(3) 0.10816(9) 0.34905(12)
H18_7 H 0.2993 0.0988 0.3296
C27_7 C 0.1469(2) 0.07358(9) 0.43282(11)
C28_7 C 0.0825(2) 0.09281(8) 0.06772(10)
C29_7 C 0.0944(2) 0.12274(9) 0.09573(11)
C30_7 C 0.1387(3) 0.11899(10) 0.12880(12)
H19_7 H 0.1644 0.0974 0.1332
C31_7 C 0.1463(3) 0.14606(10) 0.15550(12)
H20_7 H 0.1775 0.1430 0.1781
C32_7 C 0.1086(2) 0.17838(9) 0.14994(12)
C33_7 C 0.0648(3) 0.18217(10) 0.11587(12)
H21_7 H 0.0396 0.2038 0.1110
C34_7 C 0.0578(3) 0.15460(9) 0.08905(12)
H22_7 H 0.0278 0.1575 0.0660
C35_7 C 0.1147(2) 0.20784(9) 0.17888(11)
C36_7 C 0.1795(2) 0.21187(8) 0.20185(9)
H23_7 H 0.2201 0.1958 0.1992
C37_7 C 0.1838(2) 0.23947(8) 0.22837(9)
C38_7 C 0.2172(2) 0.28113(7) 0.27740(8)
C39_7 C 0.2515(2) 0.30178(8) 0.30596(9)
H24_7 H 0.3001 0.2961 0.3155
C40_7 C 0.2126(2) 0.33163(8) 0.32062(10)
C41_7 C 0.1418(2) 0.33924(9) 0.30588(10)
H25_7 H 0.1160 0.3593 0.3159
C42_7 C 0.1074(2) 0.31874(9) 0.27712(11)
H26_7 H 0.0591 0.3246 0.2672
C43_7 C 0.1460(2) 0.28927(8) 0.26321(9)
C44_7 C 0.1244(2) 0.26317(8) 0.23281(10)
C45_7 C 0.0610(2) 0.25945(10) 0.20974(11)
H27_7 H 0.0208 0.2758 0.2120
C46_7 C 0.0568(2) 0.23169(10) 0.18332(12)
H28_7 H 0.0128 0.2289 0.1677
C47_7 C 0.2487(2) 0.35539(8) 0.35003(10)
C48_7 C 0.2977(3) 0.34267(9) 0.37917(10)
H29_7 H 0.3090 0.3182 0.3802
C49_7 C 0.3296(3) 0.36535(9) 0.40633(11)
H30_7 H 0.3622 0.3563 0.4262
C50_7 C 0.3145(3) 0.40136(8) 0.40481(11)
C51_7 C 0.2672(3) 0.41428(9) 0.37644(12)
H31_7 H 0.2570 0.4389 0.3754
C52_7 C 0.2337(3) 0.39184(9) 0.34905(12)
H32_7 H 0.2007 0.4012 0.3296
C53_7 C 0.3531(2) 0.42642(9) 0.43282(11)
O4_6 O 0.5895(2) 0.50752(8) 0.88275(7)
H1_6 H 0.594(3) 0.5212(9) 0.8623(8)
H2_6 H 0.577(3) 0.4888(7) 0.8694(11)
O5_6 O 0.71807(18) 0.51879(7) 0.94891(9)
H3_6 H 0.7642(10) 0.5131(11) 0.9429(12)
H4_6 H 0.729(2) 0.5338(9) 0.9670(9)
O15_6 O 0.4105(2) 0.49248(8) 0.88275(7)
H33_6 H 0.406(3) 0.4788(9) 0.8623(8)
H34_6 H 0.423(3) 0.5112(7) 0.8694(11)
O16_6 O 0.28193(18) 0.48121(7) 0.94891(9)
H35_6 H 0.2358(10) 0.4869(11) 0.9429(12)
H36_6 H 0.271(2) 0.4662(9) 0.9670(9)
C1_8 C 0.5825(2) 0.59281(8) 0.06772(10)
C2_8 C 0.5944(2) 0.62274(9) 0.09573(11)
C3_8 C 0.6387(3) 0.61899(10) 0.12880(12)
H5_8 H 0.6644 0.5974 0.1332
C4_8 C 0.6463(3) 0.64606(10) 0.15550(12)
H6_8 H 0.6775 0.6430 0.1781
C5_8 C 0.6086(2) 0.67838(9) 0.14994(12)
C6_8 C 0.5648(3) 0.68217(10) 0.11587(12)
H7_8 H 0.5396 0.7038 0.1110
C7_8 C 0.5578(3) 0.65460(9) 0.08905(12)
H8_8 H 0.5278 0.6575 0.0660
C8_8 C 0.6147(2) 0.70784(9) 0.17888(11)
C9_8 C 0.6795(2) 0.71187(8) 0.20185(9)
H9_8 H 0.7201 0.6958 0.1992
C10_8 C 0.6838(2) 0.73947(8) 0.22837(9)
C11_8 C 0.7500 0.7500 0.25489(12)
C12_8 C 0.7172(2) 0.78113(7) 0.27740(8)
C13_8 C 0.7515(2) 0.80178(8) 0.30596(9)
H10_8 H 0.8001 0.7961 0.3155
C14_8 C 0.7126(2) 0.83163(8) 0.32062(10)
C15_8 C 0.6418(2) 0.83924(9) 0.30588(10)
H11_8 H 0.6160 0.8593 0.3159
C16_8 C 0.6074(2) 0.81874(9) 0.27712(11)
H12_8 H 0.5591 0.8246 0.2672
C17_8 C 0.6460(2) 0.78927(8) 0.26321(9)
C18_8 C 0.6244(2) 0.76317(8) 0.23281(10)
C19_8 C 0.5610(2) 0.75945(10) 0.20974(11)
H13_8 H 0.5208 0.7758 0.2120
C20_8 C 0.5568(2) 0.73169(10) 0.18332(12)
H14_8 H 0.5128 0.7289 0.1677
C21_8 C 0.7487(2) 0.85539(8) 0.35003(10)
C22_8 C 0.7977(3) 0.84267(9) 0.37917(10)
H15_8 H 0.8090 0.8182 0.3802
C23_8 C 0.8296(3) 0.86535(9) 0.40633(11)
H16_8 H 0.8622 0.8563 0.4262
C24_8 C 0.8145(3) 0.90136(8) 0.40481(11)
C25_8 C 0.7672(3) 0.91428(9) 0.37644(12)
H17_8 H 0.7570 0.9389 0.3754
C26_8 C 0.7337(3) 0.89184(9) 0.34905(12)
H18_8 H 0.7007 0.9012 0.3296
C27_8 C 0.8531(2) 0.92642(9) 0.43282(11)
C28_8 C 0.9175(2) 0.90719(8) 0.06772(10)
C29_8 C 0.9056(2) 0.87726(9) 0.09573(11)
C30_8 C 0.8613(3) 0.88101(10) 0.12880(12)
H19_8 H 0.8356 0.9026 0.1332
C31_8 C 0.8537(3) 0.85394(10) 0.15550(12)
H20_8 H 0.8225 0.8570 0.1781
C32_8 C 0.8914(2) 0.82162(9) 0.14994(12)
C33_8 C 0.9352(3) 0.81783(10) 0.11587(12)
H21_8 H 0.9604 0.7962 0.1110
C34_8 C 0.9422(3) 0.84540(9) 0.08905(12)
H22_8 H 0.9722 0.8425 0.0660
C35_8 C 0.8853(2) 0.79216(9) 0.17888(11)
C36_8 C 0.8205(2) 0.78813(8) 0.20185(9)
H23_8 H 0.7799 0.8042 0.1992
C37_8 C 0.8162(2) 0.76053(8) 0.22837(9)
C38_8 C 0.7828(2) 0.71887(7) 0.27740(8)
C39_8 C 0.7485(2) 0.69822(8) 0.30596(9)
H24_8 H 0.6999 0.7039 0.3155
C40_8 C 0.7874(2) 0.66837(8) 0.32062(10)
C41_8 C 0.8582(2) 0.66076(9) 0.30588(10)
H25_8 H 0.8840 0.6407 0.3159
C42_8 C 0.8926(2) 0.68126(9) 0.27712(11)
H26_8 H 0.9409 0.6754 0.2672
C43_8 C 0.8540(2) 0.71073(8) 0.26321(9)
C44_8 C 0.8756(2) 0.73683(8) 0.23281(10)
C45_8 C 0.9390(2) 0.74055(10) 0.20974(11)
H27_8 H 0.9792 0.7242 0.2120
C46_8 C 0.9432(2) 0.76831(10) 0.18332(12)
H28_8 H 0.9872 0.7711 0.1677
C47_8 C 0.7513(2) 0.64461(8) 0.35003(10)
C48_8 C 0.7023(3) 0.65733(9) 0.37917(10)
H29_8 H 0.6910 0.6818 0.3802
C49_8 C 0.6704(3) 0.63465(9) 0.40633(11)
H30_8 H 0.6378 0.6437 0.4262
C50_8 C 0.6855(3) 0.59864(8) 0.40481(11)
C51_8 C 0.7328(3) 0.58572(9) 0.37644(12)
H31_8 H 0.7430 0.5611 0.3754
C52_8 C 0.7663(3) 0.60816(9) 0.34905(12)
H32_8 H 0.7993 0.5988 0.3296
C53_8 C 0.6469(2) 0.57358(9) 0.43282(11)
H34_7 H 0.077(3) 0.0112(7) 0.6306(11)
O15_7 O 0.0895(2) 0.99248(8) 0.61725(7)
H33_7 H 0.094(3) 0.9788(9) 0.6377(8)
O16_7 O 0.21807(18) 0.98121(7) 0.55109(9)
H35_7 H 0.2642(10) 0.9869(11) 0.5571(12)
H36_7 H 0.229(2) 0.9662(9) 0.5330(9)
O4_7 O 0.9105(2) 0.00752(8) 0.61725(7)
H1_7 H 0.906(3) 0.0212(9) 0.6377(8)
O5_7 O 0.78193(18) 0.01879(7) 0.55109(9)
H3_7 H 0.7358(10) 0.0131(11) 0.5571(12)
H4_7 H 0.771(2) 0.0338(9) 0.5330(9)
H2_7 H 0.923(3) 0.9888(7) 0.6306(11)
O4_8 O 0.0895(2) 0.00752(8) 0.88275(7)
H1_8 H 0.094(3) 0.0212(9) 0.8623(8)
O5_8 O 0.21807(18) 0.01879(7) 0.94891(9)
H3_8 H 0.2642(10) 0.0131(11) 0.9429(12)
H4_8 H 0.229(2) 0.0338(9) 0.9670(9)
H2_8 H 0.077(3) 0.9888(7) 0.8694(11)
H34_8 H 0.923(3) 0.0112(7) 0.8694(11)
O15_8 O 0.9105(2) 0.99248(8) 0.88275(7)
H33_8 H 0.906(3) 0.9788(9) 0.8623(8)
O16_8 O 0.78193(18) 0.98121(7) 0.94891(9)
H35_8 H 0.7358(10) 0.9869(11) 0.9429(12)
H36_8 H 0.771(2) 0.9662(9) 0.9670(9)
loop_
_geom_bond_atom_site_label_1
_geom_bond_atom_site_label_2
_geom_bond_site_symmetry_1
_geom_bond_site_symmetry_2
Zr1 O1 1_555 1_555
Zr2 O1 1_555 1_555
O1 Zr9 1_555 1_555
O2 Zr2 1_555 1_555
O3 Zr2 1_555 1_555
O4 Zr2 1_555 1_555
H1 O4 1_555 1_555
H2 O4 1_555 1_555
O5 Zr2 1_555 1_555
H3 O5 1_555 1_555
H4 O5 1_555 1_555
O6 Zr1 1_555 1_555
O7 C1 1_555 1_555
O8 C27 1_555 1_555
O9 C27 1_555 1_555
C1 O6 1_555 1_555
C2 C1 1_555 1_555
C3 C2 1_555 1_555
H5 C3 1_555 1_555
C4 C3 1_555 1_555
H6 C4 1_555 1_555
C5 C4 1_555 1_555
C6 C5 1_555 1_555
H7 C6 1_555 1_555
C7 C2 1_555 1_555
H8 C7 1_555 1_555
C8 C5 1_555 1_555
C9 C8 1_555 1_555
H9 C9 1_555 1_555
C10 C9 1_555 1_555
C11 C10 1_555 1_555
C12 C11 1_555 1_555
C13 C12 1_555 1_555
H10 C13 1_555 1_555
C14 C13 1_555 1_555
C15 C14 1_555 1_555
H11 C15 1_555 1_555
C16 C15 1_555 1_555
H12 C16 1_555 1_555
C17 C12 1_555 1_555
C18 C10 1_555 1_555
C19 C18 1_555 1_555
H13 C19 1_555 1_555
C20 C8 1_555 1_555
H14 C20 1_555 1_555
C21 C14 1_555 1_555
C22 C21 1_555 1_555
H15 C22 1_555 1_555
C23 C22 1_555 1_555
H16 C23 1_555 1_555
C24 C23 1_555 1_555
C25 C24 1_555 1_555
H17 C25 1_555 1_555
C26 C21 1_555 1_555
H18 C26 1_555 1_555
C27 C24 1_555 1_555
O10 C28 1_555 1_555
O11 C28 1_555 1_555
O12 C53 1_555 1_555
O13 C53 1_555 1_555
C28 C29 1_555 1_555
C29 C30 1_555 1_555
C30 H19 1_555 1_555
C31 C30 1_555 1_555
H20 C31 1_555 1_555
C32 C31 1_555 1_555
C33 C32 1_555 1_555
H21 C33 1_555 1_555
C34 C29 1_555 1_555
H22 C34 1_555 1_555
C35 C32 1_555 1_555
C36 C35 1_555 1_555
H23 C36 1_555 1_555
C37 C11 1_555 1_555
C38 C11 1_555 1_555
C39 C38 1_555 1_555
H24 C39 1_555 1_555
C40 C39 1_555 1_555
C41 C40 1_555 1_555
H25 C41 1_555 1_555
C42 C41 1_555 1_555
H26 C42 1_555 1_555
C43 C38 1_555 1_555
C44 C37 1_555 1_555
C45 C44 1_555 1_555
H27 C45 1_555 1_555
C46 C35 1_555 1_555
H28 C46 1_555 1_555
C47 C40 1_555 1_555
C48 C47 1_555 1_555
H29 C48 1_555 1_555
C49 C48 1_555 1_555
H30 C49 1_555 1_555
C50 C49 1_555 1_555
C51 C50 1_555 1_555
H31 C51 1_555 1_555
C52 C47 1_555 1_555
H32 C52 1_555 1_555
C53 C50 1_555 1_555
Zr3 O3 1_555 1_555
O14 Zr1 1_555 1_555
O15 Zr3 1_555 1_555
H33 O15 1_555 1_555
H34 O15 1_555 1_555
O16 Zr3 1_555 1_555
H35 O16 1_555 1_555
H36 O16 1_555 1_555
Zr4 O2 1_555 1_555
Zr5_2 O13 1_555 1_555
Zr7_2 O9 1_555 1_555
Zr8 O7 1_555 1_555
Zr9 O2 1_555 1_555
Zr10 O12 1_555 1_555
Zr11 O11 1_555 1_555
O17 Zr3 1_555 1_555
O18 Zr1 1_555 1_555
O19 Zr1 1_555 1_555
O20 Zr1 1_555 1_555
O21 Zr2 1_555 1_555
O22 Zr3 1_555 1_555
O23 Zr2 1_555 1_555
O24 Zr3 1_555 1_555
O25 Zr1 1_555 1_555
O26 Zr1 1_555 1_555
Zr2 O14 1_555 1_555
O3 Zr4 1_555 1_555
C6 C7 1_555 1_555
C16 C17 1_555 1_555
C17 C18 1_555 1_555
C19 C20 1_555 1_555
C25 C26 1_555 1_555
C33 C34 1_555 1_555
C36 C37 1_555 1_555
C42 C43 1_555 1_555
C43 C44 1_555 1_555
C45 C46 1_555 1_555
C51 C52 1_555 1_555
Zr3 O14 1_555 1_555
Zr3 O18 1_555 1_555
Zr4 O17 1_555 1_555
Zr8 O17 1_555 1_555
Zr8 O18 1_555 1_555
Zr8 O19 1_555 1_555
Zr9 O19 1_555 1_555
O6_2 Zr4 1_555 1_555
O7_2 C1_2 1_555 1_555
O8_2 C27_2 1_555 1_555
O9_2 C27_2 1_555 1_555
C1_2 O6_2 1_555 1_555
C2_2 C1_2 1_555 1_555
C3_2 C2_2 1_555 1_555
H5_2 C3_2 1_555 1_555
C4_2 C3_2 1_555 1_555
H6_2 C4_2 1_555 1_555
C5_2 C4_2 1_555 1_555
C6_2 C5_2 1_555 1_555
H7_2 C6_2 1_555 1_555
C7_2 C2_2 1_555 1_555
H8_2 C7_2 1_555 1_555
C8_2 C5_2 1_555 1_555
C9_2 C8_2 1_555 1_555
H9_2 C9_2 1_555 1_555
C10_2 C9_2 1_555 1_555
C11_2 C10_2 1_555 1_555
C12_2 C11_2 1_555 1_555
C13_2 C12_2 1_555 1_555
H10_2 C13_2 1_555 1_555
C14_2 C13_2 1_555 1_555
C15_2 C14_2 1_555 1_555
H11_2 C15_2 1_555 1_555
C16_2 C15_2 1_555 1_555
H12_2 C16_2 1_555 1_555
C17_2 C12_2 1_555 1_555
C18_2 C10_2 1_555 1_555
C19_2 C18_2 1_555 1_555
H13_2 C19_2 1_555 1_555
C20_2 C8_2 1_555 1_555
H14_2 C20_2 1_555 1_555
C21_2 C14_2 1_555 1_555
C22_2 C21_2 1_555 1_555
H15_2 C22_2 1_555 1_555
C23_2 C22_2 1_555 1_555
H16_2 C23_2 1_555 1_555
C24_2 C23_2 1_555 1_555
C25_2 C24_2 1_555 1_555
H17_2 C25_2 1_555 1_555
C26_2 C21_2 1_555 1_555
H18_2 C26_2 1_555 1_555
C27_2 C24_2 1_555 1_555
O10_2 C28_2 1_555 1_555
O11_2 C28_2 1_555 1_555
O12_2 C53_2 1_555 1_555
O13_2 C53_2 1_555 1_555
C28_2 C29_2 1_555 1_555
C29_2 C30_2 1_555 1_555
C30_2 H19_2 1_555 1_555
C31_2 C30_2 1_555 1_555
H20_2 C31_2 1_555 1_555
C32_2 C31_2 1_555 1_555
C33_2 C32_2 1_555 1_555
H21_2 C33_2 1_555 1_555
C34_2 C29_2 1_555 1_555
H22_2 C34_2 1_555 1_555
C35_2 C32_2 1_555 1_555
C36_2 C35_2 1_555 1_555
H23_2 C36_2 1_555 1_555
C37_2 C11_2 1_555 1_555
C38_2 C11_2 1_555 1_555
C39_2 C38_2 1_555 1_555
H24_2 C39_2 1_555 1_555
C40_2 C39_2 1_555 1_555
C41_2 C40_2 1_555 1_555
H25_2 C41_2 1_555 1_555
C42_2 C41_2 1_555 1_555
H26_2 C42_2 1_555 1_555
C43_2 C38_2 1_555 1_555
C44_2 C37_2 1_555 1_555
C45_2 C44_2 1_555 1_555
H27_2 C45_2 1_555 1_555
C46_2 C35_2 1_555 1_555
H28_2 C46_2 1_555 1_555
C47_2 C40_2 1_555 1_555
C48_2 C47_2 1_555 1_555
H29_2 C48_2 1_555 1_555
C49_2 C48_2 1_555 1_555
H30_2 C49_2 1_555 1_555
C50_2 C49_2 1_555 1_555
C51_2 C50_2 1_555 1_555
H31_2 C51_2 1_555 1_555
C52_2 C47_2 1_555 1_555
H32_2 C52_2 1_555 1_555
C53_2 C50_2 1_555 1_555
Zr5_4 O13_2 1_555 1_555
Zr7_4 O9_2 1_555 1_555
Zr9 O7_2 1_555 1_555
Zr10_2 O12_2 1_555 1_555
Zr11_2 O11_2 1_555 1_555
O19_2 Zr4 1_555 1_555
O20_2 Zr4 1_555 1_555
O25_2 Zr4 1_555 1_555
O26_2 Zr4 1_555 1_555
C6_2 C7_2 1_555 1_555
C16_2 C17_2 1_555 1_555
C17_2 C18_2 1_555 1_555
C19_2 C20_2 1_555 1_555
C25_2 C26_2 1_555 1_555
C33_2 C34_2 1_555 1_555
C36_2 C37_2 1_555 1_555
C42_2 C43_2 1_555 1_555
C43_2 C44_2 1_555 1_555
C45_2 C46_2 1_555 1_555
C51_2 C52_2 1_555 1_555
Zr9 O19_2 1_555 1_555
Zr8 O19_2 1_555 1_555
Zr5 O1_2 1_555 1_555
Zr2_2 O1_2 1_555 1_555
O2_2 Zr2_2 1_555 1_555
O3_2 Zr2_2 1_555 1_555
O4_2 Zr2_2 1_555 1_555
H1_2 O4_2 1_555 1_555
H2_2 O4_2 1_555 1_555
O5_2 Zr2_2 1_555 1_555
H3_2 O5_2 1_555 1_555
H4_2 O5_2 1_555 1_555
Zr3_2 O3_2 1_555 1_555
O14_2 Zr5 1_555 1_555
O15_2 Zr3_2 1_555 1_555
H33_2 O15_2 1_555 1_555
H34_2 O15_2 1_555 1_555
O16_2 Zr3_2 1_555 1_555
H35_2 O16_2 1_555 1_555
H36_2 O16_2 1_555 1_555
Zr5_3 O2_2 1_555 1_555
O17_2 Zr3_2 1_555 1_555
O18_2 Zr5 1_555 1_555
O20_3 Zr5 1_555 1_555
O21_2 Zr2_2 1_555 1_555
O22_2 Zr3_2 1_555 1_555
O23_2 Zr2_2 1_555 1_555
O24_2 Zr3_2 1_555 1_555
O26_3 Zr5 1_555 1_555
Zr2_2 O14_2 1_555 1_555
O3_2 Zr5_3 1_555 1_555
Zr3_2 O14_2 1_555 1_555
Zr3_2 O18_2 1_555 1_555
Zr5_3 O17_2 1_555 1_555
Zr5_2 O1_3 1_555 1_555
O1_3 Zr10 1_555 1_555
O6_3 Zr5_2 1_555 1_555
O7_3 C1_3 1_555 1_555
O8_3 C27_3 1_555 1_555
O9_3 C27_3 1_555 1_555
C1_3 O6_3 1_555 1_555
C2_3 C1_3 1_555 1_555
C3_3 C2_3 1_555 1_555
H5_3 C3_3 1_555 1_555
C4_3 C3_3 1_555 1_555
H6_3 C4_3 1_555 1_555
C5_3 C4_3 1_555 1_555
C6_3 C5_3 1_555 1_555
H7_3 C6_3 1_555 1_555
C7_3 C2_3 1_555 1_555
H8_3 C7_3 1_555 1_555
C8_3 C5_3 1_555 1_555
C9_3 C8_3 1_555 1_555
H9_3 C9_3 1_555 1_555
C10_3 C9_3 1_555 1_555
C11_3 C10_3 1_555 1_555
C12_3 C11_3 1_555 1_555
C13_3 C12_3 1_555 1_555
H10_3 C13_3 1_555 1_555
C14_3 C13_3 1_555 1_555
C15_3 C14_3 1_555 1_555
H11_3 C15_3 1_555 1_555
C16_3 C15_3 1_555 1_555
H12_3 C16_3 1_555 1_555
C17_3 C12_3 1_555 1_555
C18_3 C10_3 1_555 1_555
C19_3 C18_3 1_555 1_555
H13_3 C19_3 1_555 1_555
C20_3 C8_3 1_555 1_555
H14_3 C20_3 1_555 1_555
C21_3 C14_3 1_555 1_555
C22_3 C21_3 1_555 1_555
H15_3 C22_3 1_555 1_555
C23_3 C22_3 1_555 1_555
H16_3 C23_3 1_555 1_555
C24_3 C23_3 1_555 1_555
C25_3 C24_3 1_555 1_555
H17_3 C25_3 1_555 1_555
C26_3 C21_3 1_555 1_555
H18_3 C26_3 1_555 1_555
C27_3 C24_3 1_555 1_555
O10_3 C28_3 1_555 1_555
O11_3 C28_3 1_555 1_555
O12_3 C53_3 1_555 1_555
O25 C53_3 1_555 1_555
C28_3 C29_3 1_555 1_555
C29_3 C30_3 1_555 1_555
C30_3 H19_3 1_555 1_555
C31_3 C30_3 1_555 1_555
H20_3 C31_3 1_555 1_555
C32_3 C31_3 1_555 1_555
C33_3 C32_3 1_555 1_555
H21_3 C33_3 1_555 1_555
C34_3 C29_3 1_555 1_555
H22_3 C34_3 1_555 1_555
C35_3 C32_3 1_555 1_555
C36_3 C35_3 1_555 1_555
H23_3 C36_3 1_555 1_555
C37_3 C11_3 1_555 1_555
C38_3 C11_3 1_555 1_555
C39_3 C38_3 1_555 1_555
H24_3 C39_3 1_555 1_555
C40_3 C39_3 1_555 1_555
C41_3 C40_3 1_555 1_555
H25_3 C41_3 1_555 1_555
C42_3 C41_3 1_555 1_555
H26_3 C42_3 1_555 1_555
C43_3 C38_3 1_555 1_555
C44_3 C37_3 1_555 1_555
C45_3 C44_3 1_555 1_555
H27_3 C45_3 1_555 1_555
C46_3 C35_3 1_555 1_555
H28_3 C46_3 1_555 1_555
C47_3 C40_3 1_555 1_555
C48_3 C47_3 1_555 1_555
H29_3 C48_3 1_555 1_555
C49_3 C48_3 1_555 1_555
H30_3 C49_3 1_555 1_555
C50_3 C49_3 1_555 1_555
C51_3 C50_3 1_555 1_555
H31_3 C51_3 1_555 1_555
C52_3 C47_3 1_555 1_555
H32_3 C52_3 1_555 1_555
C53_3 C50_3 1_555 1_555
Zr5_4 O2_3 1_555 1_555
Zr6 O9_3 1_555 1_555
Zr10_2 O7_3 1_555 1_555
Zr10 O2_3 1_555 1_555
Zr9 O12_3 1_555 1_555
Zr12_2 O11_3 1_555 1_555
O18_3 Zr5_2 1_555 1_555
O19_3 Zr5_2 1_555 1_555
C6_3 C7_3 1_555 1_555
C16_3 C17_3 1_555 1_555
C17_3 C18_3 1_555 1_555
C19_3 C20_3 1_555 1_555
C25_3 C26_3 1_555 1_555
C33_3 C34_3 1_555 1_555
C36_3 C37_3 1_555 1_555
C42_3 C43_3 1_555 1_555
C43_3 C44_3 1_555 1_555
C45_3 C46_3 1_555 1_555
C51_3 C52_3 1_555 1_555
Zr5_4 O17_3 1_555 1_555
Zr10_2 O17_3 1_555 1_555
Zr10_2 O18_3 1_555 1_555
Zr10_2 O19_3 1_555 1_555
Zr10 O19_3 1_555 1_555
O20_4 Zr5_3 1_555 1_555
O26_4 Zr5_3 1_555 1_555
O6_4 Zr5_4 1_555 1_555
O7_4 C1_4 1_555 1_555
O8_4 C27_4 1_555 1_555
O9_4 C27_4 1_555 1_555
C1_4 O6_4 1_555 1_555
C2_4 C1_4 1_555 1_555
C3_4 C2_4 1_555 1_555
H5_4 C3_4 1_555 1_555
C4_4 C3_4 1_555 1_555
H6_4 C4_4 1_555 1_555
C5_4 C4_4 1_555 1_555
C6_4 C5_4 1_555 1_555
H7_4 C6_4 1_555 1_555
C7_4 C2_4 1_555 1_555
H8_4 C7_4 1_555 1_555
C8_4 C5_4 1_555 1_555
C9_4 C8_4 1_555 1_555
H9_4 C9_4 1_555 1_555
C10_4 C9_4 1_555 1_555
C11_4 C10_4 1_555 1_555
C12_4 C11_4 1_555 1_555
C13_4 C12_4 1_555 1_555
H10_4 C13_4 1_555 1_555
C14_4 C13_4 1_555 1_555
C15_4 C14_4 1_555 1_555
H11_4 C15_4 1_555 1_555
C16_4 C15_4 1_555 1_555
H12_4 C16_4 1_555 1_555
C17_4 C12_4 1_555 1_555
C18_4 C10_4 1_555 1_555
C19_4 C18_4 1_555 1_555
H13_4 C19_4 1_555 1_555
C20_4 C8_4 1_555 1_555
H14_4 C20_4 1_555 1_555
C21_4 C14_4 1_555 1_555
C22_4 C21_4 1_555 1_555
H15_4 C22_4 1_555 1_555
C23_4 C22_4 1_555 1_555
H16_4 C23_4 1_555 1_555
C24_4 C23_4 1_555 1_555
C25_4 C24_4 1_555 1_555
H17_4 C25_4 1_555 1_555
C26_4 C21_4 1_555 1_555
H18_4 C26_4 1_555 1_555
C27_4 C24_4 1_555 1_555
O10_4 C28_4 1_555 1_555
O11_4 C28_4 1_555 1_555
O12_4 C53_4 1_555 1_555
O25_2 C53_4 1_555 1_555
C28_4 C29_4 1_555 1_555
C29_4 C30_4 1_555 1_555
C30_4 H19_4 1_555 1_555
C31_4 C30_4 1_555 1_555
H20_4 C31_4 1_555 1_555
C32_4 C31_4 1_555 1_555
C33_4 C32_4 1_555 1_555
H21_4 C33_4 1_555 1_555
C34_4 C29_4 1_555 1_555
H22_4 C34_4 1_555 1_555
C35_4 C32_4 1_555 1_555
C36_4 C35_4 1_555 1_555
H23_4 C36_4 1_555 1_555
C37_4 C11_4 1_555 1_555
C38_4 C11_4 1_555 1_555
C39_4 C38_4 1_555 1_555
H24_4 C39_4 1_555 1_555
C40_4 C39_4 1_555 1_555
C41_4 C40_4 1_555 1_555
H25_4 C41_4 1_555 1_555
C42_4 C41_4 1_555 1_555
H26_4 C42_4 1_555 1_555
C43_4 C38_4 1_555 1_555
C44_4 C37_4 1_555 1_555
C45_4 C44_4 1_555 1_555
H27_4 C45_4 1_555 1_555
C46_4 C35_4 1_555 1_555
H28_4 C46_4 1_555 1_555
C47_4 C40_4 1_555 1_555
C48_4 C47_4 1_555 1_555
H29_4 C48_4 1_555 1_555
C49_4 C48_4 1_555 1_555
H30_4 C49_4 1_555 1_555
C50_4 C49_4 1_555 1_555
C51_4 C50_4 1_555 1_555
H31_4 C51_4 1_555 1_555
C52_4 C47_4 1_555 1_555
H32_4 C52_4 1_555 1_555
C53_4 C50_4 1_555 1_555
Zr6_2 O9_4 1_555 1_555
Zr10 O7_4 1_555 1_555
Zr8 O12_4 1_555 1_555
Zr12 O11_4 1_555 1_555
O19_4 Zr5_4 1_555 1_555
C6_4 C7_4 1_555 1_555
C16_4 C17_4 1_555 1_555
C17_4 C18_4 1_555 1_555
C19_4 C20_4 1_555 1_555
C25_4 C26_4 1_555 1_555
C33_4 C34_4 1_555 1_555
C36_4 C37_4 1_555 1_555
C42_4 C43_4 1_555 1_555
C43_4 C44_4 1_555 1_555
C45_4 C46_4 1_555 1_555
C51_4 C52_4 1_555 1_555
Zr10 O19_4 1_555 1_555
Zr10_2 O19_4 1_555 1_555
Zr6_2 O1_4 1_555 1_555
O14_3 Zr6_2 1_555 1_555
O19_5 Zr6_2 1_555 1_555
O26_5 Zr6_2 1_555 1_555
O2_4 Zr2_3 1_555 1_555
O4_3 Zr2_3 1_555 1_555
H1_3 O4_3 1_555 1_555
O5_3 Zr2_3 1_555 1_555
H3_3 O5_3 1_555 1_555
H4_3 O5_3 1_555 1_555
Zr11 O2_4 1_555 1_555
O21_3 Zr2_3 1_555 1_555
O15_3 Zr3_3 1_555 1_555
H33_3 O15_3 1_555 1_555
O16_3 Zr3_3 1_555 1_555
H35_3 O16_3 1_555 1_555
H36_3 O16_3 1_555 1_555
O22_3 Zr3_3 1_555 1_555
Zr3_3 O18_4 1_555 1_555
Zr11_2 O18_4 1_555 1_555
O3_3 Zr6 1_555 1_555
Zr6 O17_4 1_555 1_555
O19_6 Zr6 1_555 1_555
O26_6 Zr6 1_555 1_555
O15_4 Zr3_4 1_555 1_555
H33_4 O15_4 1_555 1_555
O16_4 Zr3_4 1_555 1_555
H35_4 O16_4 1_555 1_555
H36_4 O16_4 1_555 1_555
O22_4 Zr3_4 1_555 1_555
Zr3_4 O18_5 1_555 1_555
Zr12 O18_6 1_555 1_555
O3_4 Zr7 1_555 1_555
Zr7 O17_5 1_555 1_555
Zr7_2 O17_6 1_555 1_555
Zr7_3 O1_5 1_555 1_555
O14_4 Zr7_3 1_555 1_555
O26_7 Zr7_3 1_555 1_555
Zr7_4 O1_6 1_555 1_555
O19_7 Zr7_4 1_555 1_555
O2_5 Zr2_4 1_555 1_555
O4_4 Zr2_4 1_555 1_555
H1_4 O4_4 1_555 1_555
O5_4 Zr2_4 1_555 1_555
H3_4 O5_4 1_555 1_555
H4_4 O5_4 1_555 1_555
O21_4 Zr2_4 1_555 1_555
Zr12_2 O2_6 1_555 1_555
O26_8 Zr7 1_555 1_555
O19_8 Zr7_2 1_555 1_555
O4_5 Zr8 1_555 1_555
H1_5 O4_5 1_555 1_555
H2_5 O4_5 1_555 1_555
O5_5 Zr8 1_555 1_555
H3_5 O5_5 1_555 1_555
H4_5 O5_5 1_555 1_555
O21 C1_5 1_555 1_555
O23_4 C27_5 1_555 1_555
O26_7 C27_5 1_555 1_555
C1_5 O20_2 1_555 1_555
C2_5 C1_5 1_555 1_555
C3_5 C2_5 1_555 1_555
H5_5 C3_5 1_555 1_555
C4_5 C3_5 1_555 1_555
H6_5 C4_5 1_555 1_555
C5_5 C4_5 1_555 1_555
C6_5 C5_5 1_555 1_555
H7_5 C6_5 1_555 1_555
C7_5 C2_5 1_555 1_555
H8_5 C7_5 1_555 1_555
C8_5 C5_5 1_555 1_555
C9_5 C8_5 1_555 1_555
H9_5 C9_5 1_555 1_555
C10_5 C9_5 1_555 1_555
C11_5 C10_5 1_555 1_555
C12_5 C11_5 1_555 1_555
C13_5 C12_5 1_555 1_555
H10_5 C13_5 1_555 1_555
C14_5 C13_5 1_555 1_555
C15_5 C14_5 1_555 1_555
H11_5 C15_5 1_555 1_555
C16_5 C15_5 1_555 1_555
H12_5 C16_5 1_555 1_555
C17_5 C12_5 1_555 1_555
C18_5 C10_5 1_555 1_555
C19_5 C18_5 1_555 1_555
H13_5 C19_5 1_555 1_555
C20_5 C8_5 1_555 1_555
H14_5 C20_5 1_555 1_555
C21_5 C14_5 1_555 1_555
C22_5 C21_5 1_555 1_555
H15_5 C22_5 1_555 1_555
C23_5 C22_5 1_555 1_555
H16_5 C23_5 1_555 1_555
C24_5 C23_5 1_555 1_555
C25_5 C24_5 1_555 1_555
H17_5 C25_5 1_555 1_555
C26_5 C21_5 1_555 1_555
H18_5 C26_5 1_555 1_555
C27_5 C24_5 1_555 1_555
O20_5 C28_5 1_555 1_555
O22_3 C28_5 1_555 1_555
O24_2 C53_5 1_555 1_555
O26_4 C53_5 1_555 1_555
C28_5 C29_5 1_555 1_555
C29_5 C30_5 1_555 1_555
C30_5 H19_5 1_555 1_555
C31_5 C30_5 1_555 1_555
H20_5 C31_5 1_555 1_555
C32_5 C31_5 1_555 1_555
C33_5 C32_5 1_555 1_555
H21_5 C33_5 1_555 1_555
C34_5 C29_5 1_555 1_555
H22_5 C34_5 1_555 1_555
C35_5 C32_5 1_555 1_555
C36_5 C35_5 1_555 1_555
H23_5 C36_5 1_555 1_555
C37_5 C11_5 1_555 1_555
C38_5 C11_5 1_555 1_555
C39_5 C38_5 1_555 1_555
H24_5 C39_5 1_555 1_555
C40_5 C39_5 1_555 1_555
C41_5 C40_5 1_555 1_555
H25_5 C41_5 1_555 1_555
C42_5 C41_5 1_555 1_555
H26_5 C42_5 1_555 1_555
C43_5 C38_5 1_555 1_555
C44_5 C37_5 1_555 1_555
C45_5 C44_5 1_555 1_555
H27_5 C45_5 1_555 1_555
C46_5 C35_5 1_555 1_555
H28_5 C46_5 1_555 1_555
C47_5 C40_5 1_555 1_555
C48_5 C47_5 1_555 1_555
H29_5 C48_5 1_555 1_555
C49_5 C48_5 1_555 1_555
H30_5 C49_5 1_555 1_555
C50_5 C49_5 1_555 1_555
C51_5 C50_5 1_555 1_555
H31_5 C51_5 1_555 1_555
C52_5 C47_5 1_555 1_555
H32_5 C52_5 1_555 1_555
C53_5 C50_5 1_555 1_555
O15_5 Zr9 1_555 1_555
H33_5 O15_5 1_555 1_555
H34_5 O15_5 1_555 1_555
O16_5 Zr9 1_555 1_555
H35_5 O16_5 1_555 1_555
H36_5 O16_5 1_555 1_555
C6_5 C7_5 1_555 1_555
C16_5 C17_5 1_555 1_555
C17_5 C18_5 1_555 1_555
C19_5 C20_5 1_555 1_555
C25_5 C26_5 1_555 1_555
C33_5 C34_5 1_555 1_555
C36_5 C37_5 1_555 1_555
C42_5 C43_5 1_555 1_555
C43_5 C44_5 1_555 1_555
C45_5 C46_5 1_555 1_555
C51_5 C52_5 1_555 1_555
O22 C1_6 1_555 1_555
O24_4 C27_6 1_555 1_555
O26_8 C27_6 1_555 1_555
C1_6 O20 1_555 1_555
C2_6 C1_6 1_555 1_555
C3_6 C2_6 1_555 1_555
H5_6 C3_6 1_555 1_555
C4_6 C3_6 1_555 1_555
H6_6 C4_6 1_555 1_555
C5_6 C4_6 1_555 1_555
C6_6 C5_6 1_555 1_555
H7_6 C6_6 1_555 1_555
C7_6 C2_6 1_555 1_555
H8_6 C7_6 1_555 1_555
C8_6 C5_6 1_555 1_555
C9_6 C8_6 1_555 1_555
H9_6 C9_6 1_555 1_555
C10_6 C9_6 1_555 1_555
C11_6 C10_6 1_555 1_555
C12_6 C11_6 1_555 1_555
C13_6 C12_6 1_555 1_555
H10_6 C13_6 1_555 1_555
C14_6 C13_6 1_555 1_555
C15_6 C14_6 1_555 1_555
H11_6 C15_6 1_555 1_555
C16_6 C15_6 1_555 1_555
H12_6 C16_6 1_555 1_555
C17_6 C12_6 1_555 1_555
C18_6 C10_6 1_555 1_555
C19_6 C18_6 1_555 1_555
H13_6 C19_6 1_555 1_555
C20_6 C8_6 1_555 1_555
H14_6 C20_6 1_555 1_555
C21_6 C14_6 1_555 1_555
C22_6 C21_6 1_555 1_555
H15_6 C22_6 1_555 1_555
C23_6 C22_6 1_555 1_555
H16_6 C23_6 1_555 1_555
C24_6 C23_6 1_555 1_555
C25_6 C24_6 1_555 1_555
H17_6 C25_6 1_555 1_555
C26_6 C21_6 1_555 1_555
H18_6 C26_6 1_555 1_555
C27_6 C24_6 1_555 1_555
O20_6 C28_6 1_555 1_555
O21_3 C28_6 1_555 1_555
O23_2 C53_6 1_555 1_555
O26_3 C53_6 1_555 1_555
C28_6 C29_6 1_555 1_555
C29_6 C30_6 1_555 1_555
C30_6 H19_6 1_555 1_555
C31_6 C30_6 1_555 1_555
H20_6 C31_6 1_555 1_555
C32_6 C31_6 1_555 1_555
C33_6 C32_6 1_555 1_555
H21_6 C33_6 1_555 1_555
C34_6 C29_6 1_555 1_555
H22_6 C34_6 1_555 1_555
C35_6 C32_6 1_555 1_555
C36_6 C35_6 1_555 1_555
H23_6 C36_6 1_555 1_555
C37_6 C11_6 1_555 1_555
C38_6 C11_6 1_555 1_555
C39_6 C38_6 1_555 1_555
H24_6 C39_6 1_555 1_555
C40_6 C39_6 1_555 1_555
C41_6 C40_6 1_555 1_555
H25_6 C41_6 1_555 1_555
C42_6 C41_6 1_555 1_555
H26_6 C42_6 1_555 1_555
C43_6 C38_6 1_555 1_555
C44_6 C37_6 1_555 1_555
C45_6 C44_6 1_555 1_555
H27_6 C45_6 1_555 1_555
C46_6 C35_6 1_555 1_555
H28_6 C46_6 1_555 1_555
C47_6 C40_6 1_555 1_555
C48_6 C47_6 1_555 1_555
H29_6 C48_6 1_555 1_555
C49_6 C48_6 1_555 1_555
H30_6 C49_6 1_555 1_555
C50_6 C49_6 1_555 1_555
C51_6 C50_6 1_555 1_555
H31_6 C51_6 1_555 1_555
C52_6 C47_6 1_555 1_555
H32_6 C52_6 1_555 1_555
C53_6 C50_6 1_555 1_555
C6_6 C7_6 1_555 1_555
C16_6 C17_6 1_555 1_555
C17_6 C18_6 1_555 1_555
C19_6 C20_6 1_555 1_555
C25_6 C26_6 1_555 1_555
C33_6 C34_6 1_555 1_555
C36_6 C37_6 1_555 1_555
C42_6 C43_6 1_555 1_555
C43_6 C44_6 1_555 1_555
C45_6 C46_6 1_555 1_555
C51_6 C52_6 1_555 1_555
O21_2 C1_7 1_555 1_555
O23_3 C27_7 1_555 1_555
O26_5 C27_7 1_555 1_555
C1_7 O20_4 1_555 1_555
C2_7 C1_7 1_555 1_555
C3_7 C2_7 1_555 1_555
H5_7 C3_7 1_555 1_555
C4_7 C3_7 1_555 1_555
H6_7 C4_7 1_555 1_555
C5_7 C4_7 1_555 1_555
C6_7 C5_7 1_555 1_555
H7_7 C6_7 1_555 1_555
C7_7 C2_7 1_555 1_555
H8_7 C7_7 1_555 1_555
C8_7 C5_7 1_555 1_555
C9_7 C8_7 1_555 1_555
H9_7 C9_7 1_555 1_555
C10_7 C9_7 1_555 1_555
C11_7 C10_7 1_555 1_555
C12_7 C11_7 1_555 1_555
C13_7 C12_7 1_555 1_555
H10_7 C13_7 1_555 1_555
C14_7 C13_7 1_555 1_555
C15_7 C14_7 1_555 1_555
H11_7 C15_7 1_555 1_555
C16_7 C15_7 1_555 1_555
H12_7 C16_7 1_555 1_555
C17_7 C12_7 1_555 1_555
C18_7 C10_7 1_555 1_555
C19_7 C18_7 1_555 1_555
H13_7 C19_7 1_555 1_555
C20_7 C8_7 1_555 1_555
H14_7 C20_7 1_555 1_555
C21_7 C14_7 1_555 1_555
C22_7 C21_7 1_555 1_555
H15_7 C22_7 1_555 1_555
C23_7 C22_7 1_555 1_555
H16_7 C23_7 1_555 1_555
C24_7 C23_7 1_555 1_555
C25_7 C24_7 1_555 1_555
H17_7 C25_7 1_555 1_555
C26_7 C21_7 1_555 1_555
H18_7 C26_7 1_555 1_555
C27_7 C24_7 1_555 1_555
O20_7 C28_7 1_555 1_555
O22_4 C28_7 1_555 1_555
O24 C53_7 1_555 1_555
O26_2 C53_7 1_555 1_555
C28_7 C29_7 1_555 1_555
C29_7 C30_7 1_555 1_555
C30_7 H19_7 1_555 1_555
C31_7 C30_7 1_555 1_555
H20_7 C31_7 1_555 1_555
C32_7 C31_7 1_555 1_555
C33_7 C32_7 1_555 1_555
H21_7 C33_7 1_555 1_555
C34_7 C29_7 1_555 1_555
H22_7 C34_7 1_555 1_555
C35_7 C32_7 1_555 1_555
C36_7 C35_7 1_555 1_555
H23_7 C36_7 1_555 1_555
C37_7 C11_7 1_555 1_555
C38_7 C11_7 1_555 1_555
C39_7 C38_7 1_555 1_555
H24_7 C39_7 1_555 1_555
C40_7 C39_7 1_555 1_555
C41_7 C40_7 1_555 1_555
H25_7 C41_7 1_555 1_555
C42_7 C41_7 1_555 1_555
H26_7 C42_7 1_555 1_555
C43_7 C38_7 1_555 1_555
C44_7 C37_7 1_555 1_555
C45_7 C44_7 1_555 1_555
H27_7 C45_7 1_555 1_555
C46_7 C35_7 1_555 1_555
H28_7 C46_7 1_555 1_555
C47_7 C40_7 1_555 1_555
C48_7 C47_7 1_555 1_555
H29_7 C48_7 1_555 1_555
C49_7 C48_7 1_555 1_555
H30_7 C49_7 1_555 1_555
C50_7 C49_7 1_555 1_555
C51_7 C50_7 1_555 1_555
H31_7 C51_7 1_555 1_555
C52_7 C47_7 1_555 1_555
H32_7 C52_7 1_555 1_555
C53_7 C50_7 1_555 1_555
C6_7 C7_7 1_555 1_555
C16_7 C17_7 1_555 1_555
C17_7 C18_7 1_555 1_555
C19_7 C20_7 1_555 1_555
C25_7 C26_7 1_555 1_555
C33_7 C34_7 1_555 1_555
C36_7 C37_7 1_555 1_555
C42_7 C43_7 1_555 1_555
C43_7 C44_7 1_555 1_555
C45_7 C46_7 1_555 1_555
C51_7 C52_7 1_555 1_555
O4_6 Zr10_2 1_555 1_555
H1_6 O4_6 1_555 1_555
H2_6 O4_6 1_555 1_555
O5_6 Zr10_2 1_555 1_555
H3_6 O5_6 1_555 1_555
H4_6 O5_6 1_555 1_555
O15_6 Zr10 1_555 1_555
H33_6 O15_6 1_555 1_555
H34_6 O15_6 1_555 1_555
O16_6 Zr10 1_555 1_555
H35_6 O16_6 1_555 1_555
H36_6 O16_6 1_555 1_555
O22_2 C1_8 1_555 1_555
O24_3 C27_8 1_555 1_555
O26_6 C27_8 1_555 1_555
C1_8 O20_3 1_555 1_555
C2_8 C1_8 1_555 1_555
C3_8 C2_8 1_555 1_555
H5_8 C3_8 1_555 1_555
C4_8 C3_8 1_555 1_555
H6_8 C4_8 1_555 1_555
C5_8 C4_8 1_555 1_555
C6_8 C5_8 1_555 1_555
H7_8 C6_8 1_555 1_555
C7_8 C2_8 1_555 1_555
H8_8 C7_8 1_555 1_555
C8_8 C5_8 1_555 1_555
C9_8 C8_8 1_555 1_555
H9_8 C9_8 1_555 1_555
C10_8 C9_8 1_555 1_555
C11_8 C10_8 1_555 1_555
C12_8 C11_8 1_555 1_555
C13_8 C12_8 1_555 1_555
H10_8 C13_8 1_555 1_555
C14_8 C13_8 1_555 1_555
C15_8 C14_8 1_555 1_555
H11_8 C15_8 1_555 1_555
C16_8 C15_8 1_555 1_555
H12_8 C16_8 1_555 1_555
C17_8 C12_8 1_555 1_555
C18_8 C10_8 1_555 1_555
C19_8 C18_8 1_555 1_555
H13_8 C19_8 1_555 1_555
C20_8 C8_8 1_555 1_555
H14_8 C20_8 1_555 1_555
C21_8 C14_8 1_555 1_555
C22_8 C21_8 1_555 1_555
H15_8 C22_8 1_555 1_555
C23_8 C22_8 1_555 1_555
H16_8 C23_8 1_555 1_555
C24_8 C23_8 1_555 1_555
C25_8 C24_8 1_555 1_555
H17_8 C25_8 1_555 1_555
C26_8 C21_8 1_555 1_555
H18_8 C26_8 1_555 1_555
C27_8 C24_8 1_555 1_555
O20_8 C28_8 1_555 1_555
O21_4 C28_8 1_555 1_555
O23 C53_8 1_555 1_555
O26 C53_8 1_555 1_555
C28_8 C29_8 1_555 1_555
C29_8 C30_8 1_555 1_555
C30_8 H19_8 1_555 1_555
C31_8 C30_8 1_555 1_555
H20_8 C31_8 1_555 1_555
C32_8 C31_8 1_555 1_555
C33_8 C32_8 1_555 1_555
H21_8 C33_8 1_555 1_555
C34_8 C29_8 1_555 1_555
H22_8 C34_8 1_555 1_555
C35_8 C32_8 1_555 1_555
C36_8 C35_8 1_555 1_555
H23_8 C36_8 1_555 1_555
C37_8 C11_8 1_555 1_555
C38_8 C11_8 1_555 1_555
C39_8 C38_8 1_555 1_555
H24_8 C39_8 1_555 1_555
C40_8 C39_8 1_555 1_555
C41_8 C40_8 1_555 1_555
H25_8 C41_8 1_555 1_555
C42_8 C41_8 1_555 1_555
H26_8 C42_8 1_555 1_555
C43_8 C38_8 1_555 1_555
C44_8 C37_8 1_555 1_555
C45_8 C44_8 1_555 1_555
H27_8 C45_8 1_555 1_555
C46_8 C35_8 1_555 1_555
H28_8 C46_8 1_555 1_555
C47_8 C40_8 1_555 1_555
C48_8 C47_8 1_555 1_555
H29_8 C48_8 1_555 1_555
C49_8 C48_8 1_555 1_555
H30_8 C49_8 1_555 1_555
C50_8 C49_8 1_555 1_555
C51_8 C50_8 1_555 1_555
H31_8 C51_8 1_555 1_555
C52_8 C47_8 1_555 1_555
H32_8 C52_8 1_555 1_555
C53_8 C50_8 1_555 1_555
C6_8 C7_8 1_555 1_555
C16_8 C17_8 1_555 1_555
C17_8 C18_8 1_555 1_555
C19_8 C20_8 1_555 1_555
C25_8 C26_8 1_555 1_555
C33_8 C34_8 1_555 1_555
C36_8 C37_8 1_555 1_555
C42_8 C43_8 1_555 1_555
C43_8 C44_8 1_555 1_555
C45_8 C46_8 1_555 1_555
C51_8 C52_8 1_555 1_555
O15_7 Zr11 1_555 1_555
H33_7 O15_7 1_555 1_555
O16_7 Zr11 1_555 1_555
H35_7 O16_7 1_555 1_555
H36_7 O16_7 1_555 1_555
O4_7 Zr11_2 1_555 1_555
H1_7 O4_7 1_555 1_555
O5_7 Zr11_2 1_555 1_555
H3_7 O5_7 1_555 1_555
H4_7 O5_7 1_555 1_555
O4_8 Zr12 1_555 1_555
H1_8 O4_8 1_555 1_555
O5_8 Zr12 1_555 1_555
H3_8 O5_8 1_555 1_555
H4_8 O5_8 1_555 1_555
O15_8 Zr12_2 1_555 1_555
H33_8 O15_8 1_555 1_555
O16_8 Zr12_2 1_555 1_555
H35_8 O16_8 1_555 1_555
H36_8 O16_8 1_555 1_555

#END
