
###############################################################################
#
# This file contains modified crystal structure data generated from the
# MOF subset of the Cambridge Structural Database (CSD) v543 
# hosted by the Cambridge Crystallographic Data Centre (CCDC).
#
# This work is licensed under the Creative Commons
# Attribution-NonCommercial-ShareAlike 4.0 International License.
# To view a copy of this license, visit
# http://creativecommons.org/licenses/by-nc-sa/4.0/
# or send a letter to
# Creative Commons, PO Box 1866, Mountain View, CA 94042, USA.
#
# CIF created using the CSD Python API on 29 September 2022
# The structure has been converted into the P1 space group
# The structure has a 3D framework
# The original CSD entry ADASOP is in the tetragonal crystal system
# The framework has been calculated to contain at least 10.0% void space
# The void calculation uses a probe of radius 1.32A, grid spacing 0.4
# H atom positions have been added when not included in the experimental data
# Generated hydrogen atom positions removed from atoms on special positions
#
###############################################################################

data_ADASOP
_chemical_formula_moiety         '(C624 H576 N32 O296 Zn56)n'
_symmetry_cell_setting           triclinic
_symmetry_space_group_name_H-M   'P 1'
_symmetry_Int_Tables_number      1
_space_group_name_Hall           'P 1'
loop_
_symmetry_equiv_pos_site_id
_symmetry_equiv_pos_as_xyz
1 x,y,z
_cell_length_a                   29.3026(16)
_cell_length_b                   29.3026(16)
_cell_length_c                   41.672(3)
_cell_angle_alpha                90
_cell_angle_beta                 90
_cell_angle_gamma                90
_cell_volume                     35781.3
loop_
_atom_site_label
_atom_site_type_symbol
_atom_site_fract_x
_atom_site_fract_y
_atom_site_fract_z
Zn1 Zn 0.62239(3) 0.35694(3) 0.36641(3)
Zn2 Zn 0.47994(4) 0.23471(4) 0.5000
C1 C 0.6269(3) 0.2600(2) 0.3736(3)
C2 C 0.6162(3) 0.2165(2) 0.3907(2)
C3 C 0.5861(3) 0.2166(2) 0.4167(2)
H1 H 0.5748 0.2448 0.4248
C4 C 0.5722(3) 0.1754(3) 0.4310(2)
C5 C 0.5372(3) 0.1761(3) 0.4562(3)
C6 C 0.5894(4) 0.1353(3) 0.4197(3)
H2 H 0.5813 0.1071 0.4294
C7 C 0.6197(5) 0.1365(3) 0.3930(3)
C8 C 0.6370(3) 0.1777(3) 0.3805(2)
H3 H 0.6619 0.1782 0.3659
C9 C 0.6728(5) 0.0921(3) 0.3618(3)
H4 H 0.7002 0.1091 0.3690
H5 H 0.6611 0.1069 0.3421
C21 C 0.8289(3) 0.0152(2) 0.1916(2)
H11 H 0.8463 0.0152 0.1724
C22 C 0.8195(3) 0.0553(3) 0.2054(2)
C23 C 0.8340(3) 0.1003(2) 0.1916(3)
C24 C 0.8011(3) 0.0542(3) 0.2356(3)
H12 H 0.7981 0.0817 0.2475
C25 C 0.7870(4) 0.0137(3) 0.2491(3)
C28 C 0.7116(4) 0.0341(3) 0.3290(3)
H14 H 0.7218 0.0574 0.3148
C30 C 0.6726(4) 0.0091(4) 0.3757(3)
H17 H 0.6541 0.0161 0.3937
C33 C 0.6859(4) 0.0438(4) 0.3543(3)
O1 O 0.52468(19) 0.21333(19) 0.46725(16)
O2 O 0.52406(18) 0.13687(18) 0.46641(15)
O3 O 0.61071(17) 0.29568(17) 0.38569(15)
O4 O 0.65087(19) 0.25700(17) 0.34853(16)
O5 O 0.6389(4) 0.0940(2) 0.3861(2)
O13 O 0.8541(2) 0.09771(18) 0.16534(16)
O14 O 0.81866(16) 0.13562(17) 0.20445(13)
O15 O 0.7680(4) 0.0183(2) 0.2800(3)
O18 O 0.4933(3) 0.3019(2) 0.5000
O19 O 0.6033(2) 0.40335(18) 0.39763(15)
N1 N 0.6399(4) 0.4724(4) 0.4168(4)
C34 C 0.6359(4) 0.4352(4) 0.3991(4)
H19 H 0.6607 0.4301 0.3848
C35 C 0.6734(4) 0.5030(4) 0.4175(4)
H20 H 0.6657 0.5273 0.4327
H21 H 0.6776 0.5160 0.3961
H22 H 0.7017 0.4881 0.4244
C36 C 0.5958(5) 0.4863(7) 0.4335(6)
H23 H 0.6008 0.5147 0.4454
H24 H 0.5865 0.4621 0.4483
H25 H 0.5719 0.4910 0.4174
Zn8 Zn 0.87761(3) 0.14306(3) 0.13359(3)
Zn9 Zn 0.35694(3) 0.37761(3) 0.36641(3)
Zn10 Zn 0.14306(3) 0.12239(3) 0.13359(3)
Zn13 Zn 0.47455(4) 0.13265(3) 0.5000
Zn14 Zn 0.30267(3) 0.32918(3) 0.31580(3)
Zn15 Zn 0.67082(3) 0.30267(3) 0.31580(3)
Zn17 Zn 0.82918(3) 0.19733(3) 0.18420(3)
Zn19 Zn 0.19733(3) 0.17082(3) 0.18420(3)
C49 C 0.4177(3) 0.1921(3) 0.4546(3)
C50 C 0.3846(3) 0.1932(3) 0.4291(2)
C51 C 0.3737(3) 0.2329(2) 0.4136(2)
H38 H 0.3855 0.2610 0.4213
C52 C 0.3458(3) 0.2326(3) 0.3871(2)
C53 C 0.3360(3) 0.2755(3) 0.3700(3)
C54 C 0.3270(3) 0.1922(3) 0.3762(2)
H39 H 0.3072 0.1921 0.3582
C55 C 0.3375(4) 0.1519(3) 0.3921(3)
C56 C 0.3651(3) 0.1521(3) 0.4186(3)
H40 H 0.3710 0.1245 0.4299
C57 C 0.3343(5) 0.0719(3) 0.3906(3)
H41 H 0.3260 0.0673 0.4134
H42 H 0.3680 0.0713 0.3887
C58 C 0.1768(3) 0.0695(3) 0.1875(3)
C59 C 0.1851(3) 0.0257(2) 0.2037(2)
C65 C 0.2064(4) 0.0266(3) 0.2334(3)
H45 H 0.2162 0.0547 0.2426
C66 C 0.2772(4) 0.0111(4) 0.3240(3)
C68 C 0.2481(5) 0.0216(4) 0.2950(3)
H47 H 0.2218 0.0406 0.3017
H48 H 0.2664 0.0395 0.2794
C70 C 0.3137(5) 0.0347(4) 0.3702(3)
C71 C 0.2915(4) 0.0443(4) 0.3426(3)
H50 H 0.2863 0.0752 0.3367
O21 O 0.52468(19) 0.21333(19) 0.53275(16)
O27 O 0.25700(17) 0.34913(19) 0.34853(16)
O29 O 0.35225(18) 0.31147(17) 0.38141(15)
O30 O 0.68853(17) 0.35225(18) 0.38141(15)
O32 O 0.31479(19) 0.27317(16) 0.34261(15)
O33 O 0.43178(18) 0.22971(18) 0.46566(15)
O34 O 0.43178(18) 0.22971(18) 0.53434(15)
O35 O 0.42922(18) 0.15388(18) 0.46715(14)
O37 O 0.3171(3) 0.1141(2) 0.3795(2)
O38 O 0.19342(17) 0.10449(16) 0.19878(14)
O40 O 0.30658(17) 0.39551(16) 0.30122(14)
O41 O 0.1534(2) 0.06703(17) 0.16066(15)
O42 O 0.56703(17) 0.3466(2) 0.33934(15)
O45 O 0.6459(2) 0.40229(18) 0.33466(16)
O49 O 0.36438(17) 0.31866(16) 0.29555(13)
O51 O 0.26080(19) 0.30657(18) 0.28339(17)
N4 N 0.2018(3) 0.2923(3) 0.2485(3)
C76 C 0.2269(4) 0.2993(6) 0.2733(3)
H58 H 0.2070 0.2972 0.2912
C77 C 0.2085(4) 0.3134(5) 0.2188(3)
H59 H 0.1854 0.3026 0.2036
H60 H 0.2390 0.3058 0.2107
H61 H 0.2059 0.3465 0.2213
C78 C 0.1593(4) 0.2672(6) 0.2557(4)
H62 H 0.1420 0.2626 0.2358
H63 H 0.1409 0.2848 0.2709
H64 H 0.1669 0.2375 0.2650
Zn3 Zn 0.52545(4) 0.86735(3) 0.5000
Zn4 Zn 0.69733(3) 0.67082(3) 0.31580(3)
C10 C 0.5823(3) 0.8079(3) 0.4546(3)
C11 C 0.6154(3) 0.8068(3) 0.4291(2)
C12 C 0.6263(3) 0.7671(2) 0.4136(2)
H6 H 0.6145 0.7390 0.4213
C13 C 0.6542(3) 0.7674(3) 0.3871(2)
C14 C 0.6640(3) 0.7245(3) 0.3700(3)
C15 C 0.6730(3) 0.8078(3) 0.3762(2)
H7 H 0.6928 0.8079 0.3582
C16 C 0.6625(4) 0.8481(3) 0.3921(3)
C17 C 0.6349(3) 0.8479(3) 0.4186(3)
H8 H 0.6290 0.8755 0.4299
C18 C 0.6657(5) 0.9281(3) 0.3906(3)
H9 H 0.6740 0.9327 0.4134
H10 H 0.6320 0.9287 0.3887
C19 C 0.8232(3) 0.9305(3) 0.1875(3)
C20 C 0.8149(3) 0.9743(2) 0.2037(2)
C26 C 0.7936(4) 0.9734(3) 0.2334(3)
H13 H 0.7838 0.9453 0.2426
C27 C 0.7228(4) 0.9889(4) 0.3240(3)
C29 C 0.7519(5) 0.9784(4) 0.2950(3)
H15 H 0.7782 0.9594 0.3017
H16 H 0.7336 0.9605 0.2794
C31 C 0.6863(5) 0.9653(4) 0.3702(3)
C32 C 0.7085(4) 0.9557(4) 0.3426(3)
H18 H 0.7137 0.9248 0.3367
O6 O 0.64775(18) 0.68853(17) 0.38141(15)
O7 O 0.68521(19) 0.72683(16) 0.34261(15)
O8 O 0.56822(18) 0.77029(18) 0.46566(15)
O9 O 0.57078(18) 0.84612(18) 0.46715(14)
O10 O 0.6829(3) 0.8859(2) 0.3795(2)
O11 O 0.80658(17) 0.89551(16) 0.19878(14)
O12 O 0.8466(2) 0.93297(17) 0.16066(15)
O16 O 0.5394(2) 0.9346(2) 0.5000
O17 O 0.73920(19) 0.69343(18) 0.28339(17)
N2 N 0.7982(3) 0.7077(3) 0.2485(3)
C37 C 0.7731(4) 0.7007(6) 0.2733(3)
H26 H 0.7930 0.7028 0.2912
C38 C 0.7915(4) 0.6866(5) 0.2188(3)
H27 H 0.8146 0.6974 0.2036
H28 H 0.7610 0.6942 0.2107
H29 H 0.7941 0.6535 0.2213
C39 C 0.8407(4) 0.7328(6) 0.2557(4)
H30 H 0.8580 0.7374 0.2358
H31 H 0.8591 0.7152 0.2709
H32 H 0.8331 0.7625 0.2650
Zn5 Zn 0.37761(3) 0.64306(3) 0.36641(3)
Zn6 Zn 0.64306(3) 0.62239(3) 0.36641(3)
Zn7 Zn 0.85694(3) 0.87761(3) 0.13359(3)
Zn11 Zn 0.12239(3) 0.85694(3) 0.13359(3)
Zn12 Zn 0.52006(4) 0.76529(4) 0.5000
Zn16 Zn 0.80267(3) 0.82918(3) 0.18420(3)
Zn18 Zn 0.32918(3) 0.69733(3) 0.31580(3)
Zn20 Zn 0.17082(3) 0.80267(3) 0.18420(3)
C40 C 0.3731(3) 0.7400(2) 0.3736(3)
C41 C 0.3838(3) 0.7835(2) 0.3907(2)
C42 C 0.4139(3) 0.7834(2) 0.4167(2)
H33 H 0.4252 0.7552 0.4248
C43 C 0.4278(3) 0.8246(3) 0.4310(2)
C44 C 0.4628(3) 0.8239(3) 0.4562(3)
C45 C 0.4106(4) 0.8647(3) 0.4197(3)
H34 H 0.4187 0.8929 0.4294
C46 C 0.3803(5) 0.8635(3) 0.3930(3)
C47 C 0.3630(3) 0.8223(3) 0.3805(2)
H35 H 0.3381 0.8218 0.3659
C48 C 0.3272(5) 0.9079(3) 0.3618(3)
H36 H 0.2998 0.8909 0.3690
H37 H 0.3389 0.8931 0.3421
C60 C 0.1711(3) 0.9848(2) 0.1916(2)
H43 H 0.1537 0.9848 0.1724
C61 C 0.1805(3) 0.9447(3) 0.2054(2)
C62 C 0.1660(3) 0.8997(2) 0.1916(3)
C63 C 0.1989(3) 0.9458(3) 0.2356(3)
H44 H 0.2019 0.9183 0.2475
C64 C 0.2130(4) 0.9863(3) 0.2491(3)
C67 C 0.2884(4) 0.9659(3) 0.3290(3)
H46 H 0.2782 0.9426 0.3148
C69 C 0.3274(4) 0.9909(4) 0.3757(3)
H49 H 0.3459 0.9839 0.3937
C72 C 0.3141(4) 0.9562(4) 0.3543(3)
O20 O 0.47532(19) 0.78667(19) 0.46725(16)
O22 O 0.47594(18) 0.86313(18) 0.46641(15)
O23 O 0.47594(18) 0.86313(18) 0.53359(15)
O24 O 0.38929(17) 0.70432(17) 0.38569(15)
O25 O 0.34913(19) 0.74300(17) 0.34853(16)
O26 O 0.74300(17) 0.65087(19) 0.34853(16)
O28 O 0.3611(4) 0.9060(2) 0.3861(2)
O31 O 0.31147(17) 0.64775(18) 0.38141(15)
O36 O 0.57078(18) 0.84612(18) 0.53285(14)
O39 O 0.69342(17) 0.60449(16) 0.30122(14)
O43 O 0.43297(17) 0.6534(2) 0.33934(15)
O44 O 0.1459(2) 0.90229(18) 0.16534(16)
O46 O 0.3541(2) 0.59771(18) 0.33466(16)
O47 O 0.18134(16) 0.86438(17) 0.20445(13)
O48 O 0.63562(17) 0.68134(16) 0.29555(13)
O50 O 0.2320(4) 0.9817(2) 0.2800(3)
O52 O 0.3967(2) 0.59665(18) 0.39763(15)
N3 N 0.3601(4) 0.5276(4) 0.4168(4)
C73 C 0.3641(4) 0.5648(4) 0.3991(4)
H51 H 0.3393 0.5699 0.3848
C74 C 0.3266(4) 0.4970(4) 0.4175(4)
H52 H 0.3343 0.4727 0.4327
H53 H 0.3224 0.4840 0.3961
H54 H 0.2983 0.5119 0.4244
C75 C 0.4042(5) 0.5137(7) 0.4335(6)
H55 H 0.3992 0.4853 0.4454
H56 H 0.4135 0.5379 0.4483
H57 H 0.4281 0.5090 0.4174
O16_2 O 0.4606(2) 0.0654(2) 0.5000
O23_2 O 0.52406(18) 0.13687(18) 0.53359(15)
O36_2 O 0.42922(18) 0.15388(18) 0.53285(14)
O18_2 O 0.5067(3) 0.6981(2) 0.5000
O21_2 O 0.47532(19) 0.78667(19) 0.53275(16)
O34_2 O 0.56822(18) 0.77029(18) 0.53434(15)
Zn3_2 Zn 0.13265(3) 0.52545(4) 0.5000
C10_2 C 0.1921(3) 0.5823(3) 0.4546(3)
C11_2 C 0.1932(3) 0.6154(3) 0.4291(2)
C12_2 C 0.2329(2) 0.6263(3) 0.4136(2)
H6_2 H 0.2610 0.6145 0.4213
C13_2 C 0.2326(3) 0.6542(3) 0.3871(2)
C14_2 C 0.2755(3) 0.6640(3) 0.3700(3)
C15_2 C 0.1922(3) 0.6730(3) 0.3762(2)
H7_2 H 0.1921 0.6928 0.3582
C16_2 C 0.1519(3) 0.6625(4) 0.3921(3)
C17_2 C 0.1521(3) 0.6349(3) 0.4186(3)
H8_2 H 0.1245 0.6290 0.4299
C18_2 C 0.0719(3) 0.6657(5) 0.3906(3)
H9_2 H 0.0673 0.6740 0.4134
H10_2 H 0.0713 0.6320 0.3887
C19_2 C 0.0695(3) 0.8232(3) 0.1875(3)
C20_2 C 0.0257(2) 0.8149(3) 0.2037(2)
C26_2 C 0.0266(3) 0.7936(4) 0.2334(3)
H13_2 H 0.0547 0.7838 0.2426
C27_2 C 0.0111(4) 0.7228(4) 0.3240(3)
C29_2 C 0.0216(4) 0.7519(5) 0.2950(3)
H15_2 H 0.0406 0.7782 0.3017
H16_2 H 0.0395 0.7336 0.2794
C31_2 C 0.0347(4) 0.6863(5) 0.3702(3)
C32_2 C 0.0443(4) 0.7085(4) 0.3426(3)
H18_2 H 0.0752 0.7137 0.3367
O7_2 O 0.27317(16) 0.68521(19) 0.34261(15)
O8_2 O 0.22971(18) 0.56822(18) 0.46566(15)
O9_2 O 0.15388(18) 0.57078(18) 0.46715(14)
O10_2 O 0.1141(2) 0.6829(3) 0.3795(2)
O11_2 O 0.10449(16) 0.80658(17) 0.19878(14)
O12_2 O 0.06703(17) 0.8466(2) 0.16066(15)
O16_3 O 0.0654(2) 0.5394(2) 0.5000
O17_2 O 0.30657(18) 0.73920(19) 0.28339(17)
N2_2 N 0.2923(3) 0.7982(3) 0.2485(3)
C37_2 C 0.2993(6) 0.7731(4) 0.2733(3)
H26_2 H 0.2972 0.7930 0.2912
C38_2 C 0.3134(5) 0.7915(4) 0.2188(3)
H27_2 H 0.3026 0.8146 0.2036
H28_2 H 0.3058 0.7610 0.2107
H29_2 H 0.3465 0.7941 0.2213
C39_2 C 0.2672(6) 0.8407(4) 0.2557(4)
H30_2 H 0.2626 0.8580 0.2358
H31_2 H 0.2848 0.8591 0.2709
H32_2 H 0.2375 0.8331 0.2650
Zn12_2 Zn 0.23471(4) 0.52006(4) 0.5000
C40_2 C 0.2600(2) 0.3731(3) 0.3736(3)
C41_2 C 0.2165(2) 0.3838(3) 0.3907(2)
C42_2 C 0.2166(2) 0.4139(3) 0.4167(2)
H33_2 H 0.2448 0.4252 0.4248
C43_2 C 0.1754(3) 0.4278(3) 0.4310(2)
C44_2 C 0.1761(3) 0.4628(3) 0.4562(3)
C45_2 C 0.1353(3) 0.4106(4) 0.4197(3)
H34_2 H 0.1071 0.4187 0.4294
C46_2 C 0.1365(3) 0.3803(5) 0.3930(3)
C47_2 C 0.1777(3) 0.3630(3) 0.3805(2)
H35_2 H 0.1782 0.3381 0.3659
C48_2 C 0.0921(3) 0.3272(5) 0.3618(3)
H36_2 H 0.1091 0.2998 0.3690
H37_2 H 0.1069 0.3389 0.3421
C60_2 C 0.0152(2) 0.1711(3) 0.1916(2)
H43_2 H 0.0152 0.1537 0.1724
C61_2 C 0.0553(3) 0.1805(3) 0.2054(2)
C62_2 C 0.1003(2) 0.1660(3) 0.1916(3)
C63_2 C 0.0542(3) 0.1989(3) 0.2356(3)
H44_2 H 0.0817 0.2019 0.2475
C64_2 C 0.0137(3) 0.2130(4) 0.2491(3)
C67_2 C 0.0341(3) 0.2884(4) 0.3290(3)
H46_2 H 0.0574 0.2782 0.3148
C69_2 C 0.0091(4) 0.3274(4) 0.3757(3)
H49_2 H 0.0161 0.3459 0.3937
C72_2 C 0.0438(4) 0.3141(4) 0.3543(3)
O20_2 O 0.21333(19) 0.47532(19) 0.46725(16)
O22_2 O 0.13687(18) 0.47594(18) 0.46641(15)
O23_3 O 0.13687(18) 0.47594(18) 0.53359(15)
O24_2 O 0.29568(17) 0.38929(17) 0.38569(15)
O28_2 O 0.0940(2) 0.3611(4) 0.3861(2)
O36_3 O 0.15388(18) 0.57078(18) 0.53285(14)
O39_2 O 0.39551(16) 0.69342(17) 0.30122(14)
O43_2 O 0.3466(2) 0.43297(17) 0.33934(15)
O44_2 O 0.09771(18) 0.1459(2) 0.16534(16)
O46_2 O 0.40229(18) 0.3541(2) 0.33466(16)
O47_2 O 0.13562(17) 0.18134(16) 0.20445(13)
O48_2 O 0.31866(16) 0.63562(17) 0.29555(13)
O50_2 O 0.0183(2) 0.2320(4) 0.2800(3)
O52_2 O 0.40335(18) 0.3967(2) 0.39763(15)
N3_2 N 0.4724(4) 0.3601(4) 0.4168(4)
C73_2 C 0.4352(4) 0.3641(4) 0.3991(4)
H51_2 H 0.4301 0.3393 0.3848
C74_2 C 0.5030(4) 0.3266(4) 0.4175(4)
H52_2 H 0.5273 0.3343 0.4327
H53_2 H 0.5160 0.3224 0.3961
H54_2 H 0.4881 0.2983 0.4244
C75_2 C 0.4863(7) 0.4042(5) 0.4335(6)
H55_2 H 0.5147 0.3992 0.4454
H56_2 H 0.4621 0.4135 0.4483
H57_2 H 0.4910 0.4281 0.4174
Zn2_2 Zn 0.76529(4) 0.47994(4) 0.5000
C1_2 C 0.7400(2) 0.6269(3) 0.3736(3)
C2_2 C 0.7835(2) 0.6162(3) 0.3907(2)
C3_2 C 0.7834(2) 0.5861(3) 0.4167(2)
H1_2 H 0.7552 0.5748 0.4248
C4_2 C 0.8246(3) 0.5722(3) 0.4310(2)
C5_2 C 0.8239(3) 0.5372(3) 0.4562(3)
C6_2 C 0.8647(3) 0.5894(4) 0.4197(3)
H2_2 H 0.8929 0.5813 0.4294
C7_2 C 0.8635(3) 0.6197(5) 0.3930(3)
C8_2 C 0.8223(3) 0.6370(3) 0.3805(2)
H3_2 H 0.8218 0.6619 0.3659
C9_2 C 0.9079(3) 0.6728(5) 0.3618(3)
H4_2 H 0.8909 0.7002 0.3690
H5_2 H 0.8931 0.6611 0.3421
C21_2 C 0.9848(2) 0.8289(3) 0.1916(2)
H11_2 H 0.9848 0.8463 0.1724
C22_2 C 0.9447(3) 0.8195(3) 0.2054(2)
C23_2 C 0.8997(2) 0.8340(3) 0.1916(3)
C24_2 C 0.9458(3) 0.8011(3) 0.2356(3)
H12_2 H 0.9183 0.7981 0.2475
C25_2 C 0.9863(3) 0.7870(4) 0.2491(3)
C28_2 C 0.9659(3) 0.7116(4) 0.3290(3)
H14_2 H 0.9426 0.7218 0.3148
C30_2 C 0.9909(4) 0.6726(4) 0.3757(3)
H17_2 H 0.9839 0.6541 0.3937
C33_2 C 0.9562(4) 0.6859(4) 0.3543(3)
O1_2 O 0.78667(19) 0.52468(19) 0.46725(16)
O2_2 O 0.86313(18) 0.52406(18) 0.46641(15)
O3_2 O 0.70432(17) 0.61071(17) 0.38569(15)
O5_2 O 0.9060(2) 0.6389(4) 0.3861(2)
O13_2 O 0.90229(18) 0.8541(2) 0.16534(16)
O14_2 O 0.86438(17) 0.81866(16) 0.20445(13)
O15_2 O 0.9817(2) 0.7680(4) 0.2800(3)
O18_3 O 0.6981(2) 0.4933(3) 0.5000
O19_2 O 0.59665(18) 0.6033(2) 0.39763(15)
N1_2 N 0.5276(4) 0.6399(4) 0.4168(4)
C34_2 C 0.5648(4) 0.6359(4) 0.3991(4)
H19_2 H 0.5699 0.6607 0.3848
C35_2 C 0.4970(4) 0.6734(4) 0.4175(4)
H20_2 H 0.4727 0.6657 0.4327
H21_2 H 0.4840 0.6776 0.3961
H22_2 H 0.5119 0.7017 0.4244
C36_2 C 0.5137(7) 0.5958(5) 0.4335(6)
H23_2 H 0.4853 0.6008 0.4454
H24_2 H 0.5379 0.5865 0.4483
H25_2 H 0.5090 0.5719 0.4174
Zn13_2 Zn 0.86735(3) 0.47455(4) 0.5000
C49_2 C 0.8079(3) 0.4177(3) 0.4546(3)
C50_2 C 0.8068(3) 0.3846(3) 0.4291(2)
C51_2 C 0.7671(2) 0.3737(3) 0.4136(2)
H38_2 H 0.7390 0.3855 0.4213
C52_2 C 0.7674(3) 0.3458(3) 0.3871(2)
C53_2 C 0.7245(3) 0.3360(3) 0.3700(3)
C54_2 C 0.8078(3) 0.3270(3) 0.3762(2)
H39_2 H 0.8079 0.3072 0.3582
C55_2 C 0.8481(3) 0.3375(4) 0.3921(3)
C56_2 C 0.8479(3) 0.3651(3) 0.4186(3)
H40_2 H 0.8755 0.3710 0.4299
C57_2 C 0.9281(3) 0.3343(5) 0.3906(3)
H41_2 H 0.9327 0.3260 0.4134
H42_2 H 0.9287 0.3680 0.3887
C58_2 C 0.9305(3) 0.1768(3) 0.1875(3)
C59_2 C 0.9743(2) 0.1851(3) 0.2037(2)
C65_2 C 0.9734(3) 0.2064(4) 0.2334(3)
H45_2 H 0.9453 0.2162 0.2426
C66_2 C 0.9889(4) 0.2772(4) 0.3240(3)
C68_2 C 0.9784(4) 0.2481(5) 0.2950(3)
H47_2 H 0.9594 0.2218 0.3017
H48_2 H 0.9605 0.2664 0.2794
C70_2 C 0.9653(4) 0.3137(5) 0.3702(3)
C71_2 C 0.9557(4) 0.2915(4) 0.3426(3)
H50_2 H 0.9248 0.2863 0.3367
O21_3 O 0.78667(19) 0.52468(19) 0.53275(16)
O32_2 O 0.72683(16) 0.31479(19) 0.34261(15)
O33_2 O 0.77029(18) 0.43178(18) 0.46566(15)
O34_3 O 0.77029(18) 0.43178(18) 0.53434(15)
O35_2 O 0.84612(18) 0.42922(18) 0.46715(14)
O37_2 O 0.8859(2) 0.3171(3) 0.3795(2)
O38_2 O 0.89551(16) 0.19342(17) 0.19878(14)
O40_2 O 0.60449(16) 0.30658(17) 0.30122(14)
O41_2 O 0.93297(17) 0.1534(2) 0.16066(15)
O42_2 O 0.6534(2) 0.56703(17) 0.33934(15)
O45_2 O 0.59771(18) 0.6459(2) 0.33466(16)
O49_2 O 0.68134(16) 0.36438(17) 0.29555(13)
O51_2 O 0.69343(18) 0.26080(19) 0.28339(17)
N4_2 N 0.7077(3) 0.2018(3) 0.2485(3)
C76_2 C 0.7007(6) 0.2269(4) 0.2733(3)
H58_2 H 0.7028 0.2070 0.2912
C77_2 C 0.6866(5) 0.2085(4) 0.2188(3)
H59_2 H 0.6974 0.1854 0.2036
H60_2 H 0.6942 0.2390 0.2107
H61_2 H 0.6535 0.2059 0.2213
C78_2 C 0.7328(6) 0.1593(4) 0.2557(4)
H62_2 H 0.7374 0.1420 0.2358
H63_2 H 0.7152 0.1409 0.2709
H64_2 H 0.7625 0.1669 0.2650
O18_4 O 0.3019(2) 0.5067(3) 0.5000
O21_4 O 0.21333(19) 0.47532(19) 0.53275(16)
O34_4 O 0.22971(18) 0.56822(18) 0.53434(15)
O16_4 O 0.9346(2) 0.4606(2) 0.5000
O23_4 O 0.86313(18) 0.52406(18) 0.53359(15)
O36_4 O 0.84612(18) 0.42922(18) 0.53285(14)
Zn3_3 Zn 0.02545(4) 0.36735(3) 0.0000
O16_5 O 0.0394(2) 0.4346(2) 0.0000
Zn12_3 Zn 0.02006(4) 0.26529(4) 0.0000
O21_5 O 0.02468(19) 0.71333(19) 0.03275(16)
O36_5 O 0.07078(18) 0.34612(18) 0.03285(14)
H66 H 0.0191191 0.450343 0.0155529
Zn1_2 Zn 0.12239(3) 0.85694(3) 0.86641(3)
Zn3_4 Zn 0.02545(4) 0.36735(3) 1.0000
Zn4_2 Zn 0.19733(3) 0.17082(3) 0.81580(3)
C1_3 C 0.1269(3) 0.7600(2) 0.8736(3)
C2_3 C 0.1162(3) 0.7165(2) 0.8907(2)
C3_3 C 0.0861(3) 0.7166(2) 0.9167(2)
H1_3 H 0.0748 0.7448 0.9248
C4_3 C 0.0722(3) 0.6754(3) 0.9310(2)
C5_3 C 0.0372(3) 0.6761(3) 0.9562(3)
C6_3 C 0.0894(4) 0.6353(3) 0.9197(3)
H2_3 H 0.0813 0.6071 0.9294
C7_3 C 0.1197(5) 0.6365(3) 0.8930(3)
C8_3 C 0.1370(3) 0.6777(3) 0.8805(2)
H3_3 H 0.1619 0.6782 0.8659
C9_3 C 0.1728(5) 0.5921(3) 0.8618(3)
H4_3 H 0.2002 0.6091 0.8690
H5_3 H 0.1611 0.6069 0.8421
C10_3 C 0.0823(3) 0.3079(3) 0.9546(3)
C11_3 C 0.1154(3) 0.3068(3) 0.9291(2)
C12_3 C 0.1263(3) 0.2671(2) 0.9136(2)
H6_3 H 0.1145 0.2390 0.9213
C13_3 C 0.1542(3) 0.2674(3) 0.8871(2)
C14_3 C 0.1640(3) 0.2245(3) 0.8700(3)
C15_3 C 0.1730(3) 0.3078(3) 0.8762(2)
H7_3 H 0.1928 0.3079 0.8582
C16_3 C 0.1625(4) 0.3481(3) 0.8921(3)
C17_3 C 0.1349(3) 0.3479(3) 0.9186(3)
H8_3 H 0.1290 0.3755 0.9299
C18_3 C 0.1657(5) 0.4281(3) 0.8906(3)
H9_3 H 0.1740 0.4327 0.9134
H10_3 H 0.1320 0.4287 0.8887
C19_3 C 0.3232(3) 0.4305(3) 0.6875(3)
C20_3 C 0.3149(3) 0.4743(2) 0.7037(2)
C21_3 C 0.3289(3) 0.5152(2) 0.6916(2)
H11_3 H 0.3463 0.5152 0.6724
C22_3 C 0.3195(3) 0.5553(3) 0.7054(2)
C23_3 C 0.3340(3) 0.6003(2) 0.6916(3)
C24_3 C 0.3011(3) 0.5542(3) 0.7356(3)
H12_3 H 0.2981 0.5817 0.7475
C25_3 C 0.2870(4) 0.5137(3) 0.7491(3)
C26_3 C 0.2936(4) 0.4734(3) 0.7334(3)
H13_3 H 0.2838 0.4453 0.7426
C27_3 C 0.2228(4) 0.4889(4) 0.8240(3)
C28_3 C 0.2116(4) 0.5341(3) 0.8290(3)
H14_3 H 0.2218 0.5574 0.8148
C29_3 C 0.2519(5) 0.4784(4) 0.7950(3)
H15_3 H 0.2782 0.4594 0.8017
H16_3 H 0.2336 0.4605 0.7794
C30_3 C 0.1726(4) 0.5091(4) 0.8757(3)
H17_3 H 0.1541 0.5161 0.8937
C31_3 C 0.1863(5) 0.4653(4) 0.8702(3)
C32_3 C 0.2085(4) 0.4557(4) 0.8426(3)
H18_3 H 0.2137 0.4248 0.8367
C33_3 C 0.1859(4) 0.5438(4) 0.8543(3)
O1_3 O 0.02468(19) 0.71333(19) 0.96725(16)
O2_3 O 0.02406(18) 0.63687(18) 0.96641(15)
O3_3 O 0.11071(17) 0.79568(17) 0.88569(15)
O4_2 O 0.15087(19) 0.75700(17) 0.84853(16)
O5_3 O 0.1389(4) 0.5940(2) 0.8861(2)
O6_2 O 0.14775(18) 0.18853(17) 0.88141(15)
O7_3 O 0.18521(19) 0.22683(16) 0.84261(15)
O8_3 O 0.06822(18) 0.27029(18) 0.96566(15)
O9_3 O 0.07078(18) 0.34612(18) 0.96715(14)
O10_3 O 0.1829(3) 0.3859(2) 0.8795(2)
O11_3 O 0.30658(17) 0.39551(16) 0.69878(14)
O12_3 O 0.3466(2) 0.43297(17) 0.66066(15)
O13_3 O 0.3541(2) 0.59771(18) 0.66534(16)
O14_3 O 0.31866(16) 0.63562(17) 0.70445(13)
O15_3 O 0.2680(4) 0.5183(2) 0.7800(3)
O16_6 O 0.0394(2) 0.4346(2) 1.0000
O17_3 O 0.23920(19) 0.19343(18) 0.78339(17)
O19_3 O 0.1033(2) 0.90335(18) 0.89763(15)
N1_3 N 0.1399(4) 0.9724(4) 0.9168(4)
C34_3 C 0.1359(4) 0.9352(4) 0.8991(4)
H19_3 H 0.1607 0.9301 0.8848
H22_3 H 0.2017 0.9881 0.9244
C36_3 C 0.0958(5) 0.9863(7) 0.9335(6)
H24_3 H 0.0865 0.9621 0.9483
H25_3 H 0.0719 0.9910 0.9174
N2_3 N 0.2982(3) 0.2077(3) 0.7485(3)
C37_3 C 0.2731(4) 0.2007(6) 0.7733(3)
H26_3 H 0.2930 0.2028 0.7912
C38_3 C 0.2915(4) 0.1866(5) 0.7188(3)
H27_3 H 0.3146 0.1974 0.7036
H28_3 H 0.2610 0.1942 0.7107
H29_3 H 0.2941 0.1535 0.7213
C39_3 C 0.3407(4) 0.2328(6) 0.7557(4)
H30_3 H 0.3580 0.2374 0.7358
H31_3 H 0.3591 0.2152 0.7709
H32_3 H 0.3331 0.2625 0.7650
Zn6_2 Zn 0.14306(3) 0.12239(3) 0.86641(3)
Zn7_2 Zn 0.35694(3) 0.37761(3) 0.63359(3)
Zn8_2 Zn 0.37761(3) 0.64306(3) 0.63359(3)
Zn12_4 Zn 0.02006(4) 0.26529(4) 1.0000
Zn15_2 Zn 0.17082(3) 0.80267(3) 0.81580(3)
Zn16_2 Zn 0.30267(3) 0.32918(3) 0.68420(3)
Zn17_2 Zn 0.32918(3) 0.69733(3) 0.68420(3)
O26_2 O 0.24300(17) 0.15087(19) 0.84853(16)
O30_2 O 0.18853(17) 0.85225(18) 0.88141(15)
O39_3 O 0.19342(17) 0.10449(16) 0.80122(14)
O42_3 O 0.06703(17) 0.8466(2) 0.83934(15)
O45_3 O 0.1459(2) 0.90229(18) 0.83466(16)
O48_3 O 0.13562(17) 0.18134(16) 0.79555(13)
H65 H 0.0342263 0.44721 0.978183
Zn2_3 Zn 0.97994(4) 0.73471(4) 0.0000
O18_5 O 0.9933(3) 0.8019(2) 0.0000
Zn13_3 Zn 0.97455(4) 0.63265(3) 0.0000
O23_5 O 0.97594(18) 0.36313(18) 0.03359(15)
O34_5 O 0.93178(18) 0.72971(18) 0.03434(15)
H68 H 0.973002 0.817453 0.0156363
Zn2_4 Zn 0.97994(4) 0.73471(4) 1.0000
O18_6 O 0.9933(3) 0.8019(2) 1.0000
Zn5_2 Zn 0.87761(3) 0.14306(3) 0.86641(3)
Zn9_2 Zn 0.85694(3) 0.87761(3) 0.86641(3)
Zn10_2 Zn 0.64306(3) 0.62239(3) 0.63359(3)
Zn11_2 Zn 0.62239(3) 0.35694(3) 0.63359(3)
Zn13_4 Zn 0.97455(4) 0.63265(3) 1.0000
Zn14_2 Zn 0.80267(3) 0.82918(3) 0.81580(3)
Zn18_2 Zn 0.82918(3) 0.19733(3) 0.81580(3)
Zn19_2 Zn 0.69733(3) 0.67082(3) 0.68420(3)
Zn20_2 Zn 0.67082(3) 0.30267(3) 0.68420(3)
C40_3 C 0.8731(3) 0.2400(2) 0.8736(3)
C41_3 C 0.8838(3) 0.2835(2) 0.8907(2)
C42_3 C 0.9139(3) 0.2834(2) 0.9167(2)
H33_3 H 0.9252 0.2552 0.9248
C43_3 C 0.9278(3) 0.3246(3) 0.9310(2)
C44_3 C 0.9628(3) 0.3239(3) 0.9562(3)
C45_3 C 0.9106(4) 0.3647(3) 0.9197(3)
H34_3 H 0.9187 0.3929 0.9294
C46_3 C 0.8803(5) 0.3635(3) 0.8930(3)
C47_3 C 0.8630(3) 0.3223(3) 0.8805(2)
H35_3 H 0.8381 0.3218 0.8659
C48_3 C 0.8272(5) 0.4079(3) 0.8618(3)
H36_3 H 0.7998 0.3909 0.8690
H37_3 H 0.8389 0.3931 0.8421
C49_3 C 0.9177(3) 0.6921(3) 0.9546(3)
C50_3 C 0.8846(3) 0.6932(3) 0.9291(2)
C51_3 C 0.8737(3) 0.7329(2) 0.9136(2)
H38_3 H 0.8855 0.7610 0.9213
C52_3 C 0.8458(3) 0.7326(3) 0.8871(2)
C53_3 C 0.8360(3) 0.7755(3) 0.8700(3)
C54_3 C 0.8270(3) 0.6922(3) 0.8762(2)
H39_3 H 0.8072 0.6921 0.8582
C55_3 C 0.8375(4) 0.6519(3) 0.8921(3)
C56_3 C 0.8651(3) 0.6521(3) 0.9186(3)
H40_3 H 0.8710 0.6245 0.9299
C57_3 C 0.8343(5) 0.5719(3) 0.8906(3)
H41_3 H 0.8260 0.5673 0.9134
H42_3 H 0.8680 0.5713 0.8887
C58_3 C 0.6768(3) 0.5695(3) 0.6875(3)
C59_3 C 0.6851(3) 0.5257(2) 0.7037(2)
C60_3 C 0.6711(3) 0.4848(2) 0.6916(2)
H43_3 H 0.6537 0.4848 0.6724
C61_3 C 0.6805(3) 0.4447(3) 0.7054(2)
C62_3 C 0.6660(3) 0.3997(2) 0.6916(3)
C63_3 C 0.6989(3) 0.4458(3) 0.7356(3)
H44_3 H 0.7019 0.4183 0.7475
C64_3 C 0.7130(4) 0.4863(3) 0.7491(3)
C65_3 C 0.7064(4) 0.5266(3) 0.7334(3)
H45_3 H 0.7162 0.5547 0.7426
C66_3 C 0.7772(4) 0.5111(4) 0.8240(3)
C67_3 C 0.7884(4) 0.4659(3) 0.8290(3)
H46_3 H 0.7782 0.4426 0.8148
C68_3 C 0.7481(5) 0.5216(4) 0.7950(3)
H47_3 H 0.7218 0.5406 0.8017
H48_3 H 0.7664 0.5395 0.7794
C69_3 C 0.8274(4) 0.4909(4) 0.8757(3)
H49_3 H 0.8459 0.4839 0.8937
C70_3 C 0.8137(5) 0.5347(4) 0.8702(3)
C71_3 C 0.7915(4) 0.5443(4) 0.8426(3)
H50_3 H 0.7863 0.5752 0.8367
C72_3 C 0.8141(4) 0.4562(4) 0.8543(3)
O20_3 O 0.97532(19) 0.28667(19) 0.96725(16)
O22_3 O 0.97594(18) 0.36313(18) 0.96641(15)
O24_3 O 0.88929(17) 0.20432(17) 0.88569(15)
O25_2 O 0.84913(19) 0.24300(17) 0.84853(16)
O27_2 O 0.75700(17) 0.84913(19) 0.84853(16)
O28_3 O 0.8611(4) 0.4060(2) 0.8861(2)
O29_2 O 0.85225(18) 0.81147(17) 0.88141(15)
O31_2 O 0.81147(17) 0.14775(18) 0.88141(15)
O32_3 O 0.81479(19) 0.77317(16) 0.84261(15)
O33_3 O 0.93178(18) 0.72971(18) 0.96566(15)
O35_3 O 0.92922(18) 0.65388(18) 0.96715(14)
O37_3 O 0.8171(3) 0.6141(2) 0.8795(2)
O38_3 O 0.69342(17) 0.60449(16) 0.69878(14)
O40_3 O 0.80658(17) 0.89551(16) 0.80122(14)
O41_3 O 0.6534(2) 0.56703(17) 0.66066(15)
O43_3 O 0.93297(17) 0.1534(2) 0.83934(15)
O44_3 O 0.6459(2) 0.40229(18) 0.66534(16)
O46_3 O 0.8541(2) 0.09771(18) 0.83466(16)
O47_3 O 0.68134(16) 0.36438(17) 0.70445(13)
O49_3 O 0.86438(17) 0.81866(16) 0.79555(13)
O50_3 O 0.7320(4) 0.4817(2) 0.7800(3)
O51_3 O 0.76080(19) 0.80657(18) 0.78339(17)
O52_3 O 0.8967(2) 0.09665(18) 0.89763(15)
N3_3 N 0.8601(4) 0.0276(4) 0.9168(4)
C73_3 C 0.8641(4) 0.0648(4) 0.8991(4)
H51_3 H 0.8393 0.0699 0.8848
H54_3 H 0.7983 0.0119 0.9244
C75_3 C 0.9042(5) 0.0137(7) 0.9335(6)
H56_3 H 0.9135 0.0379 0.9483
H57_3 H 0.9281 0.0090 0.9174
N4_3 N 0.7018(3) 0.7923(3) 0.7485(3)
C76_3 C 0.7269(4) 0.7993(6) 0.7733(3)
H58_3 H 0.7070 0.7972 0.7912
C77_3 C 0.7085(4) 0.8134(5) 0.7188(3)
H59_3 H 0.6854 0.8026 0.7036
H60_3 H 0.7390 0.8058 0.7107
H61_3 H 0.7059 0.8465 0.7213
C78_3 C 0.6593(4) 0.7672(6) 0.7557(4)
H62_3 H 0.6420 0.7626 0.7358
H63_3 H 0.6409 0.7848 0.7709
H64_3 H 0.6669 0.7375 0.7650
H67 H 0.987866 0.814498 0.978211
O18_7 O 0.0067(3) 0.1981(2) 0.0000
O23_6 O 0.02406(18) 0.63687(18) 0.03359(15)
O34_6 O 0.06822(18) 0.27029(18) 0.03434(15)
H68_2 H 0.026998 0.182547 0.0156363
O18_8 O 0.0067(3) 0.1981(2) 1.0000
H67_2 H 0.0121344 0.185502 0.978211
O16_7 O 0.9606(2) 0.5654(2) 0.0000
O21_6 O 0.97532(19) 0.28667(19) 0.03275(16)
O36_6 O 0.92922(18) 0.65388(18) 0.03285(14)
H66_2 H 0.980881 0.549657 0.0155529
O16_8 O 0.9606(2) 0.5654(2) 1.0000
H65_2 H 0.965774 0.55279 0.978183
Zn3_5 Zn 0.63265(3) 0.02545(4) 0.0000
O16_9 O 0.5654(2) 0.0394(2) 0.0000
Zn12_5 Zn 0.73471(4) 0.02006(4) 0.0000
O21_7 O 0.28667(19) 0.02468(19) 0.03275(16)
O36_7 O 0.65388(18) 0.07078(18) 0.03285(14)
H66_3 H 0.549657 0.0191191 0.0155529
Zn3_6 Zn 0.63265(3) 0.02545(4) 1.0000
C1_4 C 0.2400(2) 0.1269(3) 0.8736(3)
C2_4 C 0.2835(2) 0.1162(3) 0.8907(2)
C3_4 C 0.2834(2) 0.0861(3) 0.9167(2)
H1_4 H 0.2552 0.0748 0.9248
C4_4 C 0.3246(3) 0.0722(3) 0.9310(2)
C5_4 C 0.3239(3) 0.0372(3) 0.9562(3)
C6_4 C 0.3647(3) 0.0894(4) 0.9197(3)
H2_4 H 0.3929 0.0813 0.9294
C7_4 C 0.3635(3) 0.1197(5) 0.8930(3)
C8_4 C 0.3223(3) 0.1370(3) 0.8805(2)
H3_4 H 0.3218 0.1619 0.8659
C9_4 C 0.4079(3) 0.1728(5) 0.8618(3)
H4_4 H 0.3909 0.2002 0.8690
H5_4 H 0.3931 0.1611 0.8421
C10_4 C 0.6921(3) 0.0823(3) 0.9546(3)
C11_4 C 0.6932(3) 0.1154(3) 0.9291(2)
C12_4 C 0.7329(2) 0.1263(3) 0.9136(2)
H6_4 H 0.7610 0.1145 0.9213
C13_4 C 0.7326(3) 0.1542(3) 0.8871(2)
C14_4 C 0.7755(3) 0.1640(3) 0.8700(3)
C15_4 C 0.6922(3) 0.1730(3) 0.8762(2)
H7_4 H 0.6921 0.1928 0.8582
C16_4 C 0.6519(3) 0.1625(4) 0.8921(3)
C17_4 C 0.6521(3) 0.1349(3) 0.9186(3)
H8_4 H 0.6245 0.1290 0.9299
C18_4 C 0.5719(3) 0.1657(5) 0.8906(3)
H9_4 H 0.5673 0.1740 0.9134
H10_4 H 0.5713 0.1320 0.8887
C19_4 C 0.5695(3) 0.3232(3) 0.6875(3)
C20_4 C 0.5257(2) 0.3149(3) 0.7037(2)
C21_4 C 0.4848(2) 0.3289(3) 0.6916(2)
H11_4 H 0.4848 0.3463 0.6724
C22_4 C 0.4447(3) 0.3195(3) 0.7054(2)
C23_4 C 0.3997(2) 0.3340(3) 0.6916(3)
C24_4 C 0.4458(3) 0.3011(3) 0.7356(3)
H12_4 H 0.4183 0.2981 0.7475
C25_4 C 0.4863(3) 0.2870(4) 0.7491(3)
C26_4 C 0.5266(3) 0.2936(4) 0.7334(3)
H13_4 H 0.5547 0.2838 0.7426
C27_4 C 0.5111(4) 0.2228(4) 0.8240(3)
C28_4 C 0.4659(3) 0.2116(4) 0.8290(3)
H14_4 H 0.4426 0.2218 0.8148
C29_4 C 0.5216(4) 0.2519(5) 0.7950(3)
H15_4 H 0.5406 0.2782 0.8017
H16_4 H 0.5395 0.2336 0.7794
C30_4 C 0.4909(4) 0.1726(4) 0.8757(3)
H17_4 H 0.4839 0.1541 0.8937
C31_4 C 0.5347(4) 0.1863(5) 0.8702(3)
C32_4 C 0.5443(4) 0.2085(4) 0.8426(3)
H18_4 H 0.5752 0.2137 0.8367
C33_4 C 0.4562(4) 0.1859(4) 0.8543(3)
O1_4 O 0.28667(19) 0.02468(19) 0.96725(16)
O2_4 O 0.36313(18) 0.02406(18) 0.96641(15)
O3_4 O 0.20432(17) 0.11071(17) 0.88569(15)
O5_4 O 0.4060(2) 0.1389(4) 0.8861(2)
O7_4 O 0.77317(16) 0.18521(19) 0.84261(15)
O8_4 O 0.72971(18) 0.06822(18) 0.96566(15)
O9_4 O 0.65388(18) 0.07078(18) 0.96715(14)
O10_4 O 0.6141(2) 0.1829(3) 0.8795(2)
O11_4 O 0.60449(16) 0.30658(17) 0.69878(14)
O12_4 O 0.56703(17) 0.3466(2) 0.66066(15)
O13_4 O 0.40229(18) 0.3541(2) 0.66534(16)
O14_4 O 0.36438(17) 0.31866(16) 0.70445(13)
O15_4 O 0.4817(2) 0.2680(4) 0.7800(3)
O16_10 O 0.5654(2) 0.0394(2) 1.0000
O17_4 O 0.80657(18) 0.23920(19) 0.78339(17)
O19_4 O 0.09665(18) 0.1033(2) 0.89763(15)
N1_4 N 0.0276(4) 0.1399(4) 0.9168(4)
C34_4 C 0.0648(4) 0.1359(4) 0.8991(4)
H19_4 H 0.0699 0.1607 0.8848
H22_4 H 0.0119 0.2017 0.9244
C36_4 C 0.0137(7) 0.0958(5) 0.9335(6)
H24_4 H 0.0379 0.0865 0.9483
H25_4 H 0.0090 0.0719 0.9174
N2_4 N 0.7923(3) 0.2982(3) 0.7485(3)
C37_4 C 0.7993(6) 0.2731(4) 0.7733(3)
H26_4 H 0.7972 0.2930 0.7912
C38_4 C 0.8134(5) 0.2915(4) 0.7188(3)
H27_4 H 0.8026 0.3146 0.7036
H28_4 H 0.8058 0.2610 0.7107
H29_4 H 0.8465 0.2941 0.7213
C39_4 C 0.7672(6) 0.3407(4) 0.7557(4)
H30_4 H 0.7626 0.3580 0.7358
H31_4 H 0.7848 0.3591 0.7709
H32_4 H 0.7375 0.3331 0.7650
Zn12_6 Zn 0.73471(4) 0.02006(4) 1.0000
O39_4 O 0.89551(16) 0.19342(17) 0.80122(14)
O42_4 O 0.1534(2) 0.06703(17) 0.83934(15)
O45_4 O 0.09771(18) 0.1459(2) 0.83466(16)
O48_4 O 0.81866(16) 0.13562(17) 0.79555(13)
H65_3 H 0.55279 0.0342263 0.978183
Zn2_5 Zn 0.26529(4) 0.97994(4) 0.0000
O18_9 O 0.1981(2) 0.9933(3) 0.0000
Zn13_5 Zn 0.36735(3) 0.97455(4) 0.0000
O23_7 O 0.63687(18) 0.97594(18) 0.03359(15)
O34_7 O 0.27029(18) 0.93178(18) 0.03434(15)
H68_3 H 0.182547 0.973002 0.0156363
Zn2_6 Zn 0.26529(4) 0.97994(4) 1.0000
O18_10 O 0.1981(2) 0.9933(3) 1.0000
Zn13_6 Zn 0.36735(3) 0.97455(4) 1.0000
C40_4 C 0.7600(2) 0.8731(3) 0.8736(3)
C41_4 C 0.7165(2) 0.8838(3) 0.8907(2)
C42_4 C 0.7166(2) 0.9139(3) 0.9167(2)
H33_4 H 0.7448 0.9252 0.9248
C43_4 C 0.6754(3) 0.9278(3) 0.9310(2)
C44_4 C 0.6761(3) 0.9628(3) 0.9562(3)
C45_4 C 0.6353(3) 0.9106(4) 0.9197(3)
H34_4 H 0.6071 0.9187 0.9294
C46_4 C 0.6365(3) 0.8803(5) 0.8930(3)
C47_4 C 0.6777(3) 0.8630(3) 0.8805(2)
H35_4 H 0.6782 0.8381 0.8659
C48_4 C 0.5921(3) 0.8272(5) 0.8618(3)
H36_4 H 0.6091 0.7998 0.8690
H37_4 H 0.6069 0.8389 0.8421
C49_4 C 0.3079(3) 0.9177(3) 0.9546(3)
C50_4 C 0.3068(3) 0.8846(3) 0.9291(2)
C51_4 C 0.2671(2) 0.8737(3) 0.9136(2)
H38_4 H 0.2390 0.8855 0.9213
C52_4 C 0.2674(3) 0.8458(3) 0.8871(2)
C53_4 C 0.2245(3) 0.8360(3) 0.8700(3)
C54_4 C 0.3078(3) 0.8270(3) 0.8762(2)
H39_4 H 0.3079 0.8072 0.8582
C55_4 C 0.3481(3) 0.8375(4) 0.8921(3)
C56_4 C 0.3479(3) 0.8651(3) 0.9186(3)
H40_4 H 0.3755 0.8710 0.9299
C57_4 C 0.4281(3) 0.8343(5) 0.8906(3)
H41_4 H 0.4327 0.8260 0.9134
H42_4 H 0.4287 0.8680 0.8887
C58_4 C 0.4305(3) 0.6768(3) 0.6875(3)
C59_4 C 0.4743(2) 0.6851(3) 0.7037(2)
C60_4 C 0.5152(2) 0.6711(3) 0.6916(2)
H43_4 H 0.5152 0.6537 0.6724
C61_4 C 0.5553(3) 0.6805(3) 0.7054(2)
C62_4 C 0.6003(2) 0.6660(3) 0.6916(3)
C63_4 C 0.5542(3) 0.6989(3) 0.7356(3)
H44_4 H 0.5817 0.7019 0.7475
C64_4 C 0.5137(3) 0.7130(4) 0.7491(3)
C65_4 C 0.4734(3) 0.7064(4) 0.7334(3)
H45_4 H 0.4453 0.7162 0.7426
C66_4 C 0.4889(4) 0.7772(4) 0.8240(3)
C67_4 C 0.5341(3) 0.7884(4) 0.8290(3)
H46_4 H 0.5574 0.7782 0.8148
C68_4 C 0.4784(4) 0.7481(5) 0.7950(3)
H47_4 H 0.4594 0.7218 0.8017
H48_4 H 0.4605 0.7664 0.7794
C69_4 C 0.5091(4) 0.8274(4) 0.8757(3)
H49_4 H 0.5161 0.8459 0.8937
C70_4 C 0.4653(4) 0.8137(5) 0.8702(3)
C71_4 C 0.4557(4) 0.7915(4) 0.8426(3)
H50_4 H 0.4248 0.7863 0.8367
C72_4 C 0.5438(4) 0.8141(4) 0.8543(3)
O20_4 O 0.71333(19) 0.97532(19) 0.96725(16)
O22_4 O 0.63687(18) 0.97594(18) 0.96641(15)
O24_4 O 0.79568(17) 0.88929(17) 0.88569(15)
O28_4 O 0.5940(2) 0.8611(4) 0.8861(2)
O32_4 O 0.22683(16) 0.81479(19) 0.84261(15)
O33_4 O 0.27029(18) 0.93178(18) 0.96566(15)
O35_4 O 0.34612(18) 0.92922(18) 0.96715(14)
O37_4 O 0.3859(2) 0.8171(3) 0.8795(2)
O38_4 O 0.39551(16) 0.69342(17) 0.69878(14)
O40_4 O 0.10449(16) 0.80658(17) 0.80122(14)
O41_4 O 0.43297(17) 0.6534(2) 0.66066(15)
O43_4 O 0.8466(2) 0.93297(17) 0.83934(15)
O44_4 O 0.59771(18) 0.6459(2) 0.66534(16)
O46_4 O 0.90229(18) 0.8541(2) 0.83466(16)
O47_4 O 0.63562(17) 0.68134(16) 0.70445(13)
O49_4 O 0.18134(16) 0.86438(17) 0.79555(13)
O50_4 O 0.5183(2) 0.7320(4) 0.7800(3)
O51_4 O 0.19343(18) 0.76080(19) 0.78339(17)
O52_4 O 0.90335(18) 0.8967(2) 0.89763(15)
N3_4 N 0.9724(4) 0.8601(4) 0.9168(4)
C73_4 C 0.9352(4) 0.8641(4) 0.8991(4)
H51_4 H 0.9301 0.8393 0.8848
H54_4 H 0.9881 0.7983 0.9244
C75_4 C 0.9863(7) 0.9042(5) 0.9335(6)
H56_4 H 0.9621 0.9135 0.9483
H57_4 H 0.9910 0.9281 0.9174
N4_4 N 0.2077(3) 0.7018(3) 0.7485(3)
C76_4 C 0.2007(6) 0.7269(4) 0.7733(3)
H58_4 H 0.2028 0.7070 0.7912
C77_4 C 0.1866(5) 0.7085(4) 0.7188(3)
H59_4 H 0.1974 0.6854 0.7036
H60_4 H 0.1942 0.7390 0.7107
H61_4 H 0.1535 0.7059 0.7213
C78_4 C 0.2328(6) 0.6593(4) 0.7557(4)
H62_4 H 0.2374 0.6420 0.7358
H63_4 H 0.2152 0.6409 0.7709
H64_4 H 0.2625 0.6669 0.7650
H67_3 H 0.185502 0.987866 0.978211
O18_11 O 0.8019(2) 0.0067(3) 0.0000
O23_8 O 0.36313(18) 0.02406(18) 0.03359(15)
O34_8 O 0.72971(18) 0.06822(18) 0.03434(15)
H68_4 H 0.817453 0.026998 0.0156363
O18_12 O 0.8019(2) 0.0067(3) 1.0000
H67_4 H 0.814498 0.0121344 0.978211
O16_11 O 0.4346(2) 0.9606(2) 0.0000
O21_8 O 0.71333(19) 0.97532(19) 0.03275(16)
O36_8 O 0.34612(18) 0.92922(18) 0.03285(14)
H66_4 H 0.450343 0.980881 0.0155529
O16_12 O 0.4346(2) 0.9606(2) 1.0000
H65_4 H 0.44721 0.965774 0.978183
C10_5 C 0.4177(3) 0.1921(3) 0.5454(3)
C11_5 C 0.3846(3) 0.1932(3) 0.5709(2)
C12_5 C 0.3737(3) 0.2329(2) 0.5864(2)
H6_5 H 0.3855 0.2610 0.5787
C13_5 C 0.3458(3) 0.2326(3) 0.6129(2)
C14_5 C 0.3360(3) 0.2755(3) 0.6300(3)
C15_5 C 0.3270(3) 0.1922(3) 0.6238(2)
H7_5 H 0.3072 0.1921 0.6418
C16_5 C 0.3375(4) 0.1519(3) 0.6079(3)
C17_5 C 0.3651(3) 0.1521(3) 0.5814(3)
H8_5 H 0.3710 0.1245 0.5701
C18_5 C 0.3343(5) 0.0719(3) 0.6094(3)
H9_5 H 0.3260 0.0673 0.5866
H10_5 H 0.3680 0.0713 0.6113
C19_5 C 0.1768(3) 0.0695(3) 0.8125(3)
C20_5 C 0.1851(3) 0.0257(2) 0.7963(2)
C26_5 C 0.2064(4) 0.0266(3) 0.7666(3)
H13_5 H 0.2162 0.0547 0.7574
C27_5 C 0.2772(4) 0.0111(4) 0.6760(3)
C29_5 C 0.2481(5) 0.0216(4) 0.7050(3)
H15_5 H 0.2218 0.0406 0.6983
H16_5 H 0.2664 0.0395 0.7206
C31_5 C 0.3137(5) 0.0347(4) 0.6298(3)
C32_5 C 0.2915(4) 0.0443(4) 0.6574(3)
H18_5 H 0.2863 0.0752 0.6633
O6_3 O 0.35225(18) 0.31147(17) 0.61859(15)
O7_5 O 0.31479(19) 0.27317(16) 0.65739(15)
O10_5 O 0.3171(3) 0.1141(2) 0.6205(2)
O17_5 O 0.26080(19) 0.30657(18) 0.71661(17)
N2_5 N 0.2018(3) 0.2923(3) 0.7515(3)
C37_5 C 0.2269(4) 0.2993(6) 0.7267(3)
H26_5 H 0.2070 0.2972 0.7088
C38_5 C 0.2085(4) 0.3134(5) 0.7812(3)
H27_5 H 0.1854 0.3026 0.7964
H28_5 H 0.2390 0.3058 0.7893
H29_5 H 0.2059 0.3465 0.7787
C39_5 C 0.1593(4) 0.2672(6) 0.7443(4)
H30_5 H 0.1420 0.2626 0.7642
H31_5 H 0.1409 0.2848 0.7291
H32_5 H 0.1669 0.2375 0.7350
C40_5 C 0.6269(3) 0.2600(2) 0.6264(3)
C41_5 C 0.6162(3) 0.2165(2) 0.6093(2)
C42_5 C 0.5861(3) 0.2166(2) 0.5833(2)
H33_5 H 0.5748 0.2448 0.5752
C43_5 C 0.5722(3) 0.1754(3) 0.5690(2)
C44_5 C 0.5372(3) 0.1761(3) 0.5438(3)
C45_5 C 0.5894(4) 0.1353(3) 0.5803(3)
H34_5 H 0.5813 0.1071 0.5706
C46_5 C 0.6197(5) 0.1365(3) 0.6070(3)
C47_5 C 0.6370(3) 0.1777(3) 0.6195(2)
H35_5 H 0.6619 0.1782 0.6341
C48_5 C 0.6728(5) 0.0921(3) 0.6382(3)
H36_5 H 0.7002 0.1091 0.6310
H37_5 H 0.6611 0.1069 0.6579
C60_5 C 0.8289(3) 0.0152(2) 0.8084(2)
H43_5 H 0.8463 0.0152 0.8276
C61_5 C 0.8195(3) 0.0553(3) 0.7946(2)
C62_5 C 0.8340(3) 0.1003(2) 0.8084(3)
C63_5 C 0.8011(3) 0.0542(3) 0.7644(3)
H44_5 H 0.7981 0.0817 0.7525
C64_5 C 0.7870(4) 0.0137(3) 0.7509(3)
C67_5 C 0.7116(4) 0.0341(3) 0.6710(3)
H46_5 H 0.7218 0.0574 0.6852
C69_5 C 0.6726(4) 0.0091(4) 0.6243(3)
H49_5 H 0.6541 0.0161 0.6063
C72_5 C 0.6859(4) 0.0438(4) 0.6457(3)
O24_5 O 0.61071(17) 0.29568(17) 0.61431(15)
O25_3 O 0.65087(19) 0.25700(17) 0.65147(16)
O26_3 O 0.25700(17) 0.34913(19) 0.65147(16)
O28_5 O 0.6389(4) 0.0940(2) 0.6139(2)
O31_3 O 0.68853(17) 0.35225(18) 0.61859(15)
O50_5 O 0.7680(4) 0.0183(2) 0.7200(3)
O52_5 O 0.6033(2) 0.40335(18) 0.60237(15)
N3_5 N 0.6399(4) 0.4724(4) 0.5832(4)
C73_5 C 0.6359(4) 0.4352(4) 0.6009(4)
H51_5 H 0.6607 0.4301 0.6152
C74_3 C 0.6734(4) 0.5030(4) 0.5825(4)
H52_3 H 0.6657 0.5273 0.5673
H53_3 H 0.6776 0.5160 0.6039
H54_5 H 0.7017 0.4881 0.5756
C75_5 C 0.5958(5) 0.4863(7) 0.5665(6)
H55_3 H 0.6008 0.5147 0.5546
H56_5 H 0.5865 0.4621 0.5517
H57_5 H 0.5719 0.4910 0.5826
C1_5 C 0.3731(3) 0.7400(2) 0.6264(3)
C2_5 C 0.3838(3) 0.7835(2) 0.6093(2)
C3_5 C 0.4139(3) 0.7834(2) 0.5833(2)
H1_5 H 0.4252 0.7552 0.5752
C4_5 C 0.4278(3) 0.8246(3) 0.5690(2)
C5_5 C 0.4628(3) 0.8239(3) 0.5438(3)
C6_5 C 0.4106(4) 0.8647(3) 0.5803(3)
H2_5 H 0.4187 0.8929 0.5706
C7_5 C 0.3803(5) 0.8635(3) 0.6070(3)
C8_5 C 0.3630(3) 0.8223(3) 0.6195(2)
H3_5 H 0.3381 0.8218 0.6341
C9_5 C 0.3272(5) 0.9079(3) 0.6382(3)
H4_5 H 0.2998 0.8909 0.6310
H5_5 H 0.3389 0.8931 0.6579
C21_5 C 0.1711(3) 0.9848(2) 0.8084(2)
H11_5 H 0.1537 0.9848 0.8276
C22_5 C 0.1805(3) 0.9447(3) 0.7946(2)
C23_5 C 0.1660(3) 0.8997(2) 0.8084(3)
C24_5 C 0.1989(3) 0.9458(3) 0.7644(3)
H12_5 H 0.2019 0.9183 0.7525
C25_5 C 0.2130(4) 0.9863(3) 0.7509(3)
C28_5 C 0.2884(4) 0.9659(3) 0.6710(3)
H14_5 H 0.2782 0.9426 0.6852
C30_5 C 0.3274(4) 0.9909(4) 0.6243(3)
H17_5 H 0.3459 0.9839 0.6063
C33_5 C 0.3141(4) 0.9562(4) 0.6457(3)
O3_5 O 0.38929(17) 0.70432(17) 0.61431(15)
O4_3 O 0.34913(19) 0.74300(17) 0.65147(16)
O5_5 O 0.3611(4) 0.9060(2) 0.6139(2)
O15_5 O 0.2320(4) 0.9817(2) 0.7200(3)
O19_5 O 0.3967(2) 0.59665(18) 0.60237(15)
N1_5 N 0.3601(4) 0.5276(4) 0.5832(4)
C34_5 C 0.3641(4) 0.5648(4) 0.6009(4)
H19_5 H 0.3393 0.5699 0.6152
C35_3 C 0.3266(4) 0.4970(4) 0.5825(4)
H20_3 H 0.3343 0.4727 0.5673
H21_3 H 0.3224 0.4840 0.6039
H22_5 H 0.2983 0.5119 0.5756
C36_5 C 0.4042(5) 0.5137(7) 0.5665(6)
H23_3 H 0.3992 0.4853 0.5546
H24_5 H 0.4135 0.5379 0.5517
H25_5 H 0.4281 0.5090 0.5826
C49_5 C 0.5823(3) 0.8079(3) 0.5454(3)
C50_5 C 0.6154(3) 0.8068(3) 0.5709(2)
C51_5 C 0.6263(3) 0.7671(2) 0.5864(2)
H38_5 H 0.6145 0.7390 0.5787
C52_5 C 0.6542(3) 0.7674(3) 0.6129(2)
C53_5 C 0.6640(3) 0.7245(3) 0.6300(3)
C54_5 C 0.6730(3) 0.8078(3) 0.6238(2)
H39_5 H 0.6928 0.8079 0.6418
C55_5 C 0.6625(4) 0.8481(3) 0.6079(3)
C56_5 C 0.6349(3) 0.8479(3) 0.5814(3)
H40_5 H 0.6290 0.8755 0.5701
C57_5 C 0.6657(5) 0.9281(3) 0.6094(3)
H41_5 H 0.6740 0.9327 0.5866
H42_5 H 0.6320 0.9287 0.6113
C58_5 C 0.8232(3) 0.9305(3) 0.8125(3)
C59_5 C 0.8149(3) 0.9743(2) 0.7963(2)
C65_5 C 0.7936(4) 0.9734(3) 0.7666(3)
H45_5 H 0.7838 0.9453 0.7574
C66_5 C 0.7228(4) 0.9889(4) 0.6760(3)
C68_5 C 0.7519(5) 0.9784(4) 0.7050(3)
H47_5 H 0.7782 0.9594 0.6983
H48_5 H 0.7336 0.9605 0.7206
C70_5 C 0.6863(5) 0.9653(4) 0.6298(3)
C71_5 C 0.7085(4) 0.9557(4) 0.6574(3)
H50_5 H 0.7137 0.9248 0.6633
O27_3 O 0.74300(17) 0.65087(19) 0.65147(16)
O29_3 O 0.64775(18) 0.68853(17) 0.61859(15)
O30_3 O 0.31147(17) 0.64775(18) 0.61859(15)
O32_5 O 0.68521(19) 0.72683(16) 0.65739(15)
O37_5 O 0.6829(3) 0.8859(2) 0.6205(2)
O51_5 O 0.73920(19) 0.69343(18) 0.71661(17)
N4_5 N 0.7982(3) 0.7077(3) 0.7515(3)
C76_5 C 0.7731(4) 0.7007(6) 0.7267(3)
H58_5 H 0.7930 0.7028 0.7088
C77_5 C 0.7915(4) 0.6866(5) 0.7812(3)
H59_5 H 0.8146 0.6974 0.7964
H60_5 H 0.7610 0.6942 0.7893
H61_5 H 0.7941 0.6535 0.7787
C78_5 C 0.8407(4) 0.7328(6) 0.7443(4)
H62_5 H 0.8580 0.7374 0.7642
H63_5 H 0.8591 0.7152 0.7291
H64_5 H 0.8331 0.7625 0.7350
C1_6 C 0.2600(2) 0.3731(3) 0.6264(3)
C2_6 C 0.2165(2) 0.3838(3) 0.6093(2)
C3_6 C 0.2166(2) 0.4139(3) 0.5833(2)
H1_6 H 0.2448 0.4252 0.5752
C4_6 C 0.1754(3) 0.4278(3) 0.5690(2)
C5_6 C 0.1761(3) 0.4628(3) 0.5438(3)
C6_6 C 0.1353(3) 0.4106(4) 0.5803(3)
H2_6 H 0.1071 0.4187 0.5706
C7_6 C 0.1365(3) 0.3803(5) 0.6070(3)
C8_6 C 0.1777(3) 0.3630(3) 0.6195(2)
H3_6 H 0.1782 0.3381 0.6341
C9_6 C 0.0921(3) 0.3272(5) 0.6382(3)
H4_6 H 0.1091 0.2998 0.6310
H5_6 H 0.1069 0.3389 0.6579
C21_6 C 0.0152(2) 0.1711(3) 0.8084(2)
H11_6 H 0.0152 0.1537 0.8276
C22_6 C 0.0553(3) 0.1805(3) 0.7946(2)
C23_6 C 0.1003(2) 0.1660(3) 0.8084(3)
C24_6 C 0.0542(3) 0.1989(3) 0.7644(3)
H12_6 H 0.0817 0.2019 0.7525
C25_6 C 0.0137(3) 0.2130(4) 0.7509(3)
C28_6 C 0.0341(3) 0.2884(4) 0.6710(3)
H14_6 H 0.0574 0.2782 0.6852
C30_6 C 0.0091(4) 0.3274(4) 0.6243(3)
H17_6 H 0.0161 0.3459 0.6063
C33_6 C 0.0438(4) 0.3141(4) 0.6457(3)
O3_6 O 0.29568(17) 0.38929(17) 0.61431(15)
O5_6 O 0.0940(2) 0.3611(4) 0.6139(2)
O15_6 O 0.0183(2) 0.2320(4) 0.7200(3)
O19_6 O 0.40335(18) 0.3967(2) 0.60237(15)
N1_6 N 0.4724(4) 0.3601(4) 0.5832(4)
C34_6 C 0.4352(4) 0.3641(4) 0.6009(4)
H19_6 H 0.4301 0.3393 0.6152
C35_4 C 0.5030(4) 0.3266(4) 0.5825(4)
H20_4 H 0.5273 0.3343 0.5673
H21_4 H 0.5160 0.3224 0.6039
H22_6 H 0.4881 0.2983 0.5756
C36_6 C 0.4863(7) 0.4042(5) 0.5665(6)
H23_4 H 0.5147 0.3992 0.5546
H24_6 H 0.4621 0.4135 0.5517
H25_6 H 0.4910 0.4281 0.5826
C49_6 C 0.1921(3) 0.5823(3) 0.5454(3)
C50_6 C 0.1932(3) 0.6154(3) 0.5709(2)
C51_6 C 0.2329(2) 0.6263(3) 0.5864(2)
H38_6 H 0.2610 0.6145 0.5787
C52_6 C 0.2326(3) 0.6542(3) 0.6129(2)
C53_6 C 0.2755(3) 0.6640(3) 0.6300(3)
C54_6 C 0.1922(3) 0.6730(3) 0.6238(2)
H39_6 H 0.1921 0.6928 0.6418
C55_6 C 0.1519(3) 0.6625(4) 0.6079(3)
C56_6 C 0.1521(3) 0.6349(3) 0.5814(3)
H40_6 H 0.1245 0.6290 0.5701
C57_6 C 0.0719(3) 0.6657(5) 0.6094(3)
H41_6 H 0.0673 0.6740 0.5866
H42_6 H 0.0713 0.6320 0.6113
C58_6 C 0.0695(3) 0.8232(3) 0.8125(3)
C59_6 C 0.0257(2) 0.8149(3) 0.7963(2)
C65_6 C 0.0266(3) 0.7936(4) 0.7666(3)
H45_6 H 0.0547 0.7838 0.7574
C66_6 C 0.0111(4) 0.7228(4) 0.6760(3)
C68_6 C 0.0216(4) 0.7519(5) 0.7050(3)
H47_6 H 0.0406 0.7782 0.6983
H48_6 H 0.0395 0.7336 0.7206
C70_6 C 0.0347(4) 0.6863(5) 0.6298(3)
C71_6 C 0.0443(4) 0.7085(4) 0.6574(3)
H50_6 H 0.0752 0.7137 0.6633
O32_6 O 0.27317(16) 0.68521(19) 0.65739(15)
O37_6 O 0.1141(2) 0.6829(3) 0.6205(2)
O51_6 O 0.30657(18) 0.73920(19) 0.71661(17)
N4_6 N 0.2923(3) 0.7982(3) 0.7515(3)
C76_6 C 0.2993(6) 0.7731(4) 0.7267(3)
H58_6 H 0.2972 0.7930 0.7088
C77_6 C 0.3134(5) 0.7915(4) 0.7812(3)
H59_6 H 0.3026 0.8146 0.7964
H60_6 H 0.3058 0.7610 0.7893
H61_6 H 0.3465 0.7941 0.7787
C78_6 C 0.2672(6) 0.8407(4) 0.7443(4)
H62_6 H 0.2626 0.8580 0.7642
H63_6 H 0.2848 0.8591 0.7291
H64_6 H 0.2375 0.8331 0.7350
C10_6 C 0.8079(3) 0.4177(3) 0.5454(3)
C11_6 C 0.8068(3) 0.3846(3) 0.5709(2)
C12_6 C 0.7671(2) 0.3737(3) 0.5864(2)
H6_6 H 0.7390 0.3855 0.5787
C13_6 C 0.7674(3) 0.3458(3) 0.6129(2)
C14_6 C 0.7245(3) 0.3360(3) 0.6300(3)
C15_6 C 0.8078(3) 0.3270(3) 0.6238(2)
H7_6 H 0.8079 0.3072 0.6418
C16_6 C 0.8481(3) 0.3375(4) 0.6079(3)
C17_6 C 0.8479(3) 0.3651(3) 0.5814(3)
H8_6 H 0.8755 0.3710 0.5701
C18_6 C 0.9281(3) 0.3343(5) 0.6094(3)
H9_6 H 0.9327 0.3260 0.5866
H10_6 H 0.9287 0.3680 0.6113
C19_6 C 0.9305(3) 0.1768(3) 0.8125(3)
C20_6 C 0.9743(2) 0.1851(3) 0.7963(2)
C26_6 C 0.9734(3) 0.2064(4) 0.7666(3)
H13_6 H 0.9453 0.2162 0.7574
C27_6 C 0.9889(4) 0.2772(4) 0.6760(3)
C29_6 C 0.9784(4) 0.2481(5) 0.7050(3)
H15_6 H 0.9594 0.2218 0.6983
H16_6 H 0.9605 0.2664 0.7206
C31_6 C 0.9653(4) 0.3137(5) 0.6298(3)
C32_6 C 0.9557(4) 0.2915(4) 0.6574(3)
H18_6 H 0.9248 0.2863 0.6633
O7_6 O 0.72683(16) 0.31479(19) 0.65739(15)
O10_6 O 0.8859(2) 0.3171(3) 0.6205(2)
O17_6 O 0.69343(18) 0.26080(19) 0.71661(17)
N2_6 N 0.7077(3) 0.2018(3) 0.7515(3)
C37_6 C 0.7007(6) 0.2269(4) 0.7267(3)
H26_6 H 0.7028 0.2070 0.7088
C38_6 C 0.6866(5) 0.2085(4) 0.7812(3)
H27_6 H 0.6974 0.1854 0.7964
H28_6 H 0.6942 0.2390 0.7893
H29_6 H 0.6535 0.2059 0.7787
C39_6 C 0.7328(6) 0.1593(4) 0.7443(4)
H30_6 H 0.7374 0.1420 0.7642
H31_6 H 0.7152 0.1409 0.7291
H32_6 H 0.7625 0.1669 0.7350
C40_6 C 0.7400(2) 0.6269(3) 0.6264(3)
C41_6 C 0.7835(2) 0.6162(3) 0.6093(2)
C42_6 C 0.7834(2) 0.5861(3) 0.5833(2)
H33_6 H 0.7552 0.5748 0.5752
C43_6 C 0.8246(3) 0.5722(3) 0.5690(2)
C44_6 C 0.8239(3) 0.5372(3) 0.5438(3)
C45_6 C 0.8647(3) 0.5894(4) 0.5803(3)
H34_6 H 0.8929 0.5813 0.5706
C46_6 C 0.8635(3) 0.6197(5) 0.6070(3)
C47_6 C 0.8223(3) 0.6370(3) 0.6195(2)
H35_6 H 0.8218 0.6619 0.6341
C48_6 C 0.9079(3) 0.6728(5) 0.6382(3)
H36_6 H 0.8909 0.7002 0.6310
H37_6 H 0.8931 0.6611 0.6579
C60_6 C 0.9848(2) 0.8289(3) 0.8084(2)
H43_6 H 0.9848 0.8463 0.8276
C61_6 C 0.9447(3) 0.8195(3) 0.7946(2)
C62_6 C 0.8997(2) 0.8340(3) 0.8084(3)
C63_6 C 0.9458(3) 0.8011(3) 0.7644(3)
H44_6 H 0.9183 0.7981 0.7525
C64_6 C 0.9863(3) 0.7870(4) 0.7509(3)
C67_6 C 0.9659(3) 0.7116(4) 0.6710(3)
H46_6 H 0.9426 0.7218 0.6852
C69_6 C 0.9909(4) 0.6726(4) 0.6243(3)
H49_6 H 0.9839 0.6541 0.6063
C72_6 C 0.9562(4) 0.6859(4) 0.6457(3)
O24_6 O 0.70432(17) 0.61071(17) 0.61431(15)
O28_6 O 0.9060(2) 0.6389(4) 0.6139(2)
O50_6 O 0.9817(2) 0.7680(4) 0.7200(3)
O52_6 O 0.59665(18) 0.6033(2) 0.60237(15)
N3_6 N 0.5276(4) 0.6399(4) 0.5832(4)
C73_6 C 0.5648(4) 0.6359(4) 0.6009(4)
H51_6 H 0.5699 0.6607 0.6152
C74_4 C 0.4970(4) 0.6734(4) 0.5825(4)
H52_4 H 0.4727 0.6657 0.5673
H53_4 H 0.4840 0.6776 0.6039
H54_6 H 0.5119 0.7017 0.5756
C75_6 C 0.5137(7) 0.5958(5) 0.5665(6)
H55_4 H 0.4853 0.6008 0.5546
H56_6 H 0.5379 0.5865 0.5517
H57_6 H 0.5090 0.5719 0.5826
C40_7 C 0.1269(3) 0.7600(2) 0.1264(3)
C41_7 C 0.1162(3) 0.7165(2) 0.1093(2)
C42_7 C 0.0861(3) 0.7166(2) 0.0833(2)
H33_7 H 0.0748 0.7448 0.0752
C43_7 C 0.0722(3) 0.6754(3) 0.0690(2)
C44_7 C 0.0372(3) 0.6761(3) 0.0438(3)
C45_7 C 0.0894(4) 0.6353(3) 0.0803(3)
H34_7 H 0.0813 0.6071 0.0706
C46_7 C 0.1197(5) 0.6365(3) 0.1070(3)
C47_7 C 0.1370(3) 0.6777(3) 0.1195(2)
H35_7 H 0.1619 0.6782 0.1341
C48_7 C 0.1728(5) 0.5921(3) 0.1382(3)
H36_7 H 0.2002 0.6091 0.1310
H37_7 H 0.1611 0.6069 0.1579
C49_7 C 0.0823(3) 0.3079(3) 0.0454(3)
C50_7 C 0.1154(3) 0.3068(3) 0.0709(2)
C51_7 C 0.1263(3) 0.2671(2) 0.0864(2)
H38_7 H 0.1145 0.2390 0.0787
C52_7 C 0.1542(3) 0.2674(3) 0.1129(2)
C53_7 C 0.1640(3) 0.2245(3) 0.1300(3)
C54_7 C 0.1730(3) 0.3078(3) 0.1238(2)
H39_7 H 0.1928 0.3079 0.1418
C55_7 C 0.1625(4) 0.3481(3) 0.1079(3)
C56_7 C 0.1349(3) 0.3479(3) 0.0814(3)
H40_7 H 0.1290 0.3755 0.0701
C57_7 C 0.1657(5) 0.4281(3) 0.1094(3)
H41_7 H 0.1740 0.4327 0.0866
H42_7 H 0.1320 0.4287 0.1113
C58_7 C 0.3232(3) 0.4305(3) 0.3125(3)
C59_7 C 0.3149(3) 0.4743(2) 0.2963(2)
C60_7 C 0.3289(3) 0.5152(2) 0.3084(2)
H43_7 H 0.3463 0.5152 0.3276
C61_7 C 0.3195(3) 0.5553(3) 0.2946(2)
C62_7 C 0.3340(3) 0.6003(2) 0.3084(3)
C63_7 C 0.3011(3) 0.5542(3) 0.2644(3)
H44_7 H 0.2981 0.5817 0.2525
C64_7 C 0.2870(4) 0.5137(3) 0.2509(3)
C65_7 C 0.2936(4) 0.4734(3) 0.2666(3)
H45_7 H 0.2838 0.4453 0.2574
C66_7 C 0.2228(4) 0.4889(4) 0.1760(3)
C67_7 C 0.2116(4) 0.5341(3) 0.1710(3)
H46_7 H 0.2218 0.5574 0.1852
C68_7 C 0.2519(5) 0.4784(4) 0.2050(3)
H47_7 H 0.2782 0.4594 0.1983
H48_7 H 0.2336 0.4605 0.2206
C69_7 C 0.1726(4) 0.5091(4) 0.1243(3)
H49_7 H 0.1541 0.5161 0.1063
C70_7 C 0.1863(5) 0.4653(4) 0.1298(3)
C71_7 C 0.2085(4) 0.4557(4) 0.1574(3)
H50_7 H 0.2137 0.4248 0.1633
C72_7 C 0.1859(4) 0.5438(4) 0.1457(3)
O24_7 O 0.11071(17) 0.79568(17) 0.11431(15)
O25_4 O 0.15087(19) 0.75700(17) 0.15147(16)
O27_4 O 0.24300(17) 0.15087(19) 0.15147(16)
O28_7 O 0.1389(4) 0.5940(2) 0.1139(2)
O29_4 O 0.14775(18) 0.18853(17) 0.11859(15)
O31_4 O 0.18853(17) 0.85225(18) 0.11859(15)
O32_7 O 0.18521(19) 0.22683(16) 0.15739(15)
O37_7 O 0.1829(3) 0.3859(2) 0.1205(2)
O50_7 O 0.2680(4) 0.5183(2) 0.2200(3)
O51_7 O 0.23920(19) 0.19343(18) 0.21661(17)
O52_7 O 0.1033(2) 0.90335(18) 0.10237(15)
N3_7 N 0.1399(4) 0.9724(4) 0.0832(4)
C73_7 C 0.1359(4) 0.9352(4) 0.1009(4)
H51_7 H 0.1607 0.9301 0.1152
H54_7 H 0.2017 0.9881 0.0756
C75_7 C 0.0958(5) 0.9863(7) 0.0665(6)
H56_7 H 0.0865 0.9621 0.0517
H57_7 H 0.0719 0.9910 0.0826
N4_7 N 0.2982(3) 0.2077(3) 0.2515(3)
C76_7 C 0.2731(4) 0.2007(6) 0.2267(3)
H58_7 H 0.2930 0.2028 0.2088
C77_7 C 0.2915(4) 0.1866(5) 0.2812(3)
H59_7 H 0.3146 0.1974 0.2964
H60_7 H 0.2610 0.1942 0.2893
H61_7 H 0.2941 0.1535 0.2787
C78_7 C 0.3407(4) 0.2328(6) 0.2443(4)
H62_7 H 0.3580 0.2374 0.2642
H63_7 H 0.3591 0.2152 0.2291
H64_7 H 0.3331 0.2625 0.2350
H67_5 H 0.0121344 0.185502 0.0217887
H68_5 H 0.026998 0.182547 0.984364
C1_7 C 0.8731(3) 0.2400(2) 0.1264(3)
C2_7 C 0.8838(3) 0.2835(2) 0.1093(2)
C3_7 C 0.9139(3) 0.2834(2) 0.0833(2)
H1_7 H 0.9252 0.2552 0.0752
C4_7 C 0.9278(3) 0.3246(3) 0.0690(2)
C5_7 C 0.9628(3) 0.3239(3) 0.0438(3)
C6_7 C 0.9106(4) 0.3647(3) 0.0803(3)
H2_7 H 0.9187 0.3929 0.0706
C7_7 C 0.8803(5) 0.3635(3) 0.1070(3)
C8_7 C 0.8630(3) 0.3223(3) 0.1195(2)
H3_7 H 0.8381 0.3218 0.1341
C9_7 C 0.8272(5) 0.4079(3) 0.1382(3)
H4_7 H 0.7998 0.3909 0.1310
H5_7 H 0.8389 0.3931 0.1579
C10_7 C 0.9177(3) 0.6921(3) 0.0454(3)
C11_7 C 0.8846(3) 0.6932(3) 0.0709(2)
C12_7 C 0.8737(3) 0.7329(2) 0.0864(2)
H6_7 H 0.8855 0.7610 0.0787
C13_7 C 0.8458(3) 0.7326(3) 0.1129(2)
C14_7 C 0.8360(3) 0.7755(3) 0.1300(3)
C15_7 C 0.8270(3) 0.6922(3) 0.1238(2)
H7_7 H 0.8072 0.6921 0.1418
C16_7 C 0.8375(4) 0.6519(3) 0.1079(3)
C17_7 C 0.8651(3) 0.6521(3) 0.0814(3)
H8_7 H 0.8710 0.6245 0.0701
C18_7 C 0.8343(5) 0.5719(3) 0.1094(3)
H9_7 H 0.8260 0.5673 0.0866
H10_7 H 0.8680 0.5713 0.1113
C19_7 C 0.6768(3) 0.5695(3) 0.3125(3)
C20_7 C 0.6851(3) 0.5257(2) 0.2963(2)
C21_7 C 0.6711(3) 0.4848(2) 0.3084(2)
H11_7 H 0.6537 0.4848 0.3276
C22_7 C 0.6805(3) 0.4447(3) 0.2946(2)
C23_7 C 0.6660(3) 0.3997(2) 0.3084(3)
C24_7 C 0.6989(3) 0.4458(3) 0.2644(3)
H12_7 H 0.7019 0.4183 0.2525
C25_7 C 0.7130(4) 0.4863(3) 0.2509(3)
C26_7 C 0.7064(4) 0.5266(3) 0.2666(3)
H13_7 H 0.7162 0.5547 0.2574
C27_7 C 0.7772(4) 0.5111(4) 0.1760(3)
C28_7 C 0.7884(4) 0.4659(3) 0.1710(3)
H14_7 H 0.7782 0.4426 0.1852
C29_7 C 0.7481(5) 0.5216(4) 0.2050(3)
H15_7 H 0.7218 0.5406 0.1983
H16_7 H 0.7664 0.5395 0.2206
C30_7 C 0.8274(4) 0.4909(4) 0.1243(3)
H17_7 H 0.8459 0.4839 0.1063
C31_7 C 0.8137(5) 0.5347(4) 0.1298(3)
C32_7 C 0.7915(4) 0.5443(4) 0.1574(3)
H18_7 H 0.7863 0.5752 0.1633
C33_7 C 0.8141(4) 0.4562(4) 0.1457(3)
O3_7 O 0.88929(17) 0.20432(17) 0.11431(15)
O4_4 O 0.84913(19) 0.24300(17) 0.15147(16)
O5_7 O 0.8611(4) 0.4060(2) 0.1139(2)
O6_4 O 0.85225(18) 0.81147(17) 0.11859(15)
O7_7 O 0.81479(19) 0.77317(16) 0.15739(15)
O10_7 O 0.8171(3) 0.6141(2) 0.1205(2)
O15_7 O 0.7320(4) 0.4817(2) 0.2200(3)
O17_7 O 0.76080(19) 0.80657(18) 0.21661(17)
O19_7 O 0.8967(2) 0.09665(18) 0.10237(15)
N1_7 N 0.8601(4) 0.0276(4) 0.0832(4)
C34_7 C 0.8641(4) 0.0648(4) 0.1009(4)
H19_7 H 0.8393 0.0699 0.1152
H22_7 H 0.7983 0.0119 0.0756
C36_7 C 0.9042(5) 0.0137(7) 0.0665(6)
H24_7 H 0.9135 0.0379 0.0517
H25_7 H 0.9281 0.0090 0.0826
N2_7 N 0.7018(3) 0.7923(3) 0.2515(3)
C37_7 C 0.7269(4) 0.7993(6) 0.2267(3)
H26_7 H 0.7070 0.7972 0.2088
C38_7 C 0.7085(4) 0.8134(5) 0.2812(3)
H27_7 H 0.6854 0.8026 0.2964
H28_7 H 0.7390 0.8058 0.2893
H29_7 H 0.7059 0.8465 0.2787
C39_7 C 0.6593(4) 0.7672(6) 0.2443(4)
H30_7 H 0.6420 0.7626 0.2642
H31_7 H 0.6409 0.7848 0.2291
H32_7 H 0.6669 0.7375 0.2350
O26_4 O 0.75700(17) 0.84913(19) 0.15147(16)
O30_4 O 0.81147(17) 0.14775(18) 0.11859(15)
H65_5 H 0.965774 0.55279 0.0218166
H66_5 H 0.980881 0.549657 0.984447
H65_6 H 0.0342263 0.44721 0.0218166
H66_6 H 0.0191191 0.450343 0.984447
H67_6 H 0.987866 0.814498 0.0217887
H68_6 H 0.973002 0.817453 0.984364
C40_8 C 0.2400(2) 0.1269(3) 0.1264(3)
C41_8 C 0.2835(2) 0.1162(3) 0.1093(2)
C42_8 C 0.2834(2) 0.0861(3) 0.0833(2)
H33_8 H 0.2552 0.0748 0.0752
C43_8 C 0.3246(3) 0.0722(3) 0.0690(2)
C44_8 C 0.3239(3) 0.0372(3) 0.0438(3)
C45_8 C 0.3647(3) 0.0894(4) 0.0803(3)
H34_8 H 0.3929 0.0813 0.0706
C46_8 C 0.3635(3) 0.1197(5) 0.1070(3)
C47_8 C 0.3223(3) 0.1370(3) 0.1195(2)
H35_8 H 0.3218 0.1619 0.1341
C48_8 C 0.4079(3) 0.1728(5) 0.1382(3)
H36_8 H 0.3909 0.2002 0.1310
H37_8 H 0.3931 0.1611 0.1579
C49_8 C 0.6921(3) 0.0823(3) 0.0454(3)
C50_8 C 0.6932(3) 0.1154(3) 0.0709(2)
C51_8 C 0.7329(2) 0.1263(3) 0.0864(2)
H38_8 H 0.7610 0.1145 0.0787
C52_8 C 0.7326(3) 0.1542(3) 0.1129(2)
C53_8 C 0.7755(3) 0.1640(3) 0.1300(3)
C54_8 C 0.6922(3) 0.1730(3) 0.1238(2)
H39_8 H 0.6921 0.1928 0.1418
C55_8 C 0.6519(3) 0.1625(4) 0.1079(3)
C56_8 C 0.6521(3) 0.1349(3) 0.0814(3)
H40_8 H 0.6245 0.1290 0.0701
C57_8 C 0.5719(3) 0.1657(5) 0.1094(3)
H41_8 H 0.5673 0.1740 0.0866
H42_8 H 0.5713 0.1320 0.1113
C58_8 C 0.5695(3) 0.3232(3) 0.3125(3)
C59_8 C 0.5257(2) 0.3149(3) 0.2963(2)
C60_8 C 0.4848(2) 0.3289(3) 0.3084(2)
H43_8 H 0.4848 0.3463 0.3276
C61_8 C 0.4447(3) 0.3195(3) 0.2946(2)
C62_8 C 0.3997(2) 0.3340(3) 0.3084(3)
C63_8 C 0.4458(3) 0.3011(3) 0.2644(3)
H44_8 H 0.4183 0.2981 0.2525
C64_8 C 0.4863(3) 0.2870(4) 0.2509(3)
C65_8 C 0.5266(3) 0.2936(4) 0.2666(3)
H45_8 H 0.5547 0.2838 0.2574
C66_8 C 0.5111(4) 0.2228(4) 0.1760(3)
C67_8 C 0.4659(3) 0.2116(4) 0.1710(3)
H46_8 H 0.4426 0.2218 0.1852
C68_8 C 0.5216(4) 0.2519(5) 0.2050(3)
H47_8 H 0.5406 0.2782 0.1983
H48_8 H 0.5395 0.2336 0.2206
C69_8 C 0.4909(4) 0.1726(4) 0.1243(3)
H49_8 H 0.4839 0.1541 0.1063
C70_8 C 0.5347(4) 0.1863(5) 0.1298(3)
C71_8 C 0.5443(4) 0.2085(4) 0.1574(3)
H50_8 H 0.5752 0.2137 0.1633
C72_8 C 0.4562(4) 0.1859(4) 0.1457(3)
O24_8 O 0.20432(17) 0.11071(17) 0.11431(15)
O28_8 O 0.4060(2) 0.1389(4) 0.1139(2)
O32_8 O 0.77317(16) 0.18521(19) 0.15739(15)
O37_8 O 0.6141(2) 0.1829(3) 0.1205(2)
O50_8 O 0.4817(2) 0.2680(4) 0.2200(3)
O51_8 O 0.80657(18) 0.23920(19) 0.21661(17)
O52_8 O 0.09665(18) 0.1033(2) 0.10237(15)
N3_8 N 0.0276(4) 0.1399(4) 0.0832(4)
C73_8 C 0.0648(4) 0.1359(4) 0.1009(4)
H51_8 H 0.0699 0.1607 0.1152
H54_8 H 0.0119 0.2017 0.0756
C75_8 C 0.0137(7) 0.0958(5) 0.0665(6)
H56_8 H 0.0379 0.0865 0.0517
H57_8 H 0.0090 0.0719 0.0826
N4_8 N 0.7923(3) 0.2982(3) 0.2515(3)
C76_8 C 0.7993(6) 0.2731(4) 0.2267(3)
H58_8 H 0.7972 0.2930 0.2088
C77_8 C 0.8134(5) 0.2915(4) 0.2812(3)
H59_8 H 0.8026 0.3146 0.2964
H60_8 H 0.8058 0.2610 0.2893
H61_8 H 0.8465 0.2941 0.2787
C78_8 C 0.7672(6) 0.3407(4) 0.2443(4)
H62_8 H 0.7626 0.3580 0.2642
H63_8 H 0.7848 0.3591 0.2291
H64_8 H 0.7375 0.3331 0.2350
H67_7 H 0.814498 0.0121344 0.0217887
H68_7 H 0.817453 0.026998 0.984364
C1_8 C 0.7600(2) 0.8731(3) 0.1264(3)
C2_8 C 0.7165(2) 0.8838(3) 0.1093(2)
C3_8 C 0.7166(2) 0.9139(3) 0.0833(2)
H1_8 H 0.7448 0.9252 0.0752
C4_8 C 0.6754(3) 0.9278(3) 0.0690(2)
C5_8 C 0.6761(3) 0.9628(3) 0.0438(3)
C6_8 C 0.6353(3) 0.9106(4) 0.0803(3)
H2_8 H 0.6071 0.9187 0.0706
C7_8 C 0.6365(3) 0.8803(5) 0.1070(3)
C8_8 C 0.6777(3) 0.8630(3) 0.1195(2)
H3_8 H 0.6782 0.8381 0.1341
C9_8 C 0.5921(3) 0.8272(5) 0.1382(3)
H4_8 H 0.6091 0.7998 0.1310
H5_8 H 0.6069 0.8389 0.1579
C10_8 C 0.3079(3) 0.9177(3) 0.0454(3)
C11_8 C 0.3068(3) 0.8846(3) 0.0709(2)
C12_8 C 0.2671(2) 0.8737(3) 0.0864(2)
H6_8 H 0.2390 0.8855 0.0787
C13_8 C 0.2674(3) 0.8458(3) 0.1129(2)
C14_8 C 0.2245(3) 0.8360(3) 0.1300(3)
C15_8 C 0.3078(3) 0.8270(3) 0.1238(2)
H7_8 H 0.3079 0.8072 0.1418
C16_8 C 0.3481(3) 0.8375(4) 0.1079(3)
C17_8 C 0.3479(3) 0.8651(3) 0.0814(3)
H8_8 H 0.3755 0.8710 0.0701
C18_8 C 0.4281(3) 0.8343(5) 0.1094(3)
H9_8 H 0.4327 0.8260 0.0866
H10_8 H 0.4287 0.8680 0.1113
C19_8 C 0.4305(3) 0.6768(3) 0.3125(3)
C20_8 C 0.4743(2) 0.6851(3) 0.2963(2)
C21_8 C 0.5152(2) 0.6711(3) 0.3084(2)
H11_8 H 0.5152 0.6537 0.3276
C22_8 C 0.5553(3) 0.6805(3) 0.2946(2)
C23_8 C 0.6003(2) 0.6660(3) 0.3084(3)
C24_8 C 0.5542(3) 0.6989(3) 0.2644(3)
H12_8 H 0.5817 0.7019 0.2525
C25_8 C 0.5137(3) 0.7130(4) 0.2509(3)
C26_8 C 0.4734(3) 0.7064(4) 0.2666(3)
H13_8 H 0.4453 0.7162 0.2574
C27_8 C 0.4889(4) 0.7772(4) 0.1760(3)
C28_8 C 0.5341(3) 0.7884(4) 0.1710(3)
H14_8 H 0.5574 0.7782 0.1852
C29_8 C 0.4784(4) 0.7481(5) 0.2050(3)
H15_8 H 0.4594 0.7218 0.1983
H16_8 H 0.4605 0.7664 0.2206
C30_8 C 0.5091(4) 0.8274(4) 0.1243(3)
H17_8 H 0.5161 0.8459 0.1063
C31_8 C 0.4653(4) 0.8137(5) 0.1298(3)
C32_8 C 0.4557(4) 0.7915(4) 0.1574(3)
H18_8 H 0.4248 0.7863 0.1633
C33_8 C 0.5438(4) 0.8141(4) 0.1457(3)
O3_8 O 0.79568(17) 0.88929(17) 0.11431(15)
O5_8 O 0.5940(2) 0.8611(4) 0.1139(2)
O7_8 O 0.22683(16) 0.81479(19) 0.15739(15)
O10_8 O 0.3859(2) 0.8171(3) 0.1205(2)
O15_8 O 0.5183(2) 0.7320(4) 0.2200(3)
O17_8 O 0.19343(18) 0.76080(19) 0.21661(17)
O19_8 O 0.90335(18) 0.8967(2) 0.10237(15)
N1_8 N 0.9724(4) 0.8601(4) 0.0832(4)
C34_8 C 0.9352(4) 0.8641(4) 0.1009(4)
H19_8 H 0.9301 0.8393 0.1152
H22_8 H 0.9881 0.7983 0.0756
C36_8 C 0.9863(7) 0.9042(5) 0.0665(6)
H24_8 H 0.9621 0.9135 0.0517
H25_8 H 0.9910 0.9281 0.0826
N2_8 N 0.2077(3) 0.7018(3) 0.2515(3)
C37_8 C 0.2007(6) 0.7269(4) 0.2267(3)
H26_8 H 0.2028 0.7070 0.2088
C38_8 C 0.1866(5) 0.7085(4) 0.2812(3)
H27_8 H 0.1974 0.6854 0.2964
H28_8 H 0.1942 0.7390 0.2893
H29_8 H 0.1535 0.7059 0.2787
C39_8 C 0.2328(6) 0.6593(4) 0.2443(4)
H30_8 H 0.2374 0.6420 0.2642
H31_8 H 0.2152 0.6409 0.2291
H32_8 H 0.2625 0.6669 0.2350
H65_7 H 0.44721 0.965774 0.0218166
H66_7 H 0.450343 0.980881 0.984447
H65_8 H 0.55279 0.0342263 0.0218166
H66_8 H 0.549657 0.0191191 0.984447
H67_8 H 0.185502 0.987866 0.0217887
H68_8 H 0.182547 0.973002 0.984364
C35_5 C 0.1734(4) 0.0030(4) 0.9175(4)
H20_5 H 0.1657 0.0273 0.9327
H21_5 H 0.1776 0.0160 0.8961
H23_5 H 0.1008 0.0147 0.9454
C74_5 C 0.8266(4) 0.9970(4) 0.9175(4)
H52_5 H 0.8343 0.9727 0.9327
H53_5 H 0.8224 0.9840 0.8961
H55_5 H 0.8992 0.9853 0.9454
C74_6 C 0.0030(4) 0.8266(4) 0.9175(4)
H52_6 H 0.0273 0.8343 0.9327
H53_6 H 0.0160 0.8224 0.8961
H55_6 H 0.0147 0.8992 0.9454
C35_6 C 0.9970(4) 0.1734(4) 0.9175(4)
H20_6 H 0.9727 0.1657 0.9327
H21_6 H 0.9840 0.1776 0.8961
H23_6 H 0.9853 0.1008 0.9454
C74_7 C 0.1734(4) 0.0030(4) 0.0825(4)
H52_7 H 0.1657 0.0273 0.0673
H53_7 H 0.1776 0.0160 0.1039
H55_7 H 0.1008 0.0147 0.0546
C35_7 C 0.8266(4) 0.9970(4) 0.0825(4)
H20_7 H 0.8343 0.9727 0.0673
H21_7 H 0.8224 0.9840 0.1039
H23_7 H 0.8992 0.9853 0.0546
C35_8 C 0.0030(4) 0.8266(4) 0.0825(4)
H20_8 H 0.0273 0.8343 0.0673
H21_8 H 0.0160 0.8224 0.1039
H23_8 H 0.0147 0.8992 0.0546
C74_8 C 0.9970(4) 0.1734(4) 0.0825(4)
H52_8 H 0.9727 0.1657 0.0673
H53_8 H 0.9840 0.1776 0.1039
H55_8 H 0.9853 0.1008 0.0546
loop_
_geom_bond_atom_site_label_1
_geom_bond_atom_site_label_2
_geom_bond_site_symmetry_1
_geom_bond_site_symmetry_2
Zn1 O3 1_555 1_555
Zn2 O1 1_555 1_555
C1 C2 1_555 1_555
C2 C3 1_555 1_555
C3 H1 1_555 1_555
C4 C3 1_555 1_555
C5 C4 1_555 1_555
C6 C4 1_555 1_555
H2 C6 1_555 1_555
C7 C6 1_555 1_555
C8 C2 1_555 1_555
H3 C8 1_555 1_555
C9 H4 1_555 1_555
H5 C9 1_555 1_555
C21 H11 1_555 1_555
C22 C21 1_555 1_555
C23 C22 1_555 1_555
C24 C22 1_555 1_555
H12 C24 1_555 1_555
C25 C24 1_555 1_555
C28 H14 1_555 1_555
C30 H17 1_555 1_555
C33 C9 1_555 1_555
O1 C5 1_555 1_555
O2 C5 1_555 1_555
O3 C1 1_555 1_555
O4 C1 1_555 1_555
O5 C7 1_555 1_555
O13 C23 1_555 1_555
O14 C23 1_555 1_555
O15 C25 1_555 1_555
O18 Zn2 1_555 1_555
O19 Zn1 1_555 1_555
N1 C34 1_555 1_555
C34 O19 1_555 1_555
H19 C34 1_555 1_555
C35 N1 1_555 1_555
H20 C35 1_555 1_555
H21 C35 1_555 1_555
H22 C35 1_555 1_555
C36 N1 1_555 1_555
H23 C36 1_555 1_555
H24 C36 1_555 1_555
H25 C36 1_555 1_555
Zn8 O13 1_555 1_555
Zn9 O29 1_555 1_555
Zn10 O41 1_555 1_555
Zn13 O2 1_555 1_555
Zn14 O27 1_555 1_555
Zn15 O4 1_555 1_555
Zn17 O14 1_555 1_555
Zn19 O38 1_555 1_555
C49 C50 1_555 1_555
C50 C51 1_555 1_555
C51 H38 1_555 1_555
C52 C51 1_555 1_555
C53 C52 1_555 1_555
C54 C52 1_555 1_555
H39 C54 1_555 1_555
C55 C54 1_555 1_555
C56 C50 1_555 1_555
H40 C56 1_555 1_555
C57 H41 1_555 1_555
H42 C57 1_555 1_555
C58 C59 1_555 1_555
C65 C59 1_555 1_555
H45 C65 1_555 1_555
C68 C66 1_555 1_555
H47 C68 1_555 1_555
H48 C68 1_555 1_555
C70 C57 1_555 1_555
C71 C66 1_555 1_555
H50 C71 1_555 1_555
O21 Zn2 1_555 1_555
O29 C53 1_555 1_555
O30 Zn1 1_555 1_555
O32 Zn14 1_555 1_555
O33 Zn2 1_555 1_555
O34 Zn2 1_555 1_555
O35 Zn13 1_555 1_555
O37 C55 1_555 1_555
O38 C58 1_555 1_555
O40 Zn14 1_555 1_555
O41 C58 1_555 1_555
O42 Zn1 1_555 1_555
O45 Zn1 1_555 1_555
O49 Zn14 1_555 1_555
O51 Zn14 1_555 1_555
N4 C76 1_555 1_555
C76 O51 1_555 1_555
H58 C76 1_555 1_555
C77 N4 1_555 1_555
H59 C77 1_555 1_555
H60 C77 1_555 1_555
H61 C77 1_555 1_555
C78 N4 1_555 1_555
H62 C78 1_555 1_555
H63 C78 1_555 1_555
H64 C78 1_555 1_555
C7 C8 1_555 1_555
C9 O5 1_555 1_555
C28 C33 1_555 1_555
C30 C33 1_555 1_555
C49 O33 1_555 1_555
C49 O35 1_555 1_555
C53 O32 1_555 1_555
C55 C56 1_555 1_555
C57 O37 1_555 1_555
C70 C71 1_555 1_555
Zn3 O9 1_555 1_555
Zn4 O7 1_555 1_555
C10 C11 1_555 1_555
C11 C12 1_555 1_555
C12 H6 1_555 1_555
C13 C12 1_555 1_555
C14 C13 1_555 1_555
C15 C13 1_555 1_555
H7 C15 1_555 1_555
C16 C15 1_555 1_555
C17 C11 1_555 1_555
H8 C17 1_555 1_555
C18 H9 1_555 1_555
H10 C18 1_555 1_555
C19 C20 1_555 1_555
C26 C20 1_555 1_555
H13 C26 1_555 1_555
C29 C27 1_555 1_555
H15 C29 1_555 1_555
H16 C29 1_555 1_555
C31 C18 1_555 1_555
C32 C27 1_555 1_555
H18 C32 1_555 1_555
O6 C14 1_555 1_555
O7 C14 1_555 1_555
O8 C10 1_555 1_555
O9 C10 1_555 1_555
O10 C16 1_555 1_555
O11 C19 1_555 1_555
O12 C19 1_555 1_555
O16 Zn3 1_555 1_555
O17 Zn4 1_555 1_555
N2 C37 1_555 1_555
C37 O17 1_555 1_555
H26 C37 1_555 1_555
C38 N2 1_555 1_555
H27 C38 1_555 1_555
H28 C38 1_555 1_555
H29 C38 1_555 1_555
C39 N2 1_555 1_555
H30 C39 1_555 1_555
H31 C39 1_555 1_555
H32 C39 1_555 1_555
Zn5 O24 1_555 1_555
Zn6 O6 1_555 1_555
Zn7 O12 1_555 1_555
Zn11 O44 1_555 1_555
Zn12 O8 1_555 1_555
Zn16 O11 1_555 1_555
Zn18 O25 1_555 1_555
Zn20 O47 1_555 1_555
C40 C41 1_555 1_555
C41 C42 1_555 1_555
C42 H33 1_555 1_555
C43 C42 1_555 1_555
C44 C43 1_555 1_555
C45 C43 1_555 1_555
H34 C45 1_555 1_555
C46 C45 1_555 1_555
C47 C41 1_555 1_555
H35 C47 1_555 1_555
C48 H36 1_555 1_555
H37 C48 1_555 1_555
C60 H43 1_555 1_555
C61 C60 1_555 1_555
C62 C61 1_555 1_555
C63 C61 1_555 1_555
H44 C63 1_555 1_555
C64 C63 1_555 1_555
C67 H46 1_555 1_555
C69 H49 1_555 1_555
C72 C48 1_555 1_555
O20 Zn12 1_555 1_555
O22 Zn3 1_555 1_555
O23 Zn3 1_555 1_555
O24 C40 1_555 1_555
O25 C40 1_555 1_555
O26 Zn4 1_555 1_555
O28 C46 1_555 1_555
O31 Zn5 1_555 1_555
O36 Zn3 1_555 1_555
O39 Zn4 1_555 1_555
O43 Zn5 1_555 1_555
O44 C62 1_555 1_555
O46 Zn5 1_555 1_555
O47 C62 1_555 1_555
O48 Zn4 1_555 1_555
O50 C64 1_555 1_555
O52 Zn5 1_555 1_555
N3 C73 1_555 1_555
C73 O52 1_555 1_555
H51 C73 1_555 1_555
C74 N3 1_555 1_555
H52 C74 1_555 1_555
H53 C74 1_555 1_555
H54 C74 1_555 1_555
C75 N3 1_555 1_555
H55 C75 1_555 1_555
H56 C75 1_555 1_555
H57 C75 1_555 1_555
C16 C17 1_555 1_555
C18 O10 1_555 1_555
C31 C32 1_555 1_555
C44 O20 1_555 1_555
C44 O22 1_555 1_555
C46 C47 1_555 1_555
C48 O28 1_555 1_555
C67 C72 1_555 1_555
C69 C72 1_555 1_555
O16_2 Zn13 1_555 1_555
O23_2 Zn13 1_555 1_555
O36_2 Zn13 1_555 1_555
O18_2 Zn12 1_555 1_555
O21_2 Zn12 1_555 1_555
O34_2 Zn12 1_555 1_555
Zn3_2 O9_2 1_555 1_555
Zn18 O7_2 1_555 1_555
C10_2 C11_2 1_555 1_555
C11_2 C12_2 1_555 1_555
C12_2 H6_2 1_555 1_555
C13_2 C12_2 1_555 1_555
C14_2 C13_2 1_555 1_555
C15_2 C13_2 1_555 1_555
H7_2 C15_2 1_555 1_555
C16_2 C15_2 1_555 1_555
C17_2 C11_2 1_555 1_555
H8_2 C17_2 1_555 1_555
C18_2 H9_2 1_555 1_555
H10_2 C18_2 1_555 1_555
C19_2 C20_2 1_555 1_555
C26_2 C20_2 1_555 1_555
H13_2 C26_2 1_555 1_555
C29_2 C27_2 1_555 1_555
H15_2 C29_2 1_555 1_555
H16_2 C29_2 1_555 1_555
C31_2 C18_2 1_555 1_555
C32_2 C27_2 1_555 1_555
H18_2 C32_2 1_555 1_555
O31 C14_2 1_555 1_555
O7_2 C14_2 1_555 1_555
O8_2 C10_2 1_555 1_555
O9_2 C10_2 1_555 1_555
O10_2 C16_2 1_555 1_555
O11_2 C19_2 1_555 1_555
O12_2 C19_2 1_555 1_555
O16_3 Zn3_2 1_555 1_555
O17_2 Zn18 1_555 1_555
N2_2 C37_2 1_555 1_555
C37_2 O17_2 1_555 1_555
H26_2 C37_2 1_555 1_555
C38_2 N2_2 1_555 1_555
H27_2 C38_2 1_555 1_555
H28_2 C38_2 1_555 1_555
H29_2 C38_2 1_555 1_555
C39_2 N2_2 1_555 1_555
H30_2 C39_2 1_555 1_555
H31_2 C39_2 1_555 1_555
H32_2 C39_2 1_555 1_555
Zn9 O24_2 1_555 1_555
Zn11 O12_2 1_555 1_555
Zn10 O44_2 1_555 1_555
Zn12_2 O8_2 1_555 1_555
Zn20 O11_2 1_555 1_555
Zn19 O47_2 1_555 1_555
C40_2 C41_2 1_555 1_555
C41_2 C42_2 1_555 1_555
C42_2 H33_2 1_555 1_555
C43_2 C42_2 1_555 1_555
C44_2 C43_2 1_555 1_555
C45_2 C43_2 1_555 1_555
H34_2 C45_2 1_555 1_555
C46_2 C45_2 1_555 1_555
C47_2 C41_2 1_555 1_555
H35_2 C47_2 1_555 1_555
C48_2 H36_2 1_555 1_555
H37_2 C48_2 1_555 1_555
C60_2 H43_2 1_555 1_555
C61_2 C60_2 1_555 1_555
C62_2 C61_2 1_555 1_555
C63_2 C61_2 1_555 1_555
H44_2 C63_2 1_555 1_555
C64_2 C63_2 1_555 1_555
C67_2 H46_2 1_555 1_555
C69_2 H49_2 1_555 1_555
C72_2 C48_2 1_555 1_555
O20_2 Zn12_2 1_555 1_555
O22_2 Zn3_2 1_555 1_555
O23_3 Zn3_2 1_555 1_555
O24_2 C40_2 1_555 1_555
O27 C40_2 1_555 1_555
O28_2 C46_2 1_555 1_555
O36_3 Zn3_2 1_555 1_555
O39_2 Zn18 1_555 1_555
O43_2 Zn9 1_555 1_555
O44_2 C62_2 1_555 1_555
O46_2 Zn9 1_555 1_555
O47_2 C62_2 1_555 1_555
O48_2 Zn18 1_555 1_555
O50_2 C64_2 1_555 1_555
O52_2 Zn9 1_555 1_555
N3_2 C73_2 1_555 1_555
C73_2 O52_2 1_555 1_555
H51_2 C73_2 1_555 1_555
C74_2 N3_2 1_555 1_555
H52_2 C74_2 1_555 1_555
H53_2 C74_2 1_555 1_555
H54_2 C74_2 1_555 1_555
C75_2 N3_2 1_555 1_555
H55_2 C75_2 1_555 1_555
H56_2 C75_2 1_555 1_555
H57_2 C75_2 1_555 1_555
C16_2 C17_2 1_555 1_555
C18_2 O10_2 1_555 1_555
C31_2 C32_2 1_555 1_555
C44_2 O20_2 1_555 1_555
C44_2 O22_2 1_555 1_555
C46_2 C47_2 1_555 1_555
C48_2 O28_2 1_555 1_555
C67_2 C72_2 1_555 1_555
C69_2 C72_2 1_555 1_555
Zn6 O3_2 1_555 1_555
Zn2_2 O1_2 1_555 1_555
C1_2 C2_2 1_555 1_555
C2_2 C3_2 1_555 1_555
C3_2 H1_2 1_555 1_555
C4_2 C3_2 1_555 1_555
C5_2 C4_2 1_555 1_555
C6_2 C4_2 1_555 1_555
H2_2 C6_2 1_555 1_555
C7_2 C6_2 1_555 1_555
C8_2 C2_2 1_555 1_555
H3_2 C8_2 1_555 1_555
C9_2 H4_2 1_555 1_555
H5_2 C9_2 1_555 1_555
C21_2 H11_2 1_555 1_555
C22_2 C21_2 1_555 1_555
C23_2 C22_2 1_555 1_555
C24_2 C22_2 1_555 1_555
H12_2 C24_2 1_555 1_555
C25_2 C24_2 1_555 1_555
C28_2 H14_2 1_555 1_555
C30_2 H17_2 1_555 1_555
C33_2 C9_2 1_555 1_555
O1_2 C5_2 1_555 1_555
O2_2 C5_2 1_555 1_555
O3_2 C1_2 1_555 1_555
O26 C1_2 1_555 1_555
O5_2 C7_2 1_555 1_555
O13_2 C23_2 1_555 1_555
O14_2 C23_2 1_555 1_555
O15_2 C25_2 1_555 1_555
O18_3 Zn2_2 1_555 1_555
O19_2 Zn6 1_555 1_555
N1_2 C34_2 1_555 1_555
C34_2 O19_2 1_555 1_555
H19_2 C34_2 1_555 1_555
C35_2 N1_2 1_555 1_555
H20_2 C35_2 1_555 1_555
H21_2 C35_2 1_555 1_555
H22_2 C35_2 1_555 1_555
C36_2 N1_2 1_555 1_555
H23_2 C36_2 1_555 1_555
H24_2 C36_2 1_555 1_555
H25_2 C36_2 1_555 1_555
Zn7 O13_2 1_555 1_555
Zn8 O41_2 1_555 1_555
Zn13_2 O2_2 1_555 1_555
Zn16 O14_2 1_555 1_555
Zn17 O38_2 1_555 1_555
C49_2 C50_2 1_555 1_555
C50_2 C51_2 1_555 1_555
C51_2 H38_2 1_555 1_555
C52_2 C51_2 1_555 1_555
C53_2 C52_2 1_555 1_555
C54_2 C52_2 1_555 1_555
H39_2 C54_2 1_555 1_555
C55_2 C54_2 1_555 1_555
C56_2 C50_2 1_555 1_555
H40_2 C56_2 1_555 1_555
C57_2 H41_2 1_555 1_555
H42_2 C57_2 1_555 1_555
C58_2 C59_2 1_555 1_555
C65_2 C59_2 1_555 1_555
H45_2 C65_2 1_555 1_555
C68_2 C66_2 1_555 1_555
H47_2 C68_2 1_555 1_555
H48_2 C68_2 1_555 1_555
C70_2 C57_2 1_555 1_555
C71_2 C66_2 1_555 1_555
H50_2 C71_2 1_555 1_555
O21_3 Zn2_2 1_555 1_555
O30 C53_2 1_555 1_555
O32_2 Zn15 1_555 1_555
O33_2 Zn2_2 1_555 1_555
O34_3 Zn2_2 1_555 1_555
O35_2 Zn13_2 1_555 1_555
O37_2 C55_2 1_555 1_555
O38_2 C58_2 1_555 1_555
O40_2 Zn15 1_555 1_555
O41_2 C58_2 1_555 1_555
O42_2 Zn6 1_555 1_555
O45_2 Zn6 1_555 1_555
O49_2 Zn15 1_555 1_555
O51_2 Zn15 1_555 1_555
N4_2 C76_2 1_555 1_555
C76_2 O51_2 1_555 1_555
H58_2 C76_2 1_555 1_555
C77_2 N4_2 1_555 1_555
H59_2 C77_2 1_555 1_555
H60_2 C77_2 1_555 1_555
H61_2 C77_2 1_555 1_555
C78_2 N4_2 1_555 1_555
H62_2 C78_2 1_555 1_555
H63_2 C78_2 1_555 1_555
H64_2 C78_2 1_555 1_555
C7_2 C8_2 1_555 1_555
C9_2 O5_2 1_555 1_555
C28_2 C33_2 1_555 1_555
C30_2 C33_2 1_555 1_555
C49_2 O33_2 1_555 1_555
C49_2 O35_2 1_555 1_555
C53_2 O32_2 1_555 1_555
C55_2 C56_2 1_555 1_555
C57_2 O37_2 1_555 1_555
C70_2 C71_2 1_555 1_555
O18_4 Zn12_2 1_555 1_555
O21_4 Zn12_2 1_555 1_555
O34_4 Zn12_2 1_555 1_555
O16_4 Zn13_2 1_555 1_555
O23_4 Zn13_2 1_555 1_555
O36_4 Zn13_2 1_555 1_555
O16_5 Zn3_3 1_555 1_555
O36_5 Zn3_3 1_555 1_555
O16_5 H66 1_555 1_555
Zn1_2 O3_3 1_555 1_555
Zn3_4 O9_3 1_555 1_555
Zn4_2 O7_3 1_555 1_555
C1_3 C2_3 1_555 1_555
C2_3 C3_3 1_555 1_555
C3_3 H1_3 1_555 1_555
C4_3 C3_3 1_555 1_555
C5_3 C4_3 1_555 1_555
C6_3 C4_3 1_555 1_555
H2_3 C6_3 1_555 1_555
C7_3 C6_3 1_555 1_555
C8_3 C2_3 1_555 1_555
H3_3 C8_3 1_555 1_555
C9_3 H4_3 1_555 1_555
H5_3 C9_3 1_555 1_555
C10_3 C11_3 1_555 1_555
C11_3 C12_3 1_555 1_555
C12_3 H6_3 1_555 1_555
C13_3 C12_3 1_555 1_555
C14_3 C13_3 1_555 1_555
C15_3 C13_3 1_555 1_555
H7_3 C15_3 1_555 1_555
C16_3 C15_3 1_555 1_555
C17_3 C11_3 1_555 1_555
H8_3 C17_3 1_555 1_555
C18_3 H9_3 1_555 1_555
H10_3 C18_3 1_555 1_555
C19_3 C20_3 1_555 1_555
C20_3 C21_3 1_555 1_555
C21_3 H11_3 1_555 1_555
C22_3 C21_3 1_555 1_555
C23_3 C22_3 1_555 1_555
C24_3 C22_3 1_555 1_555
H12_3 C24_3 1_555 1_555
C25_3 C24_3 1_555 1_555
C26_3 C20_3 1_555 1_555
H13_3 C26_3 1_555 1_555
C27_3 C28_3 1_555 1_555
C28_3 H14_3 1_555 1_555
C29_3 C27_3 1_555 1_555
H15_3 C29_3 1_555 1_555
H16_3 C29_3 1_555 1_555
C30_3 H17_3 1_555 1_555
C31_3 C18_3 1_555 1_555
C32_3 C27_3 1_555 1_555
H18_3 C32_3 1_555 1_555
C33_3 C9_3 1_555 1_555
O1_3 C5_3 1_555 1_555
O2_3 C5_3 1_555 1_555
O3_3 C1_3 1_555 1_555
O4_2 C1_3 1_555 1_555
O5_3 C7_3 1_555 1_555
O6_2 C14_3 1_555 1_555
O7_3 C14_3 1_555 1_555
O8_3 C10_3 1_555 1_555
O9_3 C10_3 1_555 1_555
O10_3 C16_3 1_555 1_555
O11_3 C19_3 1_555 1_555
O12_3 C19_3 1_555 1_555
O13_3 C23_3 1_555 1_555
O14_3 C23_3 1_555 1_555
O15_3 C25_3 1_555 1_555
O16_6 Zn3_4 1_555 1_555
O17_3 Zn4_2 1_555 1_555
O19_3 Zn1_2 1_555 1_555
N1_3 C34_3 1_555 1_555
C34_3 O19_3 1_555 1_555
H19_3 C34_3 1_555 1_555
C36_3 N1_3 1_555 1_555
H24_3 C36_3 1_555 1_555
H25_3 C36_3 1_555 1_555
N2_3 C37_3 1_555 1_555
C37_3 O17_3 1_555 1_555
H26_3 C37_3 1_555 1_555
C38_3 N2_3 1_555 1_555
H27_3 C38_3 1_555 1_555
H28_3 C38_3 1_555 1_555
H29_3 C38_3 1_555 1_555
C39_3 N2_3 1_555 1_555
H30_3 C39_3 1_555 1_555
H31_3 C39_3 1_555 1_555
H32_3 C39_3 1_555 1_555
Zn6_2 O6_2 1_555 1_555
Zn7_2 O12_3 1_555 1_555
Zn8_2 O13_3 1_555 1_555
Zn12_4 O8_3 1_555 1_555
Zn15_2 O4_2 1_555 1_555
Zn16_2 O11_3 1_555 1_555
Zn17_2 O14_3 1_555 1_555
O26_2 Zn4_2 1_555 1_555
O30_2 Zn1_2 1_555 1_555
O39_3 Zn4_2 1_555 1_555
O42_3 Zn1_2 1_555 1_555
O45_3 Zn1_2 1_555 1_555
O48_3 Zn4_2 1_555 1_555
C7_3 C8_3 1_555 1_555
C9_3 O5_3 1_555 1_555
C16_3 C17_3 1_555 1_555
C18_3 O10_3 1_555 1_555
C25_3 C26_3 1_555 1_555
C28_3 C33_3 1_555 1_555
C29_3 O15_3 1_555 1_555
C30_3 C31_3 1_555 1_555
C30_3 C33_3 1_555 1_555
C31_3 C32_3 1_555 1_555
O16_6 H65 1_555 1_555
O18_5 Zn2_3 1_555 1_555
O34_5 Zn2_3 1_555 1_555
O18_5 H68 1_555 1_555
O18_6 Zn2_4 1_555 1_555
Zn5_2 O24_3 1_555 1_555
Zn9_2 O29_2 1_555 1_555
Zn10_2 O41_3 1_555 1_555
Zn11_2 O44_3 1_555 1_555
Zn14_2 O27_2 1_555 1_555
Zn18_2 O25_2 1_555 1_555
Zn19_2 O38_3 1_555 1_555
Zn20_2 O47_3 1_555 1_555
C40_3 C41_3 1_555 1_555
C41_3 C42_3 1_555 1_555
C42_3 H33_3 1_555 1_555
C43_3 C42_3 1_555 1_555
C44_3 C43_3 1_555 1_555
C45_3 C43_3 1_555 1_555
H34_3 C45_3 1_555 1_555
C46_3 C45_3 1_555 1_555
C47_3 C41_3 1_555 1_555
H35_3 C47_3 1_555 1_555
C48_3 H36_3 1_555 1_555
H37_3 C48_3 1_555 1_555
C49_3 C50_3 1_555 1_555
C50_3 C51_3 1_555 1_555
C51_3 H38_3 1_555 1_555
C52_3 C51_3 1_555 1_555
C53_3 C52_3 1_555 1_555
C54_3 C52_3 1_555 1_555
H39_3 C54_3 1_555 1_555
C55_3 C54_3 1_555 1_555
C56_3 C50_3 1_555 1_555
H40_3 C56_3 1_555 1_555
C57_3 H41_3 1_555 1_555
H42_3 C57_3 1_555 1_555
C58_3 C59_3 1_555 1_555
C59_3 C60_3 1_555 1_555
C60_3 H43_3 1_555 1_555
C61_3 C60_3 1_555 1_555
C62_3 C61_3 1_555 1_555
C63_3 C61_3 1_555 1_555
H44_3 C63_3 1_555 1_555
C64_3 C63_3 1_555 1_555
C65_3 C59_3 1_555 1_555
H45_3 C65_3 1_555 1_555
C66_3 C67_3 1_555 1_555
C67_3 H46_3 1_555 1_555
C68_3 C66_3 1_555 1_555
H47_3 C68_3 1_555 1_555
H48_3 C68_3 1_555 1_555
C69_3 H49_3 1_555 1_555
C70_3 C57_3 1_555 1_555
C71_3 C66_3 1_555 1_555
H50_3 C71_3 1_555 1_555
C72_3 C48_3 1_555 1_555
O24_3 C40_3 1_555 1_555
O25_2 C40_3 1_555 1_555
O28_3 C46_3 1_555 1_555
O29_2 C53_3 1_555 1_555
O31_2 Zn5_2 1_555 1_555
O32_3 Zn14_2 1_555 1_555
O33_3 Zn2_4 1_555 1_555
O35_3 Zn13_4 1_555 1_555
O37_3 C55_3 1_555 1_555
O38_3 C58_3 1_555 1_555
O40_3 Zn14_2 1_555 1_555
O41_3 C58_3 1_555 1_555
O43_3 Zn5_2 1_555 1_555
O44_3 C62_3 1_555 1_555
O46_3 Zn5_2 1_555 1_555
O47_3 C62_3 1_555 1_555
O49_3 Zn14_2 1_555 1_555
O50_3 C64_3 1_555 1_555
O51_3 Zn14_2 1_555 1_555
O52_3 Zn5_2 1_555 1_555
N3_3 C73_3 1_555 1_555
C73_3 O52_3 1_555 1_555
H51_3 C73_3 1_555 1_555
C75_3 N3_3 1_555 1_555
H56_3 C75_3 1_555 1_555
H57_3 C75_3 1_555 1_555
N4_3 C76_3 1_555 1_555
C76_3 O51_3 1_555 1_555
H58_3 C76_3 1_555 1_555
C77_3 N4_3 1_555 1_555
H59_3 C77_3 1_555 1_555
H60_3 C77_3 1_555 1_555
H61_3 C77_3 1_555 1_555
C78_3 N4_3 1_555 1_555
H62_3 C78_3 1_555 1_555
H63_3 C78_3 1_555 1_555
H64_3 C78_3 1_555 1_555
C44_3 O20_3 1_555 1_555
C44_3 O22_3 1_555 1_555
C46_3 C47_3 1_555 1_555
C48_3 O28_3 1_555 1_555
C49_3 O33_3 1_555 1_555
C49_3 O35_3 1_555 1_555
C53_3 O32_3 1_555 1_555
C55_3 C56_3 1_555 1_555
C57_3 O37_3 1_555 1_555
C64_3 C65_3 1_555 1_555
C67_3 C72_3 1_555 1_555
C68_3 O50_3 1_555 1_555
C69_3 C70_3 1_555 1_555
C69_3 C72_3 1_555 1_555
C70_3 C71_3 1_555 1_555
O18_6 H67 1_555 1_555
O18_7 Zn12_3 1_555 1_555
O34_6 Zn12_3 1_555 1_555
O18_7 H68_2 1_555 1_555
O18_8 Zn12_4 1_555 1_555
O18_8 H67_2 1_555 1_555
O16_7 Zn13_3 1_555 1_555
O36_6 Zn13_3 1_555 1_555
O16_7 H66_2 1_555 1_555
O16_8 Zn13_4 1_555 1_555
O16_8 H65_2 1_555 1_555
O16_9 Zn3_5 1_555 1_555
O36_7 Zn3_5 1_555 1_555
O16_9 H66_3 1_555 1_555
Zn6_2 O3_4 1_555 1_555
Zn3_6 O9_4 1_555 1_555
Zn18_2 O7_4 1_555 1_555
C1_4 C2_4 1_555 1_555
C2_4 C3_4 1_555 1_555
C3_4 H1_4 1_555 1_555
C4_4 C3_4 1_555 1_555
C5_4 C4_4 1_555 1_555
C6_4 C4_4 1_555 1_555
H2_4 C6_4 1_555 1_555
C7_4 C6_4 1_555 1_555
C8_4 C2_4 1_555 1_555
H3_4 C8_4 1_555 1_555
C9_4 H4_4 1_555 1_555
H5_4 C9_4 1_555 1_555
C10_4 C11_4 1_555 1_555
C11_4 C12_4 1_555 1_555
C12_4 H6_4 1_555 1_555
C13_4 C12_4 1_555 1_555
C14_4 C13_4 1_555 1_555
C15_4 C13_4 1_555 1_555
H7_4 C15_4 1_555 1_555
C16_4 C15_4 1_555 1_555
C17_4 C11_4 1_555 1_555
H8_4 C17_4 1_555 1_555
C18_4 H9_4 1_555 1_555
H10_4 C18_4 1_555 1_555
C19_4 C20_4 1_555 1_555
C20_4 C21_4 1_555 1_555
C21_4 H11_4 1_555 1_555
C22_4 C21_4 1_555 1_555
C23_4 C22_4 1_555 1_555
C24_4 C22_4 1_555 1_555
H12_4 C24_4 1_555 1_555
C25_4 C24_4 1_555 1_555
C26_4 C20_4 1_555 1_555
H13_4 C26_4 1_555 1_555
C27_4 C28_4 1_555 1_555
C28_4 H14_4 1_555 1_555
C29_4 C27_4 1_555 1_555
H15_4 C29_4 1_555 1_555
H16_4 C29_4 1_555 1_555
C30_4 H17_4 1_555 1_555
C31_4 C18_4 1_555 1_555
C32_4 C27_4 1_555 1_555
H18_4 C32_4 1_555 1_555
C33_4 C9_4 1_555 1_555
O1_4 C5_4 1_555 1_555
O2_4 C5_4 1_555 1_555
O3_4 C1_4 1_555 1_555
O26_2 C1_4 1_555 1_555
O5_4 C7_4 1_555 1_555
O31_2 C14_4 1_555 1_555
O7_4 C14_4 1_555 1_555
O8_4 C10_4 1_555 1_555
O9_4 C10_4 1_555 1_555
O10_4 C16_4 1_555 1_555
O11_4 C19_4 1_555 1_555
O12_4 C19_4 1_555 1_555
O13_4 C23_4 1_555 1_555
O14_4 C23_4 1_555 1_555
O15_4 C25_4 1_555 1_555
O16_10 Zn3_6 1_555 1_555
O17_4 Zn18_2 1_555 1_555
O19_4 Zn6_2 1_555 1_555
N1_4 C34_4 1_555 1_555
C34_4 O19_4 1_555 1_555
H19_4 C34_4 1_555 1_555
C36_4 N1_4 1_555 1_555
H24_4 C36_4 1_555 1_555
H25_4 C36_4 1_555 1_555
N2_4 C37_4 1_555 1_555
C37_4 O17_4 1_555 1_555
H26_4 C37_4 1_555 1_555
C38_4 N2_4 1_555 1_555
H27_4 C38_4 1_555 1_555
H28_4 C38_4 1_555 1_555
H29_4 C38_4 1_555 1_555
C39_4 N2_4 1_555 1_555
H30_4 C39_4 1_555 1_555
H31_4 C39_4 1_555 1_555
H32_4 C39_4 1_555 1_555
Zn11_2 O12_4 1_555 1_555
Zn7_2 O13_4 1_555 1_555
Zn12_6 O8_4 1_555 1_555
Zn20_2 O11_4 1_555 1_555
Zn16_2 O14_4 1_555 1_555
O39_4 Zn18_2 1_555 1_555
O42_4 Zn6_2 1_555 1_555
O45_4 Zn6_2 1_555 1_555
O48_4 Zn18_2 1_555 1_555
C7_4 C8_4 1_555 1_555
C9_4 O5_4 1_555 1_555
C16_4 C17_4 1_555 1_555
C18_4 O10_4 1_555 1_555
C25_4 C26_4 1_555 1_555
C28_4 C33_4 1_555 1_555
C29_4 O15_4 1_555 1_555
C30_4 C31_4 1_555 1_555
C30_4 C33_4 1_555 1_555
C31_4 C32_4 1_555 1_555
O16_10 H65_3 1_555 1_555
O18_9 Zn2_5 1_555 1_555
O34_7 Zn2_5 1_555 1_555
O18_9 H68_3 1_555 1_555
O18_10 Zn2_6 1_555 1_555
Zn9_2 O24_4 1_555 1_555
Zn8_2 O41_4 1_555 1_555
Zn10_2 O44_4 1_555 1_555
Zn17_2 O38_4 1_555 1_555
Zn19_2 O47_4 1_555 1_555
C40_4 C41_4 1_555 1_555
C41_4 C42_4 1_555 1_555
C42_4 H33_4 1_555 1_555
C43_4 C42_4 1_555 1_555
C44_4 C43_4 1_555 1_555
C45_4 C43_4 1_555 1_555
H34_4 C45_4 1_555 1_555
C46_4 C45_4 1_555 1_555
C47_4 C41_4 1_555 1_555
H35_4 C47_4 1_555 1_555
C48_4 H36_4 1_555 1_555
H37_4 C48_4 1_555 1_555
C49_4 C50_4 1_555 1_555
C50_4 C51_4 1_555 1_555
C51_4 H38_4 1_555 1_555
C52_4 C51_4 1_555 1_555
C53_4 C52_4 1_555 1_555
C54_4 C52_4 1_555 1_555
H39_4 C54_4 1_555 1_555
C55_4 C54_4 1_555 1_555
C56_4 C50_4 1_555 1_555
H40_4 C56_4 1_555 1_555
C57_4 H41_4 1_555 1_555
H42_4 C57_4 1_555 1_555
C58_4 C59_4 1_555 1_555
C59_4 C60_4 1_555 1_555
C60_4 H43_4 1_555 1_555
C61_4 C60_4 1_555 1_555
C62_4 C61_4 1_555 1_555
C63_4 C61_4 1_555 1_555
H44_4 C63_4 1_555 1_555
C64_4 C63_4 1_555 1_555
C65_4 C59_4 1_555 1_555
H45_4 C65_4 1_555 1_555
C66_4 C67_4 1_555 1_555
C67_4 H46_4 1_555 1_555
C68_4 C66_4 1_555 1_555
H47_4 C68_4 1_555 1_555
H48_4 C68_4 1_555 1_555
C69_4 H49_4 1_555 1_555
C70_4 C57_4 1_555 1_555
C71_4 C66_4 1_555 1_555
H50_4 C71_4 1_555 1_555
C72_4 C48_4 1_555 1_555
O24_4 C40_4 1_555 1_555
O27_2 C40_4 1_555 1_555
O28_4 C46_4 1_555 1_555
O30_2 C53_4 1_555 1_555
O32_4 Zn15_2 1_555 1_555
O33_4 Zn2_6 1_555 1_555
O35_4 Zn13_6 1_555 1_555
O37_4 C55_4 1_555 1_555
O38_4 C58_4 1_555 1_555
O40_4 Zn15_2 1_555 1_555
O41_4 C58_4 1_555 1_555
O43_4 Zn9_2 1_555 1_555
O44_4 C62_4 1_555 1_555
O46_4 Zn9_2 1_555 1_555
O47_4 C62_4 1_555 1_555
O49_4 Zn15_2 1_555 1_555
O50_4 C64_4 1_555 1_555
O51_4 Zn15_2 1_555 1_555
O52_4 Zn9_2 1_555 1_555
N3_4 C73_4 1_555 1_555
C73_4 O52_4 1_555 1_555
H51_4 C73_4 1_555 1_555
C75_4 N3_4 1_555 1_555
H56_4 C75_4 1_555 1_555
H57_4 C75_4 1_555 1_555
N4_4 C76_4 1_555 1_555
C76_4 O51_4 1_555 1_555
H58_4 C76_4 1_555 1_555
C77_4 N4_4 1_555 1_555
H59_4 C77_4 1_555 1_555
H60_4 C77_4 1_555 1_555
H61_4 C77_4 1_555 1_555
C78_4 N4_4 1_555 1_555
H62_4 C78_4 1_555 1_555
H63_4 C78_4 1_555 1_555
H64_4 C78_4 1_555 1_555
C44_4 O20_4 1_555 1_555
C44_4 O22_4 1_555 1_555
C46_4 C47_4 1_555 1_555
C48_4 O28_4 1_555 1_555
C49_4 O33_4 1_555 1_555
C49_4 O35_4 1_555 1_555
C53_4 O32_4 1_555 1_555
C55_4 C56_4 1_555 1_555
C57_4 O37_4 1_555 1_555
C64_4 C65_4 1_555 1_555
C67_4 C72_4 1_555 1_555
C68_4 O50_4 1_555 1_555
C69_4 C70_4 1_555 1_555
C69_4 C72_4 1_555 1_555
C70_4 C71_4 1_555 1_555
O18_10 H67_3 1_555 1_555
O18_11 Zn12_5 1_555 1_555
O34_8 Zn12_5 1_555 1_555
O18_11 H68_4 1_555 1_555
O18_12 Zn12_6 1_555 1_555
O18_12 H67_4 1_555 1_555
O16_11 Zn13_5 1_555 1_555
O36_8 Zn13_5 1_555 1_555
O16_11 H66_4 1_555 1_555
O16_12 Zn13_6 1_555 1_555
O16_12 H65_4 1_555 1_555
Zn16_2 O7_5 1_555 1_555
C10_5 C11_5 1_555 1_555
C11_5 C12_5 1_555 1_555
C12_5 H6_5 1_555 1_555
C13_5 C12_5 1_555 1_555
C14_5 C13_5 1_555 1_555
C15_5 C13_5 1_555 1_555
H7_5 C15_5 1_555 1_555
C16_5 C15_5 1_555 1_555
C17_5 C11_5 1_555 1_555
H8_5 C17_5 1_555 1_555
C18_5 H9_5 1_555 1_555
H10_5 C18_5 1_555 1_555
C19_5 C20_5 1_555 1_555
C26_5 C20_5 1_555 1_555
H13_5 C26_5 1_555 1_555
C29_5 C27_5 1_555 1_555
H15_5 C29_5 1_555 1_555
H16_5 C29_5 1_555 1_555
C31_5 C18_5 1_555 1_555
C32_5 C27_5 1_555 1_555
H18_5 C32_5 1_555 1_555
O6_3 C14_5 1_555 1_555
O7_5 C14_5 1_555 1_555
O34 C10_5 1_555 1_555
O36_2 C10_5 1_555 1_555
O10_5 C16_5 1_555 1_555
O39_3 C19_5 1_555 1_555
O42_4 C19_5 1_555 1_555
O17_5 Zn16_2 1_555 1_555
N2_5 C37_5 1_555 1_555
C37_5 O17_5 1_555 1_555
H26_5 C37_5 1_555 1_555
C38_5 N2_5 1_555 1_555
H27_5 C38_5 1_555 1_555
H28_5 C38_5 1_555 1_555
H29_5 C38_5 1_555 1_555
C39_5 N2_5 1_555 1_555
H30_5 C39_5 1_555 1_555
H31_5 C39_5 1_555 1_555
H32_5 C39_5 1_555 1_555
Zn11_2 O24_5 1_555 1_555
Zn7_2 O6_3 1_555 1_555
Zn20_2 O25_3 1_555 1_555
C40_5 C41_5 1_555 1_555
C41_5 C42_5 1_555 1_555
C42_5 H33_5 1_555 1_555
C43_5 C42_5 1_555 1_555
C44_5 C43_5 1_555 1_555
C45_5 C43_5 1_555 1_555
H34_5 C45_5 1_555 1_555
C46_5 C45_5 1_555 1_555
C47_5 C41_5 1_555 1_555
H35_5 C47_5 1_555 1_555
C48_5 H36_5 1_555 1_555
H37_5 C48_5 1_555 1_555
C60_5 H43_5 1_555 1_555
C61_5 C60_5 1_555 1_555
C62_5 C61_5 1_555 1_555
C63_5 C61_5 1_555 1_555
H44_5 C63_5 1_555 1_555
C64_5 C63_5 1_555 1_555
C67_5 H46_5 1_555 1_555
C69_5 H49_5 1_555 1_555
C72_5 C48_5 1_555 1_555
O24_5 C40_5 1_555 1_555
O25_3 C40_5 1_555 1_555
O26_3 Zn16_2 1_555 1_555
O28_5 C46_5 1_555 1_555
O31_3 Zn11_2 1_555 1_555
O46_3 C62_5 1_555 1_555
O48_4 C62_5 1_555 1_555
O50_5 C64_5 1_555 1_555
O52_5 Zn11_2 1_555 1_555
N3_5 C73_5 1_555 1_555
C73_5 O52_5 1_555 1_555
H51_5 C73_5 1_555 1_555
C74_3 N3_5 1_555 1_555
H52_3 C74_3 1_555 1_555
H53_3 C74_3 1_555 1_555
H54_5 C74_3 1_555 1_555
C75_5 N3_5 1_555 1_555
H55_3 C75_5 1_555 1_555
H56_5 C75_5 1_555 1_555
H57_5 C75_5 1_555 1_555
C16_5 C17_5 1_555 1_555
C18_5 O10_5 1_555 1_555
C31_5 C32_5 1_555 1_555
C44_5 O21 1_555 1_555
C44_5 O23_2 1_555 1_555
C46_5 C47_5 1_555 1_555
C48_5 O28_5 1_555 1_555
C67_5 C72_5 1_555 1_555
C69_5 C72_5 1_555 1_555
Zn8_2 O3_5 1_555 1_555
C1_5 C2_5 1_555 1_555
C2_5 C3_5 1_555 1_555
C3_5 H1_5 1_555 1_555
C4_5 C3_5 1_555 1_555
C5_5 C4_5 1_555 1_555
C6_5 C4_5 1_555 1_555
H2_5 C6_5 1_555 1_555
C7_5 C6_5 1_555 1_555
C8_5 C2_5 1_555 1_555
H3_5 C8_5 1_555 1_555
C9_5 H4_5 1_555 1_555
H5_5 C9_5 1_555 1_555
C21_5 H11_5 1_555 1_555
C22_5 C21_5 1_555 1_555
C23_5 C22_5 1_555 1_555
C24_5 C22_5 1_555 1_555
H12_5 C24_5 1_555 1_555
C25_5 C24_5 1_555 1_555
C28_5 H14_5 1_555 1_555
C30_5 H17_5 1_555 1_555
C33_5 C9_5 1_555 1_555
O21_2 C5_5 1_555 1_555
O23 C5_5 1_555 1_555
O3_5 C1_5 1_555 1_555
O4_3 C1_5 1_555 1_555
O5_5 C7_5 1_555 1_555
O45_3 C23_5 1_555 1_555
O49_4 C23_5 1_555 1_555
O15_5 C25_5 1_555 1_555
O19_5 Zn8_2 1_555 1_555
N1_5 C34_5 1_555 1_555
C34_5 O19_5 1_555 1_555
H19_5 C34_5 1_555 1_555
C35_3 N1_5 1_555 1_555
H20_3 C35_3 1_555 1_555
H21_3 C35_3 1_555 1_555
H22_5 C35_3 1_555 1_555
C36_5 N1_5 1_555 1_555
H23_3 C36_5 1_555 1_555
H24_5 C36_5 1_555 1_555
H25_5 C36_5 1_555 1_555
Zn10_2 O29_3 1_555 1_555
Zn19_2 O27_3 1_555 1_555
Zn17_2 O4_3 1_555 1_555
C49_5 C50_5 1_555 1_555
C50_5 C51_5 1_555 1_555
C51_5 H38_5 1_555 1_555
C52_5 C51_5 1_555 1_555
C53_5 C52_5 1_555 1_555
C54_5 C52_5 1_555 1_555
H39_5 C54_5 1_555 1_555
C55_5 C54_5 1_555 1_555
C56_5 C50_5 1_555 1_555
H40_5 C56_5 1_555 1_555
C57_5 H41_5 1_555 1_555
H42_5 C57_5 1_555 1_555
C58_5 C59_5 1_555 1_555
C65_5 C59_5 1_555 1_555
H45_5 C65_5 1_555 1_555
C68_5 C66_5 1_555 1_555
H47_5 C68_5 1_555 1_555
H48_5 C68_5 1_555 1_555
C70_5 C57_5 1_555 1_555
C71_5 C66_5 1_555 1_555
H50_5 C71_5 1_555 1_555
O29_3 C53_5 1_555 1_555
O30_3 Zn8_2 1_555 1_555
O32_5 Zn19_2 1_555 1_555
O37_5 C55_5 1_555 1_555
O40_3 C58_5 1_555 1_555
O43_4 C58_5 1_555 1_555
O51_5 Zn19_2 1_555 1_555
N4_5 C76_5 1_555 1_555
C76_5 O51_5 1_555 1_555
H58_5 C76_5 1_555 1_555
C77_5 N4_5 1_555 1_555
H59_5 C77_5 1_555 1_555
H60_5 C77_5 1_555 1_555
H61_5 C77_5 1_555 1_555
C78_5 N4_5 1_555 1_555
H62_5 C78_5 1_555 1_555
H63_5 C78_5 1_555 1_555
H64_5 C78_5 1_555 1_555
C7_5 C8_5 1_555 1_555
C9_5 O5_5 1_555 1_555
C28_5 C33_5 1_555 1_555
C30_5 C33_5 1_555 1_555
C49_5 O34_2 1_555 1_555
C49_5 O36 1_555 1_555
C53_5 O32_5 1_555 1_555
C55_5 C56_5 1_555 1_555
C57_5 O37_5 1_555 1_555
C70_5 C71_5 1_555 1_555
Zn7_2 O3_6 1_555 1_555
C1_6 C2_6 1_555 1_555
C2_6 C3_6 1_555 1_555
C3_6 H1_6 1_555 1_555
C4_6 C3_6 1_555 1_555
C5_6 C4_6 1_555 1_555
C6_6 C4_6 1_555 1_555
H2_6 C6_6 1_555 1_555
C7_6 C6_6 1_555 1_555
C8_6 C2_6 1_555 1_555
H3_6 C8_6 1_555 1_555
C9_6 H4_6 1_555 1_555
H5_6 C9_6 1_555 1_555
C21_6 H11_6 1_555 1_555
C22_6 C21_6 1_555 1_555
C23_6 C22_6 1_555 1_555
C24_6 C22_6 1_555 1_555
H12_6 C24_6 1_555 1_555
C25_6 C24_6 1_555 1_555
C28_6 H14_6 1_555 1_555
C30_6 H17_6 1_555 1_555
C33_6 C9_6 1_555 1_555
O21_4 C5_6 1_555 1_555
O23_3 C5_6 1_555 1_555
O3_6 C1_6 1_555 1_555
O26_3 C1_6 1_555 1_555
O5_6 C7_6 1_555 1_555
O45_4 C23_6 1_555 1_555
O48_3 C23_6 1_555 1_555
O15_6 C25_6 1_555 1_555
O19_6 Zn7_2 1_555 1_555
N1_6 C34_6 1_555 1_555
C34_6 O19_6 1_555 1_555
H19_6 C34_6 1_555 1_555
C35_4 N1_6 1_555 1_555
H20_4 C35_4 1_555 1_555
H21_4 C35_4 1_555 1_555
H22_6 C35_4 1_555 1_555
C36_6 N1_6 1_555 1_555
H23_4 C36_6 1_555 1_555
H24_6 C36_6 1_555 1_555
H25_6 C36_6 1_555 1_555
C49_6 C50_6 1_555 1_555
C50_6 C51_6 1_555 1_555
C51_6 H38_6 1_555 1_555
C52_6 C51_6 1_555 1_555
C53_6 C52_6 1_555 1_555
C54_6 C52_6 1_555 1_555
H39_6 C54_6 1_555 1_555
C55_6 C54_6 1_555 1_555
C56_6 C50_6 1_555 1_555
H40_6 C56_6 1_555 1_555
C57_6 H41_6 1_555 1_555
H42_6 C57_6 1_555 1_555
C58_6 C59_6 1_555 1_555
C65_6 C59_6 1_555 1_555
H45_6 C65_6 1_555 1_555
C68_6 C66_6 1_555 1_555
H47_6 C68_6 1_555 1_555
H48_6 C68_6 1_555 1_555
C70_6 C57_6 1_555 1_555
C71_6 C66_6 1_555 1_555
H50_6 C71_6 1_555 1_555
O30_3 C53_6 1_555 1_555
O32_6 Zn17_2 1_555 1_555
O37_6 C55_6 1_555 1_555
O40_4 C58_6 1_555 1_555
O42_3 C58_6 1_555 1_555
O51_6 Zn17_2 1_555 1_555
N4_6 C76_6 1_555 1_555
C76_6 O51_6 1_555 1_555
H58_6 C76_6 1_555 1_555
C77_6 N4_6 1_555 1_555
H59_6 C77_6 1_555 1_555
H60_6 C77_6 1_555 1_555
H61_6 C77_6 1_555 1_555
C78_6 N4_6 1_555 1_555
H62_6 C78_6 1_555 1_555
H63_6 C78_6 1_555 1_555
H64_6 C78_6 1_555 1_555
C7_6 C8_6 1_555 1_555
C9_6 O5_6 1_555 1_555
C28_6 C33_6 1_555 1_555
C30_6 C33_6 1_555 1_555
C49_6 O34_4 1_555 1_555
C49_6 O36_3 1_555 1_555
C53_6 O32_6 1_555 1_555
C55_6 C56_6 1_555 1_555
C57_6 O37_6 1_555 1_555
C70_6 C71_6 1_555 1_555
Zn20_2 O7_6 1_555 1_555
C10_6 C11_6 1_555 1_555
C11_6 C12_6 1_555 1_555
C12_6 H6_6 1_555 1_555
C13_6 C12_6 1_555 1_555
C14_6 C13_6 1_555 1_555
C15_6 C13_6 1_555 1_555
H7_6 C15_6 1_555 1_555
C16_6 C15_6 1_555 1_555
C17_6 C11_6 1_555 1_555
H8_6 C17_6 1_555 1_555
C18_6 H9_6 1_555 1_555
H10_6 C18_6 1_555 1_555
C19_6 C20_6 1_555 1_555
C26_6 C20_6 1_555 1_555
H13_6 C26_6 1_555 1_555
C29_6 C27_6 1_555 1_555
H15_6 C29_6 1_555 1_555
H16_6 C29_6 1_555 1_555
C31_6 C18_6 1_555 1_555
C32_6 C27_6 1_555 1_555
H18_6 C32_6 1_555 1_555
O31_3 C14_6 1_555 1_555
O7_6 C14_6 1_555 1_555
O34_3 C10_6 1_555 1_555
O36_4 C10_6 1_555 1_555
O10_6 C16_6 1_555 1_555
O39_4 C19_6 1_555 1_555
O43_3 C19_6 1_555 1_555
O17_6 Zn20_2 1_555 1_555
N2_6 C37_6 1_555 1_555
C37_6 O17_6 1_555 1_555
H26_6 C37_6 1_555 1_555
C38_6 N2_6 1_555 1_555
H27_6 C38_6 1_555 1_555
H28_6 C38_6 1_555 1_555
H29_6 C38_6 1_555 1_555
C39_6 N2_6 1_555 1_555
H30_6 C39_6 1_555 1_555
H31_6 C39_6 1_555 1_555
H32_6 C39_6 1_555 1_555
Zn10_2 O24_6 1_555 1_555
C40_6 C41_6 1_555 1_555
C41_6 C42_6 1_555 1_555
C42_6 H33_6 1_555 1_555
C43_6 C42_6 1_555 1_555
C44_6 C43_6 1_555 1_555
C45_6 C43_6 1_555 1_555
H34_6 C45_6 1_555 1_555
C46_6 C45_6 1_555 1_555
C47_6 C41_6 1_555 1_555
H35_6 C47_6 1_555 1_555
C48_6 H36_6 1_555 1_555
H37_6 C48_6 1_555 1_555
C60_6 H43_6 1_555 1_555
C61_6 C60_6 1_555 1_555
C62_6 C61_6 1_555 1_555
C63_6 C61_6 1_555 1_555
H44_6 C63_6 1_555 1_555
C64_6 C63_6 1_555 1_555
C67_6 H46_6 1_555 1_555
C69_6 H49_6 1_555 1_555
C72_6 C48_6 1_555 1_555
O24_6 C40_6 1_555 1_555
O27_3 C40_6 1_555 1_555
O28_6 C46_6 1_555 1_555
O46_4 C62_6 1_555 1_555
O49_3 C62_6 1_555 1_555
O50_6 C64_6 1_555 1_555
O52_6 Zn10_2 1_555 1_555
N3_6 C73_6 1_555 1_555
C73_6 O52_6 1_555 1_555
H51_6 C73_6 1_555 1_555
C74_4 N3_6 1_555 1_555
H52_4 C74_4 1_555 1_555
H53_4 C74_4 1_555 1_555
H54_6 C74_4 1_555 1_555
C75_6 N3_6 1_555 1_555
H55_4 C75_6 1_555 1_555
H56_6 C75_6 1_555 1_555
H57_6 C75_6 1_555 1_555
C16_6 C17_6 1_555 1_555
C18_6 O10_6 1_555 1_555
C31_6 C32_6 1_555 1_555
C44_6 O21_3 1_555 1_555
C44_6 O23_4 1_555 1_555
C46_6 C47_6 1_555 1_555
C48_6 O28_6 1_555 1_555
C67_6 C72_6 1_555 1_555
C69_6 C72_6 1_555 1_555
Zn11 O24_7 1_555 1_555
Zn10 O29_4 1_555 1_555
Zn19 O27_4 1_555 1_555
Zn20 O25_4 1_555 1_555
C40_7 C41_7 1_555 1_555
C41_7 C42_7 1_555 1_555
C42_7 H33_7 1_555 1_555
C43_7 C42_7 1_555 1_555
C44_7 C43_7 1_555 1_555
C45_7 C43_7 1_555 1_555
H34_7 C45_7 1_555 1_555
C46_7 C45_7 1_555 1_555
C47_7 C41_7 1_555 1_555
H35_7 C47_7 1_555 1_555
C48_7 H36_7 1_555 1_555
H37_7 C48_7 1_555 1_555
C49_7 C50_7 1_555 1_555
C50_7 C51_7 1_555 1_555
C51_7 H38_7 1_555 1_555
C52_7 C51_7 1_555 1_555
C53_7 C52_7 1_555 1_555
C54_7 C52_7 1_555 1_555
H39_7 C54_7 1_555 1_555
C55_7 C54_7 1_555 1_555
C56_7 C50_7 1_555 1_555
H40_7 C56_7 1_555 1_555
C57_7 H41_7 1_555 1_555
H42_7 C57_7 1_555 1_555
C58_7 C59_7 1_555 1_555
C59_7 C60_7 1_555 1_555
C60_7 H43_7 1_555 1_555
C61_7 C60_7 1_555 1_555
C62_7 C61_7 1_555 1_555
C63_7 C61_7 1_555 1_555
H44_7 C63_7 1_555 1_555
C64_7 C63_7 1_555 1_555
C65_7 C59_7 1_555 1_555
H45_7 C65_7 1_555 1_555
C66_7 C67_7 1_555 1_555
C67_7 H46_7 1_555 1_555
C68_7 C66_7 1_555 1_555
H47_7 C68_7 1_555 1_555
H48_7 C68_7 1_555 1_555
C69_7 H49_7 1_555 1_555
C70_7 C57_7 1_555 1_555
C71_7 C66_7 1_555 1_555
H50_7 C71_7 1_555 1_555
C72_7 C48_7 1_555 1_555
O24_7 C40_7 1_555 1_555
O25_4 C40_7 1_555 1_555
O28_7 C46_7 1_555 1_555
O29_4 C53_7 1_555 1_555
O31_4 Zn11 1_555 1_555
O32_7 Zn19 1_555 1_555
O37_7 C55_7 1_555 1_555
O40 C58_7 1_555 1_555
O43_2 C58_7 1_555 1_555
O46 C62_7 1_555 1_555
O48_2 C62_7 1_555 1_555
O50_7 C64_7 1_555 1_555
O51_7 Zn19 1_555 1_555
O52_7 Zn11 1_555 1_555
N3_7 C73_7 1_555 1_555
C73_7 O52_7 1_555 1_555
H51_7 C73_7 1_555 1_555
C75_7 N3_7 1_555 1_555
H56_7 C75_7 1_555 1_555
H57_7 C75_7 1_555 1_555
N4_7 C76_7 1_555 1_555
C76_7 O51_7 1_555 1_555
H58_7 C76_7 1_555 1_555
C77_7 N4_7 1_555 1_555
H59_7 C77_7 1_555 1_555
H60_7 C77_7 1_555 1_555
H61_7 C77_7 1_555 1_555
C78_7 N4_7 1_555 1_555
H62_7 C78_7 1_555 1_555
H63_7 C78_7 1_555 1_555
H64_7 C78_7 1_555 1_555
C44_7 O21_5 1_555 1_555
C44_7 O23_6 1_555 1_555
C46_7 C47_7 1_555 1_555
C48_7 O28_7 1_555 1_555
C49_7 O34_6 1_555 1_555
C49_7 O36_5 1_555 1_555
C53_7 O32_7 1_555 1_555
C55_7 C56_7 1_555 1_555
C57_7 O37_7 1_555 1_555
C64_7 C65_7 1_555 1_555
C67_7 C72_7 1_555 1_555
C68_7 O50_7 1_555 1_555
C69_7 C70_7 1_555 1_555
C69_7 C72_7 1_555 1_555
C70_7 C71_7 1_555 1_555
O18_7 H67_5 1_555 1_555
O18_8 H68_5 1_555 1_555
Zn8 O3_7 1_555 1_555
Zn16 O7_7 1_555 1_555
C1_7 C2_7 1_555 1_555
C2_7 C3_7 1_555 1_555
C3_7 H1_7 1_555 1_555
C4_7 C3_7 1_555 1_555
C5_7 C4_7 1_555 1_555
C6_7 C4_7 1_555 1_555
H2_7 C6_7 1_555 1_555
C7_7 C6_7 1_555 1_555
C8_7 C2_7 1_555 1_555
H3_7 C8_7 1_555 1_555
C9_7 H4_7 1_555 1_555
H5_7 C9_7 1_555 1_555
C10_7 C11_7 1_555 1_555
C11_7 C12_7 1_555 1_555
C12_7 H6_7 1_555 1_555
C13_7 C12_7 1_555 1_555
C14_7 C13_7 1_555 1_555
C15_7 C13_7 1_555 1_555
H7_7 C15_7 1_555 1_555
C16_7 C15_7 1_555 1_555
C17_7 C11_7 1_555 1_555
H8_7 C17_7 1_555 1_555
C18_7 H9_7 1_555 1_555
H10_7 C18_7 1_555 1_555
C19_7 C20_7 1_555 1_555
C20_7 C21_7 1_555 1_555
C21_7 H11_7 1_555 1_555
C22_7 C21_7 1_555 1_555
C23_7 C22_7 1_555 1_555
C24_7 C22_7 1_555 1_555
H12_7 C24_7 1_555 1_555
C25_7 C24_7 1_555 1_555
C26_7 C20_7 1_555 1_555
H13_7 C26_7 1_555 1_555
C27_7 C28_7 1_555 1_555
C28_7 H14_7 1_555 1_555
C29_7 C27_7 1_555 1_555
H15_7 C29_7 1_555 1_555
H16_7 C29_7 1_555 1_555
C30_7 H17_7 1_555 1_555
C31_7 C18_7 1_555 1_555
C32_7 C27_7 1_555 1_555
H18_7 C32_7 1_555 1_555
C33_7 C9_7 1_555 1_555
O21_6 C5_7 1_555 1_555
O23_5 C5_7 1_555 1_555
O3_7 C1_7 1_555 1_555
O4_4 C1_7 1_555 1_555
O5_7 C7_7 1_555 1_555
O6_4 C14_7 1_555 1_555
O7_7 C14_7 1_555 1_555
O34_5 C10_7 1_555 1_555
O36_6 C10_7 1_555 1_555
O10_7 C16_7 1_555 1_555
O39 C19_7 1_555 1_555
O42_2 C19_7 1_555 1_555
O45 C23_7 1_555 1_555
O49_2 C23_7 1_555 1_555
O15_7 C25_7 1_555 1_555
O17_7 Zn16 1_555 1_555
O19_7 Zn8 1_555 1_555
N1_7 C34_7 1_555 1_555
C34_7 O19_7 1_555 1_555
H19_7 C34_7 1_555 1_555
C36_7 N1_7 1_555 1_555
H24_7 C36_7 1_555 1_555
H25_7 C36_7 1_555 1_555
N2_7 C37_7 1_555 1_555
C37_7 O17_7 1_555 1_555
H26_7 C37_7 1_555 1_555
C38_7 N2_7 1_555 1_555
H27_7 C38_7 1_555 1_555
H28_7 C38_7 1_555 1_555
H29_7 C38_7 1_555 1_555
C39_7 N2_7 1_555 1_555
H30_7 C39_7 1_555 1_555
H31_7 C39_7 1_555 1_555
H32_7 C39_7 1_555 1_555
Zn7 O6_4 1_555 1_555
Zn17 O4_4 1_555 1_555
O26_4 Zn16 1_555 1_555
O30_4 Zn8 1_555 1_555
C7_7 C8_7 1_555 1_555
C9_7 O5_7 1_555 1_555
C16_7 C17_7 1_555 1_555
C18_7 O10_7 1_555 1_555
C25_7 C26_7 1_555 1_555
C28_7 C33_7 1_555 1_555
C29_7 O15_7 1_555 1_555
C30_7 C31_7 1_555 1_555
C30_7 C33_7 1_555 1_555
C31_7 C32_7 1_555 1_555
O16_7 H65_5 1_555 1_555
O16_8 H66_5 1_555 1_555
O16_5 H65_6 1_555 1_555
O16_6 H66_6 1_555 1_555
O18_5 H67_6 1_555 1_555
O18_6 H68_6 1_555 1_555
Zn10 O24_8 1_555 1_555
C40_8 C41_8 1_555 1_555
C41_8 C42_8 1_555 1_555
C42_8 H33_8 1_555 1_555
C43_8 C42_8 1_555 1_555
C44_8 C43_8 1_555 1_555
C45_8 C43_8 1_555 1_555
H34_8 C45_8 1_555 1_555
C46_8 C45_8 1_555 1_555
C47_8 C41_8 1_555 1_555
H35_8 C47_8 1_555 1_555
C48_8 H36_8 1_555 1_555
H37_8 C48_8 1_555 1_555
C49_8 C50_8 1_555 1_555
C50_8 C51_8 1_555 1_555
C51_8 H38_8 1_555 1_555
C52_8 C51_8 1_555 1_555
C53_8 C52_8 1_555 1_555
C54_8 C52_8 1_555 1_555
H39_8 C54_8 1_555 1_555
C55_8 C54_8 1_555 1_555
C56_8 C50_8 1_555 1_555
H40_8 C56_8 1_555 1_555
C57_8 H41_8 1_555 1_555
H42_8 C57_8 1_555 1_555
C58_8 C59_8 1_555 1_555
C59_8 C60_8 1_555 1_555
C60_8 H43_8 1_555 1_555
C61_8 C60_8 1_555 1_555
C62_8 C61_8 1_555 1_555
C63_8 C61_8 1_555 1_555
H44_8 C63_8 1_555 1_555
C64_8 C63_8 1_555 1_555
C65_8 C59_8 1_555 1_555
H45_8 C65_8 1_555 1_555
C66_8 C67_8 1_555 1_555
C67_8 H46_8 1_555 1_555
C68_8 C66_8 1_555 1_555
H47_8 C68_8 1_555 1_555
H48_8 C68_8 1_555 1_555
C69_8 H49_8 1_555 1_555
C70_8 C57_8 1_555 1_555
C71_8 C66_8 1_555 1_555
H50_8 C71_8 1_555 1_555
C72_8 C48_8 1_555 1_555
O24_8 C40_8 1_555 1_555
O27_4 C40_8 1_555 1_555
O28_8 C46_8 1_555 1_555
O30_4 C53_8 1_555 1_555
O32_8 Zn17 1_555 1_555
O37_8 C55_8 1_555 1_555
O40_2 C58_8 1_555 1_555
O42 C58_8 1_555 1_555
O46_2 C62_8 1_555 1_555
O49 C62_8 1_555 1_555
O50_8 C64_8 1_555 1_555
O51_8 Zn17 1_555 1_555
O52_8 Zn10 1_555 1_555
N3_8 C73_8 1_555 1_555
C73_8 O52_8 1_555 1_555
H51_8 C73_8 1_555 1_555
C75_8 N3_8 1_555 1_555
H56_8 C75_8 1_555 1_555
H57_8 C75_8 1_555 1_555
N4_8 C76_8 1_555 1_555
C76_8 O51_8 1_555 1_555
H58_8 C76_8 1_555 1_555
C77_8 N4_8 1_555 1_555
H59_8 C77_8 1_555 1_555
H60_8 C77_8 1_555 1_555
H61_8 C77_8 1_555 1_555
C78_8 N4_8 1_555 1_555
H62_8 C78_8 1_555 1_555
H63_8 C78_8 1_555 1_555
H64_8 C78_8 1_555 1_555
C44_8 O21_7 1_555 1_555
C44_8 O23_8 1_555 1_555
C46_8 C47_8 1_555 1_555
C48_8 O28_8 1_555 1_555
C49_8 O34_8 1_555 1_555
C49_8 O36_7 1_555 1_555
C53_8 O32_8 1_555 1_555
C55_8 C56_8 1_555 1_555
C57_8 O37_8 1_555 1_555
C64_8 C65_8 1_555 1_555
C67_8 C72_8 1_555 1_555
C68_8 O50_8 1_555 1_555
C69_8 C70_8 1_555 1_555
C69_8 C72_8 1_555 1_555
C70_8 C71_8 1_555 1_555
O18_11 H67_7 1_555 1_555
O18_12 H68_7 1_555 1_555
Zn7 O3_8 1_555 1_555
Zn20 O7_8 1_555 1_555
C1_8 C2_8 1_555 1_555
C2_8 C3_8 1_555 1_555
C3_8 H1_8 1_555 1_555
C4_8 C3_8 1_555 1_555
C5_8 C4_8 1_555 1_555
C6_8 C4_8 1_555 1_555
H2_8 C6_8 1_555 1_555
C7_8 C6_8 1_555 1_555
C8_8 C2_8 1_555 1_555
H3_8 C8_8 1_555 1_555
C9_8 H4_8 1_555 1_555
H5_8 C9_8 1_555 1_555
C10_8 C11_8 1_555 1_555
C11_8 C12_8 1_555 1_555
C12_8 H6_8 1_555 1_555
C13_8 C12_8 1_555 1_555
C14_8 C13_8 1_555 1_555
C15_8 C13_8 1_555 1_555
H7_8 C15_8 1_555 1_555
C16_8 C15_8 1_555 1_555
C17_8 C11_8 1_555 1_555
H8_8 C17_8 1_555 1_555
C18_8 H9_8 1_555 1_555
H10_8 C18_8 1_555 1_555
C19_8 C20_8 1_555 1_555
C20_8 C21_8 1_555 1_555
C21_8 H11_8 1_555 1_555
C22_8 C21_8 1_555 1_555
C23_8 C22_8 1_555 1_555
C24_8 C22_8 1_555 1_555
H12_8 C24_8 1_555 1_555
C25_8 C24_8 1_555 1_555
C26_8 C20_8 1_555 1_555
H13_8 C26_8 1_555 1_555
C27_8 C28_8 1_555 1_555
C28_8 H14_8 1_555 1_555
C29_8 C27_8 1_555 1_555
H15_8 C29_8 1_555 1_555
H16_8 C29_8 1_555 1_555
C30_8 H17_8 1_555 1_555
C31_8 C18_8 1_555 1_555
C32_8 C27_8 1_555 1_555
H18_8 C32_8 1_555 1_555
C33_8 C9_8 1_555 1_555
O21_8 C5_8 1_555 1_555
O23_7 C5_8 1_555 1_555
O3_8 C1_8 1_555 1_555
O26_4 C1_8 1_555 1_555
O5_8 C7_8 1_555 1_555
O31_4 C14_8 1_555 1_555
O7_8 C14_8 1_555 1_555
O34_7 C10_8 1_555 1_555
O36_8 C10_8 1_555 1_555
O10_8 C16_8 1_555 1_555
O39_2 C19_8 1_555 1_555
O43 C19_8 1_555 1_555
O45_2 C23_8 1_555 1_555
O48 C23_8 1_555 1_555
O15_8 C25_8 1_555 1_555
O17_8 Zn20 1_555 1_555
O19_8 Zn7 1_555 1_555
N1_8 C34_8 1_555 1_555
C34_8 O19_8 1_555 1_555
H19_8 C34_8 1_555 1_555
C36_8 N1_8 1_555 1_555
H24_8 C36_8 1_555 1_555
H25_8 C36_8 1_555 1_555
N2_8 C37_8 1_555 1_555
C37_8 O17_8 1_555 1_555
H26_8 C37_8 1_555 1_555
C38_8 N2_8 1_555 1_555
H27_8 C38_8 1_555 1_555
H28_8 C38_8 1_555 1_555
H29_8 C38_8 1_555 1_555
C39_8 N2_8 1_555 1_555
H30_8 C39_8 1_555 1_555
H31_8 C39_8 1_555 1_555
H32_8 C39_8 1_555 1_555
C7_8 C8_8 1_555 1_555
C9_8 O5_8 1_555 1_555
C16_8 C17_8 1_555 1_555
C18_8 O10_8 1_555 1_555
C25_8 C26_8 1_555 1_555
C28_8 C33_8 1_555 1_555
C29_8 O15_8 1_555 1_555
C30_8 C31_8 1_555 1_555
C30_8 C33_8 1_555 1_555
C31_8 C32_8 1_555 1_555
O16_11 H65_7 1_555 1_555
O16_12 H66_7 1_555 1_555
O16_9 H65_8 1_555 1_555
O16_10 H66_8 1_555 1_555
O18_9 H67_8 1_555 1_555
O18_10 H68_8 1_555 1_555
H20_5 C35_5 1_555 1_555
H21_5 C35_5 1_555 1_555
H52_5 C74_5 1_555 1_555
H53_5 C74_5 1_555 1_555
H52_6 C74_6 1_555 1_555
H53_6 C74_6 1_555 1_555
H20_6 C35_6 1_555 1_555
H21_6 C35_6 1_555 1_555
H52_7 C74_7 1_555 1_555
H53_7 C74_7 1_555 1_555
H20_7 C35_7 1_555 1_555
H21_7 C35_7 1_555 1_555
H20_8 C35_8 1_555 1_555
H21_8 C35_8 1_555 1_555
H52_8 C74_8 1_555 1_555
H53_8 C74_8 1_555 1_555

#END
