
###############################################################################
#
# This file contains modified crystal structure data generated from the
# MOF subset of the Cambridge Structural Database (CSD) v543 
# hosted by the Cambridge Crystallographic Data Centre (CCDC).
#
# This work is licensed under the Creative Commons
# Attribution-NonCommercial-ShareAlike 4.0 International License.
# To view a copy of this license, visit
# http://creativecommons.org/licenses/by-nc-sa/4.0/
# or send a letter to
# Creative Commons, PO Box 1866, Mountain View, CA 94042, USA.
#
# CIF created using the CSD Python API on 29 September 2022
# The structure has been converted into the P1 space group
# The structure has a 3D framework
# The original CSD entry ADASIJ is in the cubic crystal system
# The framework has been calculated to contain at least 10.0% void space
# The void calculation uses a probe of radius 1.32A, grid spacing 0.4
# H atom positions have been added when not included in the experimental data
# Generated hydrogen atom positions removed from atoms on special positions
#
###############################################################################

data_ADASIJ
_chemical_formula_moiety         '(C1056 H960 Cu144 O624)n'
_symmetry_cell_setting           triclinic
_symmetry_space_group_name_H-M   'P 1'
_symmetry_Int_Tables_number      1
_space_group_name_Hall           'P 1'
loop_
_symmetry_equiv_pos_site_id
_symmetry_equiv_pos_as_xyz
1 x,y,z
_cell_length_a                   41.4795(8)
_cell_length_b                   41.4795(8)
_cell_length_c                   41.4795(8)
_cell_angle_alpha                90
_cell_angle_beta                 90
_cell_angle_gamma                90
_cell_volume                     71367.5
loop_
_atom_site_label
_atom_site_type_symbol
_atom_site_fract_x
_atom_site_fract_y
_atom_site_fract_z
Cu1 Cu 0.32039(7) -0.0000 0.31912(6)
Cu2 Cu 0.36500(6) -0.0000 0.36448(5)
O6 O 0.3987(3) -0.0000 0.4013(3)
O7 O 0.2865(2) -0.0000 0.2789(2)
Cu7 Cu 0.17961(7) -0.0000 0.18088(6)
Cu8 Cu 0.31912(6) 0.17961(7) 0.5000
Cu9 Cu 0.18088(6) 0.32039(7) 0.5000
Cu10 Cu -0.0000 0.31912(6) 0.32039(7)
Cu11 Cu -0.0000 0.18088(6) 0.17961(7)
Cu16 Cu 0.13500(6) -0.0000 0.13552(5)
Cu17 Cu 0.36448(5) 0.13500(6) 0.5000
Cu18 Cu 0.13552(5) 0.36500(6) 0.5000
Cu19 Cu -0.0000 0.36448(5) 0.36500(6)
Cu20 Cu -0.0000 0.13552(5) 0.13500(6)
O10 O 0.3386(2) 0.03320(19) 0.3839(2)
O11 O 0.1161(2) 0.3386(2) 0.46680(19)
O12 O 0.03320(19) 0.1161(2) 0.1614(2)
O17 O 0.2993(2) 0.03020(18) 0.34619(18)
O18 O 0.15381(18) 0.2993(2) 0.46980(18)
O19 O 0.03020(18) 0.15381(18) 0.2007(2)
O24 O 0.33748(19) 0.1161(2) 0.46690(18)
O25 O 0.03310(18) 0.33748(19) 0.3839(2)
O26 O 0.1161(2) 0.03310(18) 0.16252(19)
O28 O 0.3839(2) 0.03310(18) 0.33748(19)
O35 O 0.2994(2) 0.1541(3) 0.46690(19)
O36 O 0.03310(19) 0.2994(2) 0.3459(3)
O37 O 0.1541(3) 0.03310(19) 0.2006(2)
O39 O 0.3459(3) 0.03310(19) 0.2994(2)
O46 O 0.2210(3) 0.1121(3) 0.3778(3)
O47 O 0.1222(3) 0.2210(3) 0.3879(3)
O48 O 0.1121(3) 0.1222(3) 0.2790(3)
C14 C 0.2947(2) 0.0686(2) 0.3894(2)
C15 C 0.1106(2) 0.2947(2) 0.4314(2)
C16 C 0.0686(2) 0.1106(2) 0.2053(2)
C19 C 0.31039(17) 0.08402(17) 0.41413(12)
C20 C 0.08587(12) 0.31039(17) 0.41598(17)
C21 C 0.08402(17) 0.08587(12) 0.18961(17)
H9 H 0.3310 0.0768 0.4210
H10 H 0.0790 0.3310 0.4232
H11 H 0.0768 0.0790 0.1690
C24 C 0.2960(2) 0.1102(2) 0.42900(19)
C25 C 0.07100(19) 0.2960(2) 0.3898(2)
C26 C 0.1102(2) 0.07100(19) 0.2040(2)
C29 C 0.2662(2) 0.1209(2) 0.41690(18)
C30 C 0.08310(18) 0.2662(2) 0.3791(2)
C31 C 0.1209(2) 0.08310(18) 0.2338(2)
H14 H 0.2565 0.1397 0.4255
H15 H 0.0745 0.2565 0.3603
H16 H 0.1397 0.0745 0.2435
C34 C 0.2509(3) 0.1039(3) 0.3923(3)
C35 C 0.1077(3) 0.2509(3) 0.3961(3)
C36 C 0.1039(3) 0.1077(3) 0.2491(3)
C39 C 0.2640(2) 0.0760(3) 0.3785(2)
C40 C 0.1215(2) 0.2640(2) 0.4240(3)
C41 C 0.0760(3) 0.1215(2) 0.2360(2)
H19 H 0.2529 0.0633 0.3631
H20 H 0.1369 0.2529 0.4367
H21 H 0.0633 0.1369 0.2471
C44 C 0.3146(2) 0.1276(2) 0.4551(2)
C45 C 0.0449(2) 0.3146(2) 0.3724(2)
C46 C 0.1276(2) 0.0449(2) 0.1854(2)
C49 C 0.3089(2) 0.0401(2) 0.3722(3)
C50 C 0.1278(3) 0.3089(2) 0.4599(2)
C51 C 0.0401(2) 0.1278(3) 0.1911(2)
C54 C 0.2045(4) 0.1362(4) 0.3916(4)
C55 C 0.1084(4) 0.2045(4) 0.3638(4)
C56 C 0.1362(4) 0.1084(4) 0.2955(4)
H24 H 0.1971 0.1301 0.4135
H25 H 0.0865 0.1971 0.3699
H26 H 0.1301 0.0865 0.3029
H29 H 0.2179 0.1559 0.3932
H30 H 0.1068 0.2179 0.3441
H31 H 0.1559 0.1068 0.2821
C59 C 0.1755(3) 0.1418(3) 0.3689(3)
C60 C 0.1311(3) 0.1755(3) 0.3582(3)
C61 C 0.1418(3) 0.1311(3) 0.3245(3)
C64 C 0.1574(4) 0.1684(4) 0.3779(3)
C65 C 0.1221(3) 0.1574(4) 0.3316(4)
C66 C 0.1684(4) 0.1221(3) 0.3426(4)
H34 H 0.1626 0.1811 0.3963
H35 H 0.1811 0.1037 0.3374
H36 H 0.1037 0.1626 0.3189
H38 H 0.41575 0.0161079 0.396512
H39 H 0.264945 0.0069843 0.286627
H40 H 0.29419 0.015095 0.261985
Cu1_2 Cu 0.32039(7) 1.0000 0.31912(6)
Cu2_2 Cu 0.36500(6) 1.0000 0.36448(5)
O1 O 0.3386(2) 0.96680(19) 0.3839(2)
O2 O 0.2993(2) 0.96980(18) 0.34619(18)
O3 O 0.33748(19) 0.8839(2) 0.46690(18)
O4 O 0.2994(2) 0.8459(3) 0.46690(19)
O5 O 0.2210(3) 0.8879(3) 0.3778(3)
O6_2 O 0.3987(3) 1.0000 0.4013(3)
O7_2 O 0.2865(2) 1.0000 0.2789(2)
C1 C 0.2947(2) 0.9314(2) 0.3894(2)
C2 C 0.31039(17) 0.91598(17) 0.41413(12)
H1 H 0.3310 0.9232 0.4210
C3 C 0.2960(2) 0.8898(2) 0.42900(19)
C4 C 0.2662(2) 0.8791(2) 0.41690(18)
H2 H 0.2565 0.8603 0.4255
C5 C 0.2509(3) 0.8961(3) 0.3923(3)
C6 C 0.2640(2) 0.9240(3) 0.3785(2)
H3 H 0.2529 0.9367 0.3631
C7 C 0.3146(2) 0.8724(2) 0.4551(2)
C8 C 0.3089(2) 0.9599(2) 0.3722(3)
C9 C 0.2045(4) 0.8638(4) 0.3916(4)
H4 H 0.1971 0.8699 0.4135
H5 H 0.2179 0.8441 0.3932
C10 C 0.1755(3) 0.8582(3) 0.3689(3)
C11 C 0.1574(4) 0.8316(4) 0.3779(3)
H6 H 0.1626 0.8189 0.3963
Cu3 Cu 0.18088(6) 0.67961(7) 0.5000
Cu4 Cu -0.0000 0.81912(6) 0.17961(7)
Cu5 Cu 0.31912(6) 0.82039(7) 0.5000
Cu6 Cu -0.0000 0.68088(6) 0.32039(7)
Cu7_2 Cu 0.17961(7) 1.0000 0.18088(6)
Cu12 Cu 0.13552(5) 0.63500(6) 0.5000
Cu13 Cu -0.0000 0.86448(5) 0.13500(6)
Cu14 Cu 0.36448(5) 0.86500(6) 0.5000
Cu15 Cu 0.0000 0.63552(5) 0.36500(6)
Cu16_2 Cu 0.13500(6) 1.0000 0.13552(5)
O8 O 0.1161(2) 0.6614(2) 0.46680(19)
O9 O 0.03320(19) 0.8839(2) 0.1614(2)
O13 O 0.1161(2) 0.6614(2) 0.53320(19)
O15 O 0.15381(18) 0.7007(2) 0.46980(18)
O16 O 0.03020(18) 0.84619(18) 0.2007(2)
O20 O 0.15381(18) 0.7007(2) 0.53020(18)
O22 O 0.03310(18) 0.66252(19) 0.3839(2)
O23 O 0.1161(2) 0.96690(18) 0.16252(19)
O27 O 0.3839(2) 0.96690(18) 0.33748(19)
O29 O 0.16252(19) 0.6161(2) 0.46690(18)
O30 O 0.16252(19) 0.6161(2) 0.53310(18)
O31 O 0.03310(18) 0.83748(19) 0.1161(2)
O33 O 0.03310(19) 0.7006(2) 0.3459(3)
O34 O 0.1541(3) 0.96690(19) 0.2006(2)
O38 O 0.3459(3) 0.96690(19) 0.2994(2)
O40 O 0.2006(2) 0.6541(3) 0.46690(19)
O41 O 0.2006(2) 0.6541(3) 0.53310(19)
O42 O 0.03310(19) 0.7994(2) 0.1541(3)
O44 O 0.1222(3) 0.7790(3) 0.3879(3)
O45 O 0.1121(3) 0.8778(3) 0.2790(3)
O49 O 0.0987(3) 0.6013(3) 0.5000
O50 O -0.0000 0.9013(3) 0.1013(3)
O51 O 0.2211(2) 0.7135(2) 0.5000
O52 O -0.0000 0.7789(2) 0.2135(2)
C12 C 0.1106(2) 0.7053(2) 0.4314(2)
C13 C 0.0686(2) 0.8894(2) 0.2053(2)
C17 C 0.08587(12) 0.68961(17) 0.41598(17)
C18 C 0.08402(17) 0.91413(12) 0.18961(17)
H7 H 0.0790 0.6690 0.4232
H8 H 0.0768 0.9210 0.1690
C22 C 0.07100(19) 0.7040(2) 0.3898(2)
C23 C 0.1102(2) 0.92900(19) 0.2040(2)
C27 C 0.08310(18) 0.7338(2) 0.3791(2)
C28 C 0.1209(2) 0.91690(18) 0.2338(2)
H12 H 0.0745 0.7435 0.3603
H13 H 0.1397 0.9255 0.2435
C32 C 0.1077(3) 0.7491(3) 0.3961(3)
C33 C 0.1039(3) 0.8923(3) 0.2491(3)
C37 C 0.1215(2) 0.7360(2) 0.4240(3)
C38 C 0.0760(3) 0.8785(2) 0.2360(2)
H17 H 0.1369 0.7471 0.4367
H18 H 0.0633 0.8631 0.2471
C42 C 0.0449(2) 0.6854(2) 0.3724(2)
C43 C 0.1276(2) 0.9551(2) 0.1854(2)
C47 C 0.1278(3) 0.6911(2) 0.4599(2)
C48 C 0.0401(2) 0.8722(3) 0.1911(2)
C52 C 0.1084(4) 0.7955(4) 0.3638(4)
C53 C 0.1362(4) 0.8916(4) 0.2955(4)
H22 H 0.0865 0.8029 0.3699
H23 H 0.1301 0.9135 0.3029
H27 H 0.1068 0.7821 0.3441
H28 H 0.1559 0.8932 0.2821
C57 C 0.1311(3) 0.8245(3) 0.3582(3)
C58 C 0.1418(3) 0.8689(3) 0.3245(3)
C62 C 0.1221(3) 0.8426(4) 0.3316(4)
C63 C 0.1684(4) 0.8779(3) 0.3426(4)
H32 H 0.1811 0.8963 0.3374
H33 H 0.1037 0.8374 0.3189
H37 H 0.408547 0.978254 0.403105
H43 H 0.0217459 0.903105 0.0914532
Cu10_2 Cu 1.0000 0.31912(6) 0.32039(7)
Cu11_2 Cu 1.0000 0.18088(6) 0.17961(7)
Cu19_2 Cu 1.0000 0.36448(5) 0.36500(6)
Cu20_2 Cu 1.0000 0.13552(5) 0.13500(6)
Cu4_2 Cu 1.0000 0.81912(6) 0.17961(7)
Cu6_2 Cu 1.0000 0.68088(6) 0.32039(7)
Cu13_2 Cu 1.0000 0.86448(5) 0.13500(6)
Cu15_2 Cu 1.0000 0.63552(5) 0.36500(6)
O14 O 0.96680(19) 0.8839(2) 0.1614(2)
O21 O 0.96980(18) 0.84619(18) 0.2007(2)
O32 O 0.96690(18) 0.83748(19) 0.1161(2)
O43 O 0.96690(19) 0.7994(2) 0.1541(3)
O50_2 O 1.0000 0.9013(3) 0.1013(3)
O52_2 O 1.0000 0.7789(2) 0.2135(2)
H41 H 0.993016 0.786627 0.235055
H42 H 0.984905 0.761985 0.20581
H44 H 0.983892 0.896512 0.0842497
O32_2 O 0.03310(18) 0.16252(19) 0.1161(2)
O43_2 O 0.03310(19) 0.2006(2) 0.1541(3)
O50_3 O 0.0000 0.0987(3) 0.1013(3)
O52_3 O 0.0000 0.2211(2) 0.2135(2)
H41_2 H 0.0069843 0.213373 0.235055
H42_2 H 0.015095 0.238015 0.20581
H44_2 H 0.0161079 0.103488 0.0842497
Cu1_3 Cu 0.67961(7) -0.0000 0.31912(6)
Cu2_3 Cu 0.63500(6) -0.0000 0.36448(5)
O1_2 O 0.6614(2) 0.03320(19) 0.3839(2)
O2_2 O 0.7007(2) 0.03020(18) 0.34619(18)
O3_2 O 0.66252(19) 0.1161(2) 0.46690(18)
O4_2 O 0.7006(2) 0.1541(3) 0.46690(19)
O5_2 O 0.7790(3) 0.1121(3) 0.3778(3)
O6_3 O 0.6013(3) -0.0000 0.4013(3)
O7_3 O 0.7135(2) -0.0000 0.2789(2)
C1_2 C 0.7053(2) 0.0686(2) 0.3894(2)
C2_2 C 0.68961(17) 0.08402(17) 0.41413(12)
H1_2 H 0.6690 0.0768 0.4210
C3_2 C 0.7040(2) 0.1102(2) 0.42900(19)
C4_2 C 0.7338(2) 0.1209(2) 0.41690(18)
H2_2 H 0.7435 0.1397 0.4255
C5_2 C 0.7491(3) 0.1039(3) 0.3923(3)
C6_2 C 0.7360(2) 0.0760(3) 0.3785(2)
H3_2 H 0.7471 0.0633 0.3631
C7_2 C 0.6854(2) 0.1276(2) 0.4551(2)
C8_2 C 0.6911(2) 0.0401(2) 0.3722(3)
C9_2 C 0.7955(4) 0.1362(4) 0.3916(4)
H4_2 H 0.8029 0.1301 0.4135
H5_2 H 0.7821 0.1559 0.3932
C10_2 C 0.8245(3) 0.1418(3) 0.3689(3)
C11_2 C 0.8426(4) 0.1684(4) 0.3779(3)
H6_2 H 0.8374 0.1811 0.3963
Cu3_2 Cu 0.81912(6) 0.32039(7) 0.5000
Cu5_2 Cu 0.68088(6) 0.17961(7) 0.5000
Cu7_3 Cu 0.82039(7) -0.0000 0.18088(6)
Cu12_2 Cu 0.86448(5) 0.36500(6) 0.5000
Cu14_2 Cu 0.63552(5) 0.13500(6) 0.5000
Cu16_3 Cu 0.86500(6) -0.0000 0.13552(5)
O8_2 O 0.8839(2) 0.3386(2) 0.46680(19)
O9_2 O 0.96680(19) 0.1161(2) 0.1614(2)
O13_2 O 0.8839(2) 0.3386(2) 0.53320(19)
O15_2 O 0.84619(18) 0.2993(2) 0.46980(18)
O16_2 O 0.96980(18) 0.15381(18) 0.2007(2)
O20_2 O 0.84619(18) 0.2993(2) 0.53020(18)
O22_2 O 0.96690(18) 0.33748(19) 0.3839(2)
O23_2 O 0.8839(2) 0.03310(18) 0.16252(19)
O27_2 O 0.6161(2) 0.03310(18) 0.33748(19)
O29_2 O 0.83748(19) 0.3839(2) 0.46690(18)
O30_2 O 0.83748(19) 0.3839(2) 0.53310(18)
O31_2 O 0.96690(18) 0.16252(19) 0.1161(2)
O33_2 O 0.96690(19) 0.2994(2) 0.3459(3)
O34_2 O 0.8459(3) 0.03310(19) 0.2006(2)
O38_2 O 0.6541(3) 0.03310(19) 0.2994(2)
O40_2 O 0.7994(2) 0.3459(3) 0.46690(19)
O41_2 O 0.7994(2) 0.3459(3) 0.53310(19)
O42_2 O 0.96690(19) 0.2006(2) 0.1541(3)
O44_2 O 0.8778(3) 0.2210(3) 0.3879(3)
O45_2 O 0.8879(3) 0.1222(3) 0.2790(3)
O49_2 O 0.9013(3) 0.3987(3) 0.5000
O50_4 O 1.0000 0.0987(3) 0.1013(3)
O51_2 O 0.7789(2) 0.2865(2) 0.5000
O52_4 O 1.0000 0.2211(2) 0.2135(2)
C12_2 C 0.8894(2) 0.2947(2) 0.4314(2)
C13_2 C 0.9314(2) 0.1106(2) 0.2053(2)
C17_2 C 0.91413(12) 0.31039(17) 0.41598(17)
C18_2 C 0.91598(17) 0.08587(12) 0.18961(17)
H7_2 H 0.9210 0.3310 0.4232
H8_2 H 0.9232 0.0790 0.1690
C22_2 C 0.92900(19) 0.2960(2) 0.3898(2)
C23_2 C 0.8898(2) 0.07100(19) 0.2040(2)
C27_2 C 0.91690(18) 0.2662(2) 0.3791(2)
C28_2 C 0.8791(2) 0.08310(18) 0.2338(2)
H12_2 H 0.9255 0.2565 0.3603
H13_2 H 0.8603 0.0745 0.2435
C32_2 C 0.8923(3) 0.2509(3) 0.3961(3)
C33_2 C 0.8961(3) 0.1077(3) 0.2491(3)
C37_2 C 0.8785(2) 0.2640(2) 0.4240(3)
C38_2 C 0.9240(3) 0.1215(2) 0.2360(2)
H17_2 H 0.8631 0.2529 0.4367
H18_2 H 0.9367 0.1369 0.2471
C42_2 C 0.9551(2) 0.3146(2) 0.3724(2)
C43_2 C 0.8724(2) 0.0449(2) 0.1854(2)
C47_2 C 0.8722(3) 0.3089(2) 0.4599(2)
C48_2 C 0.9599(2) 0.1278(3) 0.1911(2)
C52_2 C 0.8916(4) 0.2045(4) 0.3638(4)
C53_2 C 0.8638(4) 0.1084(4) 0.2955(4)
H22_2 H 0.9135 0.1971 0.3699
H23_2 H 0.8699 0.0865 0.3029
H27_2 H 0.8932 0.2179 0.3441
H28_2 H 0.8441 0.1068 0.2821
C57_2 C 0.8689(3) 0.1755(3) 0.3582(3)
C58_2 C 0.8582(3) 0.1311(3) 0.3245(3)
C62_2 C 0.8779(3) 0.1574(4) 0.3316(4)
C63_2 C 0.8316(4) 0.1221(3) 0.3426(4)
H32_2 H 0.8189 0.1037 0.3374
H33_2 H 0.8963 0.1626 0.3189
H37_2 H 0.591453 0.0217459 0.403105
H43_2 H 0.978254 0.0968947 0.0914532
Cu1_4 Cu 0.67961(7) 1.0000 0.31912(6)
Cu2_4 Cu 0.63500(6) 1.0000 0.36448(5)
O6_4 O 0.6013(3) 1.0000 0.4013(3)
O7_4 O 0.7135(2) 1.0000 0.2789(2)
Cu7_4 Cu 0.82039(7) 1.0000 0.18088(6)
Cu8_2 Cu 0.68088(6) 0.82039(7) 0.5000
Cu9_2 Cu 0.81912(6) 0.67961(7) 0.5000
Cu16_4 Cu 0.86500(6) 1.0000 0.13552(5)
Cu17_2 Cu 0.63552(5) 0.86500(6) 0.5000
Cu18_2 Cu 0.86448(5) 0.63500(6) 0.5000
O10_2 O 0.6614(2) 0.96680(19) 0.3839(2)
O11_2 O 0.8839(2) 0.6614(2) 0.46680(19)
O17_2 O 0.7007(2) 0.96980(18) 0.34619(18)
O18_2 O 0.84619(18) 0.7007(2) 0.46980(18)
O24_2 O 0.66252(19) 0.8839(2) 0.46690(18)
O25_2 O 0.96690(18) 0.66252(19) 0.3839(2)
O26_2 O 0.8839(2) 0.96690(18) 0.16252(19)
O28_2 O 0.6161(2) 0.96690(18) 0.33748(19)
O35_2 O 0.7006(2) 0.8459(3) 0.46690(19)
O36_2 O 0.96690(19) 0.7006(2) 0.3459(3)
O37_2 O 0.8459(3) 0.96690(19) 0.2006(2)
O39_2 O 0.6541(3) 0.96690(19) 0.2994(2)
O46_2 O 0.7790(3) 0.8879(3) 0.3778(3)
O47_2 O 0.8778(3) 0.7790(3) 0.3879(3)
O48_2 O 0.8879(3) 0.8778(3) 0.2790(3)
C14_2 C 0.7053(2) 0.9314(2) 0.3894(2)
C15_2 C 0.8894(2) 0.7053(2) 0.4314(2)
C16_2 C 0.9314(2) 0.8894(2) 0.2053(2)
C19_2 C 0.68961(17) 0.91598(17) 0.41413(12)
C20_2 C 0.91413(12) 0.68961(17) 0.41598(17)
C21_2 C 0.91598(17) 0.91413(12) 0.18961(17)
H9_2 H 0.6690 0.9232 0.4210
H10_2 H 0.9210 0.6690 0.4232
H11_2 H 0.9232 0.9210 0.1690
C24_2 C 0.7040(2) 0.8898(2) 0.42900(19)
C25_2 C 0.92900(19) 0.7040(2) 0.3898(2)
C26_2 C 0.8898(2) 0.92900(19) 0.2040(2)
C29_2 C 0.7338(2) 0.8791(2) 0.41690(18)
C30_2 C 0.91690(18) 0.7338(2) 0.3791(2)
C31_2 C 0.8791(2) 0.91690(18) 0.2338(2)
H14_2 H 0.7435 0.8603 0.4255
H15_2 H 0.9255 0.7435 0.3603
H16_2 H 0.8603 0.9255 0.2435
C34_2 C 0.7491(3) 0.8961(3) 0.3923(3)
C35_2 C 0.8923(3) 0.7491(3) 0.3961(3)
C36_2 C 0.8961(3) 0.8923(3) 0.2491(3)
C39_2 C 0.7360(2) 0.9240(3) 0.3785(2)
C40_2 C 0.8785(2) 0.7360(2) 0.4240(3)
C41_2 C 0.9240(3) 0.8785(2) 0.2360(2)
H19_2 H 0.7471 0.9367 0.3631
H20_2 H 0.8631 0.7471 0.4367
H21_2 H 0.9367 0.8631 0.2471
C44_2 C 0.6854(2) 0.8724(2) 0.4551(2)
C45_2 C 0.9551(2) 0.6854(2) 0.3724(2)
C46_2 C 0.8724(2) 0.9551(2) 0.1854(2)
C49_2 C 0.6911(2) 0.9599(2) 0.3722(3)
C50_2 C 0.8722(3) 0.6911(2) 0.4599(2)
C51_2 C 0.9599(2) 0.8722(3) 0.1911(2)
C54_2 C 0.7955(4) 0.8638(4) 0.3916(4)
C55_2 C 0.8916(4) 0.7955(4) 0.3638(4)
C56_2 C 0.8638(4) 0.8916(4) 0.2955(4)
H24_2 H 0.8029 0.8699 0.4135
H25_2 H 0.9135 0.8029 0.3699
H26_2 H 0.8699 0.9135 0.3029
H29_2 H 0.7821 0.8441 0.3932
H30_2 H 0.8932 0.7821 0.3441
H31_2 H 0.8441 0.8932 0.2821
C59_2 C 0.8245(3) 0.8582(3) 0.3689(3)
C60_2 C 0.8689(3) 0.8245(3) 0.3582(3)
C61_2 C 0.8582(3) 0.8689(3) 0.3245(3)
C64_2 C 0.8426(4) 0.8316(4) 0.3779(3)
C65_2 C 0.8779(3) 0.8426(4) 0.3316(4)
C66_2 C 0.8316(4) 0.8779(3) 0.3426(4)
H34_2 H 0.8374 0.8189 0.3963
H35_2 H 0.8189 0.8963 0.3374
H36_2 H 0.8963 0.8374 0.3189
H38_2 H 0.58425 0.983892 0.396512
H39_2 H 0.735055 0.993016 0.286627
H40_2 H 0.70581 0.984905 0.261985
Cu10_3 Cu 0.0000 0.31912(6) 0.67961(7)
Cu11_3 Cu 0.0000 0.18088(6) 0.82039(7)
Cu19_3 Cu 0.0000 0.36448(5) 0.63500(6)
Cu20_3 Cu 0.0000 0.13552(5) 0.86500(6)
Cu4_3 Cu 0.0000 0.81912(6) 0.82039(7)
Cu6_3 Cu 0.0000 0.68088(6) 0.67961(7)
Cu13_3 Cu 0.0000 0.86448(5) 0.86500(6)
Cu15_3 Cu 0.0000 0.63552(5) 0.63500(6)
O14_2 O 0.03320(19) 0.8839(2) 0.8386(2)
O21_2 O 0.03020(18) 0.84619(18) 0.7993(2)
O32_3 O 0.03310(18) 0.83748(19) 0.8839(2)
O43_3 O 0.03310(19) 0.7994(2) 0.8459(3)
O50_5 O 0.0000 0.9013(3) 0.8987(3)
O52_5 O 0.0000 0.7789(2) 0.7865(2)
H41_3 H 0.0069843 0.786627 0.764945
H42_3 H 0.015095 0.761985 0.79419
H44_3 H 0.0161079 0.896512 0.91575
Cu1_5 Cu 0.67961(7) -0.0000 0.68088(6)
Cu2_5 Cu 0.63500(6) -0.0000 0.63552(5)
O6_5 O 0.6013(3) -0.0000 0.5987(3)
O7_5 O 0.7135(2) -0.0000 0.7211(2)
Cu7_5 Cu 0.82039(7) -0.0000 0.81912(6)
Cu10_4 Cu 1.0000 0.31912(6) 0.67961(7)
Cu11_4 Cu 1.0000 0.18088(6) 0.82039(7)
Cu16_5 Cu 0.86500(6) -0.0000 0.86448(5)
Cu19_4 Cu 1.0000 0.36448(5) 0.63500(6)
Cu20_4 Cu 1.0000 0.13552(5) 0.86500(6)
O10_3 O 0.6614(2) 0.03320(19) 0.6161(2)
O12_2 O 0.96680(19) 0.1161(2) 0.8386(2)
O17_3 O 0.7007(2) 0.03020(18) 0.65381(18)
O19_2 O 0.96980(18) 0.15381(18) 0.7993(2)
O24_3 O 0.66252(19) 0.1161(2) 0.53310(18)
O25_3 O 0.96690(18) 0.33748(19) 0.6161(2)
O26_3 O 0.8839(2) 0.03310(18) 0.83748(19)
O28_3 O 0.6161(2) 0.03310(18) 0.66252(19)
O35_3 O 0.7006(2) 0.1541(3) 0.53310(19)
O36_3 O 0.96690(19) 0.2994(2) 0.6541(3)
O37_3 O 0.8459(3) 0.03310(19) 0.7994(2)
O39_3 O 0.6541(3) 0.03310(19) 0.7006(2)
O46_3 O 0.7790(3) 0.1121(3) 0.6222(3)
O47_3 O 0.8778(3) 0.2210(3) 0.6121(3)
O48_3 O 0.8879(3) 0.1222(3) 0.7210(3)
C14_3 C 0.7053(2) 0.0686(2) 0.6106(2)
C15_3 C 0.8894(2) 0.2947(2) 0.5686(2)
C16_3 C 0.9314(2) 0.1106(2) 0.7947(2)
C19_3 C 0.68961(17) 0.08402(17) 0.58587(12)
C20_3 C 0.91413(12) 0.31039(17) 0.58402(17)
C21_3 C 0.91598(17) 0.08587(12) 0.81039(17)
H9_3 H 0.6690 0.0768 0.5790
H10_3 H 0.9210 0.3310 0.5768
H11_3 H 0.9232 0.0790 0.8310
C24_3 C 0.7040(2) 0.1102(2) 0.57100(19)
C25_3 C 0.92900(19) 0.2960(2) 0.6102(2)
C26_3 C 0.8898(2) 0.07100(19) 0.7960(2)
C29_3 C 0.7338(2) 0.1209(2) 0.58310(18)
C30_3 C 0.91690(18) 0.2662(2) 0.6209(2)
C31_3 C 0.8791(2) 0.08310(18) 0.7662(2)
H14_3 H 0.7435 0.1397 0.5745
H15_3 H 0.9255 0.2565 0.6397
H16_3 H 0.8603 0.0745 0.7565
C34_3 C 0.7491(3) 0.1039(3) 0.6077(3)
C35_3 C 0.8923(3) 0.2509(3) 0.6039(3)
C36_3 C 0.8961(3) 0.1077(3) 0.7509(3)
C39_3 C 0.7360(2) 0.0760(3) 0.6215(2)
C40_3 C 0.8785(2) 0.2640(2) 0.5760(3)
C41_3 C 0.9240(3) 0.1215(2) 0.7640(2)
H19_3 H 0.7471 0.0633 0.6369
H20_3 H 0.8631 0.2529 0.5633
H21_3 H 0.9367 0.1369 0.7529
C44_3 C 0.6854(2) 0.1276(2) 0.5449(2)
C45_3 C 0.9551(2) 0.3146(2) 0.6276(2)
C46_3 C 0.8724(2) 0.0449(2) 0.8146(2)
C49_3 C 0.6911(2) 0.0401(2) 0.6278(3)
C50_3 C 0.8722(3) 0.3089(2) 0.5401(2)
C51_3 C 0.9599(2) 0.1278(3) 0.8089(2)
C54_3 C 0.7955(4) 0.1362(4) 0.6084(4)
C55_3 C 0.8916(4) 0.2045(4) 0.6362(4)
C56_3 C 0.8638(4) 0.1084(4) 0.7045(4)
H24_3 H 0.8029 0.1301 0.5865
H25_3 H 0.9135 0.1971 0.6301
H26_3 H 0.8699 0.0865 0.6971
H29_3 H 0.7821 0.1559 0.6068
H30_3 H 0.8932 0.2179 0.6559
H31_3 H 0.8441 0.1068 0.7179
C59_3 C 0.8245(3) 0.1418(3) 0.6311(3)
C60_3 C 0.8689(3) 0.1755(3) 0.6418(3)
C61_3 C 0.8582(3) 0.1311(3) 0.6755(3)
C64_3 C 0.8426(4) 0.1684(4) 0.6221(3)
C65_3 C 0.8779(3) 0.1574(4) 0.6684(4)
C66_3 C 0.8316(4) 0.1221(3) 0.6574(4)
H34_3 H 0.8374 0.1811 0.6037
H35_3 H 0.8189 0.1037 0.6626
H36_3 H 0.8963 0.1626 0.6811
H38_3 H 0.58425 0.0161079 0.603488
H39_3 H 0.735055 0.0069843 0.713373
H40_3 H 0.70581 0.015095 0.738015
Cu1_6 Cu 0.67961(7) 1.0000 0.68088(6)
Cu2_6 Cu 0.63500(6) 1.0000 0.63552(5)
O1_3 O 0.6614(2) 0.96680(19) 0.6161(2)
O2_3 O 0.7007(2) 0.96980(18) 0.65381(18)
O3_3 O 0.66252(19) 0.8839(2) 0.53310(18)
O4_3 O 0.7006(2) 0.8459(3) 0.53310(19)
O5_3 O 0.7790(3) 0.8879(3) 0.6222(3)
O6_6 O 0.6013(3) 1.0000 0.5987(3)
O7_6 O 0.7135(2) 1.0000 0.7211(2)
C1_3 C 0.7053(2) 0.9314(2) 0.6106(2)
C2_3 C 0.68961(17) 0.91598(17) 0.58587(12)
H1_3 H 0.6690 0.9232 0.5790
C3_3 C 0.7040(2) 0.8898(2) 0.57100(19)
C4_3 C 0.7338(2) 0.8791(2) 0.58310(18)
H2_3 H 0.7435 0.8603 0.5745
C5_3 C 0.7491(3) 0.8961(3) 0.6077(3)
C6_3 C 0.7360(2) 0.9240(3) 0.6215(2)
H3_3 H 0.7471 0.9367 0.6369
C7_3 C 0.6854(2) 0.8724(2) 0.5449(2)
C8_3 C 0.6911(2) 0.9599(2) 0.6278(3)
C9_3 C 0.7955(4) 0.8638(4) 0.6084(4)
H4_3 H 0.8029 0.8699 0.5865
H5_3 H 0.7821 0.8441 0.6068
C10_3 C 0.8245(3) 0.8582(3) 0.6311(3)
C11_3 C 0.8426(4) 0.8316(4) 0.6221(3)
H6_3 H 0.8374 0.8189 0.6037
Cu4_4 Cu 1.0000 0.81912(6) 0.82039(7)
Cu6_4 Cu 1.0000 0.68088(6) 0.67961(7)
Cu7_6 Cu 0.82039(7) 1.0000 0.81912(6)
Cu13_4 Cu 1.0000 0.86448(5) 0.86500(6)
Cu15_4 Cu 1.0000 0.63552(5) 0.63500(6)
Cu16_6 Cu 0.86500(6) 1.0000 0.86448(5)
O8_3 O 0.8839(2) 0.6614(2) 0.53320(19)
O9_3 O 0.96680(19) 0.8839(2) 0.8386(2)
O15_3 O 0.84619(18) 0.7007(2) 0.53020(18)
O16_3 O 0.96980(18) 0.84619(18) 0.7993(2)
O22_3 O 0.96690(18) 0.66252(19) 0.6161(2)
O23_3 O 0.8839(2) 0.96690(18) 0.83748(19)
O27_3 O 0.6161(2) 0.96690(18) 0.66252(19)
O29_3 O 0.83748(19) 0.6161(2) 0.53310(18)
O30_3 O 0.83748(19) 0.6161(2) 0.46690(18)
O31_3 O 0.96690(18) 0.83748(19) 0.8839(2)
O33_3 O 0.96690(19) 0.7006(2) 0.6541(3)
O34_3 O 0.8459(3) 0.96690(19) 0.7994(2)
O38_3 O 0.6541(3) 0.96690(19) 0.7006(2)
O40_3 O 0.7994(2) 0.6541(3) 0.53310(19)
O41_3 O 0.7994(2) 0.6541(3) 0.46690(19)
O42_3 O 0.96690(19) 0.7994(2) 0.8459(3)
O44_3 O 0.8778(3) 0.7790(3) 0.6121(3)
O45_3 O 0.8879(3) 0.8778(3) 0.7210(3)
O49_3 O 0.9013(3) 0.6013(3) 0.5000
O50_6 O 1.0000 0.9013(3) 0.8987(3)
O51_3 O 0.7789(2) 0.7135(2) 0.5000
O52_6 O 1.0000 0.7789(2) 0.7865(2)
C12_3 C 0.8894(2) 0.7053(2) 0.5686(2)
C13_3 C 0.9314(2) 0.8894(2) 0.7947(2)
C17_3 C 0.91413(12) 0.68961(17) 0.58402(17)
C18_3 C 0.91598(17) 0.91413(12) 0.81039(17)
H7_3 H 0.9210 0.6690 0.5768
H8_3 H 0.9232 0.9210 0.8310
C22_3 C 0.92900(19) 0.7040(2) 0.6102(2)
C23_3 C 0.8898(2) 0.92900(19) 0.7960(2)
C27_3 C 0.91690(18) 0.7338(2) 0.6209(2)
C28_3 C 0.8791(2) 0.91690(18) 0.7662(2)
H12_3 H 0.9255 0.7435 0.6397
H13_3 H 0.8603 0.9255 0.7565
C32_3 C 0.8923(3) 0.7491(3) 0.6039(3)
C33_3 C 0.8961(3) 0.8923(3) 0.7509(3)
C37_3 C 0.8785(2) 0.7360(2) 0.5760(3)
C38_3 C 0.9240(3) 0.8785(2) 0.7640(2)
H17_3 H 0.8631 0.7471 0.5633
H18_3 H 0.9367 0.8631 0.7529
C42_3 C 0.9551(2) 0.6854(2) 0.6276(2)
C43_3 C 0.8724(2) 0.9551(2) 0.8146(2)
C47_3 C 0.8722(3) 0.6911(2) 0.5401(2)
C48_3 C 0.9599(2) 0.8722(3) 0.8089(2)
C52_3 C 0.8916(4) 0.7955(4) 0.6362(4)
C53_3 C 0.8638(4) 0.8916(4) 0.7045(4)
H22_3 H 0.9135 0.8029 0.6301
H23_3 H 0.8699 0.9135 0.6971
H27_3 H 0.8932 0.7821 0.6559
H28_3 H 0.8441 0.8932 0.7179
C57_3 C 0.8689(3) 0.8245(3) 0.6418(3)
C58_3 C 0.8582(3) 0.8689(3) 0.6755(3)
C62_3 C 0.8779(3) 0.8426(4) 0.6684(4)
C63_3 C 0.8316(4) 0.8779(3) 0.6574(4)
H32_3 H 0.8189 0.8963 0.6626
H33_3 H 0.8963 0.8374 0.6811
H37_3 H 0.591453 0.978254 0.596895
H43_3 H 0.978254 0.903105 0.908547
Cu1_7 Cu 0.32039(7) -0.0000 0.68088(6)
Cu2_7 Cu 0.36500(6) -0.0000 0.63552(5)
O1_4 O 0.3386(2) 0.03320(19) 0.6161(2)
O2_4 O 0.2993(2) 0.03020(18) 0.65381(18)
O3_4 O 0.33748(19) 0.1161(2) 0.53310(18)
O4_4 O 0.2994(2) 0.1541(3) 0.53310(19)
O5_4 O 0.2210(3) 0.1121(3) 0.6222(3)
O6_7 O 0.3987(3) -0.0000 0.5987(3)
O7_7 O 0.2865(2) -0.0000 0.7211(2)
C1_4 C 0.2947(2) 0.0686(2) 0.6106(2)
C2_4 C 0.31039(17) 0.08402(17) 0.58587(12)
H1_4 H 0.3310 0.0768 0.5790
C3_4 C 0.2960(2) 0.1102(2) 0.57100(19)
C4_4 C 0.2662(2) 0.1209(2) 0.58310(18)
H2_4 H 0.2565 0.1397 0.5745
C5_4 C 0.2509(3) 0.1039(3) 0.6077(3)
C6_4 C 0.2640(2) 0.0760(3) 0.6215(2)
H3_4 H 0.2529 0.0633 0.6369
C7_4 C 0.3146(2) 0.1276(2) 0.5449(2)
C8_4 C 0.3089(2) 0.0401(2) 0.6278(3)
C9_4 C 0.2045(4) 0.1362(4) 0.6084(4)
H4_4 H 0.1971 0.1301 0.5865
H5_4 H 0.2179 0.1559 0.6068
C10_4 C 0.1755(3) 0.1418(3) 0.6311(3)
C11_4 C 0.1574(4) 0.1684(4) 0.6221(3)
H6_4 H 0.1626 0.1811 0.6037
Cu7_7 Cu 0.17961(7) -0.0000 0.81912(6)
Cu16_7 Cu 0.13500(6) -0.0000 0.86448(5)
O8_4 O 0.1161(2) 0.3386(2) 0.53320(19)
O9_4 O 0.03320(19) 0.1161(2) 0.8386(2)
O15_4 O 0.15381(18) 0.2993(2) 0.53020(18)
O16_4 O 0.03020(18) 0.15381(18) 0.7993(2)
O22_4 O 0.03310(18) 0.33748(19) 0.6161(2)
O23_4 O 0.1161(2) 0.03310(18) 0.83748(19)
O27_4 O 0.3839(2) 0.03310(18) 0.66252(19)
O29_4 O 0.16252(19) 0.3839(2) 0.53310(18)
O30_4 O 0.16252(19) 0.3839(2) 0.46690(18)
O31_4 O 0.03310(18) 0.16252(19) 0.8839(2)
O33_4 O 0.03310(19) 0.2994(2) 0.6541(3)
O34_4 O 0.1541(3) 0.03310(19) 0.7994(2)
O38_4 O 0.3459(3) 0.03310(19) 0.7006(2)
O40_4 O 0.2006(2) 0.3459(3) 0.53310(19)
O41_4 O 0.2006(2) 0.3459(3) 0.46690(19)
O42_4 O 0.03310(19) 0.2006(2) 0.8459(3)
O44_4 O 0.1222(3) 0.2210(3) 0.6121(3)
O45_4 O 0.1121(3) 0.1222(3) 0.7210(3)
O49_4 O 0.0987(3) 0.3987(3) 0.5000
O50_7 O -0.0000 0.0987(3) 0.8987(3)
O51_4 O 0.2211(2) 0.2865(2) 0.5000
O52_7 O -0.0000 0.2211(2) 0.7865(2)
C12_4 C 0.1106(2) 0.2947(2) 0.5686(2)
C13_4 C 0.0686(2) 0.1106(2) 0.7947(2)
C17_4 C 0.08587(12) 0.31039(17) 0.58402(17)
C18_4 C 0.08402(17) 0.08587(12) 0.81039(17)
H7_4 H 0.0790 0.3310 0.5768
H8_4 H 0.0768 0.0790 0.8310
C22_4 C 0.07100(19) 0.2960(2) 0.6102(2)
C23_4 C 0.1102(2) 0.07100(19) 0.7960(2)
C27_4 C 0.08310(18) 0.2662(2) 0.6209(2)
C28_4 C 0.1209(2) 0.08310(18) 0.7662(2)
H12_4 H 0.0745 0.2565 0.6397
H13_4 H 0.1397 0.0745 0.7565
C32_4 C 0.1077(3) 0.2509(3) 0.6039(3)
C33_4 C 0.1039(3) 0.1077(3) 0.7509(3)
C37_4 C 0.1215(2) 0.2640(2) 0.5760(3)
C38_4 C 0.0760(3) 0.1215(2) 0.7640(2)
H17_4 H 0.1369 0.2529 0.5633
H18_4 H 0.0633 0.1369 0.7529
C42_4 C 0.0449(2) 0.3146(2) 0.6276(2)
C43_4 C 0.1276(2) 0.0449(2) 0.8146(2)
C47_4 C 0.1278(3) 0.3089(2) 0.5401(2)
C48_4 C 0.0401(2) 0.1278(3) 0.8089(2)
C52_4 C 0.1084(4) 0.2045(4) 0.6362(4)
C53_4 C 0.1362(4) 0.1084(4) 0.7045(4)
H22_4 H 0.0865 0.1971 0.6301
H23_4 H 0.1301 0.0865 0.6971
H27_4 H 0.1068 0.2179 0.6559
H28_4 H 0.1559 0.1068 0.7179
C57_4 C 0.1311(3) 0.1755(3) 0.6418(3)
C58_4 C 0.1418(3) 0.1311(3) 0.6755(3)
C62_4 C 0.1221(3) 0.1574(4) 0.6684(4)
C63_4 C 0.1684(4) 0.1221(3) 0.6574(4)
H32_4 H 0.1811 0.1037 0.6626
H33_4 H 0.1037 0.1626 0.6811
H37_4 H 0.408547 0.0217459 0.596895
H43_4 H 0.0217459 0.0968947 0.908547
Cu1_8 Cu 0.32039(7) 1.0000 0.68088(6)
Cu2_8 Cu 0.36500(6) 1.0000 0.63552(5)
O6_8 O 0.3987(3) 1.0000 0.5987(3)
O7_8 O 0.2865(2) 1.0000 0.7211(2)
Cu7_8 Cu 0.17961(7) 1.0000 0.81912(6)
Cu16_8 Cu 0.13500(6) 1.0000 0.86448(5)
O10_4 O 0.3386(2) 0.96680(19) 0.6161(2)
O17_4 O 0.2993(2) 0.96980(18) 0.65381(18)
O24_4 O 0.33748(19) 0.8839(2) 0.53310(18)
O25_4 O 0.03310(18) 0.66252(19) 0.6161(2)
O26_4 O 0.1161(2) 0.96690(18) 0.83748(19)
O28_4 O 0.3839(2) 0.96690(18) 0.66252(19)
O35_4 O 0.2994(2) 0.8459(3) 0.53310(19)
O36_4 O 0.03310(19) 0.7006(2) 0.6541(3)
O37_4 O 0.1541(3) 0.96690(19) 0.7994(2)
O39_4 O 0.3459(3) 0.96690(19) 0.7006(2)
O46_4 O 0.2210(3) 0.8879(3) 0.6222(3)
O47_4 O 0.1222(3) 0.7790(3) 0.6121(3)
O48_4 O 0.1121(3) 0.8778(3) 0.7210(3)
C14_4 C 0.2947(2) 0.9314(2) 0.6106(2)
C15_4 C 0.1106(2) 0.7053(2) 0.5686(2)
C16_4 C 0.0686(2) 0.8894(2) 0.7947(2)
C19_4 C 0.31039(17) 0.91598(17) 0.58587(12)
C20_4 C 0.08587(12) 0.68961(17) 0.58402(17)
C21_4 C 0.08402(17) 0.91413(12) 0.81039(17)
H9_4 H 0.3310 0.9232 0.5790
H10_4 H 0.0790 0.6690 0.5768
H11_4 H 0.0768 0.9210 0.8310
C24_4 C 0.2960(2) 0.8898(2) 0.57100(19)
C25_4 C 0.07100(19) 0.7040(2) 0.6102(2)
C26_4 C 0.1102(2) 0.92900(19) 0.7960(2)
C29_4 C 0.2662(2) 0.8791(2) 0.58310(18)
C30_4 C 0.08310(18) 0.7338(2) 0.6209(2)
C31_4 C 0.1209(2) 0.91690(18) 0.7662(2)
H14_4 H 0.2565 0.8603 0.5745
H15_4 H 0.0745 0.7435 0.6397
H16_4 H 0.1397 0.9255 0.7565
C34_4 C 0.2509(3) 0.8961(3) 0.6077(3)
C35_4 C 0.1077(3) 0.7491(3) 0.6039(3)
C36_4 C 0.1039(3) 0.8923(3) 0.7509(3)
C39_4 C 0.2640(2) 0.9240(3) 0.6215(2)
C40_4 C 0.1215(2) 0.7360(2) 0.5760(3)
C41_4 C 0.0760(3) 0.8785(2) 0.7640(2)
H19_4 H 0.2529 0.9367 0.6369
H20_4 H 0.1369 0.7471 0.5633
H21_4 H 0.0633 0.8631 0.7529
C44_4 C 0.3146(2) 0.8724(2) 0.5449(2)
C45_4 C 0.0449(2) 0.6854(2) 0.6276(2)
C46_4 C 0.1276(2) 0.9551(2) 0.8146(2)
C49_4 C 0.3089(2) 0.9599(2) 0.6278(3)
C50_4 C 0.1278(3) 0.6911(2) 0.5401(2)
C51_4 C 0.0401(2) 0.8722(3) 0.8089(2)
C54_4 C 0.2045(4) 0.8638(4) 0.6084(4)
C55_4 C 0.1084(4) 0.7955(4) 0.6362(4)
C56_4 C 0.1362(4) 0.8916(4) 0.7045(4)
H24_4 H 0.1971 0.8699 0.5865
H25_4 H 0.0865 0.8029 0.6301
H26_4 H 0.1301 0.9135 0.6971
H29_4 H 0.2179 0.8441 0.6068
H30_4 H 0.1068 0.7821 0.6559
H31_4 H 0.1559 0.8932 0.7179
C59_4 C 0.1755(3) 0.8582(3) 0.6311(3)
C60_4 C 0.1311(3) 0.8245(3) 0.6418(3)
C61_4 C 0.1418(3) 0.8689(3) 0.6755(3)
C64_4 C 0.1574(4) 0.8316(4) 0.6221(3)
C65_4 C 0.1221(3) 0.8426(4) 0.6684(4)
C66_4 C 0.1684(4) 0.8779(3) 0.6574(4)
H34_4 H 0.1626 0.8189 0.6037
H35_4 H 0.1811 0.8963 0.6626
H36_4 H 0.1037 0.8374 0.6811
H38_4 H 0.41575 0.983892 0.603488
H39_4 H 0.264945 0.993016 0.713373
H40_4 H 0.29419 0.984905 0.738015
O32_4 O 0.96690(18) 0.16252(19) 0.8839(2)
O43_4 O 0.96690(19) 0.2006(2) 0.8459(3)
O50_8 O 1.0000 0.0987(3) 0.8987(3)
O52_8 O 1.0000 0.2211(2) 0.7865(2)
H41_4 H 0.993016 0.213373 0.764945
H42_4 H 0.984905 0.238015 0.79419
H44_4 H 0.983892 0.103488 0.91575
Cu1_9 Cu 0.31912(6) 0.32039(7) 0.0000
Cu2_9 Cu 0.36448(5) 0.36500(6) 0.0000
O6_9 O 0.4013(3) 0.3987(3) 0.0000
O7_9 O 0.2789(2) 0.2865(2) 0.0000
Cu7_9 Cu 0.18088(6) 0.17961(7) 0.0000
Cu8_3 Cu 0.5000 0.31912(6) 0.17961(7)
Cu9_3 Cu 0.5000 0.18088(6) 0.32039(7)
Cu16_9 Cu 0.13552(5) 0.13500(6) 0.0000
Cu17_3 Cu 0.5000 0.36448(5) 0.13500(6)
Cu18_3 Cu 0.5000 0.13552(5) 0.36500(6)
O10_5 O 0.3839(2) 0.3386(2) 0.03320(19)
O11_3 O 0.46680(19) 0.1161(2) 0.3386(2)
O12_3 O 0.1614(2) 0.03320(19) 0.1161(2)
O17_5 O 0.34619(18) 0.2993(2) 0.03020(18)
O18_3 O 0.46980(18) 0.15381(18) 0.2993(2)
O19_3 O 0.2007(2) 0.03020(18) 0.15381(18)
O24_5 O 0.46690(18) 0.33748(19) 0.1161(2)
O26_5 O 0.16252(19) 0.1161(2) 0.03310(18)
O28_5 O 0.33748(19) 0.3839(2) 0.03310(18)
O35_5 O 0.46690(19) 0.2994(2) 0.1541(3)
O37_5 O 0.2006(2) 0.1541(3) 0.03310(19)
O39_5 O 0.2994(2) 0.3459(3) 0.03310(19)
O46_5 O 0.3778(3) 0.2210(3) 0.1121(3)
O47_5 O 0.3879(3) 0.1222(3) 0.2210(3)
O48_5 O 0.2790(3) 0.1121(3) 0.1222(3)
C14_5 C 0.3894(2) 0.2947(2) 0.0686(2)
C15_5 C 0.4314(2) 0.1106(2) 0.2947(2)
C16_5 C 0.2053(2) 0.0686(2) 0.1106(2)
C19_5 C 0.41413(12) 0.31039(17) 0.08402(17)
C20_5 C 0.41598(17) 0.08587(12) 0.31039(17)
C21_5 C 0.18961(17) 0.08402(17) 0.08587(12)
H9_5 H 0.4210 0.3310 0.0768
H10_5 H 0.4232 0.0790 0.3310
H11_5 H 0.1690 0.0768 0.0790
C24_5 C 0.42900(19) 0.2960(2) 0.1102(2)
C25_5 C 0.3898(2) 0.07100(19) 0.2960(2)
C26_5 C 0.2040(2) 0.1102(2) 0.07100(19)
C29_5 C 0.41690(18) 0.2662(2) 0.1209(2)
C30_5 C 0.3791(2) 0.08310(18) 0.2662(2)
C31_5 C 0.2338(2) 0.1209(2) 0.08310(18)
H14_5 H 0.4255 0.2565 0.1397
H15_5 H 0.3603 0.0745 0.2565
H16_5 H 0.2435 0.1397 0.0745
C34_5 C 0.3923(3) 0.2509(3) 0.1039(3)
C35_5 C 0.3961(3) 0.1077(3) 0.2509(3)
C36_5 C 0.2491(3) 0.1039(3) 0.1077(3)
C39_5 C 0.3785(2) 0.2640(2) 0.0760(3)
C40_5 C 0.4240(3) 0.1215(2) 0.2640(2)
C41_5 C 0.2360(2) 0.0760(3) 0.1215(2)
H19_5 H 0.3631 0.2529 0.0633
H20_5 H 0.4367 0.1369 0.2529
H21_5 H 0.2471 0.0633 0.1369
C44_5 C 0.4551(2) 0.3146(2) 0.1276(2)
C45_5 C 0.3724(2) 0.0449(2) 0.3146(2)
C46_5 C 0.1854(2) 0.1276(2) 0.0449(2)
C49_5 C 0.3722(3) 0.3089(2) 0.0401(2)
C50_5 C 0.4599(2) 0.1278(3) 0.3089(2)
C51_5 C 0.1911(2) 0.0401(2) 0.1278(3)
C54_5 C 0.3916(4) 0.2045(4) 0.1362(4)
C55_5 C 0.3638(4) 0.1084(4) 0.2045(4)
C56_5 C 0.2955(4) 0.1362(4) 0.1084(4)
H24_5 H 0.4135 0.1971 0.1301
H25_5 H 0.3699 0.0865 0.1971
H26_5 H 0.3029 0.1301 0.0865
H29_5 H 0.3932 0.2179 0.1559
H30_5 H 0.3441 0.1068 0.2179
H31_5 H 0.2821 0.1559 0.1068
C59_5 C 0.3689(3) 0.1755(3) 0.1418(3)
C60_5 C 0.3582(3) 0.1311(3) 0.1755(3)
C61_5 C 0.3245(3) 0.1418(3) 0.1311(3)
C64_5 C 0.3779(3) 0.1574(4) 0.1684(4)
C65_5 C 0.3316(4) 0.1221(3) 0.1574(4)
C66_5 C 0.3426(4) 0.1684(4) 0.1221(3)
H34_5 H 0.3963 0.1626 0.1811
H35_5 H 0.3374 0.1811 0.1037
H36_5 H 0.3189 0.1037 0.1626
H38_5 H 0.396512 0.41575 0.0161079
H39_5 H 0.286627 0.264945 0.0069843
H40_5 H 0.261985 0.29419 0.015095
Cu1_10 Cu 0.31912(6) 0.32039(7) 1.0000
Cu2_10 Cu 0.36448(5) 0.36500(6) 1.0000
O1_5 O 0.3839(2) 0.3386(2) 0.96680(19)
O2_5 O 0.34619(18) 0.2993(2) 0.96980(18)
O3_5 O 0.46690(18) 0.33748(19) 0.8839(2)
O4_5 O 0.46690(19) 0.2994(2) 0.8459(3)
O5_5 O 0.3778(3) 0.2210(3) 0.8879(3)
O6_10 O 0.4013(3) 0.3987(3) 1.0000
O7_10 O 0.2789(2) 0.2865(2) 1.0000
C1_5 C 0.3894(2) 0.2947(2) 0.9314(2)
C2_5 C 0.41413(12) 0.31039(17) 0.91598(17)
H1_5 H 0.4210 0.3310 0.9232
C3_5 C 0.42900(19) 0.2960(2) 0.8898(2)
C4_5 C 0.41690(18) 0.2662(2) 0.8791(2)
H2_5 H 0.4255 0.2565 0.8603
C5_5 C 0.3923(3) 0.2509(3) 0.8961(3)
C6_5 C 0.3785(2) 0.2640(2) 0.9240(3)
H3_5 H 0.3631 0.2529 0.9367
C7_5 C 0.4551(2) 0.3146(2) 0.8724(2)
C8_5 C 0.3722(3) 0.3089(2) 0.9599(2)
C9_5 C 0.3916(4) 0.2045(4) 0.8638(4)
H4_5 H 0.4135 0.1971 0.8699
H5_5 H 0.3932 0.2179 0.8441
C10_5 C 0.3689(3) 0.1755(3) 0.8582(3)
C11_5 C 0.3779(3) 0.1574(4) 0.8316(4)
H6_5 H 0.3963 0.1626 0.8189
Cu3_3 Cu 0.5000 0.18088(6) 0.67961(7)
Cu5_3 Cu 0.5000 0.31912(6) 0.82039(7)
Cu7_10 Cu 0.18088(6) 0.17961(7) 1.0000
Cu12_3 Cu 0.5000 0.13552(5) 0.63500(6)
Cu14_3 Cu 0.5000 0.36448(5) 0.86500(6)
Cu16_10 Cu 0.13552(5) 0.13500(6) 1.0000
O8_5 O 0.46680(19) 0.1161(2) 0.6614(2)
O9_5 O 0.1614(2) 0.03320(19) 0.8839(2)
O13_3 O 0.53320(19) 0.1161(2) 0.6614(2)
O15_5 O 0.46980(18) 0.15381(18) 0.7007(2)
O16_5 O 0.2007(2) 0.03020(18) 0.84619(18)
O20_3 O 0.53020(18) 0.15381(18) 0.7007(2)
O23_5 O 0.16252(19) 0.1161(2) 0.96690(18)
O27_5 O 0.33748(19) 0.3839(2) 0.96690(18)
O29_5 O 0.46690(18) 0.16252(19) 0.6161(2)
O30_5 O 0.53310(18) 0.16252(19) 0.6161(2)
O34_5 O 0.2006(2) 0.1541(3) 0.96690(19)
O38_5 O 0.2994(2) 0.3459(3) 0.96690(19)
O40_5 O 0.46690(19) 0.2006(2) 0.6541(3)
O41_5 O 0.53310(19) 0.2006(2) 0.6541(3)
O44_5 O 0.3879(3) 0.1222(3) 0.7790(3)
O45_5 O 0.2790(3) 0.1121(3) 0.8778(3)
O49_5 O 0.5000 0.0987(3) 0.6013(3)
O50_9 O 0.1013(3) -0.0000 0.9013(3)
O51_5 O 0.5000 0.2211(2) 0.7135(2)
O52_9 O 0.2135(2) -0.0000 0.7789(2)
C12_5 C 0.4314(2) 0.1106(2) 0.7053(2)
C13_5 C 0.2053(2) 0.0686(2) 0.8894(2)
C17_5 C 0.41598(17) 0.08587(12) 0.68961(17)
C18_5 C 0.18961(17) 0.08402(17) 0.91413(12)
H7_5 H 0.4232 0.0790 0.6690
H8_5 H 0.1690 0.0768 0.9210
C22_5 C 0.3898(2) 0.07100(19) 0.7040(2)
C23_5 C 0.2040(2) 0.1102(2) 0.92900(19)
C27_5 C 0.3791(2) 0.08310(18) 0.7338(2)
C28_5 C 0.2338(2) 0.1209(2) 0.91690(18)
H12_5 H 0.3603 0.0745 0.7435
H13_5 H 0.2435 0.1397 0.9255
C32_5 C 0.3961(3) 0.1077(3) 0.7491(3)
C33_5 C 0.2491(3) 0.1039(3) 0.8923(3)
C37_5 C 0.4240(3) 0.1215(2) 0.7360(2)
C38_5 C 0.2360(2) 0.0760(3) 0.8785(2)
H17_5 H 0.4367 0.1369 0.7471
H18_5 H 0.2471 0.0633 0.8631
C42_5 C 0.3724(2) 0.0449(2) 0.6854(2)
C43_5 C 0.1854(2) 0.1276(2) 0.9551(2)
C47_5 C 0.4599(2) 0.1278(3) 0.6911(2)
C48_5 C 0.1911(2) 0.0401(2) 0.8722(3)
C52_5 C 0.3638(4) 0.1084(4) 0.7955(4)
C53_5 C 0.2955(4) 0.1362(4) 0.8916(4)
H22_5 H 0.3699 0.0865 0.8029
H23_5 H 0.3029 0.1301 0.9135
H27_5 H 0.3441 0.1068 0.7821
H28_5 H 0.2821 0.1559 0.8932
C57_5 C 0.3582(3) 0.1311(3) 0.8245(3)
C58_5 C 0.3245(3) 0.1418(3) 0.8689(3)
C62_5 C 0.3316(4) 0.1221(3) 0.8426(4)
C63_5 C 0.3426(4) 0.1684(4) 0.8779(3)
H32_5 H 0.3374 0.1811 0.8963
H33_5 H 0.3189 0.1037 0.8374
H37_5 H 0.403105 0.408547 0.978254
H43_5 H 0.0914532 0.0217459 0.903105
O14_3 O 0.1614(2) 0.96680(19) 0.8839(2)
O21_3 O 0.2007(2) 0.96980(18) 0.84619(18)
O50_10 O 0.1013(3) 1.0000 0.9013(3)
O52_10 O 0.2135(2) 1.0000 0.7789(2)
H41_5 H 0.235055 0.993016 0.786627
H42_5 H 0.20581 0.984905 0.761985
H44_5 H 0.0842497 0.983892 0.896512
O50_11 O 0.1013(3) 0.0000 0.0987(3)
O52_11 O 0.2135(2) 0.0000 0.2211(2)
H41_6 H 0.235055 0.0069843 0.213373
H42_6 H 0.20581 0.015095 0.238015
H44_6 H 0.0842497 0.0161079 0.103488
Cu1_11 Cu 0.31912(6) 0.67961(7) 0.0000
Cu2_11 Cu 0.36448(5) 0.63500(6) 0.0000
O1_6 O 0.3839(2) 0.6614(2) 0.03320(19)
O2_6 O 0.34619(18) 0.7007(2) 0.03020(18)
O3_6 O 0.46690(18) 0.66252(19) 0.1161(2)
O4_6 O 0.46690(19) 0.7006(2) 0.1541(3)
O5_6 O 0.3778(3) 0.7790(3) 0.1121(3)
O6_11 O 0.4013(3) 0.6013(3) 0.0000
O7_11 O 0.2789(2) 0.7135(2) 0.0000
C1_6 C 0.3894(2) 0.7053(2) 0.0686(2)
C2_6 C 0.41413(12) 0.68961(17) 0.08402(17)
H1_6 H 0.4210 0.6690 0.0768
C3_6 C 0.42900(19) 0.7040(2) 0.1102(2)
C4_6 C 0.41690(18) 0.7338(2) 0.1209(2)
H2_6 H 0.4255 0.7435 0.1397
C5_6 C 0.3923(3) 0.7491(3) 0.1039(3)
C6_6 C 0.3785(2) 0.7360(2) 0.0760(3)
H3_6 H 0.3631 0.7471 0.0633
C7_6 C 0.4551(2) 0.6854(2) 0.1276(2)
C8_6 C 0.3722(3) 0.6911(2) 0.0401(2)
C9_6 C 0.3916(4) 0.7955(4) 0.1362(4)
H4_6 H 0.4135 0.8029 0.1301
H5_6 H 0.3932 0.7821 0.1559
C10_6 C 0.3689(3) 0.8245(3) 0.1418(3)
C11_6 C 0.3779(3) 0.8426(4) 0.1684(4)
H6_6 H 0.3963 0.8374 0.1811
Cu3_4 Cu 0.5000 0.81912(6) 0.32039(7)
Cu5_4 Cu 0.5000 0.68088(6) 0.17961(7)
Cu7_11 Cu 0.18088(6) 0.82039(7) 0.0000
Cu12_4 Cu 0.5000 0.86448(5) 0.36500(6)
Cu14_4 Cu 0.5000 0.63552(5) 0.13500(6)
Cu16_11 Cu 0.13552(5) 0.86500(6) 0.0000
O8_6 O 0.46680(19) 0.8839(2) 0.3386(2)
O9_6 O 0.1614(2) 0.96680(19) 0.1161(2)
O13_4 O 0.53320(19) 0.8839(2) 0.3386(2)
O15_6 O 0.46980(18) 0.84619(18) 0.2993(2)
O16_6 O 0.2007(2) 0.96980(18) 0.15381(18)
O20_4 O 0.53020(18) 0.84619(18) 0.2993(2)
O23_6 O 0.16252(19) 0.8839(2) 0.03310(18)
O27_6 O 0.33748(19) 0.6161(2) 0.03310(18)
O29_6 O 0.46690(18) 0.83748(19) 0.3839(2)
O30_6 O 0.53310(18) 0.83748(19) 0.3839(2)
O34_6 O 0.2006(2) 0.8459(3) 0.03310(19)
O38_6 O 0.2994(2) 0.6541(3) 0.03310(19)
O40_6 O 0.46690(19) 0.7994(2) 0.3459(3)
O41_6 O 0.53310(19) 0.7994(2) 0.3459(3)
O44_6 O 0.3879(3) 0.8778(3) 0.2210(3)
O45_6 O 0.2790(3) 0.8879(3) 0.1222(3)
O49_6 O 0.5000 0.9013(3) 0.3987(3)
O50_12 O 0.1013(3) 1.0000 0.0987(3)
O51_6 O 0.5000 0.7789(2) 0.2865(2)
O52_12 O 0.2135(2) 1.0000 0.2211(2)
C12_6 C 0.4314(2) 0.8894(2) 0.2947(2)
C13_6 C 0.2053(2) 0.9314(2) 0.1106(2)
C17_6 C 0.41598(17) 0.91413(12) 0.31039(17)
C18_6 C 0.18961(17) 0.91598(17) 0.08587(12)
H7_6 H 0.4232 0.9210 0.3310
H8_6 H 0.1690 0.9232 0.0790
C22_6 C 0.3898(2) 0.92900(19) 0.2960(2)
C23_6 C 0.2040(2) 0.8898(2) 0.07100(19)
C27_6 C 0.3791(2) 0.91690(18) 0.2662(2)
C28_6 C 0.2338(2) 0.8791(2) 0.08310(18)
H12_6 H 0.3603 0.9255 0.2565
H13_6 H 0.2435 0.8603 0.0745
C32_6 C 0.3961(3) 0.8923(3) 0.2509(3)
C33_6 C 0.2491(3) 0.8961(3) 0.1077(3)
C37_6 C 0.4240(3) 0.8785(2) 0.2640(2)
C38_6 C 0.2360(2) 0.9240(3) 0.1215(2)
H17_6 H 0.4367 0.8631 0.2529
H18_6 H 0.2471 0.9367 0.1369
C42_6 C 0.3724(2) 0.9551(2) 0.3146(2)
C43_6 C 0.1854(2) 0.8724(2) 0.0449(2)
C47_6 C 0.4599(2) 0.8722(3) 0.3089(2)
C48_6 C 0.1911(2) 0.9599(2) 0.1278(3)
C52_6 C 0.3638(4) 0.8916(4) 0.2045(4)
C53_6 C 0.2955(4) 0.8638(4) 0.1084(4)
H22_6 H 0.3699 0.9135 0.1971
H23_6 H 0.3029 0.8699 0.0865
H27_6 H 0.3441 0.8932 0.2179
H28_6 H 0.2821 0.8441 0.1068
C57_6 C 0.3582(3) 0.8689(3) 0.1755(3)
C58_6 C 0.3245(3) 0.8582(3) 0.1311(3)
C62_6 C 0.3316(4) 0.8779(3) 0.1574(4)
C63_6 C 0.3426(4) 0.8316(4) 0.1221(3)
H32_6 H 0.3374 0.8189 0.1037
H33_6 H 0.3189 0.8963 0.1626
H37_6 H 0.403105 0.591453 0.0217459
H43_6 H 0.0914532 0.978254 0.0968947
Cu1_12 Cu 0.31912(6) 0.67961(7) 1.0000
Cu2_12 Cu 0.36448(5) 0.63500(6) 1.0000
O6_12 O 0.4013(3) 0.6013(3) 1.0000
O7_12 O 0.2789(2) 0.7135(2) 1.0000
Cu7_12 Cu 0.18088(6) 0.82039(7) 1.0000
Cu8_4 Cu 0.5000 0.68088(6) 0.82039(7)
Cu9_4 Cu 0.5000 0.81912(6) 0.67961(7)
Cu16_12 Cu 0.13552(5) 0.86500(6) 1.0000
Cu17_4 Cu 0.5000 0.63552(5) 0.86500(6)
Cu18_4 Cu 0.5000 0.86448(5) 0.63500(6)
O10_6 O 0.3839(2) 0.6614(2) 0.96680(19)
O11_4 O 0.46680(19) 0.8839(2) 0.6614(2)
O17_6 O 0.34619(18) 0.7007(2) 0.96980(18)
O18_4 O 0.46980(18) 0.84619(18) 0.7007(2)
O24_6 O 0.46690(18) 0.66252(19) 0.8839(2)
O26_6 O 0.16252(19) 0.8839(2) 0.96690(18)
O28_6 O 0.33748(19) 0.6161(2) 0.96690(18)
O35_6 O 0.46690(19) 0.7006(2) 0.8459(3)
O37_6 O 0.2006(2) 0.8459(3) 0.96690(19)
O39_6 O 0.2994(2) 0.6541(3) 0.96690(19)
O46_6 O 0.3778(3) 0.7790(3) 0.8879(3)
O47_6 O 0.3879(3) 0.8778(3) 0.7790(3)
O48_6 O 0.2790(3) 0.8879(3) 0.8778(3)
C14_6 C 0.3894(2) 0.7053(2) 0.9314(2)
C15_6 C 0.4314(2) 0.8894(2) 0.7053(2)
C16_6 C 0.2053(2) 0.9314(2) 0.8894(2)
C19_6 C 0.41413(12) 0.68961(17) 0.91598(17)
C20_6 C 0.41598(17) 0.91413(12) 0.68961(17)
C21_6 C 0.18961(17) 0.91598(17) 0.91413(12)
H9_6 H 0.4210 0.6690 0.9232
H10_6 H 0.4232 0.9210 0.6690
H11_6 H 0.1690 0.9232 0.9210
C24_6 C 0.42900(19) 0.7040(2) 0.8898(2)
C25_6 C 0.3898(2) 0.92900(19) 0.7040(2)
C26_6 C 0.2040(2) 0.8898(2) 0.92900(19)
C29_6 C 0.41690(18) 0.7338(2) 0.8791(2)
C30_6 C 0.3791(2) 0.91690(18) 0.7338(2)
C31_6 C 0.2338(2) 0.8791(2) 0.91690(18)
H14_6 H 0.4255 0.7435 0.8603
H15_6 H 0.3603 0.9255 0.7435
H16_6 H 0.2435 0.8603 0.9255
C34_6 C 0.3923(3) 0.7491(3) 0.8961(3)
C35_6 C 0.3961(3) 0.8923(3) 0.7491(3)
C36_6 C 0.2491(3) 0.8961(3) 0.8923(3)
C39_6 C 0.3785(2) 0.7360(2) 0.9240(3)
C40_6 C 0.4240(3) 0.8785(2) 0.7360(2)
C41_6 C 0.2360(2) 0.9240(3) 0.8785(2)
H19_6 H 0.3631 0.7471 0.9367
H20_6 H 0.4367 0.8631 0.7471
H21_6 H 0.2471 0.9367 0.8631
C44_6 C 0.4551(2) 0.6854(2) 0.8724(2)
C45_6 C 0.3724(2) 0.9551(2) 0.6854(2)
C46_6 C 0.1854(2) 0.8724(2) 0.9551(2)
C49_6 C 0.3722(3) 0.6911(2) 0.9599(2)
C50_6 C 0.4599(2) 0.8722(3) 0.6911(2)
C51_6 C 0.1911(2) 0.9599(2) 0.8722(3)
C54_6 C 0.3916(4) 0.7955(4) 0.8638(4)
C55_6 C 0.3638(4) 0.8916(4) 0.7955(4)
C56_6 C 0.2955(4) 0.8638(4) 0.8916(4)
H24_6 H 0.4135 0.8029 0.8699
H25_6 H 0.3699 0.9135 0.8029
H26_6 H 0.3029 0.8699 0.9135
H29_6 H 0.3932 0.7821 0.8441
H30_6 H 0.3441 0.8932 0.7821
H31_6 H 0.2821 0.8441 0.8932
C59_6 C 0.3689(3) 0.8245(3) 0.8582(3)
C60_6 C 0.3582(3) 0.8689(3) 0.8245(3)
C61_6 C 0.3245(3) 0.8582(3) 0.8689(3)
C64_6 C 0.3779(3) 0.8426(4) 0.8316(4)
C65_6 C 0.3316(4) 0.8779(3) 0.8426(4)
C66_6 C 0.3426(4) 0.8316(4) 0.8779(3)
H34_6 H 0.3963 0.8374 0.8189
H35_6 H 0.3374 0.8189 0.8963
H36_6 H 0.3189 0.8963 0.8374
H38_6 H 0.396512 0.58425 0.983892
H39_6 H 0.286627 0.735055 0.993016
H40_6 H 0.261985 0.70581 0.984905
O14_4 O 0.8386(2) 0.03320(19) 0.8839(2)
O21_4 O 0.7993(2) 0.03020(18) 0.84619(18)
O50_13 O 0.8987(3) 0.0000 0.9013(3)
O52_13 O 0.7865(2) 0.0000 0.7789(2)
H41_7 H 0.764945 0.0069843 0.786627
H42_7 H 0.79419 0.015095 0.761985
H44_7 H 0.91575 0.0161079 0.896512
Cu1_13 Cu 0.68088(6) 0.67961(7) 0.0000
Cu2_13 Cu 0.63552(5) 0.63500(6) 0.0000
O6_13 O 0.5987(3) 0.6013(3) 0.0000
O7_13 O 0.7211(2) 0.7135(2) 0.0000
Cu7_13 Cu 0.81912(6) 0.82039(7) 0.0000
Cu16_13 Cu 0.86448(5) 0.86500(6) 0.0000
O10_7 O 0.6161(2) 0.6614(2) 0.03320(19)
O12_4 O 0.8386(2) 0.96680(19) 0.1161(2)
O17_7 O 0.65381(18) 0.7007(2) 0.03020(18)
O19_4 O 0.7993(2) 0.96980(18) 0.15381(18)
O24_7 O 0.53310(18) 0.66252(19) 0.1161(2)
O26_7 O 0.83748(19) 0.8839(2) 0.03310(18)
O28_7 O 0.66252(19) 0.6161(2) 0.03310(18)
O35_7 O 0.53310(19) 0.7006(2) 0.1541(3)
O37_7 O 0.7994(2) 0.8459(3) 0.03310(19)
O39_7 O 0.7006(2) 0.6541(3) 0.03310(19)
O46_7 O 0.6222(3) 0.7790(3) 0.1121(3)
O47_7 O 0.6121(3) 0.8778(3) 0.2210(3)
O48_7 O 0.7210(3) 0.8879(3) 0.1222(3)
C14_7 C 0.6106(2) 0.7053(2) 0.0686(2)
C15_7 C 0.5686(2) 0.8894(2) 0.2947(2)
C16_7 C 0.7947(2) 0.9314(2) 0.1106(2)
C19_7 C 0.58587(12) 0.68961(17) 0.08402(17)
C20_7 C 0.58402(17) 0.91413(12) 0.31039(17)
C21_7 C 0.81039(17) 0.91598(17) 0.08587(12)
H9_7 H 0.5790 0.6690 0.0768
H10_7 H 0.5768 0.9210 0.3310
H11_7 H 0.8310 0.9232 0.0790
C24_7 C 0.57100(19) 0.7040(2) 0.1102(2)
C25_7 C 0.6102(2) 0.92900(19) 0.2960(2)
C26_7 C 0.7960(2) 0.8898(2) 0.07100(19)
C29_7 C 0.58310(18) 0.7338(2) 0.1209(2)
C30_7 C 0.6209(2) 0.91690(18) 0.2662(2)
C31_7 C 0.7662(2) 0.8791(2) 0.08310(18)
H14_7 H 0.5745 0.7435 0.1397
H15_7 H 0.6397 0.9255 0.2565
H16_7 H 0.7565 0.8603 0.0745
C34_7 C 0.6077(3) 0.7491(3) 0.1039(3)
C35_7 C 0.6039(3) 0.8923(3) 0.2509(3)
C36_7 C 0.7509(3) 0.8961(3) 0.1077(3)
C39_7 C 0.6215(2) 0.7360(2) 0.0760(3)
C40_7 C 0.5760(3) 0.8785(2) 0.2640(2)
C41_7 C 0.7640(2) 0.9240(3) 0.1215(2)
H19_7 H 0.6369 0.7471 0.0633
H20_7 H 0.5633 0.8631 0.2529
H21_7 H 0.7529 0.9367 0.1369
C44_7 C 0.5449(2) 0.6854(2) 0.1276(2)
C45_7 C 0.6276(2) 0.9551(2) 0.3146(2)
C46_7 C 0.8146(2) 0.8724(2) 0.0449(2)
C49_7 C 0.6278(3) 0.6911(2) 0.0401(2)
C50_7 C 0.5401(2) 0.8722(3) 0.3089(2)
C51_7 C 0.8089(2) 0.9599(2) 0.1278(3)
C54_7 C 0.6084(4) 0.7955(4) 0.1362(4)
C55_7 C 0.6362(4) 0.8916(4) 0.2045(4)
C56_7 C 0.7045(4) 0.8638(4) 0.1084(4)
H24_7 H 0.5865 0.8029 0.1301
H25_7 H 0.6301 0.9135 0.1971
H26_7 H 0.6971 0.8699 0.0865
H29_7 H 0.6068 0.7821 0.1559
H30_7 H 0.6559 0.8932 0.2179
H31_7 H 0.7179 0.8441 0.1068
C59_7 C 0.6311(3) 0.8245(3) 0.1418(3)
C60_7 C 0.6418(3) 0.8689(3) 0.1755(3)
C61_7 C 0.6755(3) 0.8582(3) 0.1311(3)
C64_7 C 0.6221(3) 0.8426(4) 0.1684(4)
C65_7 C 0.6684(4) 0.8779(3) 0.1574(4)
C66_7 C 0.6574(4) 0.8316(4) 0.1221(3)
H34_7 H 0.6037 0.8374 0.1811
H35_7 H 0.6626 0.8189 0.1037
H36_7 H 0.6811 0.8963 0.1626
H38_7 H 0.603488 0.58425 0.0161079
H39_7 H 0.713373 0.735055 0.0069843
H40_7 H 0.738015 0.70581 0.015095
Cu1_14 Cu 0.68088(6) 0.67961(7) 1.0000
Cu2_14 Cu 0.63552(5) 0.63500(6) 1.0000
O1_7 O 0.6161(2) 0.6614(2) 0.96680(19)
O2_7 O 0.65381(18) 0.7007(2) 0.96980(18)
O3_7 O 0.53310(18) 0.66252(19) 0.8839(2)
O4_7 O 0.53310(19) 0.7006(2) 0.8459(3)
O5_7 O 0.6222(3) 0.7790(3) 0.8879(3)
O6_14 O 0.5987(3) 0.6013(3) 1.0000
O7_14 O 0.7211(2) 0.7135(2) 1.0000
C1_7 C 0.6106(2) 0.7053(2) 0.9314(2)
C2_7 C 0.58587(12) 0.68961(17) 0.91598(17)
H1_7 H 0.5790 0.6690 0.9232
C3_7 C 0.57100(19) 0.7040(2) 0.8898(2)
C4_7 C 0.58310(18) 0.7338(2) 0.8791(2)
H2_7 H 0.5745 0.7435 0.8603
C5_7 C 0.6077(3) 0.7491(3) 0.8961(3)
C6_7 C 0.6215(2) 0.7360(2) 0.9240(3)
H3_7 H 0.6369 0.7471 0.9367
C7_7 C 0.5449(2) 0.6854(2) 0.8724(2)
C8_7 C 0.6278(3) 0.6911(2) 0.9599(2)
C9_7 C 0.6084(4) 0.7955(4) 0.8638(4)
H4_7 H 0.5865 0.8029 0.8699
H5_7 H 0.6068 0.7821 0.8441
C10_7 C 0.6311(3) 0.8245(3) 0.8582(3)
C11_7 C 0.6221(3) 0.8426(4) 0.8316(4)
H6_7 H 0.6037 0.8374 0.8189
Cu7_14 Cu 0.81912(6) 0.82039(7) 1.0000
Cu16_14 Cu 0.86448(5) 0.86500(6) 1.0000
O8_7 O 0.53320(19) 0.8839(2) 0.6614(2)
O9_7 O 0.8386(2) 0.96680(19) 0.8839(2)
O15_7 O 0.53020(18) 0.84619(18) 0.7007(2)
O16_7 O 0.7993(2) 0.96980(18) 0.84619(18)
O23_7 O 0.83748(19) 0.8839(2) 0.96690(18)
O27_7 O 0.66252(19) 0.6161(2) 0.96690(18)
O29_7 O 0.53310(18) 0.83748(19) 0.6161(2)
O30_7 O 0.46690(18) 0.83748(19) 0.6161(2)
O34_7 O 0.7994(2) 0.8459(3) 0.96690(19)
O38_7 O 0.7006(2) 0.6541(3) 0.96690(19)
O40_7 O 0.53310(19) 0.7994(2) 0.6541(3)
O41_7 O 0.46690(19) 0.7994(2) 0.6541(3)
O44_7 O 0.6121(3) 0.8778(3) 0.7790(3)
O45_7 O 0.7210(3) 0.8879(3) 0.8778(3)
O49_7 O 0.5000 0.9013(3) 0.6013(3)
O50_14 O 0.8987(3) 1.0000 0.9013(3)
O51_7 O 0.5000 0.7789(2) 0.7135(2)
O52_14 O 0.7865(2) 1.0000 0.7789(2)
C12_7 C 0.5686(2) 0.8894(2) 0.7053(2)
C13_7 C 0.7947(2) 0.9314(2) 0.8894(2)
C17_7 C 0.58402(17) 0.91413(12) 0.68961(17)
C18_7 C 0.81039(17) 0.91598(17) 0.91413(12)
H7_7 H 0.5768 0.9210 0.6690
H8_7 H 0.8310 0.9232 0.9210
C22_7 C 0.6102(2) 0.92900(19) 0.7040(2)
C23_7 C 0.7960(2) 0.8898(2) 0.92900(19)
C27_7 C 0.6209(2) 0.91690(18) 0.7338(2)
C28_7 C 0.7662(2) 0.8791(2) 0.91690(18)
H12_7 H 0.6397 0.9255 0.7435
H13_7 H 0.7565 0.8603 0.9255
C32_7 C 0.6039(3) 0.8923(3) 0.7491(3)
C33_7 C 0.7509(3) 0.8961(3) 0.8923(3)
C37_7 C 0.5760(3) 0.8785(2) 0.7360(2)
C38_7 C 0.7640(2) 0.9240(3) 0.8785(2)
H17_7 H 0.5633 0.8631 0.7471
H18_7 H 0.7529 0.9367 0.8631
C42_7 C 0.6276(2) 0.9551(2) 0.6854(2)
C43_7 C 0.8146(2) 0.8724(2) 0.9551(2)
C47_7 C 0.5401(2) 0.8722(3) 0.6911(2)
C48_7 C 0.8089(2) 0.9599(2) 0.8722(3)
C52_7 C 0.6362(4) 0.8916(4) 0.7955(4)
C53_7 C 0.7045(4) 0.8638(4) 0.8916(4)
H22_7 H 0.6301 0.9135 0.8029
H23_7 H 0.6971 0.8699 0.9135
H27_7 H 0.6559 0.8932 0.7821
H28_7 H 0.7179 0.8441 0.8932
C57_7 C 0.6418(3) 0.8689(3) 0.8245(3)
C58_7 C 0.6755(3) 0.8582(3) 0.8689(3)
C62_7 C 0.6684(4) 0.8779(3) 0.8426(4)
C63_7 C 0.6574(4) 0.8316(4) 0.8779(3)
H32_7 H 0.6626 0.8189 0.8963
H33_7 H 0.6811 0.8963 0.8374
H37_7 H 0.596895 0.591453 0.978254
H43_7 H 0.908547 0.978254 0.903105
Cu1_15 Cu 0.68088(6) 0.32039(7) 0.0000
Cu2_15 Cu 0.63552(5) 0.36500(6) 0.0000
O1_8 O 0.6161(2) 0.3386(2) 0.03320(19)
O2_8 O 0.65381(18) 0.2993(2) 0.03020(18)
O3_8 O 0.53310(18) 0.33748(19) 0.1161(2)
O4_8 O 0.53310(19) 0.2994(2) 0.1541(3)
O5_8 O 0.6222(3) 0.2210(3) 0.1121(3)
O6_15 O 0.5987(3) 0.3987(3) 0.0000
O7_15 O 0.7211(2) 0.2865(2) 0.0000
C1_8 C 0.6106(2) 0.2947(2) 0.0686(2)
C2_8 C 0.58587(12) 0.31039(17) 0.08402(17)
H1_8 H 0.5790 0.3310 0.0768
C3_8 C 0.57100(19) 0.2960(2) 0.1102(2)
C4_8 C 0.58310(18) 0.2662(2) 0.1209(2)
H2_8 H 0.5745 0.2565 0.1397
C5_8 C 0.6077(3) 0.2509(3) 0.1039(3)
C6_8 C 0.6215(2) 0.2640(2) 0.0760(3)
H3_8 H 0.6369 0.2529 0.0633
C7_8 C 0.5449(2) 0.3146(2) 0.1276(2)
C8_8 C 0.6278(3) 0.3089(2) 0.0401(2)
C9_8 C 0.6084(4) 0.2045(4) 0.1362(4)
H4_8 H 0.5865 0.1971 0.1301
H5_8 H 0.6068 0.2179 0.1559
C10_8 C 0.6311(3) 0.1755(3) 0.1418(3)
C11_8 C 0.6221(3) 0.1574(4) 0.1684(4)
H6_8 H 0.6037 0.1626 0.1811
Cu7_15 Cu 0.81912(6) 0.17961(7) 0.0000
Cu16_15 Cu 0.86448(5) 0.13500(6) 0.0000
O8_8 O 0.53320(19) 0.1161(2) 0.3386(2)
O9_8 O 0.8386(2) 0.03320(19) 0.1161(2)
O15_8 O 0.53020(18) 0.15381(18) 0.2993(2)
O16_8 O 0.7993(2) 0.03020(18) 0.15381(18)
O23_8 O 0.83748(19) 0.1161(2) 0.03310(18)
O27_8 O 0.66252(19) 0.3839(2) 0.03310(18)
O29_8 O 0.53310(18) 0.16252(19) 0.3839(2)
O30_8 O 0.46690(18) 0.16252(19) 0.3839(2)
O34_8 O 0.7994(2) 0.1541(3) 0.03310(19)
O38_8 O 0.7006(2) 0.3459(3) 0.03310(19)
O40_8 O 0.53310(19) 0.2006(2) 0.3459(3)
O41_8 O 0.46690(19) 0.2006(2) 0.3459(3)
O44_8 O 0.6121(3) 0.1222(3) 0.2210(3)
O45_8 O 0.7210(3) 0.1121(3) 0.1222(3)
O49_8 O 0.5000 0.0987(3) 0.3987(3)
O50_15 O 0.8987(3) -0.0000 0.0987(3)
O51_8 O 0.5000 0.2211(2) 0.2865(2)
O52_15 O 0.7865(2) -0.0000 0.2211(2)
C12_8 C 0.5686(2) 0.1106(2) 0.2947(2)
C13_8 C 0.7947(2) 0.0686(2) 0.1106(2)
C17_8 C 0.58402(17) 0.08587(12) 0.31039(17)
C18_8 C 0.81039(17) 0.08402(17) 0.08587(12)
H7_8 H 0.5768 0.0790 0.3310
H8_8 H 0.8310 0.0768 0.0790
C22_8 C 0.6102(2) 0.07100(19) 0.2960(2)
C23_8 C 0.7960(2) 0.1102(2) 0.07100(19)
C27_8 C 0.6209(2) 0.08310(18) 0.2662(2)
C28_8 C 0.7662(2) 0.1209(2) 0.08310(18)
H12_8 H 0.6397 0.0745 0.2565
H13_8 H 0.7565 0.1397 0.0745
C32_8 C 0.6039(3) 0.1077(3) 0.2509(3)
C33_8 C 0.7509(3) 0.1039(3) 0.1077(3)
C37_8 C 0.5760(3) 0.1215(2) 0.2640(2)
C38_8 C 0.7640(2) 0.0760(3) 0.1215(2)
H17_8 H 0.5633 0.1369 0.2529
H18_8 H 0.7529 0.0633 0.1369
C42_8 C 0.6276(2) 0.0449(2) 0.3146(2)
C43_8 C 0.8146(2) 0.1276(2) 0.0449(2)
C47_8 C 0.5401(2) 0.1278(3) 0.3089(2)
C48_8 C 0.8089(2) 0.0401(2) 0.1278(3)
C52_8 C 0.6362(4) 0.1084(4) 0.2045(4)
C53_8 C 0.7045(4) 0.1362(4) 0.1084(4)
H22_8 H 0.6301 0.0865 0.1971
H23_8 H 0.6971 0.1301 0.0865
H27_8 H 0.6559 0.1068 0.2179
H28_8 H 0.7179 0.1559 0.1068
C57_8 C 0.6418(3) 0.1311(3) 0.1755(3)
C58_8 C 0.6755(3) 0.1418(3) 0.1311(3)
C62_8 C 0.6684(4) 0.1221(3) 0.1574(4)
C63_8 C 0.6574(4) 0.1684(4) 0.1221(3)
H32_8 H 0.6626 0.1811 0.1037
H33_8 H 0.6811 0.1037 0.1626
H37_8 H 0.596895 0.408547 0.0217459
H43_8 H 0.908547 0.0217459 0.0968947
Cu1_16 Cu 0.68088(6) 0.32039(7) 1.0000
Cu2_16 Cu 0.63552(5) 0.36500(6) 1.0000
O6_16 O 0.5987(3) 0.3987(3) 1.0000
O7_16 O 0.7211(2) 0.2865(2) 1.0000
Cu7_16 Cu 0.81912(6) 0.17961(7) 1.0000
Cu16_16 Cu 0.86448(5) 0.13500(6) 1.0000
O10_8 O 0.6161(2) 0.3386(2) 0.96680(19)
O17_8 O 0.65381(18) 0.2993(2) 0.96980(18)
O24_8 O 0.53310(18) 0.33748(19) 0.8839(2)
O26_8 O 0.83748(19) 0.1161(2) 0.96690(18)
O28_8 O 0.66252(19) 0.3839(2) 0.96690(18)
O35_8 O 0.53310(19) 0.2994(2) 0.8459(3)
O37_8 O 0.7994(2) 0.1541(3) 0.96690(19)
O39_8 O 0.7006(2) 0.3459(3) 0.96690(19)
O46_8 O 0.6222(3) 0.2210(3) 0.8879(3)
O47_8 O 0.6121(3) 0.1222(3) 0.7790(3)
O48_8 O 0.7210(3) 0.1121(3) 0.8778(3)
C14_8 C 0.6106(2) 0.2947(2) 0.9314(2)
C15_8 C 0.5686(2) 0.1106(2) 0.7053(2)
C16_8 C 0.7947(2) 0.0686(2) 0.8894(2)
C19_8 C 0.58587(12) 0.31039(17) 0.91598(17)
C20_8 C 0.58402(17) 0.08587(12) 0.68961(17)
C21_8 C 0.81039(17) 0.08402(17) 0.91413(12)
H9_8 H 0.5790 0.3310 0.9232
H10_8 H 0.5768 0.0790 0.6690
H11_8 H 0.8310 0.0768 0.9210
C24_8 C 0.57100(19) 0.2960(2) 0.8898(2)
C25_8 C 0.6102(2) 0.07100(19) 0.7040(2)
C26_8 C 0.7960(2) 0.1102(2) 0.92900(19)
C29_8 C 0.58310(18) 0.2662(2) 0.8791(2)
C30_8 C 0.6209(2) 0.08310(18) 0.7338(2)
C31_8 C 0.7662(2) 0.1209(2) 0.91690(18)
H14_8 H 0.5745 0.2565 0.8603
H15_8 H 0.6397 0.0745 0.7435
H16_8 H 0.7565 0.1397 0.9255
C34_8 C 0.6077(3) 0.2509(3) 0.8961(3)
C35_8 C 0.6039(3) 0.1077(3) 0.7491(3)
C36_8 C 0.7509(3) 0.1039(3) 0.8923(3)
C39_8 C 0.6215(2) 0.2640(2) 0.9240(3)
C40_8 C 0.5760(3) 0.1215(2) 0.7360(2)
C41_8 C 0.7640(2) 0.0760(3) 0.8785(2)
H19_8 H 0.6369 0.2529 0.9367
H20_8 H 0.5633 0.1369 0.7471
H21_8 H 0.7529 0.0633 0.8631
C44_8 C 0.5449(2) 0.3146(2) 0.8724(2)
C45_8 C 0.6276(2) 0.0449(2) 0.6854(2)
C46_8 C 0.8146(2) 0.1276(2) 0.9551(2)
C49_8 C 0.6278(3) 0.3089(2) 0.9599(2)
C50_8 C 0.5401(2) 0.1278(3) 0.6911(2)
C51_8 C 0.8089(2) 0.0401(2) 0.8722(3)
C54_8 C 0.6084(4) 0.2045(4) 0.8638(4)
C55_8 C 0.6362(4) 0.1084(4) 0.7955(4)
C56_8 C 0.7045(4) 0.1362(4) 0.8916(4)
H24_8 H 0.5865 0.1971 0.8699
H25_8 H 0.6301 0.0865 0.8029
H26_8 H 0.6971 0.1301 0.9135
H29_8 H 0.6068 0.2179 0.8441
H30_8 H 0.6559 0.1068 0.7821
H31_8 H 0.7179 0.1559 0.8932
C59_8 C 0.6311(3) 0.1755(3) 0.8582(3)
C60_8 C 0.6418(3) 0.1311(3) 0.8245(3)
C61_8 C 0.6755(3) 0.1418(3) 0.8689(3)
C64_8 C 0.6221(3) 0.1574(4) 0.8316(4)
C65_8 C 0.6684(4) 0.1221(3) 0.8426(4)
C66_8 C 0.6574(4) 0.1684(4) 0.8779(3)
H34_8 H 0.6037 0.1626 0.8189
H35_8 H 0.6626 0.1811 0.8963
H36_8 H 0.6811 0.1037 0.8374
H38_8 H 0.603488 0.41575 0.983892
H39_8 H 0.713373 0.264945 0.993016
H40_8 H 0.738015 0.29419 0.984905
O50_16 O 0.8987(3) 1.0000 0.0987(3)
O52_16 O 0.7865(2) 1.0000 0.2211(2)
H41_8 H 0.764945 0.993016 0.213373
H42_8 H 0.79419 0.984905 0.238015
H44_8 H 0.91575 0.983892 0.103488
O6_17 O -0.0000 0.4013(3) 0.3987(3)
O7_17 O -0.0000 0.2789(2) 0.2865(2)
Cu8_5 Cu 0.17961(7) 0.5000 0.31912(6)
Cu9_5 Cu 0.32039(7) 0.5000 0.18088(6)
Cu17_5 Cu 0.13500(6) 0.5000 0.36448(5)
Cu18_5 Cu 0.36500(6) 0.5000 0.13552(5)
O10_9 O 0.03320(19) 0.3839(2) 0.3386(2)
O11_5 O 0.3386(2) 0.46680(19) 0.1161(2)
O12_5 O 0.1161(2) 0.1614(2) 0.03320(19)
O17_9 O 0.03020(18) 0.34619(18) 0.2993(2)
O18_5 O 0.2993(2) 0.46980(18) 0.15381(18)
O19_5 O 0.15381(18) 0.2007(2) 0.03020(18)
O24_9 O 0.1161(2) 0.46690(18) 0.33748(19)
O35_9 O 0.1541(3) 0.46690(19) 0.2994(2)
O46_9 O 0.1121(3) 0.3778(3) 0.2210(3)
O47_9 O 0.2210(3) 0.3879(3) 0.1222(3)
O48_9 O 0.1222(3) 0.2790(3) 0.1121(3)
C14_9 C 0.0686(2) 0.3894(2) 0.2947(2)
C15_9 C 0.2947(2) 0.4314(2) 0.1106(2)
C16_9 C 0.1106(2) 0.2053(2) 0.0686(2)
C19_9 C 0.08402(17) 0.41413(12) 0.31039(17)
C20_9 C 0.31039(17) 0.41598(17) 0.08587(12)
C21_9 C 0.08587(12) 0.18961(17) 0.08402(17)
H9_9 H 0.0768 0.4210 0.3310
H10_9 H 0.3310 0.4232 0.0790
H11_9 H 0.0790 0.1690 0.0768
C24_9 C 0.1102(2) 0.42900(19) 0.2960(2)
C25_9 C 0.2960(2) 0.3898(2) 0.07100(19)
C26_9 C 0.07100(19) 0.2040(2) 0.1102(2)
C29_9 C 0.1209(2) 0.41690(18) 0.2662(2)
C30_9 C 0.2662(2) 0.3791(2) 0.08310(18)
C31_9 C 0.08310(18) 0.2338(2) 0.1209(2)
H14_9 H 0.1397 0.4255 0.2565
H15_9 H 0.2565 0.3603 0.0745
H16_9 H 0.0745 0.2435 0.1397
C34_9 C 0.1039(3) 0.3923(3) 0.2509(3)
C35_9 C 0.2509(3) 0.3961(3) 0.1077(3)
C36_9 C 0.1077(3) 0.2491(3) 0.1039(3)
C39_9 C 0.0760(3) 0.3785(2) 0.2640(2)
C40_9 C 0.2640(2) 0.4240(3) 0.1215(2)
C41_9 C 0.1215(2) 0.2360(2) 0.0760(3)
H19_9 H 0.0633 0.3631 0.2529
H20_9 H 0.2529 0.4367 0.1369
H21_9 H 0.1369 0.2471 0.0633
C44_9 C 0.1276(2) 0.4551(2) 0.3146(2)
C45_9 C 0.3146(2) 0.3724(2) 0.0449(2)
C46_9 C 0.0449(2) 0.1854(2) 0.1276(2)
C49_9 C 0.0401(2) 0.3722(3) 0.3089(2)
C50_9 C 0.3089(2) 0.4599(2) 0.1278(3)
C51_9 C 0.1278(3) 0.1911(2) 0.0401(2)
C54_9 C 0.1362(4) 0.3916(4) 0.2045(4)
C55_9 C 0.2045(4) 0.3638(4) 0.1084(4)
C56_9 C 0.1084(4) 0.2955(4) 0.1362(4)
H24_9 H 0.1301 0.4135 0.1971
H25_9 H 0.1971 0.3699 0.0865
H26_9 H 0.0865 0.3029 0.1301
H29_9 H 0.1559 0.3932 0.2179
H30_9 H 0.2179 0.3441 0.1068
H31_9 H 0.1068 0.2821 0.1559
C59_9 C 0.1418(3) 0.3689(3) 0.1755(3)
C60_9 C 0.1755(3) 0.3582(3) 0.1311(3)
C61_9 C 0.1311(3) 0.3245(3) 0.1418(3)
C64_9 C 0.1684(4) 0.3779(3) 0.1574(4)
C65_9 C 0.1574(4) 0.3316(4) 0.1221(3)
C66_9 C 0.1221(3) 0.3426(4) 0.1684(4)
H34_9 H 0.1811 0.3963 0.1626
H35_9 H 0.1037 0.3374 0.1811
H36_9 H 0.1626 0.3189 0.1037
H38_9 H 0.0161079 0.396512 0.41575
H39_9 H 0.0069843 0.286627 0.264945
H40_9 H 0.015095 0.261985 0.29419
O1_9 O 0.96680(19) 0.3839(2) 0.3386(2)
O2_9 O 0.96980(18) 0.34619(18) 0.2993(2)
O3_9 O 0.8839(2) 0.46690(18) 0.33748(19)
O4_9 O 0.8459(3) 0.46690(19) 0.2994(2)
O5_9 O 0.8879(3) 0.3778(3) 0.2210(3)
O6_18 O 1.0000 0.4013(3) 0.3987(3)
O7_18 O 1.0000 0.2789(2) 0.2865(2)
C1_9 C 0.9314(2) 0.3894(2) 0.2947(2)
C2_9 C 0.91598(17) 0.41413(12) 0.31039(17)
H1_9 H 0.9232 0.4210 0.3310
C3_9 C 0.8898(2) 0.42900(19) 0.2960(2)
C4_9 C 0.8791(2) 0.41690(18) 0.2662(2)
H2_9 H 0.8603 0.4255 0.2565
C5_9 C 0.8961(3) 0.3923(3) 0.2509(3)
C6_9 C 0.9240(3) 0.3785(2) 0.2640(2)
H3_9 H 0.9367 0.3631 0.2529
C7_9 C 0.8724(2) 0.4551(2) 0.3146(2)
C8_9 C 0.9599(2) 0.3722(3) 0.3089(2)
C9_9 C 0.8638(4) 0.3916(4) 0.2045(4)
H4_9 H 0.8699 0.4135 0.1971
H5_9 H 0.8441 0.3932 0.2179
C10_9 C 0.8582(3) 0.3689(3) 0.1755(3)
C11_9 C 0.8316(4) 0.3779(3) 0.1574(4)
H6_9 H 0.8189 0.3963 0.1626
Cu3_5 Cu 0.67961(7) 0.5000 0.18088(6)
Cu5_5 Cu 0.82039(7) 0.5000 0.31912(6)
Cu12_5 Cu 0.63500(6) 0.5000 0.13552(5)
Cu14_5 Cu 0.86500(6) 0.5000 0.36448(5)
O8_9 O 0.6614(2) 0.46680(19) 0.1161(2)
O9_9 O 0.8839(2) 0.1614(2) 0.03320(19)
O13_5 O 0.6614(2) 0.53320(19) 0.1161(2)
O15_9 O 0.7007(2) 0.46980(18) 0.15381(18)
O16_9 O 0.84619(18) 0.2007(2) 0.03020(18)
O20_5 O 0.7007(2) 0.53020(18) 0.15381(18)
O29_9 O 0.6161(2) 0.46690(18) 0.16252(19)
O30_9 O 0.6161(2) 0.53310(18) 0.16252(19)
O40_9 O 0.6541(3) 0.46690(19) 0.2006(2)
O41_9 O 0.6541(3) 0.53310(19) 0.2006(2)
O44_9 O 0.7790(3) 0.3879(3) 0.1222(3)
O45_9 O 0.8778(3) 0.2790(3) 0.1121(3)
O49_9 O 0.6013(3) 0.5000 0.0987(3)
O50_17 O 0.9013(3) 0.1013(3) -0.0000
O51_9 O 0.7135(2) 0.5000 0.2211(2)
O52_17 O 0.7789(2) 0.2135(2) -0.0000
C12_9 C 0.7053(2) 0.4314(2) 0.1106(2)
C13_9 C 0.8894(2) 0.2053(2) 0.0686(2)
C17_9 C 0.68961(17) 0.41598(17) 0.08587(12)
C18_9 C 0.91413(12) 0.18961(17) 0.08402(17)
H7_9 H 0.6690 0.4232 0.0790
H8_9 H 0.9210 0.1690 0.0768
C22_9 C 0.7040(2) 0.3898(2) 0.07100(19)
C23_9 C 0.92900(19) 0.2040(2) 0.1102(2)
C27_9 C 0.7338(2) 0.3791(2) 0.08310(18)
C28_9 C 0.91690(18) 0.2338(2) 0.1209(2)
H12_9 H 0.7435 0.3603 0.0745
H13_9 H 0.9255 0.2435 0.1397
C32_9 C 0.7491(3) 0.3961(3) 0.1077(3)
C33_9 C 0.8923(3) 0.2491(3) 0.1039(3)
C37_9 C 0.7360(2) 0.4240(3) 0.1215(2)
C38_9 C 0.8785(2) 0.2360(2) 0.0760(3)
H17_9 H 0.7471 0.4367 0.1369
H18_9 H 0.8631 0.2471 0.0633
C42_9 C 0.6854(2) 0.3724(2) 0.0449(2)
C43_9 C 0.9551(2) 0.1854(2) 0.1276(2)
C47_9 C 0.6911(2) 0.4599(2) 0.1278(3)
C48_9 C 0.8722(3) 0.1911(2) 0.0401(2)
C52_9 C 0.7955(4) 0.3638(4) 0.1084(4)
C53_9 C 0.8916(4) 0.2955(4) 0.1362(4)
H22_9 H 0.8029 0.3699 0.0865
H23_9 H 0.9135 0.3029 0.1301
H27_9 H 0.7821 0.3441 0.1068
H28_9 H 0.8932 0.2821 0.1559
C57_9 C 0.8245(3) 0.3582(3) 0.1311(3)
C58_9 C 0.8689(3) 0.3245(3) 0.1418(3)
C62_9 C 0.8426(4) 0.3316(4) 0.1221(3)
C63_9 C 0.8779(3) 0.3426(4) 0.1684(4)
H32_9 H 0.8963 0.3374 0.1811
H33_9 H 0.8374 0.3189 0.1037
H37_9 H 0.978254 0.403105 0.408547
H43_9 H 0.903105 0.0914532 0.0217459
O14_5 O 0.8839(2) 0.1614(2) 0.96680(19)
O21_5 O 0.84619(18) 0.2007(2) 0.96980(18)
O50_18 O 0.9013(3) 0.1013(3) 1.0000
O52_18 O 0.7789(2) 0.2135(2) 1.0000
H41_9 H 0.786627 0.235055 0.993016
H42_9 H 0.761985 0.20581 0.984905
H44_9 H 0.896512 0.0842497 0.983892
O50_19 O 0.0987(3) 0.1013(3) 0.0000
O52_19 O 0.2211(2) 0.2135(2) 0.0000
H41_10 H 0.213373 0.235055 0.0069843
H42_10 H 0.238015 0.20581 0.015095
H44_10 H 0.103488 0.0842497 0.0161079
O1_10 O 0.03320(19) 0.3839(2) 0.6614(2)
O2_10 O 0.03020(18) 0.34619(18) 0.7007(2)
O3_10 O 0.1161(2) 0.46690(18) 0.66252(19)
O4_10 O 0.1541(3) 0.46690(19) 0.7006(2)
O5_10 O 0.1121(3) 0.3778(3) 0.7790(3)
O6_19 O -0.0000 0.4013(3) 0.6013(3)
O7_19 O 0.0000 0.2789(2) 0.7135(2)
C1_10 C 0.0686(2) 0.3894(2) 0.7053(2)
C2_10 C 0.08402(17) 0.41413(12) 0.68961(17)
H1_10 H 0.0768 0.4210 0.6690
C3_10 C 0.1102(2) 0.42900(19) 0.7040(2)
C4_10 C 0.1209(2) 0.41690(18) 0.7338(2)
H2_10 H 0.1397 0.4255 0.7435
C5_10 C 0.1039(3) 0.3923(3) 0.7491(3)
C6_10 C 0.0760(3) 0.3785(2) 0.7360(2)
H3_10 H 0.0633 0.3631 0.7471
C7_10 C 0.1276(2) 0.4551(2) 0.6854(2)
C8_10 C 0.0401(2) 0.3722(3) 0.6911(2)
C9_10 C 0.1362(4) 0.3916(4) 0.7955(4)
H4_10 H 0.1301 0.4135 0.8029
H5_10 H 0.1559 0.3932 0.7821
C10_10 C 0.1418(3) 0.3689(3) 0.8245(3)
C11_10 C 0.1684(4) 0.3779(3) 0.8426(4)
H6_10 H 0.1811 0.3963 0.8374
Cu3_6 Cu 0.32039(7) 0.5000 0.81912(6)
Cu5_6 Cu 0.17961(7) 0.5000 0.68088(6)
Cu12_6 Cu 0.36500(6) 0.5000 0.86448(5)
Cu14_6 Cu 0.13500(6) 0.5000 0.63552(5)
O8_10 O 0.3386(2) 0.46680(19) 0.8839(2)
O9_10 O 0.1161(2) 0.1614(2) 0.96680(19)
O13_6 O 0.3386(2) 0.53320(19) 0.8839(2)
O15_10 O 0.2993(2) 0.46980(18) 0.84619(18)
O16_10 O 0.15381(18) 0.2007(2) 0.96980(18)
O20_6 O 0.2993(2) 0.53020(18) 0.84619(18)
O29_10 O 0.3839(2) 0.46690(18) 0.83748(19)
O30_10 O 0.3839(2) 0.53310(18) 0.83748(19)
O40_10 O 0.3459(3) 0.46690(19) 0.7994(2)
O41_10 O 0.3459(3) 0.53310(19) 0.7994(2)
O44_10 O 0.2210(3) 0.3879(3) 0.8778(3)
O45_10 O 0.1222(3) 0.2790(3) 0.8879(3)
O49_10 O 0.3987(3) 0.5000 0.9013(3)
O50_20 O 0.0987(3) 0.1013(3) 1.0000
O51_10 O 0.2865(2) 0.5000 0.7789(2)
O52_20 O 0.2211(2) 0.2135(2) 1.0000
C12_10 C 0.2947(2) 0.4314(2) 0.8894(2)
C13_10 C 0.1106(2) 0.2053(2) 0.9314(2)
C17_10 C 0.31039(17) 0.41598(17) 0.91413(12)
C18_10 C 0.08587(12) 0.18961(17) 0.91598(17)
H7_10 H 0.3310 0.4232 0.9210
H8_10 H 0.0790 0.1690 0.9232
C22_10 C 0.2960(2) 0.3898(2) 0.92900(19)
C23_10 C 0.07100(19) 0.2040(2) 0.8898(2)
C27_10 C 0.2662(2) 0.3791(2) 0.91690(18)
C28_10 C 0.08310(18) 0.2338(2) 0.8791(2)
H12_10 H 0.2565 0.3603 0.9255
H13_10 H 0.0745 0.2435 0.8603
C32_10 C 0.2509(3) 0.3961(3) 0.8923(3)
C33_10 C 0.1077(3) 0.2491(3) 0.8961(3)
C37_10 C 0.2640(2) 0.4240(3) 0.8785(2)
C38_10 C 0.1215(2) 0.2360(2) 0.9240(3)
H17_10 H 0.2529 0.4367 0.8631
H18_10 H 0.1369 0.2471 0.9367
C42_10 C 0.3146(2) 0.3724(2) 0.9551(2)
C43_10 C 0.0449(2) 0.1854(2) 0.8724(2)
C47_10 C 0.3089(2) 0.4599(2) 0.8722(3)
C48_10 C 0.1278(3) 0.1911(2) 0.9599(2)
C52_10 C 0.2045(4) 0.3638(4) 0.8916(4)
C53_10 C 0.1084(4) 0.2955(4) 0.8638(4)
H22_10 H 0.1971 0.3699 0.9135
H23_10 H 0.0865 0.3029 0.8699
H27_10 H 0.2179 0.3441 0.8932
H28_10 H 0.1068 0.2821 0.8441
C57_10 C 0.1755(3) 0.3582(3) 0.8689(3)
C58_10 C 0.1311(3) 0.3245(3) 0.8582(3)
C62_10 C 0.1574(4) 0.3316(4) 0.8779(3)
C63_10 C 0.1221(3) 0.3426(4) 0.8316(4)
H32_10 H 0.1037 0.3374 0.8189
H33_10 H 0.1626 0.3189 0.8963
H37_10 H 0.0217459 0.403105 0.591453
H43_10 H 0.0968947 0.0914532 0.978254
O6_20 O 1.0000 0.4013(3) 0.6013(3)
O7_20 O 1.0000 0.2789(2) 0.7135(2)
Cu8_6 Cu 0.82039(7) 0.5000 0.68088(6)
Cu9_6 Cu 0.67961(7) 0.5000 0.81912(6)
Cu17_6 Cu 0.86500(6) 0.5000 0.63552(5)
Cu18_6 Cu 0.63500(6) 0.5000 0.86448(5)
O10_10 O 0.96680(19) 0.3839(2) 0.6614(2)
O11_6 O 0.6614(2) 0.46680(19) 0.8839(2)
O17_10 O 0.96980(18) 0.34619(18) 0.7007(2)
O18_6 O 0.7007(2) 0.46980(18) 0.84619(18)
O24_10 O 0.8839(2) 0.46690(18) 0.66252(19)
O35_10 O 0.8459(3) 0.46690(19) 0.7006(2)
O46_10 O 0.8879(3) 0.3778(3) 0.7790(3)
O47_10 O 0.7790(3) 0.3879(3) 0.8778(3)
O48_10 O 0.8778(3) 0.2790(3) 0.8879(3)
C14_10 C 0.9314(2) 0.3894(2) 0.7053(2)
C15_10 C 0.7053(2) 0.4314(2) 0.8894(2)
C16_10 C 0.8894(2) 0.2053(2) 0.9314(2)
C19_10 C 0.91598(17) 0.41413(12) 0.68961(17)
C20_10 C 0.68961(17) 0.41598(17) 0.91413(12)
C21_10 C 0.91413(12) 0.18961(17) 0.91598(17)
H9_10 H 0.9232 0.4210 0.6690
H10_10 H 0.6690 0.4232 0.9210
H11_10 H 0.9210 0.1690 0.9232
C24_10 C 0.8898(2) 0.42900(19) 0.7040(2)
C25_10 C 0.7040(2) 0.3898(2) 0.92900(19)
C26_10 C 0.92900(19) 0.2040(2) 0.8898(2)
C29_10 C 0.8791(2) 0.41690(18) 0.7338(2)
C30_10 C 0.7338(2) 0.3791(2) 0.91690(18)
C31_10 C 0.91690(18) 0.2338(2) 0.8791(2)
H14_10 H 0.8603 0.4255 0.7435
H15_10 H 0.7435 0.3603 0.9255
H16_10 H 0.9255 0.2435 0.8603
C34_10 C 0.8961(3) 0.3923(3) 0.7491(3)
C35_10 C 0.7491(3) 0.3961(3) 0.8923(3)
C36_10 C 0.8923(3) 0.2491(3) 0.8961(3)
C39_10 C 0.9240(3) 0.3785(2) 0.7360(2)
C40_10 C 0.7360(2) 0.4240(3) 0.8785(2)
C41_10 C 0.8785(2) 0.2360(2) 0.9240(3)
H19_10 H 0.9367 0.3631 0.7471
H20_10 H 0.7471 0.4367 0.8631
H21_10 H 0.8631 0.2471 0.9367
C44_10 C 0.8724(2) 0.4551(2) 0.6854(2)
C45_10 C 0.6854(2) 0.3724(2) 0.9551(2)
C46_10 C 0.9551(2) 0.1854(2) 0.8724(2)
C49_10 C 0.9599(2) 0.3722(3) 0.6911(2)
C50_10 C 0.6911(2) 0.4599(2) 0.8722(3)
C51_10 C 0.8722(3) 0.1911(2) 0.9599(2)
C54_10 C 0.8638(4) 0.3916(4) 0.7955(4)
C55_10 C 0.7955(4) 0.3638(4) 0.8916(4)
C56_10 C 0.8916(4) 0.2955(4) 0.8638(4)
H24_10 H 0.8699 0.4135 0.8029
H25_10 H 0.8029 0.3699 0.9135
H26_10 H 0.9135 0.3029 0.8699
H29_10 H 0.8441 0.3932 0.7821
H30_10 H 0.7821 0.3441 0.8932
H31_10 H 0.8932 0.2821 0.8441
C59_10 C 0.8582(3) 0.3689(3) 0.8245(3)
C60_10 C 0.8245(3) 0.3582(3) 0.8689(3)
C61_10 C 0.8689(3) 0.3245(3) 0.8582(3)
C64_10 C 0.8316(4) 0.3779(3) 0.8426(4)
C65_10 C 0.8426(4) 0.3316(4) 0.8779(3)
C66_10 C 0.8779(3) 0.3426(4) 0.8316(4)
H34_10 H 0.8189 0.3963 0.8374
H35_10 H 0.8963 0.3374 0.8189
H36_10 H 0.8374 0.3189 0.8963
H38_10 H 0.983892 0.396512 0.58425
H39_10 H 0.993016 0.286627 0.735055
H40_10 H 0.984905 0.261985 0.70581
O6_21 O -0.0000 0.5987(3) 0.6013(3)
O7_21 O -0.0000 0.7211(2) 0.7135(2)
O10_11 O 0.03320(19) 0.6161(2) 0.6614(2)
O12_6 O 0.1161(2) 0.8386(2) 0.96680(19)
O17_11 O 0.03020(18) 0.65381(18) 0.7007(2)
O19_6 O 0.15381(18) 0.7993(2) 0.96980(18)
O24_11 O 0.1161(2) 0.53310(18) 0.66252(19)
O35_11 O 0.1541(3) 0.53310(19) 0.7006(2)
O46_11 O 0.1121(3) 0.6222(3) 0.7790(3)
O47_11 O 0.2210(3) 0.6121(3) 0.8778(3)
O48_11 O 0.1222(3) 0.7210(3) 0.8879(3)
C14_11 C 0.0686(2) 0.6106(2) 0.7053(2)
C15_11 C 0.2947(2) 0.5686(2) 0.8894(2)
C16_11 C 0.1106(2) 0.7947(2) 0.9314(2)
C19_11 C 0.08402(17) 0.58587(12) 0.68961(17)
C20_11 C 0.31039(17) 0.58402(17) 0.91413(12)
C21_11 C 0.08587(12) 0.81039(17) 0.91598(17)
H9_11 H 0.0768 0.5790 0.6690
H10_11 H 0.3310 0.5768 0.9210
H11_11 H 0.0790 0.8310 0.9232
C24_11 C 0.1102(2) 0.57100(19) 0.7040(2)
C25_11 C 0.2960(2) 0.6102(2) 0.92900(19)
C26_11 C 0.07100(19) 0.7960(2) 0.8898(2)
C29_11 C 0.1209(2) 0.58310(18) 0.7338(2)
C30_11 C 0.2662(2) 0.6209(2) 0.91690(18)
C31_11 C 0.08310(18) 0.7662(2) 0.8791(2)
H14_11 H 0.1397 0.5745 0.7435
H15_11 H 0.2565 0.6397 0.9255
H16_11 H 0.0745 0.7565 0.8603
C34_11 C 0.1039(3) 0.6077(3) 0.7491(3)
C35_11 C 0.2509(3) 0.6039(3) 0.8923(3)
C36_11 C 0.1077(3) 0.7509(3) 0.8961(3)
C39_11 C 0.0760(3) 0.6215(2) 0.7360(2)
C40_11 C 0.2640(2) 0.5760(3) 0.8785(2)
C41_11 C 0.1215(2) 0.7640(2) 0.9240(3)
H19_11 H 0.0633 0.6369 0.7471
H20_11 H 0.2529 0.5633 0.8631
H21_11 H 0.1369 0.7529 0.9367
C44_11 C 0.1276(2) 0.5449(2) 0.6854(2)
C45_11 C 0.3146(2) 0.6276(2) 0.9551(2)
C46_11 C 0.0449(2) 0.8146(2) 0.8724(2)
C49_11 C 0.0401(2) 0.6278(3) 0.6911(2)
C50_11 C 0.3089(2) 0.5401(2) 0.8722(3)
C51_11 C 0.1278(3) 0.8089(2) 0.9599(2)
C54_11 C 0.1362(4) 0.6084(4) 0.7955(4)
C55_11 C 0.2045(4) 0.6362(4) 0.8916(4)
C56_11 C 0.1084(4) 0.7045(4) 0.8638(4)
H24_11 H 0.1301 0.5865 0.8029
H25_11 H 0.1971 0.6301 0.9135
H26_11 H 0.0865 0.6971 0.8699
H29_11 H 0.1559 0.6068 0.7821
H30_11 H 0.2179 0.6559 0.8932
H31_11 H 0.1068 0.7179 0.8441
C59_11 C 0.1418(3) 0.6311(3) 0.8245(3)
C60_11 C 0.1755(3) 0.6418(3) 0.8689(3)
C61_11 C 0.1311(3) 0.6755(3) 0.8582(3)
C64_11 C 0.1684(4) 0.6221(3) 0.8426(4)
C65_11 C 0.1574(4) 0.6684(4) 0.8779(3)
C66_11 C 0.1221(3) 0.6574(4) 0.8316(4)
H34_11 H 0.1811 0.6037 0.8374
H35_11 H 0.1037 0.6626 0.8189
H36_11 H 0.1626 0.6811 0.8963
H38_11 H 0.0161079 0.603488 0.58425
H39_11 H 0.0069843 0.713373 0.735055
H40_11 H 0.015095 0.738015 0.70581
O14_6 O 0.8839(2) 0.8386(2) 0.03320(19)
O21_6 O 0.84619(18) 0.7993(2) 0.03020(18)
O50_21 O 0.9013(3) 0.8987(3) 0.0000
O52_21 O 0.7789(2) 0.7865(2) 0.0000
H41_11 H 0.786627 0.764945 0.0069843
H42_11 H 0.761985 0.79419 0.015095
H44_11 H 0.896512 0.91575 0.0161079
O1_11 O 0.96680(19) 0.6161(2) 0.6614(2)
O2_11 O 0.96980(18) 0.65381(18) 0.7007(2)
O3_11 O 0.8839(2) 0.53310(18) 0.66252(19)
O4_11 O 0.8459(3) 0.53310(19) 0.7006(2)
O5_11 O 0.8879(3) 0.6222(3) 0.7790(3)
O6_22 O 1.0000 0.5987(3) 0.6013(3)
O7_22 O 1.0000 0.7211(2) 0.7135(2)
C1_11 C 0.9314(2) 0.6106(2) 0.7053(2)
C2_11 C 0.91598(17) 0.58587(12) 0.68961(17)
H1_11 H 0.9232 0.5790 0.6690
C3_11 C 0.8898(2) 0.57100(19) 0.7040(2)
C4_11 C 0.8791(2) 0.58310(18) 0.7338(2)
H2_11 H 0.8603 0.5745 0.7435
C5_11 C 0.8961(3) 0.6077(3) 0.7491(3)
C6_11 C 0.9240(3) 0.6215(2) 0.7360(2)
H3_11 H 0.9367 0.6369 0.7471
C7_11 C 0.8724(2) 0.5449(2) 0.6854(2)
C8_11 C 0.9599(2) 0.6278(3) 0.6911(2)
C9_11 C 0.8638(4) 0.6084(4) 0.7955(4)
H4_11 H 0.8699 0.5865 0.8029
H5_11 H 0.8441 0.6068 0.7821
C10_11 C 0.8582(3) 0.6311(3) 0.8245(3)
C11_11 C 0.8316(4) 0.6221(3) 0.8426(4)
H6_11 H 0.8189 0.6037 0.8374
O8_11 O 0.6614(2) 0.53320(19) 0.8839(2)
O9_11 O 0.8839(2) 0.8386(2) 0.96680(19)
O15_11 O 0.7007(2) 0.53020(18) 0.84619(18)
O16_11 O 0.84619(18) 0.7993(2) 0.96980(18)
O29_11 O 0.6161(2) 0.53310(18) 0.83748(19)
O30_11 O 0.6161(2) 0.46690(18) 0.83748(19)
O40_11 O 0.6541(3) 0.53310(19) 0.7994(2)
O41_11 O 0.6541(3) 0.46690(19) 0.7994(2)
O44_11 O 0.7790(3) 0.6121(3) 0.8778(3)
O45_11 O 0.8778(3) 0.7210(3) 0.8879(3)
O49_11 O 0.6013(3) 0.5000 0.9013(3)
O50_22 O 0.9013(3) 0.8987(3) 1.0000
O51_11 O 0.7135(2) 0.5000 0.7789(2)
O52_22 O 0.7789(2) 0.7865(2) 1.0000
C12_11 C 0.7053(2) 0.5686(2) 0.8894(2)
C13_11 C 0.8894(2) 0.7947(2) 0.9314(2)
C17_11 C 0.68961(17) 0.58402(17) 0.91413(12)
C18_11 C 0.91413(12) 0.81039(17) 0.91598(17)
H7_11 H 0.6690 0.5768 0.9210
H8_11 H 0.9210 0.8310 0.9232
C22_11 C 0.7040(2) 0.6102(2) 0.92900(19)
C23_11 C 0.92900(19) 0.7960(2) 0.8898(2)
C27_11 C 0.7338(2) 0.6209(2) 0.91690(18)
C28_11 C 0.91690(18) 0.7662(2) 0.8791(2)
H12_11 H 0.7435 0.6397 0.9255
H13_11 H 0.9255 0.7565 0.8603
C32_11 C 0.7491(3) 0.6039(3) 0.8923(3)
C33_11 C 0.8923(3) 0.7509(3) 0.8961(3)
C37_11 C 0.7360(2) 0.5760(3) 0.8785(2)
C38_11 C 0.8785(2) 0.7640(2) 0.9240(3)
H17_11 H 0.7471 0.5633 0.8631
H18_11 H 0.8631 0.7529 0.9367
C42_11 C 0.6854(2) 0.6276(2) 0.9551(2)
C43_11 C 0.9551(2) 0.8146(2) 0.8724(2)
C47_11 C 0.6911(2) 0.5401(2) 0.8722(3)
C48_11 C 0.8722(3) 0.8089(2) 0.9599(2)
C52_11 C 0.7955(4) 0.6362(4) 0.8916(4)
C53_11 C 0.8916(4) 0.7045(4) 0.8638(4)
H22_11 H 0.8029 0.6301 0.9135
H23_11 H 0.9135 0.6971 0.8699
H27_11 H 0.7821 0.6559 0.8932
H28_11 H 0.8932 0.7179 0.8441
C57_11 C 0.8245(3) 0.6418(3) 0.8689(3)
C58_11 C 0.8689(3) 0.6755(3) 0.8582(3)
C62_11 C 0.8426(4) 0.6684(4) 0.8779(3)
C63_11 C 0.8779(3) 0.6574(4) 0.8316(4)
H32_11 H 0.8963 0.6626 0.8189
H33_11 H 0.8374 0.6811 0.8963
H37_11 H 0.978254 0.596895 0.591453
H43_11 H 0.903105 0.908547 0.978254
O1_12 O 0.03320(19) 0.6161(2) 0.3386(2)
O2_12 O 0.03020(18) 0.65381(18) 0.2993(2)
O3_12 O 0.1161(2) 0.53310(18) 0.33748(19)
O4_12 O 0.1541(3) 0.53310(19) 0.2994(2)
O5_12 O 0.1121(3) 0.6222(3) 0.2210(3)
O6_23 O -0.0000 0.5987(3) 0.3987(3)
O7_23 O -0.0000 0.7211(2) 0.2865(2)
C1_12 C 0.0686(2) 0.6106(2) 0.2947(2)
C2_12 C 0.08402(17) 0.58587(12) 0.31039(17)
H1_12 H 0.0768 0.5790 0.3310
C3_12 C 0.1102(2) 0.57100(19) 0.2960(2)
C4_12 C 0.1209(2) 0.58310(18) 0.2662(2)
H2_12 H 0.1397 0.5745 0.2565
C5_12 C 0.1039(3) 0.6077(3) 0.2509(3)
C6_12 C 0.0760(3) 0.6215(2) 0.2640(2)
H3_12 H 0.0633 0.6369 0.2529
C7_12 C 0.1276(2) 0.5449(2) 0.3146(2)
C8_12 C 0.0401(2) 0.6278(3) 0.3089(2)
C9_12 C 0.1362(4) 0.6084(4) 0.2045(4)
H4_12 H 0.1301 0.5865 0.1971
H5_12 H 0.1559 0.6068 0.2179
C10_12 C 0.1418(3) 0.6311(3) 0.1755(3)
C11_12 C 0.1684(4) 0.6221(3) 0.1574(4)
H6_12 H 0.1811 0.6037 0.1626
O8_12 O 0.3386(2) 0.53320(19) 0.1161(2)
O9_12 O 0.1161(2) 0.8386(2) 0.03320(19)
O15_12 O 0.2993(2) 0.53020(18) 0.15381(18)
O16_12 O 0.15381(18) 0.7993(2) 0.03020(18)
O29_12 O 0.3839(2) 0.53310(18) 0.16252(19)
O30_12 O 0.3839(2) 0.46690(18) 0.16252(19)
O40_12 O 0.3459(3) 0.53310(19) 0.2006(2)
O41_12 O 0.3459(3) 0.46690(19) 0.2006(2)
O44_12 O 0.2210(3) 0.6121(3) 0.1222(3)
O45_12 O 0.1222(3) 0.7210(3) 0.1121(3)
O49_12 O 0.3987(3) 0.5000 0.0987(3)
O50_23 O 0.0987(3) 0.8987(3) -0.0000
O51_12 O 0.2865(2) 0.5000 0.2211(2)
O52_23 O 0.2211(2) 0.7865(2) -0.0000
C12_12 C 0.2947(2) 0.5686(2) 0.1106(2)
C13_12 C 0.1106(2) 0.7947(2) 0.0686(2)
C17_12 C 0.31039(17) 0.58402(17) 0.08587(12)
C18_12 C 0.08587(12) 0.81039(17) 0.08402(17)
H7_12 H 0.3310 0.5768 0.0790
H8_12 H 0.0790 0.8310 0.0768
C22_12 C 0.2960(2) 0.6102(2) 0.07100(19)
C23_12 C 0.07100(19) 0.7960(2) 0.1102(2)
C27_12 C 0.2662(2) 0.6209(2) 0.08310(18)
C28_12 C 0.08310(18) 0.7662(2) 0.1209(2)
H12_12 H 0.2565 0.6397 0.0745
H13_12 H 0.0745 0.7565 0.1397
C32_12 C 0.2509(3) 0.6039(3) 0.1077(3)
C33_12 C 0.1077(3) 0.7509(3) 0.1039(3)
C37_12 C 0.2640(2) 0.5760(3) 0.1215(2)
C38_12 C 0.1215(2) 0.7640(2) 0.0760(3)
H17_12 H 0.2529 0.5633 0.1369
H18_12 H 0.1369 0.7529 0.0633
C42_12 C 0.3146(2) 0.6276(2) 0.0449(2)
C43_12 C 0.0449(2) 0.8146(2) 0.1276(2)
C47_12 C 0.3089(2) 0.5401(2) 0.1278(3)
C48_12 C 0.1278(3) 0.8089(2) 0.0401(2)
C52_12 C 0.2045(4) 0.6362(4) 0.1084(4)
C53_12 C 0.1084(4) 0.7045(4) 0.1362(4)
H22_12 H 0.1971 0.6301 0.0865
H23_12 H 0.0865 0.6971 0.1301
H27_12 H 0.2179 0.6559 0.1068
H28_12 H 0.1068 0.7179 0.1559
C57_12 C 0.1755(3) 0.6418(3) 0.1311(3)
C58_12 C 0.1311(3) 0.6755(3) 0.1418(3)
C62_12 C 0.1574(4) 0.6684(4) 0.1221(3)
C63_12 C 0.1221(3) 0.6574(4) 0.1684(4)
H32_12 H 0.1037 0.6626 0.1811
H33_12 H 0.1626 0.6811 0.1037
H37_12 H 0.0217459 0.596895 0.408547
H43_12 H 0.0968947 0.908547 0.0217459
O50_24 O 0.0987(3) 0.8987(3) 1.0000
O52_24 O 0.2211(2) 0.7865(2) 1.0000
H41_12 H 0.213373 0.764945 0.993016
H42_12 H 0.238015 0.79419 0.984905
H44_12 H 0.103488 0.91575 0.983892
O6_24 O 1.0000 0.5987(3) 0.3987(3)
O7_24 O 1.0000 0.7211(2) 0.2865(2)
O10_12 O 0.96680(19) 0.6161(2) 0.3386(2)
O17_12 O 0.96980(18) 0.65381(18) 0.2993(2)
O24_12 O 0.8839(2) 0.53310(18) 0.33748(19)
O35_12 O 0.8459(3) 0.53310(19) 0.2994(2)
O46_12 O 0.8879(3) 0.6222(3) 0.2210(3)
O47_12 O 0.7790(3) 0.6121(3) 0.1222(3)
O48_12 O 0.8778(3) 0.7210(3) 0.1121(3)
C14_12 C 0.9314(2) 0.6106(2) 0.2947(2)
C15_12 C 0.7053(2) 0.5686(2) 0.1106(2)
C16_12 C 0.8894(2) 0.7947(2) 0.0686(2)
C19_12 C 0.91598(17) 0.58587(12) 0.31039(17)
C20_12 C 0.68961(17) 0.58402(17) 0.08587(12)
C21_12 C 0.91413(12) 0.81039(17) 0.08402(17)
H9_12 H 0.9232 0.5790 0.3310
H10_12 H 0.6690 0.5768 0.0790
H11_12 H 0.9210 0.8310 0.0768
C24_12 C 0.8898(2) 0.57100(19) 0.2960(2)
C25_12 C 0.7040(2) 0.6102(2) 0.07100(19)
C26_12 C 0.92900(19) 0.7960(2) 0.1102(2)
C29_12 C 0.8791(2) 0.58310(18) 0.2662(2)
C30_12 C 0.7338(2) 0.6209(2) 0.08310(18)
C31_12 C 0.91690(18) 0.7662(2) 0.1209(2)
H14_12 H 0.8603 0.5745 0.2565
H15_12 H 0.7435 0.6397 0.0745
H16_12 H 0.9255 0.7565 0.1397
C34_12 C 0.8961(3) 0.6077(3) 0.2509(3)
C35_12 C 0.7491(3) 0.6039(3) 0.1077(3)
C36_12 C 0.8923(3) 0.7509(3) 0.1039(3)
C39_12 C 0.9240(3) 0.6215(2) 0.2640(2)
C40_12 C 0.7360(2) 0.5760(3) 0.1215(2)
C41_12 C 0.8785(2) 0.7640(2) 0.0760(3)
H19_12 H 0.9367 0.6369 0.2529
H20_12 H 0.7471 0.5633 0.1369
H21_12 H 0.8631 0.7529 0.0633
C44_12 C 0.8724(2) 0.5449(2) 0.3146(2)
C45_12 C 0.6854(2) 0.6276(2) 0.0449(2)
C46_12 C 0.9551(2) 0.8146(2) 0.1276(2)
C49_12 C 0.9599(2) 0.6278(3) 0.3089(2)
C50_12 C 0.6911(2) 0.5401(2) 0.1278(3)
C51_12 C 0.8722(3) 0.8089(2) 0.0401(2)
C54_12 C 0.8638(4) 0.6084(4) 0.2045(4)
C55_12 C 0.7955(4) 0.6362(4) 0.1084(4)
C56_12 C 0.8916(4) 0.7045(4) 0.1362(4)
H24_12 H 0.8699 0.5865 0.1971
H25_12 H 0.8029 0.6301 0.0865
H26_12 H 0.9135 0.6971 0.1301
H29_12 H 0.8441 0.6068 0.2179
H30_12 H 0.7821 0.6559 0.1068
H31_12 H 0.8932 0.7179 0.1559
C59_12 C 0.8582(3) 0.6311(3) 0.1755(3)
C60_12 C 0.8245(3) 0.6418(3) 0.1311(3)
C61_12 C 0.8689(3) 0.6755(3) 0.1418(3)
C64_12 C 0.8316(4) 0.6221(3) 0.1574(4)
C65_12 C 0.8426(4) 0.6684(4) 0.1221(3)
C66_12 C 0.8779(3) 0.6574(4) 0.1684(4)
H34_12 H 0.8189 0.6037 0.1626
H35_12 H 0.8963 0.6626 0.1811
H36_12 H 0.8374 0.6811 0.1037
H38_12 H 0.983892 0.603488 0.41575
H39_12 H 0.993016 0.713373 0.264945
H40_12 H 0.984905 0.738015 0.29419
O1_13 O 0.3839(2) 0.8386(2) 0.46680(19)
O2_13 O 0.34619(18) 0.7993(2) 0.46980(18)
O5_13 O 0.3778(3) 0.7210(3) 0.3879(3)
O6_25 O 0.4013(3) 0.8987(3) 0.5000
O7_25 O 0.2789(2) 0.7865(2) 0.5000
C1_13 C 0.3894(2) 0.7947(2) 0.4314(2)
C2_13 C 0.41413(12) 0.81039(17) 0.41598(17)
H1_13 H 0.4210 0.8310 0.4232
C3_13 C 0.42900(19) 0.7960(2) 0.3898(2)
C4_13 C 0.41690(18) 0.7662(2) 0.3791(2)
H2_13 H 0.4255 0.7565 0.3603
C5_13 C 0.3923(3) 0.7509(3) 0.3961(3)
C6_13 C 0.3785(2) 0.7640(2) 0.4240(3)
H3_13 H 0.3631 0.7529 0.4367
C7_13 C 0.4551(2) 0.8146(2) 0.3724(2)
C8_13 C 0.3722(3) 0.8089(2) 0.4599(2)
C9_13 C 0.3916(4) 0.7045(4) 0.3638(4)
H4_13 H 0.4135 0.6971 0.3699
H5_13 H 0.3932 0.7179 0.3441
C10_13 C 0.3689(3) 0.6755(3) 0.3582(3)
C11_13 C 0.3779(3) 0.6574(4) 0.3316(4)
H6_13 H 0.3963 0.6626 0.3189
O8_13 O 0.46680(19) 0.6161(2) 0.1614(2)
O9_13 O 0.1614(2) 0.53320(19) 0.3839(2)
O10_13 O 0.3839(2) 0.8386(2) 0.53320(19)
O11_7 O 0.46680(19) 0.6161(2) 0.8386(2)
O12_7 O 0.1614(2) 0.53320(19) 0.6161(2)
O13_7 O 0.53320(19) 0.6161(2) 0.1614(2)
O14_7 O 0.1614(2) 0.46680(19) 0.3839(2)
O15_13 O 0.46980(18) 0.65381(18) 0.2007(2)
O16_13 O 0.2007(2) 0.53020(18) 0.34619(18)
O17_13 O 0.34619(18) 0.7993(2) 0.53020(18)
O18_7 O 0.46980(18) 0.65381(18) 0.7993(2)
O19_7 O 0.2007(2) 0.53020(18) 0.65381(18)
O20_7 O 0.53020(18) 0.65381(18) 0.2007(2)
O21_7 O 0.2007(2) 0.46980(18) 0.34619(18)
O44_13 O 0.3879(3) 0.6222(3) 0.2790(3)
O45_13 O 0.2790(3) 0.6121(3) 0.3778(3)
O46_13 O 0.3778(3) 0.7210(3) 0.6121(3)
O47_13 O 0.3879(3) 0.6222(3) 0.7210(3)
O48_13 O 0.2790(3) 0.6121(3) 0.6222(3)
O49_13 O 0.5000 0.5987(3) 0.1013(3)
O50_25 O 0.1013(3) 0.5000 0.4013(3)
O51_13 O 0.5000 0.7211(2) 0.2135(2)
O52_25 O 0.2135(2) 0.5000 0.2789(2)
C12_13 C 0.4314(2) 0.6106(2) 0.2053(2)
C13_13 C 0.2053(2) 0.5686(2) 0.3894(2)
C14_13 C 0.3894(2) 0.7947(2) 0.5686(2)
C15_13 C 0.4314(2) 0.6106(2) 0.7947(2)
C16_13 C 0.2053(2) 0.5686(2) 0.6106(2)
C17_13 C 0.41598(17) 0.58587(12) 0.18961(17)
C18_13 C 0.18961(17) 0.58402(17) 0.41413(12)
C19_13 C 0.41413(12) 0.81039(17) 0.58402(17)
C20_13 C 0.41598(17) 0.58587(12) 0.81039(17)
C21_13 C 0.18961(17) 0.58402(17) 0.58587(12)
H7_13 H 0.4232 0.5790 0.1690
H8_13 H 0.1690 0.5768 0.4210
H9_13 H 0.4210 0.8310 0.5768
H10_13 H 0.4232 0.5790 0.8310
H11_13 H 0.1690 0.5768 0.5790
C22_13 C 0.3898(2) 0.57100(19) 0.2040(2)
C23_13 C 0.2040(2) 0.6102(2) 0.42900(19)
C24_13 C 0.42900(19) 0.7960(2) 0.6102(2)
C25_13 C 0.3898(2) 0.57100(19) 0.7960(2)
C26_13 C 0.2040(2) 0.6102(2) 0.57100(19)
C27_13 C 0.3791(2) 0.58310(18) 0.2338(2)
C28_13 C 0.2338(2) 0.6209(2) 0.41690(18)
C29_13 C 0.41690(18) 0.7662(2) 0.6209(2)
C30_13 C 0.3791(2) 0.58310(18) 0.7662(2)
C31_13 C 0.2338(2) 0.6209(2) 0.58310(18)
H12_13 H 0.3603 0.5745 0.2435
H13_13 H 0.2435 0.6397 0.4255
H14_13 H 0.4255 0.7565 0.6397
H15_13 H 0.3603 0.5745 0.7565
H16_13 H 0.2435 0.6397 0.5745
C32_13 C 0.3961(3) 0.6077(3) 0.2491(3)
C33_13 C 0.2491(3) 0.6039(3) 0.3923(3)
C34_13 C 0.3923(3) 0.7509(3) 0.6039(3)
C35_13 C 0.3961(3) 0.6077(3) 0.7509(3)
C36_13 C 0.2491(3) 0.6039(3) 0.6077(3)
C37_13 C 0.4240(3) 0.6215(2) 0.2360(2)
C38_13 C 0.2360(2) 0.5760(3) 0.3785(2)
C39_13 C 0.3785(2) 0.7640(2) 0.5760(3)
C40_13 C 0.4240(3) 0.6215(2) 0.7640(2)
C41_13 C 0.2360(2) 0.5760(3) 0.6215(2)
H17_13 H 0.4367 0.6369 0.2471
H18_13 H 0.2471 0.5633 0.3631
H19_13 H 0.3631 0.7529 0.5633
H20_13 H 0.4367 0.6369 0.7529
H21_13 H 0.2471 0.5633 0.6369
C42_13 C 0.3724(2) 0.5449(2) 0.1854(2)
C43_13 C 0.1854(2) 0.6276(2) 0.4551(2)
C44_13 C 0.4551(2) 0.8146(2) 0.6276(2)
C45_13 C 0.3724(2) 0.5449(2) 0.8146(2)
C46_13 C 0.1854(2) 0.6276(2) 0.5449(2)
C47_13 C 0.4599(2) 0.6278(3) 0.1911(2)
C48_13 C 0.1911(2) 0.5401(2) 0.3722(3)
C49_13 C 0.3722(3) 0.8089(2) 0.5401(2)
C50_13 C 0.4599(2) 0.6278(3) 0.8089(2)
C51_13 C 0.1911(2) 0.5401(2) 0.6278(3)
C52_13 C 0.3638(4) 0.6084(4) 0.2955(4)
C53_13 C 0.2955(4) 0.6362(4) 0.3916(4)
C54_13 C 0.3916(4) 0.7045(4) 0.6362(4)
C55_13 C 0.3638(4) 0.6084(4) 0.7045(4)
C56_13 C 0.2955(4) 0.6362(4) 0.6084(4)
H22_13 H 0.3699 0.5865 0.3029
H23_13 H 0.3029 0.6301 0.4135
H24_13 H 0.4135 0.6971 0.6301
H25_13 H 0.3699 0.5865 0.6971
H26_13 H 0.3029 0.6301 0.5865
H27_13 H 0.3441 0.6068 0.2821
H28_13 H 0.2821 0.6559 0.3932
H29_13 H 0.3932 0.7179 0.6559
H30_13 H 0.3441 0.6068 0.7179
H31_13 H 0.2821 0.6559 0.6068
C57_13 C 0.3582(3) 0.6311(3) 0.3245(3)
C58_13 C 0.3245(3) 0.6418(3) 0.3689(3)
C59_13 C 0.3689(3) 0.6755(3) 0.6418(3)
C60_13 C 0.3582(3) 0.6311(3) 0.6755(3)
C61_13 C 0.3245(3) 0.6418(3) 0.6311(3)
C62_13 C 0.3316(4) 0.6221(3) 0.3426(4)
C63_13 C 0.3426(4) 0.6684(4) 0.3779(3)
C64_13 C 0.3779(3) 0.6574(4) 0.6684(4)
C65_13 C 0.3316(4) 0.6221(3) 0.6574(4)
C66_13 C 0.3426(4) 0.6684(4) 0.6221(3)
H32_13 H 0.3374 0.6811 0.3963
H33_13 H 0.3189 0.6037 0.3374
H34_13 H 0.3963 0.6626 0.6811
H35_13 H 0.3374 0.6811 0.6037
H36_13 H 0.3189 0.6037 0.6626
O1_14 O 0.3839(2) 0.1614(2) 0.53320(19)
O2_14 O 0.34619(18) 0.2007(2) 0.53020(18)
O5_14 O 0.3778(3) 0.2790(3) 0.6121(3)
O6_26 O 0.4013(3) 0.1013(3) 0.5000
O7_26 O 0.2789(2) 0.2135(2) 0.5000
C1_14 C 0.3894(2) 0.2053(2) 0.5686(2)
C2_14 C 0.41413(12) 0.18961(17) 0.58402(17)
H1_14 H 0.4210 0.1690 0.5768
C3_14 C 0.42900(19) 0.2040(2) 0.6102(2)
C4_14 C 0.41690(18) 0.2338(2) 0.6209(2)
H2_14 H 0.4255 0.2435 0.6397
C5_14 C 0.3923(3) 0.2491(3) 0.6039(3)
C6_14 C 0.3785(2) 0.2360(2) 0.5760(3)
H3_14 H 0.3631 0.2471 0.5633
C7_14 C 0.4551(2) 0.1854(2) 0.6276(2)
C8_14 C 0.3722(3) 0.1911(2) 0.5401(2)
C9_14 C 0.3916(4) 0.2955(4) 0.6362(4)
H4_14 H 0.4135 0.3029 0.6301
H5_14 H 0.3932 0.2821 0.6559
C10_14 C 0.3689(3) 0.3245(3) 0.6418(3)
C11_14 C 0.3779(3) 0.3426(4) 0.6684(4)
H6_14 H 0.3963 0.3374 0.6811
O8_14 O 0.46680(19) 0.3839(2) 0.8386(2)
O9_14 O 0.1614(2) 0.46680(19) 0.6161(2)
O10_14 O 0.3839(2) 0.1614(2) 0.46680(19)
O11_8 O 0.46680(19) 0.3839(2) 0.1614(2)
O13_8 O 0.53320(19) 0.3839(2) 0.8386(2)
O15_14 O 0.46980(18) 0.34619(18) 0.7993(2)
O16_14 O 0.2007(2) 0.46980(18) 0.65381(18)
O17_14 O 0.34619(18) 0.2007(2) 0.46980(18)
O18_8 O 0.46980(18) 0.34619(18) 0.2007(2)
O20_8 O 0.53020(18) 0.34619(18) 0.7993(2)
O44_14 O 0.3879(3) 0.3778(3) 0.7210(3)
O45_14 O 0.2790(3) 0.3879(3) 0.6222(3)
O46_14 O 0.3778(3) 0.2790(3) 0.3879(3)
O47_14 O 0.3879(3) 0.3778(3) 0.2790(3)
O48_14 O 0.2790(3) 0.3879(3) 0.3778(3)
O49_14 O 0.5000 0.4013(3) 0.8987(3)
O50_26 O 0.1013(3) 0.5000 0.5987(3)
O51_14 O 0.5000 0.2789(2) 0.7865(2)
O52_26 O 0.2135(2) 0.5000 0.7211(2)
C12_14 C 0.4314(2) 0.3894(2) 0.7947(2)
C13_14 C 0.2053(2) 0.4314(2) 0.6106(2)
C14_14 C 0.3894(2) 0.2053(2) 0.4314(2)
C15_14 C 0.4314(2) 0.3894(2) 0.2053(2)
C16_14 C 0.2053(2) 0.4314(2) 0.3894(2)
C17_14 C 0.41598(17) 0.41413(12) 0.81039(17)
C18_14 C 0.18961(17) 0.41598(17) 0.58587(12)
C19_14 C 0.41413(12) 0.18961(17) 0.41598(17)
C20_14 C 0.41598(17) 0.41413(12) 0.18961(17)
C21_14 C 0.18961(17) 0.41598(17) 0.41413(12)
H7_14 H 0.4232 0.4210 0.8310
H8_14 H 0.1690 0.4232 0.5790
H9_14 H 0.4210 0.1690 0.4232
H10_14 H 0.4232 0.4210 0.1690
H11_14 H 0.1690 0.4232 0.4210
C22_14 C 0.3898(2) 0.42900(19) 0.7960(2)
C23_14 C 0.2040(2) 0.3898(2) 0.57100(19)
C24_14 C 0.42900(19) 0.2040(2) 0.3898(2)
C25_14 C 0.3898(2) 0.42900(19) 0.2040(2)
C26_14 C 0.2040(2) 0.3898(2) 0.42900(19)
C27_14 C 0.3791(2) 0.41690(18) 0.7662(2)
C28_14 C 0.2338(2) 0.3791(2) 0.58310(18)
C29_14 C 0.41690(18) 0.2338(2) 0.3791(2)
C30_14 C 0.3791(2) 0.41690(18) 0.2338(2)
C31_14 C 0.2338(2) 0.3791(2) 0.41690(18)
H12_14 H 0.3603 0.4255 0.7565
H13_14 H 0.2435 0.3603 0.5745
H14_14 H 0.4255 0.2435 0.3603
H15_14 H 0.3603 0.4255 0.2435
H16_14 H 0.2435 0.3603 0.4255
C32_14 C 0.3961(3) 0.3923(3) 0.7509(3)
C33_14 C 0.2491(3) 0.3961(3) 0.6077(3)
C34_14 C 0.3923(3) 0.2491(3) 0.3961(3)
C35_14 C 0.3961(3) 0.3923(3) 0.2491(3)
C36_14 C 0.2491(3) 0.3961(3) 0.3923(3)
C37_14 C 0.4240(3) 0.3785(2) 0.7640(2)
C38_14 C 0.2360(2) 0.4240(3) 0.6215(2)
C39_14 C 0.3785(2) 0.2360(2) 0.4240(3)
C40_14 C 0.4240(3) 0.3785(2) 0.2360(2)
C41_14 C 0.2360(2) 0.4240(3) 0.3785(2)
H17_14 H 0.4367 0.3631 0.7529
H18_14 H 0.2471 0.4367 0.6369
H19_14 H 0.3631 0.2471 0.4367
H20_14 H 0.4367 0.3631 0.2471
H21_14 H 0.2471 0.4367 0.3631
C42_14 C 0.3724(2) 0.4551(2) 0.8146(2)
C43_14 C 0.1854(2) 0.3724(2) 0.5449(2)
C44_14 C 0.4551(2) 0.1854(2) 0.3724(2)
C45_14 C 0.3724(2) 0.4551(2) 0.1854(2)
C46_14 C 0.1854(2) 0.3724(2) 0.4551(2)
C47_14 C 0.4599(2) 0.3722(3) 0.8089(2)
C48_14 C 0.1911(2) 0.4599(2) 0.6278(3)
C49_14 C 0.3722(3) 0.1911(2) 0.4599(2)
C50_14 C 0.4599(2) 0.3722(3) 0.1911(2)
C51_14 C 0.1911(2) 0.4599(2) 0.3722(3)
C52_14 C 0.3638(4) 0.3916(4) 0.7045(4)
C53_14 C 0.2955(4) 0.3638(4) 0.6084(4)
C54_14 C 0.3916(4) 0.2955(4) 0.3638(4)
C55_14 C 0.3638(4) 0.3916(4) 0.2955(4)
C56_14 C 0.2955(4) 0.3638(4) 0.3916(4)
H22_14 H 0.3699 0.4135 0.6971
H23_14 H 0.3029 0.3699 0.5865
H24_14 H 0.4135 0.3029 0.3699
H25_14 H 0.3699 0.4135 0.3029
H26_14 H 0.3029 0.3699 0.4135
H27_14 H 0.3441 0.3932 0.7179
H28_14 H 0.2821 0.3441 0.6068
H29_14 H 0.3932 0.2821 0.3441
H30_14 H 0.3441 0.3932 0.2821
H31_14 H 0.2821 0.3441 0.3932
C57_14 C 0.3582(3) 0.3689(3) 0.6755(3)
C58_14 C 0.3245(3) 0.3582(3) 0.6311(3)
C59_14 C 0.3689(3) 0.3245(3) 0.3582(3)
C60_14 C 0.3582(3) 0.3689(3) 0.3245(3)
C61_14 C 0.3245(3) 0.3582(3) 0.3689(3)
C62_14 C 0.3316(4) 0.3779(3) 0.6574(4)
C63_14 C 0.3426(4) 0.3316(4) 0.6221(3)
C64_14 C 0.3779(3) 0.3426(4) 0.3316(4)
C65_14 C 0.3316(4) 0.3779(3) 0.3426(4)
C66_14 C 0.3426(4) 0.3316(4) 0.3779(3)
H32_14 H 0.3374 0.3189 0.6037
H33_14 H 0.3189 0.3963 0.6626
H34_14 H 0.3963 0.3374 0.3189
H35_14 H 0.3374 0.3189 0.3963
H36_14 H 0.3189 0.3963 0.3374
O1_15 O 0.6161(2) 0.1614(2) 0.46680(19)
O2_15 O 0.65381(18) 0.2007(2) 0.46980(18)
O5_15 O 0.6222(3) 0.2790(3) 0.3879(3)
O6_27 O 0.5987(3) 0.1013(3) 0.5000
O7_27 O 0.7211(2) 0.2135(2) 0.5000
C1_15 C 0.6106(2) 0.2053(2) 0.4314(2)
C2_15 C 0.58587(12) 0.18961(17) 0.41598(17)
H1_15 H 0.5790 0.1690 0.4232
C3_15 C 0.57100(19) 0.2040(2) 0.3898(2)
C4_15 C 0.58310(18) 0.2338(2) 0.3791(2)
H2_15 H 0.5745 0.2435 0.3603
C5_15 C 0.6077(3) 0.2491(3) 0.3961(3)
C6_15 C 0.6215(2) 0.2360(2) 0.4240(3)
H3_15 H 0.6369 0.2471 0.4367
C7_15 C 0.5449(2) 0.1854(2) 0.3724(2)
C8_15 C 0.6278(3) 0.1911(2) 0.4599(2)
C9_15 C 0.6084(4) 0.2955(4) 0.3638(4)
H4_15 H 0.5865 0.3029 0.3699
H5_15 H 0.6068 0.2821 0.3441
C10_15 C 0.6311(3) 0.3245(3) 0.3582(3)
C11_15 C 0.6221(3) 0.3426(4) 0.3316(4)
H6_15 H 0.6037 0.3374 0.3189
O8_15 O 0.53320(19) 0.3839(2) 0.1614(2)
O9_15 O 0.8386(2) 0.46680(19) 0.3839(2)
O10_15 O 0.6161(2) 0.1614(2) 0.53320(19)
O12_8 O 0.8386(2) 0.46680(19) 0.6161(2)
O14_8 O 0.8386(2) 0.53320(19) 0.3839(2)
O15_15 O 0.53020(18) 0.34619(18) 0.2007(2)
O16_15 O 0.7993(2) 0.46980(18) 0.34619(18)
O17_15 O 0.65381(18) 0.2007(2) 0.53020(18)
O19_8 O 0.7993(2) 0.46980(18) 0.65381(18)
O21_8 O 0.7993(2) 0.53020(18) 0.34619(18)
O44_15 O 0.6121(3) 0.3778(3) 0.2790(3)
O45_15 O 0.7210(3) 0.3879(3) 0.3778(3)
O46_15 O 0.6222(3) 0.2790(3) 0.6121(3)
O47_15 O 0.6121(3) 0.3778(3) 0.7210(3)
O48_15 O 0.7210(3) 0.3879(3) 0.6222(3)
O49_15 O 0.5000 0.4013(3) 0.1013(3)
O50_27 O 0.8987(3) 0.5000 0.4013(3)
O51_15 O 0.5000 0.2789(2) 0.2135(2)
O52_27 O 0.7865(2) 0.5000 0.2789(2)
C12_15 C 0.5686(2) 0.3894(2) 0.2053(2)
C13_15 C 0.7947(2) 0.4314(2) 0.3894(2)
C14_15 C 0.6106(2) 0.2053(2) 0.5686(2)
C15_15 C 0.5686(2) 0.3894(2) 0.7947(2)
C16_15 C 0.7947(2) 0.4314(2) 0.6106(2)
C17_15 C 0.58402(17) 0.41413(12) 0.18961(17)
C18_15 C 0.81039(17) 0.41598(17) 0.41413(12)
C19_15 C 0.58587(12) 0.18961(17) 0.58402(17)
C20_15 C 0.58402(17) 0.41413(12) 0.81039(17)
C21_15 C 0.81039(17) 0.41598(17) 0.58587(12)
H7_15 H 0.5768 0.4210 0.1690
H8_15 H 0.8310 0.4232 0.4210
H9_15 H 0.5790 0.1690 0.5768
H10_15 H 0.5768 0.4210 0.8310
H11_15 H 0.8310 0.4232 0.5790
C22_15 C 0.6102(2) 0.42900(19) 0.2040(2)
C23_15 C 0.7960(2) 0.3898(2) 0.42900(19)
C24_15 C 0.57100(19) 0.2040(2) 0.6102(2)
C25_15 C 0.6102(2) 0.42900(19) 0.7960(2)
C26_15 C 0.7960(2) 0.3898(2) 0.57100(19)
C27_15 C 0.6209(2) 0.41690(18) 0.2338(2)
C28_15 C 0.7662(2) 0.3791(2) 0.41690(18)
C29_15 C 0.58310(18) 0.2338(2) 0.6209(2)
C30_15 C 0.6209(2) 0.41690(18) 0.7662(2)
C31_15 C 0.7662(2) 0.3791(2) 0.58310(18)
H12_15 H 0.6397 0.4255 0.2435
H13_15 H 0.7565 0.3603 0.4255
H14_15 H 0.5745 0.2435 0.6397
H15_15 H 0.6397 0.4255 0.7565
H16_15 H 0.7565 0.3603 0.5745
C32_15 C 0.6039(3) 0.3923(3) 0.2491(3)
C33_15 C 0.7509(3) 0.3961(3) 0.3923(3)
C34_15 C 0.6077(3) 0.2491(3) 0.6039(3)
C35_15 C 0.6039(3) 0.3923(3) 0.7509(3)
C36_15 C 0.7509(3) 0.3961(3) 0.6077(3)
C37_15 C 0.5760(3) 0.3785(2) 0.2360(2)
C38_15 C 0.7640(2) 0.4240(3) 0.3785(2)
C39_15 C 0.6215(2) 0.2360(2) 0.5760(3)
C40_15 C 0.5760(3) 0.3785(2) 0.7640(2)
C41_15 C 0.7640(2) 0.4240(3) 0.6215(2)
H17_15 H 0.5633 0.3631 0.2471
H18_15 H 0.7529 0.4367 0.3631
H19_15 H 0.6369 0.2471 0.5633
H20_15 H 0.5633 0.3631 0.7529
H21_15 H 0.7529 0.4367 0.6369
C42_15 C 0.6276(2) 0.4551(2) 0.1854(2)
C43_15 C 0.8146(2) 0.3724(2) 0.4551(2)
C44_15 C 0.5449(2) 0.1854(2) 0.6276(2)
C45_15 C 0.6276(2) 0.4551(2) 0.8146(2)
C46_15 C 0.8146(2) 0.3724(2) 0.5449(2)
C47_15 C 0.5401(2) 0.3722(3) 0.1911(2)
C48_15 C 0.8089(2) 0.4599(2) 0.3722(3)
C49_15 C 0.6278(3) 0.1911(2) 0.5401(2)
C50_15 C 0.5401(2) 0.3722(3) 0.8089(2)
C51_15 C 0.8089(2) 0.4599(2) 0.6278(3)
C52_15 C 0.6362(4) 0.3916(4) 0.2955(4)
C53_15 C 0.7045(4) 0.3638(4) 0.3916(4)
C54_15 C 0.6084(4) 0.2955(4) 0.6362(4)
C55_15 C 0.6362(4) 0.3916(4) 0.7045(4)
C56_15 C 0.7045(4) 0.3638(4) 0.6084(4)
H22_15 H 0.6301 0.4135 0.3029
H23_15 H 0.6971 0.3699 0.4135
H24_15 H 0.5865 0.3029 0.6301
H25_15 H 0.6301 0.4135 0.6971
H26_15 H 0.6971 0.3699 0.5865
H27_15 H 0.6559 0.3932 0.2821
H28_15 H 0.7179 0.3441 0.3932
H29_15 H 0.6068 0.2821 0.6559
H30_15 H 0.6559 0.3932 0.7179
H31_15 H 0.7179 0.3441 0.6068
C57_15 C 0.6418(3) 0.3689(3) 0.3245(3)
C58_15 C 0.6755(3) 0.3582(3) 0.3689(3)
C59_15 C 0.6311(3) 0.3245(3) 0.6418(3)
C60_15 C 0.6418(3) 0.3689(3) 0.6755(3)
C61_15 C 0.6755(3) 0.3582(3) 0.6311(3)
C62_15 C 0.6684(4) 0.3779(3) 0.3426(4)
C63_15 C 0.6574(4) 0.3316(4) 0.3779(3)
C64_15 C 0.6221(3) 0.3426(4) 0.6684(4)
C65_15 C 0.6684(4) 0.3779(3) 0.6574(4)
C66_15 C 0.6574(4) 0.3316(4) 0.6221(3)
H32_15 H 0.6626 0.3189 0.3963
H33_15 H 0.6811 0.3963 0.3374
H34_15 H 0.6037 0.3374 0.6811
H35_15 H 0.6626 0.3189 0.6037
H36_15 H 0.6811 0.3963 0.6626
O1_16 O 0.6161(2) 0.8386(2) 0.53320(19)
O2_16 O 0.65381(18) 0.7993(2) 0.53020(18)
O5_16 O 0.6222(3) 0.7210(3) 0.6121(3)
O6_28 O 0.5987(3) 0.8987(3) 0.5000
O7_28 O 0.7211(2) 0.7865(2) 0.5000
C1_16 C 0.6106(2) 0.7947(2) 0.5686(2)
C2_16 C 0.58587(12) 0.81039(17) 0.58402(17)
H1_16 H 0.5790 0.8310 0.5768
C3_16 C 0.57100(19) 0.7960(2) 0.6102(2)
C4_16 C 0.58310(18) 0.7662(2) 0.6209(2)
H2_16 H 0.5745 0.7565 0.6397
C5_16 C 0.6077(3) 0.7509(3) 0.6039(3)
C6_16 C 0.6215(2) 0.7640(2) 0.5760(3)
H3_16 H 0.6369 0.7529 0.5633
C7_16 C 0.5449(2) 0.8146(2) 0.6276(2)
C8_16 C 0.6278(3) 0.8089(2) 0.5401(2)
C9_16 C 0.6084(4) 0.7045(4) 0.6362(4)
H4_16 H 0.5865 0.6971 0.6301
H5_16 H 0.6068 0.7179 0.6559
C10_16 C 0.6311(3) 0.6755(3) 0.6418(3)
C11_16 C 0.6221(3) 0.6574(4) 0.6684(4)
H6_16 H 0.6037 0.6626 0.6811
O8_16 O 0.53320(19) 0.6161(2) 0.8386(2)
O9_16 O 0.8386(2) 0.53320(19) 0.6161(2)
O10_16 O 0.6161(2) 0.8386(2) 0.46680(19)
O15_16 O 0.53020(18) 0.65381(18) 0.7993(2)
O16_16 O 0.7993(2) 0.53020(18) 0.65381(18)
O17_16 O 0.65381(18) 0.7993(2) 0.46980(18)
O44_16 O 0.6121(3) 0.6222(3) 0.7210(3)
O45_16 O 0.7210(3) 0.6121(3) 0.6222(3)
O46_16 O 0.6222(3) 0.7210(3) 0.3879(3)
O47_16 O 0.6121(3) 0.6222(3) 0.2790(3)
O48_16 O 0.7210(3) 0.6121(3) 0.3778(3)
O49_16 O 0.5000 0.5987(3) 0.8987(3)
O50_28 O 0.8987(3) 0.5000 0.5987(3)
O51_16 O 0.5000 0.7211(2) 0.7865(2)
O52_28 O 0.7865(2) 0.5000 0.7211(2)
C12_16 C 0.5686(2) 0.6106(2) 0.7947(2)
C13_16 C 0.7947(2) 0.5686(2) 0.6106(2)
C14_16 C 0.6106(2) 0.7947(2) 0.4314(2)
C15_16 C 0.5686(2) 0.6106(2) 0.2053(2)
C16_16 C 0.7947(2) 0.5686(2) 0.3894(2)
C17_16 C 0.58402(17) 0.58587(12) 0.81039(17)
C18_16 C 0.81039(17) 0.58402(17) 0.58587(12)
C19_16 C 0.58587(12) 0.81039(17) 0.41598(17)
C20_16 C 0.58402(17) 0.58587(12) 0.18961(17)
C21_16 C 0.81039(17) 0.58402(17) 0.41413(12)
H7_16 H 0.5768 0.5790 0.8310
H8_16 H 0.8310 0.5768 0.5790
H9_16 H 0.5790 0.8310 0.4232
H10_16 H 0.5768 0.5790 0.1690
H11_16 H 0.8310 0.5768 0.4210
C22_16 C 0.6102(2) 0.57100(19) 0.7960(2)
C23_16 C 0.7960(2) 0.6102(2) 0.57100(19)
C24_16 C 0.57100(19) 0.7960(2) 0.3898(2)
C25_16 C 0.6102(2) 0.57100(19) 0.2040(2)
C26_16 C 0.7960(2) 0.6102(2) 0.42900(19)
C27_16 C 0.6209(2) 0.58310(18) 0.7662(2)
C28_16 C 0.7662(2) 0.6209(2) 0.58310(18)
C29_16 C 0.58310(18) 0.7662(2) 0.3791(2)
C30_16 C 0.6209(2) 0.58310(18) 0.2338(2)
C31_16 C 0.7662(2) 0.6209(2) 0.41690(18)
H12_16 H 0.6397 0.5745 0.7565
H13_16 H 0.7565 0.6397 0.5745
H14_16 H 0.5745 0.7565 0.3603
H15_16 H 0.6397 0.5745 0.2435
H16_16 H 0.7565 0.6397 0.4255
C32_16 C 0.6039(3) 0.6077(3) 0.7509(3)
C33_16 C 0.7509(3) 0.6039(3) 0.6077(3)
C34_16 C 0.6077(3) 0.7509(3) 0.3961(3)
C35_16 C 0.6039(3) 0.6077(3) 0.2491(3)
C36_16 C 0.7509(3) 0.6039(3) 0.3923(3)
C37_16 C 0.5760(3) 0.6215(2) 0.7640(2)
C38_16 C 0.7640(2) 0.5760(3) 0.6215(2)
C39_16 C 0.6215(2) 0.7640(2) 0.4240(3)
C40_16 C 0.5760(3) 0.6215(2) 0.2360(2)
C41_16 C 0.7640(2) 0.5760(3) 0.3785(2)
H17_16 H 0.5633 0.6369 0.7529
H18_16 H 0.7529 0.5633 0.6369
H19_16 H 0.6369 0.7529 0.4367
H20_16 H 0.5633 0.6369 0.2471
H21_16 H 0.7529 0.5633 0.3631
C42_16 C 0.6276(2) 0.5449(2) 0.8146(2)
C43_16 C 0.8146(2) 0.6276(2) 0.5449(2)
C44_16 C 0.5449(2) 0.8146(2) 0.3724(2)
C45_16 C 0.6276(2) 0.5449(2) 0.1854(2)
C46_16 C 0.8146(2) 0.6276(2) 0.4551(2)
C47_16 C 0.5401(2) 0.6278(3) 0.8089(2)
C48_16 C 0.8089(2) 0.5401(2) 0.6278(3)
C49_16 C 0.6278(3) 0.8089(2) 0.4599(2)
C50_16 C 0.5401(2) 0.6278(3) 0.1911(2)
C51_16 C 0.8089(2) 0.5401(2) 0.3722(3)
C52_16 C 0.6362(4) 0.6084(4) 0.7045(4)
C53_16 C 0.7045(4) 0.6362(4) 0.6084(4)
C54_16 C 0.6084(4) 0.7045(4) 0.3638(4)
C55_16 C 0.6362(4) 0.6084(4) 0.2955(4)
C56_16 C 0.7045(4) 0.6362(4) 0.3916(4)
H22_16 H 0.6301 0.5865 0.6971
H23_16 H 0.6971 0.6301 0.5865
H24_16 H 0.5865 0.6971 0.3699
H25_16 H 0.6301 0.5865 0.3029
H26_16 H 0.6971 0.6301 0.4135
H27_16 H 0.6559 0.6068 0.7179
H28_16 H 0.7179 0.6559 0.6068
H29_16 H 0.6068 0.7179 0.3441
H30_16 H 0.6559 0.6068 0.2821
H31_16 H 0.7179 0.6559 0.3932
C57_16 C 0.6418(3) 0.6311(3) 0.6755(3)
C58_16 C 0.6755(3) 0.6418(3) 0.6311(3)
C59_16 C 0.6311(3) 0.6755(3) 0.3582(3)
C60_16 C 0.6418(3) 0.6311(3) 0.3245(3)
C61_16 C 0.6755(3) 0.6418(3) 0.3689(3)
C62_16 C 0.6684(4) 0.6221(3) 0.6574(4)
C63_16 C 0.6574(4) 0.6684(4) 0.6221(3)
C64_16 C 0.6221(3) 0.6574(4) 0.3316(4)
C65_16 C 0.6684(4) 0.6221(3) 0.3426(4)
C66_16 C 0.6574(4) 0.6684(4) 0.3779(3)
H32_16 H 0.6626 0.6811 0.6037
H33_16 H 0.6811 0.6037 0.6626
H34_16 H 0.6037 0.6626 0.3189
H35_16 H 0.6626 0.6811 0.3963
H36_16 H 0.6811 0.6037 0.3374
H41_13 H 0.0069843 0.213373 0.764945
H42_13 H 0.015095 0.238015 0.79419
H44_13 H 0.0161079 0.103488 0.91575
H37_13 H 0.591453 0.0217459 0.596895
H43_13 H 0.978254 0.0968947 0.908547
H38_13 H 0.58425 0.983892 0.603488
H39_13 H 0.735055 0.993016 0.713373
H40_13 H 0.70581 0.984905 0.738015
H38_14 H 0.41575 0.0161079 0.603488
H39_14 H 0.264945 0.0069843 0.713373
H40_14 H 0.29419 0.015095 0.738015
H37_14 H 0.408547 0.978254 0.596895
H43_14 H 0.0217459 0.903105 0.908547
H41_14 H 0.993016 0.786627 0.764945
H42_14 H 0.984905 0.761985 0.79419
H44_14 H 0.983892 0.896512 0.91575
H37_15 H 0.408547 0.0217459 0.403105
H43_15 H 0.0217459 0.0968947 0.0914532
H38_15 H 0.41575 0.983892 0.396512
H39_15 H 0.264945 0.993016 0.286627
H40_15 H 0.29419 0.984905 0.261985
H41_15 H 0.993016 0.213373 0.235055
H42_15 H 0.984905 0.238015 0.20581
H44_15 H 0.983892 0.103488 0.0842497
H41_16 H 0.0069843 0.786627 0.235055
H42_16 H 0.015095 0.761985 0.20581
H44_16 H 0.0161079 0.896512 0.0842497
H38_16 H 0.58425 0.0161079 0.396512
H39_16 H 0.735055 0.0069843 0.286627
H40_16 H 0.70581 0.015095 0.261985
H37_16 H 0.591453 0.978254 0.403105
H43_16 H 0.978254 0.903105 0.0914532
H41_17 H 0.764945 0.0069843 0.213373
H42_17 H 0.79419 0.015095 0.238015
H44_17 H 0.91575 0.0161079 0.103488
H37_17 H 0.596895 0.591453 0.0217459
H43_17 H 0.908547 0.978254 0.0968947
H38_17 H 0.603488 0.58425 0.983892
H39_17 H 0.713373 0.735055 0.993016
H40_17 H 0.738015 0.70581 0.984905
H38_18 H 0.603488 0.41575 0.0161079
H39_18 H 0.713373 0.264945 0.0069843
H40_18 H 0.738015 0.29419 0.015095
H37_18 H 0.596895 0.408547 0.978254
H43_18 H 0.908547 0.0217459 0.903105
H41_18 H 0.764945 0.993016 0.786627
H42_18 H 0.79419 0.984905 0.761985
H44_18 H 0.91575 0.983892 0.896512
H37_19 H 0.403105 0.408547 0.0217459
H43_19 H 0.0914532 0.0217459 0.0968947
H38_19 H 0.396512 0.41575 0.983892
H39_19 H 0.286627 0.264945 0.993016
H40_19 H 0.261985 0.29419 0.984905
H41_19 H 0.235055 0.993016 0.213373
H42_19 H 0.20581 0.984905 0.238015
H44_19 H 0.0842497 0.983892 0.103488
H41_20 H 0.235055 0.0069843 0.786627
H42_20 H 0.20581 0.015095 0.761985
H44_20 H 0.0842497 0.0161079 0.896512
H38_20 H 0.396512 0.58425 0.0161079
H39_20 H 0.286627 0.735055 0.0069843
H40_20 H 0.261985 0.70581 0.015095
H37_20 H 0.403105 0.591453 0.978254
H43_20 H 0.0914532 0.978254 0.903105
H41_21 H 0.213373 0.764945 0.0069843
H42_21 H 0.238015 0.79419 0.015095
H44_21 H 0.103488 0.91575 0.0161079
H37_21 H 0.0217459 0.596895 0.591453
H43_21 H 0.0968947 0.908547 0.978254
H38_21 H 0.983892 0.603488 0.58425
H39_21 H 0.993016 0.713373 0.735055
H40_21 H 0.984905 0.738015 0.70581
H38_22 H 0.0161079 0.603488 0.41575
H39_22 H 0.0069843 0.713373 0.264945
H40_22 H 0.015095 0.738015 0.29419
H37_22 H 0.978254 0.596895 0.408547
H43_22 H 0.903105 0.908547 0.0217459
H41_22 H 0.786627 0.764945 0.993016
H42_22 H 0.761985 0.79419 0.984905
H44_22 H 0.896512 0.91575 0.983892
H37_23 H 0.0217459 0.403105 0.408547
H43_23 H 0.0968947 0.0914532 0.0217459
H41_23 H 0.213373 0.235055 0.993016
H42_23 H 0.238015 0.20581 0.984905
H44_23 H 0.103488 0.0842497 0.983892
H38_23 H 0.983892 0.396512 0.41575
H39_23 H 0.993016 0.286627 0.264945
H40_23 H 0.984905 0.261985 0.29419
H38_24 H 0.0161079 0.396512 0.58425
H39_24 H 0.0069843 0.286627 0.735055
H40_24 H 0.015095 0.261985 0.70581
H41_24 H 0.786627 0.235055 0.0069843
H42_24 H 0.761985 0.20581 0.015095
H44_24 H 0.896512 0.0842497 0.0161079
H37_24 H 0.978254 0.403105 0.591453
H43_24 H 0.903105 0.0914532 0.978254
loop_
_geom_bond_atom_site_label_1
_geom_bond_atom_site_label_2
_geom_bond_site_symmetry_1
_geom_bond_site_symmetry_2
O6 Cu2 1_555 1_555
O7 Cu1 1_555 1_555
Cu8 O35 1_555 1_555
Cu9 O18 1_555 1_555
Cu10 O36 1_555 1_555
Cu11 O19 1_555 1_555
Cu17 O24 1_555 1_555
Cu18 O11 1_555 1_555
Cu19 O25 1_555 1_555
Cu20 O12 1_555 1_555
O10 Cu2 1_555 1_555
O11 C50 1_555 1_555
O12 C51 1_555 1_555
O17 Cu1 1_555 1_555
O18 C50 1_555 1_555
O19 C51 1_555 1_555
O24 C44 1_555 1_555
O25 C45 1_555 1_555
O26 Cu16 1_555 1_555
O28 Cu2 1_555 1_555
O35 C44 1_555 1_555
O36 C45 1_555 1_555
O37 Cu7 1_555 1_555
O39 Cu1 1_555 1_555
O46 C34 1_555 1_555
O47 C35 1_555 1_555
O48 C36 1_555 1_555
C14 C19 1_555 1_555
C15 C20 1_555 1_555
C16 C21 1_555 1_555
C19 H9 1_555 1_555
C20 H10 1_555 1_555
C21 H11 1_555 1_555
C24 C19 1_555 1_555
C25 C20 1_555 1_555
C26 C21 1_555 1_555
C29 C24 1_555 1_555
C30 C25 1_555 1_555
C31 C26 1_555 1_555
H14 C29 1_555 1_555
H15 C30 1_555 1_555
H16 C31 1_555 1_555
C34 C29 1_555 1_555
C35 C30 1_555 1_555
C36 C31 1_555 1_555
C39 C14 1_555 1_555
C40 C15 1_555 1_555
C41 C16 1_555 1_555
H19 C39 1_555 1_555
H20 C40 1_555 1_555
H21 C41 1_555 1_555
C44 C24 1_555 1_555
C45 C25 1_555 1_555
C46 O26 1_555 1_555
C49 O10 1_555 1_555
C50 C15 1_555 1_555
C51 C16 1_555 1_555
C54 O46 1_555 1_555
C55 O47 1_555 1_555
C56 O48 1_555 1_555
H24 C54 1_555 1_555
H25 C55 1_555 1_555
H26 C56 1_555 1_555
H29 C54 1_555 1_555
H30 C55 1_555 1_555
H31 C56 1_555 1_555
C59 C54 1_555 1_555
C60 C55 1_555 1_555
C61 C56 1_555 1_555
C64 C59 1_555 1_555
C65 C60 1_555 1_555
C66 C59 1_555 1_555
H34 C64 1_555 1_555
H35 C66 1_555 1_555
H36 C65 1_555 1_555
O17 C49 1_555 1_555
O37 C46 1_555 1_555
C14 C49 1_555 1_555
C26 C46 1_555 1_555
C34 C39 1_555 1_555
C35 C40 1_555 1_555
C36 C41 1_555 1_555
C60 C64 1_555 1_555
C61 C65 1_555 1_555
C61 C66 1_555 1_555
O6 H38 1_555 1_555
O7 H39 1_555 1_555
O7 H40 1_555 1_555
Cu1_2 O2 1_555 1_555
Cu2_2 O1 1_555 1_555
O1 C8 1_555 1_555
O2 C8 1_555 1_555
O3 C7 1_555 1_555
O4 C7 1_555 1_555
O5 C5 1_555 1_555
O6_2 Cu2_2 1_555 1_555
O7_2 Cu1_2 1_555 1_555
C1 C2 1_555 1_555
C2 H1 1_555 1_555
C3 C2 1_555 1_555
C4 C3 1_555 1_555
H2 C4 1_555 1_555
C5 C4 1_555 1_555
C6 C1 1_555 1_555
H3 C6 1_555 1_555
C7 C3 1_555 1_555
C8 C1 1_555 1_555
C9 O5 1_555 1_555
H4 C9 1_555 1_555
H5 C9 1_555 1_555
C10 C9 1_555 1_555
C11 C10 1_555 1_555
H6 C11 1_555 1_555
Cu3 O15 1_555 1_555
Cu4 O16 1_555 1_555
Cu5 O4 1_555 1_555
Cu6 O33 1_555 1_555
Cu7_2 O34 1_555 1_555
Cu12 O8 1_555 1_555
Cu13 O9 1_555 1_555
Cu14 O3 1_555 1_555
Cu15 O22 1_555 1_555
Cu16_2 O23 1_555 1_555
O8 C47 1_555 1_555
O9 C48 1_555 1_555
O13 Cu12 1_555 1_555
O15 C47 1_555 1_555
O16 C48 1_555 1_555
O20 Cu3 1_555 1_555
O22 C42 1_555 1_555
O23 C43 1_555 1_555
O27 Cu2_2 1_555 1_555
O29 Cu12 1_555 1_555
O30 Cu12 1_555 1_555
O31 Cu13 1_555 1_555
O33 C42 1_555 1_555
O34 C43 1_555 1_555
O38 Cu1_2 1_555 1_555
O40 Cu3 1_555 1_555
O41 Cu3 1_555 1_555
O42 Cu4 1_555 1_555
O44 C32 1_555 1_555
O45 C33 1_555 1_555
O49 Cu12 1_555 1_555
O50 Cu13 1_555 1_555
O51 Cu3 1_555 1_555
O52 Cu4 1_555 1_555
C12 C17 1_555 1_555
C13 C18 1_555 1_555
C17 H7 1_555 1_555
C18 H8 1_555 1_555
C22 C17 1_555 1_555
C23 C18 1_555 1_555
C27 C22 1_555 1_555
C28 C23 1_555 1_555
H12 C27 1_555 1_555
H13 C28 1_555 1_555
C32 C27 1_555 1_555
C33 C28 1_555 1_555
C37 C12 1_555 1_555
C38 C13 1_555 1_555
H17 C37 1_555 1_555
H18 C38 1_555 1_555
C42 C22 1_555 1_555
C43 C23 1_555 1_555
C47 C12 1_555 1_555
C48 C13 1_555 1_555
C52 O44 1_555 1_555
C53 O45 1_555 1_555
H22 C52 1_555 1_555
H23 C53 1_555 1_555
H27 C52 1_555 1_555
H28 C53 1_555 1_555
C57 C11 1_555 1_555
C58 C53 1_555 1_555
C62 C57 1_555 1_555
C63 C10 1_555 1_555
H32 C63 1_555 1_555
H33 C62 1_555 1_555
C5 C6 1_555 1_555
C32 C37 1_555 1_555
C33 C38 1_555 1_555
C52 C57 1_555 1_555
C58 C62 1_555 1_555
C58 C63 1_555 1_555
O6_2 H37 1_555 1_555
O50 H43 1_555 1_555
O14 Cu13_2 1_555 1_555
O21 Cu4_2 1_555 1_555
O32 Cu13_2 1_555 1_555
O43 Cu4_2 1_555 1_555
O50_2 Cu13_2 1_555 1_555
O52_2 Cu4_2 1_555 1_555
O52_2 H41 1_555 1_555
O52_2 H42 1_555 1_555
O50_2 H44 1_555 1_555
O32_2 Cu20 1_555 1_555
O43_2 Cu11 1_555 1_555
O50_3 Cu20 1_555 1_555
O52_3 Cu11 1_555 1_555
O52_3 H41_2 1_555 1_555
O52_3 H42_2 1_555 1_555
O50_3 H44_2 1_555 1_555
Cu1_3 O2_2 1_555 1_555
Cu2_3 O1_2 1_555 1_555
O1_2 C8_2 1_555 1_555
O2_2 C8_2 1_555 1_555
O3_2 C7_2 1_555 1_555
O4_2 C7_2 1_555 1_555
O5_2 C5_2 1_555 1_555
O6_3 Cu2_3 1_555 1_555
O7_3 Cu1_3 1_555 1_555
C1_2 C2_2 1_555 1_555
C2_2 H1_2 1_555 1_555
C3_2 C2_2 1_555 1_555
C4_2 C3_2 1_555 1_555
H2_2 C4_2 1_555 1_555
C5_2 C4_2 1_555 1_555
C6_2 C1_2 1_555 1_555
H3_2 C6_2 1_555 1_555
C7_2 C3_2 1_555 1_555
C8_2 C1_2 1_555 1_555
C9_2 O5_2 1_555 1_555
H4_2 C9_2 1_555 1_555
H5_2 C9_2 1_555 1_555
C10_2 C9_2 1_555 1_555
C11_2 C10_2 1_555 1_555
H6_2 C11_2 1_555 1_555
Cu3_2 O15_2 1_555 1_555
Cu11_2 O16_2 1_555 1_555
Cu5_2 O4_2 1_555 1_555
Cu10_2 O33_2 1_555 1_555
Cu7_3 O34_2 1_555 1_555
Cu12_2 O8_2 1_555 1_555
Cu20_2 O9_2 1_555 1_555
Cu14_2 O3_2 1_555 1_555
Cu19_2 O22_2 1_555 1_555
Cu16_3 O23_2 1_555 1_555
O8_2 C47_2 1_555 1_555
O9_2 C48_2 1_555 1_555
O13_2 Cu12_2 1_555 1_555
O15_2 C47_2 1_555 1_555
O16_2 C48_2 1_555 1_555
O20_2 Cu3_2 1_555 1_555
O22_2 C42_2 1_555 1_555
O23_2 C43_2 1_555 1_555
O27_2 Cu2_3 1_555 1_555
O29_2 Cu12_2 1_555 1_555
O30_2 Cu12_2 1_555 1_555
O31_2 Cu20_2 1_555 1_555
O33_2 C42_2 1_555 1_555
O34_2 C43_2 1_555 1_555
O38_2 Cu1_3 1_555 1_555
O40_2 Cu3_2 1_555 1_555
O41_2 Cu3_2 1_555 1_555
O42_2 Cu11_2 1_555 1_555
O44_2 C32_2 1_555 1_555
O45_2 C33_2 1_555 1_555
O49_2 Cu12_2 1_555 1_555
O50_4 Cu20_2 1_555 1_555
O51_2 Cu3_2 1_555 1_555
O52_4 Cu11_2 1_555 1_555
C12_2 C17_2 1_555 1_555
C13_2 C18_2 1_555 1_555
C17_2 H7_2 1_555 1_555
C18_2 H8_2 1_555 1_555
C22_2 C17_2 1_555 1_555
C23_2 C18_2 1_555 1_555
C27_2 C22_2 1_555 1_555
C28_2 C23_2 1_555 1_555
H12_2 C27_2 1_555 1_555
H13_2 C28_2 1_555 1_555
C32_2 C27_2 1_555 1_555
C33_2 C28_2 1_555 1_555
C37_2 C12_2 1_555 1_555
C38_2 C13_2 1_555 1_555
H17_2 C37_2 1_555 1_555
H18_2 C38_2 1_555 1_555
C42_2 C22_2 1_555 1_555
C43_2 C23_2 1_555 1_555
C47_2 C12_2 1_555 1_555
C48_2 C13_2 1_555 1_555
C52_2 O44_2 1_555 1_555
C53_2 O45_2 1_555 1_555
H22_2 C52_2 1_555 1_555
H23_2 C53_2 1_555 1_555
H27_2 C52_2 1_555 1_555
H28_2 C53_2 1_555 1_555
C57_2 C11_2 1_555 1_555
C58_2 C53_2 1_555 1_555
C62_2 C57_2 1_555 1_555
C63_2 C10_2 1_555 1_555
H32_2 C63_2 1_555 1_555
H33_2 C62_2 1_555 1_555
C5_2 C6_2 1_555 1_555
C32_2 C37_2 1_555 1_555
C33_2 C38_2 1_555 1_555
C52_2 C57_2 1_555 1_555
C58_2 C62_2 1_555 1_555
C58_2 C63_2 1_555 1_555
O6_3 H37_2 1_555 1_555
O50_4 H43_2 1_555 1_555
O6_4 Cu2_4 1_555 1_555
O7_4 Cu1_4 1_555 1_555
Cu8_2 O35_2 1_555 1_555
Cu9_2 O18_2 1_555 1_555
Cu6_2 O36_2 1_555 1_555
Cu17_2 O24_2 1_555 1_555
Cu18_2 O11_2 1_555 1_555
Cu15_2 O25_2 1_555 1_555
O10_2 Cu2_4 1_555 1_555
O11_2 C50_2 1_555 1_555
O14 C51_2 1_555 1_555
O17_2 Cu1_4 1_555 1_555
O18_2 C50_2 1_555 1_555
O21 C51_2 1_555 1_555
O24_2 C44_2 1_555 1_555
O25_2 C45_2 1_555 1_555
O26_2 Cu16_4 1_555 1_555
O28_2 Cu2_4 1_555 1_555
O35_2 C44_2 1_555 1_555
O36_2 C45_2 1_555 1_555
O37_2 Cu7_4 1_555 1_555
O39_2 Cu1_4 1_555 1_555
O46_2 C34_2 1_555 1_555
O47_2 C35_2 1_555 1_555
O48_2 C36_2 1_555 1_555
C14_2 C19_2 1_555 1_555
C15_2 C20_2 1_555 1_555
C16_2 C21_2 1_555 1_555
C19_2 H9_2 1_555 1_555
C20_2 H10_2 1_555 1_555
C21_2 H11_2 1_555 1_555
C24_2 C19_2 1_555 1_555
C25_2 C20_2 1_555 1_555
C26_2 C21_2 1_555 1_555
C29_2 C24_2 1_555 1_555
C30_2 C25_2 1_555 1_555
C31_2 C26_2 1_555 1_555
H14_2 C29_2 1_555 1_555
H15_2 C30_2 1_555 1_555
H16_2 C31_2 1_555 1_555
C34_2 C29_2 1_555 1_555
C35_2 C30_2 1_555 1_555
C36_2 C31_2 1_555 1_555
C39_2 C14_2 1_555 1_555
C40_2 C15_2 1_555 1_555
C41_2 C16_2 1_555 1_555
H19_2 C39_2 1_555 1_555
H20_2 C40_2 1_555 1_555
H21_2 C41_2 1_555 1_555
C44_2 C24_2 1_555 1_555
C45_2 C25_2 1_555 1_555
C46_2 O26_2 1_555 1_555
C49_2 O10_2 1_555 1_555
C50_2 C15_2 1_555 1_555
C51_2 C16_2 1_555 1_555
C54_2 O46_2 1_555 1_555
C55_2 O47_2 1_555 1_555
C56_2 O48_2 1_555 1_555
H24_2 C54_2 1_555 1_555
H25_2 C55_2 1_555 1_555
H26_2 C56_2 1_555 1_555
H29_2 C54_2 1_555 1_555
H30_2 C55_2 1_555 1_555
H31_2 C56_2 1_555 1_555
C59_2 C54_2 1_555 1_555
C60_2 C55_2 1_555 1_555
C61_2 C56_2 1_555 1_555
C64_2 C59_2 1_555 1_555
C65_2 C60_2 1_555 1_555
C66_2 C59_2 1_555 1_555
H34_2 C64_2 1_555 1_555
H35_2 C66_2 1_555 1_555
H36_2 C65_2 1_555 1_555
O17_2 C49_2 1_555 1_555
O37_2 C46_2 1_555 1_555
C14_2 C49_2 1_555 1_555
C26_2 C46_2 1_555 1_555
C34_2 C39_2 1_555 1_555
C35_2 C40_2 1_555 1_555
C36_2 C41_2 1_555 1_555
C60_2 C64_2 1_555 1_555
C61_2 C65_2 1_555 1_555
C61_2 C66_2 1_555 1_555
O6_4 H38_2 1_555 1_555
O7_4 H39_2 1_555 1_555
O7_4 H40_2 1_555 1_555
O14_2 Cu13_3 1_555 1_555
O21_2 Cu4_3 1_555 1_555
O32_3 Cu13_3 1_555 1_555
O43_3 Cu4_3 1_555 1_555
O50_5 Cu13_3 1_555 1_555
O52_5 Cu4_3 1_555 1_555
O52_5 H41_3 1_555 1_555
O52_5 H42_3 1_555 1_555
O50_5 H44_3 1_555 1_555
O6_5 Cu2_5 1_555 1_555
O7_5 Cu1_5 1_555 1_555
Cu5_2 O35_3 1_555 1_555
Cu10_4 O36_3 1_555 1_555
Cu11_4 O19_2 1_555 1_555
Cu14_2 O24_3 1_555 1_555
Cu19_4 O25_3 1_555 1_555
Cu20_4 O12_2 1_555 1_555
O10_3 Cu2_5 1_555 1_555
O13_2 C50_3 1_555 1_555
O12_2 C51_3 1_555 1_555
O17_3 Cu1_5 1_555 1_555
O20_2 C50_3 1_555 1_555
O19_2 C51_3 1_555 1_555
O24_3 C44_3 1_555 1_555
O25_3 C45_3 1_555 1_555
O26_3 Cu16_5 1_555 1_555
O28_3 Cu2_5 1_555 1_555
O35_3 C44_3 1_555 1_555
O36_3 C45_3 1_555 1_555
O37_3 Cu7_5 1_555 1_555
O39_3 Cu1_5 1_555 1_555
O46_3 C34_3 1_555 1_555
O47_3 C35_3 1_555 1_555
O48_3 C36_3 1_555 1_555
C14_3 C19_3 1_555 1_555
C15_3 C20_3 1_555 1_555
C16_3 C21_3 1_555 1_555
C19_3 H9_3 1_555 1_555
C20_3 H10_3 1_555 1_555
C21_3 H11_3 1_555 1_555
C24_3 C19_3 1_555 1_555
C25_3 C20_3 1_555 1_555
C26_3 C21_3 1_555 1_555
C29_3 C24_3 1_555 1_555
C30_3 C25_3 1_555 1_555
C31_3 C26_3 1_555 1_555
H14_3 C29_3 1_555 1_555
H15_3 C30_3 1_555 1_555
H16_3 C31_3 1_555 1_555
C34_3 C29_3 1_555 1_555
C35_3 C30_3 1_555 1_555
C36_3 C31_3 1_555 1_555
C39_3 C14_3 1_555 1_555
C40_3 C15_3 1_555 1_555
C41_3 C16_3 1_555 1_555
H19_3 C39_3 1_555 1_555
H20_3 C40_3 1_555 1_555
H21_3 C41_3 1_555 1_555
C44_3 C24_3 1_555 1_555
C45_3 C25_3 1_555 1_555
C46_3 O26_3 1_555 1_555
C49_3 O10_3 1_555 1_555
C50_3 C15_3 1_555 1_555
C51_3 C16_3 1_555 1_555
C54_3 O46_3 1_555 1_555
C55_3 O47_3 1_555 1_555
C56_3 O48_3 1_555 1_555
H24_3 C54_3 1_555 1_555
H25_3 C55_3 1_555 1_555
H26_3 C56_3 1_555 1_555
H29_3 C54_3 1_555 1_555
H30_3 C55_3 1_555 1_555
H31_3 C56_3 1_555 1_555
C59_3 C54_3 1_555 1_555
C60_3 C55_3 1_555 1_555
C61_3 C56_3 1_555 1_555
C64_3 C59_3 1_555 1_555
C65_3 C60_3 1_555 1_555
C66_3 C59_3 1_555 1_555
H34_3 C64_3 1_555 1_555
H35_3 C66_3 1_555 1_555
H36_3 C65_3 1_555 1_555
O17_3 C49_3 1_555 1_555
O37_3 C46_3 1_555 1_555
C14_3 C49_3 1_555 1_555
C26_3 C46_3 1_555 1_555
C34_3 C39_3 1_555 1_555
C35_3 C40_3 1_555 1_555
C36_3 C41_3 1_555 1_555
C60_3 C64_3 1_555 1_555
C61_3 C65_3 1_555 1_555
C61_3 C66_3 1_555 1_555
O6_5 H38_3 1_555 1_555
O7_5 H39_3 1_555 1_555
O7_5 H40_3 1_555 1_555
Cu1_6 O2_3 1_555 1_555
Cu2_6 O1_3 1_555 1_555
O1_3 C8_3 1_555 1_555
O2_3 C8_3 1_555 1_555
O3_3 C7_3 1_555 1_555
O4_3 C7_3 1_555 1_555
O5_3 C5_3 1_555 1_555
O6_6 Cu2_6 1_555 1_555
O7_6 Cu1_6 1_555 1_555
C1_3 C2_3 1_555 1_555
C2_3 H1_3 1_555 1_555
C3_3 C2_3 1_555 1_555
C4_3 C3_3 1_555 1_555
H2_3 C4_3 1_555 1_555
C5_3 C4_3 1_555 1_555
C6_3 C1_3 1_555 1_555
H3_3 C6_3 1_555 1_555
C7_3 C3_3 1_555 1_555
C8_3 C1_3 1_555 1_555
C9_3 O5_3 1_555 1_555
H4_3 C9_3 1_555 1_555
H5_3 C9_3 1_555 1_555
C10_3 C9_3 1_555 1_555
C11_3 C10_3 1_555 1_555
H6_3 C11_3 1_555 1_555
Cu9_2 O15_3 1_555 1_555
Cu4_4 O16_3 1_555 1_555
Cu8_2 O4_3 1_555 1_555
Cu6_4 O33_3 1_555 1_555
Cu7_6 O34_3 1_555 1_555
Cu18_2 O8_3 1_555 1_555
Cu13_4 O9_3 1_555 1_555
Cu17_2 O3_3 1_555 1_555
Cu15_4 O22_3 1_555 1_555
Cu16_6 O23_3 1_555 1_555
O8_3 C47_3 1_555 1_555
O9_3 C48_3 1_555 1_555
O15_3 C47_3 1_555 1_555
O16_3 C48_3 1_555 1_555
O22_3 C42_3 1_555 1_555
O23_3 C43_3 1_555 1_555
O27_3 Cu2_6 1_555 1_555
O29_3 Cu18_2 1_555 1_555
O30_3 Cu18_2 1_555 1_555
O31_3 Cu13_4 1_555 1_555
O33_3 C42_3 1_555 1_555
O34_3 C43_3 1_555 1_555
O38_3 Cu1_6 1_555 1_555
O40_3 Cu9_2 1_555 1_555
O41_3 Cu9_2 1_555 1_555
O42_3 Cu4_4 1_555 1_555
O44_3 C32_3 1_555 1_555
O45_3 C33_3 1_555 1_555
O49_3 Cu18_2 1_555 1_555
O50_6 Cu13_4 1_555 1_555
O51_3 Cu9_2 1_555 1_555
O52_6 Cu4_4 1_555 1_555
C12_3 C17_3 1_555 1_555
C13_3 C18_3 1_555 1_555
C17_3 H7_3 1_555 1_555
C18_3 H8_3 1_555 1_555
C22_3 C17_3 1_555 1_555
C23_3 C18_3 1_555 1_555
C27_3 C22_3 1_555 1_555
C28_3 C23_3 1_555 1_555
H12_3 C27_3 1_555 1_555
H13_3 C28_3 1_555 1_555
C32_3 C27_3 1_555 1_555
C33_3 C28_3 1_555 1_555
C37_3 C12_3 1_555 1_555
C38_3 C13_3 1_555 1_555
H17_3 C37_3 1_555 1_555
H18_3 C38_3 1_555 1_555
C42_3 C22_3 1_555 1_555
C43_3 C23_3 1_555 1_555
C47_3 C12_3 1_555 1_555
C48_3 C13_3 1_555 1_555
C52_3 O44_3 1_555 1_555
C53_3 O45_3 1_555 1_555
H22_3 C52_3 1_555 1_555
H23_3 C53_3 1_555 1_555
H27_3 C52_3 1_555 1_555
H28_3 C53_3 1_555 1_555
C57_3 C11_3 1_555 1_555
C58_3 C53_3 1_555 1_555
C62_3 C57_3 1_555 1_555
C63_3 C10_3 1_555 1_555
H32_3 C63_3 1_555 1_555
H33_3 C62_3 1_555 1_555
C5_3 C6_3 1_555 1_555
C32_3 C37_3 1_555 1_555
C33_3 C38_3 1_555 1_555
C52_3 C57_3 1_555 1_555
C58_3 C62_3 1_555 1_555
C58_3 C63_3 1_555 1_555
O6_6 H37_3 1_555 1_555
O50_6 H43_3 1_555 1_555
Cu1_7 O2_4 1_555 1_555
Cu2_7 O1_4 1_555 1_555
O1_4 C8_4 1_555 1_555
O2_4 C8_4 1_555 1_555
O3_4 C7_4 1_555 1_555
O4_4 C7_4 1_555 1_555
O5_4 C5_4 1_555 1_555
O6_7 Cu2_7 1_555 1_555
O7_7 Cu1_7 1_555 1_555
C1_4 C2_4 1_555 1_555
C2_4 H1_4 1_555 1_555
C3_4 C2_4 1_555 1_555
C4_4 C3_4 1_555 1_555
H2_4 C4_4 1_555 1_555
C5_4 C4_4 1_555 1_555
C6_4 C1_4 1_555 1_555
H3_4 C6_4 1_555 1_555
C7_4 C3_4 1_555 1_555
C8_4 C1_4 1_555 1_555
C9_4 O5_4 1_555 1_555
H4_4 C9_4 1_555 1_555
H5_4 C9_4 1_555 1_555
C10_4 C9_4 1_555 1_555
C11_4 C10_4 1_555 1_555
H6_4 C11_4 1_555 1_555
Cu9 O15_4 1_555 1_555
Cu11_3 O16_4 1_555 1_555
Cu8 O4_4 1_555 1_555
Cu10_3 O33_4 1_555 1_555
Cu7_7 O34_4 1_555 1_555
Cu18 O8_4 1_555 1_555
Cu20_3 O9_4 1_555 1_555
Cu17 O3_4 1_555 1_555
Cu19_3 O22_4 1_555 1_555
Cu16_7 O23_4 1_555 1_555
O8_4 C47_4 1_555 1_555
O9_4 C48_4 1_555 1_555
O15_4 C47_4 1_555 1_555
O16_4 C48_4 1_555 1_555
O22_4 C42_4 1_555 1_555
O23_4 C43_4 1_555 1_555
O27_4 Cu2_7 1_555 1_555
O29_4 Cu18 1_555 1_555
O30_4 Cu18 1_555 1_555
O31_4 Cu20_3 1_555 1_555
O33_4 C42_4 1_555 1_555
O34_4 C43_4 1_555 1_555
O38_4 Cu1_7 1_555 1_555
O40_4 Cu9 1_555 1_555
O41_4 Cu9 1_555 1_555
O42_4 Cu11_3 1_555 1_555
O44_4 C32_4 1_555 1_555
O45_4 C33_4 1_555 1_555
O49_4 Cu18 1_555 1_555
O50_7 Cu20_3 1_555 1_555
O51_4 Cu9 1_555 1_555
O52_7 Cu11_3 1_555 1_555
C12_4 C17_4 1_555 1_555
C13_4 C18_4 1_555 1_555
C17_4 H7_4 1_555 1_555
C18_4 H8_4 1_555 1_555
C22_4 C17_4 1_555 1_555
C23_4 C18_4 1_555 1_555
C27_4 C22_4 1_555 1_555
C28_4 C23_4 1_555 1_555
H12_4 C27_4 1_555 1_555
H13_4 C28_4 1_555 1_555
C32_4 C27_4 1_555 1_555
C33_4 C28_4 1_555 1_555
C37_4 C12_4 1_555 1_555
C38_4 C13_4 1_555 1_555
H17_4 C37_4 1_555 1_555
H18_4 C38_4 1_555 1_555
C42_4 C22_4 1_555 1_555
C43_4 C23_4 1_555 1_555
C47_4 C12_4 1_555 1_555
C48_4 C13_4 1_555 1_555
C52_4 O44_4 1_555 1_555
C53_4 O45_4 1_555 1_555
H22_4 C52_4 1_555 1_555
H23_4 C53_4 1_555 1_555
H27_4 C52_4 1_555 1_555
H28_4 C53_4 1_555 1_555
C57_4 C11_4 1_555 1_555
C58_4 C53_4 1_555 1_555
C62_4 C57_4 1_555 1_555
C63_4 C10_4 1_555 1_555
H32_4 C63_4 1_555 1_555
H33_4 C62_4 1_555 1_555
C5_4 C6_4 1_555 1_555
C32_4 C37_4 1_555 1_555
C33_4 C38_4 1_555 1_555
C52_4 C57_4 1_555 1_555
C58_4 C62_4 1_555 1_555
C58_4 C63_4 1_555 1_555
O6_7 H37_4 1_555 1_555
O50_7 H43_4 1_555 1_555
O6_8 Cu2_8 1_555 1_555
O7_8 Cu1_8 1_555 1_555
Cu5 O35_4 1_555 1_555
Cu6_3 O36_4 1_555 1_555
Cu14 O24_4 1_555 1_555
Cu15_3 O25_4 1_555 1_555
O10_4 Cu2_8 1_555 1_555
O13 C50_4 1_555 1_555
O14_2 C51_4 1_555 1_555
O17_4 Cu1_8 1_555 1_555
O20 C50_4 1_555 1_555
O21_2 C51_4 1_555 1_555
O24_4 C44_4 1_555 1_555
O25_4 C45_4 1_555 1_555
O26_4 Cu16_8 1_555 1_555
O28_4 Cu2_8 1_555 1_555
O35_4 C44_4 1_555 1_555
O36_4 C45_4 1_555 1_555
O37_4 Cu7_8 1_555 1_555
O39_4 Cu1_8 1_555 1_555
O46_4 C34_4 1_555 1_555
O47_4 C35_4 1_555 1_555
O48_4 C36_4 1_555 1_555
C14_4 C19_4 1_555 1_555
C15_4 C20_4 1_555 1_555
C16_4 C21_4 1_555 1_555
C19_4 H9_4 1_555 1_555
C20_4 H10_4 1_555 1_555
C21_4 H11_4 1_555 1_555
C24_4 C19_4 1_555 1_555
C25_4 C20_4 1_555 1_555
C26_4 C21_4 1_555 1_555
C29_4 C24_4 1_555 1_555
C30_4 C25_4 1_555 1_555
C31_4 C26_4 1_555 1_555
H14_4 C29_4 1_555 1_555
H15_4 C30_4 1_555 1_555
H16_4 C31_4 1_555 1_555
C34_4 C29_4 1_555 1_555
C35_4 C30_4 1_555 1_555
C36_4 C31_4 1_555 1_555
C39_4 C14_4 1_555 1_555
C40_4 C15_4 1_555 1_555
C41_4 C16_4 1_555 1_555
H19_4 C39_4 1_555 1_555
H20_4 C40_4 1_555 1_555
H21_4 C41_4 1_555 1_555
C44_4 C24_4 1_555 1_555
C45_4 C25_4 1_555 1_555
C46_4 O26_4 1_555 1_555
C49_4 O10_4 1_555 1_555
C50_4 C15_4 1_555 1_555
C51_4 C16_4 1_555 1_555
C54_4 O46_4 1_555 1_555
C55_4 O47_4 1_555 1_555
C56_4 O48_4 1_555 1_555
H24_4 C54_4 1_555 1_555
H25_4 C55_4 1_555 1_555
H26_4 C56_4 1_555 1_555
H29_4 C54_4 1_555 1_555
H30_4 C55_4 1_555 1_555
H31_4 C56_4 1_555 1_555
C59_4 C54_4 1_555 1_555
C60_4 C55_4 1_555 1_555
C61_4 C56_4 1_555 1_555
C64_4 C59_4 1_555 1_555
C65_4 C60_4 1_555 1_555
C66_4 C59_4 1_555 1_555
H34_4 C64_4 1_555 1_555
H35_4 C66_4 1_555 1_555
H36_4 C65_4 1_555 1_555
O17_4 C49_4 1_555 1_555
O37_4 C46_4 1_555 1_555
C14_4 C49_4 1_555 1_555
C26_4 C46_4 1_555 1_555
C34_4 C39_4 1_555 1_555
C35_4 C40_4 1_555 1_555
C36_4 C41_4 1_555 1_555
C60_4 C64_4 1_555 1_555
C61_4 C65_4 1_555 1_555
C61_4 C66_4 1_555 1_555
O6_8 H38_4 1_555 1_555
O7_8 H39_4 1_555 1_555
O7_8 H40_4 1_555 1_555
O32_4 Cu20_4 1_555 1_555
O43_4 Cu11_4 1_555 1_555
O50_8 Cu20_4 1_555 1_555
O52_8 Cu11_4 1_555 1_555
O52_8 H41_4 1_555 1_555
O52_8 H42_4 1_555 1_555
O50_8 H44_4 1_555 1_555
O6_9 Cu2_9 1_555 1_555
O7_9 Cu1_9 1_555 1_555
Cu8_3 O35_5 1_555 1_555
Cu9_3 O18_3 1_555 1_555
Cu7 O19_3 1_555 1_555
Cu17_3 O24_5 1_555 1_555
Cu18_3 O11_3 1_555 1_555
Cu16 O12_3 1_555 1_555
O10_5 Cu2_9 1_555 1_555
O11_3 C50_5 1_555 1_555
O12_3 C51_5 1_555 1_555
O17_5 Cu1_9 1_555 1_555
O18_3 C50_5 1_555 1_555
O19_3 C51_5 1_555 1_555
O24_5 C44_5 1_555 1_555
O28 C45_5 1_555 1_555
O26_5 Cu16_9 1_555 1_555
O28_5 Cu2_9 1_555 1_555
O35_5 C44_5 1_555 1_555
O39 C45_5 1_555 1_555
O37_5 Cu7_9 1_555 1_555
O39_5 Cu1_9 1_555 1_555
O46_5 C34_5 1_555 1_555
O47_5 C35_5 1_555 1_555
O48_5 C36_5 1_555 1_555
C14_5 C19_5 1_555 1_555
C15_5 C20_5 1_555 1_555
C16_5 C21_5 1_555 1_555
C19_5 H9_5 1_555 1_555
C20_5 H10_5 1_555 1_555
C21_5 H11_5 1_555 1_555
C24_5 C19_5 1_555 1_555
C25_5 C20_5 1_555 1_555
C26_5 C21_5 1_555 1_555
C29_5 C24_5 1_555 1_555
C30_5 C25_5 1_555 1_555
C31_5 C26_5 1_555 1_555
H14_5 C29_5 1_555 1_555
H15_5 C30_5 1_555 1_555
H16_5 C31_5 1_555 1_555
C34_5 C29_5 1_555 1_555
C35_5 C30_5 1_555 1_555
C36_5 C31_5 1_555 1_555
C39_5 C14_5 1_555 1_555
C40_5 C15_5 1_555 1_555
C41_5 C16_5 1_555 1_555
H19_5 C39_5 1_555 1_555
H20_5 C40_5 1_555 1_555
H21_5 C41_5 1_555 1_555
C44_5 C24_5 1_555 1_555
C45_5 C25_5 1_555 1_555
C46_5 O26_5 1_555 1_555
C49_5 O10_5 1_555 1_555
C50_5 C15_5 1_555 1_555
C51_5 C16_5 1_555 1_555
C54_5 O46_5 1_555 1_555
C55_5 O47_5 1_555 1_555
C56_5 O48_5 1_555 1_555
H24_5 C54_5 1_555 1_555
H25_5 C55_5 1_555 1_555
H26_5 C56_5 1_555 1_555
H29_5 C54_5 1_555 1_555
H30_5 C55_5 1_555 1_555
H31_5 C56_5 1_555 1_555
C59_5 C54_5 1_555 1_555
C60_5 C55_5 1_555 1_555
C61_5 C56_5 1_555 1_555
C64_5 C59_5 1_555 1_555
C65_5 C60_5 1_555 1_555
C66_5 C59_5 1_555 1_555
H34_5 C64_5 1_555 1_555
H35_5 C66_5 1_555 1_555
H36_5 C65_5 1_555 1_555
O17_5 C49_5 1_555 1_555
O37_5 C46_5 1_555 1_555
C14_5 C49_5 1_555 1_555
C26_5 C46_5 1_555 1_555
C34_5 C39_5 1_555 1_555
C35_5 C40_5 1_555 1_555
C36_5 C41_5 1_555 1_555
C60_5 C64_5 1_555 1_555
C61_5 C65_5 1_555 1_555
C61_5 C66_5 1_555 1_555
O6_9 H38_5 1_555 1_555
O7_9 H39_5 1_555 1_555
O7_9 H40_5 1_555 1_555
Cu1_10 O2_5 1_555 1_555
Cu2_10 O1_5 1_555 1_555
O1_5 C8_5 1_555 1_555
O2_5 C8_5 1_555 1_555
O3_5 C7_5 1_555 1_555
O4_5 C7_5 1_555 1_555
O5_5 C5_5 1_555 1_555
O6_10 Cu2_10 1_555 1_555
O7_10 Cu1_10 1_555 1_555
C1_5 C2_5 1_555 1_555
C2_5 H1_5 1_555 1_555
C3_5 C2_5 1_555 1_555
C4_5 C3_5 1_555 1_555
H2_5 C4_5 1_555 1_555
C5_5 C4_5 1_555 1_555
C6_5 C1_5 1_555 1_555
H3_5 C6_5 1_555 1_555
C7_5 C3_5 1_555 1_555
C8_5 C1_5 1_555 1_555
C9_5 O5_5 1_555 1_555
H4_5 C9_5 1_555 1_555
H5_5 C9_5 1_555 1_555
C10_5 C9_5 1_555 1_555
C11_5 C10_5 1_555 1_555
H6_5 C11_5 1_555 1_555
Cu3_3 O15_5 1_555 1_555
Cu7_7 O16_5 1_555 1_555
Cu5_3 O4_5 1_555 1_555
Cu7_10 O34_5 1_555 1_555
Cu12_3 O8_5 1_555 1_555
Cu16_7 O9_5 1_555 1_555
Cu14_3 O3_5 1_555 1_555
Cu16_10 O23_5 1_555 1_555
O8_5 C47_5 1_555 1_555
O9_5 C48_5 1_555 1_555
O13_3 Cu12_3 1_555 1_555
O15_5 C47_5 1_555 1_555
O16_5 C48_5 1_555 1_555
O20_3 Cu3_3 1_555 1_555
O27_4 C42_5 1_555 1_555
O23_5 C43_5 1_555 1_555
O27_5 Cu2_10 1_555 1_555
O29_5 Cu12_3 1_555 1_555
O30_5 Cu12_3 1_555 1_555
O38_4 C42_5 1_555 1_555
O34_5 C43_5 1_555 1_555
O38_5 Cu1_10 1_555 1_555
O40_5 Cu3_3 1_555 1_555
O41_5 Cu3_3 1_555 1_555
O44_5 C32_5 1_555 1_555
O45_5 C33_5 1_555 1_555
O49_5 Cu12_3 1_555 1_555
O50_9 Cu16_7 1_555 1_555
O51_5 Cu3_3 1_555 1_555
O52_9 Cu7_7 1_555 1_555
C12_5 C17_5 1_555 1_555
C13_5 C18_5 1_555 1_555
C17_5 H7_5 1_555 1_555
C18_5 H8_5 1_555 1_555
C22_5 C17_5 1_555 1_555
C23_5 C18_5 1_555 1_555
C27_5 C22_5 1_555 1_555
C28_5 C23_5 1_555 1_555
H12_5 C27_5 1_555 1_555
H13_5 C28_5 1_555 1_555
C32_5 C27_5 1_555 1_555
C33_5 C28_5 1_555 1_555
C37_5 C12_5 1_555 1_555
C38_5 C13_5 1_555 1_555
H17_5 C37_5 1_555 1_555
H18_5 C38_5 1_555 1_555
C42_5 C22_5 1_555 1_555
C43_5 C23_5 1_555 1_555
C47_5 C12_5 1_555 1_555
C48_5 C13_5 1_555 1_555
C52_5 O44_5 1_555 1_555
C53_5 O45_5 1_555 1_555
H22_5 C52_5 1_555 1_555
H23_5 C53_5 1_555 1_555
H27_5 C52_5 1_555 1_555
H28_5 C53_5 1_555 1_555
C57_5 C11_5 1_555 1_555
C58_5 C53_5 1_555 1_555
C62_5 C57_5 1_555 1_555
C63_5 C10_5 1_555 1_555
H32_5 C63_5 1_555 1_555
H33_5 C62_5 1_555 1_555
C5_5 C6_5 1_555 1_555
C32_5 C37_5 1_555 1_555
C33_5 C38_5 1_555 1_555
C52_5 C57_5 1_555 1_555
C58_5 C62_5 1_555 1_555
C58_5 C63_5 1_555 1_555
O6_10 H37_5 1_555 1_555
O50_9 H43_5 1_555 1_555
O14_3 Cu16_8 1_555 1_555
O21_3 Cu7_8 1_555 1_555
O50_10 Cu16_8 1_555 1_555
O52_10 Cu7_8 1_555 1_555
O52_10 H41_5 1_555 1_555
O52_10 H42_5 1_555 1_555
O50_10 H44_5 1_555 1_555
O50_11 Cu16 1_555 1_555
O52_11 Cu7 1_555 1_555
O52_11 H41_6 1_555 1_555
O52_11 H42_6 1_555 1_555
O50_11 H44_6 1_555 1_555
Cu1_11 O2_6 1_555 1_555
Cu2_11 O1_6 1_555 1_555
O1_6 C8_6 1_555 1_555
O2_6 C8_6 1_555 1_555
O3_6 C7_6 1_555 1_555
O4_6 C7_6 1_555 1_555
O5_6 C5_6 1_555 1_555
O6_11 Cu2_11 1_555 1_555
O7_11 Cu1_11 1_555 1_555
C1_6 C2_6 1_555 1_555
C2_6 H1_6 1_555 1_555
C3_6 C2_6 1_555 1_555
C4_6 C3_6 1_555 1_555
H2_6 C4_6 1_555 1_555
C5_6 C4_6 1_555 1_555
C6_6 C1_6 1_555 1_555
H3_6 C6_6 1_555 1_555
C7_6 C3_6 1_555 1_555
C8_6 C1_6 1_555 1_555
C9_6 O5_6 1_555 1_555
H4_6 C9_6 1_555 1_555
H5_6 C9_6 1_555 1_555
C10_6 C9_6 1_555 1_555
C11_6 C10_6 1_555 1_555
H6_6 C11_6 1_555 1_555
Cu3_4 O15_6 1_555 1_555
Cu7_2 O16_6 1_555 1_555
Cu5_4 O4_6 1_555 1_555
Cu7_11 O34_6 1_555 1_555
Cu12_4 O8_6 1_555 1_555
Cu16_2 O9_6 1_555 1_555
Cu14_4 O3_6 1_555 1_555
Cu16_11 O23_6 1_555 1_555
O8_6 C47_6 1_555 1_555
O9_6 C48_6 1_555 1_555
O13_4 Cu12_4 1_555 1_555
O15_6 C47_6 1_555 1_555
O16_6 C48_6 1_555 1_555
O20_4 Cu3_4 1_555 1_555
O27 C42_6 1_555 1_555
O23_6 C43_6 1_555 1_555
O27_6 Cu2_11 1_555 1_555
O29_6 Cu12_4 1_555 1_555
O30_6 Cu12_4 1_555 1_555
O38 C42_6 1_555 1_555
O34_6 C43_6 1_555 1_555
O38_6 Cu1_11 1_555 1_555
O40_6 Cu3_4 1_555 1_555
O41_6 Cu3_4 1_555 1_555
O44_6 C32_6 1_555 1_555
O45_6 C33_6 1_555 1_555
O49_6 Cu12_4 1_555 1_555
O50_12 Cu16_2 1_555 1_555
O51_6 Cu3_4 1_555 1_555
O52_12 Cu7_2 1_555 1_555
C12_6 C17_6 1_555 1_555
C13_6 C18_6 1_555 1_555
C17_6 H7_6 1_555 1_555
C18_6 H8_6 1_555 1_555
C22_6 C17_6 1_555 1_555
C23_6 C18_6 1_555 1_555
C27_6 C22_6 1_555 1_555
C28_6 C23_6 1_555 1_555
H12_6 C27_6 1_555 1_555
H13_6 C28_6 1_555 1_555
C32_6 C27_6 1_555 1_555
C33_6 C28_6 1_555 1_555
C37_6 C12_6 1_555 1_555
C38_6 C13_6 1_555 1_555
H17_6 C37_6 1_555 1_555
H18_6 C38_6 1_555 1_555
C42_6 C22_6 1_555 1_555
C43_6 C23_6 1_555 1_555
C47_6 C12_6 1_555 1_555
C48_6 C13_6 1_555 1_555
C52_6 O44_6 1_555 1_555
C53_6 O45_6 1_555 1_555
H22_6 C52_6 1_555 1_555
H23_6 C53_6 1_555 1_555
H27_6 C52_6 1_555 1_555
H28_6 C53_6 1_555 1_555
C57_6 C11_6 1_555 1_555
C58_6 C53_6 1_555 1_555
C62_6 C57_6 1_555 1_555
C63_6 C10_6 1_555 1_555
H32_6 C63_6 1_555 1_555
H33_6 C62_6 1_555 1_555
C5_6 C6_6 1_555 1_555
C32_6 C37_6 1_555 1_555
C33_6 C38_6 1_555 1_555
C52_6 C57_6 1_555 1_555
C58_6 C62_6 1_555 1_555
C58_6 C63_6 1_555 1_555
O6_11 H37_6 1_555 1_555
O50_12 H43_6 1_555 1_555
O6_12 Cu2_12 1_555 1_555
O7_12 Cu1_12 1_555 1_555
Cu8_4 O35_6 1_555 1_555
Cu9_4 O18_4 1_555 1_555
Cu17_4 O24_6 1_555 1_555
Cu18_4 O11_4 1_555 1_555
O10_6 Cu2_12 1_555 1_555
O11_4 C50_6 1_555 1_555
O14_3 C51_6 1_555 1_555
O17_6 Cu1_12 1_555 1_555
O18_4 C50_6 1_555 1_555
O21_3 C51_6 1_555 1_555
O24_6 C44_6 1_555 1_555
O28_4 C45_6 1_555 1_555
O26_6 Cu16_12 1_555 1_555
O28_6 Cu2_12 1_555 1_555
O35_6 C44_6 1_555 1_555
O39_4 C45_6 1_555 1_555
O37_6 Cu7_12 1_555 1_555
O39_6 Cu1_12 1_555 1_555
O46_6 C34_6 1_555 1_555
O47_6 C35_6 1_555 1_555
O48_6 C36_6 1_555 1_555
C14_6 C19_6 1_555 1_555
C15_6 C20_6 1_555 1_555
C16_6 C21_6 1_555 1_555
C19_6 H9_6 1_555 1_555
C20_6 H10_6 1_555 1_555
C21_6 H11_6 1_555 1_555
C24_6 C19_6 1_555 1_555
C25_6 C20_6 1_555 1_555
C26_6 C21_6 1_555 1_555
C29_6 C24_6 1_555 1_555
C30_6 C25_6 1_555 1_555
C31_6 C26_6 1_555 1_555
H14_6 C29_6 1_555 1_555
H15_6 C30_6 1_555 1_555
H16_6 C31_6 1_555 1_555
C34_6 C29_6 1_555 1_555
C35_6 C30_6 1_555 1_555
C36_6 C31_6 1_555 1_555
C39_6 C14_6 1_555 1_555
C40_6 C15_6 1_555 1_555
C41_6 C16_6 1_555 1_555
H19_6 C39_6 1_555 1_555
H20_6 C40_6 1_555 1_555
H21_6 C41_6 1_555 1_555
C44_6 C24_6 1_555 1_555
C45_6 C25_6 1_555 1_555
C46_6 O26_6 1_555 1_555
C49_6 O10_6 1_555 1_555
C50_6 C15_6 1_555 1_555
C51_6 C16_6 1_555 1_555
C54_6 O46_6 1_555 1_555
C55_6 O47_6 1_555 1_555
C56_6 O48_6 1_555 1_555
H24_6 C54_6 1_555 1_555
H25_6 C55_6 1_555 1_555
H26_6 C56_6 1_555 1_555
H29_6 C54_6 1_555 1_555
H30_6 C55_6 1_555 1_555
H31_6 C56_6 1_555 1_555
C59_6 C54_6 1_555 1_555
C60_6 C55_6 1_555 1_555
C61_6 C56_6 1_555 1_555
C64_6 C59_6 1_555 1_555
C65_6 C60_6 1_555 1_555
C66_6 C59_6 1_555 1_555
H34_6 C64_6 1_555 1_555
H35_6 C66_6 1_555 1_555
H36_6 C65_6 1_555 1_555
O17_6 C49_6 1_555 1_555
O37_6 C46_6 1_555 1_555
C14_6 C49_6 1_555 1_555
C26_6 C46_6 1_555 1_555
C34_6 C39_6 1_555 1_555
C35_6 C40_6 1_555 1_555
C36_6 C41_6 1_555 1_555
C60_6 C64_6 1_555 1_555
C61_6 C65_6 1_555 1_555
C61_6 C66_6 1_555 1_555
O6_12 H38_6 1_555 1_555
O7_12 H39_6 1_555 1_555
O7_12 H40_6 1_555 1_555
O14_4 Cu16_5 1_555 1_555
O21_4 Cu7_5 1_555 1_555
O50_13 Cu16_5 1_555 1_555
O52_13 Cu7_5 1_555 1_555
O52_13 H41_7 1_555 1_555
O52_13 H42_7 1_555 1_555
O50_13 H44_7 1_555 1_555
O6_13 Cu2_13 1_555 1_555
O7_13 Cu1_13 1_555 1_555
Cu5_4 O35_7 1_555 1_555
Cu7_4 O19_4 1_555 1_555
Cu14_4 O24_7 1_555 1_555
Cu16_4 O12_4 1_555 1_555
O10_7 Cu2_13 1_555 1_555
O13_4 C50_7 1_555 1_555
O12_4 C51_7 1_555 1_555
O17_7 Cu1_13 1_555 1_555
O20_4 C50_7 1_555 1_555
O19_4 C51_7 1_555 1_555
O24_7 C44_7 1_555 1_555
O28_2 C45_7 1_555 1_555
O26_7 Cu16_13 1_555 1_555
O28_7 Cu2_13 1_555 1_555
O35_7 C44_7 1_555 1_555
O39_2 C45_7 1_555 1_555
O37_7 Cu7_13 1_555 1_555
O39_7 Cu1_13 1_555 1_555
O46_7 C34_7 1_555 1_555
O47_7 C35_7 1_555 1_555
O48_7 C36_7 1_555 1_555
C14_7 C19_7 1_555 1_555
C15_7 C20_7 1_555 1_555
C16_7 C21_7 1_555 1_555
C19_7 H9_7 1_555 1_555
C20_7 H10_7 1_555 1_555
C21_7 H11_7 1_555 1_555
C24_7 C19_7 1_555 1_555
C25_7 C20_7 1_555 1_555
C26_7 C21_7 1_555 1_555
C29_7 C24_7 1_555 1_555
C30_7 C25_7 1_555 1_555
C31_7 C26_7 1_555 1_555
H14_7 C29_7 1_555 1_555
H15_7 C30_7 1_555 1_555
H16_7 C31_7 1_555 1_555
C34_7 C29_7 1_555 1_555
C35_7 C30_7 1_555 1_555
C36_7 C31_7 1_555 1_555
C39_7 C14_7 1_555 1_555
C40_7 C15_7 1_555 1_555
C41_7 C16_7 1_555 1_555
H19_7 C39_7 1_555 1_555
H20_7 C40_7 1_555 1_555
H21_7 C41_7 1_555 1_555
C44_7 C24_7 1_555 1_555
C45_7 C25_7 1_555 1_555
C46_7 O26_7 1_555 1_555
C49_7 O10_7 1_555 1_555
C50_7 C15_7 1_555 1_555
C51_7 C16_7 1_555 1_555
C54_7 O46_7 1_555 1_555
C55_7 O47_7 1_555 1_555
C56_7 O48_7 1_555 1_555
H24_7 C54_7 1_555 1_555
H25_7 C55_7 1_555 1_555
H26_7 C56_7 1_555 1_555
H29_7 C54_7 1_555 1_555
H30_7 C55_7 1_555 1_555
H31_7 C56_7 1_555 1_555
C59_7 C54_7 1_555 1_555
C60_7 C55_7 1_555 1_555
C61_7 C56_7 1_555 1_555
C64_7 C59_7 1_555 1_555
C65_7 C60_7 1_555 1_555
C66_7 C59_7 1_555 1_555
H34_7 C64_7 1_555 1_555
H35_7 C66_7 1_555 1_555
H36_7 C65_7 1_555 1_555
O17_7 C49_7 1_555 1_555
O37_7 C46_7 1_555 1_555
C14_7 C49_7 1_555 1_555
C26_7 C46_7 1_555 1_555
C34_7 C39_7 1_555 1_555
C35_7 C40_7 1_555 1_555
C36_7 C41_7 1_555 1_555
C60_7 C64_7 1_555 1_555
C61_7 C65_7 1_555 1_555
C61_7 C66_7 1_555 1_555
O6_13 H38_7 1_555 1_555
O7_13 H39_7 1_555 1_555
O7_13 H40_7 1_555 1_555
Cu1_14 O2_7 1_555 1_555
Cu2_14 O1_7 1_555 1_555
O1_7 C8_7 1_555 1_555
O2_7 C8_7 1_555 1_555
O3_7 C7_7 1_555 1_555
O4_7 C7_7 1_555 1_555
O5_7 C5_7 1_555 1_555
O6_14 Cu2_14 1_555 1_555
O7_14 Cu1_14 1_555 1_555
C1_7 C2_7 1_555 1_555
C2_7 H1_7 1_555 1_555
C3_7 C2_7 1_555 1_555
C4_7 C3_7 1_555 1_555
H2_7 C4_7 1_555 1_555
C5_7 C4_7 1_555 1_555
C6_7 C1_7 1_555 1_555
H3_7 C6_7 1_555 1_555
C7_7 C3_7 1_555 1_555
C8_7 C1_7 1_555 1_555
C9_7 O5_7 1_555 1_555
H4_7 C9_7 1_555 1_555
H5_7 C9_7 1_555 1_555
C10_7 C9_7 1_555 1_555
C11_7 C10_7 1_555 1_555
H6_7 C11_7 1_555 1_555
Cu9_4 O15_7 1_555 1_555
Cu7_6 O16_7 1_555 1_555
Cu8_4 O4_7 1_555 1_555
Cu7_14 O34_7 1_555 1_555
Cu18_4 O8_7 1_555 1_555
Cu16_6 O9_7 1_555 1_555
Cu17_4 O3_7 1_555 1_555
Cu16_14 O23_7 1_555 1_555
O8_7 C47_7 1_555 1_555
O9_7 C48_7 1_555 1_555
O15_7 C47_7 1_555 1_555
O16_7 C48_7 1_555 1_555
O27_3 C42_7 1_555 1_555
O23_7 C43_7 1_555 1_555
O27_7 Cu2_14 1_555 1_555
O29_7 Cu18_4 1_555 1_555
O30_7 Cu18_4 1_555 1_555
O38_3 C42_7 1_555 1_555
O34_7 C43_7 1_555 1_555
O38_7 Cu1_14 1_555 1_555
O40_7 Cu9_4 1_555 1_555
O41_7 Cu9_4 1_555 1_555
O44_7 C32_7 1_555 1_555
O45_7 C33_7 1_555 1_555
O49_7 Cu18_4 1_555 1_555
O50_14 Cu16_6 1_555 1_555
O51_7 Cu9_4 1_555 1_555
O52_14 Cu7_6 1_555 1_555
C12_7 C17_7 1_555 1_555
C13_7 C18_7 1_555 1_555
C17_7 H7_7 1_555 1_555
C18_7 H8_7 1_555 1_555
C22_7 C17_7 1_555 1_555
C23_7 C18_7 1_555 1_555
C27_7 C22_7 1_555 1_555
C28_7 C23_7 1_555 1_555
H12_7 C27_7 1_555 1_555
H13_7 C28_7 1_555 1_555
C32_7 C27_7 1_555 1_555
C33_7 C28_7 1_555 1_555
C37_7 C12_7 1_555 1_555
C38_7 C13_7 1_555 1_555
H17_7 C37_7 1_555 1_555
H18_7 C38_7 1_555 1_555
C42_7 C22_7 1_555 1_555
C43_7 C23_7 1_555 1_555
C47_7 C12_7 1_555 1_555
C48_7 C13_7 1_555 1_555
C52_7 O44_7 1_555 1_555
C53_7 O45_7 1_555 1_555
H22_7 C52_7 1_555 1_555
H23_7 C53_7 1_555 1_555
H27_7 C52_7 1_555 1_555
H28_7 C53_7 1_555 1_555
C57_7 C11_7 1_555 1_555
C58_7 C53_7 1_555 1_555
C62_7 C57_7 1_555 1_555
C63_7 C10_7 1_555 1_555
H32_7 C63_7 1_555 1_555
H33_7 C62_7 1_555 1_555
C5_7 C6_7 1_555 1_555
C32_7 C37_7 1_555 1_555
C33_7 C38_7 1_555 1_555
C52_7 C57_7 1_555 1_555
C58_7 C62_7 1_555 1_555
C58_7 C63_7 1_555 1_555
O6_14 H37_7 1_555 1_555
O50_14 H43_7 1_555 1_555
Cu1_15 O2_8 1_555 1_555
Cu2_15 O1_8 1_555 1_555
O1_8 C8_8 1_555 1_555
O2_8 C8_8 1_555 1_555
O3_8 C7_8 1_555 1_555
O4_8 C7_8 1_555 1_555
O5_8 C5_8 1_555 1_555
O6_15 Cu2_15 1_555 1_555
O7_15 Cu1_15 1_555 1_555
C1_8 C2_8 1_555 1_555
C2_8 H1_8 1_555 1_555
C3_8 C2_8 1_555 1_555
C4_8 C3_8 1_555 1_555
H2_8 C4_8 1_555 1_555
C5_8 C4_8 1_555 1_555
C6_8 C1_8 1_555 1_555
H3_8 C6_8 1_555 1_555
C7_8 C3_8 1_555 1_555
C8_8 C1_8 1_555 1_555
C9_8 O5_8 1_555 1_555
H4_8 C9_8 1_555 1_555
H5_8 C9_8 1_555 1_555
C10_8 C9_8 1_555 1_555
C11_8 C10_8 1_555 1_555
H6_8 C11_8 1_555 1_555
Cu9_3 O15_8 1_555 1_555
Cu7_3 O16_8 1_555 1_555
Cu8_3 O4_8 1_555 1_555
Cu7_15 O34_8 1_555 1_555
Cu18_3 O8_8 1_555 1_555
Cu16_3 O9_8 1_555 1_555
Cu17_3 O3_8 1_555 1_555
Cu16_15 O23_8 1_555 1_555
O8_8 C47_8 1_555 1_555
O9_8 C48_8 1_555 1_555
O15_8 C47_8 1_555 1_555
O16_8 C48_8 1_555 1_555
O27_2 C42_8 1_555 1_555
O23_8 C43_8 1_555 1_555
O27_8 Cu2_15 1_555 1_555
O29_8 Cu18_3 1_555 1_555
O30_8 Cu18_3 1_555 1_555
O38_2 C42_8 1_555 1_555
O34_8 C43_8 1_555 1_555
O38_8 Cu1_15 1_555 1_555
O40_8 Cu9_3 1_555 1_555
O41_8 Cu9_3 1_555 1_555
O44_8 C32_8 1_555 1_555
O45_8 C33_8 1_555 1_555
O49_8 Cu18_3 1_555 1_555
O50_15 Cu16_3 1_555 1_555
O51_8 Cu9_3 1_555 1_555
O52_15 Cu7_3 1_555 1_555
C12_8 C17_8 1_555 1_555
C13_8 C18_8 1_555 1_555
C17_8 H7_8 1_555 1_555
C18_8 H8_8 1_555 1_555
C22_8 C17_8 1_555 1_555
C23_8 C18_8 1_555 1_555
C27_8 C22_8 1_555 1_555
C28_8 C23_8 1_555 1_555
H12_8 C27_8 1_555 1_555
H13_8 C28_8 1_555 1_555
C32_8 C27_8 1_555 1_555
C33_8 C28_8 1_555 1_555
C37_8 C12_8 1_555 1_555
C38_8 C13_8 1_555 1_555
H17_8 C37_8 1_555 1_555
H18_8 C38_8 1_555 1_555
C42_8 C22_8 1_555 1_555
C43_8 C23_8 1_555 1_555
C47_8 C12_8 1_555 1_555
C48_8 C13_8 1_555 1_555
C52_8 O44_8 1_555 1_555
C53_8 O45_8 1_555 1_555
H22_8 C52_8 1_555 1_555
H23_8 C53_8 1_555 1_555
H27_8 C52_8 1_555 1_555
H28_8 C53_8 1_555 1_555
C57_8 C11_8 1_555 1_555
C58_8 C53_8 1_555 1_555
C62_8 C57_8 1_555 1_555
C63_8 C10_8 1_555 1_555
H32_8 C63_8 1_555 1_555
H33_8 C62_8 1_555 1_555
C5_8 C6_8 1_555 1_555
C32_8 C37_8 1_555 1_555
C33_8 C38_8 1_555 1_555
C52_8 C57_8 1_555 1_555
C58_8 C62_8 1_555 1_555
C58_8 C63_8 1_555 1_555
O6_15 H37_8 1_555 1_555
O50_15 H43_8 1_555 1_555
O6_16 Cu2_16 1_555 1_555
O7_16 Cu1_16 1_555 1_555
Cu5_3 O35_8 1_555 1_555
Cu14_3 O24_8 1_555 1_555
O10_8 Cu2_16 1_555 1_555
O13_3 C50_8 1_555 1_555
O14_4 C51_8 1_555 1_555
O17_8 Cu1_16 1_555 1_555
O20_3 C50_8 1_555 1_555
O21_4 C51_8 1_555 1_555
O24_8 C44_8 1_555 1_555
O28_3 C45_8 1_555 1_555
O26_8 Cu16_16 1_555 1_555
O28_8 Cu2_16 1_555 1_555
O35_8 C44_8 1_555 1_555
O39_3 C45_8 1_555 1_555
O37_8 Cu7_16 1_555 1_555
O39_8 Cu1_16 1_555 1_555
O46_8 C34_8 1_555 1_555
O47_8 C35_8 1_555 1_555
O48_8 C36_8 1_555 1_555
C14_8 C19_8 1_555 1_555
C15_8 C20_8 1_555 1_555
C16_8 C21_8 1_555 1_555
C19_8 H9_8 1_555 1_555
C20_8 H10_8 1_555 1_555
C21_8 H11_8 1_555 1_555
C24_8 C19_8 1_555 1_555
C25_8 C20_8 1_555 1_555
C26_8 C21_8 1_555 1_555
C29_8 C24_8 1_555 1_555
C30_8 C25_8 1_555 1_555
C31_8 C26_8 1_555 1_555
H14_8 C29_8 1_555 1_555
H15_8 C30_8 1_555 1_555
H16_8 C31_8 1_555 1_555
C34_8 C29_8 1_555 1_555
C35_8 C30_8 1_555 1_555
C36_8 C31_8 1_555 1_555
C39_8 C14_8 1_555 1_555
C40_8 C15_8 1_555 1_555
C41_8 C16_8 1_555 1_555
H19_8 C39_8 1_555 1_555
H20_8 C40_8 1_555 1_555
H21_8 C41_8 1_555 1_555
C44_8 C24_8 1_555 1_555
C45_8 C25_8 1_555 1_555
C46_8 O26_8 1_555 1_555
C49_8 O10_8 1_555 1_555
C50_8 C15_8 1_555 1_555
C51_8 C16_8 1_555 1_555
C54_8 O46_8 1_555 1_555
C55_8 O47_8 1_555 1_555
C56_8 O48_8 1_555 1_555
H24_8 C54_8 1_555 1_555
H25_8 C55_8 1_555 1_555
H26_8 C56_8 1_555 1_555
H29_8 C54_8 1_555 1_555
H30_8 C55_8 1_555 1_555
H31_8 C56_8 1_555 1_555
C59_8 C54_8 1_555 1_555
C60_8 C55_8 1_555 1_555
C61_8 C56_8 1_555 1_555
C64_8 C59_8 1_555 1_555
C65_8 C60_8 1_555 1_555
C66_8 C59_8 1_555 1_555
H34_8 C64_8 1_555 1_555
H35_8 C66_8 1_555 1_555
H36_8 C65_8 1_555 1_555
O17_8 C49_8 1_555 1_555
O37_8 C46_8 1_555 1_555
C14_8 C49_8 1_555 1_555
C26_8 C46_8 1_555 1_555
C34_8 C39_8 1_555 1_555
C35_8 C40_8 1_555 1_555
C36_8 C41_8 1_555 1_555
C60_8 C64_8 1_555 1_555
C61_8 C65_8 1_555 1_555
C61_8 C66_8 1_555 1_555
O6_16 H38_8 1_555 1_555
O7_16 H39_8 1_555 1_555
O7_16 H40_8 1_555 1_555
O50_16 Cu16_4 1_555 1_555
O52_16 Cu7_4 1_555 1_555
O52_16 H41_8 1_555 1_555
O52_16 H42_8 1_555 1_555
O50_16 H44_8 1_555 1_555
O6_17 Cu19 1_555 1_555
O7_17 Cu10 1_555 1_555
Cu8_5 O35_9 1_555 1_555
Cu9_5 O18_5 1_555 1_555
Cu7_9 O19_5 1_555 1_555
Cu17_5 O24_9 1_555 1_555
Cu18_5 O11_5 1_555 1_555
Cu16_9 O12_5 1_555 1_555
O10_9 Cu19 1_555 1_555
O11_5 C50_9 1_555 1_555
O12_5 C51_9 1_555 1_555
O17_9 Cu10 1_555 1_555
O18_5 C50_9 1_555 1_555
O19_5 C51_9 1_555 1_555
O24_9 C44_9 1_555 1_555
O28_5 C45_9 1_555 1_555
O35_9 C44_9 1_555 1_555
O39_5 C45_9 1_555 1_555
O46_9 C34_9 1_555 1_555
O47_9 C35_9 1_555 1_555
O48_9 C36_9 1_555 1_555
C14_9 C19_9 1_555 1_555
C15_9 C20_9 1_555 1_555
C16_9 C21_9 1_555 1_555
C19_9 H9_9 1_555 1_555
C20_9 H10_9 1_555 1_555
C21_9 H11_9 1_555 1_555
C24_9 C19_9 1_555 1_555
C25_9 C20_9 1_555 1_555
C26_9 C21_9 1_555 1_555
C29_9 C24_9 1_555 1_555
C30_9 C25_9 1_555 1_555
C31_9 C26_9 1_555 1_555
H14_9 C29_9 1_555 1_555
H15_9 C30_9 1_555 1_555
H16_9 C31_9 1_555 1_555
C34_9 C29_9 1_555 1_555
C35_9 C30_9 1_555 1_555
C36_9 C31_9 1_555 1_555
C39_9 C14_9 1_555 1_555
C40_9 C15_9 1_555 1_555
C41_9 C16_9 1_555 1_555
H19_9 C39_9 1_555 1_555
H20_9 C40_9 1_555 1_555
H21_9 C41_9 1_555 1_555
C44_9 C24_9 1_555 1_555
C45_9 C25_9 1_555 1_555
C46_9 O32_2 1_555 1_555
C49_9 O10_9 1_555 1_555
C50_9 C15_9 1_555 1_555
C51_9 C16_9 1_555 1_555
C54_9 O46_9 1_555 1_555
C55_9 O47_9 1_555 1_555
C56_9 O48_9 1_555 1_555
H24_9 C54_9 1_555 1_555
H25_9 C55_9 1_555 1_555
H26_9 C56_9 1_555 1_555
H29_9 C54_9 1_555 1_555
H30_9 C55_9 1_555 1_555
H31_9 C56_9 1_555 1_555
C59_9 C54_9 1_555 1_555
C60_9 C55_9 1_555 1_555
C61_9 C56_9 1_555 1_555
C64_9 C59_9 1_555 1_555
C65_9 C60_9 1_555 1_555
C66_9 C59_9 1_555 1_555
H34_9 C64_9 1_555 1_555
H35_9 C66_9 1_555 1_555
H36_9 C65_9 1_555 1_555
O17_9 C49_9 1_555 1_555
O43_2 C46_9 1_555 1_555
C14_9 C49_9 1_555 1_555
C26_9 C46_9 1_555 1_555
C34_9 C39_9 1_555 1_555
C35_9 C40_9 1_555 1_555
C36_9 C41_9 1_555 1_555
C60_9 C64_9 1_555 1_555
C61_9 C65_9 1_555 1_555
C61_9 C66_9 1_555 1_555
O6_17 H38_9 1_555 1_555
O7_17 H39_9 1_555 1_555
O7_17 H40_9 1_555 1_555
Cu10_2 O2_9 1_555 1_555
Cu19_2 O1_9 1_555 1_555
O1_9 C8_9 1_555 1_555
O2_9 C8_9 1_555 1_555
O3_9 C7_9 1_555 1_555
O4_9 C7_9 1_555 1_555
O5_9 C5_9 1_555 1_555
O6_18 Cu19_2 1_555 1_555
O7_18 Cu10_2 1_555 1_555
C1_9 C2_9 1_555 1_555
C2_9 H1_9 1_555 1_555
C3_9 C2_9 1_555 1_555
C4_9 C3_9 1_555 1_555
H2_9 C4_9 1_555 1_555
C5_9 C4_9 1_555 1_555
C6_9 C1_9 1_555 1_555
H3_9 C6_9 1_555 1_555
C7_9 C3_9 1_555 1_555
C8_9 C1_9 1_555 1_555
C9_9 O5_9 1_555 1_555
H4_9 C9_9 1_555 1_555
H5_9 C9_9 1_555 1_555
C10_9 C9_9 1_555 1_555
C11_9 C10_9 1_555 1_555
H6_9 C11_9 1_555 1_555
Cu3_5 O15_9 1_555 1_555
Cu7_15 O16_9 1_555 1_555
Cu5_5 O4_9 1_555 1_555
Cu12_5 O8_9 1_555 1_555
Cu16_15 O9_9 1_555 1_555
Cu14_5 O3_9 1_555 1_555
O8_9 C47_9 1_555 1_555
O9_9 C48_9 1_555 1_555
O13_5 Cu12_5 1_555 1_555
O15_9 C47_9 1_555 1_555
O16_9 C48_9 1_555 1_555
O20_5 Cu3_5 1_555 1_555
O27_8 C42_9 1_555 1_555
O31_2 C43_9 1_555 1_555
O29_9 Cu12_5 1_555 1_555
O30_9 Cu12_5 1_555 1_555
O38_8 C42_9 1_555 1_555
O42_2 C43_9 1_555 1_555
O40_9 Cu3_5 1_555 1_555
O41_9 Cu3_5 1_555 1_555
O44_9 C32_9 1_555 1_555
O45_9 C33_9 1_555 1_555
O49_9 Cu12_5 1_555 1_555
O50_17 Cu16_15 1_555 1_555
O51_9 Cu3_5 1_555 1_555
O52_17 Cu7_15 1_555 1_555
C12_9 C17_9 1_555 1_555
C13_9 C18_9 1_555 1_555
C17_9 H7_9 1_555 1_555
C18_9 H8_9 1_555 1_555
C22_9 C17_9 1_555 1_555
C23_9 C18_9 1_555 1_555
C27_9 C22_9 1_555 1_555
C28_9 C23_9 1_555 1_555
H12_9 C27_9 1_555 1_555
H13_9 C28_9 1_555 1_555
C32_9 C27_9 1_555 1_555
C33_9 C28_9 1_555 1_555
C37_9 C12_9 1_555 1_555
C38_9 C13_9 1_555 1_555
H17_9 C37_9 1_555 1_555
H18_9 C38_9 1_555 1_555
C42_9 C22_9 1_555 1_555
C43_9 C23_9 1_555 1_555
C47_9 C12_9 1_555 1_555
C48_9 C13_9 1_555 1_555
C52_9 O44_9 1_555 1_555
C53_9 O45_9 1_555 1_555
H22_9 C52_9 1_555 1_555
H23_9 C53_9 1_555 1_555
H27_9 C52_9 1_555 1_555
H28_9 C53_9 1_555 1_555
C57_9 C11_9 1_555 1_555
C58_9 C53_9 1_555 1_555
C62_9 C57_9 1_555 1_555
C63_9 C10_9 1_555 1_555
H32_9 C63_9 1_555 1_555
H33_9 C62_9 1_555 1_555
C5_9 C6_9 1_555 1_555
C32_9 C37_9 1_555 1_555
C33_9 C38_9 1_555 1_555
C52_9 C57_9 1_555 1_555
C58_9 C62_9 1_555 1_555
C58_9 C63_9 1_555 1_555
O6_18 H37_9 1_555 1_555
O50_17 H43_9 1_555 1_555
O14_5 Cu16_16 1_555 1_555
O21_5 Cu7_16 1_555 1_555
O50_18 Cu16_16 1_555 1_555
O52_18 Cu7_16 1_555 1_555
O52_18 H41_9 1_555 1_555
O52_18 H42_9 1_555 1_555
O50_18 H44_9 1_555 1_555
O50_19 Cu16_9 1_555 1_555
O52_19 Cu7_9 1_555 1_555
O52_19 H41_10 1_555 1_555
O52_19 H42_10 1_555 1_555
O50_19 H44_10 1_555 1_555
Cu10_3 O2_10 1_555 1_555
Cu19_3 O1_10 1_555 1_555
O1_10 C8_10 1_555 1_555
O2_10 C8_10 1_555 1_555
O3_10 C7_10 1_555 1_555
O4_10 C7_10 1_555 1_555
O5_10 C5_10 1_555 1_555
O6_19 Cu19_3 1_555 1_555
O7_19 Cu10_3 1_555 1_555
C1_10 C2_10 1_555 1_555
C2_10 H1_10 1_555 1_555
C3_10 C2_10 1_555 1_555
C4_10 C3_10 1_555 1_555
H2_10 C4_10 1_555 1_555
C5_10 C4_10 1_555 1_555
C6_10 C1_10 1_555 1_555
H3_10 C6_10 1_555 1_555
C7_10 C3_10 1_555 1_555
C8_10 C1_10 1_555 1_555
C9_10 O5_10 1_555 1_555
H4_10 C9_10 1_555 1_555
H5_10 C9_10 1_555 1_555
C10_10 C9_10 1_555 1_555
C11_10 C10_10 1_555 1_555
H6_10 C11_10 1_555 1_555
Cu3_6 O15_10 1_555 1_555
Cu7_10 O16_10 1_555 1_555
Cu5_6 O4_10 1_555 1_555
Cu12_6 O8_10 1_555 1_555
Cu16_10 O9_10 1_555 1_555
Cu14_6 O3_10 1_555 1_555
O8_10 C47_10 1_555 1_555
O9_10 C48_10 1_555 1_555
O13_6 Cu12_6 1_555 1_555
O15_10 C47_10 1_555 1_555
O16_10 C48_10 1_555 1_555
O20_6 Cu3_6 1_555 1_555
O27_5 C42_10 1_555 1_555
O31_4 C43_10 1_555 1_555
O29_10 Cu12_6 1_555 1_555
O30_10 Cu12_6 1_555 1_555
O38_5 C42_10 1_555 1_555
O42_4 C43_10 1_555 1_555
O40_10 Cu3_6 1_555 1_555
O41_10 Cu3_6 1_555 1_555
O44_10 C32_10 1_555 1_555
O45_10 C33_10 1_555 1_555
O49_10 Cu12_6 1_555 1_555
O50_20 Cu16_10 1_555 1_555
O51_10 Cu3_6 1_555 1_555
O52_20 Cu7_10 1_555 1_555
C12_10 C17_10 1_555 1_555
C13_10 C18_10 1_555 1_555
C17_10 H7_10 1_555 1_555
C18_10 H8_10 1_555 1_555
C22_10 C17_10 1_555 1_555
C23_10 C18_10 1_555 1_555
C27_10 C22_10 1_555 1_555
C28_10 C23_10 1_555 1_555
H12_10 C27_10 1_555 1_555
H13_10 C28_10 1_555 1_555
C32_10 C27_10 1_555 1_555
C33_10 C28_10 1_555 1_555
C37_10 C12_10 1_555 1_555
C38_10 C13_10 1_555 1_555
H17_10 C37_10 1_555 1_555
H18_10 C38_10 1_555 1_555
C42_10 C22_10 1_555 1_555
C43_10 C23_10 1_555 1_555
C47_10 C12_10 1_555 1_555
C48_10 C13_10 1_555 1_555
C52_10 O44_10 1_555 1_555
C53_10 O45_10 1_555 1_555
H22_10 C52_10 1_555 1_555
H23_10 C53_10 1_555 1_555
H27_10 C52_10 1_555 1_555
H28_10 C53_10 1_555 1_555
C57_10 C11_10 1_555 1_555
C58_10 C53_10 1_555 1_555
C62_10 C57_10 1_555 1_555
C63_10 C10_10 1_555 1_555
H32_10 C63_10 1_555 1_555
H33_10 C62_10 1_555 1_555
C5_10 C6_10 1_555 1_555
C32_10 C37_10 1_555 1_555
C33_10 C38_10 1_555 1_555
C52_10 C57_10 1_555 1_555
C58_10 C62_10 1_555 1_555
C58_10 C63_10 1_555 1_555
O6_19 H37_10 1_555 1_555
O50_20 H43_10 1_555 1_555
O6_20 Cu19_4 1_555 1_555
O7_20 Cu10_4 1_555 1_555
Cu8_6 O35_10 1_555 1_555
Cu9_6 O18_6 1_555 1_555
Cu17_6 O24_10 1_555 1_555
Cu18_6 O11_6 1_555 1_555
O10_10 Cu19_4 1_555 1_555
O11_6 C50_10 1_555 1_555
O14_5 C51_10 1_555 1_555
O17_10 Cu10_4 1_555 1_555
O18_6 C50_10 1_555 1_555
O21_5 C51_10 1_555 1_555
O24_10 C44_10 1_555 1_555
O28_8 C45_10 1_555 1_555
O35_10 C44_10 1_555 1_555
O39_8 C45_10 1_555 1_555
O46_10 C34_10 1_555 1_555
O47_10 C35_10 1_555 1_555
O48_10 C36_10 1_555 1_555
C14_10 C19_10 1_555 1_555
C15_10 C20_10 1_555 1_555
C16_10 C21_10 1_555 1_555
C19_10 H9_10 1_555 1_555
C20_10 H10_10 1_555 1_555
C21_10 H11_10 1_555 1_555
C24_10 C19_10 1_555 1_555
C25_10 C20_10 1_555 1_555
C26_10 C21_10 1_555 1_555
C29_10 C24_10 1_555 1_555
C30_10 C25_10 1_555 1_555
C31_10 C26_10 1_555 1_555
H14_10 C29_10 1_555 1_555
H15_10 C30_10 1_555 1_555
H16_10 C31_10 1_555 1_555
C34_10 C29_10 1_555 1_555
C35_10 C30_10 1_555 1_555
C36_10 C31_10 1_555 1_555
C39_10 C14_10 1_555 1_555
C40_10 C15_10 1_555 1_555
C41_10 C16_10 1_555 1_555
H19_10 C39_10 1_555 1_555
H20_10 C40_10 1_555 1_555
H21_10 C41_10 1_555 1_555
C44_10 C24_10 1_555 1_555
C45_10 C25_10 1_555 1_555
C46_10 O32_4 1_555 1_555
C49_10 O10_10 1_555 1_555
C50_10 C15_10 1_555 1_555
C51_10 C16_10 1_555 1_555
C54_10 O46_10 1_555 1_555
C55_10 O47_10 1_555 1_555
C56_10 O48_10 1_555 1_555
H24_10 C54_10 1_555 1_555
H25_10 C55_10 1_555 1_555
H26_10 C56_10 1_555 1_555
H29_10 C54_10 1_555 1_555
H30_10 C55_10 1_555 1_555
H31_10 C56_10 1_555 1_555
C59_10 C54_10 1_555 1_555
C60_10 C55_10 1_555 1_555
C61_10 C56_10 1_555 1_555
C64_10 C59_10 1_555 1_555
C65_10 C60_10 1_555 1_555
C66_10 C59_10 1_555 1_555
H34_10 C64_10 1_555 1_555
H35_10 C66_10 1_555 1_555
H36_10 C65_10 1_555 1_555
O17_10 C49_10 1_555 1_555
O43_4 C46_10 1_555 1_555
C14_10 C49_10 1_555 1_555
C26_10 C46_10 1_555 1_555
C34_10 C39_10 1_555 1_555
C35_10 C40_10 1_555 1_555
C36_10 C41_10 1_555 1_555
C60_10 C64_10 1_555 1_555
C61_10 C65_10 1_555 1_555
C61_10 C66_10 1_555 1_555
O6_20 H38_10 1_555 1_555
O7_20 H39_10 1_555 1_555
O7_20 H40_10 1_555 1_555
O6_21 Cu15_3 1_555 1_555
O7_21 Cu6_3 1_555 1_555
Cu5_6 O35_11 1_555 1_555
Cu7_12 O19_6 1_555 1_555
Cu14_6 O24_11 1_555 1_555
Cu16_12 O12_6 1_555 1_555
O10_11 Cu15_3 1_555 1_555
O13_6 C50_11 1_555 1_555
O12_6 C51_11 1_555 1_555
O17_11 Cu6_3 1_555 1_555
O20_6 C50_11 1_555 1_555
O19_6 C51_11 1_555 1_555
O24_11 C44_11 1_555 1_555
O28_6 C45_11 1_555 1_555
O35_11 C44_11 1_555 1_555
O39_6 C45_11 1_555 1_555
O46_11 C34_11 1_555 1_555
O47_11 C35_11 1_555 1_555
O48_11 C36_11 1_555 1_555
C14_11 C19_11 1_555 1_555
C15_11 C20_11 1_555 1_555
C16_11 C21_11 1_555 1_555
C19_11 H9_11 1_555 1_555
C20_11 H10_11 1_555 1_555
C21_11 H11_11 1_555 1_555
C24_11 C19_11 1_555 1_555
C25_11 C20_11 1_555 1_555
C26_11 C21_11 1_555 1_555
C29_11 C24_11 1_555 1_555
C30_11 C25_11 1_555 1_555
C31_11 C26_11 1_555 1_555
H14_11 C29_11 1_555 1_555
H15_11 C30_11 1_555 1_555
H16_11 C31_11 1_555 1_555
C34_11 C29_11 1_555 1_555
C35_11 C30_11 1_555 1_555
C36_11 C31_11 1_555 1_555
C39_11 C14_11 1_555 1_555
C40_11 C15_11 1_555 1_555
C41_11 C16_11 1_555 1_555
H19_11 C39_11 1_555 1_555
H20_11 C40_11 1_555 1_555
H21_11 C41_11 1_555 1_555
C44_11 C24_11 1_555 1_555
C45_11 C25_11 1_555 1_555
C46_11 O32_3 1_555 1_555
C49_11 O10_11 1_555 1_555
C50_11 C15_11 1_555 1_555
C51_11 C16_11 1_555 1_555
C54_11 O46_11 1_555 1_555
C55_11 O47_11 1_555 1_555
C56_11 O48_11 1_555 1_555
H24_11 C54_11 1_555 1_555
H25_11 C55_11 1_555 1_555
H26_11 C56_11 1_555 1_555
H29_11 C54_11 1_555 1_555
H30_11 C55_11 1_555 1_555
H31_11 C56_11 1_555 1_555
C59_11 C54_11 1_555 1_555
C60_11 C55_11 1_555 1_555
C61_11 C56_11 1_555 1_555
C64_11 C59_11 1_555 1_555
C65_11 C60_11 1_555 1_555
C66_11 C59_11 1_555 1_555
H34_11 C64_11 1_555 1_555
H35_11 C66_11 1_555 1_555
H36_11 C65_11 1_555 1_555
O17_11 C49_11 1_555 1_555
O43_3 C46_11 1_555 1_555
C14_11 C49_11 1_555 1_555
C26_11 C46_11 1_555 1_555
C34_11 C39_11 1_555 1_555
C35_11 C40_11 1_555 1_555
C36_11 C41_11 1_555 1_555
C60_11 C64_11 1_555 1_555
C61_11 C65_11 1_555 1_555
C61_11 C66_11 1_555 1_555
O6_21 H38_11 1_555 1_555
O7_21 H39_11 1_555 1_555
O7_21 H40_11 1_555 1_555
O14_6 Cu16_13 1_555 1_555
O21_6 Cu7_13 1_555 1_555
O50_21 Cu16_13 1_555 1_555
O52_21 Cu7_13 1_555 1_555
O52_21 H41_11 1_555 1_555
O52_21 H42_11 1_555 1_555
O50_21 H44_11 1_555 1_555
Cu6_4 O2_11 1_555 1_555
Cu15_4 O1_11 1_555 1_555
O1_11 C8_11 1_555 1_555
O2_11 C8_11 1_555 1_555
O3_11 C7_11 1_555 1_555
O4_11 C7_11 1_555 1_555
O5_11 C5_11 1_555 1_555
O6_22 Cu15_4 1_555 1_555
O7_22 Cu6_4 1_555 1_555
C1_11 C2_11 1_555 1_555
C2_11 H1_11 1_555 1_555
C3_11 C2_11 1_555 1_555
C4_11 C3_11 1_555 1_555
H2_11 C4_11 1_555 1_555
C5_11 C4_11 1_555 1_555
C6_11 C1_11 1_555 1_555
H3_11 C6_11 1_555 1_555
C7_11 C3_11 1_555 1_555
C8_11 C1_11 1_555 1_555
C9_11 O5_11 1_555 1_555
H4_11 C9_11 1_555 1_555
H5_11 C9_11 1_555 1_555
C10_11 C9_11 1_555 1_555
C11_11 C10_11 1_555 1_555
H6_11 C11_11 1_555 1_555
Cu9_6 O15_11 1_555 1_555
Cu7_14 O16_11 1_555 1_555
Cu8_6 O4_11 1_555 1_555
Cu18_6 O8_11 1_555 1_555
Cu16_14 O9_11 1_555 1_555
Cu17_6 O3_11 1_555 1_555
O8_11 C47_11 1_555 1_555
O9_11 C48_11 1_555 1_555
O15_11 C47_11 1_555 1_555
O16_11 C48_11 1_555 1_555
O27_7 C42_11 1_555 1_555
O31_3 C43_11 1_555 1_555
O29_11 Cu18_6 1_555 1_555
O30_11 Cu18_6 1_555 1_555
O38_7 C42_11 1_555 1_555
O42_3 C43_11 1_555 1_555
O40_11 Cu9_6 1_555 1_555
O41_11 Cu9_6 1_555 1_555
O44_11 C32_11 1_555 1_555
O45_11 C33_11 1_555 1_555
O49_11 Cu18_6 1_555 1_555
O50_22 Cu16_14 1_555 1_555
O51_11 Cu9_6 1_555 1_555
O52_22 Cu7_14 1_555 1_555
C12_11 C17_11 1_555 1_555
C13_11 C18_11 1_555 1_555
C17_11 H7_11 1_555 1_555
C18_11 H8_11 1_555 1_555
C22_11 C17_11 1_555 1_555
C23_11 C18_11 1_555 1_555
C27_11 C22_11 1_555 1_555
C28_11 C23_11 1_555 1_555
H12_11 C27_11 1_555 1_555
H13_11 C28_11 1_555 1_555
C32_11 C27_11 1_555 1_555
C33_11 C28_11 1_555 1_555
C37_11 C12_11 1_555 1_555
C38_11 C13_11 1_555 1_555
H17_11 C37_11 1_555 1_555
H18_11 C38_11 1_555 1_555
C42_11 C22_11 1_555 1_555
C43_11 C23_11 1_555 1_555
C47_11 C12_11 1_555 1_555
C48_11 C13_11 1_555 1_555
C52_11 O44_11 1_555 1_555
C53_11 O45_11 1_555 1_555
H22_11 C52_11 1_555 1_555
H23_11 C53_11 1_555 1_555
H27_11 C52_11 1_555 1_555
H28_11 C53_11 1_555 1_555
C57_11 C11_11 1_555 1_555
C58_11 C53_11 1_555 1_555
C62_11 C57_11 1_555 1_555
C63_11 C10_11 1_555 1_555
H32_11 C63_11 1_555 1_555
H33_11 C62_11 1_555 1_555
C5_11 C6_11 1_555 1_555
C32_11 C37_11 1_555 1_555
C33_11 C38_11 1_555 1_555
C52_11 C57_11 1_555 1_555
C58_11 C62_11 1_555 1_555
C58_11 C63_11 1_555 1_555
O6_22 H37_11 1_555 1_555
O50_22 H43_11 1_555 1_555
Cu6 O2_12 1_555 1_555
Cu15 O1_12 1_555 1_555
O1_12 C8_12 1_555 1_555
O2_12 C8_12 1_555 1_555
O3_12 C7_12 1_555 1_555
O4_12 C7_12 1_555 1_555
O5_12 C5_12 1_555 1_555
O6_23 Cu15 1_555 1_555
O7_23 Cu6 1_555 1_555
C1_12 C2_12 1_555 1_555
C2_12 H1_12 1_555 1_555
C3_12 C2_12 1_555 1_555
C4_12 C3_12 1_555 1_555
H2_12 C4_12 1_555 1_555
C5_12 C4_12 1_555 1_555
C6_12 C1_12 1_555 1_555
H3_12 C6_12 1_555 1_555
C7_12 C3_12 1_555 1_555
C8_12 C1_12 1_555 1_555
C9_12 O5_12 1_555 1_555
H4_12 C9_12 1_555 1_555
H5_12 C9_12 1_555 1_555
C10_12 C9_12 1_555 1_555
C11_12 C10_12 1_555 1_555
H6_12 C11_12 1_555 1_555
Cu9_5 O15_12 1_555 1_555
Cu7_11 O16_12 1_555 1_555
Cu8_5 O4_12 1_555 1_555
Cu18_5 O8_12 1_555 1_555
Cu16_11 O9_12 1_555 1_555
Cu17_5 O3_12 1_555 1_555
O8_12 C47_12 1_555 1_555
O9_12 C48_12 1_555 1_555
O15_12 C47_12 1_555 1_555
O16_12 C48_12 1_555 1_555
O27_6 C42_12 1_555 1_555
O31 C43_12 1_555 1_555
O29_12 Cu18_5 1_555 1_555
O30_12 Cu18_5 1_555 1_555
O38_6 C42_12 1_555 1_555
O42 C43_12 1_555 1_555
O40_12 Cu9_5 1_555 1_555
O41_12 Cu9_5 1_555 1_555
O44_12 C32_12 1_555 1_555
O45_12 C33_12 1_555 1_555
O49_12 Cu18_5 1_555 1_555
O50_23 Cu16_11 1_555 1_555
O51_12 Cu9_5 1_555 1_555
O52_23 Cu7_11 1_555 1_555
C12_12 C17_12 1_555 1_555
C13_12 C18_12 1_555 1_555
C17_12 H7_12 1_555 1_555
C18_12 H8_12 1_555 1_555
C22_12 C17_12 1_555 1_555
C23_12 C18_12 1_555 1_555
C27_12 C22_12 1_555 1_555
C28_12 C23_12 1_555 1_555
H12_12 C27_12 1_555 1_555
H13_12 C28_12 1_555 1_555
C32_12 C27_12 1_555 1_555
C33_12 C28_12 1_555 1_555
C37_12 C12_12 1_555 1_555
C38_12 C13_12 1_555 1_555
H17_12 C37_12 1_555 1_555
H18_12 C38_12 1_555 1_555
C42_12 C22_12 1_555 1_555
C43_12 C23_12 1_555 1_555
C47_12 C12_12 1_555 1_555
C48_12 C13_12 1_555 1_555
C52_12 O44_12 1_555 1_555
C53_12 O45_12 1_555 1_555
H22_12 C52_12 1_555 1_555
H23_12 C53_12 1_555 1_555
H27_12 C52_12 1_555 1_555
H28_12 C53_12 1_555 1_555
C57_12 C11_12 1_555 1_555
C58_12 C53_12 1_555 1_555
C62_12 C57_12 1_555 1_555
C63_12 C10_12 1_555 1_555
H32_12 C63_12 1_555 1_555
H33_12 C62_12 1_555 1_555
C5_12 C6_12 1_555 1_555
C32_12 C37_12 1_555 1_555
C33_12 C38_12 1_555 1_555
C52_12 C57_12 1_555 1_555
C58_12 C62_12 1_555 1_555
C58_12 C63_12 1_555 1_555
O6_23 H37_12 1_555 1_555
O50_23 H43_12 1_555 1_555
O50_24 Cu16_12 1_555 1_555
O52_24 Cu7_12 1_555 1_555
O52_24 H41_12 1_555 1_555
O52_24 H42_12 1_555 1_555
O50_24 H44_12 1_555 1_555
O6_24 Cu15_2 1_555 1_555
O7_24 Cu6_2 1_555 1_555
Cu5_5 O35_12 1_555 1_555
Cu14_5 O24_12 1_555 1_555
O10_12 Cu15_2 1_555 1_555
O13_5 C50_12 1_555 1_555
O14_6 C51_12 1_555 1_555
O17_12 Cu6_2 1_555 1_555
O20_5 C50_12 1_555 1_555
O21_6 C51_12 1_555 1_555
O24_12 C44_12 1_555 1_555
O28_7 C45_12 1_555 1_555
O35_12 C44_12 1_555 1_555
O39_7 C45_12 1_555 1_555
O46_12 C34_12 1_555 1_555
O47_12 C35_12 1_555 1_555
O48_12 C36_12 1_555 1_555
C14_12 C19_12 1_555 1_555
C15_12 C20_12 1_555 1_555
C16_12 C21_12 1_555 1_555
C19_12 H9_12 1_555 1_555
C20_12 H10_12 1_555 1_555
C21_12 H11_12 1_555 1_555
C24_12 C19_12 1_555 1_555
C25_12 C20_12 1_555 1_555
C26_12 C21_12 1_555 1_555
C29_12 C24_12 1_555 1_555
C30_12 C25_12 1_555 1_555
C31_12 C26_12 1_555 1_555
H14_12 C29_12 1_555 1_555
H15_12 C30_12 1_555 1_555
H16_12 C31_12 1_555 1_555
C34_12 C29_12 1_555 1_555
C35_12 C30_12 1_555 1_555
C36_12 C31_12 1_555 1_555
C39_12 C14_12 1_555 1_555
C40_12 C15_12 1_555 1_555
C41_12 C16_12 1_555 1_555
H19_12 C39_12 1_555 1_555
H20_12 C40_12 1_555 1_555
H21_12 C41_12 1_555 1_555
C44_12 C24_12 1_555 1_555
C45_12 C25_12 1_555 1_555
C46_12 O32 1_555 1_555
C49_12 O10_12 1_555 1_555
C50_12 C15_12 1_555 1_555
C51_12 C16_12 1_555 1_555
C54_12 O46_12 1_555 1_555
C55_12 O47_12 1_555 1_555
C56_12 O48_12 1_555 1_555
H24_12 C54_12 1_555 1_555
H25_12 C55_12 1_555 1_555
H26_12 C56_12 1_555 1_555
H29_12 C54_12 1_555 1_555
H30_12 C55_12 1_555 1_555
H31_12 C56_12 1_555 1_555
C59_12 C54_12 1_555 1_555
C60_12 C55_12 1_555 1_555
C61_12 C56_12 1_555 1_555
C64_12 C59_12 1_555 1_555
C65_12 C60_12 1_555 1_555
C66_12 C59_12 1_555 1_555
H34_12 C64_12 1_555 1_555
H35_12 C66_12 1_555 1_555
H36_12 C65_12 1_555 1_555
O17_12 C49_12 1_555 1_555
O43 C46_12 1_555 1_555
C14_12 C49_12 1_555 1_555
C26_12 C46_12 1_555 1_555
C34_12 C39_12 1_555 1_555
C35_12 C40_12 1_555 1_555
C36_12 C41_12 1_555 1_555
C60_12 C64_12 1_555 1_555
C61_12 C65_12 1_555 1_555
C61_12 C66_12 1_555 1_555
O6_24 H38_12 1_555 1_555
O7_24 H39_12 1_555 1_555
O7_24 H40_12 1_555 1_555
Cu5 O2_13 1_555 1_555
Cu14 O1_13 1_555 1_555
O1_13 C8_13 1_555 1_555
O2_13 C8_13 1_555 1_555
O29_6 C7_13 1_555 1_555
O40_6 C7_13 1_555 1_555
O5_13 C5_13 1_555 1_555
O6_25 Cu14 1_555 1_555
O7_25 Cu5 1_555 1_555
C1_13 C2_13 1_555 1_555
C2_13 H1_13 1_555 1_555
C3_13 C2_13 1_555 1_555
C4_13 C3_13 1_555 1_555
H2_13 C4_13 1_555 1_555
C5_13 C4_13 1_555 1_555
C6_13 C1_13 1_555 1_555
H3_13 C6_13 1_555 1_555
C7_13 C3_13 1_555 1_555
C8_13 C1_13 1_555 1_555
C9_13 O5_13 1_555 1_555
H4_13 C9_13 1_555 1_555
H5_13 C9_13 1_555 1_555
C10_13 C9_13 1_555 1_555
C11_13 C10_13 1_555 1_555
H6_13 C11_13 1_555 1_555
Cu5_4 O15_13 1_555 1_555
Cu8_5 O16_13 1_555 1_555
Cu8_4 O18_7 1_555 1_555
Cu5_6 O19_7 1_555 1_555
Cu14_4 O8_13 1_555 1_555
Cu17_5 O9_13 1_555 1_555
Cu17_4 O11_7 1_555 1_555
Cu14_6 O12_7 1_555 1_555
O8_13 C47_13 1_555 1_555
O9_13 C48_13 1_555 1_555
O10_13 Cu14 1_555 1_555
O11_7 C50_13 1_555 1_555
O12_7 C51_13 1_555 1_555
O13_7 Cu14_4 1_555 1_555
O14_7 Cu17_5 1_555 1_555
O15_13 C47_13 1_555 1_555
O16_13 C48_13 1_555 1_555
O17_13 Cu5 1_555 1_555
O18_7 C50_13 1_555 1_555
O19_7 C51_13 1_555 1_555
O20_7 Cu5_4 1_555 1_555
O21_7 Cu8_5 1_555 1_555
O29_12 C42_13 1_555 1_555
O29 C43_13 1_555 1_555
O30_7 C44_13 1_555 1_555
O30_10 C45_13 1_555 1_555
O40_12 C42_13 1_555 1_555
O40 C43_13 1_555 1_555
O41_7 C44_13 1_555 1_555
O41_10 C45_13 1_555 1_555
O44_13 C32_13 1_555 1_555
O45_13 C33_13 1_555 1_555
O46_13 C34_13 1_555 1_555
O47_13 C35_13 1_555 1_555
O48_13 C36_13 1_555 1_555
O49_13 Cu14_4 1_555 1_555
O50_25 Cu17_5 1_555 1_555
O51_13 Cu5_4 1_555 1_555
O52_25 Cu8_5 1_555 1_555
C12_13 C17_13 1_555 1_555
C13_13 C18_13 1_555 1_555
C14_13 C19_13 1_555 1_555
C15_13 C20_13 1_555 1_555
C16_13 C21_13 1_555 1_555
C17_13 H7_13 1_555 1_555
C18_13 H8_13 1_555 1_555
C19_13 H9_13 1_555 1_555
C20_13 H10_13 1_555 1_555
C21_13 H11_13 1_555 1_555
C22_13 C17_13 1_555 1_555
C23_13 C18_13 1_555 1_555
C24_13 C19_13 1_555 1_555
C25_13 C20_13 1_555 1_555
C26_13 C21_13 1_555 1_555
C27_13 C22_13 1_555 1_555
C28_13 C23_13 1_555 1_555
C29_13 C24_13 1_555 1_555
C30_13 C25_13 1_555 1_555
C31_13 C26_13 1_555 1_555
H12_13 C27_13 1_555 1_555
H13_13 C28_13 1_555 1_555
H14_13 C29_13 1_555 1_555
H15_13 C30_13 1_555 1_555
H16_13 C31_13 1_555 1_555
C32_13 C27_13 1_555 1_555
C33_13 C28_13 1_555 1_555
C34_13 C29_13 1_555 1_555
C35_13 C30_13 1_555 1_555
C36_13 C31_13 1_555 1_555
C37_13 C12_13 1_555 1_555
C38_13 C13_13 1_555 1_555
C39_13 C14_13 1_555 1_555
C40_13 C15_13 1_555 1_555
C41_13 C16_13 1_555 1_555
H17_13 C37_13 1_555 1_555
H18_13 C38_13 1_555 1_555
H19_13 C39_13 1_555 1_555
H20_13 C40_13 1_555 1_555
H21_13 C41_13 1_555 1_555
C42_13 C22_13 1_555 1_555
C43_13 C23_13 1_555 1_555
C44_13 C24_13 1_555 1_555
C45_13 C25_13 1_555 1_555
C46_13 O30 1_555 1_555
C47_13 C12_13 1_555 1_555
C48_13 C13_13 1_555 1_555
C49_13 O10_13 1_555 1_555
C50_13 C15_13 1_555 1_555
C51_13 C16_13 1_555 1_555
C52_13 O44_13 1_555 1_555
C53_13 O45_13 1_555 1_555
C54_13 O46_13 1_555 1_555
C55_13 O47_13 1_555 1_555
C56_13 O48_13 1_555 1_555
H22_13 C52_13 1_555 1_555
H23_13 C53_13 1_555 1_555
H24_13 C54_13 1_555 1_555
H25_13 C55_13 1_555 1_555
H26_13 C56_13 1_555 1_555
H27_13 C52_13 1_555 1_555
H28_13 C53_13 1_555 1_555
H29_13 C54_13 1_555 1_555
H30_13 C55_13 1_555 1_555
H31_13 C56_13 1_555 1_555
C57_13 C11_13 1_555 1_555
C58_13 C53_13 1_555 1_555
C59_13 C54_13 1_555 1_555
C60_13 C55_13 1_555 1_555
C61_13 C56_13 1_555 1_555
C62_13 C57_13 1_555 1_555
C63_13 C10_13 1_555 1_555
C64_13 C59_13 1_555 1_555
C65_13 C60_13 1_555 1_555
C66_13 C59_13 1_555 1_555
H32_13 C63_13 1_555 1_555
H33_13 C62_13 1_555 1_555
H34_13 C64_13 1_555 1_555
H35_13 C66_13 1_555 1_555
H36_13 C65_13 1_555 1_555
C5_13 C6_13 1_555 1_555
O17_13 C49_13 1_555 1_555
O41 C46_13 1_555 1_555
C14_13 C49_13 1_555 1_555
C26_13 C46_13 1_555 1_555
C32_13 C37_13 1_555 1_555
C33_13 C38_13 1_555 1_555
C34_13 C39_13 1_555 1_555
C35_13 C40_13 1_555 1_555
C36_13 C41_13 1_555 1_555
C52_13 C57_13 1_555 1_555
C58_13 C62_13 1_555 1_555
C58_13 C63_13 1_555 1_555
C60_13 C64_13 1_555 1_555
C61_13 C65_13 1_555 1_555
C61_13 C66_13 1_555 1_555
Cu8 O2_14 1_555 1_555
Cu17 O1_14 1_555 1_555
O1_14 C8_14 1_555 1_555
O2_14 C8_14 1_555 1_555
O29_5 C7_14 1_555 1_555
O40_5 C7_14 1_555 1_555
O5_14 C5_14 1_555 1_555
O6_26 Cu17 1_555 1_555
O7_26 Cu8 1_555 1_555
C1_14 C2_14 1_555 1_555
C2_14 H1_14 1_555 1_555
C3_14 C2_14 1_555 1_555
C4_14 C3_14 1_555 1_555
H2_14 C4_14 1_555 1_555
C5_14 C4_14 1_555 1_555
C6_14 C1_14 1_555 1_555
H3_14 C6_14 1_555 1_555
C7_14 C3_14 1_555 1_555
C8_14 C1_14 1_555 1_555
C9_14 O5_14 1_555 1_555
H4_14 C9_14 1_555 1_555
H5_14 C9_14 1_555 1_555
C10_14 C9_14 1_555 1_555
C11_14 C10_14 1_555 1_555
H6_14 C11_14 1_555 1_555
Cu5_3 O15_14 1_555 1_555
Cu5_6 O16_14 1_555 1_555
Cu8_3 O18_8 1_555 1_555
Cu14_3 O8_14 1_555 1_555
Cu14_6 O9_14 1_555 1_555
Cu17_3 O11_8 1_555 1_555
O8_14 C47_14 1_555 1_555
O9_14 C48_14 1_555 1_555
O10_14 Cu17 1_555 1_555
O11_8 C50_14 1_555 1_555
O14_7 C51_14 1_555 1_555
O13_8 Cu14_3 1_555 1_555
O15_14 C47_14 1_555 1_555
O16_14 C48_14 1_555 1_555
O17_14 Cu8 1_555 1_555
O18_8 C50_14 1_555 1_555
O21_7 C51_14 1_555 1_555
O20_8 Cu5_3 1_555 1_555
O29_10 C42_14 1_555 1_555
O29_4 C43_14 1_555 1_555
O30_8 C44_14 1_555 1_555
O30_12 C45_14 1_555 1_555
O40_10 C42_14 1_555 1_555
O40_4 C43_14 1_555 1_555
O41_8 C44_14 1_555 1_555
O41_12 C45_14 1_555 1_555
O44_14 C32_14 1_555 1_555
O45_14 C33_14 1_555 1_555
O46_14 C34_14 1_555 1_555
O47_14 C35_14 1_555 1_555
O48_14 C36_14 1_555 1_555
O49_14 Cu14_3 1_555 1_555
O50_26 Cu14_6 1_555 1_555
O51_14 Cu5_3 1_555 1_555
O52_26 Cu5_6 1_555 1_555
C12_14 C17_14 1_555 1_555
C13_14 C18_14 1_555 1_555
C14_14 C19_14 1_555 1_555
C15_14 C20_14 1_555 1_555
C16_14 C21_14 1_555 1_555
C17_14 H7_14 1_555 1_555
C18_14 H8_14 1_555 1_555
C19_14 H9_14 1_555 1_555
C20_14 H10_14 1_555 1_555
C21_14 H11_14 1_555 1_555
C22_14 C17_14 1_555 1_555
C23_14 C18_14 1_555 1_555
C24_14 C19_14 1_555 1_555
C25_14 C20_14 1_555 1_555
C26_14 C21_14 1_555 1_555
C27_14 C22_14 1_555 1_555
C28_14 C23_14 1_555 1_555
C29_14 C24_14 1_555 1_555
C30_14 C25_14 1_555 1_555
C31_14 C26_14 1_555 1_555
H12_14 C27_14 1_555 1_555
H13_14 C28_14 1_555 1_555
H14_14 C29_14 1_555 1_555
H15_14 C30_14 1_555 1_555
H16_14 C31_14 1_555 1_555
C32_14 C27_14 1_555 1_555
C33_14 C28_14 1_555 1_555
C34_14 C29_14 1_555 1_555
C35_14 C30_14 1_555 1_555
C36_14 C31_14 1_555 1_555
C37_14 C12_14 1_555 1_555
C38_14 C13_14 1_555 1_555
C39_14 C14_14 1_555 1_555
C40_14 C15_14 1_555 1_555
C41_14 C16_14 1_555 1_555
H17_14 C37_14 1_555 1_555
H18_14 C38_14 1_555 1_555
H19_14 C39_14 1_555 1_555
H20_14 C40_14 1_555 1_555
H21_14 C41_14 1_555 1_555
C42_14 C22_14 1_555 1_555
C43_14 C23_14 1_555 1_555
C44_14 C24_14 1_555 1_555
C45_14 C25_14 1_555 1_555
C46_14 O30_4 1_555 1_555
C47_14 C12_14 1_555 1_555
C48_14 C13_14 1_555 1_555
C49_14 O10_14 1_555 1_555
C50_14 C15_14 1_555 1_555
C51_14 C16_14 1_555 1_555
C52_14 O44_14 1_555 1_555
C53_14 O45_14 1_555 1_555
C54_14 O46_14 1_555 1_555
C55_14 O47_14 1_555 1_555
C56_14 O48_14 1_555 1_555
H22_14 C52_14 1_555 1_555
H23_14 C53_14 1_555 1_555
H24_14 C54_14 1_555 1_555
H25_14 C55_14 1_555 1_555
H26_14 C56_14 1_555 1_555
H27_14 C52_14 1_555 1_555
H28_14 C53_14 1_555 1_555
H29_14 C54_14 1_555 1_555
H30_14 C55_14 1_555 1_555
H31_14 C56_14 1_555 1_555
C57_14 C11_14 1_555 1_555
C58_14 C53_14 1_555 1_555
C59_14 C54_14 1_555 1_555
C60_14 C55_14 1_555 1_555
C61_14 C56_14 1_555 1_555
C62_14 C57_14 1_555 1_555
C63_14 C10_14 1_555 1_555
C64_14 C59_14 1_555 1_555
C65_14 C60_14 1_555 1_555
C66_14 C59_14 1_555 1_555
H32_14 C63_14 1_555 1_555
H33_14 C62_14 1_555 1_555
H34_14 C64_14 1_555 1_555
H35_14 C66_14 1_555 1_555
H36_14 C65_14 1_555 1_555
C5_14 C6_14 1_555 1_555
O17_14 C49_14 1_555 1_555
O41_4 C46_14 1_555 1_555
C14_14 C49_14 1_555 1_555
C26_14 C46_14 1_555 1_555
C32_14 C37_14 1_555 1_555
C33_14 C38_14 1_555 1_555
C34_14 C39_14 1_555 1_555
C35_14 C40_14 1_555 1_555
C36_14 C41_14 1_555 1_555
C52_14 C57_14 1_555 1_555
C58_14 C62_14 1_555 1_555
C58_14 C63_14 1_555 1_555
C60_14 C64_14 1_555 1_555
C61_14 C65_14 1_555 1_555
C61_14 C66_14 1_555 1_555
Cu5_2 O2_15 1_555 1_555
Cu14_2 O1_15 1_555 1_555
O1_15 C8_15 1_555 1_555
O2_15 C8_15 1_555 1_555
O29_8 C7_15 1_555 1_555
O40_8 C7_15 1_555 1_555
O5_15 C5_15 1_555 1_555
O6_27 Cu14_2 1_555 1_555
O7_27 Cu5_2 1_555 1_555
C1_15 C2_15 1_555 1_555
C2_15 H1_15 1_555 1_555
C3_15 C2_15 1_555 1_555
C4_15 C3_15 1_555 1_555
H2_15 C4_15 1_555 1_555
C5_15 C4_15 1_555 1_555
C6_15 C1_15 1_555 1_555
H3_15 C6_15 1_555 1_555
C7_15 C3_15 1_555 1_555
C8_15 C1_15 1_555 1_555
C9_15 O5_15 1_555 1_555
H4_15 C9_15 1_555 1_555
H5_15 C9_15 1_555 1_555
C10_15 C9_15 1_555 1_555
C11_15 C10_15 1_555 1_555
H6_15 C11_15 1_555 1_555
Cu8_3 O15_15 1_555 1_555
Cu5_5 O16_15 1_555 1_555
Cu8_6 O19_8 1_555 1_555
Cu17_3 O8_15 1_555 1_555
Cu14_5 O9_15 1_555 1_555
Cu17_6 O12_8 1_555 1_555
O8_15 C47_15 1_555 1_555
O9_15 C48_15 1_555 1_555
O10_15 Cu14_2 1_555 1_555
O13_8 C50_15 1_555 1_555
O12_8 C51_15 1_555 1_555
O14_8 Cu14_5 1_555 1_555
O15_15 C47_15 1_555 1_555
O16_15 C48_15 1_555 1_555
O17_15 Cu5_2 1_555 1_555
O20_8 C50_15 1_555 1_555
O19_8 C51_15 1_555 1_555
O21_8 Cu5_5 1_555 1_555
O29_9 C42_15 1_555 1_555
O29_2 C43_15 1_555 1_555
O30_5 C44_15 1_555 1_555
O30_11 C45_15 1_555 1_555
O40_9 C42_15 1_555 1_555
O40_2 C43_15 1_555 1_555
O41_5 C44_15 1_555 1_555
O41_11 C45_15 1_555 1_555
O44_15 C32_15 1_555 1_555
O45_15 C33_15 1_555 1_555
O46_15 C34_15 1_555 1_555
O47_15 C35_15 1_555 1_555
O48_15 C36_15 1_555 1_555
O49_15 Cu17_3 1_555 1_555
O50_27 Cu14_5 1_555 1_555
O51_15 Cu8_3 1_555 1_555
O52_27 Cu5_5 1_555 1_555
C12_15 C17_15 1_555 1_555
C13_15 C18_15 1_555 1_555
C14_15 C19_15 1_555 1_555
C15_15 C20_15 1_555 1_555
C16_15 C21_15 1_555 1_555
C17_15 H7_15 1_555 1_555
C18_15 H8_15 1_555 1_555
C19_15 H9_15 1_555 1_555
C20_15 H10_15 1_555 1_555
C21_15 H11_15 1_555 1_555
C22_15 C17_15 1_555 1_555
C23_15 C18_15 1_555 1_555
C24_15 C19_15 1_555 1_555
C25_15 C20_15 1_555 1_555
C26_15 C21_15 1_555 1_555
C27_15 C22_15 1_555 1_555
C28_15 C23_15 1_555 1_555
C29_15 C24_15 1_555 1_555
C30_15 C25_15 1_555 1_555
C31_15 C26_15 1_555 1_555
H12_15 C27_15 1_555 1_555
H13_15 C28_15 1_555 1_555
H14_15 C29_15 1_555 1_555
H15_15 C30_15 1_555 1_555
H16_15 C31_15 1_555 1_555
C32_15 C27_15 1_555 1_555
C33_15 C28_15 1_555 1_555
C34_15 C29_15 1_555 1_555
C35_15 C30_15 1_555 1_555
C36_15 C31_15 1_555 1_555
C37_15 C12_15 1_555 1_555
C38_15 C13_15 1_555 1_555
C39_15 C14_15 1_555 1_555
C40_15 C15_15 1_555 1_555
C41_15 C16_15 1_555 1_555
H17_15 C37_15 1_555 1_555
H18_15 C38_15 1_555 1_555
H19_15 C39_15 1_555 1_555
H20_15 C40_15 1_555 1_555
H21_15 C41_15 1_555 1_555
C42_15 C22_15 1_555 1_555
C43_15 C23_15 1_555 1_555
C44_15 C24_15 1_555 1_555
C45_15 C25_15 1_555 1_555
C46_15 O30_2 1_555 1_555
C47_15 C12_15 1_555 1_555
C48_15 C13_15 1_555 1_555
C49_15 O10_15 1_555 1_555
C50_15 C15_15 1_555 1_555
C51_15 C16_15 1_555 1_555
C52_15 O44_15 1_555 1_555
C53_15 O45_15 1_555 1_555
C54_15 O46_15 1_555 1_555
C55_15 O47_15 1_555 1_555
C56_15 O48_15 1_555 1_555
H22_15 C52_15 1_555 1_555
H23_15 C53_15 1_555 1_555
H24_15 C54_15 1_555 1_555
H25_15 C55_15 1_555 1_555
H26_15 C56_15 1_555 1_555
H27_15 C52_15 1_555 1_555
H28_15 C53_15 1_555 1_555
H29_15 C54_15 1_555 1_555
H30_15 C55_15 1_555 1_555
H31_15 C56_15 1_555 1_555
C57_15 C11_15 1_555 1_555
C58_15 C53_15 1_555 1_555
C59_15 C54_15 1_555 1_555
C60_15 C55_15 1_555 1_555
C61_15 C56_15 1_555 1_555
C62_15 C57_15 1_555 1_555
C63_15 C10_15 1_555 1_555
C64_15 C59_15 1_555 1_555
C65_15 C60_15 1_555 1_555
C66_15 C59_15 1_555 1_555
H32_15 C63_15 1_555 1_555
H33_15 C62_15 1_555 1_555
H34_15 C64_15 1_555 1_555
H35_15 C66_15 1_555 1_555
H36_15 C65_15 1_555 1_555
C5_15 C6_15 1_555 1_555
O17_15 C49_15 1_555 1_555
O41_2 C46_15 1_555 1_555
C14_15 C49_15 1_555 1_555
C26_15 C46_15 1_555 1_555
C32_15 C37_15 1_555 1_555
C33_15 C38_15 1_555 1_555
C34_15 C39_15 1_555 1_555
C35_15 C40_15 1_555 1_555
C36_15 C41_15 1_555 1_555
C52_15 C57_15 1_555 1_555
C58_15 C62_15 1_555 1_555
C58_15 C63_15 1_555 1_555
C60_15 C64_15 1_555 1_555
C61_15 C65_15 1_555 1_555
C61_15 C66_15 1_555 1_555
Cu8_2 O2_16 1_555 1_555
Cu17_2 O1_16 1_555 1_555
O1_16 C8_16 1_555 1_555
O2_16 C8_16 1_555 1_555
O29_7 C7_16 1_555 1_555
O40_7 C7_16 1_555 1_555
O5_16 C5_16 1_555 1_555
O6_28 Cu17_2 1_555 1_555
O7_28 Cu8_2 1_555 1_555
C1_16 C2_16 1_555 1_555
C2_16 H1_16 1_555 1_555
C3_16 C2_16 1_555 1_555
C4_16 C3_16 1_555 1_555
H2_16 C4_16 1_555 1_555
C5_16 C4_16 1_555 1_555
C6_16 C1_16 1_555 1_555
H3_16 C6_16 1_555 1_555
C7_16 C3_16 1_555 1_555
C8_16 C1_16 1_555 1_555
C9_16 O5_16 1_555 1_555
H4_16 C9_16 1_555 1_555
H5_16 C9_16 1_555 1_555
C10_16 C9_16 1_555 1_555
C11_16 C10_16 1_555 1_555
H6_16 C11_16 1_555 1_555
Cu8_4 O15_16 1_555 1_555
Cu8_6 O16_16 1_555 1_555
Cu17_4 O8_16 1_555 1_555
Cu17_6 O9_16 1_555 1_555
O8_16 C47_16 1_555 1_555
O9_16 C48_16 1_555 1_555
O10_16 Cu17_2 1_555 1_555
O13_7 C50_16 1_555 1_555
O14_8 C51_16 1_555 1_555
O15_16 C47_16 1_555 1_555
O16_16 C48_16 1_555 1_555
O17_16 Cu8_2 1_555 1_555
O20_7 C50_16 1_555 1_555
O21_8 C51_16 1_555 1_555
O29_11 C42_16 1_555 1_555
O29_3 C43_16 1_555 1_555
O30_6 C44_16 1_555 1_555
O30_9 C45_16 1_555 1_555
O40_11 C42_16 1_555 1_555
O40_3 C43_16 1_555 1_555
O41_6 C44_16 1_555 1_555
O41_9 C45_16 1_555 1_555
O44_16 C32_16 1_555 1_555
O45_16 C33_16 1_555 1_555
O46_16 C34_16 1_555 1_555
O47_16 C35_16 1_555 1_555
O48_16 C36_16 1_555 1_555
O49_16 Cu17_4 1_555 1_555
O50_28 Cu17_6 1_555 1_555
O51_16 Cu8_4 1_555 1_555
O52_28 Cu8_6 1_555 1_555
C12_16 C17_16 1_555 1_555
C13_16 C18_16 1_555 1_555
C14_16 C19_16 1_555 1_555
C15_16 C20_16 1_555 1_555
C16_16 C21_16 1_555 1_555
C17_16 H7_16 1_555 1_555
C18_16 H8_16 1_555 1_555
C19_16 H9_16 1_555 1_555
C20_16 H10_16 1_555 1_555
C21_16 H11_16 1_555 1_555
C22_16 C17_16 1_555 1_555
C23_16 C18_16 1_555 1_555
C24_16 C19_16 1_555 1_555
C25_16 C20_16 1_555 1_555
C26_16 C21_16 1_555 1_555
C27_16 C22_16 1_555 1_555
C28_16 C23_16 1_555 1_555
C29_16 C24_16 1_555 1_555
C30_16 C25_16 1_555 1_555
C31_16 C26_16 1_555 1_555
H12_16 C27_16 1_555 1_555
H13_16 C28_16 1_555 1_555
H14_16 C29_16 1_555 1_555
H15_16 C30_16 1_555 1_555
H16_16 C31_16 1_555 1_555
C32_16 C27_16 1_555 1_555
C33_16 C28_16 1_555 1_555
C34_16 C29_16 1_555 1_555
C35_16 C30_16 1_555 1_555
C36_16 C31_16 1_555 1_555
C37_16 C12_16 1_555 1_555
C38_16 C13_16 1_555 1_555
C39_16 C14_16 1_555 1_555
C40_16 C15_16 1_555 1_555
C41_16 C16_16 1_555 1_555
H17_16 C37_16 1_555 1_555
H18_16 C38_16 1_555 1_555
H19_16 C39_16 1_555 1_555
H20_16 C40_16 1_555 1_555
H21_16 C41_16 1_555 1_555
C42_16 C22_16 1_555 1_555
C43_16 C23_16 1_555 1_555
C44_16 C24_16 1_555 1_555
C45_16 C25_16 1_555 1_555
C46_16 O30_3 1_555 1_555
C47_16 C12_16 1_555 1_555
C48_16 C13_16 1_555 1_555
C49_16 O10_16 1_555 1_555
C50_16 C15_16 1_555 1_555
C51_16 C16_16 1_555 1_555
C52_16 O44_16 1_555 1_555
C53_16 O45_16 1_555 1_555
C54_16 O46_16 1_555 1_555
C55_16 O47_16 1_555 1_555
C56_16 O48_16 1_555 1_555
H22_16 C52_16 1_555 1_555
H23_16 C53_16 1_555 1_555
H24_16 C54_16 1_555 1_555
H25_16 C55_16 1_555 1_555
H26_16 C56_16 1_555 1_555
H27_16 C52_16 1_555 1_555
H28_16 C53_16 1_555 1_555
H29_16 C54_16 1_555 1_555
H30_16 C55_16 1_555 1_555
H31_16 C56_16 1_555 1_555
C57_16 C11_16 1_555 1_555
C58_16 C53_16 1_555 1_555
C59_16 C54_16 1_555 1_555
C60_16 C55_16 1_555 1_555
C61_16 C56_16 1_555 1_555
C62_16 C57_16 1_555 1_555
C63_16 C10_16 1_555 1_555
C64_16 C59_16 1_555 1_555
C65_16 C60_16 1_555 1_555
C66_16 C59_16 1_555 1_555
H32_16 C63_16 1_555 1_555
H33_16 C62_16 1_555 1_555
H34_16 C64_16 1_555 1_555
H35_16 C66_16 1_555 1_555
H36_16 C65_16 1_555 1_555
C5_16 C6_16 1_555 1_555
O17_16 C49_16 1_555 1_555
O41_3 C46_16 1_555 1_555
C14_16 C49_16 1_555 1_555
C26_16 C46_16 1_555 1_555
C32_16 C37_16 1_555 1_555
C33_16 C38_16 1_555 1_555
C34_16 C39_16 1_555 1_555
C35_16 C40_16 1_555 1_555
C36_16 C41_16 1_555 1_555
C52_16 C57_16 1_555 1_555
C58_16 C62_16 1_555 1_555
C58_16 C63_16 1_555 1_555
C60_16 C64_16 1_555 1_555
C61_16 C65_16 1_555 1_555
C61_16 C66_16 1_555 1_555
O52_7 H41_13 1_555 1_555
O52_7 H42_13 1_555 1_555
O50_7 H44_13 1_555 1_555
O6_5 H37_13 1_555 1_555
O50_8 H43_13 1_555 1_555
O6_6 H38_13 1_555 1_555
O7_6 H39_13 1_555 1_555
O7_6 H40_13 1_555 1_555
O6_7 H38_14 1_555 1_555
O7_7 H39_14 1_555 1_555
O7_7 H40_14 1_555 1_555
O6_8 H37_14 1_555 1_555
O50_5 H43_14 1_555 1_555
O52_6 H41_14 1_555 1_555
O52_6 H42_14 1_555 1_555
O50_6 H44_14 1_555 1_555
O6 H37_15 1_555 1_555
O50_3 H43_15 1_555 1_555
O6_2 H38_15 1_555 1_555
O7_2 H39_15 1_555 1_555
O7_2 H40_15 1_555 1_555
O52_4 H41_15 1_555 1_555
O52_4 H42_15 1_555 1_555
O50_4 H44_15 1_555 1_555
O52 H41_16 1_555 1_555
O52 H42_16 1_555 1_555
O50 H44_16 1_555 1_555
O6_3 H38_16 1_555 1_555
O7_3 H39_16 1_555 1_555
O7_3 H40_16 1_555 1_555
O6_4 H37_16 1_555 1_555
O50_2 H43_16 1_555 1_555
O52_15 H41_17 1_555 1_555
O52_15 H42_17 1_555 1_555
O50_15 H44_17 1_555 1_555
O6_13 H37_17 1_555 1_555
O50_16 H43_17 1_555 1_555
O6_14 H38_17 1_555 1_555
O7_14 H39_17 1_555 1_555
O7_14 H40_17 1_555 1_555
O6_15 H38_18 1_555 1_555
O7_15 H39_18 1_555 1_555
O7_15 H40_18 1_555 1_555
O6_16 H37_18 1_555 1_555
O50_13 H43_18 1_555 1_555
O52_14 H41_18 1_555 1_555
O52_14 H42_18 1_555 1_555
O50_14 H44_18 1_555 1_555
O6_9 H37_19 1_555 1_555
O50_11 H43_19 1_555 1_555
O6_10 H38_19 1_555 1_555
O7_10 H39_19 1_555 1_555
O7_10 H40_19 1_555 1_555
O52_12 H41_19 1_555 1_555
O52_12 H42_19 1_555 1_555
O50_12 H44_19 1_555 1_555
O52_9 H41_20 1_555 1_555
O52_9 H42_20 1_555 1_555
O50_9 H44_20 1_555 1_555
O6_11 H38_20 1_555 1_555
O7_11 H39_20 1_555 1_555
O7_11 H40_20 1_555 1_555
O6_12 H37_20 1_555 1_555
O50_10 H43_20 1_555 1_555
O52_23 H41_21 1_555 1_555
O52_23 H42_21 1_555 1_555
O50_23 H44_21 1_555 1_555
O6_21 H37_21 1_555 1_555
O50_24 H43_21 1_555 1_555
O6_22 H38_21 1_555 1_555
O7_22 H39_21 1_555 1_555
O7_22 H40_21 1_555 1_555
O6_23 H38_22 1_555 1_555
O7_23 H39_22 1_555 1_555
O7_23 H40_22 1_555 1_555
O6_24 H37_22 1_555 1_555
O50_21 H43_22 1_555 1_555
O52_22 H41_22 1_555 1_555
O52_22 H42_22 1_555 1_555
O50_22 H44_22 1_555 1_555
O6_17 H37_23 1_555 1_555
O50_19 H43_23 1_555 1_555
O52_20 H41_23 1_555 1_555
O52_20 H42_23 1_555 1_555
O50_20 H44_23 1_555 1_555
O6_18 H38_23 1_555 1_555
O7_18 H39_23 1_555 1_555
O7_18 H40_23 1_555 1_555
O6_19 H38_24 1_555 1_555
O7_19 H39_24 1_555 1_555
O7_19 H40_24 1_555 1_555
O52_17 H41_24 1_555 1_555
O52_17 H42_24 1_555 1_555
O50_17 H44_24 1_555 1_555
O6_20 H37_24 1_555 1_555
O50_18 H43_24 1_555 1_555

#END
