
###############################################################################
#
# This file contains modified crystal structure data generated from the
# MOF subset of the Cambridge Structural Database (CSD) v543 
# hosted by the Cambridge Crystallographic Data Centre (CCDC).
#
# This work is licensed under the Creative Commons
# Attribution-NonCommercial-ShareAlike 4.0 International License.
# To view a copy of this license, visit
# http://creativecommons.org/licenses/by-nc-sa/4.0/
# or send a letter to
# Creative Commons, PO Box 1866, Mountain View, CA 94042, USA.
#
# CIF created using the CSD Python API on 29 September 2022
# The structure has been converted into the P1 space group
# The structure has a 3D framework
# The original CSD entry ADATUW is in the cubic crystal system
# The original CSD entry ADATUW is in a Sohncke space group
# The framework has been calculated to contain at least 10.0% void space
# The void calculation uses a probe of radius 1.32A, grid spacing 0.4
# The framework is charged, counterions have been retained in the structure
#
###############################################################################

data_ADATUW
_chemical_formula_moiety         '(C312 H288 Ag4 N80 4+)n'
_symmetry_cell_setting           triclinic
_symmetry_space_group_name_H-M   'P 1'
_symmetry_Int_Tables_number      1
_space_group_name_Hall           'P 1'
loop_
_symmetry_equiv_pos_site_id
_symmetry_equiv_pos_as_xyz
1 x,y,z
_cell_length_a                   25.574(3)
_cell_length_b                   25.574(3)
_cell_length_c                   25.574(3)
_cell_angle_alpha                90
_cell_angle_beta                 90
_cell_angle_gamma                90
_cell_volume                     16726.1
loop_
_atom_site_label
_atom_site_type_symbol
_atom_site_fract_x
_atom_site_fract_y
_atom_site_fract_z
C6 C 0.2741(3) 0.0014(4) 0.0707(3)
C7 C 0.2512(3) 0.0402(3) 0.1132(3)
H6 H 0.2243 0.0228 0.1328
H7 H 0.2366 0.0703 0.0961
H8 H 0.2786 0.0510 0.1364
C8 C 0.3155(3) 0.0129(3) 0.0362(3)
C9 C 0.3223(3) 0.0679(3) 0.0245(3)
H9 H 0.3005 0.0930 0.0391
Ag2 Ag 0.5000 0.2500 0.10867(4)
N5 N 0.5625(3) 0.3019(3) 0.1369(2)
N8 N 0.6091(3) 0.2808(3) 0.0591(2)
H13 H 0.6342 0.2854 0.0372
N10 N 0.5706(2) 0.2460(3) 0.0481(2)
C14 C 0.5600(4) 0.3208(4) 0.1864(4)
H15 H 0.5321 0.3126 0.2082
C16 C 0.6017(5) 0.3540(4) 0.2041(4)
H17 H 0.5988 0.3730 0.2350
C18 C 0.6499(4) 0.3570(4) 0.1712(4)
H19 H 0.6794 0.3733 0.1848
C20 C 0.6521(3) 0.3374(3) 0.1242(3)
H21 H 0.6816 0.3423 0.1036
C22 C 0.6082(4) 0.3083(4) 0.1045(4)
C36 C 0.4856(3) 0.1124(3) 0.0110(3)
H33 H 0.4710 0.0897 0.0355
C38 C 0.5155(3) 0.1509(3) 0.0262(4)
H35 H 0.5231 0.1561 0.0613
Ag1 Ag 0.7500 0.60867(4) 0.0000
N4 N 0.9404(3) 0.4404(3) 0.0596(3)
C10 C 0.8627(3) 0.4181(3) 0.0095(3)
H10 H 0.8667 0.3838 0.0208
C11 C 0.8948(3) 0.4550(4) 0.0249(3)
C12 C 0.8876(3) 0.5110(3) 0.0144(3)
H11 H 0.9103 0.5355 0.0290
N7 N 0.8019(3) 0.6369(2) 0.0625(3)
N12 N 0.7460(3) 0.5481(2) 0.0706(2)
C25 C 0.9986(4) 0.5707(3) 0.2259(3)
C27 C 0.9598(3) 0.6132(3) 0.2488(3)
H24 H 0.9772 0.6328 0.2757
H26 H 0.9297 0.5961 0.2634
H28 H 0.9490 0.6364 0.2214
C29 C 0.9871(3) 0.5362(3) 0.1845(3)
C31 C 0.9321(3) 0.5245(3) 0.1777(3)
H30 H 0.9070 0.5391 0.1995
C32 C 0.9905(3) 0.3627(3) 0.0819(3)
C33 C 0.9181(3) 0.4905(3) 0.1373(3)
H31 H 0.9792 0.3667 0.1162
H32 H 0.8838 0.4792 0.1333
C34 C 0.9751(3) 0.3948(3) 0.0450(4)
C35 C 0.9550(4) 0.4751(3) 0.1052(3)
N7_2 N 0.4375(3) 0.1981(3) 0.1369(2)
N12_2 N 0.4294(2) 0.2540(3) 0.0481(2)
N2 N 0.7808(3) 0.5591(2) 0.1091(3)
H1 H 0.7854 0.5372 0.1342
C1 C 0.8208(4) 0.6864(4) 0.0600(4)
H2 H 0.8126 0.7082 0.0321
C2 C 0.8540(4) 0.7041(4) 0.1017(5)
H3 H 0.8730 0.7350 0.0988
C3 C 0.8570(4) 0.6712(4) 0.1499(4)
H4 H 0.8733 0.6848 0.1794
C4 C 0.8374(3) 0.6242(3) 0.1521(3)
H5 H 0.8423 0.6036 0.1816
C5 C 0.8083(4) 0.6045(4) 0.1082(4)
C6_2 C 0.7259(3) 0.4986(4) 0.0707(3)
C7_2 C 0.7488(3) 0.4598(3) 0.1132(3)
H6_2 H 0.7757 0.4772 0.1328
H7_2 H 0.7634 0.4297 0.0961
H8_2 H 0.7214 0.4490 0.1364
C8_2 C 0.6845(3) 0.4871(3) 0.0362(3)
C9_2 C 0.6777(3) 0.4321(3) 0.0245(3)
H9_2 H 0.6995 0.4070 0.0391
C13 C 0.6509(3) 0.5262(4) 0.0155(3)
H12 H 0.6561 0.5613 0.0231
N8_2 N 0.3909(3) 0.2192(3) 0.0591(2)
H13_2 H 0.3658 0.2146 0.0372
C14_2 C 0.4400(4) 0.1792(4) 0.1864(4)
H15_2 H 0.4679 0.1874 0.2082
C16_2 C 0.3983(5) 0.1460(4) 0.2041(4)
H17_2 H 0.4012 0.1270 0.2350
C18_2 C 0.3501(4) 0.1430(4) 0.1712(4)
H19_2 H 0.3206 0.1267 0.1848
C20_2 C 0.3479(3) 0.1626(3) 0.1242(3)
H21_2 H 0.3184 0.1577 0.1036
C22_2 C 0.3918(4) 0.1917(4) 0.1045(4)
C36_2 C 0.5144(3) 0.3876(3) 0.0110(3)
H33_2 H 0.5290 0.4103 0.0355
C38_2 C 0.4845(3) 0.3491(3) 0.0262(4)
H35_2 H 0.4769 0.3439 0.0613
N4_2 N 0.4404(3) 0.0596(3) 0.9404(3)
C10_2 C 0.3627(3) 0.0819(3) 0.9905(3)
H10_2 H 0.3667 0.1162 0.9792
C11_2 C 0.3948(3) 0.0450(4) 0.9751(3)
Ag3 Ag 0.60867(4) -0.0000 0.7500
C24 C 0.5707(3) 0.2259(3) 0.9986(4)
C26 C 0.6132(3) 0.2488(3) 0.9598(3)
H23 H 0.6328 0.2757 0.9772
H25 H 0.5961 0.2634 0.9297
H27 H 0.6364 0.2214 0.9490
C28 C 0.5362(3) 0.1845(3) 0.9871(3)
C30 C 0.5245(3) 0.1777(3) 0.9321(3)
H29 H 0.5391 0.1995 0.9070
C32_2 C 0.4905(3) 0.1373(3) 0.9181(3)
C33_2 C 0.4181(3) 0.0095(3) 0.8627(3)
H31_2 H 0.4792 0.1333 0.8838
H32_2 H 0.3838 0.0208 0.8667
C34_2 C 0.4751(3) 0.1052(3) 0.9550(4)
C35_2 C 0.4550(4) 0.0249(3) 0.8948(3)
C37 C 0.5110(3) 0.0144(3) 0.8876(3)
H34 H 0.5355 0.0290 0.9103
Ag1_2 Ag 0.2500 0.10867(4) 0.5000
N1 N 0.3019(3) 0.1369(2) 0.5625(3)
N2_2 N 0.2808(3) 0.0591(2) 0.6091(3)
H1_2 H 0.2854 0.0372 0.6342
N3 N 0.2460(3) 0.0481(2) 0.5706(2)
C1_2 C 0.3208(4) 0.1864(4) 0.5600(4)
H2_2 H 0.3126 0.2082 0.5321
C2_2 C 0.3540(4) 0.2041(4) 0.6017(5)
H3_2 H 0.3730 0.2350 0.5988
C3_2 C 0.3570(4) 0.1712(4) 0.6499(4)
H4_2 H 0.3733 0.1848 0.6794
C4_2 C 0.3374(3) 0.1242(3) 0.6521(3)
H5_2 H 0.3423 0.1036 0.6816
C5_2 C 0.3083(4) 0.1045(4) 0.6082(4)
C12_2 C 0.1124(3) 0.0110(3) 0.4856(3)
H11_2 H 0.0897 0.0355 0.4710
C13_2 C 0.1509(3) 0.0262(4) 0.5155(3)
H12_2 H 0.1561 0.0613 0.5231
N7_3 N 0.1981(3) 0.1369(2) 0.4375(3)
N12_3 N 0.2540(3) 0.0481(2) 0.4294(2)
C25_2 C 0.0014(4) 0.0707(3) 0.2741(3)
C27_2 C 0.0402(3) 0.1132(3) 0.2512(3)
H24_2 H 0.0228 0.1328 0.2243
H26_2 H 0.0703 0.0961 0.2366
H28_2 H 0.0510 0.1364 0.2786
C29_2 C 0.0129(3) 0.0362(3) 0.3155(3)
C31_2 C 0.0679(3) 0.0245(3) 0.3223(3)
H30_2 H 0.0930 0.0391 0.3005
N7_4 N 0.6369(2) 0.0625(3) 0.8019(3)
N12_4 N 0.5481(2) 0.0706(2) 0.7460(3)
N2_3 N 0.2192(3) 0.0591(2) 0.3909(3)
H1_3 H 0.2146 0.0372 0.3658
C1_3 C 0.1792(4) 0.1864(4) 0.4400(4)
H2_3 H 0.1874 0.2082 0.4679
C2_3 C 0.1460(4) 0.2041(4) 0.3983(5)
H3_3 H 0.1270 0.2350 0.4012
C3_3 C 0.1430(4) 0.1712(4) 0.3501(4)
H4_3 H 0.1267 0.1848 0.3206
C4_3 C 0.1626(3) 0.1242(3) 0.3479(3)
H5_3 H 0.1577 0.1036 0.3184
C5_3 C 0.1917(4) 0.1045(4) 0.3918(4)
C12_3 C 0.3876(3) 0.0110(3) 0.5144(3)
H11_3 H 0.4103 0.0355 0.5290
C13_3 C 0.3491(3) 0.0262(4) 0.4845(3)
H12_3 H 0.3439 0.0613 0.4769
N9 N 0.5591(2) 0.1091(3) 0.7808(3)
H14 H 0.5372 0.1342 0.7854
C15 C 0.6864(4) 0.0600(4) 0.8208(4)
H16 H 0.7082 0.0321 0.8126
C17 C 0.7041(4) 0.1017(5) 0.8540(4)
H18 H 0.7350 0.0988 0.8730
C19 C 0.6712(4) 0.1499(4) 0.8570(4)
H20 H 0.6848 0.1794 0.8733
C21 C 0.6242(3) 0.1521(3) 0.8374(3)
H22 H 0.6036 0.1816 0.8423
C23 C 0.6045(4) 0.1082(4) 0.8083(4)
C25_3 C 0.4986(4) 0.0707(3) 0.7259(3)
C27_3 C 0.4598(3) 0.1132(3) 0.7488(3)
H24_3 H 0.4772 0.1328 0.7757
H26_3 H 0.4297 0.0961 0.7634
H28_3 H 0.4490 0.1364 0.7214
C29_3 C 0.4871(3) 0.0362(3) 0.6845(3)
C31_3 C 0.4321(3) 0.0245(3) 0.6777(3)
H30_3 H 0.4070 0.0391 0.6995
C39 C 0.5262(4) 0.0155(3) 0.6509(3)
H36 H 0.5613 0.0231 0.6561
Ag1_3 Ag 0.2500 0.89133(4) -0.0000
N1_2 N 0.1981(3) 0.8631(2) 0.0625(3)
N2_4 N 0.2192(3) 0.9409(2) 0.1091(3)
H1_4 H 0.2146 0.9628 0.1342
N3_2 N 0.2540(3) 0.9519(2) 0.0706(2)
C1_4 C 0.1792(4) 0.8136(4) 0.0600(4)
H2_4 H 0.1874 0.7918 0.0321
C2_4 C 0.1460(4) 0.7959(4) 0.1017(5)
H3_4 H 0.1270 0.7650 0.0988
C3_4 C 0.1430(4) 0.8288(4) 0.1499(4)
H4_4 H 0.1267 0.8152 0.1794
C4_4 C 0.1626(3) 0.8758(3) 0.1521(3)
H5_4 H 0.1577 0.8964 0.1816
C5_4 C 0.1917(4) 0.8955(4) 0.1082(4)
C13_4 C 0.3491(3) 0.9738(4) 0.0155(3)
H12_4 H 0.3439 0.9387 0.0231
C12_4 C 0.1124(3) 0.9890(3) 0.0144(3)
H11_4 H 0.0897 0.9645 0.0290
C25_4 C 0.0014(4) 0.9293(3) 0.2259(3)
C27_4 C 0.0402(3) 0.8868(3) 0.2488(3)
H24_4 H 0.0228 0.8672 0.2757
H26_4 H 0.0703 0.9039 0.2634
H28_4 H 0.0510 0.8636 0.2214
C29_4 C 0.0129(3) 0.9638(3) 0.1845(3)
C31_4 C 0.0679(3) 0.9755(3) 0.1777(3)
H30_4 H 0.0930 0.9609 0.1995
Ag1_4 Ag 0.2500 0.89133(4) 1.0000
C12_5 C 0.3876(3) 0.9890(3) 0.9856(3)
H11_5 H 0.4103 0.9645 0.9710
Ag3_2 Ag 0.60867(4) 1.0000 0.7500
N6 N 0.6369(2) 0.9375(3) 0.6981(3)
N7_5 N 0.3019(3) 0.8631(2) 0.9375(3)
N9_2 N 0.5591(2) 0.8909(3) 0.7192(3)
H14_2 H 0.5372 0.8658 0.7146
N11 N 0.5481(2) 0.9294(2) 0.7540(3)
N12_5 N 0.2460(3) 0.9519(2) 0.9294(2)
C15_2 C 0.6864(4) 0.9400(4) 0.6792(4)
H16_2 H 0.7082 0.9679 0.6874
C17_2 C 0.7041(4) 0.8983(5) 0.6460(4)
H18_2 H 0.7350 0.9012 0.6270
C19_2 C 0.6712(4) 0.8501(4) 0.6430(4)
H20_2 H 0.6848 0.8206 0.6267
C21_2 C 0.6242(3) 0.8479(3) 0.6626(3)
H22_2 H 0.6036 0.8184 0.6577
C23_2 C 0.6045(4) 0.8918(4) 0.6917(4)
C25_5 C 0.4986(4) 0.9293(3) 0.7741(3)
C27_5 C 0.4598(3) 0.8868(3) 0.7512(3)
H24_5 H 0.4772 0.8672 0.7243
H26_5 H 0.4297 0.9039 0.7366
H28_5 H 0.4490 0.8636 0.7786
C29_5 C 0.4871(3) 0.9638(3) 0.8155(3)
C31_5 C 0.4321(3) 0.9755(3) 0.8223(3)
H30_5 H 0.4070 0.9609 0.8005
C39_2 C 0.5262(4) 0.9845(3) 0.8491(3)
H36_2 H 0.5613 0.9769 0.8439
Ag2_2 Ag 1.0000 0.7500 0.60867(4)
Ag3_3 Ag 0.89133(4) 1.0000 0.2500
N5_2 N 0.9375(3) 0.6981(3) 0.6369(2)
N8_3 N 0.8909(3) 0.7192(3) 0.5591(2)
H13_3 H 0.8658 0.7146 0.5372
N10_2 N 0.9294(2) 0.7540(3) 0.5481(2)
C14_3 C 0.9400(4) 0.6792(4) 0.6864(4)
H15_3 H 0.9679 0.6874 0.7082
C16_3 C 0.8983(5) 0.6460(4) 0.7041(4)
H17_3 H 0.9012 0.6270 0.7350
C18_3 C 0.8501(4) 0.6430(4) 0.6712(4)
H19_3 H 0.8206 0.6267 0.6848
C20_3 C 0.8479(3) 0.6626(3) 0.6242(3)
H21_3 H 0.8184 0.6577 0.6036
C22_3 C 0.8918(4) 0.6917(4) 0.6045(4)
C24_2 C 0.9293(3) 0.7741(3) 0.4986(4)
C26_2 C 0.8868(3) 0.7512(3) 0.4598(3)
H23_2 H 0.8672 0.7243 0.4772
H25_2 H 0.9039 0.7366 0.4297
H27_2 H 0.8636 0.7786 0.4490
C28_2 C 0.9638(3) 0.8155(3) 0.4871(3)
C30_2 C 0.9755(3) 0.8223(3) 0.4321(3)
H29_2 H 0.9609 0.8005 0.4070
C37_2 C 0.9890(3) 0.9856(3) 0.3876(3)
H34_2 H 0.9645 0.9710 0.4103
C38_3 C 0.9845(3) 0.8491(3) 0.5262(4)
H35_3 H 0.9769 0.8439 0.5613
Ag1_5 Ag 0.7500 0.39133(4) 0.5000
N1_3 N 0.8019(3) 0.3631(2) 0.4375(3)
N2_5 N 0.7808(3) 0.4409(2) 0.3909(3)
H1_5 H 0.7854 0.4628 0.3658
N3_3 N 0.7460(3) 0.4519(2) 0.4294(2)
N4_3 N 0.5596(3) 0.5596(3) 0.5596(3)
C1_5 C 0.8208(4) 0.3136(4) 0.4400(4)
H2_5 H 0.8126 0.2918 0.4679
C2_5 C 0.8540(4) 0.2959(4) 0.3983(5)
H3_5 H 0.8730 0.2650 0.4012
C3_5 C 0.8570(4) 0.3288(4) 0.3501(4)
H4_5 H 0.8733 0.3152 0.3206
C4_5 C 0.8374(3) 0.3758(3) 0.3479(3)
H5_5 H 0.8423 0.3964 0.3184
C5_5 C 0.8083(4) 0.3955(4) 0.3918(4)
C6_3 C 0.7259(3) 0.5014(4) 0.4293(3)
C7_3 C 0.7488(3) 0.5402(3) 0.3868(3)
H6_3 H 0.7757 0.5228 0.3672
H7_3 H 0.7634 0.5703 0.4039
H8_3 H 0.7214 0.5510 0.3636
C8_3 C 0.6845(3) 0.5129(3) 0.4638(3)
C9_3 C 0.6777(3) 0.5679(3) 0.4755(3)
H9_3 H 0.6995 0.5930 0.4609
C10_3 C 0.6373(3) 0.5819(3) 0.5095(3)
H10_3 H 0.6333 0.6162 0.5208
C11_3 C 0.6052(3) 0.5450(4) 0.5249(3)
C12_6 C 0.6124(3) 0.4890(3) 0.5144(3)
H11_6 H 0.5897 0.4645 0.5290
C13_5 C 0.6509(3) 0.4738(4) 0.4845(3)
H12_5 H 0.6561 0.4387 0.4769
Ag2_3 Ag 0.5000 0.7500 0.39133(4)
Ag3_4 Ag 0.39133(4) 0.5000 0.7500
N5_3 N 0.4375(3) 0.8019(3) 0.3631(2)
N6_2 N 0.3631(2) 0.4375(3) 0.8019(3)
N7_6 N 0.6981(3) 0.3631(2) 0.5625(3)
N8_4 N 0.3909(3) 0.7808(3) 0.4409(2)
N9_3 N 0.4409(2) 0.3909(3) 0.7808(3)
H13_4 H 0.3658 0.7854 0.4628
H14_3 H 0.4628 0.3658 0.7854
N10_3 N 0.4294(2) 0.7460(3) 0.4519(2)
N11_2 N 0.4519(2) 0.4294(2) 0.7460(3)
N12_6 N 0.7540(3) 0.4519(2) 0.5706(2)
C14_4 C 0.4400(4) 0.8208(4) 0.3136(4)
C15_3 C 0.3136(4) 0.4400(4) 0.8208(4)
H15_4 H 0.4679 0.8126 0.2918
H16_3 H 0.2918 0.4679 0.8126
C16_4 C 0.3983(5) 0.8540(4) 0.2959(4)
C17_3 C 0.2959(4) 0.3983(5) 0.8540(4)
H17_4 H 0.4012 0.8730 0.2650
H18_3 H 0.2650 0.4012 0.8730
C18_4 C 0.3501(4) 0.8570(4) 0.3288(4)
C19_3 C 0.3288(4) 0.3501(4) 0.8570(4)
H19_4 H 0.3206 0.8733 0.3152
H20_3 H 0.3152 0.3206 0.8733
C20_4 C 0.3479(3) 0.8374(3) 0.3758(3)
C21_3 C 0.3758(3) 0.3479(3) 0.8374(3)
H21_4 H 0.3184 0.8423 0.3964
H22_3 H 0.3964 0.3184 0.8423
C22_4 C 0.3918(4) 0.8083(4) 0.3955(4)
C23_3 C 0.3955(4) 0.3918(4) 0.8083(4)
C24_3 C 0.4293(3) 0.7259(3) 0.5014(4)
C25_6 C 0.5014(4) 0.4293(3) 0.7259(3)
C26_3 C 0.3868(3) 0.7488(3) 0.5402(3)
C27_6 C 0.5402(3) 0.3868(3) 0.7488(3)
H23_3 H 0.3672 0.7757 0.5228
H24_6 H 0.5228 0.3672 0.7757
H25_3 H 0.4039 0.7634 0.5703
H26_6 H 0.5703 0.4039 0.7634
H27_3 H 0.3636 0.7214 0.5510
H28_6 H 0.5510 0.3636 0.7214
C28_3 C 0.4638(3) 0.6845(3) 0.5129(3)
C29_6 C 0.5129(3) 0.4638(3) 0.6845(3)
C30_3 C 0.4755(3) 0.6777(3) 0.5679(3)
C31_6 C 0.5679(3) 0.4755(3) 0.6777(3)
H29_3 H 0.4609 0.6995 0.5930
H30_6 H 0.5930 0.4609 0.6995
C32_3 C 0.5095(3) 0.6373(3) 0.5819(3)
C33_3 C 0.5819(3) 0.5095(3) 0.6373(3)
H31_3 H 0.5208 0.6333 0.6162
H32_3 H 0.6162 0.5208 0.6333
C34_3 C 0.5249(3) 0.6052(3) 0.5450(4)
C35_3 C 0.5450(4) 0.5249(3) 0.6052(3)
C36_3 C 0.5144(3) 0.6124(3) 0.4890(3)
C37_3 C 0.4890(3) 0.5144(3) 0.6124(3)
H33_3 H 0.5290 0.5897 0.4645
H34_3 H 0.4645 0.5290 0.5897
C38_4 C 0.4845(3) 0.6509(3) 0.4738(4)
C39_3 C 0.4738(4) 0.4845(3) 0.6509(3)
H35_4 H 0.4769 0.6561 0.4387
H36_3 H 0.4387 0.4769 0.6561
Ag1_6 Ag 0.7500 0.60867(4) 1.0000
N1_4 N 0.6981(3) 0.6369(2) 0.9375(3)
N2_6 N 0.7192(3) 0.5591(2) 0.8909(3)
H1_6 H 0.7146 0.5372 0.8658
N3_4 N 0.7540(3) 0.5481(2) 0.9294(2)
C1_6 C 0.6792(4) 0.6864(4) 0.9400(4)
H2_6 H 0.6874 0.7082 0.9679
C2_6 C 0.6460(4) 0.7041(4) 0.8983(5)
H3_6 H 0.6270 0.7350 0.9012
C3_6 C 0.6430(4) 0.6712(4) 0.8501(4)
H4_6 H 0.6267 0.6848 0.8206
C4_6 C 0.6626(3) 0.6242(3) 0.8479(3)
H5_6 H 0.6577 0.6036 0.8184
C5_6 C 0.6917(4) 0.6045(4) 0.8918(4)
C6_4 C 0.7741(3) 0.4986(4) 0.9293(3)
C7_4 C 0.7512(3) 0.4598(3) 0.8868(3)
H6_4 H 0.7243 0.4772 0.8672
H7_4 H 0.7366 0.4297 0.9039
H8_4 H 0.7786 0.4490 0.8636
C8_4 C 0.8155(3) 0.4871(3) 0.9638(3)
C9_4 C 0.8223(3) 0.4321(3) 0.9755(3)
H9_4 H 0.8005 0.4070 0.9609
C13_6 C 0.8491(3) 0.5262(4) 0.9845(3)
H12_6 H 0.8439 0.5613 0.9769
Ag2_4 Ag 1.0000 0.2500 0.89133(4)
C36_4 C 0.9856(3) 0.3876(3) 0.9890(3)
H33_4 H 0.9710 0.4103 0.9645
N7_7 N 0.9375(3) 0.3019(3) 0.8631(2)
N12_7 N 0.9294(2) 0.2460(3) 0.9519(2)
N7_8 N 0.5625(3) 0.6981(3) 0.3631(2)
N12_8 N 0.5706(2) 0.7540(3) 0.4519(2)
N7_9 N 0.8631(2) 0.9375(3) 0.3019(3)
N12_9 N 0.9519(2) 0.9294(2) 0.2460(3)
N7_10 N 0.3631(2) 0.5625(3) 0.6981(3)
N12_10 N 0.4519(2) 0.5706(2) 0.7540(3)
N2_7 N 0.7192(3) 0.4409(2) 0.6091(3)
H1_7 H 0.7146 0.4628 0.6342
N4_4 N 0.9404(3) 0.5596(3) 0.4404(3)
C1_7 C 0.6792(4) 0.3136(4) 0.5600(4)
H2_7 H 0.6874 0.2918 0.5321
C2_7 C 0.6460(4) 0.2959(4) 0.6017(5)
H3_7 H 0.6270 0.2650 0.5988
C3_7 C 0.6430(4) 0.3288(4) 0.6499(4)
H4_7 H 0.6267 0.3152 0.6794
C4_7 C 0.6626(3) 0.3758(3) 0.6521(3)
H5_7 H 0.6577 0.3964 0.6816
C5_7 C 0.6917(4) 0.3955(4) 0.6082(4)
C6_5 C 0.7741(3) 0.5014(4) 0.5707(3)
C7_5 C 0.7512(3) 0.5402(3) 0.6132(3)
H6_5 H 0.7243 0.5228 0.6328
H7_5 H 0.7366 0.5703 0.5961
H8_5 H 0.7786 0.5510 0.6364
C8_5 C 0.8155(3) 0.5129(3) 0.5362(3)
C9_5 C 0.8223(3) 0.5679(3) 0.5245(3)
H9_5 H 0.8005 0.5930 0.5391
C10_4 C 0.8627(3) 0.5819(3) 0.4905(3)
H10_4 H 0.8667 0.6162 0.4792
C11_4 C 0.8948(3) 0.5450(4) 0.4751(3)
C12_7 C 0.8876(3) 0.4890(3) 0.4856(3)
H11_7 H 0.9103 0.4645 0.4710
C13_7 C 0.8491(3) 0.4738(4) 0.5155(3)
H12_7 H 0.8439 0.4387 0.5231
C25_7 C 0.9986(4) 0.4293(3) 0.2741(3)
C27_7 C 0.9598(3) 0.3868(3) 0.2512(3)
H24_7 H 0.9772 0.3672 0.2243
H26_7 H 0.9297 0.4039 0.2366
H28_7 H 0.9490 0.3636 0.2786
C29_7 C 0.9871(3) 0.4638(3) 0.3155(3)
C31_7 C 0.9321(3) 0.4755(3) 0.3223(3)
H30_7 H 0.9070 0.4609 0.3005
C32_4 C 0.9905(3) 0.6373(3) 0.4181(3)
C33_4 C 0.9181(3) 0.5095(3) 0.3627(3)
H31_4 H 0.9792 0.6333 0.3838
H32_4 H 0.8838 0.5208 0.3667
C34_4 C 0.9751(3) 0.6052(3) 0.4550(4)
C35_4 C 0.9550(4) 0.5249(3) 0.3948(3)
C36_5 C 0.9856(3) 0.6124(3) 0.5110(3)
H33_5 H 0.9710 0.5897 0.5355
N4_5 N 0.5596(3) 0.4404(3) 0.9404(3)
C10_5 C 0.6373(3) 0.4181(3) 0.9905(3)
H10_5 H 0.6333 0.3838 0.9792
C11_5 C 0.6052(3) 0.4550(4) 0.9751(3)
C12_8 C 0.6124(3) 0.5110(3) 0.9856(3)
H11_8 H 0.5897 0.5355 0.9710
N9_4 N 0.4409(2) 0.6091(3) 0.7192(3)
H14_4 H 0.4628 0.6342 0.7146
C15_4 C 0.3136(4) 0.5600(4) 0.6792(4)
H16_4 H 0.2918 0.5321 0.6874
C17_4 C 0.2959(4) 0.6017(5) 0.6460(4)
H18_4 H 0.2650 0.5988 0.6270
C19_4 C 0.3288(4) 0.6499(4) 0.6430(4)
H20_4 H 0.3152 0.6794 0.6267
C21_4 C 0.3758(3) 0.6521(3) 0.6626(3)
H22_4 H 0.3964 0.6816 0.6577
C23_4 C 0.3955(4) 0.6082(4) 0.6917(4)
C24_4 C 0.4293(3) 0.2741(3) 0.9986(4)
C25_8 C 0.5014(4) 0.5707(3) 0.7741(3)
C26_4 C 0.3868(3) 0.2512(3) 0.9598(3)
C27_8 C 0.5402(3) 0.6132(3) 0.7512(3)
H23_4 H 0.3672 0.2243 0.9772
H24_8 H 0.5228 0.6328 0.7243
H25_4 H 0.4039 0.2366 0.9297
H26_8 H 0.5703 0.5961 0.7366
H27_4 H 0.3636 0.2786 0.9490
H28_8 H 0.5510 0.6364 0.7786
C28_4 C 0.4638(3) 0.3155(3) 0.9871(3)
C29_8 C 0.5129(3) 0.5362(3) 0.8155(3)
C30_4 C 0.4755(3) 0.3223(3) 0.9321(3)
C31_8 C 0.5679(3) 0.5245(3) 0.8223(3)
H29_4 H 0.4609 0.3005 0.9070
H30_8 H 0.5930 0.5391 0.8005
C32_5 C 0.5095(3) 0.3627(3) 0.9181(3)
C33_5 C 0.5819(3) 0.4905(3) 0.8627(3)
H31_5 H 0.5208 0.3667 0.8838
H32_5 H 0.6162 0.4792 0.8667
C34_5 C 0.5249(3) 0.3948(3) 0.9550(4)
C35_5 C 0.5450(4) 0.4751(3) 0.8948(3)
C37_4 C 0.4890(3) 0.4856(3) 0.8876(3)
H34_4 H 0.4645 0.4710 0.9103
C39_4 C 0.4738(4) 0.5155(3) 0.8491(3)
H36_4 H 0.4387 0.5231 0.8439
N2_8 N 0.2808(3) 0.9409(2) 0.8909(3)
H1_8 H 0.2854 0.9628 0.8658
C1_8 C 0.3208(4) 0.8136(4) 0.9400(4)
H2_8 H 0.3126 0.7918 0.9679
C2_8 C 0.3540(4) 0.7959(4) 0.8983(5)
H3_8 H 0.3730 0.7650 0.9012
C3_8 C 0.3570(4) 0.8288(4) 0.8501(4)
H4_8 H 0.3733 0.8152 0.8206
C4_8 C 0.3374(3) 0.8758(3) 0.8479(3)
H5_8 H 0.3423 0.8964 0.8184
C5_8 C 0.3083(4) 0.8955(4) 0.8918(4)
C13_8 C 0.1509(3) 0.9738(4) 0.9845(3)
H12_8 H 0.1561 0.9387 0.9769
N8_5 N 0.8909(3) 0.2808(3) 0.9409(2)
H13_5 H 0.8658 0.2854 0.9628
C14_5 C 0.9400(4) 0.3208(4) 0.8136(4)
H15_5 H 0.9679 0.3126 0.7918
C16_5 C 0.8983(5) 0.3540(4) 0.7959(4)
H17_5 H 0.9012 0.3730 0.7650
C18_5 C 0.8501(4) 0.3570(4) 0.8288(4)
H19_5 H 0.8206 0.3733 0.8152
C20_5 C 0.8479(3) 0.3374(3) 0.8758(3)
H21_5 H 0.8184 0.3423 0.8964
C22_5 C 0.8918(4) 0.3083(4) 0.8955(4)
C38_5 C 0.9845(3) 0.1509(3) 0.9738(4)
H35_5 H 0.9769 0.1561 0.9387
N9_5 N 0.9409(2) 0.8909(3) 0.2808(3)
H14_5 H 0.9628 0.8658 0.2854
C15_5 C 0.8136(4) 0.9400(4) 0.3208(4)
H16_5 H 0.7918 0.9679 0.3126
C17_5 C 0.7959(4) 0.8983(5) 0.3540(4)
H18_5 H 0.7650 0.9012 0.3730
C19_5 C 0.8288(4) 0.8501(4) 0.3570(4)
H20_5 H 0.8152 0.8206 0.3733
C21_5 C 0.8758(3) 0.8479(3) 0.3374(3)
H22_5 H 0.8964 0.8184 0.3423
C23_5 C 0.8955(4) 0.8918(4) 0.3083(4)
C39_5 C 0.9738(4) 0.9845(3) 0.1509(3)
H36_5 H 0.9387 0.9769 0.1561
N4_6 N 0.4404(3) 0.9404(3) 0.5596(3)
C6_6 C 0.2741(3) 0.9986(4) 0.4293(3)
C7_6 C 0.2512(3) 0.9598(3) 0.3868(3)
H6_6 H 0.2243 0.9772 0.3672
H7_6 H 0.2366 0.9297 0.4039
H8_6 H 0.2786 0.9490 0.3636
C8_6 C 0.3155(3) 0.9871(3) 0.4638(3)
C9_6 C 0.3223(3) 0.9321(3) 0.4755(3)
H9_6 H 0.3005 0.9070 0.4609
C10_6 C 0.3627(3) 0.9181(3) 0.5095(3)
H10_6 H 0.3667 0.8838 0.5208
C11_6 C 0.3948(3) 0.9550(4) 0.5249(3)
N8_6 N 0.6091(3) 0.7192(3) 0.4409(2)
H13_6 H 0.6342 0.7146 0.4628
C14_6 C 0.5600(4) 0.6792(4) 0.3136(4)
H15_6 H 0.5321 0.6874 0.2918
C16_6 C 0.6017(5) 0.6460(4) 0.2959(4)
H17_6 H 0.5988 0.6270 0.2650
C18_6 C 0.6499(4) 0.6430(4) 0.3288(4)
H19_6 H 0.6794 0.6267 0.3152
C20_6 C 0.6521(3) 0.6626(3) 0.3758(3)
H21_6 H 0.6816 0.6577 0.3964
C22_6 C 0.6082(4) 0.6917(4) 0.3955(4)
C24_5 C 0.5707(3) 0.7741(3) 0.5014(4)
C26_5 C 0.6132(3) 0.7512(3) 0.5402(3)
H23_5 H 0.6328 0.7243 0.5228
H25_5 H 0.5961 0.7366 0.5703
H27_5 H 0.6364 0.7786 0.5510
C28_5 C 0.5362(3) 0.8155(3) 0.5129(3)
C30_5 C 0.5245(3) 0.8223(3) 0.5679(3)
H29_5 H 0.5391 0.8005 0.5930
C32_6 C 0.4905(3) 0.8627(3) 0.5819(3)
C33_6 C 0.4181(3) 0.9905(3) 0.6373(3)
H31_6 H 0.4792 0.8667 0.6162
H32_6 H 0.3838 0.9792 0.6333
C34_6 C 0.4751(3) 0.8948(3) 0.5450(4)
C35_6 C 0.4550(4) 0.9751(3) 0.6052(3)
C36_6 C 0.4856(3) 0.8876(3) 0.4890(3)
C37_5 C 0.5110(3) 0.9856(3) 0.6124(3)
H33_6 H 0.4710 0.9103 0.4645
H34_5 H 0.5355 0.9710 0.5897
C38_6 C 0.5155(3) 0.8491(3) 0.4738(4)
H35_6 H 0.5231 0.8439 0.4387
N4_7 N 0.0596(3) 0.9404(3) 0.4404(3)
C6_7 C 0.2259(3) 0.9986(4) 0.5707(3)
C7_7 C 0.2488(3) 0.9598(3) 0.6132(3)
H6_7 H 0.2757 0.9772 0.6328
H7_7 H 0.2634 0.9297 0.5961
H8_7 H 0.2214 0.9490 0.6364
C8_7 C 0.1845(3) 0.9871(3) 0.5362(3)
C9_7 C 0.1777(3) 0.9321(3) 0.5245(3)
H9_7 H 0.1995 0.9070 0.5391
C10_7 C 0.1373(3) 0.9181(3) 0.4905(3)
H10_7 H 0.1333 0.8838 0.4792
C11_7 C 0.1052(3) 0.9550(4) 0.4751(3)
Ag2_5 Ag 0.0000 0.7500 0.60867(4)
C32_7 C 0.0095(3) 0.8627(3) 0.4181(3)
C33_7 C 0.0819(3) 0.9905(3) 0.3627(3)
H31_7 H 0.0208 0.8667 0.3838
H32_7 H 0.1162 0.9792 0.3667
C34_7 C 0.0249(3) 0.8948(3) 0.4550(4)
C35_7 C 0.0450(4) 0.9751(3) 0.3948(3)
C36_7 C 0.0144(3) 0.8876(3) 0.5110(3)
H33_7 H 0.0290 0.9103 0.5355
Ag3_5 Ag 0.10867(4) 0.5000 0.2500
N6_3 N 0.1369(2) 0.5625(3) 0.3019(3)
N9_6 N 0.0591(2) 0.6091(3) 0.2808(3)
H14_6 H 0.0372 0.6342 0.2854
N11_3 N 0.0481(2) 0.5706(2) 0.2460(3)
C15_6 C 0.1864(4) 0.5600(4) 0.3208(4)
H16_6 H 0.2082 0.5321 0.3126
C17_6 C 0.2041(4) 0.6017(5) 0.3540(4)
H18_6 H 0.2350 0.5988 0.3730
C19_6 C 0.1712(4) 0.6499(4) 0.3570(4)
H20_6 H 0.1848 0.6794 0.3733
C21_6 C 0.1242(3) 0.6521(3) 0.3374(3)
H22_6 H 0.1036 0.6816 0.3423
C23_6 C 0.1045(4) 0.6082(4) 0.3083(4)
C24_6 C 0.0707(3) 0.2741(3) 0.0014(4)
C26_6 C 0.1132(3) 0.2512(3) 0.0402(3)
H23_6 H 0.1328 0.2243 0.0228
H25_6 H 0.0961 0.2366 0.0703
H27_6 H 0.1364 0.2786 0.0510
C28_6 C 0.0362(3) 0.3155(3) 0.0129(3)
C30_6 C 0.0245(3) 0.3223(3) 0.0679(3)
H29_6 H 0.0391 0.3005 0.0930
C37_6 C 0.0110(3) 0.4856(3) 0.1124(3)
H34_6 H 0.0355 0.4710 0.0897
C39_6 C 0.0262(4) 0.5155(3) 0.1509(3)
H36_6 H 0.0613 0.5231 0.1561
N7_11 N 0.0625(3) 0.8019(3) 0.6369(2)
N12_11 N 0.0706(2) 0.7460(3) 0.5481(2)
N7_12 N 0.1369(2) 0.4375(3) 0.1981(3)
N12_12 N 0.0481(2) 0.4294(2) 0.2540(3)
N8_7 N 0.1091(3) 0.7808(3) 0.5591(2)
N9_7 N 0.0591(2) 0.3909(3) 0.2192(3)
H13_7 H 0.1342 0.7854 0.5372
H14_7 H 0.0372 0.3658 0.2146
C14_7 C 0.0600(4) 0.8208(4) 0.6864(4)
C15_7 C 0.1864(4) 0.4400(4) 0.1792(4)
H15_7 H 0.0321 0.8126 0.7082
H16_7 H 0.2082 0.4679 0.1874
C16_7 C 0.1017(5) 0.8540(4) 0.7041(4)
C17_7 C 0.2041(4) 0.3983(5) 0.1460(4)
H17_7 H 0.0988 0.8730 0.7350
H18_7 H 0.2350 0.4012 0.1270
C18_7 C 0.1499(4) 0.8570(4) 0.6712(4)
C19_7 C 0.1712(4) 0.3501(4) 0.1430(4)
H19_7 H 0.1794 0.8733 0.6848
H20_7 H 0.1848 0.3206 0.1267
C20_7 C 0.1521(3) 0.8374(3) 0.6242(3)
C21_7 C 0.1242(3) 0.3479(3) 0.1626(3)
H21_7 H 0.1816 0.8423 0.6036
H22_7 H 0.1036 0.3184 0.1577
C22_7 C 0.1082(4) 0.8083(4) 0.6045(4)
C23_7 C 0.1045(4) 0.3918(4) 0.1917(4)
C24_7 C 0.0707(3) 0.7259(3) 0.4986(4)
C26_7 C 0.1132(3) 0.7488(3) 0.4598(3)
H23_7 H 0.1328 0.7757 0.4772
H25_7 H 0.0961 0.7634 0.4297
H27_7 H 0.1364 0.7214 0.4490
C28_7 C 0.0362(3) 0.6845(3) 0.4871(3)
C30_7 C 0.0245(3) 0.6777(3) 0.4321(3)
H29_7 H 0.0391 0.6995 0.4070
C37_7 C 0.0110(3) 0.5144(3) 0.3876(3)
H34_7 H 0.0355 0.5290 0.4103
C38_7 C 0.0155(3) 0.6509(3) 0.5262(4)
C39_7 C 0.0262(4) 0.4845(3) 0.3491(3)
H35_7 H 0.0231 0.6561 0.5613
H36_7 H 0.0613 0.4769 0.3439
Ag3_6 Ag 0.89133(4) 0.0000 0.2500
N6_4 N 0.8631(2) 0.0625(3) 0.1981(3)
N9_8 N 0.9409(2) 0.1091(3) 0.2192(3)
H14_8 H 0.9628 0.1342 0.2146
N11_4 N 0.9519(2) 0.0706(2) 0.2540(3)
C15_8 C 0.8136(4) 0.0600(4) 0.1792(4)
H16_8 H 0.7918 0.0321 0.1874
C17_8 C 0.7959(4) 0.1017(5) 0.1460(4)
H18_8 H 0.7650 0.0988 0.1270
C19_8 C 0.8288(4) 0.1499(4) 0.1430(4)
H20_8 H 0.8152 0.1794 0.1267
C21_8 C 0.8758(3) 0.1521(3) 0.1626(3)
H22_8 H 0.8964 0.1816 0.1577
C23_8 C 0.8955(4) 0.1082(4) 0.1917(4)
C39_8 C 0.9738(4) 0.0155(3) 0.3491(3)
H36_8 H 0.9387 0.0231 0.3439
C24_8 C 0.9293(3) 0.2259(3) 0.0014(4)
C26_8 C 0.8868(3) 0.2488(3) 0.0402(3)
H23_8 H 0.8672 0.2757 0.0228
H25_8 H 0.9039 0.2634 0.0703
H27_8 H 0.8636 0.2214 0.0510
C28_8 C 0.9638(3) 0.1845(3) 0.0129(3)
C30_8 C 0.9755(3) 0.1777(3) 0.0679(3)
H29_8 H 0.9609 0.1995 0.0930
C37_8 C 0.9890(3) 0.0144(3) 0.1124(3)
H34_8 H 0.9645 0.0290 0.0897
Ag2_6 Ag -0.0000 0.2500 0.89133(4)
N5_4 N 0.0625(3) 0.1981(3) 0.8631(2)
N8_8 N 0.1091(3) 0.2192(3) 0.9409(2)
H13_8 H 0.1342 0.2146 0.9628
N10_4 N 0.0706(2) 0.2540(3) 0.9519(2)
C14_8 C 0.0600(4) 0.1792(4) 0.8136(4)
H15_8 H 0.0321 0.1874 0.7918
C16_8 C 0.1017(5) 0.1460(4) 0.7959(4)
H17_8 H 0.0988 0.1270 0.7650
C18_8 C 0.1499(4) 0.1430(4) 0.8288(4)
H19_8 H 0.1794 0.1267 0.8152
C20_8 C 0.1521(3) 0.1626(3) 0.8758(3)
H21_8 H 0.1816 0.1577 0.8964
C22_8 C 0.1082(4) 0.1917(4) 0.8955(4)
C38_8 C 0.0155(3) 0.3491(3) 0.9738(4)
H35_8 H 0.0231 0.3439 0.9387
C6_8 C 0.2259(3) 0.0014(4) 0.9293(3)
C7_8 C 0.2488(3) 0.0402(3) 0.8868(3)
H6_8 H 0.2757 0.0228 0.8672
H7_8 H 0.2634 0.0703 0.9039
H8_8 H 0.2214 0.0510 0.8636
C8_8 C 0.1845(3) 0.0129(3) 0.9638(3)
C9_8 C 0.1777(3) 0.0679(3) 0.9755(3)
H9_8 H 0.1995 0.0930 0.9609
C36_8 C 0.0144(3) 0.1124(3) 0.9890(3)
H33_8 H 0.0290 0.0897 0.9645
N4_8 N 0.0596(3) 0.0596(3) 0.0596(3)
C10_8 C 0.1373(3) 0.0819(3) 0.0095(3)
H10_8 H 0.1333 0.1162 0.0208
C11_8 C 0.1052(3) 0.0450(4) 0.0249(3)
C32_8 C 0.0095(3) 0.1373(3) 0.0819(3)
C33_8 C 0.0819(3) 0.0095(3) 0.1373(3)
H31_8 H 0.0208 0.1333 0.1162
H32_8 H 0.1162 0.0208 0.1333
C34_8 C 0.0249(3) 0.1052(3) 0.0450(4)
C35_8 C 0.0450(4) 0.0249(3) 0.1052(3)
loop_
_geom_bond_atom_site_label_1
_geom_bond_atom_site_label_2
_geom_bond_site_symmetry_1
_geom_bond_site_symmetry_2
C7 C6 1_555 1_555
H6 C7 1_555 1_555
H7 C7 1_555 1_555
H8 C7 1_555 1_555
C8 C6 1_555 1_555
C9 C8 1_555 1_555
H9 C9 1_555 1_555
Ag2 N5 1_555 1_555
N5 C14 1_555 1_555
N8 H13 1_555 1_555
N10 Ag2 1_555 1_555
C14 H15 1_555 1_555
C16 C14 1_555 1_555
H17 C16 1_555 1_555
C18 C16 1_555 1_555
H19 C18 1_555 1_555
C20 C18 1_555 1_555
H21 C20 1_555 1_555
C22 N5 1_555 1_555
H33 C36 1_555 1_555
H35 C38 1_555 1_555
N8 N10 1_555 1_555
N8 C22 1_555 1_555
C20 C22 1_555 1_555
C36 C38 1_555 1_555
N4 C11 1_555 1_555
H10 C10 1_555 1_555
C11 C10 1_555 1_555
C12 C11 1_555 1_555
H11 C12 1_555 1_555
N7 Ag1 1_555 1_555
N12 Ag1 1_555 1_555
C27 C25 1_555 1_555
H24 C27 1_555 1_555
H26 C27 1_555 1_555
H28 C27 1_555 1_555
C29 C25 1_555 1_555
C31 C29 1_555 1_555
H30 C31 1_555 1_555
C33 C31 1_555 1_555
H31 C32 1_555 1_555
H32 C33 1_555 1_555
C34 N4 1_555 1_555
C35 N4 1_555 1_555
C32 C34 1_555 1_555
C33 C35 1_555 1_555
N7_2 Ag2 1_555 1_555
N12_2 Ag2 1_555 1_555
N7 C1 1_555 1_555
N2 H1 1_555 1_555
C1 H2 1_555 1_555
C2 C1 1_555 1_555
H3 C2 1_555 1_555
C3 C2 1_555 1_555
H4 C3 1_555 1_555
C4 C3 1_555 1_555
H5 C4 1_555 1_555
C5 N7 1_555 1_555
C6_2 N12 1_555 1_555
C7_2 C6_2 1_555 1_555
H6_2 C7_2 1_555 1_555
H7_2 C7_2 1_555 1_555
H8_2 C7_2 1_555 1_555
C8_2 C6_2 1_555 1_555
C9_2 C8_2 1_555 1_555
H9_2 C9_2 1_555 1_555
C13 C8_2 1_555 1_555
H12 C13 1_555 1_555
N7_2 C14_2 1_555 1_555
N8_2 H13_2 1_555 1_555
C14_2 H15_2 1_555 1_555
C16_2 C14_2 1_555 1_555
H17_2 C16_2 1_555 1_555
C18_2 C16_2 1_555 1_555
H19_2 C18_2 1_555 1_555
C20_2 C18_2 1_555 1_555
H21_2 C20_2 1_555 1_555
C22_2 N7_2 1_555 1_555
H33_2 C36_2 1_555 1_555
H35_2 C38_2 1_555 1_555
N2 N12 1_555 1_555
N2 C5 1_555 1_555
C4 C5 1_555 1_555
N8_2 N12_2 1_555 1_555
N8_2 C22_2 1_555 1_555
C20_2 C22_2 1_555 1_555
C36_2 C38_2 1_555 1_555
N4_2 C11_2 1_555 1_555
H10_2 C10_2 1_555 1_555
C11_2 C10_2 1_555 1_555
C26 C24 1_555 1_555
H23 C26 1_555 1_555
H25 C26 1_555 1_555
H27 C26 1_555 1_555
C28 C24 1_555 1_555
C30 C28 1_555 1_555
H29 C30 1_555 1_555
C32_2 C30 1_555 1_555
H31_2 C32_2 1_555 1_555
H32_2 C33_2 1_555 1_555
C34_2 N4_2 1_555 1_555
C35_2 N4_2 1_555 1_555
C37 C35_2 1_555 1_555
H34 C37 1_555 1_555
C32_2 C34_2 1_555 1_555
C33_2 C35_2 1_555 1_555
Ag1_2 N1 1_555 1_555
N1 C1_2 1_555 1_555
N2_2 H1_2 1_555 1_555
N3 Ag1_2 1_555 1_555
C1_2 H2_2 1_555 1_555
C2_2 C1_2 1_555 1_555
H3_2 C2_2 1_555 1_555
C3_2 C2_2 1_555 1_555
H4_2 C3_2 1_555 1_555
C4_2 C3_2 1_555 1_555
H5_2 C4_2 1_555 1_555
C5_2 N1 1_555 1_555
H11_2 C12_2 1_555 1_555
H12_2 C13_2 1_555 1_555
N7_3 Ag1_2 1_555 1_555
N12_3 Ag1_2 1_555 1_555
C27_2 C25_2 1_555 1_555
H24_2 C27_2 1_555 1_555
H26_2 C27_2 1_555 1_555
H28_2 C27_2 1_555 1_555
C29_2 C25_2 1_555 1_555
C31_2 C29_2 1_555 1_555
H30_2 C31_2 1_555 1_555
N2_2 N3 1_555 1_555
N2_2 C5_2 1_555 1_555
C4_2 C5_2 1_555 1_555
C12_2 C13_2 1_555 1_555
N7_4 Ag3 1_555 1_555
N12_4 Ag3 1_555 1_555
N7_3 C1_3 1_555 1_555
N2_3 H1_3 1_555 1_555
C1_3 H2_3 1_555 1_555
C2_3 C1_3 1_555 1_555
H3_3 C2_3 1_555 1_555
C3_3 C2_3 1_555 1_555
H4_3 C3_3 1_555 1_555
C4_3 C3_3 1_555 1_555
H5_3 C4_3 1_555 1_555
C5_3 N7_3 1_555 1_555
H11_3 C12_3 1_555 1_555
H12_3 C13_3 1_555 1_555
N7_4 C15 1_555 1_555
N9 H14 1_555 1_555
C15 H16 1_555 1_555
C17 C15 1_555 1_555
H18 C17 1_555 1_555
C19 C17 1_555 1_555
H20 C19 1_555 1_555
C21 C19 1_555 1_555
H22 C21 1_555 1_555
C23 N7_4 1_555 1_555
C25_3 N12_4 1_555 1_555
C27_3 C25_3 1_555 1_555
H24_3 C27_3 1_555 1_555
H26_3 C27_3 1_555 1_555
H28_3 C27_3 1_555 1_555
C29_3 C25_3 1_555 1_555
C31_3 C29_3 1_555 1_555
H30_3 C31_3 1_555 1_555
C39 C29_3 1_555 1_555
H36 C39 1_555 1_555
N2_3 N12_3 1_555 1_555
N2_3 C5_3 1_555 1_555
C4_3 C5_3 1_555 1_555
C12_3 C13_3 1_555 1_555
N9 N12_4 1_555 1_555
N9 C23 1_555 1_555
C21 C23 1_555 1_555
Ag1_3 N1_2 1_555 1_555
N1_2 C1_4 1_555 1_555
N2_4 H1_4 1_555 1_555
N3_2 Ag1_3 1_555 1_555
C1_4 H2_4 1_555 1_555
C2_4 C1_4 1_555 1_555
H3_4 C2_4 1_555 1_555
C3_4 C2_4 1_555 1_555
H4_4 C3_4 1_555 1_555
C4_4 C3_4 1_555 1_555
H5_4 C4_4 1_555 1_555
C5_4 N1_2 1_555 1_555
H12_4 C13_4 1_555 1_555
N2_4 N3_2 1_555 1_555
N2_4 C5_4 1_555 1_555
C4_4 C5_4 1_555 1_555
H11_4 C12_4 1_555 1_555
C27_4 C25_4 1_555 1_555
H24_4 C27_4 1_555 1_555
H26_4 C27_4 1_555 1_555
H28_4 C27_4 1_555 1_555
C29_4 C25_4 1_555 1_555
C31_4 C29_4 1_555 1_555
H30_4 C31_4 1_555 1_555
H11_5 C12_5 1_555 1_555
Ag3_2 N6 1_555 1_555
N6 C15_2 1_555 1_555
N7_5 Ag1_4 1_555 1_555
N9_2 H14_2 1_555 1_555
N11 Ag3_2 1_555 1_555
N12_5 Ag1_4 1_555 1_555
C15_2 H16_2 1_555 1_555
C17_2 C15_2 1_555 1_555
H18_2 C17_2 1_555 1_555
C19_2 C17_2 1_555 1_555
H20_2 C19_2 1_555 1_555
C21_2 C19_2 1_555 1_555
H22_2 C21_2 1_555 1_555
C23_2 N6 1_555 1_555
C25_5 N11 1_555 1_555
C27_5 C25_5 1_555 1_555
H24_5 C27_5 1_555 1_555
H26_5 C27_5 1_555 1_555
H28_5 C27_5 1_555 1_555
C29_5 C25_5 1_555 1_555
C31_5 C29_5 1_555 1_555
H30_5 C31_5 1_555 1_555
C39_2 C29_5 1_555 1_555
H36_2 C39_2 1_555 1_555
N9_2 N11 1_555 1_555
N9_2 C23_2 1_555 1_555
C21_2 C23_2 1_555 1_555
Ag2_2 N5_2 1_555 1_555
N5_2 C14_3 1_555 1_555
N8_3 H13_3 1_555 1_555
N10_2 Ag2_2 1_555 1_555
C14_3 H15_3 1_555 1_555
C16_3 C14_3 1_555 1_555
H17_3 C16_3 1_555 1_555
C18_3 C16_3 1_555 1_555
H19_3 C18_3 1_555 1_555
C20_3 C18_3 1_555 1_555
H21_3 C20_3 1_555 1_555
C22_3 N5_2 1_555 1_555
C24_2 N10_2 1_555 1_555
C26_2 C24_2 1_555 1_555
H23_2 C26_2 1_555 1_555
H25_2 C26_2 1_555 1_555
H27_2 C26_2 1_555 1_555
C28_2 C24_2 1_555 1_555
C30_2 C28_2 1_555 1_555
H29_2 C30_2 1_555 1_555
H34_2 C37_2 1_555 1_555
C38_3 C28_2 1_555 1_555
H35_3 C38_3 1_555 1_555
N8_3 N10_2 1_555 1_555
N8_3 C22_3 1_555 1_555
C20_3 C22_3 1_555 1_555
Ag1_5 N1_3 1_555 1_555
N1_3 C1_5 1_555 1_555
N2_5 H1_5 1_555 1_555
N3_3 Ag1_5 1_555 1_555
N4_3 C11_3 1_555 1_555
C1_5 H2_5 1_555 1_555
C2_5 C1_5 1_555 1_555
H3_5 C2_5 1_555 1_555
C3_5 C2_5 1_555 1_555
H4_5 C3_5 1_555 1_555
C4_5 C3_5 1_555 1_555
H5_5 C4_5 1_555 1_555
C5_5 N1_3 1_555 1_555
C6_3 N3_3 1_555 1_555
C7_3 C6_3 1_555 1_555
H6_3 C7_3 1_555 1_555
H7_3 C7_3 1_555 1_555
H8_3 C7_3 1_555 1_555
C8_3 C6_3 1_555 1_555
C9_3 C8_3 1_555 1_555
H9_3 C9_3 1_555 1_555
C10_3 C9_3 1_555 1_555
H10_3 C10_3 1_555 1_555
C11_3 C10_3 1_555 1_555
C12_6 C11_3 1_555 1_555
H11_6 C12_6 1_555 1_555
C13_5 C8_3 1_555 1_555
H12_5 C13_5 1_555 1_555
Ag2_3 N5_3 1_555 1_555
Ag3_4 N6_2 1_555 1_555
N5_3 C14_4 1_555 1_555
N6_2 C15_3 1_555 1_555
N7_6 Ag1_5 1_555 1_555
N8_4 H13_4 1_555 1_555
N9_3 H14_3 1_555 1_555
N10_3 Ag2_3 1_555 1_555
N11_2 Ag3_4 1_555 1_555
N12_6 Ag1_5 1_555 1_555
C14_4 H15_4 1_555 1_555
C15_3 H16_3 1_555 1_555
C16_4 C14_4 1_555 1_555
C17_3 C15_3 1_555 1_555
H17_4 C16_4 1_555 1_555
H18_3 C17_3 1_555 1_555
C18_4 C16_4 1_555 1_555
C19_3 C17_3 1_555 1_555
H19_4 C18_4 1_555 1_555
H20_3 C19_3 1_555 1_555
C20_4 C18_4 1_555 1_555
C21_3 C19_3 1_555 1_555
H21_4 C20_4 1_555 1_555
H22_3 C21_3 1_555 1_555
C22_4 N5_3 1_555 1_555
C23_3 N6_2 1_555 1_555
C24_3 N10_3 1_555 1_555
C25_6 N11_2 1_555 1_555
C26_3 C24_3 1_555 1_555
C27_6 C25_6 1_555 1_555
H23_3 C26_3 1_555 1_555
H24_6 C27_6 1_555 1_555
H25_3 C26_3 1_555 1_555
H26_6 C27_6 1_555 1_555
H27_3 C26_3 1_555 1_555
H28_6 C27_6 1_555 1_555
C28_3 C24_3 1_555 1_555
C29_6 C25_6 1_555 1_555
C30_3 C28_3 1_555 1_555
C31_6 C29_6 1_555 1_555
H29_3 C30_3 1_555 1_555
H30_6 C31_6 1_555 1_555
C32_3 C30_3 1_555 1_555
C33_3 C31_6 1_555 1_555
H31_3 C32_3 1_555 1_555
H32_3 C33_3 1_555 1_555
C34_3 N4_3 1_555 1_555
C35_3 N4_3 1_555 1_555
C36_3 C34_3 1_555 1_555
C37_3 C35_3 1_555 1_555
H33_3 C36_3 1_555 1_555
H34_3 C37_3 1_555 1_555
C38_4 C28_3 1_555 1_555
C39_3 C29_6 1_555 1_555
H35_4 C38_4 1_555 1_555
H36_3 C39_3 1_555 1_555
N2_5 N3_3 1_555 1_555
N2_5 C5_5 1_555 1_555
C4_5 C5_5 1_555 1_555
C12_6 C13_5 1_555 1_555
N8_4 N10_3 1_555 1_555
N8_4 C22_4 1_555 1_555
N9_3 N11_2 1_555 1_555
N9_3 C23_3 1_555 1_555
C20_4 C22_4 1_555 1_555
C21_3 C23_3 1_555 1_555
C32_3 C34_3 1_555 1_555
C33_3 C35_3 1_555 1_555
C36_3 C38_4 1_555 1_555
C37_3 C39_3 1_555 1_555
Ag1_6 N1_4 1_555 1_555
N1_4 C1_6 1_555 1_555
N2_6 H1_6 1_555 1_555
N3_4 Ag1_6 1_555 1_555
C1_6 H2_6 1_555 1_555
C2_6 C1_6 1_555 1_555
H3_6 C2_6 1_555 1_555
C3_6 C2_6 1_555 1_555
H4_6 C3_6 1_555 1_555
C4_6 C3_6 1_555 1_555
H5_6 C4_6 1_555 1_555
C5_6 N1_4 1_555 1_555
C6_4 N3_4 1_555 1_555
C7_4 C6_4 1_555 1_555
H6_4 C7_4 1_555 1_555
H7_4 C7_4 1_555 1_555
H8_4 C7_4 1_555 1_555
C8_4 C6_4 1_555 1_555
C9_4 C8_4 1_555 1_555
H9_4 C9_4 1_555 1_555
C13_6 C8_4 1_555 1_555
H12_6 C13_6 1_555 1_555
H33_4 C36_4 1_555 1_555
N2_6 N3_4 1_555 1_555
N2_6 C5_6 1_555 1_555
C4_6 C5_6 1_555 1_555
N7_7 Ag2_4 1_555 1_555
N12_7 Ag2_4 1_555 1_555
N7_8 Ag2_3 1_555 1_555
N12_8 Ag2_3 1_555 1_555
N7_9 Ag3_3 1_555 1_555
N12_9 Ag3_3 1_555 1_555
N7_10 Ag3_4 1_555 1_555
N12_10 Ag3_4 1_555 1_555
N7_6 C1_7 1_555 1_555
N2_7 H1_7 1_555 1_555
N4_4 C11_4 1_555 1_555
C1_7 H2_7 1_555 1_555
C2_7 C1_7 1_555 1_555
H3_7 C2_7 1_555 1_555
C3_7 C2_7 1_555 1_555
H4_7 C3_7 1_555 1_555
C4_7 C3_7 1_555 1_555
H5_7 C4_7 1_555 1_555
C5_7 N7_6 1_555 1_555
C6_5 N12_6 1_555 1_555
C7_5 C6_5 1_555 1_555
H6_5 C7_5 1_555 1_555
H7_5 C7_5 1_555 1_555
H8_5 C7_5 1_555 1_555
C8_5 C6_5 1_555 1_555
C9_5 C8_5 1_555 1_555
H9_5 C9_5 1_555 1_555
C10_4 C9_5 1_555 1_555
H10_4 C10_4 1_555 1_555
C11_4 C10_4 1_555 1_555
C12_7 C11_4 1_555 1_555
H11_7 C12_7 1_555 1_555
C13_7 C8_5 1_555 1_555
H12_7 C13_7 1_555 1_555
C27_7 C25_7 1_555 1_555
H24_7 C27_7 1_555 1_555
H26_7 C27_7 1_555 1_555
H28_7 C27_7 1_555 1_555
C29_7 C25_7 1_555 1_555
C31_7 C29_7 1_555 1_555
H30_7 C31_7 1_555 1_555
C33_4 C31_7 1_555 1_555
H31_4 C32_4 1_555 1_555
H32_4 C33_4 1_555 1_555
C34_4 N4_4 1_555 1_555
C35_4 N4_4 1_555 1_555
C36_5 C34_4 1_555 1_555
H33_5 C36_5 1_555 1_555
N2_7 N12_6 1_555 1_555
N2_7 C5_7 1_555 1_555
C4_7 C5_7 1_555 1_555
C12_7 C13_7 1_555 1_555
C32_4 C34_4 1_555 1_555
C33_4 C35_4 1_555 1_555
N4_5 C11_5 1_555 1_555
H10_5 C10_5 1_555 1_555
C11_5 C10_5 1_555 1_555
C12_8 C11_5 1_555 1_555
H11_8 C12_8 1_555 1_555
N7_10 C15_4 1_555 1_555
N9_4 H14_4 1_555 1_555
C15_4 H16_4 1_555 1_555
C17_4 C15_4 1_555 1_555
H18_4 C17_4 1_555 1_555
C19_4 C17_4 1_555 1_555
H20_4 C19_4 1_555 1_555
C21_4 C19_4 1_555 1_555
H22_4 C21_4 1_555 1_555
C23_4 N7_10 1_555 1_555
C25_8 N12_10 1_555 1_555
C26_4 C24_4 1_555 1_555
C27_8 C25_8 1_555 1_555
H23_4 C26_4 1_555 1_555
H24_8 C27_8 1_555 1_555
H25_4 C26_4 1_555 1_555
H26_8 C27_8 1_555 1_555
H27_4 C26_4 1_555 1_555
H28_8 C27_8 1_555 1_555
C28_4 C24_4 1_555 1_555
C29_8 C25_8 1_555 1_555
C30_4 C28_4 1_555 1_555
C31_8 C29_8 1_555 1_555
H29_4 C30_4 1_555 1_555
H30_8 C31_8 1_555 1_555
C32_5 C30_4 1_555 1_555
C33_5 C31_8 1_555 1_555
H31_5 C32_5 1_555 1_555
H32_5 C33_5 1_555 1_555
C34_5 N4_5 1_555 1_555
C35_5 N4_5 1_555 1_555
C37_4 C35_5 1_555 1_555
H34_4 C37_4 1_555 1_555
C39_4 C29_8 1_555 1_555
H36_4 C39_4 1_555 1_555
N9_4 N12_10 1_555 1_555
N9_4 C23_4 1_555 1_555
C21_4 C23_4 1_555 1_555
C32_5 C34_5 1_555 1_555
C33_5 C35_5 1_555 1_555
C37_4 C39_4 1_555 1_555
N7_5 C1_8 1_555 1_555
N2_8 H1_8 1_555 1_555
C1_8 H2_8 1_555 1_555
C2_8 C1_8 1_555 1_555
H3_8 C2_8 1_555 1_555
C3_8 C2_8 1_555 1_555
H4_8 C3_8 1_555 1_555
C4_8 C3_8 1_555 1_555
H5_8 C4_8 1_555 1_555
C5_8 N7_5 1_555 1_555
H12_8 C13_8 1_555 1_555
N2_8 N12_5 1_555 1_555
N2_8 C5_8 1_555 1_555
C4_8 C5_8 1_555 1_555
N7_7 C14_5 1_555 1_555
N8_5 H13_5 1_555 1_555
C14_5 H15_5 1_555 1_555
C16_5 C14_5 1_555 1_555
H17_5 C16_5 1_555 1_555
C18_5 C16_5 1_555 1_555
H19_5 C18_5 1_555 1_555
C20_5 C18_5 1_555 1_555
H21_5 C20_5 1_555 1_555
C22_5 N7_7 1_555 1_555
H35_5 C38_5 1_555 1_555
N8_5 N12_7 1_555 1_555
N8_5 C22_5 1_555 1_555
C20_5 C22_5 1_555 1_555
N7_9 C15_5 1_555 1_555
N9_5 H14_5 1_555 1_555
C15_5 H16_5 1_555 1_555
C17_5 C15_5 1_555 1_555
H18_5 C17_5 1_555 1_555
C19_5 C17_5 1_555 1_555
H20_5 C19_5 1_555 1_555
C21_5 C19_5 1_555 1_555
H22_5 C21_5 1_555 1_555
C23_5 N7_9 1_555 1_555
H36_5 C39_5 1_555 1_555
N9_5 N12_9 1_555 1_555
N9_5 C23_5 1_555 1_555
C21_5 C23_5 1_555 1_555
N4_6 C11_6 1_555 1_555
C7_6 C6_6 1_555 1_555
H6_6 C7_6 1_555 1_555
H7_6 C7_6 1_555 1_555
H8_6 C7_6 1_555 1_555
C8_6 C6_6 1_555 1_555
C9_6 C8_6 1_555 1_555
H9_6 C9_6 1_555 1_555
C10_6 C9_6 1_555 1_555
H10_6 C10_6 1_555 1_555
C11_6 C10_6 1_555 1_555
N7_8 C14_6 1_555 1_555
N8_6 H13_6 1_555 1_555
C14_6 H15_6 1_555 1_555
C16_6 C14_6 1_555 1_555
H17_6 C16_6 1_555 1_555
C18_6 C16_6 1_555 1_555
H19_6 C18_6 1_555 1_555
C20_6 C18_6 1_555 1_555
H21_6 C20_6 1_555 1_555
C22_6 N7_8 1_555 1_555
C24_5 N12_8 1_555 1_555
C26_5 C24_5 1_555 1_555
H23_5 C26_5 1_555 1_555
H25_5 C26_5 1_555 1_555
H27_5 C26_5 1_555 1_555
C28_5 C24_5 1_555 1_555
C30_5 C28_5 1_555 1_555
H29_5 C30_5 1_555 1_555
C32_6 C30_5 1_555 1_555
H31_6 C32_6 1_555 1_555
H32_6 C33_6 1_555 1_555
C34_6 N4_6 1_555 1_555
C35_6 N4_6 1_555 1_555
C36_6 C34_6 1_555 1_555
C37_5 C35_6 1_555 1_555
H33_6 C36_6 1_555 1_555
H34_5 C37_5 1_555 1_555
C38_6 C28_5 1_555 1_555
H35_6 C38_6 1_555 1_555
N8_6 N12_8 1_555 1_555
N8_6 C22_6 1_555 1_555
C20_6 C22_6 1_555 1_555
C32_6 C34_6 1_555 1_555
C33_6 C35_6 1_555 1_555
C36_6 C38_6 1_555 1_555
N4_7 C11_7 1_555 1_555
C7_7 C6_7 1_555 1_555
H6_7 C7_7 1_555 1_555
H7_7 C7_7 1_555 1_555
H8_7 C7_7 1_555 1_555
C8_7 C6_7 1_555 1_555
C9_7 C8_7 1_555 1_555
H9_7 C9_7 1_555 1_555
C10_7 C9_7 1_555 1_555
H10_7 C10_7 1_555 1_555
C11_7 C10_7 1_555 1_555
H31_7 C32_7 1_555 1_555
H32_7 C33_7 1_555 1_555
C34_7 N4_7 1_555 1_555
C35_7 N4_7 1_555 1_555
C36_7 C34_7 1_555 1_555
H33_7 C36_7 1_555 1_555
C32_7 C34_7 1_555 1_555
C33_7 C35_7 1_555 1_555
Ag3_5 N6_3 1_555 1_555
N6_3 C15_6 1_555 1_555
N9_6 H14_6 1_555 1_555
N11_3 Ag3_5 1_555 1_555
C15_6 H16_6 1_555 1_555
C17_6 C15_6 1_555 1_555
H18_6 C17_6 1_555 1_555
C19_6 C17_6 1_555 1_555
H20_6 C19_6 1_555 1_555
C21_6 C19_6 1_555 1_555
H22_6 C21_6 1_555 1_555
C23_6 N6_3 1_555 1_555
C26_6 C24_6 1_555 1_555
H23_6 C26_6 1_555 1_555
H25_6 C26_6 1_555 1_555
H27_6 C26_6 1_555 1_555
C28_6 C24_6 1_555 1_555
C30_6 C28_6 1_555 1_555
H29_6 C30_6 1_555 1_555
H34_6 C37_6 1_555 1_555
H36_6 C39_6 1_555 1_555
N9_6 N11_3 1_555 1_555
N9_6 C23_6 1_555 1_555
C21_6 C23_6 1_555 1_555
C37_6 C39_6 1_555 1_555
N7_11 Ag2_5 1_555 1_555
N12_11 Ag2_5 1_555 1_555
N7_12 Ag3_5 1_555 1_555
N12_12 Ag3_5 1_555 1_555
N7_11 C14_7 1_555 1_555
N7_12 C15_7 1_555 1_555
N8_7 H13_7 1_555 1_555
N9_7 H14_7 1_555 1_555
C14_7 H15_7 1_555 1_555
C15_7 H16_7 1_555 1_555
C16_7 C14_7 1_555 1_555
C17_7 C15_7 1_555 1_555
H17_7 C16_7 1_555 1_555
H18_7 C17_7 1_555 1_555
C18_7 C16_7 1_555 1_555
C19_7 C17_7 1_555 1_555
H19_7 C18_7 1_555 1_555
H20_7 C19_7 1_555 1_555
C20_7 C18_7 1_555 1_555
C21_7 C19_7 1_555 1_555
H21_7 C20_7 1_555 1_555
H22_7 C21_7 1_555 1_555
C22_7 N7_11 1_555 1_555
C23_7 N7_12 1_555 1_555
C24_7 N12_11 1_555 1_555
C26_7 C24_7 1_555 1_555
H23_7 C26_7 1_555 1_555
H25_7 C26_7 1_555 1_555
H27_7 C26_7 1_555 1_555
C28_7 C24_7 1_555 1_555
C30_7 C28_7 1_555 1_555
H29_7 C30_7 1_555 1_555
H34_7 C37_7 1_555 1_555
C38_7 C28_7 1_555 1_555
H35_7 C38_7 1_555 1_555
H36_7 C39_7 1_555 1_555
N8_7 N12_11 1_555 1_555
N8_7 C22_7 1_555 1_555
N9_7 N12_12 1_555 1_555
N9_7 C23_7 1_555 1_555
C20_7 C22_7 1_555 1_555
C21_7 C23_7 1_555 1_555
C37_7 C39_7 1_555 1_555
Ag3_6 N6_4 1_555 1_555
N6_4 C15_8 1_555 1_555
N9_8 H14_8 1_555 1_555
N11_4 Ag3_6 1_555 1_555
C15_8 H16_8 1_555 1_555
C17_8 C15_8 1_555 1_555
H18_8 C17_8 1_555 1_555
C19_8 C17_8 1_555 1_555
H20_8 C19_8 1_555 1_555
C21_8 C19_8 1_555 1_555
H22_8 C21_8 1_555 1_555
C23_8 N6_4 1_555 1_555
H36_8 C39_8 1_555 1_555
N9_8 N11_4 1_555 1_555
N9_8 C23_8 1_555 1_555
C21_8 C23_8 1_555 1_555
C26_8 C24_8 1_555 1_555
H23_8 C26_8 1_555 1_555
H25_8 C26_8 1_555 1_555
H27_8 C26_8 1_555 1_555
C28_8 C24_8 1_555 1_555
C30_8 C28_8 1_555 1_555
H29_8 C30_8 1_555 1_555
H34_8 C37_8 1_555 1_555
Ag2_6 N5_4 1_555 1_555
N5_4 C14_8 1_555 1_555
N8_8 H13_8 1_555 1_555
N10_4 Ag2_6 1_555 1_555
C14_8 H15_8 1_555 1_555
C16_8 C14_8 1_555 1_555
H17_8 C16_8 1_555 1_555
C18_8 C16_8 1_555 1_555
H19_8 C18_8 1_555 1_555
C20_8 C18_8 1_555 1_555
H21_8 C20_8 1_555 1_555
C22_8 N5_4 1_555 1_555
H35_8 C38_8 1_555 1_555
N8_8 N10_4 1_555 1_555
N8_8 C22_8 1_555 1_555
C20_8 C22_8 1_555 1_555
C7_8 C6_8 1_555 1_555
H6_8 C7_8 1_555 1_555
H7_8 C7_8 1_555 1_555
H8_8 C7_8 1_555 1_555
C8_8 C6_8 1_555 1_555
C9_8 C8_8 1_555 1_555
H9_8 C9_8 1_555 1_555
H33_8 C36_8 1_555 1_555
N4_8 C11_8 1_555 1_555
H10_8 C10_8 1_555 1_555
C11_8 C10_8 1_555 1_555
H31_8 C32_8 1_555 1_555
H32_8 C33_8 1_555 1_555
C34_8 N4_8 1_555 1_555
C35_8 N4_8 1_555 1_555
C32_8 C34_8 1_555 1_555
C33_8 C35_8 1_555 1_555

#END
