
###############################################################################
#
# This file contains modified crystal structure data generated from the
# MOF subset of the Cambridge Structural Database (CSD) v543 
# hosted by the Cambridge Crystallographic Data Centre (CCDC).
#
# This work is licensed under the Creative Commons
# Attribution-NonCommercial-ShareAlike 4.0 International License.
# To view a copy of this license, visit
# http://creativecommons.org/licenses/by-nc-sa/4.0/
# or send a letter to
# Creative Commons, PO Box 1866, Mountain View, CA 94042, USA.
#
# CIF created using the CSD Python API on 29 September 2022
# The structure has been converted into the P1 space group
# The structure has a 3D framework
# The original CSD entry ADATAC is in the cubic crystal system
# The framework has been calculated to contain at least 10.0% void space
# The void calculation uses a probe of radius 1.32A, grid spacing 0.4
# H atom positions have been added when not included in the experimental data
# Generated hydrogen atom positions removed from atoms on special positions
#
###############################################################################

data_ADATAC
_chemical_formula_moiety         '(C1632 H1728 N192 O624 Zn144)n'
_symmetry_cell_setting           triclinic
_symmetry_space_group_name_H-M   'P 1'
_symmetry_Int_Tables_number      1
_space_group_name_Hall           'P 1'
loop_
_symmetry_equiv_pos_site_id
_symmetry_equiv_pos_as_xyz
1 x,y,z
_cell_length_a                   56.798(9)
_cell_length_b                   56.798(9)
_cell_length_c                   56.798(9)
_cell_angle_alpha                90
_cell_angle_beta                 90
_cell_angle_gamma                90
_cell_volume                     183231
loop_
_atom_site_label
_atom_site_type_symbol
_atom_site_fract_x
_atom_site_fract_y
_atom_site_fract_z
Zn1 Zn 0.09684(7) 0.09906(7) 0.5000
Zn2 Zn 0.13575(8) 0.13436(7) 0.5000
O1 O 0.0212(2) 0.14783(19) 0.3888(2)
O2 O 0.0214(2) 0.1188(2) 0.4144(2)
O3 O 0.1131(2) 0.14586(19) 0.47337(19)
O4 O 0.08487(17) 0.12005(18) 0.47457(18)
O5 O 0.1613(3) 0.1570(2) 0.5000
O6 O 0.0702(3) 0.0771(3) 0.5000
C1 C 0.0940(2) 0.13800(19) 0.46540(18)
C2 C 0.0821(2) 0.1496(2) 0.44509(17)
C3 C 0.06266(19) 0.13883(19) 0.43572(17)
H1 H 0.0572 0.1244 0.4421
C4 C 0.05118(17) 0.1488(2) 0.4173(2)
C5 C 0.03000(18) 0.1376(2) 0.4064(2)
C6 C 0.05911(18) 0.16956(19) 0.40809(19)
H2 H 0.0511 0.1765 0.3952
C7 C 0.0785(2) 0.1804(2) 0.4174(2)
C8 C 0.0902(2) 0.17086(19) 0.43578(17)
H3 H 0.1036 0.1784 0.4422
N1 N 0.0859(2) 0.20191(18) 0.4071(2)
N2 N 0.0958(2) 0.2161(2) 0.4198(3)
C9 C 0.10287(19) 0.2377(2) 0.4085(3)
C10 C 0.1172(2) 0.2524(3) 0.4220(3)
H4 H 0.1217 0.2482 0.4375
C11 C 0.1246(3) 0.2733(3) 0.4122(3)
H5 H 0.1344 0.2835 0.4212
C12 C 0.1181(2) 0.2798(3) 0.3895(3)
C13 C 0.1041(3) 0.2649(3) 0.3771(3)
H6 H 0.0996 0.2691 0.3616
C14 C 0.0961(3) 0.2430(3) 0.3866(3)
H7 H 0.0863 0.2327 0.3778
O7 O 0.1267(3) 0.3009(3) 0.3821(3)
C15 C 0.1208(3) 0.3096(2) 0.3597(3)
H8 H 0.1041 0.3144 0.3594
H9 H 0.1232 0.2972 0.3477
C16 C 0.1362(3) 0.3304(2) 0.3543(3)
C17 C 0.1313(2) 0.3446(3) 0.3351(2)
H10 H 0.1182 0.3413 0.3253
Zn3 Zn -0.0000 0.40316(7) 0.09906(7)
Zn4 Zn 0.40094(7) 0.5000 0.40316(7)
Zn5 Zn -0.0000 0.09684(7) 0.40094(7)
Zn6 Zn 0.09906(7) 0.5000 0.09684(7)
Zn7 Zn 0.40316(7) 0.40094(7) 0.5000
Zn8 Zn 0.09906(7) -0.0000 0.40316(7)
Zn9 Zn 0.5000 0.40316(7) 0.40094(7)
Zn10 Zn 0.5000 0.09684(7) 0.09906(7)
Zn11 Zn 0.40094(7) -0.0000 0.09684(7)
Zn12 Zn -0.0000 0.36425(8) 0.13436(7)
Zn13 Zn 0.36564(7) 0.5000 0.36425(8)
Zn14 Zn -0.0000 0.13575(8) 0.36564(7)
Zn15 Zn 0.13436(7) 0.5000 0.13575(8)
Zn16 Zn 0.36425(8) 0.36564(7) 0.5000
Zn17 Zn 0.13436(7) -0.0000 0.36425(8)
Zn18 Zn 0.5000 0.36425(8) 0.36564(7)
Zn19 Zn 0.5000 0.13575(8) 0.13436(7)
Zn20 Zn 0.36564(7) -0.0000 0.13575(8)
O8 O 0.1112(2) 0.4788(2) 0.14783(19)
O9 O 0.35217(19) 0.3888(2) 0.4788(2)
O10 O 0.14783(19) 0.1112(2) 0.4788(2)
O11 O 0.4788(2) 0.35217(19) 0.3888(2)
O12 O 0.3888(2) 0.0212(2) 0.14783(19)
O13 O 0.14783(19) 0.1112(2) 0.5212(2)
O14 O 0.0212(2) 0.35217(19) 0.1112(2)
O16 O 0.3888(2) 0.4788(2) 0.35217(19)
O17 O 0.3888(2) 0.5212(2) 0.35217(19)
O18 O 0.0856(2) 0.4786(2) 0.1188(2)
O19 O 0.3812(2) 0.4144(2) 0.4786(2)
O20 O 0.1188(2) 0.0856(2) 0.4786(2)
O21 O 0.4786(2) 0.3812(2) 0.4144(2)
O22 O 0.4144(2) 0.0214(2) 0.1188(2)
O23 O 0.1188(2) 0.0856(2) 0.5214(2)
O24 O 0.0214(2) 0.3812(2) 0.0856(2)
O26 O 0.4144(2) 0.4786(2) 0.3812(2)
O27 O 0.4144(2) 0.5214(2) 0.3812(2)
O28 O 0.02663(19) 0.3869(2) 0.14586(19)
O29 O 0.35414(19) 0.47337(19) 0.3869(2)
O30 O 0.14586(19) 0.02663(19) 0.3869(2)
O31 O 0.3869(2) 0.35414(19) 0.47337(19)
O32 O 0.47337(19) 0.1131(2) 0.14586(19)
O33 O 0.1131(2) 0.14586(19) 0.52663(19)
O35 O 0.35414(19) 0.52663(19) 0.3869(2)
O36 O 0.02543(18) 0.41513(17) 0.12005(18)
O37 O 0.37995(18) 0.47457(18) 0.41513(17)
O38 O 0.12005(18) 0.02543(18) 0.41513(17)
O39 O 0.41513(17) 0.37995(18) 0.47457(18)
O40 O 0.47457(18) 0.08487(17) 0.12005(18)
O41 O 0.08487(17) 0.12005(18) 0.52543(18)
O43 O 0.37995(18) 0.52543(18) 0.41513(17)
O44 O -0.0000 0.3387(3) 0.1570(2)
O45 O 0.3430(2) 0.5000 0.3387(3)
O46 O -0.0000 0.4298(3) 0.0771(3)
O47 O 0.4229(3) 0.5000 0.4298(3)
C18 C 0.03460(18) 0.4060(2) 0.13800(19)
C19 C 0.36200(19) 0.46540(18) 0.4060(2)
C20 C 0.13800(19) 0.03460(18) 0.4060(2)
C21 C 0.4060(2) 0.36200(19) 0.46540(18)
C22 C 0.46540(18) 0.0940(2) 0.13800(19)
C23 C 0.05491(17) 0.4179(2) 0.1496(2)
C24 C 0.3504(2) 0.44509(17) 0.4179(2)
C25 C 0.1496(2) 0.05491(17) 0.4179(2)
C26 C 0.4179(2) 0.3504(2) 0.44509(17)
C27 C 0.44509(17) 0.0821(2) 0.1496(2)
C28 C 0.06428(17) 0.43734(19) 0.13883(19)
C29 C 0.36117(19) 0.43572(17) 0.43734(19)
C30 C 0.13883(19) 0.06428(17) 0.43734(19)
C31 C 0.43734(19) 0.36117(19) 0.43572(17)
C32 C 0.43572(17) 0.06266(19) 0.13883(19)
H11 H 0.0579 0.4428 0.1244
H12 H 0.3756 0.4421 0.4428
H13 H 0.1244 0.0579 0.4428
H14 H 0.4428 0.3756 0.4421
H15 H 0.4421 0.0572 0.1244
C33 C 0.0827(2) 0.44882(17) 0.1488(2)
C34 C 0.3512(2) 0.4173(2) 0.44882(17)
C35 C 0.1488(2) 0.0827(2) 0.44882(17)
C36 C 0.44882(17) 0.3512(2) 0.4173(2)
C37 C 0.4173(2) 0.05118(17) 0.1488(2)
C38 C 0.0936(2) 0.47000(18) 0.1376(2)
C39 C 0.3624(2) 0.4064(2) 0.47000(18)
C40 C 0.1376(2) 0.0936(2) 0.47000(18)
C41 C 0.47000(18) 0.3624(2) 0.4064(2)
C42 C 0.4064(2) 0.03000(18) 0.1376(2)
C43 C 0.09191(19) 0.44089(18) 0.16956(19)
C44 C 0.33044(19) 0.40809(19) 0.44089(18)
C45 C 0.16956(19) 0.09191(19) 0.44089(18)
C46 C 0.44089(18) 0.33044(19) 0.40809(19)
C47 C 0.40809(19) 0.05911(18) 0.16956(19)
H16 H 0.1048 0.4489 0.1765
H17 H 0.3235 0.3952 0.4489
H18 H 0.1765 0.1048 0.4489
H19 H 0.4489 0.3235 0.3952
H20 H 0.3952 0.0511 0.1765
C48 C 0.0826(2) 0.4215(2) 0.1804(2)
C49 C 0.3196(2) 0.4174(2) 0.4215(2)
C50 C 0.1804(2) 0.0826(2) 0.4215(2)
C51 C 0.4215(2) 0.3196(2) 0.4174(2)
C52 C 0.4174(2) 0.0785(2) 0.1804(2)
C53 C 0.06422(17) 0.4098(2) 0.17086(19)
C54 C 0.32914(19) 0.43578(17) 0.4098(2)
C55 C 0.17086(19) 0.06422(17) 0.4098(2)
C56 C 0.4098(2) 0.32914(19) 0.43578(17)
C57 C 0.43578(17) 0.0902(2) 0.17086(19)
H21 H 0.0578 0.3964 0.1784
H22 H 0.3216 0.4422 0.3964
H23 H 0.1784 0.0578 0.3964
H24 H 0.3964 0.3216 0.4422
H25 H 0.4422 0.1036 0.1784
N3 N 0.0929(2) 0.4141(2) 0.20191(18)
N4 N 0.29809(18) 0.4071(2) 0.4141(2)
N5 N 0.20191(18) 0.0929(2) 0.4141(2)
N6 N 0.4141(2) 0.29809(18) 0.4071(2)
N7 N 0.4071(2) 0.0859(2) 0.20191(18)
N8 N 0.0802(3) 0.4042(2) 0.2161(2)
N9 N 0.2839(2) 0.4198(3) 0.4042(2)
N10 N 0.2161(2) 0.0802(3) 0.4042(2)
N11 N 0.4042(2) 0.2839(2) 0.4198(3)
N12 N 0.4198(3) 0.0958(2) 0.2161(2)
C58 C 0.0915(3) 0.39713(19) 0.2377(2)
C59 C 0.2623(2) 0.4085(3) 0.39713(19)
C60 C 0.2377(2) 0.0915(3) 0.39713(19)
C61 C 0.39713(19) 0.2623(2) 0.4085(3)
C62 C 0.4085(3) 0.10287(19) 0.2377(2)
C63 C 0.0780(3) 0.3828(2) 0.2524(3)
C64 C 0.2476(3) 0.4220(3) 0.3828(2)
C65 C 0.2524(3) 0.0780(3) 0.3828(2)
C66 C 0.3828(2) 0.2476(3) 0.4220(3)
C67 C 0.4220(3) 0.1172(2) 0.2524(3)
H26 H 0.0625 0.3783 0.2482
H27 H 0.2518 0.4375 0.3783
H28 H 0.2482 0.0625 0.3783
H29 H 0.3783 0.2518 0.4375
H30 H 0.4375 0.1217 0.2482
C68 C 0.0878(3) 0.3754(3) 0.2733(3)
C69 C 0.2267(3) 0.4122(3) 0.3754(3)
C70 C 0.2733(3) 0.0878(3) 0.3754(3)
C71 C 0.3754(3) 0.2267(3) 0.4122(3)
C72 C 0.4122(3) 0.1246(3) 0.2733(3)
H31 H 0.0788 0.3656 0.2835
H32 H 0.2165 0.4212 0.3656
H33 H 0.2835 0.0788 0.3656
H34 H 0.3656 0.2165 0.4212
H35 H 0.4212 0.1344 0.2835
C73 C 0.1105(3) 0.3819(2) 0.2798(3)
C74 C 0.2202(3) 0.3895(3) 0.3819(2)
C75 C 0.2798(3) 0.1105(3) 0.3819(2)
C76 C 0.3819(2) 0.2202(3) 0.3895(3)
C77 C 0.3895(3) 0.1181(2) 0.2798(3)
C78 C 0.1229(3) 0.3959(3) 0.2649(3)
C79 C 0.2351(3) 0.3771(3) 0.3959(3)
C80 C 0.2649(3) 0.1229(3) 0.3959(3)
C81 C 0.3959(3) 0.2351(3) 0.3771(3)
C82 C 0.3771(3) 0.1041(3) 0.2649(3)
H36 H 0.1384 0.4004 0.2691
H37 H 0.2309 0.3616 0.4004
H38 H 0.2691 0.1384 0.4004
H39 H 0.4004 0.2309 0.3616
H40 H 0.3616 0.0996 0.2691
C83 C 0.1134(3) 0.4039(3) 0.2430(3)
C84 C 0.2570(3) 0.3866(3) 0.4039(3)
C85 C 0.2430(3) 0.1134(3) 0.4039(3)
C86 C 0.4039(3) 0.2570(3) 0.3866(3)
C87 C 0.3866(3) 0.0961(3) 0.2430(3)
H41 H 0.1222 0.4137 0.2327
H42 H 0.2673 0.3778 0.4137
H43 H 0.2327 0.1222 0.4137
H44 H 0.4137 0.2673 0.3778
H45 H 0.3778 0.0863 0.2327
O48 O 0.1179(3) 0.3733(3) 0.3009(3)
O49 O 0.1991(3) 0.3821(3) 0.3733(3)
O50 O 0.3009(3) 0.1179(3) 0.3733(3)
O51 O 0.3733(3) 0.1991(3) 0.3821(3)
O52 O 0.3821(3) 0.1267(3) 0.3009(3)
C88 C 0.1403(3) 0.3792(3) 0.3096(2)
C89 C 0.1904(2) 0.3597(3) 0.3792(3)
C90 C 0.3096(2) 0.1403(3) 0.3792(3)
C91 C 0.3792(3) 0.1904(2) 0.3597(3)
C92 C 0.3597(3) 0.1208(3) 0.3096(2)
H46 H 0.1406 0.3959 0.3144
H47 H 0.1856 0.3594 0.3959
H48 H 0.3144 0.1406 0.3959
H49 H 0.3959 0.1856 0.3594
H50 H 0.3594 0.1041 0.3144
H51 H 0.1523 0.3768 0.2972
H52 H 0.2028 0.3477 0.3768
H53 H 0.2972 0.1523 0.3768
H54 H 0.3768 0.2028 0.3477
H55 H 0.3477 0.1232 0.2972
C93 C 0.1457(3) 0.3638(3) 0.3304(2)
C94 C 0.1696(2) 0.3543(3) 0.3638(3)
C95 C 0.3304(2) 0.1457(3) 0.3638(3)
C96 C 0.3638(3) 0.1696(2) 0.3543(3)
C97 C 0.3543(3) 0.1362(3) 0.3304(2)
C98 C 0.1649(2) 0.3687(2) 0.3446(3)
C99 C 0.1554(3) 0.3351(2) 0.3687(2)
C100 C 0.3446(3) 0.1649(2) 0.3687(2)
C101 C 0.3687(2) 0.1554(3) 0.3351(2)
C102 C 0.3351(2) 0.1313(2) 0.3446(3)
H56 H 0.1587 0.3253 0.3818
H57 H 0.1747 0.3818 0.3413
H58 H 0.3413 0.1747 0.3818
H59 H 0.3253 0.1182 0.3413
H60 H 0.3818 0.1587 0.3253
Zn8_2 Zn 0.09906(7) 1.0000 0.40316(7)
Zn11_2 Zn 0.40094(7) 1.0000 0.09684(7)
Zn17_2 Zn 0.13436(7) 1.0000 0.36425(8)
Zn20_2 Zn 0.36564(7) 1.0000 0.13575(8)
Zn3_2 Zn 1.0000 0.40316(7) 0.09906(7)
Zn5_2 Zn 1.0000 0.09684(7) 0.40094(7)
Zn12_2 Zn 1.0000 0.36425(8) 0.13436(7)
Zn14_2 Zn 1.0000 0.13575(8) 0.36564(7)
O15 O 0.9788(2) 0.35217(19) 0.1112(2)
O25 O 0.9786(2) 0.3812(2) 0.0856(2)
O34 O 0.97337(19) 0.3869(2) 0.14586(19)
O42 O 0.97457(18) 0.41513(17) 0.12005(18)
O44_2 O 1.0000 0.3387(3) 0.1570(2)
O46_2 O 1.0000 0.4298(3) 0.0771(3)
Zn3_3 Zn 0.0000 0.59684(7) 0.09906(7)
Zn5_3 Zn 0.0000 0.90316(7) 0.40094(7)
Zn12_3 Zn 0.0000 0.63575(8) 0.13436(7)
Zn14_3 Zn 0.0000 0.86425(8) 0.36564(7)
O15_2 O 0.0212(2) 0.64783(19) 0.1112(2)
O25_2 O 0.0214(2) 0.6188(2) 0.0856(2)
O34_2 O 0.02663(19) 0.6131(2) 0.14586(19)
O42_2 O 0.02543(18) 0.58487(17) 0.12005(18)
O44_3 O 0.0000 0.6613(3) 0.1570(2)
O46_3 O 0.0000 0.5702(3) 0.0771(3)
Zn8_3 Zn 0.90094(7) 0.0000 0.40316(7)
Zn11_3 Zn 0.59906(7) 0.0000 0.09684(7)
Zn17_3 Zn 0.86564(7) 0.0000 0.36425(8)
Zn20_3 Zn 0.63436(7) 0.0000 0.13575(8)
Zn1_2 Zn 0.90316(7) 0.90094(7) 0.5000
Zn2_2 Zn 0.86425(8) 0.86564(7) 0.5000
O1_2 O 0.9788(2) 0.85217(19) 0.3888(2)
O2_2 O 0.9786(2) 0.8812(2) 0.4144(2)
O3_2 O 0.8869(2) 0.85414(19) 0.47337(19)
O4_2 O 0.91513(17) 0.87995(18) 0.47457(18)
O5_2 O 0.8387(3) 0.8430(2) 0.5000
O6_2 O 0.9298(3) 0.9229(3) 0.5000
C1_2 C 0.9060(2) 0.86200(19) 0.46540(18)
C2_2 C 0.9179(2) 0.8504(2) 0.44509(17)
C3_2 C 0.93734(19) 0.86117(19) 0.43572(17)
H1_2 H 0.9428 0.8756 0.4421
C4_2 C 0.94882(17) 0.8512(2) 0.4173(2)
C5_2 C 0.97000(18) 0.8624(2) 0.4064(2)
C6_2 C 0.94089(18) 0.83044(19) 0.40809(19)
H2_2 H 0.9489 0.8235 0.3952
C7_2 C 0.9215(2) 0.8196(2) 0.4174(2)
C8_2 C 0.9098(2) 0.82914(19) 0.43578(17)
H3_2 H 0.8964 0.8216 0.4422
N1_2 N 0.9141(2) 0.79809(18) 0.4071(2)
N2_2 N 0.9042(2) 0.7839(2) 0.4198(3)
C9_2 C 0.89713(19) 0.7623(2) 0.4085(3)
C10_2 C 0.8828(2) 0.7476(3) 0.4220(3)
H4_2 H 0.8783 0.7518 0.4375
C11_2 C 0.8754(3) 0.7267(3) 0.4122(3)
H5_2 H 0.8656 0.7165 0.4212
C12_2 C 0.8819(2) 0.7202(3) 0.3895(3)
C13_2 C 0.8959(3) 0.7351(3) 0.3771(3)
H6_2 H 0.9004 0.7309 0.3616
C14_2 C 0.9039(3) 0.7570(3) 0.3866(3)
H7_2 H 0.9137 0.7673 0.3778
O7_2 O 0.8733(3) 0.6991(3) 0.3821(3)
C15_2 C 0.8792(3) 0.6904(2) 0.3597(3)
H8_2 H 0.8959 0.6856 0.3594
H9_2 H 0.8768 0.7028 0.3477
C16_2 C 0.8638(3) 0.6696(2) 0.3543(3)
C17_2 C 0.8687(2) 0.6554(3) 0.3351(2)
H10_2 H 0.8818 0.6587 0.3253
Zn3_4 Zn 1.0000 0.59684(7) 0.09906(7)
Zn4_2 Zn 0.59906(7) 0.5000 0.40316(7)
Zn5_4 Zn 1.0000 0.90316(7) 0.40094(7)
Zn6_2 Zn 0.90094(7) 0.5000 0.09684(7)
Zn7_2 Zn 0.59684(7) 0.59906(7) 0.5000
Zn8_4 Zn 0.90094(7) 1.0000 0.40316(7)
Zn9_2 Zn 0.5000 0.59684(7) 0.40094(7)
Zn10_2 Zn 0.5000 0.90316(7) 0.09906(7)
Zn11_4 Zn 0.59906(7) 1.0000 0.09684(7)
Zn12_4 Zn 1.0000 0.63575(8) 0.13436(7)
Zn13_2 Zn 0.63436(7) 0.5000 0.36425(8)
Zn14_4 Zn 1.0000 0.86425(8) 0.36564(7)
Zn15_2 Zn 0.86564(7) 0.5000 0.13575(8)
Zn16_2 Zn 0.63575(8) 0.63436(7) 0.5000
Zn17_4 Zn 0.86564(7) 1.0000 0.36425(8)
Zn18_2 Zn 0.5000 0.63575(8) 0.36564(7)
Zn19_2 Zn 0.5000 0.86425(8) 0.13436(7)
Zn20_4 Zn 0.63436(7) 1.0000 0.13575(8)
O8_2 O 0.8888(2) 0.5212(2) 0.14783(19)
O9_2 O 0.64783(19) 0.6112(2) 0.4788(2)
O10_2 O 0.85217(19) 0.8888(2) 0.4788(2)
O11_2 O 0.5212(2) 0.64783(19) 0.3888(2)
O12_2 O 0.6112(2) 0.9788(2) 0.14783(19)
O13_2 O 0.85217(19) 0.8888(2) 0.5212(2)
O14_2 O 0.9788(2) 0.64783(19) 0.1112(2)
O16_2 O 0.6112(2) 0.5212(2) 0.35217(19)
O17_2 O 0.6112(2) 0.4788(2) 0.35217(19)
O18_2 O 0.9144(2) 0.5214(2) 0.1188(2)
O19_2 O 0.6188(2) 0.5856(2) 0.4786(2)
O20_2 O 0.8812(2) 0.9144(2) 0.4786(2)
O21_2 O 0.5214(2) 0.6188(2) 0.4144(2)
O22_2 O 0.5856(2) 0.9786(2) 0.1188(2)
O23_2 O 0.8812(2) 0.9144(2) 0.5214(2)
O24_2 O 0.9786(2) 0.6188(2) 0.0856(2)
O26_2 O 0.5856(2) 0.5214(2) 0.3812(2)
O27_2 O 0.5856(2) 0.4786(2) 0.3812(2)
O28_2 O 0.97337(19) 0.6131(2) 0.14586(19)
O29_2 O 0.64586(19) 0.52663(19) 0.3869(2)
O30_2 O 0.85414(19) 0.97337(19) 0.3869(2)
O31_2 O 0.6131(2) 0.64586(19) 0.47337(19)
O32_2 O 0.52663(19) 0.8869(2) 0.14586(19)
O33_2 O 0.8869(2) 0.85414(19) 0.52663(19)
O35_2 O 0.64586(19) 0.47337(19) 0.3869(2)
O36_2 O 0.97457(18) 0.58487(17) 0.12005(18)
O37_2 O 0.62005(18) 0.52543(18) 0.41513(17)
O38_2 O 0.87995(18) 0.97457(18) 0.41513(17)
O39_2 O 0.58487(17) 0.62005(18) 0.47457(18)
O40_2 O 0.52543(18) 0.91513(17) 0.12005(18)
O41_2 O 0.91513(17) 0.87995(18) 0.52543(18)
O43_2 O 0.62005(18) 0.47457(18) 0.41513(17)
O44_4 O 1.0000 0.6613(3) 0.1570(2)
O45_2 O 0.6570(2) 0.5000 0.3387(3)
O46_4 O 1.0000 0.5702(3) 0.0771(3)
O47_2 O 0.5771(3) 0.5000 0.4298(3)
C18_2 C 0.96540(18) 0.5940(2) 0.13800(19)
C19_2 C 0.63800(19) 0.53460(18) 0.4060(2)
C20_2 C 0.86200(19) 0.96540(18) 0.4060(2)
C21_2 C 0.5940(2) 0.63800(19) 0.46540(18)
C22_2 C 0.53460(18) 0.9060(2) 0.13800(19)
C23_2 C 0.94509(17) 0.5821(2) 0.1496(2)
C24_2 C 0.6496(2) 0.55491(17) 0.4179(2)
C25_2 C 0.8504(2) 0.94509(17) 0.4179(2)
C26_2 C 0.5821(2) 0.6496(2) 0.44509(17)
C27_2 C 0.55491(17) 0.9179(2) 0.1496(2)
C28_2 C 0.93572(17) 0.56266(19) 0.13883(19)
C29_2 C 0.63883(19) 0.56428(17) 0.43734(19)
C30_2 C 0.86117(19) 0.93572(17) 0.43734(19)
C31_2 C 0.56266(19) 0.63883(19) 0.43572(17)
C32_2 C 0.56428(17) 0.93734(19) 0.13883(19)
H11_2 H 0.9421 0.5572 0.1244
H12_2 H 0.6244 0.5579 0.4428
H13_2 H 0.8756 0.9421 0.4428
H14_2 H 0.5572 0.6244 0.4421
H15_2 H 0.5579 0.9428 0.1244
C33_2 C 0.9173(2) 0.55118(17) 0.1488(2)
C34_2 C 0.6488(2) 0.5827(2) 0.44882(17)
C35_2 C 0.8512(2) 0.9173(2) 0.44882(17)
C36_2 C 0.55118(17) 0.6488(2) 0.4173(2)
C37_2 C 0.5827(2) 0.94882(17) 0.1488(2)
C38_2 C 0.9064(2) 0.53000(18) 0.1376(2)
C39_2 C 0.6376(2) 0.5936(2) 0.47000(18)
C40_2 C 0.8624(2) 0.9064(2) 0.47000(18)
C41_2 C 0.53000(18) 0.6376(2) 0.4064(2)
C42_2 C 0.5936(2) 0.97000(18) 0.1376(2)
C43_2 C 0.90809(19) 0.55911(18) 0.16956(19)
C44_2 C 0.66956(19) 0.59191(19) 0.44089(18)
C45_2 C 0.83044(19) 0.90809(19) 0.44089(18)
C46_2 C 0.55911(18) 0.66956(19) 0.40809(19)
C47_2 C 0.59191(19) 0.94089(18) 0.16956(19)
H16_2 H 0.8952 0.5511 0.1765
H17_2 H 0.6765 0.6048 0.4489
H18_2 H 0.8235 0.8952 0.4489
H19_2 H 0.5511 0.6765 0.3952
H20_2 H 0.6048 0.9489 0.1765
C48_2 C 0.9174(2) 0.5785(2) 0.1804(2)
C49_2 C 0.6804(2) 0.5826(2) 0.4215(2)
C50_2 C 0.8196(2) 0.9174(2) 0.4215(2)
C51_2 C 0.5785(2) 0.6804(2) 0.4174(2)
C52_2 C 0.5826(2) 0.9215(2) 0.1804(2)
C53_2 C 0.93578(17) 0.5902(2) 0.17086(19)
C54_2 C 0.67086(19) 0.56422(17) 0.4098(2)
C55_2 C 0.82914(19) 0.93578(17) 0.4098(2)
C56_2 C 0.5902(2) 0.67086(19) 0.43578(17)
C57_2 C 0.56422(17) 0.9098(2) 0.17086(19)
H21_2 H 0.9422 0.6036 0.1784
H22_2 H 0.6784 0.5578 0.3964
H23_2 H 0.8216 0.9422 0.3964
H24_2 H 0.6036 0.6784 0.4422
H25_2 H 0.5578 0.8964 0.1784
N3_2 N 0.9071(2) 0.5859(2) 0.20191(18)
N4_2 N 0.70191(18) 0.5929(2) 0.4141(2)
N5_2 N 0.79809(18) 0.9071(2) 0.4141(2)
N6_2 N 0.5859(2) 0.70191(18) 0.4071(2)
N7_2 N 0.5929(2) 0.9141(2) 0.20191(18)
N8_2 N 0.9198(3) 0.5958(2) 0.2161(2)
N9_2 N 0.7161(2) 0.5802(3) 0.4042(2)
N10_2 N 0.7839(2) 0.9198(3) 0.4042(2)
N11_2 N 0.5958(2) 0.7161(2) 0.4198(3)
N12_2 N 0.5802(3) 0.9042(2) 0.2161(2)
C58_2 C 0.9085(3) 0.60287(19) 0.2377(2)
C59_2 C 0.7377(2) 0.5915(3) 0.39713(19)
C60_2 C 0.7623(2) 0.9085(3) 0.39713(19)
C61_2 C 0.60287(19) 0.7377(2) 0.4085(3)
C62_2 C 0.5915(3) 0.89713(19) 0.2377(2)
C63_2 C 0.9220(3) 0.6172(2) 0.2524(3)
C64_2 C 0.7524(3) 0.5780(3) 0.3828(2)
C65_2 C 0.7476(3) 0.9220(3) 0.3828(2)
C66_2 C 0.6172(2) 0.7524(3) 0.4220(3)
C67_2 C 0.5780(3) 0.8828(2) 0.2524(3)
H26_2 H 0.9375 0.6217 0.2482
H27_2 H 0.7482 0.5625 0.3783
H28_2 H 0.7518 0.9375 0.3783
H29_2 H 0.6217 0.7482 0.4375
H30_2 H 0.5625 0.8783 0.2482
C68_2 C 0.9122(3) 0.6246(3) 0.2733(3)
C69_2 C 0.7733(3) 0.5878(3) 0.3754(3)
C70_2 C 0.7267(3) 0.9122(3) 0.3754(3)
C71_2 C 0.6246(3) 0.7733(3) 0.4122(3)
C72_2 C 0.5878(3) 0.8754(3) 0.2733(3)
H31_2 H 0.9212 0.6344 0.2835
H32_2 H 0.7835 0.5788 0.3656
H33_2 H 0.7165 0.9212 0.3656
H34_2 H 0.6344 0.7835 0.4212
H35_2 H 0.5788 0.8656 0.2835
C73_2 C 0.8895(3) 0.6181(2) 0.2798(3)
C74_2 C 0.7798(3) 0.6105(3) 0.3819(2)
C75_2 C 0.7202(3) 0.8895(3) 0.3819(2)
C76_2 C 0.6181(2) 0.7798(3) 0.3895(3)
C77_2 C 0.6105(3) 0.8819(2) 0.2798(3)
C78_2 C 0.8771(3) 0.6041(3) 0.2649(3)
C79_2 C 0.7649(3) 0.6229(3) 0.3959(3)
C80_2 C 0.7351(3) 0.8771(3) 0.3959(3)
C81_2 C 0.6041(3) 0.7649(3) 0.3771(3)
C82_2 C 0.6229(3) 0.8959(3) 0.2649(3)
H36_2 H 0.8616 0.5996 0.2691
H37_2 H 0.7691 0.6384 0.4004
H38_2 H 0.7309 0.8616 0.4004
H39_2 H 0.5996 0.7691 0.3616
H40_2 H 0.6384 0.9004 0.2691
C83_2 C 0.8866(3) 0.5961(3) 0.2430(3)
C84_2 C 0.7430(3) 0.6134(3) 0.4039(3)
C85_2 C 0.7570(3) 0.8866(3) 0.4039(3)
C86_2 C 0.5961(3) 0.7430(3) 0.3866(3)
C87_2 C 0.6134(3) 0.9039(3) 0.2430(3)
H41_2 H 0.8778 0.5863 0.2327
H42_2 H 0.7327 0.6222 0.4137
H43_2 H 0.7673 0.8778 0.4137
H44_2 H 0.5863 0.7327 0.3778
H45_2 H 0.6222 0.9137 0.2327
O48_2 O 0.8821(3) 0.6267(3) 0.3009(3)
O49_2 O 0.8009(3) 0.6179(3) 0.3733(3)
O50_2 O 0.6991(3) 0.8821(3) 0.3733(3)
O51_2 O 0.6267(3) 0.8009(3) 0.3821(3)
O52_2 O 0.6179(3) 0.8733(3) 0.3009(3)
C88_2 C 0.8597(3) 0.6208(3) 0.3096(2)
C89_2 C 0.8096(2) 0.6403(3) 0.3792(3)
C90_2 C 0.6904(2) 0.8597(3) 0.3792(3)
C91_2 C 0.6208(3) 0.8096(2) 0.3597(3)
C92_2 C 0.6403(3) 0.8792(3) 0.3096(2)
H46_2 H 0.8594 0.6041 0.3144
H47_2 H 0.8144 0.6406 0.3959
H48_2 H 0.6856 0.8594 0.3959
H49_2 H 0.6041 0.8144 0.3594
H50_2 H 0.6406 0.8959 0.3144
H51_2 H 0.8477 0.6232 0.2972
H52_2 H 0.7972 0.6523 0.3768
H53_2 H 0.7028 0.8477 0.3768
H54_2 H 0.6232 0.7972 0.3477
H55_2 H 0.6523 0.8768 0.2972
C93_2 C 0.8543(3) 0.6362(3) 0.3304(2)
C94_2 C 0.8304(2) 0.6457(3) 0.3638(3)
C95_2 C 0.6696(2) 0.8543(3) 0.3638(3)
C96_2 C 0.6362(3) 0.8304(2) 0.3543(3)
C97_2 C 0.6457(3) 0.8638(3) 0.3304(2)
C98_2 C 0.8351(2) 0.6313(2) 0.3446(3)
C99_2 C 0.8446(3) 0.6649(2) 0.3687(2)
C100_2 C 0.6554(3) 0.8351(2) 0.3687(2)
C101_2 C 0.6313(2) 0.8446(3) 0.3351(2)
C102_2 C 0.6649(2) 0.8687(2) 0.3446(3)
H56_2 H 0.8413 0.6747 0.3818
H57_2 H 0.8253 0.6182 0.3413
H58_2 H 0.6587 0.8253 0.3818
H59_2 H 0.6747 0.8818 0.3413
H60_2 H 0.6182 0.8413 0.3253
Zn3_5 Zn 0.0000 0.40316(7) 0.90094(7)
Zn5_5 Zn 0.0000 0.09684(7) 0.59906(7)
Zn12_5 Zn 0.0000 0.36425(8) 0.86564(7)
Zn14_5 Zn 0.0000 0.13575(8) 0.63436(7)
O15_3 O 0.0212(2) 0.35217(19) 0.8888(2)
O25_3 O 0.0214(2) 0.3812(2) 0.9144(2)
O34_3 O 0.02663(19) 0.3869(2) 0.85414(19)
O42_3 O 0.02543(18) 0.41513(17) 0.87995(18)
O44_5 O 0.0000 0.3387(3) 0.8430(2)
O46_5 O 0.0000 0.4298(3) 0.9229(3)
Zn1_3 Zn 0.90316(7) 0.09906(7) 0.5000
Zn2_3 Zn 0.86425(8) 0.13436(7) 0.5000
O1_3 O 0.9788(2) 0.14783(19) 0.6112(2)
O2_3 O 0.9786(2) 0.1188(2) 0.5856(2)
O3_3 O 0.8869(2) 0.14586(19) 0.52663(19)
O4_3 O 0.91513(17) 0.12005(18) 0.52543(18)
O5_3 O 0.8387(3) 0.1570(2) 0.5000
O6_3 O 0.9298(3) 0.0771(3) 0.5000
C1_3 C 0.9060(2) 0.13800(19) 0.53460(18)
C2_3 C 0.9179(2) 0.1496(2) 0.55491(17)
C3_3 C 0.93734(19) 0.13883(19) 0.56428(17)
H1_3 H 0.9428 0.1244 0.5579
C4_3 C 0.94882(17) 0.1488(2) 0.5827(2)
C5_3 C 0.97000(18) 0.1376(2) 0.5936(2)
C6_3 C 0.94089(18) 0.16956(19) 0.59191(19)
H2_3 H 0.9489 0.1765 0.6048
C7_3 C 0.9215(2) 0.1804(2) 0.5826(2)
C8_3 C 0.9098(2) 0.17086(19) 0.56422(17)
H3_3 H 0.8964 0.1784 0.5578
N1_3 N 0.9141(2) 0.20191(18) 0.5929(2)
N2_3 N 0.9042(2) 0.2161(2) 0.5802(3)
C9_3 C 0.89713(19) 0.2377(2) 0.5915(3)
C10_3 C 0.8828(2) 0.2524(3) 0.5780(3)
H4_3 H 0.8783 0.2482 0.5625
C11_3 C 0.8754(3) 0.2733(3) 0.5878(3)
H5_3 H 0.8656 0.2835 0.5788
C12_3 C 0.8819(2) 0.2798(3) 0.6105(3)
C13_3 C 0.8959(3) 0.2649(3) 0.6229(3)
H6_3 H 0.9004 0.2691 0.6384
C14_3 C 0.9039(3) 0.2430(3) 0.6134(3)
H7_3 H 0.9137 0.2327 0.6222
O7_3 O 0.8733(3) 0.3009(3) 0.6179(3)
C15_3 C 0.8792(3) 0.3096(2) 0.6403(3)
H8_3 H 0.8959 0.3144 0.6406
H9_3 H 0.8768 0.2972 0.6523
C16_3 C 0.8638(3) 0.3304(2) 0.6457(3)
C17_3 C 0.8687(2) 0.3446(3) 0.6649(2)
H10_3 H 0.8818 0.3413 0.6747
Zn3_6 Zn 1.0000 0.40316(7) 0.90094(7)
Zn4_3 Zn 0.59906(7) 0.5000 0.59684(7)
Zn5_6 Zn 1.0000 0.09684(7) 0.59906(7)
Zn6_3 Zn 0.90094(7) 0.5000 0.90316(7)
Zn7_3 Zn 0.59684(7) 0.40094(7) 0.5000
Zn8_5 Zn 0.90094(7) -0.0000 0.59684(7)
Zn9_3 Zn 0.5000 0.40316(7) 0.59906(7)
Zn10_3 Zn 0.5000 0.09684(7) 0.90094(7)
Zn11_5 Zn 0.59906(7) -0.0000 0.90316(7)
Zn12_6 Zn 1.0000 0.36425(8) 0.86564(7)
Zn13_3 Zn 0.63436(7) 0.5000 0.63575(8)
Zn14_6 Zn 1.0000 0.13575(8) 0.63436(7)
Zn15_3 Zn 0.86564(7) 0.5000 0.86425(8)
Zn16_3 Zn 0.63575(8) 0.36564(7) 0.5000
Zn17_5 Zn 0.86564(7) -0.0000 0.63575(8)
Zn18_3 Zn 0.5000 0.36425(8) 0.63436(7)
Zn19_3 Zn 0.5000 0.13575(8) 0.86564(7)
Zn20_5 Zn 0.63436(7) -0.0000 0.86425(8)
O8_3 O 0.8888(2) 0.4788(2) 0.85217(19)
O9_3 O 0.64783(19) 0.3888(2) 0.5212(2)
O10_3 O 0.85217(19) 0.1112(2) 0.5212(2)
O11_3 O 0.5212(2) 0.35217(19) 0.6112(2)
O12_3 O 0.6112(2) 0.0212(2) 0.85217(19)
O13_3 O 0.85217(19) 0.1112(2) 0.4788(2)
O14_3 O 0.9788(2) 0.35217(19) 0.8888(2)
O16_3 O 0.6112(2) 0.4788(2) 0.64783(19)
O17_3 O 0.6112(2) 0.5212(2) 0.64783(19)
O18_3 O 0.9144(2) 0.4786(2) 0.8812(2)
O19_3 O 0.6188(2) 0.4144(2) 0.5214(2)
O20_3 O 0.8812(2) 0.0856(2) 0.5214(2)
O21_3 O 0.5214(2) 0.3812(2) 0.5856(2)
O22_3 O 0.5856(2) 0.0214(2) 0.8812(2)
O23_3 O 0.8812(2) 0.0856(2) 0.4786(2)
O24_3 O 0.9786(2) 0.3812(2) 0.9144(2)
O26_3 O 0.5856(2) 0.4786(2) 0.6188(2)
O27_3 O 0.5856(2) 0.5214(2) 0.6188(2)
O28_3 O 0.97337(19) 0.3869(2) 0.85414(19)
O29_3 O 0.64586(19) 0.47337(19) 0.6131(2)
O30_3 O 0.85414(19) 0.02663(19) 0.6131(2)
O31_3 O 0.6131(2) 0.35414(19) 0.52663(19)
O32_3 O 0.52663(19) 0.1131(2) 0.85414(19)
O33_3 O 0.8869(2) 0.14586(19) 0.47337(19)
O35_3 O 0.64586(19) 0.52663(19) 0.6131(2)
O36_3 O 0.97457(18) 0.41513(17) 0.87995(18)
O37_3 O 0.62005(18) 0.47457(18) 0.58487(17)
O38_3 O 0.87995(18) 0.02543(18) 0.58487(17)
O39_3 O 0.58487(17) 0.37995(18) 0.52543(18)
O40_3 O 0.52543(18) 0.08487(17) 0.87995(18)
O41_3 O 0.91513(17) 0.12005(18) 0.47457(18)
O43_3 O 0.62005(18) 0.52543(18) 0.58487(17)
O44_6 O 1.0000 0.3387(3) 0.8430(2)
O45_3 O 0.6570(2) 0.5000 0.6613(3)
O46_6 O 1.0000 0.4298(3) 0.9229(3)
O47_3 O 0.5771(3) 0.5000 0.5702(3)
C18_3 C 0.96540(18) 0.4060(2) 0.86200(19)
C19_3 C 0.63800(19) 0.46540(18) 0.5940(2)
C20_3 C 0.86200(19) 0.03460(18) 0.5940(2)
C21_3 C 0.5940(2) 0.36200(19) 0.53460(18)
C22_3 C 0.53460(18) 0.0940(2) 0.86200(19)
C23_3 C 0.94509(17) 0.4179(2) 0.8504(2)
C24_3 C 0.6496(2) 0.44509(17) 0.5821(2)
C25_3 C 0.8504(2) 0.05491(17) 0.5821(2)
C26_3 C 0.5821(2) 0.3504(2) 0.55491(17)
C27_3 C 0.55491(17) 0.0821(2) 0.8504(2)
C28_3 C 0.93572(17) 0.43734(19) 0.86117(19)
C29_3 C 0.63883(19) 0.43572(17) 0.56266(19)
C30_3 C 0.86117(19) 0.06428(17) 0.56266(19)
C31_3 C 0.56266(19) 0.36117(19) 0.56428(17)
C32_3 C 0.56428(17) 0.06266(19) 0.86117(19)
H11_3 H 0.9421 0.4428 0.8756
H12_3 H 0.6244 0.4421 0.5572
H13_3 H 0.8756 0.0579 0.5572
H14_3 H 0.5572 0.3756 0.5579
H15_3 H 0.5579 0.0572 0.8756
C33_3 C 0.9173(2) 0.44882(17) 0.8512(2)
C34_3 C 0.6488(2) 0.4173(2) 0.55118(17)
C35_3 C 0.8512(2) 0.0827(2) 0.55118(17)
C36_3 C 0.55118(17) 0.3512(2) 0.5827(2)
C37_3 C 0.5827(2) 0.05118(17) 0.8512(2)
C38_3 C 0.9064(2) 0.47000(18) 0.8624(2)
C39_3 C 0.6376(2) 0.4064(2) 0.53000(18)
C40_3 C 0.8624(2) 0.0936(2) 0.53000(18)
C41_3 C 0.53000(18) 0.3624(2) 0.5936(2)
C42_3 C 0.5936(2) 0.03000(18) 0.8624(2)
C43_3 C 0.90809(19) 0.44089(18) 0.83044(19)
C44_3 C 0.66956(19) 0.40809(19) 0.55911(18)
C45_3 C 0.83044(19) 0.09191(19) 0.55911(18)
C46_3 C 0.55911(18) 0.33044(19) 0.59191(19)
C47_3 C 0.59191(19) 0.05911(18) 0.83044(19)
H16_3 H 0.8952 0.4489 0.8235
H17_3 H 0.6765 0.3952 0.5511
H18_3 H 0.8235 0.1048 0.5511
H19_3 H 0.5511 0.3235 0.6048
H20_3 H 0.6048 0.0511 0.8235
C48_3 C 0.9174(2) 0.4215(2) 0.8196(2)
C49_3 C 0.6804(2) 0.4174(2) 0.5785(2)
C50_3 C 0.8196(2) 0.0826(2) 0.5785(2)
C51_3 C 0.5785(2) 0.3196(2) 0.5826(2)
C52_3 C 0.5826(2) 0.0785(2) 0.8196(2)
C53_3 C 0.93578(17) 0.4098(2) 0.82914(19)
C54_3 C 0.67086(19) 0.43578(17) 0.5902(2)
C55_3 C 0.82914(19) 0.06422(17) 0.5902(2)
C56_3 C 0.5902(2) 0.32914(19) 0.56422(17)
C57_3 C 0.56422(17) 0.0902(2) 0.82914(19)
H21_3 H 0.9422 0.3964 0.8216
H22_3 H 0.6784 0.4422 0.6036
H23_3 H 0.8216 0.0578 0.6036
H24_3 H 0.6036 0.3216 0.5578
H25_3 H 0.5578 0.1036 0.8216
N3_3 N 0.9071(2) 0.4141(2) 0.79809(18)
N4_3 N 0.70191(18) 0.4071(2) 0.5859(2)
N5_3 N 0.79809(18) 0.0929(2) 0.5859(2)
N6_3 N 0.5859(2) 0.29809(18) 0.5929(2)
N7_3 N 0.5929(2) 0.0859(2) 0.79809(18)
N8_3 N 0.9198(3) 0.4042(2) 0.7839(2)
N9_3 N 0.7161(2) 0.4198(3) 0.5958(2)
N10_3 N 0.7839(2) 0.0802(3) 0.5958(2)
N11_3 N 0.5958(2) 0.2839(2) 0.5802(3)
N12_3 N 0.5802(3) 0.0958(2) 0.7839(2)
C58_3 C 0.9085(3) 0.39713(19) 0.7623(2)
C59_3 C 0.7377(2) 0.4085(3) 0.60287(19)
C60_3 C 0.7623(2) 0.0915(3) 0.60287(19)
C61_3 C 0.60287(19) 0.2623(2) 0.5915(3)
C62_3 C 0.5915(3) 0.10287(19) 0.7623(2)
C63_3 C 0.9220(3) 0.3828(2) 0.7476(3)
C64_3 C 0.7524(3) 0.4220(3) 0.6172(2)
C65_3 C 0.7476(3) 0.0780(3) 0.6172(2)
C66_3 C 0.6172(2) 0.2476(3) 0.5780(3)
C67_3 C 0.5780(3) 0.1172(2) 0.7476(3)
H26_3 H 0.9375 0.3783 0.7518
H27_3 H 0.7482 0.4375 0.6217
H28_3 H 0.7518 0.0625 0.6217
H29_3 H 0.6217 0.2518 0.5625
H30_3 H 0.5625 0.1217 0.7518
C68_3 C 0.9122(3) 0.3754(3) 0.7267(3)
C69_3 C 0.7733(3) 0.4122(3) 0.6246(3)
C70_3 C 0.7267(3) 0.0878(3) 0.6246(3)
C71_3 C 0.6246(3) 0.2267(3) 0.5878(3)
C72_3 C 0.5878(3) 0.1246(3) 0.7267(3)
H31_3 H 0.9212 0.3656 0.7165
H32_3 H 0.7835 0.4212 0.6344
H33_3 H 0.7165 0.0788 0.6344
H34_3 H 0.6344 0.2165 0.5788
H35_3 H 0.5788 0.1344 0.7165
C73_3 C 0.8895(3) 0.3819(2) 0.7202(3)
C74_3 C 0.7798(3) 0.3895(3) 0.6181(2)
C75_3 C 0.7202(3) 0.1105(3) 0.6181(2)
C76_3 C 0.6181(2) 0.2202(3) 0.6105(3)
C77_3 C 0.6105(3) 0.1181(2) 0.7202(3)
C78_3 C 0.8771(3) 0.3959(3) 0.7351(3)
C79_3 C 0.7649(3) 0.3771(3) 0.6041(3)
C80_3 C 0.7351(3) 0.1229(3) 0.6041(3)
C81_3 C 0.6041(3) 0.2351(3) 0.6229(3)
C82_3 C 0.6229(3) 0.1041(3) 0.7351(3)
H36_3 H 0.8616 0.4004 0.7309
H37_3 H 0.7691 0.3616 0.5996
H38_3 H 0.7309 0.1384 0.5996
H39_3 H 0.5996 0.2309 0.6384
H40_3 H 0.6384 0.0996 0.7309
C83_3 C 0.8866(3) 0.4039(3) 0.7570(3)
C84_3 C 0.7430(3) 0.3866(3) 0.5961(3)
C85_3 C 0.7570(3) 0.1134(3) 0.5961(3)
C86_3 C 0.5961(3) 0.2570(3) 0.6134(3)
C87_3 C 0.6134(3) 0.0961(3) 0.7570(3)
H41_3 H 0.8778 0.4137 0.7673
H42_3 H 0.7327 0.3778 0.5863
H43_3 H 0.7673 0.1222 0.5863
H44_3 H 0.5863 0.2673 0.6222
H45_3 H 0.6222 0.0863 0.7673
O48_3 O 0.8821(3) 0.3733(3) 0.6991(3)
O49_3 O 0.8009(3) 0.3821(3) 0.6267(3)
O50_3 O 0.6991(3) 0.1179(3) 0.6267(3)
O51_3 O 0.6267(3) 0.1991(3) 0.6179(3)
O52_3 O 0.6179(3) 0.1267(3) 0.6991(3)
C88_3 C 0.8597(3) 0.3792(3) 0.6904(2)
C89_3 C 0.8096(2) 0.3597(3) 0.6208(3)
C90_3 C 0.6904(2) 0.1403(3) 0.6208(3)
C91_3 C 0.6208(3) 0.1904(2) 0.6403(3)
C92_3 C 0.6403(3) 0.1208(3) 0.6904(2)
H46_3 H 0.8594 0.3959 0.6856
H47_3 H 0.8144 0.3594 0.6041
H48_3 H 0.6856 0.1406 0.6041
H49_3 H 0.6041 0.1856 0.6406
H50_3 H 0.6406 0.1041 0.6856
H51_3 H 0.8477 0.3768 0.7028
H52_3 H 0.7972 0.3477 0.6232
H53_3 H 0.7028 0.1523 0.6232
H54_3 H 0.6232 0.2028 0.6523
H55_3 H 0.6523 0.1232 0.7028
C93_3 C 0.8543(3) 0.3638(3) 0.6696(2)
C94_3 C 0.8304(2) 0.3543(3) 0.6362(3)
C95_3 C 0.6696(2) 0.1457(3) 0.6362(3)
C96_3 C 0.6362(3) 0.1696(2) 0.6457(3)
C97_3 C 0.6457(3) 0.1362(3) 0.6696(2)
C98_3 C 0.8351(2) 0.3687(2) 0.6554(3)
C99_3 C 0.8446(3) 0.3351(2) 0.6313(2)
C100_3 C 0.6554(3) 0.1649(2) 0.6313(2)
C101_3 C 0.6313(2) 0.1554(3) 0.6649(2)
C102_3 C 0.6649(2) 0.1313(2) 0.6554(3)
H56_3 H 0.8413 0.3253 0.6182
H57_3 H 0.8253 0.3818 0.6587
H58_3 H 0.6587 0.1747 0.6182
H59_3 H 0.6747 0.1182 0.6587
H60_3 H 0.6182 0.1587 0.6747
Zn8_6 Zn 0.90094(7) 1.0000 0.59684(7)
Zn11_6 Zn 0.59906(7) 1.0000 0.90316(7)
Zn17_6 Zn 0.86564(7) 1.0000 0.63575(8)
Zn20_6 Zn 0.63436(7) 1.0000 0.86425(8)
Zn8_7 Zn 0.09906(7) 0.0000 0.59684(7)
Zn11_7 Zn 0.40094(7) 0.0000 0.90316(7)
Zn17_7 Zn 0.13436(7) 0.0000 0.63575(8)
Zn20_7 Zn 0.36564(7) 0.0000 0.86425(8)
Zn1_4 Zn 0.09684(7) 0.90094(7) 0.5000
Zn2_4 Zn 0.13575(8) 0.86564(7) 0.5000
O1_4 O 0.0212(2) 0.85217(19) 0.6112(2)
O2_4 O 0.0214(2) 0.8812(2) 0.5856(2)
O3_4 O 0.1131(2) 0.85414(19) 0.52663(19)
O4_4 O 0.08487(17) 0.87995(18) 0.52543(18)
O5_4 O 0.1613(3) 0.8430(2) 0.5000
O6_4 O 0.0702(3) 0.9229(3) 0.5000
C1_4 C 0.0940(2) 0.86200(19) 0.53460(18)
C2_4 C 0.0821(2) 0.8504(2) 0.55491(17)
C3_4 C 0.06266(19) 0.86117(19) 0.56428(17)
H1_4 H 0.0572 0.8756 0.5579
C4_4 C 0.05118(17) 0.8512(2) 0.5827(2)
C5_4 C 0.03000(18) 0.8624(2) 0.5936(2)
C6_4 C 0.05911(18) 0.83044(19) 0.59191(19)
H2_4 H 0.0511 0.8235 0.6048
C7_4 C 0.0785(2) 0.8196(2) 0.5826(2)
C8_4 C 0.0902(2) 0.82914(19) 0.56422(17)
H3_4 H 0.1036 0.8216 0.5578
N1_4 N 0.0859(2) 0.79809(18) 0.5929(2)
N2_4 N 0.0958(2) 0.7839(2) 0.5802(3)
C9_4 C 0.10287(19) 0.7623(2) 0.5915(3)
C10_4 C 0.1172(2) 0.7476(3) 0.5780(3)
H4_4 H 0.1217 0.7518 0.5625
C11_4 C 0.1246(3) 0.7267(3) 0.5878(3)
H5_4 H 0.1344 0.7165 0.5788
C12_4 C 0.1181(2) 0.7202(3) 0.6105(3)
C13_4 C 0.1041(3) 0.7351(3) 0.6229(3)
H6_4 H 0.0996 0.7309 0.6384
C14_4 C 0.0961(3) 0.7570(3) 0.6134(3)
H7_4 H 0.0863 0.7673 0.6222
O7_4 O 0.1267(3) 0.6991(3) 0.6179(3)
C15_4 C 0.1208(3) 0.6904(2) 0.6403(3)
H8_4 H 0.1041 0.6856 0.6406
H9_4 H 0.1232 0.7028 0.6523
C16_4 C 0.1362(3) 0.6696(2) 0.6457(3)
C17_4 C 0.1313(2) 0.6554(3) 0.6649(2)
H10_4 H 0.1182 0.6587 0.6747
Zn3_7 Zn -0.0000 0.59684(7) 0.90094(7)
Zn4_4 Zn 0.40094(7) 0.5000 0.59684(7)
Zn5_7 Zn -0.0000 0.90316(7) 0.59906(7)
Zn6_4 Zn 0.09906(7) 0.5000 0.90316(7)
Zn7_4 Zn 0.40316(7) 0.59906(7) 0.5000
Zn8_8 Zn 0.09906(7) 1.0000 0.59684(7)
Zn9_4 Zn 0.5000 0.59684(7) 0.59906(7)
Zn10_4 Zn 0.5000 0.90316(7) 0.90094(7)
Zn11_8 Zn 0.40094(7) 1.0000 0.90316(7)
Zn12_7 Zn -0.0000 0.63575(8) 0.86564(7)
Zn13_4 Zn 0.36564(7) 0.5000 0.63575(8)
Zn14_7 Zn -0.0000 0.86425(8) 0.63436(7)
Zn15_4 Zn 0.13436(7) 0.5000 0.86425(8)
Zn16_4 Zn 0.36425(8) 0.63436(7) 0.5000
Zn17_8 Zn 0.13436(7) 1.0000 0.63575(8)
Zn18_4 Zn 0.5000 0.63575(8) 0.63436(7)
Zn19_4 Zn 0.5000 0.86425(8) 0.86564(7)
Zn20_8 Zn 0.36564(7) 1.0000 0.86425(8)
O8_4 O 0.1112(2) 0.5212(2) 0.85217(19)
O9_4 O 0.35217(19) 0.6112(2) 0.5212(2)
O10_4 O 0.14783(19) 0.8888(2) 0.5212(2)
O11_4 O 0.4788(2) 0.64783(19) 0.6112(2)
O12_4 O 0.3888(2) 0.9788(2) 0.85217(19)
O13_4 O 0.14783(19) 0.8888(2) 0.4788(2)
O14_4 O 0.0212(2) 0.64783(19) 0.8888(2)
O16_4 O 0.3888(2) 0.5212(2) 0.64783(19)
O17_4 O 0.3888(2) 0.4788(2) 0.64783(19)
O18_4 O 0.0856(2) 0.5214(2) 0.8812(2)
O19_4 O 0.3812(2) 0.5856(2) 0.5214(2)
O20_4 O 0.1188(2) 0.9144(2) 0.5214(2)
O21_4 O 0.4786(2) 0.6188(2) 0.5856(2)
O22_4 O 0.4144(2) 0.9786(2) 0.8812(2)
O23_4 O 0.1188(2) 0.9144(2) 0.4786(2)
O24_4 O 0.0214(2) 0.6188(2) 0.9144(2)
O26_4 O 0.4144(2) 0.5214(2) 0.6188(2)
O27_4 O 0.4144(2) 0.4786(2) 0.6188(2)
O28_4 O 0.02663(19) 0.6131(2) 0.85414(19)
O29_4 O 0.35414(19) 0.52663(19) 0.6131(2)
O30_4 O 0.14586(19) 0.97337(19) 0.6131(2)
O31_4 O 0.3869(2) 0.64586(19) 0.52663(19)
O32_4 O 0.47337(19) 0.8869(2) 0.85414(19)
O33_4 O 0.1131(2) 0.85414(19) 0.47337(19)
O35_4 O 0.35414(19) 0.47337(19) 0.6131(2)
O36_4 O 0.02543(18) 0.58487(17) 0.87995(18)
O37_4 O 0.37995(18) 0.52543(18) 0.58487(17)
O38_4 O 0.12005(18) 0.97457(18) 0.58487(17)
O39_4 O 0.41513(17) 0.62005(18) 0.52543(18)
O40_4 O 0.47457(18) 0.91513(17) 0.87995(18)
O41_4 O 0.08487(17) 0.87995(18) 0.47457(18)
O43_4 O 0.37995(18) 0.47457(18) 0.58487(17)
O44_7 O -0.0000 0.6613(3) 0.8430(2)
O45_4 O 0.3430(2) 0.5000 0.6613(3)
O46_7 O -0.0000 0.5702(3) 0.9229(3)
O47_4 O 0.4229(3) 0.5000 0.5702(3)
C18_4 C 0.03460(18) 0.5940(2) 0.86200(19)
C19_4 C 0.36200(19) 0.53460(18) 0.5940(2)
C20_4 C 0.13800(19) 0.96540(18) 0.5940(2)
C21_4 C 0.4060(2) 0.63800(19) 0.53460(18)
C22_4 C 0.46540(18) 0.9060(2) 0.86200(19)
C23_4 C 0.05491(17) 0.5821(2) 0.8504(2)
C24_4 C 0.3504(2) 0.55491(17) 0.5821(2)
C25_4 C 0.1496(2) 0.94509(17) 0.5821(2)
C26_4 C 0.4179(2) 0.6496(2) 0.55491(17)
C27_4 C 0.44509(17) 0.9179(2) 0.8504(2)
C28_4 C 0.06428(17) 0.56266(19) 0.86117(19)
C29_4 C 0.36117(19) 0.56428(17) 0.56266(19)
C30_4 C 0.13883(19) 0.93572(17) 0.56266(19)
C31_4 C 0.43734(19) 0.63883(19) 0.56428(17)
C32_4 C 0.43572(17) 0.93734(19) 0.86117(19)
H11_4 H 0.0579 0.5572 0.8756
H12_4 H 0.3756 0.5579 0.5572
H13_4 H 0.1244 0.9421 0.5572
H14_4 H 0.4428 0.6244 0.5579
H15_4 H 0.4421 0.9428 0.8756
C33_4 C 0.0827(2) 0.55118(17) 0.8512(2)
C34_4 C 0.3512(2) 0.5827(2) 0.55118(17)
C35_4 C 0.1488(2) 0.9173(2) 0.55118(17)
C36_4 C 0.44882(17) 0.6488(2) 0.5827(2)
C37_4 C 0.4173(2) 0.94882(17) 0.8512(2)
C38_4 C 0.0936(2) 0.53000(18) 0.8624(2)
C39_4 C 0.3624(2) 0.5936(2) 0.53000(18)
C40_4 C 0.1376(2) 0.9064(2) 0.53000(18)
C41_4 C 0.47000(18) 0.6376(2) 0.5936(2)
C42_4 C 0.4064(2) 0.97000(18) 0.8624(2)
C43_4 C 0.09191(19) 0.55911(18) 0.83044(19)
C44_4 C 0.33044(19) 0.59191(19) 0.55911(18)
C45_4 C 0.16956(19) 0.90809(19) 0.55911(18)
C46_4 C 0.44089(18) 0.66956(19) 0.59191(19)
C47_4 C 0.40809(19) 0.94089(18) 0.83044(19)
H16_4 H 0.1048 0.5511 0.8235
H17_4 H 0.3235 0.6048 0.5511
H18_4 H 0.1765 0.8952 0.5511
H19_4 H 0.4489 0.6765 0.6048
H20_4 H 0.3952 0.9489 0.8235
C48_4 C 0.0826(2) 0.5785(2) 0.8196(2)
C49_4 C 0.3196(2) 0.5826(2) 0.5785(2)
C50_4 C 0.1804(2) 0.9174(2) 0.5785(2)
C51_4 C 0.4215(2) 0.6804(2) 0.5826(2)
C52_4 C 0.4174(2) 0.9215(2) 0.8196(2)
C53_4 C 0.06422(17) 0.5902(2) 0.82914(19)
C54_4 C 0.32914(19) 0.56422(17) 0.5902(2)
C55_4 C 0.17086(19) 0.93578(17) 0.5902(2)
C56_4 C 0.4098(2) 0.67086(19) 0.56422(17)
C57_4 C 0.43578(17) 0.9098(2) 0.82914(19)
H21_4 H 0.0578 0.6036 0.8216
H22_4 H 0.3216 0.5578 0.6036
H23_4 H 0.1784 0.9422 0.6036
H24_4 H 0.3964 0.6784 0.5578
H25_4 H 0.4422 0.8964 0.8216
N3_4 N 0.0929(2) 0.5859(2) 0.79809(18)
N4_4 N 0.29809(18) 0.5929(2) 0.5859(2)
N5_4 N 0.20191(18) 0.9071(2) 0.5859(2)
N6_4 N 0.4141(2) 0.70191(18) 0.5929(2)
N7_4 N 0.4071(2) 0.9141(2) 0.79809(18)
N8_4 N 0.0802(3) 0.5958(2) 0.7839(2)
N9_4 N 0.2839(2) 0.5802(3) 0.5958(2)
N10_4 N 0.2161(2) 0.9198(3) 0.5958(2)
N11_4 N 0.4042(2) 0.7161(2) 0.5802(3)
N12_4 N 0.4198(3) 0.9042(2) 0.7839(2)
C58_4 C 0.0915(3) 0.60287(19) 0.7623(2)
C59_4 C 0.2623(2) 0.5915(3) 0.60287(19)
C60_4 C 0.2377(2) 0.9085(3) 0.60287(19)
C61_4 C 0.39713(19) 0.7377(2) 0.5915(3)
C62_4 C 0.4085(3) 0.89713(19) 0.7623(2)
C63_4 C 0.0780(3) 0.6172(2) 0.7476(3)
C64_4 C 0.2476(3) 0.5780(3) 0.6172(2)
C65_4 C 0.2524(3) 0.9220(3) 0.6172(2)
C66_4 C 0.3828(2) 0.7524(3) 0.5780(3)
C67_4 C 0.4220(3) 0.8828(2) 0.7476(3)
H26_4 H 0.0625 0.6217 0.7518
H27_4 H 0.2518 0.5625 0.6217
H28_4 H 0.2482 0.9375 0.6217
H29_4 H 0.3783 0.7482 0.5625
H30_4 H 0.4375 0.8783 0.7518
C68_4 C 0.0878(3) 0.6246(3) 0.7267(3)
C69_4 C 0.2267(3) 0.5878(3) 0.6246(3)
C70_4 C 0.2733(3) 0.9122(3) 0.6246(3)
C71_4 C 0.3754(3) 0.7733(3) 0.5878(3)
C72_4 C 0.4122(3) 0.8754(3) 0.7267(3)
H31_4 H 0.0788 0.6344 0.7165
H32_4 H 0.2165 0.5788 0.6344
H33_4 H 0.2835 0.9212 0.6344
H34_4 H 0.3656 0.7835 0.5788
H35_4 H 0.4212 0.8656 0.7165
C73_4 C 0.1105(3) 0.6181(2) 0.7202(3)
C74_4 C 0.2202(3) 0.6105(3) 0.6181(2)
C75_4 C 0.2798(3) 0.8895(3) 0.6181(2)
C76_4 C 0.3819(2) 0.7798(3) 0.6105(3)
C77_4 C 0.3895(3) 0.8819(2) 0.7202(3)
C78_4 C 0.1229(3) 0.6041(3) 0.7351(3)
C79_4 C 0.2351(3) 0.6229(3) 0.6041(3)
C80_4 C 0.2649(3) 0.8771(3) 0.6041(3)
C81_4 C 0.3959(3) 0.7649(3) 0.6229(3)
C82_4 C 0.3771(3) 0.8959(3) 0.7351(3)
H36_4 H 0.1384 0.5996 0.7309
H37_4 H 0.2309 0.6384 0.5996
H38_4 H 0.2691 0.8616 0.5996
H39_4 H 0.4004 0.7691 0.6384
H40_4 H 0.3616 0.9004 0.7309
C83_4 C 0.1134(3) 0.5961(3) 0.7570(3)
C84_4 C 0.2570(3) 0.6134(3) 0.5961(3)
C85_4 C 0.2430(3) 0.8866(3) 0.5961(3)
C86_4 C 0.4039(3) 0.7430(3) 0.6134(3)
C87_4 C 0.3866(3) 0.9039(3) 0.7570(3)
H41_4 H 0.1222 0.5863 0.7673
H42_4 H 0.2673 0.6222 0.5863
H43_4 H 0.2327 0.8778 0.5863
H44_4 H 0.4137 0.7327 0.6222
H45_4 H 0.3778 0.9137 0.7673
O48_4 O 0.1179(3) 0.6267(3) 0.6991(3)
O49_4 O 0.1991(3) 0.6179(3) 0.6267(3)
O50_4 O 0.3009(3) 0.8821(3) 0.6267(3)
O51_4 O 0.3733(3) 0.8009(3) 0.6179(3)
O52_4 O 0.3821(3) 0.8733(3) 0.6991(3)
C88_4 C 0.1403(3) 0.6208(3) 0.6904(2)
C89_4 C 0.1904(2) 0.6403(3) 0.6208(3)
C90_4 C 0.3096(2) 0.8597(3) 0.6208(3)
C91_4 C 0.3792(3) 0.8096(2) 0.6403(3)
C92_4 C 0.3597(3) 0.8792(3) 0.6904(2)
H46_4 H 0.1406 0.6041 0.6856
H47_4 H 0.1856 0.6406 0.6041
H48_4 H 0.3144 0.8594 0.6041
H49_4 H 0.3959 0.8144 0.6406
H50_4 H 0.3594 0.8959 0.6856
H51_4 H 0.1523 0.6232 0.7028
H52_4 H 0.2028 0.6523 0.6232
H53_4 H 0.2972 0.8477 0.6232
H54_4 H 0.3768 0.7972 0.6523
H55_4 H 0.3477 0.8768 0.7028
C93_4 C 0.1457(3) 0.6362(3) 0.6696(2)
C94_4 C 0.1696(2) 0.6457(3) 0.6362(3)
C95_4 C 0.3304(2) 0.8543(3) 0.6362(3)
C96_4 C 0.3638(3) 0.8304(2) 0.6457(3)
C97_4 C 0.3543(3) 0.8638(3) 0.6696(2)
C98_4 C 0.1649(2) 0.6313(2) 0.6554(3)
C99_4 C 0.1554(3) 0.6649(2) 0.6313(2)
C100_4 C 0.3446(3) 0.8351(2) 0.6313(2)
C101_4 C 0.3687(2) 0.8446(3) 0.6649(2)
C102_4 C 0.3351(2) 0.8687(2) 0.6554(3)
H56_4 H 0.1587 0.6747 0.6182
H57_4 H 0.1747 0.6182 0.6587
H58_4 H 0.3413 0.8253 0.6182
H59_4 H 0.3253 0.8818 0.6587
H60_4 H 0.3818 0.8413 0.6747
Zn3_8 Zn 1.0000 0.59684(7) 0.90094(7)
Zn5_8 Zn 1.0000 0.90316(7) 0.59906(7)
Zn12_8 Zn 1.0000 0.63575(8) 0.86564(7)
Zn14_8 Zn 1.0000 0.86425(8) 0.63436(7)
O15_4 O 0.9788(2) 0.64783(19) 0.8888(2)
O25_4 O 0.9786(2) 0.6188(2) 0.9144(2)
O34_4 O 0.97337(19) 0.6131(2) 0.85414(19)
O42_4 O 0.97457(18) 0.58487(17) 0.87995(18)
O44_8 O 1.0000 0.6613(3) 0.8430(2)
O46_8 O 1.0000 0.5702(3) 0.9229(3)
O5_5 O 0.5000 0.1613(3) 0.1570(2)
O6_5 O 0.5000 0.0702(3) 0.0771(3)
Zn8_9 Zn 0.40316(7) 0.09906(7) -0.0000
Zn11_9 Zn 0.09684(7) 0.40094(7) -0.0000
Zn17_9 Zn 0.36425(8) 0.13436(7) -0.0000
Zn20_9 Zn 0.13575(8) 0.36564(7) -0.0000
O10_5 O 0.4788(2) 0.14783(19) 0.1112(2)
O12_5 O 0.14783(19) 0.3888(2) 0.0212(2)
O13_5 O 0.5212(2) 0.14783(19) 0.1112(2)
O14_5 O 0.1112(2) 0.0212(2) 0.35217(19)
O17_5 O 0.35217(19) 0.3888(2) 0.5212(2)
O20_5 O 0.4786(2) 0.1188(2) 0.0856(2)
O22_5 O 0.1188(2) 0.4144(2) 0.0214(2)
O23_5 O 0.5214(2) 0.1188(2) 0.0856(2)
O24_5 O 0.0856(2) 0.0214(2) 0.3812(2)
O27_5 O 0.3812(2) 0.4144(2) 0.5214(2)
O30_5 O 0.3869(2) 0.14586(19) 0.02663(19)
O31_5 O 0.47337(19) 0.3869(2) 0.35414(19)
O32_5 O 0.14586(19) 0.47337(19) 0.1131(2)
O33_5 O 0.52663(19) 0.1131(2) 0.14586(19)
O35_5 O 0.3869(2) 0.35414(19) 0.52663(19)
O38_5 O 0.41513(17) 0.12005(18) 0.02543(18)
O39_5 O 0.47457(18) 0.41513(17) 0.37995(18)
O40_5 O 0.12005(18) 0.47457(18) 0.08487(17)
O41_5 O 0.52543(18) 0.08487(17) 0.12005(18)
O43_5 O 0.41513(17) 0.37995(18) 0.52543(18)
O44_9 O 0.1570(2) -0.0000 0.3387(3)
O45_5 O 0.3387(3) 0.3430(2) 0.5000
O46_9 O 0.0771(3) -0.0000 0.4298(3)
O47_5 O 0.4298(3) 0.4229(3) 0.5000
C20_5 C 0.4060(2) 0.13800(19) 0.03460(18)
C21_5 C 0.46540(18) 0.4060(2) 0.36200(19)
C22_5 C 0.13800(19) 0.46540(18) 0.0940(2)
C25_5 C 0.4179(2) 0.1496(2) 0.05491(17)
C26_5 C 0.44509(17) 0.4179(2) 0.3504(2)
C27_5 C 0.1496(2) 0.44509(17) 0.0821(2)
C30_5 C 0.43734(19) 0.13883(19) 0.06428(17)
C31_5 C 0.43572(17) 0.43734(19) 0.36117(19)
C32_5 C 0.13883(19) 0.43572(17) 0.06266(19)
H13_5 H 0.4428 0.1244 0.0579
H14_5 H 0.4421 0.4428 0.3756
H15_5 H 0.1244 0.4421 0.0572
C35_5 C 0.44882(17) 0.1488(2) 0.0827(2)
C36_5 C 0.4173(2) 0.44882(17) 0.3512(2)
C37_5 C 0.1488(2) 0.4173(2) 0.05118(17)
C40_5 C 0.47000(18) 0.1376(2) 0.0936(2)
C41_5 C 0.4064(2) 0.47000(18) 0.3624(2)
C42_5 C 0.1376(2) 0.4064(2) 0.03000(18)
C45_5 C 0.44089(18) 0.16956(19) 0.09191(19)
C46_5 C 0.40809(19) 0.44089(18) 0.33044(19)
C47_5 C 0.16956(19) 0.40809(19) 0.05911(18)
H18_5 H 0.4489 0.1765 0.1048
H19_5 H 0.3952 0.4489 0.3235
H20_5 H 0.1765 0.3952 0.0511
C50_5 C 0.4215(2) 0.1804(2) 0.0826(2)
C51_5 C 0.4174(2) 0.4215(2) 0.3196(2)
C52_5 C 0.1804(2) 0.4174(2) 0.0785(2)
C55_5 C 0.4098(2) 0.17086(19) 0.06422(17)
C56_5 C 0.43578(17) 0.4098(2) 0.32914(19)
C57_5 C 0.17086(19) 0.43578(17) 0.0902(2)
H23_5 H 0.3964 0.1784 0.0578
H24_5 H 0.4422 0.3964 0.3216
H25_5 H 0.1784 0.4422 0.1036
N5_5 N 0.4141(2) 0.20191(18) 0.0929(2)
N6_5 N 0.4071(2) 0.4141(2) 0.29809(18)
N7_5 N 0.20191(18) 0.4071(2) 0.0859(2)
N10_5 N 0.4042(2) 0.2161(2) 0.0802(3)
N11_5 N 0.4198(3) 0.4042(2) 0.2839(2)
N12_5 N 0.2161(2) 0.4198(3) 0.0958(2)
C60_5 C 0.39713(19) 0.2377(2) 0.0915(3)
C61_5 C 0.4085(3) 0.39713(19) 0.2623(2)
C62_5 C 0.2377(2) 0.4085(3) 0.10287(19)
C65_5 C 0.3828(2) 0.2524(3) 0.0780(3)
C66_5 C 0.4220(3) 0.3828(2) 0.2476(3)
C67_5 C 0.2524(3) 0.4220(3) 0.1172(2)
H28_5 H 0.3783 0.2482 0.0625
H29_5 H 0.4375 0.3783 0.2518
H30_5 H 0.2482 0.4375 0.1217
C70_5 C 0.3754(3) 0.2733(3) 0.0878(3)
C71_5 C 0.4122(3) 0.3754(3) 0.2267(3)
C72_5 C 0.2733(3) 0.4122(3) 0.1246(3)
H33_5 H 0.3656 0.2835 0.0788
H34_5 H 0.4212 0.3656 0.2165
H35_5 H 0.2835 0.4212 0.1344
C75_5 C 0.3819(2) 0.2798(3) 0.1105(3)
C76_5 C 0.3895(3) 0.3819(2) 0.2202(3)
C77_5 C 0.2798(3) 0.3895(3) 0.1181(2)
C80_5 C 0.3959(3) 0.2649(3) 0.1229(3)
C81_5 C 0.3771(3) 0.3959(3) 0.2351(3)
C82_5 C 0.2649(3) 0.3771(3) 0.1041(3)
H38_5 H 0.4004 0.2691 0.1384
H39_5 H 0.3616 0.4004 0.2309
H40_5 H 0.2691 0.3616 0.0996
C85_5 C 0.4039(3) 0.2430(3) 0.1134(3)
C86_5 C 0.3866(3) 0.4039(3) 0.2570(3)
C87_5 C 0.2430(3) 0.3866(3) 0.0961(3)
H43_5 H 0.4137 0.2327 0.1222
H44_5 H 0.3778 0.4137 0.2673
H45_5 H 0.2327 0.3778 0.0863
O50_5 O 0.3733(3) 0.3009(3) 0.1179(3)
O51_5 O 0.3821(3) 0.3733(3) 0.1991(3)
O52_5 O 0.3009(3) 0.3821(3) 0.1267(3)
C90_5 C 0.3792(3) 0.3096(2) 0.1403(3)
C91_5 C 0.3597(3) 0.3792(3) 0.1904(2)
C92_5 C 0.3096(2) 0.3597(3) 0.1208(3)
H48_5 H 0.3959 0.3144 0.1406
H49_5 H 0.3594 0.3959 0.1856
H50_5 H 0.3144 0.3594 0.1041
H53_5 H 0.3768 0.2972 0.1523
H54_5 H 0.3477 0.3768 0.2028
H55_5 H 0.2972 0.3477 0.1232
C95_5 C 0.3638(3) 0.3304(2) 0.1457(3)
C96_5 C 0.3543(3) 0.3638(3) 0.1696(2)
C97_5 C 0.3304(2) 0.3543(3) 0.1362(3)
C100_5 C 0.3687(2) 0.3446(3) 0.1649(2)
C101_5 C 0.3351(2) 0.3687(2) 0.1554(3)
C102_5 C 0.3446(3) 0.3351(2) 0.1313(2)
H58_5 H 0.3818 0.3413 0.1747
H59_5 H 0.3413 0.3253 0.1182
H60_5 H 0.3253 0.3818 0.1587
Zn8_10 Zn 0.40316(7) 0.09906(7) 1.0000
Zn11_10 Zn 0.09684(7) 0.40094(7) 1.0000
Zn17_10 Zn 0.36425(8) 0.13436(7) 1.0000
Zn20_10 Zn 0.13575(8) 0.36564(7) 1.0000
O15_5 O 0.1112(2) 0.9788(2) 0.35217(19)
O25_5 O 0.0856(2) 0.9786(2) 0.3812(2)
O34_5 O 0.14586(19) 0.97337(19) 0.3869(2)
O42_5 O 0.12005(18) 0.97457(18) 0.41513(17)
O44_10 O 0.1570(2) 1.0000 0.3387(3)
O46_10 O 0.0771(3) 1.0000 0.4298(3)
O15_6 O 0.1112(2) 0.0212(2) 0.64783(19)
O25_6 O 0.0856(2) 0.0214(2) 0.6188(2)
O34_6 O 0.14586(19) 0.02663(19) 0.6131(2)
O42_6 O 0.12005(18) 0.02543(18) 0.58487(17)
O44_11 O 0.1570(2) 0.0000 0.6613(3)
O46_11 O 0.0771(3) 0.0000 0.5702(3)
Zn8_11 Zn 0.40316(7) 0.90094(7) 0.0000
Zn11_11 Zn 0.09684(7) 0.59906(7) 0.0000
Zn17_11 Zn 0.36425(8) 0.86564(7) 0.0000
Zn20_11 Zn 0.13575(8) 0.63436(7) 0.0000
O5_6 O 0.5000 0.8387(3) 0.8430(2)
O6_6 O 0.5000 0.9298(3) 0.9229(3)
Zn8_12 Zn 0.40316(7) 0.90094(7) 1.0000
Zn11_12 Zn 0.09684(7) 0.59906(7) 1.0000
Zn17_12 Zn 0.36425(8) 0.86564(7) 1.0000
Zn20_12 Zn 0.13575(8) 0.63436(7) 1.0000
O10_6 O 0.4788(2) 0.85217(19) 0.8888(2)
O12_6 O 0.14783(19) 0.6112(2) 0.9788(2)
O13_6 O 0.5212(2) 0.85217(19) 0.8888(2)
O14_6 O 0.1112(2) 0.9788(2) 0.64783(19)
O17_6 O 0.35217(19) 0.6112(2) 0.4788(2)
O20_6 O 0.4786(2) 0.8812(2) 0.9144(2)
O22_6 O 0.1188(2) 0.5856(2) 0.9786(2)
O23_6 O 0.5214(2) 0.8812(2) 0.9144(2)
O24_6 O 0.0856(2) 0.9786(2) 0.6188(2)
O27_6 O 0.3812(2) 0.5856(2) 0.4786(2)
O30_6 O 0.3869(2) 0.85414(19) 0.97337(19)
O31_6 O 0.47337(19) 0.6131(2) 0.64586(19)
O32_6 O 0.14586(19) 0.52663(19) 0.8869(2)
O33_6 O 0.52663(19) 0.8869(2) 0.85414(19)
O35_6 O 0.3869(2) 0.64586(19) 0.47337(19)
O38_6 O 0.41513(17) 0.87995(18) 0.97457(18)
O39_6 O 0.47457(18) 0.58487(17) 0.62005(18)
O40_6 O 0.12005(18) 0.52543(18) 0.91513(17)
O41_6 O 0.52543(18) 0.91513(17) 0.87995(18)
O43_6 O 0.41513(17) 0.62005(18) 0.47457(18)
O44_12 O 0.1570(2) 1.0000 0.6613(3)
O45_6 O 0.3387(3) 0.6570(2) 0.5000
O46_12 O 0.0771(3) 1.0000 0.5702(3)
O47_6 O 0.4298(3) 0.5771(3) 0.5000
C20_6 C 0.4060(2) 0.86200(19) 0.96540(18)
C21_6 C 0.46540(18) 0.5940(2) 0.63800(19)
C22_6 C 0.13800(19) 0.53460(18) 0.9060(2)
C25_6 C 0.4179(2) 0.8504(2) 0.94509(17)
C26_6 C 0.44509(17) 0.5821(2) 0.6496(2)
C27_6 C 0.1496(2) 0.55491(17) 0.9179(2)
C30_6 C 0.43734(19) 0.86117(19) 0.93572(17)
C31_6 C 0.43572(17) 0.56266(19) 0.63883(19)
C32_6 C 0.13883(19) 0.56428(17) 0.93734(19)
H13_6 H 0.4428 0.8756 0.9421
H14_6 H 0.4421 0.5572 0.6244
H15_6 H 0.1244 0.5579 0.9428
C35_6 C 0.44882(17) 0.8512(2) 0.9173(2)
C36_6 C 0.4173(2) 0.55118(17) 0.6488(2)
C37_6 C 0.1488(2) 0.5827(2) 0.94882(17)
C40_6 C 0.47000(18) 0.8624(2) 0.9064(2)
C41_6 C 0.4064(2) 0.53000(18) 0.6376(2)
C42_6 C 0.1376(2) 0.5936(2) 0.97000(18)
C45_6 C 0.44089(18) 0.83044(19) 0.90809(19)
C46_6 C 0.40809(19) 0.55911(18) 0.66956(19)
C47_6 C 0.16956(19) 0.59191(19) 0.94089(18)
H18_6 H 0.4489 0.8235 0.8952
H19_6 H 0.3952 0.5511 0.6765
H20_6 H 0.1765 0.6048 0.9489
C50_6 C 0.4215(2) 0.8196(2) 0.9174(2)
C51_6 C 0.4174(2) 0.5785(2) 0.6804(2)
C52_6 C 0.1804(2) 0.5826(2) 0.9215(2)
C55_6 C 0.4098(2) 0.82914(19) 0.93578(17)
C56_6 C 0.43578(17) 0.5902(2) 0.67086(19)
C57_6 C 0.17086(19) 0.56422(17) 0.9098(2)
H23_6 H 0.3964 0.8216 0.9422
H24_6 H 0.4422 0.6036 0.6784
H25_6 H 0.1784 0.5578 0.8964
N5_6 N 0.4141(2) 0.79809(18) 0.9071(2)
N6_6 N 0.4071(2) 0.5859(2) 0.70191(18)
N7_6 N 0.20191(18) 0.5929(2) 0.9141(2)
N10_6 N 0.4042(2) 0.7839(2) 0.9198(3)
N11_6 N 0.4198(3) 0.5958(2) 0.7161(2)
N12_6 N 0.2161(2) 0.5802(3) 0.9042(2)
C60_6 C 0.39713(19) 0.7623(2) 0.9085(3)
C61_6 C 0.4085(3) 0.60287(19) 0.7377(2)
C62_6 C 0.2377(2) 0.5915(3) 0.89713(19)
C65_6 C 0.3828(2) 0.7476(3) 0.9220(3)
C66_6 C 0.4220(3) 0.6172(2) 0.7524(3)
C67_6 C 0.2524(3) 0.5780(3) 0.8828(2)
H28_6 H 0.3783 0.7518 0.9375
H29_6 H 0.4375 0.6217 0.7482
H30_6 H 0.2482 0.5625 0.8783
C70_6 C 0.3754(3) 0.7267(3) 0.9122(3)
C71_6 C 0.4122(3) 0.6246(3) 0.7733(3)
C72_6 C 0.2733(3) 0.5878(3) 0.8754(3)
H33_6 H 0.3656 0.7165 0.9212
H34_6 H 0.4212 0.6344 0.7835
H35_6 H 0.2835 0.5788 0.8656
C75_6 C 0.3819(2) 0.7202(3) 0.8895(3)
C76_6 C 0.3895(3) 0.6181(2) 0.7798(3)
C77_6 C 0.2798(3) 0.6105(3) 0.8819(2)
C80_6 C 0.3959(3) 0.7351(3) 0.8771(3)
C81_6 C 0.3771(3) 0.6041(3) 0.7649(3)
C82_6 C 0.2649(3) 0.6229(3) 0.8959(3)
H38_6 H 0.4004 0.7309 0.8616
H39_6 H 0.3616 0.5996 0.7691
H40_6 H 0.2691 0.6384 0.9004
C85_6 C 0.4039(3) 0.7570(3) 0.8866(3)
C86_6 C 0.3866(3) 0.5961(3) 0.7430(3)
C87_6 C 0.2430(3) 0.6134(3) 0.9039(3)
H43_6 H 0.4137 0.7673 0.8778
H44_6 H 0.3778 0.5863 0.7327
H45_6 H 0.2327 0.6222 0.9137
O50_6 O 0.3733(3) 0.6991(3) 0.8821(3)
O51_6 O 0.3821(3) 0.6267(3) 0.8009(3)
O52_6 O 0.3009(3) 0.6179(3) 0.8733(3)
C90_6 C 0.3792(3) 0.6904(2) 0.8597(3)
C91_6 C 0.3597(3) 0.6208(3) 0.8096(2)
C92_6 C 0.3096(2) 0.6403(3) 0.8792(3)
H48_6 H 0.3959 0.6856 0.8594
H49_6 H 0.3594 0.6041 0.8144
H50_6 H 0.3144 0.6406 0.8959
H53_6 H 0.3768 0.7028 0.8477
H54_6 H 0.3477 0.6232 0.7972
H55_6 H 0.2972 0.6523 0.8768
C95_6 C 0.3638(3) 0.6696(2) 0.8543(3)
C96_6 C 0.3543(3) 0.6362(3) 0.8304(2)
C97_6 C 0.3304(2) 0.6457(3) 0.8638(3)
C100_6 C 0.3687(2) 0.6554(3) 0.8351(2)
C101_6 C 0.3351(2) 0.6313(2) 0.8446(3)
C102_6 C 0.3446(3) 0.6649(2) 0.8687(2)
H58_6 H 0.3818 0.6587 0.8253
H59_6 H 0.3413 0.6747 0.8818
H60_6 H 0.3253 0.6182 0.8413
O15_7 O 0.8888(2) 0.0212(2) 0.35217(19)
O25_7 O 0.9144(2) 0.0214(2) 0.3812(2)
O34_7 O 0.85414(19) 0.02663(19) 0.3869(2)
O42_7 O 0.87995(18) 0.02543(18) 0.41513(17)
O44_13 O 0.8430(2) 0.0000 0.3387(3)
O46_13 O 0.9229(3) 0.0000 0.4298(3)
O5_7 O 0.5000 0.8387(3) 0.1570(2)
O6_7 O 0.5000 0.9298(3) 0.0771(3)
Zn8_13 Zn 0.59684(7) 0.90094(7) -0.0000
Zn11_13 Zn 0.90316(7) 0.59906(7) -0.0000
Zn17_13 Zn 0.63575(8) 0.86564(7) -0.0000
Zn20_13 Zn 0.86425(8) 0.63436(7) -0.0000
O10_7 O 0.5212(2) 0.85217(19) 0.1112(2)
O12_7 O 0.85217(19) 0.6112(2) 0.0212(2)
O13_7 O 0.4788(2) 0.85217(19) 0.1112(2)
O14_7 O 0.8888(2) 0.9788(2) 0.35217(19)
O17_7 O 0.64783(19) 0.6112(2) 0.5212(2)
O20_7 O 0.5214(2) 0.8812(2) 0.0856(2)
O22_7 O 0.8812(2) 0.5856(2) 0.0214(2)
O23_7 O 0.4786(2) 0.8812(2) 0.0856(2)
O24_7 O 0.9144(2) 0.9786(2) 0.3812(2)
O27_7 O 0.6188(2) 0.5856(2) 0.5214(2)
O30_7 O 0.6131(2) 0.85414(19) 0.02663(19)
O31_7 O 0.52663(19) 0.6131(2) 0.35414(19)
O32_7 O 0.85414(19) 0.52663(19) 0.1131(2)
O33_7 O 0.47337(19) 0.8869(2) 0.14586(19)
O35_7 O 0.6131(2) 0.64586(19) 0.52663(19)
O38_7 O 0.58487(17) 0.87995(18) 0.02543(18)
O39_7 O 0.52543(18) 0.58487(17) 0.37995(18)
O40_7 O 0.87995(18) 0.52543(18) 0.08487(17)
O41_7 O 0.47457(18) 0.91513(17) 0.12005(18)
O43_7 O 0.58487(17) 0.62005(18) 0.52543(18)
O44_14 O 0.8430(2) 1.0000 0.3387(3)
O45_7 O 0.6613(3) 0.6570(2) 0.5000
O46_14 O 0.9229(3) 1.0000 0.4298(3)
O47_7 O 0.5702(3) 0.5771(3) 0.5000
C20_7 C 0.5940(2) 0.86200(19) 0.03460(18)
C21_7 C 0.53460(18) 0.5940(2) 0.36200(19)
C22_7 C 0.86200(19) 0.53460(18) 0.0940(2)
C25_7 C 0.5821(2) 0.8504(2) 0.05491(17)
C26_7 C 0.55491(17) 0.5821(2) 0.3504(2)
C27_7 C 0.8504(2) 0.55491(17) 0.0821(2)
C30_7 C 0.56266(19) 0.86117(19) 0.06428(17)
C31_7 C 0.56428(17) 0.56266(19) 0.36117(19)
C32_7 C 0.86117(19) 0.56428(17) 0.06266(19)
H13_7 H 0.5572 0.8756 0.0579
H14_7 H 0.5579 0.5572 0.3756
H15_7 H 0.8756 0.5579 0.0572
C35_7 C 0.55118(17) 0.8512(2) 0.0827(2)
C36_7 C 0.5827(2) 0.55118(17) 0.3512(2)
C37_7 C 0.8512(2) 0.5827(2) 0.05118(17)
C40_7 C 0.53000(18) 0.8624(2) 0.0936(2)
C41_7 C 0.5936(2) 0.53000(18) 0.3624(2)
C42_7 C 0.8624(2) 0.5936(2) 0.03000(18)
C45_7 C 0.55911(18) 0.83044(19) 0.09191(19)
C46_7 C 0.59191(19) 0.55911(18) 0.33044(19)
C47_7 C 0.83044(19) 0.59191(19) 0.05911(18)
H18_7 H 0.5511 0.8235 0.1048
H19_7 H 0.6048 0.5511 0.3235
H20_7 H 0.8235 0.6048 0.0511
C50_7 C 0.5785(2) 0.8196(2) 0.0826(2)
C51_7 C 0.5826(2) 0.5785(2) 0.3196(2)
C52_7 C 0.8196(2) 0.5826(2) 0.0785(2)
C55_7 C 0.5902(2) 0.82914(19) 0.06422(17)
C56_7 C 0.56422(17) 0.5902(2) 0.32914(19)
C57_7 C 0.82914(19) 0.56422(17) 0.0902(2)
H23_7 H 0.6036 0.8216 0.0578
H24_7 H 0.5578 0.6036 0.3216
H25_7 H 0.8216 0.5578 0.1036
N5_7 N 0.5859(2) 0.79809(18) 0.0929(2)
N6_7 N 0.5929(2) 0.5859(2) 0.29809(18)
N7_7 N 0.79809(18) 0.5929(2) 0.0859(2)
N10_7 N 0.5958(2) 0.7839(2) 0.0802(3)
N11_7 N 0.5802(3) 0.5958(2) 0.2839(2)
N12_7 N 0.7839(2) 0.5802(3) 0.0958(2)
C60_7 C 0.60287(19) 0.7623(2) 0.0915(3)
C61_7 C 0.5915(3) 0.60287(19) 0.2623(2)
C62_7 C 0.7623(2) 0.5915(3) 0.10287(19)
C65_7 C 0.6172(2) 0.7476(3) 0.0780(3)
C66_7 C 0.5780(3) 0.6172(2) 0.2476(3)
C67_7 C 0.7476(3) 0.5780(3) 0.1172(2)
H28_7 H 0.6217 0.7518 0.0625
H29_7 H 0.5625 0.6217 0.2518
H30_7 H 0.7518 0.5625 0.1217
C70_7 C 0.6246(3) 0.7267(3) 0.0878(3)
C71_7 C 0.5878(3) 0.6246(3) 0.2267(3)
C72_7 C 0.7267(3) 0.5878(3) 0.1246(3)
H33_7 H 0.6344 0.7165 0.0788
H34_7 H 0.5788 0.6344 0.2165
H35_7 H 0.7165 0.5788 0.1344
C75_7 C 0.6181(2) 0.7202(3) 0.1105(3)
C76_7 C 0.6105(3) 0.6181(2) 0.2202(3)
C77_7 C 0.7202(3) 0.6105(3) 0.1181(2)
C80_7 C 0.6041(3) 0.7351(3) 0.1229(3)
C81_7 C 0.6229(3) 0.6041(3) 0.2351(3)
C82_7 C 0.7351(3) 0.6229(3) 0.1041(3)
H38_7 H 0.5996 0.7309 0.1384
H39_7 H 0.6384 0.5996 0.2309
H40_7 H 0.7309 0.6384 0.0996
C85_7 C 0.5961(3) 0.7570(3) 0.1134(3)
C86_7 C 0.6134(3) 0.5961(3) 0.2570(3)
C87_7 C 0.7570(3) 0.6134(3) 0.0961(3)
H43_7 H 0.5863 0.7673 0.1222
H44_7 H 0.6222 0.5863 0.2673
H45_7 H 0.7673 0.6222 0.0863
O50_7 O 0.6267(3) 0.6991(3) 0.1179(3)
O51_7 O 0.6179(3) 0.6267(3) 0.1991(3)
O52_7 O 0.6991(3) 0.6179(3) 0.1267(3)
C90_7 C 0.6208(3) 0.6904(2) 0.1403(3)
C91_7 C 0.6403(3) 0.6208(3) 0.1904(2)
C92_7 C 0.6904(2) 0.6403(3) 0.1208(3)
H48_7 H 0.6041 0.6856 0.1406
H49_7 H 0.6406 0.6041 0.1856
H50_7 H 0.6856 0.6406 0.1041
H53_7 H 0.6232 0.7028 0.1523
H54_7 H 0.6523 0.6232 0.2028
H55_7 H 0.7028 0.6523 0.1232
C95_7 C 0.6362(3) 0.6696(2) 0.1457(3)
C96_7 C 0.6457(3) 0.6362(3) 0.1696(2)
C97_7 C 0.6696(2) 0.6457(3) 0.1362(3)
C100_7 C 0.6313(2) 0.6554(3) 0.1649(2)
C101_7 C 0.6649(2) 0.6313(2) 0.1554(3)
C102_7 C 0.6554(3) 0.6649(2) 0.1313(2)
H58_7 H 0.6182 0.6587 0.1747
H59_7 H 0.6587 0.6747 0.1182
H60_7 H 0.6747 0.6182 0.1587
Zn8_14 Zn 0.59684(7) 0.90094(7) 1.0000
Zn11_14 Zn 0.90316(7) 0.59906(7) 1.0000
Zn17_14 Zn 0.63575(8) 0.86564(7) 1.0000
Zn20_14 Zn 0.86425(8) 0.63436(7) 1.0000
Zn8_15 Zn 0.59684(7) 0.09906(7) 0.0000
Zn11_15 Zn 0.90316(7) 0.40094(7) 0.0000
Zn17_15 Zn 0.63575(8) 0.13436(7) 0.0000
Zn20_15 Zn 0.86425(8) 0.36564(7) 0.0000
O5_8 O 0.5000 0.1613(3) 0.8430(2)
O6_8 O 0.5000 0.0702(3) 0.9229(3)
Zn8_16 Zn 0.59684(7) 0.09906(7) 1.0000
Zn11_16 Zn 0.90316(7) 0.40094(7) 1.0000
Zn17_16 Zn 0.63575(8) 0.13436(7) 1.0000
Zn20_16 Zn 0.86425(8) 0.36564(7) 1.0000
O10_8 O 0.5212(2) 0.14783(19) 0.8888(2)
O12_8 O 0.85217(19) 0.3888(2) 0.9788(2)
O13_8 O 0.4788(2) 0.14783(19) 0.8888(2)
O14_8 O 0.8888(2) 0.0212(2) 0.64783(19)
O17_8 O 0.64783(19) 0.3888(2) 0.4788(2)
O20_8 O 0.5214(2) 0.1188(2) 0.9144(2)
O22_8 O 0.8812(2) 0.4144(2) 0.9786(2)
O23_8 O 0.4786(2) 0.1188(2) 0.9144(2)
O24_8 O 0.9144(2) 0.0214(2) 0.6188(2)
O27_8 O 0.6188(2) 0.4144(2) 0.4786(2)
O30_8 O 0.6131(2) 0.14586(19) 0.97337(19)
O31_8 O 0.52663(19) 0.3869(2) 0.64586(19)
O32_8 O 0.85414(19) 0.47337(19) 0.8869(2)
O33_8 O 0.47337(19) 0.1131(2) 0.85414(19)
O35_8 O 0.6131(2) 0.35414(19) 0.47337(19)
O38_8 O 0.58487(17) 0.12005(18) 0.97457(18)
O39_8 O 0.52543(18) 0.41513(17) 0.62005(18)
O40_8 O 0.87995(18) 0.47457(18) 0.91513(17)
O41_8 O 0.47457(18) 0.08487(17) 0.87995(18)
O43_8 O 0.58487(17) 0.37995(18) 0.47457(18)
O44_15 O 0.8430(2) -0.0000 0.6613(3)
O45_8 O 0.6613(3) 0.3430(2) 0.5000
O46_15 O 0.9229(3) -0.0000 0.5702(3)
O47_8 O 0.5702(3) 0.4229(3) 0.5000
C20_8 C 0.5940(2) 0.13800(19) 0.96540(18)
C21_8 C 0.53460(18) 0.4060(2) 0.63800(19)
C22_8 C 0.86200(19) 0.46540(18) 0.9060(2)
C25_8 C 0.5821(2) 0.1496(2) 0.94509(17)
C26_8 C 0.55491(17) 0.4179(2) 0.6496(2)
C27_8 C 0.8504(2) 0.44509(17) 0.9179(2)
C30_8 C 0.56266(19) 0.13883(19) 0.93572(17)
C31_8 C 0.56428(17) 0.43734(19) 0.63883(19)
C32_8 C 0.86117(19) 0.43572(17) 0.93734(19)
H13_8 H 0.5572 0.1244 0.9421
H14_8 H 0.5579 0.4428 0.6244
H15_8 H 0.8756 0.4421 0.9428
C35_8 C 0.55118(17) 0.1488(2) 0.9173(2)
C36_8 C 0.5827(2) 0.44882(17) 0.6488(2)
C37_8 C 0.8512(2) 0.4173(2) 0.94882(17)
C40_8 C 0.53000(18) 0.1376(2) 0.9064(2)
C41_8 C 0.5936(2) 0.47000(18) 0.6376(2)
C42_8 C 0.8624(2) 0.4064(2) 0.97000(18)
C45_8 C 0.55911(18) 0.16956(19) 0.90809(19)
C46_8 C 0.59191(19) 0.44089(18) 0.66956(19)
C47_8 C 0.83044(19) 0.40809(19) 0.94089(18)
H18_8 H 0.5511 0.1765 0.8952
H19_8 H 0.6048 0.4489 0.6765
H20_8 H 0.8235 0.3952 0.9489
C50_8 C 0.5785(2) 0.1804(2) 0.9174(2)
C51_8 C 0.5826(2) 0.4215(2) 0.6804(2)
C52_8 C 0.8196(2) 0.4174(2) 0.9215(2)
C55_8 C 0.5902(2) 0.17086(19) 0.93578(17)
C56_8 C 0.56422(17) 0.4098(2) 0.67086(19)
C57_8 C 0.82914(19) 0.43578(17) 0.9098(2)
H23_8 H 0.6036 0.1784 0.9422
H24_8 H 0.5578 0.3964 0.6784
H25_8 H 0.8216 0.4422 0.8964
N5_8 N 0.5859(2) 0.20191(18) 0.9071(2)
N6_8 N 0.5929(2) 0.4141(2) 0.70191(18)
N7_8 N 0.79809(18) 0.4071(2) 0.9141(2)
N10_8 N 0.5958(2) 0.2161(2) 0.9198(3)
N11_8 N 0.5802(3) 0.4042(2) 0.7161(2)
N12_8 N 0.7839(2) 0.4198(3) 0.9042(2)
C60_8 C 0.60287(19) 0.2377(2) 0.9085(3)
C61_8 C 0.5915(3) 0.39713(19) 0.7377(2)
C62_8 C 0.7623(2) 0.4085(3) 0.89713(19)
C65_8 C 0.6172(2) 0.2524(3) 0.9220(3)
C66_8 C 0.5780(3) 0.3828(2) 0.7524(3)
C67_8 C 0.7476(3) 0.4220(3) 0.8828(2)
H28_8 H 0.6217 0.2482 0.9375
H29_8 H 0.5625 0.3783 0.7482
H30_8 H 0.7518 0.4375 0.8783
C70_8 C 0.6246(3) 0.2733(3) 0.9122(3)
C71_8 C 0.5878(3) 0.3754(3) 0.7733(3)
C72_8 C 0.7267(3) 0.4122(3) 0.8754(3)
H33_8 H 0.6344 0.2835 0.9212
H34_8 H 0.5788 0.3656 0.7835
H35_8 H 0.7165 0.4212 0.8656
C75_8 C 0.6181(2) 0.2798(3) 0.8895(3)
C76_8 C 0.6105(3) 0.3819(2) 0.7798(3)
C77_8 C 0.7202(3) 0.3895(3) 0.8819(2)
C80_8 C 0.6041(3) 0.2649(3) 0.8771(3)
C81_8 C 0.6229(3) 0.3959(3) 0.7649(3)
C82_8 C 0.7351(3) 0.3771(3) 0.8959(3)
H38_8 H 0.5996 0.2691 0.8616
H39_8 H 0.6384 0.4004 0.7691
H40_8 H 0.7309 0.3616 0.9004
C85_8 C 0.5961(3) 0.2430(3) 0.8866(3)
C86_8 C 0.6134(3) 0.4039(3) 0.7430(3)
C87_8 C 0.7570(3) 0.3866(3) 0.9039(3)
H43_8 H 0.5863 0.2327 0.8778
H44_8 H 0.6222 0.4137 0.7327
H45_8 H 0.7673 0.3778 0.9137
O50_8 O 0.6267(3) 0.3009(3) 0.8821(3)
O51_8 O 0.6179(3) 0.3733(3) 0.8009(3)
O52_8 O 0.6991(3) 0.3821(3) 0.8733(3)
C90_8 C 0.6208(3) 0.3096(2) 0.8597(3)
C91_8 C 0.6403(3) 0.3792(3) 0.8096(2)
C92_8 C 0.6904(2) 0.3597(3) 0.8792(3)
H48_8 H 0.6041 0.3144 0.8594
H49_8 H 0.6406 0.3959 0.8144
H50_8 H 0.6856 0.3594 0.8959
H53_8 H 0.6232 0.2972 0.8477
H54_8 H 0.6523 0.3768 0.7972
H55_8 H 0.7028 0.3477 0.8768
C95_8 C 0.6362(3) 0.3304(2) 0.8543(3)
C96_8 C 0.6457(3) 0.3638(3) 0.8304(2)
C97_8 C 0.6696(2) 0.3543(3) 0.8638(3)
C100_8 C 0.6313(2) 0.3446(3) 0.8351(2)
C101_8 C 0.6649(2) 0.3687(2) 0.8446(3)
C102_8 C 0.6554(3) 0.3351(2) 0.8687(2)
H58_8 H 0.6182 0.3413 0.8253
H59_8 H 0.6587 0.3253 0.8818
H60_8 H 0.6747 0.3818 0.8413
O15_8 O 0.8888(2) 0.9788(2) 0.64783(19)
O25_8 O 0.9144(2) 0.9786(2) 0.6188(2)
O34_8 O 0.85414(19) 0.97337(19) 0.6131(2)
O42_8 O 0.87995(18) 0.97457(18) 0.58487(17)
O44_16 O 0.8430(2) 1.0000 0.6613(3)
O46_16 O 0.9229(3) 1.0000 0.5702(3)
O5_9 O 0.1570(2) 0.5000 0.1613(3)
O6_9 O 0.0771(3) 0.5000 0.0702(3)
O13_9 O 0.1112(2) 0.5212(2) 0.14783(19)
O14_9 O 0.35217(19) 0.1112(2) 0.0212(2)
O17_9 O 0.5212(2) 0.35217(19) 0.3888(2)
O23_9 O 0.0856(2) 0.5214(2) 0.1188(2)
O24_9 O 0.3812(2) 0.0856(2) 0.0214(2)
O27_9 O 0.5214(2) 0.3812(2) 0.4144(2)
O33_9 O 0.14586(19) 0.52663(19) 0.1131(2)
O35_9 O 0.52663(19) 0.3869(2) 0.35414(19)
O41_9 O 0.12005(18) 0.52543(18) 0.08487(17)
O43_9 O 0.52543(18) 0.41513(17) 0.37995(18)
O44_17 O 0.3387(3) 0.1570(2) -0.0000
O45_9 O 0.5000 0.3387(3) 0.3430(2)
O46_17 O 0.4298(3) 0.0771(3) -0.0000
O47_9 O 0.5000 0.4298(3) 0.4229(3)
O15_9 O 0.35217(19) 0.1112(2) 0.9788(2)
O25_9 O 0.3812(2) 0.0856(2) 0.9786(2)
O34_9 O 0.3869(2) 0.14586(19) 0.97337(19)
O42_9 O 0.41513(17) 0.12005(18) 0.97457(18)
O44_18 O 0.3387(3) 0.1570(2) 1.0000
O46_18 O 0.4298(3) 0.0771(3) 1.0000
O15_10 O 0.64783(19) 0.1112(2) 0.0212(2)
O25_10 O 0.6188(2) 0.0856(2) 0.0214(2)
O34_10 O 0.6131(2) 0.14586(19) 0.02663(19)
O42_10 O 0.58487(17) 0.12005(18) 0.02543(18)
O44_19 O 0.6613(3) 0.1570(2) 0.0000
O46_19 O 0.5702(3) 0.0771(3) 0.0000
O5_10 O 0.8430(2) 0.5000 0.8387(3)
O6_10 O 0.9229(3) 0.5000 0.9298(3)
O13_10 O 0.8888(2) 0.5212(2) 0.85217(19)
O14_10 O 0.64783(19) 0.1112(2) 0.9788(2)
O17_10 O 0.4788(2) 0.35217(19) 0.6112(2)
O23_10 O 0.9144(2) 0.5214(2) 0.8812(2)
O24_10 O 0.6188(2) 0.0856(2) 0.9786(2)
O27_10 O 0.4786(2) 0.3812(2) 0.5856(2)
O33_10 O 0.85414(19) 0.52663(19) 0.8869(2)
O35_10 O 0.47337(19) 0.3869(2) 0.64586(19)
O41_10 O 0.87995(18) 0.52543(18) 0.91513(17)
O43_10 O 0.47457(18) 0.41513(17) 0.62005(18)
O44_20 O 0.6613(3) 0.1570(2) 1.0000
O45_10 O 0.5000 0.3387(3) 0.6570(2)
O46_20 O 0.5702(3) 0.0771(3) 1.0000
O47_10 O 0.5000 0.4298(3) 0.5771(3)
O15_11 O 0.35217(19) 0.8888(2) 0.0212(2)
O25_11 O 0.3812(2) 0.9144(2) 0.0214(2)
O34_11 O 0.3869(2) 0.85414(19) 0.02663(19)
O42_11 O 0.41513(17) 0.87995(18) 0.02543(18)
O44_21 O 0.3387(3) 0.8430(2) 0.0000
O46_21 O 0.4298(3) 0.9229(3) 0.0000
O5_11 O 0.1570(2) 0.5000 0.8387(3)
O6_11 O 0.0771(3) 0.5000 0.9298(3)
O13_11 O 0.1112(2) 0.4788(2) 0.85217(19)
O14_11 O 0.35217(19) 0.8888(2) 0.9788(2)
O17_11 O 0.5212(2) 0.64783(19) 0.6112(2)
O23_11 O 0.0856(2) 0.4786(2) 0.8812(2)
O24_11 O 0.3812(2) 0.9144(2) 0.9786(2)
O27_11 O 0.5214(2) 0.6188(2) 0.5856(2)
O33_11 O 0.14586(19) 0.47337(19) 0.8869(2)
O35_11 O 0.52663(19) 0.6131(2) 0.64586(19)
O41_11 O 0.12005(18) 0.47457(18) 0.91513(17)
O43_11 O 0.52543(18) 0.58487(17) 0.62005(18)
O44_22 O 0.3387(3) 0.8430(2) 1.0000
O45_11 O 0.5000 0.6613(3) 0.6570(2)
O46_22 O 0.4298(3) 0.9229(3) 1.0000
O47_11 O 0.5000 0.5702(3) 0.5771(3)
O5_12 O 0.8430(2) 0.5000 0.1613(3)
O6_12 O 0.9229(3) 0.5000 0.0702(3)
O13_12 O 0.8888(2) 0.4788(2) 0.14783(19)
O14_12 O 0.64783(19) 0.8888(2) 0.0212(2)
O17_12 O 0.4788(2) 0.64783(19) 0.3888(2)
O23_12 O 0.9144(2) 0.4786(2) 0.1188(2)
O24_12 O 0.6188(2) 0.9144(2) 0.0214(2)
O27_12 O 0.4786(2) 0.6188(2) 0.4144(2)
O33_12 O 0.85414(19) 0.47337(19) 0.1131(2)
O35_12 O 0.47337(19) 0.6131(2) 0.35414(19)
O41_12 O 0.87995(18) 0.47457(18) 0.08487(17)
O43_12 O 0.47457(18) 0.58487(17) 0.37995(18)
O44_23 O 0.6613(3) 0.8430(2) -0.0000
O45_12 O 0.5000 0.6613(3) 0.3430(2)
O46_23 O 0.5702(3) 0.9229(3) -0.0000
O47_12 O 0.5000 0.5702(3) 0.4229(3)
O15_12 O 0.64783(19) 0.8888(2) 0.9788(2)
O25_12 O 0.6188(2) 0.9144(2) 0.9786(2)
O34_12 O 0.6131(2) 0.85414(19) 0.97337(19)
O42_12 O 0.58487(17) 0.87995(18) 0.97457(18)
O44_24 O 0.6613(3) 0.8430(2) 1.0000
O46_24 O 0.5702(3) 0.9229(3) 1.0000
O17_13 O 0.3888(2) 0.0212(2) 0.85217(19)
O27_13 O 0.4144(2) 0.0214(2) 0.8812(2)
O35_13 O 0.35414(19) 0.02663(19) 0.8869(2)
O43_13 O 0.37995(18) 0.02543(18) 0.91513(17)
O45_13 O 0.3430(2) -0.0000 0.8387(3)
O47_13 O 0.4229(3) -0.0000 0.9298(3)
O5_13 O 0.1613(3) 0.6570(2) -0.0000
O6_13 O 0.0702(3) 0.5771(3) -0.0000
O13_13 O 0.14783(19) 0.6112(2) 0.0212(2)
O23_13 O 0.1188(2) 0.5856(2) 0.0214(2)
O33_13 O 0.1131(2) 0.64586(19) 0.02663(19)
O41_13 O 0.08487(17) 0.62005(18) 0.02543(18)
O3_5 O 0.1131(2) 0.64586(19) 0.97337(19)
O4_5 O 0.08487(17) 0.62005(18) 0.97457(18)
O5_14 O 0.1613(3) 0.6570(2) 1.0000
O6_14 O 0.0702(3) 0.5771(3) 1.0000
C1_5 C 0.0940(2) 0.63800(19) 0.96540(18)
C2_5 C 0.0821(2) 0.6496(2) 0.94509(17)
C3_5 C 0.06266(19) 0.63883(19) 0.93572(17)
H1_5 H 0.0572 0.6244 0.9421
C4_5 C 0.05118(17) 0.6488(2) 0.9173(2)
C5_5 C 0.03000(18) 0.6376(2) 0.9064(2)
C6_5 C 0.05911(18) 0.66956(19) 0.90809(19)
H2_5 H 0.0511 0.6765 0.8952
C7_5 C 0.0785(2) 0.6804(2) 0.9174(2)
C8_5 C 0.0902(2) 0.67086(19) 0.93578(17)
H3_5 H 0.1036 0.6784 0.9422
N1_5 N 0.0859(2) 0.70191(18) 0.9071(2)
N2_5 N 0.0958(2) 0.7161(2) 0.9198(3)
C9_5 C 0.10287(19) 0.7377(2) 0.9085(3)
C10_5 C 0.1172(2) 0.7524(3) 0.9220(3)
H4_5 H 0.1217 0.7482 0.9375
C11_5 C 0.1246(3) 0.7733(3) 0.9122(3)
H5_5 H 0.1344 0.7835 0.9212
C12_5 C 0.1181(2) 0.7798(3) 0.8895(3)
C13_5 C 0.1041(3) 0.7649(3) 0.8771(3)
H6_5 H 0.0996 0.7691 0.8616
C14_5 C 0.0961(3) 0.7430(3) 0.8866(3)
H7_5 H 0.0863 0.7327 0.8778
O7_5 O 0.1267(3) 0.8009(3) 0.8821(3)
C15_5 C 0.1208(3) 0.8096(2) 0.8597(3)
H8_5 H 0.1041 0.8144 0.8594
H9_5 H 0.1232 0.7972 0.8477
C16_5 C 0.1362(3) 0.8304(2) 0.8543(3)
C17_5 C 0.1313(2) 0.8446(3) 0.8351(2)
H10_5 H 0.1182 0.8413 0.8253
O28_5 O 0.02663(19) 0.8869(2) 0.64586(19)
O29_5 O 0.35414(19) 0.97337(19) 0.8869(2)
O36_5 O 0.02543(18) 0.91513(17) 0.62005(18)
O37_5 O 0.37995(18) 0.97457(18) 0.91513(17)
O44_25 O -0.0000 0.8387(3) 0.6570(2)
O45_14 O 0.3430(2) 1.0000 0.8387(3)
O46_25 O -0.0000 0.9298(3) 0.5771(3)
O47_14 O 0.4229(3) 1.0000 0.9298(3)
C18_5 C 0.03460(18) 0.9060(2) 0.63800(19)
C19_5 C 0.36200(19) 0.96540(18) 0.9060(2)
C23_5 C 0.05491(17) 0.9179(2) 0.6496(2)
C24_5 C 0.3504(2) 0.94509(17) 0.9179(2)
C28_5 C 0.06428(17) 0.93734(19) 0.63883(19)
C29_5 C 0.36117(19) 0.93572(17) 0.93734(19)
H11_5 H 0.0579 0.9428 0.6244
H12_5 H 0.3756 0.9421 0.9428
C33_5 C 0.0827(2) 0.94882(17) 0.6488(2)
C34_5 C 0.3512(2) 0.9173(2) 0.94882(17)
C38_5 C 0.0936(2) 0.97000(18) 0.6376(2)
C39_5 C 0.3624(2) 0.9064(2) 0.97000(18)
C43_5 C 0.09191(19) 0.94089(18) 0.66956(19)
C44_5 C 0.33044(19) 0.90809(19) 0.94089(18)
H16_5 H 0.1048 0.9489 0.6765
H17_5 H 0.3235 0.8952 0.9489
C48_5 C 0.0826(2) 0.9215(2) 0.6804(2)
C49_5 C 0.3196(2) 0.9174(2) 0.9215(2)
C53_5 C 0.06422(17) 0.9098(2) 0.67086(19)
C54_5 C 0.32914(19) 0.93578(17) 0.9098(2)
H21_5 H 0.0578 0.8964 0.6784
H22_5 H 0.3216 0.9422 0.8964
N3_5 N 0.0929(2) 0.9141(2) 0.70191(18)
N4_5 N 0.29809(18) 0.9071(2) 0.9141(2)
N8_5 N 0.0802(3) 0.9042(2) 0.7161(2)
N9_5 N 0.2839(2) 0.9198(3) 0.9042(2)
C58_5 C 0.0915(3) 0.89713(19) 0.7377(2)
C59_5 C 0.2623(2) 0.9085(3) 0.89713(19)
C63_5 C 0.0780(3) 0.8828(2) 0.7524(3)
C64_5 C 0.2476(3) 0.9220(3) 0.8828(2)
H26_5 H 0.0625 0.8783 0.7482
H27_5 H 0.2518 0.9375 0.8783
C68_5 C 0.0878(3) 0.8754(3) 0.7733(3)
C69_5 C 0.2267(3) 0.9122(3) 0.8754(3)
H31_5 H 0.0788 0.8656 0.7835
H32_5 H 0.2165 0.9212 0.8656
C73_5 C 0.1105(3) 0.8819(2) 0.7798(3)
C74_5 C 0.2202(3) 0.8895(3) 0.8819(2)
C78_5 C 0.1229(3) 0.8959(3) 0.7649(3)
C79_5 C 0.2351(3) 0.8771(3) 0.8959(3)
H36_5 H 0.1384 0.9004 0.7691
H37_5 H 0.2309 0.8616 0.9004
C83_5 C 0.1134(3) 0.9039(3) 0.7430(3)
C84_5 C 0.2570(3) 0.8866(3) 0.9039(3)
H41_5 H 0.1222 0.9137 0.7327
H42_5 H 0.2673 0.8778 0.9137
O48_5 O 0.1179(3) 0.8733(3) 0.8009(3)
O49_5 O 0.1991(3) 0.8821(3) 0.8733(3)
C88_5 C 0.1403(3) 0.8792(3) 0.8096(2)
C89_5 C 0.1904(2) 0.8597(3) 0.8792(3)
H46_5 H 0.1406 0.8959 0.8144
H47_5 H 0.1856 0.8594 0.8959
H51_5 H 0.1523 0.8768 0.7972
H52_5 H 0.2028 0.8477 0.8768
C93_5 C 0.1457(3) 0.8638(3) 0.8304(2)
C94_5 C 0.1696(2) 0.8543(3) 0.8638(3)
C98_5 C 0.1649(2) 0.8687(2) 0.8446(3)
C99_5 C 0.1554(3) 0.8351(2) 0.8687(2)
H56_5 H 0.1587 0.8253 0.8818
H57_5 H 0.1747 0.8818 0.8413
O15_13 O 0.9788(2) 0.85217(19) 0.6112(2)
O25_13 O 0.9786(2) 0.8812(2) 0.5856(2)
O34_13 O 0.97337(19) 0.8869(2) 0.64586(19)
O42_13 O 0.97457(18) 0.91513(17) 0.62005(18)
O44_26 O 1.0000 0.8387(3) 0.6570(2)
O46_26 O 1.0000 0.9298(3) 0.5771(3)
O15_14 O 0.0212(2) 0.14783(19) 0.6112(2)
O25_14 O 0.0214(2) 0.1188(2) 0.5856(2)
O34_14 O 0.02663(19) 0.1131(2) 0.64586(19)
O42_14 O 0.02543(18) 0.08487(17) 0.62005(18)
O44_27 O 0.0000 0.1613(3) 0.6570(2)
O46_27 O 0.0000 0.0702(3) 0.5771(3)
O5_15 O 0.8387(3) 0.3430(2) -0.0000
O6_15 O 0.9298(3) 0.4229(3) -0.0000
O13_14 O 0.85217(19) 0.3888(2) 0.0212(2)
O23_14 O 0.8812(2) 0.4144(2) 0.0214(2)
O33_14 O 0.8869(2) 0.35414(19) 0.02663(19)
O41_14 O 0.91513(17) 0.37995(18) 0.02543(18)
O3_6 O 0.8869(2) 0.35414(19) 0.97337(19)
O4_6 O 0.91513(17) 0.37995(18) 0.97457(18)
O5_16 O 0.8387(3) 0.3430(2) 1.0000
O6_16 O 0.9298(3) 0.4229(3) 1.0000
C1_6 C 0.9060(2) 0.36200(19) 0.96540(18)
C2_6 C 0.9179(2) 0.3504(2) 0.94509(17)
C3_6 C 0.93734(19) 0.36117(19) 0.93572(17)
H1_6 H 0.9428 0.3756 0.9421
C4_6 C 0.94882(17) 0.3512(2) 0.9173(2)
C5_6 C 0.97000(18) 0.3624(2) 0.9064(2)
C6_6 C 0.94089(18) 0.33044(19) 0.90809(19)
H2_6 H 0.9489 0.3235 0.8952
C7_6 C 0.9215(2) 0.3196(2) 0.9174(2)
C8_6 C 0.9098(2) 0.32914(19) 0.93578(17)
H3_6 H 0.8964 0.3216 0.9422
N1_6 N 0.9141(2) 0.29809(18) 0.9071(2)
N2_6 N 0.9042(2) 0.2839(2) 0.9198(3)
C9_6 C 0.89713(19) 0.2623(2) 0.9085(3)
C10_6 C 0.8828(2) 0.2476(3) 0.9220(3)
H4_6 H 0.8783 0.2518 0.9375
C11_6 C 0.8754(3) 0.2267(3) 0.9122(3)
H5_6 H 0.8656 0.2165 0.9212
C12_6 C 0.8819(2) 0.2202(3) 0.8895(3)
C13_6 C 0.8959(3) 0.2351(3) 0.8771(3)
H6_6 H 0.9004 0.2309 0.8616
C14_6 C 0.9039(3) 0.2570(3) 0.8866(3)
H7_6 H 0.9137 0.2673 0.8778
O7_6 O 0.8733(3) 0.1991(3) 0.8821(3)
C15_6 C 0.8792(3) 0.1904(2) 0.8597(3)
H8_6 H 0.8959 0.1856 0.8594
H9_6 H 0.8768 0.2028 0.8477
C16_6 C 0.8638(3) 0.1696(2) 0.8543(3)
C17_6 C 0.8687(2) 0.1554(3) 0.8351(2)
H10_6 H 0.8818 0.1587 0.8253
O28_6 O 0.97337(19) 0.1131(2) 0.64586(19)
O29_6 O 0.64586(19) 0.02663(19) 0.8869(2)
O36_6 O 0.97457(18) 0.08487(17) 0.62005(18)
O37_6 O 0.62005(18) 0.02543(18) 0.91513(17)
O44_28 O 1.0000 0.1613(3) 0.6570(2)
O45_15 O 0.6570(2) 0.0000 0.8387(3)
O46_28 O 1.0000 0.0702(3) 0.5771(3)
O47_15 O 0.5771(3) 0.0000 0.9298(3)
C18_6 C 0.96540(18) 0.0940(2) 0.63800(19)
C19_6 C 0.63800(19) 0.03460(18) 0.9060(2)
C23_6 C 0.94509(17) 0.0821(2) 0.6496(2)
C24_6 C 0.6496(2) 0.05491(17) 0.9179(2)
C28_6 C 0.93572(17) 0.06266(19) 0.63883(19)
C29_6 C 0.63883(19) 0.06428(17) 0.93734(19)
H11_6 H 0.9421 0.0572 0.6244
H12_6 H 0.6244 0.0579 0.9428
C33_6 C 0.9173(2) 0.05118(17) 0.6488(2)
C34_6 C 0.6488(2) 0.0827(2) 0.94882(17)
C38_6 C 0.9064(2) 0.03000(18) 0.6376(2)
C39_6 C 0.6376(2) 0.0936(2) 0.97000(18)
C43_6 C 0.90809(19) 0.05911(18) 0.66956(19)
C44_6 C 0.66956(19) 0.09191(19) 0.94089(18)
H16_6 H 0.8952 0.0511 0.6765
H17_6 H 0.6765 0.1048 0.9489
C48_6 C 0.9174(2) 0.0785(2) 0.6804(2)
C49_6 C 0.6804(2) 0.0826(2) 0.9215(2)
C53_6 C 0.93578(17) 0.0902(2) 0.67086(19)
C54_6 C 0.67086(19) 0.06422(17) 0.9098(2)
H21_6 H 0.9422 0.1036 0.6784
H22_6 H 0.6784 0.0578 0.8964
N3_6 N 0.9071(2) 0.0859(2) 0.70191(18)
N4_6 N 0.70191(18) 0.0929(2) 0.9141(2)
N8_6 N 0.9198(3) 0.0958(2) 0.7161(2)
N9_6 N 0.7161(2) 0.0802(3) 0.9042(2)
C58_6 C 0.9085(3) 0.10287(19) 0.7377(2)
C59_6 C 0.7377(2) 0.0915(3) 0.89713(19)
C63_6 C 0.9220(3) 0.1172(2) 0.7524(3)
C64_6 C 0.7524(3) 0.0780(3) 0.8828(2)
H26_6 H 0.9375 0.1217 0.7482
H27_6 H 0.7482 0.0625 0.8783
C68_6 C 0.9122(3) 0.1246(3) 0.7733(3)
C69_6 C 0.7733(3) 0.0878(3) 0.8754(3)
H31_6 H 0.9212 0.1344 0.7835
H32_6 H 0.7835 0.0788 0.8656
C73_6 C 0.8895(3) 0.1181(2) 0.7798(3)
C74_6 C 0.7798(3) 0.1105(3) 0.8819(2)
C78_6 C 0.8771(3) 0.1041(3) 0.7649(3)
C79_6 C 0.7649(3) 0.1229(3) 0.8959(3)
H36_6 H 0.8616 0.0996 0.7691
H37_6 H 0.7691 0.1384 0.9004
C83_6 C 0.8866(3) 0.0961(3) 0.7430(3)
C84_6 C 0.7430(3) 0.1134(3) 0.9039(3)
H41_6 H 0.8778 0.0863 0.7327
H42_6 H 0.7327 0.1222 0.9137
O48_6 O 0.8821(3) 0.1267(3) 0.8009(3)
O49_6 O 0.8009(3) 0.1179(3) 0.8733(3)
C88_6 C 0.8597(3) 0.1208(3) 0.8096(2)
C89_6 C 0.8096(2) 0.1403(3) 0.8792(3)
H46_6 H 0.8594 0.1041 0.8144
H47_6 H 0.8144 0.1406 0.8959
H51_6 H 0.8477 0.1232 0.7972
H52_6 H 0.7972 0.1523 0.8768
C93_6 C 0.8543(3) 0.1362(3) 0.8304(2)
C94_6 C 0.8304(2) 0.1457(3) 0.8638(3)
C98_6 C 0.8351(2) 0.1313(2) 0.8446(3)
C99_6 C 0.8446(3) 0.1649(2) 0.8687(2)
H56_6 H 0.8413 0.1747 0.8818
H57_6 H 0.8253 0.1182 0.8413
O17_14 O 0.6112(2) 0.9788(2) 0.85217(19)
O27_14 O 0.5856(2) 0.9786(2) 0.8812(2)
O35_14 O 0.64586(19) 0.97337(19) 0.8869(2)
O43_14 O 0.62005(18) 0.97457(18) 0.91513(17)
O45_16 O 0.6570(2) 1.0000 0.8387(3)
O47_16 O 0.5771(3) 1.0000 0.9298(3)
O15_15 O 0.0212(2) 0.85217(19) 0.3888(2)
O25_15 O 0.0214(2) 0.8812(2) 0.4144(2)
O34_15 O 0.02663(19) 0.8869(2) 0.35414(19)
O42_15 O 0.02543(18) 0.91513(17) 0.37995(18)
O44_29 O 0.0000 0.8387(3) 0.3430(2)
O46_29 O 0.0000 0.9298(3) 0.4229(3)
O17_15 O 0.6112(2) 0.0212(2) 0.14783(19)
O27_15 O 0.5856(2) 0.0214(2) 0.1188(2)
O35_15 O 0.64586(19) 0.02663(19) 0.1131(2)
O43_15 O 0.62005(18) 0.02543(18) 0.08487(17)
O45_17 O 0.6570(2) -0.0000 0.1613(3)
O47_17 O 0.5771(3) -0.0000 0.0702(3)
O3_7 O 0.8869(2) 0.64586(19) 0.02663(19)
O4_7 O 0.91513(17) 0.62005(18) 0.02543(18)
O5_17 O 0.8387(3) 0.6570(2) 0.0000
O6_17 O 0.9298(3) 0.5771(3) 0.0000
C1_7 C 0.9060(2) 0.63800(19) 0.03460(18)
C2_7 C 0.9179(2) 0.6496(2) 0.05491(17)
C3_7 C 0.93734(19) 0.63883(19) 0.06428(17)
H1_7 H 0.9428 0.6244 0.0579
C4_7 C 0.94882(17) 0.6488(2) 0.0827(2)
C5_7 C 0.97000(18) 0.6376(2) 0.0936(2)
C6_7 C 0.94089(18) 0.66956(19) 0.09191(19)
H2_7 H 0.9489 0.6765 0.1048
C7_7 C 0.9215(2) 0.6804(2) 0.0826(2)
C8_7 C 0.9098(2) 0.67086(19) 0.06422(17)
H3_7 H 0.8964 0.6784 0.0578
N1_7 N 0.9141(2) 0.70191(18) 0.0929(2)
N2_7 N 0.9042(2) 0.7161(2) 0.0802(3)
C9_7 C 0.89713(19) 0.7377(2) 0.0915(3)
C10_7 C 0.8828(2) 0.7524(3) 0.0780(3)
H4_7 H 0.8783 0.7482 0.0625
C11_7 C 0.8754(3) 0.7733(3) 0.0878(3)
H5_7 H 0.8656 0.7835 0.0788
C12_7 C 0.8819(2) 0.7798(3) 0.1105(3)
C13_7 C 0.8959(3) 0.7649(3) 0.1229(3)
H6_7 H 0.9004 0.7691 0.1384
C14_7 C 0.9039(3) 0.7430(3) 0.1134(3)
H7_7 H 0.9137 0.7327 0.1222
O7_7 O 0.8733(3) 0.8009(3) 0.1179(3)
C15_7 C 0.8792(3) 0.8096(2) 0.1403(3)
H8_7 H 0.8959 0.8144 0.1406
H9_7 H 0.8768 0.7972 0.1523
C16_7 C 0.8638(3) 0.8304(2) 0.1457(3)
C17_7 C 0.8687(2) 0.8446(3) 0.1649(2)
H10_7 H 0.8818 0.8413 0.1747
O28_7 O 0.97337(19) 0.8869(2) 0.35414(19)
O29_7 O 0.64586(19) 0.97337(19) 0.1131(2)
O36_7 O 0.97457(18) 0.91513(17) 0.37995(18)
O37_7 O 0.62005(18) 0.97457(18) 0.08487(17)
O44_30 O 1.0000 0.8387(3) 0.3430(2)
O45_18 O 0.6570(2) 1.0000 0.1613(3)
O46_30 O 1.0000 0.9298(3) 0.4229(3)
O47_18 O 0.5771(3) 1.0000 0.0702(3)
C18_7 C 0.96540(18) 0.9060(2) 0.36200(19)
C19_7 C 0.63800(19) 0.96540(18) 0.0940(2)
C23_7 C 0.94509(17) 0.9179(2) 0.3504(2)
C24_7 C 0.6496(2) 0.94509(17) 0.0821(2)
C28_7 C 0.93572(17) 0.93734(19) 0.36117(19)
C29_7 C 0.63883(19) 0.93572(17) 0.06266(19)
H11_7 H 0.9421 0.9428 0.3756
H12_7 H 0.6244 0.9421 0.0572
C33_7 C 0.9173(2) 0.94882(17) 0.3512(2)
C34_7 C 0.6488(2) 0.9173(2) 0.05118(17)
C38_7 C 0.9064(2) 0.97000(18) 0.3624(2)
C39_7 C 0.6376(2) 0.9064(2) 0.03000(18)
C43_7 C 0.90809(19) 0.94089(18) 0.33044(19)
C44_7 C 0.66956(19) 0.90809(19) 0.05911(18)
H16_7 H 0.8952 0.9489 0.3235
H17_7 H 0.6765 0.8952 0.0511
C48_7 C 0.9174(2) 0.9215(2) 0.3196(2)
C49_7 C 0.6804(2) 0.9174(2) 0.0785(2)
C53_7 C 0.93578(17) 0.9098(2) 0.32914(19)
C54_7 C 0.67086(19) 0.93578(17) 0.0902(2)
H21_7 H 0.9422 0.8964 0.3216
H22_7 H 0.6784 0.9422 0.1036
N3_7 N 0.9071(2) 0.9141(2) 0.29809(18)
N4_7 N 0.70191(18) 0.9071(2) 0.0859(2)
N8_7 N 0.9198(3) 0.9042(2) 0.2839(2)
N9_7 N 0.7161(2) 0.9198(3) 0.0958(2)
C58_7 C 0.9085(3) 0.89713(19) 0.2623(2)
C59_7 C 0.7377(2) 0.9085(3) 0.10287(19)
C63_7 C 0.9220(3) 0.8828(2) 0.2476(3)
C64_7 C 0.7524(3) 0.9220(3) 0.1172(2)
H26_7 H 0.9375 0.8783 0.2518
H27_7 H 0.7482 0.9375 0.1217
C68_7 C 0.9122(3) 0.8754(3) 0.2267(3)
C69_7 C 0.7733(3) 0.9122(3) 0.1246(3)
H31_7 H 0.9212 0.8656 0.2165
H32_7 H 0.7835 0.9212 0.1344
C73_7 C 0.8895(3) 0.8819(2) 0.2202(3)
C74_7 C 0.7798(3) 0.8895(3) 0.1181(2)
C78_7 C 0.8771(3) 0.8959(3) 0.2351(3)
C79_7 C 0.7649(3) 0.8771(3) 0.1041(3)
H36_7 H 0.8616 0.9004 0.2309
H37_7 H 0.7691 0.8616 0.0996
C83_7 C 0.8866(3) 0.9039(3) 0.2570(3)
C84_7 C 0.7430(3) 0.8866(3) 0.0961(3)
H41_7 H 0.8778 0.9137 0.2673
H42_7 H 0.7327 0.8778 0.0863
O48_7 O 0.8821(3) 0.8733(3) 0.1991(3)
O49_7 O 0.8009(3) 0.8821(3) 0.1267(3)
C88_7 C 0.8597(3) 0.8792(3) 0.1904(2)
C89_7 C 0.8096(2) 0.8597(3) 0.1208(3)
H46_7 H 0.8594 0.8959 0.1856
H47_7 H 0.8144 0.8594 0.1041
H51_7 H 0.8477 0.8768 0.2028
H52_7 H 0.7972 0.8477 0.1232
C93_7 C 0.8543(3) 0.8638(3) 0.1696(2)
C94_7 C 0.8304(2) 0.8543(3) 0.1362(3)
C98_7 C 0.8351(2) 0.8687(2) 0.1554(3)
C99_7 C 0.8446(3) 0.8351(2) 0.1313(2)
H56_7 H 0.8413 0.8253 0.1182
H57_7 H 0.8253 0.8818 0.1587
O5_18 O 0.8387(3) 0.6570(2) 1.0000
O6_18 O 0.9298(3) 0.5771(3) 1.0000
O13_15 O 0.85217(19) 0.6112(2) 0.9788(2)
O23_15 O 0.8812(2) 0.5856(2) 0.9786(2)
O33_15 O 0.8869(2) 0.64586(19) 0.97337(19)
O41_15 O 0.91513(17) 0.62005(18) 0.97457(18)
O3_8 O 0.1131(2) 0.35414(19) 0.02663(19)
O4_8 O 0.08487(17) 0.37995(18) 0.02543(18)
O5_19 O 0.1613(3) 0.3430(2) 0.0000
O6_19 O 0.0702(3) 0.4229(3) 0.0000
C1_8 C 0.0940(2) 0.36200(19) 0.03460(18)
C2_8 C 0.0821(2) 0.3504(2) 0.05491(17)
C3_8 C 0.06266(19) 0.36117(19) 0.06428(17)
H1_8 H 0.0572 0.3756 0.0579
C4_8 C 0.05118(17) 0.3512(2) 0.0827(2)
C5_8 C 0.03000(18) 0.3624(2) 0.0936(2)
C6_8 C 0.05911(18) 0.33044(19) 0.09191(19)
H2_8 H 0.0511 0.3235 0.1048
C7_8 C 0.0785(2) 0.3196(2) 0.0826(2)
C8_8 C 0.0902(2) 0.32914(19) 0.06422(17)
H3_8 H 0.1036 0.3216 0.0578
N1_8 N 0.0859(2) 0.29809(18) 0.0929(2)
N2_8 N 0.0958(2) 0.2839(2) 0.0802(3)
C9_8 C 0.10287(19) 0.2623(2) 0.0915(3)
C10_8 C 0.1172(2) 0.2476(3) 0.0780(3)
H4_8 H 0.1217 0.2518 0.0625
C11_8 C 0.1246(3) 0.2267(3) 0.0878(3)
H5_8 H 0.1344 0.2165 0.0788
C12_8 C 0.1181(2) 0.2202(3) 0.1105(3)
C13_8 C 0.1041(3) 0.2351(3) 0.1229(3)
H6_8 H 0.0996 0.2309 0.1384
C14_8 C 0.0961(3) 0.2570(3) 0.1134(3)
H7_8 H 0.0863 0.2673 0.1222
O7_8 O 0.1267(3) 0.1991(3) 0.1179(3)
C15_8 C 0.1208(3) 0.1904(2) 0.1403(3)
H8_8 H 0.1041 0.1856 0.1406
H9_8 H 0.1232 0.2028 0.1523
C16_8 C 0.1362(3) 0.1696(2) 0.1457(3)
C17_8 C 0.1313(2) 0.1554(3) 0.1649(2)
H10_8 H 0.1182 0.1587 0.1747
O28_8 O 0.02663(19) 0.1131(2) 0.35414(19)
O29_8 O 0.35414(19) 0.02663(19) 0.1131(2)
O36_8 O 0.02543(18) 0.08487(17) 0.37995(18)
O37_8 O 0.37995(18) 0.02543(18) 0.08487(17)
O44_31 O -0.0000 0.1613(3) 0.3430(2)
O45_19 O 0.3430(2) 0.0000 0.1613(3)
O46_31 O -0.0000 0.0702(3) 0.4229(3)
O47_19 O 0.4229(3) 0.0000 0.0702(3)
C18_8 C 0.03460(18) 0.0940(2) 0.36200(19)
C19_8 C 0.36200(19) 0.03460(18) 0.0940(2)
C23_8 C 0.05491(17) 0.0821(2) 0.3504(2)
C24_8 C 0.3504(2) 0.05491(17) 0.0821(2)
C28_8 C 0.06428(17) 0.06266(19) 0.36117(19)
C29_8 C 0.36117(19) 0.06428(17) 0.06266(19)
H11_8 H 0.0579 0.0572 0.3756
H12_8 H 0.3756 0.0579 0.0572
C33_8 C 0.0827(2) 0.05118(17) 0.3512(2)
C34_8 C 0.3512(2) 0.0827(2) 0.05118(17)
C38_8 C 0.0936(2) 0.03000(18) 0.3624(2)
C39_8 C 0.3624(2) 0.0936(2) 0.03000(18)
C43_8 C 0.09191(19) 0.05911(18) 0.33044(19)
C44_8 C 0.33044(19) 0.09191(19) 0.05911(18)
H16_8 H 0.1048 0.0511 0.3235
H17_8 H 0.3235 0.1048 0.0511
C48_8 C 0.0826(2) 0.0785(2) 0.3196(2)
C49_8 C 0.3196(2) 0.0826(2) 0.0785(2)
C53_8 C 0.06422(17) 0.0902(2) 0.32914(19)
C54_8 C 0.32914(19) 0.06422(17) 0.0902(2)
H21_8 H 0.0578 0.1036 0.3216
H22_8 H 0.3216 0.0578 0.1036
N3_8 N 0.0929(2) 0.0859(2) 0.29809(18)
N4_8 N 0.29809(18) 0.0929(2) 0.0859(2)
N8_8 N 0.0802(3) 0.0958(2) 0.2839(2)
N9_8 N 0.2839(2) 0.0802(3) 0.0958(2)
C58_8 C 0.0915(3) 0.10287(19) 0.2623(2)
C59_8 C 0.2623(2) 0.0915(3) 0.10287(19)
C63_8 C 0.0780(3) 0.1172(2) 0.2476(3)
C64_8 C 0.2476(3) 0.0780(3) 0.1172(2)
H26_8 H 0.0625 0.1217 0.2518
H27_8 H 0.2518 0.0625 0.1217
C68_8 C 0.0878(3) 0.1246(3) 0.2267(3)
C69_8 C 0.2267(3) 0.0878(3) 0.1246(3)
H31_8 H 0.0788 0.1344 0.2165
H32_8 H 0.2165 0.0788 0.1344
C73_8 C 0.1105(3) 0.1181(2) 0.2202(3)
C74_8 C 0.2202(3) 0.1105(3) 0.1181(2)
C78_8 C 0.1229(3) 0.1041(3) 0.2351(3)
C79_8 C 0.2351(3) 0.1229(3) 0.1041(3)
H36_8 H 0.1384 0.0996 0.2309
H37_8 H 0.2309 0.1384 0.0996
C83_8 C 0.1134(3) 0.0961(3) 0.2570(3)
C84_8 C 0.2570(3) 0.1134(3) 0.0961(3)
H41_8 H 0.1222 0.0863 0.2673
H42_8 H 0.2673 0.1222 0.0863
O48_8 O 0.1179(3) 0.1267(3) 0.1991(3)
O49_8 O 0.1991(3) 0.1179(3) 0.1267(3)
C88_8 C 0.1403(3) 0.1208(3) 0.1904(2)
C89_8 C 0.1904(2) 0.1403(3) 0.1208(3)
H46_8 H 0.1406 0.1041 0.1856
H47_8 H 0.1856 0.1406 0.1041
H51_8 H 0.1523 0.1232 0.2028
H52_8 H 0.2028 0.1523 0.1232
C93_8 C 0.1457(3) 0.1362(3) 0.1696(2)
C94_8 C 0.1696(2) 0.1457(3) 0.1362(3)
C98_8 C 0.1649(2) 0.1313(2) 0.1554(3)
C99_8 C 0.1554(3) 0.1649(2) 0.1313(2)
H56_8 H 0.1587 0.1747 0.1182
H57_8 H 0.1747 0.1182 0.1587
O5_20 O 0.1613(3) 0.3430(2) 1.0000
O6_20 O 0.0702(3) 0.4229(3) 1.0000
O13_16 O 0.14783(19) 0.3888(2) 0.9788(2)
O23_16 O 0.1188(2) 0.4144(2) 0.9786(2)
O33_16 O 0.1131(2) 0.35414(19) 0.97337(19)
O41_16 O 0.08487(17) 0.37995(18) 0.97457(18)
O17_16 O 0.3888(2) 0.9788(2) 0.14783(19)
O27_16 O 0.4144(2) 0.9786(2) 0.1188(2)
O35_16 O 0.35414(19) 0.97337(19) 0.1131(2)
O43_16 O 0.37995(18) 0.97457(18) 0.08487(17)
O45_20 O 0.3430(2) 1.0000 0.1613(3)
O47_20 O 0.4229(3) 1.0000 0.0702(3)
O15_16 O 0.9788(2) 0.14783(19) 0.3888(2)
O25_16 O 0.9786(2) 0.1188(2) 0.4144(2)
O34_16 O 0.97337(19) 0.1131(2) 0.35414(19)
O42_16 O 0.97457(18) 0.08487(17) 0.37995(18)
O44_32 O 1.0000 0.1613(3) 0.3430(2)
O46_32 O 1.0000 0.0702(3) 0.4229(3)
C1_9 C 0.9060(2) 0.86200(19) 0.53460(18)
C2_9 C 0.9179(2) 0.8504(2) 0.55491(17)
C3_9 C 0.93734(19) 0.86117(19) 0.56428(17)
H1_9 H 0.9428 0.8756 0.5579
C4_9 C 0.94882(17) 0.8512(2) 0.5827(2)
C5_9 C 0.97000(18) 0.8624(2) 0.5936(2)
C6_9 C 0.94089(18) 0.83044(19) 0.59191(19)
H2_9 H 0.9489 0.8235 0.6048
C7_9 C 0.9215(2) 0.8196(2) 0.5826(2)
C8_9 C 0.9098(2) 0.82914(19) 0.56422(17)
H3_9 H 0.8964 0.8216 0.5578
N1_9 N 0.9141(2) 0.79809(18) 0.5929(2)
N2_9 N 0.9042(2) 0.7839(2) 0.5802(3)
C9_9 C 0.89713(19) 0.7623(2) 0.5915(3)
C10_9 C 0.8828(2) 0.7476(3) 0.5780(3)
H4_9 H 0.8783 0.7518 0.5625
C11_9 C 0.8754(3) 0.7267(3) 0.5878(3)
H5_9 H 0.8656 0.7165 0.5788
C12_9 C 0.8819(2) 0.7202(3) 0.6105(3)
C13_9 C 0.8959(3) 0.7351(3) 0.6229(3)
H6_9 H 0.9004 0.7309 0.6384
C14_9 C 0.9039(3) 0.7570(3) 0.6134(3)
H7_9 H 0.9137 0.7673 0.6222
O7_9 O 0.8733(3) 0.6991(3) 0.6179(3)
C15_9 C 0.8792(3) 0.6904(2) 0.6403(3)
H8_9 H 0.8959 0.6856 0.6406
H9_9 H 0.8768 0.7028 0.6523
C16_9 C 0.8638(3) 0.6696(2) 0.6457(3)
C17_9 C 0.8687(2) 0.6554(3) 0.6649(2)
H10_9 H 0.8818 0.6587 0.6747
C18_9 C 0.96540(18) 0.5940(2) 0.86200(19)
C19_9 C 0.63800(19) 0.53460(18) 0.5940(2)
C20_9 C 0.86200(19) 0.96540(18) 0.5940(2)
C21_9 C 0.5940(2) 0.63800(19) 0.53460(18)
C22_9 C 0.53460(18) 0.9060(2) 0.86200(19)
C23_9 C 0.94509(17) 0.5821(2) 0.8504(2)
C24_9 C 0.6496(2) 0.55491(17) 0.5821(2)
C25_9 C 0.8504(2) 0.94509(17) 0.5821(2)
C26_9 C 0.5821(2) 0.6496(2) 0.55491(17)
C27_9 C 0.55491(17) 0.9179(2) 0.8504(2)
C28_9 C 0.93572(17) 0.56266(19) 0.86117(19)
C29_9 C 0.63883(19) 0.56428(17) 0.56266(19)
C30_9 C 0.86117(19) 0.93572(17) 0.56266(19)
C31_9 C 0.56266(19) 0.63883(19) 0.56428(17)
C32_9 C 0.56428(17) 0.93734(19) 0.86117(19)
H11_9 H 0.9421 0.5572 0.8756
H12_9 H 0.6244 0.5579 0.5572
H13_9 H 0.8756 0.9421 0.5572
H14_9 H 0.5572 0.6244 0.5579
H15_9 H 0.5579 0.9428 0.8756
C33_9 C 0.9173(2) 0.55118(17) 0.8512(2)
C34_9 C 0.6488(2) 0.5827(2) 0.55118(17)
C35_9 C 0.8512(2) 0.9173(2) 0.55118(17)
C36_9 C 0.55118(17) 0.6488(2) 0.5827(2)
C37_9 C 0.5827(2) 0.94882(17) 0.8512(2)
C38_9 C 0.9064(2) 0.53000(18) 0.8624(2)
C39_9 C 0.6376(2) 0.5936(2) 0.53000(18)
C40_9 C 0.8624(2) 0.9064(2) 0.53000(18)
C41_9 C 0.53000(18) 0.6376(2) 0.5936(2)
C42_9 C 0.5936(2) 0.97000(18) 0.8624(2)
C43_9 C 0.90809(19) 0.55911(18) 0.83044(19)
C44_9 C 0.66956(19) 0.59191(19) 0.55911(18)
C45_9 C 0.83044(19) 0.90809(19) 0.55911(18)
C46_9 C 0.55911(18) 0.66956(19) 0.59191(19)
C47_9 C 0.59191(19) 0.94089(18) 0.83044(19)
H16_9 H 0.8952 0.5511 0.8235
H17_9 H 0.6765 0.6048 0.5511
H18_9 H 0.8235 0.8952 0.5511
H19_9 H 0.5511 0.6765 0.6048
H20_9 H 0.6048 0.9489 0.8235
C48_9 C 0.9174(2) 0.5785(2) 0.8196(2)
C49_9 C 0.6804(2) 0.5826(2) 0.5785(2)
C50_9 C 0.8196(2) 0.9174(2) 0.5785(2)
C51_9 C 0.5785(2) 0.6804(2) 0.5826(2)
C52_9 C 0.5826(2) 0.9215(2) 0.8196(2)
C53_9 C 0.93578(17) 0.5902(2) 0.82914(19)
C54_9 C 0.67086(19) 0.56422(17) 0.5902(2)
C55_9 C 0.82914(19) 0.93578(17) 0.5902(2)
C56_9 C 0.5902(2) 0.67086(19) 0.56422(17)
C57_9 C 0.56422(17) 0.9098(2) 0.82914(19)
H21_9 H 0.9422 0.6036 0.8216
H22_9 H 0.6784 0.5578 0.6036
H23_9 H 0.8216 0.9422 0.6036
H24_9 H 0.6036 0.6784 0.5578
H25_9 H 0.5578 0.8964 0.8216
N3_9 N 0.9071(2) 0.5859(2) 0.79809(18)
N4_9 N 0.70191(18) 0.5929(2) 0.5859(2)
N5_9 N 0.79809(18) 0.9071(2) 0.5859(2)
N6_9 N 0.5859(2) 0.70191(18) 0.5929(2)
N7_9 N 0.5929(2) 0.9141(2) 0.79809(18)
N8_9 N 0.9198(3) 0.5958(2) 0.7839(2)
N9_9 N 0.7161(2) 0.5802(3) 0.5958(2)
N10_9 N 0.7839(2) 0.9198(3) 0.5958(2)
N11_9 N 0.5958(2) 0.7161(2) 0.5802(3)
N12_9 N 0.5802(3) 0.9042(2) 0.7839(2)
C58_9 C 0.9085(3) 0.60287(19) 0.7623(2)
C59_9 C 0.7377(2) 0.5915(3) 0.60287(19)
C60_9 C 0.7623(2) 0.9085(3) 0.60287(19)
C61_9 C 0.60287(19) 0.7377(2) 0.5915(3)
C62_9 C 0.5915(3) 0.89713(19) 0.7623(2)
C63_9 C 0.9220(3) 0.6172(2) 0.7476(3)
C64_9 C 0.7524(3) 0.5780(3) 0.6172(2)
C65_9 C 0.7476(3) 0.9220(3) 0.6172(2)
C66_9 C 0.6172(2) 0.7524(3) 0.5780(3)
C67_9 C 0.5780(3) 0.8828(2) 0.7476(3)
H26_9 H 0.9375 0.6217 0.7518
H27_9 H 0.7482 0.5625 0.6217
H28_9 H 0.7518 0.9375 0.6217
H29_9 H 0.6217 0.7482 0.5625
H30_9 H 0.5625 0.8783 0.7518
C68_9 C 0.9122(3) 0.6246(3) 0.7267(3)
C69_9 C 0.7733(3) 0.5878(3) 0.6246(3)
C70_9 C 0.7267(3) 0.9122(3) 0.6246(3)
C71_9 C 0.6246(3) 0.7733(3) 0.5878(3)
C72_9 C 0.5878(3) 0.8754(3) 0.7267(3)
H31_9 H 0.9212 0.6344 0.7165
H32_9 H 0.7835 0.5788 0.6344
H33_9 H 0.7165 0.9212 0.6344
H34_9 H 0.6344 0.7835 0.5788
H35_9 H 0.5788 0.8656 0.7165
C73_9 C 0.8895(3) 0.6181(2) 0.7202(3)
C74_9 C 0.7798(3) 0.6105(3) 0.6181(2)
C75_9 C 0.7202(3) 0.8895(3) 0.6181(2)
C76_9 C 0.6181(2) 0.7798(3) 0.6105(3)
C77_9 C 0.6105(3) 0.8819(2) 0.7202(3)
C78_9 C 0.8771(3) 0.6041(3) 0.7351(3)
C79_9 C 0.7649(3) 0.6229(3) 0.6041(3)
C80_9 C 0.7351(3) 0.8771(3) 0.6041(3)
C81_9 C 0.6041(3) 0.7649(3) 0.6229(3)
C82_9 C 0.6229(3) 0.8959(3) 0.7351(3)
H36_9 H 0.8616 0.5996 0.7309
H37_9 H 0.7691 0.6384 0.5996
H38_9 H 0.7309 0.8616 0.5996
H39_9 H 0.5996 0.7691 0.6384
H40_9 H 0.6384 0.9004 0.7309
C83_9 C 0.8866(3) 0.5961(3) 0.7570(3)
C84_9 C 0.7430(3) 0.6134(3) 0.5961(3)
C85_9 C 0.7570(3) 0.8866(3) 0.5961(3)
C86_9 C 0.5961(3) 0.7430(3) 0.6134(3)
C87_9 C 0.6134(3) 0.9039(3) 0.7570(3)
H41_9 H 0.8778 0.5863 0.7673
H42_9 H 0.7327 0.6222 0.5863
H43_9 H 0.7673 0.8778 0.5863
H44_9 H 0.5863 0.7327 0.6222
H45_9 H 0.6222 0.9137 0.7673
O48_9 O 0.8821(3) 0.6267(3) 0.6991(3)
O49_9 O 0.8009(3) 0.6179(3) 0.6267(3)
O50_9 O 0.6991(3) 0.8821(3) 0.6267(3)
O51_9 O 0.6267(3) 0.8009(3) 0.6179(3)
O52_9 O 0.6179(3) 0.8733(3) 0.6991(3)
C88_9 C 0.8597(3) 0.6208(3) 0.6904(2)
C89_9 C 0.8096(2) 0.6403(3) 0.6208(3)
C90_9 C 0.6904(2) 0.8597(3) 0.6208(3)
C91_9 C 0.6208(3) 0.8096(2) 0.6403(3)
C92_9 C 0.6403(3) 0.8792(3) 0.6904(2)
H46_9 H 0.8594 0.6041 0.6856
H47_9 H 0.8144 0.6406 0.6041
H48_9 H 0.6856 0.8594 0.6041
H49_9 H 0.6041 0.8144 0.6406
H50_9 H 0.6406 0.8959 0.6856
H51_9 H 0.8477 0.6232 0.7028
H52_9 H 0.7972 0.6523 0.6232
H53_9 H 0.7028 0.8477 0.6232
H54_9 H 0.6232 0.7972 0.6523
H55_9 H 0.6523 0.8768 0.7028
C93_9 C 0.8543(3) 0.6362(3) 0.6696(2)
C94_9 C 0.8304(2) 0.6457(3) 0.6362(3)
C95_9 C 0.6696(2) 0.8543(3) 0.6362(3)
C96_9 C 0.6362(3) 0.8304(2) 0.6457(3)
C97_9 C 0.6457(3) 0.8638(3) 0.6696(2)
C98_9 C 0.8351(2) 0.6313(2) 0.6554(3)
C99_9 C 0.8446(3) 0.6649(2) 0.6313(2)
C100_9 C 0.6554(3) 0.8351(2) 0.6313(2)
C101_9 C 0.6313(2) 0.8446(3) 0.6649(2)
C102_9 C 0.6649(2) 0.8687(2) 0.6554(3)
H56_9 H 0.8413 0.6747 0.6182
H57_9 H 0.8253 0.6182 0.6587
H58_9 H 0.6587 0.8253 0.6182
H59_9 H 0.6747 0.8818 0.6587
H60_9 H 0.6182 0.8413 0.6747
C1_10 C 0.0940(2) 0.13800(19) 0.53460(18)
C2_10 C 0.0821(2) 0.1496(2) 0.55491(17)
C3_10 C 0.06266(19) 0.13883(19) 0.56428(17)
H1_10 H 0.0572 0.1244 0.5579
C4_10 C 0.05118(17) 0.1488(2) 0.5827(2)
C5_10 C 0.03000(18) 0.1376(2) 0.5936(2)
C6_10 C 0.05911(18) 0.16956(19) 0.59191(19)
H2_10 H 0.0511 0.1765 0.6048
C7_10 C 0.0785(2) 0.1804(2) 0.5826(2)
C8_10 C 0.0902(2) 0.17086(19) 0.56422(17)
H3_10 H 0.1036 0.1784 0.5578
N1_10 N 0.0859(2) 0.20191(18) 0.5929(2)
N2_10 N 0.0958(2) 0.2161(2) 0.5802(3)
C9_10 C 0.10287(19) 0.2377(2) 0.5915(3)
C10_10 C 0.1172(2) 0.2524(3) 0.5780(3)
H4_10 H 0.1217 0.2482 0.5625
C11_10 C 0.1246(3) 0.2733(3) 0.5878(3)
H5_10 H 0.1344 0.2835 0.5788
C12_10 C 0.1181(2) 0.2798(3) 0.6105(3)
C13_10 C 0.1041(3) 0.2649(3) 0.6229(3)
H6_10 H 0.0996 0.2691 0.6384
C14_10 C 0.0961(3) 0.2430(3) 0.6134(3)
H7_10 H 0.0863 0.2327 0.6222
O7_10 O 0.1267(3) 0.3009(3) 0.6179(3)
C15_10 C 0.1208(3) 0.3096(2) 0.6403(3)
H8_10 H 0.1041 0.3144 0.6406
H9_10 H 0.1232 0.2972 0.6523
C16_10 C 0.1362(3) 0.3304(2) 0.6457(3)
C17_10 C 0.1313(2) 0.3446(3) 0.6649(2)
H10_10 H 0.1182 0.3413 0.6747
C18_10 C 0.03460(18) 0.4060(2) 0.86200(19)
C19_10 C 0.36200(19) 0.46540(18) 0.5940(2)
C20_10 C 0.13800(19) 0.03460(18) 0.5940(2)
C21_10 C 0.4060(2) 0.36200(19) 0.53460(18)
C22_10 C 0.46540(18) 0.0940(2) 0.86200(19)
C23_10 C 0.05491(17) 0.4179(2) 0.8504(2)
C24_10 C 0.3504(2) 0.44509(17) 0.5821(2)
C25_10 C 0.1496(2) 0.05491(17) 0.5821(2)
C26_10 C 0.4179(2) 0.3504(2) 0.55491(17)
C27_10 C 0.44509(17) 0.0821(2) 0.8504(2)
C28_10 C 0.06428(17) 0.43734(19) 0.86117(19)
C29_10 C 0.36117(19) 0.43572(17) 0.56266(19)
C30_10 C 0.13883(19) 0.06428(17) 0.56266(19)
C31_10 C 0.43734(19) 0.36117(19) 0.56428(17)
C32_10 C 0.43572(17) 0.06266(19) 0.86117(19)
H11_10 H 0.0579 0.4428 0.8756
H12_10 H 0.3756 0.4421 0.5572
H13_10 H 0.1244 0.0579 0.5572
H14_10 H 0.4428 0.3756 0.5579
H15_10 H 0.4421 0.0572 0.8756
C33_10 C 0.0827(2) 0.44882(17) 0.8512(2)
C34_10 C 0.3512(2) 0.4173(2) 0.55118(17)
C35_10 C 0.1488(2) 0.0827(2) 0.55118(17)
C36_10 C 0.44882(17) 0.3512(2) 0.5827(2)
C37_10 C 0.4173(2) 0.05118(17) 0.8512(2)
C38_10 C 0.0936(2) 0.47000(18) 0.8624(2)
C39_10 C 0.3624(2) 0.4064(2) 0.53000(18)
C40_10 C 0.1376(2) 0.0936(2) 0.53000(18)
C41_10 C 0.47000(18) 0.3624(2) 0.5936(2)
C42_10 C 0.4064(2) 0.03000(18) 0.8624(2)
C43_10 C 0.09191(19) 0.44089(18) 0.83044(19)
C44_10 C 0.33044(19) 0.40809(19) 0.55911(18)
C45_10 C 0.16956(19) 0.09191(19) 0.55911(18)
C46_10 C 0.44089(18) 0.33044(19) 0.59191(19)
C47_10 C 0.40809(19) 0.05911(18) 0.83044(19)
H16_10 H 0.1048 0.4489 0.8235
H17_10 H 0.3235 0.3952 0.5511
H18_10 H 0.1765 0.1048 0.5511
H19_10 H 0.4489 0.3235 0.6048
H20_10 H 0.3952 0.0511 0.8235
C48_10 C 0.0826(2) 0.4215(2) 0.8196(2)
C49_10 C 0.3196(2) 0.4174(2) 0.5785(2)
C50_10 C 0.1804(2) 0.0826(2) 0.5785(2)
C51_10 C 0.4215(2) 0.3196(2) 0.5826(2)
C52_10 C 0.4174(2) 0.0785(2) 0.8196(2)
C53_10 C 0.06422(17) 0.4098(2) 0.82914(19)
C54_10 C 0.32914(19) 0.43578(17) 0.5902(2)
C55_10 C 0.17086(19) 0.06422(17) 0.5902(2)
C56_10 C 0.4098(2) 0.32914(19) 0.56422(17)
C57_10 C 0.43578(17) 0.0902(2) 0.82914(19)
H21_10 H 0.0578 0.3964 0.8216
H22_10 H 0.3216 0.4422 0.6036
H23_10 H 0.1784 0.0578 0.6036
H24_10 H 0.3964 0.3216 0.5578
H25_10 H 0.4422 0.1036 0.8216
N3_10 N 0.0929(2) 0.4141(2) 0.79809(18)
N4_10 N 0.29809(18) 0.4071(2) 0.5859(2)
N5_10 N 0.20191(18) 0.0929(2) 0.5859(2)
N6_10 N 0.4141(2) 0.29809(18) 0.5929(2)
N7_10 N 0.4071(2) 0.0859(2) 0.79809(18)
N8_10 N 0.0802(3) 0.4042(2) 0.7839(2)
N9_10 N 0.2839(2) 0.4198(3) 0.5958(2)
N10_10 N 0.2161(2) 0.0802(3) 0.5958(2)
N11_10 N 0.4042(2) 0.2839(2) 0.5802(3)
N12_10 N 0.4198(3) 0.0958(2) 0.7839(2)
C58_10 C 0.0915(3) 0.39713(19) 0.7623(2)
C59_10 C 0.2623(2) 0.4085(3) 0.60287(19)
C60_10 C 0.2377(2) 0.0915(3) 0.60287(19)
C61_10 C 0.39713(19) 0.2623(2) 0.5915(3)
C62_10 C 0.4085(3) 0.10287(19) 0.7623(2)
C63_10 C 0.0780(3) 0.3828(2) 0.7476(3)
C64_10 C 0.2476(3) 0.4220(3) 0.6172(2)
C65_10 C 0.2524(3) 0.0780(3) 0.6172(2)
C66_10 C 0.3828(2) 0.2476(3) 0.5780(3)
C67_10 C 0.4220(3) 0.1172(2) 0.7476(3)
H26_10 H 0.0625 0.3783 0.7518
H27_10 H 0.2518 0.4375 0.6217
H28_10 H 0.2482 0.0625 0.6217
H29_10 H 0.3783 0.2518 0.5625
H30_10 H 0.4375 0.1217 0.7518
C68_10 C 0.0878(3) 0.3754(3) 0.7267(3)
C69_10 C 0.2267(3) 0.4122(3) 0.6246(3)
C70_10 C 0.2733(3) 0.0878(3) 0.6246(3)
C71_10 C 0.3754(3) 0.2267(3) 0.5878(3)
C72_10 C 0.4122(3) 0.1246(3) 0.7267(3)
H31_10 H 0.0788 0.3656 0.7165
H32_10 H 0.2165 0.4212 0.6344
H33_10 H 0.2835 0.0788 0.6344
H34_10 H 0.3656 0.2165 0.5788
H35_10 H 0.4212 0.1344 0.7165
C73_10 C 0.1105(3) 0.3819(2) 0.7202(3)
C74_10 C 0.2202(3) 0.3895(3) 0.6181(2)
C75_10 C 0.2798(3) 0.1105(3) 0.6181(2)
C76_10 C 0.3819(2) 0.2202(3) 0.6105(3)
C77_10 C 0.3895(3) 0.1181(2) 0.7202(3)
C78_10 C 0.1229(3) 0.3959(3) 0.7351(3)
C79_10 C 0.2351(3) 0.3771(3) 0.6041(3)
C80_10 C 0.2649(3) 0.1229(3) 0.6041(3)
C81_10 C 0.3959(3) 0.2351(3) 0.6229(3)
C82_10 C 0.3771(3) 0.1041(3) 0.7351(3)
H36_10 H 0.1384 0.4004 0.7309
H37_10 H 0.2309 0.3616 0.5996
H38_10 H 0.2691 0.1384 0.5996
H39_10 H 0.4004 0.2309 0.6384
H40_10 H 0.3616 0.0996 0.7309
C83_10 C 0.1134(3) 0.4039(3) 0.7570(3)
C84_10 C 0.2570(3) 0.3866(3) 0.5961(3)
C85_10 C 0.2430(3) 0.1134(3) 0.5961(3)
C86_10 C 0.4039(3) 0.2570(3) 0.6134(3)
C87_10 C 0.3866(3) 0.0961(3) 0.7570(3)
H41_10 H 0.1222 0.4137 0.7673
H42_10 H 0.2673 0.3778 0.5863
H43_10 H 0.2327 0.1222 0.5863
H44_10 H 0.4137 0.2673 0.6222
H45_10 H 0.3778 0.0863 0.7673
O48_10 O 0.1179(3) 0.3733(3) 0.6991(3)
O49_10 O 0.1991(3) 0.3821(3) 0.6267(3)
O50_10 O 0.3009(3) 0.1179(3) 0.6267(3)
O51_10 O 0.3733(3) 0.1991(3) 0.6179(3)
O52_10 O 0.3821(3) 0.1267(3) 0.6991(3)
C88_10 C 0.1403(3) 0.3792(3) 0.6904(2)
C89_10 C 0.1904(2) 0.3597(3) 0.6208(3)
C90_10 C 0.3096(2) 0.1403(3) 0.6208(3)
C91_10 C 0.3792(3) 0.1904(2) 0.6403(3)
C92_10 C 0.3597(3) 0.1208(3) 0.6904(2)
H46_10 H 0.1406 0.3959 0.6856
H47_10 H 0.1856 0.3594 0.6041
H48_10 H 0.3144 0.1406 0.6041
H49_10 H 0.3959 0.1856 0.6406
H50_10 H 0.3594 0.1041 0.6856
H51_10 H 0.1523 0.3768 0.7028
H52_10 H 0.2028 0.3477 0.6232
H53_10 H 0.2972 0.1523 0.6232
H54_10 H 0.3768 0.2028 0.6523
H55_10 H 0.3477 0.1232 0.7028
C93_10 C 0.1457(3) 0.3638(3) 0.6696(2)
C94_10 C 0.1696(2) 0.3543(3) 0.6362(3)
C95_10 C 0.3304(2) 0.1457(3) 0.6362(3)
C96_10 C 0.3638(3) 0.1696(2) 0.6457(3)
C97_10 C 0.3543(3) 0.1362(3) 0.6696(2)
C98_10 C 0.1649(2) 0.3687(2) 0.6554(3)
C99_10 C 0.1554(3) 0.3351(2) 0.6313(2)
C100_10 C 0.3446(3) 0.1649(2) 0.6313(2)
C101_10 C 0.3687(2) 0.1554(3) 0.6649(2)
C102_10 C 0.3351(2) 0.1313(2) 0.6554(3)
H56_10 H 0.1587 0.3253 0.6182
H57_10 H 0.1747 0.3818 0.6587
H58_10 H 0.3413 0.1747 0.6182
H59_10 H 0.3253 0.1182 0.6587
H60_10 H 0.3818 0.1587 0.6747
C1_11 C 0.0940(2) 0.86200(19) 0.46540(18)
C2_11 C 0.0821(2) 0.8504(2) 0.44509(17)
C3_11 C 0.06266(19) 0.86117(19) 0.43572(17)
H1_11 H 0.0572 0.8756 0.4421
C4_11 C 0.05118(17) 0.8512(2) 0.4173(2)
C5_11 C 0.03000(18) 0.8624(2) 0.4064(2)
C6_11 C 0.05911(18) 0.83044(19) 0.40809(19)
H2_11 H 0.0511 0.8235 0.3952
C7_11 C 0.0785(2) 0.8196(2) 0.4174(2)
C8_11 C 0.0902(2) 0.82914(19) 0.43578(17)
H3_11 H 0.1036 0.8216 0.4422
N1_11 N 0.0859(2) 0.79809(18) 0.4071(2)
N2_11 N 0.0958(2) 0.7839(2) 0.4198(3)
C9_11 C 0.10287(19) 0.7623(2) 0.4085(3)
C10_11 C 0.1172(2) 0.7476(3) 0.4220(3)
H4_11 H 0.1217 0.7518 0.4375
C11_11 C 0.1246(3) 0.7267(3) 0.4122(3)
H5_11 H 0.1344 0.7165 0.4212
C12_11 C 0.1181(2) 0.7202(3) 0.3895(3)
C13_11 C 0.1041(3) 0.7351(3) 0.3771(3)
H6_11 H 0.0996 0.7309 0.3616
C14_11 C 0.0961(3) 0.7570(3) 0.3866(3)
H7_11 H 0.0863 0.7673 0.3778
O7_11 O 0.1267(3) 0.6991(3) 0.3821(3)
C15_11 C 0.1208(3) 0.6904(2) 0.3597(3)
H8_11 H 0.1041 0.6856 0.3594
H9_11 H 0.1232 0.7028 0.3477
C16_11 C 0.1362(3) 0.6696(2) 0.3543(3)
C17_11 C 0.1313(2) 0.6554(3) 0.3351(2)
H10_11 H 0.1182 0.6587 0.3253
C18_11 C 0.03460(18) 0.5940(2) 0.13800(19)
C19_11 C 0.36200(19) 0.53460(18) 0.4060(2)
C20_11 C 0.13800(19) 0.96540(18) 0.4060(2)
C21_11 C 0.4060(2) 0.63800(19) 0.46540(18)
C22_11 C 0.46540(18) 0.9060(2) 0.13800(19)
C23_11 C 0.05491(17) 0.5821(2) 0.1496(2)
C24_11 C 0.3504(2) 0.55491(17) 0.4179(2)
C25_11 C 0.1496(2) 0.94509(17) 0.4179(2)
C26_11 C 0.4179(2) 0.6496(2) 0.44509(17)
C27_11 C 0.44509(17) 0.9179(2) 0.1496(2)
C28_11 C 0.06428(17) 0.56266(19) 0.13883(19)
C29_11 C 0.36117(19) 0.56428(17) 0.43734(19)
C30_11 C 0.13883(19) 0.93572(17) 0.43734(19)
C31_11 C 0.43734(19) 0.63883(19) 0.43572(17)
C32_11 C 0.43572(17) 0.93734(19) 0.13883(19)
H11_11 H 0.0579 0.5572 0.1244
H12_11 H 0.3756 0.5579 0.4428
H13_11 H 0.1244 0.9421 0.4428
H14_11 H 0.4428 0.6244 0.4421
H15_11 H 0.4421 0.9428 0.1244
C33_11 C 0.0827(2) 0.55118(17) 0.1488(2)
C34_11 C 0.3512(2) 0.5827(2) 0.44882(17)
C35_11 C 0.1488(2) 0.9173(2) 0.44882(17)
C36_11 C 0.44882(17) 0.6488(2) 0.4173(2)
C37_11 C 0.4173(2) 0.94882(17) 0.1488(2)
C38_11 C 0.0936(2) 0.53000(18) 0.1376(2)
C39_11 C 0.3624(2) 0.5936(2) 0.47000(18)
C40_11 C 0.1376(2) 0.9064(2) 0.47000(18)
C41_11 C 0.47000(18) 0.6376(2) 0.4064(2)
C42_11 C 0.4064(2) 0.97000(18) 0.1376(2)
C43_11 C 0.09191(19) 0.55911(18) 0.16956(19)
C44_11 C 0.33044(19) 0.59191(19) 0.44089(18)
C45_11 C 0.16956(19) 0.90809(19) 0.44089(18)
C46_11 C 0.44089(18) 0.66956(19) 0.40809(19)
C47_11 C 0.40809(19) 0.94089(18) 0.16956(19)
H16_11 H 0.1048 0.5511 0.1765
H17_11 H 0.3235 0.6048 0.4489
H18_11 H 0.1765 0.8952 0.4489
H19_11 H 0.4489 0.6765 0.3952
H20_11 H 0.3952 0.9489 0.1765
C48_11 C 0.0826(2) 0.5785(2) 0.1804(2)
C49_11 C 0.3196(2) 0.5826(2) 0.4215(2)
C50_11 C 0.1804(2) 0.9174(2) 0.4215(2)
C51_11 C 0.4215(2) 0.6804(2) 0.4174(2)
C52_11 C 0.4174(2) 0.9215(2) 0.1804(2)
C53_11 C 0.06422(17) 0.5902(2) 0.17086(19)
C54_11 C 0.32914(19) 0.56422(17) 0.4098(2)
C55_11 C 0.17086(19) 0.93578(17) 0.4098(2)
C56_11 C 0.4098(2) 0.67086(19) 0.43578(17)
C57_11 C 0.43578(17) 0.9098(2) 0.17086(19)
H21_11 H 0.0578 0.6036 0.1784
H22_11 H 0.3216 0.5578 0.3964
H23_11 H 0.1784 0.9422 0.3964
H24_11 H 0.3964 0.6784 0.4422
H25_11 H 0.4422 0.8964 0.1784
N3_11 N 0.0929(2) 0.5859(2) 0.20191(18)
N4_11 N 0.29809(18) 0.5929(2) 0.4141(2)
N5_11 N 0.20191(18) 0.9071(2) 0.4141(2)
N6_11 N 0.4141(2) 0.70191(18) 0.4071(2)
N7_11 N 0.4071(2) 0.9141(2) 0.20191(18)
N8_11 N 0.0802(3) 0.5958(2) 0.2161(2)
N9_11 N 0.2839(2) 0.5802(3) 0.4042(2)
N10_11 N 0.2161(2) 0.9198(3) 0.4042(2)
N11_11 N 0.4042(2) 0.7161(2) 0.4198(3)
N12_11 N 0.4198(3) 0.9042(2) 0.2161(2)
C58_11 C 0.0915(3) 0.60287(19) 0.2377(2)
C59_11 C 0.2623(2) 0.5915(3) 0.39713(19)
C60_11 C 0.2377(2) 0.9085(3) 0.39713(19)
C61_11 C 0.39713(19) 0.7377(2) 0.4085(3)
C62_11 C 0.4085(3) 0.89713(19) 0.2377(2)
C63_11 C 0.0780(3) 0.6172(2) 0.2524(3)
C64_11 C 0.2476(3) 0.5780(3) 0.3828(2)
C65_11 C 0.2524(3) 0.9220(3) 0.3828(2)
C66_11 C 0.3828(2) 0.7524(3) 0.4220(3)
C67_11 C 0.4220(3) 0.8828(2) 0.2524(3)
H26_11 H 0.0625 0.6217 0.2482
H27_11 H 0.2518 0.5625 0.3783
H28_11 H 0.2482 0.9375 0.3783
H29_11 H 0.3783 0.7482 0.4375
H30_11 H 0.4375 0.8783 0.2482
C68_11 C 0.0878(3) 0.6246(3) 0.2733(3)
C69_11 C 0.2267(3) 0.5878(3) 0.3754(3)
C70_11 C 0.2733(3) 0.9122(3) 0.3754(3)
C71_11 C 0.3754(3) 0.7733(3) 0.4122(3)
C72_11 C 0.4122(3) 0.8754(3) 0.2733(3)
H31_11 H 0.0788 0.6344 0.2835
H32_11 H 0.2165 0.5788 0.3656
H33_11 H 0.2835 0.9212 0.3656
H34_11 H 0.3656 0.7835 0.4212
H35_11 H 0.4212 0.8656 0.2835
C73_11 C 0.1105(3) 0.6181(2) 0.2798(3)
C74_11 C 0.2202(3) 0.6105(3) 0.3819(2)
C75_11 C 0.2798(3) 0.8895(3) 0.3819(2)
C76_11 C 0.3819(2) 0.7798(3) 0.3895(3)
C77_11 C 0.3895(3) 0.8819(2) 0.2798(3)
C78_11 C 0.1229(3) 0.6041(3) 0.2649(3)
C79_11 C 0.2351(3) 0.6229(3) 0.3959(3)
C80_11 C 0.2649(3) 0.8771(3) 0.3959(3)
C81_11 C 0.3959(3) 0.7649(3) 0.3771(3)
C82_11 C 0.3771(3) 0.8959(3) 0.2649(3)
H36_11 H 0.1384 0.5996 0.2691
H37_11 H 0.2309 0.6384 0.4004
H38_11 H 0.2691 0.8616 0.4004
H39_11 H 0.4004 0.7691 0.3616
H40_11 H 0.3616 0.9004 0.2691
C83_11 C 0.1134(3) 0.5961(3) 0.2430(3)
C84_11 C 0.2570(3) 0.6134(3) 0.4039(3)
C85_11 C 0.2430(3) 0.8866(3) 0.4039(3)
C86_11 C 0.4039(3) 0.7430(3) 0.3866(3)
C87_11 C 0.3866(3) 0.9039(3) 0.2430(3)
H41_11 H 0.1222 0.5863 0.2327
H42_11 H 0.2673 0.6222 0.4137
H43_11 H 0.2327 0.8778 0.4137
H44_11 H 0.4137 0.7327 0.3778
H45_11 H 0.3778 0.9137 0.2327
O48_11 O 0.1179(3) 0.6267(3) 0.3009(3)
O49_11 O 0.1991(3) 0.6179(3) 0.3733(3)
O50_11 O 0.3009(3) 0.8821(3) 0.3733(3)
O51_11 O 0.3733(3) 0.8009(3) 0.3821(3)
O52_11 O 0.3821(3) 0.8733(3) 0.3009(3)
C88_11 C 0.1403(3) 0.6208(3) 0.3096(2)
C89_11 C 0.1904(2) 0.6403(3) 0.3792(3)
C90_11 C 0.3096(2) 0.8597(3) 0.3792(3)
C91_11 C 0.3792(3) 0.8096(2) 0.3597(3)
C92_11 C 0.3597(3) 0.8792(3) 0.3096(2)
H46_11 H 0.1406 0.6041 0.3144
H47_11 H 0.1856 0.6406 0.3959
H48_11 H 0.3144 0.8594 0.3959
H49_11 H 0.3959 0.8144 0.3594
H50_11 H 0.3594 0.8959 0.3144
H51_11 H 0.1523 0.6232 0.2972
H52_11 H 0.2028 0.6523 0.3768
H53_11 H 0.2972 0.8477 0.3768
H54_11 H 0.3768 0.7972 0.3477
H55_11 H 0.3477 0.8768 0.2972
C93_11 C 0.1457(3) 0.6362(3) 0.3304(2)
C94_11 C 0.1696(2) 0.6457(3) 0.3638(3)
C95_11 C 0.3304(2) 0.8543(3) 0.3638(3)
C96_11 C 0.3638(3) 0.8304(2) 0.3543(3)
C97_11 C 0.3543(3) 0.8638(3) 0.3304(2)
C98_11 C 0.1649(2) 0.6313(2) 0.3446(3)
C99_11 C 0.1554(3) 0.6649(2) 0.3687(2)
C100_11 C 0.3446(3) 0.8351(2) 0.3687(2)
C101_11 C 0.3687(2) 0.8446(3) 0.3351(2)
C102_11 C 0.3351(2) 0.8687(2) 0.3446(3)
H56_11 H 0.1587 0.6747 0.3818
H57_11 H 0.1747 0.6182 0.3413
H58_11 H 0.3413 0.8253 0.3818
H59_11 H 0.3253 0.8818 0.3413
H60_11 H 0.3818 0.8413 0.3253
C1_12 C 0.9060(2) 0.13800(19) 0.46540(18)
C2_12 C 0.9179(2) 0.1496(2) 0.44509(17)
C3_12 C 0.93734(19) 0.13883(19) 0.43572(17)
H1_12 H 0.9428 0.1244 0.4421
C4_12 C 0.94882(17) 0.1488(2) 0.4173(2)
C5_12 C 0.97000(18) 0.1376(2) 0.4064(2)
C6_12 C 0.94089(18) 0.16956(19) 0.40809(19)
H2_12 H 0.9489 0.1765 0.3952
C7_12 C 0.9215(2) 0.1804(2) 0.4174(2)
C8_12 C 0.9098(2) 0.17086(19) 0.43578(17)
H3_12 H 0.8964 0.1784 0.4422
N1_12 N 0.9141(2) 0.20191(18) 0.4071(2)
N2_12 N 0.9042(2) 0.2161(2) 0.4198(3)
C9_12 C 0.89713(19) 0.2377(2) 0.4085(3)
C10_12 C 0.8828(2) 0.2524(3) 0.4220(3)
H4_12 H 0.8783 0.2482 0.4375
C11_12 C 0.8754(3) 0.2733(3) 0.4122(3)
H5_12 H 0.8656 0.2835 0.4212
C12_12 C 0.8819(2) 0.2798(3) 0.3895(3)
C13_12 C 0.8959(3) 0.2649(3) 0.3771(3)
H6_12 H 0.9004 0.2691 0.3616
C14_12 C 0.9039(3) 0.2430(3) 0.3866(3)
H7_12 H 0.9137 0.2327 0.3778
O7_12 O 0.8733(3) 0.3009(3) 0.3821(3)
C15_12 C 0.8792(3) 0.3096(2) 0.3597(3)
H8_12 H 0.8959 0.3144 0.3594
H9_12 H 0.8768 0.2972 0.3477
C16_12 C 0.8638(3) 0.3304(2) 0.3543(3)
C17_12 C 0.8687(2) 0.3446(3) 0.3351(2)
H10_12 H 0.8818 0.3413 0.3253
C18_12 C 0.96540(18) 0.4060(2) 0.13800(19)
C19_12 C 0.63800(19) 0.46540(18) 0.4060(2)
C20_12 C 0.86200(19) 0.03460(18) 0.4060(2)
C21_12 C 0.5940(2) 0.36200(19) 0.46540(18)
C22_12 C 0.53460(18) 0.0940(2) 0.13800(19)
C23_12 C 0.94509(17) 0.4179(2) 0.1496(2)
C24_12 C 0.6496(2) 0.44509(17) 0.4179(2)
C25_12 C 0.8504(2) 0.05491(17) 0.4179(2)
C26_12 C 0.5821(2) 0.3504(2) 0.44509(17)
C27_12 C 0.55491(17) 0.0821(2) 0.1496(2)
C28_12 C 0.93572(17) 0.43734(19) 0.13883(19)
C29_12 C 0.63883(19) 0.43572(17) 0.43734(19)
C30_12 C 0.86117(19) 0.06428(17) 0.43734(19)
C31_12 C 0.56266(19) 0.36117(19) 0.43572(17)
C32_12 C 0.56428(17) 0.06266(19) 0.13883(19)
H11_12 H 0.9421 0.4428 0.1244
H12_12 H 0.6244 0.4421 0.4428
H13_12 H 0.8756 0.0579 0.4428
H14_12 H 0.5572 0.3756 0.4421
H15_12 H 0.5579 0.0572 0.1244
C33_12 C 0.9173(2) 0.44882(17) 0.1488(2)
C34_12 C 0.6488(2) 0.4173(2) 0.44882(17)
C35_12 C 0.8512(2) 0.0827(2) 0.44882(17)
C36_12 C 0.55118(17) 0.3512(2) 0.4173(2)
C37_12 C 0.5827(2) 0.05118(17) 0.1488(2)
C38_12 C 0.9064(2) 0.47000(18) 0.1376(2)
C39_12 C 0.6376(2) 0.4064(2) 0.47000(18)
C40_12 C 0.8624(2) 0.0936(2) 0.47000(18)
C41_12 C 0.53000(18) 0.3624(2) 0.4064(2)
C42_12 C 0.5936(2) 0.03000(18) 0.1376(2)
C43_12 C 0.90809(19) 0.44089(18) 0.16956(19)
C44_12 C 0.66956(19) 0.40809(19) 0.44089(18)
C45_12 C 0.83044(19) 0.09191(19) 0.44089(18)
C46_12 C 0.55911(18) 0.33044(19) 0.40809(19)
C47_12 C 0.59191(19) 0.05911(18) 0.16956(19)
H16_12 H 0.8952 0.4489 0.1765
H17_12 H 0.6765 0.3952 0.4489
H18_12 H 0.8235 0.1048 0.4489
H19_12 H 0.5511 0.3235 0.3952
H20_12 H 0.6048 0.0511 0.1765
C48_12 C 0.9174(2) 0.4215(2) 0.1804(2)
C49_12 C 0.6804(2) 0.4174(2) 0.4215(2)
C50_12 C 0.8196(2) 0.0826(2) 0.4215(2)
C51_12 C 0.5785(2) 0.3196(2) 0.4174(2)
C52_12 C 0.5826(2) 0.0785(2) 0.1804(2)
C53_12 C 0.93578(17) 0.4098(2) 0.17086(19)
C54_12 C 0.67086(19) 0.43578(17) 0.4098(2)
C55_12 C 0.82914(19) 0.06422(17) 0.4098(2)
C56_12 C 0.5902(2) 0.32914(19) 0.43578(17)
C57_12 C 0.56422(17) 0.0902(2) 0.17086(19)
H21_12 H 0.9422 0.3964 0.1784
H22_12 H 0.6784 0.4422 0.3964
H23_12 H 0.8216 0.0578 0.3964
H24_12 H 0.6036 0.3216 0.4422
H25_12 H 0.5578 0.1036 0.1784
N3_12 N 0.9071(2) 0.4141(2) 0.20191(18)
N4_12 N 0.70191(18) 0.4071(2) 0.4141(2)
N5_12 N 0.79809(18) 0.0929(2) 0.4141(2)
N6_12 N 0.5859(2) 0.29809(18) 0.4071(2)
N7_12 N 0.5929(2) 0.0859(2) 0.20191(18)
N8_12 N 0.9198(3) 0.4042(2) 0.2161(2)
N9_12 N 0.7161(2) 0.4198(3) 0.4042(2)
N10_12 N 0.7839(2) 0.0802(3) 0.4042(2)
N11_12 N 0.5958(2) 0.2839(2) 0.4198(3)
N12_12 N 0.5802(3) 0.0958(2) 0.2161(2)
C58_12 C 0.9085(3) 0.39713(19) 0.2377(2)
C59_12 C 0.7377(2) 0.4085(3) 0.39713(19)
C60_12 C 0.7623(2) 0.0915(3) 0.39713(19)
C61_12 C 0.60287(19) 0.2623(2) 0.4085(3)
C62_12 C 0.5915(3) 0.10287(19) 0.2377(2)
C63_12 C 0.9220(3) 0.3828(2) 0.2524(3)
C64_12 C 0.7524(3) 0.4220(3) 0.3828(2)
C65_12 C 0.7476(3) 0.0780(3) 0.3828(2)
C66_12 C 0.6172(2) 0.2476(3) 0.4220(3)
C67_12 C 0.5780(3) 0.1172(2) 0.2524(3)
H26_12 H 0.9375 0.3783 0.2482
H27_12 H 0.7482 0.4375 0.3783
H28_12 H 0.7518 0.0625 0.3783
H29_12 H 0.6217 0.2518 0.4375
H30_12 H 0.5625 0.1217 0.2482
C68_12 C 0.9122(3) 0.3754(3) 0.2733(3)
C69_12 C 0.7733(3) 0.4122(3) 0.3754(3)
C70_12 C 0.7267(3) 0.0878(3) 0.3754(3)
C71_12 C 0.6246(3) 0.2267(3) 0.4122(3)
C72_12 C 0.5878(3) 0.1246(3) 0.2733(3)
H31_12 H 0.9212 0.3656 0.2835
H32_12 H 0.7835 0.4212 0.3656
H33_12 H 0.7165 0.0788 0.3656
H34_12 H 0.6344 0.2165 0.4212
H35_12 H 0.5788 0.1344 0.2835
C73_12 C 0.8895(3) 0.3819(2) 0.2798(3)
C74_12 C 0.7798(3) 0.3895(3) 0.3819(2)
C75_12 C 0.7202(3) 0.1105(3) 0.3819(2)
C76_12 C 0.6181(2) 0.2202(3) 0.3895(3)
C77_12 C 0.6105(3) 0.1181(2) 0.2798(3)
C78_12 C 0.8771(3) 0.3959(3) 0.2649(3)
C79_12 C 0.7649(3) 0.3771(3) 0.3959(3)
C80_12 C 0.7351(3) 0.1229(3) 0.3959(3)
C81_12 C 0.6041(3) 0.2351(3) 0.3771(3)
C82_12 C 0.6229(3) 0.1041(3) 0.2649(3)
H36_12 H 0.8616 0.4004 0.2691
H37_12 H 0.7691 0.3616 0.4004
H38_12 H 0.7309 0.1384 0.4004
H39_12 H 0.5996 0.2309 0.3616
H40_12 H 0.6384 0.0996 0.2691
C83_12 C 0.8866(3) 0.4039(3) 0.2430(3)
C84_12 C 0.7430(3) 0.3866(3) 0.4039(3)
C85_12 C 0.7570(3) 0.1134(3) 0.4039(3)
C86_12 C 0.5961(3) 0.2570(3) 0.3866(3)
C87_12 C 0.6134(3) 0.0961(3) 0.2430(3)
H41_12 H 0.8778 0.4137 0.2327
H42_12 H 0.7327 0.3778 0.4137
H43_12 H 0.7673 0.1222 0.4137
H44_12 H 0.5863 0.2673 0.3778
H45_12 H 0.6222 0.0863 0.2327
O48_12 O 0.8821(3) 0.3733(3) 0.3009(3)
O49_12 O 0.8009(3) 0.3821(3) 0.3733(3)
O50_12 O 0.6991(3) 0.1179(3) 0.3733(3)
O51_12 O 0.6267(3) 0.1991(3) 0.3821(3)
O52_12 O 0.6179(3) 0.1267(3) 0.3009(3)
C88_12 C 0.8597(3) 0.3792(3) 0.3096(2)
C89_12 C 0.8096(2) 0.3597(3) 0.3792(3)
C90_12 C 0.6904(2) 0.1403(3) 0.3792(3)
C91_12 C 0.6208(3) 0.1904(2) 0.3597(3)
C92_12 C 0.6403(3) 0.1208(3) 0.3096(2)
H46_12 H 0.8594 0.3959 0.3144
H47_12 H 0.8144 0.3594 0.3959
H48_12 H 0.6856 0.1406 0.3959
H49_12 H 0.6041 0.1856 0.3594
H50_12 H 0.6406 0.1041 0.3144
H51_12 H 0.8477 0.3768 0.2972
H52_12 H 0.7972 0.3477 0.3768
H53_12 H 0.7028 0.1523 0.3768
H54_12 H 0.6232 0.2028 0.3477
H55_12 H 0.6523 0.1232 0.2972
C93_12 C 0.8543(3) 0.3638(3) 0.3304(2)
C94_12 C 0.8304(2) 0.3543(3) 0.3638(3)
C95_12 C 0.6696(2) 0.1457(3) 0.3638(3)
C96_12 C 0.6362(3) 0.1696(2) 0.3543(3)
C97_12 C 0.6457(3) 0.1362(3) 0.3304(2)
C98_12 C 0.8351(2) 0.3687(2) 0.3446(3)
C99_12 C 0.8446(3) 0.3351(2) 0.3687(2)
C100_12 C 0.6554(3) 0.1649(2) 0.3687(2)
C101_12 C 0.6313(2) 0.1554(3) 0.3351(2)
C102_12 C 0.6649(2) 0.1313(2) 0.3446(3)
H56_12 H 0.8413 0.3253 0.3818
H57_12 H 0.8253 0.3818 0.3413
H58_12 H 0.6587 0.1747 0.3818
H59_12 H 0.6747 0.1182 0.3413
H60_12 H 0.6182 0.1587 0.3253
C20_13 C 0.5940(2) 0.86200(19) 0.96540(18)
C21_13 C 0.53460(18) 0.5940(2) 0.63800(19)
C22_13 C 0.86200(19) 0.53460(18) 0.9060(2)
C25_13 C 0.5821(2) 0.8504(2) 0.94509(17)
C26_13 C 0.55491(17) 0.5821(2) 0.6496(2)
C27_13 C 0.8504(2) 0.55491(17) 0.9179(2)
C30_13 C 0.56266(19) 0.86117(19) 0.93572(17)
C31_13 C 0.56428(17) 0.56266(19) 0.63883(19)
C32_13 C 0.86117(19) 0.56428(17) 0.93734(19)
H13_13 H 0.5572 0.8756 0.9421
H14_13 H 0.5579 0.5572 0.6244
H15_13 H 0.8756 0.5579 0.9428
C35_13 C 0.55118(17) 0.8512(2) 0.9173(2)
C36_13 C 0.5827(2) 0.55118(17) 0.6488(2)
C37_13 C 0.8512(2) 0.5827(2) 0.94882(17)
C40_13 C 0.53000(18) 0.8624(2) 0.9064(2)
C41_13 C 0.5936(2) 0.53000(18) 0.6376(2)
C42_13 C 0.8624(2) 0.5936(2) 0.97000(18)
C45_13 C 0.55911(18) 0.83044(19) 0.90809(19)
C46_13 C 0.59191(19) 0.55911(18) 0.66956(19)
C47_13 C 0.83044(19) 0.59191(19) 0.94089(18)
H18_13 H 0.5511 0.8235 0.8952
H19_13 H 0.6048 0.5511 0.6765
H20_13 H 0.8235 0.6048 0.9489
C50_13 C 0.5785(2) 0.8196(2) 0.9174(2)
C51_13 C 0.5826(2) 0.5785(2) 0.6804(2)
C52_13 C 0.8196(2) 0.5826(2) 0.9215(2)
C55_13 C 0.5902(2) 0.82914(19) 0.93578(17)
C56_13 C 0.56422(17) 0.5902(2) 0.67086(19)
C57_13 C 0.82914(19) 0.56422(17) 0.9098(2)
H23_13 H 0.6036 0.8216 0.9422
H24_13 H 0.5578 0.6036 0.6784
H25_13 H 0.8216 0.5578 0.8964
N5_13 N 0.5859(2) 0.79809(18) 0.9071(2)
N6_13 N 0.5929(2) 0.5859(2) 0.70191(18)
N7_13 N 0.79809(18) 0.5929(2) 0.9141(2)
N10_13 N 0.5958(2) 0.7839(2) 0.9198(3)
N11_13 N 0.5802(3) 0.5958(2) 0.7161(2)
N12_13 N 0.7839(2) 0.5802(3) 0.9042(2)
C60_13 C 0.60287(19) 0.7623(2) 0.9085(3)
C61_13 C 0.5915(3) 0.60287(19) 0.7377(2)
C62_13 C 0.7623(2) 0.5915(3) 0.89713(19)
C65_13 C 0.6172(2) 0.7476(3) 0.9220(3)
C66_13 C 0.5780(3) 0.6172(2) 0.7524(3)
C67_13 C 0.7476(3) 0.5780(3) 0.8828(2)
H28_13 H 0.6217 0.7518 0.9375
H29_13 H 0.5625 0.6217 0.7482
H30_13 H 0.7518 0.5625 0.8783
C70_13 C 0.6246(3) 0.7267(3) 0.9122(3)
C71_13 C 0.5878(3) 0.6246(3) 0.7733(3)
C72_13 C 0.7267(3) 0.5878(3) 0.8754(3)
H33_13 H 0.6344 0.7165 0.9212
H34_13 H 0.5788 0.6344 0.7835
H35_13 H 0.7165 0.5788 0.8656
C75_13 C 0.6181(2) 0.7202(3) 0.8895(3)
C76_13 C 0.6105(3) 0.6181(2) 0.7798(3)
C77_13 C 0.7202(3) 0.6105(3) 0.8819(2)
C80_13 C 0.6041(3) 0.7351(3) 0.8771(3)
C81_13 C 0.6229(3) 0.6041(3) 0.7649(3)
C82_13 C 0.7351(3) 0.6229(3) 0.8959(3)
H38_13 H 0.5996 0.7309 0.8616
H39_13 H 0.6384 0.5996 0.7691
H40_13 H 0.7309 0.6384 0.9004
C85_13 C 0.5961(3) 0.7570(3) 0.8866(3)
C86_13 C 0.6134(3) 0.5961(3) 0.7430(3)
C87_13 C 0.7570(3) 0.6134(3) 0.9039(3)
H43_13 H 0.5863 0.7673 0.8778
H44_13 H 0.6222 0.5863 0.7327
H45_13 H 0.7673 0.6222 0.9137
O50_13 O 0.6267(3) 0.6991(3) 0.8821(3)
O51_13 O 0.6179(3) 0.6267(3) 0.8009(3)
O52_13 O 0.6991(3) 0.6179(3) 0.8733(3)
C90_13 C 0.6208(3) 0.6904(2) 0.8597(3)
C91_13 C 0.6403(3) 0.6208(3) 0.8096(2)
C92_13 C 0.6904(2) 0.6403(3) 0.8792(3)
H48_13 H 0.6041 0.6856 0.8594
H49_13 H 0.6406 0.6041 0.8144
H50_13 H 0.6856 0.6406 0.8959
H53_13 H 0.6232 0.7028 0.8477
H54_13 H 0.6523 0.6232 0.7972
H55_13 H 0.7028 0.6523 0.8768
C95_13 C 0.6362(3) 0.6696(2) 0.8543(3)
C96_13 C 0.6457(3) 0.6362(3) 0.8304(2)
C97_13 C 0.6696(2) 0.6457(3) 0.8638(3)
C100_13 C 0.6313(2) 0.6554(3) 0.8351(2)
C101_13 C 0.6649(2) 0.6313(2) 0.8446(3)
C102_13 C 0.6554(3) 0.6649(2) 0.8687(2)
H58_13 H 0.6182 0.6587 0.8253
H59_13 H 0.6587 0.6747 0.8818
H60_13 H 0.6747 0.6182 0.8413
C20_14 C 0.5940(2) 0.13800(19) 0.03460(18)
C21_14 C 0.53460(18) 0.4060(2) 0.36200(19)
C22_14 C 0.86200(19) 0.46540(18) 0.0940(2)
C25_14 C 0.5821(2) 0.1496(2) 0.05491(17)
C26_14 C 0.55491(17) 0.4179(2) 0.3504(2)
C27_14 C 0.8504(2) 0.44509(17) 0.0821(2)
C30_14 C 0.56266(19) 0.13883(19) 0.06428(17)
C31_14 C 0.56428(17) 0.43734(19) 0.36117(19)
C32_14 C 0.86117(19) 0.43572(17) 0.06266(19)
H13_14 H 0.5572 0.1244 0.0579
H14_14 H 0.5579 0.4428 0.3756
H15_14 H 0.8756 0.4421 0.0572
C35_14 C 0.55118(17) 0.1488(2) 0.0827(2)
C36_14 C 0.5827(2) 0.44882(17) 0.3512(2)
C37_14 C 0.8512(2) 0.4173(2) 0.05118(17)
C40_14 C 0.53000(18) 0.1376(2) 0.0936(2)
C41_14 C 0.5936(2) 0.47000(18) 0.3624(2)
C42_14 C 0.8624(2) 0.4064(2) 0.03000(18)
C45_14 C 0.55911(18) 0.16956(19) 0.09191(19)
C46_14 C 0.59191(19) 0.44089(18) 0.33044(19)
C47_14 C 0.83044(19) 0.40809(19) 0.05911(18)
H18_14 H 0.5511 0.1765 0.1048
H19_14 H 0.6048 0.4489 0.3235
H20_14 H 0.8235 0.3952 0.0511
C50_14 C 0.5785(2) 0.1804(2) 0.0826(2)
C51_14 C 0.5826(2) 0.4215(2) 0.3196(2)
C52_14 C 0.8196(2) 0.4174(2) 0.0785(2)
C55_14 C 0.5902(2) 0.17086(19) 0.06422(17)
C56_14 C 0.56422(17) 0.4098(2) 0.32914(19)
C57_14 C 0.82914(19) 0.43578(17) 0.0902(2)
H23_14 H 0.6036 0.1784 0.0578
H24_14 H 0.5578 0.3964 0.3216
H25_14 H 0.8216 0.4422 0.1036
N5_14 N 0.5859(2) 0.20191(18) 0.0929(2)
N6_14 N 0.5929(2) 0.4141(2) 0.29809(18)
N7_14 N 0.79809(18) 0.4071(2) 0.0859(2)
N10_14 N 0.5958(2) 0.2161(2) 0.0802(3)
N11_14 N 0.5802(3) 0.4042(2) 0.2839(2)
N12_14 N 0.7839(2) 0.4198(3) 0.0958(2)
C60_14 C 0.60287(19) 0.2377(2) 0.0915(3)
C61_14 C 0.5915(3) 0.39713(19) 0.2623(2)
C62_14 C 0.7623(2) 0.4085(3) 0.10287(19)
C65_14 C 0.6172(2) 0.2524(3) 0.0780(3)
C66_14 C 0.5780(3) 0.3828(2) 0.2476(3)
C67_14 C 0.7476(3) 0.4220(3) 0.1172(2)
H28_14 H 0.6217 0.2482 0.0625
H29_14 H 0.5625 0.3783 0.2518
H30_14 H 0.7518 0.4375 0.1217
C70_14 C 0.6246(3) 0.2733(3) 0.0878(3)
C71_14 C 0.5878(3) 0.3754(3) 0.2267(3)
C72_14 C 0.7267(3) 0.4122(3) 0.1246(3)
H33_14 H 0.6344 0.2835 0.0788
H34_14 H 0.5788 0.3656 0.2165
H35_14 H 0.7165 0.4212 0.1344
C75_14 C 0.6181(2) 0.2798(3) 0.1105(3)
C76_14 C 0.6105(3) 0.3819(2) 0.2202(3)
C77_14 C 0.7202(3) 0.3895(3) 0.1181(2)
C80_14 C 0.6041(3) 0.2649(3) 0.1229(3)
C81_14 C 0.6229(3) 0.3959(3) 0.2351(3)
C82_14 C 0.7351(3) 0.3771(3) 0.1041(3)
H38_14 H 0.5996 0.2691 0.1384
H39_14 H 0.6384 0.4004 0.2309
H40_14 H 0.7309 0.3616 0.0996
C85_14 C 0.5961(3) 0.2430(3) 0.1134(3)
C86_14 C 0.6134(3) 0.4039(3) 0.2570(3)
C87_14 C 0.7570(3) 0.3866(3) 0.0961(3)
H43_14 H 0.5863 0.2327 0.1222
H44_14 H 0.6222 0.4137 0.2673
H45_14 H 0.7673 0.3778 0.0863
O50_14 O 0.6267(3) 0.3009(3) 0.1179(3)
O51_14 O 0.6179(3) 0.3733(3) 0.1991(3)
O52_14 O 0.6991(3) 0.3821(3) 0.1267(3)
C90_14 C 0.6208(3) 0.3096(2) 0.1403(3)
C91_14 C 0.6403(3) 0.3792(3) 0.1904(2)
C92_14 C 0.6904(2) 0.3597(3) 0.1208(3)
H48_14 H 0.6041 0.3144 0.1406
H49_14 H 0.6406 0.3959 0.1856
H50_14 H 0.6856 0.3594 0.1041
H53_14 H 0.6232 0.2972 0.1523
H54_14 H 0.6523 0.3768 0.2028
H55_14 H 0.7028 0.3477 0.1232
C95_14 C 0.6362(3) 0.3304(2) 0.1457(3)
C96_14 C 0.6457(3) 0.3638(3) 0.1696(2)
C97_14 C 0.6696(2) 0.3543(3) 0.1362(3)
C100_14 C 0.6313(2) 0.3446(3) 0.1649(2)
C101_14 C 0.6649(2) 0.3687(2) 0.1554(3)
C102_14 C 0.6554(3) 0.3351(2) 0.1313(2)
H58_14 H 0.6182 0.3413 0.1747
H59_14 H 0.6587 0.3253 0.1182
H60_14 H 0.6747 0.3818 0.1587
C20_15 C 0.4060(2) 0.13800(19) 0.96540(18)
C21_15 C 0.46540(18) 0.4060(2) 0.63800(19)
C22_15 C 0.13800(19) 0.46540(18) 0.9060(2)
C25_15 C 0.4179(2) 0.1496(2) 0.94509(17)
C26_15 C 0.44509(17) 0.4179(2) 0.6496(2)
C27_15 C 0.1496(2) 0.44509(17) 0.9179(2)
C30_15 C 0.43734(19) 0.13883(19) 0.93572(17)
C31_15 C 0.43572(17) 0.43734(19) 0.63883(19)
C32_15 C 0.13883(19) 0.43572(17) 0.93734(19)
H13_15 H 0.4428 0.1244 0.9421
H14_15 H 0.4421 0.4428 0.6244
H15_15 H 0.1244 0.4421 0.9428
C35_15 C 0.44882(17) 0.1488(2) 0.9173(2)
C36_15 C 0.4173(2) 0.44882(17) 0.6488(2)
C37_15 C 0.1488(2) 0.4173(2) 0.94882(17)
C40_15 C 0.47000(18) 0.1376(2) 0.9064(2)
C41_15 C 0.4064(2) 0.47000(18) 0.6376(2)
C42_15 C 0.1376(2) 0.4064(2) 0.97000(18)
C45_15 C 0.44089(18) 0.16956(19) 0.90809(19)
C46_15 C 0.40809(19) 0.44089(18) 0.66956(19)
C47_15 C 0.16956(19) 0.40809(19) 0.94089(18)
H18_15 H 0.4489 0.1765 0.8952
H19_15 H 0.3952 0.4489 0.6765
H20_15 H 0.1765 0.3952 0.9489
C50_15 C 0.4215(2) 0.1804(2) 0.9174(2)
C51_15 C 0.4174(2) 0.4215(2) 0.6804(2)
C52_15 C 0.1804(2) 0.4174(2) 0.9215(2)
C55_15 C 0.4098(2) 0.17086(19) 0.93578(17)
C56_15 C 0.43578(17) 0.4098(2) 0.67086(19)
C57_15 C 0.17086(19) 0.43578(17) 0.9098(2)
H23_15 H 0.3964 0.1784 0.9422
H24_15 H 0.4422 0.3964 0.6784
H25_15 H 0.1784 0.4422 0.8964
N5_15 N 0.4141(2) 0.20191(18) 0.9071(2)
N6_15 N 0.4071(2) 0.4141(2) 0.70191(18)
N7_15 N 0.20191(18) 0.4071(2) 0.9141(2)
N10_15 N 0.4042(2) 0.2161(2) 0.9198(3)
N11_15 N 0.4198(3) 0.4042(2) 0.7161(2)
N12_15 N 0.2161(2) 0.4198(3) 0.9042(2)
C60_15 C 0.39713(19) 0.2377(2) 0.9085(3)
C61_15 C 0.4085(3) 0.39713(19) 0.7377(2)
C62_15 C 0.2377(2) 0.4085(3) 0.89713(19)
C65_15 C 0.3828(2) 0.2524(3) 0.9220(3)
C66_15 C 0.4220(3) 0.3828(2) 0.7524(3)
C67_15 C 0.2524(3) 0.4220(3) 0.8828(2)
H28_15 H 0.3783 0.2482 0.9375
H29_15 H 0.4375 0.3783 0.7482
H30_15 H 0.2482 0.4375 0.8783
C70_15 C 0.3754(3) 0.2733(3) 0.9122(3)
C71_15 C 0.4122(3) 0.3754(3) 0.7733(3)
C72_15 C 0.2733(3) 0.4122(3) 0.8754(3)
H33_15 H 0.3656 0.2835 0.9212
H34_15 H 0.4212 0.3656 0.7835
H35_15 H 0.2835 0.4212 0.8656
C75_15 C 0.3819(2) 0.2798(3) 0.8895(3)
C76_15 C 0.3895(3) 0.3819(2) 0.7798(3)
C77_15 C 0.2798(3) 0.3895(3) 0.8819(2)
C80_15 C 0.3959(3) 0.2649(3) 0.8771(3)
C81_15 C 0.3771(3) 0.3959(3) 0.7649(3)
C82_15 C 0.2649(3) 0.3771(3) 0.8959(3)
H38_15 H 0.4004 0.2691 0.8616
H39_15 H 0.3616 0.4004 0.7691
H40_15 H 0.2691 0.3616 0.9004
C85_15 C 0.4039(3) 0.2430(3) 0.8866(3)
C86_15 C 0.3866(3) 0.4039(3) 0.7430(3)
C87_15 C 0.2430(3) 0.3866(3) 0.9039(3)
H43_15 H 0.4137 0.2327 0.8778
H44_15 H 0.3778 0.4137 0.7327
H45_15 H 0.2327 0.3778 0.9137
O50_15 O 0.3733(3) 0.3009(3) 0.8821(3)
O51_15 O 0.3821(3) 0.3733(3) 0.8009(3)
O52_15 O 0.3009(3) 0.3821(3) 0.8733(3)
C90_15 C 0.3792(3) 0.3096(2) 0.8597(3)
C91_15 C 0.3597(3) 0.3792(3) 0.8096(2)
C92_15 C 0.3096(2) 0.3597(3) 0.8792(3)
H48_15 H 0.3959 0.3144 0.8594
H49_15 H 0.3594 0.3959 0.8144
H50_15 H 0.3144 0.3594 0.8959
H53_15 H 0.3768 0.2972 0.8477
H54_15 H 0.3477 0.3768 0.7972
H55_15 H 0.2972 0.3477 0.8768
C95_15 C 0.3638(3) 0.3304(2) 0.8543(3)
C96_15 C 0.3543(3) 0.3638(3) 0.8304(2)
C97_15 C 0.3304(2) 0.3543(3) 0.8638(3)
C100_15 C 0.3687(2) 0.3446(3) 0.8351(2)
C101_15 C 0.3351(2) 0.3687(2) 0.8446(3)
C102_15 C 0.3446(3) 0.3351(2) 0.8687(2)
H58_15 H 0.3818 0.3413 0.8253
H59_15 H 0.3413 0.3253 0.8818
H60_15 H 0.3253 0.3818 0.8413
C20_16 C 0.4060(2) 0.86200(19) 0.03460(18)
C21_16 C 0.46540(18) 0.5940(2) 0.36200(19)
C22_16 C 0.13800(19) 0.53460(18) 0.0940(2)
C25_16 C 0.4179(2) 0.8504(2) 0.05491(17)
C26_16 C 0.44509(17) 0.5821(2) 0.3504(2)
C27_16 C 0.1496(2) 0.55491(17) 0.0821(2)
C30_16 C 0.43734(19) 0.86117(19) 0.06428(17)
C31_16 C 0.43572(17) 0.56266(19) 0.36117(19)
C32_16 C 0.13883(19) 0.56428(17) 0.06266(19)
H13_16 H 0.4428 0.8756 0.0579
H14_16 H 0.4421 0.5572 0.3756
H15_16 H 0.1244 0.5579 0.0572
C35_16 C 0.44882(17) 0.8512(2) 0.0827(2)
C36_16 C 0.4173(2) 0.55118(17) 0.3512(2)
C37_16 C 0.1488(2) 0.5827(2) 0.05118(17)
C40_16 C 0.47000(18) 0.8624(2) 0.0936(2)
C41_16 C 0.4064(2) 0.53000(18) 0.3624(2)
C42_16 C 0.1376(2) 0.5936(2) 0.03000(18)
C45_16 C 0.44089(18) 0.83044(19) 0.09191(19)
C46_16 C 0.40809(19) 0.55911(18) 0.33044(19)
C47_16 C 0.16956(19) 0.59191(19) 0.05911(18)
H18_16 H 0.4489 0.8235 0.1048
H19_16 H 0.3952 0.5511 0.3235
H20_16 H 0.1765 0.6048 0.0511
C50_16 C 0.4215(2) 0.8196(2) 0.0826(2)
C51_16 C 0.4174(2) 0.5785(2) 0.3196(2)
C52_16 C 0.1804(2) 0.5826(2) 0.0785(2)
C55_16 C 0.4098(2) 0.82914(19) 0.06422(17)
C56_16 C 0.43578(17) 0.5902(2) 0.32914(19)
C57_16 C 0.17086(19) 0.56422(17) 0.0902(2)
H23_16 H 0.3964 0.8216 0.0578
H24_16 H 0.4422 0.6036 0.3216
H25_16 H 0.1784 0.5578 0.1036
N5_16 N 0.4141(2) 0.79809(18) 0.0929(2)
N6_16 N 0.4071(2) 0.5859(2) 0.29809(18)
N7_16 N 0.20191(18) 0.5929(2) 0.0859(2)
N10_16 N 0.4042(2) 0.7839(2) 0.0802(3)
N11_16 N 0.4198(3) 0.5958(2) 0.2839(2)
N12_16 N 0.2161(2) 0.5802(3) 0.0958(2)
C60_16 C 0.39713(19) 0.7623(2) 0.0915(3)
C61_16 C 0.4085(3) 0.60287(19) 0.2623(2)
C62_16 C 0.2377(2) 0.5915(3) 0.10287(19)
C65_16 C 0.3828(2) 0.7476(3) 0.0780(3)
C66_16 C 0.4220(3) 0.6172(2) 0.2476(3)
C67_16 C 0.2524(3) 0.5780(3) 0.1172(2)
H28_16 H 0.3783 0.7518 0.0625
H29_16 H 0.4375 0.6217 0.2518
H30_16 H 0.2482 0.5625 0.1217
C70_16 C 0.3754(3) 0.7267(3) 0.0878(3)
C71_16 C 0.4122(3) 0.6246(3) 0.2267(3)
C72_16 C 0.2733(3) 0.5878(3) 0.1246(3)
H33_16 H 0.3656 0.7165 0.0788
H34_16 H 0.4212 0.6344 0.2165
H35_16 H 0.2835 0.5788 0.1344
C75_16 C 0.3819(2) 0.7202(3) 0.1105(3)
C76_16 C 0.3895(3) 0.6181(2) 0.2202(3)
C77_16 C 0.2798(3) 0.6105(3) 0.1181(2)
C80_16 C 0.3959(3) 0.7351(3) 0.1229(3)
C81_16 C 0.3771(3) 0.6041(3) 0.2351(3)
C82_16 C 0.2649(3) 0.6229(3) 0.1041(3)
H38_16 H 0.4004 0.7309 0.1384
H39_16 H 0.3616 0.5996 0.2309
H40_16 H 0.2691 0.6384 0.0996
C85_16 C 0.4039(3) 0.7570(3) 0.1134(3)
C86_16 C 0.3866(3) 0.5961(3) 0.2570(3)
C87_16 C 0.2430(3) 0.6134(3) 0.0961(3)
H43_16 H 0.4137 0.7673 0.1222
H44_16 H 0.3778 0.5863 0.2673
H45_16 H 0.2327 0.6222 0.0863
O50_16 O 0.3733(3) 0.6991(3) 0.1179(3)
O51_16 O 0.3821(3) 0.6267(3) 0.1991(3)
O52_16 O 0.3009(3) 0.6179(3) 0.1267(3)
C90_16 C 0.3792(3) 0.6904(2) 0.1403(3)
C91_16 C 0.3597(3) 0.6208(3) 0.1904(2)
C92_16 C 0.3096(2) 0.6403(3) 0.1208(3)
H48_16 H 0.3959 0.6856 0.1406
H49_16 H 0.3594 0.6041 0.1856
H50_16 H 0.3144 0.6406 0.1041
H53_16 H 0.3768 0.7028 0.1523
H54_16 H 0.3477 0.6232 0.2028
H55_16 H 0.2972 0.6523 0.1232
C95_16 C 0.3638(3) 0.6696(2) 0.1457(3)
C96_16 C 0.3543(3) 0.6362(3) 0.1696(2)
C97_16 C 0.3304(2) 0.6457(3) 0.1362(3)
C100_16 C 0.3687(2) 0.6554(3) 0.1649(2)
C101_16 C 0.3351(2) 0.6313(2) 0.1554(3)
C102_16 C 0.3446(3) 0.6649(2) 0.1313(2)
H58_16 H 0.3818 0.6587 0.1747
H59_16 H 0.3413 0.6747 0.1182
H60_16 H 0.3253 0.6182 0.1587
C1_13 C 0.9060(2) 0.36200(19) 0.03460(18)
C2_13 C 0.9179(2) 0.3504(2) 0.05491(17)
C3_13 C 0.93734(19) 0.36117(19) 0.06428(17)
H1_13 H 0.9428 0.3756 0.0579
C4_13 C 0.94882(17) 0.3512(2) 0.0827(2)
C5_13 C 0.97000(18) 0.3624(2) 0.0936(2)
C6_13 C 0.94089(18) 0.33044(19) 0.09191(19)
H2_13 H 0.9489 0.3235 0.1048
C7_13 C 0.9215(2) 0.3196(2) 0.0826(2)
C8_13 C 0.9098(2) 0.32914(19) 0.06422(17)
H3_13 H 0.8964 0.3216 0.0578
N1_13 N 0.9141(2) 0.29809(18) 0.0929(2)
N2_13 N 0.9042(2) 0.2839(2) 0.0802(3)
C9_13 C 0.89713(19) 0.2623(2) 0.0915(3)
C10_13 C 0.8828(2) 0.2476(3) 0.0780(3)
H4_13 H 0.8783 0.2518 0.0625
C11_13 C 0.8754(3) 0.2267(3) 0.0878(3)
H5_13 H 0.8656 0.2165 0.0788
C12_13 C 0.8819(2) 0.2202(3) 0.1105(3)
C13_13 C 0.8959(3) 0.2351(3) 0.1229(3)
H6_13 H 0.9004 0.2309 0.1384
C14_13 C 0.9039(3) 0.2570(3) 0.1134(3)
H7_13 H 0.9137 0.2673 0.1222
O7_13 O 0.8733(3) 0.1991(3) 0.1179(3)
C15_13 C 0.8792(3) 0.1904(2) 0.1403(3)
H8_13 H 0.8959 0.1856 0.1406
H9_13 H 0.8768 0.2028 0.1523
C16_13 C 0.8638(3) 0.1696(2) 0.1457(3)
C17_13 C 0.8687(2) 0.1554(3) 0.1649(2)
H10_13 H 0.8818 0.1587 0.1747
C18_13 C 0.96540(18) 0.0940(2) 0.36200(19)
C19_13 C 0.63800(19) 0.03460(18) 0.0940(2)
C23_13 C 0.94509(17) 0.0821(2) 0.3504(2)
C24_13 C 0.6496(2) 0.05491(17) 0.0821(2)
C28_13 C 0.93572(17) 0.06266(19) 0.36117(19)
C29_13 C 0.63883(19) 0.06428(17) 0.06266(19)
H11_13 H 0.9421 0.0572 0.3756
H12_13 H 0.6244 0.0579 0.0572
C33_13 C 0.9173(2) 0.05118(17) 0.3512(2)
C34_13 C 0.6488(2) 0.0827(2) 0.05118(17)
C38_13 C 0.9064(2) 0.03000(18) 0.3624(2)
C39_13 C 0.6376(2) 0.0936(2) 0.03000(18)
C43_13 C 0.90809(19) 0.05911(18) 0.33044(19)
C44_13 C 0.66956(19) 0.09191(19) 0.05911(18)
H16_13 H 0.8952 0.0511 0.3235
H17_13 H 0.6765 0.1048 0.0511
C48_13 C 0.9174(2) 0.0785(2) 0.3196(2)
C49_13 C 0.6804(2) 0.0826(2) 0.0785(2)
C53_13 C 0.93578(17) 0.0902(2) 0.32914(19)
C54_13 C 0.67086(19) 0.06422(17) 0.0902(2)
H21_13 H 0.9422 0.1036 0.3216
H22_13 H 0.6784 0.0578 0.1036
N3_13 N 0.9071(2) 0.0859(2) 0.29809(18)
N4_13 N 0.70191(18) 0.0929(2) 0.0859(2)
N8_13 N 0.9198(3) 0.0958(2) 0.2839(2)
N9_13 N 0.7161(2) 0.0802(3) 0.0958(2)
C58_13 C 0.9085(3) 0.10287(19) 0.2623(2)
C59_13 C 0.7377(2) 0.0915(3) 0.10287(19)
C63_13 C 0.9220(3) 0.1172(2) 0.2476(3)
C64_13 C 0.7524(3) 0.0780(3) 0.1172(2)
H26_13 H 0.9375 0.1217 0.2518
H27_13 H 0.7482 0.0625 0.1217
C68_13 C 0.9122(3) 0.1246(3) 0.2267(3)
C69_13 C 0.7733(3) 0.0878(3) 0.1246(3)
H31_13 H 0.9212 0.1344 0.2165
H32_13 H 0.7835 0.0788 0.1344
C73_13 C 0.8895(3) 0.1181(2) 0.2202(3)
C74_13 C 0.7798(3) 0.1105(3) 0.1181(2)
C78_13 C 0.8771(3) 0.1041(3) 0.2351(3)
C79_13 C 0.7649(3) 0.1229(3) 0.1041(3)
H36_13 H 0.8616 0.0996 0.2309
H37_13 H 0.7691 0.1384 0.0996
C83_13 C 0.8866(3) 0.0961(3) 0.2570(3)
C84_13 C 0.7430(3) 0.1134(3) 0.0961(3)
H41_13 H 0.8778 0.0863 0.2673
H42_13 H 0.7327 0.1222 0.0863
O48_13 O 0.8821(3) 0.1267(3) 0.1991(3)
O49_13 O 0.8009(3) 0.1179(3) 0.1267(3)
C88_13 C 0.8597(3) 0.1208(3) 0.1904(2)
C89_13 C 0.8096(2) 0.1403(3) 0.1208(3)
H46_13 H 0.8594 0.1041 0.1856
H47_13 H 0.8144 0.1406 0.1041
H51_13 H 0.8477 0.1232 0.2028
H52_13 H 0.7972 0.1523 0.1232
C93_13 C 0.8543(3) 0.1362(3) 0.1696(2)
C94_13 C 0.8304(2) 0.1457(3) 0.1362(3)
C98_13 C 0.8351(2) 0.1313(2) 0.1554(3)
C99_13 C 0.8446(3) 0.1649(2) 0.1313(2)
H56_13 H 0.8413 0.1747 0.1182
H57_13 H 0.8253 0.1182 0.1587
C1_14 C 0.0940(2) 0.63800(19) 0.03460(18)
C2_14 C 0.0821(2) 0.6496(2) 0.05491(17)
C3_14 C 0.06266(19) 0.63883(19) 0.06428(17)
H1_14 H 0.0572 0.6244 0.0579
C4_14 C 0.05118(17) 0.6488(2) 0.0827(2)
C5_14 C 0.03000(18) 0.6376(2) 0.0936(2)
C6_14 C 0.05911(18) 0.66956(19) 0.09191(19)
H2_14 H 0.0511 0.6765 0.1048
C7_14 C 0.0785(2) 0.6804(2) 0.0826(2)
C8_14 C 0.0902(2) 0.67086(19) 0.06422(17)
H3_14 H 0.1036 0.6784 0.0578
N1_14 N 0.0859(2) 0.70191(18) 0.0929(2)
N2_14 N 0.0958(2) 0.7161(2) 0.0802(3)
C9_14 C 0.10287(19) 0.7377(2) 0.0915(3)
C10_14 C 0.1172(2) 0.7524(3) 0.0780(3)
H4_14 H 0.1217 0.7482 0.0625
C11_14 C 0.1246(3) 0.7733(3) 0.0878(3)
H5_14 H 0.1344 0.7835 0.0788
C12_14 C 0.1181(2) 0.7798(3) 0.1105(3)
C13_14 C 0.1041(3) 0.7649(3) 0.1229(3)
H6_14 H 0.0996 0.7691 0.1384
C14_14 C 0.0961(3) 0.7430(3) 0.1134(3)
H7_14 H 0.0863 0.7327 0.1222
O7_14 O 0.1267(3) 0.8009(3) 0.1179(3)
C15_14 C 0.1208(3) 0.8096(2) 0.1403(3)
H8_14 H 0.1041 0.8144 0.1406
H9_14 H 0.1232 0.7972 0.1523
C16_14 C 0.1362(3) 0.8304(2) 0.1457(3)
C17_14 C 0.1313(2) 0.8446(3) 0.1649(2)
H10_14 H 0.1182 0.8413 0.1747
C18_14 C 0.03460(18) 0.9060(2) 0.36200(19)
C19_14 C 0.36200(19) 0.96540(18) 0.0940(2)
C23_14 C 0.05491(17) 0.9179(2) 0.3504(2)
C24_14 C 0.3504(2) 0.94509(17) 0.0821(2)
C28_14 C 0.06428(17) 0.93734(19) 0.36117(19)
C29_14 C 0.36117(19) 0.93572(17) 0.06266(19)
H11_14 H 0.0579 0.9428 0.3756
H12_14 H 0.3756 0.9421 0.0572
C33_14 C 0.0827(2) 0.94882(17) 0.3512(2)
C34_14 C 0.3512(2) 0.9173(2) 0.05118(17)
C38_14 C 0.0936(2) 0.97000(18) 0.3624(2)
C39_14 C 0.3624(2) 0.9064(2) 0.03000(18)
C43_14 C 0.09191(19) 0.94089(18) 0.33044(19)
C44_14 C 0.33044(19) 0.90809(19) 0.05911(18)
H16_14 H 0.1048 0.9489 0.3235
H17_14 H 0.3235 0.8952 0.0511
C48_14 C 0.0826(2) 0.9215(2) 0.3196(2)
C49_14 C 0.3196(2) 0.9174(2) 0.0785(2)
C53_14 C 0.06422(17) 0.9098(2) 0.32914(19)
C54_14 C 0.32914(19) 0.93578(17) 0.0902(2)
H21_14 H 0.0578 0.8964 0.3216
H22_14 H 0.3216 0.9422 0.1036
N3_14 N 0.0929(2) 0.9141(2) 0.29809(18)
N4_14 N 0.29809(18) 0.9071(2) 0.0859(2)
N8_14 N 0.0802(3) 0.9042(2) 0.2839(2)
N9_14 N 0.2839(2) 0.9198(3) 0.0958(2)
C58_14 C 0.0915(3) 0.89713(19) 0.2623(2)
C59_14 C 0.2623(2) 0.9085(3) 0.10287(19)
C63_14 C 0.0780(3) 0.8828(2) 0.2476(3)
C64_14 C 0.2476(3) 0.9220(3) 0.1172(2)
H26_14 H 0.0625 0.8783 0.2518
H27_14 H 0.2518 0.9375 0.1217
C68_14 C 0.0878(3) 0.8754(3) 0.2267(3)
C69_14 C 0.2267(3) 0.9122(3) 0.1246(3)
H31_14 H 0.0788 0.8656 0.2165
H32_14 H 0.2165 0.9212 0.1344
C73_14 C 0.1105(3) 0.8819(2) 0.2202(3)
C74_14 C 0.2202(3) 0.8895(3) 0.1181(2)
C78_14 C 0.1229(3) 0.8959(3) 0.2351(3)
C79_14 C 0.2351(3) 0.8771(3) 0.1041(3)
H36_14 H 0.1384 0.9004 0.2309
H37_14 H 0.2309 0.8616 0.0996
C83_14 C 0.1134(3) 0.9039(3) 0.2570(3)
C84_14 C 0.2570(3) 0.8866(3) 0.0961(3)
H41_14 H 0.1222 0.9137 0.2673
H42_14 H 0.2673 0.8778 0.0863
O48_14 O 0.1179(3) 0.8733(3) 0.1991(3)
O49_14 O 0.1991(3) 0.8821(3) 0.1267(3)
C88_14 C 0.1403(3) 0.8792(3) 0.1904(2)
C89_14 C 0.1904(2) 0.8597(3) 0.1208(3)
H46_14 H 0.1406 0.8959 0.1856
H47_14 H 0.1856 0.8594 0.1041
H51_14 H 0.1523 0.8768 0.2028
H52_14 H 0.2028 0.8477 0.1232
C93_14 C 0.1457(3) 0.8638(3) 0.1696(2)
C94_14 C 0.1696(2) 0.8543(3) 0.1362(3)
C98_14 C 0.1649(2) 0.8687(2) 0.1554(3)
C99_14 C 0.1554(3) 0.8351(2) 0.1313(2)
H56_14 H 0.1587 0.8253 0.1182
H57_14 H 0.1747 0.8818 0.1587
C1_15 C 0.0940(2) 0.36200(19) 0.96540(18)
C2_15 C 0.0821(2) 0.3504(2) 0.94509(17)
C3_15 C 0.06266(19) 0.36117(19) 0.93572(17)
H1_15 H 0.0572 0.3756 0.9421
C4_15 C 0.05118(17) 0.3512(2) 0.9173(2)
C5_15 C 0.03000(18) 0.3624(2) 0.9064(2)
C6_15 C 0.05911(18) 0.33044(19) 0.90809(19)
H2_15 H 0.0511 0.3235 0.8952
C7_15 C 0.0785(2) 0.3196(2) 0.9174(2)
C8_15 C 0.0902(2) 0.32914(19) 0.93578(17)
H3_15 H 0.1036 0.3216 0.9422
N1_15 N 0.0859(2) 0.29809(18) 0.9071(2)
N2_15 N 0.0958(2) 0.2839(2) 0.9198(3)
C9_15 C 0.10287(19) 0.2623(2) 0.9085(3)
C10_15 C 0.1172(2) 0.2476(3) 0.9220(3)
H4_15 H 0.1217 0.2518 0.9375
C11_15 C 0.1246(3) 0.2267(3) 0.9122(3)
H5_15 H 0.1344 0.2165 0.9212
C12_15 C 0.1181(2) 0.2202(3) 0.8895(3)
C13_15 C 0.1041(3) 0.2351(3) 0.8771(3)
H6_15 H 0.0996 0.2309 0.8616
C14_15 C 0.0961(3) 0.2570(3) 0.8866(3)
H7_15 H 0.0863 0.2673 0.8778
O7_15 O 0.1267(3) 0.1991(3) 0.8821(3)
C15_15 C 0.1208(3) 0.1904(2) 0.8597(3)
H8_15 H 0.1041 0.1856 0.8594
H9_15 H 0.1232 0.2028 0.8477
C16_15 C 0.1362(3) 0.1696(2) 0.8543(3)
C17_15 C 0.1313(2) 0.1554(3) 0.8351(2)
H10_15 H 0.1182 0.1587 0.8253
C18_15 C 0.03460(18) 0.0940(2) 0.63800(19)
C19_15 C 0.36200(19) 0.03460(18) 0.9060(2)
C23_15 C 0.05491(17) 0.0821(2) 0.6496(2)
C24_15 C 0.3504(2) 0.05491(17) 0.9179(2)
C28_15 C 0.06428(17) 0.06266(19) 0.63883(19)
C29_15 C 0.36117(19) 0.06428(17) 0.93734(19)
H11_15 H 0.0579 0.0572 0.6244
H12_15 H 0.3756 0.0579 0.9428
C33_15 C 0.0827(2) 0.05118(17) 0.6488(2)
C34_15 C 0.3512(2) 0.0827(2) 0.94882(17)
C38_15 C 0.0936(2) 0.03000(18) 0.6376(2)
C39_15 C 0.3624(2) 0.0936(2) 0.97000(18)
C43_15 C 0.09191(19) 0.05911(18) 0.66956(19)
C44_15 C 0.33044(19) 0.09191(19) 0.94089(18)
H16_15 H 0.1048 0.0511 0.6765
H17_15 H 0.3235 0.1048 0.9489
C48_15 C 0.0826(2) 0.0785(2) 0.6804(2)
C49_15 C 0.3196(2) 0.0826(2) 0.9215(2)
C53_15 C 0.06422(17) 0.0902(2) 0.67086(19)
C54_15 C 0.32914(19) 0.06422(17) 0.9098(2)
H21_15 H 0.0578 0.1036 0.6784
H22_15 H 0.3216 0.0578 0.8964
N3_15 N 0.0929(2) 0.0859(2) 0.70191(18)
N4_15 N 0.29809(18) 0.0929(2) 0.9141(2)
N8_15 N 0.0802(3) 0.0958(2) 0.7161(2)
N9_15 N 0.2839(2) 0.0802(3) 0.9042(2)
C58_15 C 0.0915(3) 0.10287(19) 0.7377(2)
C59_15 C 0.2623(2) 0.0915(3) 0.89713(19)
C63_15 C 0.0780(3) 0.1172(2) 0.7524(3)
C64_15 C 0.2476(3) 0.0780(3) 0.8828(2)
H26_15 H 0.0625 0.1217 0.7482
H27_15 H 0.2518 0.0625 0.8783
C68_15 C 0.0878(3) 0.1246(3) 0.7733(3)
C69_15 C 0.2267(3) 0.0878(3) 0.8754(3)
H31_15 H 0.0788 0.1344 0.7835
H32_15 H 0.2165 0.0788 0.8656
C73_15 C 0.1105(3) 0.1181(2) 0.7798(3)
C74_15 C 0.2202(3) 0.1105(3) 0.8819(2)
C78_15 C 0.1229(3) 0.1041(3) 0.7649(3)
C79_15 C 0.2351(3) 0.1229(3) 0.8959(3)
H36_15 H 0.1384 0.0996 0.7691
H37_15 H 0.2309 0.1384 0.9004
C83_15 C 0.1134(3) 0.0961(3) 0.7430(3)
C84_15 C 0.2570(3) 0.1134(3) 0.9039(3)
H41_15 H 0.1222 0.0863 0.7327
H42_15 H 0.2673 0.1222 0.9137
O48_15 O 0.1179(3) 0.1267(3) 0.8009(3)
O49_15 O 0.1991(3) 0.1179(3) 0.8733(3)
C88_15 C 0.1403(3) 0.1208(3) 0.8096(2)
C89_15 C 0.1904(2) 0.1403(3) 0.8792(3)
H46_15 H 0.1406 0.1041 0.8144
H47_15 H 0.1856 0.1406 0.8959
H51_15 H 0.1523 0.1232 0.7972
H52_15 H 0.2028 0.1523 0.8768
C93_15 C 0.1457(3) 0.1362(3) 0.8304(2)
C94_15 C 0.1696(2) 0.1457(3) 0.8638(3)
C98_15 C 0.1649(2) 0.1313(2) 0.8446(3)
C99_15 C 0.1554(3) 0.1649(2) 0.8687(2)
H56_15 H 0.1587 0.1747 0.8818
H57_15 H 0.1747 0.1182 0.8413
C1_16 C 0.9060(2) 0.63800(19) 0.96540(18)
C2_16 C 0.9179(2) 0.6496(2) 0.94509(17)
C3_16 C 0.93734(19) 0.63883(19) 0.93572(17)
H1_16 H 0.9428 0.6244 0.9421
C4_16 C 0.94882(17) 0.6488(2) 0.9173(2)
C5_16 C 0.97000(18) 0.6376(2) 0.9064(2)
C6_16 C 0.94089(18) 0.66956(19) 0.90809(19)
H2_16 H 0.9489 0.6765 0.8952
C7_16 C 0.9215(2) 0.6804(2) 0.9174(2)
C8_16 C 0.9098(2) 0.67086(19) 0.93578(17)
H3_16 H 0.8964 0.6784 0.9422
N1_16 N 0.9141(2) 0.70191(18) 0.9071(2)
N2_16 N 0.9042(2) 0.7161(2) 0.9198(3)
C9_16 C 0.89713(19) 0.7377(2) 0.9085(3)
C10_16 C 0.8828(2) 0.7524(3) 0.9220(3)
H4_16 H 0.8783 0.7482 0.9375
C11_16 C 0.8754(3) 0.7733(3) 0.9122(3)
H5_16 H 0.8656 0.7835 0.9212
C12_16 C 0.8819(2) 0.7798(3) 0.8895(3)
C13_16 C 0.8959(3) 0.7649(3) 0.8771(3)
H6_16 H 0.9004 0.7691 0.8616
C14_16 C 0.9039(3) 0.7430(3) 0.8866(3)
H7_16 H 0.9137 0.7327 0.8778
O7_16 O 0.8733(3) 0.8009(3) 0.8821(3)
C15_16 C 0.8792(3) 0.8096(2) 0.8597(3)
H8_16 H 0.8959 0.8144 0.8594
H9_16 H 0.8768 0.7972 0.8477
C16_16 C 0.8638(3) 0.8304(2) 0.8543(3)
C17_16 C 0.8687(2) 0.8446(3) 0.8351(2)
H10_16 H 0.8818 0.8413 0.8253
C18_16 C 0.96540(18) 0.9060(2) 0.63800(19)
C19_16 C 0.63800(19) 0.96540(18) 0.9060(2)
C23_16 C 0.94509(17) 0.9179(2) 0.6496(2)
C24_16 C 0.6496(2) 0.94509(17) 0.9179(2)
C28_16 C 0.93572(17) 0.93734(19) 0.63883(19)
C29_16 C 0.63883(19) 0.93572(17) 0.93734(19)
H11_16 H 0.9421 0.9428 0.6244
H12_16 H 0.6244 0.9421 0.9428
C33_16 C 0.9173(2) 0.94882(17) 0.6488(2)
C34_16 C 0.6488(2) 0.9173(2) 0.94882(17)
C38_16 C 0.9064(2) 0.97000(18) 0.6376(2)
C39_16 C 0.6376(2) 0.9064(2) 0.97000(18)
C43_16 C 0.90809(19) 0.94089(18) 0.66956(19)
C44_16 C 0.66956(19) 0.90809(19) 0.94089(18)
H16_16 H 0.8952 0.9489 0.6765
H17_16 H 0.6765 0.8952 0.9489
C48_16 C 0.9174(2) 0.9215(2) 0.6804(2)
C49_16 C 0.6804(2) 0.9174(2) 0.9215(2)
C53_16 C 0.93578(17) 0.9098(2) 0.67086(19)
C54_16 C 0.67086(19) 0.93578(17) 0.9098(2)
H21_16 H 0.9422 0.8964 0.6784
H22_16 H 0.6784 0.9422 0.8964
N3_16 N 0.9071(2) 0.9141(2) 0.70191(18)
N4_16 N 0.70191(18) 0.9071(2) 0.9141(2)
N8_16 N 0.9198(3) 0.9042(2) 0.7161(2)
N9_16 N 0.7161(2) 0.9198(3) 0.9042(2)
C58_16 C 0.9085(3) 0.89713(19) 0.7377(2)
C59_16 C 0.7377(2) 0.9085(3) 0.89713(19)
C63_16 C 0.9220(3) 0.8828(2) 0.7524(3)
C64_16 C 0.7524(3) 0.9220(3) 0.8828(2)
H26_16 H 0.9375 0.8783 0.7482
H27_16 H 0.7482 0.9375 0.8783
C68_16 C 0.9122(3) 0.8754(3) 0.7733(3)
C69_16 C 0.7733(3) 0.9122(3) 0.8754(3)
H31_16 H 0.9212 0.8656 0.7835
H32_16 H 0.7835 0.9212 0.8656
C73_16 C 0.8895(3) 0.8819(2) 0.7798(3)
C74_16 C 0.7798(3) 0.8895(3) 0.8819(2)
C78_16 C 0.8771(3) 0.8959(3) 0.7649(3)
C79_16 C 0.7649(3) 0.8771(3) 0.8959(3)
H36_16 H 0.8616 0.9004 0.7691
H37_16 H 0.7691 0.8616 0.9004
C83_16 C 0.8866(3) 0.9039(3) 0.7430(3)
C84_16 C 0.7430(3) 0.8866(3) 0.9039(3)
H41_16 H 0.8778 0.9137 0.7327
H42_16 H 0.7327 0.8778 0.9137
O48_16 O 0.8821(3) 0.8733(3) 0.8009(3)
O49_16 O 0.8009(3) 0.8821(3) 0.8733(3)
C88_16 C 0.8597(3) 0.8792(3) 0.8096(2)
C89_16 C 0.8096(2) 0.8597(3) 0.8792(3)
H46_16 H 0.8594 0.8959 0.8144
H47_16 H 0.8144 0.8594 0.8959
H51_16 H 0.8477 0.8768 0.7972
H52_16 H 0.7972 0.8477 0.8768
C93_16 C 0.8543(3) 0.8638(3) 0.8304(2)
C94_16 C 0.8304(2) 0.8543(3) 0.8638(3)
C98_16 C 0.8351(2) 0.8687(2) 0.8446(3)
C99_16 C 0.8446(3) 0.8351(2) 0.8687(2)
H56_16 H 0.8413 0.8253 0.8818
H57_16 H 0.8253 0.8818 0.8413
loop_
_geom_bond_atom_site_label_1
_geom_bond_atom_site_label_2
_geom_bond_site_symmetry_1
_geom_bond_site_symmetry_2
Zn1 O4 1_555 1_555
Zn2 O3 1_555 1_555
O1 C5 1_555 1_555
O2 C5 1_555 1_555
O3 C1 1_555 1_555
O4 C1 1_555 1_555
O5 Zn2 1_555 1_555
O6 Zn1 1_555 1_555
C1 C2 1_555 1_555
C2 C3 1_555 1_555
C3 H1 1_555 1_555
C4 C3 1_555 1_555
C5 C4 1_555 1_555
C6 C4 1_555 1_555
H2 C6 1_555 1_555
C7 C6 1_555 1_555
C8 C2 1_555 1_555
H3 C8 1_555 1_555
N1 C7 1_555 1_555
N2 N1 1_555 1_555
C9 N2 1_555 1_555
C10 C9 1_555 1_555
H4 C10 1_555 1_555
C11 C10 1_555 1_555
H5 C11 1_555 1_555
C12 C11 1_555 1_555
C13 C12 1_555 1_555
H6 C13 1_555 1_555
C14 C9 1_555 1_555
H7 C14 1_555 1_555
O7 C12 1_555 1_555
C15 O7 1_555 1_555
H8 C15 1_555 1_555
H9 C15 1_555 1_555
C16 C15 1_555 1_555
C17 C16 1_555 1_555
H10 C17 1_555 1_555
Zn3 O24 1_555 1_555
Zn4 O26 1_555 1_555
Zn5 O2 1_555 1_555
Zn6 O18 1_555 1_555
Zn7 O19 1_555 1_555
Zn8 O38 1_555 1_555
Zn9 O21 1_555 1_555
Zn10 O40 1_555 1_555
Zn11 O22 1_555 1_555
Zn12 O14 1_555 1_555
Zn13 O16 1_555 1_555
Zn14 O1 1_555 1_555
Zn15 O8 1_555 1_555
Zn16 O9 1_555 1_555
Zn17 O30 1_555 1_555
Zn18 O11 1_555 1_555
Zn19 O32 1_555 1_555
Zn20 O12 1_555 1_555
O8 C38 1_555 1_555
O9 C39 1_555 1_555
O10 Zn2 1_555 1_555
O11 C41 1_555 1_555
O12 C42 1_555 1_555
O13 Zn2 1_555 1_555
O17 Zn13 1_555 1_555
O18 C38 1_555 1_555
O19 C39 1_555 1_555
O20 Zn1 1_555 1_555
O21 C41 1_555 1_555
O22 C42 1_555 1_555
O23 Zn1 1_555 1_555
O27 Zn4 1_555 1_555
O28 Zn12 1_555 1_555
O29 Zn13 1_555 1_555
O30 C20 1_555 1_555
O31 Zn16 1_555 1_555
O32 C22 1_555 1_555
O33 Zn2 1_555 1_555
O35 Zn13 1_555 1_555
O36 Zn3 1_555 1_555
O37 Zn4 1_555 1_555
O38 C20 1_555 1_555
O39 Zn7 1_555 1_555
O40 C22 1_555 1_555
O41 Zn1 1_555 1_555
O43 Zn4 1_555 1_555
O44 Zn12 1_555 1_555
O45 Zn13 1_555 1_555
O46 Zn3 1_555 1_555
O47 Zn4 1_555 1_555
C18 O28 1_555 1_555
C19 O29 1_555 1_555
C20 C25 1_555 1_555
C21 O31 1_555 1_555
C22 C27 1_555 1_555
C23 C18 1_555 1_555
C24 C19 1_555 1_555
C25 C30 1_555 1_555
C26 C21 1_555 1_555
C27 C32 1_555 1_555
C28 C23 1_555 1_555
C29 C24 1_555 1_555
C30 H13 1_555 1_555
C31 C26 1_555 1_555
C32 H15 1_555 1_555
H11 C28 1_555 1_555
H12 C29 1_555 1_555
H14 C31 1_555 1_555
C33 C28 1_555 1_555
C34 C29 1_555 1_555
C35 C30 1_555 1_555
C36 C31 1_555 1_555
C37 C32 1_555 1_555
C38 C33 1_555 1_555
C39 C34 1_555 1_555
C40 O10 1_555 1_555
C41 C36 1_555 1_555
C42 C37 1_555 1_555
C43 C33 1_555 1_555
C44 C34 1_555 1_555
C45 C35 1_555 1_555
C46 C36 1_555 1_555
C47 C37 1_555 1_555
H16 C43 1_555 1_555
H17 C44 1_555 1_555
H18 C45 1_555 1_555
H19 C46 1_555 1_555
H20 C47 1_555 1_555
C48 C43 1_555 1_555
C49 C44 1_555 1_555
C50 C45 1_555 1_555
C51 C46 1_555 1_555
C52 C47 1_555 1_555
C53 C23 1_555 1_555
C54 C24 1_555 1_555
C55 C25 1_555 1_555
C56 C26 1_555 1_555
C57 C27 1_555 1_555
H21 C53 1_555 1_555
H22 C54 1_555 1_555
H23 C55 1_555 1_555
H24 C56 1_555 1_555
H25 C57 1_555 1_555
N3 C48 1_555 1_555
N4 C49 1_555 1_555
N5 C50 1_555 1_555
N6 C51 1_555 1_555
N7 C52 1_555 1_555
N8 N3 1_555 1_555
N9 N4 1_555 1_555
N10 N5 1_555 1_555
N11 N6 1_555 1_555
N12 N7 1_555 1_555
C58 N8 1_555 1_555
C59 N9 1_555 1_555
C60 N10 1_555 1_555
C61 N11 1_555 1_555
C62 N12 1_555 1_555
C63 C58 1_555 1_555
C64 C59 1_555 1_555
C65 C60 1_555 1_555
C66 C61 1_555 1_555
C67 C62 1_555 1_555
H26 C63 1_555 1_555
H27 C64 1_555 1_555
H28 C65 1_555 1_555
H29 C66 1_555 1_555
H30 C67 1_555 1_555
C68 C63 1_555 1_555
C69 C64 1_555 1_555
C70 C65 1_555 1_555
C71 C66 1_555 1_555
C72 C67 1_555 1_555
H31 C68 1_555 1_555
H32 C69 1_555 1_555
H33 C70 1_555 1_555
H34 C71 1_555 1_555
H35 C72 1_555 1_555
C73 C68 1_555 1_555
C74 C69 1_555 1_555
C75 C70 1_555 1_555
C76 C71 1_555 1_555
C77 C72 1_555 1_555
C78 C73 1_555 1_555
C79 C74 1_555 1_555
C80 C75 1_555 1_555
C81 C76 1_555 1_555
C82 C77 1_555 1_555
H36 C78 1_555 1_555
H37 C79 1_555 1_555
H38 C80 1_555 1_555
H39 C81 1_555 1_555
H40 C82 1_555 1_555
C83 C58 1_555 1_555
C84 C59 1_555 1_555
C85 C60 1_555 1_555
C86 C61 1_555 1_555
C87 C62 1_555 1_555
H41 C83 1_555 1_555
H42 C84 1_555 1_555
H43 C85 1_555 1_555
H44 C86 1_555 1_555
H45 C87 1_555 1_555
O48 C73 1_555 1_555
O49 C74 1_555 1_555
O50 C75 1_555 1_555
O51 C76 1_555 1_555
O52 C77 1_555 1_555
C88 O48 1_555 1_555
C89 O49 1_555 1_555
C90 O50 1_555 1_555
C91 O51 1_555 1_555
C92 O52 1_555 1_555
H46 C88 1_555 1_555
H47 C89 1_555 1_555
H48 C90 1_555 1_555
H49 C91 1_555 1_555
H50 C92 1_555 1_555
H51 C88 1_555 1_555
H52 C89 1_555 1_555
H53 C90 1_555 1_555
H54 C91 1_555 1_555
H55 C92 1_555 1_555
C93 C17 1_555 1_555
C94 C89 1_555 1_555
C95 C90 1_555 1_555
C96 C91 1_555 1_555
C97 C92 1_555 1_555
C98 C93 1_555 1_555
C99 C16 1_555 1_555
C100 C95 1_555 1_555
C101 C96 1_555 1_555
C102 C95 1_555 1_555
H56 C99 1_555 1_555
H57 C98 1_555 1_555
H58 C100 1_555 1_555
H59 C102 1_555 1_555
H60 C101 1_555 1_555
C7 C8 1_555 1_555
C13 C14 1_555 1_555
O20 C40 1_555 1_555
O36 C18 1_555 1_555
O37 C19 1_555 1_555
O39 C21 1_555 1_555
C35 C40 1_555 1_555
C48 C53 1_555 1_555
C49 C54 1_555 1_555
C50 C55 1_555 1_555
C51 C56 1_555 1_555
C52 C57 1_555 1_555
C78 C83 1_555 1_555
C79 C84 1_555 1_555
C80 C85 1_555 1_555
C81 C86 1_555 1_555
C82 C87 1_555 1_555
C88 C93 1_555 1_555
C94 C98 1_555 1_555
C94 C99 1_555 1_555
C96 C100 1_555 1_555
C97 C101 1_555 1_555
C97 C102 1_555 1_555
O15 Zn12_2 1_555 1_555
O25 Zn3_2 1_555 1_555
O34 Zn12_2 1_555 1_555
O42 Zn3_2 1_555 1_555
O44_2 Zn12_2 1_555 1_555
O46_2 Zn3_2 1_555 1_555
O15_2 Zn12_3 1_555 1_555
O25_2 Zn3_3 1_555 1_555
O34_2 Zn12_3 1_555 1_555
O42_2 Zn3_3 1_555 1_555
O44_3 Zn12_3 1_555 1_555
O46_3 Zn3_3 1_555 1_555
Zn1_2 O4_2 1_555 1_555
Zn2_2 O3_2 1_555 1_555
O1_2 C5_2 1_555 1_555
O2_2 C5_2 1_555 1_555
O3_2 C1_2 1_555 1_555
O4_2 C1_2 1_555 1_555
O5_2 Zn2_2 1_555 1_555
O6_2 Zn1_2 1_555 1_555
C1_2 C2_2 1_555 1_555
C2_2 C3_2 1_555 1_555
C3_2 H1_2 1_555 1_555
C4_2 C3_2 1_555 1_555
C5_2 C4_2 1_555 1_555
C6_2 C4_2 1_555 1_555
H2_2 C6_2 1_555 1_555
C7_2 C6_2 1_555 1_555
C8_2 C2_2 1_555 1_555
H3_2 C8_2 1_555 1_555
N1_2 C7_2 1_555 1_555
N2_2 N1_2 1_555 1_555
C9_2 N2_2 1_555 1_555
C10_2 C9_2 1_555 1_555
H4_2 C10_2 1_555 1_555
C11_2 C10_2 1_555 1_555
H5_2 C11_2 1_555 1_555
C12_2 C11_2 1_555 1_555
C13_2 C12_2 1_555 1_555
H6_2 C13_2 1_555 1_555
C14_2 C9_2 1_555 1_555
H7_2 C14_2 1_555 1_555
O7_2 C12_2 1_555 1_555
C15_2 O7_2 1_555 1_555
H8_2 C15_2 1_555 1_555
H9_2 C15_2 1_555 1_555
C16_2 C15_2 1_555 1_555
C17_2 C16_2 1_555 1_555
H10_2 C17_2 1_555 1_555
Zn3_4 O24_2 1_555 1_555
Zn4_2 O26_2 1_555 1_555
Zn5_4 O2_2 1_555 1_555
Zn6_2 O18_2 1_555 1_555
Zn7_2 O19_2 1_555 1_555
Zn8_4 O38_2 1_555 1_555
Zn9_2 O21_2 1_555 1_555
Zn10_2 O40_2 1_555 1_555
Zn11_4 O22_2 1_555 1_555
Zn12_4 O14_2 1_555 1_555
Zn13_2 O16_2 1_555 1_555
Zn14_4 O1_2 1_555 1_555
Zn15_2 O8_2 1_555 1_555
Zn16_2 O9_2 1_555 1_555
Zn17_4 O30_2 1_555 1_555
Zn18_2 O11_2 1_555 1_555
Zn19_2 O32_2 1_555 1_555
Zn20_4 O12_2 1_555 1_555
O8_2 C38_2 1_555 1_555
O9_2 C39_2 1_555 1_555
O10_2 Zn2_2 1_555 1_555
O11_2 C41_2 1_555 1_555
O12_2 C42_2 1_555 1_555
O13_2 Zn2_2 1_555 1_555
O17_2 Zn13_2 1_555 1_555
O18_2 C38_2 1_555 1_555
O19_2 C39_2 1_555 1_555
O20_2 Zn1_2 1_555 1_555
O21_2 C41_2 1_555 1_555
O22_2 C42_2 1_555 1_555
O23_2 Zn1_2 1_555 1_555
O27_2 Zn4_2 1_555 1_555
O28_2 Zn12_4 1_555 1_555
O29_2 Zn13_2 1_555 1_555
O30_2 C20_2 1_555 1_555
O31_2 Zn16_2 1_555 1_555
O32_2 C22_2 1_555 1_555
O33_2 Zn2_2 1_555 1_555
O35_2 Zn13_2 1_555 1_555
O36_2 Zn3_4 1_555 1_555
O37_2 Zn4_2 1_555 1_555
O38_2 C20_2 1_555 1_555
O39_2 Zn7_2 1_555 1_555
O40_2 C22_2 1_555 1_555
O41_2 Zn1_2 1_555 1_555
O43_2 Zn4_2 1_555 1_555
O44_4 Zn12_4 1_555 1_555
O45_2 Zn13_2 1_555 1_555
O46_4 Zn3_4 1_555 1_555
O47_2 Zn4_2 1_555 1_555
C18_2 O28_2 1_555 1_555
C19_2 O29_2 1_555 1_555
C20_2 C25_2 1_555 1_555
C21_2 O31_2 1_555 1_555
C22_2 C27_2 1_555 1_555
C23_2 C18_2 1_555 1_555
C24_2 C19_2 1_555 1_555
C25_2 C30_2 1_555 1_555
C26_2 C21_2 1_555 1_555
C27_2 C32_2 1_555 1_555
C28_2 C23_2 1_555 1_555
C29_2 C24_2 1_555 1_555
C30_2 H13_2 1_555 1_555
C31_2 C26_2 1_555 1_555
C32_2 H15_2 1_555 1_555
H11_2 C28_2 1_555 1_555
H12_2 C29_2 1_555 1_555
H14_2 C31_2 1_555 1_555
C33_2 C28_2 1_555 1_555
C34_2 C29_2 1_555 1_555
C35_2 C30_2 1_555 1_555
C36_2 C31_2 1_555 1_555
C37_2 C32_2 1_555 1_555
C38_2 C33_2 1_555 1_555
C39_2 C34_2 1_555 1_555
C40_2 O10_2 1_555 1_555
C41_2 C36_2 1_555 1_555
C42_2 C37_2 1_555 1_555
C43_2 C33_2 1_555 1_555
C44_2 C34_2 1_555 1_555
C45_2 C35_2 1_555 1_555
C46_2 C36_2 1_555 1_555
C47_2 C37_2 1_555 1_555
H16_2 C43_2 1_555 1_555
H17_2 C44_2 1_555 1_555
H18_2 C45_2 1_555 1_555
H19_2 C46_2 1_555 1_555
H20_2 C47_2 1_555 1_555
C48_2 C43_2 1_555 1_555
C49_2 C44_2 1_555 1_555
C50_2 C45_2 1_555 1_555
C51_2 C46_2 1_555 1_555
C52_2 C47_2 1_555 1_555
C53_2 C23_2 1_555 1_555
C54_2 C24_2 1_555 1_555
C55_2 C25_2 1_555 1_555
C56_2 C26_2 1_555 1_555
C57_2 C27_2 1_555 1_555
H21_2 C53_2 1_555 1_555
H22_2 C54_2 1_555 1_555
H23_2 C55_2 1_555 1_555
H24_2 C56_2 1_555 1_555
H25_2 C57_2 1_555 1_555
N3_2 C48_2 1_555 1_555
N4_2 C49_2 1_555 1_555
N5_2 C50_2 1_555 1_555
N6_2 C51_2 1_555 1_555
N7_2 C52_2 1_555 1_555
N8_2 N3_2 1_555 1_555
N9_2 N4_2 1_555 1_555
N10_2 N5_2 1_555 1_555
N11_2 N6_2 1_555 1_555
N12_2 N7_2 1_555 1_555
C58_2 N8_2 1_555 1_555
C59_2 N9_2 1_555 1_555
C60_2 N10_2 1_555 1_555
C61_2 N11_2 1_555 1_555
C62_2 N12_2 1_555 1_555
C63_2 C58_2 1_555 1_555
C64_2 C59_2 1_555 1_555
C65_2 C60_2 1_555 1_555
C66_2 C61_2 1_555 1_555
C67_2 C62_2 1_555 1_555
H26_2 C63_2 1_555 1_555
H27_2 C64_2 1_555 1_555
H28_2 C65_2 1_555 1_555
H29_2 C66_2 1_555 1_555
H30_2 C67_2 1_555 1_555
C68_2 C63_2 1_555 1_555
C69_2 C64_2 1_555 1_555
C70_2 C65_2 1_555 1_555
C71_2 C66_2 1_555 1_555
C72_2 C67_2 1_555 1_555
H31_2 C68_2 1_555 1_555
H32_2 C69_2 1_555 1_555
H33_2 C70_2 1_555 1_555
H34_2 C71_2 1_555 1_555
H35_2 C72_2 1_555 1_555
C73_2 C68_2 1_555 1_555
C74_2 C69_2 1_555 1_555
C75_2 C70_2 1_555 1_555
C76_2 C71_2 1_555 1_555
C77_2 C72_2 1_555 1_555
C78_2 C73_2 1_555 1_555
C79_2 C74_2 1_555 1_555
C80_2 C75_2 1_555 1_555
C81_2 C76_2 1_555 1_555
C82_2 C77_2 1_555 1_555
H36_2 C78_2 1_555 1_555
H37_2 C79_2 1_555 1_555
H38_2 C80_2 1_555 1_555
H39_2 C81_2 1_555 1_555
H40_2 C82_2 1_555 1_555
C83_2 C58_2 1_555 1_555
C84_2 C59_2 1_555 1_555
C85_2 C60_2 1_555 1_555
C86_2 C61_2 1_555 1_555
C87_2 C62_2 1_555 1_555
H41_2 C83_2 1_555 1_555
H42_2 C84_2 1_555 1_555
H43_2 C85_2 1_555 1_555
H44_2 C86_2 1_555 1_555
H45_2 C87_2 1_555 1_555
O48_2 C73_2 1_555 1_555
O49_2 C74_2 1_555 1_555
O50_2 C75_2 1_555 1_555
O51_2 C76_2 1_555 1_555
O52_2 C77_2 1_555 1_555
C88_2 O48_2 1_555 1_555
C89_2 O49_2 1_555 1_555
C90_2 O50_2 1_555 1_555
C91_2 O51_2 1_555 1_555
C92_2 O52_2 1_555 1_555
H46_2 C88_2 1_555 1_555
H47_2 C89_2 1_555 1_555
H48_2 C90_2 1_555 1_555
H49_2 C91_2 1_555 1_555
H50_2 C92_2 1_555 1_555
H51_2 C88_2 1_555 1_555
H52_2 C89_2 1_555 1_555
H53_2 C90_2 1_555 1_555
H54_2 C91_2 1_555 1_555
H55_2 C92_2 1_555 1_555
C93_2 C17_2 1_555 1_555
C94_2 C89_2 1_555 1_555
C95_2 C90_2 1_555 1_555
C96_2 C91_2 1_555 1_555
C97_2 C92_2 1_555 1_555
C98_2 C93_2 1_555 1_555
C99_2 C16_2 1_555 1_555
C100_2 C95_2 1_555 1_555
C101_2 C96_2 1_555 1_555
C102_2 C95_2 1_555 1_555
H56_2 C99_2 1_555 1_555
H57_2 C98_2 1_555 1_555
H58_2 C100_2 1_555 1_555
H59_2 C102_2 1_555 1_555
H60_2 C101_2 1_555 1_555
C7_2 C8_2 1_555 1_555
C13_2 C14_2 1_555 1_555
O20_2 C40_2 1_555 1_555
O36_2 C18_2 1_555 1_555
O37_2 C19_2 1_555 1_555
O39_2 C21_2 1_555 1_555
C35_2 C40_2 1_555 1_555
C48_2 C53_2 1_555 1_555
C49_2 C54_2 1_555 1_555
C50_2 C55_2 1_555 1_555
C51_2 C56_2 1_555 1_555
C52_2 C57_2 1_555 1_555
C78_2 C83_2 1_555 1_555
C79_2 C84_2 1_555 1_555
C80_2 C85_2 1_555 1_555
C81_2 C86_2 1_555 1_555
C82_2 C87_2 1_555 1_555
C88_2 C93_2 1_555 1_555
C94_2 C98_2 1_555 1_555
C94_2 C99_2 1_555 1_555
C96_2 C100_2 1_555 1_555
C97_2 C101_2 1_555 1_555
C97_2 C102_2 1_555 1_555
O15_3 Zn12_5 1_555 1_555
O25_3 Zn3_5 1_555 1_555
O34_3 Zn12_5 1_555 1_555
O42_3 Zn3_5 1_555 1_555
O44_5 Zn12_5 1_555 1_555
O46_5 Zn3_5 1_555 1_555
Zn1_3 O4_3 1_555 1_555
Zn2_3 O3_3 1_555 1_555
O1_3 C5_3 1_555 1_555
O2_3 C5_3 1_555 1_555
O3_3 C1_3 1_555 1_555
O4_3 C1_3 1_555 1_555
O5_3 Zn2_3 1_555 1_555
O6_3 Zn1_3 1_555 1_555
C1_3 C2_3 1_555 1_555
C2_3 C3_3 1_555 1_555
C3_3 H1_3 1_555 1_555
C4_3 C3_3 1_555 1_555
C5_3 C4_3 1_555 1_555
C6_3 C4_3 1_555 1_555
H2_3 C6_3 1_555 1_555
C7_3 C6_3 1_555 1_555
C8_3 C2_3 1_555 1_555
H3_3 C8_3 1_555 1_555
N1_3 C7_3 1_555 1_555
N2_3 N1_3 1_555 1_555
C9_3 N2_3 1_555 1_555
C10_3 C9_3 1_555 1_555
H4_3 C10_3 1_555 1_555
C11_3 C10_3 1_555 1_555
H5_3 C11_3 1_555 1_555
C12_3 C11_3 1_555 1_555
C13_3 C12_3 1_555 1_555
H6_3 C13_3 1_555 1_555
C14_3 C9_3 1_555 1_555
H7_3 C14_3 1_555 1_555
O7_3 C12_3 1_555 1_555
C15_3 O7_3 1_555 1_555
H8_3 C15_3 1_555 1_555
H9_3 C15_3 1_555 1_555
C16_3 C15_3 1_555 1_555
C17_3 C16_3 1_555 1_555
H10_3 C17_3 1_555 1_555
Zn3_6 O24_3 1_555 1_555
Zn4_3 O26_3 1_555 1_555
Zn5_6 O2_3 1_555 1_555
Zn6_3 O18_3 1_555 1_555
Zn7_3 O19_3 1_555 1_555
Zn8_5 O38_3 1_555 1_555
Zn9_3 O21_3 1_555 1_555
Zn10_3 O40_3 1_555 1_555
Zn11_5 O22_3 1_555 1_555
Zn12_6 O14_3 1_555 1_555
Zn13_3 O16_3 1_555 1_555
Zn14_6 O1_3 1_555 1_555
Zn15_3 O8_3 1_555 1_555
Zn16_3 O9_3 1_555 1_555
Zn17_5 O30_3 1_555 1_555
Zn18_3 O11_3 1_555 1_555
Zn19_3 O32_3 1_555 1_555
Zn20_5 O12_3 1_555 1_555
O8_3 C38_3 1_555 1_555
O9_3 C39_3 1_555 1_555
O10_3 Zn2_3 1_555 1_555
O11_3 C41_3 1_555 1_555
O12_3 C42_3 1_555 1_555
O13_3 Zn2_3 1_555 1_555
O17_3 Zn13_3 1_555 1_555
O18_3 C38_3 1_555 1_555
O19_3 C39_3 1_555 1_555
O20_3 Zn1_3 1_555 1_555
O21_3 C41_3 1_555 1_555
O22_3 C42_3 1_555 1_555
O23_3 Zn1_3 1_555 1_555
O27_3 Zn4_3 1_555 1_555
O28_3 Zn12_6 1_555 1_555
O29_3 Zn13_3 1_555 1_555
O30_3 C20_3 1_555 1_555
O31_3 Zn16_3 1_555 1_555
O32_3 C22_3 1_555 1_555
O33_3 Zn2_3 1_555 1_555
O35_3 Zn13_3 1_555 1_555
O36_3 Zn3_6 1_555 1_555
O37_3 Zn4_3 1_555 1_555
O38_3 C20_3 1_555 1_555
O39_3 Zn7_3 1_555 1_555
O40_3 C22_3 1_555 1_555
O41_3 Zn1_3 1_555 1_555
O43_3 Zn4_3 1_555 1_555
O44_6 Zn12_6 1_555 1_555
O45_3 Zn13_3 1_555 1_555
O46_6 Zn3_6 1_555 1_555
O47_3 Zn4_3 1_555 1_555
C18_3 O28_3 1_555 1_555
C19_3 O29_3 1_555 1_555
C20_3 C25_3 1_555 1_555
C21_3 O31_3 1_555 1_555
C22_3 C27_3 1_555 1_555
C23_3 C18_3 1_555 1_555
C24_3 C19_3 1_555 1_555
C25_3 C30_3 1_555 1_555
C26_3 C21_3 1_555 1_555
C27_3 C32_3 1_555 1_555
C28_3 C23_3 1_555 1_555
C29_3 C24_3 1_555 1_555
C30_3 H13_3 1_555 1_555
C31_3 C26_3 1_555 1_555
C32_3 H15_3 1_555 1_555
H11_3 C28_3 1_555 1_555
H12_3 C29_3 1_555 1_555
H14_3 C31_3 1_555 1_555
C33_3 C28_3 1_555 1_555
C34_3 C29_3 1_555 1_555
C35_3 C30_3 1_555 1_555
C36_3 C31_3 1_555 1_555
C37_3 C32_3 1_555 1_555
C38_3 C33_3 1_555 1_555
C39_3 C34_3 1_555 1_555
C40_3 O10_3 1_555 1_555
C41_3 C36_3 1_555 1_555
C42_3 C37_3 1_555 1_555
C43_3 C33_3 1_555 1_555
C44_3 C34_3 1_555 1_555
C45_3 C35_3 1_555 1_555
C46_3 C36_3 1_555 1_555
C47_3 C37_3 1_555 1_555
H16_3 C43_3 1_555 1_555
H17_3 C44_3 1_555 1_555
H18_3 C45_3 1_555 1_555
H19_3 C46_3 1_555 1_555
H20_3 C47_3 1_555 1_555
C48_3 C43_3 1_555 1_555
C49_3 C44_3 1_555 1_555
C50_3 C45_3 1_555 1_555
C51_3 C46_3 1_555 1_555
C52_3 C47_3 1_555 1_555
C53_3 C23_3 1_555 1_555
C54_3 C24_3 1_555 1_555
C55_3 C25_3 1_555 1_555
C56_3 C26_3 1_555 1_555
C57_3 C27_3 1_555 1_555
H21_3 C53_3 1_555 1_555
H22_3 C54_3 1_555 1_555
H23_3 C55_3 1_555 1_555
H24_3 C56_3 1_555 1_555
H25_3 C57_3 1_555 1_555
N3_3 C48_3 1_555 1_555
N4_3 C49_3 1_555 1_555
N5_3 C50_3 1_555 1_555
N6_3 C51_3 1_555 1_555
N7_3 C52_3 1_555 1_555
N8_3 N3_3 1_555 1_555
N9_3 N4_3 1_555 1_555
N10_3 N5_3 1_555 1_555
N11_3 N6_3 1_555 1_555
N12_3 N7_3 1_555 1_555
C58_3 N8_3 1_555 1_555
C59_3 N9_3 1_555 1_555
C60_3 N10_3 1_555 1_555
C61_3 N11_3 1_555 1_555
C62_3 N12_3 1_555 1_555
C63_3 C58_3 1_555 1_555
C64_3 C59_3 1_555 1_555
C65_3 C60_3 1_555 1_555
C66_3 C61_3 1_555 1_555
C67_3 C62_3 1_555 1_555
H26_3 C63_3 1_555 1_555
H27_3 C64_3 1_555 1_555
H28_3 C65_3 1_555 1_555
H29_3 C66_3 1_555 1_555
H30_3 C67_3 1_555 1_555
C68_3 C63_3 1_555 1_555
C69_3 C64_3 1_555 1_555
C70_3 C65_3 1_555 1_555
C71_3 C66_3 1_555 1_555
C72_3 C67_3 1_555 1_555
H31_3 C68_3 1_555 1_555
H32_3 C69_3 1_555 1_555
H33_3 C70_3 1_555 1_555
H34_3 C71_3 1_555 1_555
H35_3 C72_3 1_555 1_555
C73_3 C68_3 1_555 1_555
C74_3 C69_3 1_555 1_555
C75_3 C70_3 1_555 1_555
C76_3 C71_3 1_555 1_555
C77_3 C72_3 1_555 1_555
C78_3 C73_3 1_555 1_555
C79_3 C74_3 1_555 1_555
C80_3 C75_3 1_555 1_555
C81_3 C76_3 1_555 1_555
C82_3 C77_3 1_555 1_555
H36_3 C78_3 1_555 1_555
H37_3 C79_3 1_555 1_555
H38_3 C80_3 1_555 1_555
H39_3 C81_3 1_555 1_555
H40_3 C82_3 1_555 1_555
C83_3 C58_3 1_555 1_555
C84_3 C59_3 1_555 1_555
C85_3 C60_3 1_555 1_555
C86_3 C61_3 1_555 1_555
C87_3 C62_3 1_555 1_555
H41_3 C83_3 1_555 1_555
H42_3 C84_3 1_555 1_555
H43_3 C85_3 1_555 1_555
H44_3 C86_3 1_555 1_555
H45_3 C87_3 1_555 1_555
O48_3 C73_3 1_555 1_555
O49_3 C74_3 1_555 1_555
O50_3 C75_3 1_555 1_555
O51_3 C76_3 1_555 1_555
O52_3 C77_3 1_555 1_555
C88_3 O48_3 1_555 1_555
C89_3 O49_3 1_555 1_555
C90_3 O50_3 1_555 1_555
C91_3 O51_3 1_555 1_555
C92_3 O52_3 1_555 1_555
H46_3 C88_3 1_555 1_555
H47_3 C89_3 1_555 1_555
H48_3 C90_3 1_555 1_555
H49_3 C91_3 1_555 1_555
H50_3 C92_3 1_555 1_555
H51_3 C88_3 1_555 1_555
H52_3 C89_3 1_555 1_555
H53_3 C90_3 1_555 1_555
H54_3 C91_3 1_555 1_555
H55_3 C92_3 1_555 1_555
C93_3 C17_3 1_555 1_555
C94_3 C89_3 1_555 1_555
C95_3 C90_3 1_555 1_555
C96_3 C91_3 1_555 1_555
C97_3 C92_3 1_555 1_555
C98_3 C93_3 1_555 1_555
C99_3 C16_3 1_555 1_555
C100_3 C95_3 1_555 1_555
C101_3 C96_3 1_555 1_555
C102_3 C95_3 1_555 1_555
H56_3 C99_3 1_555 1_555
H57_3 C98_3 1_555 1_555
H58_3 C100_3 1_555 1_555
H59_3 C102_3 1_555 1_555
H60_3 C101_3 1_555 1_555
C7_3 C8_3 1_555 1_555
C13_3 C14_3 1_555 1_555
O20_3 C40_3 1_555 1_555
O36_3 C18_3 1_555 1_555
O37_3 C19_3 1_555 1_555
O39_3 C21_3 1_555 1_555
C35_3 C40_3 1_555 1_555
C48_3 C53_3 1_555 1_555
C49_3 C54_3 1_555 1_555
C50_3 C55_3 1_555 1_555
C51_3 C56_3 1_555 1_555
C52_3 C57_3 1_555 1_555
C78_3 C83_3 1_555 1_555
C79_3 C84_3 1_555 1_555
C80_3 C85_3 1_555 1_555
C81_3 C86_3 1_555 1_555
C82_3 C87_3 1_555 1_555
C88_3 C93_3 1_555 1_555
C94_3 C98_3 1_555 1_555
C94_3 C99_3 1_555 1_555
C96_3 C100_3 1_555 1_555
C97_3 C101_3 1_555 1_555
C97_3 C102_3 1_555 1_555
Zn1_4 O4_4 1_555 1_555
Zn2_4 O3_4 1_555 1_555
O1_4 C5_4 1_555 1_555
O2_4 C5_4 1_555 1_555
O3_4 C1_4 1_555 1_555
O4_4 C1_4 1_555 1_555
O5_4 Zn2_4 1_555 1_555
O6_4 Zn1_4 1_555 1_555
C1_4 C2_4 1_555 1_555
C2_4 C3_4 1_555 1_555
C3_4 H1_4 1_555 1_555
C4_4 C3_4 1_555 1_555
C5_4 C4_4 1_555 1_555
C6_4 C4_4 1_555 1_555
H2_4 C6_4 1_555 1_555
C7_4 C6_4 1_555 1_555
C8_4 C2_4 1_555 1_555
H3_4 C8_4 1_555 1_555
N1_4 C7_4 1_555 1_555
N2_4 N1_4 1_555 1_555
C9_4 N2_4 1_555 1_555
C10_4 C9_4 1_555 1_555
H4_4 C10_4 1_555 1_555
C11_4 C10_4 1_555 1_555
H5_4 C11_4 1_555 1_555
C12_4 C11_4 1_555 1_555
C13_4 C12_4 1_555 1_555
H6_4 C13_4 1_555 1_555
C14_4 C9_4 1_555 1_555
H7_4 C14_4 1_555 1_555
O7_4 C12_4 1_555 1_555
C15_4 O7_4 1_555 1_555
H8_4 C15_4 1_555 1_555
H9_4 C15_4 1_555 1_555
C16_4 C15_4 1_555 1_555
C17_4 C16_4 1_555 1_555
H10_4 C17_4 1_555 1_555
Zn3_7 O24_4 1_555 1_555
Zn4_4 O26_4 1_555 1_555
Zn5_7 O2_4 1_555 1_555
Zn6_4 O18_4 1_555 1_555
Zn7_4 O19_4 1_555 1_555
Zn8_8 O38_4 1_555 1_555
Zn9_4 O21_4 1_555 1_555
Zn10_4 O40_4 1_555 1_555
Zn11_8 O22_4 1_555 1_555
Zn12_7 O14_4 1_555 1_555
Zn13_4 O16_4 1_555 1_555
Zn14_7 O1_4 1_555 1_555
Zn15_4 O8_4 1_555 1_555
Zn16_4 O9_4 1_555 1_555
Zn17_8 O30_4 1_555 1_555
Zn18_4 O11_4 1_555 1_555
Zn19_4 O32_4 1_555 1_555
Zn20_8 O12_4 1_555 1_555
O8_4 C38_4 1_555 1_555
O9_4 C39_4 1_555 1_555
O10_4 Zn2_4 1_555 1_555
O11_4 C41_4 1_555 1_555
O12_4 C42_4 1_555 1_555
O13_4 Zn2_4 1_555 1_555
O17_4 Zn13_4 1_555 1_555
O18_4 C38_4 1_555 1_555
O19_4 C39_4 1_555 1_555
O20_4 Zn1_4 1_555 1_555
O21_4 C41_4 1_555 1_555
O22_4 C42_4 1_555 1_555
O23_4 Zn1_4 1_555 1_555
O27_4 Zn4_4 1_555 1_555
O28_4 Zn12_7 1_555 1_555
O29_4 Zn13_4 1_555 1_555
O30_4 C20_4 1_555 1_555
O31_4 Zn16_4 1_555 1_555
O32_4 C22_4 1_555 1_555
O33_4 Zn2_4 1_555 1_555
O35_4 Zn13_4 1_555 1_555
O36_4 Zn3_7 1_555 1_555
O37_4 Zn4_4 1_555 1_555
O38_4 C20_4 1_555 1_555
O39_4 Zn7_4 1_555 1_555
O40_4 C22_4 1_555 1_555
O41_4 Zn1_4 1_555 1_555
O43_4 Zn4_4 1_555 1_555
O44_7 Zn12_7 1_555 1_555
O45_4 Zn13_4 1_555 1_555
O46_7 Zn3_7 1_555 1_555
O47_4 Zn4_4 1_555 1_555
C18_4 O28_4 1_555 1_555
C19_4 O29_4 1_555 1_555
C20_4 C25_4 1_555 1_555
C21_4 O31_4 1_555 1_555
C22_4 C27_4 1_555 1_555
C23_4 C18_4 1_555 1_555
C24_4 C19_4 1_555 1_555
C25_4 C30_4 1_555 1_555
C26_4 C21_4 1_555 1_555
C27_4 C32_4 1_555 1_555
C28_4 C23_4 1_555 1_555
C29_4 C24_4 1_555 1_555
C30_4 H13_4 1_555 1_555
C31_4 C26_4 1_555 1_555
C32_4 H15_4 1_555 1_555
H11_4 C28_4 1_555 1_555
H12_4 C29_4 1_555 1_555
H14_4 C31_4 1_555 1_555
C33_4 C28_4 1_555 1_555
C34_4 C29_4 1_555 1_555
C35_4 C30_4 1_555 1_555
C36_4 C31_4 1_555 1_555
C37_4 C32_4 1_555 1_555
C38_4 C33_4 1_555 1_555
C39_4 C34_4 1_555 1_555
C40_4 O10_4 1_555 1_555
C41_4 C36_4 1_555 1_555
C42_4 C37_4 1_555 1_555
C43_4 C33_4 1_555 1_555
C44_4 C34_4 1_555 1_555
C45_4 C35_4 1_555 1_555
C46_4 C36_4 1_555 1_555
C47_4 C37_4 1_555 1_555
H16_4 C43_4 1_555 1_555
H17_4 C44_4 1_555 1_555
H18_4 C45_4 1_555 1_555
H19_4 C46_4 1_555 1_555
H20_4 C47_4 1_555 1_555
C48_4 C43_4 1_555 1_555
C49_4 C44_4 1_555 1_555
C50_4 C45_4 1_555 1_555
C51_4 C46_4 1_555 1_555
C52_4 C47_4 1_555 1_555
C53_4 C23_4 1_555 1_555
C54_4 C24_4 1_555 1_555
C55_4 C25_4 1_555 1_555
C56_4 C26_4 1_555 1_555
C57_4 C27_4 1_555 1_555
H21_4 C53_4 1_555 1_555
H22_4 C54_4 1_555 1_555
H23_4 C55_4 1_555 1_555
H24_4 C56_4 1_555 1_555
H25_4 C57_4 1_555 1_555
N3_4 C48_4 1_555 1_555
N4_4 C49_4 1_555 1_555
N5_4 C50_4 1_555 1_555
N6_4 C51_4 1_555 1_555
N7_4 C52_4 1_555 1_555
N8_4 N3_4 1_555 1_555
N9_4 N4_4 1_555 1_555
N10_4 N5_4 1_555 1_555
N11_4 N6_4 1_555 1_555
N12_4 N7_4 1_555 1_555
C58_4 N8_4 1_555 1_555
C59_4 N9_4 1_555 1_555
C60_4 N10_4 1_555 1_555
C61_4 N11_4 1_555 1_555
C62_4 N12_4 1_555 1_555
C63_4 C58_4 1_555 1_555
C64_4 C59_4 1_555 1_555
C65_4 C60_4 1_555 1_555
C66_4 C61_4 1_555 1_555
C67_4 C62_4 1_555 1_555
H26_4 C63_4 1_555 1_555
H27_4 C64_4 1_555 1_555
H28_4 C65_4 1_555 1_555
H29_4 C66_4 1_555 1_555
H30_4 C67_4 1_555 1_555
C68_4 C63_4 1_555 1_555
C69_4 C64_4 1_555 1_555
C70_4 C65_4 1_555 1_555
C71_4 C66_4 1_555 1_555
C72_4 C67_4 1_555 1_555
H31_4 C68_4 1_555 1_555
H32_4 C69_4 1_555 1_555
H33_4 C70_4 1_555 1_555
H34_4 C71_4 1_555 1_555
H35_4 C72_4 1_555 1_555
C73_4 C68_4 1_555 1_555
C74_4 C69_4 1_555 1_555
C75_4 C70_4 1_555 1_555
C76_4 C71_4 1_555 1_555
C77_4 C72_4 1_555 1_555
C78_4 C73_4 1_555 1_555
C79_4 C74_4 1_555 1_555
C80_4 C75_4 1_555 1_555
C81_4 C76_4 1_555 1_555
C82_4 C77_4 1_555 1_555
H36_4 C78_4 1_555 1_555
H37_4 C79_4 1_555 1_555
H38_4 C80_4 1_555 1_555
H39_4 C81_4 1_555 1_555
H40_4 C82_4 1_555 1_555
C83_4 C58_4 1_555 1_555
C84_4 C59_4 1_555 1_555
C85_4 C60_4 1_555 1_555
C86_4 C61_4 1_555 1_555
C87_4 C62_4 1_555 1_555
H41_4 C83_4 1_555 1_555
H42_4 C84_4 1_555 1_555
H43_4 C85_4 1_555 1_555
H44_4 C86_4 1_555 1_555
H45_4 C87_4 1_555 1_555
O48_4 C73_4 1_555 1_555
O49_4 C74_4 1_555 1_555
O50_4 C75_4 1_555 1_555
O51_4 C76_4 1_555 1_555
O52_4 C77_4 1_555 1_555
C88_4 O48_4 1_555 1_555
C89_4 O49_4 1_555 1_555
C90_4 O50_4 1_555 1_555
C91_4 O51_4 1_555 1_555
C92_4 O52_4 1_555 1_555
H46_4 C88_4 1_555 1_555
H47_4 C89_4 1_555 1_555
H48_4 C90_4 1_555 1_555
H49_4 C91_4 1_555 1_555
H50_4 C92_4 1_555 1_555
H51_4 C88_4 1_555 1_555
H52_4 C89_4 1_555 1_555
H53_4 C90_4 1_555 1_555
H54_4 C91_4 1_555 1_555
H55_4 C92_4 1_555 1_555
C93_4 C17_4 1_555 1_555
C94_4 C89_4 1_555 1_555
C95_4 C90_4 1_555 1_555
C96_4 C91_4 1_555 1_555
C97_4 C92_4 1_555 1_555
C98_4 C93_4 1_555 1_555
C99_4 C16_4 1_555 1_555
C100_4 C95_4 1_555 1_555
C101_4 C96_4 1_555 1_555
C102_4 C95_4 1_555 1_555
H56_4 C99_4 1_555 1_555
H57_4 C98_4 1_555 1_555
H58_4 C100_4 1_555 1_555
H59_4 C102_4 1_555 1_555
H60_4 C101_4 1_555 1_555
C7_4 C8_4 1_555 1_555
C13_4 C14_4 1_555 1_555
O20_4 C40_4 1_555 1_555
O36_4 C18_4 1_555 1_555
O37_4 C19_4 1_555 1_555
O39_4 C21_4 1_555 1_555
C35_4 C40_4 1_555 1_555
C48_4 C53_4 1_555 1_555
C49_4 C54_4 1_555 1_555
C50_4 C55_4 1_555 1_555
C51_4 C56_4 1_555 1_555
C52_4 C57_4 1_555 1_555
C78_4 C83_4 1_555 1_555
C79_4 C84_4 1_555 1_555
C80_4 C85_4 1_555 1_555
C81_4 C86_4 1_555 1_555
C82_4 C87_4 1_555 1_555
C88_4 C93_4 1_555 1_555
C94_4 C98_4 1_555 1_555
C94_4 C99_4 1_555 1_555
C96_4 C100_4 1_555 1_555
C97_4 C101_4 1_555 1_555
C97_4 C102_4 1_555 1_555
O15_4 Zn12_8 1_555 1_555
O25_4 Zn3_8 1_555 1_555
O34_4 Zn12_8 1_555 1_555
O42_4 Zn3_8 1_555 1_555
O44_8 Zn12_8 1_555 1_555
O46_8 Zn3_8 1_555 1_555
O5_5 Zn19 1_555 1_555
O6_5 Zn10 1_555 1_555
Zn8 O24_5 1_555 1_555
Zn8_9 O38_5 1_555 1_555
Zn6 O40_5 1_555 1_555
Zn11_9 O22_5 1_555 1_555
Zn17 O14_5 1_555 1_555
Zn17_9 O30_5 1_555 1_555
Zn15 O32_5 1_555 1_555
Zn20_9 O12_5 1_555 1_555
O10_5 Zn19 1_555 1_555
O16 C41_5 1_555 1_555
O12_5 C42_5 1_555 1_555
O13_5 Zn19 1_555 1_555
O17_5 Zn16 1_555 1_555
O20_5 Zn10 1_555 1_555
O26 C41_5 1_555 1_555
O22_5 C42_5 1_555 1_555
O23_5 Zn10 1_555 1_555
O27_5 Zn7 1_555 1_555
O30_5 C20_5 1_555 1_555
O31_5 Zn18 1_555 1_555
O32_5 C22_5 1_555 1_555
O33_5 Zn19 1_555 1_555
O35_5 Zn16 1_555 1_555
O38_5 C20_5 1_555 1_555
O39_5 Zn9 1_555 1_555
O40_5 C22_5 1_555 1_555
O41_5 Zn10 1_555 1_555
O43_5 Zn7 1_555 1_555
O44_9 Zn17 1_555 1_555
O45_5 Zn16 1_555 1_555
O46_9 Zn8 1_555 1_555
O47_5 Zn7 1_555 1_555
C20_5 C25_5 1_555 1_555
C21_5 O31_5 1_555 1_555
C22_5 C27_5 1_555 1_555
C25_5 C30_5 1_555 1_555
C26_5 C21_5 1_555 1_555
C27_5 C32_5 1_555 1_555
C30_5 H13_5 1_555 1_555
C31_5 C26_5 1_555 1_555
C32_5 H15_5 1_555 1_555
H14_5 C31_5 1_555 1_555
C35_5 C30_5 1_555 1_555
C36_5 C31_5 1_555 1_555
C37_5 C32_5 1_555 1_555
C40_5 O10_5 1_555 1_555
C41_5 C36_5 1_555 1_555
C42_5 C37_5 1_555 1_555
C45_5 C35_5 1_555 1_555
C46_5 C36_5 1_555 1_555
C47_5 C37_5 1_555 1_555
H18_5 C45_5 1_555 1_555
H19_5 C46_5 1_555 1_555
H20_5 C47_5 1_555 1_555
C50_5 C45_5 1_555 1_555
C51_5 C46_5 1_555 1_555
C52_5 C47_5 1_555 1_555
C55_5 C25_5 1_555 1_555
C56_5 C26_5 1_555 1_555
C57_5 C27_5 1_555 1_555
H23_5 C55_5 1_555 1_555
H24_5 C56_5 1_555 1_555
H25_5 C57_5 1_555 1_555
N5_5 C50_5 1_555 1_555
N6_5 C51_5 1_555 1_555
N7_5 C52_5 1_555 1_555
N10_5 N5_5 1_555 1_555
N11_5 N6_5 1_555 1_555
N12_5 N7_5 1_555 1_555
C60_5 N10_5 1_555 1_555
C61_5 N11_5 1_555 1_555
C62_5 N12_5 1_555 1_555
C65_5 C60_5 1_555 1_555
C66_5 C61_5 1_555 1_555
C67_5 C62_5 1_555 1_555
H28_5 C65_5 1_555 1_555
H29_5 C66_5 1_555 1_555
H30_5 C67_5 1_555 1_555
C70_5 C65_5 1_555 1_555
C71_5 C66_5 1_555 1_555
C72_5 C67_5 1_555 1_555
H33_5 C70_5 1_555 1_555
H34_5 C71_5 1_555 1_555
H35_5 C72_5 1_555 1_555
C75_5 C70_5 1_555 1_555
C76_5 C71_5 1_555 1_555
C77_5 C72_5 1_555 1_555
C80_5 C75_5 1_555 1_555
C81_5 C76_5 1_555 1_555
C82_5 C77_5 1_555 1_555
H38_5 C80_5 1_555 1_555
H39_5 C81_5 1_555 1_555
H40_5 C82_5 1_555 1_555
C85_5 C60_5 1_555 1_555
C86_5 C61_5 1_555 1_555
C87_5 C62_5 1_555 1_555
H43_5 C85_5 1_555 1_555
H44_5 C86_5 1_555 1_555
H45_5 C87_5 1_555 1_555
O50_5 C75_5 1_555 1_555
O51_5 C76_5 1_555 1_555
O52_5 C77_5 1_555 1_555
C90_5 O50_5 1_555 1_555
C91_5 O51_5 1_555 1_555
C92_5 O52_5 1_555 1_555
H48_5 C90_5 1_555 1_555
H49_5 C91_5 1_555 1_555
H50_5 C92_5 1_555 1_555
H53_5 C90_5 1_555 1_555
H54_5 C91_5 1_555 1_555
H55_5 C92_5 1_555 1_555
C95_5 C90_5 1_555 1_555
C96_5 C91_5 1_555 1_555
C97_5 C92_5 1_555 1_555
C100_5 C95_5 1_555 1_555
C101_5 C96_5 1_555 1_555
C102_5 C95_5 1_555 1_555
H58_5 C100_5 1_555 1_555
H59_5 C102_5 1_555 1_555
H60_5 C101_5 1_555 1_555
O20_5 C40_5 1_555 1_555
O39_5 C21_5 1_555 1_555
C35_5 C40_5 1_555 1_555
C50_5 C55_5 1_555 1_555
C51_5 C56_5 1_555 1_555
C52_5 C57_5 1_555 1_555
C80_5 C85_5 1_555 1_555
C81_5 C86_5 1_555 1_555
C82_5 C87_5 1_555 1_555
C96_5 C100_5 1_555 1_555
C97_5 C101_5 1_555 1_555
C97_5 C102_5 1_555 1_555
O15_5 Zn17_2 1_555 1_555
O25_5 Zn8_2 1_555 1_555
O34_5 Zn17_2 1_555 1_555
O42_5 Zn8_2 1_555 1_555
O44_10 Zn17_2 1_555 1_555
O46_10 Zn8_2 1_555 1_555
O15_6 Zn17_7 1_555 1_555
O25_6 Zn8_7 1_555 1_555
O34_6 Zn17_7 1_555 1_555
O42_6 Zn8_7 1_555 1_555
O44_11 Zn17_7 1_555 1_555
O46_11 Zn8_7 1_555 1_555
O5_6 Zn19_4 1_555 1_555
O6_6 Zn10_4 1_555 1_555
Zn8_8 O24_6 1_555 1_555
Zn8_12 O38_6 1_555 1_555
Zn6_4 O40_6 1_555 1_555
Zn11_12 O22_6 1_555 1_555
Zn17_8 O14_6 1_555 1_555
Zn17_12 O30_6 1_555 1_555
Zn15_4 O32_6 1_555 1_555
Zn20_12 O12_6 1_555 1_555
O10_6 Zn19_4 1_555 1_555
O16_4 C41_6 1_555 1_555
O12_6 C42_6 1_555 1_555
O13_6 Zn19_4 1_555 1_555
O17_6 Zn16_4 1_555 1_555
O20_6 Zn10_4 1_555 1_555
O26_4 C41_6 1_555 1_555
O22_6 C42_6 1_555 1_555
O23_6 Zn10_4 1_555 1_555
O27_6 Zn7_4 1_555 1_555
O30_6 C20_6 1_555 1_555
O31_6 Zn18_4 1_555 1_555
O32_6 C22_6 1_555 1_555
O33_6 Zn19_4 1_555 1_555
O35_6 Zn16_4 1_555 1_555
O38_6 C20_6 1_555 1_555
O39_6 Zn9_4 1_555 1_555
O40_6 C22_6 1_555 1_555
O41_6 Zn10_4 1_555 1_555
O43_6 Zn7_4 1_555 1_555
O44_12 Zn17_8 1_555 1_555
O45_6 Zn16_4 1_555 1_555
O46_12 Zn8_8 1_555 1_555
O47_6 Zn7_4 1_555 1_555
C20_6 C25_6 1_555 1_555
C21_6 O31_6 1_555 1_555
C22_6 C27_6 1_555 1_555
C25_6 C30_6 1_555 1_555
C26_6 C21_6 1_555 1_555
C27_6 C32_6 1_555 1_555
C30_6 H13_6 1_555 1_555
C31_6 C26_6 1_555 1_555
C32_6 H15_6 1_555 1_555
H14_6 C31_6 1_555 1_555
C35_6 C30_6 1_555 1_555
C36_6 C31_6 1_555 1_555
C37_6 C32_6 1_555 1_555
C40_6 O10_6 1_555 1_555
C41_6 C36_6 1_555 1_555
C42_6 C37_6 1_555 1_555
C45_6 C35_6 1_555 1_555
C46_6 C36_6 1_555 1_555
C47_6 C37_6 1_555 1_555
H18_6 C45_6 1_555 1_555
H19_6 C46_6 1_555 1_555
H20_6 C47_6 1_555 1_555
C50_6 C45_6 1_555 1_555
C51_6 C46_6 1_555 1_555
C52_6 C47_6 1_555 1_555
C55_6 C25_6 1_555 1_555
C56_6 C26_6 1_555 1_555
C57_6 C27_6 1_555 1_555
H23_6 C55_6 1_555 1_555
H24_6 C56_6 1_555 1_555
H25_6 C57_6 1_555 1_555
N5_6 C50_6 1_555 1_555
N6_6 C51_6 1_555 1_555
N7_6 C52_6 1_555 1_555
N10_6 N5_6 1_555 1_555
N11_6 N6_6 1_555 1_555
N12_6 N7_6 1_555 1_555
C60_6 N10_6 1_555 1_555
C61_6 N11_6 1_555 1_555
C62_6 N12_6 1_555 1_555
C65_6 C60_6 1_555 1_555
C66_6 C61_6 1_555 1_555
C67_6 C62_6 1_555 1_555
H28_6 C65_6 1_555 1_555
H29_6 C66_6 1_555 1_555
H30_6 C67_6 1_555 1_555
C70_6 C65_6 1_555 1_555
C71_6 C66_6 1_555 1_555
C72_6 C67_6 1_555 1_555
H33_6 C70_6 1_555 1_555
H34_6 C71_6 1_555 1_555
H35_6 C72_6 1_555 1_555
C75_6 C70_6 1_555 1_555
C76_6 C71_6 1_555 1_555
C77_6 C72_6 1_555 1_555
C80_6 C75_6 1_555 1_555
C81_6 C76_6 1_555 1_555
C82_6 C77_6 1_555 1_555
H38_6 C80_6 1_555 1_555
H39_6 C81_6 1_555 1_555
H40_6 C82_6 1_555 1_555
C85_6 C60_6 1_555 1_555
C86_6 C61_6 1_555 1_555
C87_6 C62_6 1_555 1_555
H43_6 C85_6 1_555 1_555
H44_6 C86_6 1_555 1_555
H45_6 C87_6 1_555 1_555
O50_6 C75_6 1_555 1_555
O51_6 C76_6 1_555 1_555
O52_6 C77_6 1_555 1_555
C90_6 O50_6 1_555 1_555
C91_6 O51_6 1_555 1_555
C92_6 O52_6 1_555 1_555
H48_6 C90_6 1_555 1_555
H49_6 C91_6 1_555 1_555
H50_6 C92_6 1_555 1_555
H53_6 C90_6 1_555 1_555
H54_6 C91_6 1_555 1_555
H55_6 C92_6 1_555 1_555
C95_6 C90_6 1_555 1_555
C96_6 C91_6 1_555 1_555
C97_6 C92_6 1_555 1_555
C100_6 C95_6 1_555 1_555
C101_6 C96_6 1_555 1_555
C102_6 C95_6 1_555 1_555
H58_6 C100_6 1_555 1_555
H59_6 C102_6 1_555 1_555
H60_6 C101_6 1_555 1_555
O20_6 C40_6 1_555 1_555
O39_6 C21_6 1_555 1_555
C35_6 C40_6 1_555 1_555
C50_6 C55_6 1_555 1_555
C51_6 C56_6 1_555 1_555
C52_6 C57_6 1_555 1_555
C80_6 C85_6 1_555 1_555
C81_6 C86_6 1_555 1_555
C82_6 C87_6 1_555 1_555
C96_6 C100_6 1_555 1_555
C97_6 C101_6 1_555 1_555
C97_6 C102_6 1_555 1_555
O15_7 Zn17_3 1_555 1_555
O25_7 Zn8_3 1_555 1_555
O34_7 Zn17_3 1_555 1_555
O42_7 Zn8_3 1_555 1_555
O44_13 Zn17_3 1_555 1_555
O46_13 Zn8_3 1_555 1_555
O5_7 Zn19_2 1_555 1_555
O6_7 Zn10_2 1_555 1_555
Zn8_4 O24_7 1_555 1_555
Zn8_13 O38_7 1_555 1_555
Zn6_2 O40_7 1_555 1_555
Zn11_13 O22_7 1_555 1_555
Zn17_4 O14_7 1_555 1_555
Zn17_13 O30_7 1_555 1_555
Zn15_2 O32_7 1_555 1_555
Zn20_13 O12_7 1_555 1_555
O10_7 Zn19_2 1_555 1_555
O16_2 C41_7 1_555 1_555
O12_7 C42_7 1_555 1_555
O13_7 Zn19_2 1_555 1_555
O17_7 Zn16_2 1_555 1_555
O20_7 Zn10_2 1_555 1_555
O26_2 C41_7 1_555 1_555
O22_7 C42_7 1_555 1_555
O23_7 Zn10_2 1_555 1_555
O27_7 Zn7_2 1_555 1_555
O30_7 C20_7 1_555 1_555
O31_7 Zn18_2 1_555 1_555
O32_7 C22_7 1_555 1_555
O33_7 Zn19_2 1_555 1_555
O35_7 Zn16_2 1_555 1_555
O38_7 C20_7 1_555 1_555
O39_7 Zn9_2 1_555 1_555
O40_7 C22_7 1_555 1_555
O41_7 Zn10_2 1_555 1_555
O43_7 Zn7_2 1_555 1_555
O44_14 Zn17_4 1_555 1_555
O45_7 Zn16_2 1_555 1_555
O46_14 Zn8_4 1_555 1_555
O47_7 Zn7_2 1_555 1_555
C20_7 C25_7 1_555 1_555
C21_7 O31_7 1_555 1_555
C22_7 C27_7 1_555 1_555
C25_7 C30_7 1_555 1_555
C26_7 C21_7 1_555 1_555
C27_7 C32_7 1_555 1_555
C30_7 H13_7 1_555 1_555
C31_7 C26_7 1_555 1_555
C32_7 H15_7 1_555 1_555
H14_7 C31_7 1_555 1_555
C35_7 C30_7 1_555 1_555
C36_7 C31_7 1_555 1_555
C37_7 C32_7 1_555 1_555
C40_7 O10_7 1_555 1_555
C41_7 C36_7 1_555 1_555
C42_7 C37_7 1_555 1_555
C45_7 C35_7 1_555 1_555
C46_7 C36_7 1_555 1_555
C47_7 C37_7 1_555 1_555
H18_7 C45_7 1_555 1_555
H19_7 C46_7 1_555 1_555
H20_7 C47_7 1_555 1_555
C50_7 C45_7 1_555 1_555
C51_7 C46_7 1_555 1_555
C52_7 C47_7 1_555 1_555
C55_7 C25_7 1_555 1_555
C56_7 C26_7 1_555 1_555
C57_7 C27_7 1_555 1_555
H23_7 C55_7 1_555 1_555
H24_7 C56_7 1_555 1_555
H25_7 C57_7 1_555 1_555
N5_7 C50_7 1_555 1_555
N6_7 C51_7 1_555 1_555
N7_7 C52_7 1_555 1_555
N10_7 N5_7 1_555 1_555
N11_7 N6_7 1_555 1_555
N12_7 N7_7 1_555 1_555
C60_7 N10_7 1_555 1_555
C61_7 N11_7 1_555 1_555
C62_7 N12_7 1_555 1_555
C65_7 C60_7 1_555 1_555
C66_7 C61_7 1_555 1_555
C67_7 C62_7 1_555 1_555
H28_7 C65_7 1_555 1_555
H29_7 C66_7 1_555 1_555
H30_7 C67_7 1_555 1_555
C70_7 C65_7 1_555 1_555
C71_7 C66_7 1_555 1_555
C72_7 C67_7 1_555 1_555
H33_7 C70_7 1_555 1_555
H34_7 C71_7 1_555 1_555
H35_7 C72_7 1_555 1_555
C75_7 C70_7 1_555 1_555
C76_7 C71_7 1_555 1_555
C77_7 C72_7 1_555 1_555
C80_7 C75_7 1_555 1_555
C81_7 C76_7 1_555 1_555
C82_7 C77_7 1_555 1_555
H38_7 C80_7 1_555 1_555
H39_7 C81_7 1_555 1_555
H40_7 C82_7 1_555 1_555
C85_7 C60_7 1_555 1_555
C86_7 C61_7 1_555 1_555
C87_7 C62_7 1_555 1_555
H43_7 C85_7 1_555 1_555
H44_7 C86_7 1_555 1_555
H45_7 C87_7 1_555 1_555
O50_7 C75_7 1_555 1_555
O51_7 C76_7 1_555 1_555
O52_7 C77_7 1_555 1_555
C90_7 O50_7 1_555 1_555
C91_7 O51_7 1_555 1_555
C92_7 O52_7 1_555 1_555
H48_7 C90_7 1_555 1_555
H49_7 C91_7 1_555 1_555
H50_7 C92_7 1_555 1_555
H53_7 C90_7 1_555 1_555
H54_7 C91_7 1_555 1_555
H55_7 C92_7 1_555 1_555
C95_7 C90_7 1_555 1_555
C96_7 C91_7 1_555 1_555
C97_7 C92_7 1_555 1_555
C100_7 C95_7 1_555 1_555
C101_7 C96_7 1_555 1_555
C102_7 C95_7 1_555 1_555
H58_7 C100_7 1_555 1_555
H59_7 C102_7 1_555 1_555
H60_7 C101_7 1_555 1_555
O20_7 C40_7 1_555 1_555
O39_7 C21_7 1_555 1_555
C35_7 C40_7 1_555 1_555
C50_7 C55_7 1_555 1_555
C51_7 C56_7 1_555 1_555
C52_7 C57_7 1_555 1_555
C80_7 C85_7 1_555 1_555
C81_7 C86_7 1_555 1_555
C82_7 C87_7 1_555 1_555
C96_7 C100_7 1_555 1_555
C97_7 C101_7 1_555 1_555
C97_7 C102_7 1_555 1_555
O5_8 Zn19_3 1_555 1_555
O6_8 Zn10_3 1_555 1_555
Zn8_5 O24_8 1_555 1_555
Zn8_16 O38_8 1_555 1_555
Zn6_3 O40_8 1_555 1_555
Zn11_16 O22_8 1_555 1_555
Zn17_5 O14_8 1_555 1_555
Zn17_16 O30_8 1_555 1_555
Zn15_3 O32_8 1_555 1_555
Zn20_16 O12_8 1_555 1_555
O10_8 Zn19_3 1_555 1_555
O16_3 C41_8 1_555 1_555
O12_8 C42_8 1_555 1_555
O13_8 Zn19_3 1_555 1_555
O17_8 Zn16_3 1_555 1_555
O20_8 Zn10_3 1_555 1_555
O26_3 C41_8 1_555 1_555
O22_8 C42_8 1_555 1_555
O23_8 Zn10_3 1_555 1_555
O27_8 Zn7_3 1_555 1_555
O30_8 C20_8 1_555 1_555
O31_8 Zn18_3 1_555 1_555
O32_8 C22_8 1_555 1_555
O33_8 Zn19_3 1_555 1_555
O35_8 Zn16_3 1_555 1_555
O38_8 C20_8 1_555 1_555
O39_8 Zn9_3 1_555 1_555
O40_8 C22_8 1_555 1_555
O41_8 Zn10_3 1_555 1_555
O43_8 Zn7_3 1_555 1_555
O44_15 Zn17_5 1_555 1_555
O45_8 Zn16_3 1_555 1_555
O46_15 Zn8_5 1_555 1_555
O47_8 Zn7_3 1_555 1_555
C20_8 C25_8 1_555 1_555
C21_8 O31_8 1_555 1_555
C22_8 C27_8 1_555 1_555
C25_8 C30_8 1_555 1_555
C26_8 C21_8 1_555 1_555
C27_8 C32_8 1_555 1_555
C30_8 H13_8 1_555 1_555
C31_8 C26_8 1_555 1_555
C32_8 H15_8 1_555 1_555
H14_8 C31_8 1_555 1_555
C35_8 C30_8 1_555 1_555
C36_8 C31_8 1_555 1_555
C37_8 C32_8 1_555 1_555
C40_8 O10_8 1_555 1_555
C41_8 C36_8 1_555 1_555
C42_8 C37_8 1_555 1_555
C45_8 C35_8 1_555 1_555
C46_8 C36_8 1_555 1_555
C47_8 C37_8 1_555 1_555
H18_8 C45_8 1_555 1_555
H19_8 C46_8 1_555 1_555
H20_8 C47_8 1_555 1_555
C50_8 C45_8 1_555 1_555
C51_8 C46_8 1_555 1_555
C52_8 C47_8 1_555 1_555
C55_8 C25_8 1_555 1_555
C56_8 C26_8 1_555 1_555
C57_8 C27_8 1_555 1_555
H23_8 C55_8 1_555 1_555
H24_8 C56_8 1_555 1_555
H25_8 C57_8 1_555 1_555
N5_8 C50_8 1_555 1_555
N6_8 C51_8 1_555 1_555
N7_8 C52_8 1_555 1_555
N10_8 N5_8 1_555 1_555
N11_8 N6_8 1_555 1_555
N12_8 N7_8 1_555 1_555
C60_8 N10_8 1_555 1_555
C61_8 N11_8 1_555 1_555
C62_8 N12_8 1_555 1_555
C65_8 C60_8 1_555 1_555
C66_8 C61_8 1_555 1_555
C67_8 C62_8 1_555 1_555
H28_8 C65_8 1_555 1_555
H29_8 C66_8 1_555 1_555
H30_8 C67_8 1_555 1_555
C70_8 C65_8 1_555 1_555
C71_8 C66_8 1_555 1_555
C72_8 C67_8 1_555 1_555
H33_8 C70_8 1_555 1_555
H34_8 C71_8 1_555 1_555
H35_8 C72_8 1_555 1_555
C75_8 C70_8 1_555 1_555
C76_8 C71_8 1_555 1_555
C77_8 C72_8 1_555 1_555
C80_8 C75_8 1_555 1_555
C81_8 C76_8 1_555 1_555
C82_8 C77_8 1_555 1_555
H38_8 C80_8 1_555 1_555
H39_8 C81_8 1_555 1_555
H40_8 C82_8 1_555 1_555
C85_8 C60_8 1_555 1_555
C86_8 C61_8 1_555 1_555
C87_8 C62_8 1_555 1_555
H43_8 C85_8 1_555 1_555
H44_8 C86_8 1_555 1_555
H45_8 C87_8 1_555 1_555
O50_8 C75_8 1_555 1_555
O51_8 C76_8 1_555 1_555
O52_8 C77_8 1_555 1_555
C90_8 O50_8 1_555 1_555
C91_8 O51_8 1_555 1_555
C92_8 O52_8 1_555 1_555
H48_8 C90_8 1_555 1_555
H49_8 C91_8 1_555 1_555
H50_8 C92_8 1_555 1_555
H53_8 C90_8 1_555 1_555
H54_8 C91_8 1_555 1_555
H55_8 C92_8 1_555 1_555
C95_8 C90_8 1_555 1_555
C96_8 C91_8 1_555 1_555
C97_8 C92_8 1_555 1_555
C100_8 C95_8 1_555 1_555
C101_8 C96_8 1_555 1_555
C102_8 C95_8 1_555 1_555
H58_8 C100_8 1_555 1_555
H59_8 C102_8 1_555 1_555
H60_8 C101_8 1_555 1_555
O20_8 C40_8 1_555 1_555
O39_8 C21_8 1_555 1_555
C35_8 C40_8 1_555 1_555
C50_8 C55_8 1_555 1_555
C51_8 C56_8 1_555 1_555
C52_8 C57_8 1_555 1_555
C80_8 C85_8 1_555 1_555
C81_8 C86_8 1_555 1_555
C82_8 C87_8 1_555 1_555
C96_8 C100_8 1_555 1_555
C97_8 C101_8 1_555 1_555
C97_8 C102_8 1_555 1_555
O15_8 Zn17_6 1_555 1_555
O25_8 Zn8_6 1_555 1_555
O34_8 Zn17_6 1_555 1_555
O42_8 Zn8_6 1_555 1_555
O44_16 Zn17_6 1_555 1_555
O46_16 Zn8_6 1_555 1_555
O5_9 Zn15 1_555 1_555
O6_9 Zn6 1_555 1_555
Zn8_9 O24_9 1_555 1_555
Zn17_9 O14_9 1_555 1_555
O13_9 Zn15 1_555 1_555
O17_9 Zn18 1_555 1_555
O23_9 Zn6 1_555 1_555
O27_9 Zn9 1_555 1_555
O33_9 Zn15 1_555 1_555
O35_9 Zn18 1_555 1_555
O41_9 Zn6 1_555 1_555
O43_9 Zn9 1_555 1_555
O44_17 Zn17_9 1_555 1_555
O45_9 Zn18 1_555 1_555
O46_17 Zn8_9 1_555 1_555
O47_9 Zn9 1_555 1_555
O15_9 Zn17_10 1_555 1_555
O25_9 Zn8_10 1_555 1_555
O34_9 Zn17_10 1_555 1_555
O42_9 Zn8_10 1_555 1_555
O44_18 Zn17_10 1_555 1_555
O46_18 Zn8_10 1_555 1_555
O15_10 Zn17_15 1_555 1_555
O25_10 Zn8_15 1_555 1_555
O34_10 Zn17_15 1_555 1_555
O42_10 Zn8_15 1_555 1_555
O44_19 Zn17_15 1_555 1_555
O46_19 Zn8_15 1_555 1_555
O5_10 Zn15_3 1_555 1_555
O6_10 Zn6_3 1_555 1_555
Zn8_16 O24_10 1_555 1_555
Zn17_16 O14_10 1_555 1_555
O13_10 Zn15_3 1_555 1_555
O17_10 Zn18_3 1_555 1_555
O23_10 Zn6_3 1_555 1_555
O27_10 Zn9_3 1_555 1_555
O33_10 Zn15_3 1_555 1_555
O35_10 Zn18_3 1_555 1_555
O41_10 Zn6_3 1_555 1_555
O43_10 Zn9_3 1_555 1_555
O44_20 Zn17_16 1_555 1_555
O45_10 Zn18_3 1_555 1_555
O46_20 Zn8_16 1_555 1_555
O47_10 Zn9_3 1_555 1_555
O15_11 Zn17_11 1_555 1_555
O25_11 Zn8_11 1_555 1_555
O34_11 Zn17_11 1_555 1_555
O42_11 Zn8_11 1_555 1_555
O44_21 Zn17_11 1_555 1_555
O46_21 Zn8_11 1_555 1_555
O5_11 Zn15_4 1_555 1_555
O6_11 Zn6_4 1_555 1_555
Zn8_12 O24_11 1_555 1_555
Zn17_12 O14_11 1_555 1_555
O13_11 Zn15_4 1_555 1_555
O17_11 Zn18_4 1_555 1_555
O23_11 Zn6_4 1_555 1_555
O27_11 Zn9_4 1_555 1_555
O33_11 Zn15_4 1_555 1_555
O35_11 Zn18_4 1_555 1_555
O41_11 Zn6_4 1_555 1_555
O43_11 Zn9_4 1_555 1_555
O44_22 Zn17_12 1_555 1_555
O45_11 Zn18_4 1_555 1_555
O46_22 Zn8_12 1_555 1_555
O47_11 Zn9_4 1_555 1_555
O5_12 Zn15_2 1_555 1_555
O6_12 Zn6_2 1_555 1_555
Zn8_13 O24_12 1_555 1_555
Zn17_13 O14_12 1_555 1_555
O13_12 Zn15_2 1_555 1_555
O17_12 Zn18_2 1_555 1_555
O23_12 Zn6_2 1_555 1_555
O27_12 Zn9_2 1_555 1_555
O33_12 Zn15_2 1_555 1_555
O35_12 Zn18_2 1_555 1_555
O41_12 Zn6_2 1_555 1_555
O43_12 Zn9_2 1_555 1_555
O44_23 Zn17_13 1_555 1_555
O45_12 Zn18_2 1_555 1_555
O46_23 Zn8_13 1_555 1_555
O47_12 Zn9_2 1_555 1_555
O15_12 Zn17_14 1_555 1_555
O25_12 Zn8_14 1_555 1_555
O34_12 Zn17_14 1_555 1_555
O42_12 Zn8_14 1_555 1_555
O44_24 Zn17_14 1_555 1_555
O46_24 Zn8_14 1_555 1_555
O17_13 Zn20_7 1_555 1_555
O27_13 Zn11_7 1_555 1_555
O35_13 Zn20_7 1_555 1_555
O43_13 Zn11_7 1_555 1_555
O45_13 Zn20_7 1_555 1_555
O47_13 Zn11_7 1_555 1_555
O5_13 Zn20_11 1_555 1_555
O6_13 Zn11_11 1_555 1_555
O13_13 Zn20_11 1_555 1_555
O23_13 Zn11_11 1_555 1_555
O33_13 Zn20_11 1_555 1_555
O41_13 Zn11_11 1_555 1_555
Zn11_12 O4_5 1_555 1_555
Zn20_12 O3_5 1_555 1_555
O14_4 C5_5 1_555 1_555
O24_4 C5_5 1_555 1_555
O3_5 C1_5 1_555 1_555
O4_5 C1_5 1_555 1_555
O5_14 Zn20_12 1_555 1_555
O6_14 Zn11_12 1_555 1_555
C1_5 C2_5 1_555 1_555
C2_5 C3_5 1_555 1_555
C3_5 H1_5 1_555 1_555
C4_5 C3_5 1_555 1_555
C5_5 C4_5 1_555 1_555
C6_5 C4_5 1_555 1_555
H2_5 C6_5 1_555 1_555
C7_5 C6_5 1_555 1_555
C8_5 C2_5 1_555 1_555
H3_5 C8_5 1_555 1_555
N1_5 C7_5 1_555 1_555
N2_5 N1_5 1_555 1_555
C9_5 N2_5 1_555 1_555
C10_5 C9_5 1_555 1_555
H4_5 C10_5 1_555 1_555
C11_5 C10_5 1_555 1_555
H5_5 C11_5 1_555 1_555
C12_5 C11_5 1_555 1_555
C13_5 C12_5 1_555 1_555
H6_5 C13_5 1_555 1_555
C14_5 C9_5 1_555 1_555
H7_5 C14_5 1_555 1_555
O7_5 C12_5 1_555 1_555
C15_5 O7_5 1_555 1_555
H8_5 C15_5 1_555 1_555
H9_5 C15_5 1_555 1_555
C16_5 C15_5 1_555 1_555
C17_5 C16_5 1_555 1_555
H10_5 C17_5 1_555 1_555
O14_6 C38_5 1_555 1_555
O14_11 C39_5 1_555 1_555
O24_6 C38_5 1_555 1_555
O24_11 C39_5 1_555 1_555
O28_5 Zn14_7 1_555 1_555
O29_5 Zn20_8 1_555 1_555
O36_5 Zn5_7 1_555 1_555
O37_5 Zn11_8 1_555 1_555
O44_25 Zn14_7 1_555 1_555
O45_14 Zn20_8 1_555 1_555
O46_25 Zn5_7 1_555 1_555
O47_14 Zn11_8 1_555 1_555
C18_5 O28_5 1_555 1_555
C19_5 O29_5 1_555 1_555
C23_5 C18_5 1_555 1_555
C24_5 C19_5 1_555 1_555
C28_5 C23_5 1_555 1_555
C29_5 C24_5 1_555 1_555
H11_5 C28_5 1_555 1_555
H12_5 C29_5 1_555 1_555
C33_5 C28_5 1_555 1_555
C34_5 C29_5 1_555 1_555
C38_5 C33_5 1_555 1_555
C39_5 C34_5 1_555 1_555
C43_5 C33_5 1_555 1_555
C44_5 C34_5 1_555 1_555
H16_5 C43_5 1_555 1_555
H17_5 C44_5 1_555 1_555
C48_5 C43_5 1_555 1_555
C49_5 C44_5 1_555 1_555
C53_5 C23_5 1_555 1_555
C54_5 C24_5 1_555 1_555
H21_5 C53_5 1_555 1_555
H22_5 C54_5 1_555 1_555
N3_5 C48_5 1_555 1_555
N4_5 C49_5 1_555 1_555
N8_5 N3_5 1_555 1_555
N9_5 N4_5 1_555 1_555
C58_5 N8_5 1_555 1_555
C59_5 N9_5 1_555 1_555
C63_5 C58_5 1_555 1_555
C64_5 C59_5 1_555 1_555
H26_5 C63_5 1_555 1_555
H27_5 C64_5 1_555 1_555
C68_5 C63_5 1_555 1_555
C69_5 C64_5 1_555 1_555
H31_5 C68_5 1_555 1_555
H32_5 C69_5 1_555 1_555
C73_5 C68_5 1_555 1_555
C74_5 C69_5 1_555 1_555
C78_5 C73_5 1_555 1_555
C79_5 C74_5 1_555 1_555
H36_5 C78_5 1_555 1_555
H37_5 C79_5 1_555 1_555
C83_5 C58_5 1_555 1_555
C84_5 C59_5 1_555 1_555
H41_5 C83_5 1_555 1_555
H42_5 C84_5 1_555 1_555
O48_5 C73_5 1_555 1_555
O49_5 C74_5 1_555 1_555
C88_5 O48_5 1_555 1_555
C89_5 O49_5 1_555 1_555
H46_5 C88_5 1_555 1_555
H47_5 C89_5 1_555 1_555
H51_5 C88_5 1_555 1_555
H52_5 C89_5 1_555 1_555
C93_5 C17_5 1_555 1_555
C94_5 C89_5 1_555 1_555
C98_5 C93_5 1_555 1_555
C99_5 C16_5 1_555 1_555
H56_5 C99_5 1_555 1_555
H57_5 C98_5 1_555 1_555
C7_5 C8_5 1_555 1_555
C13_5 C14_5 1_555 1_555
O36_5 C18_5 1_555 1_555
O37_5 C19_5 1_555 1_555
C48_5 C53_5 1_555 1_555
C49_5 C54_5 1_555 1_555
C78_5 C83_5 1_555 1_555
C79_5 C84_5 1_555 1_555
C88_5 C93_5 1_555 1_555
C94_5 C98_5 1_555 1_555
C94_5 C99_5 1_555 1_555
O15_13 Zn14_8 1_555 1_555
O25_13 Zn5_8 1_555 1_555
O34_13 Zn14_8 1_555 1_555
O42_13 Zn5_8 1_555 1_555
O44_26 Zn14_8 1_555 1_555
O46_26 Zn5_8 1_555 1_555
O15_14 Zn14_5 1_555 1_555
O25_14 Zn5_5 1_555 1_555
O34_14 Zn14_5 1_555 1_555
O42_14 Zn5_5 1_555 1_555
O44_27 Zn14_5 1_555 1_555
O46_27 Zn5_5 1_555 1_555
O5_15 Zn20_15 1_555 1_555
O6_15 Zn11_15 1_555 1_555
O13_14 Zn20_15 1_555 1_555
O23_14 Zn11_15 1_555 1_555
O33_14 Zn20_15 1_555 1_555
O41_14 Zn11_15 1_555 1_555
Zn11_16 O4_6 1_555 1_555
Zn20_16 O3_6 1_555 1_555
O14_3 C5_6 1_555 1_555
O24_3 C5_6 1_555 1_555
O3_6 C1_6 1_555 1_555
O4_6 C1_6 1_555 1_555
O5_16 Zn20_16 1_555 1_555
O6_16 Zn11_16 1_555 1_555
C1_6 C2_6 1_555 1_555
C2_6 C3_6 1_555 1_555
C3_6 H1_6 1_555 1_555
C4_6 C3_6 1_555 1_555
C5_6 C4_6 1_555 1_555
C6_6 C4_6 1_555 1_555
H2_6 C6_6 1_555 1_555
C7_6 C6_6 1_555 1_555
C8_6 C2_6 1_555 1_555
H3_6 C8_6 1_555 1_555
N1_6 C7_6 1_555 1_555
N2_6 N1_6 1_555 1_555
C9_6 N2_6 1_555 1_555
C10_6 C9_6 1_555 1_555
H4_6 C10_6 1_555 1_555
C11_6 C10_6 1_555 1_555
H5_6 C11_6 1_555 1_555
C12_6 C11_6 1_555 1_555
C13_6 C12_6 1_555 1_555
H6_6 C13_6 1_555 1_555
C14_6 C9_6 1_555 1_555
H7_6 C14_6 1_555 1_555
O7_6 C12_6 1_555 1_555
C15_6 O7_6 1_555 1_555
H8_6 C15_6 1_555 1_555
H9_6 C15_6 1_555 1_555
C16_6 C15_6 1_555 1_555
C17_6 C16_6 1_555 1_555
H10_6 C17_6 1_555 1_555
O14_8 C38_6 1_555 1_555
O14_10 C39_6 1_555 1_555
O24_8 C38_6 1_555 1_555
O24_10 C39_6 1_555 1_555
O28_6 Zn14_6 1_555 1_555
O29_6 Zn20_5 1_555 1_555
O36_6 Zn5_6 1_555 1_555
O37_6 Zn11_5 1_555 1_555
O44_28 Zn14_6 1_555 1_555
O45_15 Zn20_5 1_555 1_555
O46_28 Zn5_6 1_555 1_555
O47_15 Zn11_5 1_555 1_555
C18_6 O28_6 1_555 1_555
C19_6 O29_6 1_555 1_555
C23_6 C18_6 1_555 1_555
C24_6 C19_6 1_555 1_555
C28_6 C23_6 1_555 1_555
C29_6 C24_6 1_555 1_555
H11_6 C28_6 1_555 1_555
H12_6 C29_6 1_555 1_555
C33_6 C28_6 1_555 1_555
C34_6 C29_6 1_555 1_555
C38_6 C33_6 1_555 1_555
C39_6 C34_6 1_555 1_555
C43_6 C33_6 1_555 1_555
C44_6 C34_6 1_555 1_555
H16_6 C43_6 1_555 1_555
H17_6 C44_6 1_555 1_555
C48_6 C43_6 1_555 1_555
C49_6 C44_6 1_555 1_555
C53_6 C23_6 1_555 1_555
C54_6 C24_6 1_555 1_555
H21_6 C53_6 1_555 1_555
H22_6 C54_6 1_555 1_555
N3_6 C48_6 1_555 1_555
N4_6 C49_6 1_555 1_555
N8_6 N3_6 1_555 1_555
N9_6 N4_6 1_555 1_555
C58_6 N8_6 1_555 1_555
C59_6 N9_6 1_555 1_555
C63_6 C58_6 1_555 1_555
C64_6 C59_6 1_555 1_555
H26_6 C63_6 1_555 1_555
H27_6 C64_6 1_555 1_555
C68_6 C63_6 1_555 1_555
C69_6 C64_6 1_555 1_555
H31_6 C68_6 1_555 1_555
H32_6 C69_6 1_555 1_555
C73_6 C68_6 1_555 1_555
C74_6 C69_6 1_555 1_555
C78_6 C73_6 1_555 1_555
C79_6 C74_6 1_555 1_555
H36_6 C78_6 1_555 1_555
H37_6 C79_6 1_555 1_555
C83_6 C58_6 1_555 1_555
C84_6 C59_6 1_555 1_555
H41_6 C83_6 1_555 1_555
H42_6 C84_6 1_555 1_555
O48_6 C73_6 1_555 1_555
O49_6 C74_6 1_555 1_555
C88_6 O48_6 1_555 1_555
C89_6 O49_6 1_555 1_555
H46_6 C88_6 1_555 1_555
H47_6 C89_6 1_555 1_555
H51_6 C88_6 1_555 1_555
H52_6 C89_6 1_555 1_555
C93_6 C17_6 1_555 1_555
C94_6 C89_6 1_555 1_555
C98_6 C93_6 1_555 1_555
C99_6 C16_6 1_555 1_555
H56_6 C99_6 1_555 1_555
H57_6 C98_6 1_555 1_555
C7_6 C8_6 1_555 1_555
C13_6 C14_6 1_555 1_555
O36_6 C18_6 1_555 1_555
O37_6 C19_6 1_555 1_555
C48_6 C53_6 1_555 1_555
C49_6 C54_6 1_555 1_555
C78_6 C83_6 1_555 1_555
C79_6 C84_6 1_555 1_555
C88_6 C93_6 1_555 1_555
C94_6 C98_6 1_555 1_555
C94_6 C99_6 1_555 1_555
O17_14 Zn20_6 1_555 1_555
O27_14 Zn11_6 1_555 1_555
O35_14 Zn20_6 1_555 1_555
O43_14 Zn11_6 1_555 1_555
O45_16 Zn20_6 1_555 1_555
O47_16 Zn11_6 1_555 1_555
O15_15 Zn14_3 1_555 1_555
O25_15 Zn5_3 1_555 1_555
O34_15 Zn14_3 1_555 1_555
O42_15 Zn5_3 1_555 1_555
O44_29 Zn14_3 1_555 1_555
O46_29 Zn5_3 1_555 1_555
O17_15 Zn20_3 1_555 1_555
O27_15 Zn11_3 1_555 1_555
O35_15 Zn20_3 1_555 1_555
O43_15 Zn11_3 1_555 1_555
O45_17 Zn20_3 1_555 1_555
O47_17 Zn11_3 1_555 1_555
Zn11_13 O4_7 1_555 1_555
Zn20_13 O3_7 1_555 1_555
O14_2 C5_7 1_555 1_555
O24_2 C5_7 1_555 1_555
O3_7 C1_7 1_555 1_555
O4_7 C1_7 1_555 1_555
O5_17 Zn20_13 1_555 1_555
O6_17 Zn11_13 1_555 1_555
C1_7 C2_7 1_555 1_555
C2_7 C3_7 1_555 1_555
C3_7 H1_7 1_555 1_555
C4_7 C3_7 1_555 1_555
C5_7 C4_7 1_555 1_555
C6_7 C4_7 1_555 1_555
H2_7 C6_7 1_555 1_555
C7_7 C6_7 1_555 1_555
C8_7 C2_7 1_555 1_555
H3_7 C8_7 1_555 1_555
N1_7 C7_7 1_555 1_555
N2_7 N1_7 1_555 1_555
C9_7 N2_7 1_555 1_555
C10_7 C9_7 1_555 1_555
H4_7 C10_7 1_555 1_555
C11_7 C10_7 1_555 1_555
H5_7 C11_7 1_555 1_555
C12_7 C11_7 1_555 1_555
C13_7 C12_7 1_555 1_555
H6_7 C13_7 1_555 1_555
C14_7 C9_7 1_555 1_555
H7_7 C14_7 1_555 1_555
O7_7 C12_7 1_555 1_555
C15_7 O7_7 1_555 1_555
H8_7 C15_7 1_555 1_555
H9_7 C15_7 1_555 1_555
C16_7 C15_7 1_555 1_555
C17_7 C16_7 1_555 1_555
H10_7 C17_7 1_555 1_555
O14_7 C38_7 1_555 1_555
O14_12 C39_7 1_555 1_555
O24_7 C38_7 1_555 1_555
O24_12 C39_7 1_555 1_555
O28_7 Zn14_4 1_555 1_555
O29_7 Zn20_4 1_555 1_555
O36_7 Zn5_4 1_555 1_555
O37_7 Zn11_4 1_555 1_555
O44_30 Zn14_4 1_555 1_555
O45_18 Zn20_4 1_555 1_555
O46_30 Zn5_4 1_555 1_555
O47_18 Zn11_4 1_555 1_555
C18_7 O28_7 1_555 1_555
C19_7 O29_7 1_555 1_555
C23_7 C18_7 1_555 1_555
C24_7 C19_7 1_555 1_555
C28_7 C23_7 1_555 1_555
C29_7 C24_7 1_555 1_555
H11_7 C28_7 1_555 1_555
H12_7 C29_7 1_555 1_555
C33_7 C28_7 1_555 1_555
C34_7 C29_7 1_555 1_555
C38_7 C33_7 1_555 1_555
C39_7 C34_7 1_555 1_555
C43_7 C33_7 1_555 1_555
C44_7 C34_7 1_555 1_555
H16_7 C43_7 1_555 1_555
H17_7 C44_7 1_555 1_555
C48_7 C43_7 1_555 1_555
C49_7 C44_7 1_555 1_555
C53_7 C23_7 1_555 1_555
C54_7 C24_7 1_555 1_555
H21_7 C53_7 1_555 1_555
H22_7 C54_7 1_555 1_555
N3_7 C48_7 1_555 1_555
N4_7 C49_7 1_555 1_555
N8_7 N3_7 1_555 1_555
N9_7 N4_7 1_555 1_555
C58_7 N8_7 1_555 1_555
C59_7 N9_7 1_555 1_555
C63_7 C58_7 1_555 1_555
C64_7 C59_7 1_555 1_555
H26_7 C63_7 1_555 1_555
H27_7 C64_7 1_555 1_555
C68_7 C63_7 1_555 1_555
C69_7 C64_7 1_555 1_555
H31_7 C68_7 1_555 1_555
H32_7 C69_7 1_555 1_555
C73_7 C68_7 1_555 1_555
C74_7 C69_7 1_555 1_555
C78_7 C73_7 1_555 1_555
C79_7 C74_7 1_555 1_555
H36_7 C78_7 1_555 1_555
H37_7 C79_7 1_555 1_555
C83_7 C58_7 1_555 1_555
C84_7 C59_7 1_555 1_555
H41_7 C83_7 1_555 1_555
H42_7 C84_7 1_555 1_555
O48_7 C73_7 1_555 1_555
O49_7 C74_7 1_555 1_555
C88_7 O48_7 1_555 1_555
C89_7 O49_7 1_555 1_555
H46_7 C88_7 1_555 1_555
H47_7 C89_7 1_555 1_555
H51_7 C88_7 1_555 1_555
H52_7 C89_7 1_555 1_555
C93_7 C17_7 1_555 1_555
C94_7 C89_7 1_555 1_555
C98_7 C93_7 1_555 1_555
C99_7 C16_7 1_555 1_555
H56_7 C99_7 1_555 1_555
H57_7 C98_7 1_555 1_555
C7_7 C8_7 1_555 1_555
C13_7 C14_7 1_555 1_555
O36_7 C18_7 1_555 1_555
O37_7 C19_7 1_555 1_555
C48_7 C53_7 1_555 1_555
C49_7 C54_7 1_555 1_555
C78_7 C83_7 1_555 1_555
C79_7 C84_7 1_555 1_555
C88_7 C93_7 1_555 1_555
C94_7 C98_7 1_555 1_555
C94_7 C99_7 1_555 1_555
O5_18 Zn20_14 1_555 1_555
O6_18 Zn11_14 1_555 1_555
O13_15 Zn20_14 1_555 1_555
O23_15 Zn11_14 1_555 1_555
O33_15 Zn20_14 1_555 1_555
O41_15 Zn11_14 1_555 1_555
Zn11_9 O4_8 1_555 1_555
Zn20_9 O3_8 1_555 1_555
O14 C5_8 1_555 1_555
O24 C5_8 1_555 1_555
O3_8 C1_8 1_555 1_555
O4_8 C1_8 1_555 1_555
O5_19 Zn20_9 1_555 1_555
O6_19 Zn11_9 1_555 1_555
C1_8 C2_8 1_555 1_555
C2_8 C3_8 1_555 1_555
C3_8 H1_8 1_555 1_555
C4_8 C3_8 1_555 1_555
C5_8 C4_8 1_555 1_555
C6_8 C4_8 1_555 1_555
H2_8 C6_8 1_555 1_555
C7_8 C6_8 1_555 1_555
C8_8 C2_8 1_555 1_555
H3_8 C8_8 1_555 1_555
N1_8 C7_8 1_555 1_555
N2_8 N1_8 1_555 1_555
C9_8 N2_8 1_555 1_555
C10_8 C9_8 1_555 1_555
H4_8 C10_8 1_555 1_555
C11_8 C10_8 1_555 1_555
H5_8 C11_8 1_555 1_555
C12_8 C11_8 1_555 1_555
C13_8 C12_8 1_555 1_555
H6_8 C13_8 1_555 1_555
C14_8 C9_8 1_555 1_555
H7_8 C14_8 1_555 1_555
O7_8 C12_8 1_555 1_555
C15_8 O7_8 1_555 1_555
H8_8 C15_8 1_555 1_555
H9_8 C15_8 1_555 1_555
C16_8 C15_8 1_555 1_555
C17_8 C16_8 1_555 1_555
H10_8 C17_8 1_555 1_555
O14_5 C38_8 1_555 1_555
O14_9 C39_8 1_555 1_555
O24_5 C38_8 1_555 1_555
O24_9 C39_8 1_555 1_555
O28_8 Zn14 1_555 1_555
O29_8 Zn20 1_555 1_555
O36_8 Zn5 1_555 1_555
O37_8 Zn11 1_555 1_555
O44_31 Zn14 1_555 1_555
O45_19 Zn20 1_555 1_555
O46_31 Zn5 1_555 1_555
O47_19 Zn11 1_555 1_555
C18_8 O28_8 1_555 1_555
C19_8 O29_8 1_555 1_555
C23_8 C18_8 1_555 1_555
C24_8 C19_8 1_555 1_555
C28_8 C23_8 1_555 1_555
C29_8 C24_8 1_555 1_555
H11_8 C28_8 1_555 1_555
H12_8 C29_8 1_555 1_555
C33_8 C28_8 1_555 1_555
C34_8 C29_8 1_555 1_555
C38_8 C33_8 1_555 1_555
C39_8 C34_8 1_555 1_555
C43_8 C33_8 1_555 1_555
C44_8 C34_8 1_555 1_555
H16_8 C43_8 1_555 1_555
H17_8 C44_8 1_555 1_555
C48_8 C43_8 1_555 1_555
C49_8 C44_8 1_555 1_555
C53_8 C23_8 1_555 1_555
C54_8 C24_8 1_555 1_555
H21_8 C53_8 1_555 1_555
H22_8 C54_8 1_555 1_555
N3_8 C48_8 1_555 1_555
N4_8 C49_8 1_555 1_555
N8_8 N3_8 1_555 1_555
N9_8 N4_8 1_555 1_555
C58_8 N8_8 1_555 1_555
C59_8 N9_8 1_555 1_555
C63_8 C58_8 1_555 1_555
C64_8 C59_8 1_555 1_555
H26_8 C63_8 1_555 1_555
H27_8 C64_8 1_555 1_555
C68_8 C63_8 1_555 1_555
C69_8 C64_8 1_555 1_555
H31_8 C68_8 1_555 1_555
H32_8 C69_8 1_555 1_555
C73_8 C68_8 1_555 1_555
C74_8 C69_8 1_555 1_555
C78_8 C73_8 1_555 1_555
C79_8 C74_8 1_555 1_555
H36_8 C78_8 1_555 1_555
H37_8 C79_8 1_555 1_555
C83_8 C58_8 1_555 1_555
C84_8 C59_8 1_555 1_555
H41_8 C83_8 1_555 1_555
H42_8 C84_8 1_555 1_555
O48_8 C73_8 1_555 1_555
O49_8 C74_8 1_555 1_555
C88_8 O48_8 1_555 1_555
C89_8 O49_8 1_555 1_555
H46_8 C88_8 1_555 1_555
H47_8 C89_8 1_555 1_555
H51_8 C88_8 1_555 1_555
H52_8 C89_8 1_555 1_555
C93_8 C17_8 1_555 1_555
C94_8 C89_8 1_555 1_555
C98_8 C93_8 1_555 1_555
C99_8 C16_8 1_555 1_555
H56_8 C99_8 1_555 1_555
H57_8 C98_8 1_555 1_555
C7_8 C8_8 1_555 1_555
C13_8 C14_8 1_555 1_555
O36_8 C18_8 1_555 1_555
O37_8 C19_8 1_555 1_555
C48_8 C53_8 1_555 1_555
C49_8 C54_8 1_555 1_555
C78_8 C83_8 1_555 1_555
C79_8 C84_8 1_555 1_555
C88_8 C93_8 1_555 1_555
C94_8 C98_8 1_555 1_555
C94_8 C99_8 1_555 1_555
O5_20 Zn20_10 1_555 1_555
O6_20 Zn11_10 1_555 1_555
O13_16 Zn20_10 1_555 1_555
O23_16 Zn11_10 1_555 1_555
O33_16 Zn20_10 1_555 1_555
O41_16 Zn11_10 1_555 1_555
O17_16 Zn20_2 1_555 1_555
O27_16 Zn11_2 1_555 1_555
O35_16 Zn20_2 1_555 1_555
O43_16 Zn11_2 1_555 1_555
O45_20 Zn20_2 1_555 1_555
O47_20 Zn11_2 1_555 1_555
O15_16 Zn14_2 1_555 1_555
O25_16 Zn5_2 1_555 1_555
O34_16 Zn14_2 1_555 1_555
O42_16 Zn5_2 1_555 1_555
O44_32 Zn14_2 1_555 1_555
O46_32 Zn5_2 1_555 1_555
O15_13 C5_9 1_555 1_555
O25_13 C5_9 1_555 1_555
O33_2 C1_9 1_555 1_555
O41_2 C1_9 1_555 1_555
C1_9 C2_9 1_555 1_555
C2_9 C3_9 1_555 1_555
C3_9 H1_9 1_555 1_555
C4_9 C3_9 1_555 1_555
C5_9 C4_9 1_555 1_555
C6_9 C4_9 1_555 1_555
H2_9 C6_9 1_555 1_555
C7_9 C6_9 1_555 1_555
C8_9 C2_9 1_555 1_555
H3_9 C8_9 1_555 1_555
N1_9 C7_9 1_555 1_555
N2_9 N1_9 1_555 1_555
C9_9 N2_9 1_555 1_555
C10_9 C9_9 1_555 1_555
H4_9 C10_9 1_555 1_555
C11_9 C10_9 1_555 1_555
H5_9 C11_9 1_555 1_555
C12_9 C11_9 1_555 1_555
C13_9 C12_9 1_555 1_555
H6_9 C13_9 1_555 1_555
C14_9 C9_9 1_555 1_555
H7_9 C14_9 1_555 1_555
O7_9 C12_9 1_555 1_555
C15_9 O7_9 1_555 1_555
H8_9 C15_9 1_555 1_555
H9_9 C15_9 1_555 1_555
C16_9 C15_9 1_555 1_555
C17_9 C16_9 1_555 1_555
H10_9 C17_9 1_555 1_555
O13_10 C38_9 1_555 1_555
O17_7 C39_9 1_555 1_555
O17_11 C41_9 1_555 1_555
O17_14 C42_9 1_555 1_555
O23_10 C38_9 1_555 1_555
O27_7 C39_9 1_555 1_555
O27_11 C41_9 1_555 1_555
O27_14 C42_9 1_555 1_555
O34_8 C20_9 1_555 1_555
O33_6 C22_9 1_555 1_555
O42_8 C20_9 1_555 1_555
O41_6 C22_9 1_555 1_555
C18_9 O34_4 1_555 1_555
C19_9 O35_3 1_555 1_555
C20_9 C25_9 1_555 1_555
C21_9 O35_7 1_555 1_555
C22_9 C27_9 1_555 1_555
C23_9 C18_9 1_555 1_555
C24_9 C19_9 1_555 1_555
C25_9 C30_9 1_555 1_555
C26_9 C21_9 1_555 1_555
C27_9 C32_9 1_555 1_555
C28_9 C23_9 1_555 1_555
C29_9 C24_9 1_555 1_555
C30_9 H13_9 1_555 1_555
C31_9 C26_9 1_555 1_555
C32_9 H15_9 1_555 1_555
H11_9 C28_9 1_555 1_555
H12_9 C29_9 1_555 1_555
H14_9 C31_9 1_555 1_555
C33_9 C28_9 1_555 1_555
C34_9 C29_9 1_555 1_555
C35_9 C30_9 1_555 1_555
C36_9 C31_9 1_555 1_555
C37_9 C32_9 1_555 1_555
C38_9 C33_9 1_555 1_555
C39_9 C34_9 1_555 1_555
C40_9 O13_2 1_555 1_555
C41_9 C36_9 1_555 1_555
C42_9 C37_9 1_555 1_555
C43_9 C33_9 1_555 1_555
C44_9 C34_9 1_555 1_555
C45_9 C35_9 1_555 1_555
C46_9 C36_9 1_555 1_555
C47_9 C37_9 1_555 1_555
H16_9 C43_9 1_555 1_555
H17_9 C44_9 1_555 1_555
H18_9 C45_9 1_555 1_555
H19_9 C46_9 1_555 1_555
H20_9 C47_9 1_555 1_555
C48_9 C43_9 1_555 1_555
C49_9 C44_9 1_555 1_555
C50_9 C45_9 1_555 1_555
C51_9 C46_9 1_555 1_555
C52_9 C47_9 1_555 1_555
C53_9 C23_9 1_555 1_555
C54_9 C24_9 1_555 1_555
C55_9 C25_9 1_555 1_555
C56_9 C26_9 1_555 1_555
C57_9 C27_9 1_555 1_555
H21_9 C53_9 1_555 1_555
H22_9 C54_9 1_555 1_555
H23_9 C55_9 1_555 1_555
H24_9 C56_9 1_555 1_555
H25_9 C57_9 1_555 1_555
N3_9 C48_9 1_555 1_555
N4_9 C49_9 1_555 1_555
N5_9 C50_9 1_555 1_555
N6_9 C51_9 1_555 1_555
N7_9 C52_9 1_555 1_555
N8_9 N3_9 1_555 1_555
N9_9 N4_9 1_555 1_555
N10_9 N5_9 1_555 1_555
N11_9 N6_9 1_555 1_555
N12_9 N7_9 1_555 1_555
C58_9 N8_9 1_555 1_555
C59_9 N9_9 1_555 1_555
C60_9 N10_9 1_555 1_555
C61_9 N11_9 1_555 1_555
C62_9 N12_9 1_555 1_555
C63_9 C58_9 1_555 1_555
C64_9 C59_9 1_555 1_555
C65_9 C60_9 1_555 1_555
C66_9 C61_9 1_555 1_555
C67_9 C62_9 1_555 1_555
H26_9 C63_9 1_555 1_555
H27_9 C64_9 1_555 1_555
H28_9 C65_9 1_555 1_555
H29_9 C66_9 1_555 1_555
H30_9 C67_9 1_555 1_555
C68_9 C63_9 1_555 1_555
C69_9 C64_9 1_555 1_555
C70_9 C65_9 1_555 1_555
C71_9 C66_9 1_555 1_555
C72_9 C67_9 1_555 1_555
H31_9 C68_9 1_555 1_555
H32_9 C69_9 1_555 1_555
H33_9 C70_9 1_555 1_555
H34_9 C71_9 1_555 1_555
H35_9 C72_9 1_555 1_555
C73_9 C68_9 1_555 1_555
C74_9 C69_9 1_555 1_555
C75_9 C70_9 1_555 1_555
C76_9 C71_9 1_555 1_555
C77_9 C72_9 1_555 1_555
C78_9 C73_9 1_555 1_555
C79_9 C74_9 1_555 1_555
C80_9 C75_9 1_555 1_555
C81_9 C76_9 1_555 1_555
C82_9 C77_9 1_555 1_555
H36_9 C78_9 1_555 1_555
H37_9 C79_9 1_555 1_555
H38_9 C80_9 1_555 1_555
H39_9 C81_9 1_555 1_555
H40_9 C82_9 1_555 1_555
C83_9 C58_9 1_555 1_555
C84_9 C59_9 1_555 1_555
C85_9 C60_9 1_555 1_555
C86_9 C61_9 1_555 1_555
C87_9 C62_9 1_555 1_555
H41_9 C83_9 1_555 1_555
H42_9 C84_9 1_555 1_555
H43_9 C85_9 1_555 1_555
H44_9 C86_9 1_555 1_555
H45_9 C87_9 1_555 1_555
O48_9 C73_9 1_555 1_555
O49_9 C74_9 1_555 1_555
O50_9 C75_9 1_555 1_555
O51_9 C76_9 1_555 1_555
O52_9 C77_9 1_555 1_555
C88_9 O48_9 1_555 1_555
C89_9 O49_9 1_555 1_555
C90_9 O50_9 1_555 1_555
C91_9 O51_9 1_555 1_555
C92_9 O52_9 1_555 1_555
H46_9 C88_9 1_555 1_555
H47_9 C89_9 1_555 1_555
H48_9 C90_9 1_555 1_555
H49_9 C91_9 1_555 1_555
H50_9 C92_9 1_555 1_555
H51_9 C88_9 1_555 1_555
H52_9 C89_9 1_555 1_555
H53_9 C90_9 1_555 1_555
H54_9 C91_9 1_555 1_555
H55_9 C92_9 1_555 1_555
C93_9 C17_9 1_555 1_555
C94_9 C89_9 1_555 1_555
C95_9 C90_9 1_555 1_555
C96_9 C91_9 1_555 1_555
C97_9 C92_9 1_555 1_555
C98_9 C93_9 1_555 1_555
C99_9 C16_9 1_555 1_555
C100_9 C95_9 1_555 1_555
C101_9 C96_9 1_555 1_555
C102_9 C95_9 1_555 1_555
H56_9 C99_9 1_555 1_555
H57_9 C98_9 1_555 1_555
H58_9 C100_9 1_555 1_555
H59_9 C102_9 1_555 1_555
H60_9 C101_9 1_555 1_555
C7_9 C8_9 1_555 1_555
C13_9 C14_9 1_555 1_555
O23_2 C40_9 1_555 1_555
O42_4 C18_9 1_555 1_555
O43_3 C19_9 1_555 1_555
O43_7 C21_9 1_555 1_555
C35_9 C40_9 1_555 1_555
C48_9 C53_9 1_555 1_555
C49_9 C54_9 1_555 1_555
C50_9 C55_9 1_555 1_555
C51_9 C56_9 1_555 1_555
C52_9 C57_9 1_555 1_555
C78_9 C83_9 1_555 1_555
C79_9 C84_9 1_555 1_555
C80_9 C85_9 1_555 1_555
C81_9 C86_9 1_555 1_555
C82_9 C87_9 1_555 1_555
C88_9 C93_9 1_555 1_555
C94_9 C98_9 1_555 1_555
C94_9 C99_9 1_555 1_555
C96_9 C100_9 1_555 1_555
C97_9 C101_9 1_555 1_555
C97_9 C102_9 1_555 1_555
O15_14 C5_10 1_555 1_555
O25_14 C5_10 1_555 1_555
O33 C1_10 1_555 1_555
O41 C1_10 1_555 1_555
C1_10 C2_10 1_555 1_555
C2_10 C3_10 1_555 1_555
C3_10 H1_10 1_555 1_555
C4_10 C3_10 1_555 1_555
C5_10 C4_10 1_555 1_555
C6_10 C4_10 1_555 1_555
H2_10 C6_10 1_555 1_555
C7_10 C6_10 1_555 1_555
C8_10 C2_10 1_555 1_555
H3_10 C8_10 1_555 1_555
N1_10 C7_10 1_555 1_555
N2_10 N1_10 1_555 1_555
C9_10 N2_10 1_555 1_555
C10_10 C9_10 1_555 1_555
H4_10 C10_10 1_555 1_555
C11_10 C10_10 1_555 1_555
H5_10 C11_10 1_555 1_555
C12_10 C11_10 1_555 1_555
C13_10 C12_10 1_555 1_555
H6_10 C13_10 1_555 1_555
C14_10 C9_10 1_555 1_555
H7_10 C14_10 1_555 1_555
O7_10 C12_10 1_555 1_555
C15_10 O7_10 1_555 1_555
H8_10 C15_10 1_555 1_555
H9_10 C15_10 1_555 1_555
C16_10 C15_10 1_555 1_555
C17_10 C16_10 1_555 1_555
H10_10 C17_10 1_555 1_555
O13_11 C38_10 1_555 1_555
O17_5 C39_10 1_555 1_555
O17_10 C41_10 1_555 1_555
O17_13 C42_10 1_555 1_555
O23_11 C38_10 1_555 1_555
O27_5 C39_10 1_555 1_555
O27_10 C41_10 1_555 1_555
O27_13 C42_10 1_555 1_555
O34_6 C20_10 1_555 1_555
O33_8 C22_10 1_555 1_555
O42_6 C20_10 1_555 1_555
O41_8 C22_10 1_555 1_555
C18_10 O34_3 1_555 1_555
C19_10 O35_4 1_555 1_555
C20_10 C25_10 1_555 1_555
C21_10 O35_5 1_555 1_555
C22_10 C27_10 1_555 1_555
C23_10 C18_10 1_555 1_555
C24_10 C19_10 1_555 1_555
C25_10 C30_10 1_555 1_555
C26_10 C21_10 1_555 1_555
C27_10 C32_10 1_555 1_555
C28_10 C23_10 1_555 1_555
C29_10 C24_10 1_555 1_555
C30_10 H13_10 1_555 1_555
C31_10 C26_10 1_555 1_555
C32_10 H15_10 1_555 1_555
H11_10 C28_10 1_555 1_555
H12_10 C29_10 1_555 1_555
H14_10 C31_10 1_555 1_555
C33_10 C28_10 1_555 1_555
C34_10 C29_10 1_555 1_555
C35_10 C30_10 1_555 1_555
C36_10 C31_10 1_555 1_555
C37_10 C32_10 1_555 1_555
C38_10 C33_10 1_555 1_555
C39_10 C34_10 1_555 1_555
C40_10 O13 1_555 1_555
C41_10 C36_10 1_555 1_555
C42_10 C37_10 1_555 1_555
C43_10 C33_10 1_555 1_555
C44_10 C34_10 1_555 1_555
C45_10 C35_10 1_555 1_555
C46_10 C36_10 1_555 1_555
C47_10 C37_10 1_555 1_555
H16_10 C43_10 1_555 1_555
H17_10 C44_10 1_555 1_555
H18_10 C45_10 1_555 1_555
H19_10 C46_10 1_555 1_555
H20_10 C47_10 1_555 1_555
C48_10 C43_10 1_555 1_555
C49_10 C44_10 1_555 1_555
C50_10 C45_10 1_555 1_555
C51_10 C46_10 1_555 1_555
C52_10 C47_10 1_555 1_555
C53_10 C23_10 1_555 1_555
C54_10 C24_10 1_555 1_555
C55_10 C25_10 1_555 1_555
C56_10 C26_10 1_555 1_555
C57_10 C27_10 1_555 1_555
H21_10 C53_10 1_555 1_555
H22_10 C54_10 1_555 1_555
H23_10 C55_10 1_555 1_555
H24_10 C56_10 1_555 1_555
H25_10 C57_10 1_555 1_555
N3_10 C48_10 1_555 1_555
N4_10 C49_10 1_555 1_555
N5_10 C50_10 1_555 1_555
N6_10 C51_10 1_555 1_555
N7_10 C52_10 1_555 1_555
N8_10 N3_10 1_555 1_555
N9_10 N4_10 1_555 1_555
N10_10 N5_10 1_555 1_555
N11_10 N6_10 1_555 1_555
N12_10 N7_10 1_555 1_555
C58_10 N8_10 1_555 1_555
C59_10 N9_10 1_555 1_555
C60_10 N10_10 1_555 1_555
C61_10 N11_10 1_555 1_555
C62_10 N12_10 1_555 1_555
C63_10 C58_10 1_555 1_555
C64_10 C59_10 1_555 1_555
C65_10 C60_10 1_555 1_555
C66_10 C61_10 1_555 1_555
C67_10 C62_10 1_555 1_555
H26_10 C63_10 1_555 1_555
H27_10 C64_10 1_555 1_555
H28_10 C65_10 1_555 1_555
H29_10 C66_10 1_555 1_555
H30_10 C67_10 1_555 1_555
C68_10 C63_10 1_555 1_555
C69_10 C64_10 1_555 1_555
C70_10 C65_10 1_555 1_555
C71_10 C66_10 1_555 1_555
C72_10 C67_10 1_555 1_555
H31_10 C68_10 1_555 1_555
H32_10 C69_10 1_555 1_555
H33_10 C70_10 1_555 1_555
H34_10 C71_10 1_555 1_555
H35_10 C72_10 1_555 1_555
C73_10 C68_10 1_555 1_555
C74_10 C69_10 1_555 1_555
C75_10 C70_10 1_555 1_555
C76_10 C71_10 1_555 1_555
C77_10 C72_10 1_555 1_555
C78_10 C73_10 1_555 1_555
C79_10 C74_10 1_555 1_555
C80_10 C75_10 1_555 1_555
C81_10 C76_10 1_555 1_555
C82_10 C77_10 1_555 1_555
H36_10 C78_10 1_555 1_555
H37_10 C79_10 1_555 1_555
H38_10 C80_10 1_555 1_555
H39_10 C81_10 1_555 1_555
H40_10 C82_10 1_555 1_555
C83_10 C58_10 1_555 1_555
C84_10 C59_10 1_555 1_555
C85_10 C60_10 1_555 1_555
C86_10 C61_10 1_555 1_555
C87_10 C62_10 1_555 1_555
H41_10 C83_10 1_555 1_555
H42_10 C84_10 1_555 1_555
H43_10 C85_10 1_555 1_555
H44_10 C86_10 1_555 1_555
H45_10 C87_10 1_555 1_555
O48_10 C73_10 1_555 1_555
O49_10 C74_10 1_555 1_555
O50_10 C75_10 1_555 1_555
O51_10 C76_10 1_555 1_555
O52_10 C77_10 1_555 1_555
C88_10 O48_10 1_555 1_555
C89_10 O49_10 1_555 1_555
C90_10 O50_10 1_555 1_555
C91_10 O51_10 1_555 1_555
C92_10 O52_10 1_555 1_555
H46_10 C88_10 1_555 1_555
H47_10 C89_10 1_555 1_555
H48_10 C90_10 1_555 1_555
H49_10 C91_10 1_555 1_555
H50_10 C92_10 1_555 1_555
H51_10 C88_10 1_555 1_555
H52_10 C89_10 1_555 1_555
H53_10 C90_10 1_555 1_555
H54_10 C91_10 1_555 1_555
H55_10 C92_10 1_555 1_555
C93_10 C17_10 1_555 1_555
C94_10 C89_10 1_555 1_555
C95_10 C90_10 1_555 1_555
C96_10 C91_10 1_555 1_555
C97_10 C92_10 1_555 1_555
C98_10 C93_10 1_555 1_555
C99_10 C16_10 1_555 1_555
C100_10 C95_10 1_555 1_555
C101_10 C96_10 1_555 1_555
C102_10 C95_10 1_555 1_555
H56_10 C99_10 1_555 1_555
H57_10 C98_10 1_555 1_555
H58_10 C100_10 1_555 1_555
H59_10 C102_10 1_555 1_555
H60_10 C101_10 1_555 1_555
C7_10 C8_10 1_555 1_555
C13_10 C14_10 1_555 1_555
O23 C40_10 1_555 1_555
O42_3 C18_10 1_555 1_555
O43_4 C19_10 1_555 1_555
O43_5 C21_10 1_555 1_555
C35_10 C40_10 1_555 1_555
C48_10 C53_10 1_555 1_555
C49_10 C54_10 1_555 1_555
C50_10 C55_10 1_555 1_555
C51_10 C56_10 1_555 1_555
C52_10 C57_10 1_555 1_555
C78_10 C83_10 1_555 1_555
C79_10 C84_10 1_555 1_555
C80_10 C85_10 1_555 1_555
C81_10 C86_10 1_555 1_555
C82_10 C87_10 1_555 1_555
C88_10 C93_10 1_555 1_555
C94_10 C98_10 1_555 1_555
C94_10 C99_10 1_555 1_555
C96_10 C100_10 1_555 1_555
C97_10 C101_10 1_555 1_555
C97_10 C102_10 1_555 1_555
O15_15 C5_11 1_555 1_555
O25_15 C5_11 1_555 1_555
O33_4 C1_11 1_555 1_555
O41_4 C1_11 1_555 1_555
C1_11 C2_11 1_555 1_555
C2_11 C3_11 1_555 1_555
C3_11 H1_11 1_555 1_555
C4_11 C3_11 1_555 1_555
C5_11 C4_11 1_555 1_555
C6_11 C4_11 1_555 1_555
H2_11 C6_11 1_555 1_555
C7_11 C6_11 1_555 1_555
C8_11 C2_11 1_555 1_555
H3_11 C8_11 1_555 1_555
N1_11 C7_11 1_555 1_555
N2_11 N1_11 1_555 1_555
C9_11 N2_11 1_555 1_555
C10_11 C9_11 1_555 1_555
H4_11 C10_11 1_555 1_555
C11_11 C10_11 1_555 1_555
H5_11 C11_11 1_555 1_555
C12_11 C11_11 1_555 1_555
C13_11 C12_11 1_555 1_555
H6_11 C13_11 1_555 1_555
C14_11 C9_11 1_555 1_555
H7_11 C14_11 1_555 1_555
O7_11 C12_11 1_555 1_555
C15_11 O7_11 1_555 1_555
H8_11 C15_11 1_555 1_555
H9_11 C15_11 1_555 1_555
C16_11 C15_11 1_555 1_555
C17_11 C16_11 1_555 1_555
H10_11 C17_11 1_555 1_555
O13_9 C38_11 1_555 1_555
O17_6 C39_11 1_555 1_555
O17_12 C41_11 1_555 1_555
O17_16 C42_11 1_555 1_555
O23_9 C38_11 1_555 1_555
O27_6 C39_11 1_555 1_555
O27_12 C41_11 1_555 1_555
O27_16 C42_11 1_555 1_555
O34_5 C20_11 1_555 1_555
O33_7 C22_11 1_555 1_555
O42_5 C20_11 1_555 1_555
O41_7 C22_11 1_555 1_555
C18_11 O34_2 1_555 1_555
C19_11 O35 1_555 1_555
C20_11 C25_11 1_555 1_555
C21_11 O35_6 1_555 1_555
C22_11 C27_11 1_555 1_555
C23_11 C18_11 1_555 1_555
C24_11 C19_11 1_555 1_555
C25_11 C30_11 1_555 1_555
C26_11 C21_11 1_555 1_555
C27_11 C32_11 1_555 1_555
C28_11 C23_11 1_555 1_555
C29_11 C24_11 1_555 1_555
C30_11 H13_11 1_555 1_555
C31_11 C26_11 1_555 1_555
C32_11 H15_11 1_555 1_555
H11_11 C28_11 1_555 1_555
H12_11 C29_11 1_555 1_555
H14_11 C31_11 1_555 1_555
C33_11 C28_11 1_555 1_555
C34_11 C29_11 1_555 1_555
C35_11 C30_11 1_555 1_555
C36_11 C31_11 1_555 1_555
C37_11 C32_11 1_555 1_555
C38_11 C33_11 1_555 1_555
C39_11 C34_11 1_555 1_555
C40_11 O13_4 1_555 1_555
C41_11 C36_11 1_555 1_555
C42_11 C37_11 1_555 1_555
C43_11 C33_11 1_555 1_555
C44_11 C34_11 1_555 1_555
C45_11 C35_11 1_555 1_555
C46_11 C36_11 1_555 1_555
C47_11 C37_11 1_555 1_555
H16_11 C43_11 1_555 1_555
H17_11 C44_11 1_555 1_555
H18_11 C45_11 1_555 1_555
H19_11 C46_11 1_555 1_555
H20_11 C47_11 1_555 1_555
C48_11 C43_11 1_555 1_555
C49_11 C44_11 1_555 1_555
C50_11 C45_11 1_555 1_555
C51_11 C46_11 1_555 1_555
C52_11 C47_11 1_555 1_555
C53_11 C23_11 1_555 1_555
C54_11 C24_11 1_555 1_555
C55_11 C25_11 1_555 1_555
C56_11 C26_11 1_555 1_555
C57_11 C27_11 1_555 1_555
H21_11 C53_11 1_555 1_555
H22_11 C54_11 1_555 1_555
H23_11 C55_11 1_555 1_555
H24_11 C56_11 1_555 1_555
H25_11 C57_11 1_555 1_555
N3_11 C48_11 1_555 1_555
N4_11 C49_11 1_555 1_555
N5_11 C50_11 1_555 1_555
N6_11 C51_11 1_555 1_555
N7_11 C52_11 1_555 1_555
N8_11 N3_11 1_555 1_555
N9_11 N4_11 1_555 1_555
N10_11 N5_11 1_555 1_555
N11_11 N6_11 1_555 1_555
N12_11 N7_11 1_555 1_555
C58_11 N8_11 1_555 1_555
C59_11 N9_11 1_555 1_555
C60_11 N10_11 1_555 1_555
C61_11 N11_11 1_555 1_555
C62_11 N12_11 1_555 1_555
C63_11 C58_11 1_555 1_555
C64_11 C59_11 1_555 1_555
C65_11 C60_11 1_555 1_555
C66_11 C61_11 1_555 1_555
C67_11 C62_11 1_555 1_555
H26_11 C63_11 1_555 1_555
H27_11 C64_11 1_555 1_555
H28_11 C65_11 1_555 1_555
H29_11 C66_11 1_555 1_555
H30_11 C67_11 1_555 1_555
C68_11 C63_11 1_555 1_555
C69_11 C64_11 1_555 1_555
C70_11 C65_11 1_555 1_555
C71_11 C66_11 1_555 1_555
C72_11 C67_11 1_555 1_555
H31_11 C68_11 1_555 1_555
H32_11 C69_11 1_555 1_555
H33_11 C70_11 1_555 1_555
H34_11 C71_11 1_555 1_555
H35_11 C72_11 1_555 1_555
C73_11 C68_11 1_555 1_555
C74_11 C69_11 1_555 1_555
C75_11 C70_11 1_555 1_555
C76_11 C71_11 1_555 1_555
C77_11 C72_11 1_555 1_555
C78_11 C73_11 1_555 1_555
C79_11 C74_11 1_555 1_555
C80_11 C75_11 1_555 1_555
C81_11 C76_11 1_555 1_555
C82_11 C77_11 1_555 1_555
H36_11 C78_11 1_555 1_555
H37_11 C79_11 1_555 1_555
H38_11 C80_11 1_555 1_555
H39_11 C81_11 1_555 1_555
H40_11 C82_11 1_555 1_555
C83_11 C58_11 1_555 1_555
C84_11 C59_11 1_555 1_555
C85_11 C60_11 1_555 1_555
C86_11 C61_11 1_555 1_555
C87_11 C62_11 1_555 1_555
H41_11 C83_11 1_555 1_555
H42_11 C84_11 1_555 1_555
H43_11 C85_11 1_555 1_555
H44_11 C86_11 1_555 1_555
H45_11 C87_11 1_555 1_555
O48_11 C73_11 1_555 1_555
O49_11 C74_11 1_555 1_555
O50_11 C75_11 1_555 1_555
O51_11 C76_11 1_555 1_555
O52_11 C77_11 1_555 1_555
C88_11 O48_11 1_555 1_555
C89_11 O49_11 1_555 1_555
C90_11 O50_11 1_555 1_555
C91_11 O51_11 1_555 1_555
C92_11 O52_11 1_555 1_555
H46_11 C88_11 1_555 1_555
H47_11 C89_11 1_555 1_555
H48_11 C90_11 1_555 1_555
H49_11 C91_11 1_555 1_555
H50_11 C92_11 1_555 1_555
H51_11 C88_11 1_555 1_555
H52_11 C89_11 1_555 1_555
H53_11 C90_11 1_555 1_555
H54_11 C91_11 1_555 1_555
H55_11 C92_11 1_555 1_555
C93_11 C17_11 1_555 1_555
C94_11 C89_11 1_555 1_555
C95_11 C90_11 1_555 1_555
C96_11 C91_11 1_555 1_555
C97_11 C92_11 1_555 1_555
C98_11 C93_11 1_555 1_555
C99_11 C16_11 1_555 1_555
C100_11 C95_11 1_555 1_555
C101_11 C96_11 1_555 1_555
C102_11 C95_11 1_555 1_555
H56_11 C99_11 1_555 1_555
H57_11 C98_11 1_555 1_555
H58_11 C100_11 1_555 1_555
H59_11 C102_11 1_555 1_555
H60_11 C101_11 1_555 1_555
C7_11 C8_11 1_555 1_555
C13_11 C14_11 1_555 1_555
O23_4 C40_11 1_555 1_555
O42_2 C18_11 1_555 1_555
O43 C19_11 1_555 1_555
O43_6 C21_11 1_555 1_555
C35_11 C40_11 1_555 1_555
C48_11 C53_11 1_555 1_555
C49_11 C54_11 1_555 1_555
C50_11 C55_11 1_555 1_555
C51_11 C56_11 1_555 1_555
C52_11 C57_11 1_555 1_555
C78_11 C83_11 1_555 1_555
C79_11 C84_11 1_555 1_555
C80_11 C85_11 1_555 1_555
C81_11 C86_11 1_555 1_555
C82_11 C87_11 1_555 1_555
C88_11 C93_11 1_555 1_555
C94_11 C98_11 1_555 1_555
C94_11 C99_11 1_555 1_555
C96_11 C100_11 1_555 1_555
C97_11 C101_11 1_555 1_555
C97_11 C102_11 1_555 1_555
O15_16 C5_12 1_555 1_555
O25_16 C5_12 1_555 1_555
O33_3 C1_12 1_555 1_555
O41_3 C1_12 1_555 1_555
C1_12 C2_12 1_555 1_555
C2_12 C3_12 1_555 1_555
C3_12 H1_12 1_555 1_555
C4_12 C3_12 1_555 1_555
C5_12 C4_12 1_555 1_555
C6_12 C4_12 1_555 1_555
H2_12 C6_12 1_555 1_555
C7_12 C6_12 1_555 1_555
C8_12 C2_12 1_555 1_555
H3_12 C8_12 1_555 1_555
N1_12 C7_12 1_555 1_555
N2_12 N1_12 1_555 1_555
C9_12 N2_12 1_555 1_555
C10_12 C9_12 1_555 1_555
H4_12 C10_12 1_555 1_555
C11_12 C10_12 1_555 1_555
H5_12 C11_12 1_555 1_555
C12_12 C11_12 1_555 1_555
C13_12 C12_12 1_555 1_555
H6_12 C13_12 1_555 1_555
C14_12 C9_12 1_555 1_555
H7_12 C14_12 1_555 1_555
O7_12 C12_12 1_555 1_555
C15_12 O7_12 1_555 1_555
H8_12 C15_12 1_555 1_555
H9_12 C15_12 1_555 1_555
C16_12 C15_12 1_555 1_555
C17_12 C16_12 1_555 1_555
H10_12 C17_12 1_555 1_555
O13_12 C38_12 1_555 1_555
O17_8 C39_12 1_555 1_555
O17_9 C41_12 1_555 1_555
O17_15 C42_12 1_555 1_555
O23_12 C38_12 1_555 1_555
O27_8 C39_12 1_555 1_555
O27_9 C41_12 1_555 1_555
O27_15 C42_12 1_555 1_555
O34_7 C20_12 1_555 1_555
O33_5 C22_12 1_555 1_555
O42_7 C20_12 1_555 1_555
O41_5 C22_12 1_555 1_555
C18_12 O34 1_555 1_555
C19_12 O35_2 1_555 1_555
C20_12 C25_12 1_555 1_555
C21_12 O35_8 1_555 1_555
C22_12 C27_12 1_555 1_555
C23_12 C18_12 1_555 1_555
C24_12 C19_12 1_555 1_555
C25_12 C30_12 1_555 1_555
C26_12 C21_12 1_555 1_555
C27_12 C32_12 1_555 1_555
C28_12 C23_12 1_555 1_555
C29_12 C24_12 1_555 1_555
C30_12 H13_12 1_555 1_555
C31_12 C26_12 1_555 1_555
C32_12 H15_12 1_555 1_555
H11_12 C28_12 1_555 1_555
H12_12 C29_12 1_555 1_555
H14_12 C31_12 1_555 1_555
C33_12 C28_12 1_555 1_555
C34_12 C29_12 1_555 1_555
C35_12 C30_12 1_555 1_555
C36_12 C31_12 1_555 1_555
C37_12 C32_12 1_555 1_555
C38_12 C33_12 1_555 1_555
C39_12 C34_12 1_555 1_555
C40_12 O13_3 1_555 1_555
C41_12 C36_12 1_555 1_555
C42_12 C37_12 1_555 1_555
C43_12 C33_12 1_555 1_555
C44_12 C34_12 1_555 1_555
C45_12 C35_12 1_555 1_555
C46_12 C36_12 1_555 1_555
C47_12 C37_12 1_555 1_555
H16_12 C43_12 1_555 1_555
H17_12 C44_12 1_555 1_555
H18_12 C45_12 1_555 1_555
H19_12 C46_12 1_555 1_555
H20_12 C47_12 1_555 1_555
C48_12 C43_12 1_555 1_555
C49_12 C44_12 1_555 1_555
C50_12 C45_12 1_555 1_555
C51_12 C46_12 1_555 1_555
C52_12 C47_12 1_555 1_555
C53_12 C23_12 1_555 1_555
C54_12 C24_12 1_555 1_555
C55_12 C25_12 1_555 1_555
C56_12 C26_12 1_555 1_555
C57_12 C27_12 1_555 1_555
H21_12 C53_12 1_555 1_555
H22_12 C54_12 1_555 1_555
H23_12 C55_12 1_555 1_555
H24_12 C56_12 1_555 1_555
H25_12 C57_12 1_555 1_555
N3_12 C48_12 1_555 1_555
N4_12 C49_12 1_555 1_555
N5_12 C50_12 1_555 1_555
N6_12 C51_12 1_555 1_555
N7_12 C52_12 1_555 1_555
N8_12 N3_12 1_555 1_555
N9_12 N4_12 1_555 1_555
N10_12 N5_12 1_555 1_555
N11_12 N6_12 1_555 1_555
N12_12 N7_12 1_555 1_555
C58_12 N8_12 1_555 1_555
C59_12 N9_12 1_555 1_555
C60_12 N10_12 1_555 1_555
C61_12 N11_12 1_555 1_555
C62_12 N12_12 1_555 1_555
C63_12 C58_12 1_555 1_555
C64_12 C59_12 1_555 1_555
C65_12 C60_12 1_555 1_555
C66_12 C61_12 1_555 1_555
C67_12 C62_12 1_555 1_555
H26_12 C63_12 1_555 1_555
H27_12 C64_12 1_555 1_555
H28_12 C65_12 1_555 1_555
H29_12 C66_12 1_555 1_555
H30_12 C67_12 1_555 1_555
C68_12 C63_12 1_555 1_555
C69_12 C64_12 1_555 1_555
C70_12 C65_12 1_555 1_555
C71_12 C66_12 1_555 1_555
C72_12 C67_12 1_555 1_555
H31_12 C68_12 1_555 1_555
H32_12 C69_12 1_555 1_555
H33_12 C70_12 1_555 1_555
H34_12 C71_12 1_555 1_555
H35_12 C72_12 1_555 1_555
C73_12 C68_12 1_555 1_555
C74_12 C69_12 1_555 1_555
C75_12 C70_12 1_555 1_555
C76_12 C71_12 1_555 1_555
C77_12 C72_12 1_555 1_555
C78_12 C73_12 1_555 1_555
C79_12 C74_12 1_555 1_555
C80_12 C75_12 1_555 1_555
C81_12 C76_12 1_555 1_555
C82_12 C77_12 1_555 1_555
H36_12 C78_12 1_555 1_555
H37_12 C79_12 1_555 1_555
H38_12 C80_12 1_555 1_555
H39_12 C81_12 1_555 1_555
H40_12 C82_12 1_555 1_555
C83_12 C58_12 1_555 1_555
C84_12 C59_12 1_555 1_555
C85_12 C60_12 1_555 1_555
C86_12 C61_12 1_555 1_555
C87_12 C62_12 1_555 1_555
H41_12 C83_12 1_555 1_555
H42_12 C84_12 1_555 1_555
H43_12 C85_12 1_555 1_555
H44_12 C86_12 1_555 1_555
H45_12 C87_12 1_555 1_555
O48_12 C73_12 1_555 1_555
O49_12 C74_12 1_555 1_555
O50_12 C75_12 1_555 1_555
O51_12 C76_12 1_555 1_555
O52_12 C77_12 1_555 1_555
C88_12 O48_12 1_555 1_555
C89_12 O49_12 1_555 1_555
C90_12 O50_12 1_555 1_555
C91_12 O51_12 1_555 1_555
C92_12 O52_12 1_555 1_555
H46_12 C88_12 1_555 1_555
H47_12 C89_12 1_555 1_555
H48_12 C90_12 1_555 1_555
H49_12 C91_12 1_555 1_555
H50_12 C92_12 1_555 1_555
H51_12 C88_12 1_555 1_555
H52_12 C89_12 1_555 1_555
H53_12 C90_12 1_555 1_555
H54_12 C91_12 1_555 1_555
H55_12 C92_12 1_555 1_555
C93_12 C17_12 1_555 1_555
C94_12 C89_12 1_555 1_555
C95_12 C90_12 1_555 1_555
C96_12 C91_12 1_555 1_555
C97_12 C92_12 1_555 1_555
C98_12 C93_12 1_555 1_555
C99_12 C16_12 1_555 1_555
C100_12 C95_12 1_555 1_555
C101_12 C96_12 1_555 1_555
C102_12 C95_12 1_555 1_555
H56_12 C99_12 1_555 1_555
H57_12 C98_12 1_555 1_555
H58_12 C100_12 1_555 1_555
H59_12 C102_12 1_555 1_555
H60_12 C101_12 1_555 1_555
C7_12 C8_12 1_555 1_555
C13_12 C14_12 1_555 1_555
O23_3 C40_12 1_555 1_555
O42 C18_12 1_555 1_555
O43_2 C19_12 1_555 1_555
O43_8 C21_12 1_555 1_555
C35_12 C40_12 1_555 1_555
C48_12 C53_12 1_555 1_555
C49_12 C54_12 1_555 1_555
C50_12 C55_12 1_555 1_555
C51_12 C56_12 1_555 1_555
C52_12 C57_12 1_555 1_555
C78_12 C83_12 1_555 1_555
C79_12 C84_12 1_555 1_555
C80_12 C85_12 1_555 1_555
C81_12 C86_12 1_555 1_555
C82_12 C87_12 1_555 1_555
C88_12 C93_12 1_555 1_555
C94_12 C98_12 1_555 1_555
C94_12 C99_12 1_555 1_555
C96_12 C100_12 1_555 1_555
C97_12 C101_12 1_555 1_555
C97_12 C102_12 1_555 1_555
O17_3 C41_13 1_555 1_555
O13_15 C42_13 1_555 1_555
O27_3 C41_13 1_555 1_555
O23_15 C42_13 1_555 1_555
O34_12 C20_13 1_555 1_555
O33_10 C22_13 1_555 1_555
O42_12 C20_13 1_555 1_555
O41_10 C22_13 1_555 1_555
C20_13 C25_13 1_555 1_555
C21_13 O35_11 1_555 1_555
C22_13 C27_13 1_555 1_555
C25_13 C30_13 1_555 1_555
C26_13 C21_13 1_555 1_555
C27_13 C32_13 1_555 1_555
C30_13 H13_13 1_555 1_555
C31_13 C26_13 1_555 1_555
C32_13 H15_13 1_555 1_555
H14_13 C31_13 1_555 1_555
C35_13 C30_13 1_555 1_555
C36_13 C31_13 1_555 1_555
C37_13 C32_13 1_555 1_555
C40_13 O13_6 1_555 1_555
C41_13 C36_13 1_555 1_555
C42_13 C37_13 1_555 1_555
C45_13 C35_13 1_555 1_555
C46_13 C36_13 1_555 1_555
C47_13 C37_13 1_555 1_555
H18_13 C45_13 1_555 1_555
H19_13 C46_13 1_555 1_555
H20_13 C47_13 1_555 1_555
C50_13 C45_13 1_555 1_555
C51_13 C46_13 1_555 1_555
C52_13 C47_13 1_555 1_555
C55_13 C25_13 1_555 1_555
C56_13 C26_13 1_555 1_555
C57_13 C27_13 1_555 1_555
H23_13 C55_13 1_555 1_555
H24_13 C56_13 1_555 1_555
H25_13 C57_13 1_555 1_555
N5_13 C50_13 1_555 1_555
N6_13 C51_13 1_555 1_555
N7_13 C52_13 1_555 1_555
N10_13 N5_13 1_555 1_555
N11_13 N6_13 1_555 1_555
N12_13 N7_13 1_555 1_555
C60_13 N10_13 1_555 1_555
C61_13 N11_13 1_555 1_555
C62_13 N12_13 1_555 1_555
C65_13 C60_13 1_555 1_555
C66_13 C61_13 1_555 1_555
C67_13 C62_13 1_555 1_555
H28_13 C65_13 1_555 1_555
H29_13 C66_13 1_555 1_555
H30_13 C67_13 1_555 1_555
C70_13 C65_13 1_555 1_555
C71_13 C66_13 1_555 1_555
C72_13 C67_13 1_555 1_555
H33_13 C70_13 1_555 1_555
H34_13 C71_13 1_555 1_555
H35_13 C72_13 1_555 1_555
C75_13 C70_13 1_555 1_555
C76_13 C71_13 1_555 1_555
C77_13 C72_13 1_555 1_555
C80_13 C75_13 1_555 1_555
C81_13 C76_13 1_555 1_555
C82_13 C77_13 1_555 1_555
H38_13 C80_13 1_555 1_555
H39_13 C81_13 1_555 1_555
H40_13 C82_13 1_555 1_555
C85_13 C60_13 1_555 1_555
C86_13 C61_13 1_555 1_555
C87_13 C62_13 1_555 1_555
H43_13 C85_13 1_555 1_555
H44_13 C86_13 1_555 1_555
H45_13 C87_13 1_555 1_555
O50_13 C75_13 1_555 1_555
O51_13 C76_13 1_555 1_555
O52_13 C77_13 1_555 1_555
C90_13 O50_13 1_555 1_555
C91_13 O51_13 1_555 1_555
C92_13 O52_13 1_555 1_555
H48_13 C90_13 1_555 1_555
H49_13 C91_13 1_555 1_555
H50_13 C92_13 1_555 1_555
H53_13 C90_13 1_555 1_555
H54_13 C91_13 1_555 1_555
H55_13 C92_13 1_555 1_555
C95_13 C90_13 1_555 1_555
C96_13 C91_13 1_555 1_555
C97_13 C92_13 1_555 1_555
C100_13 C95_13 1_555 1_555
C101_13 C96_13 1_555 1_555
C102_13 C95_13 1_555 1_555
H58_13 C100_13 1_555 1_555
H59_13 C102_13 1_555 1_555
H60_13 C101_13 1_555 1_555
O23_6 C40_13 1_555 1_555
O43_11 C21_13 1_555 1_555
C35_13 C40_13 1_555 1_555
C50_13 C55_13 1_555 1_555
C51_13 C56_13 1_555 1_555
C52_13 C57_13 1_555 1_555
C80_13 C85_13 1_555 1_555
C81_13 C86_13 1_555 1_555
C82_13 C87_13 1_555 1_555
C96_13 C100_13 1_555 1_555
C97_13 C101_13 1_555 1_555
C97_13 C102_13 1_555 1_555
O17_2 C41_14 1_555 1_555
O13_14 C42_14 1_555 1_555
O27_2 C41_14 1_555 1_555
O23_14 C42_14 1_555 1_555
O34_10 C20_14 1_555 1_555
O33_12 C22_14 1_555 1_555
O42_10 C20_14 1_555 1_555
O41_12 C22_14 1_555 1_555
C20_14 C25_14 1_555 1_555
C21_14 O35_9 1_555 1_555
C22_14 C27_14 1_555 1_555
C25_14 C30_14 1_555 1_555
C26_14 C21_14 1_555 1_555
C27_14 C32_14 1_555 1_555
C30_14 H13_14 1_555 1_555
C31_14 C26_14 1_555 1_555
C32_14 H15_14 1_555 1_555
H14_14 C31_14 1_555 1_555
C35_14 C30_14 1_555 1_555
C36_14 C31_14 1_555 1_555
C37_14 C32_14 1_555 1_555
C40_14 O13_5 1_555 1_555
C41_14 C36_14 1_555 1_555
C42_14 C37_14 1_555 1_555
C45_14 C35_14 1_555 1_555
C46_14 C36_14 1_555 1_555
C47_14 C37_14 1_555 1_555
H18_14 C45_14 1_555 1_555
H19_14 C46_14 1_555 1_555
H20_14 C47_14 1_555 1_555
C50_14 C45_14 1_555 1_555
C51_14 C46_14 1_555 1_555
C52_14 C47_14 1_555 1_555
C55_14 C25_14 1_555 1_555
C56_14 C26_14 1_555 1_555
C57_14 C27_14 1_555 1_555
H23_14 C55_14 1_555 1_555
H24_14 C56_14 1_555 1_555
H25_14 C57_14 1_555 1_555
N5_14 C50_14 1_555 1_555
N6_14 C51_14 1_555 1_555
N7_14 C52_14 1_555 1_555
N10_14 N5_14 1_555 1_555
N11_14 N6_14 1_555 1_555
N12_14 N7_14 1_555 1_555
C60_14 N10_14 1_555 1_555
C61_14 N11_14 1_555 1_555
C62_14 N12_14 1_555 1_555
C65_14 C60_14 1_555 1_555
C66_14 C61_14 1_555 1_555
C67_14 C62_14 1_555 1_555
H28_14 C65_14 1_555 1_555
H29_14 C66_14 1_555 1_555
H30_14 C67_14 1_555 1_555
C70_14 C65_14 1_555 1_555
C71_14 C66_14 1_555 1_555
C72_14 C67_14 1_555 1_555
H33_14 C70_14 1_555 1_555
H34_14 C71_14 1_555 1_555
H35_14 C72_14 1_555 1_555
C75_14 C70_14 1_555 1_555
C76_14 C71_14 1_555 1_555
C77_14 C72_14 1_555 1_555
C80_14 C75_14 1_555 1_555
C81_14 C76_14 1_555 1_555
C82_14 C77_14 1_555 1_555
H38_14 C80_14 1_555 1_555
H39_14 C81_14 1_555 1_555
H40_14 C82_14 1_555 1_555
C85_14 C60_14 1_555 1_555
C86_14 C61_14 1_555 1_555
C87_14 C62_14 1_555 1_555
H43_14 C85_14 1_555 1_555
H44_14 C86_14 1_555 1_555
H45_14 C87_14 1_555 1_555
O50_14 C75_14 1_555 1_555
O51_14 C76_14 1_555 1_555
O52_14 C77_14 1_555 1_555
C90_14 O50_14 1_555 1_555
C91_14 O51_14 1_555 1_555
C92_14 O52_14 1_555 1_555
H48_14 C90_14 1_555 1_555
H49_14 C91_14 1_555 1_555
H50_14 C92_14 1_555 1_555
H53_14 C90_14 1_555 1_555
H54_14 C91_14 1_555 1_555
H55_14 C92_14 1_555 1_555
C95_14 C90_14 1_555 1_555
C96_14 C91_14 1_555 1_555
C97_14 C92_14 1_555 1_555
C100_14 C95_14 1_555 1_555
C101_14 C96_14 1_555 1_555
C102_14 C95_14 1_555 1_555
H58_14 C100_14 1_555 1_555
H59_14 C102_14 1_555 1_555
H60_14 C101_14 1_555 1_555
O23_5 C40_14 1_555 1_555
O43_9 C21_14 1_555 1_555
C35_14 C40_14 1_555 1_555
C50_14 C55_14 1_555 1_555
C51_14 C56_14 1_555 1_555
C52_14 C57_14 1_555 1_555
C80_14 C85_14 1_555 1_555
C81_14 C86_14 1_555 1_555
C82_14 C87_14 1_555 1_555
C96_14 C100_14 1_555 1_555
C97_14 C101_14 1_555 1_555
C97_14 C102_14 1_555 1_555
O17_4 C41_15 1_555 1_555
O13_16 C42_15 1_555 1_555
O27_4 C41_15 1_555 1_555
O23_16 C42_15 1_555 1_555
O34_9 C20_15 1_555 1_555
O33_11 C22_15 1_555 1_555
O42_9 C20_15 1_555 1_555
O41_11 C22_15 1_555 1_555
C20_15 C25_15 1_555 1_555
C21_15 O35_10 1_555 1_555
C22_15 C27_15 1_555 1_555
C25_15 C30_15 1_555 1_555
C26_15 C21_15 1_555 1_555
C27_15 C32_15 1_555 1_555
C30_15 H13_15 1_555 1_555
C31_15 C26_15 1_555 1_555
C32_15 H15_15 1_555 1_555
H14_15 C31_15 1_555 1_555
C35_15 C30_15 1_555 1_555
C36_15 C31_15 1_555 1_555
C37_15 C32_15 1_555 1_555
C40_15 O13_8 1_555 1_555
C41_15 C36_15 1_555 1_555
C42_15 C37_15 1_555 1_555
C45_15 C35_15 1_555 1_555
C46_15 C36_15 1_555 1_555
C47_15 C37_15 1_555 1_555
H18_15 C45_15 1_555 1_555
H19_15 C46_15 1_555 1_555
H20_15 C47_15 1_555 1_555
C50_15 C45_15 1_555 1_555
C51_15 C46_15 1_555 1_555
C52_15 C47_15 1_555 1_555
C55_15 C25_15 1_555 1_555
C56_15 C26_15 1_555 1_555
C57_15 C27_15 1_555 1_555
H23_15 C55_15 1_555 1_555
H24_15 C56_15 1_555 1_555
H25_15 C57_15 1_555 1_555
N5_15 C50_15 1_555 1_555
N6_15 C51_15 1_555 1_555
N7_15 C52_15 1_555 1_555
N10_15 N5_15 1_555 1_555
N11_15 N6_15 1_555 1_555
N12_15 N7_15 1_555 1_555
C60_15 N10_15 1_555 1_555
C61_15 N11_15 1_555 1_555
C62_15 N12_15 1_555 1_555
C65_15 C60_15 1_555 1_555
C66_15 C61_15 1_555 1_555
C67_15 C62_15 1_555 1_555
H28_15 C65_15 1_555 1_555
H29_15 C66_15 1_555 1_555
H30_15 C67_15 1_555 1_555
C70_15 C65_15 1_555 1_555
C71_15 C66_15 1_555 1_555
C72_15 C67_15 1_555 1_555
H33_15 C70_15 1_555 1_555
H34_15 C71_15 1_555 1_555
H35_15 C72_15 1_555 1_555
C75_15 C70_15 1_555 1_555
C76_15 C71_15 1_555 1_555
C77_15 C72_15 1_555 1_555
C80_15 C75_15 1_555 1_555
C81_15 C76_15 1_555 1_555
C82_15 C77_15 1_555 1_555
H38_15 C80_15 1_555 1_555
H39_15 C81_15 1_555 1_555
H40_15 C82_15 1_555 1_555
C85_15 C60_15 1_555 1_555
C86_15 C61_15 1_555 1_555
C87_15 C62_15 1_555 1_555
H43_15 C85_15 1_555 1_555
H44_15 C86_15 1_555 1_555
H45_15 C87_15 1_555 1_555
O50_15 C75_15 1_555 1_555
O51_15 C76_15 1_555 1_555
O52_15 C77_15 1_555 1_555
C90_15 O50_15 1_555 1_555
C91_15 O51_15 1_555 1_555
C92_15 O52_15 1_555 1_555
H48_15 C90_15 1_555 1_555
H49_15 C91_15 1_555 1_555
H50_15 C92_15 1_555 1_555
H53_15 C90_15 1_555 1_555
H54_15 C91_15 1_555 1_555
H55_15 C92_15 1_555 1_555
C95_15 C90_15 1_555 1_555
C96_15 C91_15 1_555 1_555
C97_15 C92_15 1_555 1_555
C100_15 C95_15 1_555 1_555
C101_15 C96_15 1_555 1_555
C102_15 C95_15 1_555 1_555
H58_15 C100_15 1_555 1_555
H59_15 C102_15 1_555 1_555
H60_15 C101_15 1_555 1_555
O23_8 C40_15 1_555 1_555
O43_10 C21_15 1_555 1_555
C35_15 C40_15 1_555 1_555
C50_15 C55_15 1_555 1_555
C51_15 C56_15 1_555 1_555
C52_15 C57_15 1_555 1_555
C80_15 C85_15 1_555 1_555
C81_15 C86_15 1_555 1_555
C82_15 C87_15 1_555 1_555
C96_15 C100_15 1_555 1_555
C97_15 C101_15 1_555 1_555
C97_15 C102_15 1_555 1_555
O17 C41_16 1_555 1_555
O13_13 C42_16 1_555 1_555
O27 C41_16 1_555 1_555
O23_13 C42_16 1_555 1_555
O34_11 C20_16 1_555 1_555
O33_9 C22_16 1_555 1_555
O42_11 C20_16 1_555 1_555
O41_9 C22_16 1_555 1_555
C20_16 C25_16 1_555 1_555
C21_16 O35_12 1_555 1_555
C22_16 C27_16 1_555 1_555
C25_16 C30_16 1_555 1_555
C26_16 C21_16 1_555 1_555
C27_16 C32_16 1_555 1_555
C30_16 H13_16 1_555 1_555
C31_16 C26_16 1_555 1_555
C32_16 H15_16 1_555 1_555
H14_16 C31_16 1_555 1_555
C35_16 C30_16 1_555 1_555
C36_16 C31_16 1_555 1_555
C37_16 C32_16 1_555 1_555
C40_16 O13_7 1_555 1_555
C41_16 C36_16 1_555 1_555
C42_16 C37_16 1_555 1_555
C45_16 C35_16 1_555 1_555
C46_16 C36_16 1_555 1_555
C47_16 C37_16 1_555 1_555
H18_16 C45_16 1_555 1_555
H19_16 C46_16 1_555 1_555
H20_16 C47_16 1_555 1_555
C50_16 C45_16 1_555 1_555
C51_16 C46_16 1_555 1_555
C52_16 C47_16 1_555 1_555
C55_16 C25_16 1_555 1_555
C56_16 C26_16 1_555 1_555
C57_16 C27_16 1_555 1_555
H23_16 C55_16 1_555 1_555
H24_16 C56_16 1_555 1_555
H25_16 C57_16 1_555 1_555
N5_16 C50_16 1_555 1_555
N6_16 C51_16 1_555 1_555
N7_16 C52_16 1_555 1_555
N10_16 N5_16 1_555 1_555
N11_16 N6_16 1_555 1_555
N12_16 N7_16 1_555 1_555
C60_16 N10_16 1_555 1_555
C61_16 N11_16 1_555 1_555
C62_16 N12_16 1_555 1_555
C65_16 C60_16 1_555 1_555
C66_16 C61_16 1_555 1_555
C67_16 C62_16 1_555 1_555
H28_16 C65_16 1_555 1_555
H29_16 C66_16 1_555 1_555
H30_16 C67_16 1_555 1_555
C70_16 C65_16 1_555 1_555
C71_16 C66_16 1_555 1_555
C72_16 C67_16 1_555 1_555
H33_16 C70_16 1_555 1_555
H34_16 C71_16 1_555 1_555
H35_16 C72_16 1_555 1_555
C75_16 C70_16 1_555 1_555
C76_16 C71_16 1_555 1_555
C77_16 C72_16 1_555 1_555
C80_16 C75_16 1_555 1_555
C81_16 C76_16 1_555 1_555
C82_16 C77_16 1_555 1_555
H38_16 C80_16 1_555 1_555
H39_16 C81_16 1_555 1_555
H40_16 C82_16 1_555 1_555
C85_16 C60_16 1_555 1_555
C86_16 C61_16 1_555 1_555
C87_16 C62_16 1_555 1_555
H43_16 C85_16 1_555 1_555
H44_16 C86_16 1_555 1_555
H45_16 C87_16 1_555 1_555
O50_16 C75_16 1_555 1_555
O51_16 C76_16 1_555 1_555
O52_16 C77_16 1_555 1_555
C90_16 O50_16 1_555 1_555
C91_16 O51_16 1_555 1_555
C92_16 O52_16 1_555 1_555
H48_16 C90_16 1_555 1_555
H49_16 C91_16 1_555 1_555
H50_16 C92_16 1_555 1_555
H53_16 C90_16 1_555 1_555
H54_16 C91_16 1_555 1_555
H55_16 C92_16 1_555 1_555
C95_16 C90_16 1_555 1_555
C96_16 C91_16 1_555 1_555
C97_16 C92_16 1_555 1_555
C100_16 C95_16 1_555 1_555
C101_16 C96_16 1_555 1_555
C102_16 C95_16 1_555 1_555
H58_16 C100_16 1_555 1_555
H59_16 C102_16 1_555 1_555
H60_16 C101_16 1_555 1_555
O23_7 C40_16 1_555 1_555
O43_12 C21_16 1_555 1_555
C35_16 C40_16 1_555 1_555
C50_16 C55_16 1_555 1_555
C51_16 C56_16 1_555 1_555
C52_16 C57_16 1_555 1_555
C80_16 C85_16 1_555 1_555
C81_16 C86_16 1_555 1_555
C82_16 C87_16 1_555 1_555
C96_16 C100_16 1_555 1_555
C97_16 C101_16 1_555 1_555
C97_16 C102_16 1_555 1_555
O15 C5_13 1_555 1_555
O25 C5_13 1_555 1_555
O33_14 C1_13 1_555 1_555
O41_14 C1_13 1_555 1_555
C1_13 C2_13 1_555 1_555
C2_13 C3_13 1_555 1_555
C3_13 H1_13 1_555 1_555
C4_13 C3_13 1_555 1_555
C5_13 C4_13 1_555 1_555
C6_13 C4_13 1_555 1_555
H2_13 C6_13 1_555 1_555
C7_13 C6_13 1_555 1_555
C8_13 C2_13 1_555 1_555
H3_13 C8_13 1_555 1_555
N1_13 C7_13 1_555 1_555
N2_13 N1_13 1_555 1_555
C9_13 N2_13 1_555 1_555
C10_13 C9_13 1_555 1_555
H4_13 C10_13 1_555 1_555
C11_13 C10_13 1_555 1_555
H5_13 C11_13 1_555 1_555
C12_13 C11_13 1_555 1_555
C13_13 C12_13 1_555 1_555
H6_13 C13_13 1_555 1_555
C14_13 C9_13 1_555 1_555
H7_13 C14_13 1_555 1_555
O7_13 C12_13 1_555 1_555
C15_13 O7_13 1_555 1_555
H8_13 C15_13 1_555 1_555
H9_13 C15_13 1_555 1_555
C16_13 C15_13 1_555 1_555
C17_13 C16_13 1_555 1_555
H10_13 C17_13 1_555 1_555
O15_7 C38_13 1_555 1_555
O15_10 C39_13 1_555 1_555
O25_7 C38_13 1_555 1_555
O25_10 C39_13 1_555 1_555
C18_13 O34_16 1_555 1_555
C19_13 O35_15 1_555 1_555
C23_13 C18_13 1_555 1_555
C24_13 C19_13 1_555 1_555
C28_13 C23_13 1_555 1_555
C29_13 C24_13 1_555 1_555
H11_13 C28_13 1_555 1_555
H12_13 C29_13 1_555 1_555
C33_13 C28_13 1_555 1_555
C34_13 C29_13 1_555 1_555
C38_13 C33_13 1_555 1_555
C39_13 C34_13 1_555 1_555
C43_13 C33_13 1_555 1_555
C44_13 C34_13 1_555 1_555
H16_13 C43_13 1_555 1_555
H17_13 C44_13 1_555 1_555
C48_13 C43_13 1_555 1_555
C49_13 C44_13 1_555 1_555
C53_13 C23_13 1_555 1_555
C54_13 C24_13 1_555 1_555
H21_13 C53_13 1_555 1_555
H22_13 C54_13 1_555 1_555
N3_13 C48_13 1_555 1_555
N4_13 C49_13 1_555 1_555
N8_13 N3_13 1_555 1_555
N9_13 N4_13 1_555 1_555
C58_13 N8_13 1_555 1_555
C59_13 N9_13 1_555 1_555
C63_13 C58_13 1_555 1_555
C64_13 C59_13 1_555 1_555
H26_13 C63_13 1_555 1_555
H27_13 C64_13 1_555 1_555
C68_13 C63_13 1_555 1_555
C69_13 C64_13 1_555 1_555
H31_13 C68_13 1_555 1_555
H32_13 C69_13 1_555 1_555
C73_13 C68_13 1_555 1_555
C74_13 C69_13 1_555 1_555
C78_13 C73_13 1_555 1_555
C79_13 C74_13 1_555 1_555
H36_13 C78_13 1_555 1_555
H37_13 C79_13 1_555 1_555
C83_13 C58_13 1_555 1_555
C84_13 C59_13 1_555 1_555
H41_13 C83_13 1_555 1_555
H42_13 C84_13 1_555 1_555
O48_13 C73_13 1_555 1_555
O49_13 C74_13 1_555 1_555
C88_13 O48_13 1_555 1_555
C89_13 O49_13 1_555 1_555
H46_13 C88_13 1_555 1_555
H47_13 C89_13 1_555 1_555
H51_13 C88_13 1_555 1_555
H52_13 C89_13 1_555 1_555
C93_13 C17_13 1_555 1_555
C94_13 C89_13 1_555 1_555
C98_13 C93_13 1_555 1_555
C99_13 C16_13 1_555 1_555
H56_13 C99_13 1_555 1_555
H57_13 C98_13 1_555 1_555
C7_13 C8_13 1_555 1_555
C13_13 C14_13 1_555 1_555
O42_16 C18_13 1_555 1_555
O43_15 C19_13 1_555 1_555
C48_13 C53_13 1_555 1_555
C49_13 C54_13 1_555 1_555
C78_13 C83_13 1_555 1_555
C79_13 C84_13 1_555 1_555
C88_13 C93_13 1_555 1_555
C94_13 C98_13 1_555 1_555
C94_13 C99_13 1_555 1_555
O15_2 C5_14 1_555 1_555
O25_2 C5_14 1_555 1_555
O33_13 C1_14 1_555 1_555
O41_13 C1_14 1_555 1_555
C1_14 C2_14 1_555 1_555
C2_14 C3_14 1_555 1_555
C3_14 H1_14 1_555 1_555
C4_14 C3_14 1_555 1_555
C5_14 C4_14 1_555 1_555
C6_14 C4_14 1_555 1_555
H2_14 C6_14 1_555 1_555
C7_14 C6_14 1_555 1_555
C8_14 C2_14 1_555 1_555
H3_14 C8_14 1_555 1_555
N1_14 C7_14 1_555 1_555
N2_14 N1_14 1_555 1_555
C9_14 N2_14 1_555 1_555
C10_14 C9_14 1_555 1_555
H4_14 C10_14 1_555 1_555
C11_14 C10_14 1_555 1_555
H5_14 C11_14 1_555 1_555
C12_14 C11_14 1_555 1_555
C13_14 C12_14 1_555 1_555
H6_14 C13_14 1_555 1_555
C14_14 C9_14 1_555 1_555
H7_14 C14_14 1_555 1_555
O7_14 C12_14 1_555 1_555
C15_14 O7_14 1_555 1_555
H8_14 C15_14 1_555 1_555
H9_14 C15_14 1_555 1_555
C16_14 C15_14 1_555 1_555
C17_14 C16_14 1_555 1_555
H10_14 C17_14 1_555 1_555
O15_5 C38_14 1_555 1_555
O15_11 C39_14 1_555 1_555
O25_5 C38_14 1_555 1_555
O25_11 C39_14 1_555 1_555
C18_14 O34_15 1_555 1_555
C19_14 O35_16 1_555 1_555
C23_14 C18_14 1_555 1_555
C24_14 C19_14 1_555 1_555
C28_14 C23_14 1_555 1_555
C29_14 C24_14 1_555 1_555
H11_14 C28_14 1_555 1_555
H12_14 C29_14 1_555 1_555
C33_14 C28_14 1_555 1_555
C34_14 C29_14 1_555 1_555
C38_14 C33_14 1_555 1_555
C39_14 C34_14 1_555 1_555
C43_14 C33_14 1_555 1_555
C44_14 C34_14 1_555 1_555
H16_14 C43_14 1_555 1_555
H17_14 C44_14 1_555 1_555
C48_14 C43_14 1_555 1_555
C49_14 C44_14 1_555 1_555
C53_14 C23_14 1_555 1_555
C54_14 C24_14 1_555 1_555
H21_14 C53_14 1_555 1_555
H22_14 C54_14 1_555 1_555
N3_14 C48_14 1_555 1_555
N4_14 C49_14 1_555 1_555
N8_14 N3_14 1_555 1_555
N9_14 N4_14 1_555 1_555
C58_14 N8_14 1_555 1_555
C59_14 N9_14 1_555 1_555
C63_14 C58_14 1_555 1_555
C64_14 C59_14 1_555 1_555
H26_14 C63_14 1_555 1_555
H27_14 C64_14 1_555 1_555
C68_14 C63_14 1_555 1_555
C69_14 C64_14 1_555 1_555
H31_14 C68_14 1_555 1_555
H32_14 C69_14 1_555 1_555
C73_14 C68_14 1_555 1_555
C74_14 C69_14 1_555 1_555
C78_14 C73_14 1_555 1_555
C79_14 C74_14 1_555 1_555
H36_14 C78_14 1_555 1_555
H37_14 C79_14 1_555 1_555
C83_14 C58_14 1_555 1_555
C84_14 C59_14 1_555 1_555
H41_14 C83_14 1_555 1_555
H42_14 C84_14 1_555 1_555
O48_14 C73_14 1_555 1_555
O49_14 C74_14 1_555 1_555
C88_14 O48_14 1_555 1_555
C89_14 O49_14 1_555 1_555
H46_14 C88_14 1_555 1_555
H47_14 C89_14 1_555 1_555
H51_14 C88_14 1_555 1_555
H52_14 C89_14 1_555 1_555
C93_14 C17_14 1_555 1_555
C94_14 C89_14 1_555 1_555
C98_14 C93_14 1_555 1_555
C99_14 C16_14 1_555 1_555
H56_14 C99_14 1_555 1_555
H57_14 C98_14 1_555 1_555
C7_14 C8_14 1_555 1_555
C13_14 C14_14 1_555 1_555
O42_15 C18_14 1_555 1_555
O43_16 C19_14 1_555 1_555
C48_14 C53_14 1_555 1_555
C49_14 C54_14 1_555 1_555
C78_14 C83_14 1_555 1_555
C79_14 C84_14 1_555 1_555
C88_14 C93_14 1_555 1_555
C94_14 C98_14 1_555 1_555
C94_14 C99_14 1_555 1_555
O15_3 C5_15 1_555 1_555
O25_3 C5_15 1_555 1_555
O33_16 C1_15 1_555 1_555
O41_16 C1_15 1_555 1_555
C1_15 C2_15 1_555 1_555
C2_15 C3_15 1_555 1_555
C3_15 H1_15 1_555 1_555
C4_15 C3_15 1_555 1_555
C5_15 C4_15 1_555 1_555
C6_15 C4_15 1_555 1_555
H2_15 C6_15 1_555 1_555
C7_15 C6_15 1_555 1_555
C8_15 C2_15 1_555 1_555
H3_15 C8_15 1_555 1_555
N1_15 C7_15 1_555 1_555
N2_15 N1_15 1_555 1_555
C9_15 N2_15 1_555 1_555
C10_15 C9_15 1_555 1_555
H4_15 C10_15 1_555 1_555
C11_15 C10_15 1_555 1_555
H5_15 C11_15 1_555 1_555
C12_15 C11_15 1_555 1_555
C13_15 C12_15 1_555 1_555
H6_15 C13_15 1_555 1_555
C14_15 C9_15 1_555 1_555
H7_15 C14_15 1_555 1_555
O7_15 C12_15 1_555 1_555
C15_15 O7_15 1_555 1_555
H8_15 C15_15 1_555 1_555
H9_15 C15_15 1_555 1_555
C16_15 C15_15 1_555 1_555
C17_15 C16_15 1_555 1_555
H10_15 C17_15 1_555 1_555
O15_6 C38_15 1_555 1_555
O15_9 C39_15 1_555 1_555
O25_6 C38_15 1_555 1_555
O25_9 C39_15 1_555 1_555
C18_15 O34_14 1_555 1_555
C19_15 O35_13 1_555 1_555
C23_15 C18_15 1_555 1_555
C24_15 C19_15 1_555 1_555
C28_15 C23_15 1_555 1_555
C29_15 C24_15 1_555 1_555
H11_15 C28_15 1_555 1_555
H12_15 C29_15 1_555 1_555
C33_15 C28_15 1_555 1_555
C34_15 C29_15 1_555 1_555
C38_15 C33_15 1_555 1_555
C39_15 C34_15 1_555 1_555
C43_15 C33_15 1_555 1_555
C44_15 C34_15 1_555 1_555
H16_15 C43_15 1_555 1_555
H17_15 C44_15 1_555 1_555
C48_15 C43_15 1_555 1_555
C49_15 C44_15 1_555 1_555
C53_15 C23_15 1_555 1_555
C54_15 C24_15 1_555 1_555
H21_15 C53_15 1_555 1_555
H22_15 C54_15 1_555 1_555
N3_15 C48_15 1_555 1_555
N4_15 C49_15 1_555 1_555
N8_15 N3_15 1_555 1_555
N9_15 N4_15 1_555 1_555
C58_15 N8_15 1_555 1_555
C59_15 N9_15 1_555 1_555
C63_15 C58_15 1_555 1_555
C64_15 C59_15 1_555 1_555
H26_15 C63_15 1_555 1_555
H27_15 C64_15 1_555 1_555
C68_15 C63_15 1_555 1_555
C69_15 C64_15 1_555 1_555
H31_15 C68_15 1_555 1_555
H32_15 C69_15 1_555 1_555
C73_15 C68_15 1_555 1_555
C74_15 C69_15 1_555 1_555
C78_15 C73_15 1_555 1_555
C79_15 C74_15 1_555 1_555
H36_15 C78_15 1_555 1_555
H37_15 C79_15 1_555 1_555
C83_15 C58_15 1_555 1_555
C84_15 C59_15 1_555 1_555
H41_15 C83_15 1_555 1_555
H42_15 C84_15 1_555 1_555
O48_15 C73_15 1_555 1_555
O49_15 C74_15 1_555 1_555
C88_15 O48_15 1_555 1_555
C89_15 O49_15 1_555 1_555
H46_15 C88_15 1_555 1_555
H47_15 C89_15 1_555 1_555
H51_15 C88_15 1_555 1_555
H52_15 C89_15 1_555 1_555
C93_15 C17_15 1_555 1_555
C94_15 C89_15 1_555 1_555
C98_15 C93_15 1_555 1_555
C99_15 C16_15 1_555 1_555
H56_15 C99_15 1_555 1_555
H57_15 C98_15 1_555 1_555
C7_15 C8_15 1_555 1_555
C13_15 C14_15 1_555 1_555
O42_14 C18_15 1_555 1_555
O43_13 C19_15 1_555 1_555
C48_15 C53_15 1_555 1_555
C49_15 C54_15 1_555 1_555
C78_15 C83_15 1_555 1_555
C79_15 C84_15 1_555 1_555
C88_15 C93_15 1_555 1_555
C94_15 C98_15 1_555 1_555
C94_15 C99_15 1_555 1_555
O15_4 C5_16 1_555 1_555
O25_4 C5_16 1_555 1_555
O33_15 C1_16 1_555 1_555
O41_15 C1_16 1_555 1_555
C1_16 C2_16 1_555 1_555
C2_16 C3_16 1_555 1_555
C3_16 H1_16 1_555 1_555
C4_16 C3_16 1_555 1_555
C5_16 C4_16 1_555 1_555
C6_16 C4_16 1_555 1_555
H2_16 C6_16 1_555 1_555
C7_16 C6_16 1_555 1_555
C8_16 C2_16 1_555 1_555
H3_16 C8_16 1_555 1_555
N1_16 C7_16 1_555 1_555
N2_16 N1_16 1_555 1_555
C9_16 N2_16 1_555 1_555
C10_16 C9_16 1_555 1_555
H4_16 C10_16 1_555 1_555
C11_16 C10_16 1_555 1_555
H5_16 C11_16 1_555 1_555
C12_16 C11_16 1_555 1_555
C13_16 C12_16 1_555 1_555
H6_16 C13_16 1_555 1_555
C14_16 C9_16 1_555 1_555
H7_16 C14_16 1_555 1_555
O7_16 C12_16 1_555 1_555
C15_16 O7_16 1_555 1_555
H8_16 C15_16 1_555 1_555
H9_16 C15_16 1_555 1_555
C16_16 C15_16 1_555 1_555
C17_16 C16_16 1_555 1_555
H10_16 C17_16 1_555 1_555
O15_8 C38_16 1_555 1_555
O15_12 C39_16 1_555 1_555
O25_8 C38_16 1_555 1_555
O25_12 C39_16 1_555 1_555
C18_16 O34_13 1_555 1_555
C19_16 O35_14 1_555 1_555
C23_16 C18_16 1_555 1_555
C24_16 C19_16 1_555 1_555
C28_16 C23_16 1_555 1_555
C29_16 C24_16 1_555 1_555
H11_16 C28_16 1_555 1_555
H12_16 C29_16 1_555 1_555
C33_16 C28_16 1_555 1_555
C34_16 C29_16 1_555 1_555
C38_16 C33_16 1_555 1_555
C39_16 C34_16 1_555 1_555
C43_16 C33_16 1_555 1_555
C44_16 C34_16 1_555 1_555
H16_16 C43_16 1_555 1_555
H17_16 C44_16 1_555 1_555
C48_16 C43_16 1_555 1_555
C49_16 C44_16 1_555 1_555
C53_16 C23_16 1_555 1_555
C54_16 C24_16 1_555 1_555
H21_16 C53_16 1_555 1_555
H22_16 C54_16 1_555 1_555
N3_16 C48_16 1_555 1_555
N4_16 C49_16 1_555 1_555
N8_16 N3_16 1_555 1_555
N9_16 N4_16 1_555 1_555
C58_16 N8_16 1_555 1_555
C59_16 N9_16 1_555 1_555
C63_16 C58_16 1_555 1_555
C64_16 C59_16 1_555 1_555
H26_16 C63_16 1_555 1_555
H27_16 C64_16 1_555 1_555
C68_16 C63_16 1_555 1_555
C69_16 C64_16 1_555 1_555
H31_16 C68_16 1_555 1_555
H32_16 C69_16 1_555 1_555
C73_16 C68_16 1_555 1_555
C74_16 C69_16 1_555 1_555
C78_16 C73_16 1_555 1_555
C79_16 C74_16 1_555 1_555
H36_16 C78_16 1_555 1_555
H37_16 C79_16 1_555 1_555
C83_16 C58_16 1_555 1_555
C84_16 C59_16 1_555 1_555
H41_16 C83_16 1_555 1_555
H42_16 C84_16 1_555 1_555
O48_16 C73_16 1_555 1_555
O49_16 C74_16 1_555 1_555
C88_16 O48_16 1_555 1_555
C89_16 O49_16 1_555 1_555
H46_16 C88_16 1_555 1_555
H47_16 C89_16 1_555 1_555
H51_16 C88_16 1_555 1_555
H52_16 C89_16 1_555 1_555
C93_16 C17_16 1_555 1_555
C94_16 C89_16 1_555 1_555
C98_16 C93_16 1_555 1_555
C99_16 C16_16 1_555 1_555
H56_16 C99_16 1_555 1_555
H57_16 C98_16 1_555 1_555
C7_16 C8_16 1_555 1_555
C13_16 C14_16 1_555 1_555
O42_13 C18_16 1_555 1_555
O43_14 C19_16 1_555 1_555
C48_16 C53_16 1_555 1_555
C49_16 C54_16 1_555 1_555
C78_16 C83_16 1_555 1_555
C79_16 C84_16 1_555 1_555
C88_16 C93_16 1_555 1_555
C94_16 C98_16 1_555 1_555
C94_16 C99_16 1_555 1_555

#END
