
###############################################################################
#
# This file contains modified crystal structure data generated from the
# MOF subset of the Cambridge Structural Database (CSD) v543 
# hosted by the Cambridge Crystallographic Data Centre (CCDC).
#
# This work is licensed under the Creative Commons
# Attribution-NonCommercial-ShareAlike 4.0 International License.
# To view a copy of this license, visit
# http://creativecommons.org/licenses/by-nc-sa/4.0/
# or send a letter to
# Creative Commons, PO Box 1866, Mountain View, CA 94042, USA.
#
# CIF created using the CSD Python API on 29 September 2022
# The structure has been converted into the P1 space group
# The structure has a 3D framework
# The original CSD entry ADATIK is in the tetragonal crystal system
# The framework has been calculated to contain at least 10.0% void space
# The void calculation uses a probe of radius 1.32A, grid spacing 0.4
# H atom positions have been added when not included in the experimental data
# Generated hydrogen atom positions removed from atoms on special positions
#
###############################################################################

data_ADATIK
_chemical_formula_moiety         '(C768 H1072 Cu104 N240 O446)n'
_symmetry_cell_setting           triclinic
_symmetry_space_group_name_H-M   'P 1'
_symmetry_Int_Tables_number      1
_space_group_name_Hall           'P 1'
loop_
_symmetry_equiv_pos_site_id
_symmetry_equiv_pos_as_xyz
1 x,y,z
_cell_length_a                   41.557(3)
_cell_length_b                   41.557(3)
_cell_length_c                   59.003(6)
_cell_angle_alpha                90
_cell_angle_beta                 90
_cell_angle_gamma                90
_cell_volume                     101897
loop_
_atom_site_label
_atom_site_type_symbol
_atom_site_fract_x
_atom_site_fract_y
_atom_site_fract_z
C1 C 0.54063(16) 0.36940(17) 0.37011(12)
C2 C 0.42102(17) 0.39064(16) 0.36908(13)
C3 C 0.44907(13) 0.36307(13) 0.33682(10)
H1 H 0.4288 0.3610 0.3295
C4 C 0.45114(12) 0.37795(11) 0.35787(10)
C5 C 0.48080(15) 0.38097(11) 0.36855(8)
H2 H 0.4822 0.3911 0.3829
C6 C 0.50839(12) 0.36911(12) 0.35818(10)
C7 C 0.50632(13) 0.35423(12) 0.33713(10)
H3 H 0.5252 0.3461 0.3300
C8 C 0.47666(16) 0.35122(13) 0.32645(8)
C9 C 0.4506(2) 0.33367(12) 0.29081(11)
C10 C 0.45770(16) 0.32081(13) 0.26762(8)
C11 C 0.43332(14) 0.30286(19) 0.25761(12)
H4 H 0.4136 0.2997 0.2654
C12 C 0.43785(17) 0.28958(18) 0.23623(12)
H5 H 0.4212 0.2773 0.2294
C13 C 0.46676(19) 0.29426(15) 0.22485(9)
C14 C 0.49114(16) 0.3122(2) 0.23486(10)
H6 H 0.5109 0.3154 0.2271
C15 C 0.48662(16) 0.32549(19) 0.25624(10)
H7 H 0.5033 0.3378 0.2631
C16 C 0.4736(3) 0.28091(16) 0.20249(14)
N1 N 0.4530(2) 0.2680(3) 0.18803(19)
N2 N 0.4699(3) 0.2593(2) 0.17028(17)
N3 N 0.5009(2) 0.2668(2) 0.17390(17)
N4 N 0.5046(2) 0.2807(3) 0.19413(17)
C17 C 0.32264(17) 0.42373(17) 0.41043(13)
C18 C 0.27106(19) 0.49312(16) 0.47017(11)
C19 C 0.29592(10) 0.45758(11) 0.44074(8)
H8 H 0.3164 0.4654 0.4452
C20 C 0.29353(11) 0.43502(11) 0.42342(8)
C21 C 0.26353(14) 0.42354(11) 0.41687(8)
H9 H 0.2619 0.4081 0.4050
C22 C 0.23591(11) 0.43462(13) 0.42763(10)
C23 C 0.23830(11) 0.45717(13) 0.44494(9)
H10 H 0.2194 0.4647 0.4523
C24 C 0.26830(13) 0.46865(11) 0.45150(7)
C25 C 0.17664(16) 0.42539(16) 0.42814(12)
C26 C 0.15065(14) 0.40332(13) 0.41908(10)
C27 C 0.15493(14) 0.38181(18) 0.40129(12)
H11 H 0.1752 0.3804 0.3939
C28 C 0.12955(17) 0.36241(18) 0.39430(13)
H12 H 0.1325 0.3477 0.3821
C29 C 0.09990(15) 0.36452(18) 0.40510(14)
C30 C 0.09562(14) 0.3860(2) 0.42289(15)
H13 H 0.0754 0.3875 0.4303
C31 C 0.12100(16) 0.40542(18) 0.42988(12)
H14 H 0.1181 0.4201 0.4420
C32 C 0.0756(2) 0.34202(17) 0.39618(17)
N5 N 0.0801(2) 0.3269(3) 0.37549(18)
N6 N 0.0539(3) 0.3086(2) 0.37257(18)
N7 N 0.03465(18) 0.3123(2) 0.3907(2)
N8 N 0.0473(2) 0.3325(2) 0.40518(17)
C33 C 0.35421(17) 0.62556(17) 0.40910(13)
C34 C 0.28590(18) 0.5740(2) 0.46948(12)
C35 C 0.32024(12) 0.60212(14) 0.44045(10)
H15 H 0.3384 0.5901 0.4453
C36 C 0.32282(14) 0.62274(13) 0.42199(10)
C37 C 0.29622(12) 0.64029(15) 0.41484(9)
H16 H 0.2980 0.6544 0.4022
C38 C 0.26704(11) 0.63722(13) 0.42615(10)
C39 C 0.26446(13) 0.61661(13) 0.44461(9)
H17 H 0.2445 0.6145 0.4523
C40 C 0.29106(12) 0.59906(16) 0.45176(8)
C41 C 0.23325(15) 0.67367(17) 0.40276(12)
C42 C 0.19865(15) 0.68214(11) 0.39757(11)
C43 C 0.19423(19) 0.70626(14) 0.38155(13)
H18 H 0.2123 0.7161 0.3746
C44 C 0.1633(2) 0.71600(17) 0.37576(14)
H19 H 0.1603 0.7325 0.3648
C45 C 0.1368(2) 0.70170(13) 0.38599(14)
C46 C 0.1413(2) 0.67760(12) 0.40201(15)
H20 H 0.1231 0.6677 0.4090
C47 C 0.17216(19) 0.66778(14) 0.40780(14)
H21 H 0.1752 0.6513 0.4187
Cu1 Cu 0.38926(2) 0.42055(2) 0.405480(18)
Cu2 Cu 0.35322(2) 0.39430(2) 0.373910(18)
Cu3 Cu 0.30935(4) 0.52994(3) 0.5000
Cu4 Cu 0.24674(4) 0.54003(3) 0.5000
Cu5 Cu 0.03150(8) 0.75295(5) 0.34876(5)
Cu7 Cu 0.04527(9) 0.27384(6) 0.35117(5)
N9 N 0.47626(17) 0.33932(17) 0.30438(10)
H22 H 0.4952 0.3349 0.2985
N10 N 0.20605(12) 0.42394(16) 0.41972(12)
H23 H 0.2070 0.4143 0.4065
N11 N 0.23973(15) 0.65416(13) 0.41969(11)
H24 H 0.2233 0.6512 0.4289
N12 N 0.0626(2) 0.7300(2) 0.36805(16)
N13 N 0.0942(2) 0.7308(2) 0.36533(16)
C48 C 0.1044(2) 0.71050(19) 0.38134(15)
N14 N 0.0789(2) 0.6984(2) 0.39334(15)
N15 N 0.0526(2) 0.71090(17) 0.38480(16)
O1 O 0.42517(11) 0.40586(11) 0.38736(9)
O2 O 0.39488(13) 0.38622(11) 0.35838(9)
O3 O 0.54026(10) 0.38651(11) 0.38716(8)
O4 O 0.56334(11) 0.35481(10) 0.36011(8)
O5 O 0.42254(17) 0.3386(2) 0.29695(12)
O6 O 0.31738(11) 0.40795(12) 0.39233(9)
O7 O 0.34814(11) 0.43176(11) 0.41976(8)
O8 O 0.29903(12) 0.49782(11) 0.47857(9)
O9 O 0.24513(11) 0.50468(10) 0.47739(7)
O10 O 0.16990(15) 0.4447(2) 0.44355(14)
O11 O 0.0184(3) 0.7903(3) 0.3736(2)
O12 O 0.35478(11) 0.64255(10) 0.39166(9)
O13 O 0.37764(10) 0.61365(11) 0.42025(8)
O14 O 0.31132(11) 0.56221(12) 0.47674(8)
O15 O 0.25770(12) 0.57155(13) 0.47713(9)
O16 O 0.25598(19) 0.68554(15) 0.39080(13)
O17 O 0.32467(11) 0.37327(11) 0.34748(8)
O18 O 0.41934(12) 0.44329(13) 0.42950(8)
O19 O 0.36098(14) 0.52065(12) 0.5000
O20 O 0.19369(18) 0.54777(14) 0.5000
O22 O 0.0702(3) 0.7676(2) 0.32821(19)
O23 O 0.0897(3) 0.2758(2) 0.3362(2)
O25 O 0.0036(4) 0.2513(3) 0.4117(3)
O26 O 0.0376(2) 0.71310(14) 0.32705(12)
O27 O 0.0402(2) 0.31500(17) 0.32911(13)
O29 O 0.0473(3) 0.2327(2) 0.3739(2)
C49 C 0.36940(17) 0.45937(16) 0.37011(12)
C50 C 0.39064(16) 0.57898(17) 0.36908(13)
C51 C 0.36307(13) 0.55093(13) 0.33682(10)
H25 H 0.3610 0.5712 0.3295
C52 C 0.37795(11) 0.54886(12) 0.35787(10)
C53 C 0.38097(11) 0.51920(15) 0.36855(8)
H26 H 0.3911 0.5178 0.3829
C54 C 0.36911(12) 0.49161(12) 0.35818(10)
C55 C 0.35423(12) 0.49368(13) 0.33713(10)
H27 H 0.3461 0.4748 0.3300
C56 C 0.35122(13) 0.52334(16) 0.32645(8)
C57 C 0.33367(12) 0.5494(2) 0.29081(11)
C58 C 0.32081(13) 0.54230(16) 0.26762(8)
C59 C 0.30286(19) 0.56668(14) 0.25761(12)
H28 H 0.2997 0.5864 0.2654
C60 C 0.28958(18) 0.56215(17) 0.23623(12)
H29 H 0.2773 0.5788 0.2294
C61 C 0.29426(15) 0.53324(19) 0.22485(9)
C62 C 0.3122(2) 0.50886(16) 0.23486(10)
H30 H 0.3154 0.4891 0.2271
C63 C 0.32549(19) 0.51338(16) 0.25624(10)
H31 H 0.3378 0.4967 0.2631
C64 C 0.28091(16) 0.5264(3) 0.20249(14)
N16 N 0.2680(3) 0.5470(2) 0.18803(19)
N17 N 0.2593(2) 0.5301(3) 0.17028(17)
N18 N 0.0301(3) 0.2407(2) 0.32972(17)
N19 N 0.0301(3) 0.2407(2) 0.67028(17)
N20 N 0.2668(2) 0.4991(2) 0.17390(17)
N21 N 0.0009(2) 0.7668(2) 0.32610(17)
N22 N 0.0009(2) 0.7668(2) 0.67390(17)
N23 N 0.2807(3) 0.4954(2) 0.19413(17)
C65 C 0.32264(17) 0.42373(17) 0.58957(13)
C66 C 0.27106(19) 0.49312(16) 0.52983(11)
C67 C 0.29592(10) 0.45758(11) 0.55926(8)
H32 H 0.3164 0.4654 0.5548
C68 C 0.29353(11) 0.43502(11) 0.57658(8)
C69 C 0.26353(14) 0.42354(11) 0.58313(8)
H33 H 0.2619 0.4081 0.5950
C70 C 0.23591(11) 0.43462(13) 0.57237(10)
C71 C 0.23830(11) 0.45717(13) 0.55506(9)
H34 H 0.2194 0.4647 0.5477
C72 C 0.26830(13) 0.46865(11) 0.54850(7)
C73 C 0.17664(16) 0.42539(16) 0.57186(12)
C74 C 0.15065(14) 0.40332(13) 0.58092(10)
C75 C 0.15493(14) 0.38181(18) 0.59871(12)
H35 H 0.1752 0.3804 0.6061
C76 C 0.12955(17) 0.36241(18) 0.60570(13)
H36 H 0.1325 0.3477 0.6179
C77 C 0.09990(15) 0.36452(18) 0.59490(14)
C78 C 0.09562(14) 0.3860(2) 0.57711(15)
H37 H 0.0754 0.3875 0.5697
C79 C 0.12100(16) 0.40542(18) 0.57012(12)
H38 H 0.1181 0.4201 0.5580
C80 C 0.0756(2) 0.34202(17) 0.60382(17)
N24 N 0.0801(2) 0.3269(3) 0.62451(18)
N25 N 0.0539(3) 0.3086(2) 0.62743(18)
N26 N 0.03465(18) 0.3123(2) 0.6093(2)
N27 N 0.0473(2) 0.3325(2) 0.59482(17)
C81 C 0.35421(17) 0.62556(17) 0.59090(13)
C82 C 0.28590(18) 0.5740(2) 0.53052(12)
C83 C 0.32024(12) 0.60212(14) 0.55955(10)
H39 H 0.3384 0.5901 0.5547
C84 C 0.32282(14) 0.62274(13) 0.57801(10)
C85 C 0.29622(12) 0.64029(15) 0.58516(9)
H40 H 0.2980 0.6544 0.5978
C86 C 0.26704(11) 0.63722(13) 0.57385(10)
C87 C 0.26446(13) 0.61661(13) 0.55539(9)
H41 H 0.2445 0.6145 0.5477
C88 C 0.29106(12) 0.59906(16) 0.54824(8)
C89 C 0.23325(15) 0.67367(17) 0.59724(12)
C90 C 0.19865(15) 0.68214(11) 0.60243(11)
C91 C 0.19423(19) 0.70626(14) 0.61845(13)
H42 H 0.2123 0.7161 0.6254
C92 C 0.1633(2) 0.71600(17) 0.62424(14)
H43 H 0.1603 0.7325 0.6352
C93 C 0.1368(2) 0.70170(13) 0.61401(14)
C94 C 0.1413(2) 0.67760(12) 0.59799(15)
H44 H 0.1231 0.6677 0.5910
C95 C 0.17216(19) 0.66778(14) 0.59220(14)
H45 H 0.1752 0.6513 0.5813
Cu8 Cu 0.38926(2) 0.42055(2) 0.594520(18)
Cu9 Cu 0.57945(2) 0.38926(2) 0.405480(18)
Cu10 Cu 0.42055(2) 0.61074(2) 0.405480(18)
Cu11 Cu 0.42055(2) 0.61074(2) 0.594520(18)
Cu12 Cu 0.35322(2) 0.39430(2) 0.626090(18)
Cu13 Cu 0.60570(2) 0.35322(2) 0.373910(18)
Cu14 Cu 0.39430(2) 0.64678(2) 0.373910(18)
Cu15 Cu 0.39430(2) 0.64678(2) 0.626090(18)
Cu16 Cu 0.03150(8) 0.75295(5) 0.65124(5)
Cu17 Cu 0.53150(8) 0.25295(5) 0.15124(5)
Cu18 Cu 0.25295(5) 0.46850(8) 0.15124(5)
Cu21 Cu 0.00754(8) 0.70607(5) 0.39220(5)
Cu22 Cu 0.00754(8) 0.70607(5) 0.60780(5)
Cu23 Cu 0.04527(9) 0.27384(6) 0.64883(5)
Cu24 Cu 0.45473(9) 0.22616(6) 0.14883(5)
Cu26 Cu 0.22616(6) 0.54527(9) 0.14883(5)
N28 N 0.33932(17) 0.52374(17) 0.30438(10)
H46 H 0.3349 0.5048 0.2985
N29 N 0.20605(12) 0.42394(16) 0.58028(12)
H47 H 0.2070 0.4143 0.5935
N30 N 0.23973(15) 0.65416(13) 0.58031(11)
H48 H 0.2233 0.6512 0.5711
N31 N 0.0626(2) 0.7300(2) 0.63195(16)
N32 N 0.0942(2) 0.7308(2) 0.63467(16)
C96 C 0.1044(2) 0.71050(19) 0.61866(15)
N33 N 0.0789(2) 0.6984(2) 0.60666(15)
N34 N 0.0526(2) 0.71090(17) 0.61520(16)
O30 O 0.40586(11) 0.57483(11) 0.38736(9)
O31 O 0.42517(11) 0.40586(11) 0.61264(9)
O32 O 0.38622(11) 0.60512(13) 0.35838(9)
O33 O 0.39488(13) 0.38622(11) 0.64162(9)
O34 O 0.38651(11) 0.45974(10) 0.38716(8)
O35 O 0.38651(11) 0.45974(10) 0.61284(8)
O36 O 0.35481(10) 0.43666(11) 0.36011(8)
O37 O 0.35481(10) 0.43666(11) 0.63989(8)
O38 O 0.3386(2) 0.57746(17) 0.29695(12)
O39 O 0.31738(11) 0.40795(12) 0.60767(9)
O40 O 0.34814(11) 0.43176(11) 0.58024(8)
O41 O 0.29903(12) 0.49782(11) 0.52143(9)
O42 O 0.24513(11) 0.50468(10) 0.52261(7)
O43 O 0.16990(15) 0.4447(2) 0.55645(14)
O44 O 0.0184(3) 0.7903(3) 0.6264(2)
O45 O 0.35478(11) 0.64255(10) 0.60834(9)
O46 O 0.35745(10) 0.35478(11) 0.39166(9)
O47 O 0.35745(10) 0.35478(11) 0.60834(9)
O48 O 0.37764(10) 0.61365(11) 0.57975(8)
O49 O 0.38635(11) 0.37764(10) 0.42025(8)
O50 O 0.38635(11) 0.37764(10) 0.57975(8)
O51 O 0.31132(11) 0.56221(12) 0.52326(8)
O52 O 0.25770(12) 0.57155(13) 0.52287(9)
O53 O 0.25598(19) 0.68554(15) 0.60920(13)
O54 O 0.32467(11) 0.37327(11) 0.65252(8)
O55 O 0.41934(12) 0.44329(13) 0.57050(8)
O56 O 0.0001(2) 0.27860(12) 0.36008(13)
O58 O 0.0001(2) 0.27860(12) 0.63992(13)
O59 O 0.0702(3) 0.7676(2) 0.67179(19)
O60 O 0.0897(3) 0.2758(2) 0.6638(2)
O62 O 0.0036(4) 0.2513(3) 0.5883(3)
O63 O 0.0376(2) 0.71310(14) 0.67295(12)
O64 O 0.0402(2) 0.31500(17) 0.67089(13)
O66 O 0.0473(3) 0.2327(2) 0.6261(2)
H67 H 0.0195694 0.238053 0.596647
H89 H 0.00188404 0.328644 0.356319
H91 H 0.0126849 0.257691 0.426601
Cu6 Cu 0.99246(8) 0.29393(5) 0.39220(5)
O21 O 0.9999(2) 0.72140(12) 0.36008(13)
O24 O 0.9840(4) 0.3248(3) 0.41806(19)
O28 O 0.98734(18) 0.33201(11) 0.36946(14)
Cu19 Cu 0.96850(8) 0.24705(5) 0.34876(5)
Cu20 Cu 0.99246(8) 0.29393(5) 0.60780(5)
Cu25 Cu 0.95473(9) 0.72616(6) 0.35117(5)
N35 N 0.9474(2) 0.28910(17) 0.38480(16)
N36 N 0.9474(2) 0.28910(17) 0.61520(16)
O57 O 0.9999(2) 0.72140(12) 0.63992(13)
O61 O 0.9840(4) 0.3248(3) 0.58194(19)
O65 O 0.98734(18) 0.33201(11) 0.63054(14)
H57 H 0.992985 0.35251 0.622861
H58 H 0.964714 0.333007 0.635905
H68 H 0.983661 0.238581 0.585899
H90 H 0.964714 0.333007 0.364095
H92 H 0.983661 0.238581 0.414101
C1_2 C 0.63060(17) 0.54063(16) 0.37011(12)
C2_2 C 0.60936(16) 0.42102(17) 0.36908(13)
C3_2 C 0.63693(13) 0.44907(13) 0.33682(10)
H1_2 H 0.6390 0.4288 0.3295
C4_2 C 0.62205(11) 0.45114(12) 0.35787(10)
C5_2 C 0.61903(11) 0.48080(15) 0.36855(8)
H2_2 H 0.6089 0.4822 0.3829
C6_2 C 0.63089(12) 0.50839(12) 0.35818(10)
C7_2 C 0.64577(12) 0.50632(13) 0.33713(10)
H3_2 H 0.6539 0.5252 0.3300
C8_2 C 0.64878(13) 0.47666(16) 0.32645(8)
C9_2 C 0.66633(12) 0.4506(2) 0.29081(11)
C10_2 C 0.67919(13) 0.45770(16) 0.26762(8)
C11_2 C 0.69714(19) 0.43332(14) 0.25761(12)
H4_2 H 0.7003 0.4136 0.2654
C12_2 C 0.71042(18) 0.43785(17) 0.23623(12)
H5_2 H 0.7227 0.4212 0.2294
C13_2 C 0.70574(15) 0.46676(19) 0.22485(9)
C14_2 C 0.6878(2) 0.49114(16) 0.23486(10)
H6_2 H 0.6846 0.5109 0.2271
C15_2 C 0.67451(19) 0.48662(16) 0.25624(10)
H7_2 H 0.6622 0.5033 0.2631
C16_2 C 0.71909(16) 0.4736(3) 0.20249(14)
N1_2 N 0.7320(3) 0.4530(2) 0.18803(19)
N2_2 N 0.7407(2) 0.4699(3) 0.17028(17)
N3_2 N 0.7332(2) 0.5009(2) 0.17390(17)
N4_2 N 0.7193(3) 0.5046(2) 0.19413(17)
C17_2 C 0.57627(17) 0.32264(17) 0.41043(13)
C18_2 C 0.50688(16) 0.27106(19) 0.47017(11)
C19_2 C 0.54242(11) 0.29592(10) 0.44074(8)
H8_2 H 0.5346 0.3164 0.4452
C20_2 C 0.56498(11) 0.29353(11) 0.42342(8)
C21_2 C 0.57646(11) 0.26353(14) 0.41687(8)
H9_2 H 0.5919 0.2619 0.4050
C22_2 C 0.56538(13) 0.23591(11) 0.42763(10)
C23_2 C 0.54283(13) 0.23830(11) 0.44494(9)
H10_2 H 0.5353 0.2194 0.4523
C24_2 C 0.53135(11) 0.26830(13) 0.45150(7)
C25_2 C 0.57461(16) 0.17664(16) 0.42814(12)
C26_2 C 0.59668(13) 0.15065(14) 0.41908(10)
C27_2 C 0.61819(18) 0.15493(14) 0.40129(12)
H11_2 H 0.6196 0.1752 0.3939
C28_2 C 0.63759(18) 0.12955(17) 0.39430(13)
H12_2 H 0.6523 0.1325 0.3821
C29_2 C 0.63548(18) 0.09990(15) 0.40510(14)
C30_2 C 0.6140(2) 0.09562(14) 0.42289(15)
H13_2 H 0.6125 0.0754 0.4303
C31_2 C 0.59458(18) 0.12100(16) 0.42988(12)
H14_2 H 0.5799 0.1181 0.4420
C32_2 C 0.65798(17) 0.0756(2) 0.39618(17)
N5_2 N 0.6731(3) 0.0801(2) 0.37549(18)
N6_2 N 0.6914(2) 0.0539(3) 0.37257(18)
N7_2 N 0.6877(2) 0.03465(18) 0.3907(2)
N8_2 N 0.6675(2) 0.0473(2) 0.40518(17)
C33_2 C 0.37444(17) 0.35421(17) 0.40910(13)
C34_2 C 0.4260(2) 0.28590(18) 0.46948(12)
C35_2 C 0.39788(14) 0.32024(12) 0.44045(10)
H15_2 H 0.4099 0.3384 0.4453
C36_2 C 0.37726(13) 0.32282(14) 0.42199(10)
C37_2 C 0.35971(15) 0.29622(12) 0.41484(9)
H16_2 H 0.3456 0.2980 0.4022
C38_2 C 0.36278(13) 0.26704(11) 0.42615(10)
C39_2 C 0.38339(13) 0.26446(13) 0.44461(9)
H17_2 H 0.3855 0.2445 0.4523
C40_2 C 0.40094(16) 0.29106(12) 0.45176(8)
C41_2 C 0.32633(17) 0.23325(15) 0.40276(12)
C42_2 C 0.31786(11) 0.19865(15) 0.39757(11)
C43_2 C 0.29374(14) 0.19423(19) 0.38155(13)
H18_2 H 0.2839 0.2123 0.3746
C44_2 C 0.28400(17) 0.1633(2) 0.37576(14)
H19_2 H 0.2675 0.1603 0.3648
C45_2 C 0.29830(13) 0.1368(2) 0.38599(14)
C46_2 C 0.32240(12) 0.1413(2) 0.40201(15)
H20_2 H 0.3323 0.1231 0.4090
C47_2 C 0.33222(14) 0.17216(19) 0.40780(14)
H21_2 H 0.3487 0.1752 0.4187
Cu3_2 Cu 0.47006(3) 0.30935(4) 0.5000
Cu4_2 Cu 0.45997(3) 0.24674(4) 0.5000
Cu5_2 Cu 0.24705(5) 0.03150(8) 0.34876(5)
Cu7_2 Cu 0.72616(6) 0.04527(9) 0.35117(5)
N9_2 N 0.66068(17) 0.47626(17) 0.30438(10)
H22_2 H 0.6651 0.4952 0.2985
N10_2 N 0.57606(16) 0.20605(12) 0.41972(12)
H23_2 H 0.5857 0.2070 0.4065
N11_2 N 0.34584(13) 0.23973(15) 0.41969(11)
H24_2 H 0.3488 0.2233 0.4289
N12_2 N 0.2700(2) 0.0626(2) 0.36805(16)
N13_2 N 0.2692(2) 0.0942(2) 0.36533(16)
C48_2 C 0.28950(19) 0.1044(2) 0.38134(15)
N14_2 N 0.3016(2) 0.0789(2) 0.39334(15)
N15_2 N 0.28910(17) 0.0526(2) 0.38480(16)
O1_2 O 0.59414(11) 0.42517(11) 0.38736(9)
O2_2 O 0.61378(11) 0.39488(13) 0.35838(9)
O3_2 O 0.61349(11) 0.54026(10) 0.38716(8)
O4_2 O 0.64519(10) 0.56334(11) 0.36011(8)
O5_2 O 0.6614(2) 0.42254(17) 0.29695(12)
O6_2 O 0.59205(12) 0.31738(11) 0.39233(9)
O7_2 O 0.56824(11) 0.34814(11) 0.41976(8)
O8_2 O 0.50218(11) 0.29903(12) 0.47857(9)
O9_2 O 0.49532(10) 0.24513(11) 0.47739(7)
O10_2 O 0.5553(2) 0.16990(15) 0.44355(14)
O11_2 O 0.2097(3) 0.0184(3) 0.3736(2)
O14_2 O 0.43779(12) 0.31132(11) 0.47674(8)
O15_2 O 0.42845(13) 0.25770(12) 0.47713(9)
O16_2 O 0.31446(15) 0.25598(19) 0.39080(13)
O17_2 O 0.62673(11) 0.32467(11) 0.34748(8)
O18_2 O 0.55671(13) 0.41934(12) 0.42950(8)
O19_2 O 0.47935(12) 0.36098(14) 0.5000
O20_2 O 0.45223(14) 0.19369(18) 0.5000
O22_2 O 0.2324(2) 0.0702(3) 0.32821(19)
O23_2 O 0.7242(2) 0.0897(3) 0.3362(2)
O25_2 O 0.7487(3) 0.0036(4) 0.4117(3)
O26_2 O 0.28690(14) 0.0376(2) 0.32705(12)
O27_2 O 0.68500(17) 0.0402(2) 0.32911(13)
O29_2 O 0.7673(2) 0.0473(3) 0.3739(2)
N18_2 N 0.7593(2) 0.0301(3) 0.32972(17)
N19_2 N 0.7593(2) 0.0301(3) 0.67028(17)
N21_2 N 0.2332(2) 0.0009(2) 0.32610(17)
N22_2 N 0.2332(2) 0.0009(2) 0.67390(17)
C65_2 C 0.57627(17) 0.32264(17) 0.58957(13)
C66_2 C 0.50688(16) 0.27106(19) 0.52983(11)
C67_2 C 0.54242(11) 0.29592(10) 0.55926(8)
H32_2 H 0.5346 0.3164 0.5548
C68_2 C 0.56498(11) 0.29353(11) 0.57658(8)
C69_2 C 0.57646(11) 0.26353(14) 0.58313(8)
H33_2 H 0.5919 0.2619 0.5950
C70_2 C 0.56538(13) 0.23591(11) 0.57237(10)
C71_2 C 0.54283(13) 0.23830(11) 0.55506(9)
H34_2 H 0.5353 0.2194 0.5477
C72_2 C 0.53135(11) 0.26830(13) 0.54850(7)
C73_2 C 0.57461(16) 0.17664(16) 0.57186(12)
C74_2 C 0.59668(13) 0.15065(14) 0.58092(10)
C75_2 C 0.61819(18) 0.15493(14) 0.59871(12)
H35_2 H 0.6196 0.1752 0.6061
C76_2 C 0.63759(18) 0.12955(17) 0.60570(13)
H36_2 H 0.6523 0.1325 0.6179
C77_2 C 0.63548(18) 0.09990(15) 0.59490(14)
C78_2 C 0.6140(2) 0.09562(14) 0.57711(15)
H37_2 H 0.6125 0.0754 0.5697
C79_2 C 0.59458(18) 0.12100(16) 0.57012(12)
H38_2 H 0.5799 0.1181 0.5580
C80_2 C 0.65798(17) 0.0756(2) 0.60382(17)
N24_2 N 0.6731(3) 0.0801(2) 0.62451(18)
N25_2 N 0.6914(2) 0.0539(3) 0.62743(18)
N26_2 N 0.6877(2) 0.03465(18) 0.6093(2)
N27_2 N 0.6675(2) 0.0473(2) 0.59482(17)
C81_2 C 0.37444(17) 0.35421(17) 0.59090(13)
C82_2 C 0.4260(2) 0.28590(18) 0.53052(12)
C83_2 C 0.39788(14) 0.32024(12) 0.55955(10)
H39_2 H 0.4099 0.3384 0.5547
C84_2 C 0.37726(13) 0.32282(14) 0.57801(10)
C85_2 C 0.35971(15) 0.29622(12) 0.58516(9)
H40_2 H 0.3456 0.2980 0.5978
C86_2 C 0.36278(13) 0.26704(11) 0.57385(10)
C87_2 C 0.38339(13) 0.26446(13) 0.55539(9)
H41_2 H 0.3855 0.2445 0.5477
C88_2 C 0.40094(16) 0.29106(12) 0.54824(8)
C89_2 C 0.32633(17) 0.23325(15) 0.59724(12)
C90_2 C 0.31786(11) 0.19865(15) 0.60243(11)
C91_2 C 0.29374(14) 0.19423(19) 0.61845(13)
H42_2 H 0.2839 0.2123 0.6254
C92_2 C 0.28400(17) 0.1633(2) 0.62424(14)
H43_2 H 0.2675 0.1603 0.6352
C93_2 C 0.29830(13) 0.1368(2) 0.61401(14)
C94_2 C 0.32240(12) 0.1413(2) 0.59799(15)
H44_2 H 0.3323 0.1231 0.5910
C95_2 C 0.33222(14) 0.17216(19) 0.59220(14)
H45_2 H 0.3487 0.1752 0.5813
Cu8_2 Cu 0.57945(2) 0.38926(2) 0.594520(18)
Cu9_2 Cu 0.61074(2) 0.57945(2) 0.405480(18)
Cu12_2 Cu 0.60570(2) 0.35322(2) 0.626090(18)
Cu13_2 Cu 0.64678(2) 0.60570(2) 0.373910(18)
Cu16_2 Cu 0.24705(5) 0.03150(8) 0.65124(5)
Cu17_2 Cu 0.74705(5) 0.53150(8) 0.15124(5)
Cu21_2 Cu 0.29393(5) 0.00754(8) 0.39220(5)
Cu22_2 Cu 0.29393(5) 0.00754(8) 0.60780(5)
Cu23_2 Cu 0.72616(6) 0.04527(9) 0.64883(5)
Cu24_2 Cu 0.77384(6) 0.45473(9) 0.14883(5)
N29_2 N 0.57606(16) 0.20605(12) 0.58028(12)
H47_2 H 0.5857 0.2070 0.5935
N30_2 N 0.34584(13) 0.23973(15) 0.58031(11)
H48_2 H 0.3488 0.2233 0.5711
N31_2 N 0.2700(2) 0.0626(2) 0.63195(16)
N32_2 N 0.2692(2) 0.0942(2) 0.63467(16)
C96_2 C 0.28950(19) 0.1044(2) 0.61866(15)
N33_2 N 0.3016(2) 0.0789(2) 0.60666(15)
N34_2 N 0.28910(17) 0.0526(2) 0.61520(16)
O31_2 O 0.59414(11) 0.42517(11) 0.61264(9)
O33_2 O 0.61378(11) 0.39488(13) 0.64162(9)
O35_2 O 0.54026(10) 0.38651(11) 0.61284(8)
O37_2 O 0.56334(11) 0.35481(10) 0.63989(8)
O39_2 O 0.59205(12) 0.31738(11) 0.60767(9)
O40_2 O 0.56824(11) 0.34814(11) 0.58024(8)
O41_2 O 0.50218(11) 0.29903(12) 0.52143(9)
O42_2 O 0.49532(10) 0.24513(11) 0.52261(7)
O43_2 O 0.5553(2) 0.16990(15) 0.55645(14)
O44_2 O 0.2097(3) 0.0184(3) 0.6264(2)
O46_2 O 0.64522(11) 0.35745(10) 0.39166(9)
O47_2 O 0.64522(11) 0.35745(10) 0.60834(9)
O49_2 O 0.62236(10) 0.38635(11) 0.42025(8)
O50_2 O 0.62236(10) 0.38635(11) 0.57975(8)
O51_2 O 0.43779(12) 0.31132(11) 0.52326(8)
O52_2 O 0.42845(13) 0.25770(12) 0.52287(9)
O53_2 O 0.31446(15) 0.25598(19) 0.60920(13)
O54_2 O 0.62673(11) 0.32467(11) 0.65252(8)
O55_2 O 0.55671(13) 0.41934(12) 0.57050(8)
O56_2 O 0.72140(12) 0.0001(2) 0.36008(13)
O58_2 O 0.72140(12) 0.0001(2) 0.63992(13)
O59_2 O 0.2324(2) 0.0702(3) 0.67179(19)
O60_2 O 0.7242(2) 0.0897(3) 0.6638(2)
O62_2 O 0.7487(3) 0.0036(4) 0.5883(3)
O63_2 O 0.28690(14) 0.0376(2) 0.67295(12)
O64_2 O 0.68500(17) 0.0402(2) 0.67089(13)
O66_2 O 0.7673(2) 0.0473(3) 0.6261(2)
H67_2 H 0.761947 0.0195694 0.596647
H89_2 H 0.671356 0.00188404 0.356319
H91_2 H 0.742309 0.0126849 0.426601
Cu6_2 Cu 0.70607(5) 0.99246(8) 0.39220(5)
O21_2 O 0.27860(12) 0.9999(2) 0.36008(13)
O24_2 O 0.6752(3) 0.9840(4) 0.41806(19)
O28_2 O 0.66799(11) 0.98734(18) 0.36946(14)
Cu19_2 Cu 0.75295(5) 0.96850(8) 0.34876(5)
Cu20_2 Cu 0.70607(5) 0.99246(8) 0.60780(5)
Cu25_2 Cu 0.27384(6) 0.95473(9) 0.35117(5)
N35_2 N 0.71090(17) 0.9474(2) 0.38480(16)
N36_2 N 0.71090(17) 0.9474(2) 0.61520(16)
O57_2 O 0.27860(12) 0.9999(2) 0.63992(13)
O61_2 O 0.6752(3) 0.9840(4) 0.58194(19)
O65_2 O 0.66799(11) 0.98734(18) 0.63054(14)
H57_2 H 0.64749 0.992985 0.622861
H58_2 H 0.666993 0.964714 0.635905
H68_2 H 0.761419 0.983661 0.585899
H90_2 H 0.666993 0.964714 0.364095
H92_2 H 0.761419 0.983661 0.414101
O24_3 O 0.0160(4) 0.6752(3) 0.41806(19)
O28_3 O 0.01266(18) 0.66799(11) 0.36946(14)
O61_3 O 0.0160(4) 0.6752(3) 0.58194(19)
O65_3 O 0.01266(18) 0.66799(11) 0.63054(14)
H57_3 H 0.00701536 0.64749 0.622861
H58_3 H 0.0352864 0.666993 0.635905
H68_3 H 0.016339 0.761419 0.585899
H90_3 H 0.0352864 0.666993 0.364095
H92_3 H 0.016339 0.761419 0.414101
C1_3 C 0.45937(16) 0.63060(17) 0.37011(12)
C2_3 C 0.57898(17) 0.60936(16) 0.36908(13)
C3_3 C 0.55093(13) 0.63693(13) 0.33682(10)
H1_3 H 0.5712 0.6390 0.3295
C4_3 C 0.54886(12) 0.62205(11) 0.35787(10)
C5_3 C 0.51920(15) 0.61903(11) 0.36855(8)
H2_3 H 0.5178 0.6089 0.3829
C6_3 C 0.49161(12) 0.63089(12) 0.35818(10)
C7_3 C 0.49368(13) 0.64577(12) 0.33713(10)
H3_3 H 0.4748 0.6539 0.3300
C8_3 C 0.52334(16) 0.64878(13) 0.32645(8)
C9_3 C 0.5494(2) 0.66633(12) 0.29081(11)
C10_3 C 0.54230(16) 0.67919(13) 0.26762(8)
C11_3 C 0.56668(14) 0.69714(19) 0.25761(12)
H4_3 H 0.5864 0.7003 0.2654
C12_3 C 0.56215(17) 0.71042(18) 0.23623(12)
H5_3 H 0.5788 0.7227 0.2294
C13_3 C 0.53324(19) 0.70574(15) 0.22485(9)
C14_3 C 0.50886(16) 0.6878(2) 0.23486(10)
H6_3 H 0.4891 0.6846 0.2271
C15_3 C 0.51338(16) 0.67451(19) 0.25624(10)
H7_3 H 0.4967 0.6622 0.2631
C16_3 C 0.5264(3) 0.71909(16) 0.20249(14)
N1_3 N 0.5470(2) 0.7320(3) 0.18803(19)
N2_3 N 0.5301(3) 0.7407(2) 0.17028(17)
N3_3 N 0.4991(2) 0.7332(2) 0.17390(17)
N4_3 N 0.4954(2) 0.7193(3) 0.19413(17)
C17_3 C 0.67736(17) 0.57627(17) 0.41043(13)
C18_3 C 0.72894(19) 0.50688(16) 0.47017(11)
C19_3 C 0.70408(10) 0.54242(11) 0.44074(8)
H8_3 H 0.6836 0.5346 0.4452
C20_3 C 0.70647(11) 0.56498(11) 0.42342(8)
C21_3 C 0.73647(14) 0.57646(11) 0.41687(8)
H9_3 H 0.7381 0.5919 0.4050
C22_3 C 0.76409(11) 0.56538(13) 0.42763(10)
C23_3 C 0.76170(11) 0.54283(13) 0.44494(9)
H10_3 H 0.7806 0.5353 0.4523
C24_3 C 0.73170(13) 0.53135(11) 0.45150(7)
C25_3 C 0.82336(16) 0.57461(16) 0.42814(12)
C26_3 C 0.84935(14) 0.59668(13) 0.41908(10)
C27_3 C 0.84507(14) 0.61819(18) 0.40129(12)
H11_3 H 0.8248 0.6196 0.3939
C28_3 C 0.87045(17) 0.63759(18) 0.39430(13)
H12_3 H 0.8675 0.6523 0.3821
C29_3 C 0.90010(15) 0.63548(18) 0.40510(14)
C30_3 C 0.90438(14) 0.6140(2) 0.42289(15)
H13_3 H 0.9246 0.6125 0.4303
C31_3 C 0.87900(16) 0.59458(18) 0.42988(12)
H14_3 H 0.8819 0.5799 0.4420
C32_3 C 0.9244(2) 0.65798(17) 0.39618(17)
N5_3 N 0.9199(2) 0.6731(3) 0.37549(18)
N6_3 N 0.9461(3) 0.6914(2) 0.37257(18)
N7_3 N 0.96535(18) 0.6877(2) 0.3907(2)
N8_3 N 0.9527(2) 0.6675(2) 0.40518(17)
C33_3 C 0.64579(17) 0.37444(17) 0.40910(13)
C34_3 C 0.71410(18) 0.4260(2) 0.46948(12)
C35_3 C 0.67976(12) 0.39788(14) 0.44045(10)
H15_3 H 0.6616 0.4099 0.4453
C36_3 C 0.67718(14) 0.37726(13) 0.42199(10)
C37_3 C 0.70378(12) 0.35971(15) 0.41484(9)
H16_3 H 0.7020 0.3456 0.4022
C38_3 C 0.73296(11) 0.36278(13) 0.42615(10)
C39_3 C 0.73554(13) 0.38339(13) 0.44461(9)
H17_3 H 0.7555 0.3855 0.4523
C40_3 C 0.70894(12) 0.40094(16) 0.45176(8)
C41_3 C 0.76675(15) 0.32633(17) 0.40276(12)
C42_3 C 0.80135(15) 0.31786(11) 0.39757(11)
C43_3 C 0.80577(19) 0.29374(14) 0.38155(13)
H18_3 H 0.7877 0.2839 0.3746
C44_3 C 0.8367(2) 0.28400(17) 0.37576(14)
H19_3 H 0.8397 0.2675 0.3648
C45_3 C 0.8632(2) 0.29830(13) 0.38599(14)
C46_3 C 0.8587(2) 0.32240(12) 0.40201(15)
H20_3 H 0.8769 0.3323 0.4090
C47_3 C 0.82784(19) 0.33222(14) 0.40780(14)
H21_3 H 0.8248 0.3487 0.4187
Cu3_3 Cu 0.69065(4) 0.47006(3) 0.5000
Cu4_3 Cu 0.75326(4) 0.45997(3) 0.5000
N9_3 N 0.52374(17) 0.66068(17) 0.30438(10)
H22_3 H 0.5048 0.6651 0.2985
N10_3 N 0.79395(12) 0.57606(16) 0.41972(12)
H23_3 H 0.7930 0.5857 0.4065
N11_3 N 0.76027(15) 0.34584(13) 0.41969(11)
H24_3 H 0.7767 0.3488 0.4289
N12_3 N 0.9374(2) 0.2700(2) 0.36805(16)
N13_3 N 0.9058(2) 0.2692(2) 0.36533(16)
C48_3 C 0.8956(2) 0.28950(19) 0.38134(15)
N14_3 N 0.9211(2) 0.3016(2) 0.39334(15)
O1_3 O 0.57483(11) 0.59414(11) 0.38736(9)
O2_3 O 0.60512(13) 0.61378(11) 0.35838(9)
O3_3 O 0.45974(10) 0.61349(11) 0.38716(8)
O4_3 O 0.43666(11) 0.64519(10) 0.36011(8)
O5_3 O 0.57746(17) 0.6614(2) 0.29695(12)
O6_3 O 0.68262(11) 0.59205(12) 0.39233(9)
O7_3 O 0.65186(11) 0.56824(11) 0.41976(8)
O8_3 O 0.70097(12) 0.50218(11) 0.47857(9)
O9_3 O 0.75487(11) 0.49532(10) 0.47739(7)
O10_3 O 0.83010(15) 0.5553(2) 0.44355(14)
O11_3 O 0.9816(3) 0.2097(3) 0.3736(2)
O14_3 O 0.68868(11) 0.43779(12) 0.47674(8)
O15_3 O 0.74230(12) 0.42845(13) 0.47713(9)
O16_3 O 0.74402(19) 0.31446(15) 0.39080(13)
O17_3 O 0.67533(11) 0.62673(11) 0.34748(8)
O18_3 O 0.58066(12) 0.55671(13) 0.42950(8)
O19_3 O 0.63902(14) 0.47935(12) 0.5000
O20_3 O 0.80631(18) 0.45223(14) 0.5000
O22_3 O 0.9298(3) 0.2324(2) 0.32821(19)
O23_3 O 0.9103(3) 0.7242(2) 0.3362(2)
O25_3 O 0.9964(4) 0.7487(3) 0.4117(3)
O26_3 O 0.9624(2) 0.28690(14) 0.32705(12)
O27_3 O 0.9598(2) 0.68500(17) 0.32911(13)
O29_3 O 0.9527(3) 0.7673(2) 0.3739(2)
N18_3 N 0.9699(3) 0.7593(2) 0.32972(17)
N19_3 N 0.9699(3) 0.7593(2) 0.67028(17)
N21_3 N 0.9991(2) 0.2332(2) 0.32610(17)
N22_3 N 0.9991(2) 0.2332(2) 0.67390(17)
C65_3 C 0.67736(17) 0.57627(17) 0.58957(13)
C66_3 C 0.72894(19) 0.50688(16) 0.52983(11)
C67_3 C 0.70408(10) 0.54242(11) 0.55926(8)
H32_3 H 0.6836 0.5346 0.5548
C68_3 C 0.70647(11) 0.56498(11) 0.57658(8)
C69_3 C 0.73647(14) 0.57646(11) 0.58313(8)
H33_3 H 0.7381 0.5919 0.5950
C70_3 C 0.76409(11) 0.56538(13) 0.57237(10)
C71_3 C 0.76170(11) 0.54283(13) 0.55506(9)
H34_3 H 0.7806 0.5353 0.5477
C72_3 C 0.73170(13) 0.53135(11) 0.54850(7)
C73_3 C 0.82336(16) 0.57461(16) 0.57186(12)
C74_3 C 0.84935(14) 0.59668(13) 0.58092(10)
C75_3 C 0.84507(14) 0.61819(18) 0.59871(12)
H35_3 H 0.8248 0.6196 0.6061
C76_3 C 0.87045(17) 0.63759(18) 0.60570(13)
H36_3 H 0.8675 0.6523 0.6179
C77_3 C 0.90010(15) 0.63548(18) 0.59490(14)
C78_3 C 0.90438(14) 0.6140(2) 0.57711(15)
H37_3 H 0.9246 0.6125 0.5697
C79_3 C 0.87900(16) 0.59458(18) 0.57012(12)
H38_3 H 0.8819 0.5799 0.5580
C80_3 C 0.9244(2) 0.65798(17) 0.60382(17)
N24_3 N 0.9199(2) 0.6731(3) 0.62451(18)
N25_3 N 0.9461(3) 0.6914(2) 0.62743(18)
N26_3 N 0.96535(18) 0.6877(2) 0.6093(2)
N27_3 N 0.9527(2) 0.6675(2) 0.59482(17)
C81_3 C 0.64579(17) 0.37444(17) 0.59090(13)
C82_3 C 0.71410(18) 0.4260(2) 0.53052(12)
C83_3 C 0.67976(12) 0.39788(14) 0.55955(10)
H39_3 H 0.6616 0.4099 0.5547
C84_3 C 0.67718(14) 0.37726(13) 0.57801(10)
C85_3 C 0.70378(12) 0.35971(15) 0.58516(9)
H40_3 H 0.7020 0.3456 0.5978
C86_3 C 0.73296(11) 0.36278(13) 0.57385(10)
C87_3 C 0.73554(13) 0.38339(13) 0.55539(9)
H41_3 H 0.7555 0.3855 0.5477
C88_3 C 0.70894(12) 0.40094(16) 0.54824(8)
C89_3 C 0.76675(15) 0.32633(17) 0.59724(12)
C90_3 C 0.80135(15) 0.31786(11) 0.60243(11)
C91_3 C 0.80577(19) 0.29374(14) 0.61845(13)
H42_3 H 0.7877 0.2839 0.6254
C92_3 C 0.8367(2) 0.28400(17) 0.62424(14)
H43_3 H 0.8397 0.2675 0.6352
C93_3 C 0.8632(2) 0.29830(13) 0.61401(14)
C94_3 C 0.8587(2) 0.32240(12) 0.59799(15)
H44_3 H 0.8769 0.3323 0.5910
C95_3 C 0.82784(19) 0.33222(14) 0.59220(14)
H45_3 H 0.8248 0.3487 0.5813
Cu8_3 Cu 0.61074(2) 0.57945(2) 0.594520(18)
Cu12_3 Cu 0.64678(2) 0.60570(2) 0.626090(18)
Cu16_3 Cu 0.96850(8) 0.24705(5) 0.65124(5)
Cu17_3 Cu 0.46850(8) 0.74705(5) 0.15124(5)
Cu23_3 Cu 0.95473(9) 0.72616(6) 0.64883(5)
Cu24_3 Cu 0.54527(9) 0.77384(6) 0.14883(5)
N29_3 N 0.79395(12) 0.57606(16) 0.58028(12)
H47_3 H 0.7930 0.5857 0.5935
N30_3 N 0.76027(15) 0.34584(13) 0.58031(11)
H48_3 H 0.7767 0.3488 0.5711
N31_3 N 0.9374(2) 0.2700(2) 0.63195(16)
N32_3 N 0.9058(2) 0.2692(2) 0.63467(16)
C96_3 C 0.8956(2) 0.28950(19) 0.61866(15)
N33_3 N 0.9211(2) 0.3016(2) 0.60666(15)
O31_3 O 0.57483(11) 0.59414(11) 0.61264(9)
O33_3 O 0.60512(13) 0.61378(11) 0.64162(9)
O35_3 O 0.61349(11) 0.54026(10) 0.61284(8)
O37_3 O 0.64519(10) 0.56334(11) 0.63989(8)
O39_3 O 0.68262(11) 0.59205(12) 0.60767(9)
O40_3 O 0.65186(11) 0.56824(11) 0.58024(8)
O41_3 O 0.70097(12) 0.50218(11) 0.52143(9)
O42_3 O 0.75487(11) 0.49532(10) 0.52261(7)
O43_3 O 0.83010(15) 0.5553(2) 0.55645(14)
O44_3 O 0.9816(3) 0.2097(3) 0.6264(2)
O46_3 O 0.64255(10) 0.64522(11) 0.39166(9)
O47_3 O 0.64255(10) 0.64522(11) 0.60834(9)
O49_3 O 0.61365(11) 0.62236(10) 0.42025(8)
O50_3 O 0.61365(11) 0.62236(10) 0.57975(8)
O51_3 O 0.68868(11) 0.43779(12) 0.52326(8)
O52_3 O 0.74230(12) 0.42845(13) 0.52287(9)
O53_3 O 0.74402(19) 0.31446(15) 0.60920(13)
O54_3 O 0.67533(11) 0.62673(11) 0.65252(8)
O55_3 O 0.58066(12) 0.55671(13) 0.57050(8)
O59_3 O 0.9298(3) 0.2324(2) 0.67179(19)
O60_3 O 0.9103(3) 0.7242(2) 0.6638(2)
O62_3 O 0.9964(4) 0.7487(3) 0.5883(3)
O63_3 O 0.9624(2) 0.28690(14) 0.67295(12)
O64_3 O 0.9598(2) 0.68500(17) 0.67089(13)
O66_3 O 0.9527(3) 0.7673(2) 0.6261(2)
H67_3 H 0.980431 0.761947 0.596647
H89_3 H 0.998116 0.671356 0.356319
H91_3 H 0.987315 0.742309 0.426601
O24_4 O 0.3248(3) 0.0160(4) 0.41806(19)
O28_4 O 0.33201(11) 0.01266(18) 0.36946(14)
O61_4 O 0.3248(3) 0.0160(4) 0.58194(19)
O65_4 O 0.33201(11) 0.01266(18) 0.63054(14)
H57_4 H 0.35251 0.00701536 0.622861
H58_4 H 0.333007 0.0352864 0.635905
H68_4 H 0.238581 0.016339 0.585899
H90_4 H 0.333007 0.0352864 0.364095
H92_4 H 0.238581 0.016339 0.414101
C17_4 C 0.42373(17) 0.67736(17) 0.41043(13)
C18_4 C 0.49312(16) 0.72894(19) 0.47017(11)
C19_4 C 0.45758(11) 0.70408(10) 0.44074(8)
H8_4 H 0.4654 0.6836 0.4452
C20_4 C 0.43502(11) 0.70647(11) 0.42342(8)
C21_4 C 0.42354(11) 0.73647(14) 0.41687(8)
H9_4 H 0.4081 0.7381 0.4050
C22_4 C 0.43462(13) 0.76409(11) 0.42763(10)
C23_4 C 0.45717(13) 0.76170(11) 0.44494(9)
H10_4 H 0.4647 0.7806 0.4523
C24_4 C 0.46865(11) 0.73170(13) 0.45150(7)
C25_4 C 0.42539(16) 0.82336(16) 0.42814(12)
C26_4 C 0.40332(13) 0.84935(14) 0.41908(10)
C27_4 C 0.38181(18) 0.84507(14) 0.40129(12)
H11_4 H 0.3804 0.8248 0.3939
C28_4 C 0.36241(18) 0.87045(17) 0.39430(13)
H12_4 H 0.3477 0.8675 0.3821
C29_4 C 0.36452(18) 0.90010(15) 0.40510(14)
C30_4 C 0.3860(2) 0.90438(14) 0.42289(15)
H13_4 H 0.3875 0.9246 0.4303
C31_4 C 0.40542(18) 0.87900(16) 0.42988(12)
H14_4 H 0.4201 0.8819 0.4420
C32_4 C 0.34202(17) 0.9244(2) 0.39618(17)
N5_4 N 0.3269(3) 0.9199(2) 0.37549(18)
N6_4 N 0.3086(2) 0.9461(3) 0.37257(18)
N7_4 N 0.3123(2) 0.96535(18) 0.3907(2)
N8_4 N 0.3325(2) 0.9527(2) 0.40518(17)
C33_4 C 0.62556(17) 0.64579(17) 0.40910(13)
C34_4 C 0.5740(2) 0.71410(18) 0.46948(12)
C35_4 C 0.60212(14) 0.67976(12) 0.44045(10)
H15_4 H 0.5901 0.6616 0.4453
C36_4 C 0.62274(13) 0.67718(14) 0.42199(10)
C37_4 C 0.64029(15) 0.70378(12) 0.41484(9)
H16_4 H 0.6544 0.7020 0.4022
C38_4 C 0.63722(13) 0.73296(11) 0.42615(10)
C39_4 C 0.61661(13) 0.73554(13) 0.44461(9)
H17_4 H 0.6145 0.7555 0.4523
C40_4 C 0.59906(16) 0.70894(12) 0.45176(8)
C41_4 C 0.67367(17) 0.76675(15) 0.40276(12)
C42_4 C 0.68214(11) 0.80135(15) 0.39757(11)
C43_4 C 0.70626(14) 0.80577(19) 0.38155(13)
H18_4 H 0.7161 0.7877 0.3746
C44_4 C 0.71600(17) 0.8367(2) 0.37576(14)
H19_4 H 0.7325 0.8397 0.3648
C45_4 C 0.70170(13) 0.8632(2) 0.38599(14)
C46_4 C 0.67760(12) 0.8587(2) 0.40201(15)
H20_4 H 0.6677 0.8769 0.4090
C47_4 C 0.66778(14) 0.82784(19) 0.40780(14)
H21_4 H 0.6513 0.8248 0.4187
Cu3_4 Cu 0.52994(3) 0.69065(4) 0.5000
Cu4_4 Cu 0.54003(3) 0.75326(4) 0.5000
N10_4 N 0.42394(16) 0.79395(12) 0.41972(12)
H23_4 H 0.4143 0.7930 0.4065
N11_4 N 0.65416(13) 0.76027(15) 0.41969(11)
H24_4 H 0.6512 0.7767 0.4289
N12_4 N 0.7300(2) 0.9374(2) 0.36805(16)
N13_4 N 0.7308(2) 0.9058(2) 0.36533(16)
C48_4 C 0.71050(19) 0.8956(2) 0.38134(15)
N14_4 N 0.6984(2) 0.9211(2) 0.39334(15)
O6_4 O 0.40795(12) 0.68262(11) 0.39233(9)
O7_4 O 0.43176(11) 0.65186(11) 0.41976(8)
O8_4 O 0.49782(11) 0.70097(12) 0.47857(9)
O9_4 O 0.50468(10) 0.75487(11) 0.47739(7)
O10_4 O 0.4447(2) 0.83010(15) 0.44355(14)
O11_4 O 0.7903(3) 0.9816(3) 0.3736(2)
O14_4 O 0.56221(12) 0.68868(11) 0.47674(8)
O15_4 O 0.57155(13) 0.74230(12) 0.47713(9)
O16_4 O 0.68554(15) 0.74402(19) 0.39080(13)
O17_4 O 0.37327(11) 0.67533(11) 0.34748(8)
O18_4 O 0.44329(13) 0.58066(12) 0.42950(8)
O19_4 O 0.52065(12) 0.63902(14) 0.5000
O20_4 O 0.54777(14) 0.80631(18) 0.5000
O22_4 O 0.7676(2) 0.9298(3) 0.32821(19)
O23_4 O 0.2758(2) 0.9103(3) 0.3362(2)
O25_4 O 0.2513(3) 0.9964(4) 0.4117(3)
O26_4 O 0.71310(14) 0.9624(2) 0.32705(12)
O27_4 O 0.31500(17) 0.9598(2) 0.32911(13)
O29_4 O 0.2327(2) 0.9527(3) 0.3739(2)
N18_4 N 0.2407(2) 0.9699(3) 0.32972(17)
N19_4 N 0.2407(2) 0.9699(3) 0.67028(17)
N21_4 N 0.7668(2) 0.9991(2) 0.32610(17)
N22_4 N 0.7668(2) 0.9991(2) 0.67390(17)
C65_4 C 0.42373(17) 0.67736(17) 0.58957(13)
C66_4 C 0.49312(16) 0.72894(19) 0.52983(11)
C67_4 C 0.45758(11) 0.70408(10) 0.55926(8)
H32_4 H 0.4654 0.6836 0.5548
C68_4 C 0.43502(11) 0.70647(11) 0.57658(8)
C69_4 C 0.42354(11) 0.73647(14) 0.58313(8)
H33_4 H 0.4081 0.7381 0.5950
C70_4 C 0.43462(13) 0.76409(11) 0.57237(10)
C71_4 C 0.45717(13) 0.76170(11) 0.55506(9)
H34_4 H 0.4647 0.7806 0.5477
C72_4 C 0.46865(11) 0.73170(13) 0.54850(7)
C73_4 C 0.42539(16) 0.82336(16) 0.57186(12)
C74_4 C 0.40332(13) 0.84935(14) 0.58092(10)
C75_4 C 0.38181(18) 0.84507(14) 0.59871(12)
H35_4 H 0.3804 0.8248 0.6061
C76_4 C 0.36241(18) 0.87045(17) 0.60570(13)
H36_4 H 0.3477 0.8675 0.6179
C77_4 C 0.36452(18) 0.90010(15) 0.59490(14)
C78_4 C 0.3860(2) 0.90438(14) 0.57711(15)
H37_4 H 0.3875 0.9246 0.5697
C79_4 C 0.40542(18) 0.87900(16) 0.57012(12)
H38_4 H 0.4201 0.8819 0.5580
C80_4 C 0.34202(17) 0.9244(2) 0.60382(17)
N24_4 N 0.3269(3) 0.9199(2) 0.62451(18)
N25_4 N 0.3086(2) 0.9461(3) 0.62743(18)
N26_4 N 0.3123(2) 0.96535(18) 0.6093(2)
N27_4 N 0.3325(2) 0.9527(2) 0.59482(17)
C81_4 C 0.62556(17) 0.64579(17) 0.59090(13)
C82_4 C 0.5740(2) 0.71410(18) 0.53052(12)
C83_4 C 0.60212(14) 0.67976(12) 0.55955(10)
H39_4 H 0.5901 0.6616 0.5547
C84_4 C 0.62274(13) 0.67718(14) 0.57801(10)
C85_4 C 0.64029(15) 0.70378(12) 0.58516(9)
H40_4 H 0.6544 0.7020 0.5978
C86_4 C 0.63722(13) 0.73296(11) 0.57385(10)
C87_4 C 0.61661(13) 0.73554(13) 0.55539(9)
H41_4 H 0.6145 0.7555 0.5477
C88_4 C 0.59906(16) 0.70894(12) 0.54824(8)
C89_4 C 0.67367(17) 0.76675(15) 0.59724(12)
C90_4 C 0.68214(11) 0.80135(15) 0.60243(11)
C91_4 C 0.70626(14) 0.80577(19) 0.61845(13)
H42_4 H 0.7161 0.7877 0.6254
C92_4 C 0.71600(17) 0.8367(2) 0.62424(14)
H43_4 H 0.7325 0.8397 0.6352
C93_4 C 0.70170(13) 0.8632(2) 0.61401(14)
C94_4 C 0.67760(12) 0.8587(2) 0.59799(15)
H44_4 H 0.6677 0.8769 0.5910
C95_4 C 0.66778(14) 0.82784(19) 0.59220(14)
H45_4 H 0.6513 0.8248 0.5813
Cu16_4 Cu 0.75295(5) 0.96850(8) 0.65124(5)
Cu23_4 Cu 0.27384(6) 0.95473(9) 0.64883(5)
N29_4 N 0.42394(16) 0.79395(12) 0.58028(12)
H47_4 H 0.4143 0.7930 0.5935
N30_4 N 0.65416(13) 0.76027(15) 0.58031(11)
H48_4 H 0.6512 0.7767 0.5711
N31_4 N 0.7300(2) 0.9374(2) 0.63195(16)
N32_4 N 0.7308(2) 0.9058(2) 0.63467(16)
C96_4 C 0.71050(19) 0.8956(2) 0.61866(15)
N33_4 N 0.6984(2) 0.9211(2) 0.60666(15)
O31_4 O 0.40586(11) 0.57483(11) 0.61264(9)
O33_4 O 0.38622(11) 0.60512(13) 0.64162(9)
O35_4 O 0.45974(10) 0.61349(11) 0.61284(8)
O37_4 O 0.43666(11) 0.64519(10) 0.63989(8)
O39_4 O 0.40795(12) 0.68262(11) 0.60767(9)
O40_4 O 0.43176(11) 0.65186(11) 0.58024(8)
O41_4 O 0.49782(11) 0.70097(12) 0.52143(9)
O42_4 O 0.50468(10) 0.75487(11) 0.52261(7)
O43_4 O 0.4447(2) 0.83010(15) 0.55645(14)
O44_4 O 0.7903(3) 0.9816(3) 0.6264(2)
O51_4 O 0.56221(12) 0.68868(11) 0.52326(8)
O52_4 O 0.57155(13) 0.74230(12) 0.52287(9)
O53_4 O 0.68554(15) 0.74402(19) 0.60920(13)
O54_4 O 0.37327(11) 0.67533(11) 0.65252(8)
O55_4 O 0.44329(13) 0.58066(12) 0.57050(8)
O59_4 O 0.7676(2) 0.9298(3) 0.67179(19)
O60_4 O 0.2758(2) 0.9103(3) 0.6638(2)
O62_4 O 0.2513(3) 0.9964(4) 0.5883(3)
O63_4 O 0.71310(14) 0.9624(2) 0.67295(12)
O64_4 O 0.31500(17) 0.9598(2) 0.67089(13)
O66_4 O 0.2327(2) 0.9527(3) 0.6261(2)
H67_4 H 0.238053 0.980431 0.596647
H89_4 H 0.328644 0.998116 0.356319
H91_4 H 0.257691 0.987315 0.426601
C1_4 C 0.04063(16) 0.86940(17) 0.87011(12)
C6_4 C 0.00839(12) 0.86911(12) 0.85818(10)
C7_4 C 0.00632(13) 0.85423(12) 0.83713(10)
H3_4 H 0.0252 0.8461 0.8300
H6_4 H 0.0109 0.8154 0.7271
H7_4 H 0.0033 0.8378 0.7631
N4_4 N 0.0046(2) 0.7807(3) 0.69413(17)
O3_4 O 0.04026(10) 0.88651(11) 0.88716(8)
O4_4 O 0.06334(11) 0.85481(10) 0.86011(8)
Cu9_3 Cu 0.07945(2) 0.88926(2) 0.905480(18)
Cu13_3 Cu 0.10570(2) 0.85322(2) 0.873910(18)
Cu3_5 Cu 0.80935(4) 0.02994(3) 0.0000
Cu4_5 Cu 0.74674(4) 0.04003(3) 0.0000
O19_5 O 0.86098(14) 0.02065(12) 0.0000
O20_5 O 0.69369(18) 0.04777(14) 0.0000
C81_5 C 0.85421(17) 0.12556(17) 0.09090(13)
C82_5 C 0.78590(18) 0.0740(2) 0.03052(12)
C83_5 C 0.82024(12) 0.10212(14) 0.05955(10)
H39_5 H 0.8384 0.0901 0.0547
C84_5 C 0.82282(14) 0.12274(13) 0.07801(10)
C85_5 C 0.79622(12) 0.14029(15) 0.08516(9)
H40_5 H 0.7980 0.1544 0.0978
C86_5 C 0.76704(11) 0.13722(13) 0.07385(10)
C87_5 C 0.76446(13) 0.11661(13) 0.05539(9)
H41_5 H 0.7445 0.1145 0.0477
C88_5 C 0.79106(12) 0.09906(16) 0.04824(8)
C89_5 C 0.73325(15) 0.17367(17) 0.09724(12)
C90_5 C 0.69865(15) 0.18214(11) 0.10243(11)
C91_5 C 0.69423(19) 0.20626(14) 0.11845(13)
H42_5 H 0.7123 0.2161 0.1254
C92_5 C 0.6633(2) 0.21600(17) 0.12424(14)
H43_5 H 0.6603 0.2325 0.1352
C93_5 C 0.6368(2) 0.20170(13) 0.11401(14)
C94_5 C 0.6413(2) 0.17760(12) 0.09799(15)
H44_5 H 0.6231 0.1677 0.0910
C95_5 C 0.67216(19) 0.16778(14) 0.09220(14)
H45_5 H 0.6752 0.1513 0.0813
Cu11_2 Cu 0.92055(2) 0.11074(2) 0.094520(18)
Cu15_2 Cu 0.89430(2) 0.14678(2) 0.126090(18)
Cu22_3 Cu 0.50754(8) 0.20607(5) 0.10780(5)
N30_5 N 0.73973(15) 0.15416(13) 0.08031(11)
H48_5 H 0.7233 0.1512 0.0711
N31_5 N 0.5626(2) 0.2300(2) 0.13195(16)
N32_5 N 0.5942(2) 0.2308(2) 0.13467(16)
C96_5 C 0.6044(2) 0.21050(19) 0.11866(15)
N33_5 N 0.5789(2) 0.1984(2) 0.10666(15)
N34_3 N 0.5526(2) 0.21090(17) 0.11520(16)
O42_5 O 0.74513(11) 0.00468(10) 0.02261(7)
O44_5 O 0.5184(3) 0.2903(3) 0.1264(2)
O45_2 O 0.85478(11) 0.14255(10) 0.10834(9)
O48_2 O 0.87764(10) 0.11365(11) 0.07975(8)
O51_5 O 0.81132(11) 0.06221(12) 0.02326(8)
O52_5 O 0.75770(12) 0.07155(13) 0.02287(9)
O53_5 O 0.75598(19) 0.18554(15) 0.10920(13)
O57_3 O 0.4999(2) 0.22140(12) 0.13992(13)
O59_5 O 0.5702(3) 0.2676(2) 0.17179(19)
O63_5 O 0.5376(2) 0.21310(14) 0.17295(12)
H77 H 0.682709 0.0276765 0.00480974
H78 H 0.688212 0.0653937 0.01069
H94 H 0.87177 0.0356391 0.0106785
C33_5 C 0.85421(17) 0.12556(17) 0.90910(13)
C34_5 C 0.78590(18) 0.0740(2) 0.96948(12)
C35_5 C 0.82024(12) 0.10212(14) 0.94045(10)
H15_5 H 0.8384 0.0901 0.9453
C36_5 C 0.82282(14) 0.12274(13) 0.92199(10)
C37_5 C 0.79622(12) 0.14029(15) 0.91484(9)
H16_5 H 0.7980 0.1544 0.9022
C38_5 C 0.76704(11) 0.13722(13) 0.92615(10)
C39_5 C 0.76446(13) 0.11661(13) 0.94461(9)
H17_5 H 0.7445 0.1145 0.9523
C40_5 C 0.79106(12) 0.09906(16) 0.95176(8)
C41_5 C 0.73325(15) 0.17367(17) 0.90276(12)
C42_5 C 0.69865(15) 0.18214(11) 0.89757(11)
C43_5 C 0.69423(19) 0.20626(14) 0.88155(13)
H18_5 H 0.7123 0.2161 0.8746
C44_5 C 0.6633(2) 0.21600(17) 0.87576(14)
H19_5 H 0.6603 0.2325 0.8648
C45_5 C 0.6368(2) 0.20170(13) 0.88599(14)
C46_5 C 0.6413(2) 0.17760(12) 0.90201(15)
H20_5 H 0.6231 0.1677 0.9090
C47_5 C 0.67216(19) 0.16778(14) 0.90780(14)
H21_5 H 0.6752 0.1513 0.9187
Cu3_6 Cu 0.80935(4) 0.02994(3) 1.0000
Cu4_6 Cu 0.74674(4) 0.04003(3) 1.0000
Cu5_3 Cu 0.53150(8) 0.25295(5) 0.84876(5)
N11_5 N 0.73973(15) 0.15416(13) 0.91969(11)
H24_5 H 0.7233 0.1512 0.9289
N12_5 N 0.5626(2) 0.2300(2) 0.86805(16)
N13_5 N 0.5942(2) 0.2308(2) 0.86533(16)
C48_5 C 0.6044(2) 0.21050(19) 0.88134(15)
N14_5 N 0.5789(2) 0.1984(2) 0.89334(15)
N15_3 N 0.5526(2) 0.21090(17) 0.88480(16)
O9_5 O 0.74513(11) 0.00468(10) 0.97739(7)
O11_5 O 0.5184(3) 0.2903(3) 0.8736(2)
O12_2 O 0.85478(11) 0.14255(10) 0.89166(9)
O13_2 O 0.87764(10) 0.11365(11) 0.92025(8)
O14_5 O 0.81132(11) 0.06221(12) 0.97674(8)
O15_5 O 0.75770(12) 0.07155(13) 0.97713(9)
O16_5 O 0.75598(19) 0.18554(15) 0.89080(13)
O19_6 O 0.86098(14) 0.02065(12) 1.0000
O20_6 O 0.69369(18) 0.04777(14) 1.0000
O21_3 O 0.4999(2) 0.22140(12) 0.86008(13)
O22_5 O 0.5702(3) 0.2676(2) 0.82821(19)
O26_5 O 0.5376(2) 0.21310(14) 0.82705(12)
C50_2 C 0.89064(16) 0.07898(17) 0.86908(13)
C51_2 C 0.86307(13) 0.05093(13) 0.83682(10)
H25_2 H 0.8610 0.0712 0.8295
C52_2 C 0.87795(11) 0.04886(12) 0.85787(10)
C53_2 C 0.88097(11) 0.01920(15) 0.86855(8)
H26_2 H 0.8911 0.0178 0.8829
C56_2 C 0.85122(13) 0.02334(16) 0.82645(8)
C57_2 C 0.83367(12) 0.0494(2) 0.79081(11)
C58_2 C 0.82081(13) 0.04230(16) 0.76762(8)
C59_2 C 0.80286(19) 0.06668(14) 0.75761(12)
H28_2 H 0.7997 0.0864 0.7654
C60_2 C 0.78958(18) 0.06215(17) 0.73623(12)
H29_2 H 0.7773 0.0788 0.7294
C61_2 C 0.79426(15) 0.03324(19) 0.72485(9)
C62_2 C 0.8122(2) 0.00886(16) 0.73486(10)
C63_2 C 0.82549(19) 0.01338(16) 0.75624(10)
C64_2 C 0.78091(16) 0.0264(3) 0.70249(14)
N16_2 N 0.7680(3) 0.0470(2) 0.68803(19)
N21_5 N 0.5009(2) 0.2668(2) 0.82610(17)
Cu10_2 Cu 0.92055(2) 0.11074(2) 0.905480(18)
Cu14_2 Cu 0.89430(2) 0.14678(2) 0.873910(18)
Cu21_3 Cu 0.50754(8) 0.20607(5) 0.89220(5)
Cu25_3 Cu 0.45473(9) 0.22616(6) 0.85117(5)
N28_2 N 0.83932(17) 0.02374(17) 0.80438(10)
H46_2 H 0.8349 0.0048 0.7985
O30_2 O 0.90586(11) 0.07483(11) 0.88736(9)
O32_2 O 0.88622(11) 0.10512(13) 0.85838(9)
O38_2 O 0.8386(2) 0.07746(17) 0.79695(12)
H93 H 0.869669 0.0239623 0.984497
C65_5 C 0.82264(17) 0.92373(17) 0.08957(13)
C66_5 C 0.77106(19) 0.99312(16) 0.02983(11)
C67_5 C 0.79592(10) 0.95758(11) 0.05926(8)
H32_5 H 0.8164 0.9654 0.0548
C68_5 C 0.79353(11) 0.93502(11) 0.07658(8)
C69_5 C 0.76353(14) 0.92354(11) 0.08313(8)
H33_5 H 0.7619 0.9081 0.0950
C70_5 C 0.73591(11) 0.93462(13) 0.07237(10)
C71_5 C 0.73830(11) 0.95717(13) 0.05506(9)
H34_5 H 0.7194 0.9647 0.0477
C72_5 C 0.76830(13) 0.96865(11) 0.04850(7)
C73_5 C 0.67664(16) 0.92539(16) 0.07186(12)
C74_5 C 0.65065(14) 0.90332(13) 0.08092(10)
C75_5 C 0.65493(14) 0.88181(18) 0.09871(12)
H35_5 H 0.6752 0.8804 0.1061
C76_5 C 0.62955(17) 0.86241(18) 0.10570(13)
H36_5 H 0.6325 0.8477 0.1179
C77_5 C 0.59990(15) 0.86452(18) 0.09490(14)
C78_5 C 0.59562(14) 0.8860(2) 0.07711(15)
H37_5 H 0.5754 0.8875 0.0697
C79_5 C 0.62100(16) 0.90542(18) 0.07012(12)
H38_5 H 0.6181 0.9201 0.0580
C80_5 C 0.5756(2) 0.84202(17) 0.10382(17)
N24_5 N 0.5801(2) 0.8269(3) 0.12451(18)
N25_5 N 0.5539(3) 0.8086(2) 0.12743(18)
N26_5 N 0.53465(18) 0.8123(2) 0.1093(2)
N27_5 N 0.5473(2) 0.8325(2) 0.09482(17)
Cu8_4 Cu 0.88926(2) 0.92055(2) 0.094520(18)
Cu12_4 Cu 0.85322(2) 0.89430(2) 0.126090(18)
Cu20_3 Cu 0.49246(8) 0.79393(5) 0.10780(5)
N29_5 N 0.70605(12) 0.92394(16) 0.08028(12)
H47_5 H 0.7070 0.9143 0.0935
N36_3 N 0.4474(2) 0.78910(17) 0.11520(16)
O31_5 O 0.92517(11) 0.90586(11) 0.11264(9)
O33_5 O 0.89488(13) 0.88622(11) 0.14162(9)
O35_5 O 0.88651(11) 0.95974(10) 0.11284(8)
O37_5 O 0.85481(10) 0.93666(11) 0.13989(8)
O39_5 O 0.81738(11) 0.90795(12) 0.10767(9)
O40_5 O 0.84814(11) 0.93176(11) 0.08024(8)
O41_5 O 0.79903(12) 0.99782(11) 0.02143(9)
O43_5 O 0.66990(15) 0.9447(2) 0.05645(14)
O47_4 O 0.85745(10) 0.85478(11) 0.10834(9)
O50_4 O 0.88635(11) 0.87764(10) 0.07975(8)
O54_5 O 0.82467(11) 0.87327(11) 0.15252(8)
O55_5 O 0.91934(12) 0.94329(13) 0.07050(8)
O58_3 O 0.5001(2) 0.77860(12) 0.13992(13)
O60_5 O 0.5897(3) 0.7758(2) 0.1638(2)
O61_5 O 0.4840(4) 0.8248(3) 0.08194(19)
O62_5 O 0.5036(4) 0.7513(3) 0.0883(3)
O64_5 O 0.5402(2) 0.81500(17) 0.17089(13)
O65_5 O 0.48734(18) 0.83201(11) 0.13054(14)
O66_5 O 0.5473(3) 0.7327(2) 0.1261(2)
C2_4 C 0.92102(17) 0.89064(16) 0.86908(13)
C3_4 C 0.94907(13) 0.86307(13) 0.83682(10)
H1_4 H 0.9288 0.8610 0.8295
C4_4 C 0.95114(12) 0.87795(11) 0.85787(10)
C5_4 C 0.98080(15) 0.88097(11) 0.86855(8)
H2_4 H 0.9822 0.8911 0.8829
C8_4 C 0.97666(16) 0.85122(13) 0.82645(8)
C9_4 C 0.9506(2) 0.83367(12) 0.79081(11)
C10_4 C 0.95770(16) 0.82081(13) 0.76762(8)
C11_4 C 0.93332(14) 0.80286(19) 0.75761(12)
H4_4 H 0.9136 0.7997 0.7654
C12_4 C 0.93785(17) 0.78958(18) 0.73623(12)
H5_4 H 0.9212 0.7773 0.7294
C13_4 C 0.96676(19) 0.79426(15) 0.72485(9)
C14_4 C 0.99114(16) 0.8122(2) 0.73486(10)
C15_4 C 0.98662(16) 0.82549(19) 0.75624(10)
C16_4 C 0.9736(3) 0.78091(16) 0.70249(14)
N1_4 N 0.9530(2) 0.7680(3) 0.68803(19)
C17_5 C 0.82264(17) 0.92373(17) 0.91043(13)
C18_5 C 0.77106(19) 0.99312(16) 0.97017(11)
C19_5 C 0.79592(10) 0.95758(11) 0.94074(8)
H8_5 H 0.8164 0.9654 0.9452
C20_5 C 0.79353(11) 0.93502(11) 0.92342(8)
C21_5 C 0.76353(14) 0.92354(11) 0.91687(8)
H9_5 H 0.7619 0.9081 0.9050
C22_5 C 0.73591(11) 0.93462(13) 0.92763(10)
C23_5 C 0.73830(11) 0.95717(13) 0.94494(9)
H10_5 H 0.7194 0.9647 0.9523
C24_5 C 0.76830(13) 0.96865(11) 0.95150(7)
C25_5 C 0.67664(16) 0.92539(16) 0.92814(12)
C26_5 C 0.65065(14) 0.90332(13) 0.91908(10)
C27_5 C 0.65493(14) 0.88181(18) 0.90129(12)
H11_5 H 0.6752 0.8804 0.8939
C28_5 C 0.62955(17) 0.86241(18) 0.89430(13)
H12_5 H 0.6325 0.8477 0.8821
C29_5 C 0.59990(15) 0.86452(18) 0.90510(14)
C30_5 C 0.59562(14) 0.8860(2) 0.92289(15)
H13_5 H 0.5754 0.8875 0.9303
C31_5 C 0.62100(16) 0.90542(18) 0.92988(12)
H14_5 H 0.6181 0.9201 0.9420
C32_5 C 0.5756(2) 0.84202(17) 0.89618(17)
N5_5 N 0.5801(2) 0.8269(3) 0.87549(18)
N6_5 N 0.5539(3) 0.8086(2) 0.87257(18)
N7_5 N 0.53465(18) 0.8123(2) 0.8907(2)
N8_5 N 0.5473(2) 0.8325(2) 0.90518(17)
Cu1_2 Cu 0.88926(2) 0.92055(2) 0.905480(18)
Cu2_2 Cu 0.85322(2) 0.89430(2) 0.873910(18)
Cu6_3 Cu 0.49246(8) 0.79393(5) 0.89220(5)
Cu7_3 Cu 0.54527(9) 0.77384(6) 0.85117(5)
N9_4 N 0.97626(17) 0.83932(17) 0.80438(10)
H22_4 H 0.9952 0.8349 0.7985
N10_5 N 0.70605(12) 0.92394(16) 0.91972(12)
H23_5 H 0.7070 0.9143 0.9065
O1_4 O 0.92517(11) 0.90586(11) 0.88736(9)
O2_4 O 0.89488(13) 0.88622(11) 0.85838(9)
O5_4 O 0.92254(17) 0.8386(2) 0.79695(12)
O6_5 O 0.81738(11) 0.90795(12) 0.89233(9)
O7_5 O 0.84814(11) 0.93176(11) 0.91976(8)
O8_5 O 0.79903(12) 0.99782(11) 0.97857(9)
O10_5 O 0.66990(15) 0.9447(2) 0.94355(14)
O17_5 O 0.82467(11) 0.87327(11) 0.84748(8)
O18_5 O 0.91934(12) 0.94329(13) 0.92950(8)
O23_5 O 0.5897(3) 0.7758(2) 0.8362(2)
O24_5 O 0.4840(4) 0.8248(3) 0.91806(19)
O25_5 O 0.5036(4) 0.7513(3) 0.9117(3)
O27_5 O 0.5402(2) 0.81500(17) 0.82911(13)
O28_5 O 0.48734(18) 0.83201(11) 0.86946(14)
O29_5 O 0.5473(3) 0.7327(2) 0.8739(2)
C49_2 C 0.86940(17) 0.95937(16) 0.87011(12)
C54_2 C 0.86911(12) 0.99161(12) 0.85818(10)
C55_2 C 0.85423(12) 0.99368(13) 0.83713(10)
H27_2 H 0.8461 0.9748 0.8300
H30_2 H 0.8154 0.9891 0.7271
H31_2 H 0.8378 0.9967 0.7631
N18_5 N 0.5301(3) 0.7407(2) 0.82972(17)
N23_2 N 0.7807(3) 0.9954(2) 0.69413(17)
Cu19_3 Cu 0.46850(8) 0.74705(5) 0.84876(5)
N35_3 N 0.4474(2) 0.78910(17) 0.88480(16)
O34_2 O 0.88651(11) 0.95974(10) 0.88716(8)
O36_2 O 0.85481(10) 0.93666(11) 0.86011(8)
O46_4 O 0.85745(10) 0.85478(11) 0.89166(9)
O49_4 O 0.88635(11) 0.87764(10) 0.92025(8)
O56_3 O 0.5001(2) 0.77860(12) 0.86008(13)
C1_5 C 0.13060(17) 0.04063(16) 0.87011(12)
C6_5 C 0.13089(12) 0.00839(12) 0.85818(10)
C7_5 C 0.14577(12) 0.00632(13) 0.83713(10)
H3_5 H 0.1539 0.0252 0.8300
H6_5 H 0.1846 0.0109 0.7271
H7_5 H 0.1622 0.0033 0.7631
N4_5 N 0.2193(3) 0.0046(2) 0.69413(17)
O3_5 O 0.11349(11) 0.04026(10) 0.88716(8)
O4_5 O 0.14519(10) 0.06334(11) 0.86011(8)
Cu9_4 Cu 0.11074(2) 0.07945(2) 0.905480(18)
Cu13_4 Cu 0.14678(2) 0.10570(2) 0.873910(18)
C65_6 C 0.07627(17) 0.82264(17) 0.08957(13)
C66_6 C 0.00688(16) 0.77106(19) 0.02983(11)
C67_6 C 0.04242(11) 0.79592(10) 0.05926(8)
H32_6 H 0.0346 0.8164 0.0548
C68_6 C 0.06498(11) 0.79353(11) 0.07658(8)
C69_6 C 0.07646(11) 0.76353(14) 0.08313(8)
H33_6 H 0.0919 0.7619 0.0950
C70_6 C 0.06538(13) 0.73591(11) 0.07237(10)
C71_6 C 0.04283(13) 0.73830(11) 0.05506(9)
H34_6 H 0.0353 0.7194 0.0477
C72_6 C 0.03135(11) 0.76830(13) 0.04850(7)
C73_6 C 0.07461(16) 0.67664(16) 0.07186(12)
C74_6 C 0.09668(13) 0.65065(14) 0.08092(10)
C75_6 C 0.11819(18) 0.65493(14) 0.09871(12)
H35_6 H 0.1196 0.6752 0.1061
C76_6 C 0.13759(18) 0.62955(17) 0.10570(13)
H36_6 H 0.1523 0.6325 0.1179
C77_6 C 0.13548(18) 0.59990(15) 0.09490(14)
C78_6 C 0.1140(2) 0.59562(14) 0.07711(15)
H37_6 H 0.1125 0.5754 0.0697
C79_6 C 0.09458(18) 0.62100(16) 0.07012(12)
H38_6 H 0.0799 0.6181 0.0580
C80_6 C 0.15798(17) 0.5756(2) 0.10382(17)
N24_6 N 0.1731(3) 0.5801(2) 0.12451(18)
N25_6 N 0.1914(2) 0.5539(3) 0.12743(18)
N26_6 N 0.1877(2) 0.53465(18) 0.1093(2)
N27_6 N 0.1675(2) 0.5473(2) 0.09482(17)
Cu8_5 Cu 0.07945(2) 0.88926(2) 0.094520(18)
Cu12_5 Cu 0.10570(2) 0.85322(2) 0.126090(18)
Cu20_4 Cu 0.20607(5) 0.49246(8) 0.10780(5)
N29_6 N 0.07606(16) 0.70605(12) 0.08028(12)
H47_6 H 0.0857 0.7070 0.0935
N36_4 N 0.21090(17) 0.4474(2) 0.11520(16)
O31_6 O 0.09414(11) 0.92517(11) 0.11264(9)
O33_6 O 0.11378(11) 0.89488(13) 0.14162(9)
O35_6 O 0.04026(10) 0.88651(11) 0.11284(8)
O37_6 O 0.06334(11) 0.85481(10) 0.13989(8)
O39_6 O 0.09205(12) 0.81738(11) 0.10767(9)
O40_6 O 0.06824(11) 0.84814(11) 0.08024(8)
O41_6 O 0.00218(11) 0.79903(12) 0.02143(9)
O43_6 O 0.0553(2) 0.66990(15) 0.05645(14)
O47_5 O 0.14522(11) 0.85745(10) 0.10834(9)
O50_5 O 0.12236(10) 0.88635(11) 0.07975(8)
O54_6 O 0.12673(11) 0.82467(11) 0.15252(8)
O55_6 O 0.05671(13) 0.91934(12) 0.07050(8)
O58_4 O 0.22140(12) 0.5001(2) 0.13992(13)
O60_6 O 0.2242(2) 0.5897(3) 0.1638(2)
O61_6 O 0.1752(3) 0.4840(4) 0.08194(19)
O62_6 O 0.2487(3) 0.5036(4) 0.0883(3)
O64_6 O 0.18500(17) 0.5402(2) 0.17089(13)
O65_6 O 0.16799(11) 0.48734(18) 0.13054(14)
O66_6 O 0.2673(2) 0.5473(3) 0.1261(2)
C2_5 C 0.10936(16) 0.92102(17) 0.86908(13)
C3_5 C 0.13693(13) 0.94907(13) 0.83682(10)
H1_5 H 0.1390 0.9288 0.8295
C4_5 C 0.12205(11) 0.95114(12) 0.85787(10)
C5_5 C 0.11903(11) 0.98080(15) 0.86855(8)
H2_5 H 0.1089 0.9822 0.8829
C8_5 C 0.14878(13) 0.97666(16) 0.82645(8)
C9_5 C 0.16633(12) 0.9506(2) 0.79081(11)
C10_5 C 0.17919(13) 0.95770(16) 0.76762(8)
C11_5 C 0.19714(19) 0.93332(14) 0.75761(12)
H4_5 H 0.2003 0.9136 0.7654
C12_5 C 0.21042(18) 0.93785(17) 0.73623(12)
H5_5 H 0.2227 0.9212 0.7294
C13_5 C 0.20574(15) 0.96676(19) 0.72485(9)
C14_5 C 0.1878(2) 0.99114(16) 0.73486(10)
C15_5 C 0.17451(19) 0.98662(16) 0.75624(10)
C16_5 C 0.21909(16) 0.9736(3) 0.70249(14)
N1_5 N 0.2320(3) 0.9530(2) 0.68803(19)
C17_6 C 0.07627(17) 0.82264(17) 0.91043(13)
C18_6 C 0.00688(16) 0.77106(19) 0.97017(11)
C19_6 C 0.04242(11) 0.79592(10) 0.94074(8)
H8_6 H 0.0346 0.8164 0.9452
C20_6 C 0.06498(11) 0.79353(11) 0.92342(8)
C21_6 C 0.07646(11) 0.76353(14) 0.91687(8)
H9_6 H 0.0919 0.7619 0.9050
C22_6 C 0.06538(13) 0.73591(11) 0.92763(10)
C23_6 C 0.04283(13) 0.73830(11) 0.94494(9)
H10_6 H 0.0353 0.7194 0.9523
C24_6 C 0.03135(11) 0.76830(13) 0.95150(7)
C25_6 C 0.07461(16) 0.67664(16) 0.92814(12)
C26_6 C 0.09668(13) 0.65065(14) 0.91908(10)
C27_6 C 0.11819(18) 0.65493(14) 0.90129(12)
H11_6 H 0.1196 0.6752 0.8939
C28_6 C 0.13759(18) 0.62955(17) 0.89430(13)
H12_6 H 0.1523 0.6325 0.8821
C29_6 C 0.13548(18) 0.59990(15) 0.90510(14)
C30_6 C 0.1140(2) 0.59562(14) 0.92289(15)
H13_6 H 0.1125 0.5754 0.9303
C31_6 C 0.09458(18) 0.62100(16) 0.92988(12)
H14_6 H 0.0799 0.6181 0.9420
C32_6 C 0.15798(17) 0.5756(2) 0.89618(17)
N5_6 N 0.1731(3) 0.5801(2) 0.87549(18)
N6_6 N 0.1914(2) 0.5539(3) 0.87257(18)
N7_6 N 0.1877(2) 0.53465(18) 0.8907(2)
N8_6 N 0.1675(2) 0.5473(2) 0.90518(17)
Cu6_4 Cu 0.20607(5) 0.49246(8) 0.89220(5)
Cu7_4 Cu 0.22616(6) 0.54527(9) 0.85117(5)
N9_5 N 0.16068(17) 0.97626(17) 0.80438(10)
H22_5 H 0.1651 0.9952 0.7985
N10_6 N 0.07606(16) 0.70605(12) 0.91972(12)
H23_6 H 0.0857 0.7070 0.9065
O1_5 O 0.09414(11) 0.92517(11) 0.88736(9)
O2_5 O 0.11378(11) 0.89488(13) 0.85838(9)
O5_5 O 0.1614(2) 0.92254(17) 0.79695(12)
O6_6 O 0.09205(12) 0.81738(11) 0.89233(9)
O7_6 O 0.06824(11) 0.84814(11) 0.91976(8)
O8_6 O 0.00218(11) 0.79903(12) 0.97857(9)
O10_6 O 0.0553(2) 0.66990(15) 0.94355(14)
O17_6 O 0.12673(11) 0.82467(11) 0.84748(8)
O18_6 O 0.05671(13) 0.91934(12) 0.92950(8)
O23_6 O 0.2242(2) 0.5897(3) 0.8362(2)
O24_6 O 0.1752(3) 0.4840(4) 0.91806(19)
O25_6 O 0.2487(3) 0.5036(4) 0.9117(3)
O27_6 O 0.18500(17) 0.5402(2) 0.82911(13)
O28_6 O 0.16799(11) 0.48734(18) 0.86946(14)
O29_6 O 0.2673(2) 0.5473(3) 0.8739(2)
N18_6 N 0.2593(2) 0.5301(3) 0.82972(17)
Cu19_4 Cu 0.25295(5) 0.46850(8) 0.84876(5)
N35_4 N 0.21090(17) 0.4474(2) 0.88480(16)
O46_5 O 0.14522(11) 0.85745(10) 0.89166(9)
O49_5 O 0.12236(10) 0.88635(11) 0.92025(8)
O56_4 O 0.22140(12) 0.5001(2) 0.86008(13)
Cu3_7 Cu 0.97006(3) 0.80935(4) 0.0000
Cu4_7 Cu 0.95997(3) 0.74674(4) 0.0000
O19_7 O 0.97935(12) 0.86098(14) 0.0000
O20_7 O 0.95223(14) 0.69369(18) 0.0000
C81_6 C 0.87444(17) 0.85421(17) 0.09090(13)
C82_6 C 0.9260(2) 0.78590(18) 0.03052(12)
C83_6 C 0.89788(14) 0.82024(12) 0.05955(10)
H39_6 H 0.9099 0.8384 0.0547
C84_6 C 0.87726(13) 0.82282(14) 0.07801(10)
C85_6 C 0.85971(15) 0.79622(12) 0.08516(9)
H40_6 H 0.8456 0.7980 0.0978
C86_6 C 0.86278(13) 0.76704(11) 0.07385(10)
C87_6 C 0.88339(13) 0.76446(13) 0.05539(9)
H41_6 H 0.8855 0.7445 0.0477
C88_6 C 0.90094(16) 0.79106(12) 0.04824(8)
C89_6 C 0.82633(17) 0.73325(15) 0.09724(12)
C90_6 C 0.81786(11) 0.69865(15) 0.10243(11)
C91_6 C 0.79374(14) 0.69423(19) 0.11845(13)
H42_6 H 0.7839 0.7123 0.1254
C92_6 C 0.78400(17) 0.6633(2) 0.12424(14)
H43_6 H 0.7675 0.6603 0.1352
C93_6 C 0.79830(13) 0.6368(2) 0.11401(14)
C94_6 C 0.82240(12) 0.6413(2) 0.09799(15)
H44_6 H 0.8323 0.6231 0.0910
C95_6 C 0.83222(14) 0.67216(19) 0.09220(14)
H45_6 H 0.8487 0.6752 0.0813
Cu22_4 Cu 0.79393(5) 0.50754(8) 0.10780(5)
N30_6 N 0.84584(13) 0.73973(15) 0.08031(11)
H48_6 H 0.8488 0.7233 0.0711
N31_6 N 0.7700(2) 0.5626(2) 0.13195(16)
N32_6 N 0.7692(2) 0.5942(2) 0.13467(16)
C96_6 C 0.78950(19) 0.6044(2) 0.11866(15)
N33_6 N 0.8016(2) 0.5789(2) 0.10666(15)
N34_4 N 0.78910(17) 0.5526(2) 0.11520(16)
O42_6 O 0.99532(10) 0.74513(11) 0.02261(7)
O44_6 O 0.7097(3) 0.5184(3) 0.1264(2)
O51_6 O 0.93779(12) 0.81132(11) 0.02326(8)
O52_6 O 0.92845(13) 0.75770(12) 0.02287(9)
O53_6 O 0.81446(15) 0.75598(19) 0.10920(13)
O57_4 O 0.77860(12) 0.4999(2) 0.13992(13)
O59_6 O 0.7324(2) 0.5702(3) 0.17179(19)
O63_6 O 0.78690(14) 0.5376(2) 0.17295(12)
H77_2 H 0.972324 0.682709 0.00480974
H78_2 H 0.934606 0.688212 0.01069
H94_2 H 0.964361 0.87177 0.0106785
C33_6 C 0.87444(17) 0.85421(17) 0.90910(13)
C34_6 C 0.9260(2) 0.78590(18) 0.96948(12)
C35_6 C 0.89788(14) 0.82024(12) 0.94045(10)
H15_6 H 0.9099 0.8384 0.9453
C36_6 C 0.87726(13) 0.82282(14) 0.92199(10)
C37_6 C 0.85971(15) 0.79622(12) 0.91484(9)
H16_6 H 0.8456 0.7980 0.9022
C38_6 C 0.86278(13) 0.76704(11) 0.92615(10)
C39_6 C 0.88339(13) 0.76446(13) 0.94461(9)
H17_6 H 0.8855 0.7445 0.9523
C40_6 C 0.90094(16) 0.79106(12) 0.95176(8)
C41_6 C 0.82633(17) 0.73325(15) 0.90276(12)
C42_6 C 0.81786(11) 0.69865(15) 0.89757(11)
C43_6 C 0.79374(14) 0.69423(19) 0.88155(13)
H18_6 H 0.7839 0.7123 0.8746
C44_6 C 0.78400(17) 0.6633(2) 0.87576(14)
H19_6 H 0.7675 0.6603 0.8648
C45_6 C 0.79830(13) 0.6368(2) 0.88599(14)
C46_6 C 0.82240(12) 0.6413(2) 0.90201(15)
H20_6 H 0.8323 0.6231 0.9090
C47_6 C 0.83222(14) 0.67216(19) 0.90780(14)
H21_6 H 0.8487 0.6752 0.9187
Cu3_8 Cu 0.97006(3) 0.80935(4) 1.0000
Cu4_8 Cu 0.95997(3) 0.74674(4) 1.0000
Cu5_4 Cu 0.74705(5) 0.53150(8) 0.84876(5)
N11_6 N 0.84584(13) 0.73973(15) 0.91969(11)
H24_6 H 0.8488 0.7233 0.9289
N12_6 N 0.7700(2) 0.5626(2) 0.86805(16)
N13_6 N 0.7692(2) 0.5942(2) 0.86533(16)
C48_6 C 0.78950(19) 0.6044(2) 0.88134(15)
N14_6 N 0.8016(2) 0.5789(2) 0.89334(15)
N15_4 N 0.78910(17) 0.5526(2) 0.88480(16)
O9_6 O 0.99532(10) 0.74513(11) 0.97739(7)
O11_6 O 0.7097(3) 0.5184(3) 0.8736(2)
O14_6 O 0.93779(12) 0.81132(11) 0.97674(8)
O15_6 O 0.92845(13) 0.75770(12) 0.97713(9)
O16_6 O 0.81446(15) 0.75598(19) 0.89080(13)
O19_8 O 0.97935(12) 0.86098(14) 1.0000
O20_8 O 0.95223(14) 0.69369(18) 1.0000
O21_4 O 0.77860(12) 0.4999(2) 0.86008(13)
O22_6 O 0.7324(2) 0.5702(3) 0.82821(19)
O26_6 O 0.78690(14) 0.5376(2) 0.82705(12)
N21_6 N 0.7332(2) 0.5009(2) 0.82610(17)
Cu21_4 Cu 0.79393(5) 0.50754(8) 0.89220(5)
Cu25_4 Cu 0.77384(6) 0.45473(9) 0.85117(5)
H93_2 H 0.976038 0.869669 0.984497
C65_7 C 0.17736(17) 0.07627(17) 0.08957(13)
C66_7 C 0.22894(19) 0.00688(16) 0.02983(11)
C67_7 C 0.20408(10) 0.04242(11) 0.05926(8)
H32_7 H 0.1836 0.0346 0.0548
C68_7 C 0.20647(11) 0.06498(11) 0.07658(8)
C69_7 C 0.23647(14) 0.07646(11) 0.08313(8)
H33_7 H 0.2381 0.0919 0.0950
C70_7 C 0.26409(11) 0.06538(13) 0.07237(10)
C71_7 C 0.26170(11) 0.04283(13) 0.05506(9)
H34_7 H 0.2806 0.0353 0.0477
C72_7 C 0.23170(13) 0.03135(11) 0.04850(7)
C73_7 C 0.32336(16) 0.07461(16) 0.07186(12)
C74_7 C 0.34935(14) 0.09668(13) 0.08092(10)
C75_7 C 0.34507(14) 0.11819(18) 0.09871(12)
H35_7 H 0.3248 0.1196 0.1061
C76_7 C 0.37045(17) 0.13759(18) 0.10570(13)
H36_7 H 0.3675 0.1523 0.1179
C77_7 C 0.40010(15) 0.13548(18) 0.09490(14)
C78_7 C 0.40438(14) 0.1140(2) 0.07711(15)
H37_7 H 0.4246 0.1125 0.0697
C79_7 C 0.37900(16) 0.09458(18) 0.07012(12)
H38_7 H 0.3819 0.0799 0.0580
C80_7 C 0.4244(2) 0.15798(17) 0.10382(17)
N24_7 N 0.4199(2) 0.1731(3) 0.12451(18)
N25_7 N 0.4461(3) 0.1914(2) 0.12743(18)
N26_7 N 0.46535(18) 0.1877(2) 0.1093(2)
N27_7 N 0.4527(2) 0.1675(2) 0.09482(17)
Cu8_6 Cu 0.11074(2) 0.07945(2) 0.094520(18)
Cu12_6 Cu 0.14678(2) 0.10570(2) 0.126090(18)
N29_7 N 0.29395(12) 0.07606(16) 0.08028(12)
H47_7 H 0.2930 0.0857 0.0935
O31_7 O 0.07483(11) 0.09414(11) 0.11264(9)
O33_7 O 0.10512(13) 0.11378(11) 0.14162(9)
O35_7 O 0.11349(11) 0.04026(10) 0.11284(8)
O37_7 O 0.14519(10) 0.06334(11) 0.13989(8)
O39_7 O 0.18262(11) 0.09205(12) 0.10767(9)
O40_7 O 0.15186(11) 0.06824(11) 0.08024(8)
O41_7 O 0.20097(12) 0.00218(11) 0.02143(9)
O43_7 O 0.33010(15) 0.0553(2) 0.05645(14)
O47_6 O 0.14255(10) 0.14522(11) 0.10834(9)
O50_6 O 0.11365(11) 0.12236(10) 0.07975(8)
O54_7 O 0.17533(11) 0.12673(11) 0.15252(8)
O55_7 O 0.08066(12) 0.05671(13) 0.07050(8)
O60_7 O 0.4103(3) 0.2242(2) 0.1638(2)
O61_7 O 0.5160(4) 0.1752(3) 0.08194(19)
O62_7 O 0.4964(4) 0.2487(3) 0.0883(3)
O64_7 O 0.4598(2) 0.18500(17) 0.17089(13)
O65_7 O 0.51266(18) 0.16799(11) 0.13054(14)
O66_7 O 0.4527(3) 0.2673(2) 0.1261(2)
C2_6 C 0.07898(17) 0.10936(16) 0.86908(13)
C3_6 C 0.05093(13) 0.13693(13) 0.83682(10)
H1_6 H 0.0712 0.1390 0.8295
C4_6 C 0.04886(12) 0.12205(11) 0.85787(10)
C5_6 C 0.01920(15) 0.11903(11) 0.86855(8)
H2_6 H 0.0178 0.1089 0.8829
C8_6 C 0.02334(16) 0.14878(13) 0.82645(8)
C9_6 C 0.0494(2) 0.16633(12) 0.79081(11)
C10_6 C 0.04230(16) 0.17919(13) 0.76762(8)
C11_6 C 0.06668(14) 0.19714(19) 0.75761(12)
H4_6 H 0.0864 0.2003 0.7654
C12_6 C 0.06215(17) 0.21042(18) 0.73623(12)
H5_6 H 0.0788 0.2227 0.7294
C13_6 C 0.03324(19) 0.20574(15) 0.72485(9)
C14_6 C 0.00886(16) 0.1878(2) 0.73486(10)
C15_6 C 0.01338(16) 0.17451(19) 0.75624(10)
C16_6 C 0.0264(3) 0.21909(16) 0.70249(14)
N1_6 N 0.0470(2) 0.2320(3) 0.68803(19)
C17_7 C 0.17736(17) 0.07627(17) 0.91043(13)
C18_7 C 0.22894(19) 0.00688(16) 0.97017(11)
C19_7 C 0.20408(10) 0.04242(11) 0.94074(8)
H8_7 H 0.1836 0.0346 0.9452
C20_7 C 0.20647(11) 0.06498(11) 0.92342(8)
C21_7 C 0.23647(14) 0.07646(11) 0.91687(8)
H9_7 H 0.2381 0.0919 0.9050
C22_7 C 0.26409(11) 0.06538(13) 0.92763(10)
C23_7 C 0.26170(11) 0.04283(13) 0.94494(9)
H10_7 H 0.2806 0.0353 0.9523
C24_7 C 0.23170(13) 0.03135(11) 0.95150(7)
C25_7 C 0.32336(16) 0.07461(16) 0.92814(12)
C26_7 C 0.34935(14) 0.09668(13) 0.91908(10)
C27_7 C 0.34507(14) 0.11819(18) 0.90129(12)
H11_7 H 0.3248 0.1196 0.8939
C28_7 C 0.37045(17) 0.13759(18) 0.89430(13)
H12_7 H 0.3675 0.1523 0.8821
C29_7 C 0.40010(15) 0.13548(18) 0.90510(14)
C30_7 C 0.40438(14) 0.1140(2) 0.92289(15)
H13_7 H 0.4246 0.1125 0.9303
C31_7 C 0.37900(16) 0.09458(18) 0.92988(12)
H14_7 H 0.3819 0.0799 0.9420
C32_7 C 0.4244(2) 0.15798(17) 0.89618(17)
N5_7 N 0.4199(2) 0.1731(3) 0.87549(18)
N6_7 N 0.4461(3) 0.1914(2) 0.87257(18)
N7_7 N 0.46535(18) 0.1877(2) 0.8907(2)
N8_7 N 0.4527(2) 0.1675(2) 0.90518(17)
N9_6 N 0.02374(17) 0.16068(17) 0.80438(10)
H22_6 H 0.0048 0.1651 0.7985
N10_7 N 0.29395(12) 0.07606(16) 0.91972(12)
H23_7 H 0.2930 0.0857 0.9065
O1_6 O 0.07483(11) 0.09414(11) 0.88736(9)
O2_6 O 0.10512(13) 0.11378(11) 0.85838(9)
O5_6 O 0.07746(17) 0.1614(2) 0.79695(12)
O6_7 O 0.18262(11) 0.09205(12) 0.89233(9)
O7_7 O 0.15186(11) 0.06824(11) 0.91976(8)
O8_7 O 0.20097(12) 0.00218(11) 0.97857(9)
O10_7 O 0.33010(15) 0.0553(2) 0.94355(14)
O17_7 O 0.17533(11) 0.12673(11) 0.84748(8)
O18_7 O 0.08066(12) 0.05671(13) 0.92950(8)
O23_7 O 0.4103(3) 0.2242(2) 0.8362(2)
O24_7 O 0.5160(4) 0.1752(3) 0.91806(19)
O25_7 O 0.4964(4) 0.2487(3) 0.9117(3)
O27_7 O 0.4598(2) 0.18500(17) 0.82911(13)
O28_7 O 0.51266(18) 0.16799(11) 0.86946(14)
O29_7 O 0.4527(3) 0.2673(2) 0.8739(2)
N18_7 N 0.4699(3) 0.2593(2) 0.82972(17)
O46_6 O 0.14255(10) 0.14522(11) 0.89166(9)
O49_6 O 0.11365(11) 0.12236(10) 0.92025(8)
Cu3_9 Cu 0.19065(4) 0.97006(3) 0.0000
Cu4_9 Cu 0.25326(4) 0.95997(3) 0.0000
O19_9 O 0.13902(14) 0.97935(12) 0.0000
O20_9 O 0.30631(18) 0.95223(14) 0.0000
C81_7 C 0.14579(17) 0.87444(17) 0.09090(13)
C82_7 C 0.21410(18) 0.9260(2) 0.03052(12)
C83_7 C 0.17976(12) 0.89788(14) 0.05955(10)
H39_7 H 0.1616 0.9099 0.0547
C84_7 C 0.17718(14) 0.87726(13) 0.07801(10)
C85_7 C 0.20378(12) 0.85971(15) 0.08516(9)
H40_7 H 0.2020 0.8456 0.0978
C86_7 C 0.23296(11) 0.86278(13) 0.07385(10)
C87_7 C 0.23554(13) 0.88339(13) 0.05539(9)
H41_7 H 0.2555 0.8855 0.0477
C88_7 C 0.20894(12) 0.90094(16) 0.04824(8)
C89_7 C 0.26675(15) 0.82633(17) 0.09724(12)
C90_7 C 0.30135(15) 0.81786(11) 0.10243(11)
C91_7 C 0.30577(19) 0.79374(14) 0.11845(13)
H42_7 H 0.2877 0.7839 0.1254
C92_7 C 0.3367(2) 0.78400(17) 0.12424(14)
H43_7 H 0.3397 0.7675 0.1352
C93_7 C 0.3632(2) 0.79830(13) 0.11401(14)
C94_7 C 0.3587(2) 0.82240(12) 0.09799(15)
H44_7 H 0.3769 0.8323 0.0910
C95_7 C 0.32784(19) 0.83222(14) 0.09220(14)
H45_7 H 0.3248 0.8487 0.0813
N30_7 N 0.26027(15) 0.84584(13) 0.08031(11)
H48_7 H 0.2767 0.8488 0.0711
N31_7 N 0.4374(2) 0.7700(2) 0.13195(16)
N32_7 N 0.4058(2) 0.7692(2) 0.13467(16)
C96_7 C 0.3956(2) 0.78950(19) 0.11866(15)
N33_7 N 0.4211(2) 0.8016(2) 0.10666(15)
O42_7 O 0.25487(11) 0.99532(10) 0.02261(7)
O44_7 O 0.4816(3) 0.7097(3) 0.1264(2)
O51_7 O 0.18868(11) 0.93779(12) 0.02326(8)
O52_7 O 0.24230(12) 0.92845(13) 0.02287(9)
O53_7 O 0.24402(19) 0.81446(15) 0.10920(13)
O59_7 O 0.4298(3) 0.7324(2) 0.17179(19)
O63_7 O 0.4624(2) 0.78690(14) 0.17295(12)
H77_3 H 0.317291 0.972324 0.00480974
H78_3 H 0.311788 0.934606 0.01069
H94_3 H 0.12823 0.964361 0.0106785
C33_7 C 0.14579(17) 0.87444(17) 0.90910(13)
C34_7 C 0.21410(18) 0.9260(2) 0.96948(12)
C35_7 C 0.17976(12) 0.89788(14) 0.94045(10)
H15_7 H 0.1616 0.9099 0.9453
C36_7 C 0.17718(14) 0.87726(13) 0.92199(10)
C37_7 C 0.20378(12) 0.85971(15) 0.91484(9)
H16_7 H 0.2020 0.8456 0.9022
C38_7 C 0.23296(11) 0.86278(13) 0.92615(10)
C39_7 C 0.23554(13) 0.88339(13) 0.94461(9)
H17_7 H 0.2555 0.8855 0.9523
C40_7 C 0.20894(12) 0.90094(16) 0.95176(8)
C41_7 C 0.26675(15) 0.82633(17) 0.90276(12)
C42_7 C 0.30135(15) 0.81786(11) 0.89757(11)
C43_7 C 0.30577(19) 0.79374(14) 0.88155(13)
H18_7 H 0.2877 0.7839 0.8746
C44_7 C 0.3367(2) 0.78400(17) 0.87576(14)
H19_7 H 0.3397 0.7675 0.8648
C45_7 C 0.3632(2) 0.79830(13) 0.88599(14)
C46_7 C 0.3587(2) 0.82240(12) 0.90201(15)
H20_7 H 0.3769 0.8323 0.9090
C47_7 C 0.32784(19) 0.83222(14) 0.90780(14)
H21_7 H 0.3248 0.8487 0.9187
Cu3_10 Cu 0.19065(4) 0.97006(3) 1.0000
Cu4_10 Cu 0.25326(4) 0.95997(3) 1.0000
N11_7 N 0.26027(15) 0.84584(13) 0.91969(11)
H24_7 H 0.2767 0.8488 0.9289
N12_7 N 0.4374(2) 0.7700(2) 0.86805(16)
N13_7 N 0.4058(2) 0.7692(2) 0.86533(16)
C48_7 C 0.3956(2) 0.78950(19) 0.88134(15)
N14_7 N 0.4211(2) 0.8016(2) 0.89334(15)
O9_7 O 0.25487(11) 0.99532(10) 0.97739(7)
O11_7 O 0.4816(3) 0.7097(3) 0.8736(2)
O14_7 O 0.18868(11) 0.93779(12) 0.97674(8)
O15_7 O 0.24230(12) 0.92845(13) 0.97713(9)
O16_7 O 0.24402(19) 0.81446(15) 0.89080(13)
O19_10 O 0.13902(14) 0.97935(12) 1.0000
O20_10 O 0.30631(18) 0.95223(14) 1.0000
O22_7 O 0.4298(3) 0.7324(2) 0.82821(19)
O26_7 O 0.4624(2) 0.78690(14) 0.82705(12)
N21_7 N 0.4991(2) 0.7332(2) 0.82610(17)
H93_3 H 0.130331 0.976038 0.984497
C1_6 C 0.95937(16) 0.13060(17) 0.87011(12)
C6_6 C 0.99161(12) 0.13089(12) 0.85818(10)
C7_6 C 0.99368(13) 0.14577(12) 0.83713(10)
H3_6 H 0.9748 0.1539 0.8300
H6_6 H 0.9891 0.1846 0.7271
H7_6 H 0.9967 0.1622 0.7631
N4_6 N 0.9954(2) 0.2193(3) 0.69413(17)
O3_6 O 0.95974(10) 0.11349(11) 0.88716(8)
O4_6 O 0.93666(11) 0.14519(10) 0.86011(8)
Cu3_11 Cu 0.02994(3) 0.19065(4) 0.0000
Cu4_11 Cu 0.04003(3) 0.25326(4) 0.0000
O19_11 O 0.02065(12) 0.13902(14) 0.0000
O20_11 O 0.04777(14) 0.30631(18) 0.0000
C81_8 C 0.12556(17) 0.14579(17) 0.09090(13)
C82_8 C 0.0740(2) 0.21410(18) 0.03052(12)
C83_8 C 0.10212(14) 0.17976(12) 0.05955(10)
H39_8 H 0.0901 0.1616 0.0547
C84_8 C 0.12274(13) 0.17718(14) 0.07801(10)
C85_8 C 0.14029(15) 0.20378(12) 0.08516(9)
H40_8 H 0.1544 0.2020 0.0978
C86_8 C 0.13722(13) 0.23296(11) 0.07385(10)
C87_8 C 0.11661(13) 0.23554(13) 0.05539(9)
H41_8 H 0.1145 0.2555 0.0477
C88_8 C 0.09906(16) 0.20894(12) 0.04824(8)
C89_8 C 0.17367(17) 0.26675(15) 0.09724(12)
C90_8 C 0.18214(11) 0.30135(15) 0.10243(11)
C91_8 C 0.20626(14) 0.30577(19) 0.11845(13)
H42_8 H 0.2161 0.2877 0.1254
C92_8 C 0.21600(17) 0.3367(2) 0.12424(14)
H43_8 H 0.2325 0.3397 0.1352
C93_8 C 0.20170(13) 0.3632(2) 0.11401(14)
C94_8 C 0.17760(12) 0.3587(2) 0.09799(15)
H44_8 H 0.1677 0.3769 0.0910
C95_8 C 0.16778(14) 0.32784(19) 0.09220(14)
H45_8 H 0.1513 0.3248 0.0813
N30_8 N 0.15416(13) 0.26027(15) 0.08031(11)
H48_8 H 0.1512 0.2767 0.0711
N31_8 N 0.2300(2) 0.4374(2) 0.13195(16)
N32_8 N 0.2308(2) 0.4058(2) 0.13467(16)
C96_8 C 0.21050(19) 0.3956(2) 0.11866(15)
N33_8 N 0.1984(2) 0.4211(2) 0.10666(15)
O42_8 O 0.00468(10) 0.25487(11) 0.02261(7)
O44_8 O 0.2903(3) 0.4816(3) 0.1264(2)
O51_8 O 0.06221(12) 0.18868(11) 0.02326(8)
O52_8 O 0.07155(13) 0.24230(12) 0.02287(9)
O53_8 O 0.18554(15) 0.24402(19) 0.10920(13)
O59_8 O 0.2676(2) 0.4298(3) 0.17179(19)
O63_8 O 0.21310(14) 0.4624(2) 0.17295(12)
H77_4 H 0.0276765 0.317291 0.00480974
H78_4 H 0.0653937 0.311788 0.01069
H94_4 H 0.0356391 0.12823 0.0106785
C33_8 C 0.12556(17) 0.14579(17) 0.90910(13)
C34_8 C 0.0740(2) 0.21410(18) 0.96948(12)
C35_8 C 0.10212(14) 0.17976(12) 0.94045(10)
H15_8 H 0.0901 0.1616 0.9453
C36_8 C 0.12274(13) 0.17718(14) 0.92199(10)
C37_8 C 0.14029(15) 0.20378(12) 0.91484(9)
H16_8 H 0.1544 0.2020 0.9022
C38_8 C 0.13722(13) 0.23296(11) 0.92615(10)
C39_8 C 0.11661(13) 0.23554(13) 0.94461(9)
H17_8 H 0.1145 0.2555 0.9523
C40_8 C 0.09906(16) 0.20894(12) 0.95176(8)
C41_8 C 0.17367(17) 0.26675(15) 0.90276(12)
C42_8 C 0.18214(11) 0.30135(15) 0.89757(11)
C43_8 C 0.20626(14) 0.30577(19) 0.88155(13)
H18_8 H 0.2161 0.2877 0.8746
C44_8 C 0.21600(17) 0.3367(2) 0.87576(14)
H19_8 H 0.2325 0.3397 0.8648
C45_8 C 0.20170(13) 0.3632(2) 0.88599(14)
C46_8 C 0.17760(12) 0.3587(2) 0.90201(15)
H20_8 H 0.1677 0.3769 0.9090
C47_8 C 0.16778(14) 0.32784(19) 0.90780(14)
H21_8 H 0.1513 0.3248 0.9187
Cu3_12 Cu 0.02994(3) 0.19065(4) 1.0000
Cu4_12 Cu 0.04003(3) 0.25326(4) 1.0000
N11_8 N 0.15416(13) 0.26027(15) 0.91969(11)
H24_8 H 0.1512 0.2767 0.9289
N12_8 N 0.2300(2) 0.4374(2) 0.86805(16)
N13_8 N 0.2308(2) 0.4058(2) 0.86533(16)
C48_8 C 0.21050(19) 0.3956(2) 0.88134(15)
N14_8 N 0.1984(2) 0.4211(2) 0.89334(15)
O9_8 O 0.00468(10) 0.25487(11) 0.97739(7)
O11_8 O 0.2903(3) 0.4816(3) 0.8736(2)
O14_8 O 0.06221(12) 0.18868(11) 0.97674(8)
O15_8 O 0.07155(13) 0.24230(12) 0.97713(9)
O16_8 O 0.18554(15) 0.24402(19) 0.89080(13)
O19_12 O 0.02065(12) 0.13902(14) 1.0000
O20_12 O 0.04777(14) 0.30631(18) 1.0000
O22_8 O 0.2676(2) 0.4298(3) 0.82821(19)
O26_8 O 0.21310(14) 0.4624(2) 0.82705(12)
N21_8 N 0.2668(2) 0.4991(2) 0.82610(17)
H93_4 H 0.0239623 0.130331 0.984497
C65_8 C 0.92373(17) 0.17736(17) 0.08957(13)
C66_8 C 0.99312(16) 0.22894(19) 0.02983(11)
C67_8 C 0.95758(11) 0.20408(10) 0.05926(8)
H32_8 H 0.9654 0.1836 0.0548
C68_8 C 0.93502(11) 0.20647(11) 0.07658(8)
C69_8 C 0.92354(11) 0.23647(14) 0.08313(8)
H33_8 H 0.9081 0.2381 0.0950
C70_8 C 0.93462(13) 0.26409(11) 0.07237(10)
C71_8 C 0.95717(13) 0.26170(11) 0.05506(9)
H34_8 H 0.9647 0.2806 0.0477
C72_8 C 0.96865(11) 0.23170(13) 0.04850(7)
C73_8 C 0.92539(16) 0.32336(16) 0.07186(12)
C74_8 C 0.90332(13) 0.34935(14) 0.08092(10)
C75_8 C 0.88181(18) 0.34507(14) 0.09871(12)
H35_8 H 0.8804 0.3248 0.1061
C76_8 C 0.86241(18) 0.37045(17) 0.10570(13)
H36_8 H 0.8477 0.3675 0.1179
C77_8 C 0.86452(18) 0.40010(15) 0.09490(14)
C78_8 C 0.8860(2) 0.40438(14) 0.07711(15)
H37_8 H 0.8875 0.4246 0.0697
C79_8 C 0.90542(18) 0.37900(16) 0.07012(12)
H38_8 H 0.9201 0.3819 0.0580
C80_8 C 0.84202(17) 0.4244(2) 0.10382(17)
N24_8 N 0.8269(3) 0.4199(2) 0.12451(18)
N25_8 N 0.8086(2) 0.4461(3) 0.12743(18)
N26_8 N 0.8123(2) 0.46535(18) 0.1093(2)
N27_8 N 0.8325(2) 0.4527(2) 0.09482(17)
N29_8 N 0.92394(16) 0.29395(12) 0.08028(12)
H47_8 H 0.9143 0.2930 0.0935
O31_8 O 0.90586(11) 0.07483(11) 0.11264(9)
O33_8 O 0.88622(11) 0.10512(13) 0.14162(9)
O35_8 O 0.95974(10) 0.11349(11) 0.11284(8)
O37_8 O 0.93666(11) 0.14519(10) 0.13989(8)
O39_8 O 0.90795(12) 0.18262(11) 0.10767(9)
O40_8 O 0.93176(11) 0.15186(11) 0.08024(8)
O41_8 O 0.99782(11) 0.20097(12) 0.02143(9)
O43_8 O 0.9447(2) 0.33010(15) 0.05645(14)
O54_8 O 0.87327(11) 0.17533(11) 0.15252(8)
O55_8 O 0.94329(13) 0.08066(12) 0.07050(8)
O60_8 O 0.7758(2) 0.4103(3) 0.1638(2)
O61_8 O 0.8248(3) 0.5160(4) 0.08194(19)
O62_8 O 0.7513(3) 0.4964(4) 0.0883(3)
O64_8 O 0.81500(17) 0.4598(2) 0.17089(13)
O65_8 O 0.83201(11) 0.51266(18) 0.13054(14)
O66_8 O 0.7327(2) 0.4527(3) 0.1261(2)
C17_8 C 0.92373(17) 0.17736(17) 0.91043(13)
C18_8 C 0.99312(16) 0.22894(19) 0.97017(11)
C19_8 C 0.95758(11) 0.20408(10) 0.94074(8)
H8_8 H 0.9654 0.1836 0.9452
C20_8 C 0.93502(11) 0.20647(11) 0.92342(8)
C21_8 C 0.92354(11) 0.23647(14) 0.91687(8)
H9_8 H 0.9081 0.2381 0.9050
C22_8 C 0.93462(13) 0.26409(11) 0.92763(10)
C23_8 C 0.95717(13) 0.26170(11) 0.94494(9)
H10_8 H 0.9647 0.2806 0.9523
C24_8 C 0.96865(11) 0.23170(13) 0.95150(7)
C25_8 C 0.92539(16) 0.32336(16) 0.92814(12)
C26_8 C 0.90332(13) 0.34935(14) 0.91908(10)
C27_8 C 0.88181(18) 0.34507(14) 0.90129(12)
H11_8 H 0.8804 0.3248 0.8939
C28_8 C 0.86241(18) 0.37045(17) 0.89430(13)
H12_8 H 0.8477 0.3675 0.8821
C29_8 C 0.86452(18) 0.40010(15) 0.90510(14)
C30_8 C 0.8860(2) 0.40438(14) 0.92289(15)
H13_8 H 0.8875 0.4246 0.9303
C31_8 C 0.90542(18) 0.37900(16) 0.92988(12)
H14_8 H 0.9201 0.3819 0.9420
C32_8 C 0.84202(17) 0.4244(2) 0.89618(17)
N5_8 N 0.8269(3) 0.4199(2) 0.87549(18)
N6_8 N 0.8086(2) 0.4461(3) 0.87257(18)
N7_8 N 0.8123(2) 0.46535(18) 0.8907(2)
N8_8 N 0.8325(2) 0.4527(2) 0.90518(17)
N10_8 N 0.92394(16) 0.29395(12) 0.91972(12)
H23_8 H 0.9143 0.2930 0.9065
O6_8 O 0.90795(12) 0.18262(11) 0.89233(9)
O7_8 O 0.93176(11) 0.15186(11) 0.91976(8)
O8_8 O 0.99782(11) 0.20097(12) 0.97857(9)
O10_8 O 0.9447(2) 0.33010(15) 0.94355(14)
O17_8 O 0.87327(11) 0.17533(11) 0.84748(8)
O18_8 O 0.94329(13) 0.08066(12) 0.92950(8)
O23_8 O 0.7758(2) 0.4103(3) 0.8362(2)
O24_8 O 0.8248(3) 0.5160(4) 0.91806(19)
O25_8 O 0.7513(3) 0.4964(4) 0.9117(3)
O27_8 O 0.81500(17) 0.4598(2) 0.82911(13)
O28_8 O 0.83201(11) 0.51266(18) 0.86946(14)
O29_8 O 0.7327(2) 0.4527(3) 0.8739(2)
N18_8 N 0.7407(2) 0.4699(3) 0.82972(17)
H57_5 H 0.00701536 0.64749 0.377139
C1_7 C 0.45937(16) 0.63060(17) 0.62989(12)
C2_7 C 0.57898(17) 0.60936(16) 0.63092(13)
C3_7 C 0.55093(13) 0.63693(13) 0.66318(10)
H1_7 H 0.5712 0.6390 0.6705
C4_7 C 0.54886(12) 0.62205(11) 0.64213(10)
C5_7 C 0.51920(15) 0.61903(11) 0.63145(8)
H2_7 H 0.5178 0.6089 0.6171
C6_7 C 0.49161(12) 0.63089(12) 0.64182(10)
C7_7 C 0.49368(13) 0.64577(12) 0.66287(10)
H3_7 H 0.4748 0.6539 0.6700
C8_7 C 0.52334(16) 0.64878(13) 0.67355(8)
C9_7 C 0.5494(2) 0.66633(12) 0.70919(11)
C10_7 C 0.54230(16) 0.67919(13) 0.73238(8)
C11_7 C 0.56668(14) 0.69714(19) 0.74239(12)
H4_7 H 0.5864 0.7003 0.7346
C12_7 C 0.56215(17) 0.71042(18) 0.76377(12)
H5_7 H 0.5788 0.7227 0.7706
C13_7 C 0.53324(19) 0.70574(15) 0.77515(9)
C14_7 C 0.50886(16) 0.6878(2) 0.76514(10)
H6_7 H 0.4891 0.6846 0.7729
C15_7 C 0.51338(16) 0.67451(19) 0.74376(10)
H7_7 H 0.4967 0.6622 0.7369
C16_7 C 0.5264(3) 0.71909(16) 0.79751(14)
N1_7 N 0.5470(2) 0.7320(3) 0.81197(19)
N4_7 N 0.4954(2) 0.7193(3) 0.80587(17)
N9_7 N 0.52374(17) 0.66068(17) 0.69562(10)
H22_7 H 0.5048 0.6651 0.7015
O5_7 O 0.57746(17) 0.6614(2) 0.70305(12)
C49_3 C 0.63060(17) 0.54063(16) 0.62989(12)
C50_3 C 0.60936(16) 0.42102(17) 0.63092(13)
C51_3 C 0.63693(13) 0.44907(13) 0.66318(10)
H25_3 H 0.6390 0.4288 0.6705
C52_3 C 0.62205(11) 0.45114(12) 0.64213(10)
C53_3 C 0.61903(11) 0.48080(15) 0.63145(8)
H26_3 H 0.6089 0.4822 0.6171
C54_3 C 0.63089(12) 0.50839(12) 0.64182(10)
C55_3 C 0.64577(12) 0.50632(13) 0.66287(10)
H27_3 H 0.6539 0.5252 0.6700
C56_3 C 0.64878(13) 0.47666(16) 0.67355(8)
C57_3 C 0.66633(12) 0.4506(2) 0.70919(11)
C58_3 C 0.67919(13) 0.45770(16) 0.73238(8)
C59_3 C 0.69714(19) 0.43332(14) 0.74239(12)
H28_3 H 0.7003 0.4136 0.7346
C60_3 C 0.71042(18) 0.43785(17) 0.76377(12)
H29_3 H 0.7227 0.4212 0.7706
C61_3 C 0.70574(15) 0.46676(19) 0.77515(9)
C62_3 C 0.6878(2) 0.49114(16) 0.76514(10)
H30_3 H 0.6846 0.5109 0.7729
C63_3 C 0.67451(19) 0.48662(16) 0.74376(10)
H31_3 H 0.6622 0.5033 0.7369
C64_3 C 0.71909(16) 0.4736(3) 0.79751(14)
N16_3 N 0.7320(3) 0.4530(2) 0.81197(19)
N23_3 N 0.7193(3) 0.5046(2) 0.80587(17)
N28_3 N 0.66068(17) 0.47626(17) 0.69562(10)
H46_3 H 0.6651 0.4952 0.7015
O38_3 O 0.6614(2) 0.42254(17) 0.70305(12)
H67_5 H 0.980431 0.761947 0.403353
H89_5 H 0.998116 0.671356 0.643681
H91_5 H 0.987315 0.742309 0.573399
H57_6 H 0.35251 0.00701536 0.377139
C1_8 C 0.36940(17) 0.45937(16) 0.62989(12)
C2_8 C 0.39064(16) 0.57898(17) 0.63092(13)
C3_8 C 0.36307(13) 0.55093(13) 0.66318(10)
H1_8 H 0.3610 0.5712 0.6705
C4_8 C 0.37795(11) 0.54886(12) 0.64213(10)
C5_8 C 0.38097(11) 0.51920(15) 0.63145(8)
H2_8 H 0.3911 0.5178 0.6171
C6_8 C 0.36911(12) 0.49161(12) 0.64182(10)
C7_8 C 0.35423(12) 0.49368(13) 0.66287(10)
H3_8 H 0.3461 0.4748 0.6700
C8_8 C 0.35122(13) 0.52334(16) 0.67355(8)
C9_8 C 0.33367(12) 0.5494(2) 0.70919(11)
C10_8 C 0.32081(13) 0.54230(16) 0.73238(8)
C11_8 C 0.30286(19) 0.56668(14) 0.74239(12)
H4_8 H 0.2997 0.5864 0.7346
C12_8 C 0.28958(18) 0.56215(17) 0.76377(12)
H5_8 H 0.2773 0.5788 0.7706
C13_8 C 0.29426(15) 0.53324(19) 0.77515(9)
C14_8 C 0.3122(2) 0.50886(16) 0.76514(10)
H6_8 H 0.3154 0.4891 0.7729
C15_8 C 0.32549(19) 0.51338(16) 0.74376(10)
H7_8 H 0.3378 0.4967 0.7369
C16_8 C 0.28091(16) 0.5264(3) 0.79751(14)
N1_8 N 0.2680(3) 0.5470(2) 0.81197(19)
N4_8 N 0.2807(3) 0.4954(2) 0.80587(17)
N9_8 N 0.33932(17) 0.52374(17) 0.69562(10)
H22_8 H 0.3349 0.5048 0.7015
O5_8 O 0.3386(2) 0.57746(17) 0.70305(12)
H67_6 H 0.238053 0.980431 0.403353
H89_6 H 0.328644 0.998116 0.643681
H91_6 H 0.257691 0.987315 0.573399
C1_9 C 0.54063(16) 0.36940(17) 0.62989(12)
C2_9 C 0.42102(17) 0.39064(16) 0.63092(13)
C3_9 C 0.44907(13) 0.36307(13) 0.66318(10)
H1_9 H 0.4288 0.3610 0.6705
C4_9 C 0.45114(12) 0.37795(11) 0.64213(10)
C5_9 C 0.48080(15) 0.38097(11) 0.63145(8)
H2_9 H 0.4822 0.3911 0.6171
C6_9 C 0.50839(12) 0.36911(12) 0.64182(10)
C7_9 C 0.50632(13) 0.35423(12) 0.66287(10)
H3_9 H 0.5252 0.3461 0.6700
C8_9 C 0.47666(16) 0.35122(13) 0.67355(8)
C9_9 C 0.4506(2) 0.33367(12) 0.70919(11)
C10_9 C 0.45770(16) 0.32081(13) 0.73238(8)
C11_9 C 0.43332(14) 0.30286(19) 0.74239(12)
H4_9 H 0.4136 0.2997 0.7346
C12_9 C 0.43785(17) 0.28958(18) 0.76377(12)
H5_9 H 0.4212 0.2773 0.7706
C13_9 C 0.46676(19) 0.29426(15) 0.77515(9)
C14_9 C 0.49114(16) 0.3122(2) 0.76514(10)
H6_9 H 0.5109 0.3154 0.7729
C15_9 C 0.48662(16) 0.32549(19) 0.74376(10)
H7_9 H 0.5033 0.3378 0.7369
C16_9 C 0.4736(3) 0.28091(16) 0.79751(14)
N1_9 N 0.4530(2) 0.2680(3) 0.81197(19)
N4_9 N 0.5046(2) 0.2807(3) 0.80587(17)
N9_9 N 0.47626(17) 0.33932(17) 0.69562(10)
H22_9 H 0.4952 0.3349 0.7015
O5_9 O 0.42254(17) 0.3386(2) 0.70305(12)
H67_7 H 0.0195694 0.238053 0.403353
H89_7 H 0.00188404 0.328644 0.643681
H91_7 H 0.0126849 0.257691 0.573399
H57_7 H 0.992985 0.35251 0.377139
H67_8 H 0.761947 0.0195694 0.403353
H89_8 H 0.671356 0.00188404 0.643681
H91_8 H 0.742309 0.0126849 0.573399
H57_8 H 0.64749 0.992985 0.377139
C2_10 C 0.07898(17) 0.10936(16) 0.13092(13)
C3_10 C 0.05093(13) 0.13693(13) 0.16318(10)
H1_10 H 0.0712 0.1390 0.1705
C4_10 C 0.04886(12) 0.12205(11) 0.14213(10)
C5_10 C 0.01920(15) 0.11903(11) 0.13145(8)
H2_10 H 0.0178 0.1089 0.1171
C8_10 C 0.02334(16) 0.14878(13) 0.17355(8)
C9_10 C 0.0494(2) 0.16633(12) 0.20919(11)
C10_10 C 0.04230(16) 0.17919(13) 0.23238(8)
C11_10 C 0.06668(14) 0.19714(19) 0.24239(12)
H4_10 H 0.0864 0.2003 0.2346
C12_10 C 0.06215(17) 0.21042(18) 0.26377(12)
H5_10 H 0.0788 0.2227 0.2706
C13_10 C 0.03324(19) 0.20574(15) 0.27515(9)
C14_10 C 0.00886(16) 0.1878(2) 0.26514(10)
C15_10 C 0.01338(16) 0.17451(19) 0.24376(10)
C16_10 C 0.0264(3) 0.21909(16) 0.29751(14)
N1_10 N 0.0470(2) 0.2320(3) 0.31197(19)
N9_10 N 0.02374(17) 0.16068(17) 0.19562(10)
H22_10 H 0.0048 0.1651 0.2015
O5_10 O 0.07746(17) 0.1614(2) 0.20305(12)
C49_4 C 0.13060(17) 0.04063(16) 0.12989(12)
C54_4 C 0.13089(12) 0.00839(12) 0.14182(10)
C55_4 C 0.14577(12) 0.00632(13) 0.16287(10)
H27_4 H 0.1539 0.0252 0.1700
H30_4 H 0.1846 0.0109 0.2729
H31_4 H 0.1622 0.0033 0.2369
N23_4 N 0.2193(3) 0.0046(2) 0.30587(17)
C50_4 C 0.10936(16) 0.92102(17) 0.13092(13)
C51_4 C 0.13693(13) 0.94907(13) 0.16318(10)
H25_4 H 0.1390 0.9288 0.1705
C52_4 C 0.12205(11) 0.95114(12) 0.14213(10)
C53_4 C 0.11903(11) 0.98080(15) 0.13145(8)
H26_4 H 0.1089 0.9822 0.1171
C56_4 C 0.14878(13) 0.97666(16) 0.17355(8)
C57_4 C 0.16633(12) 0.9506(2) 0.20919(11)
C58_4 C 0.17919(13) 0.95770(16) 0.23238(8)
C59_4 C 0.19714(19) 0.93332(14) 0.24239(12)
H28_4 H 0.2003 0.9136 0.2346
C60_4 C 0.21042(18) 0.93785(17) 0.26377(12)
H29_4 H 0.2227 0.9212 0.2706
C61_4 C 0.20574(15) 0.96676(19) 0.27515(9)
C62_4 C 0.1878(2) 0.99114(16) 0.26514(10)
C63_4 C 0.17451(19) 0.98662(16) 0.24376(10)
C64_4 C 0.21909(16) 0.9736(3) 0.29751(14)
N16_4 N 0.2320(3) 0.9530(2) 0.31197(19)
N28_4 N 0.16068(17) 0.97626(17) 0.19562(10)
H46_4 H 0.1651 0.9952 0.2015
O38_4 O 0.1614(2) 0.92254(17) 0.20305(12)
H93_5 H 0.130331 0.976038 0.015503
H77_5 H 0.317291 0.972324 0.99519
H78_5 H 0.311788 0.934606 0.98931
H94_5 H 0.12823 0.964361 0.989321
C1_10 C 0.95937(16) 0.13060(17) 0.12989(12)
C6_10 C 0.99161(12) 0.13089(12) 0.14182(10)
C7_10 C 0.99368(13) 0.14577(12) 0.16287(10)
H3_10 H 0.9748 0.1539 0.1700
H6_10 H 0.9891 0.1846 0.2729
H7_10 H 0.9967 0.1622 0.2369
N4_10 N 0.9954(2) 0.2193(3) 0.30587(17)
H93_6 H 0.0239623 0.130331 0.015503
H77_6 H 0.0276765 0.317291 0.99519
H78_6 H 0.0653937 0.311788 0.98931
H94_6 H 0.0356391 0.12823 0.989321
C2_11 C 0.89064(16) 0.07898(17) 0.13092(13)
C3_11 C 0.86307(13) 0.05093(13) 0.16318(10)
H1_11 H 0.8610 0.0712 0.1705
C4_11 C 0.87795(11) 0.04886(12) 0.14213(10)
C5_11 C 0.88097(11) 0.01920(15) 0.13145(8)
H2_11 H 0.8911 0.0178 0.1171
C8_11 C 0.85122(13) 0.02334(16) 0.17355(8)
C9_11 C 0.83367(12) 0.0494(2) 0.20919(11)
C10_11 C 0.82081(13) 0.04230(16) 0.23238(8)
C11_11 C 0.80286(19) 0.06668(14) 0.24239(12)
H4_11 H 0.7997 0.0864 0.2346
C12_11 C 0.78958(18) 0.06215(17) 0.26377(12)
H5_11 H 0.7773 0.0788 0.2706
C13_11 C 0.79426(15) 0.03324(19) 0.27515(9)
C14_11 C 0.8122(2) 0.00886(16) 0.26514(10)
C15_11 C 0.82549(19) 0.01338(16) 0.24376(10)
C16_11 C 0.78091(16) 0.0264(3) 0.29751(14)
N1_11 N 0.7680(3) 0.0470(2) 0.31197(19)
N9_11 N 0.83932(17) 0.02374(17) 0.19562(10)
H22_11 H 0.8349 0.0048 0.2015
O5_11 O 0.8386(2) 0.07746(17) 0.20305(12)
C1_11 C 0.86940(17) 0.95937(16) 0.12989(12)
C6_11 C 0.86911(12) 0.99161(12) 0.14182(10)
C7_11 C 0.85423(12) 0.99368(13) 0.16287(10)
H3_11 H 0.8461 0.9748 0.1700
H6_11 H 0.8154 0.9891 0.2729
H7_11 H 0.8378 0.9967 0.2369
N4_11 N 0.7807(3) 0.9954(2) 0.30587(17)
C1_12 C 0.04063(16) 0.86940(17) 0.12989(12)
C6_12 C 0.00839(12) 0.86911(12) 0.14182(10)
C7_12 C 0.00632(13) 0.85423(12) 0.16287(10)
H3_12 H 0.0252 0.8461 0.1700
H6_12 H 0.0109 0.8154 0.2729
H7_12 H 0.0033 0.8378 0.2369
N4_12 N 0.0046(2) 0.7807(3) 0.30587(17)
H93_7 H 0.869669 0.0239623 0.015503
H77_7 H 0.682709 0.0276765 0.99519
H78_7 H 0.688212 0.0653937 0.98931
H94_7 H 0.87177 0.0356391 0.989321
C2_12 C 0.92102(17) 0.89064(16) 0.13092(13)
C3_12 C 0.94907(13) 0.86307(13) 0.16318(10)
H1_12 H 0.9288 0.8610 0.1705
C4_12 C 0.95114(12) 0.87795(11) 0.14213(10)
C5_12 C 0.98080(15) 0.88097(11) 0.13145(8)
H2_12 H 0.9822 0.8911 0.1171
C8_12 C 0.97666(16) 0.85122(13) 0.17355(8)
C9_12 C 0.9506(2) 0.83367(12) 0.20919(11)
C10_12 C 0.95770(16) 0.82081(13) 0.23238(8)
C11_12 C 0.93332(14) 0.80286(19) 0.24239(12)
H4_12 H 0.9136 0.7997 0.2346
C12_12 C 0.93785(17) 0.78958(18) 0.26377(12)
H5_12 H 0.9212 0.7773 0.2706
C13_12 C 0.96676(19) 0.79426(15) 0.27515(9)
C14_12 C 0.99114(16) 0.8122(2) 0.26514(10)
C15_12 C 0.98662(16) 0.82549(19) 0.24376(10)
C16_12 C 0.9736(3) 0.78091(16) 0.29751(14)
N1_12 N 0.9530(2) 0.7680(3) 0.31197(19)
N9_12 N 0.97626(17) 0.83932(17) 0.19562(10)
H22_12 H 0.9952 0.8349 0.2015
O5_12 O 0.92254(17) 0.8386(2) 0.20305(12)
H93_8 H 0.976038 0.869669 0.015503
H77_8 H 0.972324 0.682709 0.99519
H78_8 H 0.934606 0.688212 0.98931
H94_8 H 0.964361 0.87177 0.989321
loop_
_geom_bond_atom_site_label_1
_geom_bond_atom_site_label_2
_geom_bond_site_symmetry_1
_geom_bond_site_symmetry_2
C1 C6 1_555 1_555
C2 C4 1_555 1_555
C3 H1 1_555 1_555
C4 C3 1_555 1_555
C5 C4 1_555 1_555
H2 C5 1_555 1_555
C6 C5 1_555 1_555
C7 C6 1_555 1_555
H3 C7 1_555 1_555
C8 C3 1_555 1_555
C9 C10 1_555 1_555
C10 C11 1_555 1_555
C11 H4 1_555 1_555
C12 C11 1_555 1_555
H5 C12 1_555 1_555
C13 C12 1_555 1_555
C14 C13 1_555 1_555
H6 C14 1_555 1_555
C15 C10 1_555 1_555
H7 C15 1_555 1_555
C16 C13 1_555 1_555
N1 C16 1_555 1_555
N2 N1 1_555 1_555
N3 N2 1_555 1_555
N4 C16 1_555 1_555
C17 C20 1_555 1_555
C18 C24 1_555 1_555
C19 H8 1_555 1_555
C20 C19 1_555 1_555
C21 C20 1_555 1_555
H9 C21 1_555 1_555
C22 C21 1_555 1_555
C23 C22 1_555 1_555
H10 C23 1_555 1_555
C24 C19 1_555 1_555
C25 C26 1_555 1_555
C26 C27 1_555 1_555
C27 H11 1_555 1_555
C28 C27 1_555 1_555
H12 C28 1_555 1_555
C29 C28 1_555 1_555
C30 C29 1_555 1_555
H13 C30 1_555 1_555
C31 C26 1_555 1_555
H14 C31 1_555 1_555
C32 C29 1_555 1_555
N5 C32 1_555 1_555
N6 N5 1_555 1_555
N7 N6 1_555 1_555
N8 C32 1_555 1_555
C33 C36 1_555 1_555
C34 C40 1_555 1_555
C35 H15 1_555 1_555
C36 C35 1_555 1_555
C37 C36 1_555 1_555
H16 C37 1_555 1_555
C38 C37 1_555 1_555
C39 C38 1_555 1_555
H17 C39 1_555 1_555
C40 C35 1_555 1_555
C41 C42 1_555 1_555
C42 C43 1_555 1_555
C43 H18 1_555 1_555
C44 C43 1_555 1_555
H19 C44 1_555 1_555
C45 C44 1_555 1_555
C46 C45 1_555 1_555
H20 C46 1_555 1_555
C47 C42 1_555 1_555
H21 C47 1_555 1_555
Cu1 O1 1_555 1_555
Cu2 O2 1_555 1_555
Cu3 O8 1_555 1_555
Cu4 O9 1_555 1_555
Cu5 N12 1_555 1_555
Cu7 N6 1_555 1_555
N9 C8 1_555 1_555
H22 N9 1_555 1_555
N10 C22 1_555 1_555
H23 N10 1_555 1_555
N11 C38 1_555 1_555
H24 N11 1_555 1_555
N12 N13 1_555 1_555
N13 C48 1_555 1_555
C48 C45 1_555 1_555
N14 C48 1_555 1_555
N15 N12 1_555 1_555
O1 C2 1_555 1_555
O2 C2 1_555 1_555
O3 C1 1_555 1_555
O4 C1 1_555 1_555
O5 C9 1_555 1_555
O6 C17 1_555 1_555
O7 C17 1_555 1_555
O8 C18 1_555 1_555
O9 C18 1_555 1_555
O10 C25 1_555 1_555
O11 Cu5 1_555 1_555
O12 C33 1_555 1_555
O13 C33 1_555 1_555
O14 C34 1_555 1_555
O15 C34 1_555 1_555
O16 C41 1_555 1_555
O17 Cu2 1_555 1_555
O18 Cu1 1_555 1_555
O19 Cu3 1_555 1_555
O20 Cu4 1_555 1_555
O22 Cu5 1_555 1_555
O23 Cu7 1_555 1_555
O26 Cu5 1_555 1_555
O27 Cu7 1_555 1_555
O29 Cu7 1_555 1_555
C49 C54 1_555 1_555
C50 C52 1_555 1_555
C51 H25 1_555 1_555
C52 C51 1_555 1_555
C53 C52 1_555 1_555
H26 C53 1_555 1_555
C54 C53 1_555 1_555
C55 C54 1_555 1_555
H27 C55 1_555 1_555
C56 C51 1_555 1_555
C57 C58 1_555 1_555
C58 C59 1_555 1_555
C59 H28 1_555 1_555
C60 C59 1_555 1_555
H29 C60 1_555 1_555
C61 C60 1_555 1_555
C62 C61 1_555 1_555
H30 C62 1_555 1_555
C63 C58 1_555 1_555
H31 C63 1_555 1_555
C64 C61 1_555 1_555
N16 C64 1_555 1_555
N17 N16 1_555 1_555
N18 Cu7 1_555 1_555
N19 Cu23 1_555 1_555
N20 N17 1_555 1_555
N21 Cu5 1_555 1_555
N22 Cu16 1_555 1_555
N23 C64 1_555 1_555
C65 C68 1_555 1_555
C66 C72 1_555 1_555
C67 H32 1_555 1_555
C68 C67 1_555 1_555
C69 C68 1_555 1_555
H33 C69 1_555 1_555
C70 C69 1_555 1_555
C71 C70 1_555 1_555
H34 C71 1_555 1_555
C72 C67 1_555 1_555
C73 C74 1_555 1_555
C74 C75 1_555 1_555
C75 H35 1_555 1_555
C76 C75 1_555 1_555
H36 C76 1_555 1_555
C77 C76 1_555 1_555
C78 C77 1_555 1_555
H37 C78 1_555 1_555
C79 C74 1_555 1_555
H38 C79 1_555 1_555
C80 C77 1_555 1_555
N24 C80 1_555 1_555
N25 N24 1_555 1_555
N26 N25 1_555 1_555
N27 C80 1_555 1_555
C81 C84 1_555 1_555
C82 C88 1_555 1_555
C83 H39 1_555 1_555
C84 C83 1_555 1_555
C85 C84 1_555 1_555
H40 C85 1_555 1_555
C86 C85 1_555 1_555
C87 C86 1_555 1_555
H41 C87 1_555 1_555
C88 C83 1_555 1_555
C89 C90 1_555 1_555
C90 C91 1_555 1_555
C91 H42 1_555 1_555
C92 C91 1_555 1_555
H43 C92 1_555 1_555
C93 C92 1_555 1_555
C94 C93 1_555 1_555
H44 C94 1_555 1_555
C95 C90 1_555 1_555
H45 C95 1_555 1_555
Cu8 O31 1_555 1_555
Cu9 O3 1_555 1_555
Cu10 O13 1_555 1_555
Cu11 O48 1_555 1_555
Cu12 O33 1_555 1_555
Cu13 O4 1_555 1_555
Cu14 O12 1_555 1_555
Cu15 O45 1_555 1_555
Cu16 N31 1_555 1_555
Cu17 N3 1_555 1_555
Cu18 N20 1_555 1_555
Cu21 N15 1_555 1_555
Cu22 N34 1_555 1_555
Cu23 N25 1_555 1_555
Cu24 N2 1_555 1_555
Cu26 N17 1_555 1_555
N28 C56 1_555 1_555
H46 N28 1_555 1_555
N29 C70 1_555 1_555
H47 N29 1_555 1_555
N30 C86 1_555 1_555
H48 N30 1_555 1_555
N31 N32 1_555 1_555
N32 C96 1_555 1_555
C96 C93 1_555 1_555
N33 C96 1_555 1_555
N34 N31 1_555 1_555
O30 C50 1_555 1_555
O32 C50 1_555 1_555
O34 Cu1 1_555 1_555
O35 Cu8 1_555 1_555
O36 Cu2 1_555 1_555
O37 Cu12 1_555 1_555
O38 C57 1_555 1_555
O39 C65 1_555 1_555
O40 C65 1_555 1_555
O41 Cu3 1_555 1_555
O42 Cu4 1_555 1_555
O43 C73 1_555 1_555
O44 Cu16 1_555 1_555
O45 C81 1_555 1_555
O46 Cu2 1_555 1_555
O47 Cu12 1_555 1_555
O48 C81 1_555 1_555
O49 Cu1 1_555 1_555
O50 Cu8 1_555 1_555
O51 Cu3 1_555 1_555
O52 Cu4 1_555 1_555
O53 C89 1_555 1_555
O54 Cu12 1_555 1_555
O55 Cu8 1_555 1_555
O59 Cu16 1_555 1_555
O60 Cu23 1_555 1_555
O63 Cu16 1_555 1_555
O64 Cu23 1_555 1_555
O66 Cu23 1_555 1_555
C7 C8 1_555 1_555
C9 N9 1_555 1_555
C14 C15 1_555 1_555
N3 N4 1_555 1_555
C23 C24 1_555 1_555
C25 N10 1_555 1_555
C30 C31 1_555 1_555
N7 N8 1_555 1_555
C39 C40 1_555 1_555
C41 N11 1_555 1_555
C46 C47 1_555 1_555
Cu1 O7 1_555 1_555
Cu2 O6 1_555 1_555
Cu3 O14 1_555 1_555
Cu4 O15 1_555 1_555
Cu7 O56 1_555 1_555
N14 N15 1_555 1_555
C49 O34 1_555 1_555
C49 O36 1_555 1_555
C55 C56 1_555 1_555
C57 N28 1_555 1_555
C62 C63 1_555 1_555
N20 N23 1_555 1_555
C66 O41 1_555 1_555
C66 O42 1_555 1_555
C71 C72 1_555 1_555
C73 N29 1_555 1_555
C78 C79 1_555 1_555
N26 N27 1_555 1_555
C82 O51 1_555 1_555
C82 O52 1_555 1_555
C87 C88 1_555 1_555
C89 N30 1_555 1_555
C94 C95 1_555 1_555
Cu8 O40 1_555 1_555
Cu10 O30 1_555 1_555
Cu12 O39 1_555 1_555
Cu14 O32 1_555 1_555
Cu23 O58 1_555 1_555
N33 N34 1_555 1_555
O62 H67 1_555 1_555
O25 H91 1_555 1_555
O24 Cu6 1_555 1_555
O28 Cu6 1_555 1_555
Cu25 O21 1_555 1_555
N35 Cu6 1_555 1_555
N36 Cu20 1_555 1_555
O61 Cu20 1_555 1_555
O65 Cu20 1_555 1_555
O65 H57 1_555 1_555
O65 H58 1_555 1_555
O28 H90 1_555 1_555
C1_2 C6_2 1_555 1_555
C2_2 C4_2 1_555 1_555
C3_2 H1_2 1_555 1_555
C4_2 C3_2 1_555 1_555
C5_2 C4_2 1_555 1_555
H2_2 C5_2 1_555 1_555
C6_2 C5_2 1_555 1_555
C7_2 C6_2 1_555 1_555
H3_2 C7_2 1_555 1_555
C8_2 C3_2 1_555 1_555
C9_2 C10_2 1_555 1_555
C10_2 C11_2 1_555 1_555
C11_2 H4_2 1_555 1_555
C12_2 C11_2 1_555 1_555
H5_2 C12_2 1_555 1_555
C13_2 C12_2 1_555 1_555
C14_2 C13_2 1_555 1_555
H6_2 C14_2 1_555 1_555
C15_2 C10_2 1_555 1_555
H7_2 C15_2 1_555 1_555
C16_2 C13_2 1_555 1_555
N1_2 C16_2 1_555 1_555
N2_2 N1_2 1_555 1_555
N3_2 N2_2 1_555 1_555
N4_2 C16_2 1_555 1_555
C17_2 C20_2 1_555 1_555
C18_2 C24_2 1_555 1_555
C19_2 H8_2 1_555 1_555
C20_2 C19_2 1_555 1_555
C21_2 C20_2 1_555 1_555
H9_2 C21_2 1_555 1_555
C22_2 C21_2 1_555 1_555
C23_2 C22_2 1_555 1_555
H10_2 C23_2 1_555 1_555
C24_2 C19_2 1_555 1_555
C25_2 C26_2 1_555 1_555
C26_2 C27_2 1_555 1_555
C27_2 H11_2 1_555 1_555
C28_2 C27_2 1_555 1_555
H12_2 C28_2 1_555 1_555
C29_2 C28_2 1_555 1_555
C30_2 C29_2 1_555 1_555
H13_2 C30_2 1_555 1_555
C31_2 C26_2 1_555 1_555
H14_2 C31_2 1_555 1_555
C32_2 C29_2 1_555 1_555
N5_2 C32_2 1_555 1_555
N6_2 N5_2 1_555 1_555
N7_2 N6_2 1_555 1_555
N8_2 C32_2 1_555 1_555
C33_2 C36_2 1_555 1_555
C34_2 C40_2 1_555 1_555
C35_2 H15_2 1_555 1_555
C36_2 C35_2 1_555 1_555
C37_2 C36_2 1_555 1_555
H16_2 C37_2 1_555 1_555
C38_2 C37_2 1_555 1_555
C39_2 C38_2 1_555 1_555
H17_2 C39_2 1_555 1_555
C40_2 C35_2 1_555 1_555
C41_2 C42_2 1_555 1_555
C42_2 C43_2 1_555 1_555
C43_2 H18_2 1_555 1_555
C44_2 C43_2 1_555 1_555
H19_2 C44_2 1_555 1_555
C45_2 C44_2 1_555 1_555
C46_2 C45_2 1_555 1_555
H20_2 C46_2 1_555 1_555
C47_2 C42_2 1_555 1_555
H21_2 C47_2 1_555 1_555
Cu9 O1_2 1_555 1_555
Cu13 O2_2 1_555 1_555
Cu3_2 O8_2 1_555 1_555
Cu4_2 O9_2 1_555 1_555
Cu5_2 N12_2 1_555 1_555
Cu7_2 N6_2 1_555 1_555
N9_2 C8_2 1_555 1_555
H22_2 N9_2 1_555 1_555
N10_2 C22_2 1_555 1_555
H23_2 N10_2 1_555 1_555
N11_2 C38_2 1_555 1_555
H24_2 N11_2 1_555 1_555
N12_2 N13_2 1_555 1_555
N13_2 C48_2 1_555 1_555
C48_2 C45_2 1_555 1_555
N14_2 C48_2 1_555 1_555
N15_2 N12_2 1_555 1_555
O1_2 C2_2 1_555 1_555
O2_2 C2_2 1_555 1_555
O3_2 C1_2 1_555 1_555
O4_2 C1_2 1_555 1_555
O5_2 C9_2 1_555 1_555
O6_2 C17_2 1_555 1_555
O7_2 C17_2 1_555 1_555
O8_2 C18_2 1_555 1_555
O9_2 C18_2 1_555 1_555
O10_2 C25_2 1_555 1_555
O11_2 Cu5_2 1_555 1_555
O46 C33_2 1_555 1_555
O49 C33_2 1_555 1_555
O14_2 C34_2 1_555 1_555
O15_2 C34_2 1_555 1_555
O16_2 C41_2 1_555 1_555
O17_2 Cu13 1_555 1_555
O18_2 Cu9 1_555 1_555
O19_2 Cu3_2 1_555 1_555
O20_2 Cu4_2 1_555 1_555
O22_2 Cu5_2 1_555 1_555
O23_2 Cu7_2 1_555 1_555
O26_2 Cu5_2 1_555 1_555
O27_2 Cu7_2 1_555 1_555
O29_2 Cu7_2 1_555 1_555
N18_2 Cu7_2 1_555 1_555
N19_2 Cu23_2 1_555 1_555
N21_2 Cu5_2 1_555 1_555
N22_2 Cu16_2 1_555 1_555
C65_2 C68_2 1_555 1_555
C66_2 C72_2 1_555 1_555
C67_2 H32_2 1_555 1_555
C68_2 C67_2 1_555 1_555
C69_2 C68_2 1_555 1_555
H33_2 C69_2 1_555 1_555
C70_2 C69_2 1_555 1_555
C71_2 C70_2 1_555 1_555
H34_2 C71_2 1_555 1_555
C72_2 C67_2 1_555 1_555
C73_2 C74_2 1_555 1_555
C74_2 C75_2 1_555 1_555
C75_2 H35_2 1_555 1_555
C76_2 C75_2 1_555 1_555
H36_2 C76_2 1_555 1_555
C77_2 C76_2 1_555 1_555
C78_2 C77_2 1_555 1_555
H37_2 C78_2 1_555 1_555
C79_2 C74_2 1_555 1_555
H38_2 C79_2 1_555 1_555
C80_2 C77_2 1_555 1_555
N24_2 C80_2 1_555 1_555
N25_2 N24_2 1_555 1_555
N26_2 N25_2 1_555 1_555
N27_2 C80_2 1_555 1_555
C81_2 C84_2 1_555 1_555
C82_2 C88_2 1_555 1_555
C83_2 H39_2 1_555 1_555
C84_2 C83_2 1_555 1_555
C85_2 C84_2 1_555 1_555
H40_2 C85_2 1_555 1_555
C86_2 C85_2 1_555 1_555
C87_2 C86_2 1_555 1_555
H41_2 C87_2 1_555 1_555
C88_2 C83_2 1_555 1_555
C89_2 C90_2 1_555 1_555
C90_2 C91_2 1_555 1_555
C91_2 H42_2 1_555 1_555
C92_2 C91_2 1_555 1_555
H43_2 C92_2 1_555 1_555
C93_2 C92_2 1_555 1_555
C94_2 C93_2 1_555 1_555
H44_2 C94_2 1_555 1_555
C95_2 C90_2 1_555 1_555
H45_2 C95_2 1_555 1_555
Cu8_2 O31_2 1_555 1_555
Cu9_2 O3_2 1_555 1_555
Cu12_2 O33_2 1_555 1_555
Cu13_2 O4_2 1_555 1_555
Cu16_2 N31_2 1_555 1_555
Cu17_2 N3_2 1_555 1_555
Cu21_2 N15_2 1_555 1_555
Cu22_2 N34_2 1_555 1_555
Cu23_2 N25_2 1_555 1_555
Cu24_2 N2_2 1_555 1_555
N29_2 C70_2 1_555 1_555
H47_2 N29_2 1_555 1_555
N30_2 C86_2 1_555 1_555
H48_2 N30_2 1_555 1_555
N31_2 N32_2 1_555 1_555
N32_2 C96_2 1_555 1_555
C96_2 C93_2 1_555 1_555
N33_2 C96_2 1_555 1_555
N34_2 N31_2 1_555 1_555
O35_2 Cu8_2 1_555 1_555
O37_2 Cu12_2 1_555 1_555
O39_2 C65_2 1_555 1_555
O40_2 C65_2 1_555 1_555
O41_2 Cu3_2 1_555 1_555
O42_2 Cu4_2 1_555 1_555
O43_2 C73_2 1_555 1_555
O44_2 Cu16_2 1_555 1_555
O47 C81_2 1_555 1_555
O46_2 Cu13 1_555 1_555
O47_2 Cu12_2 1_555 1_555
O50 C81_2 1_555 1_555
O49_2 Cu9 1_555 1_555
O50_2 Cu8_2 1_555 1_555
O51_2 Cu3_2 1_555 1_555
O52_2 Cu4_2 1_555 1_555
O53_2 C89_2 1_555 1_555
O54_2 Cu12_2 1_555 1_555
O55_2 Cu8_2 1_555 1_555
O59_2 Cu16_2 1_555 1_555
O60_2 Cu23_2 1_555 1_555
O63_2 Cu16_2 1_555 1_555
O64_2 Cu23_2 1_555 1_555
O66_2 Cu23_2 1_555 1_555
C7_2 C8_2 1_555 1_555
C9_2 N9_2 1_555 1_555
C14_2 C15_2 1_555 1_555
N3_2 N4_2 1_555 1_555
C23_2 C24_2 1_555 1_555
C25_2 N10_2 1_555 1_555
C30_2 C31_2 1_555 1_555
N7_2 N8_2 1_555 1_555
C39_2 C40_2 1_555 1_555
C41_2 N11_2 1_555 1_555
C46_2 C47_2 1_555 1_555
Cu9 O7_2 1_555 1_555
Cu13 O6_2 1_555 1_555
Cu3_2 O14_2 1_555 1_555
Cu4_2 O15_2 1_555 1_555
Cu7_2 O56_2 1_555 1_555
N14_2 N15_2 1_555 1_555
C66_2 O41_2 1_555 1_555
C66_2 O42_2 1_555 1_555
C71_2 C72_2 1_555 1_555
C73_2 N29_2 1_555 1_555
C78_2 C79_2 1_555 1_555
N26_2 N27_2 1_555 1_555
C82_2 O51_2 1_555 1_555
C82_2 O52_2 1_555 1_555
C87_2 C88_2 1_555 1_555
C89_2 N30_2 1_555 1_555
C94_2 C95_2 1_555 1_555
Cu8_2 O40_2 1_555 1_555
Cu12_2 O39_2 1_555 1_555
Cu23_2 O58_2 1_555 1_555
N33_2 N34_2 1_555 1_555
O62_2 H67_2 1_555 1_555
O25_2 H91_2 1_555 1_555
O24_2 Cu6_2 1_555 1_555
O28_2 Cu6_2 1_555 1_555
Cu25_2 O21_2 1_555 1_555
N35_2 Cu6_2 1_555 1_555
N36_2 Cu20_2 1_555 1_555
O61_2 Cu20_2 1_555 1_555
O65_2 Cu20_2 1_555 1_555
O65_2 H57_2 1_555 1_555
O65_2 H58_2 1_555 1_555
O28_2 H90_2 1_555 1_555
O24_3 Cu21 1_555 1_555
O28_3 Cu21 1_555 1_555
O61_3 Cu22 1_555 1_555
O65_3 Cu22 1_555 1_555
O65_3 H57_3 1_555 1_555
O65_3 H58_3 1_555 1_555
O28_3 H90_3 1_555 1_555
C1_3 C6_3 1_555 1_555
C2_3 C4_3 1_555 1_555
C3_3 H1_3 1_555 1_555
C4_3 C3_3 1_555 1_555
C5_3 C4_3 1_555 1_555
H2_3 C5_3 1_555 1_555
C6_3 C5_3 1_555 1_555
C7_3 C6_3 1_555 1_555
H3_3 C7_3 1_555 1_555
C8_3 C3_3 1_555 1_555
C9_3 C10_3 1_555 1_555
C10_3 C11_3 1_555 1_555
C11_3 H4_3 1_555 1_555
C12_3 C11_3 1_555 1_555
H5_3 C12_3 1_555 1_555
C13_3 C12_3 1_555 1_555
C14_3 C13_3 1_555 1_555
H6_3 C14_3 1_555 1_555
C15_3 C10_3 1_555 1_555
H7_3 C15_3 1_555 1_555
C16_3 C13_3 1_555 1_555
N1_3 C16_3 1_555 1_555
N2_3 N1_3 1_555 1_555
N3_3 N2_3 1_555 1_555
N4_3 C16_3 1_555 1_555
C17_3 C20_3 1_555 1_555
C18_3 C24_3 1_555 1_555
C19_3 H8_3 1_555 1_555
C20_3 C19_3 1_555 1_555
C21_3 C20_3 1_555 1_555
H9_3 C21_3 1_555 1_555
C22_3 C21_3 1_555 1_555
C23_3 C22_3 1_555 1_555
H10_3 C23_3 1_555 1_555
C24_3 C19_3 1_555 1_555
C25_3 C26_3 1_555 1_555
C26_3 C27_3 1_555 1_555
C27_3 H11_3 1_555 1_555
C28_3 C27_3 1_555 1_555
H12_3 C28_3 1_555 1_555
C29_3 C28_3 1_555 1_555
C30_3 C29_3 1_555 1_555
H13_3 C30_3 1_555 1_555
C31_3 C26_3 1_555 1_555
H14_3 C31_3 1_555 1_555
C32_3 C29_3 1_555 1_555
N5_3 C32_3 1_555 1_555
N6_3 N5_3 1_555 1_555
N7_3 N6_3 1_555 1_555
N8_3 C32_3 1_555 1_555
C33_3 C36_3 1_555 1_555
C34_3 C40_3 1_555 1_555
C35_3 H15_3 1_555 1_555
C36_3 C35_3 1_555 1_555
C37_3 C36_3 1_555 1_555
H16_3 C37_3 1_555 1_555
C38_3 C37_3 1_555 1_555
C39_3 C38_3 1_555 1_555
H17_3 C39_3 1_555 1_555
C40_3 C35_3 1_555 1_555
C41_3 C42_3 1_555 1_555
C42_3 C43_3 1_555 1_555
C43_3 H18_3 1_555 1_555
C44_3 C43_3 1_555 1_555
H19_3 C44_3 1_555 1_555
C45_3 C44_3 1_555 1_555
C46_3 C45_3 1_555 1_555
H20_3 C46_3 1_555 1_555
C47_3 C42_3 1_555 1_555
H21_3 C47_3 1_555 1_555
Cu9_2 O1_3 1_555 1_555
Cu13_2 O2_3 1_555 1_555
Cu3_3 O8_3 1_555 1_555
Cu4_3 O9_3 1_555 1_555
Cu19 N12_3 1_555 1_555
Cu25 N6_3 1_555 1_555
N9_3 C8_3 1_555 1_555
H22_3 N9_3 1_555 1_555
N10_3 C22_3 1_555 1_555
H23_3 N10_3 1_555 1_555
N11_3 C38_3 1_555 1_555
H24_3 N11_3 1_555 1_555
N12_3 N13_3 1_555 1_555
N13_3 C48_3 1_555 1_555
C48_3 C45_3 1_555 1_555
N14_3 C48_3 1_555 1_555
N35 N12_3 1_555 1_555
O1_3 C2_3 1_555 1_555
O2_3 C2_3 1_555 1_555
O3_3 C1_3 1_555 1_555
O4_3 C1_3 1_555 1_555
O5_3 C9_3 1_555 1_555
O6_3 C17_3 1_555 1_555
O7_3 C17_3 1_555 1_555
O8_3 C18_3 1_555 1_555
O9_3 C18_3 1_555 1_555
O10_3 C25_3 1_555 1_555
O11_3 Cu19 1_555 1_555
O46_2 C33_3 1_555 1_555
O49_2 C33_3 1_555 1_555
O14_3 C34_3 1_555 1_555
O15_3 C34_3 1_555 1_555
O16_3 C41_3 1_555 1_555
O17_3 Cu13_2 1_555 1_555
O18_3 Cu9_2 1_555 1_555
O19_3 Cu3_3 1_555 1_555
O20_3 Cu4_3 1_555 1_555
O22_3 Cu19 1_555 1_555
O23_3 Cu25 1_555 1_555
O26_3 Cu19 1_555 1_555
O27_3 Cu25 1_555 1_555
O29_3 Cu25 1_555 1_555
N18_3 Cu25 1_555 1_555
N19_3 Cu23_3 1_555 1_555
N21_3 Cu19 1_555 1_555
N22_3 Cu16_3 1_555 1_555
C65_3 C68_3 1_555 1_555
C66_3 C72_3 1_555 1_555
C67_3 H32_3 1_555 1_555
C68_3 C67_3 1_555 1_555
C69_3 C68_3 1_555 1_555
H33_3 C69_3 1_555 1_555
C70_3 C69_3 1_555 1_555
C71_3 C70_3 1_555 1_555
H34_3 C71_3 1_555 1_555
C72_3 C67_3 1_555 1_555
C73_3 C74_3 1_555 1_555
C74_3 C75_3 1_555 1_555
C75_3 H35_3 1_555 1_555
C76_3 C75_3 1_555 1_555
H36_3 C76_3 1_555 1_555
C77_3 C76_3 1_555 1_555
C78_3 C77_3 1_555 1_555
H37_3 C78_3 1_555 1_555
C79_3 C74_3 1_555 1_555
H38_3 C79_3 1_555 1_555
C80_3 C77_3 1_555 1_555
N24_3 C80_3 1_555 1_555
N25_3 N24_3 1_555 1_555
N26_3 N25_3 1_555 1_555
N27_3 C80_3 1_555 1_555
C81_3 C84_3 1_555 1_555
C82_3 C88_3 1_555 1_555
C83_3 H39_3 1_555 1_555
C84_3 C83_3 1_555 1_555
C85_3 C84_3 1_555 1_555
H40_3 C85_3 1_555 1_555
C86_3 C85_3 1_555 1_555
C87_3 C86_3 1_555 1_555
H41_3 C87_3 1_555 1_555
C88_3 C83_3 1_555 1_555
C89_3 C90_3 1_555 1_555
C90_3 C91_3 1_555 1_555
C91_3 H42_3 1_555 1_555
C92_3 C91_3 1_555 1_555
H43_3 C92_3 1_555 1_555
C93_3 C92_3 1_555 1_555
C94_3 C93_3 1_555 1_555
H44_3 C94_3 1_555 1_555
C95_3 C90_3 1_555 1_555
H45_3 C95_3 1_555 1_555
Cu8_3 O31_3 1_555 1_555
Cu10 O3_3 1_555 1_555
Cu12_3 O33_3 1_555 1_555
Cu14 O4_3 1_555 1_555
Cu16_3 N31_3 1_555 1_555
Cu17_3 N3_3 1_555 1_555
Cu23_3 N25_3 1_555 1_555
Cu24_3 N2_3 1_555 1_555
N29_3 C70_3 1_555 1_555
H47_3 N29_3 1_555 1_555
N30_3 C86_3 1_555 1_555
H48_3 N30_3 1_555 1_555
N31_3 N32_3 1_555 1_555
N32_3 C96_3 1_555 1_555
C96_3 C93_3 1_555 1_555
N33_3 C96_3 1_555 1_555
N36 N31_3 1_555 1_555
O35_3 Cu8_3 1_555 1_555
O37_3 Cu12_3 1_555 1_555
O39_3 C65_3 1_555 1_555
O40_3 C65_3 1_555 1_555
O41_3 Cu3_3 1_555 1_555
O42_3 Cu4_3 1_555 1_555
O43_3 C73_3 1_555 1_555
O44_3 Cu16_3 1_555 1_555
O47_2 C81_3 1_555 1_555
O46_3 Cu13_2 1_555 1_555
O47_3 Cu12_3 1_555 1_555
O50_2 C81_3 1_555 1_555
O49_3 Cu9_2 1_555 1_555
O50_3 Cu8_3 1_555 1_555
O51_3 Cu3_3 1_555 1_555
O52_3 Cu4_3 1_555 1_555
O53_3 C89_3 1_555 1_555
O54_3 Cu12_3 1_555 1_555
O55_3 Cu8_3 1_555 1_555
O59_3 Cu16_3 1_555 1_555
O60_3 Cu23_3 1_555 1_555
O63_3 Cu16_3 1_555 1_555
O64_3 Cu23_3 1_555 1_555
O66_3 Cu23_3 1_555 1_555
C7_3 C8_3 1_555 1_555
C9_3 N9_3 1_555 1_555
C14_3 C15_3 1_555 1_555
N3_3 N4_3 1_555 1_555
C23_3 C24_3 1_555 1_555
C25_3 N10_3 1_555 1_555
C30_3 C31_3 1_555 1_555
N7_3 N8_3 1_555 1_555
C39_3 C40_3 1_555 1_555
C41_3 N11_3 1_555 1_555
C46_3 C47_3 1_555 1_555
Cu9_2 O7_3 1_555 1_555
Cu13_2 O6_3 1_555 1_555
Cu3_3 O14_3 1_555 1_555
Cu4_3 O15_3 1_555 1_555
N14_3 N35 1_555 1_555
C66_3 O41_3 1_555 1_555
C66_3 O42_3 1_555 1_555
C71_3 C72_3 1_555 1_555
C73_3 N29_3 1_555 1_555
C78_3 C79_3 1_555 1_555
N26_3 N27_3 1_555 1_555
C82_3 O51_3 1_555 1_555
C82_3 O52_3 1_555 1_555
C87_3 C88_3 1_555 1_555
C89_3 N30_3 1_555 1_555
C94_3 C95_3 1_555 1_555
Cu8_3 O40_3 1_555 1_555
Cu12_3 O39_3 1_555 1_555
Cu23_3 O57 1_555 1_555
N33_3 N36 1_555 1_555
O62_3 H67_3 1_555 1_555
O25_3 H91_3 1_555 1_555
O24_4 Cu21_2 1_555 1_555
O28_4 Cu21_2 1_555 1_555
O61_4 Cu22_2 1_555 1_555
O65_4 Cu22_2 1_555 1_555
O65_4 H57_4 1_555 1_555
O65_4 H58_4 1_555 1_555
O28_4 H90_4 1_555 1_555
C17_4 C20_4 1_555 1_555
C18_4 C24_4 1_555 1_555
C19_4 H8_4 1_555 1_555
C20_4 C19_4 1_555 1_555
C21_4 C20_4 1_555 1_555
H9_4 C21_4 1_555 1_555
C22_4 C21_4 1_555 1_555
C23_4 C22_4 1_555 1_555
H10_4 C23_4 1_555 1_555
C24_4 C19_4 1_555 1_555
C25_4 C26_4 1_555 1_555
C26_4 C27_4 1_555 1_555
C27_4 H11_4 1_555 1_555
C28_4 C27_4 1_555 1_555
H12_4 C28_4 1_555 1_555
C29_4 C28_4 1_555 1_555
C30_4 C29_4 1_555 1_555
H13_4 C30_4 1_555 1_555
C31_4 C26_4 1_555 1_555
H14_4 C31_4 1_555 1_555
C32_4 C29_4 1_555 1_555
N5_4 C32_4 1_555 1_555
N6_4 N5_4 1_555 1_555
N7_4 N6_4 1_555 1_555
N8_4 C32_4 1_555 1_555
C33_4 C36_4 1_555 1_555
C34_4 C40_4 1_555 1_555
C35_4 H15_4 1_555 1_555
C36_4 C35_4 1_555 1_555
C37_4 C36_4 1_555 1_555
H16_4 C37_4 1_555 1_555
C38_4 C37_4 1_555 1_555
C39_4 C38_4 1_555 1_555
H17_4 C39_4 1_555 1_555
C40_4 C35_4 1_555 1_555
C41_4 C42_4 1_555 1_555
C42_4 C43_4 1_555 1_555
C43_4 H18_4 1_555 1_555
C44_4 C43_4 1_555 1_555
H19_4 C44_4 1_555 1_555
C45_4 C44_4 1_555 1_555
C46_4 C45_4 1_555 1_555
H20_4 C46_4 1_555 1_555
C47_4 C42_4 1_555 1_555
H21_4 C47_4 1_555 1_555
Cu3_4 O8_4 1_555 1_555
Cu4_4 O9_4 1_555 1_555
Cu19_2 N12_4 1_555 1_555
Cu25_2 N6_4 1_555 1_555
N10_4 C22_4 1_555 1_555
H23_4 N10_4 1_555 1_555
N11_4 C38_4 1_555 1_555
H24_4 N11_4 1_555 1_555
N12_4 N13_4 1_555 1_555
N13_4 C48_4 1_555 1_555
C48_4 C45_4 1_555 1_555
N14_4 C48_4 1_555 1_555
N35_2 N12_4 1_555 1_555
O6_4 C17_4 1_555 1_555
O7_4 C17_4 1_555 1_555
O8_4 C18_4 1_555 1_555
O9_4 C18_4 1_555 1_555
O10_4 C25_4 1_555 1_555
O11_4 Cu19_2 1_555 1_555
O46_3 C33_4 1_555 1_555
O49_3 C33_4 1_555 1_555
O14_4 C34_4 1_555 1_555
O15_4 C34_4 1_555 1_555
O16_4 C41_4 1_555 1_555
O17_4 Cu14 1_555 1_555
O18_4 Cu10 1_555 1_555
O19_4 Cu3_4 1_555 1_555
O20_4 Cu4_4 1_555 1_555
O22_4 Cu19_2 1_555 1_555
O23_4 Cu25_2 1_555 1_555
O26_4 Cu19_2 1_555 1_555
O27_4 Cu25_2 1_555 1_555
O29_4 Cu25_2 1_555 1_555
N18_4 Cu25_2 1_555 1_555
N19_4 Cu23_4 1_555 1_555
N21_4 Cu19_2 1_555 1_555
N22_4 Cu16_4 1_555 1_555
C65_4 C68_4 1_555 1_555
C66_4 C72_4 1_555 1_555
C67_4 H32_4 1_555 1_555
C68_4 C67_4 1_555 1_555
C69_4 C68_4 1_555 1_555
H33_4 C69_4 1_555 1_555
C70_4 C69_4 1_555 1_555
C71_4 C70_4 1_555 1_555
H34_4 C71_4 1_555 1_555
C72_4 C67_4 1_555 1_555
C73_4 C74_4 1_555 1_555
C74_4 C75_4 1_555 1_555
C75_4 H35_4 1_555 1_555
C76_4 C75_4 1_555 1_555
H36_4 C76_4 1_555 1_555
C77_4 C76_4 1_555 1_555
C78_4 C77_4 1_555 1_555
H37_4 C78_4 1_555 1_555
C79_4 C74_4 1_555 1_555
H38_4 C79_4 1_555 1_555
C80_4 C77_4 1_555 1_555
N24_4 C80_4 1_555 1_555
N25_4 N24_4 1_555 1_555
N26_4 N25_4 1_555 1_555
N27_4 C80_4 1_555 1_555
C81_4 C84_4 1_555 1_555
C82_4 C88_4 1_555 1_555
C83_4 H39_4 1_555 1_555
C84_4 C83_4 1_555 1_555
C85_4 C84_4 1_555 1_555
H40_4 C85_4 1_555 1_555
C86_4 C85_4 1_555 1_555
C87_4 C86_4 1_555 1_555
H41_4 C87_4 1_555 1_555
C88_4 C83_4 1_555 1_555
C89_4 C90_4 1_555 1_555
C90_4 C91_4 1_555 1_555
C91_4 H42_4 1_555 1_555
C92_4 C91_4 1_555 1_555
H43_4 C92_4 1_555 1_555
C93_4 C92_4 1_555 1_555
C94_4 C93_4 1_555 1_555
H44_4 C94_4 1_555 1_555
C95_4 C90_4 1_555 1_555
H45_4 C95_4 1_555 1_555
Cu11 O31_4 1_555 1_555
Cu15 O33_4 1_555 1_555
Cu16_4 N31_4 1_555 1_555
Cu23_4 N25_4 1_555 1_555
N29_4 C70_4 1_555 1_555
H47_4 N29_4 1_555 1_555
N30_4 C86_4 1_555 1_555
H48_4 N30_4 1_555 1_555
N31_4 N32_4 1_555 1_555
N32_4 C96_4 1_555 1_555
C96_4 C93_4 1_555 1_555
N33_4 C96_4 1_555 1_555
N36_2 N31_4 1_555 1_555
O35_4 Cu11 1_555 1_555
O37_4 Cu15 1_555 1_555
O39_4 C65_4 1_555 1_555
O40_4 C65_4 1_555 1_555
O41_4 Cu3_4 1_555 1_555
O42_4 Cu4_4 1_555 1_555
O43_4 C73_4 1_555 1_555
O44_4 Cu16_4 1_555 1_555
O47_3 C81_4 1_555 1_555
O50_3 C81_4 1_555 1_555
O51_4 Cu3_4 1_555 1_555
O52_4 Cu4_4 1_555 1_555
O53_4 C89_4 1_555 1_555
O54_4 Cu15 1_555 1_555
O55_4 Cu11 1_555 1_555
O59_4 Cu16_4 1_555 1_555
O60_4 Cu23_4 1_555 1_555
O63_4 Cu16_4 1_555 1_555
O64_4 Cu23_4 1_555 1_555
O66_4 Cu23_4 1_555 1_555
C23_4 C24_4 1_555 1_555
C25_4 N10_4 1_555 1_555
C30_4 C31_4 1_555 1_555
N7_4 N8_4 1_555 1_555
C39_4 C40_4 1_555 1_555
C41_4 N11_4 1_555 1_555
C46_4 C47_4 1_555 1_555
Cu10 O7_4 1_555 1_555
Cu14 O6_4 1_555 1_555
Cu3_4 O14_4 1_555 1_555
Cu4_4 O15_4 1_555 1_555
N14_4 N35_2 1_555 1_555
C66_4 O41_4 1_555 1_555
C66_4 O42_4 1_555 1_555
C71_4 C72_4 1_555 1_555
C73_4 N29_4 1_555 1_555
C78_4 C79_4 1_555 1_555
N26_4 N27_4 1_555 1_555
C82_4 O51_4 1_555 1_555
C82_4 O52_4 1_555 1_555
C87_4 C88_4 1_555 1_555
C89_4 N30_4 1_555 1_555
C94_4 C95_4 1_555 1_555
Cu11 O40_4 1_555 1_555
Cu15 O39_4 1_555 1_555
Cu23_4 O57_2 1_555 1_555
N33_4 N36_2 1_555 1_555
O62_4 H67_4 1_555 1_555
O25_4 H91_4 1_555 1_555
C1_4 C6_4 1_555 1_555
C7_4 C6_4 1_555 1_555
H3_4 C7_4 1_555 1_555
O3_4 C1_4 1_555 1_555
O4_4 C1_4 1_555 1_555
Cu9_3 O3_4 1_555 1_555
Cu13_3 O4_4 1_555 1_555
N22 N4_4 1_555 1_555
O19_5 Cu3_5 1_555 1_555
O20_5 Cu4_5 1_555 1_555
C81_5 C84_5 1_555 1_555
C82_5 C88_5 1_555 1_555
C83_5 H39_5 1_555 1_555
C84_5 C83_5 1_555 1_555
C85_5 C84_5 1_555 1_555
H40_5 C85_5 1_555 1_555
C86_5 C85_5 1_555 1_555
C87_5 C86_5 1_555 1_555
H41_5 C87_5 1_555 1_555
C88_5 C83_5 1_555 1_555
C89_5 C90_5 1_555 1_555
C90_5 C91_5 1_555 1_555
C91_5 H42_5 1_555 1_555
C92_5 C91_5 1_555 1_555
H43_5 C92_5 1_555 1_555
C93_5 C92_5 1_555 1_555
C94_5 C93_5 1_555 1_555
H44_5 C94_5 1_555 1_555
C95_5 C90_5 1_555 1_555
H45_5 C95_5 1_555 1_555
Cu11_2 O48_2 1_555 1_555
Cu15_2 O45_2 1_555 1_555
Cu17 N31_5 1_555 1_555
Cu22_3 N34_3 1_555 1_555
N30_5 C86_5 1_555 1_555
H48_5 N30_5 1_555 1_555
N31_5 N32_5 1_555 1_555
N32_5 C96_5 1_555 1_555
C96_5 C93_5 1_555 1_555
N33_5 C96_5 1_555 1_555
N34_3 N31_5 1_555 1_555
O42_5 Cu4_5 1_555 1_555
O44_5 Cu17 1_555 1_555
O45_2 C81_5 1_555 1_555
O48_2 C81_5 1_555 1_555
O51_5 Cu3_5 1_555 1_555
O52_5 Cu4_5 1_555 1_555
O53_5 C89_5 1_555 1_555
O57_3 Cu17 1_555 1_555
O59_5 Cu17 1_555 1_555
O63_5 Cu17 1_555 1_555
C82_5 O51_5 1_555 1_555
C82_5 O52_5 1_555 1_555
C87_5 C88_5 1_555 1_555
C89_5 N30_5 1_555 1_555
C94_5 C95_5 1_555 1_555
Cu22_3 O57_3 1_555 1_555
N33_5 N34_3 1_555 1_555
O20_5 H77 1_555 1_555
O20_5 H78 1_555 1_555
O19_5 H94 1_555 1_555
C33_5 C36_5 1_555 1_555
C34_5 C40_5 1_555 1_555
C35_5 H15_5 1_555 1_555
C36_5 C35_5 1_555 1_555
C37_5 C36_5 1_555 1_555
H16_5 C37_5 1_555 1_555
C38_5 C37_5 1_555 1_555
C39_5 C38_5 1_555 1_555
H17_5 C39_5 1_555 1_555
C40_5 C35_5 1_555 1_555
C41_5 C42_5 1_555 1_555
C42_5 C43_5 1_555 1_555
C43_5 H18_5 1_555 1_555
C44_5 C43_5 1_555 1_555
H19_5 C44_5 1_555 1_555
C45_5 C44_5 1_555 1_555
C46_5 C45_5 1_555 1_555
H20_5 C46_5 1_555 1_555
C47_5 C42_5 1_555 1_555
H21_5 C47_5 1_555 1_555
Cu4_6 O9_5 1_555 1_555
Cu5_3 N12_5 1_555 1_555
N11_5 C38_5 1_555 1_555
H24_5 N11_5 1_555 1_555
N12_5 N13_5 1_555 1_555
N13_5 C48_5 1_555 1_555
C48_5 C45_5 1_555 1_555
N14_5 C48_5 1_555 1_555
N15_3 N12_5 1_555 1_555
O11_5 Cu5_3 1_555 1_555
O12_2 C33_5 1_555 1_555
O13_2 C33_5 1_555 1_555
O14_5 C34_5 1_555 1_555
O15_5 C34_5 1_555 1_555
O16_5 C41_5 1_555 1_555
O19_6 Cu3_6 1_555 1_555
O20_6 Cu4_6 1_555 1_555
O21_3 Cu5_3 1_555 1_555
O22_5 Cu5_3 1_555 1_555
O26_5 Cu5_3 1_555 1_555
C50_2 C52_2 1_555 1_555
C51_2 H25_2 1_555 1_555
C52_2 C51_2 1_555 1_555
C53_2 C52_2 1_555 1_555
H26_2 C53_2 1_555 1_555
C56_2 C51_2 1_555 1_555
C57_2 C58_2 1_555 1_555
C58_2 C59_2 1_555 1_555
C59_2 H28_2 1_555 1_555
C60_2 C59_2 1_555 1_555
H29_2 C60_2 1_555 1_555
C61_2 C60_2 1_555 1_555
C62_2 C61_2 1_555 1_555
C63_2 C58_2 1_555 1_555
C64_2 C61_2 1_555 1_555
N16_2 C64_2 1_555 1_555
N19_2 N16_2 1_555 1_555
N21_5 Cu5_3 1_555 1_555
Cu10_2 O13_2 1_555 1_555
Cu14_2 O12_2 1_555 1_555
Cu21_3 N15_3 1_555 1_555
Cu25_3 O21_3 1_555 1_555
N28_2 C56_2 1_555 1_555
H46_2 N28_2 1_555 1_555
O30_2 C50_2 1_555 1_555
O32_2 C50_2 1_555 1_555
O38_2 C57_2 1_555 1_555
C39_5 C40_5 1_555 1_555
C41_5 N11_5 1_555 1_555
C46_5 C47_5 1_555 1_555
Cu3_6 O14_5 1_555 1_555
Cu4_6 O15_5 1_555 1_555
N14_5 N15_3 1_555 1_555
O21_3 Cu21_3 1_555 1_555
C57_2 N28_2 1_555 1_555
C62_2 C63_2 1_555 1_555
Cu10_2 O30_2 1_555 1_555
Cu14_2 O32_2 1_555 1_555
O19_6 H93 1_555 1_555
C65_5 C68_5 1_555 1_555
C66_5 C72_5 1_555 1_555
C67_5 H32_5 1_555 1_555
C68_5 C67_5 1_555 1_555
C69_5 C68_5 1_555 1_555
H33_5 C69_5 1_555 1_555
C70_5 C69_5 1_555 1_555
C71_5 C70_5 1_555 1_555
H34_5 C71_5 1_555 1_555
C72_5 C67_5 1_555 1_555
C73_5 C74_5 1_555 1_555
C74_5 C75_5 1_555 1_555
C75_5 H35_5 1_555 1_555
C76_5 C75_5 1_555 1_555
H36_5 C76_5 1_555 1_555
C77_5 C76_5 1_555 1_555
C78_5 C77_5 1_555 1_555
H37_5 C78_5 1_555 1_555
C79_5 C74_5 1_555 1_555
H38_5 C79_5 1_555 1_555
C80_5 C77_5 1_555 1_555
N24_5 C80_5 1_555 1_555
N25_5 N24_5 1_555 1_555
N26_5 N25_5 1_555 1_555
N27_5 C80_5 1_555 1_555
Cu8_4 O31_5 1_555 1_555
Cu12_4 O33_5 1_555 1_555
Cu20_3 N26_5 1_555 1_555
Cu24_3 N25_5 1_555 1_555
N29_5 C70_5 1_555 1_555
H47_5 N29_5 1_555 1_555
N36_3 Cu20_3 1_555 1_555
O35_5 Cu8_4 1_555 1_555
O37_5 Cu12_4 1_555 1_555
O39_5 C65_5 1_555 1_555
O40_5 C65_5 1_555 1_555
O43_5 C73_5 1_555 1_555
O47_4 Cu12_4 1_555 1_555
O50_4 Cu8_4 1_555 1_555
O54_5 Cu12_4 1_555 1_555
O55_5 Cu8_4 1_555 1_555
O58_3 Cu20_3 1_555 1_555
O60_5 Cu24_3 1_555 1_555
O61_5 Cu20_3 1_555 1_555
O62_5 Cu20_3 1_555 1_555
O64_5 Cu24_3 1_555 1_555
O65_5 Cu20_3 1_555 1_555
O66_5 Cu24_3 1_555 1_555
C66_5 O41_5 1_555 1_555
C71_5 C72_5 1_555 1_555
C73_5 N29_5 1_555 1_555
C78_5 C79_5 1_555 1_555
N26_5 N27_5 1_555 1_555
Cu8_4 O40_5 1_555 1_555
Cu12_4 O39_5 1_555 1_555
Cu24_3 O58_3 1_555 1_555
C2_4 C4_4 1_555 1_555
C3_4 H1_4 1_555 1_555
C4_4 C3_4 1_555 1_555
C5_4 C4_4 1_555 1_555
H2_4 C5_4 1_555 1_555
C8_4 C3_4 1_555 1_555
C9_4 C10_4 1_555 1_555
C10_4 C11_4 1_555 1_555
C11_4 H4_4 1_555 1_555
C12_4 C11_4 1_555 1_555
H5_4 C12_4 1_555 1_555
C13_4 C12_4 1_555 1_555
C14_4 C13_4 1_555 1_555
C15_4 C10_4 1_555 1_555
C16_4 C13_4 1_555 1_555
N1_4 C16_4 1_555 1_555
N19_3 N1_4 1_555 1_555
C17_5 C20_5 1_555 1_555
C18_5 C24_5 1_555 1_555
C19_5 H8_5 1_555 1_555
C20_5 C19_5 1_555 1_555
C21_5 C20_5 1_555 1_555
H9_5 C21_5 1_555 1_555
C22_5 C21_5 1_555 1_555
C23_5 C22_5 1_555 1_555
H10_5 C23_5 1_555 1_555
C24_5 C19_5 1_555 1_555
C25_5 C26_5 1_555 1_555
C26_5 C27_5 1_555 1_555
C27_5 H11_5 1_555 1_555
C28_5 C27_5 1_555 1_555
H12_5 C28_5 1_555 1_555
C29_5 C28_5 1_555 1_555
C30_5 C29_5 1_555 1_555
H13_5 C30_5 1_555 1_555
C31_5 C26_5 1_555 1_555
H14_5 C31_5 1_555 1_555
C32_5 C29_5 1_555 1_555
N5_5 C32_5 1_555 1_555
N6_5 N5_5 1_555 1_555
N7_5 N6_5 1_555 1_555
N8_5 C32_5 1_555 1_555
Cu1_2 O1_4 1_555 1_555
Cu2_2 O2_4 1_555 1_555
Cu6_3 N7_5 1_555 1_555
Cu7_3 N6_5 1_555 1_555
N9_4 C8_4 1_555 1_555
H22_4 N9_4 1_555 1_555
N10_5 C22_5 1_555 1_555
H23_5 N10_5 1_555 1_555
O1_4 C2_4 1_555 1_555
O2_4 C2_4 1_555 1_555
O5_4 C9_4 1_555 1_555
O6_5 C17_5 1_555 1_555
O7_5 C17_5 1_555 1_555
O8_5 C18_5 1_555 1_555
O10_5 C25_5 1_555 1_555
O17_5 Cu2_2 1_555 1_555
O18_5 Cu1_2 1_555 1_555
O23_5 Cu7_3 1_555 1_555
O24_5 Cu6_3 1_555 1_555
O25_5 Cu6_3 1_555 1_555
O27_5 Cu7_3 1_555 1_555
O28_5 Cu6_3 1_555 1_555
O29_5 Cu7_3 1_555 1_555
C49_2 C54_2 1_555 1_555
C55_2 C54_2 1_555 1_555
H27_2 C55_2 1_555 1_555
N18_5 Cu7_3 1_555 1_555
Cu19_3 O56_3 1_555 1_555
N35_3 Cu6_3 1_555 1_555
O34_2 Cu1_2 1_555 1_555
O36_2 Cu2_2 1_555 1_555
O46_4 Cu2_2 1_555 1_555
O49_4 Cu1_2 1_555 1_555
O56_3 Cu6_3 1_555 1_555
C9_4 N9_4 1_555 1_555
C14_4 C15_4 1_555 1_555
C23_5 C24_5 1_555 1_555
C25_5 N10_5 1_555 1_555
C30_5 C31_5 1_555 1_555
N7_5 N8_5 1_555 1_555
Cu1_2 O7_5 1_555 1_555
Cu2_2 O6_5 1_555 1_555
Cu7_3 O56_3 1_555 1_555
C49_2 O34_2 1_555 1_555
C49_2 O36_2 1_555 1_555
N22_4 N23_2 1_555 1_555
C1_5 C6_5 1_555 1_555
C7_5 C6_5 1_555 1_555
H3_5 C7_5 1_555 1_555
O3_5 C1_5 1_555 1_555
O4_5 C1_5 1_555 1_555
Cu9_4 O3_5 1_555 1_555
Cu13_4 O4_5 1_555 1_555
N22_2 N4_5 1_555 1_555
C65_6 C68_6 1_555 1_555
C66_6 C72_6 1_555 1_555
C67_6 H32_6 1_555 1_555
C68_6 C67_6 1_555 1_555
C69_6 C68_6 1_555 1_555
H33_6 C69_6 1_555 1_555
C70_6 C69_6 1_555 1_555
C71_6 C70_6 1_555 1_555
H34_6 C71_6 1_555 1_555
C72_6 C67_6 1_555 1_555
C73_6 C74_6 1_555 1_555
C74_6 C75_6 1_555 1_555
C75_6 H35_6 1_555 1_555
C76_6 C75_6 1_555 1_555
H36_6 C76_6 1_555 1_555
C77_6 C76_6 1_555 1_555
C78_6 C77_6 1_555 1_555
H37_6 C78_6 1_555 1_555
C79_6 C74_6 1_555 1_555
H38_6 C79_6 1_555 1_555
C80_6 C77_6 1_555 1_555
N24_6 C80_6 1_555 1_555
N25_6 N24_6 1_555 1_555
N26_6 N25_6 1_555 1_555
N27_6 C80_6 1_555 1_555
Cu8_5 O31_6 1_555 1_555
Cu12_5 O33_6 1_555 1_555
Cu20_4 N26_6 1_555 1_555
Cu26 N25_6 1_555 1_555
N29_6 C70_6 1_555 1_555
H47_6 N29_6 1_555 1_555
N36_4 Cu20_4 1_555 1_555
O35_6 Cu8_5 1_555 1_555
O37_6 Cu12_5 1_555 1_555
O39_6 C65_6 1_555 1_555
O40_6 C65_6 1_555 1_555
O43_6 C73_6 1_555 1_555
O47_5 Cu12_5 1_555 1_555
O50_5 Cu8_5 1_555 1_555
O54_6 Cu12_5 1_555 1_555
O55_6 Cu8_5 1_555 1_555
O58_4 Cu20_4 1_555 1_555
O60_6 Cu26 1_555 1_555
O61_6 Cu20_4 1_555 1_555
O62_6 Cu20_4 1_555 1_555
O64_6 Cu26 1_555 1_555
O65_6 Cu20_4 1_555 1_555
O66_6 Cu26 1_555 1_555
C66_6 O41_6 1_555 1_555
C71_6 C72_6 1_555 1_555
C73_6 N29_6 1_555 1_555
C78_6 C79_6 1_555 1_555
N26_6 N27_6 1_555 1_555
Cu8_5 O40_6 1_555 1_555
Cu12_5 O39_6 1_555 1_555
Cu26 O58_4 1_555 1_555
C2_5 C4_5 1_555 1_555
C3_5 H1_5 1_555 1_555
C4_5 C3_5 1_555 1_555
C5_5 C4_5 1_555 1_555
H2_5 C5_5 1_555 1_555
C8_5 C3_5 1_555 1_555
C9_5 C10_5 1_555 1_555
C10_5 C11_5 1_555 1_555
C11_5 H4_5 1_555 1_555
C12_5 C11_5 1_555 1_555
H5_5 C12_5 1_555 1_555
C13_5 C12_5 1_555 1_555
C14_5 C13_5 1_555 1_555
C15_5 C10_5 1_555 1_555
C16_5 C13_5 1_555 1_555
N1_5 C16_5 1_555 1_555
N19_4 N1_5 1_555 1_555
C17_6 C20_6 1_555 1_555
C18_6 C24_6 1_555 1_555
C19_6 H8_6 1_555 1_555
C20_6 C19_6 1_555 1_555
C21_6 C20_6 1_555 1_555
H9_6 C21_6 1_555 1_555
C22_6 C21_6 1_555 1_555
C23_6 C22_6 1_555 1_555
H10_6 C23_6 1_555 1_555
C24_6 C19_6 1_555 1_555
C25_6 C26_6 1_555 1_555
C26_6 C27_6 1_555 1_555
C27_6 H11_6 1_555 1_555
C28_6 C27_6 1_555 1_555
H12_6 C28_6 1_555 1_555
C29_6 C28_6 1_555 1_555
C30_6 C29_6 1_555 1_555
H13_6 C30_6 1_555 1_555
C31_6 C26_6 1_555 1_555
H14_6 C31_6 1_555 1_555
C32_6 C29_6 1_555 1_555
N5_6 C32_6 1_555 1_555
N6_6 N5_6 1_555 1_555
N7_6 N6_6 1_555 1_555
N8_6 C32_6 1_555 1_555
Cu9_3 O1_5 1_555 1_555
Cu13_3 O2_5 1_555 1_555
Cu6_4 N7_6 1_555 1_555
Cu7_4 N6_6 1_555 1_555
N9_5 C8_5 1_555 1_555
H22_5 N9_5 1_555 1_555
N10_6 C22_6 1_555 1_555
H23_6 N10_6 1_555 1_555
O1_5 C2_5 1_555 1_555
O2_5 C2_5 1_555 1_555
O5_5 C9_5 1_555 1_555
O6_6 C17_6 1_555 1_555
O7_6 C17_6 1_555 1_555
O8_6 C18_6 1_555 1_555
O10_6 C25_6 1_555 1_555
O17_6 Cu13_3 1_555 1_555
O18_6 Cu9_3 1_555 1_555
O23_6 Cu7_4 1_555 1_555
O24_6 Cu6_4 1_555 1_555
O25_6 Cu6_4 1_555 1_555
O27_6 Cu7_4 1_555 1_555
O28_6 Cu6_4 1_555 1_555
O29_6 Cu7_4 1_555 1_555
N18_6 Cu7_4 1_555 1_555
Cu19_4 O56_4 1_555 1_555
N35_4 Cu6_4 1_555 1_555
O46_5 Cu13_3 1_555 1_555
O49_5 Cu9_3 1_555 1_555
O56_4 Cu6_4 1_555 1_555
C9_5 N9_5 1_555 1_555
C14_5 C15_5 1_555 1_555
C23_6 C24_6 1_555 1_555
C25_6 N10_6 1_555 1_555
C30_6 C31_6 1_555 1_555
N7_6 N8_6 1_555 1_555
Cu9_3 O7_6 1_555 1_555
Cu13_3 O6_6 1_555 1_555
Cu7_4 O56_4 1_555 1_555
O19_7 Cu3_7 1_555 1_555
O20_7 Cu4_7 1_555 1_555
C81_6 C84_6 1_555 1_555
C82_6 C88_6 1_555 1_555
C83_6 H39_6 1_555 1_555
C84_6 C83_6 1_555 1_555
C85_6 C84_6 1_555 1_555
H40_6 C85_6 1_555 1_555
C86_6 C85_6 1_555 1_555
C87_6 C86_6 1_555 1_555
H41_6 C87_6 1_555 1_555
C88_6 C83_6 1_555 1_555
C89_6 C90_6 1_555 1_555
C90_6 C91_6 1_555 1_555
C91_6 H42_6 1_555 1_555
C92_6 C91_6 1_555 1_555
H43_6 C92_6 1_555 1_555
C93_6 C92_6 1_555 1_555
C94_6 C93_6 1_555 1_555
H44_6 C94_6 1_555 1_555
C95_6 C90_6 1_555 1_555
H45_6 C95_6 1_555 1_555
Cu17_2 N31_6 1_555 1_555
Cu22_4 N34_4 1_555 1_555
N30_6 C86_6 1_555 1_555
H48_6 N30_6 1_555 1_555
N31_6 N32_6 1_555 1_555
N32_6 C96_6 1_555 1_555
C96_6 C93_6 1_555 1_555
N33_6 C96_6 1_555 1_555
N34_4 N31_6 1_555 1_555
O42_6 Cu4_7 1_555 1_555
O44_6 Cu17_2 1_555 1_555
O47_4 C81_6 1_555 1_555
O50_4 C81_6 1_555 1_555
O51_6 Cu3_7 1_555 1_555
O52_6 Cu4_7 1_555 1_555
O53_6 C89_6 1_555 1_555
O57_4 Cu17_2 1_555 1_555
O59_6 Cu17_2 1_555 1_555
O63_6 Cu17_2 1_555 1_555
C82_6 O51_6 1_555 1_555
C82_6 O52_6 1_555 1_555
C87_6 C88_6 1_555 1_555
C89_6 N30_6 1_555 1_555
C94_6 C95_6 1_555 1_555
Cu22_4 O57_4 1_555 1_555
N33_6 N34_4 1_555 1_555
O20_7 H77_2 1_555 1_555
O20_7 H78_2 1_555 1_555
O19_7 H94_2 1_555 1_555
C33_6 C36_6 1_555 1_555
C34_6 C40_6 1_555 1_555
C35_6 H15_6 1_555 1_555
C36_6 C35_6 1_555 1_555
C37_6 C36_6 1_555 1_555
H16_6 C37_6 1_555 1_555
C38_6 C37_6 1_555 1_555
C39_6 C38_6 1_555 1_555
H17_6 C39_6 1_555 1_555
C40_6 C35_6 1_555 1_555
C41_6 C42_6 1_555 1_555
C42_6 C43_6 1_555 1_555
C43_6 H18_6 1_555 1_555
C44_6 C43_6 1_555 1_555
H19_6 C44_6 1_555 1_555
C45_6 C44_6 1_555 1_555
C46_6 C45_6 1_555 1_555
H20_6 C46_6 1_555 1_555
C47_6 C42_6 1_555 1_555
H21_6 C47_6 1_555 1_555
Cu4_8 O9_6 1_555 1_555
Cu5_4 N12_6 1_555 1_555
N11_6 C38_6 1_555 1_555
H24_6 N11_6 1_555 1_555
N12_6 N13_6 1_555 1_555
N13_6 C48_6 1_555 1_555
C48_6 C45_6 1_555 1_555
N14_6 C48_6 1_555 1_555
N15_4 N12_6 1_555 1_555
O11_6 Cu5_4 1_555 1_555
O46_4 C33_6 1_555 1_555
O49_4 C33_6 1_555 1_555
O14_6 C34_6 1_555 1_555
O15_6 C34_6 1_555 1_555
O16_6 C41_6 1_555 1_555
O19_8 Cu3_8 1_555 1_555
O20_8 Cu4_8 1_555 1_555
O21_4 Cu5_4 1_555 1_555
O22_6 Cu5_4 1_555 1_555
O26_6 Cu5_4 1_555 1_555
N21_6 Cu5_4 1_555 1_555
Cu21_4 N15_4 1_555 1_555
Cu25_4 O21_4 1_555 1_555
C39_6 C40_6 1_555 1_555
C41_6 N11_6 1_555 1_555
C46_6 C47_6 1_555 1_555
Cu3_8 O14_6 1_555 1_555
Cu4_8 O15_6 1_555 1_555
N14_6 N15_4 1_555 1_555
O21_4 Cu21_4 1_555 1_555
O19_8 H93_2 1_555 1_555
C65_7 C68_7 1_555 1_555
C66_7 C72_7 1_555 1_555
C67_7 H32_7 1_555 1_555
C68_7 C67_7 1_555 1_555
C69_7 C68_7 1_555 1_555
H33_7 C69_7 1_555 1_555
C70_7 C69_7 1_555 1_555
C71_7 C70_7 1_555 1_555
H34_7 C71_7 1_555 1_555
C72_7 C67_7 1_555 1_555
C73_7 C74_7 1_555 1_555
C74_7 C75_7 1_555 1_555
C75_7 H35_7 1_555 1_555
C76_7 C75_7 1_555 1_555
H36_7 C76_7 1_555 1_555
C77_7 C76_7 1_555 1_555
C78_7 C77_7 1_555 1_555
H37_7 C78_7 1_555 1_555
C79_7 C74_7 1_555 1_555
H38_7 C79_7 1_555 1_555
C80_7 C77_7 1_555 1_555
N24_7 C80_7 1_555 1_555
N25_7 N24_7 1_555 1_555
N26_7 N25_7 1_555 1_555
N27_7 C80_7 1_555 1_555
Cu8_6 O31_7 1_555 1_555
Cu12_6 O33_7 1_555 1_555
Cu22_3 N26_7 1_555 1_555
Cu24 N25_7 1_555 1_555
N29_7 C70_7 1_555 1_555
H47_7 N29_7 1_555 1_555
O35_7 Cu8_6 1_555 1_555
O37_7 Cu12_6 1_555 1_555
O39_7 C65_7 1_555 1_555
O40_7 C65_7 1_555 1_555
O43_7 C73_7 1_555 1_555
O47_6 Cu12_6 1_555 1_555
O50_6 Cu8_6 1_555 1_555
O54_7 Cu12_6 1_555 1_555
O55_7 Cu8_6 1_555 1_555
O60_7 Cu24 1_555 1_555
O61_7 Cu22_3 1_555 1_555
O62_7 Cu22_3 1_555 1_555
O64_7 Cu24 1_555 1_555
O65_7 Cu22_3 1_555 1_555
O66_7 Cu24 1_555 1_555
C66_7 O41_7 1_555 1_555
C71_7 C72_7 1_555 1_555
C73_7 N29_7 1_555 1_555
C78_7 C79_7 1_555 1_555
N26_7 N27_7 1_555 1_555
Cu8_6 O40_7 1_555 1_555
Cu12_6 O39_7 1_555 1_555
Cu24 O57_3 1_555 1_555
C2_6 C4_6 1_555 1_555
C3_6 H1_6 1_555 1_555
C4_6 C3_6 1_555 1_555
C5_6 C4_6 1_555 1_555
H2_6 C5_6 1_555 1_555
C8_6 C3_6 1_555 1_555
C9_6 C10_6 1_555 1_555
C10_6 C11_6 1_555 1_555
C11_6 H4_6 1_555 1_555
C12_6 C11_6 1_555 1_555
H5_6 C12_6 1_555 1_555
C13_6 C12_6 1_555 1_555
C14_6 C13_6 1_555 1_555
C15_6 C10_6 1_555 1_555
C16_6 C13_6 1_555 1_555
N1_6 C16_6 1_555 1_555
N19 N1_6 1_555 1_555
C17_7 C20_7 1_555 1_555
C18_7 C24_7 1_555 1_555
C19_7 H8_7 1_555 1_555
C20_7 C19_7 1_555 1_555
C21_7 C20_7 1_555 1_555
H9_7 C21_7 1_555 1_555
C22_7 C21_7 1_555 1_555
C23_7 C22_7 1_555 1_555
H10_7 C23_7 1_555 1_555
C24_7 C19_7 1_555 1_555
C25_7 C26_7 1_555 1_555
C26_7 C27_7 1_555 1_555
C27_7 H11_7 1_555 1_555
C28_7 C27_7 1_555 1_555
H12_7 C28_7 1_555 1_555
C29_7 C28_7 1_555 1_555
C30_7 C29_7 1_555 1_555
H13_7 C30_7 1_555 1_555
C31_7 C26_7 1_555 1_555
H14_7 C31_7 1_555 1_555
C32_7 C29_7 1_555 1_555
N5_7 C32_7 1_555 1_555
N6_7 N5_7 1_555 1_555
N7_7 N6_7 1_555 1_555
N8_7 C32_7 1_555 1_555
Cu9_4 O1_6 1_555 1_555
Cu13_4 O2_6 1_555 1_555
Cu21_3 N7_7 1_555 1_555
Cu25_3 N6_7 1_555 1_555
N9_6 C8_6 1_555 1_555
H22_6 N9_6 1_555 1_555
N10_7 C22_7 1_555 1_555
H23_7 N10_7 1_555 1_555
O1_6 C2_6 1_555 1_555
O2_6 C2_6 1_555 1_555
O5_6 C9_6 1_555 1_555
O6_7 C17_7 1_555 1_555
O7_7 C17_7 1_555 1_555
O8_7 C18_7 1_555 1_555
O10_7 C25_7 1_555 1_555
O17_7 Cu13_4 1_555 1_555
O18_7 Cu9_4 1_555 1_555
O23_7 Cu25_3 1_555 1_555
O24_7 Cu21_3 1_555 1_555
O25_7 Cu21_3 1_555 1_555
O27_7 Cu25_3 1_555 1_555
O28_7 Cu21_3 1_555 1_555
O29_7 Cu25_3 1_555 1_555
N18_7 Cu25_3 1_555 1_555
O46_6 Cu13_4 1_555 1_555
O49_6 Cu9_4 1_555 1_555
C9_6 N9_6 1_555 1_555
C14_6 C15_6 1_555 1_555
C23_7 C24_7 1_555 1_555
C25_7 N10_7 1_555 1_555
C30_7 C31_7 1_555 1_555
N7_7 N8_7 1_555 1_555
Cu9_4 O7_7 1_555 1_555
Cu13_4 O6_7 1_555 1_555
O19_9 Cu3_9 1_555 1_555
O20_9 Cu4_9 1_555 1_555
C81_7 C84_7 1_555 1_555
C82_7 C88_7 1_555 1_555
C83_7 H39_7 1_555 1_555
C84_7 C83_7 1_555 1_555
C85_7 C84_7 1_555 1_555
H40_7 C85_7 1_555 1_555
C86_7 C85_7 1_555 1_555
C87_7 C86_7 1_555 1_555
H41_7 C87_7 1_555 1_555
C88_7 C83_7 1_555 1_555
C89_7 C90_7 1_555 1_555
C90_7 C91_7 1_555 1_555
C91_7 H42_7 1_555 1_555
C92_7 C91_7 1_555 1_555
H43_7 C92_7 1_555 1_555
C93_7 C92_7 1_555 1_555
C94_7 C93_7 1_555 1_555
H44_7 C94_7 1_555 1_555
C95_7 C90_7 1_555 1_555
H45_7 C95_7 1_555 1_555
Cu17_3 N31_7 1_555 1_555
N30_7 C86_7 1_555 1_555
H48_7 N30_7 1_555 1_555
N31_7 N32_7 1_555 1_555
N32_7 C96_7 1_555 1_555
C96_7 C93_7 1_555 1_555
N33_7 C96_7 1_555 1_555
N36_3 N31_7 1_555 1_555
O42_7 Cu4_9 1_555 1_555
O44_7 Cu17_3 1_555 1_555
O47_5 C81_7 1_555 1_555
O50_5 C81_7 1_555 1_555
O51_7 Cu3_9 1_555 1_555
O52_7 Cu4_9 1_555 1_555
O53_7 C89_7 1_555 1_555
O58_3 Cu17_3 1_555 1_555
O59_7 Cu17_3 1_555 1_555
O63_7 Cu17_3 1_555 1_555
C82_7 O51_7 1_555 1_555
C82_7 O52_7 1_555 1_555
C87_7 C88_7 1_555 1_555
C89_7 N30_7 1_555 1_555
C94_7 C95_7 1_555 1_555
N33_7 N36_3 1_555 1_555
O20_9 H77_3 1_555 1_555
O20_9 H78_3 1_555 1_555
O19_9 H94_3 1_555 1_555
C33_7 C36_7 1_555 1_555
C34_7 C40_7 1_555 1_555
C35_7 H15_7 1_555 1_555
C36_7 C35_7 1_555 1_555
C37_7 C36_7 1_555 1_555
H16_7 C37_7 1_555 1_555
C38_7 C37_7 1_555 1_555
C39_7 C38_7 1_555 1_555
H17_7 C39_7 1_555 1_555
C40_7 C35_7 1_555 1_555
C41_7 C42_7 1_555 1_555
C42_7 C43_7 1_555 1_555
C43_7 H18_7 1_555 1_555
C44_7 C43_7 1_555 1_555
H19_7 C44_7 1_555 1_555
C45_7 C44_7 1_555 1_555
C46_7 C45_7 1_555 1_555
H20_7 C46_7 1_555 1_555
C47_7 C42_7 1_555 1_555
H21_7 C47_7 1_555 1_555
Cu4_10 O9_7 1_555 1_555
Cu19_3 N12_7 1_555 1_555
N11_7 C38_7 1_555 1_555
H24_7 N11_7 1_555 1_555
N12_7 N13_7 1_555 1_555
N13_7 C48_7 1_555 1_555
C48_7 C45_7 1_555 1_555
N14_7 C48_7 1_555 1_555
N35_3 N12_7 1_555 1_555
O11_7 Cu19_3 1_555 1_555
O46_5 C33_7 1_555 1_555
O49_5 C33_7 1_555 1_555
O14_7 C34_7 1_555 1_555
O15_7 C34_7 1_555 1_555
O16_7 C41_7 1_555 1_555
O19_10 Cu3_10 1_555 1_555
O20_10 Cu4_10 1_555 1_555
O22_7 Cu19_3 1_555 1_555
O26_7 Cu19_3 1_555 1_555
N21_7 Cu19_3 1_555 1_555
C39_7 C40_7 1_555 1_555
C41_7 N11_7 1_555 1_555
C46_7 C47_7 1_555 1_555
Cu3_10 O14_7 1_555 1_555
Cu4_10 O15_7 1_555 1_555
N14_7 N35_3 1_555 1_555
O19_10 H93_3 1_555 1_555
C1_6 C6_6 1_555 1_555
C7_6 C6_6 1_555 1_555
H3_6 C7_6 1_555 1_555
O3_6 C1_6 1_555 1_555
O4_6 C1_6 1_555 1_555
Cu10_2 O3_6 1_555 1_555
Cu14_2 O4_6 1_555 1_555
N22_3 N4_6 1_555 1_555
O19_11 Cu3_11 1_555 1_555
O20_11 Cu4_11 1_555 1_555
C81_8 C84_8 1_555 1_555
C82_8 C88_8 1_555 1_555
C83_8 H39_8 1_555 1_555
C84_8 C83_8 1_555 1_555
C85_8 C84_8 1_555 1_555
H40_8 C85_8 1_555 1_555
C86_8 C85_8 1_555 1_555
C87_8 C86_8 1_555 1_555
H41_8 C87_8 1_555 1_555
C88_8 C83_8 1_555 1_555
C89_8 C90_8 1_555 1_555
C90_8 C91_8 1_555 1_555
C91_8 H42_8 1_555 1_555
C92_8 C91_8 1_555 1_555
H43_8 C92_8 1_555 1_555
C93_8 C92_8 1_555 1_555
C94_8 C93_8 1_555 1_555
H44_8 C94_8 1_555 1_555
C95_8 C90_8 1_555 1_555
H45_8 C95_8 1_555 1_555
Cu18 N31_8 1_555 1_555
N30_8 C86_8 1_555 1_555
H48_8 N30_8 1_555 1_555
N31_8 N32_8 1_555 1_555
N32_8 C96_8 1_555 1_555
C96_8 C93_8 1_555 1_555
N33_8 C96_8 1_555 1_555
N36_4 N31_8 1_555 1_555
O42_8 Cu4_11 1_555 1_555
O44_8 Cu18 1_555 1_555
O47_6 C81_8 1_555 1_555
O50_6 C81_8 1_555 1_555
O51_8 Cu3_11 1_555 1_555
O52_8 Cu4_11 1_555 1_555
O53_8 C89_8 1_555 1_555
O58_4 Cu18 1_555 1_555
O59_8 Cu18 1_555 1_555
O63_8 Cu18 1_555 1_555
C82_8 O51_8 1_555 1_555
C82_8 O52_8 1_555 1_555
C87_8 C88_8 1_555 1_555
C89_8 N30_8 1_555 1_555
C94_8 C95_8 1_555 1_555
N33_8 N36_4 1_555 1_555
O20_11 H77_4 1_555 1_555
O20_11 H78_4 1_555 1_555
O19_11 H94_4 1_555 1_555
C33_8 C36_8 1_555 1_555
C34_8 C40_8 1_555 1_555
C35_8 H15_8 1_555 1_555
C36_8 C35_8 1_555 1_555
C37_8 C36_8 1_555 1_555
H16_8 C37_8 1_555 1_555
C38_8 C37_8 1_555 1_555
C39_8 C38_8 1_555 1_555
H17_8 C39_8 1_555 1_555
C40_8 C35_8 1_555 1_555
C41_8 C42_8 1_555 1_555
C42_8 C43_8 1_555 1_555
C43_8 H18_8 1_555 1_555
C44_8 C43_8 1_555 1_555
H19_8 C44_8 1_555 1_555
C45_8 C44_8 1_555 1_555
C46_8 C45_8 1_555 1_555
H20_8 C46_8 1_555 1_555
C47_8 C42_8 1_555 1_555
H21_8 C47_8 1_555 1_555
Cu4_12 O9_8 1_555 1_555
Cu19_4 N12_8 1_555 1_555
N11_8 C38_8 1_555 1_555
H24_8 N11_8 1_555 1_555
N12_8 N13_8 1_555 1_555
N13_8 C48_8 1_555 1_555
C48_8 C45_8 1_555 1_555
N14_8 C48_8 1_555 1_555
N35_4 N12_8 1_555 1_555
O11_8 Cu19_4 1_555 1_555
O46_6 C33_8 1_555 1_555
O49_6 C33_8 1_555 1_555
O14_8 C34_8 1_555 1_555
O15_8 C34_8 1_555 1_555
O16_8 C41_8 1_555 1_555
O19_12 Cu3_12 1_555 1_555
O20_12 Cu4_12 1_555 1_555
O22_8 Cu19_4 1_555 1_555
O26_8 Cu19_4 1_555 1_555
N21_8 Cu19_4 1_555 1_555
C39_8 C40_8 1_555 1_555
C41_8 N11_8 1_555 1_555
C46_8 C47_8 1_555 1_555
Cu3_12 O14_8 1_555 1_555
Cu4_12 O15_8 1_555 1_555
N14_8 N35_4 1_555 1_555
O19_12 H93_4 1_555 1_555
C65_8 C68_8 1_555 1_555
C66_8 C72_8 1_555 1_555
C67_8 H32_8 1_555 1_555
C68_8 C67_8 1_555 1_555
C69_8 C68_8 1_555 1_555
H33_8 C69_8 1_555 1_555
C70_8 C69_8 1_555 1_555
C71_8 C70_8 1_555 1_555
H34_8 C71_8 1_555 1_555
C72_8 C67_8 1_555 1_555
C73_8 C74_8 1_555 1_555
C74_8 C75_8 1_555 1_555
C75_8 H35_8 1_555 1_555
C76_8 C75_8 1_555 1_555
H36_8 C76_8 1_555 1_555
C77_8 C76_8 1_555 1_555
C78_8 C77_8 1_555 1_555
H37_8 C78_8 1_555 1_555
C79_8 C74_8 1_555 1_555
H38_8 C79_8 1_555 1_555
C80_8 C77_8 1_555 1_555
N24_8 C80_8 1_555 1_555
N25_8 N24_8 1_555 1_555
N26_8 N25_8 1_555 1_555
N27_8 C80_8 1_555 1_555
Cu11_2 O31_8 1_555 1_555
Cu15_2 O33_8 1_555 1_555
Cu22_4 N26_8 1_555 1_555
Cu24_2 N25_8 1_555 1_555
N29_8 C70_8 1_555 1_555
H47_8 N29_8 1_555 1_555
O35_8 Cu11_2 1_555 1_555
O37_8 Cu15_2 1_555 1_555
O39_8 C65_8 1_555 1_555
O40_8 C65_8 1_555 1_555
O43_8 C73_8 1_555 1_555
O54_8 Cu15_2 1_555 1_555
O55_8 Cu11_2 1_555 1_555
O60_8 Cu24_2 1_555 1_555
O61_8 Cu22_4 1_555 1_555
O62_8 Cu22_4 1_555 1_555
O64_8 Cu24_2 1_555 1_555
O65_8 Cu22_4 1_555 1_555
O66_8 Cu24_2 1_555 1_555
C66_8 O41_8 1_555 1_555
C71_8 C72_8 1_555 1_555
C73_8 N29_8 1_555 1_555
C78_8 C79_8 1_555 1_555
N26_8 N27_8 1_555 1_555
Cu11_2 O40_8 1_555 1_555
Cu15_2 O39_8 1_555 1_555
Cu24_2 O57_4 1_555 1_555
C17_8 C20_8 1_555 1_555
C18_8 C24_8 1_555 1_555
C19_8 H8_8 1_555 1_555
C20_8 C19_8 1_555 1_555
C21_8 C20_8 1_555 1_555
H9_8 C21_8 1_555 1_555
C22_8 C21_8 1_555 1_555
C23_8 C22_8 1_555 1_555
H10_8 C23_8 1_555 1_555
C24_8 C19_8 1_555 1_555
C25_8 C26_8 1_555 1_555
C26_8 C27_8 1_555 1_555
C27_8 H11_8 1_555 1_555
C28_8 C27_8 1_555 1_555
H12_8 C28_8 1_555 1_555
C29_8 C28_8 1_555 1_555
C30_8 C29_8 1_555 1_555
H13_8 C30_8 1_555 1_555
C31_8 C26_8 1_555 1_555
H14_8 C31_8 1_555 1_555
C32_8 C29_8 1_555 1_555
N5_8 C32_8 1_555 1_555
N6_8 N5_8 1_555 1_555
N7_8 N6_8 1_555 1_555
N8_8 C32_8 1_555 1_555
Cu21_4 N7_8 1_555 1_555
Cu25_4 N6_8 1_555 1_555
N10_8 C22_8 1_555 1_555
H23_8 N10_8 1_555 1_555
O6_8 C17_8 1_555 1_555
O7_8 C17_8 1_555 1_555
O8_8 C18_8 1_555 1_555
O10_8 C25_8 1_555 1_555
O17_8 Cu14_2 1_555 1_555
O18_8 Cu10_2 1_555 1_555
O23_8 Cu25_4 1_555 1_555
O24_8 Cu21_4 1_555 1_555
O25_8 Cu21_4 1_555 1_555
O27_8 Cu25_4 1_555 1_555
O28_8 Cu21_4 1_555 1_555
O29_8 Cu25_4 1_555 1_555
N18_8 Cu25_4 1_555 1_555
C23_8 C24_8 1_555 1_555
C25_8 N10_8 1_555 1_555
C30_8 C31_8 1_555 1_555
N7_8 N8_8 1_555 1_555
Cu10_2 O7_8 1_555 1_555
Cu14_2 O6_8 1_555 1_555
O28_3 H57_5 1_555 1_555
C1_7 C6_7 1_555 1_555
C2_7 C4_7 1_555 1_555
C3_7 H1_7 1_555 1_555
C4_7 C3_7 1_555 1_555
C5_7 C4_7 1_555 1_555
H2_7 C5_7 1_555 1_555
C6_7 C5_7 1_555 1_555
C7_7 C6_7 1_555 1_555
H3_7 C7_7 1_555 1_555
C8_7 C3_7 1_555 1_555
C9_7 C10_7 1_555 1_555
C10_7 C11_7 1_555 1_555
C11_7 H4_7 1_555 1_555
C12_7 C11_7 1_555 1_555
H5_7 C12_7 1_555 1_555
C13_7 C12_7 1_555 1_555
C14_7 C13_7 1_555 1_555
H6_7 C14_7 1_555 1_555
C15_7 C10_7 1_555 1_555
H7_7 C15_7 1_555 1_555
C16_7 C13_7 1_555 1_555
N1_7 C16_7 1_555 1_555
N18_5 N1_7 1_555 1_555
N21_7 N18_5 1_555 1_555
N4_7 C16_7 1_555 1_555
N9_7 C8_7 1_555 1_555
H22_7 N9_7 1_555 1_555
O31_3 C2_7 1_555 1_555
O33_3 C2_7 1_555 1_555
O35_4 C1_7 1_555 1_555
O37_4 C1_7 1_555 1_555
O5_7 C9_7 1_555 1_555
C49_3 C54_3 1_555 1_555
C50_3 C52_3 1_555 1_555
C51_3 H25_3 1_555 1_555
C52_3 C51_3 1_555 1_555
C53_3 C52_3 1_555 1_555
H26_3 C53_3 1_555 1_555
C54_3 C53_3 1_555 1_555
C55_3 C54_3 1_555 1_555
H27_3 C55_3 1_555 1_555
C56_3 C51_3 1_555 1_555
C57_3 C58_3 1_555 1_555
C58_3 C59_3 1_555 1_555
C59_3 H28_3 1_555 1_555
C60_3 C59_3 1_555 1_555
H29_3 C60_3 1_555 1_555
C61_3 C60_3 1_555 1_555
C62_3 C61_3 1_555 1_555
H30_3 C62_3 1_555 1_555
C63_3 C58_3 1_555 1_555
H31_3 C63_3 1_555 1_555
C64_3 C61_3 1_555 1_555
N16_3 C64_3 1_555 1_555
N18_8 N16_3 1_555 1_555
N21_6 N18_8 1_555 1_555
N23_3 C64_3 1_555 1_555
N28_3 C56_3 1_555 1_555
H46_3 N28_3 1_555 1_555
O31_2 C50_3 1_555 1_555
O33_2 C50_3 1_555 1_555
O38_3 C57_3 1_555 1_555
C7_7 C8_7 1_555 1_555
C9_7 N9_7 1_555 1_555
C14_7 C15_7 1_555 1_555
N21_7 N4_7 1_555 1_555
C49_3 O35_3 1_555 1_555
C49_3 O37_3 1_555 1_555
C55_3 C56_3 1_555 1_555
C57_3 N28_3 1_555 1_555
C62_3 C63_3 1_555 1_555
N21_6 N23_3 1_555 1_555
O25_3 H67_5 1_555 1_555
O62_3 H91_5 1_555 1_555
O28_4 H57_6 1_555 1_555
C1_8 C6_8 1_555 1_555
C2_8 C4_8 1_555 1_555
C3_8 H1_8 1_555 1_555
C4_8 C3_8 1_555 1_555
C5_8 C4_8 1_555 1_555
H2_8 C5_8 1_555 1_555
C6_8 C5_8 1_555 1_555
C7_8 C6_8 1_555 1_555
H3_8 C7_8 1_555 1_555
C8_8 C3_8 1_555 1_555
C9_8 C10_8 1_555 1_555
C10_8 C11_8 1_555 1_555
C11_8 H4_8 1_555 1_555
C12_8 C11_8 1_555 1_555
H5_8 C12_8 1_555 1_555
C13_8 C12_8 1_555 1_555
C14_8 C13_8 1_555 1_555
H6_8 C14_8 1_555 1_555
C15_8 C10_8 1_555 1_555
H7_8 C15_8 1_555 1_555
C16_8 C13_8 1_555 1_555
N1_8 C16_8 1_555 1_555
N18_6 N1_8 1_555 1_555
N21_8 N18_6 1_555 1_555
N4_8 C16_8 1_555 1_555
N9_8 C8_8 1_555 1_555
H22_8 N9_8 1_555 1_555
O31_4 C2_8 1_555 1_555
O33_4 C2_8 1_555 1_555
O35 C1_8 1_555 1_555
O37 C1_8 1_555 1_555
O5_8 C9_8 1_555 1_555
C7_8 C8_8 1_555 1_555
C9_8 N9_8 1_555 1_555
C14_8 C15_8 1_555 1_555
N21_8 N4_8 1_555 1_555
O25_4 H67_6 1_555 1_555
O62_4 H91_6 1_555 1_555
C1_9 C6_9 1_555 1_555
C2_9 C4_9 1_555 1_555
C3_9 H1_9 1_555 1_555
C4_9 C3_9 1_555 1_555
C5_9 C4_9 1_555 1_555
H2_9 C5_9 1_555 1_555
C6_9 C5_9 1_555 1_555
C7_9 C6_9 1_555 1_555
H3_9 C7_9 1_555 1_555
C8_9 C3_9 1_555 1_555
C9_9 C10_9 1_555 1_555
C10_9 C11_9 1_555 1_555
C11_9 H4_9 1_555 1_555
C12_9 C11_9 1_555 1_555
H5_9 C12_9 1_555 1_555
C13_9 C12_9 1_555 1_555
C14_9 C13_9 1_555 1_555
H6_9 C14_9 1_555 1_555
C15_9 C10_9 1_555 1_555
H7_9 C15_9 1_555 1_555
C16_9 C13_9 1_555 1_555
N1_9 C16_9 1_555 1_555
N18_7 N1_9 1_555 1_555
N21_5 N18_7 1_555 1_555
N4_9 C16_9 1_555 1_555
N9_9 C8_9 1_555 1_555
H22_9 N9_9 1_555 1_555
O31 C2_9 1_555 1_555
O33 C2_9 1_555 1_555
O35_2 C1_9 1_555 1_555
O37_2 C1_9 1_555 1_555
O5_9 C9_9 1_555 1_555
C7_9 C8_9 1_555 1_555
C9_9 N9_9 1_555 1_555
C14_9 C15_9 1_555 1_555
N21_5 N4_9 1_555 1_555
O25 H67_7 1_555 1_555
O62 H91_7 1_555 1_555
O28 H57_7 1_555 1_555
O25_2 H67_8 1_555 1_555
O62_2 H91_8 1_555 1_555
O28_2 H57_8 1_555 1_555
C2_10 C4_10 1_555 1_555
C3_10 H1_10 1_555 1_555
C4_10 C3_10 1_555 1_555
C5_10 C4_10 1_555 1_555
H2_10 C5_10 1_555 1_555
C8_10 C3_10 1_555 1_555
C9_10 C10_10 1_555 1_555
C10_10 C11_10 1_555 1_555
C11_10 H4_10 1_555 1_555
C12_10 C11_10 1_555 1_555
H5_10 C12_10 1_555 1_555
C13_10 C12_10 1_555 1_555
C14_10 C13_10 1_555 1_555
C15_10 C10_10 1_555 1_555
C16_10 C13_10 1_555 1_555
N1_10 C16_10 1_555 1_555
N18 N1_10 1_555 1_555
N9_10 C8_10 1_555 1_555
H22_10 N9_10 1_555 1_555
O31_7 C2_10 1_555 1_555
O33_7 C2_10 1_555 1_555
O5_10 C9_10 1_555 1_555
C49_4 C54_4 1_555 1_555
C55_4 C54_4 1_555 1_555
H27_4 C55_4 1_555 1_555
C9_10 N9_10 1_555 1_555
C14_10 C15_10 1_555 1_555
C49_4 O35_7 1_555 1_555
C49_4 O37_7 1_555 1_555
N21_2 N23_4 1_555 1_555
C50_4 C52_4 1_555 1_555
C51_4 H25_4 1_555 1_555
C52_4 C51_4 1_555 1_555
C53_4 C52_4 1_555 1_555
H26_4 C53_4 1_555 1_555
C56_4 C51_4 1_555 1_555
C57_4 C58_4 1_555 1_555
C58_4 C59_4 1_555 1_555
C59_4 H28_4 1_555 1_555
C60_4 C59_4 1_555 1_555
H29_4 C60_4 1_555 1_555
C61_4 C60_4 1_555 1_555
C62_4 C61_4 1_555 1_555
C63_4 C58_4 1_555 1_555
C64_4 C61_4 1_555 1_555
N16_4 C64_4 1_555 1_555
N18_4 N16_4 1_555 1_555
N28_4 C56_4 1_555 1_555
H46_4 N28_4 1_555 1_555
O31_6 C50_4 1_555 1_555
O33_6 C50_4 1_555 1_555
O38_4 C57_4 1_555 1_555
C57_4 N28_4 1_555 1_555
C62_4 C63_4 1_555 1_555
O19_9 H93_5 1_555 1_555
O20_10 H77_5 1_555 1_555
O20_10 H78_5 1_555 1_555
O19_10 H94_5 1_555 1_555
C1_10 C6_10 1_555 1_555
C7_10 C6_10 1_555 1_555
H3_10 C7_10 1_555 1_555
O35_8 C1_10 1_555 1_555
O37_8 C1_10 1_555 1_555
N21_3 N4_10 1_555 1_555
O19_11 H93_6 1_555 1_555
O20_12 H77_6 1_555 1_555
O20_12 H78_6 1_555 1_555
O19_12 H94_6 1_555 1_555
C2_11 C4_11 1_555 1_555
C3_11 H1_11 1_555 1_555
C4_11 C3_11 1_555 1_555
C5_11 C4_11 1_555 1_555
H2_11 C5_11 1_555 1_555
C8_11 C3_11 1_555 1_555
C9_11 C10_11 1_555 1_555
C10_11 C11_11 1_555 1_555
C11_11 H4_11 1_555 1_555
C12_11 C11_11 1_555 1_555
H5_11 C12_11 1_555 1_555
C13_11 C12_11 1_555 1_555
C14_11 C13_11 1_555 1_555
C15_11 C10_11 1_555 1_555
C16_11 C13_11 1_555 1_555
N1_11 C16_11 1_555 1_555
N18_2 N1_11 1_555 1_555
N9_11 C8_11 1_555 1_555
H22_11 N9_11 1_555 1_555
O31_8 C2_11 1_555 1_555
O33_8 C2_11 1_555 1_555
O5_11 C9_11 1_555 1_555
C9_11 N9_11 1_555 1_555
C14_11 C15_11 1_555 1_555
C1_11 C6_11 1_555 1_555
C7_11 C6_11 1_555 1_555
H3_11 C7_11 1_555 1_555
O35_5 C1_11 1_555 1_555
O37_5 C1_11 1_555 1_555
N21_4 N4_11 1_555 1_555
C1_12 C6_12 1_555 1_555
C7_12 C6_12 1_555 1_555
H3_12 C7_12 1_555 1_555
O35_6 C1_12 1_555 1_555
O37_6 C1_12 1_555 1_555
N21 N4_12 1_555 1_555
O19_5 H93_7 1_555 1_555
O20_6 H77_7 1_555 1_555
O20_6 H78_7 1_555 1_555
O19_6 H94_7 1_555 1_555
C2_12 C4_12 1_555 1_555
C3_12 H1_12 1_555 1_555
C4_12 C3_12 1_555 1_555
C5_12 C4_12 1_555 1_555
H2_12 C5_12 1_555 1_555
C8_12 C3_12 1_555 1_555
C9_12 C10_12 1_555 1_555
C10_12 C11_12 1_555 1_555
C11_12 H4_12 1_555 1_555
C12_12 C11_12 1_555 1_555
H5_12 C12_12 1_555 1_555
C13_12 C12_12 1_555 1_555
C14_12 C13_12 1_555 1_555
C15_12 C10_12 1_555 1_555
C16_12 C13_12 1_555 1_555
N1_12 C16_12 1_555 1_555
N18_3 N1_12 1_555 1_555
N9_12 C8_12 1_555 1_555
H22_12 N9_12 1_555 1_555
O31_5 C2_12 1_555 1_555
O33_5 C2_12 1_555 1_555
O5_12 C9_12 1_555 1_555
C9_12 N9_12 1_555 1_555
C14_12 C15_12 1_555 1_555
O19_7 H93_8 1_555 1_555
O20_8 H77_8 1_555 1_555
O20_8 H78_8 1_555 1_555
O19_8 H94_8 1_555 1_555

#END
