
###############################################################################
#
# This file contains modified crystal structure data generated from the
# MOF subset of the Cambridge Structural Database (CSD) v543 
# hosted by the Cambridge Crystallographic Data Centre (CCDC).
#
# This work is licensed under the Creative Commons
# Attribution-NonCommercial-ShareAlike 4.0 International License.
# To view a copy of this license, visit
# http://creativecommons.org/licenses/by-nc-sa/4.0/
# or send a letter to
# Creative Commons, PO Box 1866, Mountain View, CA 94042, USA.
#
# CIF created using the CSD Python API on 29 September 2022
# The structure has been converted into the P1 space group
# The structure has a 3D framework
# The original CSD entry ADAXIO is in the monoclinic crystal system
# The framework has been calculated to contain at least 10.0% void space
# The void calculation uses a probe of radius 1.32A, grid spacing 0.4
#
###############################################################################

data_ADAXIO
_chemical_formula_moiety         '(C104 H64 Co8 N8 O36)n'
_symmetry_cell_setting           triclinic
_symmetry_space_group_name_H-M   'P 1'
_symmetry_Int_Tables_number      1
_space_group_name_Hall           'P 1'
loop_
_symmetry_equiv_pos_site_id
_symmetry_equiv_pos_as_xyz
1 x,y,z
_cell_length_a                   18.191(2)
_cell_length_b                   17.177(2)
_cell_length_c                   13.6923(17)
_cell_angle_alpha                90
_cell_angle_beta                 129.7410(10)
_cell_angle_gamma                90
_cell_volume                     3289.83
loop_
_atom_site_label
_atom_site_type_symbol
_atom_site_fract_x
_atom_site_fract_y
_atom_site_fract_z
Co1 Co 0.5000 0.19734(3) 0.2500
Co2 Co 0.2500 0.2500 0.0000
C1 C 0.3421(2) 0.16623(19) 0.2506(3)
C2 C 0.3378(2) 0.10033(19) 0.3195(3)
C3 C 0.2609(3) 0.0492(2) 0.2544(4)
H1 H 0.2089 0.0587 0.1697
C6 C 0.4123(3) 0.0218(2) 0.5067(3)
H3 H 0.4630 0.0137 0.5925
C7 C 0.4127(3) 0.0860(2) 0.4461(3)
H4 H 0.4644 0.1201 0.4915
C9 C 0.4636(3) 0.3284(2) 0.0222(4)
H5 H 0.4693 0.2779 0.0032
C11 C 0.4845(3) 0.4664(2) 0.0173(4)
C12 C 0.4432(3) 0.4768(2) 0.0740(4)
H7 H 0.4355 0.5268 0.0924
C13 C 0.4139(3) 0.4140(2) 0.1028(4)
H8 H 0.3851 0.4218 0.1387
N1 N 0.4263(2) 0.34093(17) 0.0797(3)
O1 O 0.42156(17) 0.20048(13) 0.3103(2)
O2 O 0.26787(16) 0.18176(13) 0.1399(2)
O5 O 0.39984(16) 0.28121(13) 0.1134(2)
Co7 Co 0.7500 0.7500 0.0000
Co9 Co 0.7500 0.2500 0.5000
C14 C 0.6579(2) 0.16623(19) 0.2494(3)
C15 C 0.6622(2) 0.10033(19) 0.1805(3)
C16 C 0.7391(3) 0.0492(2) 0.2456(4)
H9 H 0.7911 0.0587 0.3303
C20 C 0.5873(3) 0.0860(2) 0.0539(3)
H12 H 0.5356 0.1201 0.0085
C23 C 0.5066(3) 0.6097(2) 0.0084(5)
H14 H 0.4800 0.6189 0.0470
O6 O 0.57844(17) 0.20048(13) 0.1897(2)
O7 O 0.73213(16) 0.18176(13) 0.3601(2)
O10 O 0.58590(17) 0.11042(13) 0.3788(2)
O11 O 0.41410(17) 0.11042(13) 0.1212(2)
O13 O 0.22655(17) 0.34896(14) 0.0605(2)
O17 O 0.60016(16) 0.28121(13) 0.3866(2)
Co2_2 Co 0.2500 0.2500 1.0000
C10 C 0.4934(3) 0.3903(2) 0.9916(5)
H6 H 0.5200 0.3811 0.9530
Co5 Co 0.5000 0.80266(3) 0.7500
Co7_2 Co 0.7500 0.7500 1.0000
C19 C 0.5877(3) 0.0218(2) 0.9933(3)
H11 H 0.5370 0.0137 0.9075
C22 C 0.5364(3) 0.6716(2) 0.9778(4)
H13 H 0.5307 0.7221 0.9968
C24 C 0.5155(3) 0.5336(2) 0.9827(4)
C25 C 0.5568(3) 0.5232(2) 0.9260(4)
H15 H 0.5645 0.4732 0.9076
C26 C 0.5861(3) 0.5860(2) 0.8972(4)
H16 H 0.6149 0.5782 0.8613
N2 N 0.5737(2) 0.65907(17) 0.9203(3)
O8 O 0.23213(16) 0.31824(13) 0.8601(2)
O14 O 0.27345(17) 0.15104(14) 0.9395(2)
O15 O 0.60016(16) 0.71879(13) 0.8866(2)
O16 O 0.10016(16) 0.21879(13) 0.8866(2)
C4 C 0.2607(3) 0.9843(2) 0.3143(4)
H2 H 0.2089 0.9503 0.2691
C5 C 0.3371(2) 0.9696(2) 0.4409(3)
C8 C 0.3416(2) 0.89654(19) 0.5062(3)
O3 O 0.41410(17) 0.88958(13) 0.6212(2)
O4 O 0.27345(17) 0.84896(14) 0.4395(2)
Co8 Co 0.2500 0.7500 0.5000
C17 C 0.7393(3) 0.9843(2) 0.1857(4)
H10 H 0.7911 0.9503 0.2309
C18 C 0.6629(2) 0.9696(2) 0.0591(3)
O12 O 0.72655(17) 0.84896(14) 0.0605(2)
C21 C 0.6584(2) 0.89654(19) 0.9938(3)
O9 O 0.58590(17) 0.88958(13) 0.8788(2)
C9_2 C 0.5364(3) 0.3284(2) 0.4778(4)
H5_2 H 0.5307 0.2779 0.4968
C10_2 C 0.5066(3) 0.3903(2) 0.5084(5)
H6_2 H 0.4800 0.3811 0.5470
C11_2 C 0.5155(3) 0.4664(2) 0.4827(4)
C12_2 C 0.5568(3) 0.4768(2) 0.4260(4)
H7_2 H 0.5645 0.5268 0.4076
C13_2 C 0.5861(3) 0.4140(2) 0.3972(4)
H8_2 H 0.6149 0.4218 0.3613
N1_2 N 0.5737(2) 0.34093(17) 0.4203(3)
C22_2 C 0.4636(3) 0.6716(2) 0.5222(4)
H13_2 H 0.4693 0.7221 0.5032
C23_2 C 0.4934(3) 0.6097(2) 0.4916(5)
H14_2 H 0.5200 0.6189 0.4530
C24_2 C 0.4845(3) 0.5336(2) 0.5173(4)
C25_2 C 0.4432(3) 0.5232(2) 0.5740(4)
H15_2 H 0.4355 0.4732 0.5924
C26_2 C 0.4139(3) 0.5860(2) 0.6028(4)
H16_2 H 0.3851 0.5782 0.6387
N2_2 N 0.4263(2) 0.65907(17) 0.5797(3)
O8_2 O 0.76787(16) 0.31824(13) 0.6399(2)
O13_2 O 0.77345(17) 0.34896(14) 0.4395(2)
O14_2 O 0.72655(17) 0.15104(14) 0.5605(2)
O15_2 O 0.39984(16) 0.71879(13) 0.6134(2)
O16_2 O 0.89984(16) 0.21879(13) 0.6134(2)
C23_3 C 0.0066(3) 0.1097(2) 0.0084(5)
Co5_2 Co 0.0000 0.30266(3) 0.7500
C22_3 C 0.0364(3) 0.1716(2) 0.9778(4)
H13_3 H 0.0307 0.2221 0.9968
C24_3 C 0.0155(3) 0.0336(2) 0.9827(4)
C25_3 C 0.0568(3) 0.0232(2) 0.9260(4)
C26_3 C 0.0861(3) 0.0860(2) 0.8972(4)
H16_3 H 0.1149 0.0782 0.8613
N2_3 N 0.0737(2) 0.15907(17) 0.9203(3)
Co1_2 Co 0.0000 0.69734(3) 0.2500
C14_2 C 0.1579(2) 0.66623(19) 0.2494(3)
C15_2 C 0.1622(2) 0.60033(19) 0.1805(3)
C16_2 C 0.2391(3) 0.5492(2) 0.2456(4)
H9_2 H 0.2911 0.5587 0.3303
C17_2 C 0.2393(3) 0.4843(2) 0.1857(4)
H10_2 H 0.2911 0.4503 0.2309
C18_2 C 0.1629(2) 0.4696(2) 0.0591(3)
C20_2 C 0.0873(3) 0.5860(2) 0.0539(3)
H12_2 H 0.0356 0.6201 0.0085
O6_2 O 0.07844(17) 0.70048(13) 0.1897(2)
O7_2 O 0.23213(16) 0.68176(13) 0.3601(2)
O10_2 O 0.08590(17) 0.61042(13) 0.3788(2)
O17_2 O 0.10016(16) 0.78121(13) 0.3866(2)
H6_3 H 0.0200 0.8811 0.9530
C19_2 C 0.0877(3) 0.5218(2) 0.9933(3)
H11_2 H 0.0370 0.5137 0.9075
C21_2 C 0.1584(2) 0.39654(19) 0.9938(3)
H15_3 H 0.0645 0.9732 0.9076
O9_2 O 0.08590(17) 0.38958(13) 0.8788(2)
H7_3 H 0.9355 0.0268 0.0924
H14_3 H 0.9800 0.1189 0.0470
Co5_3 Co 1.0000 0.30266(3) 0.7500
Co1_3 Co 1.0000 0.69734(3) 0.2500
C1_2 C 0.8421(2) 0.66623(19) 0.2506(3)
C2_2 C 0.8378(2) 0.60033(19) 0.3195(3)
C3_2 C 0.7609(3) 0.5492(2) 0.2544(4)
H1_2 H 0.7089 0.5587 0.1697
C4_2 C 0.7607(3) 0.4843(2) 0.3143(4)
H2_2 H 0.7089 0.4503 0.2691
C5_2 C 0.8371(2) 0.4696(2) 0.4409(3)
C6_2 C 0.9123(3) 0.5218(2) 0.5067(3)
H3_2 H 0.9630 0.5137 0.5925
C7_2 C 0.9127(3) 0.5860(2) 0.4461(3)
H4_2 H 0.9644 0.6201 0.4915
C8_2 C 0.8416(2) 0.39654(19) 0.5062(3)
C9_3 C 0.9636(3) 0.8284(2) 0.0222(4)
H5_3 H 0.9693 0.7779 0.0032
C11_3 C 0.9845(3) 0.9664(2) 0.0173(4)
C12_3 C 0.9432(3) 0.9768(2) 0.0740(4)
C13_3 C 0.9139(3) 0.9140(2) 0.1028(4)
H8_3 H 0.8851 0.9218 0.1387
N1_3 N 0.9263(2) 0.84093(17) 0.0797(3)
O1_2 O 0.92156(17) 0.70048(13) 0.3103(2)
O2_2 O 0.76787(16) 0.68176(13) 0.1399(2)
O3_2 O 0.91410(17) 0.38958(13) 0.6212(2)
O5_2 O 0.89984(16) 0.78121(13) 0.1134(2)
O11_2 O 0.91410(17) 0.61042(13) 0.1212(2)
C10_3 C 0.9934(3) 0.8903(2) 0.9916(5)
O8_3 O 0.73213(16) 0.81824(13) 0.8601(2)
O14_3 O 0.77345(17) 0.65104(14) 0.9395(2)
H7_4 H 0.0645 0.0268 0.4076
H14_4 H 0.0200 0.1189 0.4530
C9_4 C 0.0364(3) 0.8284(2) 0.4778(4)
H5_4 H 0.0307 0.7779 0.4968
C10_4 C 0.0066(3) 0.8903(2) 0.5084(5)
C11_4 C 0.0155(3) 0.9664(2) 0.4827(4)
C12_4 C 0.0568(3) 0.9768(2) 0.4260(4)
C13_4 C 0.0861(3) 0.9140(2) 0.3972(4)
H8_4 H 0.1149 0.9218 0.3613
N1_4 N 0.0737(2) 0.84093(17) 0.4203(3)
O8_4 O 0.26787(16) 0.81824(13) 0.6399(2)
O14_4 O 0.22655(17) 0.65104(14) 0.5605(2)
C22_4 C 0.9636(3) 0.1716(2) 0.5222(4)
H13_4 H 0.9693 0.2221 0.5032
C23_4 C 0.9934(3) 0.1097(2) 0.4916(5)
C24_4 C 0.9845(3) 0.0336(2) 0.5173(4)
C25_4 C 0.9432(3) 0.0232(2) 0.5740(4)
C26_4 C 0.9139(3) 0.0860(2) 0.6028(4)
H16_4 H 0.8851 0.0782 0.6387
N2_4 N 0.9263(2) 0.15907(17) 0.5797(3)
H6_4 H 0.9800 0.8811 0.5470
H15_4 H 0.9355 0.9732 0.5924
C21_3 C 0.3416(2) 0.10346(19) 0.0062(3)
C4_3 C 0.7393(3) 0.0157(2) 0.6857(4)
H2_3 H 0.7911 0.0497 0.7309
C5_3 C 0.6629(2) 0.0304(2) 0.5591(3)
C8_3 C 0.6584(2) 0.10346(19) 0.4938(3)
C17_3 C 0.2607(3) 0.0157(2) 0.8143(4)
H10_3 H 0.2089 0.0497 0.7691
C18_3 C 0.3371(2) 0.0304(2) 0.9409(3)
C19_3 C 0.4123(3) 0.9782(2) 0.0067(3)
H11_3 H 0.4630 0.9863 0.0925
C1_3 C 0.6579(2) 0.83377(19) 0.7494(3)
C2_3 C 0.6622(2) 0.89967(19) 0.6805(3)
C3_3 C 0.7391(3) 0.9508(2) 0.7456(4)
H1_3 H 0.7911 0.9413 0.8303
C6_3 C 0.5877(3) 0.9782(2) 0.4933(3)
H3_3 H 0.5370 0.9863 0.4075
C7_3 C 0.5873(3) 0.9140(2) 0.5539(3)
H4_3 H 0.5356 0.8799 0.5085
O1_3 O 0.57844(17) 0.79952(13) 0.6897(2)
C14_3 C 0.3421(2) 0.83377(19) 0.7506(3)
C15_3 C 0.3378(2) 0.89967(19) 0.8195(3)
C16_3 C 0.2609(3) 0.9508(2) 0.7544(4)
H9_3 H 0.2089 0.9413 0.6697
C20_3 C 0.4127(3) 0.9140(2) 0.9461(3)
H12_3 H 0.4644 0.8799 0.9915
O6_3 O 0.42156(17) 0.79952(13) 0.8103(2)
C1_4 C 0.1579(2) 0.33377(19) 0.7494(3)
C2_4 C 0.1622(2) 0.39967(19) 0.6805(3)
C3_4 C 0.2391(3) 0.4508(2) 0.7456(4)
H1_4 H 0.2911 0.4413 0.8303
C4_4 C 0.2393(3) 0.5157(2) 0.6857(4)
H2_4 H 0.2911 0.5497 0.7309
C5_4 C 0.1629(2) 0.5304(2) 0.5591(3)
C6_4 C 0.0877(3) 0.4782(2) 0.4933(3)
H3_4 H 0.0370 0.4863 0.4075
C7_4 C 0.0873(3) 0.4140(2) 0.5539(3)
H4_4 H 0.0356 0.3799 0.5085
C8_4 C 0.1584(2) 0.60346(19) 0.4938(3)
O1_4 O 0.07844(17) 0.29952(13) 0.6897(2)
C19_4 C 0.9123(3) 0.4782(2) 0.0067(3)
H11_4 H 0.9630 0.4863 0.0925
C21_4 C 0.8416(2) 0.60346(19) 0.0062(3)
C14_4 C 0.8421(2) 0.33377(19) 0.7506(3)
C15_4 C 0.8378(2) 0.39967(19) 0.8195(3)
C16_4 C 0.7609(3) 0.4508(2) 0.7544(4)
H9_4 H 0.7089 0.4413 0.6697
C17_4 C 0.7607(3) 0.5157(2) 0.8143(4)
H10_4 H 0.7089 0.5497 0.7691
C18_4 C 0.8371(2) 0.5304(2) 0.9409(3)
C20_4 C 0.9127(3) 0.4140(2) 0.9461(3)
H12_4 H 0.9644 0.3799 0.9915
O6_4 O 0.92156(17) 0.29952(13) 0.8103(2)
loop_
_geom_bond_atom_site_label_1
_geom_bond_atom_site_label_2
_geom_bond_site_symmetry_1
_geom_bond_site_symmetry_2
Co1 O1 1_555 1_555
Co2 O2 1_555 1_555
C1 C2 1_555 1_555
C2 C3 1_555 1_555
C3 H1 1_555 1_555
H3 C6 1_555 1_555
C7 C2 1_555 1_555
H4 C7 1_555 1_555
C9 H5 1_555 1_555
C12 C11 1_555 1_555
H7 C12 1_555 1_555
C13 C12 1_555 1_555
H8 C13 1_555 1_555
N1 C9 1_555 1_555
O1 C1 1_555 1_555
O2 C1 1_555 1_555
O5 Co1 1_555 1_555
Co9 O7 1_555 1_555
C14 C15 1_555 1_555
C15 C16 1_555 1_555
C16 H9 1_555 1_555
C20 C15 1_555 1_555
H12 C20 1_555 1_555
H14 C23 1_555 1_555
O6 Co1 1_555 1_555
O7 C14 1_555 1_555
O10 Co1 1_555 1_555
O11 Co1 1_555 1_555
O13 Co2 1_555 1_555
O17 Co1 1_555 1_555
Co2 O5 1_555 1_555
C6 C7 1_555 1_555
C13 N1 1_555 1_555
N1 O5 1_555 1_555
Co9 O17 1_555 1_555
C14 O6 1_555 1_555
H6 C10 1_555 1_555
Co5 O15 1_555 1_555
Co7_2 O15 1_555 1_555
H11 C19 1_555 1_555
C22 H13 1_555 1_555
C25 C24 1_555 1_555
H15 C25 1_555 1_555
C26 C25 1_555 1_555
H16 C26 1_555 1_555
N2 C22 1_555 1_555
O8 Co2_2 1_555 1_555
O14 Co2_2 1_555 1_555
O15 N2 1_555 1_555
O16 Co2_2 1_555 1_555
C26 N2 1_555 1_555
H2 C4 1_555 1_555
C5 C4 1_555 1_555
C8 C5 1_555 1_555
O3 C8 1_555 1_555
O4 C8 1_555 1_555
Co5 O3 1_555 1_555
Co7 O12 1_555 1_555
Co8 O4 1_555 1_555
H10 C17 1_555 1_555
C18 C17 1_555 1_555
Co5 O9 1_555 1_555
O9 C21 1_555 1_555
C9_2 H5_2 1_555 1_555
C10_2 C9_2 1_555 1_555
H6_2 C10_2 1_555 1_555
C11_2 C10_2 1_555 1_555
C12_2 C11_2 1_555 1_555
H7_2 C12_2 1_555 1_555
C13_2 C12_2 1_555 1_555
H8_2 C13_2 1_555 1_555
N1_2 C9_2 1_555 1_555
Co5 O15_2 1_555 1_555
Co8 O15_2 1_555 1_555
C22_2 H13_2 1_555 1_555
C23_2 C22_2 1_555 1_555
H14_2 C23_2 1_555 1_555
C24_2 C11_2 1_555 1_555
C25_2 C24_2 1_555 1_555
H15_2 C25_2 1_555 1_555
C26_2 C25_2 1_555 1_555
H16_2 C26_2 1_555 1_555
N2_2 C22_2 1_555 1_555
O8_2 Co9 1_555 1_555
O13_2 Co9 1_555 1_555
O14_2 Co9 1_555 1_555
O15_2 N2_2 1_555 1_555
O16_2 Co9 1_555 1_555
C13_2 N1_2 1_555 1_555
N1_2 O17 1_555 1_555
C23_2 C24_2 1_555 1_555
C26_2 N2_2 1_555 1_555
Co5_2 O16 1_555 1_555
C22_3 H13_3 1_555 1_555
C25_3 C24_3 1_555 1_555
C26_3 C25_3 1_555 1_555
H16_3 C26_3 1_555 1_555
N2_3 C22_3 1_555 1_555
O16 N2_3 1_555 1_555
C26_3 N2_3 1_555 1_555
Co8 O7_2 1_555 1_555
C14_2 C15_2 1_555 1_555
C15_2 C16_2 1_555 1_555
C16_2 H9_2 1_555 1_555
C17_2 C16_2 1_555 1_555
H10_2 C17_2 1_555 1_555
C18_2 C17_2 1_555 1_555
C20_2 C15_2 1_555 1_555
H12_2 C20_2 1_555 1_555
O6_2 Co1_2 1_555 1_555
O7_2 C14_2 1_555 1_555
O10_2 Co1_2 1_555 1_555
O17_2 Co1_2 1_555 1_555
Co8 O17_2 1_555 1_555
C14_2 O6_2 1_555 1_555
Co5_2 O9_2 1_555 1_555
H11_2 C19_2 1_555 1_555
O9_2 C21_2 1_555 1_555
Co1_3 O1_2 1_555 1_555
Co7 O2_2 1_555 1_555
C1_2 C2_2 1_555 1_555
C2_2 C3_2 1_555 1_555
C3_2 H1_2 1_555 1_555
C4_2 C3_2 1_555 1_555
H2_2 C4_2 1_555 1_555
C5_2 C4_2 1_555 1_555
C6_2 C5_2 1_555 1_555
H3_2 C6_2 1_555 1_555
C7_2 C2_2 1_555 1_555
H4_2 C7_2 1_555 1_555
C8_2 C5_2 1_555 1_555
C9_3 H5_3 1_555 1_555
C12_3 C11_3 1_555 1_555
C13_3 C12_3 1_555 1_555
H8_3 C13_3 1_555 1_555
N1_3 C9_3 1_555 1_555
O1_2 C1_2 1_555 1_555
O2_2 C1_2 1_555 1_555
O3_2 C8_2 1_555 1_555
O13_2 C8_2 1_555 1_555
O5_2 Co1_3 1_555 1_555
Co5_3 O3_2 1_555 1_555
O11_2 Co1_3 1_555 1_555
Co7 O5_2 1_555 1_555
C6_2 C7_2 1_555 1_555
C13_3 N1_3 1_555 1_555
N1_3 O5_2 1_555 1_555
O8_3 Co7_2 1_555 1_555
O14_3 Co7_2 1_555 1_555
C9_4 H5_4 1_555 1_555
C10_4 C9_4 1_555 1_555
C11_4 C10_4 1_555 1_555
C12_4 C11_4 1_555 1_555
C13_4 C12_4 1_555 1_555
H8_4 C13_4 1_555 1_555
N1_4 C9_4 1_555 1_555
O8_4 Co8 1_555 1_555
O14_4 Co8 1_555 1_555
C13_4 N1_4 1_555 1_555
N1_4 O17_2 1_555 1_555
Co5_3 O16_2 1_555 1_555
C22_4 H13_4 1_555 1_555
C23_4 C22_4 1_555 1_555
C25_4 C24_4 1_555 1_555
C26_4 C25_4 1_555 1_555
H16_4 C26_4 1_555 1_555
N2_4 C22_4 1_555 1_555
O16_2 N2_4 1_555 1_555
C23_4 C24_4 1_555 1_555
C26_4 N2_4 1_555 1_555
O11 C21_3 1_555 1_555
H2_3 C4_3 1_555 1_555
C5_3 C4_3 1_555 1_555
C8_3 C5_3 1_555 1_555
O10 C8_3 1_555 1_555
O14_2 C8_3 1_555 1_555
H10_3 C17_3 1_555 1_555
C18_3 C17_3 1_555 1_555
H11_3 C19_3 1_555 1_555
Co5 O1_3 1_555 1_555
C1_3 C2_3 1_555 1_555
C2_3 C3_3 1_555 1_555
C3_3 H1_3 1_555 1_555
H3_3 C6_3 1_555 1_555
C7_3 C2_3 1_555 1_555
H4_3 C7_3 1_555 1_555
O1_3 C1_3 1_555 1_555
O8_3 C1_3 1_555 1_555
C14_3 C15_3 1_555 1_555
C15_3 C16_3 1_555 1_555
C16_3 H9_3 1_555 1_555
C20_3 C15_3 1_555 1_555
H12_3 C20_3 1_555 1_555
O6_3 Co5 1_555 1_555
O8_4 C14_3 1_555 1_555
C6_3 C7_3 1_555 1_555
C14_3 O6_3 1_555 1_555
Co5_2 O1_4 1_555 1_555
C1_4 C2_4 1_555 1_555
C2_4 C3_4 1_555 1_555
C3_4 H1_4 1_555 1_555
C4_4 C3_4 1_555 1_555
H2_4 C4_4 1_555 1_555
C5_4 C4_4 1_555 1_555
C6_4 C5_4 1_555 1_555
H3_4 C6_4 1_555 1_555
C7_4 C2_4 1_555 1_555
H4_4 C7_4 1_555 1_555
C8_4 C5_4 1_555 1_555
O1_4 C1_4 1_555 1_555
O8 C1_4 1_555 1_555
O10_2 C8_4 1_555 1_555
O14_4 C8_4 1_555 1_555
C6_4 C7_4 1_555 1_555
H11_4 C19_4 1_555 1_555
O11_2 C21_4 1_555 1_555
C14_4 C15_4 1_555 1_555
C15_4 C16_4 1_555 1_555
C16_4 H9_4 1_555 1_555
C17_4 C16_4 1_555 1_555
H10_4 C17_4 1_555 1_555
C18_4 C17_4 1_555 1_555
C20_4 C15_4 1_555 1_555
H12_4 C20_4 1_555 1_555
O6_4 Co5_3 1_555 1_555
O8_2 C14_4 1_555 1_555
C14_4 O6_4 1_555 1_555

#END
