
###############################################################################
#
# This file contains modified crystal structure data generated from the
# MOF subset of the Cambridge Structural Database (CSD) v543 
# hosted by the Cambridge Crystallographic Data Centre (CCDC).
#
# This work is licensed under the Creative Commons
# Attribution-NonCommercial-ShareAlike 4.0 International License.
# To view a copy of this license, visit
# http://creativecommons.org/licenses/by-nc-sa/4.0/
# or send a letter to
# Creative Commons, PO Box 1866, Mountain View, CA 94042, USA.
#
# CIF created using the CSD Python API on 29 September 2022
# The structure has been converted into the P1 space group
# The structure has a 3D framework
# The original CSD entry ADAXEK is in the monoclinic crystal system
# The framework has been calculated to contain at least 10.0% void space
# The void calculation uses a probe of radius 1.32A, grid spacing 0.4
#
###############################################################################

data_ADAXEK
_chemical_formula_moiety         '(C54 H32 Co4 N6 O21)n'
_symmetry_cell_setting           triclinic
_symmetry_space_group_name_H-M   'P 1'
_symmetry_Int_Tables_number      1
_space_group_name_Hall           'P 1'
loop_
_symmetry_equiv_pos_site_id
_symmetry_equiv_pos_as_xyz
1 x,y,z
_cell_length_a                   7.1668(6)
_cell_length_b                   23.6839(19)
_cell_length_c                   9.8524(8)
_cell_angle_alpha                90
_cell_angle_beta                 94.4420(10)
_cell_angle_gamma                90
_cell_volume                     1667.3
loop_
_atom_site_label
_atom_site_type_symbol
_atom_site_fract_x
_atom_site_fract_y
_atom_site_fract_z
Co8 Co 0.7500 0.7500 0.5000
Co9 Co 0.2500 0.7500 0.5000
O6 O 0.6271(4) 0.69036(12) 0.3664(3)
O10 O 0.3186(4) 0.70641(12) 0.3300(3)
C10 C 0.4880(5) 0.68573(17) 0.1415(4)
C13 C 0.6602(6) 0.6843(3) 0.0858(4)
H7 H 0.7693 0.6829 0.1432
C16 C 0.3279(6) 0.6849(3) 0.0529(4)
H10 H 0.2109 0.6848 0.0877
C19 C 0.4775(5) 0.69446(16) 0.2917(4)
O1 O 0.1271(4) 0.80964(12) 0.3664(3)
O3 O -0.0000 0.70414(15) 0.5000
N1 N 0.0000 0.64770(19) 0.5000
C2 C 0.1602(6) 0.8157(3) 0.0858(4)
H1 H 0.2693 0.8171 0.1432
C5 C 0.0000 0.5314(2) 0.5000
C6 C 0.0248(8) 0.5623(2) 0.3831(5)
H3 H 0.0414 0.5433 0.3023
C7 C 0.0254(7) 0.62019(18) 0.3840(4)
H4 H 0.0433 0.6402 0.3048
Co6 Co 0.2500 0.2500 0.5000
O5 O 0.3729(4) 0.69036(12) 0.6336(3)
O9 O 0.6814(4) 0.70641(12) 0.6700(3)
O11 O 0.1814(4) 0.79359(12) 0.6700(3)
O15 O 0.0000 0.29586(15) 0.5000
O16 O 0.5000 0.79586(15) 0.5000
N2 N 0.0000 0.35230(19) 0.5000
C9 C 0.5120(5) 0.68573(17) 0.8585(4)
C12 C 0.3398(6) 0.6843(3) 0.9142(4)
H6 H 0.2307 0.6829 0.8568
C15 C 0.6721(6) 0.6849(3) 0.9471(4)
H9 H 0.7891 0.6848 0.9123
C18 C 0.5225(5) 0.69446(16) 0.7083(4)
C20 C -0.0000 0.4686(2) 0.5000
C22 C 0.0248(8) 0.4377(2) 0.3831(5)
H12 H 0.0414 0.4567 0.3023
C25 C 0.0254(7) 0.37981(18) 0.3840(4)
H14 H 0.0433 0.3598 0.3048
C8 C 0.0120(5) 0.81427(17) 0.8585(4)
C14 C 0.1721(6) 0.8151(3) 0.9471(4)
H8 H 0.2891 0.8152 0.9123
C17 C 0.0225(5) 0.80554(16) 0.7083(4)
O2 O 0.8186(4) 0.79359(12) 0.3300(3)
O3_2 O 1.0000 0.70414(15) 0.5000
N1_2 N 1.0000 0.64770(19) 0.5000
C1 C 0.9880(5) 0.81427(17) 0.1415(4)
C3 C 0.8279(6) 0.8151(3) 0.0529(4)
H2 H 0.7109 0.8152 0.0877
C4 C 0.9775(5) 0.80554(16) 0.2917(4)
C5_2 C 1.0000 0.5314(2) 0.5000
Co5 Co 0.7500 0.2500 0.5000
O15_2 O 1.0000 0.29586(15) 0.5000
N2_2 N 1.0000 0.35230(19) 0.5000
C20_2 C 1.0000 0.4686(2) 0.5000
C21 C 0.9752(8) 0.4377(2) 0.6169(5)
C23 C 0.9752(8) 0.5623(2) 0.6169(5)
H11 H 0.9586 0.4567 0.6977
H13 H 0.9586 0.5433 0.6977
C24 C 0.9746(7) 0.37981(18) 0.6160(4)
C26 C 0.9746(7) 0.62019(18) 0.6160(4)
H15 H 0.9567 0.3598 0.6952
H16 H 0.9567 0.6402 0.6952
O4 O 0.8729(4) 0.80964(12) 0.6336(3)
C11 C 0.8398(6) 0.8157(3) 0.9142(4)
H5 H 0.7307 0.8171 0.8568
O6_2 O 0.1271(4) 0.19036(12) 0.3664(3)
C13_2 C 0.1602(6) 0.1843(3) 0.0858(4)
H7_2 H 0.2693 0.1829 0.1432
O9_2 O 0.1814(4) 0.20641(12) 0.6700(3)
C9_2 C 0.0120(5) 0.18573(17) 0.8585(4)
C15_2 C 0.1721(6) 0.1849(3) 0.9471(4)
H9_2 H 0.2891 0.1848 0.9123
C18_2 C 0.0225(5) 0.19446(16) 0.7083(4)
O10_2 O 0.8186(4) 0.20641(12) 0.3300(3)
C10_2 C 0.9880(5) 0.18573(17) 0.1415(4)
C16_2 C 0.8279(6) 0.1849(3) 0.0529(4)
H10_2 H 0.7109 0.1848 0.0877
C19_2 C 0.9775(5) 0.19446(16) 0.2917(4)
O1_2 O 0.6271(4) 0.30964(12) 0.3664(3)
O2_2 O 0.3186(4) 0.29359(12) 0.3300(3)
O3_3 O 0.5000 0.20414(15) 0.5000
N1_3 N 0.5000 0.14770(19) 0.5000
C1_2 C 0.4880(5) 0.31427(17) 0.1415(4)
C2_2 C 0.6602(6) 0.3157(3) 0.0858(4)
H1_2 H 0.7693 0.3171 0.1432
C3_2 C 0.3279(6) 0.3151(3) 0.0529(4)
H2_2 H 0.2109 0.3152 0.0877
C4_2 C 0.4775(5) 0.30554(16) 0.2917(4)
C5_3 C 0.5000 0.0314(2) 0.5000
C6_2 C 0.5248(8) 0.0623(2) 0.3831(5)
H3_2 H 0.5414 0.0433 0.3023
C7_2 C 0.5254(7) 0.12019(18) 0.3840(4)
H4_2 H 0.5433 0.1402 0.3048
O5_2 O 0.8729(4) 0.19036(12) 0.6336(3)
O11_2 O 0.6814(4) 0.29359(12) 0.6700(3)
C12_2 C 0.8398(6) 0.1843(3) 0.9142(4)
H6_2 H 0.7307 0.1829 0.8568
C23_2 C 0.4752(8) 0.0623(2) 0.6169(5)
H13_2 H 0.4586 0.0433 0.6977
C26_2 C 0.4746(7) 0.12019(18) 0.6160(4)
H16_2 H 0.4567 0.1402 0.6952
O4_2 O 0.3729(4) 0.30964(12) 0.6336(3)
C8_2 C 0.5120(5) 0.31427(17) 0.8585(4)
C11_2 C 0.3398(6) 0.3157(3) 0.9142(4)
H5_2 H 0.2307 0.3171 0.8568
C14_2 C 0.6721(6) 0.3151(3) 0.9471(4)
H8_2 H 0.7891 0.3152 0.9123
C17_2 C 0.5225(5) 0.30554(16) 0.7083(4)
N2_3 N 0.5000 0.85230(19) 0.5000
C20_3 C 0.5000 0.9686(2) 0.5000
C21_2 C 0.4752(8) 0.9377(2) 0.6169(5)
C22_2 C 0.5248(8) 0.9377(2) 0.3831(5)
H11_2 H 0.4586 0.9567 0.6977
H12_2 H 0.5414 0.9567 0.3023
C24_2 C 0.4746(7) 0.87981(18) 0.6160(4)
C25_2 C 0.5254(7) 0.87981(18) 0.3840(4)
H14_2 H 0.5433 0.8598 0.3048
H15_2 H 0.4567 0.8598 0.6952
loop_
_geom_bond_atom_site_label_1
_geom_bond_atom_site_label_2
_geom_bond_site_symmetry_1
_geom_bond_site_symmetry_2
Co8 O6 1_555 1_555
Co9 O10 1_555 1_555
O6 C19 1_555 1_555
O10 C19 1_555 1_555
C10 C13 1_555 1_555
C13 H7 1_555 1_555
C16 C10 1_555 1_555
H10 C16 1_555 1_555
C19 C10 1_555 1_555
Co9 O1 1_555 1_555
O3 Co9 1_555 1_555
N1 O3 1_555 1_555
C2 H1 1_555 1_555
C5 C6 1_555 1_555
C6 H3 1_555 1_555
C7 N1 1_555 1_555
H4 C7 1_555 1_555
Co6 O15 1_555 1_555
Co8 O9 1_555 1_555
O5 Co9 1_555 1_555
O9 C18 1_555 1_555
O11 Co9 1_555 1_555
O15 N2 1_555 1_555
O16 Co9 1_555 1_555
C9 C12 1_555 1_555
C12 H6 1_555 1_555
C15 C9 1_555 1_555
H9 C15 1_555 1_555
C18 O5 1_555 1_555
C20 C5 1_555 1_555
C22 C20 1_555 1_555
H12 C22 1_555 1_555
C25 N2 1_555 1_555
H14 C25 1_555 1_555
C6 C7 1_555 1_555
Co8 O16 1_555 1_555
C9 C18 1_555 1_555
C22 C25 1_555 1_555
O11 C17 1_555 1_555
H8 C14 1_555 1_555
C17 C8 1_555 1_555
C8 C14 1_555 1_555
O2 C4 1_555 1_555
N1_2 O3_2 1_555 1_555
C3 C1 1_555 1_555
H2 C3 1_555 1_555
C4 C1 1_555 1_555
Co8 O2 1_555 1_555
Co5 O15_2 1_555 1_555
O15_2 N2_2 1_555 1_555
N2_2 C24 1_555 1_555
C20_2 C5_2 1_555 1_555
C21 C20_2 1_555 1_555
C23 C5_2 1_555 1_555
H11 C21 1_555 1_555
H13 C23 1_555 1_555
C24 C21 1_555 1_555
C26 N1_2 1_555 1_555
H15 C24 1_555 1_555
H16 C26 1_555 1_555
O3_2 Co8 1_555 1_555
C23 C26 1_555 1_555
Co8 O4 1_555 1_555
H5 C11 1_555 1_555
Co6 O6_2 1_555 1_555
C13_2 H7_2 1_555 1_555
Co6 O9_2 1_555 1_555
O9_2 C18_2 1_555 1_555
C15_2 C9_2 1_555 1_555
H9_2 C15_2 1_555 1_555
C9_2 C18_2 1_555 1_555
Co5 O10_2 1_555 1_555
O10_2 C19_2 1_555 1_555
C16_2 C10_2 1_555 1_555
H10_2 C16_2 1_555 1_555
C19_2 C10_2 1_555 1_555
Co5 O1_2 1_555 1_555
O1_2 C4_2 1_555 1_555
O2_2 C4_2 1_555 1_555
O3_3 Co5 1_555 1_555
N1_3 O3_3 1_555 1_555
C1_2 C2_2 1_555 1_555
C2_2 H1_2 1_555 1_555
C3_2 C1_2 1_555 1_555
H2_2 C3_2 1_555 1_555
C4_2 C1_2 1_555 1_555
C5_3 C6_2 1_555 1_555
C6_2 H3_2 1_555 1_555
C7_2 N1_3 1_555 1_555
H4_2 C7_2 1_555 1_555
Co6 O2_2 1_555 1_555
O5_2 Co5 1_555 1_555
O11_2 Co5 1_555 1_555
C12_2 H6_2 1_555 1_555
C23_2 C5_3 1_555 1_555
H13_2 C23_2 1_555 1_555
C26_2 N1_3 1_555 1_555
H16_2 C26_2 1_555 1_555
O3_3 Co6 1_555 1_555
C6_2 C7_2 1_555 1_555
C23_2 C26_2 1_555 1_555
Co6 O4_2 1_555 1_555
O4_2 C17_2 1_555 1_555
O11_2 C17_2 1_555 1_555
C8_2 C11_2 1_555 1_555
H5_2 C11_2 1_555 1_555
H8_2 C14_2 1_555 1_555
C17_2 C8_2 1_555 1_555
C8_2 C14_2 1_555 1_555
O16 N2_3 1_555 1_555
N2_3 C24_2 1_555 1_555
C21_2 C20_3 1_555 1_555
C22_2 C20_3 1_555 1_555
H11_2 C21_2 1_555 1_555
H12_2 C22_2 1_555 1_555
C24_2 C21_2 1_555 1_555
C25_2 N2_3 1_555 1_555
H14_2 C25_2 1_555 1_555
H15_2 C24_2 1_555 1_555
C22_2 C25_2 1_555 1_555

#END
