
###############################################################################
#
# This file contains modified crystal structure data generated from the
# MOF subset of the Cambridge Structural Database (CSD) v543 
# hosted by the Cambridge Crystallographic Data Centre (CCDC).
#
# This work is licensed under the Creative Commons
# Attribution-NonCommercial-ShareAlike 4.0 International License.
# To view a copy of this license, visit
# http://creativecommons.org/licenses/by-nc-sa/4.0/
# or send a letter to
# Creative Commons, PO Box 1866, Mountain View, CA 94042, USA.
#
# CIF created using the CSD Python API on 29 September 2022
# The structure has been converted into the P1 space group
# The structure has a 3D framework
# The original CSD entry ADEGEY is in the monoclinic crystal system
# The framework has been calculated to contain at least 10.0% void space
# The void calculation uses a probe of radius 1.32A, grid spacing 0.4
# The framework is charged, counterions have been retained in the structure
#
###############################################################################

data_ADEGEY
_chemical_formula_moiety         '(C168 H72 Cd8 Cl8 O48 16-)n'
_symmetry_cell_setting           triclinic
_symmetry_space_group_name_H-M   'P 1'
_symmetry_Int_Tables_number      1
_space_group_name_Hall           'P 1'
loop_
_symmetry_equiv_pos_site_id
_symmetry_equiv_pos_as_xyz
1 x,y,z
_cell_length_a                   22.4759(9)
_cell_length_b                   14.1031(6)
_cell_length_c                   21.9032(13)
_cell_angle_alpha                90
_cell_angle_beta                 108.752(5)
_cell_angle_gamma                90
_cell_volume                     6574.34
loop_
_atom_site_label
_atom_site_type_symbol
_atom_site_fract_x
_atom_site_fract_y
_atom_site_fract_z
C18 C 0.0105(3) 0.0081(4) 0.1384(3)
C1 C 0.1936(2) 0.7949(3) 0.1236(3)
Cd1 Cd 0.310211(14) 0.77450(2) 0.207632(18)
Cl1 Cl 0.34821(7) 0.78737(12) 0.32683(8)
O1 O 0.20480(14) 0.8091(2) 0.18228(18)
C2 C 0.1268(2) 0.8073(4) 0.0801(2)
Cd2 Cd 0.800033(15) 0.28936(3) 0.17499(2)
Cl2 Cl 0.84589(13) 0.42847(19) 0.1208(2)
O2 O 0.23470(15) 0.7707(3) 0.09931(17)
C3 C 0.1035(2) 0.7619(4) 0.0219(3)
H1 H 0.1294 0.7227 0.0074
C5 C 0.0008(2) 0.8339(4) 0.0036(3)
O7 O 0.36089(14) 0.6487(2) 0.18195(17)
O8 O 0.27819(15) 0.5953(2) 0.20560(19)
O9 O 0.71558(15) 0.3853(3) 0.17355(18)
O10 O 0.68857(15) 0.2486(3) 0.12410(18)
H8 H 0.0521 0.9997 0.1637
C20 C 0.0255(2) 0.8846(4) 0.0611(3)
C21 C 0.0882(2) 0.8685(4) 0.1001(2)
H9 H 0.1039 0.8991 0.1397
C22 C 0.3270(2) 0.5826(3) 0.1895(2)
C23 C 0.3468(2) 0.4823(3) 0.1816(2)
C24 C 0.4037(2) 0.4673(3) 0.1719(2)
H10 H 0.4274 0.5193 0.1676
C25 C 0.42673(19) 0.3759(3) 0.1685(2)
C26 C 0.4893(2) 0.3621(3) 0.1614(2)
C27 C 0.5285(2) 0.4396(3) 0.1619(3)
H11 H 0.5145 0.5005 0.1663
C28 C 0.5877(2) 0.4275(4) 0.1560(3)
H12 H 0.6130 0.4798 0.1564
C29 C 0.6088(2) 0.3374(4) 0.1497(3)
C30 C 0.6754(2) 0.3228(4) 0.1480(3)
C31 C 0.5703(2) 0.2593(3) 0.1480(2)
H13 H 0.5840 0.1990 0.1415
C32 C 0.5114(2) 0.2704(3) 0.1559(2)
C33 C 0.4737(2) 0.1884(3) 0.1624(2)
C34 C 0.4943(2) 0.0948(3) 0.1591(2)
H14 H 0.5322 0.0852 0.1515
C35 C 0.4609(2) 0.0180(3) 0.1668(2)
C36 C 0.4032(2) 0.0305(3) 0.1777(2)
C38 C 0.3814(2) 0.1206(3) 0.1812(2)
H16 H 0.3435 0.1287 0.1891
C39 C 0.4154(2) 0.2016(3) 0.1729(2)
C40 C 0.3913(2) 0.2972(3) 0.1754(2)
C41 C 0.3323(2) 0.3136(3) 0.1835(2)
H17 H 0.3075 0.2620 0.1863
C42 C 0.3105(2) 0.4041(3) 0.1873(2)
H18 H 0.2719 0.4132 0.1937
O13 O 0.89606(19) 0.2055(3) 0.1893(2)
O14 O 0.81411(16) 0.1600(3) 0.11166(19)
O15 O 0.78497(17) 0.1862(3) 0.25552(19)
O16 O 0.84978(19) 0.3067(3) 0.2919(2)
O17 O 0.38852(15) 0.8638(2) 0.18654(18)
O18 O 0.31313(15) 0.9596(2) 0.19414(18)
H15 H 0.4762 0.9572 0.1648
C37 C 0.3650(2) 0.9463(3) 0.1880(2)
C14 C 0.8860(2) 0.0324(4) 0.0643(3)
H6 H 0.8441 0.0409 0.0398
C15 C 0.9107(2) 0.0831(4) 0.1204(3)
C16 C 0.8715(3) 0.1540(4) 0.1420(3)
C17 C 0.9745(2) 0.0727(5) 0.1572(3)
H7 H 0.9919 0.1095 0.1938
C6 C 0.9359(2) 0.1504(4) 0.4623(2)
C7 C 0.9092(2) 0.1993(4) 0.4043(3)
H3 H 0.9324 0.2464 0.3926
C8 C 0.8500(2) 0.1794(5) 0.3646(3)
C9 C 0.8261(3) 0.2284(5) 0.2997(3)
C10 C 0.8149(2) 0.1101(5) 0.3826(3)
H4 H 0.7749 0.0952 0.3551
C11 C 0.8379(2) 0.0646(4) 0.4387(3)
H5 H 0.8127 0.0196 0.4496
C12 C 0.8980(2) 0.0815(4) 0.4821(3)
C13 C 0.9229(2) 0.0315(4) 0.5435(3)
C19 C 0.9863(2) 0.0459(4) 0.5818(3)
C4 C 0.0418(2) 0.7742(4) 0.9852(3)
H2 H 0.0266 0.7416 0.9464
C13_2 C 0.9229(2) 0.9685(4) 0.0435(3)
C19_2 C 0.9863(2) 0.9541(4) 0.0818(3)
O5 O 0.78497(17) 0.8138(3) 0.75552(19)
C6_2 C 0.9359(2) 0.8496(4) 0.9623(2)
O6 O 0.84978(19) 0.6933(3) 0.7919(2)
C7_2 C 0.9092(2) 0.8007(4) 0.9043(3)
H3_2 H 0.9324 0.7536 0.8926
C8_2 C 0.8500(2) 0.8206(5) 0.8646(3)
C9_2 C 0.8261(3) 0.7716(5) 0.7997(3)
C10_2 C 0.8149(2) 0.8899(5) 0.8826(3)
H4_2 H 0.7749 0.9048 0.8551
C11_2 C 0.8379(2) 0.9354(4) 0.9387(3)
H5_2 H 0.8127 0.9804 0.9496
C12_2 C 0.8980(2) 0.9185(4) 0.9821(3)
Cd5 Cd 0.800033(15) 0.71064(3) 0.67499(2)
O11 O 0.38852(15) 0.1362(2) 0.68654(18)
O12 O 0.31313(15) 0.0404(2) 0.69414(18)
H15_2 H 0.4762 0.0428 0.6648
C37_2 C 0.3650(2) 0.0537(3) 0.6880(2)
Cd3 Cd 0.310211(14) 0.22550(2) 0.707632(18)
C1_2 C 0.1936(2) 0.2051(3) 0.6236(3)
Cl1_2 Cl 0.34821(7) 0.21263(12) 0.82683(8)
O1_2 O 0.20480(14) 0.1909(2) 0.68228(18)
C2_2 C 0.1268(2) 0.1927(4) 0.5801(2)
Cl2_2 Cl 0.84589(13) 0.57153(19) 0.6208(2)
O2_2 O 0.23470(15) 0.2293(3) 0.59931(17)
C3_2 C 0.1035(2) 0.2381(4) 0.5219(3)
H1_2 H 0.1294 0.2773 0.5074
C4_2 C 0.0418(2) 0.2258(4) 0.4852(3)
H2_2 H 0.0266 0.2584 0.4464
C5_2 C 0.0008(2) 0.1661(4) 0.5036(3)
O7_2 O 0.36089(14) 0.3513(2) 0.68195(17)
O8_2 O 0.27819(15) 0.4047(2) 0.70560(19)
O9_2 O 0.71558(15) 0.6147(3) 0.67355(18)
O10_2 O 0.68857(15) 0.7514(3) 0.62410(18)
H8_2 H 0.0521 0.0003 0.6637
C20_2 C 0.0255(2) 0.1154(4) 0.5611(3)
C21_2 C 0.0882(2) 0.1315(4) 0.6001(2)
H9_2 H 0.1039 0.1009 0.6397
C22_2 C 0.3270(2) 0.4174(3) 0.6895(2)
C23_2 C 0.3468(2) 0.5177(3) 0.6816(2)
C24_2 C 0.4037(2) 0.5327(3) 0.6719(2)
H10_2 H 0.4274 0.4807 0.6676
C25_2 C 0.42673(19) 0.6241(3) 0.6685(2)
C26_2 C 0.4893(2) 0.6379(3) 0.6614(2)
C27_2 C 0.5285(2) 0.5604(3) 0.6619(3)
H11_2 H 0.5145 0.4995 0.6663
C28_2 C 0.5877(2) 0.5725(4) 0.6560(3)
H12_2 H 0.6130 0.5202 0.6564
C29_2 C 0.6088(2) 0.6626(4) 0.6497(3)
C30_2 C 0.6754(2) 0.6772(4) 0.6480(3)
C31_2 C 0.5703(2) 0.7407(3) 0.6480(2)
H13_2 H 0.5840 0.8010 0.6415
C32_2 C 0.5114(2) 0.7296(3) 0.6559(2)
C33_2 C 0.4737(2) 0.8116(3) 0.6624(2)
C34_2 C 0.4943(2) 0.9052(3) 0.6591(2)
H14_2 H 0.5322 0.9148 0.6515
C35_2 C 0.4609(2) 0.9820(3) 0.6668(2)
C36_2 C 0.4032(2) 0.9695(3) 0.6777(2)
C38_2 C 0.3814(2) 0.8794(3) 0.6812(2)
H16_2 H 0.3435 0.8713 0.6891
C39_2 C 0.4154(2) 0.7984(3) 0.6729(2)
C40_2 C 0.3913(2) 0.7028(3) 0.6754(2)
C41_2 C 0.3323(2) 0.6864(3) 0.6835(2)
H17_2 H 0.3075 0.7380 0.6863
C42_2 C 0.3105(2) 0.5959(3) 0.6873(2)
H18_2 H 0.2719 0.5868 0.6937
O13_2 O 0.89606(19) 0.7945(3) 0.6893(2)
O14_2 O 0.81411(16) 0.8400(3) 0.61166(19)
C14_2 C 0.8860(2) 0.9676(4) 0.5643(3)
H6_2 H 0.8441 0.9591 0.5398
C15_2 C 0.9107(2) 0.9169(4) 0.6204(3)
C16_2 C 0.8715(3) 0.8460(4) 0.6420(3)
C17_2 C 0.9745(2) 0.9273(5) 0.6572(3)
H7_2 H 0.9919 0.8905 0.6938
O3 O 0.10394(19) 0.2055(3) 0.3107(2)
O4 O 0.18589(16) 0.1600(3) 0.38834(19)
C14_3 C 0.1140(2) 0.0324(4) 0.4357(3)
H6_3 H 0.1559 0.0409 0.4602
C15_3 C 0.0893(2) 0.0831(4) 0.3796(3)
C16_3 C 0.1285(3) 0.1540(4) 0.3580(3)
C17_3 C 0.0255(2) 0.0727(5) 0.3428(3)
H7_3 H 0.0081 0.1095 0.3062
Cd4 Cd 0.199967(15) 0.28936(3) 0.32501(2)
C1_3 C 0.8064(2) 0.7949(3) 0.3764(3)
Cd1_2 Cd 0.689789(14) 0.77450(2) 0.292368(18)
Cl1_3 Cl 0.65179(7) 0.78737(12) 0.17317(8)
O1_3 O 0.79520(14) 0.8091(2) 0.31772(18)
C2_3 C 0.8732(2) 0.8073(4) 0.4199(2)
Cl2_3 Cl 0.15411(13) 0.42847(19) 0.3792(2)
O2_3 O 0.76530(15) 0.7707(3) 0.40069(17)
C3_3 C 0.8965(2) 0.7619(4) 0.4781(3)
H1_3 H 0.8706 0.7227 0.4926
C4_3 C 0.9582(2) 0.7742(4) 0.5148(3)
H2_3 H 0.9734 0.7416 0.5536
C5_3 C 0.9992(2) 0.8339(4) 0.4964(3)
O7_3 O 0.63911(14) 0.6487(2) 0.31805(17)
O8_3 O 0.72181(15) 0.5953(2) 0.29440(19)
O9_3 O 0.28442(15) 0.3853(3) 0.32645(18)
O10_3 O 0.31143(15) 0.2486(3) 0.37590(18)
H8_3 H 0.9479 0.9997 0.3363
C20_3 C 0.9745(2) 0.8846(4) 0.4389(3)
C21_3 C 0.9118(2) 0.8685(4) 0.3999(2)
H9_3 H 0.8961 0.8991 0.3603
C22_3 C 0.6730(2) 0.5826(3) 0.3105(2)
C23_3 C 0.6532(2) 0.4823(3) 0.3184(2)
C24_3 C 0.5963(2) 0.4673(3) 0.3281(2)
H10_3 H 0.5726 0.5193 0.3324
C25_3 C 0.57327(19) 0.3759(3) 0.3315(2)
C26_3 C 0.5107(2) 0.3621(3) 0.3386(2)
C27_3 C 0.4715(2) 0.4396(3) 0.3381(3)
H11_3 H 0.4855 0.5005 0.3337
C28_3 C 0.4123(2) 0.4275(4) 0.3440(3)
H12_3 H 0.3870 0.4798 0.3436
C29_3 C 0.3912(2) 0.3374(4) 0.3503(3)
C30_3 C 0.3246(2) 0.3228(4) 0.3520(3)
C31_3 C 0.4297(2) 0.2593(3) 0.3520(2)
H13_3 H 0.4160 0.1990 0.3585
C32_3 C 0.4886(2) 0.2704(3) 0.3441(2)
C33_3 C 0.5263(2) 0.1884(3) 0.3376(2)
C34_3 C 0.5057(2) 0.0948(3) 0.3409(2)
H14_3 H 0.4678 0.0852 0.3485
C35_3 C 0.5391(2) 0.0180(3) 0.3332(2)
C36_3 C 0.5968(2) 0.0305(3) 0.3223(2)
C38_3 C 0.6186(2) 0.1206(3) 0.3188(2)
H16_3 H 0.6565 0.1287 0.3109
C39_3 C 0.5846(2) 0.2016(3) 0.3271(2)
C40_3 C 0.6087(2) 0.2972(3) 0.3246(2)
C41_3 C 0.6677(2) 0.3136(3) 0.3165(2)
H17_3 H 0.6925 0.2620 0.3137
C42_3 C 0.6895(2) 0.4041(3) 0.3127(2)
H18_3 H 0.7281 0.4132 0.3063
O15_2 O 0.21503(17) 0.1862(3) 0.24448(19)
O16_2 O 0.15022(19) 0.3067(3) 0.2081(2)
O17_2 O 0.61148(15) 0.8638(2) 0.31346(18)
O18_2 O 0.68687(15) 0.9596(2) 0.30586(18)
H15_3 H 0.5238 0.9572 0.3352
C37_3 C 0.6350(2) 0.9463(3) 0.3120(2)
C6_3 C 0.0641(2) 0.1504(4) 0.0377(2)
C7_3 C 0.0908(2) 0.1993(4) 0.0957(3)
H3_3 H 0.0676 0.2464 0.1074
C8_3 C 0.1500(2) 0.1794(5) 0.1354(3)
C9_3 C 0.1739(3) 0.2284(5) 0.2003(3)
C10_3 C 0.1851(2) 0.1101(5) 0.1174(3)
H4_3 H 0.2251 0.0952 0.1449
C11_3 C 0.1621(2) 0.0646(4) 0.0613(3)
H5_3 H 0.1873 0.0196 0.0504
C12_3 C 0.1020(2) 0.0815(4) 0.0179(3)
O5_2 O 0.21503(17) 0.8138(3) 0.74448(19)
C6_4 C 0.0641(2) 0.8496(4) 0.5377(2)
O6_2 O 0.15022(19) 0.6933(3) 0.7081(2)
C7_4 C 0.0908(2) 0.8007(4) 0.5957(3)
H3_4 H 0.0676 0.7536 0.6074
C8_4 C 0.1500(2) 0.8206(5) 0.6354(3)
C9_4 C 0.1739(3) 0.7716(5) 0.7003(3)
C10_4 C 0.1851(2) 0.8899(5) 0.6174(3)
H4_4 H 0.2251 0.9048 0.6449
C11_4 C 0.1621(2) 0.9354(4) 0.5613(3)
H5_4 H 0.1873 0.9804 0.5504
C12_4 C 0.1020(2) 0.9185(4) 0.5179(3)
C13_3 C 0.0771(2) 0.9685(4) 0.4565(3)
C19_3 C 0.0137(2) 0.9541(4) 0.4182(3)
Cd5_2 Cd 0.199967(15) 0.71064(3) 0.82501(2)
O3_2 O 0.10394(19) 0.7945(3) 0.8107(2)
O4_2 O 0.18589(16) 0.8400(3) 0.88834(19)
C14_4 C 0.1140(2) 0.9676(4) 0.9357(3)
H6_4 H 0.1559 0.9591 0.9602
C15_4 C 0.0893(2) 0.9169(4) 0.8796(3)
C16_4 C 0.1285(3) 0.8460(4) 0.8580(3)
C17_4 C 0.0255(2) 0.9273(5) 0.8428(3)
H7_4 H 0.0081 0.8905 0.8062
O11_2 O 0.61148(15) 0.1362(2) 0.81346(18)
O12_2 O 0.68687(15) 0.0404(2) 0.80586(18)
H15_4 H 0.5238 0.0428 0.8352
C37_4 C 0.6350(2) 0.0537(3) 0.8120(2)
Cd3_2 Cd 0.689789(14) 0.22550(2) 0.792368(18)
C1_4 C 0.8064(2) 0.2051(3) 0.8764(3)
Cl1_4 Cl 0.65179(7) 0.21263(12) 0.67317(8)
O1_4 O 0.79520(14) 0.1909(2) 0.81772(18)
C2_4 C 0.8732(2) 0.1927(4) 0.9199(2)
Cl2_4 Cl 0.15411(13) 0.57153(19) 0.8792(2)
O2_4 O 0.76530(15) 0.2293(3) 0.90069(17)
C3_4 C 0.8965(2) 0.2381(4) 0.9781(3)
H1_4 H 0.8706 0.2773 0.9926
C5_4 C 0.9992(2) 0.1661(4) 0.9964(3)
O7_4 O 0.63911(14) 0.3513(2) 0.81805(17)
O8_4 O 0.72181(15) 0.4047(2) 0.79440(19)
O9_4 O 0.28442(15) 0.6147(3) 0.82645(18)
O10_4 O 0.31143(15) 0.7514(3) 0.87590(18)
H8_4 H 0.9479 0.0003 0.8363
C20_4 C 0.9745(2) 0.1154(4) 0.9389(3)
C21_4 C 0.9118(2) 0.1315(4) 0.8999(2)
H9_4 H 0.8961 0.1009 0.8603
C22_4 C 0.6730(2) 0.4174(3) 0.8105(2)
C23_4 C 0.6532(2) 0.5177(3) 0.8184(2)
C24_4 C 0.5963(2) 0.5327(3) 0.8281(2)
H10_4 H 0.5726 0.4807 0.8324
C25_4 C 0.57327(19) 0.6241(3) 0.8315(2)
C26_4 C 0.5107(2) 0.6379(3) 0.8386(2)
C27_4 C 0.4715(2) 0.5604(3) 0.8381(3)
H11_4 H 0.4855 0.4995 0.8337
C28_4 C 0.4123(2) 0.5725(4) 0.8440(3)
H12_4 H 0.3870 0.5202 0.8436
C29_4 C 0.3912(2) 0.6626(4) 0.8503(3)
C30_4 C 0.3246(2) 0.6772(4) 0.8520(3)
C31_4 C 0.4297(2) 0.7407(3) 0.8520(2)
H13_4 H 0.4160 0.8010 0.8585
C32_4 C 0.4886(2) 0.7296(3) 0.8441(2)
C33_4 C 0.5263(2) 0.8116(3) 0.8376(2)
C34_4 C 0.5057(2) 0.9052(3) 0.8409(2)
H14_4 H 0.4678 0.9148 0.8485
C35_4 C 0.5391(2) 0.9820(3) 0.8332(2)
C36_4 C 0.5968(2) 0.9695(3) 0.8223(2)
C38_4 C 0.6186(2) 0.8794(3) 0.8188(2)
H16_4 H 0.6565 0.8713 0.8109
C39_4 C 0.5846(2) 0.7984(3) 0.8271(2)
C40_4 C 0.6087(2) 0.7028(3) 0.8246(2)
C41_4 C 0.6677(2) 0.6864(3) 0.8165(2)
H17_4 H 0.6925 0.7380 0.8137
C42_4 C 0.6895(2) 0.5959(3) 0.8127(2)
H18_4 H 0.7281 0.5868 0.8063
C18_2 C 0.9895(3) 0.0081(4) 0.3616(3)
C13_4 C 0.0771(2) 0.0315(4) 0.9565(3)
C19_4 C 0.0137(2) 0.0459(4) 0.9182(3)
C4_4 C 0.9582(2) 0.2258(4) 0.0148(3)
H2_4 H 0.9734 0.2584 0.0536
C18_3 C 0.9895(3) 0.9919(4) 0.8616(3)
C18_4 C 0.0105(3) 0.9919(4) 0.6384(3)
loop_
_geom_bond_atom_site_label_1
_geom_bond_atom_site_label_2
_geom_bond_site_symmetry_1
_geom_bond_site_symmetry_2
C1 O1 1_555 1_555
Cd1 Cl1 1_555 1_555
O1 Cd1 1_555 1_555
C2 C1 1_555 1_555
Cd2 Cl2 1_555 1_555
O2 C1 1_555 1_555
C3 C2 1_555 1_555
H1 C3 1_555 1_555
O7 Cd1 1_555 1_555
O8 Cd1 1_555 1_555
O9 Cd2 1_555 1_555
O10 Cd2 1_555 1_555
C20 C5 1_555 1_555
C21 C2 1_555 1_555
H9 C21 1_555 1_555
C22 O7 1_555 1_555
C23 C22 1_555 1_555
C24 C23 1_555 1_555
H10 C24 1_555 1_555
C25 C24 1_555 1_555
C26 C25 1_555 1_555
C27 C26 1_555 1_555
H11 C27 1_555 1_555
C28 C27 1_555 1_555
H12 C28 1_555 1_555
C29 C28 1_555 1_555
C30 O9 1_555 1_555
C31 C29 1_555 1_555
H13 C31 1_555 1_555
C32 C26 1_555 1_555
C33 C32 1_555 1_555
C34 C33 1_555 1_555
H14 C34 1_555 1_555
C35 C34 1_555 1_555
C36 C35 1_555 1_555
C38 C36 1_555 1_555
H16 C38 1_555 1_555
C39 C33 1_555 1_555
C40 C25 1_555 1_555
C41 C40 1_555 1_555
H17 C41 1_555 1_555
C42 C23 1_555 1_555
H18 C42 1_555 1_555
O13 Cd2 1_555 1_555
O14 Cd2 1_555 1_555
O15 Cd2 1_555 1_555
O16 Cd2 1_555 1_555
O17 Cd1 1_555 1_555
O18 Cd1 1_555 1_555
Cd1 O2 1_555 1_555
O8 C22 1_555 1_555
O10 C30 1_555 1_555
C20 C21 1_555 1_555
C29 C30 1_555 1_555
C31 C32 1_555 1_555
C38 C39 1_555 1_555
C39 C40 1_555 1_555
C41 C42 1_555 1_555
O17 C37 1_555 1_555
O18 C37 1_555 1_555
O13 C16 1_555 1_555
O14 C16 1_555 1_555
H6 C14 1_555 1_555
C15 C14 1_555 1_555
C16 C15 1_555 1_555
C17 C15 1_555 1_555
H7 C17 1_555 1_555
O15 C9 1_555 1_555
O16 C9 1_555 1_555
C7 C6 1_555 1_555
H3 C7 1_555 1_555
C8 C7 1_555 1_555
C9 C8 1_555 1_555
C10 C8 1_555 1_555
H4 C10 1_555 1_555
C11 C10 1_555 1_555
H5 C11 1_555 1_555
C12 C6 1_555 1_555
C13 C12 1_555 1_555
C19 C13 1_555 1_555
C11 C12 1_555 1_555
H2 C4 1_555 1_555
C19_2 C13_2 1_555 1_555
O5 C9_2 1_555 1_555
O6 C9_2 1_555 1_555
C7_2 C6_2 1_555 1_555
H3_2 C7_2 1_555 1_555
C8_2 C7_2 1_555 1_555
C9_2 C8_2 1_555 1_555
C10_2 C8_2 1_555 1_555
H4_2 C10_2 1_555 1_555
C11_2 C10_2 1_555 1_555
H5_2 C11_2 1_555 1_555
C12_2 C6_2 1_555 1_555
Cd5 O5 1_555 1_555
O6 Cd5 1_555 1_555
C11_2 C12_2 1_555 1_555
O11 C37_2 1_555 1_555
O12 C37_2 1_555 1_555
Cd3 O11 1_555 1_555
O12 Cd3 1_555 1_555
C1_2 O1_2 1_555 1_555
Cd3 Cl1_2 1_555 1_555
O1_2 Cd3 1_555 1_555
C2_2 C1_2 1_555 1_555
Cd5 Cl2_2 1_555 1_555
O2_2 C1_2 1_555 1_555
C3_2 C2_2 1_555 1_555
H1_2 C3_2 1_555 1_555
C4_2 C3_2 1_555 1_555
H2_2 C4_2 1_555 1_555
C5_2 C4_2 1_555 1_555
O7_2 Cd3 1_555 1_555
O8_2 Cd3 1_555 1_555
O9_2 Cd5 1_555 1_555
O10_2 Cd5 1_555 1_555
C20_2 C5_2 1_555 1_555
C21_2 C2_2 1_555 1_555
H9_2 C21_2 1_555 1_555
C22_2 O7_2 1_555 1_555
C23_2 C22_2 1_555 1_555
C24_2 C23_2 1_555 1_555
H10_2 C24_2 1_555 1_555
C25_2 C24_2 1_555 1_555
C26_2 C25_2 1_555 1_555
C27_2 C26_2 1_555 1_555
H11_2 C27_2 1_555 1_555
C28_2 C27_2 1_555 1_555
H12_2 C28_2 1_555 1_555
C29_2 C28_2 1_555 1_555
C30_2 O9_2 1_555 1_555
C31_2 C29_2 1_555 1_555
H13_2 C31_2 1_555 1_555
C32_2 C26_2 1_555 1_555
C33_2 C32_2 1_555 1_555
C34_2 C33_2 1_555 1_555
H14_2 C34_2 1_555 1_555
C35_2 C34_2 1_555 1_555
C36_2 C35_2 1_555 1_555
C38_2 C36_2 1_555 1_555
H16_2 C38_2 1_555 1_555
C39_2 C33_2 1_555 1_555
C40_2 C25_2 1_555 1_555
C41_2 C40_2 1_555 1_555
H17_2 C41_2 1_555 1_555
C42_2 C23_2 1_555 1_555
H18_2 C42_2 1_555 1_555
O13_2 Cd5 1_555 1_555
O14_2 Cd5 1_555 1_555
Cd3 O2_2 1_555 1_555
O8_2 C22_2 1_555 1_555
O10_2 C30_2 1_555 1_555
C20_2 C21_2 1_555 1_555
C29_2 C30_2 1_555 1_555
C31_2 C32_2 1_555 1_555
C38_2 C39_2 1_555 1_555
C39_2 C40_2 1_555 1_555
C41_2 C42_2 1_555 1_555
O13_2 C16_2 1_555 1_555
O14_2 C16_2 1_555 1_555
H6_2 C14_2 1_555 1_555
C15_2 C14_2 1_555 1_555
C16_2 C15_2 1_555 1_555
C17_2 C15_2 1_555 1_555
H7_2 C17_2 1_555 1_555
O3 C16_3 1_555 1_555
O4 C16_3 1_555 1_555
H6_3 C14_3 1_555 1_555
C15_3 C14_3 1_555 1_555
C16_3 C15_3 1_555 1_555
C17_3 C15_3 1_555 1_555
H7_3 C17_3 1_555 1_555
Cd4 O3 1_555 1_555
O4 Cd4 1_555 1_555
C1_3 O1_3 1_555 1_555
Cd1_2 Cl1_3 1_555 1_555
O1_3 Cd1_2 1_555 1_555
C2_3 C1_3 1_555 1_555
Cd4 Cl2_3 1_555 1_555
O2_3 C1_3 1_555 1_555
C3_3 C2_3 1_555 1_555
H1_3 C3_3 1_555 1_555
C4_3 C3_3 1_555 1_555
H2_3 C4_3 1_555 1_555
C5_3 C4_3 1_555 1_555
O7_3 Cd1_2 1_555 1_555
O8_3 Cd1_2 1_555 1_555
O9_3 Cd4 1_555 1_555
O10_3 Cd4 1_555 1_555
C20_3 C5_3 1_555 1_555
C21_3 C2_3 1_555 1_555
H9_3 C21_3 1_555 1_555
C22_3 O7_3 1_555 1_555
C23_3 C22_3 1_555 1_555
C24_3 C23_3 1_555 1_555
H10_3 C24_3 1_555 1_555
C25_3 C24_3 1_555 1_555
C26_3 C25_3 1_555 1_555
C27_3 C26_3 1_555 1_555
H11_3 C27_3 1_555 1_555
C28_3 C27_3 1_555 1_555
H12_3 C28_3 1_555 1_555
C29_3 C28_3 1_555 1_555
C30_3 O9_3 1_555 1_555
C31_3 C29_3 1_555 1_555
H13_3 C31_3 1_555 1_555
C32_3 C26_3 1_555 1_555
C33_3 C32_3 1_555 1_555
C34_3 C33_3 1_555 1_555
H14_3 C34_3 1_555 1_555
C35_3 C34_3 1_555 1_555
C36_3 C35_3 1_555 1_555
C38_3 C36_3 1_555 1_555
H16_3 C38_3 1_555 1_555
C39_3 C33_3 1_555 1_555
C40_3 C25_3 1_555 1_555
C41_3 C40_3 1_555 1_555
H17_3 C41_3 1_555 1_555
C42_3 C23_3 1_555 1_555
H18_3 C42_3 1_555 1_555
O15_2 Cd4 1_555 1_555
O16_2 Cd4 1_555 1_555
O17_2 Cd1_2 1_555 1_555
O18_2 Cd1_2 1_555 1_555
Cd1_2 O2_3 1_555 1_555
O8_3 C22_3 1_555 1_555
O10_3 C30_3 1_555 1_555
C20_3 C21_3 1_555 1_555
C29_3 C30_3 1_555 1_555
C31_3 C32_3 1_555 1_555
C38_3 C39_3 1_555 1_555
C39_3 C40_3 1_555 1_555
C41_3 C42_3 1_555 1_555
O17_2 C37_3 1_555 1_555
O18_2 C37_3 1_555 1_555
O15_2 C9_3 1_555 1_555
O16_2 C9_3 1_555 1_555
C7_3 C6_3 1_555 1_555
H3_3 C7_3 1_555 1_555
C8_3 C7_3 1_555 1_555
C9_3 C8_3 1_555 1_555
C10_3 C8_3 1_555 1_555
H4_3 C10_3 1_555 1_555
C11_3 C10_3 1_555 1_555
H5_3 C11_3 1_555 1_555
C12_3 C6_3 1_555 1_555
C11_3 C12_3 1_555 1_555
O5_2 C9_4 1_555 1_555
O6_2 C9_4 1_555 1_555
C7_4 C6_4 1_555 1_555
H3_4 C7_4 1_555 1_555
C8_4 C7_4 1_555 1_555
C9_4 C8_4 1_555 1_555
C10_4 C8_4 1_555 1_555
H4_4 C10_4 1_555 1_555
C11_4 C10_4 1_555 1_555
H5_4 C11_4 1_555 1_555
C12_4 C6_4 1_555 1_555
C13_3 C12_4 1_555 1_555
C19_3 C13_3 1_555 1_555
Cd5_2 O5_2 1_555 1_555
O6_2 Cd5_2 1_555 1_555
C11_4 C12_4 1_555 1_555
O3_2 C16_4 1_555 1_555
O4_2 C16_4 1_555 1_555
H6_4 C14_4 1_555 1_555
C15_4 C14_4 1_555 1_555
C16_4 C15_4 1_555 1_555
C17_4 C15_4 1_555 1_555
H7_4 C17_4 1_555 1_555
Cd5_2 O3_2 1_555 1_555
O4_2 Cd5_2 1_555 1_555
O11_2 C37_4 1_555 1_555
O12_2 C37_4 1_555 1_555
Cd3_2 O11_2 1_555 1_555
O12_2 Cd3_2 1_555 1_555
C1_4 O1_4 1_555 1_555
Cd3_2 Cl1_4 1_555 1_555
O1_4 Cd3_2 1_555 1_555
C2_4 C1_4 1_555 1_555
Cd5_2 Cl2_4 1_555 1_555
O2_4 C1_4 1_555 1_555
C3_4 C2_4 1_555 1_555
H1_4 C3_4 1_555 1_555
O7_4 Cd3_2 1_555 1_555
O8_4 Cd3_2 1_555 1_555
O9_4 Cd5_2 1_555 1_555
O10_4 Cd5_2 1_555 1_555
C20_4 C5_4 1_555 1_555
C21_4 C2_4 1_555 1_555
H9_4 C21_4 1_555 1_555
C22_4 O7_4 1_555 1_555
C23_4 C22_4 1_555 1_555
C24_4 C23_4 1_555 1_555
H10_4 C24_4 1_555 1_555
C25_4 C24_4 1_555 1_555
C26_4 C25_4 1_555 1_555
C27_4 C26_4 1_555 1_555
H11_4 C27_4 1_555 1_555
C28_4 C27_4 1_555 1_555
H12_4 C28_4 1_555 1_555
C29_4 C28_4 1_555 1_555
C30_4 O9_4 1_555 1_555
C31_4 C29_4 1_555 1_555
H13_4 C31_4 1_555 1_555
C32_4 C26_4 1_555 1_555
C33_4 C32_4 1_555 1_555
C34_4 C33_4 1_555 1_555
H14_4 C34_4 1_555 1_555
C35_4 C34_4 1_555 1_555
C36_4 C35_4 1_555 1_555
C38_4 C36_4 1_555 1_555
H16_4 C38_4 1_555 1_555
C39_4 C33_4 1_555 1_555
C40_4 C25_4 1_555 1_555
C41_4 C40_4 1_555 1_555
H17_4 C41_4 1_555 1_555
C42_4 C23_4 1_555 1_555
H18_4 C42_4 1_555 1_555
Cd3_2 O2_4 1_555 1_555
O8_4 C22_4 1_555 1_555
O10_4 C30_4 1_555 1_555
C20_4 C21_4 1_555 1_555
C29_4 C30_4 1_555 1_555
C31_4 C32_4 1_555 1_555
C38_4 C39_4 1_555 1_555
C39_4 C40_4 1_555 1_555
C41_4 C42_4 1_555 1_555
C19_4 C13_4 1_555 1_555
H2_4 C4_4 1_555 1_555

#END
