
###############################################################################
#
# This file contains modified crystal structure data generated from the
# MOF subset of the Cambridge Structural Database (CSD) v543 
# hosted by the Cambridge Crystallographic Data Centre (CCDC).
#
# This work is licensed under the Creative Commons
# Attribution-NonCommercial-ShareAlike 4.0 International License.
# To view a copy of this license, visit
# http://creativecommons.org/licenses/by-nc-sa/4.0/
# or send a letter to
# Creative Commons, PO Box 1866, Mountain View, CA 94042, USA.
#
# CIF created using the CSD Python API on 29 September 2022
# The structure has been converted into the P1 space group
# The structure has a 3D framework
# The original CSD entry ADILOR is in the orthorhombic crystal system
# The original CSD entry ADILOR is in a Sohncke space group
# The framework has been calculated to contain at least 10.0% void space
# The void calculation uses a probe of radius 1.32A, grid spacing 0.4
#
###############################################################################

data_ADILOR
_chemical_formula_moiety         '(C168 H128 Cu20 I16 N28 O62 Pr5)n'
_symmetry_cell_setting           triclinic
_symmetry_space_group_name_H-M   'P 1'
_symmetry_Int_Tables_number      1
_space_group_name_Hall           'P 1'
loop_
_symmetry_equiv_pos_site_id
_symmetry_equiv_pos_as_xyz
1 x,y,z
_cell_length_a                   9.3153(18)
_cell_length_b                   21.323(4)
_cell_length_c                   30.484(6)
_cell_angle_alpha                90
_cell_angle_beta                 90
_cell_angle_gamma                90
_cell_volume                     6055.04
loop_
_atom_site_label
_atom_site_type_symbol
_atom_site_fract_x
_atom_site_fract_y
_atom_site_fract_z
O3 O 0.1884(9) 0.1364(4) 0.4472(3)
O4 O 0.4056(8) 0.1129(4) 0.4217(3)
N2 N 0.0913(11) 0.1066(5) 0.2875(4)
N3 N 0.0699(12) 0.0416(5) 0.1805(4)
C7 C 0.2753(14) 0.1231(5) 0.4164(4)
C8 C 0.2152(12) 0.1196(5) 0.3701(4)
C9 C 0.2934(13) 0.0963(5) 0.3358(4)
H9 H 0.3892 0.0852 0.3393
C10 C 0.2243(15) 0.0897(6) 0.2951(4)
H10 H 0.2762 0.0723 0.2721
C11 C 0.0180(14) 0.1308(6) 0.3216(4)
C12 C 0.0745(12) 0.1380(6) 0.3626(4)
H12 H 0.0196 0.1549 0.3852
C17 C 0.1963(16) 0.0561(7) 0.1644(4)
H15 H 0.2464 0.0896 0.1767
C18 C 0.2577(16) 0.0239(6) 0.1301(4)
H16 H 0.3482 0.0354 0.1201
Pr4 Pr 0.52541(7) 0.10235(3) 0.49516(2)
Pr9 Pr 0.00065(7) 0.58724(3) 0.00758(2)
O5 O 0.3806(8) 0.9495(4) 0.0624(3)
O6 O 0.1684(8) 0.9062(4) 0.0497(3)
H2 H 0.1741 0.8011 0.0151
C13 C 0.2549(15) 0.9425(5) 0.0710(4)
C14 C 0.1873(14) 0.9752(6) 0.1106(4)
C15 C 0.0583(13) 0.9590(6) 0.1276(4)
H13 H 0.0070 0.9255 0.1158
C16 C 0.0040(15) 0.9926(6) 0.1624(4)
O15 O 0.1150(7) 0.7927(3) 0.9960(3)
H1 H 0.0807 0.7719 0.9760
Pr6 Pr 0.50065(7) 0.91276(3) 0.99242(2)
O20 O 0.0944(8) 0.8871(4) 0.9217(3)
O23 O 0.0932(9) 0.9978(4) 0.9771(3)
Cu1 Cu 0.70914(18) 0.29615(7) 0.24480(6)
Cu2 Cu 0.46562(19) 0.37248(8) 0.23607(5)
Cu3 Cu 0.73498(19) 0.25167(7) 0.16071(5)
Cu4 Cu 0.7464(3) 0.17447(7) 0.22166(6)
Cu5 Cu 0.9859(2) 0.08487(9) 0.23221(5)
I1 I 0.74399(10) 0.41535(4) 0.24301(3)
I2 I 0.48306(9) 0.24433(4) 0.20544(3)
I3 I 0.97231(10) 0.24264(4) 0.21198(3)
I4 I 0.70535(10) 0.06467(4) 0.24046(4)
O1 O 0.6534(9) 0.1888(4) 0.4607(3)
O2 O 0.8942(8) 0.1799(4) 0.4510(3)
O10 O 0.6402(8) 0.0011(3) 0.0171(3)
O11 O 0.8304(10) 0.5081(4) 0.0248(3)
O12 O 0.5932(9) 0.5022(4) 0.0229(3)
O13 O 0.2972(9) 0.5603(4) 0.0566(3)
O14 O 0.0746(9) 0.5398(4) 0.0781(3)
N1 N 0.7178(11) 0.2654(4) 0.3086(3)
N5 N 0.7432(14) 0.1725(4) 0.1230(3)
N6 N 0.7267(12) 0.3257(4) 0.1218(3)
N7 N 0.3785(11) 0.4221(5) 0.1874(3)
C1 C 0.7682(14) 0.1934(5) 0.4383(4)
C2 C 0.7543(15) 0.2197(5) 0.3932(4)
C3 C 0.8404(13) 0.2647(6) 0.3770(4)
H5 H 0.9140 0.2807 0.3943
C4 C 0.8208(14) 0.2879(6) 0.3342(4)
H6 H 0.8807 0.3195 0.3238
C5 C 0.6282(14) 0.2223(6) 0.3241(5)
H7 H 0.5548 0.2069 0.3065
C6 C 0.6440(13) 0.2001(6) 0.3666(4)
H8 H 0.5782 0.1711 0.3774
H11 H 0.9235 0.1433 0.3170
C25 C 0.7526(15) 0.0126(5) 0.0384(4)
C26 C 0.7513(14) 0.0690(5) 0.0678(4)
C27 C 0.6217(13) 0.0956(6) 0.0801(5)
H21 H 0.5354 0.0789 0.0702
C28 C 0.6228(16) 0.1472(7) 0.1073(5)
H22 H 0.5355 0.1653 0.1151
C29 C 0.8644(15) 0.1461(6) 0.1113(5)
H23 H 0.9493 0.1624 0.1226
C30 C 0.8734(13) 0.0956(6) 0.0832(5)
H24 H 0.9625 0.0799 0.0750
C31 C 0.7117(14) 0.4830(5) 0.0342(4)
C32 C 0.7175(12) 0.4267(5) 0.0641(4)
C33 C 0.6130(13) 0.3827(6) 0.0648(4)
H25 H 0.5357 0.3860 0.0457
C34 C 0.8306(13) 0.4189(6) 0.0929(4)
H26 H 0.9071 0.4469 0.0930
C35 C 0.8281(15) 0.3703(6) 0.1208(5)
H27 H 0.9025 0.3673 0.1410
C36 C 0.6199(15) 0.3335(6) 0.0935(4)
H28 H 0.5462 0.3041 0.0931
C37 C 0.2055(15) 0.5346(5) 0.0831(4)
C38 C 0.2678(15) 0.4963(5) 0.1200(4)
C39 C 0.4129(14) 0.4886(6) 0.1242(5)
H29 H 0.4756 0.5087 0.1050
C40 C 0.4647(14) 0.4509(6) 0.1571(4)
H30 H 0.5633 0.4445 0.1589
C41 C 0.1794(14) 0.4699(6) 0.1497(4)
H31 H 0.0806 0.4760 0.1485
C42 C 0.2407(16) 0.4333(6) 0.1821(4)
H32 H 0.1785 0.4148 0.2022
Pr5 Pr 0.47459(7) 0.60235(3) 0.00484(2)
Pr7 Pr 0.99935(7) 0.08724(3) 0.49242(2)
N8 N 0.3832(11) 0.3614(5) 0.2966(3)
O7 O 0.8957(9) 0.8375(4) 0.0647(3)
O8 O 0.6896(9) 0.8730(4) 0.0398(3)
O9 O 0.8675(9) 0.9822(4) 0.0375(3)
O16 O 0.4072(8) 0.8187(4) 0.0361(3)
H3 H 0.3230 0.8180 0.0282
H4 H 0.4550 0.7865 0.0384
N4 N 0.6168(11) 0.8614(5) 0.2034(3)
H14 H 0.9160 0.9803 0.1740
C19 C 0.7685(14) 0.8541(5) 0.0701(4)
C20 C 0.7131(14) 0.8536(5) 0.1168(4)
C21 C 0.6123(14) 0.8973(7) 0.1284(5)
H17 H 0.5741 0.9250 0.1079
C22 C 0.5687(14) 0.8986(6) 0.1726(5)
H18 H 0.5002 0.9282 0.1806
C23 C 0.7114(14) 0.8192(6) 0.1903(4)
H19 H 0.7442 0.7906 0.2110
C24 C 0.7649(15) 0.8145(6) 0.1485(4)
H20 H 0.8353 0.7851 0.1418
Cu6 Cu 0.53438(19) 0.87248(8) 0.26393(5)
Pr1 Pr 0.97459(7) 0.89765(3) 0.99516(2)
O17 O 0.8466(9) 0.8112(4) 0.9607(3)
O18 O 0.6058(8) 0.8201(4) 0.9510(3)
O19 O 0.3116(9) 0.8636(4) 0.9472(3)
O22 O 0.3304(10) 0.9919(4) 0.9752(3)
O24 O 0.7972(9) 0.9397(4) 0.9434(3)
O25 O 0.5746(9) 0.9602(4) 0.9219(3)
O16_2 O 0.0928(8) 0.1813(4) 0.5361(3)
H3_2 H 0.1770 0.1820 0.5282
H4_2 H 0.0450 0.2135 0.5384
O21 O 0.1194(8) 0.0505(4) 0.5624(3)
O22_2 O 0.1696(10) 0.0081(4) 0.4752(3)
Cu2_2 Cu 0.03438(19) 0.62752(8) 0.73607(5)
I2_2 I 0.01694(9) 0.75567(4) 0.70544(3)
O13_2 O 0.2028(9) 0.4397(4) 0.5566(3)
O14_2 O 0.4254(9) 0.4602(4) 0.5781(3)
N7_2 N 0.1215(11) 0.5779(5) 0.6874(3)
C37_2 C 0.2945(15) 0.4654(5) 0.5831(4)
C38_2 C 0.2322(15) 0.5037(5) 0.6200(4)
C39_2 C 0.0871(14) 0.5114(6) 0.6242(5)
H29_2 H 0.0244 0.4913 0.6050
C40_2 C 0.0353(14) 0.5491(6) 0.6571(4)
C41_2 C 0.3206(14) 0.5301(6) 0.6497(4)
H31_2 H 0.4194 0.5240 0.6485
C42_2 C 0.2593(16) 0.5667(6) 0.6821(4)
H32_2 H 0.3215 0.5852 0.7022
Pr5_2 Pr 0.02541(7) 0.39765(3) 0.50484(2)
Pr8 Pr 0.49935(7) 0.41276(3) 0.50758(2)
N8_2 N 0.1168(11) 0.6386(5) 0.7966(3)
O6_2 O 0.3316(8) 0.0938(4) 0.5497(3)
O7_2 O 0.6043(9) 0.1625(4) 0.5647(3)
O8_2 O 0.8104(9) 0.1270(4) 0.5398(3)
O9_2 O 0.6325(9) 0.0178(4) 0.5375(3)
O15_2 O 0.3850(7) 0.2073(3) 0.4960(3)
H1_2 H 0.4193 0.2281 0.4760
H2_2 H 0.3259 0.1989 0.5151
N4_2 N 0.8832(11) 0.1386(5) 0.7034(3)
C13_2 C 0.2451(15) 0.0575(5) 0.5710(4)
C14_2 C 0.3127(14) 0.0248(6) 0.6106(4)
C15_2 C 0.4417(13) 0.0410(6) 0.6276(4)
H13_2 H 0.4930 0.0745 0.6158
C16_2 C 0.4960(15) 0.0074(6) 0.6624(4)
H14_2 H 0.5840 0.0197 0.6740
C19_2 C 0.7315(14) 0.1459(5) 0.5701(4)
C20_2 C 0.7869(14) 0.1464(5) 0.6168(4)
C21_2 C 0.8877(14) 0.1027(7) 0.6284(5)
H17_2 H 0.9259 0.0750 0.6079
C22_2 C 0.9313(14) 0.1014(6) 0.6726(5)
H18_2 H 0.9998 0.0718 0.6806
C23_2 C 0.7886(14) 0.1808(6) 0.6903(4)
H19_2 H 0.7558 0.2094 0.7110
C24_2 C 0.7351(15) 0.1855(6) 0.6485(4)
H20_2 H 0.6647 0.2149 0.6418
Cu6_2 Cu 0.96562(19) 0.12752(8) 0.76393(5)
O23_2 O 0.4068(9) 0.0022(4) 0.4771(3)
O24_2 O 0.7028(9) 0.0603(4) 0.4434(3)
O25_2 O 0.9254(9) 0.0398(4) 0.4219(3)
Cu1_2 Cu 0.79086(18) 0.70385(7) 0.74480(6)
Cu3_2 Cu 0.76502(19) 0.74833(7) 0.66071(5)
Cu4_2 Cu 0.7536(3) 0.82553(7) 0.72166(6)
Cu5_2 Cu 0.5141(2) 0.91513(9) 0.73221(5)
I1_2 I 0.75601(10) 0.58465(4) 0.74301(3)
I3_2 I 0.52769(10) 0.75736(4) 0.71198(3)
I4_2 I 0.79465(10) 0.93533(4) 0.74046(4)
O10_2 O 0.8598(8) 0.9989(3) 0.5171(3)
O11_2 O 0.6696(10) 0.4919(4) 0.5248(3)
O12_2 O 0.9068(9) 0.4978(4) 0.5229(3)
N1_2 N 0.7822(11) 0.7346(4) 0.8086(3)
N2_2 N 0.4087(11) 0.8934(5) 0.7875(4)
N3_2 N 0.4301(12) 0.9584(5) 0.6805(4)
N5_2 N 0.7568(14) 0.8275(4) 0.6230(3)
N6_2 N 0.7733(12) 0.6743(4) 0.6218(3)
C1_2 C 0.7318(14) 0.8066(5) 0.9383(4)
C2_2 C 0.7457(15) 0.7803(5) 0.8932(4)
C3_2 C 0.6596(13) 0.7353(6) 0.8770(4)
H5_2 H 0.5860 0.7193 0.8943
C4_2 C 0.6792(14) 0.7121(6) 0.8342(4)
H6_2 H 0.6193 0.6805 0.8238
C5_2 C 0.8718(14) 0.7777(6) 0.8241(5)
H7_2 H 0.9452 0.7931 0.8065
C6_2 C 0.8560(13) 0.7999(6) 0.8666(4)
H8_2 H 0.9218 0.8289 0.8774
C7_2 C 0.2247(14) 0.8769(5) 0.9164(4)
C8_2 C 0.2848(12) 0.8804(5) 0.8701(4)
C9_2 C 0.2066(13) 0.9037(5) 0.8358(4)
H9_2 H 0.1108 0.9148 0.8393
C10_2 C 0.2757(15) 0.9103(6) 0.7951(4)
H10_2 H 0.2238 0.9277 0.7721
C11_2 C 0.4820(14) 0.8692(6) 0.8216(4)
H11_2 H 0.5765 0.8567 0.8170
C12_2 C 0.4255(12) 0.8620(6) 0.8626(4)
H12_2 H 0.4804 0.8451 0.8852
C17_2 C 0.3037(16) 0.9439(7) 0.6644(4)
H15_2 H 0.2536 0.9104 0.6767
C18_2 C 0.2423(16) 0.9761(6) 0.6301(4)
H16_2 H 0.1518 0.9646 0.6201
C25_2 C 0.7474(15) 0.9874(5) 0.5384(4)
C26_2 C 0.7487(14) 0.9310(5) 0.5678(4)
C27_2 C 0.8783(13) 0.9044(6) 0.5801(5)
H21_2 H 0.9646 0.9211 0.5702
C28_2 C 0.8772(16) 0.8528(7) 0.6073(5)
H22_2 H 0.9645 0.8347 0.6151
C29_2 C 0.6356(15) 0.8539(6) 0.6113(5)
H23_2 H 0.5507 0.8376 0.6226
C30_2 C 0.6266(13) 0.9044(6) 0.5832(5)
H24_2 H 0.5375 0.9201 0.5750
C31_2 C 0.7883(14) 0.5170(5) 0.5342(4)
C32_2 C 0.7825(12) 0.5733(5) 0.5641(4)
C33_2 C 0.8870(13) 0.6173(6) 0.5648(4)
H25_2 H 0.9643 0.6140 0.5457
C34_2 C 0.6694(13) 0.5811(6) 0.5929(4)
H26_2 H 0.5929 0.5531 0.5930
C35_2 C 0.6719(15) 0.6297(6) 0.6208(5)
H27_2 H 0.5975 0.6327 0.6410
C36_2 C 0.8801(15) 0.6665(6) 0.5935(4)
H28_2 H 0.9538 0.6959 0.5931
H30_2 H 0.9367 0.5555 0.6589
C37_3 C 0.7945(15) 0.0346(5) 0.4169(4)
H29_3 H 0.5244 0.0087 0.3950
Cu1_3 Cu 0.29086(18) 0.79615(7) 0.25520(6)
Cu3_3 Cu 0.26502(19) 0.75167(7) 0.33929(5)
Cu4_3 Cu 0.2536(3) 0.67447(7) 0.27834(6)
Cu5_3 Cu 0.0141(2) 0.58487(9) 0.26779(5)
I1_3 I 0.25601(10) 0.91535(4) 0.25699(3)
I2_3 I 0.51694(9) 0.74433(4) 0.29456(3)
I3_3 I 0.02769(10) 0.74264(4) 0.28802(3)
I4_3 I 0.29465(10) 0.56467(4) 0.25954(4)
O1_2 O 0.3466(9) 0.6888(4) 0.0393(3)
O2_2 O 0.1058(8) 0.6799(4) 0.0490(3)
O7_3 O 0.1043(9) 0.3375(4) 0.4353(3)
O8_3 O 0.3104(9) 0.3730(4) 0.4602(3)
O9_3 O 0.1325(9) 0.4822(4) 0.4625(3)
O10_3 O 0.3598(8) 0.5011(3) 0.4829(3)
O16_3 O 0.5928(8) 0.3187(4) 0.4639(3)
H3_3 H 0.6770 0.3180 0.4718
H4_3 H 0.5450 0.2865 0.4616
N1_3 N 0.2822(11) 0.7654(4) 0.1914(3)
N5_3 N 0.2568(14) 0.6725(4) 0.3770(3)
N6_3 N 0.2733(12) 0.8257(4) 0.3782(3)
N7_3 N 0.6215(11) 0.9221(5) 0.3126(3)
C1_3 C 0.2318(14) 0.6934(5) 0.0617(4)
C2_3 C 0.2457(15) 0.7197(5) 0.1068(4)
C3_3 C 0.1596(13) 0.7647(6) 0.1230(4)
H5_3 H 0.0860 0.7807 0.1057
C4_3 C 0.1792(14) 0.7879(6) 0.1658(4)
H6_3 H 0.1193 0.8195 0.1762
C5_3 C 0.3718(14) 0.7223(6) 0.1759(5)
H7_3 H 0.4452 0.7069 0.1935
C6_3 C 0.3560(13) 0.7001(6) 0.1334(4)
H8_3 H 0.4218 0.6711 0.1226
H11_3 H 0.0765 0.6433 0.1830
H14_3 H 0.0840 0.4803 0.3260
C19_3 C 0.2315(14) 0.3541(5) 0.4299(4)
C20_3 C 0.2869(14) 0.3536(5) 0.3832(4)
C21_3 C 0.3877(14) 0.3973(7) 0.3716(5)
H17_3 H 0.4259 0.4250 0.3921
C22_3 C 0.4313(14) 0.3986(6) 0.3274(5)
H18_3 H 0.4998 0.4282 0.3194
C23_3 C 0.2886(14) 0.3192(6) 0.3097(4)
H19_3 H 0.2558 0.2906 0.2890
C24_3 C 0.2351(15) 0.3145(6) 0.3515(4)
H20_3 H 0.1647 0.2851 0.3582
C25_3 C 0.2474(15) 0.5126(5) 0.4616(4)
C26_3 C 0.2487(14) 0.5690(5) 0.4322(4)
C27_3 C 0.3783(13) 0.5956(6) 0.4199(5)
H21_3 H 0.4646 0.5789 0.4298
C28_3 C 0.3772(16) 0.6472(7) 0.3927(5)
H22_3 H 0.4645 0.6653 0.3849
C29_3 C 0.1356(15) 0.6461(6) 0.3887(5)
H23_3 H 0.0507 0.6624 0.3774
C30_3 C 0.1266(13) 0.5956(6) 0.4168(5)
H24_3 H 0.0375 0.5799 0.4250
C31_3 C 0.2883(14) 0.9830(5) 0.4658(4)
C32_3 C 0.2825(12) 0.9267(5) 0.4359(4)
C33_3 C 0.3870(13) 0.8827(6) 0.4352(4)
H25_3 H 0.4643 0.8860 0.4543
C34_3 C 0.1694(13) 0.9189(6) 0.4071(4)
H26_3 H 0.0929 0.9469 0.4070
C35_3 C 0.1719(15) 0.8703(6) 0.3792(5)
H27_3 H 0.0975 0.8673 0.3590
C36_3 C 0.3801(15) 0.8335(6) 0.4065(4)
H28_3 H 0.4538 0.8041 0.4069
C38_3 C 0.7322(15) 0.9963(5) 0.3800(4)
C39_3 C 0.5871(14) 0.9886(6) 0.3758(5)
C40_3 C 0.5353(14) 0.9509(6) 0.3429(4)
H30_3 H 0.4367 0.9445 0.3411
C41_3 C 0.8206(14) 0.9699(6) 0.3503(4)
H31_3 H 0.9194 0.9760 0.3515
C42_3 C 0.7593(16) 0.9333(6) 0.3179(4)
H32_3 H 0.8215 0.9148 0.2978
O17_2 O 0.1534(9) 0.3112(4) 0.5393(3)
O18_2 O 0.3942(8) 0.3201(4) 0.5490(3)
O19_2 O 0.6884(9) 0.3636(4) 0.5528(3)
O21_2 O 0.6194(8) 0.4495(4) 0.4376(3)
O3_2 O 0.8116(9) 0.6364(4) 0.0528(3)
O4_2 O 0.5944(8) 0.6129(4) 0.0783(3)
O6_3 O 0.8316(8) 0.4062(4) 0.4503(3)
O15_3 O 0.8850(7) 0.2927(3) 0.5040(3)
H1_3 H 0.9193 0.2719 0.5240
H2_3 H 0.8259 0.3011 0.4849
N2_3 N 0.9087(11) 0.6066(5) 0.2125(4)
N3_3 N 0.9301(12) 0.5416(5) 0.3195(4)
C7_3 C 0.7247(14) 0.6231(5) 0.0836(4)
C8_3 C 0.7848(12) 0.6196(5) 0.1299(4)
C9_3 C 0.7066(13) 0.5963(5) 0.1642(4)
H9_3 H 0.6108 0.5852 0.1607
C10_3 C 0.7757(15) 0.5897(6) 0.2049(4)
H10_3 H 0.7238 0.5723 0.2279
C11_3 C 0.9820(14) 0.6308(6) 0.1784(4)
C12_3 C 0.9255(12) 0.6380(6) 0.1374(4)
H12_3 H 0.9804 0.6549 0.1148
C13_3 C 0.7451(15) 0.4425(5) 0.4290(4)
C14_3 C 0.8127(14) 0.4752(6) 0.3894(4)
C15_3 C 0.9417(13) 0.4590(6) 0.3724(4)
H13_3 H 0.9930 0.4255 0.3842
C16_3 C 0.9960(15) 0.4926(6) 0.3376(4)
C17_3 C 0.8037(16) 0.5561(7) 0.3356(4)
H15_3 H 0.7536 0.5896 0.3233
C18_3 C 0.7423(16) 0.5239(6) 0.3699(4)
H16_3 H 0.6518 0.5354 0.3799
O20_2 O 0.9056(8) 0.3871(4) 0.5783(3)
O15_4 O 0.6150(7) 0.7073(3) 0.0040(3)
H1_4 H 0.5807 0.7281 0.0240
Cu1_4 Cu 0.20914(18) 0.20385(7) 0.75520(6)
Cu3_4 Cu 0.23498(19) 0.24833(7) 0.83929(5)
Cu4_4 Cu 0.2464(3) 0.32553(7) 0.77834(6)
Cu5_4 Cu 0.4859(2) 0.41513(9) 0.76779(5)
I1_4 I 0.24399(10) 0.08465(4) 0.75699(3)
I3_4 I 0.47231(10) 0.25736(4) 0.78802(3)
I4_4 I 0.20535(10) 0.43533(4) 0.75954(4)
O5_2 O 0.8806(8) 0.5505(4) 0.9376(3)
O6_4 O 0.6684(8) 0.5938(4) 0.9503(3)
O7_4 O 0.3957(9) 0.6625(4) 0.9353(3)
O8_4 O 0.1896(9) 0.6270(4) 0.9602(3)
O9_4 O 0.3675(9) 0.5178(4) 0.9625(3)
O10_4 O 0.1402(8) 0.4989(3) 0.9829(3)
H2_4 H 0.6741 0.6989 0.9849
N1_4 N 0.2178(11) 0.2346(4) 0.6914(3)
N2_4 N 0.5913(11) 0.3934(5) 0.7125(4)
N3_4 N 0.5699(12) 0.4584(5) 0.8195(4)
N5_4 N 0.2432(14) 0.3275(4) 0.8770(3)
N6_4 N 0.2267(12) 0.1743(4) 0.8782(3)
C1_4 C 0.2682(14) 0.3066(5) 0.5617(4)
C2_4 C 0.2543(15) 0.2803(5) 0.6068(4)
C3_4 C 0.3404(13) 0.2353(6) 0.6230(4)
H5_4 H 0.4140 0.2193 0.6057
C4_4 C 0.3208(14) 0.2121(6) 0.6658(4)
H6_4 H 0.3807 0.1805 0.6762
C5_4 C 0.1282(14) 0.2777(6) 0.6759(5)
H7_4 H 0.0548 0.2931 0.6935
C6_4 C 0.1440(13) 0.2999(6) 0.6334(4)
H8_4 H 0.0782 0.3289 0.6226
C7_4 C 0.7753(14) 0.3769(5) 0.5836(4)
C8_4 C 0.7152(12) 0.3804(5) 0.6299(4)
C9_4 C 0.7934(13) 0.4037(5) 0.6642(4)
H9_4 H 0.8892 0.4148 0.6607
C10_4 C 0.7243(15) 0.4103(6) 0.7049(4)
H10_4 H 0.7762 0.4277 0.7279
C11_4 C 0.5180(14) 0.3692(6) 0.6784(4)
H11_4 H 0.4235 0.3567 0.6830
C12_4 C 0.5745(12) 0.3620(6) 0.6374(4)
H12_4 H 0.5196 0.3451 0.6148
C13_4 C 0.7549(15) 0.5575(5) 0.9290(4)
C14_4 C 0.6873(14) 0.5248(6) 0.8894(4)
C15_4 C 0.5583(13) 0.5410(6) 0.8724(4)
H13_4 H 0.5070 0.5745 0.8842
C16_4 C 0.5040(15) 0.5074(6) 0.8376(4)
H14_4 H 0.4160 0.5197 0.8260
C17_4 C 0.6963(16) 0.4439(7) 0.8356(4)
H15_4 H 0.7464 0.4104 0.8233
C18_4 C 0.7577(16) 0.4761(6) 0.8699(4)
H16_4 H 0.8482 0.4646 0.8799
C19_4 C 0.2685(14) 0.6459(5) 0.9299(4)
C20_4 C 0.2131(14) 0.6464(5) 0.8832(4)
C21_4 C 0.1123(14) 0.6027(7) 0.8716(5)
H17_4 H 0.0741 0.5750 0.8921
C22_4 C 0.0687(14) 0.6014(6) 0.8274(5)
H18_4 H 0.0002 0.5718 0.8194
C23_4 C 0.2114(14) 0.6808(6) 0.8097(4)
H19_4 H 0.2442 0.7094 0.7890
C24_4 C 0.2649(15) 0.6855(6) 0.8515(4)
H20_4 H 0.3353 0.7149 0.8582
C25_4 C 0.2526(15) 0.4874(5) 0.9616(4)
C26_4 C 0.2513(14) 0.4310(5) 0.9322(4)
C27_4 C 0.1217(13) 0.4044(6) 0.9199(5)
H21_4 H 0.0354 0.4211 0.9298
C28_4 C 0.1228(16) 0.3528(7) 0.8927(5)
H22_4 H 0.0355 0.3347 0.8849
C29_4 C 0.3644(15) 0.3539(6) 0.8887(5)
H23_4 H 0.4493 0.3376 0.8774
C30_4 C 0.3734(13) 0.4044(6) 0.9168(5)
H24_4 H 0.4625 0.4201 0.9250
C31_4 C 0.2117(14) 0.0170(5) 0.9658(4)
C32_4 C 0.2175(12) 0.0733(5) 0.9359(4)
C33_4 C 0.1130(13) 0.1173(6) 0.9352(4)
H25_4 H 0.0357 0.1140 0.9543
C34_4 C 0.3306(13) 0.0811(6) 0.9071(4)
H26_4 H 0.4071 0.0531 0.9070
C35_4 C 0.3281(15) 0.1297(6) 0.8792(5)
H27_4 H 0.4025 0.1327 0.8590
C36_4 C 0.1199(15) 0.1665(6) 0.9065(4)
H28_4 H 0.0462 0.1959 0.9069
H30_4 H 0.0633 0.0555 0.8411
I2_4 I 0.98306(9) 0.25567(4) 0.79456(3)
O16_4 O 0.9072(8) 0.6813(4) 0.9639(3)
H3_4 H 0.8230 0.6820 0.9718
H4_4 H 0.9550 0.7135 0.9616
N7_4 N 0.8785(11) 0.0779(5) 0.8126(3)
C38_4 C 0.7678(15) 0.0037(5) 0.8800(4)
C39_4 C 0.9129(14) 0.0114(6) 0.8758(5)
C40_4 C 0.9647(14) 0.0491(6) 0.8429(4)
C41_4 C 0.6794(14) 0.0301(6) 0.8503(4)
H31_4 H 0.5806 0.0240 0.8515
C42_4 C 0.7407(16) 0.0667(6) 0.8179(4)
H32_4 H 0.6785 0.0852 0.7978
C37_4 C 0.7055(15) 0.9654(5) 0.9169(4)
H29_4 H 0.9756 0.9913 0.8950
loop_
_geom_bond_atom_site_label_1
_geom_bond_atom_site_label_2
_geom_bond_site_symmetry_1
_geom_bond_site_symmetry_2
O3 C7 1_555 1_555
O4 C7 1_555 1_555
C7 C8 1_555 1_555
C8 C9 1_555 1_555
C9 H9 1_555 1_555
C10 N2 1_555 1_555
H10 C10 1_555 1_555
C11 N2 1_555 1_555
C12 C8 1_555 1_555
H12 C12 1_555 1_555
C17 N3 1_555 1_555
H15 C17 1_555 1_555
H16 C18 1_555 1_555
Pr4 O4 1_555 1_555
C9 C10 1_555 1_555
C11 C12 1_555 1_555
C17 C18 1_555 1_555
O5 C13 1_555 1_555
O6 C13 1_555 1_555
C13 C14 1_555 1_555
C14 C15 1_555 1_555
C15 H13 1_555 1_555
C15 C16 1_555 1_555
H1 O15 1_555 1_555
Cu1 I1 1_555 1_555
Cu2 I1 1_555 1_555
Cu3 I2 1_555 1_555
Cu4 I2 1_555 1_555
Cu5 I4 1_555 1_555
I2 Cu1 1_555 1_555
I3 Cu1 1_555 1_555
I4 Cu4 1_555 1_555
O1 C1 1_555 1_555
O2 C1 1_555 1_555
O11 C31 1_555 1_555
O12 C31 1_555 1_555
O13 C37 1_555 1_555
O14 C37 1_555 1_555
N1 Cu1 1_555 1_555
N5 Cu3 1_555 1_555
N6 Cu3 1_555 1_555
N7 Cu2 1_555 1_555
C1 C2 1_555 1_555
C2 C3 1_555 1_555
C3 H5 1_555 1_555
C4 N1 1_555 1_555
H6 C4 1_555 1_555
C5 N1 1_555 1_555
H7 C5 1_555 1_555
C6 C2 1_555 1_555
H8 C6 1_555 1_555
C26 C25 1_555 1_555
C27 C26 1_555 1_555
H21 C27 1_555 1_555
C28 N5 1_555 1_555
H22 C28 1_555 1_555
C29 N5 1_555 1_555
H23 C29 1_555 1_555
C30 C26 1_555 1_555
H24 C30 1_555 1_555
C31 C32 1_555 1_555
C32 C33 1_555 1_555
C33 H25 1_555 1_555
C34 C32 1_555 1_555
H26 C34 1_555 1_555
C35 N6 1_555 1_555
H27 C35 1_555 1_555
C36 N6 1_555 1_555
H28 C36 1_555 1_555
C37 C38 1_555 1_555
C38 C39 1_555 1_555
C39 H29 1_555 1_555
C40 N7 1_555 1_555
H30 C40 1_555 1_555
C41 C38 1_555 1_555
H31 C41 1_555 1_555
C42 N7 1_555 1_555
H32 C42 1_555 1_555
Pr4 O1 1_555 1_555
Pr5 O12 1_555 1_555
Pr7 O2 1_555 1_555
Pr9 O14 1_555 1_555
N8 Cu2 1_555 1_555
Cu2 I2 1_555 1_555
Cu3 I3 1_555 1_555
Cu4 I3 1_555 1_555
O10 C25 1_555 1_555
O13 Pr5 1_555 1_555
C3 C4 1_555 1_555
C5 C6 1_555 1_555
C27 C28 1_555 1_555
C29 C30 1_555 1_555
C33 C36 1_555 1_555
C34 C35 1_555 1_555
C39 C40 1_555 1_555
C41 C42 1_555 1_555
O8 C19 1_555 1_555
H3 O16 1_555 1_555
H4 O16 1_555 1_555
N4 C22 1_555 1_555
C19 O7 1_555 1_555
C20 C19 1_555 1_555
C21 C20 1_555 1_555
H17 C21 1_555 1_555
C22 C21 1_555 1_555
H18 C22 1_555 1_555
C23 N4 1_555 1_555
H19 C23 1_555 1_555
C24 C20 1_555 1_555
H20 C24 1_555 1_555
Cu6 N4 1_555 1_555
C23 C24 1_555 1_555
O17 Pr1 1_555 1_555
O18 Pr6 1_555 1_555
O19 Pr6 1_555 1_555
O22 Pr6 1_555 1_555
O24 Pr1 1_555 1_555
O25 Pr6 1_555 1_555
H3_2 O16_2 1_555 1_555
H4_2 O16_2 1_555 1_555
O13_2 C37_2 1_555 1_555
O14_2 C37_2 1_555 1_555
N7_2 Cu2_2 1_555 1_555
C37_2 C38_2 1_555 1_555
C38_2 C39_2 1_555 1_555
C39_2 H29_2 1_555 1_555
C40_2 N7_2 1_555 1_555
C41_2 C38_2 1_555 1_555
H31_2 C41_2 1_555 1_555
C42_2 N7_2 1_555 1_555
H32_2 C42_2 1_555 1_555
Pr8 O14_2 1_555 1_555
N8_2 Cu2_2 1_555 1_555
Cu2_2 I2_2 1_555 1_555
O13_2 Pr5_2 1_555 1_555
C39_2 C40_2 1_555 1_555
C41_2 C42_2 1_555 1_555
Pr4 O6_2 1_555 1_555
Pr7 O8_2 1_555 1_555
O21 C13_2 1_555 1_555
O6_2 C13_2 1_555 1_555
O7_2 Pr4 1_555 1_555
O8_2 C19_2 1_555 1_555
O9_2 Pr4 1_555 1_555
O15_2 Pr4 1_555 1_555
H1_2 O15_2 1_555 1_555
H2_2 O15_2 1_555 1_555
N4_2 C22_2 1_555 1_555
C13_2 C14_2 1_555 1_555
C14_2 C15_2 1_555 1_555
C15_2 H13_2 1_555 1_555
H14_2 C16_2 1_555 1_555
C19_2 O7_2 1_555 1_555
C20_2 C19_2 1_555 1_555
C21_2 C20_2 1_555 1_555
H17_2 C21_2 1_555 1_555
C22_2 C21_2 1_555 1_555
H18_2 C22_2 1_555 1_555
C23_2 N4_2 1_555 1_555
H19_2 C23_2 1_555 1_555
C24_2 C20_2 1_555 1_555
H20_2 C24_2 1_555 1_555
Cu6_2 N4_2 1_555 1_555
O23_2 Pr4 1_555 1_555
O24_2 Pr4 1_555 1_555
O25_2 Pr7 1_555 1_555
C15_2 C16_2 1_555 1_555
C23_2 C24_2 1_555 1_555
Cu1_2 I1_2 1_555 1_555
Cu5_2 I4_2 1_555 1_555
I3_2 Cu1_2 1_555 1_555
I4_2 Cu4_2 1_555 1_555
O17 C1_2 1_555 1_555
O18 C1_2 1_555 1_555
O19 C7_2 1_555 1_555
O20 C7_2 1_555 1_555
O11_2 C31_2 1_555 1_555
O12_2 C31_2 1_555 1_555
N1_2 Cu1_2 1_555 1_555
N2_2 Cu5_2 1_555 1_555
N3_2 Cu5_2 1_555 1_555
N5_2 Cu3_2 1_555 1_555
N6_2 Cu3_2 1_555 1_555
C1_2 C2_2 1_555 1_555
C2_2 C3_2 1_555 1_555
C3_2 H5_2 1_555 1_555
C4_2 N1_2 1_555 1_555
H6_2 C4_2 1_555 1_555
C5_2 N1_2 1_555 1_555
H7_2 C5_2 1_555 1_555
C6_2 C2_2 1_555 1_555
H8_2 C6_2 1_555 1_555
C7_2 C8_2 1_555 1_555
C8_2 C9_2 1_555 1_555
C9_2 H9_2 1_555 1_555
C10_2 N2_2 1_555 1_555
H10_2 C10_2 1_555 1_555
C11_2 N2_2 1_555 1_555
H11_2 C11_2 1_555 1_555
C12_2 C8_2 1_555 1_555
H12_2 C12_2 1_555 1_555
C17_2 N3_2 1_555 1_555
H15_2 C17_2 1_555 1_555
H16_2 C18_2 1_555 1_555
C26_2 C25_2 1_555 1_555
C27_2 C26_2 1_555 1_555
H21_2 C27_2 1_555 1_555
C28_2 N5_2 1_555 1_555
H22_2 C28_2 1_555 1_555
C29_2 N5_2 1_555 1_555
H23_2 C29_2 1_555 1_555
C30_2 C26_2 1_555 1_555
H24_2 C30_2 1_555 1_555
C31_2 C32_2 1_555 1_555
C32_2 C33_2 1_555 1_555
C33_2 H25_2 1_555 1_555
C34_2 C32_2 1_555 1_555
H26_2 C34_2 1_555 1_555
C35_2 N6_2 1_555 1_555
H27_2 C35_2 1_555 1_555
C36_2 N6_2 1_555 1_555
H28_2 C36_2 1_555 1_555
Pr8 O11_2 1_555 1_555
Cu3_2 I3_2 1_555 1_555
Cu4_2 I3_2 1_555 1_555
O10_2 C25_2 1_555 1_555
C3_2 C4_2 1_555 1_555
C5_2 C6_2 1_555 1_555
C9_2 C10_2 1_555 1_555
C11_2 C12_2 1_555 1_555
C17_2 C18_2 1_555 1_555
C27_2 C28_2 1_555 1_555
C29_2 C30_2 1_555 1_555
C33_2 C36_2 1_555 1_555
C34_2 C35_2 1_555 1_555
O24_2 C37_3 1_555 1_555
O25_2 C37_3 1_555 1_555
Pr8 O8_3 1_555 1_555
Cu1_3 I1_3 1_555 1_555
Cu6 I1_3 1_555 1_555
Cu3_3 I2_3 1_555 1_555
Cu4_3 I2_3 1_555 1_555
Cu5_3 I4_3 1_555 1_555
I2_3 Cu1_3 1_555 1_555
I3_3 Cu1_3 1_555 1_555
I4_3 Cu4_3 1_555 1_555
O1_2 C1_3 1_555 1_555
O2_2 C1_3 1_555 1_555
O7_3 Pr5_2 1_555 1_555
O8_3 C19_3 1_555 1_555
O9_3 Pr5_2 1_555 1_555
O10_3 Pr8 1_555 1_555
O16_3 Pr8 1_555 1_555
H3_3 O16_3 1_555 1_555
H4_3 O16_3 1_555 1_555
N1_3 Cu1_3 1_555 1_555
N8 C22_3 1_555 1_555
N5_3 Cu3_3 1_555 1_555
N6_3 Cu3_3 1_555 1_555
N7_3 Cu6 1_555 1_555
C1_3 C2_3 1_555 1_555
C2_3 C3_3 1_555 1_555
C3_3 H5_3 1_555 1_555
C4_3 N1_3 1_555 1_555
H6_3 C4_3 1_555 1_555
C5_3 N1_3 1_555 1_555
H7_3 C5_3 1_555 1_555
C6_3 C2_3 1_555 1_555
H8_3 C6_3 1_555 1_555
C19_3 O7_3 1_555 1_555
C20_3 C19_3 1_555 1_555
C21_3 C20_3 1_555 1_555
H17_3 C21_3 1_555 1_555
C22_3 C21_3 1_555 1_555
H18_3 C22_3 1_555 1_555
C23_3 N8 1_555 1_555
H19_3 C23_3 1_555 1_555
C24_3 C20_3 1_555 1_555
H20_3 C24_3 1_555 1_555
C25_3 O9_3 1_555 1_555
C26_3 C25_3 1_555 1_555
C27_3 C26_3 1_555 1_555
H21_3 C27_3 1_555 1_555
C28_3 N5_3 1_555 1_555
H22_3 C28_3 1_555 1_555
C29_3 N5_3 1_555 1_555
H23_3 C29_3 1_555 1_555
C30_3 C26_3 1_555 1_555
H24_3 C30_3 1_555 1_555
C31_3 C32_3 1_555 1_555
C32_3 C33_3 1_555 1_555
C33_3 H25_3 1_555 1_555
C34_3 C32_3 1_555 1_555
H26_3 C34_3 1_555 1_555
C35_3 N6_3 1_555 1_555
H27_3 C35_3 1_555 1_555
C36_3 N6_3 1_555 1_555
H28_3 C36_3 1_555 1_555
C38_3 C39_3 1_555 1_555
C40_3 N7_3 1_555 1_555
H30_3 C40_3 1_555 1_555
C41_3 C38_3 1_555 1_555
H31_3 C41_3 1_555 1_555
C42_3 N7_3 1_555 1_555
H32_3 C42_3 1_555 1_555
Pr5 O1_2 1_555 1_555
Pr9 O2_2 1_555 1_555
O17_2 Pr5_2 1_555 1_555
O18_2 Pr8 1_555 1_555
O19_2 Pr8 1_555 1_555
O21_2 Pr8 1_555 1_555
Cu6 I2_3 1_555 1_555
Cu3_3 I3_3 1_555 1_555
Cu4_3 I3_3 1_555 1_555
O10_3 C25_3 1_555 1_555
C3_3 C4_3 1_555 1_555
C5_3 C6_3 1_555 1_555
C23_3 C24_3 1_555 1_555
C27_3 C28_3 1_555 1_555
C29_3 C30_3 1_555 1_555
C33_3 C36_3 1_555 1_555
C34_3 C35_3 1_555 1_555
C39_3 C40_3 1_555 1_555
C41_3 C42_3 1_555 1_555
O3_2 C7_3 1_555 1_555
O4_2 C7_3 1_555 1_555
O21_2 C13_3 1_555 1_555
O6_3 C13_3 1_555 1_555
H1_3 O15_3 1_555 1_555
H2_3 O15_3 1_555 1_555
C7_3 C8_3 1_555 1_555
C8_3 C9_3 1_555 1_555
C9_3 H9_3 1_555 1_555
C10_3 N2_3 1_555 1_555
H10_3 C10_3 1_555 1_555
C11_3 N2_3 1_555 1_555
C12_3 C8_3 1_555 1_555
H12_3 C12_3 1_555 1_555
C13_3 C14_3 1_555 1_555
C14_3 C15_3 1_555 1_555
C15_3 H13_3 1_555 1_555
C16_3 N3_3 1_555 1_555
C17_3 N3_3 1_555 1_555
H15_3 C17_3 1_555 1_555
C18_3 C14_3 1_555 1_555
H16_3 C18_3 1_555 1_555
Pr5 O4_2 1_555 1_555
C9_3 C10_3 1_555 1_555
C11_3 C12_3 1_555 1_555
C15_3 C16_3 1_555 1_555
C17_3 C18_3 1_555 1_555
O15_4 Pr5 1_555 1_555
H1_4 O15_4 1_555 1_555
Cu1_4 I1_4 1_555 1_555
Cu5_4 I4_4 1_555 1_555
I3_4 Cu1_4 1_555 1_555
I4_4 Cu4_4 1_555 1_555
O17_2 C1_4 1_555 1_555
O18_2 C1_4 1_555 1_555
O19_2 C7_4 1_555 1_555
O20_2 C7_4 1_555 1_555
O5_2 C13_4 1_555 1_555
O6_4 C13_4 1_555 1_555
O8_4 C19_4 1_555 1_555
N1_4 Cu1_4 1_555 1_555
N2_4 Cu5_4 1_555 1_555
N3_4 Cu5_4 1_555 1_555
N8_2 C22_4 1_555 1_555
N5_4 Cu3_4 1_555 1_555
N6_4 Cu3_4 1_555 1_555
C1_4 C2_4 1_555 1_555
C2_4 C3_4 1_555 1_555
C3_4 H5_4 1_555 1_555
C4_4 N1_4 1_555 1_555
H6_4 C4_4 1_555 1_555
C5_4 N1_4 1_555 1_555
H7_4 C5_4 1_555 1_555
C6_4 C2_4 1_555 1_555
H8_4 C6_4 1_555 1_555
C7_4 C8_4 1_555 1_555
C8_4 C9_4 1_555 1_555
C9_4 H9_4 1_555 1_555
C10_4 N2_4 1_555 1_555
H10_4 C10_4 1_555 1_555
C11_4 N2_4 1_555 1_555
H11_4 C11_4 1_555 1_555
C12_4 C8_4 1_555 1_555
H12_4 C12_4 1_555 1_555
C13_4 C14_4 1_555 1_555
C14_4 C15_4 1_555 1_555
C15_4 H13_4 1_555 1_555
C16_4 N3_4 1_555 1_555
H14_4 C16_4 1_555 1_555
C17_4 N3_4 1_555 1_555
H15_4 C17_4 1_555 1_555
C18_4 C14_4 1_555 1_555
H16_4 C18_4 1_555 1_555
C19_4 O7_4 1_555 1_555
C20_4 C19_4 1_555 1_555
C21_4 C20_4 1_555 1_555
H17_4 C21_4 1_555 1_555
C22_4 C21_4 1_555 1_555
H18_4 C22_4 1_555 1_555
C23_4 N8_2 1_555 1_555
H19_4 C23_4 1_555 1_555
C24_4 C20_4 1_555 1_555
H20_4 C24_4 1_555 1_555
C25_4 O9_4 1_555 1_555
C26_4 C25_4 1_555 1_555
C27_4 C26_4 1_555 1_555
H21_4 C27_4 1_555 1_555
C28_4 N5_4 1_555 1_555
H22_4 C28_4 1_555 1_555
C29_4 N5_4 1_555 1_555
H23_4 C29_4 1_555 1_555
C30_4 C26_4 1_555 1_555
H24_4 C30_4 1_555 1_555
C31_4 C32_4 1_555 1_555
C32_4 C33_4 1_555 1_555
C33_4 H25_4 1_555 1_555
C34_4 C32_4 1_555 1_555
H26_4 C34_4 1_555 1_555
C35_4 N6_4 1_555 1_555
H27_4 C35_4 1_555 1_555
C36_4 N6_4 1_555 1_555
H28_4 C36_4 1_555 1_555
Cu3_4 I3_4 1_555 1_555
Cu4_4 I3_4 1_555 1_555
O10_4 C25_4 1_555 1_555
C3_4 C4_4 1_555 1_555
C5_4 C6_4 1_555 1_555
C9_4 C10_4 1_555 1_555
C11_4 C12_4 1_555 1_555
C15_4 C16_4 1_555 1_555
C17_4 C18_4 1_555 1_555
C23_4 C24_4 1_555 1_555
C27_4 C28_4 1_555 1_555
C29_4 C30_4 1_555 1_555
C33_4 C36_4 1_555 1_555
C34_4 C35_4 1_555 1_555
H3_4 O16_4 1_555 1_555
H4_4 O16_4 1_555 1_555
N7_4 Cu6_2 1_555 1_555
C38_4 C39_4 1_555 1_555
C40_4 N7_4 1_555 1_555
C41_4 C38_4 1_555 1_555
H31_4 C41_4 1_555 1_555
C42_4 N7_4 1_555 1_555
H32_4 C42_4 1_555 1_555
Cu6_2 I2_4 1_555 1_555
C39_4 C40_4 1_555 1_555
C41_4 C42_4 1_555 1_555
O24 C37_4 1_555 1_555
O25 C37_4 1_555 1_555

#END
