
###############################################################################
#
# This file contains modified crystal structure data generated from the
# MOF subset of the Cambridge Structural Database (CSD) v543 
# hosted by the Cambridge Crystallographic Data Centre (CCDC).
#
# This work is licensed under the Creative Commons
# Attribution-NonCommercial-ShareAlike 4.0 International License.
# To view a copy of this license, visit
# http://creativecommons.org/licenses/by-nc-sa/4.0/
# or send a letter to
# Creative Commons, PO Box 1866, Mountain View, CA 94042, USA.
#
# CIF created using the CSD Python API on 29 September 2022
# The structure has been converted into the P1 space group
# The structure has a 3D framework
# The original CSD entry ADIQAH is in the monoclinic crystal system
# The framework has been calculated to contain at least 10.0% void space
# The void calculation uses a probe of radius 1.32A, grid spacing 0.4
#
###############################################################################

data_ADIQAH
_chemical_formula_moiety         '(C32 H24 Cu4 N4 O6)n'
_symmetry_cell_setting           triclinic
_symmetry_space_group_name_H-M   'P 1'
_symmetry_Int_Tables_number      1
_space_group_name_Hall           'P 1'
loop_
_symmetry_equiv_pos_site_id
_symmetry_equiv_pos_as_xyz
1 x,y,z
_cell_length_a                   8.2896(6)
_cell_length_b                   10.1177(8)
_cell_length_c                   11.5102(9)
_cell_angle_alpha                90
_cell_angle_beta                 90.944(2)
_cell_angle_gamma                90
_cell_volume                     965.249
loop_
_atom_site_label
_atom_site_type_symbol
_atom_site_fract_x
_atom_site_fract_y
_atom_site_fract_z
Cu2 Cu 0.0000 0.5000 0.0000
Cu2_2 Cu -0.0000 0.5000 1.0000
Cu2_3 Cu 1.0000 0.5000 0.0000
O4 O 0.19697(15) 0.59073(14) 0.13693(12)
Cu2_4 Cu 1.0000 0.5000 1.0000
Cu5 Cu 0.5000 0.0000 0.5000
O5 O 0.80303(15) 0.40927(14) 0.86307(12)
N2 N 0.18899(17) 0.43564(15) 0.90951(13)
C9 C 0.7706(2) 0.33560(19) 0.78051(17)
H7 H 0.856(3) 0.295(2) 0.7389(19)
H8 H 0.718(2) 0.182(2) 0.6209(18)
O7 O 0.01011(14) 0.66473(12) 0.90793(11)
O8 O 0.48989(14) 0.16473(12) 0.59207(11)
C10 C 0.6133(2) 0.29897(18) 0.73797(16)
C11 C 0.6137(2) 0.20988(18) 0.64556(17)
C12 C 0.4653(2) 0.34800(18) 0.79199(16)
C13 C 0.4577(2) 0.47297(18) 0.84296(17)
H9 H 0.546(3) 0.532(2) 0.8390(19)
C14 C 0.3203(2) 0.51277(18) 0.89974(17)
H10 H 0.315(2) 0.5963(19) 0.9350(16)
H11 H 0.321(2) 0.187(2) 0.7686(19)
C15 C 0.1935(2) 0.31618(18) 0.85830(17)
H12 H 0.098(3) 0.261(2) 0.8684(19)
C16 C 0.3254(2) 0.26988(18) 0.79934(17)
Cu5_2 Cu 0.5000 1.0000 0.5000
N1 N 0.81101(17) 0.56436(15) 0.09049(13)
C1 C 0.2294(2) 0.66440(19) 0.21949(17)
H1 H 0.144(3) 0.705(2) 0.2611(19)
H2 H 0.282(2) 0.818(2) 0.3791(18)
O2 O 0.51011(14) 0.83527(12) 0.40793(11)
C2 C 0.3867(2) 0.70103(18) 0.26203(16)
C3 C 0.3863(2) 0.79012(18) 0.35444(17)
C4 C 0.5347(2) 0.65200(18) 0.20801(16)
C5 C 0.5423(2) 0.52703(18) 0.15704(17)
H3 H 0.454(3) 0.468(2) 0.1610(19)
C6 C 0.6797(2) 0.48723(18) 0.10026(17)
H4 H 0.685(2) 0.4037(19) 0.0650(16)
H5 H 0.679(2) 0.813(2) 0.2314(19)
C7 C 0.8065(2) 0.68382(18) 0.14170(17)
H6 H 0.902(3) 0.739(2) 0.1316(19)
C8 C 0.6746(2) 0.73012(18) 0.20066(17)
O6 O 0.98989(14) 0.33527(12) 0.09207(11)
O1 O 0.30303(15) 0.09073(14) 0.36307(12)
C1_2 C 0.2706(2) 0.16440(19) 0.28051(17)
H1_2 H 0.356(3) 0.205(2) 0.2389(19)
H2_2 H 0.218(2) 0.318(2) 0.1209(18)
C2_2 C 0.1133(2) 0.20103(18) 0.23797(16)
C3_2 C 0.1137(2) 0.29012(18) 0.14556(17)
H3_2 H 0.046(3) 0.968(2) 0.3390(19)
N1_2 N 0.68899(17) 0.06436(15) 0.40951(13)
C4_2 C 0.9653(2) 0.15200(18) 0.29199(16)
C5_2 C 0.9577(2) 0.02703(18) 0.34296(17)
H5_2 H 0.821(2) 0.313(2) 0.2686(19)
C7_2 C 0.6935(2) 0.18382(18) 0.35830(17)
H6_2 H 0.598(3) 0.239(2) 0.3684(19)
C8_2 C 0.8254(2) 0.23012(18) 0.29934(17)
C14_2 C 0.1797(2) 0.01277(18) 0.60026(17)
H10_2 H 0.185(2) 0.0963(19) 0.5650(16)
C6_2 C 0.8203(2) 0.98723(18) 0.39974(17)
H4_2 H 0.815(2) 0.9037(19) 0.4350(16)
O3 O 0.69697(15) 0.90927(14) 0.63693(12)
N2_2 N 0.31101(17) 0.93564(15) 0.59049(13)
C12_2 C 0.0347(2) 0.84800(18) 0.70801(16)
C13_2 C 0.0423(2) 0.97297(18) 0.65704(17)
H11_2 H 0.179(2) 0.687(2) 0.7314(19)
C15_2 C 0.3065(2) 0.81618(18) 0.64170(17)
H12_2 H 0.402(3) 0.761(2) 0.6316(19)
C16_2 C 0.1746(2) 0.76988(18) 0.70066(17)
H9_2 H 0.954(3) 0.032(2) 0.6610(19)
C9_2 C 0.7294(2) 0.83560(19) 0.71949(17)
H7_2 H 0.644(3) 0.795(2) 0.7611(19)
H8_2 H 0.782(2) 0.682(2) 0.8791(18)
C10_2 C 0.8867(2) 0.79897(18) 0.76203(16)
C11_2 C 0.8863(2) 0.70988(18) 0.85444(17)
loop_
_geom_bond_atom_site_label_1
_geom_bond_atom_site_label_2
_geom_bond_site_symmetry_1
_geom_bond_site_symmetry_2
O4 Cu2 1_555 1_555
Cu2_4 O5 1_555 1_555
Cu5 O8 1_555 1_555
O5 C9 1_555 1_555
N2 Cu2_2 1_555 1_555
C9 H7 1_555 1_555
H8 C11 1_555 1_555
O7 Cu2_2 1_555 1_555
O8 C11 1_555 1_555
C10 C9 1_555 1_555
C11 C10 1_555 1_555
C12 C10 1_555 1_555
C13 C12 1_555 1_555
H9 C13 1_555 1_555
C14 N2 1_555 1_555
H10 C14 1_555 1_555
H11 C16 1_555 1_555
C15 N2 1_555 1_555
H12 C15 1_555 1_555
C16 C12 1_555 1_555
C13 C14 1_555 1_555
C15 C16 1_555 1_555
Cu2_3 N1 1_555 1_555
O4 C1 1_555 1_555
N1 C6 1_555 1_555
C1 H1 1_555 1_555
H2 C3 1_555 1_555
O2 C3 1_555 1_555
C2 C1 1_555 1_555
C3 C2 1_555 1_555
C4 C2 1_555 1_555
C5 C4 1_555 1_555
H3 C5 1_555 1_555
C6 C5 1_555 1_555
H4 C6 1_555 1_555
H5 C8 1_555 1_555
C7 N1 1_555 1_555
H6 C7 1_555 1_555
C8 C4 1_555 1_555
Cu5_2 O2 1_555 1_555
O6 Cu2_3 1_555 1_555
C7 C8 1_555 1_555
O1 C1_2 1_555 1_555
C1_2 H1_2 1_555 1_555
H2_2 C3_2 1_555 1_555
C2_2 C1_2 1_555 1_555
C3_2 C2_2 1_555 1_555
Cu5 O1 1_555 1_555
Cu5 N1_2 1_555 1_555
C5_2 C4_2 1_555 1_555
H5_2 C8_2 1_555 1_555
C7_2 N1_2 1_555 1_555
H6_2 C7_2 1_555 1_555
C8_2 C4_2 1_555 1_555
H10_2 C14_2 1_555 1_555
C7_2 C8_2 1_555 1_555
H4_2 C6_2 1_555 1_555
O3 Cu5_2 1_555 1_555
N2_2 Cu5_2 1_555 1_555
C13_2 C12_2 1_555 1_555
H11_2 C16_2 1_555 1_555
C15_2 N2_2 1_555 1_555
H12_2 C15_2 1_555 1_555
C16_2 C12_2 1_555 1_555
C15_2 C16_2 1_555 1_555
O3 C9_2 1_555 1_555
C9_2 H7_2 1_555 1_555
H8_2 C11_2 1_555 1_555
C10_2 C9_2 1_555 1_555
C11_2 C10_2 1_555 1_555

#END
