
###############################################################################
#
# This file contains modified crystal structure data generated from the
# MOF subset of the Cambridge Structural Database (CSD) v543 
# hosted by the Cambridge Crystallographic Data Centre (CCDC).
#
# This work is licensed under the Creative Commons
# Attribution-NonCommercial-ShareAlike 4.0 International License.
# To view a copy of this license, visit
# http://creativecommons.org/licenses/by-nc-sa/4.0/
# or send a letter to
# Creative Commons, PO Box 1866, Mountain View, CA 94042, USA.
#
# CIF created using the CSD Python API on 29 September 2022
# The structure has been converted into the P1 space group
# The structure has a 3D framework
# The original CSD entry ADIQEL is in the monoclinic crystal system
# The framework has been calculated to contain at least 10.0% void space
# The void calculation uses a probe of radius 1.32A, grid spacing 0.4
#
###############################################################################

data_ADIQEL
_chemical_formula_moiety         '(C32 H24 Co4 N4 O8)n'
_symmetry_cell_setting           triclinic
_symmetry_space_group_name_H-M   'P 1'
_symmetry_Int_Tables_number      1
_space_group_name_Hall           'P 1'
loop_
_symmetry_equiv_pos_site_id
_symmetry_equiv_pos_as_xyz
1 x,y,z
_cell_length_a                   8.2010(16)
_cell_length_b                   10.492(2)
_cell_length_c                   11.125(2)
_cell_angle_alpha                90
_cell_angle_beta                 95.28(3)
_cell_angle_gamma                90
_cell_volume                     953.188
loop_
_atom_site_label
_atom_site_type_symbol
_atom_site_fract_x
_atom_site_fract_y
_atom_site_fract_z
Co3 Co 0.0000 0.5000 0.0000
Co3_2 Co -0.0000 0.5000 1.0000
C1 C 0.3147(3) 0.5127(2) 0.1202(2)
H1 H 0.2984 0.5999 0.0996
N1 N 0.1951(2) 0.4308(2) 0.09728(18)
C2 C 0.4554(3) 0.4752(3) 0.1711(2)
H2 H 0.5420 0.5345 0.1877
C3 C 0.3514(3) 0.2632(2) 0.1793(2)
H3 H 0.3630 0.1759 0.2010
C4 C 0.2146(3) 0.3078(2) 0.1277(2)
H4 H 0.1251 0.2511 0.1109
C5 C 0.4779(3) 0.3475(2) 0.2011(2)
O1 O 0.5011(2) 0.16415(18) 0.39694(17)
O2 O 0.8093(2) 0.42430(19) 0.11698(16)
C6 C 0.6291(3) 0.3031(2) 0.2493(2)
C7 C 0.6277(3) 0.2117(2) 0.3412(2)
H5 H 0.7320 0.1779 0.3685
C8 C 0.7844(3) 0.3461(3) 0.2009(2)
H6 H 0.8809 0.3087 0.2394
Co3_3 Co 1.0000 0.5000 0.0000
Co5 Co 0.5000 0.0000 0.5000
Co3_4 Co 1.0000 0.5000 1.0000
O5 O 0.0011(2) 0.33585(18) 0.89694(17)
O8 O 0.1907(2) 0.57570(19) 0.88302(16)
Co5_2 Co 0.5000 1.0000 0.5000
O4 O 0.9989(2) 0.66415(18) 0.10306(17)
C9 C 0.6853(3) 0.4873(2) 0.8798(2)
H7 H 0.7016 0.4001 0.9004
N2 N 0.8049(2) 0.5692(2) 0.90272(18)
C10 C 0.5446(3) 0.5248(3) 0.8289(2)
H8 H 0.4580 0.4655 0.8123
C11 C 0.6486(3) 0.7368(2) 0.8207(2)
H9 H 0.6370 0.8241 0.7990
C12 C 0.7854(3) 0.6922(2) 0.8723(2)
H10 H 0.8749 0.7489 0.8891
C13 C 0.5221(3) 0.6525(2) 0.7989(2)
O3 O 0.4989(2) 0.83585(18) 0.60306(17)
C14 C 0.3709(3) 0.6969(2) 0.7507(2)
C15 C 0.3723(3) 0.7883(2) 0.6588(2)
H11 H 0.2680 0.8221 0.6315
C16 C 0.2156(3) 0.6539(3) 0.7991(2)
H12 H 0.1191 0.6913 0.7606
O6 O 0.3093(2) 0.07570(19) 0.61698(16)
C14_2 C 0.1291(3) 0.1969(2) 0.7493(2)
C15_2 C 0.1277(3) 0.2883(2) 0.8412(2)
H11_2 H 0.2320 0.3221 0.8685
C16_2 C 0.2844(3) 0.1539(3) 0.7009(2)
H12_2 H 0.3809 0.1913 0.7394
H8_2 H 0.0420 0.9655 0.6877
C1_2 C 0.1853(3) 0.0127(2) 0.3798(2)
H1_2 H 0.2016 0.0999 0.4004
N2_2 N 0.6951(2) 0.0692(2) 0.59728(18)
C10_2 C 0.9554(3) 0.0248(3) 0.6711(2)
C11_2 C 0.8514(3) 0.2368(2) 0.6793(2)
H9_2 H 0.8630 0.3241 0.7010
C12_2 C 0.7146(3) 0.1922(2) 0.6277(2)
H10_2 H 0.6251 0.2489 0.6109
C13_2 C 0.9779(3) 0.1525(2) 0.7011(2)
N1_2 N 0.3049(2) 0.9308(2) 0.40272(18)
C2_2 C 0.0446(3) 0.9752(3) 0.3289(2)
C3_2 C 0.1486(3) 0.7632(2) 0.3207(2)
H3_2 H 0.1370 0.6759 0.2990
C4_2 C 0.2854(3) 0.8078(2) 0.3723(2)
H4_2 H 0.3749 0.7511 0.3891
C5_2 C 0.0221(3) 0.8475(2) 0.2989(2)
C9_2 C 0.8147(3) 0.9873(2) 0.6202(2)
H7_2 H 0.7984 0.9001 0.5996
O7 O 0.6907(2) 0.92430(19) 0.38302(16)
H2_2 H 0.9580 0.0345 0.3123
C6_2 C 0.8709(3) 0.8031(2) 0.2507(2)
C7_2 C 0.8723(3) 0.7117(2) 0.1588(2)
H5_2 H 0.7680 0.6779 0.1315
C8_2 C 0.7156(3) 0.8461(3) 0.2991(2)
H6_2 H 0.6191 0.8087 0.2606
loop_
_geom_bond_atom_site_label_1
_geom_bond_atom_site_label_2
_geom_bond_site_symmetry_1
_geom_bond_site_symmetry_2
Co3 N1 1_555 1_555
C1 H1 1_555 1_555
N1 C1 1_555 1_555
C2 C1 1_555 1_555
H2 C2 1_555 1_555
C3 H3 1_555 1_555
C4 N1 1_555 1_555
H4 C4 1_555 1_555
C5 C2 1_555 1_555
O1 C7 1_555 1_555
O2 C8 1_555 1_555
C6 C5 1_555 1_555
C7 C6 1_555 1_555
H5 C7 1_555 1_555
C8 C6 1_555 1_555
H6 C8 1_555 1_555
Co3_3 O2 1_555 1_555
Co5 O1 1_555 1_555
C3 C4 1_555 1_555
C3 C5 1_555 1_555
O5 Co3_2 1_555 1_555
O8 Co3_2 1_555 1_555
O4 Co3_3 1_555 1_555
Co5_2 O3 1_555 1_555
C9 H7 1_555 1_555
N2 Co3_4 1_555 1_555
C10 C9 1_555 1_555
H8 C10 1_555 1_555
C11 H9 1_555 1_555
C12 N2 1_555 1_555
H10 C12 1_555 1_555
C13 C10 1_555 1_555
O3 C15 1_555 1_555
O8 C16 1_555 1_555
C14 C13 1_555 1_555
C15 C14 1_555 1_555
H11 C15 1_555 1_555
C16 C14 1_555 1_555
H12 C16 1_555 1_555
C9 N2 1_555 1_555
C11 C12 1_555 1_555
C11 C13 1_555 1_555
Co5 O6 1_555 1_555
O5 C15_2 1_555 1_555
O6 C16_2 1_555 1_555
C15_2 C14_2 1_555 1_555
H11_2 C15_2 1_555 1_555
C16_2 C14_2 1_555 1_555
H12_2 C16_2 1_555 1_555
C1_2 H1_2 1_555 1_555
N2_2 Co5 1_555 1_555
C11_2 H9_2 1_555 1_555
C12_2 N2_2 1_555 1_555
H10_2 C12_2 1_555 1_555
C13_2 C10_2 1_555 1_555
C11_2 C12_2 1_555 1_555
C11_2 C13_2 1_555 1_555
Co5_2 N1_2 1_555 1_555
C3_2 H3_2 1_555 1_555
C4_2 N1_2 1_555 1_555
H4_2 C4_2 1_555 1_555
C5_2 C2_2 1_555 1_555
C9_2 H7_2 1_555 1_555
O7 Co5_2 1_555 1_555
C3_2 C4_2 1_555 1_555
C3_2 C5_2 1_555 1_555
O4 C7_2 1_555 1_555
O7 C8_2 1_555 1_555
C7_2 C6_2 1_555 1_555
H5_2 C7_2 1_555 1_555
C8_2 C6_2 1_555 1_555
H6_2 C8_2 1_555 1_555

#END
