
###############################################################################
#
# This file contains modified crystal structure data generated from the
# MOF subset of the Cambridge Structural Database (CSD) v543 
# hosted by the Cambridge Crystallographic Data Centre (CCDC).
#
# This work is licensed under the Creative Commons
# Attribution-NonCommercial-ShareAlike 4.0 International License.
# To view a copy of this license, visit
# http://creativecommons.org/licenses/by-nc-sa/4.0/
# or send a letter to
# Creative Commons, PO Box 1866, Mountain View, CA 94042, USA.
#
# CIF created using the CSD Python API on 29 September 2022
# The structure has been converted into the P1 space group
# The structure has a 3D framework
# The original CSD entry ADOCEC is in the tetragonal crystal system
# The framework has been calculated to contain at least 10.0% void space
# The void calculation uses a probe of radius 1.32A, grid spacing 0.4
#
###############################################################################

data_ADOCEC
_chemical_formula_moiety         '(C80 H64 Br9 N16 Ni2 O82 V32 7-)n'
_symmetry_cell_setting           triclinic
_symmetry_space_group_name_H-M   'P 1'
_symmetry_Int_Tables_number      1
_space_group_name_Hall           'P 1'
loop_
_symmetry_equiv_pos_site_id
_symmetry_equiv_pos_as_xyz
1 x,y,z
_cell_length_a                   17.091(2)
_cell_length_b                   17.091(2)
_cell_length_c                   14.611(3)
_cell_angle_alpha                90
_cell_angle_beta                 90
_cell_angle_gamma                90
_cell_volume                     4267.91
loop_
_atom_site_label
_atom_site_type_symbol
_atom_site_fract_x
_atom_site_fract_y
_atom_site_fract_z
Br1 Br 0.0000 0.0000 0.0000
Br1_2 Br 0.0000 0.0000 1.0000
Br1_3 Br 0.0000 1.0000 0.0000
Br1_4 Br 0.0000 1.0000 1.0000
Br1_5 Br 1.0000 0.0000 0.0000
Br1_6 Br 1.0000 0.0000 1.0000
Br1_7 Br 1.0000 1.0000 0.0000
Br1_8 Br 1.0000 1.0000 1.0000
Br1_9 Br 0.5000 0.5000 0.5000
Ni4 Ni 0.25361(4) 0.75361(4) 0.2500
Ni5 Ni 0.74639(4) 0.24639(4) 0.2500
C12 C 0.4214(4) 0.7726(4) 0.1841(5)
H10 H 0.4311 0.7615 0.2454
C15 C 0.4842(4) 0.7758(5) 0.1259(5)
H13 H 0.5346 0.7674 0.1477
C18 C 0.4714(4) 0.7921(4) 0.0327(5)
C21 C 0.3356(4) 0.8048(4) 0.0731(5)
H16 H 0.2852 0.8185 0.0555
C24 C 0.8046(4) 0.3280(4) 0.0734(5)
H19 H 0.8184 0.2776 0.0555
C27 C 0.8117(4) 0.3881(5) 0.0114(5)
H23 H 0.6221 0.8305 0.0471
C30 C 0.7910(4) 0.4635(4) 0.0350(5)
C33 C 0.7633(4) 0.4142(4) 0.1843(5)
H25 H 0.7493 0.4239 0.2447
C36 C 0.7674(4) 0.4767(5) 0.1253(5)
H28 H 0.7548 0.5269 0.1450
C39 C 0.3943(4) 0.8068(5) 0.0079(5)
H32 H 0.8181 0.6180 0.0527
N5 N 0.3476(3) 0.7843(3) 0.1591(4)
N10 N 0.7783(3) 0.3398(3) 0.1598(4)
Ni1 Ni 0.24639(4) 0.25361(4) 0.7500
V1 V 0.37871(6) 0.38682(5) 0.62810(5)
V2 V 0.68544(6) 0.45266(6) 0.58869(9)
V3 V 0.53321(6) 0.31133(6) 0.58704(9)
V4 V 0.56627(7) 0.42894(7) 0.73017(6)
C1 C 0.0786(4) 0.2726(4) 0.6841(5)
H1 H 0.0689 0.2615 0.7454
C2 C 0.0158(4) 0.2758(5) 0.6259(5)
C3 C 0.0286(4) 0.2921(4) 0.5327(5)
C4 C 0.1644(4) 0.3048(4) 0.5731(5)
H3 H 0.2148 0.3185 0.5555
H7 H 0.0269 0.2548 0.3550
C10 C 0.1057(4) 0.3068(5) 0.5079(5)
H8 H 0.1180 0.3181 0.4473
N1 N 0.1524(3) 0.2843(3) 0.6591(4)
N2 N 0.2783(3) 0.1602(3) 0.6598(4)
O1 O 0.5000 0.5000 0.7824(3)
O2 O 0.4809(3) 0.3707(3) 0.6820(3)
O3 O 0.6044(3) 0.3868(3) 0.8177(3)
O4 O 0.6204(3) 0.3692(3) 0.6234(2)
O5 O 0.3689(3) 0.4908(2) 0.6822(3)
O6 O 0.7715(3) 0.4335(3) 0.6252(4)
O7 O 0.3135(2) 0.4405(3) 0.5389(3)
O8 O 0.4271(2) 0.3203(2) 0.5370(3)
O9 O 0.5445(3) 0.2238(3) 0.6227(4)
O10 O 0.3188(2) 0.3283(2) 0.6818(2)
Ni6 Ni 0.75361(4) 0.74639(4) 0.7500
V5 V 0.62129(6) 0.61318(5) 0.62810(5)
V6 V 0.61318(5) 0.37871(6) 0.37190(5)
V7 V 0.38682(5) 0.62129(6) 0.37190(5)
V8 V 0.31456(6) 0.54734(6) 0.58869(9)
V9 V 0.45266(6) 0.31456(6) 0.41131(9)
V10 V 0.54734(6) 0.68544(6) 0.41131(9)
V11 V 0.31133(6) 0.46679(6) 0.41296(9)
V12 V 0.68867(6) 0.53321(6) 0.41296(9)
V13 V 0.46679(6) 0.68867(6) 0.58704(9)
V14 V 0.43373(7) 0.57106(7) 0.73017(6)
V15 V 0.42894(7) 0.43373(7) 0.26983(6)
V16 V 0.57106(7) 0.56627(7) 0.26983(6)
C13 C 0.7726(4) 0.5786(4) 0.8159(5)
H11 H 0.7615 0.5689 0.7546
C16 C 0.7758(5) 0.5158(4) 0.8741(5)
H12 H 0.2674 0.0346 0.3523
H14 H 0.7674 0.4654 0.8523
C19 C 0.7921(4) 0.5286(4) 0.9673(5)
C22 C 0.8048(4) 0.6644(4) 0.9269(5)
H17 H 0.8185 0.7148 0.9445
C23 C 0.3046(4) 0.1720(4) 0.5734(5)
C25 C 0.6720(4) 0.8046(4) 0.9266(5)
H18 H 0.3184 0.2224 0.5555
H20 H 0.7224 0.8184 0.9445
C26 C 0.3117(4) 0.1119(5) 0.5114(5)
C28 C 0.6119(5) 0.8117(4) 0.9886(5)
H21 H 0.3305 0.1221 0.4529
H22 H 0.8305 0.3779 0.9529
C29 C 0.2910(4) 0.0365(4) 0.5350(5)
C31 C 0.5365(4) 0.7910(4) 0.9650(5)
C32 C 0.2633(4) 0.0858(4) 0.6843(5)
C34 C 0.5858(4) 0.7633(4) 0.8157(5)
H24 H 0.2493 0.0761 0.7447
H26 H 0.5761 0.7493 0.7553
C35 C 0.2674(4) 0.0233(5) 0.6253(5)
C37 C 0.5233(5) 0.7674(4) 0.8747(5)
H29 H 0.4731 0.7548 0.8550
C40 C 0.8068(5) 0.6057(4) 0.9921(5)
H31 H 0.3820 0.8181 0.9473
N3 N 0.2157(3) 0.3476(3) 0.8409(4)
N6 N 0.8476(3) 0.7157(3) 0.6591(4)
N7 N 0.7843(3) 0.6524(3) 0.8409(4)
N8 N 0.3398(3) 0.2217(3) 0.8402(4)
N11 N 0.7217(3) 0.8398(3) 0.6598(4)
N12 N 0.6602(3) 0.7783(3) 0.8402(4)
O11 O 0.5000 0.5000 0.2176(3)
O12 O 0.5191(3) 0.6293(3) 0.6820(3)
O13 O 0.3707(3) 0.5191(3) 0.3180(3)
O14 O 0.6293(3) 0.4809(3) 0.3180(3)
O15 O 0.3956(3) 0.6132(3) 0.8177(3)
O16 O 0.3868(3) 0.3956(3) 0.1823(3)
O17 O 0.6132(3) 0.6044(3) 0.1823(3)
O18 O 0.3796(3) 0.6308(3) 0.6234(2)
O19 O 0.3692(3) 0.3796(3) 0.3766(2)
O20 O 0.6308(3) 0.6204(3) 0.3766(2)
O21 O 0.6311(3) 0.5092(2) 0.6822(3)
O22 O 0.5092(2) 0.3689(3) 0.3178(3)
O23 O 0.4908(2) 0.6311(3) 0.3178(3)
O24 O 0.2285(3) 0.5665(3) 0.6252(4)
O25 O 0.4335(3) 0.2285(3) 0.3748(4)
O26 O 0.5665(3) 0.7715(3) 0.3748(4)
O27 O 0.6865(2) 0.5595(3) 0.5389(3)
O28 O 0.5595(3) 0.3135(2) 0.4611(3)
O29 O 0.4405(3) 0.6865(2) 0.4611(3)
O30 O 0.6797(2) 0.4271(2) 0.4630(3)
O31 O 0.3203(2) 0.5729(2) 0.4630(3)
O32 O 0.5729(2) 0.6797(2) 0.5370(3)
O33 O 0.2238(3) 0.4555(3) 0.3773(4)
O34 O 0.7762(3) 0.5445(3) 0.3773(4)
O35 O 0.4555(3) 0.7762(3) 0.6227(4)
O36 O 0.1717(2) 0.1812(2) 0.8182(2)
O37 O 0.6812(2) 0.6717(2) 0.6818(2)
O38 O 0.6717(2) 0.3188(2) 0.3182(2)
O39 O 0.3283(2) 0.6812(2) 0.3182(2)
O40 O 0.8283(2) 0.8188(2) 0.8182(2)
C11 C 0.2726(4) 0.9214(4) 0.3159(5)
H9 H 0.2615 0.9311 0.2546
C14 C 0.2758(5) 0.9842(4) 0.3741(5)
C17 C 0.2921(4) 0.9714(4) 0.4673(5)
C20 C 0.3048(4) 0.8356(4) 0.4269(5)
H15 H 0.3185 0.7852 0.4445
H27 H 0.2548 0.9731 0.6450
C38 C 0.3068(5) 0.8943(4) 0.4921(5)
H30 H 0.3181 0.8820 0.5527
N4 N 0.2843(3) 0.8476(3) 0.3409(4)
H2 H 0.9654 0.2674 0.6477
C5 C 0.8280(4) 0.3046(4) 0.4266(5)
H4 H 0.7776 0.3184 0.4445
C6 C 0.8881(5) 0.3117(4) 0.4886(5)
H5 H 0.8779 0.3305 0.5471
C7 C 0.9635(4) 0.2910(4) 0.4650(5)
C8 C 0.9142(4) 0.2633(4) 0.3157(5)
H6 H 0.9239 0.2493 0.2553
C9 C 0.9767(5) 0.2674(4) 0.3747(5)
N9 N 0.8398(3) 0.2783(3) 0.3402(4)
H2_2 H 0.0346 0.7326 0.6477
C5_2 C 0.1720(4) 0.6954(4) 0.4266(5)
H4_2 H 0.2224 0.6816 0.4445
C6_2 C 0.1119(5) 0.6883(4) 0.4886(5)
H5_2 H 0.1221 0.6695 0.5471
C7_2 C 0.0365(4) 0.7090(4) 0.4650(5)
C8_2 C 0.0858(4) 0.7367(4) 0.3157(5)
H6_2 H 0.0761 0.7507 0.2553
C9_2 C 0.0233(5) 0.7326(4) 0.3747(5)
N9_2 N 0.1602(3) 0.7217(3) 0.3402(4)
C11_2 C 0.7274(4) 0.0786(4) 0.3159(5)
H9_2 H 0.7385 0.0689 0.2546
C14_2 C 0.7242(5) 0.0158(4) 0.3741(5)
C17_2 C 0.7079(4) 0.0286(4) 0.4673(5)
C20_2 C 0.6952(4) 0.1644(4) 0.4269(5)
H15_2 H 0.6815 0.2148 0.4445
H27_2 H 0.7452 0.0269 0.6450
C38_2 C 0.6932(5) 0.1057(4) 0.4921(5)
H30_2 H 0.6819 0.1180 0.5527
N4_2 N 0.7157(3) 0.1524(3) 0.3409(4)
C12_2 C 0.5786(4) 0.2274(4) 0.1841(5)
H10_2 H 0.5689 0.2385 0.2454
C15_2 C 0.5158(4) 0.2242(5) 0.1259(5)
H13_2 H 0.4654 0.2326 0.1477
C18_2 C 0.5286(4) 0.2079(4) 0.0327(5)
C21_2 C 0.6644(4) 0.1952(4) 0.0731(5)
H16_2 H 0.7148 0.1815 0.0555
C24_2 C 0.1954(4) 0.6720(4) 0.0734(5)
H19_2 H 0.1816 0.7224 0.0555
C27_2 C 0.1883(4) 0.6119(5) 0.0114(5)
H23_2 H 0.3779 0.1695 0.0471
C30_2 C 0.2090(4) 0.5365(4) 0.0350(5)
C33_2 C 0.2367(4) 0.5858(4) 0.1843(5)
H25_2 H 0.2507 0.5761 0.2447
C36_2 C 0.2326(4) 0.5233(5) 0.1253(5)
H28_2 H 0.2452 0.4731 0.1450
C39_2 C 0.6057(4) 0.1932(5) 0.0079(5)
H32_2 H 0.1819 0.3820 0.0527
N5_2 N 0.6524(3) 0.2157(3) 0.1591(4)
N10_2 N 0.2217(3) 0.6602(3) 0.1598(4)
C1_2 C 0.9214(4) 0.7274(4) 0.6841(5)
H1_2 H 0.9311 0.7385 0.7454
C2_2 C 0.9842(4) 0.7242(5) 0.6259(5)
C3_2 C 0.9714(4) 0.7079(4) 0.5327(5)
C4_2 C 0.8356(4) 0.6952(4) 0.5731(5)
H3_2 H 0.7852 0.6815 0.5555
H7_2 H 0.9731 0.7452 0.3550
C10_2 C 0.8943(4) 0.6932(5) 0.5079(5)
H8_2 H 0.8820 0.6819 0.4473
C13_2 C 0.2274(4) 0.4214(4) 0.8159(5)
H11_2 H 0.2385 0.4311 0.7546
C16_2 C 0.2242(5) 0.4842(4) 0.8741(5)
H12_2 H 0.7326 0.9654 0.3523
H14_2 H 0.2326 0.5346 0.8523
C19_2 C 0.2079(4) 0.4714(4) 0.9673(5)
C22_2 C 0.1952(4) 0.3356(4) 0.9269(5)
H17_2 H 0.1815 0.2852 0.9445
C23_2 C 0.6954(4) 0.8280(4) 0.5734(5)
C25_2 C 0.3280(4) 0.1954(4) 0.9266(5)
H18_2 H 0.6816 0.7776 0.5555
H20_2 H 0.2776 0.1816 0.9445
C26_2 C 0.6883(4) 0.8881(5) 0.5114(5)
C28_2 C 0.3881(5) 0.1883(4) 0.9886(5)
H21_2 H 0.6695 0.8779 0.4529
H22_2 H 0.1695 0.6221 0.9529
C29_2 C 0.7090(4) 0.9635(4) 0.5350(5)
C31_2 C 0.4635(4) 0.2090(4) 0.9650(5)
C32_2 C 0.7367(4) 0.9142(4) 0.6843(5)
C34_2 C 0.4142(4) 0.2367(4) 0.8157(5)
H24_2 H 0.7507 0.9239 0.7447
H26_2 H 0.4239 0.2507 0.7553
C35_2 C 0.7326(4) 0.9767(5) 0.6253(5)
C37_2 C 0.4767(5) 0.2326(4) 0.8747(5)
H29_2 H 0.5269 0.2452 0.8550
C40_2 C 0.1932(5) 0.3943(4) 0.9921(5)
H31_2 H 0.6180 0.1819 0.9473
O36_2 O 0.1812(2) 0.8283(2) 0.1818(2)
O40_2 O 0.8188(2) 0.1717(2) 0.1818(2)
V2_2 V 0.18544(6) 0.04734(6) 0.08869(9)
V3_2 V 0.03321(6) 0.18867(6) 0.08704(9)
V4_2 V 0.06627(7) 0.07106(7) 0.23017(6)
O1_2 O -0.0000 0.0000 0.2824(3)
O3_2 O 0.1044(3) 0.1132(3) 0.3177(3)
O4_2 O 0.1204(3) 0.1308(3) 0.1234(2)
O6_2 O 0.2715(3) 0.0665(3) 0.1252(4)
O9_2 O 0.0445(3) 0.2762(3) 0.1227(4)
V6_2 V 0.11318(5) 0.12129(6) 0.87190(5)
O11_2 O -0.0000 0.0000 0.7176(3)
O14_2 O 0.1293(3) 0.0191(3) 0.8180(3)
O22_2 O 0.0092(2) 0.1311(3) 0.8178(3)
O28_2 O 0.0595(3) 0.1865(2) 0.9611(3)
O30_2 O 0.1797(2) 0.0729(2) 0.9630(3)
O1_3 O -0.0000 1.0000 0.2824(3)
V5_2 V 0.12129(6) 0.88682(5) 0.12810(5)
O12_2 O 0.0191(3) 0.8707(3) 0.1820(3)
O21_2 O 0.1311(3) 0.9908(2) 0.1822(3)
O27_2 O 0.1865(2) 0.9405(3) 0.0389(3)
O32_2 O 0.0729(2) 0.8203(2) 0.0370(3)
V10_2 V 0.04734(6) 0.81456(6) 0.91131(9)
V12_2 V 0.18867(6) 0.96679(6) 0.91296(9)
V16_2 V 0.07106(7) 0.93373(7) 0.76983(6)
O11_3 O -0.0000 1.0000 0.7176(3)
O17_2 O 0.1132(3) 0.8956(3) 0.6823(3)
O20_2 O 0.1308(3) 0.8796(3) 0.8766(2)
O26_2 O 0.0665(3) 0.7285(3) 0.8748(4)
O34_2 O 0.2762(3) 0.9555(3) 0.8773(4)
V1_2 V 0.87871(6) 0.11318(5) 0.12810(5)
O1_4 O 1.0000 0.0000 0.2824(3)
O2_2 O 0.9809(3) 0.1293(3) 0.1820(3)
O5_2 O 0.8689(3) 0.0092(2) 0.1822(3)
O7_2 O 0.8135(2) 0.0595(3) 0.0389(3)
O8_2 O 0.9271(2) 0.1797(2) 0.0370(3)
V9_2 V 0.95266(6) 0.18544(6) 0.91131(9)
V11_2 V 0.81133(6) 0.03321(6) 0.91296(9)
V15_2 V 0.92894(7) 0.06627(7) 0.76983(6)
O11_4 O 1.0000 0.0000 0.7176(3)
O16_2 O 0.8868(3) 0.1044(3) 0.6823(3)
O19_2 O 0.8692(3) 0.1204(3) 0.8766(2)
O25_2 O 0.9335(3) 0.2715(3) 0.8748(4)
O33_2 O 0.7238(3) 0.0445(3) 0.8773(4)
O1_5 O 1.0000 1.0000 0.2824(3)
V8_2 V 0.81456(6) 0.95266(6) 0.08869(9)
V13_2 V 0.96679(6) 0.81133(6) 0.08704(9)
V14_2 V 0.93373(7) 0.92894(7) 0.23017(6)
O15_2 O 0.8956(3) 0.8868(3) 0.3177(3)
O18_2 O 0.8796(3) 0.8692(3) 0.1234(2)
O24_2 O 0.7285(3) 0.9335(3) 0.1252(4)
O35_2 O 0.9555(3) 0.7238(3) 0.1227(4)
V7_2 V 0.88682(5) 0.87871(6) 0.87190(5)
O11_5 O 1.0000 1.0000 0.7176(3)
O13_2 O 0.8707(3) 0.9809(3) 0.8180(3)
O23_2 O 0.9908(2) 0.8689(3) 0.8178(3)
O29_2 O 0.9405(3) 0.8135(2) 0.9611(3)
O31_2 O 0.8203(2) 0.9271(2) 0.9630(3)
loop_
_geom_bond_atom_site_label_1
_geom_bond_atom_site_label_2
_geom_bond_site_symmetry_1
_geom_bond_site_symmetry_2
Ni4 N5 1_555 1_555
Ni5 N10 1_555 1_555
C12 H10 1_555 1_555
C15 C12 1_555 1_555
H13 C15 1_555 1_555
C18 C15 1_555 1_555
C21 H16 1_555 1_555
C24 H19 1_555 1_555
C27 C24 1_555 1_555
C33 H25 1_555 1_555
C36 C30 1_555 1_555
H28 C36 1_555 1_555
C39 C18 1_555 1_555
N5 C12 1_555 1_555
N10 C24 1_555 1_555
C21 C39 1_555 1_555
C21 N5 1_555 1_555
C27 C30 1_555 1_555
C33 C36 1_555 1_555
C33 N10 1_555 1_555
Ni1 N1 1_555 1_555
V1 O2 1_555 1_555
V2 O4 1_555 1_555
V3 O2 1_555 1_555
V4 O1 1_555 1_555
C1 H1 1_555 1_555
C2 C1 1_555 1_555
C3 C2 1_555 1_555
C4 H3 1_555 1_555
C10 C3 1_555 1_555
H8 C10 1_555 1_555
N1 C1 1_555 1_555
N2 Ni1 1_555 1_555
O1 V14 1_555 1_555
O2 V4 1_555 1_555
O3 V4 1_555 1_555
O4 V3 1_555 1_555
O5 V1 1_555 1_555
O6 V2 1_555 1_555
O7 V1 1_555 1_555
O8 V1 1_555 1_555
O9 V3 1_555 1_555
O10 Ni1 1_555 1_555
Ni6 N6 1_555 1_555
Ni5 O38 1_555 1_555
Ni4 O39 1_555 1_555
V5 O12 1_555 1_555
V6 O14 1_555 1_555
V7 O13 1_555 1_555
V8 O5 1_555 1_555
V9 O8 1_555 1_555
V10 O20 1_555 1_555
V11 O7 1_555 1_555
V12 O14 1_555 1_555
V13 O12 1_555 1_555
V14 O5 1_555 1_555
V15 O11 1_555 1_555
V16 O11 1_555 1_555
C13 H11 1_555 1_555
C16 C13 1_555 1_555
H14 C16 1_555 1_555
C19 C16 1_555 1_555
C22 H17 1_555 1_555
C23 N2 1_555 1_555
C25 H20 1_555 1_555
H18 C23 1_555 1_555
C26 C23 1_555 1_555
C28 C25 1_555 1_555
H21 C26 1_555 1_555
C32 N2 1_555 1_555
C34 H26 1_555 1_555
H24 C32 1_555 1_555
C35 C29 1_555 1_555
C37 C31 1_555 1_555
H29 C37 1_555 1_555
C40 C19 1_555 1_555
N3 Ni1 1_555 1_555
N7 Ni6 1_555 1_555
N8 Ni1 1_555 1_555
N11 Ni6 1_555 1_555
N12 Ni6 1_555 1_555
O12 V14 1_555 1_555
O13 V11 1_555 1_555
O14 V16 1_555 1_555
O15 V14 1_555 1_555
O16 V15 1_555 1_555
O17 V16 1_555 1_555
O18 V8 1_555 1_555
O19 V9 1_555 1_555
O20 V12 1_555 1_555
O21 V2 1_555 1_555
O22 V6 1_555 1_555
O23 V7 1_555 1_555
O24 V8 1_555 1_555
O25 V9 1_555 1_555
O26 V10 1_555 1_555
O27 V2 1_555 1_555
O28 V3 1_555 1_555
O29 V7 1_555 1_555
O30 V2 1_555 1_555
O31 V7 1_555 1_555
O32 V5 1_555 1_555
O33 V11 1_555 1_555
O34 V12 1_555 1_555
O35 V13 1_555 1_555
O36 Ni1 1_555 1_555
O37 Ni6 1_555 1_555
O38 V6 1_555 1_555
O39 V7 1_555 1_555
O40 Ni6 1_555 1_555
V1 O10 1_555 1_555
V3 O8 1_555 1_555
V4 O4 1_555 1_555
V4 O21 1_555 1_555
C4 C10 1_555 1_555
C4 N1 1_555 1_555
O7 V8 1_555 1_555
V5 O21 1_555 1_555
V5 O27 1_555 1_555
V5 O37 1_555 1_555
V6 O28 1_555 1_555
V6 O30 1_555 1_555
V8 O31 1_555 1_555
V9 O22 1_555 1_555
V9 O28 1_555 1_555
V10 O23 1_555 1_555
V10 O29 1_555 1_555
V10 O32 1_555 1_555
V11 O19 1_555 1_555
V11 O31 1_555 1_555
V12 O27 1_555 1_555
V12 O30 1_555 1_555
V13 O18 1_555 1_555
V13 O29 1_555 1_555
V13 O32 1_555 1_555
V14 O18 1_555 1_555
V15 O13 1_555 1_555
V15 O19 1_555 1_555
V15 O22 1_555 1_555
V16 O20 1_555 1_555
V16 O23 1_555 1_555
C13 N7 1_555 1_555
C22 C40 1_555 1_555
C22 N7 1_555 1_555
C25 N12 1_555 1_555
C26 C29 1_555 1_555
C28 C31 1_555 1_555
C32 C35 1_555 1_555
C34 C37 1_555 1_555
C34 N12 1_555 1_555
Ni4 N4 1_555 1_555
C11 H9 1_555 1_555
C14 C11 1_555 1_555
C17 C14 1_555 1_555
C20 H15 1_555 1_555
C38 C17 1_555 1_555
H30 C38 1_555 1_555
N4 C11 1_555 1_555
C20 C38 1_555 1_555
C20 N4 1_555 1_555
C5 H4 1_555 1_555
C6 C5 1_555 1_555
H5 C6 1_555 1_555
C8 H6 1_555 1_555
C9 C7 1_555 1_555
Ni5 N9 1_555 1_555
N9 C5 1_555 1_555
C6 C7 1_555 1_555
C8 C9 1_555 1_555
C8 N9 1_555 1_555
C5_2 H4_2 1_555 1_555
C6_2 C5_2 1_555 1_555
H5_2 C6_2 1_555 1_555
C8_2 H6_2 1_555 1_555
C9_2 C7_2 1_555 1_555
Ni4 N9_2 1_555 1_555
N9_2 C5_2 1_555 1_555
C6_2 C7_2 1_555 1_555
C8_2 C9_2 1_555 1_555
C8_2 N9_2 1_555 1_555
Ni5 N4_2 1_555 1_555
C11_2 H9_2 1_555 1_555
C14_2 C11_2 1_555 1_555
C17_2 C14_2 1_555 1_555
C20_2 H15_2 1_555 1_555
C38_2 C17_2 1_555 1_555
H30_2 C38_2 1_555 1_555
N4_2 C11_2 1_555 1_555
C20_2 C38_2 1_555 1_555
C20_2 N4_2 1_555 1_555
Ni5 N5_2 1_555 1_555
Ni4 N10_2 1_555 1_555
C12_2 H10_2 1_555 1_555
C15_2 C12_2 1_555 1_555
H13_2 C15_2 1_555 1_555
C18_2 C15_2 1_555 1_555
C21_2 H16_2 1_555 1_555
C24_2 H19_2 1_555 1_555
C27_2 C24_2 1_555 1_555
C33_2 H25_2 1_555 1_555
C36_2 C30_2 1_555 1_555
H28_2 C36_2 1_555 1_555
C39_2 C18_2 1_555 1_555
N5_2 C12_2 1_555 1_555
N10_2 C24_2 1_555 1_555
C21_2 C39_2 1_555 1_555
C21_2 N5_2 1_555 1_555
C27_2 C30_2 1_555 1_555
C33_2 C36_2 1_555 1_555
C33_2 N10_2 1_555 1_555
C1_2 H1_2 1_555 1_555
C2_2 C1_2 1_555 1_555
C3_2 C2_2 1_555 1_555
C4_2 H3_2 1_555 1_555
C10_2 C3_2 1_555 1_555
H8_2 C10_2 1_555 1_555
N6 C1_2 1_555 1_555
C13_2 H11_2 1_555 1_555
C16_2 C13_2 1_555 1_555
H14_2 C16_2 1_555 1_555
C19_2 C16_2 1_555 1_555
C22_2 H17_2 1_555 1_555
C23_2 N11 1_555 1_555
C25_2 H20_2 1_555 1_555
H18_2 C23_2 1_555 1_555
C26_2 C23_2 1_555 1_555
C28_2 C25_2 1_555 1_555
H21_2 C26_2 1_555 1_555
C32_2 N11 1_555 1_555
C34_2 H26_2 1_555 1_555
H24_2 C32_2 1_555 1_555
C35_2 C29_2 1_555 1_555
C37_2 C31_2 1_555 1_555
H29_2 C37_2 1_555 1_555
C40_2 C19_2 1_555 1_555
C4_2 C10_2 1_555 1_555
C4_2 N6 1_555 1_555
C13_2 N3 1_555 1_555
C22_2 C40_2 1_555 1_555
C22_2 N3 1_555 1_555
C25_2 N8 1_555 1_555
C26_2 C29_2 1_555 1_555
C28_2 C31_2 1_555 1_555
C32_2 C35_2 1_555 1_555
C34_2 C37_2 1_555 1_555
C34_2 N8 1_555 1_555
O36_2 Ni4 1_555 1_555
O40_2 Ni5 1_555 1_555
V2_2 O4_2 1_555 1_555
V4_2 O1_2 1_555 1_555
O3_2 V4_2 1_555 1_555
O4_2 V3_2 1_555 1_555
O6_2 V2_2 1_555 1_555
O9_2 V3_2 1_555 1_555
V4_2 O4_2 1_555 1_555
V6_2 O14_2 1_555 1_555
O22_2 V6_2 1_555 1_555
O36 V6_2 1_555 1_555
V6_2 O28_2 1_555 1_555
V6_2 O30_2 1_555 1_555
V5_2 O12_2 1_555 1_555
O32_2 V5_2 1_555 1_555
V5_2 O21_2 1_555 1_555
V5_2 O27_2 1_555 1_555
V5_2 O36_2 1_555 1_555
V10_2 O20_2 1_555 1_555
V16_2 O11_3 1_555 1_555
O17_2 V16_2 1_555 1_555
O20_2 V12_2 1_555 1_555
O26_2 V10_2 1_555 1_555
O34_2 V12_2 1_555 1_555
V16_2 O20_2 1_555 1_555
V1_2 O2_2 1_555 1_555
O5_2 V1_2 1_555 1_555
O7_2 V1_2 1_555 1_555
O8_2 V1_2 1_555 1_555
V1_2 O40_2 1_555 1_555
V15_2 O11_4 1_555 1_555
O16_2 V15_2 1_555 1_555
O19_2 V9_2 1_555 1_555
O25_2 V9_2 1_555 1_555
O33_2 V11_2 1_555 1_555
V11_2 O19_2 1_555 1_555
V15_2 O19_2 1_555 1_555
O1_5 V14_2 1_555 1_555
O15_2 V14_2 1_555 1_555
O18_2 V8_2 1_555 1_555
O24_2 V8_2 1_555 1_555
O35_2 V13_2 1_555 1_555
V13_2 O18_2 1_555 1_555
V14_2 O18_2 1_555 1_555
V7_2 O13_2 1_555 1_555
O23_2 V7_2 1_555 1_555
O29_2 V7_2 1_555 1_555
O31_2 V7_2 1_555 1_555
O40 V7_2 1_555 1_555

#END
