
###############################################################################
#
# This file contains modified crystal structure data generated from the
# MOF subset of the Cambridge Structural Database (CSD) v543 
# hosted by the Cambridge Crystallographic Data Centre (CCDC).
#
# This work is licensed under the Creative Commons
# Attribution-NonCommercial-ShareAlike 4.0 International License.
# To view a copy of this license, visit
# http://creativecommons.org/licenses/by-nc-sa/4.0/
# or send a letter to
# Creative Commons, PO Box 1866, Mountain View, CA 94042, USA.
#
# CIF created using the CSD Python API on 29 September 2022
# The structure has been converted into the P1 space group
# The structure has a 3D framework
# The original CSD entry ADOCIG is in the tetragonal crystal system
# The framework has been calculated to contain at least 10.0% void space
# The void calculation uses a probe of radius 1.32A, grid spacing 0.4
#
###############################################################################

data_ADOCIG
_chemical_formula_moiety         '(C80 H64 Br9 N16 Ni2 O82 V32 7-)n'
_symmetry_cell_setting           triclinic
_symmetry_space_group_name_H-M   'P 1'
_symmetry_Int_Tables_number      1
_space_group_name_Hall           'P 1'
loop_
_symmetry_equiv_pos_site_id
_symmetry_equiv_pos_as_xyz
1 x,y,z
_cell_length_a                   17.091(2)
_cell_length_b                   17.091(2)
_cell_length_c                   14.611(3)
_cell_angle_alpha                90
_cell_angle_beta                 90
_cell_angle_gamma                90
_cell_volume                     4267.91
loop_
_atom_site_label
_atom_site_type_symbol
_atom_site_fract_x
_atom_site_fract_y
_atom_site_fract_z
Ni4 Ni 0.25363(4) 0.75363(4) 0.2500
Ni5 Ni 0.74637(4) 0.24637(4) 0.2500
C12 C 0.4215(3) 0.7727(4) 0.1840(4)
H10 H 0.4313 0.7615 0.2452
C15 C 0.4840(3) 0.7756(4) 0.1256(4)
H13 H 0.5344 0.7669 0.1472
C18 C 0.4713(3) 0.7922(3) 0.0321(4)
C21 C 0.3355(3) 0.8049(4) 0.0733(4)
H16 H 0.2850 0.8187 0.0557
C24 C 0.8046(3) 0.3281(3) 0.0736(4)
H19 H 0.8182 0.2777 0.0554
C27 C 0.8119(3) 0.3881(4) 0.0124(4)
H23 H 0.6222 0.8313 0.0459
C30 C 0.7908(3) 0.4636(3) 0.0353(4)
C33 C 0.7637(3) 0.4137(4) 0.1845(4)
H25 H 0.7497 0.4235 0.2449
C36 C 0.7680(3) 0.4768(4) 0.1252(4)
H28 H 0.7558 0.5270 0.1452
C39 C 0.3947(4) 0.8066(4) 0.0070(4)
H32 H 0.8175 0.6175 0.0537
N5 N 0.3475(3) 0.7847(2) 0.1589(3)
N10 N 0.7783(2) 0.3397(2) 0.1603(3)
Ni1 Ni 0.24637(4) 0.25363(4) 0.7500
V1 V 0.37875(5) 0.38677(4) 0.62812(4)
V2 V 0.68546(5) 0.45257(5) 0.58869(7)
V3 V 0.53319(5) 0.31137(5) 0.58696(7)
V4 V 0.56621(6) 0.42895(6) 0.73015(5)
C1 C 0.0785(3) 0.2727(4) 0.6840(4)
H1 H 0.0687 0.2615 0.7452
C2 C 0.0160(3) 0.2756(4) 0.6256(4)
C3 C 0.0287(3) 0.2922(3) 0.5321(4)
C4 C 0.1645(3) 0.3049(4) 0.5733(4)
H3 H 0.2150 0.3187 0.5557
H7 H 0.0270 0.2558 0.3548
C10 C 0.1053(4) 0.3066(4) 0.5070(4)
H8 H 0.1175 0.3175 0.4463
N1 N 0.1525(3) 0.2847(2) 0.6589(3)
N2 N 0.2783(2) 0.1603(2) 0.6603(3)
O1 O 0.5000 0.5000 0.7826(3)
O2 O 0.4812(2) 0.3705(2) 0.6821(3)
O3 O 0.6040(3) 0.3867(3) 0.8176(2)
O4 O 0.6205(2) 0.3690(2) 0.6232(2)
O5 O 0.3691(2) 0.4905(2) 0.6822(3)
O6 O 0.7716(2) 0.4332(3) 0.6246(3)
O7 O 0.3138(2) 0.4409(2) 0.5393(3)
O8 O 0.4272(2) 0.3202(2) 0.5370(3)
O9 O 0.5447(3) 0.2240(2) 0.6236(3)
O10 O 0.31866(19) 0.32846(19) 0.68219(17)
Ni6 Ni 0.75363(4) 0.74637(4) 0.7500
V5 V 0.62125(5) 0.61323(4) 0.62812(4)
V6 V 0.61323(4) 0.37875(5) 0.37188(4)
V7 V 0.38677(4) 0.62125(5) 0.37188(4)
V8 V 0.31454(5) 0.54743(5) 0.58869(7)
V9 V 0.45257(5) 0.31454(5) 0.41131(7)
V10 V 0.54743(5) 0.68546(5) 0.41131(7)
V11 V 0.31137(5) 0.46681(5) 0.41304(7)
V12 V 0.68863(5) 0.53319(5) 0.41304(7)
V13 V 0.46681(5) 0.68863(5) 0.58696(7)
V14 V 0.43379(6) 0.57105(6) 0.73015(5)
V15 V 0.42895(6) 0.43379(6) 0.26985(5)
V16 V 0.57105(6) 0.56621(6) 0.26985(5)
C13 C 0.7727(4) 0.5785(3) 0.8160(4)
H11 H 0.7615 0.5687 0.7548
C16 C 0.7756(4) 0.5160(3) 0.8744(4)
H12 H 0.2669 0.0344 0.3528
H14 H 0.7669 0.4656 0.8528
C19 C 0.7922(3) 0.5287(3) 0.9679(4)
C22 C 0.8049(4) 0.6645(3) 0.9267(4)
H17 H 0.8187 0.7150 0.9443
C23 C 0.3046(3) 0.1719(3) 0.5736(4)
C25 C 0.6719(3) 0.8046(3) 0.9264(4)
H18 H 0.3182 0.2223 0.5554
H20 H 0.7223 0.8182 0.9446
C26 C 0.3119(3) 0.1119(4) 0.5124(4)
C28 C 0.6119(4) 0.8119(3) 0.9876(4)
H21 H 0.3313 0.1222 0.4541
H22 H 0.8313 0.3778 0.9541
C29 C 0.2908(3) 0.0364(3) 0.5353(4)
C31 C 0.5364(3) 0.7908(3) 0.9647(4)
C32 C 0.2637(3) 0.0863(4) 0.6845(4)
C34 C 0.5863(4) 0.7637(3) 0.8155(4)
H24 H 0.2497 0.0765 0.7449
H26 H 0.5765 0.7497 0.7551
C35 C 0.2680(3) 0.0232(4) 0.6252(4)
C37 C 0.5232(4) 0.7680(3) 0.8748(4)
H29 H 0.4730 0.7558 0.8548
C40 C 0.8066(4) 0.6053(4) 0.9930(4)
H31 H 0.3825 0.8175 0.9463
N3 N 0.2153(2) 0.3475(3) 0.8411(3)
N6 N 0.8475(3) 0.7153(2) 0.6589(3)
N7 N 0.7847(2) 0.6525(3) 0.8411(3)
N8 N 0.3397(2) 0.2217(2) 0.8397(3)
N11 N 0.7217(2) 0.8397(2) 0.6603(3)
N12 N 0.6603(2) 0.7783(2) 0.8397(3)
O11 O 0.5000 0.5000 0.2174(3)
O12 O 0.5188(2) 0.6295(2) 0.6821(3)
O13 O 0.3705(2) 0.5188(2) 0.3179(3)
O14 O 0.6295(2) 0.4812(2) 0.3179(3)
O15 O 0.3960(3) 0.6133(3) 0.8176(2)
O16 O 0.3867(3) 0.3960(3) 0.1824(2)
O17 O 0.6133(3) 0.6040(3) 0.1824(2)
O18 O 0.3795(2) 0.6310(2) 0.6232(2)
O19 O 0.3690(2) 0.3795(2) 0.3768(2)
O20 O 0.6310(2) 0.6205(2) 0.3768(2)
O21 O 0.6309(2) 0.5095(2) 0.6822(3)
O22 O 0.5095(2) 0.3691(2) 0.3178(3)
O23 O 0.4905(2) 0.6309(2) 0.3178(3)
O24 O 0.2284(2) 0.5668(3) 0.6246(3)
O25 O 0.4332(3) 0.2284(2) 0.3754(3)
O26 O 0.5668(3) 0.7716(2) 0.3754(3)
O27 O 0.6862(2) 0.5591(2) 0.5393(3)
O28 O 0.5591(2) 0.3138(2) 0.4607(3)
O29 O 0.4409(2) 0.6862(2) 0.4607(3)
O30 O 0.6798(2) 0.4272(2) 0.4630(3)
O31 O 0.3202(2) 0.5728(2) 0.4630(3)
O32 O 0.5728(2) 0.6798(2) 0.5370(3)
O33 O 0.2240(2) 0.4553(3) 0.3764(3)
O34 O 0.7760(2) 0.5447(3) 0.3764(3)
O35 O 0.4553(3) 0.7760(2) 0.6236(3)
O36 O 0.17154(19) 0.18134(19) 0.81781(17)
O37 O 0.68134(19) 0.67154(19) 0.68219(17)
O38 O 0.67154(19) 0.31866(19) 0.31781(17)
O39 O 0.32846(19) 0.68134(19) 0.31781(17)
O40 O 0.82846(19) 0.81866(19) 0.81781(17)
C11 C 0.2727(4) 0.9215(3) 0.3160(4)
H9 H 0.2615 0.9313 0.2548
C14 C 0.2756(4) 0.9840(3) 0.3744(4)
C17 C 0.2922(3) 0.9713(3) 0.4679(4)
C20 C 0.3049(4) 0.8355(3) 0.4267(4)
H15 H 0.3187 0.7850 0.4443
H27 H 0.2558 0.9730 0.6452
C38 C 0.3066(4) 0.8947(4) 0.4930(4)
H30 H 0.3175 0.8825 0.5537
N4 N 0.2847(2) 0.8475(3) 0.3411(3)
H2 H 0.9656 0.2669 0.6472
C5 C 0.8281(3) 0.3046(3) 0.4264(4)
H4 H 0.7777 0.3182 0.4446
C6 C 0.8881(4) 0.3119(3) 0.4876(4)
H5 H 0.8778 0.3313 0.5459
C7 C 0.9636(3) 0.2908(3) 0.4647(4)
C8 C 0.9137(4) 0.2637(3) 0.3155(4)
H6 H 0.9235 0.2497 0.2551
C9 C 0.9768(4) 0.2680(3) 0.3748(4)
N9 N 0.8397(2) 0.2783(2) 0.3397(3)
H2_2 H 0.0344 0.7331 0.6472
C5_2 C 0.1719(3) 0.6954(3) 0.4264(4)
H4_2 H 0.2223 0.6818 0.4446
C6_2 C 0.1119(4) 0.6881(3) 0.4876(4)
H5_2 H 0.1222 0.6687 0.5459
C7_2 C 0.0364(3) 0.7092(3) 0.4647(4)
C8_2 C 0.0863(4) 0.7363(3) 0.3155(4)
H6_2 H 0.0765 0.7503 0.2551
C9_2 C 0.0232(4) 0.7320(3) 0.3748(4)
N9_2 N 0.1603(2) 0.7217(2) 0.3397(3)
C11_2 C 0.7273(4) 0.0785(3) 0.3160(4)
H9_2 H 0.7385 0.0687 0.2548
C14_2 C 0.7244(4) 0.0160(3) 0.3744(4)
C17_2 C 0.7078(3) 0.0287(3) 0.4679(4)
C20_2 C 0.6951(4) 0.1645(3) 0.4267(4)
H15_2 H 0.6813 0.2150 0.4443
H27_2 H 0.7442 0.0270 0.6452
C38_2 C 0.6934(4) 0.1053(4) 0.4930(4)
H30_2 H 0.6825 0.1175 0.5537
N4_2 N 0.7153(2) 0.1525(3) 0.3411(3)
C12_2 C 0.5785(3) 0.2273(4) 0.1840(4)
H10_2 H 0.5687 0.2385 0.2452
C15_2 C 0.5160(3) 0.2244(4) 0.1256(4)
H13_2 H 0.4656 0.2331 0.1472
C18_2 C 0.5287(3) 0.2078(3) 0.0321(4)
C21_2 C 0.6645(3) 0.1951(4) 0.0733(4)
H16_2 H 0.7150 0.1813 0.0557
C24_2 C 0.1954(3) 0.6719(3) 0.0736(4)
H19_2 H 0.1818 0.7223 0.0554
C27_2 C 0.1881(3) 0.6119(4) 0.0124(4)
H23_2 H 0.3778 0.1687 0.0459
C30_2 C 0.2092(3) 0.5364(3) 0.0353(4)
C33_2 C 0.2363(3) 0.5863(4) 0.1845(4)
H25_2 H 0.2503 0.5765 0.2449
C36_2 C 0.2320(3) 0.5232(4) 0.1252(4)
H28_2 H 0.2442 0.4730 0.1452
C39_2 C 0.6053(4) 0.1934(4) 0.0070(4)
H32_2 H 0.1825 0.3825 0.0537
N5_2 N 0.6525(3) 0.2153(2) 0.1589(3)
N10_2 N 0.2217(2) 0.6603(2) 0.1603(3)
C1_2 C 0.9215(3) 0.7273(4) 0.6840(4)
H1_2 H 0.9313 0.7385 0.7452
C2_2 C 0.9840(3) 0.7244(4) 0.6256(4)
C3_2 C 0.9713(3) 0.7078(3) 0.5321(4)
C4_2 C 0.8355(3) 0.6951(4) 0.5733(4)
H3_2 H 0.7850 0.6813 0.5557
H7_2 H 0.9730 0.7442 0.3548
C10_2 C 0.8947(4) 0.6934(4) 0.5070(4)
H8_2 H 0.8825 0.6825 0.4463
C13_2 C 0.2273(4) 0.4215(3) 0.8160(4)
H11_2 H 0.2385 0.4313 0.7548
C16_2 C 0.2244(4) 0.4840(3) 0.8744(4)
H12_2 H 0.7331 0.9656 0.3528
H14_2 H 0.2331 0.5344 0.8528
C19_2 C 0.2078(3) 0.4713(3) 0.9679(4)
C22_2 C 0.1951(4) 0.3355(3) 0.9267(4)
H17_2 H 0.1813 0.2850 0.9443
C23_2 C 0.6954(3) 0.8281(3) 0.5736(4)
C25_2 C 0.3281(3) 0.1954(3) 0.9264(4)
H18_2 H 0.6818 0.7777 0.5554
H20_2 H 0.2777 0.1818 0.9446
C26_2 C 0.6881(3) 0.8881(4) 0.5124(4)
C28_2 C 0.3881(4) 0.1881(3) 0.9876(4)
H21_2 H 0.6687 0.8778 0.4541
H22_2 H 0.1687 0.6222 0.9541
C29_2 C 0.7092(3) 0.9636(3) 0.5353(4)
C31_2 C 0.4636(3) 0.2092(3) 0.9647(4)
C32_2 C 0.7363(3) 0.9137(4) 0.6845(4)
C34_2 C 0.4137(4) 0.2363(3) 0.8155(4)
H24_2 H 0.7503 0.9235 0.7449
H26_2 H 0.4235 0.2503 0.7551
C35_2 C 0.7320(3) 0.9768(4) 0.6252(4)
C37_2 C 0.4768(4) 0.2320(3) 0.8748(4)
H29_2 H 0.5270 0.2442 0.8548
C40_2 C 0.1934(4) 0.3947(4) 0.9930(4)
H31_2 H 0.6175 0.1825 0.9463
O36_2 O 0.18134(19) 0.82846(19) 0.18219(17)
O40_2 O 0.81866(19) 0.17154(19) 0.18219(17)
V2_2 V 0.18546(5) 0.04743(5) 0.08869(7)
V3_2 V 0.03319(5) 0.18863(5) 0.08696(7)
V4_2 V 0.06621(6) 0.07105(6) 0.23015(5)
O1_2 O -0.0000 0.0000 0.2826(3)
O3_2 O 0.1040(3) 0.1133(3) 0.3176(2)
O4_2 O 0.1205(2) 0.1310(2) 0.1232(2)
O6_2 O 0.2716(2) 0.0668(3) 0.1246(3)
O9_2 O 0.0447(3) 0.2760(2) 0.1236(3)
V6_2 V 0.11323(4) 0.12125(5) 0.87188(4)
O11_2 O -0.0000 0.0000 0.7174(3)
O14_2 O 0.1295(2) 0.0188(2) 0.8179(3)
O22_2 O 0.0095(2) 0.1309(2) 0.8178(3)
O28_2 O 0.0591(2) 0.1862(2) 0.9607(3)
O30_2 O 0.1798(2) 0.0728(2) 0.9630(3)
O1_3 O -0.0000 1.0000 0.2826(3)
V5_2 V 0.12125(5) 0.88677(4) 0.12812(4)
O12_2 O 0.0188(2) 0.8705(2) 0.1821(3)
O21_2 O 0.1309(2) 0.9905(2) 0.1822(3)
O27_2 O 0.1862(2) 0.9409(2) 0.0393(3)
O32_2 O 0.0728(2) 0.8202(2) 0.0370(3)
V10_2 V 0.04743(5) 0.81454(5) 0.91131(7)
V12_2 V 0.18863(5) 0.96681(5) 0.91304(7)
V16_2 V 0.07105(6) 0.93379(6) 0.76985(5)
O11_3 O -0.0000 1.0000 0.7174(3)
O17_2 O 0.1133(3) 0.8960(3) 0.6824(2)
O20_2 O 0.1310(2) 0.8795(2) 0.8768(2)
O26_2 O 0.0668(3) 0.7284(2) 0.8754(3)
O34_2 O 0.2760(2) 0.9553(3) 0.8764(3)
V1_2 V 0.87875(5) 0.11323(4) 0.12812(4)
O1_4 O 1.0000 0.0000 0.2826(3)
O2_2 O 0.9812(2) 0.1295(2) 0.1821(3)
O5_2 O 0.8691(2) 0.0095(2) 0.1822(3)
O7_2 O 0.8138(2) 0.0591(2) 0.0393(3)
O8_2 O 0.9272(2) 0.1798(2) 0.0370(3)
V9_2 V 0.95257(5) 0.18546(5) 0.91131(7)
V11_2 V 0.81137(5) 0.03319(5) 0.91304(7)
V15_2 V 0.92895(6) 0.06621(6) 0.76985(5)
O11_4 O 1.0000 0.0000 0.7174(3)
O16_2 O 0.8867(3) 0.1040(3) 0.6824(2)
O19_2 O 0.8690(2) 0.1205(2) 0.8768(2)
O25_2 O 0.9332(3) 0.2716(2) 0.8754(3)
O33_2 O 0.7240(2) 0.0447(3) 0.8764(3)
O1_5 O 1.0000 1.0000 0.2826(3)
V8_2 V 0.81454(5) 0.95257(5) 0.08869(7)
V13_2 V 0.96681(5) 0.81137(5) 0.08696(7)
V14_2 V 0.93379(6) 0.92895(6) 0.23015(5)
O15_2 O 0.8960(3) 0.8867(3) 0.3176(2)
O18_2 O 0.8795(2) 0.8690(2) 0.1232(2)
O24_2 O 0.7284(2) 0.9332(3) 0.1246(3)
O35_2 O 0.9553(3) 0.7240(2) 0.1236(3)
V7_2 V 0.88677(4) 0.87875(5) 0.87188(4)
O11_5 O 1.0000 1.0000 0.7174(3)
O13_2 O 0.8705(2) 0.9812(2) 0.8179(3)
O23_2 O 0.9905(2) 0.8691(2) 0.8178(3)
O29_2 O 0.9409(2) 0.8138(2) 0.9607(3)
O31_2 O 0.8202(2) 0.9272(2) 0.9630(3)
Br1 Br 0.0000 0.0000 0.0000
Br1_2 Br 0.0000 0.0000 1.0000
Br1_3 Br 0.0000 1.0000 0.0000
Br1_4 Br 0.0000 1.0000 1.0000
Br1_5 Br 1.0000 0.0000 0.0000
Br1_6 Br 1.0000 0.0000 1.0000
Br1_7 Br 1.0000 1.0000 0.0000
Br1_8 Br 1.0000 1.0000 1.0000
Br1_9 Br 0.5000 0.5000 0.5000
loop_
_geom_bond_atom_site_label_1
_geom_bond_atom_site_label_2
_geom_bond_site_symmetry_1
_geom_bond_site_symmetry_2
Ni4 N5 1_555 1_555
Ni5 N10 1_555 1_555
C12 H10 1_555 1_555
C15 C12 1_555 1_555
H13 C15 1_555 1_555
C18 C15 1_555 1_555
C21 H16 1_555 1_555
C24 H19 1_555 1_555
C27 C24 1_555 1_555
C33 H25 1_555 1_555
C36 C30 1_555 1_555
H28 C36 1_555 1_555
C39 C18 1_555 1_555
N5 C12 1_555 1_555
N10 C24 1_555 1_555
C21 C39 1_555 1_555
C21 N5 1_555 1_555
C27 C30 1_555 1_555
C33 C36 1_555 1_555
C33 N10 1_555 1_555
Ni1 N1 1_555 1_555
V1 O2 1_555 1_555
V2 O4 1_555 1_555
V3 O2 1_555 1_555
V4 O1 1_555 1_555
C1 H1 1_555 1_555
C2 C1 1_555 1_555
C3 C2 1_555 1_555
C4 H3 1_555 1_555
C10 C3 1_555 1_555
H8 C10 1_555 1_555
N1 C1 1_555 1_555
N2 Ni1 1_555 1_555
O1 V14 1_555 1_555
O2 V4 1_555 1_555
O3 V4 1_555 1_555
O4 V3 1_555 1_555
O5 V1 1_555 1_555
O6 V2 1_555 1_555
O7 V1 1_555 1_555
O8 V1 1_555 1_555
O9 V3 1_555 1_555
O10 Ni1 1_555 1_555
Ni6 N6 1_555 1_555
Ni5 O38 1_555 1_555
Ni4 O39 1_555 1_555
V5 O12 1_555 1_555
V6 O14 1_555 1_555
V7 O13 1_555 1_555
V8 O5 1_555 1_555
V9 O8 1_555 1_555
V10 O20 1_555 1_555
V11 O7 1_555 1_555
V12 O14 1_555 1_555
V13 O12 1_555 1_555
V14 O5 1_555 1_555
V15 O11 1_555 1_555
V16 O11 1_555 1_555
C13 H11 1_555 1_555
C16 C13 1_555 1_555
H14 C16 1_555 1_555
C19 C16 1_555 1_555
C22 H17 1_555 1_555
C23 N2 1_555 1_555
C25 H20 1_555 1_555
H18 C23 1_555 1_555
C26 C23 1_555 1_555
C28 C25 1_555 1_555
H21 C26 1_555 1_555
C32 N2 1_555 1_555
C34 H26 1_555 1_555
H24 C32 1_555 1_555
C35 C29 1_555 1_555
C37 C31 1_555 1_555
H29 C37 1_555 1_555
C40 C19 1_555 1_555
N3 Ni1 1_555 1_555
N7 Ni6 1_555 1_555
N8 Ni1 1_555 1_555
N11 Ni6 1_555 1_555
N12 Ni6 1_555 1_555
O12 V14 1_555 1_555
O13 V11 1_555 1_555
O14 V16 1_555 1_555
O15 V14 1_555 1_555
O16 V15 1_555 1_555
O17 V16 1_555 1_555
O18 V8 1_555 1_555
O19 V9 1_555 1_555
O20 V12 1_555 1_555
O21 V2 1_555 1_555
O22 V6 1_555 1_555
O23 V7 1_555 1_555
O24 V8 1_555 1_555
O25 V9 1_555 1_555
O26 V10 1_555 1_555
O27 V2 1_555 1_555
O28 V3 1_555 1_555
O29 V7 1_555 1_555
O30 V2 1_555 1_555
O31 V7 1_555 1_555
O32 V5 1_555 1_555
O33 V11 1_555 1_555
O34 V12 1_555 1_555
O35 V13 1_555 1_555
O36 Ni1 1_555 1_555
O37 Ni6 1_555 1_555
O38 V6 1_555 1_555
O39 V7 1_555 1_555
O40 Ni6 1_555 1_555
V1 O10 1_555 1_555
V3 O8 1_555 1_555
V4 O4 1_555 1_555
V4 O21 1_555 1_555
C4 C10 1_555 1_555
C4 N1 1_555 1_555
O7 V8 1_555 1_555
V5 O21 1_555 1_555
V5 O27 1_555 1_555
V5 O37 1_555 1_555
V6 O28 1_555 1_555
V6 O30 1_555 1_555
V8 O31 1_555 1_555
V9 O22 1_555 1_555
V9 O28 1_555 1_555
V10 O23 1_555 1_555
V10 O29 1_555 1_555
V10 O32 1_555 1_555
V11 O19 1_555 1_555
V11 O31 1_555 1_555
V12 O27 1_555 1_555
V12 O30 1_555 1_555
V13 O18 1_555 1_555
V13 O29 1_555 1_555
V13 O32 1_555 1_555
V14 O18 1_555 1_555
V15 O13 1_555 1_555
V15 O19 1_555 1_555
V15 O22 1_555 1_555
V16 O20 1_555 1_555
V16 O23 1_555 1_555
C13 N7 1_555 1_555
C22 C40 1_555 1_555
C22 N7 1_555 1_555
C25 N12 1_555 1_555
C26 C29 1_555 1_555
C28 C31 1_555 1_555
C32 C35 1_555 1_555
C34 C37 1_555 1_555
C34 N12 1_555 1_555
Ni4 N4 1_555 1_555
C11 H9 1_555 1_555
C14 C11 1_555 1_555
C17 C14 1_555 1_555
C20 H15 1_555 1_555
C38 C17 1_555 1_555
H30 C38 1_555 1_555
N4 C11 1_555 1_555
C20 C38 1_555 1_555
C20 N4 1_555 1_555
C5 H4 1_555 1_555
C6 C5 1_555 1_555
H5 C6 1_555 1_555
C8 H6 1_555 1_555
C9 C7 1_555 1_555
Ni5 N9 1_555 1_555
N9 C5 1_555 1_555
C6 C7 1_555 1_555
C8 C9 1_555 1_555
C8 N9 1_555 1_555
C5_2 H4_2 1_555 1_555
C6_2 C5_2 1_555 1_555
H5_2 C6_2 1_555 1_555
C8_2 H6_2 1_555 1_555
C9_2 C7_2 1_555 1_555
Ni4 N9_2 1_555 1_555
N9_2 C5_2 1_555 1_555
C6_2 C7_2 1_555 1_555
C8_2 C9_2 1_555 1_555
C8_2 N9_2 1_555 1_555
Ni5 N4_2 1_555 1_555
C11_2 H9_2 1_555 1_555
C14_2 C11_2 1_555 1_555
C17_2 C14_2 1_555 1_555
C20_2 H15_2 1_555 1_555
C38_2 C17_2 1_555 1_555
H30_2 C38_2 1_555 1_555
N4_2 C11_2 1_555 1_555
C20_2 C38_2 1_555 1_555
C20_2 N4_2 1_555 1_555
Ni5 N5_2 1_555 1_555
Ni4 N10_2 1_555 1_555
C12_2 H10_2 1_555 1_555
C15_2 C12_2 1_555 1_555
H13_2 C15_2 1_555 1_555
C18_2 C15_2 1_555 1_555
C21_2 H16_2 1_555 1_555
C24_2 H19_2 1_555 1_555
C27_2 C24_2 1_555 1_555
C33_2 H25_2 1_555 1_555
C36_2 C30_2 1_555 1_555
H28_2 C36_2 1_555 1_555
C39_2 C18_2 1_555 1_555
N5_2 C12_2 1_555 1_555
N10_2 C24_2 1_555 1_555
C21_2 C39_2 1_555 1_555
C21_2 N5_2 1_555 1_555
C27_2 C30_2 1_555 1_555
C33_2 C36_2 1_555 1_555
C33_2 N10_2 1_555 1_555
C1_2 H1_2 1_555 1_555
C2_2 C1_2 1_555 1_555
C3_2 C2_2 1_555 1_555
C4_2 H3_2 1_555 1_555
C10_2 C3_2 1_555 1_555
H8_2 C10_2 1_555 1_555
N6 C1_2 1_555 1_555
C13_2 H11_2 1_555 1_555
C16_2 C13_2 1_555 1_555
H14_2 C16_2 1_555 1_555
C19_2 C16_2 1_555 1_555
C22_2 H17_2 1_555 1_555
C23_2 N11 1_555 1_555
C25_2 H20_2 1_555 1_555
H18_2 C23_2 1_555 1_555
C26_2 C23_2 1_555 1_555
C28_2 C25_2 1_555 1_555
H21_2 C26_2 1_555 1_555
C32_2 N11 1_555 1_555
C34_2 H26_2 1_555 1_555
H24_2 C32_2 1_555 1_555
C35_2 C29_2 1_555 1_555
C37_2 C31_2 1_555 1_555
H29_2 C37_2 1_555 1_555
C40_2 C19_2 1_555 1_555
C4_2 C10_2 1_555 1_555
C4_2 N6 1_555 1_555
C13_2 N3 1_555 1_555
C22_2 C40_2 1_555 1_555
C22_2 N3 1_555 1_555
C25_2 N8 1_555 1_555
C26_2 C29_2 1_555 1_555
C28_2 C31_2 1_555 1_555
C32_2 C35_2 1_555 1_555
C34_2 C37_2 1_555 1_555
C34_2 N8 1_555 1_555
O36_2 Ni4 1_555 1_555
O40_2 Ni5 1_555 1_555
V2_2 O4_2 1_555 1_555
V4_2 O1_2 1_555 1_555
O3_2 V4_2 1_555 1_555
O4_2 V3_2 1_555 1_555
O6_2 V2_2 1_555 1_555
O9_2 V3_2 1_555 1_555
V4_2 O4_2 1_555 1_555
V6_2 O14_2 1_555 1_555
O22_2 V6_2 1_555 1_555
O36 V6_2 1_555 1_555
V6_2 O28_2 1_555 1_555
V6_2 O30_2 1_555 1_555
V5_2 O12_2 1_555 1_555
O32_2 V5_2 1_555 1_555
V5_2 O21_2 1_555 1_555
V5_2 O27_2 1_555 1_555
V5_2 O36_2 1_555 1_555
V10_2 O20_2 1_555 1_555
V16_2 O11_3 1_555 1_555
O17_2 V16_2 1_555 1_555
O20_2 V12_2 1_555 1_555
O26_2 V10_2 1_555 1_555
O34_2 V12_2 1_555 1_555
V16_2 O20_2 1_555 1_555
V1_2 O2_2 1_555 1_555
O5_2 V1_2 1_555 1_555
O7_2 V1_2 1_555 1_555
O8_2 V1_2 1_555 1_555
V1_2 O40_2 1_555 1_555
V15_2 O11_4 1_555 1_555
O16_2 V15_2 1_555 1_555
O19_2 V9_2 1_555 1_555
O25_2 V9_2 1_555 1_555
O33_2 V11_2 1_555 1_555
V11_2 O19_2 1_555 1_555
V15_2 O19_2 1_555 1_555
O1_5 V14_2 1_555 1_555
O15_2 V14_2 1_555 1_555
O18_2 V8_2 1_555 1_555
O24_2 V8_2 1_555 1_555
O35_2 V13_2 1_555 1_555
V13_2 O18_2 1_555 1_555
V14_2 O18_2 1_555 1_555
V7_2 O13_2 1_555 1_555
O23_2 V7_2 1_555 1_555
O29_2 V7_2 1_555 1_555
O31_2 V7_2 1_555 1_555
O40 V7_2 1_555 1_555

#END
