
###############################################################################
#
# This file contains modified crystal structure data generated from the
# MOF subset of the Cambridge Structural Database (CSD) v543 
# hosted by the Cambridge Crystallographic Data Centre (CCDC).
#
# This work is licensed under the Creative Commons
# Attribution-NonCommercial-ShareAlike 4.0 International License.
# To view a copy of this license, visit
# http://creativecommons.org/licenses/by-nc-sa/4.0/
# or send a letter to
# Creative Commons, PO Box 1866, Mountain View, CA 94042, USA.
#
# CIF created using the CSD Python API on 29 September 2022
# The structure has been converted into the P1 space group
# The structure has a 3D framework
# The original CSD entry ADODUU is in the monoclinic crystal system
# The original CSD entry ADODUU is in a Sohncke space group
# The framework has been calculated to contain at least 10.0% void space
# The void calculation uses a probe of radius 1.32A, grid spacing 0.4
#
###############################################################################

data_ADODUU
_chemical_formula_moiety         '(C104 H80 O35)n'
_symmetry_cell_setting           triclinic
_symmetry_space_group_name_H-M   'P 1'
_symmetry_Int_Tables_number      1
_space_group_name_Hall           'P 1'
loop_
_symmetry_equiv_pos_site_id
_symmetry_equiv_pos_as_xyz
1 x,y,z
_cell_length_a                   32.6663(15)
_cell_length_b                   7.0665(3)
_cell_length_c                   14.5262(7)
_cell_angle_alpha                90
_cell_angle_beta                 104.3980(10)
_cell_angle_gamma                90
_cell_volume                     3247.86
loop_
_atom_site_label
_atom_site_type_symbol
_atom_site_fract_x
_atom_site_fract_y
_atom_site_fract_z
O3 O 0.28321(19) 0.1905(7) 0.8433(4)
C8 C 0.3362(3) 0.0002(13) 0.7515(6)
H10 H 0.3304 0.1278 0.7389
C26 C 0.2920(2) 0.0205(10) 0.8658(5)
Tb4 Tb 0.251342(7) 0.25638(8) 0.969517(15)
Tb8 Tb 0.748658(7) 0.25638(8) 0.030483(15)
O15 O 0.71679(19) 0.1905(7) 0.1567(4)
C34 C 0.6638(3) 0.0002(13) 0.2485(6)
H30 H 0.6696 0.1278 0.2611
C52 C 0.7080(2) 0.0205(10) 0.1342(5)
Tb5 Tb 0.248658(7) 0.75638(8) 0.030483(15)
O12 O 0.80311(15) 0.0355(8) 0.0409(3)
O24 O 0.76387(14) 0.5703(7) 0.1106(3)
O27 O 0.80135(17) 0.3287(7) 0.1753(4)
O1 O 0.69689(15) 0.5355(8) 0.9591(3)
O2 O 0.67330(13) 0.2526(15) 0.9655(3)
O4 O 0.27922(15) 0.9446(7) 0.9335(3)
O5 O 0.26387(14) 0.0703(7) 0.1106(3)
O7 O 0.39621(17) 0.6124(8) 0.6821(4)
O8 O 0.39087(17) 0.4810(7) 0.4555(3)
O9 O 0.50616(16) 0.6265(8) 0.7200(4)
O10 O 0.5000 0.5801(10) 0.5000
C1 C 0.44663(19) 0.5742(10) 0.5870(4)
C2 C 0.4696(2) 0.6922(10) 0.5286(5)
H1 H 0.4495 0.7416 0.4730
H2 H 0.4834 0.7985 0.5661
C3 C 0.4238(2) 0.4083(11) 0.5302(5)
H3 H 0.4434 0.3348 0.5043
H4 H 0.4121 0.3266 0.5710
C4 C 0.4172(2) 0.7092(10) 0.6205(5)
H5 H 0.4332 0.8147 0.6540
H6 H 0.3964 0.7589 0.5661
C5 C 0.4789(2) 0.4847(11) 0.6707(5)
H7 H 0.4643 0.4239 0.7133
H8 H 0.4952 0.3892 0.6475
C6 C 0.3709(2) 0.7167(11) 0.7232(6)
C7 C 0.3624(3) 0.9060(14) 0.7030(7)
H9 H 0.3737 0.9689 0.6588
C9 C 0.3188(2) 0.9116(12) 0.8164(5)
C10 C 0.3266(3) 0.7165(14) 0.8322(6)
H11 H 0.3146 0.6516 0.8746
C11 C 0.3523(3) 0.6222(12) 0.7845(6)
H12 H 0.3569 0.4930 0.7942
C12 C 0.5443(2) 0.5691(11) 0.7762(5)
C13 C 0.5736(2) 0.7107(10) 0.8072(5)
H13 H 0.5667 0.8361 0.7913
C14 C 0.6137(2) 0.6648(11) 0.8625(5)
H14 H 0.6337 0.7594 0.8833
C15 C 0.6238(2) 0.4768(11) 0.8863(5)
C16 C 0.5936(2) 0.3407(12) 0.8556(5)
H15 H 0.6001 0.2151 0.8722
C17 C 0.5539(2) 0.3853(12) 0.8005(6)
H16 H 0.5339 0.2907 0.7802
C18 C 0.6668(2) 0.4178(11) 0.9405(5)
C19 C 0.3687(3) 0.3548(16) 0.3914(7)
C20 C 0.3766(3) 0.1641(16) 0.3898(8)
H17 H 0.3983 0.1113 0.4367
C21 C 0.3525(3) 0.0486(13) 0.3189(6)
C22 C 0.3185(2) 0.1255(12) 0.2530(5)
C23 C 0.3091(3) 0.3147(11) 0.2554(6)
H19 H 0.2859 0.3651 0.2117
C24 C 0.3347(3) 0.4305(11) 0.3239(6)
H20 H 0.3290 0.5593 0.3245
C25 C 0.2939(2) 0.0021(9) 0.1764(4)
Tb3 Tb 0.751342(7) 0.75638(8) 0.969517(15)
O11 O 0.30311(15) 0.5355(8) 0.0409(3)
O14 O 0.32670(13) 0.2526(15) 0.0345(3)
O18 O 0.72078(15) 0.9446(7) 0.0665(3)
O20 O 0.77922(15) 0.4446(7) 0.9335(3)
O22 O 0.22078(15) 0.4446(7) 0.0665(3)
O23 O 0.73613(14) 0.0703(7) 0.8894(3)
O29 O 0.60379(17) 0.6124(8) 0.3179(4)
O30 O 0.60913(17) 0.4810(7) 0.5445(3)
O31 O 0.49384(16) 0.6265(8) 0.2800(4)
C27 C 0.55337(19) 0.5742(10) 0.4130(4)
C28 C 0.5304(2) 0.6922(10) 0.4714(5)
H21 H 0.5505 0.7416 0.5270
H22 H 0.5166 0.7985 0.4339
C29 C 0.5762(2) 0.4083(11) 0.4698(5)
H23 H 0.5566 0.3348 0.4957
H24 H 0.5879 0.3266 0.4290
C30 C 0.5828(2) 0.7092(10) 0.3795(5)
H25 H 0.5668 0.8147 0.3460
H26 H 0.6036 0.7589 0.4339
C31 C 0.5211(2) 0.4847(11) 0.3293(5)
H27 H 0.5357 0.4239 0.2867
H28 H 0.5048 0.3892 0.3525
C32 C 0.6291(2) 0.7167(11) 0.2768(6)
C33 C 0.6376(3) 0.9060(14) 0.2970(7)
H29 H 0.6263 0.9689 0.3412
C35 C 0.6812(2) 0.9116(12) 0.1836(5)
C36 C 0.6734(3) 0.7165(14) 0.1678(6)
H31 H 0.6854 0.6516 0.1254
C37 C 0.6477(3) 0.6222(12) 0.2155(6)
H32 H 0.6431 0.4930 0.2058
C38 C 0.4557(2) 0.5691(11) 0.2238(5)
C39 C 0.4264(2) 0.7107(10) 0.1928(5)
H33 H 0.4333 0.8361 0.2087
C40 C 0.3863(2) 0.6648(11) 0.1375(5)
H34 H 0.3663 0.7594 0.1167
C41 C 0.3762(2) 0.4768(11) 0.1137(5)
C42 C 0.4064(2) 0.3407(12) 0.1444(5)
H35 H 0.3999 0.2151 0.1278
C43 C 0.4461(2) 0.3853(12) 0.1995(6)
H36 H 0.4661 0.2907 0.2198
C44 C 0.3332(2) 0.4178(11) 0.0595(5)
C45 C 0.6313(3) 0.3548(16) 0.6086(7)
C46 C 0.6234(3) 0.1641(16) 0.6102(8)
H37 H 0.6017 0.1113 0.5633
C47 C 0.6475(3) 0.0486(13) 0.6811(6)
C48 C 0.6815(2) 0.1255(12) 0.7470(5)
C49 C 0.6909(3) 0.3147(11) 0.7446(6)
H39 H 0.7141 0.3651 0.7883
C50 C 0.6653(3) 0.4305(11) 0.6761(6)
H40 H 0.6710 0.5593 0.6755
C51 C 0.7061(2) 0.0021(9) 0.8236(4)
O13 O 0.19689(15) 0.0355(8) 0.9591(3)
O25 O 0.23613(14) 0.5703(7) 0.8894(3)
O28 O 0.19865(17) 0.3287(7) 0.8247(4)
O6 O 0.30135(17) 0.8287(7) 0.1753(4)
H18 H 0.3593 0.9212 0.3158
O26 O 0.69865(17) 0.8287(7) 0.8247(4)
H38 H 0.6407 0.9212 0.6842
O9_2 O 0.00616(16) 0.1265(8) 0.7200(4)
O10_2 O 0.0000 0.0801(10) 0.5000
C12_2 C 0.0443(2) 0.0691(11) 0.7762(5)
C13_2 C 0.0736(2) 0.2107(10) 0.8072(5)
H13_2 H 0.0667 0.3361 0.7913
C14_2 C 0.1137(2) 0.1648(11) 0.8625(5)
H14_2 H 0.1337 0.2594 0.8833
O15_2 O 0.21679(19) 0.6905(7) 0.1567(4)
O29_2 O 0.10379(17) 0.1124(8) 0.3179(4)
C27_2 C 0.05337(19) 0.0742(10) 0.4130(4)
C28_2 C 0.0304(2) 0.1922(10) 0.4714(5)
H21_2 H 0.0505 0.2416 0.5270
H22_2 H 0.0166 0.2985 0.4339
C30_2 C 0.0828(2) 0.2092(10) 0.3795(5)
H25_2 H 0.0668 0.3147 0.3460
H26_2 H 0.1036 0.2589 0.4339
C32_2 C 0.1291(2) 0.2167(11) 0.2768(6)
C33_2 C 0.1376(3) 0.4060(14) 0.2970(7)
H29_2 H 0.1263 0.4689 0.3412
C34_2 C 0.1638(3) 0.5002(13) 0.2485(6)
H30_2 H 0.1696 0.6278 0.2611
C35_2 C 0.1812(2) 0.4116(12) 0.1836(5)
C36_2 C 0.1734(3) 0.2165(14) 0.1678(6)
H31_2 H 0.1854 0.1516 0.1254
C37_2 C 0.1477(3) 0.1222(12) 0.2155(6)
H40_2 H 0.1710 0.0593 0.6755
C52_2 C 0.2080(2) 0.5205(10) 0.1342(5)
O2_2 O 0.17330(13) 0.7526(15) 0.9655(3)
C15_2 C 0.1238(2) 0.9768(11) 0.8863(5)
C16_2 C 0.0936(2) 0.8407(12) 0.8556(5)
H15_2 H 0.1001 0.7151 0.8722
C17_2 C 0.0539(2) 0.8853(12) 0.8005(6)
H16_2 H 0.0339 0.7907 0.7802
C18_2 C 0.1668(2) 0.9178(11) 0.9405(5)
O30_2 O 0.10913(17) 0.9810(7) 0.5445(3)
C29_2 C 0.0762(2) 0.9083(11) 0.4698(5)
H23_2 H 0.0566 0.8348 0.4957
H24_2 H 0.0879 0.8266 0.4290
C31_2 C 0.0211(2) 0.9847(11) 0.3293(5)
H27_2 H 0.0357 0.9239 0.2867
H28_2 H 0.0048 0.8892 0.3525
H32_2 H 0.1431 0.9930 0.2058
C45_2 C 0.1313(3) 0.8548(16) 0.6086(7)
C46_2 C 0.1234(3) 0.6641(16) 0.6102(8)
H37_2 H 0.1017 0.6113 0.5633
C47_2 C 0.1475(3) 0.5486(13) 0.6811(6)
H38_2 H 0.1407 0.4212 0.6842
C48_2 C 0.1815(2) 0.6255(12) 0.7470(5)
C49_2 C 0.1909(3) 0.8147(11) 0.7446(6)
H39_2 H 0.2141 0.8651 0.7883
C50_2 C 0.1653(3) 0.9305(11) 0.6761(6)
C51_2 C 0.2061(2) 0.5021(9) 0.8236(4)
O3_2 O 0.78321(19) 0.6905(7) 0.8433(4)
O7_2 O 0.89621(17) 0.1124(8) 0.6821(4)
O10_3 O 1.0000 0.0801(10) 0.5000
C1_2 C 0.94663(19) 0.0742(10) 0.5870(4)
C2_2 C 0.9696(2) 0.1922(10) 0.5286(5)
H1_2 H 0.9495 0.2416 0.4730
H2_2 H 0.9834 0.2985 0.5661
C4_2 C 0.9172(2) 0.2092(10) 0.6205(5)
H5_2 H 0.9332 0.3147 0.6540
H6_2 H 0.8964 0.2589 0.5661
C6_2 C 0.8709(2) 0.2167(11) 0.7232(6)
C7_2 C 0.8624(3) 0.4060(14) 0.7030(7)
H9_2 H 0.8737 0.4689 0.6588
C8_2 C 0.8362(3) 0.5002(13) 0.7515(6)
H10_2 H 0.8304 0.6278 0.7389
C9_2 C 0.8188(2) 0.4116(12) 0.8164(5)
C10_2 C 0.8266(3) 0.2165(14) 0.8322(6)
H11_2 H 0.8146 0.1516 0.8746
C11_2 C 0.8523(3) 0.1222(12) 0.7845(6)
H20_2 H 0.8290 0.0593 0.3245
C26_2 C 0.7920(2) 0.5205(10) 0.8658(5)
O31_2 O 0.99384(16) 0.1265(8) 0.2800(4)
C38_2 C 0.9557(2) 0.0691(11) 0.2238(5)
C39_2 C 0.9264(2) 0.2107(10) 0.1928(5)
H33_2 H 0.9333 0.3361 0.2087
C40_2 C 0.8863(2) 0.1648(11) 0.1375(5)
H34_2 H 0.8663 0.2594 0.1167
O8_2 O 0.89087(17) 0.9810(7) 0.4555(3)
C3_2 C 0.9238(2) 0.9083(11) 0.5302(5)
H3_2 H 0.9434 0.8348 0.5043
H4_2 H 0.9121 0.8266 0.5710
C5_2 C 0.9789(2) 0.9847(11) 0.6707(5)
H7_2 H 0.9643 0.9239 0.7133
H8_2 H 0.9952 0.8892 0.6475
H12_2 H 0.8569 0.9930 0.7942
C19_2 C 0.8687(3) 0.8548(16) 0.3914(7)
C20_2 C 0.8766(3) 0.6641(16) 0.3898(8)
H17_2 H 0.8983 0.6113 0.4367
C21_2 C 0.8525(3) 0.5486(13) 0.3189(6)
H18_2 H 0.8593 0.4212 0.3158
C22_2 C 0.8185(2) 0.6255(12) 0.2530(5)
C23_2 C 0.8091(3) 0.8147(11) 0.2554(6)
H19_2 H 0.7859 0.8651 0.2117
C24_2 C 0.8347(3) 0.9305(11) 0.3239(6)
C25_2 C 0.7939(2) 0.5021(9) 0.1764(4)
O14_2 O 0.82670(13) 0.7526(15) 0.0345(3)
C41_2 C 0.8762(2) 0.9768(11) 0.1137(5)
C42_2 C 0.9064(2) 0.8407(12) 0.1444(5)
H35_2 H 0.8999 0.7151 0.1278
C43_2 C 0.9461(2) 0.8853(12) 0.1995(6)
H36_2 H 0.9661 0.7907 0.2198
C44_2 C 0.8332(2) 0.9178(11) 0.0595(5)
loop_
_geom_bond_atom_site_label_1
_geom_bond_atom_site_label_2
_geom_bond_site_symmetry_1
_geom_bond_site_symmetry_2
O3 C26 1_555 1_555
H10 C8 1_555 1_555
Tb4 O3 1_555 1_555
Tb8 O15 1_555 1_555
O15 C52 1_555 1_555
H30 C34 1_555 1_555
O12 Tb8 1_555 1_555
O24 Tb8 1_555 1_555
O27 Tb8 1_555 1_555
O1 C18 1_555 1_555
O5 C25 1_555 1_555
O7 C4 1_555 1_555
O8 C3 1_555 1_555
O9 C5 1_555 1_555
O10 C2 1_555 1_555
C1 C2 1_555 1_555
C2 H1 1_555 1_555
H2 C2 1_555 1_555
C3 C1 1_555 1_555
H3 C3 1_555 1_555
H4 C3 1_555 1_555
C4 C1 1_555 1_555
H5 C4 1_555 1_555
H6 C4 1_555 1_555
C5 C1 1_555 1_555
H7 C5 1_555 1_555
H8 C5 1_555 1_555
C6 O7 1_555 1_555
C7 C6 1_555 1_555
H9 C7 1_555 1_555
C10 C9 1_555 1_555
H11 C10 1_555 1_555
C11 C6 1_555 1_555
H12 C11 1_555 1_555
C12 O9 1_555 1_555
C13 C12 1_555 1_555
H13 C13 1_555 1_555
C14 C13 1_555 1_555
H14 C14 1_555 1_555
C15 C14 1_555 1_555
C16 C15 1_555 1_555
H15 C16 1_555 1_555
C17 C12 1_555 1_555
H16 C17 1_555 1_555
C18 O2 1_555 1_555
C19 O8 1_555 1_555
C20 C19 1_555 1_555
H17 C20 1_555 1_555
C21 C20 1_555 1_555
C22 C21 1_555 1_555
C23 C22 1_555 1_555
H19 C23 1_555 1_555
C24 C19 1_555 1_555
H20 C24 1_555 1_555
C25 C22 1_555 1_555
Tb3 O1 1_555 1_555
Tb5 O11 1_555 1_555
O29 C30 1_555 1_555
O30 C29 1_555 1_555
O31 C31 1_555 1_555
C27 C28 1_555 1_555
C28 O10 1_555 1_555
H21 C28 1_555 1_555
H22 C28 1_555 1_555
C29 C27 1_555 1_555
H23 C29 1_555 1_555
H24 C29 1_555 1_555
C30 C27 1_555 1_555
H25 C30 1_555 1_555
H26 C30 1_555 1_555
C31 C27 1_555 1_555
H27 C31 1_555 1_555
H28 C31 1_555 1_555
C32 O29 1_555 1_555
C33 C32 1_555 1_555
H29 C33 1_555 1_555
C36 C35 1_555 1_555
H31 C36 1_555 1_555
C37 C32 1_555 1_555
H32 C37 1_555 1_555
C38 O31 1_555 1_555
C39 C38 1_555 1_555
H33 C39 1_555 1_555
C40 C39 1_555 1_555
H34 C40 1_555 1_555
C41 C40 1_555 1_555
C42 C41 1_555 1_555
H35 C42 1_555 1_555
C43 C38 1_555 1_555
H36 C43 1_555 1_555
C44 O11 1_555 1_555
C45 O30 1_555 1_555
C46 C45 1_555 1_555
H37 C46 1_555 1_555
C47 C46 1_555 1_555
C48 C47 1_555 1_555
C49 C48 1_555 1_555
H39 C49 1_555 1_555
C50 C45 1_555 1_555
H40 C50 1_555 1_555
C51 O23 1_555 1_555
C10 C11 1_555 1_555
C15 C18 1_555 1_555
C16 C17 1_555 1_555
C23 C24 1_555 1_555
Tb3 O20 1_555 1_555
Tb5 O22 1_555 1_555
O14 C44 1_555 1_555
C36 C37 1_555 1_555
C41 C44 1_555 1_555
C42 C43 1_555 1_555
C48 C51 1_555 1_555
C49 C50 1_555 1_555
O13 Tb4 1_555 1_555
O25 Tb4 1_555 1_555
O28 Tb4 1_555 1_555
O26 Tb3 1_555 1_555
O6 Tb5 1_555 1_555
C12_2 O9_2 1_555 1_555
C13_2 C12_2 1_555 1_555
H13_2 C13_2 1_555 1_555
C14_2 C13_2 1_555 1_555
H14_2 C14_2 1_555 1_555
Tb5 O15_2 1_555 1_555
O15_2 C52_2 1_555 1_555
O29_2 C30_2 1_555 1_555
C27_2 C28_2 1_555 1_555
C28_2 O10_2 1_555 1_555
H21_2 C28_2 1_555 1_555
H22_2 C28_2 1_555 1_555
C30_2 C27_2 1_555 1_555
H25_2 C30_2 1_555 1_555
H26_2 C30_2 1_555 1_555
C32_2 O29_2 1_555 1_555
C33_2 C32_2 1_555 1_555
H29_2 C33_2 1_555 1_555
C34_2 C33_2 1_555 1_555
H30_2 C34_2 1_555 1_555
C35_2 C34_2 1_555 1_555
C36_2 C35_2 1_555 1_555
H31_2 C36_2 1_555 1_555
C37_2 C32_2 1_555 1_555
C52_2 O22 1_555 1_555
C35_2 C52_2 1_555 1_555
C36_2 C37_2 1_555 1_555
C16_2 C15_2 1_555 1_555
H15_2 C16_2 1_555 1_555
H16_2 C17_2 1_555 1_555
C18_2 O2_2 1_555 1_555
O30_2 C29_2 1_555 1_555
H23_2 C29_2 1_555 1_555
H24_2 C29_2 1_555 1_555
H27_2 C31_2 1_555 1_555
H28_2 C31_2 1_555 1_555
C45_2 O30_2 1_555 1_555
C46_2 C45_2 1_555 1_555
H37_2 C46_2 1_555 1_555
C47_2 C46_2 1_555 1_555
H38_2 C47_2 1_555 1_555
C48_2 C47_2 1_555 1_555
C49_2 C48_2 1_555 1_555
H39_2 C49_2 1_555 1_555
C50_2 C45_2 1_555 1_555
C51_2 O25 1_555 1_555
C15_2 C18_2 1_555 1_555
C16_2 C17_2 1_555 1_555
O28 C51_2 1_555 1_555
C48_2 C51_2 1_555 1_555
C49_2 C50_2 1_555 1_555
O3_2 C26_2 1_555 1_555
O20 C26_2 1_555 1_555
O7_2 C4_2 1_555 1_555
O10_3 C2_2 1_555 1_555
C1_2 C2_2 1_555 1_555
C2_2 H1_2 1_555 1_555
H2_2 C2_2 1_555 1_555
C4_2 C1_2 1_555 1_555
H5_2 C4_2 1_555 1_555
H6_2 C4_2 1_555 1_555
C6_2 O7_2 1_555 1_555
C7_2 C6_2 1_555 1_555
H9_2 C7_2 1_555 1_555
C8_2 C7_2 1_555 1_555
H10_2 C8_2 1_555 1_555
C9_2 C8_2 1_555 1_555
C10_2 C9_2 1_555 1_555
H11_2 C10_2 1_555 1_555
C11_2 C6_2 1_555 1_555
C26_2 C9_2 1_555 1_555
Tb3 O3_2 1_555 1_555
C38_2 O31_2 1_555 1_555
C39_2 C38_2 1_555 1_555
H33_2 C39_2 1_555 1_555
C40_2 C39_2 1_555 1_555
H34_2 C40_2 1_555 1_555
C10_2 C11_2 1_555 1_555
O24 C25_2 1_555 1_555
O27 C25_2 1_555 1_555
O8_2 C3_2 1_555 1_555
H3_2 C3_2 1_555 1_555
H4_2 C3_2 1_555 1_555
H7_2 C5_2 1_555 1_555
H8_2 C5_2 1_555 1_555
C19_2 O8_2 1_555 1_555
C20_2 C19_2 1_555 1_555
H17_2 C20_2 1_555 1_555
C21_2 C20_2 1_555 1_555
H18_2 C21_2 1_555 1_555
C22_2 C21_2 1_555 1_555
C23_2 C22_2 1_555 1_555
H19_2 C23_2 1_555 1_555
C24_2 C19_2 1_555 1_555
C25_2 C22_2 1_555 1_555
C42_2 C41_2 1_555 1_555
H35_2 C42_2 1_555 1_555
H36_2 C43_2 1_555 1_555
C23_2 C24_2 1_555 1_555
O14_2 C44_2 1_555 1_555
C41_2 C44_2 1_555 1_555
C42_2 C43_2 1_555 1_555

#END
