
###############################################################################
#
# This file contains modified crystal structure data generated from the
# MOF subset of the Cambridge Structural Database (CSD) v543 
# hosted by the Cambridge Crystallographic Data Centre (CCDC).
#
# This work is licensed under the Creative Commons
# Attribution-NonCommercial-ShareAlike 4.0 International License.
# To view a copy of this license, visit
# http://creativecommons.org/licenses/by-nc-sa/4.0/
# or send a letter to
# Creative Commons, PO Box 1866, Mountain View, CA 94042, USA.
#
# CIF created using the CSD Python API on 29 September 2022
# The structure has been converted into the P1 space group
# The structure has a 3D framework
# The original CSD entry ADOFOS is in the orthorhombic crystal system
# The framework has been calculated to contain at least 10.0% void space
# The void calculation uses a probe of radius 1.32A, grid spacing 0.4
#
###############################################################################

data_ADOFOS
_chemical_formula_moiety         '(C128 H120 B8 Cd8 N68 O16)n'
_symmetry_cell_setting           triclinic
_symmetry_space_group_name_H-M   'P 1'
_symmetry_Int_Tables_number      1
_space_group_name_Hall           'P 1'
loop_
_symmetry_equiv_pos_site_id
_symmetry_equiv_pos_as_xyz
1 x,y,z
_cell_length_a                   14.5952(9)
_cell_length_b                   14.5216(11)
_cell_length_c                   21.1317(13)
_cell_angle_alpha                90
_cell_angle_beta                 90
_cell_angle_gamma                90
_cell_volume                     4478.77
loop_
_atom_site_label
_atom_site_type_symbol
_atom_site_fract_x
_atom_site_fract_y
_atom_site_fract_z
Cd1 Cd 0.17384(2) 0.20352(2) 0.121538(16)
C1 C 0.4799(4) 0.1859(3) 0.1283(3)
H1 H 0.5365 0.1566 0.1304
N1 N 0.4649(3) 0.2792(3) 0.13027(19)
C2 C 0.3731(3) 0.2890(3) 0.1237(2)
H2 H 0.3437 0.3458 0.1227
N2 N 0.5840(3) 0.3791(3) 0.07512(19)
N3 N 0.6673(3) 0.2713(3) 0.2772(2)
O1 O 0.1852(3) 0.3580(3) 0.0661(2)
N4 N 0.4838(3) 0.4456(3) 0.1608(2)
O2 O 0.0533(3) 0.3030(3) 0.1013(2)
C3 C 0.4428(4) 0.5106(3) 0.1251(2)
H3 H 0.4490 0.5141 0.0813
N6 N 0.6057(3) 0.3314(3) 0.1898(2)
C4 C 0.3972(4) 0.1442(4) 0.1227(3)
H4 H 0.3879 0.0808 0.1214
C5 C 0.4568(4) 0.4653(4) 0.2220(2)
H5 H 0.4739 0.4331 0.2581
N7 N 0.3294(3) 0.2092(3) 0.1191(2)
C6 C 0.0997(5) 0.3619(4) 0.0703(3)
N8 N 0.3929(3) 0.5690(3) 0.1586(2)
C7 C 0.0480(4) 0.4347(4) 0.0353(3)
C8 C 0.6763(4) 0.4404(4) 0.0045(3)
C9 C 0.5974(4) 0.2721(4) 0.2383(3)
H7 H 0.5462 0.2347 0.2438
B1 B 0.5350(4) 0.3583(4) 0.1389(3)
C11 C 0.4015(4) 0.5394(4) 0.2201(3)
H9 H 0.3735 0.5664 0.2550
C13 C 0.6395(4) 0.4542(4) 0.0623(3)
H10 H 0.6495 0.5046 0.0886
C14 C 0.5909(4) 0.3242(4) 0.0239(2)
H11 H 0.5603 0.2683 0.0199
C15 C 0.7252(5) 0.3334(6) 0.2515(4)
H12 H 0.7824 0.3484 0.2680
C16 C 0.6891(5) 0.3708(6) 0.1990(4)
H15 H 0.7162 0.4155 0.1737
Cd6 Cd 0.67384(2) 0.20352(2) 0.378462(16)
Cd8 Cd 0.32616(2) 0.70352(2) 0.121538(16)
N20 N 0.1673(3) 0.2713(3) 0.2228(2)
N21 N 0.1456(3) 0.1420(3) 0.0199(2)
N24 N 0.1071(3) 0.0690(3) 0.1586(2)
N5 N 0.6456(3) 0.3580(3) 0.9801(2)
H6 H 0.7164 0.4805 0.9842
C10 C 0.0859(4) 0.4716(4) 0.9813(3)
H8 H 0.1440 0.4533 0.9686
C20 C 0.0379(5) 0.5362(4) 0.9457(3)
N10 N 0.0766(7) 0.5640(6) 0.8910(4)
H17 H 0.0477 0.6013 0.8665
H18 H 0.1302 0.5445 0.8807
Cd5 Cd 0.67384(2) 0.29648(2) 0.878462(16)
C12 C 0.9621(5) 0.4638(4) 0.0543(3)
N9 N 0.9234(7) 0.4360(6) 0.1090(4)
H13 H 0.9523 0.3987 0.1335
H14 H 0.8698 0.4555 0.1193
C19 C 0.9141(4) 0.5284(4) 0.0187(3)
H16 H 0.8560 0.5467 0.0314
N15 N 0.3544(3) 0.6420(3) 0.0199(2)
H24 H 0.2836 0.5195 0.0158
O3 O 0.8148(3) 0.6420(3) 0.9339(2)
O4 O 0.9467(3) 0.6970(3) 0.8987(2)
C17 C 0.9003(5) 0.6381(4) 0.9297(3)
C18 C 0.9520(4) 0.5653(4) 0.9647(3)
Cd2 Cd 0.82616(2) 0.79648(2) 0.878462(16)
C21 C 0.5201(4) 0.8141(3) 0.8717(3)
H19 H 0.4635 0.8434 0.8696
N11 N 0.5351(3) 0.7208(3) 0.86973(19)
C22 C 0.6269(3) 0.7110(3) 0.8763(2)
H20 H 0.6563 0.6542 0.8773
N12 N 0.4160(3) 0.6209(3) 0.92488(19)
N13 N 0.3327(3) 0.7287(3) 0.7228(2)
N14 N 0.5162(3) 0.5544(3) 0.8392(2)
C23 C 0.5572(4) 0.4894(3) 0.8749(2)
H21 H 0.5510 0.4859 0.9187
N16 N 0.3943(3) 0.6686(3) 0.8102(2)
C24 C 0.6028(4) 0.8558(4) 0.8773(3)
H22 H 0.6121 0.9192 0.8786
C25 C 0.5432(4) 0.5347(4) 0.7780(2)
H23 H 0.5261 0.5669 0.7419
N17 N 0.6706(3) 0.7908(3) 0.8809(2)
N18 N 0.6071(3) 0.4310(3) 0.8414(2)
C26 C 0.3237(4) 0.5596(4) 0.9955(3)
C27 C 0.4026(4) 0.7279(4) 0.7617(3)
H25 H 0.4538 0.7653 0.7562
B2 B 0.4650(4) 0.6417(4) 0.8611(3)
C28 C 0.5985(4) 0.4606(4) 0.7799(3)
H26 H 0.6265 0.4336 0.7450
C29 C 0.3605(4) 0.5458(4) 0.9377(3)
H27 H 0.3505 0.4954 0.9114
C30 C 0.4091(4) 0.6758(4) 0.9761(2)
H28 H 0.4397 0.7317 0.9801
C31 C 0.2748(5) 0.6666(6) 0.7485(4)
H29 H 0.2176 0.6516 0.7320
C32 C 0.3109(5) 0.6292(6) 0.8010(4)
H30 H 0.2838 0.5845 0.8263
Cd3 Cd 0.32616(2) 0.79648(2) 0.621538(16)
N19 N 0.8327(3) 0.7287(3) 0.7772(2)
N22 N 0.8544(3) 0.8580(3) 0.9801(2)
N23 N 0.8929(3) 0.9310(3) 0.8414(2)
H19_2 H 0.0365 0.1566 0.3696
N12_2 N 0.0840(3) 0.3791(3) 0.42488(19)
N15_2 N 0.1456(3) 0.3580(3) 0.5199(2)
N16_2 N 0.1057(3) 0.3314(3) 0.3102(2)
C26_2 C 0.1763(4) 0.4404(4) 0.4955(3)
H24_2 H 0.2164 0.4805 0.5158
C27_2 C 0.0974(4) 0.2721(4) 0.2617(3)
H25_2 H 0.0462 0.2347 0.2562
B2_2 B 0.0350(4) 0.3583(4) 0.3611(3)
C29_2 C 0.1395(4) 0.4542(4) 0.4377(3)
H27_2 H 0.1495 0.5046 0.4114
C30_2 C 0.0909(4) 0.3242(4) 0.4761(2)
H28_2 H 0.0603 0.2683 0.4801
C31_2 C 0.2252(5) 0.3334(6) 0.2485(4)
H29_2 H 0.2824 0.3484 0.2320
C32_2 C 0.1891(5) 0.3708(6) 0.3010(4)
H30_2 H 0.2162 0.4155 0.3263
Cd7 Cd 0.17384(2) 0.29648(2) 0.621538(16)
C1_2 C 0.0201(4) 0.8141(3) 0.6283(3)
N1_2 N 0.0351(3) 0.7208(3) 0.63027(19)
C2_2 C 0.1269(3) 0.7110(3) 0.6237(2)
H2_2 H 0.1563 0.6542 0.6227
O1_2 O 0.3148(3) 0.6420(3) 0.5661(2)
N4_2 N 0.0162(3) 0.5544(3) 0.6608(2)
O2_2 O 0.4467(3) 0.6970(3) 0.6013(2)
C3_2 C 0.0572(4) 0.4894(3) 0.6251(2)
H3_2 H 0.0510 0.4859 0.5813
C4_2 C 0.1028(4) 0.8558(4) 0.6227(3)
H4_2 H 0.1121 0.9192 0.6214
C5_2 C 0.0432(4) 0.5347(4) 0.7220(2)
H5_2 H 0.0261 0.5669 0.7581
N7_2 N 0.1706(3) 0.7908(3) 0.6191(2)
C6_2 C 0.4003(5) 0.6381(4) 0.5703(3)
N8_2 N 0.1071(3) 0.4310(3) 0.6586(2)
C7_2 C 0.4520(4) 0.5653(4) 0.5353(3)
C10_2 C 0.4141(4) 0.5284(4) 0.4813(3)
H8_2 H 0.3560 0.5467 0.4686
C11_2 C 0.0985(4) 0.4606(4) 0.7201(3)
H9_2 H 0.1265 0.4336 0.7550
C12_2 C 0.5379(5) 0.5362(4) 0.5543(3)
N9_2 N 0.5766(7) 0.5640(6) 0.6090(4)
H13_2 H 0.5477 0.6013 0.6335
H14_2 H 0.6302 0.5445 0.6193
O3_2 O 0.6852(3) 0.3580(3) 0.4339(2)
O4_2 O 0.5533(3) 0.3030(3) 0.3987(2)
C17_2 C 0.5997(5) 0.3619(4) 0.4297(3)
C18_2 C 0.5480(4) 0.4347(4) 0.4647(3)
C19_2 C 0.5859(4) 0.4716(4) 0.5187(3)
H16_2 H 0.6440 0.4533 0.5314
C20_2 C 0.4621(5) 0.4638(4) 0.4457(3)
N10_2 N 0.4234(7) 0.4360(6) 0.3910(4)
H17_2 H 0.4523 0.3987 0.3665
H18_2 H 0.3698 0.4555 0.3807
C21_2 C 0.9799(4) 0.1859(3) 0.3717(3)
N11_2 N 0.9649(3) 0.2792(3) 0.36973(19)
C22_2 C 0.8731(3) 0.2890(3) 0.3763(2)
H20_2 H 0.8437 0.3458 0.3773
N14_2 N 0.9838(3) 0.4456(3) 0.3392(2)
C23_2 C 0.9428(4) 0.5106(3) 0.3749(2)
H21_2 H 0.9490 0.5141 0.4187
C24_2 C 0.8972(4) 0.1442(4) 0.3773(3)
H22_2 H 0.8879 0.0808 0.3786
C25_2 C 0.9568(4) 0.4653(4) 0.2780(2)
H23_2 H 0.9739 0.4331 0.2419
N17_2 N 0.8294(3) 0.2092(3) 0.3809(2)
N18_2 N 0.8929(3) 0.5690(3) 0.3414(2)
C28_2 C 0.9015(4) 0.5394(4) 0.2799(3)
H26_2 H 0.8735 0.5664 0.2450
Cd4 Cd 0.82616(2) 0.70352(2) 0.378462(16)
N21_2 N 0.3544(3) 0.8580(3) 0.5199(2)
N22_2 N 0.6456(3) 0.1420(3) 0.4801(2)
N23_2 N 0.6071(3) 0.0690(3) 0.3414(2)
N24_2 N 0.3929(3) 0.9310(3) 0.6586(2)
H1_2 H 0.9635 0.8434 0.6304
N2_2 N 0.9160(3) 0.6209(3) 0.57512(19)
N5_2 N 0.8544(3) 0.6420(3) 0.4801(2)
N6_2 N 0.8943(3) 0.6686(3) 0.6898(2)
C8_2 C 0.8237(4) 0.5596(4) 0.5045(3)
H6_2 H 0.7836 0.5195 0.4842
C9_2 C 0.9026(4) 0.7279(4) 0.7383(3)
H7_2 H 0.9538 0.7653 0.7438
B1_2 B 0.9650(4) 0.6417(4) 0.6389(3)
C13_2 C 0.8605(4) 0.5458(4) 0.5623(3)
H10_2 H 0.8505 0.4954 0.5886
C14_2 C 0.9091(4) 0.6758(4) 0.5239(2)
H11_2 H 0.9397 0.7317 0.5199
C15_2 C 0.7748(5) 0.6666(6) 0.7515(4)
H12_2 H 0.7176 0.6516 0.7680
C16_2 C 0.8109(5) 0.6292(6) 0.6990(4)
H15_2 H 0.7838 0.5845 0.6737
O3_3 O 0.1852(3) 0.1420(3) 0.5661(2)
O4_3 O 0.0533(3) 0.1970(3) 0.6013(2)
C17_3 C 0.0997(5) 0.1381(4) 0.5703(3)
C18_3 C 0.0480(4) 0.0653(4) 0.5353(3)
C19_3 C 0.0859(4) 0.0284(4) 0.4813(3)
H16_3 H 0.1440 0.0467 0.4686
C21_3 C 0.4799(4) 0.3141(3) 0.6283(3)
H19_3 H 0.5365 0.3434 0.6304
N11_3 N 0.4649(3) 0.2208(3) 0.63027(19)
C22_3 C 0.3731(3) 0.2110(3) 0.6237(2)
H20_3 H 0.3437 0.1542 0.6227
N12_3 N 0.5840(3) 0.1209(3) 0.57512(19)
N13_2 N 0.6673(3) 0.2287(3) 0.7772(2)
N14_3 N 0.4838(3) 0.0544(3) 0.6608(2)
N16_3 N 0.6057(3) 0.1686(3) 0.6898(2)
C24_3 C 0.3972(4) 0.3558(4) 0.6227(3)
H22_3 H 0.3879 0.4192 0.6214
C25_3 C 0.4568(4) 0.0347(4) 0.7220(2)
H23_3 H 0.4739 0.0669 0.7581
N17_3 N 0.3294(3) 0.2908(3) 0.6191(2)
C26_3 C 0.6763(4) 0.0596(4) 0.5045(3)
H24_3 H 0.7164 0.0195 0.4842
C27_3 C 0.5974(4) 0.2279(4) 0.7383(3)
H25_3 H 0.5462 0.2653 0.7438
B2_3 B 0.5350(4) 0.1417(4) 0.6389(3)
C29_3 C 0.6395(4) 0.0458(4) 0.5623(3)
C30_3 C 0.5909(4) 0.1758(4) 0.5239(2)
H28_3 H 0.5603 0.2317 0.5199
C31_3 C 0.7252(5) 0.1666(6) 0.7515(4)
H29_3 H 0.7824 0.1516 0.7680
C32_3 C 0.6891(5) 0.1292(6) 0.6990(4)
H30_3 H 0.7162 0.0845 0.6737
N19_2 N 0.1673(3) 0.2287(3) 0.7228(2)
C12_3 C 0.0379(5) 0.9638(4) 0.4457(3)
N9_3 N 0.0766(7) 0.9360(6) 0.3910(4)
H13_3 H 0.0477 0.8987 0.3665
H14_3 H 0.1302 0.9555 0.3807
C23_3 C 0.4428(4) 0.9894(3) 0.6251(2)
H21_3 H 0.4490 0.9859 0.5813
C28_3 C 0.4015(4) 0.9606(4) 0.7201(3)
H26_3 H 0.3735 0.9336 0.7550
H27_3 H 0.6495 0.9954 0.5886
C3_3 C 0.5572(4) 0.0106(3) 0.3749(2)
H3_3 H 0.5510 0.0141 0.4187
C11_3 C 0.5985(4) 0.0394(4) 0.2799(3)
H9_3 H 0.6265 0.0664 0.2450
H10_3 H 0.3505 0.0046 0.4114
C20_3 C 0.9621(5) 0.0362(4) 0.5543(3)
N10_3 N 0.9234(7) 0.0640(6) 0.6090(4)
H17_3 H 0.9523 0.1013 0.6335
H18_3 H 0.8698 0.0445 0.6193
C1_3 C 0.5201(4) 0.6859(3) 0.3717(3)
H1_3 H 0.4635 0.6566 0.3696
N1_3 N 0.5351(3) 0.7792(3) 0.36973(19)
C2_3 C 0.6269(3) 0.7890(3) 0.3763(2)
H2_3 H 0.6563 0.8458 0.3773
N2_3 N 0.4160(3) 0.8791(3) 0.42488(19)
N3_2 N 0.3327(3) 0.7713(3) 0.2228(2)
O1_3 O 0.8148(3) 0.8580(3) 0.4339(2)
N4_3 N 0.5162(3) 0.9456(3) 0.3392(2)
O2_3 O 0.9467(3) 0.8030(3) 0.3987(2)
N6_3 N 0.3943(3) 0.8314(3) 0.3102(2)
C4_3 C 0.6028(4) 0.6442(4) 0.3773(3)
H4_3 H 0.6121 0.5808 0.3786
C5_3 C 0.5432(4) 0.9653(4) 0.2780(2)
H5_3 H 0.5261 0.9331 0.2419
N7_3 N 0.6706(3) 0.7092(3) 0.3809(2)
C6_3 C 0.9003(5) 0.8619(4) 0.4297(3)
C7_3 C 0.9520(4) 0.9347(4) 0.4647(3)
C8_3 C 0.3237(4) 0.9404(4) 0.4955(3)
H6_3 H 0.2836 0.9805 0.5158
C9_3 C 0.4026(4) 0.7721(4) 0.2617(3)
H7_3 H 0.4538 0.7347 0.2562
C10_3 C 0.9141(4) 0.9716(4) 0.5187(3)
H8_3 H 0.8560 0.9533 0.5314
B1_3 B 0.4650(4) 0.8583(4) 0.3611(3)
C13_3 C 0.3605(4) 0.9542(4) 0.4377(3)
C14_3 C 0.4091(4) 0.8242(4) 0.4761(2)
H11_3 H 0.4397 0.7683 0.4801
C15_3 C 0.2748(5) 0.8334(6) 0.2485(4)
H12_3 H 0.2176 0.8484 0.2320
C16_3 C 0.3109(5) 0.8708(6) 0.3010(4)
H15_3 H 0.2838 0.9155 0.3263
N20_2 N 0.8327(3) 0.7713(3) 0.2772(2)
H6_4 H 0.2164 0.0195 0.0158
H1_4 H 0.0365 0.3434 0.8696
N2_4 N 0.0840(3) 0.1209(3) 0.92488(19)
N6_4 N 0.1057(3) 0.1686(3) 0.8102(2)
C8_4 C 0.1763(4) 0.0596(4) 0.9955(3)
C9_4 C 0.0974(4) 0.2279(4) 0.7617(3)
H7_4 H 0.0462 0.2653 0.7562
B1_4 B 0.0350(4) 0.1417(4) 0.8611(3)
C13_4 C 0.1395(4) 0.0458(4) 0.9377(3)
C14_4 C 0.0909(4) 0.1758(4) 0.9761(2)
H11_4 H 0.0603 0.2317 0.9801
C15_4 C 0.2252(5) 0.1666(6) 0.7485(4)
H12_4 H 0.2824 0.1516 0.7320
C16_4 C 0.1891(5) 0.1292(6) 0.8010(4)
H15_4 H 0.2162 0.0845 0.8263
C10_4 C 0.5859(4) 0.0284(4) 0.0187(3)
H8_4 H 0.6440 0.0467 0.0314
C23_4 C 0.0572(4) 0.0106(3) 0.1251(2)
H21_4 H 0.0510 0.0141 0.0813
C28_4 C 0.0985(4) 0.0394(4) 0.2201(3)
H26_4 H 0.1265 0.0664 0.2550
C1_4 C 0.9799(4) 0.3141(3) 0.8717(3)
N1_4 N 0.9649(3) 0.2208(3) 0.86973(19)
C2_4 C 0.8731(3) 0.2110(3) 0.8763(2)
H2_4 H 0.8437 0.1542 0.8773
O1_4 O 0.6852(3) 0.1420(3) 0.9339(2)
N4_4 N 0.9838(3) 0.0544(3) 0.8392(2)
O2_4 O 0.5533(3) 0.1970(3) 0.8987(2)
C4_4 C 0.8972(4) 0.3558(4) 0.8773(3)
H4_4 H 0.8879 0.4192 0.8786
C5_4 C 0.9568(4) 0.0347(4) 0.7780(2)
H5_4 H 0.9739 0.0669 0.7419
N7_4 N 0.8294(3) 0.2908(3) 0.8809(2)
C6_4 C 0.5997(5) 0.1381(4) 0.9297(3)
C7_4 C 0.5480(4) 0.0653(4) 0.9647(3)
C12_4 C 0.4621(5) 0.0362(4) 0.9457(3)
N9_4 N 0.4234(7) 0.0640(6) 0.8910(4)
H13_4 H 0.4523 0.1013 0.8665
H14_4 H 0.3698 0.0445 0.8807
O3_4 O 0.3148(3) 0.8580(3) 0.0661(2)
O4_4 O 0.4467(3) 0.8030(3) 0.1013(2)
C17_4 C 0.4003(5) 0.8619(4) 0.0703(3)
C18_4 C 0.4520(4) 0.9347(4) 0.0353(3)
C20_4 C 0.5379(5) 0.9638(4) 0.0543(3)
N10_4 N 0.5766(7) 0.9360(6) 0.1090(4)
H17_4 H 0.5477 0.8987 0.1335
H18_4 H 0.6302 0.9555 0.1193
C21_4 C 0.0201(4) 0.6859(3) 0.1283(3)
N11_4 N 0.0351(3) 0.7792(3) 0.13027(19)
C22_4 C 0.1269(3) 0.7890(3) 0.1237(2)
H20_4 H 0.1563 0.8458 0.1227
N14_4 N 0.0162(3) 0.9456(3) 0.1608(2)
C24_4 C 0.1028(4) 0.6442(4) 0.1227(3)
H22_4 H 0.1121 0.5808 0.1214
C25_4 C 0.0432(4) 0.9653(4) 0.2220(2)
H23_4 H 0.0261 0.9331 0.2581
N17_4 N 0.1706(3) 0.7092(3) 0.1191(2)
C3_4 C 0.9428(4) 0.9894(3) 0.8749(2)
H3_4 H 0.9490 0.9859 0.9187
C11_4 C 0.9015(4) 0.9606(4) 0.7799(3)
H9_4 H 0.8735 0.9336 0.7450
C19_4 C 0.4141(4) 0.9716(4) 0.9813(3)
H16_4 H 0.3560 0.9533 0.9686
H19_4 H 0.9635 0.6566 0.1304
N12_4 N 0.9160(3) 0.8791(3) 0.07512(19)
N16_4 N 0.8943(3) 0.8314(3) 0.1898(2)
C26_4 C 0.8237(4) 0.9404(4) 0.0045(3)
C27_4 C 0.9026(4) 0.7721(4) 0.2383(3)
H25_4 H 0.9538 0.7347 0.2438
B2_4 B 0.9650(4) 0.8583(4) 0.1389(3)
C29_4 C 0.8605(4) 0.9542(4) 0.0623(3)
C30_4 C 0.9091(4) 0.8242(4) 0.0239(2)
H28_4 H 0.9397 0.7683 0.0199
C31_4 C 0.7748(5) 0.8334(6) 0.2515(4)
H29_4 H 0.7176 0.8484 0.2680
C32_4 C 0.8109(5) 0.8708(6) 0.1990(4)
H30_4 H 0.7838 0.9155 0.1737
H24_4 H 0.7836 0.9805 0.9842
H10_4 H 0.1495 0.9954 0.9114
H27_4 H 0.8505 0.0046 0.0886
loop_
_geom_bond_atom_site_label_1
_geom_bond_atom_site_label_2
_geom_bond_site_symmetry_1
_geom_bond_site_symmetry_2
Cd1 O1 1_555 1_555
C1 H1 1_555 1_555
N1 C1 1_555 1_555
C2 N1 1_555 1_555
H2 C2 1_555 1_555
N2 B1 1_555 1_555
N3 C9 1_555 1_555
O1 C6 1_555 1_555
N4 C3 1_555 1_555
O2 Cd1 1_555 1_555
C3 H3 1_555 1_555
N6 C9 1_555 1_555
C4 C1 1_555 1_555
H4 C4 1_555 1_555
C5 N4 1_555 1_555
H5 C5 1_555 1_555
N7 Cd1 1_555 1_555
C6 O2 1_555 1_555
N8 C3 1_555 1_555
C7 C6 1_555 1_555
C9 H7 1_555 1_555
B1 N1 1_555 1_555
C11 C5 1_555 1_555
H9 C11 1_555 1_555
C13 N2 1_555 1_555
H10 C13 1_555 1_555
C14 N2 1_555 1_555
H11 C14 1_555 1_555
C15 N3 1_555 1_555
H12 C15 1_555 1_555
C16 N6 1_555 1_555
H15 C16 1_555 1_555
Cd6 N3 1_555 1_555
Cd8 N8 1_555 1_555
N20 Cd1 1_555 1_555
N21 Cd1 1_555 1_555
N24 Cd1 1_555 1_555
C2 N7 1_555 1_555
N4 B1 1_555 1_555
N6 B1 1_555 1_555
C4 N7 1_555 1_555
N8 C11 1_555 1_555
C8 C13 1_555 1_555
C15 C16 1_555 1_555
H8 C10 1_555 1_555
C20 C10 1_555 1_555
N10 C20 1_555 1_555
H17 N10 1_555 1_555
H18 N10 1_555 1_555
Cd5 N5 1_555 1_555
N9 C12 1_555 1_555
H13 N9 1_555 1_555
H14 N9 1_555 1_555
C19 C12 1_555 1_555
H16 C19 1_555 1_555
Cd8 N15 1_555 1_555
O3 C17 1_555 1_555
O4 C17 1_555 1_555
C17 C18 1_555 1_555
Cd2 O3 1_555 1_555
C21 H19 1_555 1_555
N11 C21 1_555 1_555
C22 N11 1_555 1_555
H20 C22 1_555 1_555
N12 B2 1_555 1_555
N13 C27 1_555 1_555
N14 C23 1_555 1_555
C23 H21 1_555 1_555
N16 C27 1_555 1_555
C24 C21 1_555 1_555
H22 C24 1_555 1_555
C25 N14 1_555 1_555
H23 C25 1_555 1_555
N17 Cd2 1_555 1_555
N18 C23 1_555 1_555
C27 H25 1_555 1_555
B2 N11 1_555 1_555
C28 C25 1_555 1_555
H26 C28 1_555 1_555
C29 N12 1_555 1_555
H27 C29 1_555 1_555
C30 N12 1_555 1_555
H28 C30 1_555 1_555
C31 N13 1_555 1_555
H29 C31 1_555 1_555
C32 N16 1_555 1_555
H30 C32 1_555 1_555
Cd3 N13 1_555 1_555
Cd5 N18 1_555 1_555
N19 Cd2 1_555 1_555
N22 Cd2 1_555 1_555
N23 Cd2 1_555 1_555
O4 Cd2 1_555 1_555
C22 N17 1_555 1_555
N14 B2 1_555 1_555
N16 B2 1_555 1_555
C24 N17 1_555 1_555
N18 C28 1_555 1_555
C26 C29 1_555 1_555
C31 C32 1_555 1_555
N12_2 B2_2 1_555 1_555
N20 C27_2 1_555 1_555
N15_2 C26_2 1_555 1_555
N16_2 C27_2 1_555 1_555
C26_2 H24_2 1_555 1_555
C27_2 H25_2 1_555 1_555
C29_2 N12_2 1_555 1_555
H27_2 C29_2 1_555 1_555
C30_2 N12_2 1_555 1_555
H28_2 C30_2 1_555 1_555
C31_2 N20 1_555 1_555
H29_2 C31_2 1_555 1_555
C32_2 N16_2 1_555 1_555
H30_2 C32_2 1_555 1_555
Cd7 N15_2 1_555 1_555
N15_2 C30_2 1_555 1_555
N16_2 B2_2 1_555 1_555
C26_2 C29_2 1_555 1_555
C31_2 C32_2 1_555 1_555
Cd3 O1_2 1_555 1_555
N1_2 C1_2 1_555 1_555
C2_2 N1_2 1_555 1_555
H2_2 C2_2 1_555 1_555
O1_2 C6_2 1_555 1_555
N4_2 C3_2 1_555 1_555
O2_2 Cd3 1_555 1_555
C3_2 H3_2 1_555 1_555
C4_2 C1_2 1_555 1_555
H4_2 C4_2 1_555 1_555
C5_2 N4_2 1_555 1_555
H5_2 C5_2 1_555 1_555
N7_2 Cd3 1_555 1_555
C6_2 O2_2 1_555 1_555
N8_2 C3_2 1_555 1_555
C7_2 C6_2 1_555 1_555
C10_2 C7_2 1_555 1_555
H8_2 C10_2 1_555 1_555
C11_2 C5_2 1_555 1_555
H9_2 C11_2 1_555 1_555
C12_2 C7_2 1_555 1_555
N9_2 C12_2 1_555 1_555
H13_2 N9_2 1_555 1_555
H14_2 N9_2 1_555 1_555
O3_2 C17_2 1_555 1_555
O4_2 C17_2 1_555 1_555
C17_2 C18_2 1_555 1_555
C18_2 C19_2 1_555 1_555
C19_2 C12_2 1_555 1_555
H16_2 C19_2 1_555 1_555
C20_2 C10_2 1_555 1_555
N10_2 C20_2 1_555 1_555
H17_2 N10_2 1_555 1_555
H18_2 N10_2 1_555 1_555
Cd6 O3_2 1_555 1_555
N11_2 C21_2 1_555 1_555
C22_2 N11_2 1_555 1_555
H20_2 C22_2 1_555 1_555
N14_2 C23_2 1_555 1_555
C23_2 H21_2 1_555 1_555
C24_2 C21_2 1_555 1_555
H22_2 C24_2 1_555 1_555
C25_2 N14_2 1_555 1_555
H23_2 C25_2 1_555 1_555
N17_2 Cd6 1_555 1_555
N18_2 C23_2 1_555 1_555
C28_2 C25_2 1_555 1_555
H26_2 C28_2 1_555 1_555
Cd4 N18_2 1_555 1_555
Cd7 N8_2 1_555 1_555
N21_2 Cd3 1_555 1_555
N22_2 Cd6 1_555 1_555
N23_2 Cd6 1_555 1_555
N24_2 Cd3 1_555 1_555
C2_2 N7_2 1_555 1_555
C4_2 N7_2 1_555 1_555
N8_2 C11_2 1_555 1_555
O4_2 Cd6 1_555 1_555
C18_2 C20_2 1_555 1_555
C22_2 N17_2 1_555 1_555
C24_2 N17_2 1_555 1_555
N18_2 C28_2 1_555 1_555
N2_2 B1_2 1_555 1_555
N19 C9_2 1_555 1_555
N5_2 C8_2 1_555 1_555
N6_2 C9_2 1_555 1_555
C8_2 H6_2 1_555 1_555
C9_2 H7_2 1_555 1_555
C13_2 N2_2 1_555 1_555
H10_2 C13_2 1_555 1_555
C14_2 N2_2 1_555 1_555
H11_2 C14_2 1_555 1_555
C15_2 N19 1_555 1_555
H12_2 C15_2 1_555 1_555
C16_2 N6_2 1_555 1_555
H15_2 C16_2 1_555 1_555
Cd4 N5_2 1_555 1_555
N5_2 C14_2 1_555 1_555
N6_2 B1_2 1_555 1_555
C8_2 C13_2 1_555 1_555
C15_2 C16_2 1_555 1_555
O3_3 C17_3 1_555 1_555
O4_3 C17_3 1_555 1_555
C17_3 C18_3 1_555 1_555
C18_3 C19_3 1_555 1_555
H16_3 C19_3 1_555 1_555
Cd7 O3_3 1_555 1_555
C21_3 H19_3 1_555 1_555
N11_3 C21_3 1_555 1_555
C22_3 N11_3 1_555 1_555
H20_3 C22_3 1_555 1_555
N12_3 B2_3 1_555 1_555
N13_2 C27_3 1_555 1_555
N22_2 C26_3 1_555 1_555
N16_3 C27_3 1_555 1_555
C24_3 C21_3 1_555 1_555
H22_3 C24_3 1_555 1_555
C25_3 N14_3 1_555 1_555
H23_3 C25_3 1_555 1_555
N17_3 Cd7 1_555 1_555
C26_3 H24_3 1_555 1_555
C27_3 H25_3 1_555 1_555
B2_3 N11_3 1_555 1_555
C29_3 N12_3 1_555 1_555
C30_3 N12_3 1_555 1_555
H28_3 C30_3 1_555 1_555
C31_3 N13_2 1_555 1_555
H29_3 C31_3 1_555 1_555
C32_3 N16_3 1_555 1_555
H30_3 C32_3 1_555 1_555
Cd5 N13_2 1_555 1_555
N19_2 Cd7 1_555 1_555
O4_3 Cd7 1_555 1_555
C22_3 N17_3 1_555 1_555
N14_3 B2_3 1_555 1_555
N22_2 C30_3 1_555 1_555
N16_3 B2_3 1_555 1_555
C24_3 N17_3 1_555 1_555
C26_3 C29_3 1_555 1_555
C31_3 C32_3 1_555 1_555
N9_3 C12_3 1_555 1_555
H13_3 N9_3 1_555 1_555
H14_3 N9_3 1_555 1_555
C23_3 H21_3 1_555 1_555
N24_2 C23_3 1_555 1_555
H26_3 C28_3 1_555 1_555
N24_2 C28_3 1_555 1_555
C3_3 H3_3 1_555 1_555
N23_2 C3_3 1_555 1_555
H9_3 C11_3 1_555 1_555
N10_3 C20_3 1_555 1_555
H17_3 N10_3 1_555 1_555
H18_3 N10_3 1_555 1_555
N23_2 C11_3 1_555 1_555
Cd4 O1_3 1_555 1_555
C1_3 H1_3 1_555 1_555
N1_3 C1_3 1_555 1_555
C2_3 N1_3 1_555 1_555
H2_3 C2_3 1_555 1_555
N2_3 B1_3 1_555 1_555
N3_2 C9_3 1_555 1_555
O1_3 C6_3 1_555 1_555
O2_3 Cd4 1_555 1_555
N21_2 C8_3 1_555 1_555
N6_3 C9_3 1_555 1_555
C4_3 C1_3 1_555 1_555
H4_3 C4_3 1_555 1_555
C5_3 N4_3 1_555 1_555
H5_3 C5_3 1_555 1_555
N7_3 Cd4 1_555 1_555
C6_3 O2_3 1_555 1_555
C7_3 C6_3 1_555 1_555
C8_3 H6_3 1_555 1_555
C9_3 H7_3 1_555 1_555
C10_3 C7_3 1_555 1_555
H8_3 C10_3 1_555 1_555
B1_3 N1_3 1_555 1_555
C13_3 N2_3 1_555 1_555
C14_3 N2_3 1_555 1_555
H11_3 C14_3 1_555 1_555
C15_3 N3_2 1_555 1_555
H12_3 C15_3 1_555 1_555
C16_3 N6_3 1_555 1_555
H15_3 C16_3 1_555 1_555
Cd8 N3_2 1_555 1_555
N20_2 Cd4 1_555 1_555
C2_3 N7_3 1_555 1_555
N4_3 B1_3 1_555 1_555
N21_2 C14_3 1_555 1_555
N6_3 B1_3 1_555 1_555
C4_3 N7_3 1_555 1_555
C8_3 C13_3 1_555 1_555
C15_3 C16_3 1_555 1_555
N2_4 B1_4 1_555 1_555
N19_2 C9_4 1_555 1_555
N6_4 C9_4 1_555 1_555
C9_4 H7_4 1_555 1_555
C13_4 N2_4 1_555 1_555
C14_4 N2_4 1_555 1_555
H11_4 C14_4 1_555 1_555
C15_4 N19_2 1_555 1_555
H12_4 C15_4 1_555 1_555
C16_4 N6_4 1_555 1_555
H15_4 C16_4 1_555 1_555
N6_4 B1_4 1_555 1_555
C8_4 C13_4 1_555 1_555
C15_4 C16_4 1_555 1_555
H8_4 C10_4 1_555 1_555
C23_4 H21_4 1_555 1_555
N24 C23_4 1_555 1_555
H26_4 C28_4 1_555 1_555
N24 C28_4 1_555 1_555
Cd5 O1_4 1_555 1_555
N1_4 C1_4 1_555 1_555
C2_4 N1_4 1_555 1_555
H2_4 C2_4 1_555 1_555
O1_4 C6_4 1_555 1_555
O2_4 Cd5 1_555 1_555
C4_4 C1_4 1_555 1_555
H4_4 C4_4 1_555 1_555
C5_4 N4_4 1_555 1_555
H5_4 C5_4 1_555 1_555
N7_4 Cd5 1_555 1_555
C6_4 O2_4 1_555 1_555
C7_4 C6_4 1_555 1_555
C12_4 C7_4 1_555 1_555
N9_4 C12_4 1_555 1_555
H13_4 N9_4 1_555 1_555
H14_4 N9_4 1_555 1_555
C2_4 N7_4 1_555 1_555
C4_4 N7_4 1_555 1_555
O3_4 C17_4 1_555 1_555
O4_4 C17_4 1_555 1_555
C17_4 C18_4 1_555 1_555
N10_4 C20_4 1_555 1_555
H17_4 N10_4 1_555 1_555
H18_4 N10_4 1_555 1_555
Cd8 O3_4 1_555 1_555
N11_4 C21_4 1_555 1_555
C22_4 N11_4 1_555 1_555
H20_4 C22_4 1_555 1_555
C24_4 C21_4 1_555 1_555
H22_4 C24_4 1_555 1_555
C25_4 N14_4 1_555 1_555
H23_4 C25_4 1_555 1_555
N17_4 Cd8 1_555 1_555
O4_4 Cd8 1_555 1_555
C18_4 C20_4 1_555 1_555
C22_4 N17_4 1_555 1_555
C24_4 N17_4 1_555 1_555
C3_4 H3_4 1_555 1_555
N23 C3_4 1_555 1_555
H9_4 C11_4 1_555 1_555
H16_4 C19_4 1_555 1_555
N23 C11_4 1_555 1_555
N12_4 B2_4 1_555 1_555
N20_2 C27_4 1_555 1_555
N16_4 C27_4 1_555 1_555
C27_4 H25_4 1_555 1_555
C29_4 N12_4 1_555 1_555
C30_4 N12_4 1_555 1_555
H28_4 C30_4 1_555 1_555
C31_4 N20_2 1_555 1_555
H29_4 C31_4 1_555 1_555
C32_4 N16_4 1_555 1_555
H30_4 C32_4 1_555 1_555
N16_4 B2_4 1_555 1_555
C26_4 C29_4 1_555 1_555
C31_4 C32_4 1_555 1_555

#END
