
###############################################################################
#
# This file contains modified crystal structure data generated from the
# MOF subset of the Cambridge Structural Database (CSD) v543 
# hosted by the Cambridge Crystallographic Data Centre (CCDC).
#
# This work is licensed under the Creative Commons
# Attribution-NonCommercial-ShareAlike 4.0 International License.
# To view a copy of this license, visit
# http://creativecommons.org/licenses/by-nc-sa/4.0/
# or send a letter to
# Creative Commons, PO Box 1866, Mountain View, CA 94042, USA.
#
# CIF created using the CSD Python API on 29 September 2022
# The structure has been converted into the P1 space group
# The structure has a 3D framework
# The original CSD entry ADUJER is in the cubic crystal system
# The framework has been calculated to contain at least 10.0% void space
# The void calculation uses a probe of radius 1.32A, grid spacing 0.4
#
###############################################################################

data_ADUJER
_chemical_formula_moiety         '(C288 H204 Cl48 N108 Ni24)n'
_symmetry_cell_setting           triclinic
_symmetry_space_group_name_H-M   'P 1'
_symmetry_Int_Tables_number      1
_space_group_name_Hall           'P 1'
loop_
_symmetry_equiv_pos_site_id
_symmetry_equiv_pos_as_xyz
1 x,y,z
_cell_length_a                   27.9643(5)
_cell_length_b                   27.9643(5)
_cell_length_c                   27.9643(5)
_cell_angle_alpha                90
_cell_angle_beta                 90
_cell_angle_gamma                90
_cell_volume                     21868.1
loop_
_atom_site_label
_atom_site_type_symbol
_atom_site_fract_x
_atom_site_fract_y
_atom_site_fract_z
Ni1 Ni 0.30307(3) -0.0000 0.30356(3)
Cl1 Cl 0.33469(5) -0.0000 0.38427(5)
Cl2 Cl 0.27187(10) -0.0000 0.22200(9)
Ni2 Ni 0.30307(3) -0.0000 0.69644(3)
N10 N 0.25461(13) 0.05272(13) 0.31922(13)
N12 N 0.35203(13) 0.05192(14) 0.28611(13)
Ni1_2 Ni 0.30307(3) 1.0000 0.30356(3)
Cl1_2 Cl 0.33469(5) 1.0000 0.38427(5)
Cl2_2 Cl 0.27187(10) 1.0000 0.22200(9)
N1 N 0.25461(13) 0.94728(13) 0.31922(13)
N2 N 0.1320(2) 0.7760(2) 0.5000
H1 H 0.1135 0.7514 0.5000
C1 C 0.21121(19) 0.8892(2) 0.35530(17)
N3 N 0.05192(14) 0.71389(13) 0.35203(13)
C2 C 0.1989(2) 0.8672(2) 0.44063(18)
H2 H 0.2183 0.8925 0.4502
C3 C 0.07723(17) 0.75405(16) 0.35714(17)
H3 H 0.0746 0.7806 0.3373
C4 C 0.19017(19) 0.8590(2) 0.39154(17)
C5 C 0.1080(2) 0.7509(2) 0.39604(17)
C6 C 0.1408(2) 0.7892(2) 0.41175(19)
C7 C 0.24162(15) 0.92834(16) 0.36071(15)
H4 H 0.2517 0.9399 0.3902
C8 C 0.17874(19) 0.8378(2) 0.47384(16)
C9 C 0.1614(2) 0.8199(2) 0.37927(18)
H5 H 0.1557 0.8143 0.3470
C10 C 0.1493(2) 0.7988(2) 0.46062(18)
N4 N 0.06632(18) 0.68622(17) 0.38821(17)
H6 H 0.0546 0.6584 0.3940
N5 N 0.2342(2) 0.9195(2) 0.28712(17)
H7 H 0.2370 0.9238 0.2568
C11 C 0.1010(2) 0.7064(2) 0.4146(2)
H8 H 0.1171 0.6927 0.4404
C12 C 0.2090(3) 0.8840(3) 0.3061(2)
H9 H 0.1929 0.8601 0.2895
N6 N 0.25461(13) 0.94728(13) 0.68078(13)
C13 C 0.21121(19) 0.8892(2) 0.64470(17)
C14 C 0.1989(2) 0.8672(2) 0.55937(18)
H10 H 0.2183 0.8925 0.5498
C15 C 0.19017(19) 0.8590(2) 0.60846(17)
C16 C 0.1408(2) 0.7892(2) 0.58825(19)
C17 C 0.24162(15) 0.92834(16) 0.63929(15)
H11 H 0.2517 0.9399 0.6098
C18 C 0.17874(19) 0.8378(2) 0.52616(16)
C19 C 0.1614(2) 0.8199(2) 0.62073(18)
H12 H 0.1557 0.8143 0.6530
C20 C 0.1493(2) 0.7988(2) 0.53938(18)
N7 N 0.2342(2) 0.9195(2) 0.71288(17)
H13 H 0.2370 0.9238 0.7432
C21 C 0.2090(3) 0.8840(3) 0.6939(2)
H14 H 0.1929 0.8601 0.7105
N8 N 0.05192(14) 0.71389(13) 0.64797(13)
C22 C 0.07723(17) 0.75405(16) 0.64286(17)
H15 H 0.0746 0.7806 0.6627
C23 C 0.1080(2) 0.7509(2) 0.60396(17)
N9 N 0.06632(18) 0.68622(17) 0.61179(17)
H16 H 0.0546 0.6584 0.6060
C24 C 0.1010(2) 0.7064(2) 0.5854(2)
H17 H 0.1171 0.6927 0.5596
Ni2_2 Ni 0.30307(3) 1.0000 0.69644(3)
Ni3 Ni -0.0000 0.69644(3) 0.30307(3)
Ni4 Ni -0.0000 0.69644(3) 0.69693(3)
N11 N 0.35203(13) 0.94808(14) 0.28611(13)
Ni3_2 Ni 1.0000 0.69644(3) 0.30307(3)
Ni4_2 Ni 1.0000 0.69644(3) 0.69693(3)
Ni3_3 Ni -0.0000 0.30356(3) 0.30307(3)
Ni4_3 Ni -0.0000 0.30356(3) 0.69693(3)
Ni1_3 Ni 0.69693(3) 0.0000 0.30356(3)
Cl1_3 Cl 0.66531(5) 0.0000 0.38427(5)
Cl2_3 Cl 0.72813(10) 0.0000 0.22200(9)
N1_2 N 0.74539(13) 0.05272(13) 0.31922(13)
N2_2 N 0.8680(2) 0.2240(2) 0.5000
H1_2 H 0.8865 0.2486 0.5000
C1_2 C 0.78879(19) 0.1108(2) 0.35530(17)
N3_2 N 0.94808(14) 0.28611(13) 0.35203(13)
C2_2 C 0.8011(2) 0.1328(2) 0.44063(18)
H2_2 H 0.7817 0.1075 0.4502
C3_2 C 0.92277(17) 0.24595(16) 0.35714(17)
H3_2 H 0.9254 0.2194 0.3373
C4_2 C 0.80983(19) 0.1410(2) 0.39154(17)
C5_2 C 0.8920(2) 0.2491(2) 0.39604(17)
C6_2 C 0.8592(2) 0.2108(2) 0.41175(19)
C7_2 C 0.75838(15) 0.07166(16) 0.36071(15)
H4_2 H 0.7483 0.0601 0.3902
C8_2 C 0.82126(19) 0.1622(2) 0.47384(16)
C9_2 C 0.8386(2) 0.1801(2) 0.37927(18)
H5_2 H 0.8443 0.1857 0.3470
C10_2 C 0.8507(2) 0.2012(2) 0.46062(18)
N4_2 N 0.93368(18) 0.31378(17) 0.38821(17)
H6_2 H 0.9454 0.3416 0.3940
N5_2 N 0.7658(2) 0.0805(2) 0.28712(17)
H7_2 H 0.7630 0.0762 0.2568
C11_2 C 0.8990(2) 0.2936(2) 0.4146(2)
H8_2 H 0.8829 0.3073 0.4404
C12_2 C 0.7910(3) 0.1160(3) 0.3061(2)
H9_2 H 0.8071 0.1399 0.2895
N6_2 N 0.74539(13) 0.05272(13) 0.68078(13)
C13_2 C 0.78879(19) 0.1108(2) 0.64470(17)
C14_2 C 0.8011(2) 0.1328(2) 0.55937(18)
H10_2 H 0.7817 0.1075 0.5498
C15_2 C 0.80983(19) 0.1410(2) 0.60846(17)
C16_2 C 0.8592(2) 0.2108(2) 0.58825(19)
C17_2 C 0.75838(15) 0.07166(16) 0.63929(15)
H11_2 H 0.7483 0.0601 0.6098
C18_2 C 0.82126(19) 0.1622(2) 0.52616(16)
C19_2 C 0.8386(2) 0.1801(2) 0.62073(18)
H12_2 H 0.8443 0.1857 0.6530
C20_2 C 0.8507(2) 0.2012(2) 0.53938(18)
N7_2 N 0.7658(2) 0.0805(2) 0.71288(17)
H13_2 H 0.7630 0.0762 0.7432
C21_2 C 0.7910(3) 0.1160(3) 0.6939(2)
H14_2 H 0.8071 0.1399 0.7105
N8_2 N 0.94808(14) 0.28611(13) 0.64797(13)
C22_2 C 0.92277(17) 0.24595(16) 0.64286(17)
H15_2 H 0.9254 0.2194 0.6627
C23_2 C 0.8920(2) 0.2491(2) 0.60396(17)
N9_2 N 0.93368(18) 0.31378(17) 0.61179(17)
H16_2 H 0.9454 0.3416 0.6060
C24_2 C 0.8990(2) 0.2936(2) 0.5854(2)
H17_2 H 0.8829 0.3073 0.5596
Ni2_3 Ni 0.69693(3) 0.0000 0.69644(3)
Ni3_4 Ni 1.0000 0.30356(3) 0.30307(3)
Ni4_4 Ni 1.0000 0.30356(3) 0.69693(3)
N11_2 N 0.64797(13) 0.05192(14) 0.28611(13)
Ni1_4 Ni 0.69693(3) 1.0000 0.30356(3)
Cl1_4 Cl 0.66531(5) 1.0000 0.38427(5)
Cl2_4 Cl 0.72813(10) 1.0000 0.22200(9)
Ni2_4 Ni 0.69693(3) 1.0000 0.69644(3)
N10_2 N 0.74539(13) 0.94728(13) 0.31922(13)
N12_2 N 0.64797(13) 0.94808(14) 0.28611(13)
Cl1_5 Cl 0.33469(5) 0.0000 0.61573(5)
Cl2_5 Cl 0.27187(10) 0.0000 0.77800(9)
N1_3 N 0.25461(13) 0.05272(13) 0.68078(13)
N2_3 N 0.1320(2) 0.2240(2) 0.5000
H1_3 H 0.1135 0.2486 0.5000
C1_3 C 0.21121(19) 0.1108(2) 0.64470(17)
N3_3 N 0.05192(14) 0.28611(13) 0.64797(13)
C2_3 C 0.1989(2) 0.1328(2) 0.55937(18)
H2_3 H 0.2183 0.1075 0.5498
C3_3 C 0.07723(17) 0.24595(16) 0.64286(17)
H3_3 H 0.0746 0.2194 0.6627
C4_3 C 0.19017(19) 0.1410(2) 0.60846(17)
C5_3 C 0.1080(2) 0.2491(2) 0.60396(17)
C6_3 C 0.1408(2) 0.2108(2) 0.58825(19)
C7_3 C 0.24162(15) 0.07166(16) 0.63929(15)
H4_3 H 0.2517 0.0601 0.6098
C8_3 C 0.17874(19) 0.1622(2) 0.52616(16)
C9_3 C 0.1614(2) 0.1801(2) 0.62073(18)
H5_3 H 0.1557 0.1857 0.6530
C10_3 C 0.1493(2) 0.2012(2) 0.53938(18)
N4_3 N 0.06632(18) 0.31378(17) 0.61179(17)
H6_3 H 0.0546 0.3416 0.6060
N5_3 N 0.2342(2) 0.0805(2) 0.71288(17)
H7_3 H 0.2370 0.0762 0.7432
C11_3 C 0.1010(2) 0.2936(2) 0.5854(2)
H8_3 H 0.1171 0.3073 0.5596
C12_3 C 0.2090(3) 0.1160(3) 0.6939(2)
H9_3 H 0.1929 0.1399 0.7105
C13_3 C 0.21121(19) 0.1108(2) 0.35530(17)
C14_3 C 0.1989(2) 0.1328(2) 0.44063(18)
H10_3 H 0.2183 0.1075 0.4502
C15_3 C 0.19017(19) 0.1410(2) 0.39154(17)
C16_3 C 0.1408(2) 0.2108(2) 0.41175(19)
C17_3 C 0.24162(15) 0.07166(16) 0.36071(15)
H11_3 H 0.2517 0.0601 0.3902
C18_3 C 0.17874(19) 0.1622(2) 0.47384(16)
C19_3 C 0.1614(2) 0.1801(2) 0.37927(18)
H12_3 H 0.1557 0.1857 0.3470
C20_3 C 0.1493(2) 0.2012(2) 0.46062(18)
N7_3 N 0.2342(2) 0.0805(2) 0.28712(17)
H13_3 H 0.2370 0.0762 0.2568
C21_3 C 0.2090(3) 0.1160(3) 0.3061(2)
H14_3 H 0.1929 0.1399 0.2895
N8_3 N 0.05192(14) 0.28611(13) 0.35203(13)
C22_3 C 0.07723(17) 0.24595(16) 0.35714(17)
H15_3 H 0.0746 0.2194 0.3373
C23_3 C 0.1080(2) 0.2491(2) 0.39604(17)
N9_3 N 0.06632(18) 0.31378(17) 0.38821(17)
H16_3 H 0.0546 0.3416 0.3940
C24_3 C 0.1010(2) 0.2936(2) 0.4146(2)
H17_3 H 0.1171 0.3073 0.4404
N11_3 N 0.35203(13) 0.05192(14) 0.71389(13)
Cl1_6 Cl 0.33469(5) 1.0000 0.61573(5)
Cl2_6 Cl 0.27187(10) 1.0000 0.77800(9)
N12_3 N 0.35203(13) 0.94808(14) 0.71389(13)
Cl1_7 Cl 0.66531(5) -0.0000 0.61573(5)
Cl2_7 Cl 0.72813(10) -0.0000 0.77800(9)
N12_4 N 0.64797(13) 0.05192(14) 0.71389(13)
Cl1_8 Cl 0.66531(5) 1.0000 0.61573(5)
Cl2_8 Cl 0.72813(10) 1.0000 0.77800(9)
N1_4 N 0.74539(13) 0.94728(13) 0.68078(13)
N2_4 N 0.8680(2) 0.7760(2) 0.5000
H1_4 H 0.8865 0.7514 0.5000
C1_4 C 0.78879(19) 0.8892(2) 0.64470(17)
N3_4 N 0.94808(14) 0.71389(13) 0.64797(13)
C2_4 C 0.8011(2) 0.8672(2) 0.55937(18)
H2_4 H 0.7817 0.8925 0.5498
C3_4 C 0.92277(17) 0.75405(16) 0.64286(17)
H3_4 H 0.9254 0.7806 0.6627
C4_4 C 0.80983(19) 0.8590(2) 0.60846(17)
C5_4 C 0.8920(2) 0.7509(2) 0.60396(17)
C6_4 C 0.8592(2) 0.7892(2) 0.58825(19)
C7_4 C 0.75838(15) 0.92834(16) 0.63929(15)
H4_4 H 0.7483 0.9399 0.6098
C8_4 C 0.82126(19) 0.8378(2) 0.52616(16)
C9_4 C 0.8386(2) 0.8199(2) 0.62073(18)
H5_4 H 0.8443 0.8143 0.6530
C10_4 C 0.8507(2) 0.7988(2) 0.53938(18)
N4_4 N 0.93368(18) 0.68622(17) 0.61179(17)
H6_4 H 0.9454 0.6584 0.6060
N5_4 N 0.7658(2) 0.9195(2) 0.71288(17)
H7_4 H 0.7630 0.9238 0.7432
C11_4 C 0.8990(2) 0.7064(2) 0.5854(2)
H8_4 H 0.8829 0.6927 0.5596
C12_4 C 0.7910(3) 0.8840(3) 0.6939(2)
H9_4 H 0.8071 0.8601 0.7105
C13_4 C 0.78879(19) 0.8892(2) 0.35530(17)
C14_4 C 0.8011(2) 0.8672(2) 0.44063(18)
H10_4 H 0.7817 0.8925 0.4502
C15_4 C 0.80983(19) 0.8590(2) 0.39154(17)
C16_4 C 0.8592(2) 0.7892(2) 0.41175(19)
C17_4 C 0.75838(15) 0.92834(16) 0.36071(15)
H11_4 H 0.7483 0.9399 0.3902
C18_4 C 0.82126(19) 0.8378(2) 0.47384(16)
C19_4 C 0.8386(2) 0.8199(2) 0.37927(18)
H12_4 H 0.8443 0.8143 0.3470
C20_4 C 0.8507(2) 0.7988(2) 0.46062(18)
N7_4 N 0.7658(2) 0.9195(2) 0.28712(17)
H13_4 H 0.7630 0.9238 0.2568
C21_4 C 0.7910(3) 0.8840(3) 0.3061(2)
H14_4 H 0.8071 0.8601 0.2895
N8_4 N 0.94808(14) 0.71389(13) 0.35203(13)
C22_4 C 0.92277(17) 0.75405(16) 0.35714(17)
H15_4 H 0.9254 0.7806 0.3373
C23_4 C 0.8920(2) 0.7509(2) 0.39604(17)
N9_4 N 0.93368(18) 0.68622(17) 0.38821(17)
H16_4 H 0.9454 0.6584 0.3940
C24_4 C 0.8990(2) 0.7064(2) 0.4146(2)
H17_4 H 0.8829 0.6927 0.4404
N11_4 N 0.64797(13) 0.94808(14) 0.71389(13)
Ni1_5 Ni 0.30356(3) 0.30307(3) -0.0000
Cl1_9 Cl 0.38427(5) 0.33469(5) -0.0000
Cl2_9 Cl 0.22200(9) 0.27187(10) -0.0000
Ni2_5 Ni 0.69644(3) 0.30307(3) -0.0000
N10_3 N 0.31922(13) 0.25461(13) 0.05272(13)
N12_5 N 0.28611(13) 0.35203(13) 0.05192(14)
Ni1_6 Ni 0.30356(3) 0.30307(3) 1.0000
Cl1_10 Cl 0.38427(5) 0.33469(5) 1.0000
Cl2_10 Cl 0.22200(9) 0.27187(10) 1.0000
N1_5 N 0.31922(13) 0.25461(13) 0.94728(13)
N2_5 N 0.5000 0.1320(2) 0.7760(2)
H1_5 H 0.5000 0.1135 0.7514
C1_5 C 0.35530(17) 0.21121(19) 0.8892(2)
C2_5 C 0.44063(18) 0.1989(2) 0.8672(2)
H2_5 H 0.4502 0.2183 0.8925
C3_5 C 0.35714(17) 0.07723(17) 0.75405(16)
H3_5 H 0.3373 0.0746 0.7806
C4_5 C 0.39154(17) 0.19017(19) 0.8590(2)
C5_5 C 0.39604(17) 0.1080(2) 0.7509(2)
C6_5 C 0.41175(19) 0.1408(2) 0.7892(2)
C7_5 C 0.36071(15) 0.24162(15) 0.92834(16)
H4_5 H 0.3902 0.2517 0.9399
C8_5 C 0.47384(16) 0.17874(19) 0.8378(2)
C9_5 C 0.37927(18) 0.1614(2) 0.8199(2)
H5_5 H 0.3470 0.1557 0.8143
C10_5 C 0.46062(18) 0.1493(2) 0.7988(2)
N4_5 N 0.38821(17) 0.06632(18) 0.68622(17)
H6_5 H 0.3940 0.0546 0.6584
N5_5 N 0.28712(17) 0.2342(2) 0.9195(2)
H7_5 H 0.2568 0.2370 0.9238
C11_5 C 0.4146(2) 0.1010(2) 0.7064(2)
H8_5 H 0.4404 0.1171 0.6927
C12_5 C 0.3061(2) 0.2090(3) 0.8840(3)
H9_5 H 0.2895 0.1929 0.8601
N6_3 N 0.68078(13) 0.25461(13) 0.94728(13)
C13_5 C 0.64470(17) 0.21121(19) 0.8892(2)
C14_5 C 0.55937(18) 0.1989(2) 0.8672(2)
H10_5 H 0.5498 0.2183 0.8925
C15_5 C 0.60846(17) 0.19017(19) 0.8590(2)
C16_5 C 0.58825(19) 0.1408(2) 0.7892(2)
C17_5 C 0.63929(15) 0.24162(15) 0.92834(16)
H11_5 H 0.6098 0.2517 0.9399
C18_5 C 0.52616(16) 0.17874(19) 0.8378(2)
C19_5 C 0.62073(18) 0.1614(2) 0.8199(2)
H12_5 H 0.6530 0.1557 0.8143
C20_5 C 0.53938(18) 0.1493(2) 0.7988(2)
N7_5 N 0.71288(17) 0.2342(2) 0.9195(2)
H13_5 H 0.7432 0.2370 0.9238
C21_5 C 0.6939(2) 0.2090(3) 0.8840(3)
H14_5 H 0.7105 0.1929 0.8601
C22_5 C 0.64286(17) 0.07723(17) 0.75405(16)
H15_5 H 0.6627 0.0746 0.7806
C23_5 C 0.60396(17) 0.1080(2) 0.7509(2)
N9_5 N 0.61179(17) 0.06632(18) 0.68622(17)
H16_5 H 0.6060 0.0546 0.6584
C24_5 C 0.5854(2) 0.1010(2) 0.7064(2)
H17_5 H 0.5596 0.1171 0.6927
Ni2_6 Ni 0.69644(3) 0.30307(3) 1.0000
N11_5 N 0.28611(13) 0.35203(13) 0.94808(14)
Cl1_11 Cl -0.0000 0.38427(5) 0.33469(5)
Cl2_11 Cl -0.0000 0.22200(9) 0.27187(10)
N10_4 N 0.05272(13) 0.31922(13) 0.25461(13)
Cl1_12 Cl 1.0000 0.38427(5) 0.33469(5)
Cl2_12 Cl 1.0000 0.22200(9) 0.27187(10)
N1_6 N 0.94728(13) 0.31922(13) 0.25461(13)
N2_6 N 0.7760(2) 0.5000 0.1320(2)
H1_6 H 0.7514 0.5000 0.1135
C1_6 C 0.8892(2) 0.35530(17) 0.21121(19)
N3_5 N 0.71389(13) 0.35203(13) 0.05192(14)
C2_6 C 0.8672(2) 0.44063(18) 0.1989(2)
H2_6 H 0.8925 0.4502 0.2183
C3_6 C 0.75405(16) 0.35714(17) 0.07723(17)
H3_6 H 0.7806 0.3373 0.0746
C4_6 C 0.8590(2) 0.39154(17) 0.19017(19)
C5_6 C 0.7509(2) 0.39604(17) 0.1080(2)
C6_6 C 0.7892(2) 0.41175(19) 0.1408(2)
C7_6 C 0.92834(16) 0.36071(15) 0.24162(15)
H4_6 H 0.9399 0.3902 0.2517
C8_6 C 0.8378(2) 0.47384(16) 0.17874(19)
C9_6 C 0.8199(2) 0.37927(18) 0.1614(2)
H5_6 H 0.8143 0.3470 0.1557
C10_6 C 0.7988(2) 0.46062(18) 0.1493(2)
N4_6 N 0.68622(17) 0.38821(17) 0.06632(18)
H6_6 H 0.6584 0.3940 0.0546
N5_6 N 0.9195(2) 0.28712(17) 0.2342(2)
H7_6 H 0.9238 0.2568 0.2370
C11_6 C 0.7064(2) 0.4146(2) 0.1010(2)
H8_6 H 0.6927 0.4404 0.1171
C12_6 C 0.8840(3) 0.3061(2) 0.2090(3)
H9_6 H 0.8601 0.2895 0.1929
N6_4 N 0.94728(13) 0.68078(13) 0.25461(13)
C13_6 C 0.8892(2) 0.64470(17) 0.21121(19)
C14_6 C 0.8672(2) 0.55937(18) 0.1989(2)
H10_6 H 0.8925 0.5498 0.2183
C15_6 C 0.8590(2) 0.60846(17) 0.19017(19)
C16_6 C 0.7892(2) 0.58825(19) 0.1408(2)
C17_6 C 0.92834(16) 0.63929(15) 0.24162(15)
H11_6 H 0.9399 0.6098 0.2517
C18_6 C 0.8378(2) 0.52616(16) 0.17874(19)
C19_6 C 0.8199(2) 0.62073(18) 0.1614(2)
H12_6 H 0.8143 0.6530 0.1557
C20_6 C 0.7988(2) 0.53938(18) 0.1493(2)
N7_6 N 0.9195(2) 0.71288(17) 0.2342(2)
H13_6 H 0.9238 0.7432 0.2370
C21_6 C 0.8840(3) 0.6939(2) 0.2090(3)
H14_6 H 0.8601 0.7105 0.1929
N8_5 N 0.71389(13) 0.64797(13) 0.05192(14)
C22_6 C 0.75405(16) 0.64286(17) 0.07723(17)
H15_6 H 0.7806 0.6627 0.0746
C23_6 C 0.7509(2) 0.60396(17) 0.1080(2)
N9_6 N 0.68622(17) 0.61179(17) 0.06632(18)
H16_6 H 0.6584 0.6060 0.0546
C24_6 C 0.7064(2) 0.5854(2) 0.1010(2)
H17_6 H 0.6927 0.5596 0.1171
Ni4_5 Ni 0.69644(3) 0.69693(3) -0.0000
Ni4_6 Ni 0.69644(3) 0.69693(3) 1.0000
Cl1_13 Cl 0.61573(5) 0.66531(5) -0.0000
Cl2_13 Cl 0.77800(9) 0.72813(10) -0.0000
Ni2_7 Ni 0.30356(3) 0.69693(3) -0.0000
N10_5 N 0.68078(13) 0.74539(13) 0.05272(13)
Cl1_14 Cl 0.61573(5) 0.66531(5) 1.0000
Cl2_14 Cl 0.77800(9) 0.72813(10) 1.0000
N1_7 N 0.68078(13) 0.74539(13) 0.94728(13)
N2_7 N 0.5000 0.8680(2) 0.7760(2)
H1_7 H 0.5000 0.8865 0.7514
C1_7 C 0.64470(17) 0.78879(19) 0.8892(2)
C2_7 C 0.55937(18) 0.8011(2) 0.8672(2)
H2_7 H 0.5498 0.7817 0.8925
C3_7 C 0.64286(17) 0.92277(17) 0.75405(16)
H3_7 H 0.6627 0.9254 0.7806
C4_7 C 0.60846(17) 0.80983(19) 0.8590(2)
C5_7 C 0.60396(17) 0.8920(2) 0.7509(2)
C6_7 C 0.58825(19) 0.8592(2) 0.7892(2)
C7_7 C 0.63929(15) 0.75838(15) 0.92834(16)
H4_7 H 0.6098 0.7483 0.9399
C8_7 C 0.52616(16) 0.82126(19) 0.8378(2)
C9_7 C 0.62073(18) 0.8386(2) 0.8199(2)
H5_7 H 0.6530 0.8443 0.8143
C10_7 C 0.53938(18) 0.8507(2) 0.7988(2)
N4_7 N 0.61179(17) 0.93368(18) 0.68622(17)
H6_7 H 0.6060 0.9454 0.6584
N5_7 N 0.71288(17) 0.7658(2) 0.9195(2)
H7_7 H 0.7432 0.7630 0.9238
C11_7 C 0.5854(2) 0.8990(2) 0.7064(2)
H8_7 H 0.5596 0.8829 0.6927
C12_7 C 0.6939(2) 0.7910(3) 0.8840(3)
H9_7 H 0.7105 0.8071 0.8601
N6_5 N 0.31922(13) 0.74539(13) 0.94728(13)
C13_7 C 0.35530(17) 0.78879(19) 0.8892(2)
C14_7 C 0.44063(18) 0.8011(2) 0.8672(2)
H10_7 H 0.4502 0.7817 0.8925
C15_7 C 0.39154(17) 0.80983(19) 0.8590(2)
C16_7 C 0.41175(19) 0.8592(2) 0.7892(2)
C17_7 C 0.36071(15) 0.75838(15) 0.92834(16)
H11_7 H 0.3902 0.7483 0.9399
C18_7 C 0.47384(16) 0.82126(19) 0.8378(2)
C19_7 C 0.37927(18) 0.8386(2) 0.8199(2)
H12_7 H 0.3470 0.8443 0.8143
C20_7 C 0.46062(18) 0.8507(2) 0.7988(2)
N7_7 N 0.28712(17) 0.7658(2) 0.9195(2)
H13_7 H 0.2568 0.7630 0.9238
C21_7 C 0.3061(2) 0.7910(3) 0.8840(3)
H14_7 H 0.2895 0.8071 0.8601
C22_7 C 0.35714(17) 0.92277(17) 0.75405(16)
H15_7 H 0.3373 0.9254 0.7806
C23_7 C 0.39604(17) 0.8920(2) 0.7509(2)
N9_7 N 0.38821(17) 0.93368(18) 0.68622(17)
H16_7 H 0.3940 0.9454 0.6584
C24_7 C 0.4146(2) 0.8990(2) 0.7064(2)
H17_7 H 0.4404 0.8829 0.6927
Ni2_8 Ni 0.30356(3) 0.69693(3) 1.0000
N11_6 N 0.71389(13) 0.64797(13) 0.94808(14)
Cl1_15 Cl 0.0000 0.38427(5) 0.66531(5)
Cl2_15 Cl 0.0000 0.22200(9) 0.72813(10)
N1_8 N 0.05272(13) 0.31922(13) 0.74539(13)
N2_8 N 0.2240(2) 0.5000 0.8680(2)
H1_8 H 0.2486 0.5000 0.8865
C1_8 C 0.1108(2) 0.35530(17) 0.78879(19)
C2_8 C 0.1328(2) 0.44063(18) 0.8011(2)
H2_8 H 0.1075 0.4502 0.7817
C3_8 C 0.24595(16) 0.35714(17) 0.92277(17)
H3_8 H 0.2194 0.3373 0.9254
C4_8 C 0.1410(2) 0.39154(17) 0.80983(19)
C5_8 C 0.2491(2) 0.39604(17) 0.8920(2)
C6_8 C 0.2108(2) 0.41175(19) 0.8592(2)
C7_8 C 0.07166(16) 0.36071(15) 0.75838(15)
H4_8 H 0.0601 0.3902 0.7483
C8_8 C 0.1622(2) 0.47384(16) 0.82126(19)
C9_8 C 0.1801(2) 0.37927(18) 0.8386(2)
H5_8 H 0.1857 0.3470 0.8443
C10_8 C 0.2012(2) 0.46062(18) 0.8507(2)
N4_8 N 0.31378(17) 0.38821(17) 0.93368(18)
H6_8 H 0.3416 0.3940 0.9454
N5_8 N 0.0805(2) 0.28712(17) 0.7658(2)
H7_8 H 0.0762 0.2568 0.7630
C11_8 C 0.2936(2) 0.4146(2) 0.8990(2)
H8_8 H 0.3073 0.4404 0.8829
C12_8 C 0.1160(3) 0.3061(2) 0.7910(3)
H9_8 H 0.1399 0.2895 0.8071
N6_6 N 0.05272(13) 0.68078(13) 0.74539(13)
C13_8 C 0.1108(2) 0.64470(17) 0.78879(19)
C14_8 C 0.1328(2) 0.55937(18) 0.8011(2)
H10_8 H 0.1075 0.5498 0.7817
C15_8 C 0.1410(2) 0.60846(17) 0.80983(19)
C16_8 C 0.2108(2) 0.58825(19) 0.8592(2)
C17_8 C 0.07166(16) 0.63929(15) 0.75838(15)
H11_8 H 0.0601 0.6098 0.7483
C18_8 C 0.1622(2) 0.52616(16) 0.82126(19)
C19_8 C 0.1801(2) 0.62073(18) 0.8386(2)
H12_8 H 0.1857 0.6530 0.8443
C20_8 C 0.2012(2) 0.53938(18) 0.8507(2)
N7_8 N 0.0805(2) 0.71288(17) 0.7658(2)
H13_8 H 0.0762 0.7432 0.7630
C21_8 C 0.1160(3) 0.6939(2) 0.7910(3)
H14_8 H 0.1399 0.7105 0.8071
N8_6 N 0.28611(13) 0.64797(13) 0.94808(14)
C22_8 C 0.24595(16) 0.64286(17) 0.92277(17)
H15_8 H 0.2194 0.6627 0.9254
C23_8 C 0.2491(2) 0.60396(17) 0.8920(2)
N9_8 N 0.31378(17) 0.61179(17) 0.93368(18)
H16_8 H 0.3416 0.6060 0.9454
C24_8 C 0.2936(2) 0.5854(2) 0.8990(2)
H17_8 H 0.3073 0.5596 0.8829
Cl1_16 Cl 1.0000 0.38427(5) 0.66531(5)
Cl2_16 Cl 1.0000 0.22200(9) 0.72813(10)
N10_6 N 0.94728(13) 0.31922(13) 0.74539(13)
Cl1_17 Cl 0.38427(5) 0.66531(5) 0.0000
Cl2_17 Cl 0.22200(9) 0.72813(10) 0.0000
N1_9 N 0.31922(13) 0.74539(13) 0.05272(13)
N2_9 N 0.5000 0.8680(2) 0.2240(2)
H1_9 H 0.5000 0.8865 0.2486
C1_9 C 0.35530(17) 0.78879(19) 0.1108(2)
C2_9 C 0.44063(18) 0.8011(2) 0.1328(2)
H2_9 H 0.4502 0.7817 0.1075
C3_9 C 0.35714(17) 0.92277(17) 0.24595(16)
H3_9 H 0.3373 0.9254 0.2194
C4_9 C 0.39154(17) 0.80983(19) 0.1410(2)
C5_9 C 0.39604(17) 0.8920(2) 0.2491(2)
C6_9 C 0.41175(19) 0.8592(2) 0.2108(2)
C7_9 C 0.36071(15) 0.75838(15) 0.07166(16)
H4_9 H 0.3902 0.7483 0.0601
C8_9 C 0.47384(16) 0.82126(19) 0.1622(2)
C9_9 C 0.37927(18) 0.8386(2) 0.1801(2)
H5_9 H 0.3470 0.8443 0.1857
C10_9 C 0.46062(18) 0.8507(2) 0.2012(2)
N4_9 N 0.38821(17) 0.93368(18) 0.31378(17)
H6_9 H 0.3940 0.9454 0.3416
N5_9 N 0.28712(17) 0.7658(2) 0.0805(2)
H7_9 H 0.2568 0.7630 0.0762
C11_9 C 0.4146(2) 0.8990(2) 0.2936(2)
H8_9 H 0.4404 0.8829 0.3073
C12_9 C 0.3061(2) 0.7910(3) 0.1160(3)
H9_9 H 0.2895 0.8071 0.1399
C13_9 C 0.64470(17) 0.78879(19) 0.1108(2)
C14_9 C 0.55937(18) 0.8011(2) 0.1328(2)
H10_9 H 0.5498 0.7817 0.1075
C15_9 C 0.60846(17) 0.80983(19) 0.1410(2)
C16_9 C 0.58825(19) 0.8592(2) 0.2108(2)
C17_9 C 0.63929(15) 0.75838(15) 0.07166(16)
H11_9 H 0.6098 0.7483 0.0601
C18_9 C 0.52616(16) 0.82126(19) 0.1622(2)
C19_9 C 0.62073(18) 0.8386(2) 0.1801(2)
H12_9 H 0.6530 0.8443 0.1857
C20_9 C 0.53938(18) 0.8507(2) 0.2012(2)
N7_9 N 0.71288(17) 0.7658(2) 0.0805(2)
H13_9 H 0.7432 0.7630 0.0762
C21_9 C 0.6939(2) 0.7910(3) 0.1160(3)
H14_9 H 0.7105 0.8071 0.1399
C22_9 C 0.64286(17) 0.92277(17) 0.24595(16)
H15_9 H 0.6627 0.9254 0.2194
C23_9 C 0.60396(17) 0.8920(2) 0.2491(2)
N9_9 N 0.61179(17) 0.93368(18) 0.31378(17)
H16_9 H 0.6060 0.9454 0.3416
C24_9 C 0.5854(2) 0.8990(2) 0.2936(2)
H17_9 H 0.5596 0.8829 0.3073
N11_7 N 0.28611(13) 0.64797(13) 0.05192(14)
Cl1_18 Cl 0.38427(5) 0.66531(5) 1.0000
Cl2_18 Cl 0.22200(9) 0.72813(10) 1.0000
Cl1_19 Cl 0.0000 0.61573(5) 0.33469(5)
Cl2_19 Cl 0.0000 0.77800(9) 0.27187(10)
N1_10 N 0.05272(13) 0.68078(13) 0.25461(13)
N2_10 N 0.2240(2) 0.5000 0.1320(2)
H1_10 H 0.2486 0.5000 0.1135
C1_10 C 0.1108(2) 0.64470(17) 0.21121(19)
C2_10 C 0.1328(2) 0.55937(18) 0.1989(2)
H2_10 H 0.1075 0.5498 0.2183
C3_10 C 0.24595(16) 0.64286(17) 0.07723(17)
H3_10 H 0.2194 0.6627 0.0746
C4_10 C 0.1410(2) 0.60846(17) 0.19017(19)
C5_10 C 0.2491(2) 0.60396(17) 0.1080(2)
C6_10 C 0.2108(2) 0.58825(19) 0.1408(2)
C7_10 C 0.07166(16) 0.63929(15) 0.24162(15)
H4_10 H 0.0601 0.6098 0.2517
C8_10 C 0.1622(2) 0.52616(16) 0.17874(19)
C9_10 C 0.1801(2) 0.62073(18) 0.1614(2)
H5_10 H 0.1857 0.6530 0.1557
C10_10 C 0.2012(2) 0.53938(18) 0.1493(2)
N4_10 N 0.31378(17) 0.61179(17) 0.06632(18)
H6_10 H 0.3416 0.6060 0.0546
N5_10 N 0.0805(2) 0.71288(17) 0.2342(2)
H7_10 H 0.0762 0.7432 0.2370
C11_10 C 0.2936(2) 0.5854(2) 0.1010(2)
H8_10 H 0.3073 0.5596 0.1171
C12_10 C 0.1160(3) 0.6939(2) 0.2090(3)
H9_10 H 0.1399 0.7105 0.1929
C13_10 C 0.1108(2) 0.35530(17) 0.21121(19)
C14_10 C 0.1328(2) 0.44063(18) 0.1989(2)
H10_10 H 0.1075 0.4502 0.2183
C15_10 C 0.1410(2) 0.39154(17) 0.19017(19)
C16_10 C 0.2108(2) 0.41175(19) 0.1408(2)
C17_10 C 0.07166(16) 0.36071(15) 0.24162(15)
H11_10 H 0.0601 0.3902 0.2517
C18_10 C 0.1622(2) 0.47384(16) 0.17874(19)
C19_10 C 0.1801(2) 0.37927(18) 0.1614(2)
H12_10 H 0.1857 0.3470 0.1557
C20_10 C 0.2012(2) 0.46062(18) 0.1493(2)
N7_10 N 0.0805(2) 0.28712(17) 0.2342(2)
H13_10 H 0.0762 0.2568 0.2370
C21_10 C 0.1160(3) 0.3061(2) 0.2090(3)
H14_10 H 0.1399 0.2895 0.1929
C22_10 C 0.24595(16) 0.35714(17) 0.07723(17)
H15_10 H 0.2194 0.3373 0.0746
C23_10 C 0.2491(2) 0.39604(17) 0.1080(2)
N9_10 N 0.31378(17) 0.38821(17) 0.06632(18)
H16_10 H 0.3416 0.3940 0.0546
C24_10 C 0.2936(2) 0.4146(2) 0.1010(2)
H17_10 H 0.3073 0.4404 0.1171
Cl1_20 Cl 1.0000 0.61573(5) 0.33469(5)
Cl2_20 Cl 1.0000 0.77800(9) 0.27187(10)
Cl1_21 Cl 0.61573(5) 0.33469(5) 0.0000
Cl2_21 Cl 0.77800(9) 0.27187(10) 0.0000
N1_11 N 0.68078(13) 0.25461(13) 0.05272(13)
N2_11 N 0.5000 0.1320(2) 0.2240(2)
H1_11 H 0.5000 0.1135 0.2486
C1_11 C 0.64470(17) 0.21121(19) 0.1108(2)
C2_11 C 0.55937(18) 0.1989(2) 0.1328(2)
H2_11 H 0.5498 0.2183 0.1075
C3_11 C 0.64286(17) 0.07723(17) 0.24595(16)
H3_11 H 0.6627 0.0746 0.2194
C4_11 C 0.60846(17) 0.19017(19) 0.1410(2)
C5_11 C 0.60396(17) 0.1080(2) 0.2491(2)
C6_11 C 0.58825(19) 0.1408(2) 0.2108(2)
C7_11 C 0.63929(15) 0.24162(15) 0.07166(16)
H4_11 H 0.6098 0.2517 0.0601
C8_11 C 0.52616(16) 0.17874(19) 0.1622(2)
C9_11 C 0.62073(18) 0.1614(2) 0.1801(2)
H5_11 H 0.6530 0.1557 0.1857
C10_11 C 0.53938(18) 0.1493(2) 0.2012(2)
N4_11 N 0.61179(17) 0.06632(18) 0.31378(17)
H6_11 H 0.6060 0.0546 0.3416
N5_11 N 0.71288(17) 0.2342(2) 0.0805(2)
H7_11 H 0.7432 0.2370 0.0762
C11_11 C 0.5854(2) 0.1010(2) 0.2936(2)
H8_11 H 0.5596 0.1171 0.3073
C12_11 C 0.6939(2) 0.2090(3) 0.1160(3)
H9_11 H 0.7105 0.1929 0.1399
C13_11 C 0.35530(17) 0.21121(19) 0.1108(2)
C14_11 C 0.44063(18) 0.1989(2) 0.1328(2)
H10_11 H 0.4502 0.2183 0.1075
C15_11 C 0.39154(17) 0.19017(19) 0.1410(2)
C16_11 C 0.41175(19) 0.1408(2) 0.2108(2)
C17_11 C 0.36071(15) 0.24162(15) 0.07166(16)
H11_11 H 0.3902 0.2517 0.0601
C18_11 C 0.47384(16) 0.17874(19) 0.1622(2)
C19_11 C 0.37927(18) 0.1614(2) 0.1801(2)
H12_11 H 0.3470 0.1557 0.1857
C20_11 C 0.46062(18) 0.1493(2) 0.2012(2)
N7_11 N 0.28712(17) 0.2342(2) 0.0805(2)
H13_11 H 0.2568 0.2370 0.0762
C21_11 C 0.3061(2) 0.2090(3) 0.1160(3)
H14_11 H 0.2895 0.1929 0.1399
C22_11 C 0.35714(17) 0.07723(17) 0.24595(16)
H15_11 H 0.3373 0.0746 0.2194
C23_11 C 0.39604(17) 0.1080(2) 0.2491(2)
N9_11 N 0.38821(17) 0.06632(18) 0.31378(17)
H16_11 H 0.3940 0.0546 0.3416
C24_11 C 0.4146(2) 0.1010(2) 0.2936(2)
H17_11 H 0.4404 0.1171 0.3073
Cl1_22 Cl 0.61573(5) 0.33469(5) 1.0000
Cl2_22 Cl 0.77800(9) 0.27187(10) 1.0000
N12_6 N 0.71389(13) 0.35203(13) 0.94808(14)
Cl1_23 Cl -0.0000 0.61573(5) 0.66531(5)
Cl2_23 Cl -0.0000 0.77800(9) 0.72813(10)
Cl1_24 Cl 1.0000 0.61573(5) 0.66531(5)
Cl2_24 Cl 1.0000 0.77800(9) 0.72813(10)
N1_12 N 0.94728(13) 0.68078(13) 0.74539(13)
N2_12 N 0.7760(2) 0.5000 0.8680(2)
H1_12 H 0.7514 0.5000 0.8865
C1_12 C 0.8892(2) 0.64470(17) 0.78879(19)
C2_12 C 0.8672(2) 0.55937(18) 0.8011(2)
H2_12 H 0.8925 0.5498 0.7817
C3_12 C 0.75405(16) 0.64286(17) 0.92277(17)
H3_12 H 0.7806 0.6627 0.9254
C4_12 C 0.8590(2) 0.60846(17) 0.80983(19)
C5_12 C 0.7509(2) 0.60396(17) 0.8920(2)
C6_12 C 0.7892(2) 0.58825(19) 0.8592(2)
C7_12 C 0.92834(16) 0.63929(15) 0.75838(15)
H4_12 H 0.9399 0.6098 0.7483
C8_12 C 0.8378(2) 0.52616(16) 0.82126(19)
C9_12 C 0.8199(2) 0.62073(18) 0.8386(2)
H5_12 H 0.8143 0.6530 0.8443
C10_12 C 0.7988(2) 0.53938(18) 0.8507(2)
N4_12 N 0.68622(17) 0.61179(17) 0.93368(18)
H6_12 H 0.6584 0.6060 0.9454
N5_12 N 0.9195(2) 0.71288(17) 0.7658(2)
H7_12 H 0.9238 0.7432 0.7630
C11_12 C 0.7064(2) 0.5854(2) 0.8990(2)
H8_12 H 0.6927 0.5596 0.8829
C12_12 C 0.8840(3) 0.6939(2) 0.7910(3)
H9_12 H 0.8601 0.7105 0.8071
C13_12 C 0.8892(2) 0.35530(17) 0.78879(19)
C14_12 C 0.8672(2) 0.44063(18) 0.8011(2)
H10_12 H 0.8925 0.4502 0.7817
C15_12 C 0.8590(2) 0.39154(17) 0.80983(19)
C16_12 C 0.7892(2) 0.41175(19) 0.8592(2)
C17_12 C 0.92834(16) 0.36071(15) 0.75838(15)
H11_12 H 0.9399 0.3902 0.7483
C18_12 C 0.8378(2) 0.47384(16) 0.82126(19)
C19_12 C 0.8199(2) 0.37927(18) 0.8386(2)
H12_12 H 0.8143 0.3470 0.8443
C20_12 C 0.7988(2) 0.46062(18) 0.8507(2)
N7_12 N 0.9195(2) 0.28712(17) 0.7658(2)
H13_12 H 0.9238 0.2568 0.7630
C21_12 C 0.8840(3) 0.3061(2) 0.7910(3)
H14_12 H 0.8601 0.2895 0.8071
C22_12 C 0.75405(16) 0.35714(17) 0.92277(17)
H15_12 H 0.7806 0.3373 0.9254
C23_12 C 0.7509(2) 0.39604(17) 0.8920(2)
N9_12 N 0.68622(17) 0.38821(17) 0.93368(18)
H16_12 H 0.6584 0.3940 0.9454
C24_12 C 0.7064(2) 0.4146(2) 0.8990(2)
H17_12 H 0.6927 0.4404 0.8829
loop_
_geom_bond_atom_site_label_1
_geom_bond_atom_site_label_2
_geom_bond_site_symmetry_1
_geom_bond_site_symmetry_2
Ni1 Cl1 1_555 1_555
Cl2 Ni1 1_555 1_555
N10 Ni1 1_555 1_555
N12 Ni1 1_555 1_555
Ni1_2 Cl1_2 1_555 1_555
Cl2_2 Ni1_2 1_555 1_555
N1 Ni1_2 1_555 1_555
N2 H1 1_555 1_555
C1 C4 1_555 1_555
N3 C3 1_555 1_555
C2 H2 1_555 1_555
C3 H3 1_555 1_555
C4 C2 1_555 1_555
C5 C3 1_555 1_555
C6 C5 1_555 1_555
C7 N1 1_555 1_555
H4 C7 1_555 1_555
C8 C2 1_555 1_555
C9 C4 1_555 1_555
H5 C9 1_555 1_555
C10 N2 1_555 1_555
N4 N3 1_555 1_555
H6 N4 1_555 1_555
N5 N1 1_555 1_555
H7 N5 1_555 1_555
C11 C5 1_555 1_555
H8 C11 1_555 1_555
C12 C1 1_555 1_555
H9 C12 1_555 1_555
N6 C17 1_555 1_555
C13 C15 1_555 1_555
C14 H10 1_555 1_555
C15 C14 1_555 1_555
C16 C19 1_555 1_555
C17 C13 1_555 1_555
H11 C17 1_555 1_555
C18 C8 1_555 1_555
C19 C15 1_555 1_555
H12 C19 1_555 1_555
C20 N2 1_555 1_555
N7 N6 1_555 1_555
H13 N7 1_555 1_555
C21 C13 1_555 1_555
H14 C21 1_555 1_555
N8 C22 1_555 1_555
C22 H15 1_555 1_555
C23 C16 1_555 1_555
N9 N8 1_555 1_555
H16 N9 1_555 1_555
C24 C23 1_555 1_555
H17 C24 1_555 1_555
Ni2_2 N6 1_555 1_555
Ni3 N3 1_555 1_555
Ni4 N8 1_555 1_555
N11 Ni1_2 1_555 1_555
C1 C7 1_555 1_555
C6 C9 1_555 1_555
C6 C10 1_555 1_555
C8 C10 1_555 1_555
N4 C11 1_555 1_555
N5 C12 1_555 1_555
C14 C18 1_555 1_555
C16 C20 1_555 1_555
C18 C20 1_555 1_555
N7 C21 1_555 1_555
C22 C23 1_555 1_555
N9 C24 1_555 1_555
Ni1_3 Cl1_3 1_555 1_555
Cl2_3 Ni1_3 1_555 1_555
N1_2 Ni1_3 1_555 1_555
N2_2 H1_2 1_555 1_555
C1_2 C4_2 1_555 1_555
N3_2 C3_2 1_555 1_555
C2_2 H2_2 1_555 1_555
C3_2 H3_2 1_555 1_555
C4_2 C2_2 1_555 1_555
C5_2 C3_2 1_555 1_555
C6_2 C5_2 1_555 1_555
C7_2 N1_2 1_555 1_555
H4_2 C7_2 1_555 1_555
C8_2 C2_2 1_555 1_555
C9_2 C4_2 1_555 1_555
H5_2 C9_2 1_555 1_555
C10_2 N2_2 1_555 1_555
N4_2 N3_2 1_555 1_555
H6_2 N4_2 1_555 1_555
N5_2 N1_2 1_555 1_555
H7_2 N5_2 1_555 1_555
C11_2 C5_2 1_555 1_555
H8_2 C11_2 1_555 1_555
C12_2 C1_2 1_555 1_555
H9_2 C12_2 1_555 1_555
N6_2 C17_2 1_555 1_555
C13_2 C15_2 1_555 1_555
C14_2 H10_2 1_555 1_555
C15_2 C14_2 1_555 1_555
C16_2 C19_2 1_555 1_555
C17_2 C13_2 1_555 1_555
H11_2 C17_2 1_555 1_555
C18_2 C8_2 1_555 1_555
C19_2 C15_2 1_555 1_555
H12_2 C19_2 1_555 1_555
C20_2 N2_2 1_555 1_555
N7_2 N6_2 1_555 1_555
H13_2 N7_2 1_555 1_555
C21_2 C13_2 1_555 1_555
H14_2 C21_2 1_555 1_555
N8_2 C22_2 1_555 1_555
C22_2 H15_2 1_555 1_555
C23_2 C16_2 1_555 1_555
N9_2 N8_2 1_555 1_555
H16_2 N9_2 1_555 1_555
C24_2 C23_2 1_555 1_555
H17_2 C24_2 1_555 1_555
Ni2_3 N6_2 1_555 1_555
Ni3_4 N3_2 1_555 1_555
Ni4_4 N8_2 1_555 1_555
N11_2 Ni1_3 1_555 1_555
C1_2 C7_2 1_555 1_555
C6_2 C9_2 1_555 1_555
C6_2 C10_2 1_555 1_555
C8_2 C10_2 1_555 1_555
N4_2 C11_2 1_555 1_555
N5_2 C12_2 1_555 1_555
C14_2 C18_2 1_555 1_555
C16_2 C20_2 1_555 1_555
C18_2 C20_2 1_555 1_555
N7_2 C21_2 1_555 1_555
C22_2 C23_2 1_555 1_555
N9_2 C24_2 1_555 1_555
Ni1_4 Cl1_4 1_555 1_555
Cl2_4 Ni1_4 1_555 1_555
N10_2 Ni1_4 1_555 1_555
N12_2 Ni1_4 1_555 1_555
Ni2 Cl1_5 1_555 1_555
Cl2_5 Ni2 1_555 1_555
N1_3 Ni2 1_555 1_555
N2_3 H1_3 1_555 1_555
C1_3 C4_3 1_555 1_555
N3_3 C3_3 1_555 1_555
C2_3 H2_3 1_555 1_555
C3_3 H3_3 1_555 1_555
C4_3 C2_3 1_555 1_555
C5_3 C3_3 1_555 1_555
C6_3 C5_3 1_555 1_555
C7_3 N1_3 1_555 1_555
H4_3 C7_3 1_555 1_555
C8_3 C2_3 1_555 1_555
C9_3 C4_3 1_555 1_555
H5_3 C9_3 1_555 1_555
C10_3 N2_3 1_555 1_555
N4_3 N3_3 1_555 1_555
H6_3 N4_3 1_555 1_555
N5_3 N1_3 1_555 1_555
H7_3 N5_3 1_555 1_555
C11_3 C5_3 1_555 1_555
H8_3 C11_3 1_555 1_555
C12_3 C1_3 1_555 1_555
H9_3 C12_3 1_555 1_555
N10 C17_3 1_555 1_555
C13_3 C15_3 1_555 1_555
C14_3 H10_3 1_555 1_555
C15_3 C14_3 1_555 1_555
C16_3 C19_3 1_555 1_555
C17_3 C13_3 1_555 1_555
H11_3 C17_3 1_555 1_555
C18_3 C8_3 1_555 1_555
C19_3 C15_3 1_555 1_555
H12_3 C19_3 1_555 1_555
C20_3 N2_3 1_555 1_555
N7_3 N10 1_555 1_555
H13_3 N7_3 1_555 1_555
C21_3 C13_3 1_555 1_555
H14_3 C21_3 1_555 1_555
N8_3 C22_3 1_555 1_555
C22_3 H15_3 1_555 1_555
C23_3 C16_3 1_555 1_555
N9_3 N8_3 1_555 1_555
H16_3 N9_3 1_555 1_555
C24_3 C23_3 1_555 1_555
H17_3 C24_3 1_555 1_555
Ni4_3 N3_3 1_555 1_555
Ni3_3 N8_3 1_555 1_555
N11_3 Ni2 1_555 1_555
C1_3 C7_3 1_555 1_555
C6_3 C9_3 1_555 1_555
C6_3 C10_3 1_555 1_555
C8_3 C10_3 1_555 1_555
N4_3 C11_3 1_555 1_555
N5_3 C12_3 1_555 1_555
C14_3 C18_3 1_555 1_555
C16_3 C20_3 1_555 1_555
C18_3 C20_3 1_555 1_555
N7_3 C21_3 1_555 1_555
C22_3 C23_3 1_555 1_555
N9_3 C24_3 1_555 1_555
Ni2_2 Cl1_6 1_555 1_555
Cl2_6 Ni2_2 1_555 1_555
N12_3 Ni2_2 1_555 1_555
Ni2_3 Cl1_7 1_555 1_555
Cl2_7 Ni2_3 1_555 1_555
N12_4 Ni2_3 1_555 1_555
Ni2_4 Cl1_8 1_555 1_555
Cl2_8 Ni2_4 1_555 1_555
N1_4 Ni2_4 1_555 1_555
N2_4 H1_4 1_555 1_555
C1_4 C4_4 1_555 1_555
N3_4 C3_4 1_555 1_555
C2_4 H2_4 1_555 1_555
C3_4 H3_4 1_555 1_555
C4_4 C2_4 1_555 1_555
C5_4 C3_4 1_555 1_555
C6_4 C5_4 1_555 1_555
C7_4 N1_4 1_555 1_555
H4_4 C7_4 1_555 1_555
C8_4 C2_4 1_555 1_555
C9_4 C4_4 1_555 1_555
H5_4 C9_4 1_555 1_555
C10_4 N2_4 1_555 1_555
N4_4 N3_4 1_555 1_555
H6_4 N4_4 1_555 1_555
N5_4 N1_4 1_555 1_555
H7_4 N5_4 1_555 1_555
C11_4 C5_4 1_555 1_555
H8_4 C11_4 1_555 1_555
C12_4 C1_4 1_555 1_555
H9_4 C12_4 1_555 1_555
N10_2 C17_4 1_555 1_555
C13_4 C15_4 1_555 1_555
C14_4 H10_4 1_555 1_555
C15_4 C14_4 1_555 1_555
C16_4 C19_4 1_555 1_555
C17_4 C13_4 1_555 1_555
H11_4 C17_4 1_555 1_555
C18_4 C8_4 1_555 1_555
C19_4 C15_4 1_555 1_555
H12_4 C19_4 1_555 1_555
C20_4 N2_4 1_555 1_555
N7_4 N10_2 1_555 1_555
H13_4 N7_4 1_555 1_555
C21_4 C13_4 1_555 1_555
H14_4 C21_4 1_555 1_555
N8_4 C22_4 1_555 1_555
C22_4 H15_4 1_555 1_555
C23_4 C16_4 1_555 1_555
N9_4 N8_4 1_555 1_555
H16_4 N9_4 1_555 1_555
C24_4 C23_4 1_555 1_555
H17_4 C24_4 1_555 1_555
Ni4_2 N3_4 1_555 1_555
Ni3_2 N8_4 1_555 1_555
N11_4 Ni2_4 1_555 1_555
C1_4 C7_4 1_555 1_555
C6_4 C9_4 1_555 1_555
C6_4 C10_4 1_555 1_555
C8_4 C10_4 1_555 1_555
N4_4 C11_4 1_555 1_555
N5_4 C12_4 1_555 1_555
C14_4 C18_4 1_555 1_555
C16_4 C20_4 1_555 1_555
C18_4 C20_4 1_555 1_555
N7_4 C21_4 1_555 1_555
C22_4 C23_4 1_555 1_555
N9_4 C24_4 1_555 1_555
Ni1_5 Cl1_9 1_555 1_555
Cl2_9 Ni1_5 1_555 1_555
N10_3 Ni1_5 1_555 1_555
N12_5 Ni1_5 1_555 1_555
Ni1_6 Cl1_10 1_555 1_555
Cl2_10 Ni1_6 1_555 1_555
N1_5 Ni1_6 1_555 1_555
N2_5 H1_5 1_555 1_555
C1_5 C4_5 1_555 1_555
N11_3 C3_5 1_555 1_555
C2_5 H2_5 1_555 1_555
C3_5 H3_5 1_555 1_555
C4_5 C2_5 1_555 1_555
C5_5 C3_5 1_555 1_555
C6_5 C5_5 1_555 1_555
C7_5 N1_5 1_555 1_555
H4_5 C7_5 1_555 1_555
C8_5 C2_5 1_555 1_555
C9_5 C4_5 1_555 1_555
H5_5 C9_5 1_555 1_555
C10_5 N2_5 1_555 1_555
N4_5 N11_3 1_555 1_555
H6_5 N4_5 1_555 1_555
N5_5 N1_5 1_555 1_555
H7_5 N5_5 1_555 1_555
C11_5 C5_5 1_555 1_555
H8_5 C11_5 1_555 1_555
C12_5 C1_5 1_555 1_555
H9_5 C12_5 1_555 1_555
N6_3 C17_5 1_555 1_555
C13_5 C15_5 1_555 1_555
C14_5 H10_5 1_555 1_555
C15_5 C14_5 1_555 1_555
C16_5 C19_5 1_555 1_555
C17_5 C13_5 1_555 1_555
H11_5 C17_5 1_555 1_555
C18_5 C8_5 1_555 1_555
C19_5 C15_5 1_555 1_555
H12_5 C19_5 1_555 1_555
C20_5 N2_5 1_555 1_555
N7_5 N6_3 1_555 1_555
H13_5 N7_5 1_555 1_555
C21_5 C13_5 1_555 1_555
H14_5 C21_5 1_555 1_555
N12_4 C22_5 1_555 1_555
C22_5 H15_5 1_555 1_555
C23_5 C16_5 1_555 1_555
N9_5 N12_4 1_555 1_555
H16_5 N9_5 1_555 1_555
C24_5 C23_5 1_555 1_555
H17_5 C24_5 1_555 1_555
Ni2_6 N6_3 1_555 1_555
N11_5 Ni1_6 1_555 1_555
C1_5 C7_5 1_555 1_555
C6_5 C9_5 1_555 1_555
C6_5 C10_5 1_555 1_555
C8_5 C10_5 1_555 1_555
N4_5 C11_5 1_555 1_555
N5_5 C12_5 1_555 1_555
C14_5 C18_5 1_555 1_555
C16_5 C20_5 1_555 1_555
C18_5 C20_5 1_555 1_555
N7_5 C21_5 1_555 1_555
C22_5 C23_5 1_555 1_555
N9_5 C24_5 1_555 1_555
Ni3_3 Cl1_11 1_555 1_555
Cl2_11 Ni3_3 1_555 1_555
N10_4 Ni3_3 1_555 1_555
Ni3_4 Cl1_12 1_555 1_555
Cl2_12 Ni3_4 1_555 1_555
N1_6 Ni3_4 1_555 1_555
N2_6 H1_6 1_555 1_555
C1_6 C4_6 1_555 1_555
N3_5 C3_6 1_555 1_555
C2_6 H2_6 1_555 1_555
C3_6 H3_6 1_555 1_555
C4_6 C2_6 1_555 1_555
C5_6 C3_6 1_555 1_555
C6_6 C5_6 1_555 1_555
C7_6 N1_6 1_555 1_555
H4_6 C7_6 1_555 1_555
C8_6 C2_6 1_555 1_555
C9_6 C4_6 1_555 1_555
H5_6 C9_6 1_555 1_555
C10_6 N2_6 1_555 1_555
N4_6 N3_5 1_555 1_555
H6_6 N4_6 1_555 1_555
N5_6 N1_6 1_555 1_555
H7_6 N5_6 1_555 1_555
C11_6 C5_6 1_555 1_555
H8_6 C11_6 1_555 1_555
C12_6 C1_6 1_555 1_555
H9_6 C12_6 1_555 1_555
N6_4 C17_6 1_555 1_555
C13_6 C15_6 1_555 1_555
C14_6 H10_6 1_555 1_555
C15_6 C14_6 1_555 1_555
C16_6 C19_6 1_555 1_555
C17_6 C13_6 1_555 1_555
H11_6 C17_6 1_555 1_555
C18_6 C8_6 1_555 1_555
C19_6 C15_6 1_555 1_555
H12_6 C19_6 1_555 1_555
C20_6 N2_6 1_555 1_555
N7_6 N6_4 1_555 1_555
H13_6 N7_6 1_555 1_555
C21_6 C13_6 1_555 1_555
H14_6 C21_6 1_555 1_555
N8_5 C22_6 1_555 1_555
C22_6 H15_6 1_555 1_555
C23_6 C16_6 1_555 1_555
N9_6 N8_5 1_555 1_555
H16_6 N9_6 1_555 1_555
C24_6 C23_6 1_555 1_555
H17_6 C24_6 1_555 1_555
Ni3_2 N6_4 1_555 1_555
Ni2_5 N3_5 1_555 1_555
Ni4_5 N8_5 1_555 1_555
C1_6 C7_6 1_555 1_555
C6_6 C9_6 1_555 1_555
C6_6 C10_6 1_555 1_555
C8_6 C10_6 1_555 1_555
N4_6 C11_6 1_555 1_555
N5_6 C12_6 1_555 1_555
C14_6 C18_6 1_555 1_555
C16_6 C20_6 1_555 1_555
C18_6 C20_6 1_555 1_555
N7_6 C21_6 1_555 1_555
C22_6 C23_6 1_555 1_555
N9_6 C24_6 1_555 1_555
Ni4_5 Cl1_13 1_555 1_555
Cl2_13 Ni4_5 1_555 1_555
N10_5 Ni4_5 1_555 1_555
Ni4_6 Cl1_14 1_555 1_555
Cl2_14 Ni4_6 1_555 1_555
N1_7 Ni4_6 1_555 1_555
N2_7 H1_7 1_555 1_555
C1_7 C4_7 1_555 1_555
N11_4 C3_7 1_555 1_555
C2_7 H2_7 1_555 1_555
C3_7 H3_7 1_555 1_555
C4_7 C2_7 1_555 1_555
C5_7 C3_7 1_555 1_555
C6_7 C5_7 1_555 1_555
C7_7 N1_7 1_555 1_555
H4_7 C7_7 1_555 1_555
C8_7 C2_7 1_555 1_555
C9_7 C4_7 1_555 1_555
H5_7 C9_7 1_555 1_555
C10_7 N2_7 1_555 1_555
N4_7 N11_4 1_555 1_555
H6_7 N4_7 1_555 1_555
N5_7 N1_7 1_555 1_555
H7_7 N5_7 1_555 1_555
C11_7 C5_7 1_555 1_555
H8_7 C11_7 1_555 1_555
C12_7 C1_7 1_555 1_555
H9_7 C12_7 1_555 1_555
N6_5 C17_7 1_555 1_555
C13_7 C15_7 1_555 1_555
C14_7 H10_7 1_555 1_555
C15_7 C14_7 1_555 1_555
C16_7 C19_7 1_555 1_555
C17_7 C13_7 1_555 1_555
H11_7 C17_7 1_555 1_555
C18_7 C8_7 1_555 1_555
C19_7 C15_7 1_555 1_555
H12_7 C19_7 1_555 1_555
C20_7 N2_7 1_555 1_555
N7_7 N6_5 1_555 1_555
H13_7 N7_7 1_555 1_555
C21_7 C13_7 1_555 1_555
H14_7 C21_7 1_555 1_555
N12_3 C22_7 1_555 1_555
C22_7 H15_7 1_555 1_555
C23_7 C16_7 1_555 1_555
N9_7 N12_3 1_555 1_555
H16_7 N9_7 1_555 1_555
C24_7 C23_7 1_555 1_555
H17_7 C24_7 1_555 1_555
Ni2_8 N6_5 1_555 1_555
N11_6 Ni4_6 1_555 1_555
C1_7 C7_7 1_555 1_555
C6_7 C9_7 1_555 1_555
C6_7 C10_7 1_555 1_555
C8_7 C10_7 1_555 1_555
N4_7 C11_7 1_555 1_555
N5_7 C12_7 1_555 1_555
C14_7 C18_7 1_555 1_555
C16_7 C20_7 1_555 1_555
C18_7 C20_7 1_555 1_555
N7_7 C21_7 1_555 1_555
C22_7 C23_7 1_555 1_555
N9_7 C24_7 1_555 1_555
Ni4_3 Cl1_15 1_555 1_555
Cl2_15 Ni4_3 1_555 1_555
N1_8 Ni4_3 1_555 1_555
N2_8 H1_8 1_555 1_555
C1_8 C4_8 1_555 1_555
N11_5 C3_8 1_555 1_555
C2_8 H2_8 1_555 1_555
C3_8 H3_8 1_555 1_555
C4_8 C2_8 1_555 1_555
C5_8 C3_8 1_555 1_555
C6_8 C5_8 1_555 1_555
C7_8 N1_8 1_555 1_555
H4_8 C7_8 1_555 1_555
C8_8 C2_8 1_555 1_555
C9_8 C4_8 1_555 1_555
H5_8 C9_8 1_555 1_555
C10_8 N2_8 1_555 1_555
N4_8 N11_5 1_555 1_555
H6_8 N4_8 1_555 1_555
N5_8 N1_8 1_555 1_555
H7_8 N5_8 1_555 1_555
C11_8 C5_8 1_555 1_555
H8_8 C11_8 1_555 1_555
C12_8 C1_8 1_555 1_555
H9_8 C12_8 1_555 1_555
N6_6 C17_8 1_555 1_555
C13_8 C15_8 1_555 1_555
C14_8 H10_8 1_555 1_555
C15_8 C14_8 1_555 1_555
C16_8 C19_8 1_555 1_555
C17_8 C13_8 1_555 1_555
H11_8 C17_8 1_555 1_555
C18_8 C8_8 1_555 1_555
C19_8 C15_8 1_555 1_555
H12_8 C19_8 1_555 1_555
C20_8 N2_8 1_555 1_555
N7_8 N6_6 1_555 1_555
H13_8 N7_8 1_555 1_555
C21_8 C13_8 1_555 1_555
H14_8 C21_8 1_555 1_555
N8_6 C22_8 1_555 1_555
C22_8 H15_8 1_555 1_555
C23_8 C16_8 1_555 1_555
N9_8 N8_6 1_555 1_555
H16_8 N9_8 1_555 1_555
C24_8 C23_8 1_555 1_555
H17_8 C24_8 1_555 1_555
Ni4 N6_6 1_555 1_555
Ni2_8 N8_6 1_555 1_555
C1_8 C7_8 1_555 1_555
C6_8 C9_8 1_555 1_555
C6_8 C10_8 1_555 1_555
C8_8 C10_8 1_555 1_555
N4_8 C11_8 1_555 1_555
N5_8 C12_8 1_555 1_555
C14_8 C18_8 1_555 1_555
C16_8 C20_8 1_555 1_555
C18_8 C20_8 1_555 1_555
N7_8 C21_8 1_555 1_555
C22_8 C23_8 1_555 1_555
N9_8 C24_8 1_555 1_555
Ni4_4 Cl1_16 1_555 1_555
Cl2_16 Ni4_4 1_555 1_555
N10_6 Ni4_4 1_555 1_555
Ni2_7 Cl1_17 1_555 1_555
Cl2_17 Ni2_7 1_555 1_555
N1_9 Ni2_7 1_555 1_555
N2_9 H1_9 1_555 1_555
C1_9 C4_9 1_555 1_555
N11 C3_9 1_555 1_555
C2_9 H2_9 1_555 1_555
C3_9 H3_9 1_555 1_555
C4_9 C2_9 1_555 1_555
C5_9 C3_9 1_555 1_555
C6_9 C5_9 1_555 1_555
C7_9 N1_9 1_555 1_555
H4_9 C7_9 1_555 1_555
C8_9 C2_9 1_555 1_555
C9_9 C4_9 1_555 1_555
H5_9 C9_9 1_555 1_555
C10_9 N2_9 1_555 1_555
N4_9 N11 1_555 1_555
H6_9 N4_9 1_555 1_555
N5_9 N1_9 1_555 1_555
H7_9 N5_9 1_555 1_555
C11_9 C5_9 1_555 1_555
H8_9 C11_9 1_555 1_555
C12_9 C1_9 1_555 1_555
H9_9 C12_9 1_555 1_555
N10_5 C17_9 1_555 1_555
C13_9 C15_9 1_555 1_555
C14_9 H10_9 1_555 1_555
C15_9 C14_9 1_555 1_555
C16_9 C19_9 1_555 1_555
C17_9 C13_9 1_555 1_555
H11_9 C17_9 1_555 1_555
C18_9 C8_9 1_555 1_555
C19_9 C15_9 1_555 1_555
H12_9 C19_9 1_555 1_555
C20_9 N2_9 1_555 1_555
N7_9 N10_5 1_555 1_555
H13_9 N7_9 1_555 1_555
C21_9 C13_9 1_555 1_555
H14_9 C21_9 1_555 1_555
N12_2 C22_9 1_555 1_555
C22_9 H15_9 1_555 1_555
C23_9 C16_9 1_555 1_555
N9_9 N12_2 1_555 1_555
H16_9 N9_9 1_555 1_555
C24_9 C23_9 1_555 1_555
H17_9 C24_9 1_555 1_555
N11_7 Ni2_7 1_555 1_555
C1_9 C7_9 1_555 1_555
C6_9 C9_9 1_555 1_555
C6_9 C10_9 1_555 1_555
C8_9 C10_9 1_555 1_555
N4_9 C11_9 1_555 1_555
N5_9 C12_9 1_555 1_555
C14_9 C18_9 1_555 1_555
C16_9 C20_9 1_555 1_555
C18_9 C20_9 1_555 1_555
N7_9 C21_9 1_555 1_555
C22_9 C23_9 1_555 1_555
N9_9 C24_9 1_555 1_555
Ni2_8 Cl1_18 1_555 1_555
Cl2_18 Ni2_8 1_555 1_555
Ni3 Cl1_19 1_555 1_555
Cl2_19 Ni3 1_555 1_555
N1_10 Ni3 1_555 1_555
N2_10 H1_10 1_555 1_555
C1_10 C4_10 1_555 1_555
N11_7 C3_10 1_555 1_555
C2_10 H2_10 1_555 1_555
C3_10 H3_10 1_555 1_555
C4_10 C2_10 1_555 1_555
C5_10 C3_10 1_555 1_555
C6_10 C5_10 1_555 1_555
C7_10 N1_10 1_555 1_555
H4_10 C7_10 1_555 1_555
C8_10 C2_10 1_555 1_555
C9_10 C4_10 1_555 1_555
H5_10 C9_10 1_555 1_555
C10_10 N2_10 1_555 1_555
N4_10 N11_7 1_555 1_555
H6_10 N4_10 1_555 1_555
N5_10 N1_10 1_555 1_555
H7_10 N5_10 1_555 1_555
C11_10 C5_10 1_555 1_555
H8_10 C11_10 1_555 1_555
C12_10 C1_10 1_555 1_555
H9_10 C12_10 1_555 1_555
N10_4 C17_10 1_555 1_555
C13_10 C15_10 1_555 1_555
C14_10 H10_10 1_555 1_555
C15_10 C14_10 1_555 1_555
C16_10 C19_10 1_555 1_555
C17_10 C13_10 1_555 1_555
H11_10 C17_10 1_555 1_555
C18_10 C8_10 1_555 1_555
C19_10 C15_10 1_555 1_555
H12_10 C19_10 1_555 1_555
C20_10 N2_10 1_555 1_555
N7_10 N10_4 1_555 1_555
H13_10 N7_10 1_555 1_555
C21_10 C13_10 1_555 1_555
H14_10 C21_10 1_555 1_555
N12_5 C22_10 1_555 1_555
C22_10 H15_10 1_555 1_555
C23_10 C16_10 1_555 1_555
N9_10 N12_5 1_555 1_555
H16_10 N9_10 1_555 1_555
C24_10 C23_10 1_555 1_555
H17_10 C24_10 1_555 1_555
C1_10 C7_10 1_555 1_555
C6_10 C9_10 1_555 1_555
C6_10 C10_10 1_555 1_555
C8_10 C10_10 1_555 1_555
N4_10 C11_10 1_555 1_555
N5_10 C12_10 1_555 1_555
C14_10 C18_10 1_555 1_555
C16_10 C20_10 1_555 1_555
C18_10 C20_10 1_555 1_555
N7_10 C21_10 1_555 1_555
C22_10 C23_10 1_555 1_555
N9_10 C24_10 1_555 1_555
Ni3_2 Cl1_20 1_555 1_555
Cl2_20 Ni3_2 1_555 1_555
Ni2_5 Cl1_21 1_555 1_555
Cl2_21 Ni2_5 1_555 1_555
N1_11 Ni2_5 1_555 1_555
N2_11 H1_11 1_555 1_555
C1_11 C4_11 1_555 1_555
N11_2 C3_11 1_555 1_555
C2_11 H2_11 1_555 1_555
C3_11 H3_11 1_555 1_555
C4_11 C2_11 1_555 1_555
C5_11 C3_11 1_555 1_555
C6_11 C5_11 1_555 1_555
C7_11 N1_11 1_555 1_555
H4_11 C7_11 1_555 1_555
C8_11 C2_11 1_555 1_555
C9_11 C4_11 1_555 1_555
H5_11 C9_11 1_555 1_555
C10_11 N2_11 1_555 1_555
N4_11 N11_2 1_555 1_555
H6_11 N4_11 1_555 1_555
N5_11 N1_11 1_555 1_555
H7_11 N5_11 1_555 1_555
C11_11 C5_11 1_555 1_555
H8_11 C11_11 1_555 1_555
C12_11 C1_11 1_555 1_555
H9_11 C12_11 1_555 1_555
N10_3 C17_11 1_555 1_555
C13_11 C15_11 1_555 1_555
C14_11 H10_11 1_555 1_555
C15_11 C14_11 1_555 1_555
C16_11 C19_11 1_555 1_555
C17_11 C13_11 1_555 1_555
H11_11 C17_11 1_555 1_555
C18_11 C8_11 1_555 1_555
C19_11 C15_11 1_555 1_555
H12_11 C19_11 1_555 1_555
C20_11 N2_11 1_555 1_555
N7_11 N10_3 1_555 1_555
H13_11 N7_11 1_555 1_555
C21_11 C13_11 1_555 1_555
H14_11 C21_11 1_555 1_555
N12 C22_11 1_555 1_555
C22_11 H15_11 1_555 1_555
C23_11 C16_11 1_555 1_555
N9_11 N12 1_555 1_555
H16_11 N9_11 1_555 1_555
C24_11 C23_11 1_555 1_555
H17_11 C24_11 1_555 1_555
C1_11 C7_11 1_555 1_555
C6_11 C9_11 1_555 1_555
C6_11 C10_11 1_555 1_555
C8_11 C10_11 1_555 1_555
N4_11 C11_11 1_555 1_555
N5_11 C12_11 1_555 1_555
C14_11 C18_11 1_555 1_555
C16_11 C20_11 1_555 1_555
C18_11 C20_11 1_555 1_555
N7_11 C21_11 1_555 1_555
C22_11 C23_11 1_555 1_555
N9_11 C24_11 1_555 1_555
Ni2_6 Cl1_22 1_555 1_555
Cl2_22 Ni2_6 1_555 1_555
N12_6 Ni2_6 1_555 1_555
Ni4 Cl1_23 1_555 1_555
Cl2_23 Ni4 1_555 1_555
Ni4_2 Cl1_24 1_555 1_555
Cl2_24 Ni4_2 1_555 1_555
N1_12 Ni4_2 1_555 1_555
N2_12 H1_12 1_555 1_555
C1_12 C4_12 1_555 1_555
N11_6 C3_12 1_555 1_555
C2_12 H2_12 1_555 1_555
C3_12 H3_12 1_555 1_555
C4_12 C2_12 1_555 1_555
C5_12 C3_12 1_555 1_555
C6_12 C5_12 1_555 1_555
C7_12 N1_12 1_555 1_555
H4_12 C7_12 1_555 1_555
C8_12 C2_12 1_555 1_555
C9_12 C4_12 1_555 1_555
H5_12 C9_12 1_555 1_555
C10_12 N2_12 1_555 1_555
N4_12 N11_6 1_555 1_555
H6_12 N4_12 1_555 1_555
N5_12 N1_12 1_555 1_555
H7_12 N5_12 1_555 1_555
C11_12 C5_12 1_555 1_555
H8_12 C11_12 1_555 1_555
C12_12 C1_12 1_555 1_555
H9_12 C12_12 1_555 1_555
N10_6 C17_12 1_555 1_555
C13_12 C15_12 1_555 1_555
C14_12 H10_12 1_555 1_555
C15_12 C14_12 1_555 1_555
C16_12 C19_12 1_555 1_555
C17_12 C13_12 1_555 1_555
H11_12 C17_12 1_555 1_555
C18_12 C8_12 1_555 1_555
C19_12 C15_12 1_555 1_555
H12_12 C19_12 1_555 1_555
C20_12 N2_12 1_555 1_555
N7_12 N10_6 1_555 1_555
H13_12 N7_12 1_555 1_555
C21_12 C13_12 1_555 1_555
H14_12 C21_12 1_555 1_555
N12_6 C22_12 1_555 1_555
C22_12 H15_12 1_555 1_555
C23_12 C16_12 1_555 1_555
N9_12 N12_6 1_555 1_555
H16_12 N9_12 1_555 1_555
C24_12 C23_12 1_555 1_555
H17_12 C24_12 1_555 1_555
C1_12 C7_12 1_555 1_555
C6_12 C9_12 1_555 1_555
C6_12 C10_12 1_555 1_555
C8_12 C10_12 1_555 1_555
N4_12 C11_12 1_555 1_555
N5_12 C12_12 1_555 1_555
C14_12 C18_12 1_555 1_555
C16_12 C20_12 1_555 1_555
C18_12 C20_12 1_555 1_555
N7_12 C21_12 1_555 1_555
C22_12 C23_12 1_555 1_555
N9_12 C24_12 1_555 1_555

#END
