
###############################################################################
#
# This file contains modified crystal structure data generated from the
# MOF subset of the Cambridge Structural Database (CSD) v543 
# hosted by the Cambridge Crystallographic Data Centre (CCDC).
#
# This work is licensed under the Creative Commons
# Attribution-NonCommercial-ShareAlike 4.0 International License.
# To view a copy of this license, visit
# http://creativecommons.org/licenses/by-nc-sa/4.0/
# or send a letter to
# Creative Commons, PO Box 1866, Mountain View, CA 94042, USA.
#
# CIF created using the CSD Python API on 29 September 2022
# The structure has been converted into the P1 space group
# The structure has a 3D framework
# The original CSD entry ADULIX is in the orthorhombic crystal system
# The original CSD entry ADULIX is in a Sohncke space group
# The framework has been calculated to contain at least 10.0% void space
# The void calculation uses a probe of radius 1.32A, grid spacing 0.4
#
###############################################################################

data_ADULIX
_chemical_formula_moiety         '(C168 H128 Cu20 I16 N28 O62 Pr8)n'
_symmetry_cell_setting           triclinic
_symmetry_space_group_name_H-M   'P 1'
_symmetry_Int_Tables_number      1
_space_group_name_Hall           'P 1'
loop_
_symmetry_equiv_pos_site_id
_symmetry_equiv_pos_as_xyz
1 x,y,z
_cell_length_a                   9.24720(10)
_cell_length_b                   21.2695(2)
_cell_length_c                   30.2936(4)
_cell_angle_alpha                90
_cell_angle_beta                 90
_cell_angle_gamma                90
_cell_volume                     5958.25
loop_
_atom_site_label
_atom_site_type_symbol
_atom_site_fract_x
_atom_site_fract_y
_atom_site_fract_z
Pr4 Pr 0.00178(8) 0.58849(3) 0.50809(2)
H31 H 0.6774 0.1873 0.0124
H32 H 0.6247 0.2455 0.0007
Pr5 Pr 0.49822(8) 0.41151(3) 0.00809(2)
Pr9 Pr 0.97046(8) 0.39653(3) 0.00427(2)
O19 O 0.6656(12) 0.0945(5) 0.0507(3)
O20 O 0.1914(11) 0.1262(5) 0.0391(3)
O21 O 0.3972(11) 0.1651(5) 0.0647(3)
O25 O 0.3608(11) 0.0188(4) 0.0365(3)
Pr2 Pr 0.47046(8) 0.10347(3) 0.99573(2)
Cu1 Cu 0.5272(3) 0.37132(10) 0.73496(7)
Cu2 Cu 0.2884(3) 0.29592(10) 0.74279(7)
Cu3 Cu 0.2664(3) 0.25131(9) 0.66066(7)
Cu4 Cu 0.2552(4) 0.17355(12) 0.72140(9)
Cu5 Cu 0.0231(3) 0.08646(14) 0.73209(8)
I1 I 0.51778(11) 0.24401(4) 0.70486(3)
I2 I 0.25049(12) 0.41557(5) 0.74129(3)
I3 I 0.02687(12) 0.24239(5) 0.71046(3)
I4 I 0.30219(13) 0.06390(5) 0.74185(4)
H2 H 0.0782 0.1467 0.8157
C19 C 0.2289(15) 0.1950(6) 0.9384(5)
C20 C 0.2470(17) 0.2207(6) 0.8919(5)
C21 C 0.3596(18) 0.1995(7) 0.8656(5)
H13 H 0.4270 0.1708 0.8762
C22 C 0.3683(18) 0.2226(7) 0.8233(5)
H14 H 0.4400 0.2067 0.8049
C23 C 0.1761(19) 0.2875(7) 0.8329(5)
H15 H 0.1148 0.3184 0.8218
C24 C 0.1520(17) 0.2670(7) 0.8753(5)
H16 H 0.0766 0.2829 0.8922
C25 C 0.7687(16) 0.3527(6) 0.9297(5)
C26 C 0.7082(18) 0.3524(7) 0.8828(5)
C27 C 0.7607(19) 0.3138(8) 0.8501(5)
H17 H 0.8347 0.2855 0.8563
C28 C 0.7043(18) 0.3171(8) 0.8088(6)
H18 H 0.7345 0.2877 0.7880
C29 C 0.558(2) 0.3991(9) 0.8287(6)
H19 H 0.4889 0.4292 0.8216
C30 C 0.603(2) 0.3968(8) 0.8718(6)
H20 H 0.5643 0.4237 0.8930
C31 C 0.7956(17) 0.5357(6) 0.5823(4)
C32 C 0.7332(18) 0.4961(6) 0.6195(5)
C33 C 0.823(2) 0.4664(8) 0.6491(5)
H21 H 0.9232 0.4716 0.6477
C34 C 0.7621(17) 0.4291(7) 0.6804(5)
H22 H 0.8236 0.4077 0.6995
C35 C 0.5342(19) 0.4518(7) 0.6572(5)
H23 H 0.4344 0.4483 0.6600
C36 C 0.5888(18) 0.4891(8) 0.6234(5)
H24 H 0.5266 0.5090 0.6037
C37 C 0.2509(18) 0.0125(7) 0.5368(5)
C38 C 0.2501(18) 0.0707(7) 0.5664(5)
C39 C 0.3845(19) 0.0968(7) 0.5776(6)
H25 H 0.4709 0.0805 0.5668
C40 C 0.3812(19) 0.1487(9) 0.6058(6)
H26 H 0.4691 0.1668 0.6136
C41 C 0.1345(19) 0.1474(8) 0.6089(5)
H27 H 0.0482 0.1652 0.6185
C42 C 0.1288(19) 0.0962(8) 0.5824(6)
H28 H 0.0398 0.0787 0.5751
N4 N 0.2786(14) 0.2669(5) 0.8071(4)
N5 N 0.6049(15) 0.3617(6) 0.7959(5)
N6 N 0.6171(13) 0.4210(6) 0.6858(4)
N7 N 0.2624(14) 0.1739(5) 0.6223(4)
O8 O 0.1063(10) 0.1811(4) 0.9511(3)
O9 O 0.3414(11) 0.1915(4) 0.9604(3)
O10 O 0.6137(11) 0.2065(4) 0.9959(4)
O11 O 0.6914(11) 0.3738(5) 0.9609(3)
O12 O 0.8972(11) 0.3349(5) 0.9353(3)
O13 O 0.9280(11) 0.5403(5) 0.5790(3)
O14 O 0.7077(11) 0.5629(5) 0.5562(3)
O15 O 0.3633(12) 0.0013(4) 0.5149(4)
Pr8 Pr 0.52954(8) 0.60347(3) 0.50427(2)
N8 N 0.2735(14) 0.3255(5) 0.6196(4)
O17 O 0.5908(12) 0.1128(5) 0.9212(3)
O18 O 0.5842(11) 0.0017(5) 0.9782(4)
O22 O 0.0720(11) 0.0403(5) 0.9210(3)
O23 O 0.2923(11) 0.0629(5) 0.9438(3)
O24 O 0.1367(12) 0.9987(4) 0.0149(4)
O16 O 0.1392(11) 0.9812(4) 0.5365(3)
Pr3 Pr 0.50178(8) 0.91151(3) 0.49191(2)
Pr7 Pr 0.02954(8) 0.89653(3) 0.49573(2)
C13 C 0.7517(16) 0.0578(6) 0.0699(4)
C14 C 0.6872(18) 0.0221(7) 0.1095(5)
C17 C 0.497(2) 0.0080(8) 0.1631(5)
H11 H 0.4102 0.0209 0.1756
C18 C 0.5543(19) 0.0423(8) 0.1283(5)
H12 H 0.5067 0.0776 0.1175
O5 O 0.8764(13) 0.0488(5) 0.0617(4)
O7 O 0.9018(11) 0.1794(4) 0.0382(3)
H29 H 0.8901 0.2201 0.0342
H30 H 0.8328 0.1630 0.0646
Pr1 Pr 0.99822(8) 0.08849(3) 0.99191(2)
C1 C 0.7267(15) 0.1250(6) 0.9160(5)
C2 C 0.7859(17) 0.1217(6) 0.8691(5)
C3 C 0.9257(18) 0.1418(9) 0.8622(6)
H1 H 0.9788 0.1608 0.8846
C4 C 0.984(2) 0.1326(9) 0.8204(5)
C5 C 0.775(2) 0.0917(9) 0.7944(6)
H3 H 0.7212 0.0778 0.7704
C6 C 0.706(2) 0.0969(7) 0.8346(5)
H4 H 0.6110 0.0843 0.8384
N1 N 0.9188(17) 0.1057(7) 0.7873(5)
O1 O 0.8082(12) 0.1400(5) 0.9462(4)
O3 O 0.8230(14) 0.0124(6) 0.9747(4)
N9 N 0.9369(16) 0.0433(8) 0.6795(5)
C15 C 0.758(2) 0.9729(8) 0.1281(5)
H9 H 0.8493 0.9615 0.1182
C16 C 0.688(3) 0.9380(10) 0.1641(6)
H10 H 0.7328 0.9026 0.1759
N3 N 0.5631(16) 0.9567(8) 0.1795(5)
Cu7 Cu 0.4769(3) 0.91354(14) 0.23209(8)
C7 C 0.7065(17) 0.9846(7) 0.9671(5)
C8 C 0.7150(18) 0.9271(7) 0.9388(5)
C9 C 0.8325(18) 0.9169(8) 0.9113(5)
H5 H 0.9110 0.9442 0.9125
C10 C 0.835(2) 0.8678(8) 0.8825(6)
H6 H 0.9141 0.8633 0.8637
C11 C 0.6132(18) 0.8339(7) 0.9066(5)
H7 H 0.5379 0.8049 0.9053
C12 C 0.6017(18) 0.8834(7) 0.9355(6)
H8 H 0.5194 0.8879 0.9529
N2 N 0.7265(14) 0.8255(5) 0.8804(4)
Cu6 Cu 0.7336(3) 0.75131(9) 0.83934(7)
C17_2 C 0.003(2) 0.9920(8) 0.6631(5)
H11_2 H 0.0898 0.9791 0.6756
C7_2 C 0.7935(17) 0.0154(7) 0.4671(5)
C8_2 C 0.7850(18) 0.0729(7) 0.4388(5)
C9_2 C 0.6675(18) 0.0831(8) 0.4113(5)
H5_2 H 0.5890 0.0558 0.4125
C10_2 C 0.665(2) 0.1322(8) 0.3825(6)
H6_2 H 0.5859 0.1367 0.3637
C11_2 C 0.8868(18) 0.1661(7) 0.4066(5)
H7_2 H 0.9621 0.1951 0.4053
C12_2 C 0.8983(18) 0.1166(7) 0.4355(6)
H8_2 H 0.9806 0.1121 0.4529
C15_2 C 0.742(2) 0.0271(8) 0.6281(5)
H9_2 H 0.6507 0.0385 0.6182
C16_2 C 0.812(3) 0.0620(10) 0.6641(6)
H10_2 H 0.7672 0.0974 0.6759
N2_2 N 0.7735(14) 0.1745(5) 0.3804(4)
Cu6_2 Cu 0.7664(3) 0.24869(9) 0.33934(7)
Cu2_2 Cu 0.2116(3) 0.70408(10) 0.24279(7)
Cu3_2 Cu 0.2336(3) 0.74869(9) 0.16066(7)
Cu4_2 Cu 0.2448(4) 0.82645(12) 0.22140(9)
I2_2 I 0.24951(12) 0.58443(5) 0.24129(3)
I3_2 I 0.47313(12) 0.75761(5) 0.21046(3)
I4_2 I 0.19781(13) 0.93610(5) 0.24185(4)
C1_2 C 0.7733(15) 0.8750(6) 0.4160(5)
C2_2 C 0.7141(17) 0.8783(6) 0.3691(5)
C3_2 C 0.5743(18) 0.8582(9) 0.3622(6)
H1_2 H 0.5212 0.8392 0.3846
C4_2 C 0.516(2) 0.8674(9) 0.3204(5)
H2_2 H 0.4218 0.8533 0.3157
C5_2 C 0.725(2) 0.9083(9) 0.2944(6)
H3_2 H 0.7788 0.9222 0.2704
C6_2 C 0.794(2) 0.9031(7) 0.3346(5)
H4_2 H 0.8890 0.9157 0.3384
C13_2 C 0.7483(16) 0.9422(6) 0.5699(4)
C14_2 C 0.8128(18) 0.9779(7) 0.6095(5)
C18_2 C 0.9457(19) 0.9577(8) 0.6283(5)
H12_2 H 0.9933 0.9224 0.6175
C19_2 C 0.2711(15) 0.8050(6) 0.4384(5)
C20_2 C 0.2530(17) 0.7793(6) 0.3919(5)
C21_2 C 0.1404(18) 0.8005(7) 0.3656(5)
H13_2 H 0.0730 0.8292 0.3762
C22_2 C 0.1317(18) 0.7774(7) 0.3233(5)
H14_2 H 0.0600 0.7933 0.3049
C23_2 C 0.3239(19) 0.7125(7) 0.3329(5)
H15_2 H 0.3852 0.6816 0.3218
C24_2 C 0.3480(17) 0.7330(7) 0.3753(5)
H16_2 H 0.4234 0.7171 0.3922
H19_2 H 0.0111 0.5708 0.3216
H23_2 H 0.0656 0.5517 0.1600
C37_2 C 0.2491(18) 0.9875(7) 0.0368(5)
C38_2 C 0.2499(18) 0.9293(7) 0.0664(5)
C39_2 C 0.1155(19) 0.9032(7) 0.0776(6)
H25_2 H 0.0291 0.9195 0.0668
C40_2 C 0.1188(19) 0.8513(9) 0.1058(6)
H26_2 H 0.0309 0.8332 0.1136
C41_2 C 0.3655(19) 0.8526(8) 0.1089(5)
H27_2 H 0.4518 0.8348 0.1185
C42_2 C 0.3712(19) 0.9038(8) 0.0824(6)
H28_2 H 0.4602 0.9213 0.0751
N1_2 N 0.5812(17) 0.8943(7) 0.2873(5)
N4_2 N 0.2214(14) 0.7331(5) 0.3071(4)
N7_2 N 0.2376(14) 0.8261(5) 0.1223(4)
O1_2 O 0.6918(12) 0.8600(5) 0.4462(4)
O2 O 0.9092(12) 0.8872(5) 0.4212(3)
O3_2 O 0.6770(14) 0.9876(6) 0.4747(4)
O4 O 0.9158(11) 0.9983(5) 0.4782(4)
O5_2 O 0.6236(13) 0.9512(5) 0.5617(4)
O6 O 0.8344(12) 0.9055(5) 0.5507(3)
O7_2 O 0.5982(11) 0.8206(4) 0.5382(3)
O8_2 O 0.3937(10) 0.8189(4) 0.4511(3)
O9_2 O 0.1586(11) 0.8085(4) 0.4604(3)
H29_2 H 0.6099 0.7799 0.5342
H30_2 H 0.6672 0.8370 0.5646
N8_2 N 0.2265(14) 0.6745(5) 0.1196(4)
O20_2 O 0.3086(11) 0.8738(5) 0.5391(3)
O21_2 O 0.1028(11) 0.8349(5) 0.5647(3)
O22_2 O 0.4280(11) 0.9597(5) 0.4210(3)
O23_2 O 0.2077(11) 0.9371(5) 0.4438(3)
Cu1_2 Cu 0.9728(3) 0.62868(10) 0.23496(7)
I1_2 I 0.98222(11) 0.75599(4) 0.20486(3)
C25_2 C 0.7313(16) 0.6473(6) 0.4297(5)
C26_2 C 0.7918(18) 0.6476(7) 0.3828(5)
C27_2 C 0.7393(19) 0.6862(8) 0.3501(5)
H17_2 H 0.6653 0.7145 0.3563
C28_2 C 0.7957(18) 0.6829(8) 0.3088(6)
H18_2 H 0.7655 0.7123 0.2880
C29_2 C 0.942(2) 0.6009(9) 0.3287(6)
C30_2 C 0.897(2) 0.6032(8) 0.3718(6)
H20_2 H 0.9357 0.5763 0.3930
C31_2 C 0.7044(17) 0.4643(6) 0.0823(4)
C32_2 C 0.7668(18) 0.5039(6) 0.1195(5)
C33_2 C 0.677(2) 0.5336(8) 0.1491(5)
H21_2 H 0.5768 0.5284 0.1477
C34_2 C 0.7379(17) 0.5709(7) 0.1804(5)
H22_2 H 0.6764 0.5923 0.1995
C35_2 C 0.9658(19) 0.5482(7) 0.1572(5)
C36_2 C 0.9112(18) 0.5109(8) 0.1234(5)
H24_2 H 0.9734 0.4910 0.1037
N5_2 N 0.8951(15) 0.6383(6) 0.2959(5)
N6_2 N 0.8829(13) 0.5790(6) 0.1858(4)
O10_2 O 0.8863(11) 0.7935(4) 0.4959(4)
O11_2 O 0.8086(11) 0.6262(5) 0.4609(3)
O12_2 O 0.6028(11) 0.6651(5) 0.4353(3)
O13_2 O 0.5720(11) 0.4597(5) 0.0790(3)
O14_2 O 0.7923(11) 0.4371(5) 0.0562(3)
H31_2 H 0.8226 0.8127 0.5124
H32_2 H 0.8753 0.7545 0.5007
C1_3 C 0.2733(15) 0.6250(6) 0.5840(5)
C2_3 C 0.2141(17) 0.6217(6) 0.6309(5)
C3_3 C 0.0743(18) 0.6418(9) 0.6378(6)
H1_3 H 0.0212 0.6608 0.6154
C4_3 C 0.016(2) 0.6326(9) 0.6796(5)
C5_3 C 0.225(2) 0.5917(9) 0.7056(6)
H3_3 H 0.2788 0.5778 0.7296
C6_3 C 0.294(2) 0.5969(7) 0.6654(5)
H4_3 H 0.3890 0.5843 0.6616
C7_3 C 0.2935(17) 0.4846(7) 0.5329(5)
C8_3 C 0.2850(18) 0.4271(7) 0.5612(5)
C9_3 C 0.1675(18) 0.4169(8) 0.5887(5)
H5_3 H 0.0890 0.4442 0.5875
C10_3 C 0.165(2) 0.3678(8) 0.6175(6)
H6_3 H 0.0859 0.3633 0.6363
C11_3 C 0.3868(18) 0.3339(7) 0.5934(5)
H7_3 H 0.4621 0.3049 0.5947
C12_3 C 0.3983(18) 0.3834(7) 0.5645(6)
H8_3 H 0.4806 0.3879 0.5471
C13_3 C 0.2483(16) 0.5578(6) 0.4301(4)
C14_3 C 0.3128(18) 0.5221(7) 0.3905(5)
C15_3 C 0.242(2) 0.4729(8) 0.3719(5)
H9_3 H 0.1507 0.4615 0.3818
C16_3 C 0.312(3) 0.4380(10) 0.3359(6)
H10_3 H 0.2672 0.4026 0.3241
C17_3 C 0.503(2) 0.5080(8) 0.3369(5)
H11_3 H 0.5898 0.5209 0.3244
C18_3 C 0.4457(19) 0.5423(8) 0.3717(5)
H12_3 H 0.4933 0.5776 0.3825
N1_3 N 0.0812(17) 0.6057(7) 0.7127(5)
N3_2 N 0.4369(16) 0.4567(8) 0.3205(5)
O1_3 O 0.1918(12) 0.6400(5) 0.5538(4)
O2_2 O 0.4092(12) 0.6128(5) 0.5788(3)
O3_3 O 0.1770(14) 0.5124(6) 0.5253(4)
O4_2 O 0.4158(11) 0.5017(5) 0.5218(4)
O5_3 O 0.1236(13) 0.5488(5) 0.4383(4)
O6_2 O 0.3344(12) 0.5945(5) 0.4493(3)
O7_3 O 0.0982(11) 0.6794(4) 0.4618(3)
H29_3 H 0.1099 0.7201 0.4658
H30_3 H 0.1672 0.6630 0.4354
Cu7_2 Cu 0.5231(3) 0.41354(14) 0.26791(8)
N9_2 N 0.0631(16) 0.5433(8) 0.8205(5)
C31_3 C 0.2044(17) 0.0357(6) 0.9177(4)
H24_3 H 0.4734 0.0090 0.8963
Cu1_3 Cu 0.4728(3) 0.87132(10) 0.76504(7)
Cu2_3 Cu 0.7116(3) 0.79592(10) 0.75721(7)
Cu4_3 Cu 0.7448(4) 0.67355(12) 0.77860(9)
Cu5_2 Cu 0.9769(3) 0.58646(14) 0.76791(8)
I1_3 I 0.48222(11) 0.74401(4) 0.79514(3)
I2_3 I 0.74951(12) 0.91557(5) 0.75871(3)
I3_3 I 0.97313(12) 0.74239(5) 0.78954(3)
I4_3 I 0.69781(13) 0.56390(5) 0.75815(4)
H2_3 H 0.9218 0.6467 0.6843
C19_3 C 0.7711(15) 0.6950(6) 0.5616(5)
C20_3 C 0.7530(17) 0.7207(6) 0.6081(5)
C21_3 C 0.6404(18) 0.6995(7) 0.6344(5)
H13_3 H 0.5730 0.6708 0.6238
C22_3 C 0.6317(18) 0.7226(7) 0.6767(5)
H14_3 H 0.5600 0.7067 0.6951
C23_3 C 0.8239(19) 0.7875(7) 0.6671(5)
H15_3 H 0.8852 0.8184 0.6782
C24_3 C 0.8480(17) 0.7670(7) 0.6247(5)
H16_3 H 0.9234 0.7829 0.6078
C25_3 C 0.2313(16) 0.8527(6) 0.5703(5)
C26_3 C 0.2918(18) 0.8524(7) 0.6172(5)
C27_3 C 0.2393(19) 0.8138(8) 0.6499(5)
H17_3 H 0.1653 0.7855 0.6437
C28_3 C 0.2957(18) 0.8171(8) 0.6912(6)
H18_3 H 0.2655 0.7877 0.7120
C29_3 C 0.442(2) 0.8991(9) 0.6713(6)
H19_3 H 0.5111 0.9292 0.6784
C30_3 C 0.397(2) 0.8968(8) 0.6282(6)
H20_3 H 0.4357 0.9237 0.6070
C32_3 C 0.2668(18) 0.9961(6) 0.8805(5)
C33_3 C 0.177(2) 0.9664(8) 0.8509(5)
H21_3 H 0.0768 0.9716 0.8523
C34_3 C 0.2379(17) 0.9291(7) 0.8196(5)
H22_3 H 0.1764 0.9077 0.8005
C35_3 C 0.4658(19) 0.9518(7) 0.8428(5)
H23_3 H 0.5656 0.9483 0.8400
C36_3 C 0.4112(18) 0.9891(8) 0.8766(5)
C37_3 C 0.7491(18) 0.5125(7) 0.9632(5)
C38_3 C 0.7499(18) 0.5707(7) 0.9336(5)
C39_3 C 0.6155(19) 0.5968(7) 0.9224(6)
H25_3 H 0.5291 0.5805 0.9332
C40_3 C 0.6188(19) 0.6487(9) 0.8942(6)
H26_3 H 0.5309 0.6668 0.8864
C41_3 C 0.8655(19) 0.6474(8) 0.8911(5)
H27_3 H 0.9518 0.6652 0.8815
C42_3 C 0.8712(19) 0.5962(8) 0.9176(6)
H28_3 H 0.9602 0.5787 0.9249
N4_3 N 0.7214(14) 0.7669(5) 0.6929(4)
N5_3 N 0.3951(15) 0.8617(6) 0.7041(5)
N6_3 N 0.3829(13) 0.9210(6) 0.8142(4)
N7_3 N 0.7376(14) 0.6739(5) 0.8777(4)
O8_3 O 0.8937(10) 0.6811(4) 0.5489(3)
O9_3 O 0.6586(11) 0.6915(4) 0.5396(3)
O10_3 O 0.3863(11) 0.7065(4) 0.5041(4)
O15_2 O 0.6367(12) 0.5013(4) 0.9851(4)
O16_2 O 0.8608(11) 0.4812(4) 0.9635(3)
H31_3 H 0.3226 0.6873 0.4876
H32_3 H 0.3753 0.7455 0.4993
O24_2 O 0.8633(12) 0.4987(4) 0.4851(4)
O25_2 O 0.6392(11) 0.5188(4) 0.4635(3)
Cu1_4 Cu 0.0272(3) 0.12868(10) 0.26504(7)
I1_4 I 0.01778(11) 0.25599(4) 0.29514(3)
C25_4 C 0.2687(16) 0.1473(6) 0.0703(5)
C26_4 C 0.2082(18) 0.1476(7) 0.1172(5)
C27_4 C 0.2607(19) 0.1862(8) 0.1499(5)
H17_4 H 0.3347 0.2145 0.1437
C28_4 C 0.2043(18) 0.1829(8) 0.1912(6)
H18_4 H 0.2345 0.2123 0.2120
C29_4 C 0.058(2) 0.1009(9) 0.1713(6)
C30_4 C 0.103(2) 0.1032(8) 0.1282(6)
H20_4 H 0.0643 0.0763 0.1070
C32_4 C 0.2332(18) 0.0039(6) 0.3805(5)
C33_4 C 0.323(2) 0.0336(8) 0.3509(5)
H21_4 H 0.4232 0.0284 0.3523
C34_4 C 0.2621(17) 0.0709(7) 0.3196(5)
H22_4 H 0.3236 0.0923 0.3005
C35_4 C 0.0342(19) 0.0482(7) 0.3428(5)
C36_4 C 0.0888(18) 0.0109(8) 0.3766(5)
N5_4 N 0.1049(15) 0.1383(6) 0.2041(5)
N6_4 N 0.1171(13) 0.0790(6) 0.3142(4)
O10_4 O 0.1137(11) 0.2935(4) 0.0041(4)
O17_2 O 0.0908(12) 0.3872(5) 0.0788(3)
O18_2 O 0.0842(11) 0.4983(5) 0.0218(4)
H31_4 H 0.1774 0.3127 0.9876
H32_4 H 0.1247 0.2545 0.9993
O19_2 O 0.1656(12) 0.4055(5) 0.9493(3)
C31_4 C 0.2956(17) 0.9643(6) 0.4177(4)
H24_4 H 0.0266 0.9910 0.3963
Cu2_4 Cu 0.7884(3) 0.20408(10) 0.25721(7)
Cu4_4 Cu 0.7552(4) 0.32645(12) 0.27860(9)
I2_4 I 0.75049(12) 0.08443(5) 0.25871(3)
I3_4 I 0.52687(12) 0.25761(5) 0.28954(3)
I4_4 I 0.80219(13) 0.43610(5) 0.25815(4)
C1_4 C 0.2267(15) 0.3750(6) 0.0840(5)
C2_4 C 0.2859(17) 0.3783(6) 0.1309(5)
C3_4 C 0.4257(18) 0.3582(9) 0.1378(6)
H1_4 H 0.4788 0.3392 0.1154
C4_4 C 0.484(2) 0.3674(9) 0.1796(5)
H2_4 H 0.5782 0.3533 0.1843
C5_4 C 0.275(2) 0.4083(9) 0.2056(6)
H3_4 H 0.2212 0.4222 0.2296
C6_4 C 0.206(2) 0.4031(7) 0.1654(5)
H4_4 H 0.1110 0.4157 0.1616
C7_4 C 0.2065(17) 0.5154(7) 0.0329(5)
C8_4 C 0.2150(18) 0.5729(7) 0.0612(5)
C9_4 C 0.3325(18) 0.5831(8) 0.0887(5)
H5_4 H 0.4110 0.5558 0.0875
C10_4 C 0.335(2) 0.6322(8) 0.1175(6)
H6_4 H 0.4141 0.6367 0.1363
C11_4 C 0.1132(18) 0.6661(7) 0.0934(5)
H7_4 H 0.0379 0.6951 0.0947
C12_4 C 0.1017(18) 0.6166(7) 0.0645(6)
H8_4 H 0.0194 0.6121 0.0471
C19_4 C 0.7289(15) 0.3050(6) 0.0616(5)
C20_4 C 0.7470(17) 0.2793(6) 0.1081(5)
C21_4 C 0.8596(18) 0.3005(7) 0.1344(5)
H13_4 H 0.9270 0.3292 0.1238
C22_4 C 0.8683(18) 0.2774(7) 0.1767(5)
H14_4 H 0.9400 0.2933 0.1951
C23_4 C 0.6761(19) 0.2125(7) 0.1671(5)
H15_4 H 0.6148 0.1816 0.1782
C24_4 C 0.6520(17) 0.2330(7) 0.1247(5)
H16_4 H 0.5766 0.2171 0.1078
H19_4 H 0.9889 0.0708 0.1784
H23_4 H 0.9344 0.0517 0.3400
C37_4 C 0.7509(18) 0.4875(7) 0.4632(5)
C38_4 C 0.7501(18) 0.4293(7) 0.4336(5)
C39_4 C 0.8845(19) 0.4032(7) 0.4224(6)
H25_4 H 0.9709 0.4195 0.4332
C40_4 C 0.8812(19) 0.3513(9) 0.3942(6)
H26_4 H 0.9691 0.3332 0.3864
C41_4 C 0.6345(19) 0.3526(8) 0.3911(5)
H27_4 H 0.5482 0.3348 0.3815
C42_4 C 0.6288(19) 0.4038(8) 0.4176(6)
H28_4 H 0.5398 0.4213 0.4249
N1_4 N 0.4188(17) 0.3943(7) 0.2127(5)
N4_4 N 0.7786(14) 0.2331(5) 0.1929(4)
N7_4 N 0.7624(14) 0.3261(5) 0.3777(4)
O1_4 O 0.3082(12) 0.3600(5) 0.0538(4)
O3_4 O 0.3230(14) 0.4876(6) 0.0253(4)
O8_4 O 0.6063(10) 0.3189(4) 0.0489(3)
O9_4 O 0.8414(11) 0.3085(4) 0.0396(3)
C13_4 C 0.2517(16) 0.4422(6) 0.9301(4)
C14_4 C 0.1872(18) 0.4779(7) 0.8905(5)
C15_4 C 0.258(2) 0.5271(8) 0.8719(5)
H9_4 H 0.3493 0.5385 0.8818
C16_4 C 0.188(3) 0.5620(10) 0.8359(6)
H10_4 H 0.2328 0.5974 0.8241
C18_4 C 0.0543(19) 0.4577(8) 0.8717(5)
H12_4 H 0.0067 0.4224 0.8825
O5_4 O 0.3764(13) 0.4512(5) 0.9383(4)
O7_4 O 0.4018(11) 0.3206(4) 0.9618(3)
H29_4 H 0.3901 0.2799 0.9658
H30_4 H 0.3328 0.3370 0.9354
C17_4 C 0.997(2) 0.4920(8) 0.8369(5)
H11_4 H 0.9102 0.4791 0.8244
loop_
_geom_bond_atom_site_label_1
_geom_bond_atom_site_label_2
_geom_bond_site_symmetry_1
_geom_bond_site_symmetry_2
Pr2 O9 1_555 1_555
Cu1 I1 1_555 1_555
Cu2 I1 1_555 1_555
Cu3 I1 1_555 1_555
Cu4 I1 1_555 1_555
Cu5 I4 1_555 1_555
I2 Cu1 1_555 1_555
I3 Cu2 1_555 1_555
I4 Cu4 1_555 1_555
C19 C20 1_555 1_555
C20 C21 1_555 1_555
C21 H13 1_555 1_555
C22 C21 1_555 1_555
H14 C22 1_555 1_555
C23 H15 1_555 1_555
C24 C20 1_555 1_555
H16 C24 1_555 1_555
C25 C26 1_555 1_555
C26 C27 1_555 1_555
C27 H17 1_555 1_555
C28 C27 1_555 1_555
H18 C28 1_555 1_555
C29 H19 1_555 1_555
C30 C26 1_555 1_555
H20 C30 1_555 1_555
C31 C32 1_555 1_555
C32 C33 1_555 1_555
C33 H21 1_555 1_555
C34 C33 1_555 1_555
H22 C34 1_555 1_555
C35 H23 1_555 1_555
C36 C32 1_555 1_555
H24 C36 1_555 1_555
C37 C38 1_555 1_555
C38 C39 1_555 1_555
C39 H25 1_555 1_555
C40 C39 1_555 1_555
H26 C40 1_555 1_555
C41 H27 1_555 1_555
C42 C38 1_555 1_555
H28 C42 1_555 1_555
N4 Cu2 1_555 1_555
N5 Cu1 1_555 1_555
N6 Cu1 1_555 1_555
N7 Cu3 1_555 1_555
O9 C19 1_555 1_555
O10 Pr2 1_555 1_555
O11 C25 1_555 1_555
O12 C25 1_555 1_555
O13 C31 1_555 1_555
O14 C31 1_555 1_555
O15 C37 1_555 1_555
Pr8 O14 1_555 1_555
N8 Cu3 1_555 1_555
O17 Pr2 1_555 1_555
O18 Pr2 1_555 1_555
O23 Pr2 1_555 1_555
Cu2 I2 1_555 1_555
Cu3 I3 1_555 1_555
Cu4 I3 1_555 1_555
C19 O8 1_555 1_555
C22 N4 1_555 1_555
C23 C24 1_555 1_555
C23 N4 1_555 1_555
C28 N5 1_555 1_555
C29 C30 1_555 1_555
C29 N5 1_555 1_555
C34 N6 1_555 1_555
C35 C36 1_555 1_555
C35 N6 1_555 1_555
C40 N7 1_555 1_555
C41 C42 1_555 1_555
C41 N7 1_555 1_555
Pr7 O16 1_555 1_555
C13 C14 1_555 1_555
C17 H11 1_555 1_555
C18 C14 1_555 1_555
H12 C18 1_555 1_555
O19 C13 1_555 1_555
H29 O7 1_555 1_555
H30 O7 1_555 1_555
C13 O5 1_555 1_555
C17 C18 1_555 1_555
Pr1 O1 1_555 1_555
C1 C2 1_555 1_555
C2 C3 1_555 1_555
C3 H1 1_555 1_555
C4 C3 1_555 1_555
C5 H3 1_555 1_555
C6 C2 1_555 1_555
H4 C6 1_555 1_555
O1 C1 1_555 1_555
O17 C1 1_555 1_555
O3 Pr1 1_555 1_555
C4 N1 1_555 1_555
C5 C6 1_555 1_555
C5 N1 1_555 1_555
C15 H9 1_555 1_555
C16 C15 1_555 1_555
H10 C16 1_555 1_555
N3 C16 1_555 1_555
Cu7 N3 1_555 1_555
C7 C8 1_555 1_555
C8 C9 1_555 1_555
C9 H5 1_555 1_555
C10 C9 1_555 1_555
H6 C10 1_555 1_555
C11 H7 1_555 1_555
C12 C8 1_555 1_555
H8 C12 1_555 1_555
N2 C10 1_555 1_555
Cu6 N2 1_555 1_555
C11 C12 1_555 1_555
C11 N2 1_555 1_555
C17_2 H11_2 1_555 1_555
C7_2 C8_2 1_555 1_555
C8_2 C9_2 1_555 1_555
C9_2 H5_2 1_555 1_555
C10_2 C9_2 1_555 1_555
H6_2 C10_2 1_555 1_555
C11_2 H7_2 1_555 1_555
C12_2 C8_2 1_555 1_555
H8_2 C12_2 1_555 1_555
C15_2 H9_2 1_555 1_555
C16_2 C15_2 1_555 1_555
H10_2 C16_2 1_555 1_555
N2_2 C10_2 1_555 1_555
N9 C16_2 1_555 1_555
Cu6_2 N2_2 1_555 1_555
C11_2 C12_2 1_555 1_555
C11_2 N2_2 1_555 1_555
Pr3 O1_2 1_555 1_555
Pr7 O9_2 1_555 1_555
Cu7 I4_2 1_555 1_555
I3_2 Cu2_2 1_555 1_555
I4_2 Cu4_2 1_555 1_555
C1_2 C2_2 1_555 1_555
C2_2 C3_2 1_555 1_555
C3_2 H1_2 1_555 1_555
C4_2 C3_2 1_555 1_555
H2_2 C4_2 1_555 1_555
C5_2 H3_2 1_555 1_555
C6_2 C2_2 1_555 1_555
H4_2 C6_2 1_555 1_555
C13_2 C14_2 1_555 1_555
C18_2 C14_2 1_555 1_555
H12_2 C18_2 1_555 1_555
C19_2 C20_2 1_555 1_555
C20_2 C21_2 1_555 1_555
C21_2 H13_2 1_555 1_555
C22_2 C21_2 1_555 1_555
H14_2 C22_2 1_555 1_555
C23_2 H15_2 1_555 1_555
C24_2 C20_2 1_555 1_555
H16_2 C24_2 1_555 1_555
C37_2 C38_2 1_555 1_555
C38_2 C39_2 1_555 1_555
C39_2 H25_2 1_555 1_555
C40_2 C39_2 1_555 1_555
H26_2 C40_2 1_555 1_555
C41_2 H27_2 1_555 1_555
C42_2 C38_2 1_555 1_555
H28_2 C42_2 1_555 1_555
N1_2 Cu7 1_555 1_555
N4_2 Cu2_2 1_555 1_555
N7_2 Cu3_2 1_555 1_555
O1_2 C1_2 1_555 1_555
O2 C1_2 1_555 1_555
O3_2 Pr3 1_555 1_555
O5_2 Pr3 1_555 1_555
O6 C13_2 1_555 1_555
O7_2 Pr3 1_555 1_555
O8_2 Pr3 1_555 1_555
O9_2 C19_2 1_555 1_555
O24 C37_2 1_555 1_555
H29_2 O7_2 1_555 1_555
H30_2 O7_2 1_555 1_555
N8_2 Cu3_2 1_555 1_555
O20_2 Pr3 1_555 1_555
O21_2 Pr7 1_555 1_555
O22_2 Pr3 1_555 1_555
O23_2 Pr7 1_555 1_555
Pr7 O20_2 1_555 1_555
Cu2_2 I2_2 1_555 1_555
Cu3_2 I3_2 1_555 1_555
Cu4_2 I3_2 1_555 1_555
C4_2 N1_2 1_555 1_555
C5_2 C6_2 1_555 1_555
C5_2 N1_2 1_555 1_555
C13_2 O5_2 1_555 1_555
C19_2 O8_2 1_555 1_555
C22_2 N4_2 1_555 1_555
C23_2 C24_2 1_555 1_555
C23_2 N4_2 1_555 1_555
C40_2 N7_2 1_555 1_555
C41_2 C42_2 1_555 1_555
C41_2 N7_2 1_555 1_555
Cu1_2 I1_2 1_555 1_555
C25_2 C26_2 1_555 1_555
C26_2 C27_2 1_555 1_555
C27_2 H17_2 1_555 1_555
C28_2 C27_2 1_555 1_555
H18_2 C28_2 1_555 1_555
C30_2 C26_2 1_555 1_555
H20_2 C30_2 1_555 1_555
C31_2 C32_2 1_555 1_555
C32_2 C33_2 1_555 1_555
C33_2 H21_2 1_555 1_555
C34_2 C33_2 1_555 1_555
H22_2 C34_2 1_555 1_555
C36_2 C32_2 1_555 1_555
H24_2 C36_2 1_555 1_555
N5_2 Cu1_2 1_555 1_555
N6_2 Cu1_2 1_555 1_555
O11_2 C25_2 1_555 1_555
O12_2 C25_2 1_555 1_555
O13_2 C31_2 1_555 1_555
O14_2 C31_2 1_555 1_555
H31_2 O10_2 1_555 1_555
H32_2 O10_2 1_555 1_555
Pr5 O13_2 1_555 1_555
Pr9 O14_2 1_555 1_555
Pr8 O11_2 1_555 1_555
C28_2 N5_2 1_555 1_555
C29_2 C30_2 1_555 1_555
C29_2 N5_2 1_555 1_555
C34_2 N6_2 1_555 1_555
C35_2 C36_2 1_555 1_555
C35_2 N6_2 1_555 1_555
O12_2 Pr8 1_555 1_555
Pr4 O1_3 1_555 1_555
C1_3 C2_3 1_555 1_555
C2_3 C3_3 1_555 1_555
C3_3 H1_3 1_555 1_555
C4_3 C3_3 1_555 1_555
C5_3 H3_3 1_555 1_555
C6_3 C2_3 1_555 1_555
H4_3 C6_3 1_555 1_555
C7_3 C8_3 1_555 1_555
C8_3 C9_3 1_555 1_555
C9_3 H5_3 1_555 1_555
C10_3 C9_3 1_555 1_555
H6_3 C10_3 1_555 1_555
C11_3 H7_3 1_555 1_555
C12_3 C8_3 1_555 1_555
H8_3 C12_3 1_555 1_555
C13_3 C14_3 1_555 1_555
C14_3 C15_3 1_555 1_555
C15_3 H9_3 1_555 1_555
C16_3 C15_3 1_555 1_555
H10_3 C16_3 1_555 1_555
C17_3 H11_3 1_555 1_555
C18_3 C14_3 1_555 1_555
H12_3 C18_3 1_555 1_555
N8 C10_3 1_555 1_555
N3_2 C16_3 1_555 1_555
O1_3 C1_3 1_555 1_555
O2_2 C1_3 1_555 1_555
O3_3 Pr4 1_555 1_555
O4_2 C7_3 1_555 1_555
O5_3 Pr4 1_555 1_555
O6_2 C13_3 1_555 1_555
O7_3 Pr4 1_555 1_555
H29_3 O7_3 1_555 1_555
H30_3 O7_3 1_555 1_555
Pr8 O2_2 1_555 1_555
Cu7_2 N3_2 1_555 1_555
C4_3 N1_3 1_555 1_555
C5_3 C6_3 1_555 1_555
C5_3 N1_3 1_555 1_555
C7_3 O3_3 1_555 1_555
C11_3 C12_3 1_555 1_555
C11_3 N8 1_555 1_555
C13_3 O5_3 1_555 1_555
C17_3 C18_3 1_555 1_555
C17_3 N3_2 1_555 1_555
O4_2 Pr8 1_555 1_555
O6_2 Pr8 1_555 1_555
O22 C31_3 1_555 1_555
O23 C31_3 1_555 1_555
Pr8 O9_3 1_555 1_555
Cu1_3 I1_3 1_555 1_555
Cu2_3 I1_3 1_555 1_555
Cu6 I1_3 1_555 1_555
Cu4_3 I1_3 1_555 1_555
Cu5_2 I4_3 1_555 1_555
I2_3 Cu1_3 1_555 1_555
I3_3 Cu2_3 1_555 1_555
I4_3 Cu4_3 1_555 1_555
C19_3 C20_3 1_555 1_555
C20_3 C21_3 1_555 1_555
C21_3 H13_3 1_555 1_555
C22_3 C21_3 1_555 1_555
H14_3 C22_3 1_555 1_555
C23_3 H15_3 1_555 1_555
C24_3 C20_3 1_555 1_555
H16_3 C24_3 1_555 1_555
C25_3 C26_3 1_555 1_555
C26_3 C27_3 1_555 1_555
C27_3 H17_3 1_555 1_555
C28_3 C27_3 1_555 1_555
H18_3 C28_3 1_555 1_555
C29_3 H19_3 1_555 1_555
C30_3 C26_3 1_555 1_555
H20_3 C30_3 1_555 1_555
C32_3 C33_3 1_555 1_555
C33_3 H21_3 1_555 1_555
C34_3 C33_3 1_555 1_555
H22_3 C34_3 1_555 1_555
C35_3 H23_3 1_555 1_555
C36_3 C32_3 1_555 1_555
C37_3 C38_3 1_555 1_555
C38_3 C39_3 1_555 1_555
C39_3 H25_3 1_555 1_555
C40_3 C39_3 1_555 1_555
H26_3 C40_3 1_555 1_555
C41_3 H27_3 1_555 1_555
C42_3 C38_3 1_555 1_555
H28_3 C42_3 1_555 1_555
N4_3 Cu2_3 1_555 1_555
N5_3 Cu1_3 1_555 1_555
N6_3 Cu1_3 1_555 1_555
N7_3 Cu6 1_555 1_555
O9_3 C19_3 1_555 1_555
O10_3 Pr8 1_555 1_555
O20_2 C25_3 1_555 1_555
O21_2 C25_3 1_555 1_555
O15_2 C37_3 1_555 1_555
O16_2 C37_3 1_555 1_555
H31_3 O10_3 1_555 1_555
H32_3 O10_3 1_555 1_555
O25_2 Pr8 1_555 1_555
Cu2_3 I2_3 1_555 1_555
Cu6 I3_3 1_555 1_555
Cu4_3 I3_3 1_555 1_555
C19_3 O8_3 1_555 1_555
C22_3 N4_3 1_555 1_555
C23_3 C24_3 1_555 1_555
C23_3 N4_3 1_555 1_555
C28_3 N5_3 1_555 1_555
C29_3 C30_3 1_555 1_555
C29_3 N5_3 1_555 1_555
C34_3 N6_3 1_555 1_555
C35_3 C36_3 1_555 1_555
C35_3 N6_3 1_555 1_555
C40_3 N7_3 1_555 1_555
C41_3 C42_3 1_555 1_555
C41_3 N7_3 1_555 1_555
Cu1_4 I1_4 1_555 1_555
C25_4 C26_4 1_555 1_555
C26_4 C27_4 1_555 1_555
C27_4 H17_4 1_555 1_555
C28_4 C27_4 1_555 1_555
H18_4 C28_4 1_555 1_555
C30_4 C26_4 1_555 1_555
H20_4 C30_4 1_555 1_555
C32_4 C33_4 1_555 1_555
C33_4 H21_4 1_555 1_555
C34_4 C33_4 1_555 1_555
H22_4 C34_4 1_555 1_555
C36_4 C32_4 1_555 1_555
N5_4 Cu1_4 1_555 1_555
N6_4 Cu1_4 1_555 1_555
O20 C25_4 1_555 1_555
O21 C25_4 1_555 1_555
C28_4 N5_4 1_555 1_555
C29_4 C30_4 1_555 1_555
C29_4 N5_4 1_555 1_555
C34_4 N6_4 1_555 1_555
C35_4 C36_4 1_555 1_555
C35_4 N6_4 1_555 1_555
O22_2 C31_4 1_555 1_555
O23_2 C31_4 1_555 1_555
Pr5 O1_4 1_555 1_555
Pr9 O9_4 1_555 1_555
Cu7_2 I4_4 1_555 1_555
I3_4 Cu2_4 1_555 1_555
I4_4 Cu4_4 1_555 1_555
C1_4 C2_4 1_555 1_555
C2_4 C3_4 1_555 1_555
C3_4 H1_4 1_555 1_555
C4_4 C3_4 1_555 1_555
H2_4 C4_4 1_555 1_555
C5_4 H3_4 1_555 1_555
C6_4 C2_4 1_555 1_555
H4_4 C6_4 1_555 1_555
C7_4 C8_4 1_555 1_555
C8_4 C9_4 1_555 1_555
C9_4 H5_4 1_555 1_555
C10_4 C9_4 1_555 1_555
H6_4 C10_4 1_555 1_555
C11_4 H7_4 1_555 1_555
C12_4 C8_4 1_555 1_555
H8_4 C12_4 1_555 1_555
C19_4 C20_4 1_555 1_555
C20_4 C21_4 1_555 1_555
C21_4 H13_4 1_555 1_555
C22_4 C21_4 1_555 1_555
H14_4 C22_4 1_555 1_555
C23_4 H15_4 1_555 1_555
C24_4 C20_4 1_555 1_555
H16_4 C24_4 1_555 1_555
C37_4 C38_4 1_555 1_555
C38_4 C39_4 1_555 1_555
C39_4 H25_4 1_555 1_555
C40_4 C39_4 1_555 1_555
H26_4 C40_4 1_555 1_555
C41_4 H27_4 1_555 1_555
C42_4 C38_4 1_555 1_555
H28_4 C42_4 1_555 1_555
N1_4 Cu7_2 1_555 1_555
N8_2 C10_4 1_555 1_555
N4_4 Cu2_4 1_555 1_555
N7_4 Cu6_2 1_555 1_555
O1_4 C1_4 1_555 1_555
O17_2 C1_4 1_555 1_555
O3_4 Pr5 1_555 1_555
O18_2 C7_4 1_555 1_555
O8_4 Pr5 1_555 1_555
O9_4 C19_4 1_555 1_555
O24_2 C37_4 1_555 1_555
O25_2 C37_4 1_555 1_555
Cu2_4 I2_4 1_555 1_555
Cu6_2 I3_4 1_555 1_555
Cu4_4 I3_4 1_555 1_555
C4_4 N1_4 1_555 1_555
C5_4 C6_4 1_555 1_555
C5_4 N1_4 1_555 1_555
C7_4 O3_4 1_555 1_555
C11_4 C12_4 1_555 1_555
C11_4 N8_2 1_555 1_555
C19_4 O8_4 1_555 1_555
C22_4 N4_4 1_555 1_555
C23_4 C24_4 1_555 1_555
C23_4 N4_4 1_555 1_555
C40_4 N7_4 1_555 1_555
C41_4 C42_4 1_555 1_555
C41_4 N7_4 1_555 1_555
C13_4 C14_4 1_555 1_555
C14_4 C15_4 1_555 1_555
C15_4 H9_4 1_555 1_555
C16_4 C15_4 1_555 1_555
H10_4 C16_4 1_555 1_555
C18_4 C14_4 1_555 1_555
H12_4 C18_4 1_555 1_555
N9_2 C16_4 1_555 1_555
O19_2 C13_4 1_555 1_555
H29_4 O7_4 1_555 1_555
H30_4 O7_4 1_555 1_555
C13_4 O5_4 1_555 1_555
C17_4 H11_4 1_555 1_555

#END
