
###############################################################################
#
# This file contains modified crystal structure data generated from the
# MOF subset of the Cambridge Structural Database (CSD) v543 
# hosted by the Cambridge Crystallographic Data Centre (CCDC).
#
# This work is licensed under the Creative Commons
# Attribution-NonCommercial-ShareAlike 4.0 International License.
# To view a copy of this license, visit
# http://creativecommons.org/licenses/by-nc-sa/4.0/
# or send a letter to
# Creative Commons, PO Box 1866, Mountain View, CA 94042, USA.
#
# CIF created using the CSD Python API on 29 September 2022
# The structure has been converted into the P1 space group
# The structure has a 3D framework
# The original CSD entry ADUWON is in the cubic crystal system
# The framework has been calculated to contain at least 10.0% void space
# The void calculation uses a probe of radius 1.32A, grid spacing 0.4
# The framework is charged, counterions have been retained in the structure
# H atom positions have been added when not included in the experimental data
# Generated hydrogen atom positions removed from atoms on special positions
#
###############################################################################

data_ADUWON
_chemical_formula_moiety         '(C432 H576 Ni30 O204 33-)n'
_symmetry_cell_setting           triclinic
_symmetry_space_group_name_H-M   'P 1'
_symmetry_Int_Tables_number      1
_space_group_name_Hall           'P 1'
loop_
_symmetry_equiv_pos_site_id
_symmetry_equiv_pos_as_xyz
1 x,y,z
_cell_length_a                   30.0140(4)
_cell_length_b                   30.0140(4)
_cell_length_c                   30.0140(4)
_cell_angle_alpha                90
_cell_angle_beta                 90
_cell_angle_gamma                90
_cell_volume                     27037.8
loop_
_atom_site_label
_atom_site_type_symbol
_atom_site_fract_x
_atom_site_fract_y
_atom_site_fract_z
Ni1 Ni 0.0000 -0.0000 0.37657(6)
C1 C 0.06793(18) 0.06793(18) 0.3518(3)
C2 C 0.10191(14) 0.10191(14) 0.3686(2)
C3 C 0.1099(2) 0.1099(2) 0.4108(2)
H1 H 0.0938 0.0938 0.4319
C4 C 0.1374(2) 0.1374(2) 0.4242(2)
H2 H 0.1410 0.1410 0.4548
C5 C 0.1641(2) 0.1641(2) 0.3950(2)
H3 H 0.1847 0.1847 0.4055
C6 C 0.15711(14) 0.15711(14) 0.3501(2)
C7 C 0.12524(13) 0.12524(13) 0.3352(2)
H4 H 0.1201 0.1201 0.3051
C8 C 0.21207(13) 0.21207(13) 0.33140(18)
H5 H 0.2353 0.1982 0.3491
C9 C 0.23111(12) 0.23111(12) 0.28973(14)
O1 O 0.06390(12) 0.06390(12) 0.31089(18)
O2 O 0.04748(11) 0.04748(11) 0.38002(17)
O3 O 0.17918(9) 0.17918(9) 0.31775(12)
O4 O 0.0000 0.0000 0.3079(3)
O5 O -0.0000 -0.0000 0.4450(2)
C10 C 0.43207(18) 0.1482(3) 0.43207(18)
C11 C 0.39809(14) 0.1314(2) 0.39809(14)
C12 C 0.3901(2) 0.0892(2) 0.3901(2)
H6 H 0.4062 0.0681 0.4062
C13 C 0.3626(2) 0.0758(2) 0.3626(2)
H7 H 0.3590 0.0452 0.3590
C14 C 0.3359(2) 0.1050(2) 0.3359(2)
H8 H 0.3153 0.0945 0.3153
C15 C 0.34289(14) 0.1499(2) 0.34289(14)
C16 C 0.37476(13) 0.1648(2) 0.37476(13)
H9 H 0.3799 0.1949 0.3799
C17 C 0.28793(13) 0.16860(18) 0.28793(13)
H10 H 0.2647 0.1509 0.3018
C18 C 0.26889(12) 0.21027(14) 0.26889(12)
O6 O 0.43610(12) 0.18911(18) 0.43610(12)
O7 O 0.45252(11) 0.11998(17) 0.45252(11)
O8 O 0.32082(9) 0.18225(12) 0.32082(9)
C19 C 0.1482(3) 0.43207(18) 0.43207(18)
C20 C 0.1314(2) 0.39809(14) 0.39809(14)
C21 C 0.0892(2) 0.3901(2) 0.3901(2)
H11 H 0.0681 0.4062 0.4062
C22 C 0.0758(2) 0.3626(2) 0.3626(2)
H12 H 0.0452 0.3590 0.3590
C23 C 0.1050(2) 0.3359(2) 0.3359(2)
H13 H 0.0945 0.3153 0.3153
C24 C 0.1499(2) 0.34289(14) 0.34289(14)
C25 C 0.1648(2) 0.37476(13) 0.37476(13)
H14 H 0.1949 0.3799 0.3799
C26 C 0.16860(18) 0.28793(13) 0.28793(13)
H15 H 0.1509 0.3018 0.2647
C27 C 0.21027(14) 0.26889(12) 0.26889(12)
O9 O 0.18911(18) 0.43610(12) 0.43610(12)
O10 O 0.11998(17) 0.45252(11) 0.45252(11)
O11 O 0.18225(12) 0.32082(9) 0.32082(9)
H16 H 0.1982 0.2353 0.3491
C28 C 0.06793(18) 0.3518(3) 0.06793(18)
C29 C 0.10191(14) 0.3686(2) 0.10191(14)
C30 C 0.1099(2) 0.4108(2) 0.1099(2)
H17 H 0.0938 0.4319 0.0938
C31 C 0.1374(2) 0.4242(2) 0.1374(2)
H18 H 0.1410 0.4548 0.1410
C32 C 0.1641(2) 0.3950(2) 0.1641(2)
H19 H 0.1847 0.4055 0.1847
C33 C 0.15711(14) 0.3501(2) 0.15711(14)
C34 C 0.12524(13) 0.3352(2) 0.12524(13)
H20 H 0.1201 0.3051 0.1201
C35 C 0.21207(13) 0.33140(18) 0.21207(13)
H21 H 0.2353 0.3491 0.1982
C36 C 0.23111(12) 0.28973(14) 0.23111(12)
O12 O 0.06390(12) 0.31089(18) 0.06390(12)
O13 O 0.04748(11) 0.38002(17) 0.04748(11)
O14 O 0.17918(9) 0.31775(12) 0.17918(9)
C37 C 0.3518(3) 0.06793(18) 0.06793(18)
C38 C 0.3686(2) 0.10191(14) 0.10191(14)
C39 C 0.4108(2) 0.1099(2) 0.1099(2)
H22 H 0.4319 0.0938 0.0938
C40 C 0.4242(2) 0.1374(2) 0.1374(2)
H23 H 0.4548 0.1410 0.1410
C41 C 0.3950(2) 0.1641(2) 0.1641(2)
H24 H 0.4055 0.1847 0.1847
C42 C 0.3501(2) 0.15711(14) 0.15711(14)
C43 C 0.3352(2) 0.12524(13) 0.12524(13)
H25 H 0.3051 0.1201 0.1201
C44 C 0.33140(18) 0.21207(13) 0.21207(13)
H26 H 0.3491 0.1982 0.2353
C45 C 0.28973(14) 0.23111(12) 0.23111(12)
O15 O 0.31089(18) 0.06390(12) 0.06390(12)
O16 O 0.38002(17) 0.04748(11) 0.04748(11)
O17 O 0.31775(12) 0.17918(9) 0.17918(9)
H27 H 0.1509 0.2647 0.3018
H28 H 0.3018 0.1509 0.2647
H29 H 0.3491 0.2353 0.1982
H30 H 0.1982 0.3491 0.2353
C46 C 0.43207(18) 0.43207(18) 0.1482(3)
C47 C 0.39809(14) 0.39809(14) 0.1314(2)
C48 C 0.3901(2) 0.3901(2) 0.0892(2)
H31 H 0.4062 0.4062 0.0681
C49 C 0.3626(2) 0.3626(2) 0.0758(2)
H32 H 0.3590 0.3590 0.0452
C50 C 0.3359(2) 0.3359(2) 0.1050(2)
H33 H 0.3153 0.3153 0.0945
C51 C 0.34289(14) 0.34289(14) 0.1499(2)
C52 C 0.37476(13) 0.37476(13) 0.1648(2)
H34 H 0.3799 0.3799 0.1949
C53 C 0.28793(13) 0.28793(13) 0.16860(18)
H35 H 0.3018 0.2647 0.1509
C54 C 0.26889(12) 0.26889(12) 0.21027(14)
O18 O 0.43610(12) 0.43610(12) 0.18911(18)
O19 O 0.45252(11) 0.45252(11) 0.11998(17)
O20 O 0.32082(9) 0.32082(9) 0.18225(12)
H36 H 0.2647 0.3018 0.1509
Ni2 Ni 0.37657(6) 0.0000 0.0000
O39 O 0.3079(3) 0.0000 0.0000
O40 O 0.4450(2) 0.0000 0.0000
Ni3 Ni -0.0000 0.37657(6) 0.0000
O41 O 0.0000 0.3079(3) 0.0000
O42 O -0.0000 0.4450(2) 0.0000
Ni7 Ni 0.5000 0.5000 0.12343(6)
Ni10 Ni 0.12343(6) 0.5000 0.5000
Ni11 Ni 0.5000 0.12343(6) 0.5000
Ni2_2 Ni 0.37657(6) 0.0000 1.0000
O39_2 O 0.3079(3) 0.0000 1.0000
O40_2 O 0.4450(2) 0.0000 1.0000
Ni3_2 Ni 0.0000 0.37657(6) 1.0000
O41_2 O 0.0000 0.3079(3) 1.0000
O42_2 O -0.0000 0.4450(2) 1.0000
O47 O 0.04748(11) 0.38002(17) 0.95252(11)
O48 O 0.38002(17) 0.04748(11) 0.95252(11)
Ni1_2 Ni 0.0000 1.0000 0.37657(6)
O4_2 O -0.0000 1.0000 0.3079(3)
O5_2 O -0.0000 1.0000 0.4450(2)
Ni2_3 Ni 0.37657(6) 1.0000 0.0000
O39_3 O 0.3079(3) 1.0000 0.0000
O40_3 O 0.4450(2) 1.0000 0.0000
Ni5 Ni 0.0000 0.62343(6) 0.0000
O45 O 0.04748(11) 0.95252(11) 0.38002(17)
O50 O 0.38002(17) 0.95252(11) 0.04748(11)
Ni2_4 Ni 0.37657(6) 1.0000 1.0000
O39_4 O 0.3079(3) 1.0000 1.0000
O40_4 O 0.4450(2) 1.0000 1.0000
Ni5_2 Ni 0.0000 0.62343(6) 1.0000
O44 O 0.38002(17) 0.95252(11) 0.95252(11)
Ni1_3 Ni 1.0000 -0.0000 0.37657(6)
O4_3 O 1.0000 0.0000 0.3079(3)
O5_3 O 1.0000 -0.0000 0.4450(2)
Ni3_3 Ni 1.0000 0.37657(6) 0.0000
O41_3 O 1.0000 0.3079(3) 0.0000
O42_3 O 1.0000 0.4450(2) 0.0000
Ni4 Ni 0.62343(6) 0.0000 0.0000
O46 O 0.95252(11) 0.04748(11) 0.38002(17)
O49 O 0.95252(11) 0.38002(17) 0.04748(11)
Ni3_4 Ni 1.0000 0.37657(6) 1.0000
O41_4 O 1.0000 0.3079(3) 1.0000
O42_4 O 1.0000 0.4450(2) 1.0000
Ni4_2 Ni 0.62343(6) 0.0000 1.0000
O43 O 0.95252(11) 0.38002(17) 0.95252(11)
Ni1_4 Ni 1.0000 1.0000 0.37657(6)
O4_4 O 1.0000 1.0000 0.3079(3)
O5_4 O 1.0000 1.0000 0.4450(2)
C55 C 0.93207(18) 0.93207(18) 0.3518(3)
C56 C 0.89809(14) 0.89809(14) 0.3686(2)
C57 C 0.8901(2) 0.8901(2) 0.4108(2)
H37 H 0.9062 0.9062 0.4319
C58 C 0.8626(2) 0.8626(2) 0.4242(2)
H38 H 0.8590 0.8590 0.4548
C59 C 0.8359(2) 0.8359(2) 0.3950(2)
H39 H 0.8153 0.8153 0.4055
C60 C 0.84289(14) 0.84289(14) 0.3501(2)
C61 C 0.87476(13) 0.87476(13) 0.3352(2)
H40 H 0.8799 0.8799 0.3051
C62 C 0.78793(13) 0.78793(13) 0.33140(18)
H41 H 0.7647 0.8018 0.3491
C63 C 0.76889(12) 0.76889(12) 0.28973(14)
O21 O 0.93610(12) 0.93610(12) 0.31089(18)
O22 O 0.95252(11) 0.95252(11) 0.38002(17)
O23 O 0.82082(9) 0.82082(9) 0.31775(12)
C64 C 0.56793(18) 0.8518(3) 0.43207(18)
C65 C 0.60191(14) 0.8686(2) 0.39809(14)
C66 C 0.6099(2) 0.9108(2) 0.3901(2)
H42 H 0.5938 0.9319 0.4062
C67 C 0.6374(2) 0.9242(2) 0.3626(2)
H43 H 0.6410 0.9548 0.3590
C68 C 0.6641(2) 0.8950(2) 0.3359(2)
H44 H 0.6847 0.9055 0.3153
C69 C 0.65711(14) 0.8501(2) 0.34289(14)
C70 C 0.62524(13) 0.8352(2) 0.37476(13)
H45 H 0.6201 0.8051 0.3799
C71 C 0.71207(13) 0.83140(18) 0.28793(13)
H46 H 0.7353 0.8491 0.3018
C72 C 0.73111(12) 0.78973(14) 0.26889(12)
O24 O 0.56390(12) 0.81089(18) 0.43610(12)
O25 O 0.54748(11) 0.88002(17) 0.45252(11)
O26 O 0.67918(9) 0.81775(12) 0.32082(9)
C73 C 0.8518(3) 0.56793(18) 0.43207(18)
C74 C 0.8686(2) 0.60191(14) 0.39809(14)
C75 C 0.9108(2) 0.6099(2) 0.3901(2)
H47 H 0.9319 0.5938 0.4062
C76 C 0.9242(2) 0.6374(2) 0.3626(2)
H48 H 0.9548 0.6410 0.3590
C77 C 0.8950(2) 0.6641(2) 0.3359(2)
H49 H 0.9055 0.6847 0.3153
C78 C 0.8501(2) 0.65711(14) 0.34289(14)
C79 C 0.8352(2) 0.62524(13) 0.37476(13)
H50 H 0.8051 0.6201 0.3799
C80 C 0.83140(18) 0.71207(13) 0.28793(13)
H51 H 0.8491 0.6982 0.2647
C81 C 0.78973(14) 0.73111(12) 0.26889(12)
O27 O 0.81089(18) 0.56390(12) 0.43610(12)
O28 O 0.88002(17) 0.54748(11) 0.45252(11)
O29 O 0.81775(12) 0.67918(9) 0.32082(9)
H52 H 0.8018 0.7647 0.3491
C82 C 0.93207(18) 0.6482(3) 0.06793(18)
C83 C 0.89809(14) 0.6314(2) 0.10191(14)
C84 C 0.8901(2) 0.5892(2) 0.1099(2)
H53 H 0.9062 0.5681 0.0938
C85 C 0.8626(2) 0.5758(2) 0.1374(2)
H54 H 0.8590 0.5452 0.1410
C86 C 0.8359(2) 0.6050(2) 0.1641(2)
H55 H 0.8153 0.5945 0.1847
C87 C 0.84289(14) 0.6499(2) 0.15711(14)
C88 C 0.87476(13) 0.6648(2) 0.12524(13)
H56 H 0.8799 0.6949 0.1201
C89 C 0.78793(13) 0.66860(18) 0.21207(13)
H57 H 0.7647 0.6509 0.1982
C90 C 0.76889(12) 0.71027(14) 0.23111(12)
O30 O 0.93610(12) 0.68911(18) 0.06390(12)
O31 O 0.95252(11) 0.61998(17) 0.04748(11)
O32 O 0.82082(9) 0.68225(12) 0.17918(9)
C91 C 0.6482(3) 0.93207(18) 0.06793(18)
C92 C 0.6314(2) 0.89809(14) 0.10191(14)
C93 C 0.5892(2) 0.8901(2) 0.1099(2)
H58 H 0.5681 0.9062 0.0938
C94 C 0.5758(2) 0.8626(2) 0.1374(2)
H59 H 0.5452 0.8590 0.1410
C95 C 0.6050(2) 0.8359(2) 0.1641(2)
H60 H 0.5945 0.8153 0.1847
C96 C 0.6499(2) 0.84289(14) 0.15711(14)
C97 C 0.6648(2) 0.87476(13) 0.12524(13)
H61 H 0.6949 0.8799 0.1201
C98 C 0.66860(18) 0.78793(13) 0.21207(13)
H62 H 0.6509 0.8018 0.2353
C99 C 0.71027(14) 0.76889(12) 0.23111(12)
O33 O 0.68911(18) 0.93610(12) 0.06390(12)
O34 O 0.61998(17) 0.95252(11) 0.04748(11)
O35 O 0.68225(12) 0.82082(9) 0.17918(9)
H63 H 0.8491 0.7353 0.3018
H64 H 0.6982 0.8491 0.2647
H65 H 0.6509 0.7647 0.1982
H66 H 0.8018 0.6509 0.2353
C100 C 0.56793(18) 0.56793(18) 0.1482(3)
C101 C 0.60191(14) 0.60191(14) 0.1314(2)
C102 C 0.6099(2) 0.6099(2) 0.0892(2)
H67 H 0.5938 0.5938 0.0681
C103 C 0.6374(2) 0.6374(2) 0.0758(2)
H68 H 0.6410 0.6410 0.0452
C104 C 0.6641(2) 0.6641(2) 0.1050(2)
H69 H 0.6847 0.6847 0.0945
C105 C 0.65711(14) 0.65711(14) 0.1499(2)
C106 C 0.62524(13) 0.62524(13) 0.1648(2)
H70 H 0.6201 0.6201 0.1949
C107 C 0.71207(13) 0.71207(13) 0.16860(18)
H71 H 0.6982 0.7353 0.1509
C108 C 0.73111(12) 0.73111(12) 0.21027(14)
O36 O 0.56390(12) 0.56390(12) 0.18911(18)
O37 O 0.54748(11) 0.54748(11) 0.11998(17)
O38 O 0.67918(9) 0.67918(9) 0.18225(12)
H72 H 0.7353 0.6982 0.1509
Ni4_3 Ni 0.62343(6) 1.0000 0.0000
Ni5_3 Ni 1.0000 0.62343(6) 0.0000
Ni8 Ni 0.87657(6) 0.5000 0.5000
Ni9 Ni 0.5000 0.87657(6) 0.5000
Ni4_4 Ni 0.62343(6) 1.0000 1.0000
Ni5_4 Ni 1.0000 0.62343(6) 1.0000
O41_5 O -0.0000 0.6921(3) 0.0000
O42_5 O 0.0000 0.5550(2) 0.0000
O49_2 O 0.04748(11) 0.61998(17) 0.04748(11)
O41_6 O 0.0000 0.6921(3) 1.0000
O42_6 O 0.0000 0.5550(2) 1.0000
O43_2 O 0.04748(11) 0.61998(17) 0.95252(11)
O39_5 O 0.6921(3) 0.0000 0.0000
O40_5 O 0.5550(2) 0.0000 0.0000
O50_2 O 0.61998(17) 0.04748(11) 0.04748(11)
O39_6 O 0.6921(3) 0.0000 1.0000
O40_6 O 0.5550(2) 0.0000 1.0000
O44_2 O 0.61998(17) 0.04748(11) 0.95252(11)
O39_7 O 0.6921(3) 1.0000 0.0000
O40_7 O 0.5550(2) 1.0000 0.0000
O41_7 O 1.0000 0.6921(3) 0.0000
O42_7 O 1.0000 0.5550(2) 0.0000
O39_8 O 0.6921(3) 1.0000 1.0000
O40_8 O 0.5550(2) 1.0000 1.0000
O41_8 O 1.0000 0.6921(3) 1.0000
O42_8 O 1.0000 0.5550(2) 1.0000
O47_2 O 0.95252(11) 0.61998(17) 0.95252(11)
O48_2 O 0.61998(17) 0.95252(11) 0.95252(11)
Ni1_5 Ni 0.0000 0.0000 0.62343(6)
O4_5 O 0.0000 -0.0000 0.6921(3)
O5_5 O 0.0000 0.0000 0.5550(2)
O45_2 O 0.04748(11) 0.04748(11) 0.61998(17)
Ni1_6 Ni -0.0000 1.0000 0.62343(6)
C1_2 C 0.06793(18) 0.93207(18) 0.6482(3)
C2_2 C 0.10191(14) 0.89809(14) 0.6314(2)
C3_2 C 0.1099(2) 0.8901(2) 0.5892(2)
H1_2 H 0.0938 0.9062 0.5681
C4_2 C 0.1374(2) 0.8626(2) 0.5758(2)
H2_2 H 0.1410 0.8590 0.5452
C5_2 C 0.1641(2) 0.8359(2) 0.6050(2)
H3_2 H 0.1847 0.8153 0.5945
C6_2 C 0.15711(14) 0.84289(14) 0.6499(2)
C7_2 C 0.12524(13) 0.87476(13) 0.6648(2)
H4_2 H 0.1201 0.8799 0.6949
C8_2 C 0.21207(13) 0.78793(13) 0.66860(18)
H5_2 H 0.2353 0.8018 0.6509
C9_2 C 0.23111(12) 0.76889(12) 0.71027(14)
O1_2 O 0.06390(12) 0.93610(12) 0.68911(18)
O2_2 O 0.04748(11) 0.95252(11) 0.61998(17)
O3_2 O 0.17918(9) 0.82082(9) 0.68225(12)
O4_6 O -0.0000 1.0000 0.6921(3)
O5_6 O 0.0000 1.0000 0.5550(2)
C10_2 C 0.43207(18) 0.8518(3) 0.56793(18)
C11_2 C 0.39809(14) 0.8686(2) 0.60191(14)
C12_2 C 0.3901(2) 0.9108(2) 0.6099(2)
H6_2 H 0.4062 0.9319 0.5938
C13_2 C 0.3626(2) 0.9242(2) 0.6374(2)
H7_2 H 0.3590 0.9548 0.6410
C14_2 C 0.3359(2) 0.8950(2) 0.6641(2)
H8_2 H 0.3153 0.9055 0.6847
C15_2 C 0.34289(14) 0.8501(2) 0.65711(14)
C16_2 C 0.37476(13) 0.8352(2) 0.62524(13)
H9_2 H 0.3799 0.8051 0.6201
C17_2 C 0.28793(13) 0.83140(18) 0.71207(13)
H10_2 H 0.2647 0.8491 0.6982
C18_2 C 0.26889(12) 0.78973(14) 0.73111(12)
O6_2 O 0.43610(12) 0.81089(18) 0.56390(12)
O7_2 O 0.45252(11) 0.88002(17) 0.54748(11)
O8_2 O 0.32082(9) 0.81775(12) 0.67918(9)
C19_2 C 0.1482(3) 0.56793(18) 0.56793(18)
C20_2 C 0.1314(2) 0.60191(14) 0.60191(14)
C21_2 C 0.0892(2) 0.6099(2) 0.6099(2)
H11_2 H 0.0681 0.5938 0.5938
C22_2 C 0.0758(2) 0.6374(2) 0.6374(2)
H12_2 H 0.0452 0.6410 0.6410
C23_2 C 0.1050(2) 0.6641(2) 0.6641(2)
H13_2 H 0.0945 0.6847 0.6847
C24_2 C 0.1499(2) 0.65711(14) 0.65711(14)
C25_2 C 0.1648(2) 0.62524(13) 0.62524(13)
H14_2 H 0.1949 0.6201 0.6201
C26_2 C 0.16860(18) 0.71207(13) 0.71207(13)
H15_2 H 0.1509 0.6982 0.7353
C27_2 C 0.21027(14) 0.73111(12) 0.73111(12)
O9_2 O 0.18911(18) 0.56390(12) 0.56390(12)
O10_2 O 0.11998(17) 0.54748(11) 0.54748(11)
O11_2 O 0.18225(12) 0.67918(9) 0.67918(9)
H16_2 H 0.1982 0.7647 0.6509
C28_2 C 0.06793(18) 0.6482(3) 0.93207(18)
C29_2 C 0.10191(14) 0.6314(2) 0.89809(14)
C30_2 C 0.1099(2) 0.5892(2) 0.8901(2)
H17_2 H 0.0938 0.5681 0.9062
C31_2 C 0.1374(2) 0.5758(2) 0.8626(2)
H18_2 H 0.1410 0.5452 0.8590
C32_2 C 0.1641(2) 0.6050(2) 0.8359(2)
H19_2 H 0.1847 0.5945 0.8153
C33_2 C 0.15711(14) 0.6499(2) 0.84289(14)
C34_2 C 0.12524(13) 0.6648(2) 0.87476(13)
H20_2 H 0.1201 0.6949 0.8799
C35_2 C 0.21207(13) 0.66860(18) 0.78793(13)
H21_2 H 0.2353 0.6509 0.8018
C36_2 C 0.23111(12) 0.71027(14) 0.76889(12)
O12_2 O 0.06390(12) 0.68911(18) 0.93610(12)
O14_2 O 0.17918(9) 0.68225(12) 0.82082(9)
C37_2 C 0.3518(3) 0.93207(18) 0.93207(18)
C38_2 C 0.3686(2) 0.89809(14) 0.89809(14)
C39_2 C 0.4108(2) 0.8901(2) 0.8901(2)
H22_2 H 0.4319 0.9062 0.9062
C40_2 C 0.4242(2) 0.8626(2) 0.8626(2)
H23_2 H 0.4548 0.8590 0.8590
C41_2 C 0.3950(2) 0.8359(2) 0.8359(2)
H24_2 H 0.4055 0.8153 0.8153
C42_2 C 0.3501(2) 0.84289(14) 0.84289(14)
C43_2 C 0.3352(2) 0.87476(13) 0.87476(13)
H25_2 H 0.3051 0.8799 0.8799
C44_2 C 0.33140(18) 0.78793(13) 0.78793(13)
H26_2 H 0.3491 0.8018 0.7647
C45_2 C 0.28973(14) 0.76889(12) 0.76889(12)
O15_2 O 0.31089(18) 0.93610(12) 0.93610(12)
O17_2 O 0.31775(12) 0.82082(9) 0.82082(9)
H27_2 H 0.1509 0.7353 0.6982
H28_2 H 0.3018 0.8491 0.7353
H29_2 H 0.3491 0.7647 0.8018
H30_2 H 0.1982 0.6509 0.7647
C46_2 C 0.43207(18) 0.56793(18) 0.8518(3)
C47_2 C 0.39809(14) 0.60191(14) 0.8686(2)
C48_2 C 0.3901(2) 0.6099(2) 0.9108(2)
H31_2 H 0.4062 0.5938 0.9319
C49_2 C 0.3626(2) 0.6374(2) 0.9242(2)
H32_2 H 0.3590 0.6410 0.9548
C50_2 C 0.3359(2) 0.6641(2) 0.8950(2)
H33_2 H 0.3153 0.6847 0.9055
C51_2 C 0.34289(14) 0.65711(14) 0.8501(2)
C52_2 C 0.37476(13) 0.62524(13) 0.8352(2)
H34_2 H 0.3799 0.6201 0.8051
C53_2 C 0.28793(13) 0.71207(13) 0.83140(18)
H35_2 H 0.3018 0.7353 0.8491
C54_2 C 0.26889(12) 0.73111(12) 0.78973(14)
O18_2 O 0.43610(12) 0.56390(12) 0.81089(18)
O19_2 O 0.45252(11) 0.54748(11) 0.88002(17)
O20_2 O 0.32082(9) 0.67918(9) 0.81775(12)
H36_2 H 0.2647 0.6982 0.8491
Ni7_2 Ni 0.5000 0.5000 0.87657(6)
Ni1_7 Ni 1.0000 0.0000 0.62343(6)
O4_7 O 1.0000 -0.0000 0.6921(3)
O5_7 O 1.0000 0.0000 0.5550(2)
C55_2 C 0.93207(18) 0.06793(18) 0.6482(3)
C56_2 C 0.89809(14) 0.10191(14) 0.6314(2)
C57_2 C 0.8901(2) 0.1099(2) 0.5892(2)
H37_2 H 0.9062 0.0938 0.5681
C58_2 C 0.8626(2) 0.1374(2) 0.5758(2)
H38_2 H 0.8590 0.1410 0.5452
C59_2 C 0.8359(2) 0.1641(2) 0.6050(2)
H39_2 H 0.8153 0.1847 0.5945
C60_2 C 0.84289(14) 0.15711(14) 0.6499(2)
C61_2 C 0.87476(13) 0.12524(13) 0.6648(2)
H40_2 H 0.8799 0.1201 0.6949
C62_2 C 0.78793(13) 0.21207(13) 0.66860(18)
H41_2 H 0.7647 0.1982 0.6509
C63_2 C 0.76889(12) 0.23111(12) 0.71027(14)
O21_2 O 0.93610(12) 0.06390(12) 0.68911(18)
O22_2 O 0.95252(11) 0.04748(11) 0.61998(17)
O23_2 O 0.82082(9) 0.17918(9) 0.68225(12)
C64_2 C 0.56793(18) 0.1482(3) 0.56793(18)
C65_2 C 0.60191(14) 0.1314(2) 0.60191(14)
C66_2 C 0.6099(2) 0.0892(2) 0.6099(2)
H42_2 H 0.5938 0.0681 0.5938
C67_2 C 0.6374(2) 0.0758(2) 0.6374(2)
H43_2 H 0.6410 0.0452 0.6410
C68_2 C 0.6641(2) 0.1050(2) 0.6641(2)
H44_2 H 0.6847 0.0945 0.6847
C69_2 C 0.65711(14) 0.1499(2) 0.65711(14)
C70_2 C 0.62524(13) 0.1648(2) 0.62524(13)
H45_2 H 0.6201 0.1949 0.6201
C71_2 C 0.71207(13) 0.16860(18) 0.71207(13)
H46_2 H 0.7353 0.1509 0.6982
C72_2 C 0.73111(12) 0.21027(14) 0.73111(12)
O24_2 O 0.56390(12) 0.18911(18) 0.56390(12)
O25_2 O 0.54748(11) 0.11998(17) 0.54748(11)
O26_2 O 0.67918(9) 0.18225(12) 0.67918(9)
C73_2 C 0.8518(3) 0.43207(18) 0.56793(18)
C74_2 C 0.8686(2) 0.39809(14) 0.60191(14)
C75_2 C 0.9108(2) 0.3901(2) 0.6099(2)
H47_2 H 0.9319 0.4062 0.5938
C76_2 C 0.9242(2) 0.3626(2) 0.6374(2)
H48_2 H 0.9548 0.3590 0.6410
C77_2 C 0.8950(2) 0.3359(2) 0.6641(2)
H49_2 H 0.9055 0.3153 0.6847
C78_2 C 0.8501(2) 0.34289(14) 0.65711(14)
C79_2 C 0.8352(2) 0.37476(13) 0.62524(13)
H50_2 H 0.8051 0.3799 0.6201
C80_2 C 0.83140(18) 0.28793(13) 0.71207(13)
H51_2 H 0.8491 0.3018 0.7353
C81_2 C 0.78973(14) 0.26889(12) 0.73111(12)
O27_2 O 0.81089(18) 0.43610(12) 0.56390(12)
O28_2 O 0.88002(17) 0.45252(11) 0.54748(11)
O29_2 O 0.81775(12) 0.32082(9) 0.67918(9)
H52_2 H 0.8018 0.2353 0.6509
C82_2 C 0.93207(18) 0.3518(3) 0.93207(18)
C83_2 C 0.89809(14) 0.3686(2) 0.89809(14)
C84_2 C 0.8901(2) 0.4108(2) 0.8901(2)
H53_2 H 0.9062 0.4319 0.9062
C85_2 C 0.8626(2) 0.4242(2) 0.8626(2)
H54_2 H 0.8590 0.4548 0.8590
C86_2 C 0.8359(2) 0.3950(2) 0.8359(2)
H55_2 H 0.8153 0.4055 0.8153
C87_2 C 0.84289(14) 0.3501(2) 0.84289(14)
C88_2 C 0.87476(13) 0.3352(2) 0.87476(13)
H56_2 H 0.8799 0.3051 0.8799
C89_2 C 0.78793(13) 0.33140(18) 0.78793(13)
H57_2 H 0.7647 0.3491 0.8018
C90_2 C 0.76889(12) 0.28973(14) 0.76889(12)
O30_2 O 0.93610(12) 0.31089(18) 0.93610(12)
O32_2 O 0.82082(9) 0.31775(12) 0.82082(9)
C91_2 C 0.6482(3) 0.06793(18) 0.93207(18)
C92_2 C 0.6314(2) 0.10191(14) 0.89809(14)
C93_2 C 0.5892(2) 0.1099(2) 0.8901(2)
H58_2 H 0.5681 0.0938 0.9062
C94_2 C 0.5758(2) 0.1374(2) 0.8626(2)
H59_2 H 0.5452 0.1410 0.8590
C95_2 C 0.6050(2) 0.1641(2) 0.8359(2)
H60_2 H 0.5945 0.1847 0.8153
C96_2 C 0.6499(2) 0.15711(14) 0.84289(14)
C97_2 C 0.6648(2) 0.12524(13) 0.87476(13)
H61_2 H 0.6949 0.1201 0.8799
C98_2 C 0.66860(18) 0.21207(13) 0.78793(13)
H62_2 H 0.6509 0.1982 0.7647
C99_2 C 0.71027(14) 0.23111(12) 0.76889(12)
O33_2 O 0.68911(18) 0.06390(12) 0.93610(12)
O35_2 O 0.68225(12) 0.17918(9) 0.82082(9)
H63_2 H 0.8491 0.2647 0.6982
H64_2 H 0.6982 0.1509 0.7353
H65_2 H 0.6509 0.2353 0.8018
H66_2 H 0.8018 0.3491 0.7647
C100_2 C 0.56793(18) 0.43207(18) 0.8518(3)
C101_2 C 0.60191(14) 0.39809(14) 0.8686(2)
C102_2 C 0.6099(2) 0.3901(2) 0.9108(2)
H67_2 H 0.5938 0.4062 0.9319
C103_2 C 0.6374(2) 0.3626(2) 0.9242(2)
H68_2 H 0.6410 0.3590 0.9548
C104_2 C 0.6641(2) 0.3359(2) 0.8950(2)
H69_2 H 0.6847 0.3153 0.9055
C105_2 C 0.65711(14) 0.34289(14) 0.8501(2)
C106_2 C 0.62524(13) 0.37476(13) 0.8352(2)
H70_2 H 0.6201 0.3799 0.8051
C107_2 C 0.71207(13) 0.28793(13) 0.83140(18)
H71_2 H 0.6982 0.2647 0.8491
C108_2 C 0.73111(12) 0.26889(12) 0.78973(14)
O36_2 O 0.56390(12) 0.43610(12) 0.81089(18)
O37_2 O 0.54748(11) 0.45252(11) 0.88002(17)
O38_2 O 0.67918(9) 0.32082(9) 0.81775(12)
H72_2 H 0.7353 0.3018 0.8491
Ni1_8 Ni 1.0000 1.0000 0.62343(6)
O4_8 O 1.0000 1.0000 0.6921(3)
O5_8 O 1.0000 1.0000 0.5550(2)
O46_2 O 0.95252(11) 0.95252(11) 0.61998(17)
C55_3 C 0.06793(18) 0.06793(18) 0.6482(3)
C56_3 C 0.10191(14) 0.10191(14) 0.6314(2)
C57_3 C 0.1099(2) 0.1099(2) 0.5892(2)
H37_3 H 0.0938 0.0938 0.5681
C58_3 C 0.1374(2) 0.1374(2) 0.5758(2)
H38_3 H 0.1410 0.1410 0.5452
C59_3 C 0.1641(2) 0.1641(2) 0.6050(2)
H39_3 H 0.1847 0.1847 0.5945
C60_3 C 0.15711(14) 0.15711(14) 0.6499(2)
C61_3 C 0.12524(13) 0.12524(13) 0.6648(2)
H40_3 H 0.1201 0.1201 0.6949
C62_3 C 0.21207(13) 0.21207(13) 0.66860(18)
H41_3 H 0.1982 0.2353 0.6509
C63_3 C 0.23111(12) 0.23111(12) 0.71027(14)
O21_3 O 0.06390(12) 0.06390(12) 0.68911(18)
O23_3 O 0.17918(9) 0.17918(9) 0.68225(12)
C64_3 C 0.1482(3) 0.43207(18) 0.56793(18)
C65_3 C 0.1314(2) 0.39809(14) 0.60191(14)
C66_3 C 0.0892(2) 0.3901(2) 0.6099(2)
H42_3 H 0.0681 0.4062 0.5938
C67_3 C 0.0758(2) 0.3626(2) 0.6374(2)
H43_3 H 0.0452 0.3590 0.6410
C68_3 C 0.1050(2) 0.3359(2) 0.6641(2)
H44_3 H 0.0945 0.3153 0.6847
C69_3 C 0.1499(2) 0.34289(14) 0.65711(14)
C70_3 C 0.1648(2) 0.37476(13) 0.62524(13)
H45_3 H 0.1949 0.3799 0.6201
C71_3 C 0.16860(18) 0.28793(13) 0.71207(13)
H46_3 H 0.1509 0.2647 0.6982
C72_3 C 0.21027(14) 0.26889(12) 0.73111(12)
O24_3 O 0.18911(18) 0.43610(12) 0.56390(12)
O25_3 O 0.11998(17) 0.45252(11) 0.54748(11)
O26_3 O 0.18225(12) 0.32082(9) 0.67918(9)
C73_3 C 0.43207(18) 0.1482(3) 0.56793(18)
C74_3 C 0.39809(14) 0.1314(2) 0.60191(14)
C75_3 C 0.3901(2) 0.0892(2) 0.6099(2)
H47_3 H 0.4062 0.0681 0.5938
C76_3 C 0.3626(2) 0.0758(2) 0.6374(2)
H48_3 H 0.3590 0.0452 0.6410
C77_3 C 0.3359(2) 0.1050(2) 0.6641(2)
H49_3 H 0.3153 0.0945 0.6847
C78_3 C 0.34289(14) 0.1499(2) 0.65711(14)
C79_3 C 0.37476(13) 0.1648(2) 0.62524(13)
H50_3 H 0.3799 0.1949 0.6201
C80_3 C 0.28793(13) 0.16860(18) 0.71207(13)
H51_3 H 0.3018 0.1509 0.7353
C81_3 C 0.26889(12) 0.21027(14) 0.73111(12)
O27_3 O 0.43610(12) 0.18911(18) 0.56390(12)
O28_3 O 0.45252(11) 0.11998(17) 0.54748(11)
O29_3 O 0.32082(9) 0.18225(12) 0.67918(9)
H52_3 H 0.2353 0.1982 0.6509
C82_3 C 0.3518(3) 0.06793(18) 0.93207(18)
C83_3 C 0.3686(2) 0.10191(14) 0.89809(14)
C84_3 C 0.4108(2) 0.1099(2) 0.8901(2)
H53_3 H 0.4319 0.0938 0.9062
C85_3 C 0.4242(2) 0.1374(2) 0.8626(2)
H54_3 H 0.4548 0.1410 0.8590
C86_3 C 0.3950(2) 0.1641(2) 0.8359(2)
H55_3 H 0.4055 0.1847 0.8153
C87_3 C 0.3501(2) 0.15711(14) 0.84289(14)
C88_3 C 0.3352(2) 0.12524(13) 0.87476(13)
H56_3 H 0.3051 0.1201 0.8799
C89_3 C 0.33140(18) 0.21207(13) 0.78793(13)
H57_3 H 0.3491 0.2353 0.8018
C90_3 C 0.28973(14) 0.23111(12) 0.76889(12)
O30_3 O 0.31089(18) 0.06390(12) 0.93610(12)
O32_3 O 0.31775(12) 0.17918(9) 0.82082(9)
C91_3 C 0.06793(18) 0.3518(3) 0.93207(18)
C92_3 C 0.10191(14) 0.3686(2) 0.89809(14)
C93_3 C 0.1099(2) 0.4108(2) 0.8901(2)
H58_3 H 0.0938 0.4319 0.9062
C94_3 C 0.1374(2) 0.4242(2) 0.8626(2)
H59_3 H 0.1410 0.4548 0.8590
C95_3 C 0.1641(2) 0.3950(2) 0.8359(2)
H60_3 H 0.1847 0.4055 0.8153
C96_3 C 0.15711(14) 0.3501(2) 0.84289(14)
C97_3 C 0.12524(13) 0.3352(2) 0.87476(13)
H61_3 H 0.1201 0.3051 0.8799
C98_3 C 0.21207(13) 0.33140(18) 0.78793(13)
H62_3 H 0.1982 0.3491 0.7647
C99_3 C 0.23111(12) 0.28973(14) 0.76889(12)
O33_3 O 0.06390(12) 0.31089(18) 0.93610(12)
O35_3 O 0.17918(9) 0.31775(12) 0.82082(9)
H63_3 H 0.2647 0.1509 0.6982
H64_3 H 0.1509 0.3018 0.7353
H65_3 H 0.2353 0.3491 0.8018
H66_3 H 0.3491 0.1982 0.7647
C100_3 C 0.43207(18) 0.43207(18) 0.8518(3)
C101_3 C 0.39809(14) 0.39809(14) 0.8686(2)
C102_3 C 0.3901(2) 0.3901(2) 0.9108(2)
H67_3 H 0.4062 0.4062 0.9319
C103_3 C 0.3626(2) 0.3626(2) 0.9242(2)
H68_3 H 0.3590 0.3590 0.9548
C104_3 C 0.3359(2) 0.3359(2) 0.8950(2)
H69_3 H 0.3153 0.3153 0.9055
C105_3 C 0.34289(14) 0.34289(14) 0.8501(2)
C106_3 C 0.37476(13) 0.37476(13) 0.8352(2)
H70_3 H 0.3799 0.3799 0.8051
C107_3 C 0.28793(13) 0.28793(13) 0.83140(18)
H71_3 H 0.2647 0.3018 0.8491
C108_3 C 0.26889(12) 0.26889(12) 0.78973(14)
O36_3 O 0.43610(12) 0.43610(12) 0.81089(18)
O37_3 O 0.45252(11) 0.45252(11) 0.88002(17)
O38_3 O 0.32082(9) 0.32082(9) 0.81775(12)
H72_3 H 0.3018 0.2647 0.8491
C1_3 C 0.93207(18) 0.93207(18) 0.6482(3)
C2_3 C 0.89809(14) 0.89809(14) 0.6314(2)
C3_3 C 0.8901(2) 0.8901(2) 0.5892(2)
H1_3 H 0.9062 0.9062 0.5681
C4_3 C 0.8626(2) 0.8626(2) 0.5758(2)
H2_3 H 0.8590 0.8590 0.5452
C5_3 C 0.8359(2) 0.8359(2) 0.6050(2)
H3_3 H 0.8153 0.8153 0.5945
C6_3 C 0.84289(14) 0.84289(14) 0.6499(2)
C7_3 C 0.87476(13) 0.87476(13) 0.6648(2)
H4_3 H 0.8799 0.8799 0.6949
C8_3 C 0.78793(13) 0.78793(13) 0.66860(18)
H5_3 H 0.8018 0.7647 0.6509
C9_3 C 0.76889(12) 0.76889(12) 0.71027(14)
O1_3 O 0.93610(12) 0.93610(12) 0.68911(18)
O3_3 O 0.82082(9) 0.82082(9) 0.68225(12)
C10_3 C 0.8518(3) 0.56793(18) 0.56793(18)
C11_3 C 0.8686(2) 0.60191(14) 0.60191(14)
C12_3 C 0.9108(2) 0.6099(2) 0.6099(2)
H6_3 H 0.9319 0.5938 0.5938
C13_3 C 0.9242(2) 0.6374(2) 0.6374(2)
H7_3 H 0.9548 0.6410 0.6410
C14_3 C 0.8950(2) 0.6641(2) 0.6641(2)
H8_3 H 0.9055 0.6847 0.6847
C15_3 C 0.8501(2) 0.65711(14) 0.65711(14)
C16_3 C 0.8352(2) 0.62524(13) 0.62524(13)
H9_3 H 0.8051 0.6201 0.6201
C17_3 C 0.83140(18) 0.71207(13) 0.71207(13)
H10_3 H 0.8491 0.7353 0.6982
C18_3 C 0.78973(14) 0.73111(12) 0.73111(12)
O6_3 O 0.81089(18) 0.56390(12) 0.56390(12)
O7_3 O 0.88002(17) 0.54748(11) 0.54748(11)
O8_3 O 0.81775(12) 0.67918(9) 0.67918(9)
C19_3 C 0.56793(18) 0.8518(3) 0.56793(18)
C20_3 C 0.60191(14) 0.8686(2) 0.60191(14)
C21_3 C 0.6099(2) 0.9108(2) 0.6099(2)
H11_3 H 0.5938 0.9319 0.5938
C22_3 C 0.6374(2) 0.9242(2) 0.6374(2)
H12_3 H 0.6410 0.9548 0.6410
C23_3 C 0.6641(2) 0.8950(2) 0.6641(2)
H13_3 H 0.6847 0.9055 0.6847
C24_3 C 0.65711(14) 0.8501(2) 0.65711(14)
C25_3 C 0.62524(13) 0.8352(2) 0.62524(13)
H14_3 H 0.6201 0.8051 0.6201
C26_3 C 0.71207(13) 0.83140(18) 0.71207(13)
H15_3 H 0.6982 0.8491 0.7353
C27_3 C 0.73111(12) 0.78973(14) 0.73111(12)
O9_3 O 0.56390(12) 0.81089(18) 0.56390(12)
O10_3 O 0.54748(11) 0.88002(17) 0.54748(11)
O11_3 O 0.67918(9) 0.81775(12) 0.67918(9)
H16_3 H 0.7647 0.8018 0.6509
C28_3 C 0.6482(3) 0.93207(18) 0.93207(18)
C29_3 C 0.6314(2) 0.89809(14) 0.89809(14)
C30_3 C 0.5892(2) 0.8901(2) 0.8901(2)
H17_3 H 0.5681 0.9062 0.9062
C31_3 C 0.5758(2) 0.8626(2) 0.8626(2)
H18_3 H 0.5452 0.8590 0.8590
C32_3 C 0.6050(2) 0.8359(2) 0.8359(2)
H19_3 H 0.5945 0.8153 0.8153
C33_3 C 0.6499(2) 0.84289(14) 0.84289(14)
C34_3 C 0.6648(2) 0.87476(13) 0.87476(13)
H20_3 H 0.6949 0.8799 0.8799
C35_3 C 0.66860(18) 0.78793(13) 0.78793(13)
H21_3 H 0.6509 0.7647 0.8018
C36_3 C 0.71027(14) 0.76889(12) 0.76889(12)
O12_3 O 0.68911(18) 0.93610(12) 0.93610(12)
O14_3 O 0.68225(12) 0.82082(9) 0.82082(9)
C37_3 C 0.93207(18) 0.6482(3) 0.93207(18)
C38_3 C 0.89809(14) 0.6314(2) 0.89809(14)
C39_3 C 0.8901(2) 0.5892(2) 0.8901(2)
H22_3 H 0.9062 0.5681 0.9062
C40_3 C 0.8626(2) 0.5758(2) 0.8626(2)
H23_3 H 0.8590 0.5452 0.8590
C41_3 C 0.8359(2) 0.6050(2) 0.8359(2)
H24_3 H 0.8153 0.5945 0.8153
C42_3 C 0.84289(14) 0.6499(2) 0.84289(14)
C43_3 C 0.87476(13) 0.6648(2) 0.87476(13)
H25_3 H 0.8799 0.6949 0.8799
C44_3 C 0.78793(13) 0.66860(18) 0.78793(13)
H26_3 H 0.8018 0.6509 0.7647
C45_3 C 0.76889(12) 0.71027(14) 0.76889(12)
O15_3 O 0.93610(12) 0.68911(18) 0.93610(12)
O17_3 O 0.82082(9) 0.68225(12) 0.82082(9)
H27_3 H 0.7353 0.8491 0.6982
H28_3 H 0.8491 0.6982 0.7353
H29_3 H 0.7647 0.6509 0.8018
H30_3 H 0.6509 0.8018 0.7647
C46_3 C 0.56793(18) 0.56793(18) 0.8518(3)
C47_3 C 0.60191(14) 0.60191(14) 0.8686(2)
C48_3 C 0.6099(2) 0.6099(2) 0.9108(2)
H31_3 H 0.5938 0.5938 0.9319
C49_3 C 0.6374(2) 0.6374(2) 0.9242(2)
H32_3 H 0.6410 0.6410 0.9548
C50_3 C 0.6641(2) 0.6641(2) 0.8950(2)
H33_3 H 0.6847 0.6847 0.9055
C51_3 C 0.65711(14) 0.65711(14) 0.8501(2)
C52_3 C 0.62524(13) 0.62524(13) 0.8352(2)
H34_3 H 0.6201 0.6201 0.8051
C53_3 C 0.71207(13) 0.71207(13) 0.83140(18)
H35_3 H 0.7353 0.6982 0.8491
C54_3 C 0.73111(12) 0.73111(12) 0.78973(14)
O18_3 O 0.56390(12) 0.56390(12) 0.81089(18)
O19_3 O 0.54748(11) 0.54748(11) 0.88002(17)
O20_3 O 0.67918(9) 0.67918(9) 0.81775(12)
H36_3 H 0.6982 0.7353 0.8491
C1_4 C 0.06793(18) 0.93207(18) 0.3518(3)
C2_4 C 0.10191(14) 0.89809(14) 0.3686(2)
C3_4 C 0.1099(2) 0.8901(2) 0.4108(2)
H1_4 H 0.0938 0.9062 0.4319
C4_4 C 0.1374(2) 0.8626(2) 0.4242(2)
H2_4 H 0.1410 0.8590 0.4548
C5_4 C 0.1641(2) 0.8359(2) 0.3950(2)
H3_4 H 0.1847 0.8153 0.4055
C6_4 C 0.15711(14) 0.84289(14) 0.3501(2)
C7_4 C 0.12524(13) 0.87476(13) 0.3352(2)
H4_4 H 0.1201 0.8799 0.3051
C8_4 C 0.21207(13) 0.78793(13) 0.33140(18)
H5_4 H 0.1982 0.7647 0.3491
C9_4 C 0.23111(12) 0.76889(12) 0.28973(14)
O1_4 O 0.06390(12) 0.93610(12) 0.31089(18)
O3_4 O 0.17918(9) 0.82082(9) 0.31775(12)
C10_4 C 0.1482(3) 0.56793(18) 0.43207(18)
C11_4 C 0.1314(2) 0.60191(14) 0.39809(14)
C12_4 C 0.0892(2) 0.6099(2) 0.3901(2)
H6_4 H 0.0681 0.5938 0.4062
C13_4 C 0.0758(2) 0.6374(2) 0.3626(2)
H7_4 H 0.0452 0.6410 0.3590
C14_4 C 0.1050(2) 0.6641(2) 0.3359(2)
H8_4 H 0.0945 0.6847 0.3153
C15_4 C 0.1499(2) 0.65711(14) 0.34289(14)
C16_4 C 0.1648(2) 0.62524(13) 0.37476(13)
H9_4 H 0.1949 0.6201 0.3799
C17_4 C 0.16860(18) 0.71207(13) 0.28793(13)
H10_4 H 0.1509 0.7353 0.3018
C18_4 C 0.21027(14) 0.73111(12) 0.26889(12)
O6_4 O 0.18911(18) 0.56390(12) 0.43610(12)
O7_4 O 0.11998(17) 0.54748(11) 0.45252(11)
O8_4 O 0.18225(12) 0.67918(9) 0.32082(9)
C19_4 C 0.43207(18) 0.8518(3) 0.43207(18)
C20_4 C 0.39809(14) 0.8686(2) 0.39809(14)
C21_4 C 0.3901(2) 0.9108(2) 0.3901(2)
H11_4 H 0.4062 0.9319 0.4062
C22_4 C 0.3626(2) 0.9242(2) 0.3626(2)
H12_4 H 0.3590 0.9548 0.3590
C23_4 C 0.3359(2) 0.8950(2) 0.3359(2)
H13_4 H 0.3153 0.9055 0.3153
C24_4 C 0.34289(14) 0.8501(2) 0.34289(14)
C25_4 C 0.37476(13) 0.8352(2) 0.37476(13)
H14_4 H 0.3799 0.8051 0.3799
C26_4 C 0.28793(13) 0.83140(18) 0.28793(13)
H15_4 H 0.3018 0.8491 0.2647
C27_4 C 0.26889(12) 0.78973(14) 0.26889(12)
O9_4 O 0.43610(12) 0.81089(18) 0.43610(12)
O10_4 O 0.45252(11) 0.88002(17) 0.45252(11)
O11_4 O 0.32082(9) 0.81775(12) 0.32082(9)
H16_4 H 0.2353 0.8018 0.3491
C28_4 C 0.3518(3) 0.93207(18) 0.06793(18)
C29_4 C 0.3686(2) 0.89809(14) 0.10191(14)
C30_4 C 0.4108(2) 0.8901(2) 0.1099(2)
H17_4 H 0.4319 0.9062 0.0938
C31_4 C 0.4242(2) 0.8626(2) 0.1374(2)
H18_4 H 0.4548 0.8590 0.1410
C32_4 C 0.3950(2) 0.8359(2) 0.1641(2)
H19_4 H 0.4055 0.8153 0.1847
C33_4 C 0.3501(2) 0.84289(14) 0.15711(14)
C34_4 C 0.3352(2) 0.87476(13) 0.12524(13)
H20_4 H 0.3051 0.8799 0.1201
C35_4 C 0.33140(18) 0.78793(13) 0.21207(13)
H21_4 H 0.3491 0.7647 0.1982
C36_4 C 0.28973(14) 0.76889(12) 0.23111(12)
O12_4 O 0.31089(18) 0.93610(12) 0.06390(12)
O14_4 O 0.31775(12) 0.82082(9) 0.17918(9)
C37_4 C 0.06793(18) 0.6482(3) 0.06793(18)
C38_4 C 0.10191(14) 0.6314(2) 0.10191(14)
C39_4 C 0.1099(2) 0.5892(2) 0.1099(2)
H22_4 H 0.0938 0.5681 0.0938
C40_4 C 0.1374(2) 0.5758(2) 0.1374(2)
H23_4 H 0.1410 0.5452 0.1410
C41_4 C 0.1641(2) 0.6050(2) 0.1641(2)
H24_4 H 0.1847 0.5945 0.1847
C42_4 C 0.15711(14) 0.6499(2) 0.15711(14)
C43_4 C 0.12524(13) 0.6648(2) 0.12524(13)
H25_4 H 0.1201 0.6949 0.1201
C44_4 C 0.21207(13) 0.66860(18) 0.21207(13)
H26_4 H 0.1982 0.6509 0.2353
C45_4 C 0.23111(12) 0.71027(14) 0.23111(12)
O15_4 O 0.06390(12) 0.68911(18) 0.06390(12)
O17_4 O 0.17918(9) 0.68225(12) 0.17918(9)
H27_4 H 0.2647 0.8491 0.3018
H28_4 H 0.1509 0.6982 0.2647
H29_4 H 0.2353 0.6509 0.1982
H30_4 H 0.3491 0.8018 0.2353
C46_4 C 0.43207(18) 0.56793(18) 0.1482(3)
C47_4 C 0.39809(14) 0.60191(14) 0.1314(2)
C48_4 C 0.3901(2) 0.6099(2) 0.0892(2)
H31_4 H 0.4062 0.5938 0.0681
C49_4 C 0.3626(2) 0.6374(2) 0.0758(2)
H32_4 H 0.3590 0.6410 0.0452
C50_4 C 0.3359(2) 0.6641(2) 0.1050(2)
H33_4 H 0.3153 0.6847 0.0945
C51_4 C 0.34289(14) 0.65711(14) 0.1499(2)
C52_4 C 0.37476(13) 0.62524(13) 0.1648(2)
H34_4 H 0.3799 0.6201 0.1949
C53_4 C 0.28793(13) 0.71207(13) 0.16860(18)
H35_4 H 0.2647 0.6982 0.1509
C54_4 C 0.26889(12) 0.73111(12) 0.21027(14)
O18_4 O 0.43610(12) 0.56390(12) 0.18911(18)
O19_4 O 0.45252(11) 0.54748(11) 0.11998(17)
O20_4 O 0.32082(9) 0.67918(9) 0.18225(12)
H36_4 H 0.3018 0.7353 0.1509
C55_4 C 0.93207(18) 0.06793(18) 0.3518(3)
C56_4 C 0.89809(14) 0.10191(14) 0.3686(2)
C57_4 C 0.8901(2) 0.1099(2) 0.4108(2)
H37_4 H 0.9062 0.0938 0.4319
C58_4 C 0.8626(2) 0.1374(2) 0.4242(2)
H38_4 H 0.8590 0.1410 0.4548
C59_4 C 0.8359(2) 0.1641(2) 0.3950(2)
H39_4 H 0.8153 0.1847 0.4055
C60_4 C 0.84289(14) 0.15711(14) 0.3501(2)
C61_4 C 0.87476(13) 0.12524(13) 0.3352(2)
H40_4 H 0.8799 0.1201 0.3051
C62_4 C 0.78793(13) 0.21207(13) 0.33140(18)
H41_4 H 0.8018 0.2353 0.3491
C63_4 C 0.76889(12) 0.23111(12) 0.28973(14)
O21_4 O 0.93610(12) 0.06390(12) 0.31089(18)
O23_4 O 0.82082(9) 0.17918(9) 0.31775(12)
C64_4 C 0.8518(3) 0.43207(18) 0.43207(18)
C65_4 C 0.8686(2) 0.39809(14) 0.39809(14)
C66_4 C 0.9108(2) 0.3901(2) 0.3901(2)
H42_4 H 0.9319 0.4062 0.4062
C67_4 C 0.9242(2) 0.3626(2) 0.3626(2)
H43_4 H 0.9548 0.3590 0.3590
C68_4 C 0.8950(2) 0.3359(2) 0.3359(2)
H44_4 H 0.9055 0.3153 0.3153
C69_4 C 0.8501(2) 0.34289(14) 0.34289(14)
C70_4 C 0.8352(2) 0.37476(13) 0.37476(13)
H45_4 H 0.8051 0.3799 0.3799
C71_4 C 0.83140(18) 0.28793(13) 0.28793(13)
H46_4 H 0.8491 0.2647 0.3018
C72_4 C 0.78973(14) 0.26889(12) 0.26889(12)
O24_4 O 0.81089(18) 0.43610(12) 0.43610(12)
O25_4 O 0.88002(17) 0.45252(11) 0.45252(11)
O26_4 O 0.81775(12) 0.32082(9) 0.32082(9)
C73_4 C 0.56793(18) 0.1482(3) 0.43207(18)
C74_4 C 0.60191(14) 0.1314(2) 0.39809(14)
C75_4 C 0.6099(2) 0.0892(2) 0.3901(2)
H47_4 H 0.5938 0.0681 0.4062
C76_4 C 0.6374(2) 0.0758(2) 0.3626(2)
H48_4 H 0.6410 0.0452 0.3590
C77_4 C 0.6641(2) 0.1050(2) 0.3359(2)
H49_4 H 0.6847 0.0945 0.3153
C78_4 C 0.65711(14) 0.1499(2) 0.34289(14)
C79_4 C 0.62524(13) 0.1648(2) 0.37476(13)
H50_4 H 0.6201 0.1949 0.3799
C80_4 C 0.71207(13) 0.16860(18) 0.28793(13)
H51_4 H 0.6982 0.1509 0.2647
C81_4 C 0.73111(12) 0.21027(14) 0.26889(12)
O27_4 O 0.56390(12) 0.18911(18) 0.43610(12)
O28_4 O 0.54748(11) 0.11998(17) 0.45252(11)
O29_4 O 0.67918(9) 0.18225(12) 0.32082(9)
H52_4 H 0.7647 0.1982 0.3491
C82_4 C 0.6482(3) 0.06793(18) 0.06793(18)
C83_4 C 0.6314(2) 0.10191(14) 0.10191(14)
C84_4 C 0.5892(2) 0.1099(2) 0.1099(2)
H53_4 H 0.5681 0.0938 0.0938
C85_4 C 0.5758(2) 0.1374(2) 0.1374(2)
H54_4 H 0.5452 0.1410 0.1410
C86_4 C 0.6050(2) 0.1641(2) 0.1641(2)
H55_4 H 0.5945 0.1847 0.1847
C87_4 C 0.6499(2) 0.15711(14) 0.15711(14)
C88_4 C 0.6648(2) 0.12524(13) 0.12524(13)
H56_4 H 0.6949 0.1201 0.1201
C89_4 C 0.66860(18) 0.21207(13) 0.21207(13)
H57_4 H 0.6509 0.2353 0.1982
C90_4 C 0.71027(14) 0.23111(12) 0.23111(12)
O30_4 O 0.68911(18) 0.06390(12) 0.06390(12)
O32_4 O 0.68225(12) 0.17918(9) 0.17918(9)
C91_4 C 0.93207(18) 0.3518(3) 0.06793(18)
C92_4 C 0.89809(14) 0.3686(2) 0.10191(14)
C93_4 C 0.8901(2) 0.4108(2) 0.1099(2)
H58_4 H 0.9062 0.4319 0.0938
C94_4 C 0.8626(2) 0.4242(2) 0.1374(2)
H59_4 H 0.8590 0.4548 0.1410
C95_4 C 0.8359(2) 0.3950(2) 0.1641(2)
H60_4 H 0.8153 0.4055 0.1847
C96_4 C 0.84289(14) 0.3501(2) 0.15711(14)
C97_4 C 0.87476(13) 0.3352(2) 0.12524(13)
H61_4 H 0.8799 0.3051 0.1201
C98_4 C 0.78793(13) 0.33140(18) 0.21207(13)
H62_4 H 0.8018 0.3491 0.2353
C99_4 C 0.76889(12) 0.28973(14) 0.23111(12)
O33_4 O 0.93610(12) 0.31089(18) 0.06390(12)
O35_4 O 0.82082(9) 0.31775(12) 0.17918(9)
H63_4 H 0.7353 0.1509 0.3018
H64_4 H 0.8491 0.3018 0.2647
H65_4 H 0.7647 0.3491 0.1982
H66_4 H 0.6509 0.1982 0.2353
C100_4 C 0.56793(18) 0.43207(18) 0.1482(3)
C101_4 C 0.60191(14) 0.39809(14) 0.1314(2)
C102_4 C 0.6099(2) 0.3901(2) 0.0892(2)
H67_4 H 0.5938 0.4062 0.0681
C103_4 C 0.6374(2) 0.3626(2) 0.0758(2)
H68_4 H 0.6410 0.3590 0.0452
C104_4 C 0.6641(2) 0.3359(2) 0.1050(2)
H69_4 H 0.6847 0.3153 0.0945
C105_4 C 0.65711(14) 0.34289(14) 0.1499(2)
C106_4 C 0.62524(13) 0.37476(13) 0.1648(2)
H70_4 H 0.6201 0.3799 0.1949
C107_4 C 0.71207(13) 0.28793(13) 0.16860(18)
H71_4 H 0.7353 0.3018 0.1509
C108_4 C 0.73111(12) 0.26889(12) 0.21027(14)
O36_4 O 0.56390(12) 0.43610(12) 0.18911(18)
O37_4 O 0.54748(11) 0.45252(11) 0.11998(17)
O38_4 O 0.67918(9) 0.32082(9) 0.18225(12)
H72_4 H 0.6982 0.2647 0.1509
O4_9 O 0.5000 0.5000 0.8079(3)
O5_9 O 0.5000 0.5000 0.9450(2)
O39_9 O 0.8079(3) 0.5000 0.5000
O40_9 O 0.9450(2) 0.5000 0.5000
O41_9 O 0.5000 0.8079(3) 0.5000
O42_9 O 0.5000 0.9450(2) 0.5000
O39_10 O 0.1921(3) 0.5000 0.5000
O40_10 O 0.0550(2) 0.5000 0.5000
O41_10 O 0.5000 0.1921(3) 0.5000
O42_10 O 0.5000 0.0550(2) 0.5000
O4_10 O 0.5000 0.5000 0.1921(3)
O5_10 O 0.5000 0.5000 0.0550(2)
loop_
_geom_bond_atom_site_label_1
_geom_bond_atom_site_label_2
_geom_bond_site_symmetry_1
_geom_bond_site_symmetry_2
Ni1 O2 1_555 1_555
C1 C2 1_555 1_555
C2 C3 1_555 1_555
C3 H1 1_555 1_555
C4 C3 1_555 1_555
H2 C4 1_555 1_555
C5 C4 1_555 1_555
H3 C5 1_555 1_555
C6 C5 1_555 1_555
C7 C2 1_555 1_555
H4 C7 1_555 1_555
C8 H5 1_555 1_555
C9 C8 1_555 1_555
O1 C1 1_555 1_555
O2 C1 1_555 1_555
O3 C6 1_555 1_555
O4 Ni1 1_555 1_555
O5 Ni1 1_555 1_555
C10 C11 1_555 1_555
C11 C12 1_555 1_555
C12 H6 1_555 1_555
C13 C12 1_555 1_555
H7 C13 1_555 1_555
C14 C13 1_555 1_555
H8 C14 1_555 1_555
C15 C14 1_555 1_555
C16 C11 1_555 1_555
H9 C16 1_555 1_555
C17 H10 1_555 1_555
C18 C9 1_555 1_555
O6 C10 1_555 1_555
O7 C10 1_555 1_555
O8 C15 1_555 1_555
C19 C20 1_555 1_555
C20 C21 1_555 1_555
C21 H11 1_555 1_555
C22 C21 1_555 1_555
H12 C22 1_555 1_555
C23 C22 1_555 1_555
H13 C23 1_555 1_555
C24 C23 1_555 1_555
C25 C20 1_555 1_555
H14 C25 1_555 1_555
C26 H15 1_555 1_555
C27 C9 1_555 1_555
O9 C19 1_555 1_555
O10 C19 1_555 1_555
O11 C24 1_555 1_555
H16 C8 1_555 1_555
C28 C29 1_555 1_555
C29 C30 1_555 1_555
C30 H17 1_555 1_555
C31 C30 1_555 1_555
H18 C31 1_555 1_555
C32 C31 1_555 1_555
H19 C32 1_555 1_555
C33 C32 1_555 1_555
C34 C29 1_555 1_555
H20 C34 1_555 1_555
C35 H21 1_555 1_555
C36 C27 1_555 1_555
O12 C28 1_555 1_555
O13 C28 1_555 1_555
O14 C33 1_555 1_555
C37 C38 1_555 1_555
C38 C39 1_555 1_555
C39 H22 1_555 1_555
C40 C39 1_555 1_555
H23 C40 1_555 1_555
C41 C40 1_555 1_555
H24 C41 1_555 1_555
C42 C41 1_555 1_555
C43 C38 1_555 1_555
H25 C43 1_555 1_555
C44 H26 1_555 1_555
C45 C18 1_555 1_555
O15 C37 1_555 1_555
O16 C37 1_555 1_555
O17 C42 1_555 1_555
H27 C26 1_555 1_555
H28 C17 1_555 1_555
H29 C44 1_555 1_555
H30 C35 1_555 1_555
C46 C47 1_555 1_555
C47 C48 1_555 1_555
C48 H31 1_555 1_555
C49 C48 1_555 1_555
H32 C49 1_555 1_555
C50 C49 1_555 1_555
H33 C50 1_555 1_555
C51 C50 1_555 1_555
C52 C47 1_555 1_555
H34 C52 1_555 1_555
C53 H35 1_555 1_555
C54 C36 1_555 1_555
O18 C46 1_555 1_555
O19 C46 1_555 1_555
O20 C51 1_555 1_555
H36 C53 1_555 1_555
Ni2 O16 1_555 1_555
O39 Ni2 1_555 1_555
O40 Ni2 1_555 1_555
Ni3 O13 1_555 1_555
O41 Ni3 1_555 1_555
O42 Ni3 1_555 1_555
Ni7 O19 1_555 1_555
Ni10 O10 1_555 1_555
Ni11 O7 1_555 1_555
C6 C7 1_555 1_555
C8 O3 1_555 1_555
C15 C16 1_555 1_555
C17 C18 1_555 1_555
C17 O8 1_555 1_555
C24 C25 1_555 1_555
C26 C27 1_555 1_555
C26 O11 1_555 1_555
C33 C34 1_555 1_555
C35 C36 1_555 1_555
C35 O14 1_555 1_555
C42 C43 1_555 1_555
C44 C45 1_555 1_555
C44 O17 1_555 1_555
C45 C54 1_555 1_555
C51 C52 1_555 1_555
C53 C54 1_555 1_555
C53 O20 1_555 1_555
O39_2 Ni2_2 1_555 1_555
O40_2 Ni2_2 1_555 1_555
O41_2 Ni3_2 1_555 1_555
O42_2 Ni3_2 1_555 1_555
O47 Ni3_2 1_555 1_555
O48 Ni2_2 1_555 1_555
O4_2 Ni1_2 1_555 1_555
O5_2 Ni1_2 1_555 1_555
O39_3 Ni2_3 1_555 1_555
O40_3 Ni2_3 1_555 1_555
O45 Ni1_2 1_555 1_555
O50 Ni2_3 1_555 1_555
O39_4 Ni2_4 1_555 1_555
O40_4 Ni2_4 1_555 1_555
O44 Ni2_4 1_555 1_555
O4_3 Ni1_3 1_555 1_555
O5_3 Ni1_3 1_555 1_555
O41_3 Ni3_3 1_555 1_555
O42_3 Ni3_3 1_555 1_555
O46 Ni1_3 1_555 1_555
O49 Ni3_3 1_555 1_555
O41_4 Ni3_4 1_555 1_555
O42_4 Ni3_4 1_555 1_555
O43 Ni3_4 1_555 1_555
O4_4 Ni1_4 1_555 1_555
O5_4 Ni1_4 1_555 1_555
C55 C56 1_555 1_555
C56 C57 1_555 1_555
C57 H37 1_555 1_555
C58 C57 1_555 1_555
H38 C58 1_555 1_555
C59 C58 1_555 1_555
H39 C59 1_555 1_555
C60 C59 1_555 1_555
C61 C56 1_555 1_555
H40 C61 1_555 1_555
C62 H41 1_555 1_555
C63 C62 1_555 1_555
O21 C55 1_555 1_555
O22 Ni1_4 1_555 1_555
O23 C60 1_555 1_555
C64 C65 1_555 1_555
C65 C66 1_555 1_555
C66 H42 1_555 1_555
C67 C66 1_555 1_555
H43 C67 1_555 1_555
C68 C67 1_555 1_555
H44 C68 1_555 1_555
C69 C68 1_555 1_555
C70 C65 1_555 1_555
H45 C70 1_555 1_555
C71 H46 1_555 1_555
C72 C63 1_555 1_555
O24 C64 1_555 1_555
O25 C64 1_555 1_555
O26 C69 1_555 1_555
C73 C74 1_555 1_555
C74 C75 1_555 1_555
C75 H47 1_555 1_555
C76 C75 1_555 1_555
H48 C76 1_555 1_555
C77 C76 1_555 1_555
H49 C77 1_555 1_555
C78 C77 1_555 1_555
C79 C74 1_555 1_555
H50 C79 1_555 1_555
C80 H51 1_555 1_555
C81 C63 1_555 1_555
O27 C73 1_555 1_555
O28 C73 1_555 1_555
O29 C78 1_555 1_555
H52 C62 1_555 1_555
C82 C83 1_555 1_555
C83 C84 1_555 1_555
C84 H53 1_555 1_555
C85 C84 1_555 1_555
H54 C85 1_555 1_555
C86 C85 1_555 1_555
H55 C86 1_555 1_555
C87 C86 1_555 1_555
C88 C83 1_555 1_555
H56 C88 1_555 1_555
C89 H57 1_555 1_555
C90 C81 1_555 1_555
O30 C82 1_555 1_555
O31 C82 1_555 1_555
O32 C87 1_555 1_555
C91 C92 1_555 1_555
C92 C93 1_555 1_555
C93 H58 1_555 1_555
C94 C93 1_555 1_555
H59 C94 1_555 1_555
C95 C94 1_555 1_555
H60 C95 1_555 1_555
C96 C95 1_555 1_555
C97 C92 1_555 1_555
H61 C97 1_555 1_555
C98 H62 1_555 1_555
C99 C72 1_555 1_555
O33 C91 1_555 1_555
O34 C91 1_555 1_555
O35 C96 1_555 1_555
H63 C80 1_555 1_555
H64 C71 1_555 1_555
H65 C98 1_555 1_555
H66 C89 1_555 1_555
C100 C101 1_555 1_555
C101 C102 1_555 1_555
C102 H67 1_555 1_555
C103 C102 1_555 1_555
H68 C103 1_555 1_555
C104 C103 1_555 1_555
H69 C104 1_555 1_555
C105 C104 1_555 1_555
C106 C101 1_555 1_555
H70 C106 1_555 1_555
C107 H71 1_555 1_555
C108 C90 1_555 1_555
O36 C100 1_555 1_555
O37 C100 1_555 1_555
O38 C105 1_555 1_555
H72 C107 1_555 1_555
Ni4_3 O34 1_555 1_555
Ni5_3 O31 1_555 1_555
Ni7 O37 1_555 1_555
Ni8 O28 1_555 1_555
Ni9 O25 1_555 1_555
C55 O22 1_555 1_555
C60 C61 1_555 1_555
C62 O23 1_555 1_555
C69 C70 1_555 1_555
C71 C72 1_555 1_555
C71 O26 1_555 1_555
C78 C79 1_555 1_555
C80 C81 1_555 1_555
C80 O29 1_555 1_555
C87 C88 1_555 1_555
C89 C90 1_555 1_555
C89 O32 1_555 1_555
C96 C97 1_555 1_555
C98 C99 1_555 1_555
C98 O35 1_555 1_555
C99 C108 1_555 1_555
C105 C106 1_555 1_555
C107 C108 1_555 1_555
C107 O38 1_555 1_555
O41_5 Ni5 1_555 1_555
O42_5 Ni5 1_555 1_555
O49_2 Ni5 1_555 1_555
O41_6 Ni5_2 1_555 1_555
O42_6 Ni5_2 1_555 1_555
O43_2 Ni5_2 1_555 1_555
O39_5 Ni4 1_555 1_555
O40_5 Ni4 1_555 1_555
O50_2 Ni4 1_555 1_555
O39_6 Ni4_2 1_555 1_555
O40_6 Ni4_2 1_555 1_555
O44_2 Ni4_2 1_555 1_555
O39_7 Ni4_3 1_555 1_555
O40_7 Ni4_3 1_555 1_555
O41_7 Ni5_3 1_555 1_555
O42_7 Ni5_3 1_555 1_555
O39_8 Ni4_4 1_555 1_555
O40_8 Ni4_4 1_555 1_555
O41_8 Ni5_4 1_555 1_555
O42_8 Ni5_4 1_555 1_555
O47_2 Ni5_4 1_555 1_555
O48_2 Ni4_4 1_555 1_555
O4_5 Ni1_5 1_555 1_555
O5_5 Ni1_5 1_555 1_555
O45_2 Ni1_5 1_555 1_555
Ni1_6 O2_2 1_555 1_555
C1_2 C2_2 1_555 1_555
C2_2 C3_2 1_555 1_555
C3_2 H1_2 1_555 1_555
C4_2 C3_2 1_555 1_555
H2_2 C4_2 1_555 1_555
C5_2 C4_2 1_555 1_555
H3_2 C5_2 1_555 1_555
C6_2 C5_2 1_555 1_555
C7_2 C2_2 1_555 1_555
H4_2 C7_2 1_555 1_555
C8_2 H5_2 1_555 1_555
C9_2 C8_2 1_555 1_555
O1_2 C1_2 1_555 1_555
O2_2 C1_2 1_555 1_555
O3_2 C6_2 1_555 1_555
O4_6 Ni1_6 1_555 1_555
O5_6 Ni1_6 1_555 1_555
C10_2 C11_2 1_555 1_555
C11_2 C12_2 1_555 1_555
C12_2 H6_2 1_555 1_555
C13_2 C12_2 1_555 1_555
H7_2 C13_2 1_555 1_555
C14_2 C13_2 1_555 1_555
H8_2 C14_2 1_555 1_555
C15_2 C14_2 1_555 1_555
C16_2 C11_2 1_555 1_555
H9_2 C16_2 1_555 1_555
C17_2 H10_2 1_555 1_555
C18_2 C9_2 1_555 1_555
O6_2 C10_2 1_555 1_555
O7_2 C10_2 1_555 1_555
O8_2 C15_2 1_555 1_555
C19_2 C20_2 1_555 1_555
C20_2 C21_2 1_555 1_555
C21_2 H11_2 1_555 1_555
C22_2 C21_2 1_555 1_555
H12_2 C22_2 1_555 1_555
C23_2 C22_2 1_555 1_555
H13_2 C23_2 1_555 1_555
C24_2 C23_2 1_555 1_555
C25_2 C20_2 1_555 1_555
H14_2 C25_2 1_555 1_555
C26_2 H15_2 1_555 1_555
C27_2 C9_2 1_555 1_555
O9_2 C19_2 1_555 1_555
O10_2 C19_2 1_555 1_555
O11_2 C24_2 1_555 1_555
H16_2 C8_2 1_555 1_555
C28_2 C29_2 1_555 1_555
C29_2 C30_2 1_555 1_555
C30_2 H17_2 1_555 1_555
C31_2 C30_2 1_555 1_555
H18_2 C31_2 1_555 1_555
C32_2 C31_2 1_555 1_555
H19_2 C32_2 1_555 1_555
C33_2 C32_2 1_555 1_555
C34_2 C29_2 1_555 1_555
H20_2 C34_2 1_555 1_555
C35_2 H21_2 1_555 1_555
C36_2 C27_2 1_555 1_555
O12_2 C28_2 1_555 1_555
O43_2 C28_2 1_555 1_555
O14_2 C33_2 1_555 1_555
C37_2 C38_2 1_555 1_555
C38_2 C39_2 1_555 1_555
C39_2 H22_2 1_555 1_555
C40_2 C39_2 1_555 1_555
H23_2 C40_2 1_555 1_555
C41_2 C40_2 1_555 1_555
H24_2 C41_2 1_555 1_555
C42_2 C41_2 1_555 1_555
C43_2 C38_2 1_555 1_555
H25_2 C43_2 1_555 1_555
C44_2 H26_2 1_555 1_555
C45_2 C18_2 1_555 1_555
O15_2 C37_2 1_555 1_555
O44 C37_2 1_555 1_555
O17_2 C42_2 1_555 1_555
H27_2 C26_2 1_555 1_555
H28_2 C17_2 1_555 1_555
H29_2 C44_2 1_555 1_555
H30_2 C35_2 1_555 1_555
C46_2 C47_2 1_555 1_555
C47_2 C48_2 1_555 1_555
C48_2 H31_2 1_555 1_555
C49_2 C48_2 1_555 1_555
H32_2 C49_2 1_555 1_555
C50_2 C49_2 1_555 1_555
H33_2 C50_2 1_555 1_555
C51_2 C50_2 1_555 1_555
C52_2 C47_2 1_555 1_555
H34_2 C52_2 1_555 1_555
C53_2 H35_2 1_555 1_555
C54_2 C36_2 1_555 1_555
O18_2 C46_2 1_555 1_555
O19_2 C46_2 1_555 1_555
O20_2 C51_2 1_555 1_555
H36_2 C53_2 1_555 1_555
Ni7_2 O19_2 1_555 1_555
Ni10 O10_2 1_555 1_555
Ni9 O7_2 1_555 1_555
C6_2 C7_2 1_555 1_555
C8_2 O3_2 1_555 1_555
C15_2 C16_2 1_555 1_555
C17_2 C18_2 1_555 1_555
C17_2 O8_2 1_555 1_555
C24_2 C25_2 1_555 1_555
C26_2 C27_2 1_555 1_555
C26_2 O11_2 1_555 1_555
C33_2 C34_2 1_555 1_555
C35_2 C36_2 1_555 1_555
C35_2 O14_2 1_555 1_555
C42_2 C43_2 1_555 1_555
C44_2 C45_2 1_555 1_555
C44_2 O17_2 1_555 1_555
C45_2 C54_2 1_555 1_555
C51_2 C52_2 1_555 1_555
C53_2 C54_2 1_555 1_555
C53_2 O20_2 1_555 1_555
O4_7 Ni1_7 1_555 1_555
O5_7 Ni1_7 1_555 1_555
C55_2 C56_2 1_555 1_555
C56_2 C57_2 1_555 1_555
C57_2 H37_2 1_555 1_555
C58_2 C57_2 1_555 1_555
H38_2 C58_2 1_555 1_555
C59_2 C58_2 1_555 1_555
H39_2 C59_2 1_555 1_555
C60_2 C59_2 1_555 1_555
C61_2 C56_2 1_555 1_555
H40_2 C61_2 1_555 1_555
C62_2 H41_2 1_555 1_555
C63_2 C62_2 1_555 1_555
O21_2 C55_2 1_555 1_555
O22_2 Ni1_7 1_555 1_555
O23_2 C60_2 1_555 1_555
C64_2 C65_2 1_555 1_555
C65_2 C66_2 1_555 1_555
C66_2 H42_2 1_555 1_555
C67_2 C66_2 1_555 1_555
H43_2 C67_2 1_555 1_555
C68_2 C67_2 1_555 1_555
H44_2 C68_2 1_555 1_555
C69_2 C68_2 1_555 1_555
C70_2 C65_2 1_555 1_555
H45_2 C70_2 1_555 1_555
C71_2 H46_2 1_555 1_555
C72_2 C63_2 1_555 1_555
O24_2 C64_2 1_555 1_555
O25_2 C64_2 1_555 1_555
O26_2 C69_2 1_555 1_555
C73_2 C74_2 1_555 1_555
C74_2 C75_2 1_555 1_555
C75_2 H47_2 1_555 1_555
C76_2 C75_2 1_555 1_555
H48_2 C76_2 1_555 1_555
C77_2 C76_2 1_555 1_555
H49_2 C77_2 1_555 1_555
C78_2 C77_2 1_555 1_555
C79_2 C74_2 1_555 1_555
H50_2 C79_2 1_555 1_555
C80_2 H51_2 1_555 1_555
C81_2 C63_2 1_555 1_555
O27_2 C73_2 1_555 1_555
O28_2 C73_2 1_555 1_555
O29_2 C78_2 1_555 1_555
H52_2 C62_2 1_555 1_555
C82_2 C83_2 1_555 1_555
C83_2 C84_2 1_555 1_555
C84_2 H53_2 1_555 1_555
C85_2 C84_2 1_555 1_555
H54_2 C85_2 1_555 1_555
C86_2 C85_2 1_555 1_555
H55_2 C86_2 1_555 1_555
C87_2 C86_2 1_555 1_555
C88_2 C83_2 1_555 1_555
H56_2 C88_2 1_555 1_555
C89_2 H57_2 1_555 1_555
C90_2 C81_2 1_555 1_555
O30_2 C82_2 1_555 1_555
O43 C82_2 1_555 1_555
O32_2 C87_2 1_555 1_555
C91_2 C92_2 1_555 1_555
C92_2 C93_2 1_555 1_555
C93_2 H58_2 1_555 1_555
C94_2 C93_2 1_555 1_555
H59_2 C94_2 1_555 1_555
C95_2 C94_2 1_555 1_555
H60_2 C95_2 1_555 1_555
C96_2 C95_2 1_555 1_555
C97_2 C92_2 1_555 1_555
H61_2 C97_2 1_555 1_555
C98_2 H62_2 1_555 1_555
C99_2 C72_2 1_555 1_555
O33_2 C91_2 1_555 1_555
O44_2 C91_2 1_555 1_555
O35_2 C96_2 1_555 1_555
H63_2 C80_2 1_555 1_555
H64_2 C71_2 1_555 1_555
H65_2 C98_2 1_555 1_555
H66_2 C89_2 1_555 1_555
C100_2 C101_2 1_555 1_555
C101_2 C102_2 1_555 1_555
C102_2 H67_2 1_555 1_555
C103_2 C102_2 1_555 1_555
H68_2 C103_2 1_555 1_555
C104_2 C103_2 1_555 1_555
H69_2 C104_2 1_555 1_555
C105_2 C104_2 1_555 1_555
C106_2 C101_2 1_555 1_555
H70_2 C106_2 1_555 1_555
C107_2 H71_2 1_555 1_555
C108_2 C90_2 1_555 1_555
O36_2 C100_2 1_555 1_555
O37_2 C100_2 1_555 1_555
O38_2 C105_2 1_555 1_555
H72_2 C107_2 1_555 1_555
Ni7_2 O37_2 1_555 1_555
Ni8 O28_2 1_555 1_555
Ni11 O25_2 1_555 1_555
C55_2 O22_2 1_555 1_555
C60_2 C61_2 1_555 1_555
C62_2 O23_2 1_555 1_555
C69_2 C70_2 1_555 1_555
C71_2 C72_2 1_555 1_555
C71_2 O26_2 1_555 1_555
C78_2 C79_2 1_555 1_555
C80_2 C81_2 1_555 1_555
C80_2 O29_2 1_555 1_555
C87_2 C88_2 1_555 1_555
C89_2 C90_2 1_555 1_555
C89_2 O32_2 1_555 1_555
C96_2 C97_2 1_555 1_555
C98_2 C99_2 1_555 1_555
C98_2 O35_2 1_555 1_555
C99_2 C108_2 1_555 1_555
C105_2 C106_2 1_555 1_555
C107_2 C108_2 1_555 1_555
C107_2 O38_2 1_555 1_555
O4_8 Ni1_8 1_555 1_555
O5_8 Ni1_8 1_555 1_555
O46_2 Ni1_8 1_555 1_555
C55_3 C56_3 1_555 1_555
C56_3 C57_3 1_555 1_555
C57_3 H37_3 1_555 1_555
C58_3 C57_3 1_555 1_555
H38_3 C58_3 1_555 1_555
C59_3 C58_3 1_555 1_555
H39_3 C59_3 1_555 1_555
C60_3 C59_3 1_555 1_555
C61_3 C56_3 1_555 1_555
H40_3 C61_3 1_555 1_555
C62_3 H41_3 1_555 1_555
C63_3 C62_3 1_555 1_555
O21_3 C55_3 1_555 1_555
O23_3 C60_3 1_555 1_555
C64_3 C65_3 1_555 1_555
C65_3 C66_3 1_555 1_555
C66_3 H42_3 1_555 1_555
C67_3 C66_3 1_555 1_555
H43_3 C67_3 1_555 1_555
C68_3 C67_3 1_555 1_555
H44_3 C68_3 1_555 1_555
C69_3 C68_3 1_555 1_555
C70_3 C65_3 1_555 1_555
H45_3 C70_3 1_555 1_555
C71_3 H46_3 1_555 1_555
C72_3 C63_3 1_555 1_555
O24_3 C64_3 1_555 1_555
O25_3 C64_3 1_555 1_555
O26_3 C69_3 1_555 1_555
C73_3 C74_3 1_555 1_555
C74_3 C75_3 1_555 1_555
C75_3 H47_3 1_555 1_555
C76_3 C75_3 1_555 1_555
H48_3 C76_3 1_555 1_555
C77_3 C76_3 1_555 1_555
H49_3 C77_3 1_555 1_555
C78_3 C77_3 1_555 1_555
C79_3 C74_3 1_555 1_555
H50_3 C79_3 1_555 1_555
C80_3 H51_3 1_555 1_555
C81_3 C63_3 1_555 1_555
O27_3 C73_3 1_555 1_555
O28_3 C73_3 1_555 1_555
O29_3 C78_3 1_555 1_555
H52_3 C62_3 1_555 1_555
C82_3 C83_3 1_555 1_555
C83_3 C84_3 1_555 1_555
C84_3 H53_3 1_555 1_555
C85_3 C84_3 1_555 1_555
H54_3 C85_3 1_555 1_555
C86_3 C85_3 1_555 1_555
H55_3 C86_3 1_555 1_555
C87_3 C86_3 1_555 1_555
C88_3 C83_3 1_555 1_555
H56_3 C88_3 1_555 1_555
C89_3 H57_3 1_555 1_555
C90_3 C81_3 1_555 1_555
O30_3 C82_3 1_555 1_555
O48 C82_3 1_555 1_555
O32_3 C87_3 1_555 1_555
C91_3 C92_3 1_555 1_555
C92_3 C93_3 1_555 1_555
C93_3 H58_3 1_555 1_555
C94_3 C93_3 1_555 1_555
H59_3 C94_3 1_555 1_555
C95_3 C94_3 1_555 1_555
H60_3 C95_3 1_555 1_555
C96_3 C95_3 1_555 1_555
C97_3 C92_3 1_555 1_555
H61_3 C97_3 1_555 1_555
C98_3 H62_3 1_555 1_555
C99_3 C72_3 1_555 1_555
O33_3 C91_3 1_555 1_555
O47 C91_3 1_555 1_555
O35_3 C96_3 1_555 1_555
H63_3 C80_3 1_555 1_555
H64_3 C71_3 1_555 1_555
H65_3 C98_3 1_555 1_555
H66_3 C89_3 1_555 1_555
C100_3 C101_3 1_555 1_555
C101_3 C102_3 1_555 1_555
C102_3 H67_3 1_555 1_555
C103_3 C102_3 1_555 1_555
H68_3 C103_3 1_555 1_555
C104_3 C103_3 1_555 1_555
H69_3 C104_3 1_555 1_555
C105_3 C104_3 1_555 1_555
C106_3 C101_3 1_555 1_555
H70_3 C106_3 1_555 1_555
C107_3 H71_3 1_555 1_555
C108_3 C90_3 1_555 1_555
O36_3 C100_3 1_555 1_555
O37_3 C100_3 1_555 1_555
O38_3 C105_3 1_555 1_555
H72_3 C107_3 1_555 1_555
Ni7_2 O37_3 1_555 1_555
Ni11 O28_3 1_555 1_555
Ni10 O25_3 1_555 1_555
C55_3 O45_2 1_555 1_555
C60_3 C61_3 1_555 1_555
C62_3 O23_3 1_555 1_555
C69_3 C70_3 1_555 1_555
C71_3 C72_3 1_555 1_555
C71_3 O26_3 1_555 1_555
C78_3 C79_3 1_555 1_555
C80_3 C81_3 1_555 1_555
C80_3 O29_3 1_555 1_555
C87_3 C88_3 1_555 1_555
C89_3 C90_3 1_555 1_555
C89_3 O32_3 1_555 1_555
C96_3 C97_3 1_555 1_555
C98_3 C99_3 1_555 1_555
C98_3 O35_3 1_555 1_555
C99_3 C108_3 1_555 1_555
C105_3 C106_3 1_555 1_555
C107_3 C108_3 1_555 1_555
C107_3 O38_3 1_555 1_555
C1_3 C2_3 1_555 1_555
C2_3 C3_3 1_555 1_555
C3_3 H1_3 1_555 1_555
C4_3 C3_3 1_555 1_555
H2_3 C4_3 1_555 1_555
C5_3 C4_3 1_555 1_555
H3_3 C5_3 1_555 1_555
C6_3 C5_3 1_555 1_555
C7_3 C2_3 1_555 1_555
H4_3 C7_3 1_555 1_555
C8_3 H5_3 1_555 1_555
C9_3 C8_3 1_555 1_555
O1_3 C1_3 1_555 1_555
O46_2 C1_3 1_555 1_555
O3_3 C6_3 1_555 1_555
C10_3 C11_3 1_555 1_555
C11_3 C12_3 1_555 1_555
C12_3 H6_3 1_555 1_555
C13_3 C12_3 1_555 1_555
H7_3 C13_3 1_555 1_555
C14_3 C13_3 1_555 1_555
H8_3 C14_3 1_555 1_555
C15_3 C14_3 1_555 1_555
C16_3 C11_3 1_555 1_555
H9_3 C16_3 1_555 1_555
C17_3 H10_3 1_555 1_555
C18_3 C9_3 1_555 1_555
O6_3 C10_3 1_555 1_555
O7_3 C10_3 1_555 1_555
O8_3 C15_3 1_555 1_555
C19_3 C20_3 1_555 1_555
C20_3 C21_3 1_555 1_555
C21_3 H11_3 1_555 1_555
C22_3 C21_3 1_555 1_555
H12_3 C22_3 1_555 1_555
C23_3 C22_3 1_555 1_555
H13_3 C23_3 1_555 1_555
C24_3 C23_3 1_555 1_555
C25_3 C20_3 1_555 1_555
H14_3 C25_3 1_555 1_555
C26_3 H15_3 1_555 1_555
C27_3 C9_3 1_555 1_555
O9_3 C19_3 1_555 1_555
O10_3 C19_3 1_555 1_555
O11_3 C24_3 1_555 1_555
H16_3 C8_3 1_555 1_555
C28_3 C29_3 1_555 1_555
C29_3 C30_3 1_555 1_555
C30_3 H17_3 1_555 1_555
C31_3 C30_3 1_555 1_555
H18_3 C31_3 1_555 1_555
C32_3 C31_3 1_555 1_555
H19_3 C32_3 1_555 1_555
C33_3 C32_3 1_555 1_555
C34_3 C29_3 1_555 1_555
H20_3 C34_3 1_555 1_555
C35_3 H21_3 1_555 1_555
C36_3 C27_3 1_555 1_555
O12_3 C28_3 1_555 1_555
O48_2 C28_3 1_555 1_555
O14_3 C33_3 1_555 1_555
C37_3 C38_3 1_555 1_555
C38_3 C39_3 1_555 1_555
C39_3 H22_3 1_555 1_555
C40_3 C39_3 1_555 1_555
H23_3 C40_3 1_555 1_555
C41_3 C40_3 1_555 1_555
H24_3 C41_3 1_555 1_555
C42_3 C41_3 1_555 1_555
C43_3 C38_3 1_555 1_555
H25_3 C43_3 1_555 1_555
C44_3 H26_3 1_555 1_555
C45_3 C18_3 1_555 1_555
O15_3 C37_3 1_555 1_555
O47_2 C37_3 1_555 1_555
O17_3 C42_3 1_555 1_555
H27_3 C26_3 1_555 1_555
H28_3 C17_3 1_555 1_555
H29_3 C44_3 1_555 1_555
H30_3 C35_3 1_555 1_555
C46_3 C47_3 1_555 1_555
C47_3 C48_3 1_555 1_555
C48_3 H31_3 1_555 1_555
C49_3 C48_3 1_555 1_555
H32_3 C49_3 1_555 1_555
C50_3 C49_3 1_555 1_555
H33_3 C50_3 1_555 1_555
C51_3 C50_3 1_555 1_555
C52_3 C47_3 1_555 1_555
H34_3 C52_3 1_555 1_555
C53_3 H35_3 1_555 1_555
C54_3 C36_3 1_555 1_555
O18_3 C46_3 1_555 1_555
O19_3 C46_3 1_555 1_555
O20_3 C51_3 1_555 1_555
H36_3 C53_3 1_555 1_555
Ni7_2 O19_3 1_555 1_555
Ni9 O10_3 1_555 1_555
Ni8 O7_3 1_555 1_555
C6_3 C7_3 1_555 1_555
C8_3 O3_3 1_555 1_555
C15_3 C16_3 1_555 1_555
C17_3 C18_3 1_555 1_555
C17_3 O8_3 1_555 1_555
C24_3 C25_3 1_555 1_555
C26_3 C27_3 1_555 1_555
C26_3 O11_3 1_555 1_555
C33_3 C34_3 1_555 1_555
C35_3 C36_3 1_555 1_555
C35_3 O14_3 1_555 1_555
C42_3 C43_3 1_555 1_555
C44_3 C45_3 1_555 1_555
C44_3 O17_3 1_555 1_555
C45_3 C54_3 1_555 1_555
C51_3 C52_3 1_555 1_555
C53_3 C54_3 1_555 1_555
C53_3 O20_3 1_555 1_555
C1_4 C2_4 1_555 1_555
C2_4 C3_4 1_555 1_555
C3_4 H1_4 1_555 1_555
C4_4 C3_4 1_555 1_555
H2_4 C4_4 1_555 1_555
C5_4 C4_4 1_555 1_555
H3_4 C5_4 1_555 1_555
C6_4 C5_4 1_555 1_555
C7_4 C2_4 1_555 1_555
H4_4 C7_4 1_555 1_555
C8_4 H5_4 1_555 1_555
C9_4 C8_4 1_555 1_555
O1_4 C1_4 1_555 1_555
O45 C1_4 1_555 1_555
O3_4 C6_4 1_555 1_555
C10_4 C11_4 1_555 1_555
C11_4 C12_4 1_555 1_555
C12_4 H6_4 1_555 1_555
C13_4 C12_4 1_555 1_555
H7_4 C13_4 1_555 1_555
C14_4 C13_4 1_555 1_555
H8_4 C14_4 1_555 1_555
C15_4 C14_4 1_555 1_555
C16_4 C11_4 1_555 1_555
H9_4 C16_4 1_555 1_555
C17_4 H10_4 1_555 1_555
C18_4 C9_4 1_555 1_555
O6_4 C10_4 1_555 1_555
O7_4 C10_4 1_555 1_555
O8_4 C15_4 1_555 1_555
C19_4 C20_4 1_555 1_555
C20_4 C21_4 1_555 1_555
C21_4 H11_4 1_555 1_555
C22_4 C21_4 1_555 1_555
H12_4 C22_4 1_555 1_555
C23_4 C22_4 1_555 1_555
H13_4 C23_4 1_555 1_555
C24_4 C23_4 1_555 1_555
C25_4 C20_4 1_555 1_555
H14_4 C25_4 1_555 1_555
C26_4 H15_4 1_555 1_555
C27_4 C9_4 1_555 1_555
O9_4 C19_4 1_555 1_555
O10_4 C19_4 1_555 1_555
O11_4 C24_4 1_555 1_555
H16_4 C8_4 1_555 1_555
C28_4 C29_4 1_555 1_555
C29_4 C30_4 1_555 1_555
C30_4 H17_4 1_555 1_555
C31_4 C30_4 1_555 1_555
H18_4 C31_4 1_555 1_555
C32_4 C31_4 1_555 1_555
H19_4 C32_4 1_555 1_555
C33_4 C32_4 1_555 1_555
C34_4 C29_4 1_555 1_555
H20_4 C34_4 1_555 1_555
C35_4 H21_4 1_555 1_555
C36_4 C27_4 1_555 1_555
O12_4 C28_4 1_555 1_555
O50 C28_4 1_555 1_555
O14_4 C33_4 1_555 1_555
C37_4 C38_4 1_555 1_555
C38_4 C39_4 1_555 1_555
C39_4 H22_4 1_555 1_555
C40_4 C39_4 1_555 1_555
H23_4 C40_4 1_555 1_555
C41_4 C40_4 1_555 1_555
H24_4 C41_4 1_555 1_555
C42_4 C41_4 1_555 1_555
C43_4 C38_4 1_555 1_555
H25_4 C43_4 1_555 1_555
C44_4 H26_4 1_555 1_555
C45_4 C18_4 1_555 1_555
O15_4 C37_4 1_555 1_555
O49_2 C37_4 1_555 1_555
O17_4 C42_4 1_555 1_555
H27_4 C26_4 1_555 1_555
H28_4 C17_4 1_555 1_555
H29_4 C44_4 1_555 1_555
H30_4 C35_4 1_555 1_555
C46_4 C47_4 1_555 1_555
C47_4 C48_4 1_555 1_555
C48_4 H31_4 1_555 1_555
C49_4 C48_4 1_555 1_555
H32_4 C49_4 1_555 1_555
C50_4 C49_4 1_555 1_555
H33_4 C50_4 1_555 1_555
C51_4 C50_4 1_555 1_555
C52_4 C47_4 1_555 1_555
H34_4 C52_4 1_555 1_555
C53_4 H35_4 1_555 1_555
C54_4 C36_4 1_555 1_555
O18_4 C46_4 1_555 1_555
O19_4 C46_4 1_555 1_555
O20_4 C51_4 1_555 1_555
H36_4 C53_4 1_555 1_555
Ni7 O19_4 1_555 1_555
Ni9 O10_4 1_555 1_555
Ni10 O7_4 1_555 1_555
C6_4 C7_4 1_555 1_555
C8_4 O3_4 1_555 1_555
C15_4 C16_4 1_555 1_555
C17_4 C18_4 1_555 1_555
C17_4 O8_4 1_555 1_555
C24_4 C25_4 1_555 1_555
C26_4 C27_4 1_555 1_555
C26_4 O11_4 1_555 1_555
C33_4 C34_4 1_555 1_555
C35_4 C36_4 1_555 1_555
C35_4 O14_4 1_555 1_555
C42_4 C43_4 1_555 1_555
C44_4 C45_4 1_555 1_555
C44_4 O17_4 1_555 1_555
C45_4 C54_4 1_555 1_555
C51_4 C52_4 1_555 1_555
C53_4 C54_4 1_555 1_555
C53_4 O20_4 1_555 1_555
C55_4 C56_4 1_555 1_555
C56_4 C57_4 1_555 1_555
C57_4 H37_4 1_555 1_555
C58_4 C57_4 1_555 1_555
H38_4 C58_4 1_555 1_555
C59_4 C58_4 1_555 1_555
H39_4 C59_4 1_555 1_555
C60_4 C59_4 1_555 1_555
C61_4 C56_4 1_555 1_555
H40_4 C61_4 1_555 1_555
C62_4 H41_4 1_555 1_555
C63_4 C62_4 1_555 1_555
O21_4 C55_4 1_555 1_555
O23_4 C60_4 1_555 1_555
C64_4 C65_4 1_555 1_555
C65_4 C66_4 1_555 1_555
C66_4 H42_4 1_555 1_555
C67_4 C66_4 1_555 1_555
H43_4 C67_4 1_555 1_555
C68_4 C67_4 1_555 1_555
H44_4 C68_4 1_555 1_555
C69_4 C68_4 1_555 1_555
C70_4 C65_4 1_555 1_555
H45_4 C70_4 1_555 1_555
C71_4 H46_4 1_555 1_555
C72_4 C63_4 1_555 1_555
O24_4 C64_4 1_555 1_555
O25_4 C64_4 1_555 1_555
O26_4 C69_4 1_555 1_555
C73_4 C74_4 1_555 1_555
C74_4 C75_4 1_555 1_555
C75_4 H47_4 1_555 1_555
C76_4 C75_4 1_555 1_555
H48_4 C76_4 1_555 1_555
C77_4 C76_4 1_555 1_555
H49_4 C77_4 1_555 1_555
C78_4 C77_4 1_555 1_555
C79_4 C74_4 1_555 1_555
H50_4 C79_4 1_555 1_555
C80_4 H51_4 1_555 1_555
C81_4 C63_4 1_555 1_555
O27_4 C73_4 1_555 1_555
O28_4 C73_4 1_555 1_555
O29_4 C78_4 1_555 1_555
H52_4 C62_4 1_555 1_555
C82_4 C83_4 1_555 1_555
C83_4 C84_4 1_555 1_555
C84_4 H53_4 1_555 1_555
C85_4 C84_4 1_555 1_555
H54_4 C85_4 1_555 1_555
C86_4 C85_4 1_555 1_555
H55_4 C86_4 1_555 1_555
C87_4 C86_4 1_555 1_555
C88_4 C83_4 1_555 1_555
H56_4 C88_4 1_555 1_555
C89_4 H57_4 1_555 1_555
C90_4 C81_4 1_555 1_555
O30_4 C82_4 1_555 1_555
O50_2 C82_4 1_555 1_555
O32_4 C87_4 1_555 1_555
C91_4 C92_4 1_555 1_555
C92_4 C93_4 1_555 1_555
C93_4 H58_4 1_555 1_555
C94_4 C93_4 1_555 1_555
H59_4 C94_4 1_555 1_555
C95_4 C94_4 1_555 1_555
H60_4 C95_4 1_555 1_555
C96_4 C95_4 1_555 1_555
C97_4 C92_4 1_555 1_555
H61_4 C97_4 1_555 1_555
C98_4 H62_4 1_555 1_555
C99_4 C72_4 1_555 1_555
O33_4 C91_4 1_555 1_555
O49 C91_4 1_555 1_555
O35_4 C96_4 1_555 1_555
H63_4 C80_4 1_555 1_555
H64_4 C71_4 1_555 1_555
H65_4 C98_4 1_555 1_555
H66_4 C89_4 1_555 1_555
C100_4 C101_4 1_555 1_555
C101_4 C102_4 1_555 1_555
C102_4 H67_4 1_555 1_555
C103_4 C102_4 1_555 1_555
H68_4 C103_4 1_555 1_555
C104_4 C103_4 1_555 1_555
H69_4 C104_4 1_555 1_555
C105_4 C104_4 1_555 1_555
C106_4 C101_4 1_555 1_555
H70_4 C106_4 1_555 1_555
C107_4 H71_4 1_555 1_555
C108_4 C90_4 1_555 1_555
O36_4 C100_4 1_555 1_555
O37_4 C100_4 1_555 1_555
O38_4 C105_4 1_555 1_555
H72_4 C107_4 1_555 1_555
Ni7 O37_4 1_555 1_555
Ni11 O28_4 1_555 1_555
Ni8 O25_4 1_555 1_555
C55_4 O46 1_555 1_555
C60_4 C61_4 1_555 1_555
C62_4 O23_4 1_555 1_555
C69_4 C70_4 1_555 1_555
C71_4 C72_4 1_555 1_555
C71_4 O26_4 1_555 1_555
C78_4 C79_4 1_555 1_555
C80_4 C81_4 1_555 1_555
C80_4 O29_4 1_555 1_555
C87_4 C88_4 1_555 1_555
C89_4 C90_4 1_555 1_555
C89_4 O32_4 1_555 1_555
C96_4 C97_4 1_555 1_555
C98_4 C99_4 1_555 1_555
C98_4 O35_4 1_555 1_555
C99_4 C108_4 1_555 1_555
C105_4 C106_4 1_555 1_555
C107_4 C108_4 1_555 1_555
C107_4 O38_4 1_555 1_555
O4_9 Ni7_2 1_555 1_555
O5_9 Ni7_2 1_555 1_555
O39_9 Ni8 1_555 1_555
O40_9 Ni8 1_555 1_555
O41_9 Ni9 1_555 1_555
O42_9 Ni9 1_555 1_555
O39_10 Ni10 1_555 1_555
O40_10 Ni10 1_555 1_555
O41_10 Ni11 1_555 1_555
O42_10 Ni11 1_555 1_555
O4_10 Ni7 1_555 1_555
O5_10 Ni7 1_555 1_555

#END
