
###############################################################################
#
# This file contains modified crystal structure data generated from the
# MOF subset of the Cambridge Structural Database (CSD) v543 
# hosted by the Cambridge Crystallographic Data Centre (CCDC).
#
# This work is licensed under the Creative Commons
# Attribution-NonCommercial-ShareAlike 4.0 International License.
# To view a copy of this license, visit
# http://creativecommons.org/licenses/by-nc-sa/4.0/
# or send a letter to
# Creative Commons, PO Box 1866, Mountain View, CA 94042, USA.
#
# CIF created using the CSD Python API on 29 September 2022
# The structure has been converted into the P1 space group
# The structure has a 3D framework
# The original CSD entry ADUWIH is in the cubic crystal system
# The framework has been calculated to contain at least 10.0% void space
# The void calculation uses a probe of radius 1.32A, grid spacing 0.4
# H atom positions have been added when not included in the experimental data
# Generated hydrogen atom positions removed from atoms on special positions
#
###############################################################################

data_ADUWIH
_chemical_formula_moiety         '(C216 H168 O70 Zn14)n'
_symmetry_cell_setting           triclinic
_symmetry_space_group_name_H-M   'P 1'
_symmetry_Int_Tables_number      1
_space_group_name_Hall           'P 1'
loop_
_symmetry_equiv_pos_site_id
_symmetry_equiv_pos_as_xyz
1 x,y,z
_cell_length_a                   22.0720(5)
_cell_length_b                   22.0720(5)
_cell_length_c                   22.0720(5)
_cell_angle_alpha                90
_cell_angle_beta                 90
_cell_angle_gamma                90
_cell_volume                     10752.9
loop_
_atom_site_label
_atom_site_type_symbol
_atom_site_fract_x
_atom_site_fract_y
_atom_site_fract_z
Zn10 Zn -0.0000 0.5000 0.5000
Zn8 Zn 0.5000 -0.0000 0.5000
Zn12 Zn 0.5000 0.5000 -0.0000
Zn1 Zn 0.407458(16) 0.092542(16) 0.407458(16)
C1 C 0.48827(15) 0.18489(14) 0.55102(17)
C2 C 0.48348(14) 0.24335(13) 0.53291(15)
H1 H 0.4644 0.2525 0.4965
C3 C 0.50717(17) 0.29004(15) 0.56889(17)
C4 C 0.5370(3) 0.2759(2) 0.6217(2)
H2 H 0.5539 0.3062 0.6455
C5 C 0.5414(3) 0.2158(2) 0.6388(3)
H3 H 0.5619 0.2061 0.6744
C6 C 0.5168(3) 0.17049(19) 0.6053(2)
H4 H 0.5190 0.1305 0.6185
C7 C 0.46338(14) 0.13546(14) 0.51154(16)
C8 C 0.52674(16) 0.39672(13) 0.57679(15)
H5 H 0.5702 0.3908 0.5799
H6 H 0.5101 0.4018 0.6172
C9 C 0.51214(16) 0.45080(12) 0.53737(14)
O1 O 0.46542(10) 0.08245(9) 0.52945(10)
O2 O 0.44076(10) 0.15230(9) 0.46124(10)
O3 O 0.35474(11) 0.14526(11) 0.35474(11)
O4 O 0.49860(11) 0.34660(9) 0.54622(11)
C10 C 0.44898(17) 0.51173(15) 0.81511(14)
C11 C 0.46709(15) 0.51652(14) 0.75665(13)
H7 H 0.5035 0.5356 0.7475
C12 C 0.43111(17) 0.49283(17) 0.70996(15)
C13 C 0.3783(2) 0.4630(3) 0.7241(2)
H8 H 0.3545 0.4461 0.6938
C14 C 0.3612(3) 0.4586(3) 0.7842(2)
H9 H 0.3256 0.4381 0.7939
C15 C 0.3947(2) 0.4832(3) 0.82951(19)
H10 H 0.3815 0.4810 0.8695
C16 C 0.48846(16) 0.53662(14) 0.86454(14)
C17 C 0.42321(15) 0.47326(16) 0.60328(13)
H11 H 0.4201 0.4298 0.6092
H12 H 0.3828 0.4899 0.5982
C18 C 0.46263(14) 0.48786(16) 0.54920(12)
O5 O 0.47055(10) 0.53458(10) 0.91755(9)
O6 O 0.53876(10) 0.55924(10) 0.84770(9)
O7 O 0.45378(11) 0.50140(11) 0.65340(9)
C19 C 0.81511(14) 0.44898(17) 0.51173(15)
C20 C 0.75665(13) 0.46709(15) 0.51652(14)
H13 H 0.7475 0.5035 0.5356
C21 C 0.70996(15) 0.43111(17) 0.49283(17)
C22 C 0.7241(2) 0.3783(2) 0.4630(3)
H14 H 0.6938 0.3545 0.4461
C23 C 0.7842(2) 0.3612(3) 0.4586(3)
H15 H 0.7939 0.3256 0.4381
C24 C 0.82951(19) 0.3947(2) 0.4832(3)
H16 H 0.8695 0.3815 0.4810
C25 C 0.86454(14) 0.48846(16) 0.53662(14)
C26 C 0.60328(13) 0.42321(15) 0.47326(16)
H17 H 0.6092 0.4201 0.4298
H18 H 0.5982 0.3828 0.4899
C27 C 0.54920(12) 0.46263(14) 0.48786(16)
O8 O 0.91755(9) 0.47055(10) 0.53458(10)
O9 O 0.84770(9) 0.53876(10) 0.55924(10)
O10 O 0.65340(9) 0.45378(11) 0.50140(11)
C28 C 0.55102(17) 0.48827(15) 0.18489(14)
C29 C 0.53291(15) 0.48348(14) 0.24335(13)
H19 H 0.4965 0.4644 0.2525
C30 C 0.56889(17) 0.50717(17) 0.29004(15)
C31 C 0.6217(2) 0.5370(3) 0.2759(2)
H20 H 0.6455 0.5539 0.3062
C32 C 0.6388(3) 0.5414(3) 0.2158(2)
H21 H 0.6744 0.5619 0.2061
C33 C 0.6053(2) 0.5168(3) 0.17049(19)
H22 H 0.6185 0.5190 0.1305
C34 C 0.51154(16) 0.46338(14) 0.13546(14)
C35 C 0.57679(15) 0.52674(16) 0.39672(13)
H23 H 0.5799 0.5702 0.3908
H24 H 0.6172 0.5101 0.4018
C36 C 0.53737(14) 0.51214(16) 0.45080(12)
O11 O 0.52945(10) 0.46542(10) 0.08245(9)
O12 O 0.46124(10) 0.44076(10) 0.15230(9)
O13 O 0.54622(11) 0.49860(11) 0.34660(9)
C37 C 0.18489(14) 0.55102(17) 0.48827(15)
C38 C 0.24335(13) 0.53291(15) 0.48348(14)
H25 H 0.2525 0.4965 0.4644
C39 C 0.29004(15) 0.56889(17) 0.50717(17)
C40 C 0.2759(2) 0.6217(2) 0.5370(3)
H26 H 0.3062 0.6455 0.5539
C41 C 0.2158(2) 0.6388(3) 0.5414(3)
H27 H 0.2061 0.6744 0.5619
C42 C 0.17049(19) 0.6053(2) 0.5168(3)
H28 H 0.1305 0.6185 0.5190
C43 C 0.13546(14) 0.51154(16) 0.46338(14)
C44 C 0.39672(13) 0.57679(15) 0.52674(16)
H29 H 0.3908 0.5799 0.5702
H30 H 0.4018 0.6172 0.5101
C45 C 0.45080(12) 0.53737(14) 0.51214(16)
O14 O 0.08245(9) 0.52945(10) 0.46542(10)
O15 O 0.15230(9) 0.46124(10) 0.44076(10)
O16 O 0.34660(9) 0.54622(11) 0.49860(11)
C46 C 0.51173(15) 0.81511(14) 0.44898(17)
C47 C 0.51652(14) 0.75665(13) 0.46709(15)
H31 H 0.5356 0.7475 0.5035
C48 C 0.49283(17) 0.70996(15) 0.43111(17)
C49 C 0.4630(3) 0.7241(2) 0.3783(2)
H32 H 0.4461 0.6938 0.3545
C50 C 0.4586(3) 0.7842(2) 0.3612(3)
H33 H 0.4381 0.7939 0.3256
C51 C 0.4832(3) 0.82951(19) 0.3947(2)
H34 H 0.4810 0.8695 0.3815
C52 C 0.53662(14) 0.86454(14) 0.48846(16)
C53 C 0.47326(16) 0.60328(13) 0.42321(15)
H35 H 0.4298 0.6092 0.4201
H36 H 0.4899 0.5982 0.3828
C54 C 0.48786(16) 0.54920(12) 0.46263(14)
O17 O 0.53458(10) 0.91755(9) 0.47055(10)
O18 O 0.55924(10) 0.84770(9) 0.53876(10)
O19 O 0.50140(11) 0.65340(9) 0.45378(11)
Zn3 Zn 0.092542(16) 0.407458(16) 0.407458(16)
O20 O 0.14526(11) 0.35474(11) 0.35474(11)
Zn4 Zn 0.407458(16) 0.407458(16) 0.092542(16)
Zn5 Zn 0.592542(16) 0.907458(16) 0.592542(16)
Zn6 Zn 0.907458(16) 0.592542(16) 0.592542(16)
Zn7 Zn 0.592542(16) 0.592542(16) 0.907458(16)
Zn8_2 Zn 0.5000 1.0000 0.5000
Zn10_2 Zn 1.0000 0.5000 0.5000
Zn12_2 Zn 0.5000 0.5000 1.0000
O21 O 0.52945(10) 0.03458(10) 0.41755(9)
O25 O 0.58245(9) 0.02945(10) 0.53458(10)
O26 O 0.05924(10) 0.34770(9) 0.46124(10)
O27 O 0.46124(10) 0.05924(10) 0.34770(9)
O28 O 0.34770(9) 0.03876(10) 0.44076(10)
O29 O 0.03876(10) 0.44076(10) 0.34770(9)
O22 O 0.41755(9) 0.97055(10) 0.46542(10)
O24 O 0.47055(10) 0.96542(10) 0.58245(9)
Zn12_3 Zn 0.0000 0.0000 -0.0000
C1_2 C 0.01173(15) 0.31511(14) 0.55102(17)
C2_2 C 0.01652(14) 0.25665(13) 0.53291(15)
H1_2 H 0.0356 0.2475 0.4965
C7_2 C 0.03662(14) 0.36454(14) 0.51154(16)
O1_2 O 0.03458(10) 0.41755(9) 0.52945(10)
O4_2 O 0.00140(11) 0.15340(9) 0.54622(11)
C12_2 C 0.06889(17) 0.00717(17) 0.70996(15)
C13_2 C 0.1217(2) 0.0370(3) 0.7241(2)
H8_2 H 0.1455 0.0539 0.6938
C14_2 C 0.1388(3) 0.0414(3) 0.7842(2)
H9_2 H 0.1744 0.0619 0.7939
C15_2 C 0.1053(2) 0.0168(3) 0.82951(19)
H10_2 H 0.1185 0.0190 0.8695
C17_2 C 0.07679(15) 0.02674(16) 0.60328(13)
H11_2 H 0.0799 0.0702 0.6092
H12_2 H 0.1172 0.0101 0.5982
C18_2 C 0.03737(14) 0.01214(16) 0.54920(12)
H19_2 H 0.0035 0.0356 0.2525
O12_2 O 0.03876(10) 0.05924(10) 0.15230(9)
H25_2 H 0.2475 0.0035 0.4644
Zn4_2 Zn 0.092542(16) 0.092542(16) 0.092542(16)
Zn12_4 Zn 0.0000 0.0000 1.0000
O24_2 O 0.02945(10) 0.53458(10) 0.58245(9)
Zn12_5 Zn 0.0000 1.0000 -0.0000
C10_2 C 0.05102(17) 0.98827(15) 0.81511(14)
C11_2 C 0.03291(15) 0.98348(14) 0.75665(13)
C16_2 C 0.01154(16) 0.96338(14) 0.86454(14)
O5_2 O 0.02945(10) 0.96542(10) 0.91755(9)
O7_2 O 0.04622(11) 0.99860(11) 0.65340(9)
C37_2 C 0.31511(14) 0.94898(17) 0.48827(15)
C38_2 C 0.25665(13) 0.96709(15) 0.48348(14)
C39_2 C 0.20996(15) 0.93111(17) 0.50717(17)
C40_2 C 0.2241(2) 0.8783(2) 0.5370(3)
H26_2 H 0.1938 0.8545 0.5539
C41_2 C 0.2842(2) 0.8612(3) 0.5414(3)
H27_2 H 0.2939 0.8256 0.5619
C42_2 C 0.32951(19) 0.8947(2) 0.5168(3)
H28_2 H 0.3695 0.8815 0.5190
C43_2 C 0.36454(14) 0.98846(16) 0.46338(14)
C44_2 C 0.10328(13) 0.92321(15) 0.52674(16)
H29_2 H 0.1092 0.9201 0.5702
H30_2 H 0.0982 0.8828 0.5101
C45_2 C 0.04920(12) 0.96263(14) 0.51214(16)
O16_2 O 0.15340(9) 0.95378(11) 0.49860(11)
C48_2 C 0.00717(17) 0.79004(15) 0.43111(17)
C49_2 C 0.0370(3) 0.7759(2) 0.3783(2)
H32_2 H 0.0539 0.8062 0.3545
C50_2 C 0.0414(3) 0.7158(2) 0.3612(3)
H33_2 H 0.0619 0.7061 0.3256
C51_2 C 0.0168(3) 0.67049(19) 0.3947(2)
H34_2 H 0.0190 0.6305 0.3815
C53_2 C 0.02674(16) 0.89672(13) 0.42321(15)
H35_2 H 0.0702 0.8908 0.4201
H36_2 H 0.0101 0.9018 0.3828
C54_2 C 0.01214(16) 0.95080(12) 0.46263(14)
Zn12_6 Zn 0.0000 1.0000 1.0000
Zn12_7 Zn 1.0000 0.0000 -0.0000
C3_2 C 0.99283(17) 0.20996(15) 0.56889(17)
C4_2 C 0.9630(3) 0.2241(2) 0.6217(2)
H2_2 H 0.9461 0.1938 0.6455
C5_2 C 0.9586(3) 0.2842(2) 0.6388(3)
H3_2 H 0.9381 0.2939 0.6744
C6_2 C 0.9832(3) 0.32951(19) 0.6053(2)
H4_2 H 0.9810 0.3695 0.6185
C8_2 C 0.97326(16) 0.10328(13) 0.57679(15)
H5_2 H 0.9298 0.1092 0.5799
H6_2 H 0.9899 0.0982 0.6172
C9_2 C 0.98786(16) 0.04920(12) 0.53737(14)
C19_2 C 0.68489(14) 0.05102(17) 0.51173(15)
C20_2 C 0.74335(13) 0.03291(15) 0.51652(14)
C21_2 C 0.79004(15) 0.06889(17) 0.49283(17)
C22_2 C 0.7759(2) 0.1217(2) 0.4630(3)
H14_2 H 0.8062 0.1455 0.4461
C23_2 C 0.7158(2) 0.1388(3) 0.4586(3)
H15_2 H 0.7061 0.1744 0.4381
C24_2 C 0.67049(19) 0.1053(2) 0.4832(3)
H16_2 H 0.6305 0.1185 0.4810
C25_2 C 0.63546(14) 0.01154(16) 0.53662(14)
C26_2 C 0.89672(13) 0.07679(15) 0.47326(16)
H17_2 H 0.8908 0.0799 0.4298
H18_2 H 0.9018 0.1172 0.4899
C27_2 C 0.95080(12) 0.03737(14) 0.48786(16)
O10_2 O 0.84660(9) 0.04622(11) 0.50140(11)
C28_2 C 0.94898(17) 0.01173(15) 0.18489(14)
C29_2 C 0.96709(15) 0.01652(14) 0.24335(13)
C34_2 C 0.98846(16) 0.03662(14) 0.13546(14)
O11_2 O 0.97055(10) 0.03458(10) 0.08245(9)
O13_2 O 0.95378(11) 0.00140(11) 0.34660(9)
Zn12_8 Zn 1.0000 0.0000 1.0000
O21_2 O 0.97055(10) 0.46542(10) 0.41755(9)
O23 O 0.96542(10) 0.58245(9) 0.47055(10)
Zn12_9 Zn 1.0000 1.0000 -0.0000
H7_2 H 0.9965 0.9644 0.7475
O6_2 O 0.96124(10) 0.94076(10) 0.84770(9)
H13_2 H 0.7525 0.9965 0.5356
O9_2 O 0.65230(9) 0.96124(10) 0.55924(10)
C30_2 C 0.93111(17) 0.99283(17) 0.29004(15)
C31_2 C 0.8783(2) 0.9630(3) 0.2759(2)
H20_2 H 0.8545 0.9461 0.3062
C32_2 C 0.8612(3) 0.9586(3) 0.2158(2)
H21_2 H 0.8256 0.9381 0.2061
C33_2 C 0.8947(2) 0.9832(3) 0.17049(19)
H22_2 H 0.8815 0.9810 0.1305
C35_2 C 0.92321(15) 0.97326(16) 0.39672(13)
H23_2 H 0.9201 0.9298 0.3908
H24_2 H 0.8828 0.9899 0.4018
C36_2 C 0.96263(14) 0.98786(16) 0.45080(12)
C46_2 C 0.98827(15) 0.68489(14) 0.44898(17)
C47_2 C 0.98348(14) 0.74335(13) 0.46709(15)
H31_2 H 0.9644 0.7525 0.5035
C52_2 C 0.96338(14) 0.63546(14) 0.48846(16)
O18_2 O 0.94076(10) 0.65230(9) 0.53876(10)
O19_2 O 0.99860(11) 0.84660(9) 0.45378(11)
Zn7_2 Zn 0.907458(16) 0.907458(16) 0.907458(16)
Zn12_10 Zn 1.0000 1.0000 1.0000
H1_3 H 0.4644 0.2475 0.0035
O2_2 O 0.44076(10) 0.34770(9) 0.03876(10)
O3_2 O 0.35474(11) 0.35474(11) 0.14526(11)
C21_3 C 0.70996(15) 0.06889(17) 0.00717(17)
C22_3 C 0.7241(2) 0.1217(2) 0.0370(3)
H14_3 H 0.6938 0.1455 0.0539
C23_3 C 0.7842(2) 0.1388(3) 0.0414(3)
H15_3 H 0.7939 0.1744 0.0619
C24_3 C 0.82951(19) 0.1053(2) 0.0168(3)
H16_3 H 0.8695 0.1185 0.0190
C26_3 C 0.60328(13) 0.07679(15) 0.02674(16)
H17_3 H 0.6092 0.0799 0.0702
H18_3 H 0.5982 0.1172 0.0101
C27_3 C 0.54920(12) 0.03737(14) 0.01214(16)
C28_3 C 0.55102(17) 0.01173(15) 0.31511(14)
C29_3 C 0.53291(15) 0.01652(14) 0.25665(13)
H19_3 H 0.4965 0.0356 0.2475
C34_3 C 0.51154(16) 0.03662(14) 0.36454(14)
O13_3 O 0.54622(11) 0.00140(11) 0.15340(9)
H25_3 H 0.2525 0.0035 0.0356
O15_2 O 0.15230(9) 0.03876(10) 0.05924(10)
O20_2 O 0.14526(11) 0.14526(11) 0.14526(11)
O22_2 O 0.41755(9) 0.52945(10) 0.03458(10)
O23_2 O 0.53458(10) 0.58245(9) 0.02945(10)
O26_2 O 0.05924(10) 0.15230(9) 0.03876(10)
O28_2 O 0.34770(9) 0.46124(10) 0.05924(10)
C1_3 C 0.48827(15) 0.31511(14) 0.94898(17)
C2_3 C 0.48348(14) 0.25665(13) 0.96709(15)
C3_3 C 0.50717(17) 0.20996(15) 0.93111(17)
C4_3 C 0.5370(3) 0.2241(2) 0.8783(2)
H2_3 H 0.5539 0.1938 0.8545
C5_3 C 0.5414(3) 0.2842(2) 0.8612(3)
H3_3 H 0.5619 0.2939 0.8256
C6_3 C 0.5168(3) 0.32951(19) 0.8947(2)
H4_3 H 0.5190 0.3695 0.8815
C7_3 C 0.46338(14) 0.36454(14) 0.98846(16)
C8_3 C 0.52674(16) 0.10328(13) 0.92321(15)
H5_3 H 0.5702 0.1092 0.9201
H6_3 H 0.5101 0.0982 0.8828
C9_3 C 0.51214(16) 0.04920(12) 0.96263(14)
O1_3 O 0.46542(10) 0.41755(9) 0.97055(10)
O4_3 O 0.49860(11) 0.15340(9) 0.95378(11)
C12_3 C 0.43111(17) 0.00717(17) 0.79004(15)
C13_3 C 0.3783(2) 0.0370(3) 0.7759(2)
H8_3 H 0.3545 0.0539 0.8062
C14_3 C 0.3612(3) 0.0414(3) 0.7158(2)
H9_3 H 0.3256 0.0619 0.7061
C15_3 C 0.3947(2) 0.0168(3) 0.67049(19)
H10_3 H 0.3815 0.0190 0.6305
C17_3 C 0.42321(15) 0.02674(16) 0.89672(13)
H11_3 H 0.4201 0.0702 0.8908
H12_3 H 0.3828 0.0101 0.9018
C18_3 C 0.46263(14) 0.01214(16) 0.95080(12)
C19_3 C 0.81511(14) 0.05102(17) 0.98827(15)
C20_3 C 0.75665(13) 0.03291(15) 0.98348(14)
C25_3 C 0.86454(14) 0.01154(16) 0.96338(14)
O8_2 O 0.91755(9) 0.02945(10) 0.96542(10)
O10_3 O 0.65340(9) 0.04622(11) 0.99860(11)
O25_2 O 0.58245(9) 0.47055(10) 0.96542(10)
C30_3 C 0.56889(17) 0.99283(17) 0.20996(15)
C31_3 C 0.6217(2) 0.9630(3) 0.2241(2)
H20_3 H 0.6455 0.9461 0.1938
C32_3 C 0.6388(3) 0.9586(3) 0.2842(2)
H21_3 H 0.6744 0.9381 0.2939
C33_3 C 0.6053(2) 0.9832(3) 0.32951(19)
H22_3 H 0.6185 0.9810 0.3695
C35_3 C 0.57679(15) 0.97326(16) 0.10328(13)
H23_3 H 0.5799 0.9298 0.1092
H24_3 H 0.6172 0.9899 0.0982
C36_3 C 0.53737(14) 0.98786(16) 0.04920(12)
C37_3 C 0.18489(14) 0.94898(17) 0.01173(15)
C38_3 C 0.24335(13) 0.96709(15) 0.01652(14)
C43_3 C 0.13546(14) 0.98846(16) 0.03662(14)
O14_2 O 0.08245(9) 0.97055(10) 0.03458(10)
O16_3 O 0.34660(9) 0.95378(11) 0.00140(11)
C46_3 C 0.51173(15) 0.68489(14) 0.05102(17)
C47_3 C 0.51652(14) 0.74335(13) 0.03291(15)
C48_3 C 0.49283(17) 0.79004(15) 0.06889(17)
C49_3 C 0.4630(3) 0.7759(2) 0.1217(2)
H32_3 H 0.4461 0.8062 0.1455
C50_3 C 0.4586(3) 0.7158(2) 0.1388(3)
H33_3 H 0.4381 0.7061 0.1744
C51_3 C 0.4832(3) 0.67049(19) 0.1053(2)
H34_3 H 0.4810 0.6305 0.1185
C52_3 C 0.53662(14) 0.63546(14) 0.01154(16)
C53_3 C 0.47326(16) 0.89672(13) 0.07679(15)
H35_3 H 0.4298 0.8908 0.0799
H36_3 H 0.4899 0.9018 0.1172
C54_3 C 0.48786(16) 0.95080(12) 0.03737(14)
O19_3 O 0.50140(11) 0.84660(9) 0.04622(11)
C10_3 C 0.44898(17) 0.98827(15) 0.68489(14)
C11_3 C 0.46709(15) 0.98348(14) 0.74335(13)
H7_3 H 0.5035 0.9644 0.7525
C16_3 C 0.48846(16) 0.96338(14) 0.63546(14)
O6_3 O 0.53876(10) 0.94076(10) 0.65230(9)
O7_3 O 0.45378(11) 0.99860(11) 0.84660(9)
H13_3 H 0.7475 0.9965 0.9644
O9_3 O 0.84770(9) 0.96124(10) 0.94076(10)
C39_3 C 0.29004(15) 0.93111(17) 0.99283(17)
C40_3 C 0.2759(2) 0.8783(2) 0.9630(3)
H26_3 H 0.3062 0.8545 0.9461
C41_3 C 0.2158(2) 0.8612(3) 0.9586(3)
H27_3 H 0.2061 0.8256 0.9381
C42_3 C 0.17049(19) 0.8947(2) 0.9832(3)
H28_3 H 0.1305 0.8815 0.9810
C44_3 C 0.39672(13) 0.92321(15) 0.97326(16)
H29_3 H 0.3908 0.9201 0.9298
H30_3 H 0.4018 0.8828 0.9899
C45_3 C 0.45080(12) 0.96263(14) 0.98786(16)
H31_3 H 0.5356 0.7525 0.9965
O18_3 O 0.55924(10) 0.65230(9) 0.96124(10)
H1_4 H 0.0356 0.2525 0.0035
H19_4 H 0.0035 0.4644 0.2475
C37_4 C 0.31511(14) 0.55102(17) 0.01173(15)
C38_4 C 0.25665(13) 0.53291(15) 0.01652(14)
H25_4 H 0.2475 0.4965 0.0356
C43_4 C 0.36454(14) 0.51154(16) 0.03662(14)
O16_4 O 0.15340(9) 0.54622(11) 0.00140(11)
C48_4 C 0.00717(17) 0.70996(15) 0.06889(17)
C49_4 C 0.0370(3) 0.7241(2) 0.1217(2)
H32_4 H 0.0539 0.6938 0.1455
C50_4 C 0.0414(3) 0.7842(2) 0.1388(3)
H33_4 H 0.0619 0.7939 0.1744
C51_4 C 0.0168(3) 0.82951(19) 0.1053(2)
H34_4 H 0.0190 0.8695 0.1185
C53_4 C 0.02674(16) 0.60328(13) 0.07679(15)
H35_4 H 0.0702 0.6092 0.0799
H36_4 H 0.0101 0.5982 0.1172
C54_4 C 0.01214(16) 0.54920(12) 0.03737(14)
C1_4 C 0.01173(15) 0.18489(14) 0.94898(17)
C2_4 C 0.01652(14) 0.24335(13) 0.96709(15)
C7_4 C 0.03662(14) 0.13546(14) 0.98846(16)
O1_4 O 0.03458(10) 0.08245(9) 0.97055(10)
O4_4 O 0.00140(11) 0.34660(9) 0.95378(11)
C10_4 C 0.05102(17) 0.51173(15) 0.68489(14)
C11_4 C 0.03291(15) 0.51652(14) 0.74335(13)
C12_4 C 0.06889(17) 0.49283(17) 0.79004(15)
C13_4 C 0.1217(2) 0.4630(3) 0.7759(2)
H8_4 H 0.1455 0.4461 0.8062
C14_4 C 0.1388(3) 0.4586(3) 0.7158(2)
H9_4 H 0.1744 0.4381 0.7061
C15_4 C 0.1053(2) 0.4832(3) 0.67049(19)
H10_4 H 0.1185 0.4810 0.6305
C16_4 C 0.01154(16) 0.53662(14) 0.63546(14)
C17_4 C 0.07679(15) 0.47326(16) 0.89672(13)
H11_4 H 0.0799 0.4298 0.8908
H12_4 H 0.1172 0.4899 0.9018
C18_4 C 0.03737(14) 0.48786(16) 0.95080(12)
O7_4 O 0.04622(11) 0.50140(11) 0.84660(9)
C39_4 C 0.20996(15) 0.56889(17) 0.99283(17)
C40_4 C 0.2241(2) 0.6217(2) 0.9630(3)
H26_4 H 0.1938 0.6455 0.9461
C41_4 C 0.2842(2) 0.6388(3) 0.9586(3)
H27_4 H 0.2939 0.6744 0.9381
C42_4 C 0.32951(19) 0.6053(2) 0.9832(3)
H28_4 H 0.3695 0.6185 0.9810
C44_4 C 0.10328(13) 0.57679(15) 0.97326(16)
H29_4 H 0.1092 0.5799 0.9298
H30_4 H 0.0982 0.6172 0.9899
C45_4 C 0.04920(12) 0.53737(14) 0.98786(16)
C21_4 C 0.79004(15) 0.43111(17) 0.00717(17)
C22_4 C 0.7759(2) 0.3783(2) 0.0370(3)
H14_4 H 0.8062 0.3545 0.0539
C23_4 C 0.7158(2) 0.3612(3) 0.0414(3)
H15_4 H 0.7061 0.3256 0.0619
C24_4 C 0.67049(19) 0.3947(2) 0.0168(3)
H16_4 H 0.6305 0.3815 0.0190
C26_4 C 0.89672(13) 0.42321(15) 0.02674(16)
H17_4 H 0.8908 0.4201 0.0702
H18_4 H 0.9018 0.3828 0.0101
C27_4 C 0.95080(12) 0.46263(14) 0.01214(16)
C28_4 C 0.94898(17) 0.48827(15) 0.31511(14)
C29_4 C 0.96709(15) 0.48348(14) 0.25665(13)
C30_4 C 0.93111(17) 0.50717(17) 0.20996(15)
C31_4 C 0.8783(2) 0.5370(3) 0.2241(2)
H20_4 H 0.8545 0.5539 0.1938
C32_4 C 0.8612(3) 0.5414(3) 0.2842(2)
H21_4 H 0.8256 0.5619 0.2939
C33_4 C 0.8947(2) 0.5168(3) 0.32951(19)
H22_4 H 0.8815 0.5190 0.3695
C34_4 C 0.98846(16) 0.46338(14) 0.36454(14)
C35_4 C 0.92321(15) 0.52674(16) 0.10328(13)
H23_4 H 0.9201 0.5702 0.1092
H24_4 H 0.8828 0.5101 0.0982
C36_4 C 0.96263(14) 0.51214(16) 0.04920(12)
O13_4 O 0.95378(11) 0.49860(11) 0.15340(9)
C46_4 C 0.98827(15) 0.81511(14) 0.05102(17)
C47_4 C 0.98348(14) 0.75665(13) 0.03291(15)
C52_4 C 0.96338(14) 0.86454(14) 0.01154(16)
O17_2 O 0.96542(10) 0.91755(9) 0.02945(10)
O19_4 O 0.99860(11) 0.65340(9) 0.04622(11)
C3_4 C 0.99283(17) 0.29004(15) 0.93111(17)
C4_4 C 0.9630(3) 0.2759(2) 0.8783(2)
H2_4 H 0.9461 0.3062 0.8545
C5_4 C 0.9586(3) 0.2158(2) 0.8612(3)
H3_4 H 0.9381 0.2061 0.8256
C6_4 C 0.9832(3) 0.17049(19) 0.8947(2)
H4_4 H 0.9810 0.1305 0.8815
C8_4 C 0.97326(16) 0.39672(13) 0.92321(15)
H5_4 H 0.9298 0.3908 0.9201
H6_4 H 0.9899 0.4018 0.8828
C9_4 C 0.98786(16) 0.45080(12) 0.96263(14)
H7_4 H 0.9965 0.5356 0.7525
O6_4 O 0.96124(10) 0.55924(10) 0.65230(9)
C19_4 C 0.68489(14) 0.44898(17) 0.98827(15)
C20_4 C 0.74335(13) 0.46709(15) 0.98348(14)
H13_4 H 0.7525 0.5035 0.9644
C25_4 C 0.63546(14) 0.48846(16) 0.96338(14)
O9_4 O 0.65230(9) 0.53876(10) 0.94076(10)
O10_4 O 0.84660(9) 0.45378(11) 0.99860(11)
H31_4 H 0.9644 0.7475 0.9965
O18_4 O 0.94076(10) 0.84770(9) 0.96124(10)
O3_3 O 0.64526(11) 0.85474(11) 0.64526(11)
O20_3 O 0.85474(11) 0.64526(11) 0.64526(11)
O3_4 O 0.64526(11) 0.64526(11) 0.85474(11)
O20_4 O 0.85474(11) 0.85474(11) 0.85474(11)
loop_
_geom_bond_atom_site_label_1
_geom_bond_atom_site_label_2
_geom_bond_site_symmetry_1
_geom_bond_site_symmetry_2
Zn1 O2 1_555 1_555
Zn8 O1 1_555 1_555
C1 C2 1_555 1_555
C2 H1 1_555 1_555
C3 C2 1_555 1_555
C4 C3 1_555 1_555
H2 C4 1_555 1_555
C5 C4 1_555 1_555
H3 C5 1_555 1_555
C6 C1 1_555 1_555
H4 C6 1_555 1_555
C7 C1 1_555 1_555
C8 H5 1_555 1_555
H6 C8 1_555 1_555
C9 C8 1_555 1_555
O1 C7 1_555 1_555
O2 C7 1_555 1_555
O3 Zn1 1_555 1_555
O4 C3 1_555 1_555
C10 C11 1_555 1_555
C11 H7 1_555 1_555
C12 C11 1_555 1_555
C13 C12 1_555 1_555
H8 C13 1_555 1_555
C14 C13 1_555 1_555
H9 C14 1_555 1_555
C15 C10 1_555 1_555
H10 C15 1_555 1_555
C16 C10 1_555 1_555
C17 H11 1_555 1_555
H12 C17 1_555 1_555
C18 C9 1_555 1_555
O5 C16 1_555 1_555
O6 C16 1_555 1_555
O7 C12 1_555 1_555
C19 C20 1_555 1_555
C20 H13 1_555 1_555
C21 C20 1_555 1_555
C22 C21 1_555 1_555
H14 C22 1_555 1_555
C23 C22 1_555 1_555
H15 C23 1_555 1_555
C24 C19 1_555 1_555
H16 C24 1_555 1_555
C25 C19 1_555 1_555
C26 H17 1_555 1_555
H18 C26 1_555 1_555
C27 C9 1_555 1_555
O8 C25 1_555 1_555
O9 C25 1_555 1_555
O10 C21 1_555 1_555
C28 C29 1_555 1_555
C29 H19 1_555 1_555
C30 C29 1_555 1_555
C31 C30 1_555 1_555
H20 C31 1_555 1_555
C32 C31 1_555 1_555
H21 C32 1_555 1_555
C33 C28 1_555 1_555
H22 C33 1_555 1_555
C34 C28 1_555 1_555
C35 H23 1_555 1_555
H24 C35 1_555 1_555
C36 C27 1_555 1_555
O11 C34 1_555 1_555
O12 C34 1_555 1_555
O13 C30 1_555 1_555
C37 C38 1_555 1_555
C38 H25 1_555 1_555
C39 C38 1_555 1_555
C40 C39 1_555 1_555
H26 C40 1_555 1_555
C41 C40 1_555 1_555
H27 C41 1_555 1_555
C42 C37 1_555 1_555
H28 C42 1_555 1_555
C43 C37 1_555 1_555
C44 H29 1_555 1_555
H30 C44 1_555 1_555
C45 C18 1_555 1_555
O14 C43 1_555 1_555
O15 C43 1_555 1_555
O16 C39 1_555 1_555
C46 C47 1_555 1_555
C47 H31 1_555 1_555
C48 C47 1_555 1_555
C49 C48 1_555 1_555
H32 C49 1_555 1_555
C50 C49 1_555 1_555
H33 C50 1_555 1_555
C51 C46 1_555 1_555
H34 C51 1_555 1_555
C52 C46 1_555 1_555
C53 H35 1_555 1_555
H36 C53 1_555 1_555
C54 C36 1_555 1_555
O17 C52 1_555 1_555
O18 C52 1_555 1_555
O19 C48 1_555 1_555
Zn3 O15 1_555 1_555
O20 Zn3 1_555 1_555
Zn4 O12 1_555 1_555
Zn5 O18 1_555 1_555
Zn6 O9 1_555 1_555
Zn7 O6 1_555 1_555
Zn8_2 O17 1_555 1_555
Zn10 O14 1_555 1_555
Zn10_2 O8 1_555 1_555
Zn12 O11 1_555 1_555
Zn12_2 O5 1_555 1_555
O21 Zn8 1_555 1_555
O25 Zn8 1_555 1_555
O26 Zn3 1_555 1_555
O27 Zn1 1_555 1_555
O28 Zn1 1_555 1_555
O29 Zn3 1_555 1_555
C5 C6 1_555 1_555
C8 O4 1_555 1_555
C14 C15 1_555 1_555
C17 C18 1_555 1_555
C17 O7 1_555 1_555
C23 C24 1_555 1_555
C26 C27 1_555 1_555
C26 O10 1_555 1_555
C32 C33 1_555 1_555
C35 C36 1_555 1_555
C35 O13 1_555 1_555
C41 C42 1_555 1_555
C44 C45 1_555 1_555
C44 O16 1_555 1_555
C45 C54 1_555 1_555
C50 C51 1_555 1_555
C53 C54 1_555 1_555
C53 O19 1_555 1_555
O22 Zn8_2 1_555 1_555
O24 Zn8_2 1_555 1_555
Zn10 O1_2 1_555 1_555
C1_2 C2_2 1_555 1_555
C2_2 H1_2 1_555 1_555
C7_2 C1_2 1_555 1_555
O1_2 C7_2 1_555 1_555
O26 C7_2 1_555 1_555
C13_2 C12_2 1_555 1_555
H8_2 C13_2 1_555 1_555
C14_2 C13_2 1_555 1_555
H9_2 C14_2 1_555 1_555
H10_2 C15_2 1_555 1_555
C17_2 H11_2 1_555 1_555
H12_2 C17_2 1_555 1_555
Zn4_2 O12_2 1_555 1_555
O24_2 Zn10 1_555 1_555
C14_2 C15_2 1_555 1_555
C17_2 C18_2 1_555 1_555
C10_2 C11_2 1_555 1_555
C16_2 C10_2 1_555 1_555
O5_2 C16_2 1_555 1_555
C37_2 C38_2 1_555 1_555
C39_2 C38_2 1_555 1_555
C40_2 C39_2 1_555 1_555
H26_2 C40_2 1_555 1_555
C41_2 C40_2 1_555 1_555
H27_2 C41_2 1_555 1_555
C42_2 C37_2 1_555 1_555
H28_2 C42_2 1_555 1_555
C43_2 C37_2 1_555 1_555
C44_2 H29_2 1_555 1_555
H30_2 C44_2 1_555 1_555
O22 C43_2 1_555 1_555
O16_2 C39_2 1_555 1_555
C49_2 C48_2 1_555 1_555
H32_2 C49_2 1_555 1_555
C50_2 C49_2 1_555 1_555
H33_2 C50_2 1_555 1_555
H34_2 C51_2 1_555 1_555
C53_2 H35_2 1_555 1_555
H36_2 C53_2 1_555 1_555
Zn12_6 O5_2 1_555 1_555
C41_2 C42_2 1_555 1_555
C44_2 C45_2 1_555 1_555
C44_2 O16_2 1_555 1_555
C45_2 C54_2 1_555 1_555
C50_2 C51_2 1_555 1_555
C53_2 C54_2 1_555 1_555
C4_2 C3_2 1_555 1_555
H2_2 C4_2 1_555 1_555
C5_2 C4_2 1_555 1_555
H3_2 C5_2 1_555 1_555
H4_2 C6_2 1_555 1_555
C8_2 H5_2 1_555 1_555
H6_2 C8_2 1_555 1_555
C9_2 C8_2 1_555 1_555
C19_2 C20_2 1_555 1_555
C21_2 C20_2 1_555 1_555
C22_2 C21_2 1_555 1_555
H14_2 C22_2 1_555 1_555
C23_2 C22_2 1_555 1_555
H15_2 C23_2 1_555 1_555
C24_2 C19_2 1_555 1_555
H16_2 C24_2 1_555 1_555
C25_2 C19_2 1_555 1_555
C26_2 H17_2 1_555 1_555
H18_2 C26_2 1_555 1_555
C27_2 C9_2 1_555 1_555
O25 C25_2 1_555 1_555
O10_2 C21_2 1_555 1_555
C28_2 C29_2 1_555 1_555
C34_2 C28_2 1_555 1_555
O11_2 C34_2 1_555 1_555
Zn12_7 O11_2 1_555 1_555
O21_2 Zn10_2 1_555 1_555
O23 Zn10_2 1_555 1_555
C5_2 C6_2 1_555 1_555
C23_2 C24_2 1_555 1_555
C26_2 C27_2 1_555 1_555
C26_2 O10_2 1_555 1_555
C31_2 C30_2 1_555 1_555
H20_2 C31_2 1_555 1_555
C32_2 C31_2 1_555 1_555
H21_2 C32_2 1_555 1_555
H22_2 C33_2 1_555 1_555
C35_2 H23_2 1_555 1_555
H24_2 C35_2 1_555 1_555
C46_2 C47_2 1_555 1_555
C47_2 H31_2 1_555 1_555
C52_2 C46_2 1_555 1_555
O23 C52_2 1_555 1_555
O18_2 C52_2 1_555 1_555
Zn6 O18_2 1_555 1_555
Zn5 O9_2 1_555 1_555
Zn7_2 O6_2 1_555 1_555
C32_2 C33_2 1_555 1_555
C35_2 C36_2 1_555 1_555
Zn4 O2_2 1_555 1_555
O3_2 Zn4 1_555 1_555
C22_3 C21_3 1_555 1_555
H14_3 C22_3 1_555 1_555
C23_3 C22_3 1_555 1_555
H15_3 C23_3 1_555 1_555
H16_3 C24_3 1_555 1_555
C26_3 H17_3 1_555 1_555
H18_3 C26_3 1_555 1_555
C28_3 C29_3 1_555 1_555
C29_3 H19_3 1_555 1_555
C34_3 C28_3 1_555 1_555
O21 C34_3 1_555 1_555
O27 C34_3 1_555 1_555
Zn4_2 O15_2 1_555 1_555
O20_2 Zn4_2 1_555 1_555
O22_2 Zn12 1_555 1_555
O23_2 Zn12 1_555 1_555
O26_2 Zn4_2 1_555 1_555
O28_2 Zn4 1_555 1_555
C23_3 C24_3 1_555 1_555
C26_3 C27_3 1_555 1_555
Zn12_2 O1_3 1_555 1_555
C1_3 C2_3 1_555 1_555
C3_3 C2_3 1_555 1_555
C4_3 C3_3 1_555 1_555
H2_3 C4_3 1_555 1_555
C5_3 C4_3 1_555 1_555
H3_3 C5_3 1_555 1_555
C6_3 C1_3 1_555 1_555
H4_3 C6_3 1_555 1_555
C7_3 C1_3 1_555 1_555
C8_3 H5_3 1_555 1_555
H6_3 C8_3 1_555 1_555
C9_3 C8_3 1_555 1_555
O1_3 C7_3 1_555 1_555
O4_3 C3_3 1_555 1_555
C13_3 C12_3 1_555 1_555
H8_3 C13_3 1_555 1_555
C14_3 C13_3 1_555 1_555
H9_3 C14_3 1_555 1_555
H10_3 C15_3 1_555 1_555
C17_3 H11_3 1_555 1_555
H12_3 C17_3 1_555 1_555
C18_3 C9_3 1_555 1_555
C19_3 C20_3 1_555 1_555
C25_3 C19_3 1_555 1_555
O8_2 C25_3 1_555 1_555
Zn12_8 O8_2 1_555 1_555
O25_2 Zn12_2 1_555 1_555
C5_3 C6_3 1_555 1_555
C8_3 O4_3 1_555 1_555
C14_3 C15_3 1_555 1_555
C17_3 C18_3 1_555 1_555
C31_3 C30_3 1_555 1_555
H20_3 C31_3 1_555 1_555
C32_3 C31_3 1_555 1_555
H21_3 C32_3 1_555 1_555
H22_3 C33_3 1_555 1_555
C35_3 H23_3 1_555 1_555
H24_3 C35_3 1_555 1_555
C37_3 C38_3 1_555 1_555
C43_3 C37_3 1_555 1_555
O14_2 C43_3 1_555 1_555
C46_3 C47_3 1_555 1_555
C48_3 C47_3 1_555 1_555
C49_3 C48_3 1_555 1_555
H32_3 C49_3 1_555 1_555
C50_3 C49_3 1_555 1_555
H33_3 C50_3 1_555 1_555
C51_3 C46_3 1_555 1_555
H34_3 C51_3 1_555 1_555
C52_3 C46_3 1_555 1_555
C53_3 H35_3 1_555 1_555
H36_3 C53_3 1_555 1_555
C54_3 C36_3 1_555 1_555
O23_2 C52_3 1_555 1_555
O19_3 C48_3 1_555 1_555
Zn12_5 O14_2 1_555 1_555
C32_3 C33_3 1_555 1_555
C35_3 C36_3 1_555 1_555
C50_3 C51_3 1_555 1_555
C53_3 C54_3 1_555 1_555
C53_3 O19_3 1_555 1_555
C10_3 C11_3 1_555 1_555
C11_3 H7_3 1_555 1_555
C16_3 C10_3 1_555 1_555
O24 C16_3 1_555 1_555
O6_3 C16_3 1_555 1_555
C40_3 C39_3 1_555 1_555
H26_3 C40_3 1_555 1_555
C41_3 C40_3 1_555 1_555
H27_3 C41_3 1_555 1_555
H28_3 C42_3 1_555 1_555
C44_3 H29_3 1_555 1_555
H30_3 C44_3 1_555 1_555
Zn7 O18_3 1_555 1_555
Zn7_2 O9_3 1_555 1_555
Zn5 O6_3 1_555 1_555
C41_3 C42_3 1_555 1_555
C44_3 C45_3 1_555 1_555
C37_4 C38_4 1_555 1_555
C38_4 H25_4 1_555 1_555
C43_4 C37_4 1_555 1_555
O22_2 C43_4 1_555 1_555
O28_2 C43_4 1_555 1_555
C49_4 C48_4 1_555 1_555
H32_4 C49_4 1_555 1_555
C50_4 C49_4 1_555 1_555
H33_4 C50_4 1_555 1_555
H34_4 C51_4 1_555 1_555
C53_4 H35_4 1_555 1_555
H36_4 C53_4 1_555 1_555
C50_4 C51_4 1_555 1_555
C53_4 C54_4 1_555 1_555
Zn12_4 O1_4 1_555 1_555
C1_4 C2_4 1_555 1_555
C7_4 C1_4 1_555 1_555
O1_4 C7_4 1_555 1_555
C10_4 C11_4 1_555 1_555
C12_4 C11_4 1_555 1_555
C13_4 C12_4 1_555 1_555
H8_4 C13_4 1_555 1_555
C14_4 C13_4 1_555 1_555
H9_4 C14_4 1_555 1_555
C15_4 C10_4 1_555 1_555
H10_4 C15_4 1_555 1_555
C16_4 C10_4 1_555 1_555
C17_4 H11_4 1_555 1_555
H12_4 C17_4 1_555 1_555
O24_2 C16_4 1_555 1_555
O7_4 C12_4 1_555 1_555
C40_4 C39_4 1_555 1_555
H26_4 C40_4 1_555 1_555
C41_4 C40_4 1_555 1_555
H27_4 C41_4 1_555 1_555
H28_4 C42_4 1_555 1_555
C44_4 H29_4 1_555 1_555
H30_4 C44_4 1_555 1_555
C45_4 C18_4 1_555 1_555
C14_4 C15_4 1_555 1_555
C17_4 C18_4 1_555 1_555
C17_4 O7_4 1_555 1_555
C41_4 C42_4 1_555 1_555
C44_4 C45_4 1_555 1_555
C22_4 C21_4 1_555 1_555
H14_4 C22_4 1_555 1_555
C23_4 C22_4 1_555 1_555
H15_4 C23_4 1_555 1_555
H16_4 C24_4 1_555 1_555
C26_4 H17_4 1_555 1_555
H18_4 C26_4 1_555 1_555
C28_4 C29_4 1_555 1_555
C30_4 C29_4 1_555 1_555
C31_4 C30_4 1_555 1_555
H20_4 C31_4 1_555 1_555
C32_4 C31_4 1_555 1_555
H21_4 C32_4 1_555 1_555
C33_4 C28_4 1_555 1_555
H22_4 C33_4 1_555 1_555
C34_4 C28_4 1_555 1_555
C35_4 H23_4 1_555 1_555
H24_4 C35_4 1_555 1_555
C36_4 C27_4 1_555 1_555
O21_2 C34_4 1_555 1_555
O13_4 C30_4 1_555 1_555
C46_4 C47_4 1_555 1_555
C52_4 C46_4 1_555 1_555
O17_2 C52_4 1_555 1_555
Zn12_9 O17_2 1_555 1_555
C23_4 C24_4 1_555 1_555
C26_4 C27_4 1_555 1_555
C32_4 C33_4 1_555 1_555
C35_4 C36_4 1_555 1_555
C35_4 O13_4 1_555 1_555
C4_4 C3_4 1_555 1_555
H2_4 C4_4 1_555 1_555
C5_4 C4_4 1_555 1_555
H3_4 C5_4 1_555 1_555
H4_4 C6_4 1_555 1_555
C8_4 H5_4 1_555 1_555
H6_4 C8_4 1_555 1_555
C9_4 C8_4 1_555 1_555
C19_4 C20_4 1_555 1_555
C20_4 H13_4 1_555 1_555
C25_4 C19_4 1_555 1_555
O25_2 C25_4 1_555 1_555
O9_4 C25_4 1_555 1_555
Zn7_2 O18_4 1_555 1_555
Zn7 O9_4 1_555 1_555
Zn6 O6_4 1_555 1_555
C5_4 C6_4 1_555 1_555
O3_3 Zn5 1_555 1_555
O20_3 Zn6 1_555 1_555
O3_4 Zn7 1_555 1_555
O20_4 Zn7_2 1_555 1_555

#END
