
###############################################################################
#
# This file contains modified crystal structure data generated from the
# MOF subset of the Cambridge Structural Database (CSD) v543 
# hosted by the Cambridge Crystallographic Data Centre (CCDC).
#
# This work is licensed under the Creative Commons
# Attribution-NonCommercial-ShareAlike 4.0 International License.
# To view a copy of this license, visit
# http://creativecommons.org/licenses/by-nc-sa/4.0/
# or send a letter to
# Creative Commons, PO Box 1866, Mountain View, CA 94042, USA.
#
# CIF created using the CSD Python API on 29 September 2022
# The structure has been converted into the P1 space group
# The structure has a 3D framework
# The original CSD entry AFEHUO is in the tetragonal crystal system
# The framework has been calculated to contain at least 10.0% void space
# The void calculation uses a probe of radius 1.32A, grid spacing 0.4
#
###############################################################################

data_AFEHUO
_chemical_formula_moiety         '(C48 H32 Cu6 F16 Ge4 N16)n'
_symmetry_cell_setting           triclinic
_symmetry_space_group_name_H-M   'P 1'
_symmetry_Int_Tables_number      1
_space_group_name_Hall           'P 1'
loop_
_symmetry_equiv_pos_site_id
_symmetry_equiv_pos_as_xyz
1 x,y,z
_cell_length_a                   11.113(4)
_cell_length_b                   11.113(4)
_cell_length_c                   8.263(6)
_cell_angle_alpha                90
_cell_angle_beta                 90
_cell_angle_gamma                90
_cell_volume                     1020.47
loop_
_atom_site_label
_atom_site_type_symbol
_atom_site_fract_x
_atom_site_fract_y
_atom_site_fract_z
Cu2 Cu -0.0000 -0.0000 0.0000
Cu2_2 Cu -0.0000 -0.0000 1.0000
Cu2_3 Cu 0.0000 1.0000 0.0000
Cu2_4 Cu -0.0000 1.0000 1.0000
N1 N 0.181(1) -0.0000 0.0000
C1 C 0.239(1) -0.0000 0.124(2)
C2 C 0.369(1) -0.0000 0.134(2)
C3 C 0.432(1) -0.0000 0.0000
H1 H 0.1958 0.0000 0.2297
H2 H 0.4099 0.0000 0.2352
C6 C 0.568(1) -0.0000 0.0000
C7 C 0.631(1) -0.0000 0.134(2)
C8 C 0.761(1) -0.0000 0.124(2)
N2 N 0.819(1) -0.0000 0.0000
H7 H 0.8042 0.0000 0.2297
H8 H 0.5901 0.0000 0.2352
F7 F -0.0000 -0.0000 0.293(1)
N5 N -0.0000 0.181(1) 0.0000
Cu2_5 Cu 1.0000 -0.0000 0.0000
Ge1 Ge -0.0000 -0.0000 0.5000
F1 F 0.0000 0.0000 0.707(1)
F2 F 0.144(2) -0.0000 0.5000
N1_2 N 0.181(1) -0.0000 1.0000
C3_2 C 0.432(1) -0.0000 1.0000
C4 C 0.369(1) -0.0000 0.866(2)
C5 C 0.239(1) 0.0000 0.876(2)
H3 H 0.1958 -0.0000 0.7703
H4 H 0.4099 -0.0000 0.7648
C6_2 C 0.568(1) -0.0000 1.0000
N2_2 N 0.819(1) -0.0000 1.0000
C9 C 0.761(1) 0.0000 0.876(2)
C10 C 0.631(1) -0.0000 0.866(2)
H5 H 0.5901 -0.0000 0.7648
H6 H 0.8042 -0.0000 0.7703
F5 F -0.0000 0.144(2) 0.5000
N5_2 N -0.0000 0.181(1) 1.0000
Cu2_6 Cu 1.0000 -0.0000 1.0000
N1_3 N 0.181(1) 1.0000 0.0000
C1_2 C 0.239(1) 1.0000 0.124(2)
C2_2 C 0.369(1) 1.0000 0.134(2)
C3_3 C 0.432(1) 1.0000 0.0000
H1_2 H 0.1958 1.0000 0.2297
H2_2 H 0.4099 1.0000 0.2352
C6_3 C 0.568(1) 1.0000 0.0000
C7_2 C 0.631(1) 1.0000 0.134(2)
C8_2 C 0.761(1) 1.0000 0.124(2)
N2_3 N 0.819(1) 1.0000 0.0000
H7_2 H 0.8042 1.0000 0.2297
H8_2 H 0.5901 1.0000 0.2352
F7_2 F -0.0000 1.0000 0.293(1)
N6 N -0.0000 0.819(1) 0.0000
Cu2_7 Cu 1.0000 1.0000 0.0000
Ge1_2 Ge -0.0000 1.0000 0.5000
F1_2 F 0.0000 1.0000 0.707(1)
F2_2 F 0.144(2) 1.0000 0.5000
N1_4 N 0.181(1) 1.0000 1.0000
C3_4 C 0.432(1) 1.0000 1.0000
C4_2 C 0.369(1) 1.0000 0.866(2)
C5_2 C 0.239(1) 1.0000 0.876(2)
H3_2 H 0.1958 1.0000 0.7703
H4_2 H 0.4099 1.0000 0.7648
C6_4 C 0.568(1) 1.0000 1.0000
N2_4 N 0.819(1) 1.0000 1.0000
C9_2 C 0.761(1) 1.0000 0.876(2)
C10_2 C 0.631(1) 1.0000 0.866(2)
H5_2 H 0.5901 1.0000 0.7648
H6_2 H 0.8042 1.0000 0.7703
F6 F -0.0000 0.856(2) 0.5000
N6_2 N 0.0000 0.819(1) 1.0000
Cu2_8 Cu 1.0000 1.0000 1.0000
F7_3 F 1.0000 -0.0000 0.293(1)
N5_3 N 1.0000 0.181(1) 0.0000
Ge1_3 Ge 1.0000 -0.0000 0.5000
F1_3 F 1.0000 0.0000 0.707(1)
F4 F 0.856(2) -0.0000 0.5000
F5_2 F 1.0000 0.144(2) 0.5000
N5_4 N 1.0000 0.181(1) 1.0000
F7_4 F 1.0000 1.0000 0.293(1)
N6_3 N 1.0000 0.819(1) 0.0000
Ge1_4 Ge 1.0000 1.0000 0.5000
F1_4 F 1.0000 1.0000 0.707(1)
F4_2 F 0.856(2) 1.0000 0.5000
F6_2 F 1.0000 0.856(2) 0.5000
N6_4 N 1.0000 0.819(1) 1.0000
C1_3 C 0.0000 0.239(1) 0.124(2)
C2_3 C 0.0000 0.369(1) 0.134(2)
C3_5 C -0.0000 0.432(1) 0.0000
H1_3 H -0.0000 0.1958 0.2297
H2_3 H -0.0000 0.4099 0.2352
C6_5 C 0.0000 0.568(1) 0.0000
C7_3 C -0.0000 0.631(1) 0.134(2)
C8_3 C 0.0000 0.761(1) 0.124(2)
H7_3 H -0.0000 0.8042 0.2297
H8_3 H -0.0000 0.5901 0.2352
C3_6 C -0.0000 0.432(1) 1.0000
C4_3 C 0.0000 0.369(1) 0.866(2)
C5_3 C -0.0000 0.239(1) 0.876(2)
H3_3 H -0.0000 0.1958 0.7703
H4_3 H -0.0000 0.4099 0.7648
C6_6 C -0.0000 0.568(1) 1.0000
C9_3 C 0.0000 0.761(1) 0.876(2)
C10_3 C -0.0000 0.631(1) 0.866(2)
H5_3 H -0.0000 0.5901 0.7648
H6_3 H -0.0000 0.8042 0.7703
C1_4 C 1.0000 0.239(1) 0.124(2)
C2_4 C 1.0000 0.369(1) 0.134(2)
C3_7 C 1.0000 0.432(1) 0.0000
H1_4 H 1.0000 0.1958 0.2297
H2_4 H 1.0000 0.4099 0.2352
C6_7 C 1.0000 0.568(1) 0.0000
C7_4 C 1.0000 0.631(1) 0.134(2)
C8_4 C 1.0000 0.761(1) 0.124(2)
H7_4 H 1.0000 0.8042 0.2297
H8_4 H 1.0000 0.5901 0.2352
C3_8 C 1.0000 0.432(1) 1.0000
C4_4 C 1.0000 0.369(1) 0.866(2)
C5_4 C 1.0000 0.239(1) 0.876(2)
H3_4 H 1.0000 0.1958 0.7703
H4_4 H 1.0000 0.4099 0.7648
C6_8 C 1.0000 0.568(1) 1.0000
C9_4 C 1.0000 0.761(1) 0.876(2)
C10_4 C 1.0000 0.631(1) 0.866(2)
H5_4 H 1.0000 0.5901 0.7648
H6_4 H 1.0000 0.8042 0.7703
loop_
_geom_bond_atom_site_label_1
_geom_bond_atom_site_label_2
_geom_bond_site_symmetry_1
_geom_bond_site_symmetry_2
N1 Cu2 1_555 1_555
C1 N1 1_555 1_555
C2 C1 1_555 1_555
C3 C2 1_555 1_555
H1 C1 1_555 1_555
H2 C2 1_555 1_555
C6 C3 1_555 1_555
C7 C6 1_555 1_555
C8 C7 1_555 1_555
N2 C8 1_555 1_555
H7 C8 1_555 1_555
H8 C7 1_555 1_555
F7 Cu2 1_555 1_555
N5 Cu2 1_555 1_555
Cu2_5 N2 1_555 1_555
Ge1 F1 1_555 1_555
Cu2_2 F1 1_555 1_555
F2 Ge1 1_555 1_555
N1_2 Cu2_2 1_555 1_555
C4 C3_2 1_555 1_555
C5 N1_2 1_555 1_555
H3 C5 1_555 1_555
H4 C4 1_555 1_555
C6_2 C3_2 1_555 1_555
C9 N2_2 1_555 1_555
C10 C6_2 1_555 1_555
H5 C10 1_555 1_555
H6 C9 1_555 1_555
F7 Ge1 1_555 1_555
F5 Ge1 1_555 1_555
N5_2 Cu2_2 1_555 1_555
Cu2_6 N2_2 1_555 1_555
C4 C5 1_555 1_555
C9 C10 1_555 1_555
N1_3 Cu2_3 1_555 1_555
C1_2 N1_3 1_555 1_555
C2_2 C1_2 1_555 1_555
C3_3 C2_2 1_555 1_555
H1_2 C1_2 1_555 1_555
H2_2 C2_2 1_555 1_555
C6_3 C3_3 1_555 1_555
C7_2 C6_3 1_555 1_555
C8_2 C7_2 1_555 1_555
N2_3 C8_2 1_555 1_555
H7_2 C8_2 1_555 1_555
H8_2 C7_2 1_555 1_555
F7_2 Cu2_3 1_555 1_555
N6 Cu2_3 1_555 1_555
Cu2_7 N2_3 1_555 1_555
Ge1_2 F1_2 1_555 1_555
Cu2_4 F1_2 1_555 1_555
F2_2 Ge1_2 1_555 1_555
N1_4 Cu2_4 1_555 1_555
C4_2 C3_4 1_555 1_555
C5_2 N1_4 1_555 1_555
H3_2 C5_2 1_555 1_555
H4_2 C4_2 1_555 1_555
C6_4 C3_4 1_555 1_555
C9_2 N2_4 1_555 1_555
C10_2 C6_4 1_555 1_555
H5_2 C10_2 1_555 1_555
H6_2 C9_2 1_555 1_555
F7_2 Ge1_2 1_555 1_555
F6 Ge1_2 1_555 1_555
N6_2 Cu2_4 1_555 1_555
Cu2_8 N2_4 1_555 1_555
C4_2 C5_2 1_555 1_555
C9_2 C10_2 1_555 1_555
F7_3 Cu2_5 1_555 1_555
N5_3 Cu2_5 1_555 1_555
Ge1_3 F1_3 1_555 1_555
Cu2_6 F1_3 1_555 1_555
F7_3 Ge1_3 1_555 1_555
F4 Ge1_3 1_555 1_555
F5_2 Ge1_3 1_555 1_555
N5_4 Cu2_6 1_555 1_555
F7_4 Cu2_7 1_555 1_555
N6_3 Cu2_7 1_555 1_555
Ge1_4 F1_4 1_555 1_555
Cu2_8 F1_4 1_555 1_555
F7_4 Ge1_4 1_555 1_555
F4_2 Ge1_4 1_555 1_555
F6_2 Ge1_4 1_555 1_555
N6_4 Cu2_8 1_555 1_555
C1_3 N5 1_555 1_555
C2_3 C1_3 1_555 1_555
C3_5 C2_3 1_555 1_555
H1_3 C1_3 1_555 1_555
H2_3 C2_3 1_555 1_555
C6_5 C3_5 1_555 1_555
C7_3 C6_5 1_555 1_555
C8_3 C7_3 1_555 1_555
N6 C8_3 1_555 1_555
H7_3 C8_3 1_555 1_555
H8_3 C7_3 1_555 1_555
C4_3 C3_6 1_555 1_555
C5_3 N5_2 1_555 1_555
H3_3 C5_3 1_555 1_555
H4_3 C4_3 1_555 1_555
C6_6 C3_6 1_555 1_555
C9_3 N6_2 1_555 1_555
C10_3 C6_6 1_555 1_555
H5_3 C10_3 1_555 1_555
H6_3 C9_3 1_555 1_555
C4_3 C5_3 1_555 1_555
C9_3 C10_3 1_555 1_555
C1_4 N5_3 1_555 1_555
C2_4 C1_4 1_555 1_555
C3_7 C2_4 1_555 1_555
H1_4 C1_4 1_555 1_555
H2_4 C2_4 1_555 1_555
C6_7 C3_7 1_555 1_555
C7_4 C6_7 1_555 1_555
C8_4 C7_4 1_555 1_555
N6_3 C8_4 1_555 1_555
H7_4 C8_4 1_555 1_555
H8_4 C7_4 1_555 1_555
C4_4 C3_8 1_555 1_555
C5_4 N5_4 1_555 1_555
H3_4 C5_4 1_555 1_555
H4_4 C4_4 1_555 1_555
C6_8 C3_8 1_555 1_555
C9_4 N6_4 1_555 1_555
C10_4 C6_8 1_555 1_555
H5_4 C10_4 1_555 1_555
H6_4 C9_4 1_555 1_555
C4_4 C5_4 1_555 1_555
C9_4 C10_4 1_555 1_555

#END
