
###############################################################################
#
# This file contains modified crystal structure data generated from the
# MOF subset of the Cambridge Structural Database (CSD) v543 
# hosted by the Cambridge Crystallographic Data Centre (CCDC).
#
# This work is licensed under the Creative Commons
# Attribution-NonCommercial-ShareAlike 4.0 International License.
# To view a copy of this license, visit
# http://creativecommons.org/licenses/by-nc-sa/4.0/
# or send a letter to
# Creative Commons, PO Box 1866, Mountain View, CA 94042, USA.
#
# CIF created using the CSD Python API on 29 September 2022
# The structure has been converted into the P1 space group
# The structure has a 3D framework
# The original CSD entry AFENEE is in the orthorhombic crystal system
# The framework has been calculated to contain at least 10.0% void space
# The void calculation uses a probe of radius 1.32A, grid spacing 0.4
# The framework is charged, counterions have been retained in the structure
#
###############################################################################

data_AFENEE
_chemical_formula_moiety         '(C64 H72 Ag7 Cl8 N16 O16 3+)n'
_symmetry_cell_setting           triclinic
_symmetry_space_group_name_H-M   'P 1'
_symmetry_Int_Tables_number      1
_space_group_name_Hall           'P 1'
loop_
_symmetry_equiv_pos_site_id
_symmetry_equiv_pos_as_xyz
1 x,y,z
_cell_length_a                   11.5400(5)
_cell_length_b                   11.5400(7)
_cell_length_c                   14.9430(5)
_cell_angle_alpha                90
_cell_angle_beta                 90
_cell_angle_gamma                90
_cell_volume                     1989.98
loop_
_atom_site_label
_atom_site_type_symbol
_atom_site_fract_x
_atom_site_fract_y
_atom_site_fract_z
C12 C 0.0844(6) 0.1482(6) 0.3328(5)
C13 C 0.1714(6) 0.1611(7) 0.2700(6)
H15 H 0.1550 0.1962 0.2138
C14 C 0.2824(6) 0.1229(7) 0.2890(5)
H16 H 0.3410 0.1325 0.2450
N4 N 0.3104(5) 0.0727(6) 0.3672(5)
C15 C 0.2278(7) 0.0644(7) 0.4289(6)
H17 H 0.2471 0.0317 0.4853
C16 C 0.1136(7) 0.1017(7) 0.4147(6)
H18 H 0.0572 0.0949 0.4607
Ag1 Ag 0.0000 -0.0000 0.1460
C17 C 0.1237(7) 0.2826(8) 0.0047(5)
H19 H 0.1347 0.3415 0.0484
C18 C 0.1603(7) 0.1709(7) 0.0236(6)
H20 H 0.1943 0.1542 0.0801
Ag3 Ag 0.5000 0.0000 0.39600(8)
N5 N 0.0728(5) 0.3104(6) 0.9262(5)
C19 C 0.1478(6) 0.0845(7) 0.9617(5)
C20 C 0.1018(6) 0.1139(7) 0.8781(6)
H21 H 0.0956 0.0577 0.8319
C21 C 0.0653(6) 0.2274(7) 0.8642(5)
H22 H 0.0333 0.2469 0.8076
Ag4 Ag -0.0000 0.5000 0.89600(8)
Ag1_2 Ag -0.0000 1.0000 0.1460
N6 N 0.1554(5) 0.9293(5) 0.0634(4)
C24 C 0.1874(6) 0.8144(7) 0.0967(6)
H26 H 0.2660 0.7944 0.0751
H27 H 0.1326 0.7561 0.0728
C25 C 0.1856(6) 0.8105(7) 0.1978(6)
H28 H 0.2041 0.7312 0.2187
H29 H 0.2448 0.8641 0.2221
N7 N 0.0705(5) 0.8444(5) 0.2300(4)
C26 C 0.0376(6) 0.8176(7) 0.3085(5)
C27 C 0.1059(6) 0.7519(8) 0.3768(6)
H30 H 0.1097 0.6701 0.3597
H31 H 0.0684 0.7590 0.4354
H32 H 0.1846 0.7837 0.3801
Ag3_2 Ag 0.5000 1.0000 0.39600(8)
C22 C 0.1832(6) 0.9623(7) 0.9852(5)
C23 C 0.2471(7) 0.8934(7) 0.9163(6)
H23 H 0.3264 0.8790 0.9369
H24 H 0.2492 0.9367 0.8599
H25 H 0.2075 0.8192 0.9069
N10 N 0.1896(5) 0.5727(6) 0.8672(5)
N2 N 0.8446(5) 0.0707(5) 0.0634(4)
C8 C 0.8126(6) 0.1856(7) 0.0967(6)
H8 H 0.7340 0.2056 0.0751
H9 H 0.8674 0.2439 0.0728
C9 C 0.8144(6) 0.1895(7) 0.1978(6)
H10 H 0.7959 0.2688 0.2187
H11 H 0.7552 0.1359 0.2221
N3 N 0.9295(5) 0.1556(5) 0.2300(4)
C10 C 0.9624(6) 0.1824(7) 0.3085(5)
C11 C 0.8941(6) 0.2481(8) 0.3768(6)
H12 H 0.8903 0.3299 0.3597
H13 H 0.9316 0.2410 0.4354
H14 H 0.8154 0.2163 0.3801
Ag1_3 Ag 1.0000 -0.0000 0.1460
C6 C 0.8168(6) 0.0377(7) 0.9852(5)
C7 C 0.7529(7) 0.1066(7) 0.9163(6)
H5 H 0.6736 0.1210 0.9369
H6 H 0.7508 0.0633 0.8599
H7 H 0.7925 0.1808 0.9069
Ag4_2 Ag 1.0000 0.5000 0.89600(8)
C1 C 0.8763(7) 0.7174(8) 0.0047(5)
H1 H 0.8653 0.6585 0.0484
C2 C 0.8397(7) 0.8291(7) 0.0236(6)
H2 H 0.8057 0.8458 0.0801
Ag1_4 Ag 1.0000 1.0000 0.1460
C28 C 0.9156(6) 0.8518(6) 0.3328(5)
C29 C 0.8286(6) 0.8389(7) 0.2700(6)
H33 H 0.8450 0.8038 0.2138
C30 C 0.7176(6) 0.8771(7) 0.2890(5)
H34 H 0.6590 0.8675 0.2450
N8 N 0.6896(5) 0.9273(6) 0.3672(5)
C31 C 0.7722(7) 0.9356(7) 0.4289(6)
H35 H 0.7529 0.9683 0.4853
C32 C 0.8864(7) 0.8983(7) 0.4147(6)
H36 H 0.9428 0.9051 0.4607
N1 N 0.9272(5) 0.6896(6) 0.9262(5)
C3 C 0.8522(6) 0.9155(7) 0.9617(5)
C4 C 0.8982(6) 0.8861(7) 0.8781(6)
H3 H 0.9044 0.9423 0.8319
C5 C 0.9347(6) 0.7726(7) 0.8642(5)
H4 H 0.9667 0.7531 0.8076
N11 N 0.8104(5) 0.4273(6) 0.8672(5)
N1_2 N 0.5728(5) 0.1896(6) 0.4262(5)
C1_2 C 0.6237(7) 0.2174(8) 0.5047(5)
H1_2 H 0.6347 0.1585 0.5484
C2_2 C 0.6603(7) 0.3291(7) 0.5236(6)
H2_2 H 0.6943 0.3458 0.5801
C3_2 C 0.6478(6) 0.4155(7) 0.4617(5)
C4_2 C 0.6018(6) 0.3861(7) 0.3781(6)
H3_2 H 0.5956 0.4423 0.3319
C5_2 C 0.5653(6) 0.2726(7) 0.3642(5)
H4_2 H 0.5333 0.2531 0.3076
C6_2 C 0.6832(6) 0.5377(7) 0.4852(5)
C7_2 C 0.7471(7) 0.6066(7) 0.4163(6)
H5_2 H 0.8264 0.6210 0.4369
H6_2 H 0.7492 0.5633 0.3599
H7_2 H 0.7075 0.6808 0.4069
N2_2 N 0.6554(5) 0.5707(5) 0.5634(4)
C8_2 C 0.6874(6) 0.6856(7) 0.5967(6)
H8_2 H 0.7660 0.7056 0.5751
H9_2 H 0.6326 0.7439 0.5728
C9_2 C 0.6856(6) 0.6895(7) 0.6978(6)
H10_2 H 0.7041 0.7688 0.7187
H11_2 H 0.7448 0.6359 0.7221
N3_2 N 0.5705(5) 0.6556(5) 0.7300(4)
C10_2 C 0.5376(6) 0.6824(7) 0.8085(5)
C11_2 C 0.6059(6) 0.7481(8) 0.8768(6)
H12_2 H 0.6097 0.8299 0.8597
H13_2 H 0.5684 0.7410 0.9354
H14_2 H 0.6846 0.7163 0.8801
C12_2 C 0.4156(6) 0.6482(6) 0.8328(5)
C13_2 C 0.3286(6) 0.6611(7) 0.7700(6)
H15_2 H 0.3450 0.6962 0.7138
C14_2 C 0.2176(6) 0.6229(7) 0.7890(5)
H16_2 H 0.1590 0.6325 0.7450
C15_2 C 0.2722(7) 0.5644(7) 0.9289(6)
H17_2 H 0.2529 0.5317 0.9853
C16_2 C 0.3864(7) 0.6017(7) 0.9147(6)
H18_2 H 0.4428 0.5949 0.9607
Ag1_5 Ag 0.5000 0.5000 0.6460
N5_2 N 0.4272(5) 0.8104(6) 0.4262(5)
C17_2 C 0.3763(7) 0.7826(8) 0.5047(5)
H19_2 H 0.3653 0.8415 0.5484
C18_2 C 0.3397(7) 0.6709(7) 0.5236(6)
H20_2 H 0.3057 0.6542 0.5801
C19_2 C 0.3522(6) 0.5845(7) 0.4617(5)
C20_2 C 0.3982(6) 0.6139(7) 0.3781(6)
H21_2 H 0.4044 0.5577 0.3319
C21_2 C 0.4347(6) 0.7274(7) 0.3642(5)
H22_2 H 0.4667 0.7469 0.3076
C22_2 C 0.3168(6) 0.4623(7) 0.4852(5)
C23_2 C 0.2529(7) 0.3934(7) 0.4163(6)
H23_2 H 0.1736 0.3790 0.4369
H24_2 H 0.2508 0.4367 0.3599
H25_2 H 0.2925 0.3192 0.4069
N6_2 N 0.3446(5) 0.4293(5) 0.5634(4)
C24_2 C 0.3126(6) 0.3144(7) 0.5967(6)
H26_2 H 0.2340 0.2944 0.5751
H27_2 H 0.3674 0.2561 0.5728
C25_2 C 0.3144(6) 0.3105(7) 0.6978(6)
H28_2 H 0.2959 0.2312 0.7187
H29_2 H 0.2552 0.3641 0.7221
N7_2 N 0.4295(5) 0.3444(5) 0.7300(4)
C26_2 C 0.4624(6) 0.3176(7) 0.8085(5)
C27_2 C 0.3941(6) 0.2519(8) 0.8768(6)
H30_2 H 0.3903 0.1701 0.8597
H31_2 H 0.4316 0.2590 0.9354
H32_2 H 0.3154 0.2837 0.8801
C28_2 C 0.5844(6) 0.3518(6) 0.8328(5)
C29_2 C 0.6714(6) 0.3389(7) 0.7700(6)
H33_2 H 0.6550 0.3038 0.7138
C30_2 C 0.7824(6) 0.3771(7) 0.7890(5)
H34_2 H 0.8410 0.3675 0.7450
C31_2 C 0.7278(7) 0.4356(7) 0.9289(6)
H35_2 H 0.7471 0.4683 0.9853
C32_2 C 0.6136(7) 0.3983(7) 0.9147(6)
H36_2 H 0.5572 0.4051 0.9607
Cl1 Cl -0.0000 0.5000 0.1769(2)
O2 O 0.0513(9) 0.4134(9) 0.2293(7)
O3 O 0.0869(7) 0.5496(7) 0.1197(7)
Cl1_2 Cl 1.0000 0.5000 0.1769(2)
O1 O 0.9131(7) 0.4504(7) 0.1197(7)
O4 O 0.9487(9) 0.5866(9) 0.2293(7)
Cl1_3 Cl 0.5000 -0.0000 0.6769(2)
O3_2 O 0.4131(7) 0.0496(7) 0.6197(7)
O4_2 O 0.5513(9) 0.0866(9) 0.7293(7)
Cl1_4 Cl 0.5000 1.0000 0.6769(2)
O1_2 O 0.5869(7) 0.9504(7) 0.6197(7)
O2_2 O 0.4487(9) 0.9134(9) 0.7293(7)
Cl2 Cl 0.5000 -0.0000 0.1157(2)
O5 O 0.5488(7) 0.0870(7) 0.1737(6)
O8 O 0.4132(8) 0.0518(10) 0.0643(7)
Cl2_2 Cl 0.5000 1.0000 0.1157(2)
O6 O 0.5868(8) 0.9482(10) 0.0643(7)
O7 O 0.4512(7) 0.9130(7) 0.1737(6)
Cl2_3 Cl -0.0000 0.5000 0.6157(2)
O7_2 O 0.0488(7) 0.4130(7) 0.6737(6)
O8_2 O 0.0868(8) 0.5518(10) 0.5643(7)
Cl2_4 Cl 1.0000 0.5000 0.6157(2)
O5_2 O 0.9512(7) 0.5870(7) 0.6737(6)
O6_2 O 0.9132(8) 0.4482(10) 0.5643(7)
loop_
_geom_bond_atom_site_label_1
_geom_bond_atom_site_label_2
_geom_bond_site_symmetry_1
_geom_bond_site_symmetry_2
C13 C12 1_555 1_555
H15 C13 1_555 1_555
C14 C13 1_555 1_555
H16 C14 1_555 1_555
N4 C14 1_555 1_555
C15 N4 1_555 1_555
H17 C15 1_555 1_555
C16 C12 1_555 1_555
H18 C16 1_555 1_555
C17 H19 1_555 1_555
C18 C17 1_555 1_555
H20 C18 1_555 1_555
Ag3 N4 1_555 1_555
C15 C16 1_555 1_555
C20 C19 1_555 1_555
H21 C20 1_555 1_555
C21 N5 1_555 1_555
H22 C21 1_555 1_555
Ag4 N5 1_555 1_555
C20 C21 1_555 1_555
N6 Ag1_2 1_555 1_555
C24 N6 1_555 1_555
H26 C24 1_555 1_555
H27 C24 1_555 1_555
C25 C24 1_555 1_555
H28 C25 1_555 1_555
H29 C25 1_555 1_555
N7 Ag1_2 1_555 1_555
C26 N7 1_555 1_555
C27 C26 1_555 1_555
H30 C27 1_555 1_555
H31 C27 1_555 1_555
H32 C27 1_555 1_555
C25 N7 1_555 1_555
C23 C22 1_555 1_555
H23 C23 1_555 1_555
H24 C23 1_555 1_555
H25 C23 1_555 1_555
N10 Ag4 1_555 1_555
C8 N2 1_555 1_555
H8 C8 1_555 1_555
H9 C8 1_555 1_555
C9 C8 1_555 1_555
H10 C9 1_555 1_555
H11 C9 1_555 1_555
N3 C9 1_555 1_555
C10 N3 1_555 1_555
C11 C10 1_555 1_555
H12 C11 1_555 1_555
H13 C11 1_555 1_555
H14 C11 1_555 1_555
Ag1_3 N2 1_555 1_555
N3 Ag1_3 1_555 1_555
C7 C6 1_555 1_555
H5 C7 1_555 1_555
H6 C7 1_555 1_555
H7 C7 1_555 1_555
C1 H1 1_555 1_555
C2 C1 1_555 1_555
H2 C2 1_555 1_555
C29 C28 1_555 1_555
H33 C29 1_555 1_555
C30 C29 1_555 1_555
H34 C30 1_555 1_555
N8 C30 1_555 1_555
C31 N8 1_555 1_555
H35 C31 1_555 1_555
C32 C28 1_555 1_555
H36 C32 1_555 1_555
Ag3_2 N8 1_555 1_555
C31 C32 1_555 1_555
C4 C3 1_555 1_555
H3 C4 1_555 1_555
C5 N1 1_555 1_555
H4 C5 1_555 1_555
Ag4_2 N1 1_555 1_555
N11 Ag4_2 1_555 1_555
C4 C5 1_555 1_555
N1_2 C1_2 1_555 1_555
C1_2 H1_2 1_555 1_555
C2_2 C1_2 1_555 1_555
H2_2 C2_2 1_555 1_555
C3_2 C2_2 1_555 1_555
C4_2 C3_2 1_555 1_555
H3_2 C4_2 1_555 1_555
C5_2 N1_2 1_555 1_555
H4_2 C5_2 1_555 1_555
C6_2 C3_2 1_555 1_555
C7_2 C6_2 1_555 1_555
H5_2 C7_2 1_555 1_555
H6_2 C7_2 1_555 1_555
H7_2 C7_2 1_555 1_555
N2_2 C6_2 1_555 1_555
C8_2 N2_2 1_555 1_555
H8_2 C8_2 1_555 1_555
H9_2 C8_2 1_555 1_555
C9_2 C8_2 1_555 1_555
H10_2 C9_2 1_555 1_555
H11_2 C9_2 1_555 1_555
N3_2 C9_2 1_555 1_555
C10_2 N3_2 1_555 1_555
C11_2 C10_2 1_555 1_555
H12_2 C11_2 1_555 1_555
H13_2 C11_2 1_555 1_555
H14_2 C11_2 1_555 1_555
C12_2 C10_2 1_555 1_555
C13_2 C12_2 1_555 1_555
H15_2 C13_2 1_555 1_555
C14_2 C13_2 1_555 1_555
H16_2 C14_2 1_555 1_555
N10 C14_2 1_555 1_555
C15_2 N10 1_555 1_555
H17_2 C15_2 1_555 1_555
C16_2 C12_2 1_555 1_555
H18_2 C16_2 1_555 1_555
Ag1_5 N2_2 1_555 1_555
Ag3 N1_2 1_555 1_555
N5_2 C17_2 1_555 1_555
C17_2 H19_2 1_555 1_555
C18_2 C17_2 1_555 1_555
H20_2 C18_2 1_555 1_555
C19_2 C18_2 1_555 1_555
C20_2 C19_2 1_555 1_555
H21_2 C20_2 1_555 1_555
C21_2 N5_2 1_555 1_555
H22_2 C21_2 1_555 1_555
C22_2 C19_2 1_555 1_555
C23_2 C22_2 1_555 1_555
H23_2 C23_2 1_555 1_555
H24_2 C23_2 1_555 1_555
H25_2 C23_2 1_555 1_555
N6_2 Ag1_5 1_555 1_555
C24_2 N6_2 1_555 1_555
H26_2 C24_2 1_555 1_555
H27_2 C24_2 1_555 1_555
C25_2 C24_2 1_555 1_555
H28_2 C25_2 1_555 1_555
H29_2 C25_2 1_555 1_555
N7_2 Ag1_5 1_555 1_555
C26_2 N7_2 1_555 1_555
C27_2 C26_2 1_555 1_555
H30_2 C27_2 1_555 1_555
H31_2 C27_2 1_555 1_555
H32_2 C27_2 1_555 1_555
C28_2 C26_2 1_555 1_555
C29_2 C28_2 1_555 1_555
H33_2 C29_2 1_555 1_555
C30_2 C29_2 1_555 1_555
H34_2 C30_2 1_555 1_555
N11 C30_2 1_555 1_555
C31_2 N11 1_555 1_555
H35_2 C31_2 1_555 1_555
C32_2 C28_2 1_555 1_555
H36_2 C32_2 1_555 1_555
Ag3_2 N5_2 1_555 1_555
C4_2 C5_2 1_555 1_555
N3_2 Ag1_5 1_555 1_555
C15_2 C16_2 1_555 1_555
C20_2 C21_2 1_555 1_555
C22_2 N6_2 1_555 1_555
C25_2 N7_2 1_555 1_555
C31_2 C32_2 1_555 1_555
O2 Cl1 1_555 1_555
O3 Cl1 1_555 1_555
Cl1_2 O1 1_555 1_555
O4 Cl1_2 1_555 1_555
O3_2 Cl1_3 1_555 1_555
O4_2 Cl1_3 1_555 1_555
Cl1_4 O1_2 1_555 1_555
O2_2 Cl1_4 1_555 1_555
Cl2 O5 1_555 1_555
O8 Cl2 1_555 1_555
O6 Cl2_2 1_555 1_555
O7 Cl2_2 1_555 1_555
O7_2 Cl2_3 1_555 1_555
O8_2 Cl2_3 1_555 1_555
Cl2_4 O5_2 1_555 1_555
O6_2 Cl2_4 1_555 1_555

#END
