
###############################################################################
#
# This file contains modified crystal structure data generated from the
# MOF subset of the Cambridge Structural Database (CSD) v543 
# hosted by the Cambridge Crystallographic Data Centre (CCDC).
#
# This work is licensed under the Creative Commons
# Attribution-NonCommercial-ShareAlike 4.0 International License.
# To view a copy of this license, visit
# http://creativecommons.org/licenses/by-nc-sa/4.0/
# or send a letter to
# Creative Commons, PO Box 1866, Mountain View, CA 94042, USA.
#
# CIF created using the CSD Python API on 29 September 2022
# The structure has been converted into the P1 space group
# The structure has a 3D framework
# The original CSD entry AFIPAH is in the orthorhombic crystal system
# The framework has been calculated to contain at least 10.0% void space
# The void calculation uses a probe of radius 1.32A, grid spacing 0.4
# H atom positions have been added when not included in the experimental data
# Generated hydrogen atom positions removed from atoms on special positions
#
###############################################################################

data_AFIPAH
_chemical_formula_moiety         '(C80 H160 La16 O128)n'
_symmetry_cell_setting           triclinic
_symmetry_space_group_name_H-M   'P 1'
_symmetry_Int_Tables_number      1
_space_group_name_Hall           'P 1'
loop_
_symmetry_equiv_pos_site_id
_symmetry_equiv_pos_as_xyz
1 x,y,z
_cell_length_a                   9.7787(19)
_cell_length_b                   15.507(3)
_cell_length_c                   28.296(5)
_cell_angle_alpha                90
_cell_angle_beta                 90
_cell_angle_gamma                90
_cell_volume                     4290.76
loop_
_atom_site_label
_atom_site_type_symbol
_atom_site_fract_x
_atom_site_fract_y
_atom_site_fract_z
La4 La 0.1250 0.6250 0.240839(8)
La5 La 0.3750 0.3750 0.259161(8)
C5 C 0.0656(4) 0.4039(2) 0.27913(14)
O8 O 0.1283(3) 0.47089(17) 0.26630(10)
O16 O 0.1293(3) 0.33489(17) 0.28779(11)
H1 H 0.873(6) 0.280(4) 0.285(2)
La1 La 0.6250 0.1250 0.240839(8)
C1 C 0.6250 0.1754(3) 0.1250
C2 C 0.6844(4) 0.3461(2) 0.27913(14)
C3 C 0.8358(4) 0.3408(3) 0.28216(19)
O1 O 0.6140(3) 0.21139(16) 0.16420(8)
O2 O 0.6217(3) 0.27911(17) 0.26630(10)
O3 O 0.7777(3) 0.12855(18) 0.31580(10)
O4 O 0.6207(3) 0.41511(17) 0.28779(11)
H2 H 0.877(6) 0.470(4) 0.285(2)
La2 La 0.6250 0.1250 0.009161(8)
C4 C 0.6250 0.0746(3) 0.1250
C8 C 0.9142(4) 0.4092(3) 0.28216(19)
O5 O 0.6140(3) 0.03861(16) 0.08580(8)
O6 O 0.6360(3) 0.03861(16) 0.16420(8)
O7 O 0.6360(3) 0.21139(16) 0.08580(8)
O13 O 0.4723(3) 0.12145(18) 0.31580(10)
O19 O 0.8707(3) 0.16511(17) 0.21221(11)
O20 O 0.3793(3) 0.08489(17) 0.21221(11)
O21 O 0.8707(3) 0.08489(17) 0.03779(11)
O22 O 0.3793(3) 0.16511(17) 0.03779(11)
O12 O 0.6283(3) 0.27911(17) 0.98370(10)
O14 O 0.7777(3) 0.12145(18) 0.93420(10)
O15 O 0.4723(3) 0.12855(18) 0.93420(10)
H3 H 0.377(6) 0.970(4) 0.285(2)
H4 H 0.373(6) 0.780(4) 0.285(2)
La6 La 0.8750 0.8750 0.259161(8)
C6 C 0.5656(4) 0.9039(2) 0.27913(14)
C7 C 0.1844(4) 0.8461(2) 0.27913(14)
C9 C 0.4142(4) 0.9092(3) 0.28216(19)
C10 C 0.3358(4) 0.8408(3) 0.28216(19)
O9 O 0.6283(3) 0.97089(17) 0.26630(10)
O10 O 0.1217(3) 0.77911(17) 0.26630(10)
O17 O 0.6293(3) 0.83489(17) 0.28779(11)
O18 O 0.1207(3) 0.91511(17) 0.28779(11)
O11 O 0.6217(3) 0.97089(17) 0.98370(10)
La4_2 La 0.1250 0.1250 0.740839(8)
La5_2 La 0.3750 0.8750 0.759161(8)
C5_2 C 0.0656(4) 0.9039(2) 0.77913(14)
O8_2 O 0.1283(3) 0.97089(17) 0.76630(10)
O16_2 O 0.1293(3) 0.83489(17) 0.78779(11)
H1_2 H 0.873(6) 0.780(4) 0.785(2)
La1_2 La 0.6250 0.6250 0.740839(8)
C1_2 C 0.6250 0.6754(3) 0.6250
C2_2 C 0.6844(4) 0.8461(2) 0.77913(14)
C3_2 C 0.8358(4) 0.8408(3) 0.78216(19)
O1_2 O 0.6140(3) 0.71139(16) 0.66420(8)
O2_2 O 0.6217(3) 0.77911(17) 0.76630(10)
O3_2 O 0.7777(3) 0.62855(18) 0.81580(10)
O4_2 O 0.6207(3) 0.91511(17) 0.78779(11)
H2_2 H 0.877(6) 0.970(4) 0.785(2)
H3_2 H 0.377(6) 0.470(4) 0.785(2)
H4_2 H 0.373(6) 0.280(4) 0.785(2)
La2_2 La 0.6250 0.6250 0.509161(8)
La6_2 La 0.8750 0.3750 0.759161(8)
C4_2 C 0.6250 0.5746(3) 0.6250
C6_2 C 0.5656(4) 0.4039(2) 0.77913(14)
C7_2 C 0.1844(4) 0.3461(2) 0.77913(14)
C8_2 C 0.9142(4) 0.9092(3) 0.78216(19)
C9_2 C 0.4142(4) 0.4092(3) 0.78216(19)
C10_2 C 0.3358(4) 0.3408(3) 0.78216(19)
O5_2 O 0.6140(3) 0.53861(16) 0.58580(8)
O6_2 O 0.6360(3) 0.53861(16) 0.66420(8)
O7_2 O 0.6360(3) 0.71139(16) 0.58580(8)
O9_2 O 0.6283(3) 0.47089(17) 0.76630(10)
O10_2 O 0.1217(3) 0.27911(17) 0.76630(10)
O11_2 O 0.6217(3) 0.47089(17) 0.48370(10)
O12_2 O 0.6283(3) 0.77911(17) 0.48370(10)
O13_2 O 0.4723(3) 0.62145(18) 0.81580(10)
O14_2 O 0.7777(3) 0.62145(18) 0.43420(10)
O15_2 O 0.4723(3) 0.62855(18) 0.43420(10)
O17_2 O 0.6293(3) 0.33489(17) 0.78779(11)
O18_2 O 0.1207(3) 0.41511(17) 0.78779(11)
O19_2 O 0.8707(3) 0.66511(17) 0.71221(11)
O20_2 O 0.3793(3) 0.58489(17) 0.71221(11)
O21_2 O 0.8707(3) 0.58489(17) 0.53779(11)
O22_2 O 0.3793(3) 0.66511(17) 0.53779(11)
La4_3 La 0.1250 0.6250 0.009161(8)
La5_3 La 0.3750 0.8750 0.990839(8)
C5_3 C 0.0656(4) 0.8461(2) 0.97087(14)
O8_3 O 0.1283(3) 0.77911(17) 0.98370(10)
O16_3 O 0.1293(3) 0.91511(17) 0.96221(11)
H3_3 H 0.377(6) 0.280(4) 0.965(2)
H4_3 H 0.373(6) 0.470(4) 0.965(2)
La6_3 La 0.8750 0.3750 0.990839(8)
C6_3 C 0.5656(4) 0.3461(2) 0.97087(14)
C7_3 C 0.1844(4) 0.4039(2) 0.97087(14)
C9_3 C 0.4142(4) 0.3408(3) 0.96784(19)
C10_3 C 0.3358(4) 0.4092(3) 0.96784(19)
O10_3 O 0.1217(3) 0.47089(17) 0.98370(10)
O17_3 O 0.6293(3) 0.41511(17) 0.96221(11)
O18_3 O 0.1207(3) 0.33489(17) 0.96221(11)
H1_3 H 0.873(6) 0.970(4) 0.965(2)
C2_3 C 0.6844(4) 0.9039(2) 0.97087(14)
C3_3 C 0.8358(4) 0.9092(3) 0.96784(19)
O4_3 O 0.6207(3) 0.83489(17) 0.96221(11)
H2_3 H 0.877(6) 0.780(4) 0.965(2)
C8_3 C 0.9142(4) 0.8408(3) 0.96784(19)
C1_3 C 0.1250 0.1754(3) 0.6250
O1_3 O 0.1140(3) 0.21139(16) 0.66420(8)
O3_3 O 0.2777(3) 0.12855(18) 0.81580(10)
La2_3 La 0.1250 0.1250 0.509161(8)
C4_3 C 0.1250 0.0746(3) 0.6250
O5_3 O 0.1140(3) 0.03861(16) 0.58580(8)
O6_3 O 0.1360(3) 0.03861(16) 0.66420(8)
O7_3 O 0.1360(3) 0.21139(16) 0.58580(8)
O12_3 O 0.1283(3) 0.27911(17) 0.48370(10)
O14_3 O 0.2777(3) 0.12145(18) 0.43420(10)
O19_3 O 0.3707(3) 0.16511(17) 0.71221(11)
O21_3 O 0.3707(3) 0.08489(17) 0.53779(11)
H8 H 0.00968541 0.171143 0.411402
H10 H 0.00968541 0.0788573 0.838598
O11_3 O 0.1217(3) 0.97089(17) 0.48370(10)
O13_3 O 0.9723(3) 0.12145(18) 0.81580(10)
O15_3 O 0.9723(3) 0.12855(18) 0.43420(10)
O20_3 O 0.8793(3) 0.08489(17) 0.71221(11)
O22_3 O 0.8793(3) 0.16511(17) 0.53779(11)
H7 H 0.877779 0.145358 0.443126
H9 H 0.877779 0.104642 0.806874
C1_4 C 0.1250 0.6754(3) 0.1250
O1_4 O 0.1140(3) 0.71139(16) 0.16420(8)
O3_4 O 0.2777(3) 0.62855(18) 0.31580(10)
C4_4 C 0.1250 0.5746(3) 0.1250
O5_4 O 0.1140(3) 0.53861(16) 0.08580(8)
O6_4 O 0.1360(3) 0.53861(16) 0.16420(8)
O7_4 O 0.1360(3) 0.71139(16) 0.08580(8)
O19_4 O 0.3707(3) 0.66511(17) 0.21221(11)
O21_4 O 0.3707(3) 0.58489(17) 0.03779(11)
H10_2 H 0.00968541 0.578857 0.338598
O14_4 O 0.2777(3) 0.62145(18) 0.93420(10)
H8_2 H 0.00968541 0.671143 0.911402
O13_4 O 0.9723(3) 0.62145(18) 0.31580(10)
O20_4 O 0.8793(3) 0.58489(17) 0.21221(11)
O22_4 O 0.8793(3) 0.66511(17) 0.03779(11)
H9_2 H 0.877779 0.604642 0.306874
O15_4 O 0.9723(3) 0.62855(18) 0.93420(10)
H7_2 H 0.877779 0.645358 0.943126
H6 H 0.00234452 0.667172 0.338069
H12 H 0.00234452 0.582828 0.911931
H5 H 0.980574 0.564244 0.331308
H11 H 0.980574 0.685756 0.918692
C2_4 C 0.0656(4) 0.3461(2) 0.47087(14)
O4_4 O 0.1293(3) 0.41511(17) 0.46221(11)
La3 La 0.3750 0.3750 0.490839(8)
H6_2 H 0.00234452 0.0828283 0.411931
H12_2 H 0.00234452 0.167172 0.838069
H3_4 H 0.373(6) 0.970(4) 0.465(2)
H4_4 H 0.377(6) 0.780(4) 0.465(2)
La8 La 0.8750 0.8750 0.490839(8)
C6_4 C 0.1844(4) 0.9039(2) 0.47087(14)
C7_4 C 0.5656(4) 0.8461(2) 0.47087(14)
C9_4 C 0.3358(4) 0.9092(3) 0.46784(19)
C10_4 C 0.4142(4) 0.8408(3) 0.46784(19)
O17_4 O 0.1207(3) 0.83489(17) 0.46221(11)
O18_4 O 0.6293(3) 0.91511(17) 0.46221(11)
H1_4 H 0.877(6) 0.280(4) 0.465(2)
C3_4 C 0.9142(4) 0.3408(3) 0.46784(19)
H2_4 H 0.873(6) 0.470(4) 0.465(2)
C5_4 C 0.6844(4) 0.4039(2) 0.47087(14)
C8_4 C 0.8358(4) 0.4092(3) 0.46784(19)
O16_4 O 0.6207(3) 0.33489(17) 0.46221(11)
H5_2 H 0.980574 0.185756 0.418692
H11_2 H 0.980574 0.0642438 0.831308
O11_4 O 0.3783(3) 0.02911(17) 0.01630(10)
H3_5 H 0.623(6) 0.030(4) 0.715(2)
H4_5 H 0.627(6) 0.220(4) 0.715(2)
C6_5 C 0.4344(4) 0.0961(2) 0.72087(14)
C7_5 C 0.8156(4) 0.1539(2) 0.72087(14)
C9_5 C 0.5858(4) 0.0908(3) 0.71784(19)
C10_5 C 0.6642(4) 0.1592(3) 0.71784(19)
O9_3 O 0.3717(3) 0.02911(17) 0.73370(10)
O10_4 O 0.8783(3) 0.22089(17) 0.73370(10)
O12_4 O 0.3717(3) 0.72089(17) 0.01630(10)
O14_5 O 0.2223(3) 0.87855(18) 0.06580(10)
O15_5 O 0.5277(3) 0.87145(18) 0.06580(10)
H1_5 H 0.127(6) 0.720(4) 0.715(2)
C1_5 C 0.3750 0.8246(3) 0.8750
C2_5 C 0.3156(4) 0.6539(2) 0.72087(14)
C3_5 C 0.1642(4) 0.6592(3) 0.71784(19)
O1_5 O 0.3860(3) 0.78861(16) 0.83580(8)
O2_3 O 0.3783(3) 0.72089(17) 0.73370(10)
O3_5 O 0.2223(3) 0.87145(18) 0.68420(10)
H2_5 H 0.123(6) 0.530(4) 0.715(2)
C4_5 C 0.3750 0.9254(3) 0.8750
C8_5 C 0.0858(4) 0.5908(3) 0.71784(19)
O5_5 O 0.3860(3) 0.96139(16) 0.91420(8)
O6_5 O 0.3640(3) 0.96139(16) 0.83580(8)
O7_5 O 0.3640(3) 0.78861(16) 0.91420(8)
O13_5 O 0.5277(3) 0.87855(18) 0.68420(10)
C5_5 C 0.9344(4) 0.5961(2) 0.72087(14)
O8_4 O 0.8717(3) 0.52911(17) 0.73370(10)
H1_6 H 0.127(6) 0.220(4) 0.215(2)
C1_6 C 0.3750 0.3246(3) 0.3750
C2_6 C 0.3156(4) 0.1539(2) 0.22087(14)
C3_6 C 0.1642(4) 0.1592(3) 0.21784(19)
O1_6 O 0.3860(3) 0.28861(16) 0.33580(8)
O2_4 O 0.3783(3) 0.22089(17) 0.23370(10)
O3_6 O 0.2223(3) 0.37145(18) 0.18420(10)
H2_6 H 0.123(6) 0.030(4) 0.215(2)
H3_6 H 0.623(6) 0.530(4) 0.215(2)
H4_6 H 0.627(6) 0.720(4) 0.215(2)
C4_6 C 0.3750 0.4254(3) 0.3750
C6_6 C 0.4344(4) 0.5961(2) 0.22087(14)
C7_6 C 0.8156(4) 0.6539(2) 0.22087(14)
C8_6 C 0.0858(4) 0.0908(3) 0.21784(19)
C9_6 C 0.5858(4) 0.5908(3) 0.21784(19)
C10_6 C 0.6642(4) 0.6592(3) 0.21784(19)
O5_6 O 0.3860(3) 0.46139(16) 0.41420(8)
O6_6 O 0.3640(3) 0.46139(16) 0.33580(8)
O7_6 O 0.3640(3) 0.28861(16) 0.41420(8)
O9_4 O 0.3717(3) 0.52911(17) 0.23370(10)
O10_5 O 0.8783(3) 0.72089(17) 0.23370(10)
O11_5 O 0.3783(3) 0.52911(17) 0.51630(10)
O12_5 O 0.3717(3) 0.22089(17) 0.51630(10)
O13_6 O 0.5277(3) 0.37855(18) 0.18420(10)
O14_6 O 0.2223(3) 0.37855(18) 0.56580(10)
O15_6 O 0.5277(3) 0.37145(18) 0.56580(10)
C5_6 C 0.9344(4) 0.0961(2) 0.22087(14)
O8_5 O 0.8717(3) 0.02911(17) 0.23370(10)
H1_7 H 0.127(6) 0.030(4) 0.035(2)
C2_7 C 0.3156(4) 0.0961(2) 0.02913(14)
C3_7 C 0.1642(4) 0.0908(3) 0.03216(19)
H2_7 H 0.123(6) 0.220(4) 0.035(2)
C8_7 C 0.0858(4) 0.1592(3) 0.03216(19)
H3_7 H 0.623(6) 0.720(4) 0.035(2)
H4_7 H 0.627(6) 0.530(4) 0.035(2)
C6_7 C 0.4344(4) 0.6539(2) 0.02913(14)
C7_7 C 0.8156(4) 0.5961(2) 0.02913(14)
C9_7 C 0.5858(4) 0.6592(3) 0.03216(19)
C10_7 C 0.6642(4) 0.5908(3) 0.03216(19)
O10_6 O 0.8783(3) 0.52911(17) 0.01630(10)
C5_7 C 0.9344(4) 0.1539(2) 0.02913(14)
O8_6 O 0.8717(3) 0.22089(17) 0.01630(10)
O13_7 O 0.0277(3) 0.87855(18) 0.18420(10)
O15_7 O 0.0277(3) 0.87145(18) 0.56580(10)
H7_3 H 0.122221 0.854642 0.556874
H9_3 H 0.122221 0.895358 0.193126
O11_6 O 0.8783(3) 0.02911(17) 0.51630(10)
C1_7 C 0.8750 0.8246(3) 0.3750
O1_7 O 0.8860(3) 0.78861(16) 0.33580(8)
O3_7 O 0.7223(3) 0.87145(18) 0.18420(10)
C4_7 C 0.8750 0.9254(3) 0.3750
O5_7 O 0.8860(3) 0.96139(16) 0.41420(8)
O6_7 O 0.8640(3) 0.96139(16) 0.33580(8)
O7_7 O 0.8640(3) 0.78861(16) 0.41420(8)
O12_6 O 0.8717(3) 0.72089(17) 0.51630(10)
O14_7 O 0.7223(3) 0.87855(18) 0.56580(10)
H8_3 H 0.990315 0.828857 0.588598
H10_3 H 0.990315 0.921143 0.161402
O15_8 O 0.0277(3) 0.37145(18) 0.06580(10)
H7_4 H 0.122221 0.354642 0.0568742
O13_8 O 0.0277(3) 0.37855(18) 0.68420(10)
H9_4 H 0.122221 0.395358 0.693126
O14_8 O 0.7223(3) 0.37855(18) 0.06580(10)
H8_4 H 0.990315 0.328857 0.0885984
C1_8 C 0.8750 0.3246(3) 0.8750
O1_8 O 0.8860(3) 0.28861(16) 0.83580(8)
O3_8 O 0.7223(3) 0.37145(18) 0.68420(10)
C4_8 C 0.8750 0.4254(3) 0.8750
O5_8 O 0.8860(3) 0.46139(16) 0.91420(8)
O6_8 O 0.8640(3) 0.46139(16) 0.83580(8)
O7_8 O 0.8640(3) 0.28861(16) 0.91420(8)
H10_4 H 0.990315 0.421143 0.661402
H11_3 H 0.0194262 0.314244 0.0813081
H5_3 H 0.0194262 0.435756 0.668692
H12_3 H 0.997655 0.417172 0.0880686
H6_3 H 0.997655 0.332828 0.661931
H1_8 H 0.123(6) 0.720(4) 0.535(2)
C3_8 C 0.0858(4) 0.6592(3) 0.53216(19)
H2_8 H 0.127(6) 0.530(4) 0.535(2)
C5_8 C 0.3156(4) 0.5961(2) 0.52913(14)
C8_8 C 0.1642(4) 0.5908(3) 0.53216(19)
H5_4 H 0.0194262 0.814244 0.581308
H11_4 H 0.0194262 0.935756 0.168692
H3_8 H 0.627(6) 0.030(4) 0.535(2)
H4_8 H 0.623(6) 0.220(4) 0.535(2)
C6_8 C 0.8156(4) 0.0961(2) 0.52913(14)
C7_8 C 0.4344(4) 0.1539(2) 0.52913(14)
C9_8 C 0.6642(4) 0.0908(3) 0.53216(19)
C10_8 C 0.5858(4) 0.1592(3) 0.53216(19)
C2_8 C 0.9344(4) 0.6539(2) 0.52913(14)
H6_4 H 0.997655 0.917172 0.588069
H12_4 H 0.997655 0.832828 0.161931
loop_
_geom_bond_atom_site_label_1
_geom_bond_atom_site_label_2
_geom_bond_site_symmetry_1
_geom_bond_site_symmetry_2
La4 O8 1_555 1_555
La5 O16 1_555 1_555
O8 C5 1_555 1_555
O16 C5 1_555 1_555
H1 C3 1_555 1_555
La1 O1 1_555 1_555
C1 O1 1_555 1_555
C2 C3 1_555 1_555
C3 C8 1_555 1_555
O2 La1 1_555 1_555
O3 La1 1_555 1_555
O4 C2 1_555 1_555
H2 C8 1_555 1_555
La2 O5 1_555 1_555
La5 O4 1_555 1_555
C4 C1 1_555 1_555
O5 C4 1_555 1_555
O6 La1 1_555 1_555
O7 C1 1_555 1_555
O13 La1 1_555 1_555
O19 La1 1_555 1_555
O20 La1 1_555 1_555
O21 La2 1_555 1_555
O22 La2 1_555 1_555
C2 O2 1_555 1_555
La2 O7 1_555 1_555
C4 O6 1_555 1_555
H3 C9 1_555 1_555
H4 C10 1_555 1_555
La6 O17 1_555 1_555
La4 O10 1_555 1_555
C6 C9 1_555 1_555
C7 C10 1_555 1_555
C9 C10 1_555 1_555
O10 C7 1_555 1_555
O17 C6 1_555 1_555
O18 C7 1_555 1_555
C6 O9 1_555 1_555
La5_2 O16_2 1_555 1_555
O8_2 C5_2 1_555 1_555
O16_2 C5_2 1_555 1_555
H1_2 C3_2 1_555 1_555
La1_2 O1_2 1_555 1_555
C1_2 O1_2 1_555 1_555
C2_2 C3_2 1_555 1_555
C3_2 C8_2 1_555 1_555
O2_2 La1_2 1_555 1_555
O3_2 La1_2 1_555 1_555
O4_2 C2_2 1_555 1_555
H2_2 C8_2 1_555 1_555
H3_2 C9_2 1_555 1_555
H4_2 C10_2 1_555 1_555
La2_2 O5_2 1_555 1_555
La5_2 O4_2 1_555 1_555
La6_2 O17_2 1_555 1_555
La4_2 O10_2 1_555 1_555
C4_2 C1_2 1_555 1_555
C6_2 C9_2 1_555 1_555
C7_2 C10_2 1_555 1_555
C9_2 C10_2 1_555 1_555
O5_2 C4_2 1_555 1_555
O6_2 La1_2 1_555 1_555
O7_2 C1_2 1_555 1_555
O9_2 La1_2 1_555 1_555
O10_2 C7_2 1_555 1_555
O11_2 La2_2 1_555 1_555
O12_2 La2_2 1_555 1_555
O13_2 La1_2 1_555 1_555
O14_2 La2_2 1_555 1_555
O15_2 La2_2 1_555 1_555
O17_2 C6_2 1_555 1_555
O18_2 C7_2 1_555 1_555
O19_2 La1_2 1_555 1_555
O20_2 La1_2 1_555 1_555
O21_2 La2_2 1_555 1_555
O22_2 La2_2 1_555 1_555
C2_2 O2_2 1_555 1_555
La2_2 O7_2 1_555 1_555
C4_2 O6_2 1_555 1_555
C6_2 O9_2 1_555 1_555
La5_3 O16_3 1_555 1_555
O8_3 C5_3 1_555 1_555
O16_3 C5_3 1_555 1_555
H3_3 C9_3 1_555 1_555
H4_3 C10_3 1_555 1_555
La6_3 O17_3 1_555 1_555
C6_3 C9_3 1_555 1_555
C7_3 C10_3 1_555 1_555
C9_3 C10_3 1_555 1_555
O10_3 C7_3 1_555 1_555
O17_3 C6_3 1_555 1_555
O18_3 C7_3 1_555 1_555
C6_3 O12 1_555 1_555
H1_3 C3_3 1_555 1_555
C2_3 C3_3 1_555 1_555
C3_3 C8_3 1_555 1_555
O4_3 C2_3 1_555 1_555
H2_3 C8_3 1_555 1_555
La5_3 O4_3 1_555 1_555
C2_3 O11 1_555 1_555
La4_2 O1_3 1_555 1_555
C1_3 O1_3 1_555 1_555
O3_3 La4_2 1_555 1_555
La2_3 O5_3 1_555 1_555
C4_3 C1_3 1_555 1_555
O5_3 C4_3 1_555 1_555
O6_3 La4_2 1_555 1_555
O7_3 C1_3 1_555 1_555
O12_3 La2_3 1_555 1_555
O14_3 La2_3 1_555 1_555
O19_3 La4_2 1_555 1_555
O21_3 La2_3 1_555 1_555
La2_3 O7_3 1_555 1_555
C4_3 O6_3 1_555 1_555
O15_3 H7 1_555 1_555
O13_3 H9 1_555 1_555
La4 O1_4 1_555 1_555
C1_4 O1_4 1_555 1_555
O3_4 La4 1_555 1_555
La4_3 O5_4 1_555 1_555
C4_4 C1_4 1_555 1_555
O5_4 C4_4 1_555 1_555
O6_4 La4 1_555 1_555
O7_4 C1_4 1_555 1_555
O19_4 La4 1_555 1_555
O21_4 La4_3 1_555 1_555
La4_3 O7_4 1_555 1_555
C4_4 O6_4 1_555 1_555
O13_4 H9_2 1_555 1_555
O15_4 H7_2 1_555 1_555
O13_4 H5 1_555 1_555
O15_4 H11 1_555 1_555
O4_4 C2_4 1_555 1_555
La3 O4_4 1_555 1_555
C2_4 O12_3 1_555 1_555
H3_4 C9_4 1_555 1_555
H4_4 C10_4 1_555 1_555
La8 O18_4 1_555 1_555
C6_4 C9_4 1_555 1_555
C7_4 C10_4 1_555 1_555
C9_4 C10_4 1_555 1_555
O12_2 C7_4 1_555 1_555
O17_4 C6_4 1_555 1_555
O18_4 C7_4 1_555 1_555
C6_4 O11_3 1_555 1_555
H1_4 C3_4 1_555 1_555
C3_4 C8_4 1_555 1_555
H2_4 C8_4 1_555 1_555
La3 O16_4 1_555 1_555
C5_4 C8_4 1_555 1_555
O11_2 C5_4 1_555 1_555
O16_4 C5_4 1_555 1_555
O15_3 H5_2 1_555 1_555
O13_3 H11_2 1_555 1_555
H3_5 C9_5 1_555 1_555
H4_5 C10_5 1_555 1_555
La6_2 O10_4 1_555 1_555
C6_5 C9_5 1_555 1_555
C7_5 C10_5 1_555 1_555
C9_5 C10_5 1_555 1_555
O10_4 C7_5 1_555 1_555
O19_3 C6_5 1_555 1_555
O20_3 C7_5 1_555 1_555
C6_5 O9_3 1_555 1_555
H1_5 C3_5 1_555 1_555
La5_2 O1_5 1_555 1_555
C1_5 O1_5 1_555 1_555
C2_5 C3_5 1_555 1_555
C3_5 C8_5 1_555 1_555
O2_3 La5_2 1_555 1_555
O3_5 La5_2 1_555 1_555
O20_2 C2_5 1_555 1_555
H2_5 C8_5 1_555 1_555
La5_3 O5_5 1_555 1_555
C4_5 C1_5 1_555 1_555
O5_5 C4_5 1_555 1_555
O6_5 La5_2 1_555 1_555
O7_5 C1_5 1_555 1_555
O13_5 La5_2 1_555 1_555
C2_5 O2_3 1_555 1_555
La5_3 O7_5 1_555 1_555
C4_5 O6_5 1_555 1_555
La6_2 O8_4 1_555 1_555
O8_4 C5_5 1_555 1_555
O19_2 C5_5 1_555 1_555
H1_6 C3_6 1_555 1_555
La5 O1_6 1_555 1_555
C1_6 O1_6 1_555 1_555
C2_6 C3_6 1_555 1_555
C3_6 C8_6 1_555 1_555
O2_4 La5 1_555 1_555
O3_6 La5 1_555 1_555
O20 C2_6 1_555 1_555
H2_6 C8_6 1_555 1_555
H3_6 C9_6 1_555 1_555
H4_6 C10_6 1_555 1_555
La3 O5_6 1_555 1_555
La6 O10_5 1_555 1_555
C4_6 C1_6 1_555 1_555
C6_6 C9_6 1_555 1_555
C7_6 C10_6 1_555 1_555
C9_6 C10_6 1_555 1_555
O5_6 C4_6 1_555 1_555
O6_6 La5 1_555 1_555
O7_6 C1_6 1_555 1_555
O9_4 La5 1_555 1_555
O10_5 C7_6 1_555 1_555
O11_5 La3 1_555 1_555
O12_5 La3 1_555 1_555
O13_6 La5 1_555 1_555
O14_6 La3 1_555 1_555
O15_6 La3 1_555 1_555
O19_4 C6_6 1_555 1_555
O20_4 C7_6 1_555 1_555
C2_6 O2_4 1_555 1_555
La3 O7_6 1_555 1_555
C4_6 O6_6 1_555 1_555
C6_6 O9_4 1_555 1_555
O8_5 C5_6 1_555 1_555
O19 C5_6 1_555 1_555
H1_7 C3_7 1_555 1_555
C2_7 C3_7 1_555 1_555
C3_7 C8_7 1_555 1_555
O22 C2_7 1_555 1_555
H2_7 C8_7 1_555 1_555
C2_7 O11_4 1_555 1_555
H3_7 C9_7 1_555 1_555
H4_7 C10_7 1_555 1_555
C6_7 C9_7 1_555 1_555
C7_7 C10_7 1_555 1_555
C9_7 C10_7 1_555 1_555
O10_6 C7_7 1_555 1_555
O21_4 C6_7 1_555 1_555
O22_4 C7_7 1_555 1_555
C6_7 O12_4 1_555 1_555
O8_6 C5_7 1_555 1_555
O21 C5_7 1_555 1_555
O15_7 H7_3 1_555 1_555
O13_7 H9_3 1_555 1_555
La6 O1_7 1_555 1_555
C1_7 O1_7 1_555 1_555
O3_7 La6 1_555 1_555
La8 O5_7 1_555 1_555
C4_7 C1_7 1_555 1_555
O5_7 C4_7 1_555 1_555
O6_7 La6 1_555 1_555
O7_7 C1_7 1_555 1_555
O12_6 La8 1_555 1_555
O14_7 La8 1_555 1_555
La8 O7_7 1_555 1_555
C4_7 O6_7 1_555 1_555
O15_8 H7_4 1_555 1_555
O13_8 H9_4 1_555 1_555
La6_2 O1_8 1_555 1_555
C1_8 O1_8 1_555 1_555
O3_8 La6_2 1_555 1_555
La6_3 O5_8 1_555 1_555
C4_8 C1_8 1_555 1_555
O5_8 C4_8 1_555 1_555
O6_8 La6_2 1_555 1_555
O7_8 C1_8 1_555 1_555
La6_3 O7_8 1_555 1_555
C4_8 O6_8 1_555 1_555
O15_8 H11_3 1_555 1_555
O13_8 H5_3 1_555 1_555
H1_8 C3_8 1_555 1_555
C3_8 C8_8 1_555 1_555
H2_8 C8_8 1_555 1_555
C5_8 C8_8 1_555 1_555
O11_5 C5_8 1_555 1_555
O22_2 C5_8 1_555 1_555
O15_7 H5_4 1_555 1_555
O13_7 H11_4 1_555 1_555
H3_8 C9_8 1_555 1_555
H4_8 C10_8 1_555 1_555
C6_8 C9_8 1_555 1_555
C7_8 C10_8 1_555 1_555
C9_8 C10_8 1_555 1_555
O12_5 C7_8 1_555 1_555
O22_3 C6_8 1_555 1_555
O21_3 C7_8 1_555 1_555
C6_8 O11_6 1_555 1_555
O21_2 C2_8 1_555 1_555
C2_8 O12_6 1_555 1_555

#END
