
###############################################################################
#
# This file contains modified crystal structure data generated from the
# MOF subset of the Cambridge Structural Database (CSD) v543 
# hosted by the Cambridge Crystallographic Data Centre (CCDC).
#
# This work is licensed under the Creative Commons
# Attribution-NonCommercial-ShareAlike 4.0 International License.
# To view a copy of this license, visit
# http://creativecommons.org/licenses/by-nc-sa/4.0/
# or send a letter to
# Creative Commons, PO Box 1866, Mountain View, CA 94042, USA.
#
# CIF created using the CSD Python API on 29 September 2022
# The structure has been converted into the P1 space group
# The structure has a 3D framework
# The original CSD entry AFITIT is in the monoclinic crystal system
# The original CSD entry AFITIT is in a Sohncke space group
# The framework has been calculated to contain at least 10.0% void space
# The void calculation uses a probe of radius 1.32A, grid spacing 0.4
#
###############################################################################

data_AFITIT
_chemical_formula_moiety         '(C276 H192 N12 O46 Zn9)n'
_symmetry_cell_setting           triclinic
_symmetry_space_group_name_H-M   'P 1'
_symmetry_Int_Tables_number      1
_space_group_name_Hall           'P 1'
loop_
_symmetry_equiv_pos_site_id
_symmetry_equiv_pos_as_xyz
1 x,y,z
_cell_length_a                   21.792(2)
_cell_length_b                   27.979(3)
_cell_length_c                   14.0334(15)
_cell_angle_alpha                90
_cell_angle_beta                 93.579(2)
_cell_angle_gamma                90
_cell_volume                     8539.73
loop_
_atom_site_label
_atom_site_type_symbol
_atom_site_fract_x
_atom_site_fract_y
_atom_site_fract_z
Zn10 Zn 0.00512(2) 0.083849(16) 0.10478(3)
C76 C 0.0781(3) 0.01584(19) 0.0071(4)
O8 O 0.9375(2) 0.03540(13) 0.0701(3)
O12 O 0.0663(2) 0.02888(13) 0.0897(3)
C77 C 0.9219(3) 0.01584(19) 0.9929(4)
O7 O 0.0625(2) 0.03540(13) 0.9299(3)
O13 O 0.9337(2) 0.02888(13) 0.9103(3)
Zn11 Zn 0.99488(2) 0.083849(16) 0.89522(3)
C1 C 0.9187(3) 0.1517(2) 0.0042(4)
C2 C 0.8785(3) 0.19363(19) 0.0008(4)
C3 C 0.8695(3) 0.2196(2) 0.0888(4)
H1 H 0.8874 0.2089 0.1484
C7 C 0.8334(3) 0.26086(19) 0.0818(4)
H6 H 0.8298 0.2801 0.1369
C12 C 0.6832(2) 0.4130(2) 0.0827(4)
H7 H 0.7027 0.4003 0.1396
C16 C 0.6471(3) 0.45274(19) 0.0860(4)
H12 H 0.6395 0.4666 0.1459
C17 C 0.6213(3) 0.47312(19) 0.0021(4)
C18 C 0.5781(3) 0.51584(19) 0.0071(4)
O2 O 0.5663(2) 0.52888(13) 0.0897(3)
O3 O 0.9434(2) 0.13819(13) 0.0837(3)
C25 C 0.4187(3) 0.6517(2) 0.0042(4)
C28 C 0.3785(3) 0.69363(19) 0.0008(4)
C32 C 0.3695(3) 0.7196(2) 0.0888(4)
H19 H 0.3874 0.7089 0.1484
C33 C 0.1529(3) 0.20820(19) 0.0852(4)
C34 C 0.6529(3) 0.70820(19) 0.0852(4)
H20 H 0.1490 0.1896 0.1411
H21 H 0.6490 0.6896 0.1411
C36 C 0.1887(3) 0.2483(2) 0.0904(4)
C37 C 0.6887(3) 0.7483(2) 0.0904(4)
C39 C 0.2202(3) 0.26499(16) 0.1829(3)
C40 C 0.7202(3) 0.76499(16) 0.1829(3)
H23 H 0.2066 0.2454 0.2355
H25 H 0.7066 0.7454 0.2355
H26 H 0.2098 0.2985 0.1938
H28 H 0.7098 0.7985 0.1938
H29 H 0.2649 0.2619 0.1796
H31 H 0.7649 0.7619 0.1796
C44 C 0.3334(3) 0.76086(19) 0.0818(4)
H33 H 0.3298 0.7801 0.1369
C45 C 0.1968(3) 0.2742(2) 0.0022(4)
C46 C 0.6968(3) 0.7742(2) 0.0022(4)
C48 C 0.2374(3) 0.3159(2) 0.0073(5)
C50 C 0.7374(3) 0.8159(2) 0.0073(5)
C51 C 0.2705(3) 0.3492(2) 0.0086(4)
C53 C 0.7705(3) 0.8492(2) 0.0086(4)
C54 C 0.3091(3) 0.3917(2) 0.0034(5)
C56 C 0.8091(3) 0.8917(2) 0.0034(5)
C58 C 0.1832(2) 0.9130(2) 0.0827(4)
H36 H 0.2027 0.9003 0.1396
C60 C 0.3355(3) 0.4096(2) 0.0887(4)
C62 C 0.8355(3) 0.9096(2) 0.0887(4)
C63 C 0.3297(3) 0.38537(18) 0.1817(3)
C65 C 0.8297(3) 0.88537(18) 0.1817(3)
H38 H 0.3543 0.4024 0.2317
H40 H 0.8543 0.9024 0.2317
H41 H 0.3444 0.3524 0.1776
H43 H 0.8444 0.8524 0.1776
H44 H 0.2864 0.3853 0.1972
H46 H 0.7864 0.8853 0.1972
C66 C 0.3709(3) 0.45171(19) 0.0786(4)
C68 C 0.8709(3) 0.95171(19) 0.0786(4)
H47 H 0.3904 0.4652 0.1348
H49 H 0.8904 0.9652 0.1348
C70 C 0.1471(3) 0.95274(19) 0.0860(4)
H51 H 0.1395 0.9666 0.1459
C73 C 0.1213(3) 0.97312(19) 0.0021(4)
N3 N 0.50301(16) 0.5826(2) 0.2492(2)
O5 O 0.4375(2) 0.53540(13) 0.0701(3)
O18 O 0.4434(2) 0.63819(13) 0.0837(3)
O19 O 0.07095(18) 0.13130(12) 0.0762(3)
O22 O 0.57095(18) 0.63130(12) 0.0762(3)
Zn3 Zn 0.50512(2) 0.583849(16) 0.10478(3)
C4 C 0.8471(3) 0.20820(19) 0.9148(4)
H2 H 0.8510 0.1896 0.8589
C5 C 0.8113(3) 0.2483(2) 0.9096(4)
C6 C 0.7798(3) 0.26499(16) 0.8171(3)
H3 H 0.7934 0.2454 0.7645
H4 H 0.7902 0.2985 0.8062
H5 H 0.7351 0.2619 0.8204
C8 C 0.8032(3) 0.2742(2) 0.9978(4)
C9 C 0.7626(3) 0.3159(2) 0.9927(5)
C10 C 0.7295(3) 0.3492(2) 0.9914(4)
C11 C 0.6909(3) 0.3917(2) 0.9966(5)
C13 C 0.6645(3) 0.4096(2) 0.9113(4)
C14 C 0.6703(3) 0.38537(18) 0.8183(3)
H8 H 0.6457 0.4024 0.7683
H9 H 0.6556 0.3524 0.8224
H10 H 0.7136 0.3853 0.8028
C15 C 0.6291(3) 0.45171(19) 0.9214(4)
H11 H 0.6096 0.4652 0.8652
C19 C 0.5193(2) 0.62009(17) 0.7028(3)
H13 H 0.5340 0.6473 0.7377
C20 C 0.4758(3) 0.54419(17) 0.6989(3)
H14 H 0.4596 0.5177 0.7314
C21 C 0.4770(3) 0.54254(16) 0.6019(3)
H15 H 0.4625 0.5151 0.5674
C22 C 0.5212(2) 0.61986(17) 0.6065(3)
H16 H 0.5378 0.6467 0.5757
C23 C 0.5001(2) 0.5825(2) 0.5532(3)
N1 N 0.49699(16) 0.5826(2) 0.7508(2)
O1 O 0.5625(2) 0.53540(13) 0.9299(3)
O4 O 0.92905(18) 0.13130(12) 0.9238(3)
Zn1 Zn 0.49488(2) 0.583849(16) 0.89522(3)
C24 C 0.0813(3) 0.1517(2) 0.9958(4)
C26 C 0.5813(3) 0.6517(2) 0.9958(4)
C27 C 0.1215(3) 0.19363(19) 0.9992(4)
C29 C 0.6215(3) 0.69363(19) 0.9992(4)
C30 C 0.1305(3) 0.2196(2) 0.9112(4)
C31 C 0.6305(3) 0.7196(2) 0.9112(4)
H17 H 0.1126 0.2089 0.8516
H18 H 0.6126 0.7089 0.8516
C35 C 0.3471(3) 0.70820(19) 0.9148(4)
H22 H 0.3510 0.6896 0.8589
C38 C 0.3113(3) 0.7483(2) 0.9096(4)
C41 C 0.2798(3) 0.76499(16) 0.8171(3)
H24 H 0.2934 0.7454 0.7645
H27 H 0.2902 0.7985 0.8062
H30 H 0.2351 0.7619 0.8204
C42 C 0.1666(3) 0.26086(19) 0.9182(4)
C43 C 0.6666(3) 0.76086(19) 0.9182(4)
H32 H 0.1702 0.2801 0.8631
H34 H 0.6702 0.7801 0.8631
C47 C 0.3032(3) 0.7742(2) 0.9978(4)
C49 C 0.2626(3) 0.8159(2) 0.9927(5)
C52 C 0.2295(3) 0.8492(2) 0.9914(4)
C55 C 0.1909(3) 0.8917(2) 0.9966(5)
C57 C 0.3168(2) 0.4130(2) 0.9173(4)
C59 C 0.8168(2) 0.9130(2) 0.9173(4)
H35 H 0.2973 0.4003 0.8604
H37 H 0.7973 0.9003 0.8604
C61 C 0.1645(3) 0.9096(2) 0.9113(4)
C64 C 0.1703(3) 0.88537(18) 0.8183(3)
H39 H 0.1457 0.9024 0.7683
H42 H 0.1556 0.8524 0.8224
H45 H 0.2136 0.8853 0.8028
C67 C 0.1291(3) 0.95171(19) 0.9214(4)
H48 H 0.1096 0.9652 0.8652
C69 C 0.3529(3) 0.45274(19) 0.9140(4)
C71 C 0.8529(3) 0.95274(19) 0.9140(4)
H50 H 0.3605 0.4666 0.8541
H52 H 0.8605 0.9666 0.8541
C72 C 0.3787(3) 0.47312(19) 0.9979(4)
C74 C 0.8787(3) 0.97312(19) 0.9979(4)
C75 C 0.4219(3) 0.51584(19) 0.9929(4)
C78 C 0.4807(2) 0.62009(17) 0.2972(3)
C79 C 0.0193(2) 0.12009(17) 0.7028(3)
H53 H 0.4660 0.6473 0.2623
H54 H 0.0340 0.1473 0.7377
C81 C 0.5242(3) 0.54419(17) 0.3011(3)
C83 C 0.0242(3) 0.04419(17) 0.3011(3)
H56 H 0.5404 0.5177 0.2686
H58 H 0.0404 0.0177 0.2686
C84 C 0.5230(3) 0.54254(16) 0.3981(3)
C86 C 0.0230(3) 0.04254(16) 0.3981(3)
H59 H 0.5375 0.5151 0.4326
H61 H 0.0375 0.0151 0.4326
C87 C 0.4788(2) 0.61986(17) 0.3935(3)
C88 C 0.0212(2) 0.11986(17) 0.6065(3)
H62 H 0.4622 0.6467 0.4243
H63 H 0.0378 0.1467 0.5757
C90 C 0.4999(2) 0.5825(2) 0.4468(3)
C91 C 0.0001(2) 0.0825(2) 0.5532(3)
N5 N 0.00301(16) 0.0826(2) 0.2492(2)
O10 O 0.4337(2) 0.52888(13) 0.9103(3)
O15 O 0.0566(2) 0.13819(13) 0.9163(3)
O16 O 0.5566(2) 0.63819(13) 0.9163(3)
O20 O 0.42905(18) 0.63130(12) 0.9238(3)
C80 C 0.9807(2) 0.12009(17) 0.2972(3)
H55 H 0.9660 0.1473 0.2623
C82 C 0.9758(3) 0.04419(17) 0.6989(3)
H57 H 0.9596 0.0177 0.7314
C85 C 0.9770(3) 0.04254(16) 0.6019(3)
H60 H 0.9625 0.0151 0.5674
C89 C 0.9788(2) 0.11986(17) 0.3935(3)
H64 H 0.9622 0.1467 0.4243
C92 C 0.9999(2) 0.0825(2) 0.4468(3)
N4 N 0.99699(16) 0.0826(2) 0.7508(2)
C107 C 0.0051(3) 0.2775(2) 0.7634(4)
H75 H 0.0301 0.2843 0.8198
C109 C 0.0069(3) 0.30654(19) 0.6888(4)
C110 C 0.0537(3) 0.34862(19) 0.6855(4)
O26 O 0.0643(2) 0.36414(13) 0.6081(3)
O27 O 0.07323(18) 0.36315(12) 0.7678(3)
Zn16 Zn 0.126475(19) 0.41633(2) 0.58075(3)
Zn20 Zn 0.138690(19) 0.41555(2) 0.79079(3)
C126 C 0.0123(3) 0.5585(2) 0.7612(5)
H88 H 0.0389 0.5527 0.8163
C127 C 0.0096(3) 0.5253(2) 0.6815(4)
C128 C 0.0486(3) 0.4821(2) 0.6859(5)
O30 O 0.0604(2) 0.46413(13) 0.6044(3)
O31 O 0.0730(2) 0.46706(13) 0.7633(3)
C94 C 0.7532(3) 0.0247(2) 0.6895(4)
C95 C 0.7645(3) 0.0462(2) 0.5976(4)
H65 H 0.7476 0.0321 0.5402
C96 C 0.7818(3) 0.04495(19) 0.7735(4)
H66 H 0.7765 0.0307 0.8339
C97 C 0.8173(3) 0.0854(2) 0.7672(4)
H67 H 0.8367 0.0986 0.8237
C98 C 0.8000(3) 0.0874(2) 0.5940(4)
C99 C 0.8137(3) 0.1063(2) 0.4943(4)
H68 H 0.7944 0.1377 0.4842
H69 H 0.7971 0.0840 0.4453
H70 H 0.8582 0.1093 0.4900
C100 C 0.8257(3) 0.1081(2) 0.6774(4)
C101 C 0.8621(3) 0.1500(2) 0.6773(4)
C102 C 0.8934(3) 0.1851(2) 0.6788(5)
C103 C 0.9298(3) 0.2271(2) 0.6800(4)
C104 C 0.9300(3) 0.2578(2) 0.6031(4)
C105 C 0.8897(3) 0.2495(2) 0.5160(4)
H71 H 0.9015 0.2196 0.4858
H72 H 0.8940 0.2761 0.4715
H73 H 0.8468 0.2474 0.5331
C106 C 0.9678(3) 0.2378(2) 0.7607(4)
H74 H 0.9679 0.2173 0.8147
C108 C 0.9691(3) 0.2979(2) 0.6094(4)
H76 H 0.9692 0.3194 0.5571
C157 C 0.2121(3) 0.34915(19) 0.6749(5)
C158 C 0.2569(3) 0.30696(19) 0.6721(4)
C159 C 0.2658(3) 0.2848(2) 0.5936(5)
H109 H 0.2436 0.2957 0.5372
C160 C 0.2833(3) 0.2901(2) 0.7547(4)
H110 H 0.2762 0.3058 0.8130
C161 C 0.3216(3) 0.2490(2) 0.7555(5)
H111 H 0.3397 0.2367 0.8138
C162 C 0.3054(3) 0.2461(2) 0.5851(5)
C163 C 0.3104(5) 0.2213(4) 0.4870(7)
H112 H 0.2834 0.2375 0.4387
H113 H 0.2980 0.1877 0.4917
H114 H 0.3530 0.2229 0.4686
C164 C 0.3319(3) 0.2275(2) 0.6702(6)
C165 C 0.3683(3) 0.1840(3) 0.6719(5)
C166 C 0.3980(3) 0.1487(2) 0.6704(5)
C167 C 0.4347(3) 0.1056(2) 0.6753(5)
C168 C 0.4767(3) 0.0974(2) 0.7553(5)
H115 H 0.4796 0.1201 0.8057
C169 C 0.4291(3) 0.07211(19) 0.5997(4)
C170 C 0.3826(3) 0.0785(2) 0.5163(5)
H116 H 0.3988 0.1010 0.4705
H117 H 0.3443 0.0911 0.5392
H118 H 0.3747 0.0476 0.4851
C171 C 0.4662(2) 0.03278(18) 0.6063(4)
H119 H 0.4622 0.0095 0.5571
C172 C 0.5123(3) 0.0585(2) 0.7612(5)
H120 H 0.5389 0.0527 0.8163
C173 C 0.5096(3) 0.0253(2) 0.6815(4)
O39 O 0.19155(19) 0.36454(13) 0.5976(3)
O41 O 0.2014(2) 0.36468(13) 0.7564(3)
C93 C 0.7137(3) 0.9832(2) 0.6917(4)
C111 C 0.7121(3) 0.84915(19) 0.6749(5)
C112 C 0.7569(3) 0.80696(19) 0.6721(4)
C113 C 0.7658(3) 0.7848(2) 0.5936(5)
H77 H 0.7436 0.7957 0.5372
C114 C 0.7833(3) 0.7901(2) 0.7547(4)
H78 H 0.7762 0.8058 0.8130
C115 C 0.8216(3) 0.7490(2) 0.7555(5)
H79 H 0.8397 0.7367 0.8138
C116 C 0.8054(3) 0.7461(2) 0.5851(5)
C117 C 0.8104(5) 0.7213(4) 0.4870(7)
H80 H 0.7834 0.7375 0.4387
H81 H 0.7980 0.6877 0.4917
H82 H 0.8530 0.7229 0.4686
C118 C 0.8319(3) 0.7275(2) 0.6702(6)
C119 C 0.8683(3) 0.6840(3) 0.6719(5)
C120 C 0.8980(3) 0.6487(2) 0.6704(5)
C121 C 0.9347(3) 0.6056(2) 0.6753(5)
C122 C 0.9767(3) 0.5974(2) 0.7553(5)
H83 H 0.9796 0.6201 0.8057
C123 C 0.9291(3) 0.57211(19) 0.5997(4)
C124 C 0.8826(3) 0.5785(2) 0.5163(5)
H84 H 0.8988 0.6010 0.4705
H85 H 0.8443 0.5911 0.5392
H86 H 0.8747 0.5476 0.4851
C125 C 0.9662(2) 0.53278(18) 0.6063(4)
H87 H 0.9622 0.5095 0.5571
C129 C 0.6785(2) 0.93422(18) 0.3947(3)
H89 H 0.7134 0.9433 0.4344
C130 C 0.57673(18) 0.9138(2) 0.3794(2)
H90 H 0.5388 0.9086 0.4077
C131 C 0.57751(19) 0.91266(19) 0.2820(3)
H91 H 0.5412 0.9057 0.2436
C132 C 0.6833(2) 0.93429(18) 0.3005(3)
H92 H 0.7209 0.9427 0.2742
C133 C 0.63192(19) 0.9218(2) 0.2409(3)
C134 C 0.63607(18) 0.9189(3) 0.1344(3)
C135 C 0.6009(2) 0.88503(18) 0.0807(3)
H93 H 0.5758 0.8625 0.1107
C136 C 0.6719(2) 0.94905(19) 0.0850(3)
H94 H 0.6969 0.9720 0.1188
N6 N 0.62721(15) 0.92202(17) 0.4364(2)
O24 O 0.6909(2) 0.96703(14) 0.6152(3)
O25 O 0.70161(18) 0.96658(12) 0.7729(3)
O28 O 0.69155(19) 0.86454(13) 0.5976(3)
O29 O 0.7014(2) 0.86468(13) 0.7564(3)
Zn13 Zn 0.626475(19) 0.91633(2) 0.58075(3)
C139 C 0.2137(3) 0.4832(2) 0.6917(4)
C140 C 0.2532(3) 0.5247(2) 0.6895(4)
C141 C 0.2645(3) 0.5462(2) 0.5976(4)
H97 H 0.2476 0.5321 0.5402
C142 C 0.2818(3) 0.54495(19) 0.7735(4)
H98 H 0.2765 0.5307 0.8339
C143 C 0.3173(3) 0.5854(2) 0.7672(4)
H99 H 0.3367 0.5986 0.8237
C144 C 0.3000(3) 0.5874(2) 0.5940(4)
C145 C 0.3137(3) 0.6063(2) 0.4943(4)
H100 H 0.2944 0.6377 0.4842
H101 H 0.2971 0.5840 0.4453
H102 H 0.3582 0.6093 0.4900
C146 C 0.3257(3) 0.6081(2) 0.6774(4)
C147 C 0.3621(3) 0.6500(2) 0.6773(4)
C148 C 0.3934(3) 0.6851(2) 0.6788(5)
C149 C 0.4298(3) 0.7271(2) 0.6800(4)
C150 C 0.4300(3) 0.7578(2) 0.6031(4)
C151 C 0.3897(3) 0.7495(2) 0.5160(4)
H103 H 0.4015 0.7196 0.4858
H104 H 0.3940 0.7761 0.4715
H105 H 0.3468 0.7474 0.5331
C152 C 0.4678(3) 0.7378(2) 0.7607(4)
H106 H 0.4679 0.7173 0.8147
C153 C 0.5051(3) 0.7775(2) 0.7634(4)
H107 H 0.5301 0.7843 0.8198
C154 C 0.4691(3) 0.7979(2) 0.6094(4)
H108 H 0.4692 0.8194 0.5571
C155 C 0.5069(3) 0.80654(19) 0.6888(4)
C156 C 0.5537(3) 0.84862(19) 0.6855(4)
C174 C 0.5486(3) 0.9821(2) 0.6859(5)
C175 C 0.1785(2) 0.43422(18) 0.3947(3)
H121 H 0.2134 0.4433 0.4344
C176 C 0.07673(18) 0.4138(2) 0.3794(2)
H122 H 0.0388 0.4086 0.4077
C177 C 0.07751(19) 0.41266(19) 0.2820(3)
H123 H 0.0412 0.4057 0.2436
C178 C 0.1833(2) 0.43429(18) 0.3005(3)
H124 H 0.2209 0.4427 0.2742
C179 C 0.13192(19) 0.4218(2) 0.2409(3)
C180 C 0.13607(18) 0.4189(3) 0.1344(3)
C181 C 0.1009(2) 0.38503(18) 0.0807(3)
H125 H 0.0758 0.3625 0.1107
C182 C 0.1719(2) 0.44905(19) 0.0850(3)
H126 H 0.1969 0.4720 0.1188
N8 N 0.12721(15) 0.42202(17) 0.4364(2)
N10 N 0.63929(13) 0.9161(2) 0.9362(2)
O32 O 0.1909(2) 0.46703(14) 0.6152(3)
O33 O 0.20161(18) 0.46658(12) 0.7729(3)
O35 O 0.5643(2) 0.86414(13) 0.6081(3)
O37 O 0.57323(18) 0.86315(12) 0.7678(3)
O43 O 0.5604(2) 0.96413(13) 0.6044(3)
O45 O 0.5730(2) 0.96706(13) 0.7633(3)
Zn19 Zn 0.638690(19) 0.91555(2) 0.79079(3)
C137 C 0.6723(2) 0.94666(17) 0.9870(3)
H95 H 0.6978 0.9682 0.9552
C138 C 0.6043(2) 0.88593(17) 0.9820(3)
H96 H 0.5801 0.8636 0.9450
C183 C 0.1723(2) 0.44666(17) 0.9870(3)
H127 H 0.1978 0.4682 0.9552
C184 C 0.1043(2) 0.38593(17) 0.9820(3)
H128 H 0.0801 0.3636 0.9450
N9 N 0.13929(13) 0.4161(2) 0.9362(2)
C94_2 C 0.2468(3) 0.0247(2) 0.3105(4)
C95_2 C 0.2355(3) 0.0462(2) 0.4024(4)
H65_2 H 0.2524 0.0321 0.4598
C96_2 C 0.2182(3) 0.04495(19) 0.2265(4)
H66_2 H 0.2235 0.0307 0.1661
C97_2 C 0.1827(3) 0.0854(2) 0.2328(4)
H67_2 H 0.1633 0.0986 0.1763
C98_2 C 0.2000(3) 0.0874(2) 0.4060(4)
C99_2 C 0.1863(3) 0.1063(2) 0.5057(4)
H68_2 H 0.2056 0.1377 0.5158
H69_2 H 0.2029 0.0840 0.5547
H70_2 H 0.1418 0.1093 0.5100
C100_2 C 0.1743(3) 0.1081(2) 0.3226(4)
C101_2 C 0.1379(3) 0.1500(2) 0.3227(4)
C102_2 C 0.1066(3) 0.1851(2) 0.3212(5)
C103_2 C 0.0702(3) 0.2271(2) 0.3200(4)
C104_2 C 0.0700(3) 0.2578(2) 0.3969(4)
C105_2 C 0.1103(3) 0.2495(2) 0.4840(4)
H71_2 H 0.0985 0.2196 0.5142
H72_2 H 0.1060 0.2761 0.5285
H73_2 H 0.1532 0.2474 0.4669
C106_2 C 0.0322(3) 0.2378(2) 0.2393(4)
H74_2 H 0.0321 0.2173 0.1853
C108_2 C 0.0309(3) 0.2979(2) 0.3906(4)
H76_2 H 0.0308 0.3194 0.4429
C157_2 C 0.7879(3) 0.34915(19) 0.3251(5)
C158_2 C 0.7431(3) 0.30696(19) 0.3279(4)
C159_2 C 0.7342(3) 0.2848(2) 0.4064(5)
H109_2 H 0.7564 0.2957 0.4628
C160_2 C 0.7167(3) 0.2901(2) 0.2453(4)
H110_2 H 0.7238 0.3058 0.1870
C161_2 C 0.6784(3) 0.2490(2) 0.2445(5)
H111_2 H 0.6603 0.2367 0.1862
C162_2 C 0.6946(3) 0.2461(2) 0.4149(5)
C163_2 C 0.6896(5) 0.2213(4) 0.5130(7)
H112_2 H 0.7166 0.2375 0.5613
H113_2 H 0.7020 0.1877 0.5083
H114_2 H 0.6470 0.2229 0.5314
C164_2 C 0.6681(3) 0.2275(2) 0.3298(6)
C165_2 C 0.6317(3) 0.1840(3) 0.3281(5)
C166_2 C 0.6020(3) 0.1487(2) 0.3296(5)
C167_2 C 0.5653(3) 0.1056(2) 0.3247(5)
C168_2 C 0.5233(3) 0.0974(2) 0.2447(5)
H115_2 H 0.5204 0.1201 0.1943
C169_2 C 0.5709(3) 0.07211(19) 0.4003(4)
C170_2 C 0.6174(3) 0.0785(2) 0.4837(5)
H116_2 H 0.6012 0.1010 0.5295
H117_2 H 0.6557 0.0911 0.4608
H118_2 H 0.6253 0.0476 0.5149
C171_2 C 0.5338(2) 0.03278(18) 0.3937(4)
H119_2 H 0.5378 0.0095 0.4429
C172_2 C 0.4877(3) 0.0585(2) 0.2388(5)
H120_2 H 0.4611 0.0527 0.1837
C173_2 C 0.4904(3) 0.0253(2) 0.3185(4)
O39_2 O 0.80845(19) 0.36454(13) 0.4024(3)
O41_2 O 0.7986(2) 0.36468(13) 0.2436(3)
Zn18 Zn 0.873525(19) 0.41633(2) 0.41925(3)
Zn23 Zn 0.861310(19) 0.41555(2) 0.20921(3)
C137_2 C 0.3277(2) 0.94666(17) 0.0130(3)
H95_2 H 0.3022 0.9682 0.0448
C138_2 C 0.3957(2) 0.88593(17) 0.0180(3)
H96_2 H 0.4199 0.8636 0.0550
N7 N 0.36071(13) 0.9161(2) 0.0638(2)
Zn14 Zn 0.361310(19) 0.91555(2) 0.20921(3)
C183_2 C 0.8277(2) 0.44666(17) 0.0130(3)
H127_2 H 0.8022 0.4682 0.0448
C184_2 C 0.8957(2) 0.38593(17) 0.0180(3)
H128_2 H 0.9199 0.3636 0.0550
N9_2 N 0.86071(13) 0.4161(2) 0.0638(2)
O34 O 0.29839(18) 0.96658(12) 0.2271(3)
O38 O 0.42677(18) 0.86315(12) 0.2322(3)
O42 O 0.2986(2) 0.86468(13) 0.2436(3)
O46 O 0.4270(2) 0.96706(13) 0.2367(3)
C93_2 C 0.2863(3) 0.9832(2) 0.3083(4)
C111_2 C 0.2879(3) 0.84915(19) 0.3251(5)
C112_2 C 0.2431(3) 0.80696(19) 0.3279(4)
C113_2 C 0.2342(3) 0.7848(2) 0.4064(5)
H77_2 H 0.2564 0.7957 0.4628
C114_2 C 0.2167(3) 0.7901(2) 0.2453(4)
H78_2 H 0.2238 0.8058 0.1870
C115_2 C 0.1784(3) 0.7490(2) 0.2445(5)
H79_2 H 0.1603 0.7367 0.1862
C116_2 C 0.1946(3) 0.7461(2) 0.4149(5)
C117_2 C 0.1896(5) 0.7213(4) 0.5130(7)
H80_2 H 0.2166 0.7375 0.5613
H81_2 H 0.2020 0.6877 0.5083
H82_2 H 0.1470 0.7229 0.5314
C118_2 C 0.1681(3) 0.7275(2) 0.3298(6)
C119_2 C 0.1317(3) 0.6840(3) 0.3281(5)
C120_2 C 0.1020(3) 0.6487(2) 0.3296(5)
C121_2 C 0.0653(3) 0.6056(2) 0.3247(5)
C122_2 C 0.0233(3) 0.5974(2) 0.2447(5)
H83_2 H 0.0204 0.6201 0.1943
C123_2 C 0.0709(3) 0.57211(19) 0.4003(4)
C124_2 C 0.1174(3) 0.5785(2) 0.4837(5)
H84_2 H 0.1012 0.6010 0.5295
H85_2 H 0.1557 0.5911 0.4608
H86_2 H 0.1253 0.5476 0.5149
C125_2 C 0.0338(2) 0.53278(18) 0.3937(4)
H87_2 H 0.0378 0.5095 0.4429
C129_2 C 0.3215(2) 0.93422(18) 0.6053(3)
H89_2 H 0.2866 0.9433 0.5656
C130_2 C 0.42327(18) 0.9138(2) 0.6206(2)
H90_2 H 0.4612 0.9086 0.5923
C131_2 C 0.42249(19) 0.91266(19) 0.7180(3)
H91_2 H 0.4588 0.9057 0.7564
C132_2 C 0.3167(2) 0.93429(18) 0.6995(3)
H92_2 H 0.2791 0.9427 0.7258
C133_2 C 0.36808(19) 0.9218(2) 0.7591(3)
C134_2 C 0.36393(18) 0.9189(3) 0.8656(3)
C135_2 C 0.3991(2) 0.88503(18) 0.9193(3)
H93_2 H 0.4242 0.8625 0.8893
C136_2 C 0.3281(2) 0.94905(19) 0.9150(3)
H94_2 H 0.3031 0.9720 0.8812
N6_2 N 0.37279(15) 0.92202(17) 0.5636(2)
O24_2 O 0.3091(2) 0.96703(14) 0.3848(3)
O28_2 O 0.30845(19) 0.86454(13) 0.4024(3)
Zn13_2 Zn 0.373525(19) 0.91633(2) 0.41925(3)
C139_2 C 0.7863(3) 0.4832(2) 0.3083(4)
C140_2 C 0.7468(3) 0.5247(2) 0.3105(4)
C141_2 C 0.7355(3) 0.5462(2) 0.4024(4)
H97_2 H 0.7524 0.5321 0.4598
C142_2 C 0.7182(3) 0.54495(19) 0.2265(4)
H98_2 H 0.7235 0.5307 0.1661
C143_2 C 0.6827(3) 0.5854(2) 0.2328(4)
H99_2 H 0.6633 0.5986 0.1763
C144_2 C 0.7000(3) 0.5874(2) 0.4060(4)
C145_2 C 0.6863(3) 0.6063(2) 0.5057(4)
H100_2 H 0.7056 0.6377 0.5158
H101_2 H 0.7029 0.5840 0.5547
H102_2 H 0.6418 0.6093 0.5100
C146_2 C 0.6743(3) 0.6081(2) 0.3226(4)
C147_2 C 0.6379(3) 0.6500(2) 0.3227(4)
C148_2 C 0.6066(3) 0.6851(2) 0.3212(5)
C149_2 C 0.5702(3) 0.7271(2) 0.3200(4)
C150_2 C 0.5700(3) 0.7578(2) 0.3969(4)
C151_2 C 0.6103(3) 0.7495(2) 0.4840(4)
H103_2 H 0.5985 0.7196 0.5142
H104_2 H 0.6060 0.7761 0.5285
H105_2 H 0.6532 0.7474 0.4669
C152_2 C 0.5322(3) 0.7378(2) 0.2393(4)
H106_2 H 0.5321 0.7173 0.1853
C153_2 C 0.4949(3) 0.7775(2) 0.2366(4)
H107_2 H 0.4699 0.7843 0.1802
C154_2 C 0.5309(3) 0.7979(2) 0.3906(4)
H108_2 H 0.5308 0.8194 0.4429
C155_2 C 0.4931(3) 0.80654(19) 0.3112(4)
C156_2 C 0.4463(3) 0.84862(19) 0.3145(4)
C174_2 C 0.4514(3) 0.9821(2) 0.3141(5)
C175_2 C 0.8215(2) 0.43422(18) 0.6053(3)
H121_2 H 0.7866 0.4433 0.5656
C176_2 C 0.92327(18) 0.4138(2) 0.6206(2)
H122_2 H 0.9612 0.4086 0.5923
C177_2 C 0.92249(19) 0.41266(19) 0.7180(3)
H123_2 H 0.9588 0.4057 0.7564
C178_2 C 0.8167(2) 0.43429(18) 0.6995(3)
H124_2 H 0.7791 0.4427 0.7258
C179_2 C 0.86808(19) 0.4218(2) 0.7591(3)
C180_2 C 0.86393(18) 0.4189(3) 0.8656(3)
C181_2 C 0.8991(2) 0.38503(18) 0.9193(3)
H125_2 H 0.9242 0.3625 0.8893
C182_2 C 0.8281(2) 0.44905(19) 0.9150(3)
H126_2 H 0.8031 0.4720 0.8812
N8_2 N 0.87279(15) 0.42202(17) 0.5636(2)
O32_2 O 0.8091(2) 0.46703(14) 0.3848(3)
O33_2 O 0.79839(18) 0.46658(12) 0.2271(3)
O35_2 O 0.4357(2) 0.86414(13) 0.3919(3)
O36 O 0.9357(2) 0.36414(13) 0.3919(3)
O43_2 O 0.4396(2) 0.96413(13) 0.3956(3)
O44 O 0.9396(2) 0.46413(13) 0.3956(3)
C107_2 C 0.9949(3) 0.2775(2) 0.2366(4)
H75_2 H 0.9699 0.2843 0.1802
C109_2 C 0.9931(3) 0.30654(19) 0.3112(4)
C110_2 C 0.9463(3) 0.34862(19) 0.3145(4)
O27_2 O 0.92677(18) 0.36315(12) 0.2322(3)
C126_2 C 0.9877(3) 0.5585(2) 0.2388(5)
H88_2 H 0.9611 0.5527 0.1837
C127_2 C 0.9904(3) 0.5253(2) 0.3185(4)
C128_2 C 0.9514(3) 0.4821(2) 0.3141(5)
O31_2 O 0.9270(2) 0.46706(13) 0.2367(3)
loop_
_geom_bond_atom_site_label_1
_geom_bond_atom_site_label_2
_geom_bond_site_symmetry_1
_geom_bond_site_symmetry_2
O12 C76 1_555 1_555
Zn10 O12 1_555 1_555
O13 C77 1_555 1_555
Zn11 O13 1_555 1_555
C1 C2 1_555 1_555
C2 C3 1_555 1_555
C3 H1 1_555 1_555
C7 C3 1_555 1_555
H6 C7 1_555 1_555
H7 C12 1_555 1_555
C16 C12 1_555 1_555
H12 C16 1_555 1_555
C18 C17 1_555 1_555
O2 C18 1_555 1_555
O3 C1 1_555 1_555
C25 C28 1_555 1_555
C28 C32 1_555 1_555
C32 H19 1_555 1_555
H20 C33 1_555 1_555
H21 C34 1_555 1_555
C36 C33 1_555 1_555
C37 C34 1_555 1_555
C39 C36 1_555 1_555
C40 C37 1_555 1_555
H23 C39 1_555 1_555
H25 C40 1_555 1_555
H26 C39 1_555 1_555
H28 C40 1_555 1_555
H29 C39 1_555 1_555
H31 C40 1_555 1_555
C44 C32 1_555 1_555
H33 C44 1_555 1_555
C45 C36 1_555 1_555
C46 C37 1_555 1_555
C48 C45 1_555 1_555
C50 C46 1_555 1_555
C51 C48 1_555 1_555
C53 C50 1_555 1_555
C54 C51 1_555 1_555
C56 C53 1_555 1_555
H36 C58 1_555 1_555
C60 C54 1_555 1_555
C62 C56 1_555 1_555
C63 C60 1_555 1_555
C65 C62 1_555 1_555
H38 C63 1_555 1_555
H40 C65 1_555 1_555
H41 C63 1_555 1_555
H43 C65 1_555 1_555
H44 C63 1_555 1_555
H46 C65 1_555 1_555
C66 C60 1_555 1_555
C68 C62 1_555 1_555
H47 C66 1_555 1_555
H49 C68 1_555 1_555
C70 C58 1_555 1_555
H51 C70 1_555 1_555
N3 Zn3 1_555 1_555
O18 C25 1_555 1_555
Zn3 O2 1_555 1_555
Zn10 O19 1_555 1_555
C16 C17 1_555 1_555
C70 C73 1_555 1_555
O5 Zn3 1_555 1_555
O18 Zn3 1_555 1_555
O22 Zn3 1_555 1_555
H2 C4 1_555 1_555
C5 C4 1_555 1_555
C6 C5 1_555 1_555
H3 C6 1_555 1_555
H4 C6 1_555 1_555
H5 C6 1_555 1_555
C8 C5 1_555 1_555
C9 C8 1_555 1_555
C10 C9 1_555 1_555
C11 C10 1_555 1_555
C13 C11 1_555 1_555
C14 C13 1_555 1_555
H8 C14 1_555 1_555
H9 C14 1_555 1_555
H10 C14 1_555 1_555
C15 C13 1_555 1_555
H11 C15 1_555 1_555
C19 H13 1_555 1_555
C20 H14 1_555 1_555
C21 C20 1_555 1_555
H15 C21 1_555 1_555
C22 C19 1_555 1_555
H16 C22 1_555 1_555
C23 C21 1_555 1_555
N1 C19 1_555 1_555
Zn1 N1 1_555 1_555
C24 C27 1_555 1_555
C26 C29 1_555 1_555
C27 C30 1_555 1_555
C29 C31 1_555 1_555
C30 H17 1_555 1_555
C31 H18 1_555 1_555
H22 C35 1_555 1_555
C38 C35 1_555 1_555
C41 C38 1_555 1_555
H24 C41 1_555 1_555
H27 C41 1_555 1_555
H30 C41 1_555 1_555
C42 C30 1_555 1_555
C43 C31 1_555 1_555
H32 C42 1_555 1_555
H34 C43 1_555 1_555
C47 C38 1_555 1_555
C49 C47 1_555 1_555
C52 C49 1_555 1_555
C55 C52 1_555 1_555
H35 C57 1_555 1_555
H37 C59 1_555 1_555
C61 C55 1_555 1_555
C64 C61 1_555 1_555
H39 C64 1_555 1_555
H42 C64 1_555 1_555
H45 C64 1_555 1_555
C67 C61 1_555 1_555
H48 C67 1_555 1_555
C69 C57 1_555 1_555
C71 C59 1_555 1_555
H50 C69 1_555 1_555
H52 C71 1_555 1_555
C75 C72 1_555 1_555
C78 H53 1_555 1_555
C79 H54 1_555 1_555
C81 H56 1_555 1_555
C83 H58 1_555 1_555
C84 C81 1_555 1_555
C86 C83 1_555 1_555
H59 C84 1_555 1_555
H61 C86 1_555 1_555
C87 C78 1_555 1_555
C88 C79 1_555 1_555
H62 C87 1_555 1_555
H63 C88 1_555 1_555
C90 C23 1_555 1_555
N3 C78 1_555 1_555
O10 Zn1 1_555 1_555
O15 C24 1_555 1_555
O16 Zn1 1_555 1_555
O20 Zn1 1_555 1_555
Zn11 O4 1_555 1_555
Zn10 N5 1_555 1_555
C20 N1 1_555 1_555
C22 C23 1_555 1_555
O1 Zn1 1_555 1_555
C26 O16 1_555 1_555
C69 C72 1_555 1_555
C71 C74 1_555 1_555
C75 O10 1_555 1_555
C81 N3 1_555 1_555
C83 N5 1_555 1_555
C84 C90 1_555 1_555
C87 C90 1_555 1_555
C88 C91 1_555 1_555
C80 H55 1_555 1_555
C82 H57 1_555 1_555
C85 C82 1_555 1_555
H60 C85 1_555 1_555
C89 C80 1_555 1_555
H64 C89 1_555 1_555
Zn11 N4 1_555 1_555
C82 N4 1_555 1_555
C89 C92 1_555 1_555
H75 C107 1_555 1_555
C109 C107 1_555 1_555
C110 C109 1_555 1_555
O26 C110 1_555 1_555
O27 C110 1_555 1_555
Zn16 O26 1_555 1_555
Zn20 O27 1_555 1_555
H88 C126 1_555 1_555
C128 C127 1_555 1_555
O30 C128 1_555 1_555
O31 C128 1_555 1_555
Zn16 O30 1_555 1_555
Zn20 O31 1_555 1_555
C126 C127 1_555 1_555
C94 C95 1_555 1_555
C95 H65 1_555 1_555
C96 C94 1_555 1_555
H66 C96 1_555 1_555
C97 C96 1_555 1_555
H67 C97 1_555 1_555
C98 C95 1_555 1_555
C99 C98 1_555 1_555
H68 C99 1_555 1_555
H69 C99 1_555 1_555
H70 C99 1_555 1_555
C100 C97 1_555 1_555
C101 C100 1_555 1_555
C102 C101 1_555 1_555
C103 C102 1_555 1_555
C104 C103 1_555 1_555
C105 C104 1_555 1_555
H71 C105 1_555 1_555
H72 C105 1_555 1_555
H73 C105 1_555 1_555
C106 C103 1_555 1_555
H74 C106 1_555 1_555
C108 C104 1_555 1_555
H76 C108 1_555 1_555
C157 C158 1_555 1_555
C158 C159 1_555 1_555
C159 H109 1_555 1_555
C160 C158 1_555 1_555
H110 C160 1_555 1_555
C161 C160 1_555 1_555
H111 C161 1_555 1_555
C162 C159 1_555 1_555
C163 C162 1_555 1_555
H112 C163 1_555 1_555
H113 C163 1_555 1_555
H114 C163 1_555 1_555
C164 C161 1_555 1_555
C165 C164 1_555 1_555
C166 C165 1_555 1_555
C167 C166 1_555 1_555
C168 C167 1_555 1_555
H115 C168 1_555 1_555
C169 C167 1_555 1_555
C170 C169 1_555 1_555
H116 C170 1_555 1_555
H117 C170 1_555 1_555
H118 C170 1_555 1_555
C171 C169 1_555 1_555
H119 C171 1_555 1_555
C172 C168 1_555 1_555
H120 C172 1_555 1_555
C173 C171 1_555 1_555
O39 C157 1_555 1_555
O41 C157 1_555 1_555
Zn16 O39 1_555 1_555
Zn20 O41 1_555 1_555
C98 C100 1_555 1_555
C162 C164 1_555 1_555
C172 C173 1_555 1_555
C111 C112 1_555 1_555
C112 C113 1_555 1_555
C113 H77 1_555 1_555
C114 C112 1_555 1_555
H78 C114 1_555 1_555
C115 C114 1_555 1_555
H79 C115 1_555 1_555
C116 C113 1_555 1_555
C117 C116 1_555 1_555
H80 C117 1_555 1_555
H81 C117 1_555 1_555
H82 C117 1_555 1_555
C118 C115 1_555 1_555
C119 C118 1_555 1_555
C120 C119 1_555 1_555
C121 C120 1_555 1_555
C122 C121 1_555 1_555
H83 C122 1_555 1_555
C123 C121 1_555 1_555
C124 C123 1_555 1_555
H84 C124 1_555 1_555
H85 C124 1_555 1_555
H86 C124 1_555 1_555
C125 C123 1_555 1_555
H87 C125 1_555 1_555
C129 H89 1_555 1_555
C130 H90 1_555 1_555
C131 C130 1_555 1_555
H91 C131 1_555 1_555
C132 C129 1_555 1_555
H92 C132 1_555 1_555
C133 C131 1_555 1_555
C134 C133 1_555 1_555
C135 C134 1_555 1_555
H93 C135 1_555 1_555
C136 C134 1_555 1_555
H94 C136 1_555 1_555
N6 C129 1_555 1_555
O24 C93 1_555 1_555
O25 C93 1_555 1_555
O28 C111 1_555 1_555
O29 C111 1_555 1_555
Zn13 N6 1_555 1_555
C139 C140 1_555 1_555
C140 C141 1_555 1_555
C141 H97 1_555 1_555
C142 C140 1_555 1_555
H98 C142 1_555 1_555
C143 C142 1_555 1_555
H99 C143 1_555 1_555
C144 C141 1_555 1_555
C145 C144 1_555 1_555
H100 C145 1_555 1_555
H101 C145 1_555 1_555
H102 C145 1_555 1_555
C146 C143 1_555 1_555
C147 C146 1_555 1_555
C148 C147 1_555 1_555
C149 C148 1_555 1_555
C150 C149 1_555 1_555
C151 C150 1_555 1_555
H103 C151 1_555 1_555
H104 C151 1_555 1_555
H105 C151 1_555 1_555
C152 C149 1_555 1_555
H106 C152 1_555 1_555
C153 C152 1_555 1_555
H107 C153 1_555 1_555
C154 C150 1_555 1_555
H108 C154 1_555 1_555
C155 C153 1_555 1_555
C156 C155 1_555 1_555
C175 H121 1_555 1_555
C176 H122 1_555 1_555
C177 C176 1_555 1_555
H123 C177 1_555 1_555
C178 C175 1_555 1_555
H124 C178 1_555 1_555
C179 C177 1_555 1_555
C180 C179 1_555 1_555
C181 C180 1_555 1_555
H125 C181 1_555 1_555
C182 C180 1_555 1_555
H126 C182 1_555 1_555
N8 C175 1_555 1_555
N10 Zn19 1_555 1_555
O32 C139 1_555 1_555
O33 C139 1_555 1_555
O35 Zn13 1_555 1_555
O37 C156 1_555 1_555
O43 Zn13 1_555 1_555
O45 C174 1_555 1_555
Zn16 N8 1_555 1_555
Zn19 O25 1_555 1_555
Zn20 O33 1_555 1_555
C116 C118 1_555 1_555
C130 N6 1_555 1_555
C132 C133 1_555 1_555
O24 Zn13 1_555 1_555
O28 Zn13 1_555 1_555
O29 Zn19 1_555 1_555
C144 C146 1_555 1_555
C154 C155 1_555 1_555
C156 O35 1_555 1_555
C174 O43 1_555 1_555
C176 N8 1_555 1_555
C178 C179 1_555 1_555
O32 Zn16 1_555 1_555
O37 Zn19 1_555 1_555
O45 Zn19 1_555 1_555
H95 C137 1_555 1_555
H96 C138 1_555 1_555
N10 C137 1_555 1_555
H127 C183 1_555 1_555
H128 C184 1_555 1_555
N9 C183 1_555 1_555
Zn20 N9 1_555 1_555
C138 N10 1_555 1_555
C184 N9 1_555 1_555
C94_2 C95_2 1_555 1_555
C95_2 H65_2 1_555 1_555
C96_2 C94_2 1_555 1_555
H66_2 C96_2 1_555 1_555
C97_2 C96_2 1_555 1_555
H67_2 C97_2 1_555 1_555
C98_2 C95_2 1_555 1_555
C99_2 C98_2 1_555 1_555
H68_2 C99_2 1_555 1_555
H69_2 C99_2 1_555 1_555
H70_2 C99_2 1_555 1_555
C100_2 C97_2 1_555 1_555
C101_2 C100_2 1_555 1_555
C102_2 C101_2 1_555 1_555
C103_2 C102_2 1_555 1_555
C104_2 C103_2 1_555 1_555
C105_2 C104_2 1_555 1_555
H71_2 C105_2 1_555 1_555
H72_2 C105_2 1_555 1_555
H73_2 C105_2 1_555 1_555
C106_2 C103_2 1_555 1_555
H74_2 C106_2 1_555 1_555
C108_2 C104_2 1_555 1_555
H76_2 C108_2 1_555 1_555
C157_2 C158_2 1_555 1_555
C158_2 C159_2 1_555 1_555
C159_2 H109_2 1_555 1_555
C160_2 C158_2 1_555 1_555
H110_2 C160_2 1_555 1_555
C161_2 C160_2 1_555 1_555
H111_2 C161_2 1_555 1_555
C162_2 C159_2 1_555 1_555
C163_2 C162_2 1_555 1_555
H112_2 C163_2 1_555 1_555
H113_2 C163_2 1_555 1_555
H114_2 C163_2 1_555 1_555
C164_2 C161_2 1_555 1_555
C165_2 C164_2 1_555 1_555
C166_2 C165_2 1_555 1_555
C167_2 C166_2 1_555 1_555
C168_2 C167_2 1_555 1_555
H115_2 C168_2 1_555 1_555
C169_2 C167_2 1_555 1_555
C170_2 C169_2 1_555 1_555
H116_2 C170_2 1_555 1_555
H117_2 C170_2 1_555 1_555
H118_2 C170_2 1_555 1_555
C171_2 C169_2 1_555 1_555
H119_2 C171_2 1_555 1_555
C172_2 C168_2 1_555 1_555
H120_2 C172_2 1_555 1_555
C173_2 C171_2 1_555 1_555
O39_2 C157_2 1_555 1_555
O41_2 C157_2 1_555 1_555
Zn18 O39_2 1_555 1_555
Zn23 O41_2 1_555 1_555
C98_2 C100_2 1_555 1_555
C162_2 C164_2 1_555 1_555
C172_2 C173_2 1_555 1_555
H95_2 C137_2 1_555 1_555
H96_2 C138_2 1_555 1_555
N7 C137_2 1_555 1_555
Zn14 N7 1_555 1_555
H127_2 C183_2 1_555 1_555
H128_2 C184_2 1_555 1_555
N9_2 C183_2 1_555 1_555
O34 Zn14 1_555 1_555
O38 Zn14 1_555 1_555
O42 Zn14 1_555 1_555
O46 Zn14 1_555 1_555
Zn23 N9_2 1_555 1_555
C138_2 N7 1_555 1_555
C184_2 N9_2 1_555 1_555
C111_2 C112_2 1_555 1_555
C112_2 C113_2 1_555 1_555
C113_2 H77_2 1_555 1_555
C114_2 C112_2 1_555 1_555
H78_2 C114_2 1_555 1_555
C115_2 C114_2 1_555 1_555
H79_2 C115_2 1_555 1_555
C116_2 C113_2 1_555 1_555
C117_2 C116_2 1_555 1_555
H80_2 C117_2 1_555 1_555
H81_2 C117_2 1_555 1_555
H82_2 C117_2 1_555 1_555
C118_2 C115_2 1_555 1_555
C119_2 C118_2 1_555 1_555
C120_2 C119_2 1_555 1_555
C121_2 C120_2 1_555 1_555
C122_2 C121_2 1_555 1_555
H83_2 C122_2 1_555 1_555
C123_2 C121_2 1_555 1_555
C124_2 C123_2 1_555 1_555
H84_2 C124_2 1_555 1_555
H85_2 C124_2 1_555 1_555
H86_2 C124_2 1_555 1_555
C125_2 C123_2 1_555 1_555
H87_2 C125_2 1_555 1_555
C129_2 H89_2 1_555 1_555
C130_2 H90_2 1_555 1_555
C131_2 C130_2 1_555 1_555
H91_2 C131_2 1_555 1_555
C132_2 C129_2 1_555 1_555
H92_2 C132_2 1_555 1_555
C133_2 C131_2 1_555 1_555
C134_2 C133_2 1_555 1_555
C135_2 C134_2 1_555 1_555
H93_2 C135_2 1_555 1_555
C136_2 C134_2 1_555 1_555
H94_2 C136_2 1_555 1_555
N6_2 C129_2 1_555 1_555
O24_2 C93_2 1_555 1_555
O34 C93_2 1_555 1_555
O28_2 C111_2 1_555 1_555
O42 C111_2 1_555 1_555
Zn13_2 N6_2 1_555 1_555
C139_2 C140_2 1_555 1_555
C140_2 C141_2 1_555 1_555
C141_2 H97_2 1_555 1_555
C142_2 C140_2 1_555 1_555
H98_2 C142_2 1_555 1_555
C143_2 C142_2 1_555 1_555
H99_2 C143_2 1_555 1_555
C144_2 C141_2 1_555 1_555
C145_2 C144_2 1_555 1_555
H100_2 C145_2 1_555 1_555
H101_2 C145_2 1_555 1_555
H102_2 C145_2 1_555 1_555
C146_2 C143_2 1_555 1_555
C147_2 C146_2 1_555 1_555
C148_2 C147_2 1_555 1_555
C149_2 C148_2 1_555 1_555
C150_2 C149_2 1_555 1_555
C151_2 C150_2 1_555 1_555
H103_2 C151_2 1_555 1_555
H104_2 C151_2 1_555 1_555
H105_2 C151_2 1_555 1_555
C152_2 C149_2 1_555 1_555
H106_2 C152_2 1_555 1_555
C153_2 C152_2 1_555 1_555
H107_2 C153_2 1_555 1_555
C154_2 C150_2 1_555 1_555
H108_2 C154_2 1_555 1_555
C155_2 C153_2 1_555 1_555
C156_2 C155_2 1_555 1_555
C175_2 H121_2 1_555 1_555
C176_2 H122_2 1_555 1_555
C177_2 C176_2 1_555 1_555
H123_2 C177_2 1_555 1_555
C178_2 C175_2 1_555 1_555
H124_2 C178_2 1_555 1_555
C179_2 C177_2 1_555 1_555
C180_2 C179_2 1_555 1_555
C181_2 C180_2 1_555 1_555
H125_2 C181_2 1_555 1_555
C182_2 C180_2 1_555 1_555
H126_2 C182_2 1_555 1_555
N8_2 C175_2 1_555 1_555
O32_2 C139_2 1_555 1_555
O33_2 C139_2 1_555 1_555
O35_2 Zn13_2 1_555 1_555
O36 Zn18 1_555 1_555
O38 C156_2 1_555 1_555
O43_2 Zn13_2 1_555 1_555
O44 Zn18 1_555 1_555
O46 C174_2 1_555 1_555
Zn18 N8_2 1_555 1_555
Zn23 O33_2 1_555 1_555
C116_2 C118_2 1_555 1_555
C130_2 N6_2 1_555 1_555
C132_2 C133_2 1_555 1_555
O24_2 Zn13_2 1_555 1_555
O28_2 Zn13_2 1_555 1_555
C144_2 C146_2 1_555 1_555
C154_2 C155_2 1_555 1_555
C156_2 O35_2 1_555 1_555
C174_2 O43_2 1_555 1_555
C176_2 N8_2 1_555 1_555
C178_2 C179_2 1_555 1_555
O32_2 Zn18 1_555 1_555
H75_2 C107_2 1_555 1_555
C109_2 C107_2 1_555 1_555
C110_2 C109_2 1_555 1_555
O36 C110_2 1_555 1_555
O27_2 C110_2 1_555 1_555
Zn23 O27_2 1_555 1_555
H88_2 C126_2 1_555 1_555
C128_2 C127_2 1_555 1_555
O44 C128_2 1_555 1_555
O31_2 C128_2 1_555 1_555
Zn23 O31_2 1_555 1_555
C126_2 C127_2 1_555 1_555

#END
