
###############################################################################
#
# This file contains modified crystal structure data generated from the
# MOF subset of the Cambridge Structural Database (CSD) v543 
# hosted by the Cambridge Crystallographic Data Centre (CCDC).
#
# This work is licensed under the Creative Commons
# Attribution-NonCommercial-ShareAlike 4.0 International License.
# To view a copy of this license, visit
# http://creativecommons.org/licenses/by-nc-sa/4.0/
# or send a letter to
# Creative Commons, PO Box 1866, Mountain View, CA 94042, USA.
#
# CIF created using the CSD Python API on 29 September 2022
# The structure has been converted into the P1 space group
# The structure has a 3D framework
# The original CSD entry AFOQUI is in the orthorhombic crystal system
# The framework has been calculated to contain at least 10.0% void space
# The void calculation uses a probe of radius 1.32A, grid spacing 0.4
#
###############################################################################

data_AFOQUI
_chemical_formula_moiety         '(C208 H144 N92 O112 Zn45)n'
_symmetry_cell_setting           triclinic
_symmetry_space_group_name_H-M   'P 1'
_symmetry_Int_Tables_number      1
_space_group_name_Hall           'P 1'
loop_
_symmetry_equiv_pos_site_id
_symmetry_equiv_pos_as_xyz
1 x,y,z
_cell_length_a                   24.4776(17)
_cell_length_b                   34.405(2)
_cell_length_c                   9.8623(6)
_cell_angle_alpha                90
_cell_angle_beta                 90
_cell_angle_gamma                90
_cell_volume                     8305.55
loop_
_atom_site_label
_atom_site_type_symbol
_atom_site_fract_x
_atom_site_fract_y
_atom_site_fract_z
Zn1 Zn 0.5000 0.0000 0.47973(7)
Zn2 Zn 0.909640(14) 0.083990(10) 0.48124(4)
Zn3 Zn 0.551102(13) 0.097273(10) 0.48490(5)
O1 O 0.58418(9) 0.01558(7) 0.4829(4)
O2 O 0.62492(10) 0.07306(7) 0.4629(3)
O3 O 0.83155(10) 0.07041(8) 0.4623(3)
O4 O 0.87161(10) 0.01301(8) 0.4720(4)
O7 O 0.91144(12) 0.14203(7) 0.4822(4)
H1 H 0.9001 0.1576 0.4213
H2 H 0.9015 0.1466 0.5633
N1 N 0.50690(14) 0.07914(9) 0.3249(3)
N2 N 0.48714(14) 0.04163(9) 0.3232(3)
N3 N 0.45259(14) 0.07337(10) 0.1468(3)
N4 N 0.50831(13) 0.07660(10) 0.6414(3)
N5 N 0.48259(13) 0.04122(9) 0.6322(3)
N6 N 0.45045(14) 0.07183(11) 0.8119(3)
C1 C 0.62500(13) 0.03600(10) 0.4615(4)
C2 C 0.67810(15) 0.01591(10) 0.4315(4)
C3 C 0.72773(14) 0.03406(10) 0.4542(4)
H3 H 0.7286 0.0592 0.4885
C4 C 0.77606(15) 0.01481(11) 0.4257(4)
C5 C 0.83026(14) 0.03329(11) 0.4557(4)
C10 C 0.45536(15) 0.03943(11) 0.2159(4)
H6 H 0.4368 0.0170 0.1903
C11 C 0.48547(17) 0.09678(11) 0.2187(5)
H7 H 0.4924 0.1226 0.1961
C12 C 0.44894(15) 0.03963(11) 0.7345(5)
H8 H 0.4263 0.0185 0.7522
C13 C 0.48786(16) 0.09376(12) 0.7492(5)
H9 H 0.4982 0.1184 0.7786
Zn6 Zn 0.409640(14) 0.083990(10) 0.98124(4)
Zn11 Zn 0.301102(13) 0.152727(10) 0.23490(5)
O12 O 0.23321(10) 0.09312(7) 0.2321(4)
O13 O 0.32042(11) 0.09936(7) 0.2858(3)
O14 O 0.57042(11) 0.15064(7) 0.5358(3)
N10 N 0.95259(14) 0.07337(10) 0.6468(3)
N15 N 0.95045(14) 0.07183(11) 0.3119(3)
C19 C 0.22530(15) 0.02187(11) 0.3696(4)
H13 H 0.1928 0.0345 0.3489
C20 C 0.27517(14) 0.04022(11) 0.3436(4)
C21 C 0.27519(16) 0.07983(10) 0.2827(4)
C22 C 0.32334(15) 0.02149(11) 0.3793(4)
H14 H 0.3567 0.0341 0.3681
Zn1_2 Zn 0.5000 1.0000 0.47973(7)
O5 O 0.76679(10) 0.90688(7) 0.2321(4)
O6 O 0.67958(11) 0.90064(7) 0.2858(3)
C6 C 0.77470(15) 0.97813(11) 0.3696(4)
H4 H 0.8072 0.9655 0.3489
C7 C 0.72483(14) 0.95978(11) 0.3436(4)
C8 C 0.72481(16) 0.92017(10) 0.2827(4)
C9 C 0.67666(15) 0.97851(11) 0.3793(4)
H5 H 0.6433 0.9659 0.3681
Zn4 Zn 0.090360(14) 0.916010(10) 0.48124(4)
Zn8 Zn 0.590360(14) 0.916010(10) 0.98124(4)
Zn9 Zn 0.448898(13) 0.902727(10) 0.48490(5)
Zn10 Zn 0.698898(13) 0.847273(10) 0.23490(5)
O8 O 0.41582(9) 0.98442(7) 0.4829(4)
O9 O 0.37508(10) 0.92694(7) 0.4629(3)
O10 O 0.16845(10) 0.92959(8) 0.4623(3)
O11 O 0.12839(10) 0.98699(8) 0.4720(4)
O15 O 0.42958(11) 0.84936(7) 0.5358(3)
O16 O 0.08856(12) 0.85797(7) 0.4822(4)
H10 H 0.0999 0.8424 0.4213
H11 H 0.0985 0.8534 0.5633
N7 N 0.49310(14) 0.92086(9) 0.3249(3)
N8 N 0.51286(14) 0.95837(9) 0.3232(3)
N9 N 0.54741(14) 0.92663(10) 0.1468(3)
N11 N 0.04741(14) 0.92663(10) 0.6468(3)
N12 N 0.49169(13) 0.92340(10) 0.6414(3)
N13 N 0.51741(13) 0.95878(9) 0.6322(3)
N14 N 0.54955(14) 0.92817(11) 0.8119(3)
N16 N 0.04955(14) 0.92817(11) 0.3119(3)
C14 C 0.37500(13) 0.96400(10) 0.4615(4)
C15 C 0.32190(15) 0.98409(10) 0.4315(4)
C16 C 0.27227(14) 0.96594(10) 0.4542(4)
H12 H 0.2714 0.9408 0.4885
C17 C 0.22394(15) 0.98519(11) 0.4257(4)
C18 C 0.16974(14) 0.96671(11) 0.4557(4)
C23 C 0.54464(15) 0.96057(11) 0.2159(4)
H15 H 0.5632 0.9830 0.1903
C24 C 0.51453(17) 0.90322(11) 0.2187(5)
H16 H 0.5076 0.8774 0.1961
C25 C 0.55106(15) 0.96037(11) 0.7345(5)
H17 H 0.5737 0.9815 0.7522
C26 C 0.51214(16) 0.90624(12) 0.7492(5)
H18 H 0.5018 0.8816 0.7786
Zn2_2 Zn 0.159640(14) 0.166010(10) 0.73124(4)
O3_2 O 0.08155(10) 0.17959(8) 0.7123(3)
O4_2 O 0.12161(10) 0.23699(8) 0.7220(4)
O5_2 O 0.01679(10) 0.34312(7) 0.4821(4)
O7_2 O 0.16144(12) 0.10797(7) 0.7322(4)
H1_2 H 0.1501 0.0924 0.6713
H2_2 H 0.1515 0.1034 0.8133
C4_2 C 0.02606(15) 0.23519(11) 0.6757(4)
C5_2 C 0.08026(14) 0.21671(11) 0.7057(4)
C6_2 C 0.02470(15) 0.27187(11) 0.6196(4)
H4_2 H 0.0572 0.2845 0.5989
N10_2 N 0.20259(14) 0.17663(10) 0.8968(3)
N15_2 N 0.20045(14) 0.17817(11) 0.5619(3)
N6_2 N 0.70045(14) 0.17817(11) 0.0619(3)
H8_2 H 0.6763 0.2315 0.0022
H9_2 H 0.7482 0.1316 0.0286
Zn6_2 Zn 0.659640(14) 0.166010(10) 0.23124(4)
Zn8_2 Zn 0.840360(14) 0.333990(10) 0.23124(4)
N14_2 N 0.79955(14) 0.32183(11) 0.0619(3)
H17_2 H 0.8237 0.2685 0.0022
H18_2 H 0.7518 0.3684 0.0286
Zn1_3 Zn 0.7500 0.2500 0.72973(7)
Zn3_2 Zn 0.801102(13) 0.152727(10) 0.73490(5)
O1_2 O 0.83418(9) 0.23442(7) 0.7329(4)
O2_2 O 0.87492(10) 0.17694(7) 0.7129(3)
O6_2 O 0.92958(11) 0.34936(7) 0.5358(3)
N1_2 N 0.75690(14) 0.17086(9) 0.5749(3)
N2_2 N 0.73714(14) 0.20837(9) 0.5732(3)
N3_2 N 0.70259(14) 0.17663(10) 0.3968(3)
N4_2 N 0.75831(13) 0.17340(10) 0.8914(3)
N5_2 N 0.73259(13) 0.20878(9) 0.8822(3)
C1_2 C 0.87500(13) 0.21400(10) 0.7115(4)
C2_2 C 0.92810(15) 0.23409(10) 0.6815(4)
C3_2 C 0.97773(14) 0.21594(10) 0.7042(4)
H3_2 H 0.9786 0.1908 0.7385
C7_2 C 0.97483(14) 0.29022(11) 0.5936(4)
C8_2 C 0.97481(16) 0.32983(10) 0.5327(4)
C9_2 C 0.92666(15) 0.27149(11) 0.6293(4)
H5_2 H 0.8933 0.2841 0.6181
C10_2 C 0.70536(15) 0.21057(11) 0.4659(4)
H6_2 H 0.6868 0.2330 0.4403
C11_2 C 0.73547(17) 0.15322(11) 0.4687(5)
H7_2 H 0.7424 0.1274 0.4461
C12_2 C 0.69894(15) 0.21037(11) 0.9845(5)
C13_2 C 0.73786(16) 0.15624(12) 0.9992(5)
Zn4_2 Zn 0.340360(14) 0.333990(10) 0.73124(4)
Zn9_2 Zn 0.698898(13) 0.347273(10) 0.73490(5)
Zn10_2 Zn 0.948898(13) 0.402727(10) 0.48490(5)
O8_2 O 0.66582(9) 0.26558(7) 0.7329(4)
O9_2 O 0.62508(10) 0.32306(7) 0.7129(3)
O10_2 O 0.41845(10) 0.32041(8) 0.7123(3)
O11_2 O 0.37839(10) 0.26301(8) 0.7220(4)
O12_2 O 0.48321(10) 0.15688(7) 0.4821(4)
O14_2 O 0.82042(11) 0.09936(7) 0.7858(3)
O15_2 O 0.67958(11) 0.40064(7) 0.7858(3)
O16_2 O 0.33856(12) 0.39203(7) 0.7322(4)
H10_2 H 0.3499 0.4076 0.6713
H11_2 H 0.3485 0.3966 0.8133
N7_2 N 0.74310(14) 0.32914(9) 0.5749(3)
N8_2 N 0.76286(14) 0.29163(9) 0.5732(3)
N9_2 N 0.79741(14) 0.32337(10) 0.3968(3)
N11_2 N 0.29741(14) 0.32337(10) 0.8968(3)
N12_2 N 0.74169(13) 0.32660(10) 0.8914(3)
N13_2 N 0.76741(13) 0.29122(9) 0.8822(3)
N16_2 N 0.29955(14) 0.32183(11) 0.5619(3)
C14_2 C 0.62500(13) 0.28600(10) 0.7115(4)
C15_2 C 0.57190(15) 0.26591(10) 0.6815(4)
C16_2 C 0.52227(14) 0.28406(10) 0.7042(4)
H12_2 H 0.5214 0.3092 0.7385
C17_2 C 0.47394(15) 0.26481(11) 0.6757(4)
C18_2 C 0.41974(14) 0.28329(11) 0.7057(4)
C19_2 C 0.47530(15) 0.22813(11) 0.6196(4)
H13_2 H 0.4428 0.2155 0.5989
C20_2 C 0.52517(14) 0.20978(11) 0.5936(4)
C21_2 C 0.52519(16) 0.17017(10) 0.5327(4)
C22_2 C 0.57334(15) 0.22851(11) 0.6293(4)
H14_2 H 0.6067 0.2159 0.6181
C23_2 C 0.79464(15) 0.28943(11) 0.4659(4)
H15_2 H 0.8132 0.2670 0.4403
C24_2 C 0.76453(17) 0.34678(11) 0.4687(5)
H16_2 H 0.7576 0.3726 0.4461
C25_2 C 0.80106(15) 0.28963(11) 0.9845(5)
C26_2 C 0.76214(16) 0.34376(12) 0.9992(5)
H2_3 H 0.9015 0.6466 0.0633
N4_3 N 0.50831(13) 0.57660(10) 0.1414(3)
N5_3 N 0.48259(13) 0.54122(9) 0.1322(3)
N6_3 N 0.45045(14) 0.57183(11) 0.3119(3)
C12_3 C 0.44894(15) 0.53963(11) 0.2345(5)
H8_3 H 0.4263 0.5185 0.2522
C13_3 C 0.48786(16) 0.59376(12) 0.2492(5)
H9_3 H 0.4982 0.6184 0.2786
Zn6_3 Zn 0.409640(14) 0.583990(10) 0.48124(4)
Zn8_3 Zn 0.590360(14) 0.416010(10) 0.48124(4)
O14_3 O 0.57042(11) 0.65064(7) 0.0358(3)
O15_3 O 0.42958(11) 0.34936(7) 0.0358(3)
H11_3 H 0.0985 0.3534 0.0633
N10_3 N 0.95259(14) 0.57337(10) 0.1468(3)
N11_3 N 0.04741(14) 0.42663(10) 0.1468(3)
N12_3 N 0.49169(13) 0.42340(10) 0.1414(3)
N13_3 N 0.51741(13) 0.45878(9) 0.1322(3)
N14_3 N 0.54955(14) 0.42817(11) 0.3119(3)
C25_3 C 0.55106(15) 0.46037(11) 0.2345(5)
H17_3 H 0.5737 0.4815 0.2522
C26_3 C 0.51214(16) 0.40624(12) 0.2492(5)
H18_3 H 0.5018 0.3816 0.2786
Zn1_4 Zn 0.5000 0.5000 0.97973(7)
Zn2_3 Zn 0.909640(14) 0.583990(10) 0.98124(4)
Zn3_3 Zn 0.551102(13) 0.597273(10) 0.98490(5)
O1_3 O 0.58418(9) 0.51558(7) 0.9829(4)
O2_3 O 0.62492(10) 0.57306(7) 0.9629(3)
O3_3 O 0.83155(10) 0.57041(8) 0.9623(3)
O4_3 O 0.87161(10) 0.51301(8) 0.9720(4)
O5_3 O 0.76679(10) 0.40688(7) 0.7321(4)
O7_3 O 0.91144(12) 0.64203(7) 0.9822(4)
H1_3 H 0.9001 0.6576 0.9213
N1_3 N 0.50690(14) 0.57914(9) 0.8249(3)
N2_3 N 0.48714(14) 0.54163(9) 0.8232(3)
N3_3 N 0.45259(14) 0.57337(10) 0.6468(3)
C1_3 C 0.62500(13) 0.53600(10) 0.9615(4)
C2_3 C 0.67810(15) 0.51591(10) 0.9315(4)
C3_3 C 0.72773(14) 0.53406(10) 0.9542(4)
H3_3 H 0.7286 0.5592 0.9885
C4_3 C 0.77606(15) 0.51481(11) 0.9257(4)
C5_3 C 0.83026(14) 0.53329(11) 0.9557(4)
C6_3 C 0.77470(15) 0.47813(11) 0.8696(4)
H4_3 H 0.8072 0.4655 0.8489
C7_3 C 0.72483(14) 0.45978(11) 0.8436(4)
C8_3 C 0.72481(16) 0.42017(10) 0.7827(4)
C9_3 C 0.67666(15) 0.47851(11) 0.8793(4)
H5_3 H 0.6433 0.4659 0.8681
C10_3 C 0.45536(15) 0.53943(11) 0.7159(4)
H6_3 H 0.4368 0.5170 0.6903
C11_3 C 0.48547(17) 0.59678(11) 0.7187(5)
H7_3 H 0.4924 0.6226 0.6961
Zn4_3 Zn 0.090360(14) 0.416010(10) 0.98124(4)
Zn9_3 Zn 0.448898(13) 0.402727(10) 0.98490(5)
Zn11_2 Zn 0.301102(13) 0.652727(10) 0.73490(5)
O8_3 O 0.41582(9) 0.48442(7) 0.9829(4)
O9_3 O 0.37508(10) 0.42694(7) 0.9629(3)
O10_3 O 0.16845(10) 0.42959(8) 0.9623(3)
O11_3 O 0.12839(10) 0.48699(8) 0.9720(4)
O12_3 O 0.23321(10) 0.59312(7) 0.7321(4)
O13_2 O 0.32042(11) 0.59936(7) 0.7858(3)
O16_3 O 0.08856(12) 0.35797(7) 0.9822(4)
H10_3 H 0.0999 0.3424 0.9213
N7_3 N 0.49310(14) 0.42086(9) 0.8249(3)
N8_3 N 0.51286(14) 0.45837(9) 0.8232(3)
N9_3 N 0.54741(14) 0.42663(10) 0.6468(3)
N15_3 N 0.95045(14) 0.57183(11) 0.8119(3)
N16_3 N 0.04955(14) 0.42817(11) 0.8119(3)
C14_3 C 0.37500(13) 0.46400(10) 0.9615(4)
C15_3 C 0.32190(15) 0.48409(10) 0.9315(4)
C16_3 C 0.27227(14) 0.46594(10) 0.9542(4)
H12_3 H 0.2714 0.4408 0.9885
C17_3 C 0.22394(15) 0.48519(11) 0.9257(4)
C18_3 C 0.16974(14) 0.46671(11) 0.9557(4)
C19_3 C 0.22530(15) 0.52187(11) 0.8696(4)
H13_3 H 0.1928 0.5345 0.8489
C20_3 C 0.27517(14) 0.54022(11) 0.8436(4)
C21_3 C 0.27519(16) 0.57983(10) 0.7827(4)
C22_3 C 0.32334(15) 0.52149(11) 0.8793(4)
H14_3 H 0.3567 0.5341 0.8681
C23_3 C 0.54464(15) 0.46057(11) 0.7159(4)
H15_3 H 0.5632 0.4830 0.6903
C24_3 C 0.51453(17) 0.40322(11) 0.7187(5)
H16_3 H 0.5076 0.3774 0.6961
Zn2_4 Zn 0.159640(14) 0.666010(10) 0.23124(4)
O3_4 O 0.08155(10) 0.67959(8) 0.2123(3)
O4_4 O 0.12161(10) 0.73699(8) 0.2220(4)
O7_4 O 0.16144(12) 0.60797(7) 0.2322(4)
H1_4 H 0.1501 0.5924 0.1713
H2_4 H 0.1515 0.6034 0.3133
C4_4 C 0.02606(15) 0.73519(11) 0.1757(4)
C5_4 C 0.08026(14) 0.71671(11) 0.2057(4)
C6_4 C 0.02470(15) 0.77187(11) 0.1196(4)
H4_4 H 0.0572 0.7845 0.0989
N10_4 N 0.20259(14) 0.67663(10) 0.3968(3)
N15_4 N 0.20045(14) 0.67817(11) 0.0619(3)
Zn1_5 Zn 0.7500 0.7500 0.22973(7)
Zn3_4 Zn 0.801102(13) 0.652727(10) 0.23490(5)
O1_4 O 0.83418(9) 0.73442(7) 0.2329(4)
O2_4 O 0.87492(10) 0.67694(7) 0.2129(3)
O6_3 O 0.92958(11) 0.84936(7) 0.0358(3)
N1_4 N 0.75690(14) 0.67086(9) 0.0749(3)
N2_4 N 0.73714(14) 0.70837(9) 0.0732(3)
N4_4 N 0.75831(13) 0.67340(10) 0.3914(3)
N5_4 N 0.73259(13) 0.70878(9) 0.3822(3)
N6_4 N 0.70045(14) 0.67817(11) 0.5619(3)
C1_4 C 0.87500(13) 0.71400(10) 0.2115(4)
C2_4 C 0.92810(15) 0.73409(10) 0.1815(4)
C3_4 C 0.97773(14) 0.71594(10) 0.2042(4)
H3_4 H 0.9786 0.6908 0.2385
C7_4 C 0.97483(14) 0.79022(11) 0.0936(4)
C8_4 C 0.97481(16) 0.82983(10) 0.0327(4)
C9_4 C 0.92666(15) 0.77149(11) 0.1293(4)
H5_4 H 0.8933 0.7841 0.1181
C12_4 C 0.69894(15) 0.71037(11) 0.4845(5)
H8_4 H 0.6763 0.7315 0.5022
C13_4 C 0.73786(16) 0.65624(12) 0.4992(5)
H9_4 H 0.7482 0.6316 0.5286
Zn4_4 Zn 0.340360(14) 0.833990(10) 0.23124(4)
Zn6_4 Zn 0.659640(14) 0.666010(10) 0.73124(4)
Zn8_4 Zn 0.840360(14) 0.833990(10) 0.73124(4)
O8_4 O 0.66582(9) 0.76558(7) 0.2329(4)
O9_4 O 0.62508(10) 0.82306(7) 0.2129(3)
O10_4 O 0.41845(10) 0.82041(8) 0.2123(3)
O11_4 O 0.37839(10) 0.76301(8) 0.2220(4)
O14_4 O 0.82042(11) 0.59936(7) 0.2858(3)
O16_4 O 0.33856(12) 0.89203(7) 0.2322(4)
H10_4 H 0.3499 0.9076 0.1713
H11_4 H 0.3485 0.8966 0.3133
N7_4 N 0.74310(14) 0.82914(9) 0.0749(3)
N8_4 N 0.76286(14) 0.79163(9) 0.0732(3)
N11_4 N 0.29741(14) 0.82337(10) 0.3968(3)
N12_4 N 0.74169(13) 0.82660(10) 0.3914(3)
N13_4 N 0.76741(13) 0.79122(9) 0.3822(3)
N14_4 N 0.79955(14) 0.82183(11) 0.5619(3)
N16_4 N 0.29955(14) 0.82183(11) 0.0619(3)
C14_4 C 0.62500(13) 0.78600(10) 0.2115(4)
C15_4 C 0.57190(15) 0.76591(10) 0.1815(4)
C16_4 C 0.52227(14) 0.78406(10) 0.2042(4)
H12_4 H 0.5214 0.8092 0.2385
C17_4 C 0.47394(15) 0.76481(11) 0.1757(4)
C18_4 C 0.41974(14) 0.78329(11) 0.2057(4)
C19_4 C 0.47530(15) 0.72813(11) 0.1196(4)
H13_4 H 0.4428 0.7155 0.0989
C20_4 C 0.52517(14) 0.70978(11) 0.0936(4)
C21_4 C 0.52519(16) 0.67017(10) 0.0327(4)
C22_4 C 0.57334(15) 0.72851(11) 0.1293(4)
H14_4 H 0.6067 0.7159 0.1181
C25_4 C 0.80106(15) 0.78963(11) 0.4845(5)
H17_4 H 0.8237 0.7685 0.5022
C26_4 C 0.76214(16) 0.84376(12) 0.4992(5)
H18_4 H 0.7518 0.8684 0.5286
N3_4 N 0.70259(14) 0.67663(10) 0.8968(3)
C10_4 C 0.70536(15) 0.71057(11) 0.9659(4)
H6_4 H 0.6868 0.7330 0.9403
C11_4 C 0.73547(17) 0.65322(11) 0.9687(5)
H7_4 H 0.7424 0.6274 0.9461
Zn10_3 Zn 0.948898(13) 0.902727(10) 0.98490(5)
O12_4 O 0.48321(10) 0.65688(7) 0.9821(4)
N9_4 N 0.79741(14) 0.82337(10) 0.8968(3)
C23_4 C 0.79464(15) 0.78943(11) 0.9659(4)
H15_4 H 0.8132 0.7670 0.9403
C24_4 C 0.76453(17) 0.84678(11) 0.9687(5)
H16_4 H 0.7576 0.8726 0.9461
H2_5 H 0.4015 0.1466 0.0633
N4_5 N 0.00831(13) 0.07660(10) 0.1414(3)
O14_5 O 0.07042(11) 0.15064(7) 0.0358(3)
Zn1_6 Zn -0.0000 0.0000 0.97973(7)
Zn3_5 Zn 0.051102(13) 0.097273(10) 0.98490(5)
O1_5 O 0.08418(9) 0.01558(7) 0.9829(4)
O2_5 O 0.12492(10) 0.07306(7) 0.9629(3)
O3_5 O 0.33155(10) 0.07041(8) 0.9623(3)
O4_5 O 0.37161(10) 0.01301(8) 0.9720(4)
O7_5 O 0.41144(12) 0.14203(7) 0.9822(4)
H1_5 H 0.4001 0.1576 0.9213
N1_5 N 0.00690(14) 0.07914(9) 0.8249(3)
C1_5 C 0.12500(13) 0.03600(10) 0.9615(4)
C2_5 C 0.17810(15) 0.01591(10) 0.9315(4)
C3_5 C 0.22773(14) 0.03406(10) 0.9542(4)
H3_5 H 0.2286 0.0592 0.9885
C4_5 C 0.27606(15) 0.01481(11) 0.9257(4)
C5_5 C 0.33026(14) 0.03329(11) 0.9557(4)
N13_5 N 0.01741(13) 0.95878(9) 0.1322(3)
C25_5 C 0.05106(15) 0.96037(11) 0.2345(5)
H17_5 H 0.0737 0.9815 0.2522
C26_5 C 0.01214(16) 0.90624(12) 0.2492(5)
H18_5 H 0.0018 0.8816 0.2786
Zn1_7 Zn -0.0000 1.0000 0.97973(7)
O5_4 O 0.26679(10) 0.90688(7) 0.7321(4)
O6_4 O 0.17958(11) 0.90064(7) 0.7858(3)
C6_5 C 0.27470(15) 0.97813(11) 0.8696(4)
H4_5 H 0.3072 0.9655 0.8489
C7_5 C 0.22483(14) 0.95978(11) 0.8436(4)
C8_5 C 0.22481(16) 0.92017(10) 0.7827(4)
C9_5 C 0.17666(15) 0.97851(11) 0.8793(4)
H5_5 H 0.1433 0.9659 0.8681
Zn10_4 Zn 0.198898(13) 0.847273(10) 0.73490(5)
N8_5 N 0.01286(14) 0.95837(9) 0.8232(3)
C23_5 C 0.04464(15) 0.96057(11) 0.7159(4)
H15_5 H 0.0632 0.9830 0.6903
C24_5 C 0.01453(17) 0.90322(11) 0.7187(5)
H16_5 H 0.0076 0.8774 0.6961
N5_5 N 0.98259(13) 0.04122(9) 0.1322(3)
C12_5 C 0.94894(15) 0.03963(11) 0.2345(5)
H8_5 H 0.9263 0.0185 0.2522
C13_5 C 0.98786(16) 0.09376(12) 0.2492(5)
H9_5 H 0.9982 0.1184 0.2786
Zn1_8 Zn 1.0000 0.0000 0.97973(7)
N2_5 N 0.98714(14) 0.04163(9) 0.8232(3)
C10_5 C 0.95536(15) 0.03943(11) 0.7159(4)
H6_5 H 0.9368 0.0170 0.6903
C11_5 C 0.98547(17) 0.09678(11) 0.7187(5)
H7_5 H 0.9924 0.1226 0.6961
O12_5 O 0.73321(10) 0.09312(7) 0.7321(4)
C19_5 C 0.72530(15) 0.02187(11) 0.8696(4)
H13_5 H 0.6928 0.0345 0.8489
C20_5 C 0.77517(14) 0.04022(11) 0.8436(4)
C21_5 C 0.77519(16) 0.07983(10) 0.7827(4)
C22_5 C 0.82334(15) 0.02149(11) 0.8793(4)
H14_5 H 0.8567 0.0341 0.8681
H11_5 H 0.5985 0.8534 0.0633
N12_5 N 0.99169(13) 0.92340(10) 0.1414(3)
Zn1_9 Zn 1.0000 1.0000 0.97973(7)
O8_5 O 0.91582(9) 0.98442(7) 0.9829(4)
O9_5 O 0.87508(10) 0.92694(7) 0.9629(3)
O10_5 O 0.66845(10) 0.92959(8) 0.9623(3)
O11_5 O 0.62839(10) 0.98699(8) 0.9720(4)
O16_5 O 0.58856(12) 0.85797(7) 0.9822(4)
H10_5 H 0.5999 0.8424 0.9213
N7_5 N 0.99310(14) 0.92086(9) 0.8249(3)
C14_5 C 0.87500(13) 0.96400(10) 0.9615(4)
C15_5 C 0.82190(15) 0.98409(10) 0.9315(4)
C16_5 C 0.77227(14) 0.96594(10) 0.9542(4)
H12_5 H 0.7714 0.9408 0.9885
C17_5 C 0.72394(15) 0.98519(11) 0.9257(4)
C18_5 C 0.66974(14) 0.96671(11) 0.9557(4)
Zn1_10 Zn 0.2500 0.2500 0.22973(7)
O1_6 O 0.33418(9) 0.23442(7) 0.2329(4)
O2_6 O 0.37492(10) 0.17694(7) 0.2129(3)
O3_6 O 0.58155(10) 0.17959(8) 0.2123(3)
O4_6 O 0.62161(10) 0.23699(8) 0.2220(4)
O7_6 O 0.66144(12) 0.10797(7) 0.2322(4)
H1_6 H 0.6501 0.0924 0.1713
H2_6 H 0.6515 0.1034 0.3133
N1_6 N 0.25690(14) 0.17086(9) 0.0749(3)
N2_6 N 0.23714(14) 0.20837(9) 0.0732(3)
N4_6 N 0.25831(13) 0.17340(10) 0.3914(3)
N5_6 N 0.23259(13) 0.20878(9) 0.3822(3)
C1_6 C 0.37500(13) 0.21400(10) 0.2115(4)
C2_6 C 0.42810(15) 0.23409(10) 0.1815(4)
C3_6 C 0.47773(14) 0.21594(10) 0.2042(4)
H3_6 H 0.4786 0.1908 0.2385
C4_6 C 0.52606(15) 0.23519(11) 0.1757(4)
C5_6 C 0.58026(14) 0.21671(11) 0.2057(4)
C6_6 C 0.52470(15) 0.27187(11) 0.1196(4)
H4_6 H 0.5572 0.2845 0.0989
C7_6 C 0.47483(14) 0.29022(11) 0.0936(4)
C8_6 C 0.47481(16) 0.32983(10) 0.0327(4)
C9_6 C 0.42666(15) 0.27149(11) 0.1293(4)
H5_6 H 0.3933 0.2841 0.1181
C12_6 C 0.19894(15) 0.21037(11) 0.4845(5)
H8_6 H 0.1763 0.2315 0.5022
C13_6 C 0.23786(16) 0.15624(12) 0.4992(5)
H9_6 H 0.2482 0.1316 0.5286
Zn9_4 Zn 0.198898(13) 0.347273(10) 0.23490(5)
O8_6 O 0.16582(9) 0.26558(7) 0.2329(4)
O9_6 O 0.12508(10) 0.32306(7) 0.2129(3)
O15_4 O 0.17958(11) 0.40064(7) 0.2858(3)
N7_6 N 0.24310(14) 0.32914(9) 0.0749(3)
N8_6 N 0.26286(14) 0.29163(9) 0.0732(3)
N12_6 N 0.24169(13) 0.32660(10) 0.3914(3)
N13_6 N 0.26741(13) 0.29122(9) 0.3822(3)
C14_6 C 0.12500(13) 0.28600(10) 0.2115(4)
C15_6 C 0.07190(15) 0.26591(10) 0.1815(4)
C16_6 C 0.02227(14) 0.28406(10) 0.2042(4)
H12_6 H 0.0214 0.3092 0.2385
C20_6 C 0.02517(14) 0.20978(11) 0.0936(4)
C21_6 C 0.02519(16) 0.17017(10) 0.0327(4)
C22_6 C 0.07334(15) 0.22851(11) 0.1293(4)
H14_6 H 0.1067 0.2159 0.1181
C25_6 C 0.30106(15) 0.28963(11) 0.4845(5)
H17_6 H 0.3237 0.2685 0.5022
C26_6 C 0.26214(16) 0.34376(12) 0.4992(5)
H18_6 H 0.2518 0.3684 0.5286
O5_5 O 0.51679(10) 0.34312(7) 0.9821(4)
C10_6 C 0.20536(15) 0.21057(11) 0.9659(4)
H6_6 H 0.1868 0.2330 0.9403
C11_6 C 0.23547(17) 0.15322(11) 0.9687(5)
H7_6 H 0.2424 0.1274 0.9461
C23_6 C 0.29464(15) 0.28943(11) 0.9659(4)
H15_6 H 0.3132 0.2670 0.9403
C24_6 C 0.26453(17) 0.34678(11) 0.9687(5)
H16_6 H 0.2576 0.3726 0.9461
O10_6 O 0.91845(10) 0.32041(8) 0.2123(3)
O11_6 O 0.87839(10) 0.26301(8) 0.2220(4)
O16_6 O 0.83856(12) 0.39203(7) 0.2322(4)
H10_6 H 0.8499 0.4076 0.1713
H11_6 H 0.8485 0.3966 0.3133
C17_6 C 0.97394(15) 0.26481(11) 0.1757(4)
C18_6 C 0.91974(14) 0.28329(11) 0.2057(4)
C19_6 C 0.97530(15) 0.22813(11) 0.1196(4)
H13_6 H 0.9428 0.2155 0.0989
Zn1_11 Zn -0.0000 0.5000 0.47973(7)
Zn3_6 Zn 0.051102(13) 0.597273(10) 0.48490(5)
O1_7 O 0.08418(9) 0.51558(7) 0.4829(4)
O2_7 O 0.12492(10) 0.57306(7) 0.4629(3)
O3_7 O 0.33155(10) 0.57041(8) 0.4623(3)
O4_7 O 0.37161(10) 0.51301(8) 0.4720(4)
O5_6 O 0.26679(10) 0.40688(7) 0.2321(4)
O7_7 O 0.41144(12) 0.64203(7) 0.4822(4)
H1_7 H 0.4001 0.6576 0.4213
H2_7 H 0.4015 0.6466 0.5633
N1_7 N 0.00690(14) 0.57914(9) 0.3249(3)
N4_7 N 0.00831(13) 0.57660(10) 0.6414(3)
C1_7 C 0.12500(13) 0.53600(10) 0.4615(4)
C2_7 C 0.17810(15) 0.51591(10) 0.4315(4)
C3_7 C 0.22773(14) 0.53406(10) 0.4542(4)
H3_7 H 0.2286 0.5592 0.4885
C4_7 C 0.27606(15) 0.51481(11) 0.4257(4)
C5_7 C 0.33026(14) 0.53329(11) 0.4557(4)
C6_7 C 0.27470(15) 0.47813(11) 0.3696(4)
H4_7 H 0.3072 0.4655 0.3489
C7_7 C 0.22483(14) 0.45978(11) 0.3436(4)
C8_7 C 0.22481(16) 0.42017(10) 0.2827(4)
C9_7 C 0.17666(15) 0.47851(11) 0.3793(4)
H5_7 H 0.1433 0.4659 0.3681
O14_6 O 0.07042(11) 0.65064(7) 0.5358(3)
N8_7 N 0.01286(14) 0.45837(9) 0.3232(3)
N13_7 N 0.01741(13) 0.45878(9) 0.6322(3)
C23_7 C 0.04464(15) 0.46057(11) 0.2159(4)
H15_7 H 0.0632 0.4830 0.1903
C24_7 C 0.01453(17) 0.40322(11) 0.2187(5)
H16_7 H 0.0076 0.3774 0.1961
C25_7 C 0.05106(15) 0.46037(11) 0.7345(5)
H17_7 H 0.0737 0.4815 0.7522
C26_7 C 0.01214(16) 0.40624(12) 0.7492(5)
H18_7 H 0.0018 0.3816 0.7786
Zn1_12 Zn 1.0000 0.5000 0.47973(7)
N2_7 N 0.98714(14) 0.54163(9) 0.3232(3)
N5_7 N 0.98259(13) 0.54122(9) 0.6322(3)
C10_7 C 0.95536(15) 0.53943(11) 0.2159(4)
H6_7 H 0.9368 0.5170 0.1903
C11_7 C 0.98547(17) 0.59678(11) 0.2187(5)
H7_7 H 0.9924 0.6226 0.1961
C12_7 C 0.94894(15) 0.53963(11) 0.7345(5)
H8_7 H 0.9263 0.5185 0.7522
C13_7 C 0.98786(16) 0.59376(12) 0.7492(5)
H9_7 H 0.9982 0.6184 0.7786
O8_7 O 0.91582(9) 0.48442(7) 0.4829(4)
O9_7 O 0.87508(10) 0.42694(7) 0.4629(3)
O10_7 O 0.66845(10) 0.42959(8) 0.4623(3)
O11_7 O 0.62839(10) 0.48699(8) 0.4720(4)
O12_6 O 0.73321(10) 0.59312(7) 0.2321(4)
O16_7 O 0.58856(12) 0.35797(7) 0.4822(4)
H10_7 H 0.5999 0.3424 0.4213
H11_7 H 0.5985 0.3534 0.5633
N7_7 N 0.99310(14) 0.42086(9) 0.3249(3)
N12_7 N 0.99169(13) 0.42340(10) 0.6414(3)
C14_7 C 0.87500(13) 0.46400(10) 0.4615(4)
C15_7 C 0.82190(15) 0.48409(10) 0.4315(4)
C16_7 C 0.77227(14) 0.46594(10) 0.4542(4)
H12_7 H 0.7714 0.4408 0.4885
C17_7 C 0.72394(15) 0.48519(11) 0.4257(4)
C18_7 C 0.66974(14) 0.46671(11) 0.4557(4)
C19_7 C 0.72530(15) 0.52187(11) 0.3696(4)
H13_7 H 0.6928 0.5345 0.3489
C20_7 C 0.77517(14) 0.54022(11) 0.3436(4)
C21_7 C 0.77519(16) 0.57983(10) 0.2827(4)
C22_7 C 0.82334(15) 0.52149(11) 0.3793(4)
H14_7 H 0.8567 0.5341 0.3681
H8_8 H 0.1763 0.7315 0.0022
H9_8 H 0.2482 0.6316 0.0286
H17_8 H 0.3237 0.7685 0.0022
H18_8 H 0.2518 0.8684 0.0286
Zn1_13 Zn 0.2500 0.7500 0.72973(7)
O1_8 O 0.33418(9) 0.73442(7) 0.7329(4)
O2_8 O 0.37492(10) 0.67694(7) 0.7129(3)
O3_8 O 0.58155(10) 0.67959(8) 0.7123(3)
O4_8 O 0.62161(10) 0.73699(8) 0.7220(4)
O5_7 O 0.51679(10) 0.84312(7) 0.4821(4)
O7_8 O 0.66144(12) 0.60797(7) 0.7322(4)
H1_8 H 0.6501 0.5924 0.6713
H2_8 H 0.6515 0.6034 0.8133
N1_8 N 0.25690(14) 0.67086(9) 0.5749(3)
N2_8 N 0.23714(14) 0.70837(9) 0.5732(3)
N4_8 N 0.25831(13) 0.67340(10) 0.8914(3)
N5_8 N 0.23259(13) 0.70878(9) 0.8822(3)
C1_8 C 0.37500(13) 0.71400(10) 0.7115(4)
C2_8 C 0.42810(15) 0.73409(10) 0.6815(4)
C3_8 C 0.47773(14) 0.71594(10) 0.7042(4)
H3_8 H 0.4786 0.6908 0.7385
C4_8 C 0.52606(15) 0.73519(11) 0.6757(4)
C5_8 C 0.58026(14) 0.71671(11) 0.7057(4)
C6_8 C 0.52470(15) 0.77187(11) 0.6196(4)
H4_8 H 0.5572 0.7845 0.5989
C7_8 C 0.47483(14) 0.79022(11) 0.5936(4)
C8_8 C 0.47481(16) 0.82983(10) 0.5327(4)
C9_8 C 0.42666(15) 0.77149(11) 0.6293(4)
H5_8 H 0.3933 0.7841 0.6181
C10_8 C 0.20536(15) 0.71057(11) 0.4659(4)
H6_8 H 0.1868 0.7330 0.4403
C11_8 C 0.23547(17) 0.65322(11) 0.4687(5)
H7_8 H 0.2424 0.6274 0.4461
C12_8 C 0.19894(15) 0.71037(11) 0.9845(5)
C13_8 C 0.23786(16) 0.65624(12) 0.9992(5)
O8_8 O 0.16582(9) 0.76558(7) 0.7329(4)
O9_8 O 0.12508(10) 0.82306(7) 0.7129(3)
N7_8 N 0.24310(14) 0.82914(9) 0.5749(3)
N8_8 N 0.26286(14) 0.79163(9) 0.5732(3)
N12_8 N 0.24169(13) 0.82660(10) 0.8914(3)
N13_8 N 0.26741(13) 0.79122(9) 0.8822(3)
C14_8 C 0.12500(13) 0.78600(10) 0.7115(4)
C15_8 C 0.07190(15) 0.76591(10) 0.6815(4)
C16_8 C 0.02227(14) 0.78406(10) 0.7042(4)
H12_8 H 0.0214 0.8092 0.7385
C20_8 C 0.02517(14) 0.70978(11) 0.5936(4)
C21_8 C 0.02519(16) 0.67017(10) 0.5327(4)
C22_8 C 0.07334(15) 0.72851(11) 0.6293(4)
H14_8 H 0.1067 0.7159 0.6181
C23_8 C 0.29464(15) 0.78943(11) 0.4659(4)
H15_8 H 0.3132 0.7670 0.4403
C24_8 C 0.26453(17) 0.84678(11) 0.4687(5)
H16_8 H 0.2576 0.8726 0.4461
C25_8 C 0.30106(15) 0.78963(11) 0.9845(5)
C26_8 C 0.26214(16) 0.84376(12) 0.9992(5)
O10_8 O 0.91845(10) 0.82041(8) 0.7123(3)
O11_8 O 0.87839(10) 0.76301(8) 0.7220(4)
O12_7 O 0.98321(10) 0.65688(7) 0.4821(4)
O16_8 O 0.83856(12) 0.89203(7) 0.7322(4)
H10_8 H 0.8499 0.9076 0.6713
H11_8 H 0.8485 0.8966 0.8133
C17_8 C 0.97394(15) 0.76481(11) 0.6757(4)
C18_8 C 0.91974(14) 0.78329(11) 0.7057(4)
C19_8 C 0.97530(15) 0.72813(11) 0.6196(4)
H13_8 H 0.9428 0.7155 0.5989
O5_8 O 0.01679(10) 0.84312(7) 0.9821(4)
O12_8 O 0.98321(10) 0.15688(7) 0.9821(4)
loop_
_geom_bond_atom_site_label_1
_geom_bond_atom_site_label_2
_geom_bond_site_symmetry_1
_geom_bond_site_symmetry_2
Zn1 O1 1_555 1_555
Zn2 O3 1_555 1_555
Zn3 O2 1_555 1_555
O1 C1 1_555 1_555
O2 C1 1_555 1_555
O3 C5 1_555 1_555
O4 C5 1_555 1_555
O7 Zn2 1_555 1_555
H1 O7 1_555 1_555
H2 O7 1_555 1_555
N1 Zn3 1_555 1_555
N2 Zn1 1_555 1_555
N3 C10 1_555 1_555
N4 Zn3 1_555 1_555
N5 Zn1 1_555 1_555
N6 C12 1_555 1_555
C1 C2 1_555 1_555
C2 C3 1_555 1_555
C3 H3 1_555 1_555
C4 C3 1_555 1_555
C5 C4 1_555 1_555
C10 N2 1_555 1_555
H6 C10 1_555 1_555
C11 N1 1_555 1_555
H7 C11 1_555 1_555
C12 N5 1_555 1_555
H8 C12 1_555 1_555
C13 N4 1_555 1_555
H9 C13 1_555 1_555
Zn6 N6 1_555 1_555
Zn11 O13 1_555 1_555
O12 C21 1_555 1_555
O13 C21 1_555 1_555
O14 Zn3 1_555 1_555
N10 Zn2 1_555 1_555
N15 Zn2 1_555 1_555
H13 C19 1_555 1_555
C20 C19 1_555 1_555
C21 C20 1_555 1_555
H14 C22 1_555 1_555
N1 N2 1_555 1_555
N3 C11 1_555 1_555
N4 N5 1_555 1_555
N6 C13 1_555 1_555
C20 C22 1_555 1_555
O5 C8 1_555 1_555
O6 C8 1_555 1_555
H4 C6 1_555 1_555
C7 C6 1_555 1_555
C8 C7 1_555 1_555
H5 C9 1_555 1_555
Zn4 O10 1_555 1_555
Zn8 N14 1_555 1_555
Zn9 O9 1_555 1_555
Zn10 O6 1_555 1_555
O8 Zn1_2 1_555 1_555
O9 C14 1_555 1_555
O10 C18 1_555 1_555
O11 C18 1_555 1_555
O15 Zn9 1_555 1_555
O16 Zn4 1_555 1_555
H10 O16 1_555 1_555
H11 O16 1_555 1_555
N7 Zn9 1_555 1_555
N8 Zn1_2 1_555 1_555
N9 C23 1_555 1_555
N11 Zn4 1_555 1_555
N12 Zn9 1_555 1_555
N13 Zn1_2 1_555 1_555
N14 C25 1_555 1_555
N16 Zn4 1_555 1_555
C14 O8 1_555 1_555
C15 C14 1_555 1_555
C16 C15 1_555 1_555
H12 C16 1_555 1_555
C17 C16 1_555 1_555
C18 C17 1_555 1_555
C23 N8 1_555 1_555
H15 C23 1_555 1_555
C24 N7 1_555 1_555
H16 C24 1_555 1_555
C25 N13 1_555 1_555
H17 C25 1_555 1_555
C26 N12 1_555 1_555
H18 C26 1_555 1_555
C7 C9 1_555 1_555
N7 N8 1_555 1_555
N9 C24 1_555 1_555
N12 N13 1_555 1_555
N14 C26 1_555 1_555
Zn2_2 O3_2 1_555 1_555
O3_2 C5_2 1_555 1_555
O4_2 C5_2 1_555 1_555
O7_2 Zn2_2 1_555 1_555
H1_2 O7_2 1_555 1_555
H2_2 O7_2 1_555 1_555
C5_2 C4_2 1_555 1_555
C6_2 C4_2 1_555 1_555
H4_2 C6_2 1_555 1_555
N10_2 Zn2_2 1_555 1_555
N15_2 Zn2_2 1_555 1_555
Zn6_2 N6_2 1_555 1_555
Zn8_2 N14_2 1_555 1_555
Zn1_3 O1_2 1_555 1_555
Zn3_2 O2_2 1_555 1_555
O1_2 C1_2 1_555 1_555
O2_2 C1_2 1_555 1_555
O6_2 C8_2 1_555 1_555
N1_2 Zn3_2 1_555 1_555
N2_2 Zn1_3 1_555 1_555
N3_2 C10_2 1_555 1_555
N4_2 Zn3_2 1_555 1_555
N5_2 Zn1_3 1_555 1_555
C1_2 C2_2 1_555 1_555
C2_2 C3_2 1_555 1_555
C3_2 H3_2 1_555 1_555
C8_2 C7_2 1_555 1_555
C9_2 C2_2 1_555 1_555
H5_2 C9_2 1_555 1_555
C10_2 N2_2 1_555 1_555
H6_2 C10_2 1_555 1_555
C11_2 N1_2 1_555 1_555
H7_2 C11_2 1_555 1_555
C12_2 N5_2 1_555 1_555
C13_2 N4_2 1_555 1_555
Zn4_2 O10_2 1_555 1_555
Zn6_2 N3_2 1_555 1_555
Zn8_2 N9_2 1_555 1_555
Zn9_2 O9_2 1_555 1_555
Zn10_2 O6_2 1_555 1_555
O8_2 Zn1_3 1_555 1_555
O9_2 C14_2 1_555 1_555
O10_2 C18_2 1_555 1_555
O11_2 C18_2 1_555 1_555
O12_2 C21_2 1_555 1_555
O14 C21_2 1_555 1_555
O14_2 Zn3_2 1_555 1_555
O15_2 Zn9_2 1_555 1_555
O16_2 Zn4_2 1_555 1_555
H10_2 O16_2 1_555 1_555
H11_2 O16_2 1_555 1_555
N7_2 Zn9_2 1_555 1_555
N8_2 Zn1_3 1_555 1_555
N9_2 C23_2 1_555 1_555
N11_2 Zn4_2 1_555 1_555
N12_2 Zn9_2 1_555 1_555
N13_2 Zn1_3 1_555 1_555
N16_2 Zn4_2 1_555 1_555
C14_2 O8_2 1_555 1_555
C15_2 C14_2 1_555 1_555
C16_2 C15_2 1_555 1_555
H12_2 C16_2 1_555 1_555
C17_2 C16_2 1_555 1_555
C18_2 C17_2 1_555 1_555
C19_2 C17_2 1_555 1_555
H13_2 C19_2 1_555 1_555
C20_2 C19_2 1_555 1_555
C21_2 C20_2 1_555 1_555
C22_2 C15_2 1_555 1_555
H14_2 C22_2 1_555 1_555
C23_2 N8_2 1_555 1_555
H15_2 C23_2 1_555 1_555
C24_2 N7_2 1_555 1_555
H16_2 C24_2 1_555 1_555
C25_2 N13_2 1_555 1_555
C26_2 N12_2 1_555 1_555
N1_2 N2_2 1_555 1_555
N3_2 C11_2 1_555 1_555
N4_2 N5_2 1_555 1_555
C7_2 C9_2 1_555 1_555
N7_2 N8_2 1_555 1_555
N9_2 C24_2 1_555 1_555
N12_2 N13_2 1_555 1_555
C20_2 C22_2 1_555 1_555
N6_3 C12_3 1_555 1_555
C12_3 N5_3 1_555 1_555
H8_3 C12_3 1_555 1_555
C13_3 N4_3 1_555 1_555
H9_3 C13_3 1_555 1_555
Zn6_3 N6_3 1_555 1_555
Zn8_3 N14_3 1_555 1_555
N14_3 C25_3 1_555 1_555
C25_3 N13_3 1_555 1_555
H17_3 C25_3 1_555 1_555
C26_3 N12_3 1_555 1_555
H18_3 C26_3 1_555 1_555
N4_3 N5_3 1_555 1_555
N6_3 C13_3 1_555 1_555
N12_3 N13_3 1_555 1_555
N14_3 C26_3 1_555 1_555
Zn1_4 O1_3 1_555 1_555
Zn2_3 O3_3 1_555 1_555
Zn3_3 O2_3 1_555 1_555
O1_3 C1_3 1_555 1_555
O2_3 C1_3 1_555 1_555
O3_3 C5_3 1_555 1_555
O4_3 C5_3 1_555 1_555
O5_3 C8_3 1_555 1_555
O15_2 C8_3 1_555 1_555
O7_3 Zn2_3 1_555 1_555
H1_3 O7_3 1_555 1_555
N1_3 Zn3_3 1_555 1_555
N2_3 Zn1_4 1_555 1_555
N3_3 C10_3 1_555 1_555
C1_3 C2_3 1_555 1_555
C2_3 C3_3 1_555 1_555
C3_3 H3_3 1_555 1_555
C4_3 C3_3 1_555 1_555
C5_3 C4_3 1_555 1_555
C6_3 C4_3 1_555 1_555
H4_3 C6_3 1_555 1_555
C7_3 C6_3 1_555 1_555
C8_3 C7_3 1_555 1_555
C9_3 C2_3 1_555 1_555
H5_3 C9_3 1_555 1_555
C10_3 N2_3 1_555 1_555
H6_3 C10_3 1_555 1_555
C11_3 N1_3 1_555 1_555
H7_3 C11_3 1_555 1_555
Zn4_3 O10_3 1_555 1_555
Zn6_3 N3_3 1_555 1_555
Zn8_3 N9_3 1_555 1_555
Zn9_3 O9_3 1_555 1_555
Zn11_2 O13_2 1_555 1_555
O8_3 Zn1_4 1_555 1_555
O9_3 C14_3 1_555 1_555
O10_3 C18_3 1_555 1_555
O11_3 C18_3 1_555 1_555
O12_3 C21_3 1_555 1_555
O13_2 C21_3 1_555 1_555
O16_3 Zn4_3 1_555 1_555
H10_3 O16_3 1_555 1_555
N7_3 Zn9_3 1_555 1_555
N8_3 Zn1_4 1_555 1_555
N9_3 C23_3 1_555 1_555
N15_3 Zn2_3 1_555 1_555
N16_3 Zn4_3 1_555 1_555
C14_3 O8_3 1_555 1_555
C15_3 C14_3 1_555 1_555
C16_3 C15_3 1_555 1_555
H12_3 C16_3 1_555 1_555
C17_3 C16_3 1_555 1_555
C18_3 C17_3 1_555 1_555
C19_3 C17_3 1_555 1_555
H13_3 C19_3 1_555 1_555
C20_3 C19_3 1_555 1_555
C21_3 C20_3 1_555 1_555
C22_3 C15_3 1_555 1_555
H14_3 C22_3 1_555 1_555
C23_3 N8_3 1_555 1_555
H15_3 C23_3 1_555 1_555
C24_3 N7_3 1_555 1_555
H16_3 C24_3 1_555 1_555
N1_3 N2_3 1_555 1_555
N3_3 C11_3 1_555 1_555
C7_3 C9_3 1_555 1_555
N7_3 N8_3 1_555 1_555
N9_3 C24_3 1_555 1_555
C20_3 C22_3 1_555 1_555
Zn2_4 O3_4 1_555 1_555
O3_4 C5_4 1_555 1_555
O4_4 C5_4 1_555 1_555
O7_4 Zn2_4 1_555 1_555
H1_4 O7_4 1_555 1_555
H2_4 O7_4 1_555 1_555
C5_4 C4_4 1_555 1_555
C6_4 C4_4 1_555 1_555
H4_4 C6_4 1_555 1_555
N10_4 Zn2_4 1_555 1_555
N15_4 Zn2_4 1_555 1_555
Zn1_5 O1_4 1_555 1_555
Zn3_4 O2_4 1_555 1_555
O1_4 C1_4 1_555 1_555
O2_4 C1_4 1_555 1_555
O6_3 C8_4 1_555 1_555
N1_4 Zn3_4 1_555 1_555
N2_4 Zn1_5 1_555 1_555
N4_4 Zn3_4 1_555 1_555
N5_4 Zn1_5 1_555 1_555
N6_4 C12_4 1_555 1_555
C1_4 C2_4 1_555 1_555
C2_4 C3_4 1_555 1_555
C3_4 H3_4 1_555 1_555
C8_4 C7_4 1_555 1_555
C9_4 C2_4 1_555 1_555
H5_4 C9_4 1_555 1_555
C12_4 N5_4 1_555 1_555
H8_4 C12_4 1_555 1_555
C13_4 N4_4 1_555 1_555
H9_4 C13_4 1_555 1_555
Zn4_4 O10_4 1_555 1_555
Zn6_4 N6_4 1_555 1_555
Zn8_4 N14_4 1_555 1_555
Zn10 O9_4 1_555 1_555
O8_4 Zn1_5 1_555 1_555
O9_4 C14_4 1_555 1_555
O10_4 C18_4 1_555 1_555
O11_4 C18_4 1_555 1_555
O14_3 C21_4 1_555 1_555
O14_4 Zn3_4 1_555 1_555
O16_4 Zn4_4 1_555 1_555
H10_4 O16_4 1_555 1_555
H11_4 O16_4 1_555 1_555
N7_4 Zn10 1_555 1_555
N8_4 Zn1_5 1_555 1_555
N11_4 Zn4_4 1_555 1_555
N12_4 Zn10 1_555 1_555
N13_4 Zn1_5 1_555 1_555
N14_4 C25_4 1_555 1_555
N16_4 Zn4_4 1_555 1_555
C14_4 O8_4 1_555 1_555
C15_4 C14_4 1_555 1_555
C16_4 C15_4 1_555 1_555
H12_4 C16_4 1_555 1_555
C17_4 C16_4 1_555 1_555
C18_4 C17_4 1_555 1_555
C19_4 C17_4 1_555 1_555
H13_4 C19_4 1_555 1_555
C20_4 C19_4 1_555 1_555
C21_4 C20_4 1_555 1_555
C22_4 C15_4 1_555 1_555
H14_4 C22_4 1_555 1_555
C25_4 N13_4 1_555 1_555
H17_4 C25_4 1_555 1_555
C26_4 N12_4 1_555 1_555
H18_4 C26_4 1_555 1_555
N1_4 N2_4 1_555 1_555
N4_4 N5_4 1_555 1_555
N6_4 C13_4 1_555 1_555
C7_4 C9_4 1_555 1_555
N7_4 N8_4 1_555 1_555
N12_4 N13_4 1_555 1_555
N14_4 C26_4 1_555 1_555
C20_4 C22_4 1_555 1_555
N3_4 C10_4 1_555 1_555
H6_4 C10_4 1_555 1_555
H7_4 C11_4 1_555 1_555
Zn6_4 N3_4 1_555 1_555
Zn8_4 N9_4 1_555 1_555
N9_4 C23_4 1_555 1_555
H15_4 C23_4 1_555 1_555
H16_4 C24_4 1_555 1_555
N3_4 C11_4 1_555 1_555
N9_4 C24_4 1_555 1_555
Zn1_6 O1_5 1_555 1_555
Zn6 O3_5 1_555 1_555
Zn3_5 O2_5 1_555 1_555
O1_5 C1_5 1_555 1_555
O2_5 C1_5 1_555 1_555
O3_5 C5_5 1_555 1_555
O4_5 C5_5 1_555 1_555
O7_5 Zn6 1_555 1_555
H1_5 O7_5 1_555 1_555
N1_5 Zn3_5 1_555 1_555
C1_5 C2_5 1_555 1_555
C2_5 C3_5 1_555 1_555
C3_5 H3_5 1_555 1_555
C4_5 C3_5 1_555 1_555
C5_5 C4_5 1_555 1_555
N16 C25_5 1_555 1_555
C25_5 N13_5 1_555 1_555
H17_5 C25_5 1_555 1_555
H18_5 C26_5 1_555 1_555
N16 C26_5 1_555 1_555
O5_4 C8_5 1_555 1_555
O6_4 C8_5 1_555 1_555
H4_5 C6_5 1_555 1_555
C7_5 C6_5 1_555 1_555
C8_5 C7_5 1_555 1_555
H5_5 C9_5 1_555 1_555
Zn10_4 O6_4 1_555 1_555
N8_5 Zn1_7 1_555 1_555
N11 C23_5 1_555 1_555
C23_5 N8_5 1_555 1_555
H15_5 C23_5 1_555 1_555
H16_5 C24_5 1_555 1_555
C7_5 C9_5 1_555 1_555
N11 C24_5 1_555 1_555
N15 C12_5 1_555 1_555
C12_5 N5_5 1_555 1_555
H8_5 C12_5 1_555 1_555
H9_5 C13_5 1_555 1_555
N15 C13_5 1_555 1_555
N2_5 Zn1_8 1_555 1_555
N10 C10_5 1_555 1_555
C10_5 N2_5 1_555 1_555
H6_5 C10_5 1_555 1_555
H7_5 C11_5 1_555 1_555
O12_5 C21_5 1_555 1_555
O14_2 C21_5 1_555 1_555
H13_5 C19_5 1_555 1_555
C20_5 C19_5 1_555 1_555
C21_5 C20_5 1_555 1_555
H14_5 C22_5 1_555 1_555
N10 C11_5 1_555 1_555
C20_5 C22_5 1_555 1_555
Zn8 O10_5 1_555 1_555
Zn10_3 O9_5 1_555 1_555
O8_5 Zn1_9 1_555 1_555
O9_5 C14_5 1_555 1_555
O10_5 C18_5 1_555 1_555
O11_5 C18_5 1_555 1_555
O16_5 Zn8 1_555 1_555
H10_5 O16_5 1_555 1_555
N7_5 Zn10_3 1_555 1_555
C14_5 O8_5 1_555 1_555
C15_5 C14_5 1_555 1_555
C16_5 C15_5 1_555 1_555
H12_5 C16_5 1_555 1_555
C17_5 C16_5 1_555 1_555
C18_5 C17_5 1_555 1_555
Zn1_10 O1_6 1_555 1_555
Zn6_2 O3_6 1_555 1_555
Zn11 O2_6 1_555 1_555
O1_6 C1_6 1_555 1_555
O2_6 C1_6 1_555 1_555
O3_6 C5_6 1_555 1_555
O4_6 C5_6 1_555 1_555
O15_3 C8_6 1_555 1_555
O7_6 Zn6_2 1_555 1_555
H1_6 O7_6 1_555 1_555
H2_6 O7_6 1_555 1_555
N1_6 Zn11 1_555 1_555
N2_6 Zn1_10 1_555 1_555
N4_6 Zn11 1_555 1_555
N5_6 Zn1_10 1_555 1_555
N15_2 C12_6 1_555 1_555
C1_6 C2_6 1_555 1_555
C2_6 C3_6 1_555 1_555
C3_6 H3_6 1_555 1_555
C4_6 C3_6 1_555 1_555
C5_6 C4_6 1_555 1_555
C6_6 C4_6 1_555 1_555
H4_6 C6_6 1_555 1_555
C7_6 C6_6 1_555 1_555
C8_6 C7_6 1_555 1_555
C9_6 C2_6 1_555 1_555
H5_6 C9_6 1_555 1_555
C12_6 N5_6 1_555 1_555
H8_6 C12_6 1_555 1_555
C13_6 N4_6 1_555 1_555
H9_6 C13_6 1_555 1_555
Zn9_4 O9_6 1_555 1_555
O8_6 Zn1_10 1_555 1_555
O9_6 C14_6 1_555 1_555
O14_5 C21_6 1_555 1_555
O15_4 Zn9_4 1_555 1_555
N7_6 Zn9_4 1_555 1_555
N8_6 Zn1_10 1_555 1_555
N12_6 Zn9_4 1_555 1_555
N13_6 Zn1_10 1_555 1_555
N16_2 C25_6 1_555 1_555
C14_6 O8_6 1_555 1_555
C15_6 C14_6 1_555 1_555
C16_6 C15_6 1_555 1_555
H12_6 C16_6 1_555 1_555
C21_6 C20_6 1_555 1_555
C22_6 C15_6 1_555 1_555
H14_6 C22_6 1_555 1_555
C25_6 N13_6 1_555 1_555
H17_6 C25_6 1_555 1_555
C26_6 N12_6 1_555 1_555
H18_6 C26_6 1_555 1_555
N1_6 N2_6 1_555 1_555
N4_6 N5_6 1_555 1_555
N15_2 C13_6 1_555 1_555
C7_6 C9_6 1_555 1_555
N7_6 N8_6 1_555 1_555
N12_6 N13_6 1_555 1_555
N16_2 C26_6 1_555 1_555
C20_6 C22_6 1_555 1_555
N10_2 C10_6 1_555 1_555
H6_6 C10_6 1_555 1_555
H7_6 C11_6 1_555 1_555
N11_2 C23_6 1_555 1_555
H15_6 C23_6 1_555 1_555
H16_6 C24_6 1_555 1_555
N10_2 C11_6 1_555 1_555
N11_2 C24_6 1_555 1_555
Zn8_2 O10_6 1_555 1_555
O10_6 C18_6 1_555 1_555
O11_6 C18_6 1_555 1_555
O16_6 Zn8_2 1_555 1_555
H10_6 O16_6 1_555 1_555
H11_6 O16_6 1_555 1_555
C18_6 C17_6 1_555 1_555
C19_6 C17_6 1_555 1_555
H13_6 C19_6 1_555 1_555
Zn1_11 O1_7 1_555 1_555
Zn6_3 O3_7 1_555 1_555
Zn3_6 O2_7 1_555 1_555
O1_7 C1_7 1_555 1_555
O2_7 C1_7 1_555 1_555
O3_7 C5_7 1_555 1_555
O4_7 C5_7 1_555 1_555
O5_6 C8_7 1_555 1_555
O15_4 C8_7 1_555 1_555
O7_7 Zn6_3 1_555 1_555
H1_7 O7_7 1_555 1_555
H2_7 O7_7 1_555 1_555
N1_7 Zn3_6 1_555 1_555
N4_7 Zn3_6 1_555 1_555
C1_7 C2_7 1_555 1_555
C2_7 C3_7 1_555 1_555
C3_7 H3_7 1_555 1_555
C4_7 C3_7 1_555 1_555
C5_7 C4_7 1_555 1_555
C6_7 C4_7 1_555 1_555
H4_7 C6_7 1_555 1_555
C7_7 C6_7 1_555 1_555
C8_7 C7_7 1_555 1_555
C9_7 C2_7 1_555 1_555
H5_7 C9_7 1_555 1_555
O14_6 Zn3_6 1_555 1_555
N8_7 Zn1_11 1_555 1_555
N11_3 C23_7 1_555 1_555
N13_7 Zn1_11 1_555 1_555
N16_3 C25_7 1_555 1_555
C23_7 N8_7 1_555 1_555
H15_7 C23_7 1_555 1_555
H16_7 C24_7 1_555 1_555
C25_7 N13_7 1_555 1_555
H17_7 C25_7 1_555 1_555
H18_7 C26_7 1_555 1_555
C7_7 C9_7 1_555 1_555
N11_3 C24_7 1_555 1_555
N16_3 C26_7 1_555 1_555
N2_7 Zn1_12 1_555 1_555
N10_3 C10_7 1_555 1_555
N5_7 Zn1_12 1_555 1_555
N15_3 C12_7 1_555 1_555
C10_7 N2_7 1_555 1_555
H6_7 C10_7 1_555 1_555
H7_7 C11_7 1_555 1_555
C12_7 N5_7 1_555 1_555
H8_7 C12_7 1_555 1_555
H9_7 C13_7 1_555 1_555
Zn8_3 O10_7 1_555 1_555
Zn10_2 O9_7 1_555 1_555
O8_7 Zn1_12 1_555 1_555
O9_7 C14_7 1_555 1_555
O10_7 C18_7 1_555 1_555
O11_7 C18_7 1_555 1_555
O12_6 C21_7 1_555 1_555
O14_4 C21_7 1_555 1_555
O16_7 Zn8_3 1_555 1_555
H10_7 O16_7 1_555 1_555
H11_7 O16_7 1_555 1_555
N7_7 Zn10_2 1_555 1_555
N12_7 Zn10_2 1_555 1_555
C14_7 O8_7 1_555 1_555
C15_7 C14_7 1_555 1_555
C16_7 C15_7 1_555 1_555
H12_7 C16_7 1_555 1_555
C17_7 C16_7 1_555 1_555
C18_7 C17_7 1_555 1_555
C19_7 C17_7 1_555 1_555
H13_7 C19_7 1_555 1_555
C20_7 C19_7 1_555 1_555
C21_7 C20_7 1_555 1_555
C22_7 C15_7 1_555 1_555
H14_7 C22_7 1_555 1_555
N10_3 C11_7 1_555 1_555
N15_3 C13_7 1_555 1_555
C20_7 C22_7 1_555 1_555
Zn1_13 O1_8 1_555 1_555
Zn6_4 O3_8 1_555 1_555
Zn11_2 O2_8 1_555 1_555
O1_8 C1_8 1_555 1_555
O2_8 C1_8 1_555 1_555
O3_8 C5_8 1_555 1_555
O4_8 C5_8 1_555 1_555
O5_7 C8_8 1_555 1_555
O15 C8_8 1_555 1_555
O7_8 Zn6_4 1_555 1_555
H1_8 O7_8 1_555 1_555
H2_8 O7_8 1_555 1_555
N1_8 Zn11_2 1_555 1_555
N2_8 Zn1_13 1_555 1_555
N10_4 C10_8 1_555 1_555
N4_8 Zn11_2 1_555 1_555
N5_8 Zn1_13 1_555 1_555
C1_8 C2_8 1_555 1_555
C2_8 C3_8 1_555 1_555
C3_8 H3_8 1_555 1_555
C4_8 C3_8 1_555 1_555
C5_8 C4_8 1_555 1_555
C6_8 C4_8 1_555 1_555
H4_8 C6_8 1_555 1_555
C7_8 C6_8 1_555 1_555
C8_8 C7_8 1_555 1_555
C9_8 C2_8 1_555 1_555
H5_8 C9_8 1_555 1_555
C10_8 N2_8 1_555 1_555
H6_8 C10_8 1_555 1_555
C11_8 N1_8 1_555 1_555
H7_8 C11_8 1_555 1_555
C12_8 N5_8 1_555 1_555
C13_8 N4_8 1_555 1_555
Zn10_4 O9_8 1_555 1_555
O8_8 Zn1_13 1_555 1_555
O9_8 C14_8 1_555 1_555
O14_6 C21_8 1_555 1_555
N7_8 Zn10_4 1_555 1_555
N8_8 Zn1_13 1_555 1_555
N11_4 C23_8 1_555 1_555
N12_8 Zn10_4 1_555 1_555
N13_8 Zn1_13 1_555 1_555
C14_8 O8_8 1_555 1_555
C15_8 C14_8 1_555 1_555
C16_8 C15_8 1_555 1_555
H12_8 C16_8 1_555 1_555
C21_8 C20_8 1_555 1_555
C22_8 C15_8 1_555 1_555
H14_8 C22_8 1_555 1_555
C23_8 N8_8 1_555 1_555
H15_8 C23_8 1_555 1_555
C24_8 N7_8 1_555 1_555
H16_8 C24_8 1_555 1_555
C25_8 N13_8 1_555 1_555
C26_8 N12_8 1_555 1_555
N1_8 N2_8 1_555 1_555
N10_4 C11_8 1_555 1_555
N4_8 N5_8 1_555 1_555
C7_8 C9_8 1_555 1_555
N7_8 N8_8 1_555 1_555
N11_4 C24_8 1_555 1_555
N12_8 N13_8 1_555 1_555
C20_8 C22_8 1_555 1_555
Zn8_4 O10_8 1_555 1_555
O10_8 C18_8 1_555 1_555
O11_8 C18_8 1_555 1_555
O16_8 Zn8_4 1_555 1_555
H10_8 O16_8 1_555 1_555
H11_8 O16_8 1_555 1_555
C18_8 C17_8 1_555 1_555
C19_8 C17_8 1_555 1_555
H13_8 C19_8 1_555 1_555

#END
