
###############################################################################
#
# This file contains modified crystal structure data generated from the
# MOF subset of the Cambridge Structural Database (CSD) v543 
# hosted by the Cambridge Crystallographic Data Centre (CCDC).
#
# This work is licensed under the Creative Commons
# Attribution-NonCommercial-ShareAlike 4.0 International License.
# To view a copy of this license, visit
# http://creativecommons.org/licenses/by-nc-sa/4.0/
# or send a letter to
# Creative Commons, PO Box 1866, Mountain View, CA 94042, USA.
#
# CIF created using the CSD Python API on 29 September 2022
# The structure has been converted into the P1 space group
# The structure has a 3D framework
# The original CSD entry AFOROD is in the monoclinic crystal system
# The framework has been calculated to contain at least 10.0% void space
# The void calculation uses a probe of radius 1.32A, grid spacing 0.4
#
###############################################################################

data_AFOROD
_chemical_formula_moiety         '(C152 H160 N32 O32 Zn5)n'
_symmetry_cell_setting           triclinic
_symmetry_space_group_name_H-M   'P 1'
_symmetry_Int_Tables_number      1
_space_group_name_Hall           'P 1'
loop_
_symmetry_equiv_pos_site_id
_symmetry_equiv_pos_as_xyz
1 x,y,z
_cell_length_a                   19.5910(10)
_cell_length_b                   13.4860(7)
_cell_length_c                   19.1550(10)
_cell_angle_alpha                90
_cell_angle_beta                 120.240(2)
_cell_angle_gamma                90
_cell_volume                     4372.17
loop_
_atom_site_label
_atom_site_type_symbol
_atom_site_fract_x
_atom_site_fract_y
_atom_site_fract_z
Zn1 Zn 0.05055(2) 0.22683(3) 0.04686(2)
N1 N 0.10945(16) 0.3549(2) 0.07858(16)
N2 N 0.08417(18) 0.4356(2) 0.10086(17)
C4 C 0.1396(2) 0.5057(3) 0.1319(2)
C5 C 0.2042(2) 0.4704(3) 0.12969(18)
C8 C 0.2828(2) 0.5203(3) 0.1602(2)
H1 H 0.3165 0.4772 0.1500
H2 H 0.2749 0.5809 0.1297
C9 C 0.1832(2) 0.3762(3) 0.0959(2)
C13 C 0.1253(3) 0.6018(3) 0.1610(3)
H3 H 0.0850 0.5931 0.1750
H4 H 0.1085 0.6507 0.1191
H5 H 0.1733 0.6235 0.2078
C14 C 0.2299(3) 0.3025(4) 0.0796(3)
H6 H 0.1948 0.2564 0.0393
H7 H 0.2647 0.2674 0.1284
H8 H 0.2606 0.3362 0.0604
H12 H 0.039(2) 0.426(3) 0.098(2)
N3 N 0.39247(16) 0.6292(2) 0.36426(15)
N4 N 0.37720(16) 0.5373(2) 0.37968(16)
C15 C 0.36091(18) 0.6342(3) 0.28386(18)
C16 C 0.32462(18) 0.5452(3) 0.24862(18)
C17 C 0.3376(2) 0.4841(3) 0.3124(2)
C18 C 0.3709(3) 0.7251(3) 0.2449(2)
H14 H 0.3879 0.7793 0.2825
H15 H 0.3214 0.7415 0.1978
H16 H 0.4098 0.7128 0.2295
C19 C 0.3193(3) 0.3780(3) 0.3155(3)
H17 H 0.3620 0.3478 0.3628
H18 H 0.3126 0.3447 0.2681
H19 H 0.2716 0.3727 0.3176
H20 H 0.3982(18) 0.522(2) 0.433(2)
Zn3 Zn 0.44945(2) 0.72683(3) 0.45314(2)
C23 C 0.3604(2) 0.0057(3) 0.3681(2)
C27 C 0.2172(2) 0.0203(3) 0.3398(2)
H22 H 0.2251 0.0809 0.3703
C32 C 0.3747(3) 0.1018(3) 0.3390(3)
H23 H 0.4150 0.0931 0.3250
H24 H 0.3915 0.1507 0.3809
H25 H 0.3267 0.1235 0.2922
N8 N 0.10753(16) 0.1292(2) 0.13574(15)
N10 N 0.12280(16) 0.0373(2) 0.12032(16)
C34 C 0.13909(18) 0.1342(3) 0.21614(18)
C35 C 0.17538(18) 0.0452(3) 0.25138(18)
C37 C 0.1291(3) 0.2251(3) 0.2551(2)
H34 H 0.1121 0.2793 0.2175
H35 H 0.1786 0.2415 0.3022
H36 H 0.0902 0.2128 0.2705
H40 H 0.1018(18) 0.022(2) 0.067(2)
N5 N 0.39055(16) 0.8549(2) 0.42142(16)
N7 N 0.41583(18) 0.9356(2) 0.39914(17)
C24 C 0.2958(2) 0.9704(3) 0.37031(18)
H21 H 0.1835 0.9772 0.3500
C28 C 0.3168(2) 0.8762(3) 0.4041(2)
C33 C 0.2701(3) 0.8025(4) 0.4204(3)
H26 H 0.3052 0.7564 0.4607
H27 H 0.2353 0.7674 0.3716
H28 H 0.2394 0.8362 0.4396
H32 H 0.461(2) 0.926(3) 0.402(2)
C36 C 0.1624(2) 0.9841(3) 0.1876(2)
C38 C 0.1807(3) 0.8780(3) 0.1845(3)
H37 H 0.1380 0.8478 0.1372
H38 H 0.1874 0.8447 0.2319
H39 H 0.2284 0.8727 0.1824
O2 O 0.54304(19) 0.6895(2) 0.94632(15)
C2 C 0.54826(19) 0.6058(3) 0.91989(19)
C3 C 0.52332(18) 0.6050(2) 0.83159(19)
C6 C 0.51191(19) 0.5168(3) 0.79138(18)
O3 O 0.57040(19) 0.5293(2) 0.95920(14)
C7 C 0.2996(2) 0.6781(3) 0.9992(2)
C11 C 0.5112(3) 0.6930(3) 0.7902(2)
H9 H 0.5179(19) 0.747(3) 0.811(2)
H10 H 0.5190(19) 0.455(3) 0.827(2)
H13 H 0.332(2) 0.629(3) 0.998(2)
O5 O 0.05628(16) 0.7634(2) 0.9763(2)
C20 C 0.1725(2) 0.7262(3) 0.9776(2)
O6 O 0.45696(19) 0.6895(2) 0.55368(15)
C21 C 0.45174(19) 0.6058(3) 0.58011(19)
C22 C 0.47668(18) 0.6050(2) 0.66841(19)
C25 C 0.48809(19) 0.5168(3) 0.70862(18)
O8 O 0.42960(19) 0.5293(2) 0.54080(14)
O9 O 0.05995(18) 0.6226(3) 0.9210(2)
C29 C 0.2230(2) 0.6552(3) 0.9767(2)
C30 C 0.4888(3) 0.6930(3) 0.7098(2)
C31 C 0.0896(2) 0.7008(3) 0.9555(2)
H29 H 0.4821(19) 0.747(3) 0.689(2)
H30 H 0.4810(19) 0.455(3) 0.673(2)
H31 H 0.207(2) 0.604(3) 0.962(2)
O7 O 0.95696(19) 0.8105(2) 0.05368(15)
O1 O 0.55628(16) 0.7366(2) 0.4763(2)
C1 C 0.6725(2) 0.7738(3) 0.4776(2)
C7_2 C 0.7004(2) 0.6781(3) 0.5008(2)
O4 O 0.55995(18) 0.8774(3) 0.4210(2)
C10 C 0.7230(2) 0.8448(3) 0.4767(2)
C12 C 0.5896(2) 0.7992(3) 0.4555(2)
H11 H 0.707(2) 0.896(3) 0.462(2)
H13_2 H 0.668(2) 0.629(3) 0.502(2)
O5_2 O 0.94372(16) 0.7634(2) 0.5237(2)
C20_2 C 0.8275(2) 0.7262(3) 0.5224(2)
C26 C 0.7996(2) 0.8219(3) 0.4992(2)
O9_2 O 0.94005(18) 0.6226(3) 0.5790(2)
C29_2 C 0.7770(2) 0.6552(3) 0.5233(2)
C31_2 C 0.9104(2) 0.7008(3) 0.5445(2)
H31_2 H 0.793(2) 0.604(3) 0.538(2)
H33 H 0.832(2) 0.871(3) 0.498(2)
C2_2 C 0.95174(19) 0.8942(3) 0.08011(19)
C3_2 C 0.97668(18) 0.8950(2) 0.16841(19)
C6_2 C 0.98809(19) 0.9832(3) 0.20862(18)
O3_2 O 0.92960(19) 0.9707(2) 0.04080(14)
C11_2 C 0.9888(3) 0.8070(3) 0.2098(2)
H9_2 H 0.9821(19) 0.753(3) 0.189(2)
O2_2 O 0.04304(19) 0.1895(2) 0.94632(15)
C2_3 C 0.04826(19) 0.1058(3) 0.91989(19)
C3_3 C 0.02332(18) 0.1050(2) 0.83159(19)
C6_3 C 0.01191(19) 0.0168(3) 0.79138(18)
O3_3 O 0.07040(19) 0.0293(2) 0.95920(14)
C11_3 C 0.0112(3) 0.1930(3) 0.7902(2)
H9_3 H 0.0179(19) 0.247(3) 0.811(2)
O1_2 O 0.94372(16) 0.2366(2) 0.0237(2)
C1_2 C 0.8275(2) 0.2738(3) 0.0224(2)
O4_2 O 0.94005(18) 0.3774(3) 0.0790(2)
C10_2 C 0.7770(2) 0.3448(3) 0.0233(2)
C12_2 C 0.9104(2) 0.2992(3) 0.0445(2)
H11_2 H 0.793(2) 0.396(3) 0.038(2)
O7_2 O 0.45696(19) 0.3105(2) 0.05368(15)
C26_2 C 0.7004(2) 0.3219(3) 0.0008(2)
H33_2 H 0.668(2) 0.371(3) 0.002(2)
Zn2 Zn 0.94945(2) 0.77317(3) 0.95314(2)
N6 N 0.89055(16) 0.6451(2) 0.92142(16)
N9 N 0.89247(16) 0.8708(2) 0.86426(15)
O1_3 O 0.05628(16) 0.2366(2) 0.4763(2)
C1_3 C 0.1725(2) 0.2738(3) 0.4776(2)
C7_3 C 0.2004(2) 0.1781(3) 0.5008(2)
O4_3 O 0.05995(18) 0.3774(3) 0.4210(2)
C10_3 C 0.2230(2) 0.3448(3) 0.4767(2)
C12_3 C 0.0896(2) 0.2992(3) 0.4555(2)
H11_3 H 0.207(2) 0.396(3) 0.462(2)
H13_3 H 0.168(2) 0.129(3) 0.502(2)
Zn2_2 Zn 0.55055(2) 0.27317(3) 0.54686(2)
O5_3 O 0.44372(16) 0.2634(2) 0.5237(2)
N6_2 N 0.60945(16) 0.1451(2) 0.57858(16)
C20_3 C 0.3275(2) 0.2262(3) 0.5224(2)
O7_3 O 0.54304(19) 0.3105(2) 0.44632(15)
C26_3 C 0.2996(2) 0.3219(3) 0.4992(2)
O9_3 O 0.44005(18) 0.1226(3) 0.5790(2)
C29_3 C 0.2770(2) 0.1552(3) 0.5233(2)
C31_3 C 0.4104(2) 0.2008(3) 0.5445(2)
H31_3 H 0.293(2) 0.104(3) 0.538(2)
H33_3 H 0.332(2) 0.371(3) 0.498(2)
N9_2 N 0.60753(16) 0.3708(2) 0.63574(15)
N7_2 N 0.58417(18) 0.0644(2) 0.60086(17)
C24_2 C 0.7042(2) 0.0296(3) 0.62969(18)
H21_2 H 0.8165 0.0228 0.6500
C28_2 C 0.6832(2) 0.1238(3) 0.5959(2)
C33_2 C 0.7299(3) 0.1975(4) 0.5796(3)
H26_2 H 0.6948 0.2436 0.5393
H27_2 H 0.7647 0.2326 0.6284
H28_2 H 0.7606 0.1638 0.5604
H32_2 H 0.539(2) 0.074(3) 0.598(2)
C36_2 C 0.8376(2) 0.0159(3) 0.8124(2)
C38_2 C 0.8193(3) 0.1220(3) 0.8155(3)
H37_2 H 0.8620 0.1522 0.8628
H38_2 H 0.8126 0.1553 0.7681
H39_2 H 0.7716 0.1273 0.8176
N2_2 N 0.91583(18) 0.5644(2) 0.89914(17)
C4_2 C 0.8604(2) 0.4943(3) 0.8681(2)
C5_2 C 0.7958(2) 0.5296(3) 0.87031(18)
C8_2 C 0.7172(2) 0.4797(3) 0.8398(2)
H1_2 H 0.6835 0.5228 0.8500
H2_2 H 0.7251 0.4191 0.8703
C9_2 C 0.8168(2) 0.6238(3) 0.9041(2)
C13_2 C 0.8747(3) 0.3982(3) 0.8390(3)
H3_2 H 0.9150 0.4069 0.8250
H4_2 H 0.8915 0.3493 0.8809
H5_2 H 0.8267 0.3765 0.7922
C14_2 C 0.7701(3) 0.6975(4) 0.9204(3)
H6_2 H 0.8052 0.7436 0.9607
H7_2 H 0.7353 0.7326 0.8716
H8_2 H 0.7394 0.6638 0.9396
H12_2 H 0.961(2) 0.574(3) 0.902(2)
N4_2 N 0.62280(16) 0.4627(2) 0.62032(16)
C15_2 C 0.63909(18) 0.3658(3) 0.71614(18)
C16_2 C 0.67538(18) 0.4548(3) 0.75138(18)
C17_2 C 0.6624(2) 0.5159(3) 0.6876(2)
C18_2 C 0.6291(3) 0.2749(3) 0.7551(2)
H14_2 H 0.6121 0.2207 0.7175
H15_2 H 0.6786 0.2585 0.8022
H16_2 H 0.5902 0.2872 0.7705
C19_2 C 0.6807(3) 0.6220(3) 0.6845(3)
H17_2 H 0.6380 0.6522 0.6372
H18_2 H 0.6874 0.6553 0.7319
H19_2 H 0.7284 0.6273 0.6824
H20_2 H 0.6018(18) 0.478(2) 0.567(2)
C23_2 C 0.6396(2) 0.9943(3) 0.6319(2)
C27_2 C 0.7828(2) 0.9797(3) 0.6602(2)
H22_2 H 0.7749 0.9191 0.6297
C32_2 C 0.6253(3) 0.8982(3) 0.6610(3)
H23_2 H 0.5850 0.9069 0.6750
H24_2 H 0.6085 0.8493 0.6191
H25_2 H 0.6733 0.8765 0.7078
N10_2 N 0.87720(16) 0.9627(2) 0.87968(16)
C34_2 C 0.86091(18) 0.8658(3) 0.78386(18)
C35_2 C 0.82462(18) 0.9548(3) 0.74862(18)
C37_2 C 0.8709(3) 0.7749(3) 0.7449(2)
H34_2 H 0.8879 0.7207 0.7825
H35_2 H 0.8214 0.7585 0.6978
H36_2 H 0.9098 0.7872 0.7295
H40_2 H 0.8982(18) 0.978(2) 0.933(2)
C2_4 C 0.45174(19) 0.3942(3) 0.08011(19)
C3_4 C 0.47668(18) 0.3950(2) 0.16841(19)
C6_4 C 0.48809(19) 0.4832(3) 0.20862(18)
O3_4 O 0.42960(19) 0.4707(2) 0.04080(14)
C11_4 C 0.4888(3) 0.3070(3) 0.2098(2)
H9_4 H 0.4821(19) 0.253(3) 0.189(2)
H10_2 H 0.4810(19) 0.545(3) 0.173(2)
C21_2 C 0.54826(19) 0.3942(3) 0.41989(19)
C22_2 C 0.52332(18) 0.3950(2) 0.33159(19)
C25_2 C 0.51191(19) 0.4832(3) 0.29138(18)
O8_2 O 0.57040(19) 0.4707(2) 0.45920(14)
C30_2 C 0.5112(3) 0.3070(3) 0.2902(2)
H29_2 H 0.5179(19) 0.253(3) 0.311(2)
H30_2 H 0.5190(19) 0.545(3) 0.327(2)
H10_3 H 0.0190(19) 0.955(3) 0.827(2)
C7_4 C 0.7996(2) 0.1781(3) 0.9992(2)
H13_4 H 0.832(2) 0.129(3) 0.998(2)
Zn2_3 Zn 0.44945(2) 0.27317(3) 0.95314(2)
Zn4 Zn 0.94945(2) 0.22683(3) 0.45314(2)
O5_4 O 0.55628(16) 0.2634(2) 0.9763(2)
N6_3 N 0.39055(16) 0.1451(2) 0.92142(16)
C20_4 C 0.6725(2) 0.2262(3) 0.9776(2)
O6_2 O 0.95696(19) 0.1895(2) 0.55368(15)
C21_3 C 0.95174(19) 0.1058(3) 0.58011(19)
C22_3 C 0.97668(18) 0.1050(2) 0.66841(19)
C25_3 C 0.98809(19) 0.0168(3) 0.70862(18)
O8_3 O 0.92960(19) 0.0293(2) 0.54080(14)
O9_4 O 0.55995(18) 0.1226(3) 0.9210(2)
C29_4 C 0.7230(2) 0.1552(3) 0.9767(2)
C30_3 C 0.9888(3) 0.1930(3) 0.7098(2)
C31_4 C 0.5896(2) 0.2008(3) 0.9555(2)
H29_3 H 0.9821(19) 0.247(3) 0.689(2)
H31_4 H 0.707(2) 0.104(3) 0.962(2)
N9_3 N 0.39247(16) 0.3708(2) 0.86426(15)
H30_3 H 0.9810(19) 0.955(3) 0.673(2)
C4_3 C 0.6396(2) 0.0057(3) 0.1319(2)
C8_3 C 0.7828(2) 0.0203(3) 0.1602(2)
H2_3 H 0.7749 0.0809 0.1297
C13_3 C 0.6253(3) 0.1018(3) 0.1610(3)
H3_3 H 0.5850 0.0931 0.1750
H4_3 H 0.6085 0.1507 0.1191
H5_3 H 0.6733 0.1235 0.2078
N3_2 N 0.89247(16) 0.1292(2) 0.36426(15)
N4_3 N 0.87720(16) 0.0373(2) 0.37968(16)
C15_3 C 0.86091(18) 0.1342(3) 0.28386(18)
C16_3 C 0.82462(18) 0.0452(3) 0.24862(18)
C18_3 C 0.8709(3) 0.2251(3) 0.2449(2)
H14_3 H 0.8879 0.2793 0.2825
H15_3 H 0.8214 0.2415 0.1978
H16_3 H 0.9098 0.2128 0.2295
H20_3 H 0.8982(18) 0.022(2) 0.433(2)
Zn1_2 Zn 0.55055(2) 0.72683(3) 0.04686(2)
O1_4 O 0.44372(16) 0.7366(2) 0.0237(2)
N1_2 N 0.60945(16) 0.8549(2) 0.07858(16)
C1_4 C 0.3275(2) 0.7738(3) 0.0224(2)
N2_3 N 0.58417(18) 0.9356(2) 0.10086(17)
C5_3 C 0.7042(2) 0.9704(3) 0.12969(18)
H1_3 H 0.8165 0.9772 0.1500
C9_3 C 0.6832(2) 0.8762(3) 0.0959(2)
O4_4 O 0.44005(18) 0.8774(3) 0.0790(2)
C10_4 C 0.2770(2) 0.8448(3) 0.0233(2)
C12_4 C 0.4104(2) 0.7992(3) 0.0445(2)
C14_3 C 0.7299(3) 0.8025(4) 0.0796(3)
H6_3 H 0.6948 0.7564 0.0393
H7_3 H 0.7647 0.7674 0.1284
H8_3 H 0.7606 0.8362 0.0604
H11_4 H 0.293(2) 0.896(3) 0.038(2)
H12_3 H 0.539(2) 0.926(3) 0.098(2)
C17_3 C 0.8376(2) 0.9841(3) 0.3124(2)
C19_3 C 0.8193(3) 0.8780(3) 0.3155(3)
H17_3 H 0.8620 0.8478 0.3628
H18_3 H 0.8126 0.8447 0.2681
H19_3 H 0.7716 0.8727 0.3176
N5_2 N 0.89055(16) 0.3549(2) 0.42142(16)
N7_3 N 0.91583(18) 0.4356(2) 0.39914(17)
C23_3 C 0.8604(2) 0.5057(3) 0.3681(2)
C24_3 C 0.7958(2) 0.4704(3) 0.37031(18)
C26_4 C 0.2004(2) 0.8219(3) 0.0008(2)
C27_3 C 0.7172(2) 0.5203(3) 0.3398(2)
H21_3 H 0.6835 0.4772 0.3500
H22_3 H 0.7251 0.5809 0.3703
C28_3 C 0.8168(2) 0.3762(3) 0.4041(2)
C32_3 C 0.8747(3) 0.6018(3) 0.3390(3)
H23_3 H 0.9150 0.5931 0.3250
H24_3 H 0.8915 0.6507 0.3809
H25_3 H 0.8267 0.6235 0.2922
C33_3 C 0.7701(3) 0.3025(4) 0.4204(3)
H26_3 H 0.8052 0.2564 0.4607
H27_3 H 0.7353 0.2674 0.3716
H28_3 H 0.7394 0.3362 0.4396
H32_3 H 0.961(2) 0.426(3) 0.402(2)
H33_4 H 0.168(2) 0.871(3) 0.002(2)
N8_2 N 0.60753(16) 0.6292(2) 0.13574(15)
N10_3 N 0.62280(16) 0.5373(2) 0.12032(16)
C34_3 C 0.63909(18) 0.6342(3) 0.21614(18)
C35_3 C 0.67538(18) 0.5452(3) 0.25138(18)
C36_3 C 0.6624(2) 0.4841(3) 0.1876(2)
C37_3 C 0.6291(3) 0.7251(3) 0.2551(2)
H34_3 H 0.6121 0.7793 0.2175
H35_3 H 0.6786 0.7415 0.3022
H36_3 H 0.5902 0.7128 0.2705
C38_3 C 0.6807(3) 0.3780(3) 0.1845(3)
H37_3 H 0.6380 0.3478 0.1372
H38_3 H 0.6874 0.3447 0.2319
H39_3 H 0.7284 0.3727 0.1824
H40_3 H 0.6018(18) 0.522(2) 0.067(2)
Zn2_4 Zn 0.05055(2) 0.77317(3) 0.54686(2)
N6_4 N 0.10945(16) 0.6451(2) 0.57858(16)
O7_4 O 0.04304(19) 0.8105(2) 0.44632(15)
N9_4 N 0.10753(16) 0.8708(2) 0.63574(15)
H30_4 H 0.0190(19) 0.045(3) 0.327(2)
C21_4 C 0.04826(19) 0.8942(3) 0.41989(19)
C22_4 C 0.02332(18) 0.8950(2) 0.33159(19)
C25_4 C 0.01191(19) 0.9832(3) 0.29138(18)
O8_4 O 0.07040(19) 0.9707(2) 0.45920(14)
C30_4 C 0.0112(3) 0.8070(3) 0.2902(2)
H29_4 H 0.0179(19) 0.753(3) 0.311(2)
N2_4 N 0.41583(18) 0.0644(2) 0.89914(17)
C5_4 C 0.2958(2) 0.0296(3) 0.87031(18)
H1_4 H 0.1835 0.0228 0.8500
C9_4 C 0.3168(2) 0.1238(3) 0.9041(2)
C14_4 C 0.2701(3) 0.1975(4) 0.9204(3)
H6_4 H 0.3052 0.2436 0.9607
H7_4 H 0.2353 0.2326 0.8716
H8_4 H 0.2394 0.1638 0.9396
H12_4 H 0.461(2) 0.074(3) 0.902(2)
C17_4 C 0.1624(2) 0.0159(3) 0.6876(2)
C19_4 C 0.1807(3) 0.1220(3) 0.6845(3)
H17_4 H 0.1380 0.1522 0.6372
H18_4 H 0.1874 0.1553 0.7319
H19_4 H 0.2284 0.1273 0.6824
N7_4 N 0.08417(18) 0.5644(2) 0.60086(17)
C23_4 C 0.1396(2) 0.4943(3) 0.6319(2)
C24_4 C 0.2042(2) 0.5296(3) 0.62969(18)
C27_4 C 0.2828(2) 0.4797(3) 0.6602(2)
H21_4 H 0.3165 0.5228 0.6500
H22_4 H 0.2749 0.4191 0.6297
C28_4 C 0.1832(2) 0.6238(3) 0.5959(2)
C32_4 C 0.1253(3) 0.3982(3) 0.6610(3)
H23_4 H 0.0850 0.4069 0.6750
H24_4 H 0.1085 0.3493 0.6191
H25_4 H 0.1733 0.3765 0.7078
C33_4 C 0.2299(3) 0.6975(4) 0.5796(3)
H26_4 H 0.1948 0.7436 0.5393
H27_4 H 0.2647 0.7326 0.6284
H28_4 H 0.2606 0.6638 0.5604
H32_4 H 0.039(2) 0.574(3) 0.598(2)
N10_4 N 0.37720(16) 0.4627(2) 0.87968(16)
C34_4 C 0.36091(18) 0.3658(3) 0.78386(18)
C35_4 C 0.32462(18) 0.4548(3) 0.74862(18)
C36_4 C 0.3376(2) 0.5159(3) 0.8124(2)
C37_4 C 0.3709(3) 0.2749(3) 0.7449(2)
H34_4 H 0.3879 0.2207 0.7825
H35_4 H 0.3214 0.2585 0.6978
H36_4 H 0.4098 0.2872 0.7295
C38_4 C 0.3193(3) 0.6220(3) 0.8155(3)
H37_4 H 0.3620 0.6522 0.8628
H38_4 H 0.3126 0.6553 0.7681
H39_4 H 0.2716 0.6273 0.8176
H40_4 H 0.3982(18) 0.478(2) 0.933(2)
C4_4 C 0.3604(2) 0.9943(3) 0.8681(2)
C8_4 C 0.2172(2) 0.9797(3) 0.8398(2)
H2_4 H 0.2251 0.9191 0.8703
C13_4 C 0.3747(3) 0.8982(3) 0.8390(3)
H3_4 H 0.4150 0.9069 0.8250
H4_4 H 0.3915 0.8493 0.8809
H5_4 H 0.3267 0.8765 0.7922
N4_4 N 0.12280(16) 0.9627(2) 0.62032(16)
C15_4 C 0.13909(18) 0.8658(3) 0.71614(18)
C16_4 C 0.17538(18) 0.9548(3) 0.75138(18)
C18_4 C 0.1291(3) 0.7749(3) 0.7551(2)
H14_4 H 0.1121 0.7207 0.7175
H15_4 H 0.1786 0.7585 0.8022
H16_4 H 0.0902 0.7872 0.7705
H20_4 H 0.1018(18) 0.978(2) 0.567(2)
H10_4 H 0.9810(19) 0.045(3) 0.173(2)
loop_
_geom_bond_atom_site_label_1
_geom_bond_atom_site_label_2
_geom_bond_site_symmetry_1
_geom_bond_site_symmetry_2
N1 Zn1 1_555 1_555
N2 N1 1_555 1_555
C4 N2 1_555 1_555
C5 C4 1_555 1_555
C8 C5 1_555 1_555
H1 C8 1_555 1_555
H2 C8 1_555 1_555
C9 N1 1_555 1_555
C13 C4 1_555 1_555
H3 C13 1_555 1_555
H4 C13 1_555 1_555
H5 C13 1_555 1_555
C14 C9 1_555 1_555
H6 C14 1_555 1_555
H7 C14 1_555 1_555
H8 C14 1_555 1_555
H12 N2 1_555 1_555
N3 N4 1_555 1_555
N4 C17 1_555 1_555
C15 N3 1_555 1_555
C16 C8 1_555 1_555
C17 C16 1_555 1_555
C18 C15 1_555 1_555
H14 C18 1_555 1_555
H15 C18 1_555 1_555
H16 C18 1_555 1_555
C19 C17 1_555 1_555
H17 C19 1_555 1_555
H18 C19 1_555 1_555
H19 C19 1_555 1_555
H20 N4 1_555 1_555
Zn3 N3 1_555 1_555
H22 C27 1_555 1_555
C32 C23 1_555 1_555
H23 C32 1_555 1_555
H24 C32 1_555 1_555
H25 C32 1_555 1_555
N8 Zn1 1_555 1_555
N10 N8 1_555 1_555
C34 N8 1_555 1_555
C35 C27 1_555 1_555
C37 C34 1_555 1_555
H34 C37 1_555 1_555
H35 C37 1_555 1_555
H36 C37 1_555 1_555
H40 N10 1_555 1_555
C5 C9 1_555 1_555
C15 C16 1_555 1_555
C34 C35 1_555 1_555
Zn3 N5 1_555 1_555
N5 N7 1_555 1_555
C28 N5 1_555 1_555
C33 C28 1_555 1_555
H26 C33 1_555 1_555
H27 C33 1_555 1_555
H28 C33 1_555 1_555
H32 N7 1_555 1_555
C38 C36 1_555 1_555
H37 C38 1_555 1_555
H38 C38 1_555 1_555
H39 C38 1_555 1_555
C24 C28 1_555 1_555
C2 O2 1_555 1_555
C3 C2 1_555 1_555
C6 C3 1_555 1_555
O3 C2 1_555 1_555
C7 H13 1_555 1_555
C11 C3 1_555 1_555
H9 C11 1_555 1_555
H10 C6 1_555 1_555
Zn3 O6 1_555 1_555
O5 C31 1_555 1_555
O6 C21 1_555 1_555
C21 C22 1_555 1_555
C22 C25 1_555 1_555
C25 C6 1_555 1_555
O8 C21 1_555 1_555
O9 C31 1_555 1_555
C29 C7 1_555 1_555
C30 C11 1_555 1_555
C31 C20 1_555 1_555
H29 C30 1_555 1_555
H30 C25 1_555 1_555
H31 C29 1_555 1_555
C20 C29 1_555 1_555
C22 C30 1_555 1_555
Zn3 O1 1_555 1_555
O1 C12 1_555 1_555
C1 C7_2 1_555 1_555
C7_2 H13_2 1_555 1_555
O4 C12 1_555 1_555
C10 C1 1_555 1_555
C12 C1 1_555 1_555
H11 C10 1_555 1_555
O5_2 C31_2 1_555 1_555
C20_2 C26 1_555 1_555
C26 C10 1_555 1_555
O9_2 C31_2 1_555 1_555
C29_2 C7_2 1_555 1_555
C31_2 C20_2 1_555 1_555
H31_2 C29_2 1_555 1_555
H33 C26 1_555 1_555
C20_2 C29_2 1_555 1_555
C2_2 O7 1_555 1_555
C3_2 C2_2 1_555 1_555
C6_2 C3_2 1_555 1_555
O3_2 C2_2 1_555 1_555
C11_2 C3_2 1_555 1_555
H9_2 C11_2 1_555 1_555
C2_3 O2_2 1_555 1_555
C3_3 C2_3 1_555 1_555
C6_3 C3_3 1_555 1_555
O3_3 C2_3 1_555 1_555
C11_3 C3_3 1_555 1_555
H9_3 C11_3 1_555 1_555
O1_2 C12_2 1_555 1_555
O4_2 C12_2 1_555 1_555
C10_2 C1_2 1_555 1_555
C12_2 C1_2 1_555 1_555
H11_2 C10_2 1_555 1_555
C26_2 C10_2 1_555 1_555
H33_2 C26_2 1_555 1_555
N6 Zn2 1_555 1_555
N9 Zn2 1_555 1_555
O1_3 C12_3 1_555 1_555
C1_3 C7_3 1_555 1_555
C7_3 H13_3 1_555 1_555
O4_3 C12_3 1_555 1_555
C10_3 C1_3 1_555 1_555
C12_3 C1_3 1_555 1_555
H11_3 C10_3 1_555 1_555
Zn2_2 O5_3 1_555 1_555
O5_3 C31_3 1_555 1_555
N6_2 Zn2_2 1_555 1_555
C20_3 C26_3 1_555 1_555
O7_3 Zn2_2 1_555 1_555
C26_3 C10_3 1_555 1_555
O9_3 C31_3 1_555 1_555
C29_3 C7_3 1_555 1_555
C31_3 C20_3 1_555 1_555
H31_3 C29_3 1_555 1_555
H33_3 C26_3 1_555 1_555
N9_2 Zn2_2 1_555 1_555
C20_3 C29_3 1_555 1_555
N6_2 N7_2 1_555 1_555
C28_2 N6_2 1_555 1_555
C33_2 C28_2 1_555 1_555
H26_2 C33_2 1_555 1_555
H27_2 C33_2 1_555 1_555
H28_2 C33_2 1_555 1_555
H32_2 N7_2 1_555 1_555
C38_2 C36_2 1_555 1_555
H37_2 C38_2 1_555 1_555
H38_2 C38_2 1_555 1_555
H39_2 C38_2 1_555 1_555
C24_2 C28_2 1_555 1_555
N2_2 N6 1_555 1_555
C4_2 N2_2 1_555 1_555
C5_2 C4_2 1_555 1_555
C8_2 C5_2 1_555 1_555
H1_2 C8_2 1_555 1_555
H2_2 C8_2 1_555 1_555
C9_2 N6 1_555 1_555
C13_2 C4_2 1_555 1_555
H3_2 C13_2 1_555 1_555
H4_2 C13_2 1_555 1_555
H5_2 C13_2 1_555 1_555
C14_2 C9_2 1_555 1_555
H6_2 C14_2 1_555 1_555
H7_2 C14_2 1_555 1_555
H8_2 C14_2 1_555 1_555
H12_2 N2_2 1_555 1_555
N9_2 N4_2 1_555 1_555
N4_2 C17_2 1_555 1_555
C15_2 N9_2 1_555 1_555
C16_2 C8_2 1_555 1_555
C17_2 C16_2 1_555 1_555
C18_2 C15_2 1_555 1_555
H14_2 C18_2 1_555 1_555
H15_2 C18_2 1_555 1_555
H16_2 C18_2 1_555 1_555
C19_2 C17_2 1_555 1_555
H17_2 C19_2 1_555 1_555
H18_2 C19_2 1_555 1_555
H19_2 C19_2 1_555 1_555
H20_2 N4_2 1_555 1_555
H22_2 C27_2 1_555 1_555
C32_2 C23_2 1_555 1_555
H23_2 C32_2 1_555 1_555
H24_2 C32_2 1_555 1_555
H25_2 C32_2 1_555 1_555
N10_2 N9 1_555 1_555
C34_2 N9 1_555 1_555
C35_2 C27_2 1_555 1_555
C37_2 C34_2 1_555 1_555
H34_2 C37_2 1_555 1_555
H35_2 C37_2 1_555 1_555
H36_2 C37_2 1_555 1_555
H40_2 N10_2 1_555 1_555
C5_2 C9_2 1_555 1_555
C15_2 C16_2 1_555 1_555
C34_2 C35_2 1_555 1_555
C2_4 O7_2 1_555 1_555
C3_4 C2_4 1_555 1_555
C6_4 C3_4 1_555 1_555
O3_4 C2_4 1_555 1_555
C11_4 C3_4 1_555 1_555
H9_4 C11_4 1_555 1_555
H10_2 C6_4 1_555 1_555
O7_3 C21_2 1_555 1_555
C21_2 C22_2 1_555 1_555
C22_2 C25_2 1_555 1_555
C25_2 C6_4 1_555 1_555
O8_2 C21_2 1_555 1_555
C30_2 C11_4 1_555 1_555
H29_2 C30_2 1_555 1_555
H30_2 C25_2 1_555 1_555
C22_2 C30_2 1_555 1_555
C7_4 H13_4 1_555 1_555
Zn2_3 O5_4 1_555 1_555
Zn4 O6_2 1_555 1_555
O5_4 C31_4 1_555 1_555
N6_3 Zn2_3 1_555 1_555
O6_2 C21_3 1_555 1_555
C21_3 C22_3 1_555 1_555
C22_3 C25_3 1_555 1_555
O8_3 C21_3 1_555 1_555
O9_4 C31_4 1_555 1_555
C29_4 C7_4 1_555 1_555
C31_4 C20_4 1_555 1_555
H29_3 C30_3 1_555 1_555
H31_4 C29_4 1_555 1_555
N9_3 Zn2_3 1_555 1_555
C20_4 C29_4 1_555 1_555
C22_3 C30_3 1_555 1_555
H2_3 C8_3 1_555 1_555
C13_3 C4_3 1_555 1_555
H3_3 C13_3 1_555 1_555
H4_3 C13_3 1_555 1_555
H5_3 C13_3 1_555 1_555
N3_2 N4_3 1_555 1_555
C15_3 N3_2 1_555 1_555
C16_3 C8_3 1_555 1_555
C18_3 C15_3 1_555 1_555
H14_3 C18_3 1_555 1_555
H15_3 C18_3 1_555 1_555
H16_3 C18_3 1_555 1_555
H20_3 N4_3 1_555 1_555
Zn4 N3_2 1_555 1_555
C15_3 C16_3 1_555 1_555
Zn1_2 O1_4 1_555 1_555
O1_4 C12_4 1_555 1_555
N1_2 Zn1_2 1_555 1_555
N2_3 N1_2 1_555 1_555
C9_3 N1_2 1_555 1_555
O4_4 C12_4 1_555 1_555
C10_4 C1_4 1_555 1_555
C12_4 C1_4 1_555 1_555
C14_3 C9_3 1_555 1_555
H6_3 C14_3 1_555 1_555
H7_3 C14_3 1_555 1_555
H8_3 C14_3 1_555 1_555
H11_4 C10_4 1_555 1_555
H12_3 N2_3 1_555 1_555
C19_3 C17_3 1_555 1_555
H17_3 C19_3 1_555 1_555
H18_3 C19_3 1_555 1_555
H19_3 C19_3 1_555 1_555
Zn4 N5_2 1_555 1_555
N5_2 N7_3 1_555 1_555
N7_3 C23_3 1_555 1_555
C23_3 C24_3 1_555 1_555
C24_3 C27_3 1_555 1_555
C26_4 C10_4 1_555 1_555
C27_3 H21_3 1_555 1_555
H22_3 C27_3 1_555 1_555
C28_3 N5_2 1_555 1_555
C32_3 C23_3 1_555 1_555
H23_3 C32_3 1_555 1_555
H24_3 C32_3 1_555 1_555
H25_3 C32_3 1_555 1_555
C33_3 C28_3 1_555 1_555
H26_3 C33_3 1_555 1_555
H27_3 C33_3 1_555 1_555
H28_3 C33_3 1_555 1_555
H32_3 N7_3 1_555 1_555
H33_4 C26_4 1_555 1_555
N8_2 Zn1_2 1_555 1_555
N10_3 N8_2 1_555 1_555
C34_3 N8_2 1_555 1_555
C35_3 C27_3 1_555 1_555
C36_3 N10_3 1_555 1_555
C37_3 C34_3 1_555 1_555
H34_3 C37_3 1_555 1_555
H35_3 C37_3 1_555 1_555
H36_3 C37_3 1_555 1_555
C38_3 C36_3 1_555 1_555
H37_3 C38_3 1_555 1_555
H38_3 C38_3 1_555 1_555
H39_3 C38_3 1_555 1_555
H40_3 N10_3 1_555 1_555
C5_3 C9_3 1_555 1_555
C24_3 C28_3 1_555 1_555
C34_3 C35_3 1_555 1_555
C35_3 C36_3 1_555 1_555
N6_4 Zn2_4 1_555 1_555
O7_4 Zn2_4 1_555 1_555
N9_4 Zn2_4 1_555 1_555
O7_4 C21_4 1_555 1_555
C21_4 C22_4 1_555 1_555
C22_4 C25_4 1_555 1_555
O8_4 C21_4 1_555 1_555
H29_4 C30_4 1_555 1_555
C22_4 C30_4 1_555 1_555
N2_4 N6_3 1_555 1_555
C9_4 N6_3 1_555 1_555
C14_4 C9_4 1_555 1_555
H6_4 C14_4 1_555 1_555
H7_4 C14_4 1_555 1_555
H8_4 C14_4 1_555 1_555
H12_4 N2_4 1_555 1_555
C19_4 C17_4 1_555 1_555
H17_4 C19_4 1_555 1_555
H18_4 C19_4 1_555 1_555
H19_4 C19_4 1_555 1_555
N6_4 N7_4 1_555 1_555
N7_4 C23_4 1_555 1_555
C23_4 C24_4 1_555 1_555
C24_4 C27_4 1_555 1_555
C27_4 H21_4 1_555 1_555
H22_4 C27_4 1_555 1_555
C28_4 N6_4 1_555 1_555
C32_4 C23_4 1_555 1_555
H23_4 C32_4 1_555 1_555
H24_4 C32_4 1_555 1_555
H25_4 C32_4 1_555 1_555
C33_4 C28_4 1_555 1_555
H26_4 C33_4 1_555 1_555
H27_4 C33_4 1_555 1_555
H28_4 C33_4 1_555 1_555
H32_4 N7_4 1_555 1_555
N10_4 N9_3 1_555 1_555
C34_4 N9_3 1_555 1_555
C35_4 C27_4 1_555 1_555
C36_4 N10_4 1_555 1_555
C37_4 C34_4 1_555 1_555
H34_4 C37_4 1_555 1_555
H35_4 C37_4 1_555 1_555
H36_4 C37_4 1_555 1_555
C38_4 C36_4 1_555 1_555
H37_4 C38_4 1_555 1_555
H38_4 C38_4 1_555 1_555
H39_4 C38_4 1_555 1_555
H40_4 N10_4 1_555 1_555
C5_4 C9_4 1_555 1_555
C24_4 C28_4 1_555 1_555
C34_4 C35_4 1_555 1_555
C35_4 C36_4 1_555 1_555
H2_4 C8_4 1_555 1_555
C13_4 C4_4 1_555 1_555
H3_4 C13_4 1_555 1_555
H4_4 C13_4 1_555 1_555
H5_4 C13_4 1_555 1_555
N9_4 N4_4 1_555 1_555
C15_4 N9_4 1_555 1_555
C16_4 C8_4 1_555 1_555
C18_4 C15_4 1_555 1_555
H14_4 C18_4 1_555 1_555
H15_4 C18_4 1_555 1_555
H16_4 C18_4 1_555 1_555
H20_4 N4_4 1_555 1_555
C15_4 C16_4 1_555 1_555

#END
