
###############################################################################
#
# This file contains modified crystal structure data generated from the
# MOF subset of the Cambridge Structural Database (CSD) v543 
# hosted by the Cambridge Crystallographic Data Centre (CCDC).
#
# This work is licensed under the Creative Commons
# Attribution-NonCommercial-ShareAlike 4.0 International License.
# To view a copy of this license, visit
# http://creativecommons.org/licenses/by-nc-sa/4.0/
# or send a letter to
# Creative Commons, PO Box 1866, Mountain View, CA 94042, USA.
#
# CIF created using the CSD Python API on 29 September 2022
# The structure has been converted into the P1 space group
# The structure has a 3D framework
# The original CSD entry AFOTUL is in the monoclinic crystal system
# The original CSD entry AFOTUL is in a Sohncke space group
# The framework has been calculated to contain at least 10.0% void space
# The void calculation uses a probe of radius 1.32A, grid spacing 0.4
#
###############################################################################

data_AFOTUL
_chemical_formula_moiety         '(C88 H56 O30 Sm2)n'
_symmetry_cell_setting           triclinic
_symmetry_space_group_name_H-M   'P 1'
_symmetry_Int_Tables_number      1
_space_group_name_Hall           'P 1'
loop_
_symmetry_equiv_pos_site_id
_symmetry_equiv_pos_as_xyz
1 x,y,z
_cell_length_a                   29.007(6)
_cell_length_b                   8.6876(17)
_cell_length_c                   14.166(3)
_cell_angle_alpha                90
_cell_angle_beta                 116.276(3)
_cell_angle_gamma                90
_cell_volume                     3200.98
loop_
_atom_site_label
_atom_site_type_symbol
_atom_site_fract_x
_atom_site_fract_y
_atom_site_fract_z
H13 H 0.1703 0.0352 0.0638
Sm2 Sm 0.272836(13) 0.23218(15) 0.00549(2)
O11 O 0.2237(3) 0.2873(9) 0.0986(6)
O18 O 0.3318(3) 0.1015(9) 0.1691(6)
O23 O 0.3189(3) 0.4264(12) 0.1242(7)
H28 H 0.4197 0.4904 0.0301
C25 C 0.3205(5) 0.0274(14) 0.7530(8)
H15 H 0.3353 0.1054 0.8022
C26 C 0.3251(5) 0.0299(14) 0.6580(8)
H16 H 0.3426 0.1106 0.6451
C31 C 0.3451(5) 0.0074(16) 0.4703(8)
H19 H 0.3722 0.0466 0.5304
C32 C 0.3437(5) 0.0332(17) 0.3700(8)
H20 H 0.3688 0.0931 0.3635
C36 C 0.2999(4) 0.0125(12) 0.1736(8)
C44 C 0.3536(6) 0.4563(15) 0.9523(14)
H27 H 0.3297 0.5352 0.9362
O9 O 0.2922(4) 0.0349(11) 0.9164(7)
O15 O 0.2402(3) 0.4682(10) 0.9073(6)
O20 O 0.1887(3) 0.1807(9) 0.8705(6)
O24 O 0.3400(4) 0.3223(12) 0.9594(9)
O25 O 0.4000(6) 0.4901(19) 0.9667(14)
Sm6 Sm 0.772836(13) 0.73218(15) 0.00549(2)
C1 C 0.2135(4) 0.4114(14) 0.1290(8)
C2 C 0.2056(4) 0.4109(13) 0.2272(8)
C3 C 0.1795(5) 0.5274(14) 0.2470(8)
H1 H 0.1647 0.6054 0.1978
C4 C 0.1749(5) 0.5299(14) 0.3420(8)
H2 H 0.1574 0.6106 0.3549
C5 C 0.1960(5) 0.4139(15) 0.4168(8)
C6 C 0.2198(6) 0.2932(18) 0.3934(11)
H3 H 0.2332 0.2129 0.4413
C7 C 0.2243(7) 0.2886(18) 0.2985(11)
H4 H 0.2396 0.2045 0.2832
C8 C 0.1936(5) 0.4239(15) 0.5210(8)
C9 C 0.1549(5) 0.5074(16) 0.5297(8)
H5 H 0.1278 0.5466 0.4696
C10 C 0.1563(5) 0.5332(17) 0.6300(8)
H6 H 0.1312 0.5931 0.6365
C11 C 0.1957(4) 0.4675(13) 0.7181(7)
C12 C 0.2317(6) 0.3748(16) 0.7061(9)
H7 H 0.2561 0.3235 0.7645
C13 C 0.2324(6) 0.3562(18) 0.6090(10)
H8 H 0.2582 0.2997 0.6034
C14 C 0.2001(4) 0.5125(12) 0.8264(8)
C15 C 0.3335(4) 0.5554(13) 0.1648(8)
C16 C 0.3828(4) 0.5579(14) 0.2650(8)
C17 C 0.4047(6) 0.6936(15) 0.3114(11)
H9 H 0.3887 0.7861 0.2816
C18 C 0.4507(6) 0.6951(19) 0.4030(12)
H10 H 0.4650 0.7889 0.4334
C19 C 0.4759(5) 0.5588(16) 0.4505(10)
C20 C 0.4539(6) 0.4270(16) 0.3998(13)
H11 H 0.4701 0.3341 0.4279
C21 C 0.4082(6) 0.4243(14) 0.3074(11)
H12 H 0.3950 0.3310 0.2744
C22 C 0.1464(6) 0.9563(15) 0.0477(14)
O1 O 0.2078(4) 0.5349(11) 0.0836(7)
O4 O 0.1682(3) 0.6015(9) 0.8309(6)
O5 O 0.3113(3) 0.6807(9) 0.1295(6)
O7 O 0.1600(4) 0.8223(12) 0.0406(9)
O8 O 0.1000(6) 0.9901(19) 0.0333(14)
Sm4 Sm 0.227164(13) 0.73218(15) 0.99451(2)
Sm7 Sm 0.727164(13) 0.23218(15) 0.99451(2)
C37 C 0.6665(4) 0.5554(13) 0.8352(8)
C38 C 0.6172(4) 0.5579(14) 0.7350(8)
C39 C 0.5953(6) 0.6936(15) 0.6886(11)
H23 H 0.6113 0.7861 0.7184
C40 C 0.5493(6) 0.6951(19) 0.5970(12)
H24 H 0.5350 0.7889 0.5666
C41 C 0.5241(5) 0.5588(16) 0.5495(10)
C42 C 0.5461(6) 0.4270(16) 0.6002(13)
H25 H 0.5299 0.3341 0.5721
C43 C 0.5918(6) 0.4243(14) 0.6926(11)
H26 H 0.6050 0.3310 0.7256
O14 O 0.2598(3) 0.9682(10) 0.0927(6)
O19 O 0.6887(3) 0.6807(9) 0.8705(6)
O21 O 0.6811(3) 0.4264(12) 0.8758(7)
H14 H 0.0803 0.9904 0.9699
C23 C 0.2865(4) 0.9114(14) 0.8710(8)
C24 C 0.2944(4) 0.9109(13) 0.7728(8)
C27 C 0.3040(5) 0.9139(15) 0.5832(8)
C28 C 0.2802(6) 0.7932(18) 0.6066(11)
H17 H 0.2668 0.7129 0.5587
C29 C 0.2757(7) 0.7886(18) 0.7015(11)
H18 H 0.2604 0.7045 0.7168
C30 C 0.3064(5) 0.9239(15) 0.4790(8)
C33 C 0.3043(4) 0.9675(13) 0.2819(7)
C34 C 0.2683(6) 0.8748(16) 0.2939(9)
H21 H 0.2439 0.8235 0.2355
C35 C 0.2676(6) 0.8562(18) 0.3910(10)
H22 H 0.2418 0.7997 0.3966
O10 O 0.2763(3) 0.7873(9) 0.9014(6)
O22 O 0.1811(3) 0.9264(12) 0.8758(7)
C25_2 C 0.6795(5) 0.0274(14) 0.2470(8)
H15_2 H 0.6647 0.1054 0.1978
C26_2 C 0.6749(5) 0.0299(14) 0.3420(8)
H16_2 H 0.6574 0.1106 0.3549
C31_2 C 0.6549(5) 0.0074(16) 0.5297(8)
H19_2 H 0.6278 0.0466 0.4696
C32_2 C 0.6563(5) 0.0332(17) 0.6300(8)
H20_2 H 0.6312 0.0931 0.6365
C36_2 C 0.7001(4) 0.0125(12) 0.8264(8)
C44_2 C 0.6464(6) 0.4563(15) 0.0477(14)
H27_2 H 0.6703 0.5352 0.0638
O9_2 O 0.7078(4) 0.0349(11) 0.0836(7)
O15_2 O 0.7598(3) 0.4682(10) 0.0927(6)
O16 O 0.6682(3) 0.1015(9) 0.8309(6)
O20_2 O 0.8113(3) 0.1807(9) 0.1295(6)
O24_2 O 0.6600(4) 0.3223(12) 0.0406(9)
O25_2 O 0.6000(6) 0.4901(19) 0.0333(14)
H13_2 H 0.8297 0.0352 0.9362
O11_2 O 0.7763(3) 0.2873(9) 0.9014(6)
H28_2 H 0.5803 0.4904 0.9699
H14_2 H 0.9197 0.9904 0.0301
C23_2 C 0.7135(4) 0.9114(14) 0.1290(8)
C24_2 C 0.7056(4) 0.9109(13) 0.2272(8)
C27_2 C 0.6960(5) 0.9139(15) 0.4168(8)
C28_2 C 0.7198(6) 0.7932(18) 0.3934(11)
H17_2 H 0.7332 0.7129 0.4413
C29_2 C 0.7243(7) 0.7886(18) 0.2985(11)
H18_2 H 0.7396 0.7045 0.2832
C30_2 C 0.6936(5) 0.9239(15) 0.5210(8)
C33_2 C 0.6957(4) 0.9675(13) 0.7181(7)
C34_2 C 0.7317(6) 0.8748(16) 0.7061(9)
H21_2 H 0.7561 0.8235 0.7645
C35_2 C 0.7324(6) 0.8562(18) 0.6090(10)
H22_2 H 0.7582 0.7997 0.6034
O10_2 O 0.7237(3) 0.7873(9) 0.0986(6)
O12 O 0.7402(3) 0.9682(10) 0.9073(6)
O17 O 0.8318(3) 0.6015(9) 0.1691(6)
O22_2 O 0.8189(3) 0.9264(12) 0.1242(7)
C1_2 C 0.7865(4) 0.4114(14) 0.8710(8)
C2_2 C 0.7944(4) 0.4109(13) 0.7728(8)
C3_2 C 0.8205(5) 0.5274(14) 0.7530(8)
H1_2 H 0.8353 0.6054 0.8022
C4_2 C 0.8251(5) 0.5299(14) 0.6580(8)
H2_2 H 0.8426 0.6106 0.6451
C5_2 C 0.8040(5) 0.4139(15) 0.5832(8)
C6_2 C 0.7802(6) 0.2932(18) 0.6066(11)
H3_2 H 0.7668 0.2129 0.5587
C7_2 C 0.7757(7) 0.2886(18) 0.7015(11)
H4_2 H 0.7604 0.2045 0.7168
C8_2 C 0.8064(5) 0.4239(15) 0.4790(8)
C9_2 C 0.8451(5) 0.5074(16) 0.4703(8)
H5_2 H 0.8722 0.5466 0.5304
C10_2 C 0.8437(5) 0.5332(17) 0.3700(8)
H6_2 H 0.8688 0.5931 0.3635
C11_2 C 0.8043(4) 0.4675(13) 0.2819(7)
C12_2 C 0.7683(6) 0.3748(16) 0.2939(9)
H7_2 H 0.7439 0.3235 0.2355
C13_2 C 0.7676(6) 0.3562(18) 0.3910(10)
H8_2 H 0.7418 0.2997 0.3966
C14_2 C 0.7999(4) 0.5125(12) 0.1736(8)
C22_2 C 0.8536(6) 0.9563(15) 0.9523(14)
O1_2 O 0.7922(4) 0.5349(11) 0.9164(7)
O7_2 O 0.8400(4) 0.8223(12) 0.9594(9)
O8_2 O 0.9000(6) 0.9901(19) 0.9667(14)
C37_2 C 0.1665(4) 0.0554(13) 0.8352(8)
C38_2 C 0.1172(4) 0.0579(14) 0.7350(8)
C39_2 C 0.0953(6) 0.1936(15) 0.6886(11)
H23_2 H 0.1113 0.2861 0.7184
C40_2 C 0.0493(6) 0.1951(19) 0.5970(12)
H24_2 H 0.0350 0.2889 0.5666
C41_2 C 0.0241(5) 0.0588(16) 0.5495(10)
C42_2 C 0.0461(6) 0.9270(16) 0.6002(13)
H25_2 H 0.0299 0.8341 0.5721
C43_2 C 0.0918(6) 0.9243(14) 0.6926(11)
H26_2 H 0.1050 0.8310 0.7256
C15_2 C 0.8335(4) 0.0554(13) 0.1648(8)
C16_2 C 0.8828(4) 0.0579(14) 0.2650(8)
C17_2 C 0.9047(6) 0.1936(15) 0.3114(11)
H9_2 H 0.8887 0.2861 0.2816
C18_2 C 0.9507(6) 0.1951(19) 0.4030(12)
H10_2 H 0.9650 0.2889 0.4334
C19_2 C 0.9759(5) 0.0588(16) 0.4505(10)
C20_2 C 0.9539(6) 0.9270(16) 0.3998(13)
H11_2 H 0.9701 0.8341 0.4279
C21_2 C 0.9082(6) 0.9243(14) 0.3074(11)
H12_2 H 0.8950 0.8310 0.2744
loop_
_geom_bond_atom_site_label_1
_geom_bond_atom_site_label_2
_geom_bond_site_symmetry_1
_geom_bond_site_symmetry_2
O11 Sm2 1_555 1_555
O18 Sm2 1_555 1_555
O23 Sm2 1_555 1_555
C25 H15 1_555 1_555
C26 C25 1_555 1_555
H16 C26 1_555 1_555
H19 C31 1_555 1_555
C32 C31 1_555 1_555
H20 C32 1_555 1_555
C44 H27 1_555 1_555
O25 C44 1_555 1_555
C36 O18 1_555 1_555
C44 O24 1_555 1_555
C1 C2 1_555 1_555
C2 C3 1_555 1_555
C3 H1 1_555 1_555
C4 C3 1_555 1_555
H2 C4 1_555 1_555
C5 C4 1_555 1_555
C6 C5 1_555 1_555
H3 C6 1_555 1_555
C7 C2 1_555 1_555
H4 C7 1_555 1_555
C8 C5 1_555 1_555
C9 C8 1_555 1_555
H5 C9 1_555 1_555
C10 C9 1_555 1_555
H6 C10 1_555 1_555
C11 C10 1_555 1_555
C12 C11 1_555 1_555
H7 C12 1_555 1_555
C13 C8 1_555 1_555
H8 C13 1_555 1_555
C14 C11 1_555 1_555
C15 C16 1_555 1_555
C16 C17 1_555 1_555
C17 H9 1_555 1_555
C18 C17 1_555 1_555
H10 C18 1_555 1_555
C19 C18 1_555 1_555
C20 C19 1_555 1_555
H11 C20 1_555 1_555
C21 C16 1_555 1_555
H12 C21 1_555 1_555
O1 C1 1_555 1_555
O11 C1 1_555 1_555
O15 C14 1_555 1_555
O4 C14 1_555 1_555
O23 C15 1_555 1_555
O8 C22 1_555 1_555
Sm4 O15 1_555 1_555
Sm7 O21 1_555 1_555
C37 C38 1_555 1_555
C38 C39 1_555 1_555
C39 H23 1_555 1_555
C40 C39 1_555 1_555
H24 C40 1_555 1_555
C41 C19 1_555 1_555
C42 C41 1_555 1_555
H25 C42 1_555 1_555
C43 C38 1_555 1_555
H26 C43 1_555 1_555
O19 C37 1_555 1_555
O21 C37 1_555 1_555
C6 C7 1_555 1_555
C12 C13 1_555 1_555
C15 O5 1_555 1_555
C20 C21 1_555 1_555
C22 O7 1_555 1_555
O4 Sm4 1_555 1_555
C40 C41 1_555 1_555
C42 C43 1_555 1_555
C23 C24 1_555 1_555
C28 C27 1_555 1_555
H17 C28 1_555 1_555
C29 C24 1_555 1_555
H18 C29 1_555 1_555
C30 C27 1_555 1_555
C34 C33 1_555 1_555
H21 C34 1_555 1_555
C35 C30 1_555 1_555
H22 C35 1_555 1_555
O10 Sm4 1_555 1_555
O22 Sm4 1_555 1_555
C23 O10 1_555 1_555
C28 C29 1_555 1_555
C34 C35 1_555 1_555
C25_2 H15_2 1_555 1_555
C26_2 C25_2 1_555 1_555
H16_2 C26_2 1_555 1_555
H19_2 C31_2 1_555 1_555
C32_2 C31_2 1_555 1_555
H20_2 C32_2 1_555 1_555
C44_2 H27_2 1_555 1_555
O16 Sm7 1_555 1_555
O25_2 C44_2 1_555 1_555
C36_2 O16 1_555 1_555
C44_2 O24_2 1_555 1_555
O11_2 Sm7 1_555 1_555
C23_2 C24_2 1_555 1_555
C28_2 C27_2 1_555 1_555
H17_2 C28_2 1_555 1_555
C29_2 C24_2 1_555 1_555
H18_2 C29_2 1_555 1_555
C30_2 C27_2 1_555 1_555
C34_2 C33_2 1_555 1_555
H21_2 C34_2 1_555 1_555
C35_2 C30_2 1_555 1_555
H22_2 C35_2 1_555 1_555
O10_2 Sm6 1_555 1_555
O15_2 Sm6 1_555 1_555
O17 Sm6 1_555 1_555
O22_2 Sm6 1_555 1_555
C23_2 O10_2 1_555 1_555
C28_2 C29_2 1_555 1_555
C34_2 C35_2 1_555 1_555
C1_2 C2_2 1_555 1_555
C2_2 C3_2 1_555 1_555
C3_2 H1_2 1_555 1_555
C4_2 C3_2 1_555 1_555
H2_2 C4_2 1_555 1_555
C5_2 C4_2 1_555 1_555
C6_2 C5_2 1_555 1_555
H3_2 C6_2 1_555 1_555
C7_2 C2_2 1_555 1_555
H4_2 C7_2 1_555 1_555
C8_2 C5_2 1_555 1_555
C9_2 C8_2 1_555 1_555
H5_2 C9_2 1_555 1_555
C10_2 C9_2 1_555 1_555
H6_2 C10_2 1_555 1_555
C11_2 C10_2 1_555 1_555
C12_2 C11_2 1_555 1_555
H7_2 C12_2 1_555 1_555
C13_2 C8_2 1_555 1_555
H8_2 C13_2 1_555 1_555
C14_2 C11_2 1_555 1_555
O1_2 C1_2 1_555 1_555
O11_2 C1_2 1_555 1_555
O15_2 C14_2 1_555 1_555
O17 C14_2 1_555 1_555
O8_2 C22_2 1_555 1_555
C6_2 C7_2 1_555 1_555
C12_2 C13_2 1_555 1_555
C22_2 O7_2 1_555 1_555
C37_2 C38_2 1_555 1_555
C38_2 C39_2 1_555 1_555
C39_2 H23_2 1_555 1_555
C40_2 C39_2 1_555 1_555
H24_2 C40_2 1_555 1_555
O20 C37_2 1_555 1_555
C40_2 C41_2 1_555 1_555
H25_2 C42_2 1_555 1_555
H26_2 C43_2 1_555 1_555
C42_2 C43_2 1_555 1_555
C15_2 C16_2 1_555 1_555
C16_2 C17_2 1_555 1_555
C17_2 H9_2 1_555 1_555
C18_2 C17_2 1_555 1_555
H10_2 C18_2 1_555 1_555
C19_2 C18_2 1_555 1_555
C15_2 O20_2 1_555 1_555
H11_2 C20_2 1_555 1_555
H12_2 C21_2 1_555 1_555
C20_2 C21_2 1_555 1_555

#END
