
###############################################################################
#
# This file contains modified crystal structure data generated from the
# MOF subset of the Cambridge Structural Database (CSD) v543 
# hosted by the Cambridge Crystallographic Data Centre (CCDC).
#
# This work is licensed under the Creative Commons
# Attribution-NonCommercial-ShareAlike 4.0 International License.
# To view a copy of this license, visit
# http://creativecommons.org/licenses/by-nc-sa/4.0/
# or send a letter to
# Creative Commons, PO Box 1866, Mountain View, CA 94042, USA.
#
# CIF created using the CSD Python API on 29 September 2022
# The structure has been converted into the P1 space group
# The structure has a 3D framework
# The original CSD entry AFOVEX is in the monoclinic crystal system
# The original CSD entry AFOVEX is in a Sohncke space group
# The framework has been calculated to contain at least 10.0% void space
# The void calculation uses a probe of radius 1.32A, grid spacing 0.4
#
###############################################################################

data_AFOVEX
_chemical_formula_moiety         '(C88 H56 Ce2 O30)n'
_symmetry_cell_setting           triclinic
_symmetry_space_group_name_H-M   'P 1'
_symmetry_Int_Tables_number      1
_space_group_name_Hall           'P 1'
loop_
_symmetry_equiv_pos_site_id
_symmetry_equiv_pos_as_xyz
1 x,y,z
_cell_length_a                   28.912(8)
_cell_length_b                   8.789(2)
_cell_length_c                   14.257(4)
_cell_angle_alpha                90
_cell_angle_beta                 116.141(7)
_cell_angle_gamma                90
_cell_volume                     3252.24
loop_
_atom_site_label
_atom_site_type_symbol
_atom_site_fract_x
_atom_site_fract_y
_atom_site_fract_z
H13 H 0.1713 0.0300 0.0751
Ce2 Ce 0.273269(15) 0.23188(15) 0.00501(3)
O11 O 0.2241(4) 0.2852(10) 0.1035(7)
O18 O 0.3341(3) 0.0966(11) 0.1717(7)
O23 O 0.3195(4) 0.4317(13) 0.1228(9)
H28 H 0.4182 0.5039 0.0329
H14 H 0.0818 0.0039 0.9671
C25 C 0.3194(5) 0.0314(15) 0.7502(10)
H15 H 0.3336 0.1088 0.7991
C26 C 0.3235(5) 0.0326(15) 0.6540(9)
H16 H 0.3405 0.1127 0.6398
C31 C 0.3448(5) 0.0097(17) 0.4709(9)
H19 H 0.3716 0.0493 0.5307
C32 C 0.3437(5) 0.0316(16) 0.3699(9)
H20 H 0.3696 0.0873 0.3636
C36 C 0.3009(4) 0.0122(14) 0.1772(9)
C44 C 0.3545(6) 0.4563(15) 0.9478(14)
H27 H 0.3287 0.5300 0.9249
O9 O 0.2928(4) 0.0307(10) 0.9146(7)
O15 O 0.2383(3) 0.4707(10) 0.9024(6)
O20 O 0.1868(3) 0.1781(11) 0.8690(7)
O24 O 0.3418(4) 0.3237(12) 0.9561(9)
O25 O 0.4009(5) 0.4995(19) 0.9686(13)
Ce6 Ce 0.773269(15) 0.73188(15) 0.00501(3)
C1 C 0.2131(5) 0.4086(15) 0.1328(10)
C2 C 0.2066(5) 0.4097(14) 0.2319(9)
C3 C 0.1806(5) 0.5314(15) 0.2498(10)
H1 H 0.1664 0.6088 0.2009
C4 C 0.1765(5) 0.5326(15) 0.3460(9)
H2 H 0.1595 0.6127 0.3602
C5 C 0.1971(5) 0.4178(15) 0.4183(10)
C6 C 0.2205(7) 0.2961(19) 0.3962(12)
H3 H 0.2334 0.2158 0.4431
C7 C 0.2245(7) 0.2950(18) 0.3018(11)
H4 H 0.2401 0.2122 0.2867
C8 C 0.1951(5) 0.4278(15) 0.5225(9)
C9 C 0.1552(5) 0.5097(17) 0.5291(9)
H5 H 0.1284 0.5493 0.4693
C10 C 0.1563(5) 0.5316(16) 0.6301(9)
H6 H 0.1304 0.5873 0.6364
C11 C 0.1949(5) 0.4709(14) 0.7155(9)
C12 C 0.2320(6) 0.3811(18) 0.7063(10)
H7 H 0.2565 0.3315 0.7646
C13 C 0.2325(6) 0.3651(17) 0.6094(11)
H8 H 0.2589 0.3106 0.6045
C14 C 0.1991(4) 0.5122(14) 0.8228(9)
C15 C 0.3354(4) 0.5553(13) 0.1666(9)
C16 C 0.3835(5) 0.5578(16) 0.2657(10)
C17 C 0.4057(6) 0.6901(17) 0.3142(12)
H9 H 0.3894 0.7812 0.2847
C18 C 0.4506(7) 0.696(3) 0.4038(15)
H10 H 0.4650 0.7889 0.4334
C19 C 0.4758(5) 0.5536(18) 0.4523(11)
C20 C 0.4552(6) 0.4260(17) 0.3989(14)
H11 H 0.4730 0.3350 0.4228
C21 C 0.4087(6) 0.4232(17) 0.3095(12)
H12 H 0.3943 0.3306 0.2789
C22 C 0.1455(6) 0.9563(15) 0.0522(14)
O1 O 0.2072(4) 0.5307(10) 0.0854(7)
O4 O 0.1659(3) 0.5966(11) 0.8283(7)
O5 O 0.3132(3) 0.6781(11) 0.1310(7)
O7 O 0.1582(4) 0.8237(12) 0.0439(9)
O8 O 0.0991(5) 0.9995(19) 0.0314(13)
Ce4 Ce 0.226731(15) 0.73188(15) 0.99499(3)
Ce7 Ce 0.726731(15) 0.23188(15) 0.99499(3)
C37 C 0.6646(4) 0.5553(13) 0.8334(9)
C38 C 0.6165(5) 0.5578(16) 0.7343(10)
C39 C 0.5943(6) 0.6901(17) 0.6858(12)
H23 H 0.6106 0.7812 0.7153
C40 C 0.5494(7) 0.696(3) 0.5962(15)
H24 H 0.5350 0.7889 0.5666
C41 C 0.5242(5) 0.5536(18) 0.5477(11)
C42 C 0.5448(6) 0.4260(17) 0.6011(14)
H25 H 0.5270 0.3350 0.5772
C43 C 0.5913(6) 0.4232(17) 0.6905(12)
H26 H 0.6057 0.3306 0.7211
O14 O 0.2617(3) 0.9707(10) 0.0976(6)
O19 O 0.6868(3) 0.6781(11) 0.8690(7)
O21 O 0.6805(4) 0.4317(13) 0.8772(9)
C23 C 0.2869(5) 0.9086(15) 0.8672(10)
C24 C 0.2934(5) 0.9097(14) 0.7681(9)
C27 C 0.3029(5) 0.9178(15) 0.5817(10)
C28 C 0.2795(7) 0.7961(19) 0.6038(12)
H17 H 0.2666 0.7158 0.5569
C29 C 0.2755(7) 0.7950(18) 0.6982(11)
H18 H 0.2599 0.7122 0.7133
C30 C 0.3049(5) 0.9278(15) 0.4775(9)
C33 C 0.3051(5) 0.9709(14) 0.2845(9)
C34 C 0.2680(6) 0.8811(18) 0.2937(10)
H21 H 0.2435 0.8315 0.2354
C35 C 0.2675(6) 0.8651(17) 0.3906(11)
H22 H 0.2411 0.8106 0.3955
O10 O 0.2759(4) 0.7852(10) 0.8965(7)
O22 O 0.1805(4) 0.9317(13) 0.8772(9)
H14_2 H 0.9182 0.0039 0.0329
C25_2 C 0.6806(5) 0.0314(15) 0.2498(10)
H15_2 H 0.6664 0.1088 0.2009
C26_2 C 0.6765(5) 0.0326(15) 0.3460(9)
H16_2 H 0.6595 0.1127 0.3602
C31_2 C 0.6552(5) 0.0097(17) 0.5291(9)
H19_2 H 0.6284 0.0493 0.4693
C32_2 C 0.6563(5) 0.0316(16) 0.6301(9)
H20_2 H 0.6304 0.0873 0.6364
C36_2 C 0.6991(4) 0.0122(14) 0.8228(9)
C44_2 C 0.6455(6) 0.4563(15) 0.0522(14)
H27_2 H 0.6713 0.5300 0.0751
O9_2 O 0.7072(4) 0.0307(10) 0.0854(7)
O15_2 O 0.7617(3) 0.4707(10) 0.0976(6)
O16 O 0.6659(3) 0.0966(11) 0.8283(7)
O20_2 O 0.8132(3) 0.1781(11) 0.1310(7)
O24_2 O 0.6582(4) 0.3237(12) 0.0439(9)
O25_2 O 0.5991(5) 0.4995(19) 0.0314(13)
H13_2 H 0.8287 0.0300 0.9249
O11_2 O 0.7759(4) 0.2852(10) 0.8965(7)
H28_2 H 0.5818 0.5039 0.9671
C23_2 C 0.7131(5) 0.9086(15) 0.1328(10)
C24_2 C 0.7066(5) 0.9097(14) 0.2319(9)
C27_2 C 0.6971(5) 0.9178(15) 0.4183(10)
C28_2 C 0.7205(7) 0.7961(19) 0.3962(12)
H17_2 H 0.7334 0.7158 0.4431
C29_2 C 0.7245(7) 0.7950(18) 0.3018(11)
H18_2 H 0.7401 0.7122 0.2867
C30_2 C 0.6951(5) 0.9278(15) 0.5225(9)
C33_2 C 0.6949(5) 0.9709(14) 0.7155(9)
C34_2 C 0.7320(6) 0.8811(18) 0.7063(10)
H21_2 H 0.7565 0.8315 0.7646
C35_2 C 0.7325(6) 0.8651(17) 0.6094(11)
H22_2 H 0.7589 0.8106 0.6045
O10_2 O 0.7241(4) 0.7852(10) 0.1035(7)
O12 O 0.7383(3) 0.9707(10) 0.9024(6)
O17 O 0.8341(3) 0.5966(11) 0.1717(7)
O22_2 O 0.8195(4) 0.9317(13) 0.1228(9)
C1_2 C 0.7869(5) 0.4086(15) 0.8672(10)
C2_2 C 0.7934(5) 0.4097(14) 0.7681(9)
C3_2 C 0.8194(5) 0.5314(15) 0.7502(10)
H1_2 H 0.8336 0.6088 0.7991
C4_2 C 0.8235(5) 0.5326(15) 0.6540(9)
H2_2 H 0.8405 0.6127 0.6398
C5_2 C 0.8029(5) 0.4178(15) 0.5817(10)
C6_2 C 0.7795(7) 0.2961(19) 0.6038(12)
H3_2 H 0.7666 0.2158 0.5569
C7_2 C 0.7755(7) 0.2950(18) 0.6982(11)
H4_2 H 0.7599 0.2122 0.7133
C8_2 C 0.8049(5) 0.4278(15) 0.4775(9)
C9_2 C 0.8448(5) 0.5097(17) 0.4709(9)
H5_2 H 0.8716 0.5493 0.5307
C10_2 C 0.8437(5) 0.5316(16) 0.3699(9)
H6_2 H 0.8696 0.5873 0.3636
C11_2 C 0.8051(5) 0.4709(14) 0.2845(9)
C12_2 C 0.7680(6) 0.3811(18) 0.2937(10)
H7_2 H 0.7435 0.3315 0.2354
C13_2 C 0.7675(6) 0.3651(17) 0.3906(11)
H8_2 H 0.7411 0.3106 0.3955
C14_2 C 0.8009(4) 0.5122(14) 0.1772(9)
C22_2 C 0.8545(6) 0.9563(15) 0.9478(14)
O1_2 O 0.7928(4) 0.5307(10) 0.9146(7)
O7_2 O 0.8418(4) 0.8237(12) 0.9561(9)
O8_2 O 0.9009(5) 0.9995(19) 0.9686(13)
C37_2 C 0.1646(4) 0.0553(13) 0.8334(9)
C38_2 C 0.1165(5) 0.0578(16) 0.7343(10)
C39_2 C 0.0943(6) 0.1901(17) 0.6858(12)
H23_2 H 0.1106 0.2812 0.7153
C40_2 C 0.0494(7) 0.196(3) 0.5962(15)
H24_2 H 0.0350 0.2889 0.5666
C41_2 C 0.0242(5) 0.0536(18) 0.5477(11)
C42_2 C 0.0448(6) 0.9260(17) 0.6011(14)
H25_2 H 0.0270 0.8350 0.5772
C43_2 C 0.0913(6) 0.9232(17) 0.6905(12)
H26_2 H 0.1057 0.8306 0.7211
C15_2 C 0.8354(4) 0.0553(13) 0.1666(9)
C16_2 C 0.8835(5) 0.0578(16) 0.2657(10)
C17_2 C 0.9057(6) 0.1901(17) 0.3142(12)
H9_2 H 0.8894 0.2812 0.2847
C18_2 C 0.9506(7) 0.196(3) 0.4038(15)
H10_2 H 0.9650 0.2889 0.4334
C19_2 C 0.9758(5) 0.0536(18) 0.4523(11)
C20_2 C 0.9552(6) 0.9260(17) 0.3989(14)
H11_2 H 0.9730 0.8350 0.4228
C21_2 C 0.9087(6) 0.9232(17) 0.3095(12)
H12_2 H 0.8943 0.8306 0.2789
loop_
_geom_bond_atom_site_label_1
_geom_bond_atom_site_label_2
_geom_bond_site_symmetry_1
_geom_bond_site_symmetry_2
O11 Ce2 1_555 1_555
O18 Ce2 1_555 1_555
O23 Ce2 1_555 1_555
C25 H15 1_555 1_555
C26 C25 1_555 1_555
H16 C26 1_555 1_555
H19 C31 1_555 1_555
C32 C31 1_555 1_555
H20 C32 1_555 1_555
C44 H27 1_555 1_555
O25 C44 1_555 1_555
C36 O18 1_555 1_555
C44 O24 1_555 1_555
C1 C2 1_555 1_555
C2 C3 1_555 1_555
C3 H1 1_555 1_555
C4 C3 1_555 1_555
H2 C4 1_555 1_555
C5 C4 1_555 1_555
C6 C5 1_555 1_555
H3 C6 1_555 1_555
C7 C2 1_555 1_555
H4 C7 1_555 1_555
C8 C5 1_555 1_555
C9 C8 1_555 1_555
H5 C9 1_555 1_555
C10 C9 1_555 1_555
H6 C10 1_555 1_555
C11 C10 1_555 1_555
C12 C11 1_555 1_555
H7 C12 1_555 1_555
C13 C8 1_555 1_555
H8 C13 1_555 1_555
C14 C11 1_555 1_555
C15 C16 1_555 1_555
C16 C17 1_555 1_555
C17 H9 1_555 1_555
C18 C17 1_555 1_555
H10 C18 1_555 1_555
C19 C18 1_555 1_555
C20 C19 1_555 1_555
H11 C20 1_555 1_555
C21 C16 1_555 1_555
H12 C21 1_555 1_555
O1 C1 1_555 1_555
O11 C1 1_555 1_555
O15 C14 1_555 1_555
O4 C14 1_555 1_555
O23 C15 1_555 1_555
O8 C22 1_555 1_555
Ce4 O15 1_555 1_555
Ce7 O21 1_555 1_555
C37 C38 1_555 1_555
C38 C39 1_555 1_555
C39 H23 1_555 1_555
C40 C39 1_555 1_555
H24 C40 1_555 1_555
C41 C19 1_555 1_555
C42 C41 1_555 1_555
H25 C42 1_555 1_555
C43 C38 1_555 1_555
H26 C43 1_555 1_555
O19 C37 1_555 1_555
O21 C37 1_555 1_555
C6 C7 1_555 1_555
C12 C13 1_555 1_555
C15 O5 1_555 1_555
C20 C21 1_555 1_555
C22 O7 1_555 1_555
O4 Ce4 1_555 1_555
C40 C41 1_555 1_555
C42 C43 1_555 1_555
C23 C24 1_555 1_555
C28 C27 1_555 1_555
H17 C28 1_555 1_555
C29 C24 1_555 1_555
H18 C29 1_555 1_555
C30 C27 1_555 1_555
C34 C33 1_555 1_555
H21 C34 1_555 1_555
C35 C30 1_555 1_555
H22 C35 1_555 1_555
O10 Ce4 1_555 1_555
O22 Ce4 1_555 1_555
C23 O10 1_555 1_555
C28 C29 1_555 1_555
C34 C35 1_555 1_555
C25_2 H15_2 1_555 1_555
C26_2 C25_2 1_555 1_555
H16_2 C26_2 1_555 1_555
H19_2 C31_2 1_555 1_555
C32_2 C31_2 1_555 1_555
H20_2 C32_2 1_555 1_555
C44_2 H27_2 1_555 1_555
O16 Ce7 1_555 1_555
O25_2 C44_2 1_555 1_555
C36_2 O16 1_555 1_555
C44_2 O24_2 1_555 1_555
O11_2 Ce7 1_555 1_555
C23_2 C24_2 1_555 1_555
C28_2 C27_2 1_555 1_555
H17_2 C28_2 1_555 1_555
C29_2 C24_2 1_555 1_555
H18_2 C29_2 1_555 1_555
C30_2 C27_2 1_555 1_555
C34_2 C33_2 1_555 1_555
H21_2 C34_2 1_555 1_555
C35_2 C30_2 1_555 1_555
H22_2 C35_2 1_555 1_555
O10_2 Ce6 1_555 1_555
O15_2 Ce6 1_555 1_555
O17 Ce6 1_555 1_555
O22_2 Ce6 1_555 1_555
C23_2 O10_2 1_555 1_555
C28_2 C29_2 1_555 1_555
C34_2 C35_2 1_555 1_555
C1_2 C2_2 1_555 1_555
C2_2 C3_2 1_555 1_555
C3_2 H1_2 1_555 1_555
C4_2 C3_2 1_555 1_555
H2_2 C4_2 1_555 1_555
C5_2 C4_2 1_555 1_555
C6_2 C5_2 1_555 1_555
H3_2 C6_2 1_555 1_555
C7_2 C2_2 1_555 1_555
H4_2 C7_2 1_555 1_555
C8_2 C5_2 1_555 1_555
C9_2 C8_2 1_555 1_555
H5_2 C9_2 1_555 1_555
C10_2 C9_2 1_555 1_555
H6_2 C10_2 1_555 1_555
C11_2 C10_2 1_555 1_555
C12_2 C11_2 1_555 1_555
H7_2 C12_2 1_555 1_555
C13_2 C8_2 1_555 1_555
H8_2 C13_2 1_555 1_555
C14_2 C11_2 1_555 1_555
O1_2 C1_2 1_555 1_555
O11_2 C1_2 1_555 1_555
O15_2 C14_2 1_555 1_555
O17 C14_2 1_555 1_555
O8_2 C22_2 1_555 1_555
C6_2 C7_2 1_555 1_555
C12_2 C13_2 1_555 1_555
C22_2 O7_2 1_555 1_555
C37_2 C38_2 1_555 1_555
C38_2 C39_2 1_555 1_555
C39_2 H23_2 1_555 1_555
C40_2 C39_2 1_555 1_555
H24_2 C40_2 1_555 1_555
O20 C37_2 1_555 1_555
C40_2 C41_2 1_555 1_555
H25_2 C42_2 1_555 1_555
H26_2 C43_2 1_555 1_555
C42_2 C43_2 1_555 1_555
C15_2 C16_2 1_555 1_555
C16_2 C17_2 1_555 1_555
C17_2 H9_2 1_555 1_555
C18_2 C17_2 1_555 1_555
H10_2 C18_2 1_555 1_555
C19_2 C18_2 1_555 1_555
C15_2 O20_2 1_555 1_555
H11_2 C20_2 1_555 1_555
H12_2 C21_2 1_555 1_555
C20_2 C21_2 1_555 1_555

#END
