
###############################################################################
#
# This file contains modified crystal structure data generated from the
# MOF subset of the Cambridge Structural Database (CSD) v543 
# hosted by the Cambridge Crystallographic Data Centre (CCDC).
#
# This work is licensed under the Creative Commons
# Attribution-NonCommercial-ShareAlike 4.0 International License.
# To view a copy of this license, visit
# http://creativecommons.org/licenses/by-nc-sa/4.0/
# or send a letter to
# Creative Commons, PO Box 1866, Mountain View, CA 94042, USA.
#
# CIF created using the CSD Python API on 29 September 2022
# The structure has been converted into the P1 space group
# The structure has a 3D framework
# The original CSD entry AFOVAT is in the monoclinic crystal system
# The original CSD entry AFOVAT is in a Sohncke space group
# The framework has been calculated to contain at least 10.0% void space
# The void calculation uses a probe of radius 1.32A, grid spacing 0.4
#
###############################################################################

data_AFOVAT
_chemical_formula_moiety         '(C88 H56 La2 O30)n'
_symmetry_cell_setting           triclinic
_symmetry_space_group_name_H-M   'P 1'
_symmetry_Int_Tables_number      1
_space_group_name_Hall           'P 1'
loop_
_symmetry_equiv_pos_site_id
_symmetry_equiv_pos_as_xyz
1 x,y,z
_cell_length_a                   27.615(10)
_cell_length_b                   8.842(3)
_cell_length_c                   14.318(5)
_cell_angle_alpha                90
_cell_angle_beta                 114.311(4)
_cell_angle_gamma                90
_cell_volume                     3186.04
loop_
_atom_site_label
_atom_site_type_symbol
_atom_site_fract_x
_atom_site_fract_y
_atom_site_fract_z
H13 H 0.1662 0.0176 0.1032
O8 O 0.0951(6) 0.024(2) 0.0040(13)
La2 La 0.274289(19) 0.2273(2) 0.00353(3)
O11 O 0.2250(4) 0.2794(11) 0.1100(7)
O18 O 0.3376(4) 0.0906(12) 0.1677(7)
O23 O 0.3214(4) 0.4298(13) 0.1193(8)
H28 H 0.4246 0.5239 0.0594
H14 H 0.0754 0.0239 0.9406
C25 C 0.3203(5) 0.0282(17) 0.7383(10)
H15 H 0.3350 0.1059 0.7853
C26 C 0.3237(5) 0.0298(16) 0.6476(9)
H16 H 0.3408 0.1108 0.6327
H19 H 0.3762 0.0320 0.5207
C32 C 0.3465(5) 0.0279(17) 0.3653(9)
H20 H 0.3727 0.0868 0.3583
C36 C 0.3019(5) 0.0088(16) 0.1736(9)
C44 C 0.3596(7) 0.4572(17) 0.9451(14)
H27 H 0.3338 0.5176 0.8968
O9 O 0.2946(4) 0.0268(12) 0.9101(7)
O15 O 0.2381(3) 0.4669(11) 0.9042(6)
O20 O 0.1848(4) 0.1763(11) 0.8715(6)
O24 O 0.3453(5) 0.3249(14) 0.9511(9)
O25 O 0.4049(6) 0.524(2) 0.9960(13)
La6 La 0.774289(19) 0.7273(2) 0.00353(3)
C1 C 0.2127(5) 0.4010(17) 0.1378(9)
C2 C 0.2062(6) 0.4059(17) 0.2386(9)
C3 C 0.1797(5) 0.5282(17) 0.2617(10)
H1 H 0.1650 0.6059 0.2147
C4 C 0.1763(5) 0.5298(16) 0.3524(9)
H2 H 0.1592 0.6108 0.3673
C5 C 0.1971(5) 0.4160(17) 0.4255(9)
C6 C 0.2207(7) 0.290(2) 0.4000(11)
H3 H 0.2335 0.2102 0.4456
C7 C 0.2249(6) 0.2867(18) 0.3068(10)
H4 H 0.2404 0.2036 0.2900
C8 C 0.1935(6) 0.4254(15) 0.5261(9)
C9 C 0.1527(5) 0.4996(17) 0.5374(9)
H5 H 0.1238 0.5320 0.4793
C10 C 0.1535(5) 0.5279(17) 0.6347(9)
H6 H 0.1273 0.5868 0.6417
C11 C 0.1945(5) 0.4657(15) 0.7205(9)
C12 C 0.2325(6) 0.3835(17) 0.7090(10)
H7 H 0.2591 0.3402 0.7665
C13 C 0.2331(6) 0.3614(17) 0.6139(10)
H8 H 0.2599 0.3037 0.6082
C14 C 0.1981(5) 0.5088(16) 0.8264(9)
C15 C 0.3380(5) 0.5491(17) 0.1622(10)
C16 C 0.3869(6) 0.5531(17) 0.2613(11)
C17 C 0.4077(7) 0.683(2) 0.3118(12)
H9 H 0.3921 0.7745 0.2830
C18 C 0.4506(7) 0.684(3) 0.4031(14)
H10 H 0.4630 0.7758 0.4355
C19 C 0.4768(7) 0.551(2) 0.4505(14)
C20 C 0.4526(9) 0.414(3) 0.4029(17)
H11 H 0.4651 0.3217 0.4353
C21 C 0.4102(7) 0.4173(19) 0.3082(14)
H12 H 0.3968 0.3267 0.2745
C22 C 0.1404(7) 0.9572(17) 0.0549(14)
O1 O 0.2054(4) 0.5268(12) 0.0899(7)
O4 O 0.1624(4) 0.5906(12) 0.8323(7)
O5 O 0.3152(4) 0.6763(11) 0.1285(6)
O7 O 0.1547(5) 0.8249(14) 0.0489(9)
La4 La 0.225711(19) 0.7273(2) 0.99647(3)
La7 La 0.725711(19) 0.2273(2) 0.99647(3)
C37 C 0.6620(5) 0.5491(17) 0.8378(10)
C38 C 0.6131(6) 0.5531(17) 0.7387(11)
C39 C 0.5923(7) 0.683(2) 0.6882(12)
H23 H 0.6079 0.7745 0.7170
C40 C 0.5494(7) 0.684(3) 0.5969(14)
H24 H 0.5370 0.7758 0.5645
C41 C 0.5232(7) 0.551(2) 0.5495(14)
C42 C 0.5474(9) 0.414(3) 0.5971(17)
H25 H 0.5349 0.3217 0.5647
C43 C 0.5898(7) 0.4173(19) 0.6918(14)
H26 H 0.6032 0.3267 0.7255
O14 O 0.2619(3) 0.9669(11) 0.0958(6)
O19 O 0.6848(4) 0.6763(11) 0.8715(6)
O21 O 0.6786(4) 0.4298(13) 0.8807(8)
C23 C 0.2873(5) 0.9010(17) 0.8622(9)
C24 C 0.2938(6) 0.9059(17) 0.7614(9)
C27 C 0.3029(5) 0.9160(17) 0.5745(9)
C28 C 0.2793(7) 0.790(2) 0.6000(11)
H17 H 0.2665 0.7102 0.5544
C29 C 0.2751(6) 0.7867(18) 0.6932(10)
H18 H 0.2596 0.7036 0.7100
C30 C 0.3065(6) 0.9254(15) 0.4739(9)
C31 C 0.3473(5) 0.9996(17) 0.4626(9)
C33 C 0.3055(5) 0.9657(15) 0.2795(9)
C34 C 0.2675(6) 0.8835(17) 0.2910(10)
H21 H 0.2409 0.8402 0.2335
C35 C 0.2669(6) 0.8614(17) 0.3861(10)
H22 H 0.2401 0.8037 0.3918
O10 O 0.2750(4) 0.7794(11) 0.8900(7)
O22 O 0.1786(4) 0.9298(13) 0.8807(8)
H14_2 H 0.9246 0.0239 0.0594
C25_2 C 0.6797(5) 0.0282(17) 0.2617(10)
H15_2 H 0.6650 0.1059 0.2147
C26_2 C 0.6763(5) 0.0298(16) 0.3524(9)
H16_2 H 0.6592 0.1108 0.3673
H19_2 H 0.6238 0.0320 0.4793
C32_2 C 0.6535(5) 0.0279(17) 0.6347(9)
H20_2 H 0.6273 0.0868 0.6417
C36_2 C 0.6981(5) 0.0088(16) 0.8264(9)
C44_2 C 0.6404(7) 0.4572(17) 0.0549(14)
H27_2 H 0.6662 0.5176 0.1032
O9_2 O 0.7054(4) 0.0268(12) 0.0899(7)
O15_2 O 0.7619(3) 0.4669(11) 0.0958(6)
O16 O 0.6624(4) 0.0906(12) 0.8323(7)
O20_2 O 0.8152(4) 0.1763(11) 0.1285(6)
O24_2 O 0.6547(5) 0.3249(14) 0.0489(9)
O25_2 O 0.5951(6) 0.524(2) 0.0040(13)
H13_2 H 0.8338 0.0176 0.8968
O8_2 O 0.9049(6) 0.024(2) 0.9960(13)
O11_2 O 0.7750(4) 0.2794(11) 0.8900(7)
H28_2 H 0.5754 0.5239 0.9406
C23_2 C 0.7127(5) 0.9010(17) 0.1378(9)
C24_2 C 0.7062(6) 0.9059(17) 0.2386(9)
C27_2 C 0.6971(5) 0.9160(17) 0.4255(9)
C28_2 C 0.7207(7) 0.790(2) 0.4000(11)
H17_2 H 0.7335 0.7102 0.4456
C29_2 C 0.7249(6) 0.7867(18) 0.3068(10)
H18_2 H 0.7404 0.7036 0.2900
C30_2 C 0.6935(6) 0.9254(15) 0.5261(9)
C31_2 C 0.6527(5) 0.9996(17) 0.5374(9)
C33_2 C 0.6945(5) 0.9657(15) 0.7205(9)
C34_2 C 0.7325(6) 0.8835(17) 0.7090(10)
H21_2 H 0.7591 0.8402 0.7665
C35_2 C 0.7331(6) 0.8614(17) 0.6139(10)
H22_2 H 0.7599 0.8037 0.6082
O10_2 O 0.7250(4) 0.7794(11) 0.1100(7)
O12 O 0.7381(3) 0.9669(11) 0.9042(6)
O17 O 0.8376(4) 0.5906(12) 0.1677(7)
O22_2 O 0.8214(4) 0.9298(13) 0.1193(8)
C1_2 C 0.7873(5) 0.4010(17) 0.8622(9)
C2_2 C 0.7938(6) 0.4059(17) 0.7614(9)
C3_2 C 0.8203(5) 0.5282(17) 0.7383(10)
H1_2 H 0.8350 0.6059 0.7853
C4_2 C 0.8237(5) 0.5298(16) 0.6476(9)
H2_2 H 0.8408 0.6108 0.6327
C5_2 C 0.8029(5) 0.4160(17) 0.5745(9)
C6_2 C 0.7793(7) 0.290(2) 0.6000(11)
H3_2 H 0.7665 0.2102 0.5544
C7_2 C 0.7751(6) 0.2867(18) 0.6932(10)
H4_2 H 0.7596 0.2036 0.7100
C8_2 C 0.8065(6) 0.4254(15) 0.4739(9)
C9_2 C 0.8473(5) 0.4996(17) 0.4626(9)
H5_2 H 0.8762 0.5320 0.5207
C10_2 C 0.8465(5) 0.5279(17) 0.3653(9)
H6_2 H 0.8727 0.5868 0.3583
C11_2 C 0.8055(5) 0.4657(15) 0.2795(9)
C12_2 C 0.7675(6) 0.3835(17) 0.2910(10)
H7_2 H 0.7409 0.3402 0.2335
C13_2 C 0.7669(6) 0.3614(17) 0.3861(10)
H8_2 H 0.7401 0.3037 0.3918
C14_2 C 0.8019(5) 0.5088(16) 0.1736(9)
C22_2 C 0.8596(7) 0.9572(17) 0.9451(14)
O1_2 O 0.7946(4) 0.5268(12) 0.9101(7)
O7_2 O 0.8453(5) 0.8249(14) 0.9511(9)
C37_2 C 0.1620(5) 0.0491(17) 0.8378(10)
C38_2 C 0.1131(6) 0.0531(17) 0.7387(11)
C39_2 C 0.0923(7) 0.183(2) 0.6882(12)
H23_2 H 0.1079 0.2745 0.7170
C40_2 C 0.0494(7) 0.184(3) 0.5969(14)
H24_2 H 0.0370 0.2758 0.5645
C41_2 C 0.0232(7) 0.051(2) 0.5495(14)
C42_2 C 0.0474(9) 0.914(3) 0.5971(17)
H25_2 H 0.0349 0.8217 0.5647
C43_2 C 0.0898(7) 0.9173(19) 0.6918(14)
H26_2 H 0.1032 0.8267 0.7255
C15_2 C 0.8380(5) 0.0491(17) 0.1622(10)
C16_2 C 0.8869(6) 0.0531(17) 0.2613(11)
C17_2 C 0.9077(7) 0.183(2) 0.3118(12)
H9_2 H 0.8921 0.2745 0.2830
C18_2 C 0.9506(7) 0.184(3) 0.4031(14)
H10_2 H 0.9630 0.2758 0.4355
C19_2 C 0.9768(7) 0.051(2) 0.4505(14)
C20_2 C 0.9526(9) 0.914(3) 0.4029(17)
H11_2 H 0.9651 0.8217 0.4353
C21_2 C 0.9102(7) 0.9173(19) 0.3082(14)
H12_2 H 0.8968 0.8267 0.2745
loop_
_geom_bond_atom_site_label_1
_geom_bond_atom_site_label_2
_geom_bond_site_symmetry_1
_geom_bond_site_symmetry_2
O11 La2 1_555 1_555
O18 La2 1_555 1_555
O23 La2 1_555 1_555
C25 H15 1_555 1_555
C26 C25 1_555 1_555
H16 C26 1_555 1_555
H20 C32 1_555 1_555
C44 H27 1_555 1_555
O25 C44 1_555 1_555
C36 O18 1_555 1_555
C44 O24 1_555 1_555
C1 C2 1_555 1_555
C2 C3 1_555 1_555
C3 H1 1_555 1_555
C4 C3 1_555 1_555
H2 C4 1_555 1_555
C5 C4 1_555 1_555
C6 C5 1_555 1_555
H3 C6 1_555 1_555
C7 C2 1_555 1_555
H4 C7 1_555 1_555
C8 C5 1_555 1_555
C9 C8 1_555 1_555
H5 C9 1_555 1_555
C10 C9 1_555 1_555
H6 C10 1_555 1_555
C11 C10 1_555 1_555
C12 C11 1_555 1_555
H7 C12 1_555 1_555
C13 C8 1_555 1_555
H8 C13 1_555 1_555
C14 C11 1_555 1_555
C15 C16 1_555 1_555
C16 C17 1_555 1_555
C17 H9 1_555 1_555
C18 C17 1_555 1_555
H10 C18 1_555 1_555
C19 C18 1_555 1_555
C20 C19 1_555 1_555
H11 C20 1_555 1_555
C21 C16 1_555 1_555
H12 C21 1_555 1_555
O1 C1 1_555 1_555
O11 C1 1_555 1_555
O15 C14 1_555 1_555
O4 C14 1_555 1_555
O23 C15 1_555 1_555
La4 O15 1_555 1_555
La7 O21 1_555 1_555
C37 C38 1_555 1_555
C38 C39 1_555 1_555
C39 H23 1_555 1_555
C40 C39 1_555 1_555
H24 C40 1_555 1_555
C41 C19 1_555 1_555
C42 C41 1_555 1_555
H25 C42 1_555 1_555
C43 C38 1_555 1_555
H26 C43 1_555 1_555
O19 C37 1_555 1_555
O21 C37 1_555 1_555
C6 C7 1_555 1_555
C12 C13 1_555 1_555
C15 O5 1_555 1_555
C20 C21 1_555 1_555
C22 O7 1_555 1_555
O4 La4 1_555 1_555
C40 C41 1_555 1_555
C42 C43 1_555 1_555
C23 C24 1_555 1_555
C28 C27 1_555 1_555
H17 C28 1_555 1_555
C29 C24 1_555 1_555
H18 C29 1_555 1_555
C30 C27 1_555 1_555
C31 C30 1_555 1_555
C34 C33 1_555 1_555
H21 C34 1_555 1_555
C35 C30 1_555 1_555
H22 C35 1_555 1_555
O10 La4 1_555 1_555
O22 La4 1_555 1_555
C23 O10 1_555 1_555
C28 C29 1_555 1_555
C34 C35 1_555 1_555
C25_2 H15_2 1_555 1_555
C26_2 C25_2 1_555 1_555
H16_2 C26_2 1_555 1_555
H20_2 C32_2 1_555 1_555
C44_2 H27_2 1_555 1_555
O16 La7 1_555 1_555
O25_2 C44_2 1_555 1_555
C36_2 O16 1_555 1_555
C44_2 O24_2 1_555 1_555
O11_2 La7 1_555 1_555
C23_2 C24_2 1_555 1_555
C28_2 C27_2 1_555 1_555
H17_2 C28_2 1_555 1_555
C29_2 C24_2 1_555 1_555
H18_2 C29_2 1_555 1_555
C30_2 C27_2 1_555 1_555
C31_2 C30_2 1_555 1_555
C34_2 C33_2 1_555 1_555
H21_2 C34_2 1_555 1_555
C35_2 C30_2 1_555 1_555
H22_2 C35_2 1_555 1_555
O10_2 La6 1_555 1_555
O15_2 La6 1_555 1_555
O17 La6 1_555 1_555
O22_2 La6 1_555 1_555
C23_2 O10_2 1_555 1_555
C28_2 C29_2 1_555 1_555
C34_2 C35_2 1_555 1_555
C1_2 C2_2 1_555 1_555
C2_2 C3_2 1_555 1_555
C3_2 H1_2 1_555 1_555
C4_2 C3_2 1_555 1_555
H2_2 C4_2 1_555 1_555
C5_2 C4_2 1_555 1_555
C6_2 C5_2 1_555 1_555
H3_2 C6_2 1_555 1_555
C7_2 C2_2 1_555 1_555
H4_2 C7_2 1_555 1_555
C8_2 C5_2 1_555 1_555
C9_2 C8_2 1_555 1_555
H5_2 C9_2 1_555 1_555
C10_2 C9_2 1_555 1_555
H6_2 C10_2 1_555 1_555
C11_2 C10_2 1_555 1_555
C12_2 C11_2 1_555 1_555
H7_2 C12_2 1_555 1_555
C13_2 C8_2 1_555 1_555
H8_2 C13_2 1_555 1_555
C14_2 C11_2 1_555 1_555
O1_2 C1_2 1_555 1_555
O11_2 C1_2 1_555 1_555
O15_2 C14_2 1_555 1_555
O17 C14_2 1_555 1_555
C6_2 C7_2 1_555 1_555
C12_2 C13_2 1_555 1_555
C22_2 O7_2 1_555 1_555
C37_2 C38_2 1_555 1_555
C38_2 C39_2 1_555 1_555
C39_2 H23_2 1_555 1_555
C40_2 C39_2 1_555 1_555
H24_2 C40_2 1_555 1_555
O20 C37_2 1_555 1_555
C40_2 C41_2 1_555 1_555
H25_2 C42_2 1_555 1_555
H26_2 C43_2 1_555 1_555
C42_2 C43_2 1_555 1_555
C15_2 C16_2 1_555 1_555
C16_2 C17_2 1_555 1_555
C17_2 H9_2 1_555 1_555
C18_2 C17_2 1_555 1_555
H10_2 C18_2 1_555 1_555
C19_2 C18_2 1_555 1_555
C15_2 O20_2 1_555 1_555
H11_2 C20_2 1_555 1_555
H12_2 C21_2 1_555 1_555
C20_2 C21_2 1_555 1_555

#END
