
###############################################################################
#
# This file contains modified crystal structure data generated from the
# MOF subset of the Cambridge Structural Database (CSD) v543 
# hosted by the Cambridge Crystallographic Data Centre (CCDC).
#
# This work is licensed under the Creative Commons
# Attribution-NonCommercial-ShareAlike 4.0 International License.
# To view a copy of this license, visit
# http://creativecommons.org/licenses/by-nc-sa/4.0/
# or send a letter to
# Creative Commons, PO Box 1866, Mountain View, CA 94042, USA.
#
# CIF created using the CSD Python API on 29 September 2022
# The structure has been converted into the P1 space group
# The structure has a 3D framework
# The original CSD entry AFOVOH is in the monoclinic crystal system
# The original CSD entry AFOVOH is in a Sohncke space group
# The framework has been calculated to contain at least 10.0% void space
# The void calculation uses a probe of radius 1.32A, grid spacing 0.4
#
###############################################################################

data_AFOVOH
_chemical_formula_moiety         '(C88 H56 Nd2 O32)n'
_symmetry_cell_setting           triclinic
_symmetry_space_group_name_H-M   'P 1'
_symmetry_Int_Tables_number      1
_space_group_name_Hall           'P 1'
loop_
_symmetry_equiv_pos_site_id
_symmetry_equiv_pos_as_xyz
1 x,y,z
_cell_length_a                   28.769(12)
_cell_length_b                   8.723(3)
_cell_length_c                   14.179(6)
_cell_angle_alpha                90
_cell_angle_beta                 116.028(11)
_cell_angle_gamma                90
_cell_volume                     3197.37
loop_
_atom_site_label
_atom_site_type_symbol
_atom_site_fract_x
_atom_site_fract_y
_atom_site_fract_z
Nd6 Nd 0.773093(16) 0.13108(15) 0.00504(3)
H1 H 0.1683 0.0114 0.2033
H2 H 0.1586 0.0119 0.3584
C17 C 0.4039(6) 0.0886(17) 0.3140(13)
H9 H 0.3874 0.1802 0.2846
C18 C 0.4495(7) 0.095(2) 0.4055(15)
H10 H 0.4632 0.1888 0.4357
C22 C 0.1473(6) 0.3548(16) 0.0528(15)
H13 H 0.1733 0.4284 0.0793
O4 O 0.1673(3) 0.0000(10) 0.8301(7)
O5 O 0.3124(4) 0.0785(10) 0.1289(8)
O7 O 0.1594(5) 0.2211(13) 0.0428(10)
O8 O 0.0999(6) 0.396(2) 0.0275(14)
H14 H 0.0839 0.3340 0.0490
Nd2 Nd 0.273093(16) 0.63108(15) 0.00504(3)
Nd4 Nd 0.226907(16) 0.13108(15) 0.99496(3)
C39 C 0.5961(6) 0.0886(17) 0.6860(13)
H23 H 0.6126 0.1802 0.7154
C40 C 0.5505(7) 0.095(2) 0.5945(15)
H24 H 0.5368 0.1888 0.5643
O11 O 0.2244(4) 0.6824(10) 0.1015(7)
O14 O 0.2608(3) 0.3668(10) 0.0958(6)
O18 O 0.3327(3) 0.5000(10) 0.1699(7)
O19 O 0.6876(4) 0.0785(10) 0.8711(8)
O23 O 0.3192(4) 0.8266(11) 0.1237(8)
C23 C 0.2874(5) 0.3103(14) 0.8682(10)
C24 C 0.2943(5) 0.3082(14) 0.7698(9)
C25 C 0.3188(5) 0.4309(15) 0.7492(10)
H15 H 0.3317 0.5114 0.7967
C26 C 0.3239(5) 0.4315(15) 0.6547(10)
H16 H 0.3414 0.5119 0.6416
C27 C 0.3034(6) 0.3156(17) 0.5806(11)
C28 C 0.2812(6) 0.1921(17) 0.6056(12)
H17 H 0.2686 0.1108 0.5587
C29 C 0.2770(6) 0.1867(17) 0.7013(12)
H18 H 0.2627 0.1013 0.7179
C30 C 0.3060(5) 0.3234(15) 0.4786(10)
C31 C 0.3458(5) 0.4077(15) 0.4702(10)
H19 H 0.3729 0.4476 0.5299
C32 C 0.3442(5) 0.4307(15) 0.3704(10)
H20 H 0.3698 0.4886 0.3638
C33 C 0.3048(5) 0.3673(15) 0.2824(10)
C34 C 0.2680(5) 0.2758(16) 0.2942(11)
H21 H 0.2434 0.2251 0.2360
C35 C 0.2673(6) 0.2589(16) 0.3881(11)
H22 H 0.2407 0.2035 0.3925
C36 C 0.3012(4) 0.4104(13) 0.1755(9)
C44 C 0.3527(6) 0.8548(16) 0.9472(15)
H27 H 0.3267 0.9284 0.9207
O9 O 0.2928(4) 0.4311(11) 0.9154(8)
O10 O 0.2756(4) 0.1824(10) 0.8985(7)
O15 O 0.2392(3) 0.8668(10) 0.9042(6)
O20 O 0.1876(4) 0.5785(10) 0.8711(8)
O22 O 0.1808(4) 0.3266(11) 0.8763(8)
O24 O 0.3406(5) 0.7211(13) 0.9572(10)
O25 O 0.4001(6) 0.896(2) 0.9725(14)
H28 H 0.4161 0.8340 0.9510
C1 C 0.2126(5) 0.8103(14) 0.1318(10)
C2 C 0.2057(5) 0.8082(14) 0.2302(9)
C3 C 0.1812(5) 0.9309(15) 0.2508(10)
C4 C 0.1761(5) 0.9315(15) 0.3453(10)
C5 C 0.1966(6) 0.8156(17) 0.4194(11)
C6 C 0.2188(6) 0.6921(17) 0.3944(12)
H3 H 0.2314 0.6108 0.4413
C7 C 0.2230(6) 0.6867(17) 0.2987(12)
H4 H 0.2373 0.6013 0.2821
C8 C 0.1940(5) 0.8234(15) 0.5214(10)
C9 C 0.1542(5) 0.9077(15) 0.5298(10)
H5 H 0.1271 0.9476 0.4701
C10 C 0.1558(5) 0.9307(15) 0.6296(10)
H6 H 0.1302 0.9886 0.6362
C11 C 0.1952(5) 0.8673(15) 0.7176(10)
C12 C 0.2320(5) 0.7758(16) 0.7058(11)
H7 H 0.2566 0.7251 0.7640
C13 C 0.2327(6) 0.7589(16) 0.6119(11)
H8 H 0.2593 0.7035 0.6075
C14 C 0.1988(4) 0.9104(13) 0.8245(9)
C15 C 0.3346(5) 0.9511(14) 0.1667(10)
C16 C 0.3820(5) 0.9548(16) 0.2648(11)
C19 C 0.4757(6) 0.955(2) 0.4539(14)
C20 C 0.4554(6) 0.8216(19) 0.3953(14)
H11 H 0.4744 0.7312 0.4151
C21 C 0.4082(6) 0.8210(18) 0.3094(13)
H12 H 0.3932 0.7276 0.2803
O1 O 0.2072(4) 0.9311(11) 0.0846(8)
O4_2 O 0.1673(3) 1.0000(10) 0.8301(7)
Nd7 Nd 0.726907(16) 0.63108(15) 0.99496(3)
C37 C 0.6654(5) 0.9511(14) 0.8333(10)
C38 C 0.6180(5) 0.9548(16) 0.7352(11)
C41 C 0.5243(6) 0.955(2) 0.5461(14)
C42 C 0.5446(6) 0.8216(19) 0.6047(14)
H25 H 0.5256 0.7312 0.5849
C43 C 0.5918(6) 0.8210(18) 0.6906(13)
H26 H 0.6068 0.7276 0.7197
O21 O 0.6808(4) 0.8266(11) 0.8763(8)
C23_2 C 0.7126(5) 0.3103(14) 0.1318(10)
C24_2 C 0.7057(5) 0.3082(14) 0.2302(9)
C25_2 C 0.6812(5) 0.4309(15) 0.2508(10)
H15_2 H 0.6683 0.5114 0.2033
C26_2 C 0.6761(5) 0.4315(15) 0.3453(10)
H16_2 H 0.6586 0.5119 0.3584
C27_2 C 0.6966(6) 0.3156(17) 0.4194(11)
C28_2 C 0.7188(6) 0.1921(17) 0.3944(12)
H17_2 H 0.7314 0.1108 0.4413
C29_2 C 0.7230(6) 0.1867(17) 0.2987(12)
H18_2 H 0.7373 0.1013 0.2821
C30_2 C 0.6940(5) 0.3234(15) 0.5214(10)
C31_2 C 0.6542(5) 0.4077(15) 0.5298(10)
H19_2 H 0.6271 0.4476 0.4701
C32_2 C 0.6558(5) 0.4307(15) 0.6296(10)
H20_2 H 0.6302 0.4886 0.6362
C33_2 C 0.6952(5) 0.3673(15) 0.7176(10)
C34_2 C 0.7320(5) 0.2758(16) 0.7058(11)
H21_2 H 0.7566 0.2251 0.7640
C35_2 C 0.7327(6) 0.2589(16) 0.6119(11)
H22_2 H 0.7593 0.2035 0.6075
C36_2 C 0.6988(4) 0.4104(13) 0.8245(9)
C44_2 C 0.6473(6) 0.8548(16) 0.0528(15)
H27_2 H 0.6733 0.9284 0.0793
O9_2 O 0.7072(4) 0.4311(11) 0.0846(8)
O10_2 O 0.7244(4) 0.1824(10) 0.1015(7)
O12 O 0.7392(3) 0.3668(10) 0.9042(6)
O15_2 O 0.7608(3) 0.8668(10) 0.0958(6)
O16 O 0.6673(3) 0.5000(10) 0.8301(7)
O17 O 0.8327(3) 0.0000(10) 0.1699(7)
O20_2 O 0.8124(4) 0.5785(10) 0.1289(8)
O22_2 O 0.8192(4) 0.3266(11) 0.1237(8)
O24_2 O 0.6594(5) 0.7211(13) 0.0428(10)
O25_2 O 0.5999(6) 0.896(2) 0.0275(14)
H28_2 H 0.5839 0.8340 0.0490
H1_2 H 0.8317 0.0114 0.7967
H2_2 H 0.8414 0.0119 0.6416
C22_2 C 0.8527(6) 0.3548(16) 0.9472(15)
H13_2 H 0.8267 0.4284 0.9207
O7_2 O 0.8406(5) 0.2211(13) 0.9572(10)
O8_2 O 0.9001(6) 0.396(2) 0.9725(14)
H14_2 H 0.9161 0.3340 0.9510
O11_2 O 0.7756(4) 0.6824(10) 0.8985(7)
O17_2 O 0.8327(3) 1.0000(10) 0.1699(7)
C1_2 C 0.7874(5) 0.8103(14) 0.8682(10)
C2_2 C 0.7943(5) 0.8082(14) 0.7698(9)
C3_2 C 0.8188(5) 0.9309(15) 0.7492(10)
C4_2 C 0.8239(5) 0.9315(15) 0.6547(10)
C5_2 C 0.8034(6) 0.8156(17) 0.5806(11)
C6_2 C 0.7812(6) 0.6921(17) 0.6056(12)
H3_2 H 0.7686 0.6108 0.5587
C7_2 C 0.7770(6) 0.6867(17) 0.7013(12)
H4_2 H 0.7627 0.6013 0.7179
C8_2 C 0.8060(5) 0.8234(15) 0.4786(10)
C9_2 C 0.8458(5) 0.9077(15) 0.4702(10)
H5_2 H 0.8729 0.9476 0.5299
C10_2 C 0.8442(5) 0.9307(15) 0.3704(10)
H6_2 H 0.8698 0.9886 0.3638
C11_2 C 0.8048(5) 0.8673(15) 0.2824(10)
C12_2 C 0.7680(5) 0.7758(16) 0.2942(11)
H7_2 H 0.7434 0.7251 0.2360
C13_2 C 0.7673(6) 0.7589(16) 0.3881(11)
H8_2 H 0.7407 0.7035 0.3925
C14_2 C 0.8012(4) 0.9104(13) 0.1755(9)
O1_2 O 0.7928(4) 0.9311(11) 0.9154(8)
C37_2 C 0.1654(5) 0.4511(14) 0.8333(10)
C38_2 C 0.1180(5) 0.4548(16) 0.7352(11)
C39_2 C 0.0961(6) 0.5886(17) 0.6860(13)
H23_2 H 0.1126 0.6802 0.7154
C40_2 C 0.0505(7) 0.595(2) 0.5945(15)
H24_2 H 0.0368 0.6888 0.5643
C41_2 C 0.0243(6) 0.455(2) 0.5461(14)
C42_2 C 0.0446(6) 0.3216(19) 0.6047(14)
H25_2 H 0.0256 0.2312 0.5849
C43_2 C 0.0918(6) 0.3210(18) 0.6906(13)
H26_2 H 0.1068 0.2276 0.7197
C15_2 C 0.8346(5) 0.4511(14) 0.1667(10)
C16_2 C 0.8820(5) 0.4548(16) 0.2648(11)
C17_2 C 0.9039(6) 0.5886(17) 0.3140(13)
H9_2 H 0.8874 0.6802 0.2846
C18_2 C 0.9495(7) 0.595(2) 0.4055(15)
H10_2 H 0.9632 0.6888 0.4357
C19_2 C 0.9757(6) 0.455(2) 0.4539(14)
C20_2 C 0.9554(6) 0.3216(19) 0.3953(14)
H11_2 H 0.9744 0.2312 0.4151
C21_2 C 0.9082(6) 0.3210(18) 0.3094(13)
H12_2 H 0.8932 0.2276 0.2803
loop_
_geom_bond_atom_site_label_1
_geom_bond_atom_site_label_2
_geom_bond_site_symmetry_1
_geom_bond_site_symmetry_2
C17 H9 1_555 1_555
C18 C17 1_555 1_555
H10 C18 1_555 1_555
C22 H13 1_555 1_555
O8 C22 1_555 1_555
H14 O8 1_555 1_555
C39 H23 1_555 1_555
C40 C39 1_555 1_555
H24 C40 1_555 1_555
O11 Nd2 1_555 1_555
O18 Nd2 1_555 1_555
O23 Nd2 1_555 1_555
C22 O7 1_555 1_555
O4 Nd4 1_555 1_555
Nd2 O14 1_555 1_555
C23 C24 1_555 1_555
C24 C25 1_555 1_555
C25 H15 1_555 1_555
C26 C25 1_555 1_555
H16 C26 1_555 1_555
C27 C26 1_555 1_555
C28 C27 1_555 1_555
H17 C28 1_555 1_555
C29 C24 1_555 1_555
H18 C29 1_555 1_555
C30 C27 1_555 1_555
C31 C30 1_555 1_555
H19 C31 1_555 1_555
C32 C31 1_555 1_555
H20 C32 1_555 1_555
C33 C32 1_555 1_555
C34 C33 1_555 1_555
H21 C34 1_555 1_555
C35 C30 1_555 1_555
H22 C35 1_555 1_555
C36 C33 1_555 1_555
C44 H27 1_555 1_555
O9 C23 1_555 1_555
O10 Nd4 1_555 1_555
O14 C36 1_555 1_555
O22 Nd4 1_555 1_555
O25 C44 1_555 1_555
H28 O25 1_555 1_555
C23 O10 1_555 1_555
C28 C29 1_555 1_555
C34 C35 1_555 1_555
C36 O18 1_555 1_555
C44 O24 1_555 1_555
C1 C2 1_555 1_555
C2 C3 1_555 1_555
C4 C3 1_555 1_555
C5 C4 1_555 1_555
C6 C5 1_555 1_555
H3 C6 1_555 1_555
C7 C2 1_555 1_555
H4 C7 1_555 1_555
C8 C5 1_555 1_555
C9 C8 1_555 1_555
H5 C9 1_555 1_555
C10 C9 1_555 1_555
H6 C10 1_555 1_555
C11 C10 1_555 1_555
C12 C11 1_555 1_555
H7 C12 1_555 1_555
C13 C8 1_555 1_555
H8 C13 1_555 1_555
C14 C11 1_555 1_555
C15 C16 1_555 1_555
C20 C19 1_555 1_555
H11 C20 1_555 1_555
C21 C16 1_555 1_555
H12 C21 1_555 1_555
O1 C1 1_555 1_555
O11 C1 1_555 1_555
O15 C14 1_555 1_555
O4_2 C14 1_555 1_555
O23 C15 1_555 1_555
Nd7 O21 1_555 1_555
C37 C38 1_555 1_555
C41 C19 1_555 1_555
C42 C41 1_555 1_555
H25 C42 1_555 1_555
C43 C38 1_555 1_555
H26 C43 1_555 1_555
O21 C37 1_555 1_555
C6 C7 1_555 1_555
C12 C13 1_555 1_555
C20 C21 1_555 1_555
C42 C43 1_555 1_555
Nd7 O12 1_555 1_555
C23_2 C24_2 1_555 1_555
C24_2 C25_2 1_555 1_555
C25_2 H15_2 1_555 1_555
C26_2 C25_2 1_555 1_555
H16_2 C26_2 1_555 1_555
C27_2 C26_2 1_555 1_555
C28_2 C27_2 1_555 1_555
H17_2 C28_2 1_555 1_555
C29_2 C24_2 1_555 1_555
H18_2 C29_2 1_555 1_555
C30_2 C27_2 1_555 1_555
C31_2 C30_2 1_555 1_555
H19_2 C31_2 1_555 1_555
C32_2 C31_2 1_555 1_555
H20_2 C32_2 1_555 1_555
C33_2 C32_2 1_555 1_555
C34_2 C33_2 1_555 1_555
H21_2 C34_2 1_555 1_555
C35_2 C30_2 1_555 1_555
H22_2 C35_2 1_555 1_555
C36_2 C33_2 1_555 1_555
C44_2 H27_2 1_555 1_555
O9_2 C23_2 1_555 1_555
O10_2 Nd6 1_555 1_555
O12 C36_2 1_555 1_555
O16 Nd7 1_555 1_555
O17 Nd6 1_555 1_555
O22_2 Nd6 1_555 1_555
O25_2 C44_2 1_555 1_555
H28_2 O25_2 1_555 1_555
C23_2 O10_2 1_555 1_555
C28_2 C29_2 1_555 1_555
C34_2 C35_2 1_555 1_555
C36_2 O16 1_555 1_555
C44_2 O24_2 1_555 1_555
C22_2 H13_2 1_555 1_555
O8_2 C22_2 1_555 1_555
H14_2 O8_2 1_555 1_555
O11_2 Nd7 1_555 1_555
C22_2 O7_2 1_555 1_555
C1_2 C2_2 1_555 1_555
C2_2 C3_2 1_555 1_555
C4_2 C3_2 1_555 1_555
C5_2 C4_2 1_555 1_555
C6_2 C5_2 1_555 1_555
H3_2 C6_2 1_555 1_555
C7_2 C2_2 1_555 1_555
H4_2 C7_2 1_555 1_555
C8_2 C5_2 1_555 1_555
C9_2 C8_2 1_555 1_555
H5_2 C9_2 1_555 1_555
C10_2 C9_2 1_555 1_555
H6_2 C10_2 1_555 1_555
C11_2 C10_2 1_555 1_555
C12_2 C11_2 1_555 1_555
H7_2 C12_2 1_555 1_555
C13_2 C8_2 1_555 1_555
H8_2 C13_2 1_555 1_555
C14_2 C11_2 1_555 1_555
O1_2 C1_2 1_555 1_555
O11_2 C1_2 1_555 1_555
O15_2 C14_2 1_555 1_555
O17_2 C14_2 1_555 1_555
C6_2 C7_2 1_555 1_555
C12_2 C13_2 1_555 1_555
C37_2 C38_2 1_555 1_555
C38_2 C39_2 1_555 1_555
C39_2 H23_2 1_555 1_555
C40_2 C39_2 1_555 1_555
H24_2 C40_2 1_555 1_555
C42_2 C41_2 1_555 1_555
H25_2 C42_2 1_555 1_555
C43_2 C38_2 1_555 1_555
H26_2 C43_2 1_555 1_555
O20 C37_2 1_555 1_555
O22 C37_2 1_555 1_555
C40_2 C41_2 1_555 1_555
C42_2 C43_2 1_555 1_555
C15_2 C16_2 1_555 1_555
C16_2 C17_2 1_555 1_555
C17_2 H9_2 1_555 1_555
C18_2 C17_2 1_555 1_555
H10_2 C18_2 1_555 1_555
C19_2 C18_2 1_555 1_555
C20_2 C19_2 1_555 1_555
H11_2 C20_2 1_555 1_555
C21_2 C16_2 1_555 1_555
H12_2 C21_2 1_555 1_555
O22_2 C15_2 1_555 1_555
C15_2 O20_2 1_555 1_555
C20_2 C21_2 1_555 1_555

#END
