
###############################################################################
#
# This file contains modified crystal structure data generated from the
# MOF subset of the Cambridge Structural Database (CSD) v543 
# hosted by the Cambridge Crystallographic Data Centre (CCDC).
#
# This work is licensed under the Creative Commons
# Attribution-NonCommercial-ShareAlike 4.0 International License.
# To view a copy of this license, visit
# http://creativecommons.org/licenses/by-nc-sa/4.0/
# or send a letter to
# Creative Commons, PO Box 1866, Mountain View, CA 94042, USA.
#
# CIF created using the CSD Python API on 29 September 2022
# The structure has been converted into the P1 space group
# The structure has a 3D framework
# The original CSD entry AFOWOK is in the tetragonal crystal system
# The framework has been calculated to contain at least 10.0% void space
# The void calculation uses a probe of radius 1.32A, grid spacing 0.4
#
###############################################################################

data_AFOWOK
_chemical_formula_moiety         '(C208 H224 Cd16 N24 O84)n'
_symmetry_cell_setting           triclinic
_symmetry_space_group_name_H-M   'P 1'
_symmetry_Int_Tables_number      1
_space_group_name_Hall           'P 1'
loop_
_symmetry_equiv_pos_site_id
_symmetry_equiv_pos_as_xyz
1 x,y,z
_cell_length_a                   20.566(3)
_cell_length_b                   20.566(3)
_cell_length_c                   16.547(3)
_cell_angle_alpha                90
_cell_angle_beta                 90
_cell_angle_gamma                90
_cell_volume                     6998.73
loop_
_atom_site_label
_atom_site_type_symbol
_atom_site_fract_x
_atom_site_fract_y
_atom_site_fract_z
Cd5 Cd 0.03275(2) 0.76687(2) 0.45249(3)
H33 H 0.0221 0.3370 0.1666
H34 H 0.0087 0.2935 0.2451
H35 H 0.0168 0.2145 0.1325
H47 H 0.0013 0.1003 0.3744
O24 O 0.0388(3) 0.8781(2) 0.4395(3)
O32 O 0.1245(2) 0.7264(3) 0.5152(3)
O34 O 0.0948(2) 0.7590(2) 0.3411(3)
H48 H 0.0397 0.9990 0.4146
Cd1 Cd 0.66061(2) 0.23034(2) 0.22644(3)
O3 O 0.4612(3) 0.6219(2) 0.4395(3)
O4 O 0.5522(3) 0.6658(3) 0.3991(5)
O5 O 0.6802(2) 0.2282(2) 0.3715(3)
O6 O 0.6245(2) 0.2264(3) 0.4848(3)
O7 O 0.6760(2) 0.2375(2) 0.0870(3)
O9 O 0.7384(2) 0.3149(2) 0.2264(3)
O10 O 0.7590(2) 0.4052(2) 0.1589(3)
N1 N 0.6026(3) 0.1449(3) 0.2935(3)
N2 N 0.5565(3) 0.2217(3) 0.1553(4)
N3 N 0.6094(2) 0.3377(3) 0.2404(3)
C1 C 0.5480(4) 0.1232(4) 0.2419(5)
H3 H 0.5168 0.0980 0.2752
H4 H 0.5649 0.0940 0.1992
C2 C 0.5124(3) 0.1800(4) 0.2026(4)
H5 H 0.4779 0.1630 0.1666
H6 H 0.4913 0.2065 0.2451
C3 C 0.5303(3) 0.2884(4) 0.1442(5)
H7 H 0.4832 0.2855 0.1325
H8 H 0.5517 0.3084 0.0966
C4 C 0.5403(3) 0.3328(4) 0.2173(5)
H9 H 0.5234 0.3767 0.2045
H10 H 0.5150 0.3156 0.2635
C5 C 0.6486(4) 0.0908(3) 0.3110(5)
H11 H 0.6853 0.1086 0.3428
H12 H 0.6665 0.0750 0.2590
C6 C 0.6213(4) 0.0338(3) 0.3558(5)
C11 C 0.6219(5) 0.0288(4) 0.4392(6)
H16 H 0.6394 0.0636 0.4701
C13 C 0.6173(3) 0.3605(3) 0.3263(4)
H17 H 0.6642 0.3598 0.3396
H18 H 0.5956 0.3287 0.3622
C14 C 0.5910(4) 0.4276(3) 0.3459(4)
C15 C 0.5269(4) 0.4362(3) 0.3723(4)
H19 H 0.4987 0.3997 0.3744
C16 C 0.5037(4) 0.4967(4) 0.3956(5)
H20 H 0.4603 0.5010 0.4146
C17 C 0.5433(4) 0.5504(4) 0.3914(5)
C18 C 0.6072(4) 0.5426(4) 0.3656(6)
H21 H 0.6351 0.5794 0.3634
C19 C 0.6309(4) 0.4817(4) 0.3429(5)
H22 H 0.6747 0.4773 0.3252
C20 C 0.5180(4) 0.6174(4) 0.4118(5)
C21 C 0.5784(4) 0.1748(4) 0.3685(5)
H23 H 0.5620 0.1404 0.4050
H24 H 0.5417 0.2042 0.3556
C22 C 0.6308(3) 0.2126(3) 0.4107(4)
C23 C 0.5692(3) 0.1930(4) 0.0755(4)
H25 H 0.5322 0.2023 0.0390
H26 H 0.5732 0.1452 0.0809
C24 C 0.6313(4) 0.2204(3) 0.0393(5)
C25 C 0.6477(3) 0.3784(3) 0.1842(4)
H27 H 0.6391 0.4247 0.1962
H28 H 0.6329 0.3697 0.1283
C26 C 0.7210(3) 0.3660(3) 0.1894(4)
Cd4 Cd 0.83939(2) 0.26966(2) 0.22644(3)
O12 O 0.9890(3) 0.6718(3) 0.4313(4)
O13 O 0.9355(3) 0.6497(3) 0.5452(4)
O16 O 0.8198(2) 0.2718(2) 0.3715(3)
O17 O 0.8755(2) 0.2736(3) 0.4848(3)
O18 O 0.8240(2) 0.2625(2) 0.0870(3)
O20 O 0.7616(2) 0.1851(2) 0.2264(3)
O21 O 0.7410(2) 0.0948(2) 0.1589(3)
O22 O 0.9738(3) 0.7715(3) 0.5740(3)
H29 H 0.9432 0.7377 0.5781
H30 H 0.9463 0.8081 0.5779
N4 N 0.8974(3) 0.3551(3) 0.2935(3)
N5 N 0.9435(3) 0.2783(3) 0.1553(4)
N6 N 0.8906(2) 0.1623(3) 0.2404(3)
C27 C 0.9520(4) 0.3768(4) 0.2419(5)
H31 H 0.9832 0.4020 0.2752
H32 H 0.9351 0.4060 0.1992
C28 C 0.9876(3) 0.3200(4) 0.2026(4)
C29 C 0.9697(3) 0.2116(4) 0.1442(5)
H36 H 0.9483 0.1916 0.0966
C30 C 0.9597(3) 0.1672(4) 0.2173(5)
H37 H 0.9766 0.1233 0.2045
H38 H 0.9850 0.1844 0.2635
C31 C 0.8514(4) 0.4092(3) 0.3110(5)
H39 H 0.8147 0.3914 0.3428
H40 H 0.8335 0.4250 0.2590
C32 C 0.8787(4) 0.4662(3) 0.3558(5)
C33 C 0.9057(5) 0.5178(4) 0.3124(5)
H41 H 0.9060 0.5164 0.2550
C34 C 0.9323(5) 0.5712(5) 0.3519(6)
H42 H 0.9528 0.6048 0.3218
C35 C 0.9289(4) 0.5753(4) 0.4345(5)
C36 C 0.9024(5) 0.5259(5) 0.4793(6)
H43 H 0.9006 0.5287 0.5365
C37 C 0.8781(5) 0.4712(4) 0.4392(6)
H44 H 0.8606 0.4364 0.4701
C38 C 0.9527(4) 0.6372(4) 0.4745(6)
C39 C 0.8827(3) 0.1395(3) 0.3263(4)
H45 H 0.8358 0.1402 0.3396
H46 H 0.9044 0.1713 0.3622
C40 C 0.9090(4) 0.0724(3) 0.3459(4)
C41 C 0.9731(4) 0.0638(3) 0.3723(4)
C42 C 0.9963(4) 0.0033(4) 0.3956(5)
C45 C 0.8691(4) 0.0183(4) 0.3429(5)
H50 H 0.8253 0.0227 0.3252
C47 C 0.9216(4) 0.3252(4) 0.3685(5)
H51 H 0.9380 0.3596 0.4050
H52 H 0.9583 0.2958 0.3556
C48 C 0.8692(3) 0.2874(3) 0.4107(4)
C49 C 0.9308(3) 0.3070(4) 0.0755(4)
H53 H 0.9678 0.2977 0.0390
H54 H 0.9268 0.3548 0.0809
C50 C 0.8687(4) 0.2796(3) 0.0393(5)
C51 C 0.8523(3) 0.1216(3) 0.1842(4)
H55 H 0.8609 0.0753 0.1962
H56 H 0.8671 0.1303 0.1283
C52 C 0.7790(3) 0.1340(3) 0.1894(4)
Cd6 Cd 0.7500 0.2500 0.47871(4)
Cd7 Cd 0.46725(2) 0.73313(2) 0.45249(3)
Cd9 Cd 0.53275(2) 0.26687(2) 0.54751(3)
Cd10 Cd 0.96725(2) 0.23313(2) 0.54751(3)
Cd11 Cd 0.73313(2) 0.03275(2) 0.04751(3)
Cd12 Cd 0.76687(2) 0.46725(2) 0.04751(3)
O26 O 0.9478(3) 0.8342(3) 0.3991(5)
Cd2 Cd 0.7500 0.2500 0.97871(4)
O8 O 0.6373(2) 0.2232(3) 0.9649(3)
O19 O 0.8627(2) 0.2768(3) 0.9649(3)
O27 O 0.7718(2) 0.1802(2) 0.8715(3)
O28 O 0.7282(2) 0.3198(2) 0.8715(3)
O29 O 0.7736(3) 0.1245(2) 0.9848(3)
O30 O 0.7264(3) 0.3755(2) 0.9848(3)
O1 O 0.5110(3) 0.8282(3) 0.4313(4)
O2 O 0.5645(3) 0.8503(3) 0.5452(4)
O11 O 0.5262(3) 0.7285(3) 0.5740(3)
H1 H 0.5568 0.7623 0.5781
H2 H 0.5537 0.6919 0.5779
C7 C 0.5943(5) 0.9822(4) 0.3124(5)
H13 H 0.5940 0.9836 0.2550
C8 C 0.5677(5) 0.9288(5) 0.3519(6)
H14 H 0.5472 0.8952 0.3218
C9 C 0.5711(4) 0.9247(4) 0.4345(5)
C10 C 0.5976(5) 0.9741(5) 0.4793(6)
H15 H 0.5994 0.9713 0.5365
C12 C 0.5473(4) 0.8628(4) 0.4745(6)
C43 C 0.9567(4) 0.9496(4) 0.3914(5)
C44 C 0.8928(4) 0.9574(4) 0.3656(6)
H49 H 0.8649 0.9206 0.3634
C46 C 0.9820(4) 0.8826(4) 0.4118(5)
O31 O 0.3755(2) 0.7736(3) 0.5152(3)
O33 O 0.4052(2) 0.7410(2) 0.3411(3)
O1_2 O 0.1718(3) 0.0110(3) 0.9313(4)
C7_2 C 0.0178(4) 0.0943(5) 0.8124(5)
H13_2 H 0.0164 0.0940 0.7550
C8_2 C 0.0712(5) 0.0677(5) 0.8519(6)
H14_2 H 0.1048 0.0472 0.8218
C9_2 C 0.0753(4) 0.0711(4) 0.9345(5)
C10_2 C 0.0259(5) 0.0976(5) 0.9793(6)
C12_2 C 0.1372(4) 0.0473(4) 0.9745(6)
O14 O 0.1219(2) 0.5388(3) 0.9395(3)
O15 O 0.1658(3) 0.4478(3) 0.8991(5)
H48_2 H 0.0010 0.5397 0.9146
C43_2 C 0.0504(4) 0.4567(4) 0.8914(5)
C44_2 C 0.0426(4) 0.3928(4) 0.8656(6)
H49_2 H 0.0794 0.3649 0.8634
C46_2 C 0.1174(4) 0.4820(4) 0.9118(5)
Cd8 Cd 0.23313(2) 0.53275(2) 0.95249(3)
O25 O 0.3342(3) 0.0522(3) 0.8991(5)
O31_2 O 0.2264(3) 0.8755(2) 0.0152(3)
Cd3 Cd 0.26687(2) 0.96725(2) 0.95249(3)
O23 O 0.3781(2) 0.9612(3) 0.9395(3)
O33_2 O 0.2590(2) 0.9052(2) 0.8411(3)
O13_2 O 0.3503(3) 0.4355(3) 0.0452(4)
O22_2 O 0.2285(3) 0.4738(3) 0.0740(3)
H29_2 H 0.2623 0.4432 0.0781
H30_2 H 0.1919 0.4463 0.0779
H43_2 H 0.4713 0.4006 0.0365
O32_2 O 0.2736(3) 0.6245(2) 0.0152(3)
Cd1_2 Cd 0.76966(2) 0.16061(2) 0.72644(3)
O7_2 O 0.7625(2) 0.1760(2) 0.5870(3)
O8_2 O 0.7768(3) 0.1373(2) 0.4649(3)
O9_2 O 0.6851(2) 0.2384(2) 0.7264(3)
O10_2 O 0.5948(2) 0.2590(2) 0.6589(3)
N1_2 N 0.8551(3) 0.1026(3) 0.7935(3)
N2_2 N 0.7783(3) 0.0565(3) 0.6553(4)
N3_2 N 0.6623(3) 0.1094(2) 0.7404(3)
C1_2 C 0.8768(4) 0.0480(4) 0.7419(5)
H3_2 H 0.9020 0.0168 0.7752
H4_2 H 0.9060 0.0649 0.6992
C2_2 C 0.8200(4) 0.0124(3) 0.7026(4)
C3_2 C 0.7116(4) 0.0303(3) 0.6442(5)
H8_2 H 0.6916 0.0517 0.5966
C4_2 C 0.6672(4) 0.0403(3) 0.7173(5)
H9_2 H 0.6233 0.0234 0.7045
H10_2 H 0.6844 0.0150 0.7635
C5_2 C 0.9092(3) 0.1486(4) 0.8110(5)
H11_2 H 0.8914 0.1853 0.8428
H12_2 H 0.9250 0.1665 0.7590
C6_2 C 0.9662(3) 0.1213(4) 0.8558(5)
C11_2 C 0.9712(4) 0.1219(5) 0.9392(6)
H16_2 H 0.9364 0.1394 0.9701
C13_2 C 0.6395(3) 0.1173(3) 0.8263(4)
H17_2 H 0.6402 0.1642 0.8396
H18_2 H 0.6713 0.0956 0.8622
C14_2 C 0.5724(3) 0.0910(4) 0.8459(4)
C15_2 C 0.5638(3) 0.0269(4) 0.8723(4)
C16_2 C 0.5033(4) 0.0037(4) 0.8956(5)
C17_2 C 0.4496(4) 0.0433(4) 0.8914(5)
C18_2 C 0.4574(4) 0.1072(4) 0.8656(6)
H21_2 H 0.4206 0.1351 0.8634
C19_2 C 0.5183(4) 0.1309(4) 0.8429(5)
H22_2 H 0.5227 0.1747 0.8252
C20_2 C 0.3826(4) 0.0180(4) 0.9118(5)
C21_2 C 0.8252(4) 0.0784(4) 0.8685(5)
H23_2 H 0.8596 0.0620 0.9050
H24_2 H 0.7958 0.0417 0.8556
C22_2 C 0.7874(3) 0.1308(3) 0.9107(4)
C23_2 C 0.8070(4) 0.0692(3) 0.5755(4)
H25_2 H 0.7977 0.0322 0.5390
H26_2 H 0.8548 0.0732 0.5809
C24_2 C 0.7796(3) 0.1313(4) 0.5393(5)
C25_2 C 0.6216(3) 0.1477(3) 0.6842(4)
H27_2 H 0.5753 0.1391 0.6962
H28_2 H 0.6303 0.1329 0.6283
C26_2 C 0.6340(3) 0.2210(3) 0.6894(4)
Cd4_2 Cd 0.73034(2) 0.33939(2) 0.72644(3)
O12_2 O 0.3282(3) 0.4890(3) 0.9313(4)
O18_2 O 0.7375(2) 0.3240(2) 0.5870(3)
O19_2 O 0.7232(3) 0.3627(2) 0.4649(3)
O20_2 O 0.8149(2) 0.2616(2) 0.7264(3)
O21_2 O 0.9052(2) 0.2410(2) 0.6589(3)
N4_2 N 0.6449(3) 0.3974(3) 0.7935(3)
N5_2 N 0.7217(3) 0.4435(3) 0.6553(4)
N6_2 N 0.8377(3) 0.3906(2) 0.7404(3)
C27_2 C 0.6232(4) 0.4520(4) 0.7419(5)
H31_2 H 0.5980 0.4832 0.7752
H32_2 H 0.5940 0.4351 0.6992
C28_2 C 0.6800(4) 0.4876(3) 0.7026(4)
H33_2 H 0.6630 0.5221 0.6666
H34_2 H 0.7065 0.5087 0.7451
C29_2 C 0.7884(4) 0.4697(3) 0.6442(5)
H35_2 H 0.7855 0.5168 0.6325
H36_2 H 0.8084 0.4483 0.5966
C30_2 C 0.8328(4) 0.4597(3) 0.7173(5)
H37_2 H 0.8767 0.4766 0.7045
H38_2 H 0.8156 0.4850 0.7635
C31_2 C 0.5908(3) 0.3514(4) 0.8110(5)
H39_2 H 0.6086 0.3147 0.8428
H40_2 H 0.5750 0.3335 0.7590
C32_2 C 0.5338(3) 0.3787(4) 0.8558(5)
C33_2 C 0.4822(4) 0.4057(5) 0.8124(5)
H41_2 H 0.4836 0.4060 0.7550
C34_2 C 0.4288(5) 0.4323(5) 0.8519(6)
H42_2 H 0.3952 0.4528 0.8218
C35_2 C 0.4247(4) 0.4289(4) 0.9345(5)
C36_2 C 0.4741(5) 0.4024(5) 0.9793(6)
C37_2 C 0.5288(4) 0.3781(5) 0.9392(6)
H44_2 H 0.5636 0.3606 0.9701
C38_2 C 0.3628(4) 0.4527(4) 0.9745(6)
C39_2 C 0.8605(3) 0.3827(3) 0.8263(4)
H45_2 H 0.8598 0.3358 0.8396
H46_2 H 0.8287 0.4044 0.8622
C40_2 C 0.9276(3) 0.4090(4) 0.8459(4)
C41_2 C 0.9362(3) 0.4731(4) 0.8723(4)
H47_2 H 0.8997 0.5013 0.8744
C42_2 C 0.9967(4) 0.4963(4) 0.8956(5)
C45_2 C 0.9817(4) 0.3691(4) 0.8429(5)
H50_2 H 0.9773 0.3253 0.8252
C47_2 C 0.6748(4) 0.4216(4) 0.8685(5)
H51_2 H 0.6404 0.4380 0.9050
H52_2 H 0.7042 0.4583 0.8556
C48_2 C 0.7126(3) 0.3692(3) 0.9107(4)
C49_2 C 0.6930(4) 0.4308(3) 0.5755(4)
H53_2 H 0.7023 0.4678 0.5390
H54_2 H 0.6452 0.4268 0.5809
C50_2 C 0.7204(3) 0.3687(4) 0.5393(5)
C51_2 C 0.8784(3) 0.3523(3) 0.6842(4)
H55_2 H 0.9247 0.3609 0.6962
H56_2 H 0.8697 0.3671 0.6283
C52_2 C 0.8660(3) 0.2790(3) 0.6894(4)
O34_2 O 0.2410(2) 0.5948(2) 0.8411(3)
H5_2 H 0.8370 0.9779 0.6666
H6_2 H 0.7935 0.9913 0.7451
H7_2 H 0.7145 0.9832 0.6325
H19_2 H 0.6003 0.9987 0.8744
H20_2 H 0.4990 0.9603 0.9146
O1_3 O 0.4890(3) 0.1718(3) 0.5687(4)
O2_2 O 0.4355(3) 0.1497(3) 0.4548(4)
O11_2 O 0.4738(3) 0.2715(3) 0.4260(3)
H1_2 H 0.4432 0.2377 0.4219
H2_2 H 0.4463 0.3081 0.4221
C7_3 C 0.4057(5) 0.0178(4) 0.6876(5)
H13_3 H 0.4060 0.0164 0.7450
C8_3 C 0.4323(5) 0.0712(5) 0.6481(6)
H14_3 H 0.4528 0.1048 0.6782
C9_3 C 0.4289(4) 0.0753(4) 0.5655(5)
C10_3 C 0.4024(5) 0.0259(5) 0.5207(6)
H15_2 H 0.4006 0.0287 0.4635
C12_3 C 0.4527(4) 0.1372(4) 0.5255(6)
O15_2 O 0.0522(3) 0.1658(3) 0.6009(5)
C43_3 C 0.0433(4) 0.0504(4) 0.6086(5)
C44_3 C 0.1072(4) 0.0426(4) 0.6344(6)
H49_3 H 0.1351 0.0794 0.6366
C46_3 C 0.0180(4) 0.1174(4) 0.5882(5)
O23_2 O 0.5388(3) 0.3781(2) 0.5605(3)
O25_2 O 0.4478(3) 0.3342(3) 0.6009(5)
Cd2_2 Cd 0.2500 0.7500 0.02129(4)
O8_3 O 0.3627(2) 0.7768(3) 0.0351(3)
O19_3 O 0.1373(2) 0.7232(3) 0.0351(3)
O27_2 O 0.2282(2) 0.8198(2) 0.1285(3)
O28_2 O 0.2718(2) 0.6802(2) 0.1285(3)
Cd1_3 Cd 0.33939(2) 0.76966(2) 0.77356(3)
O5_2 O 0.3198(2) 0.7718(2) 0.6285(3)
O7_3 O 0.3240(2) 0.7625(2) 0.9130(3)
O9_3 O 0.2616(2) 0.6851(2) 0.7736(3)
N1_3 N 0.3974(3) 0.8551(3) 0.7065(3)
N2_3 N 0.4435(3) 0.7783(3) 0.8447(4)
N3_3 N 0.3906(2) 0.6623(3) 0.7596(3)
C1_3 C 0.4520(4) 0.8768(4) 0.7581(5)
H3_3 H 0.4832 0.9020 0.7248
H4_3 H 0.4351 0.9060 0.8008
C2_3 C 0.4876(3) 0.8200(4) 0.7974(4)
H5_3 H 0.5221 0.8370 0.8334
H6_3 H 0.5087 0.7935 0.7549
C3_3 C 0.4697(3) 0.7116(4) 0.8558(5)
H7_3 H 0.5168 0.7145 0.8675
H8_3 H 0.4483 0.6916 0.9034
C4_3 C 0.4597(3) 0.6672(4) 0.7827(5)
H9_3 H 0.4766 0.6233 0.7955
H10_3 H 0.4850 0.6844 0.7365
C5_3 C 0.3514(4) 0.9092(3) 0.6890(5)
H11_3 H 0.3147 0.8914 0.6572
H12_3 H 0.3335 0.9250 0.7410
C6_3 C 0.3787(4) 0.9662(3) 0.6442(5)
C11_3 C 0.3781(5) 0.9712(4) 0.5608(6)
H16_3 H 0.3606 0.9364 0.5299
C13_3 C 0.3827(3) 0.6395(3) 0.6737(4)
H17_3 H 0.3358 0.6402 0.6604
H18_3 H 0.4044 0.6713 0.6378
C14_3 C 0.4090(4) 0.5724(3) 0.6541(4)
C15_3 C 0.4731(4) 0.5638(3) 0.6277(4)
H19_3 H 0.5013 0.6003 0.6256
C16_3 C 0.4963(4) 0.5033(4) 0.6044(5)
H20_3 H 0.5397 0.4990 0.5854
C17_3 C 0.4567(4) 0.4496(4) 0.6086(5)
C18_3 C 0.3928(4) 0.4574(4) 0.6344(6)
H21_3 H 0.3649 0.4206 0.6366
C19_3 C 0.3691(4) 0.5183(4) 0.6571(5)
H22_3 H 0.3253 0.5227 0.6748
C20_3 C 0.4820(4) 0.3826(4) 0.5882(5)
C21_3 C 0.4216(4) 0.8252(4) 0.6315(5)
H23_3 H 0.4380 0.8596 0.5950
H24_3 H 0.4583 0.7958 0.6444
C22_3 C 0.3692(3) 0.7874(3) 0.5893(4)
C23_3 C 0.4308(3) 0.8070(4) 0.9245(4)
H25_3 H 0.4678 0.7977 0.9610
H26_3 H 0.4268 0.8548 0.9191
C24_3 C 0.3687(4) 0.7796(3) 0.9607(5)
C25_3 C 0.3523(3) 0.6216(3) 0.8158(4)
H27_3 H 0.3609 0.5753 0.8038
H28_3 H 0.3671 0.6303 0.8717
C26_3 C 0.2790(3) 0.6340(3) 0.8106(4)
Cd4_3 Cd 0.16061(2) 0.73034(2) 0.77356(3)
O12_3 O 0.0110(3) 0.3282(3) 0.5687(4)
O13_3 O 0.0645(3) 0.3503(3) 0.4548(4)
O16_2 O 0.1802(2) 0.7282(2) 0.6285(3)
O18_3 O 0.1760(2) 0.7375(2) 0.9130(3)
O20_3 O 0.2384(2) 0.8149(2) 0.7736(3)
O22_3 O 0.0262(3) 0.2285(3) 0.4260(3)
H29_3 H 0.0568 0.2623 0.4219
H30_3 H 0.0537 0.1919 0.4221
N4_3 N 0.1026(3) 0.6449(3) 0.7065(3)
N5_3 N 0.0565(3) 0.7217(3) 0.8447(4)
N6_3 N 0.1094(2) 0.8377(3) 0.7596(3)
C27_3 C 0.0480(4) 0.6232(4) 0.7581(5)
H31_3 H 0.0168 0.5980 0.7248
H32_3 H 0.0649 0.5940 0.8008
C28_3 C 0.0124(3) 0.6800(4) 0.7974(4)
C29_3 C 0.0303(3) 0.7884(4) 0.8558(5)
H36_3 H 0.0517 0.8084 0.9034
C30_3 C 0.0403(3) 0.8328(4) 0.7827(5)
H37_3 H 0.0234 0.8767 0.7955
H38_3 H 0.0150 0.8156 0.7365
C31_3 C 0.1486(4) 0.5908(3) 0.6890(5)
H39_3 H 0.1853 0.6086 0.6572
H40_3 H 0.1665 0.5750 0.7410
C32_3 C 0.1213(4) 0.5338(3) 0.6442(5)
C33_3 C 0.0943(5) 0.4822(4) 0.6876(5)
H41_3 H 0.0940 0.4836 0.7450
C34_3 C 0.0677(5) 0.4288(5) 0.6481(6)
H42_3 H 0.0472 0.3952 0.6782
C35_3 C 0.0711(4) 0.4247(4) 0.5655(5)
C36_3 C 0.0976(5) 0.4741(5) 0.5207(6)
H43_3 H 0.0994 0.4713 0.4635
C37_3 C 0.1219(5) 0.5288(4) 0.5608(6)
H44_3 H 0.1394 0.5636 0.5299
C38_3 C 0.0473(4) 0.3628(4) 0.5255(6)
C39_3 C 0.1173(3) 0.8605(3) 0.6737(4)
H45_3 H 0.1642 0.8598 0.6604
H46_3 H 0.0956 0.8287 0.6378
C40_3 C 0.0910(4) 0.9276(3) 0.6541(4)
C41_3 C 0.0269(4) 0.9362(3) 0.6277(4)
C42_3 C 0.0037(4) 0.9967(4) 0.6044(5)
C45_3 C 0.1309(4) 0.9817(4) 0.6571(5)
H50_3 H 0.1747 0.9773 0.6748
C47_3 C 0.0784(4) 0.6748(4) 0.6315(5)
H51_3 H 0.0620 0.6404 0.5950
H52_3 H 0.0417 0.7042 0.6444
C48_3 C 0.1308(3) 0.7126(3) 0.5893(4)
C49_3 C 0.0692(3) 0.6930(4) 0.9245(4)
H53_3 H 0.0322 0.7023 0.9610
H54_3 H 0.0732 0.6452 0.9191
C50_3 C 0.1313(4) 0.7204(3) 0.9607(5)
C51_3 C 0.1477(3) 0.8784(3) 0.8158(4)
H55_3 H 0.1391 0.9247 0.8038
H56_3 H 0.1329 0.8697 0.8717
C52_3 C 0.2210(3) 0.8660(3) 0.8106(4)
Cd6_2 Cd 0.2500 0.7500 0.52129(4)
O14_2 O 0.9612(3) 0.1219(2) 0.5605(3)
H48_3 H 0.9603 0.0010 0.5854
H33_3 H 0.9779 0.6630 0.8334
H34_3 H 0.9913 0.7065 0.7549
H35_3 H 0.9832 0.7855 0.8675
H47_3 H 0.9987 0.8997 0.6256
O3_2 O 0.6219(2) 0.0388(3) 0.0605(3)
H5_4 H 0.1630 0.0221 0.3334
H6_4 H 0.2065 0.0087 0.2549
H7_4 H 0.2855 0.0168 0.3675
H19_4 H 0.3997 0.0013 0.1256
H20_4 H 0.5010 0.0397 0.0854
Cd1_4 Cd 0.23034(2) 0.83939(2) 0.27356(3)
O4_2 O 0.6658(3) 0.9478(3) 0.1009(5)
O7_4 O 0.2375(2) 0.8240(2) 0.4130(3)
O8_4 O 0.2232(3) 0.8627(2) 0.5351(3)
O9_4 O 0.3149(2) 0.7616(2) 0.2736(3)
N1_4 N 0.1449(3) 0.8974(3) 0.2065(3)
N2_4 N 0.2217(3) 0.9435(3) 0.3447(4)
N3_4 N 0.3377(3) 0.8906(2) 0.2596(3)
C1_4 C 0.1232(4) 0.9520(4) 0.2581(5)
H3_4 H 0.0980 0.9832 0.2248
H4_4 H 0.0940 0.9351 0.3008
C2_4 C 0.1800(4) 0.9876(3) 0.2974(4)
C3_4 C 0.2884(4) 0.9697(3) 0.3558(5)
H8_4 H 0.3084 0.9483 0.4034
C4_4 C 0.3328(4) 0.9597(3) 0.2827(5)
H9_4 H 0.3767 0.9766 0.2955
H10_4 H 0.3156 0.9850 0.2365
C5_4 C 0.0908(3) 0.8514(4) 0.1890(5)
H11_4 H 0.1086 0.8147 0.1572
H12_4 H 0.0750 0.8335 0.2410
C6_4 C 0.0338(3) 0.8787(4) 0.1442(5)
C11_4 C 0.0288(4) 0.8781(5) 0.0608(6)
H16_4 H 0.0636 0.8606 0.0299
C13_4 C 0.3605(3) 0.8827(3) 0.1737(4)
H17_4 H 0.3598 0.8358 0.1604
H18_4 H 0.3287 0.9044 0.1378
C14_4 C 0.4276(3) 0.9090(4) 0.1541(4)
C15_4 C 0.4362(3) 0.9731(4) 0.1277(4)
C16_4 C 0.4967(4) 0.9963(4) 0.1044(5)
C17_4 C 0.5504(4) 0.9567(4) 0.1086(5)
C18_4 C 0.5426(4) 0.8928(4) 0.1344(6)
H21_4 H 0.5794 0.8649 0.1366
C19_4 C 0.4817(4) 0.8691(4) 0.1571(5)
H22_4 H 0.4773 0.8253 0.1748
C20_4 C 0.6174(4) 0.9820(4) 0.0882(5)
C21_4 C 0.1748(4) 0.9216(4) 0.1315(5)
H23_4 H 0.1404 0.9380 0.0950
H24_4 H 0.2042 0.9583 0.1444
C22_4 C 0.2126(3) 0.8692(3) 0.0893(4)
C23_4 C 0.1930(4) 0.9308(3) 0.4245(4)
H25_4 H 0.2023 0.9678 0.4610
H26_4 H 0.1452 0.9268 0.4191
C24_4 C 0.2204(3) 0.8687(4) 0.4607(5)
C25_4 C 0.3784(3) 0.8523(3) 0.3158(4)
H27_4 H 0.4247 0.8609 0.3038
H28_4 H 0.3697 0.8671 0.3717
C26_4 C 0.3660(3) 0.7790(3) 0.3106(4)
Cd4_4 Cd 0.26966(2) 0.66061(2) 0.27356(3)
O12_4 O 0.6718(3) 0.5110(3) 0.0687(4)
O18_4 O 0.2625(2) 0.6760(2) 0.4130(3)
O19_4 O 0.2768(3) 0.6373(2) 0.5351(3)
O20_4 O 0.1851(2) 0.7384(2) 0.2736(3)
N4_4 N 0.3551(3) 0.6026(3) 0.2065(3)
N5_4 N 0.2783(3) 0.5565(3) 0.3447(4)
N6_4 N 0.1623(3) 0.6094(2) 0.2596(3)
C27_4 C 0.3768(4) 0.5480(4) 0.2581(5)
H31_4 H 0.4020 0.5168 0.2248
H32_4 H 0.4060 0.5649 0.3008
C28_4 C 0.3200(4) 0.5124(3) 0.2974(4)
H33_4 H 0.3370 0.4779 0.3334
H34_4 H 0.2935 0.4913 0.2549
C29_4 C 0.2116(4) 0.5303(3) 0.3558(5)
H35_4 H 0.2145 0.4832 0.3675
H36_4 H 0.1916 0.5517 0.4034
C30_4 C 0.1672(4) 0.5403(3) 0.2827(5)
H37_4 H 0.1233 0.5234 0.2955
H38_4 H 0.1844 0.5150 0.2365
C31_4 C 0.4092(3) 0.6486(4) 0.1890(5)
H39_4 H 0.3914 0.6853 0.1572
H40_4 H 0.4250 0.6665 0.2410
C32_4 C 0.4662(3) 0.6213(4) 0.1442(5)
C33_4 C 0.5178(4) 0.5943(5) 0.1876(5)
H41_4 H 0.5164 0.5940 0.2450
C34_4 C 0.5712(5) 0.5677(5) 0.1481(6)
H42_4 H 0.6048 0.5472 0.1782
C35_4 C 0.5753(4) 0.5711(4) 0.0655(5)
C36_4 C 0.5259(5) 0.5976(5) 0.0207(6)
C37_4 C 0.4712(4) 0.6219(5) 0.0608(6)
H44_4 H 0.4364 0.6394 0.0299
C38_4 C 0.6372(4) 0.5473(4) 0.0255(6)
C39_4 C 0.1395(3) 0.6173(3) 0.1737(4)
H45_4 H 0.1402 0.6642 0.1604
H46_4 H 0.1713 0.5956 0.1378
C40_4 C 0.0724(3) 0.5910(4) 0.1541(4)
C41_4 C 0.0638(3) 0.5269(4) 0.1277(4)
H47_4 H 0.1003 0.4987 0.1256
C42_4 C 0.0033(4) 0.5037(4) 0.1044(5)
C45_4 C 0.0183(4) 0.6309(4) 0.1571(5)
H50_4 H 0.0227 0.6747 0.1748
C47_4 C 0.3252(4) 0.5784(4) 0.1315(5)
H51_4 H 0.3596 0.5620 0.0950
H52_4 H 0.2958 0.5417 0.1444
C48_4 C 0.2874(3) 0.6308(3) 0.0893(4)
C49_4 C 0.3070(4) 0.5692(3) 0.4245(4)
H53_4 H 0.2977 0.5322 0.4610
H54_4 H 0.3548 0.5732 0.4191
C50_4 C 0.2796(3) 0.6313(4) 0.4607(5)
C51_4 C 0.1216(3) 0.6477(3) 0.3158(4)
H55_4 H 0.0753 0.6391 0.3038
H56_4 H 0.1303 0.6329 0.3717
C52_4 C 0.1340(3) 0.7210(3) 0.3106(4)
O24_2 O 0.8781(2) 0.4612(3) 0.0605(3)
O26_2 O 0.8342(3) 0.5522(3) 0.1009(5)
O13_4 O 0.6497(3) 0.5645(3) 0.9548(4)
O22_4 O 0.7715(3) 0.5262(3) 0.9260(3)
H29_4 H 0.7377 0.5568 0.9219
H30_4 H 0.8081 0.5537 0.9221
H43_4 H 0.5287 0.5994 0.9635
O1_4 O 0.8282(3) 0.9890(3) 0.0687(4)
C7_4 C 0.9822(4) 0.9057(5) 0.1876(5)
H13_4 H 0.9836 0.9060 0.2450
C8_4 C 0.9288(5) 0.9323(5) 0.1481(6)
H14_4 H 0.8952 0.9528 0.1782
C9_4 C 0.9247(4) 0.9289(4) 0.0655(5)
C10_4 C 0.9741(5) 0.9024(5) 0.0207(6)
C12_4 C 0.8628(4) 0.9527(4) 0.0255(6)
H48_4 H 0.9990 0.4603 0.0854
C43_4 C 0.9496(4) 0.5433(4) 0.1086(5)
C44_4 C 0.9574(4) 0.6072(4) 0.1344(6)
H49_4 H 0.9206 0.6351 0.1366
C46_4 C 0.8826(4) 0.5180(4) 0.0882(5)
O2_3 O 0.1497(3) 0.0645(3) 0.0452(4)
O11_3 O 0.2715(3) 0.0262(3) 0.0740(3)
H1_3 H 0.2377 0.0568 0.0781
H2_3 H 0.3081 0.0537 0.0779
H15_3 H 0.0287 0.0994 0.0365
O2_4 O 0.8503(3) 0.9355(3) 0.9548(4)
O11_4 O 0.7285(3) 0.9738(3) 0.9260(3)
H1_4 H 0.7623 0.9432 0.9219
H2_4 H 0.6919 0.9463 0.9221
H15_4 H 0.9713 0.9006 0.9635
loop_
_geom_bond_atom_site_label_1
_geom_bond_atom_site_label_2
_geom_bond_site_symmetry_1
_geom_bond_site_symmetry_2
O24 Cd5 1_555 1_555
O32 Cd5 1_555 1_555
O34 Cd5 1_555 1_555
Cd1 O5 1_555 1_555
O3 C20 1_555 1_555
O4 C20 1_555 1_555
O5 C22 1_555 1_555
O6 C22 1_555 1_555
O7 Cd1 1_555 1_555
O9 Cd1 1_555 1_555
O10 C26 1_555 1_555
N1 Cd1 1_555 1_555
N2 Cd1 1_555 1_555
N3 Cd1 1_555 1_555
C1 N1 1_555 1_555
H3 C1 1_555 1_555
H4 C1 1_555 1_555
C2 N2 1_555 1_555
H5 C2 1_555 1_555
H6 C2 1_555 1_555
C3 N2 1_555 1_555
H7 C3 1_555 1_555
H8 C3 1_555 1_555
C4 N3 1_555 1_555
H9 C4 1_555 1_555
H10 C4 1_555 1_555
C5 N1 1_555 1_555
H11 C5 1_555 1_555
H12 C5 1_555 1_555
C6 C5 1_555 1_555
C11 C6 1_555 1_555
H16 C11 1_555 1_555
C13 N3 1_555 1_555
H17 C13 1_555 1_555
H18 C13 1_555 1_555
C14 C13 1_555 1_555
C15 C14 1_555 1_555
H19 C15 1_555 1_555
C16 C15 1_555 1_555
H20 C16 1_555 1_555
C17 C16 1_555 1_555
C18 C17 1_555 1_555
H21 C18 1_555 1_555
C19 C14 1_555 1_555
H22 C19 1_555 1_555
C20 C17 1_555 1_555
C21 N1 1_555 1_555
H23 C21 1_555 1_555
H24 C21 1_555 1_555
C22 C21 1_555 1_555
C23 N2 1_555 1_555
H25 C23 1_555 1_555
H26 C23 1_555 1_555
C24 O7 1_555 1_555
C25 N3 1_555 1_555
H27 C25 1_555 1_555
H28 C25 1_555 1_555
C26 O9 1_555 1_555
Cd4 O9 1_555 1_555
O12 C38 1_555 1_555
O13 C38 1_555 1_555
O16 Cd4 1_555 1_555
O17 C48 1_555 1_555
O20 Cd1 1_555 1_555
O21 C52 1_555 1_555
H29 O22 1_555 1_555
H30 O22 1_555 1_555
N4 Cd4 1_555 1_555
N5 Cd4 1_555 1_555
N6 Cd4 1_555 1_555
C27 N4 1_555 1_555
H31 C27 1_555 1_555
H32 C27 1_555 1_555
C28 N5 1_555 1_555
C29 N5 1_555 1_555
H36 C29 1_555 1_555
C30 N6 1_555 1_555
H37 C30 1_555 1_555
H38 C30 1_555 1_555
C31 N4 1_555 1_555
H39 C31 1_555 1_555
H40 C31 1_555 1_555
C32 C31 1_555 1_555
C33 C32 1_555 1_555
H41 C33 1_555 1_555
C34 C33 1_555 1_555
H42 C34 1_555 1_555
C35 C34 1_555 1_555
C36 C35 1_555 1_555
H43 C36 1_555 1_555
C37 C32 1_555 1_555
H44 C37 1_555 1_555
C38 C35 1_555 1_555
C39 N6 1_555 1_555
H45 C39 1_555 1_555
H46 C39 1_555 1_555
C40 C39 1_555 1_555
C41 C40 1_555 1_555
C42 C41 1_555 1_555
C45 C40 1_555 1_555
H50 C45 1_555 1_555
C47 N4 1_555 1_555
H51 C47 1_555 1_555
H52 C47 1_555 1_555
C48 O16 1_555 1_555
C49 N5 1_555 1_555
H53 C49 1_555 1_555
H54 C49 1_555 1_555
C50 O18 1_555 1_555
C51 N6 1_555 1_555
H55 C51 1_555 1_555
H56 C51 1_555 1_555
C52 O20 1_555 1_555
Cd6 O5 1_555 1_555
Cd7 O3 1_555 1_555
Cd9 O6 1_555 1_555
Cd10 O17 1_555 1_555
Cd11 O21 1_555 1_555
Cd12 O10 1_555 1_555
O4 Cd7 1_555 1_555
O6 Cd6 1_555 1_555
C1 C2 1_555 1_555
C3 C4 1_555 1_555
C18 C19 1_555 1_555
C23 C24 1_555 1_555
C25 C26 1_555 1_555
Cd4 O18 1_555 1_555
Cd4 O20 1_555 1_555
O16 Cd6 1_555 1_555
O17 Cd6 1_555 1_555
C27 C28 1_555 1_555
C29 C30 1_555 1_555
C36 C37 1_555 1_555
C47 C48 1_555 1_555
C49 C50 1_555 1_555
C51 C52 1_555 1_555
O8 Cd2 1_555 1_555
O19 Cd2 1_555 1_555
O27 Cd2 1_555 1_555
O28 Cd2 1_555 1_555
O29 Cd2 1_555 1_555
O30 Cd2 1_555 1_555
Cd7 O1 1_555 1_555
O1 C12 1_555 1_555
O2 C12 1_555 1_555
O11 Cd7 1_555 1_555
H1 O11 1_555 1_555
H2 O11 1_555 1_555
H13 C7 1_555 1_555
C8 C7 1_555 1_555
H14 C8 1_555 1_555
C9 C8 1_555 1_555
C10 C9 1_555 1_555
H15 C10 1_555 1_555
C12 C9 1_555 1_555
O26 C46 1_555 1_555
C44 C43 1_555 1_555
H49 C44 1_555 1_555
C46 C43 1_555 1_555
O31 Cd7 1_555 1_555
O33 Cd7 1_555 1_555
O1_2 C12_2 1_555 1_555
H13_2 C7_2 1_555 1_555
C8_2 C7_2 1_555 1_555
H14_2 C8_2 1_555 1_555
C9_2 C8_2 1_555 1_555
C10_2 C9_2 1_555 1_555
C12_2 C9_2 1_555 1_555
O14 C46_2 1_555 1_555
O15 C46_2 1_555 1_555
C44_2 C43_2 1_555 1_555
H49_2 C44_2 1_555 1_555
C46_2 C43_2 1_555 1_555
Cd8 O14 1_555 1_555
O15 Cd8 1_555 1_555
O23 Cd3 1_555 1_555
O33_2 Cd3 1_555 1_555
H29_2 O22_2 1_555 1_555
H30_2 O22_2 1_555 1_555
Cd1_2 O27 1_555 1_555
Cd6 O7_2 1_555 1_555
O25 C20_2 1_555 1_555
O27 C22_2 1_555 1_555
O29 C22_2 1_555 1_555
O7_2 Cd1_2 1_555 1_555
O8_2 Cd6 1_555 1_555
O9_2 Cd1_2 1_555 1_555
O10_2 C26_2 1_555 1_555
N1_2 Cd1_2 1_555 1_555
N2_2 Cd1_2 1_555 1_555
N3_2 Cd1_2 1_555 1_555
C1_2 N1_2 1_555 1_555
H3_2 C1_2 1_555 1_555
H4_2 C1_2 1_555 1_555
C2_2 N2_2 1_555 1_555
C3_2 N2_2 1_555 1_555
H8_2 C3_2 1_555 1_555
C4_2 N3_2 1_555 1_555
H9_2 C4_2 1_555 1_555
H10_2 C4_2 1_555 1_555
C5_2 N1_2 1_555 1_555
H11_2 C5_2 1_555 1_555
H12_2 C5_2 1_555 1_555
C6_2 C5_2 1_555 1_555
C11_2 C6_2 1_555 1_555
H16_2 C11_2 1_555 1_555
C13_2 N3_2 1_555 1_555
H17_2 C13_2 1_555 1_555
H18_2 C13_2 1_555 1_555
C14_2 C13_2 1_555 1_555
C15_2 C14_2 1_555 1_555
C16_2 C15_2 1_555 1_555
C17_2 C16_2 1_555 1_555
C18_2 C17_2 1_555 1_555
H21_2 C18_2 1_555 1_555
C19_2 C14_2 1_555 1_555
H22_2 C19_2 1_555 1_555
C20_2 C17_2 1_555 1_555
C21_2 N1_2 1_555 1_555
H23_2 C21_2 1_555 1_555
H24_2 C21_2 1_555 1_555
C22_2 C21_2 1_555 1_555
C23_2 N2_2 1_555 1_555
H25_2 C23_2 1_555 1_555
H26_2 C23_2 1_555 1_555
C24_2 O7_2 1_555 1_555
C25_2 N3_2 1_555 1_555
H27_2 C25_2 1_555 1_555
H28_2 C25_2 1_555 1_555
C26_2 O9_2 1_555 1_555
Cd4_2 O9_2 1_555 1_555
Cd8 O12_2 1_555 1_555
O12_2 C38_2 1_555 1_555
O28 Cd4_2 1_555 1_555
O30 C48_2 1_555 1_555
O18_2 Cd6 1_555 1_555
O19_2 Cd6 1_555 1_555
O20_2 Cd1_2 1_555 1_555
O21_2 C52_2 1_555 1_555
N4_2 Cd4_2 1_555 1_555
N5_2 Cd4_2 1_555 1_555
N6_2 Cd4_2 1_555 1_555
C27_2 N4_2 1_555 1_555
H31_2 C27_2 1_555 1_555
H32_2 C27_2 1_555 1_555
C28_2 N5_2 1_555 1_555
H33_2 C28_2 1_555 1_555
H34_2 C28_2 1_555 1_555
C29_2 N5_2 1_555 1_555
H35_2 C29_2 1_555 1_555
H36_2 C29_2 1_555 1_555
C30_2 N6_2 1_555 1_555
H37_2 C30_2 1_555 1_555
H38_2 C30_2 1_555 1_555
C31_2 N4_2 1_555 1_555
H39_2 C31_2 1_555 1_555
H40_2 C31_2 1_555 1_555
C32_2 C31_2 1_555 1_555
C33_2 C32_2 1_555 1_555
H41_2 C33_2 1_555 1_555
C34_2 C33_2 1_555 1_555
H42_2 C34_2 1_555 1_555
C35_2 C34_2 1_555 1_555
C36_2 C35_2 1_555 1_555
C37_2 C32_2 1_555 1_555
H44_2 C37_2 1_555 1_555
C38_2 C35_2 1_555 1_555
C39_2 N6_2 1_555 1_555
H45_2 C39_2 1_555 1_555
H46_2 C39_2 1_555 1_555
C40_2 C39_2 1_555 1_555
C41_2 C40_2 1_555 1_555
H47_2 C41_2 1_555 1_555
C42_2 C41_2 1_555 1_555
C45_2 C40_2 1_555 1_555
H50_2 C45_2 1_555 1_555
C47_2 N4_2 1_555 1_555
H51_2 C47_2 1_555 1_555
H52_2 C47_2 1_555 1_555
C48_2 O28 1_555 1_555
C49_2 N5_2 1_555 1_555
H53_2 C49_2 1_555 1_555
H54_2 C49_2 1_555 1_555
C50_2 O18_2 1_555 1_555
C51_2 N6_2 1_555 1_555
H55_2 C51_2 1_555 1_555
H56_2 C51_2 1_555 1_555
C52_2 O20_2 1_555 1_555
Cd10 O21_2 1_555 1_555
Cd9 O10_2 1_555 1_555
O34_2 Cd8 1_555 1_555
O8_2 C24_2 1_555 1_555
C1_2 C2_2 1_555 1_555
C3_2 C4_2 1_555 1_555
C18_2 C19_2 1_555 1_555
C23_2 C24_2 1_555 1_555
C25_2 C26_2 1_555 1_555
Cd4_2 O18_2 1_555 1_555
Cd4_2 O20_2 1_555 1_555
O19_2 C50_2 1_555 1_555
C27_2 C28_2 1_555 1_555
C29_2 C30_2 1_555 1_555
C36_2 C37_2 1_555 1_555
C47_2 C48_2 1_555 1_555
C49_2 C50_2 1_555 1_555
C51_2 C52_2 1_555 1_555
Cd9 O1_3 1_555 1_555
O1_3 C12_3 1_555 1_555
O2_2 C12_3 1_555 1_555
O11_2 Cd9 1_555 1_555
H1_2 O11_2 1_555 1_555
H2_2 O11_2 1_555 1_555
H13_3 C7_3 1_555 1_555
C8_3 C7_3 1_555 1_555
H14_3 C8_3 1_555 1_555
C9_3 C8_3 1_555 1_555
C10_3 C9_3 1_555 1_555
H15_2 C10_3 1_555 1_555
C12_3 C9_3 1_555 1_555
O15_2 C46_3 1_555 1_555
C44_3 C43_3 1_555 1_555
H49_3 C44_3 1_555 1_555
C46_3 C43_3 1_555 1_555
O23_2 Cd9 1_555 1_555
O25_2 Cd9 1_555 1_555
O8_3 Cd2_2 1_555 1_555
O19_3 Cd2_2 1_555 1_555
O27_2 Cd2_2 1_555 1_555
O28_2 Cd2_2 1_555 1_555
O31_2 Cd2_2 1_555 1_555
O32_2 Cd2_2 1_555 1_555
Cd1_3 O5_2 1_555 1_555
O23_2 C20_3 1_555 1_555
O25_2 C20_3 1_555 1_555
O5_2 C22_3 1_555 1_555
O31 C22_3 1_555 1_555
O7_3 Cd1_3 1_555 1_555
O9_3 Cd1_3 1_555 1_555
O34_2 C26_3 1_555 1_555
N1_3 Cd1_3 1_555 1_555
N2_3 Cd1_3 1_555 1_555
N3_3 Cd1_3 1_555 1_555
C1_3 N1_3 1_555 1_555
H3_3 C1_3 1_555 1_555
H4_3 C1_3 1_555 1_555
C2_3 N2_3 1_555 1_555
H5_3 C2_3 1_555 1_555
H6_3 C2_3 1_555 1_555
C3_3 N2_3 1_555 1_555
H7_3 C3_3 1_555 1_555
H8_3 C3_3 1_555 1_555
C4_3 N3_3 1_555 1_555
H9_3 C4_3 1_555 1_555
H10_3 C4_3 1_555 1_555
C5_3 N1_3 1_555 1_555
H11_3 C5_3 1_555 1_555
H12_3 C5_3 1_555 1_555
C6_3 C5_3 1_555 1_555
C11_3 C6_3 1_555 1_555
H16_3 C11_3 1_555 1_555
C13_3 N3_3 1_555 1_555
H17_3 C13_3 1_555 1_555
H18_3 C13_3 1_555 1_555
C14_3 C13_3 1_555 1_555
C15_3 C14_3 1_555 1_555
H19_3 C15_3 1_555 1_555
C16_3 C15_3 1_555 1_555
H20_3 C16_3 1_555 1_555
C17_3 C16_3 1_555 1_555
C18_3 C17_3 1_555 1_555
H21_3 C18_3 1_555 1_555
C19_3 C14_3 1_555 1_555
H22_3 C19_3 1_555 1_555
C20_3 C17_3 1_555 1_555
C21_3 N1_3 1_555 1_555
H23_3 C21_3 1_555 1_555
H24_3 C21_3 1_555 1_555
C22_3 C21_3 1_555 1_555
C23_3 N2_3 1_555 1_555
H25_3 C23_3 1_555 1_555
H26_3 C23_3 1_555 1_555
C24_3 O7_3 1_555 1_555
C25_3 N3_3 1_555 1_555
H27_3 C25_3 1_555 1_555
H28_3 C25_3 1_555 1_555
C26_3 O9_3 1_555 1_555
Cd4_3 O9_3 1_555 1_555
O12_3 C38_3 1_555 1_555
O13_3 C38_3 1_555 1_555
O16_2 Cd4_3 1_555 1_555
O32 C48_3 1_555 1_555
O20_3 Cd1_3 1_555 1_555
O33_2 C52_3 1_555 1_555
H29_3 O22_3 1_555 1_555
H30_3 O22_3 1_555 1_555
N4_3 Cd4_3 1_555 1_555
N5_3 Cd4_3 1_555 1_555
N6_3 Cd4_3 1_555 1_555
C27_3 N4_3 1_555 1_555
H31_3 C27_3 1_555 1_555
H32_3 C27_3 1_555 1_555
C28_3 N5_3 1_555 1_555
C29_3 N5_3 1_555 1_555
H36_3 C29_3 1_555 1_555
C30_3 N6_3 1_555 1_555
H37_3 C30_3 1_555 1_555
H38_3 C30_3 1_555 1_555
C31_3 N4_3 1_555 1_555
H39_3 C31_3 1_555 1_555
H40_3 C31_3 1_555 1_555
C32_3 C31_3 1_555 1_555
C33_3 C32_3 1_555 1_555
H41_3 C33_3 1_555 1_555
C34_3 C33_3 1_555 1_555
H42_3 C34_3 1_555 1_555
C35_3 C34_3 1_555 1_555
C36_3 C35_3 1_555 1_555
H43_3 C36_3 1_555 1_555
C37_3 C32_3 1_555 1_555
H44_3 C37_3 1_555 1_555
C38_3 C35_3 1_555 1_555
C39_3 N6_3 1_555 1_555
H45_3 C39_3 1_555 1_555
H46_3 C39_3 1_555 1_555
C40_3 C39_3 1_555 1_555
C41_3 C40_3 1_555 1_555
C42_3 C41_3 1_555 1_555
C45_3 C40_3 1_555 1_555
H50_3 C45_3 1_555 1_555
C47_3 N4_3 1_555 1_555
H51_3 C47_3 1_555 1_555
H52_3 C47_3 1_555 1_555
C48_3 O16_2 1_555 1_555
C49_3 N5_3 1_555 1_555
H53_3 C49_3 1_555 1_555
H54_3 C49_3 1_555 1_555
C50_3 O18_3 1_555 1_555
C51_3 N6_3 1_555 1_555
H55_3 C51_3 1_555 1_555
H56_3 C51_3 1_555 1_555
C52_3 O20_3 1_555 1_555
Cd6_2 O5_2 1_555 1_555
O31 Cd6_2 1_555 1_555
C1_3 C2_3 1_555 1_555
C3_3 C4_3 1_555 1_555
C18_3 C19_3 1_555 1_555
C23_3 C24_3 1_555 1_555
C25_3 C26_3 1_555 1_555
Cd4_3 O18_3 1_555 1_555
Cd4_3 O20_3 1_555 1_555
O16_2 Cd6_2 1_555 1_555
O32 Cd6_2 1_555 1_555
C27_3 C28_3 1_555 1_555
C29_3 C30_3 1_555 1_555
C36_3 C37_3 1_555 1_555
C47_3 C48_3 1_555 1_555
C49_3 C50_3 1_555 1_555
C51_3 C52_3 1_555 1_555
Cd10 O14_2 1_555 1_555
Cd11 O3_2 1_555 1_555
Cd1_4 O27_2 1_555 1_555
Cd6_2 O7_4 1_555 1_555
O4_2 C20_4 1_555 1_555
O27_2 C22_4 1_555 1_555
O31_2 C22_4 1_555 1_555
O7_4 Cd1_4 1_555 1_555
O8_4 Cd6_2 1_555 1_555
O9_4 Cd1_4 1_555 1_555
O33 C26_4 1_555 1_555
N1_4 Cd1_4 1_555 1_555
N2_4 Cd1_4 1_555 1_555
N3_4 Cd1_4 1_555 1_555
C1_4 N1_4 1_555 1_555
H3_4 C1_4 1_555 1_555
H4_4 C1_4 1_555 1_555
C2_4 N2_4 1_555 1_555
C3_4 N2_4 1_555 1_555
H8_4 C3_4 1_555 1_555
C4_4 N3_4 1_555 1_555
H9_4 C4_4 1_555 1_555
H10_4 C4_4 1_555 1_555
C5_4 N1_4 1_555 1_555
H11_4 C5_4 1_555 1_555
H12_4 C5_4 1_555 1_555
C6_4 C5_4 1_555 1_555
C11_4 C6_4 1_555 1_555
H16_4 C11_4 1_555 1_555
C13_4 N3_4 1_555 1_555
H17_4 C13_4 1_555 1_555
H18_4 C13_4 1_555 1_555
C14_4 C13_4 1_555 1_555
C15_4 C14_4 1_555 1_555
C16_4 C15_4 1_555 1_555
C17_4 C16_4 1_555 1_555
C18_4 C17_4 1_555 1_555
H21_4 C18_4 1_555 1_555
C19_4 C14_4 1_555 1_555
H22_4 C19_4 1_555 1_555
C20_4 C17_4 1_555 1_555
C21_4 N1_4 1_555 1_555
H23_4 C21_4 1_555 1_555
H24_4 C21_4 1_555 1_555
C22_4 C21_4 1_555 1_555
C23_4 N2_4 1_555 1_555
H25_4 C23_4 1_555 1_555
H26_4 C23_4 1_555 1_555
C24_4 O7_4 1_555 1_555
C25_4 N3_4 1_555 1_555
H27_4 C25_4 1_555 1_555
H28_4 C25_4 1_555 1_555
C26_4 O9_4 1_555 1_555
Cd4_4 O9_4 1_555 1_555
Cd12 O12_4 1_555 1_555
O12_4 C38_4 1_555 1_555
O28_2 Cd4_4 1_555 1_555
O32_2 C48_4 1_555 1_555
O18_4 Cd6_2 1_555 1_555
O19_4 Cd6_2 1_555 1_555
O20_4 Cd1_4 1_555 1_555
O34 C52_4 1_555 1_555
N4_4 Cd4_4 1_555 1_555
N5_4 Cd4_4 1_555 1_555
N6_4 Cd4_4 1_555 1_555
C27_4 N4_4 1_555 1_555
H31_4 C27_4 1_555 1_555
H32_4 C27_4 1_555 1_555
C28_4 N5_4 1_555 1_555
H33_4 C28_4 1_555 1_555
H34_4 C28_4 1_555 1_555
C29_4 N5_4 1_555 1_555
H35_4 C29_4 1_555 1_555
H36_4 C29_4 1_555 1_555
C30_4 N6_4 1_555 1_555
H37_4 C30_4 1_555 1_555
H38_4 C30_4 1_555 1_555
C31_4 N4_4 1_555 1_555
H39_4 C31_4 1_555 1_555
H40_4 C31_4 1_555 1_555
C32_4 C31_4 1_555 1_555
C33_4 C32_4 1_555 1_555
H41_4 C33_4 1_555 1_555
C34_4 C33_4 1_555 1_555
H42_4 C34_4 1_555 1_555
C35_4 C34_4 1_555 1_555
C36_4 C35_4 1_555 1_555
C37_4 C32_4 1_555 1_555
H44_4 C37_4 1_555 1_555
C38_4 C35_4 1_555 1_555
C39_4 N6_4 1_555 1_555
H45_4 C39_4 1_555 1_555
H46_4 C39_4 1_555 1_555
C40_4 C39_4 1_555 1_555
C41_4 C40_4 1_555 1_555
H47_4 C41_4 1_555 1_555
C42_4 C41_4 1_555 1_555
C45_4 C40_4 1_555 1_555
H50_4 C45_4 1_555 1_555
C47_4 N4_4 1_555 1_555
H51_4 C47_4 1_555 1_555
H52_4 C47_4 1_555 1_555
C48_4 O28_2 1_555 1_555
C49_4 N5_4 1_555 1_555
H53_4 C49_4 1_555 1_555
H54_4 C49_4 1_555 1_555
C50_4 O18_4 1_555 1_555
C51_4 N6_4 1_555 1_555
H55_4 C51_4 1_555 1_555
H56_4 C51_4 1_555 1_555
C52_4 O20_4 1_555 1_555
O24_2 Cd12 1_555 1_555
O26_2 Cd12 1_555 1_555
O8_4 C24_4 1_555 1_555
C1_4 C2_4 1_555 1_555
C3_4 C4_4 1_555 1_555
C18_4 C19_4 1_555 1_555
C23_4 C24_4 1_555 1_555
C25_4 C26_4 1_555 1_555
Cd4_4 O18_4 1_555 1_555
Cd4_4 O20_4 1_555 1_555
O19_4 C50_4 1_555 1_555
C27_4 C28_4 1_555 1_555
C29_4 C30_4 1_555 1_555
C36_4 C37_4 1_555 1_555
C47_4 C48_4 1_555 1_555
C49_4 C50_4 1_555 1_555
C51_4 C52_4 1_555 1_555
H29_4 O22_4 1_555 1_555
H30_4 O22_4 1_555 1_555
O1_4 C12_4 1_555 1_555
H13_4 C7_4 1_555 1_555
C8_4 C7_4 1_555 1_555
H14_4 C8_4 1_555 1_555
C9_4 C8_4 1_555 1_555
C10_4 C9_4 1_555 1_555
C12_4 C9_4 1_555 1_555
O24_2 C46_4 1_555 1_555
O26_2 C46_4 1_555 1_555
C44_4 C43_4 1_555 1_555
H49_4 C44_4 1_555 1_555
C46_4 C43_4 1_555 1_555
H1_3 O11_3 1_555 1_555
H2_3 O11_3 1_555 1_555
H1_4 O11_4 1_555 1_555
H2_4 O11_4 1_555 1_555

#END
