
###############################################################################
#
# This file contains modified crystal structure data generated from the
# MOF subset of the Cambridge Structural Database (CSD) v543 
# hosted by the Cambridge Crystallographic Data Centre (CCDC).
#
# This work is licensed under the Creative Commons
# Attribution-NonCommercial-ShareAlike 4.0 International License.
# To view a copy of this license, visit
# http://creativecommons.org/licenses/by-nc-sa/4.0/
# or send a letter to
# Creative Commons, PO Box 1866, Mountain View, CA 94042, USA.
#
# CIF created using the CSD Python API on 29 September 2022
# The structure has been converted into the P1 space group
# The structure has a 3D framework
# The original CSD entry AFOYEB is in the tetragonal crystal system
# The original CSD entry AFOYEB is in a Sohncke space group
# The framework has been calculated to contain at least 10.0% void space
# The void calculation uses a probe of radius 1.32A, grid spacing 0.4
# H atom positions have been added when not included in the experimental data
#
###############################################################################

data_AFOYEB
_chemical_formula_moiety         '(C48 H48 Co10 O63)n'
_symmetry_cell_setting           triclinic
_symmetry_space_group_name_H-M   'P 1'
_symmetry_Int_Tables_number      1
_space_group_name_Hall           'P 1'
loop_
_symmetry_equiv_pos_site_id
_symmetry_equiv_pos_as_xyz
1 x,y,z
_cell_length_a                   18.968(1)
_cell_length_b                   18.968(1)
_cell_length_c                   5.773(1)
_cell_angle_alpha                90
_cell_angle_beta                 90
_cell_angle_gamma                90
_cell_volume                     2077.04
loop_
_atom_site_label
_atom_site_type_symbol
_atom_site_fract_x
_atom_site_fract_y
_atom_site_fract_z
Co2 Co 0.27992(15) 0.27992(15) 0.0000
O6 O 0.2711(9) 0.3864(9) 0.073(3)
O9 O 0.3146(9) 0.7574(9) 0.066(3)
O10 O 0.4072(8) 0.7756(9) 0.269(3)
C7 C 0.3750(13) 0.7616(14) 0.092(5)
H6 H 0.5055 0.6931 0.0224
O16 O 0.5778(9) 0.7858(9) 0.018(3)
Co3 Co 0.77032(16) 0.77032(16) 0.0000
Co7 Co 0.22008(15) 0.77992(15) 0.2500
O18 O 0.1854(9) 0.2574(9) 0.184(3)
O21 O 0.3204(9) 0.2455(9) 0.311(3)
Co1 Co 0.27032(16) 0.72968(16) 0.7500
Co2_2 Co 0.27992(15) 0.27992(15) 1.0000
O1 O 0.2426(9) 0.6854(9) 0.434(3)
O2 O 0.2244(9) 0.5928(8) 0.231(3)
C1 C 0.2384(14) 0.6250(13) 0.408(5)
C2 C 0.2499(14) 0.5757(14) 0.632(5)
H1 H 0.2062 0.5478 0.6643
O3 O 0.2639(9) 0.6261(8) 0.825(3)
C3 C 0.3152(13) 0.5256(14) 0.615(5)
H2 H 0.3069 0.4945 0.4776
O4 O 0.3736(9) 0.5622(9) 0.570(3)
C4 C 0.3161(13) 0.4786(13) 0.823(4)
H3 H 0.3243 0.5088 0.9621
O5 O 0.3798(9) 0.4314(9) 0.793(3)
C5 C 0.2520(14) 0.4292(13) 0.876(4)
H4 H 0.2100 0.4586 0.9158
C6 C 0.2372(14) 0.3887(13) 0.669(5)
O7 O 0.2455(9) 0.3204(9) 0.689(3)
O8 O 0.2142(9) 0.4222(9) 0.482(3)
C8 C 0.4243(14) 0.7501(14) 0.868(5)
H5 H 0.4522 0.7938 0.8357
O11 O 0.3739(8) 0.7361(9) 0.675(3)
C9 C 0.4744(14) 0.6848(13) 0.885(5)
O12 O 0.4378(9) 0.6264(9) 0.930(3)
C10 C 0.5214(13) 0.6839(13) 0.677(4)
H7 H 0.4912 0.6757 0.5379
O13 O 0.5686(9) 0.6202(9) 0.707(3)
C11 C 0.5708(13) 0.7480(14) 0.624(4)
H8 H 0.5414 0.7900 0.5842
O14 O 0.6136(9) 0.7289(9) 0.427(3)
C12 C 0.6113(13) 0.7628(14) 0.831(5)
O15 O 0.6796(9) 0.7545(9) 0.811(3)
Co3_2 Co 0.77032(16) 0.77032(16) 1.0000
Co4 Co 0.22968(16) 0.22968(16) 0.5000
Co5 Co 0.72008(15) 0.72008(15) 0.5000
O17 O 0.2574(9) 0.1854(9) 0.816(3)
O19 O 0.3864(9) 0.2711(9) 0.927(3)
O20 O 0.2545(9) 0.8204(9) 0.561(3)
O22 O 0.1796(9) 0.7455(9) 0.939(3)
H9 H 0.423061 0.460771 0.784642
H10 H 0.381875 0.596853 0.696031
H11 H 0.539229 0.576939 0.715358
H12 H 0.403147 0.618125 0.803969
Co1_2 Co 0.72968(16) 0.27032(16) 0.2500
C2_2 C 0.7501(14) 0.4243(14) 0.132(5)
H1_2 H 0.7938 0.4522 0.1643
O3_2 O 0.7361(9) 0.3739(8) 0.325(3)
C3_2 C 0.6848(13) 0.4744(14) 0.115(5)
O4_2 O 0.6264(9) 0.4378(9) 0.070(3)
C4_2 C 0.6839(13) 0.5214(13) 0.323(4)
H3_2 H 0.6757 0.4912 0.4621
O5_2 O 0.6202(9) 0.5686(9) 0.293(3)
C5_2 C 0.7480(14) 0.5708(13) 0.376(4)
H4_2 H 0.7900 0.5414 0.4158
O6_2 O 0.7289(9) 0.6136(9) 0.573(3)
C6_2 C 0.7628(14) 0.6113(13) 0.169(5)
O7_2 O 0.7545(9) 0.6796(9) 0.189(3)
O9_2 O 0.6854(9) 0.2426(9) 0.566(3)
O10_2 O 0.5928(8) 0.2244(9) 0.769(3)
C7_2 C 0.6250(13) 0.2384(14) 0.592(5)
C8_2 C 0.5757(14) 0.2499(14) 0.368(5)
H5_2 H 0.5478 0.2062 0.3357
O11_2 O 0.6261(8) 0.2639(9) 0.175(3)
C9_2 C 0.5256(14) 0.3152(13) 0.385(5)
H6_2 H 0.4945 0.3069 0.5224
O12_2 O 0.5622(9) 0.3736(9) 0.430(3)
C10_2 C 0.4786(13) 0.3161(13) 0.177(4)
H7_2 H 0.5088 0.3243 0.0379
O13_2 O 0.4314(9) 0.3798(9) 0.207(3)
C11_2 C 0.4292(13) 0.2520(14) 0.124(4)
H8_2 H 0.4586 0.2100 0.0842
C12_2 C 0.3887(13) 0.2372(14) 0.331(5)
O16_2 O 0.4222(9) 0.2142(9) 0.518(3)
Co7_2 Co 0.77992(15) 0.22008(15) 0.7500
O17_2 O 0.7426(9) 0.8146(9) 0.316(3)
O18_2 O 0.8146(9) 0.7426(9) 0.684(3)
O20_2 O 0.7455(9) 0.1796(9) 0.061(3)
O22_2 O 0.8204(9) 0.2545(9) 0.439(3)
H9_2 H 0.576939 0.539229 0.284642
H10_2 H 0.618125 0.403147 0.196031
H11_2 H 0.460771 0.423061 0.215358
H12_2 H 0.596853 0.381875 0.303969
O1_2 O 0.7574(9) 0.3146(9) 0.934(3)
O2_2 O 0.7756(9) 0.4072(8) 0.731(3)
C1_2 C 0.7616(14) 0.3750(13) 0.908(5)
H2_2 H 0.6931 0.5055 0.9776
O8_2 O 0.7858(9) 0.5778(9) 0.982(3)
C10_3 C 0.0214(13) 0.8161(13) 0.073(4)
O13_3 O 0.0686(9) 0.8798(9) 0.043(3)
C11_3 C 0.0708(13) 0.7520(14) 0.126(4)
H8_3 H 0.0414 0.7100 0.1658
O14_2 O 0.1136(9) 0.7711(9) 0.323(3)
H11_3 H 0.0392288 0.923061 0.034642
H6_3 H 0.0055 0.8069 0.7276
C12_3 C 0.1113(13) 0.7372(14) 0.919(5)
O16_3 O 0.0778(9) 0.7142(9) 0.732(3)
H2_3 H 0.8069 0.0055 0.2724
C6_3 C 0.7372(14) 0.1113(13) 0.081(5)
O8_3 O 0.7142(9) 0.0778(9) 0.268(3)
C4_3 C 0.8161(13) 0.0214(13) 0.927(4)
O5_3 O 0.8798(9) 0.0686(9) 0.957(3)
C5_3 C 0.7520(14) 0.0708(13) 0.874(4)
H4_3 H 0.7100 0.0414 0.8342
O6_3 O 0.7711(9) 0.1136(9) 0.677(3)
O19_2 O 0.8864(9) 0.2289(9) 0.823(3)
H9_3 H 0.923061 0.0392288 0.965358
O2_3 O 0.7244(9) 0.9072(8) 0.519(3)
C1_3 C 0.7384(14) 0.8750(13) 0.342(5)
C2_3 C 0.7499(14) 0.9243(14) 0.118(5)
H1_3 H 0.7062 0.9522 0.0857
C3_3 C 0.8152(13) 0.9744(14) 0.135(5)
O4_3 O 0.8736(9) 0.9378(9) 0.180(3)
O11_3 O 0.8739(8) 0.7639(9) 0.075(3)
H7_3 H 0.9912 0.8243 0.2121
H10_3 H 0.881875 0.903147 0.0539688
O3_3 O 0.7639(9) 0.8739(8) 0.925(3)
H3_3 H 0.8243 0.9912 0.7879
O10_3 O 0.9072(8) 0.7244(9) 0.481(3)
C7_3 C 0.8750(13) 0.7384(14) 0.658(5)
C8_3 C 0.9243(14) 0.7499(14) 0.882(5)
H5_3 H 0.9522 0.7062 0.9143
C9_3 C 0.9744(14) 0.8152(13) 0.865(5)
O12_3 O 0.9378(9) 0.8736(9) 0.820(3)
H12_3 H 0.903147 0.881875 0.946031
O2_4 O 0.2756(9) 0.0928(8) 0.019(3)
C1_4 C 0.2616(14) 0.1250(13) 0.842(5)
C2_4 C 0.2501(14) 0.0757(14) 0.618(5)
H1_4 H 0.2938 0.0478 0.5857
O3_4 O 0.2361(9) 0.1261(8) 0.425(3)
C3_4 C 0.1848(13) 0.0256(14) 0.635(5)
O4_4 O 0.1264(9) 0.0622(9) 0.680(3)
H3_4 H 0.1757 0.0088 0.2879
C7_4 C 0.1250(13) 0.2616(14) 0.158(5)
C8_4 C 0.0757(14) 0.2501(14) 0.382(5)
H5_4 H 0.0478 0.2938 0.4143
O11_4 O 0.1261(8) 0.2361(9) 0.575(3)
C9_4 C 0.0256(14) 0.1848(13) 0.365(5)
O12_4 O 0.0622(9) 0.1264(9) 0.320(3)
H7_4 H 0.0088 0.1757 0.7121
H10_4 H 0.118125 0.096853 0.553969
H12_4 H 0.096853 0.118125 0.446031
O10_4 O 0.0928(8) 0.2756(9) 0.981(3)
H2_4 H 0.1931 0.9945 0.7724
C4_4 C 0.1839(13) 0.9786(13) 0.427(4)
O5_4 O 0.1202(9) 0.9314(9) 0.457(3)
C5_4 C 0.2480(14) 0.9292(13) 0.374(4)
H4_4 H 0.2900 0.9586 0.3342
O6_4 O 0.2289(9) 0.8864(9) 0.177(3)
C6_4 C 0.2628(14) 0.8887(13) 0.581(5)
O8_4 O 0.2858(9) 0.9222(9) 0.768(3)
H9_4 H 0.0769389 0.960771 0.465358
H6_4 H 0.9945 0.1931 0.2276
C10_4 C 0.9786(13) 0.1839(13) 0.573(4)
O13_4 O 0.9314(9) 0.1202(9) 0.543(3)
C11_4 C 0.9292(13) 0.2480(14) 0.626(4)
H8_4 H 0.9586 0.2900 0.6658
C12_4 C 0.8887(13) 0.2628(14) 0.419(5)
O16_4 O 0.9222(9) 0.2858(9) 0.232(3)
H11_4 H 0.960771 0.0769389 0.534642
loop_
_geom_bond_atom_site_label_1
_geom_bond_atom_site_label_2
_geom_bond_site_symmetry_1
_geom_bond_site_symmetry_2
Co2 O6 1_555 1_555
O10 C7 1_555 1_555
C7 O9 1_555 1_555
Co7 O9 1_555 1_555
O18 Co2 1_555 1_555
O21 Co2 1_555 1_555
Co1 O1 1_555 1_555
O1 C1 1_555 1_555
O2 C1 1_555 1_555
C1 C2 1_555 1_555
C2 H1 1_555 1_555
O3 Co1 1_555 1_555
C3 C2 1_555 1_555
H2 C3 1_555 1_555
O4 C3 1_555 1_555
C4 C3 1_555 1_555
H3 C4 1_555 1_555
O5 C4 1_555 1_555
C5 C4 1_555 1_555
H4 C5 1_555 1_555
C6 C5 1_555 1_555
O7 Co2_2 1_555 1_555
O8 C6 1_555 1_555
H5 C8 1_555 1_555
O11 Co1 1_555 1_555
C9 C8 1_555 1_555
O12 C9 1_555 1_555
C10 C9 1_555 1_555
H7 C10 1_555 1_555
O13 C10 1_555 1_555
C11 C10 1_555 1_555
H8 C11 1_555 1_555
O14 C11 1_555 1_555
C12 C11 1_555 1_555
O15 C12 1_555 1_555
Co3_2 O15 1_555 1_555
Co4 O7 1_555 1_555
Co5 O14 1_555 1_555
Co7 O1 1_555 1_555
O17 Co2_2 1_555 1_555
O19 Co2_2 1_555 1_555
O20 Co1 1_555 1_555
O22 Co1 1_555 1_555
C2 O3 1_555 1_555
C6 O7 1_555 1_555
C8 O11 1_555 1_555
O15 Co5 1_555 1_555
Co4 O17 1_555 1_555
Co7 O20 1_555 1_555
O5 H9 1_555 1_555
O4 H10 1_555 1_555
O13 H11 1_555 1_555
O12 H12 1_555 1_555
Co5 O6_2 1_555 1_555
C2_2 H1_2 1_555 1_555
O3_2 Co1_2 1_555 1_555
C3_2 C2_2 1_555 1_555
O4_2 C3_2 1_555 1_555
C4_2 C3_2 1_555 1_555
H3_2 C4_2 1_555 1_555
O5_2 C4_2 1_555 1_555
C5_2 C4_2 1_555 1_555
H4_2 C5_2 1_555 1_555
O6_2 C5_2 1_555 1_555
C6_2 C5_2 1_555 1_555
O7_2 Co5 1_555 1_555
O9_2 Co1_2 1_555 1_555
O10_2 C7_2 1_555 1_555
C7_2 O9_2 1_555 1_555
C8_2 C7_2 1_555 1_555
H5_2 C8_2 1_555 1_555
O11_2 Co1_2 1_555 1_555
C9_2 C8_2 1_555 1_555
H6_2 C9_2 1_555 1_555
O12_2 C9_2 1_555 1_555
C10_2 C9_2 1_555 1_555
H7_2 C10_2 1_555 1_555
O13_2 C10_2 1_555 1_555
C11_2 C10_2 1_555 1_555
H8_2 C11_2 1_555 1_555
C12_2 C11_2 1_555 1_555
O21 C12_2 1_555 1_555
O16_2 C12_2 1_555 1_555
Co4 O21 1_555 1_555
Co3 O7_2 1_555 1_555
Co7_2 O9_2 1_555 1_555
O17_2 Co5 1_555 1_555
O18_2 Co5 1_555 1_555
O20_2 Co1_2 1_555 1_555
O22_2 Co1_2 1_555 1_555
C2_2 O3_2 1_555 1_555
C6_2 O7_2 1_555 1_555
C8_2 O11_2 1_555 1_555
Co3 O17_2 1_555 1_555
Co7_2 O22_2 1_555 1_555
O5_2 H9_2 1_555 1_555
O4_2 H10_2 1_555 1_555
O13_2 H11_2 1_555 1_555
O12_2 H12_2 1_555 1_555
O1_2 C1_2 1_555 1_555
O2_2 C1_2 1_555 1_555
Co7_2 O1_2 1_555 1_555
O13_3 C10_3 1_555 1_555
C11_3 C10_3 1_555 1_555
H8_3 C11_3 1_555 1_555
O14_2 C11_3 1_555 1_555
Co7 O14_2 1_555 1_555
O13_3 H11_3 1_555 1_555
O22 C12_3 1_555 1_555
O16_3 C12_3 1_555 1_555
O8_3 C6_3 1_555 1_555
C6_3 O20_2 1_555 1_555
Co7_2 O6_3 1_555 1_555
O5_3 C4_3 1_555 1_555
C5_3 C4_3 1_555 1_555
H4_3 C5_3 1_555 1_555
O6_3 C5_3 1_555 1_555
O19_2 Co7_2 1_555 1_555
O5_3 H9_3 1_555 1_555
O17_2 C1_3 1_555 1_555
O2_3 C1_3 1_555 1_555
C1_3 C2_3 1_555 1_555
C2_3 H1_3 1_555 1_555
C3_3 C2_3 1_555 1_555
O4_3 C3_3 1_555 1_555
O11_3 Co3 1_555 1_555
O4_3 H10_3 1_555 1_555
O3_3 Co3_2 1_555 1_555
O18_2 Co3_2 1_555 1_555
O10_3 C7_3 1_555 1_555
C7_3 O18_2 1_555 1_555
C8_3 C7_3 1_555 1_555
H5_3 C8_3 1_555 1_555
C9_3 C8_3 1_555 1_555
O12_3 C9_3 1_555 1_555
O12_3 H12_3 1_555 1_555
O17 C1_4 1_555 1_555
C1_4 C2_4 1_555 1_555
C2_4 H1_4 1_555 1_555
O3_4 Co4 1_555 1_555
C3_4 C2_4 1_555 1_555
O4_4 C3_4 1_555 1_555
O18 Co4 1_555 1_555
C7_4 O18 1_555 1_555
C8_4 C7_4 1_555 1_555
H5_4 C8_4 1_555 1_555
O11_4 Co4 1_555 1_555
C9_4 C8_4 1_555 1_555
O12_4 C9_4 1_555 1_555
C2_4 O3_4 1_555 1_555
C8_4 O11_4 1_555 1_555
O4_4 H10_4 1_555 1_555
O12_4 H12_4 1_555 1_555
Co7 O6_4 1_555 1_555
O5_4 C4_4 1_555 1_555
C5_4 C4_4 1_555 1_555
H4_4 C5_4 1_555 1_555
O6_4 C5_4 1_555 1_555
C6_4 C5_4 1_555 1_555
O8_4 C6_4 1_555 1_555
C6_4 O20 1_555 1_555
O5_4 H9_4 1_555 1_555
O13_4 C10_4 1_555 1_555
C11_4 C10_4 1_555 1_555
H8_4 C11_4 1_555 1_555
O19_2 C11_4 1_555 1_555
C12_4 C11_4 1_555 1_555
O22_2 C12_4 1_555 1_555
O16_4 C12_4 1_555 1_555
O13_4 H11_4 1_555 1_555

#END
