
###############################################################################
#
# This file contains modified crystal structure data generated from the
# MOF subset of the Cambridge Structural Database (CSD) v543 
# hosted by the Cambridge Crystallographic Data Centre (CCDC).
#
# This work is licensed under the Creative Commons
# Attribution-NonCommercial-ShareAlike 4.0 International License.
# To view a copy of this license, visit
# http://creativecommons.org/licenses/by-nc-sa/4.0/
# or send a letter to
# Creative Commons, PO Box 1866, Mountain View, CA 94042, USA.
#
# CIF created using the CSD Python API on 29 September 2022
# The structure has been converted into the P1 space group
# The structure has a 3D framework
# The original CSD entry AFUKET is in the orthorhombic crystal system
# The framework has been calculated to contain at least 10.0% void space
# The void calculation uses a probe of radius 1.32A, grid spacing 0.4
#
###############################################################################

data_AFUKET
_chemical_formula_moiety         '(C1024 H864 Mn48 N64 O324)n'
_symmetry_cell_setting           triclinic
_symmetry_space_group_name_H-M   'P 1'
_symmetry_Int_Tables_number      1
_space_group_name_Hall           'P 1'
loop_
_symmetry_equiv_pos_site_id
_symmetry_equiv_pos_as_xyz
1 x,y,z
_cell_length_a                   47.138(12)
_cell_length_b                   75.02(2)
_cell_length_c                   10.521(3)
_cell_angle_alpha                90
_cell_angle_beta                 90
_cell_angle_gamma                90
_cell_volume                     37205.3
loop_
_atom_site_label
_atom_site_type_symbol
_atom_site_fract_x
_atom_site_fract_y
_atom_site_fract_z
Mn2 Mn 0.133990(17) 0.191262(11) 0.26682(8)
Mn3 Mn 0.165192(17) 0.181714(11) 0.54772(8)
N1 N 0.21093(10) 0.18549(7) 0.5664(5)
N2 N 0.25244(11) 0.19494(7) 0.6391(6)
N3 N 0.35546(12) 0.26410(7) 0.9201(6)
N4 N 0.33289(11) 0.24050(7) 0.8556(5)
O4 O 0.16718(9) 0.17417(6) 0.7477(4)
H3 H 0.1663 0.1847 0.7994
H4 H 0.1847 0.1681 0.7635
O7 O 0.18512(9) 0.09966(6) 0.0316(5)
O10 O 0.11577(9) 0.17423(6) 0.1286(4)
O16 O 0.17040(10) 0.15461(6) 0.4822(5)
O17 O 0.16475(9) 0.17164(6) 0.3214(5)
C2 C 0.09249(13) 0.08393(7) 0.0305(7)
H5 H 0.0756 0.0852 0.0821
H6 H 0.1091 0.0851 0.0844
C4 C 0.09285(13) 0.05134(7) 0.0630(6)
H9 H 0.1105 0.0516 0.1101
H10 H 0.0773 0.0530 0.1220
C7 C 0.18816(13) 0.08288(8) 0.0781(6)
H13 H 0.1714 0.0797 0.1269
H14 H 0.2044 0.0825 0.1348
C9 C 0.19626(14) 0.05145(9) 0.0306(8)
H17 H 0.2117 0.0518 0.0914
H18 H 0.1792 0.0480 0.0755
C12 C 0.09780(15) 0.12104(9) 0.0763(7)
H21 H 0.0937 0.1138 0.1456
C13 C 0.10367(14) 0.13906(9) 0.0954(6)
H22 H 0.1043 0.1437 0.1773
C17 C 0.11623(12) 0.16932(8) 0.0186(7)
C25 C 0.08908(13) 0.01935(8) 0.0623(8)
C29 C 0.09272(14) 0.00132(9) 0.2461(7)
H31 H 0.0957 0.0001 0.3331
C30 C 0.09337(15) 0.01814(8) 0.1919(7)
H32 H 0.0966 0.0282 0.2410
C32 C 0.18170(13) 0.11289(8) 0.1198(7)
C33 C 0.18004(15) 0.11071(9) 0.2448(7)
H33 H 0.1808 0.0992 0.2774
C34 C 0.17733(15) 0.12445(10) 0.3267(7)
H34 H 0.1778 0.1225 0.4139
C35 C 0.17380(11) 0.14147(8) 0.2798(7)
C36 C 0.17549(15) 0.14370(9) 0.1514(6)
H35 H 0.1738 0.1551 0.1169
C37 C 0.17965(16) 0.12945(10) 0.0729(7)
C38 C 0.16939(12) 0.15631(8) 0.3675(8)
H37 H 0.2885 0.0739 0.0774
C51 C 0.17401(17) 0.01639(9) 0.0333(8)
H44 H 0.1695 0.0237 0.1020
C53 C 0.22535(16) 0.19922(10) 0.6112(9)
H45 H 0.2177 0.2105 0.6223
C54 C 0.23168(17) 0.17200(10) 0.5632(8)
H46 H 0.2279 0.1604 0.5381
C55 C 0.25655(17) 0.17739(10) 0.5987(9)
H47 H 0.2734 0.1710 0.5975
C56 C 0.27306(14) 0.20652(9) 0.6955(7)
C57 C 0.30009(17) 0.20143(10) 0.6957(9)
H48 H 0.3054 0.1906 0.6594
C58 C 0.3208(2) 0.21284(13) 0.7530(8)
H49 H 0.3398 0.2095 0.7541
C59 C 0.31274(16) 0.22853(10) 0.8057(7)
C60 C 0.2857(2) 0.23330(15) 0.8059(10)
H50 H 0.2798 0.2440 0.8416
C61 C 0.2656(2) 0.22106(15) 0.7481(9)
H51 H 0.2464 0.2240 0.7495
C62 C 0.33239(16) 0.25769(10) 0.8712(7)
H52 H 0.3169 0.2647 0.8493
C63 C 0.3600(2) 0.23557(14) 0.8871(9)
H53 H 0.3675 0.2241 0.8852
C64 C 0.37363(18) 0.25072(10) 0.9217(12)
H54 H 0.3927 0.2516 0.9430
Mn6 Mn 0.368272(18) 0.293378(12) 0.94767(9)
O22 O 0.16226(8) 0.20121(6) 0.1122(4)
O24 O 0.15953(8) 0.20451(5) 0.4166(4)
O25 O 0.12164(9) 0.18043(6) 0.5881(4)
O26 O 0.10365(9) 0.17994(6) 0.3942(5)
O27 O 0.10827(9) 0.21444(6) 0.2519(5)
O28 O 0.09720(8) 0.21497(6) 0.0468(5)
Mn1 Mn 0.131728(18) 0.206622(12) 0.94767(9)
O1 O 0.14227(8) 0.06584(6) 0.9560(4)
O2 O 0.11951(10) 0.20902(6) 0.7535(4)
H1 H 0.1358 0.2122 0.7036
H2 H 0.1053 0.2181 0.7457
O3 O 0.09292(11) 0.09676(6) 0.9297(5)
O5 O 0.04170(8) 0.06496(7) 0.9616(4)
O6 O 0.08986(10) 0.03493(5) 0.9951(5)
O8 O 0.24238(8) 0.07455(7) 0.9707(4)
O9 O 0.20227(10) 0.03890(6) 0.9365(5)
O11 O 0.12189(8) 0.17889(5) 0.9226(4)
O18 O 0.37164(9) 0.06957(6) 0.8381(4)
O19 O 0.35365(9) 0.07006(6) 0.6442(5)
C1 C 0.09259(12) 0.06585(8) 0.9598(6)
C3 C 0.06609(12) 0.06421(8) 0.8769(7)
H7 H 0.0653 0.0739 0.8159
H8 H 0.0663 0.0530 0.8308
C5 C 0.11784(12) 0.06418(9) 0.8830(7)
H11 H 0.1178 0.0527 0.8412
H12 H 0.1177 0.0733 0.8177
C6 C 0.19231(12) 0.06946(8) 0.9728(6)
C8 C 0.21834(12) 0.07411(10) 0.8910(7)
H15 H 0.2209 0.0652 0.8250
H16 H 0.2157 0.0856 0.8508
C10 C 0.16749(12) 0.06987(10) 0.8813(8)
H19 H 0.1658 0.0815 0.8423
H20 H 0.1700 0.0611 0.8147
C11 C 0.09798(13) 0.11413(9) 0.9595(7)
C14 C 0.10836(12) 0.14972(8) 0.9945(6)
C15 C 0.10912(15) 0.14302(9) 0.8737(7)
H23 H 0.1131 0.1503 0.8043
C16 C 0.10384(16) 0.12511(9) 0.8585(7)
H24 H 0.1043 0.1203 0.7771
C18 C 0.01593(13) 0.06180(9) 0.9103(7)
C23 C 0.01052(13) 0.06089(9) 0.7883(8)
H28 H 0.0252 0.0626 0.7303
C26 C 0.08437(15) 0.00448(8) 0.9911(7)
H29 H 0.0813 0.0054 0.9040
H36 H 0.1811 0.1313 0.9857
C39 C 0.26817(13) 0.07450(9) 0.9085(7)
C40 C 0.29119(13) 0.07382(10) 0.9899(7)
C41 C 0.31743(13) 0.07311(9) 0.9415(7)
H38 H 0.3328 0.0727 0.9969
C42 C 0.32235(12) 0.07296(8) 0.8150(7)
C43 C 0.30003(15) 0.07446(10) 0.7351(7)
H39 H 0.3031 0.0749 0.6478
C44 C 0.27152(13) 0.07544(9) 0.7839(7)
H40 H 0.2560 0.0767 0.7297
C45 C 0.35119(12) 0.07057(8) 0.7574(7)
C46 C 0.19091(13) 0.02217(9) 0.9457(8)
C47 C 0.19809(16) 0.01166(10) 0.8422(9)
H41 H 0.2102 0.0158 0.7792
Mn7 Mn 0.383990(17) 0.058738(11) 0.51682(8)
Mn10 Mn 0.415192(17) 0.068286(11) 0.79772(8)
N5 N 0.14454(12) 0.23590(7) 0.9201(6)
O23 O 0.17839(8) 0.20046(6) 0.9205(4)
O14 O 0.08536(10) 0.96675(6) 0.3510(5)
O15 O 0.09047(8) 0.95451(5) 0.1666(4)
O20 O 0.14173(9) 0.96444(6) 0.0019(5)
C27 C 0.08417(14) 0.98777(8) 0.0500(7)
H30 H 0.0815 0.9775 0.0016
C28 C 0.08783(13) 0.98647(8) 0.1749(6)
C31 C 0.08852(12) 0.96864(8) 0.2363(6)
C50 C 0.16237(15) 0.99909(9) 0.0251(8)
H43 H 0.1509 0.9949 0.0905
Mn8 Mn 0.116010(17) 0.941262(11) 0.01682(8)
Mn11 Mn 0.084808(17) 0.931714(11) 0.29772(8)
O21 O 0.15280(8) 0.96497(6) 0.7968(5)
C48 C 0.18634(15) 0.99436(9) 0.8362(8)
H42 H 0.1916 0.9868 0.7703
C49 C 0.16755(14) 0.98860(9) 0.9246(7)
C52 C 0.15274(13) 0.97057(9) 0.9044(8)
Mn4 Mn 0.118272(18) 0.956622(12) 0.69767(9)
H25 H 0.9977 0.0613 0.0804
H26 H 0.9533 0.0545 0.0174
Mn9 Mn 0.883990(17) 0.058738(11) 0.01682(8)
O12 O 0.91226(8) 0.04879(6) 0.8622(4)
O13 O 0.92839(8) 0.04954(6) 0.6705(4)
C19 C 0.99399(14) 0.05995(10) 0.9941(7)
C20 C 0.96755(13) 0.05629(8) 0.9576(6)
C21 C 0.96181(13) 0.05523(8) 0.8312(6)
C22 C 0.98341(14) 0.05751(10) 0.7445(7)
H27 H 0.9798 0.0568 0.6577
C24 C 0.93212(13) 0.05098(7) 0.7840(6)
Mn5 Mn 0.881728(18) 0.043378(12) 0.69767(9)
H25_2 H 0.0023 0.9387 0.0804
H26_2 H 0.0467 0.9455 0.0174
O12_2 O 0.08774(8) 0.95121(6) 0.8622(4)
O13_2 O 0.07161(8) 0.95046(6) 0.6705(4)
C19_2 C 0.00601(14) 0.94005(10) 0.9941(7)
C20_2 C 0.03245(13) 0.94371(8) 0.9576(6)
C21_2 C 0.03819(13) 0.94477(8) 0.8312(6)
C22_2 C 0.01659(14) 0.94249(10) 0.7445(7)
H27_2 H 0.0202 0.9432 0.6577
C24_2 C 0.06788(13) 0.94902(7) 0.7840(6)
O14_2 O 0.91464(10) 0.03325(6) 0.3510(5)
O15_2 O 0.90953(8) 0.04549(5) 0.1666(4)
O20_2 O 0.85827(9) 0.03556(6) 0.0019(5)
C27_2 C 0.91583(14) 0.01223(8) 0.0500(7)
H30_2 H 0.9185 0.0225 0.0016
C28_2 C 0.91217(13) 0.01353(8) 0.1749(6)
C31_2 C 0.91148(12) 0.03136(8) 0.2363(6)
C50_2 C 0.83763(15) 0.00091(9) 0.0251(8)
H43_2 H 0.8491 0.0051 0.0905
Mn11_2 Mn 0.915192(17) 0.068286(11) 0.29772(8)
O21_2 O 0.84720(8) 0.03503(6) 0.7968(5)
C48_2 C 0.81366(15) 0.00564(9) 0.8362(8)
H42_2 H 0.8084 0.0132 0.7703
C49_2 C 0.83245(14) 0.01140(9) 0.9246(7)
C52_2 C 0.84726(13) 0.02943(9) 0.9044(8)
Mn2_2 Mn 0.866010(17) 0.808738(11) 0.26682(8)
Mn3_2 Mn 0.834808(17) 0.818286(11) 0.54772(8)
N1_2 N 0.78907(10) 0.81451(7) 0.5664(5)
N2_2 N 0.74756(11) 0.80506(7) 0.6391(6)
N3_2 N 0.64454(12) 0.73590(7) 0.9201(6)
N4_2 N 0.66711(11) 0.75950(7) 0.8556(5)
O4_2 O 0.83282(9) 0.82583(6) 0.7477(4)
H3_2 H 0.8337 0.8153 0.7994
H4_2 H 0.8153 0.8319 0.7635
O7_2 O 0.81488(9) 0.90034(6) 0.0316(5)
O10_2 O 0.88423(9) 0.82577(6) 0.1286(4)
O16_2 O 0.82960(10) 0.84539(6) 0.4822(5)
O17_2 O 0.83525(9) 0.82836(6) 0.3214(5)
C2_2 C 0.90751(13) 0.91607(7) 0.0305(7)
H5_2 H 0.9244 0.9148 0.0821
H6_2 H 0.8909 0.9149 0.0844
C4_2 C 0.90715(13) 0.94866(7) 0.0630(6)
H9_2 H 0.8895 0.9484 0.1101
H10_2 H 0.9227 0.9470 0.1220
C7_2 C 0.81184(13) 0.91712(8) 0.0781(6)
H13_2 H 0.8286 0.9203 0.1269
H14_2 H 0.7956 0.9175 0.1348
C9_2 C 0.80374(14) 0.94855(9) 0.0306(8)
H17_2 H 0.7883 0.9482 0.0914
H18_2 H 0.8208 0.9520 0.0755
C12_2 C 0.90220(15) 0.87896(9) 0.0763(7)
H21_2 H 0.9063 0.8862 0.1456
C13_2 C 0.89633(14) 0.86094(9) 0.0954(6)
H22_2 H 0.8957 0.8563 0.1773
C17_2 C 0.88377(12) 0.83068(8) 0.0186(7)
C25_2 C 0.91092(13) 0.98065(8) 0.0623(8)
C29_2 C 0.90728(14) 0.99868(9) 0.2461(7)
H31_2 H 0.9043 0.9999 0.3331
C30_2 C 0.90663(15) 0.98186(8) 0.1919(7)
H32_2 H 0.9034 0.9718 0.2410
C32_2 C 0.81830(13) 0.88711(8) 0.1198(7)
C33_2 C 0.81996(15) 0.88929(9) 0.2448(7)
H33_2 H 0.8192 0.9008 0.2774
C34_2 C 0.82267(15) 0.87555(10) 0.3267(7)
H34_2 H 0.8222 0.8775 0.4139
C35_2 C 0.82620(11) 0.85853(8) 0.2798(7)
C36_2 C 0.82451(15) 0.85630(9) 0.1514(6)
H35_2 H 0.8262 0.8449 0.1169
C37_2 C 0.82035(16) 0.87055(10) 0.0729(7)
C38_2 C 0.83061(12) 0.84369(8) 0.3675(8)
H37_2 H 0.7115 0.9261 0.0774
C51_2 C 0.82599(17) 0.98361(9) 0.0333(8)
H44_2 H 0.8305 0.9763 0.1020
C53_2 C 0.77465(16) 0.80078(10) 0.6112(9)
H45_2 H 0.7823 0.7895 0.6223
C54_2 C 0.76832(17) 0.82800(10) 0.5632(8)
H46_2 H 0.7721 0.8396 0.5381
C55_2 C 0.74345(17) 0.82261(10) 0.5987(9)
H47_2 H 0.7266 0.8290 0.5975
C56_2 C 0.72694(14) 0.79348(9) 0.6955(7)
C57_2 C 0.69991(17) 0.79857(10) 0.6957(9)
H48_2 H 0.6946 0.8094 0.6594
C58_2 C 0.6792(2) 0.78716(13) 0.7530(8)
H49_2 H 0.6602 0.7905 0.7541
C59_2 C 0.68726(16) 0.77147(10) 0.8057(7)
C60_2 C 0.7143(2) 0.76670(15) 0.8059(10)
H50_2 H 0.7202 0.7560 0.8416
C61_2 C 0.7344(2) 0.77894(15) 0.7481(9)
H51_2 H 0.7536 0.7760 0.7495
C62_2 C 0.66761(16) 0.74231(10) 0.8712(7)
H52_2 H 0.6831 0.7353 0.8493
C63_2 C 0.6400(2) 0.76443(14) 0.8871(9)
H53_2 H 0.6325 0.7759 0.8852
C64_2 C 0.62637(18) 0.74928(10) 0.9217(12)
H54_2 H 0.6073 0.7484 0.9430
Mn6_2 Mn 0.631728(18) 0.706622(12) 0.94767(9)
O22_2 O 0.83774(8) 0.79879(6) 0.1122(4)
O24_2 O 0.84047(8) 0.79549(5) 0.4166(4)
O25_2 O 0.87836(9) 0.81957(6) 0.5881(4)
O26_2 O 0.89635(9) 0.82006(6) 0.3942(5)
O27_2 O 0.89173(9) 0.78556(6) 0.2519(5)
O28_2 O 0.90280(8) 0.78503(6) 0.0468(5)
Mn1_2 Mn 0.868272(18) 0.793378(12) 0.94767(9)
O1_2 O 0.85773(8) 0.93416(6) 0.9560(4)
O2_2 O 0.88049(10) 0.79098(6) 0.7535(4)
H1_2 H 0.8642 0.7878 0.7036
H2_2 H 0.8947 0.7819 0.7457
O3_2 O 0.90708(11) 0.90324(6) 0.9297(5)
O5_2 O 0.95830(8) 0.93504(7) 0.9616(4)
O6_2 O 0.91014(10) 0.96507(5) 0.9951(5)
O8_2 O 0.75762(8) 0.92545(7) 0.9707(4)
O9_2 O 0.79773(10) 0.96110(6) 0.9365(5)
O11_2 O 0.87811(8) 0.82111(5) 0.9226(4)
O18_2 O 0.62836(9) 0.93043(6) 0.8381(4)
O19_2 O 0.64635(9) 0.92994(6) 0.6442(5)
C1_2 C 0.90741(12) 0.93415(8) 0.9598(6)
C3_2 C 0.93391(12) 0.93579(8) 0.8769(7)
H7_2 H 0.9347 0.9261 0.8159
H8_2 H 0.9337 0.9470 0.8308
C5_2 C 0.88216(12) 0.93582(9) 0.8830(7)
H11_2 H 0.8822 0.9473 0.8412
H12_2 H 0.8823 0.9267 0.8177
C6_2 C 0.80769(12) 0.93054(8) 0.9728(6)
C8_2 C 0.78166(12) 0.92589(10) 0.8910(7)
H15_2 H 0.7791 0.9348 0.8250
H16_2 H 0.7843 0.9144 0.8508
C10_2 C 0.83251(12) 0.93013(10) 0.8813(8)
H19_2 H 0.8342 0.9185 0.8423
H20_2 H 0.8300 0.9389 0.8147
C11_2 C 0.90202(13) 0.88587(9) 0.9595(7)
C14_2 C 0.89164(12) 0.85028(8) 0.9945(6)
C15_2 C 0.89088(15) 0.85698(9) 0.8737(7)
H23_2 H 0.8869 0.8497 0.8043
C16_2 C 0.89616(16) 0.87489(9) 0.8585(7)
H24_2 H 0.8957 0.8797 0.7771
C18_2 C 0.98407(13) 0.93820(9) 0.9103(7)
C23_2 C 0.98948(13) 0.93911(9) 0.7883(8)
H28_2 H 0.9748 0.9374 0.7303
C26_2 C 0.91563(15) 0.99552(8) 0.9911(7)
H29_2 H 0.9187 0.9946 0.9040
H36_2 H 0.8189 0.8687 0.9857
C39_2 C 0.73183(13) 0.92550(9) 0.9085(7)
C40_2 C 0.70881(13) 0.92618(10) 0.9899(7)
C41_2 C 0.68257(13) 0.92689(9) 0.9415(7)
H38_2 H 0.6672 0.9273 0.9969
C42_2 C 0.67765(12) 0.92704(8) 0.8150(7)
C43_2 C 0.69997(15) 0.92554(10) 0.7351(7)
H39_2 H 0.6969 0.9251 0.6478
C44_2 C 0.72848(13) 0.92456(9) 0.7839(7)
H40_2 H 0.7440 0.9233 0.7297
C45_2 C 0.64881(12) 0.92943(8) 0.7574(7)
C46_2 C 0.80909(13) 0.97783(9) 0.9457(8)
C47_2 C 0.80191(16) 0.98834(10) 0.8422(9)
H41_2 H 0.7898 0.9842 0.7792
Mn7_2 Mn 0.616010(17) 0.941262(11) 0.51682(8)
Mn10_2 Mn 0.584808(17) 0.931714(11) 0.79772(8)
N5_2 N 0.85546(12) 0.76410(7) 0.9201(6)
O23_2 O 0.82161(8) 0.79954(6) 0.9205(4)
Mn1_3 Mn 0.381728(18) 0.043378(12) 0.19767(9)
N1_3 N 0.46093(10) 0.06451(7) 0.8164(5)
N2_3 N 0.50244(11) 0.05506(7) 0.8891(6)
O1_3 O 0.39227(8) 0.18416(6) 0.2060(4)
O2_3 O 0.36951(10) 0.04098(6) 0.0035(4)
O3_3 O 0.34292(11) 0.15324(6) 0.1797(5)
O4_3 O 0.41718(9) 0.07583(6) 0.9977(4)
O5_3 O 0.29170(8) 0.18504(7) 0.2116(4)
O6_3 O 0.33986(10) 0.21507(5) 0.2451(5)
O7_3 O 0.43512(9) 0.15034(6) 0.2816(5)
O8_3 O 0.49238(8) 0.17545(7) 0.2207(4)
O9_3 O 0.45227(10) 0.21110(6) 0.1865(5)
O10_3 O 0.36577(9) 0.07577(6) 0.3786(4)
O11_3 O 0.37189(8) 0.07111(5) 0.1726(4)
O14_3 O 0.33536(10) 0.28325(6) 0.6010(5)
O15_3 O 0.34047(8) 0.29549(5) 0.4166(4)
O16_3 O 0.42040(10) 0.09539(6) 0.7322(5)
O17_3 O 0.41475(9) 0.07836(6) 0.5714(5)
O18_3 O 0.62164(9) 0.18043(6) 0.0881(4)
O20_3 O 0.39173(9) 0.28556(6) 0.2519(5)
O21_3 O 0.40280(8) 0.28503(6) 0.0468(5)
C1_3 C 0.34259(12) 0.18415(8) 0.2098(6)
C2_3 C 0.34249(13) 0.16607(7) 0.2805(7)
H5_3 H 0.3256 0.1648 0.3321
H6_3 H 0.3591 0.1649 0.3344
C3_3 C 0.31609(12) 0.18579(8) 0.1269(7)
H7_3 H 0.3153 0.1761 0.0659
H8_3 H 0.3163 0.1970 0.0808
C4_3 C 0.34285(13) 0.19866(7) 0.3130(6)
H9_3 H 0.3605 0.1984 0.3601
H10_3 H 0.3273 0.1970 0.3720
C5_3 C 0.36784(12) 0.18582(9) 0.1330(7)
H11_3 H 0.3678 0.1973 0.0912
H12_3 H 0.3677 0.1767 0.0677
C6_3 C 0.44231(12) 0.18054(8) 0.2228(6)
C7_3 C 0.43816(13) 0.16712(8) 0.3281(6)
H13_3 H 0.4214 0.1703 0.3769
H14_3 H 0.4544 0.1675 0.3848
C8_3 C 0.46834(12) 0.17589(10) 0.1410(7)
H15_3 H 0.4709 0.1848 0.0750
H16_3 H 0.4657 0.1644 0.1008
C9_3 C 0.44626(14) 0.19855(9) 0.2806(8)
H17_3 H 0.4617 0.1982 0.3414
H18_3 H 0.4292 0.2020 0.3255
C10_3 C 0.41749(12) 0.18013(10) 0.1313(8)
H19_3 H 0.4158 0.1685 0.0923
H20_3 H 0.4200 0.1889 0.0647
C11_3 C 0.34798(13) 0.13587(9) 0.2095(7)
C12_3 C 0.34780(15) 0.12896(9) 0.3263(7)
H21_3 H 0.3437 0.1362 0.3956
C13_3 C 0.35367(14) 0.11094(9) 0.3454(6)
H22_3 H 0.3543 0.1063 0.4273
C14_3 C 0.35836(12) 0.10028(8) 0.2445(6)
C15_3 C 0.35912(15) 0.10698(9) 0.1237(7)
H23_3 H 0.3631 0.0997 0.0543
C16_3 C 0.35384(16) 0.12489(9) 0.1085(7)
H24_3 H 0.3543 0.1297 0.0271
C17_3 C 0.36623(12) 0.08068(8) 0.2686(7)
C18_3 C 0.26593(13) 0.18820(9) 0.1603(7)
C19_3 C 0.24399(14) 0.19005(10) 0.2441(7)
H25_3 H 0.2477 0.1887 0.3304
C20_3 C 0.21755(13) 0.19371(8) 0.2076(6)
H26_3 H 0.2033 0.1955 0.2674
C21_3 C 0.21181(13) 0.19477(8) 0.0812(6)
C23_3 C 0.26052(13) 0.18911(9) 0.0383(8)
C24_3 C 0.18212(13) 0.19902(7) 0.0340(6)
C25_3 C 0.33908(13) 0.23065(8) 0.3123(8)
C26_3 C 0.33437(15) 0.24552(8) 0.2411(7)
H29_3 H 0.3313 0.2446 0.1540
C27_3 C 0.33417(14) 0.26223(8) 0.3000(7)
H30_3 H 0.3315 0.2725 0.2516
C28_3 C 0.33783(13) 0.26353(8) 0.4249(6)
C29_3 C 0.34272(14) 0.24868(9) 0.4961(7)
H31_3 H 0.3457 0.2499 0.5831
C30_3 C 0.34337(15) 0.23186(8) 0.4419(7)
H32_3 H 0.3466 0.2218 0.4910
C31_3 C 0.33852(12) 0.28136(8) 0.4863(6)
C32_3 C 0.43170(13) 0.13711(8) 0.3698(7)
C33_3 C 0.43004(15) 0.13929(9) 0.4948(7)
H33_3 H 0.4308 0.1508 0.5274
C34_3 C 0.42733(15) 0.12555(10) 0.5767(7)
H34_3 H 0.4278 0.1275 0.6639
C35_3 C 0.42380(11) 0.10853(8) 0.5298(7)
C36_3 C 0.42549(15) 0.10630(9) 0.4014(6)
H35_3 H 0.4238 0.0949 0.3669
C37_3 C 0.42965(16) 0.12055(10) 0.3229(7)
H36_3 H 0.4311 0.1187 0.2357
C38_3 C 0.41939(12) 0.09369(8) 0.6175(8)
C39_3 C 0.51817(13) 0.17550(9) 0.1585(7)
C40_3 C 0.54119(13) 0.17618(10) 0.2399(7)
H37_3 H 0.5385 0.1761 0.3274
C41_3 C 0.56743(13) 0.17689(9) 0.1915(7)
H38_3 H 0.5828 0.1773 0.2469
C42_3 C 0.57235(12) 0.17704(8) 0.0650(7)
C44_3 C 0.52152(13) 0.17456(9) 0.0339(7)
C45_3 C 0.60119(12) 0.17943(8) 0.0074(7)
C46_3 C 0.44091(13) 0.22783(9) 0.1957(8)
C47_3 C 0.44809(16) 0.23834(10) 0.0922(9)
H41_3 H 0.4602 0.2342 0.0292
C48_3 C 0.43634(15) 0.25564(9) 0.0862(8)
H42_3 H 0.4416 0.2632 0.0203
C49_3 C 0.41755(14) 0.26140(9) 0.1746(7)
C50_3 C 0.41237(15) 0.25091(9) 0.2751(8)
H43_3 H 0.4009 0.2551 0.3405
C51_3 C 0.42401(17) 0.23361(9) 0.2833(8)
H44_3 H 0.4195 0.2263 0.3520
C52_3 C 0.40274(13) 0.27943(9) 0.1544(8)
C53_3 C 0.47535(16) 0.05078(10) 0.8612(9)
H45_3 H 0.4677 0.0395 0.8723
C54_3 C 0.48168(17) 0.07800(10) 0.8132(8)
H46_3 H 0.4779 0.0896 0.7881
C55_3 C 0.50655(17) 0.07261(10) 0.8487(9)
H47_3 H 0.5234 0.0790 0.8475
C56_3 C 0.52306(14) 0.04348(9) 0.9455(7)
C57_3 C 0.55009(17) 0.04857(10) 0.9457(9)
H48_3 H 0.5554 0.0594 0.9094
C61_3 C 0.5156(2) 0.02894(15) 0.9981(9)
H51_3 H 0.4964 0.0260 0.9995
Mn8_2 Mn 0.366010(17) 0.308738(11) 0.26682(8)
Mn10_3 Mn 0.665192(17) 0.181714(11) 0.04772(8)
Mn11_3 Mn 0.334808(17) 0.318286(11) 0.54772(8)
N5_3 N 0.39454(12) 0.01410(7) 0.1701(6)
O22_3 O 0.41226(8) 0.04879(6) 0.3622(4)
O23_3 O 0.42839(8) 0.04954(6) 0.1705(4)
O24_3 O 0.40953(8) 0.04549(5) 0.6666(4)
O27_3 O 0.35827(9) 0.03556(6) 0.5019(5)
O28_3 O 0.34720(8) 0.03503(6) 0.2968(5)
H1_3 H 0.3858 0.0378 0.9536
H2_3 H 0.3553 0.0319 0.9957
O19_3 O 0.60365(9) 0.17994(6) 0.8942(5)
C22_3 C 0.23341(14) 0.19249(10) 0.9945(7)
H27_3 H 0.2298 0.1932 0.9077
H28_3 H 0.2752 0.1874 0.9803
C43_3 C 0.55003(15) 0.17554(10) 0.9851(7)
H39_3 H 0.5531 0.1751 0.8978
H40_3 H 0.5060 0.1733 0.9797
Mn7_3 Mn 0.633990(17) 0.191262(11) 0.76682(8)
N3_3 N 0.60546(12) 0.98590(7) 0.1701(6)
C62_3 C 0.58239(16) 0.99231(10) 0.1212(7)
H52_3 H 0.5669 0.9853 0.0993
C64_3 C 0.62363(18) 0.99928(10) 0.1717(12)
H54_3 H 0.6427 0.9984 0.1930
Mn6_3 Mn 0.618272(18) 0.956622(12) 0.19767(9)
Mn1_4 Mn 0.118272(18) 0.456622(12) 0.19767(9)
Mn2_3 Mn 0.116010(17) 0.441262(11) 0.51682(8)
Mn3_3 Mn 0.084808(17) 0.431714(11) 0.79772(8)
N1_4 N 0.03907(10) 0.43549(7) 0.8164(5)
O1_4 O 0.10773(8) 0.31584(6) 0.2060(4)
O2_4 O 0.13049(10) 0.45902(6) 0.0035(4)
O3_4 O 0.15708(11) 0.34676(6) 0.1797(5)
O4_4 O 0.08282(9) 0.42417(6) 0.9977(4)
O5_4 O 0.20830(8) 0.31496(7) 0.2116(4)
O6_4 O 0.16014(10) 0.28493(5) 0.2451(5)
O7_4 O 0.06488(9) 0.34966(6) 0.2816(5)
O8_4 O 0.00762(8) 0.32455(7) 0.2207(4)
O9_4 O 0.04773(10) 0.28890(6) 0.1865(5)
O10_4 O 0.13423(9) 0.42423(6) 0.3786(4)
O11_4 O 0.12811(8) 0.42889(5) 0.1726(4)
O12_3 O 0.33774(8) 0.29879(6) 0.1122(4)
O14_4 O 0.16464(10) 0.21675(6) 0.6010(5)
O16_4 O 0.07960(10) 0.40461(6) 0.7322(5)
O17_4 O 0.08525(9) 0.42164(6) 0.5714(5)
C1_4 C 0.15741(12) 0.31585(8) 0.2098(6)
C2_4 C 0.15751(13) 0.33393(7) 0.2805(7)
H5_4 H 0.1744 0.3352 0.3321
H6_4 H 0.1409 0.3351 0.3344
C3_4 C 0.18391(12) 0.31421(8) 0.1269(7)
H7_4 H 0.1847 0.3239 0.0659
H8_4 H 0.1837 0.3030 0.0808
C4_4 C 0.15715(13) 0.30134(7) 0.3130(6)
H9_4 H 0.1395 0.3016 0.3601
H10_4 H 0.1727 0.3030 0.3720
C5_4 C 0.13216(12) 0.31418(9) 0.1330(7)
H11_4 H 0.1322 0.3027 0.0912
H12_4 H 0.1323 0.3233 0.0677
C6_4 C 0.05769(12) 0.31946(8) 0.2228(6)
C7_4 C 0.06184(13) 0.33288(8) 0.3281(6)
H13_4 H 0.0786 0.3297 0.3769
H14_4 H 0.0456 0.3325 0.3848
C8_4 C 0.03166(12) 0.32411(10) 0.1410(7)
H15_4 H 0.0291 0.3152 0.0750
H16_4 H 0.0343 0.3356 0.1008
C9_4 C 0.05374(14) 0.30145(9) 0.2806(8)
H17_4 H 0.0383 0.3018 0.3414
H18_4 H 0.0708 0.2980 0.3255
C10_4 C 0.08251(12) 0.31987(10) 0.1313(8)
H19_4 H 0.0842 0.3315 0.0923
H20_4 H 0.0800 0.3111 0.0647
C11_4 C 0.15202(13) 0.36413(9) 0.2095(7)
C12_4 C 0.15220(15) 0.37104(9) 0.3263(7)
H21_4 H 0.1563 0.3638 0.3956
C13_4 C 0.14633(14) 0.38906(9) 0.3454(6)
H22_4 H 0.1457 0.3937 0.4273
C14_4 C 0.14164(12) 0.39972(8) 0.2445(6)
C15_4 C 0.14088(15) 0.39302(9) 0.1237(7)
H23_4 H 0.1369 0.4003 0.0543
C16_4 C 0.14616(16) 0.37511(9) 0.1085(7)
H24_4 H 0.1457 0.3703 0.0271
C17_4 C 0.13377(12) 0.41932(8) 0.2686(7)
C18_4 C 0.23407(13) 0.31180(9) 0.1603(7)
C19_4 C 0.25601(14) 0.30995(10) 0.2441(7)
H25_4 H 0.2523 0.3113 0.3304
C20_4 C 0.28245(13) 0.30629(8) 0.2076(6)
H26_4 H 0.2967 0.3045 0.2674
C21_4 C 0.28819(13) 0.30523(8) 0.0812(6)
C23_4 C 0.23948(13) 0.31089(9) 0.0383(8)
C24_4 C 0.31788(13) 0.30098(7) 0.0340(6)
C25_4 C 0.16092(13) 0.26935(8) 0.3123(8)
C26_4 C 0.16563(15) 0.25448(8) 0.2411(7)
H29_4 H 0.1687 0.2554 0.1540
C27_4 C 0.16583(14) 0.23777(8) 0.3000(7)
H30_4 H 0.1685 0.2275 0.2516
C28_4 C 0.16217(13) 0.23647(8) 0.4249(6)
C29_4 C 0.15728(14) 0.25132(9) 0.4961(7)
H31_4 H 0.1543 0.2501 0.5831
C30_4 C 0.15663(15) 0.26814(8) 0.4419(7)
H32_4 H 0.1534 0.2782 0.4910
C31_4 C 0.16148(12) 0.21864(8) 0.4863(6)
C32_4 C 0.06830(13) 0.36289(8) 0.3698(7)
C33_4 C 0.06996(15) 0.36071(9) 0.4948(7)
H33_4 H 0.0692 0.3492 0.5274
C34_4 C 0.07267(15) 0.37445(10) 0.5767(7)
H34_4 H 0.0722 0.3725 0.6639
C35_4 C 0.07620(11) 0.39147(8) 0.5298(7)
C36_4 C 0.07451(15) 0.39370(9) 0.4014(6)
H35_4 H 0.0762 0.4051 0.3669
C37_4 C 0.07035(16) 0.37945(10) 0.3229(7)
H36_4 H 0.0689 0.3813 0.2357
C38_4 C 0.08061(12) 0.40631(8) 0.6175(8)
C46_4 C 0.05909(13) 0.27217(9) 0.1957(8)
C47_4 C 0.05191(16) 0.26166(10) 0.0922(9)
H41_4 H 0.0398 0.2658 0.0292
C48_4 C 0.06366(15) 0.24436(9) 0.0862(8)
H42_4 H 0.0584 0.2368 0.0203
C49_4 C 0.08245(14) 0.23860(9) 0.1746(7)
C50_4 C 0.08763(15) 0.24909(9) 0.2751(8)
H43_4 H 0.0991 0.2449 0.3405
C51_4 C 0.07599(17) 0.26639(9) 0.2833(8)
H44_4 H 0.0805 0.2737 0.3520
C52_4 C 0.09726(13) 0.22057(9) 0.1544(8)
C53_4 C 0.02465(16) 0.44922(10) 0.8612(9)
H45_4 H 0.0323 0.4605 0.8723
C54_4 C 0.01832(17) 0.42200(10) 0.8132(8)
H46_4 H 0.0221 0.4104 0.7881
H51_4 H 0.0036 0.4740 0.9995
N5_4 N 0.10546(12) 0.48590(7) 0.1701(6)
O22_4 O 0.08774(8) 0.45121(6) 0.3622(4)
O23_4 O 0.07161(8) 0.45046(6) 0.1705(4)
O24_4 O 0.09047(8) 0.45451(5) 0.6666(4)
O25_3 O 0.12836(9) 0.43043(6) 0.8381(4)
O26_3 O 0.14635(9) 0.42994(6) 0.6442(5)
O27_4 O 0.14173(9) 0.46444(6) 0.5019(5)
O28_4 O 0.15280(8) 0.46497(6) 0.2968(5)
H1_4 H 0.1142 0.4622 0.9536
H2_4 H 0.1447 0.4681 0.9957
O13_3 O 0.32161(8) 0.29954(6) 0.9205(4)
C22_4 C 0.26659(14) 0.30751(10) 0.9945(7)
H27_4 H 0.2702 0.3068 0.9077
H28_4 H 0.2248 0.3126 0.9803
N3_4 N 0.89454(12) 0.51410(7) 0.1701(6)
N4_3 N 0.91711(11) 0.49050(7) 0.1056(5)
C58_3 C 0.9292(2) 0.46284(13) 0.0030(8)
H49_3 H 0.9102 0.4595 0.0041
C59_3 C 0.93726(16) 0.47853(10) 0.0557(7)
C60_3 C 0.9643(2) 0.48330(15) 0.0559(10)
H50_3 H 0.9702 0.4940 0.0916
C62_4 C 0.91761(16) 0.50769(10) 0.1212(7)
H52_4 H 0.9331 0.5147 0.0993
C63_3 C 0.8900(2) 0.48557(14) 0.1371(9)
H53_3 H 0.8825 0.4741 0.1352
C64_4 C 0.87637(18) 0.50072(10) 0.1717(12)
H54_4 H 0.8573 0.5016 0.1930
Mn6_4 Mn 0.881728(18) 0.543378(12) 0.19767(9)
N2_4 N 0.99756(11) 0.44494(7) 0.8891(6)
O18_4 O 0.87836(9) 0.31957(6) 0.0881(4)
C39_4 C 0.98183(13) 0.32450(9) 0.1585(7)
C40_4 C 0.95881(13) 0.32382(10) 0.2399(7)
H37_4 H 0.9615 0.3239 0.3274
C41_4 C 0.93257(13) 0.32311(9) 0.1915(7)
H38_4 H 0.9172 0.3227 0.2469
C42_4 C 0.92765(12) 0.32296(8) 0.0650(7)
C44_4 C 0.97848(13) 0.32544(9) 0.0339(7)
C45_4 C 0.89881(12) 0.32057(8) 0.0074(7)
C55_4 C 0.99345(17) 0.42739(10) 0.8487(9)
H47_4 H 0.9766 0.4210 0.8475
C56_4 C 0.97694(14) 0.45652(9) 0.9455(7)
C57_4 C 0.94991(17) 0.45143(10) 0.9457(9)
H48_4 H 0.9446 0.4406 0.9094
C61_4 C 0.9844(2) 0.47106(15) 0.9981(9)
Mn10_4 Mn 0.834808(17) 0.318286(11) 0.04772(8)
O19_4 O 0.89635(9) 0.32006(6) 0.8942(5)
C43_4 C 0.94997(15) 0.32446(10) 0.9851(7)
H39_4 H 0.9469 0.3249 0.8978
H40_4 H 0.9940 0.3267 0.9797
Mn7_4 Mn 0.866010(17) 0.308738(11) 0.76682(8)
Mn3_4 Mn 0.165192(17) 0.681714(11) 0.04772(8)
N1_5 N 0.21093(10) 0.68549(7) 0.0664(5)
N2_5 N 0.25244(11) 0.69494(7) 0.1391(6)
N3_5 N 0.35546(12) 0.76410(7) 0.4201(6)
N4_4 N 0.33289(11) 0.74050(7) 0.3556(5)
O4_5 O 0.16718(9) 0.67417(6) 0.2477(4)
H3_3 H 0.1663 0.6847 0.2994
H4_3 H 0.1847 0.6681 0.2635
C53_5 C 0.22535(16) 0.69922(10) 0.1112(9)
H45_5 H 0.2177 0.7105 0.1223
C54_5 C 0.23168(17) 0.67200(10) 0.0632(8)
H46_5 H 0.2279 0.6604 0.0381
C55_5 C 0.25655(17) 0.67739(10) 0.0987(9)
H47_5 H 0.2734 0.6710 0.0975
C56_5 C 0.27306(14) 0.70652(9) 0.1955(7)
C57_5 C 0.30009(17) 0.70143(10) 0.1957(9)
H48_5 H 0.3054 0.6906 0.1594
C58_4 C 0.3208(2) 0.71284(13) 0.2530(8)
H49_4 H 0.3398 0.7095 0.2541
C59_4 C 0.31274(16) 0.72853(10) 0.3057(7)
C60_4 C 0.2857(2) 0.73330(15) 0.3059(10)
H50_4 H 0.2798 0.7440 0.3416
C61_5 C 0.2656(2) 0.72106(15) 0.2481(9)
H51_5 H 0.2464 0.7240 0.2495
C62_5 C 0.33239(16) 0.75769(10) 0.3712(7)
H52_5 H 0.3169 0.7647 0.3493
C63_4 C 0.3600(2) 0.73557(14) 0.3871(9)
H53_4 H 0.3675 0.7241 0.3852
C64_5 C 0.37363(18) 0.75072(10) 0.4217(12)
H54_5 H 0.3927 0.7516 0.4430
Mn6_5 Mn 0.368272(18) 0.793378(12) 0.44767(9)
O25_4 O 0.12164(9) 0.68043(6) 0.0881(4)
Mn1_5 Mn 0.131728(18) 0.706622(12) 0.44767(9)
Mn2_4 Mn 0.133990(17) 0.691262(11) 0.76682(8)
O1_5 O 0.14227(8) 0.56584(6) 0.4560(4)
O2_5 O 0.11951(10) 0.70902(6) 0.2535(4)
H1_5 H 0.1358 0.7122 0.2036
H2_5 H 0.1053 0.7181 0.2457
O3_5 O 0.09292(11) 0.59676(6) 0.4297(5)
O5_5 O 0.04170(8) 0.56496(7) 0.4616(4)
O6_5 O 0.08986(10) 0.53493(5) 0.4951(5)
O7_5 O 0.18512(9) 0.59966(6) 0.5316(5)
O8_5 O 0.24238(8) 0.57455(7) 0.4707(4)
O9_5 O 0.20227(10) 0.53890(6) 0.4365(5)
O10_5 O 0.11577(9) 0.67423(6) 0.6286(4)
O11_5 O 0.12189(8) 0.67889(5) 0.4226(4)
O14_5 O 0.08536(10) 0.46675(6) 0.8510(5)
O16_5 O 0.17040(10) 0.65461(6) 0.9822(5)
O17_5 O 0.16475(9) 0.67164(6) 0.8214(5)
O18_5 O 0.37164(9) 0.56957(6) 0.3381(4)
O19_5 O 0.35365(9) 0.57006(6) 0.1442(5)
C1_5 C 0.09259(12) 0.56585(8) 0.4598(6)
C2_5 C 0.09249(13) 0.58393(7) 0.5305(7)
H5_5 H 0.0756 0.5852 0.5821
H6_5 H 0.1091 0.5851 0.5844
C3_5 C 0.06609(12) 0.56421(8) 0.3769(7)
H7_5 H 0.0653 0.5739 0.3159
H8_5 H 0.0663 0.5530 0.3308
C4_5 C 0.09285(13) 0.55134(7) 0.5630(6)
H9_5 H 0.1105 0.5516 0.6101
H10_5 H 0.0773 0.5530 0.6220
C5_5 C 0.11784(12) 0.56418(9) 0.3830(7)
H11_5 H 0.1178 0.5527 0.3412
H12_5 H 0.1177 0.5733 0.3177
C6_5 C 0.19231(12) 0.56946(8) 0.4728(6)
C7_5 C 0.18816(13) 0.58288(8) 0.5781(6)
H13_5 H 0.1714 0.5797 0.6269
H14_5 H 0.2044 0.5825 0.6348
C8_5 C 0.21834(12) 0.57411(10) 0.3910(7)
H15_5 H 0.2209 0.5652 0.3250
H16_5 H 0.2157 0.5856 0.3508
C9_5 C 0.19626(14) 0.55145(9) 0.5306(8)
H17_5 H 0.2117 0.5518 0.5914
H18_5 H 0.1792 0.5480 0.5755
C10_5 C 0.16749(12) 0.56987(10) 0.3813(8)
H19_5 H 0.1658 0.5815 0.3423
H20_5 H 0.1700 0.5611 0.3147
C11_5 C 0.09798(13) 0.61413(9) 0.4595(7)
C12_5 C 0.09780(15) 0.62104(9) 0.5763(7)
H21_5 H 0.0937 0.6138 0.6456
C13_5 C 0.10367(14) 0.63906(9) 0.5954(6)
H22_5 H 0.1043 0.6437 0.6773
C14_5 C 0.10836(12) 0.64972(8) 0.4945(6)
C15_5 C 0.10912(15) 0.64302(9) 0.3737(7)
H23_5 H 0.1131 0.6503 0.3043
C16_5 C 0.10384(16) 0.62511(9) 0.3585(7)
H24_5 H 0.1043 0.6203 0.2771
C17_5 C 0.11623(12) 0.66932(8) 0.5186(7)
C18_5 C 0.01593(13) 0.56180(9) 0.4103(7)
C23_5 C 0.01052(13) 0.56089(9) 0.2883(8)
H28_5 H 0.0252 0.5626 0.2303
C25_5 C 0.08908(13) 0.51935(8) 0.5623(8)
C26_5 C 0.08437(15) 0.50448(8) 0.4911(7)
H29_5 H 0.0813 0.5054 0.4040
C27_5 C 0.08417(14) 0.48777(8) 0.5500(7)
H30_5 H 0.0815 0.4775 0.5016
C28_5 C 0.08783(13) 0.48647(8) 0.6749(6)
C29_5 C 0.09272(14) 0.50132(9) 0.7461(7)
H31_5 H 0.0957 0.5001 0.8331
C30_5 C 0.09337(15) 0.51814(8) 0.6919(7)
H32_5 H 0.0966 0.5282 0.7410
C31_5 C 0.08852(12) 0.46864(8) 0.7363(6)
C32_5 C 0.18170(13) 0.61289(8) 0.6198(7)
C33_5 C 0.18004(15) 0.61071(9) 0.7448(7)
H33_5 H 0.1808 0.5992 0.7774
C34_5 C 0.17733(15) 0.62445(10) 0.8267(7)
H34_5 H 0.1778 0.6225 0.9139
C35_5 C 0.17380(11) 0.64147(8) 0.7798(7)
C36_5 C 0.17549(15) 0.64370(9) 0.6514(6)
H35_5 H 0.1738 0.6551 0.6169
C37_5 C 0.17965(16) 0.62945(10) 0.5729(7)
H36_5 H 0.1811 0.6313 0.4857
C38_5 C 0.16939(12) 0.65631(8) 0.8675(8)
C39_5 C 0.26817(13) 0.57450(9) 0.4085(7)
C40_5 C 0.29119(13) 0.57382(10) 0.4899(7)
H37_5 H 0.2885 0.5739 0.5774
C41_5 C 0.31743(13) 0.57311(9) 0.4415(7)
H38_5 H 0.3328 0.5727 0.4969
C42_5 C 0.32235(12) 0.57296(8) 0.3150(7)
C43_5 C 0.30003(15) 0.57446(10) 0.2351(7)
H39_5 H 0.3031 0.5749 0.1478
C44_5 C 0.27152(13) 0.57544(9) 0.2839(7)
H40_5 H 0.2560 0.5767 0.2297
C45_5 C 0.35119(12) 0.57057(8) 0.2574(7)
C46_5 C 0.19091(13) 0.52217(9) 0.4457(8)
C47_5 C 0.19809(16) 0.51166(10) 0.3422(9)
H41_5 H 0.2102 0.5158 0.2792
C48_5 C 0.18634(15) 0.49436(9) 0.3362(8)
H42_5 H 0.1916 0.4868 0.2703
C49_5 C 0.16755(14) 0.48860(9) 0.4246(7)
C50_5 C 0.16237(15) 0.49909(9) 0.5251(8)
H43_5 H 0.1509 0.4949 0.5905
C51_5 C 0.17401(17) 0.51639(9) 0.5333(8)
H44_5 H 0.1695 0.5237 0.6020
C52_5 C 0.15274(13) 0.47057(9) 0.4044(8)
Mn7_5 Mn 0.383990(17) 0.558738(11) 0.01682(8)
Mn10_5 Mn 0.415192(17) 0.568286(11) 0.29772(8)
N5_5 N 0.14454(12) 0.73590(7) 0.4201(6)
O22_5 O 0.16226(8) 0.70121(6) 0.6122(4)
O23_5 O 0.17839(8) 0.70046(6) 0.4205(4)
O24_5 O 0.15953(8) 0.70451(5) 0.9166(4)
O26_4 O 0.10365(9) 0.67994(6) 0.8942(5)
O27_5 O 0.10827(9) 0.71444(6) 0.7519(5)
O28_5 O 0.09720(8) 0.71497(6) 0.5468(5)
O12_4 O 0.91226(8) 0.54879(6) 0.3622(4)
O13_4 O 0.92839(8) 0.54954(6) 0.1705(4)
C19_5 C 0.99399(14) 0.55995(10) 0.4941(7)
H25_5 H 0.9977 0.5613 0.5804
C20_5 C 0.96755(13) 0.55629(8) 0.4576(6)
H26_5 H 0.9533 0.5545 0.5174
C21_5 C 0.96181(13) 0.55523(8) 0.3312(6)
C22_5 C 0.98341(14) 0.55751(10) 0.2445(7)
H27_5 H 0.9798 0.5568 0.1577
C24_5 C 0.93212(13) 0.55098(7) 0.2840(6)
Mn9_2 Mn 0.883990(17) 0.558738(11) 0.51682(8)
C19_6 C 0.00601(14) 0.44005(10) 0.4941(7)
H25_6 H 0.0023 0.4387 0.5804
C20_6 C 0.03245(13) 0.44371(8) 0.4576(6)
H26_6 H 0.0467 0.4455 0.5174
C21_6 C 0.03819(13) 0.44477(8) 0.3312(6)
C22_6 C 0.01659(14) 0.44249(10) 0.2445(7)
H27_6 H 0.0202 0.4432 0.1577
C24_6 C 0.06788(13) 0.44902(7) 0.2840(6)
N1_6 N 0.78907(10) 0.31451(7) 0.0664(5)
N2_6 N 0.74756(11) 0.30506(7) 0.1391(6)
N3_6 N 0.64454(12) 0.23590(7) 0.4201(6)
N4_5 N 0.66711(11) 0.25950(7) 0.3556(5)
O4_6 O 0.83282(9) 0.32583(6) 0.2477(4)
H3_4 H 0.8337 0.3153 0.2994
H4_4 H 0.8153 0.3319 0.2635
C53_6 C 0.77465(16) 0.30078(10) 0.1112(9)
H45_6 H 0.7823 0.2895 0.1223
C54_6 C 0.76832(17) 0.32800(10) 0.0632(8)
H46_6 H 0.7721 0.3396 0.0381
C55_6 C 0.74345(17) 0.32261(10) 0.0987(9)
H47_6 H 0.7266 0.3290 0.0975
C56_6 C 0.72694(14) 0.29348(9) 0.1955(7)
C57_6 C 0.69991(17) 0.29857(10) 0.1957(9)
H48_6 H 0.6946 0.3094 0.1594
C58_5 C 0.6792(2) 0.28716(13) 0.2530(8)
H49_5 H 0.6602 0.2905 0.2541
C59_5 C 0.68726(16) 0.27147(10) 0.3057(7)
C60_5 C 0.7143(2) 0.26670(15) 0.3059(10)
H50_5 H 0.7202 0.2560 0.3416
C61_6 C 0.7344(2) 0.27894(15) 0.2481(9)
H51_6 H 0.7536 0.2760 0.2495
C62_6 C 0.66761(16) 0.24231(10) 0.3712(7)
H52_6 H 0.6831 0.2353 0.3493
C63_5 C 0.6400(2) 0.26443(14) 0.3871(9)
H53_5 H 0.6325 0.2759 0.3852
C64_6 C 0.62637(18) 0.24928(10) 0.4217(12)
H54_6 H 0.6073 0.2484 0.4430
Mn6_6 Mn 0.631728(18) 0.206622(12) 0.44767(9)
Mn1_6 Mn 0.868272(18) 0.293378(12) 0.44767(9)
O1_6 O 0.85773(8) 0.43416(6) 0.4560(4)
O2_6 O 0.88049(10) 0.29098(6) 0.2535(4)
H1_6 H 0.8642 0.2878 0.2036
H2_6 H 0.8947 0.2819 0.2457
O3_6 O 0.90708(11) 0.40324(6) 0.4297(5)
O5_6 O 0.95830(8) 0.43504(7) 0.4616(4)
O6_6 O 0.91014(10) 0.46507(5) 0.4951(5)
O7_6 O 0.81488(9) 0.40034(6) 0.5316(5)
O8_6 O 0.75762(8) 0.42545(7) 0.4707(4)
O9_6 O 0.79773(10) 0.46110(6) 0.4365(5)
O10_6 O 0.88423(9) 0.32577(6) 0.6286(4)
O11_6 O 0.87811(8) 0.32111(5) 0.4226(4)
O14_6 O 0.91464(10) 0.53325(6) 0.8510(5)
O15_4 O 0.90953(8) 0.54549(5) 0.6666(4)
O16_6 O 0.82960(10) 0.34539(6) 0.9822(5)
O17_6 O 0.83525(9) 0.32836(6) 0.8214(5)
O18_6 O 0.62836(9) 0.43043(6) 0.3381(4)
O19_6 O 0.64635(9) 0.42994(6) 0.1442(5)
O20_4 O 0.85827(9) 0.53556(6) 0.5019(5)
O21_4 O 0.84720(8) 0.53503(6) 0.2968(5)
C1_6 C 0.90741(12) 0.43415(8) 0.4598(6)
C2_6 C 0.90751(13) 0.41607(7) 0.5305(7)
H5_6 H 0.9244 0.4148 0.5821
H6_6 H 0.8909 0.4149 0.5844
C3_6 C 0.93391(12) 0.43579(8) 0.3769(7)
H7_6 H 0.9347 0.4261 0.3159
H8_6 H 0.9337 0.4470 0.3308
C4_6 C 0.90715(13) 0.44866(7) 0.5630(6)
H9_6 H 0.8895 0.4484 0.6101
H10_6 H 0.9227 0.4470 0.6220
C5_6 C 0.88216(12) 0.43582(9) 0.3830(7)
H11_6 H 0.8822 0.4473 0.3412
H12_6 H 0.8823 0.4267 0.3177
C6_6 C 0.80769(12) 0.43054(8) 0.4728(6)
C7_6 C 0.81184(13) 0.41712(8) 0.5781(6)
H13_6 H 0.8286 0.4203 0.6269
H14_6 H 0.7956 0.4175 0.6348
C8_6 C 0.78166(12) 0.42589(10) 0.3910(7)
H15_6 H 0.7791 0.4348 0.3250
H16_6 H 0.7843 0.4144 0.3508
C9_6 C 0.80374(14) 0.44855(9) 0.5306(8)
H17_6 H 0.7883 0.4482 0.5914
H18_6 H 0.8208 0.4520 0.5755
C10_6 C 0.83251(12) 0.43013(10) 0.3813(8)
H19_6 H 0.8342 0.4185 0.3423
H20_6 H 0.8300 0.4389 0.3147
C11_6 C 0.90202(13) 0.38587(9) 0.4595(7)
C12_6 C 0.90220(15) 0.37896(9) 0.5763(7)
H21_6 H 0.9063 0.3862 0.6456
C13_6 C 0.89633(14) 0.36094(9) 0.5954(6)
H22_6 H 0.8957 0.3563 0.6773
C14_6 C 0.89164(12) 0.35028(8) 0.4945(6)
C15_6 C 0.89088(15) 0.35698(9) 0.3737(7)
H23_6 H 0.8869 0.3497 0.3043
C16_6 C 0.89616(16) 0.37489(9) 0.3585(7)
H24_6 H 0.8957 0.3797 0.2771
C17_6 C 0.88377(12) 0.33068(8) 0.5186(7)
C18_6 C 0.98407(13) 0.43820(9) 0.4103(7)
C23_6 C 0.98948(13) 0.43911(9) 0.2883(8)
H28_6 H 0.9748 0.4374 0.2303
C25_6 C 0.91092(13) 0.48065(8) 0.5623(8)
C26_6 C 0.91563(15) 0.49552(8) 0.4911(7)
H29_6 H 0.9187 0.4946 0.4040
C27_6 C 0.91583(14) 0.51223(8) 0.5500(7)
H30_6 H 0.9185 0.5225 0.5016
C28_6 C 0.91217(13) 0.51353(8) 0.6749(6)
C29_6 C 0.90728(14) 0.49868(9) 0.7461(7)
H31_6 H 0.9043 0.4999 0.8331
C30_6 C 0.90663(15) 0.48186(8) 0.6919(7)
H32_6 H 0.9034 0.4718 0.7410
C31_6 C 0.91148(12) 0.53136(8) 0.7363(6)
C32_6 C 0.81830(13) 0.38711(8) 0.6198(7)
C33_6 C 0.81996(15) 0.38929(9) 0.7448(7)
H33_6 H 0.8192 0.4008 0.7774
C34_6 C 0.82267(15) 0.37555(10) 0.8267(7)
H34_6 H 0.8222 0.3775 0.9139
C35_6 C 0.82620(11) 0.35853(8) 0.7798(7)
C36_6 C 0.82451(15) 0.35630(9) 0.6514(6)
H35_6 H 0.8262 0.3449 0.6169
C37_6 C 0.82035(16) 0.37055(10) 0.5729(7)
H36_6 H 0.8189 0.3687 0.4857
C38_6 C 0.83061(12) 0.34369(8) 0.8675(8)
C39_6 C 0.73183(13) 0.42550(9) 0.4085(7)
C40_6 C 0.70881(13) 0.42618(10) 0.4899(7)
H37_6 H 0.7115 0.4261 0.5774
C41_6 C 0.68257(13) 0.42689(9) 0.4415(7)
H38_6 H 0.6672 0.4273 0.4969
C42_6 C 0.67765(12) 0.42704(8) 0.3150(7)
C43_6 C 0.69997(15) 0.42554(10) 0.2351(7)
H39_6 H 0.6969 0.4251 0.1478
C44_6 C 0.72848(13) 0.42456(9) 0.2839(7)
H40_6 H 0.7440 0.4233 0.2297
C45_6 C 0.64881(12) 0.42943(8) 0.2574(7)
C46_6 C 0.80909(13) 0.47783(9) 0.4457(8)
C47_6 C 0.80191(16) 0.48834(10) 0.3422(9)
H41_6 H 0.7898 0.4842 0.2792
C48_6 C 0.81366(15) 0.50564(9) 0.3362(8)
H42_6 H 0.8084 0.5132 0.2703
C49_6 C 0.83245(14) 0.51140(9) 0.4246(7)
C50_6 C 0.83763(15) 0.50091(9) 0.5251(8)
H43_6 H 0.8491 0.5051 0.5905
C51_6 C 0.82599(17) 0.48361(9) 0.5333(8)
H44_6 H 0.8305 0.4763 0.6020
C52_6 C 0.84726(13) 0.52943(9) 0.4044(8)
Mn7_6 Mn 0.616010(17) 0.441262(11) 0.01682(8)
Mn10_6 Mn 0.584808(17) 0.431714(11) 0.29772(8)
Mn11_4 Mn 0.915192(17) 0.568286(11) 0.79772(8)
N5_6 N 0.85546(12) 0.26410(7) 0.4201(6)
O22_6 O 0.83774(8) 0.29879(6) 0.6122(4)
O23_6 O 0.82161(8) 0.29954(6) 0.4205(4)
O24_6 O 0.84047(8) 0.29549(5) 0.9166(4)
O27_6 O 0.89173(9) 0.28556(6) 0.7519(5)
O28_6 O 0.90280(8) 0.28503(6) 0.5468(5)
N1_7 N 0.46093(10) 0.56451(7) 0.3164(5)
N2_7 N 0.50244(11) 0.55506(7) 0.3891(6)
N3_7 N 0.60546(12) 0.48590(7) 0.6701(6)
N4_6 N 0.58289(11) 0.50950(7) 0.6056(5)
O4_7 O 0.41718(9) 0.57583(6) 0.4977(4)
H3_5 H 0.4163 0.5653 0.5494
H4_5 H 0.4347 0.5819 0.5135
O14_7 O 0.33536(10) 0.78325(6) 0.1010(5)
O16_7 O 0.42040(10) 0.59539(6) 0.2322(5)
O17_7 O 0.41475(9) 0.57836(6) 0.0714(5)
H31_7 H 0.3457 0.7499 0.0831
H33_7 H 0.4308 0.6508 0.0274
C34_7 C 0.42733(15) 0.62555(10) 0.0767(7)
H34_7 H 0.4278 0.6275 0.1639
C35_7 C 0.42380(11) 0.60853(8) 0.0298(7)
C38_7 C 0.41939(12) 0.59369(8) 0.1175(8)
C53_7 C 0.47535(16) 0.55078(10) 0.3612(9)
H45_7 H 0.4677 0.5395 0.3723
C54_7 C 0.48168(17) 0.57800(10) 0.3132(8)
H46_7 H 0.4779 0.5896 0.2881
C55_7 C 0.50655(17) 0.57261(10) 0.3487(9)
H47_7 H 0.5234 0.5790 0.3475
C56_7 C 0.52306(14) 0.54348(9) 0.4455(7)
C57_7 C 0.55009(17) 0.54857(10) 0.4457(9)
H48_7 H 0.5554 0.5594 0.4094
C58_6 C 0.5708(2) 0.53716(13) 0.5030(8)
H49_6 H 0.5898 0.5405 0.5041
C59_6 C 0.56274(16) 0.52147(10) 0.5557(7)
C60_6 C 0.5357(2) 0.51670(15) 0.5559(10)
H50_6 H 0.5298 0.5060 0.5916
C61_7 C 0.5156(2) 0.52894(15) 0.4981(9)
H51_7 H 0.4964 0.5260 0.4995
C62_7 C 0.58239(16) 0.49231(10) 0.6212(7)
H52_7 H 0.5669 0.4853 0.5993
C63_6 C 0.6100(2) 0.51443(14) 0.6371(9)
H53_6 H 0.6175 0.5259 0.6352
C64_7 C 0.62363(18) 0.49928(10) 0.6717(12)
H54_7 H 0.6427 0.4984 0.6930
Mn6_7 Mn 0.618272(18) 0.456622(12) 0.69767(9)
Mn11_5 Mn 0.334808(17) 0.818286(11) 0.04772(8)
O24_7 O 0.40953(8) 0.54549(5) 0.1666(4)
O27_7 O 0.35827(9) 0.53556(6) 0.0019(5)
Mn1_7 Mn 0.381728(18) 0.543378(12) 0.69767(9)
O1_7 O 0.39227(8) 0.68416(6) 0.7060(4)
O2_7 O 0.36951(10) 0.54098(6) 0.5035(4)
H1_7 H 0.3858 0.5378 0.4536
H2_7 H 0.3553 0.5319 0.4957
O3_7 O 0.34292(11) 0.65324(6) 0.6797(5)
O5_7 O 0.29170(8) 0.68504(7) 0.7116(4)
O6_7 O 0.33986(10) 0.71507(5) 0.7451(5)
O7_7 O 0.43512(9) 0.65034(6) 0.7816(5)
O8_7 O 0.49238(8) 0.67545(7) 0.7207(4)
O9_7 O 0.45227(10) 0.71110(6) 0.6865(5)
O10_7 O 0.36577(9) 0.57577(6) 0.8786(4)
O11_7 O 0.37189(8) 0.57111(5) 0.6726(4)
O15_5 O 0.34047(8) 0.79549(5) 0.9166(4)
O18_7 O 0.62164(9) 0.68043(6) 0.5881(4)
O19_7 O 0.60365(9) 0.67994(6) 0.3942(5)
O20_5 O 0.39173(9) 0.78556(6) 0.7519(5)
O21_5 O 0.40280(8) 0.78503(6) 0.5468(5)
C1_7 C 0.34259(12) 0.68415(8) 0.7098(6)
C2_7 C 0.34249(13) 0.66607(7) 0.7805(7)
H5_7 H 0.3256 0.6648 0.8321
H6_7 H 0.3591 0.6649 0.8344
C3_7 C 0.31609(12) 0.68579(8) 0.6269(7)
H7_7 H 0.3153 0.6761 0.5659
H8_7 H 0.3163 0.6970 0.5808
C4_7 C 0.34285(13) 0.69866(7) 0.8130(6)
H9_7 H 0.3605 0.6984 0.8601
H10_7 H 0.3273 0.6970 0.8720
C5_7 C 0.36784(12) 0.68582(9) 0.6330(7)
H11_7 H 0.3678 0.6973 0.5912
H12_7 H 0.3677 0.6767 0.5677
C6_7 C 0.44231(12) 0.68054(8) 0.7228(6)
C7_7 C 0.43816(13) 0.66712(8) 0.8281(6)
H13_7 H 0.4214 0.6703 0.8769
H14_7 H 0.4544 0.6675 0.8848
C8_7 C 0.46834(12) 0.67589(10) 0.6410(7)
H15_7 H 0.4709 0.6848 0.5750
H16_7 H 0.4657 0.6644 0.6008
C9_7 C 0.44626(14) 0.69855(9) 0.7806(8)
H17_7 H 0.4617 0.6982 0.8414
H18_7 H 0.4292 0.7020 0.8255
C10_7 C 0.41749(12) 0.68013(10) 0.6313(8)
H19_7 H 0.4158 0.6685 0.5923
H20_7 H 0.4200 0.6889 0.5647
C11_7 C 0.34798(13) 0.63587(9) 0.7095(7)
C12_7 C 0.34780(15) 0.62896(9) 0.8263(7)
H21_7 H 0.3437 0.6362 0.8956
C13_7 C 0.35367(14) 0.61094(9) 0.8454(6)
H22_7 H 0.3543 0.6063 0.9273
C14_7 C 0.35836(12) 0.60028(8) 0.7445(6)
C15_7 C 0.35912(15) 0.60698(9) 0.6237(7)
H23_7 H 0.3631 0.5997 0.5543
C16_7 C 0.35384(16) 0.62489(9) 0.6085(7)
H24_7 H 0.3543 0.6297 0.5271
C17_7 C 0.36623(12) 0.58068(8) 0.7686(7)
C18_7 C 0.26593(13) 0.68820(9) 0.6603(7)
C19_7 C 0.24399(14) 0.69005(10) 0.7441(7)
H25_7 H 0.2477 0.6887 0.8304
C20_7 C 0.21755(13) 0.69371(8) 0.7076(6)
H26_7 H 0.2033 0.6955 0.7674
C21_7 C 0.21181(13) 0.69477(8) 0.5812(6)
C22_7 C 0.23341(14) 0.69249(10) 0.4945(7)
H27_7 H 0.2298 0.6932 0.4077
C23_7 C 0.26052(13) 0.68911(9) 0.5383(8)
H28_7 H 0.2752 0.6874 0.4803
C24_7 C 0.18212(13) 0.69902(7) 0.5340(6)
C25_7 C 0.33908(13) 0.73065(8) 0.8123(8)
C26_7 C 0.33437(15) 0.74552(8) 0.7411(7)
H29_7 H 0.3313 0.7446 0.6540
C27_7 C 0.33417(14) 0.76223(8) 0.8000(7)
H30_7 H 0.3315 0.7725 0.7516
C28_7 C 0.33783(13) 0.76353(8) 0.9249(6)
C29_7 C 0.34272(14) 0.74868(9) 0.9961(7)
C30_7 C 0.34337(15) 0.73186(8) 0.9419(7)
H32_7 H 0.3466 0.7218 0.9910
C31_7 C 0.33852(12) 0.78136(8) 0.9863(6)
C32_7 C 0.43170(13) 0.63711(8) 0.8698(7)
C33_7 C 0.43004(15) 0.63929(9) 0.9948(7)
C36_7 C 0.42549(15) 0.60630(9) 0.9014(6)
H35_7 H 0.4238 0.5949 0.8669
C37_7 C 0.42965(16) 0.62055(10) 0.8229(7)
H36_7 H 0.4311 0.6187 0.7357
C39_7 C 0.51817(13) 0.67550(9) 0.6585(7)
C40_7 C 0.54119(13) 0.67618(10) 0.7399(7)
H37_7 H 0.5385 0.6761 0.8274
C41_7 C 0.56743(13) 0.67689(9) 0.6915(7)
H38_7 H 0.5828 0.6773 0.7469
C42_7 C 0.57235(12) 0.67704(8) 0.5650(7)
C43_7 C 0.55003(15) 0.67554(10) 0.4851(7)
H39_7 H 0.5531 0.6751 0.3978
C44_7 C 0.52152(13) 0.67456(9) 0.5339(7)
H40_7 H 0.5060 0.6733 0.4797
C45_7 C 0.60119(12) 0.67943(8) 0.5074(7)
C46_7 C 0.44091(13) 0.72783(9) 0.6957(8)
C47_7 C 0.44809(16) 0.73834(10) 0.5922(9)
H41_7 H 0.4602 0.7342 0.5292
C48_7 C 0.43634(15) 0.75564(9) 0.5862(8)
H42_7 H 0.4416 0.7632 0.5203
C49_7 C 0.41755(14) 0.76140(9) 0.6746(7)
C50_7 C 0.41237(15) 0.75091(9) 0.7751(8)
H43_7 H 0.4009 0.7551 0.8405
C51_7 C 0.42401(17) 0.73361(9) 0.7833(8)
H44_7 H 0.4195 0.7263 0.8520
C52_7 C 0.40274(13) 0.77943(9) 0.6544(8)
Mn7_7 Mn 0.633990(17) 0.691262(11) 0.26682(8)
Mn8_3 Mn 0.366010(17) 0.808738(11) 0.76682(8)
Mn10_7 Mn 0.665192(17) 0.681714(11) 0.54772(8)
N5_7 N 0.39454(12) 0.51410(7) 0.6701(6)
O22_7 O 0.41226(8) 0.54879(6) 0.8622(4)
O23_7 O 0.42839(8) 0.54954(6) 0.6705(4)
O28_7 O 0.34720(8) 0.53503(6) 0.7968(5)
N1_8 N 0.03907(10) 0.93549(7) 0.3164(5)
O4_8 O 0.08282(9) 0.92417(6) 0.4977(4)
H3_6 H 0.0837 0.9347 0.5494
H4_6 H 0.0653 0.9181 0.5135
O14_8 O 0.16464(10) 0.71675(6) 0.1010(5)
O16_8 O 0.07960(10) 0.90461(6) 0.2322(5)
O17_8 O 0.08525(9) 0.92164(6) 0.0714(5)
H31_8 H 0.1543 0.7501 0.0831
H33_8 H 0.0692 0.8492 0.0274
C34_8 C 0.07267(15) 0.87445(10) 0.0767(7)
H34_8 H 0.0722 0.8725 0.1639
C35_8 C 0.07620(11) 0.89147(8) 0.0298(7)
C38_8 C 0.08061(12) 0.90631(8) 0.1175(8)
C53_8 C 0.02465(16) 0.94922(10) 0.3612(9)
H45_8 H 0.0323 0.9605 0.3723
C54_8 C 0.01832(17) 0.92200(10) 0.3132(8)
H46_8 H 0.0221 0.9104 0.2881
H51_8 H 0.0036 0.9740 0.4995
O25_5 O 0.12836(9) 0.93043(6) 0.3381(4)
O26_5 O 0.14635(9) 0.92994(6) 0.1442(5)
O1_8 O 0.10773(8) 0.81584(6) 0.7060(4)
O2_8 O 0.13049(10) 0.95902(6) 0.5035(4)
H1_8 H 0.1142 0.9622 0.4536
H2_8 H 0.1447 0.9681 0.4957
O3_8 O 0.15708(11) 0.84676(6) 0.6797(5)
O5_8 O 0.20830(8) 0.81496(7) 0.7116(4)
O6_8 O 0.16014(10) 0.78493(5) 0.7451(5)
O7_8 O 0.06488(9) 0.84966(6) 0.7816(5)
O8_8 O 0.00762(8) 0.82455(7) 0.7207(4)
O9_8 O 0.04773(10) 0.78890(6) 0.6865(5)
O10_8 O 0.13423(9) 0.92423(6) 0.8786(4)
O11_8 O 0.12811(8) 0.92889(5) 0.6726(4)
O12_5 O 0.33774(8) 0.79879(6) 0.6122(4)
O13_5 O 0.32161(8) 0.79954(6) 0.4205(4)
C1_8 C 0.15741(12) 0.81585(8) 0.7098(6)
C2_8 C 0.15751(13) 0.83393(7) 0.7805(7)
H5_8 H 0.1744 0.8352 0.8321
H6_8 H 0.1409 0.8351 0.8344
C3_8 C 0.18391(12) 0.81421(8) 0.6269(7)
H7_8 H 0.1847 0.8239 0.5659
H8_8 H 0.1837 0.8030 0.5808
C4_8 C 0.15715(13) 0.80134(7) 0.8130(6)
H9_8 H 0.1395 0.8016 0.8601
H10_8 H 0.1727 0.8030 0.8720
C5_8 C 0.13216(12) 0.81418(9) 0.6330(7)
H11_8 H 0.1322 0.8027 0.5912
H12_8 H 0.1323 0.8233 0.5677
C6_8 C 0.05769(12) 0.81946(8) 0.7228(6)
C7_8 C 0.06184(13) 0.83288(8) 0.8281(6)
H13_8 H 0.0786 0.8297 0.8769
H14_8 H 0.0456 0.8325 0.8848
C8_8 C 0.03166(12) 0.82411(10) 0.6410(7)
H15_8 H 0.0291 0.8152 0.5750
H16_8 H 0.0343 0.8356 0.6008
C9_8 C 0.05374(14) 0.80145(9) 0.7806(8)
H17_8 H 0.0383 0.8018 0.8414
H18_8 H 0.0708 0.7980 0.8255
C10_8 C 0.08251(12) 0.81987(10) 0.6313(8)
H19_8 H 0.0842 0.8315 0.5923
H20_8 H 0.0800 0.8111 0.5647
C11_8 C 0.15202(13) 0.86413(9) 0.7095(7)
C12_8 C 0.15220(15) 0.87104(9) 0.8263(7)
H21_8 H 0.1563 0.8638 0.8956
C13_8 C 0.14633(14) 0.88906(9) 0.8454(6)
H22_8 H 0.1457 0.8937 0.9273
C14_8 C 0.14164(12) 0.89972(8) 0.7445(6)
C15_8 C 0.14088(15) 0.89302(9) 0.6237(7)
H23_8 H 0.1369 0.9003 0.5543
C16_8 C 0.14616(16) 0.87511(9) 0.6085(7)
H24_8 H 0.1457 0.8703 0.5271
C17_8 C 0.13377(12) 0.91932(8) 0.7686(7)
C18_8 C 0.23407(13) 0.81180(9) 0.6603(7)
C19_8 C 0.25601(14) 0.80995(10) 0.7441(7)
H25_8 H 0.2523 0.8113 0.8304
C20_8 C 0.28245(13) 0.80629(8) 0.7076(6)
H26_8 H 0.2967 0.8045 0.7674
C21_8 C 0.28819(13) 0.80523(8) 0.5812(6)
C22_8 C 0.26659(14) 0.80751(10) 0.4945(7)
H27_8 H 0.2702 0.8068 0.4077
C23_8 C 0.23948(13) 0.81089(9) 0.5383(8)
H28_8 H 0.2248 0.8126 0.4803
C24_8 C 0.31788(13) 0.80098(7) 0.5340(6)
C25_8 C 0.16092(13) 0.76935(8) 0.8123(8)
C26_8 C 0.16563(15) 0.75448(8) 0.7411(7)
H29_8 H 0.1687 0.7554 0.6540
C27_8 C 0.16583(14) 0.73777(8) 0.8000(7)
H30_8 H 0.1685 0.7275 0.7516
C28_8 C 0.16217(13) 0.73647(8) 0.9249(6)
C29_8 C 0.15728(14) 0.75132(9) 0.9961(7)
C30_8 C 0.15663(15) 0.76814(8) 0.9419(7)
H32_8 H 0.1534 0.7782 0.9910
C31_8 C 0.16148(12) 0.71864(8) 0.9863(6)
C32_8 C 0.06830(13) 0.86289(8) 0.8698(7)
C33_8 C 0.06996(15) 0.86071(9) 0.9948(7)
C36_8 C 0.07451(15) 0.89370(9) 0.9014(6)
H35_8 H 0.0762 0.9051 0.8669
C37_8 C 0.07035(16) 0.87945(10) 0.8229(7)
H36_8 H 0.0689 0.8813 0.7357
C46_8 C 0.05909(13) 0.77217(9) 0.6957(8)
C47_8 C 0.05191(16) 0.76166(10) 0.5922(9)
H41_8 H 0.0398 0.7658 0.5292
C48_8 C 0.06366(15) 0.74436(9) 0.5862(8)
H42_8 H 0.0584 0.7368 0.5203
C49_8 C 0.08245(14) 0.73860(9) 0.6746(7)
C50_8 C 0.08763(15) 0.74909(9) 0.7751(8)
H43_8 H 0.0991 0.7449 0.8405
C51_8 C 0.07599(17) 0.76639(9) 0.7833(8)
H44_8 H 0.0805 0.7737 0.8520
C52_8 C 0.09726(13) 0.72057(9) 0.6544(8)
N5_8 N 0.10546(12) 0.98590(7) 0.6701(6)
N3_8 N 0.89454(12) 0.01410(7) 0.6701(6)
C62_8 C 0.91761(16) 0.00769(10) 0.6212(7)
H52_8 H 0.9331 0.0147 0.5993
C64_8 C 0.87637(18) 0.00072(10) 0.6717(12)
H54_8 H 0.8573 0.0016 0.6930
C39_8 C 0.98183(13) 0.82450(9) 0.6585(7)
C40_8 C 0.95881(13) 0.82382(10) 0.7399(7)
H37_8 H 0.9615 0.8239 0.8274
C41_8 C 0.93257(13) 0.82311(9) 0.6915(7)
H38_8 H 0.9172 0.8227 0.7469
C42_8 C 0.92765(12) 0.82296(8) 0.5650(7)
C43_8 C 0.94997(15) 0.82446(10) 0.4851(7)
H39_8 H 0.9469 0.8249 0.3978
C44_8 C 0.97848(13) 0.82544(9) 0.5339(7)
H40_8 H 0.9940 0.8267 0.4797
C45_8 C 0.89881(12) 0.82057(8) 0.5074(7)
N1_9 N 0.71093(10) 0.18549(7) 0.0664(5)
N2_8 N 0.75244(11) 0.19494(7) 0.1391(6)
N4_7 N 0.83289(11) 0.24050(7) 0.3556(5)
O4_9 O 0.66718(9) 0.17417(6) 0.2477(4)
H3_7 H 0.6663 0.1847 0.2994
H4_7 H 0.6847 0.1681 0.2635
C53_9 C 0.72535(16) 0.19922(10) 0.1112(9)
H45_9 H 0.7177 0.2105 0.1223
C54_9 C 0.73168(17) 0.17200(10) 0.0632(8)
H46_9 H 0.7279 0.1604 0.0381
C55_8 C 0.75655(17) 0.17739(10) 0.0987(9)
H47_8 H 0.7734 0.1710 0.0975
C56_8 C 0.77306(14) 0.20652(9) 0.1955(7)
C57_8 C 0.80009(17) 0.20143(10) 0.1957(9)
H48_8 H 0.8054 0.1906 0.1594
C58_7 C 0.8208(2) 0.21284(13) 0.2530(8)
H49_7 H 0.8398 0.2095 0.2541
C59_7 C 0.81274(16) 0.22853(10) 0.3057(7)
C60_7 C 0.7857(2) 0.23330(15) 0.3059(10)
H50_7 H 0.7798 0.2440 0.3416
C61_8 C 0.7656(2) 0.22106(15) 0.2481(9)
H51_9 H 0.7464 0.2240 0.2495
C62_9 C 0.83239(16) 0.25769(10) 0.3712(7)
H52_9 H 0.8169 0.2647 0.3493
C63_7 C 0.8600(2) 0.23557(14) 0.3871(9)
H53_7 H 0.8675 0.2241 0.3852
C64_9 C 0.87363(18) 0.25072(10) 0.4217(12)
H54_9 H 0.8927 0.2516 0.4430
O1_9 O 0.64227(8) 0.06584(6) 0.4560(4)
O2_9 O 0.61951(10) 0.20902(6) 0.2535(4)
H1_9 H 0.6358 0.2122 0.2036
H2_9 H 0.6053 0.2181 0.2457
O3_9 O 0.59292(11) 0.09676(6) 0.4297(5)
O5_9 O 0.54170(8) 0.06496(7) 0.4616(4)
O6_9 O 0.58986(10) 0.03493(5) 0.4951(5)
O7_9 O 0.68512(9) 0.09966(6) 0.5316(5)
O8_9 O 0.74238(8) 0.07455(7) 0.4707(4)
O9_9 O 0.70227(10) 0.03890(6) 0.4365(5)
O10_9 O 0.61577(9) 0.17423(6) 0.6286(4)
O11_9 O 0.62189(8) 0.17889(5) 0.4226(4)
O16_9 O 0.67040(10) 0.15461(6) 0.9822(5)
O17_9 O 0.66475(9) 0.17164(6) 0.8214(5)
O18_8 O 0.87164(9) 0.06957(6) 0.3381(4)
O19_8 O 0.85365(9) 0.07006(6) 0.1442(5)
C1_9 C 0.59259(12) 0.06585(8) 0.4598(6)
C2_9 C 0.59249(13) 0.08393(7) 0.5305(7)
H5_9 H 0.5756 0.0852 0.5821
H6_9 H 0.6091 0.0851 0.5844
C3_9 C 0.56609(12) 0.06421(8) 0.3769(7)
H7_9 H 0.5653 0.0739 0.3159
H8_9 H 0.5663 0.0530 0.3308
C4_9 C 0.59285(13) 0.05134(7) 0.5630(6)
H9_9 H 0.6105 0.0516 0.6101
H10_9 H 0.5773 0.0530 0.6220
C5_9 C 0.61784(12) 0.06418(9) 0.3830(7)
H11_9 H 0.6178 0.0527 0.3412
H12_9 H 0.6177 0.0733 0.3177
C6_9 C 0.69231(12) 0.06946(8) 0.4728(6)
C7_9 C 0.68816(13) 0.08288(8) 0.5781(6)
H13_9 H 0.6714 0.0797 0.6269
H14_9 H 0.7044 0.0825 0.6348
C8_9 C 0.71834(12) 0.07411(10) 0.3910(7)
H15_9 H 0.7209 0.0652 0.3250
H16_9 H 0.7157 0.0856 0.3508
C9_9 C 0.69626(14) 0.05145(9) 0.5306(8)
H17_9 H 0.7117 0.0518 0.5914
H18_9 H 0.6792 0.0480 0.5755
C10_9 C 0.66749(12) 0.06987(10) 0.3813(8)
H19_9 H 0.6658 0.0815 0.3423
H20_9 H 0.6700 0.0611 0.3147
C11_9 C 0.59798(13) 0.11413(9) 0.4595(7)
C12_9 C 0.59780(15) 0.12104(9) 0.5763(7)
H21_9 H 0.5937 0.1138 0.6456
C13_9 C 0.60367(14) 0.13906(9) 0.5954(6)
H22_9 H 0.6043 0.1437 0.6773
C14_9 C 0.60836(12) 0.14972(8) 0.4945(6)
C15_9 C 0.60912(15) 0.14302(9) 0.3737(7)
H23_9 H 0.6131 0.1503 0.3043
C16_9 C 0.60384(16) 0.12511(9) 0.3585(7)
H24_9 H 0.6043 0.1203 0.2771
C17_9 C 0.61623(12) 0.16932(8) 0.5186(7)
C18_9 C 0.51593(13) 0.06180(9) 0.4103(7)
C19_9 C 0.49399(14) 0.05995(10) 0.4941(7)
H25_9 H 0.4977 0.0613 0.5804
C20_9 C 0.46755(13) 0.05629(8) 0.4576(6)
H26_9 H 0.4533 0.0545 0.5174
C21_9 C 0.46181(13) 0.05523(8) 0.3312(6)
C22_9 C 0.48341(14) 0.05751(10) 0.2445(7)
H27_9 H 0.4798 0.0568 0.1577
C23_9 C 0.51052(13) 0.06089(9) 0.2883(8)
H28_9 H 0.5252 0.0626 0.2303
C24_9 C 0.43212(13) 0.05098(7) 0.2840(6)
C25_9 C 0.58908(13) 0.01935(8) 0.5623(8)
C26_9 C 0.58437(15) 0.00448(8) 0.4911(7)
H29_9 H 0.5813 0.0054 0.4040
C29_9 C 0.59272(14) 0.00132(9) 0.7461(7)
H31_9 H 0.5957 0.0001 0.8331
C30_9 C 0.59337(15) 0.01814(8) 0.6919(7)
H32_9 H 0.5966 0.0282 0.7410
C32_9 C 0.68170(13) 0.11289(8) 0.6198(7)
C33_9 C 0.68004(15) 0.11071(9) 0.7448(7)
H33_9 H 0.6808 0.0992 0.7774
C34_9 C 0.67733(15) 0.12445(10) 0.8267(7)
H34_9 H 0.6778 0.1225 0.9139
C35_9 C 0.67380(11) 0.14147(8) 0.7798(7)
C36_9 C 0.67549(15) 0.14370(9) 0.6514(6)
H35_9 H 0.6738 0.1551 0.6169
C37_9 C 0.67965(16) 0.12945(10) 0.5729(7)
H36_9 H 0.6811 0.1313 0.4857
C38_9 C 0.66939(12) 0.15631(8) 0.8675(8)
C39_9 C 0.76817(13) 0.07450(9) 0.4085(7)
C40_9 C 0.79119(13) 0.07382(10) 0.4899(7)
H37_9 H 0.7885 0.0739 0.5774
C41_9 C 0.81743(13) 0.07311(9) 0.4415(7)
H38_9 H 0.8328 0.0727 0.4969
C42_9 C 0.82235(12) 0.07296(8) 0.3150(7)
C43_9 C 0.80003(15) 0.07446(10) 0.2351(7)
H39_9 H 0.8031 0.0749 0.1478
C44_9 C 0.77152(13) 0.07544(9) 0.2839(7)
H40_9 H 0.7560 0.0767 0.2297
C45_9 C 0.85119(12) 0.07057(8) 0.2574(7)
C46_9 C 0.69091(13) 0.02217(9) 0.4457(8)
C47_9 C 0.69809(16) 0.01166(10) 0.3422(9)
H41_9 H 0.7102 0.0158 0.2792
C51_9 C 0.67401(17) 0.01639(9) 0.5333(8)
H44_9 H 0.6695 0.0237 0.6020
O22_8 O 0.66226(8) 0.20121(6) 0.6122(4)
O23_8 O 0.67839(8) 0.20046(6) 0.4205(4)
O24_8 O 0.65953(8) 0.20451(5) 0.9166(4)
O27_8 O 0.60827(9) 0.21444(6) 0.7519(5)
O28_8 O 0.59720(8) 0.21497(6) 0.5468(5)
O14_9 O 0.58536(10) 0.96675(6) 0.8510(5)
O15_6 O 0.59047(8) 0.95451(5) 0.6666(4)
O20_6 O 0.64173(9) 0.96444(6) 0.5019(5)
O21_6 O 0.65280(8) 0.96497(6) 0.2968(5)
C27_9 C 0.58417(14) 0.98777(8) 0.5500(7)
H30_9 H 0.5815 0.9775 0.5016
C28_9 C 0.58783(13) 0.98647(8) 0.6749(6)
C31_9 C 0.58852(12) 0.96864(8) 0.7363(6)
C48_9 C 0.68634(15) 0.99436(9) 0.3362(8)
H42_9 H 0.6916 0.9868 0.2703
C49_9 C 0.66755(14) 0.98860(9) 0.4246(7)
C50_9 C 0.66237(15) 0.99909(9) 0.5251(8)
H43_9 H 0.6509 0.9949 0.5905
C52_9 C 0.65274(13) 0.97057(9) 0.4044(8)
O14_10 O 0.41464(10) 0.03325(6) 0.8510(5)
C27_10 C 0.41583(14) 0.01223(8) 0.5500(7)
H30_10 H 0.4185 0.0225 0.5016
C28_10 C 0.41217(13) 0.01353(8) 0.6749(6)
C31_10 C 0.41148(12) 0.03136(8) 0.7363(6)
C48_10 C 0.31366(15) 0.00564(9) 0.3362(8)
H42_10 H 0.3084 0.0132 0.2703
C49_10 C 0.33245(14) 0.01140(9) 0.4246(7)
C50_10 C 0.33763(15) 0.00091(9) 0.5251(8)
H43_10 H 0.3491 0.0051 0.5905
C52_10 C 0.34726(13) 0.02943(9) 0.4044(8)
N1_10 N 0.28907(10) 0.81451(7) 0.0664(5)
N2_9 N 0.24756(11) 0.80506(7) 0.1391(6)
N4_8 N 0.16711(11) 0.75950(7) 0.3556(5)
O4_10 O 0.33282(9) 0.82583(6) 0.2477(4)
H3_8 H 0.3337 0.8153 0.2994
H4_8 H 0.3153 0.8319 0.2635
C53_10 C 0.27465(16) 0.80078(10) 0.1112(9)
H45_10 H 0.2823 0.7895 0.1223
C54_10 C 0.26832(17) 0.82800(10) 0.0632(8)
H46_10 H 0.2721 0.8396 0.0381
C55_9 C 0.24345(17) 0.82261(10) 0.0987(9)
H47_9 H 0.2266 0.8290 0.0975
C56_9 C 0.22694(14) 0.79348(9) 0.1955(7)
C57_9 C 0.19991(17) 0.79857(10) 0.1957(9)
H48_9 H 0.1946 0.8094 0.1594
C58_8 C 0.1792(2) 0.78716(13) 0.2530(8)
H49_8 H 0.1602 0.7905 0.2541
C59_8 C 0.18726(16) 0.77147(10) 0.3057(7)
C60_8 C 0.2143(2) 0.76670(15) 0.3059(10)
H50_8 H 0.2202 0.7560 0.3416
C61_9 C 0.2344(2) 0.77894(15) 0.2481(9)
H51_10 H 0.2536 0.7760 0.2495
C62_10 C 0.16761(16) 0.74231(10) 0.3712(7)
H52_10 H 0.1831 0.7353 0.3493
C63_8 C 0.1400(2) 0.76443(14) 0.3871(9)
H53_8 H 0.1325 0.7759 0.3852
C64_10 C 0.12637(18) 0.74928(10) 0.4217(12)
H54_10 H 0.1073 0.7484 0.4430
O25_6 O 0.37836(9) 0.81957(6) 0.0881(4)
O1_10 O 0.35773(8) 0.93416(6) 0.4560(4)
O2_10 O 0.38049(10) 0.79098(6) 0.2535(4)
H1_10 H 0.3642 0.7878 0.2036
H2_10 H 0.3947 0.7819 0.2457
O3_10 O 0.40708(11) 0.90324(6) 0.4297(5)
O5_10 O 0.45830(8) 0.93504(7) 0.4616(4)
O6_10 O 0.41014(10) 0.96507(5) 0.4951(5)
O7_10 O 0.31488(9) 0.90034(6) 0.5316(5)
O8_10 O 0.25762(8) 0.92545(7) 0.4707(4)
O9_10 O 0.29773(10) 0.96110(6) 0.4365(5)
O10_10 O 0.38423(9) 0.82577(6) 0.6286(4)
O11_10 O 0.37811(8) 0.82111(5) 0.4226(4)
O12_6 O 0.58774(8) 0.95121(6) 0.3622(4)
O13_6 O 0.57161(8) 0.95046(6) 0.1705(4)
O16_10 O 0.32960(10) 0.84539(6) 0.9822(5)
O17_10 O 0.33525(9) 0.82836(6) 0.8214(5)
C1_10 C 0.40741(12) 0.93415(8) 0.4598(6)
C2_10 C 0.40751(13) 0.91607(7) 0.5305(7)
H5_10 H 0.4244 0.9148 0.5821
H6_10 H 0.3909 0.9149 0.5844
C3_10 C 0.43391(12) 0.93579(8) 0.3769(7)
H7_10 H 0.4347 0.9261 0.3159
H8_10 H 0.4337 0.9470 0.3308
C4_10 C 0.40715(13) 0.94866(7) 0.5630(6)
H9_10 H 0.3895 0.9484 0.6101
H10_10 H 0.4227 0.9470 0.6220
C5_10 C 0.38216(12) 0.93582(9) 0.3830(7)
H11_10 H 0.3822 0.9473 0.3412
H12_10 H 0.3823 0.9267 0.3177
C6_10 C 0.30769(12) 0.93054(8) 0.4728(6)
C7_10 C 0.31184(13) 0.91712(8) 0.5781(6)
H13_10 H 0.3286 0.9203 0.6269
H14_10 H 0.2956 0.9175 0.6348
C8_10 C 0.28166(12) 0.92589(10) 0.3910(7)
H15_10 H 0.2791 0.9348 0.3250
H16_10 H 0.2843 0.9144 0.3508
C9_10 C 0.30374(14) 0.94855(9) 0.5306(8)
H17_10 H 0.2883 0.9482 0.5914
H18_10 H 0.3208 0.9520 0.5755
C10_10 C 0.33251(12) 0.93013(10) 0.3813(8)
H19_10 H 0.3342 0.9185 0.3423
H20_10 H 0.3300 0.9389 0.3147
C11_10 C 0.40202(13) 0.88587(9) 0.4595(7)
C12_10 C 0.40220(15) 0.87896(9) 0.5763(7)
H21_10 H 0.4063 0.8862 0.6456
C13_10 C 0.39633(14) 0.86094(9) 0.5954(6)
H22_10 H 0.3957 0.8563 0.6773
C14_10 C 0.39164(12) 0.85028(8) 0.4945(6)
C15_10 C 0.39088(15) 0.85698(9) 0.3737(7)
H23_10 H 0.3869 0.8497 0.3043
C16_10 C 0.39616(16) 0.87489(9) 0.3585(7)
H24_10 H 0.3957 0.8797 0.2771
C17_10 C 0.38377(12) 0.83068(8) 0.5186(7)
C18_10 C 0.48407(13) 0.93820(9) 0.4103(7)
C19_10 C 0.50601(14) 0.94005(10) 0.4941(7)
H25_10 H 0.5023 0.9387 0.5804
C20_10 C 0.53245(13) 0.94371(8) 0.4576(6)
H26_10 H 0.5467 0.9455 0.5174
C21_10 C 0.53819(13) 0.94477(8) 0.3312(6)
C22_10 C 0.51659(14) 0.94249(10) 0.2445(7)
H27_10 H 0.5202 0.9432 0.1577
C23_10 C 0.48948(13) 0.93911(9) 0.2883(8)
H28_10 H 0.4748 0.9374 0.2303
C24_10 C 0.56788(13) 0.94902(7) 0.2840(6)
C25_10 C 0.41092(13) 0.98065(8) 0.5623(8)
C26_10 C 0.41563(15) 0.99552(8) 0.4911(7)
H29_10 H 0.4187 0.9946 0.4040
C29_10 C 0.40728(14) 0.99868(9) 0.7461(7)
H31_10 H 0.4043 0.9999 0.8331
C30_10 C 0.40663(15) 0.98186(8) 0.6919(7)
H32_10 H 0.4034 0.9718 0.7410
C32_10 C 0.31830(13) 0.88711(8) 0.6198(7)
C33_10 C 0.31996(15) 0.88929(9) 0.7448(7)
H33_10 H 0.3192 0.9008 0.7774
C34_10 C 0.32267(15) 0.87555(10) 0.8267(7)
H34_10 H 0.3222 0.8775 0.9139
C35_10 C 0.32620(11) 0.85853(8) 0.7798(7)
C36_10 C 0.32451(15) 0.85630(9) 0.6514(6)
H35_10 H 0.3262 0.8449 0.6169
C37_10 C 0.32035(16) 0.87055(10) 0.5729(7)
H36_10 H 0.3189 0.8687 0.4857
C38_10 C 0.33061(12) 0.84369(8) 0.8675(8)
C39_10 C 0.23183(13) 0.92550(9) 0.4085(7)
C40_10 C 0.20881(13) 0.92618(10) 0.4899(7)
H37_10 H 0.2115 0.9261 0.5774
C41_10 C 0.18257(13) 0.92689(9) 0.4415(7)
H38_10 H 0.1672 0.9273 0.4969
C42_10 C 0.17765(12) 0.92704(8) 0.3150(7)
C43_10 C 0.19997(15) 0.92554(10) 0.2351(7)
H39_10 H 0.1969 0.9251 0.1478
C44_10 C 0.22848(13) 0.92456(9) 0.2839(7)
H40_10 H 0.2440 0.9233 0.2297
C45_10 C 0.14881(12) 0.92943(8) 0.2574(7)
C46_10 C 0.30909(13) 0.97783(9) 0.4457(8)
C47_10 C 0.30191(16) 0.98834(10) 0.3422(9)
H41_10 H 0.2898 0.9842 0.2792
C51_10 C 0.32599(17) 0.98361(9) 0.5333(8)
H44_10 H 0.3305 0.9763 0.6020
O26_6 O 0.39635(9) 0.82006(6) 0.8942(5)
C39_11 C 0.01817(13) 0.17550(9) 0.6585(7)
C40_11 C 0.04119(13) 0.17618(10) 0.7399(7)
H37_11 H 0.0385 0.1761 0.8274
C41_11 C 0.06743(13) 0.17689(9) 0.6915(7)
H38_11 H 0.0828 0.1773 0.7469
C42_11 C 0.07235(12) 0.17704(8) 0.5650(7)
C43_11 C 0.05003(15) 0.17554(10) 0.4851(7)
H39_11 H 0.0531 0.1751 0.3978
C44_11 C 0.02152(13) 0.17456(9) 0.5339(7)
H40_11 H 0.0060 0.1733 0.4797
C45_11 C 0.10119(12) 0.17943(8) 0.5074(7)
C62_11 C 0.08239(16) 0.99231(10) 0.6212(7)
H52_11 H 0.0669 0.9853 0.5993
C64_11 C 0.12363(18) 0.99928(10) 0.6717(12)
H54_11 H 0.1427 0.9984 0.6930
N1_11 N 0.96093(10) 0.06451(7) 0.3164(5)
O4_11 O 0.91718(9) 0.07583(6) 0.4977(4)
H3_9 H 0.9163 0.0653 0.5494
H4_9 H 0.9347 0.0819 0.5135
O14_11 O 0.83536(10) 0.28325(6) 0.1010(5)
O16_11 O 0.92040(10) 0.09539(6) 0.2322(5)
O17_11 O 0.91475(9) 0.07836(6) 0.0714(5)
H31_11 H 0.8457 0.2499 0.0831
H33_11 H 0.9308 0.1508 0.0274
C34_11 C 0.92733(15) 0.12555(10) 0.0767(7)
H34_11 H 0.9278 0.1275 0.1639
C35_11 C 0.92380(11) 0.10853(8) 0.0298(7)
C38_11 C 0.91939(12) 0.09369(8) 0.1175(8)
C53_11 C 0.97535(16) 0.05078(10) 0.3612(9)
H45_11 H 0.9677 0.0395 0.3723
C54_11 C 0.98168(17) 0.07800(10) 0.3132(8)
H46_11 H 0.9779 0.0896 0.2881
H51_11 H 0.9964 0.0260 0.4995
O1_11 O 0.89227(8) 0.18416(6) 0.7060(4)
O2_11 O 0.86951(10) 0.04098(6) 0.5035(4)
H1_11 H 0.8858 0.0378 0.4536
H2_11 H 0.8553 0.0319 0.4957
O3_11 O 0.84292(11) 0.15324(6) 0.6797(5)
O5_11 O 0.79170(8) 0.18504(7) 0.7116(4)
O6_11 O 0.83986(10) 0.21507(5) 0.7451(5)
O7_11 O 0.93512(9) 0.15034(6) 0.7816(5)
O8_11 O 0.99238(8) 0.17545(7) 0.7207(4)
O9_11 O 0.95227(10) 0.21110(6) 0.6865(5)
O10_11 O 0.86577(9) 0.07577(6) 0.8786(4)
O11_11 O 0.87189(8) 0.07111(5) 0.6726(4)
C1_11 C 0.84259(12) 0.18415(8) 0.7098(6)
C2_11 C 0.84249(13) 0.16607(7) 0.7805(7)
H5_11 H 0.8256 0.1648 0.8321
H6_11 H 0.8591 0.1649 0.8344
C3_11 C 0.81609(12) 0.18579(8) 0.6269(7)
H7_11 H 0.8153 0.1761 0.5659
H8_11 H 0.8163 0.1970 0.5808
C4_11 C 0.84285(13) 0.19866(7) 0.8130(6)
H9_11 H 0.8605 0.1984 0.8601
H10_11 H 0.8273 0.1970 0.8720
C5_11 C 0.86784(12) 0.18582(9) 0.6330(7)
H11_11 H 0.8678 0.1973 0.5912
H12_11 H 0.8677 0.1767 0.5677
C6_11 C 0.94231(12) 0.18054(8) 0.7228(6)
C7_11 C 0.93816(13) 0.16712(8) 0.8281(6)
H13_11 H 0.9214 0.1703 0.8769
H14_11 H 0.9544 0.1675 0.8848
C8_11 C 0.96834(12) 0.17589(10) 0.6410(7)
H15_11 H 0.9709 0.1848 0.5750
H16_11 H 0.9657 0.1644 0.6008
C9_11 C 0.94626(14) 0.19855(9) 0.7806(8)
H17_11 H 0.9617 0.1982 0.8414
H18_11 H 0.9292 0.2020 0.8255
C10_11 C 0.91749(12) 0.18013(10) 0.6313(8)
H19_11 H 0.9158 0.1685 0.5923
H20_11 H 0.9200 0.1889 0.5647
C11_11 C 0.84798(13) 0.13587(9) 0.7095(7)
C12_11 C 0.84780(15) 0.12896(9) 0.8263(7)
H21_11 H 0.8437 0.1362 0.8956
C13_11 C 0.85367(14) 0.11094(9) 0.8454(6)
H22_11 H 0.8543 0.1063 0.9273
C14_11 C 0.85836(12) 0.10028(8) 0.7445(6)
C15_11 C 0.85912(15) 0.10698(9) 0.6237(7)
H23_11 H 0.8631 0.0997 0.5543
C16_11 C 0.85384(16) 0.12489(9) 0.6085(7)
H24_11 H 0.8543 0.1297 0.5271
C17_11 C 0.86623(12) 0.08068(8) 0.7686(7)
C18_11 C 0.76593(13) 0.18820(9) 0.6603(7)
C19_11 C 0.74399(14) 0.19005(10) 0.7441(7)
H25_11 H 0.7477 0.1887 0.8304
C20_11 C 0.71755(13) 0.19371(8) 0.7076(6)
H26_11 H 0.7033 0.1955 0.7674
C21_11 C 0.71181(13) 0.19477(8) 0.5812(6)
C22_11 C 0.73341(14) 0.19249(10) 0.4945(7)
H27_11 H 0.7298 0.1932 0.4077
C23_11 C 0.76052(13) 0.18911(9) 0.5383(8)
H28_11 H 0.7752 0.1874 0.4803
C24_11 C 0.68212(13) 0.19902(7) 0.5340(6)
C25_11 C 0.83908(13) 0.23065(8) 0.8123(8)
C26_11 C 0.83437(15) 0.24552(8) 0.7411(7)
H29_11 H 0.8313 0.2446 0.6540
C27_11 C 0.83417(14) 0.26223(8) 0.8000(7)
H30_11 H 0.8315 0.2725 0.7516
C28_11 C 0.83783(13) 0.26353(8) 0.9249(6)
C29_11 C 0.84272(14) 0.24868(9) 0.9961(7)
C30_11 C 0.84337(15) 0.23186(8) 0.9419(7)
H32_11 H 0.8466 0.2218 0.9910
C31_11 C 0.83852(12) 0.28136(8) 0.9863(6)
C32_11 C 0.93170(13) 0.13711(8) 0.8698(7)
C33_11 C 0.93004(15) 0.13929(9) 0.9948(7)
C36_11 C 0.92549(15) 0.10630(9) 0.9014(6)
H35_11 H 0.9238 0.0949 0.8669
C37_11 C 0.92965(16) 0.12055(10) 0.8229(7)
H36_11 H 0.9311 0.1187 0.7357
C46_11 C 0.94091(13) 0.22783(9) 0.6957(8)
C47_11 C 0.94809(16) 0.23834(10) 0.5922(9)
H41_11 H 0.9602 0.2342 0.5292
C48_11 C 0.93634(15) 0.25564(9) 0.5862(8)
H42_11 H 0.9416 0.2632 0.5203
C49_11 C 0.91755(14) 0.26140(9) 0.6746(7)
C50_11 C 0.91237(15) 0.25091(9) 0.7751(8)
H43_11 H 0.9009 0.2551 0.8405
C51_11 C 0.92401(17) 0.23361(9) 0.7833(8)
H44_11 H 0.9195 0.2263 0.8520
C52_11 C 0.90274(13) 0.27943(9) 0.6544(8)
N1_12 N 0.53907(10) 0.43549(7) 0.3164(5)
N2_10 N 0.49756(11) 0.44494(7) 0.3891(6)
N4_9 N 0.41711(11) 0.49050(7) 0.6056(5)
O4_12 O 0.58282(9) 0.42417(6) 0.4977(4)
H3_10 H 0.5837 0.4347 0.5494
H4_10 H 0.5653 0.4181 0.5135
O14_12 O 0.66464(10) 0.21675(6) 0.1010(5)
O16_12 O 0.57960(10) 0.40461(6) 0.2322(5)
O17_12 O 0.58525(9) 0.42164(6) 0.0714(5)
H31_12 H 0.6543 0.2501 0.0831
H33_12 H 0.5692 0.3492 0.0274
C34_12 C 0.57267(15) 0.37445(10) 0.0767(7)
H34_12 H 0.5722 0.3725 0.1639
C35_12 C 0.57620(11) 0.39147(8) 0.0298(7)
C38_12 C 0.58061(12) 0.40631(8) 0.1175(8)
C53_12 C 0.52465(16) 0.44922(10) 0.3612(9)
H45_12 H 0.5323 0.4605 0.3723
C54_12 C 0.51832(17) 0.42200(10) 0.3132(8)
H46_12 H 0.5221 0.4104 0.2881
C55_10 C 0.49345(17) 0.42739(10) 0.3487(9)
H47_10 H 0.4766 0.4210 0.3475
C56_10 C 0.47694(14) 0.45652(9) 0.4455(7)
C57_10 C 0.44991(17) 0.45143(10) 0.4457(9)
H48_10 H 0.4446 0.4406 0.4094
C58_9 C 0.4292(2) 0.46284(13) 0.5030(8)
H49_9 H 0.4102 0.4595 0.5041
C59_9 C 0.43726(16) 0.47853(10) 0.5557(7)
C60_9 C 0.4643(2) 0.48330(15) 0.5559(10)
H50_9 H 0.4702 0.4940 0.5916
C61_10 C 0.4844(2) 0.47106(15) 0.4981(9)
H51_12 H 0.5036 0.4740 0.4995
C62_12 C 0.41761(16) 0.50769(10) 0.6212(7)
H52_12 H 0.4331 0.5147 0.5993
C63_9 C 0.3900(2) 0.48557(14) 0.6371(9)
H53_9 H 0.3825 0.4741 0.6352
C64_12 C 0.37637(18) 0.50072(10) 0.6717(12)
H54_12 H 0.3573 0.5016 0.6930
O24_9 O 0.59047(8) 0.45451(5) 0.1666(4)
O27_9 O 0.64173(9) 0.46444(6) 0.0019(5)
O1_12 O 0.60773(8) 0.31584(6) 0.7060(4)
O2_12 O 0.63049(10) 0.45902(6) 0.5035(4)
H1_12 H 0.6142 0.4622 0.4536
H2_12 H 0.6447 0.4681 0.4957
O3_12 O 0.65708(11) 0.34676(6) 0.6797(5)
O5_12 O 0.70830(8) 0.31496(7) 0.7116(4)
O6_12 O 0.66014(10) 0.28493(5) 0.7451(5)
O7_12 O 0.56488(9) 0.34966(6) 0.7816(5)
O8_12 O 0.50762(8) 0.32455(7) 0.7207(4)
O9_12 O 0.54773(10) 0.28890(6) 0.6865(5)
O10_12 O 0.63423(9) 0.42423(6) 0.8786(4)
O11_12 O 0.62811(8) 0.42889(5) 0.6726(4)
O18_9 O 0.37836(9) 0.31957(6) 0.5881(4)
O19_9 O 0.39635(9) 0.32006(6) 0.3942(5)
C1_12 C 0.65741(12) 0.31585(8) 0.7098(6)
C2_12 C 0.65751(13) 0.33393(7) 0.7805(7)
H5_12 H 0.6744 0.3352 0.8321
H6_12 H 0.6409 0.3351 0.8344
C3_12 C 0.68391(12) 0.31421(8) 0.6269(7)
H7_12 H 0.6847 0.3239 0.5659
H8_12 H 0.6837 0.3030 0.5808
C4_12 C 0.65715(13) 0.30134(7) 0.8130(6)
H9_12 H 0.6395 0.3016 0.8601
H10_12 H 0.6727 0.3030 0.8720
C5_12 C 0.63216(12) 0.31418(9) 0.6330(7)
H11_12 H 0.6322 0.3027 0.5912
H12_12 H 0.6323 0.3233 0.5677
C6_12 C 0.55769(12) 0.31946(8) 0.7228(6)
C7_12 C 0.56184(13) 0.33288(8) 0.8281(6)
H13_12 H 0.5786 0.3297 0.8769
H14_12 H 0.5456 0.3325 0.8848
C8_12 C 0.53166(12) 0.32411(10) 0.6410(7)
H15_12 H 0.5291 0.3152 0.5750
H16_12 H 0.5343 0.3356 0.6008
C9_12 C 0.55374(14) 0.30145(9) 0.7806(8)
H17_12 H 0.5383 0.3018 0.8414
H18_12 H 0.5708 0.2980 0.8255
C10_12 C 0.58251(12) 0.31987(10) 0.6313(8)
H19_12 H 0.5842 0.3315 0.5923
H20_12 H 0.5800 0.3111 0.5647
C11_12 C 0.65202(13) 0.36413(9) 0.7095(7)
C12_12 C 0.65220(15) 0.37104(9) 0.8263(7)
H21_12 H 0.6563 0.3638 0.8956
C13_12 C 0.64633(14) 0.38906(9) 0.8454(6)
H22_12 H 0.6457 0.3937 0.9273
C14_12 C 0.64164(12) 0.39972(8) 0.7445(6)
C15_12 C 0.64088(15) 0.39302(9) 0.6237(7)
H23_12 H 0.6369 0.4003 0.5543
C16_12 C 0.64616(16) 0.37511(9) 0.6085(7)
H24_12 H 0.6457 0.3703 0.5271
C17_12 C 0.63377(12) 0.41932(8) 0.7686(7)
C18_12 C 0.73407(13) 0.31180(9) 0.6603(7)
C19_12 C 0.75601(14) 0.30995(10) 0.7441(7)
H25_12 H 0.7523 0.3113 0.8304
C20_12 C 0.78245(13) 0.30629(8) 0.7076(6)
H26_12 H 0.7967 0.3045 0.7674
C21_12 C 0.78819(13) 0.30523(8) 0.5812(6)
C22_12 C 0.76659(14) 0.30751(10) 0.4945(7)
H27_12 H 0.7702 0.3068 0.4077
C23_12 C 0.73948(13) 0.31089(9) 0.5383(8)
H28_12 H 0.7248 0.3126 0.4803
C24_12 C 0.81788(13) 0.30098(7) 0.5340(6)
C25_12 C 0.66092(13) 0.26935(8) 0.8123(8)
C26_12 C 0.66563(15) 0.25448(8) 0.7411(7)
H29_12 H 0.6687 0.2554 0.6540
C27_12 C 0.66583(14) 0.23777(8) 0.8000(7)
H30_12 H 0.6685 0.2275 0.7516
C28_12 C 0.66217(13) 0.23647(8) 0.9249(6)
C29_12 C 0.65728(14) 0.25132(9) 0.9961(7)
C30_12 C 0.65663(15) 0.26814(8) 0.9419(7)
H32_12 H 0.6534 0.2782 0.9910
C31_12 C 0.66148(12) 0.21864(8) 0.9863(6)
C32_12 C 0.56830(13) 0.36289(8) 0.8698(7)
C33_12 C 0.56996(15) 0.36071(9) 0.9948(7)
C36_12 C 0.57451(15) 0.39370(9) 0.9014(6)
H35_12 H 0.5762 0.4051 0.8669
C37_12 C 0.57035(16) 0.37945(10) 0.8229(7)
H36_12 H 0.5689 0.3813 0.7357
C39_12 C 0.48183(13) 0.32450(9) 0.6585(7)
C40_12 C 0.45881(13) 0.32382(10) 0.7399(7)
H37_12 H 0.4615 0.3239 0.8274
C41_12 C 0.43257(13) 0.32311(9) 0.6915(7)
H38_12 H 0.4172 0.3227 0.7469
C42_12 C 0.42765(12) 0.32296(8) 0.5650(7)
C43_12 C 0.44997(15) 0.32446(10) 0.4851(7)
H39_12 H 0.4469 0.3249 0.3978
C44_12 C 0.47848(13) 0.32544(9) 0.5339(7)
H40_12 H 0.4940 0.3267 0.4797
C45_12 C 0.39881(12) 0.32057(8) 0.5074(7)
C46_12 C 0.55909(13) 0.27217(9) 0.6957(8)
C47_12 C 0.55191(16) 0.26166(10) 0.5922(9)
H41_12 H 0.5398 0.2658 0.5292
C48_12 C 0.56366(15) 0.24436(9) 0.5862(8)
H42_12 H 0.5584 0.2368 0.5203
C49_12 C 0.58245(14) 0.23860(9) 0.6746(7)
C50_12 C 0.58763(15) 0.24909(9) 0.7751(8)
H43_12 H 0.5991 0.2449 0.8405
C51_12 C 0.57599(17) 0.26639(9) 0.7833(8)
H44_12 H 0.5805 0.2737 0.8520
C52_12 C 0.59726(13) 0.22057(9) 0.6544(8)
O22_9 O 0.58774(8) 0.45121(6) 0.8622(4)
O23_9 O 0.57161(8) 0.45046(6) 0.6705(4)
O28_9 O 0.65280(8) 0.46497(6) 0.7968(5)
N1_13 N 0.71093(10) 0.68549(7) 0.5664(5)
N2_11 N 0.75244(11) 0.69494(7) 0.6391(6)
N4_10 N 0.83289(11) 0.74050(7) 0.8556(5)
O4_13 O 0.66718(9) 0.67417(6) 0.7477(4)
H3_11 H 0.6663 0.6847 0.7994
H4_11 H 0.6847 0.6681 0.7635
O7_13 O 0.68512(9) 0.59966(6) 0.0316(5)
O10_13 O 0.61577(9) 0.67423(6) 0.1286(4)
O14_13 O 0.58536(10) 0.46675(6) 0.3510(5)
O16_13 O 0.67040(10) 0.65461(6) 0.4822(5)
O17_13 O 0.66475(9) 0.67164(6) 0.3214(5)
C2_13 C 0.59249(13) 0.58393(7) 0.0305(7)
H5_13 H 0.5756 0.5852 0.0821
H6_13 H 0.6091 0.5851 0.0844
C4_13 C 0.59285(13) 0.55134(7) 0.0630(6)
H9_13 H 0.6105 0.5516 0.1101
H10_13 H 0.5773 0.5530 0.1220
C7_13 C 0.68816(13) 0.58288(8) 0.0781(6)
H13_13 H 0.6714 0.5797 0.1269
H14_13 H 0.7044 0.5825 0.1348
C9_13 C 0.69626(14) 0.55145(9) 0.0306(8)
H17_13 H 0.7117 0.5518 0.0914
H18_13 H 0.6792 0.5480 0.0755
C12_13 C 0.59780(15) 0.62104(9) 0.0763(7)
H21_13 H 0.5937 0.6138 0.1456
C13_13 C 0.60367(14) 0.63906(9) 0.0954(6)
H22_13 H 0.6043 0.6437 0.1773
C17_13 C 0.61623(12) 0.66932(8) 0.0186(7)
H25_13 H 0.4977 0.5613 0.0804
H26_13 H 0.4533 0.5545 0.0174
C25_13 C 0.58908(13) 0.51935(8) 0.0623(8)
C27_13 C 0.58417(14) 0.48777(8) 0.0500(7)
H30_13 H 0.5815 0.4775 0.0016
C28_13 C 0.58783(13) 0.48647(8) 0.1749(6)
C29_13 C 0.59272(14) 0.50132(9) 0.2461(7)
H31_13 H 0.5957 0.5001 0.3331
C30_13 C 0.59337(15) 0.51814(8) 0.1919(7)
H32_13 H 0.5966 0.5282 0.2410
C31_13 C 0.58852(12) 0.46864(8) 0.2363(6)
C32_13 C 0.68170(13) 0.61289(8) 0.1198(7)
C33_13 C 0.68004(15) 0.61071(9) 0.2448(7)
H33_13 H 0.6808 0.5992 0.2774
C34_13 C 0.67733(15) 0.62445(10) 0.3267(7)
H34_13 H 0.6778 0.6225 0.4139
C35_13 C 0.67380(11) 0.64147(8) 0.2798(7)
C36_13 C 0.67549(15) 0.64370(9) 0.1514(6)
H35_13 H 0.6738 0.6551 0.1169
C37_13 C 0.67965(16) 0.62945(10) 0.0729(7)
C38_13 C 0.66939(12) 0.65631(8) 0.3675(8)
H37_13 H 0.7885 0.5739 0.0774
C50_13 C 0.66237(15) 0.49909(9) 0.0251(8)
H43_13 H 0.6509 0.4949 0.0905
C51_13 C 0.67401(17) 0.51639(9) 0.0333(8)
H44_13 H 0.6695 0.5237 0.1020
C53_13 C 0.72535(16) 0.69922(10) 0.6112(9)
H45_13 H 0.7177 0.7105 0.6223
C54_13 C 0.73168(17) 0.67200(10) 0.5632(8)
H46_13 H 0.7279 0.6604 0.5381
C55_11 C 0.75655(17) 0.67739(10) 0.5987(9)
H47_11 H 0.7734 0.6710 0.5975
C56_11 C 0.77306(14) 0.70652(9) 0.6955(7)
C57_11 C 0.80009(17) 0.70143(10) 0.6957(9)
H48_11 H 0.8054 0.6906 0.6594
C58_10 C 0.8208(2) 0.71284(13) 0.7530(8)
H49_10 H 0.8398 0.7095 0.7541
C59_10 C 0.81274(16) 0.72853(10) 0.8057(7)
C60_10 C 0.7857(2) 0.73330(15) 0.8059(10)
H50_10 H 0.7798 0.7440 0.8416
C61_11 C 0.7656(2) 0.72106(15) 0.7481(9)
H51_13 H 0.7464 0.7240 0.7495
C62_13 C 0.83239(16) 0.75769(10) 0.8712(7)
H52_13 H 0.8169 0.7647 0.8493
C63_10 C 0.8600(2) 0.73557(14) 0.8871(9)
H53_10 H 0.8675 0.7241 0.8852
C64_13 C 0.87363(18) 0.75072(10) 0.9217(12)
H54_13 H 0.8927 0.7516 0.9430
O22_10 O 0.66226(8) 0.70121(6) 0.1122(4)
O24_10 O 0.65953(8) 0.70451(5) 0.4166(4)
O27_10 O 0.60827(9) 0.71444(6) 0.2519(5)
O28_10 O 0.59720(8) 0.71497(6) 0.0468(5)
O1_13 O 0.64227(8) 0.56584(6) 0.9560(4)
O2_13 O 0.61951(10) 0.70902(6) 0.7535(4)
H1_13 H 0.6358 0.7122 0.7036
H2_13 H 0.6053 0.7181 0.7457
O3_13 O 0.59292(11) 0.59676(6) 0.9297(5)
O5_13 O 0.54170(8) 0.56496(7) 0.9616(4)
O6_13 O 0.58986(10) 0.53493(5) 0.9951(5)
O8_13 O 0.74238(8) 0.57455(7) 0.9707(4)
O9_13 O 0.70227(10) 0.53890(6) 0.9365(5)
O11_13 O 0.62189(8) 0.67889(5) 0.9226(4)
O18_10 O 0.87164(9) 0.56957(6) 0.8381(4)
O19_10 O 0.85365(9) 0.57006(6) 0.6442(5)
C1_13 C 0.59259(12) 0.56585(8) 0.9598(6)
C3_13 C 0.56609(12) 0.56421(8) 0.8769(7)
H7_13 H 0.5653 0.5739 0.8159
H8_13 H 0.5663 0.5530 0.8308
C5_13 C 0.61784(12) 0.56418(9) 0.8830(7)
H11_13 H 0.6178 0.5527 0.8412
H12_13 H 0.6177 0.5733 0.8177
C6_13 C 0.69231(12) 0.56946(8) 0.9728(6)
C8_13 C 0.71834(12) 0.57411(10) 0.8910(7)
H15_13 H 0.7209 0.5652 0.8250
H16_13 H 0.7157 0.5856 0.8508
C10_13 C 0.66749(12) 0.56987(10) 0.8813(8)
H19_13 H 0.6658 0.5815 0.8423
H20_13 H 0.6700 0.5611 0.8147
C11_13 C 0.59798(13) 0.61413(9) 0.9595(7)
C14_13 C 0.60836(12) 0.64972(8) 0.9945(6)
C15_13 C 0.60912(15) 0.64302(9) 0.8737(7)
H23_13 H 0.6131 0.6503 0.8043
C16_13 C 0.60384(16) 0.62511(9) 0.8585(7)
H24_13 H 0.6043 0.6203 0.7771
C18_13 C 0.51593(13) 0.56180(9) 0.9103(7)
C19_13 C 0.49399(14) 0.55995(10) 0.9941(7)
C20_13 C 0.46755(13) 0.55629(8) 0.9576(6)
C21_13 C 0.46181(13) 0.55523(8) 0.8312(6)
C22_13 C 0.48341(14) 0.55751(10) 0.7445(7)
H27_13 H 0.4798 0.5568 0.6577
C23_13 C 0.51052(13) 0.56089(9) 0.7883(8)
H28_13 H 0.5252 0.5626 0.7303
C24_13 C 0.43212(13) 0.55098(7) 0.7840(6)
C26_13 C 0.58437(15) 0.50448(8) 0.9911(7)
H29_13 H 0.5813 0.5054 0.9040
H36_13 H 0.6811 0.6313 0.9857
C39_13 C 0.76817(13) 0.57450(9) 0.9085(7)
C40_13 C 0.79119(13) 0.57382(10) 0.9899(7)
C41_13 C 0.81743(13) 0.57311(9) 0.9415(7)
H38_13 H 0.8328 0.5727 0.9969
C42_13 C 0.82235(12) 0.57296(8) 0.8150(7)
C43_13 C 0.80003(15) 0.57446(10) 0.7351(7)
H39_13 H 0.8031 0.5749 0.6478
C44_13 C 0.77152(13) 0.57544(9) 0.7839(7)
H40_13 H 0.7560 0.5767 0.7297
C45_13 C 0.85119(12) 0.57057(8) 0.7574(7)
C46_13 C 0.69091(13) 0.52217(9) 0.9457(8)
C47_13 C 0.69809(16) 0.51166(10) 0.8422(9)
H41_13 H 0.7102 0.5158 0.7792
C48_13 C 0.68634(15) 0.49436(9) 0.8362(8)
H42_13 H 0.6916 0.4868 0.7703
C49_13 C 0.66755(14) 0.48860(9) 0.9246(7)
C52_13 C 0.65274(13) 0.47057(9) 0.9044(8)
O23_10 O 0.67839(8) 0.70046(6) 0.9205(4)
N1_14 N 0.28907(10) 0.31451(7) 0.5664(5)
N2_12 N 0.24756(11) 0.30506(7) 0.6391(6)
N4_11 N 0.16711(11) 0.25950(7) 0.8556(5)
O4_14 O 0.33282(9) 0.32583(6) 0.7477(4)
H3_12 H 0.3337 0.3153 0.7994
H4_12 H 0.3153 0.3319 0.7635
O7_14 O 0.31488(9) 0.40034(6) 0.0316(5)
O10_14 O 0.38423(9) 0.32577(6) 0.1286(4)
O14_14 O 0.41464(10) 0.53325(6) 0.3510(5)
O16_14 O 0.32960(10) 0.34539(6) 0.4822(5)
O17_14 O 0.33525(9) 0.32836(6) 0.3214(5)
C2_14 C 0.40751(13) 0.41607(7) 0.0305(7)
H5_14 H 0.4244 0.4148 0.0821
H6_14 H 0.3909 0.4149 0.0844
C4_14 C 0.40715(13) 0.44866(7) 0.0630(6)
H9_14 H 0.3895 0.4484 0.1101
H10_14 H 0.4227 0.4470 0.1220
C7_14 C 0.31184(13) 0.41712(8) 0.0781(6)
H13_14 H 0.3286 0.4203 0.1269
H14_14 H 0.2956 0.4175 0.1348
C9_14 C 0.30374(14) 0.44855(9) 0.0306(8)
H17_14 H 0.2883 0.4482 0.0914
H18_14 H 0.3208 0.4520 0.0755
C12_14 C 0.40220(15) 0.37896(9) 0.0763(7)
H21_14 H 0.4063 0.3862 0.1456
C13_14 C 0.39633(14) 0.36094(9) 0.0954(6)
H22_14 H 0.3957 0.3563 0.1773
C17_14 C 0.38377(12) 0.33068(8) 0.0186(7)
H25_14 H 0.5023 0.4387 0.0804
H26_14 H 0.5467 0.4455 0.0174
C25_14 C 0.41092(13) 0.48065(8) 0.0623(8)
C27_14 C 0.41583(14) 0.51223(8) 0.0500(7)
H30_14 H 0.4185 0.5225 0.0016
C28_14 C 0.41217(13) 0.51353(8) 0.1749(6)
C29_14 C 0.40728(14) 0.49868(9) 0.2461(7)
H31_14 H 0.4043 0.4999 0.3331
C30_14 C 0.40663(15) 0.48186(8) 0.1919(7)
H32_14 H 0.4034 0.4718 0.2410
C31_14 C 0.41148(12) 0.53136(8) 0.2363(6)
C32_14 C 0.31830(13) 0.38711(8) 0.1198(7)
C33_14 C 0.31996(15) 0.38929(9) 0.2448(7)
H33_14 H 0.3192 0.4008 0.2774
C34_14 C 0.32267(15) 0.37555(10) 0.3267(7)
H34_14 H 0.3222 0.3775 0.4139
C35_14 C 0.32620(11) 0.35853(8) 0.2798(7)
C36_14 C 0.32451(15) 0.35630(9) 0.1514(6)
H35_14 H 0.3262 0.3449 0.1169
C37_14 C 0.32035(16) 0.37055(10) 0.0729(7)
C38_14 C 0.33061(12) 0.34369(8) 0.3675(8)
H37_14 H 0.2115 0.4261 0.0774
C50_14 C 0.33763(15) 0.50091(9) 0.0251(8)
H43_14 H 0.3491 0.5051 0.0905
C51_14 C 0.32599(17) 0.48361(9) 0.0333(8)
H44_14 H 0.3305 0.4763 0.1020
C53_14 C 0.27465(16) 0.30078(10) 0.6112(9)
H45_14 H 0.2823 0.2895 0.6223
C54_14 C 0.26832(17) 0.32800(10) 0.5632(8)
H46_14 H 0.2721 0.3396 0.5381
C55_12 C 0.24345(17) 0.32261(10) 0.5987(9)
H47_12 H 0.2266 0.3290 0.5975
C56_12 C 0.22694(14) 0.29348(9) 0.6955(7)
C57_12 C 0.19991(17) 0.29857(10) 0.6957(9)
H48_12 H 0.1946 0.3094 0.6594
C58_11 C 0.1792(2) 0.28716(13) 0.7530(8)
H49_11 H 0.1602 0.2905 0.7541
C59_11 C 0.18726(16) 0.27147(10) 0.8057(7)
C60_11 C 0.2143(2) 0.26670(15) 0.8059(10)
H50_11 H 0.2202 0.2560 0.8416
C61_12 C 0.2344(2) 0.27894(15) 0.7481(9)
H51_14 H 0.2536 0.2760 0.7495
C62_14 C 0.16761(16) 0.24231(10) 0.8712(7)
H52_14 H 0.1831 0.2353 0.8493
C63_11 C 0.1400(2) 0.26443(14) 0.8871(9)
H53_11 H 0.1325 0.2759 0.8852
C64_14 C 0.12637(18) 0.24928(10) 0.9217(12)
H54_14 H 0.1073 0.2484 0.9430
O1_14 O 0.35773(8) 0.43416(6) 0.9560(4)
O2_14 O 0.38049(10) 0.29098(6) 0.7535(4)
H1_14 H 0.3642 0.2878 0.7036
H2_14 H 0.3947 0.2819 0.7457
O3_14 O 0.40708(11) 0.40324(6) 0.9297(5)
O5_14 O 0.45830(8) 0.43504(7) 0.9616(4)
O6_14 O 0.41014(10) 0.46507(5) 0.9951(5)
O8_14 O 0.25762(8) 0.42545(7) 0.9707(4)
O9_14 O 0.29773(10) 0.46110(6) 0.9365(5)
O11_14 O 0.37811(8) 0.32111(5) 0.9226(4)
C1_14 C 0.40741(12) 0.43415(8) 0.9598(6)
C3_14 C 0.43391(12) 0.43579(8) 0.8769(7)
H7_14 H 0.4347 0.4261 0.8159
H8_14 H 0.4337 0.4470 0.8308
C5_14 C 0.38216(12) 0.43582(9) 0.8830(7)
H11_14 H 0.3822 0.4473 0.8412
H12_14 H 0.3823 0.4267 0.8177
C6_14 C 0.30769(12) 0.43054(8) 0.9728(6)
C8_14 C 0.28166(12) 0.42589(10) 0.8910(7)
H15_14 H 0.2791 0.4348 0.8250
H16_14 H 0.2843 0.4144 0.8508
C10_14 C 0.33251(12) 0.43013(10) 0.8813(8)
H19_14 H 0.3342 0.4185 0.8423
H20_14 H 0.3300 0.4389 0.8147
C11_14 C 0.40202(13) 0.38587(9) 0.9595(7)
C14_14 C 0.39164(12) 0.35028(8) 0.9945(6)
C15_14 C 0.39088(15) 0.35698(9) 0.8737(7)
H23_14 H 0.3869 0.3497 0.8043
C16_14 C 0.39616(16) 0.37489(9) 0.8585(7)
H24_14 H 0.3957 0.3797 0.7771
C18_14 C 0.48407(13) 0.43820(9) 0.9103(7)
C19_14 C 0.50601(14) 0.44005(10) 0.9941(7)
C20_14 C 0.53245(13) 0.44371(8) 0.9576(6)
C21_14 C 0.53819(13) 0.44477(8) 0.8312(6)
C22_14 C 0.51659(14) 0.44249(10) 0.7445(7)
H27_14 H 0.5202 0.4432 0.6577
C23_14 C 0.48948(13) 0.43911(9) 0.7883(8)
H28_14 H 0.4748 0.4374 0.7303
C24_14 C 0.56788(13) 0.44902(7) 0.7840(6)
C26_14 C 0.41563(15) 0.49552(8) 0.9911(7)
H29_14 H 0.4187 0.4946 0.9040
H36_14 H 0.3189 0.3687 0.9857
C39_14 C 0.23183(13) 0.42550(9) 0.9085(7)
C40_14 C 0.20881(13) 0.42618(10) 0.9899(7)
C41_14 C 0.18257(13) 0.42689(9) 0.9415(7)
H38_14 H 0.1672 0.4273 0.9969
C42_14 C 0.17765(12) 0.42704(8) 0.8150(7)
C43_14 C 0.19997(15) 0.42554(10) 0.7351(7)
H39_14 H 0.1969 0.4251 0.6478
C44_14 C 0.22848(13) 0.42456(9) 0.7839(7)
H40_14 H 0.2440 0.4233 0.7297
C45_14 C 0.14881(12) 0.42943(8) 0.7574(7)
C46_14 C 0.30909(13) 0.47783(9) 0.9457(8)
C47_14 C 0.30191(16) 0.48834(10) 0.8422(9)
H41_14 H 0.2898 0.4842 0.7792
C48_14 C 0.31366(15) 0.50564(9) 0.8362(8)
H42_14 H 0.3084 0.5132 0.7703
C49_14 C 0.33245(14) 0.51140(9) 0.9246(7)
C52_14 C 0.34726(13) 0.52943(9) 0.9044(8)
N4_12 N 0.08289(11) 0.50950(7) 0.1056(5)
C58_12 C 0.0708(2) 0.53716(13) 0.0030(8)
H49_12 H 0.0898 0.5405 0.0041
C59_12 C 0.06274(16) 0.52147(10) 0.0557(7)
C60_12 C 0.0357(2) 0.51670(15) 0.0559(10)
H50_12 H 0.0298 0.5060 0.0916
C62_15 C 0.08239(16) 0.49231(10) 0.1212(7)
H52_15 H 0.0669 0.4853 0.0993
C63_12 C 0.1100(2) 0.51443(14) 0.1371(9)
H53_12 H 0.1175 0.5259 0.1352
C64_15 C 0.12363(18) 0.49928(10) 0.1717(12)
H54_15 H 0.1427 0.4984 0.1930
N2_13 N 0.00244(11) 0.55506(7) 0.8891(6)
C39_15 C 0.01817(13) 0.67550(9) 0.1585(7)
C40_15 C 0.04119(13) 0.67618(10) 0.2399(7)
H37_15 H 0.0385 0.6761 0.3274
C41_15 C 0.06743(13) 0.67689(9) 0.1915(7)
H38_15 H 0.0828 0.6773 0.2469
C42_15 C 0.07235(12) 0.67704(8) 0.0650(7)
C44_15 C 0.02152(13) 0.67456(9) 0.0339(7)
C45_15 C 0.10119(12) 0.67943(8) 0.0074(7)
C55_13 C 0.00655(17) 0.57261(10) 0.8487(9)
H47_13 H 0.0234 0.5790 0.8475
C56_13 C 0.02306(14) 0.54348(9) 0.9455(7)
C57_13 C 0.05009(17) 0.54857(10) 0.9457(9)
H48_13 H 0.0554 0.5594 0.9094
C61_13 C 0.0156(2) 0.52894(15) 0.9981(9)
C43_15 C 0.05003(15) 0.67554(10) 0.9851(7)
H39_15 H 0.0531 0.6751 0.8978
H40_15 H 0.0060 0.6733 0.9797
N1_15 N 0.96093(10) 0.56451(7) 0.8164(5)
O1_15 O 0.89227(8) 0.68416(6) 0.2060(4)
O2_15 O 0.86951(10) 0.54098(6) 0.0035(4)
O3_15 O 0.84292(11) 0.65324(6) 0.1797(5)
O4_15 O 0.91718(9) 0.57583(6) 0.9977(4)
O5_15 O 0.79170(8) 0.68504(7) 0.2116(4)
O6_15 O 0.83986(10) 0.71507(5) 0.2451(5)
O7_15 O 0.93512(9) 0.65034(6) 0.2816(5)
O8_15 O 0.99238(8) 0.67545(7) 0.2207(4)
O9_15 O 0.95227(10) 0.71110(6) 0.1865(5)
O10_15 O 0.86577(9) 0.57577(6) 0.3786(4)
O11_15 O 0.87189(8) 0.57111(5) 0.1726(4)
O14_15 O 0.83536(10) 0.78325(6) 0.6010(5)
O16_15 O 0.92040(10) 0.59539(6) 0.7322(5)
O17_15 O 0.91475(9) 0.57836(6) 0.5714(5)
C1_15 C 0.84259(12) 0.68415(8) 0.2098(6)
C2_15 C 0.84249(13) 0.66607(7) 0.2805(7)
H5_15 H 0.8256 0.6648 0.3321
H6_15 H 0.8591 0.6649 0.3344
C3_15 C 0.81609(12) 0.68579(8) 0.1269(7)
H7_15 H 0.8153 0.6761 0.0659
H8_15 H 0.8163 0.6970 0.0808
C4_15 C 0.84285(13) 0.69866(7) 0.3130(6)
H9_15 H 0.8605 0.6984 0.3601
H10_15 H 0.8273 0.6970 0.3720
C5_15 C 0.86784(12) 0.68582(9) 0.1330(7)
H11_15 H 0.8678 0.6973 0.0912
H12_15 H 0.8677 0.6767 0.0677
C6_15 C 0.94231(12) 0.68054(8) 0.2228(6)
C7_15 C 0.93816(13) 0.66712(8) 0.3281(6)
H13_15 H 0.9214 0.6703 0.3769
H14_15 H 0.9544 0.6675 0.3848
C8_15 C 0.96834(12) 0.67589(10) 0.1410(7)
H15_15 H 0.9709 0.6848 0.0750
H16_15 H 0.9657 0.6644 0.1008
C9_15 C 0.94626(14) 0.69855(9) 0.2806(8)
H17_15 H 0.9617 0.6982 0.3414
H18_15 H 0.9292 0.7020 0.3255
C10_15 C 0.91749(12) 0.68013(10) 0.1313(8)
H19_15 H 0.9158 0.6685 0.0923
H20_15 H 0.9200 0.6889 0.0647
C11_15 C 0.84798(13) 0.63587(9) 0.2095(7)
C12_15 C 0.84780(15) 0.62896(9) 0.3263(7)
H21_15 H 0.8437 0.6362 0.3956
C13_15 C 0.85367(14) 0.61094(9) 0.3454(6)
H22_15 H 0.8543 0.6063 0.4273
C14_15 C 0.85836(12) 0.60028(8) 0.2445(6)
C15_15 C 0.85912(15) 0.60698(9) 0.1237(7)
H23_15 H 0.8631 0.5997 0.0543
C16_15 C 0.85384(16) 0.62489(9) 0.1085(7)
H24_15 H 0.8543 0.6297 0.0271
C17_15 C 0.86623(12) 0.58068(8) 0.2686(7)
C18_15 C 0.76593(13) 0.68820(9) 0.1603(7)
C19_15 C 0.74399(14) 0.69005(10) 0.2441(7)
H25_15 H 0.7477 0.6887 0.3304
C20_15 C 0.71755(13) 0.69371(8) 0.2076(6)
H26_15 H 0.7033 0.6955 0.2674
C21_15 C 0.71181(13) 0.69477(8) 0.0812(6)
C23_15 C 0.76052(13) 0.68911(9) 0.0383(8)
C24_15 C 0.68212(13) 0.69902(7) 0.0340(6)
C25_15 C 0.83908(13) 0.73065(8) 0.3123(8)
C26_15 C 0.83437(15) 0.74552(8) 0.2411(7)
H29_15 H 0.8313 0.7446 0.1540
C27_15 C 0.83417(14) 0.76223(8) 0.3000(7)
H30_15 H 0.8315 0.7725 0.2516
C28_15 C 0.83783(13) 0.76353(8) 0.4249(6)
C29_15 C 0.84272(14) 0.74868(9) 0.4961(7)
H31_15 H 0.8457 0.7499 0.5831
C30_15 C 0.84337(15) 0.73186(8) 0.4419(7)
H32_15 H 0.8466 0.7218 0.4910
C31_15 C 0.83852(12) 0.78136(8) 0.4863(6)
C32_15 C 0.93170(13) 0.63711(8) 0.3698(7)
C33_15 C 0.93004(15) 0.63929(9) 0.4948(7)
H33_15 H 0.9308 0.6508 0.5274
C34_15 C 0.92733(15) 0.62555(10) 0.5767(7)
H34_15 H 0.9278 0.6275 0.6639
C35_15 C 0.92380(11) 0.60853(8) 0.5298(7)
C36_15 C 0.92549(15) 0.60630(9) 0.4014(6)
H35_15 H 0.9238 0.5949 0.3669
C37_15 C 0.92965(16) 0.62055(10) 0.3229(7)
H36_15 H 0.9311 0.6187 0.2357
C38_15 C 0.91939(12) 0.59369(8) 0.6175(8)
C46_15 C 0.94091(13) 0.72783(9) 0.1957(8)
C47_15 C 0.94809(16) 0.73834(10) 0.0922(9)
H41_15 H 0.9602 0.7342 0.0292
C48_15 C 0.93634(15) 0.75564(9) 0.0862(8)
H42_15 H 0.9416 0.7632 0.0203
C49_15 C 0.91755(14) 0.76140(9) 0.1746(7)
C50_15 C 0.91237(15) 0.75091(9) 0.2751(8)
H43_15 H 0.9009 0.7551 0.3405
C51_15 C 0.92401(17) 0.73361(9) 0.2833(8)
H44_15 H 0.9195 0.7263 0.3520
C52_15 C 0.90274(13) 0.77943(9) 0.1544(8)
C53_15 C 0.97535(16) 0.55078(10) 0.8612(9)
H45_15 H 0.9677 0.5395 0.8723
C54_15 C 0.98168(17) 0.57800(10) 0.8132(8)
H46_15 H 0.9779 0.5896 0.7881
H51_15 H 0.9964 0.5260 0.9995
H1_15 H 0.8858 0.5378 0.9536
H2_15 H 0.8553 0.5319 0.9957
C22_15 C 0.73341(14) 0.69249(10) 0.9945(7)
H27_15 H 0.7298 0.6932 0.9077
H28_15 H 0.7752 0.6874 0.9803
C62_16 C 0.41761(16) 0.00769(10) 0.1212(7)
H52_16 H 0.4331 0.0147 0.0993
C64_16 C 0.37637(18) 0.00072(10) 0.1717(12)
H54_16 H 0.3573 0.0016 0.1930
N1_16 N 0.53907(10) 0.93549(7) 0.8164(5)
N2_14 N 0.49756(11) 0.94494(7) 0.8891(6)
O1_16 O 0.60773(8) 0.81584(6) 0.2060(4)
O2_16 O 0.63049(10) 0.95902(6) 0.0035(4)
O3_16 O 0.65708(11) 0.84676(6) 0.1797(5)
O4_16 O 0.58282(9) 0.92417(6) 0.9977(4)
O5_16 O 0.70830(8) 0.81496(7) 0.2116(4)
O6_16 O 0.66014(10) 0.78493(5) 0.2451(5)
O7_16 O 0.56488(9) 0.84966(6) 0.2816(5)
O8_16 O 0.50762(8) 0.82455(7) 0.2207(4)
O9_16 O 0.54773(10) 0.78890(6) 0.1865(5)
O10_16 O 0.63423(9) 0.92423(6) 0.3786(4)
O11_16 O 0.62811(8) 0.92889(5) 0.1726(4)
O14_16 O 0.66464(10) 0.71675(6) 0.6010(5)
O16_16 O 0.57960(10) 0.90461(6) 0.7322(5)
O17_16 O 0.58525(9) 0.92164(6) 0.5714(5)
C1_16 C 0.65741(12) 0.81585(8) 0.2098(6)
C2_16 C 0.65751(13) 0.83393(7) 0.2805(7)
H5_16 H 0.6744 0.8352 0.3321
H6_16 H 0.6409 0.8351 0.3344
C3_16 C 0.68391(12) 0.81421(8) 0.1269(7)
H7_16 H 0.6847 0.8239 0.0659
H8_16 H 0.6837 0.8030 0.0808
C4_16 C 0.65715(13) 0.80134(7) 0.3130(6)
H9_16 H 0.6395 0.8016 0.3601
H10_16 H 0.6727 0.8030 0.3720
C5_16 C 0.63216(12) 0.81418(9) 0.1330(7)
H11_16 H 0.6322 0.8027 0.0912
H12_16 H 0.6323 0.8233 0.0677
C6_16 C 0.55769(12) 0.81946(8) 0.2228(6)
C7_16 C 0.56184(13) 0.83288(8) 0.3281(6)
H13_16 H 0.5786 0.8297 0.3769
H14_16 H 0.5456 0.8325 0.3848
C8_16 C 0.53166(12) 0.82411(10) 0.1410(7)
H15_16 H 0.5291 0.8152 0.0750
H16_16 H 0.5343 0.8356 0.1008
C9_16 C 0.55374(14) 0.80145(9) 0.2806(8)
H17_16 H 0.5383 0.8018 0.3414
H18_16 H 0.5708 0.7980 0.3255
C10_16 C 0.58251(12) 0.81987(10) 0.1313(8)
H19_16 H 0.5842 0.8315 0.0923
H20_16 H 0.5800 0.8111 0.0647
C11_16 C 0.65202(13) 0.86413(9) 0.2095(7)
C12_16 C 0.65220(15) 0.87104(9) 0.3263(7)
H21_16 H 0.6563 0.8638 0.3956
C13_16 C 0.64633(14) 0.88906(9) 0.3454(6)
H22_16 H 0.6457 0.8937 0.4273
C14_16 C 0.64164(12) 0.89972(8) 0.2445(6)
C15_16 C 0.64088(15) 0.89302(9) 0.1237(7)
H23_16 H 0.6369 0.9003 0.0543
C16_16 C 0.64616(16) 0.87511(9) 0.1085(7)
H24_16 H 0.6457 0.8703 0.0271
C17_16 C 0.63377(12) 0.91932(8) 0.2686(7)
C18_16 C 0.73407(13) 0.81180(9) 0.1603(7)
C19_16 C 0.75601(14) 0.80995(10) 0.2441(7)
H25_16 H 0.7523 0.8113 0.3304
C20_16 C 0.78245(13) 0.80629(8) 0.2076(6)
H26_16 H 0.7967 0.8045 0.2674
C21_16 C 0.78819(13) 0.80523(8) 0.0812(6)
C23_16 C 0.73948(13) 0.81089(9) 0.0383(8)
C24_16 C 0.81788(13) 0.80098(7) 0.0340(6)
C25_16 C 0.66092(13) 0.76935(8) 0.3123(8)
C26_16 C 0.66563(15) 0.75448(8) 0.2411(7)
H29_16 H 0.6687 0.7554 0.1540
C27_16 C 0.66583(14) 0.73777(8) 0.3000(7)
H30_16 H 0.6685 0.7275 0.2516
C28_16 C 0.66217(13) 0.73647(8) 0.4249(6)
C29_16 C 0.65728(14) 0.75132(9) 0.4961(7)
H31_16 H 0.6543 0.7501 0.5831
C30_16 C 0.65663(15) 0.76814(8) 0.4419(7)
H32_16 H 0.6534 0.7782 0.4910
C31_16 C 0.66148(12) 0.71864(8) 0.4863(6)
C32_16 C 0.56830(13) 0.86289(8) 0.3698(7)
C33_16 C 0.56996(15) 0.86071(9) 0.4948(7)
H33_16 H 0.5692 0.8492 0.5274
C34_16 C 0.57267(15) 0.87445(10) 0.5767(7)
H34_16 H 0.5722 0.8725 0.6639
C35_16 C 0.57620(11) 0.89147(8) 0.5298(7)
C36_16 C 0.57451(15) 0.89370(9) 0.4014(6)
H35_16 H 0.5762 0.9051 0.3669
C37_16 C 0.57035(16) 0.87945(10) 0.3229(7)
H36_16 H 0.5689 0.8813 0.2357
C38_16 C 0.58061(12) 0.90631(8) 0.6175(8)
C39_16 C 0.48183(13) 0.82450(9) 0.1585(7)
C40_16 C 0.45881(13) 0.82382(10) 0.2399(7)
H37_16 H 0.4615 0.8239 0.3274
C41_16 C 0.43257(13) 0.82311(9) 0.1915(7)
H38_16 H 0.4172 0.8227 0.2469
C42_16 C 0.42765(12) 0.82296(8) 0.0650(7)
C44_16 C 0.47848(13) 0.82544(9) 0.0339(7)
C45_16 C 0.39881(12) 0.82057(8) 0.0074(7)
C46_16 C 0.55909(13) 0.77217(9) 0.1957(8)
C47_16 C 0.55191(16) 0.76166(10) 0.0922(9)
H41_16 H 0.5398 0.7658 0.0292
C48_16 C 0.56366(15) 0.74436(9) 0.0862(8)
H42_16 H 0.5584 0.7368 0.0203
C49_16 C 0.58245(14) 0.73860(9) 0.1746(7)
C50_16 C 0.58763(15) 0.74909(9) 0.2751(8)
H43_16 H 0.5991 0.7449 0.3405
C51_16 C 0.57599(17) 0.76639(9) 0.2833(8)
H44_16 H 0.5805 0.7737 0.3520
C52_16 C 0.59726(13) 0.72057(9) 0.1544(8)
C53_16 C 0.52465(16) 0.94922(10) 0.8612(9)
H45_16 H 0.5323 0.9605 0.8723
C54_16 C 0.51832(17) 0.92200(10) 0.8132(8)
H46_16 H 0.5221 0.9104 0.7881
C55_14 C 0.49345(17) 0.92739(10) 0.8487(9)
H47_14 H 0.4766 0.9210 0.8475
C56_14 C 0.47694(14) 0.95652(9) 0.9455(7)
C57_14 C 0.44991(17) 0.95143(10) 0.9457(9)
H48_14 H 0.4446 0.9406 0.9094
C61_14 C 0.4844(2) 0.97106(15) 0.9981(9)
H51_16 H 0.5036 0.9740 0.9995
H1_16 H 0.6142 0.9622 0.9536
H2_16 H 0.6447 0.9681 0.9957
C22_16 C 0.76659(14) 0.80751(10) 0.9945(7)
H27_16 H 0.7702 0.8068 0.9077
H28_16 H 0.7248 0.8126 0.9803
C43_16 C 0.44997(15) 0.82446(10) 0.9851(7)
H39_16 H 0.4469 0.8249 0.8978
H40_16 H 0.4940 0.8267 0.9797
N4_13 N 0.58289(11) 0.00950(7) 0.1056(5)
H3_13 H 0.4163 0.0653 0.0494
H4_13 H 0.4347 0.0819 0.0135
C58_13 C 0.5708(2) 0.03716(13) 0.0030(8)
H49_13 H 0.5898 0.0405 0.0041
C59_13 C 0.56274(16) 0.02147(10) 0.0557(7)
C60_13 C 0.5357(2) 0.01670(15) 0.0559(10)
H50_13 H 0.5298 0.0060 0.0916
C63_13 C 0.6100(2) 0.01443(14) 0.1371(9)
H53_13 H 0.6175 0.0259 0.1352
H3_14 H 0.0837 0.4347 0.0494
H4_14 H 0.0653 0.4181 0.0135
N2_15 N 0.99756(11) 0.94494(7) 0.3891(6)
N4_14 N 0.91711(11) 0.99050(7) 0.6056(5)
C55_15 C 0.99345(17) 0.92739(10) 0.3487(9)
H47_15 H 0.9766 0.9210 0.3475
C56_15 C 0.97694(14) 0.95652(9) 0.4455(7)
C57_15 C 0.94991(17) 0.95143(10) 0.4457(9)
H48_15 H 0.9446 0.9406 0.4094
C58_14 C 0.9292(2) 0.96284(13) 0.5030(8)
H49_14 H 0.9102 0.9595 0.5041
C59_14 C 0.93726(16) 0.97853(10) 0.5557(7)
C60_14 C 0.9643(2) 0.98330(15) 0.5559(10)
H50_14 H 0.9702 0.9940 0.5916
C61_15 C 0.9844(2) 0.97106(15) 0.4981(9)
C63_14 C 0.8900(2) 0.98557(14) 0.6371(9)
H53_14 H 0.8825 0.9741 0.6352
N2_16 N 0.00244(11) 0.05506(7) 0.3891(6)
N4_15 N 0.08289(11) 0.00950(7) 0.6056(5)
C55_16 C 0.00655(17) 0.07261(10) 0.3487(9)
H47_16 H 0.0234 0.0790 0.3475
C56_16 C 0.02306(14) 0.04348(9) 0.4455(7)
C57_16 C 0.05009(17) 0.04857(10) 0.4457(9)
H48_16 H 0.0554 0.0594 0.4094
C58_15 C 0.0708(2) 0.03716(13) 0.5030(8)
H49_15 H 0.0898 0.0405 0.5041
C59_15 C 0.06274(16) 0.02147(10) 0.5557(7)
C60_15 C 0.0357(2) 0.01670(15) 0.5559(10)
H50_15 H 0.0298 0.0060 0.5916
C61_16 C 0.0156(2) 0.02894(15) 0.4981(9)
C63_15 C 0.1100(2) 0.01443(14) 0.6371(9)
H53_15 H 0.1175 0.0259 0.6352
H3_15 H 0.9163 0.5653 0.0494
H4_15 H 0.9347 0.5819 0.0135
N4_16 N 0.41711(11) 0.99050(7) 0.1056(5)
H3_16 H 0.5837 0.9347 0.0494
H4_16 H 0.5653 0.9181 0.0135
C58_16 C 0.4292(2) 0.96284(13) 0.0030(8)
H49_16 H 0.4102 0.9595 0.0041
C59_16 C 0.43726(16) 0.97853(10) 0.0557(7)
C60_16 C 0.4643(2) 0.98330(15) 0.0559(10)
H50_16 H 0.4702 0.9940 0.0916
C63_16 C 0.3900(2) 0.98557(14) 0.1371(9)
H53_16 H 0.3825 0.9741 0.1352
loop_
_geom_bond_atom_site_label_1
_geom_bond_atom_site_label_2
_geom_bond_site_symmetry_1
_geom_bond_site_symmetry_2
Mn2 O10 1_555 1_555
Mn3 N1 1_555 1_555
N1 C53 1_555 1_555
N2 C53 1_555 1_555
N3 C62 1_555 1_555
N4 C59 1_555 1_555
O4 Mn3 1_555 1_555
H3 O4 1_555 1_555
H4 O4 1_555 1_555
O7 C7 1_555 1_555
O10 C17 1_555 1_555
O16 Mn3 1_555 1_555
O17 Mn2 1_555 1_555
C2 H5 1_555 1_555
H6 C2 1_555 1_555
H9 C4 1_555 1_555
H10 C4 1_555 1_555
C7 H13 1_555 1_555
H14 C7 1_555 1_555
H17 C9 1_555 1_555
H18 C9 1_555 1_555
H21 C12 1_555 1_555
C13 C12 1_555 1_555
H22 C13 1_555 1_555
H31 C29 1_555 1_555
C30 C25 1_555 1_555
H32 C30 1_555 1_555
C32 O7 1_555 1_555
C33 C32 1_555 1_555
H33 C33 1_555 1_555
C34 C33 1_555 1_555
H34 C34 1_555 1_555
C35 C34 1_555 1_555
C36 C35 1_555 1_555
H35 C36 1_555 1_555
C37 C32 1_555 1_555
C38 O16 1_555 1_555
H44 C51 1_555 1_555
C53 H45 1_555 1_555
C54 N1 1_555 1_555
H46 C54 1_555 1_555
C55 N2 1_555 1_555
H47 C55 1_555 1_555
C56 N2 1_555 1_555
C57 C56 1_555 1_555
H48 C57 1_555 1_555
C58 C57 1_555 1_555
H49 C58 1_555 1_555
C59 C58 1_555 1_555
C60 C59 1_555 1_555
H50 C60 1_555 1_555
C61 C56 1_555 1_555
H51 C61 1_555 1_555
C62 N4 1_555 1_555
H52 C62 1_555 1_555
C63 N4 1_555 1_555
H53 C63 1_555 1_555
C64 N3 1_555 1_555
H54 C64 1_555 1_555
Mn6 N3 1_555 1_555
O24 Mn2 1_555 1_555
O25 Mn3 1_555 1_555
O26 Mn2 1_555 1_555
O27 Mn2 1_555 1_555
Mn2 O22 1_555 1_555
Mn3 O17 1_555 1_555
Mn3 O24 1_555 1_555
O17 C38 1_555 1_555
C29 C30 1_555 1_555
C35 C38 1_555 1_555
C36 C37 1_555 1_555
C54 C55 1_555 1_555
C60 C61 1_555 1_555
C63 C64 1_555 1_555
Mn1 O2 1_555 1_555
O1 C5 1_555 1_555
O2 H1 1_555 1_555
H2 O2 1_555 1_555
O5 C3 1_555 1_555
O8 C8 1_555 1_555
O11 Mn1 1_555 1_555
O18 C45 1_555 1_555
O19 C45 1_555 1_555
C3 C1 1_555 1_555
H7 C3 1_555 1_555
H8 C3 1_555 1_555
C5 C1 1_555 1_555
H11 C5 1_555 1_555
H12 C5 1_555 1_555
C8 C6 1_555 1_555
H15 C8 1_555 1_555
H16 C8 1_555 1_555
C10 O1 1_555 1_555
H19 C10 1_555 1_555
H20 C10 1_555 1_555
C11 O3 1_555 1_555
C15 C14 1_555 1_555
H23 C15 1_555 1_555
C16 C11 1_555 1_555
H24 C16 1_555 1_555
C18 O5 1_555 1_555
C23 C18 1_555 1_555
H28 C23 1_555 1_555
H29 C26 1_555 1_555
C39 O8 1_555 1_555
C40 C39 1_555 1_555
C41 C40 1_555 1_555
H38 C41 1_555 1_555
C42 C41 1_555 1_555
C43 C42 1_555 1_555
H39 C43 1_555 1_555
C44 C39 1_555 1_555
H40 C44 1_555 1_555
C45 C42 1_555 1_555
C46 O9 1_555 1_555
C47 C46 1_555 1_555
H41 C47 1_555 1_555
Mn7 O19 1_555 1_555
Mn10 O18 1_555 1_555
N5 Mn1 1_555 1_555
O23 Mn1 1_555 1_555
C6 C10 1_555 1_555
C15 C16 1_555 1_555
C43 C44 1_555 1_555
O14 C31 1_555 1_555
O15 C31 1_555 1_555
H30 C27 1_555 1_555
C28 C27 1_555 1_555
C31 C28 1_555 1_555
H43 C50 1_555 1_555
Mn8 O15 1_555 1_555
Mn11 O15 1_555 1_555
O20 Mn8 1_555 1_555
O21 C52 1_555 1_555
H42 C48 1_555 1_555
C49 C48 1_555 1_555
C52 C49 1_555 1_555
Mn4 O21 1_555 1_555
O12 C24 1_555 1_555
O13 C24 1_555 1_555
C20 C19 1_555 1_555
C21 C20 1_555 1_555
C22 C21 1_555 1_555
H27 C22 1_555 1_555
C24 C21 1_555 1_555
Mn5 O12 1_555 1_555
O13 Mn5 1_555 1_555
O12_2 C24_2 1_555 1_555
O13_2 C24_2 1_555 1_555
C20_2 C19_2 1_555 1_555
C21_2 C20_2 1_555 1_555
C22_2 C21_2 1_555 1_555
H27_2 C22_2 1_555 1_555
C24_2 C21_2 1_555 1_555
Mn4 O12_2 1_555 1_555
O13_2 Mn4 1_555 1_555
O14_2 C31_2 1_555 1_555
O15_2 C31_2 1_555 1_555
H30_2 C27_2 1_555 1_555
C28_2 C27_2 1_555 1_555
C31_2 C28_2 1_555 1_555
H43_2 C50_2 1_555 1_555
Mn9 O15_2 1_555 1_555
Mn11_2 O15_2 1_555 1_555
O20_2 Mn9 1_555 1_555
O21_2 C52_2 1_555 1_555
H42_2 C48_2 1_555 1_555
C49_2 C48_2 1_555 1_555
C52_2 C49_2 1_555 1_555
Mn5 O21_2 1_555 1_555
Mn2_2 O10_2 1_555 1_555
Mn3_2 N1_2 1_555 1_555
N1_2 C53_2 1_555 1_555
N2_2 C53_2 1_555 1_555
N3_2 C62_2 1_555 1_555
N4_2 C59_2 1_555 1_555
O4_2 Mn3_2 1_555 1_555
H3_2 O4_2 1_555 1_555
H4_2 O4_2 1_555 1_555
O7_2 C7_2 1_555 1_555
O10_2 C17_2 1_555 1_555
O16_2 Mn3_2 1_555 1_555
O17_2 Mn2_2 1_555 1_555
C2_2 H5_2 1_555 1_555
H6_2 C2_2 1_555 1_555
H9_2 C4_2 1_555 1_555
H10_2 C4_2 1_555 1_555
C7_2 H13_2 1_555 1_555
H14_2 C7_2 1_555 1_555
H17_2 C9_2 1_555 1_555
H18_2 C9_2 1_555 1_555
H21_2 C12_2 1_555 1_555
C13_2 C12_2 1_555 1_555
H22_2 C13_2 1_555 1_555
H31_2 C29_2 1_555 1_555
C30_2 C25_2 1_555 1_555
H32_2 C30_2 1_555 1_555
C32_2 O7_2 1_555 1_555
C33_2 C32_2 1_555 1_555
H33_2 C33_2 1_555 1_555
C34_2 C33_2 1_555 1_555
H34_2 C34_2 1_555 1_555
C35_2 C34_2 1_555 1_555
C36_2 C35_2 1_555 1_555
H35_2 C36_2 1_555 1_555
C37_2 C32_2 1_555 1_555
C38_2 O16_2 1_555 1_555
H44_2 C51_2 1_555 1_555
C53_2 H45_2 1_555 1_555
C54_2 N1_2 1_555 1_555
H46_2 C54_2 1_555 1_555
C55_2 N2_2 1_555 1_555
H47_2 C55_2 1_555 1_555
C56_2 N2_2 1_555 1_555
C57_2 C56_2 1_555 1_555
H48_2 C57_2 1_555 1_555
C58_2 C57_2 1_555 1_555
H49_2 C58_2 1_555 1_555
C59_2 C58_2 1_555 1_555
C60_2 C59_2 1_555 1_555
H50_2 C60_2 1_555 1_555
C61_2 C56_2 1_555 1_555
H51_2 C61_2 1_555 1_555
C62_2 N4_2 1_555 1_555
H52_2 C62_2 1_555 1_555
C63_2 N4_2 1_555 1_555
H53_2 C63_2 1_555 1_555
C64_2 N3_2 1_555 1_555
H54_2 C64_2 1_555 1_555
Mn6_2 N3_2 1_555 1_555
O24_2 Mn2_2 1_555 1_555
O25_2 Mn3_2 1_555 1_555
O26_2 Mn2_2 1_555 1_555
O27_2 Mn2_2 1_555 1_555
Mn2_2 O22_2 1_555 1_555
Mn3_2 O17_2 1_555 1_555
Mn3_2 O24_2 1_555 1_555
O17_2 C38_2 1_555 1_555
C29_2 C30_2 1_555 1_555
C35_2 C38_2 1_555 1_555
C36_2 C37_2 1_555 1_555
C54_2 C55_2 1_555 1_555
C60_2 C61_2 1_555 1_555
C63_2 C64_2 1_555 1_555
Mn1_2 O2_2 1_555 1_555
O1_2 C5_2 1_555 1_555
O2_2 H1_2 1_555 1_555
H2_2 O2_2 1_555 1_555
O5_2 C3_2 1_555 1_555
O8_2 C8_2 1_555 1_555
O11_2 Mn1_2 1_555 1_555
O18_2 C45_2 1_555 1_555
O19_2 C45_2 1_555 1_555
C3_2 C1_2 1_555 1_555
H7_2 C3_2 1_555 1_555
H8_2 C3_2 1_555 1_555
C5_2 C1_2 1_555 1_555
H11_2 C5_2 1_555 1_555
H12_2 C5_2 1_555 1_555
C8_2 C6_2 1_555 1_555
H15_2 C8_2 1_555 1_555
H16_2 C8_2 1_555 1_555
C10_2 O1_2 1_555 1_555
H19_2 C10_2 1_555 1_555
H20_2 C10_2 1_555 1_555
C11_2 O3_2 1_555 1_555
C15_2 C14_2 1_555 1_555
H23_2 C15_2 1_555 1_555
C16_2 C11_2 1_555 1_555
H24_2 C16_2 1_555 1_555
C18_2 O5_2 1_555 1_555
C23_2 C18_2 1_555 1_555
H28_2 C23_2 1_555 1_555
H29_2 C26_2 1_555 1_555
C39_2 O8_2 1_555 1_555
C40_2 C39_2 1_555 1_555
C41_2 C40_2 1_555 1_555
H38_2 C41_2 1_555 1_555
C42_2 C41_2 1_555 1_555
C43_2 C42_2 1_555 1_555
H39_2 C43_2 1_555 1_555
C44_2 C39_2 1_555 1_555
H40_2 C44_2 1_555 1_555
C45_2 C42_2 1_555 1_555
C46_2 O9_2 1_555 1_555
C47_2 C46_2 1_555 1_555
H41_2 C47_2 1_555 1_555
Mn7_2 O19_2 1_555 1_555
Mn10_2 O18_2 1_555 1_555
N5_2 Mn1_2 1_555 1_555
O23_2 Mn1_2 1_555 1_555
C6_2 C10_2 1_555 1_555
C15_2 C16_2 1_555 1_555
C43_2 C44_2 1_555 1_555
Mn1_3 O2_3 1_555 1_555
Mn7 O10_3 1_555 1_555
Mn10 N1_3 1_555 1_555
N1_3 C53_3 1_555 1_555
N2_3 C53_3 1_555 1_555
O1_3 C5_3 1_555 1_555
O3_3 C2_3 1_555 1_555
O4_3 Mn10 1_555 1_555
O5_3 C3_3 1_555 1_555
O6_3 C4_3 1_555 1_555
O7_3 C7_3 1_555 1_555
O8_3 C8_3 1_555 1_555
O9_3 C9_3 1_555 1_555
O10_3 C17_3 1_555 1_555
O11_3 Mn1_3 1_555 1_555
O22 C24_3 1_555 1_555
O14_3 C31_3 1_555 1_555
O15_3 C31_3 1_555 1_555
O16_3 Mn10 1_555 1_555
O17_3 Mn7 1_555 1_555
O18_3 C45_3 1_555 1_555
O20_3 C52_3 1_555 1_555
O21_3 C52_3 1_555 1_555
C1_3 C2_3 1_555 1_555
C2_3 H5_3 1_555 1_555
H6_3 C2_3 1_555 1_555
C3_3 C1_3 1_555 1_555
H7_3 C3_3 1_555 1_555
H8_3 C3_3 1_555 1_555
C4_3 C1_3 1_555 1_555
H9_3 C4_3 1_555 1_555
H10_3 C4_3 1_555 1_555
C5_3 C1_3 1_555 1_555
H11_3 C5_3 1_555 1_555
H12_3 C5_3 1_555 1_555
C6_3 C7_3 1_555 1_555
C7_3 H13_3 1_555 1_555
H14_3 C7_3 1_555 1_555
C8_3 C6_3 1_555 1_555
H15_3 C8_3 1_555 1_555
H16_3 C8_3 1_555 1_555
C9_3 C6_3 1_555 1_555
H17_3 C9_3 1_555 1_555
H18_3 C9_3 1_555 1_555
C10_3 O1_3 1_555 1_555
H19_3 C10_3 1_555 1_555
H20_3 C10_3 1_555 1_555
C11_3 O3_3 1_555 1_555
C12_3 C11_3 1_555 1_555
H21_3 C12_3 1_555 1_555
C13_3 C12_3 1_555 1_555
H22_3 C13_3 1_555 1_555
C14_3 C13_3 1_555 1_555
C15_3 C14_3 1_555 1_555
H23_3 C15_3 1_555 1_555
C16_3 C11_3 1_555 1_555
H24_3 C16_3 1_555 1_555
C17_3 O11_3 1_555 1_555
C18_3 O5_3 1_555 1_555
C19_3 C18_3 1_555 1_555
H25_3 C19_3 1_555 1_555
C20_3 C19_3 1_555 1_555
H26_3 C20_3 1_555 1_555
C21_3 C20_3 1_555 1_555
C23_3 C18_3 1_555 1_555
C24_3 C21_3 1_555 1_555
C25_3 O6_3 1_555 1_555
C26_3 C25_3 1_555 1_555
H29_3 C26_3 1_555 1_555
C27_3 C26_3 1_555 1_555
H30_3 C27_3 1_555 1_555
C28_3 C27_3 1_555 1_555
C29_3 C28_3 1_555 1_555
H31_3 C29_3 1_555 1_555
C30_3 C25_3 1_555 1_555
H32_3 C30_3 1_555 1_555
C31_3 C28_3 1_555 1_555
C32_3 O7_3 1_555 1_555
C33_3 C32_3 1_555 1_555
H33_3 C33_3 1_555 1_555
C34_3 C33_3 1_555 1_555
H34_3 C34_3 1_555 1_555
C35_3 C34_3 1_555 1_555
C36_3 C35_3 1_555 1_555
H35_3 C36_3 1_555 1_555
C37_3 C32_3 1_555 1_555
H36_3 C37_3 1_555 1_555
C38_3 O16_3 1_555 1_555
C39_3 O8_3 1_555 1_555
C40_3 C39_3 1_555 1_555
H37_3 C40_3 1_555 1_555
C41_3 C40_3 1_555 1_555
H38_3 C41_3 1_555 1_555
C42_3 C41_3 1_555 1_555
C44_3 C39_3 1_555 1_555
C45_3 C42_3 1_555 1_555
C46_3 O9_3 1_555 1_555
C47_3 C46_3 1_555 1_555
H41_3 C47_3 1_555 1_555
C48_3 C47_3 1_555 1_555
H42_3 C48_3 1_555 1_555
C49_3 C48_3 1_555 1_555
C50_3 C49_3 1_555 1_555
H43_3 C50_3 1_555 1_555
C51_3 C46_3 1_555 1_555
H44_3 C51_3 1_555 1_555
C52_3 C49_3 1_555 1_555
C53_3 H45_3 1_555 1_555
C54_3 N1_3 1_555 1_555
H46_3 C54_3 1_555 1_555
C55_3 N2_3 1_555 1_555
H47_3 C55_3 1_555 1_555
C56_3 N2_3 1_555 1_555
C57_3 C56_3 1_555 1_555
H48_3 C57_3 1_555 1_555
C61_3 C56_3 1_555 1_555
H51_3 C61_3 1_555 1_555
Mn8_2 O15_3 1_555 1_555
Mn10_3 O18_3 1_555 1_555
Mn11_3 O15_3 1_555 1_555
N5_3 Mn1_3 1_555 1_555
O22_3 Mn1_3 1_555 1_555
O23_3 Mn1_3 1_555 1_555
O24_3 Mn7 1_555 1_555
O27_3 Mn7 1_555 1_555
O28_3 Mn1_3 1_555 1_555
Mn7 O22_3 1_555 1_555
Mn10 O17_3 1_555 1_555
Mn10 O24_3 1_555 1_555
O17_3 C38_3 1_555 1_555
O20_3 Mn8_2 1_555 1_555
C6_3 C10_3 1_555 1_555
C14_3 C17_3 1_555 1_555
C15_3 C16_3 1_555 1_555
C29_3 C30_3 1_555 1_555
C35_3 C38_3 1_555 1_555
C36_3 C37_3 1_555 1_555
C50_3 C51_3 1_555 1_555
C54_3 C55_3 1_555 1_555
H27_3 C22_3 1_555 1_555
H39_3 C43_3 1_555 1_555
Mn7_3 O19_3 1_555 1_555
N3_3 C62_3 1_555 1_555
H52_3 C62_3 1_555 1_555
C64_3 N3_3 1_555 1_555
H54_3 C64_3 1_555 1_555
Mn6_3 N3_3 1_555 1_555
Mn1_4 O2_4 1_555 1_555
Mn2_3 O10_4 1_555 1_555
Mn3_3 N1_4 1_555 1_555
N1_4 C53_4 1_555 1_555
O1_4 C5_4 1_555 1_555
O3_4 C2_4 1_555 1_555
O4_4 Mn3_3 1_555 1_555
O5_4 C3_4 1_555 1_555
O6_4 C4_4 1_555 1_555
O7_4 C7_4 1_555 1_555
O8_4 C8_4 1_555 1_555
O9_4 C9_4 1_555 1_555
O10_4 C17_4 1_555 1_555
O11_4 Mn1_4 1_555 1_555
O12_3 C24_4 1_555 1_555
O14_4 C31_4 1_555 1_555
O24 C31_4 1_555 1_555
O16_4 Mn3_3 1_555 1_555
O17_4 Mn2_3 1_555 1_555
O27 C52_4 1_555 1_555
O28 C52_4 1_555 1_555
C1_4 C2_4 1_555 1_555
C2_4 H5_4 1_555 1_555
H6_4 C2_4 1_555 1_555
C3_4 C1_4 1_555 1_555
H7_4 C3_4 1_555 1_555
H8_4 C3_4 1_555 1_555
C4_4 C1_4 1_555 1_555
H9_4 C4_4 1_555 1_555
H10_4 C4_4 1_555 1_555
C5_4 C1_4 1_555 1_555
H11_4 C5_4 1_555 1_555
H12_4 C5_4 1_555 1_555
C6_4 C7_4 1_555 1_555
C7_4 H13_4 1_555 1_555
H14_4 C7_4 1_555 1_555
C8_4 C6_4 1_555 1_555
H15_4 C8_4 1_555 1_555
H16_4 C8_4 1_555 1_555
C9_4 C6_4 1_555 1_555
H17_4 C9_4 1_555 1_555
H18_4 C9_4 1_555 1_555
C10_4 O1_4 1_555 1_555
H19_4 C10_4 1_555 1_555
H20_4 C10_4 1_555 1_555
C11_4 O3_4 1_555 1_555
C12_4 C11_4 1_555 1_555
H21_4 C12_4 1_555 1_555
C13_4 C12_4 1_555 1_555
H22_4 C13_4 1_555 1_555
C14_4 C13_4 1_555 1_555
C15_4 C14_4 1_555 1_555
H23_4 C15_4 1_555 1_555
C16_4 C11_4 1_555 1_555
H24_4 C16_4 1_555 1_555
C17_4 O11_4 1_555 1_555
C18_4 O5_4 1_555 1_555
C19_4 C18_4 1_555 1_555
H25_4 C19_4 1_555 1_555
C20_4 C19_4 1_555 1_555
H26_4 C20_4 1_555 1_555
C21_4 C20_4 1_555 1_555
C23_4 C18_4 1_555 1_555
C24_4 C21_4 1_555 1_555
C25_4 O6_4 1_555 1_555
C26_4 C25_4 1_555 1_555
H29_4 C26_4 1_555 1_555
C27_4 C26_4 1_555 1_555
H30_4 C27_4 1_555 1_555
C28_4 C27_4 1_555 1_555
C29_4 C28_4 1_555 1_555
H31_4 C29_4 1_555 1_555
C30_4 C25_4 1_555 1_555
H32_4 C30_4 1_555 1_555
C31_4 C28_4 1_555 1_555
C32_4 O7_4 1_555 1_555
C33_4 C32_4 1_555 1_555
H33_4 C33_4 1_555 1_555
C34_4 C33_4 1_555 1_555
H34_4 C34_4 1_555 1_555
C35_4 C34_4 1_555 1_555
C36_4 C35_4 1_555 1_555
H35_4 C36_4 1_555 1_555
C37_4 C32_4 1_555 1_555
H36_4 C37_4 1_555 1_555
C38_4 O16_4 1_555 1_555
C46_4 O9_4 1_555 1_555
C47_4 C46_4 1_555 1_555
H41_4 C47_4 1_555 1_555
C48_4 C47_4 1_555 1_555
H42_4 C48_4 1_555 1_555
C49_4 C48_4 1_555 1_555
C50_4 C49_4 1_555 1_555
H43_4 C50_4 1_555 1_555
C51_4 C46_4 1_555 1_555
H44_4 C51_4 1_555 1_555
C52_4 C49_4 1_555 1_555
C53_4 H45_4 1_555 1_555
C54_4 N1_4 1_555 1_555
H46_4 C54_4 1_555 1_555
Mn8_2 O12_3 1_555 1_555
N5_4 Mn1_4 1_555 1_555
O22_4 Mn1_4 1_555 1_555
O23_4 Mn1_4 1_555 1_555
O24_4 Mn2_3 1_555 1_555
O25_3 Mn3_3 1_555 1_555
O26_3 Mn2_3 1_555 1_555
O27_4 Mn2_3 1_555 1_555
O28_4 Mn1_4 1_555 1_555
Mn2_3 O22_4 1_555 1_555
Mn3_3 O17_4 1_555 1_555
Mn3_3 O24_4 1_555 1_555
O17_4 C38_4 1_555 1_555
C6_4 C10_4 1_555 1_555
C14_4 C17_4 1_555 1_555
C15_4 C16_4 1_555 1_555
C29_4 C30_4 1_555 1_555
C35_4 C38_4 1_555 1_555
C36_4 C37_4 1_555 1_555
C50_4 C51_4 1_555 1_555
H27_4 C22_4 1_555 1_555
O13_3 Mn6 1_555 1_555
N3_4 C62_4 1_555 1_555
N4_3 C59_3 1_555 1_555
H49_3 C58_3 1_555 1_555
C59_3 C58_3 1_555 1_555
C60_3 C59_3 1_555 1_555
H50_3 C60_3 1_555 1_555
C62_4 N4_3 1_555 1_555
H52_4 C62_4 1_555 1_555
C63_3 N4_3 1_555 1_555
H53_3 C63_3 1_555 1_555
C64_4 N3_4 1_555 1_555
H54_4 C64_4 1_555 1_555
Mn6_4 N3_4 1_555 1_555
C63_3 C64_4 1_555 1_555
O18_4 C45_4 1_555 1_555
C40_4 C39_4 1_555 1_555
H37_4 C40_4 1_555 1_555
C41_4 C40_4 1_555 1_555
H38_4 C41_4 1_555 1_555
C42_4 C41_4 1_555 1_555
C44_4 C39_4 1_555 1_555
C45_4 C42_4 1_555 1_555
C55_4 N2_4 1_555 1_555
H47_4 C55_4 1_555 1_555
C56_4 N2_4 1_555 1_555
C57_4 C56_4 1_555 1_555
H48_4 C57_4 1_555 1_555
C61_4 C56_4 1_555 1_555
Mn10_4 O18_4 1_555 1_555
H39_4 C43_4 1_555 1_555
Mn7_4 O19_4 1_555 1_555
Mn3_4 N1_5 1_555 1_555
N1_5 C53_5 1_555 1_555
N2_5 C53_5 1_555 1_555
N3_5 C62_5 1_555 1_555
N4_4 C59_4 1_555 1_555
O4_5 Mn3_4 1_555 1_555
H3_3 O4_5 1_555 1_555
H4_3 O4_5 1_555 1_555
C53_5 H45_5 1_555 1_555
C54_5 N1_5 1_555 1_555
H46_5 C54_5 1_555 1_555
C55_5 N2_5 1_555 1_555
H47_5 C55_5 1_555 1_555
C56_5 N2_5 1_555 1_555
C57_5 C56_5 1_555 1_555
H48_5 C57_5 1_555 1_555
C58_4 C57_5 1_555 1_555
H49_4 C58_4 1_555 1_555
C59_4 C58_4 1_555 1_555
C60_4 C59_4 1_555 1_555
H50_4 C60_4 1_555 1_555
C61_5 C56_5 1_555 1_555
H51_5 C61_5 1_555 1_555
C62_5 N4_4 1_555 1_555
H52_5 C62_5 1_555 1_555
C63_4 N4_4 1_555 1_555
H53_4 C63_4 1_555 1_555
C64_5 N3_5 1_555 1_555
H54_5 C64_5 1_555 1_555
Mn6_5 N3_5 1_555 1_555
O25_4 Mn3_4 1_555 1_555
C54_5 C55_5 1_555 1_555
C60_4 C61_5 1_555 1_555
C63_4 C64_5 1_555 1_555
Mn1_5 O2_5 1_555 1_555
Mn2_4 O10_5 1_555 1_555
O1_5 C5_5 1_555 1_555
O2_5 H1_5 1_555 1_555
H2_5 O2_5 1_555 1_555
O3_5 C2_5 1_555 1_555
O5_5 C3_5 1_555 1_555
O6_5 C4_5 1_555 1_555
O7_5 C7_5 1_555 1_555
O8_5 C8_5 1_555 1_555
O9_5 C9_5 1_555 1_555
O10_5 C17_5 1_555 1_555
O11_5 Mn1_5 1_555 1_555
O14_5 C31_5 1_555 1_555
O24_4 C31_5 1_555 1_555
O17_5 Mn2_4 1_555 1_555
O18_5 C45_5 1_555 1_555
O19_5 C45_5 1_555 1_555
O27_4 C52_5 1_555 1_555
O28_4 C52_5 1_555 1_555
C1_5 C2_5 1_555 1_555
C2_5 H5_5 1_555 1_555
H6_5 C2_5 1_555 1_555
C3_5 C1_5 1_555 1_555
H7_5 C3_5 1_555 1_555
H8_5 C3_5 1_555 1_555
C4_5 C1_5 1_555 1_555
H9_5 C4_5 1_555 1_555
H10_5 C4_5 1_555 1_555
C5_5 C1_5 1_555 1_555
H11_5 C5_5 1_555 1_555
H12_5 C5_5 1_555 1_555
C6_5 C7_5 1_555 1_555
C7_5 H13_5 1_555 1_555
H14_5 C7_5 1_555 1_555
C8_5 C6_5 1_555 1_555
H15_5 C8_5 1_555 1_555
H16_5 C8_5 1_555 1_555
C9_5 C6_5 1_555 1_555
H17_5 C9_5 1_555 1_555
H18_5 C9_5 1_555 1_555
C10_5 O1_5 1_555 1_555
H19_5 C10_5 1_555 1_555
H20_5 C10_5 1_555 1_555
C11_5 O3_5 1_555 1_555
C12_5 C11_5 1_555 1_555
H21_5 C12_5 1_555 1_555
C13_5 C12_5 1_555 1_555
H22_5 C13_5 1_555 1_555
C14_5 C13_5 1_555 1_555
C15_5 C14_5 1_555 1_555
H23_5 C15_5 1_555 1_555
C16_5 C11_5 1_555 1_555
H24_5 C16_5 1_555 1_555
C17_5 O11_5 1_555 1_555
C18_5 O5_5 1_555 1_555
C23_5 C18_5 1_555 1_555
H28_5 C23_5 1_555 1_555
C25_5 O6_5 1_555 1_555
C26_5 C25_5 1_555 1_555
H29_5 C26_5 1_555 1_555
C27_5 C26_5 1_555 1_555
H30_5 C27_5 1_555 1_555
C28_5 C27_5 1_555 1_555
C29_5 C28_5 1_555 1_555
H31_5 C29_5 1_555 1_555
C30_5 C25_5 1_555 1_555
H32_5 C30_5 1_555 1_555
C31_5 C28_5 1_555 1_555
C32_5 O7_5 1_555 1_555
C33_5 C32_5 1_555 1_555
H33_5 C33_5 1_555 1_555
C34_5 C33_5 1_555 1_555
H34_5 C34_5 1_555 1_555
C35_5 C34_5 1_555 1_555
C36_5 C35_5 1_555 1_555
H35_5 C36_5 1_555 1_555
C37_5 C32_5 1_555 1_555
H36_5 C37_5 1_555 1_555
C38_5 O16_5 1_555 1_555
C39_5 O8_5 1_555 1_555
C40_5 C39_5 1_555 1_555
H37_5 C40_5 1_555 1_555
C41_5 C40_5 1_555 1_555
H38_5 C41_5 1_555 1_555
C42_5 C41_5 1_555 1_555
C43_5 C42_5 1_555 1_555
H39_5 C43_5 1_555 1_555
C44_5 C39_5 1_555 1_555
H40_5 C44_5 1_555 1_555
C45_5 C42_5 1_555 1_555
C46_5 O9_5 1_555 1_555
C47_5 C46_5 1_555 1_555
H41_5 C47_5 1_555 1_555
C48_5 C47_5 1_555 1_555
H42_5 C48_5 1_555 1_555
C49_5 C48_5 1_555 1_555
C50_5 C49_5 1_555 1_555
H43_5 C50_5 1_555 1_555
C51_5 C46_5 1_555 1_555
H44_5 C51_5 1_555 1_555
C52_5 C49_5 1_555 1_555
Mn7_5 O19_5 1_555 1_555
Mn10_5 O18_5 1_555 1_555
N5_5 Mn1_5 1_555 1_555
O22_5 Mn1_5 1_555 1_555
O23_5 Mn1_5 1_555 1_555
O24_5 Mn2_4 1_555 1_555
O26_4 Mn2_4 1_555 1_555
O27_5 Mn2_4 1_555 1_555
O28_5 Mn1_5 1_555 1_555
Mn2_4 O22_5 1_555 1_555
O17_5 C38_5 1_555 1_555
C6_5 C10_5 1_555 1_555
C14_5 C17_5 1_555 1_555
C15_5 C16_5 1_555 1_555
C29_5 C30_5 1_555 1_555
C35_5 C38_5 1_555 1_555
C36_5 C37_5 1_555 1_555
C43_5 C44_5 1_555 1_555
C50_5 C51_5 1_555 1_555
O12_4 C24_5 1_555 1_555
O13_4 C24_5 1_555 1_555
H25_5 C19_5 1_555 1_555
C20_5 C19_5 1_555 1_555
H26_5 C20_5 1_555 1_555
C21_5 C20_5 1_555 1_555
C22_5 C21_5 1_555 1_555
H27_5 C22_5 1_555 1_555
C24_5 C21_5 1_555 1_555
Mn6_4 O12_4 1_555 1_555
Mn9_2 O12_4 1_555 1_555
O13_4 Mn6_4 1_555 1_555
O22_4 C24_6 1_555 1_555
O23_4 C24_6 1_555 1_555
H25_6 C19_6 1_555 1_555
C20_6 C19_6 1_555 1_555
H26_6 C20_6 1_555 1_555
C21_6 C20_6 1_555 1_555
C22_6 C21_6 1_555 1_555
H27_6 C22_6 1_555 1_555
C24_6 C21_6 1_555 1_555
Mn10_4 N1_6 1_555 1_555
N1_6 C53_6 1_555 1_555
N2_6 C53_6 1_555 1_555
N3_6 C62_6 1_555 1_555
N4_5 C59_5 1_555 1_555
O4_6 Mn10_4 1_555 1_555
H3_4 O4_6 1_555 1_555
H4_4 O4_6 1_555 1_555
C53_6 H45_6 1_555 1_555
C54_6 N1_6 1_555 1_555
H46_6 C54_6 1_555 1_555
C55_6 N2_6 1_555 1_555
H47_6 C55_6 1_555 1_555
C56_6 N2_6 1_555 1_555
C57_6 C56_6 1_555 1_555
H48_6 C57_6 1_555 1_555
C58_5 C57_6 1_555 1_555
H49_5 C58_5 1_555 1_555
C59_5 C58_5 1_555 1_555
C60_5 C59_5 1_555 1_555
H50_5 C60_5 1_555 1_555
C61_6 C56_6 1_555 1_555
H51_6 C61_6 1_555 1_555
C62_6 N4_5 1_555 1_555
H52_6 C62_6 1_555 1_555
C63_5 N4_5 1_555 1_555
H53_5 C63_5 1_555 1_555
C64_6 N3_6 1_555 1_555
H54_6 C64_6 1_555 1_555
Mn6_6 N3_6 1_555 1_555
C54_6 C55_6 1_555 1_555
C60_5 C61_6 1_555 1_555
C63_5 C64_6 1_555 1_555
Mn1_6 O2_6 1_555 1_555
Mn7_4 O10_6 1_555 1_555
O1_6 C5_6 1_555 1_555
O2_6 H1_6 1_555 1_555
H2_6 O2_6 1_555 1_555
O3_6 C2_6 1_555 1_555
O5_6 C3_6 1_555 1_555
O6_6 C4_6 1_555 1_555
O7_6 C7_6 1_555 1_555
O8_6 C8_6 1_555 1_555
O9_6 C9_6 1_555 1_555
O10_6 C17_6 1_555 1_555
O11_6 Mn1_6 1_555 1_555
O14_6 C31_6 1_555 1_555
O15_4 C31_6 1_555 1_555
O17_6 Mn7_4 1_555 1_555
O18_6 C45_6 1_555 1_555
O19_6 C45_6 1_555 1_555
O20_4 C52_6 1_555 1_555
O21_4 C52_6 1_555 1_555
C1_6 C2_6 1_555 1_555
C2_6 H5_6 1_555 1_555
H6_6 C2_6 1_555 1_555
C3_6 C1_6 1_555 1_555
H7_6 C3_6 1_555 1_555
H8_6 C3_6 1_555 1_555
C4_6 C1_6 1_555 1_555
H9_6 C4_6 1_555 1_555
H10_6 C4_6 1_555 1_555
C5_6 C1_6 1_555 1_555
H11_6 C5_6 1_555 1_555
H12_6 C5_6 1_555 1_555
C6_6 C7_6 1_555 1_555
C7_6 H13_6 1_555 1_555
H14_6 C7_6 1_555 1_555
C8_6 C6_6 1_555 1_555
H15_6 C8_6 1_555 1_555
H16_6 C8_6 1_555 1_555
C9_6 C6_6 1_555 1_555
H17_6 C9_6 1_555 1_555
H18_6 C9_6 1_555 1_555
C10_6 O1_6 1_555 1_555
H19_6 C10_6 1_555 1_555
H20_6 C10_6 1_555 1_555
C11_6 O3_6 1_555 1_555
C12_6 C11_6 1_555 1_555
H21_6 C12_6 1_555 1_555
C13_6 C12_6 1_555 1_555
H22_6 C13_6 1_555 1_555
C14_6 C13_6 1_555 1_555
C15_6 C14_6 1_555 1_555
H23_6 C15_6 1_555 1_555
C16_6 C11_6 1_555 1_555
H24_6 C16_6 1_555 1_555
C17_6 O11_6 1_555 1_555
C18_6 O5_6 1_555 1_555
C23_6 C18_6 1_555 1_555
H28_6 C23_6 1_555 1_555
C25_6 O6_6 1_555 1_555
C26_6 C25_6 1_555 1_555
H29_6 C26_6 1_555 1_555
C27_6 C26_6 1_555 1_555
H30_6 C27_6 1_555 1_555
C28_6 C27_6 1_555 1_555
C29_6 C28_6 1_555 1_555
H31_6 C29_6 1_555 1_555
C30_6 C25_6 1_555 1_555
H32_6 C30_6 1_555 1_555
C31_6 C28_6 1_555 1_555
C32_6 O7_6 1_555 1_555
C33_6 C32_6 1_555 1_555
H33_6 C33_6 1_555 1_555
C34_6 C33_6 1_555 1_555
H34_6 C34_6 1_555 1_555
C35_6 C34_6 1_555 1_555
C36_6 C35_6 1_555 1_555
H35_6 C36_6 1_555 1_555
C37_6 C32_6 1_555 1_555
H36_6 C37_6 1_555 1_555
C38_6 O16_6 1_555 1_555
C39_6 O8_6 1_555 1_555
C40_6 C39_6 1_555 1_555
H37_6 C40_6 1_555 1_555
C41_6 C40_6 1_555 1_555
H38_6 C41_6 1_555 1_555
C42_6 C41_6 1_555 1_555
C43_6 C42_6 1_555 1_555
H39_6 C43_6 1_555 1_555
C44_6 C39_6 1_555 1_555
H40_6 C44_6 1_555 1_555
C45_6 C42_6 1_555 1_555
C46_6 O9_6 1_555 1_555
C47_6 C46_6 1_555 1_555
H41_6 C47_6 1_555 1_555
C48_6 C47_6 1_555 1_555
H42_6 C48_6 1_555 1_555
C49_6 C48_6 1_555 1_555
C50_6 C49_6 1_555 1_555
H43_6 C50_6 1_555 1_555
C51_6 C46_6 1_555 1_555
H44_6 C51_6 1_555 1_555
C52_6 C49_6 1_555 1_555
Mn6_4 O21_4 1_555 1_555
Mn7_6 O19_6 1_555 1_555
Mn9_2 O15_4 1_555 1_555
Mn10_6 O18_6 1_555 1_555
Mn11_4 O15_4 1_555 1_555
N5_6 Mn1_6 1_555 1_555
O22_6 Mn1_6 1_555 1_555
O23_6 Mn1_6 1_555 1_555
O24_6 Mn7_4 1_555 1_555
O27_6 Mn7_4 1_555 1_555
O28_6 Mn1_6 1_555 1_555
Mn7_4 O22_6 1_555 1_555
O17_6 C38_6 1_555 1_555
O20_4 Mn9_2 1_555 1_555
C6_6 C10_6 1_555 1_555
C14_6 C17_6 1_555 1_555
C15_6 C16_6 1_555 1_555
C29_6 C30_6 1_555 1_555
C35_6 C38_6 1_555 1_555
C36_6 C37_6 1_555 1_555
C43_6 C44_6 1_555 1_555
C50_6 C51_6 1_555 1_555
Mn10_5 N1_7 1_555 1_555
N1_7 C53_7 1_555 1_555
N2_7 C53_7 1_555 1_555
N3_7 C62_7 1_555 1_555
N4_6 C59_6 1_555 1_555
O4_7 Mn10_5 1_555 1_555
H3_5 O4_7 1_555 1_555
H4_5 O4_7 1_555 1_555
O16_7 Mn10_5 1_555 1_555
O17_7 Mn7_5 1_555 1_555
H34_7 C34_7 1_555 1_555
C35_7 C34_7 1_555 1_555
C38_7 O16_7 1_555 1_555
C53_7 H45_7 1_555 1_555
C54_7 N1_7 1_555 1_555
H46_7 C54_7 1_555 1_555
C55_7 N2_7 1_555 1_555
H47_7 C55_7 1_555 1_555
C56_7 N2_7 1_555 1_555
C57_7 C56_7 1_555 1_555
H48_7 C57_7 1_555 1_555
C58_6 C57_7 1_555 1_555
H49_6 C58_6 1_555 1_555
C59_6 C58_6 1_555 1_555
C60_6 C59_6 1_555 1_555
H50_6 C60_6 1_555 1_555
C61_7 C56_7 1_555 1_555
H51_7 C61_7 1_555 1_555
C62_7 N4_6 1_555 1_555
H52_7 C62_7 1_555 1_555
C63_6 N4_6 1_555 1_555
H53_6 C63_6 1_555 1_555
C64_7 N3_7 1_555 1_555
H54_7 C64_7 1_555 1_555
Mn6_7 N3_7 1_555 1_555
O24_7 Mn7_5 1_555 1_555
O27_7 Mn7_5 1_555 1_555
Mn10_5 O17_7 1_555 1_555
Mn10_5 O24_7 1_555 1_555
O17_7 C38_7 1_555 1_555
C35_7 C38_7 1_555 1_555
C54_7 C55_7 1_555 1_555
C60_6 C61_7 1_555 1_555
C63_6 C64_7 1_555 1_555
Mn1_7 O2_7 1_555 1_555
O1_7 C5_7 1_555 1_555
O2_7 H1_7 1_555 1_555
H2_7 O2_7 1_555 1_555
O3_7 C2_7 1_555 1_555
O5_7 C3_7 1_555 1_555
O6_7 C4_7 1_555 1_555
O7_7 C7_7 1_555 1_555
O8_7 C8_7 1_555 1_555
O9_7 C9_7 1_555 1_555
O10_7 C17_7 1_555 1_555
O11_7 Mn1_7 1_555 1_555
O22_5 C24_7 1_555 1_555
O23_5 C24_7 1_555 1_555
O15_5 C31_7 1_555 1_555
O18_7 C45_7 1_555 1_555
O19_7 C45_7 1_555 1_555
O20_5 C52_7 1_555 1_555
O21_5 C52_7 1_555 1_555
C1_7 C2_7 1_555 1_555
C2_7 H5_7 1_555 1_555
H6_7 C2_7 1_555 1_555
C3_7 C1_7 1_555 1_555
H7_7 C3_7 1_555 1_555
H8_7 C3_7 1_555 1_555
C4_7 C1_7 1_555 1_555
H9_7 C4_7 1_555 1_555
H10_7 C4_7 1_555 1_555
C5_7 C1_7 1_555 1_555
H11_7 C5_7 1_555 1_555
H12_7 C5_7 1_555 1_555
C6_7 C7_7 1_555 1_555
C7_7 H13_7 1_555 1_555
H14_7 C7_7 1_555 1_555
C8_7 C6_7 1_555 1_555
H15_7 C8_7 1_555 1_555
H16_7 C8_7 1_555 1_555
C9_7 C6_7 1_555 1_555
H17_7 C9_7 1_555 1_555
H18_7 C9_7 1_555 1_555
C10_7 O1_7 1_555 1_555
H19_7 C10_7 1_555 1_555
H20_7 C10_7 1_555 1_555
C11_7 O3_7 1_555 1_555
C12_7 C11_7 1_555 1_555
H21_7 C12_7 1_555 1_555
C13_7 C12_7 1_555 1_555
H22_7 C13_7 1_555 1_555
C14_7 C13_7 1_555 1_555
C15_7 C14_7 1_555 1_555
H23_7 C15_7 1_555 1_555
C16_7 C11_7 1_555 1_555
H24_7 C16_7 1_555 1_555
C17_7 O11_7 1_555 1_555
C18_7 O5_7 1_555 1_555
C19_7 C18_7 1_555 1_555
H25_7 C19_7 1_555 1_555
C20_7 C19_7 1_555 1_555
H26_7 C20_7 1_555 1_555
C21_7 C20_7 1_555 1_555
C22_7 C21_7 1_555 1_555
H27_7 C22_7 1_555 1_555
C23_7 C18_7 1_555 1_555
H28_7 C23_7 1_555 1_555
C24_7 C21_7 1_555 1_555
C25_7 O6_7 1_555 1_555
C26_7 C25_7 1_555 1_555
H29_7 C26_7 1_555 1_555
C27_7 C26_7 1_555 1_555
H30_7 C27_7 1_555 1_555
C28_7 C27_7 1_555 1_555
C29_7 C28_7 1_555 1_555
C30_7 C25_7 1_555 1_555
H32_7 C30_7 1_555 1_555
C31_7 C28_7 1_555 1_555
C32_7 O7_7 1_555 1_555
C33_7 C32_7 1_555 1_555
H35_7 C36_7 1_555 1_555
C37_7 C32_7 1_555 1_555
H36_7 C37_7 1_555 1_555
C39_7 O8_7 1_555 1_555
C40_7 C39_7 1_555 1_555
H37_7 C40_7 1_555 1_555
C41_7 C40_7 1_555 1_555
H38_7 C41_7 1_555 1_555
C42_7 C41_7 1_555 1_555
C43_7 C42_7 1_555 1_555
H39_7 C43_7 1_555 1_555
C44_7 C39_7 1_555 1_555
H40_7 C44_7 1_555 1_555
C45_7 C42_7 1_555 1_555
C46_7 O9_7 1_555 1_555
C47_7 C46_7 1_555 1_555
H41_7 C47_7 1_555 1_555
C48_7 C47_7 1_555 1_555
H42_7 C48_7 1_555 1_555
C49_7 C48_7 1_555 1_555
C50_7 C49_7 1_555 1_555
H43_7 C50_7 1_555 1_555
C51_7 C46_7 1_555 1_555
H44_7 C51_7 1_555 1_555
C52_7 C49_7 1_555 1_555
Mn6_5 O21_5 1_555 1_555
Mn7_7 O19_7 1_555 1_555
Mn8_3 O15_5 1_555 1_555
Mn10_7 O18_7 1_555 1_555
N5_7 Mn1_7 1_555 1_555
O22_7 Mn1_7 1_555 1_555
O23_7 Mn1_7 1_555 1_555
O28_7 Mn1_7 1_555 1_555
O20_5 Mn8_3 1_555 1_555
C6_7 C10_7 1_555 1_555
C14_7 C17_7 1_555 1_555
C15_7 C16_7 1_555 1_555
C22_7 C23_7 1_555 1_555
C29_7 C30_7 1_555 1_555
C36_7 C37_7 1_555 1_555
C43_7 C44_7 1_555 1_555
C50_7 C51_7 1_555 1_555
Mn11 N1_8 1_555 1_555
N1_8 C53_8 1_555 1_555
O4_8 Mn11 1_555 1_555
H3_6 O4_8 1_555 1_555
H4_6 O4_8 1_555 1_555
O16_8 Mn11 1_555 1_555
O17_8 Mn8 1_555 1_555
H34_8 C34_8 1_555 1_555
C35_8 C34_8 1_555 1_555
C38_8 O16_8 1_555 1_555
C53_8 H45_8 1_555 1_555
C54_8 N1_8 1_555 1_555
H46_8 C54_8 1_555 1_555
O25_5 Mn11 1_555 1_555
O26_5 Mn8 1_555 1_555
Mn11 O17_8 1_555 1_555
O17_8 C38_8 1_555 1_555
C35_8 C38_8 1_555 1_555
Mn4 O2_8 1_555 1_555
O1_8 C5_8 1_555 1_555
O2_8 H1_8 1_555 1_555
H2_8 O2_8 1_555 1_555
O3_8 C2_8 1_555 1_555
O5_8 C3_8 1_555 1_555
O6_8 C4_8 1_555 1_555
O7_8 C7_8 1_555 1_555
O8_8 C8_8 1_555 1_555
O9_8 C9_8 1_555 1_555
O10_8 C17_8 1_555 1_555
O11_8 Mn4 1_555 1_555
O12_5 C24_8 1_555 1_555
O13_5 C24_8 1_555 1_555
O24_5 C31_8 1_555 1_555
O27_5 C52_8 1_555 1_555
O28_5 C52_8 1_555 1_555
C1_8 C2_8 1_555 1_555
C2_8 H5_8 1_555 1_555
H6_8 C2_8 1_555 1_555
C3_8 C1_8 1_555 1_555
H7_8 C3_8 1_555 1_555
H8_8 C3_8 1_555 1_555
C4_8 C1_8 1_555 1_555
H9_8 C4_8 1_555 1_555
H10_8 C4_8 1_555 1_555
C5_8 C1_8 1_555 1_555
H11_8 C5_8 1_555 1_555
H12_8 C5_8 1_555 1_555
C6_8 C7_8 1_555 1_555
C7_8 H13_8 1_555 1_555
H14_8 C7_8 1_555 1_555
C8_8 C6_8 1_555 1_555
H15_8 C8_8 1_555 1_555
H16_8 C8_8 1_555 1_555
C9_8 C6_8 1_555 1_555
H17_8 C9_8 1_555 1_555
H18_8 C9_8 1_555 1_555
C10_8 O1_8 1_555 1_555
H19_8 C10_8 1_555 1_555
H20_8 C10_8 1_555 1_555
C11_8 O3_8 1_555 1_555
C12_8 C11_8 1_555 1_555
H21_8 C12_8 1_555 1_555
C13_8 C12_8 1_555 1_555
H22_8 C13_8 1_555 1_555
C14_8 C13_8 1_555 1_555
C15_8 C14_8 1_555 1_555
H23_8 C15_8 1_555 1_555
C16_8 C11_8 1_555 1_555
H24_8 C16_8 1_555 1_555
C17_8 O11_8 1_555 1_555
C18_8 O5_8 1_555 1_555
C19_8 C18_8 1_555 1_555
H25_8 C19_8 1_555 1_555
C20_8 C19_8 1_555 1_555
H26_8 C20_8 1_555 1_555
C21_8 C20_8 1_555 1_555
C22_8 C21_8 1_555 1_555
H27_8 C22_8 1_555 1_555
C23_8 C18_8 1_555 1_555
H28_8 C23_8 1_555 1_555
C24_8 C21_8 1_555 1_555
C25_8 O6_8 1_555 1_555
C26_8 C25_8 1_555 1_555
H29_8 C26_8 1_555 1_555
C27_8 C26_8 1_555 1_555
H30_8 C27_8 1_555 1_555
C28_8 C27_8 1_555 1_555
C29_8 C28_8 1_555 1_555
C30_8 C25_8 1_555 1_555
H32_8 C30_8 1_555 1_555
C31_8 C28_8 1_555 1_555
C32_8 O7_8 1_555 1_555
C33_8 C32_8 1_555 1_555
H35_8 C36_8 1_555 1_555
C37_8 C32_8 1_555 1_555
H36_8 C37_8 1_555 1_555
C46_8 O9_8 1_555 1_555
C47_8 C46_8 1_555 1_555
H41_8 C47_8 1_555 1_555
C48_8 C47_8 1_555 1_555
H42_8 C48_8 1_555 1_555
C49_8 C48_8 1_555 1_555
C50_8 C49_8 1_555 1_555
H43_8 C50_8 1_555 1_555
C51_8 C46_8 1_555 1_555
H44_8 C51_8 1_555 1_555
C52_8 C49_8 1_555 1_555
Mn6_5 O12_5 1_555 1_555
Mn8_3 O12_5 1_555 1_555
N5_8 Mn4 1_555 1_555
O13_5 Mn6_5 1_555 1_555
C6_8 C10_8 1_555 1_555
C14_8 C17_8 1_555 1_555
C15_8 C16_8 1_555 1_555
C22_8 C23_8 1_555 1_555
C29_8 C30_8 1_555 1_555
C36_8 C37_8 1_555 1_555
C50_8 C51_8 1_555 1_555
N3_8 C62_8 1_555 1_555
H52_8 C62_8 1_555 1_555
C64_8 N3_8 1_555 1_555
H54_8 C64_8 1_555 1_555
Mn5 N3_8 1_555 1_555
O25_2 C45_8 1_555 1_555
O26_2 C45_8 1_555 1_555
C40_8 C39_8 1_555 1_555
H37_8 C40_8 1_555 1_555
C41_8 C40_8 1_555 1_555
H38_8 C41_8 1_555 1_555
C42_8 C41_8 1_555 1_555
C43_8 C42_8 1_555 1_555
H39_8 C43_8 1_555 1_555
C44_8 C39_8 1_555 1_555
H40_8 C44_8 1_555 1_555
C45_8 C42_8 1_555 1_555
C43_8 C44_8 1_555 1_555
Mn10_3 N1_9 1_555 1_555
N1_9 C53_9 1_555 1_555
N2_8 C53_9 1_555 1_555
N5_6 C62_9 1_555 1_555
N4_7 C59_7 1_555 1_555
O4_9 Mn10_3 1_555 1_555
H3_7 O4_9 1_555 1_555
H4_7 O4_9 1_555 1_555
C53_9 H45_9 1_555 1_555
C54_9 N1_9 1_555 1_555
H46_9 C54_9 1_555 1_555
C55_8 N2_8 1_555 1_555
H47_8 C55_8 1_555 1_555
C56_8 N2_8 1_555 1_555
C57_8 C56_8 1_555 1_555
H48_8 C57_8 1_555 1_555
C58_7 C57_8 1_555 1_555
H49_7 C58_7 1_555 1_555
C59_7 C58_7 1_555 1_555
C60_7 C59_7 1_555 1_555
H50_7 C60_7 1_555 1_555
C61_8 C56_8 1_555 1_555
H51_9 C61_8 1_555 1_555
C62_9 N4_7 1_555 1_555
H52_9 C62_9 1_555 1_555
C63_7 N4_7 1_555 1_555
H53_7 C63_7 1_555 1_555
C64_9 N5_6 1_555 1_555
H54_9 C64_9 1_555 1_555
C54_9 C55_8 1_555 1_555
C60_7 C61_8 1_555 1_555
C63_7 C64_9 1_555 1_555
Mn6_6 O2_9 1_555 1_555
Mn7_3 O10_9 1_555 1_555
O1_9 C5_9 1_555 1_555
O2_9 H1_9 1_555 1_555
H2_9 O2_9 1_555 1_555
O3_9 C2_9 1_555 1_555
O5_9 C3_9 1_555 1_555
O6_9 C4_9 1_555 1_555
O7_9 C7_9 1_555 1_555
O8_9 C8_9 1_555 1_555
O9_9 C9_9 1_555 1_555
O10_9 C17_9 1_555 1_555
O11_9 Mn6_6 1_555 1_555
O22_3 C24_9 1_555 1_555
O23_3 C24_9 1_555 1_555
O17_9 Mn7_3 1_555 1_555
O18_8 C45_9 1_555 1_555
O19_8 C45_9 1_555 1_555
C1_9 C2_9 1_555 1_555
C2_9 H5_9 1_555 1_555
H6_9 C2_9 1_555 1_555
C3_9 C1_9 1_555 1_555
H7_9 C3_9 1_555 1_555
H8_9 C3_9 1_555 1_555
C4_9 C1_9 1_555 1_555
H9_9 C4_9 1_555 1_555
H10_9 C4_9 1_555 1_555
C5_9 C1_9 1_555 1_555
H11_9 C5_9 1_555 1_555
H12_9 C5_9 1_555 1_555
C6_9 C7_9 1_555 1_555
C7_9 H13_9 1_555 1_555
H14_9 C7_9 1_555 1_555
C8_9 C6_9 1_555 1_555
H15_9 C8_9 1_555 1_555
H16_9 C8_9 1_555 1_555
C9_9 C6_9 1_555 1_555
H17_9 C9_9 1_555 1_555
H18_9 C9_9 1_555 1_555
C10_9 O1_9 1_555 1_555
H19_9 C10_9 1_555 1_555
H20_9 C10_9 1_555 1_555
C11_9 O3_9 1_555 1_555
C12_9 C11_9 1_555 1_555
H21_9 C12_9 1_555 1_555
C13_9 C12_9 1_555 1_555
H22_9 C13_9 1_555 1_555
C14_9 C13_9 1_555 1_555
C15_9 C14_9 1_555 1_555
H23_9 C15_9 1_555 1_555
C16_9 C11_9 1_555 1_555
H24_9 C16_9 1_555 1_555
C17_9 O11_9 1_555 1_555
C18_9 O5_9 1_555 1_555
C19_9 C18_9 1_555 1_555
H25_9 C19_9 1_555 1_555
C20_9 C19_9 1_555 1_555
H26_9 C20_9 1_555 1_555
C21_9 C20_9 1_555 1_555
C22_9 C21_9 1_555 1_555
H27_9 C22_9 1_555 1_555
C23_9 C18_9 1_555 1_555
H28_9 C23_9 1_555 1_555
C24_9 C21_9 1_555 1_555
C25_9 O6_9 1_555 1_555
C26_9 C25_9 1_555 1_555
H29_9 C26_9 1_555 1_555
H31_9 C29_9 1_555 1_555
C30_9 C25_9 1_555 1_555
H32_9 C30_9 1_555 1_555
C32_9 O7_9 1_555 1_555
C33_9 C32_9 1_555 1_555
H33_9 C33_9 1_555 1_555
C34_9 C33_9 1_555 1_555
H34_9 C34_9 1_555 1_555
C35_9 C34_9 1_555 1_555
C36_9 C35_9 1_555 1_555
H35_9 C36_9 1_555 1_555
C37_9 C32_9 1_555 1_555
H36_9 C37_9 1_555 1_555
C38_9 O16_9 1_555 1_555
C39_9 O8_9 1_555 1_555
C40_9 C39_9 1_555 1_555
H37_9 C40_9 1_555 1_555
C41_9 C40_9 1_555 1_555
H38_9 C41_9 1_555 1_555
C42_9 C41_9 1_555 1_555
C43_9 C42_9 1_555 1_555
H39_9 C43_9 1_555 1_555
C44_9 C39_9 1_555 1_555
H40_9 C44_9 1_555 1_555
C45_9 C42_9 1_555 1_555
C46_9 O9_9 1_555 1_555
C47_9 C46_9 1_555 1_555
H41_9 C47_9 1_555 1_555
C51_9 C46_9 1_555 1_555
H44_9 C51_9 1_555 1_555
Mn9 O19_8 1_555 1_555
Mn11_2 O18_8 1_555 1_555
O22_8 Mn6_6 1_555 1_555
O23_8 Mn6_6 1_555 1_555
O24_8 Mn7_3 1_555 1_555
O27_8 Mn7_3 1_555 1_555
O28_8 Mn6_6 1_555 1_555
Mn7_3 O22_8 1_555 1_555
O17_9 C38_9 1_555 1_555
C6_9 C10_9 1_555 1_555
C14_9 C17_9 1_555 1_555
C15_9 C16_9 1_555 1_555
C22_9 C23_9 1_555 1_555
C29_9 C30_9 1_555 1_555
C35_9 C38_9 1_555 1_555
C36_9 C37_9 1_555 1_555
C43_9 C44_9 1_555 1_555
O14_9 C31_9 1_555 1_555
O15_6 C31_9 1_555 1_555
O20_6 C52_9 1_555 1_555
O21_6 C52_9 1_555 1_555
H30_9 C27_9 1_555 1_555
C28_9 C27_9 1_555 1_555
C31_9 C28_9 1_555 1_555
H42_9 C48_9 1_555 1_555
C49_9 C48_9 1_555 1_555
C50_9 C49_9 1_555 1_555
H43_9 C50_9 1_555 1_555
C52_9 C49_9 1_555 1_555
Mn6_3 O21_6 1_555 1_555
Mn7_2 O15_6 1_555 1_555
Mn10_2 O15_6 1_555 1_555
O20_6 Mn7_2 1_555 1_555
O14_10 C31_10 1_555 1_555
O24_3 C31_10 1_555 1_555
O27_3 C52_10 1_555 1_555
O28_3 C52_10 1_555 1_555
H30_10 C27_10 1_555 1_555
C28_10 C27_10 1_555 1_555
C31_10 C28_10 1_555 1_555
H42_10 C48_10 1_555 1_555
C49_10 C48_10 1_555 1_555
C50_10 C49_10 1_555 1_555
H43_10 C50_10 1_555 1_555
C52_10 C49_10 1_555 1_555
Mn11_5 N1_10 1_555 1_555
N1_10 C53_10 1_555 1_555
N2_9 C53_10 1_555 1_555
N5_5 C62_10 1_555 1_555
N4_8 C59_8 1_555 1_555
O4_10 Mn11_5 1_555 1_555
H3_8 O4_10 1_555 1_555
H4_8 O4_10 1_555 1_555
C53_10 H45_10 1_555 1_555
C54_10 N1_10 1_555 1_555
H46_10 C54_10 1_555 1_555
C55_9 N2_9 1_555 1_555
H47_9 C55_9 1_555 1_555
C56_9 N2_9 1_555 1_555
C57_9 C56_9 1_555 1_555
H48_9 C57_9 1_555 1_555
C58_8 C57_9 1_555 1_555
H49_8 C58_8 1_555 1_555
C59_8 C58_8 1_555 1_555
C60_8 C59_8 1_555 1_555
H50_8 C60_8 1_555 1_555
C61_9 C56_9 1_555 1_555
H51_10 C61_9 1_555 1_555
C62_10 N4_8 1_555 1_555
H52_10 C62_10 1_555 1_555
C63_8 N4_8 1_555 1_555
H53_8 C63_8 1_555 1_555
C64_10 N5_5 1_555 1_555
H54_10 C64_10 1_555 1_555
O25_6 Mn11_5 1_555 1_555
C54_10 C55_9 1_555 1_555
C60_8 C61_9 1_555 1_555
C63_8 C64_10 1_555 1_555
Mn6_5 O2_10 1_555 1_555
Mn8_3 O10_10 1_555 1_555
O1_10 C5_10 1_555 1_555
O2_10 H1_10 1_555 1_555
H2_10 O2_10 1_555 1_555
O3_10 C2_10 1_555 1_555
O5_10 C3_10 1_555 1_555
O6_10 C4_10 1_555 1_555
O7_10 C7_10 1_555 1_555
O8_10 C8_10 1_555 1_555
O9_10 C9_10 1_555 1_555
O10_10 C17_10 1_555 1_555
O11_10 Mn6_5 1_555 1_555
O12_6 C24_10 1_555 1_555
O13_6 C24_10 1_555 1_555
O17_10 Mn8_3 1_555 1_555
O25_5 C45_10 1_555 1_555
O26_5 C45_10 1_555 1_555
C1_10 C2_10 1_555 1_555
C2_10 H5_10 1_555 1_555
H6_10 C2_10 1_555 1_555
C3_10 C1_10 1_555 1_555
H7_10 C3_10 1_555 1_555
H8_10 C3_10 1_555 1_555
C4_10 C1_10 1_555 1_555
H9_10 C4_10 1_555 1_555
H10_10 C4_10 1_555 1_555
C5_10 C1_10 1_555 1_555
H11_10 C5_10 1_555 1_555
H12_10 C5_10 1_555 1_555
C6_10 C7_10 1_555 1_555
C7_10 H13_10 1_555 1_555
H14_10 C7_10 1_555 1_555
C8_10 C6_10 1_555 1_555
H15_10 C8_10 1_555 1_555
H16_10 C8_10 1_555 1_555
C9_10 C6_10 1_555 1_555
H17_10 C9_10 1_555 1_555
H18_10 C9_10 1_555 1_555
C10_10 O1_10 1_555 1_555
H19_10 C10_10 1_555 1_555
H20_10 C10_10 1_555 1_555
C11_10 O3_10 1_555 1_555
C12_10 C11_10 1_555 1_555
H21_10 C12_10 1_555 1_555
C13_10 C12_10 1_555 1_555
H22_10 C13_10 1_555 1_555
C14_10 C13_10 1_555 1_555
C15_10 C14_10 1_555 1_555
H23_10 C15_10 1_555 1_555
C16_10 C11_10 1_555 1_555
H24_10 C16_10 1_555 1_555
C17_10 O11_10 1_555 1_555
C18_10 O5_10 1_555 1_555
C19_10 C18_10 1_555 1_555
H25_10 C19_10 1_555 1_555
C20_10 C19_10 1_555 1_555
H26_10 C20_10 1_555 1_555
C21_10 C20_10 1_555 1_555
C22_10 C21_10 1_555 1_555
H27_10 C22_10 1_555 1_555
C23_10 C18_10 1_555 1_555
H28_10 C23_10 1_555 1_555
C24_10 C21_10 1_555 1_555
C25_10 O6_10 1_555 1_555
C26_10 C25_10 1_555 1_555
H29_10 C26_10 1_555 1_555
H31_10 C29_10 1_555 1_555
C30_10 C25_10 1_555 1_555
H32_10 C30_10 1_555 1_555
C32_10 O7_10 1_555 1_555
C33_10 C32_10 1_555 1_555
H33_10 C33_10 1_555 1_555
C34_10 C33_10 1_555 1_555
H34_10 C34_10 1_555 1_555
C35_10 C34_10 1_555 1_555
C36_10 C35_10 1_555 1_555
H35_10 C36_10 1_555 1_555
C37_10 C32_10 1_555 1_555
H36_10 C37_10 1_555 1_555
C38_10 O16_10 1_555 1_555
C39_10 O8_10 1_555 1_555
C40_10 C39_10 1_555 1_555
H37_10 C40_10 1_555 1_555
C41_10 C40_10 1_555 1_555
H38_10 C41_10 1_555 1_555
C42_10 C41_10 1_555 1_555
C43_10 C42_10 1_555 1_555
H39_10 C43_10 1_555 1_555
C44_10 C39_10 1_555 1_555
H40_10 C44_10 1_555 1_555
C45_10 C42_10 1_555 1_555
C46_10 O9_10 1_555 1_555
C47_10 C46_10 1_555 1_555
H41_10 C47_10 1_555 1_555
C51_10 C46_10 1_555 1_555
H44_10 C51_10 1_555 1_555
Mn6_3 O12_6 1_555 1_555
Mn7_2 O12_6 1_555 1_555
O26_6 Mn8_3 1_555 1_555
O13_6 Mn6_3 1_555 1_555
O17_10 C38_10 1_555 1_555
C6_10 C10_10 1_555 1_555
C14_10 C17_10 1_555 1_555
C15_10 C16_10 1_555 1_555
C22_10 C23_10 1_555 1_555
C29_10 C30_10 1_555 1_555
C35_10 C38_10 1_555 1_555
C36_10 C37_10 1_555 1_555
C43_10 C44_10 1_555 1_555
O25 C45_11 1_555 1_555
O26 C45_11 1_555 1_555
C40_11 C39_11 1_555 1_555
H37_11 C40_11 1_555 1_555
C41_11 C40_11 1_555 1_555
H38_11 C41_11 1_555 1_555
C42_11 C41_11 1_555 1_555
C43_11 C42_11 1_555 1_555
H39_11 C43_11 1_555 1_555
C44_11 C39_11 1_555 1_555
H40_11 C44_11 1_555 1_555
C45_11 C42_11 1_555 1_555
C43_11 C44_11 1_555 1_555
N5_8 C62_11 1_555 1_555
H52_11 C62_11 1_555 1_555
C64_11 N5_8 1_555 1_555
H54_11 C64_11 1_555 1_555
Mn11_2 N1_11 1_555 1_555
N1_11 C53_11 1_555 1_555
O4_11 Mn11_2 1_555 1_555
H3_9 O4_11 1_555 1_555
H4_9 O4_11 1_555 1_555
O16_11 Mn11_2 1_555 1_555
O17_11 Mn9 1_555 1_555
H34_11 C34_11 1_555 1_555
C35_11 C34_11 1_555 1_555
C38_11 O16_11 1_555 1_555
C53_11 H45_11 1_555 1_555
C54_11 N1_11 1_555 1_555
H46_11 C54_11 1_555 1_555
Mn11_2 O17_11 1_555 1_555
O17_11 C38_11 1_555 1_555
C35_11 C38_11 1_555 1_555
Mn5 O2_11 1_555 1_555
O1_11 C5_11 1_555 1_555
O2_11 H1_11 1_555 1_555
H2_11 O2_11 1_555 1_555
O3_11 C2_11 1_555 1_555
O5_11 C3_11 1_555 1_555
O6_11 C4_11 1_555 1_555
O7_11 C7_11 1_555 1_555
O8_11 C8_11 1_555 1_555
O9_11 C9_11 1_555 1_555
O10_11 C17_11 1_555 1_555
O11_11 Mn5 1_555 1_555
O22_8 C24_11 1_555 1_555
O23_8 C24_11 1_555 1_555
O24_6 C31_11 1_555 1_555
O27_6 C52_11 1_555 1_555
O28_6 C52_11 1_555 1_555
C1_11 C2_11 1_555 1_555
C2_11 H5_11 1_555 1_555
H6_11 C2_11 1_555 1_555
C3_11 C1_11 1_555 1_555
H7_11 C3_11 1_555 1_555
H8_11 C3_11 1_555 1_555
C4_11 C1_11 1_555 1_555
H9_11 C4_11 1_555 1_555
H10_11 C4_11 1_555 1_555
C5_11 C1_11 1_555 1_555
H11_11 C5_11 1_555 1_555
H12_11 C5_11 1_555 1_555
C6_11 C7_11 1_555 1_555
C7_11 H13_11 1_555 1_555
H14_11 C7_11 1_555 1_555
C8_11 C6_11 1_555 1_555
H15_11 C8_11 1_555 1_555
H16_11 C8_11 1_555 1_555
C9_11 C6_11 1_555 1_555
H17_11 C9_11 1_555 1_555
H18_11 C9_11 1_555 1_555
C10_11 O1_11 1_555 1_555
H19_11 C10_11 1_555 1_555
H20_11 C10_11 1_555 1_555
C11_11 O3_11 1_555 1_555
C12_11 C11_11 1_555 1_555
H21_11 C12_11 1_555 1_555
C13_11 C12_11 1_555 1_555
H22_11 C13_11 1_555 1_555
C14_11 C13_11 1_555 1_555
C15_11 C14_11 1_555 1_555
H23_11 C15_11 1_555 1_555
C16_11 C11_11 1_555 1_555
H24_11 C16_11 1_555 1_555
C17_11 O11_11 1_555 1_555
C18_11 O5_11 1_555 1_555
C19_11 C18_11 1_555 1_555
H25_11 C19_11 1_555 1_555
C20_11 C19_11 1_555 1_555
H26_11 C20_11 1_555 1_555
C21_11 C20_11 1_555 1_555
C22_11 C21_11 1_555 1_555
H27_11 C22_11 1_555 1_555
C23_11 C18_11 1_555 1_555
H28_11 C23_11 1_555 1_555
C24_11 C21_11 1_555 1_555
C25_11 O6_11 1_555 1_555
C26_11 C25_11 1_555 1_555
H29_11 C26_11 1_555 1_555
C27_11 C26_11 1_555 1_555
H30_11 C27_11 1_555 1_555
C28_11 C27_11 1_555 1_555
C29_11 C28_11 1_555 1_555
C30_11 C25_11 1_555 1_555
H32_11 C30_11 1_555 1_555
C31_11 C28_11 1_555 1_555
C32_11 O7_11 1_555 1_555
C33_11 C32_11 1_555 1_555
H35_11 C36_11 1_555 1_555
C37_11 C32_11 1_555 1_555
H36_11 C37_11 1_555 1_555
C46_11 O9_11 1_555 1_555
C47_11 C46_11 1_555 1_555
H41_11 C47_11 1_555 1_555
C48_11 C47_11 1_555 1_555
H42_11 C48_11 1_555 1_555
C49_11 C48_11 1_555 1_555
C50_11 C49_11 1_555 1_555
H43_11 C50_11 1_555 1_555
C51_11 C46_11 1_555 1_555
H44_11 C51_11 1_555 1_555
C52_11 C49_11 1_555 1_555
C6_11 C10_11 1_555 1_555
C14_11 C17_11 1_555 1_555
C15_11 C16_11 1_555 1_555
C22_11 C23_11 1_555 1_555
C29_11 C30_11 1_555 1_555
C36_11 C37_11 1_555 1_555
C50_11 C51_11 1_555 1_555
Mn10_6 N1_12 1_555 1_555
N1_12 C53_12 1_555 1_555
N2_10 C53_12 1_555 1_555
N5_7 C62_12 1_555 1_555
N4_9 C59_9 1_555 1_555
O4_12 Mn10_6 1_555 1_555
H3_10 O4_12 1_555 1_555
H4_10 O4_12 1_555 1_555
O16_12 Mn10_6 1_555 1_555
O17_12 Mn7_6 1_555 1_555
H34_12 C34_12 1_555 1_555
C35_12 C34_12 1_555 1_555
C38_12 O16_12 1_555 1_555
C53_12 H45_12 1_555 1_555
C54_12 N1_12 1_555 1_555
H46_12 C54_12 1_555 1_555
C55_10 N2_10 1_555 1_555
H47_10 C55_10 1_555 1_555
C56_10 N2_10 1_555 1_555
C57_10 C56_10 1_555 1_555
H48_10 C57_10 1_555 1_555
C58_9 C57_10 1_555 1_555
H49_9 C58_9 1_555 1_555
C59_9 C58_9 1_555 1_555
C60_9 C59_9 1_555 1_555
H50_9 C60_9 1_555 1_555
C61_10 C56_10 1_555 1_555
H51_12 C61_10 1_555 1_555
C62_12 N4_9 1_555 1_555
H52_12 C62_12 1_555 1_555
C63_9 N4_9 1_555 1_555
H53_9 C63_9 1_555 1_555
C64_12 N5_7 1_555 1_555
H54_12 C64_12 1_555 1_555
O24_9 Mn7_6 1_555 1_555
O27_9 Mn7_6 1_555 1_555
Mn10_6 O17_12 1_555 1_555
Mn10_6 O24_9 1_555 1_555
O17_12 C38_12 1_555 1_555
C35_12 C38_12 1_555 1_555
C54_12 C55_10 1_555 1_555
C60_9 C61_10 1_555 1_555
C63_9 C64_12 1_555 1_555
Mn6_7 O2_12 1_555 1_555
O1_12 C5_12 1_555 1_555
O2_12 H1_12 1_555 1_555
H2_12 O2_12 1_555 1_555
O3_12 C2_12 1_555 1_555
O5_12 C3_12 1_555 1_555
O6_12 C4_12 1_555 1_555
O7_12 C7_12 1_555 1_555
O8_12 C8_12 1_555 1_555
O9_12 C9_12 1_555 1_555
O10_12 C17_12 1_555 1_555
O11_12 Mn6_7 1_555 1_555
O22_6 C24_12 1_555 1_555
O23_6 C24_12 1_555 1_555
O24_8 C31_12 1_555 1_555
O18_9 C45_12 1_555 1_555
O19_9 C45_12 1_555 1_555
O27_8 C52_12 1_555 1_555
O28_8 C52_12 1_555 1_555
C1_12 C2_12 1_555 1_555
C2_12 H5_12 1_555 1_555
H6_12 C2_12 1_555 1_555
C3_12 C1_12 1_555 1_555
H7_12 C3_12 1_555 1_555
H8_12 C3_12 1_555 1_555
C4_12 C1_12 1_555 1_555
H9_12 C4_12 1_555 1_555
H10_12 C4_12 1_555 1_555
C5_12 C1_12 1_555 1_555
H11_12 C5_12 1_555 1_555
H12_12 C5_12 1_555 1_555
C6_12 C7_12 1_555 1_555
C7_12 H13_12 1_555 1_555
H14_12 C7_12 1_555 1_555
C8_12 C6_12 1_555 1_555
H15_12 C8_12 1_555 1_555
H16_12 C8_12 1_555 1_555
C9_12 C6_12 1_555 1_555
H17_12 C9_12 1_555 1_555
H18_12 C9_12 1_555 1_555
C10_12 O1_12 1_555 1_555
H19_12 C10_12 1_555 1_555
H20_12 C10_12 1_555 1_555
C11_12 O3_12 1_555 1_555
C12_12 C11_12 1_555 1_555
H21_12 C12_12 1_555 1_555
C13_12 C12_12 1_555 1_555
H22_12 C13_12 1_555 1_555
C14_12 C13_12 1_555 1_555
C15_12 C14_12 1_555 1_555
H23_12 C15_12 1_555 1_555
C16_12 C11_12 1_555 1_555
H24_12 C16_12 1_555 1_555
C17_12 O11_12 1_555 1_555
C18_12 O5_12 1_555 1_555
C19_12 C18_12 1_555 1_555
H25_12 C19_12 1_555 1_555
C20_12 C19_12 1_555 1_555
H26_12 C20_12 1_555 1_555
C21_12 C20_12 1_555 1_555
C22_12 C21_12 1_555 1_555
H27_12 C22_12 1_555 1_555
C23_12 C18_12 1_555 1_555
H28_12 C23_12 1_555 1_555
C24_12 C21_12 1_555 1_555
C25_12 O6_12 1_555 1_555
C26_12 C25_12 1_555 1_555
H29_12 C26_12 1_555 1_555
C27_12 C26_12 1_555 1_555
H30_12 C27_12 1_555 1_555
C28_12 C27_12 1_555 1_555
C29_12 C28_12 1_555 1_555
C30_12 C25_12 1_555 1_555
H32_12 C30_12 1_555 1_555
C31_12 C28_12 1_555 1_555
C32_12 O7_12 1_555 1_555
C33_12 C32_12 1_555 1_555
H35_12 C36_12 1_555 1_555
C37_12 C32_12 1_555 1_555
H36_12 C37_12 1_555 1_555
C39_12 O8_12 1_555 1_555
C40_12 C39_12 1_555 1_555
H37_12 C40_12 1_555 1_555
C41_12 C40_12 1_555 1_555
H38_12 C41_12 1_555 1_555
C42_12 C41_12 1_555 1_555
C43_12 C42_12 1_555 1_555
H39_12 C43_12 1_555 1_555
C44_12 C39_12 1_555 1_555
H40_12 C44_12 1_555 1_555
C45_12 C42_12 1_555 1_555
C46_12 O9_12 1_555 1_555
C47_12 C46_12 1_555 1_555
H41_12 C47_12 1_555 1_555
C48_12 C47_12 1_555 1_555
H42_12 C48_12 1_555 1_555
C49_12 C48_12 1_555 1_555
C50_12 C49_12 1_555 1_555
H43_12 C50_12 1_555 1_555
C51_12 C46_12 1_555 1_555
H44_12 C51_12 1_555 1_555
C52_12 C49_12 1_555 1_555
Mn8_2 O19_9 1_555 1_555
Mn11_3 O18_9 1_555 1_555
O22_9 Mn6_7 1_555 1_555
O23_9 Mn6_7 1_555 1_555
O28_9 Mn6_7 1_555 1_555
C6_12 C10_12 1_555 1_555
C14_12 C17_12 1_555 1_555
C15_12 C16_12 1_555 1_555
C22_12 C23_12 1_555 1_555
C29_12 C30_12 1_555 1_555
C36_12 C37_12 1_555 1_555
C43_12 C44_12 1_555 1_555
C50_12 C51_12 1_555 1_555
Mn7_7 O10_13 1_555 1_555
Mn10_7 N1_13 1_555 1_555
N1_13 C53_13 1_555 1_555
N2_11 C53_13 1_555 1_555
N5_2 C62_13 1_555 1_555
N4_10 C59_10 1_555 1_555
O4_13 Mn10_7 1_555 1_555
H3_11 O4_13 1_555 1_555
H4_11 O4_13 1_555 1_555
O7_13 C7_13 1_555 1_555
O10_13 C17_13 1_555 1_555
O14_13 C31_13 1_555 1_555
O24_9 C31_13 1_555 1_555
O16_13 Mn10_7 1_555 1_555
O17_13 Mn7_7 1_555 1_555
C2_13 H5_13 1_555 1_555
H6_13 C2_13 1_555 1_555
H9_13 C4_13 1_555 1_555
H10_13 C4_13 1_555 1_555
C7_13 H13_13 1_555 1_555
H14_13 C7_13 1_555 1_555
H17_13 C9_13 1_555 1_555
H18_13 C9_13 1_555 1_555
H21_13 C12_13 1_555 1_555
C13_13 C12_13 1_555 1_555
H22_13 C13_13 1_555 1_555
H30_13 C27_13 1_555 1_555
C28_13 C27_13 1_555 1_555
C29_13 C28_13 1_555 1_555
H31_13 C29_13 1_555 1_555
C30_13 C25_13 1_555 1_555
H32_13 C30_13 1_555 1_555
C31_13 C28_13 1_555 1_555
C32_13 O7_13 1_555 1_555
C33_13 C32_13 1_555 1_555
H33_13 C33_13 1_555 1_555
C34_13 C33_13 1_555 1_555
H34_13 C34_13 1_555 1_555
C35_13 C34_13 1_555 1_555
C36_13 C35_13 1_555 1_555
H35_13 C36_13 1_555 1_555
C37_13 C32_13 1_555 1_555
C38_13 O16_13 1_555 1_555
H43_13 C50_13 1_555 1_555
H44_13 C51_13 1_555 1_555
C53_13 H45_13 1_555 1_555
C54_13 N1_13 1_555 1_555
H46_13 C54_13 1_555 1_555
C55_11 N2_11 1_555 1_555
H47_11 C55_11 1_555 1_555
C56_11 N2_11 1_555 1_555
C57_11 C56_11 1_555 1_555
H48_11 C57_11 1_555 1_555
C58_10 C57_11 1_555 1_555
H49_10 C58_10 1_555 1_555
C59_10 C58_10 1_555 1_555
C60_10 C59_10 1_555 1_555
H50_10 C60_10 1_555 1_555
C61_11 C56_11 1_555 1_555
H51_13 C61_11 1_555 1_555
C62_13 N4_10 1_555 1_555
H52_13 C62_13 1_555 1_555
C63_10 N4_10 1_555 1_555
H53_10 C63_10 1_555 1_555
C64_13 N5_2 1_555 1_555
H54_13 C64_13 1_555 1_555
O24_10 Mn7_7 1_555 1_555
O27_10 Mn7_7 1_555 1_555
Mn7_7 O22_10 1_555 1_555
Mn10_7 O17_13 1_555 1_555
Mn10_7 O24_10 1_555 1_555
O17_13 C38_13 1_555 1_555
C29_13 C30_13 1_555 1_555
C35_13 C38_13 1_555 1_555
C36_13 C37_13 1_555 1_555
C50_13 C51_13 1_555 1_555
C54_13 C55_11 1_555 1_555
C60_10 C61_11 1_555 1_555
C63_10 C64_13 1_555 1_555
Mn6_2 O2_13 1_555 1_555
O1_13 C5_13 1_555 1_555
O2_13 H1_13 1_555 1_555
H2_13 O2_13 1_555 1_555
O5_13 C3_13 1_555 1_555
O8_13 C8_13 1_555 1_555
O11_13 Mn6_2 1_555 1_555
O22_7 C24_13 1_555 1_555
O23_7 C24_13 1_555 1_555
O18_10 C45_13 1_555 1_555
O19_10 C45_13 1_555 1_555
O28_9 C52_13 1_555 1_555
C3_13 C1_13 1_555 1_555
H7_13 C3_13 1_555 1_555
H8_13 C3_13 1_555 1_555
C5_13 C1_13 1_555 1_555
H11_13 C5_13 1_555 1_555
H12_13 C5_13 1_555 1_555
C8_13 C6_13 1_555 1_555
H15_13 C8_13 1_555 1_555
H16_13 C8_13 1_555 1_555
C10_13 O1_13 1_555 1_555
H19_13 C10_13 1_555 1_555
H20_13 C10_13 1_555 1_555
C11_13 O3_13 1_555 1_555
C15_13 C14_13 1_555 1_555
H23_13 C15_13 1_555 1_555
C16_13 C11_13 1_555 1_555
H24_13 C16_13 1_555 1_555
C18_13 O5_13 1_555 1_555
C19_13 C18_13 1_555 1_555
C20_13 C19_13 1_555 1_555
C21_13 C20_13 1_555 1_555
C22_13 C21_13 1_555 1_555
H27_13 C22_13 1_555 1_555
C23_13 C18_13 1_555 1_555
H28_13 C23_13 1_555 1_555
C24_13 C21_13 1_555 1_555
H29_13 C26_13 1_555 1_555
C39_13 O8_13 1_555 1_555
C40_13 C39_13 1_555 1_555
C41_13 C40_13 1_555 1_555
H38_13 C41_13 1_555 1_555
C42_13 C41_13 1_555 1_555
C43_13 C42_13 1_555 1_555
H39_13 C43_13 1_555 1_555
C44_13 C39_13 1_555 1_555
H40_13 C44_13 1_555 1_555
C45_13 C42_13 1_555 1_555
C46_13 O9_13 1_555 1_555
C47_13 C46_13 1_555 1_555
H41_13 C47_13 1_555 1_555
C48_13 C47_13 1_555 1_555
H42_13 C48_13 1_555 1_555
C49_13 C48_13 1_555 1_555
C52_13 C49_13 1_555 1_555
Mn9_2 O19_10 1_555 1_555
Mn11_4 O18_10 1_555 1_555
O23_10 Mn6_2 1_555 1_555
C6_13 C10_13 1_555 1_555
C15_13 C16_13 1_555 1_555
C22_13 C23_13 1_555 1_555
C43_13 C44_13 1_555 1_555
Mn8_2 O10_14 1_555 1_555
Mn11_3 N1_14 1_555 1_555
N1_14 C53_14 1_555 1_555
N2_12 C53_14 1_555 1_555
N5 C62_14 1_555 1_555
N4_11 C59_11 1_555 1_555
O4_14 Mn11_3 1_555 1_555
H3_12 O4_14 1_555 1_555
H4_12 O4_14 1_555 1_555
O7_14 C7_14 1_555 1_555
O10_14 C17_14 1_555 1_555
O14_14 C31_14 1_555 1_555
O24_7 C31_14 1_555 1_555
O16_14 Mn11_3 1_555 1_555
O17_14 Mn8_2 1_555 1_555
C2_14 H5_14 1_555 1_555
H6_14 C2_14 1_555 1_555
H9_14 C4_14 1_555 1_555
H10_14 C4_14 1_555 1_555
C7_14 H13_14 1_555 1_555
H14_14 C7_14 1_555 1_555
H17_14 C9_14 1_555 1_555
H18_14 C9_14 1_555 1_555
H21_14 C12_14 1_555 1_555
C13_14 C12_14 1_555 1_555
H22_14 C13_14 1_555 1_555
H30_14 C27_14 1_555 1_555
C28_14 C27_14 1_555 1_555
C29_14 C28_14 1_555 1_555
H31_14 C29_14 1_555 1_555
C30_14 C25_14 1_555 1_555
H32_14 C30_14 1_555 1_555
C31_14 C28_14 1_555 1_555
C32_14 O7_14 1_555 1_555
C33_14 C32_14 1_555 1_555
H33_14 C33_14 1_555 1_555
C34_14 C33_14 1_555 1_555
H34_14 C34_14 1_555 1_555
C35_14 C34_14 1_555 1_555
C36_14 C35_14 1_555 1_555
H35_14 C36_14 1_555 1_555
C37_14 C32_14 1_555 1_555
C38_14 O16_14 1_555 1_555
H43_14 C50_14 1_555 1_555
H44_14 C51_14 1_555 1_555
C53_14 H45_14 1_555 1_555
C54_14 N1_14 1_555 1_555
H46_14 C54_14 1_555 1_555
C55_12 N2_12 1_555 1_555
H47_12 C55_12 1_555 1_555
C56_12 N2_12 1_555 1_555
C57_12 C56_12 1_555 1_555
H48_12 C57_12 1_555 1_555
C58_11 C57_12 1_555 1_555
H49_11 C58_11 1_555 1_555
C59_11 C58_11 1_555 1_555
C60_11 C59_11 1_555 1_555
H50_11 C60_11 1_555 1_555
C61_12 C56_12 1_555 1_555
H51_14 C61_12 1_555 1_555
C62_14 N4_11 1_555 1_555
H52_14 C62_14 1_555 1_555
C63_11 N4_11 1_555 1_555
H53_11 C63_11 1_555 1_555
C64_14 N5 1_555 1_555
H54_14 C64_14 1_555 1_555
Mn11_3 O17_14 1_555 1_555
O17_14 C38_14 1_555 1_555
C29_14 C30_14 1_555 1_555
C35_14 C38_14 1_555 1_555
C36_14 C37_14 1_555 1_555
C50_14 C51_14 1_555 1_555
C54_14 C55_12 1_555 1_555
C60_11 C61_12 1_555 1_555
C63_11 C64_14 1_555 1_555
Mn6 O2_14 1_555 1_555
O1_14 C5_14 1_555 1_555
O2_14 H1_14 1_555 1_555
H2_14 O2_14 1_555 1_555
O5_14 C3_14 1_555 1_555
O8_14 C8_14 1_555 1_555
O11_14 Mn6 1_555 1_555
O22_9 C24_14 1_555 1_555
O23_9 C24_14 1_555 1_555
O25_3 C45_14 1_555 1_555
O26_3 C45_14 1_555 1_555
O28_7 C52_14 1_555 1_555
C3_14 C1_14 1_555 1_555
H7_14 C3_14 1_555 1_555
H8_14 C3_14 1_555 1_555
C5_14 C1_14 1_555 1_555
H11_14 C5_14 1_555 1_555
H12_14 C5_14 1_555 1_555
C8_14 C6_14 1_555 1_555
H15_14 C8_14 1_555 1_555
H16_14 C8_14 1_555 1_555
C10_14 O1_14 1_555 1_555
H19_14 C10_14 1_555 1_555
H20_14 C10_14 1_555 1_555
C11_14 O3_14 1_555 1_555
C15_14 C14_14 1_555 1_555
H23_14 C15_14 1_555 1_555
C16_14 C11_14 1_555 1_555
H24_14 C16_14 1_555 1_555
C18_14 O5_14 1_555 1_555
C19_14 C18_14 1_555 1_555
C20_14 C19_14 1_555 1_555
C21_14 C20_14 1_555 1_555
C22_14 C21_14 1_555 1_555
H27_14 C22_14 1_555 1_555
C23_14 C18_14 1_555 1_555
H28_14 C23_14 1_555 1_555
C24_14 C21_14 1_555 1_555
H29_14 C26_14 1_555 1_555
C39_14 O8_14 1_555 1_555
C40_14 C39_14 1_555 1_555
C41_14 C40_14 1_555 1_555
H38_14 C41_14 1_555 1_555
C42_14 C41_14 1_555 1_555
C43_14 C42_14 1_555 1_555
H39_14 C43_14 1_555 1_555
C44_14 C39_14 1_555 1_555
H40_14 C44_14 1_555 1_555
C45_14 C42_14 1_555 1_555
C46_14 O9_14 1_555 1_555
C47_14 C46_14 1_555 1_555
H41_14 C47_14 1_555 1_555
C48_14 C47_14 1_555 1_555
H42_14 C48_14 1_555 1_555
C49_14 C48_14 1_555 1_555
C52_14 C49_14 1_555 1_555
C6_14 C10_14 1_555 1_555
C15_14 C16_14 1_555 1_555
C22_14 C23_14 1_555 1_555
C43_14 C44_14 1_555 1_555
N5_4 C62_15 1_555 1_555
N4_12 C59_12 1_555 1_555
H49_12 C58_12 1_555 1_555
C59_12 C58_12 1_555 1_555
C60_12 C59_12 1_555 1_555
H50_12 C60_12 1_555 1_555
C62_15 N4_12 1_555 1_555
H52_15 C62_15 1_555 1_555
C63_12 N4_12 1_555 1_555
H53_12 C63_12 1_555 1_555
C64_15 N5_4 1_555 1_555
H54_15 C64_15 1_555 1_555
C63_12 C64_15 1_555 1_555
O25_4 C45_15 1_555 1_555
C40_15 C39_15 1_555 1_555
H37_15 C40_15 1_555 1_555
C41_15 C40_15 1_555 1_555
H38_15 C41_15 1_555 1_555
C42_15 C41_15 1_555 1_555
C44_15 C39_15 1_555 1_555
C45_15 C42_15 1_555 1_555
C55_13 N2_13 1_555 1_555
H47_13 C55_13 1_555 1_555
C56_13 N2_13 1_555 1_555
C57_13 C56_13 1_555 1_555
H48_13 C57_13 1_555 1_555
C61_13 C56_13 1_555 1_555
H39_15 C43_15 1_555 1_555
Mn6_4 O2_15 1_555 1_555
Mn9_2 O10_15 1_555 1_555
Mn11_4 N1_15 1_555 1_555
N1_15 C53_15 1_555 1_555
O1_15 C5_15 1_555 1_555
O3_15 C2_15 1_555 1_555
O4_15 Mn11_4 1_555 1_555
O5_15 C3_15 1_555 1_555
O6_15 C4_15 1_555 1_555
O7_15 C7_15 1_555 1_555
O8_15 C8_15 1_555 1_555
O9_15 C9_15 1_555 1_555
O10_15 C17_15 1_555 1_555
O11_15 Mn6_4 1_555 1_555
O22_10 C24_15 1_555 1_555
O14_15 C31_15 1_555 1_555
O24_2 C31_15 1_555 1_555
O16_15 Mn11_4 1_555 1_555
O17_15 Mn9_2 1_555 1_555
O27_2 C52_15 1_555 1_555
O28_2 C52_15 1_555 1_555
C1_15 C2_15 1_555 1_555
C2_15 H5_15 1_555 1_555
H6_15 C2_15 1_555 1_555
C3_15 C1_15 1_555 1_555
H7_15 C3_15 1_555 1_555
H8_15 C3_15 1_555 1_555
C4_15 C1_15 1_555 1_555
H9_15 C4_15 1_555 1_555
H10_15 C4_15 1_555 1_555
C5_15 C1_15 1_555 1_555
H11_15 C5_15 1_555 1_555
H12_15 C5_15 1_555 1_555
C6_15 C7_15 1_555 1_555
C7_15 H13_15 1_555 1_555
H14_15 C7_15 1_555 1_555
C8_15 C6_15 1_555 1_555
H15_15 C8_15 1_555 1_555
H16_15 C8_15 1_555 1_555
C9_15 C6_15 1_555 1_555
H17_15 C9_15 1_555 1_555
H18_15 C9_15 1_555 1_555
C10_15 O1_15 1_555 1_555
H19_15 C10_15 1_555 1_555
H20_15 C10_15 1_555 1_555
C11_15 O3_15 1_555 1_555
C12_15 C11_15 1_555 1_555
H21_15 C12_15 1_555 1_555
C13_15 C12_15 1_555 1_555
H22_15 C13_15 1_555 1_555
C14_15 C13_15 1_555 1_555
C15_15 C14_15 1_555 1_555
H23_15 C15_15 1_555 1_555
C16_15 C11_15 1_555 1_555
H24_15 C16_15 1_555 1_555
C17_15 O11_15 1_555 1_555
C18_15 O5_15 1_555 1_555
C19_15 C18_15 1_555 1_555
H25_15 C19_15 1_555 1_555
C20_15 C19_15 1_555 1_555
H26_15 C20_15 1_555 1_555
C21_15 C20_15 1_555 1_555
C23_15 C18_15 1_555 1_555
C24_15 C21_15 1_555 1_555
C25_15 O6_15 1_555 1_555
C26_15 C25_15 1_555 1_555
H29_15 C26_15 1_555 1_555
C27_15 C26_15 1_555 1_555
H30_15 C27_15 1_555 1_555
C28_15 C27_15 1_555 1_555
C29_15 C28_15 1_555 1_555
H31_15 C29_15 1_555 1_555
C30_15 C25_15 1_555 1_555
H32_15 C30_15 1_555 1_555
C31_15 C28_15 1_555 1_555
C32_15 O7_15 1_555 1_555
C33_15 C32_15 1_555 1_555
H33_15 C33_15 1_555 1_555
C34_15 C33_15 1_555 1_555
H34_15 C34_15 1_555 1_555
C35_15 C34_15 1_555 1_555
C36_15 C35_15 1_555 1_555
H35_15 C36_15 1_555 1_555
C37_15 C32_15 1_555 1_555
H36_15 C37_15 1_555 1_555
C38_15 O16_15 1_555 1_555
C46_15 O9_15 1_555 1_555
C47_15 C46_15 1_555 1_555
H41_15 C47_15 1_555 1_555
C48_15 C47_15 1_555 1_555
H42_15 C48_15 1_555 1_555
C49_15 C48_15 1_555 1_555
C50_15 C49_15 1_555 1_555
H43_15 C50_15 1_555 1_555
C51_15 C46_15 1_555 1_555
H44_15 C51_15 1_555 1_555
C52_15 C49_15 1_555 1_555
C53_15 H45_15 1_555 1_555
C54_15 N1_15 1_555 1_555
H46_15 C54_15 1_555 1_555
Mn11_4 O17_15 1_555 1_555
O17_15 C38_15 1_555 1_555
C6_15 C10_15 1_555 1_555
C14_15 C17_15 1_555 1_555
C15_15 C16_15 1_555 1_555
C29_15 C30_15 1_555 1_555
C35_15 C38_15 1_555 1_555
C36_15 C37_15 1_555 1_555
C50_15 C51_15 1_555 1_555
H27_15 C22_15 1_555 1_555
N5_3 C62_16 1_555 1_555
H52_16 C62_16 1_555 1_555
C64_16 N5_3 1_555 1_555
H54_16 C64_16 1_555 1_555
Mn6_3 O2_16 1_555 1_555
Mn7_2 O10_16 1_555 1_555
Mn10_2 N1_16 1_555 1_555
N1_16 C53_16 1_555 1_555
N2_14 C53_16 1_555 1_555
O1_16 C5_16 1_555 1_555
O3_16 C2_16 1_555 1_555
O4_16 Mn10_2 1_555 1_555
O5_16 C3_16 1_555 1_555
O6_16 C4_16 1_555 1_555
O7_16 C7_16 1_555 1_555
O8_16 C8_16 1_555 1_555
O9_16 C9_16 1_555 1_555
O10_16 C17_16 1_555 1_555
O11_16 Mn6_3 1_555 1_555
O22_2 C24_16 1_555 1_555
O14_16 C31_16 1_555 1_555
O24_10 C31_16 1_555 1_555
O16_16 Mn10_2 1_555 1_555
O17_16 Mn7_2 1_555 1_555
O25_6 C45_16 1_555 1_555
O27_10 C52_16 1_555 1_555
O28_10 C52_16 1_555 1_555
C1_16 C2_16 1_555 1_555
C2_16 H5_16 1_555 1_555
H6_16 C2_16 1_555 1_555
C3_16 C1_16 1_555 1_555
H7_16 C3_16 1_555 1_555
H8_16 C3_16 1_555 1_555
C4_16 C1_16 1_555 1_555
H9_16 C4_16 1_555 1_555
H10_16 C4_16 1_555 1_555
C5_16 C1_16 1_555 1_555
H11_16 C5_16 1_555 1_555
H12_16 C5_16 1_555 1_555
C6_16 C7_16 1_555 1_555
C7_16 H13_16 1_555 1_555
H14_16 C7_16 1_555 1_555
C8_16 C6_16 1_555 1_555
H15_16 C8_16 1_555 1_555
H16_16 C8_16 1_555 1_555
C9_16 C6_16 1_555 1_555
H17_16 C9_16 1_555 1_555
H18_16 C9_16 1_555 1_555
C10_16 O1_16 1_555 1_555
H19_16 C10_16 1_555 1_555
H20_16 C10_16 1_555 1_555
C11_16 O3_16 1_555 1_555
C12_16 C11_16 1_555 1_555
H21_16 C12_16 1_555 1_555
C13_16 C12_16 1_555 1_555
H22_16 C13_16 1_555 1_555
C14_16 C13_16 1_555 1_555
C15_16 C14_16 1_555 1_555
H23_16 C15_16 1_555 1_555
C16_16 C11_16 1_555 1_555
H24_16 C16_16 1_555 1_555
C17_16 O11_16 1_555 1_555
C18_16 O5_16 1_555 1_555
C19_16 C18_16 1_555 1_555
H25_16 C19_16 1_555 1_555
C20_16 C19_16 1_555 1_555
H26_16 C20_16 1_555 1_555
C21_16 C20_16 1_555 1_555
C23_16 C18_16 1_555 1_555
C24_16 C21_16 1_555 1_555
C25_16 O6_16 1_555 1_555
C26_16 C25_16 1_555 1_555
H29_16 C26_16 1_555 1_555
C27_16 C26_16 1_555 1_555
H30_16 C27_16 1_555 1_555
C28_16 C27_16 1_555 1_555
C29_16 C28_16 1_555 1_555
H31_16 C29_16 1_555 1_555
C30_16 C25_16 1_555 1_555
H32_16 C30_16 1_555 1_555
C31_16 C28_16 1_555 1_555
C32_16 O7_16 1_555 1_555
C33_16 C32_16 1_555 1_555
H33_16 C33_16 1_555 1_555
C34_16 C33_16 1_555 1_555
H34_16 C34_16 1_555 1_555
C35_16 C34_16 1_555 1_555
C36_16 C35_16 1_555 1_555
H35_16 C36_16 1_555 1_555
C37_16 C32_16 1_555 1_555
H36_16 C37_16 1_555 1_555
C38_16 O16_16 1_555 1_555
C39_16 O8_16 1_555 1_555
C40_16 C39_16 1_555 1_555
H37_16 C40_16 1_555 1_555
C41_16 C40_16 1_555 1_555
H38_16 C41_16 1_555 1_555
C42_16 C41_16 1_555 1_555
C44_16 C39_16 1_555 1_555
C45_16 C42_16 1_555 1_555
C46_16 O9_16 1_555 1_555
C47_16 C46_16 1_555 1_555
H41_16 C47_16 1_555 1_555
C48_16 C47_16 1_555 1_555
H42_16 C48_16 1_555 1_555
C49_16 C48_16 1_555 1_555
C50_16 C49_16 1_555 1_555
H43_16 C50_16 1_555 1_555
C51_16 C46_16 1_555 1_555
H44_16 C51_16 1_555 1_555
C52_16 C49_16 1_555 1_555
C53_16 H45_16 1_555 1_555
C54_16 N1_16 1_555 1_555
H46_16 C54_16 1_555 1_555
C55_14 N2_14 1_555 1_555
H47_14 C55_14 1_555 1_555
C56_14 N2_14 1_555 1_555
C57_14 C56_14 1_555 1_555
H48_14 C57_14 1_555 1_555
C61_14 C56_14 1_555 1_555
H51_16 C61_14 1_555 1_555
Mn10_2 O17_16 1_555 1_555
O17_16 C38_16 1_555 1_555
C6_16 C10_16 1_555 1_555
C14_16 C17_16 1_555 1_555
C15_16 C16_16 1_555 1_555
C29_16 C30_16 1_555 1_555
C35_16 C38_16 1_555 1_555
C36_16 C37_16 1_555 1_555
C50_16 C51_16 1_555 1_555
C54_16 C55_14 1_555 1_555
H27_16 C22_16 1_555 1_555
H39_16 C43_16 1_555 1_555
N4_13 C59_13 1_555 1_555
H49_13 C58_13 1_555 1_555
C59_13 C58_13 1_555 1_555
C60_13 C59_13 1_555 1_555
H50_13 C60_13 1_555 1_555
C63_13 N4_13 1_555 1_555
H53_13 C63_13 1_555 1_555
N4_14 C59_14 1_555 1_555
C55_15 N2_15 1_555 1_555
H47_15 C55_15 1_555 1_555
C56_15 N2_15 1_555 1_555
C57_15 C56_15 1_555 1_555
H48_15 C57_15 1_555 1_555
C58_14 C57_15 1_555 1_555
H49_14 C58_14 1_555 1_555
C59_14 C58_14 1_555 1_555
C60_14 C59_14 1_555 1_555
H50_14 C60_14 1_555 1_555
C61_15 C56_15 1_555 1_555
C63_14 N4_14 1_555 1_555
H53_14 C63_14 1_555 1_555
C60_14 C61_15 1_555 1_555
N4_15 C59_15 1_555 1_555
C55_16 N2_16 1_555 1_555
H47_16 C55_16 1_555 1_555
C56_16 N2_16 1_555 1_555
C57_16 C56_16 1_555 1_555
H48_16 C57_16 1_555 1_555
C58_15 C57_16 1_555 1_555
H49_15 C58_15 1_555 1_555
C59_15 C58_15 1_555 1_555
C60_15 C59_15 1_555 1_555
H50_15 C60_15 1_555 1_555
C61_16 C56_16 1_555 1_555
C63_15 N4_15 1_555 1_555
H53_15 C63_15 1_555 1_555
C60_15 C61_16 1_555 1_555
N4_16 C59_16 1_555 1_555
H49_16 C58_16 1_555 1_555
C59_16 C58_16 1_555 1_555
C60_16 C59_16 1_555 1_555
H50_16 C60_16 1_555 1_555
C63_16 N4_16 1_555 1_555
H53_16 C63_16 1_555 1_555

#END
