
###############################################################################
#
# This file contains modified crystal structure data generated from the
# MOF subset of the Cambridge Structural Database (CSD) v543 
# hosted by the Cambridge Crystallographic Data Centre (CCDC).
#
# This work is licensed under the Creative Commons
# Attribution-NonCommercial-ShareAlike 4.0 International License.
# To view a copy of this license, visit
# http://creativecommons.org/licenses/by-nc-sa/4.0/
# or send a letter to
# Creative Commons, PO Box 1866, Mountain View, CA 94042, USA.
#
# CIF created using the CSD Python API on 29 September 2022
# The structure has been converted into the P1 space group
# The structure has a 3D framework
# The original CSD entry AFUKAP is in the monoclinic crystal system
# The framework has been calculated to contain at least 10.0% void space
# The void calculation uses a probe of radius 1.32A, grid spacing 0.4
#
###############################################################################

data_AFUKAP
_chemical_formula_moiety         '(C256 H200 Mn12 N16 O78)n'
_symmetry_cell_setting           triclinic
_symmetry_space_group_name_H-M   'P 1'
_symmetry_Int_Tables_number      1
_space_group_name_Hall           'P 1'
loop_
_symmetry_equiv_pos_site_id
_symmetry_equiv_pos_as_xyz
1 x,y,z
_cell_length_a                   29.960(7)
_cell_length_b                   20.191(5)
_cell_length_c                   16.386(4)
_cell_angle_alpha                90
_cell_angle_beta                 110.129(4)
_cell_angle_gamma                90
_cell_volume                     9306.82
loop_
_atom_site_label
_atom_site_type_symbol
_atom_site_fract_x
_atom_site_fract_y
_atom_site_fract_z
O3 O 0.09240(16) 0.3040(2) 0.0496(3)
O7 O 0.21843(17) 0.3441(2) 0.4421(3)
O8 O 0.2209(2) 0.4454(3) 0.3997(3)
C13 C 0.1187(2) 0.3279(3) 0.1284(4)
C14 C 0.1415(3) 0.2789(4) 0.1911(4)
H13 H 0.1381 0.2341 0.1774
C15 C 0.1685(2) 0.3002(4) 0.2723(4)
H14 H 0.1826 0.2687 0.3147
C16 C 0.1757(2) 0.3656(3) 0.2938(4)
C17 C 0.1547(3) 0.4120(4) 0.2327(4)
H15 H 0.1601 0.4566 0.2463
C18 C 0.1248(3) 0.3931(4) 0.1482(4)
H16 H 0.1095 0.4250 0.1071
C19 C 0.2064(2) 0.3851(4) 0.3829(4)
Mn6 Mn 0.2500 0.2500 0.5000
Mn11 Mn 0.26663(3) 0.41283(4) 0.54034(6)
O1 O 0.0000 0.3203(3) 0.7500
O4 O 0.12066(16) 0.3275(2) 0.8741(3)
O9 O 0.22870(15) 0.2732(2) 0.6078(3)
O10 O 0.24279(16) 0.3804(2) 0.6383(3)
C1 C 0.04737(19) 0.3109(3) 0.8984(4)
C2 C 0.0146(2) 0.2564(3) 0.9108(4)
H1 H 0.0326 0.2251 0.9536
C3 C 0.0690(2) 0.3495(3) 0.9827(4)
H3 H 0.0443 0.3719 0.9969
H4 H 0.0909 0.3820 0.9759
C4 C 0.0881(2) 0.2765(4) 0.8743(4)
H5 H 0.0754 0.2561 0.8181
H6 H 0.1031 0.2431 0.9165
C5 C 0.0208(2) 0.3571(3) 0.8261(4)
H7 H 0.0420 0.3896 0.8168
C20 C 0.1480(2) 0.3210(3) 0.8214(4)
C21 C 0.1504(2) 0.2643(3) 0.7773(4)
H17 H 0.1350 0.2258 0.7842
C22 C 0.1772(2) 0.2663(3) 0.7208(4)
H18 H 0.1787 0.2287 0.6889
C23 C 0.2005(2) 0.3219(3) 0.7124(4)
C24 C 0.2001(2) 0.3769(4) 0.7631(4)
H19 H 0.2180 0.4142 0.7614
C25 C 0.1726(2) 0.3758(3) 0.8167(4)
H20 H 0.1713 0.4129 0.8493
C26 C 0.2266(2) 0.3252(3) 0.6491(4)
O11 O 0.01927(16) 0.2884(3) 0.5603(4)
O14 O 0.16723(19) 0.0928(3) 0.4867(4)
O15 O 0.18739(13) 0.1861(2) 0.4436(3)
H32 H 0.0006 0.2335 0.6430
H38 H 0.0036 0.3796 0.6591
C44 C 0.0520(2) 0.2505(4) 0.5407(5)
C45 C 0.0581(3) 0.1840(4) 0.5554(6)
H39 H 0.0397 0.1605 0.5810
C46 C 0.0937(2) 0.1516(4) 0.5303(5)
H40 H 0.0980 0.1061 0.5383
C47 C 0.1221(2) 0.1868(4) 0.4943(4)
C48 C 0.1143(2) 0.2542(4) 0.4800(5)
H41 H 0.1333 0.2786 0.4565
C49 C 0.0796(3) 0.2841(4) 0.5001(6)
H42 H 0.0736 0.3287 0.4867
C50 C 0.1603(2) 0.1531(4) 0.4734(4)
Mn3 Mn 0.23337(3) 0.08717(4) 0.45966(6)
O22 O 0.28157(17) 0.1559(2) 0.5579(3)
O24 O 0.2791(2) 0.0546(3) 0.6003(3)
O27 O 0.25721(16) 0.1196(2) 0.3617(3)
N5 N 0.2368(2) 0.9860(3) 0.4203(4)
Mn1 Mn 0.7500 0.2500 0.0000
Mn2 Mn 0.76663(3) 0.08717(4) 0.04034(6)
O5 O 0.83277(19) 0.0928(3) 0.0133(4)
O6 O 0.81261(13) 0.1861(2) 0.0564(3)
C9 C 0.8779(2) 0.1868(4) 0.0057(4)
C10 C 0.8857(2) 0.2542(4) 0.0200(5)
H11 H 0.8667 0.2786 0.0435
H12 H 0.9264 0.3287 0.0133
C12 C 0.8397(2) 0.1531(4) 0.0266(4)
O21 O 0.78157(17) 0.3441(2) 0.0579(3)
O26 O 0.72870(15) 0.2268(2) 0.1078(3)
O28 O 0.74279(16) 0.1196(2) 0.1383(3)
Mn1_2 Mn 0.7500 0.2500 1.0000
O1_2 O 1.0000 0.3203(3) 0.7500
O2 O 0.98073(16) 0.2884(3) 0.9397(4)
H2 H 0.9994 0.2335 0.8570
H8 H 0.9964 0.3796 0.8409
C6 C 0.9480(2) 0.2505(4) 0.9593(5)
C7 C 0.9419(3) 0.1840(4) 0.9446(6)
H9 H 0.9603 0.1605 0.9190
C8 C 0.9063(2) 0.1516(4) 0.9697(5)
H10 H 0.9020 0.1061 0.9617
C11 C 0.9204(3) 0.2841(4) 0.9999(6)
O12 O 0.90760(16) 0.3040(2) 0.4504(3)
O13 O 0.87934(16) 0.3275(2) 0.6259(3)
O17 O 0.7791(2) 0.4454(3) 0.1003(3)
O18 O 0.77130(15) 0.2732(2) 0.8922(3)
O19 O 0.75721(16) 0.3804(2) 0.8617(3)
C39 C 0.95263(19) 0.3109(3) 0.6016(4)
C40 C 0.9854(2) 0.2564(3) 0.5892(4)
H31 H 0.9674 0.2251 0.5464
C41 C 0.9310(2) 0.3495(3) 0.5173(4)
H33 H 0.9557 0.3719 0.5031
H34 H 0.9091 0.3820 0.5241
C42 C 0.9119(2) 0.2765(4) 0.6257(4)
H35 H 0.9246 0.2561 0.6819
H36 H 0.8969 0.2431 0.5835
C43 C 0.9792(2) 0.3571(3) 0.6739(4)
H37 H 0.9580 0.3896 0.6832
C51 C 0.8813(2) 0.3279(3) 0.3716(4)
C52 C 0.8585(3) 0.2789(4) 0.3089(4)
H43 H 0.8619 0.2341 0.3226
C53 C 0.8315(2) 0.3002(4) 0.2277(4)
H44 H 0.8174 0.2687 0.1853
C54 C 0.8243(2) 0.3656(3) 0.2062(4)
C55 C 0.8453(3) 0.4120(4) 0.2673(4)
H45 H 0.8399 0.4566 0.2537
C56 C 0.8752(3) 0.3931(4) 0.3518(4)
H46 H 0.8905 0.4250 0.3929
C57 C 0.7936(2) 0.3851(4) 0.1171(4)
C58 C 0.8520(2) 0.3210(3) 0.6786(4)
C59 C 0.8496(2) 0.2643(3) 0.7227(4)
H47 H 0.8650 0.2258 0.7158
C60 C 0.8228(2) 0.2663(3) 0.7792(4)
H48 H 0.8213 0.2287 0.8111
C61 C 0.7995(2) 0.3219(3) 0.7876(4)
C62 C 0.7999(2) 0.3769(4) 0.7369(4)
H49 H 0.7820 0.4142 0.7386
C63 C 0.8274(2) 0.3758(3) 0.6833(4)
H50 H 0.8287 0.4129 0.6507
C64 C 0.7734(2) 0.3252(3) 0.8509(4)
Mn9 Mn 0.73337(3) 0.41283(4) 0.95966(6)
O20 O 0.68739(13) 0.3139(2) 0.9436(3)
O23 O 0.71843(17) 0.1559(2) 0.9421(3)
O25 O 0.7209(2) 0.0546(3) 0.8997(3)
N1 N 0.7632(2) 0.9860(3) 0.0797(4)
N2 N 0.7559(2) 0.8772(3) 0.0697(4)
C27 C 0.7571(4) 0.9613(3) 0.1542(6)
H21 H 0.7549 0.9882 0.2010
C28 C 0.7520(4) 0.8962(4) 0.1478(5)
H22 H 0.7467 0.8682 0.1886
C29 C 0.7614(2) 0.9319(3) 0.0301(4)
C30 C 0.7526(2) 0.8122(3) 0.0341(4)
C31 C 0.7234(3) 0.7672(3) 0.0492(5)
H24 H 0.7055 0.7784 0.0837
C32 C 0.7196(3) 0.7046(3) 0.0141(5)
H25 H 0.6972 0.6784 0.0301
H28 H 0.7363 0.5669 0.0250
H23 H 0.7637 0.9331 0.9750
N3 N 0.7368(2) 0.5140(3) 0.9203(4)
N4 N 0.7441(2) 0.6228(3) 0.9303(4)
C33 C 0.7429(4) 0.5387(3) 0.8458(6)
H26 H 0.7451 0.5118 0.7990
C34 C 0.7480(4) 0.6038(4) 0.8522(5)
H27 H 0.7533 0.6318 0.8114
C35 C 0.7386(2) 0.5681(3) 0.9699(4)
C36 C 0.7474(2) 0.6878(3) 0.9659(4)
C37 C 0.7766(3) 0.7328(3) 0.9508(5)
H29 H 0.7945 0.7216 0.9163
C38 C 0.7804(3) 0.7954(3) 0.9859(5)
H30 H 0.8028 0.8216 0.9699
O20_2 O 0.31261(13) 0.3139(2) 0.5564(3)
O26_2 O 0.27130(15) 0.2268(2) 0.3922(3)
N2_2 N 0.2441(2) 0.8772(3) 0.4303(4)
C27_2 C 0.2429(4) 0.9613(3) 0.3458(6)
H21_2 H 0.2451 0.9882 0.2990
C28_2 C 0.2480(4) 0.8962(4) 0.3522(5)
H22_2 H 0.2533 0.8682 0.3114
C29_2 C 0.2386(2) 0.9319(3) 0.4699(4)
H23_2 H 0.2363 0.9331 0.5250
C30_2 C 0.2474(2) 0.8122(3) 0.4659(4)
C31_2 C 0.2766(3) 0.7672(3) 0.4508(5)
H24_2 H 0.2945 0.7784 0.4163
C32_2 C 0.2804(3) 0.7046(3) 0.4859(5)
H25_2 H 0.3028 0.6784 0.4699
N3_2 N 0.2632(2) 0.5140(3) 0.5797(4)
N4_2 N 0.2559(2) 0.6228(3) 0.5697(4)
C33_2 C 0.2571(4) 0.5387(3) 0.6542(6)
H26_2 H 0.2549 0.5118 0.7010
C34_2 C 0.2520(4) 0.6038(4) 0.6478(5)
H27_2 H 0.2467 0.6318 0.6886
C35_2 C 0.2614(2) 0.5681(3) 0.5301(4)
H28_2 H 0.2637 0.5669 0.4750
C36_2 C 0.2526(2) 0.6878(3) 0.5341(4)
C37_2 C 0.2234(3) 0.7328(3) 0.5492(5)
H29_2 H 0.2055 0.7216 0.5837
C38_2 C 0.2196(3) 0.7954(3) 0.5141(5)
H30_2 H 0.1972 0.8216 0.5301
O1_3 O 0.5000 0.1797(3) 0.2500
O2_2 O 0.51927(16) 0.2116(3) 0.0603(4)
O4_2 O 0.37934(16) 0.1725(2) 0.1259(3)
C1_2 C 0.45263(19) 0.1891(3) 0.1016(4)
C2_2 C 0.4854(2) 0.2436(3) 0.0892(4)
H1_2 H 0.4674 0.2749 0.0464
H2_2 H 0.5006 0.2665 0.1430
C3_2 C 0.4310(2) 0.1505(3) 0.0173(4)
H3_2 H 0.4557 0.1281 0.0031
H4_2 H 0.4091 0.1180 0.0241
C4_2 C 0.4119(2) 0.2235(4) 0.1257(4)
H5_2 H 0.4246 0.2439 0.1819
H6_2 H 0.3969 0.2569 0.0835
C5_2 C 0.4792(2) 0.1429(3) 0.1739(4)
H7_2 H 0.4580 0.1104 0.1832
H8_2 H 0.5036 0.1204 0.1591
C6_2 C 0.5520(2) 0.2495(4) 0.0407(5)
C7_2 C 0.5581(3) 0.3160(4) 0.0554(6)
H9_2 H 0.5397 0.3395 0.0810
C8_2 C 0.5937(2) 0.3484(4) 0.0303(5)
H10_2 H 0.5980 0.3939 0.0383
C11_2 C 0.5796(3) 0.2159(4) 0.0001(6)
C20_2 C 0.3520(2) 0.1790(3) 0.1786(4)
C21_2 C 0.3496(2) 0.2357(3) 0.2227(4)
H17_2 H 0.3650 0.2742 0.2158
C22_2 C 0.3228(2) 0.2337(3) 0.2792(4)
H18_2 H 0.3213 0.2713 0.3111
C23_2 C 0.2995(2) 0.1781(3) 0.2876(4)
C24_2 C 0.2999(2) 0.1231(4) 0.2369(4)
H19_2 H 0.2820 0.0858 0.2386
C25_2 C 0.3274(2) 0.1242(3) 0.1833(4)
H20_2 H 0.3287 0.0871 0.1507
C26_2 C 0.2734(2) 0.1748(3) 0.3509(4)
O11_2 O 0.48073(16) 0.2116(3) 0.4397(4)
O12_2 O 0.59240(16) 0.1960(2) 0.5496(3)
O13_2 O 0.62066(16) 0.1725(2) 0.3741(3)
O14_2 O 0.33277(19) 0.4072(3) 0.5133(4)
C39_2 C 0.54737(19) 0.1891(3) 0.3984(4)
C40_2 C 0.5146(2) 0.2436(3) 0.4108(4)
H31_2 H 0.5326 0.2749 0.4536
H32_2 H 0.4994 0.2665 0.3570
C41_2 C 0.5690(2) 0.1505(3) 0.4827(4)
H33_2 H 0.5443 0.1281 0.4969
H34_2 H 0.5909 0.1180 0.4759
C42_2 C 0.5881(2) 0.2235(4) 0.3743(4)
H35_2 H 0.5754 0.2439 0.3181
H36_2 H 0.6031 0.2569 0.4165
C43_2 C 0.5208(2) 0.1429(3) 0.3261(4)
H37_2 H 0.5420 0.1104 0.3168
H38_2 H 0.4964 0.1204 0.3409
C44_2 C 0.4480(2) 0.2495(4) 0.4593(5)
C45_2 C 0.4419(3) 0.3160(4) 0.4446(6)
H39_2 H 0.4603 0.3395 0.4190
C46_2 C 0.4063(2) 0.3484(4) 0.4697(5)
H40_2 H 0.4020 0.3939 0.4617
C47_2 C 0.3779(2) 0.3132(4) 0.5057(4)
C48_2 C 0.3857(2) 0.2458(4) 0.5200(5)
H41_2 H 0.3667 0.2214 0.5435
C49_2 C 0.4204(3) 0.2159(4) 0.4999(6)
H42_2 H 0.4264 0.1713 0.5133
C50_2 C 0.3397(2) 0.3469(4) 0.5266(4)
C51_2 C 0.6187(2) 0.1721(3) 0.6284(4)
C52_2 C 0.6415(3) 0.2211(4) 0.6911(4)
H43_2 H 0.6381 0.2659 0.6774
C53_2 C 0.6685(2) 0.1998(4) 0.7723(4)
H44_2 H 0.6826 0.2313 0.8147
C54_2 C 0.6757(2) 0.1344(3) 0.7938(4)
C55_2 C 0.6547(3) 0.0880(4) 0.7327(4)
H45_2 H 0.6601 0.0434 0.7463
C56_2 C 0.6248(3) 0.1069(4) 0.6482(4)
H46_2 H 0.6095 0.0750 0.6071
C57_2 C 0.7064(2) 0.1149(4) 0.8829(4)
C58_2 C 0.6480(2) 0.1790(3) 0.3214(4)
C59_2 C 0.6504(2) 0.2357(3) 0.2773(4)
H47_2 H 0.6350 0.2742 0.2842
C60_2 C 0.6772(2) 0.2337(3) 0.2208(4)
H48_2 H 0.6787 0.2713 0.1889
C61_2 C 0.7005(2) 0.1781(3) 0.2124(4)
C62_2 C 0.7001(2) 0.1231(4) 0.2631(4)
H49_2 H 0.7180 0.0858 0.2614
C63_2 C 0.6726(2) 0.1242(3) 0.3167(4)
H50_2 H 0.6713 0.0871 0.3493
C64_2 C 0.7266(2) 0.1748(3) 0.1491(4)
O3_2 O 0.40760(16) 0.1960(2) 0.9504(3)
O5_2 O 0.66723(19) 0.4072(3) 0.9867(4)
C9_2 C 0.6221(2) 0.3132(4) 0.9943(4)
C10_2 C 0.6143(2) 0.2458(4) 0.9800(5)
H11_2 H 0.6333 0.2214 0.9565
H12_2 H 0.5736 0.1713 0.9867
C12_2 C 0.6603(2) 0.3469(4) 0.9734(4)
C13_2 C 0.3813(2) 0.1721(3) 0.8716(4)
C14_2 C 0.3585(3) 0.2211(4) 0.8089(4)
H13_2 H 0.3619 0.2659 0.8226
C15_2 C 0.3315(2) 0.1998(4) 0.7277(4)
H14_2 H 0.3174 0.2313 0.6853
C16_2 C 0.3243(2) 0.1344(3) 0.7062(4)
C17_2 C 0.3453(3) 0.0880(4) 0.7673(4)
H15_2 H 0.3399 0.0434 0.7537
C18_2 C 0.3752(3) 0.1069(4) 0.8518(4)
H16_2 H 0.3905 0.0750 0.8929
C19_2 C 0.2936(2) 0.1149(4) 0.6171(4)
Mn1_3 Mn 0.2500 0.7500 0.0000
Mn2_2 Mn 0.26663(3) 0.58717(4) 0.04034(6)
N1_2 N 0.2632(2) 0.4860(3) 0.0797(4)
N2_3 N 0.2559(2) 0.3772(3) 0.0697(4)
O3_3 O 0.59240(16) 0.8040(2) 0.0496(3)
O5_3 O 0.33277(19) 0.5928(3) 0.0133(4)
O6_2 O 0.31261(13) 0.6861(2) 0.0564(3)
O7_2 O 0.71843(17) 0.8441(2) 0.4421(3)
O8_2 O 0.7209(2) 0.9454(3) 0.3997(3)
C9_3 C 0.3779(2) 0.6868(4) 0.0057(4)
C10_3 C 0.3857(2) 0.7542(4) 0.0200(5)
H11_3 H 0.3667 0.7786 0.0435
H12_3 H 0.4264 0.8287 0.0133
C12_3 C 0.3397(2) 0.6531(4) 0.0266(4)
C13_3 C 0.6187(2) 0.8279(3) 0.1284(4)
C14_3 C 0.6415(3) 0.7789(4) 0.1911(4)
H13_3 H 0.6381 0.7341 0.1774
C15_3 C 0.6685(2) 0.8002(4) 0.2723(4)
H14_3 H 0.6826 0.7687 0.3147
C16_3 C 0.6757(2) 0.8656(3) 0.2938(4)
C17_3 C 0.6547(3) 0.9120(4) 0.2327(4)
H15_3 H 0.6601 0.9566 0.2463
C18_3 C 0.6248(3) 0.8931(4) 0.1482(4)
H16_3 H 0.6095 0.9250 0.1071
C19_3 C 0.7064(2) 0.8851(4) 0.3829(4)
C27_3 C 0.2571(4) 0.4613(3) 0.1542(6)
H21_3 H 0.2549 0.4882 0.2010
C28_3 C 0.2520(4) 0.3962(4) 0.1478(5)
H22_3 H 0.2467 0.3682 0.1886
C29_3 C 0.2614(2) 0.4319(3) 0.0301(4)
C30_3 C 0.2526(2) 0.3122(3) 0.0341(4)
C31_3 C 0.2234(3) 0.2672(3) 0.0492(5)
H24_3 H 0.2055 0.2784 0.0837
C32_3 C 0.2196(3) 0.2046(3) 0.0141(5)
H25_3 H 0.1972 0.1784 0.0301
H28_3 H 0.2363 0.0669 0.0250
Mn6_2 Mn 0.7500 0.7500 0.5000
Mn11_2 Mn 0.76663(3) 0.91283(4) 0.54034(6)
O21_2 O 0.28157(17) 0.8441(2) 0.0579(3)
O26_3 O 0.22870(15) 0.7268(2) 0.1078(3)
O28_2 O 0.24279(16) 0.6196(2) 0.1383(3)
Mn1_4 Mn 0.2500 0.7500 1.0000
O1_4 O 0.5000 0.8203(3) 0.7500
O2_3 O 0.48073(16) 0.7884(3) 0.9397(4)
O4_3 O 0.62066(16) 0.8275(2) 0.8741(3)
O9_2 O 0.72870(15) 0.7732(2) 0.6078(3)
O10_2 O 0.74279(16) 0.8804(2) 0.6383(3)
C1_3 C 0.54737(19) 0.8109(3) 0.8984(4)
C2_3 C 0.5146(2) 0.7564(3) 0.9108(4)
H1_3 H 0.5326 0.7251 0.9536
H2_3 H 0.4994 0.7335 0.8570
C3_3 C 0.5690(2) 0.8495(3) 0.9827(4)
H3_3 H 0.5443 0.8719 0.9969
H4_3 H 0.5909 0.8820 0.9759
C4_3 C 0.5881(2) 0.7765(4) 0.8743(4)
H5_3 H 0.5754 0.7561 0.8181
H6_3 H 0.6031 0.7431 0.9165
C5_3 C 0.5208(2) 0.8571(3) 0.8261(4)
H7_3 H 0.5420 0.8896 0.8168
H8_3 H 0.4964 0.8796 0.8409
C6_3 C 0.4480(2) 0.7505(4) 0.9593(5)
C7_3 C 0.4419(3) 0.6840(4) 0.9446(6)
H9_3 H 0.4603 0.6605 0.9190
C8_3 C 0.4063(2) 0.6516(4) 0.9697(5)
H10_3 H 0.4020 0.6061 0.9617
C11_3 C 0.4204(3) 0.7841(4) 0.9999(6)
C20_3 C 0.6480(2) 0.8210(3) 0.8214(4)
C21_3 C 0.6504(2) 0.7643(3) 0.7773(4)
H17_3 H 0.6350 0.7258 0.7842
C22_3 C 0.6772(2) 0.7663(3) 0.7208(4)
H18_3 H 0.6787 0.7287 0.6889
C23_3 C 0.7005(2) 0.8219(3) 0.7124(4)
C24_3 C 0.7001(2) 0.8769(4) 0.7631(4)
H19_3 H 0.7180 0.9142 0.7614
C25_3 C 0.6726(2) 0.8758(3) 0.8167(4)
H20_3 H 0.6713 0.9129 0.8493
C26_3 C 0.7266(2) 0.8252(3) 0.6491(4)
H23_3 H 0.2637 0.4331 0.9750
N3_3 N 0.2368(2) 0.0140(3) 0.9203(4)
N4_3 N 0.2441(2) 0.1228(3) 0.9303(4)
C33_3 C 0.2429(4) 0.0387(3) 0.8458(6)
H26_3 H 0.2451 0.0118 0.7990
C34_3 C 0.2480(4) 0.1038(4) 0.8522(5)
H27_3 H 0.2533 0.1318 0.8114
C35_3 C 0.2386(2) 0.0681(3) 0.9699(4)
C36_3 C 0.2474(2) 0.1878(3) 0.9659(4)
C37_3 C 0.2766(3) 0.2328(3) 0.9508(5)
H29_3 H 0.2945 0.2216 0.9163
C38_3 C 0.2804(3) 0.2954(3) 0.9859(5)
H30_3 H 0.3028 0.3216 0.9699
O11_3 O 0.51927(16) 0.7884(3) 0.5603(4)
O12_3 O 0.40760(16) 0.8040(2) 0.4504(3)
O13_3 O 0.37934(16) 0.8275(2) 0.6259(3)
O14_3 O 0.66723(19) 0.5928(3) 0.4867(4)
O15_2 O 0.68739(13) 0.6861(2) 0.4436(3)
O17_2 O 0.2791(2) 0.9454(3) 0.1003(3)
O18_2 O 0.27130(15) 0.7732(2) 0.8922(3)
O19_2 O 0.25721(16) 0.8804(2) 0.8617(3)
C39_3 C 0.45263(19) 0.8109(3) 0.6016(4)
C40_3 C 0.4854(2) 0.7564(3) 0.5892(4)
H31_3 H 0.4674 0.7251 0.5464
H32_3 H 0.5006 0.7335 0.6430
C41_3 C 0.4310(2) 0.8495(3) 0.5173(4)
H33_3 H 0.4557 0.8719 0.5031
H34_3 H 0.4091 0.8820 0.5241
C42_3 C 0.4119(2) 0.7765(4) 0.6257(4)
H35_3 H 0.4246 0.7561 0.6819
H36_3 H 0.3969 0.7431 0.5835
C43_3 C 0.4792(2) 0.8571(3) 0.6739(4)
H37_3 H 0.4580 0.8896 0.6832
H38_3 H 0.5036 0.8796 0.6591
C44_3 C 0.5520(2) 0.7505(4) 0.5407(5)
C45_3 C 0.5581(3) 0.6840(4) 0.5554(6)
H39_3 H 0.5397 0.6605 0.5810
C46_3 C 0.5937(2) 0.6516(4) 0.5303(5)
H40_3 H 0.5980 0.6061 0.5383
C47_3 C 0.6221(2) 0.6868(4) 0.4943(4)
C48_3 C 0.6143(2) 0.7542(4) 0.4800(5)
H41_3 H 0.6333 0.7786 0.4565
C49_3 C 0.5796(3) 0.7841(4) 0.5001(6)
H42_3 H 0.5736 0.8287 0.4867
C50_3 C 0.6603(2) 0.6531(4) 0.4734(4)
C51_3 C 0.3813(2) 0.8279(3) 0.3716(4)
C52_3 C 0.3585(3) 0.7789(4) 0.3089(4)
H43_3 H 0.3619 0.7341 0.3226
C53_3 C 0.3315(2) 0.8002(4) 0.2277(4)
H44_3 H 0.3174 0.7687 0.1853
C54_3 C 0.3243(2) 0.8656(3) 0.2062(4)
C55_3 C 0.3453(3) 0.9120(4) 0.2673(4)
H45_3 H 0.3399 0.9566 0.2537
C56_3 C 0.3752(3) 0.8931(4) 0.3518(4)
H46_3 H 0.3905 0.9250 0.3929
C57_3 C 0.2936(2) 0.8851(4) 0.1171(4)
C58_3 C 0.3520(2) 0.8210(3) 0.6786(4)
C59_3 C 0.3496(2) 0.7643(3) 0.7227(4)
H47_3 H 0.3650 0.7258 0.7158
C60_3 C 0.3228(2) 0.7663(3) 0.7792(4)
H48_3 H 0.3213 0.7287 0.8111
C61_3 C 0.2995(2) 0.8219(3) 0.7876(4)
C62_3 C 0.2999(2) 0.8769(4) 0.7369(4)
H49_3 H 0.2820 0.9142 0.7386
C63_3 C 0.3274(2) 0.8758(3) 0.6833(4)
H50_3 H 0.3287 0.9129 0.6507
C64_3 C 0.2734(2) 0.8252(3) 0.8509(4)
Mn3_2 Mn 0.73337(3) 0.58717(4) 0.45966(6)
Mn9_2 Mn 0.23337(3) 0.91283(4) 0.95966(6)
N5_2 N 0.7368(2) 0.4860(3) 0.4203(4)
O20_3 O 0.18739(13) 0.8139(2) 0.9436(3)
O22_2 O 0.78157(17) 0.6559(2) 0.5579(3)
O23_2 O 0.21843(17) 0.6559(2) 0.9421(3)
O24_2 O 0.7791(2) 0.5546(3) 0.6003(3)
O25_2 O 0.2209(2) 0.5546(3) 0.8997(3)
O27_2 O 0.75721(16) 0.6196(2) 0.3617(3)
N2_4 N 0.7441(2) 0.3772(3) 0.4303(4)
C27_4 C 0.7429(4) 0.4613(3) 0.3458(6)
H21_4 H 0.7451 0.4882 0.2990
C28_4 C 0.7480(4) 0.3962(4) 0.3522(5)
H22_4 H 0.7533 0.3682 0.3114
C29_4 C 0.7386(2) 0.4319(3) 0.4699(4)
H23_4 H 0.7363 0.4331 0.5250
C30_4 C 0.7474(2) 0.3122(3) 0.4659(4)
C31_4 C 0.7766(3) 0.2672(3) 0.4508(5)
H24_4 H 0.7945 0.2784 0.4163
C32_4 C 0.7804(3) 0.2046(3) 0.4859(5)
H25_4 H 0.8028 0.1784 0.4699
N3_4 N 0.7632(2) 0.0140(3) 0.5797(4)
N4_4 N 0.7559(2) 0.1228(3) 0.5697(4)
C33_4 C 0.7571(4) 0.0387(3) 0.6542(6)
H26_4 H 0.7549 0.0118 0.7010
C34_4 C 0.7520(4) 0.1038(4) 0.6478(5)
H27_4 H 0.7467 0.1318 0.6886
C35_4 C 0.7614(2) 0.0681(3) 0.5301(4)
H28_4 H 0.7637 0.0669 0.4750
C36_4 C 0.7526(2) 0.1878(3) 0.5341(4)
C37_4 C 0.7234(3) 0.2328(3) 0.5492(5)
H29_4 H 0.7055 0.2216 0.5837
C38_4 C 0.7196(3) 0.2954(3) 0.5141(5)
H30_4 H 0.6972 0.3216 0.5301
O20_4 O 0.81261(13) 0.8139(2) 0.5564(3)
O26_4 O 0.77130(15) 0.7268(2) 0.3922(3)
O1_5 O 0.0000 0.6797(3) 0.2500
O2_4 O 0.01927(16) 0.7116(3) 0.0603(4)
H2_4 H 0.0006 0.7665 0.1430
H8_4 H 0.0036 0.6204 0.1591
C6_4 C 0.0520(2) 0.7495(4) 0.0407(5)
C7_4 C 0.0581(3) 0.8160(4) 0.0554(6)
H9_4 H 0.0397 0.8395 0.0810
C8_4 C 0.0937(2) 0.8484(4) 0.0303(5)
H10_4 H 0.0980 0.8939 0.0383
C11_4 C 0.0796(3) 0.7159(4) 0.0001(6)
O12_4 O 0.09240(16) 0.6960(2) 0.5496(3)
O13_4 O 0.12066(16) 0.6725(2) 0.3741(3)
C39_4 C 0.04737(19) 0.6891(3) 0.3984(4)
C40_4 C 0.0146(2) 0.7436(3) 0.4108(4)
H31_4 H 0.0326 0.7749 0.4536
C41_4 C 0.0690(2) 0.6505(3) 0.4827(4)
H33_4 H 0.0443 0.6281 0.4969
H34_4 H 0.0909 0.6180 0.4759
C42_4 C 0.0881(2) 0.7235(4) 0.3743(4)
H35_4 H 0.0754 0.7439 0.3181
H36_4 H 0.1031 0.7569 0.4165
C43_4 C 0.0208(2) 0.6429(3) 0.3261(4)
H37_4 H 0.0420 0.6104 0.3168
C51_4 C 0.1187(2) 0.6721(3) 0.6284(4)
C52_4 C 0.1415(3) 0.7211(4) 0.6911(4)
H43_4 H 0.1381 0.7659 0.6774
C53_4 C 0.1685(2) 0.6998(4) 0.7723(4)
H44_4 H 0.1826 0.7313 0.8147
C54_4 C 0.1757(2) 0.6344(3) 0.7938(4)
C55_4 C 0.1547(3) 0.5880(4) 0.7327(4)
H45_4 H 0.1601 0.5434 0.7463
C56_4 C 0.1248(3) 0.6069(4) 0.6482(4)
H46_4 H 0.1095 0.5750 0.6071
C57_4 C 0.2064(2) 0.6149(4) 0.8829(4)
C58_4 C 0.1480(2) 0.6790(3) 0.3214(4)
C59_4 C 0.1504(2) 0.7357(3) 0.2773(4)
H47_4 H 0.1350 0.7742 0.2842
C60_4 C 0.1772(2) 0.7337(3) 0.2208(4)
H48_4 H 0.1787 0.7713 0.1889
C61_4 C 0.2005(2) 0.6781(3) 0.2124(4)
C62_4 C 0.2001(2) 0.6231(4) 0.2631(4)
H49_4 H 0.2180 0.5858 0.2614
C63_4 C 0.1726(2) 0.6242(3) 0.3167(4)
H50_4 H 0.1713 0.5871 0.3493
C64_4 C 0.2266(2) 0.6748(3) 0.1491(4)
O5_4 O 0.16723(19) 0.9072(3) 0.9867(4)
C9_4 C 0.1221(2) 0.8132(4) 0.9943(4)
C10_4 C 0.1143(2) 0.7458(4) 0.9800(5)
H11_4 H 0.1333 0.7214 0.9565
H12_4 H 0.0736 0.6713 0.9867
C12_4 C 0.1603(2) 0.8469(4) 0.9734(4)
O1_6 O 1.0000 0.6797(3) 0.2500
O4_4 O 0.87934(16) 0.6725(2) 0.1259(3)
C1_4 C 0.95263(19) 0.6891(3) 0.1016(4)
C2_4 C 0.9854(2) 0.7436(3) 0.0892(4)
H1_4 H 0.9674 0.7749 0.0464
C3_4 C 0.9310(2) 0.6505(3) 0.0173(4)
H3_4 H 0.9557 0.6281 0.0031
H4_4 H 0.9091 0.6180 0.0241
C4_4 C 0.9119(2) 0.7235(4) 0.1257(4)
H5_4 H 0.9246 0.7439 0.1819
H6_4 H 0.8969 0.7569 0.0835
C5_4 C 0.9792(2) 0.6429(3) 0.1739(4)
H7_4 H 0.9580 0.6104 0.1832
C20_4 C 0.8520(2) 0.6790(3) 0.1786(4)
C21_4 C 0.8496(2) 0.7357(3) 0.2227(4)
H17_4 H 0.8650 0.7742 0.2158
C22_4 C 0.8228(2) 0.7337(3) 0.2792(4)
H18_4 H 0.8213 0.7713 0.3111
C23_4 C 0.7995(2) 0.6781(3) 0.2876(4)
C24_4 C 0.7999(2) 0.6231(4) 0.2369(4)
H19_4 H 0.7820 0.5858 0.2386
C25_4 C 0.8274(2) 0.6242(3) 0.1833(4)
H20_4 H 0.8287 0.5871 0.1507
C26_4 C 0.7734(2) 0.6748(3) 0.3509(4)
O11_4 O 0.98073(16) 0.7116(3) 0.4397(4)
O14_4 O 0.83277(19) 0.9072(3) 0.5133(4)
H32_4 H 0.9994 0.7665 0.3570
H38_4 H 0.9964 0.6204 0.3409
C44_4 C 0.9480(2) 0.7495(4) 0.4593(5)
C45_4 C 0.9419(3) 0.8160(4) 0.4446(6)
H39_4 H 0.9603 0.8395 0.4190
C46_4 C 0.9063(2) 0.8484(4) 0.4697(5)
H40_4 H 0.9020 0.8939 0.4617
C47_4 C 0.8779(2) 0.8132(4) 0.5057(4)
C48_4 C 0.8857(2) 0.7458(4) 0.5200(5)
H41_4 H 0.8667 0.7214 0.5435
C49_4 C 0.9204(3) 0.7159(4) 0.4999(6)
H42_4 H 0.9264 0.6713 0.5133
C50_4 C 0.8397(2) 0.8469(4) 0.5266(4)
O3_4 O 0.90760(16) 0.6960(2) 0.9504(3)
C13_4 C 0.8813(2) 0.6721(3) 0.8716(4)
C14_4 C 0.8585(3) 0.7211(4) 0.8089(4)
H13_4 H 0.8619 0.7659 0.8226
C15_4 C 0.8315(2) 0.6998(4) 0.7277(4)
H14_4 H 0.8174 0.7313 0.6853
C16_4 C 0.8243(2) 0.6344(3) 0.7062(4)
C17_4 C 0.8453(3) 0.5880(4) 0.7673(4)
H15_4 H 0.8399 0.5434 0.7537
C18_4 C 0.8752(3) 0.6069(4) 0.8518(4)
H16_4 H 0.8905 0.5750 0.8929
C19_4 C 0.7936(2) 0.6149(4) 0.6171(4)
loop_
_geom_bond_atom_site_label_1
_geom_bond_atom_site_label_2
_geom_bond_site_symmetry_1
_geom_bond_site_symmetry_2
O7 C19 1_555 1_555
O8 C19 1_555 1_555
C13 O3 1_555 1_555
C14 C13 1_555 1_555
H13 C14 1_555 1_555
C15 C14 1_555 1_555
H14 C15 1_555 1_555
C16 C15 1_555 1_555
C17 C16 1_555 1_555
H15 C17 1_555 1_555
C18 C13 1_555 1_555
H16 C18 1_555 1_555
C19 C16 1_555 1_555
Mn6 O7 1_555 1_555
Mn11 O7 1_555 1_555
O8 Mn11 1_555 1_555
C17 C18 1_555 1_555
O1 C5 1_555 1_555
O4 C4 1_555 1_555
O9 C26 1_555 1_555
O10 C26 1_555 1_555
C1 C2 1_555 1_555
C2 H1 1_555 1_555
C3 C1 1_555 1_555
H3 C3 1_555 1_555
H4 C3 1_555 1_555
C4 C1 1_555 1_555
H5 C4 1_555 1_555
H6 C4 1_555 1_555
C5 C1 1_555 1_555
H7 C5 1_555 1_555
C20 O4 1_555 1_555
C21 C20 1_555 1_555
H17 C21 1_555 1_555
C22 C21 1_555 1_555
H18 C22 1_555 1_555
C23 C22 1_555 1_555
C24 C23 1_555 1_555
H19 C24 1_555 1_555
C25 C20 1_555 1_555
H20 C25 1_555 1_555
C26 C23 1_555 1_555
O14 C50 1_555 1_555
O15 C50 1_555 1_555
C44 O11 1_555 1_555
C45 C44 1_555 1_555
H39 C45 1_555 1_555
C46 C45 1_555 1_555
H40 C46 1_555 1_555
C47 C46 1_555 1_555
C48 C47 1_555 1_555
H41 C48 1_555 1_555
C49 C44 1_555 1_555
H42 C49 1_555 1_555
C50 C47 1_555 1_555
Mn3 O14 1_555 1_555
Mn6 O9 1_555 1_555
Mn11 O10 1_555 1_555
O22 Mn3 1_555 1_555
O24 Mn3 1_555 1_555
O27 Mn3 1_555 1_555
C24 C25 1_555 1_555
O15 Mn3 1_555 1_555
O15 Mn6 1_555 1_555
C48 C49 1_555 1_555
Mn6 O22 1_555 1_555
Mn1 O6 1_555 1_555
O5 Mn2 1_555 1_555
O6 Mn2 1_555 1_555
C10 C9 1_555 1_555
H11 C10 1_555 1_555
C12 O5 1_555 1_555
O21 Mn1 1_555 1_555
O26 Mn1 1_555 1_555
O28 Mn2 1_555 1_555
O6 C12 1_555 1_555
C9 C12 1_555 1_555
C6 O2 1_555 1_555
C7 C6 1_555 1_555
H9 C7 1_555 1_555
C8 C7 1_555 1_555
H10 C8 1_555 1_555
C11 C6 1_555 1_555
O12 C41 1_555 1_555
O13 C42 1_555 1_555
O21 C57 1_555 1_555
O17 C57 1_555 1_555
O18 Mn1_2 1_555 1_555
O19 C64 1_555 1_555
C39 C40 1_555 1_555
C40 H31 1_555 1_555
C41 C39 1_555 1_555
H33 C41 1_555 1_555
H34 C41 1_555 1_555
C42 C39 1_555 1_555
H35 C42 1_555 1_555
H36 C42 1_555 1_555
C43 O1_2 1_555 1_555
H37 C43 1_555 1_555
C51 O12 1_555 1_555
C52 C51 1_555 1_555
H43 C52 1_555 1_555
C53 C52 1_555 1_555
H44 C53 1_555 1_555
C54 C53 1_555 1_555
C55 C54 1_555 1_555
H45 C55 1_555 1_555
C56 C51 1_555 1_555
H46 C56 1_555 1_555
C57 C54 1_555 1_555
C58 O13 1_555 1_555
C59 C58 1_555 1_555
H47 C59 1_555 1_555
C60 C59 1_555 1_555
H48 C60 1_555 1_555
C61 C60 1_555 1_555
C62 C61 1_555 1_555
H49 C62 1_555 1_555
C63 C58 1_555 1_555
H50 C63 1_555 1_555
C64 O18 1_555 1_555
Mn9 O19 1_555 1_555
O20 Mn1_2 1_555 1_555
O23 Mn1_2 1_555 1_555
C39 C43 1_555 1_555
C55 C56 1_555 1_555
C61 C64 1_555 1_555
C62 C63 1_555 1_555
Mn9 O20 1_555 1_555
N1 C27 1_555 1_555
N2 C28 1_555 1_555
C27 H21 1_555 1_555
C28 C27 1_555 1_555
H22 C28 1_555 1_555
C29 N1 1_555 1_555
C30 N2 1_555 1_555
C31 C30 1_555 1_555
H24 C31 1_555 1_555
C32 C31 1_555 1_555
H25 C32 1_555 1_555
N2 C29 1_555 1_555
N3 C33 1_555 1_555
N4 C34 1_555 1_555
C33 H26 1_555 1_555
C34 C33 1_555 1_555
H27 C34 1_555 1_555
C35 N3 1_555 1_555
C37 C36 1_555 1_555
H29 C37 1_555 1_555
H30 C38 1_555 1_555
Mn9 N3 1_555 1_555
N4 C35 1_555 1_555
N4 C36 1_555 1_555
C37 C38 1_555 1_555
O20_2 Mn6 1_555 1_555
O26_2 Mn6 1_555 1_555
Mn11 O20_2 1_555 1_555
N5 C27_2 1_555 1_555
N2_2 C28_2 1_555 1_555
C27_2 H21_2 1_555 1_555
C28_2 C27_2 1_555 1_555
H22_2 C28_2 1_555 1_555
C29_2 N5 1_555 1_555
H23_2 C29_2 1_555 1_555
C30_2 N2_2 1_555 1_555
C31_2 C30_2 1_555 1_555
H24_2 C31_2 1_555 1_555
C32_2 C31_2 1_555 1_555
H25_2 C32_2 1_555 1_555
N3_2 C33_2 1_555 1_555
N4_2 C34_2 1_555 1_555
C33_2 H26_2 1_555 1_555
C34_2 C33_2 1_555 1_555
H27_2 C34_2 1_555 1_555
C35_2 N3_2 1_555 1_555
H28_2 C35_2 1_555 1_555
C36_2 C32_2 1_555 1_555
C37_2 C36_2 1_555 1_555
H29_2 C37_2 1_555 1_555
C38_2 C30_2 1_555 1_555
H30_2 C38_2 1_555 1_555
Mn11 N3_2 1_555 1_555
N2_2 C29_2 1_555 1_555
N4_2 C35_2 1_555 1_555
N4_2 C36_2 1_555 1_555
C37_2 C38_2 1_555 1_555
O1_3 C5_2 1_555 1_555
O2_2 C2_2 1_555 1_555
O4_2 C4_2 1_555 1_555
O26_2 C26_2 1_555 1_555
O27 C26_2 1_555 1_555
C1_2 C2_2 1_555 1_555
C2_2 H1_2 1_555 1_555
H2_2 C2_2 1_555 1_555
C3_2 C1_2 1_555 1_555
H3_2 C3_2 1_555 1_555
H4_2 C3_2 1_555 1_555
C4_2 C1_2 1_555 1_555
H5_2 C4_2 1_555 1_555
H6_2 C4_2 1_555 1_555
C5_2 C1_2 1_555 1_555
H7_2 C5_2 1_555 1_555
H8_2 C5_2 1_555 1_555
C6_2 O2_2 1_555 1_555
C7_2 C6_2 1_555 1_555
H9_2 C7_2 1_555 1_555
C8_2 C7_2 1_555 1_555
H10_2 C8_2 1_555 1_555
C11_2 C6_2 1_555 1_555
C20_2 O4_2 1_555 1_555
C21_2 C20_2 1_555 1_555
H17_2 C21_2 1_555 1_555
C22_2 C21_2 1_555 1_555
H18_2 C22_2 1_555 1_555
C23_2 C22_2 1_555 1_555
C24_2 C23_2 1_555 1_555
H19_2 C24_2 1_555 1_555
C25_2 C20_2 1_555 1_555
H20_2 C25_2 1_555 1_555
C26_2 C23_2 1_555 1_555
O11_2 C40_2 1_555 1_555
O12_2 C41_2 1_555 1_555
O13_2 C42_2 1_555 1_555
O14_2 C50_2 1_555 1_555
O20_2 C50_2 1_555 1_555
O23 C57_2 1_555 1_555
O25 C57_2 1_555 1_555
O28 C64_2 1_555 1_555
C39_2 C40_2 1_555 1_555
C40_2 H31_2 1_555 1_555
H32_2 C40_2 1_555 1_555
C41_2 C39_2 1_555 1_555
H33_2 C41_2 1_555 1_555
H34_2 C41_2 1_555 1_555
C42_2 C39_2 1_555 1_555
H35_2 C42_2 1_555 1_555
H36_2 C42_2 1_555 1_555
C43_2 O1_3 1_555 1_555
H37_2 C43_2 1_555 1_555
H38_2 C43_2 1_555 1_555
C44_2 O11_2 1_555 1_555
C45_2 C44_2 1_555 1_555
H39_2 C45_2 1_555 1_555
C46_2 C45_2 1_555 1_555
H40_2 C46_2 1_555 1_555
C47_2 C46_2 1_555 1_555
C48_2 C47_2 1_555 1_555
H41_2 C48_2 1_555 1_555
C49_2 C44_2 1_555 1_555
H42_2 C49_2 1_555 1_555
C50_2 C47_2 1_555 1_555
C51_2 O12_2 1_555 1_555
C52_2 C51_2 1_555 1_555
H43_2 C52_2 1_555 1_555
C53_2 C52_2 1_555 1_555
H44_2 C53_2 1_555 1_555
C54_2 C53_2 1_555 1_555
C55_2 C54_2 1_555 1_555
H45_2 C55_2 1_555 1_555
C56_2 C51_2 1_555 1_555
H46_2 C56_2 1_555 1_555
C57_2 C54_2 1_555 1_555
C58_2 O13_2 1_555 1_555
C59_2 C58_2 1_555 1_555
H47_2 C59_2 1_555 1_555
C60_2 C59_2 1_555 1_555
H48_2 C60_2 1_555 1_555
C61_2 C60_2 1_555 1_555
C62_2 C61_2 1_555 1_555
H49_2 C62_2 1_555 1_555
C63_2 C58_2 1_555 1_555
H50_2 C63_2 1_555 1_555
C64_2 O26 1_555 1_555
Mn11 O14_2 1_555 1_555
C24_2 C25_2 1_555 1_555
C39_2 C43_2 1_555 1_555
C48_2 C49_2 1_555 1_555
C55_2 C56_2 1_555 1_555
C61_2 C64_2 1_555 1_555
C62_2 C63_2 1_555 1_555
O5_2 Mn9 1_555 1_555
O22 C19_2 1_555 1_555
O24 C19_2 1_555 1_555
C10_2 C9_2 1_555 1_555
H11_2 C10_2 1_555 1_555
C12_2 O5_2 1_555 1_555
C13_2 O3_2 1_555 1_555
C14_2 C13_2 1_555 1_555
H13_2 C14_2 1_555 1_555
C15_2 C14_2 1_555 1_555
H14_2 C15_2 1_555 1_555
C16_2 C15_2 1_555 1_555
C17_2 C16_2 1_555 1_555
H15_2 C17_2 1_555 1_555
C18_2 C13_2 1_555 1_555
H16_2 C18_2 1_555 1_555
C19_2 C16_2 1_555 1_555
O20 C12_2 1_555 1_555
C9_2 C12_2 1_555 1_555
C17_2 C18_2 1_555 1_555
Mn1_3 O6_2 1_555 1_555
Mn2_2 N1_2 1_555 1_555
N1_2 C27_3 1_555 1_555
N2_3 C28_3 1_555 1_555
O5_3 Mn2_2 1_555 1_555
O6_2 Mn2_2 1_555 1_555
O7_2 C19_3 1_555 1_555
O8_2 C19_3 1_555 1_555
C10_3 C9_3 1_555 1_555
H11_3 C10_3 1_555 1_555
C12_3 O5_3 1_555 1_555
C13_3 O3_3 1_555 1_555
C14_3 C13_3 1_555 1_555
H13_3 C14_3 1_555 1_555
C15_3 C14_3 1_555 1_555
H14_3 C15_3 1_555 1_555
C16_3 C15_3 1_555 1_555
C17_3 C16_3 1_555 1_555
H15_3 C17_3 1_555 1_555
C18_3 C13_3 1_555 1_555
H16_3 C18_3 1_555 1_555
C19_3 C16_3 1_555 1_555
C27_3 H21_3 1_555 1_555
C28_3 C27_3 1_555 1_555
H22_3 C28_3 1_555 1_555
C29_3 N1_2 1_555 1_555
C30_3 N2_3 1_555 1_555
C31_3 C30_3 1_555 1_555
H24_3 C31_3 1_555 1_555
C32_3 C31_3 1_555 1_555
H25_3 C32_3 1_555 1_555
Mn6_2 O7_2 1_555 1_555
Mn11_2 O7_2 1_555 1_555
O21_2 Mn1_3 1_555 1_555
O26_3 Mn1_3 1_555 1_555
O28_2 Mn2_2 1_555 1_555
N2_3 C29_3 1_555 1_555
O6_2 C12_3 1_555 1_555
O8_2 Mn11_2 1_555 1_555
C9_3 C12_3 1_555 1_555
C17_3 C18_3 1_555 1_555
O1_4 C5_3 1_555 1_555
O2_3 C2_3 1_555 1_555
O4_3 C4_3 1_555 1_555
O9_2 C26_3 1_555 1_555
O10_2 C26_3 1_555 1_555
C1_3 C2_3 1_555 1_555
C2_3 H1_3 1_555 1_555
H2_3 C2_3 1_555 1_555
C3_3 C1_3 1_555 1_555
H3_3 C3_3 1_555 1_555
H4_3 C3_3 1_555 1_555
C4_3 C1_3 1_555 1_555
H5_3 C4_3 1_555 1_555
H6_3 C4_3 1_555 1_555
C5_3 C1_3 1_555 1_555
H7_3 C5_3 1_555 1_555
H8_3 C5_3 1_555 1_555
C6_3 O2_3 1_555 1_555
C7_3 C6_3 1_555 1_555
H9_3 C7_3 1_555 1_555
C8_3 C7_3 1_555 1_555
H10_3 C8_3 1_555 1_555
C11_3 C6_3 1_555 1_555
C20_3 O4_3 1_555 1_555
C21_3 C20_3 1_555 1_555
H17_3 C21_3 1_555 1_555
C22_3 C21_3 1_555 1_555
H18_3 C22_3 1_555 1_555
C23_3 C22_3 1_555 1_555
C24_3 C23_3 1_555 1_555
H19_3 C24_3 1_555 1_555
C25_3 C20_3 1_555 1_555
H20_3 C25_3 1_555 1_555
C26_3 C23_3 1_555 1_555
N3_3 C33_3 1_555 1_555
N4_3 C34_3 1_555 1_555
C33_3 H26_3 1_555 1_555
C34_3 C33_3 1_555 1_555
H27_3 C34_3 1_555 1_555
C35_3 N3_3 1_555 1_555
C37_3 C36_3 1_555 1_555
H29_3 C37_3 1_555 1_555
H30_3 C38_3 1_555 1_555
O11_3 C40_3 1_555 1_555
O12_3 C41_3 1_555 1_555
O13_3 C42_3 1_555 1_555
O14_3 C50_3 1_555 1_555
O15_2 C50_3 1_555 1_555
O21_2 C57_3 1_555 1_555
O17_2 C57_3 1_555 1_555
O18_2 Mn1_4 1_555 1_555
O19_2 C64_3 1_555 1_555
C39_3 C40_3 1_555 1_555
C40_3 H31_3 1_555 1_555
H32_3 C40_3 1_555 1_555
C41_3 C39_3 1_555 1_555
H33_3 C41_3 1_555 1_555
H34_3 C41_3 1_555 1_555
C42_3 C39_3 1_555 1_555
H35_3 C42_3 1_555 1_555
H36_3 C42_3 1_555 1_555
C43_3 O1_4 1_555 1_555
H37_3 C43_3 1_555 1_555
H38_3 C43_3 1_555 1_555
C44_3 O11_3 1_555 1_555
C45_3 C44_3 1_555 1_555
H39_3 C45_3 1_555 1_555
C46_3 C45_3 1_555 1_555
H40_3 C46_3 1_555 1_555
C47_3 C46_3 1_555 1_555
C48_3 C47_3 1_555 1_555
H41_3 C48_3 1_555 1_555
C49_3 C44_3 1_555 1_555
H42_3 C49_3 1_555 1_555
C50_3 C47_3 1_555 1_555
C51_3 O12_3 1_555 1_555
C52_3 C51_3 1_555 1_555
H43_3 C52_3 1_555 1_555
C53_3 C52_3 1_555 1_555
H44_3 C53_3 1_555 1_555
C54_3 C53_3 1_555 1_555
C55_3 C54_3 1_555 1_555
H45_3 C55_3 1_555 1_555
C56_3 C51_3 1_555 1_555
H46_3 C56_3 1_555 1_555
C57_3 C54_3 1_555 1_555
C58_3 O13_3 1_555 1_555
C59_3 C58_3 1_555 1_555
H47_3 C59_3 1_555 1_555
C60_3 C59_3 1_555 1_555
H48_3 C60_3 1_555 1_555
C61_3 C60_3 1_555 1_555
C62_3 C61_3 1_555 1_555
H49_3 C62_3 1_555 1_555
C63_3 C58_3 1_555 1_555
H50_3 C63_3 1_555 1_555
C64_3 O18_2 1_555 1_555
Mn3_2 O14_3 1_555 1_555
Mn6_2 O9_2 1_555 1_555
Mn9_2 O19_2 1_555 1_555
Mn11_2 O10_2 1_555 1_555
N5_2 Mn3_2 1_555 1_555
O20_3 Mn1_4 1_555 1_555
O22_2 Mn3_2 1_555 1_555
O23_2 Mn1_4 1_555 1_555
O24_2 Mn3_2 1_555 1_555
O27_2 Mn3_2 1_555 1_555
C24_3 C25_3 1_555 1_555
N4_3 C35_3 1_555 1_555
N4_3 C36_3 1_555 1_555
C37_3 C38_3 1_555 1_555
O15_2 Mn3_2 1_555 1_555
O15_2 Mn6_2 1_555 1_555
C39_3 C43_3 1_555 1_555
C48_3 C49_3 1_555 1_555
C55_3 C56_3 1_555 1_555
C61_3 C64_3 1_555 1_555
C62_3 C63_3 1_555 1_555
Mn6_2 O22_2 1_555 1_555
Mn9_2 O20_3 1_555 1_555
N5_2 C27_4 1_555 1_555
N2_4 C28_4 1_555 1_555
C27_4 H21_4 1_555 1_555
C28_4 C27_4 1_555 1_555
H22_4 C28_4 1_555 1_555
C29_4 N5_2 1_555 1_555
H23_4 C29_4 1_555 1_555
C30_4 N2_4 1_555 1_555
C31_4 C30_4 1_555 1_555
H24_4 C31_4 1_555 1_555
C32_4 C31_4 1_555 1_555
H25_4 C32_4 1_555 1_555
N3_4 C33_4 1_555 1_555
N4_4 C34_4 1_555 1_555
C33_4 H26_4 1_555 1_555
C34_4 C33_4 1_555 1_555
H27_4 C34_4 1_555 1_555
C35_4 N3_4 1_555 1_555
H28_4 C35_4 1_555 1_555
C36_4 C32_4 1_555 1_555
C37_4 C36_4 1_555 1_555
H29_4 C37_4 1_555 1_555
C38_4 C30_4 1_555 1_555
H30_4 C38_4 1_555 1_555
O20_4 Mn6_2 1_555 1_555
O26_4 Mn6_2 1_555 1_555
N2_4 C29_4 1_555 1_555
N4_4 C35_4 1_555 1_555
N4_4 C36_4 1_555 1_555
C37_4 C38_4 1_555 1_555
Mn11_2 O20_4 1_555 1_555
C6_4 O2_4 1_555 1_555
C7_4 C6_4 1_555 1_555
H9_4 C7_4 1_555 1_555
C8_4 C7_4 1_555 1_555
H10_4 C8_4 1_555 1_555
C11_4 C6_4 1_555 1_555
O12_4 C41_4 1_555 1_555
O13_4 C42_4 1_555 1_555
O23_2 C57_4 1_555 1_555
O25_2 C57_4 1_555 1_555
O28_2 C64_4 1_555 1_555
C39_4 C40_4 1_555 1_555
C40_4 H31_4 1_555 1_555
C41_4 C39_4 1_555 1_555
H33_4 C41_4 1_555 1_555
H34_4 C41_4 1_555 1_555
C42_4 C39_4 1_555 1_555
H35_4 C42_4 1_555 1_555
H36_4 C42_4 1_555 1_555
C43_4 O1_5 1_555 1_555
H37_4 C43_4 1_555 1_555
C51_4 O12_4 1_555 1_555
C52_4 C51_4 1_555 1_555
H43_4 C52_4 1_555 1_555
C53_4 C52_4 1_555 1_555
H44_4 C53_4 1_555 1_555
C54_4 C53_4 1_555 1_555
C55_4 C54_4 1_555 1_555
H45_4 C55_4 1_555 1_555
C56_4 C51_4 1_555 1_555
H46_4 C56_4 1_555 1_555
C57_4 C54_4 1_555 1_555
C58_4 O13_4 1_555 1_555
C59_4 C58_4 1_555 1_555
H47_4 C59_4 1_555 1_555
C60_4 C59_4 1_555 1_555
H48_4 C60_4 1_555 1_555
C61_4 C60_4 1_555 1_555
C62_4 C61_4 1_555 1_555
H49_4 C62_4 1_555 1_555
C63_4 C58_4 1_555 1_555
H50_4 C63_4 1_555 1_555
C64_4 O26_3 1_555 1_555
C39_4 C43_4 1_555 1_555
C55_4 C56_4 1_555 1_555
C61_4 C64_4 1_555 1_555
C62_4 C63_4 1_555 1_555
O5_4 Mn9_2 1_555 1_555
C10_4 C9_4 1_555 1_555
H11_4 C10_4 1_555 1_555
C12_4 O5_4 1_555 1_555
O20_3 C12_4 1_555 1_555
C9_4 C12_4 1_555 1_555
O1_6 C5_4 1_555 1_555
O4_4 C4_4 1_555 1_555
O26_4 C26_4 1_555 1_555
O27_2 C26_4 1_555 1_555
C1_4 C2_4 1_555 1_555
C2_4 H1_4 1_555 1_555
C3_4 C1_4 1_555 1_555
H3_4 C3_4 1_555 1_555
H4_4 C3_4 1_555 1_555
C4_4 C1_4 1_555 1_555
H5_4 C4_4 1_555 1_555
H6_4 C4_4 1_555 1_555
C5_4 C1_4 1_555 1_555
H7_4 C5_4 1_555 1_555
C20_4 O4_4 1_555 1_555
C21_4 C20_4 1_555 1_555
H17_4 C21_4 1_555 1_555
C22_4 C21_4 1_555 1_555
H18_4 C22_4 1_555 1_555
C23_4 C22_4 1_555 1_555
C24_4 C23_4 1_555 1_555
H19_4 C24_4 1_555 1_555
C25_4 C20_4 1_555 1_555
H20_4 C25_4 1_555 1_555
C26_4 C23_4 1_555 1_555
O14_4 C50_4 1_555 1_555
O20_4 C50_4 1_555 1_555
C44_4 O11_4 1_555 1_555
C45_4 C44_4 1_555 1_555
H39_4 C45_4 1_555 1_555
C46_4 C45_4 1_555 1_555
H40_4 C46_4 1_555 1_555
C47_4 C46_4 1_555 1_555
C48_4 C47_4 1_555 1_555
H41_4 C48_4 1_555 1_555
C49_4 C44_4 1_555 1_555
H42_4 C49_4 1_555 1_555
C50_4 C47_4 1_555 1_555
Mn11_2 O14_4 1_555 1_555
C24_4 C25_4 1_555 1_555
C48_4 C49_4 1_555 1_555
O22_2 C19_4 1_555 1_555
O24_2 C19_4 1_555 1_555
C13_4 O3_4 1_555 1_555
C14_4 C13_4 1_555 1_555
H13_4 C14_4 1_555 1_555
C15_4 C14_4 1_555 1_555
H14_4 C15_4 1_555 1_555
C16_4 C15_4 1_555 1_555
C17_4 C16_4 1_555 1_555
H15_4 C17_4 1_555 1_555
C18_4 C13_4 1_555 1_555
H16_4 C18_4 1_555 1_555
C19_4 C16_4 1_555 1_555
C17_4 C18_4 1_555 1_555

#END
