
###############################################################################
#
# This file contains modified crystal structure data generated from the
# MOF subset of the Cambridge Structural Database (CSD) v543 
# hosted by the Cambridge Crystallographic Data Centre (CCDC).
#
# This work is licensed under the Creative Commons
# Attribution-NonCommercial-ShareAlike 4.0 International License.
# To view a copy of this license, visit
# http://creativecommons.org/licenses/by-nc-sa/4.0/
# or send a letter to
# Creative Commons, PO Box 1866, Mountain View, CA 94042, USA.
#
# CIF created using the CSD Python API on 29 September 2022
# The structure has been converted into the P1 space group
# The structure has a 3D framework
# The original CSD entry AFUVUV is in the monoclinic crystal system
# The framework has been calculated to contain at least 10.0% void space
# The void calculation uses a probe of radius 1.32A, grid spacing 0.4
# The framework is charged, counterions have been retained in the structure
#
###############################################################################

data_AFUVUV
_chemical_formula_moiety         '(C282 H182 Co16 N48 O72 2+)n'
_symmetry_cell_setting           triclinic
_symmetry_space_group_name_H-M   'P 1'
_symmetry_Int_Tables_number      1
_space_group_name_Hall           'P 1'
loop_
_symmetry_equiv_pos_site_id
_symmetry_equiv_pos_as_xyz
1 x,y,z
_cell_length_a                   37.298(6)
_cell_length_b                   13.1819(19)
_cell_length_c                   19.249(5)
_cell_angle_alpha                90
_cell_angle_beta                 113.855(14)
_cell_angle_gamma                90
_cell_volume                     8655.45
loop_
_atom_site_label
_atom_site_type_symbol
_atom_site_fract_x
_atom_site_fract_y
_atom_site_fract_z
C40 C 0.68387(8) 0.5491(2) 0.13172(16)
C41 C 0.64458(8) 0.5214(2) 0.09561(16)
H25 H 0.6375 0.4651 0.0638
C42 C 0.61588(8) 0.5778(2) 0.10704(17)
C43 C 0.62652(9) 0.6600(2) 0.15568(18)
H26 H 0.6075 0.6960 0.1650
C44 C 0.66591(9) 0.6893(3) 0.19102(18)
C45 C 0.69416(9) 0.6338(2) 0.17795(18)
H27 H 0.7203 0.6538 0.2005
C46 C 0.71485(9) 0.4848(2) 0.12221(18)
C47 C 0.57337(9) 0.5492(2) 0.06755(16)
C48 C 0.67708(11) 0.7774(3) 0.2447(2)
C49 C 0.88963(13) 0.7681(4) 0.2745(3)
H28 H 0.9154 0.7905 0.2910
C50 C 0.86054(15) 0.8304(4) 0.2735(3)
H29 H 0.8664 0.8977 0.2883
C51 C 0.82214(14) 0.7964(4) 0.2510(3)
H30 H 0.8032 0.8405 0.2533
C52 C 0.81173(11) 0.6995(3) 0.2256(2)
H31 H 0.7858 0.6779 0.2086
C53 C 0.84079(9) 0.6350(3) 0.22600(18)
C54 C 0.87918(10) 0.6695(3) 0.2498(2)
C55 C 0.87569(10) 0.5100(3) 0.2163(2)
H32 H 0.8831 0.4459 0.2068
H36 H 0.7725 0.5760 0.0244
C60 C 0.78089(12) 0.4314(3) 0.0012(2)
C62 C 0.79723(12) 0.2843(3) 0.0516(3)
H37 H 0.8049 0.2318 0.0868
H39 H 0.6347 0.0268 0.0051
C65 C 0.61958(17) 0.1562(5) 0.0404(4)
H40 H 0.6430 0.1633 0.0829
C66 C 0.59055(13) 0.2291(4) 0.0259(3)
H41 H 0.5943 0.2850 0.0575
Co4 Co 0.79520(2) 0.42989(3) 0.16959(2)
N7 N 0.83954(8) 0.5336(2) 0.20514(16)
N8 N 0.90066(9) 0.5870(2) 0.2425(2)
H43 H 0.9254 0.5859 0.2529
N9 N 0.79174(8) 0.3778(2) 0.06872(16)
O13 O 0.74969(6) 0.51669(17) 0.15564(12)
O14 O 0.70516(7) 0.4069(2) 0.08413(17)
O15 O 0.56536(6) 0.46725(18) 0.03089(12)
O16 O 0.54868(6) 0.60960(17) 0.07353(12)
O17 O 0.65373(8) 0.8067(2) 0.27183(17)
O18 O 0.70992(7) 0.81803(19) 0.26340(14)
Co6 Co 0.48878(2) 0.59186(3) 0.02600(2)
Co7 Co 0.70480(2) 0.92989(3) 0.33041(2)
O21 O 0.84627(8) 0.3067(2) 0.22817(17)
O23 O 0.79008(7) 0.31803(19) 0.23660(14)
O26 O 0.51077(7) 0.35943(17) 0.07413(11)
C1 C 0.31613(8) 0.5491(2) 0.36828(16)
C2 C 0.35542(8) 0.5214(2) 0.40439(16)
H1 H 0.3625 0.4651 0.4362
C3 C 0.38412(8) 0.5778(2) 0.39296(17)
C4 C 0.37348(9) 0.6600(2) 0.34432(18)
H2 H 0.3925 0.6960 0.3350
C5 C 0.33409(9) 0.6893(3) 0.30898(18)
C6 C 0.30584(9) 0.6338(2) 0.32205(18)
H3 H 0.2797 0.6538 0.2995
C7 C 0.28515(9) 0.4848(2) 0.37779(18)
C8 C 0.42663(9) 0.5492(2) 0.43245(16)
C9 C 0.32292(11) 0.7774(3) 0.2553(2)
C10 C 0.5000 0.8051(3) 0.7500
C11 C 0.50381(8) 0.7515(2) 0.69102(15)
H4 H 0.5072 0.7866 0.6522
C12 C 0.50258(8) 0.6467(2) 0.68944(15)
C13 C 0.5000 0.5940(3) 0.7500
H5 H 0.5000 0.5235 0.7500
C14 C 0.5000 0.9194(3) 0.7500
C15 C 0.50322(9) 0.5904(2) 0.62191(16)
C16 C 0.11037(13) 0.7681(4) 0.2255(3)
H6 H 0.0846 0.7905 0.2090
C17 C 0.13946(15) 0.8304(4) 0.2265(3)
H7 H 0.1336 0.8977 0.2117
C18 C 0.17786(14) 0.7964(4) 0.2490(3)
H8 H 0.1968 0.8405 0.2467
C19 C 0.18827(11) 0.6995(3) 0.2744(2)
H9 H 0.2142 0.6779 0.2914
C20 C 0.15921(9) 0.6350(3) 0.27400(18)
C21 C 0.12082(10) 0.6695(3) 0.2502(2)
C22 C 0.12431(10) 0.5100(3) 0.2837(2)
H10 H 0.1169 0.4459 0.2932
C23 C 0.22846(17) 0.3966(6) 0.6289(3)
H11 H 0.2280 0.3529 0.6665
C24 C 0.2378(2) 0.4964(8) 0.6431(3)
H12 H 0.2462 0.5196 0.6928
C25 C 0.2354(2) 0.5640(6) 0.5875(3)
H13 H 0.2392 0.6327 0.5992
C26 C 0.22730(18) 0.5315(4) 0.5129(2)
H14 H 0.2275 0.5760 0.4756
C27 C 0.21911(12) 0.4314(3) 0.4988(2)
C28 C 0.21955(12) 0.3633(4) 0.5550(2)
C29 C 0.20277(12) 0.2843(3) 0.4484(3)
H15 H 0.1951 0.2318 0.4132
C30 C 0.42012(18) 0.0582(4) 0.5708(4)
H16 H 0.4235 0.0030 0.6029
C31 C 0.38550(19) 0.0736(5) 0.5065(5)
H17 H 0.3653 0.0268 0.4949
C32 C 0.38042(17) 0.1562(5) 0.4596(4)
H18 H 0.3570 0.1633 0.4171
C33 C 0.40945(13) 0.2291(4) 0.4741(3)
H19 H 0.4057 0.2850 0.4425
C34 C 0.44420(12) 0.2156(3) 0.5376(2)
C35 C 0.44929(13) 0.1304(3) 0.5840(3)
C36 C 0.50215(12) 0.2251(3) 0.6262(2)
H20 H 0.5274 0.2474 0.6558
Co1 Co 0.48878(2) 0.40814(3) 0.52600(2)
Co2 Co 0.20480(2) 0.42989(3) 0.33041(2)
N1 N 0.16046(8) 0.5336(2) 0.29486(16)
N2 N 0.09934(9) 0.5870(2) 0.2575(2)
H21 H 0.0746 0.5859 0.2471
N3 N 0.20826(8) 0.3778(2) 0.43128(16)
N4 N 0.20924(10) 0.2722(3) 0.5211(2)
H22 H 0.2072 0.2165 0.5424
N5 N 0.47759(8) 0.2753(2) 0.56622(15)
N6 N 0.48708(11) 0.1390(3) 0.63985(19)
H23 H 0.4986 0.0971 0.6763
O1 O 0.25031(6) 0.51669(17) 0.34436(12)
O2 O 0.29484(7) 0.4069(2) 0.41587(17)
O3 O 0.43464(6) 0.46725(18) 0.46911(12)
O4 O 0.45132(6) 0.60960(17) 0.42647(12)
O5 O 0.34627(8) 0.8067(2) 0.22817(17)
O6 O 0.29008(7) 0.81803(19) 0.23660(14)
O7 O 0.49542(7) 0.49805(17) 0.61725(11)
O8 O 0.52262(7) 0.96343(16) 0.72677(14)
O9 O 0.51077(7) 0.64057(17) 0.57413(11)
C37 C 0.49619(8) 0.7515(2) 0.80898(15)
H24 H 0.4928 0.7866 0.8478
C38 C 0.49742(8) 0.6467(2) 0.81056(15)
C39 C 0.49678(9) 0.5904(2) 0.87809(16)
O10 O 0.50458(7) 0.49805(17) 0.88275(11)
O11 O 0.47738(7) 0.96343(16) 0.77323(14)
O12 O 0.48923(7) 0.64057(17) 0.92587(11)
C56 C 0.77154(17) 0.3966(6) 0.8711(3)
H33 H 0.7720 0.3529 0.8335
C57 C 0.7622(2) 0.4964(8) 0.8569(3)
H34 H 0.7538 0.5196 0.8072
C58 C 0.7646(2) 0.5640(6) 0.9125(3)
H35 H 0.7608 0.6327 0.9008
C59 C 0.77270(18) 0.5315(4) 0.9871(2)
C61 C 0.78045(12) 0.3633(4) 0.9450(2)
C63 C 0.57988(18) 0.0582(4) 0.9292(4)
H38 H 0.5765 0.0030 0.8971
C64 C 0.61450(19) 0.0736(5) 0.9935(5)
C67 C 0.55580(12) 0.2156(3) 0.9624(2)
C68 C 0.55071(13) 0.1304(3) 0.9160(3)
C69 C 0.49785(12) 0.2251(3) 0.8738(2)
H42 H 0.4726 0.2474 0.8442
Co3 Co 0.51122(2) 0.40814(3) 0.97400(2)
N10 N 0.79076(10) 0.2722(3) 0.9789(2)
H44 H 0.7928 0.2165 0.9576
N11 N 0.52241(8) 0.2753(2) 0.93378(15)
N12 N 0.51292(11) 0.1390(3) 0.86015(19)
H45 H 0.5014 0.0971 0.8237
Co5 Co 0.51122(2) 0.59186(3) 0.47400(2)
Co8 Co 0.29520(2) 0.92989(3) 0.16959(2)
O19 O 0.54868(6) 0.39040(17) 0.57353(12)
O20 O 0.45132(6) 0.39040(17) 0.92647(12)
O22 O 0.15373(8) 0.3067(2) 0.27183(17)
O24 O 0.20992(7) 0.31803(19) 0.26340(14)
O25 O 0.48923(7) 0.35943(17) 0.42587(11)
C40_2 C 0.18387(8) 0.0491(2) 0.13172(16)
C41_2 C 0.14458(8) 0.0214(2) 0.09561(16)
C42_2 C 0.11588(8) 0.0778(2) 0.10704(17)
C43_2 C 0.12652(9) 0.1600(2) 0.15568(18)
H26_2 H 0.1075 0.1960 0.1650
C44_2 C 0.16591(9) 0.1893(3) 0.19102(18)
C45_2 C 0.19416(9) 0.1338(2) 0.17795(18)
H27_2 H 0.2203 0.1538 0.2005
C47_2 C 0.07337(9) 0.0492(2) 0.06755(16)
C48_2 C 0.17708(11) 0.2774(3) 0.2447(2)
C49_2 C 0.38963(13) 0.2681(4) 0.2745(3)
H28_2 H 0.4154 0.2905 0.2910
C50_2 C 0.36054(15) 0.3304(4) 0.2735(3)
H29_2 H 0.3664 0.3977 0.2883
C51_2 C 0.32214(14) 0.2964(4) 0.2510(3)
H30_2 H 0.3032 0.3405 0.2533
C52_2 C 0.31173(11) 0.1995(3) 0.2256(2)
H31_2 H 0.2858 0.1779 0.2086
C53_2 C 0.34079(9) 0.1350(3) 0.22600(18)
C54_2 C 0.37918(10) 0.1695(3) 0.2498(2)
C55_2 C 0.37569(10) 0.0100(3) 0.2163(2)
H36_2 H 0.2725 0.0760 0.0244
N7_2 N 0.33954(8) 0.0336(2) 0.20514(16)
N8_2 N 0.40066(9) 0.0870(2) 0.2425(2)
H43_2 H 0.4254 0.0859 0.2529
O13_2 O 0.24969(6) 0.01669(17) 0.15564(12)
O16_2 O 0.04868(6) 0.10960(17) 0.07353(12)
C10_2 C -0.0000 0.3051(3) 0.7500
C11_2 C 0.00381(8) 0.2515(2) 0.69102(15)
H4_2 H 0.0072 0.2866 0.6522
C12_2 C 0.00258(8) 0.1467(2) 0.68944(15)
C13_2 C -0.0000 0.0940(3) 0.7500
H5_2 H -0.0000 0.0235 0.7500
C14_2 C -0.0000 0.4194(3) 0.7500
C15_2 C 0.00322(9) 0.0904(2) 0.62191(16)
O8_2 O 0.02262(7) 0.46343(16) 0.72677(14)
O9_2 O 0.01077(7) 0.14057(17) 0.57413(11)
H34_2 H 0.2538 0.0196 0.8072
C58_2 C 0.2646(2) 0.0640(6) 0.9125(3)
H35_2 H 0.2608 0.1327 0.9008
C59_2 C 0.27270(18) 0.0315(4) 0.9871(2)
Co5_2 Co 0.01122(2) 0.09186(3) 0.47400(2)
H25_2 H 0.1375 0.9651 0.0638
C46_2 C 0.21485(9) 0.9848(2) 0.12221(18)
H32_2 H 0.3831 0.9459 0.2068
C60_2 C 0.28089(12) 0.9314(3) 0.0012(2)
C62_2 C 0.29723(12) 0.7843(3) 0.0516(3)
H37_2 H 0.3049 0.7318 0.0868
H39_2 H 0.1347 0.5268 0.0051
C65_2 C 0.11958(17) 0.6562(5) 0.0404(4)
H40_2 H 0.1430 0.6633 0.0829
C66_2 C 0.09055(13) 0.7291(4) 0.0259(3)
H41_2 H 0.0943 0.7850 0.0575
N9_2 N 0.29174(8) 0.8778(2) 0.06872(16)
O14_2 O 0.20516(7) 0.9069(2) 0.08413(17)
O15_2 O 0.06536(6) 0.96725(18) 0.03089(12)
O26_2 O 0.01077(7) 0.85943(17) 0.07413(11)
C36_2 C 0.00215(12) 0.7251(3) 0.6262(2)
H20_2 H 0.0274 0.7474 0.6558
O10_2 O 0.00458(7) 0.99805(17) 0.88275(11)
C56_2 C 0.27154(17) 0.8966(6) 0.8711(3)
H33_2 H 0.2720 0.8529 0.8335
C57_2 C 0.2622(2) 0.9964(8) 0.8569(3)
C61_2 C 0.28045(12) 0.8633(4) 0.9450(2)
C63_2 C 0.07988(18) 0.5582(4) 0.9292(4)
H38_2 H 0.0765 0.5030 0.8971
C64_2 C 0.11450(19) 0.5736(5) 0.9935(5)
C67_2 C 0.05580(12) 0.7156(3) 0.9624(2)
C68_2 C 0.05071(13) 0.6304(3) 0.9160(3)
Co3_2 Co 0.01122(2) 0.90814(3) 0.97400(2)
N10_2 N 0.29076(10) 0.7722(3) 0.9789(2)
H44_2 H 0.2928 0.7165 0.9576
N11_2 N 0.02241(8) 0.7753(2) 0.93378(15)
N12_2 N 0.01292(11) 0.6390(3) 0.86015(19)
H45_2 H 0.0014 0.5971 0.8237
O19_2 O 0.04868(6) 0.89040(17) 0.57353(12)
Co6_2 Co 0.98878(2) 0.09186(3) 0.02600(2)
C1_2 C 0.81613(8) 0.0491(2) 0.36828(16)
C2_2 C 0.85542(8) 0.0214(2) 0.40439(16)
C3_2 C 0.88412(8) 0.0778(2) 0.39296(17)
C4_2 C 0.87348(9) 0.1600(2) 0.34432(18)
H2_2 H 0.8925 0.1960 0.3350
C5_2 C 0.83409(9) 0.1893(3) 0.30898(18)
C6_2 C 0.80584(9) 0.1338(2) 0.32205(18)
H3_2 H 0.7797 0.1538 0.2995
C8_2 C 0.92663(9) 0.0492(2) 0.43245(16)
C9_2 C 0.82292(11) 0.2774(3) 0.2553(2)
C10_3 C 1.0000 0.3051(3) 0.7500
C13_3 C 1.0000 0.0940(3) 0.7500
H5_3 H 1.0000 0.0235 0.7500
C14_3 C 1.0000 0.4194(3) 0.7500
C16_2 C 0.61037(13) 0.2681(4) 0.2255(3)
H6_2 H 0.5846 0.2905 0.2090
C17_2 C 0.63946(15) 0.3304(4) 0.2265(3)
H7_2 H 0.6336 0.3977 0.2117
C18_2 C 0.67786(14) 0.2964(4) 0.2490(3)
H8_2 H 0.6968 0.3405 0.2467
C19_2 C 0.68827(11) 0.1995(3) 0.2744(2)
H9_2 H 0.7142 0.1779 0.2914
C20_2 C 0.65921(9) 0.1350(3) 0.27400(18)
C21_2 C 0.62082(10) 0.1695(3) 0.2502(2)
C22_2 C 0.62431(10) 0.0100(3) 0.2837(2)
H12_2 H 0.7462 0.0196 0.6928
C25_2 C 0.7354(2) 0.0640(6) 0.5875(3)
H13_2 H 0.7392 0.1327 0.5992
C26_2 C 0.72730(18) 0.0315(4) 0.5129(2)
H14_2 H 0.7275 0.0760 0.4756
N1_2 N 0.66046(8) 0.0336(2) 0.29486(16)
N2_2 N 0.59934(9) 0.0870(2) 0.2575(2)
H21_2 H 0.5746 0.0859 0.2471
O1_2 O 0.75031(6) 0.01669(17) 0.34436(12)
O4_2 O 0.95132(6) 0.10960(17) 0.42647(12)
C37_2 C 0.99619(8) 0.2515(2) 0.80898(15)
H24_2 H 0.9928 0.2866 0.8478
C38_2 C 0.99742(8) 0.1467(2) 0.81056(15)
C39_2 C 0.99678(9) 0.0904(2) 0.87809(16)
O11_2 O 0.97738(7) 0.46343(16) 0.77323(14)
O12_2 O 0.98923(7) 0.14057(17) 0.92587(11)
H1_2 H 0.8625 0.9651 0.4362
C7_2 C 0.78515(9) 0.9848(2) 0.37779(18)
H10_2 H 0.6169 0.9459 0.2932
C23_2 C 0.72846(17) 0.8966(6) 0.6289(3)
H11_2 H 0.7280 0.8529 0.6665
C24_2 C 0.7378(2) 0.9964(8) 0.6431(3)
C27_2 C 0.71911(12) 0.9314(3) 0.4988(2)
C28_2 C 0.71955(12) 0.8633(4) 0.5550(2)
C29_2 C 0.70277(12) 0.7843(3) 0.4484(3)
H15_2 H 0.6951 0.7318 0.4132
C30_2 C 0.92012(18) 0.5582(4) 0.5708(4)
H16_2 H 0.9235 0.5030 0.6029
C31_2 C 0.88550(19) 0.5736(5) 0.5065(5)
H17_2 H 0.8653 0.5268 0.4949
C32_2 C 0.88042(17) 0.6562(5) 0.4596(4)
H18_2 H 0.8570 0.6633 0.4171
C33_2 C 0.90945(13) 0.7291(4) 0.4741(3)
H19_2 H 0.9057 0.7850 0.4425
C34_2 C 0.94420(12) 0.7156(3) 0.5376(2)
C35_2 C 0.94929(13) 0.6304(3) 0.5840(3)
Co1_2 Co 0.98878(2) 0.90814(3) 0.52600(2)
N3_2 N 0.70826(8) 0.8778(2) 0.43128(16)
N4_2 N 0.70924(10) 0.7722(3) 0.5211(2)
H22_2 H 0.7072 0.7165 0.5424
N5_2 N 0.97759(8) 0.7753(2) 0.56622(15)
N6_2 N 0.98708(11) 0.6390(3) 0.63985(19)
H23_2 H 0.9986 0.5971 0.6763
O2_2 O 0.79484(7) 0.9069(2) 0.41587(17)
O3_2 O 0.93464(6) 0.96725(18) 0.46911(12)
O7_2 O 0.99542(7) 0.99805(17) 0.61725(11)
C69_2 C 0.99785(12) 0.7251(3) 0.8738(2)
H42_2 H 0.9726 0.7474 0.8442
O20_2 O 0.95132(6) 0.89040(17) 0.92647(12)
O25_2 O 0.98923(7) 0.85943(17) 0.42587(11)
C1_3 C 0.68387(8) 0.4509(2) 0.63172(16)
C2_3 C 0.64458(8) 0.4786(2) 0.59561(16)
H1_3 H 0.6375 0.5349 0.5638
C3_3 C 0.61588(8) 0.4222(2) 0.60704(17)
C4_3 C 0.62652(9) 0.3400(2) 0.65568(18)
H2_3 H 0.6075 0.3040 0.6650
C5_3 C 0.66591(9) 0.3107(3) 0.69102(18)
C6_3 C 0.69416(9) 0.3662(2) 0.67795(18)
H3_3 H 0.7203 0.3462 0.7005
C7_3 C 0.71485(9) 0.5152(2) 0.62221(18)
C8_3 C 0.57337(9) 0.4508(2) 0.56755(16)
C9_3 C 0.67708(11) 0.2226(3) 0.7447(2)
C10_4 C 0.5000 0.1949(3) 0.2500
C11_3 C 0.49619(8) 0.2485(2) 0.30898(15)
H4_3 H 0.4928 0.2134 0.3478
C12_3 C 0.49742(8) 0.3533(2) 0.31056(15)
C13_4 C 0.5000 0.4060(3) 0.2500
H5_4 H 0.5000 0.4765 0.2500
C14_4 C 0.5000 0.0806(3) 0.2500
C15_3 C 0.49678(9) 0.4096(2) 0.37809(16)
C16_3 C 0.88963(13) 0.2319(4) 0.7745(3)
H6_3 H 0.9154 0.2095 0.7910
C17_3 C 0.86054(15) 0.1696(4) 0.7735(3)
H7_3 H 0.8664 0.1023 0.7883
C18_3 C 0.82214(14) 0.2036(4) 0.7510(3)
H8_3 H 0.8032 0.1595 0.7533
C19_3 C 0.81173(11) 0.3005(3) 0.7256(2)
H9_3 H 0.7858 0.3221 0.7086
C20_3 C 0.84079(9) 0.3650(3) 0.72600(18)
C21_3 C 0.87918(10) 0.3305(3) 0.7498(2)
C22_3 C 0.87569(10) 0.4900(3) 0.7163(2)
H10_3 H 0.8831 0.5541 0.7068
C23_3 C 0.77154(17) 0.6034(6) 0.3711(3)
H11_3 H 0.7720 0.6471 0.3335
C24_3 C 0.7622(2) 0.5036(8) 0.3569(3)
H12_3 H 0.7538 0.4804 0.3072
C25_3 C 0.7646(2) 0.4360(6) 0.4125(3)
H13_3 H 0.7608 0.3673 0.4008
C26_3 C 0.77270(18) 0.4685(4) 0.4871(2)
H14_3 H 0.7725 0.4240 0.5244
C27_3 C 0.78089(12) 0.5686(3) 0.5012(2)
C28_3 C 0.78045(12) 0.6367(4) 0.4450(2)
C29_3 C 0.79723(12) 0.7157(3) 0.5516(3)
H15_3 H 0.8049 0.7682 0.5868
C30_3 C 0.57988(18) 0.9418(4) 0.4292(4)
H16_3 H 0.5765 0.9970 0.3971
C31_3 C 0.61450(19) 0.9264(5) 0.4935(5)
H17_3 H 0.6347 0.9732 0.5051
C32_3 C 0.61958(17) 0.8438(5) 0.5404(4)
H18_3 H 0.6430 0.8367 0.5829
C33_3 C 0.59055(13) 0.7709(4) 0.5259(3)
H19_3 H 0.5943 0.7150 0.5575
C34_3 C 0.55580(12) 0.7844(3) 0.4624(2)
C35_3 C 0.55071(13) 0.8696(3) 0.4160(3)
C36_3 C 0.49785(12) 0.7749(3) 0.3738(2)
H20_3 H 0.4726 0.7526 0.3442
Co2_2 Co 0.79520(2) 0.57011(3) 0.66959(2)
N1_3 N 0.83954(8) 0.4664(2) 0.70514(16)
N2_3 N 0.90066(9) 0.4130(2) 0.7425(2)
H21_3 H 0.9254 0.4141 0.7529
N3_3 N 0.79174(8) 0.6222(2) 0.56872(16)
N4_3 N 0.79076(10) 0.7278(3) 0.4789(2)
H22_3 H 0.7928 0.7835 0.4576
N5_3 N 0.52241(8) 0.7247(2) 0.43378(15)
N6_3 N 0.51292(11) 0.8610(3) 0.36015(19)
H23_3 H 0.5014 0.9029 0.3237
O1_3 O 0.74969(6) 0.48331(17) 0.65564(12)
O2_3 O 0.70516(7) 0.5931(2) 0.58413(17)
O3_3 O 0.56536(6) 0.53275(18) 0.53089(12)
O5_2 O 0.65373(8) 0.1933(2) 0.77183(17)
O6_2 O 0.70992(7) 0.18197(19) 0.76340(14)
O7_3 O 0.50458(7) 0.50195(17) 0.38275(11)
O8_3 O 0.47738(7) 0.03657(16) 0.27323(14)
C37_3 C 0.50381(8) 0.2485(2) 0.19102(15)
H24_3 H 0.5072 0.2134 0.1522
C38_3 C 0.50258(8) 0.3533(2) 0.18944(15)
C39_3 C 0.50322(9) 0.4096(2) 0.12191(16)
O10_3 O 0.49542(7) 0.50195(17) 0.11725(11)
O11_3 O 0.52262(7) 0.03657(16) 0.22677(14)
C56_3 C 0.22846(17) 0.6034(6) 0.1289(3)
H33_3 H 0.2280 0.6471 0.1665
C57_3 C 0.2378(2) 0.5036(8) 0.1431(3)
H34_3 H 0.2462 0.4804 0.1928
C58_3 C 0.2354(2) 0.4360(6) 0.0875(3)
H35_3 H 0.2392 0.3673 0.0992
C59_3 C 0.22730(18) 0.4685(4) 0.0129(2)
C61_3 C 0.21955(12) 0.6367(4) 0.0550(2)
C63_3 C 0.42012(18) 0.9418(4) 0.0708(4)
H38_3 H 0.4235 0.9970 0.1029
C64_3 C 0.38550(19) 0.9264(5) 0.0065(5)
C67_3 C 0.44420(12) 0.7844(3) 0.0376(2)
C68_3 C 0.44929(13) 0.8696(3) 0.0840(3)
C69_3 C 0.50215(12) 0.7749(3) 0.1262(2)
H42_3 H 0.5274 0.7526 0.1558
N10_3 N 0.20924(10) 0.7278(3) 0.0211(2)
H44_3 H 0.2072 0.7835 0.0424
N11_3 N 0.47759(8) 0.7247(2) 0.06622(15)
N12_3 N 0.48708(11) 0.8610(3) 0.13985(19)
H45_3 H 0.4986 0.9029 0.1763
Co8_2 Co 0.70480(2) 0.07011(3) 0.83041(2)
O22_2 O 0.84627(8) 0.6933(2) 0.72817(17)
O24_2 O 0.79008(7) 0.68197(19) 0.73660(14)
C40_3 C 0.31613(8) 0.4509(2) 0.86828(16)
C41_3 C 0.35542(8) 0.4786(2) 0.90439(16)
H25_3 H 0.3625 0.5349 0.9362
C42_3 C 0.38412(8) 0.4222(2) 0.89296(17)
C43_3 C 0.37348(9) 0.3400(2) 0.84432(18)
H26_3 H 0.3925 0.3040 0.8350
C44_3 C 0.33409(9) 0.3107(3) 0.80898(18)
C45_3 C 0.30584(9) 0.3662(2) 0.82205(18)
H27_3 H 0.2797 0.3462 0.7995
C46_3 C 0.28515(9) 0.5152(2) 0.87779(18)
C47_3 C 0.42663(9) 0.4508(2) 0.93245(16)
C48_3 C 0.32292(11) 0.2226(3) 0.7553(2)
C49_3 C 0.11037(13) 0.2319(4) 0.7255(3)
H28_3 H 0.0846 0.2095 0.7090
C50_3 C 0.13946(15) 0.1696(4) 0.7265(3)
H29_3 H 0.1336 0.1023 0.7117
C51_3 C 0.17786(14) 0.2036(4) 0.7490(3)
H30_3 H 0.1968 0.1595 0.7467
C52_3 C 0.18827(11) 0.3005(3) 0.7744(2)
H31_3 H 0.2142 0.3221 0.7914
C53_3 C 0.15921(9) 0.3650(3) 0.77400(18)
C54_3 C 0.12082(10) 0.3305(3) 0.7502(2)
C55_3 C 0.12431(10) 0.4900(3) 0.7837(2)
H32_3 H 0.1169 0.5541 0.7932
H36_3 H 0.2275 0.4240 0.9756
C60_3 C 0.21911(12) 0.5686(3) 0.9988(2)
C62_3 C 0.20277(12) 0.7157(3) 0.9484(3)
H37_3 H 0.1951 0.7682 0.9132
H39_3 H 0.3653 0.9732 0.9949
C65_3 C 0.38042(17) 0.8438(5) 0.9596(4)
H40_3 H 0.3570 0.8367 0.9171
C66_3 C 0.40945(13) 0.7709(4) 0.9741(3)
H41_3 H 0.4057 0.7150 0.9425
Co4_2 Co 0.20480(2) 0.57011(3) 0.83041(2)
N7_3 N 0.16046(8) 0.4664(2) 0.79486(16)
N8_3 N 0.09934(9) 0.4130(2) 0.7575(2)
H43_3 H 0.0746 0.4141 0.7471
N9_3 N 0.20826(8) 0.6222(2) 0.93128(16)
O13_3 O 0.25031(6) 0.48331(17) 0.84436(12)
O14_3 O 0.29484(7) 0.5931(2) 0.91587(17)
O15_3 O 0.43464(6) 0.53275(18) 0.96911(12)
O17_2 O 0.34627(8) 0.1933(2) 0.72817(17)
O18_2 O 0.29008(7) 0.18197(19) 0.73660(14)
Co7_2 Co 0.29520(2) 0.07011(3) 0.66959(2)
O21_2 O 0.15373(8) 0.6933(2) 0.77183(17)
O23_2 O 0.20992(7) 0.68197(19) 0.76340(14)
H1_4 H 0.1375 0.0349 0.5638
C7_4 C 0.21485(9) 0.0152(2) 0.62221(18)
H10_4 H 0.3831 0.0541 0.7068
C23_4 C 0.27154(17) 0.1034(6) 0.3711(3)
H11_4 H 0.2720 0.1471 0.3335
C24_4 C 0.2622(2) 0.0036(8) 0.3569(3)
C27_4 C 0.28089(12) 0.0686(3) 0.5012(2)
C28_4 C 0.28045(12) 0.1367(4) 0.4450(2)
C29_4 C 0.29723(12) 0.2157(3) 0.5516(3)
H15_4 H 0.3049 0.2682 0.5868
C30_4 C 0.07988(18) 0.4418(4) 0.4292(4)
H16_4 H 0.0765 0.4970 0.3971
C31_4 C 0.11450(19) 0.4264(5) 0.4935(5)
H17_4 H 0.1347 0.4732 0.5051
C32_4 C 0.11958(17) 0.3438(5) 0.5404(4)
H18_4 H 0.1430 0.3367 0.5829
C33_4 C 0.09055(13) 0.2709(4) 0.5259(3)
H19_4 H 0.0943 0.2150 0.5575
C34_4 C 0.05580(12) 0.2844(3) 0.4624(2)
C35_4 C 0.05071(13) 0.3696(3) 0.4160(3)
N3_4 N 0.29174(8) 0.1222(2) 0.56872(16)
N4_4 N 0.29076(10) 0.2278(3) 0.4789(2)
H22_4 H 0.2928 0.2835 0.4576
N5_4 N 0.02241(8) 0.2247(2) 0.43378(15)
N6_4 N 0.01292(11) 0.3610(3) 0.36015(19)
H23_4 H 0.0014 0.4029 0.3237
O2_4 O 0.20516(7) 0.0931(2) 0.58413(17)
O3_4 O 0.06536(6) 0.03275(18) 0.53089(12)
O7_4 O 0.00458(7) 0.00195(17) 0.38275(11)
C69_4 C 0.00215(12) 0.2749(3) 0.1262(2)
H42_4 H 0.0274 0.2526 0.1558
C1_4 C 0.18387(8) 0.9509(2) 0.63172(16)
C2_4 C 0.14458(8) 0.9786(2) 0.59561(16)
C3_4 C 0.11588(8) 0.9222(2) 0.60704(17)
C4_4 C 0.12652(9) 0.8400(2) 0.65568(18)
H2_4 H 0.1075 0.8040 0.6650
C5_4 C 0.16591(9) 0.8107(3) 0.69102(18)
C6_4 C 0.19416(9) 0.8662(2) 0.67795(18)
H3_4 H 0.2203 0.8462 0.7005
C8_4 C 0.07337(9) 0.9508(2) 0.56755(16)
C9_4 C 0.17708(11) 0.7226(3) 0.7447(2)
C10_5 C 0.0000 0.6949(3) 0.2500
C13_5 C 0.0000 0.9060(3) 0.2500
H5_5 H 0.0000 0.9765 0.2500
C14_5 C 0.0000 0.5806(3) 0.2500
C16_4 C 0.38963(13) 0.7319(4) 0.7745(3)
H6_4 H 0.4154 0.7095 0.7910
C17_4 C 0.36054(15) 0.6696(4) 0.7735(3)
H7_4 H 0.3664 0.6023 0.7883
C18_4 C 0.32214(14) 0.7036(4) 0.7510(3)
H8_4 H 0.3032 0.6595 0.7533
C19_4 C 0.31173(11) 0.8005(3) 0.7256(2)
H9_4 H 0.2858 0.8221 0.7086
C20_4 C 0.34079(9) 0.8650(3) 0.72600(18)
C21_4 C 0.37918(10) 0.8305(3) 0.7498(2)
C22_4 C 0.37569(10) 0.9900(3) 0.7163(2)
H12_4 H 0.2538 0.9804 0.3072
C25_4 C 0.2646(2) 0.9360(6) 0.4125(3)
H13_4 H 0.2608 0.8673 0.4008
C26_4 C 0.27270(18) 0.9685(4) 0.4871(2)
H14_4 H 0.2725 0.9240 0.5244
N1_4 N 0.33954(8) 0.9664(2) 0.70514(16)
N2_4 N 0.40066(9) 0.9130(2) 0.7425(2)
H21_4 H 0.4254 0.9141 0.7529
O1_4 O 0.24969(6) 0.98331(17) 0.65564(12)
C37_4 C 0.00381(8) 0.7485(2) 0.19102(15)
H24_4 H 0.0072 0.7134 0.1522
C38_4 C 0.00258(8) 0.8533(2) 0.18944(15)
C39_4 C 0.00322(9) 0.9096(2) 0.12191(16)
O11_4 O 0.02262(7) 0.53657(16) 0.22677(14)
C36_4 C 0.99785(12) 0.2749(3) 0.3738(2)
H20_4 H 0.9726 0.2526 0.3442
O10_4 O 0.99542(7) 0.00195(17) 0.11725(11)
C56_4 C 0.72846(17) 0.1034(6) 0.1289(3)
H33_4 H 0.7280 0.1471 0.1665
C57_4 C 0.7378(2) 0.0036(8) 0.1431(3)
C61_4 C 0.71955(12) 0.1367(4) 0.0550(2)
C63_4 C 0.92012(18) 0.4418(4) 0.0708(4)
H38_4 H 0.9235 0.4970 0.1029
C64_4 C 0.88550(19) 0.4264(5) 0.0065(5)
C67_4 C 0.94420(12) 0.2844(3) 0.0376(2)
C68_4 C 0.94929(13) 0.3696(3) 0.0840(3)
N10_4 N 0.70924(10) 0.2278(3) 0.0211(2)
H44_4 H 0.7072 0.2835 0.0424
N11_4 N 0.97759(8) 0.2247(2) 0.06622(15)
N12_4 N 0.98708(11) 0.3610(3) 0.13985(19)
H45_4 H 0.9986 0.4029 0.1763
H25_4 H 0.8625 0.0349 0.9362
C46_4 C 0.78515(9) 0.0152(2) 0.87779(18)
H32_4 H 0.6169 0.0541 0.7932
C60_4 C 0.71911(12) 0.0686(3) 0.9988(2)
C62_4 C 0.70277(12) 0.2157(3) 0.9484(3)
H37_4 H 0.6951 0.2682 0.9132
H39_4 H 0.8653 0.4732 0.9949
C65_4 C 0.88042(17) 0.3438(5) 0.9596(4)
H40_4 H 0.8570 0.3367 0.9171
C66_4 C 0.90945(13) 0.2709(4) 0.9741(3)
H41_4 H 0.9057 0.2150 0.9425
N9_4 N 0.70826(8) 0.1222(2) 0.93128(16)
O14_4 O 0.79484(7) 0.0931(2) 0.91587(17)
O15_4 O 0.93464(6) 0.03275(18) 0.96911(12)
C10_6 C 1.0000 0.6949(3) 0.2500
C11_4 C 0.99619(8) 0.7485(2) 0.30898(15)
H4_4 H 0.9928 0.7134 0.3478
C12_4 C 0.99742(8) 0.8533(2) 0.31056(15)
C13_6 C 1.0000 0.9060(3) 0.2500
H5_6 H 1.0000 0.9765 0.2500
C14_6 C 1.0000 0.5806(3) 0.2500
C15_4 C 0.99678(9) 0.9096(2) 0.37809(16)
O8_4 O 0.97738(7) 0.53657(16) 0.27323(14)
H34_4 H 0.7462 0.9804 0.1928
C58_4 C 0.7354(2) 0.9360(6) 0.0875(3)
H35_4 H 0.7392 0.8673 0.0992
C59_4 C 0.72730(18) 0.9685(4) 0.0129(2)
C40_4 C 0.81613(8) 0.9509(2) 0.86828(16)
C41_4 C 0.85542(8) 0.9786(2) 0.90439(16)
C42_4 C 0.88412(8) 0.9222(2) 0.89296(17)
C43_4 C 0.87348(9) 0.8400(2) 0.84432(18)
H26_4 H 0.8925 0.8040 0.8350
C44_4 C 0.83409(9) 0.8107(3) 0.80898(18)
C45_4 C 0.80584(9) 0.8662(2) 0.82205(18)
H27_4 H 0.7797 0.8462 0.7995
C47_4 C 0.92663(9) 0.9508(2) 0.93245(16)
C48_4 C 0.82292(11) 0.7226(3) 0.7553(2)
C49_4 C 0.61037(13) 0.7319(4) 0.7255(3)
H28_4 H 0.5846 0.7095 0.7090
C50_4 C 0.63946(15) 0.6696(4) 0.7265(3)
H29_4 H 0.6336 0.6023 0.7117
C51_4 C 0.67786(14) 0.7036(4) 0.7490(3)
H30_4 H 0.6968 0.6595 0.7467
C52_4 C 0.68827(11) 0.8005(3) 0.7744(2)
H31_4 H 0.7142 0.8221 0.7914
C53_4 C 0.65921(9) 0.8650(3) 0.77400(18)
C54_4 C 0.62082(10) 0.8305(3) 0.7502(2)
C55_4 C 0.62431(10) 0.9900(3) 0.7837(2)
H36_4 H 0.7275 0.9240 0.9756
N7_4 N 0.66046(8) 0.9664(2) 0.79486(16)
N8_4 N 0.59934(9) 0.9130(2) 0.7575(2)
H43_4 H 0.5746 0.9141 0.7471
O13_4 O 0.75031(6) 0.98331(17) 0.84436(12)
loop_
_geom_bond_atom_site_label_1
_geom_bond_atom_site_label_2
_geom_bond_site_symmetry_1
_geom_bond_site_symmetry_2
C40 C41 1_555 1_555
C41 H25 1_555 1_555
C42 C41 1_555 1_555
C43 C42 1_555 1_555
H26 C43 1_555 1_555
C44 C43 1_555 1_555
C45 C40 1_555 1_555
H27 C45 1_555 1_555
C46 C40 1_555 1_555
C47 C42 1_555 1_555
C48 C44 1_555 1_555
C49 H28 1_555 1_555
C50 C49 1_555 1_555
H29 C50 1_555 1_555
C51 C50 1_555 1_555
H30 C51 1_555 1_555
C52 C51 1_555 1_555
H31 C52 1_555 1_555
C53 C52 1_555 1_555
C54 C49 1_555 1_555
C55 H32 1_555 1_555
C62 H37 1_555 1_555
H40 C65 1_555 1_555
C66 C65 1_555 1_555
H41 C66 1_555 1_555
Co4 N7 1_555 1_555
N7 C53 1_555 1_555
N8 C54 1_555 1_555
H43 N8 1_555 1_555
N9 C60 1_555 1_555
O13 C46 1_555 1_555
O14 C46 1_555 1_555
O15 C47 1_555 1_555
O16 C47 1_555 1_555
O17 C48 1_555 1_555
O18 C48 1_555 1_555
Co7 O17 1_555 1_555
O21 Co4 1_555 1_555
O23 Co4 1_555 1_555
C44 C45 1_555 1_555
C53 C54 1_555 1_555
C55 N7 1_555 1_555
C55 N8 1_555 1_555
C62 N9 1_555 1_555
Co4 N9 1_555 1_555
Co4 O13 1_555 1_555
O16 Co6 1_555 1_555
O18 Co7 1_555 1_555
C1 C2 1_555 1_555
C2 H1 1_555 1_555
C3 C2 1_555 1_555
C4 C3 1_555 1_555
H2 C4 1_555 1_555
C5 C4 1_555 1_555
C6 C1 1_555 1_555
H3 C6 1_555 1_555
C7 C1 1_555 1_555
C8 C3 1_555 1_555
C9 C5 1_555 1_555
C10 C11 1_555 1_555
C11 H4 1_555 1_555
C12 C11 1_555 1_555
C13 C12 1_555 1_555
H5 C13 1_555 1_555
C14 C10 1_555 1_555
C15 C12 1_555 1_555
C16 H6 1_555 1_555
C17 C16 1_555 1_555
H7 C17 1_555 1_555
C18 C17 1_555 1_555
H8 C18 1_555 1_555
C19 C18 1_555 1_555
H9 C19 1_555 1_555
C20 C19 1_555 1_555
C21 C16 1_555 1_555
C22 H10 1_555 1_555
C23 H11 1_555 1_555
C24 C23 1_555 1_555
H12 C24 1_555 1_555
C25 C24 1_555 1_555
H13 C25 1_555 1_555
C26 C25 1_555 1_555
H14 C26 1_555 1_555
C27 C26 1_555 1_555
C28 C23 1_555 1_555
C29 H15 1_555 1_555
C30 H16 1_555 1_555
C31 C30 1_555 1_555
H17 C31 1_555 1_555
C32 C31 1_555 1_555
H18 C32 1_555 1_555
C33 C32 1_555 1_555
H19 C33 1_555 1_555
C34 C33 1_555 1_555
C35 C30 1_555 1_555
C36 H20 1_555 1_555
Co1 N5 1_555 1_555
Co2 N1 1_555 1_555
N1 C20 1_555 1_555
N2 C21 1_555 1_555
H21 N2 1_555 1_555
N3 C27 1_555 1_555
N4 C28 1_555 1_555
H22 N4 1_555 1_555
N5 C34 1_555 1_555
N6 C35 1_555 1_555
H23 N6 1_555 1_555
O1 C7 1_555 1_555
O2 C7 1_555 1_555
O3 C8 1_555 1_555
O4 C8 1_555 1_555
O5 C9 1_555 1_555
O6 C9 1_555 1_555
O7 C15 1_555 1_555
O8 C14 1_555 1_555
O9 C15 1_555 1_555
C37 C10 1_555 1_555
H24 C37 1_555 1_555
C38 C13 1_555 1_555
C39 C38 1_555 1_555
O10 C39 1_555 1_555
O11 C14 1_555 1_555
O12 C39 1_555 1_555
C56 H33 1_555 1_555
C57 C56 1_555 1_555
H34 C57 1_555 1_555
C58 C57 1_555 1_555
H35 C58 1_555 1_555
C59 C58 1_555 1_555
C61 C56 1_555 1_555
C63 H38 1_555 1_555
C64 C63 1_555 1_555
C68 C63 1_555 1_555
C69 H42 1_555 1_555
Co3 O10 1_555 1_555
N10 C61 1_555 1_555
H44 N10 1_555 1_555
N11 C67 1_555 1_555
N12 C68 1_555 1_555
H45 N12 1_555 1_555
Co5 Co1 1_555 1_555
Co8 O5 1_555 1_555
O19 Co1 1_555 1_555
O20 Co3 1_555 1_555
O22 Co2 1_555 1_555
O24 Co2 1_555 1_555
O25 Co1 1_555 1_555
C5 C6 1_555 1_555
C20 C21 1_555 1_555
C22 N1 1_555 1_555
C22 N2 1_555 1_555
C27 C28 1_555 1_555
C29 N3 1_555 1_555
C29 N4 1_555 1_555
C34 C35 1_555 1_555
C36 N5 1_555 1_555
C36 N6 1_555 1_555
Co1 O3 1_555 1_555
Co1 O7 1_555 1_555
Co2 N3 1_555 1_555
Co2 O1 1_555 1_555
O4 Co5 1_555 1_555
O6 Co8 1_555 1_555
O9 Co5 1_555 1_555
C37 C38 1_555 1_555
C67 C68 1_555 1_555
C69 N11 1_555 1_555
C69 N12 1_555 1_555
Co3 N11 1_555 1_555
C40_2 C41_2 1_555 1_555
C42_2 C41_2 1_555 1_555
C43_2 C42_2 1_555 1_555
H26_2 C43_2 1_555 1_555
C44_2 C43_2 1_555 1_555
C45_2 C40_2 1_555 1_555
H27_2 C45_2 1_555 1_555
C47_2 C42_2 1_555 1_555
C48_2 C44_2 1_555 1_555
C49_2 H28_2 1_555 1_555
C50_2 C49_2 1_555 1_555
H29_2 C50_2 1_555 1_555
C51_2 C50_2 1_555 1_555
H30_2 C51_2 1_555 1_555
C52_2 C51_2 1_555 1_555
H31_2 C52_2 1_555 1_555
C53_2 C52_2 1_555 1_555
C54_2 C49_2 1_555 1_555
N7_2 C53_2 1_555 1_555
N8_2 C54_2 1_555 1_555
H43_2 N8_2 1_555 1_555
O16_2 C47_2 1_555 1_555
O22 C48_2 1_555 1_555
O24 C48_2 1_555 1_555
C44_2 C45_2 1_555 1_555
C53_2 C54_2 1_555 1_555
C55_2 N7_2 1_555 1_555
C55_2 N8_2 1_555 1_555
C10_2 C11_2 1_555 1_555
C11_2 H4_2 1_555 1_555
C12_2 C11_2 1_555 1_555
C13_2 C12_2 1_555 1_555
H5_2 C13_2 1_555 1_555
C14_2 C10_2 1_555 1_555
C15_2 C12_2 1_555 1_555
O8_2 C14_2 1_555 1_555
O9_2 C15_2 1_555 1_555
H35_2 C58_2 1_555 1_555
C59_2 C58_2 1_555 1_555
O9_2 Co5_2 1_555 1_555
C62_2 H37_2 1_555 1_555
H40_2 C65_2 1_555 1_555
C66_2 C65_2 1_555 1_555
H41_2 C66_2 1_555 1_555
N9_2 C60_2 1_555 1_555
O14_2 C46_2 1_555 1_555
C62_2 N9_2 1_555 1_555
Co8 N9_2 1_555 1_555
C36_2 H20_2 1_555 1_555
C56_2 H33_2 1_555 1_555
C57_2 C56_2 1_555 1_555
C61_2 C56_2 1_555 1_555
C63_2 H38_2 1_555 1_555
C64_2 C63_2 1_555 1_555
C68_2 C63_2 1_555 1_555
Co3_2 O10_2 1_555 1_555
N10_2 C61_2 1_555 1_555
H44_2 N10_2 1_555 1_555
N11_2 C67_2 1_555 1_555
N12_2 C68_2 1_555 1_555
H45_2 N12_2 1_555 1_555
C67_2 C68_2 1_555 1_555
Co3_2 N11_2 1_555 1_555
C1_2 C2_2 1_555 1_555
C3_2 C2_2 1_555 1_555
C4_2 C3_2 1_555 1_555
H2_2 C4_2 1_555 1_555
C5_2 C4_2 1_555 1_555
C6_2 C1_2 1_555 1_555
H3_2 C6_2 1_555 1_555
C8_2 C3_2 1_555 1_555
C9_2 C5_2 1_555 1_555
H5_3 C13_3 1_555 1_555
C14_3 C10_3 1_555 1_555
C16_2 H6_2 1_555 1_555
C17_2 C16_2 1_555 1_555
H7_2 C17_2 1_555 1_555
C18_2 C17_2 1_555 1_555
H8_2 C18_2 1_555 1_555
C19_2 C18_2 1_555 1_555
H9_2 C19_2 1_555 1_555
C20_2 C19_2 1_555 1_555
C21_2 C16_2 1_555 1_555
H13_2 C25_2 1_555 1_555
C26_2 C25_2 1_555 1_555
H14_2 C26_2 1_555 1_555
N1_2 C20_2 1_555 1_555
N2_2 C21_2 1_555 1_555
H21_2 N2_2 1_555 1_555
O4_2 C8_2 1_555 1_555
O21 C9_2 1_555 1_555
O23 C9_2 1_555 1_555
C37_2 C10_3 1_555 1_555
H24_2 C37_2 1_555 1_555
C38_2 C13_3 1_555 1_555
C39_2 C38_2 1_555 1_555
O11_2 C14_3 1_555 1_555
O12_2 C39_2 1_555 1_555
C5_2 C6_2 1_555 1_555
C20_2 C21_2 1_555 1_555
C22_2 N1_2 1_555 1_555
C22_2 N2_2 1_555 1_555
C37_2 C38_2 1_555 1_555
C23_2 H11_2 1_555 1_555
C24_2 C23_2 1_555 1_555
C28_2 C23_2 1_555 1_555
C29_2 H15_2 1_555 1_555
C30_2 H16_2 1_555 1_555
C31_2 C30_2 1_555 1_555
H17_2 C31_2 1_555 1_555
C32_2 C31_2 1_555 1_555
H18_2 C32_2 1_555 1_555
C33_2 C32_2 1_555 1_555
H19_2 C33_2 1_555 1_555
C34_2 C33_2 1_555 1_555
C35_2 C30_2 1_555 1_555
Co1_2 N5_2 1_555 1_555
N3_2 C27_2 1_555 1_555
N4_2 C28_2 1_555 1_555
H22_2 N4_2 1_555 1_555
N5_2 C34_2 1_555 1_555
N6_2 C35_2 1_555 1_555
H23_2 N6_2 1_555 1_555
O2_2 C7_2 1_555 1_555
C69_2 H42_2 1_555 1_555
O25_2 Co1_2 1_555 1_555
C27_2 C28_2 1_555 1_555
C29_2 N3_2 1_555 1_555
C29_2 N4_2 1_555 1_555
C34_2 C35_2 1_555 1_555
Co1_2 O3_2 1_555 1_555
Co1_2 O7_2 1_555 1_555
Co7 N3_2 1_555 1_555
C1_3 C2_3 1_555 1_555
C2_3 H1_3 1_555 1_555
C3_3 C2_3 1_555 1_555
C4_3 C3_3 1_555 1_555
H2_3 C4_3 1_555 1_555
C5_3 C4_3 1_555 1_555
C6_3 C1_3 1_555 1_555
H3_3 C6_3 1_555 1_555
C7_3 C1_3 1_555 1_555
C8_3 C3_3 1_555 1_555
C9_3 C5_3 1_555 1_555
C10_4 C11_3 1_555 1_555
C11_3 H4_3 1_555 1_555
C12_3 C11_3 1_555 1_555
C13_4 C12_3 1_555 1_555
H5_4 C13_4 1_555 1_555
C14_4 C10_4 1_555 1_555
C15_3 C12_3 1_555 1_555
C16_3 H6_3 1_555 1_555
C17_3 C16_3 1_555 1_555
H7_3 C17_3 1_555 1_555
C18_3 C17_3 1_555 1_555
H8_3 C18_3 1_555 1_555
C19_3 C18_3 1_555 1_555
H9_3 C19_3 1_555 1_555
C20_3 C19_3 1_555 1_555
C21_3 C16_3 1_555 1_555
C22_3 H10_3 1_555 1_555
C23_3 H11_3 1_555 1_555
C24_3 C23_3 1_555 1_555
H12_3 C24_3 1_555 1_555
C25_3 C24_3 1_555 1_555
H13_3 C25_3 1_555 1_555
C26_3 C25_3 1_555 1_555
H14_3 C26_3 1_555 1_555
C27_3 C26_3 1_555 1_555
C28_3 C23_3 1_555 1_555
C29_3 H15_3 1_555 1_555
C30_3 H16_3 1_555 1_555
C31_3 C30_3 1_555 1_555
H17_3 C31_3 1_555 1_555
C32_3 C31_3 1_555 1_555
H18_3 C32_3 1_555 1_555
C33_3 C32_3 1_555 1_555
H19_3 C33_3 1_555 1_555
C34_3 C33_3 1_555 1_555
C35_3 C30_3 1_555 1_555
C36_3 H20_3 1_555 1_555
Co5 N5_3 1_555 1_555
Co2_2 N1_3 1_555 1_555
N1_3 C20_3 1_555 1_555
N2_3 C21_3 1_555 1_555
H21_3 N2_3 1_555 1_555
N3_3 C27_3 1_555 1_555
N4_3 C28_3 1_555 1_555
H22_3 N4_3 1_555 1_555
N5_3 C34_3 1_555 1_555
N6_3 C35_3 1_555 1_555
H23_3 N6_3 1_555 1_555
O1_3 C7_3 1_555 1_555
O2_3 C7_3 1_555 1_555
O3_3 C8_3 1_555 1_555
O19 C8_3 1_555 1_555
O5_2 C9_3 1_555 1_555
O6_2 C9_3 1_555 1_555
O7_3 C15_3 1_555 1_555
O8_3 C14_4 1_555 1_555
O25 C15_3 1_555 1_555
C37_3 C10_4 1_555 1_555
H24_3 C37_3 1_555 1_555
C38_3 C13_4 1_555 1_555
C39_3 C38_3 1_555 1_555
O10_3 C39_3 1_555 1_555
O11_3 C14_4 1_555 1_555
O26 C39_3 1_555 1_555
C56_3 H33_3 1_555 1_555
C57_3 C56_3 1_555 1_555
H34_3 C57_3 1_555 1_555
C58_3 C57_3 1_555 1_555
H35_3 C58_3 1_555 1_555
C59_3 C58_3 1_555 1_555
C61_3 C56_3 1_555 1_555
C63_3 H38_3 1_555 1_555
C64_3 C63_3 1_555 1_555
C68_3 C63_3 1_555 1_555
C69_3 H42_3 1_555 1_555
Co6 O10_3 1_555 1_555
N10_3 C61_3 1_555 1_555
H44_3 N10_3 1_555 1_555
N11_3 C67_3 1_555 1_555
N12_3 C68_3 1_555 1_555
H45_3 N12_3 1_555 1_555
Co8_2 O5_2 1_555 1_555
O22_2 Co2_2 1_555 1_555
O24_2 Co2_2 1_555 1_555
C5_3 C6_3 1_555 1_555
C20_3 C21_3 1_555 1_555
C22_3 N1_3 1_555 1_555
C22_3 N2_3 1_555 1_555
C27_3 C28_3 1_555 1_555
C29_3 N3_3 1_555 1_555
C29_3 N4_3 1_555 1_555
C34_3 C35_3 1_555 1_555
C36_3 N5_3 1_555 1_555
C36_3 N6_3 1_555 1_555
Co5 O3_3 1_555 1_555
Co5 O7_3 1_555 1_555
Co2_2 N3_3 1_555 1_555
Co2_2 O1_3 1_555 1_555
O6_2 Co8_2 1_555 1_555
C37_3 C38_3 1_555 1_555
C67_3 C68_3 1_555 1_555
C69_3 N11_3 1_555 1_555
C69_3 N12_3 1_555 1_555
Co6 N11_3 1_555 1_555
C40_3 C41_3 1_555 1_555
C41_3 H25_3 1_555 1_555
C42_3 C41_3 1_555 1_555
C43_3 C42_3 1_555 1_555
H26_3 C43_3 1_555 1_555
C44_3 C43_3 1_555 1_555
C45_3 C40_3 1_555 1_555
H27_3 C45_3 1_555 1_555
C46_3 C40_3 1_555 1_555
C47_3 C42_3 1_555 1_555
C48_3 C44_3 1_555 1_555
C49_3 H28_3 1_555 1_555
C50_3 C49_3 1_555 1_555
H29_3 C50_3 1_555 1_555
C51_3 C50_3 1_555 1_555
H30_3 C51_3 1_555 1_555
C52_3 C51_3 1_555 1_555
H31_3 C52_3 1_555 1_555
C53_3 C52_3 1_555 1_555
C54_3 C49_3 1_555 1_555
C55_3 H32_3 1_555 1_555
C62_3 H37_3 1_555 1_555
H40_3 C65_3 1_555 1_555
C66_3 C65_3 1_555 1_555
H41_3 C66_3 1_555 1_555
Co4_2 N7_3 1_555 1_555
N7_3 C53_3 1_555 1_555
N8_3 C54_3 1_555 1_555
H43_3 N8_3 1_555 1_555
N9_3 C60_3 1_555 1_555
O13_3 C46_3 1_555 1_555
O14_3 C46_3 1_555 1_555
O15_3 C47_3 1_555 1_555
O20 C47_3 1_555 1_555
O17_2 C48_3 1_555 1_555
O18_2 C48_3 1_555 1_555
Co7_2 O17_2 1_555 1_555
O21_2 Co4_2 1_555 1_555
O23_2 Co4_2 1_555 1_555
C44_3 C45_3 1_555 1_555
C53_3 C54_3 1_555 1_555
C55_3 N7_3 1_555 1_555
C55_3 N8_3 1_555 1_555
C62_3 N9_3 1_555 1_555
Co4_2 N9_3 1_555 1_555
Co4_2 O13_3 1_555 1_555
O18_2 Co7_2 1_555 1_555
C23_4 H11_4 1_555 1_555
C24_4 C23_4 1_555 1_555
C28_4 C23_4 1_555 1_555
C29_4 H15_4 1_555 1_555
C30_4 H16_4 1_555 1_555
C31_4 C30_4 1_555 1_555
H17_4 C31_4 1_555 1_555
C32_4 C31_4 1_555 1_555
H18_4 C32_4 1_555 1_555
C33_4 C32_4 1_555 1_555
H19_4 C33_4 1_555 1_555
C34_4 C33_4 1_555 1_555
C35_4 C30_4 1_555 1_555
Co5_2 N5_4 1_555 1_555
N3_4 C27_4 1_555 1_555
N4_4 C28_4 1_555 1_555
H22_4 N4_4 1_555 1_555
N5_4 C34_4 1_555 1_555
N6_4 C35_4 1_555 1_555
H23_4 N6_4 1_555 1_555
O2_4 C7_4 1_555 1_555
C69_4 H42_4 1_555 1_555
C27_4 C28_4 1_555 1_555
C29_4 N3_4 1_555 1_555
C29_4 N4_4 1_555 1_555
C34_4 C35_4 1_555 1_555
Co5_2 O3_4 1_555 1_555
Co5_2 O7_4 1_555 1_555
Co7_2 N3_4 1_555 1_555
C1_4 C2_4 1_555 1_555
C3_4 C2_4 1_555 1_555
C4_4 C3_4 1_555 1_555
H2_4 C4_4 1_555 1_555
C5_4 C4_4 1_555 1_555
C6_4 C1_4 1_555 1_555
H3_4 C6_4 1_555 1_555
C8_4 C3_4 1_555 1_555
C9_4 C5_4 1_555 1_555
H5_5 C13_5 1_555 1_555
C14_5 C10_5 1_555 1_555
C16_4 H6_4 1_555 1_555
C17_4 C16_4 1_555 1_555
H7_4 C17_4 1_555 1_555
C18_4 C17_4 1_555 1_555
H8_4 C18_4 1_555 1_555
C19_4 C18_4 1_555 1_555
H9_4 C19_4 1_555 1_555
C20_4 C19_4 1_555 1_555
C21_4 C16_4 1_555 1_555
H13_4 C25_4 1_555 1_555
C26_4 C25_4 1_555 1_555
H14_4 C26_4 1_555 1_555
N1_4 C20_4 1_555 1_555
N2_4 C21_4 1_555 1_555
H21_4 N2_4 1_555 1_555
O19_2 C8_4 1_555 1_555
O21_2 C9_4 1_555 1_555
O23_2 C9_4 1_555 1_555
C37_4 C10_5 1_555 1_555
H24_4 C37_4 1_555 1_555
C38_4 C13_5 1_555 1_555
C39_4 C38_4 1_555 1_555
O11_4 C14_5 1_555 1_555
O26_2 C39_4 1_555 1_555
C5_4 C6_4 1_555 1_555
C20_4 C21_4 1_555 1_555
C22_4 N1_4 1_555 1_555
C22_4 N2_4 1_555 1_555
C37_4 C38_4 1_555 1_555
C36_4 H20_4 1_555 1_555
C56_4 H33_4 1_555 1_555
C57_4 C56_4 1_555 1_555
C61_4 C56_4 1_555 1_555
C63_4 H38_4 1_555 1_555
C64_4 C63_4 1_555 1_555
C68_4 C63_4 1_555 1_555
Co6_2 O10_4 1_555 1_555
N10_4 C61_4 1_555 1_555
H44_4 N10_4 1_555 1_555
N11_4 C67_4 1_555 1_555
N12_4 C68_4 1_555 1_555
H45_4 N12_4 1_555 1_555
C67_4 C68_4 1_555 1_555
Co6_2 N11_4 1_555 1_555
C62_4 H37_4 1_555 1_555
H40_4 C65_4 1_555 1_555
C66_4 C65_4 1_555 1_555
H41_4 C66_4 1_555 1_555
N9_4 C60_4 1_555 1_555
O14_4 C46_4 1_555 1_555
C62_4 N9_4 1_555 1_555
Co8_2 N9_4 1_555 1_555
C10_6 C11_4 1_555 1_555
C11_4 H4_4 1_555 1_555
C12_4 C11_4 1_555 1_555
C13_6 C12_4 1_555 1_555
H5_6 C13_6 1_555 1_555
C14_6 C10_6 1_555 1_555
C15_4 C12_4 1_555 1_555
O8_4 C14_6 1_555 1_555
O25_2 C15_4 1_555 1_555
H35_4 C58_4 1_555 1_555
C59_4 C58_4 1_555 1_555
C40_4 C41_4 1_555 1_555
C42_4 C41_4 1_555 1_555
C43_4 C42_4 1_555 1_555
H26_4 C43_4 1_555 1_555
C44_4 C43_4 1_555 1_555
C45_4 C40_4 1_555 1_555
H27_4 C45_4 1_555 1_555
C47_4 C42_4 1_555 1_555
C48_4 C44_4 1_555 1_555
C49_4 H28_4 1_555 1_555
C50_4 C49_4 1_555 1_555
H29_4 C50_4 1_555 1_555
C51_4 C50_4 1_555 1_555
H30_4 C51_4 1_555 1_555
C52_4 C51_4 1_555 1_555
H31_4 C52_4 1_555 1_555
C53_4 C52_4 1_555 1_555
C54_4 C49_4 1_555 1_555
N7_4 C53_4 1_555 1_555
N8_4 C54_4 1_555 1_555
H43_4 N8_4 1_555 1_555
O20_2 C47_4 1_555 1_555
O22_2 C48_4 1_555 1_555
O24_2 C48_4 1_555 1_555
C44_4 C45_4 1_555 1_555
C53_4 C54_4 1_555 1_555
C55_4 N7_4 1_555 1_555
C55_4 N8_4 1_555 1_555

#END
