
###############################################################################
#
# This file contains modified crystal structure data generated from the
# MOF subset of the Cambridge Structural Database (CSD) v543 
# hosted by the Cambridge Crystallographic Data Centre (CCDC).
#
# This work is licensed under the Creative Commons
# Attribution-NonCommercial-ShareAlike 4.0 International License.
# To view a copy of this license, visit
# http://creativecommons.org/licenses/by-nc-sa/4.0/
# or send a letter to
# Creative Commons, PO Box 1866, Mountain View, CA 94042, USA.
#
# CIF created using the CSD Python API on 29 September 2022
# The structure has been converted into the P1 space group
# The structure has a 3D framework
# The original CSD entry AGABIU is in the hexagonal crystal system
# The framework has been calculated to contain at least 10.0% void space
# The void calculation uses a probe of radius 1.32A, grid spacing 0.4
# The framework is charged, counterions have been retained in the structure
# H atom positions have been added when not included in the experimental data
# Generated hydrogen atom positions removed from atoms on special positions
#
###############################################################################

data_AGABIU
_chemical_formula_moiety         '(C60 H96 Li27 N12 Ni4 O48 6+)n'
_symmetry_cell_setting           triclinic
_symmetry_space_group_name_H-M   'P 1'
_symmetry_Int_Tables_number      1
_space_group_name_Hall           'P 1'
loop_
_symmetry_equiv_pos_site_id
_symmetry_equiv_pos_as_xyz
1 x,y,z
_cell_length_a                   18.605(2)
_cell_length_b                   18.605(2)
_cell_length_c                   14.9040(12)
_cell_angle_alpha                90
_cell_angle_beta                 90
_cell_angle_gamma                120
_cell_volume                     4467.79
loop_
_atom_site_label
_atom_site_type_symbol
_atom_site_fract_x
_atom_site_fract_y
_atom_site_fract_z
Li1 Li 0.5000 -0.0000 0.0000
O11 O 0.5063 0.0872 0.5829
O18 O 0.5907 0.0981 0.0678
O19 O 0.5907 0.0981 0.4322
Li2 Li 0.5000 -0.0000 0.5000
O26 O 0.3927 0.0172 0.0982
O28 O 0.3927 0.0172 0.4018
H19 H 0.624376 0.0214511 0.650019
Li1_2 Li 0.5000 -0.0000 1.0000
O10 O 0.5063 0.0872 0.9171
H4 H 0.624376 0.0214511 0.849981
Ni1 Ni 0.3333 0.6667 0.0200
O1 O 0.4937 0.9128 0.0829
N1 N 0.4258 0.7690 0.0866
C1 C 0.4650 0.7675 0.1685
C2 C 0.4342 0.7778 0.2500
C3 C 0.5299 0.7501 0.1677
C4 C 0.5612 0.7412 0.2500
C5 C 0.4427 0.8405 0.0537
Li1_3 Li 0.5000 1.0000 0.0000
Ni2 Ni 0.3333 0.6667 0.4800
O5 O 0.4937 0.9128 0.4171
O6 O 0.0872 0.5809 0.0829
O7 O 0.0872 0.5809 0.4171
O8 O 0.4191 0.5063 0.0829
O9 O 0.4191 0.5063 0.4171
O13 O 0.4093 0.9019 0.5678
O15 O 0.0981 0.5074 0.5678
O17 O 0.4926 0.5907 0.5678
O21 O 0.3439 0.7633 0.5622
O23 O 0.2367 0.5806 0.5622
O25 O 0.4194 0.6561 0.5622
N2 N 0.4258 0.7690 0.4134
N3 N 0.2310 0.6568 0.0866
N4 N 0.2310 0.6568 0.4134
N5 N 0.3432 0.5742 0.0866
N6 N 0.3432 0.5742 0.4134
C7 C 0.4650 0.7675 0.3315
C8 C 0.2325 0.6975 0.1685
C9 C 0.2325 0.6975 0.3315
C10 C 0.3025 0.5350 0.1685
C11 C 0.3025 0.5350 0.3315
C12 C 0.2222 0.6564 0.2500
C13 C 0.3436 0.5658 0.2500
C14 C 0.5299 0.7501 0.3323
C15 C 0.2499 0.7798 0.1677
C16 C 0.2499 0.7798 0.3323
C17 C 0.2202 0.4701 0.1677
C18 C 0.2202 0.4701 0.3323
C19 C 0.2588 0.8200 0.2500
C20 C 0.1800 0.4388 0.2500
C21 C 0.4427 0.8405 0.4463
C22 C 0.1595 0.6022 0.0537
C23 C 0.1595 0.6022 0.4463
C24 C 0.3978 0.5573 0.0537
C25 C 0.3978 0.5573 0.4463
C26 C 0.3944 0.8343 0.5326
C28 C 0.1657 0.5601 0.5326
C30 C 0.4399 0.6056 0.5326
Li2_2 Li 0.5000 1.0000 0.5000
Li3 Li -0.0000 0.5000 0.0000
Li4 Li -0.0000 0.5000 0.5000
Li5 Li 0.5000 0.5000 0.0000
Li6 Li 0.5000 0.5000 0.5000
O27 O 0.6073 0.9828 0.5982
H1 H 0.555593 0.743598 0.104581
H2 H 0.611296 0.726956 0.25
H5 H 0.385528 0.794077 0.25
H6 H 0.555593 0.743598 0.395419
H7 H 0.256402 0.811995 0.104581
H8 H 0.408548 0.614472 0.25
H9 H 0.256402 0.811995 0.395419
H10 H 0.188005 0.444407 0.395419
H11 H 0.205923 0.591452 0.25
H12 H 0.188005 0.444407 0.104581
H17 H 0.273044 0.88434 0.25
H20 H 0.11566 0.388704 0.25
H21 H 0.339691 0.96355 0.399206
O2 O 0.4093 0.9019 0.9322
O3 O 0.3439 0.7633 0.9378
C6 C 0.3944 0.8343 0.9674
Li1_4 Li 0.5000 1.0000 1.0000
O4 O 0.6073 0.9828 0.9018
O14 O 0.0981 0.5074 0.9322
O16 O 0.4926 0.5907 0.9322
O22 O 0.2367 0.5806 0.9378
O24 O 0.4194 0.6561 0.9378
C27 C 0.1657 0.5601 0.9674
C29 C 0.4399 0.6056 0.9674
Li3_2 Li -0.0000 0.5000 1.0000
Li5_2 Li 0.5000 0.5000 1.0000
O29 O 0.0172 0.6245 0.9018
O20 O 0.9019 0.4926 0.0678
Li3_3 Li 1.0000 0.5000 0.0000
Li4_2 Li 1.0000 0.5000 0.5000
O30 O 0.9828 0.3755 0.0982
O12 O 0.9128 0.4191 0.9171
Li3_4 Li 1.0000 0.5000 1.0000
H14 H 0.978549 0.602925 0.849981
O13_2 O 0.5074 0.4093 0.0678
O21_2 O 0.5806 0.3439 0.0622
O23_2 O 0.6561 0.2367 0.0622
O25_2 O 0.7633 0.4194 0.0622
C26_2 C 0.5601 0.3944 0.0326
C28_2 C 0.6056 0.1657 0.0326
C30_2 C 0.8343 0.4399 0.0326
O27_2 O 0.6245 0.6073 0.0982
Ni1_2 Ni 0.6666 0.3333 0.5200
O1_2 O 0.5809 0.4937 0.5829
O2_2 O 0.5074 0.4093 0.4322
O3_2 O 0.5806 0.3439 0.4378
N1_2 N 0.6568 0.4258 0.5866
C1_2 C 0.6975 0.4650 0.6685
C2_2 C 0.6564 0.4342 0.7500
C3_2 C 0.7798 0.5299 0.6677
C4_2 C 0.8200 0.5612 0.7500
C5_2 C 0.6022 0.4427 0.5537
C6_2 C 0.5601 0.3944 0.4674
O4_2 O 0.6245 0.6073 0.4018
Ni2_2 Ni 0.6666 0.3333 0.9800
O5_2 O 0.5809 0.4937 0.9171
O8_2 O 0.9128 0.4191 0.5829
O16_2 O 0.9019 0.4926 0.4322
O22_2 O 0.6561 0.2367 0.4378
O24_2 O 0.7633 0.4194 0.4378
N2_2 N 0.6568 0.4258 0.9134
N3_2 N 0.5742 0.2310 0.5866
N4_2 N 0.5742 0.2310 0.9134
N5_2 N 0.7690 0.3432 0.5866
N6_2 N 0.7690 0.3432 0.9134
C7_2 C 0.6975 0.4650 0.8315
C8_2 C 0.5350 0.2325 0.6685
C9_2 C 0.5350 0.2325 0.8315
C10_2 C 0.7675 0.3025 0.6685
C11_2 C 0.7675 0.3025 0.8315
C12_2 C 0.5658 0.2222 0.7500
C13_2 C 0.7778 0.3436 0.7500
C14_2 C 0.7798 0.5299 0.8323
C15_2 C 0.4701 0.2499 0.6677
C16_2 C 0.4701 0.2499 0.8323
C17_2 C 0.7501 0.2202 0.6677
C18_2 C 0.7501 0.2202 0.8323
C19_2 C 0.4388 0.2588 0.7500
C20_2 C 0.7412 0.1800 0.7500
C21_2 C 0.6022 0.4427 0.9463
C22_2 C 0.5573 0.1595 0.5537
C23_2 C 0.5573 0.1595 0.9463
C24_2 C 0.8405 0.3978 0.5537
C25_2 C 0.8405 0.3978 0.9463
C27_2 C 0.6056 0.1657 0.4674
C29_2 C 0.8343 0.4399 0.4674
O26_2 O 0.3755 0.3927 0.5982
O28_2 O 0.3755 0.3927 0.9018
H1_2 H 0.811995 0.555593 0.604581
H2_2 H 0.88434 0.611296 0.75
H5_2 H 0.591452 0.385528 0.75
H6_2 H 0.811995 0.555593 0.895419
H7_2 H 0.444407 0.256402 0.604581
H8_2 H 0.794077 0.408548 0.75
H9_2 H 0.444407 0.256402 0.895419
H10_2 H 0.743598 0.188005 0.895419
H11_2 H 0.614472 0.205923 0.75
H12_2 H 0.743598 0.188005 0.604581
H17_2 H 0.388704 0.273044 0.75
H20_2 H 0.726956 0.11566 0.75
H14_2 H 0.375624 0.978549 0.349981
O27_3 O 0.0172 0.6245 0.5982
H21_2 H 0.0364499 0.376141 0.399206
O28_3 O 0.9828 0.3755 0.4018
H19_2 H 0.978549 0.602925 0.650019
H19_3 H 0.0214511 0.397075 0.150019
H4_2 H 0.0214511 0.397075 0.349981
H21_3 H 0.96355 0.623859 0.899206
H21_4 H 0.660309 0.0364499 0.899206
H19_4 H 0.375624 0.978549 0.150019
H21_5 H 0.660309 0.0364499 0.600794
H21_6 H 0.96355 0.623859 0.600794
H21_7 H 0.0364499 0.376141 0.100794
H21_8 H 0.339691 0.96355 0.100794
Li7 Li 0.5188 0.6588 0.7500
Li7_2 Li 0.8600 0.5188 0.2500
Li7_3 Li 0.3412 0.8600 0.7500
Li7_4 Li 0.1400 0.4812 0.7500
Li7_5 Li 0.6588 0.1400 0.2500
Li7_6 Li 0.4812 0.3412 0.2500
Li8 Li -0.0000 -0.0000 0.2500
Li8_2 Li -0.0000 1.0000 0.2500
Li8_3 Li 1.0000 -0.0000 0.2500
Li8_4 Li 1.0000 1.0000 0.2500
Li8_5 Li 0.0000 -0.0000 0.7500
Li8_6 Li -0.0000 1.0000 0.7500
Li8_7 Li 1.0000 -0.0000 0.7500
Li8_8 Li 1.0000 1.0000 0.7500
loop_
_geom_bond_atom_site_label_1
_geom_bond_atom_site_label_2
_geom_bond_site_symmetry_1
_geom_bond_site_symmetry_2
O11 Li2 1_555 1_555
O18 Li1 1_555 1_555
O19 Li2 1_555 1_555
O26 Li1 1_555 1_555
O28 Li2 1_555 1_555
O10 Li1_2 1_555 1_555
O1 C5 1_555 1_555
N1 Ni1 1_555 1_555
C1 N1 1_555 1_555
C2 C1 1_555 1_555
C3 C1 1_555 1_555
C4 C3 1_555 1_555
C5 N1 1_555 1_555
Li1_3 O1 1_555 1_555
Ni2 O21 1_555 1_555
O5 C21 1_555 1_555
O6 C22 1_555 1_555
O7 C23 1_555 1_555
O8 C24 1_555 1_555
O9 C25 1_555 1_555
O13 C26 1_555 1_555
O15 C28 1_555 1_555
O17 C30 1_555 1_555
O21 C26 1_555 1_555
O23 Ni2 1_555 1_555
O25 Ni2 1_555 1_555
N2 Ni2 1_555 1_555
N3 Ni1 1_555 1_555
N4 Ni2 1_555 1_555
N5 Ni1 1_555 1_555
N6 Ni2 1_555 1_555
C7 C2 1_555 1_555
C8 N3 1_555 1_555
C9 N4 1_555 1_555
C10 N5 1_555 1_555
C11 N6 1_555 1_555
C12 C8 1_555 1_555
C13 C10 1_555 1_555
C14 C4 1_555 1_555
C15 C8 1_555 1_555
C16 C9 1_555 1_555
C17 C10 1_555 1_555
C18 C11 1_555 1_555
C19 C15 1_555 1_555
C20 C17 1_555 1_555
C21 N2 1_555 1_555
C22 N3 1_555 1_555
C23 N4 1_555 1_555
C24 N5 1_555 1_555
C25 N6 1_555 1_555
C26 C21 1_555 1_555
C28 O23 1_555 1_555
C30 O25 1_555 1_555
Li2_2 O5 1_555 1_555
Li3 O6 1_555 1_555
Li4 O7 1_555 1_555
Li5 O8 1_555 1_555
Li6 O9 1_555 1_555
O27 Li2_2 1_555 1_555
O13 Li2_2 1_555 1_555
O15 Li4 1_555 1_555
O17 Li6 1_555 1_555
N2 C7 1_555 1_555
C7 C14 1_555 1_555
C9 C12 1_555 1_555
C11 C13 1_555 1_555
C16 C19 1_555 1_555
C18 C20 1_555 1_555
C23 C28 1_555 1_555
C25 C30 1_555 1_555
C3 H1 1_555 1_555
C4 H2 1_555 1_555
C2 H5 1_555 1_555
C14 H6 1_555 1_555
C15 H7 1_555 1_555
C13 H8 1_555 1_555
C16 H9 1_555 1_555
C18 H10 1_555 1_555
C12 H11 1_555 1_555
C17 H12 1_555 1_555
C19 H17 1_555 1_555
C20 H20 1_555 1_555
O2 C6 1_555 1_555
O3 C6 1_555 1_555
O4 Li1_4 1_555 1_555
O14 C27 1_555 1_555
O16 C29 1_555 1_555
C27 O22 1_555 1_555
C29 O24 1_555 1_555
O29 Li3_2 1_555 1_555
O2 Li1_4 1_555 1_555
O14 Li3_2 1_555 1_555
O16 Li5_2 1_555 1_555
O20 Li3_3 1_555 1_555
O30 Li3_3 1_555 1_555
O12 Li3_4 1_555 1_555
O13_2 C26_2 1_555 1_555
O18 C28_2 1_555 1_555
O20 C30_2 1_555 1_555
O21_2 C26_2 1_555 1_555
C28_2 O23_2 1_555 1_555
C30_2 O25_2 1_555 1_555
O27_2 Li5 1_555 1_555
O13_2 Li5 1_555 1_555
Ni1_2 O3_2 1_555 1_555
O1_2 C5_2 1_555 1_555
O2_2 C6_2 1_555 1_555
O3_2 C6_2 1_555 1_555
N1_2 Ni1_2 1_555 1_555
C1_2 N1_2 1_555 1_555
C2_2 C1_2 1_555 1_555
C3_2 C1_2 1_555 1_555
C4_2 C3_2 1_555 1_555
C5_2 N1_2 1_555 1_555
C6_2 C5_2 1_555 1_555
Li6 O1_2 1_555 1_555
O4_2 Li6 1_555 1_555
O5_2 C21_2 1_555 1_555
O11 C22_2 1_555 1_555
O10 C23_2 1_555 1_555
O8_2 C24_2 1_555 1_555
O12 C25_2 1_555 1_555
O19 C27_2 1_555 1_555
O16_2 C29_2 1_555 1_555
O22_2 Ni1_2 1_555 1_555
O24_2 Ni1_2 1_555 1_555
N2_2 Ni2_2 1_555 1_555
N3_2 Ni1_2 1_555 1_555
N4_2 Ni2_2 1_555 1_555
N5_2 Ni1_2 1_555 1_555
N6_2 Ni2_2 1_555 1_555
C7_2 C2_2 1_555 1_555
C8_2 N3_2 1_555 1_555
C9_2 N4_2 1_555 1_555
C10_2 N5_2 1_555 1_555
C11_2 N6_2 1_555 1_555
C12_2 C8_2 1_555 1_555
C13_2 C10_2 1_555 1_555
C14_2 C4_2 1_555 1_555
C15_2 C8_2 1_555 1_555
C16_2 C9_2 1_555 1_555
C17_2 C10_2 1_555 1_555
C18_2 C11_2 1_555 1_555
C19_2 C15_2 1_555 1_555
C20_2 C17_2 1_555 1_555
C21_2 N2_2 1_555 1_555
C22_2 N3_2 1_555 1_555
C23_2 N4_2 1_555 1_555
C24_2 N5_2 1_555 1_555
C25_2 N6_2 1_555 1_555
C27_2 O22_2 1_555 1_555
C29_2 O24_2 1_555 1_555
Li5_2 O5_2 1_555 1_555
Li4_2 O8_2 1_555 1_555
O26_2 Li6 1_555 1_555
O28_2 Li5_2 1_555 1_555
O2_2 Li6 1_555 1_555
O16_2 Li4_2 1_555 1_555
N2_2 C7_2 1_555 1_555
C7_2 C14_2 1_555 1_555
C9_2 C12_2 1_555 1_555
C11_2 C13_2 1_555 1_555
C16_2 C19_2 1_555 1_555
C18_2 C20_2 1_555 1_555
C22_2 C27_2 1_555 1_555
C24_2 C29_2 1_555 1_555
C3_2 H1_2 1_555 1_555
C4_2 H2_2 1_555 1_555
C2_2 H5_2 1_555 1_555
C14_2 H6_2 1_555 1_555
C15_2 H7_2 1_555 1_555
C13_2 H8_2 1_555 1_555
C16_2 H9_2 1_555 1_555
C18_2 H10_2 1_555 1_555
C12_2 H11_2 1_555 1_555
C17_2 H12_2 1_555 1_555
C19_2 H17_2 1_555 1_555
C20_2 H20_2 1_555 1_555
O27_3 Li4 1_555 1_555
O28_3 Li4_2 1_555 1_555

#END
