
###############################################################################
#
# This file contains modified crystal structure data generated from the
# MOF subset of the Cambridge Structural Database (CSD) v543 
# hosted by the Cambridge Crystallographic Data Centre (CCDC).
#
# This work is licensed under the Creative Commons
# Attribution-NonCommercial-ShareAlike 4.0 International License.
# To view a copy of this license, visit
# http://creativecommons.org/licenses/by-nc-sa/4.0/
# or send a letter to
# Creative Commons, PO Box 1866, Mountain View, CA 94042, USA.
#
# CIF created using the CSD Python API on 29 September 2022
# The structure has been converted into the P1 space group
# The structure has a 3D framework
# The original CSD entry AGEQEK is in the monoclinic crystal system
# The framework has been calculated to contain at least 10.0% void space
# The void calculation uses a probe of radius 1.32A, grid spacing 0.4
#
###############################################################################

data_AGEQEK
_chemical_formula_moiety         '(C264 H232 Ag13 N64 O29)n'
_symmetry_cell_setting           triclinic
_symmetry_space_group_name_H-M   'P 1'
_symmetry_Int_Tables_number      1
_space_group_name_Hall           'P 1'
loop_
_symmetry_equiv_pos_site_id
_symmetry_equiv_pos_as_xyz
1 x,y,z
_cell_length_a                   14.570(4)
_cell_length_b                   25.221(6)
_cell_length_c                   26.294(3)
_cell_angle_alpha                90
_cell_angle_beta                 122.906(8)
_cell_angle_gamma                90
_cell_volume                     8112.07
loop_
_atom_site_label
_atom_site_type_symbol
_atom_site_fract_x
_atom_site_fract_y
_atom_site_fract_z
H25 H 0.0360 0.3554 0.8328
C35 C 0.0971(3) 0.26200(13) 0.89014(16)
N8 N 0.1094(2) 0.22233(10) 0.85355(12)
H26 H 0.1543 0.2884 0.9042
H27 H 0.1046 0.2450 0.9253
C36 C 0.0967(2) 0.16977(11) 0.85550(14)
C37 C 0.1336(2) 0.23209(13) 0.81097(15)
N10 N 0.1133(2) 0.14513(10) 0.81708(11)
H28 H 0.0788 0.1531 0.8805
C38 C 0.1367(2) 0.18396(12) 0.78898(15)
H29 H 0.1455 0.2649 0.7995
Ag5 Ag 0.114673(19) 0.061369(9) 0.811241(10)
H30 H 0.1522 0.1781 0.7595
Ag1 Ag 0.385327(19) 0.561369(9) 0.688759(10)
O1 O 0.4367(2) 0.55249(10) 0.60737(12)
N1 N 0.3696(2) 0.47830(10) 0.69407(11)
N2 N 0.3867(2) 0.64513(10) 0.68292(11)
C1 C 0.5208(3) 0.53505(12) 0.61132(16)
C2 C 0.3485(2) 0.45314(12) 0.73039(14)
C3 C 0.3852(2) 0.43980(11) 0.66266(15)
O2 O 0.6115(2) 0.52716(10) 0.65891(11)
C4 C 0.5098(3) 0.51917(11) 0.55291(14)
N3 N 0.34954(19) 0.40057(10) 0.72352(11)
H1 H 0.3346 0.4696 0.7572
H2 H 0.4019 0.4459 0.6337
C5 C 0.3725(2) 0.39167(13) 0.68043(13)
C6 C 0.4304(3) 0.48185(11) 0.51609(14)
C7 C 0.5804(3) 0.53817(11) 0.53643(14)
C8 C 0.3316(3) 0.36030(13) 0.75725(14)
H3 H 0.3783 0.3589 0.6661
H4 H 0.3828 0.4699 0.5269
C9 C 0.6624(3) 0.58175(12) 0.57156(15)
H5 H 0.3382 0.3766 0.7925
H6 H 0.3876 0.3332 0.7713
C10 C 0.2200(3) 0.33455(12) 0.71905(14)
O3 O 0.7564(2) 0.57588(10) 0.58049(11)
O4 O 0.6307(2) 0.62098(9) 0.58682(11)
C11 C 0.2081(3) 0.28589(12) 0.69207(14)
C12 C 0.1277(3) 0.36038(12) 0.70970(15)
C13 C 0.1059(3) 0.26305(12) 0.65614(15)
H7 H 0.2694 0.2683 0.6981
H8 H 0.1348 0.3931 0.7278
C14 C 0.0254(3) 0.33768(12) 0.67353(16)
H9 H 0.0990 0.2302 0.6383
C15 C 0.0138(3) 0.28875(12) 0.64662(14)
Ag2 Ag 0.614673(19) 0.561369(9) 0.811241(10)
N5 N 0.6304(2) 0.47830(10) 0.80593(11)
O5 O 0.5633(2) 0.55249(10) 0.89263(12)
N6 N 0.6133(2) 0.64513(10) 0.81708(11)
C20 C 0.6515(2) 0.45314(12) 0.76961(14)
C21 C 0.6148(2) 0.43980(11) 0.83734(15)
N7 N 0.65046(19) 0.40057(10) 0.77648(11)
H16 H 0.6654 0.4696 0.7428
H17 H 0.5981 0.4459 0.8663
C22 C 0.6275(2) 0.39167(13) 0.81957(13)
C23 C 0.4196(3) 0.46183(11) 0.46357(14)
C24 C 0.5696(3) 0.51815(11) 0.48391(14)
C25 C 0.6684(3) 0.36030(13) 0.74275(14)
H18 H 0.6217 0.3589 0.8339
C26 C 0.4902(3) 0.48083(11) 0.44709(14)
C27 C 0.3376(3) 0.41825(12) 0.42844(15)
H19 H 0.6172 0.5301 0.4731
H20 H 0.6618 0.3766 0.7075
H21 H 0.6124 0.3332 0.7287
C28 C 0.7800(3) 0.33455(12) 0.78095(14)
C29 C 0.4792(3) 0.46495(12) 0.38868(16)
O6 O 0.2436(2) 0.42412(10) 0.41951(11)
O7 O 0.3693(2) 0.37902(9) 0.41318(11)
C30 C 0.7919(3) 0.28589(12) 0.80793(14)
C31 C 0.8723(3) 0.36038(12) 0.79030(15)
O8 O 0.5633(2) 0.44751(10) 0.39263(12)
O9 O 0.3885(2) 0.47284(10) 0.34109(11)
C32 C 0.8941(3) 0.26305(12) 0.84386(15)
H22 H 0.7306 0.2683 0.8019
H23 H 0.8652 0.3931 0.7722
C33 C 0.9746(3) 0.33768(12) 0.82647(16)
Ag3 Ag 0.614673(19) 0.438631(9) 0.311241(10)
H24 H 0.9010 0.2302 0.8617
C34 C 0.9862(3) 0.28875(12) 0.85338(14)
H10 H 0.9640 0.3554 0.6672
C16 C 0.9029(3) 0.26200(13) 0.60986(16)
N4 N 0.8906(2) 0.22233(10) 0.64645(12)
H11 H 0.8457 0.2884 0.5958
H12 H 0.8954 0.2450 0.5747
C17 C 0.9033(2) 0.16977(11) 0.64450(14)
C18 C 0.8664(2) 0.23209(13) 0.68903(15)
H13 H 0.9212 0.1531 0.6195
C19 C 0.8633(2) 0.18396(12) 0.71102(15)
H14 H 0.8545 0.2649 0.7005
H15 H 0.8478 0.1781 0.7405
N9 N 0.8867(2) 0.14513(10) 0.68292(11)
Ag4 Ag 0.885327(19) 0.061369(9) 0.688759(10)
C23_2 C 0.5804(3) 0.46183(11) 0.03643(14)
C24_2 C 0.4304(3) 0.51815(11) 0.01609(14)
C26_2 C 0.5098(3) 0.48083(11) 0.05291(14)
C27_2 C 0.6624(3) 0.41825(12) 0.07156(15)
H19_2 H 0.3828 0.5301 0.0269
C29_2 C 0.5208(3) 0.46495(12) 0.11132(16)
O6_2 O 0.7564(2) 0.42412(10) 0.08049(11)
O7_2 O 0.6307(2) 0.37902(9) 0.08682(11)
O8_2 O 0.4367(2) 0.44751(10) 0.10737(12)
O9_2 O 0.6115(2) 0.47284(10) 0.15891(11)
Ag3_2 Ag 0.385327(19) 0.438631(9) 0.188759(10)
C1_2 C 0.4792(3) 0.53505(12) 0.88868(16)
O2_2 O 0.3885(2) 0.52716(10) 0.84109(11)
C4_2 C 0.4902(3) 0.51917(11) 0.94709(14)
C6_2 C 0.5696(3) 0.48185(11) 0.98391(14)
C7_2 C 0.4196(3) 0.53817(11) 0.96357(14)
H4_2 H 0.6172 0.4699 0.9731
C9_2 C 0.3376(3) 0.58175(12) 0.92844(15)
O3_2 O 0.2436(2) 0.57588(10) 0.91951(11)
O4_2 O 0.3693(2) 0.62098(9) 0.91318(11)
C1_3 C 0.0208(3) 0.03505(12) 0.61132(16)
O2_3 O 0.1115(2) 0.02716(10) 0.65891(11)
C4_3 C 0.0098(3) 0.01917(11) 0.55291(14)
C7_3 C 0.0804(3) 0.03817(11) 0.53643(14)
C9_3 C 0.1624(3) 0.08175(12) 0.57156(15)
O3_3 O 0.2564(2) 0.07588(10) 0.58049(11)
O4_3 O 0.1307(2) 0.12098(9) 0.58682(11)
O5_2 O 0.0633(2) 0.05249(10) 0.89263(12)
C24_3 C 0.0696(3) 0.01815(11) 0.48391(14)
H19_3 H 0.1172 0.0301 0.4731
N5_2 N 0.1304(2) 0.97830(10) 0.80593(11)
C20_2 C 0.1515(2) 0.95314(12) 0.76961(14)
C21_2 C 0.1148(2) 0.93980(11) 0.83734(15)
N7_2 N 0.15046(19) 0.90057(10) 0.77648(11)
H16_2 H 0.1654 0.9696 0.7428
H17_2 H 0.0981 0.9459 0.8663
C22_2 C 0.1275(2) 0.89167(13) 0.81957(13)
C25_2 C 0.1684(3) 0.86030(13) 0.74275(14)
H18_2 H 0.1217 0.8589 0.8339
H20_2 H 0.1618 0.8766 0.7075
H21_2 H 0.1124 0.8332 0.7287
C28_2 C 0.2800(3) 0.83455(12) 0.78095(14)
C30_2 C 0.2919(3) 0.78589(12) 0.80793(14)
C31_2 C 0.3723(3) 0.86038(12) 0.79030(15)
O8_3 O 0.0633(2) 0.94751(10) 0.39263(12)
C32_2 C 0.3941(3) 0.76305(12) 0.84386(15)
H22_2 H 0.2306 0.7683 0.8019
H23_2 H 0.3652 0.8931 0.7722
C33_2 C 0.4746(3) 0.83768(12) 0.82647(16)
Ag3_3 Ag 0.114673(19) 0.938631(9) 0.311241(10)
H24_2 H 0.4010 0.7302 0.8617
C34_2 C 0.4862(3) 0.78875(12) 0.85338(14)
H25_2 H 0.5360 0.8554 0.8328
C35_2 C 0.5971(3) 0.76200(13) 0.89014(16)
N8_2 N 0.6094(2) 0.72233(10) 0.85355(12)
H26_2 H 0.6543 0.7884 0.9042
H27_2 H 0.6046 0.7450 0.9253
C36_2 C 0.5967(2) 0.66977(11) 0.85550(14)
C37_2 C 0.6336(2) 0.73209(13) 0.81097(15)
H28_2 H 0.5788 0.6531 0.8805
C38_2 C 0.6367(2) 0.68396(12) 0.78898(15)
H29_2 H 0.6455 0.7649 0.7995
H30_2 H 0.6522 0.6781 0.7595
O1_2 O 0.9367(2) 0.05249(10) 0.60737(12)
N1_2 N 0.8696(2) 0.97830(10) 0.69407(11)
C2_2 C 0.8485(2) 0.95314(12) 0.73039(14)
C3_2 C 0.8852(2) 0.93980(11) 0.66266(15)
N3_2 N 0.84954(19) 0.90057(10) 0.72352(11)
H1_2 H 0.8346 0.9696 0.7572
H2_2 H 0.9019 0.9459 0.6337
C5_2 C 0.8725(2) 0.89167(13) 0.68043(13)
C6_3 C 0.9304(3) 0.98185(11) 0.51609(14)
C8_2 C 0.8316(3) 0.86030(13) 0.75725(14)
H3_2 H 0.8783 0.8589 0.6661
H4_3 H 0.8828 0.9699 0.5269
H5_2 H 0.8382 0.8766 0.7925
H6_2 H 0.8876 0.8332 0.7713
C10_2 C 0.7200(3) 0.83455(12) 0.71905(14)
C11_2 C 0.7081(3) 0.78589(12) 0.69207(14)
C12_2 C 0.6277(3) 0.86038(12) 0.70970(15)
C13_2 C 0.6059(3) 0.76305(12) 0.65614(15)
H7_2 H 0.7694 0.7683 0.6981
H8_2 H 0.6348 0.8931 0.7278
C14_2 C 0.5254(3) 0.83768(12) 0.67353(16)
H9_2 H 0.5990 0.7302 0.6383
C15_2 C 0.5138(3) 0.78875(12) 0.64662(14)
H10_2 H 0.4640 0.8554 0.6672
C16_2 C 0.4029(3) 0.76200(13) 0.60986(16)
N4_2 N 0.3906(2) 0.72233(10) 0.64645(12)
H11_2 H 0.3457 0.7884 0.5958
H12_2 H 0.3954 0.7450 0.5747
C17_2 C 0.4033(2) 0.66977(11) 0.64450(14)
C18_2 C 0.3664(2) 0.73209(13) 0.68903(15)
H13_2 H 0.4212 0.6531 0.6195
C19_2 C 0.3633(2) 0.68396(12) 0.71102(15)
H14_2 H 0.3545 0.7649 0.7005
H15_2 H 0.3478 0.6781 0.7405
C23_3 C 0.9196(3) 0.96183(11) 0.46357(14)
C26_3 C 0.9902(3) 0.98083(11) 0.44709(14)
C27_3 C 0.8376(3) 0.91825(12) 0.42844(15)
C29_3 C 0.9792(3) 0.96495(12) 0.38868(16)
O6_3 O 0.7436(2) 0.92412(10) 0.41951(11)
O7_3 O 0.8693(2) 0.87902(9) 0.41318(11)
O9_3 O 0.8885(2) 0.97284(10) 0.34109(11)
C23_4 C 0.0804(3) 0.96183(11) 0.03643(14)
C26_4 C 0.0098(3) 0.98083(11) 0.05291(14)
C27_4 C 0.1624(3) 0.91825(12) 0.07156(15)
C29_4 C 0.0208(3) 0.96495(12) 0.11132(16)
O6_4 O 0.2564(2) 0.92412(10) 0.08049(11)
O7_4 O 0.1307(2) 0.87902(9) 0.08682(11)
O9_4 O 0.1115(2) 0.97284(10) 0.15891(11)
C6_4 C 0.0696(3) 0.98185(11) 0.98391(14)
H4_4 H 0.1172 0.9699 0.9731
C24_4 C 0.9304(3) 0.01815(11) 0.01609(14)
H19_4 H 0.8828 0.0301 0.0269
C1_4 C 0.9792(3) 0.03505(12) 0.88868(16)
O2_4 O 0.8885(2) 0.02716(10) 0.84109(11)
C4_4 C 0.9902(3) 0.01917(11) 0.94709(14)
C7_4 C 0.9196(3) 0.03817(11) 0.96357(14)
C9_4 C 0.8376(3) 0.08175(12) 0.92844(15)
O3_4 O 0.7436(2) 0.07588(10) 0.91951(11)
O4_4 O 0.8693(2) 0.12098(9) 0.91318(11)
O8_4 O 0.9367(2) 0.94751(10) 0.10737(12)
Ag3_4 Ag 0.885327(19) 0.938631(9) 0.188759(10)
H10_3 H 0.0360 0.6446 0.3328
C16_3 C 0.0971(3) 0.73800(13) 0.39014(16)
N4_3 N 0.1094(2) 0.77767(10) 0.35355(12)
H11_3 H 0.1543 0.7116 0.4042
H12_3 H 0.1046 0.7550 0.4253
C17_3 C 0.0967(2) 0.83023(11) 0.35550(14)
C18_3 C 0.1336(2) 0.76791(13) 0.31097(15)
H13_3 H 0.0788 0.8469 0.3805
C19_3 C 0.1367(2) 0.81604(12) 0.28898(15)
H14_3 H 0.1455 0.7351 0.2995
H15_3 H 0.1522 0.8219 0.2595
N9_2 N 0.1133(2) 0.85487(10) 0.31708(11)
N1_3 N 0.6304(2) 0.52170(10) 0.30593(11)
N2_2 N 0.6133(2) 0.35487(10) 0.31708(11)
C2_3 C 0.6515(2) 0.54686(12) 0.26961(14)
C3_3 C 0.6148(2) 0.56020(11) 0.33734(15)
N3_3 N 0.65046(19) 0.59943(10) 0.27648(11)
H1_3 H 0.6654 0.5304 0.2428
H2_3 H 0.5981 0.5541 0.3663
C5_3 C 0.6275(2) 0.60833(13) 0.31957(13)
C8_3 C 0.6684(3) 0.63970(13) 0.24275(14)
H3_3 H 0.6217 0.6411 0.3339
H5_3 H 0.6618 0.6234 0.2075
H6_3 H 0.6124 0.6668 0.2287
C10_3 C 0.7800(3) 0.66545(12) 0.28095(14)
C11_3 C 0.7919(3) 0.71411(12) 0.30793(14)
C12_3 C 0.8723(3) 0.63962(12) 0.29030(15)
C13_3 C 0.8941(3) 0.73695(12) 0.34386(15)
H7_3 H 0.7306 0.7317 0.3019
H8_3 H 0.8652 0.6069 0.2722
C14_3 C 0.9746(3) 0.66232(12) 0.32647(16)
H9_3 H 0.9010 0.7698 0.3617
C15_3 C 0.9862(3) 0.71125(12) 0.35338(14)
N5_3 N 0.3696(2) 0.52170(10) 0.19407(11)
N6_2 N 0.3867(2) 0.35487(10) 0.18292(11)
C20_3 C 0.3485(2) 0.54686(12) 0.23039(14)
C21_3 C 0.3852(2) 0.56020(11) 0.16266(15)
N7_3 N 0.34954(19) 0.59943(10) 0.22352(11)
H16_3 H 0.3346 0.5304 0.2572
H17_3 H 0.4019 0.5541 0.1337
C22_3 C 0.3725(2) 0.60833(13) 0.18043(13)
C25_3 C 0.3316(3) 0.63970(13) 0.25725(14)
H18_3 H 0.3783 0.6411 0.1661
H20_3 H 0.3382 0.6234 0.2925
H21_3 H 0.3876 0.6668 0.2713
C28_3 C 0.2200(3) 0.66545(12) 0.21905(14)
C30_3 C 0.2081(3) 0.71411(12) 0.19207(14)
C31_3 C 0.1277(3) 0.63962(12) 0.20970(15)
C32_3 C 0.1059(3) 0.73695(12) 0.15614(15)
H22_3 H 0.2694 0.7317 0.1981
H23_3 H 0.1348 0.6069 0.2278
C33_3 C 0.0254(3) 0.66232(12) 0.17353(16)
H24_3 H 0.0990 0.7698 0.1383
C34_3 C 0.0138(3) 0.71125(12) 0.14662(14)
H25_3 H 0.9640 0.6446 0.1672
C35_3 C 0.9029(3) 0.73800(13) 0.10986(16)
N8_3 N 0.8906(2) 0.77767(10) 0.14645(12)
H26_3 H 0.8457 0.7116 0.0958
H27_3 H 0.8954 0.7550 0.0747
C36_3 C 0.9033(2) 0.83023(11) 0.14450(14)
C37_3 C 0.8664(2) 0.76791(13) 0.18903(15)
N10_2 N 0.8867(2) 0.85487(10) 0.18292(11)
H28_3 H 0.9212 0.8469 0.1195
C38_3 C 0.8633(2) 0.81604(12) 0.21102(15)
H29_3 H 0.8545 0.7351 0.2005
H30_3 H 0.8478 0.8219 0.2405
N1_4 N 0.1304(2) 0.02170(10) 0.30593(11)
C2_4 C 0.1515(2) 0.04686(12) 0.26961(14)
C3_4 C 0.1148(2) 0.06020(11) 0.33734(15)
N3_4 N 0.15046(19) 0.09943(10) 0.27648(11)
H1_4 H 0.1654 0.0304 0.2428
H2_4 H 0.0981 0.0541 0.3663
C5_4 C 0.1275(2) 0.10833(13) 0.31957(13)
C8_4 C 0.1684(3) 0.13970(13) 0.24275(14)
H3_4 H 0.1217 0.1411 0.3339
H5_4 H 0.1618 0.1234 0.2075
H6_4 H 0.1124 0.1668 0.2287
C10_4 C 0.2800(3) 0.16545(12) 0.28095(14)
C11_4 C 0.2919(3) 0.21411(12) 0.30793(14)
C12_4 C 0.3723(3) 0.13962(12) 0.29030(15)
C13_4 C 0.3941(3) 0.23695(12) 0.34386(15)
H7_4 H 0.2306 0.2317 0.3019
H8_4 H 0.3652 0.1069 0.2722
C14_4 C 0.4746(3) 0.16232(12) 0.32647(16)
H9_4 H 0.4010 0.2698 0.3617
C15_4 C 0.4862(3) 0.21125(12) 0.35338(14)
H10_4 H 0.5360 0.1446 0.3328
C16_4 C 0.5971(3) 0.23800(13) 0.39014(16)
N4_4 N 0.6094(2) 0.27767(10) 0.35355(12)
H11_4 H 0.6543 0.2116 0.4042
H12_4 H 0.6046 0.2550 0.4253
C17_4 C 0.5967(2) 0.33023(11) 0.35550(14)
C18_4 C 0.6336(2) 0.26791(13) 0.31097(15)
H13_4 H 0.5788 0.3469 0.3805
C19_4 C 0.6367(2) 0.31604(12) 0.28898(15)
H14_4 H 0.6455 0.2351 0.2995
H15_4 H 0.6522 0.3219 0.2595
N5_4 N 0.8696(2) 0.02170(10) 0.19407(11)
C20_4 C 0.8485(2) 0.04686(12) 0.23039(14)
C21_4 C 0.8852(2) 0.06020(11) 0.16266(15)
N7_4 N 0.84954(19) 0.09943(10) 0.22352(11)
H16_4 H 0.8346 0.0304 0.2572
H17_4 H 0.9019 0.0541 0.1337
C22_4 C 0.8725(2) 0.10833(13) 0.18043(13)
C25_4 C 0.8316(3) 0.13970(13) 0.25725(14)
H18_4 H 0.8783 0.1411 0.1661
H20_4 H 0.8382 0.1234 0.2925
H21_4 H 0.8876 0.1668 0.2713
C28_4 C 0.7200(3) 0.16545(12) 0.21905(14)
C30_4 C 0.7081(3) 0.21411(12) 0.19207(14)
C31_4 C 0.6277(3) 0.13962(12) 0.20970(15)
C32_4 C 0.6059(3) 0.23695(12) 0.15614(15)
H22_4 H 0.7694 0.2317 0.1981
H23_4 H 0.6348 0.1069 0.2278
C33_4 C 0.5254(3) 0.16232(12) 0.17353(16)
H24_4 H 0.5990 0.2698 0.1383
C34_4 C 0.5138(3) 0.21125(12) 0.14662(14)
H25_4 H 0.4640 0.1446 0.1672
C35_4 C 0.4029(3) 0.23800(13) 0.10986(16)
N8_4 N 0.3906(2) 0.27767(10) 0.14645(12)
H26_4 H 0.3457 0.2116 0.0958
H27_4 H 0.3954 0.2550 0.0747
C36_4 C 0.4033(2) 0.33023(11) 0.14450(14)
C37_4 C 0.3664(2) 0.26791(13) 0.18903(15)
H28_4 H 0.4212 0.3469 0.1195
C38_4 C 0.3633(2) 0.31604(12) 0.21102(15)
H29_4 H 0.3545 0.2351 0.2005
H30_4 H 0.3478 0.3219 0.2405
Ag6 Ag 0.14019(2) 0.555419(9) 0.561137(12)
N11 N 0.0972(2) 0.71058(10) 0.60644(12)
N13 N 0.1237(2) 0.63668(9) 0.57258(12)
H31 H 0.0137 0.8362 0.5822
C43 C 0.1061(2) 0.65773(12) 0.61254(14)
H35 H 0.1008 0.6385 0.6410
C46 C 0.1265(2) 0.67779(12) 0.53958(15)
H38 H 0.1380 0.6747 0.5082
C49 C 0.1099(3) 0.72406(12) 0.56027(15)
H40 H 0.1076 0.7580 0.5458
C51 C 0.0816(3) 0.74694(14) 0.64484(16)
H42 H 0.1371 0.7744 0.6604
H43 H 0.0904 0.7275 0.6791
N15 N 0.1303(2) 0.47218(9) 0.55411(12)
Ag7 Ag 0.64019(2) 0.055419(9) 0.561137(12)
N11_2 N 0.5972(2) 0.21058(10) 0.60644(12)
N12 N 0.13533(19) 0.38954(9) 0.53014(10)
N13_2 N 0.6237(2) 0.13668(9) 0.57258(12)
C39 C 0.4544(3) 0.31954(12) 0.57961(16)
H31_2 H 0.5137 0.3362 0.5822
C40 C 0.2770(3) 0.27114(11) 0.57203(15)
H32 H 0.2178 0.2547 0.5697
C41 C 0.4693(3) 0.27251(12) 0.61000(14)
C42 C 0.1506(3) 0.34308(12) 0.50221(14)
H33 H 0.1401 0.3535 0.4639
H34 H 0.0953 0.3169 0.4938
C43_2 C 0.6061(2) 0.15773(12) 0.61254(14)
H35_2 H 0.6008 0.1385 0.6410
C44 C 0.3804(3) 0.24848(12) 0.60644(15)
H36 H 0.3900 0.2170 0.6272
C45 C 0.1045(2) 0.43993(11) 0.58628(15)
H37 H 0.0875 0.4515 0.6138
C46_2 C 0.6265(2) 0.17779(12) 0.53958(15)
H38_2 H 0.6380 0.1747 0.5082
C47 C 0.2618(2) 0.31808(11) 0.54117(13)
C48 C 0.1074(2) 0.38909(12) 0.57223(14)
H39 H 0.0933 0.3594 0.5879
C49_2 C 0.6099(3) 0.22406(12) 0.56027(15)
H40_2 H 0.6076 0.2580 0.5458
C50 C 0.1482(2) 0.44036(11) 0.52031(14)
H41 H 0.1670 0.4517 0.4935
C51_2 C 0.5816(3) 0.24694(14) 0.64484(16)
H42_2 H 0.6371 0.2744 0.6604
H43_2 H 0.5904 0.2275 0.6791
C52 C 0.3514(3) 0.34211(12) 0.54534(15)
H44 H 0.3422 0.3737 0.5249
N12_2 N 0.63533(19) 0.88954(9) 0.53014(10)
N14 N 0.6303(2) 0.97218(9) 0.55411(12)
C39_2 C 0.9544(3) 0.81954(12) 0.57961(16)
C40_2 C 0.7770(3) 0.77114(11) 0.57203(15)
H32_2 H 0.7178 0.7547 0.5697
C41_2 C 0.9693(3) 0.77251(12) 0.61000(14)
C42_2 C 0.6506(3) 0.84308(12) 0.50221(14)
H33_2 H 0.6401 0.8535 0.4639
H34_2 H 0.5953 0.8169 0.4938
C44_2 C 0.8804(3) 0.74848(12) 0.60644(15)
H36_2 H 0.8900 0.7170 0.6272
C45_2 C 0.6045(2) 0.93993(11) 0.58628(15)
H37_2 H 0.5875 0.9515 0.6138
C47_2 C 0.7618(2) 0.81808(11) 0.54117(13)
C48_2 C 0.6074(2) 0.88909(12) 0.57223(14)
H39_2 H 0.5933 0.8594 0.5879
C50_2 C 0.6482(2) 0.94036(11) 0.52031(14)
H41_2 H 0.6670 0.9517 0.4935
C52_2 C 0.8514(3) 0.84211(12) 0.54534(15)
H44_2 H 0.8422 0.8737 0.5249
Ag7_2 Ag 0.35981(2) 0.055419(9) 0.938863(12)
Ag6_2 Ag 0.85981(2) 0.555419(9) 0.938863(12)
N11_3 N 0.9028(2) 0.71058(10) 0.89356(12)
N13_3 N 0.8763(2) 0.63668(9) 0.92742(12)
H31_3 H 0.9863 0.8362 0.9178
C43_3 C 0.8939(2) 0.65773(12) 0.88746(14)
H35_3 H 0.8992 0.6385 0.8590
C46_3 C 0.8735(2) 0.67779(12) 0.96042(15)
H38_3 H 0.8620 0.6747 0.9918
C49_3 C 0.8901(3) 0.72406(12) 0.93973(15)
H40_3 H 0.8924 0.7580 0.9542
C51_3 C 0.9184(3) 0.74694(14) 0.85516(16)
H42_3 H 0.8629 0.7744 0.8396
H43_3 H 0.9096 0.7275 0.8209
N15_2 N 0.8697(2) 0.47218(9) 0.94589(12)
N11_4 N 0.4028(2) 0.21058(10) 0.89356(12)
N12_3 N 0.86467(19) 0.38954(9) 0.96986(10)
N13_4 N 0.3763(2) 0.13668(9) 0.92742(12)
C39_3 C 0.5456(3) 0.31954(12) 0.92039(16)
H31_4 H 0.4863 0.3362 0.9178
C40_3 C 0.7230(3) 0.27114(11) 0.92797(15)
H32_3 H 0.7822 0.2547 0.9303
C41_3 C 0.5307(3) 0.27251(12) 0.89000(14)
C42_3 C 0.8494(3) 0.34308(12) 0.99779(14)
C43_4 C 0.3939(2) 0.15773(12) 0.88746(14)
H35_4 H 0.3992 0.1385 0.8590
C44_3 C 0.6196(3) 0.24848(12) 0.89356(15)
H36_3 H 0.6100 0.2170 0.8728
C45_3 C 0.8955(2) 0.43993(11) 0.91372(15)
H37_3 H 0.9125 0.4515 0.8862
C46_4 C 0.3735(2) 0.17779(12) 0.96042(15)
H38_4 H 0.3620 0.1747 0.9918
C47_3 C 0.7382(2) 0.31808(11) 0.95883(13)
C48_3 C 0.8926(2) 0.38909(12) 0.92777(14)
H39_3 H 0.9067 0.3594 0.9121
C49_4 C 0.3901(3) 0.22406(12) 0.93973(15)
H40_4 H 0.3924 0.2580 0.9542
C50_3 C 0.8518(2) 0.44036(11) 0.97969(14)
C51_4 C 0.4184(3) 0.24694(14) 0.85516(16)
H42_4 H 0.3629 0.2744 0.8396
H43_4 H 0.4096 0.2275 0.8209
C52_3 C 0.6486(3) 0.34211(12) 0.95466(15)
H44_3 H 0.6578 0.3737 0.9751
H33_3 H 0.3599 0.8535 0.0361
H34_3 H 0.4047 0.8169 0.0062
H41_3 H 0.3330 0.9517 0.0065
N12_4 N 0.36467(19) 0.88954(9) 0.96986(10)
N14_2 N 0.3697(2) 0.97218(9) 0.94589(12)
C39_4 C 0.0456(3) 0.81954(12) 0.92039(16)
C40_4 C 0.2230(3) 0.77114(11) 0.92797(15)
H32_4 H 0.2822 0.7547 0.9303
C41_4 C 0.0307(3) 0.77251(12) 0.89000(14)
C42_4 C 0.3494(3) 0.84308(12) 0.99779(14)
C44_4 C 0.1196(3) 0.74848(12) 0.89356(15)
H36_4 H 0.1100 0.7170 0.8728
C45_4 C 0.3955(2) 0.93993(11) 0.91372(15)
H37_4 H 0.4125 0.9515 0.8862
C47_4 C 0.2382(2) 0.81808(11) 0.95883(13)
C48_4 C 0.3926(2) 0.88909(12) 0.92777(14)
H39_4 H 0.4067 0.8594 0.9121
C50_4 C 0.3518(2) 0.94036(11) 0.97969(14)
C52_4 C 0.1486(3) 0.84211(12) 0.95466(15)
H44_4 H 0.1578 0.8737 0.9751
H33_4 H 0.8599 0.3535 0.0361
H34_4 H 0.9047 0.3169 0.0062
H41_4 H 0.8330 0.4517 0.0065
N12_5 N 0.36467(19) 0.11046(9) 0.46986(10)
N14_3 N 0.3697(2) 0.02782(9) 0.44589(12)
C39_5 C 0.0456(3) 0.18046(12) 0.42039(16)
C40_5 C 0.2230(3) 0.22886(11) 0.42797(15)
H32_5 H 0.2822 0.2453 0.4303
C41_5 C 0.0307(3) 0.22749(12) 0.39000(14)
C42_5 C 0.3494(3) 0.15692(12) 0.49779(14)
H33_5 H 0.3599 0.1465 0.5361
H34_5 H 0.4047 0.1831 0.5062
C44_5 C 0.1196(3) 0.25152(12) 0.39356(15)
H36_5 H 0.1100 0.2830 0.3728
C45_5 C 0.3955(2) 0.06007(11) 0.41372(15)
H37_5 H 0.4125 0.0485 0.3862
C47_5 C 0.2382(2) 0.18192(11) 0.45883(13)
C48_5 C 0.3926(2) 0.11091(12) 0.42777(14)
H39_5 H 0.4067 0.1406 0.4121
C50_5 C 0.3518(2) 0.05964(11) 0.47969(14)
H41_5 H 0.3330 0.0483 0.5065
C52_5 C 0.1486(3) 0.15789(12) 0.45466(15)
H44_5 H 0.1578 0.1263 0.4751
Ag7_3 Ag 0.35981(2) 0.944581(9) 0.438863(12)
Ag6_3 Ag 0.85981(2) 0.444581(9) 0.438863(12)
N11_5 N 0.9028(2) 0.28942(10) 0.39356(12)
N13_5 N 0.8763(2) 0.36332(9) 0.42742(12)
H31_5 H 0.9863 0.1638 0.4178
C43_5 C 0.8939(2) 0.34227(12) 0.38746(14)
H35_5 H 0.8992 0.3615 0.3590
C46_5 C 0.8735(2) 0.32221(12) 0.46042(15)
H38_5 H 0.8620 0.3253 0.4918
C49_5 C 0.8901(3) 0.27594(12) 0.43973(15)
H40_5 H 0.8924 0.2420 0.4542
C51_5 C 0.9184(3) 0.25306(14) 0.35516(16)
H42_5 H 0.8629 0.2256 0.3396
H43_5 H 0.9096 0.2725 0.3209
N15_3 N 0.8697(2) 0.52782(9) 0.44589(12)
N11_6 N 0.4028(2) 0.78942(10) 0.39356(12)
N12_6 N 0.86467(19) 0.61046(9) 0.46986(10)
N13_6 N 0.3763(2) 0.86332(9) 0.42742(12)
C39_6 C 0.5456(3) 0.68046(12) 0.42039(16)
H31_6 H 0.4863 0.6638 0.4178
C40_6 C 0.7230(3) 0.72886(11) 0.42797(15)
H32_6 H 0.7822 0.7453 0.4303
C41_6 C 0.5307(3) 0.72749(12) 0.39000(14)
C42_6 C 0.8494(3) 0.65692(12) 0.49779(14)
H33_6 H 0.8599 0.6465 0.5361
H34_6 H 0.9047 0.6831 0.5062
C43_6 C 0.3939(2) 0.84227(12) 0.38746(14)
H35_6 H 0.3992 0.8615 0.3590
C44_6 C 0.6196(3) 0.75152(12) 0.39356(15)
H36_6 H 0.6100 0.7830 0.3728
C45_6 C 0.8955(2) 0.56007(11) 0.41372(15)
H37_6 H 0.9125 0.5485 0.3862
C46_6 C 0.3735(2) 0.82221(12) 0.46042(15)
H38_6 H 0.3620 0.8253 0.4918
C47_6 C 0.7382(2) 0.68192(11) 0.45883(13)
C48_6 C 0.8926(2) 0.61091(12) 0.42777(14)
H39_6 H 0.9067 0.6406 0.4121
C49_6 C 0.3901(3) 0.77594(12) 0.43973(15)
H40_6 H 0.3924 0.7420 0.4542
C50_6 C 0.8518(2) 0.55964(11) 0.47969(14)
H41_6 H 0.8330 0.5483 0.5065
C51_6 C 0.4184(3) 0.75306(14) 0.35516(16)
H42_6 H 0.3629 0.7256 0.3396
H43_6 H 0.4096 0.7725 0.3209
C52_6 C 0.6486(3) 0.65789(12) 0.45466(15)
H44_6 H 0.6578 0.6263 0.4751
Ag6_4 Ag 0.14019(2) 0.444581(9) 0.061137(12)
N11_7 N 0.0972(2) 0.28942(10) 0.10644(12)
N13_7 N 0.1237(2) 0.36332(9) 0.07258(12)
H31_7 H 0.0137 0.1638 0.0822
C43_7 C 0.1061(2) 0.34227(12) 0.11254(14)
H35_7 H 0.1008 0.3615 0.1410
C46_7 C 0.1265(2) 0.32221(12) 0.03958(15)
H38_7 H 0.1380 0.3253 0.0082
C49_7 C 0.1099(3) 0.27594(12) 0.06027(15)
H40_7 H 0.1076 0.2420 0.0458
C51_7 C 0.0816(3) 0.25306(14) 0.14484(16)
H42_7 H 0.1371 0.2256 0.1604
H43_7 H 0.0904 0.2725 0.1791
N15_4 N 0.1303(2) 0.52782(9) 0.05411(12)
Ag7_4 Ag 0.64019(2) 0.944581(9) 0.061137(12)
N11_8 N 0.5972(2) 0.78942(10) 0.10644(12)
N12_7 N 0.13533(19) 0.61046(9) 0.03014(10)
N13_8 N 0.6237(2) 0.86332(9) 0.07258(12)
C39_7 C 0.4544(3) 0.68046(12) 0.07961(16)
H31_8 H 0.5137 0.6638 0.0822
C40_7 C 0.2770(3) 0.72886(11) 0.07203(15)
H32_7 H 0.2178 0.7453 0.0697
C41_7 C 0.4693(3) 0.72749(12) 0.11000(14)
C42_7 C 0.1506(3) 0.65692(12) 0.00221(14)
C43_8 C 0.6061(2) 0.84227(12) 0.11254(14)
H35_8 H 0.6008 0.8615 0.1410
C44_7 C 0.3804(3) 0.75152(12) 0.10644(15)
H36_7 H 0.3900 0.7830 0.1272
C45_7 C 0.1045(2) 0.56007(11) 0.08628(15)
H37_7 H 0.0875 0.5485 0.1138
C46_8 C 0.6265(2) 0.82221(12) 0.03958(15)
H38_8 H 0.6380 0.8253 0.0082
C47_7 C 0.2618(2) 0.68192(11) 0.04117(13)
C48_7 C 0.1074(2) 0.61091(12) 0.07223(14)
H39_7 H 0.0933 0.6406 0.0879
C49_8 C 0.6099(3) 0.77594(12) 0.06027(15)
H40_8 H 0.6076 0.7420 0.0458
C50_7 C 0.1482(2) 0.55964(11) 0.02031(14)
C51_8 C 0.5816(3) 0.75306(14) 0.14484(16)
H42_8 H 0.6371 0.7256 0.1604
H43_8 H 0.5904 0.7725 0.1791
C52_7 C 0.3514(3) 0.65789(12) 0.04534(15)
H44_7 H 0.3422 0.6263 0.0249
N12_8 N 0.63533(19) 0.11046(9) 0.03014(10)
N14_4 N 0.6303(2) 0.02782(9) 0.05411(12)
C39_8 C 0.9544(3) 0.18046(12) 0.07961(16)
C40_8 C 0.7770(3) 0.22886(11) 0.07203(15)
H32_8 H 0.7178 0.2453 0.0697
C41_8 C 0.9693(3) 0.22749(12) 0.11000(14)
C42_8 C 0.6506(3) 0.15692(12) 0.00221(14)
C44_8 C 0.8804(3) 0.25152(12) 0.10644(15)
H36_8 H 0.8900 0.2830 0.1272
C45_8 C 0.6045(2) 0.06007(11) 0.08628(15)
H37_8 H 0.5875 0.0485 0.1138
C47_8 C 0.7618(2) 0.18192(11) 0.04117(13)
C48_8 C 0.6074(2) 0.11091(12) 0.07223(14)
H39_8 H 0.5933 0.1406 0.0879
C50_8 C 0.6482(2) 0.05964(11) 0.02031(14)
C52_8 C 0.8514(3) 0.15789(12) 0.04534(15)
H44_8 H 0.8422 0.1263 0.0249
H33_7 H 0.6401 0.1465 0.9639
H34_7 H 0.5953 0.1831 0.9938
H41_7 H 0.6670 0.0483 0.9935
H33_8 H 0.1401 0.6465 0.9639
H34_8 H 0.0953 0.6831 0.9938
H41_8 H 0.1670 0.5483 0.9935
loop_
_geom_bond_atom_site_label_1
_geom_bond_atom_site_label_2
_geom_bond_site_symmetry_1
_geom_bond_site_symmetry_2
N8 C35 1_555 1_555
H26 C35 1_555 1_555
H27 C35 1_555 1_555
C36 N8 1_555 1_555
C37 N8 1_555 1_555
N10 C36 1_555 1_555
H28 C36 1_555 1_555
C38 C37 1_555 1_555
H29 C37 1_555 1_555
Ag5 N10 1_555 1_555
H30 C38 1_555 1_555
N10 C38 1_555 1_555
Ag1 O1 1_555 1_555
O1 C1 1_555 1_555
N1 Ag1 1_555 1_555
N2 Ag1 1_555 1_555
C1 O2 1_555 1_555
C2 N1 1_555 1_555
C3 N1 1_555 1_555
C4 C1 1_555 1_555
N3 C2 1_555 1_555
H1 C2 1_555 1_555
H2 C3 1_555 1_555
C5 C3 1_555 1_555
C6 C4 1_555 1_555
C7 C4 1_555 1_555
C8 N3 1_555 1_555
H3 C5 1_555 1_555
H4 C6 1_555 1_555
C9 C7 1_555 1_555
H5 C8 1_555 1_555
H6 C8 1_555 1_555
C10 C8 1_555 1_555
O3 C9 1_555 1_555
O4 C9 1_555 1_555
C11 C10 1_555 1_555
C12 C10 1_555 1_555
C13 C11 1_555 1_555
H7 C11 1_555 1_555
H8 C12 1_555 1_555
C14 C12 1_555 1_555
H9 C13 1_555 1_555
C15 C13 1_555 1_555
Ag2 Ag1 1_555 1_555
N5 Ag2 1_555 1_555
O5 Ag2 1_555 1_555
N6 Ag2 1_555 1_555
C20 N5 1_555 1_555
C21 N5 1_555 1_555
N7 C20 1_555 1_555
H16 C20 1_555 1_555
H17 C21 1_555 1_555
C22 C21 1_555 1_555
C23 C6 1_555 1_555
C24 C7 1_555 1_555
C25 N7 1_555 1_555
H18 C22 1_555 1_555
C26 C23 1_555 1_555
C27 C23 1_555 1_555
H19 C24 1_555 1_555
H20 C25 1_555 1_555
H21 C25 1_555 1_555
C28 C25 1_555 1_555
C29 C26 1_555 1_555
O6 C27 1_555 1_555
O7 C27 1_555 1_555
C30 C28 1_555 1_555
C31 C28 1_555 1_555
O8 C29 1_555 1_555
O9 C29 1_555 1_555
C32 C30 1_555 1_555
H22 C30 1_555 1_555
H23 C31 1_555 1_555
C33 C31 1_555 1_555
Ag3 O8 1_555 1_555
H24 C32 1_555 1_555
C34 C32 1_555 1_555
N3 C5 1_555 1_555
C14 C15 1_555 1_555
N7 C22 1_555 1_555
C24 C26 1_555 1_555
C33 C34 1_555 1_555
N4 C16 1_555 1_555
H11 C16 1_555 1_555
H12 C16 1_555 1_555
C17 N4 1_555 1_555
C18 N4 1_555 1_555
H13 C17 1_555 1_555
C19 C18 1_555 1_555
H14 C18 1_555 1_555
H15 C19 1_555 1_555
N9 C17 1_555 1_555
Ag4 N9 1_555 1_555
C19 N9 1_555 1_555
C26_2 C23_2 1_555 1_555
C27_2 C23_2 1_555 1_555
H19_2 C24_2 1_555 1_555
C29_2 C26_2 1_555 1_555
O6_2 C27_2 1_555 1_555
O7_2 C27_2 1_555 1_555
O8_2 C29_2 1_555 1_555
O9_2 C29_2 1_555 1_555
Ag3_2 O8_2 1_555 1_555
C24_2 C26_2 1_555 1_555
O5 C1_2 1_555 1_555
C1_2 O2_2 1_555 1_555
C4_2 C1_2 1_555 1_555
C6_2 C4_2 1_555 1_555
C7_2 C4_2 1_555 1_555
H4_2 C6_2 1_555 1_555
C9_2 C7_2 1_555 1_555
O3_2 C9_2 1_555 1_555
O4_2 C9_2 1_555 1_555
C1_3 O2_3 1_555 1_555
C4_3 C1_3 1_555 1_555
C7_3 C4_3 1_555 1_555
C9_3 C7_3 1_555 1_555
O3_3 C9_3 1_555 1_555
O4_3 C9_3 1_555 1_555
O5_2 Ag5 1_555 1_555
C24_3 C7_3 1_555 1_555
H19_3 C24_3 1_555 1_555
C20_2 N5_2 1_555 1_555
C21_2 N5_2 1_555 1_555
N7_2 C20_2 1_555 1_555
H16_2 C20_2 1_555 1_555
H17_2 C21_2 1_555 1_555
C22_2 C21_2 1_555 1_555
C25_2 N7_2 1_555 1_555
H18_2 C22_2 1_555 1_555
H20_2 C25_2 1_555 1_555
H21_2 C25_2 1_555 1_555
C28_2 C25_2 1_555 1_555
C30_2 C28_2 1_555 1_555
C31_2 C28_2 1_555 1_555
C32_2 C30_2 1_555 1_555
H22_2 C30_2 1_555 1_555
H23_2 C31_2 1_555 1_555
C33_2 C31_2 1_555 1_555
Ag3_3 O8_3 1_555 1_555
H24_2 C32_2 1_555 1_555
C34_2 C32_2 1_555 1_555
H25_2 C33_2 1_555 1_555
C35_2 C34_2 1_555 1_555
N8_2 C35_2 1_555 1_555
H26_2 C35_2 1_555 1_555
H27_2 C35_2 1_555 1_555
C36_2 N8_2 1_555 1_555
C37_2 N8_2 1_555 1_555
N6 C36_2 1_555 1_555
H28_2 C36_2 1_555 1_555
C38_2 C37_2 1_555 1_555
H29_2 C37_2 1_555 1_555
H30_2 C38_2 1_555 1_555
N7_2 C22_2 1_555 1_555
C33_2 C34_2 1_555 1_555
N6 C38_2 1_555 1_555
Ag4 O1_2 1_555 1_555
C2_2 N1_2 1_555 1_555
C3_2 N1_2 1_555 1_555
N3_2 C2_2 1_555 1_555
H1_2 C2_2 1_555 1_555
H2_2 C3_2 1_555 1_555
C5_2 C3_2 1_555 1_555
C8_2 N3_2 1_555 1_555
H3_2 C5_2 1_555 1_555
H4_3 C6_3 1_555 1_555
H5_2 C8_2 1_555 1_555
H6_2 C8_2 1_555 1_555
C10_2 C8_2 1_555 1_555
C11_2 C10_2 1_555 1_555
C12_2 C10_2 1_555 1_555
C13_2 C11_2 1_555 1_555
H7_2 C11_2 1_555 1_555
H8_2 C12_2 1_555 1_555
C14_2 C12_2 1_555 1_555
H9_2 C13_2 1_555 1_555
C15_2 C13_2 1_555 1_555
H10_2 C14_2 1_555 1_555
C16_2 C15_2 1_555 1_555
N4_2 C16_2 1_555 1_555
H11_2 C16_2 1_555 1_555
H12_2 C16_2 1_555 1_555
C17_2 N4_2 1_555 1_555
C18_2 N4_2 1_555 1_555
H13_2 C17_2 1_555 1_555
C19_2 C18_2 1_555 1_555
H14_2 C18_2 1_555 1_555
H15_2 C19_2 1_555 1_555
C23_3 C6_3 1_555 1_555
C26_3 C23_3 1_555 1_555
C27_3 C23_3 1_555 1_555
C29_3 C26_3 1_555 1_555
O6_3 C27_3 1_555 1_555
O7_3 C27_3 1_555 1_555
O9_3 C29_3 1_555 1_555
N2 C17_2 1_555 1_555
N3_2 C5_2 1_555 1_555
C14_2 C15_2 1_555 1_555
C19_2 N2 1_555 1_555
C26_4 C23_4 1_555 1_555
C27_4 C23_4 1_555 1_555
C29_4 C26_4 1_555 1_555
O6_4 C27_4 1_555 1_555
O7_4 C27_4 1_555 1_555
O9_4 C29_4 1_555 1_555
H4_4 C6_4 1_555 1_555
H19_4 C24_4 1_555 1_555
C1_4 O2_4 1_555 1_555
C4_4 C1_4 1_555 1_555
C7_4 C4_4 1_555 1_555
C9_4 C7_4 1_555 1_555
O3_4 C9_4 1_555 1_555
O4_4 C9_4 1_555 1_555
Ag3_4 O8_4 1_555 1_555
N4_3 C16_3 1_555 1_555
H11_3 C16_3 1_555 1_555
H12_3 C16_3 1_555 1_555
C17_3 N4_3 1_555 1_555
C18_3 N4_3 1_555 1_555
H13_3 C17_3 1_555 1_555
C19_3 C18_3 1_555 1_555
H14_3 C18_3 1_555 1_555
H15_3 C19_3 1_555 1_555
N9_2 C17_3 1_555 1_555
Ag3_3 N9_2 1_555 1_555
C19_3 N9_2 1_555 1_555
N1_3 Ag3 1_555 1_555
N2_2 Ag3 1_555 1_555
C2_3 N1_3 1_555 1_555
C3_3 N1_3 1_555 1_555
N3_3 C2_3 1_555 1_555
H1_3 C2_3 1_555 1_555
H2_3 C3_3 1_555 1_555
C5_3 C3_3 1_555 1_555
C8_3 N3_3 1_555 1_555
H3_3 C5_3 1_555 1_555
H5_3 C8_3 1_555 1_555
H6_3 C8_3 1_555 1_555
C10_3 C8_3 1_555 1_555
C11_3 C10_3 1_555 1_555
C12_3 C10_3 1_555 1_555
C13_3 C11_3 1_555 1_555
H7_3 C11_3 1_555 1_555
H8_3 C12_3 1_555 1_555
C14_3 C12_3 1_555 1_555
H9_3 C13_3 1_555 1_555
C15_3 C13_3 1_555 1_555
Ag3_2 Ag3 1_555 1_555
N5_3 Ag3_2 1_555 1_555
N6_2 Ag3_2 1_555 1_555
C20_3 N5_3 1_555 1_555
C21_3 N5_3 1_555 1_555
N7_3 C20_3 1_555 1_555
H16_3 C20_3 1_555 1_555
H17_3 C21_3 1_555 1_555
C22_3 C21_3 1_555 1_555
C25_3 N7_3 1_555 1_555
H18_3 C22_3 1_555 1_555
H20_3 C25_3 1_555 1_555
H21_3 C25_3 1_555 1_555
C28_3 C25_3 1_555 1_555
C30_3 C28_3 1_555 1_555
C31_3 C28_3 1_555 1_555
C32_3 C30_3 1_555 1_555
H22_3 C30_3 1_555 1_555
H23_3 C31_3 1_555 1_555
C33_3 C31_3 1_555 1_555
H24_3 C32_3 1_555 1_555
C34_3 C32_3 1_555 1_555
N3_3 C5_3 1_555 1_555
C14_3 C15_3 1_555 1_555
N7_3 C22_3 1_555 1_555
C33_3 C34_3 1_555 1_555
N8_3 C35_3 1_555 1_555
H26_3 C35_3 1_555 1_555
H27_3 C35_3 1_555 1_555
C36_3 N8_3 1_555 1_555
C37_3 N8_3 1_555 1_555
N10_2 C36_3 1_555 1_555
H28_3 C36_3 1_555 1_555
C38_3 C37_3 1_555 1_555
H29_3 C37_3 1_555 1_555
Ag3_4 N10_2 1_555 1_555
H30_3 C38_3 1_555 1_555
N10_2 C38_3 1_555 1_555
C2_4 N1_4 1_555 1_555
C3_4 N1_4 1_555 1_555
N3_4 C2_4 1_555 1_555
H1_4 C2_4 1_555 1_555
H2_4 C3_4 1_555 1_555
C5_4 C3_4 1_555 1_555
C8_4 N3_4 1_555 1_555
H3_4 C5_4 1_555 1_555
H5_4 C8_4 1_555 1_555
H6_4 C8_4 1_555 1_555
C10_4 C8_4 1_555 1_555
C11_4 C10_4 1_555 1_555
C12_4 C10_4 1_555 1_555
C13_4 C11_4 1_555 1_555
H7_4 C11_4 1_555 1_555
H8_4 C12_4 1_555 1_555
C14_4 C12_4 1_555 1_555
H9_4 C13_4 1_555 1_555
C15_4 C13_4 1_555 1_555
H10_4 C14_4 1_555 1_555
C16_4 C15_4 1_555 1_555
N4_4 C16_4 1_555 1_555
H11_4 C16_4 1_555 1_555
H12_4 C16_4 1_555 1_555
C17_4 N4_4 1_555 1_555
C18_4 N4_4 1_555 1_555
H13_4 C17_4 1_555 1_555
C19_4 C18_4 1_555 1_555
H14_4 C18_4 1_555 1_555
H15_4 C19_4 1_555 1_555
N2_2 C17_4 1_555 1_555
N3_4 C5_4 1_555 1_555
C14_4 C15_4 1_555 1_555
C19_4 N2_2 1_555 1_555
C20_4 N5_4 1_555 1_555
C21_4 N5_4 1_555 1_555
N7_4 C20_4 1_555 1_555
H16_4 C20_4 1_555 1_555
H17_4 C21_4 1_555 1_555
C22_4 C21_4 1_555 1_555
C25_4 N7_4 1_555 1_555
H18_4 C22_4 1_555 1_555
H20_4 C25_4 1_555 1_555
H21_4 C25_4 1_555 1_555
C28_4 C25_4 1_555 1_555
C30_4 C28_4 1_555 1_555
C31_4 C28_4 1_555 1_555
C32_4 C30_4 1_555 1_555
H22_4 C30_4 1_555 1_555
H23_4 C31_4 1_555 1_555
C33_4 C31_4 1_555 1_555
H24_4 C32_4 1_555 1_555
C34_4 C32_4 1_555 1_555
H25_4 C33_4 1_555 1_555
C35_4 C34_4 1_555 1_555
N8_4 C35_4 1_555 1_555
H26_4 C35_4 1_555 1_555
H27_4 C35_4 1_555 1_555
C36_4 N8_4 1_555 1_555
C37_4 N8_4 1_555 1_555
N6_2 C36_4 1_555 1_555
H28_4 C36_4 1_555 1_555
C38_4 C37_4 1_555 1_555
H29_4 C37_4 1_555 1_555
H30_4 C38_4 1_555 1_555
N7_4 C22_4 1_555 1_555
C33_4 C34_4 1_555 1_555
N6_2 C38_4 1_555 1_555
Ag6 N13 1_555 1_555
N11 C43 1_555 1_555
N13 C43 1_555 1_555
C43 H35 1_555 1_555
C46 N13 1_555 1_555
H38 C46 1_555 1_555
C49 N11 1_555 1_555
H40 C49 1_555 1_555
C51 N11 1_555 1_555
H42 C51 1_555 1_555
H43 C51 1_555 1_555
N15 Ag6 1_555 1_555
C46 C49 1_555 1_555
Ag7 N13_2 1_555 1_555
N11_2 C43_2 1_555 1_555
N12 C42 1_555 1_555
N13_2 C43_2 1_555 1_555
N15 C45 1_555 1_555
C39 H31_2 1_555 1_555
C40 H32 1_555 1_555
C41 C39 1_555 1_555
C42 H33 1_555 1_555
H34 C42 1_555 1_555
C43_2 H35_2 1_555 1_555
C44 C40 1_555 1_555
H36 C44 1_555 1_555
C45 H37 1_555 1_555
C46_2 N13_2 1_555 1_555
H38_2 C46_2 1_555 1_555
C47 C40 1_555 1_555
C48 N12 1_555 1_555
H39 C48 1_555 1_555
C49_2 N11_2 1_555 1_555
H40_2 C49_2 1_555 1_555
C50 N12 1_555 1_555
H41 C50 1_555 1_555
C51_2 N11_2 1_555 1_555
H42_2 C51_2 1_555 1_555
H43_2 C51_2 1_555 1_555
C52 C39 1_555 1_555
H44 C52 1_555 1_555
N15 C50 1_555 1_555
C41 C44 1_555 1_555
C41 C51_2 1_555 1_555
C42 C47 1_555 1_555
C45 C48 1_555 1_555
C46_2 C49_2 1_555 1_555
C47 C52 1_555 1_555
N12_2 C42_2 1_555 1_555
N14 C45_2 1_555 1_555
C40_2 H32_2 1_555 1_555
C41_2 C39_2 1_555 1_555
C42_2 H33_2 1_555 1_555
H34_2 C42_2 1_555 1_555
C44_2 C40_2 1_555 1_555
H36_2 C44_2 1_555 1_555
C45_2 H37_2 1_555 1_555
C47_2 C40_2 1_555 1_555
C48_2 N12_2 1_555 1_555
H39_2 C48_2 1_555 1_555
C50_2 N12_2 1_555 1_555
H41_2 C50_2 1_555 1_555
C52_2 C39_2 1_555 1_555
H44_2 C52_2 1_555 1_555
N14 C50_2 1_555 1_555
C41_2 C44_2 1_555 1_555
C42_2 C47_2 1_555 1_555
C45_2 C48_2 1_555 1_555
C47_2 C52_2 1_555 1_555
Ag6_2 N13_3 1_555 1_555
N11_3 C43_3 1_555 1_555
N13_3 C43_3 1_555 1_555
C43_3 H35_3 1_555 1_555
C46_3 N13_3 1_555 1_555
H38_3 C46_3 1_555 1_555
C49_3 N11_3 1_555 1_555
H40_3 C49_3 1_555 1_555
C51_3 N11_3 1_555 1_555
H42_3 C51_3 1_555 1_555
H43_3 C51_3 1_555 1_555
N15_2 Ag6_2 1_555 1_555
C46_3 C49_3 1_555 1_555
Ag7_2 N13_4 1_555 1_555
N11_4 C43_4 1_555 1_555
N12_3 C42_3 1_555 1_555
N13_4 C43_4 1_555 1_555
N15_2 C45_3 1_555 1_555
C39_3 H31_4 1_555 1_555
C40_3 H32_3 1_555 1_555
C41_3 C39_3 1_555 1_555
C43_4 H35_4 1_555 1_555
C44_3 C40_3 1_555 1_555
H36_3 C44_3 1_555 1_555
C45_3 H37_3 1_555 1_555
C46_4 N13_4 1_555 1_555
H38_4 C46_4 1_555 1_555
C47_3 C40_3 1_555 1_555
C48_3 N12_3 1_555 1_555
H39_3 C48_3 1_555 1_555
C49_4 N11_4 1_555 1_555
H40_4 C49_4 1_555 1_555
C50_3 N12_3 1_555 1_555
C51_4 N11_4 1_555 1_555
H42_4 C51_4 1_555 1_555
H43_4 C51_4 1_555 1_555
C52_3 C39_3 1_555 1_555
H44_3 C52_3 1_555 1_555
N15_2 C50_3 1_555 1_555
C41_3 C44_3 1_555 1_555
C41_3 C51_4 1_555 1_555
C42_3 C47_3 1_555 1_555
C45_3 C48_3 1_555 1_555
C46_4 C49_4 1_555 1_555
C47_3 C52_3 1_555 1_555
N12_4 C42_4 1_555 1_555
N14_2 C45_4 1_555 1_555
C40_4 H32_4 1_555 1_555
C41_4 C39_4 1_555 1_555
C44_4 C40_4 1_555 1_555
H36_4 C44_4 1_555 1_555
C45_4 H37_4 1_555 1_555
C47_4 C40_4 1_555 1_555
C48_4 N12_4 1_555 1_555
H39_4 C48_4 1_555 1_555
C50_4 N12_4 1_555 1_555
C52_4 C39_4 1_555 1_555
H44_4 C52_4 1_555 1_555
N14_2 C50_4 1_555 1_555
C41_4 C44_4 1_555 1_555
C42_4 C47_4 1_555 1_555
C45_4 C48_4 1_555 1_555
C47_4 C52_4 1_555 1_555
N12_5 C42_5 1_555 1_555
N14_3 C45_5 1_555 1_555
C40_5 H32_5 1_555 1_555
C41_5 C39_5 1_555 1_555
C42_5 H33_5 1_555 1_555
H34_5 C42_5 1_555 1_555
C44_5 C40_5 1_555 1_555
H36_5 C44_5 1_555 1_555
C45_5 H37_5 1_555 1_555
C47_5 C40_5 1_555 1_555
C48_5 N12_5 1_555 1_555
H39_5 C48_5 1_555 1_555
C50_5 N12_5 1_555 1_555
H41_5 C50_5 1_555 1_555
C52_5 C39_5 1_555 1_555
H44_5 C52_5 1_555 1_555
N14_3 C50_5 1_555 1_555
C41_5 C44_5 1_555 1_555
C42_5 C47_5 1_555 1_555
C45_5 C48_5 1_555 1_555
C47_5 C52_5 1_555 1_555
Ag6_3 N13_5 1_555 1_555
N11_5 C43_5 1_555 1_555
N13_5 C43_5 1_555 1_555
C43_5 H35_5 1_555 1_555
C46_5 N13_5 1_555 1_555
H38_5 C46_5 1_555 1_555
C49_5 N11_5 1_555 1_555
H40_5 C49_5 1_555 1_555
C51_5 N11_5 1_555 1_555
H42_5 C51_5 1_555 1_555
H43_5 C51_5 1_555 1_555
N15_3 Ag6_3 1_555 1_555
C46_5 C49_5 1_555 1_555
Ag7_3 N13_6 1_555 1_555
N11_6 C43_6 1_555 1_555
N12_6 C42_6 1_555 1_555
N13_6 C43_6 1_555 1_555
N15_3 C45_6 1_555 1_555
C39_6 H31_6 1_555 1_555
C40_6 H32_6 1_555 1_555
C41_6 C39_6 1_555 1_555
C42_6 H33_6 1_555 1_555
H34_6 C42_6 1_555 1_555
C43_6 H35_6 1_555 1_555
C44_6 C40_6 1_555 1_555
H36_6 C44_6 1_555 1_555
C45_6 H37_6 1_555 1_555
C46_6 N13_6 1_555 1_555
H38_6 C46_6 1_555 1_555
C47_6 C40_6 1_555 1_555
C48_6 N12_6 1_555 1_555
H39_6 C48_6 1_555 1_555
C49_6 N11_6 1_555 1_555
H40_6 C49_6 1_555 1_555
C50_6 N12_6 1_555 1_555
H41_6 C50_6 1_555 1_555
C51_6 N11_6 1_555 1_555
H42_6 C51_6 1_555 1_555
H43_6 C51_6 1_555 1_555
C52_6 C39_6 1_555 1_555
H44_6 C52_6 1_555 1_555
N15_3 C50_6 1_555 1_555
C41_6 C44_6 1_555 1_555
C41_6 C51_6 1_555 1_555
C42_6 C47_6 1_555 1_555
C45_6 C48_6 1_555 1_555
C46_6 C49_6 1_555 1_555
C47_6 C52_6 1_555 1_555
Ag6_4 N13_7 1_555 1_555
N11_7 C43_7 1_555 1_555
N13_7 C43_7 1_555 1_555
C43_7 H35_7 1_555 1_555
C46_7 N13_7 1_555 1_555
H38_7 C46_7 1_555 1_555
C49_7 N11_7 1_555 1_555
H40_7 C49_7 1_555 1_555
C51_7 N11_7 1_555 1_555
H42_7 C51_7 1_555 1_555
H43_7 C51_7 1_555 1_555
N15_4 Ag6_4 1_555 1_555
C46_7 C49_7 1_555 1_555
Ag7_4 N13_8 1_555 1_555
N11_8 C43_8 1_555 1_555
N12_7 C42_7 1_555 1_555
N13_8 C43_8 1_555 1_555
N15_4 C45_7 1_555 1_555
C39_7 H31_8 1_555 1_555
C40_7 H32_7 1_555 1_555
C41_7 C39_7 1_555 1_555
C43_8 H35_8 1_555 1_555
C44_7 C40_7 1_555 1_555
H36_7 C44_7 1_555 1_555
C45_7 H37_7 1_555 1_555
C46_8 N13_8 1_555 1_555
H38_8 C46_8 1_555 1_555
C47_7 C40_7 1_555 1_555
C48_7 N12_7 1_555 1_555
H39_7 C48_7 1_555 1_555
C49_8 N11_8 1_555 1_555
H40_8 C49_8 1_555 1_555
C50_7 N12_7 1_555 1_555
C51_8 N11_8 1_555 1_555
H42_8 C51_8 1_555 1_555
H43_8 C51_8 1_555 1_555
C52_7 C39_7 1_555 1_555
H44_7 C52_7 1_555 1_555
N15_4 C50_7 1_555 1_555
C41_7 C44_7 1_555 1_555
C41_7 C51_8 1_555 1_555
C42_7 C47_7 1_555 1_555
C45_7 C48_7 1_555 1_555
C46_8 C49_8 1_555 1_555
C47_7 C52_7 1_555 1_555
N12_8 C42_8 1_555 1_555
N14_4 C45_8 1_555 1_555
C40_8 H32_8 1_555 1_555
C41_8 C39_8 1_555 1_555
C44_8 C40_8 1_555 1_555
H36_8 C44_8 1_555 1_555
C45_8 H37_8 1_555 1_555
C47_8 C40_8 1_555 1_555
C48_8 N12_8 1_555 1_555
H39_8 C48_8 1_555 1_555
C50_8 N12_8 1_555 1_555
C52_8 C39_8 1_555 1_555
H44_8 C52_8 1_555 1_555
N14_4 C50_8 1_555 1_555
C41_8 C44_8 1_555 1_555
C42_8 C47_8 1_555 1_555
C45_8 C48_8 1_555 1_555
C47_8 C52_8 1_555 1_555

#END
