
###############################################################################
#
# This file contains modified crystal structure data generated from the
# MOF subset of the Cambridge Structural Database (CSD) v543 
# hosted by the Cambridge Crystallographic Data Centre (CCDC).
#
# This work is licensed under the Creative Commons
# Attribution-NonCommercial-ShareAlike 4.0 International License.
# To view a copy of this license, visit
# http://creativecommons.org/licenses/by-nc-sa/4.0/
# or send a letter to
# Creative Commons, PO Box 1866, Mountain View, CA 94042, USA.
#
# CIF created using the CSD Python API on 29 September 2022
# The structure has been converted into the P1 space group
# The structure has a 3D framework
# The original CSD entry AGESIP is in the monoclinic crystal system
# The framework has been calculated to contain at least 10.0% void space
# The void calculation uses a probe of radius 1.32A, grid spacing 0.4
# H atom positions have been added when not included in the experimental data
# Generated hydrogen atom positions removed from atoms on special positions
#
###############################################################################

data_AGESIP
_chemical_formula_moiety         '(C16 H8 Cu6 O18)n'
_symmetry_cell_setting           triclinic
_symmetry_space_group_name_H-M   'P 1'
_symmetry_Int_Tables_number      1
_space_group_name_Hall           'P 1'
loop_
_symmetry_equiv_pos_site_id
_symmetry_equiv_pos_as_xyz
1 x,y,z
_cell_length_a                   5.6437(4)
_cell_length_b                   12.8357(9)
_cell_length_c                   9.1507(6)
_cell_angle_alpha                90
_cell_angle_beta                 95.892(1)
_cell_angle_gamma                90
_cell_volume                     659.382
loop_
_atom_site_label
_atom_site_type_symbol
_atom_site_fract_x
_atom_site_fract_y
_atom_site_fract_z
H7 H 0.113585 0.0516932 0.584015
Cu8 Cu 0.01236(5) 0.38828(2) 0.03936(3)
O11 O 0.1084(3) 0.75912(13) 0.5521(2)
O14 O 0.3048(3) 0.91291(14) 0.2931(2)
O19 O 0.1941(3) 0.98290(13) 0.58418(19)
H3 H 0.223(8) 0.967(4) 0.661(5)
Cu9 Cu 0.01236(5) 0.11172(2) 0.53936(3)
Cu10 Cu 0.5000 -0.0000 0.5000
O20 O 0.8059(3) 0.01710(13) 0.41582(19)
H4 H 0.777(8) 0.033(4) 0.339(5)
Cu1 Cu 0.98764(5) 0.88828(2) 0.46064(3)
Cu2 Cu 0.5000 0.5000 0.0000
C1 C 0.6333(4) 0.78857(17) 0.2414(2)
O1 O 0.8365(3) 0.80208(14) 0.3054(2)
C2 C 0.5400(4) 0.70841(17) 0.1395(2)
O2 O 0.6380(3) 0.62803(13) 0.0906(2)
C3 C 0.3061(4) 0.75708(17) 0.1252(2)
O3 O 0.1084(3) 0.74088(13) 0.0521(2)
C4 C 0.3949(4) 0.83752(17) 0.2326(2)
O5 O 0.1941(3) 0.51710(13) 0.08418(19)
Cu10_2 Cu 0.5000 1.0000 0.5000
O8 O 0.6380(3) 0.87197(13) 0.5906(2)
O16 O 0.6952(3) 0.41291(14) 0.2069(2)
Cu2_2 Cu 0.5000 0.5000 1.0000
Cu4 Cu 0.98764(5) 0.61172(2) 0.96064(3)
C5 C 0.3667(4) 0.21143(17) 0.7586(2)
O6 O 0.1635(3) 0.19792(14) 0.6946(2)
C6 C 0.4600(4) 0.29159(17) 0.8605(2)
O7 O 0.3620(3) 0.37197(13) 0.9094(2)
O9 O 0.3620(3) 0.12803(13) 0.4094(2)
C7 C 0.6939(4) 0.24292(17) 0.8748(2)
O10 O 0.8916(3) 0.25912(13) 0.9479(2)
C8 C 0.6051(4) 0.16248(17) 0.7674(2)
O13 O 0.6952(3) 0.08709(14) 0.7069(2)
O15 O 0.3048(3) 0.58709(14) 0.7931(2)
O18 O 0.8059(3) 0.48290(13) 0.91582(19)
O12 O 0.8916(3) 0.24088(13) 0.4479(2)
H8 H 0.653853 0.0100705 0.46076
C1_2 C 0.3667(4) 0.28857(17) 0.2586(2)
O1_2 O 0.1635(3) 0.30208(14) 0.1946(2)
C2_2 C 0.4600(4) 0.20841(17) 0.3605(2)
C3_2 C 0.6939(4) 0.25708(17) 0.3748(2)
C4_2 C 0.6051(4) 0.33752(17) 0.2674(2)
C5_2 C 0.6333(4) 0.71143(17) 0.7414(2)
O6_2 O 0.8365(3) 0.69792(14) 0.8054(2)
C6_2 C 0.5400(4) 0.79159(17) 0.6395(2)
C7_2 C 0.3061(4) 0.74292(17) 0.6252(2)
C8_2 C 0.3949(4) 0.66248(17) 0.7326(2)
H8_2 H 0.346147 0.98993 0.53924
H7_2 H 0.886415 0.948307 0.415985
loop_
_geom_bond_atom_site_label_1
_geom_bond_atom_site_label_2
_geom_bond_site_symmetry_1
_geom_bond_site_symmetry_2
H3 O19 1_555 1_555
H4 O20 1_555 1_555
Cu10 O20 1_555 1_555
Cu1 O1 1_555 1_555
Cu2 O2 1_555 1_555
C1 O1 1_555 1_555
C2 C1 1_555 1_555
O2 C2 1_555 1_555
C3 C2 1_555 1_555
O3 C3 1_555 1_555
C4 C1 1_555 1_555
O14 C4 1_555 1_555
O5 Cu2 1_555 1_555
Cu8 O5 1_555 1_555
Cu10_2 O14 1_555 1_555
O8 Cu1 1_555 1_555
O16 Cu2 1_555 1_555
C3 C4 1_555 1_555
Cu10_2 O8 1_555 1_555
Cu9 O6 1_555 1_555
Cu10 O9 1_555 1_555
C5 O6 1_555 1_555
C6 C5 1_555 1_555
O7 Cu2_2 1_555 1_555
O9 Cu9 1_555 1_555
C7 C6 1_555 1_555
O10 C7 1_555 1_555
C8 C5 1_555 1_555
O13 Cu10 1_555 1_555
O15 Cu2_2 1_555 1_555
O18 Cu2_2 1_555 1_555
Cu4 O18 1_555 1_555
C6 O7 1_555 1_555
C7 C8 1_555 1_555
C8 O13 1_555 1_555
Cu10_2 O19 1_555 1_555
O20 H8 1_555 1_555
Cu8 O1_2 1_555 1_555
C1_2 O1_2 1_555 1_555
C2_2 C1_2 1_555 1_555
O9 C2_2 1_555 1_555
C3_2 C2_2 1_555 1_555
O12 C3_2 1_555 1_555
C4_2 C1_2 1_555 1_555
O16 C4_2 1_555 1_555
C3_2 C4_2 1_555 1_555
Cu4 O6_2 1_555 1_555
C5_2 O6_2 1_555 1_555
C6_2 C5_2 1_555 1_555
C7_2 C6_2 1_555 1_555
O11 C7_2 1_555 1_555
C8_2 C5_2 1_555 1_555
C6_2 O8 1_555 1_555
C7_2 C8_2 1_555 1_555
C8_2 O15 1_555 1_555
O19 H8_2 1_555 1_555

#END
