
###############################################################################
#
# This file contains modified crystal structure data generated from the
# MOF subset of the Cambridge Structural Database (CSD) v543 
# hosted by the Cambridge Crystallographic Data Centre (CCDC).
#
# This work is licensed under the Creative Commons
# Attribution-NonCommercial-ShareAlike 4.0 International License.
# To view a copy of this license, visit
# http://creativecommons.org/licenses/by-nc-sa/4.0/
# or send a letter to
# Creative Commons, PO Box 1866, Mountain View, CA 94042, USA.
#
# CIF created using the CSD Python API on 29 September 2022
# The structure has been converted into the P1 space group
# The structure has a 3D framework
# The original CSD entry AGOFEJ is in the monoclinic crystal system
# The framework has been calculated to contain at least 10.0% void space
# The void calculation uses a probe of radius 1.32A, grid spacing 0.4
# The framework is charged, counterions have been retained in the structure
# H atom positions have been added when not included in the experimental data
#
###############################################################################

data_AGOFEJ
_chemical_formula_moiety         '(C416 H416 Cu24 N64 O78 8+)n'
_symmetry_cell_setting           triclinic
_symmetry_space_group_name_H-M   'P 1'
_symmetry_Int_Tables_number      1
_space_group_name_Hall           'P 1'
loop_
_symmetry_equiv_pos_site_id
_symmetry_equiv_pos_as_xyz
1 x,y,z
_cell_length_a                   19.4251(9)
_cell_length_b                   36.589(2)
_cell_length_c                   37.762(2)
_cell_angle_alpha                90
_cell_angle_beta                 114.202(4)
_cell_angle_gamma                90
_cell_volume                     24480.1
loop_
_atom_site_label
_atom_site_type_symbol
_atom_site_fract_x
_atom_site_fract_y
_atom_site_fract_z
Cu1 Cu 0.096413(18) 0.189285(8) 0.247032(11)
Cu2 Cu 0.162010(18) 0.188757(7) 0.323391(11)
H42 H 0.0353 0.2747 0.3477
C50 C 0.04892(19) 0.24210(7) 0.28780(11)
O2 O 0.04701(12) 0.23367(5) 0.25443(7)
O6 O 0.09249(12) 0.22863(5) 0.31989(7)
H77 H 0.0161 0.1129 0.3478
C97 C 0.0269(2) 0.14860(8) 0.28890(12)
O9 O 0.08276(13) 0.15452(6) 0.32052(8)
O13 O 0.01854(12) 0.16079(6) 0.25605(8)
O19 O 0.04435(17) 0.18946(8) 0.18543(8)
O20 O 0.2187(2) 0.18743(8) 0.38507(9)
O22 O 0.15159(12) 0.14355(5) 0.25080(7)
O25 O 0.21788(11) 0.14733(5) 0.31567(7)
O27 O 0.23122(10) 0.22291(4) 0.31526(6)
O28 O 0.18595(11) 0.21714(4) 0.25018(6)
H101 H 0.0574297 0.212412 0.175569
H102 H 0.0625306 0.168183 0.175346
H103 H 0.265807 0.202051 0.393491
H104 H 0.185374 0.197863 0.396611
C2 C 0.67134(15) 0.35590(7) 0.33090(9)
H3 H 0.6924 0.3436 0.3565
H4 H 0.6701 0.3825 0.3355
C3 C 0.48790(16) 0.43387(6) 0.17947(9)
H5 H 0.4498 0.4476 0.1577
H6 H 0.4649 0.4269 0.1975
Cu6 Cu 0.605013(19) 0.392183(7) 0.249222(11)
N2 N 0.71992(13) 0.34895(6) 0.31097(8)
N3 N 0.55249(13) 0.45680(5) 0.19941(7)
N6 N 0.71141(14) 0.37026(6) 0.27979(8)
N7 N 0.60507(13) 0.44531(5) 0.23428(7)
C6 C 0.76589(18) 0.35971(8) 0.26914(11)
C7 C 0.65978(16) 0.47052(6) 0.24542(9)
C10 C 0.81045(18) 0.33187(7) 0.29355(11)
C11 C 0.64122(17) 0.49848(6) 0.21701(9)
C14 C 0.77864(17) 0.32532(7) 0.32007(10)
C15 C 0.57171(17) 0.48877(6) 0.18807(9)
H11 H 0.4297 0.0032 0.1999
C18 C 0.7745(2) 0.37881(11) 0.23553(14)
H12 H 0.7545 0.3631 0.2125
H13 H 0.8281 0.3837 0.2424
H14 H 0.7466 0.4019 0.2300
C19 C 0.72755(19) 0.46606(7) 0.28259(11)
H15 H 0.7239 0.4826 0.3022
H16 H 0.7730 0.4719 0.2785
H17 H 0.7304 0.4408 0.2916
C22 C 0.7973(2) 0.29810(11) 0.35213(13)
H24 H 0.8208 0.3106 0.3772
H25 H 0.8324 0.2799 0.3500
H26 H 0.7510 0.2859 0.3502
C23 C 0.52192(19) 0.50750(7) 0.15197(10)
H27 H 0.5326 0.4986 0.1303
H28 H 0.5310 0.5339 0.1549
H29 H 0.4691 0.5025 0.1468
C26 C 0.8751(2) 0.31242(8) 0.29181(12)
C27 C 0.68487(17) 0.53176(6) 0.21739(9)
C30 C 0.8746(2) 0.30152(11) 0.25619(13)
H34 H 0.8342 0.3088 0.2328
C31 C 0.73195(17) 0.54855(6) 0.25242(10)
H35 H 0.7375 0.5380 0.2764
C34 C 0.9325(2) 0.28015(11) 0.25455(13)
H38 H 0.9317 0.2731 0.2302
C35 C 0.77046(17) 0.58043(7) 0.25224(10)
H39 H 0.8030 0.5913 0.2761
C38 C 0.99200(19) 0.26901(8) 0.28901(11)
C39 C 0.76150(16) 0.59656(6) 0.21696(10)
C42 C 0.99425(19) 0.28129(9) 0.32420(11)
C43 C 0.71709(19) 0.58000(7) 0.18292(11)
H43 H 0.7114 0.5909 0.1591
C46 C 0.9374(2) 0.30302(9) 0.32518(12)
H46 H 0.9409 0.3119 0.3495
C47 C 0.67984(19) 0.54730(7) 0.18237(10)
H47 H 0.6511 0.5355 0.1584
C51 C 0.80073(17) 0.63192(6) 0.21677(11)
O3 O 0.84841(12) 0.64355(5) 0.24920(7)
O7 O 0.78212(11) 0.64733(5) 0.18433(7)
N9 N 0.70903(13) 0.02159(5) 0.30306(7)
N10 N 0.59535(12) 0.34297(5) 0.30875(7)
N11 N 0.50933(15) 0.40101(5) 0.16458(7)
N13 N 0.66275(14) 0.05072(5) 0.28787(8)
N14 N 0.55302(13) 0.36013(5) 0.27506(7)
N15 N 0.55641(16) 0.37700(5) 0.19136(8)
C53 C 0.70670(18) 0.07672(7) 0.28325(11)
C54 C 0.48584(15) 0.34372(6) 0.26175(8)
C55 C 0.5638(2) 0.34925(7) 0.17023(10)
C57 C 0.78127(18) 0.06403(8) 0.29559(11)
C58 C 0.48524(16) 0.31646(6) 0.28778(9)
C59 C 0.5228(2) 0.35567(8) 0.13074(11)
C61 C 0.78031(17) 0.02858(7) 0.30793(10)
C62 C 0.55559(16) 0.31654(6) 0.31748(9)
C63 C 0.4877(2) 0.38924(7) 0.12772(10)
C65 C 0.6743(2) 0.11404(8) 0.26824(14)
H49 H 0.6630 0.1157 0.2405
H50 H 0.7110 0.1329 0.2824
H51 H 0.6278 0.1176 0.2721
C66 C 0.42290(17) 0.35572(8) 0.22434(9)
H52 H 0.4227 0.3824 0.2226
H53 H 0.3745 0.3474 0.2237
H54 H 0.4305 0.3451 0.2024
C67 C 0.6108(3) 0.31663(8) 0.19032(12)
H55 H 0.6621 0.3196 0.1917
H56 H 0.5881 0.2944 0.1757
H57 H 0.6129 0.3147 0.2166
C69 C 0.8427(2) 0.00078(10) 0.32427(14)
H62 H 0.8864 0.0088 0.3196
C70 C 0.59029(18) 0.29332(8) 0.35381(10)
H64 H 0.6392 0.2839 0.3562
H65 H 0.5566 0.2728 0.3521
H66 H 0.5975 0.3082 0.3766
C71 C 0.4375(3) 0.41076(9) 0.09335(11)
H67 H 0.3858 0.4102 0.0916
H68 H 0.4385 0.4002 0.0697
H69 H 0.4551 0.4361 0.0961
C73 C 0.84557(19) 0.08452(8) 0.29434(12)
C74 C 0.42000(16) 0.29377(6) 0.28551(9)
C75 C 0.5148(3) 0.33058(8) 0.09808(12)
C77 C 0.9134(2) 0.08870(9) 0.32674(13)
H73 H 0.9200 0.0771 0.3504
C78 C 0.40277(16) 0.29056(6) 0.31797(9)
H74 H 0.4329 0.3030 0.3413
C79 C 0.5775(3) 0.31542(10) 0.09555(12)
H75 H 0.6262 0.3225 0.1137
C81 C 0.9711(2) 0.10941(9) 0.32504(12)
C82 C 0.34277(15) 0.26955(6) 0.31661(8)
H78 H 0.3329 0.2673 0.3392
C83 C 0.5711(3) 0.28965(10) 0.06671(13)
H79 H 0.6150 0.2791 0.0657
C85 C 0.96417(19) 0.12517(8) 0.29028(12)
C86 C 0.29735(15) 0.25193(6) 0.28324(8)
C87 C 0.5007(2) 0.27985(9) 0.03997(11)
C89 C 0.8985(2) 0.12072(10) 0.25771(12)
H81 H 0.8935 0.1310 0.2337
C90 C 0.31210(16) 0.25513(7) 0.24998(9)
H82 H 0.2807 0.2431 0.2266
C91 C 0.4363(3) 0.29569(10) 0.04125(14)
H83 H 0.3874 0.2896 0.0224
C93 C 0.8390(2) 0.10101(11) 0.26005(13)
H85 H 0.7930 0.0988 0.2376
C94 C 0.37316(17) 0.27603(7) 0.25150(9)
H86 H 0.3831 0.2782 0.2289
C95 C 0.4453(3) 0.32069(10) 0.07082(13)
H87 H 0.4016 0.3312 0.0721
C98 C 0.23355(16) 0.22886(6) 0.28268(9)
C99 C 0.4928(3) 0.25146(8) 0.01005(11)
O11 O 0.55360(15) 0.24022(6) 0.00845(7)
H95 H 0.7035 0.1875 0.0181
H100 H 0.8211 0.2084 0.0010
Cu8 Cu 0.903587(18) 0.689285(8) 0.252968(11)
Cu10 Cu 0.837990(18) 0.688757(7) 0.176609(11)
Cu15 Cu 0.547886(19) 0.043329(7) 0.262221(10)
O26 O 0.54640(15) 0.16600(6) 0.01092(7)
C4 C 0.39284(17) 0.41904(7) 0.71849(8)
H7 H 0.3831 0.4453 0.7209
H8 H 0.3435 0.4067 0.7052
Cu3 Cu 0.40693(2) 0.205137(8) 0.947164(10)
Cu4 Cu 0.55494(2) 0.200897(8) 0.973088(10)
Cu5 Cu 0.547886(19) 0.456671(7) 0.762221(10)
N4 N 0.43649(15) 0.41518(6) 0.69499(7)
N8 N 0.50256(15) 0.43409(6) 0.70614(7)
C8 C 0.5248(2) 0.42860(8) 0.67735(9)
C12 C 0.4731(2) 0.40692(8) 0.64800(9)
C16 C 0.4162(2) 0.39865(8) 0.65998(9)
C20 C 0.5966(2) 0.44713(11) 0.68002(12)
H18 H 0.6088 0.4674 0.6986
H19 H 0.5892 0.4566 0.6544
H20 H 0.6381 0.4294 0.6888
C24 C 0.3493(3) 0.37590(11) 0.64266(11)
H30 H 0.3502 0.3569 0.6612
H31 H 0.3484 0.3644 0.6190
H32 H 0.3041 0.3910 0.6361
C28 C 0.4774(2) 0.39432(9) 0.61162(11)
C32 C 0.5446(3) 0.38167(11) 0.61160(12)
H36 H 0.5895 0.3831 0.6347
C36 C 0.5474(3) 0.36679(10) 0.57790(12)
H40 H 0.5942 0.3589 0.5782
C40 C 0.4819(2) 0.36368(9) 0.54427(11)
C44 C 0.4136(3) 0.37732(9) 0.54383(11)
H44 H 0.3686 0.3758 0.5208
C48 C 0.4123(3) 0.39276(10) 0.57679(11)
H48 H 0.3664 0.4026 0.5759
C52 C 0.4822(3) 0.34252(8) 0.51022(11)
O4 O 0.41746(17) 0.33386(6) 0.48423(7)
O8 O 0.54640(15) 0.33400(6) 0.51092(7)
N12 N 0.43162(13) 0.40364(5) 0.75682(6)
N16 N 0.49398(13) 0.42130(5) 0.78295(6)
C56 C 0.51864(15) 0.40078(6) 0.81537(8)
C60 C 0.46996(16) 0.37034(6) 0.80966(8)
C64 C 0.41625(16) 0.37250(6) 0.77193(8)
C68 C 0.58699(17) 0.41098(7) 0.84996(9)
H58 H 0.6297 0.3960 0.8510
H59 H 0.5782 0.4068 0.8734
H60 H 0.5984 0.4369 0.8484
C72 C 0.35382(18) 0.34727(7) 0.74899(9)
H70 H 0.3059 0.3607 0.7389
H71 H 0.3513 0.3273 0.7657
H72 H 0.3631 0.3373 0.7273
C76 C 0.47532(16) 0.34178(6) 0.83836(8)
C80 C 0.54283(16) 0.32349(6) 0.85938(9)
H76 H 0.5874 0.3301 0.8563
C84 C 0.54499(17) 0.29550(6) 0.88501(9)
H80 H 0.5912 0.2833 0.8995
C88 C 0.48017(16) 0.28538(6) 0.88939(8)
C92 C 0.41243(17) 0.30395(6) 0.86905(9)
H84 H 0.3681 0.2973 0.8724
C96 C 0.41035(16) 0.33211(6) 0.84398(9)
H88 H 0.3645 0.3450 0.8305
C100 C 0.48107(17) 0.25393(6) 0.91528(8)
O12 O 0.41871(12) 0.24507(5) 0.91580(6)
O15 O 0.42705(16) 0.24032(6) 0.98942(7)
O16 O 0.54324(11) 0.23855(4) 0.93385(6)
O17 O 0.28861(16) 0.20651(8) 0.92729(10)
H89 H 0.2671 0.2033 0.9456
C101 C 0.2425(6) 0.2118(3) 0.8902(3)
H90 H 0.2724 0.2265 0.8795
H91 H 0.2028 0.2283 0.8909
C102 C 0.1974(5) 0.1823(2) 0.8560(3)
H92 H 0.2258 0.1780 0.8402
H93 H 0.1473 0.1920 0.8396
H94 H 0.1918 0.1593 0.8678
O18 O 0.67381(16) 0.19676(7) 0.99290(8)
C103 C 0.7033(7) 0.2063(3) 0.9718(3)
H96 H 0.6716 0.2272 0.9576
H97 H 0.6903 0.1863 0.9525
C104 C 0.7835(12) 0.2178(5) 0.9763(6)
H98 H 0.7867 0.2445 0.9760
H99 H 0.7933 0.2077 0.9548
Cu12 Cu 0.40693(2) 0.294863(8) 0.447164(10)
Cu14 Cu 0.55494(2) 0.299103(8) 0.473088(10)
N17 N 0.55492(13) 0.51144(5) 0.75407(6)
O21 O 0.40715(13) 0.16934(5) 0.90879(6)
O23 O 0.41746(17) 0.16614(6) 0.98423(7)
O24 O 0.53412(14) 0.16259(5) 0.93340(6)
N18 N 0.66275(14) 0.44928(5) 0.78787(8)
C1 C 0.67548(16) 0.98846(7) 0.30985(8)
H1 H 0.7157 0.9707 0.3242
H2 H 0.6476 0.9941 0.3260
N1 N 0.62448(13) 0.97255(5) 0.27348(6)
N5 N 0.55492(13) 0.98856(5) 0.25407(6)
C5 C 0.52233(16) 0.97049(6) 0.22025(8)
C9 C 0.57310(16) 0.94350(6) 0.21741(8)
C13 C 0.63699(18) 0.94562(6) 0.25216(9)
C17 C 0.44489(17) 0.98003(7) 0.19222(9)
H9 H 0.4098 0.9607 0.1921
H10 H 0.4440 0.9825 0.1662
C21 C 0.70785(19) 0.92371(8) 0.26809(11)
H21 H 0.7478 0.9368 0.2638
H22 H 0.6991 0.8999 0.2550
H23 H 0.7233 0.9200 0.2960
C25 C 0.56124(17) 0.91899(6) 0.18433(8)
C29 C 0.48989(17) 0.90603(6) 0.16002(8)
H33 H 0.4473 0.9132 0.1647
C33 C 0.47983(18) 0.88297(6) 0.12916(8)
H37 H 0.4306 0.8749 0.1126
C37 C 0.54162(18) 0.87158(6) 0.12247(8)
C41 C 0.61378(19) 0.88450(7) 0.14631(9)
H41 H 0.6564 0.8769 0.1419
C45 C 0.62252(19) 0.90833(7) 0.17613(10)
H45 H 0.6713 0.9178 0.1915
C49 C 0.5321(2) 0.84464(6) 0.09034(9)
O1 O 0.59285(13) 0.83066(5) 0.09121(6)
O5 O 0.46588(14) 0.83741(5) 0.06660(6)
H61 H 0.8574 0.9983 0.3523
H63 H 0.8250 0.9771 0.3116
Cu11 Cu 0.59307(2) 0.794863(8) 0.052836(10)
Cu13 Cu 0.44506(2) 0.799103(8) 0.026912(10)
C23_2 C 0.47808(19) 0.00750(7) 0.34803(10)
H28_2 H 0.4690 0.0339 0.3451
H29_2 H 0.5309 0.0025 0.3532
C27_2 C 0.31513(17) 0.03176(6) 0.28261(9)
C31_2 C 0.26805(17) 0.04855(6) 0.24758(10)
H35_2 H 0.2625 0.0380 0.2236
C35_2 C 0.22954(17) 0.08043(7) 0.24776(10)
H39_2 H 0.1970 0.0913 0.2239
C39_2 C 0.23850(16) 0.09656(6) 0.28304(10)
C43_2 C 0.28291(19) 0.08000(7) 0.31708(11)
H43_2 H 0.2886 0.0909 0.3409
C47_2 C 0.32016(19) 0.04730(7) 0.31763(10)
H47_2 H 0.3489 0.0355 0.3416
C51_2 C 0.19927(17) 0.13192(6) 0.28323(11)
N17_2 N 0.44508(13) 0.01144(5) 0.74593(6)
O4_2 O 0.58254(17) 0.83386(6) 0.01577(7)
C1_2 C 0.32452(16) 0.48846(7) 0.19015(8)
H1_2 H 0.2843 0.4707 0.1758
H2_2 H 0.3524 0.4941 0.1740
C2_2 C 0.32866(15) 0.85590(7) 0.16910(9)
H3_2 H 0.3076 0.8436 0.1435
H4_2 H 0.3299 0.8825 0.1645
C3_2 C 0.51210(16) 0.93387(6) 0.32053(9)
H5_2 H 0.5502 0.9476 0.3423
H6_2 H 0.5351 0.9269 0.3025
C4_2 C 0.60716(17) 0.91904(7) 0.78151(8)
H7_2 H 0.6169 0.9453 0.7791
H8_2 H 0.6565 0.9067 0.7948
Cu3_2 Cu 0.59307(2) 0.705137(8) 0.552836(10)
Cu4_2 Cu 0.44506(2) 0.700897(8) 0.526912(10)
Cu5_2 Cu 0.452114(19) 0.956671(7) 0.737779(10)
Cu6_2 Cu 0.394987(19) 0.892183(7) 0.250778(11)
N1_2 N 0.37552(13) 0.47255(5) 0.22652(6)
N2_2 N 0.28008(13) 0.84895(6) 0.18903(8)
N3_2 N 0.44751(13) 0.95680(5) 0.30059(7)
N4_2 N 0.56351(15) 0.91518(6) 0.80501(7)
N5_2 N 0.44508(13) 0.48856(5) 0.24593(6)
N6_2 N 0.28859(14) 0.87026(6) 0.22021(8)
N7_2 N 0.39493(13) 0.94531(5) 0.26572(7)
N8_2 N 0.49744(15) 0.93409(6) 0.79386(7)
C5_2 C 0.47767(16) 0.47049(6) 0.27975(8)
C6_2 C 0.23411(18) 0.85971(8) 0.23086(11)
C7_2 C 0.34022(16) 0.97052(6) 0.25458(9)
C8_2 C 0.4752(2) 0.92860(8) 0.82265(9)
C9_2 C 0.42690(16) 0.44350(6) 0.28259(8)
C10_2 C 0.18955(18) 0.83187(7) 0.20645(11)
C11_2 C 0.35878(17) 0.99848(6) 0.28299(9)
C12_2 C 0.5269(2) 0.90692(8) 0.85200(9)
C13_2 C 0.36301(18) 0.44562(6) 0.24784(9)
C14_2 C 0.22136(17) 0.82532(7) 0.17993(10)
C15_2 C 0.42829(17) 0.98877(6) 0.31193(9)
C16_2 C 0.5838(2) 0.89865(8) 0.84002(9)
C17_2 C 0.55511(17) 0.48003(7) 0.30778(9)
H9_2 H 0.5902 0.4607 0.3079
H10_2 H 0.5560 0.4825 0.3338
H11_2 H 0.5703 0.5032 0.3001
C18_2 C 0.2255(2) 0.87881(11) 0.26447(14)
H12_2 H 0.2455 0.8631 0.2875
H13_2 H 0.1719 0.8837 0.2576
H14_2 H 0.2534 0.9019 0.2700
C19_2 C 0.27245(19) 0.96606(7) 0.21741(11)
H15_2 H 0.2761 0.9826 0.1978
H16_2 H 0.2270 0.9719 0.2215
H17_2 H 0.2696 0.9408 0.2084
C20_2 C 0.4034(2) 0.94713(11) 0.81998(12)
H18_2 H 0.3912 0.9674 0.8014
H19_2 H 0.4108 0.9566 0.8456
H20_2 H 0.3619 0.9294 0.8112
C21_2 C 0.29215(19) 0.42371(8) 0.23191(11)
H21_2 H 0.2522 0.4368 0.2362
H22_2 H 0.3009 0.3999 0.2450
H23_2 H 0.2767 0.4200 0.2040
C22_2 C 0.2027(2) 0.79810(11) 0.14787(13)
H24_2 H 0.1792 0.8106 0.1228
H25_2 H 0.1676 0.7799 0.1500
H26_2 H 0.2490 0.7859 0.1498
H27_2 H 0.4674 0.9986 0.3697
C24_2 C 0.6507(3) 0.87590(11) 0.85734(11)
H30_2 H 0.6498 0.8569 0.8388
H31_2 H 0.6516 0.8644 0.8810
H32_2 H 0.6959 0.8910 0.8639
C25_2 C 0.43876(17) 0.41899(6) 0.31567(8)
C26_2 C 0.1249(2) 0.81242(8) 0.20819(12)
C28_2 C 0.5226(2) 0.89432(9) 0.88838(11)
C29_2 C 0.51011(17) 0.40603(6) 0.33998(8)
H33_2 H 0.5527 0.4132 0.3353
C30_2 C 0.1254(2) 0.80152(11) 0.24381(13)
H34_2 H 0.1658 0.8088 0.2672
C32_2 C 0.4554(3) 0.88167(11) 0.88840(12)
H36_2 H 0.4105 0.8831 0.8653
C33_2 C 0.52017(18) 0.38297(6) 0.37084(8)
H37_2 H 0.5694 0.3749 0.3874
C34_2 C 0.0675(2) 0.78015(11) 0.24545(13)
H38_2 H 0.0683 0.7731 0.2698
C36_2 C 0.4526(3) 0.86679(10) 0.92210(12)
H40_2 H 0.4058 0.8589 0.9218
C37_2 C 0.45838(18) 0.37158(6) 0.37753(8)
C38_2 C 0.00800(19) 0.76901(8) 0.21099(11)
C40_2 C 0.5181(2) 0.86368(9) 0.95573(11)
C41_2 C 0.38622(19) 0.38450(7) 0.35369(9)
H41_2 H 0.3436 0.3769 0.3581
C42_2 C 0.00575(19) 0.78129(9) 0.17580(11)
C44_2 C 0.5864(3) 0.87732(9) 0.95617(11)
H44_2 H 0.6314 0.8758 0.9792
C45_2 C 0.37748(19) 0.40833(7) 0.32387(10)
H45_2 H 0.3287 0.4178 0.3085
C46_2 C 0.0626(2) 0.80302(9) 0.17482(12)
H46_2 H 0.0591 0.8119 0.1505
C48_2 C 0.5877(3) 0.89276(10) 0.92321(11)
H48_2 H 0.6336 0.9026 0.9241
C49_2 C 0.4679(2) 0.34464(6) 0.40966(9)
C52_2 C 0.5178(3) 0.84252(8) 0.98978(11)
O1_2 O 0.40715(13) 0.33066(5) 0.40879(6)
O5_2 O 0.53412(14) 0.33741(5) 0.43340(6)
O8_2 O 0.45360(15) 0.83400(6) 0.98908(7)
N9_2 N 0.29097(13) 0.52159(5) 0.19694(7)
N10_2 N 0.40465(12) 0.84297(5) 0.19125(7)
N11_2 N 0.49067(15) 0.90101(5) 0.33542(7)
N12_2 N 0.56838(13) 0.90364(5) 0.74318(6)
N13_2 N 0.33725(14) 0.55072(5) 0.21213(8)
N14_2 N 0.44698(13) 0.86013(5) 0.22494(7)
N15_2 N 0.44359(16) 0.87700(5) 0.30864(8)
N16_2 N 0.50602(13) 0.92130(5) 0.71705(6)
C53_2 C 0.29330(18) 0.57672(7) 0.21675(11)
C54_2 C 0.51416(15) 0.84372(6) 0.23825(8)
C55_2 C 0.4362(2) 0.84925(7) 0.32977(10)
C56_2 C 0.48136(15) 0.90078(6) 0.68463(8)
C57_2 C 0.21873(18) 0.56403(8) 0.20441(11)
C58_2 C 0.51476(16) 0.81646(6) 0.21222(9)
C59_2 C 0.4772(2) 0.85567(8) 0.36926(11)
C60_2 C 0.53004(16) 0.87034(6) 0.69034(8)
C61_2 C 0.21969(17) 0.52858(7) 0.19207(10)
C62_2 C 0.44441(16) 0.81654(6) 0.18252(9)
C63_2 C 0.5123(2) 0.88924(7) 0.37228(10)
C64_2 C 0.58375(16) 0.87250(6) 0.72807(8)
C65_2 C 0.3257(2) 0.61404(8) 0.23176(14)
H49_2 H 0.3370 0.6157 0.2595
H50_2 H 0.2890 0.6329 0.2176
H51_2 H 0.3722 0.6176 0.2279
C66_2 C 0.57710(17) 0.85572(8) 0.27566(9)
H52_2 H 0.5773 0.8824 0.2774
H53_2 H 0.6255 0.8474 0.2763
H54_2 H 0.5695 0.8451 0.2976
C67_2 C 0.3892(3) 0.81663(8) 0.30968(12)
H55_2 H 0.3379 0.8196 0.3083
H56_2 H 0.4119 0.7944 0.3243
H57_2 H 0.3871 0.8147 0.2834
C68_2 C 0.41301(17) 0.91098(7) 0.65004(9)
H58_2 H 0.3703 0.8960 0.6490
H59_2 H 0.4218 0.9068 0.6266
H60_2 H 0.4016 0.9369 0.6516
C69_2 C 0.1573(2) 0.50078(10) 0.17573(14)
H61_2 H 0.1426 0.4983 0.1477
H62_2 H 0.1136 0.5088 0.1804
H63_2 H 0.1750 0.4771 0.1884
C70_2 C 0.40971(18) 0.79332(8) 0.14619(10)
H64_2 H 0.3608 0.7839 0.1438
H65_2 H 0.4434 0.7728 0.1479
H66_2 H 0.4025 0.8082 0.1234
C71_2 C 0.5625(3) 0.91076(9) 0.40665(11)
H67_2 H 0.6142 0.9102 0.4084
H68_2 H 0.5615 0.9002 0.4303
H69_2 H 0.5449 0.9361 0.4039
C72_2 C 0.64618(18) 0.84727(7) 0.75101(9)
H70_2 H 0.6941 0.8607 0.7611
H71_2 H 0.6487 0.8273 0.7343
H72_2 H 0.6369 0.8373 0.7727
C73_2 C 0.15443(19) 0.58452(8) 0.20566(12)
C74_2 C 0.58000(16) 0.79377(6) 0.21449(9)
C75_2 C 0.4852(3) 0.83058(8) 0.40192(12)
C76_2 C 0.52468(16) 0.84178(6) 0.66164(8)
C77_2 C 0.0866(2) 0.58870(9) 0.17326(13)
H73_2 H 0.0800 0.5771 0.1496
C78_2 C 0.59723(16) 0.79056(6) 0.18203(9)
H74_2 H 0.5671 0.8030 0.1587
C79_2 C 0.4225(3) 0.81542(10) 0.40445(12)
H75_2 H 0.3738 0.8225 0.3863
C80_2 C 0.45717(16) 0.82349(6) 0.64062(9)
H76_2 H 0.4126 0.8301 0.6437
C81_2 C 0.0289(2) 0.60941(9) 0.17496(12)
C82_2 C 0.65723(15) 0.76955(6) 0.18339(8)
H78_2 H 0.6671 0.7673 0.1608
C83_2 C 0.4289(3) 0.78965(10) 0.43329(13)
H79_2 H 0.3850 0.7791 0.4343
C84_2 C 0.45501(17) 0.79550(6) 0.61499(9)
H80_2 H 0.4088 0.7833 0.6005
C85_2 C 0.03583(19) 0.62517(8) 0.20972(12)
C86_2 C 0.70265(15) 0.75193(6) 0.21676(8)
C87_2 C 0.4993(2) 0.77985(9) 0.46003(11)
C88_2 C 0.51983(16) 0.78538(6) 0.61061(8)
C89_2 C 0.1015(2) 0.62072(10) 0.24229(12)
H81_2 H 0.1065 0.6310 0.2663
C90_2 C 0.68790(16) 0.75513(7) 0.25002(9)
H82_2 H 0.7193 0.7431 0.2734
C91_2 C 0.5637(3) 0.79569(10) 0.45875(14)
H83_2 H 0.6126 0.7896 0.4776
C92_2 C 0.58757(17) 0.80395(6) 0.63095(9)
H84_2 H 0.6319 0.7973 0.6276
C93_2 C 0.1610(2) 0.60101(11) 0.23995(13)
H85_2 H 0.2070 0.5988 0.2624
C94_2 C 0.62684(17) 0.77603(7) 0.24850(9)
H86_2 H 0.6169 0.7782 0.2711
C95_2 C 0.5547(3) 0.82069(10) 0.42918(13)
H87_2 H 0.5984 0.8312 0.4279
C96_2 C 0.58965(16) 0.83211(6) 0.65602(9)
H88_2 H 0.6355 0.8450 0.6695
C98_2 C 0.76645(16) 0.72886(6) 0.21732(9)
C99_2 C 0.5072(3) 0.75146(8) 0.48995(11)
C100_2 C 0.51893(17) 0.75393(6) 0.58472(8)
O10 O 0.76878(10) 0.72291(4) 0.18474(6)
O11_2 O 0.44640(15) 0.74022(6) 0.49155(7)
O12_2 O 0.58129(12) 0.74507(5) 0.58420(6)
O14 O 0.81405(11) 0.71714(4) 0.24982(6)
O15_2 O 0.57295(16) 0.74032(6) 0.51058(7)
O16_2 O 0.45676(11) 0.73855(4) 0.56615(6)
O17_2 O 0.71139(16) 0.70651(8) 0.57271(10)
H89_2 H 0.7329 0.7033 0.5544
C101_2 C 0.7575(6) 0.7118(3) 0.6098(3)
H90_2 H 0.7276 0.7265 0.6205
H91_2 H 0.7972 0.7283 0.6091
C102_2 C 0.8026(5) 0.6823(2) 0.6440(3)
H92_2 H 0.7742 0.6780 0.6598
H93_2 H 0.8527 0.6920 0.6604
H94_2 H 0.8082 0.6593 0.6322
O18_2 O 0.32619(16) 0.69676(7) 0.50710(8)
H95_2 H 0.2965 0.6875 0.4819
C103_2 C 0.2967(7) 0.7063(3) 0.5282(3)
H96_2 H 0.3284 0.7272 0.5424
H97_2 H 0.3097 0.6863 0.5475
C104_2 C 0.2165(12) 0.7178(5) 0.5237(6)
H98_2 H 0.2133 0.7445 0.5240
H99_2 H 0.2067 0.7077 0.5452
H100_2 H 0.1789 0.7084 0.4990
Cu15_2 Cu 0.452114(19) 0.543329(7) 0.237779(10)
O21_2 O 0.59285(13) 0.66934(5) 0.59121(6)
O23_2 O 0.58254(17) 0.66614(6) 0.51577(7)
O24_2 O 0.46588(14) 0.66259(5) 0.56660(6)
O26_2 O 0.45360(15) 0.66600(6) 0.48908(7)
N18_2 N 0.33725(14) 0.94928(5) 0.71213(8)
H42_2 H 0.9647 0.7747 0.1523
C50_2 C 0.95108(19) 0.74210(7) 0.21220(11)
O2_2 O 0.95299(12) 0.73367(5) 0.24557(7)
O6_2 O 0.90751(12) 0.72863(5) 0.18011(7)
H77_2 H 0.9839 0.6129 0.1522
C97_2 C 0.9731(2) 0.64860(8) 0.21110(12)
O9_2 O 0.91724(13) 0.65452(6) 0.17948(8)
O13_2 O 0.98146(12) 0.66079(6) 0.24395(8)
O19_2 O 0.95565(17) 0.68946(8) 0.31457(8)
O20_2 O 0.7813(2) 0.68743(8) 0.11493(9)
H101_2 H 0.94257 0.712412 0.324431
H102_2 H 0.937469 0.668183 0.324654
H103_2 H 0.734193 0.702051 0.106509
H104_2 H 0.814626 0.697863 0.103389
C1_3 C 0.32452(16) 0.01154(7) 0.69015(8)
H1_3 H 0.2843 0.0293 0.6758
H2_3 H 0.3524 0.0059 0.6740
N1_3 N 0.37552(13) 0.02745(5) 0.72652(6)
C5_3 C 0.47767(16) 0.02951(6) 0.77975(8)
C9_3 C 0.42690(16) 0.05650(6) 0.78259(8)
C13_3 C 0.36301(18) 0.05438(6) 0.74784(9)
C17_3 C 0.55511(17) 0.01997(7) 0.80778(9)
H9_3 H 0.5902 0.0393 0.8079
H10_3 H 0.5560 0.0175 0.8338
C21_3 C 0.29215(19) 0.07629(8) 0.73191(11)
H21_3 H 0.2522 0.0632 0.7362
H22_3 H 0.3009 0.1001 0.7450
H23_3 H 0.2767 0.0800 0.7040
C25_3 C 0.43876(17) 0.08101(6) 0.81567(8)
C29_3 C 0.51011(17) 0.09397(6) 0.83998(8)
H33_3 H 0.5527 0.0868 0.8353
C33_3 C 0.52017(18) 0.11703(6) 0.87084(8)
H37_3 H 0.5694 0.1251 0.8874
C37_3 C 0.45838(18) 0.12842(6) 0.87753(8)
C41_3 C 0.38622(19) 0.11550(7) 0.85369(9)
H41_3 H 0.3436 0.1231 0.8581
C45_3 C 0.37748(19) 0.09167(7) 0.82387(10)
H45_3 H 0.3287 0.0822 0.8085
C49_3 C 0.4679(2) 0.15536(6) 0.90966(9)
H61_3 H 0.1426 0.0017 0.6477
H63_3 H 0.1750 0.0229 0.6884
C4_3 C 0.60716(17) 0.58096(7) 0.28151(8)
H7_3 H 0.6169 0.5547 0.2791
H8_3 H 0.6565 0.5933 0.2948
N4_3 N 0.56351(15) 0.58482(6) 0.30501(7)
N8_3 N 0.49744(15) 0.56591(6) 0.29386(7)
C8_3 C 0.4752(2) 0.57140(8) 0.32265(9)
C12_3 C 0.5269(2) 0.59308(8) 0.35200(9)
C16_3 C 0.5838(2) 0.60135(8) 0.34002(9)
C20_3 C 0.4034(2) 0.55287(11) 0.31998(12)
H18_3 H 0.3912 0.5326 0.3014
H19_3 H 0.4108 0.5434 0.3456
H20_3 H 0.3619 0.5706 0.3112
C24_3 C 0.6507(3) 0.62410(11) 0.35734(11)
H30_3 H 0.6498 0.6431 0.3388
H31_3 H 0.6516 0.6356 0.3810
H32_3 H 0.6959 0.6090 0.3639
C28_3 C 0.5226(2) 0.60568(9) 0.38838(11)
C32_3 C 0.4554(3) 0.61833(11) 0.38840(12)
H36_3 H 0.4105 0.6169 0.3653
C36_3 C 0.4526(3) 0.63321(10) 0.42210(12)
H40_3 H 0.4058 0.6411 0.4218
C40_3 C 0.5181(2) 0.63632(9) 0.45573(11)
C44_3 C 0.5864(3) 0.62268(9) 0.45617(11)
H44_3 H 0.6314 0.6242 0.4792
C48_3 C 0.5877(3) 0.60724(10) 0.42321(11)
H48_3 H 0.6336 0.5974 0.4241
C52_3 C 0.5178(3) 0.65748(8) 0.48978(11)
N12_3 N 0.56838(13) 0.59636(5) 0.24318(6)
N16_3 N 0.50602(13) 0.57870(5) 0.21705(6)
C56_3 C 0.48136(15) 0.59922(6) 0.18463(8)
C60_3 C 0.53004(16) 0.62966(6) 0.19034(8)
C64_3 C 0.58375(16) 0.62750(6) 0.22807(8)
C68_3 C 0.41301(17) 0.58902(7) 0.15004(9)
H58_3 H 0.3703 0.6040 0.1490
H59_3 H 0.4218 0.5932 0.1266
H60_3 H 0.4016 0.5631 0.1516
C72_3 C 0.64618(18) 0.65273(7) 0.25101(9)
H70_3 H 0.6941 0.6393 0.2611
H71_3 H 0.6487 0.6727 0.2343
H72_3 H 0.6369 0.6627 0.2727
C76_3 C 0.52468(16) 0.65822(6) 0.16164(8)
C80_3 C 0.45717(16) 0.67651(6) 0.14062(9)
H76_3 H 0.4126 0.6699 0.1437
C84_3 C 0.45501(17) 0.70450(6) 0.11499(9)
H80_3 H 0.4088 0.7167 0.1005
C88_3 C 0.51983(16) 0.71462(6) 0.11061(8)
C92_3 C 0.58757(17) 0.69605(6) 0.13095(9)
H84_3 H 0.6319 0.7027 0.1276
C96_3 C 0.58965(16) 0.66789(6) 0.15602(9)
H88_3 H 0.6355 0.6550 0.1695
C100_3 C 0.51893(17) 0.74607(6) 0.08472(8)
O12_3 O 0.58129(12) 0.75493(5) 0.08420(6)
O15_3 O 0.57295(16) 0.75968(6) 0.01058(7)
O16_3 O 0.45676(11) 0.76145(4) 0.06615(6)
O17_3 O 0.71139(16) 0.79349(8) 0.07271(10)
H89_3 H 0.7329 0.7967 0.0544
C101_3 C 0.7575(6) 0.7882(3) 0.1098(3)
H90_3 H 0.7276 0.7735 0.1205
H91_3 H 0.7972 0.7717 0.1091
C102_3 C 0.8026(5) 0.8177(2) 0.1440(3)
H92_3 H 0.7742 0.8220 0.1598
H93_3 H 0.8527 0.8080 0.1604
H94_3 H 0.8082 0.8407 0.1322
O18_3 O 0.32619(16) 0.80324(7) 0.00710(8)
C103_3 C 0.2967(7) 0.7937(3) 0.0282(3)
H96_3 H 0.3284 0.7728 0.0424
H97_3 H 0.3097 0.8137 0.0475
C104_3 C 0.2165(12) 0.7822(5) 0.0237(6)
H98_3 H 0.2133 0.7555 0.0240
H99_3 H 0.2067 0.7923 0.0452
C2_3 C 0.32866(15) 0.64410(7) 0.66910(9)
H3_3 H 0.3076 0.6564 0.6435
H4_3 H 0.3299 0.6175 0.6645
C3_3 C 0.51210(16) 0.56613(6) 0.82053(9)
H5_3 H 0.5502 0.5524 0.8423
H6_3 H 0.5351 0.5731 0.8025
Cu6_3 Cu 0.394987(19) 0.607817(7) 0.750778(11)
N2_3 N 0.28008(13) 0.65105(6) 0.68903(8)
N3_3 N 0.44751(13) 0.54320(5) 0.80059(7)
N6_3 N 0.28859(14) 0.62974(6) 0.72021(8)
N7_3 N 0.39493(13) 0.55469(5) 0.76572(7)
C6_3 C 0.23411(18) 0.64029(8) 0.73086(11)
C7_3 C 0.34022(16) 0.52948(6) 0.75458(9)
C10_3 C 0.18955(18) 0.66813(7) 0.70645(11)
C11_3 C 0.35878(17) 0.50152(6) 0.78299(9)
C14_3 C 0.22136(17) 0.67468(7) 0.67993(10)
C15_3 C 0.42829(17) 0.51123(6) 0.81193(9)
H11_3 H 0.5703 0.9968 0.8001
C18_3 C 0.2255(2) 0.62119(11) 0.76447(14)
H12_3 H 0.2455 0.6369 0.7875
H13_3 H 0.1719 0.6163 0.7576
H14_3 H 0.2534 0.5981 0.7700
C19_3 C 0.27245(19) 0.53394(7) 0.71741(11)
H15_3 H 0.2761 0.5174 0.6978
H16_3 H 0.2270 0.5281 0.7215
H17_3 H 0.2696 0.5592 0.7084
C22_3 C 0.2027(2) 0.70190(11) 0.64787(13)
H24_3 H 0.1792 0.6894 0.6228
H25_3 H 0.1676 0.7201 0.6500
H26_3 H 0.2490 0.7141 0.6498
C23_3 C 0.47808(19) 0.49250(7) 0.84803(10)
H27_3 H 0.4674 0.5014 0.8697
H28_3 H 0.4690 0.4661 0.8451
H29_3 H 0.5309 0.4975 0.8532
C26_3 C 0.1249(2) 0.68758(8) 0.70819(12)
C27_3 C 0.31513(17) 0.46824(6) 0.78261(9)
C30_3 C 0.1254(2) 0.69848(11) 0.74381(13)
H34_3 H 0.1658 0.6912 0.7672
C31_3 C 0.26805(17) 0.45145(6) 0.74758(10)
H35_3 H 0.2625 0.4620 0.7236
C34_3 C 0.0675(2) 0.71985(11) 0.74545(13)
H38_3 H 0.0683 0.7269 0.7698
C35_3 C 0.22954(17) 0.41957(7) 0.74776(10)
H39_3 H 0.1970 0.4087 0.7239
C38_3 C 0.00800(19) 0.73099(8) 0.71099(11)
C39_3 C 0.23850(16) 0.40344(6) 0.78304(10)
C42_3 C 0.00575(19) 0.71871(9) 0.67580(11)
C43_3 C 0.28291(19) 0.42000(7) 0.81708(11)
H43_3 H 0.2886 0.4091 0.8409
C46_3 C 0.0626(2) 0.69698(9) 0.67482(12)
H46_3 H 0.0591 0.6881 0.6505
C47_3 C 0.32016(19) 0.45270(7) 0.81763(10)
H47_3 H 0.3489 0.4645 0.8416
C51_3 C 0.19927(17) 0.36808(6) 0.78323(11)
O3_2 O 0.15159(12) 0.35645(5) 0.75080(7)
O7_2 O 0.21788(11) 0.35267(5) 0.81567(7)
N9_3 N 0.29097(13) 0.97841(5) 0.69694(7)
N10_3 N 0.40465(12) 0.65703(5) 0.69125(7)
N11_3 N 0.49067(15) 0.59899(5) 0.83542(7)
N14_3 N 0.44698(13) 0.63987(5) 0.72494(7)
N15_3 N 0.44359(16) 0.62300(5) 0.80864(8)
C53_3 C 0.29330(18) 0.92328(7) 0.71675(11)
C54_3 C 0.51416(15) 0.65628(6) 0.73825(8)
C55_3 C 0.4362(2) 0.65075(7) 0.82977(10)
C57_3 C 0.21873(18) 0.93597(8) 0.70441(11)
C58_3 C 0.51476(16) 0.68354(6) 0.71222(9)
C59_3 C 0.4772(2) 0.64433(8) 0.86926(11)
C61_3 C 0.21969(17) 0.97142(7) 0.69207(10)
C62_3 C 0.44441(16) 0.68346(6) 0.68252(9)
C63_3 C 0.5123(2) 0.61076(7) 0.87228(10)
C65_3 C 0.3257(2) 0.88596(8) 0.73176(14)
H49_3 H 0.3370 0.8843 0.7595
H50_3 H 0.2890 0.8671 0.7176
H51_3 H 0.3722 0.8824 0.7279
C66_3 C 0.57710(17) 0.64428(8) 0.77566(9)
H52_3 H 0.5773 0.6176 0.7774
H53_3 H 0.6255 0.6526 0.7763
H54_3 H 0.5695 0.6549 0.7976
C67_3 C 0.3892(3) 0.68337(8) 0.80968(12)
H55_3 H 0.3379 0.6804 0.8083
H56_3 H 0.4119 0.7056 0.8243
H57_3 H 0.3871 0.6853 0.7834
C69_3 C 0.1573(2) 0.99922(10) 0.67573(14)
H62_3 H 0.1136 0.9912 0.6804
C70_3 C 0.40971(18) 0.70668(8) 0.64619(10)
H64_3 H 0.3608 0.7161 0.6438
H65_3 H 0.4434 0.7272 0.6479
H66_3 H 0.4025 0.6918 0.6234
C71_3 C 0.5625(3) 0.58924(9) 0.90665(11)
H67_3 H 0.6142 0.5898 0.9084
H68_3 H 0.5615 0.5998 0.9303
H69_3 H 0.5449 0.5639 0.9039
C73_3 C 0.15443(19) 0.91548(8) 0.70566(12)
C74_3 C 0.58000(16) 0.70623(6) 0.71449(9)
C75_3 C 0.4852(3) 0.66942(8) 0.90192(12)
C77_3 C 0.0866(2) 0.91130(9) 0.67326(13)
H73_3 H 0.0800 0.9229 0.6496
C78_3 C 0.59723(16) 0.70944(6) 0.68203(9)
H74_3 H 0.5671 0.6970 0.6587
C79_3 C 0.4225(3) 0.68458(10) 0.90445(12)
H75_3 H 0.3738 0.6775 0.8863
C81_3 C 0.0289(2) 0.89059(9) 0.67496(12)
C82_3 C 0.65723(15) 0.73045(6) 0.68339(8)
H78_3 H 0.6671 0.7327 0.6608
C83_3 C 0.4289(3) 0.71035(10) 0.93329(13)
H79_3 H 0.3850 0.7209 0.9343
C85_3 C 0.03583(19) 0.87483(8) 0.70972(12)
C86_3 C 0.70265(15) 0.74807(6) 0.71676(8)
C87_3 C 0.4993(2) 0.72015(9) 0.96003(11)
C89_3 C 0.1015(2) 0.87928(10) 0.74229(12)
H81_3 H 0.1065 0.8690 0.7663
C90_3 C 0.68790(16) 0.74487(7) 0.75002(9)
H82_3 H 0.7193 0.7569 0.7734
C91_3 C 0.5637(3) 0.70431(10) 0.95875(14)
H83_3 H 0.6126 0.7104 0.9776
C93_3 C 0.1610(2) 0.89899(11) 0.73995(13)
H85_3 H 0.2070 0.9012 0.7624
C94_3 C 0.62684(17) 0.72397(7) 0.74850(9)
H86_3 H 0.6169 0.7218 0.7711
C95_3 C 0.5547(3) 0.67931(10) 0.92918(13)
H87_3 H 0.5984 0.6688 0.9279
C98_3 C 0.76645(16) 0.77114(6) 0.71732(9)
C99_3 C 0.5072(3) 0.74854(8) 0.98995(11)
O10_2 O 0.76878(10) 0.77709(4) 0.68474(6)
O11_3 O 0.44640(15) 0.75978(6) 0.99155(7)
O14_2 O 0.81405(11) 0.78286(4) 0.74982(6)
H95_3 H 0.2965 0.8125 0.9819
H100_3 H 0.1789 0.7916 0.9990
Cu7 Cu 0.903587(18) 0.810715(8) 0.752968(11)
Cu8_2 Cu 0.096413(18) 0.310715(8) 0.747032(11)
Cu9 Cu 0.837990(18) 0.811243(7) 0.676609(11)
Cu10_2 Cu 0.162010(18) 0.311243(7) 0.823391(11)
H42_3 H 0.9647 0.7253 0.6523
C50_3 C 0.95108(19) 0.75790(7) 0.71220(11)
O2_3 O 0.95299(12) 0.76633(5) 0.74557(7)
O6_3 O 0.90751(12) 0.77137(5) 0.68011(7)
H77_3 H 0.9839 0.8871 0.6522
C97_3 C 0.9731(2) 0.85140(8) 0.71110(12)
O9_3 O 0.91724(13) 0.84548(6) 0.67948(8)
O13_3 O 0.98146(12) 0.83921(6) 0.74395(8)
O19_3 O 0.95565(17) 0.81054(8) 0.81457(8)
O20_3 O 0.7813(2) 0.81257(8) 0.61493(9)
O22_2 O 0.84841(12) 0.85645(5) 0.74920(7)
O25_2 O 0.78212(11) 0.85267(5) 0.68433(7)
H101_3 H 0.94257 0.787588 0.824431
H102_3 H 0.937469 0.831817 0.824654
H103_3 H 0.734193 0.797949 0.606509
H104_3 H 0.814626 0.802137 0.603389
H42_4 H 0.0353 0.2253 0.8477
C50_4 C 0.04892(19) 0.25790(7) 0.78780(11)
O2_4 O 0.04701(12) 0.26633(5) 0.75443(7)
O6_4 O 0.09249(12) 0.27137(5) 0.81989(7)
H77_4 H 0.0161 0.3871 0.8478
C97_4 C 0.0269(2) 0.35140(8) 0.78890(12)
O9_4 O 0.08276(13) 0.34548(6) 0.82052(8)
O13_4 O 0.01854(12) 0.33921(6) 0.75605(8)
O19_4 O 0.04435(17) 0.31054(8) 0.68543(8)
O20_4 O 0.2187(2) 0.31257(8) 0.88507(9)
O27_2 O 0.23122(10) 0.27709(4) 0.81526(6)
O28_2 O 0.18595(11) 0.28286(4) 0.75018(6)
H101_4 H 0.0574297 0.287588 0.675569
H102_4 H 0.0625306 0.331817 0.675346
H103_4 H 0.265807 0.297949 0.893491
H104_4 H 0.185374 0.302137 0.896611
C1_4 C 0.67548(16) 0.51154(7) 0.80985(8)
H1_4 H 0.7157 0.5293 0.8242
H2_4 H 0.6476 0.5059 0.8260
C2_4 C 0.67134(15) 0.14410(7) 0.83090(9)
H3_4 H 0.6924 0.1564 0.8565
H4_4 H 0.6701 0.1175 0.8355
C3_4 C 0.48790(16) 0.06613(6) 0.67947(9)
H5_4 H 0.4498 0.0524 0.6577
H6_4 H 0.4649 0.0731 0.6975
C4_4 C 0.39284(17) 0.08096(7) 0.21849(8)
H7_4 H 0.3831 0.0547 0.2209
H8_4 H 0.3435 0.0933 0.2052
Cu6_4 Cu 0.605013(19) 0.107817(7) 0.749222(11)
N1_4 N 0.62448(13) 0.52745(5) 0.77348(6)
N2_4 N 0.71992(13) 0.15105(6) 0.81097(8)
N3_4 N 0.55249(13) 0.04320(5) 0.69941(7)
N4_4 N 0.43649(15) 0.08482(6) 0.19499(7)
N6_4 N 0.71141(14) 0.12974(6) 0.77979(8)
N7_4 N 0.60507(13) 0.05469(5) 0.73428(7)
N8_4 N 0.50256(15) 0.06591(6) 0.20614(7)
C5_4 C 0.52233(16) 0.52951(6) 0.72025(8)
C6_4 C 0.76589(18) 0.14029(8) 0.76914(11)
C7_4 C 0.65978(16) 0.02948(6) 0.74542(9)
C8_4 C 0.5248(2) 0.07140(8) 0.17735(9)
C9_4 C 0.57310(16) 0.55650(6) 0.71741(8)
C10_4 C 0.81045(18) 0.16813(7) 0.79355(11)
C11_4 C 0.64122(17) 0.00152(6) 0.71701(9)
C12_4 C 0.4731(2) 0.09308(8) 0.14800(9)
C13_4 C 0.63699(18) 0.55438(6) 0.75216(9)
C14_4 C 0.77864(17) 0.17468(7) 0.82007(10)
C15_4 C 0.57171(17) 0.01123(6) 0.68807(9)
C16_4 C 0.4162(2) 0.10135(8) 0.15998(9)
C17_4 C 0.44489(17) 0.51997(7) 0.69222(9)
H9_4 H 0.4098 0.5393 0.6921
H10_4 H 0.4440 0.5175 0.6662
H11_4 H 0.4297 0.4968 0.6999
C18_4 C 0.7745(2) 0.12119(11) 0.73553(14)
H12_4 H 0.7545 0.1369 0.7125
H13_4 H 0.8281 0.1163 0.7424
H14_4 H 0.7466 0.0981 0.7300
C19_4 C 0.72755(19) 0.03394(7) 0.78259(11)
H15_4 H 0.7239 0.0174 0.8022
H16_4 H 0.7730 0.0281 0.7785
H17_4 H 0.7304 0.0592 0.7916
C20_4 C 0.5966(2) 0.05287(11) 0.18002(12)
H18_4 H 0.6088 0.0326 0.1986
H19_4 H 0.5892 0.0434 0.1544
H20_4 H 0.6381 0.0706 0.1888
C21_4 C 0.70785(19) 0.57629(8) 0.76809(11)
H21_4 H 0.7478 0.5632 0.7638
H22_4 H 0.6991 0.6001 0.7550
H23_4 H 0.7233 0.5800 0.7960
C22_4 C 0.7973(2) 0.20190(11) 0.85213(13)
H24_4 H 0.8208 0.1894 0.8772
H25_4 H 0.8324 0.2201 0.8500
H26_4 H 0.7510 0.2141 0.8502
H27_4 H 0.5326 0.0014 0.6303
C24_4 C 0.3493(3) 0.12410(11) 0.14266(11)
H30_4 H 0.3502 0.1431 0.1612
H31_4 H 0.3484 0.1356 0.1190
H32_4 H 0.3041 0.1090 0.1361
C25_4 C 0.56124(17) 0.58101(6) 0.68433(8)
C26_4 C 0.8751(2) 0.18758(8) 0.79181(12)
C28_4 C 0.4774(2) 0.10568(9) 0.11162(11)
C29_4 C 0.48989(17) 0.59397(6) 0.66002(8)
H33_4 H 0.4473 0.5868 0.6647
C30_4 C 0.8746(2) 0.19848(11) 0.75619(13)
H34_4 H 0.8342 0.1912 0.7328
C32_4 C 0.5446(3) 0.11833(11) 0.11160(12)
H36_4 H 0.5895 0.1169 0.1347
C33_4 C 0.47983(18) 0.61703(6) 0.62916(8)
H37_4 H 0.4306 0.6251 0.6126
C34_4 C 0.9325(2) 0.21985(11) 0.75455(13)
H38_4 H 0.9317 0.2269 0.7302
C36_4 C 0.5474(3) 0.13321(10) 0.07790(12)
H40_4 H 0.5942 0.1411 0.0782
C37_4 C 0.54162(18) 0.62842(6) 0.62247(8)
C38_4 C 0.99200(19) 0.23099(8) 0.78901(11)
C40_4 C 0.4819(2) 0.13632(9) 0.04427(11)
C41_4 C 0.61378(19) 0.61550(7) 0.64631(9)
H41_4 H 0.6564 0.6231 0.6419
C42_4 C 0.99425(19) 0.21871(9) 0.82420(11)
C44_4 C 0.4136(3) 0.12268(9) 0.04383(11)
H44_4 H 0.3686 0.1242 0.0208
C45_4 C 0.62252(19) 0.59167(7) 0.67613(10)
H45_4 H 0.6713 0.5822 0.6915
C46_4 C 0.9374(2) 0.19698(9) 0.82518(12)
H46_4 H 0.9409 0.1881 0.8495
C48_4 C 0.4123(3) 0.10724(10) 0.07679(11)
H48_4 H 0.3664 0.0974 0.0759
C49_4 C 0.5321(2) 0.65536(6) 0.59034(9)
C52_4 C 0.4822(3) 0.15748(8) 0.01022(11)
N9_4 N 0.70903(13) 0.47841(5) 0.80306(7)
N10_4 N 0.59535(12) 0.15703(5) 0.80875(7)
N11_4 N 0.50933(15) 0.09899(5) 0.66458(7)
N12_4 N 0.43162(13) 0.09636(5) 0.25682(6)
N14_4 N 0.55302(13) 0.13987(5) 0.77506(7)
N15_4 N 0.55641(16) 0.12300(5) 0.69136(8)
N16_4 N 0.49398(13) 0.07870(5) 0.28295(6)
C53_4 C 0.70670(18) 0.42328(7) 0.78325(11)
C54_4 C 0.48584(15) 0.15628(6) 0.76175(8)
C55_4 C 0.5638(2) 0.15075(7) 0.67023(10)
C56_4 C 0.51864(15) 0.09922(6) 0.31537(8)
C57_4 C 0.78127(18) 0.43597(8) 0.79559(11)
C58_4 C 0.48524(16) 0.18354(6) 0.78778(9)
C59_4 C 0.5228(2) 0.14433(8) 0.63074(11)
C60_4 C 0.46996(16) 0.12966(6) 0.30966(8)
C61_4 C 0.78031(17) 0.47142(7) 0.80793(10)
C62_4 C 0.55559(16) 0.18346(6) 0.81748(9)
C63_4 C 0.4877(2) 0.11076(7) 0.62772(10)
C64_4 C 0.41625(16) 0.12750(6) 0.27193(8)
C65_4 C 0.6743(2) 0.38596(8) 0.76824(14)
H49_4 H 0.6630 0.3843 0.7405
H50_4 H 0.7110 0.3671 0.7824
H51_4 H 0.6278 0.3824 0.7721
C66_4 C 0.42290(17) 0.14428(8) 0.72434(9)
H52_4 H 0.4227 0.1176 0.7226
H53_4 H 0.3745 0.1526 0.7237
H54_4 H 0.4305 0.1549 0.7024
C67_4 C 0.6108(3) 0.18337(8) 0.69032(12)
H55_4 H 0.6621 0.1804 0.6917
H56_4 H 0.5881 0.2056 0.6757
H57_4 H 0.6129 0.1853 0.7166
C68_4 C 0.58699(17) 0.08902(7) 0.34996(9)
H58_4 H 0.6297 0.1040 0.3510
H59_4 H 0.5782 0.0932 0.3734
H60_4 H 0.5984 0.0631 0.3484
C69_4 C 0.8427(2) 0.49922(10) 0.82427(14)
H61_4 H 0.8574 0.5017 0.8523
H62_4 H 0.8864 0.4912 0.8196
H63_4 H 0.8250 0.5229 0.8116
C70_4 C 0.59029(18) 0.20668(8) 0.85381(10)
H64_4 H 0.6392 0.2161 0.8562
H65_4 H 0.5566 0.2272 0.8521
H66_4 H 0.5975 0.1918 0.8766
C71_4 C 0.4375(3) 0.08924(9) 0.59335(11)
H67_4 H 0.3858 0.0898 0.5916
H68_4 H 0.4385 0.0998 0.5697
H69_4 H 0.4551 0.0639 0.5961
C72_4 C 0.35382(18) 0.15273(7) 0.24899(9)
H70_4 H 0.3059 0.1393 0.2389
H71_4 H 0.3513 0.1727 0.2657
H72_4 H 0.3631 0.1627 0.2273
C73_4 C 0.84557(19) 0.41548(8) 0.79434(12)
C74_4 C 0.42000(16) 0.20623(6) 0.78551(9)
C75_4 C 0.5148(3) 0.16942(8) 0.59808(12)
C76_4 C 0.47532(16) 0.15822(6) 0.33836(8)
C77_4 C 0.9134(2) 0.41130(9) 0.82674(13)
H73_4 H 0.9200 0.4229 0.8504
C78_4 C 0.40277(16) 0.20944(6) 0.81797(9)
H74_4 H 0.4329 0.1970 0.8413
C79_4 C 0.5775(3) 0.18458(10) 0.59555(12)
H75_4 H 0.6262 0.1775 0.6137
C80_4 C 0.54283(16) 0.17651(6) 0.35938(9)
H76_4 H 0.5874 0.1699 0.3563
C81_4 C 0.9711(2) 0.39059(9) 0.82504(12)
C82_4 C 0.34277(15) 0.23045(6) 0.81661(8)
H78_4 H 0.3329 0.2327 0.8392
C83_4 C 0.5711(3) 0.21035(10) 0.56671(13)
H79_4 H 0.6150 0.2209 0.5657
C84_4 C 0.54499(17) 0.20450(6) 0.38501(9)
H80_4 H 0.5912 0.2167 0.3995
C85_4 C 0.96417(19) 0.37483(8) 0.79028(12)
C86_4 C 0.29735(15) 0.24807(6) 0.78324(8)
C87_4 C 0.5007(2) 0.22015(9) 0.53997(11)
C88_4 C 0.48017(16) 0.21462(6) 0.38939(8)
C89_4 C 0.8985(2) 0.37928(10) 0.75771(12)
H81_4 H 0.8935 0.3690 0.7337
C90_4 C 0.31210(16) 0.24487(7) 0.74998(9)
H82_4 H 0.2807 0.2569 0.7266
C91_4 C 0.4363(3) 0.20431(10) 0.54125(14)
H83_4 H 0.3874 0.2104 0.5224
C92_4 C 0.41243(17) 0.19605(6) 0.36905(9)
H84_4 H 0.3681 0.2027 0.3724
C93_4 C 0.8390(2) 0.39899(11) 0.76005(13)
H85_4 H 0.7930 0.4012 0.7376
C94_4 C 0.37316(17) 0.22397(7) 0.75150(9)
H86_4 H 0.3831 0.2218 0.7289
C95_4 C 0.4453(3) 0.17931(10) 0.57082(13)
H87_4 H 0.4016 0.1688 0.5721
C96_4 C 0.41035(16) 0.16789(6) 0.34398(9)
H88_4 H 0.3645 0.1550 0.3305
C98_4 C 0.23355(16) 0.27114(6) 0.78268(9)
C99_4 C 0.4928(3) 0.24854(8) 0.51005(11)
C100_4 C 0.48107(17) 0.24607(6) 0.41528(8)
O11_4 O 0.55360(15) 0.25978(6) 0.50845(7)
O12_4 O 0.41871(12) 0.25493(5) 0.41580(6)
O15_4 O 0.42705(16) 0.25968(6) 0.48942(7)
O16_4 O 0.54324(11) 0.26145(4) 0.43385(6)
O17_4 O 0.28861(16) 0.29349(8) 0.42729(10)
H89_4 H 0.2671 0.2967 0.4456
C101_4 C 0.2425(6) 0.2882(3) 0.3902(3)
H90_4 H 0.2724 0.2735 0.3795
H91_4 H 0.2028 0.2717 0.3909
C102_4 C 0.1974(5) 0.3177(2) 0.3560(3)
H92_4 H 0.2258 0.3220 0.3402
H93_4 H 0.1473 0.3080 0.3396
H94_4 H 0.1918 0.3407 0.3678
O18_4 O 0.67381(16) 0.30324(7) 0.49290(8)
H95_4 H 0.7035 0.3125 0.5181
C103_4 C 0.7033(7) 0.2937(3) 0.4718(3)
H96_4 H 0.6716 0.2728 0.4576
H97_4 H 0.6903 0.3137 0.4525
C104_4 C 0.7835(12) 0.2822(5) 0.4763(6)
H98_4 H 0.7867 0.2555 0.4760
H99_4 H 0.7933 0.2923 0.4548
H100_4 H 0.8211 0.2916 0.5010
C23_4 C 0.52192(19) 0.99250(7) 0.65197(10)
H28_4 H 0.5310 0.9661 0.6549
H29_4 H 0.4691 0.9975 0.6468
C27_4 C 0.68487(17) 0.96824(6) 0.71739(9)
C31_4 C 0.73195(17) 0.95145(6) 0.75242(10)
H35_4 H 0.7375 0.9620 0.7764
C35_4 C 0.77046(17) 0.91957(7) 0.75224(10)
H39_4 H 0.8030 0.9087 0.7761
C39_4 C 0.76150(16) 0.90344(6) 0.71696(10)
C43_4 C 0.71709(19) 0.92000(7) 0.68292(11)
H43_4 H 0.7114 0.9091 0.6591
C47_4 C 0.67984(19) 0.95270(7) 0.68237(10)
H47_4 H 0.6511 0.9645 0.6584
C51_4 C 0.80073(17) 0.86808(6) 0.71677(11)
loop_
_geom_bond_atom_site_label_1
_geom_bond_atom_site_label_2
_geom_bond_site_symmetry_1
_geom_bond_site_symmetry_2
Cu1 Cu2 1_555 1_555
Cu2 O6 1_555 1_555
O2 Cu1 1_555 1_555
O6 C50 1_555 1_555
O9 Cu2 1_555 1_555
O13 Cu1 1_555 1_555
O19 Cu1 1_555 1_555
O20 Cu2 1_555 1_555
O22 Cu1 1_555 1_555
O25 Cu2 1_555 1_555
O27 Cu2 1_555 1_555
O28 Cu1 1_555 1_555
C50 O2 1_555 1_555
C97 O9 1_555 1_555
C97 O13 1_555 1_555
O19 H101 1_555 1_555
O19 H102 1_555 1_555
O20 H103 1_555 1_555
O20 H104 1_555 1_555
C2 H3 1_555 1_555
H4 C2 1_555 1_555
C3 H5 1_555 1_555
H6 C3 1_555 1_555
Cu6 N6 1_555 1_555
N2 C2 1_555 1_555
N3 C3 1_555 1_555
N6 N2 1_555 1_555
N7 Cu6 1_555 1_555
C6 N6 1_555 1_555
C7 N7 1_555 1_555
C10 C6 1_555 1_555
C11 C7 1_555 1_555
C14 N2 1_555 1_555
C15 N3 1_555 1_555
C18 C6 1_555 1_555
H12 C18 1_555 1_555
H13 C18 1_555 1_555
H14 C18 1_555 1_555
C19 C7 1_555 1_555
H15 C19 1_555 1_555
H16 C19 1_555 1_555
H17 C19 1_555 1_555
C22 C14 1_555 1_555
H24 C22 1_555 1_555
H25 C22 1_555 1_555
H26 C22 1_555 1_555
C23 C15 1_555 1_555
H27 C23 1_555 1_555
H28 C23 1_555 1_555
H29 C23 1_555 1_555
C26 C10 1_555 1_555
C27 C11 1_555 1_555
C30 C26 1_555 1_555
H34 C30 1_555 1_555
C31 C27 1_555 1_555
H35 C31 1_555 1_555
C34 C30 1_555 1_555
H38 C34 1_555 1_555
C35 C31 1_555 1_555
H39 C35 1_555 1_555
C38 C34 1_555 1_555
C39 C35 1_555 1_555
C42 C38 1_555 1_555
C43 C39 1_555 1_555
H43 C43 1_555 1_555
C46 C26 1_555 1_555
H46 C46 1_555 1_555
C47 C27 1_555 1_555
H47 C47 1_555 1_555
C51 C39 1_555 1_555
O3 C51 1_555 1_555
O7 C51 1_555 1_555
N10 C2 1_555 1_555
N11 C3 1_555 1_555
N13 N9 1_555 1_555
N14 Cu6 1_555 1_555
N15 Cu6 1_555 1_555
C53 N13 1_555 1_555
C54 N14 1_555 1_555
C55 N15 1_555 1_555
C57 C53 1_555 1_555
C58 C54 1_555 1_555
C59 C55 1_555 1_555
C61 N9 1_555 1_555
C62 N10 1_555 1_555
C63 N11 1_555 1_555
C65 C53 1_555 1_555
H49 C65 1_555 1_555
H50 C65 1_555 1_555
H51 C65 1_555 1_555
C66 C54 1_555 1_555
H52 C66 1_555 1_555
H53 C66 1_555 1_555
H54 C66 1_555 1_555
C67 C55 1_555 1_555
H55 C67 1_555 1_555
H56 C67 1_555 1_555
H57 C67 1_555 1_555
C69 C61 1_555 1_555
H62 C69 1_555 1_555
C70 C62 1_555 1_555
H64 C70 1_555 1_555
H65 C70 1_555 1_555
H66 C70 1_555 1_555
C71 C63 1_555 1_555
H67 C71 1_555 1_555
H68 C71 1_555 1_555
H69 C71 1_555 1_555
C73 C57 1_555 1_555
C74 C58 1_555 1_555
C75 C59 1_555 1_555
C77 C73 1_555 1_555
H73 C77 1_555 1_555
C78 C74 1_555 1_555
H74 C78 1_555 1_555
C79 C75 1_555 1_555
H75 C79 1_555 1_555
C81 C77 1_555 1_555
C82 C78 1_555 1_555
H78 C82 1_555 1_555
C83 C79 1_555 1_555
H79 C83 1_555 1_555
C85 C81 1_555 1_555
C86 C82 1_555 1_555
C87 C83 1_555 1_555
C89 C85 1_555 1_555
H81 C89 1_555 1_555
C90 C86 1_555 1_555
H82 C90 1_555 1_555
C91 C87 1_555 1_555
H83 C91 1_555 1_555
C93 C73 1_555 1_555
H85 C93 1_555 1_555
C94 C74 1_555 1_555
H86 C94 1_555 1_555
C95 C75 1_555 1_555
H87 C95 1_555 1_555
C98 C86 1_555 1_555
C99 C87 1_555 1_555
O27 C98 1_555 1_555
O11 C99 1_555 1_555
O28 C98 1_555 1_555
Cu8 O3 1_555 1_555
Cu10 O7 1_555 1_555
N3 N7 1_555 1_555
C10 C14 1_555 1_555
C11 C15 1_555 1_555
C42 C46 1_555 1_555
C43 C47 1_555 1_555
N10 N14 1_555 1_555
N11 N15 1_555 1_555
N13 Cu15 1_555 1_555
C57 C61 1_555 1_555
C58 C62 1_555 1_555
C59 C63 1_555 1_555
C89 C93 1_555 1_555
C90 C94 1_555 1_555
C91 C95 1_555 1_555
Cu8 Cu10 1_555 1_555
C4 H7 1_555 1_555
H8 C4 1_555 1_555
Cu3 Cu4 1_555 1_555
Cu5 N8 1_555 1_555
N4 C4 1_555 1_555
N8 N4 1_555 1_555
C8 N8 1_555 1_555
C12 C8 1_555 1_555
C16 N4 1_555 1_555
C20 C8 1_555 1_555
H18 C20 1_555 1_555
H19 C20 1_555 1_555
H20 C20 1_555 1_555
C24 C16 1_555 1_555
H30 C24 1_555 1_555
H31 C24 1_555 1_555
H32 C24 1_555 1_555
C28 C12 1_555 1_555
C32 C28 1_555 1_555
H36 C32 1_555 1_555
C36 C32 1_555 1_555
H40 C36 1_555 1_555
C40 C36 1_555 1_555
C44 C40 1_555 1_555
H44 C44 1_555 1_555
C48 C28 1_555 1_555
H48 C48 1_555 1_555
C52 C40 1_555 1_555
O4 C52 1_555 1_555
O8 C52 1_555 1_555
N12 C4 1_555 1_555
N16 Cu5 1_555 1_555
C56 N16 1_555 1_555
C60 C56 1_555 1_555
C64 N12 1_555 1_555
C68 C56 1_555 1_555
H58 C68 1_555 1_555
H59 C68 1_555 1_555
H60 C68 1_555 1_555
C72 C64 1_555 1_555
H70 C72 1_555 1_555
H71 C72 1_555 1_555
H72 C72 1_555 1_555
C76 C60 1_555 1_555
C80 C76 1_555 1_555
H76 C80 1_555 1_555
C84 C80 1_555 1_555
H80 C84 1_555 1_555
C88 C84 1_555 1_555
C92 C88 1_555 1_555
H84 C92 1_555 1_555
C96 C76 1_555 1_555
H88 C96 1_555 1_555
C100 C88 1_555 1_555
O12 Cu3 1_555 1_555
O15 Cu3 1_555 1_555
O16 Cu4 1_555 1_555
O17 Cu3 1_555 1_555
H89 O17 1_555 1_555
C101 O17 1_555 1_555
H90 C101 1_555 1_555
H91 C101 1_555 1_555
C102 C101 1_555 1_555
H92 C102 1_555 1_555
H93 C102 1_555 1_555
H94 C102 1_555 1_555
O18 Cu4 1_555 1_555
C103 O18 1_555 1_555
H96 C103 1_555 1_555
H97 C103 1_555 1_555
C104 C103 1_555 1_555
H98 C104 1_555 1_555
H99 C104 1_555 1_555
Cu12 O4 1_555 1_555
Cu14 O8 1_555 1_555
N17 Cu5 1_555 1_555
O21 Cu3 1_555 1_555
O23 Cu3 1_555 1_555
O24 Cu4 1_555 1_555
N18 Cu5 1_555 1_555
C12 C16 1_555 1_555
C44 C48 1_555 1_555
N12 N16 1_555 1_555
C60 C64 1_555 1_555
C92 C96 1_555 1_555
C100 O12 1_555 1_555
C100 O16 1_555 1_555
Cu12 Cu14 1_555 1_555
C1 H1 1_555 1_555
H2 C1 1_555 1_555
N1 C1 1_555 1_555
N5 N1 1_555 1_555
C5 N5 1_555 1_555
C9 C5 1_555 1_555
C13 N1 1_555 1_555
C17 C5 1_555 1_555
H9 C17 1_555 1_555
H10 C17 1_555 1_555
C21 C13 1_555 1_555
H21 C21 1_555 1_555
H22 C21 1_555 1_555
H23 C21 1_555 1_555
C25 C9 1_555 1_555
C29 C25 1_555 1_555
H33 C29 1_555 1_555
C33 C29 1_555 1_555
H37 C33 1_555 1_555
C37 C33 1_555 1_555
C41 C37 1_555 1_555
H41 C41 1_555 1_555
C45 C25 1_555 1_555
H45 C45 1_555 1_555
C49 C37 1_555 1_555
O1 C49 1_555 1_555
O5 C49 1_555 1_555
Cu11 O1 1_555 1_555
Cu13 O5 1_555 1_555
C9 C13 1_555 1_555
C41 C45 1_555 1_555
Cu11 Cu13 1_555 1_555
H28_2 C23_2 1_555 1_555
H29_2 C23_2 1_555 1_555
C31_2 C27_2 1_555 1_555
H35_2 C31_2 1_555 1_555
C35_2 C31_2 1_555 1_555
H39_2 C35_2 1_555 1_555
C39_2 C35_2 1_555 1_555
C43_2 C39_2 1_555 1_555
H43_2 C43_2 1_555 1_555
C47_2 C27_2 1_555 1_555
H47_2 C47_2 1_555 1_555
C51_2 C39_2 1_555 1_555
O22 C51_2 1_555 1_555
O25 C51_2 1_555 1_555
C43_2 C47_2 1_555 1_555
Cu11 O4_2 1_555 1_555
C1_2 H1_2 1_555 1_555
H2_2 C1_2 1_555 1_555
C2_2 H3_2 1_555 1_555
H4_2 C2_2 1_555 1_555
C3_2 H5_2 1_555 1_555
H6_2 C3_2 1_555 1_555
C4_2 H7_2 1_555 1_555
H8_2 C4_2 1_555 1_555
Cu3_2 Cu4_2 1_555 1_555
Cu4_2 O11_2 1_555 1_555
Cu5_2 N8_2 1_555 1_555
Cu6_2 N6_2 1_555 1_555
N1_2 C1_2 1_555 1_555
N2_2 C2_2 1_555 1_555
N3_2 C3_2 1_555 1_555
N4_2 C4_2 1_555 1_555
N5_2 N1_2 1_555 1_555
N6_2 N2_2 1_555 1_555
N7_2 Cu6_2 1_555 1_555
N8_2 N4_2 1_555 1_555
C5_2 N5_2 1_555 1_555
C6_2 N6_2 1_555 1_555
C7_2 N7_2 1_555 1_555
C8_2 N8_2 1_555 1_555
C9_2 C5_2 1_555 1_555
C10_2 C6_2 1_555 1_555
C11_2 C7_2 1_555 1_555
C12_2 C8_2 1_555 1_555
C13_2 N1_2 1_555 1_555
C14_2 N2_2 1_555 1_555
C15_2 N3_2 1_555 1_555
C16_2 N4_2 1_555 1_555
C17_2 C5_2 1_555 1_555
H9_2 C17_2 1_555 1_555
H10_2 C17_2 1_555 1_555
H11_2 C17_2 1_555 1_555
C18_2 C6_2 1_555 1_555
H12_2 C18_2 1_555 1_555
H13_2 C18_2 1_555 1_555
H14_2 C18_2 1_555 1_555
C19_2 C7_2 1_555 1_555
H15_2 C19_2 1_555 1_555
H16_2 C19_2 1_555 1_555
H17_2 C19_2 1_555 1_555
C20_2 C8_2 1_555 1_555
H18_2 C20_2 1_555 1_555
H19_2 C20_2 1_555 1_555
H20_2 C20_2 1_555 1_555
C21_2 C13_2 1_555 1_555
H21_2 C21_2 1_555 1_555
H22_2 C21_2 1_555 1_555
H23_2 C21_2 1_555 1_555
C22_2 C14_2 1_555 1_555
H24_2 C22_2 1_555 1_555
H25_2 C22_2 1_555 1_555
H26_2 C22_2 1_555 1_555
C24_2 C16_2 1_555 1_555
H30_2 C24_2 1_555 1_555
H31_2 C24_2 1_555 1_555
H32_2 C24_2 1_555 1_555
C25_2 C9_2 1_555 1_555
C26_2 C10_2 1_555 1_555
C28_2 C12_2 1_555 1_555
C29_2 C25_2 1_555 1_555
H33_2 C29_2 1_555 1_555
C30_2 C26_2 1_555 1_555
H34_2 C30_2 1_555 1_555
C32_2 C28_2 1_555 1_555
H36_2 C32_2 1_555 1_555
C33_2 C29_2 1_555 1_555
H37_2 C33_2 1_555 1_555
C34_2 C30_2 1_555 1_555
H38_2 C34_2 1_555 1_555
C36_2 C32_2 1_555 1_555
H40_2 C36_2 1_555 1_555
C37_2 C33_2 1_555 1_555
C38_2 C34_2 1_555 1_555
C40_2 C36_2 1_555 1_555
C41_2 C37_2 1_555 1_555
H41_2 C41_2 1_555 1_555
C42_2 C38_2 1_555 1_555
C44_2 C40_2 1_555 1_555
H44_2 C44_2 1_555 1_555
C45_2 C25_2 1_555 1_555
H45_2 C45_2 1_555 1_555
C46_2 C26_2 1_555 1_555
H46_2 C46_2 1_555 1_555
C48_2 C28_2 1_555 1_555
H48_2 C48_2 1_555 1_555
C49_2 C37_2 1_555 1_555
C52_2 C40_2 1_555 1_555
O1_2 C49_2 1_555 1_555
O5_2 C49_2 1_555 1_555
O8_2 C52_2 1_555 1_555
N9_2 C1_2 1_555 1_555
N10_2 C2_2 1_555 1_555
N11_2 C3_2 1_555 1_555
N12_2 C4_2 1_555 1_555
N13_2 N9_2 1_555 1_555
N14_2 Cu6_2 1_555 1_555
N15_2 Cu6_2 1_555 1_555
N16_2 Cu5_2 1_555 1_555
C53_2 N13_2 1_555 1_555
C54_2 N14_2 1_555 1_555
C55_2 N15_2 1_555 1_555
C56_2 N16_2 1_555 1_555
C57_2 C53_2 1_555 1_555
C58_2 C54_2 1_555 1_555
C59_2 C55_2 1_555 1_555
C60_2 C56_2 1_555 1_555
C61_2 N9_2 1_555 1_555
C62_2 N10_2 1_555 1_555
C63_2 N11_2 1_555 1_555
C64_2 N12_2 1_555 1_555
C65_2 C53_2 1_555 1_555
H49_2 C65_2 1_555 1_555
H50_2 C65_2 1_555 1_555
H51_2 C65_2 1_555 1_555
C66_2 C54_2 1_555 1_555
H52_2 C66_2 1_555 1_555
H53_2 C66_2 1_555 1_555
H54_2 C66_2 1_555 1_555
C67_2 C55_2 1_555 1_555
H55_2 C67_2 1_555 1_555
H56_2 C67_2 1_555 1_555
H57_2 C67_2 1_555 1_555
C68_2 C56_2 1_555 1_555
H58_2 C68_2 1_555 1_555
H59_2 C68_2 1_555 1_555
H60_2 C68_2 1_555 1_555
C69_2 C61_2 1_555 1_555
H61_2 C69_2 1_555 1_555
H62_2 C69_2 1_555 1_555
H63_2 C69_2 1_555 1_555
C70_2 C62_2 1_555 1_555
H64_2 C70_2 1_555 1_555
H65_2 C70_2 1_555 1_555
H66_2 C70_2 1_555 1_555
C71_2 C63_2 1_555 1_555
H67_2 C71_2 1_555 1_555
H68_2 C71_2 1_555 1_555
H69_2 C71_2 1_555 1_555
C72_2 C64_2 1_555 1_555
H70_2 C72_2 1_555 1_555
H71_2 C72_2 1_555 1_555
H72_2 C72_2 1_555 1_555
C73_2 C57_2 1_555 1_555
C74_2 C58_2 1_555 1_555
C75_2 C59_2 1_555 1_555
C76_2 C60_2 1_555 1_555
C77_2 C73_2 1_555 1_555
H73_2 C77_2 1_555 1_555
C78_2 C74_2 1_555 1_555
H74_2 C78_2 1_555 1_555
C79_2 C75_2 1_555 1_555
H75_2 C79_2 1_555 1_555
C80_2 C76_2 1_555 1_555
H76_2 C80_2 1_555 1_555
C81_2 C77_2 1_555 1_555
C82_2 C78_2 1_555 1_555
H78_2 C82_2 1_555 1_555
C83_2 C79_2 1_555 1_555
H79_2 C83_2 1_555 1_555
C84_2 C80_2 1_555 1_555
H80_2 C84_2 1_555 1_555
C85_2 C81_2 1_555 1_555
C86_2 C82_2 1_555 1_555
C87_2 C83_2 1_555 1_555
C88_2 C84_2 1_555 1_555
C89_2 C85_2 1_555 1_555
H81_2 C89_2 1_555 1_555
C90_2 C86_2 1_555 1_555
H82_2 C90_2 1_555 1_555
C91_2 C87_2 1_555 1_555
H83_2 C91_2 1_555 1_555
C92_2 C88_2 1_555 1_555
H84_2 C92_2 1_555 1_555
C93_2 C73_2 1_555 1_555
H85_2 C93_2 1_555 1_555
C94_2 C74_2 1_555 1_555
H86_2 C94_2 1_555 1_555
C95_2 C75_2 1_555 1_555
H87_2 C95_2 1_555 1_555
C96_2 C76_2 1_555 1_555
H88_2 C96_2 1_555 1_555
C98_2 C86_2 1_555 1_555
C99_2 C87_2 1_555 1_555
C100_2 C88_2 1_555 1_555
O10 C98_2 1_555 1_555
O11_2 C99_2 1_555 1_555
O12_2 Cu3_2 1_555 1_555
O14 C98_2 1_555 1_555
O15_2 Cu3_2 1_555 1_555
O16_2 Cu4_2 1_555 1_555
O17_2 Cu3_2 1_555 1_555
H89_2 O17_2 1_555 1_555
C101_2 O17_2 1_555 1_555
H90_2 C101_2 1_555 1_555
H91_2 C101_2 1_555 1_555
C102_2 C101_2 1_555 1_555
H92_2 C102_2 1_555 1_555
H93_2 C102_2 1_555 1_555
H94_2 C102_2 1_555 1_555
O18_2 Cu4_2 1_555 1_555
H95_2 O18_2 1_555 1_555
C103_2 O18_2 1_555 1_555
H96_2 C103_2 1_555 1_555
H97_2 C103_2 1_555 1_555
C104_2 C103_2 1_555 1_555
H98_2 C104_2 1_555 1_555
H99_2 C104_2 1_555 1_555
H100_2 C104_2 1_555 1_555
Cu8 O14 1_555 1_555
Cu10 O10 1_555 1_555
Cu12 O1_2 1_555 1_555
Cu14 O5_2 1_555 1_555
Cu15_2 N5_2 1_555 1_555
O21_2 Cu3_2 1_555 1_555
O23_2 Cu3_2 1_555 1_555
O24_2 Cu4_2 1_555 1_555
O26_2 Cu4_2 1_555 1_555
N18_2 Cu5_2 1_555 1_555
N3_2 N7_2 1_555 1_555
C9_2 C13_2 1_555 1_555
C10_2 C14_2 1_555 1_555
C11_2 C15_2 1_555 1_555
C12_2 C16_2 1_555 1_555
C41_2 C45_2 1_555 1_555
C42_2 C46_2 1_555 1_555
C44_2 C48_2 1_555 1_555
N10_2 N14_2 1_555 1_555
N11_2 N15_2 1_555 1_555
N12_2 N16_2 1_555 1_555
N13_2 Cu15_2 1_555 1_555
C57_2 C61_2 1_555 1_555
C58_2 C62_2 1_555 1_555
C59_2 C63_2 1_555 1_555
C60_2 C64_2 1_555 1_555
C89_2 C93_2 1_555 1_555
C90_2 C94_2 1_555 1_555
C91_2 C95_2 1_555 1_555
C92_2 C96_2 1_555 1_555
C99_2 O15_2 1_555 1_555
C100_2 O12_2 1_555 1_555
C100_2 O16_2 1_555 1_555
Cu10 O6_2 1_555 1_555
O2_2 Cu8 1_555 1_555
O6_2 C50_2 1_555 1_555
O9_2 Cu10 1_555 1_555
O13_2 Cu8 1_555 1_555
O19_2 Cu8 1_555 1_555
O20_2 Cu10 1_555 1_555
C50_2 O2_2 1_555 1_555
C97_2 O9_2 1_555 1_555
C97_2 O13_2 1_555 1_555
O19_2 H101_2 1_555 1_555
O19_2 H102_2 1_555 1_555
O20_2 H103_2 1_555 1_555
O20_2 H104_2 1_555 1_555
C1_3 H1_3 1_555 1_555
H2_3 C1_3 1_555 1_555
N1_3 C1_3 1_555 1_555
N17_2 N1_3 1_555 1_555
C5_3 N17_2 1_555 1_555
C9_3 C5_3 1_555 1_555
C13_3 N1_3 1_555 1_555
C17_3 C5_3 1_555 1_555
H9_3 C17_3 1_555 1_555
H10_3 C17_3 1_555 1_555
C21_3 C13_3 1_555 1_555
H21_3 C21_3 1_555 1_555
H22_3 C21_3 1_555 1_555
H23_3 C21_3 1_555 1_555
C25_3 C9_3 1_555 1_555
C29_3 C25_3 1_555 1_555
H33_3 C29_3 1_555 1_555
C33_3 C29_3 1_555 1_555
H37_3 C33_3 1_555 1_555
C37_3 C33_3 1_555 1_555
C41_3 C37_3 1_555 1_555
H41_3 C41_3 1_555 1_555
C45_3 C25_3 1_555 1_555
H45_3 C45_3 1_555 1_555
C49_3 C37_3 1_555 1_555
O21 C49_3 1_555 1_555
O24 C49_3 1_555 1_555
C9_3 C13_3 1_555 1_555
C41_3 C45_3 1_555 1_555
C4_3 H7_3 1_555 1_555
H8_3 C4_3 1_555 1_555
Cu15_2 N8_3 1_555 1_555
N4_3 C4_3 1_555 1_555
N8_3 N4_3 1_555 1_555
C8_3 N8_3 1_555 1_555
C12_3 C8_3 1_555 1_555
C16_3 N4_3 1_555 1_555
C20_3 C8_3 1_555 1_555
H18_3 C20_3 1_555 1_555
H19_3 C20_3 1_555 1_555
H20_3 C20_3 1_555 1_555
C24_3 C16_3 1_555 1_555
H30_3 C24_3 1_555 1_555
H31_3 C24_3 1_555 1_555
H32_3 C24_3 1_555 1_555
C28_3 C12_3 1_555 1_555
C32_3 C28_3 1_555 1_555
H36_3 C32_3 1_555 1_555
C36_3 C32_3 1_555 1_555
H40_3 C36_3 1_555 1_555
C40_3 C36_3 1_555 1_555
C44_3 C40_3 1_555 1_555
H44_3 C44_3 1_555 1_555
C48_3 C28_3 1_555 1_555
H48_3 C48_3 1_555 1_555
C52_3 C40_3 1_555 1_555
O23_2 C52_3 1_555 1_555
O26_2 C52_3 1_555 1_555
N12_3 C4_3 1_555 1_555
N16_3 Cu15_2 1_555 1_555
C56_3 N16_3 1_555 1_555
C60_3 C56_3 1_555 1_555
C64_3 N12_3 1_555 1_555
C68_3 C56_3 1_555 1_555
H58_3 C68_3 1_555 1_555
H59_3 C68_3 1_555 1_555
H60_3 C68_3 1_555 1_555
C72_3 C64_3 1_555 1_555
H70_3 C72_3 1_555 1_555
H71_3 C72_3 1_555 1_555
H72_3 C72_3 1_555 1_555
C76_3 C60_3 1_555 1_555
C80_3 C76_3 1_555 1_555
H76_3 C80_3 1_555 1_555
C84_3 C80_3 1_555 1_555
H80_3 C84_3 1_555 1_555
C88_3 C84_3 1_555 1_555
C92_3 C88_3 1_555 1_555
H84_3 C92_3 1_555 1_555
C96_3 C76_3 1_555 1_555
H88_3 C96_3 1_555 1_555
C100_3 C88_3 1_555 1_555
O12_3 Cu11 1_555 1_555
O15_3 Cu11 1_555 1_555
O16_3 Cu13 1_555 1_555
O17_3 Cu11 1_555 1_555
H89_3 O17_3 1_555 1_555
C101_3 O17_3 1_555 1_555
H90_3 C101_3 1_555 1_555
H91_3 C101_3 1_555 1_555
C102_3 C101_3 1_555 1_555
H92_3 C102_3 1_555 1_555
H93_3 C102_3 1_555 1_555
H94_3 C102_3 1_555 1_555
O18_3 Cu13 1_555 1_555
C103_3 O18_3 1_555 1_555
H96_3 C103_3 1_555 1_555
H97_3 C103_3 1_555 1_555
C104_3 C103_3 1_555 1_555
H98_3 C104_3 1_555 1_555
H99_3 C104_3 1_555 1_555
C12_3 C16_3 1_555 1_555
C44_3 C48_3 1_555 1_555
N12_3 N16_3 1_555 1_555
C60_3 C64_3 1_555 1_555
C92_3 C96_3 1_555 1_555
C100_3 O12_3 1_555 1_555
C100_3 O16_3 1_555 1_555
C2_3 H3_3 1_555 1_555
H4_3 C2_3 1_555 1_555
C3_3 H5_3 1_555 1_555
H6_3 C3_3 1_555 1_555
Cu6_3 N6_3 1_555 1_555
N2_3 C2_3 1_555 1_555
N3_3 C3_3 1_555 1_555
N6_3 N2_3 1_555 1_555
N7_3 Cu6_3 1_555 1_555
C6_3 N6_3 1_555 1_555
C7_3 N7_3 1_555 1_555
C10_3 C6_3 1_555 1_555
C11_3 C7_3 1_555 1_555
C14_3 N2_3 1_555 1_555
C15_3 N3_3 1_555 1_555
C18_3 C6_3 1_555 1_555
H12_3 C18_3 1_555 1_555
H13_3 C18_3 1_555 1_555
H14_3 C18_3 1_555 1_555
C19_3 C7_3 1_555 1_555
H15_3 C19_3 1_555 1_555
H16_3 C19_3 1_555 1_555
H17_3 C19_3 1_555 1_555
C22_3 C14_3 1_555 1_555
H24_3 C22_3 1_555 1_555
H25_3 C22_3 1_555 1_555
H26_3 C22_3 1_555 1_555
C23_3 C15_3 1_555 1_555
H27_3 C23_3 1_555 1_555
H28_3 C23_3 1_555 1_555
H29_3 C23_3 1_555 1_555
C26_3 C10_3 1_555 1_555
C27_3 C11_3 1_555 1_555
C30_3 C26_3 1_555 1_555
H34_3 C30_3 1_555 1_555
C31_3 C27_3 1_555 1_555
H35_3 C31_3 1_555 1_555
C34_3 C30_3 1_555 1_555
H38_3 C34_3 1_555 1_555
C35_3 C31_3 1_555 1_555
H39_3 C35_3 1_555 1_555
C38_3 C34_3 1_555 1_555
C39_3 C35_3 1_555 1_555
C42_3 C38_3 1_555 1_555
C43_3 C39_3 1_555 1_555
H43_3 C43_3 1_555 1_555
C46_3 C26_3 1_555 1_555
H46_3 C46_3 1_555 1_555
C47_3 C27_3 1_555 1_555
H47_3 C47_3 1_555 1_555
C51_3 C39_3 1_555 1_555
O3_2 C51_3 1_555 1_555
O7_2 C51_3 1_555 1_555
N10_3 C2_3 1_555 1_555
N11_3 C3_3 1_555 1_555
N18_2 N9_3 1_555 1_555
N14_3 Cu6_3 1_555 1_555
N15_3 Cu6_3 1_555 1_555
C53_3 N18_2 1_555 1_555
C54_3 N14_3 1_555 1_555
C55_3 N15_3 1_555 1_555
C57_3 C53_3 1_555 1_555
C58_3 C54_3 1_555 1_555
C59_3 C55_3 1_555 1_555
C61_3 N9_3 1_555 1_555
C62_3 N10_3 1_555 1_555
C63_3 N11_3 1_555 1_555
C65_3 C53_3 1_555 1_555
H49_3 C65_3 1_555 1_555
H50_3 C65_3 1_555 1_555
H51_3 C65_3 1_555 1_555
C66_3 C54_3 1_555 1_555
H52_3 C66_3 1_555 1_555
H53_3 C66_3 1_555 1_555
H54_3 C66_3 1_555 1_555
C67_3 C55_3 1_555 1_555
H55_3 C67_3 1_555 1_555
H56_3 C67_3 1_555 1_555
H57_3 C67_3 1_555 1_555
C69_3 C61_3 1_555 1_555
H62_3 C69_3 1_555 1_555
C70_3 C62_3 1_555 1_555
H64_3 C70_3 1_555 1_555
H65_3 C70_3 1_555 1_555
H66_3 C70_3 1_555 1_555
C71_3 C63_3 1_555 1_555
H67_3 C71_3 1_555 1_555
H68_3 C71_3 1_555 1_555
H69_3 C71_3 1_555 1_555
C73_3 C57_3 1_555 1_555
C74_3 C58_3 1_555 1_555
C75_3 C59_3 1_555 1_555
C77_3 C73_3 1_555 1_555
H73_3 C77_3 1_555 1_555
C78_3 C74_3 1_555 1_555
H74_3 C78_3 1_555 1_555
C79_3 C75_3 1_555 1_555
H75_3 C79_3 1_555 1_555
C81_3 C77_3 1_555 1_555
C82_3 C78_3 1_555 1_555
H78_3 C82_3 1_555 1_555
C83_3 C79_3 1_555 1_555
H79_3 C83_3 1_555 1_555
C85_3 C81_3 1_555 1_555
C86_3 C82_3 1_555 1_555
C87_3 C83_3 1_555 1_555
C89_3 C85_3 1_555 1_555
H81_3 C89_3 1_555 1_555
C90_3 C86_3 1_555 1_555
H82_3 C90_3 1_555 1_555
C91_3 C87_3 1_555 1_555
H83_3 C91_3 1_555 1_555
C93_3 C73_3 1_555 1_555
H85_3 C93_3 1_555 1_555
C94_3 C74_3 1_555 1_555
H86_3 C94_3 1_555 1_555
C95_3 C75_3 1_555 1_555
H87_3 C95_3 1_555 1_555
C98_3 C86_3 1_555 1_555
C99_3 C87_3 1_555 1_555
O10_2 C98_3 1_555 1_555
O11_3 C99_3 1_555 1_555
O14_2 C98_3 1_555 1_555
Cu7 O14_2 1_555 1_555
Cu8_2 O3_2 1_555 1_555
Cu9 O10_2 1_555 1_555
Cu10_2 O7_2 1_555 1_555
N3_3 N7_3 1_555 1_555
C10_3 C14_3 1_555 1_555
C11_3 C15_3 1_555 1_555
C42_3 C46_3 1_555 1_555
C43_3 C47_3 1_555 1_555
N10_3 N14_3 1_555 1_555
N11_3 N15_3 1_555 1_555
C57_3 C61_3 1_555 1_555
C58_3 C62_3 1_555 1_555
C59_3 C63_3 1_555 1_555
C89_3 C93_3 1_555 1_555
C90_3 C94_3 1_555 1_555
C91_3 C95_3 1_555 1_555
Cu7 Cu9 1_555 1_555
Cu8_2 Cu10_2 1_555 1_555
Cu9 O6_3 1_555 1_555
O2_3 Cu7 1_555 1_555
O6_3 C50_3 1_555 1_555
O9_3 Cu9 1_555 1_555
O13_3 Cu7 1_555 1_555
O19_3 Cu7 1_555 1_555
O20_3 Cu9 1_555 1_555
O22_2 Cu7 1_555 1_555
O25_2 Cu9 1_555 1_555
C50_3 O2_3 1_555 1_555
C97_3 O9_3 1_555 1_555
C97_3 O13_3 1_555 1_555
O19_3 H101_3 1_555 1_555
O19_3 H102_3 1_555 1_555
O20_3 H103_3 1_555 1_555
O20_3 H104_3 1_555 1_555
Cu10_2 O6_4 1_555 1_555
O2_4 Cu8_2 1_555 1_555
O6_4 C50_4 1_555 1_555
O9_4 Cu10_2 1_555 1_555
O13_4 Cu8_2 1_555 1_555
O19_4 Cu8_2 1_555 1_555
O20_4 Cu10_2 1_555 1_555
O27_2 Cu10_2 1_555 1_555
O28_2 Cu8_2 1_555 1_555
C50_4 O2_4 1_555 1_555
C97_4 O9_4 1_555 1_555
C97_4 O13_4 1_555 1_555
O19_4 H101_4 1_555 1_555
O19_4 H102_4 1_555 1_555
O20_4 H103_4 1_555 1_555
O20_4 H104_4 1_555 1_555
C1_4 H1_4 1_555 1_555
H2_4 C1_4 1_555 1_555
C2_4 H3_4 1_555 1_555
H4_4 C2_4 1_555 1_555
C3_4 H5_4 1_555 1_555
H6_4 C3_4 1_555 1_555
C4_4 H7_4 1_555 1_555
H8_4 C4_4 1_555 1_555
Cu14 O11_4 1_555 1_555
Cu15 N8_4 1_555 1_555
Cu6_4 N6_4 1_555 1_555
N1_4 C1_4 1_555 1_555
N2_4 C2_4 1_555 1_555
N3_4 C3_4 1_555 1_555
N4_4 C4_4 1_555 1_555
N17 N1_4 1_555 1_555
N6_4 N2_4 1_555 1_555
N7_4 Cu6_4 1_555 1_555
N8_4 N4_4 1_555 1_555
C5_4 N17 1_555 1_555
C6_4 N6_4 1_555 1_555
C7_4 N7_4 1_555 1_555
C8_4 N8_4 1_555 1_555
C9_4 C5_4 1_555 1_555
C10_4 C6_4 1_555 1_555
C11_4 C7_4 1_555 1_555
C12_4 C8_4 1_555 1_555
C13_4 N1_4 1_555 1_555
C14_4 N2_4 1_555 1_555
C15_4 N3_4 1_555 1_555
C16_4 N4_4 1_555 1_555
C17_4 C5_4 1_555 1_555
H9_4 C17_4 1_555 1_555
H10_4 C17_4 1_555 1_555
H11_4 C17_4 1_555 1_555
C18_4 C6_4 1_555 1_555
H12_4 C18_4 1_555 1_555
H13_4 C18_4 1_555 1_555
H14_4 C18_4 1_555 1_555
C19_4 C7_4 1_555 1_555
H15_4 C19_4 1_555 1_555
H16_4 C19_4 1_555 1_555
H17_4 C19_4 1_555 1_555
C20_4 C8_4 1_555 1_555
H18_4 C20_4 1_555 1_555
H19_4 C20_4 1_555 1_555
H20_4 C20_4 1_555 1_555
C21_4 C13_4 1_555 1_555
H21_4 C21_4 1_555 1_555
H22_4 C21_4 1_555 1_555
H23_4 C21_4 1_555 1_555
C22_4 C14_4 1_555 1_555
H24_4 C22_4 1_555 1_555
H25_4 C22_4 1_555 1_555
H26_4 C22_4 1_555 1_555
C24_4 C16_4 1_555 1_555
H30_4 C24_4 1_555 1_555
H31_4 C24_4 1_555 1_555
H32_4 C24_4 1_555 1_555
C25_4 C9_4 1_555 1_555
C26_4 C10_4 1_555 1_555
C28_4 C12_4 1_555 1_555
C29_4 C25_4 1_555 1_555
H33_4 C29_4 1_555 1_555
C30_4 C26_4 1_555 1_555
H34_4 C30_4 1_555 1_555
C32_4 C28_4 1_555 1_555
H36_4 C32_4 1_555 1_555
C33_4 C29_4 1_555 1_555
H37_4 C33_4 1_555 1_555
C34_4 C30_4 1_555 1_555
H38_4 C34_4 1_555 1_555
C36_4 C32_4 1_555 1_555
H40_4 C36_4 1_555 1_555
C37_4 C33_4 1_555 1_555
C38_4 C34_4 1_555 1_555
C40_4 C36_4 1_555 1_555
C41_4 C37_4 1_555 1_555
H41_4 C41_4 1_555 1_555
C42_4 C38_4 1_555 1_555
C44_4 C40_4 1_555 1_555
H44_4 C44_4 1_555 1_555
C45_4 C25_4 1_555 1_555
H45_4 C45_4 1_555 1_555
C46_4 C26_4 1_555 1_555
H46_4 C46_4 1_555 1_555
C48_4 C28_4 1_555 1_555
H48_4 C48_4 1_555 1_555
C49_4 C37_4 1_555 1_555
C52_4 C40_4 1_555 1_555
O21_2 C49_4 1_555 1_555
O24_2 C49_4 1_555 1_555
O26 C52_4 1_555 1_555
N9_4 C1_4 1_555 1_555
N10_4 C2_4 1_555 1_555
N11_4 C3_4 1_555 1_555
N12_4 C4_4 1_555 1_555
N18 N9_4 1_555 1_555
N14_4 Cu6_4 1_555 1_555
N15_4 Cu6_4 1_555 1_555
N16_4 Cu15 1_555 1_555
C53_4 N18 1_555 1_555
C54_4 N14_4 1_555 1_555
C55_4 N15_4 1_555 1_555
C56_4 N16_4 1_555 1_555
C57_4 C53_4 1_555 1_555
C58_4 C54_4 1_555 1_555
C59_4 C55_4 1_555 1_555
C60_4 C56_4 1_555 1_555
C61_4 N9_4 1_555 1_555
C62_4 N10_4 1_555 1_555
C63_4 N11_4 1_555 1_555
C64_4 N12_4 1_555 1_555
C65_4 C53_4 1_555 1_555
H49_4 C65_4 1_555 1_555
H50_4 C65_4 1_555 1_555
H51_4 C65_4 1_555 1_555
C66_4 C54_4 1_555 1_555
H52_4 C66_4 1_555 1_555
H53_4 C66_4 1_555 1_555
H54_4 C66_4 1_555 1_555
C67_4 C55_4 1_555 1_555
H55_4 C67_4 1_555 1_555
H56_4 C67_4 1_555 1_555
H57_4 C67_4 1_555 1_555
C68_4 C56_4 1_555 1_555
H58_4 C68_4 1_555 1_555
H59_4 C68_4 1_555 1_555
H60_4 C68_4 1_555 1_555
C69_4 C61_4 1_555 1_555
H61_4 C69_4 1_555 1_555
H62_4 C69_4 1_555 1_555
H63_4 C69_4 1_555 1_555
C70_4 C62_4 1_555 1_555
H64_4 C70_4 1_555 1_555
H65_4 C70_4 1_555 1_555
H66_4 C70_4 1_555 1_555
C71_4 C63_4 1_555 1_555
H67_4 C71_4 1_555 1_555
H68_4 C71_4 1_555 1_555
H69_4 C71_4 1_555 1_555
C72_4 C64_4 1_555 1_555
H70_4 C72_4 1_555 1_555
H71_4 C72_4 1_555 1_555
H72_4 C72_4 1_555 1_555
C73_4 C57_4 1_555 1_555
C74_4 C58_4 1_555 1_555
C75_4 C59_4 1_555 1_555
C76_4 C60_4 1_555 1_555
C77_4 C73_4 1_555 1_555
H73_4 C77_4 1_555 1_555
C78_4 C74_4 1_555 1_555
H74_4 C78_4 1_555 1_555
C79_4 C75_4 1_555 1_555
H75_4 C79_4 1_555 1_555
C80_4 C76_4 1_555 1_555
H76_4 C80_4 1_555 1_555
C81_4 C77_4 1_555 1_555
C82_4 C78_4 1_555 1_555
H78_4 C82_4 1_555 1_555
C83_4 C79_4 1_555 1_555
H79_4 C83_4 1_555 1_555
C84_4 C80_4 1_555 1_555
H80_4 C84_4 1_555 1_555
C85_4 C81_4 1_555 1_555
C86_4 C82_4 1_555 1_555
C87_4 C83_4 1_555 1_555
C88_4 C84_4 1_555 1_555
C89_4 C85_4 1_555 1_555
H81_4 C89_4 1_555 1_555
C90_4 C86_4 1_555 1_555
H82_4 C90_4 1_555 1_555
C91_4 C87_4 1_555 1_555
H83_4 C91_4 1_555 1_555
C92_4 C88_4 1_555 1_555
H84_4 C92_4 1_555 1_555
C93_4 C73_4 1_555 1_555
H85_4 C93_4 1_555 1_555
C94_4 C74_4 1_555 1_555
H86_4 C94_4 1_555 1_555
C95_4 C75_4 1_555 1_555
H87_4 C95_4 1_555 1_555
C96_4 C76_4 1_555 1_555
H88_4 C96_4 1_555 1_555
C98_4 C86_4 1_555 1_555
C99_4 C87_4 1_555 1_555
C100_4 C88_4 1_555 1_555
O27_2 C98_4 1_555 1_555
O11_4 C99_4 1_555 1_555
O12_4 Cu12 1_555 1_555
O28_2 C98_4 1_555 1_555
O15_4 Cu12 1_555 1_555
O16_4 Cu14 1_555 1_555
O17_4 Cu12 1_555 1_555
H89_4 O17_4 1_555 1_555
C101_4 O17_4 1_555 1_555
H90_4 C101_4 1_555 1_555
H91_4 C101_4 1_555 1_555
C102_4 C101_4 1_555 1_555
H92_4 C102_4 1_555 1_555
H93_4 C102_4 1_555 1_555
H94_4 C102_4 1_555 1_555
O18_4 Cu14 1_555 1_555
H95_4 O18_4 1_555 1_555
C103_4 O18_4 1_555 1_555
H96_4 C103_4 1_555 1_555
H97_4 C103_4 1_555 1_555
C104_4 C103_4 1_555 1_555
H98_4 C104_4 1_555 1_555
H99_4 C104_4 1_555 1_555
H100_4 C104_4 1_555 1_555
N3_4 N7_4 1_555 1_555
C9_4 C13_4 1_555 1_555
C10_4 C14_4 1_555 1_555
C11_4 C15_4 1_555 1_555
C12_4 C16_4 1_555 1_555
C41_4 C45_4 1_555 1_555
C42_4 C46_4 1_555 1_555
C44_4 C48_4 1_555 1_555
N10_4 N14_4 1_555 1_555
N11_4 N15_4 1_555 1_555
N12_4 N16_4 1_555 1_555
C57_4 C61_4 1_555 1_555
C58_4 C62_4 1_555 1_555
C59_4 C63_4 1_555 1_555
C60_4 C64_4 1_555 1_555
C89_4 C93_4 1_555 1_555
C90_4 C94_4 1_555 1_555
C91_4 C95_4 1_555 1_555
C92_4 C96_4 1_555 1_555
C99_4 O15_4 1_555 1_555
C100_4 O12_4 1_555 1_555
C100_4 O16_4 1_555 1_555
H28_4 C23_4 1_555 1_555
H29_4 C23_4 1_555 1_555
C31_4 C27_4 1_555 1_555
H35_4 C31_4 1_555 1_555
C35_4 C31_4 1_555 1_555
H39_4 C35_4 1_555 1_555
C39_4 C35_4 1_555 1_555
C43_4 C39_4 1_555 1_555
H43_4 C43_4 1_555 1_555
C47_4 C27_4 1_555 1_555
H47_4 C47_4 1_555 1_555
C51_4 C39_4 1_555 1_555
O22_2 C51_4 1_555 1_555
O25_2 C51_4 1_555 1_555
C43_4 C47_4 1_555 1_555

#END
