
###############################################################################
#
# This file contains modified crystal structure data generated from the
# MOF subset of the Cambridge Structural Database (CSD) v543 
# hosted by the Cambridge Crystallographic Data Centre (CCDC).
#
# This work is licensed under the Creative Commons
# Attribution-NonCommercial-ShareAlike 4.0 International License.
# To view a copy of this license, visit
# http://creativecommons.org/licenses/by-nc-sa/4.0/
# or send a letter to
# Creative Commons, PO Box 1866, Mountain View, CA 94042, USA.
#
# CIF created using the CSD Python API on 29 September 2022
# The structure has been converted into the P1 space group
# The structure has a 3D framework
# The original CSD entry AGOVID is in the cubic crystal system
# The framework has been calculated to contain at least 10.0% void space
# The void calculation uses a probe of radius 1.32A, grid spacing 0.4
# The framework is charged, counterions have been retained in the structure
#
###############################################################################

data_AGOVID
_chemical_formula_moiety         '(C456 H288 In24 N24 O100 20+)n'
_symmetry_cell_setting           triclinic
_symmetry_space_group_name_H-M   'P 1'
_symmetry_Int_Tables_number      1
_space_group_name_Hall           'P 1'
loop_
_symmetry_equiv_pos_site_id
_symmetry_equiv_pos_as_xyz
1 x,y,z
_cell_length_a                   30.0772(5)
_cell_length_b                   30.0772(5)
_cell_length_c                   30.0772(5)
_cell_angle_alpha                90
_cell_angle_beta                 90
_cell_angle_gamma                90
_cell_volume                     27209
loop_
_atom_site_label
_atom_site_type_symbol
_atom_site_fract_x
_atom_site_fract_y
_atom_site_fract_z
H6 H 0.2466 0.0221 0.0703
H10 H 0.2466 0.0703 0.0221
O9 O 0.33745(18) 0.28456(19) 0.21126(15)
C29 C 0.2739(3) 0.2739(3) 0.0075(3)
C30 C 0.2845(4) 0.2845(4) 0.0548(4)
C31 C 0.3156(5) 0.2616(6) 0.0775(3)
H19 H 0.3300 0.2381 0.0635
C32 C 0.3270(5) 0.2717(5) 0.1220(3)
H20 H 0.3514 0.2584 0.1355
C33 C 0.3083(2) 0.3083(2) 0.1937(3)
C34 C 0.3015(3) 0.3015(3) 0.1448(3)
C37 C 0.2616(6) 0.3156(5) 0.0775(3)
H23 H 0.2381 0.3300 0.0635
C38 C 0.2717(5) 0.3270(5) 0.1220(3)
H24 H 0.2584 0.3514 0.1355
O10 O 0.28456(19) 0.33745(18) 0.21126(15)
H30 H 0.0703 0.2466 0.0221
H34 H 0.0221 0.2466 0.0703
O25 O 0.21126(15) 0.33745(18) 0.28456(19)
C105 C 0.0075(3) 0.2739(3) 0.2739(3)
C106 C 0.0548(4) 0.2845(4) 0.2845(4)
C107 C 0.0775(3) 0.3156(5) 0.2616(6)
H67 H 0.0635 0.3300 0.2381
C108 C 0.1220(3) 0.3270(5) 0.2717(5)
H68 H 0.1355 0.3514 0.2584
C109 C 0.1937(3) 0.3083(2) 0.3083(2)
C110 C 0.1448(3) 0.3015(3) 0.3015(3)
C113 C 0.0775(3) 0.2616(6) 0.3156(5)
H71 H 0.0635 0.2381 0.3300
C114 C 0.1220(3) 0.2717(5) 0.3270(5)
H72 H 0.1355 0.2584 0.3514
O26 O 0.21126(15) 0.28456(19) 0.33745(18)
In13 In 0.279131(15) 0.279131(15) 0.361722(18)
In15 In 0.361722(18) 0.279131(15) 0.279131(15)
In19 In 0.279131(15) 0.361722(18) 0.279131(15)
O4 O 0.2284(2) 0.15791(17) 0.89478(17)
C14 C 0.2296(4) 0.1182(2) 0.8818(2)
C15 C 0.2332(5) 0.0832(3) 0.9168(3)
C16 C 0.2331(8) 0.0384(3) 0.9059(3)
H7 H 0.2280 0.0296 0.8767
C17 C 0.2404(6) 0.0070(4) 0.9381(3)
C18 C 0.2386(6) 0.0175(3) 0.9825(3)
O5 O 0.2284(2) 0.10522(17) 0.84209(17)
C19 C 0.2331(8) 0.0941(3) 0.9616(3)
H9 H 0.2280 0.1233 0.9704
C20 C 0.2404(6) 0.0619(3) 0.9930(4)
In2 In 0.220869(15) 0.220869(15) 0.861722(18)
O8 O 0.1949(2) 0.1949(2) 0.8051(2)
N2 N 0.2494(2) 0.2494(2) 0.9234(3)
C27 C 0.2306(3) 0.2835(3) 0.9434(3)
H17 H 0.2090 0.2997 0.9283
C28 C 0.2419(4) 0.2957(3) 0.9853(3)
H18 H 0.2273 0.3193 0.9988
C35 C 0.2835(3) 0.2306(3) 0.9434(3)
H21 H 0.2997 0.2090 0.9283
C36 C 0.2957(3) 0.2419(4) 0.9853(3)
H22 H 0.3193 0.2273 0.9988
In3 In 0.138278(18) 0.220869(15) 0.779131(15)
O11 O 0.10522(17) 0.2284(2) 0.84209(17)
N3 N 0.0766(3) 0.2494(2) 0.7506(2)
C39 C 0.0566(3) 0.2306(3) 0.7165(3)
H25 H 0.0717 0.2090 0.7003
C40 C 0.0147(3) 0.2419(4) 0.7043(3)
H26 H 0.0012 0.2273 0.6807
C45 C 0.1182(2) 0.2296(4) 0.8818(2)
C46 C 0.0832(3) 0.2332(5) 0.9168(3)
C47 C 0.0941(3) 0.2331(8) 0.9616(3)
H29 H 0.1233 0.2280 0.9704
C48 C 0.0619(3) 0.2404(6) 0.9930(4)
C49 C 0.0175(3) 0.2386(6) 0.9825(3)
O15 O 0.15791(17) 0.2284(2) 0.89478(17)
C59 C 0.0384(3) 0.2331(8) 0.9059(3)
H35 H 0.0296 0.2280 0.8767
C60 C 0.0070(4) 0.2404(6) 0.9381(3)
C61 C 0.0566(3) 0.2835(3) 0.7694(3)
H37 H 0.0717 0.2997 0.7910
C62 C 0.0147(3) 0.2957(3) 0.7581(4)
H38 H 0.0012 0.3193 0.7727
In9 In 0.220869(15) 0.138278(18) 0.779131(15)
O28 O 0.10522(17) 0.15791(17) 0.7716(2)
O35 O 0.16255(18) 0.21544(19) 0.71126(15)
O37 O 0.21544(19) 0.28874(15) 0.83745(18)
O40 O 0.16255(18) 0.28874(15) 0.78456(19)
O43 O 0.28874(15) 0.21544(19) 0.83745(18)
In1 In 0.220869(15) 0.779131(15) 0.138278(18)
O1 O 0.2284(2) 0.84209(17) 0.10522(17)
O2 O 0.1949(2) 0.8051(2) 0.1949(2)
N1 N 0.2494(2) 0.7506(2) 0.0766(3)
C1 C 0.2306(3) 0.7165(3) 0.0566(3)
H1 H 0.2090 0.7003 0.0717
C2 C 0.2419(4) 0.7043(3) 0.0147(3)
H2 H 0.2273 0.6807 0.0012
C7 C 0.2296(4) 0.8818(2) 0.1182(2)
C8 C 0.2332(5) 0.9168(3) 0.0832(3)
C9 C 0.2331(8) 0.9616(3) 0.0941(3)
H5 H 0.2280 0.9704 0.1233
C10 C 0.2404(6) 0.9930(4) 0.0619(3)
C11 C 0.2386(6) 0.9825(3) 0.0175(3)
O6 O 0.2284(2) 0.89478(17) 0.15791(17)
C21 C 0.2331(8) 0.9059(3) 0.0384(3)
H11 H 0.2280 0.8767 0.0296
C22 C 0.2404(6) 0.9381(3) 0.0070(4)
C23 C 0.2835(3) 0.7694(3) 0.0566(3)
H13 H 0.2997 0.7910 0.0717
C24 C 0.2957(3) 0.7581(4) 0.0147(3)
H14 H 0.3193 0.7727 0.0012
In4 In 0.138278(18) 0.779131(15) 0.220869(15)
O17 O 0.10522(17) 0.7716(2) 0.15791(17)
N4 N 0.0766(3) 0.7506(2) 0.2494(2)
C65 C 0.0566(3) 0.7694(3) 0.2835(3)
H41 H 0.0717 0.7910 0.2997
C66 C 0.0147(3) 0.7581(4) 0.2957(3)
H42 H 0.0012 0.7727 0.3193
C71 C 0.1182(2) 0.7704(4) 0.1182(2)
C72 C 0.0832(3) 0.7668(5) 0.0832(3)
C73 C 0.0941(3) 0.7669(8) 0.0384(3)
H45 H 0.1233 0.7720 0.0296
C74 C 0.0619(3) 0.7596(6) 0.0070(4)
C75 C 0.0175(3) 0.7614(6) 0.0175(3)
O21 O 0.15791(17) 0.7716(2) 0.10522(17)
C85 C 0.0384(3) 0.7669(8) 0.0941(3)
H51 H 0.0296 0.7720 0.1233
C86 C 0.0070(4) 0.7596(6) 0.0619(3)
C87 C 0.0566(3) 0.7165(3) 0.2306(3)
H53 H 0.0717 0.7003 0.2090
C88 C 0.0147(3) 0.7043(3) 0.2419(4)
H54 H 0.0012 0.6807 0.2273
In10 In 0.220869(15) 0.861722(18) 0.220869(15)
O27 O 0.10522(17) 0.84209(17) 0.2284(2)
O34 O 0.16255(18) 0.78456(19) 0.28874(15)
O38 O 0.21544(19) 0.71126(15) 0.16255(18)
O41 O 0.16255(18) 0.71126(15) 0.21544(19)
O44 O 0.28874(15) 0.78456(19) 0.16255(18)
O3 O 0.33745(18) 0.71544(19) 0.78874(15)
C3 C 0.2739(3) 0.7261(3) 0.9925(3)
C4 C 0.2845(4) 0.7155(4) 0.9452(4)
C5 C 0.3156(5) 0.7384(6) 0.9225(3)
H3 H 0.3300 0.7619 0.9365
C6 C 0.3270(5) 0.7283(5) 0.8780(3)
H4 H 0.3514 0.7416 0.8645
C12 C 0.3083(2) 0.6917(2) 0.8063(3)
C13 C 0.3015(3) 0.6985(3) 0.8552(3)
H8 H 0.2466 0.9779 0.9297
H12 H 0.2466 0.9297 0.9779
C25 C 0.2616(6) 0.6844(5) 0.9225(3)
H15 H 0.2381 0.6700 0.9365
C26 C 0.2717(5) 0.6730(5) 0.8780(3)
H16 H 0.2584 0.6486 0.8645
O7 O 0.28456(19) 0.66255(18) 0.78874(15)
H46 H 0.0703 0.7534 0.9779
H50 H 0.0221 0.7534 0.9297
O23 O 0.21126(15) 0.66255(18) 0.71544(19)
C93 C 0.0075(3) 0.7261(3) 0.7261(3)
C94 C 0.0548(4) 0.7155(4) 0.7155(4)
C95 C 0.0775(3) 0.6844(5) 0.7384(6)
H59 H 0.0635 0.6700 0.7619
C96 C 0.1220(3) 0.6730(5) 0.7283(5)
H60 H 0.1355 0.6486 0.7416
C97 C 0.1937(3) 0.6917(2) 0.6917(2)
C98 C 0.1448(3) 0.6985(3) 0.6985(3)
C101 C 0.0775(3) 0.7384(6) 0.6844(5)
H63 H 0.0635 0.7619 0.6700
C102 C 0.1220(3) 0.7283(5) 0.6730(5)
H64 H 0.1355 0.7416 0.6486
O24 O 0.21126(15) 0.71544(19) 0.66255(18)
In12 In 0.279131(15) 0.720869(15) 0.638278(18)
In16 In 0.361722(18) 0.720869(15) 0.720869(15)
In17 In 0.279131(15) 0.638278(18) 0.720869(15)
O13 O 0.89478(17) 0.2284(2) 0.15791(17)
C52 C 0.8818(2) 0.2296(4) 0.1182(2)
C53 C 0.9168(3) 0.2332(5) 0.0832(3)
C54 C 0.9059(3) 0.2331(8) 0.0384(3)
H31 H 0.8767 0.2280 0.0296
C55 C 0.9381(3) 0.2404(6) 0.0070(4)
C56 C 0.9825(3) 0.2386(6) 0.0175(3)
O14 O 0.84209(17) 0.2284(2) 0.10522(17)
C57 C 0.9616(3) 0.2331(8) 0.0941(3)
H33 H 0.9704 0.2280 0.1233
C58 C 0.9930(4) 0.2404(6) 0.0619(3)
In6 In 0.861722(18) 0.220869(15) 0.220869(15)
N6 N 0.9234(3) 0.2494(2) 0.2494(2)
C103 C 0.9434(3) 0.2306(3) 0.2835(3)
H65 H 0.9283 0.2090 0.2997
C104 C 0.9853(3) 0.2419(4) 0.2957(3)
H66 H 0.9988 0.2273 0.3193
C111 C 0.9434(3) 0.2835(3) 0.2306(3)
H69 H 0.9283 0.2997 0.2090
C112 C 0.9853(3) 0.2957(3) 0.2419(4)
H70 H 0.9988 0.3193 0.2273
In7 In 0.779131(15) 0.220869(15) 0.138278(18)
O30 O 0.89478(17) 0.15791(17) 0.2284(2)
O31 O 0.8051(2) 0.1949(2) 0.1949(2)
O33 O 0.83745(18) 0.21544(19) 0.28874(15)
O39 O 0.83745(18) 0.28874(15) 0.21544(19)
O12 O 0.78874(15) 0.33745(18) 0.71544(19)
C41 C 0.9925(3) 0.2739(3) 0.7261(3)
C42 C 0.9452(4) 0.2845(4) 0.7155(4)
C43 C 0.9225(3) 0.3156(5) 0.7384(6)
H27 H 0.9365 0.3300 0.7619
C44 C 0.8780(3) 0.3270(5) 0.7283(5)
H28 H 0.8645 0.3514 0.7416
C50 C 0.8063(3) 0.3083(2) 0.6917(2)
C51 C 0.8552(3) 0.3015(3) 0.6985(3)
H32 H 0.9297 0.2466 0.9779
H36 H 0.9779 0.2466 0.9297
C63 C 0.9225(3) 0.2616(6) 0.6844(5)
H39 H 0.9365 0.2381 0.6700
C64 C 0.8780(3) 0.2717(5) 0.6730(5)
H40 H 0.8645 0.2584 0.6486
O16 O 0.78874(15) 0.28456(19) 0.66255(18)
In11 In 0.720869(15) 0.279131(15) 0.638278(18)
In20 In 0.720869(15) 0.361722(18) 0.720869(15)
O18 O 0.78874(15) 0.66255(18) 0.28456(19)
C67 C 0.9925(3) 0.7261(3) 0.2739(3)
C68 C 0.9452(4) 0.7155(4) 0.2845(4)
C69 C 0.9225(3) 0.6844(5) 0.2616(6)
H43 H 0.9365 0.6700 0.2381
C70 C 0.8780(3) 0.6730(5) 0.2717(5)
H44 H 0.8645 0.6486 0.2584
C76 C 0.8063(3) 0.6917(2) 0.3083(2)
C77 C 0.8552(3) 0.6985(3) 0.3015(3)
H48 H 0.9297 0.7534 0.0221
H52 H 0.9779 0.7534 0.0703
C89 C 0.9225(3) 0.7384(6) 0.3156(5)
H55 H 0.9365 0.7619 0.3300
C90 C 0.8780(3) 0.7283(5) 0.3270(5)
H56 H 0.8645 0.7416 0.3514
O22 O 0.78874(15) 0.71544(19) 0.33745(18)
In14 In 0.720869(15) 0.720869(15) 0.361722(18)
In18 In 0.720869(15) 0.638278(18) 0.279131(15)
O19 O 0.89478(17) 0.7716(2) 0.84209(17)
C78 C 0.8818(2) 0.7704(4) 0.8818(2)
C79 C 0.9168(3) 0.7668(5) 0.9168(3)
C80 C 0.9059(3) 0.7669(8) 0.9616(3)
H47 H 0.8767 0.7720 0.9704
C81 C 0.9381(3) 0.7596(6) 0.9930(4)
C82 C 0.9825(3) 0.7614(6) 0.9825(3)
O20 O 0.84209(17) 0.7716(2) 0.89478(17)
C83 C 0.9616(3) 0.7669(8) 0.9059(3)
H49 H 0.9704 0.7720 0.8767
C84 C 0.9930(4) 0.7596(6) 0.9381(3)
In5 In 0.861722(18) 0.779131(15) 0.779131(15)
N5 N 0.9234(3) 0.7506(2) 0.7506(2)
C91 C 0.9434(3) 0.7694(3) 0.7165(3)
H57 H 0.9283 0.7910 0.7003
C92 C 0.9853(3) 0.7581(4) 0.7043(3)
H58 H 0.9988 0.7727 0.6807
C99 C 0.9434(3) 0.7165(3) 0.7694(3)
H61 H 0.9283 0.7003 0.7910
C100 C 0.9853(3) 0.7043(3) 0.7581(4)
H62 H 0.9988 0.6807 0.7727
In8 In 0.779131(15) 0.779131(15) 0.861722(18)
O29 O 0.89478(17) 0.84209(17) 0.7716(2)
O32 O 0.8051(2) 0.8051(2) 0.8051(2)
O36 O 0.83745(18) 0.78456(19) 0.71126(15)
O42 O 0.83745(18) 0.71126(15) 0.78456(19)
O1_2 O 0.7716(2) 0.15791(17) 0.10522(17)
N1_2 N 0.7506(2) 0.2494(2) 0.0766(3)
C1_2 C 0.7694(3) 0.2835(3) 0.0566(3)
H1_2 H 0.7910 0.2997 0.0717
C2_2 C 0.7581(4) 0.2957(3) 0.0147(3)
H2_2 H 0.7727 0.3193 0.0012
C7_2 C 0.7704(4) 0.1182(2) 0.1182(2)
C8_2 C 0.7668(5) 0.0832(3) 0.0832(3)
C9_2 C 0.7669(8) 0.0384(3) 0.0941(3)
H5_2 H 0.7720 0.0296 0.1233
C10_2 C 0.7596(6) 0.0070(4) 0.0619(3)
C11_2 C 0.7614(6) 0.0175(3) 0.0175(3)
O6_2 O 0.7716(2) 0.10522(17) 0.15791(17)
C21_2 C 0.7669(8) 0.0941(3) 0.0384(3)
H11_2 H 0.7720 0.1233 0.0296
C22_2 C 0.7596(6) 0.0619(3) 0.0070(4)
C23_2 C 0.7165(3) 0.2306(3) 0.0566(3)
H13_2 H 0.7003 0.2090 0.0717
C24_2 C 0.7043(3) 0.2419(4) 0.0147(3)
H14_2 H 0.6807 0.2273 0.0012
In10_2 In 0.779131(15) 0.138278(18) 0.220869(15)
O38_2 O 0.78456(19) 0.28874(15) 0.16255(18)
O44_2 O 0.71126(15) 0.21544(19) 0.16255(18)
O3_2 O 0.66255(18) 0.28456(19) 0.78874(15)
C3_2 C 0.7261(3) 0.2739(3) 0.9925(3)
C4_2 C 0.7155(4) 0.2845(4) 0.9452(4)
C5_2 C 0.6844(5) 0.2616(6) 0.9225(3)
H3_2 H 0.6700 0.2381 0.9365
C6_2 C 0.6730(5) 0.2717(5) 0.8780(3)
H4_2 H 0.6486 0.2584 0.8645
C12_2 C 0.6917(2) 0.3083(2) 0.8063(3)
C13_2 C 0.6985(3) 0.3015(3) 0.8552(3)
H8_2 H 0.7534 0.0221 0.9297
H12_2 H 0.7534 0.0703 0.9779
C25_2 C 0.7384(6) 0.3156(5) 0.9225(3)
H15_2 H 0.7619 0.3300 0.9365
C26_2 C 0.7283(5) 0.3270(5) 0.8780(3)
H16_2 H 0.7416 0.3514 0.8645
O7_2 O 0.71544(19) 0.33745(18) 0.78874(15)
In16_2 In 0.638278(18) 0.279131(15) 0.720869(15)
H6_2 H 0.7534 0.9779 0.0703
H10_2 H 0.7534 0.9297 0.0221
O9_2 O 0.66255(18) 0.71544(19) 0.21126(15)
C29_2 C 0.7261(3) 0.7261(3) 0.0075(3)
C30_2 C 0.7155(4) 0.7155(4) 0.0548(4)
C31_2 C 0.6844(5) 0.7384(6) 0.0775(3)
H19_2 H 0.6700 0.7619 0.0635
C32_2 C 0.6730(5) 0.7283(5) 0.1220(3)
H20_2 H 0.6486 0.7416 0.1355
C33_2 C 0.6917(2) 0.6917(2) 0.1937(3)
C34_2 C 0.6985(3) 0.6985(3) 0.1448(3)
C37_2 C 0.7384(6) 0.6844(5) 0.0775(3)
H23_2 H 0.7619 0.6700 0.0635
C38_2 C 0.7283(5) 0.6730(5) 0.1220(3)
H24_2 H 0.7416 0.6486 0.1355
O10_2 O 0.71544(19) 0.66255(18) 0.21126(15)
In15_2 In 0.638278(18) 0.720869(15) 0.279131(15)
O4_2 O 0.7716(2) 0.84209(17) 0.89478(17)
C14_2 C 0.7704(4) 0.8818(2) 0.8818(2)
C15_2 C 0.7668(5) 0.9168(3) 0.9168(3)
C16_2 C 0.7669(8) 0.9616(3) 0.9059(3)
H7_2 H 0.7720 0.9704 0.8767
C17_2 C 0.7596(6) 0.9930(4) 0.9381(3)
C18_2 C 0.7614(6) 0.9825(3) 0.9825(3)
O5_2 O 0.7716(2) 0.89478(17) 0.84209(17)
C19_2 C 0.7669(8) 0.9059(3) 0.9616(3)
H9_2 H 0.7720 0.8767 0.9704
C20_2 C 0.7596(6) 0.9381(3) 0.9930(4)
N2_2 N 0.7506(2) 0.7506(2) 0.9234(3)
C27_2 C 0.7694(3) 0.7165(3) 0.9434(3)
H17_2 H 0.7910 0.7003 0.9283
C28_2 C 0.7581(4) 0.7043(3) 0.9853(3)
H18_2 H 0.7727 0.6807 0.9988
C35_2 C 0.7165(3) 0.7694(3) 0.9434(3)
H21_2 H 0.7003 0.7910 0.9283
C36_2 C 0.7043(3) 0.7581(4) 0.9853(3)
H22_2 H 0.6807 0.7727 0.9988
In9_2 In 0.779131(15) 0.861722(18) 0.779131(15)
O37_2 O 0.78456(19) 0.71126(15) 0.83745(18)
O43_2 O 0.71126(15) 0.78456(19) 0.83745(18)
H30_2 H 0.0221 0.0703 0.2466
H34_2 H 0.0703 0.0221 0.2466
O25_2 O 0.28456(19) 0.21126(15) 0.33745(18)
C105_2 C 0.2739(3) 0.0075(3) 0.2739(3)
C106_2 C 0.2845(4) 0.0548(4) 0.2845(4)
C107_2 C 0.2616(6) 0.0775(3) 0.3156(5)
H67_2 H 0.2381 0.0635 0.3300
C108_2 C 0.2717(5) 0.1220(3) 0.3270(5)
H68_2 H 0.2584 0.1355 0.3514
C109_2 C 0.3083(2) 0.1937(3) 0.3083(2)
C110_2 C 0.3015(3) 0.1448(3) 0.3015(3)
C113_2 C 0.3156(5) 0.0775(3) 0.2616(6)
H71_2 H 0.3300 0.0635 0.2381
C114_2 C 0.3270(5) 0.1220(3) 0.2717(5)
H72_2 H 0.3514 0.1355 0.2584
O26_2 O 0.33745(18) 0.21126(15) 0.28456(19)
O17_2 O 0.15791(17) 0.10522(17) 0.7716(2)
N4_2 N 0.2494(2) 0.0766(3) 0.7506(2)
C65_2 C 0.2835(3) 0.0566(3) 0.7694(3)
H41_2 H 0.2997 0.0717 0.7910
C66_2 C 0.2957(3) 0.0147(3) 0.7581(4)
H42_2 H 0.3193 0.0012 0.7727
C71_2 C 0.1182(2) 0.1182(2) 0.7704(4)
C72_2 C 0.0832(3) 0.0832(3) 0.7668(5)
C73_2 C 0.0384(3) 0.0941(3) 0.7669(8)
H45_2 H 0.0296 0.1233 0.7720
C74_2 C 0.0070(4) 0.0619(3) 0.7596(6)
C75_2 C 0.0175(3) 0.0175(3) 0.7614(6)
C85_2 C 0.0941(3) 0.0384(3) 0.7669(8)
H51_2 H 0.1233 0.0296 0.7720
C86_2 C 0.0619(3) 0.0070(4) 0.7596(6)
C87_2 C 0.2306(3) 0.0566(3) 0.7165(3)
H53_2 H 0.2090 0.0717 0.7003
C88_2 C 0.2419(4) 0.0147(3) 0.7043(3)
H54_2 H 0.2273 0.0012 0.6807
O34_2 O 0.28874(15) 0.16255(18) 0.78456(19)
O41_2 O 0.21544(19) 0.16255(18) 0.71126(15)
O13_2 O 0.15791(17) 0.89478(17) 0.2284(2)
C52_2 C 0.1182(2) 0.8818(2) 0.2296(4)
C53_2 C 0.0832(3) 0.9168(3) 0.2332(5)
C54_2 C 0.0384(3) 0.9059(3) 0.2331(8)
H31_2 H 0.0296 0.8767 0.2280
C55_2 C 0.0070(4) 0.9381(3) 0.2404(6)
C56_2 C 0.0175(3) 0.9825(3) 0.2386(6)
C57_2 C 0.0941(3) 0.9616(3) 0.2331(8)
H33_2 H 0.1233 0.9704 0.2280
C58_2 C 0.0619(3) 0.9930(4) 0.2404(6)
N6_2 N 0.2494(2) 0.9234(3) 0.2494(2)
C103_2 C 0.2835(3) 0.9434(3) 0.2306(3)
H65_2 H 0.2997 0.9283 0.2090
C104_2 C 0.2957(3) 0.9853(3) 0.2419(4)
H66_2 H 0.3193 0.9988 0.2273
C111_2 C 0.2306(3) 0.9434(3) 0.2835(3)
H69_2 H 0.2090 0.9283 0.2997
C112_2 C 0.2419(4) 0.9853(3) 0.2957(3)
H70_2 H 0.2273 0.9988 0.3193
O33_2 O 0.28874(15) 0.83745(18) 0.21544(19)
O39_2 O 0.21544(19) 0.83745(18) 0.28874(15)
O18_2 O 0.28456(19) 0.78874(15) 0.66255(18)
C67_2 C 0.2739(3) 0.9925(3) 0.7261(3)
C68_2 C 0.2845(4) 0.9452(4) 0.7155(4)
C69_2 C 0.2616(6) 0.9225(3) 0.6844(5)
H43_2 H 0.2381 0.9365 0.6700
C70_2 C 0.2717(5) 0.8780(3) 0.6730(5)
H44_2 H 0.2584 0.8645 0.6486
C76_2 C 0.3083(2) 0.8063(3) 0.6917(2)
C77_2 C 0.3015(3) 0.8552(3) 0.6985(3)
H48_2 H 0.0221 0.9297 0.7534
H52_2 H 0.0703 0.9779 0.7534
C89_2 C 0.3156(5) 0.9225(3) 0.7384(6)
H55_2 H 0.3300 0.9365 0.7619
C90_2 C 0.3270(5) 0.8780(3) 0.7283(5)
H56_2 H 0.3514 0.8645 0.7416
O22_2 O 0.33745(18) 0.78874(15) 0.71544(19)
O11_2 O 0.84209(17) 0.10522(17) 0.2284(2)
N3_2 N 0.7506(2) 0.0766(3) 0.2494(2)
C39_2 C 0.7165(3) 0.0566(3) 0.2306(3)
H25_2 H 0.7003 0.0717 0.2090
C40_2 C 0.7043(3) 0.0147(3) 0.2419(4)
H26_2 H 0.6807 0.0012 0.2273
C45_2 C 0.8818(2) 0.1182(2) 0.2296(4)
C46_2 C 0.9168(3) 0.0832(3) 0.2332(5)
C47_2 C 0.9616(3) 0.0941(3) 0.2331(8)
H29_2 H 0.9704 0.1233 0.2280
C48_2 C 0.9930(4) 0.0619(3) 0.2404(6)
C49_2 C 0.9825(3) 0.0175(3) 0.2386(6)
C59_2 C 0.9059(3) 0.0384(3) 0.2331(8)
H35_2 H 0.8767 0.0296 0.2280
C60_2 C 0.9381(3) 0.0070(4) 0.2404(6)
C61_2 C 0.7694(3) 0.0566(3) 0.2835(3)
H37_2 H 0.7910 0.0717 0.2997
C62_2 C 0.7581(4) 0.0147(3) 0.2957(3)
H38_2 H 0.7727 0.0012 0.3193
O35_2 O 0.71126(15) 0.16255(18) 0.21544(19)
O40_2 O 0.78456(19) 0.16255(18) 0.28874(15)
H46_2 H 0.9779 0.0703 0.7534
H50_2 H 0.9297 0.0221 0.7534
O23_2 O 0.71544(19) 0.21126(15) 0.66255(18)
C93_2 C 0.7261(3) 0.0075(3) 0.7261(3)
C94_2 C 0.7155(4) 0.0548(4) 0.7155(4)
C95_2 C 0.7384(6) 0.0775(3) 0.6844(5)
H59_2 H 0.7619 0.0635 0.6700
C96_2 C 0.7283(5) 0.1220(3) 0.6730(5)
H60_2 H 0.7416 0.1355 0.6486
C97_2 C 0.6917(2) 0.1937(3) 0.6917(2)
C98_2 C 0.6985(3) 0.1448(3) 0.6985(3)
C101_2 C 0.6844(5) 0.0775(3) 0.7384(6)
H63_2 H 0.6700 0.0635 0.7619
C102_2 C 0.6730(5) 0.1220(3) 0.7283(5)
H64_2 H 0.6486 0.1355 0.7416
O24_2 O 0.66255(18) 0.21126(15) 0.71544(19)
O12_2 O 0.71544(19) 0.78874(15) 0.33745(18)
C41_2 C 0.7261(3) 0.9925(3) 0.2739(3)
C42_2 C 0.7155(4) 0.9452(4) 0.2845(4)
C43_2 C 0.7384(6) 0.9225(3) 0.3156(5)
H27_2 H 0.7619 0.9365 0.3300
C44_2 C 0.7283(5) 0.8780(3) 0.3270(5)
H28_2 H 0.7416 0.8645 0.3514
C50_2 C 0.6917(2) 0.8063(3) 0.3083(2)
C51_2 C 0.6985(3) 0.8552(3) 0.3015(3)
H32_2 H 0.9779 0.9297 0.2466
H36_2 H 0.9297 0.9779 0.2466
C63_2 C 0.6844(5) 0.9225(3) 0.2616(6)
H39_2 H 0.6700 0.9365 0.2381
C64_2 C 0.6730(5) 0.8780(3) 0.2717(5)
H40_2 H 0.6486 0.8645 0.2584
O16_2 O 0.66255(18) 0.78874(15) 0.28456(19)
O19_2 O 0.84209(17) 0.89478(17) 0.7716(2)
C78_2 C 0.8818(2) 0.8818(2) 0.7704(4)
C79_2 C 0.9168(3) 0.9168(3) 0.7668(5)
C80_2 C 0.9616(3) 0.9059(3) 0.7669(8)
H47_2 H 0.9704 0.8767 0.7720
C81_2 C 0.9930(4) 0.9381(3) 0.7596(6)
C82_2 C 0.9825(3) 0.9825(3) 0.7614(6)
C83_2 C 0.9059(3) 0.9616(3) 0.7669(8)
H49_2 H 0.8767 0.9704 0.7720
C84_2 C 0.9381(3) 0.9930(4) 0.7596(6)
N5_2 N 0.7506(2) 0.9234(3) 0.7506(2)
C91_2 C 0.7165(3) 0.9434(3) 0.7694(3)
H57_2 H 0.7003 0.9283 0.7910
C92_2 C 0.7043(3) 0.9853(3) 0.7581(4)
H58_2 H 0.6807 0.9988 0.7727
C99_2 C 0.7694(3) 0.9434(3) 0.7165(3)
H61_2 H 0.7910 0.9283 0.7003
C100_2 C 0.7581(4) 0.9853(3) 0.7043(3)
H62_2 H 0.7727 0.9988 0.6807
O36_2 O 0.71126(15) 0.83745(18) 0.78456(19)
O42_2 O 0.78456(19) 0.83745(18) 0.71126(15)
O1_3 O 0.7284(2) 0.34209(17) 0.60522(17)
O2_2 O 0.6949(2) 0.3051(2) 0.6949(2)
N1_3 N 0.7494(2) 0.2506(2) 0.5766(3)
C1_3 C 0.7306(3) 0.2165(3) 0.5566(3)
H1_3 H 0.7090 0.2003 0.5717
C2_3 C 0.7419(4) 0.2043(3) 0.5147(3)
H2_3 H 0.7273 0.1807 0.5012
C3_3 C 0.7739(3) 0.2261(3) 0.4925(3)
C4_3 C 0.7845(4) 0.2155(4) 0.4452(4)
C5_3 C 0.8156(5) 0.2384(6) 0.4225(3)
H3_3 H 0.8300 0.2619 0.4365
C6_3 C 0.8270(5) 0.2283(5) 0.3780(3)
H4_3 H 0.8514 0.2416 0.3645
C7_3 C 0.7296(4) 0.3818(2) 0.6182(2)
C8_3 C 0.7332(5) 0.4168(3) 0.5832(3)
C9_3 C 0.7331(8) 0.4616(3) 0.5941(3)
H5_3 H 0.7280 0.4704 0.6233
C10_3 C 0.7404(6) 0.4930(4) 0.5619(3)
H6_3 H 0.7466 0.5221 0.5703
C11_3 C 0.7386(6) 0.4825(3) 0.5175(3)
C12_3 C 0.8083(2) 0.1917(2) 0.3063(3)
C13_3 C 0.8015(3) 0.1985(3) 0.3552(3)
O4_3 O 0.7284(2) 0.65791(17) 0.39478(17)
C14_3 C 0.7296(4) 0.6182(2) 0.3818(2)
C15_3 C 0.7332(5) 0.5832(3) 0.4168(3)
C16_3 C 0.7331(8) 0.5384(3) 0.4059(3)
H7_3 H 0.7280 0.5296 0.3767
C17_3 C 0.7404(6) 0.5070(4) 0.4381(3)
H8_3 H 0.7466 0.4779 0.4297
C18_3 C 0.7386(6) 0.5175(3) 0.4825(3)
O5_3 O 0.7284(2) 0.60522(17) 0.34209(17)
C19_3 C 0.7331(8) 0.5941(3) 0.4616(3)
H9_3 H 0.7280 0.6233 0.4704
C20_3 C 0.7404(6) 0.5619(3) 0.4930(4)
H10_3 H 0.7466 0.5703 0.5221
O6_3 O 0.7284(2) 0.39478(17) 0.65791(17)
C21_3 C 0.7331(8) 0.4059(3) 0.5384(3)
H11_3 H 0.7280 0.3767 0.5296
C22_3 C 0.7404(6) 0.4381(3) 0.5070(4)
H12_3 H 0.7466 0.4297 0.4779
C23_3 C 0.7835(3) 0.2694(3) 0.5566(3)
H13_3 H 0.7997 0.2910 0.5717
C24_3 C 0.7957(3) 0.2581(4) 0.5147(3)
H14_3 H 0.8193 0.2727 0.5012
C25_3 C 0.7616(6) 0.1844(5) 0.4225(3)
H15_3 H 0.7381 0.1700 0.4365
C26_3 C 0.7717(5) 0.1730(5) 0.3780(3)
H16_3 H 0.7584 0.1486 0.3645
O8_2 O 0.6949(2) 0.6949(2) 0.3051(2)
N2_3 N 0.7494(2) 0.7494(2) 0.4234(3)
C27_3 C 0.7306(3) 0.7835(3) 0.4434(3)
H17_3 H 0.7090 0.7997 0.4283
C28_3 C 0.7419(4) 0.7957(3) 0.4853(3)
H18_3 H 0.7273 0.8193 0.4988
C29_3 C 0.7739(3) 0.7739(3) 0.5075(3)
C30_3 C 0.7845(4) 0.7845(4) 0.5548(4)
C31_3 C 0.8156(5) 0.7616(6) 0.5775(3)
H19_3 H 0.8300 0.7381 0.5635
C32_3 C 0.8270(5) 0.7717(5) 0.6220(3)
H20_3 H 0.8514 0.7584 0.6355
C33_3 C 0.8083(2) 0.8083(2) 0.6937(3)
C34_3 C 0.8015(3) 0.8015(3) 0.6448(3)
C35_3 C 0.7835(3) 0.7306(3) 0.4434(3)
H21_3 H 0.7997 0.7090 0.4283
C36_3 C 0.7957(3) 0.7419(4) 0.4853(3)
H22_3 H 0.8193 0.7273 0.4988
C37_3 C 0.7616(6) 0.8156(5) 0.5775(3)
H23_3 H 0.7381 0.8300 0.5635
C38_3 C 0.7717(5) 0.8270(5) 0.6220(3)
H24_3 H 0.7584 0.8514 0.6355
O11_3 O 0.60522(17) 0.7284(2) 0.34209(17)
N3_3 N 0.5766(3) 0.7494(2) 0.2506(2)
C39_3 C 0.5566(3) 0.7306(3) 0.2165(3)
H25_3 H 0.5717 0.7090 0.2003
C40_3 C 0.5147(3) 0.7419(4) 0.2043(3)
H26_3 H 0.5012 0.7273 0.1807
C41_3 C 0.4925(3) 0.7739(3) 0.2261(3)
C42_3 C 0.4452(4) 0.7845(4) 0.2155(4)
C43_3 C 0.4225(3) 0.8156(5) 0.2384(6)
H27_3 H 0.4365 0.8300 0.2619
C44_3 C 0.3780(3) 0.8270(5) 0.2283(5)
H28_3 H 0.3645 0.8514 0.2416
C45_3 C 0.6182(2) 0.7296(4) 0.3818(2)
C46_3 C 0.5832(3) 0.7332(5) 0.4168(3)
C47_3 C 0.5941(3) 0.7331(8) 0.4616(3)
H29_3 H 0.6233 0.7280 0.4704
C48_3 C 0.5619(3) 0.7404(6) 0.4930(4)
H30_3 H 0.5703 0.7466 0.5221
C49_3 C 0.5175(3) 0.7386(6) 0.4825(3)
C50_3 C 0.3063(3) 0.8083(2) 0.1917(2)
C51_3 C 0.3552(3) 0.8015(3) 0.1985(3)
O13_3 O 0.39478(17) 0.7284(2) 0.65791(17)
C52_3 C 0.3818(2) 0.7296(4) 0.6182(2)
C53_3 C 0.4168(3) 0.7332(5) 0.5832(3)
C54_3 C 0.4059(3) 0.7331(8) 0.5384(3)
H31_3 H 0.3767 0.7280 0.5296
C55_3 C 0.4381(3) 0.7404(6) 0.5070(4)
H32_3 H 0.4297 0.7466 0.4779
C56_3 C 0.4825(3) 0.7386(6) 0.5175(3)
O14_2 O 0.34209(17) 0.7284(2) 0.60522(17)
C57_3 C 0.4616(3) 0.7331(8) 0.5941(3)
H33_3 H 0.4704 0.7280 0.6233
C58_3 C 0.4930(4) 0.7404(6) 0.5619(3)
H34_3 H 0.5221 0.7466 0.5703
O15_2 O 0.65791(17) 0.7284(2) 0.39478(17)
C59_3 C 0.5384(3) 0.7331(8) 0.4059(3)
H35_3 H 0.5296 0.7280 0.3767
C60_3 C 0.5070(4) 0.7404(6) 0.4381(3)
H36_3 H 0.4779 0.7466 0.4297
C61_3 C 0.5566(3) 0.7835(3) 0.2694(3)
H37_3 H 0.5717 0.7997 0.2910
C62_3 C 0.5147(3) 0.7957(3) 0.2581(4)
H38_3 H 0.5012 0.8193 0.2727
C63_3 C 0.4225(3) 0.7616(6) 0.1844(5)
H39_3 H 0.4365 0.7381 0.1700
C64_3 C 0.3780(3) 0.7717(5) 0.1730(5)
H40_3 H 0.3645 0.7584 0.1486
O17_3 O 0.60522(17) 0.2716(2) 0.65791(17)
N4_3 N 0.5766(3) 0.2506(2) 0.7494(2)
C65_3 C 0.5566(3) 0.2694(3) 0.7835(3)
H41_3 H 0.5717 0.2910 0.7997
C66_3 C 0.5147(3) 0.2581(4) 0.7957(3)
H42_3 H 0.5012 0.2727 0.8193
C67_3 C 0.4925(3) 0.2261(3) 0.7739(3)
C68_3 C 0.4452(4) 0.2155(4) 0.7845(4)
C69_3 C 0.4225(3) 0.1844(5) 0.7616(6)
H43_3 H 0.4365 0.1700 0.7381
C70_3 C 0.3780(3) 0.1730(5) 0.7717(5)
H44_3 H 0.3645 0.1486 0.7584
C71_3 C 0.6182(2) 0.2704(4) 0.6182(2)
C72_3 C 0.5832(3) 0.2668(5) 0.5832(3)
C73_3 C 0.5941(3) 0.2669(8) 0.5384(3)
H45_3 H 0.6233 0.2720 0.5296
C74_3 C 0.5619(3) 0.2596(6) 0.5070(4)
H46_3 H 0.5703 0.2534 0.4779
C75_3 C 0.5175(3) 0.2614(6) 0.5175(3)
C76_3 C 0.3063(3) 0.1917(2) 0.8083(2)
C77_3 C 0.3552(3) 0.1985(3) 0.8015(3)
O19_3 O 0.39478(17) 0.2716(2) 0.34209(17)
C78_3 C 0.3818(2) 0.2704(4) 0.3818(2)
C79_3 C 0.4168(3) 0.2668(5) 0.4168(3)
C80_3 C 0.4059(3) 0.2669(8) 0.4616(3)
H47_3 H 0.3767 0.2720 0.4704
C81_3 C 0.4381(3) 0.2596(6) 0.4930(4)
H48_3 H 0.4297 0.2534 0.5221
C82_3 C 0.4825(3) 0.2614(6) 0.4825(3)
O20_2 O 0.34209(17) 0.2716(2) 0.39478(17)
C83_3 C 0.4616(3) 0.2669(8) 0.4059(3)
H49_3 H 0.4704 0.2720 0.3767
C84_3 C 0.4930(4) 0.2596(6) 0.4381(3)
H50_3 H 0.5221 0.2534 0.4297
O21_2 O 0.65791(17) 0.2716(2) 0.60522(17)
C85_3 C 0.5384(3) 0.2669(8) 0.5941(3)
H51_3 H 0.5296 0.2720 0.6233
C86_3 C 0.5070(4) 0.2596(6) 0.5619(3)
H52_3 H 0.4779 0.2534 0.5703
C87_3 C 0.5566(3) 0.2165(3) 0.7306(3)
H53_3 H 0.5717 0.2003 0.7090
C88_3 C 0.5147(3) 0.2043(3) 0.7419(4)
H54_3 H 0.5012 0.1807 0.7273
C89_3 C 0.4225(3) 0.2384(6) 0.8156(5)
H55_3 H 0.4365 0.2619 0.8300
C90_3 C 0.3780(3) 0.2283(5) 0.8270(5)
H56_3 H 0.3645 0.2416 0.8514
N5_3 N 0.4234(3) 0.2506(2) 0.2506(2)
C91_3 C 0.4434(3) 0.2694(3) 0.2165(3)
H57_3 H 0.4283 0.2910 0.2003
C92_3 C 0.4853(3) 0.2581(4) 0.2043(3)
H58_3 H 0.4988 0.2727 0.1807
C93_3 C 0.5075(3) 0.2261(3) 0.2261(3)
C94_3 C 0.5548(4) 0.2155(4) 0.2155(4)
C95_3 C 0.5775(3) 0.1844(5) 0.2384(6)
H59_3 H 0.5635 0.1700 0.2619
C96_3 C 0.6220(3) 0.1730(5) 0.2283(5)
H60_3 H 0.6355 0.1486 0.2416
C97_3 C 0.6937(3) 0.1917(2) 0.1917(2)
C98_3 C 0.6448(3) 0.1985(3) 0.1985(3)
C99_3 C 0.4434(3) 0.2165(3) 0.2694(3)
H61_3 H 0.4283 0.2003 0.2910
C100_3 C 0.4853(3) 0.2043(3) 0.2581(4)
H62_3 H 0.4988 0.1807 0.2727
C101_3 C 0.5775(3) 0.2384(6) 0.1844(5)
H63_3 H 0.5635 0.2619 0.1700
C102_3 C 0.6220(3) 0.2283(5) 0.1730(5)
H64_3 H 0.6355 0.2416 0.1486
N6_3 N 0.4234(3) 0.7494(2) 0.7494(2)
C103_3 C 0.4434(3) 0.7306(3) 0.7835(3)
H65_3 H 0.4283 0.7090 0.7997
C104_3 C 0.4853(3) 0.7419(4) 0.7957(3)
H66_3 H 0.4988 0.7273 0.8193
C105_3 C 0.5075(3) 0.7739(3) 0.7739(3)
C106_3 C 0.5548(4) 0.7845(4) 0.7845(4)
C107_3 C 0.5775(3) 0.8156(5) 0.7616(6)
H67_3 H 0.5635 0.8300 0.7381
C108_3 C 0.6220(3) 0.8270(5) 0.7717(5)
H68_3 H 0.6355 0.8514 0.7584
C109_3 C 0.6937(3) 0.8083(2) 0.8083(2)
C110_3 C 0.6448(3) 0.8015(3) 0.8015(3)
C111_3 C 0.4434(3) 0.7835(3) 0.7306(3)
H69_3 H 0.4283 0.7997 0.7090
C112_3 C 0.4853(3) 0.7957(3) 0.7419(4)
H70_3 H 0.4988 0.8193 0.7273
C113_3 C 0.5775(3) 0.7616(6) 0.8156(5)
H71_3 H 0.5635 0.7381 0.8300
C114_3 C 0.6220(3) 0.7717(5) 0.8270(5)
H72_3 H 0.6355 0.7584 0.8514
O27_2 O 0.60522(17) 0.34209(17) 0.7284(2)
O28_2 O 0.60522(17) 0.65791(17) 0.2716(2)
O29_2 O 0.39478(17) 0.34209(17) 0.2716(2)
O30_2 O 0.39478(17) 0.65791(17) 0.7284(2)
O31_2 O 0.3051(2) 0.6949(2) 0.6949(2)
O32_2 O 0.3051(2) 0.3051(2) 0.3051(2)
O1_4 O 0.2716(2) 0.65791(17) 0.60522(17)
N1_4 N 0.2506(2) 0.7494(2) 0.5766(3)
C1_4 C 0.2694(3) 0.7835(3) 0.5566(3)
H1_4 H 0.2910 0.7997 0.5717
C2_4 C 0.2581(4) 0.7957(3) 0.5147(3)
H2_4 H 0.2727 0.8193 0.5012
C3_4 C 0.2261(3) 0.7739(3) 0.4925(3)
C4_4 C 0.2155(4) 0.7845(4) 0.4452(4)
C5_4 C 0.1844(5) 0.7616(6) 0.4225(3)
H3_4 H 0.1700 0.7381 0.4365
C6_4 C 0.1730(5) 0.7717(5) 0.3780(3)
H4_4 H 0.1486 0.7584 0.3645
C7_4 C 0.2704(4) 0.6182(2) 0.6182(2)
C8_4 C 0.2668(5) 0.5832(3) 0.5832(3)
C9_4 C 0.2669(8) 0.5384(3) 0.5941(3)
H5_4 H 0.2720 0.5296 0.6233
C10_4 C 0.2596(6) 0.5070(4) 0.5619(3)
H6_4 H 0.2534 0.4779 0.5703
C11_4 C 0.2614(6) 0.5175(3) 0.5175(3)
C12_4 C 0.1917(2) 0.8083(2) 0.3063(3)
C13_4 C 0.1985(3) 0.8015(3) 0.3552(3)
O4_4 O 0.2716(2) 0.34209(17) 0.39478(17)
C14_4 C 0.2704(4) 0.3818(2) 0.3818(2)
C15_4 C 0.2668(5) 0.4168(3) 0.4168(3)
C16_4 C 0.2669(8) 0.4616(3) 0.4059(3)
H7_4 H 0.2720 0.4704 0.3767
C17_4 C 0.2596(6) 0.4930(4) 0.4381(3)
H8_4 H 0.2534 0.5221 0.4297
C18_4 C 0.2614(6) 0.4825(3) 0.4825(3)
O5_4 O 0.2716(2) 0.39478(17) 0.34209(17)
C19_4 C 0.2669(8) 0.4059(3) 0.4616(3)
H9_4 H 0.2720 0.3767 0.4704
C20_4 C 0.2596(6) 0.4381(3) 0.4930(4)
H10_4 H 0.2534 0.4297 0.5221
O6_4 O 0.2716(2) 0.60522(17) 0.65791(17)
C21_4 C 0.2669(8) 0.5941(3) 0.5384(3)
H11_4 H 0.2720 0.6233 0.5296
C22_4 C 0.2596(6) 0.5619(3) 0.5070(4)
H12_4 H 0.2534 0.5703 0.4779
C23_4 C 0.2165(3) 0.7306(3) 0.5566(3)
H13_4 H 0.2003 0.7090 0.5717
C24_4 C 0.2043(3) 0.7419(4) 0.5147(3)
H14_4 H 0.1807 0.7273 0.5012
C25_4 C 0.2384(6) 0.8156(5) 0.4225(3)
H15_4 H 0.2619 0.8300 0.4365
C26_4 C 0.2283(5) 0.8270(5) 0.3780(3)
H16_4 H 0.2416 0.8514 0.3645
N2_4 N 0.2506(2) 0.2506(2) 0.4234(3)
C27_4 C 0.2694(3) 0.2165(3) 0.4434(3)
H17_4 H 0.2910 0.2003 0.4283
C28_4 C 0.2581(4) 0.2043(3) 0.4853(3)
H18_4 H 0.2727 0.1807 0.4988
C29_4 C 0.2261(3) 0.2261(3) 0.5075(3)
C30_4 C 0.2155(4) 0.2155(4) 0.5548(4)
C31_4 C 0.1844(5) 0.2384(6) 0.5775(3)
H19_4 H 0.1700 0.2619 0.5635
C32_4 C 0.1730(5) 0.2283(5) 0.6220(3)
H20_4 H 0.1486 0.2416 0.6355
C33_4 C 0.1917(2) 0.1917(2) 0.6937(3)
C34_4 C 0.1985(3) 0.1985(3) 0.6448(3)
C35_4 C 0.2165(3) 0.2694(3) 0.4434(3)
H21_4 H 0.2003 0.2910 0.4283
C36_4 C 0.2043(3) 0.2581(4) 0.4853(3)
H22_4 H 0.1807 0.2727 0.4988
C37_4 C 0.2384(6) 0.1844(5) 0.5775(3)
H23_4 H 0.2619 0.1700 0.5635
C38_4 C 0.2283(5) 0.1730(5) 0.6220(3)
H24_4 H 0.2416 0.1486 0.6355
O11_4 O 0.34209(17) 0.60522(17) 0.7284(2)
N3_4 N 0.2506(2) 0.5766(3) 0.7494(2)
C39_4 C 0.2165(3) 0.5566(3) 0.7306(3)
H25_4 H 0.2003 0.5717 0.7090
C40_4 C 0.2043(3) 0.5147(3) 0.7419(4)
H26_4 H 0.1807 0.5012 0.7273
C41_4 C 0.2261(3) 0.4925(3) 0.7739(3)
C42_4 C 0.2155(4) 0.4452(4) 0.7845(4)
C43_4 C 0.2384(6) 0.4225(3) 0.8156(5)
H27_4 H 0.2619 0.4365 0.8300
C44_4 C 0.2283(5) 0.3780(3) 0.8270(5)
H28_4 H 0.2416 0.3645 0.8514
C45_4 C 0.3818(2) 0.6182(2) 0.7296(4)
C46_4 C 0.4168(3) 0.5832(3) 0.7332(5)
C47_4 C 0.4616(3) 0.5941(3) 0.7331(8)
H29_4 H 0.4704 0.6233 0.7280
C48_4 C 0.4930(4) 0.5619(3) 0.7404(6)
H30_4 H 0.5221 0.5703 0.7466
C49_4 C 0.4825(3) 0.5175(3) 0.7386(6)
C50_4 C 0.1917(2) 0.3063(3) 0.8083(2)
C51_4 C 0.1985(3) 0.3552(3) 0.8015(3)
O13_4 O 0.65791(17) 0.39478(17) 0.7284(2)
C52_4 C 0.6182(2) 0.3818(2) 0.7296(4)
C53_4 C 0.5832(3) 0.4168(3) 0.7332(5)
C54_4 C 0.5384(3) 0.4059(3) 0.7331(8)
H31_4 H 0.5296 0.3767 0.7280
C55_4 C 0.5070(4) 0.4381(3) 0.7404(6)
H32_4 H 0.4779 0.4297 0.7466
C56_4 C 0.5175(3) 0.4825(3) 0.7386(6)
C57_4 C 0.5941(3) 0.4616(3) 0.7331(8)
H33_4 H 0.6233 0.4704 0.7280
C58_4 C 0.5619(3) 0.4930(4) 0.7404(6)
H34_4 H 0.5703 0.5221 0.7466
C59_4 C 0.4059(3) 0.5384(3) 0.7331(8)
H35_4 H 0.3767 0.5296 0.7280
C60_4 C 0.4381(3) 0.5070(4) 0.7404(6)
H36_4 H 0.4297 0.4779 0.7466
C61_4 C 0.2694(3) 0.5566(3) 0.7835(3)
H37_4 H 0.2910 0.5717 0.7997
C62_4 C 0.2581(4) 0.5147(3) 0.7957(3)
H38_4 H 0.2727 0.5012 0.8193
C63_4 C 0.1844(5) 0.4225(3) 0.7616(6)
H39_4 H 0.1700 0.4365 0.7381
C64_4 C 0.1730(5) 0.3780(3) 0.7717(5)
H40_4 H 0.1486 0.3645 0.7584
O17_4 O 0.65791(17) 0.60522(17) 0.2716(2)
N4_4 N 0.7494(2) 0.5766(3) 0.2506(2)
C65_4 C 0.7835(3) 0.5566(3) 0.2694(3)
H41_4 H 0.7997 0.5717 0.2910
C66_4 C 0.7957(3) 0.5147(3) 0.2581(4)
H42_4 H 0.8193 0.5012 0.2727
C67_4 C 0.7739(3) 0.4925(3) 0.2261(3)
C68_4 C 0.7845(4) 0.4452(4) 0.2155(4)
C69_4 C 0.7616(6) 0.4225(3) 0.1844(5)
H43_4 H 0.7381 0.4365 0.1700
C70_4 C 0.7717(5) 0.3780(3) 0.1730(5)
H44_4 H 0.7584 0.3645 0.1486
C71_4 C 0.6182(2) 0.6182(2) 0.2704(4)
C72_4 C 0.5832(3) 0.5832(3) 0.2668(5)
C73_4 C 0.5384(3) 0.5941(3) 0.2669(8)
H45_4 H 0.5296 0.6233 0.2720
C74_4 C 0.5070(4) 0.5619(3) 0.2596(6)
H46_4 H 0.4779 0.5703 0.2534
C75_4 C 0.5175(3) 0.5175(3) 0.2614(6)
C76_4 C 0.8083(2) 0.3063(3) 0.1917(2)
C77_4 C 0.8015(3) 0.3552(3) 0.1985(3)
O19_4 O 0.34209(17) 0.39478(17) 0.2716(2)
C78_4 C 0.3818(2) 0.3818(2) 0.2704(4)
C79_4 C 0.4168(3) 0.4168(3) 0.2668(5)
C80_4 C 0.4616(3) 0.4059(3) 0.2669(8)
H47_4 H 0.4704 0.3767 0.2720
C81_4 C 0.4930(4) 0.4381(3) 0.2596(6)
H48_4 H 0.5221 0.4297 0.2534
C82_4 C 0.4825(3) 0.4825(3) 0.2614(6)
C83_4 C 0.4059(3) 0.4616(3) 0.2669(8)
H49_4 H 0.3767 0.4704 0.2720
C84_4 C 0.4381(3) 0.4930(4) 0.2596(6)
H50_4 H 0.4297 0.5221 0.2534
C85_4 C 0.5941(3) 0.5384(3) 0.2669(8)
H51_4 H 0.6233 0.5296 0.2720
C86_4 C 0.5619(3) 0.5070(4) 0.2596(6)
H52_4 H 0.5703 0.4779 0.2534
C87_4 C 0.7306(3) 0.5566(3) 0.2165(3)
H53_4 H 0.7090 0.5717 0.2003
C88_4 C 0.7419(4) 0.5147(3) 0.2043(3)
H54_4 H 0.7273 0.5012 0.1807
C89_4 C 0.8156(5) 0.4225(3) 0.2384(6)
H55_4 H 0.8300 0.4365 0.2619
C90_4 C 0.8270(5) 0.3780(3) 0.2283(5)
H56_4 H 0.8514 0.3645 0.2416
N5_4 N 0.2506(2) 0.4234(3) 0.2506(2)
C91_4 C 0.2165(3) 0.4434(3) 0.2694(3)
H57_4 H 0.2003 0.4283 0.2910
C92_4 C 0.2043(3) 0.4853(3) 0.2581(4)
H58_4 H 0.1807 0.4988 0.2727
C93_4 C 0.2261(3) 0.5075(3) 0.2261(3)
C94_4 C 0.2155(4) 0.5548(4) 0.2155(4)
C95_4 C 0.2384(6) 0.5775(3) 0.1844(5)
H59_4 H 0.2619 0.5635 0.1700
C96_4 C 0.2283(5) 0.6220(3) 0.1730(5)
H60_4 H 0.2416 0.6355 0.1486
C97_4 C 0.1917(2) 0.6937(3) 0.1917(2)
C98_4 C 0.1985(3) 0.6448(3) 0.1985(3)
C99_4 C 0.2694(3) 0.4434(3) 0.2165(3)
H61_4 H 0.2910 0.4283 0.2003
C100_4 C 0.2581(4) 0.4853(3) 0.2043(3)
H62_4 H 0.2727 0.4988 0.1807
C101_4 C 0.1844(5) 0.5775(3) 0.2384(6)
H63_4 H 0.1700 0.5635 0.2619
C102_4 C 0.1730(5) 0.6220(3) 0.2283(5)
H64_4 H 0.1486 0.6355 0.2416
N6_4 N 0.7494(2) 0.4234(3) 0.7494(2)
C103_4 C 0.7835(3) 0.4434(3) 0.7306(3)
H65_4 H 0.7997 0.4283 0.7090
C104_4 C 0.7957(3) 0.4853(3) 0.7419(4)
H66_4 H 0.8193 0.4988 0.7273
C105_4 C 0.7739(3) 0.5075(3) 0.7739(3)
C106_4 C 0.7845(4) 0.5548(4) 0.7845(4)
C107_4 C 0.7616(6) 0.5775(3) 0.8156(5)
H67_4 H 0.7381 0.5635 0.8300
C108_4 C 0.7717(5) 0.6220(3) 0.8270(5)
H68_4 H 0.7584 0.6355 0.8514
C109_4 C 0.8083(2) 0.6937(3) 0.8083(2)
C110_4 C 0.8015(3) 0.6448(3) 0.8015(3)
C111_4 C 0.7306(3) 0.4434(3) 0.7835(3)
H69_4 H 0.7090 0.4283 0.7997
C112_4 C 0.7419(4) 0.4853(3) 0.7957(3)
H70_4 H 0.7273 0.4988 0.8193
C113_4 C 0.8156(5) 0.5775(3) 0.7616(6)
H71_4 H 0.8300 0.5635 0.7381
C114_4 C 0.8270(5) 0.6220(3) 0.7717(5)
H72_4 H 0.8514 0.6355 0.7584
loop_
_geom_bond_atom_site_label_1
_geom_bond_atom_site_label_2
_geom_bond_site_symmetry_1
_geom_bond_site_symmetry_2
O9 C33 1_555 1_555
C30 C29 1_555 1_555
C31 C30 1_555 1_555
H19 C31 1_555 1_555
C32 C31 1_555 1_555
H20 C32 1_555 1_555
C33 C34 1_555 1_555
C34 C32 1_555 1_555
C37 C30 1_555 1_555
H23 C37 1_555 1_555
C38 C34 1_555 1_555
H24 C38 1_555 1_555
O10 C33 1_555 1_555
O25 C109 1_555 1_555
C106 C105 1_555 1_555
C107 C106 1_555 1_555
H67 C107 1_555 1_555
C108 C107 1_555 1_555
H68 C108 1_555 1_555
C109 C110 1_555 1_555
C110 C108 1_555 1_555
C113 C106 1_555 1_555
H71 C113 1_555 1_555
C114 C110 1_555 1_555
H72 C114 1_555 1_555
O26 C109 1_555 1_555
In13 O26 1_555 1_555
In15 O9 1_555 1_555
In19 O10 1_555 1_555
C37 C38 1_555 1_555
O25 In19 1_555 1_555
C113 C114 1_555 1_555
O4 C14 1_555 1_555
C14 C15 1_555 1_555
C15 C16 1_555 1_555
C16 H7 1_555 1_555
C17 C16 1_555 1_555
O5 C14 1_555 1_555
C19 C15 1_555 1_555
H9 C19 1_555 1_555
C20 C18 1_555 1_555
In2 O4 1_555 1_555
O8 In2 1_555 1_555
N2 In2 1_555 1_555
C27 N2 1_555 1_555
H17 C27 1_555 1_555
C28 C27 1_555 1_555
H18 C28 1_555 1_555
C35 N2 1_555 1_555
H21 C35 1_555 1_555
H22 C36 1_555 1_555
In3 O8 1_555 1_555
O11 In3 1_555 1_555
N3 In3 1_555 1_555
C39 N3 1_555 1_555
H25 C39 1_555 1_555
C40 C39 1_555 1_555
H26 C40 1_555 1_555
C45 O11 1_555 1_555
C46 C45 1_555 1_555
C47 C46 1_555 1_555
H29 C47 1_555 1_555
C48 C47 1_555 1_555
C49 C48 1_555 1_555
O15 In2 1_555 1_555
C59 C46 1_555 1_555
H35 C59 1_555 1_555
C60 C49 1_555 1_555
C61 N3 1_555 1_555
H37 C61 1_555 1_555
H38 C62 1_555 1_555
In9 O5 1_555 1_555
O28 In3 1_555 1_555
O35 In3 1_555 1_555
O37 In2 1_555 1_555
O40 In3 1_555 1_555
O43 In2 1_555 1_555
C17 C18 1_555 1_555
C19 C20 1_555 1_555
O8 In9 1_555 1_555
C35 C36 1_555 1_555
C45 O15 1_555 1_555
C59 C60 1_555 1_555
C61 C62 1_555 1_555
In1 O1 1_555 1_555
O1 C7 1_555 1_555
O2 In1 1_555 1_555
N1 In1 1_555 1_555
C1 N1 1_555 1_555
H1 C1 1_555 1_555
C2 C1 1_555 1_555
H2 C2 1_555 1_555
C7 C8 1_555 1_555
C8 C9 1_555 1_555
C9 H5 1_555 1_555
C10 C9 1_555 1_555
C11 C10 1_555 1_555
O6 C7 1_555 1_555
C21 C8 1_555 1_555
H11 C21 1_555 1_555
C22 C11 1_555 1_555
C23 N1 1_555 1_555
H13 C23 1_555 1_555
H14 C24 1_555 1_555
In4 O2 1_555 1_555
O17 In4 1_555 1_555
N4 In4 1_555 1_555
C65 N4 1_555 1_555
H41 C65 1_555 1_555
C66 C65 1_555 1_555
H42 C66 1_555 1_555
C71 O17 1_555 1_555
C72 C71 1_555 1_555
C73 C72 1_555 1_555
H45 C73 1_555 1_555
C74 C73 1_555 1_555
C75 C74 1_555 1_555
O21 In1 1_555 1_555
C85 C72 1_555 1_555
H51 C85 1_555 1_555
C86 C75 1_555 1_555
C87 N4 1_555 1_555
H53 C87 1_555 1_555
H54 C88 1_555 1_555
In10 O2 1_555 1_555
O27 In4 1_555 1_555
O34 In4 1_555 1_555
O38 In1 1_555 1_555
O41 In4 1_555 1_555
O44 In1 1_555 1_555
O6 In10 1_555 1_555
C21 C22 1_555 1_555
C23 C24 1_555 1_555
C71 O21 1_555 1_555
C85 C86 1_555 1_555
C87 C88 1_555 1_555
O3 C12 1_555 1_555
C4 C3 1_555 1_555
C5 C4 1_555 1_555
H3 C5 1_555 1_555
C6 C5 1_555 1_555
H4 C6 1_555 1_555
C12 C13 1_555 1_555
C13 C6 1_555 1_555
C25 C4 1_555 1_555
H15 C25 1_555 1_555
C26 C13 1_555 1_555
H16 C26 1_555 1_555
O7 C12 1_555 1_555
O23 C97 1_555 1_555
C94 C93 1_555 1_555
C95 C94 1_555 1_555
H59 C95 1_555 1_555
C96 C95 1_555 1_555
H60 C96 1_555 1_555
C97 C98 1_555 1_555
C98 C96 1_555 1_555
C101 C94 1_555 1_555
H63 C101 1_555 1_555
C102 C98 1_555 1_555
H64 C102 1_555 1_555
O24 C97 1_555 1_555
In12 O24 1_555 1_555
In16 O3 1_555 1_555
In17 O7 1_555 1_555
C25 C26 1_555 1_555
O23 In17 1_555 1_555
C101 C102 1_555 1_555
O13 C52 1_555 1_555
C52 C53 1_555 1_555
C53 C54 1_555 1_555
C54 H31 1_555 1_555
C55 C54 1_555 1_555
O14 C52 1_555 1_555
C57 C53 1_555 1_555
H33 C57 1_555 1_555
C58 C56 1_555 1_555
In6 O13 1_555 1_555
N6 In6 1_555 1_555
C103 N6 1_555 1_555
H65 C103 1_555 1_555
C104 C103 1_555 1_555
H66 C104 1_555 1_555
C111 N6 1_555 1_555
H69 C111 1_555 1_555
H70 C112 1_555 1_555
In7 O14 1_555 1_555
O30 In6 1_555 1_555
O31 In6 1_555 1_555
O33 In6 1_555 1_555
O39 In6 1_555 1_555
C55 C56 1_555 1_555
C57 C58 1_555 1_555
C111 C112 1_555 1_555
In7 O31 1_555 1_555
O12 C50 1_555 1_555
C42 C41 1_555 1_555
C43 C42 1_555 1_555
H27 C43 1_555 1_555
C44 C43 1_555 1_555
H28 C44 1_555 1_555
C50 C51 1_555 1_555
C51 C44 1_555 1_555
C63 C42 1_555 1_555
H39 C63 1_555 1_555
C64 C51 1_555 1_555
H40 C64 1_555 1_555
O16 C50 1_555 1_555
In11 O16 1_555 1_555
In20 O12 1_555 1_555
C63 C64 1_555 1_555
O18 C76 1_555 1_555
C68 C67 1_555 1_555
C69 C68 1_555 1_555
H43 C69 1_555 1_555
C70 C69 1_555 1_555
H44 C70 1_555 1_555
C76 C77 1_555 1_555
C77 C70 1_555 1_555
C89 C68 1_555 1_555
H55 C89 1_555 1_555
C90 C77 1_555 1_555
H56 C90 1_555 1_555
O22 C76 1_555 1_555
In14 O22 1_555 1_555
In18 O18 1_555 1_555
C89 C90 1_555 1_555
O19 C78 1_555 1_555
C78 C79 1_555 1_555
C79 C80 1_555 1_555
C80 H47 1_555 1_555
C81 C80 1_555 1_555
O20 C78 1_555 1_555
C83 C79 1_555 1_555
H49 C83 1_555 1_555
C84 C82 1_555 1_555
In5 O19 1_555 1_555
N5 In5 1_555 1_555
C91 N5 1_555 1_555
H57 C91 1_555 1_555
C92 C91 1_555 1_555
H58 C92 1_555 1_555
C99 N5 1_555 1_555
H61 C99 1_555 1_555
H62 C100 1_555 1_555
In8 O20 1_555 1_555
O29 In5 1_555 1_555
O32 In5 1_555 1_555
O36 In5 1_555 1_555
O42 In5 1_555 1_555
C81 C82 1_555 1_555
C83 C84 1_555 1_555
C99 C100 1_555 1_555
In8 O32 1_555 1_555
In7 O1_2 1_555 1_555
O1_2 C7_2 1_555 1_555
N1_2 In7 1_555 1_555
C1_2 N1_2 1_555 1_555
H1_2 C1_2 1_555 1_555
C2_2 C1_2 1_555 1_555
H2_2 C2_2 1_555 1_555
C7_2 C8_2 1_555 1_555
C8_2 C9_2 1_555 1_555
C9_2 H5_2 1_555 1_555
C10_2 C9_2 1_555 1_555
C11_2 C10_2 1_555 1_555
O6_2 C7_2 1_555 1_555
C21_2 C8_2 1_555 1_555
H11_2 C21_2 1_555 1_555
C22_2 C11_2 1_555 1_555
C23_2 N1_2 1_555 1_555
H13_2 C23_2 1_555 1_555
H14_2 C24_2 1_555 1_555
In10_2 O31 1_555 1_555
O38_2 In7 1_555 1_555
O44_2 In7 1_555 1_555
O6_2 In10_2 1_555 1_555
C21_2 C22_2 1_555 1_555
C23_2 C24_2 1_555 1_555
O3_2 C12_2 1_555 1_555
C4_2 C3_2 1_555 1_555
C5_2 C4_2 1_555 1_555
H3_2 C5_2 1_555 1_555
C6_2 C5_2 1_555 1_555
H4_2 C6_2 1_555 1_555
C12_2 C13_2 1_555 1_555
C13_2 C6_2 1_555 1_555
C25_2 C4_2 1_555 1_555
H15_2 C25_2 1_555 1_555
C26_2 C13_2 1_555 1_555
H16_2 C26_2 1_555 1_555
O7_2 C12_2 1_555 1_555
In16_2 O3_2 1_555 1_555
In20 O7_2 1_555 1_555
C25_2 C26_2 1_555 1_555
O9_2 C33_2 1_555 1_555
C30_2 C29_2 1_555 1_555
C31_2 C30_2 1_555 1_555
H19_2 C31_2 1_555 1_555
C32_2 C31_2 1_555 1_555
H20_2 C32_2 1_555 1_555
C33_2 C34_2 1_555 1_555
C34_2 C32_2 1_555 1_555
C37_2 C30_2 1_555 1_555
H23_2 C37_2 1_555 1_555
C38_2 C34_2 1_555 1_555
H24_2 C38_2 1_555 1_555
O10_2 C33_2 1_555 1_555
In15_2 O9_2 1_555 1_555
In18 O10_2 1_555 1_555
C37_2 C38_2 1_555 1_555
O4_2 C14_2 1_555 1_555
C14_2 C15_2 1_555 1_555
C15_2 C16_2 1_555 1_555
C16_2 H7_2 1_555 1_555
C17_2 C16_2 1_555 1_555
O5_2 C14_2 1_555 1_555
C19_2 C15_2 1_555 1_555
H9_2 C19_2 1_555 1_555
C20_2 C18_2 1_555 1_555
In8 O4_2 1_555 1_555
N2_2 In8 1_555 1_555
C27_2 N2_2 1_555 1_555
H17_2 C27_2 1_555 1_555
C28_2 C27_2 1_555 1_555
H18_2 C28_2 1_555 1_555
C35_2 N2_2 1_555 1_555
H21_2 C35_2 1_555 1_555
H22_2 C36_2 1_555 1_555
In9_2 O5_2 1_555 1_555
O37_2 In8 1_555 1_555
O43_2 In8 1_555 1_555
C17_2 C18_2 1_555 1_555
C19_2 C20_2 1_555 1_555
O32 In9_2 1_555 1_555
C35_2 C36_2 1_555 1_555
O25_2 C109_2 1_555 1_555
C106_2 C105_2 1_555 1_555
C107_2 C106_2 1_555 1_555
H67_2 C107_2 1_555 1_555
C108_2 C107_2 1_555 1_555
H68_2 C108_2 1_555 1_555
C109_2 C110_2 1_555 1_555
C110_2 C108_2 1_555 1_555
C113_2 C106_2 1_555 1_555
H71_2 C113_2 1_555 1_555
C114_2 C110_2 1_555 1_555
H72_2 C114_2 1_555 1_555
O26_2 C109_2 1_555 1_555
In15 O26_2 1_555 1_555
O25_2 In13 1_555 1_555
C113_2 C114_2 1_555 1_555
O17_2 In9 1_555 1_555
N4_2 In9 1_555 1_555
C65_2 N4_2 1_555 1_555
H41_2 C65_2 1_555 1_555
C66_2 C65_2 1_555 1_555
H42_2 C66_2 1_555 1_555
C71_2 O17_2 1_555 1_555
C72_2 C71_2 1_555 1_555
C73_2 C72_2 1_555 1_555
H45_2 C73_2 1_555 1_555
C74_2 C73_2 1_555 1_555
C75_2 C74_2 1_555 1_555
C85_2 C72_2 1_555 1_555
H51_2 C85_2 1_555 1_555
C86_2 C75_2 1_555 1_555
C87_2 N4_2 1_555 1_555
H53_2 C87_2 1_555 1_555
H54_2 C88_2 1_555 1_555
O34_2 In9 1_555 1_555
O41_2 In9 1_555 1_555
C71_2 O28 1_555 1_555
C85_2 C86_2 1_555 1_555
C87_2 C88_2 1_555 1_555
O13_2 C52_2 1_555 1_555
C52_2 C53_2 1_555 1_555
C53_2 C54_2 1_555 1_555
C54_2 H31_2 1_555 1_555
C55_2 C54_2 1_555 1_555
O27 C52_2 1_555 1_555
C57_2 C53_2 1_555 1_555
H33_2 C57_2 1_555 1_555
C58_2 C56_2 1_555 1_555
In10 O13_2 1_555 1_555
N6_2 In10 1_555 1_555
C103_2 N6_2 1_555 1_555
H65_2 C103_2 1_555 1_555
C104_2 C103_2 1_555 1_555
H66_2 C104_2 1_555 1_555
C111_2 N6_2 1_555 1_555
H69_2 C111_2 1_555 1_555
H70_2 C112_2 1_555 1_555
O33_2 In10 1_555 1_555
O39_2 In10 1_555 1_555
C55_2 C56_2 1_555 1_555
C57_2 C58_2 1_555 1_555
C111_2 C112_2 1_555 1_555
O18_2 C76_2 1_555 1_555
C68_2 C67_2 1_555 1_555
C69_2 C68_2 1_555 1_555
H43_2 C69_2 1_555 1_555
C70_2 C69_2 1_555 1_555
H44_2 C70_2 1_555 1_555
C76_2 C77_2 1_555 1_555
C77_2 C70_2 1_555 1_555
C89_2 C68_2 1_555 1_555
H55_2 C89_2 1_555 1_555
C90_2 C77_2 1_555 1_555
H56_2 C90_2 1_555 1_555
O22_2 C76_2 1_555 1_555
In16 O22_2 1_555 1_555
In12 O18_2 1_555 1_555
C89_2 C90_2 1_555 1_555
O11_2 In10_2 1_555 1_555
N3_2 In10_2 1_555 1_555
C39_2 N3_2 1_555 1_555
H25_2 C39_2 1_555 1_555
C40_2 C39_2 1_555 1_555
H26_2 C40_2 1_555 1_555
C45_2 O11_2 1_555 1_555
C46_2 C45_2 1_555 1_555
C47_2 C46_2 1_555 1_555
H29_2 C47_2 1_555 1_555
C48_2 C47_2 1_555 1_555
C49_2 C48_2 1_555 1_555
C59_2 C46_2 1_555 1_555
H35_2 C59_2 1_555 1_555
C60_2 C49_2 1_555 1_555
C61_2 N3_2 1_555 1_555
H37_2 C61_2 1_555 1_555
H38_2 C62_2 1_555 1_555
O35_2 In10_2 1_555 1_555
O40_2 In10_2 1_555 1_555
C45_2 O30 1_555 1_555
C59_2 C60_2 1_555 1_555
C61_2 C62_2 1_555 1_555
O23_2 C97_2 1_555 1_555
C94_2 C93_2 1_555 1_555
C95_2 C94_2 1_555 1_555
H59_2 C95_2 1_555 1_555
C96_2 C95_2 1_555 1_555
H60_2 C96_2 1_555 1_555
C97_2 C98_2 1_555 1_555
C98_2 C96_2 1_555 1_555
C101_2 C94_2 1_555 1_555
H63_2 C101_2 1_555 1_555
C102_2 C98_2 1_555 1_555
H64_2 C102_2 1_555 1_555
O24_2 C97_2 1_555 1_555
In16_2 O24_2 1_555 1_555
O23_2 In11 1_555 1_555
C101_2 C102_2 1_555 1_555
O12_2 C50_2 1_555 1_555
C42_2 C41_2 1_555 1_555
C43_2 C42_2 1_555 1_555
H27_2 C43_2 1_555 1_555
C44_2 C43_2 1_555 1_555
H28_2 C44_2 1_555 1_555
C50_2 C51_2 1_555 1_555
C51_2 C44_2 1_555 1_555
C63_2 C42_2 1_555 1_555
H39_2 C63_2 1_555 1_555
C64_2 C51_2 1_555 1_555
H40_2 C64_2 1_555 1_555
O16_2 C50_2 1_555 1_555
In15_2 O16_2 1_555 1_555
In14 O12_2 1_555 1_555
C63_2 C64_2 1_555 1_555
O19_2 C78_2 1_555 1_555
C78_2 C79_2 1_555 1_555
C79_2 C80_2 1_555 1_555
C80_2 H47_2 1_555 1_555
C81_2 C80_2 1_555 1_555
O29 C78_2 1_555 1_555
C83_2 C79_2 1_555 1_555
H49_2 C83_2 1_555 1_555
C84_2 C82_2 1_555 1_555
In9_2 O19_2 1_555 1_555
N5_2 In9_2 1_555 1_555
C91_2 N5_2 1_555 1_555
H57_2 C91_2 1_555 1_555
C92_2 C91_2 1_555 1_555
H58_2 C92_2 1_555 1_555
C99_2 N5_2 1_555 1_555
H61_2 C99_2 1_555 1_555
H62_2 C100_2 1_555 1_555
O36_2 In9_2 1_555 1_555
O42_2 In9_2 1_555 1_555
C81_2 C82_2 1_555 1_555
C83_2 C84_2 1_555 1_555
C99_2 C100_2 1_555 1_555
In11 O1_3 1_555 1_555
O1_3 C7_3 1_555 1_555
O2_2 In11 1_555 1_555
O33 C12_3 1_555 1_555
N1_3 In11 1_555 1_555
C1_3 N1_3 1_555 1_555
H1_3 C1_3 1_555 1_555
C2_3 C1_3 1_555 1_555
H2_3 C2_3 1_555 1_555
C3_3 C2_3 1_555 1_555
C4_3 C3_3 1_555 1_555
C5_3 C4_3 1_555 1_555
H3_3 C5_3 1_555 1_555
C6_3 C5_3 1_555 1_555
H4_3 C6_3 1_555 1_555
C7_3 C8_3 1_555 1_555
C8_3 C9_3 1_555 1_555
C9_3 H5_3 1_555 1_555
C10_3 C9_3 1_555 1_555
H6_3 C10_3 1_555 1_555
C11_3 C10_3 1_555 1_555
C12_3 C13_3 1_555 1_555
C13_3 C6_3 1_555 1_555
O4_3 C14_3 1_555 1_555
C14_3 C15_3 1_555 1_555
C15_3 C16_3 1_555 1_555
C16_3 H7_3 1_555 1_555
C17_3 C16_3 1_555 1_555
H8_3 C17_3 1_555 1_555
C18_3 C11_3 1_555 1_555
O5_3 C14_3 1_555 1_555
C19_3 C15_3 1_555 1_555
H9_3 C19_3 1_555 1_555
C20_3 C18_3 1_555 1_555
H10_3 C20_3 1_555 1_555
O6_3 C7_3 1_555 1_555
C21_3 C8_3 1_555 1_555
H11_3 C21_3 1_555 1_555
C22_3 C11_3 1_555 1_555
H12_3 C22_3 1_555 1_555
C23_3 N1_3 1_555 1_555
H13_3 C23_3 1_555 1_555
C24_3 C3_3 1_555 1_555
H14_3 C24_3 1_555 1_555
C25_3 C4_3 1_555 1_555
H15_3 C25_3 1_555 1_555
C26_3 C13_3 1_555 1_555
H16_3 C26_3 1_555 1_555
O40_2 C12_3 1_555 1_555
In14 O4_3 1_555 1_555
O8_2 In14 1_555 1_555
O36 C33_3 1_555 1_555
N2_3 In14 1_555 1_555
C27_3 N2_3 1_555 1_555
H17_3 C27_3 1_555 1_555
C28_3 C27_3 1_555 1_555
H18_3 C28_3 1_555 1_555
C29_3 C28_3 1_555 1_555
C30_3 C29_3 1_555 1_555
C31_3 C30_3 1_555 1_555
H19_3 C31_3 1_555 1_555
C32_3 C31_3 1_555 1_555
H20_3 C32_3 1_555 1_555
C33_3 C34_3 1_555 1_555
C34_3 C32_3 1_555 1_555
C35_3 N2_3 1_555 1_555
H21_3 C35_3 1_555 1_555
C36_3 C29_3 1_555 1_555
H22_3 C36_3 1_555 1_555
C37_3 C30_3 1_555 1_555
H23_3 C37_3 1_555 1_555
C38_3 C34_3 1_555 1_555
H24_3 C38_3 1_555 1_555
O42_2 C33_3 1_555 1_555
In15_2 O8_2 1_555 1_555
O11_3 In15_2 1_555 1_555
O33_2 C50_3 1_555 1_555
N3_3 In15_2 1_555 1_555
C39_3 N3_3 1_555 1_555
H25_3 C39_3 1_555 1_555
C40_3 C39_3 1_555 1_555
H26_3 C40_3 1_555 1_555
C41_3 C40_3 1_555 1_555
C42_3 C41_3 1_555 1_555
C43_3 C42_3 1_555 1_555
H27_3 C43_3 1_555 1_555
C44_3 C43_3 1_555 1_555
H28_3 C44_3 1_555 1_555
C45_3 O11_3 1_555 1_555
C46_3 C45_3 1_555 1_555
C47_3 C46_3 1_555 1_555
H29_3 C47_3 1_555 1_555
C48_3 C47_3 1_555 1_555
H30_3 C48_3 1_555 1_555
C49_3 C48_3 1_555 1_555
C50_3 C51_3 1_555 1_555
C51_3 C44_3 1_555 1_555
O13_3 C52_3 1_555 1_555
C52_3 C53_3 1_555 1_555
C53_3 C54_3 1_555 1_555
C54_3 H31_3 1_555 1_555
C55_3 C54_3 1_555 1_555
H32_3 C55_3 1_555 1_555
C56_3 C49_3 1_555 1_555
O14_2 C52_3 1_555 1_555
C57_3 C53_3 1_555 1_555
H33_3 C57_3 1_555 1_555
C58_3 C56_3 1_555 1_555
H34_3 C58_3 1_555 1_555
O15_2 In14 1_555 1_555
C59_3 C46_3 1_555 1_555
H35_3 C59_3 1_555 1_555
C60_3 C49_3 1_555 1_555
H36_3 C60_3 1_555 1_555
C61_3 N3_3 1_555 1_555
H37_3 C61_3 1_555 1_555
C62_3 C41_3 1_555 1_555
H38_3 C62_3 1_555 1_555
C63_3 C42_3 1_555 1_555
H39_3 C63_3 1_555 1_555
C64_3 C51_3 1_555 1_555
H40_3 C64_3 1_555 1_555
O44 C50_3 1_555 1_555
In16_2 O2_2 1_555 1_555
O17_3 In16_2 1_555 1_555
O34_2 C76_3 1_555 1_555
N4_3 In16_2 1_555 1_555
C65_3 N4_3 1_555 1_555
H41_3 C65_3 1_555 1_555
C66_3 C65_3 1_555 1_555
H42_3 C66_3 1_555 1_555
C67_3 C66_3 1_555 1_555
C68_3 C67_3 1_555 1_555
C69_3 C68_3 1_555 1_555
H43_3 C69_3 1_555 1_555
C70_3 C69_3 1_555 1_555
H44_3 C70_3 1_555 1_555
C71_3 O17_3 1_555 1_555
C72_3 C71_3 1_555 1_555
C73_3 C72_3 1_555 1_555
H45_3 C73_3 1_555 1_555
C74_3 C73_3 1_555 1_555
H46_3 C74_3 1_555 1_555
C75_3 C74_3 1_555 1_555
C76_3 C77_3 1_555 1_555
C77_3 C70_3 1_555 1_555
O19_3 C78_3 1_555 1_555
C78_3 C79_3 1_555 1_555
C79_3 C80_3 1_555 1_555
C80_3 H47_3 1_555 1_555
C81_3 C80_3 1_555 1_555
H48_3 C81_3 1_555 1_555
C82_3 C75_3 1_555 1_555
O20_2 C78_3 1_555 1_555
C83_3 C79_3 1_555 1_555
H49_3 C83_3 1_555 1_555
C84_3 C82_3 1_555 1_555
H50_3 C84_3 1_555 1_555
O21_2 In11 1_555 1_555
C85_3 C72_3 1_555 1_555
H51_3 C85_3 1_555 1_555
C86_3 C75_3 1_555 1_555
H52_3 C86_3 1_555 1_555
C87_3 N4_3 1_555 1_555
H53_3 C87_3 1_555 1_555
C88_3 C67_3 1_555 1_555
H54_3 C88_3 1_555 1_555
C89_3 C68_3 1_555 1_555
H55_3 C89_3 1_555 1_555
C90_3 C77_3 1_555 1_555
H56_3 C90_3 1_555 1_555
O43 C76_3 1_555 1_555
In15 O19_3 1_555 1_555
O35_2 C97_3 1_555 1_555
N5_3 In15 1_555 1_555
C91_3 N5_3 1_555 1_555
H57_3 C91_3 1_555 1_555
C92_3 C91_3 1_555 1_555
H58_3 C92_3 1_555 1_555
C93_3 C92_3 1_555 1_555
C94_3 C93_3 1_555 1_555
C95_3 C94_3 1_555 1_555
H59_3 C95_3 1_555 1_555
C96_3 C95_3 1_555 1_555
H60_3 C96_3 1_555 1_555
C97_3 C98_3 1_555 1_555
C98_3 C96_3 1_555 1_555
C99_3 N5_3 1_555 1_555
H61_3 C99_3 1_555 1_555
C100_3 C93_3 1_555 1_555
H62_3 C100_3 1_555 1_555
C101_3 C94_3 1_555 1_555
H63_3 C101_3 1_555 1_555
C102_3 C98_3 1_555 1_555
H64_3 C102_3 1_555 1_555
O44_2 C97_3 1_555 1_555
In16 O13_3 1_555 1_555
O36_2 C109_3 1_555 1_555
N6_3 In16 1_555 1_555
C103_3 N6_3 1_555 1_555
H65_3 C103_3 1_555 1_555
C104_3 C103_3 1_555 1_555
H66_3 C104_3 1_555 1_555
C105_3 C104_3 1_555 1_555
C106_3 C105_3 1_555 1_555
C107_3 C106_3 1_555 1_555
H67_3 C107_3 1_555 1_555
C108_3 C107_3 1_555 1_555
H68_3 C108_3 1_555 1_555
C109_3 C110_3 1_555 1_555
C110_3 C108_3 1_555 1_555
C111_3 N6_3 1_555 1_555
H69_3 C111_3 1_555 1_555
C112_3 C105_3 1_555 1_555
H70_3 C112_3 1_555 1_555
C113_3 C106_3 1_555 1_555
H71_3 C113_3 1_555 1_555
C114_3 C110_3 1_555 1_555
H72_3 C114_3 1_555 1_555
O43_2 C109_3 1_555 1_555
In12 O14_2 1_555 1_555
In13 O20_2 1_555 1_555
In18 O5_3 1_555 1_555
In20 O2_2 1_555 1_555
O27_2 In16_2 1_555 1_555
O28_2 In15_2 1_555 1_555
O29_2 In15 1_555 1_555
O30_2 In16 1_555 1_555
O31_2 In16 1_555 1_555
O32_2 In15 1_555 1_555
C17_3 C18_3 1_555 1_555
C19_3 C20_3 1_555 1_555
O6_3 In20 1_555 1_555
C21_3 C22_3 1_555 1_555
C23_3 C24_3 1_555 1_555
C25_3 C26_3 1_555 1_555
O8_2 In18 1_555 1_555
C35_3 C36_3 1_555 1_555
C37_3 C38_3 1_555 1_555
C45_3 O15_2 1_555 1_555
C55_3 C56_3 1_555 1_555
C57_3 C58_3 1_555 1_555
C59_3 C60_3 1_555 1_555
C61_3 C62_3 1_555 1_555
C63_3 C64_3 1_555 1_555
C71_3 O21_2 1_555 1_555
C81_3 C82_3 1_555 1_555
C83_3 C84_3 1_555 1_555
C85_3 C86_3 1_555 1_555
C87_3 C88_3 1_555 1_555
C89_3 C90_3 1_555 1_555
C99_3 C100_3 1_555 1_555
C101_3 C102_3 1_555 1_555
C111_3 C112_3 1_555 1_555
C113_3 C114_3 1_555 1_555
In12 O31_2 1_555 1_555
In13 O32_2 1_555 1_555
In12 O1_4 1_555 1_555
O1_4 C7_4 1_555 1_555
O34 C12_4 1_555 1_555
N1_4 In12 1_555 1_555
C1_4 N1_4 1_555 1_555
H1_4 C1_4 1_555 1_555
C2_4 C1_4 1_555 1_555
H2_4 C2_4 1_555 1_555
C3_4 C2_4 1_555 1_555
C4_4 C3_4 1_555 1_555
C5_4 C4_4 1_555 1_555
H3_4 C5_4 1_555 1_555
C6_4 C5_4 1_555 1_555
H4_4 C6_4 1_555 1_555
C7_4 C8_4 1_555 1_555
C8_4 C9_4 1_555 1_555
C9_4 H5_4 1_555 1_555
C10_4 C9_4 1_555 1_555
H6_4 C10_4 1_555 1_555
C11_4 C10_4 1_555 1_555
C12_4 C13_4 1_555 1_555
C13_4 C6_4 1_555 1_555
O4_4 C14_4 1_555 1_555
C14_4 C15_4 1_555 1_555
C15_4 C16_4 1_555 1_555
C16_4 H7_4 1_555 1_555
C17_4 C16_4 1_555 1_555
H8_4 C17_4 1_555 1_555
C18_4 C11_4 1_555 1_555
O5_4 C14_4 1_555 1_555
C19_4 C15_4 1_555 1_555
H9_4 C19_4 1_555 1_555
C20_4 C18_4 1_555 1_555
H10_4 C20_4 1_555 1_555
O6_4 C7_4 1_555 1_555
C21_4 C8_4 1_555 1_555
H11_4 C21_4 1_555 1_555
C22_4 C11_4 1_555 1_555
H12_4 C22_4 1_555 1_555
C23_4 N1_4 1_555 1_555
H13_4 C23_4 1_555 1_555
C24_4 C3_4 1_555 1_555
H14_4 C24_4 1_555 1_555
C25_4 C4_4 1_555 1_555
H15_4 C25_4 1_555 1_555
C26_4 C13_4 1_555 1_555
H16_4 C26_4 1_555 1_555
O39_2 C12_4 1_555 1_555
In13 O4_4 1_555 1_555
O35 C33_4 1_555 1_555
N2_4 In13 1_555 1_555
C27_4 N2_4 1_555 1_555
H17_4 C27_4 1_555 1_555
C28_4 C27_4 1_555 1_555
H18_4 C28_4 1_555 1_555
C29_4 C28_4 1_555 1_555
C30_4 C29_4 1_555 1_555
C31_4 C30_4 1_555 1_555
H19_4 C31_4 1_555 1_555
C32_4 C31_4 1_555 1_555
H20_4 C32_4 1_555 1_555
C33_4 C34_4 1_555 1_555
C34_4 C32_4 1_555 1_555
C35_4 N2_4 1_555 1_555
H21_4 C35_4 1_555 1_555
C36_4 C29_4 1_555 1_555
H22_4 C36_4 1_555 1_555
C37_4 C30_4 1_555 1_555
H23_4 C37_4 1_555 1_555
C38_4 C34_4 1_555 1_555
H24_4 C38_4 1_555 1_555
O41_2 C33_4 1_555 1_555
In19 O5_4 1_555 1_555
In17 O31_2 1_555 1_555
C17_4 C18_4 1_555 1_555
C19_4 C20_4 1_555 1_555
O6_4 In17 1_555 1_555
C21_4 C22_4 1_555 1_555
C23_4 C24_4 1_555 1_555
C25_4 C26_4 1_555 1_555
O32_2 In19 1_555 1_555
C35_4 C36_4 1_555 1_555
C37_4 C38_4 1_555 1_555
O11_4 In17 1_555 1_555
O37 C50_4 1_555 1_555
N3_4 In17 1_555 1_555
C39_4 N3_4 1_555 1_555
H25_4 C39_4 1_555 1_555
C40_4 C39_4 1_555 1_555
H26_4 C40_4 1_555 1_555
C41_4 C40_4 1_555 1_555
C42_4 C41_4 1_555 1_555
C43_4 C42_4 1_555 1_555
H27_4 C43_4 1_555 1_555
C44_4 C43_4 1_555 1_555
H28_4 C44_4 1_555 1_555
C45_4 O11_4 1_555 1_555
C46_4 C45_4 1_555 1_555
C47_4 C46_4 1_555 1_555
H29_4 C47_4 1_555 1_555
C48_4 C47_4 1_555 1_555
H30_4 C48_4 1_555 1_555
C49_4 C48_4 1_555 1_555
C50_4 C51_4 1_555 1_555
C51_4 C44_4 1_555 1_555
O13_4 C52_4 1_555 1_555
C52_4 C53_4 1_555 1_555
C53_4 C54_4 1_555 1_555
C54_4 H31_4 1_555 1_555
C55_4 C54_4 1_555 1_555
H32_4 C55_4 1_555 1_555
C56_4 C49_4 1_555 1_555
O27_2 C52_4 1_555 1_555
C57_4 C53_4 1_555 1_555
H33_4 C57_4 1_555 1_555
C58_4 C56_4 1_555 1_555
H34_4 C58_4 1_555 1_555
C59_4 C46_4 1_555 1_555
H35_4 C59_4 1_555 1_555
C60_4 C49_4 1_555 1_555
H36_4 C60_4 1_555 1_555
C61_4 N3_4 1_555 1_555
H37_4 C61_4 1_555 1_555
C62_4 C41_4 1_555 1_555
H38_4 C62_4 1_555 1_555
C63_4 C42_4 1_555 1_555
H39_4 C63_4 1_555 1_555
C64_4 C51_4 1_555 1_555
H40_4 C64_4 1_555 1_555
O40 C50_4 1_555 1_555
O17_4 In18 1_555 1_555
O38_2 C76_4 1_555 1_555
N4_4 In18 1_555 1_555
C65_4 N4_4 1_555 1_555
H41_4 C65_4 1_555 1_555
C66_4 C65_4 1_555 1_555
H42_4 C66_4 1_555 1_555
C67_4 C66_4 1_555 1_555
C68_4 C67_4 1_555 1_555
C69_4 C68_4 1_555 1_555
H43_4 C69_4 1_555 1_555
C70_4 C69_4 1_555 1_555
H44_4 C70_4 1_555 1_555
C71_4 O17_4 1_555 1_555
C72_4 C71_4 1_555 1_555
C73_4 C72_4 1_555 1_555
H45_4 C73_4 1_555 1_555
C74_4 C73_4 1_555 1_555
H46_4 C74_4 1_555 1_555
C75_4 C74_4 1_555 1_555
C76_4 C77_4 1_555 1_555
C77_4 C70_4 1_555 1_555
O19_4 C78_4 1_555 1_555
C78_4 C79_4 1_555 1_555
C79_4 C80_4 1_555 1_555
C80_4 H47_4 1_555 1_555
C81_4 C80_4 1_555 1_555
H48_4 C81_4 1_555 1_555
C82_4 C75_4 1_555 1_555
O29_2 C78_4 1_555 1_555
C83_4 C79_4 1_555 1_555
H49_4 C83_4 1_555 1_555
C84_4 C82_4 1_555 1_555
H50_4 C84_4 1_555 1_555
C85_4 C72_4 1_555 1_555
H51_4 C85_4 1_555 1_555
C86_4 C75_4 1_555 1_555
H52_4 C86_4 1_555 1_555
C87_4 N4_4 1_555 1_555
H53_4 C87_4 1_555 1_555
C88_4 C67_4 1_555 1_555
H54_4 C88_4 1_555 1_555
C89_4 C68_4 1_555 1_555
H55_4 C89_4 1_555 1_555
C90_4 C77_4 1_555 1_555
H56_4 C90_4 1_555 1_555
O39 C76_4 1_555 1_555
In19 O19_4 1_555 1_555
O38 C97_4 1_555 1_555
N5_4 In19 1_555 1_555
C91_4 N5_4 1_555 1_555
H57_4 C91_4 1_555 1_555
C92_4 C91_4 1_555 1_555
H58_4 C92_4 1_555 1_555
C93_4 C92_4 1_555 1_555
C94_4 C93_4 1_555 1_555
C95_4 C94_4 1_555 1_555
H59_4 C95_4 1_555 1_555
C96_4 C95_4 1_555 1_555
H60_4 C96_4 1_555 1_555
C97_4 C98_4 1_555 1_555
C98_4 C96_4 1_555 1_555
C99_4 N5_4 1_555 1_555
H61_4 C99_4 1_555 1_555
C100_4 C93_4 1_555 1_555
H62_4 C100_4 1_555 1_555
C101_4 C94_4 1_555 1_555
H63_4 C101_4 1_555 1_555
C102_4 C98_4 1_555 1_555
H64_4 C102_4 1_555 1_555
O41 C97_4 1_555 1_555
In20 O13_4 1_555 1_555
O37_2 C109_4 1_555 1_555
N6_4 In20 1_555 1_555
C103_4 N6_4 1_555 1_555
H65_4 C103_4 1_555 1_555
C104_4 C103_4 1_555 1_555
H66_4 C104_4 1_555 1_555
C105_4 C104_4 1_555 1_555
C106_4 C105_4 1_555 1_555
C107_4 C106_4 1_555 1_555
H67_4 C107_4 1_555 1_555
C108_4 C107_4 1_555 1_555
H68_4 C108_4 1_555 1_555
C109_4 C110_4 1_555 1_555
C110_4 C108_4 1_555 1_555
C111_4 N6_4 1_555 1_555
H69_4 C111_4 1_555 1_555
C112_4 C105_4 1_555 1_555
H70_4 C112_4 1_555 1_555
C113_4 C106_4 1_555 1_555
H71_4 C113_4 1_555 1_555
C114_4 C110_4 1_555 1_555
H72_4 C114_4 1_555 1_555
O42 C109_4 1_555 1_555
C45_4 O30_2 1_555 1_555
C55_4 C56_4 1_555 1_555
C57_4 C58_4 1_555 1_555
C59_4 C60_4 1_555 1_555
C61_4 C62_4 1_555 1_555
C63_4 C64_4 1_555 1_555
C71_4 O28_2 1_555 1_555
C81_4 C82_4 1_555 1_555
C83_4 C84_4 1_555 1_555
C85_4 C86_4 1_555 1_555
C87_4 C88_4 1_555 1_555
C89_4 C90_4 1_555 1_555
C99_4 C100_4 1_555 1_555
C101_4 C102_4 1_555 1_555
C111_4 C112_4 1_555 1_555
C113_4 C114_4 1_555 1_555

#END
