
###############################################################################
#
# This file contains modified crystal structure data generated from the
# MOF subset of the Cambridge Structural Database (CSD) v543 
# hosted by the Cambridge Crystallographic Data Centre (CCDC).
#
# This work is licensed under the Creative Commons
# Attribution-NonCommercial-ShareAlike 4.0 International License.
# To view a copy of this license, visit
# http://creativecommons.org/licenses/by-nc-sa/4.0/
# or send a letter to
# Creative Commons, PO Box 1866, Mountain View, CA 94042, USA.
#
# CIF created using the CSD Python API on 29 September 2022
# The structure has been converted into the P1 space group
# The structure has a 3D framework
# The original CSD entry AGOWEA is in the cubic crystal system
# The framework has been calculated to contain at least 10.0% void space
# The void calculation uses a probe of radius 1.32A, grid spacing 0.4
# The framework is charged, counterions have been retained in the structure
#
###############################################################################

data_AGOWEA
_chemical_formula_moiety         '(C240 H144 In24 N24 O104 3+)n'
_symmetry_cell_setting           triclinic
_symmetry_space_group_name_H-M   'P 1'
_symmetry_Int_Tables_number      1
_space_group_name_Hall           'P 1'
loop_
_symmetry_equiv_pos_site_id
_symmetry_equiv_pos_as_xyz
1 x,y,z
_cell_length_a                   22.1436(5)
_cell_length_b                   22.1436(5)
_cell_length_c                   22.1436(5)
_cell_angle_alpha                90
_cell_angle_beta                 90
_cell_angle_gamma                90
_cell_volume                     10857.9
loop_
_atom_site_label
_atom_site_type_symbol
_atom_site_fract_x
_atom_site_fract_y
_atom_site_fract_z
C3 C 0.0592(4) 0.0146(5) 0.2428(11)
H1 H 0.0997 0.0258 0.2422
C10 C 0.0146(5) 0.0592(4) 0.2428(11)
H4 H 0.0258 0.0997 0.2422
O9 O 0.1752(2) 0.2766(3) 0.3483(3)
C15 C 0.1510(5) 0.3095(4) 0.3095(4)
C16 C 0.0847(5) 0.2977(4) 0.2977(4)
C17 C 0.0539(4) 0.2545(4) 0.3294(4)
H9 H 0.0720 0.2342 0.3614
C19 C 0.0539(4) 0.3294(4) 0.2545(4)
H11 H 0.0720 0.3614 0.2342
O10 O 0.1752(2) 0.3483(3) 0.2766(3)
O12 O 0.3483(3) 0.1752(2) 0.2766(3)
C24 C 0.3095(4) 0.1510(5) 0.3095(4)
C25 C 0.2977(4) 0.0847(5) 0.2977(4)
C26 C 0.3294(4) 0.0539(4) 0.2545(4)
H14 H 0.3614 0.0720 0.2342
C31 C 0.2428(11) 0.0146(5) 0.0592(4)
H17 H 0.2422 0.0258 0.0997
C32 C 0.2428(11) 0.0592(4) 0.0146(5)
H18 H 0.2422 0.0997 0.0258
C33 C 0.2545(4) 0.0539(4) 0.3294(4)
H19 H 0.2342 0.0720 0.3614
O16 O 0.2766(3) 0.1752(2) 0.3483(3)
O25 O 0.2766(3) 0.3483(3) 0.1752(2)
C55 C 0.3095(4) 0.3095(4) 0.1510(5)
C56 C 0.2977(4) 0.2977(4) 0.0847(5)
C57 C 0.2545(4) 0.3294(4) 0.0539(4)
H33 H 0.2342 0.3614 0.0720
C59 C 0.3294(4) 0.2545(4) 0.0539(4)
H35 H 0.3614 0.2342 0.0720
O26 O 0.3483(3) 0.2766(3) 0.1752(2)
In12 In 0.38058(3) 0.26801(2) 0.26801(2)
In16 In 0.26801(2) 0.38058(3) 0.26801(2)
In18 In 0.26801(2) 0.26801(2) 0.38058(3)
O13 O 0.2412(3) 0.1459(2) 0.9256(2)
C28 C 0.2423(6) 0.0922(4) 0.9078(4)
C29 C 0.2435(6) 0.0444(3) 0.9556(3)
O15 O 0.2412(3) 0.0744(2) 0.8541(2)
In6 In 0.23199(2) 0.23199(2) 0.88058(3)
C58 C 0.2415(4) 0.3124(4) 0.9942(4)
H34 H 0.2121 0.3339 0.9734
N6 N 0.2683(3) 0.2683(3) 0.9663(3)
C60 C 0.3124(4) 0.2415(4) 0.9942(4)
H36 H 0.3339 0.2121 0.9734
In7 In 0.23199(2) 0.11942(3) 0.76801(2)
O27 O 0.1979(3) 0.1979(3) 0.8021(3)
O29 O 0.1459(2) 0.2412(3) 0.9256(2)
O32 O 0.3248(2) 0.2234(3) 0.8483(3)
O38 O 0.2234(3) 0.3248(2) 0.8483(3)
In1 In 0.11942(3) 0.76801(2) 0.23199(2)
O1 O 0.1979(3) 0.8021(3) 0.1979(3)
O2 O 0.0744(2) 0.8541(2) 0.2412(3)
C1 C 0.0922(4) 0.9078(4) 0.2423(6)
C2 C 0.0444(3) 0.9556(3) 0.2435(6)
C7 C 0.0058(4) 0.7585(4) 0.3124(4)
H3 H 0.0266 0.7879 0.3339
N1 N 0.0337(3) 0.7317(3) 0.2683(3)
O5 O 0.1459(2) 0.9256(2) 0.2412(3)
C14 C 0.0058(4) 0.6876(4) 0.2415(4)
H8 H 0.0266 0.6661 0.2121
In3 In 0.23199(2) 0.88058(3) 0.23199(2)
O11 O 0.2412(3) 0.9256(2) 0.1459(2)
C21 C 0.2423(6) 0.9078(4) 0.0922(4)
C22 C 0.2435(6) 0.9556(3) 0.0444(3)
C27 C 0.3124(4) 0.9942(4) 0.2415(4)
H15 H 0.3339 0.9734 0.2121
N3 N 0.2683(3) 0.9663(3) 0.2683(3)
O14 O 0.2412(3) 0.8541(2) 0.0744(2)
C34 C 0.2415(4) 0.9942(4) 0.3124(4)
H20 H 0.2121 0.9734 0.3339
In10 In 0.23199(2) 0.76801(2) 0.11942(3)
O31 O 0.0744(2) 0.7588(3) 0.1459(2)
O35 O 0.1517(3) 0.6752(2) 0.2234(3)
O36 O 0.2234(3) 0.8483(3) 0.3248(2)
O40 O 0.3248(2) 0.8483(3) 0.2234(3)
O43 O 0.1517(3) 0.7766(3) 0.3248(2)
C23 C 0.2428(11) 0.9408(4) 0.9854(5)
H13 H 0.2422 0.9003 0.9742
C30 C 0.2428(11) 0.9854(5) 0.9408(4)
H16 H 0.2422 0.9742 0.9003
O4 O 0.8541(2) 0.0744(2) 0.2412(3)
C8 C 0.9078(4) 0.0922(4) 0.2423(6)
C9 C 0.9556(3) 0.0444(3) 0.2435(6)
O6 O 0.9256(2) 0.1459(2) 0.2412(3)
In2 In 0.88058(3) 0.23199(2) 0.23199(2)
O8 O 0.8021(3) 0.1979(3) 0.1979(3)
C18 C 0.9942(4) 0.2415(4) 0.3124(4)
H10 H 0.9734 0.2121 0.3339
N2 N 0.9663(3) 0.2683(3) 0.2683(3)
C20 C 0.9942(4) 0.3124(4) 0.2415(4)
H12 H 0.9734 0.3339 0.2121
In4 In 0.76801(2) 0.11942(3) 0.23199(2)
O17 O 0.7588(3) 0.0744(2) 0.1459(2)
C35 C 0.7577(6) 0.0922(4) 0.0922(4)
C36 C 0.7565(6) 0.0444(3) 0.0444(3)
C41 C 0.6876(4) 0.0058(4) 0.2415(4)
H23 H 0.6661 0.0266 0.2121
N4 N 0.7317(3) 0.0337(3) 0.2683(3)
O20 O 0.7588(3) 0.1459(2) 0.0744(2)
C48 C 0.7585(4) 0.0058(4) 0.3124(4)
H28 H 0.7879 0.0266 0.3339
In5 In 0.76801(2) 0.23199(2) 0.11942(3)
C52 C 0.7585(4) 0.3124(4) 0.0058(4)
H30 H 0.7879 0.3339 0.0266
N5 N 0.7317(3) 0.2683(3) 0.0337(3)
C54 C 0.6876(4) 0.2415(4) 0.0058(4)
H32 H 0.6661 0.2121 0.0266
O28 O 0.8541(2) 0.2412(3) 0.0744(2)
O30 O 0.9256(2) 0.2412(3) 0.1459(2)
O33 O 0.6752(2) 0.2234(3) 0.1517(3)
O34 O 0.8483(3) 0.3248(2) 0.2234(3)
O37 O 0.7766(3) 0.1517(3) 0.3248(2)
O39 O 0.7766(3) 0.3248(2) 0.1517(3)
O41 O 0.6752(2) 0.1517(3) 0.2234(3)
O42 O 0.8483(3) 0.2234(3) 0.3248(2)
C37 C 0.7572(11) 0.0592(4) 0.9854(5)
H21 H 0.7578 0.0997 0.9742
C44 C 0.7572(11) 0.0146(5) 0.9408(4)
H24 H 0.7578 0.0258 0.9003
O23 O 0.7234(3) 0.3483(3) 0.8248(2)
C49 C 0.6905(4) 0.3095(4) 0.8490(5)
C50 C 0.7023(4) 0.2977(4) 0.9153(5)
C51 C 0.7455(4) 0.3294(4) 0.9461(4)
H29 H 0.7658 0.3614 0.9280
C53 C 0.6706(4) 0.2545(4) 0.9461(4)
H31 H 0.6386 0.2342 0.9280
O24 O 0.6517(3) 0.2766(3) 0.8248(2)
In11 In 0.61942(3) 0.26801(2) 0.73199(2)
In15 In 0.73199(2) 0.38058(3) 0.73199(2)
O3 O 0.8248(2) 0.7234(3) 0.3483(3)
C4 C 0.8490(5) 0.6905(4) 0.3095(4)
C5 C 0.9153(5) 0.7023(4) 0.2977(4)
C6 C 0.9461(4) 0.7455(4) 0.3294(4)
H2 H 0.9280 0.7658 0.3614
C11 C 0.9854(5) 0.9408(4) 0.2428(11)
H5 H 0.9742 0.9003 0.2422
C12 C 0.9408(4) 0.9854(5) 0.2428(11)
H6 H 0.9003 0.9742 0.2422
C13 C 0.9461(4) 0.6706(4) 0.2545(4)
H7 H 0.9280 0.6386 0.2342
O7 O 0.8248(2) 0.6517(3) 0.2766(3)
O18 O 0.6517(3) 0.8248(2) 0.2766(3)
C38 C 0.6905(4) 0.8490(5) 0.3095(4)
C39 C 0.7023(4) 0.9153(5) 0.2977(4)
C40 C 0.6706(4) 0.9461(4) 0.2545(4)
H22 H 0.6386 0.9280 0.2342
C45 C 0.7572(11) 0.9854(5) 0.0592(4)
H25 H 0.7578 0.9742 0.0997
C46 C 0.7572(11) 0.9408(4) 0.0146(5)
H26 H 0.7578 0.9003 0.0258
C47 C 0.7455(4) 0.9461(4) 0.3294(4)
H27 H 0.7658 0.9280 0.3614
O22 O 0.7234(3) 0.8248(2) 0.3483(3)
In13 In 0.61942(3) 0.73199(2) 0.26801(2)
In14 In 0.73199(2) 0.61942(3) 0.26801(2)
In17 In 0.73199(2) 0.73199(2) 0.38058(3)
O19 O 0.7588(3) 0.8541(2) 0.9256(2)
C42 C 0.7577(6) 0.9078(4) 0.9078(4)
C43 C 0.7565(6) 0.9556(3) 0.9556(3)
O21 O 0.7588(3) 0.9256(2) 0.8541(2)
In8 In 0.76801(2) 0.88058(3) 0.76801(2)
In9 In 0.76801(2) 0.76801(2) 0.88058(3)
C52_2 C 0.2415(4) 0.6876(4) 0.0058(4)
H30_2 H 0.2121 0.6661 0.0266
N5_2 N 0.2683(3) 0.7317(3) 0.0337(3)
C54_2 C 0.3124(4) 0.7585(4) 0.0058(4)
H32_2 H 0.3339 0.7879 0.0266
O28_2 O 0.1459(2) 0.7588(3) 0.0744(2)
O33_2 O 0.3248(2) 0.7766(3) 0.1517(3)
O39_2 O 0.2234(3) 0.6752(2) 0.1517(3)
O23_2 O 0.2766(3) 0.6517(3) 0.8248(2)
C49_2 C 0.3095(4) 0.6905(4) 0.8490(5)
C50_2 C 0.2977(4) 0.7023(4) 0.9153(5)
C51_2 C 0.2545(4) 0.6706(4) 0.9461(4)
H29_2 H 0.2342 0.6386 0.9280
C53_2 C 0.3294(4) 0.7455(4) 0.9461(4)
H31_2 H 0.3614 0.7658 0.9280
O24_2 O 0.3483(3) 0.7234(3) 0.8248(2)
In11_2 In 0.38058(3) 0.73199(2) 0.73199(2)
In15_2 In 0.26801(2) 0.61942(3) 0.73199(2)
O25_2 O 0.7234(3) 0.6517(3) 0.1752(2)
C55_2 C 0.6905(4) 0.6905(4) 0.1510(5)
C56_2 C 0.7023(4) 0.7023(4) 0.0847(5)
C57_2 C 0.7455(4) 0.6706(4) 0.0539(4)
H33_2 H 0.7658 0.6386 0.0720
C59_2 C 0.6706(4) 0.7455(4) 0.0539(4)
H35_2 H 0.6386 0.7658 0.0720
O26_2 O 0.6517(3) 0.7234(3) 0.1752(2)
C58_2 C 0.7585(4) 0.6876(4) 0.9942(4)
H34_2 H 0.7879 0.6661 0.9734
N6_2 N 0.7317(3) 0.7317(3) 0.9663(3)
C60_2 C 0.6876(4) 0.7585(4) 0.9942(4)
H36_2 H 0.6661 0.7879 0.9734
O27_2 O 0.8021(3) 0.8021(3) 0.8021(3)
O29_2 O 0.8541(2) 0.7588(3) 0.9256(2)
O32_2 O 0.6752(2) 0.7766(3) 0.8483(3)
O38_2 O 0.7766(3) 0.6752(2) 0.8483(3)
O4_2 O 0.1459(2) 0.0744(2) 0.7588(3)
C8_2 C 0.0922(4) 0.0922(4) 0.7577(6)
C9_2 C 0.0444(3) 0.0444(3) 0.7565(6)
O6_2 O 0.0744(2) 0.1459(2) 0.7588(3)
In2_2 In 0.11942(3) 0.23199(2) 0.76801(2)
C18_2 C 0.0058(4) 0.2415(4) 0.6876(4)
H10_2 H 0.0266 0.2121 0.6661
N2_2 N 0.0337(3) 0.2683(3) 0.7317(3)
C20_2 C 0.0058(4) 0.3124(4) 0.7585(4)
H12_2 H 0.0266 0.3339 0.7879
C41_2 C 0.3124(4) 0.0058(4) 0.7585(4)
H23_2 H 0.3339 0.0266 0.7879
N4_2 N 0.2683(3) 0.0337(3) 0.7317(3)
C48_2 C 0.2415(4) 0.0058(4) 0.6876(4)
H28_2 H 0.2121 0.0266 0.6661
O30_2 O 0.0744(2) 0.2412(3) 0.8541(2)
O34_2 O 0.1517(3) 0.3248(2) 0.7766(3)
O37_2 O 0.2234(3) 0.1517(3) 0.6752(2)
O41_2 O 0.3248(2) 0.1517(3) 0.7766(3)
O42_2 O 0.1517(3) 0.2234(3) 0.6752(2)
O3_2 O 0.1752(2) 0.7234(3) 0.6517(3)
C4_2 C 0.1510(5) 0.6905(4) 0.6905(4)
C5_2 C 0.0847(5) 0.7023(4) 0.7023(4)
C6_2 C 0.0539(4) 0.7455(4) 0.6706(4)
H2_2 H 0.0720 0.7658 0.6386
C11_2 C 0.0146(5) 0.9408(4) 0.7572(11)
H5_2 H 0.0258 0.9003 0.7578
C12_2 C 0.0592(4) 0.9854(5) 0.7572(11)
H6_2 H 0.0997 0.9742 0.7578
C13_2 C 0.0539(4) 0.6706(4) 0.7455(4)
H7_2 H 0.0720 0.6386 0.7658
O7_2 O 0.1752(2) 0.6517(3) 0.7234(3)
O18_2 O 0.3483(3) 0.8248(2) 0.7234(3)
C38_2 C 0.3095(4) 0.8490(5) 0.6905(4)
C39_2 C 0.2977(4) 0.9153(5) 0.7023(4)
C40_2 C 0.3294(4) 0.9461(4) 0.7455(4)
H22_2 H 0.3614 0.9280 0.7658
C47_2 C 0.2545(4) 0.9461(4) 0.6706(4)
H27_2 H 0.2342 0.9280 0.6386
O22_2 O 0.2766(3) 0.8248(2) 0.6517(3)
In17_2 In 0.26801(2) 0.73199(2) 0.61942(3)
C3_2 C 0.9408(4) 0.0146(5) 0.7572(11)
H1_2 H 0.9003 0.0258 0.7578
C10_2 C 0.9854(5) 0.0592(4) 0.7572(11)
H4_2 H 0.9742 0.0997 0.7578
O9_2 O 0.8248(2) 0.2766(3) 0.6517(3)
C15_2 C 0.8490(5) 0.3095(4) 0.6905(4)
C16_2 C 0.9153(5) 0.2977(4) 0.7023(4)
C17_2 C 0.9461(4) 0.2545(4) 0.6706(4)
H9_2 H 0.9280 0.2342 0.6386
C19_2 C 0.9461(4) 0.3294(4) 0.7455(4)
H11_2 H 0.9280 0.3614 0.7658
O10_2 O 0.8248(2) 0.3483(3) 0.7234(3)
O12_2 O 0.6517(3) 0.1752(2) 0.7234(3)
C24_2 C 0.6905(4) 0.1510(5) 0.6905(4)
C25_2 C 0.7023(4) 0.0847(5) 0.7023(4)
C26_2 C 0.6706(4) 0.0539(4) 0.7455(4)
H14_2 H 0.6386 0.0720 0.7658
C33_2 C 0.7455(4) 0.0539(4) 0.6706(4)
H19_2 H 0.7658 0.0720 0.6386
O16_2 O 0.7234(3) 0.1752(2) 0.6517(3)
In18_2 In 0.73199(2) 0.26801(2) 0.61942(3)
In1_2 In 0.88058(3) 0.76801(2) 0.76801(2)
O2_2 O 0.9256(2) 0.8541(2) 0.7588(3)
C1_2 C 0.9078(4) 0.9078(4) 0.7577(6)
C2_2 C 0.9556(3) 0.9556(3) 0.7565(6)
C7_2 C 0.9942(4) 0.7585(4) 0.6876(4)
H3_2 H 0.9734 0.7879 0.6661
N1_2 N 0.9663(3) 0.7317(3) 0.7317(3)
O5_2 O 0.8541(2) 0.9256(2) 0.7588(3)
C14_2 C 0.9942(4) 0.6876(4) 0.7585(4)
H8_2 H 0.9734 0.6661 0.7879
C27_2 C 0.6876(4) 0.9942(4) 0.7585(4)
H15_2 H 0.6661 0.9734 0.7879
N3_2 N 0.7317(3) 0.9663(3) 0.7317(3)
C34_2 C 0.7585(4) 0.9942(4) 0.6876(4)
H20_2 H 0.7879 0.9734 0.6661
O31_2 O 0.9256(2) 0.7588(3) 0.8541(2)
O35_2 O 0.8483(3) 0.6752(2) 0.7766(3)
O36_2 O 0.7766(3) 0.8483(3) 0.6752(2)
O40_2 O 0.6752(2) 0.8483(3) 0.7766(3)
O43_2 O 0.8483(3) 0.7766(3) 0.6752(2)
C31_2 C 0.0592(4) 0.2428(11) 0.0146(5)
H17_2 H 0.0997 0.2422 0.0258
C32_2 C 0.0146(5) 0.2428(11) 0.0592(4)
H18_2 H 0.0258 0.2422 0.0997
C21_2 C 0.0922(4) 0.2423(6) 0.9078(4)
C22_2 C 0.0444(3) 0.2435(6) 0.9556(3)
C35_2 C 0.0922(4) 0.7577(6) 0.0922(4)
C36_2 C 0.0444(3) 0.7565(6) 0.0444(3)
C45_2 C 0.0592(4) 0.7572(11) 0.9854(5)
H25_2 H 0.0997 0.7578 0.9742
C46_2 C 0.0146(5) 0.7572(11) 0.9408(4)
H26_2 H 0.0258 0.7578 0.9003
C28_2 C 0.9078(4) 0.2423(6) 0.0922(4)
C29_2 C 0.9556(3) 0.2435(6) 0.0444(3)
C23_2 C 0.9854(5) 0.2428(11) 0.9408(4)
H13_2 H 0.9742 0.2422 0.9003
C30_2 C 0.9408(4) 0.2428(11) 0.9854(5)
H16_2 H 0.9003 0.2422 0.9742
C37_2 C 0.9854(5) 0.7572(11) 0.0592(4)
H21_2 H 0.9742 0.7578 0.0997
C44_2 C 0.9408(4) 0.7572(11) 0.0146(5)
H24_2 H 0.9003 0.7578 0.0258
C42_2 C 0.9078(4) 0.7577(6) 0.9078(4)
C43_2 C 0.9556(3) 0.7565(6) 0.9556(3)
O1_2 O 0.6979(3) 0.3021(3) 0.6979(3)
O2_3 O 0.5744(2) 0.3541(2) 0.7412(3)
C1_3 C 0.5922(4) 0.4078(4) 0.7423(6)
C2_3 C 0.5444(3) 0.4556(3) 0.7435(6)
C3_3 C 0.5592(4) 0.5146(5) 0.7428(11)
H1_3 H 0.5997 0.5258 0.7422
C4_3 C 0.3490(5) 0.1905(4) 0.8095(4)
C5_3 C 0.4153(5) 0.2023(4) 0.7977(4)
C6_3 C 0.4461(4) 0.2455(4) 0.8294(4)
H2_3 H 0.4280 0.2658 0.8614
C7_3 C 0.5058(4) 0.2585(4) 0.8124(4)
H3_3 H 0.5266 0.2879 0.8339
N1_3 N 0.5337(3) 0.2317(3) 0.7683(3)
O4_3 O 0.3541(2) 0.5744(2) 0.7412(3)
C8_3 C 0.4078(4) 0.5922(4) 0.7423(6)
C9_3 C 0.4556(3) 0.5444(3) 0.7435(6)
C10_3 C 0.5146(5) 0.5592(4) 0.7428(11)
H4_3 H 0.5258 0.5997 0.7422
O5_3 O 0.6459(2) 0.4256(2) 0.7412(3)
C11_3 C 0.4854(5) 0.4408(4) 0.7428(11)
H5_3 H 0.4742 0.4003 0.7422
O6_3 O 0.4256(2) 0.6459(2) 0.7412(3)
C12_3 C 0.4408(4) 0.4854(5) 0.7428(11)
H6_3 H 0.4003 0.4742 0.7422
C13_3 C 0.4461(4) 0.1706(4) 0.7545(4)
H7_3 H 0.4280 0.1386 0.7342
C14_3 C 0.5058(4) 0.1876(4) 0.7415(4)
H8_3 H 0.5266 0.1661 0.7121
O8_2 O 0.3021(3) 0.6979(3) 0.6979(3)
C15_3 C 0.6510(5) 0.8095(4) 0.8095(4)
C16_3 C 0.5847(5) 0.7977(4) 0.7977(4)
C17_3 C 0.5539(4) 0.7545(4) 0.8294(4)
H9_3 H 0.5720 0.7342 0.8614
C18_3 C 0.4942(4) 0.7415(4) 0.8124(4)
H10_3 H 0.4734 0.7121 0.8339
N2_3 N 0.4663(3) 0.7683(3) 0.7683(3)
C19_3 C 0.5539(4) 0.8294(4) 0.7545(4)
H11_3 H 0.5720 0.8614 0.7342
C20_3 C 0.4942(4) 0.8124(4) 0.7415(4)
H12_3 H 0.4734 0.8339 0.7121
O11_2 O 0.7412(3) 0.4256(2) 0.6459(2)
C21_3 C 0.7423(6) 0.4078(4) 0.5922(4)
C22_3 C 0.7435(6) 0.4556(3) 0.5444(3)
C23_3 C 0.7428(11) 0.4408(4) 0.4854(5)
H13_3 H 0.7422 0.4003 0.4742
C24_3 C 0.8095(4) 0.6510(5) 0.8095(4)
C25_3 C 0.7977(4) 0.5847(5) 0.7977(4)
C26_3 C 0.8294(4) 0.5539(4) 0.7545(4)
H14_3 H 0.8614 0.5720 0.7342
C27_3 C 0.8124(4) 0.4942(4) 0.7415(4)
H15_3 H 0.8339 0.4734 0.7121
N3_3 N 0.7683(3) 0.4663(3) 0.7683(3)
O13_2 O 0.7412(3) 0.6459(2) 0.4256(2)
C28_3 C 0.7423(6) 0.5922(4) 0.4078(4)
C29_3 C 0.7435(6) 0.5444(3) 0.4556(3)
C30_3 C 0.7428(11) 0.4854(5) 0.4408(4)
H16_3 H 0.7422 0.4742 0.4003
O14_2 O 0.7412(3) 0.3541(2) 0.5744(2)
C31_3 C 0.7428(11) 0.5146(5) 0.5592(4)
H17_3 H 0.7422 0.5258 0.5997
O15_2 O 0.7412(3) 0.5744(2) 0.3541(2)
C32_3 C 0.7428(11) 0.5592(4) 0.5146(5)
H18_3 H 0.7422 0.5997 0.5258
C33_3 C 0.7545(4) 0.5539(4) 0.8294(4)
H19_3 H 0.7342 0.5720 0.8614
C34_3 C 0.7415(4) 0.4942(4) 0.8124(4)
H20_3 H 0.7121 0.4734 0.8339
O17_2 O 0.2588(3) 0.5744(2) 0.6459(2)
C35_3 C 0.2577(6) 0.5922(4) 0.5922(4)
C36_3 C 0.2565(6) 0.5444(3) 0.5444(3)
C37_3 C 0.2572(11) 0.5592(4) 0.4854(5)
H21_3 H 0.2578 0.5997 0.4742
C38_3 C 0.1905(4) 0.3490(5) 0.8095(4)
C39_3 C 0.2023(4) 0.4153(5) 0.7977(4)
C40_3 C 0.1706(4) 0.4461(4) 0.7545(4)
H22_3 H 0.1386 0.4280 0.7342
C41_3 C 0.1876(4) 0.5058(4) 0.7415(4)
H23_3 H 0.1661 0.5266 0.7121
N4_3 N 0.2317(3) 0.5337(3) 0.7683(3)
O19_2 O 0.2588(3) 0.3541(2) 0.4256(2)
C42_3 C 0.2577(6) 0.4078(4) 0.4078(4)
C43_3 C 0.2565(6) 0.4556(3) 0.4556(3)
C44_3 C 0.2572(11) 0.5146(5) 0.4408(4)
H24_3 H 0.2578 0.5258 0.4003
O20_2 O 0.2588(3) 0.6459(2) 0.5744(2)
C45_3 C 0.2572(11) 0.4854(5) 0.5592(4)
H25_3 H 0.2578 0.4742 0.5997
O21_2 O 0.2588(3) 0.4256(2) 0.3541(2)
C46_3 C 0.2572(11) 0.4408(4) 0.5146(5)
H26_3 H 0.2578 0.4003 0.5258
C47_3 C 0.2455(4) 0.4461(4) 0.8294(4)
H27_3 H 0.2658 0.4280 0.8614
C48_3 C 0.2585(4) 0.5058(4) 0.8124(4)
H28_3 H 0.2879 0.5266 0.8339
C49_3 C 0.1905(4) 0.8095(4) 0.3490(5)
C50_3 C 0.2023(4) 0.7977(4) 0.4153(5)
C51_3 C 0.2455(4) 0.8294(4) 0.4461(4)
H29_3 H 0.2658 0.8614 0.4280
C52_3 C 0.2585(4) 0.8124(4) 0.5058(4)
H30_3 H 0.2879 0.8339 0.5266
N5_3 N 0.2317(3) 0.7683(3) 0.5337(3)
C53_3 C 0.1706(4) 0.7545(4) 0.4461(4)
H31_3 H 0.1386 0.7342 0.4280
C54_3 C 0.1876(4) 0.7415(4) 0.5058(4)
H32_3 H 0.1661 0.7121 0.5266
C55_3 C 0.8095(4) 0.8095(4) 0.6510(5)
C56_3 C 0.7977(4) 0.7977(4) 0.5847(5)
C57_3 C 0.7545(4) 0.8294(4) 0.5539(4)
H33_3 H 0.7342 0.8614 0.5720
C58_3 C 0.7415(4) 0.8124(4) 0.4942(4)
H34_3 H 0.7121 0.8339 0.4734
N6_3 N 0.7683(3) 0.7683(3) 0.4663(3)
C59_3 C 0.8294(4) 0.7545(4) 0.5539(4)
H35_3 H 0.8614 0.7342 0.5720
C60_3 C 0.8124(4) 0.7415(4) 0.4942(4)
H36_3 H 0.8339 0.7121 0.4734
O27_3 O 0.6979(3) 0.6979(3) 0.3021(3)
O28_3 O 0.3541(2) 0.7412(3) 0.5744(2)
O29_3 O 0.6459(2) 0.7412(3) 0.4256(2)
O30_3 O 0.4256(2) 0.7412(3) 0.6459(2)
O31_3 O 0.5744(2) 0.2588(3) 0.6459(2)
C49_4 C 0.8095(4) 0.1905(4) 0.3490(5)
C50_4 C 0.7977(4) 0.2023(4) 0.4153(5)
C51_4 C 0.7545(4) 0.1706(4) 0.4461(4)
H29_4 H 0.7342 0.1386 0.4280
C52_4 C 0.7415(4) 0.1876(4) 0.5058(4)
H30_4 H 0.7121 0.1661 0.5266
N5_4 N 0.7683(3) 0.2317(3) 0.5337(3)
C53_4 C 0.8294(4) 0.2455(4) 0.4461(4)
H31_4 H 0.8614 0.2658 0.4280
C54_4 C 0.8124(4) 0.2585(4) 0.5058(4)
H32_4 H 0.8339 0.2879 0.5266
C55_4 C 0.1905(4) 0.1905(4) 0.6510(5)
C56_4 C 0.2023(4) 0.2023(4) 0.5847(5)
C57_4 C 0.2455(4) 0.1706(4) 0.5539(4)
H33_4 H 0.2658 0.1386 0.5720
C58_4 C 0.2585(4) 0.1876(4) 0.4942(4)
H34_4 H 0.2879 0.1661 0.4734
N6_4 N 0.2317(3) 0.2317(3) 0.4663(3)
C59_4 C 0.1706(4) 0.2455(4) 0.5539(4)
H35_4 H 0.1386 0.2658 0.5720
C60_4 C 0.1876(4) 0.2585(4) 0.4942(4)
H36_4 H 0.1661 0.2879 0.4734
O27_4 O 0.3021(3) 0.3021(3) 0.3021(3)
O28_4 O 0.6459(2) 0.2588(3) 0.5744(2)
O29_4 O 0.3541(2) 0.2588(3) 0.4256(2)
O2_4 O 0.4256(2) 0.3541(2) 0.2588(3)
C1_4 C 0.4078(4) 0.4078(4) 0.2577(6)
C2_4 C 0.4556(3) 0.4556(3) 0.2565(6)
C3_4 C 0.4408(4) 0.5146(5) 0.2572(11)
H1_4 H 0.4003 0.5258 0.2578
C4_4 C 0.6510(5) 0.1905(4) 0.1905(4)
C5_4 C 0.5847(5) 0.2023(4) 0.2023(4)
C6_4 C 0.5539(4) 0.2455(4) 0.1706(4)
H2_4 H 0.5720 0.2658 0.1386
C7_4 C 0.4942(4) 0.2585(4) 0.1876(4)
H3_4 H 0.4734 0.2879 0.1661
N1_4 N 0.4663(3) 0.2317(3) 0.2317(3)
O4_4 O 0.6459(2) 0.5744(2) 0.2588(3)
C8_4 C 0.5922(4) 0.5922(4) 0.2577(6)
C9_4 C 0.5444(3) 0.5444(3) 0.2565(6)
C10_4 C 0.4854(5) 0.5592(4) 0.2572(11)
H4_4 H 0.4742 0.5997 0.2578
O5_4 O 0.3541(2) 0.4256(2) 0.2588(3)
C11_4 C 0.5146(5) 0.4408(4) 0.2572(11)
H5_4 H 0.5258 0.4003 0.2578
O6_4 O 0.5744(2) 0.6459(2) 0.2588(3)
C12_4 C 0.5592(4) 0.4854(5) 0.2572(11)
H6_4 H 0.5997 0.4742 0.2578
C13_4 C 0.5539(4) 0.1706(4) 0.2455(4)
H7_4 H 0.5720 0.1386 0.2658
C14_4 C 0.4942(4) 0.1876(4) 0.2585(4)
H8_4 H 0.4734 0.1661 0.2879
C15_4 C 0.3490(5) 0.8095(4) 0.1905(4)
C16_4 C 0.4153(5) 0.7977(4) 0.2023(4)
C17_4 C 0.4461(4) 0.7545(4) 0.1706(4)
H9_4 H 0.4280 0.7342 0.1386
C18_4 C 0.5058(4) 0.7415(4) 0.1876(4)
H10_4 H 0.5266 0.7121 0.1661
N2_4 N 0.5337(3) 0.7683(3) 0.2317(3)
C19_4 C 0.4461(4) 0.8294(4) 0.2455(4)
H11_4 H 0.4280 0.8614 0.2658
C20_4 C 0.5058(4) 0.8124(4) 0.2585(4)
H12_4 H 0.5266 0.8339 0.2879
C24_4 C 0.1905(4) 0.6510(5) 0.1905(4)
C25_4 C 0.2023(4) 0.5847(5) 0.2023(4)
C26_4 C 0.1706(4) 0.5539(4) 0.2455(4)
H14_4 H 0.1386 0.5720 0.2658
C27_4 C 0.1876(4) 0.4942(4) 0.2585(4)
H15_4 H 0.1661 0.4734 0.2879
N3_4 N 0.2317(3) 0.4663(3) 0.2317(3)
C33_4 C 0.2455(4) 0.5539(4) 0.1706(4)
H19_4 H 0.2658 0.5720 0.1386
C34_4 C 0.2585(4) 0.4942(4) 0.1876(4)
H20_4 H 0.2879 0.4734 0.1661
C38_4 C 0.8095(4) 0.3490(5) 0.1905(4)
C39_4 C 0.7977(4) 0.4153(5) 0.2023(4)
C40_4 C 0.8294(4) 0.4461(4) 0.2455(4)
H22_4 H 0.8614 0.4280 0.2658
C41_4 C 0.8124(4) 0.5058(4) 0.2585(4)
H23_4 H 0.8339 0.5266 0.2879
N4_4 N 0.7683(3) 0.5337(3) 0.2317(3)
C47_4 C 0.7545(4) 0.4461(4) 0.1706(4)
H27_4 H 0.7342 0.4280 0.1386
C48_4 C 0.7415(4) 0.5058(4) 0.1876(4)
H28_4 H 0.7121 0.5266 0.1661
O30_4 O 0.5744(2) 0.7412(3) 0.3541(2)
O31_4 O 0.4256(2) 0.2588(3) 0.3541(2)
C21_4 C 0.5922(4) 0.7423(6) 0.4078(4)
C22_4 C 0.5444(3) 0.7435(6) 0.4556(3)
C23_4 C 0.4854(5) 0.7428(11) 0.4408(4)
H13_4 H 0.4742 0.7422 0.4003
C28_4 C 0.4078(4) 0.7423(6) 0.5922(4)
C29_4 C 0.4556(3) 0.7435(6) 0.5444(3)
C30_4 C 0.4408(4) 0.7428(11) 0.4854(5)
H16_4 H 0.4003 0.7422 0.4742
C31_4 C 0.5592(4) 0.7428(11) 0.5146(5)
H17_4 H 0.5997 0.7422 0.5258
C32_4 C 0.5146(5) 0.7428(11) 0.5592(4)
H18_4 H 0.5258 0.7422 0.5997
C35_4 C 0.5922(4) 0.2577(6) 0.5922(4)
C36_4 C 0.5444(3) 0.2565(6) 0.5444(3)
C37_4 C 0.4854(5) 0.2572(11) 0.5592(4)
H21_4 H 0.4742 0.2578 0.5997
C42_4 C 0.4078(4) 0.2577(6) 0.4078(4)
C43_4 C 0.4556(3) 0.2565(6) 0.4556(3)
C44_4 C 0.4408(4) 0.2572(11) 0.5146(5)
H24_4 H 0.4003 0.2578 0.5258
C45_4 C 0.5592(4) 0.2572(11) 0.4854(5)
H25_4 H 0.5997 0.2578 0.4742
C46_4 C 0.5146(5) 0.2572(11) 0.4408(4)
H26_4 H 0.5258 0.2578 0.4003
loop_
_geom_bond_atom_site_label_1
_geom_bond_atom_site_label_2
_geom_bond_site_symmetry_1
_geom_bond_site_symmetry_2
H1 C3 1_555 1_555
C10 C3 1_555 1_555
H4 C10 1_555 1_555
O9 C15 1_555 1_555
C15 C16 1_555 1_555
C16 C17 1_555 1_555
C17 H9 1_555 1_555
C19 C16 1_555 1_555
H11 C19 1_555 1_555
O10 C15 1_555 1_555
O12 C24 1_555 1_555
C24 C25 1_555 1_555
C25 C26 1_555 1_555
C26 H14 1_555 1_555
H17 C31 1_555 1_555
H18 C32 1_555 1_555
C33 C25 1_555 1_555
H19 C33 1_555 1_555
O16 C24 1_555 1_555
O25 C55 1_555 1_555
C55 C56 1_555 1_555
C56 C57 1_555 1_555
C57 H33 1_555 1_555
C59 C56 1_555 1_555
H35 C59 1_555 1_555
O26 C55 1_555 1_555
In12 O12 1_555 1_555
In16 O10 1_555 1_555
In18 O9 1_555 1_555
C31 C32 1_555 1_555
O16 In18 1_555 1_555
O25 In16 1_555 1_555
O26 In12 1_555 1_555
O13 C28 1_555 1_555
C28 C29 1_555 1_555
O15 C28 1_555 1_555
In6 O13 1_555 1_555
H34 C58 1_555 1_555
N6 In6 1_555 1_555
C60 N6 1_555 1_555
H36 C60 1_555 1_555
In7 O15 1_555 1_555
O27 In6 1_555 1_555
O29 In6 1_555 1_555
O32 In6 1_555 1_555
O38 In6 1_555 1_555
C58 N6 1_555 1_555
In7 O27 1_555 1_555
In1 O1 1_555 1_555
O1 In3 1_555 1_555
O2 In1 1_555 1_555
C1 O2 1_555 1_555
C2 C1 1_555 1_555
H3 C7 1_555 1_555
N1 In1 1_555 1_555
O5 C1 1_555 1_555
C14 N1 1_555 1_555
H8 C14 1_555 1_555
In3 O5 1_555 1_555
O11 In3 1_555 1_555
C21 O11 1_555 1_555
C22 C21 1_555 1_555
H15 C27 1_555 1_555
N3 In3 1_555 1_555
O14 C21 1_555 1_555
C34 N3 1_555 1_555
H20 C34 1_555 1_555
In10 O1 1_555 1_555
O31 In1 1_555 1_555
O35 In1 1_555 1_555
O36 In3 1_555 1_555
O40 In3 1_555 1_555
O43 In1 1_555 1_555
C7 N1 1_555 1_555
C27 N3 1_555 1_555
O14 In10 1_555 1_555
H13 C23 1_555 1_555
C30 C23 1_555 1_555
H16 C30 1_555 1_555
O4 C8 1_555 1_555
C8 C9 1_555 1_555
O6 C8 1_555 1_555
In2 O6 1_555 1_555
O8 In2 1_555 1_555
H10 C18 1_555 1_555
N2 In2 1_555 1_555
C20 N2 1_555 1_555
H12 C20 1_555 1_555
In4 O4 1_555 1_555
O17 In4 1_555 1_555
C35 O17 1_555 1_555
C36 C35 1_555 1_555
H23 C41 1_555 1_555
N4 In4 1_555 1_555
O20 C35 1_555 1_555
C48 N4 1_555 1_555
H28 C48 1_555 1_555
In5 O8 1_555 1_555
H30 C52 1_555 1_555
N5 In5 1_555 1_555
C54 N5 1_555 1_555
H32 C54 1_555 1_555
O28 In5 1_555 1_555
O30 In2 1_555 1_555
O33 In5 1_555 1_555
O34 In2 1_555 1_555
O37 In4 1_555 1_555
O39 In5 1_555 1_555
O41 In4 1_555 1_555
O42 In2 1_555 1_555
O8 In4 1_555 1_555
C18 N2 1_555 1_555
C41 N4 1_555 1_555
O20 In5 1_555 1_555
C52 N5 1_555 1_555
H21 C37 1_555 1_555
C44 C37 1_555 1_555
H24 C44 1_555 1_555
O23 C49 1_555 1_555
C49 C50 1_555 1_555
C50 C51 1_555 1_555
C51 H29 1_555 1_555
C53 C50 1_555 1_555
H31 C53 1_555 1_555
O24 C49 1_555 1_555
In11 O24 1_555 1_555
In15 O23 1_555 1_555
O3 C4 1_555 1_555
C4 C5 1_555 1_555
C5 C6 1_555 1_555
C6 H2 1_555 1_555
H5 C11 1_555 1_555
H6 C12 1_555 1_555
C13 C5 1_555 1_555
H7 C13 1_555 1_555
O7 C4 1_555 1_555
O18 C38 1_555 1_555
C38 C39 1_555 1_555
C39 C40 1_555 1_555
C40 H22 1_555 1_555
H25 C45 1_555 1_555
H26 C46 1_555 1_555
C47 C39 1_555 1_555
H27 C47 1_555 1_555
O22 C38 1_555 1_555
In13 O18 1_555 1_555
In14 O7 1_555 1_555
In17 O3 1_555 1_555
C11 C12 1_555 1_555
C45 C46 1_555 1_555
O22 In17 1_555 1_555
O19 C42 1_555 1_555
C42 C43 1_555 1_555
O21 C42 1_555 1_555
In8 O21 1_555 1_555
In9 O19 1_555 1_555
H30_2 C52_2 1_555 1_555
N5_2 In10 1_555 1_555
C54_2 N5_2 1_555 1_555
H32_2 C54_2 1_555 1_555
O28_2 In10 1_555 1_555
O33_2 In10 1_555 1_555
O39_2 In10 1_555 1_555
C52_2 N5_2 1_555 1_555
O23_2 C49_2 1_555 1_555
C49_2 C50_2 1_555 1_555
C50_2 C51_2 1_555 1_555
C51_2 H29_2 1_555 1_555
C53_2 C50_2 1_555 1_555
H31_2 C53_2 1_555 1_555
O24_2 C49_2 1_555 1_555
In11_2 O24_2 1_555 1_555
In15_2 O23_2 1_555 1_555
O25_2 C55_2 1_555 1_555
C55_2 C56_2 1_555 1_555
C56_2 C57_2 1_555 1_555
C57_2 H33_2 1_555 1_555
C59_2 C56_2 1_555 1_555
H35_2 C59_2 1_555 1_555
O26_2 C55_2 1_555 1_555
O25_2 In14 1_555 1_555
O26_2 In13 1_555 1_555
H34_2 C58_2 1_555 1_555
N6_2 In9 1_555 1_555
C60_2 N6_2 1_555 1_555
H36_2 C60_2 1_555 1_555
O27_2 In9 1_555 1_555
O29_2 In9 1_555 1_555
O32_2 In9 1_555 1_555
O38_2 In9 1_555 1_555
C58_2 N6_2 1_555 1_555
In8 O27_2 1_555 1_555
O4_2 C8_2 1_555 1_555
C8_2 C9_2 1_555 1_555
O6_2 C8_2 1_555 1_555
In2_2 O6_2 1_555 1_555
O27 In2_2 1_555 1_555
H10_2 C18_2 1_555 1_555
N2_2 In2_2 1_555 1_555
C20_2 N2_2 1_555 1_555
H12_2 C20_2 1_555 1_555
In7 O4_2 1_555 1_555
H23_2 C41_2 1_555 1_555
N4_2 In7 1_555 1_555
C48_2 N4_2 1_555 1_555
H28_2 C48_2 1_555 1_555
O30_2 In2_2 1_555 1_555
O34_2 In2_2 1_555 1_555
O37_2 In7 1_555 1_555
O41_2 In7 1_555 1_555
O42_2 In2_2 1_555 1_555
C18_2 N2_2 1_555 1_555
C41_2 N4_2 1_555 1_555
O3_2 C4_2 1_555 1_555
C4_2 C5_2 1_555 1_555
C5_2 C6_2 1_555 1_555
C6_2 H2_2 1_555 1_555
H5_2 C11_2 1_555 1_555
H6_2 C12_2 1_555 1_555
C13_2 C5_2 1_555 1_555
H7_2 C13_2 1_555 1_555
O7_2 C4_2 1_555 1_555
O18_2 C38_2 1_555 1_555
C38_2 C39_2 1_555 1_555
C39_2 C40_2 1_555 1_555
C40_2 H22_2 1_555 1_555
C47_2 C39_2 1_555 1_555
H27_2 C47_2 1_555 1_555
O22_2 C38_2 1_555 1_555
In11_2 O18_2 1_555 1_555
In15_2 O7_2 1_555 1_555
In17_2 O3_2 1_555 1_555
C11_2 C12_2 1_555 1_555
O22_2 In17_2 1_555 1_555
H1_2 C3_2 1_555 1_555
C10_2 C3_2 1_555 1_555
H4_2 C10_2 1_555 1_555
O9_2 C15_2 1_555 1_555
C15_2 C16_2 1_555 1_555
C16_2 C17_2 1_555 1_555
C17_2 H9_2 1_555 1_555
C19_2 C16_2 1_555 1_555
H11_2 C19_2 1_555 1_555
O10_2 C15_2 1_555 1_555
O12_2 C24_2 1_555 1_555
C24_2 C25_2 1_555 1_555
C25_2 C26_2 1_555 1_555
C26_2 H14_2 1_555 1_555
C33_2 C25_2 1_555 1_555
H19_2 C33_2 1_555 1_555
O16_2 C24_2 1_555 1_555
In11 O12_2 1_555 1_555
In15 O10_2 1_555 1_555
In18_2 O9_2 1_555 1_555
O16_2 In18_2 1_555 1_555
In1_2 O27_2 1_555 1_555
O2_2 In1_2 1_555 1_555
C1_2 O2_2 1_555 1_555
C2_2 C1_2 1_555 1_555
H3_2 C7_2 1_555 1_555
N1_2 In1_2 1_555 1_555
O5_2 C1_2 1_555 1_555
C14_2 N1_2 1_555 1_555
H8_2 C14_2 1_555 1_555
In8 O5_2 1_555 1_555
H15_2 C27_2 1_555 1_555
N3_2 In8 1_555 1_555
C34_2 N3_2 1_555 1_555
H20_2 C34_2 1_555 1_555
O31_2 In1_2 1_555 1_555
O35_2 In1_2 1_555 1_555
O36_2 In8 1_555 1_555
O40_2 In8 1_555 1_555
O43_2 In1_2 1_555 1_555
C7_2 N1_2 1_555 1_555
C27_2 N3_2 1_555 1_555
H17_2 C31_2 1_555 1_555
H18_2 C32_2 1_555 1_555
C31_2 C32_2 1_555 1_555
C21_2 O29 1_555 1_555
C22_2 C21_2 1_555 1_555
O30_2 C21_2 1_555 1_555
C35_2 O28_2 1_555 1_555
C36_2 C35_2 1_555 1_555
O31 C35_2 1_555 1_555
H25_2 C45_2 1_555 1_555
H26_2 C46_2 1_555 1_555
C45_2 C46_2 1_555 1_555
O30 C28_2 1_555 1_555
C28_2 C29_2 1_555 1_555
O28 C28_2 1_555 1_555
H13_2 C23_2 1_555 1_555
C30_2 C23_2 1_555 1_555
H16_2 C30_2 1_555 1_555
H21_2 C37_2 1_555 1_555
C44_2 C37_2 1_555 1_555
H24_2 C44_2 1_555 1_555
O31_2 C42_2 1_555 1_555
C42_2 C43_2 1_555 1_555
O29_2 C42_2 1_555 1_555
In11 O1_2 1_555 1_555
O1_2 In15 1_555 1_555
O2_3 In11 1_555 1_555
O32 C4_3 1_555 1_555
C1_3 O2_3 1_555 1_555
C2_3 C1_3 1_555 1_555
C3_3 C2_3 1_555 1_555
H1_3 C3_3 1_555 1_555
C4_3 C5_3 1_555 1_555
C5_3 C6_3 1_555 1_555
C6_3 H2_3 1_555 1_555
C7_3 C6_3 1_555 1_555
H3_3 C7_3 1_555 1_555
N1_3 In11 1_555 1_555
O4_3 C8_3 1_555 1_555
C8_3 C9_3 1_555 1_555
C9_3 C10_3 1_555 1_555
C10_3 C3_3 1_555 1_555
H4_3 C10_3 1_555 1_555
O5_3 C1_3 1_555 1_555
C11_3 C2_3 1_555 1_555
H5_3 C11_3 1_555 1_555
O6_3 C8_3 1_555 1_555
C12_3 C9_3 1_555 1_555
H6_3 C12_3 1_555 1_555
C13_3 C5_3 1_555 1_555
H7_3 C13_3 1_555 1_555
C14_3 N1_3 1_555 1_555
H8_3 C14_3 1_555 1_555
O41_2 C4_3 1_555 1_555
In11_2 O6_3 1_555 1_555
O8_2 In11_2 1_555 1_555
O32_2 C15_3 1_555 1_555
C15_3 C16_3 1_555 1_555
C16_3 C17_3 1_555 1_555
C17_3 H9_3 1_555 1_555
C18_3 C17_3 1_555 1_555
H10_3 C18_3 1_555 1_555
N2_3 In11_2 1_555 1_555
C19_3 C16_3 1_555 1_555
H11_3 C19_3 1_555 1_555
C20_3 N2_3 1_555 1_555
H12_3 C20_3 1_555 1_555
O40_2 C15_3 1_555 1_555
In15 O5_3 1_555 1_555
O11_2 In15 1_555 1_555
O35_2 C24_3 1_555 1_555
C21_3 O11_2 1_555 1_555
C22_3 C21_3 1_555 1_555
C23_3 C22_3 1_555 1_555
H13_3 C23_3 1_555 1_555
C24_3 C25_3 1_555 1_555
C25_3 C26_3 1_555 1_555
C26_3 H14_3 1_555 1_555
C27_3 C26_3 1_555 1_555
H15_3 C27_3 1_555 1_555
N3_3 In15 1_555 1_555
O13_2 C28_3 1_555 1_555
C28_3 C29_3 1_555 1_555
C29_3 C30_3 1_555 1_555
C30_3 C23_3 1_555 1_555
H16_3 C30_3 1_555 1_555
O14_2 C21_3 1_555 1_555
C31_3 C22_3 1_555 1_555
H17_3 C31_3 1_555 1_555
O15_2 C28_3 1_555 1_555
C32_3 C29_3 1_555 1_555
H18_3 C32_3 1_555 1_555
C33_3 C25_3 1_555 1_555
H19_3 C33_3 1_555 1_555
C34_3 N3_3 1_555 1_555
H20_3 C34_3 1_555 1_555
O38_2 C24_3 1_555 1_555
In15_2 O4_3 1_555 1_555
O17_2 In15_2 1_555 1_555
O34_2 C38_3 1_555 1_555
C35_3 O17_2 1_555 1_555
C36_3 C35_3 1_555 1_555
C37_3 C36_3 1_555 1_555
H21_3 C37_3 1_555 1_555
C38_3 C39_3 1_555 1_555
C39_3 C40_3 1_555 1_555
C40_3 H22_3 1_555 1_555
C41_3 C40_3 1_555 1_555
H23_3 C41_3 1_555 1_555
N4_3 In15_2 1_555 1_555
O19_2 C42_3 1_555 1_555
C42_3 C43_3 1_555 1_555
C43_3 C44_3 1_555 1_555
C44_3 C37_3 1_555 1_555
H24_3 C44_3 1_555 1_555
O20_2 C35_3 1_555 1_555
C45_3 C36_3 1_555 1_555
H25_3 C45_3 1_555 1_555
O21_2 C42_3 1_555 1_555
C46_3 C43_3 1_555 1_555
H26_3 C46_3 1_555 1_555
C47_3 C39_3 1_555 1_555
H27_3 C47_3 1_555 1_555
C48_3 N4_3 1_555 1_555
H28_3 C48_3 1_555 1_555
O38 C38_3 1_555 1_555
In17_2 O8_2 1_555 1_555
O36 C49_3 1_555 1_555
C49_3 C50_3 1_555 1_555
C50_3 C51_3 1_555 1_555
C51_3 H29_3 1_555 1_555
C52_3 C51_3 1_555 1_555
H30_3 C52_3 1_555 1_555
N5_3 In17_2 1_555 1_555
C53_3 C50_3 1_555 1_555
H31_3 C53_3 1_555 1_555
C54_3 N5_3 1_555 1_555
H32_3 C54_3 1_555 1_555
O43 C49_3 1_555 1_555
In17 O13_2 1_555 1_555
O36_2 C55_3 1_555 1_555
C55_3 C56_3 1_555 1_555
C56_3 C57_3 1_555 1_555
C57_3 H33_3 1_555 1_555
C58_3 C57_3 1_555 1_555
H34_3 C58_3 1_555 1_555
N6_3 In17 1_555 1_555
C59_3 C56_3 1_555 1_555
H35_3 C59_3 1_555 1_555
C60_3 N6_3 1_555 1_555
H36_3 C60_3 1_555 1_555
O43_2 C55_3 1_555 1_555
In14 O15_2 1_555 1_555
In16 O21_2 1_555 1_555
In18 O19_2 1_555 1_555
In18_2 O1_2 1_555 1_555
O27_3 In17 1_555 1_555
O28_3 In17_2 1_555 1_555
O29_3 In17 1_555 1_555
O30_3 In11_2 1_555 1_555
O31_3 In11 1_555 1_555
C7_3 N1_3 1_555 1_555
C11_3 C12_3 1_555 1_555
C13_3 C14_3 1_555 1_555
O8_2 In15_2 1_555 1_555
C18_3 N2_3 1_555 1_555
C19_3 C20_3 1_555 1_555
C27_3 N3_3 1_555 1_555
O14_2 In18_2 1_555 1_555
C31_3 C32_3 1_555 1_555
C33_3 C34_3 1_555 1_555
C41_3 N4_3 1_555 1_555
O20_2 In17_2 1_555 1_555
C45_3 C46_3 1_555 1_555
C47_3 C48_3 1_555 1_555
C52_3 N5_3 1_555 1_555
C53_3 C54_3 1_555 1_555
C58_3 N6_3 1_555 1_555
C59_3 C60_3 1_555 1_555
In14 O27_3 1_555 1_555
O37 C49_4 1_555 1_555
C49_4 C50_4 1_555 1_555
C50_4 C51_4 1_555 1_555
C51_4 H29_4 1_555 1_555
C52_4 C51_4 1_555 1_555
H30_4 C52_4 1_555 1_555
N5_4 In18_2 1_555 1_555
C53_4 C50_4 1_555 1_555
H31_4 C53_4 1_555 1_555
C54_4 N5_4 1_555 1_555
H32_4 C54_4 1_555 1_555
O42 C49_4 1_555 1_555
O37_2 C55_4 1_555 1_555
C55_4 C56_4 1_555 1_555
C56_4 C57_4 1_555 1_555
C57_4 H33_4 1_555 1_555
C58_4 C57_4 1_555 1_555
H34_4 C58_4 1_555 1_555
N6_4 In18 1_555 1_555
C59_4 C56_4 1_555 1_555
H35_4 C59_4 1_555 1_555
C60_4 N6_4 1_555 1_555
H36_4 C60_4 1_555 1_555
O42_2 C55_4 1_555 1_555
O27_4 In18 1_555 1_555
O28_4 In18_2 1_555 1_555
O29_4 In18 1_555 1_555
C52_4 N5_4 1_555 1_555
C53_4 C54_4 1_555 1_555
C58_4 N6_4 1_555 1_555
C59_4 C60_4 1_555 1_555
In16 O27_4 1_555 1_555
In12 O27_4 1_555 1_555
O2_4 In12 1_555 1_555
O33 C4_4 1_555 1_555
C1_4 O2_4 1_555 1_555
C2_4 C1_4 1_555 1_555
C3_4 C2_4 1_555 1_555
H1_4 C3_4 1_555 1_555
C4_4 C5_4 1_555 1_555
C5_4 C6_4 1_555 1_555
C6_4 H2_4 1_555 1_555
C7_4 C6_4 1_555 1_555
H3_4 C7_4 1_555 1_555
N1_4 In12 1_555 1_555
O4_4 C8_4 1_555 1_555
C8_4 C9_4 1_555 1_555
C9_4 C10_4 1_555 1_555
C10_4 C3_4 1_555 1_555
H4_4 C10_4 1_555 1_555
O5_4 C1_4 1_555 1_555
C11_4 C2_4 1_555 1_555
H5_4 C11_4 1_555 1_555
O6_4 C8_4 1_555 1_555
C12_4 C9_4 1_555 1_555
H6_4 C12_4 1_555 1_555
C13_4 C5_4 1_555 1_555
H7_4 C13_4 1_555 1_555
C14_4 N1_4 1_555 1_555
H8_4 C14_4 1_555 1_555
O41 C4_4 1_555 1_555
In13 O6_4 1_555 1_555
O27_3 In13 1_555 1_555
O33_2 C15_4 1_555 1_555
C15_4 C16_4 1_555 1_555
C16_4 C17_4 1_555 1_555
C17_4 H9_4 1_555 1_555
C18_4 C17_4 1_555 1_555
H10_4 C18_4 1_555 1_555
N2_4 In13 1_555 1_555
C19_4 C16_4 1_555 1_555
H11_4 C19_4 1_555 1_555
C20_4 N2_4 1_555 1_555
H12_4 C20_4 1_555 1_555
O40 C15_4 1_555 1_555
In16 O5_4 1_555 1_555
O35 C24_4 1_555 1_555
C24_4 C25_4 1_555 1_555
C25_4 C26_4 1_555 1_555
C26_4 H14_4 1_555 1_555
C27_4 C26_4 1_555 1_555
H15_4 C27_4 1_555 1_555
N3_4 In16 1_555 1_555
C33_4 C25_4 1_555 1_555
H19_4 C33_4 1_555 1_555
C34_4 N3_4 1_555 1_555
H20_4 C34_4 1_555 1_555
O39_2 C24_4 1_555 1_555
In14 O4_4 1_555 1_555
O34 C38_4 1_555 1_555
C38_4 C39_4 1_555 1_555
C39_4 C40_4 1_555 1_555
C40_4 H22_4 1_555 1_555
C41_4 C40_4 1_555 1_555
H23_4 C41_4 1_555 1_555
N4_4 In14 1_555 1_555
C47_4 C39_4 1_555 1_555
H27_4 C47_4 1_555 1_555
C48_4 N4_4 1_555 1_555
H28_4 C48_4 1_555 1_555
O39 C38_4 1_555 1_555
O30_4 In13 1_555 1_555
O31_4 In12 1_555 1_555
C7_4 N1_4 1_555 1_555
C11_4 C12_4 1_555 1_555
C13_4 C14_4 1_555 1_555
C18_4 N2_4 1_555 1_555
C19_4 C20_4 1_555 1_555
C27_4 N3_4 1_555 1_555
C33_4 C34_4 1_555 1_555
C41_4 N4_4 1_555 1_555
C47_4 C48_4 1_555 1_555
C21_4 O29_3 1_555 1_555
C22_4 C21_4 1_555 1_555
C23_4 C22_4 1_555 1_555
H13_4 C23_4 1_555 1_555
O30_3 C28_4 1_555 1_555
C28_4 C29_4 1_555 1_555
C29_4 C30_4 1_555 1_555
C30_4 C23_4 1_555 1_555
H16_4 C30_4 1_555 1_555
O30_4 C21_4 1_555 1_555
C31_4 C22_4 1_555 1_555
H17_4 C31_4 1_555 1_555
O28_3 C28_4 1_555 1_555
C32_4 C29_4 1_555 1_555
H18_4 C32_4 1_555 1_555
C35_4 O28_4 1_555 1_555
C36_4 C35_4 1_555 1_555
C37_4 C36_4 1_555 1_555
H21_4 C37_4 1_555 1_555
O31_4 C42_4 1_555 1_555
C42_4 C43_4 1_555 1_555
C43_4 C44_4 1_555 1_555
C44_4 C37_4 1_555 1_555
H24_4 C44_4 1_555 1_555
O31_3 C35_4 1_555 1_555
C45_4 C36_4 1_555 1_555
H25_4 C45_4 1_555 1_555
O29_4 C42_4 1_555 1_555
C46_4 C43_4 1_555 1_555
H26_4 C46_4 1_555 1_555
C31_4 C32_4 1_555 1_555
C45_4 C46_4 1_555 1_555

#END
