
###############################################################################
#
# This file contains modified crystal structure data generated from the
# MOF subset of the Cambridge Structural Database (CSD) v543 
# hosted by the Cambridge Crystallographic Data Centre (CCDC).
#
# This work is licensed under the Creative Commons
# Attribution-NonCommercial-ShareAlike 4.0 International License.
# To view a copy of this license, visit
# http://creativecommons.org/licenses/by-nc-sa/4.0/
# or send a letter to
# Creative Commons, PO Box 1866, Mountain View, CA 94042, USA.
#
# CIF created using the CSD Python API on 29 September 2022
# The structure has been converted into the P1 space group
# The structure has a 3D framework
# The original CSD entry AGOWAW is in the cubic crystal system
# The original CSD entry AGOWAW is in a Sohncke space group
# The framework has been calculated to contain at least 10.0% void space
# The void calculation uses a probe of radius 1.32A, grid spacing 0.4
# The framework is charged, counterions have been retained in the structure
#
###############################################################################

data_AGOWAW
_chemical_formula_moiety         '(C384 H240 In24 N24 O100 20+)n'
_symmetry_cell_setting           triclinic
_symmetry_space_group_name_H-M   'P 1'
_symmetry_Int_Tables_number      1
_space_group_name_Hall           'P 1'
loop_
_symmetry_equiv_pos_site_id
_symmetry_equiv_pos_as_xyz
1 x,y,z
_cell_length_a                   27.7580(16)
_cell_length_b                   27.7580(16)
_cell_length_c                   27.7580(16)
_cell_angle_alpha                90
_cell_angle_beta                 90
_cell_angle_gamma                90
_cell_volume                     21387.7
loop_
_atom_site_label
_atom_site_type_symbol
_atom_site_fract_x
_atom_site_fract_y
_atom_site_fract_z
C31 C 0.8042(14) 0.0088(13) 0.7435(14)
H19 H 0.8323 0.0219 0.7308
N2 N 0.7829(10) 0.0295(9) 0.7838(11)
C32 C 0.7409(7) 0.0098(11) 0.8027(6)
H20 H 0.7266 0.0237 0.8297
In18 In 0.81507(7) 0.09530(6) 0.81500(7)
C67 C 0.2565(14) 0.1958(14) 0.0088(13)
H41 H 0.2692 0.1677 0.0219
N4 N 0.2162(11) 0.2171(10) 0.0295(9)
C68 C 0.1973(6) 0.2591(7) 0.0098(11)
H42 H 0.1703 0.2734 0.0237
C95 C 0.7435(14) 0.8042(14) 0.0088(13)
H59 H 0.7308 0.8323 0.0219
N6 N 0.7838(11) 0.7829(10) 0.0295(9)
C96 C 0.8027(6) 0.7409(7) 0.0098(11)
H60 H 0.8297 0.7266 0.0237
In15 In 0.81500(7) 0.81507(7) 0.09530(6)
In16 In 0.18500(7) 0.18493(7) 0.09530(6)
In1 In 0.68500(7) 0.31507(7) 0.40470(6)
O1 O 0.6545(6) 0.3455(6) 0.3455(6)
O2 O 0.6256(6) 0.2418(6) 0.3177(8)
O3 O 0.6818(7) 0.2430(7) 0.3765(6)
O4 O 0.6957(7) 0.4407(6) 0.3835(7)
O5 O 0.6942(8) 0.3827(7) 0.4408(7)
C1 C 0.6938(10) 0.4252(12) 0.4276(10)
C2 C 0.6608(12) 0.2260(10) 0.3406(13)
C3 C 0.6984(9) 0.4635(10) 0.4635(9)
C4 C 0.6961(13) 0.5110(10) 0.4521(12)
H1 H 0.6938 0.5210 0.4202
C5 C 0.6972(14) 0.4554(11) 0.5102(13)
H2 H 0.6969 0.4232 0.5194
C6 C 0.6790(8) 0.1762(7) 0.3197(8)
C7 C 0.7197(9) 0.1556(9) 0.3404(9)
H3 H 0.7337 0.1698 0.3674
C8 C 0.7394(9) 0.1139(9) 0.3210(10)
H4 H 0.7666 0.1001 0.3349
C9 C 0.7184(9) 0.0927(7) 0.2808(9)
C10 C 0.6777(10) 0.1132(9) 0.2600(9)
H5 H 0.6636 0.0990 0.2331
C11 C 0.6580(9) 0.1550(9) 0.2795(9)
H6 H 0.6308 0.1687 0.2656
C12 C 0.7202(9) 0.0305(13) 0.2187(10)
H7 H 0.6921 0.0436 0.2060
C13 C 0.7416(13) 0.0511(12) 0.2590(13)
C14 C 0.7836(15) 0.0315(13) 0.2779(13)
H8 H 0.7979 0.0453 0.3049
O6 O 0.6957(7) 0.5593(6) 0.6165(7)
O7 O 0.6942(8) 0.6173(7) 0.5592(7)
C17 C 0.6938(10) 0.5748(12) 0.5724(10)
C18 C 0.6984(9) 0.5365(10) 0.5365(9)
C19 C 0.6961(13) 0.4890(10) 0.5479(12)
H11 H 0.6938 0.4790 0.5798
C20 C 0.6972(14) 0.5446(11) 0.4898(13)
H12 H 0.6969 0.5768 0.4806
In2 In 0.68500(7) 0.68493(7) 0.59530(6)
O8 O 0.6545(6) 0.6545(6) 0.6545(6)
O9 O 0.6256(6) 0.7582(6) 0.6823(8)
O10 O 0.6818(7) 0.7570(7) 0.6235(6)
C21 C 0.6608(12) 0.7740(10) 0.6594(13)
C22 C 0.6790(8) 0.8238(7) 0.6803(8)
C23 C 0.7197(9) 0.8444(9) 0.6596(9)
H13 H 0.7337 0.8302 0.6326
C24 C 0.7394(9) 0.8861(9) 0.6790(10)
H14 H 0.7666 0.8999 0.6651
C25 C 0.7184(9) 0.9073(7) 0.7192(9)
C26 C 0.6777(10) 0.8868(9) 0.7400(9)
H15 H 0.6636 0.9010 0.7669
C27 C 0.6580(9) 0.8450(9) 0.7205(9)
H16 H 0.6308 0.8313 0.7344
C28 C 0.7202(9) 0.9695(13) 0.7813(10)
H17 H 0.6921 0.9564 0.7940
C29 C 0.7416(13) 0.9489(12) 0.7410(13)
C30 C 0.7836(15) 0.9685(13) 0.7221(13)
H18 H 0.7979 0.9547 0.6951
In3 In 0.40470(6) 0.68500(7) 0.31507(7)
O11 O 0.3177(8) 0.6256(6) 0.2418(6)
O12 O 0.3765(6) 0.6818(7) 0.2430(7)
O13 O 0.3835(7) 0.6957(7) 0.4407(6)
O14 O 0.4408(7) 0.6942(8) 0.3827(7)
C33 C 0.4276(10) 0.6938(10) 0.4252(12)
C34 C 0.3406(13) 0.6608(12) 0.2260(10)
C35 C 0.4635(9) 0.6984(9) 0.4635(10)
C36 C 0.4521(12) 0.6961(13) 0.5110(10)
H21 H 0.4202 0.6938 0.5210
C37 C 0.5102(13) 0.6972(14) 0.4554(11)
H22 H 0.5194 0.6969 0.4232
C38 C 0.3197(8) 0.6790(8) 0.1762(7)
C39 C 0.3404(9) 0.7197(9) 0.1556(9)
H23 H 0.3674 0.7337 0.1698
C40 C 0.3210(10) 0.7394(9) 0.1139(9)
H24 H 0.3349 0.7666 0.1001
C41 C 0.2808(9) 0.7184(9) 0.0927(7)
C42 C 0.2600(9) 0.6777(10) 0.1132(9)
H25 H 0.2331 0.6636 0.0990
C43 C 0.2795(9) 0.6580(9) 0.1550(9)
H26 H 0.2656 0.6308 0.1687
C44 C 0.2187(10) 0.7202(9) 0.0305(13)
H27 H 0.2060 0.6921 0.0436
C45 C 0.2590(13) 0.7416(13) 0.0511(12)
C46 C 0.2779(13) 0.7836(15) 0.0315(13)
H28 H 0.3049 0.7979 0.0453
O15 O 0.6165(7) 0.6957(7) 0.5593(6)
O16 O 0.5592(7) 0.6942(8) 0.6173(7)
C49 C 0.5724(10) 0.6938(10) 0.5748(12)
C50 C 0.5365(9) 0.6984(9) 0.5365(10)
C51 C 0.5479(12) 0.6961(13) 0.4890(10)
H31 H 0.5798 0.6938 0.4790
C52 C 0.4898(13) 0.6972(14) 0.5446(11)
H32 H 0.4806 0.6969 0.5768
In4 In 0.40470(6) 0.31500(7) 0.68493(7)
O17 O 0.3177(8) 0.3744(6) 0.7582(6)
O18 O 0.3765(6) 0.3182(7) 0.7570(7)
O19 O 0.3835(7) 0.3043(7) 0.5593(6)
O20 O 0.4408(7) 0.3058(8) 0.6173(7)
C53 C 0.4276(10) 0.3062(10) 0.5748(12)
C54 C 0.3406(13) 0.3392(12) 0.7740(10)
C55 C 0.4635(9) 0.3016(9) 0.5365(10)
C56 C 0.4521(12) 0.3039(13) 0.4890(10)
H33 H 0.4202 0.3062 0.4790
C57 C 0.5102(13) 0.3028(14) 0.5446(11)
H34 H 0.5194 0.3031 0.5768
C58 C 0.3197(8) 0.3210(8) 0.8238(7)
C59 C 0.3404(9) 0.2803(9) 0.8444(9)
H35 H 0.3674 0.2663 0.8302
C60 C 0.3210(10) 0.2606(9) 0.8861(9)
H36 H 0.3349 0.2334 0.8999
C61 C 0.2808(9) 0.2816(9) 0.9073(7)
C62 C 0.2600(9) 0.3223(10) 0.8868(9)
H37 H 0.2331 0.3364 0.9010
C63 C 0.2795(9) 0.3420(9) 0.8450(9)
H38 H 0.2656 0.3692 0.8313
C64 C 0.2187(10) 0.2798(9) 0.9695(13)
H39 H 0.2060 0.3079 0.9564
C65 C 0.2590(13) 0.2584(13) 0.9489(12)
C66 C 0.2779(13) 0.2164(15) 0.9685(13)
H40 H 0.3049 0.2021 0.9547
O21 O 0.6165(7) 0.3043(7) 0.4407(6)
O22 O 0.5592(7) 0.3058(8) 0.3827(7)
C69 C 0.5724(10) 0.3062(10) 0.4252(12)
C70 C 0.5365(9) 0.3016(9) 0.4635(10)
C71 C 0.5479(12) 0.3039(13) 0.5110(10)
H43 H 0.5798 0.3062 0.5210
C72 C 0.4898(13) 0.3028(14) 0.4554(11)
H44 H 0.4806 0.3031 0.4232
In5 In 0.59530(6) 0.31500(7) 0.31507(7)
O23 O 0.6823(8) 0.3744(6) 0.2418(6)
O24 O 0.6235(6) 0.3182(7) 0.2430(7)
C73 C 0.6594(13) 0.3392(12) 0.2260(10)
C74 C 0.6803(8) 0.3210(8) 0.1762(7)
C75 C 0.6596(9) 0.2803(9) 0.1556(9)
H45 H 0.6326 0.2663 0.1698
C76 C 0.6790(10) 0.2606(9) 0.1139(9)
H46 H 0.6651 0.2334 0.1001
C77 C 0.7192(9) 0.2816(9) 0.0927(7)
C78 C 0.7400(9) 0.3223(10) 0.1132(9)
H47 H 0.7669 0.3364 0.0990
C79 C 0.7205(9) 0.3420(9) 0.1550(9)
H48 H 0.7344 0.3692 0.1687
C80 C 0.7813(10) 0.2798(9) 0.0305(13)
H49 H 0.7940 0.3079 0.0436
C81 C 0.7410(13) 0.2584(13) 0.0511(12)
C82 C 0.7221(13) 0.2164(15) 0.0315(13)
H50 H 0.6951 0.2021 0.0453
In6 In 0.59530(6) 0.68500(7) 0.68493(7)
O25 O 0.6823(8) 0.6256(6) 0.7582(6)
O26 O 0.6235(6) 0.6818(7) 0.7570(7)
C85 C 0.6594(13) 0.6608(12) 0.7740(10)
C86 C 0.6803(8) 0.6790(8) 0.8238(7)
C87 C 0.6596(9) 0.7197(9) 0.8444(9)
H53 H 0.6326 0.7337 0.8302
C88 C 0.6790(10) 0.7394(9) 0.8861(9)
H54 H 0.6651 0.7666 0.8999
C89 C 0.7192(9) 0.7184(9) 0.9073(7)
C90 C 0.7400(9) 0.6777(10) 0.8868(9)
H55 H 0.7669 0.6636 0.9010
C91 C 0.7205(9) 0.6580(9) 0.8450(9)
H56 H 0.7344 0.6308 0.8313
C92 C 0.7813(10) 0.7202(9) 0.9695(13)
H57 H 0.7940 0.6921 0.9564
C93 C 0.7410(13) 0.7416(13) 0.9489(12)
C94 C 0.7221(13) 0.7836(15) 0.9685(13)
H58 H 0.6951 0.7979 0.9547
In7 In 0.31500(7) 0.68493(7) 0.40470(6)
In8 In 0.31500(7) 0.31507(7) 0.59530(6)
In9 In 0.31507(7) 0.40470(6) 0.68500(7)
In10 In 0.68493(7) 0.40470(6) 0.31500(7)
In11 In 0.31507(7) 0.59530(6) 0.31500(7)
In12 In 0.68493(7) 0.59530(6) 0.68500(7)
O27 O 0.3455(6) 0.6545(6) 0.3455(6)
O28 O 0.3455(6) 0.3455(6) 0.6545(6)
O29 O 0.3744(6) 0.7582(6) 0.3177(8)
O30 O 0.3744(6) 0.2418(6) 0.6823(8)
O31 O 0.7582(6) 0.3177(8) 0.3744(6)
O32 O 0.7582(6) 0.6823(8) 0.6256(6)
O33 O 0.4407(6) 0.3835(7) 0.6957(7)
O34 O 0.5593(6) 0.3835(7) 0.3043(7)
O35 O 0.4407(6) 0.6165(7) 0.3043(7)
O36 O 0.5593(6) 0.6165(7) 0.6957(7)
N7 N 0.7162(11) 0.2829(10) 0.4705(9)
N8 N 0.7162(11) 0.7171(10) 0.5295(9)
N9 N 0.4705(9) 0.7162(11) 0.2829(10)
N10 N 0.5295(9) 0.7162(11) 0.7171(10)
N11 N 0.4705(9) 0.2838(11) 0.7171(10)
N12 N 0.5295(9) 0.2838(11) 0.2829(10)
C47 C 0.2565(14) 0.8042(14) 0.9912(13)
H29 H 0.2692 0.8323 0.9781
N3 N 0.2162(11) 0.7829(10) 0.9705(9)
C48 C 0.1973(6) 0.7409(7) 0.9902(11)
H30 H 0.1703 0.7266 0.9763
C83 C 0.7435(14) 0.1958(14) 0.9912(13)
H51 H 0.7308 0.1677 0.9781
N5 N 0.7838(11) 0.2171(10) 0.9705(9)
C84 C 0.8027(6) 0.2591(7) 0.9902(11)
H52 H 0.8297 0.2734 0.9763
In13 In 0.18500(7) 0.81507(7) 0.90470(6)
In14 In 0.81500(7) 0.18493(7) 0.90470(6)
C15 C 0.8042(14) 0.9912(13) 0.2565(14)
H9 H 0.8323 0.9781 0.2692
N1 N 0.7829(10) 0.9705(9) 0.2162(11)
C16 C 0.7409(7) 0.9902(11) 0.1973(6)
H10 H 0.7266 0.9763 0.1703
In17 In 0.81507(7) 0.90470(6) 0.18500(7)
C15_2 C 0.1958(14) 0.0088(13) 0.2565(14)
H9_2 H 0.1677 0.0219 0.2692
N1_2 N 0.2171(10) 0.0295(9) 0.2162(11)
C16_2 C 0.2591(7) 0.0098(11) 0.1973(6)
H10_2 H 0.2734 0.0237 0.1703
In17_2 In 0.18493(7) 0.09530(6) 0.18500(7)
O3_2 O 0.3182(7) 0.7570(7) 0.3765(6)
O4_2 O 0.3043(7) 0.5593(6) 0.3835(7)
O5_2 O 0.3058(8) 0.6173(7) 0.4408(7)
C1_2 C 0.3062(10) 0.5748(12) 0.4276(10)
C2_2 C 0.3392(12) 0.7740(10) 0.3406(13)
C3_2 C 0.3016(9) 0.5365(10) 0.4635(9)
C4_2 C 0.3039(13) 0.4890(10) 0.4521(12)
H1_2 H 0.3062 0.4790 0.4202
C5_2 C 0.3028(14) 0.5446(11) 0.5102(13)
H2_2 H 0.3031 0.5768 0.5194
C6_2 C 0.3210(8) 0.8238(7) 0.3197(8)
C7_2 C 0.2803(9) 0.8444(9) 0.3404(9)
H3_2 H 0.2663 0.8302 0.3674
C8_2 C 0.2606(9) 0.8861(9) 0.3210(10)
H4_2 H 0.2334 0.8999 0.3349
C9_2 C 0.2816(9) 0.9073(7) 0.2808(9)
C10_2 C 0.3223(10) 0.8868(9) 0.2600(9)
H5_2 H 0.3364 0.9010 0.2331
C11_2 C 0.3420(9) 0.8450(9) 0.2795(9)
H6_2 H 0.3692 0.8313 0.2656
C12_2 C 0.2798(9) 0.9695(13) 0.2187(10)
H7_2 H 0.3079 0.9564 0.2060
C13_2 C 0.2584(13) 0.9489(12) 0.2590(13)
C14_2 C 0.2164(15) 0.9685(13) 0.2779(13)
H8_2 H 0.2021 0.9547 0.3049
O6_2 O 0.3043(7) 0.4407(6) 0.6165(7)
O7_2 O 0.3058(8) 0.3827(7) 0.5592(7)
C17_2 C 0.3062(10) 0.4252(12) 0.5724(10)
C18_2 C 0.3016(9) 0.4635(10) 0.5365(9)
C19_2 C 0.3039(13) 0.5110(10) 0.5479(12)
H11_2 H 0.3062 0.5210 0.5798
C20_2 C 0.3028(14) 0.4554(11) 0.4898(13)
H12_2 H 0.3031 0.4232 0.4806
O10_2 O 0.3182(7) 0.2430(7) 0.6235(6)
C21_2 C 0.3392(12) 0.2260(10) 0.6594(13)
C22_2 C 0.3210(8) 0.1762(7) 0.6803(8)
C23_2 C 0.2803(9) 0.1556(9) 0.6596(9)
H13_2 H 0.2663 0.1698 0.6326
C24_2 C 0.2606(9) 0.1139(9) 0.6790(10)
H14_2 H 0.2334 0.1001 0.6651
C25_2 C 0.2816(9) 0.0927(7) 0.7192(9)
C26_2 C 0.3223(10) 0.1132(9) 0.7400(9)
H15_2 H 0.3364 0.0990 0.7669
C27_2 C 0.3420(9) 0.1550(9) 0.7205(9)
H16_2 H 0.3692 0.1687 0.7344
C28_2 C 0.2798(9) 0.0305(13) 0.7813(10)
H17_2 H 0.3079 0.0436 0.7940
C29_2 C 0.2584(13) 0.0511(12) 0.7410(13)
C30_2 C 0.2164(15) 0.0315(13) 0.7221(13)
H18_2 H 0.2021 0.0453 0.6951
O31_2 O 0.2418(6) 0.6823(8) 0.3744(6)
O32_2 O 0.2418(6) 0.3177(8) 0.6256(6)
N7_2 N 0.2838(11) 0.7171(10) 0.4705(9)
N8_2 N 0.2838(11) 0.2829(10) 0.5295(9)
C31_2 C 0.1958(14) 0.9912(13) 0.7435(14)
H19_2 H 0.1677 0.9781 0.7308
N2_2 N 0.2171(10) 0.9705(9) 0.7838(11)
C32_2 C 0.2591(7) 0.9902(11) 0.8027(6)
H20_2 H 0.2734 0.9763 0.8297
In18_2 In 0.18493(7) 0.90470(6) 0.81500(7)
C67_2 C 0.0088(13) 0.2565(14) 0.1958(14)
H41_2 H 0.0219 0.2692 0.1677
N4_2 N 0.0295(9) 0.2162(11) 0.2171(10)
C68_2 C 0.0098(11) 0.1973(6) 0.2591(7)
H42_2 H 0.0237 0.1703 0.2734
C95_2 C 0.0088(13) 0.7435(14) 0.8042(14)
H59_2 H 0.0219 0.7308 0.8323
N6_2 N 0.0295(9) 0.7838(11) 0.7829(10)
C96_2 C 0.0098(11) 0.8027(6) 0.7409(7)
H60_2 H 0.0237 0.8297 0.7266
In15_2 In 0.09530(6) 0.81500(7) 0.81507(7)
In16_2 In 0.09530(6) 0.18500(7) 0.18493(7)
O12_2 O 0.2430(7) 0.3765(6) 0.6818(7)
O14_2 O 0.3827(7) 0.4408(7) 0.6942(8)
C33_2 C 0.4252(12) 0.4276(10) 0.6938(10)
C34_2 C 0.2260(10) 0.3406(13) 0.6608(12)
C35_2 C 0.4635(10) 0.4635(9) 0.6984(9)
C36_2 C 0.5110(10) 0.4521(12) 0.6961(13)
H21_2 H 0.5210 0.4202 0.6938
C37_2 C 0.4554(11) 0.5102(13) 0.6972(14)
H22_2 H 0.4232 0.5194 0.6969
C38_2 C 0.1762(7) 0.3197(8) 0.6790(8)
C39_2 C 0.1556(9) 0.3404(9) 0.7197(9)
H23_2 H 0.1698 0.3674 0.7337
C40_2 C 0.1139(9) 0.3210(10) 0.7394(9)
H24_2 H 0.1001 0.3349 0.7666
C41_2 C 0.0927(7) 0.2808(9) 0.7184(9)
C42_2 C 0.1132(9) 0.2600(9) 0.6777(10)
H25_2 H 0.0990 0.2331 0.6636
C43_2 C 0.1550(9) 0.2795(9) 0.6580(9)
H26_2 H 0.1687 0.2656 0.6308
C44_2 C 0.0305(13) 0.2187(10) 0.7202(9)
H27_2 H 0.0436 0.2060 0.6921
C45_2 C 0.0511(12) 0.2590(13) 0.7416(13)
C46_2 C 0.0315(13) 0.2779(13) 0.7836(15)
H28_2 H 0.0453 0.3049 0.7979
O16_2 O 0.6173(7) 0.5592(7) 0.6942(8)
C49_2 C 0.5748(12) 0.5724(10) 0.6938(10)
C50_2 C 0.5365(10) 0.5365(9) 0.6984(9)
C51_2 C 0.4890(10) 0.5479(12) 0.6961(13)
H31_2 H 0.4790 0.5798 0.6938
C52_2 C 0.5446(11) 0.4898(13) 0.6972(14)
H32_2 H 0.5768 0.4806 0.6969
O18_2 O 0.7570(7) 0.3765(6) 0.3182(7)
O20_2 O 0.6173(7) 0.4408(7) 0.3058(8)
C53_2 C 0.5748(12) 0.4276(10) 0.3062(10)
C54_2 C 0.7740(10) 0.3406(13) 0.3392(12)
C55_2 C 0.5365(10) 0.4635(9) 0.3016(9)
C56_2 C 0.4890(10) 0.4521(12) 0.3039(13)
H33_2 H 0.4790 0.4202 0.3062
C57_2 C 0.5446(11) 0.5102(13) 0.3028(14)
H34_2 H 0.5768 0.5194 0.3031
C58_2 C 0.8238(7) 0.3197(8) 0.3210(8)
C59_2 C 0.8444(9) 0.3404(9) 0.2803(9)
H35_2 H 0.8302 0.3674 0.2663
C60_2 C 0.8861(9) 0.3210(10) 0.2606(9)
H36_2 H 0.8999 0.3349 0.2334
C61_2 C 0.9073(7) 0.2808(9) 0.2816(9)
C62_2 C 0.8868(9) 0.2600(9) 0.3223(10)
H37_2 H 0.9010 0.2331 0.3364
C63_2 C 0.8450(9) 0.2795(9) 0.3420(9)
H38_2 H 0.8313 0.2656 0.3692
C64_2 C 0.9695(13) 0.2187(10) 0.2798(9)
H39_2 H 0.9564 0.2060 0.3079
C65_2 C 0.9489(12) 0.2590(13) 0.2584(13)
C66_2 C 0.9685(13) 0.2779(13) 0.2164(15)
H40_2 H 0.9547 0.3049 0.2021
O22_2 O 0.3827(7) 0.5592(7) 0.3058(8)
C69_2 C 0.4252(12) 0.5724(10) 0.3062(10)
C70_2 C 0.4635(10) 0.5365(9) 0.3016(9)
C71_2 C 0.5110(10) 0.5479(12) 0.3039(13)
H43_2 H 0.5210 0.5798 0.3062
C72_2 C 0.4554(11) 0.4898(13) 0.3028(14)
H44_2 H 0.4232 0.4806 0.3031
O24_2 O 0.2430(7) 0.6235(6) 0.3182(7)
C73_2 C 0.2260(10) 0.6594(13) 0.3392(12)
C74_2 C 0.1762(7) 0.6803(8) 0.3210(8)
C75_2 C 0.1556(9) 0.6596(9) 0.2803(9)
H45_2 H 0.1698 0.6326 0.2663
C76_2 C 0.1139(9) 0.6790(10) 0.2606(9)
H46_2 H 0.1001 0.6651 0.2334
C77_2 C 0.0927(7) 0.7192(9) 0.2816(9)
C78_2 C 0.1132(9) 0.7400(9) 0.3223(10)
H47_2 H 0.0990 0.7669 0.3364
C79_2 C 0.1550(9) 0.7205(9) 0.3420(9)
H48_2 H 0.1687 0.7344 0.3692
C80_2 C 0.0305(13) 0.7813(10) 0.2798(9)
H49_2 H 0.0436 0.7940 0.3079
C81_2 C 0.0511(12) 0.7410(13) 0.2584(13)
C82_2 C 0.0315(13) 0.7221(13) 0.2164(15)
H50_2 H 0.0453 0.6951 0.2021
O26_2 O 0.7570(7) 0.6235(6) 0.6818(7)
C85_2 C 0.7740(10) 0.6594(13) 0.6608(12)
C86_2 C 0.8238(7) 0.6803(8) 0.6790(8)
C87_2 C 0.8444(9) 0.6596(9) 0.7197(9)
H53_2 H 0.8302 0.6326 0.7337
C88_2 C 0.8861(9) 0.6790(10) 0.7394(9)
H54_2 H 0.8999 0.6651 0.7666
C89_2 C 0.9073(7) 0.7192(9) 0.7184(9)
C90_2 C 0.8868(9) 0.7400(9) 0.6777(10)
H55_2 H 0.9010 0.7669 0.6636
C91_2 C 0.8450(9) 0.7205(9) 0.6580(9)
H56_2 H 0.8313 0.7344 0.6308
C92_2 C 0.9695(13) 0.7813(10) 0.7202(9)
H57_2 H 0.9564 0.7940 0.6921
C93_2 C 0.9489(12) 0.7410(13) 0.7416(13)
C94_2 C 0.9685(13) 0.7221(13) 0.7836(15)
H58_2 H 0.9547 0.6951 0.7979
N9_2 N 0.2829(10) 0.4705(9) 0.7162(11)
N10_2 N 0.7171(10) 0.5295(9) 0.7162(11)
N11_2 N 0.7171(10) 0.4705(9) 0.2838(11)
N12_2 N 0.2829(10) 0.5295(9) 0.2838(11)
C47_2 C 0.9912(13) 0.2565(14) 0.8042(14)
H29_2 H 0.9781 0.2692 0.8323
N3_2 N 0.9705(9) 0.2162(11) 0.7829(10)
C48_2 C 0.9902(11) 0.1973(6) 0.7409(7)
H30_2 H 0.9763 0.1703 0.7266
C83_2 C 0.9912(13) 0.7435(14) 0.1958(14)
H51_2 H 0.9781 0.7308 0.1677
N5_2 N 0.9705(9) 0.7838(11) 0.2171(10)
C84_2 C 0.9902(11) 0.8027(6) 0.2591(7)
H52_2 H 0.9763 0.8297 0.2734
In13_2 In 0.90470(6) 0.18500(7) 0.81507(7)
In14_2 In 0.90470(6) 0.81500(7) 0.18493(7)
O6_3 O 0.1957(7) 0.0593(6) 0.1165(7)
O7_3 O 0.1942(8) 0.1173(7) 0.0592(7)
C17_3 C 0.1938(10) 0.0748(12) 0.0724(10)
C18_3 C 0.1984(9) 0.0365(10) 0.0365(9)
O8_2 O 0.1545(6) 0.1545(6) 0.1545(6)
O9_2 O 0.1256(6) 0.2582(6) 0.1823(8)
O10_3 O 0.1818(7) 0.2570(7) 0.1235(6)
C21_3 C 0.1608(12) 0.2740(10) 0.1594(13)
C22_3 C 0.1790(8) 0.3238(7) 0.1803(8)
C23_3 C 0.2197(9) 0.3444(9) 0.1596(9)
H13_3 H 0.2337 0.3302 0.1326
C24_3 C 0.2394(9) 0.3861(9) 0.1790(10)
H14_3 H 0.2666 0.3999 0.1651
C25_3 C 0.2184(9) 0.4073(7) 0.2192(9)
C26_3 C 0.1777(10) 0.3868(9) 0.2400(9)
H15_3 H 0.1636 0.4010 0.2669
C27_3 C 0.1580(9) 0.3450(9) 0.2205(9)
H16_3 H 0.1308 0.3313 0.2344
C28_3 C 0.2202(9) 0.4695(13) 0.2813(10)
H17_3 H 0.1921 0.4564 0.2940
C29_3 C 0.2416(13) 0.4489(12) 0.2410(13)
C30_3 C 0.2836(15) 0.4685(13) 0.2221(13)
H18_3 H 0.2979 0.4547 0.1951
C31_3 C 0.3042(14) 0.5088(13) 0.2435(14)
H19_3 H 0.3323 0.5219 0.2308
C32_3 C 0.2409(7) 0.5098(11) 0.3027(6)
H20_3 H 0.2266 0.5237 0.3297
O15_2 O 0.1165(7) 0.1957(7) 0.0593(6)
O16_3 O 0.0592(7) 0.1942(8) 0.1173(7)
C49_3 C 0.0724(10) 0.1938(10) 0.0748(12)
C50_3 C 0.0365(9) 0.1984(9) 0.0365(10)
O25_2 O 0.1823(8) 0.1256(6) 0.2582(6)
O26_3 O 0.1235(6) 0.1818(7) 0.2570(7)
C85_3 C 0.1594(13) 0.1608(12) 0.2740(10)
C86_3 C 0.1803(8) 0.1790(8) 0.3238(7)
C87_3 C 0.1596(9) 0.2197(9) 0.3444(9)
H53_3 H 0.1326 0.2337 0.3302
C88_3 C 0.1790(10) 0.2394(9) 0.3861(9)
H54_3 H 0.1651 0.2666 0.3999
C89_3 C 0.2192(9) 0.2184(9) 0.4073(7)
C90_3 C 0.2400(9) 0.1777(10) 0.3868(9)
H55_3 H 0.2669 0.1636 0.4010
C91_3 C 0.2205(9) 0.1580(9) 0.3450(9)
H56_3 H 0.2344 0.1308 0.3313
C92_3 C 0.2813(10) 0.2202(9) 0.4695(13)
H57_3 H 0.2940 0.1921 0.4564
C93_3 C 0.2410(13) 0.2416(13) 0.4489(12)
C94_3 C 0.2221(13) 0.2836(15) 0.4685(13)
H58_3 H 0.1951 0.2979 0.4547
C95_3 C 0.2435(14) 0.3042(14) 0.5088(13)
H59_3 H 0.2308 0.3323 0.5219
C96_3 C 0.3027(6) 0.2409(7) 0.5098(11)
H60_3 H 0.3297 0.2266 0.5237
O32_3 O 0.2582(6) 0.1823(8) 0.1256(6)
O36_2 O 0.0593(6) 0.1165(7) 0.1957(7)
O1_2 O 0.1545(6) 0.8455(6) 0.8455(6)
O2_2 O 0.1256(6) 0.7418(6) 0.8177(8)
O3_3 O 0.1818(7) 0.7430(7) 0.8765(6)
O4_3 O 0.1957(7) 0.9407(6) 0.8835(7)
O5_3 O 0.1942(8) 0.8827(7) 0.9408(7)
C1_3 C 0.1938(10) 0.9252(12) 0.9276(10)
C2_3 C 0.1608(12) 0.7260(10) 0.8406(13)
C3_3 C 0.1984(9) 0.9635(10) 0.9635(9)
C6_3 C 0.1790(8) 0.6762(7) 0.8197(8)
C7_3 C 0.2197(9) 0.6556(9) 0.8404(9)
H3_3 H 0.2337 0.6698 0.8674
C8_3 C 0.2394(9) 0.6139(9) 0.8210(10)
H4_3 H 0.2666 0.6001 0.8349
C9_3 C 0.2184(9) 0.5927(7) 0.7808(9)
C10_3 C 0.1777(10) 0.6132(9) 0.7600(9)
H5_3 H 0.1636 0.5990 0.7331
C11_3 C 0.1580(9) 0.6550(9) 0.7795(9)
H6_3 H 0.1308 0.6687 0.7656
C12_3 C 0.2202(9) 0.5305(13) 0.7187(10)
H7_3 H 0.1921 0.5436 0.7060
C13_3 C 0.2416(13) 0.5511(12) 0.7590(13)
C14_3 C 0.2836(15) 0.5315(13) 0.7779(13)
H8_3 H 0.2979 0.5453 0.8049
C15_3 C 0.3042(14) 0.4912(13) 0.7565(14)
H9_3 H 0.3323 0.4781 0.7692
C16_3 C 0.2409(7) 0.4902(11) 0.6973(6)
H10_3 H 0.2266 0.4763 0.6703
O21_2 O 0.1165(7) 0.8043(7) 0.9407(6)
O22_3 O 0.0592(7) 0.8058(8) 0.8827(7)
C69_3 C 0.0724(10) 0.8062(10) 0.9252(12)
C70_3 C 0.0365(9) 0.8016(9) 0.9635(10)
O23_2 O 0.1823(8) 0.8744(6) 0.7418(6)
O24_3 O 0.1235(6) 0.8182(7) 0.7430(7)
C73_3 C 0.1594(13) 0.8392(12) 0.7260(10)
C74_3 C 0.1803(8) 0.8210(8) 0.6762(7)
C75_3 C 0.1596(9) 0.7803(9) 0.6556(9)
H45_3 H 0.1326 0.7663 0.6698
C76_3 C 0.1790(10) 0.7606(9) 0.6139(9)
H46_3 H 0.1651 0.7334 0.6001
C77_3 C 0.2192(9) 0.7816(9) 0.5927(7)
C78_3 C 0.2400(9) 0.8223(10) 0.6132(9)
H47_3 H 0.2669 0.8364 0.5990
C79_3 C 0.2205(9) 0.8420(9) 0.6550(9)
H48_3 H 0.2344 0.8692 0.6687
C80_3 C 0.2813(10) 0.7798(9) 0.5305(13)
H49_3 H 0.2940 0.8079 0.5436
C81_3 C 0.2410(13) 0.7584(13) 0.5511(12)
C82_3 C 0.2221(13) 0.7164(15) 0.5315(13)
H50_3 H 0.1951 0.7021 0.5453
C83_3 C 0.2435(14) 0.6958(14) 0.4912(13)
H51_3 H 0.2308 0.6677 0.4781
C84_3 C 0.3027(6) 0.7591(7) 0.4902(11)
H52_3 H 0.3297 0.7734 0.4763
O31_3 O 0.2582(6) 0.8177(8) 0.8744(6)
O34_2 O 0.0593(6) 0.8835(7) 0.8043(7)
O11_2 O 0.8177(8) 0.1256(6) 0.7418(6)
O12_3 O 0.8765(6) 0.1818(7) 0.7430(7)
O13_2 O 0.8835(7) 0.1957(7) 0.9407(6)
O14_3 O 0.9408(7) 0.1942(8) 0.8827(7)
C33_3 C 0.9276(10) 0.1938(10) 0.9252(12)
C34_3 C 0.8406(13) 0.1608(12) 0.7260(10)
C35_3 C 0.9635(9) 0.1984(9) 0.9635(10)
C38_3 C 0.8197(8) 0.1790(8) 0.6762(7)
C39_3 C 0.8404(9) 0.2197(9) 0.6556(9)
H23_3 H 0.8674 0.2337 0.6698
C40_3 C 0.8210(10) 0.2394(9) 0.6139(9)
H24_3 H 0.8349 0.2666 0.6001
C41_3 C 0.7808(9) 0.2184(9) 0.5927(7)
C42_3 C 0.7600(9) 0.1777(10) 0.6132(9)
H25_3 H 0.7331 0.1636 0.5990
C43_3 C 0.7795(9) 0.1580(9) 0.6550(9)
H26_3 H 0.7656 0.1308 0.6687
C44_3 C 0.7187(10) 0.2202(9) 0.5305(13)
H27_3 H 0.7060 0.1921 0.5436
C45_3 C 0.7590(13) 0.2416(13) 0.5511(12)
C46_3 C 0.7779(13) 0.2836(15) 0.5315(13)
H28_3 H 0.8049 0.2979 0.5453
C47_3 C 0.7565(14) 0.3042(14) 0.4912(13)
H29_3 H 0.7692 0.3323 0.4781
C48_3 C 0.6973(6) 0.2409(7) 0.4902(11)
H30_3 H 0.6703 0.2266 0.4763
O27_2 O 0.8455(6) 0.1545(6) 0.8455(6)
O29_2 O 0.8744(6) 0.2582(6) 0.8177(8)
O35_2 O 0.9407(6) 0.1165(7) 0.8043(7)
O17_2 O 0.8177(8) 0.8744(6) 0.2582(6)
O18_3 O 0.8765(6) 0.8182(7) 0.2570(7)
O19_2 O 0.8835(7) 0.8043(7) 0.0593(6)
O20_3 O 0.9408(7) 0.8058(8) 0.1173(7)
C53_3 C 0.9276(10) 0.8062(10) 0.0748(12)
C54_3 C 0.8406(13) 0.8392(12) 0.2740(10)
C55_3 C 0.9635(9) 0.8016(9) 0.0365(10)
C58_3 C 0.8197(8) 0.8210(8) 0.3238(7)
C59_3 C 0.8404(9) 0.7803(9) 0.3444(9)
H35_3 H 0.8674 0.7663 0.3302
C60_3 C 0.8210(10) 0.7606(9) 0.3861(9)
H36_3 H 0.8349 0.7334 0.3999
C61_3 C 0.7808(9) 0.7816(9) 0.4073(7)
C62_3 C 0.7600(9) 0.8223(10) 0.3868(9)
H37_3 H 0.7331 0.8364 0.4010
C63_3 C 0.7795(9) 0.8420(9) 0.3450(9)
H38_3 H 0.7656 0.8692 0.3313
C64_3 C 0.7187(10) 0.7798(9) 0.4695(13)
H39_3 H 0.7060 0.8079 0.4564
C65_3 C 0.7590(13) 0.7584(13) 0.4489(12)
C66_3 C 0.7779(13) 0.7164(15) 0.4685(13)
H40_3 H 0.8049 0.7021 0.4547
C67_3 C 0.7565(14) 0.6958(14) 0.5088(13)
H41_3 H 0.7692 0.6677 0.5219
C68_3 C 0.6973(6) 0.7591(7) 0.5098(11)
H42_3 H 0.6703 0.7734 0.5237
O28_2 O 0.8455(6) 0.8455(6) 0.1545(6)
O30_2 O 0.8744(6) 0.7418(6) 0.1823(8)
O33_2 O 0.9407(6) 0.8835(7) 0.1957(7)
O3_4 O 0.8182(7) 0.2570(7) 0.8765(6)
O4_4 O 0.8043(7) 0.0593(6) 0.8835(7)
O5_4 O 0.8058(8) 0.1173(7) 0.9408(7)
C1_4 C 0.8062(10) 0.0748(12) 0.9276(10)
C2_4 C 0.8392(12) 0.2740(10) 0.8406(13)
C3_4 C 0.8016(9) 0.0365(10) 0.9635(9)
C6_4 C 0.8210(8) 0.3238(7) 0.8197(8)
C7_4 C 0.7803(9) 0.3444(9) 0.8404(9)
H3_4 H 0.7663 0.3302 0.8674
C8_4 C 0.7606(9) 0.3861(9) 0.8210(10)
H4_4 H 0.7334 0.3999 0.8349
C9_4 C 0.7816(9) 0.4073(7) 0.7808(9)
C10_4 C 0.8223(10) 0.3868(9) 0.7600(9)
H5_4 H 0.8364 0.4010 0.7331
C11_4 C 0.8420(9) 0.3450(9) 0.7795(9)
H6_4 H 0.8692 0.3313 0.7656
C12_4 C 0.7798(9) 0.4695(13) 0.7187(10)
H7_4 H 0.8079 0.4564 0.7060
C13_4 C 0.7584(13) 0.4489(12) 0.7590(13)
C14_4 C 0.7164(15) 0.4685(13) 0.7779(13)
H8_4 H 0.7021 0.4547 0.8049
C15_4 C 0.6958(14) 0.5088(13) 0.7565(14)
H9_4 H 0.6677 0.5219 0.7692
C16_4 C 0.7591(7) 0.5098(11) 0.6973(6)
H10_4 H 0.7734 0.5237 0.6703
O31_4 O 0.7418(6) 0.1823(8) 0.8744(6)
O6_4 O 0.8043(7) 0.9407(6) 0.1165(7)
O7_4 O 0.8058(8) 0.8827(7) 0.0592(7)
C17_4 C 0.8062(10) 0.9252(12) 0.0724(10)
C18_4 C 0.8016(9) 0.9635(10) 0.0365(9)
O10_4 O 0.8182(7) 0.7430(7) 0.1235(6)
C21_4 C 0.8392(12) 0.7260(10) 0.1594(13)
C22_4 C 0.8210(8) 0.6762(7) 0.1803(8)
C23_4 C 0.7803(9) 0.6556(9) 0.1596(9)
H13_4 H 0.7663 0.6698 0.1326
C24_4 C 0.7606(9) 0.6139(9) 0.1790(10)
H14_4 H 0.7334 0.6001 0.1651
C25_4 C 0.7816(9) 0.5927(7) 0.2192(9)
C26_4 C 0.8223(10) 0.6132(9) 0.2400(9)
H15_4 H 0.8364 0.5990 0.2669
C27_4 C 0.8420(9) 0.6550(9) 0.2205(9)
H16_4 H 0.8692 0.6687 0.2344
C28_4 C 0.7798(9) 0.5305(13) 0.2813(10)
H17_4 H 0.8079 0.5436 0.2940
C29_4 C 0.7584(13) 0.5511(12) 0.2410(13)
C30_4 C 0.7164(15) 0.5315(13) 0.2221(13)
H18_4 H 0.7021 0.5453 0.1951
C31_4 C 0.6958(14) 0.4912(13) 0.2435(14)
H19_4 H 0.6677 0.4781 0.2308
C32_4 C 0.7591(7) 0.4902(11) 0.3027(6)
H20_4 H 0.7734 0.4763 0.3297
O32_4 O 0.7418(6) 0.8177(8) 0.1256(6)
O16_4 O 0.1173(7) 0.0592(7) 0.1942(8)
C49_4 C 0.0748(12) 0.0724(10) 0.1938(10)
C50_4 C 0.0365(10) 0.0365(9) 0.1984(9)
O26_4 O 0.2570(7) 0.1235(6) 0.1818(7)
C85_4 C 0.2740(10) 0.1594(13) 0.1608(12)
C86_4 C 0.3238(7) 0.1803(8) 0.1790(8)
C87_4 C 0.3444(9) 0.1596(9) 0.2197(9)
H53_4 H 0.3302 0.1326 0.2337
C88_4 C 0.3861(9) 0.1790(10) 0.2394(9)
H54_4 H 0.3999 0.1651 0.2666
C89_4 C 0.4073(7) 0.2192(9) 0.2184(9)
C90_4 C 0.3868(9) 0.2400(9) 0.1777(10)
H55_4 H 0.4010 0.2669 0.1636
C91_4 C 0.3450(9) 0.2205(9) 0.1580(9)
H56_4 H 0.3313 0.2344 0.1308
C92_4 C 0.4695(13) 0.2813(10) 0.2202(9)
H57_4 H 0.4564 0.2940 0.1921
C93_4 C 0.4489(12) 0.2410(13) 0.2416(13)
C94_4 C 0.4685(13) 0.2221(13) 0.2836(15)
H58_4 H 0.4547 0.1951 0.2979
C95_4 C 0.5088(13) 0.2435(14) 0.3042(14)
H59_4 H 0.5219 0.2308 0.3323
C96_4 C 0.5098(11) 0.3027(6) 0.2409(7)
H60_4 H 0.5237 0.3297 0.2266
O18_4 O 0.2570(7) 0.8765(6) 0.8182(7)
O20_4 O 0.1173(7) 0.9408(7) 0.8058(8)
C53_4 C 0.0748(12) 0.9276(10) 0.8062(10)
C54_4 C 0.2740(10) 0.8406(13) 0.8392(12)
C55_4 C 0.0365(10) 0.9635(9) 0.8016(9)
C58_4 C 0.3238(7) 0.8197(8) 0.8210(8)
C59_4 C 0.3444(9) 0.8404(9) 0.7803(9)
H35_4 H 0.3302 0.8674 0.7663
C60_4 C 0.3861(9) 0.8210(10) 0.7606(9)
H36_4 H 0.3999 0.8349 0.7334
C61_4 C 0.4073(7) 0.7808(9) 0.7816(9)
C62_4 C 0.3868(9) 0.7600(9) 0.8223(10)
H37_4 H 0.4010 0.7331 0.8364
C63_4 C 0.3450(9) 0.7795(9) 0.8420(9)
H38_4 H 0.3313 0.7656 0.8692
C64_4 C 0.4695(13) 0.7187(10) 0.7798(9)
H39_4 H 0.4564 0.7060 0.8079
C65_4 C 0.4489(12) 0.7590(13) 0.7584(13)
C66_4 C 0.4685(13) 0.7779(13) 0.7164(15)
H40_4 H 0.4547 0.8049 0.7021
C67_4 C 0.5088(13) 0.7565(14) 0.6958(14)
H41_4 H 0.5219 0.7692 0.6677
C68_4 C 0.5098(11) 0.6973(6) 0.7591(7)
H42_4 H 0.5237 0.6703 0.7734
O22_4 O 0.8827(7) 0.0592(7) 0.8058(8)
C69_4 C 0.9252(12) 0.0724(10) 0.8062(10)
C70_4 C 0.9635(10) 0.0365(9) 0.8016(9)
O24_4 O 0.7430(7) 0.1235(6) 0.8182(7)
C73_4 C 0.7260(10) 0.1594(13) 0.8392(12)
C74_4 C 0.6762(7) 0.1803(8) 0.8210(8)
C75_4 C 0.6556(9) 0.1596(9) 0.7803(9)
H45_4 H 0.6698 0.1326 0.7663
C76_4 C 0.6139(9) 0.1790(10) 0.7606(9)
H46_4 H 0.6001 0.1651 0.7334
C77_4 C 0.5927(7) 0.2192(9) 0.7816(9)
C78_4 C 0.6132(9) 0.2400(9) 0.8223(10)
H47_4 H 0.5990 0.2669 0.8364
C79_4 C 0.6550(9) 0.2205(9) 0.8420(9)
H48_4 H 0.6687 0.2344 0.8692
C80_4 C 0.5305(13) 0.2813(10) 0.7798(9)
H49_4 H 0.5436 0.2940 0.8079
C81_4 C 0.5511(12) 0.2410(13) 0.7584(13)
C82_4 C 0.5315(13) 0.2221(13) 0.7164(15)
H50_4 H 0.5453 0.1951 0.7021
C83_4 C 0.4912(13) 0.2435(14) 0.6958(14)
H51_4 H 0.4781 0.2308 0.6677
C84_4 C 0.4902(11) 0.3027(6) 0.7591(7)
H52_4 H 0.4763 0.3297 0.7734
O12_4 O 0.7430(7) 0.8765(6) 0.1818(7)
O14_4 O 0.8827(7) 0.9408(7) 0.1942(8)
C33_4 C 0.9252(12) 0.9276(10) 0.1938(10)
C34_4 C 0.7260(10) 0.8406(13) 0.1608(12)
C35_4 C 0.9635(10) 0.9635(9) 0.1984(9)
C38_4 C 0.6762(7) 0.8197(8) 0.1790(8)
C39_4 C 0.6556(9) 0.8404(9) 0.2197(9)
H23_4 H 0.6698 0.8674 0.2337
C40_4 C 0.6139(9) 0.8210(10) 0.2394(9)
H24_4 H 0.6001 0.8349 0.2666
C41_4 C 0.5927(7) 0.7808(9) 0.2184(9)
C42_4 C 0.6132(9) 0.7600(9) 0.1777(10)
H25_4 H 0.5990 0.7331 0.1636
C43_4 C 0.6550(9) 0.7795(9) 0.1580(9)
H26_4 H 0.6687 0.7656 0.1308
C44_4 C 0.5305(13) 0.7187(10) 0.2202(9)
H27_4 H 0.5436 0.7060 0.1921
C45_4 C 0.5511(12) 0.7590(13) 0.2416(13)
C46_4 C 0.5315(13) 0.7779(13) 0.2836(15)
H28_4 H 0.5453 0.8049 0.2979
C47_4 C 0.4912(13) 0.7565(14) 0.3042(14)
H29_4 H 0.4781 0.7692 0.3323
C48_4 C 0.4902(11) 0.6973(6) 0.2409(7)
H30_4 H 0.4763 0.6703 0.2266
C4_3 C 0.1961(13) 0.0110(10) 0.9521(12)
H1_3 H 0.1938 0.0210 0.9202
C20_3 C 0.1972(14) 0.0446(11) 0.9898(13)
H12_3 H 0.1969 0.0768 0.9806
C37_3 C 0.0102(13) 0.1972(14) 0.9554(11)
H22_3 H 0.0194 0.1969 0.9232
C51_3 C 0.0479(12) 0.1961(13) 0.9890(10)
H31_3 H 0.0798 0.1938 0.9790
C57_3 C 0.0446(11) 0.0102(13) 0.8028(14)
H34_3 H 0.0768 0.0194 0.8031
C71_3 C 0.0110(10) 0.0479(12) 0.8039(13)
H43_3 H 0.0210 0.0798 0.8062
C5_3 C 0.1972(14) 0.9554(11) 0.0102(13)
H2_3 H 0.1969 0.9232 0.0194
C19_3 C 0.1961(13) 0.9890(10) 0.0479(12)
H11_3 H 0.1938 0.9790 0.0798
C57_4 C 0.0102(13) 0.8028(14) 0.0446(11)
H34_4 H 0.0194 0.8031 0.0768
C71_4 C 0.0479(12) 0.8039(13) 0.0110(10)
H43_4 H 0.0798 0.8062 0.0210
C36_3 C 0.0110(10) 0.9521(12) 0.1961(13)
H21_3 H 0.0210 0.9202 0.1938
C52_3 C 0.0446(11) 0.9898(13) 0.1972(14)
H32_3 H 0.0768 0.9806 0.1969
C36_4 C 0.9521(12) 0.1961(13) 0.0110(10)
H21_4 H 0.9202 0.1938 0.0210
C52_4 C 0.9898(13) 0.1972(14) 0.0446(11)
H32_4 H 0.9806 0.1969 0.0768
C5_4 C 0.8028(14) 0.0446(11) 0.0102(13)
H2_4 H 0.8031 0.0768 0.0194
C19_4 C 0.8039(13) 0.0110(10) 0.0479(12)
H11_4 H 0.8062 0.0210 0.0798
C37_4 C 0.9554(11) 0.0102(13) 0.1972(14)
H22_4 H 0.9232 0.0194 0.1969
C51_4 C 0.9890(10) 0.0479(12) 0.1961(13)
H31_4 H 0.9790 0.0798 0.1938
C56_3 C 0.9521(12) 0.8039(13) 0.9890(10)
H33_3 H 0.9202 0.8062 0.9790
C72_3 C 0.9898(13) 0.8028(14) 0.9554(11)
H44_3 H 0.9806 0.8031 0.9232
C4_4 C 0.8039(13) 0.9890(10) 0.9521(12)
H1_4 H 0.8062 0.9790 0.9202
C20_4 C 0.8028(14) 0.9554(11) 0.9898(13)
H12_4 H 0.8031 0.9232 0.9806
C56_4 C 0.9890(10) 0.9521(12) 0.8039(13)
H33_4 H 0.9790 0.9202 0.8062
C72_4 C 0.9554(11) 0.9898(13) 0.8028(14)
H44_4 H 0.9232 0.9806 0.8031
loop_
_geom_bond_atom_site_label_1
_geom_bond_atom_site_label_2
_geom_bond_site_symmetry_1
_geom_bond_site_symmetry_2
H19 C31 1_555 1_555
N2 C31 1_555 1_555
H20 C32 1_555 1_555
In18 N2 1_555 1_555
N2 C32 1_555 1_555
H41 C67 1_555 1_555
N4 C67 1_555 1_555
H42 C68 1_555 1_555
H59 C95 1_555 1_555
N6 C95 1_555 1_555
H60 C96 1_555 1_555
In15 N6 1_555 1_555
In16 N4 1_555 1_555
N4 C68 1_555 1_555
N6 C96 1_555 1_555
In1 O1 1_555 1_555
O1 In5 1_555 1_555
O2 C2 1_555 1_555
O3 In1 1_555 1_555
O4 C1 1_555 1_555
O5 In1 1_555 1_555
C1 O5 1_555 1_555
C2 O3 1_555 1_555
C3 C1 1_555 1_555
C4 C3 1_555 1_555
H1 C4 1_555 1_555
C5 C3 1_555 1_555
H2 C5 1_555 1_555
C6 C2 1_555 1_555
C7 C6 1_555 1_555
H3 C7 1_555 1_555
C8 C7 1_555 1_555
H4 C8 1_555 1_555
C9 C8 1_555 1_555
C10 C9 1_555 1_555
H5 C10 1_555 1_555
C11 C6 1_555 1_555
H6 C11 1_555 1_555
C12 H7 1_555 1_555
C13 C9 1_555 1_555
C14 C13 1_555 1_555
H8 C14 1_555 1_555
O6 C17 1_555 1_555
O7 C17 1_555 1_555
C17 C18 1_555 1_555
C18 C19 1_555 1_555
C19 C5 1_555 1_555
H11 C19 1_555 1_555
C20 C4 1_555 1_555
H12 C20 1_555 1_555
In2 O7 1_555 1_555
O8 In2 1_555 1_555
O9 C21 1_555 1_555
O10 In2 1_555 1_555
C21 O10 1_555 1_555
C22 C21 1_555 1_555
C23 C22 1_555 1_555
H13 C23 1_555 1_555
C24 C23 1_555 1_555
H14 C24 1_555 1_555
C25 C24 1_555 1_555
C26 C25 1_555 1_555
H15 C26 1_555 1_555
C27 C22 1_555 1_555
H16 C27 1_555 1_555
C28 H17 1_555 1_555
C29 C25 1_555 1_555
C30 C29 1_555 1_555
H18 C30 1_555 1_555
In3 O12 1_555 1_555
O11 C34 1_555 1_555
O12 C34 1_555 1_555
O13 C33 1_555 1_555
O14 In3 1_555 1_555
C33 O14 1_555 1_555
C34 C38 1_555 1_555
C35 C33 1_555 1_555
C36 C35 1_555 1_555
H21 C36 1_555 1_555
C37 C35 1_555 1_555
H22 C37 1_555 1_555
C38 C39 1_555 1_555
C39 H23 1_555 1_555
C40 C39 1_555 1_555
H24 C40 1_555 1_555
C41 C40 1_555 1_555
C42 C41 1_555 1_555
H25 C42 1_555 1_555
C43 C38 1_555 1_555
H26 C43 1_555 1_555
C44 H27 1_555 1_555
C45 C41 1_555 1_555
C46 C45 1_555 1_555
H28 C46 1_555 1_555
O15 In2 1_555 1_555
O16 C49 1_555 1_555
C49 O15 1_555 1_555
C50 C49 1_555 1_555
C51 C37 1_555 1_555
H31 C51 1_555 1_555
C52 C36 1_555 1_555
H32 C52 1_555 1_555
In4 O18 1_555 1_555
O17 C54 1_555 1_555
O18 C54 1_555 1_555
O19 C53 1_555 1_555
O20 In4 1_555 1_555
C53 O20 1_555 1_555
C54 C58 1_555 1_555
C55 C53 1_555 1_555
C56 C55 1_555 1_555
H33 C56 1_555 1_555
C57 C55 1_555 1_555
H34 C57 1_555 1_555
C58 C59 1_555 1_555
C59 H35 1_555 1_555
C60 C59 1_555 1_555
H36 C60 1_555 1_555
C61 C60 1_555 1_555
C62 C61 1_555 1_555
H37 C62 1_555 1_555
C63 C58 1_555 1_555
H38 C63 1_555 1_555
C64 H39 1_555 1_555
C65 C61 1_555 1_555
C66 C65 1_555 1_555
H40 C66 1_555 1_555
O21 In1 1_555 1_555
O22 C69 1_555 1_555
C69 O21 1_555 1_555
C70 C69 1_555 1_555
C71 C57 1_555 1_555
H43 C71 1_555 1_555
C72 C56 1_555 1_555
H44 C72 1_555 1_555
In5 O2 1_555 1_555
O23 C73 1_555 1_555
O24 In5 1_555 1_555
C73 O24 1_555 1_555
C74 C73 1_555 1_555
C75 C74 1_555 1_555
H45 C75 1_555 1_555
C76 C75 1_555 1_555
H46 C76 1_555 1_555
C77 C76 1_555 1_555
C78 C77 1_555 1_555
H47 C78 1_555 1_555
C79 C74 1_555 1_555
H48 C79 1_555 1_555
C80 H49 1_555 1_555
C81 C77 1_555 1_555
C82 C81 1_555 1_555
H50 C82 1_555 1_555
In6 O8 1_555 1_555
O25 C85 1_555 1_555
O26 In6 1_555 1_555
C85 O26 1_555 1_555
C86 C85 1_555 1_555
C87 C86 1_555 1_555
H53 C87 1_555 1_555
C88 C87 1_555 1_555
H54 C88 1_555 1_555
C89 C88 1_555 1_555
C90 C89 1_555 1_555
H55 C90 1_555 1_555
C91 C86 1_555 1_555
H56 C91 1_555 1_555
C92 H57 1_555 1_555
C93 C89 1_555 1_555
C94 C93 1_555 1_555
H58 C94 1_555 1_555
In7 O13 1_555 1_555
In8 O19 1_555 1_555
In9 O17 1_555 1_555
In10 O1 1_555 1_555
In11 O11 1_555 1_555
In12 O6 1_555 1_555
O27 In3 1_555 1_555
O28 In4 1_555 1_555
O29 In3 1_555 1_555
O30 In4 1_555 1_555
O31 In1 1_555 1_555
O32 In2 1_555 1_555
O33 In4 1_555 1_555
O34 In5 1_555 1_555
O35 In3 1_555 1_555
O36 In6 1_555 1_555
N7 In1 1_555 1_555
N8 In2 1_555 1_555
N9 In3 1_555 1_555
N10 In6 1_555 1_555
N11 In4 1_555 1_555
N12 In5 1_555 1_555
O4 In10 1_555 1_555
C10 C11 1_555 1_555
C12 C13 1_555 1_555
C18 C20 1_555 1_555
O8 In12 1_555 1_555
O9 In6 1_555 1_555
C26 C27 1_555 1_555
C28 C29 1_555 1_555
C42 C43 1_555 1_555
C44 C45 1_555 1_555
O16 In6 1_555 1_555
C50 C51 1_555 1_555
C50 C52 1_555 1_555
C62 C63 1_555 1_555
C64 C65 1_555 1_555
O22 In5 1_555 1_555
C70 C71 1_555 1_555
C70 C72 1_555 1_555
O23 In10 1_555 1_555
C78 C79 1_555 1_555
C80 C81 1_555 1_555
O25 In12 1_555 1_555
C90 C91 1_555 1_555
C92 C93 1_555 1_555
In7 O27 1_555 1_555
In8 O28 1_555 1_555
In9 O28 1_555 1_555
In11 O27 1_555 1_555
H29 C47 1_555 1_555
N3 C47 1_555 1_555
H30 C48 1_555 1_555
H51 C83 1_555 1_555
N5 C83 1_555 1_555
H52 C84 1_555 1_555
In13 N3 1_555 1_555
In14 N5 1_555 1_555
N3 C48 1_555 1_555
N5 C84 1_555 1_555
H9 C15 1_555 1_555
N1 C15 1_555 1_555
H10 C16 1_555 1_555
In17 N1 1_555 1_555
N1 C16 1_555 1_555
H9_2 C15_2 1_555 1_555
N1_2 C15_2 1_555 1_555
H10_2 C16_2 1_555 1_555
In17_2 N1_2 1_555 1_555
N1_2 C16_2 1_555 1_555
O29 C2_2 1_555 1_555
O3_2 In7 1_555 1_555
O4_2 C1_2 1_555 1_555
O5_2 In7 1_555 1_555
C1_2 O5_2 1_555 1_555
C2_2 O3_2 1_555 1_555
C3_2 C1_2 1_555 1_555
C4_2 C3_2 1_555 1_555
H1_2 C4_2 1_555 1_555
C5_2 C3_2 1_555 1_555
H2_2 C5_2 1_555 1_555
C6_2 C2_2 1_555 1_555
C7_2 C6_2 1_555 1_555
H3_2 C7_2 1_555 1_555
C8_2 C7_2 1_555 1_555
H4_2 C8_2 1_555 1_555
C9_2 C8_2 1_555 1_555
C10_2 C9_2 1_555 1_555
H5_2 C10_2 1_555 1_555
C11_2 C6_2 1_555 1_555
H6_2 C11_2 1_555 1_555
C12_2 H7_2 1_555 1_555
C13_2 C9_2 1_555 1_555
C14_2 C13_2 1_555 1_555
H8_2 C14_2 1_555 1_555
O6_2 C17_2 1_555 1_555
O7_2 C17_2 1_555 1_555
C17_2 C18_2 1_555 1_555
C18_2 C19_2 1_555 1_555
C19_2 C5_2 1_555 1_555
H11_2 C19_2 1_555 1_555
C20_2 C4_2 1_555 1_555
H12_2 C20_2 1_555 1_555
In8 O7_2 1_555 1_555
O30 C21_2 1_555 1_555
O10_2 In8 1_555 1_555
C21_2 O10_2 1_555 1_555
C22_2 C21_2 1_555 1_555
C23_2 C22_2 1_555 1_555
H13_2 C23_2 1_555 1_555
C24_2 C23_2 1_555 1_555
H14_2 C24_2 1_555 1_555
C25_2 C24_2 1_555 1_555
C26_2 C25_2 1_555 1_555
H15_2 C26_2 1_555 1_555
C27_2 C22_2 1_555 1_555
H16_2 C27_2 1_555 1_555
C28_2 H17_2 1_555 1_555
C29_2 C25_2 1_555 1_555
C30_2 C29_2 1_555 1_555
H18_2 C30_2 1_555 1_555
In9 O6_2 1_555 1_555
O31_2 In7 1_555 1_555
O32_2 In8 1_555 1_555
N7_2 In7 1_555 1_555
N8_2 In8 1_555 1_555
O4_2 In11 1_555 1_555
C10_2 C11_2 1_555 1_555
C12_2 C13_2 1_555 1_555
C18_2 C20_2 1_555 1_555
C26_2 C27_2 1_555 1_555
C28_2 C29_2 1_555 1_555
H19_2 C31_2 1_555 1_555
N2_2 C31_2 1_555 1_555
H20_2 C32_2 1_555 1_555
In18_2 N2_2 1_555 1_555
N2_2 C32_2 1_555 1_555
H41_2 C67_2 1_555 1_555
N4_2 C67_2 1_555 1_555
H42_2 C68_2 1_555 1_555
H59_2 C95_2 1_555 1_555
N6_2 C95_2 1_555 1_555
H60_2 C96_2 1_555 1_555
In15_2 N6_2 1_555 1_555
In16_2 N4_2 1_555 1_555
N4_2 C68_2 1_555 1_555
N6_2 C96_2 1_555 1_555
In9 O12_2 1_555 1_555
O32_2 C34_2 1_555 1_555
O12_2 C34_2 1_555 1_555
O33 C33_2 1_555 1_555
O14_2 In9 1_555 1_555
C33_2 O14_2 1_555 1_555
C34_2 C38_2 1_555 1_555
C35_2 C33_2 1_555 1_555
C36_2 C35_2 1_555 1_555
H21_2 C36_2 1_555 1_555
C37_2 C35_2 1_555 1_555
H22_2 C37_2 1_555 1_555
C38_2 C39_2 1_555 1_555
C39_2 H23_2 1_555 1_555
C40_2 C39_2 1_555 1_555
H24_2 C40_2 1_555 1_555
C41_2 C40_2 1_555 1_555
C42_2 C41_2 1_555 1_555
H25_2 C42_2 1_555 1_555
C43_2 C38_2 1_555 1_555
H26_2 C43_2 1_555 1_555
C44_2 H27_2 1_555 1_555
C45_2 C41_2 1_555 1_555
C46_2 C45_2 1_555 1_555
H28_2 C46_2 1_555 1_555
O16_2 C49_2 1_555 1_555
C49_2 O36 1_555 1_555
C50_2 C49_2 1_555 1_555
C51_2 C37_2 1_555 1_555
H31_2 C51_2 1_555 1_555
C52_2 C36_2 1_555 1_555
H32_2 C52_2 1_555 1_555
In10 O18_2 1_555 1_555
O31 C54_2 1_555 1_555
O18_2 C54_2 1_555 1_555
O34 C53_2 1_555 1_555
O20_2 In10 1_555 1_555
C53_2 O20_2 1_555 1_555
C54_2 C58_2 1_555 1_555
C55_2 C53_2 1_555 1_555
C56_2 C55_2 1_555 1_555
H33_2 C56_2 1_555 1_555
C57_2 C55_2 1_555 1_555
H34_2 C57_2 1_555 1_555
C58_2 C59_2 1_555 1_555
C59_2 H35_2 1_555 1_555
C60_2 C59_2 1_555 1_555
H36_2 C60_2 1_555 1_555
C61_2 C60_2 1_555 1_555
C62_2 C61_2 1_555 1_555
H37_2 C62_2 1_555 1_555
C63_2 C58_2 1_555 1_555
H38_2 C63_2 1_555 1_555
C64_2 H39_2 1_555 1_555
C65_2 C61_2 1_555 1_555
C66_2 C65_2 1_555 1_555
H40_2 C66_2 1_555 1_555
O22_2 C69_2 1_555 1_555
C69_2 O35 1_555 1_555
C70_2 C69_2 1_555 1_555
C71_2 C57_2 1_555 1_555
H43_2 C71_2 1_555 1_555
C72_2 C56_2 1_555 1_555
H44_2 C72_2 1_555 1_555
O31_2 C73_2 1_555 1_555
O24_2 In11 1_555 1_555
C73_2 O24_2 1_555 1_555
C74_2 C73_2 1_555 1_555
C75_2 C74_2 1_555 1_555
H45_2 C75_2 1_555 1_555
C76_2 C75_2 1_555 1_555
H46_2 C76_2 1_555 1_555
C77_2 C76_2 1_555 1_555
C78_2 C77_2 1_555 1_555
H47_2 C78_2 1_555 1_555
C79_2 C74_2 1_555 1_555
H48_2 C79_2 1_555 1_555
C80_2 H49_2 1_555 1_555
C81_2 C77_2 1_555 1_555
C82_2 C81_2 1_555 1_555
H50_2 C82_2 1_555 1_555
O32 C85_2 1_555 1_555
O26_2 In12 1_555 1_555
C85_2 O26_2 1_555 1_555
C86_2 C85_2 1_555 1_555
C87_2 C86_2 1_555 1_555
H53_2 C87_2 1_555 1_555
C88_2 C87_2 1_555 1_555
H54_2 C88_2 1_555 1_555
C89_2 C88_2 1_555 1_555
C90_2 C89_2 1_555 1_555
H55_2 C90_2 1_555 1_555
C91_2 C86_2 1_555 1_555
H56_2 C91_2 1_555 1_555
C92_2 H57_2 1_555 1_555
C93_2 C89_2 1_555 1_555
C94_2 C93_2 1_555 1_555
H58_2 C94_2 1_555 1_555
N9_2 In9 1_555 1_555
N10_2 In12 1_555 1_555
N11_2 In10 1_555 1_555
N12_2 In11 1_555 1_555
C42_2 C43_2 1_555 1_555
C44_2 C45_2 1_555 1_555
O16_2 In12 1_555 1_555
C50_2 C51_2 1_555 1_555
C50_2 C52_2 1_555 1_555
C62_2 C63_2 1_555 1_555
C64_2 C65_2 1_555 1_555
O22_2 In11 1_555 1_555
C70_2 C71_2 1_555 1_555
C70_2 C72_2 1_555 1_555
C78_2 C79_2 1_555 1_555
C80_2 C81_2 1_555 1_555
C90_2 C91_2 1_555 1_555
C92_2 C93_2 1_555 1_555
H29_2 C47_2 1_555 1_555
N3_2 C47_2 1_555 1_555
H30_2 C48_2 1_555 1_555
H51_2 C83_2 1_555 1_555
N5_2 C83_2 1_555 1_555
H52_2 C84_2 1_555 1_555
In13_2 N3_2 1_555 1_555
In14_2 N5_2 1_555 1_555
N3_2 C48_2 1_555 1_555
N5_2 C84_2 1_555 1_555
O6_3 C17_3 1_555 1_555
O7_3 C17_3 1_555 1_555
C17_3 C18_3 1_555 1_555
In16 O7_3 1_555 1_555
O8_2 In16 1_555 1_555
O9_2 C21_3 1_555 1_555
O10_3 In16 1_555 1_555
C21_3 O10_3 1_555 1_555
C22_3 C21_3 1_555 1_555
C23_3 C22_3 1_555 1_555
H13_3 C23_3 1_555 1_555
C24_3 C23_3 1_555 1_555
H14_3 C24_3 1_555 1_555
C25_3 C24_3 1_555 1_555
C26_3 C25_3 1_555 1_555
H15_3 C26_3 1_555 1_555
C27_3 C22_3 1_555 1_555
H16_3 C27_3 1_555 1_555
C28_3 H17_3 1_555 1_555
C29_3 C25_3 1_555 1_555
C30_3 C29_3 1_555 1_555
H18_3 C30_3 1_555 1_555
C31_3 C30_3 1_555 1_555
H19_3 C31_3 1_555 1_555
N12_2 C31_3 1_555 1_555
C32_3 C28_3 1_555 1_555
H20_3 C32_3 1_555 1_555
O15_2 In16 1_555 1_555
O16_3 C49_3 1_555 1_555
C49_3 O15_2 1_555 1_555
C50_3 C49_3 1_555 1_555
In16_2 O8_2 1_555 1_555
O25_2 C85_3 1_555 1_555
O26_3 In16_2 1_555 1_555
C85_3 O26_3 1_555 1_555
C86_3 C85_3 1_555 1_555
C87_3 C86_3 1_555 1_555
H53_3 C87_3 1_555 1_555
C88_3 C87_3 1_555 1_555
H54_3 C88_3 1_555 1_555
C89_3 C88_3 1_555 1_555
C90_3 C89_3 1_555 1_555
H55_3 C90_3 1_555 1_555
C91_3 C86_3 1_555 1_555
H56_3 C91_3 1_555 1_555
C92_3 H57_3 1_555 1_555
C93_3 C89_3 1_555 1_555
C94_3 C93_3 1_555 1_555
H58_3 C94_3 1_555 1_555
C95_3 C94_3 1_555 1_555
H59_3 C95_3 1_555 1_555
N8_2 C95_3 1_555 1_555
C96_3 C92_3 1_555 1_555
H60_3 C96_3 1_555 1_555
In17_2 O6_3 1_555 1_555
O32_3 In16 1_555 1_555
O36_2 In16_2 1_555 1_555
O8_2 In17_2 1_555 1_555
O9_2 In16_2 1_555 1_555
C26_3 C27_3 1_555 1_555
C28_3 C29_3 1_555 1_555
N12_2 C32_3 1_555 1_555
O16_3 In16_2 1_555 1_555
O25_2 In17_2 1_555 1_555
C90_3 C91_3 1_555 1_555
C92_3 C93_3 1_555 1_555
N8_2 C96_3 1_555 1_555
In13 O1_2 1_555 1_555
O1_2 In15_2 1_555 1_555
O2_2 C2_3 1_555 1_555
O3_3 In13 1_555 1_555
O4_3 C1_3 1_555 1_555
O5_3 In13 1_555 1_555
C1_3 O5_3 1_555 1_555
C2_3 O3_3 1_555 1_555
C3_3 C1_3 1_555 1_555
C6_3 C2_3 1_555 1_555
C7_3 C6_3 1_555 1_555
H3_3 C7_3 1_555 1_555
C8_3 C7_3 1_555 1_555
H4_3 C8_3 1_555 1_555
C9_3 C8_3 1_555 1_555
C10_3 C9_3 1_555 1_555
H5_3 C10_3 1_555 1_555
C11_3 C6_3 1_555 1_555
H6_3 C11_3 1_555 1_555
C12_3 H7_3 1_555 1_555
C13_3 C9_3 1_555 1_555
C14_3 C13_3 1_555 1_555
H8_3 C14_3 1_555 1_555
C15_3 C14_3 1_555 1_555
H9_3 C15_3 1_555 1_555
N9_2 C15_3 1_555 1_555
C16_3 C12_3 1_555 1_555
H10_3 C16_3 1_555 1_555
O21_2 In13 1_555 1_555
O22_3 C69_3 1_555 1_555
C69_3 O21_2 1_555 1_555
C70_3 C69_3 1_555 1_555
In15_2 O2_2 1_555 1_555
O23_2 C73_3 1_555 1_555
O24_3 In15_2 1_555 1_555
C73_3 O24_3 1_555 1_555
C74_3 C73_3 1_555 1_555
C75_3 C74_3 1_555 1_555
H45_3 C75_3 1_555 1_555
C76_3 C75_3 1_555 1_555
H46_3 C76_3 1_555 1_555
C77_3 C76_3 1_555 1_555
C78_3 C77_3 1_555 1_555
H47_3 C78_3 1_555 1_555
C79_3 C74_3 1_555 1_555
H48_3 C79_3 1_555 1_555
C80_3 H49_3 1_555 1_555
C81_3 C77_3 1_555 1_555
C82_3 C81_3 1_555 1_555
H50_3 C82_3 1_555 1_555
C83_3 C82_3 1_555 1_555
H51_3 C83_3 1_555 1_555
N7_2 C83_3 1_555 1_555
C84_3 C80_3 1_555 1_555
H52_3 C84_3 1_555 1_555
In18_2 O1_2 1_555 1_555
O31_3 In13 1_555 1_555
O34_2 In15_2 1_555 1_555
O4_3 In18_2 1_555 1_555
C10_3 C11_3 1_555 1_555
C12_3 C13_3 1_555 1_555
N9_2 C16_3 1_555 1_555
O22_3 In15_2 1_555 1_555
O23_2 In18_2 1_555 1_555
C78_3 C79_3 1_555 1_555
C80_3 C81_3 1_555 1_555
N7_2 C84_3 1_555 1_555
In13_2 O12_3 1_555 1_555
O11_2 C34_3 1_555 1_555
O12_3 C34_3 1_555 1_555
O13_2 C33_3 1_555 1_555
O14_3 In13_2 1_555 1_555
C33_3 O14_3 1_555 1_555
C34_3 C38_3 1_555 1_555
C35_3 C33_3 1_555 1_555
C38_3 C39_3 1_555 1_555
C39_3 H23_3 1_555 1_555
C40_3 C39_3 1_555 1_555
H24_3 C40_3 1_555 1_555
C41_3 C40_3 1_555 1_555
C42_3 C41_3 1_555 1_555
H25_3 C42_3 1_555 1_555
C43_3 C38_3 1_555 1_555
H26_3 C43_3 1_555 1_555
C44_3 H27_3 1_555 1_555
C45_3 C41_3 1_555 1_555
C46_3 C45_3 1_555 1_555
H28_3 C46_3 1_555 1_555
C47_3 C46_3 1_555 1_555
H29_3 C47_3 1_555 1_555
N7 C47_3 1_555 1_555
C48_3 C44_3 1_555 1_555
H30_3 C48_3 1_555 1_555
In14 O13_2 1_555 1_555
In18 O11_2 1_555 1_555
O27_2 In13_2 1_555 1_555
O29_2 In13_2 1_555 1_555
O35_2 In13_2 1_555 1_555
C42_3 C43_3 1_555 1_555
C44_3 C45_3 1_555 1_555
N7 C48_3 1_555 1_555
In14 O27_2 1_555 1_555
In18 O27_2 1_555 1_555
In14_2 O18_3 1_555 1_555
O17_2 C54_3 1_555 1_555
O18_3 C54_3 1_555 1_555
O19_2 C53_3 1_555 1_555
O20_3 In14_2 1_555 1_555
C53_3 O20_3 1_555 1_555
C54_3 C58_3 1_555 1_555
C55_3 C53_3 1_555 1_555
C58_3 C59_3 1_555 1_555
C59_3 H35_3 1_555 1_555
C60_3 C59_3 1_555 1_555
H36_3 C60_3 1_555 1_555
C61_3 C60_3 1_555 1_555
C62_3 C61_3 1_555 1_555
H37_3 C62_3 1_555 1_555
C63_3 C58_3 1_555 1_555
H38_3 C63_3 1_555 1_555
C64_3 H39_3 1_555 1_555
C65_3 C61_3 1_555 1_555
C66_3 C65_3 1_555 1_555
H40_3 C66_3 1_555 1_555
C67_3 C66_3 1_555 1_555
H41_3 C67_3 1_555 1_555
N8 C67_3 1_555 1_555
C68_3 C64_3 1_555 1_555
H42_3 C68_3 1_555 1_555
In15 O19_2 1_555 1_555
In17 O17_2 1_555 1_555
O28_2 In14_2 1_555 1_555
O30_2 In14_2 1_555 1_555
O33_2 In14_2 1_555 1_555
C62_3 C63_3 1_555 1_555
C64_3 C65_3 1_555 1_555
N8 C68_3 1_555 1_555
In15 O28_2 1_555 1_555
In17 O28_2 1_555 1_555
O29_2 C2_4 1_555 1_555
O3_4 In14 1_555 1_555
O4_4 C1_4 1_555 1_555
O5_4 In14 1_555 1_555
C1_4 O5_4 1_555 1_555
C2_4 O3_4 1_555 1_555
C3_4 C1_4 1_555 1_555
C6_4 C2_4 1_555 1_555
C7_4 C6_4 1_555 1_555
H3_4 C7_4 1_555 1_555
C8_4 C7_4 1_555 1_555
H4_4 C8_4 1_555 1_555
C9_4 C8_4 1_555 1_555
C10_4 C9_4 1_555 1_555
H5_4 C10_4 1_555 1_555
C11_4 C6_4 1_555 1_555
H6_4 C11_4 1_555 1_555
C12_4 H7_4 1_555 1_555
C13_4 C9_4 1_555 1_555
C14_4 C13_4 1_555 1_555
H8_4 C14_4 1_555 1_555
C15_4 C14_4 1_555 1_555
H9_4 C15_4 1_555 1_555
N10_2 C15_4 1_555 1_555
C16_4 C12_4 1_555 1_555
H10_4 C16_4 1_555 1_555
O31_4 In14 1_555 1_555
O4_4 In18 1_555 1_555
C10_4 C11_4 1_555 1_555
C12_4 C13_4 1_555 1_555
N10_2 C16_4 1_555 1_555
O6_4 C17_4 1_555 1_555
O7_4 C17_4 1_555 1_555
C17_4 C18_4 1_555 1_555
In15 O7_4 1_555 1_555
O30_2 C21_4 1_555 1_555
O10_4 In15 1_555 1_555
C21_4 O10_4 1_555 1_555
C22_4 C21_4 1_555 1_555
C23_4 C22_4 1_555 1_555
H13_4 C23_4 1_555 1_555
C24_4 C23_4 1_555 1_555
H14_4 C24_4 1_555 1_555
C25_4 C24_4 1_555 1_555
C26_4 C25_4 1_555 1_555
H15_4 C26_4 1_555 1_555
C27_4 C22_4 1_555 1_555
H16_4 C27_4 1_555 1_555
C28_4 H17_4 1_555 1_555
C29_4 C25_4 1_555 1_555
C30_4 C29_4 1_555 1_555
H18_4 C30_4 1_555 1_555
C31_4 C30_4 1_555 1_555
H19_4 C31_4 1_555 1_555
N11_2 C31_4 1_555 1_555
C32_4 C28_4 1_555 1_555
H20_4 C32_4 1_555 1_555
In17 O6_4 1_555 1_555
O32_4 In15 1_555 1_555
C26_4 C27_4 1_555 1_555
C28_4 C29_4 1_555 1_555
N11_2 C32_4 1_555 1_555
O16_4 C49_4 1_555 1_555
C49_4 O36_2 1_555 1_555
C50_4 C49_4 1_555 1_555
O32_3 C85_4 1_555 1_555
O26_4 In17_2 1_555 1_555
C85_4 O26_4 1_555 1_555
C86_4 C85_4 1_555 1_555
C87_4 C86_4 1_555 1_555
H53_4 C87_4 1_555 1_555
C88_4 C87_4 1_555 1_555
H54_4 C88_4 1_555 1_555
C89_4 C88_4 1_555 1_555
C90_4 C89_4 1_555 1_555
H55_4 C90_4 1_555 1_555
C91_4 C86_4 1_555 1_555
H56_4 C91_4 1_555 1_555
C92_4 H57_4 1_555 1_555
C93_4 C89_4 1_555 1_555
C94_4 C93_4 1_555 1_555
H58_4 C94_4 1_555 1_555
C95_4 C94_4 1_555 1_555
H59_4 C95_4 1_555 1_555
N12 C95_4 1_555 1_555
C96_4 C92_4 1_555 1_555
H60_4 C96_4 1_555 1_555
O16_4 In17_2 1_555 1_555
C90_4 C91_4 1_555 1_555
C92_4 C93_4 1_555 1_555
N12 C96_4 1_555 1_555
In18_2 O18_4 1_555 1_555
O31_3 C54_4 1_555 1_555
O18_4 C54_4 1_555 1_555
O34_2 C53_4 1_555 1_555
O20_4 In18_2 1_555 1_555
C53_4 O20_4 1_555 1_555
C54_4 C58_4 1_555 1_555
C55_4 C53_4 1_555 1_555
C58_4 C59_4 1_555 1_555
C59_4 H35_4 1_555 1_555
C60_4 C59_4 1_555 1_555
H36_4 C60_4 1_555 1_555
C61_4 C60_4 1_555 1_555
C62_4 C61_4 1_555 1_555
H37_4 C62_4 1_555 1_555
C63_4 C58_4 1_555 1_555
H38_4 C63_4 1_555 1_555
C64_4 H39_4 1_555 1_555
C65_4 C61_4 1_555 1_555
C66_4 C65_4 1_555 1_555
H40_4 C66_4 1_555 1_555
C67_4 C66_4 1_555 1_555
H41_4 C67_4 1_555 1_555
N10 C67_4 1_555 1_555
C68_4 C64_4 1_555 1_555
H42_4 C68_4 1_555 1_555
C62_4 C63_4 1_555 1_555
C64_4 C65_4 1_555 1_555
N10 C68_4 1_555 1_555
O22_4 C69_4 1_555 1_555
C69_4 O35_2 1_555 1_555
C70_4 C69_4 1_555 1_555
O31_4 C73_4 1_555 1_555
O24_4 In18 1_555 1_555
C73_4 O24_4 1_555 1_555
C74_4 C73_4 1_555 1_555
C75_4 C74_4 1_555 1_555
H45_4 C75_4 1_555 1_555
C76_4 C75_4 1_555 1_555
H46_4 C76_4 1_555 1_555
C77_4 C76_4 1_555 1_555
C78_4 C77_4 1_555 1_555
H47_4 C78_4 1_555 1_555
C79_4 C74_4 1_555 1_555
H48_4 C79_4 1_555 1_555
C80_4 H49_4 1_555 1_555
C81_4 C77_4 1_555 1_555
C82_4 C81_4 1_555 1_555
H50_4 C82_4 1_555 1_555
C83_4 C82_4 1_555 1_555
H51_4 C83_4 1_555 1_555
N11 C83_4 1_555 1_555
C84_4 C80_4 1_555 1_555
H52_4 C84_4 1_555 1_555
O22_4 In18 1_555 1_555
C78_4 C79_4 1_555 1_555
C80_4 C81_4 1_555 1_555
N11 C84_4 1_555 1_555
In17 O12_4 1_555 1_555
O32_4 C34_4 1_555 1_555
O12_4 C34_4 1_555 1_555
O33_2 C33_4 1_555 1_555
O14_4 In17 1_555 1_555
C33_4 O14_4 1_555 1_555
C34_4 C38_4 1_555 1_555
C35_4 C33_4 1_555 1_555
C38_4 C39_4 1_555 1_555
C39_4 H23_4 1_555 1_555
C40_4 C39_4 1_555 1_555
H24_4 C40_4 1_555 1_555
C41_4 C40_4 1_555 1_555
C42_4 C41_4 1_555 1_555
H25_4 C42_4 1_555 1_555
C43_4 C38_4 1_555 1_555
H26_4 C43_4 1_555 1_555
C44_4 H27_4 1_555 1_555
C45_4 C41_4 1_555 1_555
C46_4 C45_4 1_555 1_555
H28_4 C46_4 1_555 1_555
C47_4 C46_4 1_555 1_555
H29_4 C47_4 1_555 1_555
N9 C47_4 1_555 1_555
C48_4 C44_4 1_555 1_555
H30_4 C48_4 1_555 1_555
C42_4 C43_4 1_555 1_555
C44_4 C45_4 1_555 1_555
N9 C48_4 1_555 1_555
H1_3 C4_3 1_555 1_555
C20_3 C4_3 1_555 1_555
H12_3 C20_3 1_555 1_555
H22_3 C37_3 1_555 1_555
C51_3 C37_3 1_555 1_555
H31_3 C51_3 1_555 1_555
H34_3 C57_3 1_555 1_555
C71_3 C57_3 1_555 1_555
H43_3 C71_3 1_555 1_555
H2_3 C5_3 1_555 1_555
C19_3 C5_3 1_555 1_555
H11_3 C19_3 1_555 1_555
H34_4 C57_4 1_555 1_555
C71_4 C57_4 1_555 1_555
H43_4 C71_4 1_555 1_555
H21_3 C36_3 1_555 1_555
C52_3 C36_3 1_555 1_555
H32_3 C52_3 1_555 1_555
H21_4 C36_4 1_555 1_555
C52_4 C36_4 1_555 1_555
H32_4 C52_4 1_555 1_555
H2_4 C5_4 1_555 1_555
C19_4 C5_4 1_555 1_555
H11_4 C19_4 1_555 1_555
H22_4 C37_4 1_555 1_555
C51_4 C37_4 1_555 1_555
H31_4 C51_4 1_555 1_555
H33_3 C56_3 1_555 1_555
C72_3 C56_3 1_555 1_555
H44_3 C72_3 1_555 1_555
H1_4 C4_4 1_555 1_555
C20_4 C4_4 1_555 1_555
H12_4 C20_4 1_555 1_555
H33_4 C56_4 1_555 1_555
C72_4 C56_4 1_555 1_555
H44_4 C72_4 1_555 1_555

#END
