
###############################################################################
#
# This file contains modified crystal structure data generated from the
# MOF subset of the Cambridge Structural Database (CSD) v543 
# hosted by the Cambridge Crystallographic Data Centre (CCDC).
#
# This work is licensed under the Creative Commons
# Attribution-NonCommercial-ShareAlike 4.0 International License.
# To view a copy of this license, visit
# http://creativecommons.org/licenses/by-nc-sa/4.0/
# or send a letter to
# Creative Commons, PO Box 1866, Mountain View, CA 94042, USA.
#
# CIF created using the CSD Python API on 29 September 2022
# The structure has been converted into the P1 space group
# The structure has a 3D framework
# The original CSD entry AGOZED is in the monoclinic crystal system
# The framework has been calculated to contain at least 10.0% void space
# The void calculation uses a probe of radius 1.32A, grid spacing 0.4
#
###############################################################################

data_AGOZED
_chemical_formula_moiety         '(C128 H80 Cd8 N16 O32 S8)n'
_symmetry_cell_setting           triclinic
_symmetry_space_group_name_H-M   'P 1'
_symmetry_Int_Tables_number      1
_space_group_name_Hall           'P 1'
loop_
_symmetry_equiv_pos_site_id
_symmetry_equiv_pos_as_xyz
1 x,y,z
_cell_length_a                   19.1588(13)
_cell_length_b                   11.6924(8)
_cell_length_c                   15.8248(9)
_cell_angle_alpha                90
_cell_angle_beta                 90.00
_cell_angle_gamma                90
_cell_volume                     3544.95
loop_
_atom_site_label
_atom_site_type_symbol
_atom_site_fract_x
_atom_site_fract_y
_atom_site_fract_z
N2 N 0.4409(7) 0.1297(7) 0.1565(9)
C18 C 0.3790(6) 0.0714(11) 0.1722(9)
H9 H 0.3377 0.1128 0.1853
C22 C 0.5013(6) 0.0691(11) 0.1374(10)
H12 H 0.5437 0.1089 0.1267
N4 N 0.0610(8) 0.1419(7) 0.6508(9)
C28 C 0.0295(7) 0.0796(10) 0.5921(8)
H17 H 0.0078 0.1188 0.5465
C32 C 0.0915(7) 0.0814(10) 0.7118(8)
H20 H 0.1160 0.1220 0.7545
Cd4 Cd 0.05985(10) 0.33582(10) 0.64541(14)
Cd6 Cd 0.44005(12) 0.32739(16) 0.14581(17)
S1 S 0.3143(4) 0.3324(6) 0.4952(4)
C1 C 0.3378(11) 0.3250(17) 0.3973(15)
C2 C 0.2797(13) 0.3472(19) 0.3408(16)
H1 H 0.2837 0.3660 0.2826
C3 C 0.2165(12) 0.337(2) 0.3855(16)
H2 H 0.1725 0.3247 0.3594
C4 C 0.2266(15) 0.347(2) 0.4769(19)
C5 C 0.4158(17) 0.330(3) 0.362(3)
C6 C 0.1714(14) 0.331(2) 0.5335(16)
O1 O 0.4538(12) 0.311(2) 0.4187(15)
O2 O 0.4235(10) 0.3288(14) 0.2909(13)
O3 O 0.1918(10) 0.3317(15) 0.6154(14)
O4 O 0.1114(11) 0.3414(16) 0.5166(13)
C11 C 0.3222(17) 0.344(2) 0.0493(19)
O5 O 0.3919(13) 0.3251(18) 0.0106(16)
O6 O 0.3117(13) 0.3377(18) 0.1138(16)
N1 N 0.4381(7) 0.5188(8) 0.1497(9)
C13 C 0.3868(6) 0.5767(11) 0.1853(9)
H5 H 0.3487 0.5350 0.2081
C14 C 0.3855(7) 0.6934(11) 0.1912(10)
H6 H 0.3472 0.7304 0.2178
C15 C 0.4398(9) 0.7575(8) 0.1584(11)
C16 C 0.4913(7) 0.6958(11) 0.1191(11)
H7 H 0.5290 0.7351 0.0930
C17 C 0.4894(6) 0.5798(11) 0.1167(9)
H8 H 0.5268 0.5405 0.0900
C19 C 0.3775(6) 0.9527(11) 0.1687(10)
H10 H 0.3352 0.9129 0.1794
C20 C 0.4379(8) 0.8921(7) 0.1495(11)
C21 C 0.4998(6) 0.9504(10) 0.1339(10)
H11 H 0.5411 0.9090 0.1207
N3 N 0.0563(8) 0.5395(8) 0.6604(9)
C23 C 0.0104(7) 0.6002(11) 0.6173(9)
C24 C 0.0114(8) 0.7169(12) 0.6125(11)
C25 C 0.0629(9) 0.7781(8) 0.6541(12)
C26 C 0.1114(8) 0.7132(12) 0.6960(10)
H15 H 0.1492 0.7500 0.7237
C27 C 0.1063(7) 0.5974(12) 0.6987(9)
H16 H 0.1404 0.5560 0.7298
C29 C 0.0260(8) 0.9632(10) 0.5927(8)
H18 H 0.0022 0.9247 0.5484
C30 C 0.0563(9) 0.9007(7) 0.6566(10)
C31 C 0.0899(8) 0.9645(11) 0.7172(8)
H19 H 0.1122 0.9271 0.7632
Cd7 Cd 0.55995(12) 0.32739(16) 0.35419(17)
O9 O 0.5462(12) 0.311(2) 0.0813(15)
O10 O 0.5765(10) 0.3288(14) 0.2091(13)
O11 O 0.0743(13) 0.346(2) 0.7863(16)
S2 S 0.1861(4) 0.3399(8) 0.9970(5)
C7 C 0.2740(15) 0.338(2) 0.9665(17)
C8 C 0.2846(14) 0.360(2) 0.8917(18)
H3 H 0.3295 0.3807 0.8712
C9 C 0.2265(15) 0.353(2) 0.839(2)
H4 H 0.2285 0.3514 0.7788
C10 C 0.1640(12) 0.349(2) 0.8867(15)
C12 C 0.0931(11) 0.3303(15) 0.8643(15)
O8 O 0.0446(8) 0.3313(13) 0.9251(10)
H13 H 0.9746 0.5605 0.5879
H14 H 0.9769 0.7561 0.5806
O12 O 0.9257(13) 0.346(2) 0.7137(16)
O13 O 0.9554(8) 0.3313(13) 0.5749(10)
Cd5 Cd 0.94015(10) 0.33582(10) 0.85459(14)
H13_2 H 0.0254 0.5605 0.9121
H14_2 H 0.0231 0.7561 0.9194
N2_2 N 0.5591(7) 0.1297(7) 0.3435(9)
C18_2 C 0.6210(6) 0.0714(11) 0.3278(9)
H9_2 H 0.6623 0.1128 0.3147
C22_2 C 0.4987(6) 0.0691(11) 0.3626(10)
H12_2 H 0.4563 0.1089 0.3733
N4_2 N 0.9390(8) 0.1419(7) 0.8492(9)
C28_2 C 0.9705(7) 0.0796(10) 0.9079(8)
H17_2 H 0.9922 0.1188 0.9535
C32_2 C 0.9085(7) 0.0814(10) 0.7882(8)
H20_2 H 0.8840 0.1220 0.7455
S1_2 S 0.6857(4) 0.3324(6) 0.0048(4)
C1_2 C 0.6622(11) 0.3250(17) 0.1027(15)
C2_2 C 0.7203(13) 0.3472(19) 0.1592(16)
H1_2 H 0.7163 0.3660 0.2174
C3_2 C 0.7835(12) 0.337(2) 0.1145(16)
H2_2 H 0.8275 0.3247 0.1406
C4_2 C 0.7734(15) 0.347(2) 0.0231(19)
C5_2 C 0.5842(17) 0.330(3) 0.138(3)
S2_2 S 0.8139(4) 0.3399(8) 0.5030(5)
C7_2 C 0.7260(15) 0.338(2) 0.5335(17)
C8_2 C 0.7154(14) 0.360(2) 0.6083(18)
H3_2 H 0.6705 0.3807 0.6288
C9_2 C 0.7735(15) 0.353(2) 0.661(2)
H4_2 H 0.7715 0.3514 0.7212
C10_2 C 0.8360(12) 0.349(2) 0.6133(15)
C11_2 C 0.6778(17) 0.344(2) 0.4507(19)
C12_2 C 0.9069(11) 0.3303(15) 0.6357(15)
O5_2 O 0.6081(13) 0.3251(18) 0.4894(16)
O6_2 O 0.6883(13) 0.3377(18) 0.3862(16)
N1_2 N 0.5619(7) 0.5188(8) 0.3503(9)
C13_2 C 0.6132(6) 0.5767(11) 0.3147(9)
H5_2 H 0.6513 0.5350 0.2919
C14_2 C 0.6145(7) 0.6934(11) 0.3088(10)
H6_2 H 0.6528 0.7304 0.2822
C15_2 C 0.5602(9) 0.7575(8) 0.3416(11)
C16_2 C 0.5087(7) 0.6958(11) 0.3809(11)
H7_2 H 0.4710 0.7351 0.4070
C17_2 C 0.5106(6) 0.5798(11) 0.3833(9)
H8_2 H 0.4732 0.5405 0.4100
C19_2 C 0.6225(6) 0.9527(11) 0.3313(10)
H10_2 H 0.6648 0.9129 0.3206
C20_2 C 0.5621(8) 0.8921(7) 0.3505(11)
C21_2 C 0.5002(6) 0.9504(10) 0.3661(10)
H11_2 H 0.4589 0.9090 0.3793
C6_2 C 0.8286(14) 0.331(2) 0.9665(16)
O3_2 O 0.8082(10) 0.3317(15) 0.8846(14)
O4_2 O 0.8886(11) 0.3414(16) 0.9834(13)
N3_2 N 0.9437(8) 0.5395(8) 0.8396(9)
C23_2 C 0.9896(7) 0.6002(11) 0.8827(9)
C24_2 C 0.9886(8) 0.7169(12) 0.8875(11)
C25_2 C 0.9371(9) 0.7781(8) 0.8459(12)
C26_2 C 0.8886(8) 0.7132(12) 0.8040(10)
H15_2 H 0.8508 0.7500 0.7763
C27_2 C 0.8937(7) 0.5974(12) 0.8013(9)
H16_2 H 0.8596 0.5560 0.7702
C29_2 C 0.9740(8) 0.9632(10) 0.9073(8)
H18_2 H 0.9978 0.9247 0.9516
C30_2 C 0.9437(9) 0.9007(7) 0.8434(10)
C31_2 C 0.9101(8) 0.9645(11) 0.7828(8)
H19_2 H 0.8878 0.9271 0.7368
Cd5_2 Cd 0.05985(10) 0.66418(10) 0.14541(14)
H13_3 H 0.0254 0.4395 0.4121
H14_3 H 0.0231 0.2439 0.4194
O12_2 O 0.0743(13) 0.654(2) 0.2863(16)
O13_2 O 0.0446(8) 0.6687(13) 0.4251(10)
S2_3 S 0.8139(4) 0.6601(8) 0.0030(5)
C7_3 C 0.7260(15) 0.662(2) 0.0335(17)
C8_3 C 0.7154(14) 0.640(2) 0.1083(18)
H3_3 H 0.6705 0.6193 0.1288
C9_3 C 0.7735(15) 0.647(2) 0.161(2)
H4_3 H 0.7715 0.6486 0.2212
C10_3 C 0.8360(12) 0.651(2) 0.1133(15)
C12_3 C 0.9069(11) 0.6697(15) 0.1357(15)
O7 O 0.9257(13) 0.654(2) 0.2137(16)
O8_2 O 0.9554(8) 0.6687(13) 0.0749(10)
Cd3 Cd 0.94015(10) 0.66418(10) 0.35459(14)
Cd2 Cd 0.55995(12) 0.67261(16) 0.85419(17)
S1_3 S 0.6857(4) 0.6676(6) 0.5048(4)
C1_3 C 0.6622(11) 0.6750(17) 0.6027(15)
C2_3 C 0.7203(13) 0.6528(19) 0.6592(16)
H1_3 H 0.7163 0.6340 0.7174
C3_3 C 0.7835(12) 0.663(2) 0.6145(16)
H2_3 H 0.8275 0.6753 0.6406
C4_3 C 0.7734(15) 0.653(2) 0.5231(19)
C5_3 C 0.5842(17) 0.670(3) 0.638(3)
C6_3 C 0.8286(14) 0.669(2) 0.4665(16)
O1_2 O 0.5462(12) 0.689(2) 0.5813(15)
O2_2 O 0.5765(10) 0.6712(14) 0.7091(13)
O3_3 O 0.8082(10) 0.6683(15) 0.3846(14)
O4_3 O 0.8886(11) 0.6586(16) 0.4834(13)
C11_3 C 0.6778(17) 0.656(2) 0.9507(19)
O5_3 O 0.6081(13) 0.6749(18) 0.9894(16)
O6_3 O 0.6883(13) 0.6623(18) 0.8862(16)
N1_3 N 0.5619(7) 0.4812(8) 0.8503(9)
C13_3 C 0.6132(6) 0.4233(11) 0.8147(9)
H5_3 H 0.6513 0.4650 0.7919
C14_3 C 0.6145(7) 0.3066(11) 0.8088(10)
H6_3 H 0.6528 0.2696 0.7822
C15_3 C 0.5602(9) 0.2425(8) 0.8416(11)
C16_3 C 0.5087(7) 0.3042(11) 0.8809(11)
H7_3 H 0.4710 0.2649 0.9070
C17_3 C 0.5106(6) 0.4202(11) 0.8833(9)
H8_3 H 0.4732 0.4595 0.9100
C19_3 C 0.6225(6) 0.0473(11) 0.8313(10)
H10_3 H 0.6648 0.0871 0.8206
C20_3 C 0.5621(8) 0.1079(7) 0.8505(11)
C21_3 C 0.5002(6) 0.0496(10) 0.8661(10)
H11_3 H 0.4589 0.0910 0.8793
N3_3 N 0.9437(8) 0.4605(8) 0.3396(9)
C23_3 C 0.9896(7) 0.3998(11) 0.3827(9)
C24_3 C 0.9886(8) 0.2831(12) 0.3875(11)
C25_3 C 0.9371(9) 0.2219(8) 0.3459(12)
C26_3 C 0.8886(8) 0.2868(12) 0.3040(10)
H15_3 H 0.8508 0.2500 0.2763
C27_3 C 0.8937(7) 0.4026(12) 0.3013(9)
H16_3 H 0.8596 0.4440 0.2702
C29_3 C 0.9740(8) 0.0368(10) 0.4073(8)
H18_3 H 0.9978 0.0753 0.4516
C30_3 C 0.9437(9) 0.0993(7) 0.3434(10)
C31_3 C 0.9101(8) 0.0355(11) 0.2828(8)
H19_3 H 0.8878 0.0729 0.2368
Cd7_2 Cd 0.44005(12) 0.67261(16) 0.64581(17)
O9_2 O 0.4538(12) 0.689(2) 0.9187(15)
O10_2 O 0.4235(10) 0.6712(14) 0.7909(13)
N5 N 0.5591(7) 0.8703(7) 0.8435(9)
N6 N 0.9390(8) 0.8581(7) 0.3492(9)
C18_3 C 0.6210(6) 0.9286(11) 0.8278(9)
H9_3 H 0.6623 0.8872 0.8147
C22_3 C 0.4987(6) 0.9309(11) 0.8626(10)
H12_3 H 0.4563 0.8911 0.8733
C28_3 C 0.9705(7) 0.9204(10) 0.4079(8)
H17_3 H 0.9922 0.8812 0.4535
C32_3 C 0.9085(7) 0.9186(10) 0.2882(8)
H20_3 H 0.8840 0.8780 0.2455
C6_4 C 0.1714(14) 0.669(2) 0.0335(16)
O3_4 O 0.1918(10) 0.6683(15) 0.1154(14)
O4_4 O 0.1114(11) 0.6586(16) 0.0166(13)
N3_4 N 0.0563(8) 0.4605(8) 0.1604(9)
C23_4 C 0.0104(7) 0.3998(11) 0.1173(9)
C24_4 C 0.0114(8) 0.2831(12) 0.1125(11)
C25_4 C 0.0629(9) 0.2219(8) 0.1541(12)
C26_4 C 0.1114(8) 0.2868(12) 0.1960(10)
H15_4 H 0.1492 0.2500 0.2237
C27_4 C 0.1063(7) 0.4026(12) 0.1987(9)
H16_4 H 0.1404 0.4440 0.2298
C29_4 C 0.0260(8) 0.0368(10) 0.0927(8)
H18_4 H 0.0022 0.0753 0.0484
C30_4 C 0.0563(9) 0.0993(7) 0.1566(10)
C31_4 C 0.0899(8) 0.0355(11) 0.2172(8)
H19_4 H 0.1122 0.0729 0.2632
N6_2 N 0.0610(8) 0.8581(7) 0.1508(9)
S1_4 S 0.3143(4) 0.6676(6) 0.9952(4)
C1_4 C 0.3378(11) 0.6750(17) 0.8973(15)
C2_4 C 0.2797(13) 0.6528(19) 0.8408(16)
H1_4 H 0.2837 0.6340 0.7826
C3_4 C 0.2165(12) 0.663(2) 0.8855(16)
H2_4 H 0.1725 0.6753 0.8594
C4_4 C 0.2266(15) 0.653(2) 0.9769(19)
C5_4 C 0.4158(17) 0.670(3) 0.862(3)
S2_4 S 0.1861(4) 0.6601(8) 0.4970(5)
C7_4 C 0.2740(15) 0.662(2) 0.4665(17)
C8_4 C 0.2846(14) 0.640(2) 0.3917(18)
H3_4 H 0.3295 0.6193 0.3712
C9_4 C 0.2265(15) 0.647(2) 0.339(2)
H4_4 H 0.2285 0.6486 0.2788
C10_4 C 0.1640(12) 0.651(2) 0.3867(15)
C11_4 C 0.3222(17) 0.656(2) 0.5493(19)
C12_4 C 0.0931(11) 0.6697(15) 0.3643(15)
O5_4 O 0.3919(13) 0.6749(18) 0.5106(16)
O6_4 O 0.3117(13) 0.6623(18) 0.6138(16)
N1_4 N 0.4381(7) 0.4812(8) 0.6497(9)
C13_4 C 0.3868(6) 0.4233(11) 0.6853(9)
H5_4 H 0.3487 0.4650 0.7081
C14_4 C 0.3855(7) 0.3066(11) 0.6912(10)
H6_4 H 0.3472 0.2696 0.7178
C15_4 C 0.4398(9) 0.2425(8) 0.6584(11)
C16_4 C 0.4913(7) 0.3042(11) 0.6191(11)
H7_4 H 0.5290 0.2649 0.5930
C17_4 C 0.4894(6) 0.4202(11) 0.6167(9)
H8_4 H 0.5268 0.4595 0.5900
C19_4 C 0.3775(6) 0.0473(11) 0.6687(10)
H10_4 H 0.3352 0.0871 0.6794
C20_4 C 0.4379(8) 0.1079(7) 0.6495(11)
C21_4 C 0.4998(6) 0.0496(10) 0.6339(10)
H11_4 H 0.5411 0.0910 0.6207
N5_2 N 0.4409(7) 0.8703(7) 0.6565(9)
C28_4 C 0.0295(7) 0.9204(10) 0.0921(8)
H17_4 H 0.0078 0.8812 0.0465
C32_4 C 0.0915(7) 0.9186(10) 0.2118(8)
H20_4 H 0.1160 0.8780 0.2545
C18_4 C 0.3790(6) 0.9286(11) 0.6722(9)
H9_4 H 0.3377 0.8872 0.6853
C22_4 C 0.5013(6) 0.9309(11) 0.6374(10)
H12_4 H 0.5437 0.8911 0.6267
H13_4 H 0.9746 0.4395 0.0879
H14_4 H 0.9769 0.2439 0.0806
loop_
_geom_bond_atom_site_label_1
_geom_bond_atom_site_label_2
_geom_bond_site_symmetry_1
_geom_bond_site_symmetry_2
N2 C18 1_555 1_555
C18 H9 1_555 1_555
C22 N2 1_555 1_555
H12 C22 1_555 1_555
N4 C28 1_555 1_555
C28 H17 1_555 1_555
C32 N4 1_555 1_555
H20 C32 1_555 1_555
Cd4 N4 1_555 1_555
Cd6 N2 1_555 1_555
Cd4 O3 1_555 1_555
Cd6 O2 1_555 1_555
S1 C1 1_555 1_555
C1 C2 1_555 1_555
C2 H1 1_555 1_555
C3 C2 1_555 1_555
H2 C3 1_555 1_555
C4 S1 1_555 1_555
C5 C1 1_555 1_555
C6 C4 1_555 1_555
O1 C5 1_555 1_555
O2 C5 1_555 1_555
O3 C6 1_555 1_555
O4 Cd4 1_555 1_555
O5 Cd6 1_555 1_555
O6 Cd6 1_555 1_555
N1 Cd6 1_555 1_555
C13 N1 1_555 1_555
H5 C13 1_555 1_555
C14 C13 1_555 1_555
H6 C14 1_555 1_555
C15 C14 1_555 1_555
C16 C15 1_555 1_555
H7 C16 1_555 1_555
C17 N1 1_555 1_555
H8 C17 1_555 1_555
H10 C19 1_555 1_555
C20 C15 1_555 1_555
C21 C20 1_555 1_555
H11 C21 1_555 1_555
N3 Cd4 1_555 1_555
C23 N3 1_555 1_555
C24 C23 1_555 1_555
C25 C24 1_555 1_555
C26 C25 1_555 1_555
H15 C26 1_555 1_555
C27 N3 1_555 1_555
H16 C27 1_555 1_555
H18 C29 1_555 1_555
C30 C25 1_555 1_555
C31 C30 1_555 1_555
H19 C31 1_555 1_555
Cd7 O1 1_555 1_555
O9 Cd6 1_555 1_555
O10 Cd6 1_555 1_555
O11 Cd4 1_555 1_555
C3 C4 1_555 1_555
C6 O4 1_555 1_555
O2 Cd7 1_555 1_555
C11 O5 1_555 1_555
C11 O6 1_555 1_555
C16 C17 1_555 1_555
C19 C20 1_555 1_555
C26 C27 1_555 1_555
C29 C30 1_555 1_555
Cd7 O10 1_555 1_555
S2 C7 1_555 1_555
C7 C8 1_555 1_555
C8 H3 1_555 1_555
C9 C8 1_555 1_555
H4 C9 1_555 1_555
C10 S2 1_555 1_555
C12 C10 1_555 1_555
O11 C12 1_555 1_555
O8 C12 1_555 1_555
C9 C10 1_555 1_555
N2_2 C18_2 1_555 1_555
C18_2 H9_2 1_555 1_555
C22_2 N2_2 1_555 1_555
H12_2 C22_2 1_555 1_555
Cd7 N2_2 1_555 1_555
N4_2 C28_2 1_555 1_555
C28_2 H17_2 1_555 1_555
C32_2 N4_2 1_555 1_555
H20_2 C32_2 1_555 1_555
Cd5 N4_2 1_555 1_555
S1_2 C1_2 1_555 1_555
C1_2 C2_2 1_555 1_555
C2_2 H1_2 1_555 1_555
C3_2 C2_2 1_555 1_555
H2_2 C3_2 1_555 1_555
C4_2 S1_2 1_555 1_555
C5_2 C1_2 1_555 1_555
O9 C5_2 1_555 1_555
O10 C5_2 1_555 1_555
S2_2 C7_2 1_555 1_555
C7_2 C8_2 1_555 1_555
C8_2 H3_2 1_555 1_555
C9_2 C8_2 1_555 1_555
H4_2 C9_2 1_555 1_555
C10_2 S2_2 1_555 1_555
C11_2 C7_2 1_555 1_555
C12_2 C10_2 1_555 1_555
O5_2 Cd7 1_555 1_555
O6_2 Cd7 1_555 1_555
O12 C12_2 1_555 1_555
O13 C12_2 1_555 1_555
N1_2 Cd7 1_555 1_555
C13_2 N1_2 1_555 1_555
H5_2 C13_2 1_555 1_555
C14_2 C13_2 1_555 1_555
H6_2 C14_2 1_555 1_555
C15_2 C14_2 1_555 1_555
C16_2 C15_2 1_555 1_555
H7_2 C16_2 1_555 1_555
C17_2 N1_2 1_555 1_555
H8_2 C17_2 1_555 1_555
H10_2 C19_2 1_555 1_555
C20_2 C15_2 1_555 1_555
C21_2 C20_2 1_555 1_555
H11_2 C21_2 1_555 1_555
Cd5 O12 1_555 1_555
C3_2 C4_2 1_555 1_555
C9_2 C10_2 1_555 1_555
C11_2 O5_2 1_555 1_555
C11_2 O6_2 1_555 1_555
C16_2 C17_2 1_555 1_555
C19_2 C20_2 1_555 1_555
Cd5 O3_2 1_555 1_555
O3_2 C6_2 1_555 1_555
O4_2 Cd5 1_555 1_555
N3_2 Cd5 1_555 1_555
C23_2 N3_2 1_555 1_555
C24_2 C23_2 1_555 1_555
C25_2 C24_2 1_555 1_555
C26_2 C25_2 1_555 1_555
H15_2 C26_2 1_555 1_555
C27_2 N3_2 1_555 1_555
H16_2 C27_2 1_555 1_555
H18_2 C29_2 1_555 1_555
C30_2 C25_2 1_555 1_555
C31_2 C30_2 1_555 1_555
H19_2 C31_2 1_555 1_555
C6_2 O4_2 1_555 1_555
C26_2 C27_2 1_555 1_555
C29_2 C30_2 1_555 1_555
S2_3 C7_3 1_555 1_555
C7_3 C8_3 1_555 1_555
C8_3 H3_3 1_555 1_555
C9_3 C8_3 1_555 1_555
H4_3 C9_3 1_555 1_555
C10_3 S2_3 1_555 1_555
C12_3 C10_3 1_555 1_555
O7 C12_3 1_555 1_555
O8_2 C12_3 1_555 1_555
Cd3 O7 1_555 1_555
C9_3 C10_3 1_555 1_555
Cd3 O3_3 1_555 1_555
Cd2 O2_2 1_555 1_555
S1_3 C1_3 1_555 1_555
C1_3 C2_3 1_555 1_555
C2_3 H1_3 1_555 1_555
C3_3 C2_3 1_555 1_555
H2_3 C3_3 1_555 1_555
C4_3 S1_3 1_555 1_555
C5_3 C1_3 1_555 1_555
C6_3 C4_3 1_555 1_555
O1_2 C5_3 1_555 1_555
O2_2 C5_3 1_555 1_555
O3_3 C6_3 1_555 1_555
O4_3 Cd3 1_555 1_555
O5_3 Cd2 1_555 1_555
O6_3 Cd2 1_555 1_555
N1_3 Cd2 1_555 1_555
C13_3 N1_3 1_555 1_555
H5_3 C13_3 1_555 1_555
C14_3 C13_3 1_555 1_555
H6_3 C14_3 1_555 1_555
C15_3 C14_3 1_555 1_555
C16_3 C15_3 1_555 1_555
H7_3 C16_3 1_555 1_555
C17_3 N1_3 1_555 1_555
H8_3 C17_3 1_555 1_555
H10_3 C19_3 1_555 1_555
C20_3 C15_3 1_555 1_555
C21_3 C20_3 1_555 1_555
H11_3 C21_3 1_555 1_555
N3_3 Cd3 1_555 1_555
C23_3 N3_3 1_555 1_555
C24_3 C23_3 1_555 1_555
C25_3 C24_3 1_555 1_555
C26_3 C25_3 1_555 1_555
H15_3 C26_3 1_555 1_555
C27_3 N3_3 1_555 1_555
H16_3 C27_3 1_555 1_555
H18_3 C29_3 1_555 1_555
C30_3 C25_3 1_555 1_555
C31_3 C30_3 1_555 1_555
H19_3 C31_3 1_555 1_555
Cd7_2 O1_2 1_555 1_555
O9_2 Cd2 1_555 1_555
O10_2 Cd2 1_555 1_555
N5 Cd2 1_555 1_555
N6 Cd3 1_555 1_555
C3_3 C4_3 1_555 1_555
C6_3 O4_3 1_555 1_555
O2_2 Cd7_2 1_555 1_555
C11_3 O5_3 1_555 1_555
C11_3 O6_3 1_555 1_555
C16_3 C17_3 1_555 1_555
C19_3 C20_3 1_555 1_555
C26_3 C27_3 1_555 1_555
C29_3 C30_3 1_555 1_555
Cd7_2 O10_2 1_555 1_555
N5 C18_3 1_555 1_555
C18_3 H9_3 1_555 1_555
C22_3 N5 1_555 1_555
H12_3 C22_3 1_555 1_555
N6 C28_3 1_555 1_555
C28_3 H17_3 1_555 1_555
C32_3 N6 1_555 1_555
H20_3 C32_3 1_555 1_555
Cd5_2 O3_4 1_555 1_555
O3_4 C6_4 1_555 1_555
O4_4 Cd5_2 1_555 1_555
N3_4 Cd5_2 1_555 1_555
C23_4 N3_4 1_555 1_555
C24_4 C23_4 1_555 1_555
C25_4 C24_4 1_555 1_555
C26_4 C25_4 1_555 1_555
H15_4 C26_4 1_555 1_555
C27_4 N3_4 1_555 1_555
H16_4 C27_4 1_555 1_555
H18_4 C29_4 1_555 1_555
C30_4 C25_4 1_555 1_555
C31_4 C30_4 1_555 1_555
H19_4 C31_4 1_555 1_555
O12_2 Cd5_2 1_555 1_555
N6_2 Cd5_2 1_555 1_555
C6_4 O4_4 1_555 1_555
C26_4 C27_4 1_555 1_555
C29_4 C30_4 1_555 1_555
S1_4 C1_4 1_555 1_555
C1_4 C2_4 1_555 1_555
C2_4 H1_4 1_555 1_555
C3_4 C2_4 1_555 1_555
H2_4 C3_4 1_555 1_555
C4_4 S1_4 1_555 1_555
C5_4 C1_4 1_555 1_555
O9_2 C5_4 1_555 1_555
O10_2 C5_4 1_555 1_555
S2_4 C7_4 1_555 1_555
C7_4 C8_4 1_555 1_555
C8_4 H3_4 1_555 1_555
C9_4 C8_4 1_555 1_555
H4_4 C9_4 1_555 1_555
C10_4 S2_4 1_555 1_555
C11_4 C7_4 1_555 1_555
C12_4 C10_4 1_555 1_555
O5_4 Cd7_2 1_555 1_555
O6_4 Cd7_2 1_555 1_555
O12_2 C12_4 1_555 1_555
O13_2 C12_4 1_555 1_555
N1_4 Cd7_2 1_555 1_555
C13_4 N1_4 1_555 1_555
H5_4 C13_4 1_555 1_555
C14_4 C13_4 1_555 1_555
H6_4 C14_4 1_555 1_555
C15_4 C14_4 1_555 1_555
C16_4 C15_4 1_555 1_555
H7_4 C16_4 1_555 1_555
C17_4 N1_4 1_555 1_555
H8_4 C17_4 1_555 1_555
H10_4 C19_4 1_555 1_555
C20_4 C15_4 1_555 1_555
C21_4 C20_4 1_555 1_555
H11_4 C21_4 1_555 1_555
N5_2 Cd7_2 1_555 1_555
C3_4 C4_4 1_555 1_555
C9_4 C10_4 1_555 1_555
C11_4 O5_4 1_555 1_555
C11_4 O6_4 1_555 1_555
C16_4 C17_4 1_555 1_555
C19_4 C20_4 1_555 1_555
N6_2 C28_4 1_555 1_555
C28_4 H17_4 1_555 1_555
C32_4 N6_2 1_555 1_555
H20_4 C32_4 1_555 1_555
N5_2 C18_4 1_555 1_555
C18_4 H9_4 1_555 1_555
C22_4 N5_2 1_555 1_555
H12_4 C22_4 1_555 1_555

#END
