
###############################################################################
#
# This file contains modified crystal structure data generated from the
# MOF subset of the Cambridge Structural Database (CSD) v543 
# hosted by the Cambridge Crystallographic Data Centre (CCDC).
#
# This work is licensed under the Creative Commons
# Attribution-NonCommercial-ShareAlike 4.0 International License.
# To view a copy of this license, visit
# http://creativecommons.org/licenses/by-nc-sa/4.0/
# or send a letter to
# Creative Commons, PO Box 1866, Mountain View, CA 94042, USA.
#
# CIF created using the CSD Python API on 29 September 2022
# The structure has been converted into the P1 space group
# The structure has a 3D framework
# The original CSD entry AGUWUV is in the triclinic crystal system
# The framework has been calculated to contain at least 10.0% void space
# The void calculation uses a probe of radius 1.32A, grid spacing 0.4
#
###############################################################################

data_AGUWUV
_chemical_formula_moiety         '(C20 H16 N12 Ni3 O12)n'
_symmetry_cell_setting           triclinic
_symmetry_space_group_name_H-M   'P 1'
_symmetry_Int_Tables_number      1
_space_group_name_Hall           'P 1'
loop_
_symmetry_equiv_pos_site_id
_symmetry_equiv_pos_as_xyz
1 x,y,z
_cell_length_a                   8.1933(3)
_cell_length_b                   8.8646(3)
_cell_length_c                   12.2028(5)
_cell_angle_alpha                110.0570(10)
_cell_angle_beta                 92.8970(10)
_cell_angle_gamma                105.7410(10)
_cell_volume                     791.15
loop_
_atom_site_label
_atom_site_type_symbol
_atom_site_fract_x
_atom_site_fract_y
_atom_site_fract_z
_atom_site_U_iso_or_equiv
_atom_site_thermal_displace_type
O6 O 0.1463(3) 0.1760(3) 0.84900(19) 0.0368 Uani
H3 H 0.2101 0.2178 0.9159 0.0550 Uiso
H4 H 0.1947 0.1822 0.7901 0.0550 Uiso
Ni5 Ni 0.02606(4) 0.05655(4) 0.17948(3) 0.0167 Uani
N8 N 0.1359(3) 0.9141(3) 0.94404(18) 0.0189 Uani
N16 N 0.1266(3) 0.8153(3) 0.71027(19) 0.0227 Uani
C10 C 0.5743(3) 0.0781(3) 0.6172(2) 0.0177 Uani
H8 H 0.6243 0.1308 0.6963 0.0210 Uiso
Ni3 Ni 0.5000 0.5000 0.5000 0.0142 Uani
O7 O 0.1567(2) 0.0238(2) 0.31250(15) 0.0209 Uani
O8 O 0.2942(2) 0.2890(2) 0.42789(16) 0.0205 Uani
O10 O 0.5467(2) 0.4448(2) 0.64332(15) 0.0194 Uani
O12 O 0.3580(5) 0.3137(3) 0.7270(3) 0.0826 Uani
O13 O 0.1861(3) 0.2899(3) 0.19847(18) 0.0343 Uani
H9 H 0.2516 0.3527 0.2637 0.0510 Uiso
H10 H 0.1908 0.3282 0.1433 0.0510 Uiso
N11 N 0.8339(3) 0.0566(3) 0.94074(18) 0.0211 Uani
C16 C 0.2737(3) 0.1334(3) 0.3942(2) 0.0160 Uani
C17 C 0.3919(3) 0.0678(3) 0.4517(2) 0.0169 Uani
C18 C 0.4677(3) 0.1475(3) 0.5712(2) 0.0171 Uani
C19 C 0.4516(4) 0.3127(3) 0.6528(2) 0.0226 Uani
N10 N 0.1661(3) 0.9434(3) 0.05926(18) 0.0211 Uani
N13 N 0.2917(3) 0.8859(4) 0.0802(2) 0.0333 Uani
Ni2 Ni 0.97394(4) 0.94345(4) 0.82052(3) 0.0167 Uani
O1 O 0.8433(2) 0.9762(2) 0.68750(15) 0.0209 Uani
O2 O 0.7058(2) 0.7110(2) 0.57211(16) 0.0205 Uani
O3 O 0.4533(2) 0.5552(2) 0.35668(15) 0.0194 Uani
O4 O 0.6420(5) 0.6863(3) 0.2730(3) 0.0826 Uani
O5 O 0.8139(3) 0.7101(3) 0.80153(18) 0.0343 Uani
H1 H 0.7484 0.6473 0.7363 0.0510 Uiso
H2 H 0.8092 0.6718 0.8567 0.0510 Uiso
N1 N 0.8641(3) 0.0859(3) 0.05596(18) 0.0189 Uani
N4 N 0.6550(3) 0.1829(3) 0.0223(2) 0.0317 Uani
N5 N 0.8734(3) 0.1847(3) 0.28973(19) 0.0227 Uani
N6 N 0.6668(3) 0.3689(3) 0.40797(19) 0.0188 Uani
C1 C 0.7526(3) 0.1633(3) 0.1032(2) 0.0202 Uani
C2 C 0.7554(3) 0.2213(3) 0.2314(2) 0.0201 Uani
C3 C 0.8875(4) 0.2418(4) 0.4071(2) 0.0261 Uani
H5 H 0.9673 0.2184 0.4505 0.0310 Uiso
C4 C 0.7860(3) 0.3353(3) 0.4660(2) 0.0224 Uani
H6 H 0.8015 0.3755 0.5481 0.0270 Uiso
C5 C 0.6512(3) 0.3106(3) 0.2899(2) 0.0216 Uani
H7 H 0.5685 0.3307 0.2465 0.0260 Uiso
C6 C 0.7263(3) 0.8666(3) 0.6058(2) 0.0160 Uani
C7 C 0.6081(3) 0.9322(3) 0.5483(2) 0.0169 Uani
C8 C 0.5323(3) 0.8525(3) 0.4288(2) 0.0171 Uani
C9 C 0.5484(4) 0.6873(3) 0.3472(2) 0.0226 Uani
N14 N 0.3450(3) 0.8171(3) 0.9777(2) 0.0317 Uani
N18 N 0.3332(3) 0.6311(3) 0.59203(19) 0.0188 Uani
C11 C 0.2474(3) 0.8367(3) 0.8968(2) 0.0202 Uani
C12 C 0.2446(3) 0.7787(3) 0.7686(2) 0.0201 Uani
C13 C 0.1125(4) 0.7582(4) 0.5929(2) 0.0261 Uani
H13 H 0.0327 0.7816 0.5495 0.0310 Uiso
C14 C 0.2140(3) 0.6647(3) 0.5340(2) 0.0224 Uani
H14 H 0.1985 0.6245 0.4519 0.0270 Uiso
C15 C 0.3488(3) 0.6894(3) 0.7101(2) 0.0216 Uani
H15 H 0.4315 0.6693 0.7535 0.0260 Uiso
C20 C 0.4257(3) 0.9219(3) 0.3828(2) 0.0177 Uani
H16 H 0.3757 0.8692 0.3037 0.0210 Uiso
N3 N 0.7083(3) 0.1141(4) 0.9198(2) 0.0333 Uani
O14 O 0.8537(3) 0.8240(3) 0.15100(19) 0.0368 Uani
H11 H 0.7899 0.7822 0.0841 0.0550 Uiso
H12 H 0.8053 0.8178 0.2099 0.0550 Uiso
loop_
_atom_site_aniso_label
_atom_site_aniso_U_11
_atom_site_aniso_U_22
_atom_site_aniso_U_33
_atom_site_aniso_U_23
_atom_site_aniso_U_13
_atom_site_aniso_U_12
O6 0.0358 0.0401 0.0275 0.0151 0.0033 -0.0025
Ni5 0.01761 0.02191 0.0131 0.0056 0.00354 0.01107
N8 0.0215 0.0245 0.0137 0.0061 0.0049 0.0125
N16 0.0228 0.0321 0.0184 0.0089 0.006 0.0166
C10 0.0192 0.0183 0.0148 0.0059 -0.0004 0.0054
Ni3 0.0172 0.0151 0.0122 0.00432 0.00334 0.00851
O7 0.0233 0.0196 0.0196 0.0062 -0.0028 0.0088
O8 0.0212 0.0168 0.0239 0.0068 -0.0005 0.0083
O10 0.0264 0.0176 0.0143 0.0047 0.0014 0.0089
O12 0.137 0.0367 0.096 0.0322 0.1 0.0365
O13 0.0395 0.0292 0.0248 0.0093 -0.0079 -0.0009
N11 0.0224 0.0297 0.0142 0.0071 0.0036 0.0141
C16 0.0173 0.0202 0.0136 0.008 0.0043 0.0082
C17 0.0193 0.0172 0.0175 0.0092 0.0026 0.0071
C18 0.0188 0.0169 0.0182 0.0084 0.0042 0.0069
C19 0.0301 0.0226 0.0212 0.0106 0.0093 0.0136
N10 0.0224 0.0297 0.0142 0.0071 0.0036 0.0141
N13 0.0397 0.0546 0.0189 0.0132 0.0083 0.0353
Ni2 0.01761 0.02191 0.0131 0.0056 0.00354 0.01107
O1 0.0233 0.0196 0.0196 0.0062 -0.0028 0.0088
O2 0.0212 0.0168 0.0239 0.0068 -0.0005 0.0083
O3 0.0264 0.0176 0.0143 0.0047 0.0014 0.0089
O4 0.137 0.0367 0.096 0.0322 0.1 0.0365
O5 0.0395 0.0292 0.0248 0.0093 -0.0079 -0.0009
N1 0.0215 0.0245 0.0137 0.0061 0.0049 0.0125
N4 0.0364 0.0517 0.0181 0.0114 0.0075 0.0323
N5 0.0228 0.0321 0.0184 0.0089 0.006 0.0166
N6 0.0211 0.02 0.0173 0.0068 0.0064 0.009
C1 0.0222 0.0251 0.0171 0.0067 0.005 0.0144
C2 0.0221 0.0236 0.0166 0.006 0.0043 0.0116
C3 0.0249 0.0411 0.0179 0.0097 0.0043 0.0203
C4 0.0233 0.0302 0.0145 0.0059 0.0044 0.0124
C5 0.0237 0.0277 0.0186 0.008 0.0061 0.0165
C6 0.0173 0.0202 0.0136 0.008 0.0043 0.0082
C7 0.0193 0.0172 0.0175 0.0092 0.0026 0.0071
C8 0.0188 0.0169 0.0182 0.0084 0.0042 0.0069
C9 0.0301 0.0226 0.0212 0.0106 0.0093 0.0136
N14 0.0364 0.0517 0.0181 0.0114 0.0075 0.0323
N18 0.0211 0.02 0.0173 0.0068 0.0064 0.009
C11 0.0222 0.0251 0.0171 0.0067 0.005 0.0144
C12 0.0221 0.0236 0.0166 0.006 0.0043 0.0116
C13 0.0249 0.0411 0.0179 0.0097 0.0043 0.0203
C14 0.0233 0.0302 0.0145 0.0059 0.0044 0.0124
C15 0.0237 0.0277 0.0186 0.008 0.0061 0.0165
C20 0.0192 0.0183 0.0148 0.0059 -0.0004 0.0054
N3 0.0397 0.0546 0.0189 0.0132 0.0083 0.0353
O14 0.0358 0.0401 0.0275 0.0151 0.0033 -0.0025
loop_
_geom_bond_atom_site_label_1
_geom_bond_atom_site_label_2
_geom_bond_site_symmetry_1
_geom_bond_site_symmetry_2
H3 O6 1_555 1_555
H4 O6 1_555 1_555
H8 C10 1_555 1_555
Ni3 O8 1_555 1_555
Ni5 O7 1_555 1_555
O7 C16 1_555 1_555
O8 C16 1_555 1_555
O10 Ni3 1_555 1_555
O12 C19 1_555 1_555
O13 Ni5 1_555 1_555
H9 O13 1_555 1_555
H10 O13 1_555 1_555
C16 C17 1_555 1_555
C17 C18 1_555 1_555
C18 C10 1_555 1_555
C19 O10 1_555 1_555
C18 C19 1_555 1_555
N10 N13 1_555 1_555
Ni3 O2 1_555 1_555
Ni2 O1 1_555 1_555
O1 C6 1_555 1_555
O2 C6 1_555 1_555
O3 Ni3 1_555 1_555
O4 C9 1_555 1_555
O5 Ni2 1_555 1_555
H1 O5 1_555 1_555
H2 O5 1_555 1_555
N4 C1 1_555 1_555
N5 C2 1_555 1_555
N6 Ni3 1_555 1_555
C1 N1 1_555 1_555
C2 C1 1_555 1_555
C3 N5 1_555 1_555
H5 C3 1_555 1_555
C4 N6 1_555 1_555
H6 C4 1_555 1_555
C5 N6 1_555 1_555
H7 C5 1_555 1_555
C6 C7 1_555 1_555
C7 C8 1_555 1_555
C8 C9 1_555 1_555
C9 O3 1_555 1_555
N14 C11 1_555 1_555
N18 Ni3 1_555 1_555
C11 N8 1_555 1_555
C12 N16 1_555 1_555
C13 N16 1_555 1_555
H13 C13 1_555 1_555
C14 N18 1_555 1_555
H14 C14 1_555 1_555
C15 N18 1_555 1_555
H15 C15 1_555 1_555
C20 C8 1_555 1_555
H16 C20 1_555 1_555
C2 C5 1_555 1_555
C3 C4 1_555 1_555
C11 C12 1_555 1_555
C12 C15 1_555 1_555
C13 C14 1_555 1_555
N11 N3 1_555 1_555
H11 O14 1_555 1_555
H12 O14 1_555 1_555

#END
