
###############################################################################
#
# This file contains modified crystal structure data generated from the
# MOF subset of the Cambridge Structural Database (CSD) v543 
# hosted by the Cambridge Crystallographic Data Centre (CCDC).
#
# This work is licensed under the Creative Commons
# Attribution-NonCommercial-ShareAlike 4.0 International License.
# To view a copy of this license, visit
# http://creativecommons.org/licenses/by-nc-sa/4.0/
# or send a letter to
# Creative Commons, PO Box 1866, Mountain View, CA 94042, USA.
#
# CIF created using the CSD Python API on 29 September 2022
# The structure has been converted into the P1 space group
# The structure has a 3D framework
# The original CSD entry AHAFAR is in the monoclinic crystal system
# The framework has been calculated to contain at least 10.0% void space
# The void calculation uses a probe of radius 1.32A, grid spacing 0.4
#
###############################################################################

data_AHAFAR
_chemical_formula_moiety         '(C72 H68 Co4 N16 O12)n'
_symmetry_cell_setting           triclinic
_symmetry_space_group_name_H-M   'P 1'
_symmetry_Int_Tables_number      1
_space_group_name_Hall           'P 1'
loop_
_symmetry_equiv_pos_site_id
_symmetry_equiv_pos_as_xyz
1 x,y,z
_cell_length_a                   11.770(2)
_cell_length_b                   13.743(3)
_cell_length_c                   12.618(2)
_cell_angle_alpha                90
_cell_angle_beta                 97.437(3)
_cell_angle_gamma                90
_cell_volume                     2023.86
loop_
_atom_site_label
_atom_site_type_symbol
_atom_site_fract_x
_atom_site_fract_y
_atom_site_fract_z
C17 C 0.0843(2) 0.5881(2) 0.4097(2)
H16 H 0.1244 0.6300 0.4640
H17 H 0.1376 0.5384 0.3930
C18 C 0.0503(3) 0.6447(2) 0.3156(2)
O3 O 0.13079(17) 0.67267(16) 0.26654(17)
C19 C 0.1473(2) 0.0303(2) 0.4136(2)
H18 H 0.1555 0.0064 0.3460
C20 C 0.1163(2) 0.1330(2) 0.5498(3)
H19 H 0.1006 0.1886 0.5874
C21 C 0.1387(2) 0.0388(2) 0.5943(2)
H20 H 0.1403 0.0218 0.6658
C33 C 0.0818(3) 0.3834(2) 0.4896(2)
C34 C 0.0222(2) 0.4642(2) 0.5415(2)
H32 H 0.0745 0.4953 0.5983
Co2 Co 0.11503(3) 0.23698(3) 0.34305(3)
Co4 Co 0.11503(3) 0.26302(3) 0.84305(3)
N5 N 0.1219(2) 0.12775(18) 0.4386(2)
N10 N 0.2612(2) 0.27820(18) 0.29514(19)
O5 O 0.02695(17) 0.33214(15) 0.42115(17)
O6 O 0.1881(2) 0.37266(16) 0.50532(18)
O8 O 0.04145(17) 0.31861(14) 0.71040(16)
O9 O 0.04145(17) 0.18139(14) 0.21040(16)
C22 C 0.1887(3) 0.8711(2) 0.5274(3)
H21 H 0.1728 0.8516 0.5979
H22 H 0.1417 0.8316 0.4752
C23 C 0.3168(3) 0.8525(2) 0.5179(3)
C24 C 0.3887(3) 0.9201(2) 0.5716(2)
H23 H 0.3591 0.9676 0.6127
C25 C 0.5049(3) 0.9175(2) 0.5646(2)
H24 H 0.5534 0.9637 0.6003
C26 C 0.5489(3) 0.8461(2) 0.5043(3)
H25 H 0.6271 0.8442 0.4997
C27 C 0.4766(2) 0.7771(2) 0.4506(2)
C28 C 0.3611(3) 0.7797(2) 0.4581(2)
H26 H 0.3126 0.7330 0.4233
C29 C 0.5197(3) 0.7100(2) 0.3733(3)
H27 H 0.4551 0.6748 0.3361
H28 H 0.5698 0.6628 0.4128
C30 C 0.6937(3) 0.7207(2) 0.2834(2)
H29 H 0.7301 0.6689 0.3212
C31 C 0.6558(2) 0.8487(2) 0.1666(2)
H30 H 0.6635 0.8953 0.1145
C32 C 0.5585(3) 0.8360(3) 0.2217(2)
H31 H 0.4915 0.8727 0.2125
Co6 Co 0.88497(3) 0.73698(3) 0.15695(3)
N6 N 0.1581(2) 0.97543(18) 0.50971(19)
N7 N 0.5827(2) 0.75699(18) 0.2932(2)
N8 N 0.7388(2) 0.77820(18) 0.20486(19)
C4 C 0.8113(3) 0.1289(2) 0.4726(3)
H4 H 0.8272 0.1484 0.4021
H5 H 0.8583 0.1684 0.5248
C5 C 0.6832(3) 0.1475(2) 0.4821(3)
C6 C 0.6113(3) 0.0799(2) 0.4284(2)
H6 H 0.6409 0.0324 0.3873
C7 C 0.4951(3) 0.0825(2) 0.4354(2)
H7 H 0.4466 0.0363 0.3997
C8 C 0.4511(3) 0.1539(2) 0.4957(3)
H8 H 0.3729 0.1558 0.5003
C9 C 0.5234(2) 0.2229(2) 0.5494(2)
C10 C 0.6389(3) 0.2203(2) 0.5419(2)
H9 H 0.6874 0.2670 0.5767
C11 C 0.4803(3) 0.2900(2) 0.6267(3)
H10 H 0.5449 0.3252 0.6639
H11 H 0.4302 0.3372 0.5872
C12 C 0.3063(3) 0.2793(2) 0.7166(2)
H12 H 0.2699 0.3311 0.6788
C13 C 0.3442(2) 0.1513(2) 0.8334(2)
H13 H 0.3365 0.1047 0.8855
C14 C 0.4415(3) 0.1640(3) 0.7783(2)
H14 H 0.5085 0.1273 0.7875
N2 N 0.8419(2) 0.02457(18) 0.49029(19)
N3 N 0.4173(2) 0.24301(18) 0.7068(2)
N4 N 0.2612(2) 0.22180(18) 0.79514(19)
C1 C 0.8527(2) 0.9697(2) 0.5864(2)
H1 H 0.8445 0.9936 0.6540
C2 C 0.8837(2) 0.8670(2) 0.4502(3)
H2 H 0.8994 0.8114 0.4126
C3 C 0.8613(2) 0.9612(2) 0.4057(2)
H3 H 0.8597 0.9782 0.3342
C15 C 0.9182(3) 0.6166(2) 0.5104(2)
C16 C 0.9778(2) 0.5358(2) 0.4585(2)
H15 H 0.9255 0.5047 0.4017
Co1 Co 0.88497(3) 0.76302(3) 0.65695(3)
N1 N 0.8781(2) 0.87225(18) 0.5614(2)
O1 O 0.97305(17) 0.66786(15) 0.57885(17)
O2 O 0.8119(2) 0.62734(16) 0.49468(18)
O4 O 0.95855(17) 0.68139(14) 0.28960(16)
C35 C 0.9157(2) 0.4119(2) 0.5903(2)
H33 H 0.8756 0.3700 0.5360
H34 H 0.8624 0.4616 0.6070
C36 C 0.9497(3) 0.3553(2) 0.6844(2)
N9 N 0.7388(2) 0.72180(18) 0.70486(19)
O7 O 0.86921(17) 0.32733(16) 0.73346(17)
O10 O 0.95855(17) 0.81861(14) 0.78960(16)
C2_2 C 0.1163(2) 0.3670(2) 0.0498(3)
H2_2 H 0.1006 0.3114 0.0874
C3_2 C 0.1387(2) 0.4612(2) 0.0943(2)
H3_2 H 0.1403 0.4782 0.1658
C4_2 C 0.1887(3) 0.6289(2) 0.0274(3)
H4_2 H 0.1728 0.6484 0.0979
C5_2 C 0.3168(3) 0.6475(2) 0.0179(3)
C6_2 C 0.3887(3) 0.5799(2) 0.0716(2)
H6_2 H 0.3591 0.5324 0.1127
C7_2 C 0.5049(3) 0.5825(2) 0.0646(2)
H7_2 H 0.5534 0.5363 0.1003
C8_2 C 0.5489(3) 0.6539(2) 0.0043(3)
C16_2 C 0.0222(2) 0.0358(2) 0.0415(2)
H15_2 H 0.0745 0.0047 0.0983
N2_2 N 0.1581(2) 0.52457(18) 0.00971(19)
O2_2 O 0.1881(2) 0.12734(16) 0.00532(18)
C1_2 C 0.1473(2) 0.4697(2) 0.9136(2)
H1_2 H 0.1555 0.4936 0.8460
H5_2 H 0.1417 0.6684 0.9752
H8_2 H 0.6271 0.6558 0.9997
C9_2 C 0.4766(2) 0.7229(2) 0.9506(2)
C10_2 C 0.3611(3) 0.7203(2) 0.9581(2)
H9_2 H 0.3126 0.7670 0.9233
C11_2 C 0.5197(3) 0.7900(2) 0.8733(3)
H10_2 H 0.4551 0.8252 0.8361
H11_2 H 0.5698 0.8372 0.9128
C12_2 C 0.6937(3) 0.7793(2) 0.7834(2)
H12_2 H 0.7301 0.8311 0.8212
C13_2 C 0.6558(2) 0.6513(2) 0.6666(2)
H13_2 H 0.6635 0.6047 0.6145
C14_2 C 0.5585(3) 0.6640(3) 0.7217(2)
H14_2 H 0.4915 0.6273 0.7125
C15_2 C 0.0818(3) 0.1166(2) 0.9896(2)
N1_2 N 0.1219(2) 0.37225(18) 0.9386(2)
N3_2 N 0.5827(2) 0.74301(18) 0.7932(2)
O1_2 O 0.02695(17) 0.16786(15) 0.92115(17)
C19_2 C 0.8527(2) 0.5303(2) 0.0864(2)
H18_2 H 0.8445 0.5064 0.1540
H22_2 H 0.8583 0.3316 0.0248
H25_2 H 0.3729 0.3442 0.0003
C27_2 C 0.5234(2) 0.2771(2) 0.0494(2)
C28_2 C 0.6389(3) 0.2797(2) 0.0419(2)
H26_2 H 0.6874 0.2330 0.0767
C29_2 C 0.4803(3) 0.2100(2) 0.1267(3)
H27_2 H 0.5449 0.1748 0.1639
H28_2 H 0.4302 0.1628 0.0872
C30_2 C 0.3063(3) 0.2207(2) 0.2166(2)
H29_2 H 0.2699 0.1689 0.1788
C31_2 C 0.3442(2) 0.3487(2) 0.3334(2)
H30_2 H 0.3365 0.3953 0.3855
C32_2 C 0.4415(3) 0.3360(3) 0.2783(2)
H31_2 H 0.5085 0.3727 0.2875
C33_2 C 0.9182(3) 0.8834(2) 0.0104(2)
N5_2 N 0.8781(2) 0.62775(18) 0.0614(2)
N7_2 N 0.4173(2) 0.25699(18) 0.2068(2)
O5_2 O 0.97305(17) 0.83214(15) 0.07885(17)
C20_2 C 0.8837(2) 0.6330(2) 0.9502(3)
H19_2 H 0.8994 0.6886 0.9126
C21_2 C 0.8613(2) 0.5388(2) 0.9057(2)
H20_2 H 0.8597 0.5218 0.8342
C22_2 C 0.8113(3) 0.3711(2) 0.9726(3)
H21_2 H 0.8272 0.3516 0.9021
C23_2 C 0.6832(3) 0.3525(2) 0.9821(3)
C24_2 C 0.6113(3) 0.4201(2) 0.9284(2)
H23_2 H 0.6409 0.4676 0.8873
C25_2 C 0.4951(3) 0.4175(2) 0.9354(2)
H24_2 H 0.4466 0.4637 0.8997
C26_2 C 0.4511(3) 0.3461(2) 0.9957(3)
C34_2 C 0.9778(2) 0.9642(2) 0.9585(2)
H32_2 H 0.9255 0.9953 0.9017
N6_2 N 0.8419(2) 0.47543(18) 0.99029(19)
O6_2 O 0.8119(2) 0.87266(16) 0.99468(18)
C35_2 C 0.0843(2) 0.9119(2) 0.9097(2)
H33_2 H 0.1244 0.8700 0.9640
H34_2 H 0.1376 0.9616 0.8930
C36_2 C 0.0503(3) 0.8553(2) 0.8156(2)
O7_2 O 0.13079(17) 0.82733(16) 0.76654(17)
C17_2 C 0.9157(2) 0.0881(2) 0.0903(2)
H16_2 H 0.8756 0.1300 0.0360
H17_2 H 0.8624 0.0384 0.1070
C18_2 C 0.9497(3) 0.1447(2) 0.1844(2)
O3_2 O 0.86921(17) 0.17267(16) 0.23346(17)
loop_
_geom_bond_atom_site_label_1
_geom_bond_atom_site_label_2
_geom_bond_site_symmetry_1
_geom_bond_site_symmetry_2
H16 C17 1_555 1_555
H17 C17 1_555 1_555
C18 C17 1_555 1_555
O3 C18 1_555 1_555
C19 H18 1_555 1_555
C20 H19 1_555 1_555
C21 C20 1_555 1_555
H20 C21 1_555 1_555
C33 C34 1_555 1_555
H32 C34 1_555 1_555
Co2 N5 1_555 1_555
Co4 O8 1_555 1_555
N5 C19 1_555 1_555
N10 Co2 1_555 1_555
O5 C33 1_555 1_555
O6 C33 1_555 1_555
O9 Co2 1_555 1_555
C20 N5 1_555 1_555
Co2 O5 1_555 1_555
C22 H21 1_555 1_555
H22 C22 1_555 1_555
C23 C22 1_555 1_555
C24 C23 1_555 1_555
H23 C24 1_555 1_555
C25 C24 1_555 1_555
H24 C25 1_555 1_555
C26 C25 1_555 1_555
H25 C26 1_555 1_555
C27 C26 1_555 1_555
C28 C23 1_555 1_555
H26 C28 1_555 1_555
C29 C27 1_555 1_555
H27 C29 1_555 1_555
H28 C29 1_555 1_555
C30 H29 1_555 1_555
C31 H30 1_555 1_555
C32 C31 1_555 1_555
H31 C32 1_555 1_555
Co6 N8 1_555 1_555
N7 C29 1_555 1_555
N8 C30 1_555 1_555
C22 N6 1_555 1_555
C27 C28 1_555 1_555
C30 N7 1_555 1_555
C31 N8 1_555 1_555
C32 N7 1_555 1_555
C4 H4 1_555 1_555
H5 C4 1_555 1_555
C5 C4 1_555 1_555
C6 C5 1_555 1_555
H6 C6 1_555 1_555
C7 C6 1_555 1_555
H7 C7 1_555 1_555
C8 C7 1_555 1_555
H8 C8 1_555 1_555
C9 C8 1_555 1_555
C10 C5 1_555 1_555
H9 C10 1_555 1_555
C11 C9 1_555 1_555
H10 C11 1_555 1_555
H11 C11 1_555 1_555
C12 H12 1_555 1_555
C13 H13 1_555 1_555
C14 C13 1_555 1_555
H14 C14 1_555 1_555
N3 C11 1_555 1_555
N4 C12 1_555 1_555
Co4 N4 1_555 1_555
C4 N2 1_555 1_555
C9 C10 1_555 1_555
C12 N3 1_555 1_555
C13 N4 1_555 1_555
C14 N3 1_555 1_555
C1 H1 1_555 1_555
C2 H2 1_555 1_555
C3 C2 1_555 1_555
H3 C3 1_555 1_555
C15 C16 1_555 1_555
C16 H15 1_555 1_555
Co1 N1 1_555 1_555
N1 C1 1_555 1_555
O1 C15 1_555 1_555
O2 C15 1_555 1_555
H33 C35 1_555 1_555
H34 C35 1_555 1_555
C36 C35 1_555 1_555
Co6 O4 1_555 1_555
N9 Co1 1_555 1_555
O7 C36 1_555 1_555
O10 Co1 1_555 1_555
C2 N1 1_555 1_555
Co1 O1 1_555 1_555
C2_2 H2_2 1_555 1_555
C3_2 C2_2 1_555 1_555
H3_2 C3_2 1_555 1_555
C4_2 H4_2 1_555 1_555
C5_2 C4_2 1_555 1_555
C6_2 C5_2 1_555 1_555
H6_2 C6_2 1_555 1_555
C7_2 C6_2 1_555 1_555
H7_2 C7_2 1_555 1_555
C8_2 C7_2 1_555 1_555
C16_2 H15_2 1_555 1_555
C3_2 N2_2 1_555 1_555
C4_2 N2_2 1_555 1_555
C1_2 H1_2 1_555 1_555
H9_2 C10_2 1_555 1_555
C11_2 C9_2 1_555 1_555
H10_2 C11_2 1_555 1_555
H11_2 C11_2 1_555 1_555
C12_2 H12_2 1_555 1_555
C13_2 H13_2 1_555 1_555
C14_2 C13_2 1_555 1_555
H14_2 C14_2 1_555 1_555
Co4 N1_2 1_555 1_555
N1_2 C1_2 1_555 1_555
N3_2 C11_2 1_555 1_555
N9 C12_2 1_555 1_555
O1_2 C15_2 1_555 1_555
C9_2 C10_2 1_555 1_555
C12_2 N3_2 1_555 1_555
C13_2 N9 1_555 1_555
C14_2 N3_2 1_555 1_555
Co4 O1_2 1_555 1_555
C19_2 H18_2 1_555 1_555
H26_2 C28_2 1_555 1_555
C29_2 C27_2 1_555 1_555
H27_2 C29_2 1_555 1_555
H28_2 C29_2 1_555 1_555
C30_2 H29_2 1_555 1_555
C31_2 H30_2 1_555 1_555
C32_2 C31_2 1_555 1_555
H31_2 C32_2 1_555 1_555
Co6 N5_2 1_555 1_555
N5_2 C19_2 1_555 1_555
N7_2 C29_2 1_555 1_555
N10 C30_2 1_555 1_555
O5_2 C33_2 1_555 1_555
C27_2 C28_2 1_555 1_555
C30_2 N7_2 1_555 1_555
C31_2 N10 1_555 1_555
C32_2 N7_2 1_555 1_555
Co6 O5_2 1_555 1_555
C20_2 H19_2 1_555 1_555
C21_2 C20_2 1_555 1_555
H20_2 C21_2 1_555 1_555
C22_2 H21_2 1_555 1_555
C23_2 C22_2 1_555 1_555
C24_2 C23_2 1_555 1_555
H23_2 C24_2 1_555 1_555
C25_2 C24_2 1_555 1_555
H24_2 C25_2 1_555 1_555
C26_2 C25_2 1_555 1_555
H32_2 C34_2 1_555 1_555
C21_2 N6_2 1_555 1_555
C22_2 N6_2 1_555 1_555
H33_2 C35_2 1_555 1_555
H34_2 C35_2 1_555 1_555
C36_2 C35_2 1_555 1_555
O7_2 C36_2 1_555 1_555
H16_2 C17_2 1_555 1_555
H17_2 C17_2 1_555 1_555
C18_2 C17_2 1_555 1_555
O3_2 C18_2 1_555 1_555

#END
