
###############################################################################
#
# This file contains modified crystal structure data generated from the
# MOF subset of the Cambridge Structural Database (CSD) v543 
# hosted by the Cambridge Crystallographic Data Centre (CCDC).
#
# This work is licensed under the Creative Commons
# Attribution-NonCommercial-ShareAlike 4.0 International License.
# To view a copy of this license, visit
# http://creativecommons.org/licenses/by-nc-sa/4.0/
# or send a letter to
# Creative Commons, PO Box 1866, Mountain View, CA 94042, USA.
#
# CIF created using the CSD Python API on 29 September 2022
# The structure has been converted into the P1 space group
# The structure has a 3D framework
# The original CSD entry AHAFEV is in the monoclinic crystal system
# The framework has been calculated to contain at least 10.0% void space
# The void calculation uses a probe of radius 1.32A, grid spacing 0.4
#
###############################################################################

data_AHAFEV
_chemical_formula_moiety         '(C144 H136 Co8 N32 O29)n'
_symmetry_cell_setting           triclinic
_symmetry_space_group_name_H-M   'P 1'
_symmetry_Int_Tables_number      1
_space_group_name_Hall           'P 1'
loop_
_symmetry_equiv_pos_site_id
_symmetry_equiv_pos_as_xyz
1 x,y,z
_cell_length_a                   12.6067(10)
_cell_length_b                   25.993(2)
_cell_length_c                   14.1990(11)
_cell_angle_alpha                90
_cell_angle_beta                 107.713(2)
_cell_angle_gamma                90
_cell_volume                     4432.23
loop_
_atom_site_label
_atom_site_type_symbol
_atom_site_fract_x
_atom_site_fract_y
_atom_site_fract_z
O5 O 0.0229(2) 0.28153(11) 0.0745(2)
Co7 Co 0.12941(4) 0.322896(19) 0.17777(4)
Co1 Co 0.05921(4) 0.21705(2) 0.62137(3)
O1 O 0.0140(2) 0.24088(11) 0.73546(19)
C37 C 0.4615(3) 0.21639(16) 0.2251(3)
C38 C 0.4188(4) 0.20122(16) 0.3095(3)
H35 H 0.3504 0.1818 0.2831
H36 H 0.4729 0.1787 0.3535
C39 C 0.3963(3) 0.24589(15) 0.3689(3)
H37 H 0.4666 0.2635 0.4016
C40 C 0.3167(3) 0.28362(18) 0.3039(3)
C41 C 0.3468(3) 0.22437(16) 0.4493(3)
H38 H 0.2892 0.1995 0.4157
C42 C 0.2917(4) 0.26268(17) 0.4958(3)
H39 H 0.3479 0.2787 0.5503
H40 H 0.2596 0.2893 0.4477
C43 C 0.4334(3) 0.19473(18) 0.5264(3)
C44 C 0.1992(3) 0.24095(16) 0.5353(3)
H49 H 0.1386 0.0183 0.3391
C58 C 0.1440(4) 0.13616(18) 0.7824(4)
H56 H 0.0992 0.1474 0.8195
C59 C 0.2218(4) 0.09915(18) 0.8083(3)
H57 H 0.2424 0.0811 0.8676
N12 N 0.2648(3) 0.09286(13) 0.7329(3)
C60 C 0.2171(3) 0.12640(15) 0.6670(3)
H58 H 0.2338 0.1305 0.6080
C61 C 0.3532(4) 0.05825(19) 0.7319(4)
H59 H 0.3786 0.0666 0.6757
H60 H 0.4151 0.0638 0.7913
C62 C 0.3218(4) 0.00167(18) 0.7261(4)
H61 H 0.1662 0.0076 0.7279
C72 C 0.0461(4) 0.04115(17) 0.4677(3)
H68 H 0.0780 0.0691 0.4457
Co5 Co 0.55921(4) 0.28295(2) 0.12137(3)
Co10 Co 0.62941(4) 0.177104(19) 0.67777(4)
N14 N 0.0650(3) 0.33911(12) 0.2878(2)
N16 N 0.1858(3) 0.38597(14) 0.1263(2)
N18 N 0.1425(3) 0.15433(14) 0.6912(2)
O9 O 0.5140(2) 0.25912(11) 0.23546(19)
O11 O 0.4500(3) 0.18716(12) 0.1546(2)
O12 O 0.3245(3) 0.32978(12) 0.3237(2)
O13 O 0.2385(2) 0.26651(11) 0.23100(18)
O14 O 0.5229(2) 0.21847(11) 0.5745(2)
O17 O 0.4176(3) 0.14953(13) 0.5435(2)
O18 O 0.1489(2) 0.20156(11) 0.4953(2)
O20 O 0.1766(2) 0.26410(11) 0.6012(2)
C49 C 0.3668(4) 0.91721(17) 0.4478(3)
H46 H 0.4383 0.9124 0.4908
C50 C 0.2981(4) 0.95744(18) 0.4498(3)
H47 H 0.3149 0.9854 0.4927
N10 N 0.2020(3) 0.94939(12) 0.3786(2)
C51 C 0.2169(3) 0.90849(15) 0.3347(3)
H48 H 0.1633 0.8955 0.2793
C52 C 0.1109(4) 0.9852(2) 0.3527(3)
H50 H 0.0566 0.9735 0.2922
C53 C 0.1903(3) 0.77656(17) 0.4881(3)
H51 H 0.2076 0.7572 0.4397
C54 C 0.2616(4) 0.79110(18) 0.5745(3)
H52 H 0.3376 0.7841 0.5956
N11 N 0.2066(3) 0.81713(12) 0.6256(3)
C55 C 0.1029(4) 0.81825(16) 0.5686(3)
H53 H 0.0458 0.8339 0.5869
C56 C 0.2522(4) 0.84037(17) 0.7235(3)
H54 H 0.2000 0.8350 0.7606
H55 H 0.3208 0.8228 0.7583
C57 C 0.2753(4) 0.89620(16) 0.7213(3)
C63 C 0.2214(4) 0.98411(17) 0.7265(3)
C64 C 0.4016(4) 0.96581(17) 0.7231(3)
H62 H 0.4718 0.9771 0.7234
C68 C 0.3799(4) 0.91407(17) 0.7195(3)
H65 H 0.4344 0.8907 0.7160
C69 C 0.1980(4) 0.93163(18) 0.7248(4)
H66 H 0.1281 0.9208 0.7261
C70 C 0.0545(4) 0.99215(17) 0.4290(3)
C71 C 0.0079(4) 0.95120(18) 0.4631(3)
H67 H 0.0131 0.9183 0.4392
Co9 Co 0.37059(4) 0.822896(19) 0.32223(4)
N15 N 0.3142(3) 0.88597(14) 0.3737(2)
N17 N 0.0875(2) 0.79516(12) 0.4834(2)
H5 H 0.8479 0.2213 0.0503
C7 C 0.9334(3) 0.30527(18) 0.0264(3)
C8 C 0.6992(3) 0.25905(16) 0.0353(3)
C12 C 0.5881(4) 0.10393(17) 0.0239(3)
H10 H 0.5587 0.1221 0.0702
H11 H 0.6685 0.1027 0.0519
C29 C 0.4446(4) 0.03818(18) 0.0275(4)
H29 H 0.4062 0.0643 0.0477
C30 C 0.5430(4) 0.04927(17) 0.0119(3)
O6 O 0.9176(3) 0.35047(13) 0.0435(2)
O8 O 0.6766(2) 0.23590(11) 0.1012(2)
C1 C 0.9615(3) 0.28361(16) 0.7251(3)
C2 C 0.9188(4) 0.29878(16) 0.8095(3)
H1 H 0.8504 0.3182 0.7831
H2 H 0.9729 0.3213 0.8535
C3 C 0.8963(3) 0.25411(15) 0.8689(3)
H3 H 0.9666 0.2365 0.9016
C4 C 0.8167(3) 0.21638(18) 0.8039(3)
C5 C 0.8468(3) 0.27563(16) 0.9493(3)
H4 H 0.7892 0.3005 0.9157
C6 C 0.7917(4) 0.23732(17) 0.9958(3)
H6 H 0.7596 0.2107 0.9477
C9 C 0.6070(3) 0.12999(15) 0.8623(3)
H7 H 0.6661 0.1079 0.8654
N1 N 0.5599(3) 0.13254(12) 0.9315(2)
C10 C 0.4804(4) 0.16646(17) 0.9035(3)
H8 H 0.4322 0.1764 0.9385
C11 C 0.4805(4) 0.18463(17) 0.8145(3)
H9 H 0.4317 0.2091 0.7772
C13 C 0.6332(4) 0.08279(17) 0.5522(3)
H12 H 0.5617 0.0876 0.5092
C14 C 0.7019(4) 0.04256(18) 0.5502(3)
H13 H 0.6851 0.0146 0.5073
N2 N 0.7980(3) 0.05061(12) 0.6214(2)
C15 C 0.7831(3) 0.09151(15) 0.6653(3)
H14 H 0.8367 0.1045 0.7207
C16 C 0.8891(4) 0.0148(2) 0.6473(3)
H16 H 0.9434 0.0265 0.7078
C17 C 0.8097(3) 0.22344(17) 0.5119(3)
H17 H 0.7924 0.2428 0.5603
C18 C 0.7384(4) 0.20890(18) 0.4255(3)
H18 H 0.6624 0.2159 0.4044
N3 N 0.7934(3) 0.18287(12) 0.3744(3)
C19 C 0.8971(4) 0.18175(16) 0.4314(3)
H19 H 0.9542 0.1661 0.4131
C20 C 0.7478(4) 0.15963(17) 0.2765(3)
H20 H 0.8000 0.1650 0.2394
H21 H 0.6792 0.1772 0.2417
C21 C 0.7247(4) 0.10380(16) 0.2787(3)
C27 C 0.7786(4) 0.01589(17) 0.2735(3)
C28 C 0.5984(4) 0.03419(17) 0.2769(3)
H28 H 0.5282 0.0229 0.2766
C31 C 0.6003(4) 0.01053(17) 0.9858(3)
H30 H 0.6692 0.0168 0.9769
C32 C 0.6201(4) 0.08593(17) 0.2805(3)
H31 H 0.5656 0.1093 0.2840
C33 C 0.8020(4) 0.06837(18) 0.2752(4)
H32 H 0.8719 0.0792 0.2739
C34 C 0.9455(4) 0.00785(17) 0.5710(3)
C35 C 0.9921(4) 0.04880(18) 0.5369(3)
H33 H 0.9869 0.0817 0.5608
N5 N 0.5650(3) 0.16089(12) 0.7878(2)
N6 N 0.6858(3) 0.11403(14) 0.6263(2)
N7 N 0.9125(2) 0.20484(12) 0.5166(2)
O2 O 0.9500(3) 0.31284(12) 0.6546(2)
O3 O 0.8245(3) 0.17022(12) 0.8237(2)
O4 O 0.7385(2) 0.23349(11) 0.73100(18)
O7 O 0.6489(2) 0.29844(11) 0.9953(2)
C45 C 0.3930(3) 0.87001(15) 0.1377(3)
H41 H 0.3339 0.8921 0.1346
N9 N 0.4401(3) 0.86746(12) 0.0685(2)
C46 C 0.5196(4) 0.83354(17) 0.0965(3)
H42 H 0.5678 0.8236 0.0615
C47 C 0.5195(4) 0.81537(17) 0.1855(3)
H43 H 0.5683 0.7909 0.2228
C67 C 0.3997(4) 0.98947(17) 0.0142(3)
H64 H 0.3308 0.9832 0.0231
N13 N 0.4350(3) 0.83911(12) 0.2122(2)
H15 H 0.8614 0.9817 0.6609
C22 C 0.8560(4) 0.86384(18) 0.2176(4)
H22 H 0.9008 0.8526 0.1805
C23 C 0.7782(4) 0.90085(18) 0.1917(3)
H23 H 0.7576 0.9189 0.1324
N4 N 0.7352(3) 0.90714(13) 0.2671(3)
C24 C 0.7829(3) 0.87360(15) 0.3330(3)
H24 H 0.7662 0.8695 0.3920
C25 C 0.6468(4) 0.94175(19) 0.2681(4)
H25 H 0.6214 0.9334 0.3243
H26 H 0.5849 0.9362 0.2087
C26 C 0.6782(4) 0.99833(18) 0.2739(4)
H27 H 0.8338 0.9924 0.2721
C36 C 0.9539(4) 0.95885(17) 0.5323(3)
H34 H 0.9220 0.9309 0.5543
N8 N 0.8575(3) 0.84567(14) 0.3088(2)
C48 C 0.4119(4) 0.89607(17) 0.9761(3)
H44 H 0.4413 0.8779 0.9298
H45 H 0.3315 0.8973 0.9481
C65 C 0.5554(4) 0.96182(18) 0.9725(4)
H63 H 0.5938 0.9357 0.9523
C66 C 0.4570(4) 0.95073(17) 0.9881(3)
Co3 Co 0.94079(4) 0.78295(2) 0.37863(3)
O10 O 0.9860(2) 0.75912(11) 0.26454(19)
O19 O 0.8511(2) 0.79844(11) 0.5047(2)
O21 O 0.8234(2) 0.73590(11) 0.3988(2)
C10_2 C 0.0196(4) 0.66646(17) 0.5965(3)
H8_2 H 0.0678 0.6764 0.5615
C11_2 C 0.0195(4) 0.68463(17) 0.6855(3)
H9_2 H 0.0683 0.7091 0.7228
C29_2 C 0.0554(4) 0.53818(18) 0.4725(4)
H29_2 H 0.0938 0.5643 0.4523
C45_2 C 0.1070(3) 0.37001(15) 0.3623(3)
H41_2 H 0.1661 0.3921 0.3654
N9_2 N 0.0599(3) 0.36746(12) 0.4315(2)
C48_2 C 0.0881(4) 0.39607(17) 0.5239(3)
H44_2 H 0.0587 0.3779 0.5702
H45_2 H 0.1685 0.3973 0.5519
C66_2 C 0.0430(4) 0.45073(17) 0.5119(3)
C67_2 C 0.1003(4) 0.48947(17) 0.4858(3)
H64_2 H 0.1692 0.4832 0.4769
C18_2 C 0.7616(4) 0.70890(18) 0.0745(3)
H18_2 H 0.8376 0.7159 0.0956
N3_2 N 0.7066(3) 0.68287(12) 0.1256(3)
C19_2 C 0.6029(4) 0.68175(16) 0.0686(3)
H19_2 H 0.5458 0.6661 0.0869
C20_2 C 0.7522(4) 0.65963(17) 0.2235(3)
H20_2 H 0.7000 0.6650 0.2606
H21_2 H 0.8208 0.6772 0.2583
C21_2 C 0.7753(4) 0.60380(16) 0.2213(3)
C22_2 C 0.6440(4) 0.36384(18) 0.2824(4)
H22_2 H 0.5992 0.3526 0.3195
C23_2 C 0.7218(4) 0.40085(18) 0.3083(3)
H23_2 H 0.7424 0.4189 0.3676
N4_2 N 0.7648(3) 0.40714(13) 0.2329(3)
C24_2 C 0.7171(3) 0.37360(15) 0.1670(3)
H24_2 H 0.7338 0.3695 0.1080
C25_2 C 0.8532(4) 0.44175(19) 0.2319(4)
H25_2 H 0.8786 0.4334 0.1757
H26_2 H 0.9151 0.4362 0.2913
C26_2 C 0.8218(4) 0.49833(18) 0.2261(4)
C27_2 C 0.7214(4) 0.51589(17) 0.2265(3)
H27_2 H 0.6662 0.4924 0.2279
C28_2 C 0.9016(4) 0.53419(17) 0.2231(3)
H28_2 H 0.9718 0.5229 0.2234
C32_2 C 0.8799(4) 0.58593(17) 0.2195(3)
H31_2 H 0.9344 0.6093 0.2160
C33_2 C 0.6980(4) 0.56837(18) 0.2248(4)
H32_2 H 0.6281 0.5792 0.2261
N8_2 N 0.6425(3) 0.34567(14) 0.1912(2)
C37_2 C 0.0385(3) 0.71639(16) 0.2749(3)
C38_2 C 0.0812(4) 0.70122(16) 0.1905(3)
H35_2 H 0.1496 0.6818 0.2169
H36_2 H 0.0271 0.6787 0.1465
C39_2 C 0.1037(3) 0.74589(15) 0.1311(3)
H37_2 H 0.0334 0.7635 0.0984
C40_2 C 0.1833(3) 0.78362(18) 0.1961(3)
C41_2 C 0.1532(3) 0.72437(16) 0.0507(3)
H38_2 H 0.2108 0.6995 0.0843
C42_2 C 0.2083(4) 0.76268(17) 0.0042(3)
H40_2 H 0.2404 0.7893 0.0523
C49_2 C 0.1332(4) 0.41721(17) 0.0522(3)
H46_2 H 0.0617 0.4124 0.0092
C50_2 C 0.2019(4) 0.45744(18) 0.0502(3)
H47_2 H 0.1851 0.4854 0.0073
N10_2 N 0.2980(3) 0.44939(12) 0.1214(2)
C51_2 C 0.2831(3) 0.40849(15) 0.1653(3)
H48_2 H 0.3367 0.3955 0.2207
C52_2 C 0.3891(4) 0.4852(2) 0.1473(3)
H49_2 H 0.3614 0.5183 0.1609
H50_2 H 0.4434 0.4735 0.2078
C53_2 C 0.3097(3) 0.27656(17) 0.0119(3)
H51_2 H 0.2924 0.2572 0.0603
C70_2 C 0.4455(4) 0.49215(17) 0.0710(3)
C71_2 C 0.4921(4) 0.45120(18) 0.0369(3)
H67_2 H 0.4869 0.4183 0.0608
C72_2 C 0.4539(4) 0.54115(17) 0.0323(3)
H68_2 H 0.4220 0.5691 0.0543
N17_2 N 0.4125(2) 0.29516(12) 0.0166(2)
O11_2 O 0.0500(3) 0.68716(12) 0.3454(2)
O12_2 O 0.1755(3) 0.82978(12) 0.1763(2)
O13_2 O 0.2615(2) 0.76651(11) 0.26900(18)
O16 O 0.4771(2) 0.78153(11) 0.4255(2)
O18_2 O 0.3511(2) 0.70156(11) 0.0047(2)
C1_2 C 0.5385(3) 0.78361(16) 0.7749(3)
C2_2 C 0.5812(4) 0.79878(16) 0.6905(3)
H1_2 H 0.6496 0.8182 0.7169
H2_2 H 0.5271 0.8213 0.6465
C3_2 C 0.6037(3) 0.75411(15) 0.6311(3)
H3_2 H 0.5334 0.7365 0.5984
C4_2 C 0.6833(3) 0.71638(18) 0.6961(3)
C5_2 C 0.6532(3) 0.77563(16) 0.5507(3)
H4_2 H 0.7108 0.8005 0.5843
C6_2 C 0.7083(4) 0.73732(17) 0.5042(3)
H5_2 H 0.6521 0.7213 0.4497
H6_2 H 0.7404 0.7107 0.5523
C7_2 C 0.5666(3) 0.80527(18) 0.4736(3)
C8_2 C 0.8008(3) 0.75905(16) 0.4647(3)
C9_2 C 0.8930(3) 0.62999(15) 0.6377(3)
H7_2 H 0.8339 0.6079 0.6346
N1_2 N 0.9401(3) 0.63254(12) 0.5685(2)
C12_2 C 0.9119(4) 0.60393(17) 0.4761(3)
H10_2 H 0.9413 0.6221 0.4298
H11_2 H 0.8315 0.6027 0.4481
C13_2 C 0.8668(4) 0.58279(17) 0.9478(3)
H12_2 H 0.9383 0.5876 0.9908
C14_2 C 0.7981(4) 0.54256(18) 0.9498(3)
H13_2 H 0.8149 0.5146 0.9927
N2_2 N 0.7020(3) 0.55061(12) 0.8786(2)
C15_2 C 0.7169(3) 0.59151(15) 0.8347(3)
H14_2 H 0.6633 0.6045 0.7793
C16_2 C 0.6109(4) 0.5148(2) 0.8527(3)
H15_2 H 0.6386 0.4817 0.8391
H16_2 H 0.5566 0.5265 0.7922
C17_2 C 0.6903(3) 0.72344(17) 0.9881(3)
H17_2 H 0.7076 0.7428 0.9397
C30_2 C 0.9570(4) 0.54927(17) 0.4881(3)
C31_2 C 0.8997(4) 0.51053(17) 0.5142(3)
H30_2 H 0.8308 0.5168 0.5231
C34_2 C 0.5545(4) 0.50785(17) 0.9290(3)
C35_2 C 0.5079(4) 0.54880(18) 0.9631(3)
H33_2 H 0.5131 0.5817 0.9392
C36_2 C 0.5461(4) 0.45885(17) 0.9677(3)
H34_2 H 0.5780 0.4309 0.9457
Co1_2 Co 0.44079(4) 0.71705(2) 0.87863(3)
Co2 Co 0.87059(4) 0.677104(19) 0.82223(4)
N5_2 N 0.9350(3) 0.66089(12) 0.7122(2)
N6_2 N 0.8142(3) 0.61403(14) 0.8737(2)
N7_2 N 0.5875(2) 0.70484(12) 0.9834(2)
O1_2 O 0.4860(2) 0.74088(11) 0.76454(19)
O2_2 O 0.5500(3) 0.81284(12) 0.8454(2)
O3_2 O 0.6755(3) 0.67022(12) 0.6763(2)
O4_2 O 0.7615(2) 0.73349(11) 0.76900(18)
O6_2 O 0.5824(3) 0.85047(13) 0.4565(2)
H39_2 H 0.1521 0.7787 0.9497
C43_2 C 0.0666(3) 0.69473(18) 0.9736(3)
C44_2 C 0.3008(3) 0.74095(16) 0.9647(3)
C46_2 C 0.9804(4) 0.33354(17) 0.4035(3)
H42_2 H 0.9322 0.3236 0.4385
C47_2 C 0.9805(4) 0.31537(17) 0.3145(3)
H43_2 H 0.9317 0.2909 0.2772
C54_2 C 0.2384(4) 0.29110(18) 0.9255(3)
H52_2 H 0.1624 0.2841 0.9044
N11_2 N 0.2934(3) 0.31713(12) 0.8744(3)
C55_2 C 0.3971(4) 0.31825(16) 0.9314(3)
H53_2 H 0.4542 0.3339 0.9131
C56_2 C 0.2478(4) 0.34037(17) 0.7765(3)
H54_2 H 0.3000 0.3350 0.7394
H55_2 H 0.1792 0.3228 0.7417
C57_2 C 0.2247(4) 0.39620(16) 0.7787(3)
C58_2 C 0.3560(4) 0.63616(18) 0.7176(4)
H56_2 H 0.4008 0.6474 0.6805
C59_2 C 0.2782(4) 0.59915(18) 0.6917(3)
H57_2 H 0.2576 0.5811 0.6324
N12_2 N 0.2352(3) 0.59286(13) 0.7671(3)
C60_2 C 0.2829(3) 0.62640(15) 0.8330(3)
H58_2 H 0.2662 0.6305 0.8920
C61_2 C 0.1468(4) 0.55825(19) 0.7681(4)
H59_2 H 0.1214 0.5666 0.8243
H60_2 H 0.0849 0.5638 0.7087
C62_2 C 0.1782(4) 0.50167(18) 0.7739(4)
C63_2 C 0.2786(4) 0.48411(17) 0.7735(3)
H61_2 H 0.3338 0.5076 0.7721
C64_2 C 0.0984(4) 0.46581(17) 0.7769(3)
H62_2 H 0.0282 0.4771 0.7766
C65_2 C 0.9446(4) 0.46182(18) 0.5275(4)
H63_2 H 0.9062 0.4357 0.5477
C68_2 C 0.1201(4) 0.41407(17) 0.7805(3)
H65_2 H 0.0656 0.3907 0.7840
C69_2 C 0.3020(4) 0.43163(18) 0.7752(4)
H66_2 H 0.3719 0.4208 0.7739
N18_2 N 0.3575(3) 0.65433(14) 0.8088(2)
O15 O 0.9771(2) 0.71847(11) 0.9255(2)
O17_2 O 0.0824(3) 0.64953(13) 0.9565(2)
O20_2 O 0.3234(2) 0.76410(11) 0.8988(2)
loop_
_geom_bond_atom_site_label_1
_geom_bond_atom_site_label_2
_geom_bond_site_symmetry_1
_geom_bond_site_symmetry_2
Co7 O5 1_555 1_555
C37 C38 1_555 1_555
C38 H35 1_555 1_555
H36 C38 1_555 1_555
C39 C38 1_555 1_555
H37 C39 1_555 1_555
C40 C39 1_555 1_555
C41 C39 1_555 1_555
H38 C41 1_555 1_555
C42 C41 1_555 1_555
H39 C42 1_555 1_555
H40 C42 1_555 1_555
C43 C41 1_555 1_555
C44 C42 1_555 1_555
C58 H56 1_555 1_555
C59 C58 1_555 1_555
H57 C59 1_555 1_555
N12 C59 1_555 1_555
C60 N12 1_555 1_555
H58 C60 1_555 1_555
C61 N12 1_555 1_555
H59 C61 1_555 1_555
H60 C61 1_555 1_555
C62 C61 1_555 1_555
H68 C72 1_555 1_555
Co5 O9 1_555 1_555
Co7 N14 1_555 1_555
Co10 O14 1_555 1_555
N16 Co7 1_555 1_555
N18 Co1 1_555 1_555
O9 C37 1_555 1_555
O11 C37 1_555 1_555
O12 C40 1_555 1_555
O13 C40 1_555 1_555
O14 C43 1_555 1_555
O17 C43 1_555 1_555
O18 Co1 1_555 1_555
O20 Co1 1_555 1_555
Co1 O1 1_555 1_555
C44 O18 1_555 1_555
C44 O20 1_555 1_555
C58 N18 1_555 1_555
C60 N18 1_555 1_555
Co7 O13 1_555 1_555
C49 H46 1_555 1_555
C50 C49 1_555 1_555
H47 C50 1_555 1_555
N10 C50 1_555 1_555
C51 N10 1_555 1_555
H48 C51 1_555 1_555
C52 N10 1_555 1_555
H50 C52 1_555 1_555
C53 H51 1_555 1_555
C54 C53 1_555 1_555
H52 C54 1_555 1_555
N11 C54 1_555 1_555
C55 N11 1_555 1_555
H53 C55 1_555 1_555
C56 N11 1_555 1_555
H54 C56 1_555 1_555
H55 C56 1_555 1_555
C57 C56 1_555 1_555
H62 C64 1_555 1_555
C68 C57 1_555 1_555
H65 C68 1_555 1_555
C69 C57 1_555 1_555
H66 C69 1_555 1_555
C70 C52 1_555 1_555
H67 C71 1_555 1_555
Co9 N15 1_555 1_555
N15 C49 1_555 1_555
N17 C53 1_555 1_555
C51 N15 1_555 1_555
C55 N17 1_555 1_555
C63 C69 1_555 1_555
C64 C68 1_555 1_555
C70 C71 1_555 1_555
H10 C12 1_555 1_555
H11 C12 1_555 1_555
C29 H29 1_555 1_555
C30 C12 1_555 1_555
O6 C7 1_555 1_555
O8 C8 1_555 1_555
C29 C30 1_555 1_555
O8 Co5 1_555 1_555
C1 C2 1_555 1_555
C2 H1 1_555 1_555
H2 C2 1_555 1_555
C3 C2 1_555 1_555
H3 C3 1_555 1_555
C4 C3 1_555 1_555
C5 C3 1_555 1_555
H4 C5 1_555 1_555
C6 C5 1_555 1_555
H6 C6 1_555 1_555
C9 H7 1_555 1_555
N1 C9 1_555 1_555
C10 N1 1_555 1_555
H8 C10 1_555 1_555
C11 C10 1_555 1_555
H9 C11 1_555 1_555
C13 H12 1_555 1_555
C14 C13 1_555 1_555
H13 C14 1_555 1_555
N2 C14 1_555 1_555
C15 N2 1_555 1_555
H14 C15 1_555 1_555
C16 N2 1_555 1_555
H16 C16 1_555 1_555
C17 H17 1_555 1_555
C18 C17 1_555 1_555
H18 C18 1_555 1_555
N3 C18 1_555 1_555
C19 N3 1_555 1_555
H19 C19 1_555 1_555
C20 N3 1_555 1_555
H20 C20 1_555 1_555
H21 C20 1_555 1_555
C21 C20 1_555 1_555
H28 C28 1_555 1_555
H30 C31 1_555 1_555
C32 C21 1_555 1_555
H31 C32 1_555 1_555
C33 C21 1_555 1_555
H32 C33 1_555 1_555
C34 C16 1_555 1_555
C35 C34 1_555 1_555
H33 C35 1_555 1_555
Co10 N5 1_555 1_555
N5 C9 1_555 1_555
N6 C13 1_555 1_555
N7 C17 1_555 1_555
O2 C1 1_555 1_555
O3 C4 1_555 1_555
O4 C4 1_555 1_555
C11 N5 1_555 1_555
C15 N6 1_555 1_555
C19 N7 1_555 1_555
C27 C33 1_555 1_555
C28 C32 1_555 1_555
Co10 N6 1_555 1_555
Co10 O4 1_555 1_555
C45 H41 1_555 1_555
N9 C45 1_555 1_555
C46 N9 1_555 1_555
H42 C46 1_555 1_555
C47 C46 1_555 1_555
H43 C47 1_555 1_555
H64 C67 1_555 1_555
Co9 N13 1_555 1_555
N13 C45 1_555 1_555
C47 N13 1_555 1_555
C22 H22 1_555 1_555
C23 C22 1_555 1_555
H23 C23 1_555 1_555
N4 C23 1_555 1_555
C24 N4 1_555 1_555
H24 C24 1_555 1_555
C25 N4 1_555 1_555
H25 C25 1_555 1_555
H26 C25 1_555 1_555
C26 C25 1_555 1_555
H34 C36 1_555 1_555
N8 C22 1_555 1_555
H44 C48 1_555 1_555
H45 C48 1_555 1_555
H63 C65 1_555 1_555
C66 C48 1_555 1_555
Co3 N8 1_555 1_555
O10 Co3 1_555 1_555
O19 Co3 1_555 1_555
O21 Co3 1_555 1_555
C24 N8 1_555 1_555
C65 C66 1_555 1_555
H8_2 C10_2 1_555 1_555
C11_2 C10_2 1_555 1_555
H9_2 C11_2 1_555 1_555
C29_2 H29_2 1_555 1_555
C45_2 H41_2 1_555 1_555
N9_2 C45_2 1_555 1_555
C48_2 N9_2 1_555 1_555
H44_2 C48_2 1_555 1_555
H45_2 C48_2 1_555 1_555
C66_2 C48_2 1_555 1_555
C67_2 C29_2 1_555 1_555
H64_2 C67_2 1_555 1_555
N14 C45_2 1_555 1_555
C66_2 C67_2 1_555 1_555
H18_2 C18_2 1_555 1_555
N3_2 C18_2 1_555 1_555
C19_2 N3_2 1_555 1_555
H19_2 C19_2 1_555 1_555
C20_2 N3_2 1_555 1_555
H20_2 C20_2 1_555 1_555
H21_2 C20_2 1_555 1_555
C21_2 C20_2 1_555 1_555
C22_2 H22_2 1_555 1_555
C23_2 C22_2 1_555 1_555
H23_2 C23_2 1_555 1_555
N4_2 C23_2 1_555 1_555
C24_2 N4_2 1_555 1_555
H24_2 C24_2 1_555 1_555
C25_2 N4_2 1_555 1_555
H25_2 C25_2 1_555 1_555
H26_2 C25_2 1_555 1_555
C26_2 C25_2 1_555 1_555
C27_2 C26_2 1_555 1_555
H27_2 C27_2 1_555 1_555
C28_2 C26_2 1_555 1_555
H28_2 C28_2 1_555 1_555
C32_2 C21_2 1_555 1_555
H31_2 C32_2 1_555 1_555
C33_2 C21_2 1_555 1_555
H32_2 C33_2 1_555 1_555
N8_2 C22_2 1_555 1_555
C37_2 C38_2 1_555 1_555
C38_2 H35_2 1_555 1_555
H36_2 C38_2 1_555 1_555
C39_2 C38_2 1_555 1_555
H37_2 C39_2 1_555 1_555
C40_2 C39_2 1_555 1_555
C41_2 C39_2 1_555 1_555
H38_2 C41_2 1_555 1_555
C42_2 C41_2 1_555 1_555
H40_2 C42_2 1_555 1_555
C49_2 H46_2 1_555 1_555
C50_2 C49_2 1_555 1_555
H47_2 C50_2 1_555 1_555
N10_2 C50_2 1_555 1_555
C51_2 N10_2 1_555 1_555
H48_2 C51_2 1_555 1_555
C52_2 N10_2 1_555 1_555
H49_2 C52_2 1_555 1_555
H50_2 C52_2 1_555 1_555
C53_2 H51_2 1_555 1_555
C70_2 C52_2 1_555 1_555
H67_2 C71_2 1_555 1_555
H68_2 C72_2 1_555 1_555
Co5 N8_2 1_555 1_555
N16 C49_2 1_555 1_555
N17_2 C53_2 1_555 1_555
O11_2 C37_2 1_555 1_555
O12_2 C40_2 1_555 1_555
O13_2 C40_2 1_555 1_555
O16 Co9 1_555 1_555
C24_2 N8_2 1_555 1_555
C27_2 C33_2 1_555 1_555
C28_2 C32_2 1_555 1_555
C51_2 N16 1_555 1_555
C70_2 C71_2 1_555 1_555
C70_2 C72_2 1_555 1_555
Co5 N17_2 1_555 1_555
Co9 O13_2 1_555 1_555
C1_2 C2_2 1_555 1_555
C2_2 H1_2 1_555 1_555
H2_2 C2_2 1_555 1_555
C3_2 C2_2 1_555 1_555
H3_2 C3_2 1_555 1_555
C4_2 C3_2 1_555 1_555
C5_2 C3_2 1_555 1_555
H4_2 C5_2 1_555 1_555
C6_2 C5_2 1_555 1_555
H5_2 C6_2 1_555 1_555
H6_2 C6_2 1_555 1_555
C7_2 C5_2 1_555 1_555
C8_2 C6_2 1_555 1_555
C9_2 H7_2 1_555 1_555
N1_2 C9_2 1_555 1_555
C12_2 N1_2 1_555 1_555
H10_2 C12_2 1_555 1_555
H11_2 C12_2 1_555 1_555
C13_2 H12_2 1_555 1_555
C14_2 C13_2 1_555 1_555
H13_2 C14_2 1_555 1_555
N2_2 C14_2 1_555 1_555
C15_2 N2_2 1_555 1_555
H14_2 C15_2 1_555 1_555
C16_2 N2_2 1_555 1_555
H15_2 C16_2 1_555 1_555
H16_2 C16_2 1_555 1_555
C17_2 H17_2 1_555 1_555
C30_2 C12_2 1_555 1_555
C31_2 C30_2 1_555 1_555
H30_2 C31_2 1_555 1_555
C34_2 C16_2 1_555 1_555
C35_2 C34_2 1_555 1_555
H33_2 C35_2 1_555 1_555
C36_2 C34_2 1_555 1_555
H34_2 C36_2 1_555 1_555
Co1_2 N7_2 1_555 1_555
Co2 N5_2 1_555 1_555
N5_2 C9_2 1_555 1_555
N6_2 C13_2 1_555 1_555
N7_2 C17_2 1_555 1_555
O1_2 C1_2 1_555 1_555
O2_2 C1_2 1_555 1_555
O3_2 C4_2 1_555 1_555
O4_2 C4_2 1_555 1_555
O16 C7_2 1_555 1_555
O6_2 C7_2 1_555 1_555
O19 C8_2 1_555 1_555
O21 C8_2 1_555 1_555
H42_2 C46_2 1_555 1_555
C47_2 C46_2 1_555 1_555
H43_2 C47_2 1_555 1_555
H52_2 C54_2 1_555 1_555
N11_2 C54_2 1_555 1_555
C55_2 N11_2 1_555 1_555
H53_2 C55_2 1_555 1_555
C56_2 N11_2 1_555 1_555
H54_2 C56_2 1_555 1_555
H55_2 C56_2 1_555 1_555
C57_2 C56_2 1_555 1_555
C58_2 H56_2 1_555 1_555
C59_2 C58_2 1_555 1_555
H57_2 C59_2 1_555 1_555
N12_2 C59_2 1_555 1_555
C60_2 N12_2 1_555 1_555
H58_2 C60_2 1_555 1_555
C61_2 N12_2 1_555 1_555
H59_2 C61_2 1_555 1_555
H60_2 C61_2 1_555 1_555
C62_2 C61_2 1_555 1_555
C63_2 C62_2 1_555 1_555
H61_2 C63_2 1_555 1_555
C64_2 C62_2 1_555 1_555
H62_2 C64_2 1_555 1_555
C65_2 C31_2 1_555 1_555
H63_2 C65_2 1_555 1_555
C68_2 C57_2 1_555 1_555
H65_2 C68_2 1_555 1_555
C69_2 C57_2 1_555 1_555
H66_2 C69_2 1_555 1_555
N18_2 Co1_2 1_555 1_555
O15 Co2 1_555 1_555
O17_2 C43_2 1_555 1_555
O20_2 Co1_2 1_555 1_555
C15_2 N6_2 1_555 1_555
Co1_2 O1_2 1_555 1_555
Co2 N6_2 1_555 1_555
Co2 O4_2 1_555 1_555
C44_2 O20_2 1_555 1_555
C58_2 N18_2 1_555 1_555
C60_2 N18_2 1_555 1_555
C63_2 C69_2 1_555 1_555
C64_2 C68_2 1_555 1_555

#END
