
###############################################################################
#
# This file contains modified crystal structure data generated from the
# MOF subset of the Cambridge Structural Database (CSD) v543 
# hosted by the Cambridge Crystallographic Data Centre (CCDC).
#
# This work is licensed under the Creative Commons
# Attribution-NonCommercial-ShareAlike 4.0 International License.
# To view a copy of this license, visit
# http://creativecommons.org/licenses/by-nc-sa/4.0/
# or send a letter to
# Creative Commons, PO Box 1866, Mountain View, CA 94042, USA.
#
# CIF created using the CSD Python API on 29 September 2022
# The structure has been converted into the P1 space group
# The structure has a 3D framework
# The original CSD entry AHEBAS is in the monoclinic crystal system
# The original CSD entry AHEBAS is in a Sohncke space group
# The framework has been calculated to contain at least 10.0% void space
# The void calculation uses a probe of radius 1.32A, grid spacing 0.4
# H atom positions have been added when not included in the experimental data
#
###############################################################################

data_AHEBAS
_chemical_formula_moiety         '(C152 H128 Cu12 N16 O60)n'
_symmetry_cell_setting           triclinic
_symmetry_space_group_name_H-M   'P 1'
_symmetry_Int_Tables_number      1
_space_group_name_Hall           'P 1'
loop_
_symmetry_equiv_pos_site_id
_symmetry_equiv_pos_as_xyz
1 x,y,z
_cell_length_a                   20.7929(8)
_cell_length_b                   12.4871(7)
_cell_length_c                   19.5025(9)
_cell_angle_alpha                90
_cell_angle_beta                 97.329(4)
_cell_angle_gamma                90
_cell_volume                     5022.32
loop_
_atom_site_label
_atom_site_type_symbol
_atom_site_fract_x
_atom_site_fract_y
_atom_site_fract_z
Cu1 Cu 0.30278(4) 0.23703(8) 0.18793(5)
Cu2 Cu 0.39069(4) 0.37236(8) 0.14997(5)
Cu3 Cu 0.51996(4) 0.83561(8) 0.43707(5)
O1 O 0.4611(2) 0.7177(4) 0.4095(2)
O2 O 0.0567(2) 0.4332(4) 0.5792(2)
O3 O 0.4531(2) 0.2688(5) 0.1955(2)
O4 O 0.3770(2) 0.4362(4) 0.2408(3)
O5 O 0.3090(2) 0.3150(4) 0.2748(2)
O6 O 0.0779(2) 0.4517(4) 0.4695(2)
N1 N 0.5561(2) 0.8278(6) 0.3410(3)
O7 O 0.41918(19) 0.7315(4) 0.5102(2)
O10 O 0.3796(2) 0.1494(4) 0.2216(3)
O12 O 0.2351(3) 0.1146(5) 0.2105(4)
N2 N 0.1927(2) 0.5594(5) 0.5124(3)
O14 O 0.2194(2) 0.3838(5) 0.5064(3)
N3 N 0.5456(3) 0.1072(6) 0.2040(3)
C1 C 0.4368(3) 0.1794(6) 0.2160(3)
C2 C 0.6566(3) 0.1350(6) 0.0077(3)
N4 N 0.4685(3) 0.4635(6) 0.1161(3)
C3 C 0.4209(3) 0.6912(6) 0.4506(4)
C4 C 0.2860(3) 0.4434(6) 0.3874(4)
H1 H 0.2583 0.3857 0.3763
C5 C 0.6006(3) 0.0807(7) 0.1030(4)
C6 C 0.0891(3) 0.4683(6) 0.5345(4)
C7 C 0.6025(3) 0.1417(7) 0.0429(4)
H2 H 0.5680 0.1861 0.0267
C8 C 0.5410(3) 0.0813(7) 0.1384(4)
O15 O 0.4871(3) 0.0545(6) 0.1057(3)
C10 C 0.4901(3) 0.1014(8) 0.2434(4)
H3 H 0.4729 0.0283 0.2421
C11 C 0.2782(3) 0.5062(7) 0.4449(4)
C12 C 0.3221(3) 0.5856(7) 0.4636(4)
H4 H 0.3176 0.6272 0.5023
C13 C 0.3788(3) 0.5482(6) 0.3667(4)
H5 H 0.4115 0.5639 0.3399
C14 C 0.3423(3) 0.3987(6) 0.2826(3)
C15 C 0.7060(3) 0.0075(7) 0.0906(4)
C16 C 0.3349(3) 0.4656(6) 0.3461(3)
C17 C 0.6506(3) 0.0137(7) 0.1241(4)
C18 C 0.2268(3) 0.4772(7) 0.4904(4)
C20 C 0.7079(3) 0.0713(7) 0.0314(4)
H7 H 0.7443 0.0700 0.0083
C21 C 0.1475(3) 0.5378(6) 0.5621(4)
H8 H 0.1707 0.5044 0.6035
C22 C 0.3742(3) 0.6062(6) 0.4255(4)
C23 C 0.6189(3) 0.8198(8) 0.3383(4)
H9 H 0.6473 0.8249 0.3791
C24 C 0.6029(3) 0.1556(9) 0.2473(4)
H10 H 0.6429 0.1213 0.2385
H11 H 0.6058 0.2318 0.2387
C25 C 0.1908(4) 0.6713(7) 0.4898(5)
H12 H 0.1904 0.6764 0.4401
H13 H 0.2276 0.7110 0.5125
C26 C 0.6018(4) 0.7973(9) 0.2160(5)
H14 H 0.6174 0.7858 0.1740
C27 C 0.5157(4) 0.8201(8) 0.2824(4)
H15 H 0.4713 0.8234 0.2846
C28 C 0.5196(4) 0.1300(10) 0.3177(4)
H16 H 0.5032 0.1985 0.3313
H17 H 0.5086 0.0758 0.3499
C29 C 0.1262(4) 0.6484(8) 0.5795(6)
H18 H 0.1554 0.6792 0.6171
H19 H 0.0826 0.6475 0.5923
C30 C 0.6442(4) 0.8041(9) 0.2759(5)
H20 H 0.6887 0.7983 0.2751
C31 C 0.5176(4) 0.4068(10) 0.0962(5)
H21 H 0.5160 0.3326 0.0996
C32 C 0.1286(4) 0.7115(9) 0.5113(6)
H22 H 0.0919 0.6944 0.4772
H23 H 0.1300 0.7882 0.5193
C33 C 0.5714(5) 0.4527(15) 0.0706(7)
H24 H 0.6043 0.4102 0.0571
C34 C 0.5368(5) 0.8075(9) 0.2185(4)
H25 H 0.5075 0.8061 0.1782
C35 C 0.4705(5) 0.5691(10) 0.1097(6)
H26 H 0.4379 0.6105 0.1248
C36 C 0.5221(8) 0.6212(13) 0.0796(8)
H27 H 0.5197 0.6940 0.0697
C37 C 0.5896(5) 0.1350(18) 0.3180(6)
H28 H 0.6092 0.0678 0.3345
H29 H 0.6077 0.1918 0.3484
C38 C 0.5738(7) 0.5640(14) 0.0660(8)
H30 H 0.6104 0.5981 0.0538
Cu8 Cu 0.48004(4) 0.83561(8) 0.56293(5)
Cu9 Cu 0.01996(4) 0.33561(8) 0.43707(5)
O16 O 0.4433(2) 0.9332(4) 0.4208(2)
O17 O 0.5779(2) 0.9517(4) 0.4695(2)
O18 O 0.58082(19) 0.7315(4) 0.4898(2)
O19 O 0.38179(19) 0.2781(4) 0.0677(2)
O20 O 0.3177(2) 0.4588(5) 0.1080(3)
O21 O 0.2438(2) 0.3507(4) 0.1488(2)
O22 O 0.3013(2) 0.1734(5) 0.0970(2)
H31 H 0.259341 0.0495517 0.227966
H32 H 0.209001 0.141315 0.246171
O8 O 0.61821(19) 0.2781(4) 0.9323(2)
O13 O 0.6987(2) 0.1734(5) 0.9030(2)
C9 C 0.6564(3) 0.2011(6) 0.9433(4)
Cu4 Cu 0.69722(4) 0.23703(8) 0.81207(5)
Cu6 Cu 0.60931(4) 0.37236(8) 0.85003(5)
O9 O 0.8177(2) 0.9588(5) 0.1080(3)
O11 O 0.7438(2) 0.8507(4) 0.1488(2)
H6 H 0.6480 0.9702 0.1624
C19 C 0.7601(3) 0.9332(7) 0.1180(4)
Cu5 Cu 0.80278(4) 0.73703(8) 0.18793(5)
Cu7 Cu 0.89069(4) 0.87236(8) 0.14997(5)
Cu10 Cu 0.98004(4) 0.33561(8) 0.56293(5)
C9_2 C 0.3436(3) 0.2011(6) 0.0567(4)
O1_2 O 0.5389(2) 0.7177(4) 0.5905(2)
O2_2 O 0.9433(2) 0.4332(4) 0.4208(2)
O3_2 O 0.5469(2) 0.2688(5) 0.8045(2)
O4_2 O 0.6230(2) 0.4362(4) 0.7592(3)
O5_2 O 0.6910(2) 0.3150(4) 0.7252(2)
O6_2 O 0.9221(2) 0.4517(4) 0.5305(2)
N1_2 N 0.4439(2) 0.8278(6) 0.6590(3)
O10_2 O 0.6204(2) 0.1494(4) 0.7784(3)
O12_2 O 0.7649(3) 0.1146(5) 0.7895(4)
N2_2 N 0.8073(2) 0.5594(5) 0.4876(3)
O14_2 O 0.7806(2) 0.3838(5) 0.4936(3)
N3_2 N 0.4544(3) 0.1072(6) 0.7960(3)
C1_2 C 0.5632(3) 0.1794(6) 0.7840(3)
C2_2 C 0.3434(3) 0.1350(6) 0.9923(3)
N4_2 N 0.5315(3) 0.4635(6) 0.8839(3)
C3_2 C 0.5791(3) 0.6912(6) 0.5494(4)
C4_2 C 0.7140(3) 0.4434(6) 0.6126(4)
H1_2 H 0.7417 0.3857 0.6237
C5_2 C 0.3994(3) 0.0807(7) 0.8970(4)
C6_2 C 0.9109(3) 0.4683(6) 0.4655(4)
C7_2 C 0.3975(3) 0.1417(7) 0.9571(4)
H2_2 H 0.4320 0.1861 0.9733
C8_2 C 0.4590(3) 0.0813(7) 0.8616(4)
O15_2 O 0.5129(3) 0.0545(6) 0.8943(3)
C10_2 C 0.5099(3) 0.1014(8) 0.7566(4)
H3_2 H 0.5271 0.0283 0.7579
C11_2 C 0.7218(3) 0.5062(7) 0.5551(4)
C12_2 C 0.6779(3) 0.5856(7) 0.5364(4)
H4_2 H 0.6824 0.6272 0.4977
C13_2 C 0.6212(3) 0.5482(6) 0.6333(4)
H5_2 H 0.5885 0.5639 0.6601
C14_2 C 0.6577(3) 0.3987(6) 0.7174(3)
C15_2 C 0.2940(3) 0.0075(7) 0.9094(4)
C16_2 C 0.6651(3) 0.4656(6) 0.6539(3)
C17_2 C 0.3494(3) 0.0137(7) 0.8759(4)
C18_2 C 0.7732(3) 0.4772(7) 0.5096(4)
C20_2 C 0.2921(3) 0.0713(7) 0.9686(4)
H7_2 H 0.2557 0.0700 0.9917
C21_2 C 0.8525(3) 0.5378(6) 0.4379(4)
H8_2 H 0.8293 0.5044 0.3965
C22_2 C 0.6258(3) 0.6062(6) 0.5745(4)
C23_2 C 0.3811(3) 0.8198(8) 0.6617(4)
H9_2 H 0.3527 0.8249 0.6209
C24_2 C 0.3971(3) 0.1556(9) 0.7527(4)
H10_2 H 0.3571 0.1213 0.7615
H11_2 H 0.3942 0.2318 0.7613
C25_2 C 0.8092(4) 0.6713(7) 0.5102(5)
H12_2 H 0.8096 0.6764 0.5599
H13_2 H 0.7724 0.7110 0.4875
C26_2 C 0.3982(4) 0.7973(9) 0.7840(5)
H14_2 H 0.3826 0.7858 0.8260
C27_2 C 0.4843(4) 0.8201(8) 0.7176(4)
H15_2 H 0.5287 0.8234 0.7154
C28_2 C 0.4804(4) 0.1300(10) 0.6823(4)
H16_2 H 0.4968 0.1985 0.6687
H17_2 H 0.4914 0.0758 0.6501
C29_2 C 0.8738(4) 0.6484(8) 0.4205(6)
H18_2 H 0.8446 0.6792 0.3829
H19_2 H 0.9174 0.6475 0.4077
C30_2 C 0.3558(4) 0.8041(9) 0.7241(5)
H20_2 H 0.3113 0.7983 0.7249
C31_2 C 0.4824(4) 0.4068(10) 0.9038(5)
H21_2 H 0.4840 0.3326 0.9004
C32_2 C 0.8714(4) 0.7115(9) 0.4887(6)
H22_2 H 0.9081 0.6944 0.5228
H23_2 H 0.8700 0.7882 0.4807
C33_2 C 0.4286(5) 0.4527(15) 0.9294(7)
H24_2 H 0.3957 0.4102 0.9429
C34_2 C 0.4632(5) 0.8075(9) 0.7815(4)
H25_2 H 0.4925 0.8061 0.8218
C35_2 C 0.5295(5) 0.5691(10) 0.8903(6)
H26_2 H 0.5621 0.6105 0.8752
C36_2 C 0.4779(8) 0.6212(13) 0.9204(8)
H27_2 H 0.4803 0.6940 0.9303
C37_2 C 0.4104(5) 0.1350(18) 0.6820(6)
H28_2 H 0.3908 0.0678 0.6655
H29_2 H 0.3923 0.1918 0.6516
C38_2 C 0.4262(7) 0.5640(14) 0.9340(8)
H30_2 H 0.3896 0.5981 0.9462
O16_2 O 0.5567(2) 0.9332(4) 0.5792(2)
O17_2 O 0.4221(2) 0.9517(4) 0.5305(2)
O20_2 O 0.6823(2) 0.4588(5) 0.8920(3)
O21_2 O 0.7562(2) 0.3507(4) 0.8512(2)
H31_2 H 0.740659 0.0495517 0.772034
H32_2 H 0.790999 0.141315 0.753829
O9_2 O 0.1823(2) 0.9588(5) 0.8920(3)
O11_2 O 0.2562(2) 0.8507(4) 0.8512(2)
H6_2 H 0.3520 0.9702 0.8376
C19_2 C 0.2399(3) 0.9332(7) 0.8820(4)
Cu5_2 Cu 0.19722(4) 0.73703(8) 0.81207(5)
Cu7_2 Cu 0.10931(4) 0.87236(8) 0.85003(5)
N1_3 N 0.0561(2) 0.3278(6) 0.3410(3)
C23_3 C 0.1189(3) 0.3198(8) 0.3383(4)
H9_3 H 0.1473 0.3249 0.3791
C26_3 C 0.1018(4) 0.2973(9) 0.2160(5)
H14_3 H 0.1174 0.2858 0.1740
C27_3 C 0.0157(4) 0.3201(8) 0.2824(4)
C30_3 C 0.1442(4) 0.3041(9) 0.2759(5)
H20_3 H 0.1887 0.2983 0.2751
C34_3 C 0.0368(5) 0.3075(9) 0.2185(4)
H25_3 H 0.0075 0.3061 0.1782
C36_3 C 0.0221(8) 0.1212(13) 0.0796(8)
H27_3 H 0.0197 0.1940 0.0697
C38_3 C 0.0738(7) 0.0640(14) 0.0660(8)
H30_3 H 0.1104 0.0981 0.0538
O18_2 O 0.08082(19) 0.2315(4) 0.4898(2)
N3_3 N 0.0456(3) 0.6072(6) 0.2040(3)
C2_3 C 0.1566(3) 0.6350(6) 0.0077(3)
C5_3 C 0.1006(3) 0.5807(7) 0.1030(4)
C7_3 C 0.1025(3) 0.6417(7) 0.0429(4)
H2_3 H 0.0680 0.6861 0.0267
C8_3 C 0.0410(3) 0.5813(7) 0.1384(4)
C15_3 C 0.2060(3) 0.5075(7) 0.0906(4)
C17_3 C 0.1506(3) 0.5137(7) 0.1241(4)
H6_3 H 0.1480 0.4702 0.1624
C19_3 C 0.2601(3) 0.4332(7) 0.1180(4)
C20_3 C 0.2079(3) 0.5713(7) 0.0314(4)
H7_3 H 0.2443 0.5700 0.0083
C24_3 C 0.1029(3) 0.6556(9) 0.2473(4)
H10_3 H 0.1429 0.6213 0.2385
H11_3 H 0.1058 0.7318 0.2387
C28_3 C 0.0196(4) 0.6300(10) 0.3177(4)
H16_3 H 0.0032 0.6985 0.3313
H17_3 H 0.0086 0.5758 0.3499
C31_3 C 0.0176(4) 0.9068(10) 0.0962(5)
H21_3 H 0.0160 0.8326 0.0996
C33_3 C 0.0714(5) 0.9527(15) 0.0706(7)
H24_3 H 0.1043 0.9102 0.0571
C37_3 C 0.0896(5) 0.6350(18) 0.3180(6)
H28_3 H 0.1092 0.5678 0.3345
H29_3 H 0.1077 0.6918 0.3484
O8_2 O 0.11821(19) 0.7781(4) 0.9323(2)
O13_2 O 0.1987(2) 0.6734(5) 0.9030(2)
C9_3 C 0.1564(3) 0.7011(6) 0.9433(4)
O1_3 O 0.9611(2) 0.2177(4) 0.4095(2)
O7_2 O 0.91918(19) 0.2315(4) 0.5102(2)
N2_3 N 0.6927(2) 0.0594(5) 0.5124(3)
C3_3 C 0.9209(3) 0.1912(6) 0.4506(4)
C11_3 C 0.7782(3) 0.0062(7) 0.4449(4)
C12_3 C 0.8221(3) 0.0856(7) 0.4636(4)
H4_3 H 0.8176 0.1272 0.5023
C13_3 C 0.8788(3) 0.0482(6) 0.3667(4)
H5_3 H 0.9115 0.0639 0.3399
C21_3 C 0.6475(3) 0.0378(6) 0.5621(4)
H8_3 H 0.6707 0.0044 0.6035
C22_3 C 0.8742(3) 0.1062(6) 0.4255(4)
C25_3 C 0.6908(4) 0.1713(7) 0.4898(5)
H12_3 H 0.6904 0.1764 0.4401
H13_3 H 0.7276 0.2110 0.5125
H15_3 H 0.9713 0.3234 0.2846
C29_3 C 0.6262(4) 0.1484(8) 0.5795(6)
H18_3 H 0.6554 0.1792 0.6171
H19_3 H 0.5826 0.1475 0.5923
C32_3 C 0.6286(4) 0.2115(9) 0.5113(6)
H22_3 H 0.5919 0.1944 0.4772
H23_3 H 0.6300 0.2882 0.5193
C35_3 C 0.9705(5) 0.0691(10) 0.1097(6)
H26_3 H 0.9379 0.1105 0.1248
O3_3 O 0.9531(2) 0.7688(5) 0.1955(2)
O4_3 O 0.8770(2) 0.9362(4) 0.2408(3)
O5_3 O 0.8090(2) 0.8150(4) 0.2748(2)
O10_3 O 0.8796(2) 0.6494(4) 0.2216(3)
O12_3 O 0.7351(3) 0.6146(5) 0.2105(4)
O14_3 O 0.7194(2) 0.8838(5) 0.5064(3)
C1_3 C 0.9368(3) 0.6794(6) 0.2160(3)
N4_3 N 0.9685(3) 0.9635(6) 0.1161(3)
C4_3 C 0.7860(3) 0.9434(6) 0.3874(4)
H1_3 H 0.7583 0.8857 0.3763
C6_3 C 0.5891(3) 0.9683(6) 0.5345(4)
O15_3 O 0.9871(3) 0.5545(6) 0.1057(3)
C10_3 C 0.9901(3) 0.6014(8) 0.2434(4)
H3_3 H 0.9729 0.5283 0.2421
C14_3 C 0.8423(3) 0.8987(6) 0.2826(3)
C16_3 C 0.8349(3) 0.9656(6) 0.3461(3)
C18_3 C 0.7268(3) 0.9772(7) 0.4904(4)
O19_2 O 0.88179(19) 0.7781(4) 0.0677(2)
O22_2 O 0.8013(2) 0.6734(5) 0.0970(2)
H31_3 H 0.759341 0.549552 0.227966
H32_3 H 0.709001 0.641315 0.246171
O1_4 O 0.0389(2) 0.2177(4) 0.5905(2)
N2_4 N 0.3073(2) 0.0594(5) 0.4876(3)
C3_4 C 0.0791(3) 0.1912(6) 0.5494(4)
C11_4 C 0.2218(3) 0.0062(7) 0.5551(4)
C12_4 C 0.1779(3) 0.0856(7) 0.5364(4)
H4_4 H 0.1824 0.1272 0.4977
C13_4 C 0.1212(3) 0.0482(6) 0.6333(4)
H5_4 H 0.0885 0.0639 0.6601
C21_4 C 0.3525(3) 0.0378(6) 0.4379(4)
H8_4 H 0.3293 0.0044 0.3965
C22_4 C 0.1258(3) 0.1062(6) 0.5745(4)
C25_4 C 0.3092(4) 0.1713(7) 0.5102(5)
H12_4 H 0.3096 0.1764 0.5599
H13_4 H 0.2724 0.2110 0.4875
H15_4 H 0.0287 0.3234 0.7154
C29_4 C 0.3738(4) 0.1484(8) 0.4205(6)
H18_4 H 0.3446 0.1792 0.3829
H19_4 H 0.4174 0.1475 0.4077
C32_4 C 0.3714(4) 0.2115(9) 0.4887(6)
H22_4 H 0.4081 0.1944 0.5228
H23_4 H 0.3700 0.2882 0.4807
C35_4 C 0.0295(5) 0.0691(10) 0.8903(6)
H26_4 H 0.0621 0.1105 0.8752
O3_4 O 0.0469(2) 0.7688(5) 0.8045(2)
O4_4 O 0.1230(2) 0.9362(4) 0.7592(3)
O5_4 O 0.1910(2) 0.8150(4) 0.7252(2)
O10_4 O 0.1204(2) 0.6494(4) 0.7784(3)
O12_4 O 0.2649(3) 0.6146(5) 0.7895(4)
O14_4 O 0.2806(2) 0.8838(5) 0.4936(3)
C1_4 C 0.0632(3) 0.6794(6) 0.7840(3)
N4_4 N 0.0315(3) 0.9635(6) 0.8839(3)
C4_4 C 0.2140(3) 0.9434(6) 0.6126(4)
H1_4 H 0.2417 0.8857 0.6237
C6_4 C 0.4109(3) 0.9683(6) 0.4655(4)
O15_4 O 0.0129(3) 0.5545(6) 0.8943(3)
C10_4 C 0.0099(3) 0.6014(8) 0.7566(4)
H3_4 H 0.0271 0.5283 0.7579
C14_4 C 0.1577(3) 0.8987(6) 0.7174(3)
C16_4 C 0.1651(3) 0.9656(6) 0.6539(3)
C18_4 C 0.2732(3) 0.9772(7) 0.5096(4)
H31_4 H 0.240659 0.549552 0.772034
H32_4 H 0.290999 0.641315 0.753829
N1_4 N 0.9439(2) 0.3278(6) 0.6590(3)
C23_4 C 0.8811(3) 0.3198(8) 0.6617(4)
H9_4 H 0.8527 0.3249 0.6209
C26_4 C 0.8982(4) 0.2973(9) 0.7840(5)
H14_4 H 0.8826 0.2858 0.8260
C27_4 C 0.9843(4) 0.3201(8) 0.7176(4)
C30_4 C 0.8558(4) 0.3041(9) 0.7241(5)
H20_4 H 0.8113 0.2983 0.7249
C34_4 C 0.9632(5) 0.3075(9) 0.7815(4)
H25_4 H 0.9925 0.3061 0.8218
C36_4 C 0.9779(8) 0.1212(13) 0.9204(8)
H27_4 H 0.9803 0.1940 0.9303
C38_4 C 0.9262(7) 0.0640(14) 0.9340(8)
H30_4 H 0.8896 0.0981 0.9462
C9_4 C 0.8436(3) 0.7011(6) 0.0567(4)
N3_4 N 0.9544(3) 0.6072(6) 0.7960(3)
C2_4 C 0.8434(3) 0.6350(6) 0.9923(3)
C5_4 C 0.8994(3) 0.5807(7) 0.8970(4)
C7_4 C 0.8975(3) 0.6417(7) 0.9571(4)
H2_4 H 0.9320 0.6861 0.9733
C8_4 C 0.9590(3) 0.5813(7) 0.8616(4)
C15_4 C 0.7940(3) 0.5075(7) 0.9094(4)
C17_4 C 0.8494(3) 0.5137(7) 0.8759(4)
H6_4 H 0.8520 0.4702 0.8376
C19_4 C 0.7399(3) 0.4332(7) 0.8820(4)
C20_4 C 0.7921(3) 0.5713(7) 0.9686(4)
H7_4 H 0.7557 0.5700 0.9917
C24_4 C 0.8971(3) 0.6556(9) 0.7527(4)
H10_4 H 0.8571 0.6213 0.7615
H11_4 H 0.8942 0.7318 0.7613
C28_4 C 0.9804(4) 0.6300(10) 0.6823(4)
H16_4 H 0.9968 0.6985 0.6687
H17_4 H 0.9914 0.5758 0.6501
C31_4 C 0.9824(4) 0.9068(10) 0.9038(5)
H21_4 H 0.9840 0.8326 0.9004
C33_4 C 0.9286(5) 0.9527(15) 0.9294(7)
H24_4 H 0.8957 0.9102 0.9429
C37_4 C 0.9104(5) 0.6350(18) 0.6820(6)
H28_4 H 0.8908 0.5678 0.6655
H29_4 H 0.8923 0.6918 0.6516
loop_
_geom_bond_atom_site_label_1
_geom_bond_atom_site_label_2
_geom_bond_site_symmetry_1
_geom_bond_site_symmetry_2
Cu1 Cu2 1_555 1_555
Cu2 O3 1_555 1_555
Cu3 O1 1_555 1_555
O1 C3 1_555 1_555
O2 C6 1_555 1_555
O3 C1 1_555 1_555
O4 Cu2 1_555 1_555
O5 Cu1 1_555 1_555
O6 C6 1_555 1_555
N1 Cu3 1_555 1_555
O7 C3 1_555 1_555
O10 Cu1 1_555 1_555
O12 Cu1 1_555 1_555
N2 C18 1_555 1_555
O14 C18 1_555 1_555
N3 C8 1_555 1_555
C1 O10 1_555 1_555
C2 C7 1_555 1_555
N4 Cu2 1_555 1_555
C3 C22 1_555 1_555
C4 H1 1_555 1_555
C5 C7 1_555 1_555
C6 C21 1_555 1_555
C7 H2 1_555 1_555
C8 C5 1_555 1_555
O15 C8 1_555 1_555
C10 N3 1_555 1_555
H3 C10 1_555 1_555
C11 C4 1_555 1_555
C12 C11 1_555 1_555
H4 C12 1_555 1_555
C13 H5 1_555 1_555
C14 O4 1_555 1_555
C15 C17 1_555 1_555
C16 C4 1_555 1_555
C17 C5 1_555 1_555
C18 C11 1_555 1_555
C20 C2 1_555 1_555
H7 C20 1_555 1_555
C21 N2 1_555 1_555
H8 C21 1_555 1_555
C22 C12 1_555 1_555
C23 N1 1_555 1_555
H9 C23 1_555 1_555
C24 N3 1_555 1_555
H10 C24 1_555 1_555
H11 C24 1_555 1_555
C25 N2 1_555 1_555
H12 C25 1_555 1_555
H13 C25 1_555 1_555
C26 H14 1_555 1_555
C27 N1 1_555 1_555
H15 C27 1_555 1_555
C28 C10 1_555 1_555
H16 C28 1_555 1_555
H17 C28 1_555 1_555
C29 C21 1_555 1_555
H18 C29 1_555 1_555
H19 C29 1_555 1_555
C30 C23 1_555 1_555
H20 C30 1_555 1_555
C31 N4 1_555 1_555
H21 C31 1_555 1_555
C32 C25 1_555 1_555
H22 C32 1_555 1_555
H23 C32 1_555 1_555
C33 C31 1_555 1_555
H24 C33 1_555 1_555
C34 C26 1_555 1_555
H25 C34 1_555 1_555
C35 N4 1_555 1_555
H26 C35 1_555 1_555
C36 C35 1_555 1_555
H27 C36 1_555 1_555
C37 C24 1_555 1_555
H28 C37 1_555 1_555
H29 C37 1_555 1_555
C38 C33 1_555 1_555
H30 C38 1_555 1_555
Cu8 Cu3 1_555 1_555
Cu9 O6 1_555 1_555
O16 Cu3 1_555 1_555
O17 Cu3 1_555 1_555
O18 Cu3 1_555 1_555
O19 Cu2 1_555 1_555
O20 Cu2 1_555 1_555
O21 Cu1 1_555 1_555
O22 Cu1 1_555 1_555
O5 C14 1_555 1_555
O7 Cu8 1_555 1_555
C1 C10 1_555 1_555
C13 C16 1_555 1_555
C13 C22 1_555 1_555
C14 C16 1_555 1_555
C15 C20 1_555 1_555
C26 C30 1_555 1_555
C27 C34 1_555 1_555
C28 C37 1_555 1_555
C29 C32 1_555 1_555
C36 C38 1_555 1_555
O12 H31 1_555 1_555
O12 H32 1_555 1_555
O8 C9 1_555 1_555
O13 C9 1_555 1_555
Cu4 O13 1_555 1_555
Cu6 O8 1_555 1_555
Cu4 Cu6 1_555 1_555
O9 C19 1_555 1_555
O11 C19 1_555 1_555
Cu5 O11 1_555 1_555
Cu7 O9 1_555 1_555
Cu5 Cu7 1_555 1_555
O19 C9_2 1_555 1_555
O22 C9_2 1_555 1_555
Cu6 O3_2 1_555 1_555
Cu8 O1_2 1_555 1_555
O1_2 C3_2 1_555 1_555
O2_2 C6_2 1_555 1_555
O3_2 C1_2 1_555 1_555
O4_2 Cu6 1_555 1_555
O5_2 Cu4 1_555 1_555
O6_2 C6_2 1_555 1_555
N1_2 Cu8 1_555 1_555
O18 C3_2 1_555 1_555
O10_2 Cu4 1_555 1_555
O12_2 Cu4 1_555 1_555
N2_2 C18_2 1_555 1_555
O14_2 C18_2 1_555 1_555
N3_2 C8_2 1_555 1_555
C1_2 O10_2 1_555 1_555
C2_2 C7_2 1_555 1_555
N4_2 Cu6 1_555 1_555
C3_2 C22_2 1_555 1_555
C4_2 H1_2 1_555 1_555
C5_2 C7_2 1_555 1_555
C6_2 C21_2 1_555 1_555
C7_2 H2_2 1_555 1_555
C8_2 C5_2 1_555 1_555
O15_2 C8_2 1_555 1_555
C10_2 N3_2 1_555 1_555
H3_2 C10_2 1_555 1_555
C11_2 C4_2 1_555 1_555
C12_2 C11_2 1_555 1_555
H4_2 C12_2 1_555 1_555
C13_2 H5_2 1_555 1_555
C14_2 O4_2 1_555 1_555
C15_2 C17_2 1_555 1_555
C16_2 C4_2 1_555 1_555
C17_2 C5_2 1_555 1_555
C18_2 C11_2 1_555 1_555
C20_2 C2_2 1_555 1_555
H7_2 C20_2 1_555 1_555
C21_2 N2_2 1_555 1_555
H8_2 C21_2 1_555 1_555
C22_2 C12_2 1_555 1_555
C23_2 N1_2 1_555 1_555
H9_2 C23_2 1_555 1_555
C24_2 N3_2 1_555 1_555
H10_2 C24_2 1_555 1_555
H11_2 C24_2 1_555 1_555
C25_2 N2_2 1_555 1_555
H12_2 C25_2 1_555 1_555
H13_2 C25_2 1_555 1_555
C26_2 H14_2 1_555 1_555
C27_2 N1_2 1_555 1_555
H15_2 C27_2 1_555 1_555
C28_2 C10_2 1_555 1_555
H16_2 C28_2 1_555 1_555
H17_2 C28_2 1_555 1_555
C29_2 C21_2 1_555 1_555
H18_2 C29_2 1_555 1_555
H19_2 C29_2 1_555 1_555
C30_2 C23_2 1_555 1_555
H20_2 C30_2 1_555 1_555
C31_2 N4_2 1_555 1_555
H21_2 C31_2 1_555 1_555
C32_2 C25_2 1_555 1_555
H22_2 C32_2 1_555 1_555
H23_2 C32_2 1_555 1_555
C33_2 C31_2 1_555 1_555
H24_2 C33_2 1_555 1_555
C34_2 C26_2 1_555 1_555
H25_2 C34_2 1_555 1_555
C35_2 N4_2 1_555 1_555
H26_2 C35_2 1_555 1_555
C36_2 C35_2 1_555 1_555
H27_2 C36_2 1_555 1_555
C37_2 C24_2 1_555 1_555
H28_2 C37_2 1_555 1_555
H29_2 C37_2 1_555 1_555
C38_2 C33_2 1_555 1_555
H30_2 C38_2 1_555 1_555
Cu10 O6_2 1_555 1_555
O16_2 Cu8 1_555 1_555
O17_2 Cu8 1_555 1_555
O20_2 Cu6 1_555 1_555
O21_2 Cu4 1_555 1_555
O5_2 C14_2 1_555 1_555
C1_2 C10_2 1_555 1_555
C13_2 C16_2 1_555 1_555
C13_2 C22_2 1_555 1_555
C14_2 C16_2 1_555 1_555
C15_2 C20_2 1_555 1_555
C26_2 C30_2 1_555 1_555
C27_2 C34_2 1_555 1_555
C28_2 C37_2 1_555 1_555
C29_2 C32_2 1_555 1_555
C36_2 C38_2 1_555 1_555
O12_2 H31_2 1_555 1_555
O12_2 H32_2 1_555 1_555
O9_2 C19_2 1_555 1_555
O11_2 C19_2 1_555 1_555
Cu5_2 O11_2 1_555 1_555
Cu7_2 O9_2 1_555 1_555
Cu5_2 Cu7_2 1_555 1_555
N1_3 Cu9 1_555 1_555
C23_3 N1_3 1_555 1_555
H9_3 C23_3 1_555 1_555
C26_3 H14_3 1_555 1_555
C27_3 N1_3 1_555 1_555
C30_3 C23_3 1_555 1_555
H20_3 C30_3 1_555 1_555
C34_3 C26_3 1_555 1_555
H25_3 C34_3 1_555 1_555
H27_3 C36_3 1_555 1_555
H30_3 C38_3 1_555 1_555
O18_2 Cu9 1_555 1_555
C26_3 C30_3 1_555 1_555
C27_3 C34_3 1_555 1_555
C36_3 C38_3 1_555 1_555
O20 C19_3 1_555 1_555
O21 C19_3 1_555 1_555
N3_3 C8_3 1_555 1_555
C2_3 C7_3 1_555 1_555
C5_3 C7_3 1_555 1_555
C7_3 H2_3 1_555 1_555
C8_3 C5_3 1_555 1_555
C15_3 C17_3 1_555 1_555
C17_3 C5_3 1_555 1_555
H6_3 C17_3 1_555 1_555
C19_3 C15_3 1_555 1_555
C20_3 C2_3 1_555 1_555
H7_3 C20_3 1_555 1_555
C24_3 N3_3 1_555 1_555
H10_3 C24_3 1_555 1_555
H11_3 C24_3 1_555 1_555
H16_3 C28_3 1_555 1_555
H17_3 C28_3 1_555 1_555
H21_3 C31_3 1_555 1_555
C33_3 C31_3 1_555 1_555
H24_3 C33_3 1_555 1_555
C37_3 C24_3 1_555 1_555
H28_3 C37_3 1_555 1_555
H29_3 C37_3 1_555 1_555
C15_3 C20_3 1_555 1_555
C28_3 C37_3 1_555 1_555
O8_2 C9_3 1_555 1_555
O13_2 C9_3 1_555 1_555
Cu5_2 O13_2 1_555 1_555
Cu7_2 O8_2 1_555 1_555
O1_3 C3_3 1_555 1_555
O7_2 C3_3 1_555 1_555
C3_3 C22_3 1_555 1_555
C12_3 C11_3 1_555 1_555
H4_3 C12_3 1_555 1_555
C13_3 H5_3 1_555 1_555
C21_3 N2_3 1_555 1_555
H8_3 C21_3 1_555 1_555
C22_3 C12_3 1_555 1_555
C25_3 N2_3 1_555 1_555
H12_3 C25_3 1_555 1_555
H13_3 C25_3 1_555 1_555
C29_3 C21_3 1_555 1_555
H18_3 C29_3 1_555 1_555
H19_3 C29_3 1_555 1_555
C32_3 C25_3 1_555 1_555
H22_3 C32_3 1_555 1_555
H23_3 C32_3 1_555 1_555
H26_3 C35_3 1_555 1_555
O7_2 Cu10 1_555 1_555
C13_3 C22_3 1_555 1_555
C29_3 C32_3 1_555 1_555
Cu7 O3_3 1_555 1_555
O16_2 C6_3 1_555 1_555
O3_3 C1_3 1_555 1_555
O4_3 Cu7 1_555 1_555
O5_3 Cu5 1_555 1_555
O17 C6_3 1_555 1_555
O10_3 Cu5 1_555 1_555
O12_3 Cu5 1_555 1_555
O14_3 C18_3 1_555 1_555
C1_3 O10_3 1_555 1_555
N4_3 Cu7 1_555 1_555
C4_3 H1_3 1_555 1_555
H3_3 C10_3 1_555 1_555
C14_3 O4_3 1_555 1_555
C16_3 C4_3 1_555 1_555
O19_2 Cu7 1_555 1_555
O22_2 Cu5 1_555 1_555
O5_3 C14_3 1_555 1_555
C1_3 C10_3 1_555 1_555
C14_3 C16_3 1_555 1_555
O12_3 H31_3 1_555 1_555
O12_3 H32_3 1_555 1_555
O1_4 C3_4 1_555 1_555
O18_2 C3_4 1_555 1_555
C3_4 C22_4 1_555 1_555
C12_4 C11_4 1_555 1_555
H4_4 C12_4 1_555 1_555
C13_4 H5_4 1_555 1_555
C21_4 N2_4 1_555 1_555
H8_4 C21_4 1_555 1_555
C22_4 C12_4 1_555 1_555
C25_4 N2_4 1_555 1_555
H12_4 C25_4 1_555 1_555
H13_4 C25_4 1_555 1_555
C29_4 C21_4 1_555 1_555
H18_4 C29_4 1_555 1_555
H19_4 C29_4 1_555 1_555
C32_4 C25_4 1_555 1_555
H22_4 C32_4 1_555 1_555
H23_4 C32_4 1_555 1_555
H26_4 C35_4 1_555 1_555
C13_4 C22_4 1_555 1_555
C29_4 C32_4 1_555 1_555
Cu7_2 O3_4 1_555 1_555
O16 C6_4 1_555 1_555
O3_4 C1_4 1_555 1_555
O4_4 Cu7_2 1_555 1_555
O5_4 Cu5_2 1_555 1_555
O17_2 C6_4 1_555 1_555
O10_4 Cu5_2 1_555 1_555
O12_4 Cu5_2 1_555 1_555
O14_4 C18_4 1_555 1_555
C1_4 O10_4 1_555 1_555
N4_4 Cu7_2 1_555 1_555
C4_4 H1_4 1_555 1_555
H3_4 C10_4 1_555 1_555
C14_4 O4_4 1_555 1_555
C16_4 C4_4 1_555 1_555
O5_4 C14_4 1_555 1_555
C1_4 C10_4 1_555 1_555
C14_4 C16_4 1_555 1_555
O12_4 H31_4 1_555 1_555
O12_4 H32_4 1_555 1_555
N1_4 Cu10 1_555 1_555
C23_4 N1_4 1_555 1_555
H9_4 C23_4 1_555 1_555
C26_4 H14_4 1_555 1_555
C27_4 N1_4 1_555 1_555
C30_4 C23_4 1_555 1_555
H20_4 C30_4 1_555 1_555
C34_4 C26_4 1_555 1_555
H25_4 C34_4 1_555 1_555
H27_4 C36_4 1_555 1_555
H30_4 C38_4 1_555 1_555
C26_4 C30_4 1_555 1_555
C27_4 C34_4 1_555 1_555
C36_4 C38_4 1_555 1_555
O19_2 C9_4 1_555 1_555
O22_2 C9_4 1_555 1_555
O20_2 C19_4 1_555 1_555
O21_2 C19_4 1_555 1_555
N3_4 C8_4 1_555 1_555
C2_4 C7_4 1_555 1_555
C5_4 C7_4 1_555 1_555
C7_4 H2_4 1_555 1_555
C8_4 C5_4 1_555 1_555
C15_4 C17_4 1_555 1_555
C17_4 C5_4 1_555 1_555
H6_4 C17_4 1_555 1_555
C19_4 C15_4 1_555 1_555
C20_4 C2_4 1_555 1_555
H7_4 C20_4 1_555 1_555
C24_4 N3_4 1_555 1_555
H10_4 C24_4 1_555 1_555
H11_4 C24_4 1_555 1_555
H16_4 C28_4 1_555 1_555
H17_4 C28_4 1_555 1_555
H21_4 C31_4 1_555 1_555
C33_4 C31_4 1_555 1_555
H24_4 C33_4 1_555 1_555
C37_4 C24_4 1_555 1_555
H28_4 C37_4 1_555 1_555
H29_4 C37_4 1_555 1_555
C15_4 C20_4 1_555 1_555
C28_4 C37_4 1_555 1_555

#END
