
###############################################################################
#
# This file contains modified crystal structure data generated from the
# MOF subset of the Cambridge Structural Database (CSD) v543 
# hosted by the Cambridge Crystallographic Data Centre (CCDC).
#
# This work is licensed under the Creative Commons
# Attribution-NonCommercial-ShareAlike 4.0 International License.
# To view a copy of this license, visit
# http://creativecommons.org/licenses/by-nc-sa/4.0/
# or send a letter to
# Creative Commons, PO Box 1866, Mountain View, CA 94042, USA.
#
# CIF created using the CSD Python API on 29 September 2022
# The structure has been converted into the P1 space group
# The structure has a 3D framework
# The original CSD entry AHEQAH is in the orthorhombic crystal system
# The framework has been calculated to contain at least 10.0% void space
# The void calculation uses a probe of radius 1.32A, grid spacing 0.4
# H atom positions have been added when not included in the experimental data
# Generated hydrogen atom positions removed from atoms on special positions
#
###############################################################################

data_AHEQAH
_chemical_formula_moiety         '(C132 H84 Ho4 O30)n'
_symmetry_cell_setting           triclinic
_symmetry_space_group_name_H-M   'P 1'
_symmetry_Int_Tables_number      1
_space_group_name_Hall           'P 1'
loop_
_symmetry_equiv_pos_site_id
_symmetry_equiv_pos_as_xyz
1 x,y,z
_cell_length_a                   21.403(6)
_cell_length_b                   34.255(9)
_cell_length_c                   8.023(2)
_cell_angle_alpha                90
_cell_angle_beta                 90
_cell_angle_gamma                90
_cell_volume                     5882.14
loop_
_atom_site_label
_atom_site_type_symbol
_atom_site_fract_x
_atom_site_fract_y
_atom_site_fract_z
C18 C 0.043(2) 0.7738(12) 0.404(8)
H8 H 0.0619 0.7597 0.3152
C19 C 0.0698(19) 0.7733(11) 0.562(8)
C20 C 0.042(2) 0.7940(15) 0.691(7)
H9 H 0.0604 0.7936 0.7991
O4 O 0.1503(10) 0.7522(7) 0.773(5)
O5 O 0.188(2) 0.7654(16) 0.528(8)
C22 C 0.130(3) 0.7618(10) 0.644(12)
Ho3 Ho 0.2500 0.76630(4) 0.883(4)
Ho5 Ho 0.2500 0.73370(4) 0.383(4)
O12 O 0.688(2) 0.2654(16) 0.028(8)
O13 O 0.812(2) 0.2654(16) 0.028(8)
H17 H 0.835 0.191451 0.111593
H18 H 0.699036 0.158169 0.000175856
H19 H 0.665 0.191451 0.111593
C1 C 0.7500 0.1786(11) 0.519(7)
C2 C 0.7500 0.1368(6) 0.505(5)
C3 C 0.7500(10) 0.1159(9) 0.654(4)
H1 H 0.7500 0.1293 0.7574
C4 C 0.7500(10) 0.0753(9) 0.651(4)
H2 H 0.7500 0.0610 0.7523
C5 C 0.7500(3) 0.0556(6) 0.499(4)
C6 C 0.7500(9) 0.0765(7) 0.351(4)
H3 H 0.7500 0.0631 0.2472
C7 C 0.7500(9) 0.1171(7) 0.354(4)
H4 H 0.7500 0.1314 0.2523
C8 C 0.7500 0.013(2) 0.49243(2)
O1 O 0.7500 0.1963(8) 0.666(6)
O2 O 0.7500 0.1971(8) 0.382(11)
O3 O 0.8223(11) 0.1839(6) 0.997(5)
Ho1 Ho 0.7500 0.23370(4) 0.883(4)
O8 O 0.6777(11) 0.1839(6) 0.997(5)
O9 O 0.7500 0.3029(8) 0.882(11)
Ho6 Ho 0.7500 0.26630(4) 0.383(4)
O10 O 0.8497(10) 0.2478(7) 0.773(5)
O11 O 0.6503(10) 0.2478(7) 0.773(5)
H16 H 0.859906 0.182125 0.924911
C9 C 0.7500 0.9767(19) 0.487(4)
C10 C 0.7500 0.9352(16) 0.475(10)
C11 C 0.8075(17) 0.9162(10) 0.462(8)
H5 H 0.8453 0.9305 0.4729
C12 C 0.8091(13) 0.8759(9) 0.433(6)
C13 C 0.7500 0.8580(14) 0.432(8)
H6 H 0.7500 0.8303 0.4304
C14 C 0.8613(13) 0.8549(8) 0.451(7)
C15 C 0.9094(14) 0.8362(8) 0.478(7)
C16 C 0.9612(18) 0.8158(8) 0.505(6)
C17 C 0.989(2) 0.7951(12) 0.375(6)
H7 H 0.9706 0.7955 0.2674
C21 C 0.988(2) 0.8153(14) 0.663(6)
H10 H 0.9691 0.8294 0.7514
C23 C 0.6925(17) 0.9162(10) 0.462(8)
H11 H 0.6547 0.9305 0.4729
C24 C 0.6909(13) 0.8759(9) 0.433(6)
C25 C 0.6387(13) 0.8549(8) 0.451(7)
C26 C 0.5906(14) 0.8362(8) 0.478(7)
C27 C 0.5388(18) 0.8158(8) 0.505(6)
C28 C 0.511(2) 0.7951(12) 0.375(6)
H12 H 0.5294 0.7955 0.2674
C29 C 0.457(2) 0.7738(12) 0.404(8)
H13 H 0.4381 0.7597 0.3152
C30 C 0.4302(19) 0.7733(11) 0.562(8)
C31 C 0.458(2) 0.7940(15) 0.691(7)
H14 H 0.4396 0.7936 0.7991
C32 C 0.512(2) 0.8153(14) 0.663(6)
H15 H 0.5309 0.8294 0.7514
O6 O 0.3497(10) 0.7522(7) 0.773(5)
O7 O 0.312(2) 0.7654(16) 0.528(8)
C33 C 0.370(3) 0.7618(10) 0.644(12)
C9_2 C 0.2500 0.0233(19) 0.487(4)
C10_2 C 0.2500 0.0648(16) 0.475(10)
C11_2 C 0.1925(17) 0.0838(10) 0.462(8)
H5_2 H 0.1547 0.0695 0.4729
C12_2 C 0.1909(13) 0.1241(9) 0.433(6)
C13_2 C 0.2500 0.1420(14) 0.432(8)
H6_2 H 0.2500 0.1697 0.4304
C14_2 C 0.1387(13) 0.1451(8) 0.451(7)
C15_2 C 0.0906(14) 0.1638(8) 0.478(7)
C16_2 C 0.0388(18) 0.1842(8) 0.505(6)
C17_2 C 0.011(2) 0.2049(12) 0.375(6)
H7_2 H 0.0294 0.2045 0.2674
C21_2 C 0.012(2) 0.1847(14) 0.663(6)
H10_2 H 0.0309 0.1706 0.7514
C23_2 C 0.3075(17) 0.0838(10) 0.462(8)
H11_2 H 0.3453 0.0695 0.4729
C24_2 C 0.3091(13) 0.1241(9) 0.433(6)
C25_2 C 0.3613(13) 0.1451(8) 0.451(7)
C26_2 C 0.4094(14) 0.1638(8) 0.478(7)
C27_2 C 0.4612(18) 0.1842(8) 0.505(6)
C28_2 C 0.489(2) 0.2049(12) 0.375(6)
H12_2 H 0.4706 0.2045 0.2674
C29_2 C 0.543(2) 0.2262(12) 0.404(8)
H13_2 H 0.5619 0.2403 0.3152
C30_2 C 0.5698(19) 0.2267(11) 0.562(8)
C31_2 C 0.542(2) 0.2060(15) 0.691(7)
H14_2 H 0.5604 0.2064 0.7991
C32_2 C 0.488(2) 0.1847(14) 0.663(6)
H15_2 H 0.4691 0.1706 0.7514
O7_2 O 0.688(2) 0.2346(16) 0.528(8)
C33_2 C 0.630(3) 0.2382(10) 0.644(12)
O12_2 O 0.312(2) 0.7346(16) 0.028(8)
O13_2 O 0.188(2) 0.7346(16) 0.028(8)
H17_2 H 0.165 0.808549 0.111593
H18_2 H 0.300964 0.841831 0.000175856
H19_2 H 0.335 0.808549 0.111593
C1_2 C 0.2500 0.8214(11) 0.519(7)
C2_2 C 0.2500 0.8632(6) 0.505(5)
C3_2 C 0.2500(10) 0.8841(9) 0.654(4)
H1_2 H 0.2500 0.8707 0.7574
C4_2 C 0.2500(10) 0.9247(9) 0.651(4)
H2_2 H 0.2500 0.9390 0.7523
C5_2 C 0.2500(3) 0.9444(6) 0.499(4)
C6_2 C 0.2500(9) 0.9235(7) 0.351(4)
H3_2 H 0.2500 0.9369 0.2472
C7_2 C 0.2500(9) 0.8829(7) 0.354(4)
H4_2 H 0.2500 0.8686 0.2523
C8_2 C 0.2500 0.987(2) 0.49243(2)
O1_2 O 0.2500 0.8037(8) 0.666(6)
O2_2 O 0.2500 0.8029(8) 0.382(11)
O3_2 O 0.1777(11) 0.8161(6) 0.997(5)
O8_2 O 0.3223(11) 0.8161(6) 0.997(5)
O9_2 O 0.2500 0.6971(8) 0.882(11)
H16_2 H 0.140094 0.817875 0.924911
C18_2 C 0.957(2) 0.2262(12) 0.404(8)
H8_2 H 0.9381 0.2403 0.3152
C19_2 C 0.9302(19) 0.2267(11) 0.562(8)
C20_2 C 0.958(2) 0.2060(15) 0.691(7)
H9_2 H 0.9396 0.2064 0.7991
O5_2 O 0.812(2) 0.2346(16) 0.528(8)
C22_2 C 0.870(3) 0.2382(10) 0.644(12)
H18_3 H 0.800964 0.158169 0.000175856
H16_3 H 0.640094 0.182125 0.924911
H18_4 H 0.199036 0.841831 0.000175856
H16_4 H 0.359906 0.817875 0.924911
C1_3 C 0.2500 0.6786(11) 0.019(7)
C2_3 C 0.2500 0.6368(6) 0.005(5)
C3_3 C 0.2500(10) 0.6159(9) 0.154(4)
H1_3 H 0.2500 0.6293 0.2574
C4_3 C 0.2500(10) 0.5753(9) 0.151(4)
H2_3 H 0.2500 0.5610 0.2523
C16_3 C 0.4612(18) 0.3158(8) 0.005(6)
C19_3 C 0.5698(19) 0.2733(11) 0.062(8)
C20_3 C 0.542(2) 0.2940(15) 0.191(7)
H9_3 H 0.5604 0.2936 0.2991
C21_3 C 0.488(2) 0.3153(14) 0.163(6)
H10_3 H 0.4691 0.3294 0.2514
O1_3 O 0.2500 0.6963(8) 0.166(6)
O3_3 O 0.3223(11) 0.6839(6) 0.497(5)
O4_2 O 0.6503(10) 0.2522(7) 0.273(5)
C22_3 C 0.630(3) 0.2618(10) 0.144(12)
C27_3 C 0.0388(18) 0.3158(8) 0.005(6)
C32_3 C 0.012(2) 0.3153(14) 0.163(6)
H15_3 H 0.0309 0.3294 0.2514
O8_3 O 0.1777(11) 0.6839(6) 0.497(5)
O10_2 O 0.3497(10) 0.7478(7) 0.273(5)
O11_2 O 0.1503(10) 0.7478(7) 0.273(5)
C5_3 C 0.2500(3) 0.5556(6) 0.999(4)
C6_3 C 0.2500(9) 0.5765(7) 0.851(4)
H3_3 H 0.2500 0.5631 0.7472
C7_3 C 0.2500(9) 0.6171(7) 0.854(4)
H4_3 H 0.2500 0.6314 0.7523
C8_3 C 0.2500 0.513(2) 0.99243(2)
C9_3 C 0.2500 0.4767(19) 0.987(4)
C10_3 C 0.2500 0.4352(16) 0.975(10)
C11_3 C 0.3075(17) 0.4162(10) 0.962(8)
H5_3 H 0.3453 0.4305 0.9729
C12_3 C 0.3091(13) 0.3759(9) 0.933(6)
C13_3 C 0.2500 0.3580(14) 0.932(8)
H6_3 H 0.2500 0.3303 0.9304
C14_3 C 0.3613(13) 0.3549(8) 0.951(7)
C15_3 C 0.4094(14) 0.3362(8) 0.978(7)
C17_3 C 0.489(2) 0.2951(12) 0.875(6)
H7_3 H 0.4706 0.2955 0.7674
C18_3 C 0.543(2) 0.2738(12) 0.904(8)
H8_3 H 0.5619 0.2597 0.8152
C23_3 C 0.1925(17) 0.4162(10) 0.962(8)
H11_3 H 0.1547 0.4305 0.9729
C24_3 C 0.1909(13) 0.3759(9) 0.933(6)
C25_3 C 0.1387(13) 0.3549(8) 0.951(7)
C26_3 C 0.0906(14) 0.3362(8) 0.978(7)
C28_3 C 0.011(2) 0.2951(12) 0.875(6)
H12_3 H 0.0294 0.2955 0.7674
C30_3 C 0.9302(19) 0.2733(11) 0.062(8)
C31_3 C 0.958(2) 0.2940(15) 0.191(7)
H14_3 H 0.9396 0.2936 0.2991
O6_2 O 0.8497(10) 0.2522(7) 0.273(5)
C33_3 C 0.870(3) 0.2618(10) 0.144(12)
C29_3 C 0.957(2) 0.2738(12) 0.904(8)
H13_3 H 0.9381 0.2597 0.8152
C30_4 C 0.0698(19) 0.7267(11) 0.062(8)
C31_4 C 0.042(2) 0.7060(15) 0.191(7)
H14_4 H 0.0604 0.7064 0.2991
C33_4 C 0.130(3) 0.7382(10) 0.144(12)
C29_4 C 0.043(2) 0.7262(12) 0.904(8)
H13_4 H 0.0619 0.7403 0.8152
C1_4 C 0.7500 0.3214(11) 0.019(7)
C2_4 C 0.7500 0.3632(6) 0.005(5)
C3_4 C 0.7500(10) 0.3841(9) 0.154(4)
H1_4 H 0.7500 0.3707 0.2574
C4_4 C 0.7500(10) 0.4247(9) 0.151(4)
H2_4 H 0.7500 0.4390 0.2523
C16_4 C 0.5388(18) 0.6842(8) 0.005(6)
C19_4 C 0.4302(19) 0.7267(11) 0.062(8)
C20_4 C 0.458(2) 0.7060(15) 0.191(7)
H9_4 H 0.4396 0.7064 0.2991
C21_4 C 0.512(2) 0.6847(14) 0.163(6)
H10_4 H 0.5309 0.6706 0.2514
O1_4 O 0.7500 0.3037(8) 0.166(6)
O3_4 O 0.6777(11) 0.3161(6) 0.497(5)
C22_4 C 0.370(3) 0.7382(10) 0.144(12)
C27_4 C 0.9612(18) 0.6842(8) 0.005(6)
C32_4 C 0.988(2) 0.6847(14) 0.163(6)
H15_4 H 0.9691 0.6706 0.2514
O8_4 O 0.8223(11) 0.3161(6) 0.497(5)
C5_4 C 0.7500(3) 0.4444(6) 0.999(4)
C6_4 C 0.7500(9) 0.4235(7) 0.851(4)
H3_4 H 0.7500 0.4369 0.7472
C7_4 C 0.7500(9) 0.3829(7) 0.854(4)
H4_4 H 0.7500 0.3686 0.7523
C8_4 C 0.7500 0.487(2) 0.99243(2)
C9_4 C 0.7500 0.5233(19) 0.987(4)
C10_4 C 0.7500 0.5648(16) 0.975(10)
C11_4 C 0.6925(17) 0.5838(10) 0.962(8)
H5_4 H 0.6547 0.5695 0.9729
C12_4 C 0.6909(13) 0.6241(9) 0.933(6)
C13_4 C 0.7500 0.6420(14) 0.932(8)
H6_4 H 0.7500 0.6697 0.9304
C14_4 C 0.6387(13) 0.6451(8) 0.951(7)
C15_4 C 0.5906(14) 0.6638(8) 0.978(7)
C17_4 C 0.511(2) 0.7049(12) 0.875(6)
H7_4 H 0.5294 0.7045 0.7674
C18_4 C 0.457(2) 0.7262(12) 0.904(8)
H8_4 H 0.4381 0.7403 0.8152
C23_4 C 0.8075(17) 0.5838(10) 0.962(8)
H11_4 H 0.8453 0.5695 0.9729
C24_4 C 0.8091(13) 0.6241(9) 0.933(6)
C25_4 C 0.8613(13) 0.6451(8) 0.951(7)
C26_4 C 0.9094(14) 0.6638(8) 0.978(7)
C28_4 C 0.989(2) 0.7049(12) 0.875(6)
H12_4 H 0.9706 0.7045 0.7674
loop_
_geom_bond_atom_site_label_1
_geom_bond_atom_site_label_2
_geom_bond_site_symmetry_1
_geom_bond_site_symmetry_2
H8 C18 1_555 1_555
C19 C18 1_555 1_555
C20 C19 1_555 1_555
H9 C20 1_555 1_555
O4 C22 1_555 1_555
O5 C22 1_555 1_555
C22 C19 1_555 1_555
Ho3 O4 1_555 1_555
Ho5 O5 1_555 1_555
C1 C2 1_555 1_555
C2 C3 1_555 1_555
C3 H1 1_555 1_555
C4 C3 1_555 1_555
H2 C4 1_555 1_555
C5 C4 1_555 1_555
C6 C5 1_555 1_555
H3 C6 1_555 1_555
C7 C2 1_555 1_555
H4 C7 1_555 1_555
C8 C5 1_555 1_555
O1 C1 1_555 1_555
O2 C1 1_555 1_555
O3 Ho1 1_555 1_555
Ho1 O1 1_555 1_555
O8 Ho1 1_555 1_555
O9 Ho1 1_555 1_555
Ho6 O2 1_555 1_555
O10 Ho1 1_555 1_555
O11 Ho1 1_555 1_555
C6 C7 1_555 1_555
O3 H16 1_555 1_555
C10 C9 1_555 1_555
C11 C10 1_555 1_555
H5 C11 1_555 1_555
C12 C11 1_555 1_555
C13 C12 1_555 1_555
H6 C13 1_555 1_555
C14 C12 1_555 1_555
C15 C14 1_555 1_555
C16 C15 1_555 1_555
C17 C16 1_555 1_555
H7 C17 1_555 1_555
C21 C16 1_555 1_555
H10 C21 1_555 1_555
C23 C10 1_555 1_555
H11 C23 1_555 1_555
C24 C13 1_555 1_555
C25 C24 1_555 1_555
C26 C25 1_555 1_555
C27 C26 1_555 1_555
C28 C27 1_555 1_555
H12 C28 1_555 1_555
C29 C28 1_555 1_555
H13 C29 1_555 1_555
C30 C29 1_555 1_555
C31 C30 1_555 1_555
H14 C31 1_555 1_555
C32 C27 1_555 1_555
H15 C32 1_555 1_555
O6 C33 1_555 1_555
O7 C33 1_555 1_555
C33 C30 1_555 1_555
Ho3 O6 1_555 1_555
Ho5 O7 1_555 1_555
C23 C24 1_555 1_555
C31 C32 1_555 1_555
C10_2 C9_2 1_555 1_555
C11_2 C10_2 1_555 1_555
H5_2 C11_2 1_555 1_555
C12_2 C11_2 1_555 1_555
C13_2 C12_2 1_555 1_555
H6_2 C13_2 1_555 1_555
C14_2 C12_2 1_555 1_555
C15_2 C14_2 1_555 1_555
C16_2 C15_2 1_555 1_555
C17_2 C16_2 1_555 1_555
H7_2 C17_2 1_555 1_555
C21_2 C16_2 1_555 1_555
H10_2 C21_2 1_555 1_555
C23_2 C10_2 1_555 1_555
H11_2 C23_2 1_555 1_555
C24_2 C13_2 1_555 1_555
C25_2 C24_2 1_555 1_555
C26_2 C25_2 1_555 1_555
C27_2 C26_2 1_555 1_555
C28_2 C27_2 1_555 1_555
H12_2 C28_2 1_555 1_555
C29_2 C28_2 1_555 1_555
H13_2 C29_2 1_555 1_555
C30_2 C29_2 1_555 1_555
C31_2 C30_2 1_555 1_555
H14_2 C31_2 1_555 1_555
C32_2 C27_2 1_555 1_555
H15_2 C32_2 1_555 1_555
O11 C33_2 1_555 1_555
O7_2 C33_2 1_555 1_555
C33_2 C30_2 1_555 1_555
Ho6 O7_2 1_555 1_555
C23_2 C24_2 1_555 1_555
C31_2 C32_2 1_555 1_555
C1_2 C2_2 1_555 1_555
C2_2 C3_2 1_555 1_555
C3_2 H1_2 1_555 1_555
C4_2 C3_2 1_555 1_555
H2_2 C4_2 1_555 1_555
C5_2 C4_2 1_555 1_555
C6_2 C5_2 1_555 1_555
H3_2 C6_2 1_555 1_555
C7_2 C2_2 1_555 1_555
H4_2 C7_2 1_555 1_555
C8_2 C5_2 1_555 1_555
O1_2 C1_2 1_555 1_555
O2_2 C1_2 1_555 1_555
O3_2 Ho3 1_555 1_555
Ho3 O1_2 1_555 1_555
O8_2 Ho3 1_555 1_555
O9_2 Ho3 1_555 1_555
Ho5 O2_2 1_555 1_555
C6_2 C7_2 1_555 1_555
O3_2 H16_2 1_555 1_555
H8_2 C18_2 1_555 1_555
C19_2 C18_2 1_555 1_555
C20_2 C19_2 1_555 1_555
H9_2 C20_2 1_555 1_555
O10 C22_2 1_555 1_555
O5_2 C22_2 1_555 1_555
C22_2 C19_2 1_555 1_555
Ho6 O5_2 1_555 1_555
O8 H16_3 1_555 1_555
O8_2 H16_4 1_555 1_555
C1_3 C2_3 1_555 1_555
C2_3 C3_3 1_555 1_555
C3_3 H1_3 1_555 1_555
C4_3 C3_3 1_555 1_555
H2_3 C4_3 1_555 1_555
C20_3 C19_3 1_555 1_555
H9_3 C20_3 1_555 1_555
C21_3 C16_3 1_555 1_555
H10_3 C21_3 1_555 1_555
O1_3 C1_3 1_555 1_555
O3_3 Ho5 1_555 1_555
Ho5 O1_3 1_555 1_555
O4_2 C22_3 1_555 1_555
O12 C22_3 1_555 1_555
C22_3 C19_3 1_555 1_555
C32_3 C27_3 1_555 1_555
H15_3 C32_3 1_555 1_555
O8_3 Ho5 1_555 1_555
Ho6 O4_2 1_555 1_555
O10_2 Ho5 1_555 1_555
O11_2 Ho5 1_555 1_555
C20_3 C21_3 1_555 1_555
C6_3 C5_3 1_555 1_555
H3_3 C6_3 1_555 1_555
H4_3 C7_3 1_555 1_555
C8_3 C5_3 1_555 1_555
C9_3 C8_3 1_555 1_555
C10_3 C9_3 1_555 1_555
C11_3 C10_3 1_555 1_555
H5_3 C11_3 1_555 1_555
C12_3 C11_3 1_555 1_555
C13_3 C12_3 1_555 1_555
H6_3 C13_3 1_555 1_555
C14_3 C12_3 1_555 1_555
C15_3 C14_3 1_555 1_555
H7_3 C17_3 1_555 1_555
C18_3 C17_3 1_555 1_555
H8_3 C18_3 1_555 1_555
C23_3 C10_3 1_555 1_555
H11_3 C23_3 1_555 1_555
C24_3 C13_3 1_555 1_555
C25_3 C24_3 1_555 1_555
C26_3 C25_3 1_555 1_555
H12_3 C28_3 1_555 1_555
C6_3 C7_3 1_555 1_555
C23_3 C24_3 1_555 1_555
C31_3 C30_3 1_555 1_555
H14_3 C31_3 1_555 1_555
O6_2 C33_3 1_555 1_555
O13 C33_3 1_555 1_555
C33_3 C30_3 1_555 1_555
Ho6 O6_2 1_555 1_555
H13_3 C29_3 1_555 1_555
C31_4 C30_4 1_555 1_555
H14_4 C31_4 1_555 1_555
O11_2 C33_4 1_555 1_555
O13_2 C33_4 1_555 1_555
C33_4 C30_4 1_555 1_555
H13_4 C29_4 1_555 1_555
C1_4 C2_4 1_555 1_555
C2_4 C3_4 1_555 1_555
C3_4 H1_4 1_555 1_555
C4_4 C3_4 1_555 1_555
H2_4 C4_4 1_555 1_555
C20_4 C19_4 1_555 1_555
H9_4 C20_4 1_555 1_555
C21_4 C16_4 1_555 1_555
H10_4 C21_4 1_555 1_555
O1_4 C1_4 1_555 1_555
O3_4 Ho6 1_555 1_555
Ho6 O1_4 1_555 1_555
O10_2 C22_4 1_555 1_555
O12_2 C22_4 1_555 1_555
C22_4 C19_4 1_555 1_555
C32_4 C27_4 1_555 1_555
H15_4 C32_4 1_555 1_555
O8_4 Ho6 1_555 1_555
C20_4 C21_4 1_555 1_555
C6_4 C5_4 1_555 1_555
H3_4 C6_4 1_555 1_555
H4_4 C7_4 1_555 1_555
C8_4 C5_4 1_555 1_555
C9_4 C8_4 1_555 1_555
C10_4 C9_4 1_555 1_555
C11_4 C10_4 1_555 1_555
H5_4 C11_4 1_555 1_555
C12_4 C11_4 1_555 1_555
C13_4 C12_4 1_555 1_555
H6_4 C13_4 1_555 1_555
C14_4 C12_4 1_555 1_555
C15_4 C14_4 1_555 1_555
H7_4 C17_4 1_555 1_555
C18_4 C17_4 1_555 1_555
H8_4 C18_4 1_555 1_555
C23_4 C10_4 1_555 1_555
H11_4 C23_4 1_555 1_555
C24_4 C13_4 1_555 1_555
C25_4 C24_4 1_555 1_555
C26_4 C25_4 1_555 1_555
H12_4 C28_4 1_555 1_555
C6_4 C7_4 1_555 1_555
C23_4 C24_4 1_555 1_555

#END
