
###############################################################################
#
# This file contains modified crystal structure data generated from the
# MOF subset of the Cambridge Structural Database (CSD) v543 
# hosted by the Cambridge Crystallographic Data Centre (CCDC).
#
# This work is licensed under the Creative Commons
# Attribution-NonCommercial-ShareAlike 4.0 International License.
# To view a copy of this license, visit
# http://creativecommons.org/licenses/by-nc-sa/4.0/
# or send a letter to
# Creative Commons, PO Box 1866, Mountain View, CA 94042, USA.
#
# CIF created using the CSD Python API on 29 September 2022
# The structure has been converted into the P1 space group
# The structure has a 3D framework
# The original CSD entry AHETAK is in the tetragonal crystal system
# The framework has been calculated to contain at least 10.0% void space
# The void calculation uses a probe of radius 1.32A, grid spacing 0.4
#
###############################################################################

data_AHETAK
_chemical_formula_moiety         '(C112 H64 Co24 N96 O41)n'
_symmetry_cell_setting           triclinic
_symmetry_space_group_name_H-M   'P 1'
_symmetry_Int_Tables_number      1
_space_group_name_Hall           'P 1'
loop_
_symmetry_equiv_pos_site_id
_symmetry_equiv_pos_as_xyz
1 x,y,z
_cell_length_a                   17.4654(18)
_cell_length_b                   17.4654(18)
_cell_length_c                   19.854(3)
_cell_angle_alpha                90
_cell_angle_beta                 90
_cell_angle_gamma                90
_cell_volume                     6056.27
loop_
_atom_site_label
_atom_site_type_symbol
_atom_site_fract_x
_atom_site_fract_y
_atom_site_fract_z
Co14 Co 0.0000 0.09498(9) 0.55146(10)
Co18 Co 0.0000 0.90502(9) 0.55146(10)
Co16 Co 0.09498(9) -0.0000 0.44854(10)
Co20 Co 0.90502(9) -0.0000 0.44854(10)
Co1 Co 0.58923(6) 0.58923(6) 0.5000
Co2 Co 0.5000 0.59498(9) 0.05146(10)
O1 O 0.5654(4) 0.6102(4) 0.3999(3)
O2 O 0.9063(4) 0.8373(4) 0.5378(4)
O3 O 0.5000 0.5000 0.5000
N1 N 0.5000 0.6132(7) 0.1566(5)
N2 N 0.6749(4) 0.6749(4) 0.5000
N3 N 0.5000 0.6639(7) 0.5311(6)
N4 N 0.5000 0.6948(15) 0.5869(13)
N5 N 0.5000 0.7278(17) 0.6371(11)
C1 C 0.5646(6) 0.6146(7) 0.1910(5)
H1 H 0.6108 0.6160 0.1677
C2 C 0.5656(6) 0.6140(9) 0.2595(5)
H2 H 0.6126 0.6136 0.2816
C3 C 0.5000 0.6139(8) 0.2971(6)
C4 C 0.5000 0.6127(8) 0.3701(6)
C5 C 0.7323(10) 0.6744(10) 0.5420(9)
H3 H 0.7330 0.6355 0.5740
C6 C 0.7922(9) 0.7260(9) 0.5437(8)
H4 H 0.8335 0.7198 0.5728
C7 C 0.7873(5) 0.7873(5) 0.5000
C8 C 0.8486(5) 0.8486(5) 0.5000
O4 O 0.4346(4) 0.6102(4) 0.3999(3)
C9 C 0.4354(6) 0.6146(7) 0.1910(5)
H5 H 0.3892 0.6160 0.1677
C10 C 0.4344(6) 0.6140(9) 0.2595(5)
H6 H 0.3874 0.6136 0.2816
O5 O 0.8373(4) 0.9063(4) 0.4622(4)
C11 C 0.6744(10) 0.7323(10) 0.4580(9)
H7 H 0.6355 0.7330 0.4260
C12 C 0.7260(9) 0.7922(9) 0.4563(8)
H8 H 0.7198 0.8335 0.4272
N10 N 0.5806(5) 0.5000 0.0559(5)
N11 N 0.7004(9) 0.5000 0.1177(9)
N12 N 0.6389(10) 0.5000 0.0890(11)
Co4 Co 0.41077(6) 0.41077(6) 0.5000
Co5 Co 0.5000 0.40502(9) 0.05146(10)
O8 O 0.4346(4) 0.3898(4) 0.3999(3)
O9 O 0.0937(4) 0.1627(4) 0.5378(4)
N13 N 0.5000 0.3868(7) 0.1566(5)
N14 N 0.3251(4) 0.3251(4) 0.5000
N15 N 0.5000 0.3361(7) 0.5311(6)
N16 N 0.5000 0.3052(15) 0.5869(13)
N17 N 0.5000 0.2722(17) 0.6371(11)
C19 C 0.4354(6) 0.3854(7) 0.1910(5)
H13 H 0.3892 0.3840 0.1677
C20 C 0.4344(6) 0.3860(9) 0.2595(5)
H14 H 0.3874 0.3864 0.2816
C21 C 0.5000 0.3861(8) 0.2971(6)
C22 C 0.5000 0.3873(8) 0.3701(6)
C23 C 0.2677(10) 0.3256(10) 0.5420(9)
H15 H 0.2670 0.3645 0.5740
C24 C 0.2078(9) 0.2740(9) 0.5437(8)
H16 H 0.1665 0.2802 0.5728
C25 C 0.2127(5) 0.2127(5) 0.5000
C26 C 0.1514(5) 0.1514(5) 0.5000
O10 O 0.5654(4) 0.3898(4) 0.3999(3)
C27 C 0.5646(6) 0.3854(7) 0.1910(5)
H17 H 0.6108 0.3840 0.1677
C28 C 0.5656(6) 0.3860(9) 0.2595(5)
H18 H 0.6126 0.3864 0.2816
O11 O 0.1627(4) 0.0937(4) 0.4622(4)
C29 C 0.3256(10) 0.2677(10) 0.4580(9)
H19 H 0.3645 0.2670 0.4260
C30 C 0.2740(9) 0.2078(9) 0.4563(8)
H20 H 0.2802 0.1665 0.4272
N22 N 0.4194(5) 0.5000 0.0559(5)
N23 N 0.2996(9) 0.5000 0.1177(9)
N24 N 0.3611(10) 0.5000 0.0890(11)
Co7 Co 0.41077(6) 0.58923(6) 0.5000
O14 O 0.0937(4) 0.8373(4) 0.5378(4)
N25 N 0.3251(4) 0.6749(4) 0.5000
C37 C 0.2677(10) 0.6744(10) 0.5420(9)
H25 H 0.2670 0.6355 0.5740
C38 C 0.2078(9) 0.7260(9) 0.5437(8)
H26 H 0.1665 0.7198 0.5728
C39 C 0.2127(5) 0.7873(5) 0.5000
C40 C 0.1514(5) 0.8486(5) 0.5000
O15 O 0.1627(4) 0.9063(4) 0.4622(4)
C41 C 0.3256(10) 0.7323(10) 0.4580(9)
H27 H 0.3645 0.7330 0.4260
C42 C 0.2740(9) 0.7922(9) 0.4563(8)
H28 H 0.2802 0.8335 0.4272
Co8 Co 0.58923(6) 0.41077(6) 0.5000
O16 O 0.9063(4) 0.1627(4) 0.5378(4)
N26 N 0.6749(4) 0.3251(4) 0.5000
C43 C 0.7323(10) 0.3256(10) 0.5420(9)
H29 H 0.7330 0.3645 0.5740
C44 C 0.7922(9) 0.2740(9) 0.5437(8)
H30 H 0.8335 0.2802 0.5728
C45 C 0.7873(5) 0.2127(5) 0.5000
C46 C 0.8486(5) 0.1514(5) 0.5000
O17 O 0.8373(4) 0.0937(4) 0.4622(4)
C47 C 0.6744(10) 0.2677(10) 0.4580(9)
H31 H 0.6355 0.2670 0.4260
C48 C 0.7260(9) 0.2078(9) 0.4563(8)
H32 H 0.7198 0.1665 0.4272
N27 N 0.6639(7) 0.5000 0.4689(6)
N28 N 0.6948(15) 0.5000 0.4131(13)
N29 N 0.7278(17) 0.5000 0.3629(11)
N30 N 0.3361(7) 0.5000 0.4689(6)
N31 N 0.3052(15) 0.5000 0.4131(13)
N32 N 0.2722(17) 0.5000 0.3629(11)
Co14_2 Co 1.0000 0.09498(9) 0.55146(10)
Co16_2 Co 0.09498(9) 1.0000 0.44854(10)
Co18_2 Co 1.0000 0.90502(9) 0.55146(10)
Co20_2 Co 0.90502(9) 1.0000 0.44854(10)
O18 O 0.6102(4) 0.4346(4) 0.6001(3)
O19 O 0.3898(4) 0.5654(4) 0.6001(3)
O20 O 0.6102(4) 0.5654(4) 0.6001(3)
O21 O 0.3898(4) 0.4346(4) 0.6001(3)
O22 O 0.4063(4) 0.3373(4) 0.0378(4)
O24 O 0.5937(4) 0.6627(4) 0.0378(4)
O26 O 0.5937(4) 0.3373(4) 0.0378(4)
O28 O 0.4063(4) 0.6627(4) 0.0378(4)
N6 N 0.5000 0.5806(5) 0.9441(5)
N7 N 0.5000 0.7004(9) 0.8823(9)
N8 N 0.5000 0.6389(10) 0.9110(11)
Co3 Co 0.59498(9) 0.5000 0.94854(10)
N9 N 0.6132(7) 0.5000 0.8434(5)
C13 C 0.6146(7) 0.4354(6) 0.8090(5)
H9 H 0.6160 0.3892 0.8323
C14 C 0.6140(9) 0.4344(6) 0.7405(5)
H10 H 0.6136 0.3874 0.7184
C15 C 0.6139(8) 0.5000 0.7029(6)
C16 C 0.6127(8) 0.5000 0.6299(6)
C17 C 0.6146(7) 0.5646(6) 0.8090(5)
H11 H 0.6160 0.6108 0.8323
C18 C 0.6140(9) 0.5656(6) 0.7405(5)
H12 H 0.6136 0.6126 0.7184
N18 N 0.5000 0.4194(5) 0.9441(5)
N19 N 0.5000 0.2996(9) 0.8823(9)
N20 N 0.5000 0.3611(10) 0.9110(11)
Co6 Co 0.40502(9) 0.5000 0.94854(10)
N21 N 0.3868(7) 0.5000 0.8434(5)
C31 C 0.3854(7) 0.5646(6) 0.8090(5)
H21 H 0.3840 0.6108 0.8323
C32 C 0.3860(9) 0.5656(6) 0.7405(5)
H22 H 0.3864 0.6126 0.7184
C33 C 0.3861(8) 0.5000 0.7029(6)
C34 C 0.3873(8) 0.5000 0.6299(6)
C35 C 0.3854(7) 0.4354(6) 0.8090(5)
H23 H 0.3840 0.3892 0.8323
C36 C 0.3860(9) 0.4344(6) 0.7405(5)
H24 H 0.3864 0.3874 0.7184
O23 O 0.3373(4) 0.5937(4) 0.9622(4)
O25 O 0.6627(4) 0.4063(4) 0.9622(4)
O27 O 0.3373(4) 0.4063(4) 0.9622(4)
O29 O 0.6627(4) 0.5937(4) 0.9622(4)
Co1_2 Co 0.08923(6) 0.08923(6) 0.0000
O3_2 O 0.0000 0.0000 0.0000
N2_2 N 0.1749(4) 0.1749(4) 0.0000
N3_2 N 0.0000 0.1639(7) 0.0311(6)
N4_2 N 0.0000 0.1948(15) 0.0869(13)
N5_2 N 0.0000 0.2278(17) 0.1371(11)
C5_2 C 0.2323(10) 0.1744(10) 0.0420(9)
H3_2 H 0.2330 0.1355 0.0740
C6_2 C 0.2922(9) 0.2260(9) 0.0437(8)
H4_2 H 0.3335 0.2198 0.0728
C7_2 C 0.2873(5) 0.2873(5) 0.0000
C8_2 C 0.3486(5) 0.3486(5) 0.0000
O20_2 O 0.1102(4) 0.0654(4) 0.1001(3)
Co1_3 Co 0.08923(6) 0.08923(6) 1.0000
O1_2 O 0.0654(4) 0.1102(4) 0.8999(3)
O3_3 O 0.0000 0.0000 1.0000
N1_2 N 0.0000 0.1132(7) 0.6566(5)
N2_3 N 0.1749(4) 0.1749(4) 1.0000
C1_2 C 0.0646(6) 0.1146(7) 0.6910(5)
H1_2 H 0.1108 0.1160 0.6677
C2_2 C 0.0656(6) 0.1140(9) 0.7595(5)
H2_2 H 0.1126 0.1136 0.7816
C3_2 C 0.0000 0.1139(8) 0.7971(6)
C4_2 C 0.0000 0.1127(8) 0.8701(6)
C7_3 C 0.2873(5) 0.2873(5) 1.0000
C8_3 C 0.3486(5) 0.3486(5) 1.0000
N6_2 N -0.0000 0.0806(5) 0.4441(5)
N7_2 N 0.0000 0.2004(9) 0.3823(9)
N8_2 N 0.0000 0.1389(10) 0.4110(11)
C11_2 C 0.1744(10) 0.2323(10) 0.9580(9)
H7_2 H 0.1355 0.2330 0.9260
C12_2 C 0.2260(9) 0.2922(9) 0.9563(8)
H8_2 H 0.2198 0.3335 0.9272
N9_2 N 0.1132(7) 0.0000 0.3434(5)
C15_2 C 0.1139(8) -0.0000 0.2029(6)
C16_2 C 0.1127(8) -0.0000 0.1299(6)
N10_2 N 0.0806(5) 0.0000 0.5559(5)
N11_2 N 0.2004(9) 0.0000 0.6177(9)
N12_2 N 0.1389(10) 0.0000 0.5890(11)
C17_2 C 0.1146(7) 0.0646(6) 0.3090(5)
H11_2 H 0.1160 0.1108 0.3323
C18_2 C 0.1140(9) 0.0656(6) 0.2405(5)
H12_2 H 0.1136 0.1126 0.2184
N27_2 N 0.1639(7) 0.0000 0.9689(6)
N28_2 N 0.1948(15) 0.0000 0.9131(13)
N29_2 N 0.2278(17) 0.0000 0.8629(11)
O3_4 O 0.0000 1.0000 0.0000
N15_2 N -0.0000 0.8361(7) 0.0311(6)
N16_2 N 0.0000 0.8052(15) 0.0869(13)
N17_2 N -0.0000 0.7722(17) 0.1371(11)
Co8_2 Co 0.08923(6) 0.91077(6) 0.0000
N26_2 N 0.1749(4) 0.8251(4) 0.0000
C43_2 C 0.2323(10) 0.8256(10) 0.0420(9)
H29_2 H 0.2330 0.8645 0.0740
C44_2 C 0.2922(9) 0.7740(9) 0.0437(8)
H30_2 H 0.3335 0.7802 0.0728
C45_2 C 0.2873(5) 0.7127(5) 0.0000
C46_2 C 0.3486(5) 0.6514(5) 0.0000
O18_2 O 0.1102(4) 0.9346(4) 0.1001(3)
O3_5 O 0.0000 1.0000 1.0000
N9_3 N 0.1132(7) 1.0000 0.3434(5)
C13_2 C 0.1146(7) 0.9354(6) 0.3090(5)
H9_2 H 0.1160 0.8892 0.3323
C14_2 C 0.1140(9) 0.9344(6) 0.2405(5)
H10_2 H 0.1136 0.8874 0.2184
C15_3 C 0.1139(8) 1.0000 0.2029(6)
C16_3 C 0.1127(8) 1.0000 0.1299(6)
N10_3 N 0.0806(5) 1.0000 0.5559(5)
N11_3 N 0.2004(9) 1.0000 0.6177(9)
N12_3 N 0.1389(10) 1.0000 0.5890(11)
N13_2 N 0.0000 0.8868(7) 0.6566(5)
C21_2 C -0.0000 0.8861(8) 0.7971(6)
C22_2 C 0.0000 0.8873(8) 0.8701(6)
N18_2 N -0.0000 0.9194(5) 0.4441(5)
N19_2 N 0.0000 0.7996(9) 0.3823(9)
N20_2 N 0.0000 0.8611(10) 0.4110(11)
O10_2 O 0.0654(4) 0.8898(4) 0.8999(3)
C27_2 C 0.0646(6) 0.8854(7) 0.6910(5)
H17_2 H 0.1108 0.8840 0.6677
C28_2 C 0.0656(6) 0.8860(9) 0.7595(5)
H18_2 H 0.1126 0.8864 0.7816
Co8_3 Co 0.08923(6) 0.91077(6) 1.0000
N26_3 N 0.1749(4) 0.8251(4) 1.0000
C45_3 C 0.2873(5) 0.7127(5) 1.0000
C46_3 C 0.3486(5) 0.6514(5) 1.0000
C47_2 C 0.1744(10) 0.7677(10) 0.9580(9)
H31_2 H 0.1355 0.7670 0.9260
C48_2 C 0.2260(9) 0.7078(9) 0.9563(8)
H32_2 H 0.2198 0.6665 0.9272
N27_3 N 0.1639(7) 1.0000 0.9689(6)
N28_3 N 0.1948(15) 1.0000 0.9131(13)
N29_3 N 0.2278(17) 1.0000 0.8629(11)
O3_6 O 1.0000 0.0000 0.0000
N3_3 N 1.0000 0.1639(7) 0.0311(6)
N4_3 N 1.0000 0.1948(15) 0.0869(13)
N5_3 N 1.0000 0.2278(17) 0.1371(11)
Co7_2 Co 0.91077(6) 0.08923(6) 0.0000
N25_2 N 0.8251(4) 0.1749(4) 0.0000
C37_2 C 0.7677(10) 0.1744(10) 0.0420(9)
H25_2 H 0.7670 0.1355 0.0740
C38_2 C 0.7078(9) 0.2260(9) 0.0437(8)
H26_2 H 0.6665 0.2198 0.0728
C39_2 C 0.7127(5) 0.2873(5) 0.0000
C40_2 C 0.6514(5) 0.3486(5) 0.0000
O19_2 O 0.8898(4) 0.0654(4) 0.1001(3)
O3_7 O 1.0000 0.0000 1.0000
N1_3 N 1.0000 0.1132(7) 0.6566(5)
C3_3 C 1.0000 0.1139(8) 0.7971(6)
C4_3 C 1.0000 0.1127(8) 0.8701(6)
N6_3 N 1.0000 0.0806(5) 0.4441(5)
N7_3 N 1.0000 0.2004(9) 0.3823(9)
N8_3 N 1.0000 0.1389(10) 0.4110(11)
O4_2 O 0.9346(4) 0.1102(4) 0.8999(3)
C9_2 C 0.9354(6) 0.1146(7) 0.6910(5)
H5_2 H 0.8892 0.1160 0.6677
C10_2 C 0.9344(6) 0.1140(9) 0.7595(5)
H6_2 H 0.8874 0.1136 0.7816
N21_2 N 0.8868(7) 0.0000 0.3434(5)
C31_2 C 0.8854(7) 0.0646(6) 0.3090(5)
H21_2 H 0.8840 0.1108 0.3323
C32_2 C 0.8860(9) 0.0656(6) 0.2405(5)
H22_2 H 0.8864 0.1126 0.2184
C33_2 C 0.8861(8) -0.0000 0.2029(6)
C34_2 C 0.8873(8) -0.0000 0.1299(6)
N22_2 N 0.9194(5) 0.0000 0.5559(5)
N23_2 N 0.7996(9) 0.0000 0.6177(9)
N24_2 N 0.8611(10) 0.0000 0.5890(11)
Co7_3 Co 0.91077(6) 0.08923(6) 1.0000
N25_3 N 0.8251(4) 0.1749(4) 1.0000
C39_3 C 0.7127(5) 0.2873(5) 1.0000
C40_3 C 0.6514(5) 0.3486(5) 1.0000
C41_2 C 0.8256(10) 0.2323(10) 0.9580(9)
H27_2 H 0.8645 0.2330 0.9260
C42_2 C 0.7740(9) 0.2922(9) 0.9563(8)
H28_2 H 0.7802 0.3335 0.9272
N30_2 N 0.8361(7) 0.0000 0.9689(6)
N31_2 N 0.8052(15) 0.0000 0.9131(13)
N32_2 N 0.7722(17) 0.0000 0.8629(11)
O3_8 O 1.0000 1.0000 0.0000
Co4_2 Co 0.91077(6) 0.91077(6) 0.0000
N14_2 N 0.8251(4) 0.8251(4) 0.0000
N15_3 N 1.0000 0.8361(7) 0.0311(6)
N16_3 N 1.0000 0.8052(15) 0.0869(13)
N17_3 N 1.0000 0.7722(17) 0.1371(11)
C23_2 C 0.7677(10) 0.8256(10) 0.0420(9)
H15_2 H 0.7670 0.8645 0.0740
C24_2 C 0.7078(9) 0.7740(9) 0.0437(8)
H16_2 H 0.6665 0.7802 0.0728
C25_2 C 0.7127(5) 0.7127(5) 0.0000
C26_2 C 0.6514(5) 0.6514(5) 0.0000
O21_2 O 0.8898(4) 0.9346(4) 0.1001(3)
O3_9 O 1.0000 1.0000 1.0000
Co4_3 Co 0.91077(6) 0.91077(6) 1.0000
O8_2 O 0.9346(4) 0.8898(4) 0.8999(3)
N13_3 N 1.0000 0.8868(7) 0.6566(5)
N14_3 N 0.8251(4) 0.8251(4) 1.0000
C19_2 C 0.9354(6) 0.8854(7) 0.6910(5)
H13_2 H 0.8892 0.8840 0.6677
C20_2 C 0.9344(6) 0.8860(9) 0.7595(5)
H14_2 H 0.8874 0.8864 0.7816
C21_3 C 1.0000 0.8861(8) 0.7971(6)
C22_3 C 1.0000 0.8873(8) 0.8701(6)
C25_3 C 0.7127(5) 0.7127(5) 1.0000
C26_3 C 0.6514(5) 0.6514(5) 1.0000
N18_3 N 1.0000 0.9194(5) 0.4441(5)
N19_3 N 1.0000 0.7996(9) 0.3823(9)
N20_3 N 1.0000 0.8611(10) 0.4110(11)
C29_2 C 0.8256(10) 0.7677(10) 0.9580(9)
H19_2 H 0.8645 0.7670 0.9260
C30_2 C 0.7740(9) 0.7078(9) 0.9563(8)
H20_2 H 0.7802 0.6665 0.9272
N21_3 N 0.8868(7) 1.0000 0.3434(5)
C33_3 C 0.8861(8) 1.0000 0.2029(6)
C34_3 C 0.8873(8) 1.0000 0.1299(6)
N22_3 N 0.9194(5) 1.0000 0.5559(5)
N23_3 N 0.7996(9) 1.0000 0.6177(9)
N24_3 N 0.8611(10) 1.0000 0.5890(11)
C35_2 C 0.8854(7) 0.9354(6) 0.3090(5)
H23_2 H 0.8840 0.8892 0.3323
C36_2 C 0.8860(9) 0.9344(6) 0.2405(5)
H24_2 H 0.8864 0.8874 0.2184
N30_3 N 0.8361(7) 1.0000 0.9689(6)
N31_3 N 0.8052(15) 1.0000 0.9131(13)
N32_3 N 0.7722(17) 1.0000 0.8629(11)
loop_
_geom_bond_atom_site_label_1
_geom_bond_atom_site_label_2
_geom_bond_site_symmetry_1
_geom_bond_site_symmetry_2
Co1 O1 1_555 1_555
Co2 N1 1_555 1_555
O1 C4 1_555 1_555
O2 C8 1_555 1_555
O3 Co1 1_555 1_555
N1 C1 1_555 1_555
N2 Co1 1_555 1_555
N3 Co1 1_555 1_555
N4 N3 1_555 1_555
N5 N4 1_555 1_555
C1 H1 1_555 1_555
C2 C1 1_555 1_555
H2 C2 1_555 1_555
C3 C2 1_555 1_555
C4 C3 1_555 1_555
C5 N2 1_555 1_555
H3 C5 1_555 1_555
C6 C5 1_555 1_555
H4 C6 1_555 1_555
C7 C6 1_555 1_555
C8 C7 1_555 1_555
O4 C4 1_555 1_555
C9 N1 1_555 1_555
H5 C9 1_555 1_555
C10 C3 1_555 1_555
H6 C10 1_555 1_555
O5 C8 1_555 1_555
C11 N2 1_555 1_555
H7 C11 1_555 1_555
C12 C7 1_555 1_555
H8 C12 1_555 1_555
N10 Co2 1_555 1_555
N11 N12 1_555 1_555
N12 N10 1_555 1_555
Co4 O3 1_555 1_555
Co5 N10 1_555 1_555
O8 Co4 1_555 1_555
O9 C26 1_555 1_555
N13 Co5 1_555 1_555
N14 Co4 1_555 1_555
N15 Co4 1_555 1_555
N16 N15 1_555 1_555
N17 N16 1_555 1_555
C19 N13 1_555 1_555
H13 C19 1_555 1_555
C20 C19 1_555 1_555
H14 C20 1_555 1_555
C21 C20 1_555 1_555
C22 O8 1_555 1_555
C23 N14 1_555 1_555
H15 C23 1_555 1_555
C24 C23 1_555 1_555
H16 C24 1_555 1_555
C25 C24 1_555 1_555
C26 C25 1_555 1_555
O10 C22 1_555 1_555
C27 N13 1_555 1_555
H17 C27 1_555 1_555
C28 C21 1_555 1_555
H18 C28 1_555 1_555
O11 C26 1_555 1_555
C29 N14 1_555 1_555
H19 C29 1_555 1_555
C30 C25 1_555 1_555
H20 C30 1_555 1_555
N22 Co2 1_555 1_555
N23 N24 1_555 1_555
N24 N22 1_555 1_555
Co7 O3 1_555 1_555
O14 C40 1_555 1_555
N25 Co7 1_555 1_555
C37 N25 1_555 1_555
H25 C37 1_555 1_555
C38 C37 1_555 1_555
H26 C38 1_555 1_555
C39 C38 1_555 1_555
C40 C39 1_555 1_555
O15 C40 1_555 1_555
C41 N25 1_555 1_555
H27 C41 1_555 1_555
C42 C39 1_555 1_555
H28 C42 1_555 1_555
Co8 O3 1_555 1_555
O16 C46 1_555 1_555
N26 Co8 1_555 1_555
C43 N26 1_555 1_555
H29 C43 1_555 1_555
C44 C43 1_555 1_555
H30 C44 1_555 1_555
C45 C44 1_555 1_555
C46 C45 1_555 1_555
O17 C46 1_555 1_555
C47 N26 1_555 1_555
H31 C47 1_555 1_555
C48 C45 1_555 1_555
H32 C48 1_555 1_555
N27 Co1 1_555 1_555
N28 N27 1_555 1_555
N29 N28 1_555 1_555
N30 Co4 1_555 1_555
N31 N30 1_555 1_555
N32 N31 1_555 1_555
Co14 O9 1_555 1_555
Co14_2 O16 1_555 1_555
Co16 O11 1_555 1_555
Co16_2 O15 1_555 1_555
Co18 O14 1_555 1_555
Co18_2 O2 1_555 1_555
Co20 O17 1_555 1_555
Co20_2 O5 1_555 1_555
O18 Co8 1_555 1_555
O19 Co7 1_555 1_555
O20 Co1 1_555 1_555
O21 Co4 1_555 1_555
O22 Co5 1_555 1_555
O24 Co2 1_555 1_555
O26 Co5 1_555 1_555
O28 Co2 1_555 1_555
N3 Co7 1_555 1_555
O4 Co7 1_555 1_555
C9 C10 1_555 1_555
C11 C12 1_555 1_555
Co5 N22 1_555 1_555
N15 Co8 1_555 1_555
C21 C22 1_555 1_555
O10 Co8 1_555 1_555
C27 C28 1_555 1_555
C29 C30 1_555 1_555
Co7 N30 1_555 1_555
C41 C42 1_555 1_555
Co8 N27 1_555 1_555
C47 C48 1_555 1_555
N7 N8 1_555 1_555
N8 N6 1_555 1_555
Co3 N6 1_555 1_555
O18 C16 1_555 1_555
N9 Co3 1_555 1_555
C13 N9 1_555 1_555
H9 C13 1_555 1_555
C14 C13 1_555 1_555
H10 C14 1_555 1_555
C15 C14 1_555 1_555
C16 C15 1_555 1_555
O20 C16 1_555 1_555
C17 N9 1_555 1_555
H11 C17 1_555 1_555
C18 C15 1_555 1_555
H12 C18 1_555 1_555
N18 Co3 1_555 1_555
N19 N20 1_555 1_555
N20 N18 1_555 1_555
Co6 N6 1_555 1_555
O19 C34 1_555 1_555
N21 Co6 1_555 1_555
C31 N21 1_555 1_555
H21 C31 1_555 1_555
C32 C31 1_555 1_555
H22 C32 1_555 1_555
C33 C32 1_555 1_555
C34 C33 1_555 1_555
O21 C34 1_555 1_555
C35 N21 1_555 1_555
H23 C35 1_555 1_555
C36 C33 1_555 1_555
H24 C36 1_555 1_555
O23 Co6 1_555 1_555
O25 Co3 1_555 1_555
O27 Co6 1_555 1_555
O29 Co3 1_555 1_555
C17 C18 1_555 1_555
N18 Co6 1_555 1_555
C35 C36 1_555 1_555
O22 C8_2 1_555 1_555
O3_2 Co1_2 1_555 1_555
N2_2 Co1_2 1_555 1_555
N3_2 Co1_2 1_555 1_555
N4_2 N3_2 1_555 1_555
N5_2 N4_2 1_555 1_555
C5_2 N2_2 1_555 1_555
H3_2 C5_2 1_555 1_555
C6_2 C5_2 1_555 1_555
H4_2 C6_2 1_555 1_555
C7_2 C6_2 1_555 1_555
C8_2 C7_2 1_555 1_555
O20_2 Co1_2 1_555 1_555
Co1_3 O1_2 1_555 1_555
Co14 N1_2 1_555 1_555
O1_2 C4_2 1_555 1_555
O3_3 Co1_3 1_555 1_555
N1_2 C1_2 1_555 1_555
N2_3 Co1_3 1_555 1_555
C1_2 H1_2 1_555 1_555
C2_2 C1_2 1_555 1_555
H2_2 C2_2 1_555 1_555
C3_2 C2_2 1_555 1_555
C4_2 C3_2 1_555 1_555
C8_3 C7_3 1_555 1_555
N6_2 Co14 1_555 1_555
N7_2 N8_2 1_555 1_555
N8_2 N6_2 1_555 1_555
O27 C8_3 1_555 1_555
C11_2 N2_3 1_555 1_555
H7_2 C11_2 1_555 1_555
C12_2 C7_3 1_555 1_555
H8_2 C12_2 1_555 1_555
Co16 N6_2 1_555 1_555
N9_2 Co16 1_555 1_555
C16_2 C15_2 1_555 1_555
N10_2 Co14 1_555 1_555
N11_2 N12_2 1_555 1_555
N12_2 N10_2 1_555 1_555
O20_2 C16_2 1_555 1_555
C17_2 N9_2 1_555 1_555
H11_2 C17_2 1_555 1_555
C18_2 C15_2 1_555 1_555
H12_2 C18_2 1_555 1_555
N27_2 Co1_3 1_555 1_555
N28_2 N27_2 1_555 1_555
N29_2 N28_2 1_555 1_555
C11_2 C12_2 1_555 1_555
Co16 N10_2 1_555 1_555
C17_2 C18_2 1_555 1_555
N16_2 N15_2 1_555 1_555
N17_2 N16_2 1_555 1_555
Co8_2 O3_4 1_555 1_555
O28 C46_2 1_555 1_555
N26_2 Co8_2 1_555 1_555
C43_2 N26_2 1_555 1_555
H29_2 C43_2 1_555 1_555
C44_2 C43_2 1_555 1_555
H30_2 C44_2 1_555 1_555
C45_2 C44_2 1_555 1_555
C46_2 C45_2 1_555 1_555
O18_2 Co8_2 1_555 1_555
N15_2 Co8_2 1_555 1_555
O18_2 C16_3 1_555 1_555
N9_3 Co16_2 1_555 1_555
C13_2 N9_3 1_555 1_555
H9_2 C13_2 1_555 1_555
C14_2 C13_2 1_555 1_555
H10_2 C14_2 1_555 1_555
C15_3 C14_2 1_555 1_555
C16_3 C15_3 1_555 1_555
N11_3 N12_3 1_555 1_555
N12_3 N10_3 1_555 1_555
Co18 N10_3 1_555 1_555
N13_2 Co18 1_555 1_555
N18_2 Co16_2 1_555 1_555
N19_2 N20_2 1_555 1_555
N20_2 N18_2 1_555 1_555
O10_2 C22_2 1_555 1_555
C27_2 N13_2 1_555 1_555
H17_2 C27_2 1_555 1_555
C28_2 C21_2 1_555 1_555
H18_2 C28_2 1_555 1_555
Co8_3 O3_5 1_555 1_555
N26_3 Co8_3 1_555 1_555
C46_3 C45_3 1_555 1_555
O23 C46_3 1_555 1_555
C47_2 N26_3 1_555 1_555
H31_2 C47_2 1_555 1_555
C48_2 C45_3 1_555 1_555
H32_2 C48_2 1_555 1_555
N28_3 N27_3 1_555 1_555
N29_3 N28_3 1_555 1_555
Co16_2 N10_3 1_555 1_555
Co18 N18_2 1_555 1_555
C21_2 C22_2 1_555 1_555
O10_2 Co8_3 1_555 1_555
C27_2 C28_2 1_555 1_555
Co8_3 N27_3 1_555 1_555
C47_2 C48_2 1_555 1_555
N4_3 N3_3 1_555 1_555
N5_3 N4_3 1_555 1_555
Co7_2 O3_6 1_555 1_555
O26 C40_2 1_555 1_555
N25_2 Co7_2 1_555 1_555
C37_2 N25_2 1_555 1_555
H25_2 C37_2 1_555 1_555
C38_2 C37_2 1_555 1_555
H26_2 C38_2 1_555 1_555
C39_2 C38_2 1_555 1_555
C40_2 C39_2 1_555 1_555
O19_2 Co7_2 1_555 1_555
N3_3 Co7_2 1_555 1_555
Co14_2 N1_3 1_555 1_555
C4_3 C3_3 1_555 1_555
N6_3 Co14_2 1_555 1_555
N7_3 N8_3 1_555 1_555
N8_3 N6_3 1_555 1_555
O4_2 C4_3 1_555 1_555
C9_2 N1_3 1_555 1_555
H5_2 C9_2 1_555 1_555
C10_2 C3_3 1_555 1_555
H6_2 C10_2 1_555 1_555
Co20 N6_3 1_555 1_555
O19_2 C34_2 1_555 1_555
N21_2 Co20 1_555 1_555
C31_2 N21_2 1_555 1_555
H21_2 C31_2 1_555 1_555
C32_2 C31_2 1_555 1_555
H22_2 C32_2 1_555 1_555
C33_2 C32_2 1_555 1_555
C34_2 C33_2 1_555 1_555
N22_2 Co14_2 1_555 1_555
N23_2 N24_2 1_555 1_555
N24_2 N22_2 1_555 1_555
Co7_3 O3_7 1_555 1_555
N25_3 Co7_3 1_555 1_555
C40_3 C39_3 1_555 1_555
O25 C40_3 1_555 1_555
C41_2 N25_3 1_555 1_555
H27_2 C41_2 1_555 1_555
C42_2 C39_3 1_555 1_555
H28_2 C42_2 1_555 1_555
N31_2 N30_2 1_555 1_555
N32_2 N31_2 1_555 1_555
O4_2 Co7_3 1_555 1_555
C9_2 C10_2 1_555 1_555
Co20 N22_2 1_555 1_555
Co7_3 N30_2 1_555 1_555
C41_2 C42_2 1_555 1_555
Co4_2 O3_8 1_555 1_555
O24 C26_2 1_555 1_555
N14_2 Co4_2 1_555 1_555
N15_3 Co4_2 1_555 1_555
N16_3 N15_3 1_555 1_555
N17_3 N16_3 1_555 1_555
C23_2 N14_2 1_555 1_555
H15_2 C23_2 1_555 1_555
C24_2 C23_2 1_555 1_555
H16_2 C24_2 1_555 1_555
C25_2 C24_2 1_555 1_555
C26_2 C25_2 1_555 1_555
O21_2 Co4_2 1_555 1_555
Co4_3 O3_9 1_555 1_555
O8_2 Co4_3 1_555 1_555
N13_3 Co18_2 1_555 1_555
N14_3 Co4_3 1_555 1_555
C19_2 N13_3 1_555 1_555
H13_2 C19_2 1_555 1_555
C20_2 C19_2 1_555 1_555
H14_2 C20_2 1_555 1_555
C21_3 C20_2 1_555 1_555
C22_3 O8_2 1_555 1_555
C26_3 C25_3 1_555 1_555
N19_3 N20_3 1_555 1_555
N20_3 N18_3 1_555 1_555
O29 C26_3 1_555 1_555
C29_2 N14_3 1_555 1_555
H19_2 C29_2 1_555 1_555
C30_2 C25_3 1_555 1_555
H20_2 C30_2 1_555 1_555
N21_3 Co20_2 1_555 1_555
C34_3 C33_3 1_555 1_555
N23_3 N24_3 1_555 1_555
N24_3 N22_3 1_555 1_555
O21_2 C34_3 1_555 1_555
C35_2 N21_3 1_555 1_555
H23_2 C35_2 1_555 1_555
C36_2 C33_3 1_555 1_555
H24_2 C36_2 1_555 1_555
N30_3 Co4_3 1_555 1_555
N31_3 N30_3 1_555 1_555
N32_3 N31_3 1_555 1_555
Co18_2 N18_3 1_555 1_555
Co18_2 N22_3 1_555 1_555
C21_3 C22_3 1_555 1_555
N18_3 Co20_2 1_555 1_555
C29_2 C30_2 1_555 1_555
Co20_2 N22_3 1_555 1_555
C35_2 C36_2 1_555 1_555

#END
