
###############################################################################
#
# This file contains modified crystal structure data generated from the
# MOF subset of the Cambridge Structural Database (CSD) v543 
# hosted by the Cambridge Crystallographic Data Centre (CCDC).
#
# This work is licensed under the Creative Commons
# Attribution-NonCommercial-ShareAlike 4.0 International License.
# To view a copy of this license, visit
# http://creativecommons.org/licenses/by-nc-sa/4.0/
# or send a letter to
# Creative Commons, PO Box 1866, Mountain View, CA 94042, USA.
#
# CIF created using the CSD Python API on 29 September 2022
# The structure has been converted into the P1 space group
# The structure has a 3D framework
# The original CSD entry AHOBIK is in the monoclinic crystal system
# The framework has been calculated to contain at least 10.0% void space
# The void calculation uses a probe of radius 1.32A, grid spacing 0.4
#
###############################################################################

data_AHOBIK
_chemical_formula_moiety         '(C180 H136 Co8 N32 O40)n'
_symmetry_cell_setting           triclinic
_symmetry_space_group_name_H-M   'P 1'
_symmetry_Int_Tables_number      1
_space_group_name_Hall           'P 1'
loop_
_symmetry_equiv_pos_site_id
_symmetry_equiv_pos_as_xyz
1 x,y,z
_cell_length_a                   19.267(7)
_cell_length_b                   12.221(4)
_cell_length_c                   24.163(7)
_cell_angle_alpha                90
_cell_angle_beta                 125.38(2)
_cell_angle_gamma                90
_cell_volume                     4638.79
loop_
_atom_site_label
_atom_site_type_symbol
_atom_site_fract_x
_atom_site_fract_y
_atom_site_fract_z
N3 N 0.1479(2) 0.3371(2) 0.15237(15)
N4 N 0.13112(18) 0.3494(2) 0.05469(14)
C22 C 0.0061(3) 0.0566(3) 0.21185(19)
C24 C 0.0067(3) 0.2102(4) 0.1505(2)
C25 C 0.0852(3) 0.2437(3) 0.20539(19)
C26 C 0.1225(4) 0.1829(4) 0.2639(2)
H14 H 0.1758 0.2030 0.3018
C27 C 0.0814(4) 0.0916(4) 0.2670(2)
H15 H 0.1064 0.0541 0.3078
C28 C 0.1269(3) 0.3454(3) 0.2023(2)
H16 H 0.0891 0.4072 0.1904
H17 H 0.1787 0.3594 0.2469
C29 C 0.0943(2) 0.3632(2) 0.08638(17)
H18 H 0.0387 0.3876 0.0658
C30 C 0.2124(2) 0.3138(3) 0.10342(19)
H19 H 0.2537 0.2979 0.0961
C31 C 0.2228(3) 0.3056(4) 0.1632(2)
H20 H 0.2717 0.2828 0.2042
H7 H 0.0190 0.7797 0.1804
H10 H 0.0047 0.9161 0.2566
N9 N 0.3272(2) 0.0042(3) 0.17623(17)
C47 C 0.3426(3) 0.0089(7) 0.2392(3)
H36 H 0.3950 0.0254 0.2792
C51 C 0.0515(3) 0.0763(3) 0.0477(2)
H40 H 0.0866 0.1289 0.0798
Co6 Co 0.41463(3) 0.02129(4) 0.15417(2)
O24 O 0.04324(14) 0.62904(17) 0.06590(11)
N10 N 0.21042(19) 0.9657(3) 0.16790(16)
C46 C 0.2468(2) 0.9804(3) 0.1352(2)
H35 H 0.2179 0.9742 0.0884
C48 C 0.2713(3) 0.9862(7) 0.2351(3)
H37 H 0.2649 0.9848 0.2704
C49 C 0.1230(2) 0.9327(4) 0.1398(2)
H38 H 0.1208 0.8538 0.1424
H39 H 0.1060 0.9643 0.1671
C50 C 0.0607(2) 0.9680(3) 0.06707(18)
C52 C 0.0086(3) 0.8923(3) 0.0182(2)
H41 H 0.0142 0.8187 0.0298
C42 C 0.6322(4) 0.6378(5) 0.0129(4)
H31 H 0.6481 0.6926 0.0474
H32 H 0.6821 0.5936 0.0283
C43 C 0.5624(3) 0.5648(5) 0.0050(3)
C45 C 0.5744(4) 0.4575(5) 0.0174(4)
H34 H 0.6256 0.4268 0.0297
N11 N 0.4123(2) 0.1765(3) 0.11966(19)
N12 N 0.3945(3) 0.3072(3) 0.0503(3)
C53 C 0.3878(3) 0.2009(4) 0.0577(2)
H42 H 0.3680 0.1497 0.0232
C54 C 0.4362(4) 0.2739(4) 0.1542(3)
H43 H 0.4565 0.2824 0.1995
C55 C 0.4256(4) 0.3553(4) 0.1124(4)
H44 H 0.4369 0.4292 0.1232
C58 C 0.5131(4) 0.3898(5) 0.0127(4)
H47 H 0.5231 0.3152 0.0213
O22 O 0.51244(17) 0.0449(3) 0.25211(14)
O11 O 0.3171(3) 0.9738(2) 0.04731(17)
O12 O 0.4040(2) 0.8512(3) 0.11856(16)
O17 O 0.48756(17) 0.5449(3) 0.24789(14)
O18 O 0.4305(2) 0.5217(3) 0.30286(14)
O19 O 0.11191(16) 0.6004(2) 0.17608(12)
C60 C 0.3408(3) 0.8766(3) 0.0612(2)
C61 C 0.2922(2) 0.7938(3) 0.00607(17)
C68 C 0.25665(18) 0.6984(2) 0.01363(14)
C69 C 0.26351(19) 0.6676(2) 0.07621(15)
C70 C 0.19036(18) 0.6641(2) 0.07457(15)
H52 H 0.1390 0.6876 0.0359
C71 C 0.19270(19) 0.6258(2) 0.13001(14)
C72 C 0.1112(2) 0.6182(2) 0.12499(15)
C73 C 0.2696(2) 0.5911(3) 0.18830(15)
H53 H 0.2721 0.5674 0.2260
C74 C 0.3425(2) 0.5923(3) 0.18958(15)
C75 C 0.4252(2) 0.5497(3) 0.25124(18)
C76 C 0.33997(19) 0.6308(3) 0.13474(16)
H54 H 0.3896 0.6324 0.1367
Co7 Co 0.58537(3) 0.52129(4) 0.34583(2)
C45_2 C 0.4256(4) 0.9575(5) 0.4826(4)
H34_2 H 0.3744 0.9268 0.4703
N11_2 N 0.5877(2) 0.6765(3) 0.38034(19)
N12_2 N 0.6055(3) 0.8072(3) 0.4497(3)
C53_2 C 0.6122(3) 0.7009(4) 0.4423(2)
H42_2 H 0.6320 0.6497 0.4768
C54_2 C 0.5638(4) 0.7739(4) 0.3458(3)
H43_2 H 0.5435 0.7824 0.3005
C55_2 C 0.5744(4) 0.8553(4) 0.3876(4)
H44_2 H 0.5631 0.9292 0.3768
C56 C 0.6322(4) 0.8622(5) 0.5129(4)
H45 H 0.6481 0.8074 0.5474
H46 H 0.6821 0.9064 0.5283
C57 C 0.5624(3) 0.9352(5) 0.5050(3)
C58_2 C 0.4869(4) 0.8898(5) 0.4873(4)
H47_2 H 0.4769 0.8152 0.4787
O11_2 O 0.6829(3) 0.4738(2) 0.45269(17)
O12_2 O 0.5960(2) 0.3512(3) 0.38144(16)
O13 O 0.7885(2) 0.3759(3) 0.69300(16)
H49 H 0.8034 0.3856 0.7320
O14 O 0.8321(2) 0.2048(3) 0.72755(14)
O16 O 0.91610(14) 0.02991(18) 0.57140(12)
O18_2 O 0.5695(2) 0.0217(3) 0.19714(14)
O19_2 O 0.88809(16) 0.1004(2) 0.32392(12)
O20 O 0.95676(14) 0.12904(17) 0.43410(11)
C60_2 C 0.6592(3) 0.3766(3) 0.4388(2)
C61_2 C 0.7078(2) 0.2938(3) 0.49393(17)
C62 C 0.7243(2) 0.3197(3) 0.55681(19)
H50 H 0.7014 0.3832 0.5614
C63 C 0.7741(2) 0.2523(3) 0.61234(17)
C64 C 0.8015(3) 0.2732(3) 0.6852(2)
C65 C 0.8086(2) 0.1591(3) 0.60533(16)
H51 H 0.8419 0.1133 0.6425
C66 C 0.79455(19) 0.1323(2) 0.54406(15)
C67 C 0.8355(2) 0.0295(3) 0.54155(15)
C68_2 C 0.74335(18) 0.1984(2) 0.48637(14)
C69_2 C 0.73649(19) 0.1676(2) 0.42379(15)
C70_2 C 0.80964(18) 0.1641(2) 0.42543(15)
H52_2 H 0.8610 0.1876 0.4641
C71_2 C 0.80730(19) 0.1258(2) 0.36999(14)
C72_2 C 0.8888(2) 0.1182(2) 0.37501(15)
C73_2 C 0.7304(2) 0.0911(3) 0.31170(15)
H53_2 H 0.7279 0.0674 0.2740
C74_2 C 0.6575(2) 0.0923(3) 0.31042(15)
C75_2 C 0.5748(2) 0.0497(3) 0.24876(18)
C76_2 C 0.66003(19) 0.1308(3) 0.36526(16)
H54_2 H 0.6104 0.1324 0.3633
N19 N 0.6728(2) 0.5042(3) 0.32377(17)
Co4 Co 0.92803(2) 0.87768(3) 0.54634(2)
O15 O 0.79237(16) 0.9468(2) 0.51311(14)
N13 N 0.91054(18) 0.7477(2) 0.58953(16)
N14 N 0.9250(2) 0.6155(2) 0.65740(18)
C77 C 0.9628(2) 0.6991(3) 0.64869(18)
C78 C 0.8353(3) 0.6915(4) 0.5592(3)
H56 H 0.7858 0.7073 0.5168
C79 C 0.8440(3) 0.6104(4) 0.5999(3)
H57 H 0.8025 0.5599 0.5906
C80 C 0.9631(3) 0.5429(3) 0.7162(2)
H59 H 0.9190 0.5189 0.7212
C82 C 0.9680(3) 0.3807(4) 0.6533(2)
H60 H 0.9150 0.4013 0.6152
H61 H 0.9793 0.2494 0.6106
N17 N 0.86888(18) 0.8494(2) 0.44531(14)
N3_2 N 0.8521(2) 0.8371(2) 0.34763(15)
H7_2 H 0.9810 0.2797 0.3196
H10_2 H 0.9953 0.4161 0.2434
C22_2 C 0.9939(3) 0.5566(3) 0.28815(19)
C24_2 C 0.9933(3) 0.7102(4) 0.3495(2)
C25_2 C 0.9148(3) 0.7437(3) 0.29461(19)
C26_2 C 0.8775(4) 0.6829(4) 0.2361(2)
H14_2 H 0.8242 0.7030 0.1982
C27_2 C 0.9186(4) 0.5916(4) 0.2330(2)
H15_2 H 0.8936 0.5541 0.1922
C28_2 C 0.8731(3) 0.8454(3) 0.2977(2)
H16_2 H 0.9109 0.9072 0.3096
H17_2 H 0.8213 0.8594 0.2531
C29_2 C 0.9057(2) 0.8632(2) 0.41362(17)
H18_2 H 0.9613 0.8876 0.4342
C30_2 C 0.7876(2) 0.8138(3) 0.39658(19)
H19_2 H 0.7463 0.7979 0.4039
C31_2 C 0.7772(3) 0.8056(4) 0.3368(2)
H20_2 H 0.7283 0.7828 0.2958
N10_2 N 0.78958(19) 0.4657(3) 0.33210(16)
C46_2 C 0.7532(2) 0.4804(3) 0.3648(2)
H35_2 H 0.7821 0.4742 0.4116
C47_2 C 0.6574(3) 0.5089(7) 0.2608(3)
H36_2 H 0.6050 0.5254 0.2208
C48_2 C 0.7287(3) 0.4862(7) 0.2649(3)
H37_2 H 0.7351 0.4848 0.2296
C49_2 C 0.8770(2) 0.4327(4) 0.3602(2)
H38_2 H 0.8792 0.3538 0.3576
H39_2 H 0.8940 0.4643 0.3329
C50_2 C 0.9393(2) 0.4680(3) 0.43293(18)
C51_2 C 0.9485(3) 0.5763(3) 0.4523(2)
H40_2 H 0.9134 0.6289 0.4202
C52_2 C 0.9914(3) 0.3923(3) 0.4818(2)
H41_2 H 0.9858 0.3187 0.4702
Co11 Co 0.07197(2) 0.37768(3) 0.95366(2)
O13_2 O 0.2115(2) 0.8759(3) 0.80700(16)
H49_2 H 0.1966 0.8856 0.7680
O14_2 O 0.1679(2) 0.7048(3) 0.77245(14)
O15_2 O 0.20763(16) 0.4468(2) 0.98689(14)
O16_2 O 0.08390(14) 0.52991(18) 0.92860(12)
N13_2 N 0.08946(18) 0.2477(2) 0.91047(16)
N14_2 N 0.0750(2) 0.1155(2) 0.84260(18)
C62_2 C 0.2757(2) 0.8197(3) 0.94319(19)
H50_2 H 0.2986 0.8832 0.9386
C63_2 C 0.2259(2) 0.7523(3) 0.88766(17)
C64_2 C 0.1985(3) 0.7732(3) 0.8148(2)
C65_2 C 0.1914(2) 0.6591(3) 0.89467(16)
H51_2 H 0.1581 0.6133 0.8575
C66_2 C 0.20545(19) 0.6323(2) 0.95594(15)
C67_2 C 0.1645(2) 0.5295(3) 0.95845(15)
C77_2 C 0.0372(2) 0.1991(3) 0.85131(18)
C78_2 C 0.1647(3) 0.1915(4) 0.9408(3)
H56_2 H 0.2142 0.2073 0.9832
C79_2 C 0.1560(3) 0.1104(4) 0.9001(3)
H57_2 H 0.1975 0.0599 0.9094
C80_2 C 0.0369(3) 0.0429(3) 0.7838(2)
H59_2 H 0.0810 0.0189 0.7788
C23 C 0.9680(3) 0.1193(4) 0.1533(2)
H12 H 0.9150 0.0987 0.1152
H13 H 0.9793 0.2506 0.1106
Co2 Co 0.92803(2) 0.62232(3) 0.04634(2)
O3 O 0.7885(2) 0.1241(3) 0.19300(16)
H1 H 0.8034 0.1144 0.2320
O4 O 0.8321(2) 0.2952(3) 0.22755(14)
O5 O 0.79237(16) 0.5532(2) 0.01311(14)
O6 O 0.91610(14) 0.47009(18) 0.07140(12)
N1 N 0.91054(18) 0.7523(2) 0.08953(16)
N2 N 0.9250(2) 0.8845(2) 0.15740(18)
C3 C 0.7243(2) 0.1803(3) 0.05681(19)
H2 H 0.7014 0.1168 0.0614
C4 C 0.7741(2) 0.2477(3) 0.11234(17)
C5 C 0.8015(3) 0.2268(3) 0.1852(2)
C6 C 0.8086(2) 0.3409(3) 0.10533(16)
H3 H 0.8419 0.3867 0.1425
C7 C 0.79455(19) 0.3677(2) 0.04406(15)
C8 C 0.8355(2) 0.4705(3) 0.04155(15)
C18 C 0.9628(2) 0.8009(3) 0.14869(18)
C19 C 0.8353(3) 0.8085(4) 0.0592(3)
H8 H 0.7858 0.7927 0.0168
C20 C 0.8440(3) 0.8896(4) 0.0999(3)
H9 H 0.8025 0.9401 0.0906
C21 C 0.9631(3) 0.9571(3) 0.2162(2)
H11 H 0.9190 0.9811 0.2212
O1 O 0.6829(3) 0.0262(2) 0.95269(17)
O2 O 0.5960(2) 0.1488(3) 0.88144(16)
O7 O 0.51244(17) 0.4551(3) 0.75211(14)
O8 O 0.5695(2) 0.4783(3) 0.69714(14)
O9 O 0.88809(16) 0.3996(2) 0.82392(12)
O10 O 0.95676(14) 0.37096(17) 0.93410(11)
N6 N 0.78958(19) 0.0343(3) 0.83210(16)
C1 C 0.6592(3) 0.1234(3) 0.9388(2)
C2 C 0.7078(2) 0.2062(3) 0.99393(17)
C9 C 0.74335(18) 0.3016(2) 0.98637(14)
C10 C 0.73649(19) 0.3324(2) 0.92379(15)
C11 C 0.80964(18) 0.3359(2) 0.92543(15)
H4 H 0.8610 0.3124 0.9641
C12 C 0.80730(19) 0.3742(2) 0.86999(14)
C13 C 0.8888(2) 0.3818(2) 0.87501(15)
C14 C 0.7304(2) 0.4089(3) 0.81170(15)
H5 H 0.7279 0.4326 0.7740
C15 C 0.6575(2) 0.4077(3) 0.81042(15)
C16 C 0.5748(2) 0.4503(3) 0.74876(18)
C17 C 0.66003(19) 0.3692(3) 0.86526(16)
H6 H 0.6104 0.3676 0.8633
C32 C 0.7532(2) 0.0196(3) 0.8648(2)
H21 H 0.7821 0.0258 0.9116
C34 C 0.7287(3) 0.0138(7) 0.7649(3)
H23 H 0.7351 0.0152 0.7296
C35 C 0.8770(2) 0.0673(4) 0.8602(2)
H24 H 0.8792 0.1462 0.8576
H25 H 0.8940 0.0357 0.8329
C36 C 0.9393(2) 0.0320(3) 0.93293(18)
C38 C 0.9914(3) 0.1077(3) 0.9818(2)
H27 H 0.9858 0.1813 0.9702
Co5 Co 0.41463(3) 0.47871(4) 0.65417(2)
N18 N 0.86888(18) 0.6506(2) 0.94531(14)
Co1 Co 0.58537(3) 0.97871(4) 0.84583(2)
N5 N 0.6728(2) 0.9958(3) 0.82377(17)
N7 N 0.5877(2) 0.8235(3) 0.88034(19)
N8 N 0.6055(3) 0.6928(3) 0.9497(3)
C33 C 0.6574(3) 0.9911(7) 0.7608(3)
H22 H 0.6050 0.9746 0.7208
C37 C 0.9485(3) 0.9237(3) 0.9523(2)
H26 H 0.9134 0.8711 0.9202
C39 C 0.6122(3) 0.7991(4) 0.9423(2)
H28 H 0.6320 0.8503 0.9768
C40 C 0.5638(4) 0.7261(4) 0.8458(3)
H29 H 0.5435 0.7176 0.8005
C41 C 0.5744(4) 0.6447(4) 0.8876(4)
H30 H 0.5631 0.5708 0.8768
C44 C 0.4869(4) 0.6102(5) 0.9873(4)
H33 H 0.4769 0.6848 0.9787
C56_2 C 0.3678(4) 0.3622(5) 0.9871(4)
H45_2 H 0.3519 0.3074 0.9526
H46_2 H 0.3179 0.4064 0.9717
C57_2 C 0.4376(3) 0.4352(5) 0.9950(3)
C59 C 0.4256(4) 0.5425(5) 0.9826(4)
H48 H 0.3744 0.5732 0.9703
O21 O 0.48756(17) 0.9551(3) 0.74789(14)
H55 H 0.9810 0.2203 0.8196
H58 H 0.9953 0.0839 0.7434
N15 N 0.8521(2) 0.6629(2) 0.84763(15)
C81 C 0.9939(3) 0.9434(3) 0.78815(19)
C83 C 0.9933(3) 0.7898(4) 0.8495(2)
C84 C 0.9148(3) 0.7563(3) 0.79461(19)
C85 C 0.8775(4) 0.8171(4) 0.7361(2)
H62 H 0.8242 0.7970 0.6982
C86 C 0.9186(4) 0.9084(4) 0.7330(2)
H63 H 0.8936 0.9459 0.6922
C87 C 0.8731(3) 0.6546(3) 0.7977(2)
H64 H 0.9109 0.5928 0.8096
H65 H 0.8213 0.6406 0.7531
C88 C 0.9057(2) 0.6368(2) 0.91362(17)
H66 H 0.9613 0.6124 0.9342
C89 C 0.7876(2) 0.6862(3) 0.89658(19)
H67 H 0.7463 0.7021 0.9039
C90 C 0.7772(3) 0.6944(4) 0.8368(2)
H68 H 0.7283 0.7172 0.7958
Co9 Co 0.07197(2) 0.12232(3) 0.45366(2)
N15_2 N 0.1479(2) 0.1629(2) 0.65237(15)
N16 N 0.13112(18) 0.1506(2) 0.55469(14)
H55_2 H 0.0190 0.7203 0.6804
H58_2 H 0.0047 0.5839 0.7566
C81_2 C 0.0061(3) 0.4434(3) 0.71185(19)
C83_2 C 0.0067(3) 0.2898(4) 0.6505(2)
C84_2 C 0.0852(3) 0.2563(3) 0.70539(19)
C85_2 C 0.1225(4) 0.3171(4) 0.7639(2)
H62_2 H 0.1758 0.2970 0.8018
C86_2 C 0.0814(4) 0.4084(4) 0.7670(2)
H63_2 H 0.1064 0.4459 0.8078
C87_2 C 0.1269(3) 0.1546(3) 0.7023(2)
H64_2 H 0.0891 0.0928 0.6904
H65_2 H 0.1787 0.1406 0.7469
C88_2 C 0.0943(2) 0.1368(2) 0.58638(17)
H66_2 H 0.0387 0.1124 0.5658
C89_2 C 0.2124(2) 0.1862(3) 0.60342(19)
H67_2 H 0.2537 0.2021 0.5961
C90_2 C 0.2228(3) 0.1944(4) 0.6632(2)
H68_2 H 0.2717 0.2172 0.7042
O23 O 0.04324(14) 0.87096(17) 0.56590(11)
O5_2 O 0.20763(16) 0.0532(2) 0.48689(14)
N1_2 N 0.08946(18) 0.2523(2) 0.41047(16)
N2_2 N 0.0750(2) 0.3845(2) 0.34260(18)
C18_2 C 0.0372(2) 0.3009(3) 0.35131(18)
C19_2 C 0.1647(3) 0.3085(4) 0.4408(3)
H8_2 H 0.2142 0.2927 0.4832
C20_2 C 0.1560(3) 0.3896(4) 0.4001(3)
H9_2 H 0.1975 0.4401 0.4094
C21_2 C 0.0369(3) 0.4571(3) 0.2838(2)
H11_2 H 0.0810 0.4811 0.2788
C23_2 C 0.0320(3) 0.6193(4) 0.3467(2)
H12_2 H 0.0850 0.5987 0.3848
H13_2 H 0.0207 0.7506 0.3894
O1_2 O 0.3171(3) 0.5262(2) 0.54731(17)
O2_2 O 0.4040(2) 0.6488(3) 0.61856(16)
O3_2 O 0.2115(2) 0.6241(3) 0.30700(16)
H1_2 H 0.1966 0.6144 0.2680
O4_2 O 0.1679(2) 0.7952(3) 0.27245(14)
O6_2 O 0.08390(14) 0.97009(18) 0.42860(12)
O8_2 O 0.4305(2) 0.9783(3) 0.80286(14)
O9_2 O 0.11191(16) 0.8996(2) 0.67608(12)
N5_2 N 0.3272(2) 0.4958(3) 0.67623(17)
N6_2 N 0.21042(19) 0.5343(3) 0.66790(16)
N7_2 N 0.4123(2) 0.3235(3) 0.61966(19)
N8_2 N 0.3945(3) 0.1928(3) 0.5503(3)
C1_2 C 0.3408(3) 0.6234(3) 0.5612(2)
C2_2 C 0.2922(2) 0.7062(3) 0.50607(17)
C3_2 C 0.2757(2) 0.6803(3) 0.44319(19)
H2_2 H 0.2986 0.6168 0.4386
C4_2 C 0.2259(2) 0.7477(3) 0.38766(17)
C5_2 C 0.1985(3) 0.7268(3) 0.3148(2)
C6_2 C 0.1914(2) 0.8409(3) 0.39467(16)
H3_2 H 0.1581 0.8867 0.3575
C7_2 C 0.20545(19) 0.8677(2) 0.45594(15)
C8_2 C 0.1645(2) 0.9705(3) 0.45845(15)
C9_2 C 0.25665(18) 0.8016(2) 0.51363(14)
C10_2 C 0.26351(19) 0.8324(2) 0.57621(15)
C11_2 C 0.19036(18) 0.8359(2) 0.57457(15)
H4_2 H 0.1390 0.8124 0.5359
C12_2 C 0.19270(19) 0.8742(2) 0.63001(14)
C13_2 C 0.1112(2) 0.8818(2) 0.62499(15)
C14_2 C 0.2696(2) 0.9089(3) 0.68830(15)
H5_2 H 0.2721 0.9326 0.7260
C15_2 C 0.3425(2) 0.9077(3) 0.68958(15)
C16_2 C 0.4252(2) 0.9503(3) 0.75124(18)
C17_2 C 0.33997(19) 0.8692(3) 0.63474(16)
H6_2 H 0.3896 0.8676 0.6367
C32_2 C 0.2468(2) 0.5196(3) 0.6352(2)
H21_2 H 0.2179 0.5258 0.5884
C33_2 C 0.3426(3) 0.4911(7) 0.7392(3)
H22_2 H 0.3950 0.4746 0.7792
C34_2 C 0.2713(3) 0.5138(7) 0.7351(3)
H23_2 H 0.2649 0.5152 0.7704
C35_2 C 0.1230(2) 0.5673(4) 0.6398(2)
H24_2 H 0.1208 0.6462 0.6424
H25_2 H 0.1060 0.5357 0.6671
C36_2 C 0.0607(2) 0.5320(3) 0.56707(18)
C37_2 C 0.0515(3) 0.4237(3) 0.5477(2)
H26_2 H 0.0866 0.3711 0.5798
C38_2 C 0.0086(3) 0.6077(3) 0.5182(2)
H27_2 H 0.0142 0.6813 0.5298
C39_2 C 0.3878(3) 0.2991(4) 0.5577(2)
H28_2 H 0.3680 0.3503 0.5232
C40_2 C 0.4362(4) 0.2261(4) 0.6542(3)
H29_2 H 0.4565 0.2176 0.6995
C41_2 C 0.4256(4) 0.1447(4) 0.6124(4)
H30_2 H 0.4369 0.0708 0.6232
C42_2 C 0.3678(4) 0.1378(5) 0.4871(4)
H31_2 H 0.3519 0.1926 0.4526
H32_2 H 0.3179 0.0936 0.4717
C43_2 C 0.4376(3) 0.0648(5) 0.4950(3)
C44_2 C 0.5131(4) 0.1102(5) 0.5127(4)
H33_2 H 0.5231 0.1848 0.5213
C59_2 C 0.5744(4) 0.0425(5) 0.5174(4)
H48_2 H 0.6256 0.0732 0.5297
C82_2 C 0.0320(3) 0.8807(4) 0.8467(2)
H60_2 H 0.0850 0.9013 0.8848
H61_2 H 0.0207 0.7494 0.8894
loop_
_geom_bond_atom_site_label_1
_geom_bond_atom_site_label_2
_geom_bond_site_symmetry_1
_geom_bond_site_symmetry_2
N3 C28 1_555 1_555
N4 C29 1_555 1_555
C25 C24 1_555 1_555
C26 C25 1_555 1_555
H14 C26 1_555 1_555
C27 C22 1_555 1_555
H15 C27 1_555 1_555
C28 C25 1_555 1_555
H16 C28 1_555 1_555
H17 C28 1_555 1_555
C29 N3 1_555 1_555
H18 C29 1_555 1_555
C30 N4 1_555 1_555
H19 C30 1_555 1_555
C31 N3 1_555 1_555
H20 C31 1_555 1_555
C26 C27 1_555 1_555
C30 C31 1_555 1_555
C47 N9 1_555 1_555
H36 C47 1_555 1_555
H40 C51 1_555 1_555
Co6 N9 1_555 1_555
N10 C46 1_555 1_555
C46 H35 1_555 1_555
C48 N10 1_555 1_555
H37 C48 1_555 1_555
C49 N10 1_555 1_555
H38 C49 1_555 1_555
H39 C49 1_555 1_555
C50 C49 1_555 1_555
H41 C52 1_555 1_555
C50 C52 1_555 1_555
H31 C42 1_555 1_555
H32 C42 1_555 1_555
C43 C42 1_555 1_555
C45 C43 1_555 1_555
H34 C45 1_555 1_555
N11 C53 1_555 1_555
N12 C53 1_555 1_555
C53 H42 1_555 1_555
C54 N11 1_555 1_555
H43 C54 1_555 1_555
C55 N12 1_555 1_555
H44 C55 1_555 1_555
C58 C45 1_555 1_555
H47 C58 1_555 1_555
Co6 N11 1_555 1_555
O22 Co6 1_555 1_555
C54 C55 1_555 1_555
O17 C75 1_555 1_555
O18 C75 1_555 1_555
O19 C72 1_555 1_555
O24 C72 1_555 1_555
C60 O11 1_555 1_555
C61 C60 1_555 1_555
C68 C61 1_555 1_555
C69 C68 1_555 1_555
C70 C69 1_555 1_555
H52 C70 1_555 1_555
C71 C70 1_555 1_555
C72 C71 1_555 1_555
C73 C71 1_555 1_555
H53 C73 1_555 1_555
C74 C73 1_555 1_555
C75 C74 1_555 1_555
C76 C69 1_555 1_555
H54 C76 1_555 1_555
Co7 O17 1_555 1_555
O12 C60 1_555 1_555
C74 C76 1_555 1_555
H34_2 C45_2 1_555 1_555
N11_2 C53_2 1_555 1_555
N12_2 C53_2 1_555 1_555
C53_2 H42_2 1_555 1_555
C54_2 N11_2 1_555 1_555
H43_2 C54_2 1_555 1_555
C55_2 N12_2 1_555 1_555
H44_2 C55_2 1_555 1_555
C56 N12_2 1_555 1_555
H45 C56 1_555 1_555
H46 C56 1_555 1_555
C57 C56 1_555 1_555
C58_2 C45_2 1_555 1_555
H47_2 C58_2 1_555 1_555
Co7 N11_2 1_555 1_555
O11_2 Co7 1_555 1_555
O12_2 Co7 1_555 1_555
O13 H49 1_555 1_555
O14 C64 1_555 1_555
O22 C75_2 1_555 1_555
O18_2 C75_2 1_555 1_555
O19_2 C72_2 1_555 1_555
O20 C72_2 1_555 1_555
C60_2 O11_2 1_555 1_555
C61_2 C60_2 1_555 1_555
C62 C61_2 1_555 1_555
H50 C62 1_555 1_555
C63 C62 1_555 1_555
C64 O13 1_555 1_555
C65 C63 1_555 1_555
H51 C65 1_555 1_555
C66 C65 1_555 1_555
C67 O16 1_555 1_555
C68_2 C61_2 1_555 1_555
C69_2 C68_2 1_555 1_555
C70_2 C69_2 1_555 1_555
H52_2 C70_2 1_555 1_555
C71_2 C70_2 1_555 1_555
C72_2 C71_2 1_555 1_555
C73_2 C71_2 1_555 1_555
H53_2 C73_2 1_555 1_555
C74_2 C73_2 1_555 1_555
C75_2 C74_2 1_555 1_555
C76_2 C69_2 1_555 1_555
H54_2 C76_2 1_555 1_555
N19 Co7 1_555 1_555
C54_2 C55_2 1_555 1_555
C57 C58_2 1_555 1_555
O12_2 C60_2 1_555 1_555
C63 C64 1_555 1_555
C66 C67 1_555 1_555
C66 C68_2 1_555 1_555
C74_2 C76_2 1_555 1_555
Co4 O15 1_555 1_555
N13 Co4 1_555 1_555
N14 C77 1_555 1_555
C77 N13 1_555 1_555
C78 N13 1_555 1_555
H56 C78 1_555 1_555
C79 N14 1_555 1_555
H57 C79 1_555 1_555
C80 N14 1_555 1_555
H59 C80 1_555 1_555
H60 C82 1_555 1_555
N17 Co4 1_555 1_555
C78 C79 1_555 1_555
N3_2 C28_2 1_555 1_555
N17 C29_2 1_555 1_555
C25_2 C24_2 1_555 1_555
C26_2 C25_2 1_555 1_555
H14_2 C26_2 1_555 1_555
C27_2 C22_2 1_555 1_555
H15_2 C27_2 1_555 1_555
C28_2 C25_2 1_555 1_555
H16_2 C28_2 1_555 1_555
H17_2 C28_2 1_555 1_555
C29_2 N3_2 1_555 1_555
H18_2 C29_2 1_555 1_555
C30_2 N17 1_555 1_555
H19_2 C30_2 1_555 1_555
C31_2 N3_2 1_555 1_555
H20_2 C31_2 1_555 1_555
C26_2 C27_2 1_555 1_555
C30_2 C31_2 1_555 1_555
N19 C46_2 1_555 1_555
N10_2 C46_2 1_555 1_555
C46_2 H35_2 1_555 1_555
C47_2 N19 1_555 1_555
H36_2 C47_2 1_555 1_555
C48_2 N10_2 1_555 1_555
H37_2 C48_2 1_555 1_555
C49_2 N10_2 1_555 1_555
H38_2 C49_2 1_555 1_555
H39_2 C49_2 1_555 1_555
C50_2 C49_2 1_555 1_555
H40_2 C51_2 1_555 1_555
H41_2 C52_2 1_555 1_555
C47_2 C48_2 1_555 1_555
C50_2 C51_2 1_555 1_555
C50_2 C52_2 1_555 1_555
Co11 O15_2 1_555 1_555
O13_2 H49_2 1_555 1_555
O14_2 C64_2 1_555 1_555
O15_2 C67_2 1_555 1_555
O16_2 Co11 1_555 1_555
N13_2 Co11 1_555 1_555
N14_2 C77_2 1_555 1_555
H50_2 C62_2 1_555 1_555
C63_2 C62_2 1_555 1_555
C64_2 O13_2 1_555 1_555
C65_2 C63_2 1_555 1_555
H51_2 C65_2 1_555 1_555
C66_2 C65_2 1_555 1_555
C67_2 O16_2 1_555 1_555
C77_2 N13_2 1_555 1_555
C78_2 N13_2 1_555 1_555
H56_2 C78_2 1_555 1_555
C79_2 N14_2 1_555 1_555
H57_2 C79_2 1_555 1_555
C80_2 N14_2 1_555 1_555
H59_2 C80_2 1_555 1_555
C63_2 C64_2 1_555 1_555
C66_2 C67_2 1_555 1_555
C78_2 C79_2 1_555 1_555
H12 C23 1_555 1_555
Co2 O5 1_555 1_555
O3 H1 1_555 1_555
O4 C5 1_555 1_555
O5 C8 1_555 1_555
O6 Co2 1_555 1_555
N1 Co2 1_555 1_555
N2 C18 1_555 1_555
H2 C3 1_555 1_555
C4 C3 1_555 1_555
C5 O3 1_555 1_555
C6 C4 1_555 1_555
H3 C6 1_555 1_555
C7 C6 1_555 1_555
C8 O6 1_555 1_555
C18 N1 1_555 1_555
C19 N1 1_555 1_555
H8 C19 1_555 1_555
C20 N2 1_555 1_555
H9 C20 1_555 1_555
C21 N2 1_555 1_555
H11 C21 1_555 1_555
C4 C5 1_555 1_555
C7 C8 1_555 1_555
C19 C20 1_555 1_555
O1 C1 1_555 1_555
O7 C16 1_555 1_555
O8 C16 1_555 1_555
O9 C13 1_555 1_555
O10 C13 1_555 1_555
N6 C32 1_555 1_555
C1 O2 1_555 1_555
C2 C1 1_555 1_555
C9 C2 1_555 1_555
C10 C9 1_555 1_555
C11 C10 1_555 1_555
H4 C11 1_555 1_555
C12 C11 1_555 1_555
C13 C12 1_555 1_555
C14 C12 1_555 1_555
H5 C14 1_555 1_555
C15 C14 1_555 1_555
C16 C15 1_555 1_555
C17 C10 1_555 1_555
H6 C17 1_555 1_555
H21 C32 1_555 1_555
C34 N6 1_555 1_555
H23 C34 1_555 1_555
C35 N6 1_555 1_555
H24 C35 1_555 1_555
H25 C35 1_555 1_555
C36 C35 1_555 1_555
C38 C36 1_555 1_555
H27 C38 1_555 1_555
Co5 O7 1_555 1_555
C15 C17 1_555 1_555
N5 Co1 1_555 1_555
N7 Co1 1_555 1_555
N8 C39 1_555 1_555
C33 N5 1_555 1_555
H22 C33 1_555 1_555
H26 C37 1_555 1_555
C39 N7 1_555 1_555
H28 C39 1_555 1_555
C40 N7 1_555 1_555
H29 C40 1_555 1_555
C41 N8 1_555 1_555
H30 C41 1_555 1_555
H33 C44 1_555 1_555
H45_2 C56_2 1_555 1_555
H46_2 C56_2 1_555 1_555
C57_2 C56_2 1_555 1_555
C59 C44 1_555 1_555
H48 C59 1_555 1_555
O21 Co1 1_555 1_555
C40 C41 1_555 1_555
C57_2 C59 1_555 1_555
N15 C87 1_555 1_555
N18 C88 1_555 1_555
C84 C83 1_555 1_555
C85 C84 1_555 1_555
H62 C85 1_555 1_555
C86 C81 1_555 1_555
H63 C86 1_555 1_555
C87 C84 1_555 1_555
H64 C87 1_555 1_555
H65 C87 1_555 1_555
C88 N15 1_555 1_555
H66 C88 1_555 1_555
C89 N18 1_555 1_555
H67 C89 1_555 1_555
C90 N15 1_555 1_555
H68 C90 1_555 1_555
C85 C86 1_555 1_555
C89 C90 1_555 1_555
N15_2 C87_2 1_555 1_555
N16 C88_2 1_555 1_555
C84_2 C83_2 1_555 1_555
C85_2 C84_2 1_555 1_555
H62_2 C85_2 1_555 1_555
C86_2 C81_2 1_555 1_555
H63_2 C86_2 1_555 1_555
C87_2 C84_2 1_555 1_555
H64_2 C87_2 1_555 1_555
H65_2 C87_2 1_555 1_555
C88_2 N15_2 1_555 1_555
H66_2 C88_2 1_555 1_555
C89_2 N16 1_555 1_555
H67_2 C89_2 1_555 1_555
C90_2 N15_2 1_555 1_555
H68_2 C90_2 1_555 1_555
Co9 N16 1_555 1_555
C85_2 C86_2 1_555 1_555
C89_2 C90_2 1_555 1_555
Co9 O5_2 1_555 1_555
N1_2 Co9 1_555 1_555
N2_2 C18_2 1_555 1_555
C18_2 N1_2 1_555 1_555
C19_2 N1_2 1_555 1_555
H8_2 C19_2 1_555 1_555
C20_2 N2_2 1_555 1_555
H9_2 C20_2 1_555 1_555
C21_2 N2_2 1_555 1_555
H11_2 C21_2 1_555 1_555
H12_2 C23_2 1_555 1_555
C19_2 C20_2 1_555 1_555
Co5 O1_2 1_555 1_555
O1_2 C1_2 1_555 1_555
O2_2 Co5 1_555 1_555
O3_2 H1_2 1_555 1_555
O4_2 C5_2 1_555 1_555
O21 C16_2 1_555 1_555
O8_2 C16_2 1_555 1_555
O9_2 C13_2 1_555 1_555
O23 C13_2 1_555 1_555
N5_2 Co5 1_555 1_555
N6_2 C32_2 1_555 1_555
N7_2 Co5 1_555 1_555
N8_2 C39_2 1_555 1_555
C1_2 O2_2 1_555 1_555
C2_2 C1_2 1_555 1_555
C3_2 C2_2 1_555 1_555
H2_2 C3_2 1_555 1_555
C4_2 C3_2 1_555 1_555
C5_2 O3_2 1_555 1_555
C6_2 C4_2 1_555 1_555
H3_2 C6_2 1_555 1_555
C7_2 C6_2 1_555 1_555
C8_2 O6_2 1_555 1_555
C9_2 C2_2 1_555 1_555
C10_2 C9_2 1_555 1_555
C11_2 C10_2 1_555 1_555
H4_2 C11_2 1_555 1_555
C12_2 C11_2 1_555 1_555
C13_2 C12_2 1_555 1_555
C14_2 C12_2 1_555 1_555
H5_2 C14_2 1_555 1_555
C15_2 C14_2 1_555 1_555
C16_2 C15_2 1_555 1_555
C17_2 C10_2 1_555 1_555
H6_2 C17_2 1_555 1_555
C32_2 N5_2 1_555 1_555
H21_2 C32_2 1_555 1_555
C33_2 N5_2 1_555 1_555
H22_2 C33_2 1_555 1_555
C34_2 N6_2 1_555 1_555
H23_2 C34_2 1_555 1_555
C35_2 N6_2 1_555 1_555
H24_2 C35_2 1_555 1_555
H25_2 C35_2 1_555 1_555
C36_2 C35_2 1_555 1_555
C37_2 C36_2 1_555 1_555
H26_2 C37_2 1_555 1_555
C38_2 C36_2 1_555 1_555
H27_2 C38_2 1_555 1_555
C39_2 N7_2 1_555 1_555
H28_2 C39_2 1_555 1_555
C40_2 N7_2 1_555 1_555
H29_2 C40_2 1_555 1_555
C41_2 N8_2 1_555 1_555
H30_2 C41_2 1_555 1_555
C42_2 N8_2 1_555 1_555
H31_2 C42_2 1_555 1_555
H32_2 C42_2 1_555 1_555
C43_2 C42_2 1_555 1_555
C44_2 C43_2 1_555 1_555
H33_2 C44_2 1_555 1_555
C59_2 C44_2 1_555 1_555
H48_2 C59_2 1_555 1_555
C4_2 C5_2 1_555 1_555
C7_2 C8_2 1_555 1_555
C7_2 C9_2 1_555 1_555
C15_2 C17_2 1_555 1_555
C33_2 C34_2 1_555 1_555
C40_2 C41_2 1_555 1_555
H60_2 C82_2 1_555 1_555

#END
