
###############################################################################
#
# This file contains modified crystal structure data generated from the
# MOF subset of the Cambridge Structural Database (CSD) v543 
# hosted by the Cambridge Crystallographic Data Centre (CCDC).
#
# This work is licensed under the Creative Commons
# Attribution-NonCommercial-ShareAlike 4.0 International License.
# To view a copy of this license, visit
# http://creativecommons.org/licenses/by-nc-sa/4.0/
# or send a letter to
# Creative Commons, PO Box 1866, Mountain View, CA 94042, USA.
#
# CIF created using the CSD Python API on 29 September 2022
# The structure has been converted into the P1 space group
# The structure has a 3D framework
# The original CSD entry AHOKIR01 is in the monoclinic crystal system
# The framework has been calculated to contain at least 10.0% void space
# The void calculation uses a probe of radius 1.32A, grid spacing 0.4
#
###############################################################################

data_AHOKIR01
_chemical_formula_moiety         '(C12 H16 Cu4 O13 P6)n'
_symmetry_cell_setting           triclinic
_symmetry_space_group_name_H-M   'P 1'
_symmetry_Int_Tables_number      1
_space_group_name_Hall           'P 1'
loop_
_symmetry_equiv_pos_site_id
_symmetry_equiv_pos_as_xyz
1 x,y,z
_cell_length_a                   20.036(4)
_cell_length_b                   6.6708(14)
_cell_length_c                   4.3999(10)
_cell_angle_alpha                90
_cell_angle_beta                 91.251(4)
_cell_angle_gamma                90
_cell_volume                     587.934
loop_
_atom_site_label
_atom_site_type_symbol
_atom_site_fract_x
_atom_site_fract_y
_atom_site_fract_z
O13 O 0.2245(5) -0.0000 0.255(2)
O14 O 0.3223(7) -0.0000 0.728(3)
Cu1 Cu 0.2500 0.2500 0.5000
P1 P 0.32578(17) 0.5000 0.0194(8)
O1 O 0.3185(3) 0.3096(11) 0.2079(14)
C2 C 0.4667(7) 0.5000 0.076(4)
H2 H 0.468(4) 0.429(13) 0.197(18)
O4 O 0.3185(3) 0.6904(11) 0.2079(14)
C4 C 0.5913(8) 0.5000 0.136(4)
O7 O 0.7245(5) 0.5000 0.255(2)
H4 H 0.592(4) 0.595(13) 0.23(2)
H5 H 0.592(4) 0.405(13) 0.23(2)
H8 H 0.468(4) 0.571(13) 0.197(18)
O8 O 0.1777(7) 0.5000 0.272(3)
Cu2 Cu 0.2500 0.7500 0.5000
O9 O 0.1815(3) 0.1904(11) 0.7921(14)
O10 O 0.2755(5) 0.5000 0.745(2)
Cu8 Cu 0.7500 0.7500 0.5000
Cu9 Cu 0.7500 0.2500 0.5000
O12 O 0.1815(3) 0.8096(11) 0.7921(14)
O13_2 O 0.2245(5) 1.0000 0.255(2)
O14_2 O 0.3223(7) 1.0000 0.728(3)
C1 C 0.4087(8) 0.5000 0.864(4)
H1 H 0.408(4) 0.405(13) 0.77(2)
H3 H 0.408(4) 0.595(13) 0.77(2)
C3 C 0.5333(7) 0.5000 0.924(4)
P2 P 0.67422(17) 0.5000 0.9806(8)
O5 O 0.6815(3) 0.6904(11) 0.7921(14)
O6 O 0.6815(3) 0.3096(11) 0.7921(14)
H6 H 0.532(4) 0.571(13) 0.803(18)
H7 H 0.532(4) 0.429(13) 0.803(18)
C4_2 C 0.0913(8) -0.0000 0.136(4)
H4_2 H 0.092(4) 0.095(13) 0.23(2)
C3_2 C 0.0333(7) -0.0000 0.924(4)
P2_2 P 0.17422(17) -0.0000 0.9806(8)
H6_2 H 0.032(4) 0.071(13) 0.803(18)
C4_3 C 0.0913(8) 1.0000 0.136(4)
H5_2 H 0.092(4) 0.905(13) 0.23(2)
C3_3 C 0.0333(7) 1.0000 0.924(4)
P2_3 P 0.17422(17) 1.0000 0.9806(8)
H7_2 H 0.032(4) 0.929(13) 0.803(18)
P1_2 P 0.82578(17) -0.0000 0.0194(8)
C2_2 C 0.9667(7) -0.0000 0.076(4)
O4_2 O 0.8185(3) 0.1904(11) 0.2079(14)
H8_2 H 0.968(4) 0.071(13) 0.197(18)
O8_2 O 0.6777(7) -0.0000 0.272(3)
O10_2 O 0.7755(5) -0.0000 0.745(2)
O14_3 O 0.8223(7) 0.5000 0.728(3)
C1_2 C 0.9087(8) -0.0000 0.864(4)
H3_2 H 0.908(4) 0.095(13) 0.77(2)
P1_3 P 0.82578(17) 1.0000 0.0194(8)
O1_2 O 0.8185(3) 0.8096(11) 0.2079(14)
C2_3 C 0.9667(7) 1.0000 0.076(4)
H2_2 H 0.968(4) 0.929(13) 0.197(18)
O8_3 O 0.6777(7) 1.0000 0.272(3)
O10_3 O 0.7755(5) 1.0000 0.745(2)
C1_3 C 0.9087(8) 1.0000 0.864(4)
H1_2 H 0.908(4) 0.905(13) 0.77(2)
loop_
_geom_bond_atom_site_label_1
_geom_bond_atom_site_label_2
_geom_bond_site_symmetry_1
_geom_bond_site_symmetry_2
Cu1 O1 1_555 1_555
P1 O1 1_555 1_555
O14 Cu1 1_555 1_555
H2 C2 1_555 1_555
O4 P1 1_555 1_555
H4 C4 1_555 1_555
H5 C4 1_555 1_555
H8 C2 1_555 1_555
O8 Cu1 1_555 1_555
Cu2 O4 1_555 1_555
O9 Cu1 1_555 1_555
O10 Cu1 1_555 1_555
O13 Cu1 1_555 1_555
Cu8 O7 1_555 1_555
Cu9 O7 1_555 1_555
O12 Cu2 1_555 1_555
O13_2 Cu2 1_555 1_555
O14_2 Cu2 1_555 1_555
O8 Cu2 1_555 1_555
Cu2 O10 1_555 1_555
H1 C1 1_555 1_555
H3 C1 1_555 1_555
O5 P2 1_555 1_555
O6 P2 1_555 1_555
H6 C3 1_555 1_555
H7 C3 1_555 1_555
Cu8 O5 1_555 1_555
Cu9 O6 1_555 1_555
H4_2 C4_2 1_555 1_555
O9 P2_2 1_555 1_555
H6_2 C3_2 1_555 1_555
H5_2 C4_3 1_555 1_555
O12 P2_3 1_555 1_555
H7_2 C3_3 1_555 1_555
O4_2 P1_2 1_555 1_555
H8_2 C2_2 1_555 1_555
Cu9 O4_2 1_555 1_555
O14_3 Cu9 1_555 1_555
O8_2 Cu9 1_555 1_555
Cu9 O10_2 1_555 1_555
H3_2 C1_2 1_555 1_555
Cu8 O1_2 1_555 1_555
P1_3 O1_2 1_555 1_555
O14_3 Cu8 1_555 1_555
H2_2 C2_3 1_555 1_555
O8_3 Cu8 1_555 1_555
O10_3 Cu8 1_555 1_555
H1_2 C1_3 1_555 1_555

#END
