
###############################################################################
#
# This file contains modified crystal structure data generated from the
# MOF subset of the Cambridge Structural Database (CSD) v543 
# hosted by the Cambridge Crystallographic Data Centre (CCDC).
#
# This work is licensed under the Creative Commons
# Attribution-NonCommercial-ShareAlike 4.0 International License.
# To view a copy of this license, visit
# http://creativecommons.org/licenses/by-nc-sa/4.0/
# or send a letter to
# Creative Commons, PO Box 1866, Mountain View, CA 94042, USA.
#
# CIF created using the CSD Python API on 29 September 2022
# The structure has been converted into the P1 space group
# The structure has a 3D framework
# The original CSD entry AHUTIH is in the monoclinic crystal system
# The framework has been calculated to contain at least 10.0% void space
# The void calculation uses a probe of radius 1.32A, grid spacing 0.4
#
###############################################################################

data_AHUTIH
_chemical_formula_moiety         '(C20 H16 La4 O34)n'
_symmetry_cell_setting           triclinic
_symmetry_space_group_name_H-M   'P 1'
_symmetry_Int_Tables_number      1
_space_group_name_Hall           'P 1'
loop_
_symmetry_equiv_pos_site_id
_symmetry_equiv_pos_as_xyz
1 x,y,z
_cell_length_a                   6.1071(10)
_cell_length_b                   7.6962(12)
_cell_length_c                   22.702(3)
_cell_angle_alpha                90
_cell_angle_beta                 91.645(2)
_cell_angle_gamma                90
_cell_volume                     1066.59
loop_
_atom_site_label
_atom_site_type_symbol
_atom_site_fract_x
_atom_site_fract_y
_atom_site_fract_z
La7 La 0.45486(7) 0.00176(6) 0.853946(17)
O18 O 0.1534(8) 0.7905(7) 0.8334(2)
O23 O 0.6594(8) 0.1306(6) 0.0464(2)
C2 C 0.1825(12) 0.0370(9) 0.7137(3)
C3 C 0.1781(12) 0.1401(10) 0.6570(3)
H2 H 0.1138 0.0673 0.6256
C4 C 0.0467(11) 0.3058(10) 0.6603(3)
O3 O 0.2202(7) 0.1435(6) 0.7653(2)
O4 O 0.3998(8) 0.1854(6) 0.6414(2)
O5 O 0.1436(8) 0.4476(6) 0.6546(2)
O9 O 0.1488(8) 0.2066(7) 0.8889(2)
H3 H 0.0619 0.1428 0.9079
H4 H 0.1684 0.2976 0.9096
C6 C 0.6399(12) 0.3969(9) 0.7886(3)
C7 C 0.8175(12) 0.5370(9) 0.7863(3)
H5 H 0.9596 0.4793 0.7827
C8 C 0.8219(12) 0.6401(10) 0.8430(3)
H6 H 0.8862 0.5673 0.8744
C9 C 0.9533(11) 0.8058(10) 0.8397(3)
C10 C 0.5838(12) 0.0751(10) 0.9992(3)
La2 La 0.54514(7) 0.50176(6) 0.646054(17)
O10 O 0.4894(8) 0.3968(6) 0.7492(2)
O11 O 0.6500(9) 0.2872(6) 0.8299(2)
O12 O 0.3500(9) 0.7872(6) 0.6701(2)
O13 O 0.7798(7) 0.6435(6) 0.7347(2)
O14 O 0.6002(8) 0.6854(6) 0.8586(2)
O16 O 0.8564(8) 0.9476(6) 0.8454(2)
O20 O 0.8466(8) 0.2905(7) 0.6666(2)
O21 O 0.6236(8) 0.1323(7) 0.9480(2)
O22 O 0.3764(8) 0.6323(7) 0.5520(2)
O24 O 0.6594(8) 0.3694(6) 0.5464(2)
O25 O 0.8512(8) 0.7066(7) 0.6111(2)
H7 H 0.9381 0.6428 0.5921
H8 H 0.8316 0.7976 0.5904
C5 C 0.4162(12) 0.9249(10) 0.0008(3)
O7 O 0.3764(8) 0.8677(7) 0.0520(2)
La5 La 0.54514(7) 0.99824(6) 0.146054(17)
C1 C 0.3601(12) 0.8969(9) 0.7114(3)
H1 H 0.0404 0.9793 0.7173
O1 O 0.5106(8) 0.8968(6) 0.7508(2)
O8 O 0.3406(8) 0.8694(6) 0.9536(2)
C5_2 C 0.5838(12) 0.4249(10) 0.4992(3)
O7_2 O 0.6236(8) 0.3677(7) 0.4480(2)
C10_2 C 0.4162(12) 0.5751(10) 0.5008(3)
La5_2 La 0.45486(7) 0.49824(6) 0.353946(17)
O23_2 O 0.3406(8) 0.6306(6) 0.4536(2)
O6 O 0.1534(8) 0.7095(7) 0.3334(2)
C1_2 C 0.6399(12) 0.1031(9) 0.2886(3)
H1_2 H 0.9596 0.0207 0.2827
O1_2 O 0.4894(8) 0.1032(6) 0.2492(2)
O2 O 0.6500(9) 0.2128(6) 0.3299(2)
O15 O 0.3998(8) 0.3146(6) 0.1414(2)
O17 O 0.1436(8) 0.0524(6) 0.1546(2)
O19 O 0.8466(8) 0.2095(7) 0.1666(2)
C2_2 C 0.8175(12) 0.9630(9) 0.2863(3)
C3_2 C 0.8219(12) 0.8599(10) 0.3430(3)
H2_2 H 0.8862 0.9327 0.3744
C4_2 C 0.9533(11) 0.6942(10) 0.3397(3)
O3_2 O 0.7798(7) 0.8565(6) 0.2347(2)
O4_2 O 0.6002(8) 0.8146(6) 0.3586(2)
O5_2 O 0.8564(8) 0.5524(6) 0.3454(2)
O9_2 O 0.8512(8) 0.7934(7) 0.1111(2)
H3_2 H 0.9381 0.8572 0.0921
H4_2 H 0.8316 0.7024 0.0904
C6_2 C 0.3601(12) 0.6031(9) 0.2114(3)
C7_2 C 0.1825(12) 0.4630(9) 0.2137(3)
H5_2 H 0.0404 0.5207 0.2173
C8_2 C 0.1781(12) 0.3599(10) 0.1570(3)
H6_2 H 0.1138 0.4327 0.1256
C9_2 C 0.0467(11) 0.1942(10) 0.1603(3)
O10_2 O 0.5106(8) 0.6032(6) 0.2508(2)
O11_2 O 0.3500(9) 0.7128(6) 0.1701(2)
O13_2 O 0.2202(7) 0.3565(6) 0.2653(2)
O25_2 O 0.1488(8) 0.2934(7) 0.3889(2)
H7_2 H 0.0619 0.3572 0.4079
H8_2 H 0.1684 0.2024 0.4096
loop_
_geom_bond_atom_site_label_1
_geom_bond_atom_site_label_2
_geom_bond_site_symmetry_1
_geom_bond_site_symmetry_2
C3 C2 1_555 1_555
H2 C3 1_555 1_555
C4 C3 1_555 1_555
O3 C2 1_555 1_555
O4 C3 1_555 1_555
O5 C4 1_555 1_555
O9 La7 1_555 1_555
H3 O9 1_555 1_555
H4 O9 1_555 1_555
C6 C7 1_555 1_555
C7 H5 1_555 1_555
C8 C7 1_555 1_555
H6 C8 1_555 1_555
C9 C8 1_555 1_555
La2 O4 1_555 1_555
O10 C6 1_555 1_555
O11 La7 1_555 1_555
O12 La2 1_555 1_555
O13 C7 1_555 1_555
O14 C8 1_555 1_555
O16 C9 1_555 1_555
O20 La2 1_555 1_555
O21 La7 1_555 1_555
O22 La2 1_555 1_555
O24 La2 1_555 1_555
O25 La2 1_555 1_555
H7 O25 1_555 1_555
H8 O25 1_555 1_555
La7 O3 1_555 1_555
O5 La2 1_555 1_555
C6 O11 1_555 1_555
C10 O21 1_555 1_555
La2 O10 1_555 1_555
La2 O13 1_555 1_555
C5 O7 1_555 1_555
O7 La5 1_555 1_555
O1 C1 1_555 1_555
O12 C1 1_555 1_555
C5_2 O7_2 1_555 1_555
O7_2 La5_2 1_555 1_555
O24 C5_2 1_555 1_555
C10_2 C5_2 1_555 1_555
La5_2 O23_2 1_555 1_555
O23_2 C10_2 1_555 1_555
C10_2 O22 1_555 1_555
La5_2 O6 1_555 1_555
O1_2 C1_2 1_555 1_555
O2 C1_2 1_555 1_555
La5_2 O2 1_555 1_555
C3_2 C2_2 1_555 1_555
H2_2 C3_2 1_555 1_555
C4_2 C3_2 1_555 1_555
O3_2 C2_2 1_555 1_555
O4_2 C3_2 1_555 1_555
O5_2 C4_2 1_555 1_555
O9_2 La5 1_555 1_555
H3_2 O9_2 1_555 1_555
H4_2 O9_2 1_555 1_555
C6_2 C7_2 1_555 1_555
C7_2 H5_2 1_555 1_555
C8_2 C7_2 1_555 1_555
H6_2 C8_2 1_555 1_555
C9_2 C8_2 1_555 1_555
La5_2 O4_2 1_555 1_555
O10_2 C6_2 1_555 1_555
O11_2 La5 1_555 1_555
O13_2 C7_2 1_555 1_555
O15 C8_2 1_555 1_555
O17 C9_2 1_555 1_555
O25_2 La5_2 1_555 1_555
H7_2 O25_2 1_555 1_555
H8_2 O25_2 1_555 1_555
La5 O3_2 1_555 1_555
O5_2 La5_2 1_555 1_555
C6_2 O11_2 1_555 1_555
La5_2 O10_2 1_555 1_555
La5_2 O13_2 1_555 1_555

#END
