
###############################################################################
#
# This file contains modified crystal structure data generated from the
# MOF subset of the Cambridge Structural Database (CSD) v543 
# hosted by the Cambridge Crystallographic Data Centre (CCDC).
#
# This work is licensed under the Creative Commons
# Attribution-NonCommercial-ShareAlike 4.0 International License.
# To view a copy of this license, visit
# http://creativecommons.org/licenses/by-nc-sa/4.0/
# or send a letter to
# Creative Commons, PO Box 1866, Mountain View, CA 94042, USA.
#
# CIF created using the CSD Python API on 29 September 2022
# The structure has been converted into the P1 space group
# The structure has a 3D framework
# The original CSD entry AJABIX is in the rhombohedral crystal system
# The framework has been calculated to contain at least 10.0% void space
# The void calculation uses a probe of radius 1.32A, grid spacing 0.4
#
###############################################################################

data_AJABIX
_chemical_formula_moiety         '(C108 H180 Cu18 N54)n'
_symmetry_cell_setting           triclinic
_symmetry_space_group_name_H-M   'P 1'
_symmetry_Int_Tables_number      1
_space_group_name_Hall           'P 1'
loop_
_symmetry_equiv_pos_site_id
_symmetry_equiv_pos_as_xyz
1 x,y,z
_cell_length_a                   19.5289(8)
_cell_length_b                   19.5289(8)
_cell_length_c                   14.2935(8)
_cell_angle_alpha                90
_cell_angle_beta                 90
_cell_angle_gamma                120
_cell_volume                     4720.9
loop_
_atom_site_label
_atom_site_type_symbol
_atom_site_fract_x
_atom_site_fract_y
_atom_site_fract_z
Cu1 Cu 0.41475(2) 0.45039(2) 0.56207(2)
N1 N 0.50644(15) 0.54601(15) 0.61372(17)
N2 N 0.57526(14) 0.58570(14) 0.56113(17)
N3 N 0.59045(14) 0.65454(14) 0.69029(17)
C1 C 0.51814(18) 0.58880(17) 0.6902(2)
C2 C 0.46000(19) 0.56830(19) 0.7675(2)
H1 H 0.4842 0.5640 0.8265
H2 H 0.4134 0.5159 0.7545
C3 C 0.4326(3) 0.6278(3) 0.7811(3)
H3 H 0.3956 0.6115 0.8339
H4 H 0.4060 0.6305 0.7242
H5 H 0.4783 0.6800 0.7941
C4 C 0.62340(17) 0.64969(17) 0.6097(2)
C5 C 0.70508(18) 0.70943(19) 0.5795(2)
H6 H 0.7087 0.7616 0.5734
H7 H 0.7156 0.6945 0.5173
C6 C 0.7675(2) 0.7162(3) 0.6478(3)
H8 H 0.8199 0.7559 0.6252
H9 H 0.7649 0.6649 0.6531
H10 H 0.7580 0.7321 0.7093
Cu2 Cu 0.58525(2) 0.54961(2) 0.43793(2)
Cu3 Cu 0.63103(3) 0.74808(2) 0.77126(2)
N4 N 0.42474(14) 0.41430(14) 0.43887(17)
N5 N 0.32121(14) 0.39742(20) 0.64304(17)
H7_2 H 0.3055 0.0211 0.5173
C6_2 C 0.2838(3) 0.0513(4) 0.6478(3)
H8_2 H 0.2441 0.0640 0.6252
H9_2 H 0.3351 0.1000 0.6531
H10_2 H 0.2679 0.0259 0.7093
Cu2_2 Cu 0.45039(2) 0.03564(3) 0.43793(2)
N4_2 N 0.58570(14) 0.01044(20) 0.43887(17)
Cu1_2 Cu 0.54961(2) 0.96436(3) 0.56207(2)
N1_2 N 0.45399(15) 0.96043(21) 0.61372(17)
N2_2 N 0.41430(14) 0.98956(20) 0.56113(17)
N3_2 N 0.34546(14) 0.93591(20) 0.69029(17)
C1_2 C 0.41120(17) 0.92934(25) 0.6902(2)
C2_2 C 0.43170(19) 0.89170(27) 0.7675(2)
H1_2 H 0.4360 0.9202 0.8265
H2_2 H 0.4841 0.8975 0.7545
C3_2 C 0.3722(3) 0.8048(4) 0.7811(3)
H3_2 H 0.3885 0.7841 0.8339
H4_2 H 0.3695 0.7755 0.7242
H5_2 H 0.3200 0.7983 0.7941
C4_2 C 0.35031(17) 0.97371(24) 0.6097(2)
C5_2 C 0.29057(19) 0.99565(26) 0.5795(2)
H6_2 H 0.2384 0.9471 0.5734
Cu3_2 Cu 0.25192(2) 0.88294(4) 0.77126(2)
N5_2 N 0.60258(20) 0.92378(24) 0.64304(17)
Cu1_3 Cu 0.03564(3) 0.58525(2) 0.56207(2)
N1_3 N 0.03957(21) 0.49356(15) 0.61372(17)
N2_3 N 0.01044(20) 0.42474(14) 0.56113(17)
N3_3 N 0.06409(20) 0.40955(14) 0.69029(17)
C1_3 C 0.07066(25) 0.48186(18) 0.6902(2)
C2_3 C 0.10830(27) 0.54000(19) 0.7675(2)
H1_3 H 0.0798 0.5158 0.8265
H2_3 H 0.1025 0.5866 0.7545
C3_3 C 0.1952(4) 0.5674(3) 0.7811(3)
H3_3 H 0.2159 0.6044 0.8339
H4_3 H 0.2245 0.5940 0.7242
H5_3 H 0.2017 0.5217 0.7941
C4_3 C 0.02629(24) 0.37660(17) 0.6097(2)
C5_3 C 0.00435(26) 0.29492(18) 0.5795(2)
H6_3 H 0.0529 0.2913 0.5734
Cu3_3 Cu 0.11706(4) 0.36897(3) 0.77126(2)
N5_3 N 0.07622(24) 0.67879(14) 0.64304(17)
H7_3 H 0.9789 0.2844 0.5173
C6_3 C 0.9487(4) 0.2325(2) 0.6478(3)
H8_3 H 0.9360 0.1801 0.6252
H9_3 H 0.9000 0.2351 0.6531
H10_3 H 0.9741 0.2420 0.7093
Cu2_3 Cu 0.96436(3) 0.41475(2) 0.43793(2)
N4_3 N 0.98956(20) 0.57526(14) 0.43887(17)
H5_4 H 0.1450 0.0133 0.1274
H10_4 H 0.4247 0.0654 0.0426
Cu3_4 Cu 0.29769(3) 0.08142(2) 0.10460(2)
Cu1_4 Cu 0.08142(2) 0.78372(2) 0.89540(2)
N1_4 N 0.17311(15) 0.87934(15) 0.94705(17)
N2_4 N 0.24193(14) 0.91903(14) 0.89446(17)
C4_4 C 0.29007(17) 0.98302(17) 0.9430(2)
H9_4 H 0.4316 0.9982 0.9864
N4_4 N 0.09141(14) 0.74763(14) 0.77220(17)
Cu1_5 Cu 0.21628(2) 0.29769(3) 0.89540(2)
N1_5 N 0.12066(15) 0.29376(21) 0.94705(17)
N2_5 N 0.08097(14) 0.32289(20) 0.89446(17)
C4_5 C 0.01698(17) 0.30704(24) 0.9430(2)
H9_5 H 0.0018 0.4333 0.9864
N4_5 N 0.25237(14) 0.34377(20) 0.77220(17)
N5_4 N 0.26924(20) 0.25712(24) 0.97638(17)
H5_5 H 0.9867 0.1316 0.1274
H10_5 H 0.9346 0.3592 0.0426
Cu3_5 Cu 0.91858(2) 0.21628(4) 0.10460(2)
N3_4 N 0.73076(20) 0.74288(14) 0.02362(17)
C1_4 C 0.73733(25) 0.81519(18) 0.0235(2)
C2_4 C 0.77497(27) 0.87333(19) 0.1008(2)
H1_4 H 0.7465 0.8491 0.1598
H2_4 H 0.7692 0.9199 0.0878
C3_4 C 0.8619(4) 0.9007(3) 0.1144(3)
H3_4 H 0.8826 0.9377 0.1672
H4_4 H 0.8912 0.9273 0.0575
H5_6 H 0.8684 0.8550 0.1274
H10_6 H 0.6408 0.5753 0.0426
Cu3_6 Cu 0.78372(4) 0.70231(3) 0.10460(2)
Cu1_6 Cu 0.70231(3) 0.91858(2) 0.89540(2)
N1_6 N 0.70624(21) 0.82689(15) 0.94705(17)
N2_6 N 0.67711(20) 0.75807(14) 0.89446(17)
C4_6 C 0.69296(24) 0.70993(17) 0.9430(2)
C5_4 C 0.67102(26) 0.62825(18) 0.9128(2)
H6_4 H 0.7196 0.6246 0.9067
H7_4 H 0.6456 0.6177 0.8506
C6_4 C 0.6154(4) 0.5658(2) 0.9811(3)
H8_4 H 0.6027 0.5134 0.9585
H9_6 H 0.5667 0.5684 0.9864
N4_6 N 0.65623(20) 0.90859(14) 0.77220(17)
Cu1_7 Cu 0.74808(2) 0.11706(2) 0.22874(2)
N1_7 N 0.83977(15) 0.21268(15) 0.28039(17)
N2_7 N 0.90859(14) 0.25237(14) 0.22780(17)
N3_5 N 0.92378(14) 0.32121(14) 0.35696(17)
C1_5 C 0.85147(18) 0.25547(17) 0.3569(2)
C2_5 C 0.79333(19) 0.23497(19) 0.4342(2)
H1_5 H 0.8175 0.2307 0.4932
H2_5 H 0.7467 0.1826 0.4212
C3_5 C 0.7659(3) 0.2945(3) 0.4478(3)
H3_5 H 0.7289 0.2782 0.5006
H4_5 H 0.7393 0.2972 0.3909
H5_7 H 0.8116 0.3467 0.4608
C4_7 C 0.95673(17) 0.31636(17) 0.2764(2)
N4_7 N 0.75807(14) 0.08097(14) 0.10554(17)
N5_5 N 0.65454(14) 0.06409(20) 0.30971(17)
Cu1_8 Cu 0.88294(2) 0.63103(3) 0.22874(2)
N1_8 N 0.78732(15) 0.62710(21) 0.28039(17)
N2_8 N 0.74763(14) 0.65623(20) 0.22780(17)
N3_6 N 0.67879(14) 0.60258(20) 0.35696(17)
C1_6 C 0.74453(17) 0.59601(25) 0.3569(2)
C2_6 C 0.76503(19) 0.55837(27) 0.4342(2)
H1_6 H 0.7693 0.5869 0.4932
H2_6 H 0.8174 0.5642 0.4212
C3_6 C 0.7055(3) 0.4715(4) 0.4478(3)
H3_6 H 0.7218 0.4508 0.5006
H4_6 H 0.7028 0.4422 0.3909
H5_8 H 0.6533 0.4650 0.4608
C4_8 C 0.68364(17) 0.64038(24) 0.2764(2)
C5_5 C 0.62390(19) 0.66232(26) 0.2462(2)
H6_5 H 0.5717 0.6138 0.2401
H7_5 H 0.6388 0.6878 0.1840
C6_5 C 0.6171(3) 0.7180(4) 0.3145(3)
H8_5 H 0.5774 0.7307 0.2919
H9_7 H 0.6684 0.7667 0.3198
H10_7 H 0.6012 0.6926 0.3760
N4_8 N 0.91903(14) 0.67711(20) 0.10554(17)
N5_6 N 0.93591(20) 0.59045(24) 0.30971(17)
Cu1_9 Cu 0.36897(3) 0.25192(2) 0.22874(2)
N1_9 N 0.37290(21) 0.16023(15) 0.28039(17)
N2_9 N 0.34377(20) 0.09141(14) 0.22780(17)
N3_7 N 0.39742(20) 0.07622(14) 0.35696(17)
C1_7 C 0.40399(25) 0.14853(18) 0.3569(2)
C2_7 C 0.44163(27) 0.20667(19) 0.4342(2)
H1_7 H 0.4131 0.1825 0.4932
H2_7 H 0.4358 0.2533 0.4212
C3_7 C 0.5285(4) 0.2341(3) 0.4478(3)
H3_7 H 0.5492 0.2711 0.5006
H4_7 H 0.5578 0.2607 0.3909
H5_9 H 0.5350 0.1884 0.4608
C4_9 C 0.35962(24) 0.04327(17) 0.2764(2)
N4_9 N 0.32289(20) 0.24193(14) 0.10554(17)
N5_7 N 0.40955(24) 0.34546(14) 0.30971(17)
N1_10 N 0.49356(15) 0.45399(15) 0.38628(17)
C1_8 C 0.48186(18) 0.41120(17) 0.3098(2)
C2_8 C 0.54000(19) 0.43170(19) 0.2325(2)
H1_8 H 0.5158 0.4360 0.1735
H2_8 H 0.5866 0.4841 0.2455
C3_8 C 0.5674(3) 0.3722(3) 0.2189(3)
H3_8 H 0.6044 0.3885 0.1661
H4_8 H 0.5940 0.3695 0.2758
H5_10 H 0.5217 0.3200 0.2059
C4_10 C 0.37660(17) 0.35031(17) 0.3903(2)
C5_6 C 0.29492(18) 0.29057(19) 0.4205(2)
H6_6 H 0.2913 0.2384 0.4266
H7_6 H 0.2844 0.3055 0.4827
C6_6 C 0.2325(2) 0.2838(3) 0.3522(3)
H8_6 H 0.1801 0.2441 0.3748
H9_8 H 0.2351 0.3351 0.3469
H10_8 H 0.2420 0.2679 0.2907
N1_11 N 0.54601(15) 0.03957(21) 0.38628(17)
C1_9 C 0.58880(17) 0.07066(25) 0.3098(2)
C2_9 C 0.56830(19) 0.10830(27) 0.2325(2)
H1_9 H 0.5640 0.0798 0.1735
H2_9 H 0.5159 0.1025 0.2455
C3_9 C 0.6278(3) 0.1952(4) 0.2189(3)
H3_9 H 0.6115 0.2159 0.1661
H4_9 H 0.6305 0.2245 0.2758
H5_11 H 0.6800 0.2017 0.2059
C4_11 C 0.64969(17) 0.02629(24) 0.3903(2)
C5_7 C 0.70943(19) 0.00435(26) 0.4205(2)
H6_7 H 0.7616 0.0529 0.4266
H7_7 H 0.6945 0.9789 0.4827
C6_7 C 0.7162(3) 0.9487(4) 0.3522(3)
H8_7 H 0.7559 0.9360 0.3748
H9_9 H 0.6649 0.9000 0.3469
H10_9 H 0.7321 0.9741 0.2907
H7_8 H 0.0211 0.7156 0.4827
C6_8 C 0.0513(4) 0.7675(2) 0.3522(3)
H8_8 H 0.0640 0.8199 0.3748
H9_10 H 0.1000 0.7649 0.3469
H10_10 H 0.0259 0.7580 0.2907
N1_12 N 0.96043(21) 0.50644(15) 0.38628(17)
C1_10 C 0.92934(25) 0.51814(18) 0.3098(2)
C2_10 C 0.89170(27) 0.46000(19) 0.2325(2)
H1_10 H 0.9202 0.4842 0.1735
H2_10 H 0.8975 0.4134 0.2455
C3_10 C 0.8048(4) 0.4326(3) 0.2189(3)
H3_10 H 0.7841 0.3956 0.1661
H4_10 H 0.7755 0.4060 0.2758
H5_12 H 0.7983 0.4783 0.2059
C4_12 C 0.97371(24) 0.62340(17) 0.3903(2)
C5_8 C 0.99565(26) 0.70508(18) 0.4205(2)
H6_8 H 0.9471 0.7087 0.4266
N1_13 N 0.82689(15) 0.12066(15) 0.05295(17)
C4_13 C 0.70993(17) 0.01698(17) 0.0570(2)
H9_11 H 0.5684 0.0018 0.0136
H5_13 H 0.8550 0.9867 0.8726
H10_11 H 0.5753 0.9346 0.9574
H5_14 H 0.0133 0.8684 0.8726
H10_12 H 0.0654 0.6408 0.9574
N1_14 N 0.87934(15) 0.70624(21) 0.05295(17)
C4_14 C 0.98302(17) 0.69296(24) 0.0570(2)
H9_12 H 0.9982 0.5667 0.0136
N1_15 N 0.29376(21) 0.17311(15) 0.05295(17)
C4_15 C 0.30704(24) 0.29007(17) 0.0570(2)
C5_9 C 0.32898(26) 0.37175(18) 0.0872(2)
H6_9 H 0.2804 0.3754 0.0933
H7_9 H 0.3544 0.3823 0.1494
C6_9 C 0.3846(4) 0.4342(2) 0.0189(3)
H8_9 H 0.3973 0.4866 0.0415
H9_13 H 0.4333 0.4316 0.0136
C1_11 C 0.26267(25) 0.18481(18) 0.9765(2)
C2_11 C 0.22503(27) 0.12667(19) 0.8992(2)
H1_11 H 0.2535 0.1509 0.8402
H2_11 H 0.2308 0.0801 0.9122
C3_11 C 0.1381(4) 0.0993(3) 0.8856(3)
H3_11 H 0.1174 0.0623 0.8328
H4_11 H 0.1088 0.0727 0.9425
H5_15 H 0.1316 0.1450 0.8726
H10_13 H 0.3592 0.4247 0.9574
N1_16 N 0.16023(15) 0.78732(15) 0.71961(17)
C1_12 C 0.14853(18) 0.74453(17) 0.6431(2)
C2_12 C 0.20667(19) 0.76503(19) 0.5658(2)
H1_12 H 0.1825 0.7693 0.5068
H2_12 H 0.2533 0.8174 0.5788
C3_12 C 0.2341(3) 0.7055(3) 0.5522(3)
H3_12 H 0.2711 0.7218 0.4994
H4_12 H 0.2607 0.7028 0.6091
H5_16 H 0.1884 0.6533 0.5392
C4_16 C 0.04327(17) 0.68364(17) 0.7236(2)
N1_17 N 0.21268(15) 0.37290(21) 0.71961(17)
C1_13 C 0.25547(17) 0.40399(25) 0.6431(2)
C2_13 C 0.23497(19) 0.44163(27) 0.5658(2)
H1_13 H 0.2307 0.4131 0.5068
H2_13 H 0.1826 0.4358 0.5788
C3_13 C 0.2945(3) 0.5285(4) 0.5522(3)
H3_13 H 0.2782 0.5492 0.4994
H4_13 H 0.2972 0.5578 0.6091
H5_17 H 0.3467 0.5350 0.5392
C4_17 C 0.31636(17) 0.35962(24) 0.7236(2)
C5_10 C 0.37610(19) 0.33768(26) 0.7538(2)
H6_10 H 0.4283 0.3862 0.7599
H7_10 H 0.3612 0.3122 0.8160
C6_10 C 0.3829(3) 0.2820(4) 0.6855(3)
H8_10 H 0.4226 0.2693 0.7081
H9_14 H 0.3316 0.2333 0.6802
H10_14 H 0.3988 0.3074 0.6240
N1_18 N 0.62710(21) 0.83977(15) 0.71961(17)
C1_14 C 0.59601(25) 0.85147(18) 0.6431(2)
C2_14 C 0.55837(27) 0.79333(19) 0.5658(2)
H1_14 H 0.5869 0.8175 0.5068
H2_14 H 0.5642 0.7467 0.5788
C3_14 C 0.4715(4) 0.7659(3) 0.5522(3)
H3_14 H 0.4508 0.7289 0.4994
H4_14 H 0.4422 0.7393 0.6091
H5_18 H 0.4650 0.8116 0.5392
C4_18 C 0.64038(24) 0.95673(17) 0.7236(2)
C5_11 C 0.37175(18) 0.04276(19) 0.9128(2)
H6_11 H 0.3754 0.0949 0.9067
H7_11 H 0.3823 0.0278 0.8506
C6_11 C 0.4342(2) 0.0495(3) 0.9811(3)
H8_11 H 0.4866 0.0892 0.9585
N3_8 N 0.25712(14) 0.98787(14) 0.02362(17)
C1_15 C 0.18481(18) 0.92213(17) 0.0235(2)
C2_15 C 0.12667(19) 0.90163(19) 0.1008(2)
H1_15 H 0.1509 0.8973 0.1598
H2_15 H 0.0801 0.8492 0.0878
C3_15 C 0.0993(3) 0.9611(3) 0.1144(3)
H3_15 H 0.0623 0.9448 0.1672
H4_15 H 0.0727 0.9638 0.0575
N5_8 N 0.98787(14) 0.73076(20) 0.97638(17)
C1_16 C 0.92213(17) 0.73733(25) 0.9765(2)
C2_16 C 0.90163(19) 0.77497(27) 0.8992(2)
H1_16 H 0.8973 0.7465 0.8402
H2_16 H 0.8492 0.7692 0.9122
C3_16 C 0.9611(3) 0.8619(4) 0.8856(3)
H3_16 H 0.9448 0.8826 0.8328
H4_16 H 0.9638 0.8912 0.9425
N3_9 N 0.01213(14) 0.26924(20) 0.02362(17)
C1_17 C 0.07787(17) 0.26267(25) 0.0235(2)
C2_17 C 0.09837(19) 0.22503(27) 0.1008(2)
H1_17 H 0.1027 0.2535 0.1598
H2_17 H 0.1508 0.2308 0.0878
C3_17 C 0.0389(3) 0.1381(4) 0.1144(3)
H3_17 H 0.0552 0.1174 0.1672
H4_17 H 0.0362 0.1088 0.0575
C5_12 C 0.95724(19) 0.32898(26) 0.9128(2)
H6_12 H 0.9051 0.2804 0.9067
H7_12 H 0.9722 0.3544 0.8506
C6_12 C 0.9505(3) 0.3846(4) 0.9811(3)
H8_12 H 0.9108 0.3973 0.9585
N5_9 N 0.74288(24) 0.01213(14) 0.97638(17)
C1_18 C 0.81519(18) 0.07787(17) 0.9765(2)
C2_18 C 0.87333(19) 0.09837(19) 0.8992(2)
H1_18 H 0.8491 0.1027 0.8402
H2_18 H 0.9199 0.1508 0.9122
C3_18 C 0.9007(3) 0.0389(3) 0.8856(3)
H3_18 H 0.9377 0.0552 0.8328
H4_18 H 0.9273 0.0362 0.9425
C5_13 C 0.03841(18) 0.37610(19) 0.2462(2)
H6_13 H 0.0420 0.4283 0.2401
H7_13 H 0.0489 0.3612 0.1840
C6_13 C 0.1008(2) 0.3829(3) 0.3145(3)
H8_13 H 0.1532 0.4226 0.2919
H9_15 H 0.0982 0.3316 0.3198
H10_15 H 0.0913 0.3988 0.3760
C5_14 C 0.33768(26) 0.96159(18) 0.2462(2)
H6_14 H 0.3862 0.9580 0.2401
H7_14 H 0.3122 0.9511 0.1840
C6_14 C 0.2820(4) 0.8992(2) 0.3145(3)
H8_14 H 0.2693 0.8468 0.2919
H9_16 H 0.2333 0.9018 0.3198
H10_16 H 0.3074 0.9087 0.3760
C5_15 C 0.62825(18) 0.95724(19) 0.0872(2)
H6_15 H 0.6246 0.9051 0.0933
H7_15 H 0.6177 0.9722 0.1494
C6_15 C 0.5658(2) 0.9505(3) 0.0189(3)
H8_15 H 0.5134 0.9108 0.0415
C5_16 C 0.04276(19) 0.67102(26) 0.0872(2)
H6_16 H 0.0949 0.7196 0.0933
H7_16 H 0.0278 0.6456 0.1494
C6_16 C 0.0495(3) 0.6154(4) 0.0189(3)
H8_16 H 0.0892 0.6027 0.0415
C5_17 C 0.96159(18) 0.62390(19) 0.7538(2)
H6_17 H 0.9580 0.5717 0.7599
H7_17 H 0.9511 0.6388 0.8160
C6_17 C 0.8992(2) 0.6171(3) 0.6855(3)
H8_17 H 0.8468 0.5774 0.7081
H9_17 H 0.9018 0.6684 0.6802
H10_17 H 0.9087 0.6012 0.6240
C5_18 C 0.66232(26) 0.03841(18) 0.7538(2)
H6_18 H 0.6138 0.0420 0.7599
H7_18 H 0.6878 0.0489 0.8160
C6_18 C 0.7180(4) 0.1008(2) 0.6855(3)
H8_18 H 0.7307 0.1532 0.7081
H9_18 H 0.7667 0.0982 0.6802
H10_18 H 0.6926 0.0913 0.6240
loop_
_geom_bond_atom_site_label_1
_geom_bond_atom_site_label_2
_geom_bond_site_symmetry_1
_geom_bond_site_symmetry_2
Cu1 N1 1_555 1_555
N1 N2 1_555 1_555
N2 C4 1_555 1_555
N3 C1 1_555 1_555
C1 N1 1_555 1_555
C2 C1 1_555 1_555
H1 C2 1_555 1_555
H2 C2 1_555 1_555
C3 C2 1_555 1_555
H3 C3 1_555 1_555
H4 C3 1_555 1_555
H5 C3 1_555 1_555
C4 N3 1_555 1_555
C5 C4 1_555 1_555
H6 C5 1_555 1_555
H7 C5 1_555 1_555
C6 C5 1_555 1_555
H8 C6 1_555 1_555
H9 C6 1_555 1_555
H10 C6 1_555 1_555
Cu2 N2 1_555 1_555
Cu3 N3 1_555 1_555
N4 Cu1 1_555 1_555
N5 Cu1 1_555 1_555
H8_2 C6_2 1_555 1_555
H9_2 C6_2 1_555 1_555
H10_2 C6_2 1_555 1_555
Cu1_2 N1_2 1_555 1_555
N1_2 N2_2 1_555 1_555
N2_2 C4_2 1_555 1_555
N3_2 C1_2 1_555 1_555
C1_2 N1_2 1_555 1_555
C2_2 C1_2 1_555 1_555
H1_2 C2_2 1_555 1_555
H2_2 C2_2 1_555 1_555
C3_2 C2_2 1_555 1_555
H3_2 C3_2 1_555 1_555
H4_2 C3_2 1_555 1_555
H5_2 C3_2 1_555 1_555
C4_2 N3_2 1_555 1_555
C5_2 C4_2 1_555 1_555
H6_2 C5_2 1_555 1_555
Cu3_2 N3_2 1_555 1_555
N5_2 Cu1_2 1_555 1_555
Cu1_3 N1_3 1_555 1_555
N1_3 N2_3 1_555 1_555
N2_3 C4_3 1_555 1_555
N3_3 C1_3 1_555 1_555
C1_3 N1_3 1_555 1_555
C2_3 C1_3 1_555 1_555
H1_3 C2_3 1_555 1_555
H2_3 C2_3 1_555 1_555
C3_3 C2_3 1_555 1_555
H3_3 C3_3 1_555 1_555
H4_3 C3_3 1_555 1_555
H5_3 C3_3 1_555 1_555
C4_3 N3_3 1_555 1_555
C5_3 C4_3 1_555 1_555
H6_3 C5_3 1_555 1_555
Cu3_3 N3_3 1_555 1_555
N5_3 Cu1_3 1_555 1_555
H8_3 C6_3 1_555 1_555
H9_3 C6_3 1_555 1_555
H10_3 C6_3 1_555 1_555
Cu1_4 N1_4 1_555 1_555
N1_4 N2_4 1_555 1_555
N2_4 C4_4 1_555 1_555
Cu3_2 N2_4 1_555 1_555
N4_4 Cu1_4 1_555 1_555
Cu1_5 N1_5 1_555 1_555
N1_5 N2_5 1_555 1_555
N2_5 C4_5 1_555 1_555
Cu3_3 N2_5 1_555 1_555
N4_5 Cu1_5 1_555 1_555
N5_4 Cu1_5 1_555 1_555
N3_4 C1_4 1_555 1_555
C2_4 C1_4 1_555 1_555
H1_4 C2_4 1_555 1_555
H2_4 C2_4 1_555 1_555
C3_4 C2_4 1_555 1_555
H3_4 C3_4 1_555 1_555
H4_4 C3_4 1_555 1_555
H5_6 C3_4 1_555 1_555
Cu3_6 N3_4 1_555 1_555
Cu1_6 N1_6 1_555 1_555
N1_6 N2_6 1_555 1_555
N2_6 C4_6 1_555 1_555
C5_4 C4_6 1_555 1_555
H6_4 C5_4 1_555 1_555
H7_4 C5_4 1_555 1_555
C6_4 C5_4 1_555 1_555
H8_4 C6_4 1_555 1_555
H9_6 C6_4 1_555 1_555
Cu3 N2_6 1_555 1_555
N4_6 Cu1_6 1_555 1_555
Cu1_7 N1_7 1_555 1_555
N1_7 N2_7 1_555 1_555
N2_7 C4_7 1_555 1_555
N3_5 C1_5 1_555 1_555
C1_5 N1_7 1_555 1_555
C2_5 C1_5 1_555 1_555
H1_5 C2_5 1_555 1_555
H2_5 C2_5 1_555 1_555
C3_5 C2_5 1_555 1_555
H3_5 C3_5 1_555 1_555
H4_5 C3_5 1_555 1_555
H5_7 C3_5 1_555 1_555
C4_7 N3_5 1_555 1_555
Cu3_5 N2_7 1_555 1_555
Cu2_3 N3_5 1_555 1_555
N4_7 Cu1_7 1_555 1_555
N5_5 Cu1_7 1_555 1_555
Cu1_8 N1_8 1_555 1_555
N1_8 N2_8 1_555 1_555
N2_8 C4_8 1_555 1_555
N3_6 C1_6 1_555 1_555
C1_6 N1_8 1_555 1_555
C2_6 C1_6 1_555 1_555
H1_6 C2_6 1_555 1_555
H2_6 C2_6 1_555 1_555
C3_6 C2_6 1_555 1_555
H3_6 C3_6 1_555 1_555
H4_6 C3_6 1_555 1_555
H5_8 C3_6 1_555 1_555
C4_8 N3_6 1_555 1_555
C5_5 C4_8 1_555 1_555
H6_5 C5_5 1_555 1_555
H7_5 C5_5 1_555 1_555
C6_5 C5_5 1_555 1_555
H8_5 C6_5 1_555 1_555
H9_7 C6_5 1_555 1_555
H10_7 C6_5 1_555 1_555
Cu3_6 N2_8 1_555 1_555
Cu2 N3_6 1_555 1_555
N4_8 Cu1_8 1_555 1_555
N5_6 Cu1_8 1_555 1_555
Cu1_9 N1_9 1_555 1_555
N1_9 N2_9 1_555 1_555
N2_9 C4_9 1_555 1_555
N3_7 C1_7 1_555 1_555
C1_7 N1_9 1_555 1_555
C2_7 C1_7 1_555 1_555
H1_7 C2_7 1_555 1_555
H2_7 C2_7 1_555 1_555
C3_7 C2_7 1_555 1_555
H3_7 C3_7 1_555 1_555
H4_7 C3_7 1_555 1_555
H5_9 C3_7 1_555 1_555
C4_9 N3_7 1_555 1_555
Cu3_4 N2_9 1_555 1_555
Cu2_2 N3_7 1_555 1_555
N4_9 Cu1_9 1_555 1_555
N5_7 Cu1_9 1_555 1_555
Cu2 N1_10 1_555 1_555
N1_10 N4 1_555 1_555
N4 C4_10 1_555 1_555
N5_7 C1_8 1_555 1_555
C1_8 N1_10 1_555 1_555
C2_8 C1_8 1_555 1_555
H1_8 C2_8 1_555 1_555
H2_8 C2_8 1_555 1_555
C3_8 C2_8 1_555 1_555
H3_8 C3_8 1_555 1_555
H4_8 C3_8 1_555 1_555
H5_10 C3_8 1_555 1_555
C4_10 N5_7 1_555 1_555
C5_6 C4_10 1_555 1_555
H6_6 C5_6 1_555 1_555
H7_6 C5_6 1_555 1_555
C6_6 C5_6 1_555 1_555
H8_6 C6_6 1_555 1_555
H9_8 C6_6 1_555 1_555
H10_8 C6_6 1_555 1_555
Cu2_2 N1_11 1_555 1_555
N1_11 N4_2 1_555 1_555
N4_2 C4_11 1_555 1_555
N5_5 C1_9 1_555 1_555
C1_9 N1_11 1_555 1_555
C2_9 C1_9 1_555 1_555
H1_9 C2_9 1_555 1_555
H2_9 C2_9 1_555 1_555
C3_9 C2_9 1_555 1_555
H3_9 C3_9 1_555 1_555
H4_9 C3_9 1_555 1_555
H5_11 C3_9 1_555 1_555
C4_11 N5_5 1_555 1_555
C5_7 C4_11 1_555 1_555
H6_7 C5_7 1_555 1_555
H8_7 C6_7 1_555 1_555
H9_9 C6_7 1_555 1_555
H10_9 C6_7 1_555 1_555
H8_8 C6_8 1_555 1_555
H9_10 C6_8 1_555 1_555
H10_10 C6_8 1_555 1_555
Cu2_3 N1_12 1_555 1_555
N1_12 N4_3 1_555 1_555
N4_3 C4_12 1_555 1_555
N5_6 C1_10 1_555 1_555
C1_10 N1_12 1_555 1_555
C2_10 C1_10 1_555 1_555
H1_10 C2_10 1_555 1_555
H2_10 C2_10 1_555 1_555
C3_10 C2_10 1_555 1_555
H3_10 C3_10 1_555 1_555
H4_10 C3_10 1_555 1_555
H5_12 C3_10 1_555 1_555
C4_12 N5_6 1_555 1_555
C5_8 C4_12 1_555 1_555
H6_8 C5_8 1_555 1_555
Cu3_5 N1_13 1_555 1_555
N1_13 N4_7 1_555 1_555
N4_7 C4_13 1_555 1_555
Cu3_6 N1_14 1_555 1_555
N1_14 N4_8 1_555 1_555
N4_8 C4_14 1_555 1_555
Cu3_4 N1_15 1_555 1_555
N1_15 N4_9 1_555 1_555
N4_9 C4_15 1_555 1_555
C5_9 C4_15 1_555 1_555
H6_9 C5_9 1_555 1_555
H7_9 C5_9 1_555 1_555
C6_9 C5_9 1_555 1_555
H8_9 C6_9 1_555 1_555
H9_13 C6_9 1_555 1_555
N5_4 C1_11 1_555 1_555
C2_11 C1_11 1_555 1_555
H1_11 C2_11 1_555 1_555
H2_11 C2_11 1_555 1_555
C3_11 C2_11 1_555 1_555
H3_11 C3_11 1_555 1_555
H4_11 C3_11 1_555 1_555
H5_15 C3_11 1_555 1_555
Cu3_2 N1_16 1_555 1_555
N1_16 N4_4 1_555 1_555
N4_4 C4_16 1_555 1_555
N5_3 C1_12 1_555 1_555
C1_12 N1_16 1_555 1_555
C2_12 C1_12 1_555 1_555
H1_12 C2_12 1_555 1_555
H2_12 C2_12 1_555 1_555
C3_12 C2_12 1_555 1_555
H3_12 C3_12 1_555 1_555
H4_12 C3_12 1_555 1_555
H5_16 C3_12 1_555 1_555
C4_16 N5_3 1_555 1_555
Cu3_3 N1_17 1_555 1_555
N1_17 N4_5 1_555 1_555
N4_5 C4_17 1_555 1_555
N5 C1_13 1_555 1_555
C1_13 N1_17 1_555 1_555
C2_13 C1_13 1_555 1_555
H1_13 C2_13 1_555 1_555
H2_13 C2_13 1_555 1_555
C3_13 C2_13 1_555 1_555
H3_13 C3_13 1_555 1_555
H4_13 C3_13 1_555 1_555
H5_17 C3_13 1_555 1_555
C4_17 N5 1_555 1_555
C5_10 C4_17 1_555 1_555
H6_10 C5_10 1_555 1_555
H7_10 C5_10 1_555 1_555
C6_10 C5_10 1_555 1_555
H8_10 C6_10 1_555 1_555
H9_14 C6_10 1_555 1_555
H10_14 C6_10 1_555 1_555
Cu3 N1_18 1_555 1_555
N1_18 N4_6 1_555 1_555
N4_6 C4_18 1_555 1_555
N5_2 C1_14 1_555 1_555
C1_14 N1_18 1_555 1_555
C2_14 C1_14 1_555 1_555
H1_14 C2_14 1_555 1_555
H2_14 C2_14 1_555 1_555
C3_14 C2_14 1_555 1_555
H3_14 C3_14 1_555 1_555
H4_14 C3_14 1_555 1_555
H5_18 C3_14 1_555 1_555
C4_18 N5_2 1_555 1_555
H6_11 C5_11 1_555 1_555
H7_11 C5_11 1_555 1_555
C6_11 C5_11 1_555 1_555
H8_11 C6_11 1_555 1_555
N3_8 C1_15 1_555 1_555
C2_15 C1_15 1_555 1_555
H1_15 C2_15 1_555 1_555
H2_15 C2_15 1_555 1_555
C3_15 C2_15 1_555 1_555
H3_15 C3_15 1_555 1_555
H4_15 C3_15 1_555 1_555
N5_8 C1_16 1_555 1_555
C2_16 C1_16 1_555 1_555
H1_16 C2_16 1_555 1_555
H2_16 C2_16 1_555 1_555
C3_16 C2_16 1_555 1_555
H3_16 C3_16 1_555 1_555
H4_16 C3_16 1_555 1_555
N3_9 C1_17 1_555 1_555
C2_17 C1_17 1_555 1_555
H1_17 C2_17 1_555 1_555
H2_17 C2_17 1_555 1_555
C3_17 C2_17 1_555 1_555
H3_17 C3_17 1_555 1_555
H4_17 C3_17 1_555 1_555
H6_12 C5_12 1_555 1_555
H7_12 C5_12 1_555 1_555
C6_12 C5_12 1_555 1_555
H8_12 C6_12 1_555 1_555
N5_9 C1_18 1_555 1_555
C2_18 C1_18 1_555 1_555
H1_18 C2_18 1_555 1_555
H2_18 C2_18 1_555 1_555
C3_18 C2_18 1_555 1_555
H3_18 C3_18 1_555 1_555
H4_18 C3_18 1_555 1_555
H6_13 C5_13 1_555 1_555
H7_13 C5_13 1_555 1_555
C6_13 C5_13 1_555 1_555
H8_13 C6_13 1_555 1_555
H9_15 C6_13 1_555 1_555
H10_15 C6_13 1_555 1_555
H6_14 C5_14 1_555 1_555
H7_14 C5_14 1_555 1_555
C6_14 C5_14 1_555 1_555
H8_14 C6_14 1_555 1_555
H9_16 C6_14 1_555 1_555
H10_16 C6_14 1_555 1_555
H6_15 C5_15 1_555 1_555
H7_15 C5_15 1_555 1_555
C6_15 C5_15 1_555 1_555
H8_15 C6_15 1_555 1_555
H6_16 C5_16 1_555 1_555
H7_16 C5_16 1_555 1_555
C6_16 C5_16 1_555 1_555
H8_16 C6_16 1_555 1_555
H6_17 C5_17 1_555 1_555
H7_17 C5_17 1_555 1_555
C6_17 C5_17 1_555 1_555
H8_17 C6_17 1_555 1_555
H9_17 C6_17 1_555 1_555
H10_17 C6_17 1_555 1_555
H6_18 C5_18 1_555 1_555
H7_18 C5_18 1_555 1_555
C6_18 C5_18 1_555 1_555
H8_18 C6_18 1_555 1_555
H9_18 C6_18 1_555 1_555
H10_18 C6_18 1_555 1_555

#END
