
###############################################################################
#
# This file contains modified crystal structure data generated from the
# MOF subset of the Cambridge Structural Database (CSD) v543 
# hosted by the Cambridge Crystallographic Data Centre (CCDC).
#
# This work is licensed under the Creative Commons
# Attribution-NonCommercial-ShareAlike 4.0 International License.
# To view a copy of this license, visit
# http://creativecommons.org/licenses/by-nc-sa/4.0/
# or send a letter to
# Creative Commons, PO Box 1866, Mountain View, CA 94042, USA.
#
# CIF created using the CSD Python API on 29 September 2022
# The structure has been converted into the P1 space group
# The structure has a 3D framework
# The original CSD entry AJABOD is in the rhombohedral crystal system
# The framework has been calculated to contain at least 10.0% void space
# The void calculation uses a probe of radius 1.32A, grid spacing 0.4
#
###############################################################################

data_AJABOD
_chemical_formula_moiety         '(C108 H180 Cu18 N54)n'
_symmetry_cell_setting           triclinic
_symmetry_space_group_name_H-M   'P 1'
_symmetry_Int_Tables_number      1
_space_group_name_Hall           'P 1'
loop_
_symmetry_equiv_pos_site_id
_symmetry_equiv_pos_as_xyz
1 x,y,z
_cell_length_a                   19.6216(12)
_cell_length_b                   19.6216(12)
_cell_length_c                   14.2113(9)
_cell_angle_alpha                90
_cell_angle_beta                 90
_cell_angle_gamma                120
_cell_volume                     4738.42
loop_
_atom_site_label
_atom_site_type_symbol
_atom_site_fract_x
_atom_site_fract_y
_atom_site_fract_z
Cu1 Cu 0.41492(3) 0.45103(3) 0.56278(3)
N1 N 0.50680(19) 0.5446(2) 0.6145(2)
N2 N 0.57537(19) 0.58401(19) 0.5619(2)
N3 N 0.5898(2) 0.65465(19) 0.6901(2)
C1 C 0.5183(2) 0.5890(2) 0.6908(3)
C2 C 0.4595(3) 0.5677(3) 0.7684(3)
H1 H 0.4133 0.5155 0.7546
H2 H 0.4832 0.5631 0.8278
C3 C 0.4322(4) 0.6258(4) 0.7820(5)
H3 H 0.3952 0.6091 0.8348
H4 H 0.4059 0.6285 0.7246
H5 H 0.4775 0.6777 0.7954
C4 C 0.6231(2) 0.6487(2) 0.6093(3)
C5 C 0.7039(2) 0.7078(3) 0.5788(3)
H6 H 0.7076 0.7598 0.5734
H7 H 0.7139 0.6932 0.5157
C6 C 0.7669(3) 0.7140(4) 0.6469(4)
H8 H 0.8189 0.7537 0.6239
H9 H 0.7643 0.6630 0.6513
H10 H 0.7579 0.7295 0.7091
Cu2 Cu 0.58508(3) 0.54897(3) 0.43722(3)
Cu3 Cu 0.63056(4) 0.74825(3) 0.77055(3)
N4 N 0.42463(19) 0.41599(19) 0.4381(2)
N5 N 0.32132(19) 0.39818(28) 0.6432(2)
H7_2 H 0.3068 0.0207 0.5157
C6_2 C 0.2860(4) 0.0529(5) 0.6469(4)
H8_2 H 0.2463 0.0652 0.6239
H9_2 H 0.3370 0.1013 0.6513
H10_2 H 0.2705 0.0284 0.7091
Cu2_2 Cu 0.45103(3) 0.03611(4) 0.43722(3)
N4_2 N 0.58401(19) 0.00864(27) 0.4381(2)
Cu1_2 Cu 0.54897(3) 0.96389(4) 0.56278(3)
N1_2 N 0.4554(2) 0.96220(28) 0.6145(2)
N2_2 N 0.41599(19) 0.99136(27) 0.5619(2)
N3_2 N 0.34535(19) 0.93515(28) 0.6901(2)
C1_2 C 0.4110(2) 0.9293(3) 0.6908(3)
C2_2 C 0.4323(3) 0.8918(4) 0.7684(3)
H1_2 H 0.4845 0.8978 0.7546
H2_2 H 0.4369 0.9201 0.8278
C3_2 C 0.3742(4) 0.8064(6) 0.7820(5)
H3_2 H 0.3909 0.7861 0.8348
H4_2 H 0.3715 0.7774 0.7246
H5_2 H 0.3223 0.7998 0.7954
C4_2 C 0.3513(2) 0.9744(3) 0.6093(3)
C5_2 C 0.2922(3) 0.9961(4) 0.5788(3)
H6_2 H 0.2402 0.9478 0.5734
Cu3_2 Cu 0.25175(3) 0.88230(5) 0.77055(3)
N5_2 N 0.60182(28) 0.92313(34) 0.6432(2)
Cu1_3 Cu 0.03611(4) 0.58508(3) 0.56278(3)
N1_3 N 0.03780(28) 0.49320(19) 0.6145(2)
N2_3 N 0.00864(27) 0.42463(19) 0.5619(2)
N3_3 N 0.06485(28) 0.4102(2) 0.6901(2)
C1_3 C 0.0707(3) 0.4817(2) 0.6908(3)
C2_3 C 0.1082(4) 0.5405(3) 0.7684(3)
H1_3 H 0.1022 0.5867 0.7546
H2_3 H 0.0799 0.5168 0.8278
C3_3 C 0.1936(6) 0.5678(4) 0.7820(5)
H3_3 H 0.2139 0.6048 0.8348
H4_3 H 0.2226 0.5941 0.7246
H5_3 H 0.2002 0.5225 0.7954
C4_3 C 0.0256(3) 0.3769(2) 0.6093(3)
C5_3 C 0.0039(4) 0.2961(2) 0.5788(3)
H6_3 H 0.0522 0.2924 0.5734
Cu3_3 Cu 0.11770(5) 0.36944(4) 0.77055(3)
N5_3 N 0.07687(34) 0.67868(19) 0.6432(2)
H7_3 H 0.9793 0.2861 0.5157
C6_3 C 0.9471(5) 0.2331(3) 0.6469(4)
H8_3 H 0.9348 0.1811 0.6239
H9_3 H 0.8987 0.2357 0.6513
H10_3 H 0.9716 0.2421 0.7091
Cu2_3 Cu 0.96389(4) 0.41492(3) 0.43722(3)
N4_3 N 0.99136(27) 0.57537(19) 0.4381(2)
H5_4 H 0.1442 0.0110 0.1287
H10_4 H 0.4246 0.0628 0.0424
Cu3_4 Cu 0.29722(4) 0.08159(3) 0.10389(3)
Cu1_4 Cu 0.08159(3) 0.78436(3) 0.89611(3)
N1_4 N 0.17347(19) 0.8779(2) 0.9478(2)
N2_4 N 0.24204(19) 0.91734(19) 0.8952(2)
C4_4 C 0.2898(2) 0.9820(2) 0.9426(3)
H9_4 H 0.4310 0.9963 0.9846
N4_4 N 0.09130(19) 0.74932(19) 0.7714(2)
Cu1_5 Cu 0.21564(3) 0.29722(4) 0.89611(3)
N1_5 N 0.1221(2) 0.29553(28) 0.9478(2)
N2_5 N 0.08266(19) 0.32469(27) 0.8952(2)
C4_5 C 0.0180(2) 0.3077(3) 0.9426(3)
H9_5 H 0.0037 0.4346 0.9846
N4_5 N 0.25068(19) 0.34197(27) 0.7714(2)
N5_4 N 0.26848(28) 0.25647(34) 0.9766(2)
H5_5 H 0.9890 0.1331 0.1287
H10_5 H 0.9372 0.3617 0.0424
Cu3_5 Cu 0.91841(3) 0.21564(5) 0.10389(3)
N3_4 N 0.73152(28) 0.7435(2) 0.0234(2)
C1_4 C 0.7374(3) 0.8150(2) 0.0241(3)
C2_4 C 0.7749(4) 0.8738(3) 0.1017(3)
H1_4 H 0.7689 0.9200 0.0879
H2_4 H 0.7466 0.8501 0.1611
C3_4 C 0.8603(6) 0.9011(4) 0.1153(5)
H3_4 H 0.8806 0.9381 0.1681
H4_4 H 0.8893 0.9274 0.0579
H5_6 H 0.8669 0.8558 0.1287
H10_6 H 0.6383 0.5754 0.0424
Cu3_6 Cu 0.78436(5) 0.70278(4) 0.10389(3)
Cu1_6 Cu 0.70278(4) 0.91841(3) 0.89611(3)
N1_6 N 0.70447(28) 0.82653(19) 0.9478(2)
N2_6 N 0.67531(27) 0.75796(19) 0.8952(2)
C4_6 C 0.6923(3) 0.7102(2) 0.9426(3)
C5_4 C 0.6706(4) 0.6294(2) 0.9121(3)
H6_4 H 0.7189 0.6257 0.9067
H7_4 H 0.6460 0.6194 0.8490
C6_4 C 0.6138(5) 0.5664(3) 0.9802(4)
H8_4 H 0.6015 0.5144 0.9572
H9_6 H 0.5654 0.5690 0.9846
N4_6 N 0.65803(27) 0.90870(19) 0.7714(2)
Cu1_7 Cu 0.74825(3) 0.11770(3) 0.22945(3)
N1_7 N 0.84013(19) 0.2113(2) 0.2812(2)
N2_7 N 0.90870(19) 0.25068(19) 0.2286(2)
N3_5 N 0.9231(2) 0.32132(19) 0.3568(2)
C1_5 C 0.8516(2) 0.2557(2) 0.3575(3)
C2_5 C 0.7928(3) 0.2344(3) 0.4351(3)
H1_5 H 0.7466 0.1822 0.4213
H2_5 H 0.8165 0.2298 0.4945
C3_5 C 0.7655(4) 0.2925(4) 0.4487(5)
H3_5 H 0.7285 0.2758 0.5015
H4_5 H 0.7392 0.2952 0.3913
H5_7 H 0.8108 0.3444 0.4621
C4_7 C 0.9564(2) 0.3154(2) 0.2760(3)
N4_7 N 0.75796(19) 0.08266(19) 0.1048(2)
N5_5 N 0.65465(19) 0.06485(28) 0.3099(2)
Cu1_8 Cu 0.88230(3) 0.63056(4) 0.22945(3)
N1_8 N 0.7887(2) 0.62887(28) 0.2812(2)
N2_8 N 0.74932(19) 0.65803(27) 0.2286(2)
N3_6 N 0.67868(19) 0.60182(28) 0.3568(2)
C1_6 C 0.7443(2) 0.5960(3) 0.3575(3)
C2_6 C 0.7656(3) 0.5585(4) 0.4351(3)
H1_6 H 0.8178 0.5645 0.4213
H2_6 H 0.7702 0.5868 0.4945
C3_6 C 0.7075(4) 0.4731(6) 0.4487(5)
H3_6 H 0.7242 0.4528 0.5015
H4_6 H 0.7048 0.4441 0.3913
H5_8 H 0.6556 0.4665 0.4621
C4_8 C 0.6846(2) 0.6411(3) 0.2760(3)
C5_5 C 0.6255(3) 0.6628(4) 0.2455(3)
H6_5 H 0.5735 0.6145 0.2401
H7_5 H 0.6401 0.6874 0.1824
C6_5 C 0.6193(4) 0.7196(5) 0.3136(4)
H8_5 H 0.5796 0.7319 0.2906
H9_7 H 0.6703 0.7680 0.3180
H10_7 H 0.6038 0.6951 0.3758
N4_8 N 0.91734(19) 0.67531(27) 0.1048(2)
N5_6 N 0.93515(28) 0.58980(34) 0.3099(2)
Cu1_9 Cu 0.36944(4) 0.25175(3) 0.22945(3)
N1_9 N 0.37113(28) 0.15987(19) 0.2812(2)
N2_9 N 0.34197(27) 0.09130(19) 0.2286(2)
N3_7 N 0.39818(28) 0.0769(2) 0.3568(2)
C1_7 C 0.4040(3) 0.1484(2) 0.3575(3)
C2_7 C 0.4415(4) 0.2072(3) 0.4351(3)
H1_7 H 0.4355 0.2534 0.4213
H2_7 H 0.4132 0.1835 0.4945
C3_7 C 0.5269(6) 0.2345(4) 0.4487(5)
H3_7 H 0.5472 0.2715 0.5015
H4_7 H 0.5559 0.2608 0.3913
H5_9 H 0.5335 0.1892 0.4621
C4_9 C 0.3589(3) 0.0436(2) 0.2760(3)
N4_9 N 0.32469(27) 0.24204(19) 0.1048(2)
N5_7 N 0.41020(34) 0.34535(19) 0.3099(2)
N1_10 N 0.49320(19) 0.4554(2) 0.3855(2)
C1_8 C 0.4817(2) 0.4110(2) 0.3092(3)
C2_8 C 0.5405(3) 0.4323(3) 0.2316(3)
H1_8 H 0.5867 0.4845 0.2454
H2_8 H 0.5168 0.4369 0.1722
C3_8 C 0.5678(4) 0.3742(4) 0.2180(5)
H3_8 H 0.6048 0.3909 0.1652
H4_8 H 0.5941 0.3715 0.2754
H5_10 H 0.5225 0.3223 0.2046
C4_10 C 0.3769(2) 0.3513(2) 0.3907(3)
C5_6 C 0.2961(2) 0.2922(3) 0.4212(3)
H6_6 H 0.2924 0.2402 0.4266
H7_6 H 0.2861 0.3068 0.4843
C6_6 C 0.2331(3) 0.2860(4) 0.3531(4)
H8_6 H 0.1811 0.2463 0.3761
H9_8 H 0.2357 0.3370 0.3487
H10_8 H 0.2421 0.2705 0.2909
N1_11 N 0.5446(2) 0.03780(28) 0.3855(2)
C1_9 C 0.5890(2) 0.0707(3) 0.3092(3)
C2_9 C 0.5677(3) 0.1082(4) 0.2316(3)
H1_9 H 0.5155 0.1022 0.2454
H2_9 H 0.5631 0.0799 0.1722
C3_9 C 0.6258(4) 0.1936(6) 0.2180(5)
H3_9 H 0.6091 0.2139 0.1652
H4_9 H 0.6285 0.2226 0.2754
H5_11 H 0.6777 0.2002 0.2046
C4_11 C 0.6487(2) 0.0256(3) 0.3907(3)
C5_7 C 0.7078(3) 0.0039(4) 0.4212(3)
H6_7 H 0.7598 0.0522 0.4266
H7_7 H 0.6932 0.9793 0.4843
C6_7 C 0.7140(4) 0.9471(5) 0.3531(4)
H8_7 H 0.7537 0.9348 0.3761
H9_9 H 0.6630 0.8987 0.3487
H10_9 H 0.7295 0.9716 0.2909
H7_8 H 0.0207 0.7139 0.4843
C6_8 C 0.0529(5) 0.7669(3) 0.3531(4)
H8_8 H 0.0652 0.8189 0.3761
H9_10 H 0.1013 0.7643 0.3487
H10_10 H 0.0284 0.7579 0.2909
N1_12 N 0.96220(28) 0.50680(19) 0.3855(2)
C1_10 C 0.9293(3) 0.5183(2) 0.3092(3)
C2_10 C 0.8918(4) 0.4595(3) 0.2316(3)
H1_10 H 0.8978 0.4133 0.2454
H2_10 H 0.9201 0.4832 0.1722
C3_10 C 0.8064(6) 0.4322(4) 0.2180(5)
H3_10 H 0.7861 0.3952 0.1652
H4_10 H 0.7774 0.4059 0.2754
H5_12 H 0.7998 0.4775 0.2046
C4_12 C 0.9744(3) 0.6231(2) 0.3907(3)
C5_8 C 0.9961(4) 0.7039(2) 0.4212(3)
H6_8 H 0.9478 0.7076 0.4266
N1_13 N 0.82653(19) 0.1221(2) 0.0522(2)
C4_13 C 0.7102(2) 0.0180(2) 0.0574(3)
H9_11 H 0.5690 0.0037 0.0154
H5_13 H 0.8558 0.9890 0.8713
H10_11 H 0.5754 0.9372 0.9576
H5_14 H 0.0110 0.8669 0.8713
H10_12 H 0.0628 0.6383 0.9576
N1_14 N 0.8779(2) 0.70447(28) 0.0522(2)
C4_14 C 0.9820(2) 0.6923(3) 0.0574(3)
H9_12 H 0.9963 0.5654 0.0154
N1_15 N 0.29553(28) 0.17347(19) 0.0522(2)
C4_15 C 0.3077(3) 0.2898(2) 0.0574(3)
C5_9 C 0.3294(4) 0.3706(2) 0.0879(3)
H6_9 H 0.2811 0.3743 0.0933
H7_9 H 0.3540 0.3806 0.1510
C6_9 C 0.3862(5) 0.4336(3) 0.0198(4)
H8_9 H 0.3985 0.4856 0.0428
H9_13 H 0.4346 0.4310 0.0154
C1_11 C 0.2626(3) 0.1850(2) 0.9759(3)
C2_11 C 0.2251(4) 0.1262(3) 0.8983(3)
H1_11 H 0.2311 0.0800 0.9121
H2_11 H 0.2534 0.1499 0.8389
C3_11 C 0.1397(6) 0.0989(4) 0.8847(5)
H3_11 H 0.1194 0.0619 0.8319
H4_11 H 0.1107 0.0726 0.9421
H5_15 H 0.1331 0.1442 0.8713
H10_13 H 0.3617 0.4246 0.9576
N1_16 N 0.15987(19) 0.7887(2) 0.7188(2)
C1_12 C 0.1484(2) 0.7443(2) 0.6425(3)
C2_12 C 0.2072(3) 0.7656(3) 0.5649(3)
H1_12 H 0.2534 0.8178 0.5787
H2_12 H 0.1835 0.7702 0.5055
C3_12 C 0.2345(4) 0.7075(4) 0.5513(5)
H3_12 H 0.2715 0.7242 0.4985
H4_12 H 0.2608 0.7048 0.6087
H5_16 H 0.1892 0.6556 0.5379
C4_16 C 0.0436(2) 0.6846(2) 0.7240(3)
N1_17 N 0.2113(2) 0.37113(28) 0.7188(2)
C1_13 C 0.2557(2) 0.4040(3) 0.6425(3)
C2_13 C 0.2344(3) 0.4415(4) 0.5649(3)
H1_13 H 0.1822 0.4355 0.5787
H2_13 H 0.2298 0.4132 0.5055
C3_13 C 0.2925(4) 0.5269(6) 0.5513(5)
H3_13 H 0.2758 0.5472 0.4985
H4_13 H 0.2952 0.5559 0.6087
H5_17 H 0.3444 0.5335 0.5379
C4_17 C 0.3154(2) 0.3589(3) 0.7240(3)
C5_10 C 0.3745(3) 0.3372(4) 0.7545(3)
H6_10 H 0.4265 0.3855 0.7599
H7_10 H 0.3599 0.3126 0.8176
C6_10 C 0.3807(4) 0.2804(5) 0.6864(4)
H8_10 H 0.4204 0.2681 0.7094
H9_14 H 0.3297 0.2320 0.6820
H10_14 H 0.3962 0.3049 0.6242
N1_18 N 0.62887(28) 0.84013(19) 0.7188(2)
C1_14 C 0.5960(3) 0.8516(2) 0.6425(3)
C2_14 C 0.5585(4) 0.7928(3) 0.5649(3)
H1_14 H 0.5645 0.7466 0.5787
H2_14 H 0.5868 0.8165 0.5055
C3_14 C 0.4731(6) 0.7655(4) 0.5513(5)
H3_14 H 0.4528 0.7285 0.4985
H4_14 H 0.4441 0.7392 0.6087
H5_18 H 0.4665 0.8108 0.5379
C4_18 C 0.6411(3) 0.9564(2) 0.7240(3)
C5_11 C 0.3706(2) 0.0411(3) 0.9121(3)
H6_11 H 0.3743 0.0931 0.9067
H7_11 H 0.3806 0.0265 0.8490
C6_11 C 0.4336(3) 0.0473(4) 0.9802(4)
H8_11 H 0.4856 0.0870 0.9572
N3_8 N 0.2565(2) 0.98798(19) 0.0234(2)
C1_15 C 0.1850(2) 0.9223(2) 0.0241(3)
C2_15 C 0.1262(3) 0.9010(3) 0.1017(3)
H1_15 H 0.0800 0.8488 0.0879
H2_15 H 0.1499 0.8964 0.1611
C3_15 C 0.0989(4) 0.9591(4) 0.1153(5)
H3_15 H 0.0619 0.9424 0.1681
H4_15 H 0.0726 0.9618 0.0579
N5_8 N 0.98798(19) 0.73152(28) 0.9766(2)
C1_16 C 0.9223(2) 0.7374(3) 0.9759(3)
C2_16 C 0.9010(3) 0.7749(4) 0.8983(3)
H1_16 H 0.8488 0.7689 0.9121
H2_16 H 0.8964 0.7466 0.8389
C3_16 C 0.9591(4) 0.8603(6) 0.8847(5)
H3_16 H 0.9424 0.8806 0.8319
H4_16 H 0.9618 0.8893 0.9421
N3_9 N 0.01202(19) 0.26848(28) 0.0234(2)
C1_17 C 0.0777(2) 0.2626(3) 0.0241(3)
C2_17 C 0.0990(3) 0.2251(4) 0.1017(3)
H1_17 H 0.1512 0.2311 0.0879
H2_17 H 0.1036 0.2534 0.1611
C3_17 C 0.0409(4) 0.1397(6) 0.1153(5)
H3_17 H 0.0576 0.1194 0.1681
H4_17 H 0.0382 0.1107 0.0579
C5_12 C 0.9589(3) 0.3294(4) 0.9121(3)
H6_12 H 0.9069 0.2811 0.9067
H7_12 H 0.9735 0.3540 0.8490
C6_12 C 0.9527(4) 0.3862(5) 0.9802(4)
H8_12 H 0.9130 0.3985 0.9572
N5_9 N 0.74353(34) 0.01202(19) 0.9766(2)
C1_18 C 0.8150(2) 0.0777(2) 0.9759(3)
C2_18 C 0.8738(3) 0.0990(3) 0.8983(3)
H1_18 H 0.9200 0.1512 0.9121
H2_18 H 0.8501 0.1036 0.8389
C3_18 C 0.9011(4) 0.0409(4) 0.8847(5)
H3_18 H 0.9381 0.0576 0.8319
H4_18 H 0.9274 0.0382 0.9421
C5_13 C 0.0372(2) 0.3745(3) 0.2455(3)
H6_13 H 0.0409 0.4265 0.2401
H7_13 H 0.0472 0.3599 0.1824
C6_13 C 0.1002(3) 0.3807(4) 0.3136(4)
H8_13 H 0.1522 0.4204 0.2906
H9_15 H 0.0976 0.3297 0.3180
H10_15 H 0.0912 0.3962 0.3758
C5_14 C 0.3372(4) 0.9628(2) 0.2455(3)
H6_14 H 0.3855 0.9591 0.2401
H7_14 H 0.3126 0.9528 0.1824
C6_14 C 0.2804(5) 0.8998(3) 0.3136(4)
H8_14 H 0.2681 0.8478 0.2906
H9_16 H 0.2320 0.9024 0.3180
H10_16 H 0.3049 0.9088 0.3758
C5_15 C 0.6294(2) 0.9589(3) 0.0879(3)
H6_15 H 0.6257 0.9069 0.0933
H7_15 H 0.6194 0.9735 0.1510
C6_15 C 0.5664(3) 0.9527(4) 0.0198(4)
H8_15 H 0.5144 0.9130 0.0428
C5_16 C 0.0411(3) 0.6706(4) 0.0879(3)
H6_16 H 0.0931 0.7189 0.0933
H7_16 H 0.0265 0.6460 0.1510
C6_16 C 0.0473(4) 0.6138(5) 0.0198(4)
H8_16 H 0.0870 0.6015 0.0428
C5_17 C 0.9628(2) 0.6255(3) 0.7545(3)
H6_17 H 0.9591 0.5735 0.7599
H7_17 H 0.9528 0.6401 0.8176
C6_17 C 0.8998(3) 0.6193(4) 0.6864(4)
H8_17 H 0.8478 0.5796 0.7094
H9_17 H 0.9024 0.6703 0.6820
H10_17 H 0.9088 0.6038 0.6242
C5_18 C 0.6628(4) 0.0372(2) 0.7545(3)
H6_18 H 0.6145 0.0409 0.7599
H7_18 H 0.6874 0.0472 0.8176
C6_18 C 0.7196(5) 0.1002(3) 0.6864(4)
H8_18 H 0.7319 0.1522 0.7094
H9_18 H 0.7680 0.0976 0.6820
H10_18 H 0.6951 0.0912 0.6242
loop_
_geom_bond_atom_site_label_1
_geom_bond_atom_site_label_2
_geom_bond_site_symmetry_1
_geom_bond_site_symmetry_2
Cu1 N1 1_555 1_555
N1 N2 1_555 1_555
N2 C4 1_555 1_555
N3 C1 1_555 1_555
C1 N1 1_555 1_555
C2 C1 1_555 1_555
H1 C2 1_555 1_555
H2 C2 1_555 1_555
C3 C2 1_555 1_555
H3 C3 1_555 1_555
H4 C3 1_555 1_555
H5 C3 1_555 1_555
C4 N3 1_555 1_555
C5 C4 1_555 1_555
H6 C5 1_555 1_555
H7 C5 1_555 1_555
C6 C5 1_555 1_555
H8 C6 1_555 1_555
H9 C6 1_555 1_555
H10 C6 1_555 1_555
Cu2 N2 1_555 1_555
Cu3 N3 1_555 1_555
N4 Cu1 1_555 1_555
N5 Cu1 1_555 1_555
H8_2 C6_2 1_555 1_555
H9_2 C6_2 1_555 1_555
H10_2 C6_2 1_555 1_555
Cu1_2 N1_2 1_555 1_555
N1_2 N2_2 1_555 1_555
N2_2 C4_2 1_555 1_555
N3_2 C1_2 1_555 1_555
C1_2 N1_2 1_555 1_555
C2_2 C1_2 1_555 1_555
H1_2 C2_2 1_555 1_555
H2_2 C2_2 1_555 1_555
C3_2 C2_2 1_555 1_555
H3_2 C3_2 1_555 1_555
H4_2 C3_2 1_555 1_555
H5_2 C3_2 1_555 1_555
C4_2 N3_2 1_555 1_555
C5_2 C4_2 1_555 1_555
H6_2 C5_2 1_555 1_555
Cu3_2 N3_2 1_555 1_555
N5_2 Cu1_2 1_555 1_555
Cu1_3 N1_3 1_555 1_555
N1_3 N2_3 1_555 1_555
N2_3 C4_3 1_555 1_555
N3_3 C1_3 1_555 1_555
C1_3 N1_3 1_555 1_555
C2_3 C1_3 1_555 1_555
H1_3 C2_3 1_555 1_555
H2_3 C2_3 1_555 1_555
C3_3 C2_3 1_555 1_555
H3_3 C3_3 1_555 1_555
H4_3 C3_3 1_555 1_555
H5_3 C3_3 1_555 1_555
C4_3 N3_3 1_555 1_555
C5_3 C4_3 1_555 1_555
H6_3 C5_3 1_555 1_555
Cu3_3 N3_3 1_555 1_555
N5_3 Cu1_3 1_555 1_555
H8_3 C6_3 1_555 1_555
H9_3 C6_3 1_555 1_555
H10_3 C6_3 1_555 1_555
Cu1_4 N1_4 1_555 1_555
N1_4 N2_4 1_555 1_555
N2_4 C4_4 1_555 1_555
Cu3_2 N2_4 1_555 1_555
N4_4 Cu1_4 1_555 1_555
Cu1_5 N1_5 1_555 1_555
N1_5 N2_5 1_555 1_555
N2_5 C4_5 1_555 1_555
Cu3_3 N2_5 1_555 1_555
N4_5 Cu1_5 1_555 1_555
N5_4 Cu1_5 1_555 1_555
N3_4 C1_4 1_555 1_555
C2_4 C1_4 1_555 1_555
H1_4 C2_4 1_555 1_555
H2_4 C2_4 1_555 1_555
C3_4 C2_4 1_555 1_555
H3_4 C3_4 1_555 1_555
H4_4 C3_4 1_555 1_555
H5_6 C3_4 1_555 1_555
Cu3_6 N3_4 1_555 1_555
Cu1_6 N1_6 1_555 1_555
N1_6 N2_6 1_555 1_555
N2_6 C4_6 1_555 1_555
C5_4 C4_6 1_555 1_555
H6_4 C5_4 1_555 1_555
H7_4 C5_4 1_555 1_555
C6_4 C5_4 1_555 1_555
H8_4 C6_4 1_555 1_555
H9_6 C6_4 1_555 1_555
Cu3 N2_6 1_555 1_555
N4_6 Cu1_6 1_555 1_555
Cu1_7 N1_7 1_555 1_555
N1_7 N2_7 1_555 1_555
N2_7 C4_7 1_555 1_555
N3_5 C1_5 1_555 1_555
C1_5 N1_7 1_555 1_555
C2_5 C1_5 1_555 1_555
H1_5 C2_5 1_555 1_555
H2_5 C2_5 1_555 1_555
C3_5 C2_5 1_555 1_555
H3_5 C3_5 1_555 1_555
H4_5 C3_5 1_555 1_555
H5_7 C3_5 1_555 1_555
C4_7 N3_5 1_555 1_555
Cu3_5 N2_7 1_555 1_555
Cu2_3 N3_5 1_555 1_555
N4_7 Cu1_7 1_555 1_555
N5_5 Cu1_7 1_555 1_555
Cu1_8 N1_8 1_555 1_555
N1_8 N2_8 1_555 1_555
N2_8 C4_8 1_555 1_555
N3_6 C1_6 1_555 1_555
C1_6 N1_8 1_555 1_555
C2_6 C1_6 1_555 1_555
H1_6 C2_6 1_555 1_555
H2_6 C2_6 1_555 1_555
C3_6 C2_6 1_555 1_555
H3_6 C3_6 1_555 1_555
H4_6 C3_6 1_555 1_555
H5_8 C3_6 1_555 1_555
C4_8 N3_6 1_555 1_555
C5_5 C4_8 1_555 1_555
H6_5 C5_5 1_555 1_555
H7_5 C5_5 1_555 1_555
C6_5 C5_5 1_555 1_555
H8_5 C6_5 1_555 1_555
H9_7 C6_5 1_555 1_555
H10_7 C6_5 1_555 1_555
Cu3_6 N2_8 1_555 1_555
Cu2 N3_6 1_555 1_555
N4_8 Cu1_8 1_555 1_555
N5_6 Cu1_8 1_555 1_555
Cu1_9 N1_9 1_555 1_555
N1_9 N2_9 1_555 1_555
N2_9 C4_9 1_555 1_555
N3_7 C1_7 1_555 1_555
C1_7 N1_9 1_555 1_555
C2_7 C1_7 1_555 1_555
H1_7 C2_7 1_555 1_555
H2_7 C2_7 1_555 1_555
C3_7 C2_7 1_555 1_555
H3_7 C3_7 1_555 1_555
H4_7 C3_7 1_555 1_555
H5_9 C3_7 1_555 1_555
C4_9 N3_7 1_555 1_555
Cu3_4 N2_9 1_555 1_555
Cu2_2 N3_7 1_555 1_555
N4_9 Cu1_9 1_555 1_555
N5_7 Cu1_9 1_555 1_555
Cu2 N1_10 1_555 1_555
N1_10 N4 1_555 1_555
N4 C4_10 1_555 1_555
N5_7 C1_8 1_555 1_555
C1_8 N1_10 1_555 1_555
C2_8 C1_8 1_555 1_555
H1_8 C2_8 1_555 1_555
H2_8 C2_8 1_555 1_555
C3_8 C2_8 1_555 1_555
H3_8 C3_8 1_555 1_555
H4_8 C3_8 1_555 1_555
H5_10 C3_8 1_555 1_555
C4_10 N5_7 1_555 1_555
C5_6 C4_10 1_555 1_555
H6_6 C5_6 1_555 1_555
H7_6 C5_6 1_555 1_555
C6_6 C5_6 1_555 1_555
H8_6 C6_6 1_555 1_555
H9_8 C6_6 1_555 1_555
H10_8 C6_6 1_555 1_555
Cu2_2 N1_11 1_555 1_555
N1_11 N4_2 1_555 1_555
N4_2 C4_11 1_555 1_555
N5_5 C1_9 1_555 1_555
C1_9 N1_11 1_555 1_555
C2_9 C1_9 1_555 1_555
H1_9 C2_9 1_555 1_555
H2_9 C2_9 1_555 1_555
C3_9 C2_9 1_555 1_555
H3_9 C3_9 1_555 1_555
H4_9 C3_9 1_555 1_555
H5_11 C3_9 1_555 1_555
C4_11 N5_5 1_555 1_555
C5_7 C4_11 1_555 1_555
H6_7 C5_7 1_555 1_555
H8_7 C6_7 1_555 1_555
H9_9 C6_7 1_555 1_555
H10_9 C6_7 1_555 1_555
H8_8 C6_8 1_555 1_555
H9_10 C6_8 1_555 1_555
H10_10 C6_8 1_555 1_555
Cu2_3 N1_12 1_555 1_555
N1_12 N4_3 1_555 1_555
N4_3 C4_12 1_555 1_555
N5_6 C1_10 1_555 1_555
C1_10 N1_12 1_555 1_555
C2_10 C1_10 1_555 1_555
H1_10 C2_10 1_555 1_555
H2_10 C2_10 1_555 1_555
C3_10 C2_10 1_555 1_555
H3_10 C3_10 1_555 1_555
H4_10 C3_10 1_555 1_555
H5_12 C3_10 1_555 1_555
C4_12 N5_6 1_555 1_555
C5_8 C4_12 1_555 1_555
H6_8 C5_8 1_555 1_555
Cu3_5 N1_13 1_555 1_555
N1_13 N4_7 1_555 1_555
N4_7 C4_13 1_555 1_555
Cu3_6 N1_14 1_555 1_555
N1_14 N4_8 1_555 1_555
N4_8 C4_14 1_555 1_555
Cu3_4 N1_15 1_555 1_555
N1_15 N4_9 1_555 1_555
N4_9 C4_15 1_555 1_555
C5_9 C4_15 1_555 1_555
H6_9 C5_9 1_555 1_555
H7_9 C5_9 1_555 1_555
C6_9 C5_9 1_555 1_555
H8_9 C6_9 1_555 1_555
H9_13 C6_9 1_555 1_555
N5_4 C1_11 1_555 1_555
C2_11 C1_11 1_555 1_555
H1_11 C2_11 1_555 1_555
H2_11 C2_11 1_555 1_555
C3_11 C2_11 1_555 1_555
H3_11 C3_11 1_555 1_555
H4_11 C3_11 1_555 1_555
H5_15 C3_11 1_555 1_555
Cu3_2 N1_16 1_555 1_555
N1_16 N4_4 1_555 1_555
N4_4 C4_16 1_555 1_555
N5_3 C1_12 1_555 1_555
C1_12 N1_16 1_555 1_555
C2_12 C1_12 1_555 1_555
H1_12 C2_12 1_555 1_555
H2_12 C2_12 1_555 1_555
C3_12 C2_12 1_555 1_555
H3_12 C3_12 1_555 1_555
H4_12 C3_12 1_555 1_555
H5_16 C3_12 1_555 1_555
C4_16 N5_3 1_555 1_555
Cu3_3 N1_17 1_555 1_555
N1_17 N4_5 1_555 1_555
N4_5 C4_17 1_555 1_555
N5 C1_13 1_555 1_555
C1_13 N1_17 1_555 1_555
C2_13 C1_13 1_555 1_555
H1_13 C2_13 1_555 1_555
H2_13 C2_13 1_555 1_555
C3_13 C2_13 1_555 1_555
H3_13 C3_13 1_555 1_555
H4_13 C3_13 1_555 1_555
H5_17 C3_13 1_555 1_555
C4_17 N5 1_555 1_555
C5_10 C4_17 1_555 1_555
H6_10 C5_10 1_555 1_555
H7_10 C5_10 1_555 1_555
C6_10 C5_10 1_555 1_555
H8_10 C6_10 1_555 1_555
H9_14 C6_10 1_555 1_555
H10_14 C6_10 1_555 1_555
Cu3 N1_18 1_555 1_555
N1_18 N4_6 1_555 1_555
N4_6 C4_18 1_555 1_555
N5_2 C1_14 1_555 1_555
C1_14 N1_18 1_555 1_555
C2_14 C1_14 1_555 1_555
H1_14 C2_14 1_555 1_555
H2_14 C2_14 1_555 1_555
C3_14 C2_14 1_555 1_555
H3_14 C3_14 1_555 1_555
H4_14 C3_14 1_555 1_555
H5_18 C3_14 1_555 1_555
C4_18 N5_2 1_555 1_555
H6_11 C5_11 1_555 1_555
H7_11 C5_11 1_555 1_555
C6_11 C5_11 1_555 1_555
H8_11 C6_11 1_555 1_555
N3_8 C1_15 1_555 1_555
C2_15 C1_15 1_555 1_555
H1_15 C2_15 1_555 1_555
H2_15 C2_15 1_555 1_555
C3_15 C2_15 1_555 1_555
H3_15 C3_15 1_555 1_555
H4_15 C3_15 1_555 1_555
N5_8 C1_16 1_555 1_555
C2_16 C1_16 1_555 1_555
H1_16 C2_16 1_555 1_555
H2_16 C2_16 1_555 1_555
C3_16 C2_16 1_555 1_555
H3_16 C3_16 1_555 1_555
H4_16 C3_16 1_555 1_555
N3_9 C1_17 1_555 1_555
C2_17 C1_17 1_555 1_555
H1_17 C2_17 1_555 1_555
H2_17 C2_17 1_555 1_555
C3_17 C2_17 1_555 1_555
H3_17 C3_17 1_555 1_555
H4_17 C3_17 1_555 1_555
H6_12 C5_12 1_555 1_555
H7_12 C5_12 1_555 1_555
C6_12 C5_12 1_555 1_555
H8_12 C6_12 1_555 1_555
N5_9 C1_18 1_555 1_555
C2_18 C1_18 1_555 1_555
H1_18 C2_18 1_555 1_555
H2_18 C2_18 1_555 1_555
C3_18 C2_18 1_555 1_555
H3_18 C3_18 1_555 1_555
H4_18 C3_18 1_555 1_555
H6_13 C5_13 1_555 1_555
H7_13 C5_13 1_555 1_555
C6_13 C5_13 1_555 1_555
H8_13 C6_13 1_555 1_555
H9_15 C6_13 1_555 1_555
H10_15 C6_13 1_555 1_555
H6_14 C5_14 1_555 1_555
H7_14 C5_14 1_555 1_555
C6_14 C5_14 1_555 1_555
H8_14 C6_14 1_555 1_555
H9_16 C6_14 1_555 1_555
H10_16 C6_14 1_555 1_555
H6_15 C5_15 1_555 1_555
H7_15 C5_15 1_555 1_555
C6_15 C5_15 1_555 1_555
H8_15 C6_15 1_555 1_555
H6_16 C5_16 1_555 1_555
H7_16 C5_16 1_555 1_555
C6_16 C5_16 1_555 1_555
H8_16 C6_16 1_555 1_555
H6_17 C5_17 1_555 1_555
H7_17 C5_17 1_555 1_555
C6_17 C5_17 1_555 1_555
H8_17 C6_17 1_555 1_555
H9_17 C6_17 1_555 1_555
H10_17 C6_17 1_555 1_555
H6_18 C5_18 1_555 1_555
H7_18 C5_18 1_555 1_555
C6_18 C5_18 1_555 1_555
H8_18 C6_18 1_555 1_555
H9_18 C6_18 1_555 1_555
H10_18 C6_18 1_555 1_555

#END
