
###############################################################################
#
# This file contains modified crystal structure data generated from the
# MOF subset of the Cambridge Structural Database (CSD) v543 
# hosted by the Cambridge Crystallographic Data Centre (CCDC).
#
# This work is licensed under the Creative Commons
# Attribution-NonCommercial-ShareAlike 4.0 International License.
# To view a copy of this license, visit
# http://creativecommons.org/licenses/by-nc-sa/4.0/
# or send a letter to
# Creative Commons, PO Box 1866, Mountain View, CA 94042, USA.
#
# CIF created using the CSD Python API on 29 September 2022
# The structure has been converted into the P1 space group
# The structure has a 3D framework
# The original CSD entry AJABIX01 is in the rhombohedral crystal system
# The framework has been calculated to contain at least 10.0% void space
# The void calculation uses a probe of radius 1.32A, grid spacing 0.4
#
###############################################################################

data_AJABIX01
_chemical_formula_moiety         '(C108 H180 Cu18 N54)n'
_symmetry_cell_setting           triclinic
_symmetry_space_group_name_H-M   'P 1'
_symmetry_Int_Tables_number      1
_space_group_name_Hall           'P 1'
loop_
_symmetry_equiv_pos_site_id
_symmetry_equiv_pos_as_xyz
1 x,y,z
_cell_length_a                   19.6972(9)
_cell_length_b                   19.6972(9)
_cell_length_c                   14.2478(8)
_cell_angle_alpha                90
_cell_angle_beta                 90
_cell_angle_gamma                120
_cell_volume                     4787.26
loop_
_atom_site_label
_atom_site_type_symbol
_atom_site_fract_x
_atom_site_fract_y
_atom_site_fract_z
Cu1 Cu 0.41465(3) 0.45126(3) 0.56229(3)
N1 N 0.50557(18) 0.54837(18) 0.6118(2)
N2 N 0.57435(18) 0.58679(18) 0.5599(2)
N3 N 0.58897(18) 0.65513(17) 0.6888(2)
C1 C 0.5169(2) 0.5909(2) 0.6882(3)
C2 C 0.4587(3) 0.5704(3) 0.7649(4)
H1 H 0.4131 0.5202 0.7500
H2 H 0.4813 0.5636 0.8222
C3 C 0.4329(5) 0.6259(5) 0.7828(7)
H3 H 0.3940 0.6061 0.8315
H4 H 0.4108 0.6337 0.7266
H5 H 0.4768 0.6749 0.8024
C4 C 0.6220(2) 0.6494(2) 0.6091(3)
C5 C 0.7030(2) 0.7074(3) 0.5790(3)
H6 H 0.7073 0.7585 0.5733
H7 H 0.7127 0.6927 0.5177
C6 C 0.7639(3) 0.7130(4) 0.6462(5)
H8 H 0.8151 0.7493 0.6224
H9 H 0.7591 0.6623 0.6533
H10 H 0.7567 0.7309 0.7060
Cu2 Cu 0.58535(3) 0.54874(3) 0.43771(3)
Cu3 Cu 0.63006(4) 0.74798(3) 0.77104(3)
N4 N 0.42565(18) 0.41321(18) 0.4401(2)
N5 N 0.32180(17) 0.39949(25) 0.6445(2)
H7_2 H 0.3073 0.0200 0.5177
C6_2 C 0.2870(4) 0.0509(5) 0.6462(5)
H8_2 H 0.2507 0.0658 0.6224
H9_2 H 0.3377 0.0968 0.6533
H10_2 H 0.2691 0.0258 0.7060
Cu2_2 Cu 0.45126(3) 0.03661(4) 0.43771(3)
N4_2 N 0.58679(18) 0.01244(25) 0.4401(2)
Cu1_2 Cu 0.54874(3) 0.96339(4) 0.56229(3)
N1_2 N 0.45163(18) 0.95720(25) 0.6118(2)
N2_2 N 0.41321(18) 0.98756(25) 0.5599(2)
N3_2 N 0.34487(17) 0.93384(25) 0.6888(2)
C1_2 C 0.4091(2) 0.9260(3) 0.6882(3)
C2_2 C 0.4296(3) 0.8883(4) 0.7649(4)
H1_2 H 0.4798 0.8929 0.7500
H2_2 H 0.4364 0.9177 0.8222
C3_2 C 0.3741(5) 0.8070(7) 0.7828(7)
H3_2 H 0.3939 0.7879 0.8315
H4_2 H 0.3663 0.7771 0.7266
H5_2 H 0.3251 0.8019 0.8024
C4_2 C 0.3506(2) 0.9726(3) 0.6091(3)
C5_2 C 0.2926(3) 0.9956(4) 0.5790(3)
H6_2 H 0.2415 0.9488 0.5733
Cu3_2 Cu 0.25202(3) 0.88207(5) 0.77104(3)
N5_2 N 0.60051(25) 0.92230(30) 0.6445(2)
Cu1_3 Cu 0.03661(4) 0.58535(3) 0.56229(3)
N1_3 N 0.04280(25) 0.49443(18) 0.6118(2)
N2_3 N 0.01244(25) 0.42565(18) 0.5599(2)
N3_3 N 0.06616(25) 0.41103(18) 0.6888(2)
C1_3 C 0.0740(3) 0.4831(2) 0.6882(3)
C2_3 C 0.1117(4) 0.5413(3) 0.7649(4)
H1_3 H 0.1071 0.5869 0.7500
H2_3 H 0.0823 0.5187 0.8222
C3_3 C 0.1930(7) 0.5671(5) 0.7828(7)
H3_3 H 0.2121 0.6060 0.8315
H4_3 H 0.2229 0.5892 0.7266
H5_3 H 0.1981 0.5232 0.8024
C4_3 C 0.0274(3) 0.3780(2) 0.6091(3)
C5_3 C 0.0044(4) 0.2970(2) 0.5790(3)
H6_3 H 0.0512 0.2927 0.5733
Cu3_3 Cu 0.11793(5) 0.36994(4) 0.77104(3)
N5_3 N 0.07770(30) 0.67820(17) 0.6445(2)
H7_3 H 0.9800 0.2873 0.5177
C6_3 C 0.9491(5) 0.2361(3) 0.6462(5)
H8_3 H 0.9342 0.1849 0.6224
H9_3 H 0.9032 0.2409 0.6533
H10_3 H 0.9742 0.2433 0.7060
Cu2_3 Cu 0.96339(4) 0.41465(3) 0.43771(3)
N4_3 N 0.98756(25) 0.57435(18) 0.4401(2)
H5_4 H 0.1435 0.0082 0.1357
H10_4 H 0.4234 0.0642 0.0393
Cu3_4 Cu 0.29672(4) 0.08132(3) 0.10438(3)
Cu1_4 Cu 0.08132(3) 0.78459(3) 0.89562(3)
N1_4 N 0.17224(18) 0.88170(18) 0.9451(2)
N2_4 N 0.24102(18) 0.92012(18) 0.8932(2)
C4_4 C 0.2887(2) 0.9827(2) 0.9424(3)
H9_4 H 0.4258 0.9956 0.9866
N4_4 N 0.09232(18) 0.74654(18) 0.7734(2)
Cu1_5 Cu 0.21541(3) 0.29672(4) 0.89562(3)
N1_5 N 0.11830(18) 0.29053(25) 0.9451(2)
N2_5 N 0.07988(18) 0.32089(25) 0.8932(2)
C4_5 C 0.0173(2) 0.3059(3) 0.9424(3)
H9_5 H 0.0044 0.4301 0.9866
N4_5 N 0.25346(18) 0.34577(25) 0.7734(2)
N5_4 N 0.26717(25) 0.25564(30) 0.9779(2)
H5_5 H 0.9918 0.1352 0.1357
H10_5 H 0.9358 0.3591 0.0393
Cu3_5 Cu 0.91868(3) 0.21541(5) 0.10438(3)
N3_4 N 0.73283(25) 0.74436(18) 0.0221(2)
C1_4 C 0.7407(3) 0.8164(2) 0.0215(3)
C2_4 C 0.7784(4) 0.8746(3) 0.0982(4)
H1_4 H 0.7738 0.9202 0.0833
H2_4 H 0.7490 0.8520 0.1555
C3_4 C 0.8597(7) 0.9004(5) 0.1161(7)
H3_4 H 0.8788 0.9393 0.1648
H4_4 H 0.8896 0.9225 0.0599
H5_6 H 0.8648 0.8565 0.1357
H10_6 H 0.6409 0.5766 0.0393
Cu3_6 Cu 0.78459(5) 0.70328(4) 0.10438(3)
Cu1_6 Cu 0.70328(4) 0.91868(3) 0.89562(3)
N1_6 N 0.70947(25) 0.82776(18) 0.9451(2)
N2_6 N 0.67911(25) 0.75898(18) 0.8932(2)
C4_6 C 0.6941(3) 0.7113(2) 0.9424(3)
C5_4 C 0.6711(4) 0.6303(2) 0.9123(3)
H6_4 H 0.7179 0.6260 0.9066
H7_4 H 0.6467 0.6206 0.8510
C6_4 C 0.6158(5) 0.5694(3) 0.9795(5)
H8_4 H 0.6009 0.5182 0.9557
H9_6 H 0.5699 0.5742 0.9866
N4_6 N 0.65423(25) 0.90768(18) 0.7734(2)
Cu1_7 Cu 0.74798(3) 0.11793(3) 0.22896(3)
N1_7 N 0.83890(18) 0.21504(18) 0.2785(2)
N2_7 N 0.90768(18) 0.25346(18) 0.2266(2)
N3_5 N 0.92230(18) 0.32180(17) 0.3555(2)
C1_5 C 0.8502(2) 0.2576(2) 0.3549(3)
C2_5 C 0.7920(3) 0.2371(3) 0.4316(4)
H1_5 H 0.7464 0.1869 0.4167
H2_5 H 0.8146 0.2303 0.4889
C3_5 C 0.7662(5) 0.2926(5) 0.4495(7)
H3_5 H 0.7273 0.2728 0.4982
H4_5 H 0.7441 0.3004 0.3933
H5_7 H 0.8101 0.3416 0.4691
C4_7 C 0.9553(2) 0.3161(2) 0.2758(3)
N4_7 N 0.75898(18) 0.07988(18) 0.1068(2)
N5_5 N 0.65513(17) 0.06616(25) 0.3112(2)
Cu1_8 Cu 0.88207(3) 0.63006(4) 0.22896(3)
N1_8 N 0.78496(18) 0.62387(25) 0.2785(2)
N2_8 N 0.74654(18) 0.65423(25) 0.2266(2)
N3_6 N 0.67820(17) 0.60051(25) 0.3555(2)
C1_6 C 0.7424(2) 0.5927(3) 0.3549(3)
C2_6 C 0.7629(3) 0.5550(4) 0.4316(4)
H1_6 H 0.8131 0.5596 0.4167
H2_6 H 0.7697 0.5844 0.4889
C3_6 C 0.7074(5) 0.4737(7) 0.4495(7)
H3_6 H 0.7272 0.4546 0.4982
H4_6 H 0.6996 0.4438 0.3933
H5_8 H 0.6584 0.4686 0.4691
C4_8 C 0.6839(2) 0.6393(3) 0.2758(3)
C5_5 C 0.6259(3) 0.6623(4) 0.2457(3)
H6_5 H 0.5748 0.6155 0.2400
H7_5 H 0.6406 0.6867 0.1844
C6_5 C 0.6203(4) 0.7176(5) 0.3129(5)
H8_5 H 0.5840 0.7325 0.2891
H9_7 H 0.6710 0.7635 0.3200
H10_7 H 0.6024 0.6925 0.3727
N4_8 N 0.92012(18) 0.67911(25) 0.1068(2)
N5_6 N 0.93384(25) 0.58897(30) 0.3112(2)
Cu1_9 Cu 0.36994(4) 0.25202(3) 0.22896(3)
N1_9 N 0.37613(25) 0.16110(18) 0.2785(2)
N2_9 N 0.34577(25) 0.09232(18) 0.2266(2)
N3_7 N 0.39949(25) 0.07770(18) 0.3555(2)
C1_7 C 0.4073(3) 0.1498(2) 0.3549(3)
C2_7 C 0.4450(4) 0.2080(3) 0.4316(4)
H1_7 H 0.4404 0.2536 0.4167
H2_7 H 0.4156 0.1854 0.4889
C3_7 C 0.5263(7) 0.2338(5) 0.4495(7)
H3_7 H 0.5454 0.2727 0.4982
H4_7 H 0.5562 0.2559 0.3933
H5_9 H 0.5314 0.1899 0.4691
C4_9 C 0.3607(3) 0.0447(2) 0.2758(3)
N4_9 N 0.32089(25) 0.24102(18) 0.1068(2)
N5_7 N 0.41103(30) 0.34487(17) 0.3112(2)
N1_10 N 0.49443(18) 0.45163(18) 0.3882(2)
C1_8 C 0.4831(2) 0.4091(2) 0.3118(3)
C2_8 C 0.5413(3) 0.4296(3) 0.2351(4)
H1_8 H 0.5869 0.4798 0.2500
H2_8 H 0.5187 0.4364 0.1778
C3_8 C 0.5671(5) 0.3741(5) 0.2172(7)
H3_8 H 0.6060 0.3939 0.1685
H4_8 H 0.5892 0.3663 0.2734
H5_10 H 0.5232 0.3251 0.1976
C4_10 C 0.3780(2) 0.3506(2) 0.3909(3)
C5_6 C 0.2970(2) 0.2926(3) 0.4210(3)
H6_6 H 0.2927 0.2415 0.4267
H7_6 H 0.2873 0.3073 0.4823
C6_6 C 0.2361(3) 0.2870(4) 0.3538(5)
H8_6 H 0.1849 0.2507 0.3776
H9_8 H 0.2409 0.3377 0.3467
H10_8 H 0.2433 0.2691 0.2940
N1_11 N 0.54837(18) 0.04280(25) 0.3882(2)
C1_9 C 0.5909(2) 0.0740(3) 0.3118(3)
C2_9 C 0.5704(3) 0.1117(4) 0.2351(4)
H1_9 H 0.5202 0.1071 0.2500
H2_9 H 0.5636 0.0823 0.1778
C3_9 C 0.6259(5) 0.1930(7) 0.2172(7)
H3_9 H 0.6061 0.2121 0.1685
H4_9 H 0.6337 0.2229 0.2734
H5_11 H 0.6749 0.1981 0.1976
C4_11 C 0.6494(2) 0.0274(3) 0.3909(3)
C5_7 C 0.7074(3) 0.0044(4) 0.4210(3)
H6_7 H 0.7585 0.0512 0.4267
H7_7 H 0.6927 0.9800 0.4823
C6_7 C 0.7130(4) 0.9491(5) 0.3538(5)
H8_7 H 0.7493 0.9342 0.3776
H9_9 H 0.6623 0.9032 0.3467
H10_9 H 0.7309 0.9742 0.2940
H7_8 H 0.0200 0.7127 0.4823
C6_8 C 0.0509(5) 0.7639(3) 0.3538(5)
H8_8 H 0.0658 0.8151 0.3776
H9_10 H 0.0968 0.7591 0.3467
H10_10 H 0.0258 0.7567 0.2940
N1_12 N 0.95720(25) 0.50557(18) 0.3882(2)
C1_10 C 0.9260(3) 0.5169(2) 0.3118(3)
C2_10 C 0.8883(4) 0.4587(3) 0.2351(4)
H1_10 H 0.8929 0.4131 0.2500
H2_10 H 0.9177 0.4813 0.1778
C3_10 C 0.8070(7) 0.4329(5) 0.2172(7)
H3_10 H 0.7879 0.3940 0.1685
H4_10 H 0.7771 0.4108 0.2734
H5_12 H 0.8019 0.4768 0.1976
C4_12 C 0.9726(3) 0.6220(2) 0.3909(3)
C5_8 C 0.9956(4) 0.7030(2) 0.4210(3)
H6_8 H 0.9488 0.7073 0.4267
N1_13 N 0.82776(18) 0.11830(18) 0.0549(2)
C4_13 C 0.7113(2) 0.0173(2) 0.0576(3)
H9_11 H 0.5742 0.0044 0.0134
H5_13 H 0.8565 0.9918 0.8643
H10_11 H 0.5766 0.9358 0.9607
H5_14 H 0.0082 0.8648 0.8643
H10_12 H 0.0642 0.6409 0.9607
N1_14 N 0.88170(18) 0.70947(25) 0.0549(2)
C4_14 C 0.9827(2) 0.6941(3) 0.0576(3)
H9_12 H 0.9956 0.5699 0.0134
N1_15 N 0.29053(25) 0.17224(18) 0.0549(2)
C4_15 C 0.3059(3) 0.2887(2) 0.0576(3)
C5_9 C 0.3289(4) 0.3697(2) 0.0877(3)
H6_9 H 0.2821 0.3740 0.0934
H7_9 H 0.3533 0.3794 0.1490
C6_9 C 0.3842(5) 0.4306(3) 0.0205(5)
H8_9 H 0.3991 0.4818 0.0443
H9_13 H 0.4301 0.4258 0.0134
C1_11 C 0.2593(3) 0.1836(2) 0.9785(3)
C2_11 C 0.2216(4) 0.1254(3) 0.9018(4)
H1_11 H 0.2262 0.0798 0.9167
H2_11 H 0.2510 0.1480 0.8445
C3_11 C 0.1403(7) 0.0996(5) 0.8839(7)
H3_11 H 0.1212 0.0607 0.8352
H4_11 H 0.1104 0.0775 0.9401
H5_15 H 0.1352 0.1435 0.8643
H10_13 H 0.3591 0.4234 0.9607
N1_16 N 0.16110(18) 0.78496(18) 0.7215(2)
C1_12 C 0.1498(2) 0.7424(2) 0.6451(3)
C2_12 C 0.2080(3) 0.7629(3) 0.5684(4)
H1_12 H 0.2536 0.8131 0.5833
H2_12 H 0.1854 0.7697 0.5111
C3_12 C 0.2338(5) 0.7074(5) 0.5505(7)
H3_12 H 0.2727 0.7272 0.5018
H4_12 H 0.2559 0.6996 0.6067
H5_16 H 0.1899 0.6584 0.5309
C4_16 C 0.0447(2) 0.6839(2) 0.7242(3)
N1_17 N 0.21504(18) 0.37613(25) 0.7215(2)
C1_13 C 0.2576(2) 0.4073(3) 0.6451(3)
C2_13 C 0.2371(3) 0.4450(4) 0.5684(4)
H1_13 H 0.1869 0.4404 0.5833
H2_13 H 0.2303 0.4156 0.5111
C3_13 C 0.2926(5) 0.5263(7) 0.5505(7)
H3_13 H 0.2728 0.5454 0.5018
H4_13 H 0.3004 0.5562 0.6067
H5_17 H 0.3416 0.5314 0.5309
C4_17 C 0.3161(2) 0.3607(3) 0.7242(3)
C5_10 C 0.3741(3) 0.3377(4) 0.7543(3)
H6_10 H 0.4252 0.3845 0.7600
H7_10 H 0.3594 0.3133 0.8156
C6_10 C 0.3797(4) 0.2824(5) 0.6871(5)
H8_10 H 0.4160 0.2675 0.7109
H9_14 H 0.3290 0.2365 0.6800
H10_14 H 0.3976 0.3075 0.6273
N1_18 N 0.62387(25) 0.83890(18) 0.7215(2)
C1_14 C 0.5927(3) 0.8502(2) 0.6451(3)
C2_14 C 0.5550(4) 0.7920(3) 0.5684(4)
H1_14 H 0.5596 0.7464 0.5833
H2_14 H 0.5844 0.8146 0.5111
C3_14 C 0.4737(7) 0.7662(5) 0.5505(7)
H3_14 H 0.4546 0.7273 0.5018
H4_14 H 0.4438 0.7441 0.6067
H5_18 H 0.4686 0.8101 0.5309
C4_18 C 0.6393(3) 0.9553(2) 0.7242(3)
C5_11 C 0.3697(2) 0.0407(3) 0.9123(3)
H6_11 H 0.3740 0.0918 0.9066
H7_11 H 0.3794 0.0260 0.8510
C6_11 C 0.4306(3) 0.0463(4) 0.9795(5)
H8_11 H 0.4818 0.0826 0.9557
N3_8 N 0.25564(18) 0.98846(17) 0.0221(2)
C1_15 C 0.1836(2) 0.9242(2) 0.0215(3)
C2_15 C 0.1254(3) 0.9037(3) 0.0982(4)
H1_15 H 0.0798 0.8535 0.0833
H2_15 H 0.1480 0.8969 0.1555
C3_15 C 0.0996(5) 0.9592(5) 0.1161(7)
H3_15 H 0.0607 0.9394 0.1648
H4_15 H 0.0775 0.9670 0.0599
N5_8 N 0.98846(17) 0.73283(25) 0.9779(2)
C1_16 C 0.9242(2) 0.7407(3) 0.9785(3)
C2_16 C 0.9037(3) 0.7784(4) 0.9018(4)
H1_16 H 0.8535 0.7738 0.9167
H2_16 H 0.8969 0.7490 0.8445
C3_16 C 0.9592(5) 0.8597(7) 0.8839(7)
H3_16 H 0.9394 0.8788 0.8352
H4_16 H 0.9670 0.8896 0.9401
N3_9 N 0.01154(17) 0.26717(25) 0.0221(2)
C1_17 C 0.0758(2) 0.2593(3) 0.0215(3)
C2_17 C 0.0963(3) 0.2216(4) 0.0982(4)
H1_17 H 0.1465 0.2262 0.0833
H2_17 H 0.1031 0.2510 0.1555
C3_17 C 0.0408(5) 0.1403(7) 0.1161(7)
H3_17 H 0.0606 0.1212 0.1648
H4_17 H 0.0330 0.1104 0.0599
C5_12 C 0.9593(3) 0.3289(4) 0.9123(3)
H6_12 H 0.9082 0.2821 0.9066
H7_12 H 0.9740 0.3533 0.8510
C6_12 C 0.9537(4) 0.3842(5) 0.9795(5)
H8_12 H 0.9174 0.3991 0.9557
N5_9 N 0.74436(30) 0.01154(17) 0.9779(2)
C1_18 C 0.8164(2) 0.0758(2) 0.9785(3)
C2_18 C 0.8746(3) 0.0963(3) 0.9018(4)
H1_18 H 0.9202 0.1465 0.9167
H2_18 H 0.8520 0.1031 0.8445
C3_18 C 0.9004(5) 0.0408(5) 0.8839(7)
H3_18 H 0.9393 0.0606 0.8352
H4_18 H 0.9225 0.0330 0.9401
C5_13 C 0.0363(2) 0.3741(3) 0.2457(3)
H6_13 H 0.0406 0.4252 0.2400
H7_13 H 0.0460 0.3594 0.1844
C6_13 C 0.0972(3) 0.3797(4) 0.3129(5)
H8_13 H 0.1484 0.4160 0.2891
H9_15 H 0.0924 0.3290 0.3200
H10_15 H 0.0900 0.3976 0.3727
C5_14 C 0.3377(4) 0.9637(2) 0.2457(3)
H6_14 H 0.3845 0.9594 0.2400
H7_14 H 0.3133 0.9540 0.1844
C6_14 C 0.2824(5) 0.9028(3) 0.3129(5)
H8_14 H 0.2675 0.8516 0.2891
H9_16 H 0.2365 0.9076 0.3200
H10_16 H 0.3075 0.9100 0.3727
C5_15 C 0.6303(2) 0.9593(3) 0.0877(3)
H6_15 H 0.6260 0.9082 0.0934
H7_15 H 0.6206 0.9740 0.1490
C6_15 C 0.5694(3) 0.9537(4) 0.0205(5)
H8_15 H 0.5182 0.9174 0.0443
C5_16 C 0.0407(3) 0.6711(4) 0.0877(3)
H6_16 H 0.0918 0.7179 0.0934
H7_16 H 0.0260 0.6467 0.1490
C6_16 C 0.0463(4) 0.6158(5) 0.0205(5)
H8_16 H 0.0826 0.6009 0.0443
C5_17 C 0.9637(2) 0.6259(3) 0.7543(3)
H6_17 H 0.9594 0.5748 0.7600
H7_17 H 0.9540 0.6406 0.8156
C6_17 C 0.9028(3) 0.6203(4) 0.6871(5)
H8_17 H 0.8516 0.5840 0.7109
H9_17 H 0.9076 0.6710 0.6800
H10_17 H 0.9100 0.6024 0.6273
C5_18 C 0.6623(4) 0.0363(2) 0.7543(3)
H6_18 H 0.6155 0.0406 0.7600
H7_18 H 0.6867 0.0460 0.8156
C6_18 C 0.7176(5) 0.0972(3) 0.6871(5)
H8_18 H 0.7325 0.1484 0.7109
H9_18 H 0.7635 0.0924 0.6800
H10_18 H 0.6925 0.0900 0.6273
loop_
_geom_bond_atom_site_label_1
_geom_bond_atom_site_label_2
_geom_bond_site_symmetry_1
_geom_bond_site_symmetry_2
Cu1 N1 1_555 1_555
N1 N2 1_555 1_555
N2 C4 1_555 1_555
N3 C1 1_555 1_555
C1 N1 1_555 1_555
C2 C1 1_555 1_555
H1 C2 1_555 1_555
H2 C2 1_555 1_555
C3 C2 1_555 1_555
H3 C3 1_555 1_555
H4 C3 1_555 1_555
H5 C3 1_555 1_555
C4 N3 1_555 1_555
C5 C4 1_555 1_555
H6 C5 1_555 1_555
H7 C5 1_555 1_555
C6 C5 1_555 1_555
H8 C6 1_555 1_555
H9 C6 1_555 1_555
H10 C6 1_555 1_555
Cu2 N2 1_555 1_555
Cu3 N3 1_555 1_555
N4 Cu1 1_555 1_555
N5 Cu1 1_555 1_555
H8_2 C6_2 1_555 1_555
H9_2 C6_2 1_555 1_555
H10_2 C6_2 1_555 1_555
Cu1_2 N1_2 1_555 1_555
N1_2 N2_2 1_555 1_555
N2_2 C4_2 1_555 1_555
N3_2 C1_2 1_555 1_555
C1_2 N1_2 1_555 1_555
C2_2 C1_2 1_555 1_555
H1_2 C2_2 1_555 1_555
H2_2 C2_2 1_555 1_555
C3_2 C2_2 1_555 1_555
H3_2 C3_2 1_555 1_555
H4_2 C3_2 1_555 1_555
H5_2 C3_2 1_555 1_555
C4_2 N3_2 1_555 1_555
C5_2 C4_2 1_555 1_555
H6_2 C5_2 1_555 1_555
Cu3_2 N3_2 1_555 1_555
N5_2 Cu1_2 1_555 1_555
Cu1_3 N1_3 1_555 1_555
N1_3 N2_3 1_555 1_555
N2_3 C4_3 1_555 1_555
N3_3 C1_3 1_555 1_555
C1_3 N1_3 1_555 1_555
C2_3 C1_3 1_555 1_555
H1_3 C2_3 1_555 1_555
H2_3 C2_3 1_555 1_555
C3_3 C2_3 1_555 1_555
H3_3 C3_3 1_555 1_555
H4_3 C3_3 1_555 1_555
H5_3 C3_3 1_555 1_555
C4_3 N3_3 1_555 1_555
C5_3 C4_3 1_555 1_555
H6_3 C5_3 1_555 1_555
Cu3_3 N3_3 1_555 1_555
N5_3 Cu1_3 1_555 1_555
H8_3 C6_3 1_555 1_555
H9_3 C6_3 1_555 1_555
H10_3 C6_3 1_555 1_555
Cu1_4 N1_4 1_555 1_555
N1_4 N2_4 1_555 1_555
N2_4 C4_4 1_555 1_555
Cu3_2 N2_4 1_555 1_555
N4_4 Cu1_4 1_555 1_555
Cu1_5 N1_5 1_555 1_555
N1_5 N2_5 1_555 1_555
N2_5 C4_5 1_555 1_555
Cu3_3 N2_5 1_555 1_555
N4_5 Cu1_5 1_555 1_555
N5_4 Cu1_5 1_555 1_555
N3_4 C1_4 1_555 1_555
C2_4 C1_4 1_555 1_555
H1_4 C2_4 1_555 1_555
H2_4 C2_4 1_555 1_555
C3_4 C2_4 1_555 1_555
H3_4 C3_4 1_555 1_555
H4_4 C3_4 1_555 1_555
H5_6 C3_4 1_555 1_555
Cu3_6 N3_4 1_555 1_555
Cu1_6 N1_6 1_555 1_555
N1_6 N2_6 1_555 1_555
N2_6 C4_6 1_555 1_555
C5_4 C4_6 1_555 1_555
H6_4 C5_4 1_555 1_555
H7_4 C5_4 1_555 1_555
C6_4 C5_4 1_555 1_555
H8_4 C6_4 1_555 1_555
H9_6 C6_4 1_555 1_555
Cu3 N2_6 1_555 1_555
N4_6 Cu1_6 1_555 1_555
Cu1_7 N1_7 1_555 1_555
N1_7 N2_7 1_555 1_555
N2_7 C4_7 1_555 1_555
N3_5 C1_5 1_555 1_555
C1_5 N1_7 1_555 1_555
C2_5 C1_5 1_555 1_555
H1_5 C2_5 1_555 1_555
H2_5 C2_5 1_555 1_555
C3_5 C2_5 1_555 1_555
H3_5 C3_5 1_555 1_555
H4_5 C3_5 1_555 1_555
H5_7 C3_5 1_555 1_555
C4_7 N3_5 1_555 1_555
Cu3_5 N2_7 1_555 1_555
Cu2_3 N3_5 1_555 1_555
N4_7 Cu1_7 1_555 1_555
N5_5 Cu1_7 1_555 1_555
Cu1_8 N1_8 1_555 1_555
N1_8 N2_8 1_555 1_555
N2_8 C4_8 1_555 1_555
N3_6 C1_6 1_555 1_555
C1_6 N1_8 1_555 1_555
C2_6 C1_6 1_555 1_555
H1_6 C2_6 1_555 1_555
H2_6 C2_6 1_555 1_555
C3_6 C2_6 1_555 1_555
H3_6 C3_6 1_555 1_555
H4_6 C3_6 1_555 1_555
H5_8 C3_6 1_555 1_555
C4_8 N3_6 1_555 1_555
C5_5 C4_8 1_555 1_555
H6_5 C5_5 1_555 1_555
H7_5 C5_5 1_555 1_555
C6_5 C5_5 1_555 1_555
H8_5 C6_5 1_555 1_555
H9_7 C6_5 1_555 1_555
H10_7 C6_5 1_555 1_555
Cu3_6 N2_8 1_555 1_555
Cu2 N3_6 1_555 1_555
N4_8 Cu1_8 1_555 1_555
N5_6 Cu1_8 1_555 1_555
Cu1_9 N1_9 1_555 1_555
N1_9 N2_9 1_555 1_555
N2_9 C4_9 1_555 1_555
N3_7 C1_7 1_555 1_555
C1_7 N1_9 1_555 1_555
C2_7 C1_7 1_555 1_555
H1_7 C2_7 1_555 1_555
H2_7 C2_7 1_555 1_555
C3_7 C2_7 1_555 1_555
H3_7 C3_7 1_555 1_555
H4_7 C3_7 1_555 1_555
H5_9 C3_7 1_555 1_555
C4_9 N3_7 1_555 1_555
Cu3_4 N2_9 1_555 1_555
Cu2_2 N3_7 1_555 1_555
N4_9 Cu1_9 1_555 1_555
N5_7 Cu1_9 1_555 1_555
Cu2 N1_10 1_555 1_555
N1_10 N4 1_555 1_555
N4 C4_10 1_555 1_555
N5_7 C1_8 1_555 1_555
C1_8 N1_10 1_555 1_555
C2_8 C1_8 1_555 1_555
H1_8 C2_8 1_555 1_555
H2_8 C2_8 1_555 1_555
C3_8 C2_8 1_555 1_555
H3_8 C3_8 1_555 1_555
H4_8 C3_8 1_555 1_555
H5_10 C3_8 1_555 1_555
C4_10 N5_7 1_555 1_555
C5_6 C4_10 1_555 1_555
H6_6 C5_6 1_555 1_555
H7_6 C5_6 1_555 1_555
C6_6 C5_6 1_555 1_555
H8_6 C6_6 1_555 1_555
H9_8 C6_6 1_555 1_555
H10_8 C6_6 1_555 1_555
Cu2_2 N1_11 1_555 1_555
N1_11 N4_2 1_555 1_555
N4_2 C4_11 1_555 1_555
N5_5 C1_9 1_555 1_555
C1_9 N1_11 1_555 1_555
C2_9 C1_9 1_555 1_555
H1_9 C2_9 1_555 1_555
H2_9 C2_9 1_555 1_555
C3_9 C2_9 1_555 1_555
H3_9 C3_9 1_555 1_555
H4_9 C3_9 1_555 1_555
H5_11 C3_9 1_555 1_555
C4_11 N5_5 1_555 1_555
C5_7 C4_11 1_555 1_555
H6_7 C5_7 1_555 1_555
H8_7 C6_7 1_555 1_555
H9_9 C6_7 1_555 1_555
H10_9 C6_7 1_555 1_555
H8_8 C6_8 1_555 1_555
H9_10 C6_8 1_555 1_555
H10_10 C6_8 1_555 1_555
Cu2_3 N1_12 1_555 1_555
N1_12 N4_3 1_555 1_555
N4_3 C4_12 1_555 1_555
N5_6 C1_10 1_555 1_555
C1_10 N1_12 1_555 1_555
C2_10 C1_10 1_555 1_555
H1_10 C2_10 1_555 1_555
H2_10 C2_10 1_555 1_555
C3_10 C2_10 1_555 1_555
H3_10 C3_10 1_555 1_555
H4_10 C3_10 1_555 1_555
H5_12 C3_10 1_555 1_555
C4_12 N5_6 1_555 1_555
C5_8 C4_12 1_555 1_555
H6_8 C5_8 1_555 1_555
Cu3_5 N1_13 1_555 1_555
N1_13 N4_7 1_555 1_555
N4_7 C4_13 1_555 1_555
Cu3_6 N1_14 1_555 1_555
N1_14 N4_8 1_555 1_555
N4_8 C4_14 1_555 1_555
Cu3_4 N1_15 1_555 1_555
N1_15 N4_9 1_555 1_555
N4_9 C4_15 1_555 1_555
C5_9 C4_15 1_555 1_555
H6_9 C5_9 1_555 1_555
H7_9 C5_9 1_555 1_555
C6_9 C5_9 1_555 1_555
H8_9 C6_9 1_555 1_555
H9_13 C6_9 1_555 1_555
N5_4 C1_11 1_555 1_555
C2_11 C1_11 1_555 1_555
H1_11 C2_11 1_555 1_555
H2_11 C2_11 1_555 1_555
C3_11 C2_11 1_555 1_555
H3_11 C3_11 1_555 1_555
H4_11 C3_11 1_555 1_555
H5_15 C3_11 1_555 1_555
Cu3_2 N1_16 1_555 1_555
N1_16 N4_4 1_555 1_555
N4_4 C4_16 1_555 1_555
N5_3 C1_12 1_555 1_555
C1_12 N1_16 1_555 1_555
C2_12 C1_12 1_555 1_555
H1_12 C2_12 1_555 1_555
H2_12 C2_12 1_555 1_555
C3_12 C2_12 1_555 1_555
H3_12 C3_12 1_555 1_555
H4_12 C3_12 1_555 1_555
H5_16 C3_12 1_555 1_555
C4_16 N5_3 1_555 1_555
Cu3_3 N1_17 1_555 1_555
N1_17 N4_5 1_555 1_555
N4_5 C4_17 1_555 1_555
N5 C1_13 1_555 1_555
C1_13 N1_17 1_555 1_555
C2_13 C1_13 1_555 1_555
H1_13 C2_13 1_555 1_555
H2_13 C2_13 1_555 1_555
C3_13 C2_13 1_555 1_555
H3_13 C3_13 1_555 1_555
H4_13 C3_13 1_555 1_555
H5_17 C3_13 1_555 1_555
C4_17 N5 1_555 1_555
C5_10 C4_17 1_555 1_555
H6_10 C5_10 1_555 1_555
H7_10 C5_10 1_555 1_555
C6_10 C5_10 1_555 1_555
H8_10 C6_10 1_555 1_555
H9_14 C6_10 1_555 1_555
H10_14 C6_10 1_555 1_555
Cu3 N1_18 1_555 1_555
N1_18 N4_6 1_555 1_555
N4_6 C4_18 1_555 1_555
N5_2 C1_14 1_555 1_555
C1_14 N1_18 1_555 1_555
C2_14 C1_14 1_555 1_555
H1_14 C2_14 1_555 1_555
H2_14 C2_14 1_555 1_555
C3_14 C2_14 1_555 1_555
H3_14 C3_14 1_555 1_555
H4_14 C3_14 1_555 1_555
H5_18 C3_14 1_555 1_555
C4_18 N5_2 1_555 1_555
H6_11 C5_11 1_555 1_555
H7_11 C5_11 1_555 1_555
C6_11 C5_11 1_555 1_555
H8_11 C6_11 1_555 1_555
N3_8 C1_15 1_555 1_555
C2_15 C1_15 1_555 1_555
H1_15 C2_15 1_555 1_555
H2_15 C2_15 1_555 1_555
C3_15 C2_15 1_555 1_555
H3_15 C3_15 1_555 1_555
H4_15 C3_15 1_555 1_555
N5_8 C1_16 1_555 1_555
C2_16 C1_16 1_555 1_555
H1_16 C2_16 1_555 1_555
H2_16 C2_16 1_555 1_555
C3_16 C2_16 1_555 1_555
H3_16 C3_16 1_555 1_555
H4_16 C3_16 1_555 1_555
N3_9 C1_17 1_555 1_555
C2_17 C1_17 1_555 1_555
H1_17 C2_17 1_555 1_555
H2_17 C2_17 1_555 1_555
C3_17 C2_17 1_555 1_555
H3_17 C3_17 1_555 1_555
H4_17 C3_17 1_555 1_555
H6_12 C5_12 1_555 1_555
H7_12 C5_12 1_555 1_555
C6_12 C5_12 1_555 1_555
H8_12 C6_12 1_555 1_555
N5_9 C1_18 1_555 1_555
C2_18 C1_18 1_555 1_555
H1_18 C2_18 1_555 1_555
H2_18 C2_18 1_555 1_555
C3_18 C2_18 1_555 1_555
H3_18 C3_18 1_555 1_555
H4_18 C3_18 1_555 1_555
H6_13 C5_13 1_555 1_555
H7_13 C5_13 1_555 1_555
C6_13 C5_13 1_555 1_555
H8_13 C6_13 1_555 1_555
H9_15 C6_13 1_555 1_555
H10_15 C6_13 1_555 1_555
H6_14 C5_14 1_555 1_555
H7_14 C5_14 1_555 1_555
C6_14 C5_14 1_555 1_555
H8_14 C6_14 1_555 1_555
H9_16 C6_14 1_555 1_555
H10_16 C6_14 1_555 1_555
H6_15 C5_15 1_555 1_555
H7_15 C5_15 1_555 1_555
C6_15 C5_15 1_555 1_555
H8_15 C6_15 1_555 1_555
H6_16 C5_16 1_555 1_555
H7_16 C5_16 1_555 1_555
C6_16 C5_16 1_555 1_555
H8_16 C6_16 1_555 1_555
H6_17 C5_17 1_555 1_555
H7_17 C5_17 1_555 1_555
C6_17 C5_17 1_555 1_555
H8_17 C6_17 1_555 1_555
H9_17 C6_17 1_555 1_555
H10_17 C6_17 1_555 1_555
H6_18 C5_18 1_555 1_555
H7_18 C5_18 1_555 1_555
C6_18 C5_18 1_555 1_555
H8_18 C6_18 1_555 1_555
H9_18 C6_18 1_555 1_555
H10_18 C6_18 1_555 1_555

#END
