
###############################################################################
#
# This file contains modified crystal structure data generated from the
# MOF subset of the Cambridge Structural Database (CSD) v543 
# hosted by the Cambridge Crystallographic Data Centre (CCDC).
#
# This work is licensed under the Creative Commons
# Attribution-NonCommercial-ShareAlike 4.0 International License.
# To view a copy of this license, visit
# http://creativecommons.org/licenses/by-nc-sa/4.0/
# or send a letter to
# Creative Commons, PO Box 1866, Mountain View, CA 94042, USA.
#
# CIF created using the CSD Python API on 29 September 2022
# The structure has been converted into the P1 space group
# The structure has a 3D framework
# The original CSD entry AJAGOI is in the triclinic crystal system
# The framework has been calculated to contain at least 10.0% void space
# The void calculation uses a probe of radius 1.32A, grid spacing 0.4
#
###############################################################################

data_AJAGOI
_chemical_formula_moiety         '(C42 H30 Bi4 Br12 S4)n'
_symmetry_cell_setting           triclinic
_symmetry_space_group_name_H-M   'P 1'
_symmetry_Int_Tables_number      1
_space_group_name_Hall           'P 1'
loop_
_symmetry_equiv_pos_site_id
_symmetry_equiv_pos_as_xyz
1 x,y,z
_cell_length_a                   6.8728(12)
_cell_length_b                   15.743(3)
_cell_length_c                   19.521(3)
_cell_angle_alpha                113.300(3)
_cell_angle_beta                 93.955(3)
_cell_angle_gamma                95.226(3)
_cell_volume                     1919.05
loop_
_atom_site_label
_atom_site_type_symbol
_atom_site_fract_x
_atom_site_fract_y
_atom_site_fract_z
_atom_site_U_iso_or_equiv
_atom_site_thermal_displace_type
Br10 Br 0.06483(18) 0.86809(9) 0.44661(7) 0.0364 Uani
Bi2 Bi 0.27851(6) 0.04786(3) 0.07048(2) 0.0255 Uani
Br4 Br 0.1461(2) 0.07295(10) 0.19897(7) 0.0387 Uani
C14 C 0.0989(16) 0.3730(8) 0.1157(6) 0.0258 Uani
C15 C 0.1126(16) 0.3534(8) 0.1797(6) 0.0279 Uani
H6 H 0.0171 0.3711 0.2140 0.0330 Uiso
C16 C 0.2646(17) 0.3082(8) 0.1932(6) 0.0279 Uani
H7 H 0.2747 0.2957 0.2370 0.0340 Uiso
C17 C 0.4040(16) 0.2808(8) 0.1420(6) 0.0245 Uani
C18 C 0.3914(17) 0.3007(8) 0.0785(6) 0.0302 Uani
H8 H 0.4868 0.2827 0.0442 0.0360 Uiso
C19 C 0.2422(17) 0.3460(8) 0.0652(7) 0.0286 Uani
H9 H 0.2348 0.3594 0.0218 0.0340 Uiso
C20 C 0.628(2) 0.2315(11) 0.2459(7) 0.0456 Uani
H10 H 0.6740 0.2973 0.2774 0.0690 Uiso
H11 H 0.7253 0.1929 0.2526 0.0690 Uiso
H12 H 0.5024 0.2135 0.2607 0.0690 Uiso
S2 S 0.5942(5) 0.2145(2) 0.14836(18) 0.0334 Uani
Bi1 Bi 0.26870(6) 0.01643(3) 0.57040(2) 0.0248 Uani
C1 C 0.3354(17) 0.2125(8) 0.7545(6) 0.0237 Uani
C2 C 0.2906(17) 0.1944(8) 0.8165(6) 0.0273 Uani
H1 H 0.3645 0.1556 0.8320 0.0330 Uiso
C3 C 0.1368(17) 0.2337(9) 0.8555(6) 0.0286 Uani
H2 H 0.1065 0.2213 0.8977 0.0350 Uiso
C4 C 0.0265(16) 0.2907(8) 0.8340(6) 0.0250 Uani
C5 C 0.0688(17) 0.3038(9) 0.7697(6) 0.0266 Uani
C6 C 0.2263(15) 0.2664(8) 0.7305(6) 0.0225 Uani
H4 H 0.2568 0.2783 0.6881 0.0270 Uiso
C21 C 0.6414(19) 0.1000(9) 0.7474(7) 0.0325 Uani
H13 H 0.6845 0.1409 0.8002 0.0490 Uiso
H14 H 0.7551 0.0749 0.7225 0.0490 Uiso
H15 H 0.5454 0.0485 0.7448 0.0490 Uiso
S1 S 0.5290(4) 0.1660(2) 0.70112(16) 0.0262 Uani
Br7 Br 0.87473(18) 0.03674(10) 0.33018(7) 0.0358 Uani
Br8 Br 0.42568(17) 0.08314(9) 0.44455(6) 0.0293 Uani
Br11 Br 0.93517(18) 0.13191(9) 0.55339(7) 0.0364 Uani
Br13 Br 0.41468(18) 0.04104(9) 0.91349(7) 0.0324 Uani
Br5 Br 0.58532(18) 0.95896(9) 0.08651(7) 0.0324 Uani
Br1 Br 0.12527(18) 0.96326(10) 0.66982(7) 0.0358 Uani
Br2 Br 0.57432(17) 0.91686(9) 0.55545(6) 0.0293 Uani
Bi3 Bi 0.73130(6) 0.98357(3) 0.42960(2) 0.0248 Uani
Bi7 Bi 0.72149(6) 0.95214(3) 0.92952(2) 0.0255 Uani
Br16 Br 0.06370(17) 0.87695(9) 0.99604(7) 0.0315 Uani
S4 S 0.4710(4) 0.8340(2) 0.29888(16) 0.0262 Uani
Br6 Br 0.93630(17) 0.12305(9) 0.00396(7) 0.0315 Uani
C10 C 0.6583(16) 0.4762(8) 0.0367(6) 0.0237 Uani
C12 C 0.8112(17) 0.4479(9) 0.0720(7) 0.0289 Uani
C13 C 0.9393(17) 0.4157(9) 0.0961(7) 0.0294 Uani
H18 H 0.0108 0.6611 0.2480 0.0320 Uiso
C28 C 0.1243(17) 0.6656(9) 0.1243(6) 0.0278 Uani
C29 C 0.2463(16) 0.6231(9) 0.0873(6) 0.0267 Uani
C30 C 0.3771(16) 0.5617(8) 0.0439(6) 0.0233 Uani
C32 C 0.5352(17) 0.5377(8) 0.0784(6) 0.0266 Uani
H20 H 0.5593 0.5641 0.1316 0.0320 Uiso
H3 H 0.9892 0.3389 0.7520 0.0320 Uiso
C7 C 0.8757(17) 0.3344(9) 0.8757(6) 0.0278 Uani
C8 C 0.7537(16) 0.3769(9) 0.9127(6) 0.0267 Uani
C9 C 0.6229(16) 0.4383(8) 0.9561(6) 0.0233 Uani
C11 C 0.4648(17) 0.4623(8) 0.9216(6) 0.0266 Uani
H5 H 0.4407 0.4359 0.8684 0.0320 Uiso
C31 C 0.3417(16) 0.5238(8) 0.9633(6) 0.0237 Uani
C33 C 0.1888(17) 0.5521(9) 0.9280(7) 0.0289 Uani
C34 C 0.0607(17) 0.5843(9) 0.9039(7) 0.0294 Uani
C22 C 0.6646(17) 0.7875(8) 0.2455(6) 0.0237 Uani
C23 C 0.7094(17) 0.8056(8) 0.1835(6) 0.0273 Uani
H16 H 0.6355 0.8444 0.1680 0.0330 Uiso
C24 C 0.8632(17) 0.7663(9) 0.1445(6) 0.0286 Uani
H17 H 0.8935 0.7787 0.1023 0.0350 Uiso
C25 C 0.9735(16) 0.7093(8) 0.1660(6) 0.0250 Uani
C26 C 0.9312(17) 0.6962(9) 0.2303(6) 0.0266 Uani
C27 C 0.7737(15) 0.7336(8) 0.2695(6) 0.0225 Uani
H19 H 0.7432 0.7217 0.3119 0.0270 Uiso
C42 C 0.3586(19) 0.9000(9) 0.2526(7) 0.0325 Uani
H28 H 0.3155 0.8591 0.1998 0.0490 Uiso
H29 H 0.2449 0.9251 0.2775 0.0490 Uiso
H30 H 0.4546 0.9515 0.2552 0.0490 Uiso
Br12 Br 0.8539(2) 0.92705(10) 0.80103(7) 0.0387 Uani
C35 C 0.9011(16) 0.6270(8) 0.8843(6) 0.0258 Uani
C36 C 0.8874(16) 0.6466(8) 0.8203(6) 0.0279 Uani
H21 H 0.9829 0.6289 0.7860 0.0330 Uiso
C37 C 0.7354(17) 0.6918(8) 0.8068(6) 0.0279 Uani
H22 H 0.7253 0.7043 0.7630 0.0340 Uiso
C38 C 0.5960(16) 0.7192(8) 0.8580(6) 0.0245 Uani
C39 C 0.6086(17) 0.6993(8) 0.9215(6) 0.0302 Uani
H23 H 0.5132 0.7173 0.9558 0.0360 Uiso
C40 C 0.7578(17) 0.6540(8) 0.9348(7) 0.0286 Uani
H24 H 0.7652 0.6406 0.9782 0.0340 Uiso
C41 C 0.372(2) 0.7685(11) 0.7541(7) 0.0456 Uani
H25 H 0.3260 0.7027 0.7226 0.0690 Uiso
H26 H 0.2747 0.8071 0.7474 0.0690 Uiso
H27 H 0.4976 0.7865 0.7393 0.0690 Uiso
S5 S 0.4058(5) 0.7855(2) 0.85164(18) 0.0334 Uani
loop_
_atom_site_aniso_label
_atom_site_aniso_U_11
_atom_site_aniso_U_22
_atom_site_aniso_U_33
_atom_site_aniso_U_23
_atom_site_aniso_U_13
_atom_site_aniso_U_12
Br10 0.0303 0.0319 0.0354 0.0003 0.0072 0.0061
Bi2 0.027 0.0265 0.0252 0.01128 0.01395 0.00226
Br4 0.0466 0.0431 0.0332 0.0183 0.0262 0.0101
C14 0.024 0.017 0.028 0 0.006 0.002
C15 0.021 0.026 0.027 0.001 0.006 -0.001
C16 0.028 0.024 0.021 0 -0.001 -0.004
C17 0.022 0.019 0.028 0.004 0.005 0.005
C18 0.031 0.024 0.027 0.001 0.012 -0.002
C19 0.031 0.019 0.035 0.009 0.014 0
C20 0.04 0.057 0.038 0.017 -0.002 0.012
S2 0.0285 0.0302 0.0384 0.0095 0.0094 0.0054
Bi1 0.022 0.027 0.0247 0.00784 0.01357 0.0032
C1 0.033 0.016 0.021 0.005 0.013 0.002
C2 0.036 0.023 0.023 0.007 0.018 0.004
C3 0.031 0.031 0.025 0.011 0.014 0.003
C4 0.025 0.018 0.028 0.005 0.007 0.001
C5 0.026 0.027 0.031 0.013 0.016 0.009
C6 0.022 0.027 0.02 0.009 0.011 0.006
C21 0.043 0.032 0.028 0.015 0.009 0.015
S1 0.0289 0.0222 0.0279 0.0082 0.0153 0.0052
Br7 0.0349 0.0361 0.0357 0.0127 0.0211 -0.0027
Br8 0.0293 0.0292 0.0321 0.0122 0.0156 0.0086
Br11 0.0303 0.0319 0.0354 0.0003 0.0072 0.0061
Br13 0.035 0.0381 0.0358 0.0231 0.0196 0.013
Br5 0.035 0.0381 0.0358 0.0231 0.0196 0.013
Br1 0.0349 0.0361 0.0357 0.0127 0.0211 -0.0027
Br2 0.0293 0.0292 0.0321 0.0122 0.0156 0.0086
Bi3 0.022 0.027 0.0247 0.00784 0.01357 0.0032
Bi7 0.027 0.0265 0.0252 0.01128 0.01395 0.00226
Br16 0.03 0.0274 0.0375 0.0119 0.0144 0.0028
S4 0.0289 0.0222 0.0279 0.0082 0.0153 0.0052
Br6 0.03 0.0274 0.0375 0.0119 0.0144 0.0028
C10 0.027 0.02 0.024 0.009 0.009 -0.002
C12 0.026 0.026 0.034 0.01 0.016 0.001
C13 0.023 0.028 0.03 0.004 0.01 -0.001
C28 0.026 0.028 0.025 0.006 0.008 0
C29 0.025 0.03 0.023 0.007 0.012 0.004
C30 0.023 0.019 0.027 0.007 0.011 0.003
C32 0.032 0.024 0.025 0.009 0.014 0.005
C7 0.026 0.028 0.025 0.006 0.008 0
C8 0.025 0.03 0.023 0.007 0.012 0.004
C9 0.023 0.019 0.027 0.007 0.011 0.003
C11 0.032 0.024 0.025 0.009 0.014 0.005
C31 0.027 0.02 0.024 0.009 0.009 -0.002
C33 0.026 0.026 0.034 0.01 0.016 0.001
C34 0.023 0.028 0.03 0.004 0.01 -0.001
C22 0.033 0.016 0.021 0.005 0.013 0.002
C23 0.036 0.023 0.023 0.007 0.018 0.004
C24 0.031 0.031 0.025 0.011 0.014 0.003
C25 0.025 0.018 0.028 0.005 0.007 0.001
C26 0.026 0.027 0.031 0.013 0.016 0.009
C27 0.022 0.027 0.02 0.009 0.011 0.006
C42 0.043 0.032 0.028 0.015 0.009 0.015
Br12 0.0466 0.0431 0.0332 0.0183 0.0262 0.0101
C35 0.024 0.017 0.028 0 0.006 0.002
C36 0.021 0.026 0.027 0.001 0.006 -0.001
C37 0.028 0.024 0.021 0 -0.001 -0.004
C38 0.022 0.019 0.028 0.004 0.005 0.005
C39 0.031 0.024 0.027 0.001 0.012 -0.002
C40 0.031 0.019 0.035 0.009 0.014 0
C41 0.04 0.057 0.038 0.017 -0.002 0.012
S5 0.0285 0.0302 0.0384 0.0095 0.0094 0.0054
loop_
_geom_bond_atom_site_label_1
_geom_bond_atom_site_label_2
_geom_bond_site_symmetry_1
_geom_bond_site_symmetry_2
Bi2 Br4 1_555 1_555
C15 C14 1_555 1_555
H6 C15 1_555 1_555
C16 C15 1_555 1_555
H7 C16 1_555 1_555
C17 C16 1_555 1_555
C18 C17 1_555 1_555
H8 C18 1_555 1_555
C19 C14 1_555 1_555
H9 C19 1_555 1_555
C20 H10 1_555 1_555
H11 C20 1_555 1_555
H12 C20 1_555 1_555
S2 Bi2 1_555 1_555
C17 S2 1_555 1_555
C18 C19 1_555 1_555
C20 S2 1_555 1_555
C1 C2 1_555 1_555
C2 H1 1_555 1_555
C3 C2 1_555 1_555
H2 C3 1_555 1_555
C4 C3 1_555 1_555
C5 C4 1_555 1_555
C6 C1 1_555 1_555
H4 C6 1_555 1_555
C21 H13 1_555 1_555
H14 C21 1_555 1_555
H15 C21 1_555 1_555
S1 Bi1 1_555 1_555
Br8 Bi1 1_555 1_555
C1 S1 1_555 1_555
C5 C6 1_555 1_555
C21 S1 1_555 1_555
Bi3 Br2 1_555 1_555
S4 Bi3 1_555 1_555
C12 C10 1_555 1_555
C13 C12 1_555 1_555
C29 C28 1_555 1_555
C30 C29 1_555 1_555
C32 C10 1_555 1_555
H20 C32 1_555 1_555
C30 C32 1_555 1_555
C8 C7 1_555 1_555
C9 C8 1_555 1_555
C11 C9 1_555 1_555
H5 C11 1_555 1_555
C31 C11 1_555 1_555
C33 C31 1_555 1_555
C34 C33 1_555 1_555
C22 C23 1_555 1_555
C23 H16 1_555 1_555
C24 C23 1_555 1_555
H17 C24 1_555 1_555
C25 C24 1_555 1_555
C26 C25 1_555 1_555
C27 C22 1_555 1_555
H19 C27 1_555 1_555
C42 H28 1_555 1_555
H29 C42 1_555 1_555
H30 C42 1_555 1_555
S4 C22 1_555 1_555
C26 C27 1_555 1_555
C42 S4 1_555 1_555
Bi7 Br12 1_555 1_555
C36 C35 1_555 1_555
H21 C36 1_555 1_555
C37 C36 1_555 1_555
H22 C37 1_555 1_555
C38 C37 1_555 1_555
C39 C38 1_555 1_555
H23 C39 1_555 1_555
C40 C35 1_555 1_555
H24 C40 1_555 1_555
C41 H25 1_555 1_555
H26 C41 1_555 1_555
H27 C41 1_555 1_555
S5 Bi7 1_555 1_555
C38 S5 1_555 1_555
C39 C40 1_555 1_555
C41 S5 1_555 1_555

#END
