
###############################################################################
#
# This file contains modified crystal structure data generated from the
# MOF subset of the Cambridge Structural Database (CSD) v543 
# hosted by the Cambridge Crystallographic Data Centre (CCDC).
#
# This work is licensed under the Creative Commons
# Attribution-NonCommercial-ShareAlike 4.0 International License.
# To view a copy of this license, visit
# http://creativecommons.org/licenses/by-nc-sa/4.0/
# or send a letter to
# Creative Commons, PO Box 1866, Mountain View, CA 94042, USA.
#
# CIF created using the CSD Python API on 29 September 2022
# The structure has been converted into the P1 space group
# The structure has a 3D framework
# The original CSD entry AJAKON is in the monoclinic crystal system
# The framework has been calculated to contain at least 10.0% void space
# The void calculation uses a probe of radius 1.32A, grid spacing 0.4
# H atom positions have been added when not included in the experimental data
# Generated hydrogen atom positions removed from atoms on special positions
#
###############################################################################

data_AJAKON
_chemical_formula_moiety         '(C168 H108 Cd14 N8 O50)n'
_symmetry_cell_setting           triclinic
_symmetry_space_group_name_H-M   'P 1'
_symmetry_Int_Tables_number      1
_space_group_name_Hall           'P 1'
loop_
_symmetry_equiv_pos_site_id
_symmetry_equiv_pos_as_xyz
1 x,y,z
_cell_length_a                   14.4144(10)
_cell_length_b                   23.3964(17)
_cell_length_c                   15.5641(11)
_cell_angle_alpha                90
_cell_angle_beta                 107.6320(10)
_cell_angle_gamma                90
_cell_volume                     5002.33
loop_
_atom_site_label
_atom_site_type_symbol
_atom_site_fract_x
_atom_site_fract_y
_atom_site_fract_z
Cd13 Cd 0.24684(4) 0.05526(2) 0.08252(4)
Cd21 Cd 0.0000 -0.0000 -0.0000
C67 C 0.1730(7) 0.0410(4) 0.4889(7)
H39 H 0.1437 0.0557 0.5298
C73 C 0.2521(7) 0.0551(5) 0.3719(6)
C76 C 0.2348(7) 0.0064(4) 0.7641(6)
H44 H 0.2880 0.0272 0.7987
C78 C 0.2077(7) 0.0774(4) 0.4345(7)
H46 H 0.2016 0.1168 0.4394
C82 C 0.1644(7) 0.0097(4) 0.8922(6)
O20 O 0.3247(6) 0.0739(4) 0.2572(6)
C83 C 0.2831(8) 0.0940(5) 0.3107(8)
O21 O 0.2245(5) 0.0480(3) 0.9334(4)
O23 O 0.2687(7) 0.1475(4) 0.3181(5)
Cd17 Cd 0.27371(5) 0.19156(3) 0.19252(4)
Cd21_2 Cd -0.0000 -0.0000 1.0000
Cd21_3 Cd 0.0000 1.0000 -0.0000
N4 N 0.1464(6) 0.9442(3) 0.5352(5)
C58 C 0.1828(7) 0.9825(4) 0.4807(6)
C59 C 0.1597(6) 0.9934(3) 0.7999(6)
C60 C 0.2321(7) 0.9892(4) 0.6785(6)
H32 H 0.2840 0.9971 0.6566
C62 C 0.0813(7) 0.9629(4) 0.7463(6)
H34 H 0.0312 0.9527 0.7693
C64 C 0.0137(7) 0.9102(4) 0.4067(6)
H36 H 0.0165 0.9441 0.3765
C65 C 0.2262(7) 0.9602(4) 0.4201(6)
H37 H 0.2327 0.9209 0.4154
C68 C 0.1505(7) 0.9597(4) 0.6251(6)
C69 C 0.0790(7) 0.9004(4) 0.4903(7)
C70 C 0.0758(7) 0.9472(4) 0.6598(6)
H40 H 0.0210 0.9279 0.6244
C74 C 0.0050(8) 0.8086(4) 0.4944(7)
H43 H 0.0019 0.7747 0.5245
C77 C 0.2603(8) 0.9975(5) 0.3657(7)
H45 H 0.2892 0.9824 0.3247
C80 C 0.0784(8) 0.8486(4) 0.5337(6)
H48 H 0.1258 0.8405 0.5879
O22 O 0.1060(5) 0.9835(3) 0.9269(4)
Cd21_4 Cd -0.0000 1.0000 1.0000
Cd21_5 Cd 1.0000 -0.0000 -0.0000
Cd21_6 Cd 1.0000 -0.0000 1.0000
Cd21_7 Cd 1.0000 1.0000 -0.0000
O3 O 0.1600(4) 0.3810(3) 0.6323(5)
O4 O 0.0451(5) 0.4072(2) 0.5093(4)
C11 C 0.0702(6) 0.3806(3) 0.5806(7)
C13 C 0.0207(6) 0.3278(4) 0.7006(7)
H6 H 0.0831 0.3323 0.7404
Cd3 Cd -0.0000 0.5000 0.5000
Cd4 Cd 0.75316(4) 0.55526(2) 0.41748(4)
Cd5 Cd 0.72629(5) 0.69156(3) 0.30748(4)
O14 O 0.5871(4) 0.5644(3) 0.3999(5)
O15 O 0.6625(4) 0.6477(3) 0.4088(4)
C43 C 0.5839(6) 0.6178(4) 0.3953(6)
C44 C 0.4897(6) 0.6476(4) 0.3748(7)
C45 C 0.3108(7) 0.7030(4) 0.3274(8)
C46 C 0.3960(7) 0.7337(4) 0.3639(7)
H25 H 0.3934 0.7727 0.3744
C47 C 0.4849(7) 0.7061(4) 0.3848(7)
H26 H 0.5421 0.7271 0.4059
C48 C 0.4029(7) 0.6166(4) 0.3429(8)
H27 H 0.4048 0.5770 0.3380
C49 C 0.3145(7) 0.6446(4) 0.3186(8)
H28 H 0.2572 0.6239 0.2962
N3 N 0.2177(6) 0.7312(3) 0.3016(7)
C50 C 0.2655(7) 0.7984(4) 0.2033(7)
H29 H 0.3068 0.7710 0.1915
C51 C 0.2060(6) 0.7845(4) 0.2585(7)
O18 O 0.8132(5) 0.7770(3) 0.2901(5)
O19 O 0.8334(5) 0.7415(3) 0.4239(5)
C52 C 0.0006(6) 0.6521(3) 0.3874(6)
C54 C 0.9370(7) 0.8190(4) 0.4109(6)
C56 C 0.2617(7) 0.8519(4) 0.1678(7)
H31 H 0.3048 0.8618 0.1362
C57 C 0.8559(7) 0.7771(4) 0.3713(7)
C61 C 0.0504(7) 0.6991(4) 0.2707(7)
H33 H 0.0360 0.7123 0.2118
C63 C 0.9431(7) 0.8691(4) 0.3671(7)
H35 H 0.8997 0.8759 0.3102
C66 C 0.1380(6) 0.8237(4) 0.2683(7)
H38 H 0.0976 0.8148 0.3030
C71 C 0.1304(6) 0.8766(4) 0.2256(6)
H41 H 0.0820 0.9020 0.2289
C72 C 0.1633(7) 0.6873(4) 0.4201(7)
H42 H 0.2246 0.6933 0.4611
C75 C 0.1428(6) 0.7062(4) 0.3303(7)
C79 C 0.0935(7) 0.6605(4) 0.4460(7)
H47 H 0.1081 0.6474 0.5050
C81 C 0.1947(6) 0.8920(4) 0.1779(6)
C84 C 0.1932(7) 0.9504(4) 0.1395(6)
O24 O 0.1222(5) 0.9833(2) 0.1314(4)
O25 O 0.2686(5) 0.9649(3) 0.1215(5)
O26 O 0.5883(6) 0.7404(4) 0.2360(6)
Cd6 Cd 0.24684(4) 0.44474(2) 0.58252(4)
Cd14 Cd 0.27371(5) 0.30844(3) 0.69252(4)
O28 O 0.8400(4) 0.6190(3) 0.3677(5)
O30 O 0.6753(6) 0.5739(4) 0.2428(6)
O32 O 0.7755(5) 0.5480(3) 0.5666(4)
O33 O 0.1060(5) 0.5165(3) 0.4269(4)
O36 O 0.7313(7) 0.6475(4) 0.1819(5)
O38 O 0.1222(5) 0.5167(2) 0.6314(4)
O40 O 0.8778(5) 0.4833(2) 0.3686(4)
O42 O 0.7314(5) 0.4649(3) 0.3785(5)
Cd21_8 Cd 1.0000 1.0000 1.0000
O1 O 0.4129(4) 0.4356(3) 0.6001(5)
O2 O 0.3375(4) 0.3523(3) 0.5912(4)
C1 C 0.4161(6) 0.3822(4) 0.6047(6)
C2 C 0.5103(6) 0.3524(4) 0.6252(7)
C3 C 0.6892(7) 0.2970(4) 0.6726(8)
C4 C 0.6040(7) 0.2663(4) 0.6361(7)
H1 H 0.6066 0.2273 0.6256
C5 C 0.5151(7) 0.2939(4) 0.6152(7)
H2 H 0.4579 0.2729 0.5941
C6 C 0.5971(7) 0.3834(4) 0.6571(8)
H3 H 0.5952 0.4230 0.6620
C7 C 0.6855(7) 0.3554(4) 0.6814(8)
H4 H 0.7428 0.3761 0.7038
N1 N 0.7823(6) 0.2688(3) 0.6984(7)
C8 C 0.7345(7) 0.2016(4) 0.7967(7)
H5 H 0.6932 0.2290 0.8085
C9 C 0.7940(6) 0.2155(4) 0.7415(7)
O5 O 0.1868(5) 0.2230(3) 0.7099(5)
O6 O 0.1666(5) 0.2585(3) 0.5761(5)
C10 C 0.9994(6) 0.3479(3) 0.6126(6)
C12 C 0.0630(7) 0.1810(4) 0.5891(6)
C14 C 0.7383(7) 0.1481(4) 0.8322(7)
H7 H 0.6952 0.1382 0.8638
C15 C 0.1441(7) 0.2229(4) 0.6287(7)
C19 C 0.9496(7) 0.3009(4) 0.7293(7)
H9 H 0.9640 0.2877 0.7882
C21 C 0.0569(7) 0.1309(4) 0.6329(7)
H11 H 0.1003 0.1241 0.6898
C24 C 0.8620(6) 0.1763(4) 0.7317(7)
H14 H 0.9024 0.1852 0.6970
C29 C 0.8696(6) 0.1234(4) 0.7744(6)
H17 H 0.9180 0.0980 0.7711
C30 C 0.8367(7) 0.3127(4) 0.5799(7)
H18 H 0.7754 0.3067 0.5389
C33 C 0.8572(6) 0.2938(4) 0.6697(7)
C37 C 0.9065(7) 0.3395(4) 0.5540(7)
H23 H 0.8919 0.3526 0.4950
C39 C 0.8053(6) 0.1080(4) 0.8221(6)
C42 C 0.8068(7) 0.0496(4) 0.8605(6)
O11 O 0.8778(5) 0.0167(2) 0.8686(4)
O12 O 0.7314(5) 0.0351(3) 0.8785(5)
O13 O 0.4117(6) 0.2596(4) 0.7640(6)
Cd3_2 Cd 1.0000 0.5000 0.5000
O17 O 0.9549(5) 0.5928(2) 0.4907(4)
C53 C 0.9298(6) 0.6194(3) 0.4194(7)
C55 C 0.9793(6) 0.6722(4) 0.2994(7)
H30 H 0.9169 0.6677 0.2596
O29 O 0.3247(6) 0.4261(4) 0.7572(6)
O31 O 0.2245(5) 0.4520(3) 0.4334(4)
O34 O 0.8940(5) 0.4835(3) 0.5731(4)
O35 O 0.2687(7) 0.3525(4) 0.8181(5)
O41 O 0.2686(5) 0.5351(3) 0.6215(5)
Cd9 Cd 0.75316(4) 0.94474(2) 0.91748(4)
N2 N 0.8536(6) 0.0558(3) 0.4648(5)
C16 C 0.8172(7) 0.0175(4) 0.5193(6)
C17 C 0.8403(6) 0.0066(3) 0.2001(6)
C18 C 0.7679(7) 0.0108(4) 0.3215(6)
H8 H 0.7160 0.0029 0.3434
C20 C 0.9187(7) 0.0371(4) 0.2537(6)
H10 H 0.9688 0.0473 0.2307
C22 C 0.9863(7) 0.0898(4) 0.5933(6)
H12 H 0.9835 0.0559 0.6235
C23 C 0.7738(7) 0.0398(4) 0.5799(6)
H13 H 0.7673 0.0791 0.5846
C26 C 0.8495(7) 0.0403(4) 0.3749(6)
C27 C 0.9210(7) 0.0996(4) 0.5097(7)
C28 C 0.9242(7) 0.0528(4) 0.3402(6)
H16 H 0.9790 0.0721 0.3756
C32 C 0.9950(8) 0.1914(4) 0.5056(7)
H19 H 0.9981 0.2253 0.4755
C35 C 0.7397(8) 0.0025(5) 0.6343(7)
H21 H 0.7108 0.0176 0.6753
C38 C 0.9216(8) 0.1514(4) 0.4663(6)
H24 H 0.8742 0.1595 0.4121
O9 O 0.8940(5) 0.0165(3) 0.0731(4)
C25 C 0.8270(7) 0.9590(4) 0.5111(7)
H15 H 0.8563 0.9443 0.4702
C31 C 0.7479(7) 0.9449(5) 0.6281(6)
C34 C 0.7652(7) 0.9936(4) 0.2359(6)
H20 H 0.7120 0.9728 0.2013
C36 C 0.7923(7) 0.9226(4) 0.5655(7)
H22 H 0.7984 0.8832 0.5606
C40 C 0.8356(7) 0.9903(4) 0.1078(6)
O7 O 0.6753(6) 0.9261(4) 0.7428(6)
C41 C 0.7169(8) 0.9060(5) 0.6893(8)
O8 O 0.7755(5) 0.9520(3) 0.0666(4)
O10 O 0.7313(7) 0.8525(4) 0.6819(5)
Cd15 Cd 0.72629(5) 0.80844(3) 0.80748(4)
N2_2 N 0.1464(6) 0.5558(3) 0.0352(5)
C17_2 C 0.1597(6) 0.5066(3) 0.2999(6)
C18_2 C 0.2321(7) 0.5108(4) 0.1785(6)
H8_2 H 0.2840 0.5029 0.1566
C20_2 C 0.0813(7) 0.5371(4) 0.2463(6)
H10_2 H 0.0312 0.5473 0.2693
H15_2 H 0.1437 0.4443 0.0298
C26_2 C 0.1505(7) 0.5403(4) 0.1251(6)
C28_2 C 0.0758(7) 0.5528(4) 0.1598(6)
H16_2 H 0.0210 0.5721 0.1244
H19_2 H 0.0019 0.7253 0.0245
C34_2 C 0.2348(7) 0.4936(4) 0.2641(6)
H20_2 H 0.2880 0.4728 0.2987
C38_2 C 0.0784(8) 0.6514(4) 0.0337(6)
H24_2 H 0.1258 0.6595 0.0879
C40_2 C 0.1644(7) 0.4903(4) 0.3922(6)
C16_2 C 0.1828(7) 0.5175(4) 0.9807(6)
C22_2 C 0.0137(7) 0.5898(4) 0.9067(6)
H12_2 H 0.0165 0.5559 0.8765
C23_2 C 0.2262(7) 0.5398(4) 0.9201(6)
H13_2 H 0.2327 0.5791 0.9154
C25_2 C 0.1730(7) 0.4590(4) 0.9889(7)
C27_2 C 0.0790(7) 0.5996(4) 0.9903(7)
C31_2 C 0.2521(7) 0.4449(5) 0.8719(6)
C32_2 C 0.0050(8) 0.6914(4) 0.9944(7)
C35_2 C 0.2603(8) 0.5025(5) 0.8657(7)
H21_2 H 0.2892 0.5176 0.8247
C36_2 C 0.2077(7) 0.4226(4) 0.9345(7)
H22_2 H 0.2016 0.3832 0.9394
C41_2 C 0.2831(8) 0.4060(5) 0.8107(8)
O16 O 0.1600(4) 0.1190(3) 0.1323(5)
O17_2 O 0.0451(5) 0.0928(2) 0.0093(4)
C53_2 C 0.0702(6) 0.1194(3) 0.0806(7)
C55_2 C 0.0207(6) 0.1722(4) 0.2006(7)
H30_2 H 0.0831 0.1677 0.2404
H23_2 H 0.1081 0.8526 0.0050
O1_2 O 0.5871(4) 0.9356(3) 0.8999(5)
O2_2 O 0.6625(4) 0.8523(3) 0.9088(4)
C1_2 C 0.5839(6) 0.8822(4) 0.8953(6)
C2_2 C 0.4897(6) 0.8524(4) 0.8748(7)
C3_2 C 0.3108(7) 0.7970(4) 0.8274(8)
C4_2 C 0.3960(7) 0.7663(4) 0.8639(7)
H1_2 H 0.3934 0.7273 0.8744
C5_2 C 0.4849(7) 0.7939(4) 0.8848(7)
H2_2 H 0.5421 0.7729 0.9059
C6_2 C 0.4029(7) 0.8834(4) 0.8429(8)
H3_2 H 0.4048 0.9230 0.8380
C7_2 C 0.3145(7) 0.8554(4) 0.8186(8)
H4_2 H 0.2572 0.8761 0.7962
N1_2 N 0.2177(6) 0.7688(3) 0.8016(7)
C8_2 C 0.2655(7) 0.7016(4) 0.7033(7)
H5_2 H 0.3068 0.7290 0.6915
C9_2 C 0.2060(6) 0.7155(4) 0.7585(7)
O5_2 O 0.8132(5) 0.7230(3) 0.7901(5)
O6_2 O 0.8334(5) 0.7585(3) 0.9239(5)
C10_2 C 0.0006(6) 0.8479(3) 0.8874(6)
C12_2 C 0.9370(7) 0.6810(4) 0.9109(6)
C14_2 C 0.2617(7) 0.6481(4) 0.6678(7)
H7_2 H 0.3048 0.6382 0.6362
C15_2 C 0.8559(7) 0.7229(4) 0.8713(7)
C19_2 C 0.0504(7) 0.8009(4) 0.7707(7)
H9_2 H 0.0360 0.7877 0.7118
C21_2 C 0.9431(7) 0.6309(4) 0.8671(7)
H11_2 H 0.8997 0.6241 0.8102
C24_2 C 0.1380(6) 0.6763(4) 0.7683(7)
H14_2 H 0.0976 0.6852 0.8030
C29_2 C 0.1304(6) 0.6234(4) 0.7256(6)
H17_2 H 0.0820 0.5980 0.7289
C30_2 C 0.1633(7) 0.8127(4) 0.9201(7)
H18_2 H 0.2246 0.8067 0.9611
C33_2 C 0.1428(6) 0.7938(4) 0.8303(7)
C37_2 C 0.0935(7) 0.8395(4) 0.9460(7)
C39_2 C 0.1947(6) 0.6080(4) 0.6779(6)
C42_2 C 0.1932(7) 0.5496(4) 0.6395(6)
O13_2 O 0.5883(6) 0.7596(4) 0.7360(6)
O27 O 0.8400(4) 0.8810(3) 0.8677(5)
O14_2 O 0.4129(4) 0.0644(3) 0.1001(5)
O15_2 O 0.3375(4) 0.1477(3) 0.0912(4)
C43_2 C 0.4161(6) 0.1178(4) 0.1047(6)
C44_2 C 0.5103(6) 0.1476(4) 0.1252(7)
C45_2 C 0.6892(7) 0.2030(4) 0.1726(8)
C46_2 C 0.6040(7) 0.2337(4) 0.1361(7)
H25_2 H 0.6066 0.2727 0.1256
C47_2 C 0.5151(7) 0.2061(4) 0.1152(7)
H26_2 H 0.4579 0.2271 0.0941
C48_2 C 0.5971(7) 0.1166(4) 0.1571(8)
H27_2 H 0.5952 0.0770 0.1620
C49_2 C 0.6855(7) 0.1446(4) 0.1814(8)
H28_2 H 0.7428 0.1239 0.2038
N3_2 N 0.7823(6) 0.2312(3) 0.1984(7)
C50_2 C 0.7345(7) 0.2984(4) 0.2967(7)
H29_2 H 0.6932 0.2710 0.3085
C51_2 C 0.7940(6) 0.2845(4) 0.2415(7)
O18_2 O 0.1868(5) 0.2770(3) 0.2099(5)
O19_2 O 0.1666(5) 0.2415(3) 0.0761(5)
C52_2 C 0.9994(6) 0.1521(3) 0.1126(6)
C54_2 C 0.0630(7) 0.3190(4) 0.0891(6)
C56_2 C 0.7383(7) 0.3519(4) 0.3322(7)
H31_2 H 0.6952 0.3618 0.3638
C57_2 C 0.1441(7) 0.2771(4) 0.1287(7)
C61_2 C 0.9496(7) 0.1991(4) 0.2293(7)
H33_2 H 0.9640 0.2123 0.2882
C63_2 C 0.0569(7) 0.3691(4) 0.1329(7)
H35_2 H 0.1003 0.3759 0.1898
C66_2 C 0.8620(6) 0.3237(4) 0.2317(7)
H38_2 H 0.9024 0.3148 0.1970
C71_2 C 0.8696(6) 0.3766(4) 0.2744(6)
H41_2 H 0.9180 0.4020 0.2711
C72_2 C 0.8367(7) 0.1873(4) 0.0799(7)
H42_2 H 0.7754 0.1933 0.0389
C75_2 C 0.8572(6) 0.2062(4) 0.1697(7)
C79_2 C 0.9065(7) 0.1605(4) 0.0540(7)
C81_2 C 0.8053(6) 0.3920(4) 0.3221(6)
C84_2 C 0.8068(7) 0.4504(4) 0.3605(6)
O26_2 O 0.4117(6) 0.2404(4) 0.2640(6)
H47_2 H 0.8919 0.1474 0.9950
O4_2 O 0.9549(5) 0.9072(2) 0.9907(4)
C11_2 C 0.9298(6) 0.8806(3) 0.9194(7)
C13_2 C 0.9793(6) 0.8278(4) 0.7994(7)
H6_2 H 0.9169 0.8323 0.7596
C58_2 C 0.8172(7) 0.4825(4) 0.0193(6)
C64_2 C 0.9863(7) 0.4102(4) 0.0933(6)
H36_2 H 0.9835 0.4441 0.1235
C65_2 C 0.7738(7) 0.4602(4) 0.0799(6)
H37_2 H 0.7673 0.4209 0.0846
C67_2 C 0.8270(7) 0.5410(4) 0.0111(7)
C69_2 C 0.9210(7) 0.4004(4) 0.0097(7)
C73_2 C 0.7479(7) 0.5551(5) 0.1281(6)
C74_2 C 0.9950(8) 0.3086(4) 0.0056(7)
C77_2 C 0.7397(8) 0.4975(5) 0.1343(7)
H45_2 H 0.7108 0.4824 0.1753
C78_2 C 0.7923(7) 0.5774(4) 0.0655(7)
H46_2 H 0.7984 0.6168 0.0606
C83_2 C 0.7169(8) 0.5940(5) 0.1893(8)
N4_2 N 0.8536(6) 0.4442(3) 0.9648(5)
C59_2 C 0.8403(6) 0.4934(3) 0.7001(6)
C60_2 C 0.7679(7) 0.4892(4) 0.8215(6)
H32_2 H 0.7160 0.4971 0.8434
C62_2 C 0.9187(7) 0.4629(4) 0.7537(6)
H34_2 H 0.9688 0.4527 0.7307
H39_2 H 0.8563 0.5557 0.9702
C68_2 C 0.8495(7) 0.4597(4) 0.8749(6)
C70_2 C 0.9242(7) 0.4472(4) 0.8402(6)
H40_2 H 0.9790 0.4279 0.8756
H43_2 H 0.9981 0.2747 0.9755
C76_2 C 0.7652(7) 0.5064(4) 0.7359(6)
H44_2 H 0.7120 0.5272 0.7013
C80_2 C 0.9216(8) 0.3486(4) 0.9663(6)
H48_2 H 0.8742 0.3405 0.9121
C82_2 C 0.8356(7) 0.5097(4) 0.6078(6)
loop_
_geom_bond_atom_site_label_1
_geom_bond_atom_site_label_2
_geom_bond_site_symmetry_1
_geom_bond_site_symmetry_2
H39 C67 1_555 1_555
H44 C76 1_555 1_555
C78 C67 1_555 1_555
H46 C78 1_555 1_555
O20 C83 1_555 1_555
C83 C73 1_555 1_555
O21 C82 1_555 1_555
O23 C83 1_555 1_555
Cd13 O20 1_555 1_555
Cd17 O23 1_555 1_555
C73 C78 1_555 1_555
N4 C58 1_555 1_555
C58 C65 1_555 1_555
C59 C62 1_555 1_555
C60 H32 1_555 1_555
C62 H34 1_555 1_555
H36 C64 1_555 1_555
C65 H37 1_555 1_555
C68 N4 1_555 1_555
C69 N4 1_555 1_555
C70 C62 1_555 1_555
H40 C70 1_555 1_555
H43 C74 1_555 1_555
C77 C65 1_555 1_555
H45 C77 1_555 1_555
C80 C69 1_555 1_555
H48 C80 1_555 1_555
Cd21_4 O22 1_555 1_555
C60 C68 1_555 1_555
C64 C69 1_555 1_555
C68 C70 1_555 1_555
C74 C80 1_555 1_555
O3 C11 1_555 1_555
O4 C11 1_555 1_555
H6 C13 1_555 1_555
Cd3 O4 1_555 1_555
Cd4 O14 1_555 1_555
Cd5 O15 1_555 1_555
O14 C43 1_555 1_555
O15 Cd4 1_555 1_555
C43 O15 1_555 1_555
C44 C43 1_555 1_555
C45 C46 1_555 1_555
C46 H25 1_555 1_555
C47 C44 1_555 1_555
H26 C47 1_555 1_555
C48 C44 1_555 1_555
H27 C48 1_555 1_555
C49 C45 1_555 1_555
H28 C49 1_555 1_555
N3 C45 1_555 1_555
C50 H29 1_555 1_555
C51 N3 1_555 1_555
O18 Cd5 1_555 1_555
O19 Cd5 1_555 1_555
C54 C57 1_555 1_555
C56 C50 1_555 1_555
H31 C56 1_555 1_555
C57 O18 1_555 1_555
H33 C61 1_555 1_555
C63 C54 1_555 1_555
H35 C63 1_555 1_555
C66 C51 1_555 1_555
H38 C66 1_555 1_555
C71 C66 1_555 1_555
H41 C71 1_555 1_555
C72 H42 1_555 1_555
C75 N3 1_555 1_555
C79 C52 1_555 1_555
H47 C79 1_555 1_555
C81 C56 1_555 1_555
C84 C81 1_555 1_555
O24 C84 1_555 1_555
O25 C84 1_555 1_555
O26 Cd5 1_555 1_555
Cd6 O3 1_555 1_555
Cd14 O3 1_555 1_555
O28 Cd4 1_555 1_555
O30 Cd4 1_555 1_555
O32 Cd4 1_555 1_555
O33 Cd3 1_555 1_555
O36 Cd5 1_555 1_555
O38 Cd3 1_555 1_555
O40 Cd4 1_555 1_555
O42 Cd4 1_555 1_555
Cd21_3 O24 1_555 1_555
Cd5 O28 1_555 1_555
C46 C47 1_555 1_555
C48 C49 1_555 1_555
C50 C51 1_555 1_555
O19 C57 1_555 1_555
C61 C75 1_555 1_555
C71 C81 1_555 1_555
C72 C75 1_555 1_555
C72 C79 1_555 1_555
Cd6 O38 1_555 1_555
Cd6 O1 1_555 1_555
Cd14 O2 1_555 1_555
O1 C1 1_555 1_555
O2 Cd6 1_555 1_555
C1 O2 1_555 1_555
C2 C1 1_555 1_555
C3 C4 1_555 1_555
C4 H1 1_555 1_555
C5 C2 1_555 1_555
H2 C5 1_555 1_555
C6 C2 1_555 1_555
H3 C6 1_555 1_555
C7 C3 1_555 1_555
H4 C7 1_555 1_555
N1 C3 1_555 1_555
C8 H5 1_555 1_555
C9 N1 1_555 1_555
O5 Cd14 1_555 1_555
O6 Cd14 1_555 1_555
C12 C15 1_555 1_555
C14 C8 1_555 1_555
H7 C14 1_555 1_555
C15 O5 1_555 1_555
H9 C19 1_555 1_555
C21 C12 1_555 1_555
H11 C21 1_555 1_555
C24 C9 1_555 1_555
H14 C24 1_555 1_555
C29 C24 1_555 1_555
H17 C29 1_555 1_555
C30 H18 1_555 1_555
C33 N1 1_555 1_555
C37 C10 1_555 1_555
H23 C37 1_555 1_555
C39 C14 1_555 1_555
C42 C39 1_555 1_555
O11 C42 1_555 1_555
O12 C42 1_555 1_555
O13 Cd14 1_555 1_555
O28 C53 1_555 1_555
O17 Cd3_2 1_555 1_555
C53 O17 1_555 1_555
H30 C55 1_555 1_555
O29 Cd6 1_555 1_555
O31 Cd6 1_555 1_555
O34 Cd3_2 1_555 1_555
O35 Cd14 1_555 1_555
O40 Cd3_2 1_555 1_555
O41 Cd6 1_555 1_555
Cd21_6 O11 1_555 1_555
C4 C5 1_555 1_555
C6 C7 1_555 1_555
C8 C9 1_555 1_555
O6 C15 1_555 1_555
C19 C33 1_555 1_555
C29 C39 1_555 1_555
C30 C33 1_555 1_555
C30 C37 1_555 1_555
N2 C16 1_555 1_555
C16 C23 1_555 1_555
C17 C20 1_555 1_555
C18 H8 1_555 1_555
C20 H10 1_555 1_555
H12 C22 1_555 1_555
C23 H13 1_555 1_555
C26 N2 1_555 1_555
C27 N2 1_555 1_555
C28 C20 1_555 1_555
H16 C28 1_555 1_555
H19 C32 1_555 1_555
C35 C23 1_555 1_555
H21 C35 1_555 1_555
C38 C27 1_555 1_555
H24 C38 1_555 1_555
Cd21_5 O9 1_555 1_555
C18 C26 1_555 1_555
C22 C27 1_555 1_555
C26 C28 1_555 1_555
C32 C38 1_555 1_555
H15 C25 1_555 1_555
H20 C34 1_555 1_555
C36 C25 1_555 1_555
H22 C36 1_555 1_555
O7 C41 1_555 1_555
C41 C31 1_555 1_555
O8 C40 1_555 1_555
O10 C41 1_555 1_555
Cd9 O7 1_555 1_555
Cd15 O10 1_555 1_555
C31 C36 1_555 1_555
C17_2 C20_2 1_555 1_555
C18_2 H8_2 1_555 1_555
C20_2 H10_2 1_555 1_555
C26_2 N2_2 1_555 1_555
C28_2 C20_2 1_555 1_555
H16_2 C28_2 1_555 1_555
C34_2 C17_2 1_555 1_555
H20_2 C34_2 1_555 1_555
H24_2 C38_2 1_555 1_555
C40_2 C17_2 1_555 1_555
O31 C40_2 1_555 1_555
O33 C40_2 1_555 1_555
C18_2 C26_2 1_555 1_555
C18_2 C34_2 1_555 1_555
C26_2 C28_2 1_555 1_555
C16_2 C23_2 1_555 1_555
H12_2 C22_2 1_555 1_555
C23_2 H13_2 1_555 1_555
C25_2 C16_2 1_555 1_555
C31_2 C35_2 1_555 1_555
C35_2 C23_2 1_555 1_555
H21_2 C35_2 1_555 1_555
C36_2 C25_2 1_555 1_555
H22_2 C36_2 1_555 1_555
O29 C41_2 1_555 1_555
C41_2 C31_2 1_555 1_555
O35 C41_2 1_555 1_555
C22_2 C27_2 1_555 1_555
C31_2 C36_2 1_555 1_555
O16 C53_2 1_555 1_555
O17_2 Cd21 1_555 1_555
C53_2 O17_2 1_555 1_555
H30_2 C55_2 1_555 1_555
Cd13 O16 1_555 1_555
Cd17 O16 1_555 1_555
Cd9 O1_2 1_555 1_555
Cd15 O2_2 1_555 1_555
O1_2 C1_2 1_555 1_555
O2_2 Cd9 1_555 1_555
C1_2 O2_2 1_555 1_555
C2_2 C1_2 1_555 1_555
C3_2 C4_2 1_555 1_555
C4_2 H1_2 1_555 1_555
C5_2 C2_2 1_555 1_555
H2_2 C5_2 1_555 1_555
C6_2 C2_2 1_555 1_555
H3_2 C6_2 1_555 1_555
C7_2 C3_2 1_555 1_555
H4_2 C7_2 1_555 1_555
N1_2 C3_2 1_555 1_555
C8_2 H5_2 1_555 1_555
C9_2 N1_2 1_555 1_555
O5_2 Cd15 1_555 1_555
O6_2 Cd15 1_555 1_555
C12_2 C15_2 1_555 1_555
C14_2 C8_2 1_555 1_555
H7_2 C14_2 1_555 1_555
C15_2 O5_2 1_555 1_555
H9_2 C19_2 1_555 1_555
C21_2 C12_2 1_555 1_555
H11_2 C21_2 1_555 1_555
C24_2 C9_2 1_555 1_555
H14_2 C24_2 1_555 1_555
C29_2 C24_2 1_555 1_555
H17_2 C29_2 1_555 1_555
C30_2 H18_2 1_555 1_555
C33_2 N1_2 1_555 1_555
C37_2 C10_2 1_555 1_555
C39_2 C14_2 1_555 1_555
C42_2 C39_2 1_555 1_555
O38 C42_2 1_555 1_555
O41 C42_2 1_555 1_555
O13_2 Cd15 1_555 1_555
O27 Cd9 1_555 1_555
Cd15 O27 1_555 1_555
C4_2 C5_2 1_555 1_555
C6_2 C7_2 1_555 1_555
C8_2 C9_2 1_555 1_555
O6_2 C15_2 1_555 1_555
C19_2 C33_2 1_555 1_555
C29_2 C39_2 1_555 1_555
C30_2 C33_2 1_555 1_555
C30_2 C37_2 1_555 1_555
Cd13 O14_2 1_555 1_555
Cd17 O15_2 1_555 1_555
O14_2 C43_2 1_555 1_555
O15_2 Cd13 1_555 1_555
C43_2 O15_2 1_555 1_555
C44_2 C43_2 1_555 1_555
C45_2 C46_2 1_555 1_555
C46_2 H25_2 1_555 1_555
C47_2 C44_2 1_555 1_555
H26_2 C47_2 1_555 1_555
C48_2 C44_2 1_555 1_555
H27_2 C48_2 1_555 1_555
C49_2 C45_2 1_555 1_555
H28_2 C49_2 1_555 1_555
N3_2 C45_2 1_555 1_555
C50_2 H29_2 1_555 1_555
C51_2 N3_2 1_555 1_555
O18_2 Cd17 1_555 1_555
O19_2 Cd17 1_555 1_555
C54_2 C57_2 1_555 1_555
C56_2 C50_2 1_555 1_555
H31_2 C56_2 1_555 1_555
C57_2 O18_2 1_555 1_555
H33_2 C61_2 1_555 1_555
C63_2 C54_2 1_555 1_555
H35_2 C63_2 1_555 1_555
C66_2 C51_2 1_555 1_555
H38_2 C66_2 1_555 1_555
C71_2 C66_2 1_555 1_555
H41_2 C71_2 1_555 1_555
C72_2 H42_2 1_555 1_555
C75_2 N3_2 1_555 1_555
C79_2 C52_2 1_555 1_555
C81_2 C56_2 1_555 1_555
C84_2 C81_2 1_555 1_555
O40 C84_2 1_555 1_555
O42 C84_2 1_555 1_555
O26_2 Cd17 1_555 1_555
C46_2 C47_2 1_555 1_555
C48_2 C49_2 1_555 1_555
C50_2 C51_2 1_555 1_555
O19_2 C57_2 1_555 1_555
C61_2 C75_2 1_555 1_555
C71_2 C81_2 1_555 1_555
C72_2 C75_2 1_555 1_555
C72_2 C79_2 1_555 1_555
O27 C11_2 1_555 1_555
O4_2 C11_2 1_555 1_555
H6_2 C13_2 1_555 1_555
Cd21_8 O4_2 1_555 1_555
C58_2 C65_2 1_555 1_555
H36_2 C64_2 1_555 1_555
C65_2 H37_2 1_555 1_555
C67_2 C58_2 1_555 1_555
C73_2 C77_2 1_555 1_555
C77_2 C65_2 1_555 1_555
H45_2 C77_2 1_555 1_555
C78_2 C67_2 1_555 1_555
H46_2 C78_2 1_555 1_555
O30 C83_2 1_555 1_555
C83_2 C73_2 1_555 1_555
O36 C83_2 1_555 1_555
C64_2 C69_2 1_555 1_555
C73_2 C78_2 1_555 1_555
C59_2 C62_2 1_555 1_555
C60_2 H32_2 1_555 1_555
C62_2 H34_2 1_555 1_555
C68_2 N4_2 1_555 1_555
C70_2 C62_2 1_555 1_555
H40_2 C70_2 1_555 1_555
C76_2 C59_2 1_555 1_555
H44_2 C76_2 1_555 1_555
H48_2 C80_2 1_555 1_555
C82_2 C59_2 1_555 1_555
O32 C82_2 1_555 1_555
O34 C82_2 1_555 1_555
C60_2 C68_2 1_555 1_555
C60_2 C76_2 1_555 1_555
C68_2 C70_2 1_555 1_555

#END
