
###############################################################################
#
# This file contains modified crystal structure data generated from the
# MOF subset of the Cambridge Structural Database (CSD) v543 
# hosted by the Cambridge Crystallographic Data Centre (CCDC).
#
# This work is licensed under the Creative Commons
# Attribution-NonCommercial-ShareAlike 4.0 International License.
# To view a copy of this license, visit
# http://creativecommons.org/licenses/by-nc-sa/4.0/
# or send a letter to
# Creative Commons, PO Box 1866, Mountain View, CA 94042, USA.
#
# CIF created using the CSD Python API on 29 September 2022
# The structure has been converted into the P1 space group
# The structure has a 3D framework
# The original CSD entry AJAYIT is in the trigonal crystal system
# The framework has been calculated to contain at least 10.0% void space
# The void calculation uses a probe of radius 1.32A, grid spacing 0.4
#
###############################################################################

data_AJAYIT
_chemical_formula_moiety         '(C48 H60 Cu6 Er4 N12 O48)n'
_symmetry_cell_setting           triclinic
_symmetry_space_group_name_H-M   'P 1'
_symmetry_Int_Tables_number      1
_space_group_name_Hall           'P 1'
loop_
_symmetry_equiv_pos_site_id
_symmetry_equiv_pos_as_xyz
1 x,y,z
_cell_length_a                   13.3169(19)
_cell_length_b                   13.3169(19)
_cell_length_c                   14.297(3)
_cell_angle_alpha                90
_cell_angle_beta                 90
_cell_angle_gamma                120
_cell_volume                     2195.74
loop_
_atom_site_label
_atom_site_type_symbol
_atom_site_fract_x
_atom_site_fract_y
_atom_site_fract_z
N1 N 0.0472(10) 0.6516(12) 0.0458(9)
O4 O 0.0718(10) 0.4742(9) 0.0939(7)
C2 C 0.1257(12) 0.5619(12) 0.1461(9)
C3 C 0.1137(12) 0.6712(12) 0.1243(8)
H3 H 0.0780 0.6872 0.1771
H4 H 0.1899 0.7383 0.1146
H8 H 0.1417 0.8171 0.0085
O7 O 0.1852(12) 0.5621(11) 0.2156(9)
Er3 Er 0.3333 0.6667 0.31946(2)
Er2 Er 0.3333 0.6667 0.81946(2)
O3 O 0.1887(10) 0.6446(10) 0.9254(8)
H2 H 0.0264 0.3503 0.9066
C5 C 0.1023(14) 0.7433(15) 0.9760(11)
H7 H 0.0419 0.7432 0.9381
C8 C 0.1852(15) 0.7372(13) 0.9137(12)
O6 O 0.2411(12) 0.8091(12) 0.8589(8)
O28 O 0.3554(10) 0.5441(14) 0.9254(8)
O29 O 0.4559(14) 0.8113(10) 0.9254(8)
O30 O 0.1909(12) 0.4320(17) 0.8589(8)
O31 O 0.5680(17) 0.7589(12) 0.8589(8)
O32 O 0.4379(11) 0.8148(12) 0.7156(9)
O33 O 0.3769(16) 0.5621(11) 0.7156(9)
O34 O 0.1852(12) 0.6231(16) 0.7156(9)
Er1 Er 0.6667 0.3333 0.15432(2)
O1 O 0.8094(12) 0.3652(11) 0.0450(8)
H1 H 0.9812 0.6503 0.0643
H9 H 0.9618 0.2523 0.0409
O5 O 0.7476(11) 0.1938(12) 0.1157(8)
C7 C 0.8128(12) 0.2749(13) 0.0555(9)
O9 O 0.6348(11) 0.4442(16) 0.0450(8)
H14 H 0.7477 0.7095 0.0409
O11 O 0.8062(12) 0.5538(16) 0.1157(8)
C12 C 0.7251(13) 0.5379(18) 0.0555(9)
O13 O 0.5558(16) 0.1906(12) 0.0450(8)
H19 H 0.2905 0.0382 0.0409
O15 O 0.4462(16) 0.2524(11) 0.1157(8)
C16 C 0.4621(18) 0.1872(12) 0.0555(9)
N5 N 0.3484(12) 0.3956(16) 0.0458(9)
H21 H 0.3497 0.3309 0.0643
O18 O 0.5258(9) 0.5976(13) 0.0939(7)
C17 C 0.4381(12) 0.5638(17) 0.1461(9)
C18 C 0.3288(12) 0.4425(17) 0.1243(8)
H22 H 0.3128 0.3908 0.1771
H23 H 0.2617 0.4516 0.1146
H25 H 0.1829 0.3246 0.0085
O20 O 0.4379(11) 0.6231(16) 0.2156(9)
H26 H 0.6691 0.0188 0.0643
O25 O 0.5694(11) 0.1853(11) 0.2546(7)
O26 O 0.6159(16) 0.4306(11) 0.2546(7)
O27 O 0.8147(11) 0.3841(16) 0.2546(7)
Cu1 Cu 0.9995(6) 0.4997(4) 0.9867(2)
O2 O 0.9239(10) 0.5222(11) 0.8764(8)
C1 C 0.8703(12) 0.4343(13) 0.8215(10)
N2 N 0.9607(11) 0.3468(10) 0.9288(9)
C4 C 0.8765(14) 0.3324(12) 0.8436(10)
H5 H 0.9025 0.3094 0.7885
H6 H 0.7991 0.2701 0.8584
C6 C 0.9044(12) 0.2514(11) 0.9987(9)
H10 H 0.8647 0.1768 0.9676
O8 O 0.8147(11) 0.4306(11) 0.7546(7)
O10 O 0.4778(11) 0.4017(15) 0.8764(8)
C9 C 0.5657(13) 0.4360(18) 0.8215(10)
N3 N 0.6532(10) 0.6139(15) 0.9288(9)
H11 H 0.6497 0.6761 0.9066
C10 C 0.6676(12) 0.5441(18) 0.8436(10)
H12 H 0.6906 0.5931 0.7885
H13 H 0.7299 0.5290 0.8584
C11 C 0.7486(11) 0.6530(16) 0.9987(9)
H15 H 0.8232 0.6879 0.9676
O12 O 0.5694(11) 0.3841(16) 0.7546(7)
O14 O 0.5983(15) 0.0761(10) 0.8764(8)
C13 C 0.5640(18) 0.1297(12) 0.8215(10)
N4 N 0.3861(15) 0.0393(11) 0.9288(9)
C14 C 0.4559(18) 0.1235(14) 0.8436(10)
H17 H 0.4069 0.0975 0.7885
H18 H 0.4710 0.2009 0.8584
C15 C 0.3470(16) 0.0956(12) 0.9987(9)
H20 H 0.3121 0.1353 0.9676
O16 O 0.6159(16) 0.1853(11) 0.7546(7)
Cu2 Cu 0.5003(4) 0.4998(7) 0.9867(2)
Cu3 Cu 0.5002(7) 0.0005(6) 0.9867(2)
C19 C 0.2567(15) 0.3590(21) 0.9760(11)
H24 H 0.2568 0.2987 0.9381
C20 C 0.2628(13) 0.4480(20) 0.9137(12)
Er4 Er 0.6667 0.3333 0.65432(2)
N6 N 0.6044(16) 0.9528(10) 0.0458(9)
O22 O 0.4024(13) 0.9282(10) 0.0939(7)
C21 C 0.4362(17) 0.8743(12) 0.1461(9)
C22 C 0.5575(17) 0.8863(12) 0.1243(8)
H27 H 0.6092 0.9220 0.1771
H28 H 0.5484 0.8101 0.1146
H30 H 0.6754 0.8583 0.0085
O24 O 0.3769(16) 0.8148(12) 0.2156(9)
H16 H 0.3239 0.9736 0.9066
C23 C 0.6410(21) 0.8977(14) 0.9760(11)
H29 H 0.7013 0.9581 0.9381
C24 C 0.5520(20) 0.8148(15) 0.9137(12)
H16_2 H 0.0264 0.6761 0.4066
O21 O 0.1887(10) 0.5441(14) 0.4254(8)
N6_2 N 0.0472(10) 0.3956(16) 0.5458(9)
O22_2 O 0.0718(10) 0.5976(13) 0.5939(7)
C21_2 C 0.1257(12) 0.5638(17) 0.6461(9)
C22_2 C 0.1137(12) 0.4425(17) 0.6243(8)
H27_2 H 0.0780 0.3908 0.6771
H28_2 H 0.1899 0.4516 0.6146
C23_2 C 0.1023(14) 0.3590(21) 0.4760(11)
H29_2 H 0.0419 0.2987 0.4381
H30_2 H 0.1417 0.3246 0.5085
C24_2 C 0.1852(15) 0.4480(20) 0.4137(12)
O23 O 0.2411(12) 0.4320(17) 0.3589(8)
Cu1_2 Cu 0.5003(4) 0.0005(6) 0.4867(2)
O1_2 O 0.6348(11) 0.1906(12) 0.5450(8)
O2_2 O 0.4778(11) 0.0761(10) 0.3764(8)
H1_2 H 0.3497 0.0188 0.5643
C1_2 C 0.5657(13) 0.1297(12) 0.3215(10)
N2_2 N 0.6532(10) 0.0393(11) 0.4288(9)
C4_2 C 0.6676(12) 0.1235(14) 0.3436(10)
H5_2 H 0.6906 0.0975 0.2885
H6_2 H 0.7299 0.2009 0.3584
C6_2 C 0.7486(11) 0.0956(12) 0.4987(9)
H9_2 H 0.7477 0.0382 0.5409
H10_2 H 0.8232 0.1353 0.4676
O5_2 O 0.8062(12) 0.2524(11) 0.6157(8)
C7_2 C 0.7251(13) 0.1872(12) 0.5555(9)
O9_2 O 0.5558(16) 0.3652(11) 0.5450(8)
O10_2 O 0.5983(15) 0.5222(11) 0.3764(8)
C9_2 C 0.5640(18) 0.4343(13) 0.3215(10)
N3_2 N 0.3861(15) 0.3468(10) 0.4288(9)
H11_2 H 0.3239 0.3503 0.4066
C10_2 C 0.4559(18) 0.3324(12) 0.3436(10)
H12_2 H 0.4069 0.3094 0.2885
H13_2 H 0.4710 0.2701 0.3584
C11_2 C 0.3470(16) 0.2514(11) 0.4987(9)
H14_2 H 0.2905 0.2523 0.5409
H15_2 H 0.3121 0.1768 0.4676
O11_2 O 0.4462(16) 0.1938(12) 0.6157(8)
C12_2 C 0.4621(18) 0.2749(13) 0.5555(9)
O13_2 O 0.8094(12) 0.4442(16) 0.5450(8)
O14_2 O 0.9239(10) 0.4017(15) 0.3764(8)
C13_2 C 0.8703(12) 0.4360(18) 0.3215(10)
N4_2 N 0.9607(11) 0.6139(15) 0.4288(9)
C14_2 C 0.8765(14) 0.5441(18) 0.3436(10)
H17_2 H 0.9025 0.5931 0.2885
H18_2 H 0.7991 0.5290 0.3584
C15_2 C 0.9044(12) 0.6530(16) 0.4987(9)
H19_2 H 0.9618 0.7095 0.5409
H20_2 H 0.8647 0.6879 0.4676
O15_2 O 0.7476(11) 0.5538(16) 0.6157(8)
C16_2 C 0.8128(12) 0.5379(18) 0.5555(9)
Cu2_2 Cu 0.5002(7) 0.4997(4) 0.4867(2)
Cu3_2 Cu 0.9995(6) 0.4998(7) 0.4867(2)
O17 O 0.4559(14) 0.6446(10) 0.4254(8)
N5_2 N 0.6044(16) 0.6516(12) 0.5458(9)
H21_2 H 0.6691 0.6503 0.5643
O18_2 O 0.4024(13) 0.4742(9) 0.5939(7)
C17_2 C 0.4362(17) 0.5619(12) 0.6461(9)
C18_2 C 0.5575(17) 0.6712(12) 0.6243(8)
H22_2 H 0.6092 0.6872 0.6771
H23_2 H 0.5484 0.7383 0.6146
C19_2 C 0.6410(21) 0.7433(15) 0.4760(11)
H24_2 H 0.7013 0.7432 0.4381
H25_2 H 0.6754 0.8171 0.5085
C20_2 C 0.5520(20) 0.7372(13) 0.4137(12)
O19 O 0.5680(17) 0.8091(12) 0.3589(8)
H26_2 H 0.9812 0.3309 0.5643
O3_2 O 0.3554(10) 0.8113(10) 0.4254(8)
N1_2 N 0.3484(12) 0.9528(10) 0.5458(9)
O4_2 O 0.5258(9) 0.9282(10) 0.5939(7)
H2_2 H 0.6497 0.9736 0.4066
C2_2 C 0.4381(12) 0.8743(12) 0.6461(9)
C3_2 C 0.3288(12) 0.8863(12) 0.6243(8)
H3_2 H 0.3128 0.9220 0.6771
H4_2 H 0.2617 0.8101 0.6146
C5_2 C 0.2567(15) 0.8977(14) 0.4760(11)
H7_2 H 0.2568 0.9581 0.4381
H8_2 H 0.1829 0.8583 0.5085
C8_2 C 0.2628(13) 0.8148(15) 0.4137(12)
O6_2 O 0.1909(12) 0.7589(12) 0.3589(8)
loop_
_geom_bond_atom_site_label_1
_geom_bond_atom_site_label_2
_geom_bond_site_symmetry_1
_geom_bond_site_symmetry_2
C2 O4 1_555 1_555
C3 N1 1_555 1_555
H3 C3 1_555 1_555
H4 C3 1_555 1_555
O7 C2 1_555 1_555
Er3 O7 1_555 1_555
C2 C3 1_555 1_555
Er2 O3 1_555 1_555
H7 C5 1_555 1_555
C8 O3 1_555 1_555
O6 Er2 1_555 1_555
O28 Er2 1_555 1_555
O29 Er2 1_555 1_555
O30 Er2 1_555 1_555
O31 Er2 1_555 1_555
O32 Er2 1_555 1_555
O33 Er2 1_555 1_555
O34 Er2 1_555 1_555
C5 C8 1_555 1_555
C8 O6 1_555 1_555
Er1 O1 1_555 1_555
O1 C7 1_555 1_555
O5 Er1 1_555 1_555
O9 Er1 1_555 1_555
O11 Er1 1_555 1_555
C12 O9 1_555 1_555
O13 Er1 1_555 1_555
O15 Er1 1_555 1_555
C16 O13 1_555 1_555
H21 N5 1_555 1_555
C17 O18 1_555 1_555
C18 N5 1_555 1_555
H22 C18 1_555 1_555
H23 C18 1_555 1_555
O20 C17 1_555 1_555
O25 Er1 1_555 1_555
O26 Er1 1_555 1_555
O27 Er1 1_555 1_555
Er3 O20 1_555 1_555
O5 C7 1_555 1_555
O11 C12 1_555 1_555
O15 C16 1_555 1_555
C17 C18 1_555 1_555
O2 Cu1 1_555 1_555
C1 O2 1_555 1_555
N2 Cu1 1_555 1_555
C4 C1 1_555 1_555
H5 C4 1_555 1_555
H6 C4 1_555 1_555
C6 N2 1_555 1_555
H10 C6 1_555 1_555
O8 C1 1_555 1_555
O10 C9 1_555 1_555
C9 C10 1_555 1_555
N3 H11 1_555 1_555
C10 N3 1_555 1_555
H12 C10 1_555 1_555
H13 C10 1_555 1_555
C11 N3 1_555 1_555
H15 C11 1_555 1_555
O12 C9 1_555 1_555
O14 C13 1_555 1_555
C13 C14 1_555 1_555
C14 N4 1_555 1_555
H17 C14 1_555 1_555
H18 C14 1_555 1_555
C15 N4 1_555 1_555
H20 C15 1_555 1_555
O16 C13 1_555 1_555
O28 Cu2 1_555 1_555
H24 C19 1_555 1_555
C20 O28 1_555 1_555
O30 C20 1_555 1_555
Er4 O8 1_555 1_555
N2 C4 1_555 1_555
O10 Cu2 1_555 1_555
N3 Cu2 1_555 1_555
O12 Er4 1_555 1_555
O14 Cu3 1_555 1_555
N4 Cu3 1_555 1_555
O16 Er4 1_555 1_555
C19 C20 1_555 1_555
C21 O22 1_555 1_555
C22 N6 1_555 1_555
H27 C22 1_555 1_555
H28 C22 1_555 1_555
O24 C21 1_555 1_555
Er3 O24 1_555 1_555
C21 C22 1_555 1_555
H29 C23 1_555 1_555
C24 O29 1_555 1_555
O31 C24 1_555 1_555
C23 C24 1_555 1_555
C21_2 O22_2 1_555 1_555
C22_2 N6_2 1_555 1_555
H27_2 C22_2 1_555 1_555
H28_2 C22_2 1_555 1_555
C23_2 N6_2 1_555 1_555
H29_2 C23_2 1_555 1_555
H30_2 C23_2 1_555 1_555
C24_2 O21 1_555 1_555
O23 C24_2 1_555 1_555
O34 C21_2 1_555 1_555
Er3 O21 1_555 1_555
C21_2 C22_2 1_555 1_555
C23_2 C24_2 1_555 1_555
O23 Er3 1_555 1_555
Er4 O1_2 1_555 1_555
Cu1_2 O1_2 1_555 1_555
O1_2 C7_2 1_555 1_555
O2_2 Cu1_2 1_555 1_555
C1_2 O2_2 1_555 1_555
N2_2 Cu1_2 1_555 1_555
C4_2 C1_2 1_555 1_555
H5_2 C4_2 1_555 1_555
H6_2 C4_2 1_555 1_555
C6_2 N2_2 1_555 1_555
H9_2 C6_2 1_555 1_555
H10_2 C6_2 1_555 1_555
O5_2 Er4 1_555 1_555
C7_2 C6_2 1_555 1_555
O25 C1_2 1_555 1_555
O9_2 Er4 1_555 1_555
O10_2 C9_2 1_555 1_555
C9_2 C10_2 1_555 1_555
N3_2 H11_2 1_555 1_555
C10_2 N3_2 1_555 1_555
H12_2 C10_2 1_555 1_555
H13_2 C10_2 1_555 1_555
C11_2 N3_2 1_555 1_555
H14_2 C11_2 1_555 1_555
H15_2 C11_2 1_555 1_555
O11_2 Er4 1_555 1_555
C12_2 O9_2 1_555 1_555
O26 C9_2 1_555 1_555
O13_2 Er4 1_555 1_555
O14_2 C13_2 1_555 1_555
C13_2 C14_2 1_555 1_555
C14_2 N4_2 1_555 1_555
H17_2 C14_2 1_555 1_555
H18_2 C14_2 1_555 1_555
C15_2 N4_2 1_555 1_555
H19_2 C15_2 1_555 1_555
H20_2 C15_2 1_555 1_555
O15_2 Er4 1_555 1_555
C16_2 O13_2 1_555 1_555
O27 C13_2 1_555 1_555
Cu2_2 O9_2 1_555 1_555
Cu3_2 O13_2 1_555 1_555
O17 Cu2_2 1_555 1_555
N5_2 Cu2_2 1_555 1_555
H21_2 N5_2 1_555 1_555
O18_2 Cu2_2 1_555 1_555
C17_2 O18_2 1_555 1_555
C18_2 N5_2 1_555 1_555
H22_2 C18_2 1_555 1_555
H23_2 C18_2 1_555 1_555
C19_2 N5_2 1_555 1_555
H24_2 C19_2 1_555 1_555
H25_2 C19_2 1_555 1_555
C20_2 O17 1_555 1_555
O19 C20_2 1_555 1_555
O33 C17_2 1_555 1_555
Er3 O17 1_555 1_555
N2_2 C4_2 1_555 1_555
O5_2 C7_2 1_555 1_555
O10_2 Cu2_2 1_555 1_555
N3_2 Cu2_2 1_555 1_555
C11_2 C12_2 1_555 1_555
O11_2 C12_2 1_555 1_555
O14_2 Cu3_2 1_555 1_555
N4_2 Cu3_2 1_555 1_555
C15_2 C16_2 1_555 1_555
O15_2 C16_2 1_555 1_555
C17_2 C18_2 1_555 1_555
C19_2 C20_2 1_555 1_555
O19 Er3 1_555 1_555
Er3 O3_2 1_555 1_555
C2_2 O4_2 1_555 1_555
C3_2 N1_2 1_555 1_555
H3_2 C3_2 1_555 1_555
H4_2 C3_2 1_555 1_555
C5_2 N1_2 1_555 1_555
H7_2 C5_2 1_555 1_555
H8_2 C5_2 1_555 1_555
C8_2 O3_2 1_555 1_555
O6_2 Er3 1_555 1_555
O32 C2_2 1_555 1_555
C2_2 C3_2 1_555 1_555
C5_2 C8_2 1_555 1_555
C8_2 O6_2 1_555 1_555

#END
