
###############################################################################
#
# This file contains modified crystal structure data generated from the
# MOF subset of the Cambridge Structural Database (CSD) v543 
# hosted by the Cambridge Crystallographic Data Centre (CCDC).
#
# This work is licensed under the Creative Commons
# Attribution-NonCommercial-ShareAlike 4.0 International License.
# To view a copy of this license, visit
# http://creativecommons.org/licenses/by-nc-sa/4.0/
# or send a letter to
# Creative Commons, PO Box 1866, Mountain View, CA 94042, USA.
#
# CIF created using the CSD Python API on 29 September 2022
# The structure has been converted into the P1 space group
# The structure has a 3D framework
# The original CSD entry AJIGIL is in the orthorhombic crystal system
# The original CSD entry AJIGIL is in a Sohncke space group
# The framework has been calculated to contain at least 10.0% void space
# The void calculation uses a probe of radius 1.32A, grid spacing 0.4
# H atom positions have been added when not included in the experimental data
#
###############################################################################

data_AJIGIL
_chemical_formula_moiety         '(C248 H388 Br4 Co4 N88 Na8 O76 P4 4-)n'
_symmetry_cell_setting           triclinic
_symmetry_space_group_name_H-M   'P 1'
_symmetry_Int_Tables_number      1
_space_group_name_Hall           'P 1'
loop_
_symmetry_equiv_pos_site_id
_symmetry_equiv_pos_as_xyz
1 x,y,z
_cell_length_a                   15.3745(4)
_cell_length_b                   23.4023(6)
_cell_length_c                   25.3443(7)
_cell_angle_alpha                90
_cell_angle_beta                 90
_cell_angle_gamma                90
_cell_volume                     9118.85
loop_
_atom_site_label
_atom_site_type_symbol
_atom_site_fract_x
_atom_site_fract_y
_atom_site_fract_z
Br1 Br 0.39305(6) 0.62701(3) 0.76485(4)
C1 C 0.3459(5) 0.5533(3) 0.7521(3)
C2 C 0.2580(5) 0.5526(3) 0.7429(3)
C3 C 0.4007(5) 0.5054(3) 0.7590(3)
C4 C 0.1996(4) 0.6043(3) 0.7406(3)
N1 N 0.2084(3) 0.5041(2) 0.7386(2)
C5 C 0.4908(5) 0.5042(3) 0.7841(3)
N2 N 0.3735(3) 0.4523(2) 0.7498(2)
C6 C 0.1165(4) 0.5786(2) 0.7685(3)
H1 H 0.2244 0.6363 0.7620
C7 C 0.1801(5) 0.6242(3) 0.6845(3)
C8 C 0.1219(5) 0.5171(3) 0.7492(3)
Co1 Co 0.25556(6) 0.42933(4) 0.73348(4)
C9 C 0.5258(4) 0.4475(3) 0.7618(3)
C10 C 0.5562(4) 0.5527(3) 0.7776(3)
C11 C 0.4752(5) 0.4958(3) 0.8445(3)
C12 C 0.4416(4) 0.4123(3) 0.7541(3)
C13 C 0.1318(5) 0.5766(3) 0.8297(3)
C14 C 0.0338(4) 0.6132(3) 0.7551(3)
H2 H 0.1449 0.5945 0.6667
H3 H 0.1443 0.6593 0.6865
C15 C 0.2592(5) 0.6366(3) 0.6508(3)
C16 C 0.0552(5) 0.4784(3) 0.7461(3)
N3 N 0.1428(4) 0.3988(2) 0.7183(2)
N4 N 0.2277(4) 0.4239(3) 0.8081(3)
N5 N 0.2876(3) 0.3515(2) 0.7316(2)
N6 N 0.2815(4) 0.4423(2) 0.6581(2)
H4 H 0.5655 0.4285 0.7876
C17 C 0.5692(5) 0.4525(3) 0.7073(3)
H5 H 0.6137 0.5398 0.7893
H6 H 0.5379 0.5855 0.7989
H7 H 0.5590 0.5639 0.7404
H8 H 0.5311 0.4902 0.8623
H9 H 0.4383 0.4622 0.8502
H10 H 0.4463 0.5297 0.8590
C18 C 0.4410(5) 0.3552(3) 0.7485(3)
H11 H 0.0867 0.5521 0.8461
H12 H 0.1891 0.5590 0.8369
C19 C 0.1289(6) 0.6351(3) 0.8550(3)
H13 H 0.0162 0.6052 0.7187
H14 H 0.0459 0.6541 0.7589
H16 H 0.2987 0.6625 0.6702
H17 H 0.2908 0.6005 0.6440
C20 C 0.2343(6) 0.6637(3) 0.5990(4)
C21 C 0.0674(4) 0.4224(3) 0.7270(3)
C23 C 0.1389(5) 0.3370(3) 0.7034(3)
N7 N 0.2691(6) 0.3958(3) 0.8346(3)
C24 C 0.3605(5) 0.3246(2) 0.7404(3)
C25 C 0.2150(4) 0.3113(2) 0.7346(3)
C26 C 0.3547(5) 0.4275(3) 0.6357(3)
C27 C 0.2345(5) 0.4704(3) 0.6171(3)
H18 H 0.5427 0.4854 0.6887
H19 H 0.5545 0.4178 0.6869
C28 C 0.6693(5) 0.4601(3) 0.7060(3)
C29 C 0.5257(4) 0.3229(3) 0.7526(3)
N8 N 0.0565(5) 0.6469(3) 0.8807(3)
O1 O 0.1898(4) 0.6686(2) 0.8515(3)
N9 N 0.2851(5) 0.6503(3) 0.5577(3)
O2 O 0.1736(4) 0.6974(3) 0.5950(2)
C31 C 0.0429(4) 0.3214(3) 0.7207(3)
C32 C 0.1550(5) 0.3298(3) 0.6439(3)
N10 N 0.3116(6) 0.3681(4) 0.8635(3)
C33 C 0.3482(4) 0.2593(3) 0.7422(3)
C34 C 0.2559(4) 0.2550(2) 0.7181(3)
H23 H 0.1969 0.3080 0.7724
H24 H 0.3981 0.4062 0.6537
N11 N 0.3640(4) 0.4447(2) 0.5857(3)
C35 C 0.1546(5) 0.4958(3) 0.6154(3)
C36 C 0.2885(5) 0.4727(3) 0.5724(3)
H25 H 0.6871 0.4754 0.6712
H26 H 0.6871 0.4879 0.7334
C37 C 0.7149(5) 0.4026(4) 0.7159(4)
H27 H 0.5714 0.3487 0.7653
H28 H 0.5418 0.3079 0.7178
H29 H 0.5190 0.2911 0.7774
H30 H 0.0504 0.6802 0.8965
H31 H 0.0144 0.6215 0.8822
Na1 Na 0.27044(18) 0.75784(11) 0.83861(12)
H32 H 0.2754 0.6659 0.5267
H33 H 0.3283 0.6260 0.5617
C39 C 0.0003(5) 0.2736(3) 0.6902(3)
C40 C 0.0421(5) 0.3066(3) 0.7805(3)
H35 H 0.1124 0.3525 0.6241
H36 H 0.1489 0.2894 0.6343
H37 H 0.2139 0.3429 0.6352
C41 C 0.3500(5) 0.2421(3) 0.8010(3)
C42 C 0.4134(5) 0.2231(3) 0.7117(3)
H38 H 0.2617 0.2551 0.6788
C43 C 0.2031(5) 0.2014(3) 0.7341(3)
C44 C 0.4329(5) 0.4254(3) 0.5492(3)
H39 H 0.1181 0.4947 0.6457
C45 C 0.1264(5) 0.5228(3) 0.5705(3)
C46 C 0.2614(5) 0.4977(3) 0.5254(3)
N12 N 0.7589(4) 0.3995(3) 0.7612(3)
O3 O 0.7099(4) 0.3639(2) 0.6840(2)
H43 H 0.0311 0.2377 0.6971
H44 H 0.0028 0.2821 0.6523
H45 H 0.0841 0.2752 0.7868
H46 H 0.0630 0.3404 0.8004
H47 H 0.4041 0.2557 0.8171
H48 H 0.3469 0.2004 0.8040
H49 H 0.3002 0.2592 0.8191
H50 H 0.4699 0.2247 0.7303
H51 H 0.3934 0.1829 0.7123
C49 C 0.4278(4) 0.2404(3) 0.6545(3)
H52 H 0.2149 0.1924 0.7716
H53 H 0.1402 0.2098 0.7307
C50 C 0.2255(5) 0.1495(3) 0.7001(4)
C51 C 0.4148(4) 0.3644(3) 0.5303(3)
H54 H 0.4364 0.4518 0.5183
O4 O 0.5128(3) 0.42519(19) 0.57665(19)
C52 C 0.1817(5) 0.5224(3) 0.5239(3)
C53 C 0.0392(5) 0.5526(3) 0.5687(3)
H55 H 0.2978 0.4975 0.4951
H56 H 0.7867 0.3679 0.7696
H57 H 0.7601 0.4290 0.7827
H60 H 0.3773 0.2284 0.6331
H61 H 0.4327 0.2825 0.6522
C55 C 0.5094(6) 0.2134(3) 0.6328(3)
N14 N 0.2214(4) 0.1000(2) 0.7248(3)
O6 O 0.2452(4) 0.1546(2) 0.6527(2)
C56 C 0.5075(5) 0.3429(3) 0.5237(3)
H62 H 0.3824 0.3640 0.4961
O7 O 0.3706(3) 0.33425(18) 0.56938(19)
C57 C 0.5545(5) 0.3706(3) 0.5699(3)
C58 C 0.1473(6) 0.5485(3) 0.4737(3)
H63 H 0.0114 0.5501 0.6034
H64 H 0.0021 0.5341 0.5423
H65 H 0.0476 0.5928 0.5593
O8 O 0.5824(3) 0.2309(2) 0.6468(2)
O9 O 0.7379(4) 0.2495(2) 0.7582(3)
O10 O 0.8157(4) 0.2921(2) 0.5848(3)
H67 H 0.0082 0.2326 0.8479
N16 N 0.4982(4) 0.1694(2) 0.6001(2)
H68 H 0.2330 0.0681 0.7077
H69 H 0.2071 0.0988 0.7584
Na2 Na 0.2122(2) 0.14309(12) 0.56683(12)
H70 H 0.5322 0.3572 0.4897
O12 O 0.5151(3) 0.28328(17) 0.52605(18)
H71 H 0.3612 0.3007 0.5590
H72 H 0.5467 0.3469 0.6024
C59 C 0.6517(5) 0.3802(4) 0.5593(4)
H73 H 0.0883 0.5629 0.4797
H74 H 0.1462 0.5195 0.4459
H75 H 0.1852 0.5801 0.4630
H76 H 0.7882 0.2701 0.7688
H77 H 0.7012 0.2542 0.7880
H78 H 0.8300 0.3311 0.5791
H79 H 0.8714 0.2763 0.5778
C60 C 0.5718(5) 0.1392(3) 0.5764(3)
H82 H 0.4450 0.1583 0.5924
P1 P 0.54432(16) 0.25021(8) 0.47375(8)
H83 H 0.6766 0.4039 0.5880
H84 H 0.6822 0.3429 0.5594
O13 O 0.6655(4) 0.4073(2) 0.5110(3)
H85 H 0.5507 0.1028 0.5610
H86 H 0.6142 0.1296 0.6044
C61 C 0.6171(5) 0.1730(3) 0.5342(3)
O14 O 0.5524(3) 0.18760(19) 0.49453(19)
O15 O 0.6291(4) 0.27469(19) 0.4555(2)
O16 O 0.4717(4) 0.2511(2) 0.4352(2)
H87 H 0.6825 0.4461 0.5065
H88 H 0.6448 0.2081 0.5491
C62 C 0.6837(5) 0.1356(3) 0.5071(3)
O17 O 0.6024(4) 0.4290(2) 0.3962(2)
O18 O 0.8006(4) 0.2653(2) 0.4694(2)
O19 O 0.8535(3) 0.3995(2) 0.4520(2)
H89 H 0.7248 0.1208 0.5333
H90 H 0.7153 0.1581 0.4808
H91 H 0.6543 0.1036 0.4897
H92 H 0.5624 0.4562 0.4099
H93 H 0.6432 0.4532 0.3790
H94 H 0.8560 0.4024 0.4894
H95 H 0.8431 0.4366 0.4383
Na3 Na 0.72956(18) 0.25784(11) 0.66139(12)
O20 O 0.8102(4) 0.1686(2) 0.6485(3)
Na4 Na 0.7122(2) 0.35691(12) 0.43317(12)
O21 O 0.7452(4) 0.3454(2) 0.3473(2)
H96 H 0.761531 0.241486 0.491533
H97 H 0.821977 0.242344 0.439108
Br1_2 Br 0.10695(6) 0.37299(3) 0.26485(4)
C1_2 C 0.1541(5) 0.4467(3) 0.2521(3)
C2_2 C 0.2420(5) 0.4474(3) 0.2429(3)
C3_2 C 0.0993(5) 0.4946(3) 0.2590(3)
C4_2 C 0.3004(4) 0.3957(3) 0.2406(3)
N1_2 N 0.2916(3) 0.4959(2) 0.2386(2)
C5_2 C 0.0092(5) 0.4958(3) 0.2841(3)
N2_2 N 0.1265(3) 0.5477(2) 0.2498(2)
C6_2 C 0.3835(4) 0.4214(2) 0.2685(3)
H1_2 H 0.2756 0.3637 0.2620
C7_2 C 0.3199(5) 0.3758(3) 0.1845(3)
C8_2 C 0.3781(5) 0.4829(3) 0.2492(3)
Co1_2 Co 0.24444(6) 0.57067(4) 0.23348(4)
C11_2 C 0.0248(5) 0.5042(3) 0.3445(3)
C12_2 C 0.0584(4) 0.5877(3) 0.2541(3)
C13_2 C 0.3682(5) 0.4234(3) 0.3297(3)
C14_2 C 0.4662(4) 0.3868(3) 0.2551(3)
H2_2 H 0.3551 0.4055 0.1667
H3_2 H 0.3557 0.3407 0.1865
C15_2 C 0.2408(5) 0.3634(3) 0.1508(3)
C16_2 C 0.4448(5) 0.5216(3) 0.2461(3)
N3_2 N 0.3572(4) 0.6012(2) 0.2183(2)
N4_2 N 0.2723(4) 0.5761(3) 0.3081(3)
N5_2 N 0.2124(3) 0.6485(2) 0.2316(2)
N6_2 N 0.2185(4) 0.5577(2) 0.1581(2)
H9_2 H 0.0617 0.5378 0.3502
H10_2 H 0.0537 0.4703 0.3590
C18_2 C 0.0590(5) 0.6448(3) 0.2485(3)
H11_2 H 0.4133 0.4479 0.3461
H12_2 H 0.3109 0.4410 0.3369
C19_2 C 0.3711(6) 0.3649(3) 0.3550(3)
H13_2 H 0.4838 0.3948 0.2187
H14_2 H 0.4541 0.3459 0.2589
H15 H 0.5132 0.3977 0.2792
H16_2 H 0.2013 0.3375 0.1702
H17_2 H 0.2092 0.3995 0.1440
C20_2 C 0.2657(6) 0.3363(3) 0.0990(4)
C21_2 C 0.4326(4) 0.5776(3) 0.2270(3)
C22 C 0.5336(4) 0.5057(3) 0.2691(3)
C23_2 C 0.3611(5) 0.6630(3) 0.2034(3)
N7_2 N 0.2309(6) 0.6042(3) 0.3346(3)
C24_2 C 0.1395(5) 0.6754(2) 0.2404(3)
C25_2 C 0.2850(4) 0.6887(2) 0.2346(3)
C26_2 C 0.1453(5) 0.5725(3) 0.1357(3)
C27_2 C 0.2655(5) 0.5296(3) 0.1171(3)
N8_2 N 0.4435(5) 0.3531(3) 0.3807(3)
O1_2 O 0.3102(4) 0.3314(2) 0.3515(3)
N9_2 N 0.2149(5) 0.3497(3) 0.0577(3)
O2_2 O 0.3264(4) 0.3026(3) 0.0950(2)
C30 C 0.5040(4) 0.6205(3) 0.2137(3)
H20 H 0.5253 0.4830 0.3013
H21 H 0.5659 0.5406 0.2776
H22 H 0.5663 0.4832 0.2433
C31_2 C 0.4571(4) 0.6786(3) 0.2207(3)
C32_2 C 0.3450(5) 0.6702(3) 0.1439(3)
N10_2 N 0.1884(6) 0.6319(4) 0.3635(3)
C33_2 C 0.1518(4) 0.7407(3) 0.2422(3)
C34_2 C 0.2441(4) 0.7450(2) 0.2181(3)
H23_2 H 0.3031 0.6920 0.2724
H24_2 H 0.1019 0.5938 0.1537
N11_2 N 0.1360(4) 0.5553(2) 0.0857(3)
C35_2 C 0.3454(5) 0.5042(3) 0.1154(3)
C36_2 C 0.2115(5) 0.5273(3) 0.0724(3)
H30_2 H 0.4496 0.3198 0.3965
H31_2 H 0.4856 0.3785 0.3822
Na1_2 Na 0.22956(18) 0.24216(11) 0.33861(12)
H32_2 H 0.2246 0.3341 0.0267
H33_2 H 0.1717 0.3740 0.0617
H34 H 0.5501 0.6176 0.2414
C38 C 0.5469(5) 0.6108(3) 0.1597(3)
C39_2 C 0.4997(5) 0.7264(3) 0.1902(3)
C40_2 C 0.4579(5) 0.6934(3) 0.2805(3)
H35_2 H 0.3876 0.6475 0.1241
H36_2 H 0.3511 0.7106 0.1343
H37_2 H 0.2861 0.6571 0.1352
C41_2 C 0.1500(5) 0.7579(3) 0.3010(3)
C42_2 C 0.0866(5) 0.7769(3) 0.2117(3)
H38_2 H 0.2383 0.7449 0.1788
C43_2 C 0.2969(5) 0.7986(3) 0.2341(3)
C44_2 C 0.0671(5) 0.5746(3) 0.0492(3)
H39_2 H 0.3819 0.5053 0.1457
C45_2 C 0.3736(5) 0.4772(3) 0.0705(3)
C46_2 C 0.2386(5) 0.5023(3) 0.0254(3)
H40 H 0.5015 0.6145 0.1322
H41 H 0.5898 0.6417 0.1538
C47 C 0.5928(5) 0.5536(3) 0.1521(3)
H42 H 0.5605 0.7302 0.2012
H43_2 H 0.4689 0.7623 0.1971
H44_2 H 0.4972 0.7179 0.1523
H45_2 H 0.4159 0.7248 0.2868
H46_2 H 0.4370 0.6596 0.3004
C48 C 0.5457(6) 0.7113(3) 0.3031(3)
H47_2 H 0.0959 0.7443 0.3171
H48_2 H 0.1531 0.7996 0.3040
H49_2 H 0.1998 0.7408 0.3191
H50_2 H 0.0301 0.7753 0.2303
H51_2 H 0.1066 0.8171 0.2123
C49_2 C 0.0722(4) 0.7596(3) 0.1545(3)
H52_2 H 0.2851 0.8076 0.2716
H53_2 H 0.3598 0.7902 0.2307
C50_2 C 0.2745(5) 0.8505(3) 0.2001(4)
C51_2 C 0.0852(4) 0.6356(3) 0.0303(3)
H54_2 H 0.0636 0.5482 0.0183
C52_2 C 0.3183(5) 0.4776(3) 0.0239(3)
C53_2 C 0.4608(5) 0.4474(3) 0.0687(3)
H58 H 0.5494 0.5224 0.1543
H59 H 0.6354 0.5480 0.1809
C54 C 0.6402(5) 0.5498(3) 0.0989(3)
N13 N 0.5421(4) 0.7519(2) 0.3395(3)
O5 O 0.6150(4) 0.6889(2) 0.2907(2)
H60_2 H 0.1227 0.7716 0.1331
H61_2 H 0.0673 0.7175 0.1522
N14_2 N 0.2786(4) 0.9000(2) 0.2248(3)
O6_2 O 0.2548(4) 0.8454(2) 0.1527(2)
O7_2 O 0.1294(3) 0.66575(18) 0.06938(19)
H63_2 H 0.4886 0.4499 0.1034
H64_2 H 0.4979 0.4659 0.0423
H65_2 H 0.4524 0.4072 0.0593
N15 N 0.6803(4) 0.5012(3) 0.0909(3)
O11 O 0.6395(4) 0.5904(2) 0.0669(2)
H66 H 0.5900 0.7634 0.3553
H67_2 H 0.4918 0.7674 0.3479
N16_2 N 0.0018(4) 0.8306(2) 0.1001(2)
H68_2 H 0.2670 0.9319 0.2077
H69_2 H 0.2929 0.9012 0.2584
Na2_2 Na 0.2878(2) 0.85691(12) 0.06683(12)
H71_2 H 0.1388 0.6993 0.0590
H80 H 0.7092 0.4955 0.0614
H81 H 0.6783 0.4742 0.1150
H82_2 H 0.0550 0.8417 0.0924
H70_2 H 0.9678 0.6428 0.9897
P1_2 P 0.95568(16) 0.74979(8) 0.97375(8)
O14_2 O 0.9476(3) 0.81240(19) 0.99453(19)
O15_2 O 0.8709(4) 0.72531(19) 0.9555(2)
O17_2 O 0.8976(4) 0.5710(2) 0.8962(2)
O18_2 O 0.6994(4) 0.7347(2) 0.9694(2)
O19_2 O 0.6465(3) 0.6005(2) 0.9520(2)
H90_2 H 0.7847 0.8419 0.9808
H91_2 H 0.8457 0.8964 0.9897
H92_2 H 0.9376 0.5438 0.9099
H93_2 H 0.8568 0.5468 0.8790
H94_2 H 0.6440 0.5976 0.9894
H95_2 H 0.6569 0.5634 0.9383
Na4_2 Na 0.7878(2) 0.64309(12) 0.93317(12)
O21_2 O 0.7548(4) 0.6546(2) 0.8473(2)
H96_2 H 0.738469 0.758514 0.991533
H97_2 H 0.678023 0.757656 0.939108
C9_2 C 0.0258(4) 0.0525(3) 0.2382(3)
H4_2 H 0.0655 0.0715 0.2124
C17_2 C 0.0692(5) 0.0475(3) 0.2927(3)
H8_2 H 0.0311 0.0098 0.1377
H18_2 H 0.0427 0.0146 0.3113
H19_2 H 0.0545 0.0822 0.3131
C28_2 C 0.1693(5) 0.0399(3) 0.2940(3)
C29_2 C 0.0257(4) 0.1771(3) 0.2474(3)
H25_2 H 0.1871 0.0246 0.3288
H26_2 H 0.1871 0.0121 0.2666
C37_2 C 0.2149(5) 0.0974(4) 0.2841(4)
H27_2 H 0.0714 0.1513 0.2347
H28_2 H 0.0418 0.1921 0.2822
H29_2 H 0.0190 0.2089 0.2226
N12_2 N 0.2589(4) 0.1005(3) 0.2388(3)
O3_2 O 0.2099(4) 0.1361(2) 0.3160(2)
O4_2 O 0.0128(3) 0.07481(19) 0.42335(19)
H56_2 H 0.2867 0.1321 0.2304
H57_2 H 0.2601 0.0710 0.2173
C55_2 C 0.0094(6) 0.2866(3) 0.3672(3)
C56_2 C 0.0075(5) 0.1571(3) 0.4763(3)
C57_2 C 0.0545(5) 0.1294(3) 0.4301(3)
O8_2 O 0.0824(3) 0.2691(2) 0.3532(2)
O9_2 O 0.2379(4) 0.2505(2) 0.2418(3)
O10_2 O 0.3157(4) 0.2079(2) 0.4152(3)
H70_3 H 0.0322 0.1428 0.5103
O12_2 O 0.0151(3) 0.21672(17) 0.47395(18)
H72_2 H 0.0467 0.1531 0.3976
C59_2 C 0.1517(5) 0.1198(4) 0.4407(4)
H76_2 H 0.2882 0.2299 0.2312
H77_2 H 0.2012 0.2458 0.2120
H78_2 H 0.3300 0.1689 0.4209
H79_2 H 0.3714 0.2237 0.4222
C60_2 C 0.0718(5) 0.3608(3) 0.4236(3)
P1_3 P 0.04432(16) 0.24979(8) 0.52625(8)
H83_2 H 0.1766 0.0961 0.4120
H84_2 H 0.1822 0.1571 0.4406
O13_2 O 0.1655(4) 0.0927(2) 0.4890(3)
H85_2 H 0.0507 0.3972 0.4390
H86_2 H 0.1142 0.3704 0.3956
C61_2 C 0.1171(5) 0.3270(3) 0.4658(3)
O14_3 O 0.0524(3) 0.31240(19) 0.50547(19)
O15_3 O 0.1291(4) 0.22531(19) 0.5445(2)
H87_2 H 0.1825 0.0539 0.4935
H88_2 H 0.1448 0.2919 0.4509
C62_2 C 0.1837(5) 0.3644(3) 0.4929(3)
O17_3 O 0.1024(4) 0.0710(2) 0.6038(2)
O18_3 O 0.3006(4) 0.2347(2) 0.5306(2)
O19_3 O 0.3535(3) 0.1005(2) 0.5480(2)
H89_2 H 0.2248 0.3792 0.4667
H90_3 H 0.2153 0.3419 0.5192
H91_3 H 0.1543 0.3964 0.5103
H92_3 H 0.0624 0.0438 0.5901
H93_3 H 0.1432 0.0468 0.6210
H94_3 H 0.3560 0.0976 0.5106
H95_3 H 0.3431 0.0634 0.5617
H96_3 H 0.261531 0.258514 0.508467
H97_3 H 0.321977 0.257656 0.560892
N2_3 N 0.8735(3) 0.0477(2) 0.2502(2)
Co1_3 Co 0.75556(6) 0.07067(4) 0.26652(4)
C11_3 C 0.9752(5) 0.0042(3) 0.1555(3)
C12_3 C 0.9416(4) 0.0877(3) 0.2459(3)
C16_3 C 0.5552(5) 0.0216(3) 0.2539(3)
N3_3 N 0.6428(4) 0.1012(2) 0.2817(2)
N4_3 N 0.7277(4) 0.0761(3) 0.1919(3)
N5_3 N 0.7876(3) 0.1485(2) 0.2684(2)
N6_3 N 0.7815(4) 0.0577(2) 0.3419(2)
H9_3 H 0.9383 0.0378 0.1498
C18_3 C 0.9410(5) 0.1448(3) 0.2515(3)
C21_3 C 0.5674(4) 0.0776(3) 0.2730(3)
C22_2 C 0.4664(4) 0.0057(3) 0.2309(3)
C23_3 C 0.6389(5) 0.1630(3) 0.2966(3)
N7_3 N 0.7691(6) 0.1042(3) 0.1654(3)
C24_3 C 0.8605(5) 0.1754(2) 0.2596(3)
C25_3 C 0.7150(4) 0.1887(2) 0.2654(3)
C26_3 C 0.8547(5) 0.0725(3) 0.3643(3)
C27_3 C 0.7345(5) 0.0296(3) 0.3829(3)
C30_2 C 0.4960(4) 0.1205(3) 0.2863(3)
H21_2 H 0.4341 0.0406 0.2224
C31_3 C 0.5429(4) 0.1786(3) 0.2793(3)
C32_3 C 0.6550(5) 0.1702(3) 0.3561(3)
N10_3 N 0.8116(6) 0.1319(4) 0.1365(3)
C33_3 C 0.8482(4) 0.2407(3) 0.2578(3)
C34_3 C 0.7559(4) 0.2450(2) 0.2819(3)
H23_3 H 0.6969 0.1920 0.2276
H24_3 H 0.8981 0.0938 0.3463
N11_3 N 0.8640(4) 0.0553(2) 0.4143(3)
C35_3 C 0.6546(5) 0.0042(3) 0.3846(3)
C36_3 C 0.7885(5) 0.0273(3) 0.4276(3)
H34_2 H 0.4499 0.1176 0.2586
C38_2 C 0.4531(5) 0.1108(3) 0.3403(3)
C39_3 C 0.5003(5) 0.2264(3) 0.3098(3)
C40_3 C 0.5421(5) 0.1934(3) 0.2195(3)
H35_3 H 0.6124 0.1475 0.3759
H36_3 H 0.6489 0.2106 0.3657
H37_3 H 0.7139 0.1571 0.3648
C41_3 C 0.8500(5) 0.2579(3) 0.1990(3)
C42_3 C 0.9134(5) 0.2769(3) 0.2883(3)
H38_3 H 0.7617 0.2449 0.3212
C43_3 C 0.7031(5) 0.2986(3) 0.2659(3)
C44_3 C 0.9329(5) 0.0746(3) 0.4508(3)
H39_3 H 0.6181 0.0053 0.3543
C46_3 C 0.7614(5) 0.0023(3) 0.4746(3)
H40_2 H 0.4985 0.1145 0.3678
H41_2 H 0.4102 0.1417 0.3462
C47_2 C 0.4072(5) 0.0536(3) 0.3479(3)
H42_2 H 0.4395 0.2302 0.2988
H43_3 H 0.5311 0.2623 0.3029
H44_3 H 0.5028 0.2179 0.3477
H45_3 H 0.5841 0.2248 0.2132
H46_3 H 0.5630 0.1596 0.1996
C48_2 C 0.4543(6) 0.2113(3) 0.1969(3)
H47_3 H 0.9041 0.2443 0.1829
H48_3 H 0.8469 0.2996 0.1960
H49_3 H 0.8002 0.2408 0.1809
H50_3 H 0.9699 0.2753 0.2697
H51_3 H 0.8934 0.3171 0.2877
C49_3 C 0.9278(4) 0.2596(3) 0.3455(3)
H52_3 H 0.7149 0.3076 0.2284
H53_3 H 0.6402 0.2902 0.2693
C50_3 C 0.7255(5) 0.3505(3) 0.2999(4)
C51_3 C 0.9148(4) 0.1356(3) 0.4697(3)
H54_3 H 0.9364 0.0482 0.4817
H55_2 H 0.7978 0.0025 0.5049
H58_2 H 0.4506 0.0224 0.3457
H59_2 H 0.3646 0.0480 0.3191
C54_2 C 0.3598(5) 0.0498(3) 0.4011(3)
N13_2 N 0.4579(4) 0.2519(2) 0.1605(3)
O5_2 O 0.3850(4) 0.1889(2) 0.2093(2)
H60_3 H 0.8773 0.2716 0.3669
H61_3 H 0.9327 0.2175 0.3478
N14_3 N 0.7214(4) 0.4000(2) 0.2752(3)
H62_2 H 0.8824 0.1360 0.5039
O7_3 O 0.8706(3) 0.16575(18) 0.43062(19)
N15_2 N 0.3197(4) 0.0012(3) 0.4091(3)
O11_2 O 0.3605(4) 0.0904(2) 0.4331(2)
H66_2 H 0.4100 0.2634 0.1447
H67_3 H 0.5082 0.2674 0.1521
N16_3 N 0.9982(4) 0.3306(2) 0.3999(2)
H68_3 H 0.7330 0.4319 0.2923
H69_3 H 0.7071 0.4012 0.2416
H71_3 H 0.8612 0.1993 0.4410
H82_3 H 0.9450 0.3417 0.4076
O16_2 O 0.9717(4) 0.2489(2) 0.5648(2)
Br1_3 Br 0.60695(6) 0.12701(3) 0.73515(4)
C1_3 C 0.6541(5) 0.0533(3) 0.7479(3)
C2_3 C 0.7420(5) 0.0526(3) 0.7571(3)
C3_3 C 0.5993(5) 0.0054(3) 0.7410(3)
C4_3 C 0.8004(4) 0.1043(3) 0.7594(3)
N1_3 N 0.7916(3) 0.0041(2) 0.7614(2)
C5_3 C 0.5092(5) 0.0042(3) 0.7159(3)
C6_3 C 0.8835(4) 0.0786(2) 0.7315(3)
H1_3 H 0.7756 0.1363 0.7380
C7_3 C 0.8199(5) 0.1242(3) 0.8155(3)
C8_3 C 0.8781(5) 0.0171(3) 0.7508(3)
C10_2 C 0.4438(4) 0.0527(3) 0.7224(3)
C13_3 C 0.8682(5) 0.0766(3) 0.6703(3)
C14_3 C 0.9662(4) 0.1132(3) 0.7449(3)
H2_3 H 0.8551 0.0945 0.8333
H3_3 H 0.8557 0.1593 0.8135
C15_3 C 0.7408(5) 0.1366(3) 0.8492(3)
H5_2 H 0.3863 0.0398 0.7107
H6_2 H 0.4621 0.0855 0.7011
H7_2 H 0.4410 0.0639 0.7596
H10_3 H 0.5537 0.0297 0.6410
H11_3 H 0.9133 0.0521 0.6539
H12_3 H 0.8109 0.0590 0.6631
C19_3 C 0.8711(6) 0.1351(3) 0.6450(3)
H13_3 H 0.9838 0.1052 0.7813
H14_3 H 0.9541 0.1541 0.7411
H16_3 H 0.7013 0.1625 0.8298
H17_3 H 0.7092 0.1005 0.8560
C20_3 C 0.7657(6) 0.1637(3) 0.9010(4)
N8_3 N 0.9435(5) 0.1469(3) 0.6193(3)
N9_3 N 0.7149(5) 0.1503(3) 0.9423(3)
O2_3 O 0.8264(4) 0.1974(3) 0.9050(2)
H30_3 H 0.9496 0.1802 0.6035
H31_3 H 0.9856 0.1215 0.6178
H32_3 H 0.7246 0.1659 0.9733
H33_3 H 0.6717 0.1260 0.9383
C45_3 C 0.8736(5) 0.0228(3) 0.9295(3)
C52_3 C 0.8183(5) 0.0224(3) 0.9761(3)
C53_3 C 0.9608(5) 0.0526(3) 0.9313(3)
H63_3 H 0.9886 0.0501 0.8966
H64_3 H 0.9979 0.0341 0.9577
H65_3 H 0.9524 0.0928 0.9407
H55_3 H 0.7022 0.9975 0.0049
H62_3 H 0.6176 0.8640 0.0039
H70_4 H 0.4678 0.8572 0.0103
P1_4 P 0.45568(16) 0.75021(8) 0.02625(8)
O14_4 O 0.4476(3) 0.68760(19) 0.00547(19)
O15_4 O 0.3709(4) 0.77469(19) 0.0445(2)
O16_3 O 0.5283(4) 0.7511(2) 0.0648(2)
O17_4 O 0.3976(4) 0.9290(2) 0.1038(2)
O18_4 O 0.1994(4) 0.7653(2) 0.0306(2)
O19_4 O 0.1465(3) 0.8995(2) 0.0480(2)
H90_4 H 0.2847 0.6581 0.0192
H91_4 H 0.3457 0.6036 0.0103
H92_4 H 0.4376 0.9562 0.0901
H93_4 H 0.3568 0.9532 0.1210
H94_4 H 0.1440 0.9024 0.0106
H95_4 H 0.1569 0.9366 0.0617
H96_4 H 0.238469 0.741486 0.00846666
H97_4 H 0.178023 0.742344 0.0608922
N2_4 N 0.6265(3) 0.9523(2) 0.7502(2)
Co1_4 Co 0.74444(6) 0.92933(4) 0.76652(4)
C9_3 C 0.4742(4) 0.9475(3) 0.7382(3)
C11_4 C 0.5248(5) 0.9958(3) 0.6555(3)
C12_4 C 0.5584(4) 0.9123(3) 0.7459(3)
C16_4 C 0.9448(5) 0.9784(3) 0.7539(3)
N3_4 N 0.8572(4) 0.8988(2) 0.7817(2)
N4_4 N 0.7723(4) 0.9239(3) 0.6919(3)
N5_4 N 0.7124(3) 0.8515(2) 0.7684(2)
N6_4 N 0.7185(4) 0.9423(2) 0.8419(2)
H4_3 H 0.4345 0.9285 0.7124
C17_3 C 0.4308(5) 0.9525(3) 0.7927(3)
H8_3 H 0.4689 0.9902 0.6377
H9_4 H 0.5617 0.9622 0.6498
C18_4 C 0.5590(5) 0.8552(3) 0.7515(3)
C21_4 C 0.9326(4) 0.9224(3) 0.7730(3)
C23_4 C 0.8611(5) 0.8370(3) 0.7966(3)
N7_4 N 0.7309(6) 0.8958(3) 0.6654(3)
C24_4 C 0.6395(5) 0.8246(2) 0.7596(3)
C25_4 C 0.7850(4) 0.8113(2) 0.7654(3)
C26_4 C 0.6453(5) 0.9275(3) 0.8643(3)
C27_4 C 0.7655(5) 0.9704(3) 0.8829(3)
H18_3 H 0.4573 0.9854 0.8113
H19_3 H 0.4455 0.9178 0.8131
C28_3 C 0.3307(5) 0.9601(3) 0.7940(3)
C29_3 C 0.4743(4) 0.8229(3) 0.7474(3)
C31_4 C 0.9571(4) 0.8214(3) 0.7793(3)
C32_4 C 0.8450(5) 0.8298(3) 0.8561(3)
N10_4 N 0.6884(6) 0.8681(4) 0.6365(3)
C33_4 C 0.6518(4) 0.7593(3) 0.7578(3)
C34_4 C 0.7441(4) 0.7550(2) 0.7819(3)
H23_4 H 0.8031 0.8080 0.7276
H24_4 H 0.6019 0.9062 0.8463
N11_4 N 0.6360(4) 0.9447(2) 0.9143(3)
C35_4 C 0.8454(5) 0.9958(3) 0.8846(3)
C36_4 C 0.7115(5) 0.9727(3) 0.9276(3)
H25_3 H 0.3129 0.9754 0.8288
H26_3 H 0.3129 0.9879 0.7666
C37_3 C 0.2851(5) 0.9026(4) 0.7841(4)
H27_3 H 0.4286 0.8487 0.7347
H28_3 H 0.4582 0.8079 0.7822
H29_3 H 0.4810 0.7911 0.7226
C39_4 C 0.9997(5) 0.7736(3) 0.8098(3)
C40_4 C 0.9579(5) 0.8066(3) 0.7195(3)
H35_4 H 0.8876 0.8525 0.8759
H36_4 H 0.8511 0.7894 0.8657
H37_4 H 0.7861 0.8429 0.8648
C41_4 C 0.6500(5) 0.7421(3) 0.6990(3)
C42_4 C 0.5866(5) 0.7231(3) 0.7883(3)
H38_4 H 0.7383 0.7551 0.8212
C43_4 C 0.7969(5) 0.7014(3) 0.7659(3)
C44_4 C 0.5671(5) 0.9254(3) 0.9508(3)
H39_4 H 0.8819 0.9947 0.8543
C46_4 C 0.7386(5) 0.9977(3) 0.9746(3)
N12_3 N 0.2411(4) 0.8995(3) 0.7388(3)
O3_3 O 0.2901(4) 0.8639(2) 0.8160(2)
H43_4 H 0.9689 0.7377 0.8029
H44_4 H 0.9972 0.7821 0.8477
H45_4 H 0.9159 0.7752 0.7132
H46_4 H 0.9370 0.8404 0.6996
H47_4 H 0.5959 0.7557 0.6829
H48_4 H 0.6531 0.7004 0.6960
H49_4 H 0.6998 0.7592 0.6809
H50_4 H 0.5301 0.7247 0.7697
H51_4 H 0.6066 0.6829 0.7877
C49_4 C 0.5722(4) 0.7404(3) 0.8455(3)
H52_4 H 0.7851 0.6924 0.7284
H53_4 H 0.8598 0.7098 0.7693
C50_4 C 0.7745(5) 0.6495(3) 0.7999(4)
C51_4 C 0.5852(4) 0.8644(3) 0.9697(3)
H54_4 H 0.5636 0.9518 0.9817
O4_3 O 0.4872(3) 0.92519(19) 0.92335(19)
H56_3 H 0.2133 0.8679 0.7304
H57_3 H 0.2399 0.9290 0.7173
H60_4 H 0.6227 0.7284 0.8669
H61_4 H 0.5673 0.7825 0.8478
C55_3 C 0.4906(6) 0.7134(3) 0.8672(3)
N14_4 N 0.7786(4) 0.6000(2) 0.7752(3)
C56_3 C 0.4925(5) 0.8429(3) 0.9763(3)
O7_4 O 0.6294(3) 0.83425(18) 0.93062(19)
C57_3 C 0.4455(5) 0.8706(3) 0.9301(3)
O8_3 O 0.4176(3) 0.7309(2) 0.8532(2)
O9_3 O 0.2621(4) 0.7495(2) 0.7418(3)
O10_3 O 0.1843(4) 0.7921(2) 0.9152(3)
H67_4 H 0.9918 0.7326 0.6521
N16_4 N 0.5018(4) 0.6694(2) 0.8999(2)
H68_4 H 0.7670 0.5681 0.7923
H69_4 H 0.7929 0.5988 0.7416
O12_3 O 0.4849(3) 0.78328(17) 0.97395(18)
H71_4 H 0.6388 0.8007 0.9410
H72_3 H 0.4533 0.8469 0.8976
C59_3 C 0.3483(5) 0.8802(4) 0.9407(4)
H76_3 H 0.2118 0.7701 0.7312
H77_3 H 0.2988 0.7542 0.7120
H78_3 H 0.1700 0.8311 0.9209
H79_3 H 0.1286 0.7763 0.9222
C60_3 C 0.4282(5) 0.6392(3) 0.9236(3)
H82_4 H 0.5550 0.6583 0.9076
H83_3 H 0.3234 0.9039 0.9120
H84_3 H 0.3178 0.8429 0.9406
O13_3 O 0.3345(4) 0.9073(2) 0.9890(3)
H85_3 H 0.4493 0.6028 0.9390
H86_3 H 0.3858 0.6296 0.8956
C61_3 C 0.3829(5) 0.6730(3) 0.9658(3)
H87_3 H 0.3175 0.9461 0.9935
H88_3 H 0.3552 0.7081 0.9509
C62_3 C 0.3163(5) 0.6356(3) 0.9929(3)
H89_3 H 0.2752 0.6208 0.9667
H15_2 H 0.9868 0.6023 0.7792
C22_3 C 0.9664(4) 0.4943(3) 0.7691(3)
C30_3 C 0.9960(4) 0.3795(3) 0.7137(3)
H20_2 H 0.9747 0.5170 0.8013
H21_3 H 0.9341 0.4594 0.7776
H22_2 H 0.9337 0.5168 0.7433
H34_3 H 0.9499 0.3824 0.7414
C38_3 C 0.9531(5) 0.3892(3) 0.6597(3)
H40_3 H 0.9985 0.3855 0.6322
H41_3 H 0.9102 0.3583 0.6538
C47_3 C 0.9072(5) 0.4464(3) 0.6521(3)
H42_3 H 0.9395 0.2698 0.7012
C48_3 C 0.9543(6) 0.2887(3) 0.8031(3)
H58_3 H 0.9506 0.4776 0.6543
H59_3 H 0.8646 0.4520 0.6809
C54_3 C 0.8598(5) 0.4502(3) 0.5989(3)
N13_3 N 0.9579(4) 0.2481(2) 0.8395(3)
O5_3 O 0.8850(4) 0.3111(2) 0.7907(2)
N15_3 N 0.8197(4) 0.4988(3) 0.5909(3)
O11_3 O 0.8605(4) 0.4096(2) 0.5669(2)
H66_3 H 0.9100 0.2366 0.8553
H80_2 H 0.7908 0.5045 0.5614
H81_2 H 0.8217 0.5258 0.6150
H55_4 H 0.2022 0.5025 0.9951
H62_4 H 0.1176 0.6360 0.9961
C58_2 C 0.3527(6) 0.4515(3) 0.9737(3)
H73_2 H 0.4117 0.4371 0.9797
H74_2 H 0.3538 0.4805 0.9459
H75_2 H 0.3148 0.4199 0.9630
O16_4 O 0.0283(4) 0.7489(2) 0.9352(2)
C9_4 C 0.9742(4) 0.5525(3) 0.2618(3)
C10_3 C 0.9438(4) 0.4473(3) 0.2776(3)
H4_4 H 0.9345 0.5715 0.2876
C17_4 C 0.9308(5) 0.5475(3) 0.2073(3)
H5_3 H 0.8863 0.4602 0.2893
H6_3 H 0.9621 0.4145 0.2989
H7_3 H 0.9410 0.4361 0.2404
H8_4 H 0.9689 0.5098 0.3623
H18_4 H 0.9573 0.5146 0.1887
H19_4 H 0.9455 0.5822 0.1869
C28_4 C 0.8307(5) 0.5399(3) 0.2060(3)
C29_4 C 0.9743(4) 0.6771(3) 0.2526(3)
H25_4 H 0.8129 0.5246 0.1712
H26_4 H 0.8129 0.5121 0.2334
C37_4 C 0.7851(5) 0.5974(4) 0.2159(4)
H27_4 H 0.9286 0.6513 0.2653
H28_4 H 0.9582 0.6921 0.2178
H29_4 H 0.9810 0.7089 0.2774
N12_4 N 0.7411(4) 0.6005(3) 0.2612(3)
O3_4 O 0.7901(4) 0.6361(2) 0.1840(2)
O4_4 O 0.9872(3) 0.57481(19) 0.07665(19)
H56_4 H 0.7133 0.6321 0.2696
H57_4 H 0.7399 0.5710 0.2827
C55_4 C 0.9906(6) 0.7866(3) 0.1328(3)
C56_4 C 0.9925(5) 0.6571(3) 0.0237(3)
C57_4 C 0.9455(5) 0.6294(3) 0.0699(3)
O8_4 O 0.9176(3) 0.7691(2) 0.1468(2)
O9_4 O 0.7621(4) 0.7505(2) 0.2582(3)
O10_4 O 0.6843(4) 0.7079(2) 0.0848(3)
O12_4 O 0.9849(3) 0.71672(17) 0.02605(18)
H72_4 H 0.9533 0.6531 0.1024
C59_4 C 0.8483(5) 0.6198(4) 0.0593(4)
H76_4 H 0.7118 0.7299 0.2688
H77_4 H 0.7988 0.7458 0.2880
H78_4 H 0.6700 0.6689 0.0791
H79_4 H 0.6286 0.7237 0.0778
C60_4 C 0.9282(5) 0.8608(3) 0.0764(3)
H83_4 H 0.8234 0.5961 0.0880
H84_4 H 0.8178 0.6571 0.0594
O13_4 O 0.8345(4) 0.5927(2) 0.0110(3)
H85_4 H 0.9493 0.8972 0.0610
H86_4 H 0.8858 0.8704 0.1044
C61_4 C 0.8829(5) 0.8270(3) 0.0342(3)
H87_4 H 0.8175 0.5539 0.0065
H88_4 H 0.8552 0.7919 0.0491
C62_4 C 0.8163(5) 0.8644(3) 0.0071(3)
H89_4 H 0.7752 0.8792 0.0333
Na3_2 Na 0.77044(18) 0.74216(11) 0.16139(12)
O20_2 O 0.6898(4) 0.8314(2) 0.1485(3)
Br1_4 Br 0.89305(6) 0.87299(3) 0.23515(4)
C1_4 C 0.8459(5) 0.9467(3) 0.2479(3)
C2_4 C 0.7580(5) 0.9474(3) 0.2571(3)
C3_4 C 0.9007(5) 0.9946(3) 0.2410(3)
C4_4 C 0.6996(4) 0.8957(3) 0.2594(3)
N1_4 N 0.7084(3) 0.9959(2) 0.2614(2)
C5_4 C 0.9908(5) 0.9958(3) 0.2159(3)
C6_4 C 0.6165(4) 0.9214(2) 0.2315(3)
H1_4 H 0.7244 0.8637 0.2380
C7_4 C 0.6801(5) 0.8758(3) 0.3155(3)
C8_4 C 0.6219(5) 0.9829(3) 0.2508(3)
C13_4 C 0.6318(5) 0.9234(3) 0.1703(3)
C14_4 C 0.5338(4) 0.8868(3) 0.2449(3)
H2_4 H 0.6449 0.9055 0.3333
H3_4 H 0.6443 0.8407 0.3135
C15_4 C 0.7592(5) 0.8634(3) 0.3492(3)
H10_4 H 0.9463 0.9703 0.1410
H11_4 H 0.5867 0.9479 0.1539
H12_4 H 0.6891 0.9410 0.1631
C19_4 C 0.6289(6) 0.8649(3) 0.1450(3)
H13_4 H 0.5162 0.8948 0.2813
H14_4 H 0.5459 0.8459 0.2411
H15_3 H 0.4868 0.8977 0.2208
H16_4 H 0.7987 0.8375 0.3298
H17_4 H 0.7908 0.8995 0.3560
C20_4 C 0.7343(6) 0.8363(3) 0.4010(4)
N8_4 N 0.5565(5) 0.8531(3) 0.1193(3)
N9_4 N 0.7851(5) 0.8497(3) 0.4423(3)
O2_4 O 0.6736(4) 0.8026(3) 0.4050(2)
H20_3 H 0.4747 0.9830 0.1987
H22_3 H 0.4337 0.9832 0.2567
H30_4 H 0.5504 0.8198 0.1035
H31_4 H 0.5144 0.8785 0.1178
H32_4 H 0.7754 0.8341 0.4733
H33_4 H 0.8283 0.8740 0.4383
C45_4 C 0.6264(5) 0.9772(3) 0.4295(3)
C52_4 C 0.6817(5) 0.9776(3) 0.4761(3)
C53_4 C 0.5392(5) 0.9474(3) 0.4313(3)
C58_3 C 0.6473(6) 0.9515(3) 0.5263(3)
H63_4 H 0.5114 0.9499 0.3966
H64_4 H 0.5021 0.9659 0.4577
H65_4 H 0.5476 0.9072 0.4407
H73_3 H 0.5883 0.9371 0.5203
H74_3 H 0.6462 0.9805 0.5541
H75_3 H 0.6852 0.9199 0.5370
H80_3 H 0.2908 0.9955 0.4386
H81_3 H 0.3217 0.9742 0.3850
C10_4 C 0.0562(4) 0.9473(3) 0.2224(3)
H5_4 H 0.1137 0.9602 0.2107
H6_4 H 0.0379 0.9145 0.2011
H7_4 H 0.0590 0.9361 0.2596
H15_4 H 0.0132 0.1023 0.7208
H20_4 H 0.0253 0.0170 0.6987
H22_4 H 0.0663 0.0168 0.7567
H80_4 H 0.2092 0.0045 0.9386
H81_4 H 0.1783 0.0258 0.8850
C22_4 C 0.0336(4) 0.9943(3) 0.7309(3)
C30_4 C 0.0040(4) 0.8795(3) 0.7863(3)
H21_4 H 0.0659 0.9594 0.7224
H34_4 H 0.0501 0.8824 0.7586
C38_4 C 0.0469(5) 0.8892(3) 0.8403(3)
H40_4 H 0.0015 0.8855 0.8678
H41_4 H 0.0898 0.8583 0.8462
C47_4 C 0.0928(5) 0.9464(3) 0.8479(3)
H42_4 H 0.0605 0.7698 0.7988
C48_4 C 0.0457(6) 0.7887(3) 0.6969(3)
H58_4 H 0.0494 0.9776 0.8457
H59_4 H 0.1354 0.9520 0.8191
C54_4 C 0.1402(5) 0.9502(3) 0.9011(3)
N13_4 N 0.0421(4) 0.7481(2) 0.6605(3)
O5_4 O 0.1150(4) 0.8111(2) 0.7093(2)
N15_4 N 0.1803(4) 0.9988(3) 0.9091(3)
O11_4 O 0.1395(4) 0.9096(2) 0.9331(2)
H66_4 H 0.0900 0.7366 0.6447
C58_4 C 0.8527(6) 0.0485(3) 0.0263(3)
H73_4 H 0.9117 0.0629 0.0203
H74_4 H 0.8538 0.0195 0.0541
H75_4 H 0.8148 0.0801 0.0370
N17 N 0.7671(7) 0.4922(4) 0.8407(4)
N18 N 0.7291(5) 0.4913(3) 0.8714(3)
N19 N 0.6790(7) 0.4841(4) 0.9093(5)
N17_2 N 0.7329(7) 0.5078(4) 0.3407(4)
N18_2 N 0.7709(5) 0.5087(3) 0.3714(3)
N19_2 N 0.8210(7) 0.5159(4) 0.4093(5)
N17_3 N 0.2671(7) 0.0078(4) 0.1593(4)
N18_3 N 0.2291(5) 0.0087(3) 0.1286(3)
N19_3 N 0.1790(7) 0.0159(4) 0.0907(5)
N17_4 N 0.2329(7) 0.9922(4) 0.6593(4)
N18_4 N 0.2709(5) 0.9913(3) 0.6286(3)
N19_4 N 0.3210(7) 0.9841(4) 0.5907(5)
N20 N 0.1384(6) 0.1388(5) 0.8522(4)
N21 N 0.1189(7) 0.1875(4) 0.8685(5)
N22 N 0.1649(7) 0.0952(4) 0.8357(4)
N20_2 N 0.3616(6) 0.8612(5) 0.3522(4)
N21_2 N 0.3811(7) 0.8125(4) 0.3685(5)
N22_2 N 0.3351(7) 0.9048(4) 0.3357(4)
N20_3 N 0.6384(6) 0.3612(5) 0.1478(4)
N21_3 N 0.6189(7) 0.3125(4) 0.1315(5)
N22_3 N 0.6649(7) 0.4048(4) 0.1643(4)
N20_4 N 0.8616(6) 0.6388(5) 0.6478(4)
N21_4 N 0.8811(7) 0.6875(4) 0.6315(5)
N22_4 N 0.8351(7) 0.5952(4) 0.6643(4)
loop_
_geom_bond_atom_site_label_1
_geom_bond_atom_site_label_2
_geom_bond_site_symmetry_1
_geom_bond_site_symmetry_2
Br1 C1 1_555 1_555
C1 C2 1_555 1_555
C2 C4 1_555 1_555
C3 C1 1_555 1_555
C4 C6 1_555 1_555
N1 C2 1_555 1_555
C5 C3 1_555 1_555
N2 C3 1_555 1_555
C6 C8 1_555 1_555
H1 C4 1_555 1_555
C7 C4 1_555 1_555
C8 N1 1_555 1_555
Co1 N1 1_555 1_555
C9 C5 1_555 1_555
C10 C5 1_555 1_555
C11 C5 1_555 1_555
C12 N2 1_555 1_555
C13 C6 1_555 1_555
C14 C6 1_555 1_555
H2 C7 1_555 1_555
H3 C7 1_555 1_555
C15 C7 1_555 1_555
C16 C8 1_555 1_555
N3 Co1 1_555 1_555
N4 Co1 1_555 1_555
N5 Co1 1_555 1_555
N6 Co1 1_555 1_555
H4 C9 1_555 1_555
C17 C9 1_555 1_555
H5 C10 1_555 1_555
H6 C10 1_555 1_555
H7 C10 1_555 1_555
H8 C11 1_555 1_555
H9 C11 1_555 1_555
H10 C11 1_555 1_555
C18 C12 1_555 1_555
H11 C13 1_555 1_555
H12 C13 1_555 1_555
C19 C13 1_555 1_555
H13 C14 1_555 1_555
H14 C14 1_555 1_555
H16 C15 1_555 1_555
H17 C15 1_555 1_555
C20 C15 1_555 1_555
C21 C16 1_555 1_555
C23 N3 1_555 1_555
N7 N4 1_555 1_555
C24 N5 1_555 1_555
C25 N5 1_555 1_555
C26 N6 1_555 1_555
C27 N6 1_555 1_555
H18 C17 1_555 1_555
H19 C17 1_555 1_555
C28 C17 1_555 1_555
C29 C18 1_555 1_555
N8 C19 1_555 1_555
O1 C19 1_555 1_555
N9 C20 1_555 1_555
O2 C20 1_555 1_555
C31 C23 1_555 1_555
C32 C23 1_555 1_555
N10 N7 1_555 1_555
C33 C24 1_555 1_555
C34 C25 1_555 1_555
H23 C25 1_555 1_555
H24 C26 1_555 1_555
N11 C26 1_555 1_555
C35 C27 1_555 1_555
C36 C27 1_555 1_555
H25 C28 1_555 1_555
H26 C28 1_555 1_555
C37 C28 1_555 1_555
H27 C29 1_555 1_555
H28 C29 1_555 1_555
H29 C29 1_555 1_555
H30 N8 1_555 1_555
H31 N8 1_555 1_555
Na1 O1 1_555 1_555
H32 N9 1_555 1_555
H33 N9 1_555 1_555
C39 C31 1_555 1_555
C40 C31 1_555 1_555
H35 C32 1_555 1_555
H36 C32 1_555 1_555
H37 C32 1_555 1_555
C41 C33 1_555 1_555
C42 C33 1_555 1_555
H38 C34 1_555 1_555
C43 C34 1_555 1_555
C44 N11 1_555 1_555
H39 C35 1_555 1_555
C45 C35 1_555 1_555
C46 C36 1_555 1_555
N12 C37 1_555 1_555
O3 C37 1_555 1_555
H43 C39 1_555 1_555
H44 C39 1_555 1_555
H45 C40 1_555 1_555
H46 C40 1_555 1_555
H47 C41 1_555 1_555
H48 C41 1_555 1_555
H49 C41 1_555 1_555
H50 C42 1_555 1_555
H51 C42 1_555 1_555
C49 C42 1_555 1_555
H52 C43 1_555 1_555
H53 C43 1_555 1_555
C50 C43 1_555 1_555
C51 C44 1_555 1_555
H54 C44 1_555 1_555
O4 C44 1_555 1_555
C52 C45 1_555 1_555
C53 C45 1_555 1_555
H55 C46 1_555 1_555
H56 N12 1_555 1_555
H57 N12 1_555 1_555
H60 C49 1_555 1_555
H61 C49 1_555 1_555
C55 C49 1_555 1_555
N14 C50 1_555 1_555
O6 C50 1_555 1_555
C56 C51 1_555 1_555
H62 C51 1_555 1_555
O7 C51 1_555 1_555
C57 O4 1_555 1_555
C58 C52 1_555 1_555
H63 C53 1_555 1_555
H64 C53 1_555 1_555
H65 C53 1_555 1_555
O8 C55 1_555 1_555
O9 H76 1_555 1_555
O10 H78 1_555 1_555
N16 C55 1_555 1_555
H68 N14 1_555 1_555
H69 N14 1_555 1_555
Na2 O6 1_555 1_555
H70 C56 1_555 1_555
O12 C56 1_555 1_555
H71 O7 1_555 1_555
H72 C57 1_555 1_555
C59 C57 1_555 1_555
H73 C58 1_555 1_555
H74 C58 1_555 1_555
H75 C58 1_555 1_555
H77 O9 1_555 1_555
H79 O10 1_555 1_555
C60 N16 1_555 1_555
H82 N16 1_555 1_555
P1 O12 1_555 1_555
H83 C59 1_555 1_555
H84 C59 1_555 1_555
O13 C59 1_555 1_555
H85 C60 1_555 1_555
H86 C60 1_555 1_555
C61 C60 1_555 1_555
O14 P1 1_555 1_555
O15 P1 1_555 1_555
O16 P1 1_555 1_555
H87 O13 1_555 1_555
H88 C61 1_555 1_555
C62 C61 1_555 1_555
O17 H92 1_555 1_555
O18 Na4 1_555 1_555
O19 H94 1_555 1_555
H89 C62 1_555 1_555
H90 C62 1_555 1_555
H91 C62 1_555 1_555
H93 O17 1_555 1_555
H95 O19 1_555 1_555
Na3 O3 1_555 1_555
O20 Na3 1_555 1_555
Na4 O13 1_555 1_555
O21 Na4 1_555 1_555
N2 Co1 1_555 1_555
C9 C12 1_555 1_555
N3 C21 1_555 1_555
C18 C24 1_555 1_555
C23 C25 1_555 1_555
C33 C34 1_555 1_555
N11 C36 1_555 1_555
C46 C52 1_555 1_555
C56 C57 1_555 1_555
O8 Na3 1_555 1_555
O9 Na3 1_555 1_555
O10 Na3 1_555 1_555
C61 O14 1_555 1_555
O15 Na4 1_555 1_555
O17 Na4 1_555 1_555
O19 Na4 1_555 1_555
O18 H96 1_555 1_555
O18 H97 1_555 1_555
Br1_2 C1_2 1_555 1_555
C1_2 C2_2 1_555 1_555
C2_2 C4_2 1_555 1_555
C3_2 C1_2 1_555 1_555
C4_2 C6_2 1_555 1_555
N1_2 C2_2 1_555 1_555
C5_2 C3_2 1_555 1_555
N2_2 C3_2 1_555 1_555
C6_2 C8_2 1_555 1_555
H1_2 C4_2 1_555 1_555
C7_2 C4_2 1_555 1_555
C8_2 N1_2 1_555 1_555
Co1_2 N1_2 1_555 1_555
C11_2 C5_2 1_555 1_555
C12_2 N2_2 1_555 1_555
C13_2 C6_2 1_555 1_555
C14_2 C6_2 1_555 1_555
H2_2 C7_2 1_555 1_555
H3_2 C7_2 1_555 1_555
C15_2 C7_2 1_555 1_555
C16_2 C8_2 1_555 1_555
N3_2 Co1_2 1_555 1_555
N4_2 Co1_2 1_555 1_555
N5_2 Co1_2 1_555 1_555
N6_2 Co1_2 1_555 1_555
H9_2 C11_2 1_555 1_555
H10_2 C11_2 1_555 1_555
C18_2 C12_2 1_555 1_555
H11_2 C13_2 1_555 1_555
H12_2 C13_2 1_555 1_555
C19_2 C13_2 1_555 1_555
H13_2 C14_2 1_555 1_555
H14_2 C14_2 1_555 1_555
H15 C14_2 1_555 1_555
H16_2 C15_2 1_555 1_555
H17_2 C15_2 1_555 1_555
C20_2 C15_2 1_555 1_555
C21_2 C16_2 1_555 1_555
C22 C16_2 1_555 1_555
C23_2 N3_2 1_555 1_555
N7_2 N4_2 1_555 1_555
C24_2 N5_2 1_555 1_555
C25_2 N5_2 1_555 1_555
C26_2 N6_2 1_555 1_555
C27_2 N6_2 1_555 1_555
N8_2 C19_2 1_555 1_555
O1_2 C19_2 1_555 1_555
N9_2 C20_2 1_555 1_555
O2_2 C20_2 1_555 1_555
C30 C21_2 1_555 1_555
H20 C22 1_555 1_555
H21 C22 1_555 1_555
H22 C22 1_555 1_555
C31_2 C23_2 1_555 1_555
C32_2 C23_2 1_555 1_555
N10_2 N7_2 1_555 1_555
C33_2 C24_2 1_555 1_555
C34_2 C25_2 1_555 1_555
H23_2 C25_2 1_555 1_555
H24_2 C26_2 1_555 1_555
N11_2 C26_2 1_555 1_555
C35_2 C27_2 1_555 1_555
C36_2 C27_2 1_555 1_555
H30_2 N8_2 1_555 1_555
H31_2 N8_2 1_555 1_555
Na1_2 O1_2 1_555 1_555
H32_2 N9_2 1_555 1_555
H33_2 N9_2 1_555 1_555
H34 C30 1_555 1_555
C38 C30 1_555 1_555
C39_2 C31_2 1_555 1_555
C40_2 C31_2 1_555 1_555
H35_2 C32_2 1_555 1_555
H36_2 C32_2 1_555 1_555
H37_2 C32_2 1_555 1_555
C41_2 C33_2 1_555 1_555
C42_2 C33_2 1_555 1_555
H38_2 C34_2 1_555 1_555
C43_2 C34_2 1_555 1_555
C44_2 N11_2 1_555 1_555
H39_2 C35_2 1_555 1_555
C45_2 C35_2 1_555 1_555
C46_2 C36_2 1_555 1_555
H40 C38 1_555 1_555
H41 C38 1_555 1_555
C47 C38 1_555 1_555
H42 C39_2 1_555 1_555
H43_2 C39_2 1_555 1_555
H44_2 C39_2 1_555 1_555
H45_2 C40_2 1_555 1_555
H46_2 C40_2 1_555 1_555
C48 C40_2 1_555 1_555
H47_2 C41_2 1_555 1_555
H48_2 C41_2 1_555 1_555
H49_2 C41_2 1_555 1_555
H50_2 C42_2 1_555 1_555
H51_2 C42_2 1_555 1_555
C49_2 C42_2 1_555 1_555
H52_2 C43_2 1_555 1_555
H53_2 C43_2 1_555 1_555
C50_2 C43_2 1_555 1_555
C51_2 C44_2 1_555 1_555
H54_2 C44_2 1_555 1_555
C52_2 C45_2 1_555 1_555
C53_2 C45_2 1_555 1_555
H58 C47 1_555 1_555
H59 C47 1_555 1_555
C54 C47 1_555 1_555
N13 C48 1_555 1_555
O5 C48 1_555 1_555
H60_2 C49_2 1_555 1_555
H61_2 C49_2 1_555 1_555
N14_2 C50_2 1_555 1_555
O6_2 C50_2 1_555 1_555
O7_2 C51_2 1_555 1_555
H63_2 C53_2 1_555 1_555
H64_2 C53_2 1_555 1_555
H65_2 C53_2 1_555 1_555
N15 C54 1_555 1_555
O11 C54 1_555 1_555
H66 N13 1_555 1_555
H67_2 N13 1_555 1_555
H68_2 N14_2 1_555 1_555
H69_2 N14_2 1_555 1_555
Na2_2 O6_2 1_555 1_555
H71_2 O7_2 1_555 1_555
H80 N15 1_555 1_555
H81 N15 1_555 1_555
H82_2 N16_2 1_555 1_555
N2_2 Co1_2 1_555 1_555
N3_2 C21_2 1_555 1_555
C18_2 C24_2 1_555 1_555
C23_2 C25_2 1_555 1_555
C30 C31_2 1_555 1_555
C33_2 C34_2 1_555 1_555
N11_2 C36_2 1_555 1_555
C46_2 C52_2 1_555 1_555
O14_2 P1_2 1_555 1_555
O15_2 P1_2 1_555 1_555
O17_2 H92_2 1_555 1_555
O18_2 Na4_2 1_555 1_555
O19_2 H94_2 1_555 1_555
H93_2 O17_2 1_555 1_555
H95_2 O19_2 1_555 1_555
O21_2 Na4_2 1_555 1_555
O15_2 Na4_2 1_555 1_555
O17_2 Na4_2 1_555 1_555
O19_2 Na4_2 1_555 1_555
O18_2 H96_2 1_555 1_555
O18_2 H97_2 1_555 1_555
H4_2 C9_2 1_555 1_555
C17_2 C9_2 1_555 1_555
H18_2 C17_2 1_555 1_555
H19_2 C17_2 1_555 1_555
C28_2 C17_2 1_555 1_555
H25_2 C28_2 1_555 1_555
H26_2 C28_2 1_555 1_555
C37_2 C28_2 1_555 1_555
H27_2 C29_2 1_555 1_555
H28_2 C29_2 1_555 1_555
H29_2 C29_2 1_555 1_555
N12_2 C37_2 1_555 1_555
O3_2 C37_2 1_555 1_555
H56_2 N12_2 1_555 1_555
H57_2 N12_2 1_555 1_555
C57_2 O4_2 1_555 1_555
O8_2 C55_2 1_555 1_555
O9_2 H76_2 1_555 1_555
O10_2 H78_2 1_555 1_555
H70_3 C56_2 1_555 1_555
O12_2 C56_2 1_555 1_555
H72_2 C57_2 1_555 1_555
C59_2 C57_2 1_555 1_555
H77_2 O9_2 1_555 1_555
H79_2 O10_2 1_555 1_555
P1_3 O12_2 1_555 1_555
H83_2 C59_2 1_555 1_555
H84_2 C59_2 1_555 1_555
O13_2 C59_2 1_555 1_555
H85_2 C60_2 1_555 1_555
H86_2 C60_2 1_555 1_555
C61_2 C60_2 1_555 1_555
O14_3 P1_3 1_555 1_555
O15_3 P1_3 1_555 1_555
H87_2 O13_2 1_555 1_555
H88_2 C61_2 1_555 1_555
C62_2 C61_2 1_555 1_555
O17_3 H92_3 1_555 1_555
O18_3 Na2 1_555 1_555
O19_3 H94_3 1_555 1_555
H89_2 C62_2 1_555 1_555
H90_3 C62_2 1_555 1_555
H91_3 C62_2 1_555 1_555
H93_3 O17_3 1_555 1_555
H95_3 O19_3 1_555 1_555
Na1_2 O3_2 1_555 1_555
Na2 O13_2 1_555 1_555
C56_2 C57_2 1_555 1_555
O8_2 Na1_2 1_555 1_555
O9_2 Na1_2 1_555 1_555
O10_2 Na1_2 1_555 1_555
C61_2 O14_3 1_555 1_555
O15_3 Na2 1_555 1_555
O17_3 Na2 1_555 1_555
O19_3 Na2 1_555 1_555
O18_3 H96_3 1_555 1_555
O18_3 H97_3 1_555 1_555
C12_3 N2_3 1_555 1_555
N3_3 Co1_3 1_555 1_555
N4_3 Co1_3 1_555 1_555
N5_3 Co1_3 1_555 1_555
N6_3 Co1_3 1_555 1_555
H9_3 C11_3 1_555 1_555
C18_3 C12_3 1_555 1_555
C21_3 C16_3 1_555 1_555
C22_2 C16_3 1_555 1_555
C23_3 N3_3 1_555 1_555
N7_3 N4_3 1_555 1_555
C24_3 N5_3 1_555 1_555
C25_3 N5_3 1_555 1_555
C26_3 N6_3 1_555 1_555
C27_3 N6_3 1_555 1_555
C30_2 C21_3 1_555 1_555
H21_2 C22_2 1_555 1_555
C31_3 C23_3 1_555 1_555
C32_3 C23_3 1_555 1_555
N10_3 N7_3 1_555 1_555
C33_3 C24_3 1_555 1_555
C34_3 C25_3 1_555 1_555
H23_3 C25_3 1_555 1_555
H24_3 C26_3 1_555 1_555
N11_3 C26_3 1_555 1_555
C35_3 C27_3 1_555 1_555
C36_3 C27_3 1_555 1_555
H34_2 C30_2 1_555 1_555
C38_2 C30_2 1_555 1_555
C39_3 C31_3 1_555 1_555
C40_3 C31_3 1_555 1_555
H35_3 C32_3 1_555 1_555
H36_3 C32_3 1_555 1_555
H37_3 C32_3 1_555 1_555
C41_3 C33_3 1_555 1_555
C42_3 C33_3 1_555 1_555
H38_3 C34_3 1_555 1_555
C43_3 C34_3 1_555 1_555
C44_3 N11_3 1_555 1_555
H39_3 C35_3 1_555 1_555
C46_3 C36_3 1_555 1_555
H40_2 C38_2 1_555 1_555
H41_2 C38_2 1_555 1_555
C47_2 C38_2 1_555 1_555
H42_2 C39_3 1_555 1_555
H43_3 C39_3 1_555 1_555
H44_3 C39_3 1_555 1_555
H45_3 C40_3 1_555 1_555
H46_3 C40_3 1_555 1_555
C48_2 C40_3 1_555 1_555
H47_3 C41_3 1_555 1_555
H48_3 C41_3 1_555 1_555
H49_3 C41_3 1_555 1_555
H50_3 C42_3 1_555 1_555
H51_3 C42_3 1_555 1_555
C49_3 C42_3 1_555 1_555
H52_3 C43_3 1_555 1_555
H53_3 C43_3 1_555 1_555
C50_3 C43_3 1_555 1_555
C51_3 C44_3 1_555 1_555
H54_3 C44_3 1_555 1_555
H55_2 C46_3 1_555 1_555
H58_2 C47_2 1_555 1_555
H59_2 C47_2 1_555 1_555
C54_2 C47_2 1_555 1_555
N13_2 C48_2 1_555 1_555
O5_2 C48_2 1_555 1_555
H60_3 C49_3 1_555 1_555
H61_3 C49_3 1_555 1_555
N14_3 C50_3 1_555 1_555
O21 C50_3 1_555 1_555
H62_2 C51_3 1_555 1_555
O7_3 C51_3 1_555 1_555
N15_2 C54_2 1_555 1_555
O11_2 C54_2 1_555 1_555
H66_2 N13_2 1_555 1_555
H67_3 N13_2 1_555 1_555
H68_3 N14_3 1_555 1_555
H69_3 N14_3 1_555 1_555
H71_3 O7_3 1_555 1_555
H82_3 N16_3 1_555 1_555
N2_3 Co1_3 1_555 1_555
N3_3 C21_3 1_555 1_555
C18_3 C24_3 1_555 1_555
C23_3 C25_3 1_555 1_555
C30_2 C31_3 1_555 1_555
C33_3 C34_3 1_555 1_555
N11_3 C36_3 1_555 1_555
Br1_3 C1_3 1_555 1_555
C1_3 C2_3 1_555 1_555
C2_3 C4_3 1_555 1_555
C3_3 C1_3 1_555 1_555
C4_3 C6_3 1_555 1_555
N1_3 C2_3 1_555 1_555
C5_3 C3_3 1_555 1_555
C6_3 C8_3 1_555 1_555
H1_3 C4_3 1_555 1_555
C7_3 C4_3 1_555 1_555
C8_3 N1_3 1_555 1_555
C10_2 C5_3 1_555 1_555
C13_3 C6_3 1_555 1_555
C14_3 C6_3 1_555 1_555
H2_3 C7_3 1_555 1_555
H3_3 C7_3 1_555 1_555
C15_3 C7_3 1_555 1_555
H5_2 C10_2 1_555 1_555
H6_2 C10_2 1_555 1_555
H7_2 C10_2 1_555 1_555
H11_3 C13_3 1_555 1_555
H12_3 C13_3 1_555 1_555
C19_3 C13_3 1_555 1_555
H13_3 C14_3 1_555 1_555
H14_3 C14_3 1_555 1_555
H16_3 C15_3 1_555 1_555
H17_3 C15_3 1_555 1_555
C20_3 C15_3 1_555 1_555
N8_3 C19_3 1_555 1_555
O20 C19_3 1_555 1_555
N9_3 C20_3 1_555 1_555
O2_3 C20_3 1_555 1_555
H30_3 N8_3 1_555 1_555
H31_3 N8_3 1_555 1_555
H32_3 N9_3 1_555 1_555
H33_3 N9_3 1_555 1_555
C52_3 C45_3 1_555 1_555
C53_3 C45_3 1_555 1_555
H63_3 C53_3 1_555 1_555
H64_3 C53_3 1_555 1_555
H65_3 C53_3 1_555 1_555
O14_4 P1_4 1_555 1_555
O15_4 P1_4 1_555 1_555
O16_3 P1_4 1_555 1_555
O17_4 H92_4 1_555 1_555
O18_4 Na2_2 1_555 1_555
O19_4 H94_4 1_555 1_555
H93_4 O17_4 1_555 1_555
H95_4 O19_4 1_555 1_555
O15_4 Na2_2 1_555 1_555
O17_4 Na2_2 1_555 1_555
O19_4 Na2_2 1_555 1_555
O18_4 H96_4 1_555 1_555
O18_4 H97_4 1_555 1_555
C12_4 N2_4 1_555 1_555
N3_4 Co1_4 1_555 1_555
N4_4 Co1_4 1_555 1_555
N5_4 Co1_4 1_555 1_555
N6_4 Co1_4 1_555 1_555
H4_3 C9_3 1_555 1_555
C17_3 C9_3 1_555 1_555
H8_3 C11_4 1_555 1_555
H9_4 C11_4 1_555 1_555
C18_4 C12_4 1_555 1_555
C21_4 C16_4 1_555 1_555
C23_4 N3_4 1_555 1_555
N7_4 N4_4 1_555 1_555
C24_4 N5_4 1_555 1_555
C25_4 N5_4 1_555 1_555
C26_4 N6_4 1_555 1_555
C27_4 N6_4 1_555 1_555
H18_3 C17_3 1_555 1_555
H19_3 C17_3 1_555 1_555
C28_3 C17_3 1_555 1_555
C29_3 C18_4 1_555 1_555
C31_4 C23_4 1_555 1_555
C32_4 C23_4 1_555 1_555
N10_4 N7_4 1_555 1_555
C33_4 C24_4 1_555 1_555
C34_4 C25_4 1_555 1_555
H23_4 C25_4 1_555 1_555
H24_4 C26_4 1_555 1_555
N11_4 C26_4 1_555 1_555
C35_4 C27_4 1_555 1_555
C36_4 C27_4 1_555 1_555
H25_3 C28_3 1_555 1_555
H26_3 C28_3 1_555 1_555
C37_3 C28_3 1_555 1_555
H27_3 C29_3 1_555 1_555
H28_3 C29_3 1_555 1_555
H29_3 C29_3 1_555 1_555
C39_4 C31_4 1_555 1_555
C40_4 C31_4 1_555 1_555
H35_4 C32_4 1_555 1_555
H36_4 C32_4 1_555 1_555
H37_4 C32_4 1_555 1_555
C41_4 C33_4 1_555 1_555
C42_4 C33_4 1_555 1_555
H38_4 C34_4 1_555 1_555
C43_4 C34_4 1_555 1_555
C44_4 N11_4 1_555 1_555
H39_4 C35_4 1_555 1_555
C46_4 C36_4 1_555 1_555
N12_3 C37_3 1_555 1_555
O3_3 C37_3 1_555 1_555
H43_4 C39_4 1_555 1_555
H44_4 C39_4 1_555 1_555
H45_4 C40_4 1_555 1_555
H46_4 C40_4 1_555 1_555
H47_4 C41_4 1_555 1_555
H48_4 C41_4 1_555 1_555
H49_4 C41_4 1_555 1_555
H50_4 C42_4 1_555 1_555
H51_4 C42_4 1_555 1_555
C49_4 C42_4 1_555 1_555
H52_4 C43_4 1_555 1_555
H53_4 C43_4 1_555 1_555
C50_4 C43_4 1_555 1_555
C51_4 C44_4 1_555 1_555
H54_4 C44_4 1_555 1_555
O4_3 C44_4 1_555 1_555
H56_3 N12_3 1_555 1_555
H57_3 N12_3 1_555 1_555
H60_4 C49_4 1_555 1_555
H61_4 C49_4 1_555 1_555
C55_3 C49_4 1_555 1_555
N14_4 C50_4 1_555 1_555
O21_2 C50_4 1_555 1_555
C56_3 C51_4 1_555 1_555
O7_4 C51_4 1_555 1_555
C57_3 O4_3 1_555 1_555
O8_3 C55_3 1_555 1_555
O9_3 H76_3 1_555 1_555
O10_3 H78_3 1_555 1_555
N16_4 C55_3 1_555 1_555
H68_4 N14_4 1_555 1_555
H69_4 N14_4 1_555 1_555
O12_3 C56_3 1_555 1_555
H71_4 O7_4 1_555 1_555
H72_3 C57_3 1_555 1_555
C59_3 C57_3 1_555 1_555
H77_3 O9_3 1_555 1_555
H79_3 O10_3 1_555 1_555
C60_3 N16_4 1_555 1_555
H82_4 N16_4 1_555 1_555
H83_3 C59_3 1_555 1_555
H84_3 C59_3 1_555 1_555
O13_3 C59_3 1_555 1_555
H85_3 C60_3 1_555 1_555
H86_3 C60_3 1_555 1_555
C61_3 C60_3 1_555 1_555
H87_3 O13_3 1_555 1_555
H88_3 C61_3 1_555 1_555
C62_3 C61_3 1_555 1_555
H89_3 C62_3 1_555 1_555
Na1 O3_3 1_555 1_555
N2_4 Co1_4 1_555 1_555
C9_3 C12_4 1_555 1_555
N3_4 C21_4 1_555 1_555
C18_4 C24_4 1_555 1_555
C23_4 C25_4 1_555 1_555
C33_4 C34_4 1_555 1_555
N11_4 C36_4 1_555 1_555
C56_3 C57_3 1_555 1_555
O8_3 Na1 1_555 1_555
O9_3 Na1 1_555 1_555
O10_3 Na1 1_555 1_555
H20_2 C22_3 1_555 1_555
H21_3 C22_3 1_555 1_555
H22_2 C22_3 1_555 1_555
H34_3 C30_3 1_555 1_555
C38_3 C30_3 1_555 1_555
H40_3 C38_3 1_555 1_555
H41_3 C38_3 1_555 1_555
C47_3 C38_3 1_555 1_555
H58_3 C47_3 1_555 1_555
H59_3 C47_3 1_555 1_555
C54_3 C47_3 1_555 1_555
N13_3 C48_3 1_555 1_555
O5_3 C48_3 1_555 1_555
N15_3 C54_3 1_555 1_555
O11_3 C54_3 1_555 1_555
H66_3 N13_3 1_555 1_555
H80_2 N15_3 1_555 1_555
H81_2 N15_3 1_555 1_555
H73_2 C58_2 1_555 1_555
H74_2 C58_2 1_555 1_555
H75_2 C58_2 1_555 1_555
H4_4 C9_4 1_555 1_555
C17_4 C9_4 1_555 1_555
H5_3 C10_3 1_555 1_555
H6_3 C10_3 1_555 1_555
H7_3 C10_3 1_555 1_555
H18_4 C17_4 1_555 1_555
H19_4 C17_4 1_555 1_555
C28_4 C17_4 1_555 1_555
H25_4 C28_4 1_555 1_555
H26_4 C28_4 1_555 1_555
C37_4 C28_4 1_555 1_555
H27_4 C29_4 1_555 1_555
H28_4 C29_4 1_555 1_555
H29_4 C29_4 1_555 1_555
N12_4 C37_4 1_555 1_555
O3_4 C37_4 1_555 1_555
H56_4 N12_4 1_555 1_555
H57_4 N12_4 1_555 1_555
C57_4 O4_4 1_555 1_555
O8_4 C55_4 1_555 1_555
O9_4 H76_4 1_555 1_555
O10_4 H78_4 1_555 1_555
O12_4 C56_4 1_555 1_555
H72_4 C57_4 1_555 1_555
C59_4 C57_4 1_555 1_555
H77_4 O9_4 1_555 1_555
H79_4 O10_4 1_555 1_555
H83_4 C59_4 1_555 1_555
H84_4 C59_4 1_555 1_555
O13_4 C59_4 1_555 1_555
H85_4 C60_4 1_555 1_555
H86_4 C60_4 1_555 1_555
C61_4 C60_4 1_555 1_555
H87_4 O13_4 1_555 1_555
H88_4 C61_4 1_555 1_555
C62_4 C61_4 1_555 1_555
H89_4 C62_4 1_555 1_555
Na3_2 O3_4 1_555 1_555
O20_2 Na3_2 1_555 1_555
C56_4 C57_4 1_555 1_555
O8_4 Na3_2 1_555 1_555
O9_4 Na3_2 1_555 1_555
O10_4 Na3_2 1_555 1_555
Br1_4 C1_4 1_555 1_555
C1_4 C2_4 1_555 1_555
C2_4 C4_4 1_555 1_555
C3_4 C1_4 1_555 1_555
C4_4 C6_4 1_555 1_555
N1_4 C2_4 1_555 1_555
C5_4 C3_4 1_555 1_555
C6_4 C8_4 1_555 1_555
H1_4 C4_4 1_555 1_555
C7_4 C4_4 1_555 1_555
C8_4 N1_4 1_555 1_555
C13_4 C6_4 1_555 1_555
C14_4 C6_4 1_555 1_555
H2_4 C7_4 1_555 1_555
H3_4 C7_4 1_555 1_555
C15_4 C7_4 1_555 1_555
H11_4 C13_4 1_555 1_555
H12_4 C13_4 1_555 1_555
C19_4 C13_4 1_555 1_555
H13_4 C14_4 1_555 1_555
H14_4 C14_4 1_555 1_555
H15_3 C14_4 1_555 1_555
H16_4 C15_4 1_555 1_555
H17_4 C15_4 1_555 1_555
C20_4 C15_4 1_555 1_555
N8_4 C19_4 1_555 1_555
O20_2 C19_4 1_555 1_555
N9_4 C20_4 1_555 1_555
O2_4 C20_4 1_555 1_555
H30_4 N8_4 1_555 1_555
H31_4 N8_4 1_555 1_555
H32_4 N9_4 1_555 1_555
H33_4 N9_4 1_555 1_555
C52_4 C45_4 1_555 1_555
C53_4 C45_4 1_555 1_555
C58_3 C52_4 1_555 1_555
H63_4 C53_4 1_555 1_555
H64_4 C53_4 1_555 1_555
H65_4 C53_4 1_555 1_555
H73_3 C58_3 1_555 1_555
H74_3 C58_3 1_555 1_555
H75_3 C58_3 1_555 1_555
H5_4 C10_4 1_555 1_555
H6_4 C10_4 1_555 1_555
H7_4 C10_4 1_555 1_555
H21_4 C22_4 1_555 1_555
H34_4 C30_4 1_555 1_555
C38_4 C30_4 1_555 1_555
H40_4 C38_4 1_555 1_555
H41_4 C38_4 1_555 1_555
C47_4 C38_4 1_555 1_555
H58_4 C47_4 1_555 1_555
H59_4 C47_4 1_555 1_555
C54_4 C47_4 1_555 1_555
N13_4 C48_4 1_555 1_555
O5_4 C48_4 1_555 1_555
N15_4 C54_4 1_555 1_555
O11_4 C54_4 1_555 1_555
H66_4 N13_4 1_555 1_555
H73_4 C58_4 1_555 1_555
H74_4 C58_4 1_555 1_555
H75_4 C58_4 1_555 1_555
N17 N18 1_555 1_555
N18 N19 1_555 1_555
N17_2 N18_2 1_555 1_555
N18_2 N19_2 1_555 1_555
N17_3 N18_3 1_555 1_555
N18_3 N19_3 1_555 1_555
N17_4 N18_4 1_555 1_555
N18_4 N19_4 1_555 1_555
N20 N21 1_555 1_555
N22 N20 1_555 1_555
N20_2 N21_2 1_555 1_555
N22_2 N20_2 1_555 1_555
N20_3 N21_3 1_555 1_555
N22_3 N20_3 1_555 1_555
N20_4 N21_4 1_555 1_555
N22_4 N20_4 1_555 1_555

#END
