
###############################################################################
#
# This file contains modified crystal structure data generated from the
# MOF subset of the Cambridge Structural Database (CSD) v543 
# hosted by the Cambridge Crystallographic Data Centre (CCDC).
#
# This work is licensed under the Creative Commons
# Attribution-NonCommercial-ShareAlike 4.0 International License.
# To view a copy of this license, visit
# http://creativecommons.org/licenses/by-nc-sa/4.0/
# or send a letter to
# Creative Commons, PO Box 1866, Mountain View, CA 94042, USA.
#
# CIF created using the CSD Python API on 29 September 2022
# The structure has been converted into the P1 space group
# The structure has a 3D framework
# The original CSD entry AJOCOU is in the monoclinic crystal system
# The framework has been calculated to contain at least 10.0% void space
# The void calculation uses a probe of radius 1.32A, grid spacing 0.4
# The framework is charged, counterions have been retained in the structure
#
###############################################################################

data_AJOCOU
_chemical_formula_moiety         '(C112 H152 Cl16 La14 N112 O32 2+)n'
_symmetry_cell_setting           triclinic
_symmetry_space_group_name_H-M   'P 1'
_symmetry_Int_Tables_number      1
_space_group_name_Hall           'P 1'
loop_
_symmetry_equiv_pos_site_id
_symmetry_equiv_pos_as_xyz
1 x,y,z
_cell_length_a                   38.066(5)
_cell_length_b                   7.7763(8)
_cell_length_c                   23.418(3)
_cell_angle_alpha                90
_cell_angle_beta                 121.267(5)
_cell_angle_gamma                90
_cell_volume                     5925.2
loop_
_atom_site_label
_atom_site_type_symbol
_atom_site_fract_x
_atom_site_fract_y
_atom_site_fract_z
La2 La 0.500000 0.00485(6) 0.750000
O3 O 0.46159(15) 0.1264(5) 0.8001(3)
H5 H 0.453(2) 0.230(4) 0.800(4)
H6 H 0.450(2) 0.071(7) 0.818(3)
O7 O 0.53841(15) 0.1264(5) 0.6999(3)
H13 H 0.547(2) 0.230(4) 0.700(4)
H14 H 0.550(2) 0.071(7) 0.682(3)
N31 N 0.54235(17) 0.2708(6) 0.8227(3)
N32 N 0.45765(17) 0.2708(6) 0.6773(3)
N11 N 0.4235(2) 0.4707(7) 0.1104(3)
N12 N 0.45765(17) 0.7292(6) 0.1773(3)
C7 C 0.3954(2) 0.4721(7) 0.0465(3)
C8 C 0.4411(2) 0.6135(8) 0.1445(3)
La11 La 0.500000 0.99515(6) 0.250000
La1 La 0.32666(2) 0.45503(4) 0.85831(2)
O1 O 0.37399(15) 0.2038(5) 0.9018(2)
H1 H 0.384(2) 0.137(7) 0.883(3)
H2 H 0.376(2) 0.131(7) 0.932(3)
O2 O 0.37543(14) 0.7029(5) 0.9063(2)
H3 H 0.376(2) 0.775(6) 0.935(3)
H4 H 0.381(2) 0.774(7) 0.883(3)
O4 O 0.44804(15) 0.8877(6) 0.6395(2)
H7 H 0.4314(19) 0.932(7) 0.600(2)
H8 H 0.442(2) 0.779(4) 0.630(3)
N1 N 0.23862(15) 0.4588(6) 0.7793(3)
N2 N 0.20196(16) 0.1832(7) 0.7362(3)
N3 N 0.20270(16) 0.7377(7) 0.7407(3)
N4 N 0.37930(16) 0.4694(6) 0.8151(3)
N5 N 0.43534(19) 0.4847(6) 0.7922(3)
N6 N 0.46418(16) 0.7410(6) 0.7691(3)
N7 N 0.29153(17) 0.2296(6) 0.8962(3)
N10 N 0.37113(16) 0.4542(6) 0.9917(3)
C1 C 0.21811(19) 0.3153(8) 0.7554(3)
C2 C 0.21797(19) 0.6039(8) 0.7572(3)
C3 C 0.4048(2) 0.4887(7) 0.8036(3)
C4 C 0.4492(2) 0.6259(8) 0.7800(3)
C5 C 0.28196(19) 0.0951(8) 0.9031(3)
La3 La 0.67334(2) 0.45503(4) 0.64169(2)
O5 O 0.62601(15) 0.2038(5) 0.5982(2)
H9 H 0.616(2) 0.137(7) 0.617(3)
H10 H 0.624(2) 0.131(7) 0.568(3)
O6 O 0.62457(14) 0.7029(5) 0.5937(2)
H11 H 0.624(2) 0.775(6) 0.565(3)
H12 H 0.619(2) 0.774(7) 0.617(3)
O8 O 0.55196(15) 0.8877(6) 0.8605(2)
H15 H 0.5686(19) 0.932(7) 0.900(2)
H16 H 0.558(2) 0.779(4) 0.870(3)
N13 N 0.76138(15) 0.4588(6) 0.7207(3)
N14 N 0.79804(16) 0.1832(7) 0.7638(3)
N15 N 0.79730(16) 0.7377(7) 0.7593(3)
N16 N 0.62070(16) 0.4694(6) 0.6849(3)
N17 N 0.56466(19) 0.4847(6) 0.7078(3)
N18 N 0.53582(16) 0.7410(6) 0.7309(3)
N19 N 0.70847(17) 0.2296(6) 0.6038(3)
N22 N 0.62887(16) 0.4542(6) 0.5083(3)
N23 N 0.5765(2) 0.4707(7) 0.3896(3)
N24 N 0.54235(17) 0.7292(6) 0.3227(3)
C9 C 0.78189(19) 0.3153(8) 0.7446(3)
C10 C 0.78203(19) 0.6039(8) 0.7428(3)
C11 C 0.5952(2) 0.4887(7) 0.6964(3)
C12 C 0.5508(2) 0.6259(8) 0.7200(3)
C13 C 0.71804(19) 0.0951(8) 0.5969(3)
C15 C 0.6046(2) 0.4721(7) 0.4535(3)
C16 C 0.5589(2) 0.6135(8) 0.3555(3)
La7 La 0.82666(2) 0.95503(4) 0.85831(2)
La9 La 0.17334(2) 0.95503(4) 0.64169(2)
N25 N 0.70196(16) 0.6832(7) 0.7362(3)
N26 N 0.29804(16) 0.6832(7) 0.7638(3)
N27 N 0.70270(16) 0.2377(7) 0.7407(3)
N28 N 0.29730(16) 0.2377(7) 0.7593(3)
N29 N 0.29252(16) 0.6713(6) 0.8992(3)
N30 N 0.70748(16) 0.6713(6) 0.6008(3)
N8 N 0.26850(17) 0.9519(6) 0.9138(3)
C6 C 0.28229(19) 0.8068(8) 0.9055(3)
N20 N 0.73150(17) 0.9519(6) 0.5862(3)
C14 C 0.71771(19) 0.8068(8) 0.5945(3)
La11_2 La 0.000000 0.49515(6) 0.250000
La2_2 La -0.000000 0.50485(6) 0.750000
O6_2 O 0.12457(14) 0.2029(5) 0.5937(2)
H11_2 H 0.124(2) 0.275(6) 0.565(3)
H12_2 H 0.119(2) 0.274(7) 0.617(3)
O7_2 O 0.03841(15) 0.6264(5) 0.6999(3)
H13_2 H 0.047(2) 0.730(4) 0.700(4)
H14_2 H 0.050(2) 0.571(7) 0.682(3)
O8_2 O 0.05196(15) 0.3877(6) 0.8605(2)
H15_2 H 0.0686(19) 0.432(7) 0.900(2)
H16_2 H 0.058(2) 0.279(4) 0.870(3)
N18_2 N 0.03582(16) 0.2410(6) 0.7309(3)
N24_2 N 0.04235(17) 0.2292(6) 0.3227(3)
C10_2 C 0.28203(19) 0.1039(8) 0.7428(3)
C12_2 C 0.0508(2) 0.1259(8) 0.7200(3)
C16_2 C 0.0589(2) 0.1135(8) 0.3555(3)
N30_2 N 0.20748(16) 0.1713(6) 0.6008(3)
N31_2 N 0.04235(17) 0.7708(6) 0.8227(3)
O5_2 O 0.12601(15) 0.7038(5) 0.5982(2)
H9_2 H 0.116(2) 0.637(7) 0.617(3)
H10_2 H 0.124(2) 0.631(7) 0.568(3)
N13_2 N 0.26138(15) 0.9588(6) 0.7207(3)
N16_2 N 0.12070(16) 0.9694(6) 0.6849(3)
N17_2 N 0.06466(19) 0.9847(6) 0.7078(3)
N19_2 N 0.20847(17) 0.7296(6) 0.6038(3)
N20_2 N 0.23150(17) 0.4519(6) 0.5862(3)
N22_2 N 0.12887(16) 0.9542(6) 0.5083(3)
N23_2 N 0.0765(2) 0.9707(7) 0.3896(3)
C9_2 C 0.28189(19) 0.8153(8) 0.7446(3)
C11_2 C 0.0952(2) 0.9887(7) 0.6964(3)
C13_2 C 0.21804(19) 0.5951(8) 0.5969(3)
C14_2 C 0.21771(19) 0.3068(8) 0.5945(3)
C15_2 C 0.1046(2) 0.9721(7) 0.4535(3)
N12_2 N 0.95765(17) 0.2292(6) 0.1773(3)
C8_2 C 0.9411(2) 0.1135(8) 0.1445(3)
La11_3 La 1.000000 0.49515(6) 0.250000
La2_3 La 1.000000 0.50485(6) 0.750000
O2_2 O 0.87543(14) 0.2029(5) 0.9063(2)
H3_2 H 0.876(2) 0.275(6) 0.935(3)
H4_2 H 0.881(2) 0.274(7) 0.883(3)
O3_2 O 0.96159(15) 0.6264(5) 0.8001(3)
H5_2 H 0.953(2) 0.730(4) 0.800(4)
H6_2 H 0.950(2) 0.571(7) 0.818(3)
O4_2 O 0.94804(15) 0.3877(6) 0.6395(2)
H7_2 H 0.9314(19) 0.432(7) 0.600(2)
H8_2 H 0.942(2) 0.279(4) 0.630(3)
N6_2 N 0.96418(16) 0.2410(6) 0.7691(3)
C2_2 C 0.71797(19) 0.1039(8) 0.7572(3)
C4_2 C 0.9492(2) 0.1259(8) 0.7800(3)
N29_2 N 0.79252(16) 0.1713(6) 0.8992(3)
N32_2 N 0.95765(17) 0.7708(6) 0.6773(3)
O1_2 O 0.87399(15) 0.7038(5) 0.9018(2)
H1_2 H 0.884(2) 0.637(7) 0.883(3)
H2_2 H 0.876(2) 0.631(7) 0.932(3)
N1_2 N 0.73862(15) 0.9588(6) 0.7793(3)
N4_2 N 0.87930(16) 0.9694(6) 0.8151(3)
N5_2 N 0.93534(19) 0.9847(6) 0.7922(3)
N7_2 N 0.79153(17) 0.7296(6) 0.8962(3)
N8_2 N 0.76850(17) 0.4519(6) 0.9138(3)
N10_2 N 0.87113(16) 0.9542(6) 0.9917(3)
C1_2 C 0.71811(19) 0.8153(8) 0.7554(3)
C3_2 C 0.9048(2) 0.9887(7) 0.8036(3)
C5_2 C 0.78196(19) 0.5951(8) 0.9031(3)
C6_2 C 0.78229(19) 0.3068(8) 0.9055(3)
N8_3 N 0.73150(17) 0.0481(6) 0.0862(3)
N9 N 0.70748(16) 0.3287(6) 0.1008(3)
C6_3 C 0.71771(19) 0.1932(8) 0.0945(3)
N20_3 N 0.26850(17) 0.0481(6) 0.4138(3)
N21 N 0.29252(16) 0.3287(6) 0.3992(3)
C14_3 C 0.28229(19) 0.1932(8) 0.4055(3)
La4 La 0.67334(2) 0.54497(4) 0.14169(2)
La5 La 0.32666(2) 0.54497(4) 0.35831(2)
La6 La 0.17334(2) 0.04497(4) 0.14169(2)
La8 La 0.82666(2) 0.04497(4) 0.35831(2)
O1_3 O 0.62601(15) 0.7962(5) 0.0982(2)
H1_3 H 0.616(2) 0.863(7) 0.117(3)
H2_3 H 0.624(2) 0.869(7) 0.068(3)
O2_3 O 0.62457(14) 0.2971(5) 0.0937(2)
H3_3 H 0.624(2) 0.225(6) 0.065(3)
H4_3 H 0.619(2) 0.226(7) 0.117(3)
O4_3 O 0.55196(15) 0.1123(6) 0.3605(2)
H7_3 H 0.5686(19) 0.068(7) 0.400(2)
H8_3 H 0.558(2) 0.221(4) 0.370(3)
N1_3 N 0.76138(15) 0.5412(6) 0.2207(3)
N2_2 N 0.79804(16) 0.8168(7) 0.2638(3)
N3_2 N 0.79730(16) 0.2623(7) 0.2593(3)
N4_3 N 0.62070(16) 0.5306(6) 0.1849(3)
N5_3 N 0.56466(19) 0.5153(6) 0.2078(3)
N6_3 N 0.53582(16) 0.2590(6) 0.2309(3)
N7_3 N 0.70847(17) 0.7704(6) 0.1038(3)
N10_3 N 0.62887(16) 0.5458(6) 0.0083(3)
C1_3 C 0.78189(19) 0.6847(8) 0.2446(3)
C2_3 C 0.78203(19) 0.3961(8) 0.2428(3)
C3_3 C 0.5952(2) 0.5113(7) 0.1964(3)
C4_3 C 0.5508(2) 0.3741(8) 0.2200(3)
C5_3 C 0.71804(19) 0.9049(8) 0.0969(3)
O5_3 O 0.37399(15) 0.7962(5) 0.4018(2)
H9_3 H 0.384(2) 0.863(7) 0.383(3)
H10_3 H 0.376(2) 0.869(7) 0.432(3)
O6_3 O 0.37543(14) 0.2971(5) 0.4063(2)
H11_3 H 0.376(2) 0.225(6) 0.435(3)
H12_3 H 0.381(2) 0.226(7) 0.383(3)
O8_3 O 0.44804(15) 0.1123(6) 0.1395(2)
H15_3 H 0.4314(19) 0.068(7) 0.100(2)
H16_3 H 0.442(2) 0.221(4) 0.130(3)
N13_3 N 0.23862(15) 0.5412(6) 0.2793(3)
N14_2 N 0.20196(16) 0.8168(7) 0.2362(3)
N15_2 N 0.20270(16) 0.2623(7) 0.2407(3)
N16_3 N 0.37930(16) 0.5306(6) 0.3151(3)
N17_3 N 0.43534(19) 0.5153(6) 0.2922(3)
N18_3 N 0.46418(16) 0.2590(6) 0.2691(3)
N19_3 N 0.29153(17) 0.7704(6) 0.3962(3)
N22_3 N 0.37113(16) 0.5458(6) 0.4917(3)
N23_3 N 0.4235(2) 0.5293(7) 0.6104(3)
C9_3 C 0.21811(19) 0.6847(8) 0.2554(3)
C10_3 C 0.21797(19) 0.3961(8) 0.2572(3)
C11_3 C 0.4048(2) 0.5113(7) 0.3036(3)
C12_3 C 0.4492(2) 0.3741(8) 0.2800(3)
C13_3 C 0.28196(19) 0.9049(8) 0.4031(3)
C15_3 C 0.3954(2) 0.5279(7) 0.5465(3)
C16_3 C 0.4411(2) 0.3865(8) 0.6445(3)
N25_2 N 0.29804(16) 0.3168(7) 0.2638(3)
N26_2 N 0.70196(16) 0.3168(7) 0.2362(3)
N27_2 N 0.29730(16) 0.7623(7) 0.2593(3)
N28_2 N 0.70270(16) 0.7623(7) 0.2407(3)
N11_2 N 0.5765(2) 0.5293(7) 0.8896(3)
C7_2 C 0.6046(2) 0.5279(7) 0.9535(3)
C8_3 C 0.5589(2) 0.3865(8) 0.8555(3)
O3_3 O 0.53841(15) 0.8736(5) 0.1999(3)
H5_3 H 0.547(2) 0.770(4) 0.200(4)
H6_3 H 0.550(2) 0.929(7) 0.182(3)
O7_3 O 0.46159(15) 0.8736(5) 0.3001(3)
H13_3 H 0.453(2) 0.770(4) 0.300(4)
H14_3 H 0.450(2) 0.929(7) 0.318(3)
O1_4 O 0.12601(15) 0.2962(5) 0.0982(2)
H1_4 H 0.116(2) 0.363(7) 0.117(3)
H2_4 H 0.124(2) 0.369(7) 0.068(3)
N1_4 N 0.26138(15) 0.0412(6) 0.2207(3)
N4_4 N 0.12070(16) 0.0306(6) 0.1849(3)
N5_4 N 0.06466(19) 0.0153(6) 0.2078(3)
N7_4 N 0.20847(17) 0.2704(6) 0.1038(3)
N8_4 N 0.23150(17) 0.5481(6) 0.0862(3)
N9_2 N 0.20748(16) 0.8287(6) 0.1008(3)
N10_4 N 0.12887(16) 0.0458(6) 0.0083(3)
C1_4 C 0.28189(19) 0.1847(8) 0.2446(3)
C3_4 C 0.0952(2) 0.0113(7) 0.1964(3)
C5_4 C 0.21804(19) 0.4049(8) 0.0969(3)
C6_4 C 0.21771(19) 0.6932(8) 0.0945(3)
O2_4 O 0.12457(14) 0.7971(5) 0.0937(2)
H3_4 H 0.124(2) 0.725(6) 0.065(3)
H4_4 H 0.119(2) 0.726(7) 0.117(3)
O3_4 O 0.03841(15) 0.3736(5) 0.1999(3)
H5_4 H 0.047(2) 0.270(4) 0.200(4)
H6_4 H 0.050(2) 0.429(7) 0.182(3)
O4_4 O 0.05196(15) 0.6123(6) 0.3605(2)
H7_4 H 0.0686(19) 0.568(7) 0.400(2)
H8_4 H 0.058(2) 0.721(4) 0.370(3)
N6_4 N 0.03582(16) 0.7590(6) 0.2309(3)
C2_4 C 0.28203(19) 0.8961(8) 0.2428(3)
C4_4 C 0.0508(2) 0.8741(8) 0.2200(3)
C8_4 C 0.0589(2) 0.8865(8) 0.8555(3)
O5_4 O 0.87399(15) 0.2962(5) 0.4018(2)
H9_4 H 0.884(2) 0.363(7) 0.383(3)
H10_4 H 0.876(2) 0.369(7) 0.432(3)
N13_4 N 0.73862(15) 0.0412(6) 0.2793(3)
N16_4 N 0.87930(16) 0.0306(6) 0.3151(3)
N17_4 N 0.93534(19) 0.0153(6) 0.2922(3)
N19_4 N 0.79153(17) 0.2704(6) 0.3962(3)
N20_4 N 0.76850(17) 0.5481(6) 0.4138(3)
N21_2 N 0.79252(16) 0.8287(6) 0.3992(3)
N22_4 N 0.87113(16) 0.0458(6) 0.4917(3)
N23_4 N 0.9235(2) 0.0293(7) 0.6104(3)
C9_4 C 0.71811(19) 0.1847(8) 0.2554(3)
C11_4 C 0.9048(2) 0.0113(7) 0.3036(3)
C13_4 C 0.78196(19) 0.4049(8) 0.4031(3)
C14_4 C 0.78229(19) 0.6932(8) 0.4055(3)
C15_4 C 0.8954(2) 0.0279(7) 0.5465(3)
O6_4 O 0.87543(14) 0.7971(5) 0.4063(2)
H11_4 H 0.876(2) 0.725(6) 0.435(3)
H12_4 H 0.881(2) 0.726(7) 0.383(3)
O7_4 O 0.96159(15) 0.3736(5) 0.3001(3)
H13_4 H 0.953(2) 0.270(4) 0.300(4)
H14_4 H 0.950(2) 0.429(7) 0.318(3)
O8_4 O 0.94804(15) 0.6123(6) 0.1395(2)
H15_4 H 0.9314(19) 0.568(7) 0.100(2)
H16_4 H 0.942(2) 0.721(4) 0.130(3)
N18_4 N 0.96418(16) 0.7590(6) 0.2691(3)
C10_4 C 0.71797(19) 0.8961(8) 0.2572(3)
C12_4 C 0.9492(2) 0.8741(8) 0.2800(3)
C16_4 C 0.9411(2) 0.8865(8) 0.6445(3)
N11_3 N 0.9235(2) 0.9707(7) 0.1104(3)
C7_3 C 0.8954(2) 0.9721(7) 0.0465(3)
N11_4 N 0.0765(2) 0.0293(7) 0.8896(3)
C7_4 C 0.1046(2) 0.0279(7) 0.9535(3)
Cl1 Cl 0.09315(5) 0.55005(19) 0.16009(8)
Cl1_2 Cl 0.90685(5) 0.55005(19) 0.33991(8)
Cl1_3 Cl 0.59315(5) 0.05005(19) 0.16009(8)
Cl1_4 Cl 0.40685(5) 0.05005(19) 0.33991(8)
Cl1_5 Cl 0.90685(5) 0.44995(19) 0.83991(8)
Cl1_6 Cl 0.09315(5) 0.44995(19) 0.66009(8)
Cl1_7 Cl 0.40685(5) 0.94995(19) 0.83991(8)
Cl1_8 Cl 0.59315(5) 0.94995(19) 0.66009(8)
Cl2 Cl 0.12010(5) 0.54428(19) 0.98943(8)
Cl2_2 Cl 0.87990(5) 0.54428(19) 0.51057(8)
Cl2_3 Cl 0.62010(5) 0.04428(19) 0.98943(8)
Cl2_4 Cl 0.37990(5) 0.04428(19) 0.51057(8)
Cl2_5 Cl 0.87990(5) 0.45572(19) 0.01057(8)
Cl2_6 Cl 0.12010(5) 0.45572(19) 0.48943(8)
Cl2_7 Cl 0.37990(5) 0.95572(19) 0.01057(8)
Cl2_8 Cl 0.62010(5) 0.95572(19) 0.48943(8)
H20 H 0.214870 0.078047 0.017977
N33 N 0.18462(18) 0.1502(7) 0.9207(3)
N34 N 0.15159(17) 0.3743(7) 0.8647(3)
C17 C 0.1680(2) 0.2960(8) 0.9233(3)
H17 H 0.167853 0.338353 0.961229
C18 C 0.1588(2) 0.2755(9) 0.8237(4)
H18 H 0.150587 0.301662 0.778789
C19 C 0.1793(2) 0.1362(8) 0.8574(3)
H19 H 0.188471 0.044922 0.841464
C20 C 0.2053(2) 0.0222(9) 0.9748(4)
C21 C 0.1548(3) 0.6774(10) 0.8375(5)
H23 H 0.140854 0.788527 0.829068
H24 H 0.157423 0.646473 0.799286
H25 H 0.182244 0.685411 0.877791
C22 C 0.1304(2) 0.5427(9) 0.8473(4)
H26 H 0.125810 0.579188 0.883376
H27 H 0.103270 0.530840 0.805733
H21 H 0.228872 0.973394 0.974256
H22 H 0.185951 0.930201 0.968177
N33_2 N 0.81538(18) 0.1502(7) 0.5793(3)
N34_2 N 0.84841(17) 0.3743(7) 0.6353(3)
C17_2 C 0.8320(2) 0.2960(8) 0.5767(3)
H17_2 H 0.832147 0.338353 0.538771
C18_2 C 0.8412(2) 0.2755(9) 0.6763(4)
H18_2 H 0.849413 0.301662 0.721211
C19_2 C 0.8207(2) 0.1362(8) 0.6426(3)
H19_2 H 0.811529 0.044922 0.658536
C20_2 C 0.7947(2) 0.0222(9) 0.5252(4)
H20_2 H 0.785130 0.078047 0.482023
C21_2 C 0.8452(3) 0.6774(10) 0.6625(5)
H23_2 H 0.859146 0.788527 0.670932
H24_2 H 0.842577 0.646473 0.700714
H25_2 H 0.817756 0.685411 0.622209
C22_2 C 0.8696(2) 0.5427(9) 0.6527(4)
H26_2 H 0.874190 0.579188 0.616624
H27_2 H 0.896730 0.530840 0.694267
H21_2 H 0.771128 0.973394 0.525744
H22_2 H 0.814049 0.930201 0.531823
C21_3 C 0.6548(3) 0.1774(10) 0.8375(5)
H23_3 H 0.640854 0.288527 0.829068
H24_3 H 0.657423 0.146473 0.799286
H25_3 H 0.682244 0.185411 0.877791
C22_3 C 0.6304(2) 0.0427(9) 0.8473(4)
H26_3 H 0.625810 0.079188 0.883376
H27_3 H 0.603270 0.030840 0.805733
H20_3 H 0.714870 0.578047 0.017977
N33_3 N 0.68462(18) 0.6502(7) 0.9207(3)
N34_3 N 0.65159(17) 0.8743(7) 0.8647(3)
C17_3 C 0.6680(2) 0.7960(8) 0.9233(3)
H17_3 H 0.667853 0.838353 0.961229
C18_3 C 0.6588(2) 0.7755(9) 0.8237(4)
H18_3 H 0.650587 0.801662 0.778789
C19_3 C 0.6793(2) 0.6362(8) 0.8574(3)
H19_3 H 0.688471 0.544922 0.841464
C20_3 C 0.7053(2) 0.5222(9) 0.9748(4)
H21_3 H 0.728872 0.473394 0.974256
H22_3 H 0.685951 0.430201 0.968177
C21_4 C 0.3452(3) 0.1774(10) 0.6625(5)
H23_4 H 0.359146 0.288527 0.670932
H24_4 H 0.342577 0.146473 0.700714
H25_4 H 0.317756 0.185411 0.622209
C22_4 C 0.3696(2) 0.0427(9) 0.6527(4)
H26_4 H 0.374190 0.079188 0.616624
H27_4 H 0.396730 0.030840 0.694267
N33_4 N 0.31538(18) 0.6502(7) 0.5793(3)
N34_4 N 0.34841(17) 0.8743(7) 0.6353(3)
C17_4 C 0.3320(2) 0.7960(8) 0.5767(3)
H17_4 H 0.332147 0.838353 0.538771
C18_4 C 0.3412(2) 0.7755(9) 0.6763(4)
H18_4 H 0.349413 0.801662 0.721211
C19_4 C 0.3207(2) 0.6362(8) 0.6426(3)
H19_4 H 0.311529 0.544922 0.658536
C20_4 C 0.2947(2) 0.5222(9) 0.5252(4)
H20_4 H 0.285130 0.578047 0.482023
H21_4 H 0.271128 0.473394 0.525744
H22_4 H 0.314049 0.430201 0.531823
H21_5 H 0.771128 0.026606 0.025744
H22_5 H 0.814049 0.069799 0.031823
N33_5 N 0.81538(18) 0.8498(7) 0.0793(3)
N34_5 N 0.84841(17) 0.6257(7) 0.1353(3)
C17_5 C 0.8320(2) 0.7040(8) 0.0767(3)
H17_5 H 0.832147 0.661647 0.038771
C18_5 C 0.8412(2) 0.7245(9) 0.1763(4)
H18_5 H 0.849413 0.698338 0.221211
C19_5 C 0.8207(2) 0.8638(8) 0.1426(3)
H19_5 H 0.811529 0.955078 0.158536
C20_5 C 0.7947(2) 0.9778(9) 0.0252(4)
C21_5 C 0.8452(3) 0.3226(10) 0.1625(5)
H23_5 H 0.859146 0.211473 0.170932
H24_5 H 0.842577 0.353527 0.200714
H25_5 H 0.817756 0.314589 0.122209
C22_5 C 0.8696(2) 0.4573(9) 0.1527(4)
H26_5 H 0.874190 0.420812 0.116624
H27_5 H 0.896730 0.469160 0.194267
H20_5 H 0.785130 0.921953 0.982023
H21_6 H 0.228872 0.026606 0.474256
H22_6 H 0.185951 0.069799 0.468177
N33_6 N 0.18462(18) 0.8498(7) 0.4207(3)
N34_6 N 0.15159(17) 0.6257(7) 0.3647(3)
C17_6 C 0.1680(2) 0.7040(8) 0.4233(3)
H17_6 H 0.167853 0.661647 0.461229
C18_6 C 0.1588(2) 0.7245(9) 0.3237(4)
H18_6 H 0.150587 0.698338 0.278789
C19_6 C 0.1793(2) 0.8638(8) 0.3574(3)
H19_6 H 0.188471 0.955078 0.341464
C20_6 C 0.2053(2) 0.9778(9) 0.4748(4)
H20_6 H 0.214870 0.921953 0.517977
C21_6 C 0.1548(3) 0.3226(10) 0.3375(5)
H23_6 H 0.140854 0.211473 0.329068
H24_6 H 0.157423 0.353527 0.299286
H25_6 H 0.182244 0.314589 0.377791
C22_6 C 0.1304(2) 0.4573(9) 0.3473(4)
H26_6 H 0.125810 0.420812 0.383376
H27_6 H 0.103270 0.469160 0.305733
N33_7 N 0.31538(18) 0.3498(7) 0.0793(3)
N34_7 N 0.34841(17) 0.1257(7) 0.1353(3)
C17_7 C 0.3320(2) 0.2040(8) 0.0767(3)
H17_7 H 0.332147 0.161647 0.038771
C18_7 C 0.3412(2) 0.2245(9) 0.1763(4)
H18_7 H 0.349413 0.198338 0.221211
C19_7 C 0.3207(2) 0.3638(8) 0.1426(3)
H19_7 H 0.311529 0.455078 0.158536
C20_7 C 0.2947(2) 0.4778(9) 0.0252(4)
H21_7 H 0.271128 0.526606 0.025744
H22_7 H 0.314049 0.569799 0.031823
H20_7 H 0.285130 0.421953 0.982023
C21_7 C 0.3452(3) 0.8226(10) 0.1625(5)
H23_7 H 0.359146 0.711473 0.170932
H24_7 H 0.342577 0.853527 0.200714
H25_7 H 0.317756 0.814589 0.122209
C22_7 C 0.3696(2) 0.9573(9) 0.1527(4)
H26_7 H 0.374190 0.920812 0.116624
H27_7 H 0.396730 0.969160 0.194267
N33_8 N 0.68462(18) 0.3498(7) 0.4207(3)
N34_8 N 0.65159(17) 0.1257(7) 0.3647(3)
C17_8 C 0.6680(2) 0.2040(8) 0.4233(3)
H17_8 H 0.667853 0.161647 0.461229
C18_8 C 0.6588(2) 0.2245(9) 0.3237(4)
H18_8 H 0.650587 0.198338 0.278789
C19_8 C 0.6793(2) 0.3638(8) 0.3574(3)
H19_8 H 0.688471 0.455078 0.341464
C20_8 C 0.7053(2) 0.4778(9) 0.4748(4)
H20_8 H 0.714870 0.421953 0.517977
H21_8 H 0.728872 0.526606 0.474256
H22_8 H 0.685951 0.569799 0.468177
C21_8 C 0.6548(3) 0.8226(10) 0.3375(5)
H23_8 H 0.640854 0.711473 0.329068
H24_8 H 0.657423 0.853527 0.299286
H25_8 H 0.682244 0.814589 0.377791
C22_8 C 0.6304(2) 0.9573(9) 0.3473(4)
H26_8 H 0.625810 0.920812 0.383376
H27_8 H 0.603270 0.969160 0.305733
loop_
_geom_bond_atom_site_label_1
_geom_bond_atom_site_label_2
_geom_bond_site_symmetry_1
_geom_bond_site_symmetry_2
La2 O3 1_555 1_555
O3 H5 1_555 1_555
H6 O3 1_555 1_555
O7 La2 1_555 1_555
H13 O7 1_555 1_555
H14 O7 1_555 1_555
N31 La2 1_555 1_555
N32 La2 1_555 1_555
N11 C7 1_555 1_555
N12 C8 1_555 1_555
C8 N11 1_555 1_555
La11 N12 1_555 1_555
La1 O1 1_555 1_555
O1 H1 1_555 1_555
H2 O1 1_555 1_555
O2 La1 1_555 1_555
H3 O2 1_555 1_555
H4 O2 1_555 1_555
H7 O4 1_555 1_555
H8 O4 1_555 1_555
N1 La1 1_555 1_555
N2 C1 1_555 1_555
N3 C2 1_555 1_555
N4 La1 1_555 1_555
N5 C3 1_555 1_555
N7 La1 1_555 1_555
N10 La1 1_555 1_555
C1 N1 1_555 1_555
C2 N1 1_555 1_555
C3 N4 1_555 1_555
C4 N5 1_555 1_555
C5 N7 1_555 1_555
La3 O5 1_555 1_555
O5 H9 1_555 1_555
H10 O5 1_555 1_555
O6 La3 1_555 1_555
H11 O6 1_555 1_555
H12 O6 1_555 1_555
H15 O8 1_555 1_555
H16 O8 1_555 1_555
N13 La3 1_555 1_555
N14 C9 1_555 1_555
N15 C10 1_555 1_555
N16 La3 1_555 1_555
N17 C11 1_555 1_555
N19 La3 1_555 1_555
N22 La3 1_555 1_555
N23 C15 1_555 1_555
N24 C16 1_555 1_555
C9 N13 1_555 1_555
C10 N13 1_555 1_555
C11 N16 1_555 1_555
C12 N17 1_555 1_555
C13 N19 1_555 1_555
C15 N22 1_555 1_555
C16 N23 1_555 1_555
La7 N15 1_555 1_555
La9 N3 1_555 1_555
La11 N24 1_555 1_555
N25 La3 1_555 1_555
N26 La1 1_555 1_555
N27 La3 1_555 1_555
N28 La1 1_555 1_555
N29 La1 1_555 1_555
N30 La3 1_555 1_555
N6 C4 1_555 1_555
N18 C12 1_555 1_555
N29 C6 1_555 1_555
C6 N8 1_555 1_555
N30 C14 1_555 1_555
C14 N20 1_555 1_555
H11_2 O6_2 1_555 1_555
H12_2 O6_2 1_555 1_555
O7_2 La2_2 1_555 1_555
H13_2 O7_2 1_555 1_555
H14_2 O7_2 1_555 1_555
O8_2 La2_2 1_555 1_555
H15_2 O8_2 1_555 1_555
H16_2 O8_2 1_555 1_555
N28 C10_2 1_555 1_555
N18_2 La2_2 1_555 1_555
N24_2 C16_2 1_555 1_555
La11_2 N24_2 1_555 1_555
N31_2 La2_2 1_555 1_555
N18_2 C12_2 1_555 1_555
La9 O5_2 1_555 1_555
O5_2 H9_2 1_555 1_555
H10_2 O5_2 1_555 1_555
N13_2 La9 1_555 1_555
N26 C9_2 1_555 1_555
N16_2 La9 1_555 1_555
N17_2 C11_2 1_555 1_555
N19_2 La9 1_555 1_555
N20_2 C13_2 1_555 1_555
N30_2 C14_2 1_555 1_555
N22_2 La9 1_555 1_555
N23_2 C15_2 1_555 1_555
C9_2 N13_2 1_555 1_555
C11_2 N16_2 1_555 1_555
C13_2 N19_2 1_555 1_555
C14_2 N20_2 1_555 1_555
C15_2 N22_2 1_555 1_555
N12_2 C8_2 1_555 1_555
La11_3 N12_2 1_555 1_555
La2_3 O3_2 1_555 1_555
H3_2 O2_2 1_555 1_555
H4_2 O2_2 1_555 1_555
O3_2 H5_2 1_555 1_555
H6_2 O3_2 1_555 1_555
O4_2 La2_3 1_555 1_555
H7_2 O4_2 1_555 1_555
H8_2 O4_2 1_555 1_555
N27 C2_2 1_555 1_555
N6_2 La2_3 1_555 1_555
N32_2 La2_3 1_555 1_555
N6_2 C4_2 1_555 1_555
La7 O1_2 1_555 1_555
O1_2 H1_2 1_555 1_555
H2_2 O1_2 1_555 1_555
N1_2 La7 1_555 1_555
N25 C1_2 1_555 1_555
N4_2 La7 1_555 1_555
N5_2 C3_2 1_555 1_555
N7_2 La7 1_555 1_555
N8_2 C5_2 1_555 1_555
N29_2 C6_2 1_555 1_555
N10_2 La7 1_555 1_555
C1_2 N1_2 1_555 1_555
C3_2 N4_2 1_555 1_555
C5_2 N7_2 1_555 1_555
C6_2 N8_2 1_555 1_555
N9 C6_3 1_555 1_555
C6_3 N8_3 1_555 1_555
N21 C14_3 1_555 1_555
C14_3 N20_3 1_555 1_555
La4 N9 1_555 1_555
La5 N21 1_555 1_555
La4 O1_3 1_555 1_555
O1_3 H1_3 1_555 1_555
H2_3 O1_3 1_555 1_555
O2_3 La4 1_555 1_555
H3_3 O2_3 1_555 1_555
H4_3 O2_3 1_555 1_555
H7_3 O4_3 1_555 1_555
H8_3 O4_3 1_555 1_555
N1_3 La4 1_555 1_555
N2_2 C1_3 1_555 1_555
N3_2 C2_3 1_555 1_555
N4_3 La4 1_555 1_555
N5_3 C3_3 1_555 1_555
N7_3 La4 1_555 1_555
N10_3 La4 1_555 1_555
C1_3 N1_3 1_555 1_555
C2_3 N1_3 1_555 1_555
C3_3 N4_3 1_555 1_555
C4_3 N5_3 1_555 1_555
C5_3 N7_3 1_555 1_555
La5 O5_3 1_555 1_555
O5_3 H9_3 1_555 1_555
H10_3 O5_3 1_555 1_555
O6_3 La5 1_555 1_555
H11_3 O6_3 1_555 1_555
H12_3 O6_3 1_555 1_555
H15_3 O8_3 1_555 1_555
H16_3 O8_3 1_555 1_555
N13_3 La5 1_555 1_555
N14_2 C9_3 1_555 1_555
N15_2 C10_3 1_555 1_555
N16_3 La5 1_555 1_555
N17_3 C11_3 1_555 1_555
N19_3 La5 1_555 1_555
N22_3 La5 1_555 1_555
N23_3 C15_3 1_555 1_555
N32 C16_3 1_555 1_555
C9_3 N13_3 1_555 1_555
C10_3 N13_3 1_555 1_555
C11_3 N16_3 1_555 1_555
C12_3 N17_3 1_555 1_555
C13_3 N19_3 1_555 1_555
C15_3 N22_3 1_555 1_555
C16_3 N23_3 1_555 1_555
La6 N15_2 1_555 1_555
La8 N3_2 1_555 1_555
N25_2 La5 1_555 1_555
N26_2 La4 1_555 1_555
N27_2 La5 1_555 1_555
N28_2 La4 1_555 1_555
N6_3 C4_3 1_555 1_555
N18_3 C12_3 1_555 1_555
N11_2 C7_2 1_555 1_555
N31 C8_3 1_555 1_555
C8_3 N11_2 1_555 1_555
La11 O3_3 1_555 1_555
O3_3 H5_3 1_555 1_555
H6_3 O3_3 1_555 1_555
O7_3 La11 1_555 1_555
H13_3 O7_3 1_555 1_555
H14_3 O7_3 1_555 1_555
La6 O1_4 1_555 1_555
O1_4 H1_4 1_555 1_555
H2_4 O1_4 1_555 1_555
N1_4 La6 1_555 1_555
N25_2 C1_4 1_555 1_555
N4_4 La6 1_555 1_555
N5_4 C3_4 1_555 1_555
N7_4 La6 1_555 1_555
N8_4 C5_4 1_555 1_555
N9_2 C6_4 1_555 1_555
N10_4 La6 1_555 1_555
C1_4 N1_4 1_555 1_555
C3_4 N4_4 1_555 1_555
C5_4 N7_4 1_555 1_555
C6_4 N8_4 1_555 1_555
La11_2 O3_4 1_555 1_555
H3_4 O2_4 1_555 1_555
H4_4 O2_4 1_555 1_555
O3_4 H5_4 1_555 1_555
H6_4 O3_4 1_555 1_555
O4_4 La11_2 1_555 1_555
H7_4 O4_4 1_555 1_555
H8_4 O4_4 1_555 1_555
N27_2 C2_4 1_555 1_555
N6_4 La11_2 1_555 1_555
N6_4 C4_4 1_555 1_555
N31_2 C8_4 1_555 1_555
La8 O5_4 1_555 1_555
O5_4 H9_4 1_555 1_555
H10_4 O5_4 1_555 1_555
N13_4 La8 1_555 1_555
N26_2 C9_4 1_555 1_555
N16_4 La8 1_555 1_555
N17_4 C11_4 1_555 1_555
N19_4 La8 1_555 1_555
N20_4 C13_4 1_555 1_555
N21_2 C14_4 1_555 1_555
N22_4 La8 1_555 1_555
N23_4 C15_4 1_555 1_555
C9_4 N13_4 1_555 1_555
C11_4 N16_4 1_555 1_555
C13_4 N19_4 1_555 1_555
C14_4 N20_4 1_555 1_555
C15_4 N22_4 1_555 1_555
H11_4 O6_4 1_555 1_555
H12_4 O6_4 1_555 1_555
O7_4 La11_3 1_555 1_555
H13_4 O7_4 1_555 1_555
H14_4 O7_4 1_555 1_555
O8_4 La11_3 1_555 1_555
H15_4 O8_4 1_555 1_555
H16_4 O8_4 1_555 1_555
N28_2 C10_4 1_555 1_555
N18_4 La11_3 1_555 1_555
N32_2 C16_4 1_555 1_555
N18_4 C12_4 1_555 1_555
N11_3 C7_3 1_555 1_555
N11_4 C7_4 1_555 1_555
N33 C17 1_555 1_555
N34 C17 1_555 1_555
C17 H17 1_555 1_555
C18 N34 1_555 1_555
H18 C18 1_555 1_555
C19 N33 1_555 1_555
H19 C19 1_555 1_555
C20 N33 1_555 1_555
C21 H23 1_555 1_555
H24 C21 1_555 1_555
H25 C21 1_555 1_555
C22 N34 1_555 1_555
H26 C22 1_555 1_555
H27 C22 1_555 1_555
C18 C19 1_555 1_555
C21 C22 1_555 1_555
N33_2 C17_2 1_555 1_555
N34_2 C17_2 1_555 1_555
C17_2 H17_2 1_555 1_555
C18_2 N34_2 1_555 1_555
H18_2 C18_2 1_555 1_555
C19_2 N33_2 1_555 1_555
H19_2 C19_2 1_555 1_555
C20_2 N33_2 1_555 1_555
H20_2 C20_2 1_555 1_555
C21_2 H23_2 1_555 1_555
H24_2 C21_2 1_555 1_555
H25_2 C21_2 1_555 1_555
C22_2 N34_2 1_555 1_555
H26_2 C22_2 1_555 1_555
H27_2 C22_2 1_555 1_555
C18_2 C19_2 1_555 1_555
C21_2 C22_2 1_555 1_555
C21_3 H23_3 1_555 1_555
H24_3 C21_3 1_555 1_555
H25_3 C21_3 1_555 1_555
H26_3 C22_3 1_555 1_555
H27_3 C22_3 1_555 1_555
C21_3 C22_3 1_555 1_555
N33_3 C17_3 1_555 1_555
N34_3 C17_3 1_555 1_555
C17_3 H17_3 1_555 1_555
C18_3 N34_3 1_555 1_555
H18_3 C18_3 1_555 1_555
C19_3 N33_3 1_555 1_555
H19_3 C19_3 1_555 1_555
C20_3 N33_3 1_555 1_555
H21_3 C20_3 1_555 1_555
H22_3 C20_3 1_555 1_555
C18_3 C19_3 1_555 1_555
C21_4 H23_4 1_555 1_555
H24_4 C21_4 1_555 1_555
H25_4 C21_4 1_555 1_555
H26_4 C22_4 1_555 1_555
H27_4 C22_4 1_555 1_555
C21_4 C22_4 1_555 1_555
N33_4 C17_4 1_555 1_555
N34_4 C17_4 1_555 1_555
C17_4 H17_4 1_555 1_555
C18_4 N34_4 1_555 1_555
H18_4 C18_4 1_555 1_555
C19_4 N33_4 1_555 1_555
H19_4 C19_4 1_555 1_555
C20_4 N33_4 1_555 1_555
H20_4 C20_4 1_555 1_555
H21_4 C20_4 1_555 1_555
H22_4 C20_4 1_555 1_555
C18_4 C19_4 1_555 1_555
N33_5 C17_5 1_555 1_555
N34_5 C17_5 1_555 1_555
C17_5 H17_5 1_555 1_555
C18_5 N34_5 1_555 1_555
H18_5 C18_5 1_555 1_555
C19_5 N33_5 1_555 1_555
H19_5 C19_5 1_555 1_555
C20_5 N33_5 1_555 1_555
C21_5 H23_5 1_555 1_555
H24_5 C21_5 1_555 1_555
H25_5 C21_5 1_555 1_555
C22_5 N34_5 1_555 1_555
H26_5 C22_5 1_555 1_555
H27_5 C22_5 1_555 1_555
C18_5 C19_5 1_555 1_555
C21_5 C22_5 1_555 1_555
N33_6 C17_6 1_555 1_555
N34_6 C17_6 1_555 1_555
C17_6 H17_6 1_555 1_555
C18_6 N34_6 1_555 1_555
H18_6 C18_6 1_555 1_555
C19_6 N33_6 1_555 1_555
H19_6 C19_6 1_555 1_555
C20_6 N33_6 1_555 1_555
H20_6 C20_6 1_555 1_555
C21_6 H23_6 1_555 1_555
H24_6 C21_6 1_555 1_555
H25_6 C21_6 1_555 1_555
C22_6 N34_6 1_555 1_555
H26_6 C22_6 1_555 1_555
H27_6 C22_6 1_555 1_555
C18_6 C19_6 1_555 1_555
C21_6 C22_6 1_555 1_555
N33_7 C17_7 1_555 1_555
N34_7 C17_7 1_555 1_555
C17_7 H17_7 1_555 1_555
C18_7 N34_7 1_555 1_555
H18_7 C18_7 1_555 1_555
C19_7 N33_7 1_555 1_555
H19_7 C19_7 1_555 1_555
C20_7 N33_7 1_555 1_555
H21_7 C20_7 1_555 1_555
H22_7 C20_7 1_555 1_555
C18_7 C19_7 1_555 1_555
C21_7 H23_7 1_555 1_555
H24_7 C21_7 1_555 1_555
H25_7 C21_7 1_555 1_555
H26_7 C22_7 1_555 1_555
H27_7 C22_7 1_555 1_555
C21_7 C22_7 1_555 1_555
N33_8 C17_8 1_555 1_555
N34_8 C17_8 1_555 1_555
C17_8 H17_8 1_555 1_555
C18_8 N34_8 1_555 1_555
H18_8 C18_8 1_555 1_555
C19_8 N33_8 1_555 1_555
H19_8 C19_8 1_555 1_555
C20_8 N33_8 1_555 1_555
H20_8 C20_8 1_555 1_555
H21_8 C20_8 1_555 1_555
H22_8 C20_8 1_555 1_555
C18_8 C19_8 1_555 1_555
C21_8 H23_8 1_555 1_555
H24_8 C21_8 1_555 1_555
H25_8 C21_8 1_555 1_555
H26_8 C22_8 1_555 1_555
H27_8 C22_8 1_555 1_555
C21_8 C22_8 1_555 1_555

#END
