
###############################################################################
#
# This file contains modified crystal structure data generated from the
# MOF subset of the Cambridge Structural Database (CSD) v543 
# hosted by the Cambridge Crystallographic Data Centre (CCDC).
#
# This work is licensed under the Creative Commons
# Attribution-NonCommercial-ShareAlike 4.0 International License.
# To view a copy of this license, visit
# http://creativecommons.org/licenses/by-nc-sa/4.0/
# or send a letter to
# Creative Commons, PO Box 1866, Mountain View, CA 94042, USA.
#
# CIF created using the CSD Python API on 29 September 2022
# The structure has been converted into the P1 space group
# The structure has a 3D framework
# The original CSD entry AJOVEB is in the rhombohedral crystal system
# The framework has been calculated to contain at least 10.0% void space
# The void calculation uses a probe of radius 1.32A, grid spacing 0.4
#
###############################################################################

data_AJOVEB
_chemical_formula_moiety         '(C342 H144 Cd30 F108 O150)n'
_symmetry_cell_setting           triclinic
_symmetry_space_group_name_H-M   'P 1'
_symmetry_Int_Tables_number      1
_space_group_name_Hall           'P 1'
loop_
_symmetry_equiv_pos_site_id
_symmetry_equiv_pos_as_xyz
1 x,y,z
_cell_length_a                   40.024(6)
_cell_length_b                   40.024(6)
_cell_length_c                   7.7200(15)
_cell_angle_alpha                90
_cell_angle_beta                 90
_cell_angle_gamma                120
_cell_volume                     10710
loop_
_atom_site_label
_atom_site_type_symbol
_atom_site_fract_x
_atom_site_fract_y
_atom_site_fract_z
O4 O 0.48604(8) 0.45780(9) 0.1083(4)
O5 O 0.37394(8) 0.25525(8) 0.2467(4)
O7 O 0.39749(9) 0.29679(8) 0.6366(4)
O8 O 0.39987(8) 0.24368(8) 0.5933(4)
F1 F 0.54693(9) 0.30622(8) 0.1179(4)
F4 F 0.59402(8) 0.37186(9) 0.3108(4)
F5 F 0.61341(7) 0.41235(8) 0.1004(4)
F6 F 0.57972(7) 0.41725(7) 0.3037(3)
C5 C 0.51756(10) 0.40768(10) 0.0242(5)
H3 H 0.5064 0.4030 0.1337
C9 C 0.54600(10) 0.36549(10) 0.1069(5)
C10 C 0.55127(12) 0.33415(11) 0.0112(6)
C11 C 0.58368(11) 0.39168(12) 0.2059(6)
C12 C 0.51116(10) 0.34384(10) 0.2313(5)
C13 C 0.47499(11) 0.32157(10) 0.1563(5)
H4 H 0.4727 0.3213 0.0364
C14 C 0.44192(10) 0.29954(10) 0.2563(5)
C15 C 0.44440(10) 0.30059(10) 0.4366(5)
C16 C 0.48080(12) 0.32378(12) 0.5116(5)
H5 H 0.4830 0.3254 0.6317
C17 C 0.51341(11) 0.34435(11) 0.4110(5)
H6 H 0.5373 0.3588 0.4644
C18 C 0.40443(11) 0.27515(10) 0.1617(5)
C19 C 0.41112(11) 0.27906(11) 0.5600(5)
Cd4 Cd 0.533821(8) 0.504796(8) 0.28339(4)
Cd5 Cd 0.362358(11) 0.200488(8) 0.38328(4)
Cd6 Cd 0.426678(8) 0.452479(8) 0.15717(4)
Cd8 Cd 0.359134(11) 0.239989(8) 0.82384(4)
O16 O 0.63012(8) 0.56597(12) 0.0301(4)
O18 O 0.57701(8) 0.51048(11) 0.0734(4)
Cd2 Cd 0.573322(8) 0.547521(8) 0.84283(4)
O1 O 0.52836(10) 0.45893(9) 0.4606(4)
O2 O 0.52223(8) 0.49358(8) 0.6699(4)
O3 O 0.45739(8) 0.43837(8) 0.8544(4)
O6 O 0.40636(9) 0.27677(9) 0.9995(4)
F2 F 0.58549(8) 0.34757(8) 0.9363(4)
F3 F 0.52451(8) 0.31724(7) 0.8864(4)
C1 C 0.52975(11) 0.43942(10) 0.7459(5)
C2 C 0.55358(11) 0.42478(11) 0.7045(5)
H1 H 0.5664 0.4311 0.5986
C3 C 0.55873(11) 0.40102(11) 0.8170(5)
H2 H 0.5747 0.3913 0.7857
C4 C 0.51160(10) 0.43082(10) 0.9086(5)
C6 C 0.54015(10) 0.39135(10) 0.9780(5)
C7 C 0.52594(11) 0.46523(11) 0.6159(5)
C8 C 0.48341(10) 0.44341(10) 0.9582(5)
O9 O 0.59215(14) 0.60723(12) 0.7587(7)
H7 H 0.5884 0.6123 0.6561
H8 H 0.5763 0.6091 0.8256
Cd3 Cd 0.466179(8) 0.495204(8) 0.71661(4)
O10 O 0.47777(8) 0.50642(8) 0.3301(4)
O11 O 0.54261(8) 0.56163(8) 0.1456(4)
O13 O 0.51396(8) 0.54220(9) 0.8917(4)
O14 O 0.58858(8) 0.54798(11) 0.4200(4)
O15 O 0.61010(9) 0.53708(13) 0.6672(4)
O4_2 O 0.54220(9) 0.02824(12) 0.1083(4)
O5_2 O 0.74475(8) 0.11869(11) 0.2467(4)
O7_2 O 0.70321(8) 0.10070(12) 0.6366(4)
O8_2 O 0.75632(8) 0.15619(11) 0.5933(4)
F1_2 F 0.69378(8) 0.24071(12) 0.1179(4)
F4_2 F 0.62814(9) 0.22216(12) 0.3108(4)
F5_2 F 0.58765(8) 0.20106(11) 0.1004(4)
F6_2 F 0.58275(7) 0.16247(10) 0.3037(3)
C5_2 C 0.59232(10) 0.10988(14) 0.0242(5)
H3_2 H 0.5970 0.1034 0.1337
C9_2 C 0.63451(10) 0.18051(14) 0.1069(5)
C10_2 C 0.66585(11) 0.21712(16) 0.0112(6)
C11_2 C 0.60832(12) 0.19200(16) 0.2059(6)
C12_2 C 0.65616(10) 0.16732(14) 0.2313(5)
C13_2 C 0.67843(10) 0.15342(15) 0.1563(5)
H4_2 H 0.6787 0.1514 0.0364
C14_2 C 0.70046(10) 0.14238(14) 0.2563(5)
C15_2 C 0.69941(10) 0.14381(14) 0.4366(5)
C16_2 C 0.67622(12) 0.15702(17) 0.5116(5)
H5_2 H 0.6746 0.1576 0.6317
C17_2 C 0.65565(11) 0.16906(16) 0.4110(5)
H6_2 H 0.6412 0.1785 0.4644
C18_2 C 0.72485(10) 0.12928(15) 0.1617(5)
C19_2 C 0.72094(11) 0.13206(16) 0.5600(5)
Cd4_2 Cd 0.495204(8) 0.029025(11) 0.28339(4)
Cd5_2 Cd 0.799512(8) 0.161871(14) 0.38328(4)
Cd8_2 Cd 0.760011(8) 0.119146(14) 0.82384(4)
O16_2 O 0.43403(12) 0.06416(14) 0.0301(4)
O18_2 O 0.48952(11) 0.06654(14) 0.0734(4)
Cd2_2 Cd 0.452479(8) 0.025801(11) 0.84283(4)
O1_2 O 0.54107(9) 0.06943(13) 0.4606(4)
O2_2 O 0.50642(8) 0.02865(11) 0.6699(4)
O3_2 O 0.56163(8) 0.01902(11) 0.8544(4)
O6_2 O 0.72323(9) 0.12959(13) 0.9995(4)
F2_2 F 0.65243(8) 0.23792(11) 0.9363(4)
F3_2 F 0.68276(7) 0.20727(11) 0.8864(4)
C1_2 C 0.56058(10) 0.09033(15) 0.7459(5)
C2_2 C 0.57522(11) 0.12880(16) 0.7045(5)
H1_2 H 0.5689 0.1353 0.5986
C3_2 C 0.59898(11) 0.15771(16) 0.8170(5)
H2_2 H 0.6087 0.1834 0.7857
C4_2 C 0.56918(10) 0.08078(14) 0.9086(5)
C6_2 C 0.60865(10) 0.14880(14) 0.9780(5)
C7_2 C 0.53477(11) 0.06071(16) 0.6159(5)
C8_2 C 0.55659(10) 0.04000(14) 0.9582(5)
O14_2 O 0.45202(11) 0.04061(14) 0.4200(4)
O15_2 O 0.46292(13) 0.07303(16) 0.6672(4)
Cd6_2 Cd 0.547521(8) 0.974199(11) 0.15717(4)
O9_2 O 0.39277(12) 0.98492(18) 0.7587(7)
H7_2 H 0.3877 0.9761 0.6561
H8_2 H 0.3909 0.9672 0.8256
Cd3_2 Cd 0.504796(8) 0.970975(11) 0.71661(4)
O10_2 O 0.49358(8) 0.97135(11) 0.3301(4)
O11_2 O 0.43837(8) 0.98098(11) 0.1456(4)
O13_2 O 0.45780(9) 0.97176(12) 0.8917(4)
Cd6_3 Cd 0.025801(11) 0.573322(8) 0.15717(4)
O9_3 O 0.01508(18) 0.40785(14) 0.7587(7)
H7_3 H 0.0239 0.4116 0.6561
H8_3 H 0.0328 0.4237 0.8256
Cd3_3 Cd 0.029025(11) 0.533821(8) 0.71661(4)
O10_3 O 0.02865(11) 0.52223(8) 0.3301(4)
O11_3 O 0.01902(11) 0.45739(8) 0.1456(4)
O13_3 O 0.02824(12) 0.48604(8) 0.8917(4)
O4_3 O 0.97176(12) 0.51396(8) 0.1083(4)
O5_3 O 0.88131(11) 0.62606(8) 0.2467(4)
O7_3 O 0.89930(12) 0.60251(9) 0.6366(4)
O8_3 O 0.84381(11) 0.60013(8) 0.5933(4)
F1_3 F 0.75929(12) 0.45307(9) 0.1179(4)
F4_3 F 0.77784(12) 0.40598(8) 0.3108(4)
F5_3 F 0.79894(11) 0.38659(7) 0.1004(4)
F6_3 F 0.83753(10) 0.42028(7) 0.3037(3)
C5_3 C 0.89012(14) 0.48244(10) 0.0242(5)
H3_3 H 0.8966 0.4936 0.1337
C9_3 C 0.81949(14) 0.45400(10) 0.1069(5)
C10_3 C 0.78288(16) 0.44873(12) 0.0112(6)
C11_3 C 0.80800(16) 0.41632(11) 0.2059(6)
C12_3 C 0.83268(14) 0.48884(10) 0.2313(5)
C13_3 C 0.84658(15) 0.52501(11) 0.1563(5)
H4_3 H 0.8486 0.5273 0.0364
C14_3 C 0.85762(14) 0.55808(10) 0.2563(5)
C15_3 C 0.85619(14) 0.55560(10) 0.4366(5)
C16_3 C 0.84298(17) 0.51920(12) 0.5116(5)
H5_3 H 0.8424 0.5170 0.6317
C17_3 C 0.83094(16) 0.48659(11) 0.4110(5)
H6_3 H 0.8215 0.4627 0.4644
C18_3 C 0.87072(15) 0.59557(11) 0.1617(5)
C19_3 C 0.86794(16) 0.58888(11) 0.5600(5)
Cd4_3 Cd 0.970975(11) 0.466179(8) 0.28339(4)
Cd5_3 Cd 0.838129(14) 0.637642(11) 0.38328(4)
Cd8_3 Cd 0.880854(14) 0.640866(11) 0.82384(4)
O16_3 O 0.93584(14) 0.36988(8) 0.0301(4)
O18_3 O 0.93346(14) 0.42299(8) 0.0734(4)
Cd2_3 Cd 0.974199(11) 0.426678(8) 0.84283(4)
O1_3 O 0.93057(13) 0.47164(10) 0.4606(4)
O2_3 O 0.97135(11) 0.47777(8) 0.6699(4)
O3_3 O 0.98098(11) 0.54261(8) 0.8544(4)
O6_3 O 0.87041(13) 0.59364(9) 0.9995(4)
F2_3 F 0.76208(11) 0.41451(8) 0.9363(4)
F3_3 F 0.79273(11) 0.47549(8) 0.8864(4)
C1_3 C 0.90967(15) 0.47025(11) 0.7459(5)
C2_3 C 0.87120(16) 0.44642(11) 0.7045(5)
H1_3 H 0.8647 0.4336 0.5986
C3_3 C 0.84229(16) 0.44127(11) 0.8170(5)
H2_3 H 0.8166 0.4253 0.7857
C4_3 C 0.91922(14) 0.48840(10) 0.9086(5)
C6_3 C 0.85120(14) 0.45985(10) 0.9780(5)
C7_3 C 0.93929(16) 0.47406(11) 0.6159(5)
C8_3 C 0.96000(14) 0.51659(10) 0.9582(5)
O14_3 O 0.95939(14) 0.41142(8) 0.4200(4)
O15_3 O 0.92697(16) 0.38990(9) 0.6672(4)
Cd2_4 Cd 0.239989(8) 0.880854(8) 0.17616(4)
O2_4 O 0.18890(8) 0.82691(8) 0.0032(4)
O3_4 O 0.12406(8) 0.77170(8) 0.1877(4)
O4_4 O 0.15271(8) 0.79113(9) 0.4416(4)
O5_4 O 0.04061(8) 0.58858(8) 0.5800(4)
O6_4 O 0.07303(9) 0.61010(9) 0.3328(4)
O7_4 O 0.06416(9) 0.63012(8) 0.9699(4)
O8_4 O 0.06654(8) 0.57701(8) 0.9266(4)
F1_4 F 0.21360(9) 0.63955(8) 0.4512(4)
F2_4 F 0.25216(8) 0.68090(8) 0.2696(4)
F3_4 F 0.19118(8) 0.65057(7) 0.2197(4)
F4_4 F 0.26069(8) 0.70519(9) 0.6441(4)
F5_4 F 0.28008(7) 0.74568(8) 0.4337(4)
F6_4 F 0.24639(7) 0.75058(7) 0.6370(3)
C1_4 C 0.19642(11) 0.77275(10) 0.0792(5)
C2_4 C 0.22025(11) 0.75811(11) 0.0378(5)
C3_4 C 0.22540(11) 0.73435(11) 0.1503(5)
H2_4 H 0.2414 0.7246 0.1190
C4_4 C 0.17827(10) 0.76415(10) 0.2419(5)
C5_4 C 0.18423(10) 0.74101(10) 0.3575(5)
H3_4 H 0.1731 0.7363 0.4670
C6_4 C 0.20682(10) 0.72468(10) 0.3113(5)
C8_4 C 0.15008(10) 0.77674(10) 0.2915(5)
C9_4 C 0.21267(10) 0.69882(10) 0.4402(5)
C10_4 C 0.21794(12) 0.66748(11) 0.3445(6)
C11_4 C 0.25035(11) 0.72501(12) 0.5392(6)
C12_4 C 0.17783(10) 0.67717(10) 0.5646(5)
C13_4 C 0.14166(11) 0.65490(10) 0.4896(5)
H4_4 H 0.1394 0.6546 0.3697
C14_4 C 0.10859(10) 0.63287(10) 0.5896(5)
C15_4 C 0.11107(10) 0.63392(10) 0.7699(5)
C16_4 C 0.14747(12) 0.65711(12) 0.8449(5)
H5_4 H 0.1497 0.6587 0.9650
C17_4 C 0.18008(11) 0.67768(11) 0.7443(5)
H6_4 H 0.2040 0.6921 0.7977
C18_4 C 0.07110(11) 0.60848(10) 0.4950(5)
C19_4 C 0.07779(11) 0.61239(11) 0.8933(5)
O9_4 O 0.25882(14) 0.94056(12) 0.0920(7)
H8_4 H 0.2430 0.9424 0.1589
Cd3_4 Cd 0.132846(8) 0.828537(8) 0.04994(4)
Cd4_4 Cd 0.200488(8) 0.838129(8) 0.61672(4)
Cd6_4 Cd 0.093345(8) 0.785812(8) 0.49050(4)
O13_4 O 0.18063(8) 0.87553(9) 0.2250(4)
O15_4 O 0.27677(9) 0.87041(13) 0.0005(4)
O16_4 O 0.29679(8) 0.89930(12) 0.3634(4)
O18_4 O 0.24368(8) 0.84381(11) 0.4067(4)
O1_4 O 0.19503(10) 0.79226(9) 0.7939(4)
H1_4 H 0.2331 0.7644 0.9319
C7_4 C 0.19261(11) 0.79856(11) 0.9492(5)
H7_4 H 0.2551 0.9456 0.9894
O10_4 O 0.14444(8) 0.83975(8) 0.6634(4)
O11_4 O 0.20928(8) 0.89496(8) 0.4789(4)
O14_4 O 0.25525(8) 0.88131(11) 0.7533(4)
Cd2_5 Cd 0.119146(8) 0.359134(11) 0.17616(4)
O2_5 O 0.17309(8) 0.36198(11) 0.0032(4)
O3_5 O 0.22830(8) 0.35235(11) 0.1877(4)
O4_5 O 0.20887(9) 0.36157(12) 0.4416(4)
O5_5 O 0.41142(8) 0.45202(11) 0.5800(4)
O6_5 O 0.38990(9) 0.46292(13) 0.3328(4)
O7_5 O 0.36988(8) 0.43403(12) 0.9699(4)
O8_5 O 0.42299(8) 0.48952(11) 0.9266(4)
F1_5 F 0.36045(8) 0.57404(12) 0.4512(4)
F2_5 F 0.31910(8) 0.57125(11) 0.2696(4)
F3_5 F 0.34943(7) 0.54060(11) 0.2197(4)
F4_5 F 0.29481(9) 0.55549(12) 0.6441(4)
F5_5 F 0.25432(8) 0.53439(11) 0.4337(4)
F6_5 F 0.24942(7) 0.49580(10) 0.6370(3)
C1_5 C 0.22725(10) 0.42366(15) 0.0792(5)
C2_5 C 0.24189(11) 0.46213(16) 0.0378(5)
C3_5 C 0.26565(11) 0.49104(16) 0.1503(5)
H2_5 H 0.2754 0.5167 0.1190
C4_5 C 0.23585(10) 0.41411(14) 0.2419(5)
C5_5 C 0.25899(10) 0.44321(14) 0.3575(5)
H3_5 H 0.2637 0.4367 0.4670
C6_5 C 0.27532(10) 0.48213(14) 0.3113(5)
C8_5 C 0.22326(10) 0.37333(14) 0.2915(5)
C9_5 C 0.30118(10) 0.51384(14) 0.4402(5)
C10_5 C 0.33252(11) 0.55045(16) 0.3445(6)
C11_5 C 0.27499(12) 0.52533(16) 0.5392(6)
C12_5 C 0.32283(10) 0.50065(14) 0.5646(5)
C13_5 C 0.34510(10) 0.48675(15) 0.4896(5)
H4_5 H 0.3454 0.4847 0.3697
C14_5 C 0.36713(10) 0.47571(14) 0.5896(5)
C15_5 C 0.36608(10) 0.47714(14) 0.7699(5)
C16_5 C 0.34289(12) 0.49035(17) 0.8449(5)
H5_5 H 0.3413 0.4909 0.9650
C17_5 C 0.32232(11) 0.50239(16) 0.7443(5)
H6_5 H 0.3079 0.5118 0.7977
C18_5 C 0.39152(10) 0.46261(15) 0.4950(5)
C19_5 C 0.38761(11) 0.46539(16) 0.8933(5)
O9_5 O 0.05944(12) 0.31825(18) 0.0920(7)
H8_5 H 0.0576 0.3005 0.1589
Cd3_5 Cd 0.171463(8) 0.304308(11) 0.04994(4)
Cd4_5 Cd 0.161871(8) 0.362358(11) 0.61672(4)
Cd6_5 Cd 0.214188(8) 0.307532(11) 0.49050(4)
O13_5 O 0.12447(9) 0.30509(12) 0.2250(4)
O15_5 O 0.12959(13) 0.40636(16) 0.0005(4)
O16_5 O 0.10070(12) 0.39749(14) 0.3634(4)
O18_5 O 0.15619(11) 0.39987(14) 0.4067(4)
O1_5 O 0.20774(9) 0.40276(13) 0.7939(4)
H1_5 H 0.2356 0.4686 0.9319
C7_5 C 0.20144(11) 0.39404(16) 0.9492(5)
H7_5 H 0.0544 0.3094 0.9894
O10_5 O 0.16025(8) 0.30468(11) 0.6634(4)
O11_5 O 0.10504(8) 0.31431(11) 0.4789(4)
O14_5 O 0.11869(11) 0.37394(14) 0.7533(4)
Cd2_6 Cd 0.640866(11) 0.760011(8) 0.17616(4)
O2_6 O 0.63802(11) 0.81110(8) 0.0032(4)
O3_6 O 0.64765(11) 0.87594(8) 0.1877(4)
O4_6 O 0.63843(12) 0.84729(8) 0.4416(4)
O5_6 O 0.54798(11) 0.95939(8) 0.5800(4)
O6_6 O 0.53708(13) 0.92697(9) 0.3328(4)
O7_6 O 0.56597(12) 0.93584(9) 0.9699(4)
O8_6 O 0.51048(11) 0.93346(8) 0.9266(4)
F1_6 F 0.42596(12) 0.78640(9) 0.4512(4)
F2_6 F 0.42875(11) 0.74784(8) 0.2696(4)
F3_6 F 0.45940(11) 0.80882(8) 0.2197(4)
F4_6 F 0.44451(12) 0.73931(8) 0.6441(4)
F5_6 F 0.46561(11) 0.71992(7) 0.4337(4)
F6_6 F 0.50420(10) 0.75361(7) 0.6370(3)
C1_6 C 0.57634(15) 0.80358(11) 0.0792(5)
C2_6 C 0.53787(16) 0.77975(11) 0.0378(5)
C3_6 C 0.50896(16) 0.77460(11) 0.1503(5)
H2_6 H 0.4833 0.7586 0.1190
C4_6 C 0.58589(14) 0.82173(10) 0.2419(5)
C5_6 C 0.55679(14) 0.81577(10) 0.3575(5)
H3_6 H 0.5633 0.8269 0.4670
C6_6 C 0.51787(14) 0.79318(10) 0.3113(5)
C8_6 C 0.62667(14) 0.84992(10) 0.2915(5)
C9_6 C 0.48616(14) 0.78733(10) 0.4402(5)
C10_6 C 0.44955(16) 0.78206(12) 0.3445(6)
C11_6 C 0.47467(16) 0.74965(11) 0.5392(6)
C12_6 C 0.49935(14) 0.82217(10) 0.5646(5)
C13_6 C 0.51325(15) 0.85834(11) 0.4896(5)
H4_6 H 0.5153 0.8606 0.3697
C14_6 C 0.52429(14) 0.89141(10) 0.5896(5)
C15_6 C 0.52286(14) 0.88893(10) 0.7699(5)
C16_6 C 0.50965(17) 0.85253(12) 0.8449(5)
H5_6 H 0.5091 0.8503 0.9650
C17_6 C 0.49761(16) 0.81992(11) 0.7443(5)
H6_6 H 0.4882 0.7960 0.7977
C18_6 C 0.53739(15) 0.92890(11) 0.4950(5)
C19_6 C 0.53461(16) 0.92221(11) 0.8933(5)
O9_6 O 0.68175(18) 0.74118(14) 0.0920(7)
H8_6 H 0.6995 0.7570 0.1589
Cd3_6 Cd 0.695692(11) 0.867154(8) 0.04994(4)
Cd4_6 Cd 0.637642(11) 0.799512(8) 0.61672(4)
Cd6_6 Cd 0.692468(11) 0.906655(8) 0.49050(4)
O13_6 O 0.69491(12) 0.81937(8) 0.2250(4)
O15_6 O 0.59364(16) 0.72323(9) 0.0005(4)
O16_6 O 0.60251(14) 0.70321(8) 0.3634(4)
O18_6 O 0.60013(14) 0.75632(8) 0.4067(4)
O1_6 O 0.59724(13) 0.80497(10) 0.7939(4)
H1_6 H 0.5314 0.7669 0.9319
C7_6 C 0.60596(16) 0.80739(11) 0.9492(5)
H7_6 H 0.6906 0.7449 0.9894
O10_6 O 0.69532(11) 0.85556(8) 0.6634(4)
O11_6 O 0.68569(11) 0.79072(8) 0.4789(4)
O14_6 O 0.62606(14) 0.74475(8) 0.7533(4)
Cd2_7 Cd 0.906655(8) 0.214188(8) 0.50950(4)
O1_7 O 0.86169(10) 0.12560(9) 0.1273(4)
O2_7 O 0.85556(8) 0.16025(8) 0.3366(4)
O3_7 O 0.79072(8) 0.10504(8) 0.5211(4)
O4_7 O 0.81937(8) 0.12447(9) 0.7750(4)
F2_7 F 0.91882(8) 0.01424(8) 0.6030(4)
F4_7 F 0.92735(8) 0.03853(9) 0.9775(4)
F5_7 F 0.94674(7) 0.07902(8) 0.7671(4)
F6_7 F 0.91305(7) 0.08392(7) 0.9704(3)
C1_7 C 0.86308(11) 0.10609(10) 0.4126(5)
C2_7 C 0.88691(11) 0.09145(11) 0.3712(5)
H1_7 H 0.8997 0.0978 0.2653
C3_7 C 0.89206(11) 0.06769(11) 0.4837(5)
H2_7 H 0.9080 0.0580 0.4524
C4_7 C 0.84493(10) 0.09749(10) 0.5753(5)
C5_7 C 0.85089(10) 0.07435(10) 0.6909(5)
H3_7 H 0.8397 0.0697 0.8004
C6_7 C 0.87348(10) 0.05802(10) 0.6447(5)
C7_7 C 0.85927(11) 0.13190(11) 0.2826(5)
C8_7 C 0.81674(10) 0.11008(10) 0.6249(5)
C9_7 C 0.87933(10) 0.03216(10) 0.7736(5)
C10_7 C 0.88460(12) 0.00082(11) 0.6779(6)
C11_7 C 0.91701(11) 0.05835(12) 0.8726(6)
C12_7 C 0.84449(10) 0.01051(10) 0.8980(5)
O9_7 O 0.92548(14) 0.27390(12) 0.4254(7)
H7_7 H 0.9217 0.2790 0.3228
H8_7 H 0.9096 0.2758 0.4923
Cd4_7 Cd 0.867154(8) 0.171463(8) 0.95006(4)
O13_7 O 0.84729(8) 0.20887(9) 0.5584(4)
O14_7 O 0.92192(8) 0.21464(11) 0.0866(4)
O15_7 O 0.94344(9) 0.20374(13) 0.3338(4)
O16_7 O 0.96346(8) 0.23263(12) 0.6967(4)
O18_7 O 0.91035(8) 0.17714(11) 0.7400(4)
O10_7 O 0.81110(8) 0.17309(8) 0.9968(4)
O11_7 O 0.87594(8) 0.22830(8) 0.8123(4)
O7_7 O 0.73082(9) 0.96346(8) 0.3033(4)
O8_7 O 0.73320(8) 0.91035(8) 0.2600(4)
C15_7 C 0.77773(10) 0.96726(10) 0.1033(5)
C16_7 C 0.81413(12) 0.99045(12) 0.1783(5)
H5_7 H 0.8163 0.9921 0.2984
C19_7 C 0.74445(11) 0.94573(11) 0.2267(5)
O5_7 O 0.70727(8) 0.92192(8) 0.9134(4)
O6_7 O 0.73969(9) 0.94344(9) 0.6662(4)
F1_7 F 0.88026(9) 0.97289(8) 0.7846(4)
F3_7 F 0.85784(8) 0.98391(7) 0.5531(4)
C13_7 C 0.80832(11) 0.98824(10) 0.8230(5)
H4_7 H 0.8060 0.9880 0.7031
C14_7 C 0.77525(10) 0.96621(10) 0.9230(5)
C18_7 C 0.73776(11) 0.94182(10) 0.8284(5)
O7_8 O 0.03654(8) 0.76737(12) 0.3033(4)
O8_8 O 0.08965(8) 0.82286(11) 0.2600(4)
C15_8 C 0.03274(10) 0.81048(14) 0.1033(5)
C16_8 C 0.00955(12) 0.82369(17) 0.1783(5)
H5_8 H 0.0079 0.8243 0.2984
C19_8 C 0.05427(11) 0.79873(16) 0.2267(5)
O5_8 O 0.07808(8) 0.78536(11) 0.9134(4)
O6_8 O 0.05656(9) 0.79626(13) 0.6662(4)
F1_8 F 0.02711(8) 0.90738(12) 0.7846(4)
F3_8 F 0.01609(7) 0.87394(11) 0.5531(4)
C13_8 C 0.01176(10) 0.82009(15) 0.8230(5)
H4_8 H 0.0120 0.8181 0.7031
C14_8 C 0.03379(10) 0.80905(14) 0.9230(5)
C18_8 C 0.05818(10) 0.79595(15) 0.8284(5)
Cd2_8 Cd 0.785812(8) 0.692468(11) 0.50950(4)
O1_8 O 0.87440(9) 0.73610(13) 0.1273(4)
O2_8 O 0.83975(8) 0.69532(11) 0.3366(4)
O3_8 O 0.89496(8) 0.68569(11) 0.5211(4)
O4_8 O 0.87553(9) 0.69491(12) 0.7750(4)
F2_8 F 0.98576(8) 0.90459(11) 0.6030(4)
F4_8 F 0.96147(9) 0.88883(12) 0.9775(4)
F5_8 F 0.92098(8) 0.86773(11) 0.7671(4)
F6_8 F 0.91608(7) 0.82914(10) 0.9704(3)
C1_8 C 0.89391(10) 0.75700(15) 0.4126(5)
C2_8 C 0.90855(11) 0.79547(16) 0.3712(5)
H1_8 H 0.9022 0.8020 0.2653
C3_8 C 0.93231(11) 0.82438(16) 0.4837(5)
H2_8 H 0.9420 0.8501 0.4524
C4_8 C 0.90251(10) 0.74745(14) 0.5753(5)
C5_8 C 0.92565(10) 0.77655(14) 0.6909(5)
H3_8 H 0.9303 0.7701 0.8004
C6_8 C 0.94198(10) 0.81547(14) 0.6447(5)
C7_8 C 0.86810(11) 0.72738(16) 0.2826(5)
C8_8 C 0.88992(10) 0.70667(14) 0.6249(5)
C9_8 C 0.96784(10) 0.84718(14) 0.7736(5)
C10_8 C 0.99918(11) 0.88379(16) 0.6779(6)
C11_8 C 0.94165(12) 0.85867(16) 0.8726(6)
C12_8 C 0.98949(10) 0.83399(14) 0.8980(5)
O9_8 O 0.72610(12) 0.65159(18) 0.4254(7)
H7_8 H 0.7210 0.6428 0.3228
H8_8 H 0.7242 0.6339 0.4923
Cd4_8 Cd 0.828537(8) 0.695692(11) 0.95006(4)
O13_8 O 0.79113(9) 0.63843(12) 0.5584(4)
O14_8 O 0.78536(11) 0.70727(14) 0.0866(4)
O15_8 O 0.79626(13) 0.73969(16) 0.3338(4)
O16_8 O 0.76737(12) 0.73082(14) 0.6967(4)
O18_8 O 0.82286(11) 0.73320(14) 0.7400(4)
O10_8 O 0.82691(8) 0.63802(11) 0.9968(4)
O11_8 O 0.77170(8) 0.64765(11) 0.8123(4)
O7_9 O 0.23263(12) 0.26918(9) 0.3033(4)
O8_9 O 0.17714(11) 0.26680(8) 0.2600(4)
C15_9 C 0.18952(14) 0.22227(10) 0.1033(5)
C16_9 C 0.17631(17) 0.18587(12) 0.1783(5)
H5_9 H 0.1757 0.1837 0.2984
C17_7 C 0.16427(16) 0.15326(11) 0.0777(5)
H6_7 H 0.1548 0.1294 0.1311
C19_9 C 0.20127(16) 0.25555(11) 0.2267(5)
Cd2_9 Cd 0.307532(11) 0.093345(8) 0.50950(4)
O1_9 O 0.26390(13) 0.13831(10) 0.1273(4)
O2_9 O 0.30468(11) 0.14444(8) 0.3366(4)
O3_9 O 0.31431(11) 0.20928(8) 0.5211(4)
O4_9 O 0.30509(12) 0.18063(8) 0.7750(4)
O5_9 O 0.21464(11) 0.29273(8) 0.9134(4)
O6_9 O 0.20374(13) 0.26031(9) 0.6662(4)
F1_9 F 0.09262(12) 0.11974(9) 0.7846(4)
F2_9 F 0.09541(11) 0.08118(8) 0.6030(4)
F3_9 F 0.12606(11) 0.14216(8) 0.5531(4)
F4_9 F 0.11117(12) 0.07265(8) 0.9775(4)
F5_9 F 0.13227(11) 0.05326(7) 0.7671(4)
F6_9 F 0.17086(10) 0.08695(7) 0.9704(3)
C1_9 C 0.24300(15) 0.13692(11) 0.4126(5)
C2_9 C 0.20453(16) 0.11309(11) 0.3712(5)
H1_9 H 0.1980 0.1003 0.2653
C3_9 C 0.17562(16) 0.10794(11) 0.4837(5)
H2_9 H 0.1499 0.0920 0.4524
C4_9 C 0.25255(14) 0.15507(10) 0.5753(5)
C5_9 C 0.22345(14) 0.14911(10) 0.6909(5)
H3_9 H 0.2299 0.1603 0.8004
C6_9 C 0.18453(14) 0.12652(10) 0.6447(5)
C7_9 C 0.27262(16) 0.14073(11) 0.2826(5)
C8_9 C 0.29333(14) 0.18326(10) 0.6249(5)
C9_9 C 0.15282(14) 0.12067(10) 0.7736(5)
C10_9 C 0.11621(16) 0.11540(12) 0.6779(6)
C11_9 C 0.14133(16) 0.08299(11) 0.8726(6)
C12_9 C 0.16601(14) 0.15551(10) 0.8980(5)
C13_9 C 0.17991(15) 0.19168(11) 0.8230(5)
H4_9 H 0.1819 0.1940 0.7031
C14_9 C 0.19095(14) 0.22475(10) 0.9230(5)
C18_9 C 0.20405(15) 0.26224(11) 0.8284(5)
O9_9 O 0.34841(18) 0.07452(14) 0.4254(7)
H7_9 H 0.3572 0.0783 0.3228
H8_9 H 0.3661 0.0904 0.4923
Cd4_9 Cd 0.304308(11) 0.132846(8) 0.95006(4)
O13_9 O 0.36157(12) 0.15271(8) 0.5584(4)
O14_9 O 0.29273(14) 0.07808(8) 0.0866(4)
O15_9 O 0.26031(16) 0.05656(9) 0.3338(4)
O16_9 O 0.26918(14) 0.03654(8) 0.6967(4)
O18_9 O 0.26680(14) 0.08965(8) 0.7400(4)
O10_9 O 0.36198(11) 0.18890(8) 0.9968(4)
O11_9 O 0.35235(11) 0.12406(8) 0.8123(4)
O1_10 O 0.47164(10) 0.54107(9) 0.5394(4)
F2_10 F 0.41451(8) 0.65243(8) 0.0637(4)
F3_10 F 0.47549(8) 0.68276(7) 0.1136(4)
C1_10 C 0.47025(11) 0.56058(10) 0.2541(5)
C2_10 C 0.44642(11) 0.57522(11) 0.2955(5)
H1_10 H 0.4336 0.5689 0.4014
C3_10 C 0.44127(11) 0.59898(11) 0.1830(5)
H2_10 H 0.4253 0.6087 0.2143
C4_10 C 0.48840(10) 0.56918(10) 0.0914(5)
C6_10 C 0.45985(10) 0.60865(10) 0.0220(5)
C7_10 C 0.47406(11) 0.53477(11) 0.3841(5)
C8_10 C 0.51659(10) 0.55659(10) 0.0418(5)
O9_10 O 0.40785(14) 0.39277(12) 0.2413(7)
H7_10 H 0.4116 0.3877 0.3439
H8_10 H 0.4237 0.3909 0.1744
F1_10 F 0.45307(9) 0.69378(8) 0.8821(4)
F4_10 F 0.40598(8) 0.62814(9) 0.6892(4)
F5_10 F 0.38659(7) 0.58765(8) 0.8996(4)
F6_10 F 0.42028(7) 0.58275(7) 0.6963(3)
C5_10 C 0.48244(10) 0.59232(10) 0.9758(5)
H3_10 H 0.4936 0.5970 0.8663
C9_10 C 0.45400(10) 0.63451(10) 0.8931(5)
C10_10 C 0.44873(12) 0.66585(11) 0.9888(6)
C11_10 C 0.41632(11) 0.60832(12) 0.7941(6)
C12_10 C 0.48884(10) 0.65616(10) 0.7687(5)
C13_10 C 0.52501(11) 0.67843(10) 0.8437(5)
H4_10 H 0.5273 0.6787 0.9636
C14_10 C 0.55808(10) 0.70046(10) 0.7437(5)
C15_10 C 0.55560(10) 0.69941(10) 0.5634(5)
C16_10 C 0.51920(12) 0.67622(12) 0.4884(5)
H5_10 H 0.5170 0.6746 0.3683
C17_8 C 0.48659(11) 0.65565(11) 0.5890(5)
H6_8 H 0.4627 0.6412 0.5356
C18_10 C 0.59557(11) 0.72485(10) 0.8383(5)
C19_10 C 0.58888(11) 0.72094(11) 0.4400(5)
O9_11 O 0.60723(12) 0.01508(18) 0.2413(7)
H7_11 H 0.6123 0.0239 0.3439
H8_11 H 0.6091 0.0328 0.1744
O1_11 O 0.45893(9) 0.93057(13) 0.5394(4)
F2_11 F 0.34757(8) 0.76208(11) 0.0637(4)
F3_11 F 0.31724(7) 0.79273(11) 0.1136(4)
C1_11 C 0.43942(10) 0.90967(15) 0.2541(5)
C2_11 C 0.42478(11) 0.87120(16) 0.2955(5)
H1_11 H 0.4311 0.8647 0.4014
C3_11 C 0.40102(11) 0.84229(16) 0.1830(5)
H2_11 H 0.3913 0.8166 0.2143
C4_11 C 0.43082(10) 0.91922(14) 0.0914(5)
C6_11 C 0.39135(10) 0.85120(14) 0.0220(5)
C7_11 C 0.46523(11) 0.93929(16) 0.3841(5)
C8_11 C 0.44341(10) 0.96000(14) 0.0418(5)
F1_11 F 0.30622(8) 0.75929(12) 0.8821(4)
F4_11 F 0.37186(9) 0.77784(12) 0.6892(4)
F5_11 F 0.41235(8) 0.79894(11) 0.8996(4)
F6_11 F 0.41725(7) 0.83753(10) 0.6963(3)
C5_11 C 0.40768(10) 0.89012(14) 0.9758(5)
H3_11 H 0.4030 0.8966 0.8663
C9_11 C 0.36549(10) 0.81949(14) 0.8931(5)
C10_11 C 0.33415(11) 0.78288(16) 0.9888(6)
C11_11 C 0.39168(12) 0.80800(16) 0.7941(6)
C12_11 C 0.34384(10) 0.83268(14) 0.7687(5)
C13_11 C 0.32157(10) 0.84658(15) 0.8437(5)
H4_11 H 0.3213 0.8486 0.9636
C14_11 C 0.29954(10) 0.85762(14) 0.7437(5)
C15_11 C 0.30059(10) 0.85619(14) 0.5634(5)
C16_11 C 0.32378(12) 0.84298(17) 0.4884(5)
H5_11 H 0.3254 0.8424 0.3683
C17_9 C 0.34435(11) 0.83094(16) 0.5890(5)
H6_9 H 0.3588 0.8215 0.5356
C18_11 C 0.27515(10) 0.87072(15) 0.8383(5)
C19_11 C 0.27906(11) 0.86794(16) 0.4400(5)
O1_12 O 0.06943(13) 0.52836(10) 0.5394(4)
F2_12 F 0.23792(11) 0.58549(8) 0.0637(4)
F3_12 F 0.20727(11) 0.52451(8) 0.1136(4)
C1_12 C 0.09033(15) 0.52975(11) 0.2541(5)
C2_12 C 0.12880(16) 0.55358(11) 0.2955(5)
H1_12 H 0.1353 0.5664 0.4014
C3_12 C 0.15771(16) 0.55873(11) 0.1830(5)
H2_12 H 0.1834 0.5747 0.2143
C4_12 C 0.08078(14) 0.51160(10) 0.0914(5)
C6_12 C 0.14880(14) 0.54015(10) 0.0220(5)
C7_12 C 0.06071(16) 0.52594(11) 0.3841(5)
C8_12 C 0.04000(14) 0.48341(10) 0.0418(5)
F1_12 F 0.24071(12) 0.54693(9) 0.8821(4)
F4_12 F 0.22216(12) 0.59402(8) 0.6892(4)
F5_12 F 0.20106(11) 0.61341(7) 0.8996(4)
F6_12 F 0.16247(10) 0.57972(7) 0.6963(3)
C5_12 C 0.10988(14) 0.51756(10) 0.9758(5)
H3_12 H 0.1034 0.5064 0.8663
C9_12 C 0.18051(14) 0.54600(10) 0.8931(5)
C10_12 C 0.21712(16) 0.55127(12) 0.9888(6)
C11_12 C 0.19200(16) 0.58368(11) 0.7941(6)
C12_12 C 0.16732(14) 0.51116(10) 0.7687(5)
C13_12 C 0.15342(15) 0.47499(11) 0.8437(5)
H4_12 H 0.1514 0.4727 0.9636
C14_12 C 0.14238(14) 0.44192(10) 0.7437(5)
C15_12 C 0.14381(14) 0.44440(10) 0.5634(5)
C16_12 C 0.15702(17) 0.48080(12) 0.4884(5)
H5_12 H 0.1576 0.4830 0.3683
C17_10 C 0.16906(16) 0.51341(11) 0.5890(5)
H6_10 H 0.1785 0.5373 0.5356
C18_12 C 0.12928(15) 0.40443(11) 0.8383(5)
C19_12 C 0.13206(16) 0.41112(11) 0.4400(5)
O9_12 O 0.98492(18) 0.59215(14) 0.2413(7)
H7_12 H 0.9761 0.5884 0.3439
H8_12 H 0.9672 0.5763 0.1744
O1_13 O 0.80497(10) 0.20774(9) 0.2061(4)
H1_13 H 0.7669 0.2356 0.0681
C7_13 C 0.80739(11) 0.20144(11) 0.0508(5)
H7_13 H 0.7449 0.0544 0.0106
F1_13 F 0.78640(9) 0.36045(8) 0.5488(4)
F2_13 F 0.74784(8) 0.31910(8) 0.7304(4)
F3_13 F 0.80882(8) 0.34943(7) 0.7803(4)
F4_13 F 0.73931(8) 0.29481(9) 0.3559(4)
F5_13 F 0.71992(7) 0.25432(8) 0.5663(4)
F6_13 F 0.75361(7) 0.24942(7) 0.3630(3)
C1_13 C 0.80358(11) 0.22725(10) 0.9208(5)
C2_13 C 0.77975(11) 0.24189(11) 0.9622(5)
C3_13 C 0.77460(11) 0.26565(11) 0.8497(5)
H2_13 H 0.7586 0.2754 0.8810
C4_13 C 0.82173(10) 0.23585(10) 0.7581(5)
C5_13 C 0.81577(10) 0.25899(10) 0.6425(5)
H3_13 H 0.8269 0.2637 0.5330
C6_13 C 0.79318(10) 0.27532(10) 0.6887(5)
C8_13 C 0.84992(10) 0.22326(10) 0.7085(5)
C9_13 C 0.78733(10) 0.30118(10) 0.5598(5)
C10_13 C 0.78206(12) 0.33252(11) 0.6555(6)
C11_13 C 0.74965(11) 0.27499(12) 0.4608(6)
C12_13 C 0.82217(10) 0.32283(10) 0.4354(5)
C13_13 C 0.85834(11) 0.34510(10) 0.5104(5)
H4_13 H 0.8606 0.3454 0.6303
C14_13 C 0.89141(10) 0.36713(10) 0.4104(5)
C15_13 C 0.88893(10) 0.36608(10) 0.2301(5)
C16_13 C 0.85253(12) 0.34289(12) 0.1551(5)
H5_13 H 0.8503 0.3413 0.0350
C17_11 C 0.81992(11) 0.32232(11) 0.2557(5)
H6_11 H 0.7960 0.3079 0.2023
C18_13 C 0.92890(11) 0.39152(10) 0.5050(5)
C19_13 C 0.92221(11) 0.38761(11) 0.1067(5)
O9_13 O 0.74118(14) 0.05944(12) 0.9080(7)
H8_13 H 0.7570 0.0576 0.8411
O1_14 O 0.79226(9) 0.59724(13) 0.2061(4)
H1_14 H 0.7644 0.5314 0.0681
C7_14 C 0.79856(11) 0.60596(16) 0.0508(5)
H7_14 H 0.9456 0.6906 0.0106
F1_14 F 0.63955(8) 0.42596(12) 0.5488(4)
F2_14 F 0.68090(8) 0.42875(11) 0.7304(4)
F3_14 F 0.65057(7) 0.45940(11) 0.7803(4)
F4_14 F 0.70519(9) 0.44451(12) 0.3559(4)
F5_14 F 0.74568(8) 0.46561(11) 0.5663(4)
F6_14 F 0.75058(7) 0.50420(10) 0.3630(3)
C1_14 C 0.77275(10) 0.57634(15) 0.9208(5)
C2_14 C 0.75811(11) 0.53787(16) 0.9622(5)
C3_14 C 0.73435(11) 0.50896(16) 0.8497(5)
H2_14 H 0.7246 0.4833 0.8810
C4_14 C 0.76415(10) 0.58589(14) 0.7581(5)
C5_14 C 0.74101(10) 0.55679(14) 0.6425(5)
H3_14 H 0.7363 0.5633 0.5330
C6_14 C 0.72468(10) 0.51787(14) 0.6887(5)
C8_14 C 0.77674(10) 0.62667(14) 0.7085(5)
C9_14 C 0.69882(10) 0.48616(14) 0.5598(5)
C10_14 C 0.66748(11) 0.44955(16) 0.6555(6)
C11_14 C 0.72501(12) 0.47467(16) 0.4608(6)
C12_14 C 0.67717(10) 0.49935(14) 0.4354(5)
C13_14 C 0.65490(10) 0.51325(15) 0.5104(5)
H4_14 H 0.6546 0.5153 0.6303
C14_14 C 0.63287(10) 0.52429(14) 0.4104(5)
C15_14 C 0.63392(10) 0.52286(14) 0.2301(5)
C16_14 C 0.65711(12) 0.50965(17) 0.1551(5)
H5_14 H 0.6587 0.5091 0.0350
C17_12 C 0.67768(11) 0.49761(16) 0.2557(5)
H6_12 H 0.6921 0.4882 0.2023
C18_14 C 0.60848(10) 0.53739(15) 0.5050(5)
C19_14 C 0.61239(11) 0.53461(16) 0.1067(5)
O9_14 O 0.94056(12) 0.68175(18) 0.9080(7)
H8_14 H 0.9424 0.6995 0.8411
O1_15 O 0.40276(13) 0.19503(10) 0.2061(4)
H1_15 H 0.4686 0.2331 0.0681
C7_15 C 0.39404(16) 0.19261(11) 0.0508(5)
H7_15 H 0.3094 0.2551 0.0106
F1_15 F 0.57404(12) 0.21360(9) 0.5488(4)
F2_15 F 0.57125(11) 0.25216(8) 0.7304(4)
F3_15 F 0.54060(11) 0.19118(8) 0.7803(4)
F4_15 F 0.55549(12) 0.26069(8) 0.3559(4)
F5_15 F 0.53439(11) 0.28008(7) 0.5663(4)
F6_15 F 0.49580(10) 0.24639(7) 0.3630(3)
C1_15 C 0.42366(15) 0.19642(11) 0.9208(5)
C2_15 C 0.46213(16) 0.22025(11) 0.9622(5)
C3_15 C 0.49104(16) 0.22540(11) 0.8497(5)
H2_15 H 0.5167 0.2414 0.8810
C4_15 C 0.41411(14) 0.17827(10) 0.7581(5)
C5_15 C 0.44321(14) 0.18423(10) 0.6425(5)
H3_15 H 0.4367 0.1731 0.5330
C6_15 C 0.48213(14) 0.20682(10) 0.6887(5)
C8_15 C 0.37333(14) 0.15008(10) 0.7085(5)
C9_15 C 0.51384(14) 0.21267(10) 0.5598(5)
C10_15 C 0.55045(16) 0.21794(12) 0.6555(6)
C11_15 C 0.52533(16) 0.25035(11) 0.4608(6)
C12_15 C 0.50065(14) 0.17783(10) 0.4354(5)
C13_15 C 0.48675(15) 0.14166(11) 0.5104(5)
H4_15 H 0.4847 0.1394 0.6303
C14_15 C 0.47571(14) 0.10859(10) 0.4104(5)
C15_15 C 0.47714(14) 0.11107(10) 0.2301(5)
C16_15 C 0.49035(17) 0.14747(12) 0.1551(5)
H5_15 H 0.4909 0.1497 0.0350
C17_13 C 0.50239(16) 0.18008(11) 0.2557(5)
H6_13 H 0.5118 0.2040 0.2023
C18_15 C 0.46261(15) 0.07110(11) 0.5050(5)
C19_15 C 0.46539(16) 0.07779(11) 0.1067(5)
O9_15 O 0.31825(18) 0.25882(14) 0.9080(7)
H8_15 H 0.3005 0.2430 0.8411
F1_16 F 0.11974(9) 0.02711(8) 0.2154(4)
F3_16 F 0.14216(8) 0.01609(7) 0.4469(4)
C13_16 C 0.19168(11) 0.01176(10) 0.1770(5)
H4_16 H 0.1940 0.0120 0.2969
C14_16 C 0.22475(10) 0.03379(10) 0.0770(5)
C18_16 C 0.26224(11) 0.05818(10) 0.1716(5)
C15_16 C 0.22227(10) 0.03274(10) 0.8967(5)
C16_16 C 0.18587(12) 0.00955(12) 0.8217(5)
H5_16 H 0.1837 0.0079 0.7016
C19_16 C 0.25555(11) 0.05427(11) 0.7733(5)
O1_16 O 0.13831(10) 0.87440(9) 0.8727(4)
F2_16 F 0.08118(8) 0.98576(8) 0.3970(4)
F4_16 F 0.07265(8) 0.96147(9) 0.0225(4)
F5_16 F 0.05326(7) 0.92098(8) 0.2329(4)
F6_16 F 0.08695(7) 0.91608(7) 0.0296(3)
C1_16 C 0.13692(11) 0.89391(10) 0.5874(5)
C2_16 C 0.11309(11) 0.90855(11) 0.6288(5)
H1_16 H 0.1003 0.9022 0.7347
C3_16 C 0.10794(11) 0.93231(11) 0.5163(5)
H2_16 H 0.0920 0.9420 0.5476
C4_16 C 0.15507(10) 0.90251(10) 0.4247(5)
C5_16 C 0.14911(10) 0.92565(10) 0.3091(5)
H3_16 H 0.1603 0.9303 0.1996
C6_16 C 0.12652(10) 0.94198(10) 0.3553(5)
C7_16 C 0.14073(11) 0.86810(11) 0.7174(5)
C8_16 C 0.18326(10) 0.88992(10) 0.3751(5)
C9_16 C 0.12067(10) 0.96784(10) 0.2264(5)
C10_16 C 0.11540(12) 0.99918(11) 0.3221(6)
C11_16 C 0.08299(11) 0.94165(12) 0.1274(6)
C12_16 C 0.15551(10) 0.98949(10) 0.1020(5)
O9_16 O 0.07452(14) 0.72610(12) 0.5746(7)
H7_16 H 0.0783 0.7210 0.6772
H8_16 H 0.0904 0.7242 0.5077
O1_17 O 0.12560(9) 0.26390(13) 0.8727(4)
F2_17 F 0.01424(8) 0.09541(11) 0.3970(4)
F4_17 F 0.03853(9) 0.11117(12) 0.0225(4)
F5_17 F 0.07902(8) 0.13227(11) 0.2329(4)
F6_17 F 0.08392(7) 0.17086(10) 0.0296(3)
C1_17 C 0.10609(10) 0.24300(15) 0.5874(5)
C2_17 C 0.09145(11) 0.20453(16) 0.6288(5)
H1_17 H 0.0978 0.1980 0.7347
C3_17 C 0.06769(11) 0.17562(16) 0.5163(5)
H2_17 H 0.0580 0.1499 0.5476
C4_17 C 0.09749(10) 0.25255(14) 0.4247(5)
C5_17 C 0.07435(10) 0.22345(14) 0.3091(5)
H3_17 H 0.0697 0.2299 0.1996
C6_17 C 0.05802(10) 0.18453(14) 0.3553(5)
C7_17 C 0.13190(11) 0.27262(16) 0.7174(5)
C8_17 C 0.11008(10) 0.29333(14) 0.3751(5)
C9_17 C 0.03216(10) 0.15282(14) 0.2264(5)
C10_17 C 0.00082(11) 0.11621(16) 0.3221(6)
C11_17 C 0.05835(12) 0.14133(16) 0.1274(6)
C12_17 C 0.01051(10) 0.16601(14) 0.1020(5)
O9_17 O 0.27390(12) 0.34841(18) 0.5746(7)
H7_17 H 0.2790 0.3572 0.6772
H8_17 H 0.2758 0.3661 0.5077
F1_17 F 0.97289(8) 0.09262(12) 0.2154(4)
F3_17 F 0.98391(7) 0.12606(11) 0.4469(4)
C13_17 C 0.98824(10) 0.17991(15) 0.1770(5)
H4_17 H 0.9880 0.1819 0.2969
C14_17 C 0.96621(10) 0.19095(14) 0.0770(5)
C18_17 C 0.94182(10) 0.20405(15) 0.1716(5)
C15_17 C 0.96726(10) 0.18952(14) 0.8967(5)
C16_17 C 0.99045(12) 0.17631(17) 0.8217(5)
H5_17 H 0.9921 0.1757 0.7016
C19_17 C 0.94573(11) 0.20127(16) 0.7733(5)
O1_18 O 0.73610(13) 0.86169(10) 0.8727(4)
F1_18 F 0.90738(12) 0.88026(9) 0.2154(4)
F2_18 F 0.90459(11) 0.91882(8) 0.3970(4)
F3_18 F 0.87394(11) 0.85784(8) 0.4469(4)
F4_18 F 0.88883(12) 0.92735(8) 0.0225(4)
F5_18 F 0.86773(11) 0.94674(7) 0.2329(4)
F6_18 F 0.82914(10) 0.91305(7) 0.0296(3)
C1_18 C 0.75700(15) 0.86308(11) 0.5874(5)
C2_18 C 0.79547(16) 0.88691(11) 0.6288(5)
H1_18 H 0.8020 0.8997 0.7347
C3_18 C 0.82438(16) 0.89206(11) 0.5163(5)
H2_18 H 0.8501 0.9080 0.5476
C4_18 C 0.74745(14) 0.84493(10) 0.4247(5)
C5_18 C 0.77655(14) 0.85089(10) 0.3091(5)
H3_18 H 0.7701 0.8397 0.1996
C6_18 C 0.81547(14) 0.87348(10) 0.3553(5)
C7_18 C 0.72738(16) 0.85927(11) 0.7174(5)
C8_18 C 0.70667(14) 0.81674(10) 0.3751(5)
C9_18 C 0.84718(14) 0.87933(10) 0.2264(5)
C10_18 C 0.88379(16) 0.88460(12) 0.3221(6)
C11_18 C 0.85867(16) 0.91701(11) 0.1274(6)
C12_18 C 0.83399(14) 0.84449(10) 0.1020(5)
C13_18 C 0.82009(15) 0.80832(11) 0.1770(5)
H4_18 H 0.8181 0.8060 0.2969
C14_18 C 0.80905(14) 0.77525(10) 0.0770(5)
C18_18 C 0.79595(15) 0.73776(11) 0.1716(5)
O9_18 O 0.65159(18) 0.92548(14) 0.5746(7)
H7_18 H 0.6428 0.9217 0.6772
H8_18 H 0.6339 0.9096 0.5077
C15_18 C 0.81048(14) 0.77773(10) 0.8967(5)
C16_18 C 0.82369(17) 0.81413(12) 0.8217(5)
H5_18 H 0.8243 0.8163 0.7016
C17_14 C 0.83573(16) 0.84674(11) 0.9223(5)
H6_14 H 0.8452 0.8706 0.8689
C19_18 C 0.79873(16) 0.74445(11) 0.7733(5)
C17_15 C 0.84674(11) 0.01102(11) 0.0777(5)
H6_15 H 0.8706 0.0255 0.1311
C17_16 C 0.98898(11) 0.83573(16) 0.0777(5)
H6_16 H 0.9745 0.8452 0.1311
C17_17 C 0.15326(11) 0.98898(11) 0.9223(5)
H6_17 H 0.1294 0.9745 0.8689
C17_18 C 0.01102(11) 0.16427(16) 0.9223(5)
H6_18 H 0.0255 0.1548 0.8689
loop_
_geom_bond_atom_site_label_1
_geom_bond_atom_site_label_2
_geom_bond_site_symmetry_1
_geom_bond_site_symmetry_2
O5 C18 1_555 1_555
O7 C19 1_555 1_555
O8 C19 1_555 1_555
F1 C10 1_555 1_555
F4 C11 1_555 1_555
F5 C11 1_555 1_555
F6 C11 1_555 1_555
H3 C5 1_555 1_555
C10 C9 1_555 1_555
C11 C9 1_555 1_555
C12 C9 1_555 1_555
C13 C12 1_555 1_555
H4 C13 1_555 1_555
C14 C13 1_555 1_555
C15 C14 1_555 1_555
C16 C15 1_555 1_555
H5 C16 1_555 1_555
C17 C12 1_555 1_555
H6 C17 1_555 1_555
C18 C14 1_555 1_555
C19 C15 1_555 1_555
Cd4 O4 1_555 1_555
Cd5 O5 1_555 1_555
Cd6 O4 1_555 1_555
Cd8 O7 1_555 1_555
O8 Cd5 1_555 1_555
O8 Cd8 1_555 1_555
C16 C17 1_555 1_555
Cd4 O18 1_555 1_555
Cd4 O1 1_555 1_555
Cd2 O2 1_555 1_555
O1 C7 1_555 1_555
O2 C7 1_555 1_555
O3 C8 1_555 1_555
C1 C2 1_555 1_555
C2 H1 1_555 1_555
C3 C2 1_555 1_555
H2 C3 1_555 1_555
C4 C1 1_555 1_555
C6 C3 1_555 1_555
C7 C1 1_555 1_555
C8 C4 1_555 1_555
O9 Cd2 1_555 1_555
H7 O9 1_555 1_555
H8 O9 1_555 1_555
Cd3 O2 1_555 1_555
Cd8 O6 1_555 1_555
O10 Cd4 1_555 1_555
O11 Cd4 1_555 1_555
O13 Cd2 1_555 1_555
O14 Cd4 1_555 1_555
O15 Cd2 1_555 1_555
O3 Cd3 1_555 1_555
Cd3 O13 1_555 1_555
O5_2 C18_2 1_555 1_555
O7_2 C19_2 1_555 1_555
O8_2 C19_2 1_555 1_555
F1_2 C10_2 1_555 1_555
F4_2 C11_2 1_555 1_555
F5_2 C11_2 1_555 1_555
F6_2 C11_2 1_555 1_555
H3_2 C5_2 1_555 1_555
C10_2 C9_2 1_555 1_555
C11_2 C9_2 1_555 1_555
C12_2 C9_2 1_555 1_555
C13_2 C12_2 1_555 1_555
H4_2 C13_2 1_555 1_555
C14_2 C13_2 1_555 1_555
C15_2 C14_2 1_555 1_555
C16_2 C15_2 1_555 1_555
H5_2 C16_2 1_555 1_555
C17_2 C12_2 1_555 1_555
H6_2 C17_2 1_555 1_555
C18_2 C14_2 1_555 1_555
C19_2 C15_2 1_555 1_555
Cd4_2 O4_2 1_555 1_555
Cd5_2 O5_2 1_555 1_555
Cd8_2 O7_2 1_555 1_555
O8_2 Cd5_2 1_555 1_555
O8_2 Cd8_2 1_555 1_555
C16_2 C17_2 1_555 1_555
Cd4_2 O18_2 1_555 1_555
Cd4_2 O1_2 1_555 1_555
Cd2_2 O2_2 1_555 1_555
O1_2 C7_2 1_555 1_555
O2_2 C7_2 1_555 1_555
O3_2 C8_2 1_555 1_555
C1_2 C2_2 1_555 1_555
C2_2 H1_2 1_555 1_555
C3_2 C2_2 1_555 1_555
H2_2 C3_2 1_555 1_555
C4_2 C1_2 1_555 1_555
C6_2 C3_2 1_555 1_555
C7_2 C1_2 1_555 1_555
C8_2 C4_2 1_555 1_555
Cd8_2 O6_2 1_555 1_555
O14_2 Cd4_2 1_555 1_555
O15_2 Cd2_2 1_555 1_555
H7_2 O9_2 1_555 1_555
H8_2 O9_2 1_555 1_555
Cd3_2 O13_2 1_555 1_555
H7_3 O9_3 1_555 1_555
H8_3 O9_3 1_555 1_555
Cd3_3 O13_3 1_555 1_555
O5_3 C18_3 1_555 1_555
O7_3 C19_3 1_555 1_555
O8_3 C19_3 1_555 1_555
F1_3 C10_3 1_555 1_555
F4_3 C11_3 1_555 1_555
F5_3 C11_3 1_555 1_555
F6_3 C11_3 1_555 1_555
H3_3 C5_3 1_555 1_555
C10_3 C9_3 1_555 1_555
C11_3 C9_3 1_555 1_555
C12_3 C9_3 1_555 1_555
C13_3 C12_3 1_555 1_555
H4_3 C13_3 1_555 1_555
C14_3 C13_3 1_555 1_555
C15_3 C14_3 1_555 1_555
C16_3 C15_3 1_555 1_555
H5_3 C16_3 1_555 1_555
C17_3 C12_3 1_555 1_555
H6_3 C17_3 1_555 1_555
C18_3 C14_3 1_555 1_555
C19_3 C15_3 1_555 1_555
Cd4_3 O4_3 1_555 1_555
Cd5_3 O5_3 1_555 1_555
Cd8_3 O7_3 1_555 1_555
O8_3 Cd5_3 1_555 1_555
O8_3 Cd8_3 1_555 1_555
C16_3 C17_3 1_555 1_555
Cd4_3 O18_3 1_555 1_555
Cd4_3 O1_3 1_555 1_555
Cd2_3 O2_3 1_555 1_555
O1_3 C7_3 1_555 1_555
O2_3 C7_3 1_555 1_555
O3_3 C8_3 1_555 1_555
C1_3 C2_3 1_555 1_555
C2_3 H1_3 1_555 1_555
C3_3 C2_3 1_555 1_555
H2_3 C3_3 1_555 1_555
C4_3 C1_3 1_555 1_555
C6_3 C3_3 1_555 1_555
C7_3 C1_3 1_555 1_555
C8_3 C4_3 1_555 1_555
Cd8_3 O6_3 1_555 1_555
O14_3 Cd4_3 1_555 1_555
O15_3 Cd2_3 1_555 1_555
Cd2_4 O2_4 1_555 1_555
O3_4 C8_4 1_555 1_555
O4_4 C8_4 1_555 1_555
O5_4 C18_4 1_555 1_555
O6_4 C18_4 1_555 1_555
O7_4 C19_4 1_555 1_555
O8_4 C19_4 1_555 1_555
F1_4 C10_4 1_555 1_555
F2_4 C10_4 1_555 1_555
F3_4 C10_4 1_555 1_555
F4_4 C11_4 1_555 1_555
F5_4 C11_4 1_555 1_555
F6_4 C11_4 1_555 1_555
C1_4 C2_4 1_555 1_555
C3_4 C2_4 1_555 1_555
H2_4 C3_4 1_555 1_555
C4_4 C1_4 1_555 1_555
C5_4 C4_4 1_555 1_555
H3_4 C5_4 1_555 1_555
C6_4 C3_4 1_555 1_555
C8_4 C4_4 1_555 1_555
C9_4 C6_4 1_555 1_555
C10_4 C9_4 1_555 1_555
C11_4 C9_4 1_555 1_555
C12_4 C9_4 1_555 1_555
C13_4 C12_4 1_555 1_555
H4_4 C13_4 1_555 1_555
C14_4 C13_4 1_555 1_555
C15_4 C14_4 1_555 1_555
C16_4 C15_4 1_555 1_555
H5_4 C16_4 1_555 1_555
C17_4 C12_4 1_555 1_555
H6_4 C17_4 1_555 1_555
C18_4 C14_4 1_555 1_555
C19_4 C15_4 1_555 1_555
O9_4 Cd2_4 1_555 1_555
H8_4 O9_4 1_555 1_555
Cd3_4 O2_4 1_555 1_555
Cd4_4 O4_4 1_555 1_555
Cd3_3 O5_4 1_555 1_555
Cd6_4 O4_4 1_555 1_555
Cd6_3 O6_4 1_555 1_555
O13_4 Cd2_4 1_555 1_555
O15_4 Cd2_4 1_555 1_555
O16_4 Cd2_4 1_555 1_555
O18_4 Cd2_4 1_555 1_555
O3_4 Cd3_4 1_555 1_555
O8_4 Cd3_3 1_555 1_555
C5_4 C6_4 1_555 1_555
C16_4 C17_4 1_555 1_555
Cd3_4 O13_4 1_555 1_555
Cd4_4 O18_4 1_555 1_555
Cd4_4 O1_4 1_555 1_555
O1_4 C7_4 1_555 1_555
O10_4 Cd4_4 1_555 1_555
O11_4 Cd4_4 1_555 1_555
O14_4 Cd4_4 1_555 1_555
Cd2_5 O2_5 1_555 1_555
O3_5 C8_5 1_555 1_555
O4_5 C8_5 1_555 1_555
O5_5 C18_5 1_555 1_555
O6_5 C18_5 1_555 1_555
O7_5 C19_5 1_555 1_555
O8_5 C19_5 1_555 1_555
F1_5 C10_5 1_555 1_555
F2_5 C10_5 1_555 1_555
F3_5 C10_5 1_555 1_555
F4_5 C11_5 1_555 1_555
F5_5 C11_5 1_555 1_555
F6_5 C11_5 1_555 1_555
C1_5 C2_5 1_555 1_555
C3_5 C2_5 1_555 1_555
H2_5 C3_5 1_555 1_555
C4_5 C1_5 1_555 1_555
C5_5 C4_5 1_555 1_555
H3_5 C5_5 1_555 1_555
C6_5 C3_5 1_555 1_555
C8_5 C4_5 1_555 1_555
C9_5 C6_5 1_555 1_555
C10_5 C9_5 1_555 1_555
C11_5 C9_5 1_555 1_555
C12_5 C9_5 1_555 1_555
C13_5 C12_5 1_555 1_555
H4_5 C13_5 1_555 1_555
C14_5 C13_5 1_555 1_555
C15_5 C14_5 1_555 1_555
C16_5 C15_5 1_555 1_555
H5_5 C16_5 1_555 1_555
C17_5 C12_5 1_555 1_555
H6_5 C17_5 1_555 1_555
C18_5 C14_5 1_555 1_555
C19_5 C15_5 1_555 1_555
O9_5 Cd2_5 1_555 1_555
H8_5 O9_5 1_555 1_555
Cd3_5 O2_5 1_555 1_555
Cd4_5 O4_5 1_555 1_555
Cd3 O5_5 1_555 1_555
Cd6_5 O4_5 1_555 1_555
Cd6 O6_5 1_555 1_555
O13_5 Cd2_5 1_555 1_555
O15_5 Cd2_5 1_555 1_555
O16_5 Cd2_5 1_555 1_555
O18_5 Cd2_5 1_555 1_555
O3_5 Cd3_5 1_555 1_555
O8_5 Cd3 1_555 1_555
C5_5 C6_5 1_555 1_555
C16_5 C17_5 1_555 1_555
Cd3_5 O13_5 1_555 1_555
Cd4_5 O18_5 1_555 1_555
Cd4_5 O1_5 1_555 1_555
O1_5 C7_5 1_555 1_555
O10_5 Cd4_5 1_555 1_555
O11_5 Cd4_5 1_555 1_555
O14_5 Cd4_5 1_555 1_555
Cd2_6 O2_6 1_555 1_555
O3_6 C8_6 1_555 1_555
O4_6 C8_6 1_555 1_555
O5_6 C18_6 1_555 1_555
O6_6 C18_6 1_555 1_555
O7_6 C19_6 1_555 1_555
O8_6 C19_6 1_555 1_555
F1_6 C10_6 1_555 1_555
F2_6 C10_6 1_555 1_555
F3_6 C10_6 1_555 1_555
F4_6 C11_6 1_555 1_555
F5_6 C11_6 1_555 1_555
F6_6 C11_6 1_555 1_555
C1_6 C2_6 1_555 1_555
C3_6 C2_6 1_555 1_555
H2_6 C3_6 1_555 1_555
C4_6 C1_6 1_555 1_555
C5_6 C4_6 1_555 1_555
H3_6 C5_6 1_555 1_555
C6_6 C3_6 1_555 1_555
C8_6 C4_6 1_555 1_555
C9_6 C6_6 1_555 1_555
C10_6 C9_6 1_555 1_555
C11_6 C9_6 1_555 1_555
C12_6 C9_6 1_555 1_555
C13_6 C12_6 1_555 1_555
H4_6 C13_6 1_555 1_555
C14_6 C13_6 1_555 1_555
C15_6 C14_6 1_555 1_555
C16_6 C15_6 1_555 1_555
H5_6 C16_6 1_555 1_555
C17_6 C12_6 1_555 1_555
H6_6 C17_6 1_555 1_555
C18_6 C14_6 1_555 1_555
C19_6 C15_6 1_555 1_555
O9_6 Cd2_6 1_555 1_555
H8_6 O9_6 1_555 1_555
Cd3_6 O2_6 1_555 1_555
Cd4_6 O4_6 1_555 1_555
Cd3_2 O5_6 1_555 1_555
Cd6_6 O4_6 1_555 1_555
Cd6_2 O6_6 1_555 1_555
O13_6 Cd2_6 1_555 1_555
O15_6 Cd2_6 1_555 1_555
O16_6 Cd2_6 1_555 1_555
O18_6 Cd2_6 1_555 1_555
O3_6 Cd3_6 1_555 1_555
O8_6 Cd3_2 1_555 1_555
C5_6 C6_6 1_555 1_555
C16_6 C17_6 1_555 1_555
Cd3_6 O13_6 1_555 1_555
Cd4_6 O18_6 1_555 1_555
Cd4_6 O1_6 1_555 1_555
O1_6 C7_6 1_555 1_555
O10_6 Cd4_6 1_555 1_555
O11_6 Cd4_6 1_555 1_555
O14_6 Cd4_6 1_555 1_555
Cd2_7 O2_7 1_555 1_555
O1_7 C7_7 1_555 1_555
O2_7 C7_7 1_555 1_555
O3_7 C8_7 1_555 1_555
O4_7 C8_7 1_555 1_555
F2_7 C10_7 1_555 1_555
F4_7 C11_7 1_555 1_555
F5_7 C11_7 1_555 1_555
F6_7 C11_7 1_555 1_555
C1_7 C2_7 1_555 1_555
C2_7 H1_7 1_555 1_555
C3_7 C2_7 1_555 1_555
H2_7 C3_7 1_555 1_555
C4_7 C1_7 1_555 1_555
C5_7 C4_7 1_555 1_555
H3_7 C5_7 1_555 1_555
C6_7 C3_7 1_555 1_555
C7_7 C1_7 1_555 1_555
C8_7 C4_7 1_555 1_555
C9_7 C6_7 1_555 1_555
C10_7 C9_7 1_555 1_555
C11_7 C9_7 1_555 1_555
C12_7 C9_7 1_555 1_555
O9_7 Cd2_7 1_555 1_555
H7_7 O9_7 1_555 1_555
H8_7 O9_7 1_555 1_555
Cd5_2 O2_7 1_555 1_555
Cd4_7 O4_7 1_555 1_555
Cd8_2 O4_7 1_555 1_555
O13_7 Cd2_7 1_555 1_555
O15_7 Cd2_7 1_555 1_555
O16_7 Cd2_7 1_555 1_555
O18_7 Cd2_7 1_555 1_555
O3_7 Cd5_2 1_555 1_555
C5_7 C6_7 1_555 1_555
Cd5_2 O13_7 1_555 1_555
Cd4_7 O18_7 1_555 1_555
O10_7 Cd4_7 1_555 1_555
O11_7 Cd4_7 1_555 1_555
O7_7 C19_7 1_555 1_555
O8_7 C19_7 1_555 1_555
C16_7 C15_7 1_555 1_555
H5_7 C16_7 1_555 1_555
C19_7 C15_7 1_555 1_555
Cd6_6 O7_7 1_555 1_555
O8_7 Cd3_6 1_555 1_555
O8_7 Cd6_6 1_555 1_555
O5_7 C18_7 1_555 1_555
O6_7 C18_7 1_555 1_555
H4_7 C13_7 1_555 1_555
C14_7 C13_7 1_555 1_555
C18_7 C14_7 1_555 1_555
Cd6_6 O6_7 1_555 1_555
O7_8 C19_8 1_555 1_555
O8_8 C19_8 1_555 1_555
C16_8 C15_8 1_555 1_555
H5_8 C16_8 1_555 1_555
C19_8 C15_8 1_555 1_555
Cd6_4 O7_8 1_555 1_555
O8_8 Cd3_4 1_555 1_555
O8_8 Cd6_4 1_555 1_555
O5_8 C18_8 1_555 1_555
O6_8 C18_8 1_555 1_555
H4_8 C13_8 1_555 1_555
C14_8 C13_8 1_555 1_555
C18_8 C14_8 1_555 1_555
Cd6_4 O6_8 1_555 1_555
Cd2_8 O2_8 1_555 1_555
O1_8 C7_8 1_555 1_555
O2_8 C7_8 1_555 1_555
O3_8 C8_8 1_555 1_555
O4_8 C8_8 1_555 1_555
F2_8 C10_8 1_555 1_555
F4_8 C11_8 1_555 1_555
F5_8 C11_8 1_555 1_555
F6_8 C11_8 1_555 1_555
C1_8 C2_8 1_555 1_555
C2_8 H1_8 1_555 1_555
C3_8 C2_8 1_555 1_555
H2_8 C3_8 1_555 1_555
C4_8 C1_8 1_555 1_555
C5_8 C4_8 1_555 1_555
H3_8 C5_8 1_555 1_555
C6_8 C3_8 1_555 1_555
C7_8 C1_8 1_555 1_555
C8_8 C4_8 1_555 1_555
C9_8 C6_8 1_555 1_555
C10_8 C9_8 1_555 1_555
C11_8 C9_8 1_555 1_555
C12_8 C9_8 1_555 1_555
O9_8 Cd2_8 1_555 1_555
H7_8 O9_8 1_555 1_555
H8_8 O9_8 1_555 1_555
Cd5_3 O2_8 1_555 1_555
Cd4_8 O4_8 1_555 1_555
Cd8_3 O4_8 1_555 1_555
O13_8 Cd2_8 1_555 1_555
O15_8 Cd2_8 1_555 1_555
O16_8 Cd2_8 1_555 1_555
O18_8 Cd2_8 1_555 1_555
O3_8 Cd5_3 1_555 1_555
C5_8 C6_8 1_555 1_555
Cd5_3 O13_8 1_555 1_555
Cd4_8 O18_8 1_555 1_555
O10_8 Cd4_8 1_555 1_555
O11_8 Cd4_8 1_555 1_555
O7_9 C19_9 1_555 1_555
O8_9 C19_9 1_555 1_555
C16_9 C15_9 1_555 1_555
H5_9 C16_9 1_555 1_555
H6_7 C17_7 1_555 1_555
C19_9 C15_9 1_555 1_555
Cd6_5 O7_9 1_555 1_555
O8_9 Cd3_5 1_555 1_555
O8_9 Cd6_5 1_555 1_555
C16_9 C17_7 1_555 1_555
Cd2_9 O2_9 1_555 1_555
O1_9 C7_9 1_555 1_555
O2_9 C7_9 1_555 1_555
O3_9 C8_9 1_555 1_555
O4_9 C8_9 1_555 1_555
O5_9 C18_9 1_555 1_555
O6_9 C18_9 1_555 1_555
F1_9 C10_9 1_555 1_555
F2_9 C10_9 1_555 1_555
F3_9 C10_9 1_555 1_555
F4_9 C11_9 1_555 1_555
F5_9 C11_9 1_555 1_555
F6_9 C11_9 1_555 1_555
C1_9 C2_9 1_555 1_555
C2_9 H1_9 1_555 1_555
C3_9 C2_9 1_555 1_555
H2_9 C3_9 1_555 1_555
C4_9 C1_9 1_555 1_555
C5_9 C4_9 1_555 1_555
H3_9 C5_9 1_555 1_555
C6_9 C3_9 1_555 1_555
C7_9 C1_9 1_555 1_555
C8_9 C4_9 1_555 1_555
C9_9 C6_9 1_555 1_555
C10_9 C9_9 1_555 1_555
C11_9 C9_9 1_555 1_555
C12_9 C9_9 1_555 1_555
C13_9 C12_9 1_555 1_555
H4_9 C13_9 1_555 1_555
C14_9 C13_9 1_555 1_555
C18_9 C14_9 1_555 1_555
O9_9 Cd2_9 1_555 1_555
H7_9 O9_9 1_555 1_555
H8_9 O9_9 1_555 1_555
Cd5 O2_9 1_555 1_555
Cd4_9 O4_9 1_555 1_555
Cd8 O4_9 1_555 1_555
Cd6_5 O6_9 1_555 1_555
O13_9 Cd2_9 1_555 1_555
O15_9 Cd2_9 1_555 1_555
O16_9 Cd2_9 1_555 1_555
O18_9 Cd2_9 1_555 1_555
O3_9 Cd5 1_555 1_555
C5_9 C6_9 1_555 1_555
Cd5 O13_9 1_555 1_555
Cd4_9 O18_9 1_555 1_555
O10_9 Cd4_9 1_555 1_555
O11_9 Cd4_9 1_555 1_555
Cd3 O1_10 1_555 1_555
Cd6 O10 1_555 1_555
O1_10 C7_10 1_555 1_555
O10 C7_10 1_555 1_555
O11 C8_10 1_555 1_555
C1_10 C2_10 1_555 1_555
C2_10 H1_10 1_555 1_555
C3_10 C2_10 1_555 1_555
H2_10 C3_10 1_555 1_555
C4_10 C1_10 1_555 1_555
C6_10 C3_10 1_555 1_555
C7_10 C1_10 1_555 1_555
C8_10 C4_10 1_555 1_555
O9_10 Cd6 1_555 1_555
H7_10 O9_10 1_555 1_555
H8_10 O9_10 1_555 1_555
O14_6 C18_10 1_555 1_555
O16_6 C19_10 1_555 1_555
O18_6 C19_10 1_555 1_555
F1_10 C10_10 1_555 1_555
F4_10 C11_10 1_555 1_555
F5_10 C11_10 1_555 1_555
F6_10 C11_10 1_555 1_555
H3_10 C5_10 1_555 1_555
C10_10 C9_10 1_555 1_555
C11_10 C9_10 1_555 1_555
C12_10 C9_10 1_555 1_555
C13_10 C12_10 1_555 1_555
H4_10 C13_10 1_555 1_555
C14_10 C13_10 1_555 1_555
C15_10 C14_10 1_555 1_555
C16_10 C15_10 1_555 1_555
H5_10 C16_10 1_555 1_555
C17_8 C12_10 1_555 1_555
H6_8 C17_8 1_555 1_555
C18_10 C14_10 1_555 1_555
C19_10 C15_10 1_555 1_555
C16_10 C17_8 1_555 1_555
H7_11 O9_11 1_555 1_555
H8_11 O9_11 1_555 1_555
Cd3_2 O1_11 1_555 1_555
Cd6_2 O10_2 1_555 1_555
O1_11 C7_11 1_555 1_555
O10_2 C7_11 1_555 1_555
O11_2 C8_11 1_555 1_555
C1_11 C2_11 1_555 1_555
C2_11 H1_11 1_555 1_555
C3_11 C2_11 1_555 1_555
H2_11 C3_11 1_555 1_555
C4_11 C1_11 1_555 1_555
C6_11 C3_11 1_555 1_555
C7_11 C1_11 1_555 1_555
C8_11 C4_11 1_555 1_555
O14_4 C18_11 1_555 1_555
O16_4 C19_11 1_555 1_555
O18_4 C19_11 1_555 1_555
F1_11 C10_11 1_555 1_555
F4_11 C11_11 1_555 1_555
F5_11 C11_11 1_555 1_555
F6_11 C11_11 1_555 1_555
H3_11 C5_11 1_555 1_555
C10_11 C9_11 1_555 1_555
C11_11 C9_11 1_555 1_555
C12_11 C9_11 1_555 1_555
C13_11 C12_11 1_555 1_555
H4_11 C13_11 1_555 1_555
C14_11 C13_11 1_555 1_555
C15_11 C14_11 1_555 1_555
C16_11 C15_11 1_555 1_555
H5_11 C16_11 1_555 1_555
C17_9 C12_11 1_555 1_555
H6_9 C17_9 1_555 1_555
C18_11 C14_11 1_555 1_555
C19_11 C15_11 1_555 1_555
C16_11 C17_9 1_555 1_555
Cd3_3 O1_12 1_555 1_555
Cd6_3 O10_3 1_555 1_555
O1_12 C7_12 1_555 1_555
O10_3 C7_12 1_555 1_555
O11_3 C8_12 1_555 1_555
C1_12 C2_12 1_555 1_555
C2_12 H1_12 1_555 1_555
C3_12 C2_12 1_555 1_555
H2_12 C3_12 1_555 1_555
C4_12 C1_12 1_555 1_555
C6_12 C3_12 1_555 1_555
C7_12 C1_12 1_555 1_555
C8_12 C4_12 1_555 1_555
O14_5 C18_12 1_555 1_555
O16_5 C19_12 1_555 1_555
O18_5 C19_12 1_555 1_555
F1_12 C10_12 1_555 1_555
F4_12 C11_12 1_555 1_555
F5_12 C11_12 1_555 1_555
F6_12 C11_12 1_555 1_555
H3_12 C5_12 1_555 1_555
C10_12 C9_12 1_555 1_555
C11_12 C9_12 1_555 1_555
C12_12 C9_12 1_555 1_555
C13_12 C12_12 1_555 1_555
H4_12 C13_12 1_555 1_555
C14_12 C13_12 1_555 1_555
C15_12 C14_12 1_555 1_555
C16_12 C15_12 1_555 1_555
H5_12 C16_12 1_555 1_555
C17_10 C12_12 1_555 1_555
H6_10 C17_10 1_555 1_555
C18_12 C14_12 1_555 1_555
C19_12 C15_12 1_555 1_555
C16_12 C17_10 1_555 1_555
H7_12 O9_12 1_555 1_555
H8_12 O9_12 1_555 1_555
Cd5_2 O1_13 1_555 1_555
O1_13 C7_13 1_555 1_555
Cd8_2 O10_7 1_555 1_555
O11_7 C8_13 1_555 1_555
O13_7 C8_13 1_555 1_555
O14_3 C18_13 1_555 1_555
O15_3 C18_13 1_555 1_555
O16_3 C19_13 1_555 1_555
O18_3 C19_13 1_555 1_555
F1_13 C10_13 1_555 1_555
F2_13 C10_13 1_555 1_555
F3_13 C10_13 1_555 1_555
F4_13 C11_13 1_555 1_555
F5_13 C11_13 1_555 1_555
F6_13 C11_13 1_555 1_555
C1_13 C2_13 1_555 1_555
C3_13 C2_13 1_555 1_555
H2_13 C3_13 1_555 1_555
C4_13 C1_13 1_555 1_555
C5_13 C4_13 1_555 1_555
H3_13 C5_13 1_555 1_555
C6_13 C3_13 1_555 1_555
C8_13 C4_13 1_555 1_555
C9_13 C6_13 1_555 1_555
C10_13 C9_13 1_555 1_555
C11_13 C9_13 1_555 1_555
C12_13 C9_13 1_555 1_555
C13_13 C12_13 1_555 1_555
H4_13 C13_13 1_555 1_555
C14_13 C13_13 1_555 1_555
C15_13 C14_13 1_555 1_555
C16_13 C15_13 1_555 1_555
H5_13 C16_13 1_555 1_555
C17_11 C12_13 1_555 1_555
H6_11 C17_11 1_555 1_555
C18_13 C14_13 1_555 1_555
C19_13 C15_13 1_555 1_555
O9_13 Cd8_2 1_555 1_555
H8_13 O9_13 1_555 1_555
C5_13 C6_13 1_555 1_555
C16_13 C17_11 1_555 1_555
Cd5_3 O1_14 1_555 1_555
O1_14 C7_14 1_555 1_555
Cd8_3 O10_8 1_555 1_555
O11_8 C8_14 1_555 1_555
O13_8 C8_14 1_555 1_555
O14 C18_14 1_555 1_555
O15 C18_14 1_555 1_555
O16 C19_14 1_555 1_555
O18 C19_14 1_555 1_555
F1_14 C10_14 1_555 1_555
F2_14 C10_14 1_555 1_555
F3_14 C10_14 1_555 1_555
F4_14 C11_14 1_555 1_555
F5_14 C11_14 1_555 1_555
F6_14 C11_14 1_555 1_555
C1_14 C2_14 1_555 1_555
C3_14 C2_14 1_555 1_555
H2_14 C3_14 1_555 1_555
C4_14 C1_14 1_555 1_555
C5_14 C4_14 1_555 1_555
H3_14 C5_14 1_555 1_555
C6_14 C3_14 1_555 1_555
C8_14 C4_14 1_555 1_555
C9_14 C6_14 1_555 1_555
C10_14 C9_14 1_555 1_555
C11_14 C9_14 1_555 1_555
C12_14 C9_14 1_555 1_555
C13_14 C12_14 1_555 1_555
H4_14 C13_14 1_555 1_555
C14_14 C13_14 1_555 1_555
C15_14 C14_14 1_555 1_555
C16_14 C15_14 1_555 1_555
H5_14 C16_14 1_555 1_555
C17_12 C12_14 1_555 1_555
H6_12 C17_12 1_555 1_555
C18_14 C14_14 1_555 1_555
C19_14 C15_14 1_555 1_555
O9_14 Cd8_3 1_555 1_555
H8_14 O9_14 1_555 1_555
C5_14 C6_14 1_555 1_555
C16_14 C17_12 1_555 1_555
Cd5 O1_15 1_555 1_555
O1_15 C7_15 1_555 1_555
Cd8 O10_9 1_555 1_555
O11_9 C8_15 1_555 1_555
O13_9 C8_15 1_555 1_555
O14_2 C18_15 1_555 1_555
O15_2 C18_15 1_555 1_555
O16_2 C19_15 1_555 1_555
O18_2 C19_15 1_555 1_555
F1_15 C10_15 1_555 1_555
F2_15 C10_15 1_555 1_555
F3_15 C10_15 1_555 1_555
F4_15 C11_15 1_555 1_555
F5_15 C11_15 1_555 1_555
F6_15 C11_15 1_555 1_555
C1_15 C2_15 1_555 1_555
C3_15 C2_15 1_555 1_555
H2_15 C3_15 1_555 1_555
C4_15 C1_15 1_555 1_555
C5_15 C4_15 1_555 1_555
H3_15 C5_15 1_555 1_555
C6_15 C3_15 1_555 1_555
C8_15 C4_15 1_555 1_555
C9_15 C6_15 1_555 1_555
C10_15 C9_15 1_555 1_555
C11_15 C9_15 1_555 1_555
C12_15 C9_15 1_555 1_555
C13_15 C12_15 1_555 1_555
H4_15 C13_15 1_555 1_555
C14_15 C13_15 1_555 1_555
C15_15 C14_15 1_555 1_555
C16_15 C15_15 1_555 1_555
H5_15 C16_15 1_555 1_555
C17_13 C12_15 1_555 1_555
H6_13 C17_13 1_555 1_555
C18_15 C14_15 1_555 1_555
C19_15 C15_15 1_555 1_555
O9_15 Cd8 1_555 1_555
H8_15 O9_15 1_555 1_555
C5_15 C6_15 1_555 1_555
C16_15 C17_13 1_555 1_555
O14_9 C18_16 1_555 1_555
O15_9 C18_16 1_555 1_555
H4_16 C13_16 1_555 1_555
C14_16 C13_16 1_555 1_555
C18_16 C14_16 1_555 1_555
O16_9 C19_16 1_555 1_555
O18_9 C19_16 1_555 1_555
C16_16 C15_16 1_555 1_555
H5_16 C16_16 1_555 1_555
C19_16 C15_16 1_555 1_555
Cd6_4 O10_4 1_555 1_555
O1_16 C7_16 1_555 1_555
O10_4 C7_16 1_555 1_555
O11_4 C8_16 1_555 1_555
O13_4 C8_16 1_555 1_555
F2_16 C10_16 1_555 1_555
F4_16 C11_16 1_555 1_555
F5_16 C11_16 1_555 1_555
F6_16 C11_16 1_555 1_555
C1_16 C2_16 1_555 1_555
C2_16 H1_16 1_555 1_555
C3_16 C2_16 1_555 1_555
H2_16 C3_16 1_555 1_555
C4_16 C1_16 1_555 1_555
C5_16 C4_16 1_555 1_555
H3_16 C5_16 1_555 1_555
C6_16 C3_16 1_555 1_555
C7_16 C1_16 1_555 1_555
C8_16 C4_16 1_555 1_555
C9_16 C6_16 1_555 1_555
C10_16 C9_16 1_555 1_555
C11_16 C9_16 1_555 1_555
C12_16 C9_16 1_555 1_555
O9_16 Cd6_4 1_555 1_555
H7_16 O9_16 1_555 1_555
H8_16 O9_16 1_555 1_555
C5_16 C6_16 1_555 1_555
Cd6_5 O10_5 1_555 1_555
O1_17 C7_17 1_555 1_555
O10_5 C7_17 1_555 1_555
O11_5 C8_17 1_555 1_555
O13_5 C8_17 1_555 1_555
F2_17 C10_17 1_555 1_555
F4_17 C11_17 1_555 1_555
F5_17 C11_17 1_555 1_555
F6_17 C11_17 1_555 1_555
C1_17 C2_17 1_555 1_555
C2_17 H1_17 1_555 1_555
C3_17 C2_17 1_555 1_555
H2_17 C3_17 1_555 1_555
C4_17 C1_17 1_555 1_555
C5_17 C4_17 1_555 1_555
H3_17 C5_17 1_555 1_555
C6_17 C3_17 1_555 1_555
C7_17 C1_17 1_555 1_555
C8_17 C4_17 1_555 1_555
C9_17 C6_17 1_555 1_555
C10_17 C9_17 1_555 1_555
C11_17 C9_17 1_555 1_555
C12_17 C9_17 1_555 1_555
O9_17 Cd6_5 1_555 1_555
H7_17 O9_17 1_555 1_555
H8_17 O9_17 1_555 1_555
C5_17 C6_17 1_555 1_555
O14_7 C18_17 1_555 1_555
O15_7 C18_17 1_555 1_555
H4_17 C13_17 1_555 1_555
C14_17 C13_17 1_555 1_555
C18_17 C14_17 1_555 1_555
O16_7 C19_17 1_555 1_555
O18_7 C19_17 1_555 1_555
C16_17 C15_17 1_555 1_555
H5_17 C16_17 1_555 1_555
C19_17 C15_17 1_555 1_555
Cd6_6 O10_6 1_555 1_555
O1_18 C7_18 1_555 1_555
O10_6 C7_18 1_555 1_555
O11_6 C8_18 1_555 1_555
O13_6 C8_18 1_555 1_555
O14_8 C18_18 1_555 1_555
O15_8 C18_18 1_555 1_555
F1_18 C10_18 1_555 1_555
F2_18 C10_18 1_555 1_555
F3_18 C10_18 1_555 1_555
F4_18 C11_18 1_555 1_555
F5_18 C11_18 1_555 1_555
F6_18 C11_18 1_555 1_555
C1_18 C2_18 1_555 1_555
C2_18 H1_18 1_555 1_555
C3_18 C2_18 1_555 1_555
H2_18 C3_18 1_555 1_555
C4_18 C1_18 1_555 1_555
C5_18 C4_18 1_555 1_555
H3_18 C5_18 1_555 1_555
C6_18 C3_18 1_555 1_555
C7_18 C1_18 1_555 1_555
C8_18 C4_18 1_555 1_555
C9_18 C6_18 1_555 1_555
C10_18 C9_18 1_555 1_555
C11_18 C9_18 1_555 1_555
C12_18 C9_18 1_555 1_555
C13_18 C12_18 1_555 1_555
H4_18 C13_18 1_555 1_555
C14_18 C13_18 1_555 1_555
C18_18 C14_18 1_555 1_555
O9_18 Cd6_6 1_555 1_555
H7_18 O9_18 1_555 1_555
H8_18 O9_18 1_555 1_555
C5_18 C6_18 1_555 1_555
O16_8 C19_18 1_555 1_555
O18_8 C19_18 1_555 1_555
C16_18 C15_18 1_555 1_555
H5_18 C16_18 1_555 1_555
H6_14 C17_14 1_555 1_555
C19_18 C15_18 1_555 1_555
C16_18 C17_14 1_555 1_555
H6_15 C17_15 1_555 1_555
H6_16 C17_16 1_555 1_555
H6_17 C17_17 1_555 1_555
H6_18 C17_18 1_555 1_555

#END
