
###############################################################################
#
# This file contains modified crystal structure data generated from the
# MOF subset of the Cambridge Structural Database (CSD) v543 
# hosted by the Cambridge Crystallographic Data Centre (CCDC).
#
# This work is licensed under the Creative Commons
# Attribution-NonCommercial-ShareAlike 4.0 International License.
# To view a copy of this license, visit
# http://creativecommons.org/licenses/by-nc-sa/4.0/
# or send a letter to
# Creative Commons, PO Box 1866, Mountain View, CA 94042, USA.
#
# CIF created using the CSD Python API on 29 September 2022
# The structure has been converted into the P1 space group
# The structure has a 3D framework
# The original CSD entry AJUHOF is in the monoclinic crystal system
# The framework has been calculated to contain at least 10.0% void space
# The void calculation uses a probe of radius 1.32A, grid spacing 0.4
# H atom positions have been added when not included in the experimental data
#
###############################################################################

data_AJUHOF
_chemical_formula_moiety         '(C256 H448 Na16 O212 Sn48)n'
_symmetry_cell_setting           triclinic
_symmetry_space_group_name_H-M   'P 1'
_symmetry_Int_Tables_number      1
_space_group_name_Hall           'P 1'
loop_
_symmetry_equiv_pos_site_id
_symmetry_equiv_pos_as_xyz
1 x,y,z
_cell_length_a                   24.882(13)
_cell_length_b                   46.40(2)
_cell_length_c                   20.773(13)
_cell_angle_alpha                90
_cell_angle_beta                 123.969(8)
_cell_angle_gamma                90
_cell_volume                     19890
loop_
_atom_site_label
_atom_site_type_symbol
_atom_site_fract_x
_atom_site_fract_y
_atom_site_fract_z
Sn1 Sn 0.03047(10) 0.74534(4) 0.16517(10)
Sn2 Sn 0.24949(10) 0.49624(4) 0.26933(11)
Sn3 Sn 0.08617(7) 0.75455(4) 0.34816(8)
Sn4 Sn 0.26134(13) 0.55550(5) 0.14168(12)
Sn6 Sn 0.14188(11) 0.80944(4) 0.29936(12)
Sn7 Sn 0.20530(10) 0.47740(4) 0.06404(9)
Sn8 Sn 0.41205(11) 0.52283(5) 0.45150(12)
Sn9 Sn 0.36729(10) 0.50362(4) 0.24551(10)
Sn10 Sn 0.21452(9) 0.73421(5) 0.30583(11)
Sn12 Sn 0.35615(12) 0.44436(5) 0.37434(12)
Na1 Na 0.3874(7) 0.3880(2) 0.1436(7)
Na2 Na 0.2311(6) 0.6137(3) 0.3730(6)
Na3 Na 0.4093(6) 0.6490(2) 0.5142(7)
Na4 Na 0.2068(6) 0.3517(2) 0.0008(6)
O4 O 0.0325(9) 0.7256(4) 0.2600(9)
O5 O 0.0842(9) 0.7736(4) 0.2591(9)
O6 O 0.1408(10) 0.7961(4) 0.3984(11)
O7 O 0.2126(10) 0.7801(4) 0.3083(12)
O8 O 0.1239(10) 0.7241(4) 0.2121(11)
O9 O 0.3127(9) 0.5203(4) 0.3784(10)
O10 O 0.4129(9) 0.5277(4) 0.3536(10)
O11 O 0.4108(11) 0.4751(4) 0.4590(10)
O12 O 0.2553(9) 0.4583(4) 0.3533(10)
O13 O 0.3380(9) 0.4774(4) 0.2988(9)
O14 O 0.2811(9) 0.5226(4) 0.2138(9)
O15 O 0.3539(7) 0.5412(3) 0.1797(7)
O16 O 0.2034(11) 0.5221(4) 0.0572(11)
O17 O 0.2055(10) 0.4689(4) 0.1682(10)
O18 O 0.3056(9) 0.4808(4) 0.1386(9)
O24 O 0.0572(9) 0.8351(4) 0.2656(9)
O25 O 0.0215(10) 0.8377(4) 0.0761(10)
O26 O 0.1085(9) 0.8201(4) 0.1840(11)
O27 O 0.0118(9) 0.6803(4) 0.3351(11)
O28 O 0.0954(10) 0.6588(4) 0.4417(10)
O29 O 0.0617(10) 0.6653(4) 0.2538(10)
O30 O 0.1471(9) 0.6442(4) 0.3615(11)
O31 O 0.3111(9) 0.7320(3) 0.4260(11)
O32 O 0.3787(8) 0.7013(4) 0.5088(10)
O33 O 0.2255(9) 0.6886(4) 0.3342(11)
O34 O 0.2962(10) 0.6562(4) 0.4215(11)
O35 O 0.3801(10) 0.6015(3) 0.5198(10)
O36 O 0.3949(10) 0.5682(4) 0.4524(10)
O37 O 0.3696(10) 0.5591(4) 0.6029(10)
O38 O 0.3892(10) 0.5265(3) 0.5406(10)
O39 O 0.4306(10) 0.4311(4) 0.3594(11)
O40 O 0.4505(10) 0.4095(4) 0.2810(11)
O43 O 0.2183(10) 0.4319(4) 0.0559(9)
O45 O 0.2024(9) 0.3666(3) 0.1106(8)
O46 O 0.4069(10) 0.6471(4) 0.3814(11)
C1 C 0.022(2) 0.7588(8) 0.0610(19)
H2 H 0.061510 0.769035 0.075828
C2 C 0.0109(19) 0.7350(7) 0.003(2)
H4 H 0.045398 0.720772 0.028066
H8 H 0.106853 0.759405 0.000105
C5 C 0.1560(14) 0.5078(9) 0.249(3)
H10 H 0.164785 0.513553 0.298858
H11 H 0.141696 0.525078 0.217043
C6 C 0.0979(15) 0.4879(7) 0.213(2)
H12 H 0.098633 0.476831 0.252807
H13 H 0.099163 0.474517 0.177625
C7 C 0.0359(15) 0.5061(10) 0.168(2)
H14 H 0.005317 0.497669 0.117475
H15 H 0.045914 0.525530 0.160516
C8 C 0.0069(19) 0.5066(11) 0.217(3)
H18 H 0.037649 0.515004 0.267164
C9 C 0.0948(14) 0.7354(6) 0.4482(14)
H19 H 0.072646 0.716980 0.432683
H20 H 0.140266 0.731624 0.486678
C10 C 0.0696(11) 0.7520(6) 0.4849(13)
H21 H 0.024594 0.756901 0.446725
H22 H 0.093868 0.769825 0.505253
C11 C 0.0749(14) 0.7341(6) 0.5532(15)
H23 H 0.046567 0.741911 0.567160
H24 H 0.064268 0.714001 0.539090
C12 C 0.1453(16) 0.7377(8) 0.6187(16)
H25 H 0.153611 0.727448 0.663585
H26 H 0.172255 0.730076 0.603139
H27 H 0.154697 0.757760 0.630983
C13 C 0.2571(13) 0.5896(5) 0.0642(14)
H28 H 0.300697 0.596506 0.085030
H29 H 0.240602 0.581318 0.013543
C14 C 0.2138(14) 0.6154(5) 0.0548(14)
H30 H 0.236787 0.627545 0.100640
H31 H 0.174702 0.608431 0.049322
C16 C 0.196(2) 0.6644(5) 0.001(2)
H35 H 0.164730 0.667580 0.013560
H36 H 0.238194 0.669704 0.044101
C21 C 0.5188(15) 0.5199(7) 0.523(2)
H46 H 0.534553 0.506472 0.565671
H47 H 0.535644 0.514528 0.492237
C22 C 0.5350(16) 0.5510(7) 0.551(2)
H48 H 0.515349 0.563588 0.505968
H49 H 0.515958 0.555466 0.579557
C23 C 0.6055(16) 0.5570(7) 0.601(2)
H50 H 0.625935 0.552233 0.573739
H51 H 0.625804 0.545704 0.648085
C24 C 0.6127(19) 0.5895(7) 0.620(3)
H52 H 0.657810 0.594355 0.652204
H53 H 0.592385 0.600353 0.572477
H54 H 0.592255 0.593857 0.646448
C25 C 0.4535(13) 0.4835(9) 0.264(3)
H55 H 0.455372 0.463613 0.279388
H56 H 0.450886 0.483569 0.215621
C26 C 0.5157(15) 0.4990(8) 0.326(2)
H57 H 0.508501 0.519650 0.323094
H58 H 0.528576 0.492604 0.377651
C27 C 0.5689(15) 0.4919(8) 0.313(2)
H59 H 0.550721 0.490702 0.258079
H60 H 0.588900 0.473595 0.337009
C28 C 0.6197(17) 0.5166(8) 0.351(3)
H61 H 0.653958 0.512825 0.343510
H62 H 0.599321 0.534573 0.326686
H63 H 0.637326 0.517544 0.405257
C33 C 0.3440(15) 0.3836(5) 0.4259(13)
H73 H 0.298044 0.387775 0.397972
H74 H 0.353235 0.376617 0.389019
H76 H 0.081715 0.485515 0.003085
C36 C 0.2704(14) 0.7397(6) 0.2585(15)
H79 H 0.267730 0.759428 0.241476
H80 H 0.315528 0.735038 0.296701
C37 C 0.2420(14) 0.7194(7) 0.1910(16)
H81 H 0.205186 0.727926 0.144436
H82 H 0.229050 0.701375 0.202001
C38 C 0.3054(15) 0.7150(7) 0.1833(18)
H83 H 0.346228 0.714386 0.233719
H84 H 0.300908 0.697725 0.154284
C39 C 0.2984(15) 0.7432(7) 0.137(2)
H85 H 0.332161 0.743751 0.128120
H86 H 0.256974 0.743225 0.088531
H87 H 0.301795 0.759703 0.167091
C40 C 0.3845(13) 0.4119(5) 0.4666(14)
H88 H 0.430508 0.407914 0.494507
H89 H 0.375182 0.419118 0.503280
C41 C 0.3629(16) 0.3605(5) 0.4890(16)
H90 H 0.409527 0.357755 0.521279
H91 H 0.348244 0.366026 0.521808
C42 C 0.328(2) 0.3323(6) 0.442(2)
H92 H 0.337191 0.316858 0.477665
H93 H 0.281779 0.335588 0.410327
H94 H 0.342647 0.327373 0.409802
C44 C 0.0246(11) 0.8415(6) 0.1944(12)
C45 C 0.0521(11) 0.8314(6) 0.1465(11)
C46 C 0.0625(11) 0.6648(6) 0.3711(12)
C47 C 0.0937(11) 0.6571(6) 0.3250(12)
C48 C 0.3296(10) 0.7062(4) 0.4447(12)
C49 C 0.2784(11) 0.6819(4) 0.3960(13)
C50 C 0.3886(16) 0.5765(4) 0.5068(15)
C51 C 0.3850(15) 0.5524(4) 0.5563(14)
C52 C 0.4091(13) 0.4168(6) 0.2956(13)
C54 C 0.2276(15) 0.4239(4) 0.0038(13)
C55 C 0.2152(16) 0.8434(5) 0.3660(19)
H95 H 0.222864 0.843995 0.417151
H96 H 0.255259 0.836973 0.372989
C56 C 0.2043(12) 0.8743(5) 0.3369(17)
H97 H 0.170120 0.883121 0.339301
H98 H 0.191830 0.874727 0.283593
C57 C 0.2709(15) 0.8910(6) 0.3918(17)
H99 H 0.271899 0.900526 0.434063
H100 H 0.307555 0.877991 0.413194
C58 C 0.3384(18) 0.4086(6) 0.2525(18)
C59 C 0.2733(18) 0.5942(6) 0.2631(19)
O47 O 0.3110(9) 0.4165(4) 0.2805(9)
O48 O 0.2990(10) 0.6072(4) 0.3275(10)
O49 O 0.3160(10) 0.5841(4) 0.2476(10)
O50 O 0.3289(9) 0.3894(4) 0.2042(9)
O51 O 0.1821(10) 0.5663(4) 0.1527(11)
O52 O 0.1701(12) 0.5918(5) 0.2389(13)
C60 C 0.2011(15) 0.5834(7) 0.2105(15)
O53 O 0.1769(8) 0.7360(4) 0.3741(10)
C64 C 0.2709(19) 0.9132(8) 0.336(2)
H106 H 0.309703 0.924547 0.364031
H107 H 0.269160 0.903194 0.294486
H108 H 0.233794 0.925546 0.315186
Na5 Na 0.3874(7) 0.6120(2) 0.6436(7)
Na9 Na 0.2068(6) 0.6483(2) 0.5008(6)
O55 O 0.2370(8) 0.3006(4) 0.0042(9)
O56 O 0.3229(10) 0.3430(4) 0.0927(11)
O57 O 0.4751(9) 0.3571(4) 0.1632(11)
O58 O 0.4751(9) 0.6429(4) 0.6632(11)
O59 O 0.5215(10) 0.6623(4) 0.5761(10)
O62 O 0.3801(10) 0.3985(3) 0.0198(10)
O63 O 0.3696(10) 0.4409(4) 0.1029(10)
O64 O 0.2483(10) 0.5574(4) 0.4107(9)
O65 O 0.2271(10) 0.6012(3) 0.4837(10)
H109 H 0.167291 0.381005 0.0928778
H110 H 0.193599 0.349548 0.13224
H111 H 0.438792 0.661073 0.385214
H112 H 0.418201 0.62737 0.37424
O41 O 0.2213(10) 0.4743(3) 0.9722(9)
O42 O 0.2483(10) 0.4426(4) 0.9107(9)
O44 O 0.2271(10) 0.3988(3) 0.9837(10)
C3 C 0.0098(17) 0.7489(9) 0.9355(16)
C4 C 0.0784(18) 0.7488(10) 0.953(2)
H7 H 0.077900 0.757538 0.911081
H9 H 0.093476 0.729255 0.959784
C15 C 0.1956(16) 0.6333(5) 0.9820(14)
H32 H 0.226787 0.629906 0.968807
H33 H 0.153029 0.627773 0.938144
H34 H 0.184707 0.675963 0.956567
C34 C 0.1007(13) 0.4725(6) 0.9844(13)
H75 H 0.090895 0.453165 0.992653
C35 C 0.0618(13) 0.4767(6) 0.8969(14)
H77 H 0.081950 0.466457 0.874846
H78 H 0.058921 0.496938 0.884011
C53 C 0.2335(14) 0.4490(4) 0.9575(13)
H105 H 0.020833 0.422708 0.857522
Na7 Na 0.2311(6) 0.3863(3) 0.8730(6)
O60 O 0.0954(10) 0.3412(4) 0.9417(10)
O61 O 0.1471(9) 0.3558(4) 0.8615(11)
Na3_2 Na 0.4093(6) 0.3510(2) 0.0142(7)
O32_2 O 0.3787(8) 0.2987(4) 0.0088(10)
O38_2 O 0.3892(10) 0.4735(3) 0.0406(10)
H22_2 H 0.093868 0.230175 0.005253
C11_2 C 0.0749(14) 0.2659(6) 0.0532(15)
H23_2 H 0.046567 0.258089 0.067160
H24_2 H 0.064268 0.285999 0.039090
C12_2 C 0.1453(16) 0.2623(8) 0.1187(16)
H25_2 H 0.153611 0.272552 0.163585
H26_2 H 0.172255 0.269924 0.103139
H27_2 H 0.154697 0.242240 0.130983
C21_2 C 0.5188(15) 0.4801(7) 0.023(2)
H46_2 H 0.534553 0.493528 0.065671
C22_2 C 0.5350(16) 0.4490(7) 0.051(2)
H48_2 H 0.515349 0.436412 0.005968
H49_2 H 0.515958 0.444534 0.079557
C23_2 C 0.6055(16) 0.4430(7) 0.101(2)
H50_2 H 0.625935 0.447767 0.073739
H51_2 H 0.625804 0.454296 0.148085
C24_2 C 0.6127(19) 0.4105(7) 0.120(3)
H52_2 H 0.657810 0.405645 0.152204
H53_2 H 0.592385 0.399647 0.072477
H54_2 H 0.592255 0.406143 0.146448
H89_2 H 0.375182 0.580882 0.003280
H90_2 H 0.409527 0.642245 0.021279
H91_2 H 0.348244 0.633974 0.021808
C50_2 C 0.3886(16) 0.4235(4) 0.0068(15)
C51_2 C 0.3850(15) 0.4476(4) 0.0563(14)
O59_2 O 0.5215(10) 0.3377(4) 0.0761(10)
Sn1_2 Sn 0.03047(10) 0.25466(4) 0.66517(10)
Sn2_2 Sn 0.24949(10) 0.50376(4) 0.76933(11)
Sn3_2 Sn 0.08617(7) 0.24545(4) 0.84816(8)
Sn4_2 Sn 0.26134(13) 0.44450(5) 0.64168(12)
Sn6_2 Sn 0.14188(11) 0.19056(4) 0.79936(12)
Sn7_2 Sn 0.20530(10) 0.52260(4) 0.56404(9)
Sn8_2 Sn 0.41205(11) 0.47717(5) 0.95150(12)
Sn9_2 Sn 0.36729(10) 0.49638(4) 0.74551(10)
Sn10_2 Sn 0.21452(9) 0.26579(5) 0.80583(11)
Sn12_2 Sn 0.35615(12) 0.55564(5) 0.87434(12)
O4_2 O 0.0325(9) 0.2744(4) 0.7600(9)
O5_2 O 0.0842(9) 0.2264(4) 0.7591(9)
O6_2 O 0.1408(10) 0.2039(4) 0.8984(11)
O7_2 O 0.2126(10) 0.2199(4) 0.8083(12)
O8_2 O 0.1239(10) 0.2759(4) 0.7121(11)
O9_2 O 0.3127(9) 0.4797(4) 0.8784(10)
O10_2 O 0.4129(9) 0.4723(4) 0.8536(10)
O11_2 O 0.4108(11) 0.5249(4) 0.9590(10)
O12_2 O 0.2553(9) 0.5417(4) 0.8533(10)
O13_2 O 0.3380(9) 0.5226(4) 0.7988(9)
O14_2 O 0.2811(9) 0.4774(4) 0.7138(9)
O15_2 O 0.3539(7) 0.4588(3) 0.6797(7)
O16_2 O 0.2034(11) 0.4779(4) 0.5572(11)
O17_2 O 0.2055(10) 0.5311(4) 0.6682(10)
O18_2 O 0.3056(9) 0.5192(4) 0.6386(9)
O24_2 O 0.0572(9) 0.1649(4) 0.7656(9)
O25_2 O 0.0215(10) 0.1623(4) 0.5761(10)
O26_2 O 0.1085(9) 0.1799(4) 0.6840(11)
O27_2 O 0.0118(9) 0.3197(4) 0.8351(11)
O29_2 O 0.0617(10) 0.3347(4) 0.7538(10)
O31_2 O 0.3111(9) 0.2680(3) 0.9260(11)
O33_2 O 0.2255(9) 0.3114(4) 0.8342(11)
O34_2 O 0.2962(10) 0.3438(4) 0.9215(11)
O36_2 O 0.3949(10) 0.4318(4) 0.9524(10)
O39_2 O 0.4306(10) 0.5689(4) 0.8594(11)
O40_2 O 0.4505(10) 0.5905(4) 0.7810(11)
O41_2 O 0.2213(10) 0.5257(3) 0.4722(9)
O43_2 O 0.2183(10) 0.5681(4) 0.5559(9)
O45_2 O 0.2024(9) 0.6334(3) 0.6106(8)
O46_2 O 0.4069(10) 0.3529(4) 0.8814(11)
C1_2 C 0.022(2) 0.2412(8) 0.5610(19)
H2_2 H 0.061510 0.230965 0.575828
C2_2 C 0.0109(19) 0.2650(7) 0.503(2)
H4_2 H 0.045398 0.279228 0.528066
C3_2 C 0.0098(17) 0.2511(9) 0.4355(16)
C4_2 C 0.0784(18) 0.2512(10) 0.453(2)
H7_2 H 0.077900 0.242462 0.411081
H8_2 H 0.106853 0.240595 0.500105
H9_2 H 0.093476 0.270745 0.459784
C5_2 C 0.1560(14) 0.4922(9) 0.749(3)
H10_2 H 0.164785 0.486447 0.798858
H11_2 H 0.141696 0.474922 0.717043
C6_2 C 0.0979(15) 0.5121(7) 0.713(2)
H12_2 H 0.098633 0.523169 0.752807
H13_2 H 0.099163 0.525483 0.677625
C7_2 C 0.0359(15) 0.4939(10) 0.668(2)
H14_2 H 0.005317 0.502331 0.617475
H15_2 H 0.045914 0.474470 0.660516
C8_2 C 0.0069(19) 0.4934(11) 0.717(3)
H18_2 H 0.037649 0.484996 0.767164
C9_2 C 0.0948(14) 0.2646(6) 0.9482(14)
H19_2 H 0.072646 0.283020 0.932683
H20_2 H 0.140266 0.268376 0.986678
C10_2 C 0.0696(11) 0.2480(6) 0.9849(13)
H21_2 H 0.024594 0.243099 0.946725
C13_2 C 0.2571(13) 0.4104(5) 0.5642(14)
H28_2 H 0.300697 0.403494 0.585030
H29_2 H 0.240602 0.418682 0.513543
C14_2 C 0.2138(14) 0.3846(5) 0.5548(14)
H30_2 H 0.236787 0.372455 0.600640
H31_2 H 0.174702 0.391569 0.549322
C15_2 C 0.1956(16) 0.3667(5) 0.4820(14)
H32_2 H 0.226787 0.370094 0.468807
H33_2 H 0.153029 0.372227 0.438144
C16_2 C 0.196(2) 0.3356(5) 0.501(2)
H34_2 H 0.184707 0.324037 0.456567
H35_2 H 0.164730 0.332420 0.513560
H36_2 H 0.238194 0.330296 0.544101
H47_2 H 0.535644 0.485472 0.992237
C25_2 C 0.4535(13) 0.5165(9) 0.764(3)
H55_2 H 0.455372 0.536387 0.779388
H56_2 H 0.450886 0.516431 0.715621
C26_2 C 0.5157(15) 0.5010(8) 0.826(2)
H57_2 H 0.508501 0.480350 0.823094
H58_2 H 0.528576 0.507396 0.877651
C27_2 C 0.5689(15) 0.5081(8) 0.813(2)
H59_2 H 0.550721 0.509298 0.758079
H60_2 H 0.588900 0.526405 0.837009
C28_2 C 0.6197(17) 0.4834(8) 0.851(3)
H61_2 H 0.653958 0.487175 0.843510
H62_2 H 0.599321 0.465427 0.826686
H63_2 H 0.637326 0.482456 0.905257
C33_2 C 0.3440(15) 0.6164(5) 0.9259(13)
H73_2 H 0.298044 0.612225 0.897972
H74_2 H 0.353235 0.623383 0.889019
C34_2 C 0.1007(13) 0.5275(6) 0.4844(13)
H75_2 H 0.090895 0.546835 0.492653
H76_2 H 0.081715 0.514485 0.503085
C35_2 C 0.0618(13) 0.5233(6) 0.3969(14)
H77_2 H 0.081950 0.533543 0.374846
H78_2 H 0.058921 0.503062 0.384011
C36_2 C 0.2704(14) 0.2603(6) 0.7585(15)
H79_2 H 0.267730 0.240572 0.741476
H80_2 H 0.315528 0.264962 0.796701
C37_2 C 0.2420(14) 0.2806(7) 0.6910(16)
H81_2 H 0.205186 0.272074 0.644436
H82_2 H 0.229050 0.298625 0.702001
C38_2 C 0.3054(15) 0.2850(7) 0.6833(18)
H83_2 H 0.346228 0.285614 0.733719
H84_2 H 0.300908 0.302275 0.654284
C39_2 C 0.2984(15) 0.2568(7) 0.637(2)
H85_2 H 0.332161 0.256249 0.628120
H86_2 H 0.256974 0.256775 0.588531
H87_2 H 0.301795 0.240297 0.667091
C40_2 C 0.3845(13) 0.5881(5) 0.9666(14)
H88_2 H 0.430508 0.592086 0.994507
C41_2 C 0.3629(16) 0.6395(5) 0.9890(16)
C42_2 C 0.328(2) 0.6677(6) 0.942(2)
H92_2 H 0.337191 0.683142 0.977665
H93_2 H 0.281779 0.664412 0.910327
H94_2 H 0.342647 0.672627 0.909802
C44_2 C 0.0246(11) 0.1585(6) 0.6944(12)
C45_2 C 0.0521(11) 0.1686(6) 0.6465(11)
C46_2 C 0.0625(11) 0.3352(6) 0.8711(12)
C47_2 C 0.0937(11) 0.3429(6) 0.8250(12)
C48_2 C 0.3296(10) 0.2938(4) 0.9447(12)
C49_2 C 0.2784(11) 0.3181(4) 0.8960(13)
C52_2 C 0.4091(13) 0.5832(6) 0.7956(13)
C53_2 C 0.2335(14) 0.5510(4) 0.4575(13)
C54_2 C 0.2276(15) 0.5761(4) 0.5038(13)
C55_2 C 0.2152(16) 0.1566(5) 0.8660(19)
H95_2 H 0.222864 0.156005 0.917151
H96_2 H 0.255259 0.163027 0.872989
C56_2 C 0.2043(12) 0.1257(5) 0.8369(17)
H97_2 H 0.170120 0.116879 0.839301
H98_2 H 0.191830 0.125273 0.783593
C57_2 C 0.2709(15) 0.1090(6) 0.8918(17)
H99_2 H 0.271899 0.099474 0.934063
H100_2 H 0.307555 0.122009 0.913194
C58_2 C 0.3384(18) 0.5914(6) 0.7525(18)
C59_2 C 0.2733(18) 0.4058(6) 0.7631(19)
O47_2 O 0.3110(9) 0.5835(4) 0.7805(9)
O48_2 O 0.2990(10) 0.3928(4) 0.8275(10)
O49_2 O 0.3160(10) 0.4159(4) 0.7476(10)
O50_2 O 0.3289(9) 0.6106(4) 0.7042(9)
O51_2 O 0.1821(10) 0.4337(4) 0.6527(11)
O52_2 O 0.1701(12) 0.4082(5) 0.7389(13)
C60_2 C 0.2011(15) 0.4166(7) 0.7105(15)
O53_2 O 0.1769(8) 0.2640(4) 0.8741(10)
H105_2 H 0.020833 0.577292 0.357522
C64_2 C 0.2709(19) 0.0868(8) 0.836(2)
H106_2 H 0.309703 0.075453 0.864031
H107_2 H 0.269160 0.096806 0.794486
H108_2 H 0.233794 0.074454 0.815186
O55_2 O 0.2370(8) 0.6994(4) 0.5042(9)
O56_2 O 0.3229(10) 0.6570(4) 0.5927(11)
H109_2 H 0.167291 0.618995 0.592878
H110_2 H 0.193599 0.650452 0.63224
H111_2 H 0.438792 0.338927 0.885214
H112_2 H 0.418201 0.37263 0.87424
Sn5 Sn 0.90271(10) 0.23424(5) 0.70822(11)
Sn11 Sn 0.97451(10) 0.30958(5) 0.71467(12)
O1 O 0.9060(10) 0.2802(4) 0.7054(13)
O2 O 0.9967(8) 0.2240(4) 0.8068(10)
O3 O 0.9783(10) 0.2934(4) 0.6219(11)
O19 O 0.7370(8) 0.1994(4) 0.5042(9)
O20 O 0.8123(9) 0.2313(4) 0.5962(10)
O21 O 0.8229(10) 0.1570(4) 0.5927(11)
O22 O 0.8892(8) 0.1894(4) 0.6816(9)
O23 O 0.9751(9) 0.1429(4) 0.6632(11)
H1 H 0.986677 0.227586 0.534231
H3 H 0.970074 0.274715 0.483590
H5 H 0.980804 0.261654 0.387945
H6 H 0.994218 0.231419 0.428380
H16 H 0.967858 0.482142 0.691335
H17 H 0.997248 0.512723 0.724331
C17 C 0.8500(14) 0.2306(5) 0.7705(12)
H37 H 0.847429 0.210321 0.780301
H38 H 0.806033 0.237511 0.735666
C18 C 0.8813(12) 0.2470(5) 0.8482(12)
H39 H 0.926203 0.251506 0.868868
H40 H 0.858262 0.264920 0.840862
C19 C 0.8763(19) 0.2262(7) 0.9058(14)
H41 H 0.903483 0.209337 0.918226
H42 H 0.831956 0.219997 0.882827
C20 C 0.8997(16) 0.2442(7) 0.9772(14)
H44 H 0.872425 0.260790 0.963496
H45 H 0.943480 0.250200 0.998662
C29 C 0.903(3) 0.3451(11) 0.672(3)
H64 H 0.860441 0.336832 0.633799
H65 H 0.912535 0.358438 0.643731
C30 C 0.8956(19) 0.3625(10) 0.728(2)
H66 H 0.897238 0.349941 0.766389
H67 H 0.930699 0.376364 0.754889
C31 C 0.8289(19) 0.3787(11) 0.681(2)
H68 H 0.826491 0.391348 0.642519
H69 H 0.793192 0.365100 0.655610
C32 C 0.828(2) 0.3959(11) 0.744(3)
H70 H 0.788312 0.406665 0.719925
H71 H 0.864069 0.409003 0.768541
H72 H 0.831023 0.382954 0.781532
C43 C 0.7893(10) 0.2074(4) 0.5616(11)
O54 O 0.9408(9) 0.2360(4) 0.6410(10)
C61 C 0.8360(12) 0.1808(5) 0.6151(13)
C62 C 0.9923(12) 0.5361(7) 0.3650(17)
H101 H 0.987540 0.540126 0.407347
H102 H 0.958850 0.522580 0.329733
C63 C 0.9873(18) 0.5642(7) 0.322(2)
H103 H 0.945750 0.572933 0.301168
H104 H 0.992304 0.559845 0.280346
Na6 Na 0.8874(7) 0.1120(2) 0.6436(7)
Na8 Na 0.9093(6) 0.1490(2) 0.5142(7)
Na10 Na 0.7068(6) 0.1483(2) 0.5008(6)
C21_3 C 0.0188(15) 0.0199(7) 0.523(2)
H46_3 H 0.034553 0.006472 0.565671
H47_3 H 0.035644 0.014528 0.492237
C22_3 C 0.0350(16) 0.0510(7) 0.551(2)
H48_3 H 0.015349 0.063588 0.505968
H49_3 H 0.015958 0.055466 0.579557
C23_3 C 0.1055(16) 0.0570(7) 0.601(2)
H50_3 H 0.125935 0.052233 0.573739
H51_3 H 0.125804 0.045704 0.648085
C24_3 C 0.1127(19) 0.0895(7) 0.620(3)
H52_3 H 0.157810 0.094355 0.652204
H53_3 H 0.092385 0.100353 0.572477
H54_3 H 0.092255 0.093857 0.646448
H57_3 H 0.008501 0.019650 0.323094
C28_3 C 0.1197(17) 0.0166(8) 0.351(3)
H61_3 H 0.153958 0.012825 0.343510
H62_3 H 0.099321 0.034573 0.326686
H63_3 H 0.137326 0.017544 0.405257
Sn1_3 Sn 0.53047(10) 0.24534(4) 0.16517(10)
Sn3_3 Sn 0.58617(7) 0.25455(4) 0.34816(8)
Sn4_3 Sn 0.76134(13) 0.05550(5) 0.14168(12)
Sn5_2 Sn 0.40271(10) 0.26576(5) 0.20822(11)
Sn6_3 Sn 0.64188(11) 0.30944(4) 0.29936(12)
Sn8_3 Sn 0.91205(11) 0.02283(5) 0.45150(12)
Sn9_3 Sn 0.86729(10) 0.00362(4) 0.24551(10)
Sn10_3 Sn 0.71452(9) 0.23421(5) 0.30583(11)
Sn11_2 Sn 0.47451(10) 0.19042(5) 0.21467(12)
Na2_2 Na 0.7311(6) 0.1137(3) 0.3730(6)
O1_2 O 0.4060(10) 0.2198(4) 0.2054(13)
O2_2 O 0.4967(8) 0.2760(4) 0.3068(10)
O3_2 O 0.4783(10) 0.2066(4) 0.1219(11)
O4_3 O 0.5325(9) 0.2256(4) 0.2600(9)
O5_3 O 0.5842(9) 0.2736(4) 0.2591(9)
O6_3 O 0.6408(10) 0.2961(4) 0.3984(11)
O7_3 O 0.7126(10) 0.2801(4) 0.3083(12)
O8_3 O 0.6239(10) 0.2241(4) 0.2121(11)
O9_3 O 0.8127(9) 0.0203(4) 0.3784(10)
O10_3 O 0.9129(9) 0.0277(4) 0.3536(10)
O14_3 O 0.7811(9) 0.0226(4) 0.2138(9)
O15_3 O 0.8539(7) 0.0412(3) 0.1797(7)
O16_3 O 0.7034(11) 0.0221(4) 0.0572(11)
O20_2 O 0.3123(9) 0.2687(4) 0.0962(10)
O22_2 O 0.3892(8) 0.3106(4) 0.1816(9)
O24_3 O 0.5572(9) 0.3351(4) 0.2656(9)
O26_3 O 0.6085(9) 0.3201(4) 0.1840(11)
O27_3 O 0.5118(9) 0.1803(4) 0.3351(11)
O28_2 O 0.5954(10) 0.1588(4) 0.4417(10)
O29_3 O 0.5617(10) 0.1653(4) 0.2538(10)
O30_2 O 0.6471(9) 0.1442(4) 0.3615(11)
O31_3 O 0.8111(9) 0.2320(3) 0.4260(11)
O32_3 O 0.8787(8) 0.2013(4) 0.5088(10)
O33_3 O 0.7255(9) 0.1886(4) 0.3342(11)
O34_3 O 0.7962(10) 0.1562(4) 0.4215(11)
O35_2 O 0.8801(10) 0.1015(3) 0.5198(10)
O36_3 O 0.8949(10) 0.0682(4) 0.4524(10)
O37_2 O 0.8696(10) 0.0591(4) 0.6029(10)
O38_3 O 0.8892(10) 0.0265(3) 0.5406(10)
O46_3 O 0.9069(10) 0.1471(4) 0.3814(11)
C1_3 C 0.522(2) 0.2588(8) 0.0610(19)
H1_2 H 0.486677 0.272414 0.034231
H2_3 H 0.561510 0.269035 0.075828
C2_3 C 0.5109(19) 0.2350(7) 0.003(2)
H4_3 H 0.545398 0.220772 0.028066
H8_3 H 0.606853 0.259405 0.000105
C5_3 C 0.6560(14) 0.0078(9) 0.249(3)
H10_3 H 0.664785 0.013553 0.298858
H11_3 H 0.641696 0.025078 0.217043
C7_3 C 0.5359(15) 0.0061(10) 0.168(2)
H15_3 H 0.545914 0.025530 0.160516
C8_3 C 0.5069(19) 0.0066(11) 0.217(3)
H16_2 H 0.467858 0.017858 0.191335
H18_3 H 0.537649 0.015004 0.267164
C9_3 C 0.5948(14) 0.2354(6) 0.4482(14)
H19_3 H 0.572646 0.216980 0.432683
H20_3 H 0.640266 0.231624 0.486678
C10_3 C 0.5696(11) 0.2520(6) 0.4849(13)
H21_3 H 0.524594 0.256901 0.446725
H22_3 H 0.593868 0.269825 0.505253
C11_3 C 0.5749(14) 0.2341(6) 0.5532(15)
H23_3 H 0.546567 0.241911 0.567160
H24_3 H 0.564268 0.214001 0.539090
C12_3 C 0.6453(16) 0.2377(8) 0.6187(16)
H25_3 H 0.653611 0.227448 0.663585
H26_3 H 0.672255 0.230076 0.603139
H27_3 H 0.654697 0.257760 0.630983
C13_3 C 0.7571(13) 0.0896(5) 0.0642(14)
H28_3 H 0.800697 0.096506 0.085030
H29_3 H 0.740602 0.081318 0.013543
C14_3 C 0.7138(14) 0.1154(5) 0.0548(14)
H30_3 H 0.736787 0.127545 0.100640
H31_3 H 0.674702 0.108431 0.049322
C16_3 C 0.696(2) 0.1644(5) 0.001(2)
H35_3 H 0.664730 0.167580 0.013560
H36_3 H 0.738194 0.169704 0.044101
C17_2 C 0.3500(14) 0.2694(5) 0.2705(12)
H37_2 H 0.347429 0.289679 0.280301
H38_2 H 0.306033 0.262489 0.235666
C18_2 C 0.3813(12) 0.2530(5) 0.3482(12)
H39_2 H 0.426203 0.248494 0.368868
H40_2 H 0.358262 0.235080 0.340862
C19_2 C 0.3763(19) 0.2738(7) 0.4058(14)
H41_2 H 0.403483 0.290663 0.418226
H42_2 H 0.331956 0.280003 0.382827
C20_2 C 0.3997(16) 0.2558(7) 0.4772(14)
H43 H 0.398065 0.267096 0.514823
H44_2 H 0.372425 0.239210 0.463496
H45_2 H 0.443480 0.249800 0.498662
C29_2 C 0.403(3) 0.1549(11) 0.172(3)
H64_2 H 0.360441 0.163168 0.133799
H65_2 H 0.412535 0.141562 0.143731
C30_2 C 0.3956(19) 0.1375(10) 0.228(2)
H66_2 H 0.397238 0.150059 0.266389
H67_2 H 0.430699 0.123636 0.254889
C31_2 C 0.3289(19) 0.1213(11) 0.181(2)
H68_2 H 0.326491 0.108652 0.142519
H69_2 H 0.293192 0.134900 0.155610
C32_2 C 0.328(2) 0.1041(11) 0.244(3)
H70_2 H 0.288312 0.093335 0.219925
H71_2 H 0.364069 0.090997 0.268541
H72_2 H 0.331023 0.117046 0.281532
C36_3 C 0.7704(14) 0.2397(6) 0.2585(15)
H79_3 H 0.767730 0.259428 0.241476
H80_3 H 0.815528 0.235038 0.296701
C37_3 C 0.7420(14) 0.2194(7) 0.1910(16)
H81_3 H 0.705186 0.227926 0.144436
H82_3 H 0.729050 0.201375 0.202001
C38_3 C 0.8054(15) 0.2150(7) 0.1833(18)
H83_3 H 0.846228 0.214386 0.233719
H84_3 H 0.800908 0.197725 0.154284
C39_3 C 0.7984(15) 0.2432(7) 0.137(2)
H85_3 H 0.832161 0.243751 0.128120
H86_3 H 0.756974 0.243225 0.088531
H87_3 H 0.801795 0.259703 0.167091
C43_2 C 0.2893(10) 0.2926(4) 0.0616(11)
C44_3 C 0.5246(11) 0.3415(6) 0.1944(12)
C45_3 C 0.5521(11) 0.3314(6) 0.1465(11)
C46_3 C 0.5625(11) 0.1648(6) 0.3711(12)
C47_3 C 0.5937(11) 0.1571(6) 0.3250(12)
C48_3 C 0.8296(10) 0.2062(4) 0.4447(12)
C49_3 C 0.7784(11) 0.1819(4) 0.3960(13)
C50_3 C 0.8886(16) 0.0765(4) 0.5068(15)
C51_3 C 0.8850(15) 0.0524(4) 0.5563(14)
C55_3 C 0.7152(16) 0.3434(5) 0.3660(19)
H95_3 H 0.722864 0.343995 0.417151
H96_3 H 0.755259 0.336973 0.372989
C56_3 C 0.7043(12) 0.3743(5) 0.3369(17)
H97_3 H 0.670120 0.383121 0.339301
H98_3 H 0.691830 0.374727 0.283593
C57_3 C 0.7709(15) 0.3910(6) 0.3918(17)
H99_3 H 0.771899 0.400526 0.434063
H100_3 H 0.807555 0.377991 0.413194
C59_3 C 0.7733(18) 0.0942(6) 0.2631(19)
O48_3 O 0.7990(10) 0.1072(4) 0.3275(10)
O49_3 O 0.8160(10) 0.0841(4) 0.2476(10)
O51_3 O 0.6821(10) 0.0663(4) 0.1527(11)
O52_3 O 0.6701(12) 0.0918(5) 0.2389(13)
C60_3 C 0.7011(15) 0.0834(7) 0.2105(15)
O53_3 O 0.6769(8) 0.2360(4) 0.3741(10)
O54_2 O 0.4408(9) 0.2640(4) 0.1410(10)
C61_2 C 0.3360(12) 0.3192(5) 0.1151(13)
C64_3 C 0.7709(19) 0.4132(8) 0.336(2)
H106_3 H 0.809703 0.424547 0.364031
H107_3 H 0.769160 0.403194 0.294486
H108_3 H 0.733794 0.425546 0.315186
O64_2 O 0.7483(10) 0.0574(4) 0.4107(9)
O65_2 O 0.7271(10) 0.1012(3) 0.4837(10)
H111_3 H 0.938792 0.161073 0.385214
H112_3 H 0.918201 0.12737 0.37424
O41_3 O 0.7213(10) 0.9743(3) 0.9722(9)
O42_2 O 0.7483(10) 0.9426(4) 0.9107(9)
O44_2 O 0.7271(10) 0.8988(3) 0.9837(10)
C34_3 C 0.6007(13) 0.9725(6) 0.9844(13)
H75_3 H 0.590895 0.953165 0.992653
C35_3 C 0.5618(13) 0.9767(6) 0.8969(14)
H77_3 H 0.581950 0.966457 0.874846
H78_3 H 0.558921 0.996938 0.884011
C53_3 C 0.7335(14) 0.9490(4) 0.9575(13)
C62_2 C 0.4923(12) 0.9639(7) 0.8650(17)
H101_2 H 0.487540 0.959874 0.907347
H102_2 H 0.458850 0.977420 0.829733
C63_2 C 0.4873(18) 0.9358(7) 0.822(2)
H103_2 H 0.445750 0.927067 0.801168
H104_2 H 0.492304 0.940155 0.780346
H105_3 H 0.520833 0.922708 0.857522
Na7_2 Na 0.7311(6) 0.8863(3) 0.8730(6)
O60_2 O 0.5954(10) 0.8412(4) 0.9417(10)
O61_2 O 0.6471(9) 0.8558(4) 0.8615(11)
C21_4 C 0.0188(15) 0.9801(7) 0.023(2)
H46_4 H 0.034553 0.993528 0.065671
C22_4 C 0.0350(16) 0.9490(7) 0.051(2)
H48_4 H 0.015349 0.936412 0.005968
H49_4 H 0.015958 0.944534 0.079557
C23_4 C 0.1055(16) 0.9430(7) 0.101(2)
H50_4 H 0.125935 0.947767 0.073739
H51_4 H 0.125804 0.954296 0.148085
C24_4 C 0.1127(19) 0.9105(7) 0.120(3)
H52_4 H 0.157810 0.905645 0.152204
H53_4 H 0.092385 0.899647 0.072477
H54_4 H 0.092255 0.906143 0.146448
Sn2_3 Sn 0.74949(10) 0.00376(4) 0.76933(11)
Sn7_3 Sn 0.70530(10) 0.02260(4) 0.56404(9)
Sn12_3 Sn 0.85615(12) 0.05564(5) 0.87434(12)
O11_3 O 0.9108(11) 0.0249(4) 0.9590(10)
O12_3 O 0.7553(9) 0.0417(4) 0.8533(10)
O13_3 O 0.8380(9) 0.0226(4) 0.7988(9)
O17_3 O 0.7055(10) 0.0311(4) 0.6682(10)
O18_3 O 0.8056(9) 0.0192(4) 0.6386(9)
O39_3 O 0.9306(10) 0.0689(4) 0.8594(11)
O40_3 O 0.9505(10) 0.0905(4) 0.7810(11)
O41_4 O 0.7213(10) 0.0257(3) 0.4722(9)
O43_3 O 0.7183(10) 0.0681(4) 0.5559(9)
O45_3 O 0.7024(9) 0.1334(3) 0.6106(8)
C6_3 C 0.5979(15) 0.0121(7) 0.713(2)
H12_3 H 0.598633 0.023169 0.752807
H13_3 H 0.599163 0.025483 0.677625
H14_3 H 0.505317 0.002331 0.617475
H17_2 H 0.497248 0.012723 0.724331
C25_3 C 0.9535(13) 0.0165(9) 0.764(3)
H55_3 H 0.955372 0.036387 0.779388
H56_3 H 0.950886 0.016431 0.715621
C33_3 C 0.8440(15) 0.1164(5) 0.9259(13)
H73_3 H 0.798044 0.112225 0.897972
H74_3 H 0.853235 0.123383 0.889019
C34_4 C 0.6007(13) 0.0275(6) 0.4844(13)
H75_4 H 0.590895 0.046835 0.492653
H76_3 H 0.581715 0.014485 0.503085
C35_4 C 0.5618(13) 0.0233(6) 0.3969(14)
H77_4 H 0.581950 0.033543 0.374846
H78_4 H 0.558921 0.003062 0.384011
C40_3 C 0.8845(13) 0.0881(5) 0.9666(14)
H88_3 H 0.930508 0.092086 0.994507
C41_3 C 0.8629(16) 0.1395(5) 0.9890(16)
C42_3 C 0.828(2) 0.1677(6) 0.942(2)
H92_3 H 0.837191 0.183142 0.977665
H93_3 H 0.781779 0.164412 0.910327
H94_3 H 0.842647 0.172627 0.909802
C52_3 C 0.9091(13) 0.0832(6) 0.7956(13)
C53_4 C 0.7335(14) 0.0510(4) 0.4575(13)
C54_3 C 0.7276(15) 0.0761(4) 0.5038(13)
C58_3 C 0.8384(18) 0.0914(6) 0.7525(18)
O47_3 O 0.8110(9) 0.0835(4) 0.7805(9)
O50_3 O 0.8289(9) 0.1106(4) 0.7042(9)
C62_3 C 0.4923(12) 0.0361(7) 0.3650(17)
H101_3 H 0.487540 0.040126 0.407347
H102_3 H 0.458850 0.022580 0.329733
C63_3 C 0.4873(18) 0.0642(7) 0.322(2)
H103_3 H 0.445750 0.072933 0.301168
H104_3 H 0.492304 0.059845 0.280346
H105_4 H 0.520833 0.077292 0.357522
H109_3 H 0.667291 0.118995 0.592878
H110_3 H 0.693599 0.150452 0.63224
Sn1_4 Sn 0.53047(10) 0.75466(4) 0.66517(10)
Sn3_4 Sn 0.58617(7) 0.74545(4) 0.84816(8)
Sn4_4 Sn 0.76134(13) 0.94450(5) 0.64168(12)
Sn5_3 Sn 0.40271(10) 0.73424(5) 0.70822(11)
Sn6_4 Sn 0.64188(11) 0.69056(4) 0.79936(12)
Sn8_4 Sn 0.91205(11) 0.97717(5) 0.95150(12)
Sn9_4 Sn 0.86729(10) 0.99638(4) 0.74551(10)
Sn10_4 Sn 0.71452(9) 0.76579(5) 0.80583(11)
Sn11_3 Sn 0.47451(10) 0.80958(5) 0.71467(12)
O1_3 O 0.4060(10) 0.7802(4) 0.7054(13)
O2_3 O 0.4967(8) 0.7240(4) 0.8068(10)
O3_3 O 0.4783(10) 0.7934(4) 0.6219(11)
O4_4 O 0.5325(9) 0.7744(4) 0.7600(9)
O5_4 O 0.5842(9) 0.7264(4) 0.7591(9)
O6_4 O 0.6408(10) 0.7039(4) 0.8984(11)
O7_4 O 0.7126(10) 0.7199(4) 0.8083(12)
O8_4 O 0.6239(10) 0.7759(4) 0.7121(11)
O9_4 O 0.8127(9) 0.9797(4) 0.8784(10)
O10_4 O 0.9129(9) 0.9723(4) 0.8536(10)
O14_4 O 0.7811(9) 0.9774(4) 0.7138(9)
O15_4 O 0.8539(7) 0.9588(3) 0.6797(7)
O16_4 O 0.7034(11) 0.9779(4) 0.5572(11)
O20_3 O 0.3123(9) 0.7313(4) 0.5962(10)
O22_3 O 0.3892(8) 0.6894(4) 0.6816(9)
O24_4 O 0.5572(9) 0.6649(4) 0.7656(9)
O26_4 O 0.6085(9) 0.6799(4) 0.6840(11)
O27_4 O 0.5118(9) 0.8197(4) 0.8351(11)
O29_4 O 0.5617(10) 0.8347(4) 0.7538(10)
O31_4 O 0.8111(9) 0.7680(3) 0.9260(11)
O33_4 O 0.7255(9) 0.8114(4) 0.8342(11)
O34_4 O 0.7962(10) 0.8438(4) 0.9215(11)
O36_4 O 0.8949(10) 0.9318(4) 0.9524(10)
O46_4 O 0.9069(10) 0.8529(4) 0.8814(11)
C1_4 C 0.522(2) 0.7412(8) 0.5610(19)
H1_3 H 0.486677 0.727586 0.534231
H2_4 H 0.561510 0.730965 0.575828
C2_4 C 0.5109(19) 0.7650(7) 0.503(2)
H3_2 H 0.470074 0.774715 0.483590
H4_4 H 0.545398 0.779228 0.528066
C3_3 C 0.5098(17) 0.7511(9) 0.4355(16)
H5_2 H 0.480804 0.761654 0.387945
H6_2 H 0.494218 0.731419 0.428380
C4_3 C 0.5784(18) 0.7512(10) 0.453(2)
H7_3 H 0.577900 0.742462 0.411081
H8_4 H 0.606853 0.740595 0.500105
H9_3 H 0.593476 0.770745 0.459784
C5_4 C 0.6560(14) 0.9922(9) 0.749(3)
H10_4 H 0.664785 0.986447 0.798858
H11_4 H 0.641696 0.974922 0.717043
C7_4 C 0.5359(15) 0.9939(10) 0.668(2)
H15_4 H 0.545914 0.974470 0.660516
C8_4 C 0.5069(19) 0.9934(11) 0.717(3)
H16_3 H 0.467858 0.982142 0.691335
H18_4 H 0.537649 0.984996 0.767164
C9_4 C 0.5948(14) 0.7646(6) 0.9482(14)
H19_4 H 0.572646 0.783020 0.932683
H20_4 H 0.640266 0.768376 0.986678
C10_4 C 0.5696(11) 0.7480(6) 0.9849(13)
H21_4 H 0.524594 0.743099 0.946725
C13_4 C 0.7571(13) 0.9104(5) 0.5642(14)
H28_4 H 0.800697 0.903494 0.585030
H29_4 H 0.740602 0.918682 0.513543
C14_4 C 0.7138(14) 0.8846(5) 0.5548(14)
H30_4 H 0.736787 0.872455 0.600640
H31_4 H 0.674702 0.891569 0.549322
C15_3 C 0.6956(16) 0.8667(5) 0.4820(14)
H32_3 H 0.726787 0.870094 0.468807
H33_3 H 0.653029 0.872227 0.438144
C16_4 C 0.696(2) 0.8356(5) 0.501(2)
H34_3 H 0.684707 0.824037 0.456567
H35_4 H 0.664730 0.832420 0.513560
H36_4 H 0.738194 0.830296 0.544101
C17_3 C 0.3500(14) 0.7306(5) 0.7705(12)
H37_3 H 0.347429 0.710321 0.780301
H38_3 H 0.306033 0.737511 0.735666
C18_3 C 0.3813(12) 0.7470(5) 0.8482(12)
H39_3 H 0.426203 0.751506 0.868868
H40_3 H 0.358262 0.764920 0.840862
C19_3 C 0.3763(19) 0.7262(7) 0.9058(14)
H41_3 H 0.403483 0.709337 0.918226
H42_3 H 0.331956 0.719997 0.882827
C20_3 C 0.3997(16) 0.7442(7) 0.9772(14)
H44_3 H 0.372425 0.760790 0.963496
H45_3 H 0.443480 0.750200 0.998662
C29_3 C 0.403(3) 0.8451(11) 0.672(3)
H64_3 H 0.360441 0.836832 0.633799
H65_3 H 0.412535 0.858438 0.643731
C30_3 C 0.3956(19) 0.8625(10) 0.728(2)
H66_3 H 0.397238 0.849941 0.766389
H67_3 H 0.430699 0.876364 0.754889
C31_3 C 0.3289(19) 0.8787(11) 0.681(2)
H68_3 H 0.326491 0.891348 0.642519
H69_3 H 0.293192 0.865100 0.655610
C32_3 C 0.328(2) 0.8959(11) 0.744(3)
H70_3 H 0.288312 0.906665 0.719925
H71_3 H 0.364069 0.909003 0.768541
H72_3 H 0.331023 0.882954 0.781532
C36_4 C 0.7704(14) 0.7603(6) 0.7585(15)
H79_4 H 0.767730 0.740572 0.741476
H80_4 H 0.815528 0.764962 0.796701
C37_4 C 0.7420(14) 0.7806(7) 0.6910(16)
H81_4 H 0.705186 0.772074 0.644436
H82_4 H 0.729050 0.798625 0.702001
C38_4 C 0.8054(15) 0.7850(7) 0.6833(18)
H83_4 H 0.846228 0.785614 0.733719
H84_4 H 0.800908 0.802275 0.654284
C39_4 C 0.7984(15) 0.7568(7) 0.637(2)
H85_4 H 0.832161 0.756249 0.628120
H86_4 H 0.756974 0.756775 0.588531
H87_4 H 0.801795 0.740297 0.667091
C43_3 C 0.2893(10) 0.7074(4) 0.5616(11)
C44_4 C 0.5246(11) 0.6585(6) 0.6944(12)
C45_4 C 0.5521(11) 0.6686(6) 0.6465(11)
C46_4 C 0.5625(11) 0.8352(6) 0.8711(12)
C47_4 C 0.5937(11) 0.8429(6) 0.8250(12)
C48_4 C 0.8296(10) 0.7938(4) 0.9447(12)
C49_4 C 0.7784(11) 0.8181(4) 0.8960(13)
C55_4 C 0.7152(16) 0.6566(5) 0.8660(19)
H95_4 H 0.722864 0.656005 0.917151
H96_4 H 0.755259 0.663027 0.872989
C56_4 C 0.7043(12) 0.6257(5) 0.8369(17)
H97_4 H 0.670120 0.616879 0.839301
H98_4 H 0.691830 0.625273 0.783593
C57_4 C 0.7709(15) 0.6090(6) 0.8918(17)
H99_4 H 0.771899 0.599474 0.934063
H100_4 H 0.807555 0.622009 0.913194
C59_4 C 0.7733(18) 0.9058(6) 0.7631(19)
O48_4 O 0.7990(10) 0.8928(4) 0.8275(10)
O49_4 O 0.8160(10) 0.9159(4) 0.7476(10)
O51_4 O 0.6821(10) 0.9337(4) 0.6527(11)
O52_4 O 0.6701(12) 0.9082(5) 0.7389(13)
C60_4 C 0.7011(15) 0.9166(7) 0.7105(15)
O53_4 O 0.6769(8) 0.7640(4) 0.8741(10)
O54_3 O 0.4408(9) 0.7360(4) 0.6410(10)
C61_3 C 0.3360(12) 0.6808(5) 0.6151(13)
C64_4 C 0.7709(19) 0.5868(8) 0.836(2)
H106_4 H 0.809703 0.575453 0.864031
H107_4 H 0.769160 0.596806 0.794486
H108_4 H 0.733794 0.574454 0.815186
H111_4 H 0.938792 0.838927 0.885214
H112_4 H 0.918201 0.87263 0.87424
Sn5_4 Sn 0.90271(10) 0.76576(5) 0.20822(11)
Sn11_4 Sn 0.97451(10) 0.69042(5) 0.21467(12)
O1_4 O 0.9060(10) 0.7198(4) 0.2054(13)
O2_4 O 0.9967(8) 0.7760(4) 0.3068(10)
O3_4 O 0.9783(10) 0.7066(4) 0.1219(11)
O19_2 O 0.7370(8) 0.8006(4) 0.0042(9)
O20_4 O 0.8123(9) 0.7687(4) 0.0962(10)
O21_2 O 0.8229(10) 0.8430(4) 0.0927(11)
O22_4 O 0.8892(8) 0.8106(4) 0.1816(9)
O23_2 O 0.9751(9) 0.8571(4) 0.1632(11)
H1_4 H 0.986677 0.772414 0.034231
H16_4 H 0.967858 0.517858 0.191335
H17_3 H 0.997248 0.487277 0.224331
C17_4 C 0.8500(14) 0.7694(5) 0.2705(12)
H37_4 H 0.847429 0.789679 0.280301
H38_4 H 0.806033 0.762489 0.235666
C18_4 C 0.8813(12) 0.7530(5) 0.3482(12)
H39_4 H 0.926203 0.748494 0.368868
H40_4 H 0.858262 0.735080 0.340862
C19_4 C 0.8763(19) 0.7738(7) 0.4058(14)
H41_4 H 0.903483 0.790663 0.418226
H42_4 H 0.831956 0.780003 0.382827
C20_4 C 0.8997(16) 0.7558(7) 0.4772(14)
H43_2 H 0.898065 0.767096 0.514823
H44_4 H 0.872425 0.739210 0.463496
H45_4 H 0.943480 0.749800 0.498662
C29_4 C 0.903(3) 0.6549(11) 0.172(3)
H64_4 H 0.860441 0.663168 0.133799
H65_4 H 0.912535 0.641562 0.143731
C30_4 C 0.8956(19) 0.6375(10) 0.228(2)
H66_4 H 0.897238 0.650059 0.266389
H67_4 H 0.930699 0.623636 0.254889
C31_4 C 0.8289(19) 0.6213(11) 0.181(2)
H68_4 H 0.826491 0.608652 0.142519
H69_4 H 0.793192 0.634900 0.155610
C32_4 C 0.828(2) 0.6041(11) 0.244(3)
H70_4 H 0.788312 0.593335 0.219925
H71_4 H 0.864069 0.590997 0.268541
H72_4 H 0.831023 0.617046 0.281532
C43_4 C 0.7893(10) 0.7926(4) 0.0616(11)
O54_4 O 0.9408(9) 0.7640(4) 0.1410(10)
C61_4 C 0.8360(12) 0.8192(5) 0.1151(13)
Na6_2 Na 0.8874(7) 0.8880(2) 0.1436(7)
Na8_2 Na 0.9093(6) 0.8510(2) 0.0142(7)
Na10_2 Na 0.7068(6) 0.8517(2) 0.0008(6)
Sn2_4 Sn 0.74949(10) 0.99624(4) 0.26933(11)
Sn7_4 Sn 0.70530(10) 0.97740(4) 0.06404(9)
Sn12_4 Sn 0.85615(12) 0.94436(5) 0.37434(12)
O11_4 O 0.9108(11) 0.9751(4) 0.4590(10)
O12_4 O 0.7553(9) 0.9583(4) 0.3533(10)
O13_4 O 0.8380(9) 0.9774(4) 0.2988(9)
O17_4 O 0.7055(10) 0.9689(4) 0.1682(10)
O18_4 O 0.8056(9) 0.9808(4) 0.1386(9)
O39_4 O 0.9306(10) 0.9311(4) 0.3594(11)
O40_4 O 0.9505(10) 0.9095(4) 0.2810(11)
O43_4 O 0.7183(10) 0.9319(4) 0.0559(9)
O45_4 O 0.7024(9) 0.8666(3) 0.1106(8)
C6_4 C 0.5979(15) 0.9879(7) 0.213(2)
H12_4 H 0.598633 0.976831 0.252807
H13_4 H 0.599163 0.974517 0.177625
H14_4 H 0.505317 0.997669 0.117475
H17_4 H 0.497248 0.987277 0.224331
C25_4 C 0.9535(13) 0.9835(9) 0.264(3)
H55_4 H 0.955372 0.963613 0.279388
H56_4 H 0.950886 0.983569 0.215621
C33_4 C 0.8440(15) 0.8836(5) 0.4259(13)
H73_4 H 0.798044 0.887775 0.397972
H74_4 H 0.853235 0.876617 0.389019
H76_4 H 0.581715 0.985515 0.003085
C40_4 C 0.8845(13) 0.9119(5) 0.4666(14)
H88_4 H 0.930508 0.907914 0.494507
H89_3 H 0.875182 0.919118 0.503280
C41_4 C 0.8629(16) 0.8605(5) 0.4890(16)
H90_3 H 0.909527 0.857755 0.521279
H91_3 H 0.848244 0.866026 0.521808
C42_4 C 0.828(2) 0.8323(6) 0.442(2)
H92_4 H 0.837191 0.816858 0.477665
H93_4 H 0.781779 0.835588 0.410327
H94_4 H 0.842647 0.827373 0.409802
C52_4 C 0.9091(13) 0.9168(6) 0.2956(13)
C54_4 C 0.7276(15) 0.9239(4) 0.0038(13)
C58_4 C 0.8384(18) 0.9086(6) 0.2525(18)
O47_4 O 0.8110(9) 0.9165(4) 0.2805(9)
O50_4 O 0.8289(9) 0.8894(4) 0.2042(9)
O62_2 O 0.8801(10) 0.8985(3) 0.0198(10)
O63_2 O 0.8696(10) 0.9409(4) 0.1029(10)
H109_4 H 0.667291 0.881005 0.0928778
H110_4 H 0.693599 0.849548 0.13224
O32_4 O 0.8787(8) 0.7987(4) 0.0088(10)
O38_4 O 0.8892(10) 0.9735(3) 0.0406(10)
H22_4 H 0.593868 0.730175 0.005253
C11_4 C 0.5749(14) 0.7659(6) 0.0532(15)
H23_4 H 0.546567 0.758089 0.067160
H24_4 H 0.564268 0.785999 0.039090
C12_4 C 0.6453(16) 0.7623(8) 0.1187(16)
H25_4 H 0.653611 0.772552 0.163585
H26_4 H 0.672255 0.769924 0.103139
H27_4 H 0.654697 0.742240 0.130983
H43_3 H 0.398065 0.732904 0.014823
C50_4 C 0.8886(16) 0.9235(4) 0.0068(15)
C51_4 C 0.8850(15) 0.9476(4) 0.0563(14)
H3_3 H 0.970074 0.725285 0.983590
H5_3 H 0.980804 0.738346 0.887945
H6_3 H 0.994218 0.768581 0.928380
C62_4 C 0.9923(12) 0.4639(7) 0.8650(17)
H101_4 H 0.987540 0.459874 0.907347
H102_4 H 0.958850 0.477420 0.829733
C63_4 C 0.9873(18) 0.4358(7) 0.822(2)
H103_4 H 0.945750 0.427067 0.801168
H104_4 H 0.992304 0.440155 0.780346
H43_4 H 0.898065 0.232904 0.014823
C26_3 C 0.0157(15) 0.9990(8) 0.326(2)
H58_3 H 0.028576 0.992604 0.377651
C27_3 C 0.0689(15) 0.9919(8) 0.313(2)
H59_3 H 0.050721 0.990702 0.258079
H60_3 H 0.088900 0.973595 0.337009
H3_4 H 0.470074 0.225285 0.983590
C3_4 C 0.5098(17) 0.2489(9) 0.9355(16)
H5_4 H 0.480804 0.238346 0.887945
H6_4 H 0.494218 0.268581 0.928380
C4_4 C 0.5784(18) 0.2488(10) 0.953(2)
H7_4 H 0.577900 0.257538 0.911081
H9_4 H 0.593476 0.229255 0.959784
C15_4 C 0.6956(16) 0.1333(5) 0.9820(14)
H32_4 H 0.726787 0.129906 0.968807
H33_4 H 0.653029 0.127773 0.938144
H34_4 H 0.684707 0.175963 0.956567
C26_4 C 0.0157(15) 0.0010(8) 0.826(2)
H58_4 H 0.028576 0.007396 0.877651
C27_4 C 0.0689(15) 0.0081(8) 0.813(2)
H59_4 H 0.050721 0.009298 0.758079
H60_4 H 0.088900 0.026405 0.837009
H47_4 H 0.035644 0.985472 0.992237
H57_4 H 0.008501 0.980350 0.823094
C28_4 C 0.1197(17) 0.9834(8) 0.851(3)
H61_4 H 0.153958 0.987175 0.843510
H62_4 H 0.099321 0.965427 0.826686
H63_4 H 0.137326 0.982456 0.905257
H89_4 H 0.875182 0.080882 0.003280
H90_4 H 0.909527 0.142245 0.021279
H91_4 H 0.848244 0.133974 0.021808
loop_
_geom_bond_atom_site_label_1
_geom_bond_atom_site_label_2
_geom_bond_site_symmetry_1
_geom_bond_site_symmetry_2
Sn2 O9 1_555 1_555
Sn4 O14 1_555 1_555
Sn6 O5 1_555 1_555
Sn7 O16 1_555 1_555
Sn8 O9 1_555 1_555
Sn9 O10 1_555 1_555
Sn10 O7 1_555 1_555
Sn12 O11 1_555 1_555
Na1 O40 1_555 1_555
Na2 O30 1_555 1_555
Na3 O32 1_555 1_555
O4 Sn1 1_555 1_555
O5 Sn1 1_555 1_555
O6 Sn3 1_555 1_555
O7 Sn6 1_555 1_555
O8 Sn1 1_555 1_555
O10 Sn8 1_555 1_555
O11 Sn8 1_555 1_555
O12 Sn2 1_555 1_555
O13 Sn2 1_555 1_555
O14 Sn2 1_555 1_555
O15 Sn4 1_555 1_555
O16 Sn4 1_555 1_555
O17 Sn2 1_555 1_555
O18 Sn7 1_555 1_555
O24 Sn6 1_555 1_555
O25 C45 1_555 1_555
O26 Sn6 1_555 1_555
O28 C46 1_555 1_555
O30 C47 1_555 1_555
O31 Sn10 1_555 1_555
O32 C48 1_555 1_555
O33 Sn10 1_555 1_555
O34 Na2 1_555 1_555
O35 Na3 1_555 1_555
O36 Sn8 1_555 1_555
O37 C51 1_555 1_555
O38 Sn8 1_555 1_555
O39 Sn12 1_555 1_555
O40 C52 1_555 1_555
O43 Sn7 1_555 1_555
O45 Na4 1_555 1_555
O46 Na3 1_555 1_555
C1 Sn1 1_555 1_555
H2 C1 1_555 1_555
C2 C1 1_555 1_555
H4 C2 1_555 1_555
C5 Sn2 1_555 1_555
H10 C5 1_555 1_555
H11 C5 1_555 1_555
C6 C5 1_555 1_555
H12 C6 1_555 1_555
H13 C6 1_555 1_555
C7 C6 1_555 1_555
H14 C7 1_555 1_555
H15 C7 1_555 1_555
C8 C7 1_555 1_555
H18 C8 1_555 1_555
C9 Sn3 1_555 1_555
H19 C9 1_555 1_555
H20 C9 1_555 1_555
C10 C9 1_555 1_555
H21 C10 1_555 1_555
H22 C10 1_555 1_555
C11 C10 1_555 1_555
H23 C11 1_555 1_555
H24 C11 1_555 1_555
C12 C11 1_555 1_555
H25 C12 1_555 1_555
H26 C12 1_555 1_555
H27 C12 1_555 1_555
C13 Sn4 1_555 1_555
H28 C13 1_555 1_555
H29 C13 1_555 1_555
C14 C13 1_555 1_555
H30 C14 1_555 1_555
H31 C14 1_555 1_555
H35 C16 1_555 1_555
H36 C16 1_555 1_555
C21 Sn8 1_555 1_555
H46 C21 1_555 1_555
H47 C21 1_555 1_555
C22 C21 1_555 1_555
H48 C22 1_555 1_555
H49 C22 1_555 1_555
C23 C22 1_555 1_555
H50 C23 1_555 1_555
H51 C23 1_555 1_555
C24 C23 1_555 1_555
H52 C24 1_555 1_555
H53 C24 1_555 1_555
H54 C24 1_555 1_555
C25 Sn9 1_555 1_555
H55 C25 1_555 1_555
H56 C25 1_555 1_555
C26 C25 1_555 1_555
H57 C26 1_555 1_555
H58 C26 1_555 1_555
C27 C26 1_555 1_555
H59 C27 1_555 1_555
H60 C27 1_555 1_555
C28 C27 1_555 1_555
H61 C28 1_555 1_555
H62 C28 1_555 1_555
H63 C28 1_555 1_555
C33 H73 1_555 1_555
H74 C33 1_555 1_555
C36 Sn10 1_555 1_555
H79 C36 1_555 1_555
H80 C36 1_555 1_555
C37 C36 1_555 1_555
H81 C37 1_555 1_555
H82 C37 1_555 1_555
C38 C37 1_555 1_555
H83 C38 1_555 1_555
H84 C38 1_555 1_555
C39 C38 1_555 1_555
H85 C39 1_555 1_555
H86 C39 1_555 1_555
H87 C39 1_555 1_555
C40 Sn12 1_555 1_555
H88 C40 1_555 1_555
H89 C40 1_555 1_555
C41 C33 1_555 1_555
H90 C41 1_555 1_555
H91 C41 1_555 1_555
C42 C41 1_555 1_555
H92 C42 1_555 1_555
H93 C42 1_555 1_555
H94 C42 1_555 1_555
C44 O24 1_555 1_555
C45 O26 1_555 1_555
C46 O27 1_555 1_555
C47 O29 1_555 1_555
C48 O31 1_555 1_555
C49 O33 1_555 1_555
C50 O35 1_555 1_555
C51 O38 1_555 1_555
C52 O39 1_555 1_555
C54 O43 1_555 1_555
C55 Sn6 1_555 1_555
H95 C55 1_555 1_555
H96 C55 1_555 1_555
C56 C55 1_555 1_555
H97 C56 1_555 1_555
H98 C56 1_555 1_555
C57 C56 1_555 1_555
H99 C57 1_555 1_555
H100 C57 1_555 1_555
C58 C52 1_555 1_555
C59 O48 1_555 1_555
O47 Sn12 1_555 1_555
O48 Na2 1_555 1_555
O49 Sn4 1_555 1_555
O50 Na1 1_555 1_555
O51 Sn4 1_555 1_555
O52 Na2 1_555 1_555
C60 C59 1_555 1_555
O53 Sn3 1_555 1_555
C64 C57 1_555 1_555
H106 C64 1_555 1_555
H107 C64 1_555 1_555
H108 C64 1_555 1_555
Na5 O35 1_555 1_555
Na9 O28 1_555 1_555
O55 Na4 1_555 1_555
O56 Na1 1_555 1_555
O57 Na1 1_555 1_555
O58 Na3 1_555 1_555
O59 Na3 1_555 1_555
O62 Na1 1_555 1_555
O63 Na1 1_555 1_555
O64 Na2 1_555 1_555
O65 Na2 1_555 1_555
Sn3 O4 1_555 1_555
Sn3 O5 1_555 1_555
Sn6 O6 1_555 1_555
Sn7 O17 1_555 1_555
Sn9 O13 1_555 1_555
Sn9 O14 1_555 1_555
Sn9 O15 1_555 1_555
Sn9 O18 1_555 1_555
Sn10 O8 1_555 1_555
Sn10 O53 1_555 1_555
Sn12 O12 1_555 1_555
Sn12 O13 1_555 1_555
Na3 O34 1_555 1_555
Na4 O56 1_555 1_555
O30 Na9 1_555 1_555
O34 C49 1_555 1_555
O36 C50 1_555 1_555
O37 Na5 1_555 1_555
C33 C40 1_555 1_555
C44 C45 1_555 1_555
C46 C47 1_555 1_555
C48 C49 1_555 1_555
C50 C51 1_555 1_555
C58 O47 1_555 1_555
C58 O50 1_555 1_555
C59 O49 1_555 1_555
O51 C60 1_555 1_555
O52 C60 1_555 1_555
Na5 O58 1_555 1_555
Na9 O65 1_555 1_555
O45 H109 1_555 1_555
O45 H110 1_555 1_555
O46 H111 1_555 1_555
O46 H112 1_555 1_555
O42 C53 1_555 1_555
C4 C3 1_555 1_555
H7 C4 1_555 1_555
H9 C4 1_555 1_555
H32 C15 1_555 1_555
H33 C15 1_555 1_555
H75 C34 1_555 1_555
C35 C34 1_555 1_555
H77 C35 1_555 1_555
H78 C35 1_555 1_555
C53 O41 1_555 1_555
Na7 O42 1_555 1_555
O44 Na7 1_555 1_555
Na7 O61 1_555 1_555
Na3_2 O32_2 1_555 1_555
O62 Na3_2 1_555 1_555
O63 C51_2 1_555 1_555
H23_2 C11_2 1_555 1_555
H24_2 C11_2 1_555 1_555
C12_2 C11_2 1_555 1_555
H25_2 C12_2 1_555 1_555
H26_2 C12_2 1_555 1_555
H27_2 C12_2 1_555 1_555
H46_2 C21_2 1_555 1_555
C22_2 C21_2 1_555 1_555
H48_2 C22_2 1_555 1_555
H49_2 C22_2 1_555 1_555
C23_2 C22_2 1_555 1_555
H50_2 C23_2 1_555 1_555
H51_2 C23_2 1_555 1_555
C24_2 C23_2 1_555 1_555
H52_2 C24_2 1_555 1_555
H53_2 C24_2 1_555 1_555
H54_2 C24_2 1_555 1_555
C50_2 O62 1_555 1_555
C51_2 O38_2 1_555 1_555
O57 Na3_2 1_555 1_555
O59_2 Na3_2 1_555 1_555
C50_2 C51_2 1_555 1_555
Sn2_2 O9_2 1_555 1_555
Sn4_2 O14_2 1_555 1_555
Sn6_2 O5_2 1_555 1_555
Sn7_2 O16_2 1_555 1_555
Sn8_2 O9_2 1_555 1_555
Sn9_2 O10_2 1_555 1_555
Sn10_2 O7_2 1_555 1_555
Sn12_2 O11_2 1_555 1_555
Na5 O40_2 1_555 1_555
O4_2 Sn1_2 1_555 1_555
O5_2 Sn1_2 1_555 1_555
O6_2 Sn3_2 1_555 1_555
O7_2 Sn6_2 1_555 1_555
O8_2 Sn1_2 1_555 1_555
O10_2 Sn8_2 1_555 1_555
O11_2 Sn8_2 1_555 1_555
O12_2 Sn2_2 1_555 1_555
O13_2 Sn2_2 1_555 1_555
O14_2 Sn2_2 1_555 1_555
O15_2 Sn4_2 1_555 1_555
O16_2 Sn4_2 1_555 1_555
O17_2 Sn2_2 1_555 1_555
O18_2 Sn7_2 1_555 1_555
O24_2 Sn6_2 1_555 1_555
O25_2 C45_2 1_555 1_555
O26_2 Sn6_2 1_555 1_555
O60 C46_2 1_555 1_555
O61 C47_2 1_555 1_555
O31_2 Sn10_2 1_555 1_555
O33_2 Sn10_2 1_555 1_555
O34_2 Na7 1_555 1_555
O36_2 Sn8_2 1_555 1_555
O39_2 Sn12_2 1_555 1_555
O40_2 C52_2 1_555 1_555
O41_2 Sn7_2 1_555 1_555
O64 C53_2 1_555 1_555
O43_2 Sn7_2 1_555 1_555
O65 C54_2 1_555 1_555
O45_2 Na9 1_555 1_555
C1_2 Sn1_2 1_555 1_555
H2_2 C1_2 1_555 1_555
C2_2 C1_2 1_555 1_555
H4_2 C2_2 1_555 1_555
C3_2 C2_2 1_555 1_555
C4_2 C3_2 1_555 1_555
H7_2 C4_2 1_555 1_555
H8_2 C4_2 1_555 1_555
H9_2 C4_2 1_555 1_555
C5_2 Sn2_2 1_555 1_555
H10_2 C5_2 1_555 1_555
H11_2 C5_2 1_555 1_555
C6_2 C5_2 1_555 1_555
H12_2 C6_2 1_555 1_555
H13_2 C6_2 1_555 1_555
C7_2 C6_2 1_555 1_555
H14_2 C7_2 1_555 1_555
H15_2 C7_2 1_555 1_555
C8_2 C7_2 1_555 1_555
H18_2 C8_2 1_555 1_555
C9_2 Sn3_2 1_555 1_555
H19_2 C9_2 1_555 1_555
H20_2 C9_2 1_555 1_555
C10_2 C9_2 1_555 1_555
H21_2 C10_2 1_555 1_555
C13_2 Sn4_2 1_555 1_555
H28_2 C13_2 1_555 1_555
H29_2 C13_2 1_555 1_555
C14_2 C13_2 1_555 1_555
H30_2 C14_2 1_555 1_555
H31_2 C14_2 1_555 1_555
C15_2 C14_2 1_555 1_555
H32_2 C15_2 1_555 1_555
H33_2 C15_2 1_555 1_555
C16_2 C15_2 1_555 1_555
H34_2 C16_2 1_555 1_555
H35_2 C16_2 1_555 1_555
H36_2 C16_2 1_555 1_555
C25_2 Sn9_2 1_555 1_555
H55_2 C25_2 1_555 1_555
H56_2 C25_2 1_555 1_555
C26_2 C25_2 1_555 1_555
H57_2 C26_2 1_555 1_555
H58_2 C26_2 1_555 1_555
C27_2 C26_2 1_555 1_555
H59_2 C27_2 1_555 1_555
H60_2 C27_2 1_555 1_555
C28_2 C27_2 1_555 1_555
H61_2 C28_2 1_555 1_555
H62_2 C28_2 1_555 1_555
H63_2 C28_2 1_555 1_555
C33_2 H73_2 1_555 1_555
H74_2 C33_2 1_555 1_555
C34_2 Sn7_2 1_555 1_555
H75_2 C34_2 1_555 1_555
H76_2 C34_2 1_555 1_555
C35_2 C34_2 1_555 1_555
H77_2 C35_2 1_555 1_555
H78_2 C35_2 1_555 1_555
C36_2 Sn10_2 1_555 1_555
H79_2 C36_2 1_555 1_555
H80_2 C36_2 1_555 1_555
C37_2 C36_2 1_555 1_555
H81_2 C37_2 1_555 1_555
H82_2 C37_2 1_555 1_555
C38_2 C37_2 1_555 1_555
H83_2 C38_2 1_555 1_555
H84_2 C38_2 1_555 1_555
C39_2 C38_2 1_555 1_555
H85_2 C39_2 1_555 1_555
H86_2 C39_2 1_555 1_555
H87_2 C39_2 1_555 1_555
C40_2 Sn12_2 1_555 1_555
H88_2 C40_2 1_555 1_555
C41_2 C33_2 1_555 1_555
C42_2 C41_2 1_555 1_555
H92_2 C42_2 1_555 1_555
H93_2 C42_2 1_555 1_555
H94_2 C42_2 1_555 1_555
C44_2 O24_2 1_555 1_555
C45_2 O26_2 1_555 1_555
C46_2 O27_2 1_555 1_555
C47_2 O29_2 1_555 1_555
C48_2 O31_2 1_555 1_555
C49_2 O33_2 1_555 1_555
C52_2 O39_2 1_555 1_555
C53_2 O41_2 1_555 1_555
C54_2 O43_2 1_555 1_555
C55_2 Sn6_2 1_555 1_555
H95_2 C55_2 1_555 1_555
H96_2 C55_2 1_555 1_555
C56_2 C55_2 1_555 1_555
H97_2 C56_2 1_555 1_555
H98_2 C56_2 1_555 1_555
C57_2 C56_2 1_555 1_555
H99_2 C57_2 1_555 1_555
H100_2 C57_2 1_555 1_555
C58_2 C52_2 1_555 1_555
C59_2 O48_2 1_555 1_555
O47_2 Sn12_2 1_555 1_555
O48_2 Na7 1_555 1_555
O49_2 Sn4_2 1_555 1_555
O50_2 Na5 1_555 1_555
O51_2 Sn4_2 1_555 1_555
O52_2 Na7 1_555 1_555
C60_2 C59_2 1_555 1_555
O53_2 Sn3_2 1_555 1_555
C64_2 C57_2 1_555 1_555
H106_2 C64_2 1_555 1_555
H107_2 C64_2 1_555 1_555
H108_2 C64_2 1_555 1_555
O55_2 Na9 1_555 1_555
O56_2 Na5 1_555 1_555
Sn3_2 O4_2 1_555 1_555
Sn3_2 O5_2 1_555 1_555
Sn6_2 O6_2 1_555 1_555
Sn7_2 O17_2 1_555 1_555
Sn9_2 O13_2 1_555 1_555
Sn9_2 O14_2 1_555 1_555
Sn9_2 O15_2 1_555 1_555
Sn9_2 O18_2 1_555 1_555
Sn10_2 O8_2 1_555 1_555
Sn10_2 O53_2 1_555 1_555
Sn12_2 O12_2 1_555 1_555
Sn12_2 O13_2 1_555 1_555
Na9 O56_2 1_555 1_555
O34_2 C49_2 1_555 1_555
C33_2 C40_2 1_555 1_555
C44_2 C45_2 1_555 1_555
C46_2 C47_2 1_555 1_555
C48_2 C49_2 1_555 1_555
C53_2 C54_2 1_555 1_555
C58_2 O47_2 1_555 1_555
C58_2 O50_2 1_555 1_555
C59_2 O49_2 1_555 1_555
O51_2 C60_2 1_555 1_555
O52_2 C60_2 1_555 1_555
O45_2 H109_2 1_555 1_555
O45_2 H110_2 1_555 1_555
O46_2 H111_2 1_555 1_555
O46_2 H112_2 1_555 1_555
Sn5 O1 1_555 1_555
Sn11 O1 1_555 1_555
O2 Sn5 1_555 1_555
O3 Sn11 1_555 1_555
O19 C43 1_555 1_555
O20 Sn5 1_555 1_555
O21 C61 1_555 1_555
O22 Sn5 1_555 1_555
C17 Sn5 1_555 1_555
H37 C17 1_555 1_555
H38 C17 1_555 1_555
C18 C17 1_555 1_555
H39 C18 1_555 1_555
H40 C18 1_555 1_555
C19 C18 1_555 1_555
H41 C19 1_555 1_555
H42 C19 1_555 1_555
C20 C19 1_555 1_555
H44 C20 1_555 1_555
H45 C20 1_555 1_555
C29 Sn11 1_555 1_555
H64 C29 1_555 1_555
H65 C29 1_555 1_555
C30 C29 1_555 1_555
H66 C30 1_555 1_555
H67 C30 1_555 1_555
C31 C30 1_555 1_555
H68 C31 1_555 1_555
H69 C31 1_555 1_555
C32 C31 1_555 1_555
H70 C32 1_555 1_555
H71 C32 1_555 1_555
H72 C32 1_555 1_555
C43 O20 1_555 1_555
C61 O22 1_555 1_555
H101 C62 1_555 1_555
H102 C62 1_555 1_555
C63 C62 1_555 1_555
H103 C63 1_555 1_555
H104 C63 1_555 1_555
Na6 O21 1_555 1_555
Na8 O23 1_555 1_555
Na10 O19 1_555 1_555
Sn5 O54 1_555 1_555
O21 Na10 1_555 1_555
O23 Na6 1_555 1_555
C43 C61 1_555 1_555
H46_3 C21_3 1_555 1_555
H47_3 C21_3 1_555 1_555
C22_3 C21_3 1_555 1_555
H48_3 C22_3 1_555 1_555
H49_3 C22_3 1_555 1_555
C23_3 C22_3 1_555 1_555
H50_3 C23_3 1_555 1_555
H51_3 C23_3 1_555 1_555
C24_3 C23_3 1_555 1_555
H52_3 C24_3 1_555 1_555
H53_3 C24_3 1_555 1_555
H54_3 C24_3 1_555 1_555
H61_3 C28_3 1_555 1_555
H62_3 C28_3 1_555 1_555
H63_3 C28_3 1_555 1_555
Sn1_3 O3_2 1_555 1_555
Sn3_3 O2_2 1_555 1_555
Sn4_3 O14_3 1_555 1_555
Sn5_2 O1_2 1_555 1_555
Sn6_3 O5_3 1_555 1_555
Sn8_3 O9_3 1_555 1_555
Sn9_3 O10_3 1_555 1_555
Sn10_3 O7_3 1_555 1_555
Sn11_2 O1_2 1_555 1_555
Na2_2 O30_2 1_555 1_555
Na8 O32_3 1_555 1_555
O2_2 Sn5_2 1_555 1_555
O3_2 Sn11_2 1_555 1_555
O4_3 Sn1_3 1_555 1_555
O5_3 Sn1_3 1_555 1_555
O6_3 Sn3_3 1_555 1_555
O7_3 Sn6_3 1_555 1_555
O8_3 Sn1_3 1_555 1_555
O10_3 Sn8_3 1_555 1_555
O15_3 Sn4_3 1_555 1_555
O16_3 Sn4_3 1_555 1_555
O55 C43_2 1_555 1_555
O20_2 Sn5_2 1_555 1_555
O56 C61_2 1_555 1_555
O22_2 Sn5_2 1_555 1_555
O57 C44_3 1_555 1_555
O24_3 Sn6_3 1_555 1_555
O59_2 C45_3 1_555 1_555
O26_3 Sn6_3 1_555 1_555
O27_3 Sn11_2 1_555 1_555
O28_2 C46_3 1_555 1_555
O29_3 Sn11_2 1_555 1_555
O30_2 C47_3 1_555 1_555
O31_3 Sn10_3 1_555 1_555
O32_3 C48_3 1_555 1_555
O33_3 Sn10_3 1_555 1_555
O34_3 Na2_2 1_555 1_555
O35_2 Na8 1_555 1_555
O36_3 Sn8_3 1_555 1_555
O37_2 C51_3 1_555 1_555
O38_3 Sn8_3 1_555 1_555
O46_3 Na8 1_555 1_555
C1_3 Sn1_3 1_555 1_555
H1_2 C1_3 1_555 1_555
H2_3 C1_3 1_555 1_555
C2_3 C1_3 1_555 1_555
H4_3 C2_3 1_555 1_555
H10_3 C5_3 1_555 1_555
H11_3 C5_3 1_555 1_555
H15_3 C7_3 1_555 1_555
C8_3 C7_3 1_555 1_555
H16_2 C8_3 1_555 1_555
H18_3 C8_3 1_555 1_555
C9_3 Sn3_3 1_555 1_555
H19_3 C9_3 1_555 1_555
H20_3 C9_3 1_555 1_555
C10_3 C9_3 1_555 1_555
H21_3 C10_3 1_555 1_555
H22_3 C10_3 1_555 1_555
C11_3 C10_3 1_555 1_555
H23_3 C11_3 1_555 1_555
H24_3 C11_3 1_555 1_555
C12_3 C11_3 1_555 1_555
H25_3 C12_3 1_555 1_555
H26_3 C12_3 1_555 1_555
H27_3 C12_3 1_555 1_555
C13_3 Sn4_3 1_555 1_555
H28_3 C13_3 1_555 1_555
H29_3 C13_3 1_555 1_555
C14_3 C13_3 1_555 1_555
H30_3 C14_3 1_555 1_555
H31_3 C14_3 1_555 1_555
H35_3 C16_3 1_555 1_555
H36_3 C16_3 1_555 1_555
C17_2 Sn5_2 1_555 1_555
H37_2 C17_2 1_555 1_555
H38_2 C17_2 1_555 1_555
C18_2 C17_2 1_555 1_555
H39_2 C18_2 1_555 1_555
H40_2 C18_2 1_555 1_555
C19_2 C18_2 1_555 1_555
H41_2 C19_2 1_555 1_555
H42_2 C19_2 1_555 1_555
C20_2 C19_2 1_555 1_555
H43 C20_2 1_555 1_555
H44_2 C20_2 1_555 1_555
H45_2 C20_2 1_555 1_555
C29_2 Sn11_2 1_555 1_555
H64_2 C29_2 1_555 1_555
H65_2 C29_2 1_555 1_555
C30_2 C29_2 1_555 1_555
H66_2 C30_2 1_555 1_555
H67_2 C30_2 1_555 1_555
C31_2 C30_2 1_555 1_555
H68_2 C31_2 1_555 1_555
H69_2 C31_2 1_555 1_555
C32_2 C31_2 1_555 1_555
H70_2 C32_2 1_555 1_555
H71_2 C32_2 1_555 1_555
H72_2 C32_2 1_555 1_555
C36_3 Sn10_3 1_555 1_555
H79_3 C36_3 1_555 1_555
H80_3 C36_3 1_555 1_555
C37_3 C36_3 1_555 1_555
H81_3 C37_3 1_555 1_555
H82_3 C37_3 1_555 1_555
C38_3 C37_3 1_555 1_555
H83_3 C38_3 1_555 1_555
H84_3 C38_3 1_555 1_555
C39_3 C38_3 1_555 1_555
H85_3 C39_3 1_555 1_555
H86_3 C39_3 1_555 1_555
H87_3 C39_3 1_555 1_555
C43_2 O20_2 1_555 1_555
C44_3 O24_3 1_555 1_555
C45_3 O26_3 1_555 1_555
C46_3 O27_3 1_555 1_555
C47_3 O29_3 1_555 1_555
C48_3 O31_3 1_555 1_555
C49_3 O33_3 1_555 1_555
C50_3 O35_2 1_555 1_555
C51_3 O38_3 1_555 1_555
C55_3 Sn6_3 1_555 1_555
H95_3 C55_3 1_555 1_555
H96_3 C55_3 1_555 1_555
C56_3 C55_3 1_555 1_555
H97_3 C56_3 1_555 1_555
H98_3 C56_3 1_555 1_555
C57_3 C56_3 1_555 1_555
H99_3 C57_3 1_555 1_555
H100_3 C57_3 1_555 1_555
C59_3 O48_3 1_555 1_555
O48_3 Na2_2 1_555 1_555
O49_3 Sn4_3 1_555 1_555
O51_3 Sn4_3 1_555 1_555
O52_3 Na2_2 1_555 1_555
C60_3 C59_3 1_555 1_555
O53_3 Sn3_3 1_555 1_555
O54_2 Sn1_3 1_555 1_555
C61_2 O22_2 1_555 1_555
C64_3 C57_3 1_555 1_555
H106_3 C64_3 1_555 1_555
H107_3 C64_3 1_555 1_555
H108_3 C64_3 1_555 1_555
Na6 O35_2 1_555 1_555
Na10 O28_2 1_555 1_555
O64_2 Na2_2 1_555 1_555
O65_2 Na2_2 1_555 1_555
Sn3_3 O4_3 1_555 1_555
Sn3_3 O5_3 1_555 1_555
Sn5_2 O54_2 1_555 1_555
Sn6_3 O6_3 1_555 1_555
Sn9_3 O14_3 1_555 1_555
Sn9_3 O15_3 1_555 1_555
Sn10_3 O8_3 1_555 1_555
Sn10_3 O53_3 1_555 1_555
Sn11_2 O4_3 1_555 1_555
Na8 O34_3 1_555 1_555
O30_2 Na10 1_555 1_555
O34_3 C49_3 1_555 1_555
O36_3 C50_3 1_555 1_555
O37_2 Na6 1_555 1_555
C43_2 C61_2 1_555 1_555
C44_3 C45_3 1_555 1_555
C46_3 C47_3 1_555 1_555
C48_3 C49_3 1_555 1_555
C50_3 C51_3 1_555 1_555
C59_3 O49_3 1_555 1_555
O51_3 C60_3 1_555 1_555
O52_3 C60_3 1_555 1_555
Na10 O65_2 1_555 1_555
O46_3 H111_3 1_555 1_555
O46_3 H112_3 1_555 1_555
O42_2 C53_3 1_555 1_555
H75_3 C34_3 1_555 1_555
C35_3 C34_3 1_555 1_555
H77_3 C35_3 1_555 1_555
H78_3 C35_3 1_555 1_555
C53_3 O41_3 1_555 1_555
C62_2 C35_3 1_555 1_555
H101_2 C62_2 1_555 1_555
H102_2 C62_2 1_555 1_555
C63_2 C62_2 1_555 1_555
H103_2 C63_2 1_555 1_555
H104_2 C63_2 1_555 1_555
H105_3 C63_2 1_555 1_555
Na7_2 O42_2 1_555 1_555
O44_2 Na7_2 1_555 1_555
Na7_2 O61_2 1_555 1_555
H46_4 C21_4 1_555 1_555
C22_4 C21_4 1_555 1_555
H48_4 C22_4 1_555 1_555
H49_4 C22_4 1_555 1_555
C23_4 C22_4 1_555 1_555
H50_4 C23_4 1_555 1_555
H51_4 C23_4 1_555 1_555
C24_4 C23_4 1_555 1_555
H52_4 C24_4 1_555 1_555
H53_4 C24_4 1_555 1_555
H54_4 C24_4 1_555 1_555
Sn12_3 O11_3 1_555 1_555
Na6 O40_3 1_555 1_555
O12_3 Sn2_3 1_555 1_555
O13_3 Sn2_3 1_555 1_555
O17_3 Sn2_3 1_555 1_555
O18_3 Sn7_3 1_555 1_555
O39_3 Sn12_3 1_555 1_555
O40_3 C52_3 1_555 1_555
O41_4 Sn7_3 1_555 1_555
O64_2 C53_4 1_555 1_555
O43_3 Sn7_3 1_555 1_555
O65_2 C54_3 1_555 1_555
O45_3 Na10 1_555 1_555
H12_3 C6_3 1_555 1_555
H13_3 C6_3 1_555 1_555
H55_3 C25_3 1_555 1_555
H56_3 C25_3 1_555 1_555
C33_3 H73_3 1_555 1_555
H74_3 C33_3 1_555 1_555
C34_4 Sn7_3 1_555 1_555
H75_4 C34_4 1_555 1_555
H76_3 C34_4 1_555 1_555
C35_4 C34_4 1_555 1_555
H77_4 C35_4 1_555 1_555
H78_4 C35_4 1_555 1_555
C40_3 Sn12_3 1_555 1_555
H88_3 C40_3 1_555 1_555
C41_3 C33_3 1_555 1_555
C42_3 C41_3 1_555 1_555
H92_3 C42_3 1_555 1_555
H93_3 C42_3 1_555 1_555
H94_3 C42_3 1_555 1_555
C52_3 O39_3 1_555 1_555
C53_4 O41_4 1_555 1_555
C54_3 O43_3 1_555 1_555
C58_3 C52_3 1_555 1_555
O47_3 Sn12_3 1_555 1_555
O50_3 Na6 1_555 1_555
C62_3 C35_4 1_555 1_555
H101_3 C62_3 1_555 1_555
H102_3 C62_3 1_555 1_555
C63_3 C62_3 1_555 1_555
H103_3 C63_3 1_555 1_555
H104_3 C63_3 1_555 1_555
H105_4 C63_3 1_555 1_555
Sn7_3 O17_3 1_555 1_555
Sn12_3 O12_3 1_555 1_555
Sn12_3 O13_3 1_555 1_555
C33_3 C40_3 1_555 1_555
C53_4 C54_3 1_555 1_555
C58_3 O47_3 1_555 1_555
C58_3 O50_3 1_555 1_555
O45_3 H109_3 1_555 1_555
O45_3 H110_3 1_555 1_555
Sn1_4 O3_3 1_555 1_555
Sn3_4 O2_3 1_555 1_555
Sn4_4 O14_4 1_555 1_555
Sn5_3 O1_3 1_555 1_555
Sn6_4 O5_4 1_555 1_555
Sn8_4 O9_4 1_555 1_555
Sn9_4 O10_4 1_555 1_555
Sn10_4 O7_4 1_555 1_555
Sn11_3 O1_3 1_555 1_555
O2_3 Sn5_3 1_555 1_555
O3_3 Sn11_3 1_555 1_555
O4_4 Sn1_4 1_555 1_555
O5_4 Sn1_4 1_555 1_555
O6_4 Sn3_4 1_555 1_555
O7_4 Sn6_4 1_555 1_555
O8_4 Sn1_4 1_555 1_555
O10_4 Sn8_4 1_555 1_555
O15_4 Sn4_4 1_555 1_555
O16_4 Sn4_4 1_555 1_555
O55_2 C43_3 1_555 1_555
O20_3 Sn5_3 1_555 1_555
O56_2 C61_3 1_555 1_555
O22_3 Sn5_3 1_555 1_555
O58 C44_4 1_555 1_555
O24_4 Sn6_4 1_555 1_555
O59 C45_4 1_555 1_555
O26_4 Sn6_4 1_555 1_555
O27_4 Sn11_3 1_555 1_555
O60_2 C46_4 1_555 1_555
O29_4 Sn11_3 1_555 1_555
O61_2 C47_4 1_555 1_555
O31_4 Sn10_4 1_555 1_555
O33_4 Sn10_4 1_555 1_555
O34_4 Na7_2 1_555 1_555
O36_4 Sn8_4 1_555 1_555
C1_4 Sn1_4 1_555 1_555
H1_3 C1_4 1_555 1_555
H2_4 C1_4 1_555 1_555
C2_4 C1_4 1_555 1_555
H3_2 C2_4 1_555 1_555
H4_4 C2_4 1_555 1_555
C3_3 C2_4 1_555 1_555
H5_2 C3_3 1_555 1_555
H6_2 C3_3 1_555 1_555
C4_3 C3_3 1_555 1_555
H7_3 C4_3 1_555 1_555
H8_4 C4_3 1_555 1_555
H9_3 C4_3 1_555 1_555
H10_4 C5_4 1_555 1_555
H11_4 C5_4 1_555 1_555
H15_4 C7_4 1_555 1_555
C8_4 C7_4 1_555 1_555
H16_3 C8_4 1_555 1_555
H18_4 C8_4 1_555 1_555
C9_4 Sn3_4 1_555 1_555
H19_4 C9_4 1_555 1_555
H20_4 C9_4 1_555 1_555
C10_4 C9_4 1_555 1_555
H21_4 C10_4 1_555 1_555
C13_4 Sn4_4 1_555 1_555
H28_4 C13_4 1_555 1_555
H29_4 C13_4 1_555 1_555
C14_4 C13_4 1_555 1_555
H30_4 C14_4 1_555 1_555
H31_4 C14_4 1_555 1_555
C15_3 C14_4 1_555 1_555
H32_3 C15_3 1_555 1_555
H33_3 C15_3 1_555 1_555
C16_4 C15_3 1_555 1_555
H34_3 C16_4 1_555 1_555
H35_4 C16_4 1_555 1_555
H36_4 C16_4 1_555 1_555
C17_3 Sn5_3 1_555 1_555
H37_3 C17_3 1_555 1_555
H38_3 C17_3 1_555 1_555
C18_3 C17_3 1_555 1_555
H39_3 C18_3 1_555 1_555
H40_3 C18_3 1_555 1_555
C19_3 C18_3 1_555 1_555
H41_3 C19_3 1_555 1_555
H42_3 C19_3 1_555 1_555
C20_3 C19_3 1_555 1_555
H44_3 C20_3 1_555 1_555
H45_3 C20_3 1_555 1_555
C29_3 Sn11_3 1_555 1_555
H64_3 C29_3 1_555 1_555
H65_3 C29_3 1_555 1_555
C30_3 C29_3 1_555 1_555
H66_3 C30_3 1_555 1_555
H67_3 C30_3 1_555 1_555
C31_3 C30_3 1_555 1_555
H68_3 C31_3 1_555 1_555
H69_3 C31_3 1_555 1_555
C32_3 C31_3 1_555 1_555
H70_3 C32_3 1_555 1_555
H71_3 C32_3 1_555 1_555
H72_3 C32_3 1_555 1_555
C36_4 Sn10_4 1_555 1_555
H79_4 C36_4 1_555 1_555
H80_4 C36_4 1_555 1_555
C37_4 C36_4 1_555 1_555
H81_4 C37_4 1_555 1_555
H82_4 C37_4 1_555 1_555
C38_4 C37_4 1_555 1_555
H83_4 C38_4 1_555 1_555
H84_4 C38_4 1_555 1_555
C39_4 C38_4 1_555 1_555
H85_4 C39_4 1_555 1_555
H86_4 C39_4 1_555 1_555
H87_4 C39_4 1_555 1_555
C43_3 O20_3 1_555 1_555
C44_4 O24_4 1_555 1_555
C45_4 O26_4 1_555 1_555
C46_4 O27_4 1_555 1_555
C47_4 O29_4 1_555 1_555
C48_4 O31_4 1_555 1_555
C49_4 O33_4 1_555 1_555
C55_4 Sn6_4 1_555 1_555
H95_4 C55_4 1_555 1_555
H96_4 C55_4 1_555 1_555
C56_4 C55_4 1_555 1_555
H97_4 C56_4 1_555 1_555
H98_4 C56_4 1_555 1_555
C57_4 C56_4 1_555 1_555
H99_4 C57_4 1_555 1_555
H100_4 C57_4 1_555 1_555
C59_4 O48_4 1_555 1_555
O48_4 Na7_2 1_555 1_555
O49_4 Sn4_4 1_555 1_555
O51_4 Sn4_4 1_555 1_555
O52_4 Na7_2 1_555 1_555
C60_4 C59_4 1_555 1_555
O53_4 Sn3_4 1_555 1_555
O54_3 Sn1_4 1_555 1_555
C61_3 O22_3 1_555 1_555
C64_4 C57_4 1_555 1_555
H106_4 C64_4 1_555 1_555
H107_4 C64_4 1_555 1_555
H108_4 C64_4 1_555 1_555
Sn3_4 O4_4 1_555 1_555
Sn3_4 O5_4 1_555 1_555
Sn5_3 O54_3 1_555 1_555
Sn6_4 O6_4 1_555 1_555
Sn9_4 O14_4 1_555 1_555
Sn9_4 O15_4 1_555 1_555
Sn10_4 O8_4 1_555 1_555
Sn10_4 O53_4 1_555 1_555
Sn11_3 O4_4 1_555 1_555
O34_4 C49_4 1_555 1_555
C43_3 C61_3 1_555 1_555
C44_4 C45_4 1_555 1_555
C46_4 C47_4 1_555 1_555
C48_4 C49_4 1_555 1_555
C59_4 O49_4 1_555 1_555
O51_4 C60_4 1_555 1_555
O52_4 C60_4 1_555 1_555
O46_4 H111_4 1_555 1_555
O46_4 H112_4 1_555 1_555
Sn5_4 O1_4 1_555 1_555
Sn11_4 O1_4 1_555 1_555
O2_4 Sn5_4 1_555 1_555
O3_4 Sn11_4 1_555 1_555
O19_2 C43_4 1_555 1_555
O20_4 Sn5_4 1_555 1_555
O21_2 C61_4 1_555 1_555
O22_4 Sn5_4 1_555 1_555
C17_4 Sn5_4 1_555 1_555
H37_4 C17_4 1_555 1_555
H38_4 C17_4 1_555 1_555
C18_4 C17_4 1_555 1_555
H39_4 C18_4 1_555 1_555
H40_4 C18_4 1_555 1_555
C19_4 C18_4 1_555 1_555
H41_4 C19_4 1_555 1_555
H42_4 C19_4 1_555 1_555
C20_4 C19_4 1_555 1_555
H43_2 C20_4 1_555 1_555
H44_4 C20_4 1_555 1_555
H45_4 C20_4 1_555 1_555
C29_4 Sn11_4 1_555 1_555
H64_4 C29_4 1_555 1_555
H65_4 C29_4 1_555 1_555
C30_4 C29_4 1_555 1_555
H66_4 C30_4 1_555 1_555
H67_4 C30_4 1_555 1_555
C31_4 C30_4 1_555 1_555
H68_4 C31_4 1_555 1_555
H69_4 C31_4 1_555 1_555
C32_4 C31_4 1_555 1_555
H70_4 C32_4 1_555 1_555
H71_4 C32_4 1_555 1_555
H72_4 C32_4 1_555 1_555
C43_4 O20_4 1_555 1_555
C61_4 O22_4 1_555 1_555
Na6_2 O21_2 1_555 1_555
Na8_2 O23_2 1_555 1_555
Na10_2 O19_2 1_555 1_555
Sn5_4 O54_4 1_555 1_555
O21_2 Na10_2 1_555 1_555
O23_2 Na6_2 1_555 1_555
C43_4 C61_4 1_555 1_555
Sn12_4 O11_4 1_555 1_555
Na6_2 O40_4 1_555 1_555
O12_4 Sn2_4 1_555 1_555
O13_4 Sn2_4 1_555 1_555
O17_4 Sn2_4 1_555 1_555
O18_4 Sn7_4 1_555 1_555
O39_4 Sn12_4 1_555 1_555
O40_4 C52_4 1_555 1_555
O43_4 Sn7_4 1_555 1_555
O45_4 Na10_2 1_555 1_555
H12_4 C6_4 1_555 1_555
H13_4 C6_4 1_555 1_555
H55_4 C25_4 1_555 1_555
H56_4 C25_4 1_555 1_555
C33_4 H73_4 1_555 1_555
H74_4 C33_4 1_555 1_555
C40_4 Sn12_4 1_555 1_555
H88_4 C40_4 1_555 1_555
H89_3 C40_4 1_555 1_555
C41_4 C33_4 1_555 1_555
H90_3 C41_4 1_555 1_555
H91_3 C41_4 1_555 1_555
C42_4 C41_4 1_555 1_555
H92_4 C42_4 1_555 1_555
H93_4 C42_4 1_555 1_555
H94_4 C42_4 1_555 1_555
C52_4 O39_4 1_555 1_555
C54_4 O43_4 1_555 1_555
C58_4 C52_4 1_555 1_555
O47_4 Sn12_4 1_555 1_555
O50_4 Na6_2 1_555 1_555
O62_2 Na6_2 1_555 1_555
O63_2 Na6_2 1_555 1_555
Sn7_4 O17_4 1_555 1_555
Sn12_4 O12_4 1_555 1_555
Sn12_4 O13_4 1_555 1_555
C33_4 C40_4 1_555 1_555
C58_4 O47_4 1_555 1_555
C58_4 O50_4 1_555 1_555
O45_4 H109_4 1_555 1_555
O45_4 H110_4 1_555 1_555
Na8_2 O32_4 1_555 1_555
O62_2 Na8_2 1_555 1_555
O63_2 C51_4 1_555 1_555
H23_4 C11_4 1_555 1_555
H24_4 C11_4 1_555 1_555
C12_4 C11_4 1_555 1_555
H25_4 C12_4 1_555 1_555
H26_4 C12_4 1_555 1_555
H27_4 C12_4 1_555 1_555
C50_4 O62_2 1_555 1_555
C51_4 O38_4 1_555 1_555
C50_4 C51_4 1_555 1_555
H101_4 C62_4 1_555 1_555
H102_4 C62_4 1_555 1_555
C63_4 C62_4 1_555 1_555
H103_4 C63_4 1_555 1_555
H104_4 C63_4 1_555 1_555
H58_3 C26_3 1_555 1_555
C27_3 C26_3 1_555 1_555
H59_3 C27_3 1_555 1_555
H60_3 C27_3 1_555 1_555
H5_4 C3_4 1_555 1_555
H6_4 C3_4 1_555 1_555
C4_4 C3_4 1_555 1_555
H7_4 C4_4 1_555 1_555
H9_4 C4_4 1_555 1_555
H32_4 C15_4 1_555 1_555
H33_4 C15_4 1_555 1_555
H58_4 C26_4 1_555 1_555
C27_4 C26_4 1_555 1_555
H59_4 C27_4 1_555 1_555
H60_4 C27_4 1_555 1_555
H61_4 C28_4 1_555 1_555
H62_4 C28_4 1_555 1_555
H63_4 C28_4 1_555 1_555

#END
