
###############################################################################
#
# This file contains modified crystal structure data generated from the
# MOF subset of the Cambridge Structural Database (CSD) v543 
# hosted by the Cambridge Crystallographic Data Centre (CCDC).
#
# This work is licensed under the Creative Commons
# Attribution-NonCommercial-ShareAlike 4.0 International License.
# To view a copy of this license, visit
# http://creativecommons.org/licenses/by-nc-sa/4.0/
# or send a letter to
# Creative Commons, PO Box 1866, Mountain View, CA 94042, USA.
#
# CIF created using the CSD Python API on 29 September 2022
# The structure has been converted into the P1 space group
# The structure has a 3D framework
# The original CSD entry AJUHUL is in the monoclinic crystal system
# The framework has been calculated to contain at least 10.0% void space
# The void calculation uses a probe of radius 1.32A, grid spacing 0.4
# H atom positions have been added when not included in the experimental data
#
###############################################################################

data_AJUHUL
_chemical_formula_moiety         '(C256 H448 Na16 O216 Sn48)n'
_symmetry_cell_setting           triclinic
_symmetry_space_group_name_H-M   'P 1'
_symmetry_Int_Tables_number      1
_space_group_name_Hall           'P 1'
loop_
_symmetry_equiv_pos_site_id
_symmetry_equiv_pos_as_xyz
1 x,y,z
_cell_length_a                   25.02(9)
_cell_length_b                   45.7(2)
_cell_length_c                   21.09(6)
_cell_angle_alpha                90
_cell_angle_beta                 124.443(15)
_cell_angle_gamma                90
_cell_volume                     19887.1
loop_
_atom_site_label
_atom_site_type_symbol
_atom_site_fract_x
_atom_site_fract_y
_atom_site_fract_z
C61 C 0.1101(19) 0.5704(8) 0.007(3)
H99 H 0.142579 0.584862 0.01984
H101 H 0.115095 0.563230 0.05246
Sn1 Sn 0.20521(15) 0.23470(7) 0.64846(16)
Sn3 Sn 0.02249(13) 0.24537(6) 0.50779(13)
Sn4 Sn 0.07585(14) 0.25467(6) 0.68711(15)
Sn5 Sn 0.13290(15) 0.31065(6) 0.64145(17)
O1 O 0.1273(14) 0.2952(6) 0.7336(15)
O2 O 0.0762(13) 0.2737(5) 0.5967(14)
O3 O 0.0220(13) 0.2255(5) 0.5963(14)
O8 O 0.2076(13) 0.2795(5) 0.6546(15)
O9 O 0.1650(12) 0.2359(5) 0.7118(13)
O10 O 0.1136(13) 0.2238(6) 0.5530(15)
O21 O 0.0993(13) 0.3203(6) 0.5217(15)
O22 O 0.0160(14) 0.3396(6) 0.4158(15)
O23 O 0.0435(14) 0.3369(6) 0.5986(15)
O29 O 0.0536(14) 0.1654(6) 0.5902(14)
C1 C 0.2474(18) 0.2435(7) 0.574(2)
H1 H 0.215400 0.251536 0.52404
H2 H 0.285732 0.255811 0.60070
C2 C 0.2632(17) 0.2114(7) 0.571(2)
H3 H 0.224064 0.199786 0.54000
H4 H 0.290163 0.202893 0.62180
C3 C 0.3018(16) 0.2140(6) 0.5305(19)
H5 H 0.272731 0.212333 0.47499
H6 H 0.325364 0.232362 0.54344
C4 C 0.3486(15) 0.1874(8) 0.5663(19)
H7 H 0.374871 0.186532 0.54640
H8 H 0.375955 0.189526 0.62117
H9 H 0.323821 0.169687 0.55337
C6 C 0.0114(15) 0.4943(8) 0.6732(18)
H12 H 0.018357 0.515245 0.67569
H13 H 0.012605 0.488291 0.71810
C7 C 0.0631(15) 0.4782(7) 0.670(2)
H14 H 0.102527 0.476419 0.72124
H15 H 0.048213 0.458632 0.64930
C8 C 0.0760(19) 0.4953(10) 0.619(2)
H16 H 0.108564 0.485553 0.61654
H17 H 0.036816 0.496840 0.56881
H18 H 0.090919 0.514558 0.64048
C9 C 0.021(3) 0.2586(12) 0.410(2)
H20 H 0.041195 0.277842 0.42258
C10 C 0.051(2) 0.2416(9) 0.374(2)
H21 H 0.096222 0.237048 0.41218
H22 H 0.027744 0.223457 0.35091
C11 C 0.045(2) 0.2622(11) 0.311(2)
H23 H 0.072255 0.255714 0.29514
H24 H 0.056050 0.282155 0.32982
C13 C 0.0961(17) 0.2283(7) 0.7791(19)
H28 H 0.085631 0.208107 0.76268
H29 H 0.141804 0.229514 0.82021
C14 C 0.0568(13) 0.2387(7) 0.8067(15)
H30 H 0.054496 0.223695 0.83760
H31 H 0.013107 0.243153 0.76344
C15 C 0.088(2) 0.2658(6) 0.854(2)
H32 H 0.064059 0.283105 0.82620
H33 H 0.132332 0.267720 0.86755
C16 C 0.089(2) 0.2616(8) 0.9280(18)
H34 H 0.108682 0.278292 0.96094
H35 H 0.045167 0.259585 0.91365
H36 H 0.113031 0.244292 0.95475
C17 C 0.2087(19) 0.3439(7) 0.717(2)
H37 H 0.201973 0.351907 0.75425
H38 H 0.251905 0.335713 0.74292
C18 C 0.0111(17) 0.5270(8) 0.8615(19)
H39 H 0.025540 0.514074 0.83759
H40 H 0.018075 0.546723 0.85036
C42 C 0.0493(16) 0.3362(8) 0.4863(18)
C43 C 0.0171(16) 0.3439(8) 0.5284(18)
O48 O 0.2998(14) 0.2324(6) 0.7611(16)
O49 O 0.3678(13) 0.1998(6) 0.8499(15)
C54 C 0.3178(16) 0.2069(6) 0.7857(18)
C55 C 0.0558(16) 0.1674(8) 0.7069(18)
C56 C 0.0862(17) 0.1585(8) 0.6619(18)
O50 O 0.0825(14) 0.1586(6) 0.7723(16)
O51 O 0.1380(13) 0.1443(6) 0.6989(16)
C57 C 0.2730(17) 0.1808(6) 0.7375(19)
O52 O 0.2880(14) 0.1565(6) 0.7657(16)
O53 O 0.2208(13) 0.1881(6) 0.6771(16)
C59 C 0.1975(17) 0.3671(7) 0.6581(19)
H95 H 0.155234 0.376106 0.63410
H96 H 0.201349 0.358735 0.61851
C60 C 0.061(2) 0.5233(8) 0.947(2)
H97 H 0.077033 0.503333 0.95942
H98 H 0.043548 0.528551 0.97632
H100 H 0.067851 0.578915 0.97349
C62 C 0.1175(16) 0.5451(9) 0.965(2)
H102 H 0.159608 0.535908 0.99765
H103 H 0.112003 0.551713 0.91807
C63 C 0.2526(16) 0.4106(8) 0.650(2)
H104 H 0.285665 0.425282 0.67671
H105 H 0.260399 0.399432 0.61758
H106 H 0.210992 0.419885 0.61944
C64 C 0.254(2) 0.3901(8) 0.709(2)
H107 H 0.245903 0.400884 0.74266
H108 H 0.295662 0.380287 0.74079
Na5 Na 0.1944(8) 0.1481(3) 0.8359(8)
Na7 Na 0.2195(9) 0.1124(4) 0.7127(11)
Na10 Na 0.3985(9) 0.1485(3) 0.8492(10)
Sn2 Sn 0.3590(2) 0.00365(8) 0.5863(2)
Sn6 Sn 0.40073(17) 0.02173(7) 0.78879(16)
Sn8 Sn 0.25348(19) 0.05727(7) 0.48468(18)
O11 O 0.3493(15) 0.0425(5) 0.5178(15)
O12 O 0.2682(15) 0.0232(6) 0.5513(15)
O17 O 0.2080(13) 0.0251(5) 0.4000(14)
O18 O 0.4038(15) 0.0286(6) 0.6932(15)
O19 O 0.2997(13) 0.0180(5) 0.7123(13)
O36 O 0.3818(14) 0.0250(5) 0.8794(13)
O37 O 0.3611(14) 0.0566(5) 0.9396(16)
O38 O 0.3886(15) 0.0666(6) 0.7989(14)
O39 O 0.3723(15) 0.1007(5) 0.8606(15)
O44 O 0.3040(15) 0.0838(6) 0.5911(16)
O45 O 0.2838(16) 0.1124(6) 0.6591(16)
O46 O 0.1668(15) 0.0678(6) 0.4949(15)
O47 O 0.1609(16) 0.0882(6) 0.5788(17)
H12_2 H 0.518357 0.015245 0.67569
H18_2 H 0.590919 0.014558 0.64048
C18_2 C 0.5111(17) 0.0270(8) 0.8615(19)
H39_2 H 0.525540 0.014074 0.83759
H40_2 H 0.518075 0.046723 0.85036
C23 C 0.2440(19) 0.0904(6) 0.409(2)
H50 H 0.286722 0.093744 0.41965
H51 H 0.217485 0.082393 0.35696
C24 C 0.2151(19) 0.1209(6) 0.407(2)
H52 H 0.169408 0.119192 0.38625
H53 H 0.237554 0.129107 0.45817
C25 C 0.225(2) 0.1397(6) 0.3557(19)
H54 H 0.184828 0.140328 0.30479
H55 H 0.257719 0.130759 0.35093
C26 C 0.2455(17) 0.1706(6) 0.3855(19)
H56 H 0.251020 0.181587 0.35076
H57 H 0.212768 0.179702 0.38919
H58 H 0.285675 0.170131 0.43533
C27 C 0.1483(14) 0.0171(8) 0.565(2)
H59 H 0.154484 0.037353 0.58177
H60 H 0.119217 0.016166 0.50983
H62 H 0.112831 0.012088 0.63093
C30 C 0.0073(14) 0.0005(9) 0.489(2)
H67 H 0.018198 0.011887 0.45964
C48 C 0.375(2) 0.0511(6) 0.893(2)
C49 C 0.378(2) 0.0754(6) 0.845(2)
C52 C 0.2656(17) 0.0947(9) 0.607(2)
C53 C 0.1962(18) 0.0839(9) 0.554(2)
C60_2 C 0.561(2) 0.0233(8) 0.947(2)
H97_2 H 0.577033 0.003333 0.95942
H98_2 H 0.543548 0.028551 0.97632
H100_2 H 0.567851 0.078915 0.97349
C62_2 C 0.6175(16) 0.0451(9) 0.965(2)
H102_2 H 0.659608 0.035908 0.99765
H103_2 H 0.612003 0.051713 0.91807
Na8 Na 0.3755(9) 0.1120(3) 0.9795(8)
Sn7 Sn 0.19637(17) 0.02164(7) 0.90521(16)
O4 O 0.4709(14) 0.2960(6) 0.9610(15)
O7 O 0.4265(12) 0.2362(5) 0.9739(12)
O16 O 0.2974(14) 0.0211(5) 0.9759(14)
O22_2 O 0.5160(14) 0.1604(6) 0.9158(15)
O24 O 0.4663(13) 0.1419(6) 0.9982(15)
O25 O 0.2993(13) 0.2323(5) 0.9279(15)
O26 O 0.2266(11) 0.2009(5) 0.8444(13)
O28 O 0.3113(14) 0.1562(6) 0.9308(16)
O31 O 0.1922(14) 0.1372(6) 0.9477(16)
O32 O 0.2146(15) 0.0240(5) 0.8149(14)
O33 O 0.2371(15) 0.0570(6) 0.7518(16)
O34 O 0.2149(16) 0.0684(6) 0.9029(16)
O35 O 0.2235(15) 0.0999(6) 0.8263(16)
H5_2 H 0.772731 0.287667 0.97499
C9_2 C 0.521(3) 0.2414(12) 0.910(2)
H19 H 0.476056 0.238504 0.86913
H20_2 H 0.541195 0.222158 0.92258
C10_2 C 0.551(2) 0.2584(9) 0.874(2)
H21_2 H 0.596222 0.262952 0.91218
H22_2 H 0.527744 0.276543 0.85091
C11_2 C 0.545(2) 0.2378(11) 0.811(2)
H23_2 H 0.572255 0.244286 0.79514
H24_2 H 0.556050 0.217845 0.82982
C12 C 0.471(2) 0.2401(12) 0.743(2)
H25 H 0.462968 0.227877 0.70144
H26 H 0.461023 0.260039 0.72598
H27 H 0.444935 0.233790 0.76041
C19 C 0.0984(19) 0.0179(6) 0.8188(19)
H41 H 0.075039 0.013838 0.84201
H42 H 0.092163 0.001432 0.78632
C20 C 0.0694(18) 0.0454(7) 0.7684(18)
H43 H 0.027471 0.041216 0.72154
H44 H 0.097952 0.053108 0.75506
C21 C 0.0628(17) 0.0669(7) 0.8189(19)
H45 H 0.070620 0.056982 0.86409
H46 H 0.094039 0.082622 0.83546
H75 H 0.353664 0.333823 0.96528
C35 C 0.4208(17) 0.3623(7) 0.974(2)
H76 H 0.466618 0.358682 0.99807
H77 H 0.398276 0.359436 0.91920
C36 C 0.4107(18) 0.3937(6) 0.991(2)
C37 C 0.3466(19) 0.4037(8) 0.917(2)
H80 H 0.337290 0.423385 0.92406
H81 H 0.312225 0.390993 0.90799
H82 H 0.350366 0.402859 0.87466
C42_2 C 0.5493(16) 0.1638(8) 0.9863(18)
C44 C 0.2789(15) 0.2069(6) 0.9049(17)
C45 C 0.3277(16) 0.1819(6) 0.9573(18)
C46 C 0.223(2) 0.0501(7) 0.800(2)
C47 C 0.219(2) 0.0749(7) 0.849(2)
O54 O 0.387(2) 0.1502(9) 0.733(2)
H109 H 0.399021 0.169978 0.725514
H110 H 0.341261 0.145991 0.690854
H111 H 0.23587 0.140584 0.995378
H112 H 0.179591 0.116441 0.945661
Sn2_2 Sn 0.8590(2) 0.50365(8) 0.5863(2)
Sn6_2 Sn 0.90073(17) 0.52173(7) 0.78879(16)
Sn7_2 Sn 0.69637(17) 0.47836(7) 0.40521(16)
Sn8_2 Sn 0.75348(19) 0.55727(7) 0.48468(18)
Sn9 Sn 0.73955(10) 0.49587(4) 0.60651(10)
Sn10 Sn 0.89195(15) 0.26537(7) 0.54404(15)
Sn11 Sn 0.96639(15) 0.18935(6) 0.55375(18)
Sn12 Sn 0.8436(2) 0.44283(6) 0.70805(19)
Na1 Na 0.6944(8) 0.3519(3) 0.3359(8)
Na2 Na 0.7195(9) 0.3876(4) 0.2127(11)
Na3 Na 0.8755(9) 0.3880(3) 0.4795(8)
Na4 Na 0.8985(9) 0.3515(3) 0.3492(10)
O4_2 O 0.9709(14) 0.2040(6) 0.4610(15)
O5 O 0.9832(14) 0.2766(6) 0.6413(16)
O6 O 0.8977(12) 0.2189(5) 0.5398(15)
O7_2 O 0.9265(12) 0.2638(5) 0.4739(12)
O11_2 O 0.8493(15) 0.5425(5) 0.5178(15)
O12_2 O 0.7682(15) 0.5232(6) 0.5513(15)
O13 O 0.8273(15) 0.4768(6) 0.6395(15)
O14 O 0.7483(17) 0.4571(6) 0.6691(16)
O15 O 0.6967(15) 0.4691(6) 0.5058(16)
O16_2 O 0.7974(14) 0.4789(5) 0.4759(14)
O17_2 O 0.7080(13) 0.5251(5) 0.4000(14)
O18_2 O 0.9038(15) 0.5286(6) 0.6932(15)
O19_2 O 0.7997(13) 0.5180(5) 0.7123(13)
O20 O 0.9077(13) 0.4755(5) 0.7942(15)
O24_2 O 0.9663(13) 0.3581(6) 0.4982(15)
O25_2 O 0.7993(13) 0.2677(5) 0.4279(15)
O26_2 O 0.7266(11) 0.2991(5) 0.3444(13)
O27 O 0.8791(13) 0.3110(5) 0.5203(15)
O28_2 O 0.8113(14) 0.3438(6) 0.4308(16)
O30 O 0.9995(14) 0.1781(6) 0.6662(15)
O31_2 O 0.6922(14) 0.3628(6) 0.4477(16)
O32_2 O 0.7146(15) 0.4760(5) 0.3149(14)
O33_2 O 0.7371(15) 0.4430(6) 0.2518(16)
O34_2 O 0.7149(16) 0.4316(6) 0.4029(16)
O35_2 O 0.7235(15) 0.4001(6) 0.3263(16)
O36_2 O 0.8818(14) 0.5250(5) 0.8794(13)
O37_2 O 0.8611(14) 0.5566(5) 0.9396(16)
O38_2 O 0.8886(15) 0.5666(6) 0.7989(14)
O39_2 O 0.8723(15) 0.6007(5) 0.8606(15)
O40 O 0.7959(15) 0.4138(7) 0.6103(16)
O41 O 0.8139(16) 0.3924(6) 0.5300(17)
O42 O 0.9195(14) 0.4300(6) 0.6973(16)
O43 O 0.9368(16) 0.4056(6) 0.6188(18)
O44_2 O 0.8040(15) 0.5838(6) 0.5911(16)
O45_2 O 0.7838(16) 0.6124(6) 0.6591(16)
O46_2 O 0.6668(15) 0.5678(6) 0.4949(15)
O47_2 O 0.6609(16) 0.5882(6) 0.5788(17)
C5 C 0.9459(13) 0.4862(8) 0.5994(17)
H10 H 0.942500 0.465021 0.59651
H11 H 0.946305 0.492752 0.55589
H19_2 H 0.976056 0.261496 0.36913
C12_2 C 0.971(2) 0.2599(12) 0.243(2)
H25_2 H 0.962968 0.272123 0.20144
H26_2 H 0.961023 0.239961 0.22598
H27_2 H 0.944935 0.266210 0.26041
C19_2 C 0.5984(19) 0.4821(6) 0.3188(19)
H41_2 H 0.575039 0.486162 0.34201
H42_2 H 0.592163 0.498568 0.28632
C20_2 C 0.5694(18) 0.4546(7) 0.2684(18)
H43_2 H 0.527471 0.458784 0.22154
H44_2 H 0.597952 0.446892 0.25506
C21_2 C 0.5628(17) 0.4331(7) 0.3189(19)
H45_2 H 0.570620 0.443018 0.36409
H46_2 H 0.594039 0.417378 0.33546
C22 C 0.4929(18) 0.4208(10) 0.270(3)
H47 H 0.486995 0.407171 0.30009
H48 H 0.462504 0.436620 0.25396
H49 H 0.485817 0.411097 0.22546
C23_2 C 0.7440(19) 0.5904(6) 0.409(2)
H50_2 H 0.786722 0.593744 0.41965
H51_2 H 0.717485 0.582393 0.35696
C24_2 C 0.7151(19) 0.6209(6) 0.407(2)
H52_2 H 0.669408 0.619192 0.38625
H53_2 H 0.737554 0.629107 0.45817
C25_2 C 0.725(2) 0.6397(6) 0.3557(19)
H54_2 H 0.684828 0.640328 0.30479
H55_2 H 0.757719 0.630759 0.35093
C26_2 C 0.7455(17) 0.6706(6) 0.3855(19)
H56_2 H 0.751020 0.681587 0.35076
H57_2 H 0.712768 0.679702 0.38919
H58_2 H 0.785675 0.670131 0.43533
C27_2 C 0.6483(14) 0.5171(8) 0.565(2)
H59_2 H 0.654484 0.537353 0.58177
H60_2 H 0.619217 0.516166 0.50983
C28 C 0.6234(15) 0.4991(8) 0.6031(16)
H61 H 0.657442 0.486041 0.64007
H62_2 H 0.612831 0.512088 0.63093
C29 C 0.5665(17) 0.4820(7) 0.549(2)
H63 H 0.554601 0.470171 0.57722
H64 H 0.577514 0.468775 0.52188
C30_2 C 0.5073(14) 0.5005(9) 0.489(2)
H65 H 0.471727 0.487733 0.45531
H66 H 0.495258 0.513284 0.51505
H67_2 H 0.518198 0.511887 0.45964
C31 C 0.8286(16) 0.2642(8) 0.5896(14)
H68 H 0.800578 0.281234 0.57274
H69 H 0.802204 0.246664 0.57283
C32 C 0.8762(13) 0.2643(11) 0.6743(14)
H70 H 0.895358 0.283618 0.69193
H71 H 0.910543 0.250314 0.68940
C33 C 0.8373(18) 0.2558(10) 0.7093(17)
H72 H 0.797938 0.267254 0.68638
H73 H 0.825981 0.235157 0.70112
C34 C 0.8952(19) 0.1581(6) 0.506(2)
H74 H 0.891089 0.148655 0.54383
H75_2 H 0.853664 0.166177 0.46528
C35_2 C 0.9208(17) 0.1377(7) 0.474(2)
H76_2 H 0.966618 0.141318 0.49807
H77_2 H 0.898276 0.140564 0.41920
C36_2 C 0.9107(18) 0.1063(6) 0.491(2)
H78 H 0.907828 0.105759 0.53474
H79 H 0.946210 0.093818 0.50120
C37_2 C 0.8466(19) 0.0963(8) 0.417(2)
H80_2 H 0.837290 0.076615 0.42406
H81_2 H 0.812225 0.109007 0.40799
H82_2 H 0.850366 0.097141 0.37466
C38 C 0.8862(17) 0.4087(8) 0.812(2)
H83 H 0.917543 0.395332 0.81432
H84 H 0.903899 0.418019 0.86103
C39 C 0.8205(18) 0.3948(6) 0.779(2)
H85 H 0.818310 0.387405 0.82025
H86 H 0.786888 0.409467 0.75108
C40 C 0.8091(19) 0.3706(8) 0.7260(19)
H87 H 0.849993 0.364207 0.73548
H88 H 0.781573 0.377279 0.67317
C41 C 0.776(2) 0.3444(8) 0.739(3)
H89 H 0.768529 0.328766 0.70433
H90 H 0.803407 0.337731 0.79085
H91 H 0.735148 0.350772 0.72869
C44_2 C 0.7789(15) 0.2931(6) 0.4049(17)
C45_2 C 0.8277(16) 0.3181(6) 0.4573(18)
C46_2 C 0.723(2) 0.4499(7) 0.300(2)
C47_2 C 0.719(2) 0.4251(7) 0.349(2)
C48_2 C 0.875(2) 0.5511(6) 0.893(2)
C49_2 C 0.878(2) 0.5754(6) 0.845(2)
C50 C 0.8305(19) 0.4072(10) 0.588(2)
C51 C 0.9015(19) 0.4149(10) 0.639(2)
C52_2 C 0.7656(17) 0.5947(9) 0.607(2)
C53_2 C 0.6962(18) 0.5839(9) 0.554(2)
C58 C 0.884(2) 0.2626(11) 0.7953(18)
H92 H 0.863461 0.257871 0.82117
H93 H 0.922645 0.251145 0.81661
H94 H 0.894799 0.283017 0.80197
O54_2 O 0.887(2) 0.3498(9) 0.233(2)
Na6 Na 0.7195(9) 0.6124(4) 0.7127(11)
Na8_2 Na 0.8755(9) 0.6120(3) 0.9795(8)
Na9 Na 0.8985(9) 0.6485(3) 0.8492(10)
O55 O 0.8611(14) 0.4434(5) 0.4396(16)
O56 O 0.8723(15) 0.3993(5) 0.3606(15)
O57 O 0.7838(16) 0.3876(6) 0.1591(16)
O58 O 0.6609(16) 0.4118(6) 0.0788(17)
O59 O 0.8678(13) 0.3002(6) 0.3499(15)
O60 O 0.5825(14) 0.3414(6) 0.2723(16)
O61 O 0.6380(13) 0.3557(6) 0.1989(16)
O62 O 0.7880(14) 0.3435(6) 0.2657(16)
H109_2 H 0.899021 0.330022 0.225514
H110_2 H 0.841261 0.354009 0.190854
H111_2 H 0.73587 0.359416 0.495378
H112_2 H 0.679591 0.383559 0.445661
Sn1_2 Sn 0.20521(15) 0.76530(7) 0.14846(16)
Sn3_2 Sn 0.02249(13) 0.75463(6) 0.00779(13)
Sn4_2 Sn 0.07585(14) 0.74533(6) 0.18711(15)
Sn5_2 Sn 0.13290(15) 0.68935(6) 0.14145(17)
O1_2 O 0.1273(14) 0.7048(6) 0.2336(15)
O2_2 O 0.0762(13) 0.7263(5) 0.0967(14)
O3_2 O 0.0220(13) 0.7745(5) 0.0963(14)
O8_2 O 0.2076(13) 0.7205(5) 0.1546(15)
O9_2 O 0.1650(12) 0.7641(5) 0.2118(13)
O10_2 O 0.1136(13) 0.7762(6) 0.0530(15)
O21_2 O 0.0993(13) 0.6797(6) 0.0217(15)
O23_2 O 0.0435(14) 0.6631(6) 0.0986(15)
O29_2 O 0.0536(14) 0.8346(6) 0.0902(14)
C1_2 C 0.2474(18) 0.7565(7) 0.074(2)
H1_2 H 0.215400 0.748464 0.02404
H2_2 H 0.285732 0.744189 0.10070
C2_2 C 0.2632(17) 0.7886(7) 0.071(2)
H3_2 H 0.224064 0.800214 0.04000
H4_2 H 0.290163 0.797107 0.12180
C3_2 C 0.3018(16) 0.7860(6) 0.0305(19)
H6_2 H 0.325364 0.767638 0.04344
C4_2 C 0.3486(15) 0.8126(8) 0.0663(19)
H7_2 H 0.374871 0.813468 0.04640
H8_2 H 0.375955 0.810474 0.12117
H9_2 H 0.323821 0.830313 0.05337
C6_2 C 0.0114(15) 0.5057(8) 0.1732(18)
H12_3 H 0.018357 0.484755 0.17569
H13_2 H 0.012605 0.511709 0.21810
C7_2 C 0.0631(15) 0.5218(7) 0.170(2)
H14_2 H 0.102527 0.523581 0.22124
H15_2 H 0.048213 0.541368 0.14930
C8_2 C 0.0760(19) 0.5047(10) 0.119(2)
H16_2 H 0.108564 0.514447 0.11654
H17_2 H 0.036816 0.503160 0.06881
H18_3 H 0.090919 0.485442 0.14048
C13_2 C 0.0961(17) 0.7717(7) 0.2791(19)
H28_2 H 0.085631 0.791893 0.26268
H29_2 H 0.141804 0.770486 0.32021
C14_2 C 0.0568(13) 0.7613(7) 0.3067(15)
H30_2 H 0.054496 0.776305 0.33760
H31_2 H 0.013107 0.756847 0.26344
C15_2 C 0.088(2) 0.7342(6) 0.354(2)
H32_2 H 0.064059 0.716895 0.32620
H33_2 H 0.132332 0.732280 0.36755
C16_2 C 0.089(2) 0.7384(8) 0.4280(18)
H34_2 H 0.108682 0.721708 0.46094
H35_2 H 0.045167 0.740415 0.41365
H36_2 H 0.113031 0.755708 0.45475
C17_2 C 0.2087(19) 0.6561(7) 0.217(2)
H37_2 H 0.201973 0.648093 0.25425
H38_2 H 0.251905 0.664287 0.24292
C18_3 C 0.0111(17) 0.4730(8) 0.3615(19)
H39_3 H 0.025540 0.485926 0.33759
H40_3 H 0.018075 0.453277 0.35036
C43_2 C 0.0171(16) 0.6561(8) 0.0284(18)
O48_2 O 0.2998(14) 0.7676(6) 0.2611(16)
O49_2 O 0.3678(13) 0.8002(6) 0.3499(15)
C54_2 C 0.3178(16) 0.7931(6) 0.2857(18)
C55_2 C 0.0558(16) 0.8326(8) 0.2069(18)
C56_2 C 0.0862(17) 0.8415(8) 0.1619(18)
O50_2 O 0.0825(14) 0.8414(6) 0.2723(16)
O51_2 O 0.1380(13) 0.8557(6) 0.1989(16)
C57_2 C 0.2730(17) 0.8192(6) 0.2375(19)
O52_2 O 0.2880(14) 0.8435(6) 0.2657(16)
O53_2 O 0.2208(13) 0.8119(6) 0.1771(16)
C59_2 C 0.1975(17) 0.6329(7) 0.1581(19)
H95_2 H 0.155234 0.623894 0.13410
H96_2 H 0.201349 0.641265 0.11851
C60_3 C 0.061(2) 0.4767(8) 0.447(2)
H97_3 H 0.077033 0.496667 0.45942
H98_3 H 0.043548 0.471449 0.47632
C61_2 C 0.1101(19) 0.4296(8) 0.507(3)
H99_2 H 0.142579 0.415138 0.51984
H100_3 H 0.067851 0.421085 0.47349
H101_2 H 0.115095 0.436770 0.55246
C62_3 C 0.1175(16) 0.4549(9) 0.465(2)
H102_3 H 0.159608 0.464092 0.49765
H103_3 H 0.112003 0.448287 0.41807
C63_2 C 0.2526(16) 0.5894(8) 0.150(2)
H104_2 H 0.285665 0.574718 0.17671
H105_2 H 0.260399 0.600568 0.11758
H106_2 H 0.210992 0.580115 0.11944
C64_2 C 0.254(2) 0.6099(8) 0.209(2)
H107_2 H 0.245903 0.599116 0.24266
H108_2 H 0.295662 0.619713 0.24079
Na5_2 Na 0.1944(8) 0.8519(3) 0.3359(8)
Na7_2 Na 0.2195(9) 0.8876(4) 0.2127(11)
Na10_2 Na 0.3985(9) 0.8515(3) 0.3492(10)
Sn2_3 Sn 0.8590(2) 0.49635(8) 0.0863(2)
Sn6_3 Sn 0.90073(17) 0.47827(7) 0.28879(16)
Sn9_2 Sn 0.73955(10) 0.50413(4) 0.10651(10)
Sn10_2 Sn 0.89195(15) 0.73463(7) 0.04404(15)
Sn11_2 Sn 0.96639(15) 0.81065(6) 0.05375(18)
Sn12_2 Sn 0.8436(2) 0.55717(6) 0.20805(19)
O5_2 O 0.9832(14) 0.7234(6) 0.1413(16)
O6_2 O 0.8977(12) 0.7811(5) 0.0398(15)
O11_3 O 0.8493(15) 0.4575(5) 0.0178(15)
O12_3 O 0.7682(15) 0.4768(6) 0.0513(15)
O13_2 O 0.8273(15) 0.5232(6) 0.1395(15)
O14_2 O 0.7483(17) 0.5429(6) 0.1691(16)
O15_2 O 0.6967(15) 0.5309(6) 0.0058(16)
O18_3 O 0.9038(15) 0.4714(6) 0.1932(15)
O19_3 O 0.7997(13) 0.4820(5) 0.2123(13)
O20_2 O 0.9077(13) 0.5245(5) 0.2942(15)
O27_2 O 0.8791(13) 0.6890(5) 0.0203(15)
O30_2 O 0.9995(14) 0.8219(6) 0.1662(15)
O36_3 O 0.8818(14) 0.4750(5) 0.3794(13)
O38_3 O 0.8886(15) 0.4334(6) 0.2989(14)
O40_2 O 0.7959(15) 0.5862(7) 0.1103(16)
O41_2 O 0.8139(16) 0.6076(6) 0.0300(17)
O42_2 O 0.9195(14) 0.5700(6) 0.1973(16)
O43_2 O 0.9368(16) 0.5944(6) 0.1188(18)
O44_3 O 0.8040(15) 0.4162(6) 0.0911(16)
C5_2 C 0.9459(13) 0.5138(8) 0.0994(17)
H10_2 H 0.942500 0.534979 0.09651
H11_2 H 0.946305 0.507248 0.05589
C27_3 C 0.6483(14) 0.4829(8) 0.065(2)
H59_3 H 0.654484 0.462647 0.08177
H60_3 H 0.619217 0.483834 0.00983
C28_2 C 0.6234(15) 0.5009(8) 0.1031(16)
H61_2 H 0.657442 0.513959 0.14007
H62_3 H 0.612831 0.487912 0.13093
C29_2 C 0.5665(17) 0.5180(7) 0.049(2)
H63_2 H 0.554601 0.529829 0.07722
H64_2 H 0.577514 0.531225 0.02188
H66_2 H 0.495258 0.486716 0.01505
C31_2 C 0.8286(16) 0.7358(8) 0.0896(14)
H68_2 H 0.800578 0.718766 0.07274
H69_2 H 0.802204 0.753336 0.07283
C32_2 C 0.8762(13) 0.7357(11) 0.1743(14)
H70_2 H 0.895358 0.716382 0.19193
H71_2 H 0.910543 0.749686 0.18940
C33_2 C 0.8373(18) 0.7442(10) 0.2093(17)
H72_2 H 0.797938 0.732746 0.18638
H73_2 H 0.825981 0.764843 0.20112
C34_2 C 0.8952(19) 0.8419(6) 0.006(2)
H74_2 H 0.891089 0.851345 0.04383
H78_2 H 0.907828 0.894241 0.03474
H79_2 H 0.946210 0.906182 0.00120
C38_2 C 0.8862(17) 0.5913(8) 0.312(2)
H83_2 H 0.917543 0.604668 0.31432
H84_2 H 0.903899 0.581981 0.36103
C39_2 C 0.8205(18) 0.6052(6) 0.279(2)
H85_2 H 0.818310 0.612595 0.32025
H86_2 H 0.786888 0.590533 0.25108
C40_2 C 0.8091(19) 0.6294(8) 0.2260(19)
H87_2 H 0.849993 0.635793 0.23548
H88_2 H 0.781573 0.622721 0.17317
C41_2 C 0.776(2) 0.6556(8) 0.239(3)
H89_2 H 0.768529 0.671234 0.20433
H90_2 H 0.803407 0.662269 0.29085
H91_2 H 0.735148 0.649228 0.22869
C48_3 C 0.875(2) 0.4489(6) 0.393(2)
C49_3 C 0.878(2) 0.4246(6) 0.345(2)
C50_2 C 0.8305(19) 0.5928(10) 0.088(2)
C51_2 C 0.9015(19) 0.5851(10) 0.139(2)
C52_3 C 0.7656(17) 0.4053(9) 0.107(2)
C53_3 C 0.6962(18) 0.4161(9) 0.054(2)
C58_2 C 0.884(2) 0.7374(11) 0.2953(18)
H92_2 H 0.863461 0.742129 0.32117
H93_2 H 0.922645 0.748855 0.31661
H94_2 H 0.894799 0.716983 0.30197
Sn7_3 Sn 0.69637(17) 0.52164(7) 0.90521(16)
Sn8_3 Sn 0.75348(19) 0.44273(7) 0.98468(18)
Na1_2 Na 0.6944(8) 0.6481(3) 0.8359(8)
O4_3 O 0.9709(14) 0.7960(6) 0.9610(15)
O7_3 O 0.9265(12) 0.7362(5) 0.9739(12)
O16_3 O 0.7974(14) 0.5211(5) 0.9759(14)
O17_3 O 0.7080(13) 0.4749(5) 0.9000(14)
O24_3 O 0.9663(13) 0.6419(6) 0.9982(15)
O25_3 O 0.7993(13) 0.7323(5) 0.9279(15)
O26_3 O 0.7266(11) 0.7009(5) 0.8444(13)
O28_3 O 0.8113(14) 0.6562(6) 0.9308(16)
O31_3 O 0.6922(14) 0.6372(6) 0.9477(16)
O32_3 O 0.7146(15) 0.5240(5) 0.8149(14)
O33_3 O 0.7371(15) 0.5570(6) 0.7518(16)
O34_3 O 0.7149(16) 0.5684(6) 0.9029(16)
O35_3 O 0.7235(15) 0.5999(6) 0.8263(16)
O46_3 O 0.6668(15) 0.4322(6) 0.9949(15)
H19_3 H 0.976056 0.738504 0.86913
C12_3 C 0.971(2) 0.7401(12) 0.743(2)
H25_3 H 0.962968 0.727877 0.70144
H26_3 H 0.961023 0.760039 0.72598
H27_3 H 0.944935 0.733790 0.76041
C19_3 C 0.5984(19) 0.5179(6) 0.8188(19)
H41_3 H 0.575039 0.513838 0.84201
H42_3 H 0.592163 0.501432 0.78632
C20_3 C 0.5694(18) 0.5454(7) 0.7684(18)
H43_3 H 0.527471 0.541216 0.72154
H44_3 H 0.597952 0.553108 0.75506
C21_3 C 0.5628(17) 0.5669(7) 0.8189(19)
H45_3 H 0.570620 0.556982 0.86409
H46_3 H 0.594039 0.582622 0.83546
C22_2 C 0.4929(18) 0.5792(10) 0.770(3)
H47_2 H 0.486995 0.592829 0.80009
H48_2 H 0.462504 0.563380 0.75396
H49_2 H 0.485817 0.588903 0.72546
C23_3 C 0.7440(19) 0.4096(6) 0.909(2)
H50_3 H 0.786722 0.406256 0.91965
H51_3 H 0.717485 0.417607 0.85696
C24_3 C 0.7151(19) 0.3791(6) 0.907(2)
H52_3 H 0.669408 0.380808 0.88625
H53_3 H 0.737554 0.370893 0.95817
C25_3 C 0.725(2) 0.3603(6) 0.8557(19)
H54_3 H 0.684828 0.359672 0.80479
H55_3 H 0.757719 0.369241 0.85093
C26_3 C 0.7455(17) 0.3294(6) 0.8855(19)
H56_3 H 0.751020 0.318413 0.85076
H57_3 H 0.712768 0.320298 0.88919
H58_3 H 0.785675 0.329869 0.93533
C30_3 C 0.5073(14) 0.4995(9) 0.989(2)
H65_2 H 0.471727 0.512267 0.95531
H67_3 H 0.518198 0.488113 0.95964
H75_3 H 0.853664 0.833823 0.96528
C35_3 C 0.9208(17) 0.8623(7) 0.974(2)
H76_3 H 0.966618 0.858682 0.99807
H77_3 H 0.898276 0.859436 0.91920
C36_3 C 0.9107(18) 0.8937(6) 0.991(2)
C37_3 C 0.8466(19) 0.9037(8) 0.917(2)
H80_3 H 0.837290 0.923385 0.92406
H81_3 H 0.812225 0.890993 0.90799
H82_3 H 0.850366 0.902859 0.87466
C44_3 C 0.7789(15) 0.7069(6) 0.9049(17)
C45_3 C 0.8277(16) 0.6819(6) 0.9573(18)
C46_3 C 0.723(2) 0.5501(7) 0.800(2)
C47_3 C 0.719(2) 0.5749(7) 0.849(2)
O54_3 O 0.887(2) 0.6502(9) 0.733(2)
O59_2 O 0.8678(13) 0.6998(6) 0.8499(15)
O60_2 O 0.5825(14) 0.6586(6) 0.7723(16)
O61_2 O 0.6380(13) 0.6443(6) 0.6989(16)
O62_2 O 0.7880(14) 0.6565(6) 0.7657(16)
H109_3 H 0.899021 0.669978 0.725514
H110_3 H 0.841261 0.645991 0.690854
H111_3 H 0.73587 0.640584 0.995378
H112_3 H 0.679591 0.616441 0.945661
Sn1_3 Sn 0.70521(15) 0.73470(7) 0.64846(16)
Sn3_3 Sn 0.52249(13) 0.74537(6) 0.50779(13)
Sn4_3 Sn 0.57585(14) 0.75467(6) 0.68711(15)
Sn5_3 Sn 0.63290(15) 0.81065(6) 0.64145(17)
Sn7_4 Sn 0.19637(17) 0.97836(7) 0.40521(16)
Sn9_3 Sn 0.23955(10) 0.99587(4) 0.60651(10)
Sn10_3 Sn 0.39195(15) 0.76537(7) 0.54404(15)
Sn11_3 Sn 0.46639(15) 0.68935(6) 0.55375(18)
Sn12_3 Sn 0.3436(2) 0.94283(6) 0.70805(19)
Na3_2 Na 0.3755(9) 0.8880(3) 0.4795(8)
O1_3 O 0.6273(14) 0.7952(6) 0.7336(15)
O2_3 O 0.5762(13) 0.7737(5) 0.5967(14)
O3_3 O 0.5220(13) 0.7255(5) 0.5963(14)
O4_4 O 0.4709(14) 0.7040(6) 0.4610(15)
O5_3 O 0.4832(14) 0.7766(6) 0.6413(16)
O6_3 O 0.3977(12) 0.7189(5) 0.5398(15)
O7_4 O 0.4265(12) 0.7638(5) 0.4739(12)
O8_3 O 0.7076(13) 0.7795(5) 0.6546(15)
O9_3 O 0.6650(12) 0.7359(5) 0.7118(13)
O10_3 O 0.6136(13) 0.7238(6) 0.5530(15)
O13_3 O 0.3273(15) 0.9768(6) 0.6395(15)
O14_3 O 0.2483(17) 0.9571(6) 0.6691(16)
O15_3 O 0.1967(15) 0.9691(6) 0.5058(16)
O16_4 O 0.2974(14) 0.9789(5) 0.4759(14)
O20_3 O 0.4077(13) 0.9755(5) 0.7942(15)
O21_3 O 0.5993(13) 0.8203(6) 0.5217(15)
O22_3 O 0.5160(14) 0.8396(6) 0.4158(15)
O23_3 O 0.5435(14) 0.8369(6) 0.5986(15)
O24_4 O 0.4663(13) 0.8581(6) 0.4982(15)
O25_4 O 0.2993(13) 0.7677(5) 0.4279(15)
O26_4 O 0.2266(11) 0.7991(5) 0.3444(13)
O27_3 O 0.3791(13) 0.8110(5) 0.5203(15)
O28_4 O 0.3113(14) 0.8438(6) 0.4308(16)
O29_3 O 0.5536(14) 0.6654(6) 0.5902(14)
O30_3 O 0.4995(14) 0.6781(6) 0.6662(15)
O31_4 O 0.1922(14) 0.8628(6) 0.4477(16)
O32_4 O 0.2146(15) 0.9760(5) 0.3149(14)
O33_4 O 0.2371(15) 0.9430(6) 0.2518(16)
O34_4 O 0.2149(16) 0.9316(6) 0.4029(16)
O35_4 O 0.2235(15) 0.9001(6) 0.3263(16)
O40_3 O 0.2959(15) 0.9138(7) 0.6103(16)
O41_3 O 0.3139(16) 0.8924(6) 0.5300(17)
O42_3 O 0.4195(14) 0.9300(6) 0.6973(16)
O43_3 O 0.4368(16) 0.9056(6) 0.6188(18)
C1_3 C 0.7474(18) 0.7435(7) 0.574(2)
H1_3 H 0.715400 0.751536 0.52404
H2_3 H 0.785732 0.755811 0.60070
C2_3 C 0.7632(17) 0.7114(7) 0.571(2)
H3_3 H 0.724064 0.699786 0.54000
H4_3 H 0.790163 0.702893 0.62180
C3_3 C 0.8018(16) 0.7140(6) 0.5305(19)
H5_3 H 0.772731 0.712333 0.47499
H6_3 H 0.825364 0.732362 0.54344
C4_3 C 0.8486(15) 0.6874(8) 0.5663(19)
H7_3 H 0.874871 0.686532 0.54640
H8_3 H 0.875955 0.689526 0.62117
H9_3 H 0.823821 0.669687 0.55337
C5_3 C 0.4459(13) 0.9862(8) 0.5994(17)
H10_3 H 0.442500 0.965021 0.59651
H11_3 H 0.446305 0.992752 0.55589
C6_3 C 0.5114(15) 0.9943(8) 0.6732(18)
H13_3 H 0.512605 0.988291 0.71810
C7_3 C 0.5631(15) 0.9782(7) 0.670(2)
H14_3 H 0.602527 0.976419 0.72124
H15_3 H 0.548213 0.958632 0.64930
C8_3 C 0.5760(19) 0.9953(10) 0.619(2)
H16_3 H 0.608564 0.985553 0.61654
H17_3 H 0.536816 0.996840 0.56881
C9_3 C 0.521(3) 0.7586(12) 0.410(2)
H19_4 H 0.476056 0.761496 0.36913
H20_3 H 0.541195 0.777842 0.42258
C10_3 C 0.551(2) 0.7416(9) 0.374(2)
H21_3 H 0.596222 0.737048 0.41218
H22_3 H 0.527744 0.723457 0.35091
C11_3 C 0.545(2) 0.7622(11) 0.311(2)
H23_3 H 0.572255 0.755714 0.29514
H24_3 H 0.556050 0.782155 0.32982
C12_4 C 0.471(2) 0.7599(12) 0.243(2)
H25_4 H 0.462968 0.772123 0.20144
H26_4 H 0.461023 0.739961 0.22598
H27_4 H 0.444935 0.766210 0.26041
C13_3 C 0.5961(17) 0.7283(7) 0.7791(19)
H28_3 H 0.585631 0.708107 0.76268
H29_3 H 0.641804 0.729514 0.82021
C14_3 C 0.5568(13) 0.7387(7) 0.8067(15)
H30_3 H 0.554496 0.723695 0.83760
H31_3 H 0.513107 0.743153 0.76344
C15_3 C 0.588(2) 0.7658(6) 0.854(2)
H32_3 H 0.564059 0.783105 0.82620
H33_3 H 0.632332 0.767720 0.86755
C16_3 C 0.589(2) 0.7616(8) 0.9280(18)
H34_3 H 0.608682 0.778292 0.96094
H35_3 H 0.545167 0.759585 0.91365
H36_3 H 0.613031 0.744292 0.95475
C17_3 C 0.7087(19) 0.8439(7) 0.717(2)
H37_3 H 0.701973 0.851907 0.75425
H38_3 H 0.751905 0.835713 0.74292
C19_4 C 0.0984(19) 0.9821(6) 0.3188(19)
H41_4 H 0.075039 0.986162 0.34201
H42_4 H 0.092163 0.998568 0.28632
C20_4 C 0.0694(18) 0.9546(7) 0.2684(18)
H43_4 H 0.027471 0.958784 0.22154
H44_4 H 0.097952 0.946892 0.25506
C21_4 C 0.0628(17) 0.9331(7) 0.3189(19)
H45_4 H 0.070620 0.943018 0.36409
H46_4 H 0.094039 0.917378 0.33546
C28_3 C 0.1234(15) 0.9991(8) 0.6031(16)
H61_3 H 0.157442 0.986041 0.64007
C29_3 C 0.0665(17) 0.9820(7) 0.549(2)
H63_3 H 0.054601 0.970171 0.57722
H64_3 H 0.077514 0.968775 0.52188
C31_3 C 0.3286(16) 0.7642(8) 0.5896(14)
H68_3 H 0.300578 0.781234 0.57274
H69_3 H 0.302204 0.746664 0.57283
C32_3 C 0.3762(13) 0.7643(11) 0.6743(14)
H70_3 H 0.395358 0.783618 0.69193
H71_3 H 0.410543 0.750314 0.68940
C33_3 C 0.3373(18) 0.7558(10) 0.7093(17)
H72_3 H 0.297938 0.767254 0.68638
H73_3 H 0.325981 0.735157 0.70112
C34_3 C 0.3952(19) 0.6581(6) 0.506(2)
H74_3 H 0.391089 0.648655 0.54383
H75_4 H 0.353664 0.666177 0.46528
C35_4 C 0.4208(17) 0.6377(7) 0.474(2)
H76_4 H 0.466618 0.641318 0.49807
H77_4 H 0.398276 0.640564 0.41920
C36_4 C 0.4107(18) 0.6063(6) 0.491(2)
H78_3 H 0.407828 0.605759 0.53474
H79_3 H 0.446210 0.593818 0.50120
C37_4 C 0.3466(19) 0.5963(8) 0.417(2)
H80_4 H 0.337290 0.576615 0.42406
H81_4 H 0.312225 0.609007 0.40799
H82_4 H 0.350366 0.597141 0.37466
C38_3 C 0.3862(17) 0.9087(8) 0.812(2)
H83_3 H 0.417543 0.895332 0.81432
H84_3 H 0.403899 0.918019 0.86103
C39_3 C 0.3205(18) 0.8948(6) 0.779(2)
H85_3 H 0.318310 0.887405 0.82025
H86_3 H 0.286888 0.909467 0.75108
C40_3 C 0.3091(19) 0.8706(8) 0.7260(19)
H87_3 H 0.349993 0.864207 0.73548
H88_3 H 0.281573 0.877279 0.67317
C41_3 C 0.276(2) 0.8444(8) 0.739(3)
H89_3 H 0.268529 0.828766 0.70433
H90_3 H 0.303407 0.837731 0.79085
H91_3 H 0.235148 0.850772 0.72869
C42_3 C 0.5493(16) 0.8362(8) 0.4863(18)
C43_3 C 0.5171(16) 0.8439(8) 0.5284(18)
C44_4 C 0.2789(15) 0.7931(6) 0.4049(17)
C45_4 C 0.3277(16) 0.8181(6) 0.4573(18)
C46_4 C 0.223(2) 0.9499(7) 0.300(2)
C47_4 C 0.219(2) 0.9251(7) 0.349(2)
C50_3 C 0.3305(19) 0.9072(10) 0.588(2)
C51_3 C 0.4015(19) 0.9149(10) 0.639(2)
O48_3 O 0.7998(14) 0.7324(6) 0.7611(16)
C54_3 C 0.8178(16) 0.7069(6) 0.7857(18)
C55_3 C 0.5558(16) 0.6674(8) 0.7069(18)
C56_3 C 0.5862(17) 0.6585(8) 0.6619(18)
C57_3 C 0.7730(17) 0.6808(6) 0.7375(19)
O53_3 O 0.7208(13) 0.6881(6) 0.6771(16)
C58_3 C 0.384(2) 0.7626(11) 0.7953(18)
H92_3 H 0.363461 0.757871 0.82117
H93_3 H 0.422645 0.751145 0.81661
H94_3 H 0.394799 0.783017 0.80197
C59_3 C 0.6975(17) 0.8671(7) 0.6581(19)
H95_3 H 0.655234 0.876106 0.63410
H96_3 H 0.701349 0.858735 0.61851
C63_3 C 0.7526(16) 0.9106(8) 0.650(2)
H104_3 H 0.785665 0.925282 0.67671
H105_3 H 0.760399 0.899432 0.61758
H106_3 H 0.710992 0.919885 0.61944
C64_3 C 0.754(2) 0.8901(8) 0.709(2)
H107_3 H 0.745903 0.900884 0.74266
H108_3 H 0.795662 0.880287 0.74079
O54_4 O 0.387(2) 0.8498(9) 0.233(2)
O55_2 O 0.3611(14) 0.9434(5) 0.4396(16)
O56_2 O 0.3723(15) 0.8993(5) 0.3606(15)
O57_2 O 0.2838(16) 0.8876(6) 0.1591(16)
O58_2 O 0.1609(16) 0.9118(6) 0.0788(17)
H109_4 H 0.399021 0.830022 0.225514
H110_4 H 0.341261 0.854009 0.190854
H111_4 H 0.23587 0.859416 0.495378
H112_4 H 0.179591 0.883559 0.445661
Sn1_4 Sn 0.70521(15) 0.26530(7) 0.14846(16)
Sn3_4 Sn 0.52249(13) 0.25463(6) 0.00779(13)
Sn4_4 Sn 0.57585(14) 0.24533(6) 0.18711(15)
Sn5_4 Sn 0.63290(15) 0.18935(6) 0.14145(17)
Sn9_4 Sn 0.23955(10) 0.00413(4) 0.10651(10)
Sn10_4 Sn 0.39195(15) 0.23463(7) 0.04404(15)
Sn11_4 Sn 0.46639(15) 0.31065(6) 0.05375(18)
Sn12_4 Sn 0.3436(2) 0.05717(6) 0.20805(19)
O1_4 O 0.6273(14) 0.2048(6) 0.2336(15)
O2_4 O 0.5762(13) 0.2263(5) 0.0967(14)
O3_4 O 0.5220(13) 0.2745(5) 0.0963(14)
O5_4 O 0.4832(14) 0.2234(6) 0.1413(16)
O6_4 O 0.3977(12) 0.2811(5) 0.0398(15)
O8_4 O 0.7076(13) 0.2205(5) 0.1546(15)
O9_4 O 0.6650(12) 0.2641(5) 0.2118(13)
O10_4 O 0.6136(13) 0.2762(6) 0.0530(15)
O13_4 O 0.3273(15) 0.0232(6) 0.1395(15)
O14_4 O 0.2483(17) 0.0429(6) 0.1691(16)
O15_4 O 0.1967(15) 0.0309(6) 0.0058(16)
O20_4 O 0.4077(13) 0.0245(5) 0.2942(15)
O21_4 O 0.5993(13) 0.1797(6) 0.0217(15)
O23_4 O 0.5435(14) 0.1631(6) 0.0986(15)
O27_4 O 0.3791(13) 0.1890(5) 0.0203(15)
O29_4 O 0.5536(14) 0.3346(6) 0.0902(14)
O30_4 O 0.4995(14) 0.3219(6) 0.1662(15)
O40_4 O 0.2959(15) 0.0862(7) 0.1103(16)
O41_4 O 0.3139(16) 0.1076(6) 0.0300(17)
O42_4 O 0.4195(14) 0.0700(6) 0.1973(16)
O43_4 O 0.4368(16) 0.0944(6) 0.1188(18)
C1_4 C 0.7474(18) 0.2565(7) 0.074(2)
H1_4 H 0.715400 0.248464 0.02404
H2_4 H 0.785732 0.244189 0.10070
C2_4 C 0.7632(17) 0.2886(7) 0.071(2)
H3_4 H 0.724064 0.300214 0.04000
H4_4 H 0.790163 0.297107 0.12180
C3_4 C 0.8018(16) 0.2860(6) 0.0305(19)
H6_4 H 0.825364 0.267638 0.04344
C4_4 C 0.8486(15) 0.3126(8) 0.0663(19)
H7_4 H 0.874871 0.313468 0.04640
H8_4 H 0.875955 0.310474 0.12117
H9_4 H 0.823821 0.330313 0.05337
C5_4 C 0.4459(13) 0.0138(8) 0.0994(17)
H10_4 H 0.442500 0.034979 0.09651
H11_4 H 0.446305 0.007248 0.05589
C6_4 C 0.5114(15) 0.0057(8) 0.1732(18)
H13_4 H 0.512605 0.011709 0.21810
C7_4 C 0.5631(15) 0.0218(7) 0.170(2)
H14_4 H 0.602527 0.023581 0.22124
H15_4 H 0.548213 0.041368 0.14930
C8_4 C 0.5760(19) 0.0047(10) 0.119(2)
H16_4 H 0.608564 0.014447 0.11654
H17_4 H 0.536816 0.003160 0.06881
C13_4 C 0.5961(17) 0.2717(7) 0.2791(19)
H28_4 H 0.585631 0.291893 0.26268
H29_4 H 0.641804 0.270486 0.32021
C14_4 C 0.5568(13) 0.2613(7) 0.3067(15)
H30_4 H 0.554496 0.276305 0.33760
H31_4 H 0.513107 0.256847 0.26344
C15_4 C 0.588(2) 0.2342(6) 0.354(2)
H32_4 H 0.564059 0.216895 0.32620
H33_4 H 0.632332 0.232280 0.36755
C16_4 C 0.589(2) 0.2384(8) 0.4280(18)
H34_4 H 0.608682 0.221708 0.46094
H35_4 H 0.545167 0.240415 0.41365
H36_4 H 0.613031 0.255708 0.45475
C17_4 C 0.7087(19) 0.1561(7) 0.217(2)
H37_4 H 0.701973 0.148093 0.25425
H38_4 H 0.751905 0.164287 0.24292
C28_4 C 0.1234(15) 0.0009(8) 0.1031(16)
H61_4 H 0.157442 0.013959 0.14007
C29_4 C 0.0665(17) 0.0180(7) 0.049(2)
H63_4 H 0.054601 0.029829 0.07722
H64_4 H 0.077514 0.031225 0.02188
C31_4 C 0.3286(16) 0.2358(8) 0.0896(14)
H68_4 H 0.300578 0.218766 0.07274
H69_4 H 0.302204 0.253336 0.07283
C32_4 C 0.3762(13) 0.2357(11) 0.1743(14)
H70_4 H 0.395358 0.216382 0.19193
H71_4 H 0.410543 0.249686 0.18940
C33_4 C 0.3373(18) 0.2442(10) 0.2093(17)
H72_4 H 0.297938 0.232746 0.18638
H73_4 H 0.325981 0.264843 0.20112
C34_4 C 0.3952(19) 0.3419(6) 0.006(2)
H74_4 H 0.391089 0.351345 0.04383
H78_4 H 0.407828 0.394241 0.03474
H79_4 H 0.446210 0.406182 0.00120
C38_4 C 0.3862(17) 0.0913(8) 0.312(2)
H83_4 H 0.417543 0.104668 0.31432
H84_4 H 0.403899 0.081981 0.36103
C39_4 C 0.3205(18) 0.1052(6) 0.279(2)
H85_4 H 0.318310 0.112595 0.32025
H86_4 H 0.286888 0.090533 0.25108
C40_4 C 0.3091(19) 0.1294(8) 0.2260(19)
H87_4 H 0.349993 0.135793 0.23548
H88_4 H 0.281573 0.122721 0.17317
C41_4 C 0.276(2) 0.1556(8) 0.239(3)
H89_4 H 0.268529 0.171234 0.20433
H90_4 H 0.303407 0.162269 0.29085
H91_4 H 0.235148 0.149228 0.22869
C43_4 C 0.5171(16) 0.1561(8) 0.0284(18)
C50_4 C 0.3305(19) 0.0928(10) 0.088(2)
C51_4 C 0.4015(19) 0.0851(10) 0.139(2)
O48_4 O 0.7998(14) 0.2676(6) 0.2611(16)
C54_4 C 0.8178(16) 0.2931(6) 0.2857(18)
C55_4 C 0.5558(16) 0.3326(8) 0.2069(18)
C56_4 C 0.5862(17) 0.3415(8) 0.1619(18)
C57_4 C 0.7730(17) 0.3192(6) 0.2375(19)
O53_4 O 0.7208(13) 0.3119(6) 0.1771(16)
C58_4 C 0.384(2) 0.2374(11) 0.2953(18)
H92_4 H 0.363461 0.242129 0.32117
H93_4 H 0.422645 0.248855 0.31661
H94_4 H 0.394799 0.216983 0.30197
C59_4 C 0.6975(17) 0.1329(7) 0.1581(19)
H95_4 H 0.655234 0.123894 0.13410
H96_4 H 0.701349 0.141265 0.11851
C63_4 C 0.7526(16) 0.0894(8) 0.150(2)
H104_4 H 0.785665 0.074718 0.17671
H105_4 H 0.760399 0.100568 0.11758
H106_4 H 0.710992 0.080115 0.11944
C64_4 C 0.754(2) 0.1099(8) 0.209(2)
H107_4 H 0.745903 0.099116 0.24266
H108_4 H 0.795662 0.119713 0.24079
Sn2_4 Sn 0.3590(2) 0.99635(8) 0.0863(2)
Sn6_4 Sn 0.40073(17) 0.97827(7) 0.28879(16)
O11_4 O 0.3493(15) 0.9575(5) 0.0178(15)
O12_4 O 0.2682(15) 0.9768(6) 0.0513(15)
O18_4 O 0.4038(15) 0.9714(6) 0.1932(15)
O19_4 O 0.2997(13) 0.9820(5) 0.2123(13)
O36_4 O 0.3818(14) 0.9750(5) 0.3794(13)
O38_4 O 0.3886(15) 0.9334(6) 0.2989(14)
O44_4 O 0.3040(15) 0.9162(6) 0.0911(16)
H12_4 H 0.518357 0.984755 0.17569
H18_4 H 0.590919 0.985442 0.14048
C18_4 C 0.5111(17) 0.9730(8) 0.3615(19)
H39_4 H 0.525540 0.985926 0.33759
H40_4 H 0.518075 0.953277 0.35036
C27_4 C 0.1483(14) 0.9829(8) 0.065(2)
H59_4 H 0.154484 0.962647 0.08177
H60_4 H 0.119217 0.983834 0.00983
H62_4 H 0.112831 0.987912 0.13093
C48_4 C 0.375(2) 0.9489(6) 0.393(2)
C49_4 C 0.378(2) 0.9246(6) 0.345(2)
C52_4 C 0.2656(17) 0.9053(9) 0.107(2)
C53_4 C 0.1962(18) 0.9161(9) 0.054(2)
C60_4 C 0.561(2) 0.9767(8) 0.447(2)
H97_4 H 0.577033 0.996667 0.45942
H98_4 H 0.543548 0.971449 0.47632
C61_3 C 0.6101(19) 0.9296(8) 0.507(3)
H99_3 H 0.642579 0.915138 0.51984
H100_4 H 0.567851 0.921085 0.47349
H101_3 H 0.615095 0.936770 0.55246
C62_4 C 0.6175(16) 0.9549(9) 0.465(2)
H102_4 H 0.659608 0.964092 0.49765
H103_4 H 0.612003 0.948287 0.41807
O22_4 O 0.0160(14) 0.6604(6) 0.9158(15)
H5_4 H 0.272731 0.787667 0.97499
C9_4 C 0.021(3) 0.7414(12) 0.910(2)
H20_4 H 0.041195 0.722158 0.92258
C10_4 C 0.051(2) 0.7584(9) 0.874(2)
H21_4 H 0.096222 0.762952 0.91218
H22_4 H 0.027744 0.776543 0.85091
C11_4 C 0.045(2) 0.7378(11) 0.811(2)
H23_4 H 0.072255 0.744286 0.79514
H24_4 H 0.056050 0.717845 0.82982
C42_4 C 0.0493(16) 0.6638(8) 0.9863(18)
C61_4 C 0.6101(19) 0.0704(8) 0.007(3)
H99_4 H 0.642579 0.084862 0.01984
H101_4 H 0.615095 0.063230 0.05246
H66_3 H 0.995258 0.013284 0.51505
C22_3 C 0.9929(18) 0.9208(10) 0.270(3)
H47_3 H 0.986995 0.907171 0.30009
H48_3 H 0.962504 0.936620 0.25396
H49_3 H 0.985817 0.911097 0.22546
H65_3 H 0.971727 0.987733 0.45531
Sn8_4 Sn 0.25348(19) 0.94273(7) 0.98468(18)
O17_4 O 0.2080(13) 0.9749(5) 0.9000(14)
O46_4 O 0.1668(15) 0.9322(6) 0.9949(15)
C23_4 C 0.2440(19) 0.9096(6) 0.909(2)
H50_4 H 0.286722 0.906256 0.91965
H51_4 H 0.217485 0.917607 0.85696
C24_4 C 0.2151(19) 0.8791(6) 0.907(2)
H52_4 H 0.169408 0.880808 0.88625
H53_4 H 0.237554 0.870893 0.95817
C25_4 C 0.225(2) 0.8603(6) 0.8557(19)
H54_4 H 0.184828 0.859672 0.80479
H55_4 H 0.257719 0.869241 0.85093
C26_4 C 0.2455(17) 0.8294(6) 0.8855(19)
H56_4 H 0.251020 0.818413 0.85076
H57_4 H 0.212768 0.820298 0.88919
H58_4 H 0.285675 0.829869 0.93533
C30_4 C 0.0073(14) 0.9995(9) 0.989(2)
H67_4 H 0.018198 0.988113 0.95964
C22_4 C 0.9929(18) 0.0792(10) 0.770(3)
H47_4 H 0.986995 0.092829 0.80009
H48_4 H 0.962504 0.063380 0.75396
H49_4 H 0.985817 0.088903 0.72546
H65_4 H 0.971727 0.012267 0.95531
H66_4 H 0.995258 0.986716 0.01505
loop_
_geom_bond_atom_site_label_1
_geom_bond_atom_site_label_2
_geom_bond_site_symmetry_1
_geom_bond_site_symmetry_2
C61 H99 1_555 1_555
H101 C61 1_555 1_555
Sn1 O8 1_555 1_555
Sn3 O2 1_555 1_555
Sn4 O1 1_555 1_555
Sn5 O1 1_555 1_555
O2 Sn4 1_555 1_555
O3 Sn3 1_555 1_555
O8 Sn5 1_555 1_555
O9 Sn1 1_555 1_555
O10 Sn1 1_555 1_555
O21 Sn5 1_555 1_555
O22 C42 1_555 1_555
O23 Sn5 1_555 1_555
C1 Sn1 1_555 1_555
H1 C1 1_555 1_555
H2 C1 1_555 1_555
C2 C1 1_555 1_555
H3 C2 1_555 1_555
H4 C2 1_555 1_555
C3 C2 1_555 1_555
H5 C3 1_555 1_555
H6 C3 1_555 1_555
C4 C3 1_555 1_555
H7 C4 1_555 1_555
H8 C4 1_555 1_555
H9 C4 1_555 1_555
H12 C6 1_555 1_555
H13 C6 1_555 1_555
C7 C6 1_555 1_555
H14 C7 1_555 1_555
H15 C7 1_555 1_555
C8 C7 1_555 1_555
H16 C8 1_555 1_555
H17 C8 1_555 1_555
H18 C8 1_555 1_555
C9 Sn3 1_555 1_555
H20 C9 1_555 1_555
C10 C9 1_555 1_555
H21 C10 1_555 1_555
H22 C10 1_555 1_555
C11 C10 1_555 1_555
H23 C11 1_555 1_555
H24 C11 1_555 1_555
C13 Sn4 1_555 1_555
H28 C13 1_555 1_555
H29 C13 1_555 1_555
C14 C13 1_555 1_555
H30 C14 1_555 1_555
H31 C14 1_555 1_555
C15 C14 1_555 1_555
H32 C15 1_555 1_555
H33 C15 1_555 1_555
C16 C15 1_555 1_555
H34 C16 1_555 1_555
H35 C16 1_555 1_555
H36 C16 1_555 1_555
C17 Sn5 1_555 1_555
H37 C17 1_555 1_555
H38 C17 1_555 1_555
H39 C18 1_555 1_555
H40 C18 1_555 1_555
C42 O21 1_555 1_555
C43 O23 1_555 1_555
O48 Sn1 1_555 1_555
O49 C54 1_555 1_555
C54 O48 1_555 1_555
C56 O29 1_555 1_555
O50 C55 1_555 1_555
O51 C56 1_555 1_555
C57 C54 1_555 1_555
O52 C57 1_555 1_555
O53 Sn1 1_555 1_555
C59 C17 1_555 1_555
H95 C59 1_555 1_555
H96 C59 1_555 1_555
C60 C18 1_555 1_555
H97 C60 1_555 1_555
H98 C60 1_555 1_555
C62 C60 1_555 1_555
H102 C62 1_555 1_555
H103 C62 1_555 1_555
C63 H104 1_555 1_555
H105 C63 1_555 1_555
H106 C63 1_555 1_555
C64 C59 1_555 1_555
H107 C64 1_555 1_555
H108 C64 1_555 1_555
Na5 O50 1_555 1_555
Na7 O51 1_555 1_555
Na10 O49 1_555 1_555
Sn3 O10 1_555 1_555
Sn4 O3 1_555 1_555
Sn4 O9 1_555 1_555
Sn5 O2 1_555 1_555
C42 C43 1_555 1_555
C55 C56 1_555 1_555
O51 Na5 1_555 1_555
C57 O53 1_555 1_555
O52 Na7 1_555 1_555
O52 Na10 1_555 1_555
C63 C64 1_555 1_555
Sn2 O11 1_555 1_555
Sn6 O18 1_555 1_555
Sn8 O11 1_555 1_555
O12 Sn2 1_555 1_555
O18 Sn2 1_555 1_555
O19 Sn6 1_555 1_555
O36 Sn6 1_555 1_555
O37 C48 1_555 1_555
O38 Sn6 1_555 1_555
O39 C49 1_555 1_555
O44 Sn8 1_555 1_555
O45 C52 1_555 1_555
O46 Sn8 1_555 1_555
O47 C53 1_555 1_555
C18_2 Sn6 1_555 1_555
H39_2 C18_2 1_555 1_555
H40_2 C18_2 1_555 1_555
C23 Sn8 1_555 1_555
H50 C23 1_555 1_555
H51 C23 1_555 1_555
C24 C23 1_555 1_555
H52 C24 1_555 1_555
H53 C24 1_555 1_555
C25 C24 1_555 1_555
H54 C25 1_555 1_555
H55 C25 1_555 1_555
C26 C25 1_555 1_555
H56 C26 1_555 1_555
H57 C26 1_555 1_555
H58 C26 1_555 1_555
H59 C27 1_555 1_555
H60 C27 1_555 1_555
H67 C30 1_555 1_555
C48 O36 1_555 1_555
C49 O38 1_555 1_555
C52 O44 1_555 1_555
C53 O46 1_555 1_555
C60_2 C18_2 1_555 1_555
H97_2 C60_2 1_555 1_555
H98_2 C60_2 1_555 1_555
C62_2 C60_2 1_555 1_555
H102_2 C62_2 1_555 1_555
H103_2 C62_2 1_555 1_555
Na7 O45 1_555 1_555
Na8 O37 1_555 1_555
Na10 O39 1_555 1_555
Sn8 O12 1_555 1_555
Sn8 O17 1_555 1_555
O39 Na8 1_555 1_555
O47 Na7 1_555 1_555
C48 C49 1_555 1_555
C52 C53 1_555 1_555
Na5 O26 1_555 1_555
Na7 O33 1_555 1_555
Na8 O24 1_555 1_555
Na10 O22_2 1_555 1_555
O22_2 C42_2 1_555 1_555
O24 Na10 1_555 1_555
O26 C44 1_555 1_555
O28 Na5 1_555 1_555
O31 Na5 1_555 1_555
O32 Sn7 1_555 1_555
O33 C46 1_555 1_555
O34 Sn7 1_555 1_555
O35 Na5 1_555 1_555
H19 C9_2 1_555 1_555
H20_2 C9_2 1_555 1_555
C10_2 C9_2 1_555 1_555
H21_2 C10_2 1_555 1_555
H22_2 C10_2 1_555 1_555
C11_2 C10_2 1_555 1_555
H23_2 C11_2 1_555 1_555
H24_2 C11_2 1_555 1_555
C12 C11_2 1_555 1_555
H25 C12 1_555 1_555
H26 C12 1_555 1_555
H27 C12 1_555 1_555
C19 Sn7 1_555 1_555
H41 C19 1_555 1_555
H42 C19 1_555 1_555
C20 C19 1_555 1_555
H43 C20 1_555 1_555
H44 C20 1_555 1_555
C21 C20 1_555 1_555
H45 C21 1_555 1_555
H46 C21 1_555 1_555
H76 C35 1_555 1_555
H77 C35 1_555 1_555
C36 C35 1_555 1_555
C37 C36 1_555 1_555
H80 C37 1_555 1_555
H81 C37 1_555 1_555
H82 C37 1_555 1_555
C44 O25 1_555 1_555
C46 O32 1_555 1_555
C47 O34 1_555 1_555
O54 Na10 1_555 1_555
Sn7 O16 1_555 1_555
Na7 O35 1_555 1_555
Na8 O28 1_555 1_555
O28 C45 1_555 1_555
O35 C47 1_555 1_555
C44 C45 1_555 1_555
C46 C47 1_555 1_555
O54 H109 1_555 1_555
O54 H110 1_555 1_555
O31 H111 1_555 1_555
O31 H112 1_555 1_555
Sn2_2 O11_2 1_555 1_555
Sn6_2 O18_2 1_555 1_555
Sn7_2 O15 1_555 1_555
Sn8_2 O11_2 1_555 1_555
Sn9 O12_2 1_555 1_555
Sn10 O5 1_555 1_555
Sn12 O13 1_555 1_555
Na1 O26_2 1_555 1_555
Na2 O33_2 1_555 1_555
Na3 O24_2 1_555 1_555
O6 Sn10 1_555 1_555
O12_2 Sn2_2 1_555 1_555
O13 Sn2_2 1_555 1_555
O14 Sn9 1_555 1_555
O15 Sn9 1_555 1_555
O16_2 Sn2_2 1_555 1_555
O17_2 Sn7_2 1_555 1_555
O18_2 Sn2_2 1_555 1_555
O19_2 Sn6_2 1_555 1_555
O20 Sn6_2 1_555 1_555
O24_2 Na4 1_555 1_555
O25_2 Sn10 1_555 1_555
O26_2 C44_2 1_555 1_555
O27 Sn10 1_555 1_555
O28_2 Na1 1_555 1_555
O30 Sn11 1_555 1_555
O31_2 Na1 1_555 1_555
O32_2 Sn7_2 1_555 1_555
O33_2 C46_2 1_555 1_555
O34_2 Sn7_2 1_555 1_555
O35_2 Na1 1_555 1_555
O36_2 Sn6_2 1_555 1_555
O37_2 C48_2 1_555 1_555
O38_2 Sn6_2 1_555 1_555
O39_2 C49_2 1_555 1_555
O40 Sn12 1_555 1_555
O41 Na3 1_555 1_555
O42 Sn12 1_555 1_555
O43 Na3 1_555 1_555
O44_2 Sn8_2 1_555 1_555
O45_2 C52_2 1_555 1_555
O46_2 Sn8_2 1_555 1_555
O47_2 C53_2 1_555 1_555
C5 Sn2_2 1_555 1_555
H10 C5 1_555 1_555
H11 C5 1_555 1_555
H25_2 C12_2 1_555 1_555
H26_2 C12_2 1_555 1_555
H27_2 C12_2 1_555 1_555
C19_2 Sn7_2 1_555 1_555
H41_2 C19_2 1_555 1_555
H42_2 C19_2 1_555 1_555
C20_2 C19_2 1_555 1_555
H43_2 C20_2 1_555 1_555
H44_2 C20_2 1_555 1_555
C21_2 C20_2 1_555 1_555
H45_2 C21_2 1_555 1_555
H46_2 C21_2 1_555 1_555
C22 C21_2 1_555 1_555
H47 C22 1_555 1_555
H48 C22 1_555 1_555
H49 C22 1_555 1_555
C23_2 Sn8_2 1_555 1_555
H50_2 C23_2 1_555 1_555
H51_2 C23_2 1_555 1_555
C24_2 C23_2 1_555 1_555
H52_2 C24_2 1_555 1_555
H53_2 C24_2 1_555 1_555
C25_2 C24_2 1_555 1_555
H54_2 C25_2 1_555 1_555
H55_2 C25_2 1_555 1_555
C26_2 C25_2 1_555 1_555
H56_2 C26_2 1_555 1_555
H57_2 C26_2 1_555 1_555
H58_2 C26_2 1_555 1_555
C27_2 Sn9 1_555 1_555
H59_2 C27_2 1_555 1_555
H60_2 C27_2 1_555 1_555
C28 C27_2 1_555 1_555
H61 C28 1_555 1_555
H62_2 C28 1_555 1_555
C29 C28 1_555 1_555
H63 C29 1_555 1_555
H64 C29 1_555 1_555
C30_2 C29 1_555 1_555
H65 C30_2 1_555 1_555
H66 C30_2 1_555 1_555
H67_2 C30_2 1_555 1_555
C31 Sn10 1_555 1_555
H68 C31 1_555 1_555
H69 C31 1_555 1_555
C32 C31 1_555 1_555
H70 C32 1_555 1_555
H71 C32 1_555 1_555
C33 C32 1_555 1_555
H72 C33 1_555 1_555
H73 C33 1_555 1_555
C34 Sn11 1_555 1_555
H74 C34 1_555 1_555
H75_2 C34 1_555 1_555
C35_2 C34 1_555 1_555
H76_2 C35_2 1_555 1_555
H77_2 C35_2 1_555 1_555
C36_2 C35_2 1_555 1_555
H78 C36_2 1_555 1_555
H79 C36_2 1_555 1_555
C37_2 C36_2 1_555 1_555
H80_2 C37_2 1_555 1_555
H81_2 C37_2 1_555 1_555
H82_2 C37_2 1_555 1_555
C38 Sn12 1_555 1_555
H83 C38 1_555 1_555
H84 C38 1_555 1_555
C39 C38 1_555 1_555
H85 C39 1_555 1_555
H86 C39 1_555 1_555
C40 C39 1_555 1_555
H87 C40 1_555 1_555
H88 C40 1_555 1_555
C41 C40 1_555 1_555
H89 C41 1_555 1_555
H90 C41 1_555 1_555
H91 C41 1_555 1_555
C44_2 O25_2 1_555 1_555
C45_2 O27 1_555 1_555
C46_2 O32_2 1_555 1_555
C47_2 O34_2 1_555 1_555
C48_2 O36_2 1_555 1_555
C49_2 O38_2 1_555 1_555
C50 O40 1_555 1_555
C51 O42 1_555 1_555
C52_2 O44_2 1_555 1_555
C53_2 O46_2 1_555 1_555
C58 C33 1_555 1_555
H92 C58 1_555 1_555
H93 C58 1_555 1_555
H94 C58 1_555 1_555
O54_2 Na4 1_555 1_555
Na6 O45_2 1_555 1_555
Na8_2 O37_2 1_555 1_555
Na9 O39_2 1_555 1_555
O55 Na3 1_555 1_555
O56 Na3 1_555 1_555
O57 Na2 1_555 1_555
O58 Na2 1_555 1_555
O59 Na4 1_555 1_555
O60 Na1 1_555 1_555
O61 Na1 1_555 1_555
O62 Na2 1_555 1_555
Sn7_2 O16_2 1_555 1_555
Sn8_2 O12_2 1_555 1_555
Sn8_2 O17_2 1_555 1_555
Sn9 O13 1_555 1_555
Sn9 O19_2 1_555 1_555
Sn10 O7_2 1_555 1_555
Sn11 O4_2 1_555 1_555
Sn11 O6 1_555 1_555
Sn12 O14 1_555 1_555
Sn12 O20 1_555 1_555
Na2 O35_2 1_555 1_555
Na2 O61 1_555 1_555
Na3 O28_2 1_555 1_555
Na4 O56 1_555 1_555
Na4 O62 1_555 1_555
O28_2 C45_2 1_555 1_555
O35_2 C47_2 1_555 1_555
O39_2 Na8_2 1_555 1_555
O41 C50 1_555 1_555
O43 C51 1_555 1_555
O47_2 Na6 1_555 1_555
C44_2 C45_2 1_555 1_555
C46_2 C47_2 1_555 1_555
C48_2 C49_2 1_555 1_555
C50 C51 1_555 1_555
C52_2 C53_2 1_555 1_555
O54_2 H109_2 1_555 1_555
O54_2 H110_2 1_555 1_555
O31_2 H111_2 1_555 1_555
O31_2 H112_2 1_555 1_555
Sn1_2 O8_2 1_555 1_555
Sn3_2 O2_2 1_555 1_555
Sn4_2 O1_2 1_555 1_555
Sn5_2 O1_2 1_555 1_555
O2_2 Sn4_2 1_555 1_555
O3_2 Sn3_2 1_555 1_555
O8_2 Sn5_2 1_555 1_555
O9_2 Sn1_2 1_555 1_555
O10_2 Sn1_2 1_555 1_555
O21_2 Sn5_2 1_555 1_555
O23_2 Sn5_2 1_555 1_555
C1_2 Sn1_2 1_555 1_555
H1_2 C1_2 1_555 1_555
H2_2 C1_2 1_555 1_555
C2_2 C1_2 1_555 1_555
H3_2 C2_2 1_555 1_555
H4_2 C2_2 1_555 1_555
C3_2 C2_2 1_555 1_555
H6_2 C3_2 1_555 1_555
C4_2 C3_2 1_555 1_555
H7_2 C4_2 1_555 1_555
H8_2 C4_2 1_555 1_555
H9_2 C4_2 1_555 1_555
H12_3 C6_2 1_555 1_555
H13_2 C6_2 1_555 1_555
C7_2 C6_2 1_555 1_555
H14_2 C7_2 1_555 1_555
H15_2 C7_2 1_555 1_555
C8_2 C7_2 1_555 1_555
H16_2 C8_2 1_555 1_555
H17_2 C8_2 1_555 1_555
H18_3 C8_2 1_555 1_555
C13_2 Sn4_2 1_555 1_555
H28_2 C13_2 1_555 1_555
H29_2 C13_2 1_555 1_555
C14_2 C13_2 1_555 1_555
H30_2 C14_2 1_555 1_555
H31_2 C14_2 1_555 1_555
C15_2 C14_2 1_555 1_555
H32_2 C15_2 1_555 1_555
H33_2 C15_2 1_555 1_555
C16_2 C15_2 1_555 1_555
H34_2 C16_2 1_555 1_555
H35_2 C16_2 1_555 1_555
H36_2 C16_2 1_555 1_555
C17_2 Sn5_2 1_555 1_555
H37_2 C17_2 1_555 1_555
H38_2 C17_2 1_555 1_555
H39_3 C18_3 1_555 1_555
H40_3 C18_3 1_555 1_555
C43_2 O23_2 1_555 1_555
O48_2 Sn1_2 1_555 1_555
O49_2 C54_2 1_555 1_555
C54_2 O48_2 1_555 1_555
C56_2 O29_2 1_555 1_555
O50_2 C55_2 1_555 1_555
O51_2 C56_2 1_555 1_555
C57_2 C54_2 1_555 1_555
O52_2 C57_2 1_555 1_555
O53_2 Sn1_2 1_555 1_555
C59_2 C17_2 1_555 1_555
H95_2 C59_2 1_555 1_555
H96_2 C59_2 1_555 1_555
C60_3 C18_3 1_555 1_555
H97_3 C60_3 1_555 1_555
H98_3 C60_3 1_555 1_555
C61_2 H99_2 1_555 1_555
H100_3 C61_2 1_555 1_555
H101_2 C61_2 1_555 1_555
C62_3 C60_3 1_555 1_555
H102_3 C62_3 1_555 1_555
H103_3 C62_3 1_555 1_555
C63_2 H104_2 1_555 1_555
H105_2 C63_2 1_555 1_555
H106_2 C63_2 1_555 1_555
C64_2 C59_2 1_555 1_555
H107_2 C64_2 1_555 1_555
H108_2 C64_2 1_555 1_555
Na5_2 O50_2 1_555 1_555
Na7_2 O51_2 1_555 1_555
Na10_2 O49_2 1_555 1_555
Sn3_2 O10_2 1_555 1_555
Sn4_2 O3_2 1_555 1_555
Sn4_2 O9_2 1_555 1_555
Sn5_2 O2_2 1_555 1_555
C55_2 C56_2 1_555 1_555
O51_2 Na5_2 1_555 1_555
C57_2 O53_2 1_555 1_555
O52_2 Na7_2 1_555 1_555
O52_2 Na10_2 1_555 1_555
C61_2 C62_3 1_555 1_555
C63_2 C64_2 1_555 1_555
Sn2_3 O11_3 1_555 1_555
Sn6_3 O18_3 1_555 1_555
Sn9_2 O12_3 1_555 1_555
Sn10_2 O5_2 1_555 1_555
Sn12_2 O13_2 1_555 1_555
O6_2 Sn10_2 1_555 1_555
O12_3 Sn2_3 1_555 1_555
O13_2 Sn2_3 1_555 1_555
O14_2 Sn9_2 1_555 1_555
O15_2 Sn9_2 1_555 1_555
O18_3 Sn2_3 1_555 1_555
O19_3 Sn6_3 1_555 1_555
O20_2 Sn6_3 1_555 1_555
O27_2 Sn10_2 1_555 1_555
O30_2 Sn11_2 1_555 1_555
O36_3 Sn6_3 1_555 1_555
O55 C48_3 1_555 1_555
O38_3 Sn6_3 1_555 1_555
O56 C49_3 1_555 1_555
O40_2 Sn12_2 1_555 1_555
O42_2 Sn12_2 1_555 1_555
O57 C52_3 1_555 1_555
O58 C53_3 1_555 1_555
C5_2 Sn2_3 1_555 1_555
H10_2 C5_2 1_555 1_555
H11_2 C5_2 1_555 1_555
C27_3 Sn9_2 1_555 1_555
H59_3 C27_3 1_555 1_555
H60_3 C27_3 1_555 1_555
C28_2 C27_3 1_555 1_555
H61_2 C28_2 1_555 1_555
H62_3 C28_2 1_555 1_555
C29_2 C28_2 1_555 1_555
H63_2 C29_2 1_555 1_555
H64_2 C29_2 1_555 1_555
C31_2 Sn10_2 1_555 1_555
H68_2 C31_2 1_555 1_555
H69_2 C31_2 1_555 1_555
C32_2 C31_2 1_555 1_555
H70_2 C32_2 1_555 1_555
H71_2 C32_2 1_555 1_555
C33_2 C32_2 1_555 1_555
H72_2 C33_2 1_555 1_555
H73_2 C33_2 1_555 1_555
C34_2 Sn11_2 1_555 1_555
H74_2 C34_2 1_555 1_555
C38_2 Sn12_2 1_555 1_555
H83_2 C38_2 1_555 1_555
H84_2 C38_2 1_555 1_555
C39_2 C38_2 1_555 1_555
H85_2 C39_2 1_555 1_555
H86_2 C39_2 1_555 1_555
C40_2 C39_2 1_555 1_555
H87_2 C40_2 1_555 1_555
H88_2 C40_2 1_555 1_555
C41_2 C40_2 1_555 1_555
H89_2 C41_2 1_555 1_555
H90_2 C41_2 1_555 1_555
H91_2 C41_2 1_555 1_555
C48_3 O36_3 1_555 1_555
C49_3 O38_3 1_555 1_555
C50_2 O40_2 1_555 1_555
C51_2 O42_2 1_555 1_555
C52_3 O44_3 1_555 1_555
C58_2 C33_2 1_555 1_555
H92_2 C58_2 1_555 1_555
H93_2 C58_2 1_555 1_555
H94_2 C58_2 1_555 1_555
Sn9_2 O13_2 1_555 1_555
Sn9_2 O19_3 1_555 1_555
Sn11_2 O6_2 1_555 1_555
Sn12_2 O14_2 1_555 1_555
Sn12_2 O20_2 1_555 1_555
O41_2 C50_2 1_555 1_555
O43_2 C51_2 1_555 1_555
C48_3 C49_3 1_555 1_555
C50_2 C51_2 1_555 1_555
C52_3 C53_3 1_555 1_555
Na1_2 O26_3 1_555 1_555
Na6 O33_3 1_555 1_555
Na8_2 O24_3 1_555 1_555
O17_3 Sn7_3 1_555 1_555
O24_3 Na9 1_555 1_555
O26_3 C44_3 1_555 1_555
O28_3 Na1_2 1_555 1_555
O31_3 Na1_2 1_555 1_555
O32_3 Sn7_3 1_555 1_555
O33_3 C46_3 1_555 1_555
O34_3 Sn7_3 1_555 1_555
O35_3 Na1_2 1_555 1_555
O46_3 Sn8_3 1_555 1_555
H25_3 C12_3 1_555 1_555
H26_3 C12_3 1_555 1_555
H27_3 C12_3 1_555 1_555
C19_3 Sn7_3 1_555 1_555
H41_3 C19_3 1_555 1_555
H42_3 C19_3 1_555 1_555
C20_3 C19_3 1_555 1_555
H43_3 C20_3 1_555 1_555
H44_3 C20_3 1_555 1_555
C21_3 C20_3 1_555 1_555
H45_3 C21_3 1_555 1_555
H46_3 C21_3 1_555 1_555
C22_2 C21_3 1_555 1_555
H47_2 C22_2 1_555 1_555
H48_2 C22_2 1_555 1_555
H49_2 C22_2 1_555 1_555
C23_3 Sn8_3 1_555 1_555
H50_3 C23_3 1_555 1_555
H51_3 C23_3 1_555 1_555
C24_3 C23_3 1_555 1_555
H52_3 C24_3 1_555 1_555
H53_3 C24_3 1_555 1_555
C25_3 C24_3 1_555 1_555
H54_3 C25_3 1_555 1_555
H55_3 C25_3 1_555 1_555
C26_3 C25_3 1_555 1_555
H56_3 C26_3 1_555 1_555
H57_3 C26_3 1_555 1_555
H58_3 C26_3 1_555 1_555
H65_2 C30_3 1_555 1_555
H67_3 C30_3 1_555 1_555
H76_3 C35_3 1_555 1_555
H77_3 C35_3 1_555 1_555
C36_3 C35_3 1_555 1_555
C37_3 C36_3 1_555 1_555
H80_3 C37_3 1_555 1_555
H81_3 C37_3 1_555 1_555
H82_3 C37_3 1_555 1_555
C44_3 O25_3 1_555 1_555
C46_3 O32_3 1_555 1_555
C47_3 O34_3 1_555 1_555
O54_3 Na9 1_555 1_555
O59_2 Na9 1_555 1_555
O60_2 Na1_2 1_555 1_555
O61_2 Na1_2 1_555 1_555
O62_2 Na6 1_555 1_555
Sn7_3 O16_3 1_555 1_555
Sn8_3 O17_3 1_555 1_555
Na6 O35_3 1_555 1_555
Na6 O61_2 1_555 1_555
Na8_2 O28_3 1_555 1_555
Na9 O62_2 1_555 1_555
O28_3 C45_3 1_555 1_555
O35_3 C47_3 1_555 1_555
C44_3 C45_3 1_555 1_555
C46_3 C47_3 1_555 1_555
O54_3 H109_3 1_555 1_555
O54_3 H110_3 1_555 1_555
O31_3 H111_3 1_555 1_555
O31_3 H112_3 1_555 1_555
Sn1_3 O8_3 1_555 1_555
Sn3_3 O2_3 1_555 1_555
Sn4_3 O1_3 1_555 1_555
Sn5_3 O1_3 1_555 1_555
Sn7_4 O15_3 1_555 1_555
Sn10_3 O5_3 1_555 1_555
Sn11_3 O3_3 1_555 1_555
Sn12_3 O13_3 1_555 1_555
Na5_2 O26_4 1_555 1_555
Na7_2 O33_4 1_555 1_555
Na3_2 O24_4 1_555 1_555
Na10_2 O22_3 1_555 1_555
O2_3 Sn4_3 1_555 1_555
O3_3 Sn3_3 1_555 1_555
O4_4 Sn3_3 1_555 1_555
O5_3 Sn4_3 1_555 1_555
O6_3 Sn10_3 1_555 1_555
O7_4 Sn3_3 1_555 1_555
O8_3 Sn5_3 1_555 1_555
O9_3 Sn1_3 1_555 1_555
O10_3 Sn1_3 1_555 1_555
O14_3 Sn9_3 1_555 1_555
O15_3 Sn9_3 1_555 1_555
O21_3 Sn5_3 1_555 1_555
O22_3 C42_3 1_555 1_555
O23_3 Sn5_3 1_555 1_555
O24_4 Na10_2 1_555 1_555
O25_4 Sn10_3 1_555 1_555
O26_4 C44_4 1_555 1_555
O27_3 Sn10_3 1_555 1_555
O28_4 Na5_2 1_555 1_555
O29_3 Sn11_3 1_555 1_555
O30_3 Sn11_3 1_555 1_555
O31_4 Na5_2 1_555 1_555
O32_4 Sn7_4 1_555 1_555
O33_4 C46_4 1_555 1_555
O34_4 Sn7_4 1_555 1_555
O35_4 Na5_2 1_555 1_555
O40_3 Sn12_3 1_555 1_555
O41_3 Na3_2 1_555 1_555
O42_3 Sn12_3 1_555 1_555
O43_3 Na3_2 1_555 1_555
C1_3 Sn1_3 1_555 1_555
H1_3 C1_3 1_555 1_555
H2_3 C1_3 1_555 1_555
C2_3 C1_3 1_555 1_555
H3_3 C2_3 1_555 1_555
H4_3 C2_3 1_555 1_555
C3_3 C2_3 1_555 1_555
H5_3 C3_3 1_555 1_555
H6_3 C3_3 1_555 1_555
C4_3 C3_3 1_555 1_555
H7_3 C4_3 1_555 1_555
H8_3 C4_3 1_555 1_555
H9_3 C4_3 1_555 1_555
H10_3 C5_3 1_555 1_555
H11_3 C5_3 1_555 1_555
C6_3 C5_3 1_555 1_555
H13_3 C6_3 1_555 1_555
C7_3 C6_3 1_555 1_555
H14_3 C7_3 1_555 1_555
H15_3 C7_3 1_555 1_555
C8_3 C7_3 1_555 1_555
H16_3 C8_3 1_555 1_555
H17_3 C8_3 1_555 1_555
C9_3 Sn3_3 1_555 1_555
H19_4 C9_3 1_555 1_555
H20_3 C9_3 1_555 1_555
C10_3 C9_3 1_555 1_555
H21_3 C10_3 1_555 1_555
H22_3 C10_3 1_555 1_555
C11_3 C10_3 1_555 1_555
H23_3 C11_3 1_555 1_555
H24_3 C11_3 1_555 1_555
C12_4 C11_3 1_555 1_555
H25_4 C12_4 1_555 1_555
H26_4 C12_4 1_555 1_555
H27_4 C12_4 1_555 1_555
C13_3 Sn4_3 1_555 1_555
H28_3 C13_3 1_555 1_555
H29_3 C13_3 1_555 1_555
C14_3 C13_3 1_555 1_555
H30_3 C14_3 1_555 1_555
H31_3 C14_3 1_555 1_555
C15_3 C14_3 1_555 1_555
H32_3 C15_3 1_555 1_555
H33_3 C15_3 1_555 1_555
C16_3 C15_3 1_555 1_555
H34_3 C16_3 1_555 1_555
H35_3 C16_3 1_555 1_555
H36_3 C16_3 1_555 1_555
C17_3 Sn5_3 1_555 1_555
H37_3 C17_3 1_555 1_555
H38_3 C17_3 1_555 1_555
C19_4 Sn7_4 1_555 1_555
H41_4 C19_4 1_555 1_555
H42_4 C19_4 1_555 1_555
C20_4 C19_4 1_555 1_555
H43_4 C20_4 1_555 1_555
H44_4 C20_4 1_555 1_555
C21_4 C20_4 1_555 1_555
H45_4 C21_4 1_555 1_555
H46_4 C21_4 1_555 1_555
H61_3 C28_3 1_555 1_555
C29_3 C28_3 1_555 1_555
H63_3 C29_3 1_555 1_555
H64_3 C29_3 1_555 1_555
C31_3 Sn10_3 1_555 1_555
H68_3 C31_3 1_555 1_555
H69_3 C31_3 1_555 1_555
C32_3 C31_3 1_555 1_555
H70_3 C32_3 1_555 1_555
H71_3 C32_3 1_555 1_555
C33_3 C32_3 1_555 1_555
H72_3 C33_3 1_555 1_555
H73_3 C33_3 1_555 1_555
C34_3 Sn11_3 1_555 1_555
H74_3 C34_3 1_555 1_555
H75_4 C34_3 1_555 1_555
C35_4 C34_3 1_555 1_555
H76_4 C35_4 1_555 1_555
H77_4 C35_4 1_555 1_555
C36_4 C35_4 1_555 1_555
H78_3 C36_4 1_555 1_555
H79_3 C36_4 1_555 1_555
C37_4 C36_4 1_555 1_555
H80_4 C37_4 1_555 1_555
H81_4 C37_4 1_555 1_555
H82_4 C37_4 1_555 1_555
C38_3 Sn12_3 1_555 1_555
H83_3 C38_3 1_555 1_555
H84_3 C38_3 1_555 1_555
C39_3 C38_3 1_555 1_555
H85_3 C39_3 1_555 1_555
H86_3 C39_3 1_555 1_555
C40_3 C39_3 1_555 1_555
H87_3 C40_3 1_555 1_555
H88_3 C40_3 1_555 1_555
C41_3 C40_3 1_555 1_555
H89_3 C41_3 1_555 1_555
H90_3 C41_3 1_555 1_555
H91_3 C41_3 1_555 1_555
C42_3 O21_3 1_555 1_555
C43_3 O23_3 1_555 1_555
C44_4 O25_4 1_555 1_555
C45_4 O27_3 1_555 1_555
C46_4 O32_4 1_555 1_555
C47_4 O34_4 1_555 1_555
C50_3 O40_3 1_555 1_555
C51_3 O42_3 1_555 1_555
O48_3 Sn1_3 1_555 1_555
O59_2 C54_3 1_555 1_555
C54_3 O48_3 1_555 1_555
C55_3 O30_3 1_555 1_555
C56_3 O29_3 1_555 1_555
O60_2 C55_3 1_555 1_555
O61_2 C56_3 1_555 1_555
C57_3 C54_3 1_555 1_555
O62_2 C57_3 1_555 1_555
O53_3 Sn1_3 1_555 1_555
C58_3 C33_3 1_555 1_555
H92_3 C58_3 1_555 1_555
H93_3 C58_3 1_555 1_555
H94_3 C58_3 1_555 1_555
C59_3 C17_3 1_555 1_555
H95_3 C59_3 1_555 1_555
H96_3 C59_3 1_555 1_555
C63_3 H104_3 1_555 1_555
H105_3 C63_3 1_555 1_555
H106_3 C63_3 1_555 1_555
C64_3 C59_3 1_555 1_555
H107_3 C64_3 1_555 1_555
H108_3 C64_3 1_555 1_555
O54_4 Na10_2 1_555 1_555
O55_2 Na3_2 1_555 1_555
O56_2 Na3_2 1_555 1_555
O57_2 Na7_2 1_555 1_555
O58_2 Na7_2 1_555 1_555
Sn3_3 O10_3 1_555 1_555
Sn4_3 O3_3 1_555 1_555
Sn4_3 O9_3 1_555 1_555
Sn5_3 O2_3 1_555 1_555
Sn7_4 O16_4 1_555 1_555
Sn9_3 O13_3 1_555 1_555
Sn10_3 O7_4 1_555 1_555
Sn11_3 O4_4 1_555 1_555
Sn11_3 O6_3 1_555 1_555
Sn12_3 O14_3 1_555 1_555
Sn12_3 O20_3 1_555 1_555
Na7_2 O35_4 1_555 1_555
Na3_2 O28_4 1_555 1_555
Na10_2 O56_2 1_555 1_555
O24_4 C43_3 1_555 1_555
O28_4 C45_4 1_555 1_555
O35_4 C47_4 1_555 1_555
O41_3 C50_3 1_555 1_555
O43_3 C51_3 1_555 1_555
C42_3 C43_3 1_555 1_555
C44_4 C45_4 1_555 1_555
C46_4 C47_4 1_555 1_555
C50_3 C51_3 1_555 1_555
C55_3 C56_3 1_555 1_555
C57_3 O53_3 1_555 1_555
C63_3 C64_3 1_555 1_555
O54_4 H109_4 1_555 1_555
O54_4 H110_4 1_555 1_555
O31_4 H111_4 1_555 1_555
O31_4 H112_4 1_555 1_555
Sn1_4 O8_4 1_555 1_555
Sn3_4 O2_4 1_555 1_555
Sn4_4 O1_4 1_555 1_555
Sn5_4 O1_4 1_555 1_555
Sn10_4 O5_4 1_555 1_555
Sn11_4 O3_4 1_555 1_555
Sn12_4 O13_4 1_555 1_555
O2_4 Sn4_4 1_555 1_555
O3_4 Sn3_4 1_555 1_555
O5_4 Sn4_4 1_555 1_555
O6_4 Sn10_4 1_555 1_555
O8_4 Sn5_4 1_555 1_555
O9_4 Sn1_4 1_555 1_555
O10_4 Sn1_4 1_555 1_555
O14_4 Sn9_4 1_555 1_555
O15_4 Sn9_4 1_555 1_555
O21_4 Sn5_4 1_555 1_555
O23_4 Sn5_4 1_555 1_555
O27_4 Sn10_4 1_555 1_555
O29_4 Sn11_4 1_555 1_555
O30_4 Sn11_4 1_555 1_555
O40_4 Sn12_4 1_555 1_555
O42_4 Sn12_4 1_555 1_555
C1_4 Sn1_4 1_555 1_555
H1_4 C1_4 1_555 1_555
H2_4 C1_4 1_555 1_555
C2_4 C1_4 1_555 1_555
H3_4 C2_4 1_555 1_555
H4_4 C2_4 1_555 1_555
C3_4 C2_4 1_555 1_555
H6_4 C3_4 1_555 1_555
C4_4 C3_4 1_555 1_555
H7_4 C4_4 1_555 1_555
H8_4 C4_4 1_555 1_555
H9_4 C4_4 1_555 1_555
H10_4 C5_4 1_555 1_555
H11_4 C5_4 1_555 1_555
C6_4 C5_4 1_555 1_555
H13_4 C6_4 1_555 1_555
C7_4 C6_4 1_555 1_555
H14_4 C7_4 1_555 1_555
H15_4 C7_4 1_555 1_555
C8_4 C7_4 1_555 1_555
H16_4 C8_4 1_555 1_555
H17_4 C8_4 1_555 1_555
C13_4 Sn4_4 1_555 1_555
H28_4 C13_4 1_555 1_555
H29_4 C13_4 1_555 1_555
C14_4 C13_4 1_555 1_555
H30_4 C14_4 1_555 1_555
H31_4 C14_4 1_555 1_555
C15_4 C14_4 1_555 1_555
H32_4 C15_4 1_555 1_555
H33_4 C15_4 1_555 1_555
C16_4 C15_4 1_555 1_555
H34_4 C16_4 1_555 1_555
H35_4 C16_4 1_555 1_555
H36_4 C16_4 1_555 1_555
C17_4 Sn5_4 1_555 1_555
H37_4 C17_4 1_555 1_555
H38_4 C17_4 1_555 1_555
H61_4 C28_4 1_555 1_555
C29_4 C28_4 1_555 1_555
H63_4 C29_4 1_555 1_555
H64_4 C29_4 1_555 1_555
C31_4 Sn10_4 1_555 1_555
H68_4 C31_4 1_555 1_555
H69_4 C31_4 1_555 1_555
C32_4 C31_4 1_555 1_555
H70_4 C32_4 1_555 1_555
H71_4 C32_4 1_555 1_555
C33_4 C32_4 1_555 1_555
H72_4 C33_4 1_555 1_555
H73_4 C33_4 1_555 1_555
C34_4 Sn11_4 1_555 1_555
H74_4 C34_4 1_555 1_555
C38_4 Sn12_4 1_555 1_555
H83_4 C38_4 1_555 1_555
H84_4 C38_4 1_555 1_555
C39_4 C38_4 1_555 1_555
H85_4 C39_4 1_555 1_555
H86_4 C39_4 1_555 1_555
C40_4 C39_4 1_555 1_555
H87_4 C40_4 1_555 1_555
H88_4 C40_4 1_555 1_555
C41_4 C40_4 1_555 1_555
H89_4 C41_4 1_555 1_555
H90_4 C41_4 1_555 1_555
H91_4 C41_4 1_555 1_555
C43_4 O23_4 1_555 1_555
C50_4 O40_4 1_555 1_555
C51_4 O42_4 1_555 1_555
O48_4 Sn1_4 1_555 1_555
O59 C54_4 1_555 1_555
C54_4 O48_4 1_555 1_555
C55_4 O30_4 1_555 1_555
C56_4 O29_4 1_555 1_555
O60 C55_4 1_555 1_555
O61 C56_4 1_555 1_555
C57_4 C54_4 1_555 1_555
O62 C57_4 1_555 1_555
O53_4 Sn1_4 1_555 1_555
C58_4 C33_4 1_555 1_555
H92_4 C58_4 1_555 1_555
H93_4 C58_4 1_555 1_555
H94_4 C58_4 1_555 1_555
C59_4 C17_4 1_555 1_555
H95_4 C59_4 1_555 1_555
H96_4 C59_4 1_555 1_555
C63_4 H104_4 1_555 1_555
H105_4 C63_4 1_555 1_555
H106_4 C63_4 1_555 1_555
C64_4 C59_4 1_555 1_555
H107_4 C64_4 1_555 1_555
H108_4 C64_4 1_555 1_555
Sn3_4 O10_4 1_555 1_555
Sn4_4 O3_4 1_555 1_555
Sn4_4 O9_4 1_555 1_555
Sn5_4 O2_4 1_555 1_555
Sn9_4 O13_4 1_555 1_555
Sn11_4 O6_4 1_555 1_555
Sn12_4 O14_4 1_555 1_555
Sn12_4 O20_4 1_555 1_555
O41_4 C50_4 1_555 1_555
O43_4 C51_4 1_555 1_555
C50_4 C51_4 1_555 1_555
C55_4 C56_4 1_555 1_555
C57_4 O53_4 1_555 1_555
C63_4 C64_4 1_555 1_555
Sn2_4 O11_4 1_555 1_555
Sn6_4 O18_4 1_555 1_555
O12_4 Sn2_4 1_555 1_555
O18_4 Sn2_4 1_555 1_555
O19_4 Sn6_4 1_555 1_555
O36_4 Sn6_4 1_555 1_555
O55_2 C48_4 1_555 1_555
O38_4 Sn6_4 1_555 1_555
O56_2 C49_4 1_555 1_555
O57_2 C52_4 1_555 1_555
O58_2 C53_4 1_555 1_555
C18_4 Sn6_4 1_555 1_555
H39_4 C18_4 1_555 1_555
H40_4 C18_4 1_555 1_555
H59_4 C27_4 1_555 1_555
H60_4 C27_4 1_555 1_555
C48_4 O36_4 1_555 1_555
C49_4 O38_4 1_555 1_555
C52_4 O44_4 1_555 1_555
C60_4 C18_4 1_555 1_555
H97_4 C60_4 1_555 1_555
H98_4 C60_4 1_555 1_555
C61_3 H99_3 1_555 1_555
H100_4 C61_3 1_555 1_555
H101_3 C61_3 1_555 1_555
C62_4 C60_4 1_555 1_555
H102_4 C62_4 1_555 1_555
H103_4 C62_4 1_555 1_555
C48_4 C49_4 1_555 1_555
C52_4 C53_4 1_555 1_555
C61_3 C62_4 1_555 1_555
O22_4 C42_4 1_555 1_555
H20_4 C9_4 1_555 1_555
C10_4 C9_4 1_555 1_555
H21_4 C10_4 1_555 1_555
H22_4 C10_4 1_555 1_555
C11_4 C10_4 1_555 1_555
H23_4 C11_4 1_555 1_555
H24_4 C11_4 1_555 1_555
C61_4 H99_4 1_555 1_555
H101_4 C61_4 1_555 1_555
H47_3 C22_3 1_555 1_555
H48_3 C22_3 1_555 1_555
H49_3 C22_3 1_555 1_555
O46_4 Sn8_4 1_555 1_555
C23_4 Sn8_4 1_555 1_555
H50_4 C23_4 1_555 1_555
H51_4 C23_4 1_555 1_555
C24_4 C23_4 1_555 1_555
H52_4 C24_4 1_555 1_555
H53_4 C24_4 1_555 1_555
C25_4 C24_4 1_555 1_555
H54_4 C25_4 1_555 1_555
H55_4 C25_4 1_555 1_555
C26_4 C25_4 1_555 1_555
H56_4 C26_4 1_555 1_555
H57_4 C26_4 1_555 1_555
H58_4 C26_4 1_555 1_555
H67_4 C30_4 1_555 1_555
Sn8_4 O17_4 1_555 1_555
H47_4 C22_4 1_555 1_555
H48_4 C22_4 1_555 1_555
H49_4 C22_4 1_555 1_555

#END
