
###############################################################################
#
# This file contains modified crystal structure data generated from the
# MOF subset of the Cambridge Structural Database (CSD) v543 
# hosted by the Cambridge Crystallographic Data Centre (CCDC).
#
# This work is licensed under the Creative Commons
# Attribution-NonCommercial-ShareAlike 4.0 International License.
# To view a copy of this license, visit
# http://creativecommons.org/licenses/by-nc-sa/4.0/
# or send a letter to
# Creative Commons, PO Box 1866, Mountain View, CA 94042, USA.
#
# CIF created using the CSD Python API on 29 September 2022
# The structure has been converted into the P1 space group
# The structure has a 3D framework
# The original CSD entry AJUNOK is in the orthorhombic crystal system
# The framework has been calculated to contain at least 10.0% void space
# The void calculation uses a probe of radius 1.32A, grid spacing 0.4
#
###############################################################################

data_AJUNOK
_chemical_formula_moiety         '(C192 H112 Cd8 N32 O32 S8)n'
_symmetry_cell_setting           triclinic
_symmetry_space_group_name_H-M   'P 1'
_symmetry_Int_Tables_number      1
_space_group_name_Hall           'P 1'
loop_
_symmetry_equiv_pos_site_id
_symmetry_equiv_pos_as_xyz
1 x,y,z
_cell_length_a                   16.085
_cell_length_b                   16.0849(13)
_cell_length_c                   20.2460(17)
_cell_angle_alpha                90
_cell_angle_beta                 90
_cell_angle_gamma                90
_cell_volume                     5238.16
loop_
_atom_site_label
_atom_site_type_symbol
_atom_site_fract_x
_atom_site_fract_y
_atom_site_fract_z
H3 H 0.0331 0.3139 0.3570
H4 H 0.0319 0.4560 0.3591
C17 C 0.13055(18) 0.61707(16) 0.32297(13)
C18 C 0.18001(18) 0.61684(17) 0.38638(13)
C19 C 0.2658(2) 0.6217(2) 0.38363(15)
H11 H 0.2924 0.6244 0.3429
C20 C 0.3119(2) 0.6228(3) 0.44123(16)
H12 H 0.3695 0.6266 0.4388
C21 C 0.27403(19) 0.61817(19) 0.50213(14)
C22 C 0.1887(2) 0.6107(3) 0.50485(16)
H13 H 0.1624 0.6058 0.5455
C23 C 0.1416(2) 0.6106(2) 0.44692(15)
H14 H 0.0840 0.6062 0.4493
C24 C 0.3256(2) 0.61949(19) 0.56420(15)
O1 O 0.05371(15) 0.61850(16) 0.32641(12)
O2 O 0.17034(14) 0.61605(14) 0.26977(10)
O3 O 0.40220(15) 0.6259(2) 0.56024(12)
O4 O 0.29024(17) 0.6141(2) 0.61789(11)
Cd3 Cd 0.087080(11) 0.616531(11) 0.179071(9)
Cd4 Cd 0.412920(11) 0.616531(11) 0.679071(9)
C1 C 0.85819(18) 0.43217(17) 0.29320(16)
H1 H 0.8134 0.4625 0.2771
C2 C 0.85443(18) 0.34658(18) 0.29016(16)
H2 H 0.8080 0.3206 0.2723
C3 C 0.91986(18) 0.29966(18) 0.31375(14)
C4 C 0.9876(2) 0.34279(19) 0.34026(17)
C5 C 0.98635(19) 0.42830(18) 0.34136(16)
C6 C 0.91885(18) 0.20758(19) 0.31166(15)
C7 C 0.88352(18) 0.16282(17) 0.25758(15)
C8 C 0.88307(18) 0.07368(18) 0.25655(16)
C9 C 0.91744(19) 0.02678(18) 0.30989(17)
C10 C 0.9512(2) 0.07222(19) 0.36039(18)
H5 H 0.9744 0.0440 0.3960
C11 C 0.9524(2) 0.16040(18) 0.36083(16)
H6 H 0.9773 0.1873 0.3963
Cd1 Cd 0.912920(11) 0.616531(11) 0.320929(9)
N1 N 0.85073(19) 0.04170(17) 0.20052(15)
N2 N 0.85113(18) 0.19663(16) 0.20218(15)
N3 N 0.92302(15) 0.47368(15) 0.31816(12)
S1 S 0.82434(7) 0.12013(6) 0.15550(5)
N5 N 0.91891(16) 0.76123(16) 0.31380(13)
O5 O 0.82966(14) 0.61605(14) 0.23023(10)
O6 O 0.90220(15) 0.6259(2) 0.43976(12)
O7 O 0.79024(17) 0.6141(2) 0.38211(11)
C12 C 0.9836(2) 0.89116(18) 0.33763(18)
C13 C 0.91687(19) 0.93519(19) 0.31079(17)
C14 C 0.8515(2) 0.88875(19) 0.2863(2)
H8 H 0.8053 0.9152 0.2684
C15 C 0.8549(2) 0.80301(19) 0.2885(2)
H9 H 0.8103 0.7730 0.2715
C16 C 0.9817(2) 0.80551(19) 0.33775(17)
C1_2 C 0.14181(18) 0.43217(17) 0.20680(16)
H1_2 H 0.1866 0.4625 0.2229
C2_2 C 0.14557(18) 0.34658(18) 0.20984(16)
H2_2 H 0.1920 0.3206 0.2277
C3_2 C 0.08014(18) 0.29966(18) 0.18625(14)
C4_2 C 0.0124(2) 0.34279(19) 0.15974(17)
C5_2 C 0.01365(19) 0.42830(18) 0.15864(16)
C6_2 C 0.08115(18) 0.20758(19) 0.18834(15)
C7_2 C 0.11648(18) 0.16282(17) 0.24242(15)
C8_2 C 0.11693(18) 0.07368(18) 0.24345(16)
C9_2 C 0.08256(19) 0.02678(18) 0.19011(17)
C10_2 C 0.0488(2) 0.07222(19) 0.13961(18)
H5_2 H 0.0256 0.0440 0.1040
C11_2 C 0.0476(2) 0.16040(18) 0.13917(16)
H6_2 H 0.0227 0.1873 0.1037
N1_2 N 0.14927(19) 0.04170(17) 0.29948(15)
N2_2 N 0.14887(18) 0.19663(16) 0.29782(15)
N3_2 N 0.07698(15) 0.47368(15) 0.18184(12)
S1_2 S 0.17566(7) 0.12013(6) 0.34450(5)
N5_2 N 0.08109(16) 0.76123(16) 0.18620(13)
O6_2 O 0.09780(15) 0.6259(2) 0.06024(12)
O7_2 O 0.20976(17) 0.6141(2) 0.11789(11)
C12_2 C 0.0164(2) 0.89116(18) 0.16237(18)
C13_2 C 0.08313(19) 0.93519(19) 0.18921(17)
C14_2 C 0.1485(2) 0.88875(19) 0.2137(2)
H8_2 H 0.1947 0.9152 0.2316
C15_2 C 0.1451(2) 0.80301(19) 0.2115(2)
H9_2 H 0.1897 0.7730 0.2285
C16_2 C 0.0183(2) 0.80551(19) 0.16225(17)
H3_2 H 0.9669 0.3139 0.1430
H4_2 H 0.9681 0.4560 0.1409
C17_2 C 0.86945(18) 0.61707(16) 0.17703(13)
C18_2 C 0.81999(18) 0.61684(17) 0.11362(13)
C19_2 C 0.7342(2) 0.6217(2) 0.11637(15)
H11_2 H 0.7076 0.6244 0.1571
C20_2 C 0.6881(2) 0.6228(3) 0.05877(16)
H12_2 H 0.6305 0.6266 0.0612
C23_2 C 0.8584(2) 0.6106(2) 0.05308(15)
H14_2 H 0.9160 0.6062 0.0507
O1_2 O 0.94629(15) 0.61850(16) 0.17359(12)
C21_2 C 0.72597(19) 0.61817(19) 0.99787(14)
C22_2 C 0.8113(2) 0.6107(3) 0.99515(16)
H13_2 H 0.8376 0.6058 0.9545
C24_2 C 0.6744(2) 0.61949(19) 0.93580(15)
O3_2 O 0.59780(15) 0.6259(2) 0.93976(12)
O4_2 O 0.70976(17) 0.6141(2) 0.88211(11)
Cd4_2 Cd 0.587080(11) 0.616531(11) 0.820929(9)
C1_3 C 0.35819(18) 0.43217(17) 0.70680(16)
H1_3 H 0.3134 0.4625 0.7229
C2_3 C 0.35443(18) 0.34658(18) 0.70984(16)
H2_3 H 0.3080 0.3206 0.7277
C3_3 C 0.41986(18) 0.29966(18) 0.68625(14)
C4_3 C 0.4876(2) 0.34279(19) 0.65974(17)
H3_3 H 0.5331 0.3139 0.6430
C5_3 C 0.48635(19) 0.42830(18) 0.65864(16)
H4_3 H 0.5319 0.4560 0.6409
C6_3 C 0.41885(18) 0.20758(19) 0.68834(15)
C7_3 C 0.38352(18) 0.16282(17) 0.74242(15)
C8_3 C 0.38307(18) 0.07368(18) 0.74345(16)
C9_3 C 0.41744(19) 0.02678(18) 0.69011(17)
C10_3 C 0.4512(2) 0.07222(19) 0.63961(18)
H5_3 H 0.4744 0.0440 0.6040
C11_3 C 0.4524(2) 0.16040(18) 0.63917(16)
H6_3 H 0.4773 0.1873 0.6037
C17_3 C 0.63055(18) 0.61707(16) 0.67703(13)
C18_3 C 0.68001(18) 0.61684(17) 0.61362(13)
C19_3 C 0.7658(2) 0.6217(2) 0.61637(15)
H11_3 H 0.7924 0.6244 0.6571
C20_3 C 0.8119(2) 0.6228(3) 0.55877(16)
H12_3 H 0.8695 0.6266 0.5612
C21_3 C 0.77403(19) 0.61817(19) 0.49787(14)
C22_3 C 0.6887(2) 0.6107(3) 0.49515(16)
H13_3 H 0.6624 0.6058 0.4545
C23_3 C 0.6416(2) 0.6106(2) 0.55308(15)
H14_3 H 0.5840 0.6062 0.5507
C24_3 C 0.8256(2) 0.61949(19) 0.43580(15)
N1_3 N 0.35073(19) 0.04170(17) 0.79948(15)
N2_3 N 0.35113(18) 0.19663(16) 0.79782(15)
N3_3 N 0.42302(15) 0.47368(15) 0.68184(12)
O1_3 O 0.55371(15) 0.61850(16) 0.67359(12)
O2_2 O 0.67034(14) 0.61605(14) 0.73023(10)
S1_3 S 0.32434(7) 0.12013(6) 0.84450(5)
N5_3 N 0.41891(16) 0.76123(16) 0.68620(13)
O5_2 O 0.32966(14) 0.61605(14) 0.76977(10)
C12_3 C 0.4836(2) 0.89116(18) 0.66237(18)
H7 H 0.5290 0.9194 0.6447
C13_3 C 0.41687(19) 0.93519(19) 0.68921(17)
C14_3 C 0.3515(2) 0.88875(19) 0.7137(2)
H8_3 H 0.3053 0.9152 0.7316
C15_3 C 0.3549(2) 0.80301(19) 0.7115(2)
H9_3 H 0.3103 0.7730 0.7285
C16_3 C 0.4817(2) 0.80551(19) 0.66225(17)
H10 H 0.5268 0.7772 0.6444
C21_4 C 0.22597(19) 0.61817(19) 0.00213(14)
C22_4 C 0.3113(2) 0.6107(3) 0.00485(16)
H13_4 H 0.3376 0.6058 0.0455
C24_4 C 0.1744(2) 0.61949(19) 0.06420(15)
C1_4 C 0.64181(18) 0.43217(17) 0.79320(16)
H1_4 H 0.6866 0.4625 0.7771
C2_4 C 0.64557(18) 0.34658(18) 0.79016(16)
H2_4 H 0.6920 0.3206 0.7723
C3_4 C 0.58014(18) 0.29966(18) 0.81375(14)
C4_4 C 0.5124(2) 0.34279(19) 0.84026(17)
H3_4 H 0.4669 0.3139 0.8570
C5_4 C 0.51365(19) 0.42830(18) 0.84136(16)
H4_4 H 0.4681 0.4560 0.8591
C6_4 C 0.58115(18) 0.20758(19) 0.81166(15)
C7_4 C 0.61648(18) 0.16282(17) 0.75758(15)
C8_4 C 0.61693(18) 0.07368(18) 0.75655(16)
C9_4 C 0.58256(19) 0.02678(18) 0.80989(17)
C10_4 C 0.5488(2) 0.07222(19) 0.86039(18)
H5_4 H 0.5256 0.0440 0.8960
C11_4 C 0.5476(2) 0.16040(18) 0.86083(16)
H6_4 H 0.5227 0.1873 0.8963
C17_4 C 0.36945(18) 0.61707(16) 0.82297(13)
C18_4 C 0.31999(18) 0.61684(17) 0.88638(13)
C19_4 C 0.2342(2) 0.6217(2) 0.88363(15)
H11_4 H 0.2076 0.6244 0.8429
C20_4 C 0.1881(2) 0.6228(3) 0.94123(16)
H12_4 H 0.1305 0.6266 0.9388
C23_4 C 0.3584(2) 0.6106(2) 0.94692(15)
H14_4 H 0.4160 0.6062 0.9493
N1_4 N 0.64927(19) 0.04170(17) 0.70052(15)
N2_4 N 0.64887(18) 0.19663(16) 0.70218(15)
N3_4 N 0.57698(15) 0.47368(15) 0.81816(12)
O1_4 O 0.44629(15) 0.61850(16) 0.82641(12)
S1_4 S 0.67566(7) 0.12013(6) 0.65550(5)
N5_4 N 0.58109(16) 0.76123(16) 0.81380(13)
C12_4 C 0.5164(2) 0.89116(18) 0.83763(18)
H7_2 H 0.4710 0.9194 0.8553
C13_4 C 0.58313(19) 0.93519(19) 0.81079(17)
C14_4 C 0.6485(2) 0.88875(19) 0.7863(2)
H8_4 H 0.6947 0.9152 0.7684
C15_4 C 0.6451(2) 0.80301(19) 0.7885(2)
H9_4 H 0.6897 0.7730 0.7715
C16_4 C 0.5183(2) 0.80551(19) 0.83775(17)
H10_2 H 0.4732 0.7772 0.8556
H7_3 H 0.0290 0.9194 0.3553
H10_3 H 0.0268 0.7772 0.3556
C12_5 C 0.5164(2) 0.10884(18) 0.33763(18)
H7_4 H 0.4710 0.0806 0.3553
C13_5 C 0.58313(19) 0.06481(19) 0.31079(17)
C14_5 C 0.6485(2) 0.11125(19) 0.2863(2)
H8_5 H 0.6947 0.0848 0.2684
C15_5 C 0.6451(2) 0.19699(19) 0.2885(2)
H9_5 H 0.6897 0.2270 0.2715
C16_5 C 0.5183(2) 0.19449(19) 0.33775(17)
H10_4 H 0.4732 0.2228 0.3556
N4 N 0.58109(16) 0.23877(16) 0.31380(13)
Cd2 Cd 0.587080(11) 0.383469(11) 0.320929(9)
C1_5 C 0.64181(18) 0.56783(17) 0.29320(16)
H1_5 H 0.6866 0.5375 0.2771
C2_5 C 0.64557(18) 0.65342(18) 0.29016(16)
H2_5 H 0.6920 0.6794 0.2723
C3_5 C 0.58014(18) 0.70034(18) 0.31375(14)
C4_5 C 0.5124(2) 0.65721(19) 0.34026(17)
H3_5 H 0.4669 0.6861 0.3570
C5_5 C 0.51365(19) 0.57170(18) 0.34136(16)
H4_5 H 0.4681 0.5440 0.3591
C6_5 C 0.58115(18) 0.79242(19) 0.31166(15)
C7_5 C 0.61648(18) 0.83718(17) 0.25758(15)
C8_5 C 0.61693(18) 0.92632(18) 0.25655(16)
C9_5 C 0.58256(19) 0.97322(18) 0.30989(17)
C10_5 C 0.5488(2) 0.92778(19) 0.36039(18)
H5_5 H 0.5256 0.9560 0.3960
C11_5 C 0.5476(2) 0.83960(18) 0.36083(16)
H6_5 H 0.5227 0.8127 0.3963
C17_5 C 0.36945(18) 0.38293(16) 0.32297(13)
C18_5 C 0.31999(18) 0.38316(17) 0.38638(13)
C19_5 C 0.2342(2) 0.3783(2) 0.38363(15)
H11_5 H 0.2076 0.3756 0.3429
C20_5 C 0.1881(2) 0.3772(3) 0.44123(16)
H12_5 H 0.1305 0.3734 0.4388
C21_5 C 0.22597(19) 0.38183(19) 0.50213(14)
C22_5 C 0.3113(2) 0.3893(3) 0.50485(16)
H13_5 H 0.3376 0.3942 0.5455
C23_5 C 0.3584(2) 0.3894(2) 0.44692(15)
H14_5 H 0.4160 0.3938 0.4493
C24_5 C 0.1744(2) 0.38051(19) 0.56420(15)
N1_5 N 0.64927(19) 0.95830(17) 0.20052(15)
N2_5 N 0.64887(18) 0.80337(16) 0.20218(15)
N3_5 N 0.57698(15) 0.52632(15) 0.31816(12)
O1_5 O 0.44629(15) 0.38150(16) 0.32641(12)
O2_3 O 0.32966(14) 0.38395(14) 0.26977(10)
O3_3 O 0.09780(15) 0.3741(2) 0.56024(12)
O4_3 O 0.20976(17) 0.3859(2) 0.61789(11)
S1_5 S 0.67566(7) 0.87987(6) 0.15550(5)
Cd3_2 Cd 0.412920(11) 0.383469(11) 0.179071(9)
Cd4_3 Cd 0.087080(11) 0.383469(11) 0.679071(9)
O5_3 O 0.67034(14) 0.38395(14) 0.23023(10)
O6_3 O 0.59780(15) 0.3741(2) 0.43976(12)
O7_3 O 0.70976(17) 0.3859(2) 0.38211(11)
C12_6 C 0.4836(2) 0.10884(18) 0.16237(18)
H7_5 H 0.5290 0.0806 0.1447
C13_6 C 0.41687(19) 0.06481(19) 0.18921(17)
C14_6 C 0.3515(2) 0.11125(19) 0.2137(2)
H8_6 H 0.3053 0.0848 0.2316
C15_6 C 0.3549(2) 0.19699(19) 0.2115(2)
H9_6 H 0.3103 0.2270 0.2285
C16_6 C 0.4817(2) 0.19449(19) 0.16225(17)
H10_5 H 0.5268 0.2228 0.1444
N4_2 N 0.41891(16) 0.23877(16) 0.18620(13)
C1_6 C 0.35819(18) 0.56783(17) 0.20680(16)
H1_6 H 0.3134 0.5375 0.2229
C2_6 C 0.35443(18) 0.65342(18) 0.20984(16)
H2_6 H 0.3080 0.6794 0.2277
C3_6 C 0.41986(18) 0.70034(18) 0.18625(14)
C4_6 C 0.4876(2) 0.65721(19) 0.15974(17)
H3_6 H 0.5331 0.6861 0.1430
C5_6 C 0.48635(19) 0.57170(18) 0.15864(16)
H4_6 H 0.5319 0.5440 0.1409
C6_6 C 0.41885(18) 0.79242(19) 0.18834(15)
C7_6 C 0.38352(18) 0.83718(17) 0.24242(15)
C8_6 C 0.38307(18) 0.92632(18) 0.24345(16)
C9_6 C 0.41744(19) 0.97322(18) 0.19011(17)
C10_6 C 0.4512(2) 0.92778(19) 0.13961(18)
H5_6 H 0.4744 0.9560 0.1040
C11_6 C 0.4524(2) 0.83960(18) 0.13917(16)
H6_6 H 0.4773 0.8127 0.1037
C17_6 C 0.63055(18) 0.38293(16) 0.17703(13)
C18_6 C 0.68001(18) 0.38316(17) 0.11362(13)
C19_6 C 0.7658(2) 0.3783(2) 0.11637(15)
H11_6 H 0.7924 0.3756 0.1571
C20_6 C 0.8119(2) 0.3772(3) 0.05877(16)
H12_6 H 0.8695 0.3734 0.0612
C23_6 C 0.6416(2) 0.3894(2) 0.05308(15)
H14_6 H 0.5840 0.3938 0.0507
N1_6 N 0.35073(19) 0.95830(17) 0.29948(15)
N2_6 N 0.35113(18) 0.80337(16) 0.29782(15)
N3_6 N 0.42302(15) 0.52632(15) 0.18184(12)
O1_6 O 0.55371(15) 0.38150(16) 0.17359(12)
S1_6 S 0.32434(7) 0.87987(6) 0.34450(5)
O6_4 O 0.40220(15) 0.3741(2) 0.06024(12)
O7_4 O 0.29024(17) 0.3859(2) 0.11789(11)
C21_6 C 0.77403(19) 0.38183(19) 0.99787(14)
C22_6 C 0.6887(2) 0.3893(3) 0.99515(16)
H13_6 H 0.6624 0.3942 0.9545
C24_6 C 0.8256(2) 0.38051(19) 0.93580(15)
O3_4 O 0.90220(15) 0.3741(2) 0.93976(12)
O4_4 O 0.79024(17) 0.3859(2) 0.88211(11)
Cd4_4 Cd 0.912920(11) 0.383469(11) 0.820929(9)
C12_7 C 0.0164(2) 0.10884(18) 0.66237(18)
C13_7 C 0.08313(19) 0.06481(19) 0.68921(17)
C14_7 C 0.1485(2) 0.11125(19) 0.7137(2)
H8_7 H 0.1947 0.0848 0.7316
C15_7 C 0.1451(2) 0.19699(19) 0.7115(2)
H9_7 H 0.1897 0.2270 0.7285
C16_7 C 0.0183(2) 0.19449(19) 0.66225(17)
N4_3 N 0.08109(16) 0.23877(16) 0.68620(13)
C1_7 C 0.14181(18) 0.56783(17) 0.70680(16)
H1_7 H 0.1866 0.5375 0.7229
C2_7 C 0.14557(18) 0.65342(18) 0.70984(16)
H2_7 H 0.1920 0.6794 0.7277
C3_7 C 0.08014(18) 0.70034(18) 0.68625(14)
C4_7 C 0.0124(2) 0.65721(19) 0.65974(17)
C5_7 C 0.01365(19) 0.57170(18) 0.65864(16)
C6_7 C 0.08115(18) 0.79242(19) 0.68834(15)
C7_7 C 0.11648(18) 0.83718(17) 0.74242(15)
C8_7 C 0.11693(18) 0.92632(18) 0.74345(16)
C9_7 C 0.08256(19) 0.97322(18) 0.69011(17)
C10_7 C 0.0488(2) 0.92778(19) 0.63961(18)
H5_7 H 0.0256 0.9560 0.6040
C11_7 C 0.0476(2) 0.83960(18) 0.63917(16)
H6_7 H 0.0227 0.8127 0.6037
N1_7 N 0.14927(19) 0.95830(17) 0.79948(15)
N2_7 N 0.14887(18) 0.80337(16) 0.79782(15)
N3_7 N 0.07698(15) 0.52632(15) 0.68184(12)
S1_7 S 0.17566(7) 0.87987(6) 0.84450(5)
O5_4 O 0.17034(14) 0.38395(14) 0.76977(10)
H3_7 H 0.9669 0.6861 0.6430
H4_7 H 0.9681 0.5440 0.6409
C17_7 C 0.86945(18) 0.38293(16) 0.67703(13)
C18_7 C 0.81999(18) 0.38316(17) 0.61362(13)
C19_7 C 0.7342(2) 0.3783(2) 0.61637(15)
H11_7 H 0.7076 0.3756 0.6571
C20_7 C 0.6881(2) 0.3772(3) 0.55877(16)
H12_7 H 0.6305 0.3734 0.5612
C21_7 C 0.72597(19) 0.38183(19) 0.49787(14)
C22_7 C 0.8113(2) 0.3893(3) 0.49515(16)
H13_7 H 0.8376 0.3942 0.4545
C23_7 C 0.8584(2) 0.3894(2) 0.55308(15)
H14_7 H 0.9160 0.3938 0.5507
C24_7 C 0.6744(2) 0.38051(19) 0.43580(15)
O1_7 O 0.94629(15) 0.38150(16) 0.67359(12)
O2_4 O 0.82966(14) 0.38395(14) 0.73023(10)
C21_8 C 0.27403(19) 0.38183(19) 0.00213(14)
C22_8 C 0.1887(2) 0.3893(3) 0.00485(16)
H13_8 H 0.1624 0.3942 0.0455
C24_8 C 0.3256(2) 0.38051(19) 0.06420(15)
H3_8 H 0.0331 0.6861 0.8570
H4_8 H 0.0319 0.5440 0.8591
C17_8 C 0.13055(18) 0.38293(16) 0.82297(13)
C18_8 C 0.18001(18) 0.38316(17) 0.88638(13)
C19_8 C 0.2658(2) 0.3783(2) 0.88363(15)
H11_8 H 0.2924 0.3756 0.8429
C20_8 C 0.3119(2) 0.3772(3) 0.94123(16)
H12_8 H 0.3695 0.3734 0.9388
C23_8 C 0.1416(2) 0.3894(2) 0.94692(15)
H14_8 H 0.0840 0.3938 0.9493
O1_8 O 0.05371(15) 0.38150(16) 0.82641(12)
C12_8 C 0.9836(2) 0.10884(18) 0.83763(18)
C13_8 C 0.91687(19) 0.06481(19) 0.81079(17)
C14_8 C 0.8515(2) 0.11125(19) 0.7863(2)
H8_8 H 0.8053 0.0848 0.7684
C15_8 C 0.8549(2) 0.19699(19) 0.7885(2)
H9_8 H 0.8103 0.2270 0.7715
C16_8 C 0.9817(2) 0.19449(19) 0.83775(17)
N4_4 N 0.91891(16) 0.23877(16) 0.81380(13)
C1_8 C 0.85819(18) 0.56783(17) 0.79320(16)
H1_8 H 0.8134 0.5375 0.7771
C2_8 C 0.85443(18) 0.65342(18) 0.79016(16)
H2_8 H 0.8080 0.6794 0.7723
C3_8 C 0.91986(18) 0.70034(18) 0.81375(14)
C4_8 C 0.9876(2) 0.65721(19) 0.84026(17)
C5_8 C 0.98635(19) 0.57170(18) 0.84136(16)
C6_8 C 0.91885(18) 0.79242(19) 0.81166(15)
C7_8 C 0.88352(18) 0.83718(17) 0.75758(15)
C8_8 C 0.88307(18) 0.92632(18) 0.75655(16)
C9_8 C 0.91744(19) 0.97322(18) 0.80989(17)
C10_8 C 0.9512(2) 0.92778(19) 0.86039(18)
H5_8 H 0.9744 0.9560 0.8960
C11_8 C 0.9524(2) 0.83960(18) 0.86083(16)
H6_8 H 0.9773 0.8127 0.8963
N1_8 N 0.85073(19) 0.95830(17) 0.70052(15)
N2_8 N 0.85113(18) 0.80337(16) 0.70218(15)
N3_8 N 0.92302(15) 0.52632(15) 0.81816(12)
S1_8 S 0.82434(7) 0.87987(6) 0.65550(5)
H7_6 H 0.9710 0.9194 0.1447
H10_6 H 0.9732 0.7772 0.1444
H7_7 H 0.9710 0.0806 0.6447
H10_7 H 0.9732 0.2228 0.6444
H7_8 H 0.0290 0.0806 0.8553
H10_8 H 0.0268 0.2228 0.8556
loop_
_geom_bond_atom_site_label_1
_geom_bond_atom_site_label_2
_geom_bond_site_symmetry_1
_geom_bond_site_symmetry_2
C17 C18 1_555 1_555
C18 C19 1_555 1_555
C19 H11 1_555 1_555
C20 C19 1_555 1_555
H12 C20 1_555 1_555
C21 C20 1_555 1_555
C22 C21 1_555 1_555
H13 C22 1_555 1_555
C23 C18 1_555 1_555
H14 C23 1_555 1_555
C24 C21 1_555 1_555
O1 C17 1_555 1_555
O2 C17 1_555 1_555
O3 C24 1_555 1_555
O4 C24 1_555 1_555
Cd3 O2 1_555 1_555
Cd4 O3 1_555 1_555
C22 C23 1_555 1_555
O4 Cd4 1_555 1_555
C1 H1 1_555 1_555
C2 C1 1_555 1_555
H2 C2 1_555 1_555
C3 C2 1_555 1_555
C4 C3 1_555 1_555
C5 C4 1_555 1_555
C6 C3 1_555 1_555
C7 C6 1_555 1_555
C8 C7 1_555 1_555
C9 C8 1_555 1_555
C10 C9 1_555 1_555
H5 C10 1_555 1_555
C11 C6 1_555 1_555
H6 C11 1_555 1_555
Cd1 N3 1_555 1_555
N1 C8 1_555 1_555
N2 C7 1_555 1_555
N3 C1 1_555 1_555
S1 N1 1_555 1_555
N5 Cd1 1_555 1_555
O5 Cd1 1_555 1_555
O6 Cd1 1_555 1_555
O7 Cd1 1_555 1_555
C5 N3 1_555 1_555
C10 C11 1_555 1_555
N2 S1 1_555 1_555
C14 C13 1_555 1_555
H8 C14 1_555 1_555
C15 C14 1_555 1_555
H9 C15 1_555 1_555
C16 C12 1_555 1_555
N5 C15 1_555 1_555
C12 C13 1_555 1_555
C16 N5 1_555 1_555
C1_2 H1_2 1_555 1_555
C2_2 C1_2 1_555 1_555
H2_2 C2_2 1_555 1_555
C3_2 C2_2 1_555 1_555
C4_2 C3_2 1_555 1_555
C5_2 C4_2 1_555 1_555
C6_2 C3_2 1_555 1_555
C7_2 C6_2 1_555 1_555
C8_2 C7_2 1_555 1_555
C9_2 C8_2 1_555 1_555
C10_2 C9_2 1_555 1_555
H5_2 C10_2 1_555 1_555
C11_2 C6_2 1_555 1_555
H6_2 C11_2 1_555 1_555
Cd3 N3_2 1_555 1_555
N1_2 C8_2 1_555 1_555
N2_2 C7_2 1_555 1_555
N3_2 C1_2 1_555 1_555
S1_2 N1_2 1_555 1_555
N5_2 Cd3 1_555 1_555
O6_2 Cd3 1_555 1_555
O7_2 Cd3 1_555 1_555
C5_2 N3_2 1_555 1_555
C10_2 C11_2 1_555 1_555
N2_2 S1_2 1_555 1_555
C14_2 C13_2 1_555 1_555
H8_2 C14_2 1_555 1_555
C15_2 C14_2 1_555 1_555
H9_2 C15_2 1_555 1_555
C16_2 C12_2 1_555 1_555
N5_2 C15_2 1_555 1_555
C12_2 C13_2 1_555 1_555
C16_2 N5_2 1_555 1_555
C17_2 C18_2 1_555 1_555
C18_2 C19_2 1_555 1_555
C19_2 H11_2 1_555 1_555
C20_2 C19_2 1_555 1_555
H12_2 C20_2 1_555 1_555
C23_2 C18_2 1_555 1_555
H14_2 C23_2 1_555 1_555
O1_2 C17_2 1_555 1_555
O5 C17_2 1_555 1_555
C22_2 C21_2 1_555 1_555
H13_2 C22_2 1_555 1_555
C24_2 C21_2 1_555 1_555
O3_2 C24_2 1_555 1_555
O4_2 C24_2 1_555 1_555
Cd4_2 O3_2 1_555 1_555
O4_2 Cd4_2 1_555 1_555
C1_3 H1_3 1_555 1_555
C2_3 C1_3 1_555 1_555
H2_3 C2_3 1_555 1_555
C3_3 C2_3 1_555 1_555
C4_3 C3_3 1_555 1_555
H3_3 C4_3 1_555 1_555
C5_3 C4_3 1_555 1_555
H4_3 C5_3 1_555 1_555
C6_3 C3_3 1_555 1_555
C7_3 C6_3 1_555 1_555
C8_3 C7_3 1_555 1_555
C9_3 C8_3 1_555 1_555
C10_3 C9_3 1_555 1_555
H5_3 C10_3 1_555 1_555
C11_3 C6_3 1_555 1_555
H6_3 C11_3 1_555 1_555
C17_3 C18_3 1_555 1_555
C18_3 C19_3 1_555 1_555
C19_3 H11_3 1_555 1_555
C20_3 C19_3 1_555 1_555
H12_3 C20_3 1_555 1_555
C21_3 C20_3 1_555 1_555
C22_3 C21_3 1_555 1_555
H13_3 C22_3 1_555 1_555
C23_3 C18_3 1_555 1_555
H14_3 C23_3 1_555 1_555
C24_3 C21_3 1_555 1_555
Cd4 N3_3 1_555 1_555
N1_3 C8_3 1_555 1_555
N2_3 C7_3 1_555 1_555
N3_3 C1_3 1_555 1_555
O1_3 C17_3 1_555 1_555
O2_2 C17_3 1_555 1_555
O6 C24_3 1_555 1_555
O7 C24_3 1_555 1_555
S1_3 N1_3 1_555 1_555
Cd4_2 O2_2 1_555 1_555
N5_3 Cd4 1_555 1_555
O5_2 Cd4 1_555 1_555
C5_3 N3_3 1_555 1_555
C10_3 C11_3 1_555 1_555
C22_3 C23_3 1_555 1_555
Cd4 O1_3 1_555 1_555
N2_3 S1_3 1_555 1_555
C12_3 H7 1_555 1_555
C14_3 C13_3 1_555 1_555
H8_3 C14_3 1_555 1_555
C15_3 C14_3 1_555 1_555
H9_3 C15_3 1_555 1_555
C16_3 C12_3 1_555 1_555
H10 C16_3 1_555 1_555
N5_3 C15_3 1_555 1_555
C12_3 C13_3 1_555 1_555
C16_3 N5_3 1_555 1_555
C22_4 C21_4 1_555 1_555
H13_4 C22_4 1_555 1_555
C24_4 C21_4 1_555 1_555
O6_2 C24_4 1_555 1_555
O7_2 C24_4 1_555 1_555
C1_4 H1_4 1_555 1_555
C2_4 C1_4 1_555 1_555
H2_4 C2_4 1_555 1_555
C3_4 C2_4 1_555 1_555
C4_4 C3_4 1_555 1_555
H3_4 C4_4 1_555 1_555
C5_4 C4_4 1_555 1_555
H4_4 C5_4 1_555 1_555
C6_4 C3_4 1_555 1_555
C7_4 C6_4 1_555 1_555
C8_4 C7_4 1_555 1_555
C9_4 C8_4 1_555 1_555
C10_4 C9_4 1_555 1_555
H5_4 C10_4 1_555 1_555
C11_4 C6_4 1_555 1_555
H6_4 C11_4 1_555 1_555
C17_4 C18_4 1_555 1_555
C18_4 C19_4 1_555 1_555
C19_4 H11_4 1_555 1_555
C20_4 C19_4 1_555 1_555
H12_4 C20_4 1_555 1_555
C23_4 C18_4 1_555 1_555
H14_4 C23_4 1_555 1_555
Cd4_2 N3_4 1_555 1_555
N1_4 C8_4 1_555 1_555
N2_4 C7_4 1_555 1_555
N3_4 C1_4 1_555 1_555
O1_4 C17_4 1_555 1_555
O5_2 C17_4 1_555 1_555
S1_4 N1_4 1_555 1_555
N5_4 Cd4_2 1_555 1_555
C5_4 N3_4 1_555 1_555
C10_4 C11_4 1_555 1_555
Cd4_2 O1_4 1_555 1_555
N2_4 S1_4 1_555 1_555
C12_4 H7_2 1_555 1_555
C14_4 C13_4 1_555 1_555
H8_4 C14_4 1_555 1_555
C15_4 C14_4 1_555 1_555
H9_4 C15_4 1_555 1_555
C16_4 C12_4 1_555 1_555
H10_2 C16_4 1_555 1_555
N5_4 C15_4 1_555 1_555
C12_4 C13_4 1_555 1_555
C16_4 N5_4 1_555 1_555
C12_5 H7_4 1_555 1_555
C14_5 C13_5 1_555 1_555
H8_5 C14_5 1_555 1_555
C15_5 C14_5 1_555 1_555
H9_5 C15_5 1_555 1_555
C16_5 C12_5 1_555 1_555
H10_4 C16_5 1_555 1_555
N4 C15_5 1_555 1_555
Cd2 N4 1_555 1_555
C12_5 C13_5 1_555 1_555
C16_5 N4 1_555 1_555
C1_5 H1_5 1_555 1_555
C2_5 C1_5 1_555 1_555
H2_5 C2_5 1_555 1_555
C3_5 C2_5 1_555 1_555
C4_5 C3_5 1_555 1_555
H3_5 C4_5 1_555 1_555
C5_5 C4_5 1_555 1_555
H4_5 C5_5 1_555 1_555
C6_5 C3_5 1_555 1_555
C7_5 C6_5 1_555 1_555
C8_5 C7_5 1_555 1_555
C9_5 C8_5 1_555 1_555
C10_5 C9_5 1_555 1_555
H5_5 C10_5 1_555 1_555
C11_5 C6_5 1_555 1_555
H6_5 C11_5 1_555 1_555
C17_5 C18_5 1_555 1_555
C18_5 C19_5 1_555 1_555
C19_5 H11_5 1_555 1_555
C20_5 C19_5 1_555 1_555
H12_5 C20_5 1_555 1_555
C21_5 C20_5 1_555 1_555
C22_5 C21_5 1_555 1_555
H13_5 C22_5 1_555 1_555
C23_5 C18_5 1_555 1_555
H14_5 C23_5 1_555 1_555
C24_5 C21_5 1_555 1_555
Cd2 N3_5 1_555 1_555
N1_5 C8_5 1_555 1_555
N2_5 C7_5 1_555 1_555
N3_5 C1_5 1_555 1_555
O1_5 C17_5 1_555 1_555
O2_3 C17_5 1_555 1_555
O3_3 C24_5 1_555 1_555
O4_3 C24_5 1_555 1_555
S1_5 N1_5 1_555 1_555
Cd3_2 O2_3 1_555 1_555
Cd4_3 O3_3 1_555 1_555
O5_3 Cd2 1_555 1_555
O6_3 Cd2 1_555 1_555
O7_3 Cd2 1_555 1_555
C5_5 N3_5 1_555 1_555
C10_5 C11_5 1_555 1_555
C22_5 C23_5 1_555 1_555
Cd2 O1_5 1_555 1_555
N2_5 S1_5 1_555 1_555
O4_3 Cd4_3 1_555 1_555
C12_6 H7_5 1_555 1_555
C14_6 C13_6 1_555 1_555
H8_6 C14_6 1_555 1_555
C15_6 C14_6 1_555 1_555
H9_6 C15_6 1_555 1_555
C16_6 C12_6 1_555 1_555
H10_5 C16_6 1_555 1_555
N4_2 C15_6 1_555 1_555
Cd3_2 N4_2 1_555 1_555
C12_6 C13_6 1_555 1_555
C16_6 N4_2 1_555 1_555
C1_6 H1_6 1_555 1_555
C2_6 C1_6 1_555 1_555
H2_6 C2_6 1_555 1_555
C3_6 C2_6 1_555 1_555
C4_6 C3_6 1_555 1_555
H3_6 C4_6 1_555 1_555
C5_6 C4_6 1_555 1_555
H4_6 C5_6 1_555 1_555
C6_6 C3_6 1_555 1_555
C7_6 C6_6 1_555 1_555
C8_6 C7_6 1_555 1_555
C9_6 C8_6 1_555 1_555
C10_6 C9_6 1_555 1_555
H5_6 C10_6 1_555 1_555
C11_6 C6_6 1_555 1_555
H6_6 C11_6 1_555 1_555
C17_6 C18_6 1_555 1_555
C18_6 C19_6 1_555 1_555
C19_6 H11_6 1_555 1_555
C20_6 C19_6 1_555 1_555
H12_6 C20_6 1_555 1_555
C23_6 C18_6 1_555 1_555
H14_6 C23_6 1_555 1_555
Cd3_2 N3_6 1_555 1_555
N1_6 C8_6 1_555 1_555
N2_6 C7_6 1_555 1_555
N3_6 C1_6 1_555 1_555
O1_6 C17_6 1_555 1_555
O5_3 C17_6 1_555 1_555
S1_6 N1_6 1_555 1_555
O6_4 Cd3_2 1_555 1_555
O7_4 Cd3_2 1_555 1_555
C5_6 N3_6 1_555 1_555
C10_6 C11_6 1_555 1_555
Cd3_2 O1_6 1_555 1_555
N2_6 S1_6 1_555 1_555
C22_6 C21_6 1_555 1_555
H13_6 C22_6 1_555 1_555
C24_6 C21_6 1_555 1_555
O3_4 C24_6 1_555 1_555
O4_4 C24_6 1_555 1_555
Cd4_4 O3_4 1_555 1_555
O4_4 Cd4_4 1_555 1_555
C14_7 C13_7 1_555 1_555
H8_7 C14_7 1_555 1_555
C15_7 C14_7 1_555 1_555
H9_7 C15_7 1_555 1_555
C16_7 C12_7 1_555 1_555
N4_3 C15_7 1_555 1_555
Cd4_3 N4_3 1_555 1_555
C12_7 C13_7 1_555 1_555
C16_7 N4_3 1_555 1_555
C1_7 H1_7 1_555 1_555
C2_7 C1_7 1_555 1_555
H2_7 C2_7 1_555 1_555
C3_7 C2_7 1_555 1_555
C4_7 C3_7 1_555 1_555
C5_7 C4_7 1_555 1_555
C6_7 C3_7 1_555 1_555
C7_7 C6_7 1_555 1_555
C8_7 C7_7 1_555 1_555
C9_7 C8_7 1_555 1_555
C10_7 C9_7 1_555 1_555
H5_7 C10_7 1_555 1_555
C11_7 C6_7 1_555 1_555
H6_7 C11_7 1_555 1_555
Cd4_3 N3_7 1_555 1_555
N1_7 C8_7 1_555 1_555
N2_7 C7_7 1_555 1_555
N3_7 C1_7 1_555 1_555
S1_7 N1_7 1_555 1_555
O5_4 Cd4_3 1_555 1_555
C5_7 N3_7 1_555 1_555
C10_7 C11_7 1_555 1_555
N2_7 S1_7 1_555 1_555
C17_7 C18_7 1_555 1_555
C18_7 C19_7 1_555 1_555
C19_7 H11_7 1_555 1_555
C20_7 C19_7 1_555 1_555
H12_7 C20_7 1_555 1_555
C21_7 C20_7 1_555 1_555
C22_7 C21_7 1_555 1_555
H13_7 C22_7 1_555 1_555
C23_7 C18_7 1_555 1_555
H14_7 C23_7 1_555 1_555
C24_7 C21_7 1_555 1_555
O1_7 C17_7 1_555 1_555
O2_4 C17_7 1_555 1_555
O6_3 C24_7 1_555 1_555
O7_3 C24_7 1_555 1_555
Cd4_4 O2_4 1_555 1_555
C22_7 C23_7 1_555 1_555
C22_8 C21_8 1_555 1_555
H13_8 C22_8 1_555 1_555
C24_8 C21_8 1_555 1_555
O6_4 C24_8 1_555 1_555
O7_4 C24_8 1_555 1_555
C17_8 C18_8 1_555 1_555
C18_8 C19_8 1_555 1_555
C19_8 H11_8 1_555 1_555
C20_8 C19_8 1_555 1_555
H12_8 C20_8 1_555 1_555
C23_8 C18_8 1_555 1_555
H14_8 C23_8 1_555 1_555
O1_8 C17_8 1_555 1_555
O5_4 C17_8 1_555 1_555
C14_8 C13_8 1_555 1_555
H8_8 C14_8 1_555 1_555
C15_8 C14_8 1_555 1_555
H9_8 C15_8 1_555 1_555
C16_8 C12_8 1_555 1_555
N4_4 C15_8 1_555 1_555
Cd4_4 N4_4 1_555 1_555
C12_8 C13_8 1_555 1_555
C16_8 N4_4 1_555 1_555
C1_8 H1_8 1_555 1_555
C2_8 C1_8 1_555 1_555
H2_8 C2_8 1_555 1_555
C3_8 C2_8 1_555 1_555
C4_8 C3_8 1_555 1_555
C5_8 C4_8 1_555 1_555
C6_8 C3_8 1_555 1_555
C7_8 C6_8 1_555 1_555
C8_8 C7_8 1_555 1_555
C9_8 C8_8 1_555 1_555
C10_8 C9_8 1_555 1_555
H5_8 C10_8 1_555 1_555
C11_8 C6_8 1_555 1_555
H6_8 C11_8 1_555 1_555
Cd4_4 N3_8 1_555 1_555
N1_8 C8_8 1_555 1_555
N2_8 C7_8 1_555 1_555
N3_8 C1_8 1_555 1_555
S1_8 N1_8 1_555 1_555
C5_8 N3_8 1_555 1_555
C10_8 C11_8 1_555 1_555
N2_8 S1_8 1_555 1_555

#END
