
###############################################################################
#
# This file contains modified crystal structure data generated from the
# MOF subset of the Cambridge Structural Database (CSD) v543 
# hosted by the Cambridge Crystallographic Data Centre (CCDC).
#
# This work is licensed under the Creative Commons
# Attribution-NonCommercial-ShareAlike 4.0 International License.
# To view a copy of this license, visit
# http://creativecommons.org/licenses/by-nc-sa/4.0/
# or send a letter to
# Creative Commons, PO Box 1866, Mountain View, CA 94042, USA.
#
# CIF created using the CSD Python API on 29 September 2022
# The structure has been converted into the P1 space group
# The structure has a 3D framework
# The original CSD entry AJUPAY is in the orthorhombic crystal system
# The framework has been calculated to contain at least 10.0% void space
# The void calculation uses a probe of radius 1.32A, grid spacing 0.4
#
###############################################################################

data_AJUPAY
_chemical_formula_moiety         '(C192 H112 Co8 N32 O32 S8)n'
_symmetry_cell_setting           triclinic
_symmetry_space_group_name_H-M   'P 1'
_symmetry_Int_Tables_number      1
_space_group_name_Hall           'P 1'
loop_
_symmetry_equiv_pos_site_id
_symmetry_equiv_pos_as_xyz
1 x,y,z
_cell_length_a                   18.396(4)
_cell_length_b                   15.810(4)
_cell_length_c                   17.018(4)
_cell_angle_alpha                90
_cell_angle_beta                 90
_cell_angle_gamma                90
_cell_volume                     4949.53
loop_
_atom_site_label
_atom_site_type_symbol
_atom_site_fract_x
_atom_site_fract_y
_atom_site_fract_z
Co4 Co 0.17771(3) 0.62990(4) 0.04566(3)
C35 C 0.0445(3) 0.6755(3) 0.6812(3)
H21 H 0.0502 0.6918 0.6291
C36 C 0.1020(3) 0.6830(3) 0.7334(3)
H22 H 0.1460 0.7053 0.7165
C37 C 0.0938(3) 0.6571(3) 0.8115(3)
C38 C 0.0273(3) 0.6267(3) 0.8377(3)
H23 H 0.0217 0.6098 0.8897
C40 C 0.1586(2) 0.6602(3) 0.8664(3)
O3 O 0.1512(2) 0.62570(19) 0.9318(2)
O4 O 0.21544(17) 0.6968(2) 0.84052(19)
Co7 Co 0.32134(3) 0.68184(4) 0.86510(3)
C6 C 0.7498(3) 0.0865(3) 0.5657(3)
C7 C 0.8143(2) 0.0384(3) 0.5465(4)
C8 C 0.8737(3) 0.0858(3) 0.5237(3)
H5 H 0.9156 0.0575 0.5081
C9 C 0.8740(3) 0.1760(3) 0.5229(3)
H6 H 0.9169 0.2037 0.5097
C10 C 0.8136(2) 0.2241(3) 0.5408(3)
C11 C 0.7489(3) 0.1762(3) 0.5611(3)
C12 C 0.8640(3) 0.4484(3) 0.4952(3)
H7 H 0.8959 0.4769 0.4621
C13 C 0.8619(3) 0.3621(3) 0.4919(3)
H8 H 0.8920 0.3331 0.4572
C14 C 0.8146(2) 0.3176(3) 0.5406(3)
C15 C 0.7713(2) 0.3650(3) 0.5931(3)
H9 H 0.7396 0.3379 0.6275
C16 C 0.7766(2) 0.4516(3) 0.5927(3)
H10 H 0.7476 0.4820 0.6275
N2 N 0.82110(19) 0.4951(3) 0.5449(3)
N5 N 0.6848(2) 0.0527(3) 0.5867(3)
N6 N 0.6844(2) 0.2105(3) 0.5784(3)
S2 S 0.63041(8) 0.13250(8) 0.59708(10)
Co3 Co 0.82229(3) 0.62990(4) 0.54566(3)
C1 C 0.8641(3) 0.8125(3) 0.5004(4)
H1 H 0.8965 0.7840 0.4678
C2 C 0.8625(3) 0.9004(3) 0.4974(3)
H2 H 0.8919 0.9292 0.4619
C3 C 0.8167(2) 0.9451(3) 0.5477(4)
C4 C 0.7739(3) 0.8964(3) 0.6006(3)
H3 H 0.7436 0.9232 0.6365
C5 C 0.7777(3) 0.8090(3) 0.5983(3)
H4 H 0.7489 0.7784 0.6331
C17 C 0.7335(3) 0.5041(3) 0.3215(3)
H11 H 0.7621 0.5357 0.2873
C18 C 0.7394(3) 0.4169(3) 0.3194(3)
H12 H 0.7713 0.3909 0.2846
C19 C 0.6965(3) 0.3683(3) 0.3703(3)
C20 C 0.6514(3) 0.4127(3) 0.4225(3)
H13 H 0.6231 0.3832 0.4586
C21 C 0.6488(3) 0.4992(3) 0.4206(3)
H14 H 0.6180 0.5269 0.4555
C22 C 0.6954(3) 0.2739(3) 0.3693(3)
C23 C 0.7573(3) 0.2249(3) 0.3458(3)
C24 C 0.7534(3) 0.1325(3) 0.3415(3)
C25 C 0.6879(3) 0.0891(3) 0.3622(4)
C26 C 0.6306(3) 0.1397(3) 0.3834(3)
H15 H 0.5869 0.1138 0.3970
C27 C 0.6341(3) 0.2284(3) 0.3858(3)
H16 H 0.5922 0.2579 0.3994
C33 C 0.9188(3) 0.6352(3) 0.6485(3)
C34 C 0.9779(3) 0.6433(3) 0.7072(3)
C39 C 0.9692(3) 0.6217(3) 0.7857(3)
H24 H 0.9240 0.6037 0.8036
C41 C 0.4164(3) 0.6660(3) 0.7642(3)
C42 C 0.4776(3) 0.6595(3) 0.7040(3)
C43 C 0.4647(3) 0.6710(3) 0.6254(3)
H25 H 0.4174 0.6780 0.6071
C44 C 0.5478(3) 0.6438(4) 0.7306(3)
H26 H 0.5560 0.6342 0.7838
C45 C 0.6061(3) 0.6423(4) 0.6779(3)
H27 H 0.6529 0.6311 0.6961
C46 C 0.5945(3) 0.6572(3) 0.6000(3)
C47 C 0.5248(3) 0.6719(3) 0.5714(3)
H28 H 0.5172 0.6822 0.5182
C48 C 0.6576(3) 0.6586(3) 0.5454(3)
Co2 Co 0.67866(3) 0.68184(4) 0.36510(3)
N1 N 0.8208(2) 0.7662(3) 0.5485(3)
N3 N 0.6886(2) 0.5456(2) 0.3709(3)
N7 N 0.8170(2) 0.0972(3) 0.3214(3)
N8 N 0.8239(2) 0.2548(3) 0.3284(3)
O1 O 0.93458(18) 0.6402(2) 0.5764(2)
O2 O 0.8535(2) 0.6252(2) 0.6704(2)
O5 O 0.35218(18) 0.6733(2) 0.7405(2)
O6 O 0.43223(19) 0.6662(2) 0.8356(2)
O7 O 0.65049(19) 0.6941(2) 0.47963(19)
O8 O 0.71565(18) 0.62556(19) 0.5711(2)
S1 S 0.87394(8) 0.17433(8) 0.30839(9)
N10 N 0.6716(2) 0.8185(3) 0.3571(3)
O9 O 0.8488(2) 0.62570(19) 0.4318(2)
O10 O 0.78456(17) 0.6968(2) 0.34052(19)
O11 O 0.64782(18) 0.6733(2) 0.2405(2)
O12 O 0.56777(19) 0.6662(2) 0.3356(2)
C28 C 0.6355(3) 0.8645(3) 0.4092(3)
H17 H 0.6071 0.8364 0.4462
C29 C 0.6376(3) 0.9518(3) 0.4118(3)
H18 H 0.6098 0.9812 0.4483
C30 C 0.6822(2) 0.9955(3) 0.3588(4)
C31 C 0.7189(3) 0.9470(3) 0.3032(3)
H19 H 0.7482 0.9731 0.2659
C32 C 0.7116(3) 0.8601(3) 0.3036(3)
H20 H 0.7355 0.8290 0.2650
C6_2 C 0.2502(3) 0.0865(3) 0.0657(3)
C7_2 C 0.1857(2) 0.0384(3) 0.0465(4)
C8_2 C 0.1263(3) 0.0858(3) 0.0237(3)
H5_2 H 0.0844 0.0575 0.0081
C9_2 C 0.1260(3) 0.1760(3) 0.0229(3)
H6_2 H 0.0831 0.2037 0.0097
C10_2 C 0.1864(2) 0.2241(3) 0.0408(3)
C11_2 C 0.2511(3) 0.1762(3) 0.0611(3)
C14_2 C 0.1854(2) 0.3176(3) 0.0406(3)
C15_2 C 0.2287(2) 0.3650(3) 0.0931(3)
H9_2 H 0.2604 0.3379 0.1275
C16_2 C 0.2234(2) 0.4516(3) 0.0927(3)
H10_2 H 0.2524 0.4820 0.1275
N2_2 N 0.17890(19) 0.4951(3) 0.0449(3)
N5_2 N 0.3152(2) 0.0527(3) 0.0867(3)
N6_2 N 0.3156(2) 0.2105(3) 0.0784(3)
S2_2 S 0.36959(8) 0.13250(8) 0.09708(10)
C1_2 C 0.1359(3) 0.8125(3) 0.0004(4)
C3_2 C 0.1833(2) 0.9451(3) 0.0477(4)
C4_2 C 0.2261(3) 0.8964(3) 0.1006(3)
H3_2 H 0.2564 0.9232 0.1365
C5_2 C 0.2223(3) 0.8090(3) 0.0983(3)
H4_2 H 0.2511 0.7784 0.1331
C33_2 C 0.0812(3) 0.6352(3) 0.1485(3)
C34_2 C 0.0221(3) 0.6433(3) 0.2072(3)
C39_2 C 0.0308(3) 0.6217(3) 0.2857(3)
H24_2 H 0.0760 0.6037 0.3036
C41_2 C 0.5836(3) 0.6660(3) 0.2642(3)
C42_2 C 0.5224(3) 0.6595(3) 0.2040(3)
C43_2 C 0.5353(3) 0.6710(3) 0.1254(3)
H25_2 H 0.5826 0.6780 0.1071
C44_2 C 0.4522(3) 0.6438(4) 0.2306(3)
H26_2 H 0.4440 0.6342 0.2838
C45_2 C 0.3939(3) 0.6423(4) 0.1779(3)
H27_2 H 0.3471 0.6311 0.1961
C46_2 C 0.4055(3) 0.6572(3) 0.1000(3)
C47_2 C 0.4752(3) 0.6719(3) 0.0714(3)
H28_2 H 0.4828 0.6822 0.0182
C48_2 C 0.3424(3) 0.6586(3) 0.0454(3)
N1_2 N 0.1792(2) 0.7662(3) 0.0485(3)
O1_2 O 0.06542(18) 0.6402(2) 0.0764(2)
O2_2 O 0.1465(2) 0.6252(2) 0.1704(2)
O8_2 O 0.28435(18) 0.62556(19) 0.0711(2)
H1_2 H 0.1035 0.7840 0.9678
C2_2 C 0.1375(3) 0.9004(3) 0.9974(3)
H2_2 H 0.1081 0.9292 0.9619
C17_2 C 0.2665(3) 0.5041(3) 0.8215(3)
H11_2 H 0.2379 0.5357 0.7873
C18_2 C 0.2606(3) 0.4169(3) 0.8194(3)
H12_2 H 0.2287 0.3909 0.7846
C19_2 C 0.3035(3) 0.3683(3) 0.8703(3)
C20_2 C 0.3486(3) 0.4127(3) 0.9225(3)
H13_2 H 0.3769 0.3832 0.9586
C21_2 C 0.3512(3) 0.4992(3) 0.9206(3)
H14_2 H 0.3820 0.5269 0.9555
C22_2 C 0.3046(3) 0.2739(3) 0.8693(3)
C23_2 C 0.2427(3) 0.2249(3) 0.8458(3)
C24_2 C 0.2466(3) 0.1325(3) 0.8415(3)
C25_2 C 0.3121(3) 0.0891(3) 0.8622(4)
C26_2 C 0.3694(3) 0.1397(3) 0.8834(3)
H15_2 H 0.4131 0.1138 0.8970
C27_2 C 0.3659(3) 0.2284(3) 0.8858(3)
H16_2 H 0.4078 0.2579 0.8994
N3_2 N 0.3114(2) 0.5456(2) 0.8709(3)
N7_2 N 0.1830(2) 0.0972(3) 0.8214(3)
N8_2 N 0.1761(2) 0.2548(3) 0.8284(3)
O7_2 O 0.34951(19) 0.6941(2) 0.97963(19)
S1_2 S 0.12606(8) 0.17433(8) 0.80839(9)
N10_2 N 0.3284(2) 0.8185(3) 0.8571(3)
C28_2 C 0.3645(3) 0.8645(3) 0.9092(3)
H17_2 H 0.3929 0.8364 0.9462
C29_2 C 0.3624(3) 0.9518(3) 0.9118(3)
H18_2 H 0.3902 0.9812 0.9483
C30_2 C 0.3178(2) 0.9955(3) 0.8588(4)
C31_2 C 0.2811(3) 0.9470(3) 0.8032(3)
H19_2 H 0.2518 0.9731 0.7659
C32_2 C 0.2884(3) 0.8601(3) 0.8036(3)
H20_2 H 0.2645 0.8290 0.7650
C35_2 C 0.9555(3) 0.6755(3) 0.1812(3)
H21_2 H 0.9498 0.6918 0.1291
C36_2 C 0.8980(3) 0.6830(3) 0.2334(3)
H22_2 H 0.8540 0.7053 0.2165
C37_2 C 0.9062(3) 0.6571(3) 0.3115(3)
C38_2 C 0.9727(3) 0.6267(3) 0.3377(3)
H23_2 H 0.9783 0.6098 0.3897
C40_2 C 0.8414(2) 0.6602(3) 0.3664(3)
C28_3 C 0.3645(3) 0.1355(3) 0.4092(3)
H17_3 H 0.3929 0.1636 0.4462
C29_3 C 0.3624(3) 0.0482(3) 0.4118(3)
H18_3 H 0.3902 0.0188 0.4483
C30_3 C 0.3178(2) 0.0045(3) 0.3588(4)
C31_3 C 0.2811(3) 0.0530(3) 0.3032(3)
H19_3 H 0.2518 0.0269 0.2659
C32_3 C 0.2884(3) 0.1399(3) 0.3036(3)
H20_3 H 0.2645 0.1710 0.2650
N4 N 0.3284(2) 0.1815(3) 0.3571(3)
Co5 Co 0.32134(3) 0.31816(4) 0.36510(3)
C1_3 C 0.1359(3) 0.1875(3) 0.5004(4)
H1_3 H 0.1035 0.2160 0.4678
C2_3 C 0.1375(3) 0.0996(3) 0.4974(3)
H2_3 H 0.1081 0.0708 0.4619
C3_3 C 0.1833(2) 0.0549(3) 0.5477(4)
C4_3 C 0.2261(3) 0.1036(3) 0.6006(3)
H3_3 H 0.2564 0.0768 0.6365
C5_3 C 0.2223(3) 0.1910(3) 0.5983(3)
H4_3 H 0.2511 0.2216 0.6331
C17_3 C 0.2665(3) 0.4959(3) 0.3215(3)
H11_3 H 0.2379 0.4643 0.2873
C18_3 C 0.2606(3) 0.5831(3) 0.3194(3)
H12_3 H 0.2287 0.6091 0.2846
C19_3 C 0.3035(3) 0.6317(3) 0.3703(3)
C20_3 C 0.3486(3) 0.5873(3) 0.4225(3)
H13_3 H 0.3769 0.6168 0.4586
C21_3 C 0.3512(3) 0.5008(3) 0.4206(3)
H14_3 H 0.3820 0.4731 0.4555
C22_3 C 0.3046(3) 0.7261(3) 0.3693(3)
C23_3 C 0.2427(3) 0.7751(3) 0.3458(3)
C24_3 C 0.2466(3) 0.8675(3) 0.3415(3)
C25_3 C 0.3121(3) 0.9109(3) 0.3622(4)
C26_3 C 0.3694(3) 0.8603(3) 0.3834(3)
H15_3 H 0.4131 0.8862 0.3970
C27_3 C 0.3659(3) 0.7716(3) 0.3858(3)
H16_3 H 0.4078 0.7421 0.3994
C33_3 C 0.0812(3) 0.3648(3) 0.6485(3)
C34_3 C 0.0221(3) 0.3567(3) 0.7072(3)
C39_3 C 0.0308(3) 0.3783(3) 0.7857(3)
H24_3 H 0.0760 0.3963 0.8036
C41_3 C 0.5836(3) 0.3340(3) 0.7642(3)
C42_3 C 0.5224(3) 0.3405(3) 0.7040(3)
C43_3 C 0.5353(3) 0.3290(3) 0.6254(3)
H25_3 H 0.5826 0.3220 0.6071
C44_3 C 0.4522(3) 0.3562(4) 0.7306(3)
H26_3 H 0.4440 0.3658 0.7838
C45_3 C 0.3939(3) 0.3577(4) 0.6779(3)
H27_3 H 0.3471 0.3689 0.6961
C46_3 C 0.4055(3) 0.3428(3) 0.6000(3)
C47_3 C 0.4752(3) 0.3281(3) 0.5714(3)
H28_3 H 0.4828 0.3178 0.5182
C48_3 C 0.3424(3) 0.3414(3) 0.5454(3)
Co1 Co 0.17771(3) 0.37010(4) 0.54566(3)
N1_3 N 0.1792(2) 0.2338(3) 0.5485(3)
N3_3 N 0.3114(2) 0.4544(2) 0.3709(3)
N7_3 N 0.1830(2) 0.9028(3) 0.3214(3)
N8_3 N 0.1761(2) 0.7452(3) 0.3284(3)
O1_3 O 0.06542(18) 0.3598(2) 0.5764(2)
O2_3 O 0.1465(2) 0.3748(2) 0.6704(2)
O5_2 O 0.64782(18) 0.3267(2) 0.7405(2)
O6_2 O 0.56777(19) 0.3338(2) 0.8356(2)
O7_3 O 0.34951(19) 0.3059(2) 0.47963(19)
O8_3 O 0.28435(18) 0.37444(19) 0.5711(2)
S1_3 S 0.12606(8) 0.82567(8) 0.30839(9)
Co6 Co 0.67866(3) 0.31816(4) 0.86510(3)
N9 N 0.17890(19) 0.5049(3) 0.5449(3)
O9_2 O 0.1512(2) 0.37430(19) 0.4318(2)
O10_2 O 0.21544(17) 0.3032(2) 0.34052(19)
O11_2 O 0.35218(18) 0.3267(2) 0.2405(2)
O12_2 O 0.43223(19) 0.3338(2) 0.3356(2)
C6_3 C 0.2502(3) 0.9135(3) 0.5657(3)
C7_3 C 0.1857(2) 0.9616(3) 0.5465(4)
C8_3 C 0.1263(3) 0.9142(3) 0.5237(3)
H5_3 H 0.0844 0.9425 0.5081
C9_3 C 0.1260(3) 0.8240(3) 0.5229(3)
H6_3 H 0.0831 0.7963 0.5097
C10_3 C 0.1864(2) 0.7759(3) 0.5408(3)
C11_3 C 0.2511(3) 0.8238(3) 0.5611(3)
C12_2 C 0.1360(3) 0.5516(3) 0.4952(3)
H7_2 H 0.1041 0.5231 0.4621
C13_2 C 0.1381(3) 0.6379(3) 0.4919(3)
H8_2 H 0.1080 0.6669 0.4572
C14_3 C 0.1854(2) 0.6824(3) 0.5406(3)
C15_3 C 0.2287(2) 0.6350(3) 0.5931(3)
H9_3 H 0.2604 0.6621 0.6275
C16_3 C 0.2234(2) 0.5484(3) 0.5927(3)
H10_3 H 0.2524 0.5180 0.6275
N5_3 N 0.3152(2) 0.9473(3) 0.5867(3)
N6_3 N 0.3156(2) 0.7895(3) 0.5784(3)
S2_3 S 0.36959(8) 0.86750(8) 0.59708(10)
Co4_2 Co 0.82229(3) 0.37010(4) 0.04566(3)
C35_3 C 0.9555(3) 0.3245(3) 0.6812(3)
H21_3 H 0.9498 0.3082 0.6291
C36_3 C 0.8980(3) 0.3170(3) 0.7334(3)
H22_3 H 0.8540 0.2947 0.7165
C37_3 C 0.9062(3) 0.3429(3) 0.8115(3)
C38_3 C 0.9727(3) 0.3733(3) 0.8377(3)
H23_3 H 0.9783 0.3902 0.8897
C40_3 C 0.8414(2) 0.3398(3) 0.8664(3)
O3_2 O 0.8488(2) 0.37430(19) 0.9318(2)
O4_2 O 0.78456(17) 0.3032(2) 0.84052(19)
C35_4 C 0.0445(3) 0.3245(3) 0.1812(3)
H21_4 H 0.0502 0.3082 0.1291
C36_4 C 0.1020(3) 0.3170(3) 0.2334(3)
H22_4 H 0.1460 0.2947 0.2165
C37_4 C 0.0938(3) 0.3429(3) 0.3115(3)
C38_4 C 0.0273(3) 0.3733(3) 0.3377(3)
H23_4 H 0.0217 0.3902 0.3897
C40_4 C 0.1586(2) 0.3398(3) 0.3664(3)
C28_4 C 0.6355(3) 0.1355(3) 0.9092(3)
H17_4 H 0.6071 0.1636 0.9462
C29_4 C 0.6376(3) 0.0482(3) 0.9118(3)
H18_4 H 0.6098 0.0188 0.9483
C30_4 C 0.6822(2) 0.0045(3) 0.8588(4)
C31_4 C 0.7189(3) 0.0530(3) 0.8032(3)
H19_4 H 0.7482 0.0269 0.7659
C32_4 C 0.7116(3) 0.1399(3) 0.8036(3)
H20_4 H 0.7355 0.1710 0.7650
N4_2 N 0.6716(2) 0.1815(3) 0.8571(3)
C1_4 C 0.8641(3) 0.1875(3) 0.0004(4)
C3_4 C 0.8167(2) 0.0549(3) 0.0477(4)
C4_4 C 0.7739(3) 0.1036(3) 0.1006(3)
H3_4 H 0.7436 0.0768 0.1365
C5_4 C 0.7777(3) 0.1910(3) 0.0983(3)
H4_4 H 0.7489 0.2216 0.1331
C33_4 C 0.9188(3) 0.3648(3) 0.1485(3)
C34_4 C 0.9779(3) 0.3567(3) 0.2072(3)
C39_4 C 0.9692(3) 0.3783(3) 0.2857(3)
H24_4 H 0.9240 0.3963 0.3036
C41_4 C 0.4164(3) 0.3340(3) 0.2642(3)
C42_4 C 0.4776(3) 0.3405(3) 0.2040(3)
C43_4 C 0.4647(3) 0.3290(3) 0.1254(3)
H25_4 H 0.4174 0.3220 0.1071
C44_4 C 0.5478(3) 0.3562(4) 0.2306(3)
H26_4 H 0.5560 0.3658 0.2838
C45_4 C 0.6061(3) 0.3577(4) 0.1779(3)
H27_4 H 0.6529 0.3689 0.1961
C46_4 C 0.5945(3) 0.3428(3) 0.1000(3)
C47_4 C 0.5248(3) 0.3281(3) 0.0714(3)
H28_4 H 0.5172 0.3178 0.0182
C48_4 C 0.6576(3) 0.3414(3) 0.0454(3)
N1_4 N 0.8208(2) 0.2338(3) 0.0485(3)
O1_4 O 0.93458(18) 0.3598(2) 0.0764(2)
O2_4 O 0.8535(2) 0.3748(2) 0.1704(2)
O8_4 O 0.71565(18) 0.37444(19) 0.0711(2)
N9_2 N 0.82110(19) 0.5049(3) 0.0449(3)
H1_4 H 0.8965 0.2160 0.9678
C2_4 C 0.8625(3) 0.0996(3) 0.9974(3)
H2_4 H 0.8919 0.0708 0.9619
C17_4 C 0.7335(3) 0.4959(3) 0.8215(3)
H11_4 H 0.7621 0.4643 0.7873
C18_4 C 0.7394(3) 0.5831(3) 0.8194(3)
H12_4 H 0.7713 0.6091 0.7846
C19_4 C 0.6965(3) 0.6317(3) 0.8703(3)
C20_4 C 0.6514(3) 0.5873(3) 0.9225(3)
H13_4 H 0.6231 0.6168 0.9586
C21_4 C 0.6488(3) 0.5008(3) 0.9206(3)
H14_4 H 0.6180 0.4731 0.9555
C22_4 C 0.6954(3) 0.7261(3) 0.8693(3)
C23_4 C 0.7573(3) 0.7751(3) 0.8458(3)
C24_4 C 0.7534(3) 0.8675(3) 0.8415(3)
C25_4 C 0.6879(3) 0.9109(3) 0.8622(4)
C26_4 C 0.6306(3) 0.8603(3) 0.8834(3)
H15_4 H 0.5869 0.8862 0.8970
C27_4 C 0.6341(3) 0.7716(3) 0.8858(3)
H16_4 H 0.5922 0.7421 0.8994
N3_4 N 0.6886(2) 0.4544(2) 0.8709(3)
N7_4 N 0.8170(2) 0.9028(3) 0.8214(3)
N8_4 N 0.8239(2) 0.7452(3) 0.8284(3)
O7_4 O 0.65049(19) 0.3059(2) 0.97963(19)
S1_4 S 0.87394(8) 0.82567(8) 0.80839(9)
C6_4 C 0.7498(3) 0.9135(3) 0.0657(3)
C7_4 C 0.8143(2) 0.9616(3) 0.0465(4)
C8_4 C 0.8737(3) 0.9142(3) 0.0237(3)
H5_4 H 0.9156 0.9425 0.0081
C9_4 C 0.8740(3) 0.8240(3) 0.0229(3)
H6_4 H 0.9169 0.7963 0.0097
C10_4 C 0.8136(2) 0.7759(3) 0.0408(3)
C11_4 C 0.7489(3) 0.8238(3) 0.0611(3)
C14_4 C 0.8146(2) 0.6824(3) 0.0406(3)
C15_4 C 0.7713(2) 0.6350(3) 0.0931(3)
H9_4 H 0.7396 0.6621 0.1275
C16_4 C 0.7766(2) 0.5484(3) 0.0927(3)
H10_4 H 0.7476 0.5180 0.1275
N5_4 N 0.6848(2) 0.9473(3) 0.0867(3)
N6_4 N 0.6844(2) 0.7895(3) 0.0784(3)
S2_4 S 0.63041(8) 0.86750(8) 0.09708(10)
C12_3 C 0.8640(3) 0.5516(3) 0.9952(3)
H7_3 H 0.8959 0.5231 0.9621
C13_3 C 0.8619(3) 0.6379(3) 0.9919(3)
H8_3 H 0.8920 0.6669 0.9572
C12_4 C 0.1360(3) 0.4484(3) 0.9952(3)
H7_4 H 0.1041 0.4769 0.9621
C13_4 C 0.1381(3) 0.3621(3) 0.9919(3)
H8_4 H 0.1080 0.3331 0.9572
loop_
_geom_bond_atom_site_label_1
_geom_bond_atom_site_label_2
_geom_bond_site_symmetry_1
_geom_bond_site_symmetry_2
C35 H21 1_555 1_555
C36 C35 1_555 1_555
H22 C36 1_555 1_555
C37 C36 1_555 1_555
C38 C37 1_555 1_555
H23 C38 1_555 1_555
C40 C37 1_555 1_555
O3 C40 1_555 1_555
O4 C40 1_555 1_555
Co7 O4 1_555 1_555
C6 C7 1_555 1_555
C8 C7 1_555 1_555
H5 C8 1_555 1_555
C9 C8 1_555 1_555
H6 C9 1_555 1_555
C10 C9 1_555 1_555
C11 C6 1_555 1_555
C12 H7 1_555 1_555
C13 C12 1_555 1_555
H8 C13 1_555 1_555
C14 C10 1_555 1_555
C15 C14 1_555 1_555
H9 C15 1_555 1_555
C16 C15 1_555 1_555
H10 C16 1_555 1_555
N2 C12 1_555 1_555
N5 C6 1_555 1_555
N6 C11 1_555 1_555
S2 N5 1_555 1_555
Co3 N2 1_555 1_555
C10 C11 1_555 1_555
C13 C14 1_555 1_555
C16 N2 1_555 1_555
N6 S2 1_555 1_555
C1 H1 1_555 1_555
C2 C1 1_555 1_555
H2 C2 1_555 1_555
C3 C2 1_555 1_555
C4 C3 1_555 1_555
H3 C4 1_555 1_555
C5 C4 1_555 1_555
H4 C5 1_555 1_555
C17 H11 1_555 1_555
C18 C17 1_555 1_555
H12 C18 1_555 1_555
C19 C18 1_555 1_555
C20 C19 1_555 1_555
H13 C20 1_555 1_555
C21 C20 1_555 1_555
H14 C21 1_555 1_555
C22 C19 1_555 1_555
C23 C22 1_555 1_555
C24 C23 1_555 1_555
C25 C24 1_555 1_555
C26 C25 1_555 1_555
H15 C26 1_555 1_555
C27 C22 1_555 1_555
H16 C27 1_555 1_555
C33 C34 1_555 1_555
C39 C34 1_555 1_555
H24 C39 1_555 1_555
C41 C42 1_555 1_555
C42 C43 1_555 1_555
C43 H25 1_555 1_555
C44 C42 1_555 1_555
H26 C44 1_555 1_555
C45 C44 1_555 1_555
H27 C45 1_555 1_555
C46 C45 1_555 1_555
C47 C43 1_555 1_555
H28 C47 1_555 1_555
C48 C46 1_555 1_555
Co3 N1 1_555 1_555
Co2 N3 1_555 1_555
N1 C1 1_555 1_555
N3 C17 1_555 1_555
N7 C24 1_555 1_555
N8 C23 1_555 1_555
O1 C33 1_555 1_555
O2 C33 1_555 1_555
O5 C41 1_555 1_555
O6 C41 1_555 1_555
O7 C48 1_555 1_555
O8 C48 1_555 1_555
S1 N7 1_555 1_555
Co7 O5 1_555 1_555
N10 Co2 1_555 1_555
O9 Co3 1_555 1_555
O10 Co2 1_555 1_555
O11 Co2 1_555 1_555
O12 Co2 1_555 1_555
C5 N1 1_555 1_555
C21 N3 1_555 1_555
C26 C27 1_555 1_555
C46 C47 1_555 1_555
Co3 O1 1_555 1_555
Co3 O2 1_555 1_555
Co3 O8 1_555 1_555
Co2 O7 1_555 1_555
N8 S1 1_555 1_555
O6 Co7 1_555 1_555
C28 H17 1_555 1_555
C29 C28 1_555 1_555
H18 C29 1_555 1_555
C31 C30 1_555 1_555
H19 C31 1_555 1_555
C32 C31 1_555 1_555
H20 C32 1_555 1_555
N10 C28 1_555 1_555
C29 C30 1_555 1_555
C32 N10 1_555 1_555
C6_2 C7_2 1_555 1_555
C8_2 C7_2 1_555 1_555
H5_2 C8_2 1_555 1_555
C9_2 C8_2 1_555 1_555
H6_2 C9_2 1_555 1_555
C10_2 C9_2 1_555 1_555
C11_2 C6_2 1_555 1_555
C14_2 C10_2 1_555 1_555
C15_2 C14_2 1_555 1_555
H9_2 C15_2 1_555 1_555
C16_2 C15_2 1_555 1_555
H10_2 C16_2 1_555 1_555
N5_2 C6_2 1_555 1_555
N6_2 C11_2 1_555 1_555
S2_2 N5_2 1_555 1_555
Co4 N2_2 1_555 1_555
C10_2 C11_2 1_555 1_555
C16_2 N2_2 1_555 1_555
N6_2 S2_2 1_555 1_555
C4_2 C3_2 1_555 1_555
H3_2 C4_2 1_555 1_555
C5_2 C4_2 1_555 1_555
H4_2 C5_2 1_555 1_555
C33_2 C34_2 1_555 1_555
C39_2 C34_2 1_555 1_555
H24_2 C39_2 1_555 1_555
C41_2 C42_2 1_555 1_555
C42_2 C43_2 1_555 1_555
C43_2 H25_2 1_555 1_555
C44_2 C42_2 1_555 1_555
H26_2 C44_2 1_555 1_555
C45_2 C44_2 1_555 1_555
H27_2 C45_2 1_555 1_555
C46_2 C45_2 1_555 1_555
C47_2 C43_2 1_555 1_555
H28_2 C47_2 1_555 1_555
C48_2 C46_2 1_555 1_555
Co4 N1_2 1_555 1_555
N1_2 C1_2 1_555 1_555
O1_2 C33_2 1_555 1_555
O2_2 C33_2 1_555 1_555
O11 C41_2 1_555 1_555
O12 C41_2 1_555 1_555
O8_2 C48_2 1_555 1_555
C5_2 N1_2 1_555 1_555
C46_2 C47_2 1_555 1_555
Co4 O1_2 1_555 1_555
Co4 O2_2 1_555 1_555
Co4 O8_2 1_555 1_555
H2_2 C2_2 1_555 1_555
C17_2 H11_2 1_555 1_555
C18_2 C17_2 1_555 1_555
H12_2 C18_2 1_555 1_555
C19_2 C18_2 1_555 1_555
C20_2 C19_2 1_555 1_555
H13_2 C20_2 1_555 1_555
C21_2 C20_2 1_555 1_555
H14_2 C21_2 1_555 1_555
C22_2 C19_2 1_555 1_555
C23_2 C22_2 1_555 1_555
C24_2 C23_2 1_555 1_555
C25_2 C24_2 1_555 1_555
C26_2 C25_2 1_555 1_555
H15_2 C26_2 1_555 1_555
C27_2 C22_2 1_555 1_555
H16_2 C27_2 1_555 1_555
Co7 N3_2 1_555 1_555
N3_2 C17_2 1_555 1_555
N7_2 C24_2 1_555 1_555
N8_2 C23_2 1_555 1_555
S1_2 N7_2 1_555 1_555
N10_2 Co7 1_555 1_555
C21_2 N3_2 1_555 1_555
C26_2 C27_2 1_555 1_555
Co7 O7_2 1_555 1_555
N8_2 S1_2 1_555 1_555
C28_2 H17_2 1_555 1_555
C29_2 C28_2 1_555 1_555
H18_2 C29_2 1_555 1_555
C31_2 C30_2 1_555 1_555
H19_2 C31_2 1_555 1_555
C32_2 C31_2 1_555 1_555
H20_2 C32_2 1_555 1_555
N10_2 C28_2 1_555 1_555
C29_2 C30_2 1_555 1_555
C32_2 N10_2 1_555 1_555
C35_2 H21_2 1_555 1_555
C36_2 C35_2 1_555 1_555
H22_2 C36_2 1_555 1_555
C37_2 C36_2 1_555 1_555
C38_2 C37_2 1_555 1_555
H23_2 C38_2 1_555 1_555
C40_2 C37_2 1_555 1_555
O9 C40_2 1_555 1_555
O10 C40_2 1_555 1_555
C28_3 H17_3 1_555 1_555
C29_3 C28_3 1_555 1_555
H18_3 C29_3 1_555 1_555
C31_3 C30_3 1_555 1_555
H19_3 C31_3 1_555 1_555
C32_3 C31_3 1_555 1_555
H20_3 C32_3 1_555 1_555
N4 C28_3 1_555 1_555
Co5 N4 1_555 1_555
C29_3 C30_3 1_555 1_555
C32_3 N4 1_555 1_555
C1_3 H1_3 1_555 1_555
C2_3 C1_3 1_555 1_555
H2_3 C2_3 1_555 1_555
C3_3 C2_3 1_555 1_555
C4_3 C3_3 1_555 1_555
H3_3 C4_3 1_555 1_555
C5_3 C4_3 1_555 1_555
H4_3 C5_3 1_555 1_555
C17_3 H11_3 1_555 1_555
C18_3 C17_3 1_555 1_555
H12_3 C18_3 1_555 1_555
C19_3 C18_3 1_555 1_555
C20_3 C19_3 1_555 1_555
H13_3 C20_3 1_555 1_555
C21_3 C20_3 1_555 1_555
H14_3 C21_3 1_555 1_555
C22_3 C19_3 1_555 1_555
C23_3 C22_3 1_555 1_555
C24_3 C23_3 1_555 1_555
C25_3 C24_3 1_555 1_555
C26_3 C25_3 1_555 1_555
H15_3 C26_3 1_555 1_555
C27_3 C22_3 1_555 1_555
H16_3 C27_3 1_555 1_555
C33_3 C34_3 1_555 1_555
C39_3 C34_3 1_555 1_555
H24_3 C39_3 1_555 1_555
C41_3 C42_3 1_555 1_555
C42_3 C43_3 1_555 1_555
C43_3 H25_3 1_555 1_555
C44_3 C42_3 1_555 1_555
H26_3 C44_3 1_555 1_555
C45_3 C44_3 1_555 1_555
H27_3 C45_3 1_555 1_555
C46_3 C45_3 1_555 1_555
C47_3 C43_3 1_555 1_555
H28_3 C47_3 1_555 1_555
C48_3 C46_3 1_555 1_555
Co1 N1_3 1_555 1_555
Co5 N3_3 1_555 1_555
N1_3 C1_3 1_555 1_555
N3_3 C17_3 1_555 1_555
N7_3 C24_3 1_555 1_555
N8_3 C23_3 1_555 1_555
O1_3 C33_3 1_555 1_555
O2_3 C33_3 1_555 1_555
O5_2 C41_3 1_555 1_555
O6_2 C41_3 1_555 1_555
O7_3 C48_3 1_555 1_555
O8_3 C48_3 1_555 1_555
S1_3 N7_3 1_555 1_555
Co6 O5_2 1_555 1_555
N9 Co1 1_555 1_555
O9_2 Co1 1_555 1_555
O10_2 Co5 1_555 1_555
O11_2 Co5 1_555 1_555
O12_2 Co5 1_555 1_555
C5_3 N1_3 1_555 1_555
C21_3 N3_3 1_555 1_555
C26_3 C27_3 1_555 1_555
C46_3 C47_3 1_555 1_555
Co1 O1_3 1_555 1_555
Co1 O2_3 1_555 1_555
Co1 O8_3 1_555 1_555
Co5 O7_3 1_555 1_555
N8_3 S1_3 1_555 1_555
O6_2 Co6 1_555 1_555
C6_3 C7_3 1_555 1_555
C8_3 C7_3 1_555 1_555
H5_3 C8_3 1_555 1_555
C9_3 C8_3 1_555 1_555
H6_3 C9_3 1_555 1_555
C10_3 C9_3 1_555 1_555
C11_3 C6_3 1_555 1_555
C12_2 H7_2 1_555 1_555
C13_2 C12_2 1_555 1_555
H8_2 C13_2 1_555 1_555
C14_3 C10_3 1_555 1_555
C15_3 C14_3 1_555 1_555
H9_3 C15_3 1_555 1_555
C16_3 C15_3 1_555 1_555
H10_3 C16_3 1_555 1_555
N9 C12_2 1_555 1_555
N5_3 C6_3 1_555 1_555
N6_3 C11_3 1_555 1_555
S2_3 N5_3 1_555 1_555
C10_3 C11_3 1_555 1_555
C13_2 C14_3 1_555 1_555
C16_3 N9 1_555 1_555
N6_3 S2_3 1_555 1_555
C35_3 H21_3 1_555 1_555
C36_3 C35_3 1_555 1_555
H22_3 C36_3 1_555 1_555
C37_3 C36_3 1_555 1_555
C38_3 C37_3 1_555 1_555
H23_3 C38_3 1_555 1_555
C40_3 C37_3 1_555 1_555
O3_2 C40_3 1_555 1_555
O4_2 C40_3 1_555 1_555
Co6 O4_2 1_555 1_555
C35_4 H21_4 1_555 1_555
C36_4 C35_4 1_555 1_555
H22_4 C36_4 1_555 1_555
C37_4 C36_4 1_555 1_555
C38_4 C37_4 1_555 1_555
H23_4 C38_4 1_555 1_555
C40_4 C37_4 1_555 1_555
O9_2 C40_4 1_555 1_555
O10_2 C40_4 1_555 1_555
C28_4 H17_4 1_555 1_555
C29_4 C28_4 1_555 1_555
H18_4 C29_4 1_555 1_555
C31_4 C30_4 1_555 1_555
H19_4 C31_4 1_555 1_555
C32_4 C31_4 1_555 1_555
H20_4 C32_4 1_555 1_555
N4_2 C28_4 1_555 1_555
Co6 N4_2 1_555 1_555
C29_4 C30_4 1_555 1_555
C32_4 N4_2 1_555 1_555
C4_4 C3_4 1_555 1_555
H3_4 C4_4 1_555 1_555
C5_4 C4_4 1_555 1_555
H4_4 C5_4 1_555 1_555
C33_4 C34_4 1_555 1_555
C39_4 C34_4 1_555 1_555
H24_4 C39_4 1_555 1_555
C41_4 C42_4 1_555 1_555
C42_4 C43_4 1_555 1_555
C43_4 H25_4 1_555 1_555
C44_4 C42_4 1_555 1_555
H26_4 C44_4 1_555 1_555
C45_4 C44_4 1_555 1_555
H27_4 C45_4 1_555 1_555
C46_4 C45_4 1_555 1_555
C47_4 C43_4 1_555 1_555
H28_4 C47_4 1_555 1_555
C48_4 C46_4 1_555 1_555
Co4_2 N1_4 1_555 1_555
N1_4 C1_4 1_555 1_555
O1_4 C33_4 1_555 1_555
O2_4 C33_4 1_555 1_555
O11_2 C41_4 1_555 1_555
O12_2 C41_4 1_555 1_555
O8_4 C48_4 1_555 1_555
N9_2 Co4_2 1_555 1_555
C5_4 N1_4 1_555 1_555
C46_4 C47_4 1_555 1_555
Co4_2 O1_4 1_555 1_555
Co4_2 O2_4 1_555 1_555
Co4_2 O8_4 1_555 1_555
H2_4 C2_4 1_555 1_555
C17_4 H11_4 1_555 1_555
C18_4 C17_4 1_555 1_555
H12_4 C18_4 1_555 1_555
C19_4 C18_4 1_555 1_555
C20_4 C19_4 1_555 1_555
H13_4 C20_4 1_555 1_555
C21_4 C20_4 1_555 1_555
H14_4 C21_4 1_555 1_555
C22_4 C19_4 1_555 1_555
C23_4 C22_4 1_555 1_555
C24_4 C23_4 1_555 1_555
C25_4 C24_4 1_555 1_555
C26_4 C25_4 1_555 1_555
H15_4 C26_4 1_555 1_555
C27_4 C22_4 1_555 1_555
H16_4 C27_4 1_555 1_555
Co6 N3_4 1_555 1_555
N3_4 C17_4 1_555 1_555
N7_4 C24_4 1_555 1_555
N8_4 C23_4 1_555 1_555
S1_4 N7_4 1_555 1_555
C21_4 N3_4 1_555 1_555
C26_4 C27_4 1_555 1_555
Co6 O7_4 1_555 1_555
N8_4 S1_4 1_555 1_555
C6_4 C7_4 1_555 1_555
C8_4 C7_4 1_555 1_555
H5_4 C8_4 1_555 1_555
C9_4 C8_4 1_555 1_555
H6_4 C9_4 1_555 1_555
C10_4 C9_4 1_555 1_555
C11_4 C6_4 1_555 1_555
C14_4 C10_4 1_555 1_555
C15_4 C14_4 1_555 1_555
H9_4 C15_4 1_555 1_555
C16_4 C15_4 1_555 1_555
H10_4 C16_4 1_555 1_555
N5_4 C6_4 1_555 1_555
N6_4 C11_4 1_555 1_555
S2_4 N5_4 1_555 1_555
C10_4 C11_4 1_555 1_555
C16_4 N9_2 1_555 1_555
N6_4 S2_4 1_555 1_555
C12_3 H7_3 1_555 1_555
C13_3 C12_3 1_555 1_555
H8_3 C13_3 1_555 1_555
C12_4 H7_4 1_555 1_555
C13_4 C12_4 1_555 1_555
H8_4 C13_4 1_555 1_555

#END
