
###############################################################################
#
# This file contains modified crystal structure data generated from the
# MOF subset of the Cambridge Structural Database (CSD) v543 
# hosted by the Cambridge Crystallographic Data Centre (CCDC).
#
# This work is licensed under the Creative Commons
# Attribution-NonCommercial-ShareAlike 4.0 International License.
# To view a copy of this license, visit
# http://creativecommons.org/licenses/by-nc-sa/4.0/
# or send a letter to
# Creative Commons, PO Box 1866, Mountain View, CA 94042, USA.
#
# CIF created using the CSD Python API on 29 September 2022
# The structure has been converted into the P1 space group
# The structure has a 3D framework
# The original CSD entry AKAKIJ is in the trigonal crystal system
# The original CSD entry AKAKIJ is in a Sohncke space group
# The framework has been calculated to contain at least 10.0% void space
# The void calculation uses a probe of radius 1.32A, grid spacing 0.4
#
###############################################################################

data_AKAKIJ
_chemical_formula_moiety         '(C162 H102 N12 O35 Zn9)n'
_symmetry_cell_setting           triclinic
_symmetry_space_group_name_H-M   'P 1'
_symmetry_Int_Tables_number      1
_space_group_name_Hall           'P 1'
loop_
_symmetry_equiv_pos_site_id
_symmetry_equiv_pos_as_xyz
1 x,y,z
_cell_length_a                   14.0232(19)
_cell_length_b                   14.0232(19)
_cell_length_c                   25.446(7)
_cell_angle_alpha                90
_cell_angle_beta                 90
_cell_angle_gamma                120
_cell_volume                     4333.56
loop_
_atom_site_label
_atom_site_type_symbol
_atom_site_fract_x
_atom_site_fract_y
_atom_site_fract_z
Zn2 Zn -0.000000 0.29207(12) 0.666667
O18 O 0.0035(5) 0.3900(7) 0.7242(4)
O19 O 0.1299(5) 0.2808(7) 0.6726(2)
C21 C 0.7948(6) 0.1114(7) 0.6262(3)
O5 O 0.8701(5) 0.1509(5) 0.6607(2)
Zn2_2 Zn 1.000000 0.29207(12) 0.666667
O6 O 0.7858(6) 0.1700(5) 0.5915(3)
O17 O 0.9965(5) 0.3865(5) 0.6091(4)
Zn5 Zn 0.84868(7) 0.31011(7) 0.55004(4)
O1 O 0.8335(6) 0.4510(7) 0.5464(4)
O2 O 0.6915(9) 0.3039(8) 0.5734(3)
C1 C 0.7404(11) 0.4056(10) 0.5629(4)
C2 C 0.6822(8) 0.4689(8) 0.5742(3)
C3 C 0.7303(6) 0.5786(7) 0.5596(4)
H1 H 0.797523 0.611796 0.542115
C4 C 0.5801(8) 0.4217(7) 0.5985(3)
H2 H 0.545241 0.347613 0.607603
C5 C 0.5298(8) 0.4803(7) 0.6093(3)
H3 H 0.462499 0.447060 0.626738
C6 C 0.5794(7) 0.5918(7) 0.5943(3)
N1 N 0.5223(5) 0.6500(5) 0.6050(3)
C7 C 0.6798(7) 0.6391(7) 0.5707(4)
H4 H 0.714951 0.713389 0.561821
C8 C 0.4090(6) 0.5973(6) 0.5949(3)
C9 C 0.5827(7) 0.7652(6) 0.6151(3)
C10 C 0.3652(7) 0.5434(8) 0.5483(3)
H5 H 0.411385 0.542184 0.522409
C11 C 0.3363(6) 0.5944(8) 0.6339(3)
H6 H 0.363629 0.629230 0.666038
C12 C 0.2528(8) 0.4908(9) 0.5399(4)
H7 H 0.224593 0.457692 0.507555
C13 C 0.1820(7) 0.4866(7) 0.5783(4)
C14 C 0.2251(6) 0.5401(7) 0.6244(4)
H8 H 0.177874 0.539790 0.650165
C15 C 0.0611(9) 0.4227(9) 0.5684(6)
O4 O 0.0202(6) 0.4015(9) 0.5244(4)
C16 C 0.5544(7) 0.8355(7) 0.5907(4)
H9 H 0.491102 0.807359 0.570192
C17 C 0.6723(8) 0.8079(8) 0.6495(4)
H10 H 0.686876 0.760753 0.669214
C18 C 0.7394(7) 0.9210(7) 0.6541(4)
H11 H 0.800315 0.949253 0.676191
C19 C 0.7174(6) 0.9920(6) 0.6265(3)
C20 C 0.6224(7) 0.9506(7) 0.5970(4)
H12 H 0.603038 0.998315 0.581194
N2 N 0.7980(5) 0.2360(5) 0.4779(3)
C22 C 0.7118(8) 0.1331(8) 0.4766(3)
H13 H 0.675749 0.102586 0.508076
C23 C 0.8407(7) 0.2807(7) 0.4321(3)
H14 H 0.896626 0.353934 0.431925
C24 C 0.6735(8) 0.0706(7) 0.4328(3)
C25 C 0.7235(7) 0.1163(7) 0.3839(3)
C26 C 0.6902(7) 0.0541(7) 0.3351(3)
H16 H 0.708550 0.093901 0.303936
C27 C 0.8085(8) 0.2265(7) 0.3840(3)
H17 H 0.842359 0.262246 0.352947
H20 H 0.616582 0.001358 0.231889
H16_2 H 0.385351 0.291450 0.970603
N3 N 0.2020(9) 0.4380(7) 0.8554(3)
C28 C 0.2882(14) 0.4213(11) 0.8567(3)
H18 H 0.324251 0.426837 0.825257
C29 C 0.1593(12) 0.4400(10) 0.9012(3)
H19 H 0.103374 0.457308 0.901408
C30 C 0.3265(13) 0.3971(11) 0.9005(3)
H20_2 H 0.384776 0.383418 0.898555
C31 C 0.2765(12) 0.3928(10) 0.9494(3)
C32 C 0.3098(12) 0.3639(10) 0.9982(3)
C33 C 0.1915(13) 0.4180(11) 0.9493(3)
H22 H 0.157641 0.419887 0.980386
Zn3 Zn 0.15132(12) 0.46143(10) 0.78329(4)
O14 O 0.1665(11) 0.6175(9) 0.7869(4)
O16 O 0.3085(14) 0.6124(12) 0.7599(3)
O21 O 0.2142(9) 0.3842(8) 0.7418(3)
C39 C 0.4206(12) 0.0124(10) 0.7390(3)
N4 N 0.4777(9) 0.1277(7) 0.7283(3)
C41 C 0.5910(10) 0.1883(8) 0.7384(3)
C42 C 0.4173(11) 0.1825(9) 0.7182(3)
C43 C 0.6348(14) 0.1782(11) 0.7850(3)
H27 H 0.588615 0.130799 0.810924
C44 C 0.6637(13) 0.2581(10) 0.6994(3)
H28 H 0.636371 0.265601 0.667295
C45 C 0.7472(15) 0.2380(12) 0.7934(4)
H29 H 0.775407 0.233099 0.825778
C46 C 0.8180(12) 0.3046(10) 0.7550(4)
C47 C 0.7749(11) 0.3150(9) 0.7089(4)
H30 H 0.822126 0.361916 0.683168
C48 C 0.9389(16) 0.3616(13) 0.7649(6)
O10 O 0.9798(14) 0.3813(11) 0.8089(4)
C49 C 0.4456(12) 0.2811(10) 0.7426(4)
H31 H 0.508898 0.316257 0.763141
C50 C 0.3277(14) 0.1356(11) 0.6838(4)
H32 H 0.313124 0.073877 0.664119
C51 C 0.2606(12) 0.1816(10) 0.6792(4)
H33 H 0.199685 0.148938 0.657142
C52 C 0.2826(10) 0.2746(8) 0.7068(3)
C53 C 0.3776(12) 0.3282(10) 0.7363(4)
H34 H 0.396962 0.395277 0.752139
C54 C 0.2052(11) 0.3166(9) 0.7071(3)
C34 C 0.2596(18) 0.6652(15) 0.7704(4)
C35 C 0.3178(14) 0.7867(11) 0.7591(3)
C36 C 0.2697(11) 0.8483(9) 0.7737(4)
H23 H 0.202477 0.814273 0.791218
C37 C 0.4199(13) 0.8416(11) 0.7348(3)
H24 H 0.454759 0.802372 0.725730
C38 C 0.4702(13) 0.9505(11) 0.7240(3)
H25 H 0.537501 0.984561 0.706595
C40 C 0.3202(12) 0.9593(10) 0.7626(4)
H26 H 0.285049 0.998438 0.771512
O7 O 0.3825(9) 0.5490(7) 0.1203(4)
O8 O 0.3876(12) 0.6961(8) 0.0933(3)
C34_2 C 0.3348(15) 0.5944(10) 0.1038(4)
C35_2 C 0.2133(11) 0.5311(8) 0.0925(3)
C36_2 C 0.1517(9) 0.4214(7) 0.1071(4)
H23_2 H 0.185727 0.388204 0.124552
C37_2 C 0.1584(11) 0.5783(7) 0.0682(3)
H24_2 H 0.197628 0.652387 0.059064
C38_2 C 0.0495(11) 0.5197(7) 0.0574(3)
H25_2 H 0.015439 0.552940 0.039929
C40_2 C 0.0407(10) 0.3609(7) 0.0960(4)
H26_2 H 0.001562 0.286611 0.104846
Zn7 Zn 0.53857(10) 0.68989(7) 0.11663(4)
H15 H 0.615224 0.998642 0.434778
N3_2 N 0.5620(7) 0.7640(5) 0.1888(3)
C28_2 C 0.5787(11) 0.8669(8) 0.1901(3)
H18_2 H 0.573163 0.897414 0.158591
C29_2 C 0.5600(10) 0.7193(7) 0.2346(3)
H19_2 H 0.542692 0.646066 0.234742
C30_2 C 0.6029(11) 0.9294(7) 0.2339(3)
C31_2 C 0.6072(10) 0.8837(7) 0.2828(3)
C32_2 C 0.6361(10) 0.9459(7) 0.3316(3)
H21 H 0.614649 0.906099 0.362731
C33_2 C 0.5820(11) 0.7735(7) 0.2827(3)
H22_2 H 0.580113 0.737754 0.313720
C39_2 C 0.9876(10) 0.4082(7) 0.0724(3)
N4_2 N 0.8723(7) 0.3500(5) 0.0617(3)
C41_2 C 0.8117(8) 0.4027(6) 0.0718(3)
C42_2 C 0.8175(9) 0.2348(6) 0.0516(3)
C43_2 C 0.8218(11) 0.4566(8) 0.1184(3)
H27_2 H 0.869201 0.457816 0.144258
C44_2 C 0.7419(10) 0.4056(8) 0.0328(3)
H28_2 H 0.734399 0.370770 0.000629
C45_2 C 0.7620(12) 0.5092(9) 0.1268(4)
H29_2 H 0.766901 0.542308 0.159112
C46_2 C 0.6954(10) 0.5134(7) 0.0884(4)
C47_2 C 0.6850(9) 0.4599(7) 0.0423(4)
H30_2 H 0.638084 0.460210 0.016502
C48_2 C 0.6384(13) 0.5773(9) 0.0983(6)
O9 O 0.6100(7) 0.6135(5) 0.0576(4)
O10_2 O 0.6187(11) 0.5985(9) 0.1423(4)
C49_2 C 0.7189(10) 0.1645(7) 0.0760(4)
H31_2 H 0.683743 0.192641 0.096475
C50_2 C 0.8644(11) 0.1921(8) 0.0172(4)
C51_2 C 0.8184(10) 0.0790(7) 0.0126(4)
C52_2 C 0.7254(8) 0.0080(6) 0.0402(3)
C53_2 C 0.6718(10) 0.0494(7) 0.0697(4)
H34_2 H 0.604723 0.001685 0.085473
Zn10 Zn 0.70793(12) 0.70793(12) 0.000000
O21_2 O 0.6158(8) 0.8300(5) 0.0752(3)
C54_2 C 0.6834(9) 0.8886(7) 0.0405(3)
O11 O 0.7192(7) 0.8491(5) 0.0060(2)
H10_2 H 0.239247 0.926123 0.002547
H11_2 H 0.050747 0.851062 0.009524
H32_2 H 0.926123 0.239247 0.997453
H33_2 H 0.851062 0.050747 0.990476
Zn10_2 Zn 0.70793(12) 0.70793(12) 1.000000
O1_2 O 0.5490(7) 0.3825(9) 0.8797(4)
O2_2 O 0.6961(8) 0.3876(12) 0.9067(3)
C1_2 C 0.5944(10) 0.3348(15) 0.8962(4)
C2_2 C 0.5311(8) 0.2133(11) 0.9075(3)
C3_2 C 0.4214(7) 0.1517(9) 0.8929(4)
H1_2 H 0.388204 0.185727 0.875448
C4_2 C 0.5783(7) 0.1584(11) 0.9318(3)
H2_2 H 0.652387 0.197628 0.940936
C5_2 C 0.5197(7) 0.0495(11) 0.9426(3)
H3_2 H 0.552940 0.015439 0.960071
C7_2 C 0.3609(7) 0.0407(10) 0.9040(4)
H4_2 H 0.286611 0.001562 0.895154
Zn4 Zn 0.68989(7) 0.53857(10) 0.88337(4)
C6_2 C 0.4082(7) 0.9876(10) 0.9276(3)
N1_2 N 0.3500(5) 0.8723(7) 0.9383(3)
C8_2 C 0.4027(6) 0.8117(8) 0.9282(3)
C9_2 C 0.2348(6) 0.8175(9) 0.9484(3)
C10_2 C 0.4566(8) 0.8218(11) 0.8816(3)
H5_2 H 0.457816 0.869201 0.855742
C11_2 C 0.4056(8) 0.7419(10) 0.9672(3)
H6_2 H 0.370770 0.734399 0.999371
C12_2 C 0.5092(9) 0.7620(12) 0.8732(4)
H7_2 H 0.542308 0.766901 0.840888
C13_2 C 0.5134(7) 0.6954(10) 0.9116(4)
C14_2 C 0.4599(7) 0.6850(9) 0.9577(4)
H8_2 H 0.460210 0.638084 0.983498
C15_2 C 0.5773(9) 0.6384(13) 0.9017(6)
O3 O 0.6135(5) 0.6100(7) 0.9424(4)
O4_2 O 0.5985(9) 0.6187(11) 0.8577(4)
C16_2 C 0.1645(7) 0.7189(10) 0.9240(4)
H9_2 H 0.192641 0.683743 0.903525
C17_2 C 0.1921(8) 0.8644(11) 0.9828(4)
C18_2 C 0.0790(7) 0.8184(10) 0.9874(4)
C19_2 C 0.0080(6) 0.7254(8) 0.9598(3)
C20_2 C 0.0494(7) 0.6718(10) 0.9303(4)
H12_2 H 0.001685 0.604723 0.914527
N2_2 N 0.7640(5) 0.5620(7) 0.8112(3)
C22_2 C 0.8669(8) 0.5787(11) 0.8099(3)
H13_2 H 0.897414 0.573163 0.841409
C23_2 C 0.7193(7) 0.5600(10) 0.7654(3)
H14_2 H 0.646066 0.542692 0.765258
C24_2 C 0.9294(7) 0.6029(11) 0.7661(3)
C25_2 C 0.8837(7) 0.6072(10) 0.7172(3)
C26_2 C 0.9459(7) 0.6361(10) 0.6684(3)
H16_3 H 0.906099 0.614649 0.637269
C27_2 C 0.7735(7) 0.5820(11) 0.7173(3)
H17_2 H 0.737754 0.580113 0.686280
H20_3 H 0.998642 0.615224 0.565222
O20 O 0.8300(5) 0.6158(8) 0.9248(3)
C21_2 C 0.8886(7) 0.6834(9) 0.9595(3)
O5_2 O 0.8491(5) 0.7192(7) 0.9940(2)
Zn9 Zn 0.29207(12) -0.00000(17) 0.333334
C54_3 C 0.1114(7) 0.7948(11) 0.3738(3)
O11_2 O 0.1509(5) 0.8701(9) 0.3393(2)
O12 O 0.1700(5) 0.7858(9) 0.4085(3)
Zn6 Zn 0.31011(7) 0.84868(12) 0.44996(4)
Zn9_2 Zn 0.29207(12) 1.00000(17) 0.333334
O7_2 O 0.4510(7) 0.8335(11) 0.4536(4)
O8_2 O 0.3039(8) 0.6915(14) 0.4266(3)
C34_3 C 0.4056(10) 0.7404(18) 0.4371(4)
C35_3 C 0.4689(8) 0.6822(14) 0.4258(3)
C36_3 C 0.5786(7) 0.7303(11) 0.4404(4)
H23_3 H 0.611796 0.797523 0.457885
C37_3 C 0.4217(7) 0.5801(13) 0.4015(3)
H24_3 H 0.347613 0.545241 0.392397
C38_3 C 0.4803(7) 0.5298(13) 0.3907(3)
H25_3 H 0.447060 0.462499 0.373262
C39_3 C 0.5918(7) 0.5794(12) 0.4057(3)
N4_3 N 0.6500(5) 0.5223(9) 0.3950(3)
C40_3 C 0.6391(7) 0.6798(12) 0.4293(4)
H26_3 H 0.713389 0.714951 0.438179
C41_3 C 0.5973(6) 0.4090(10) 0.4051(3)
C42_3 C 0.7652(6) 0.5827(11) 0.3849(3)
C43_3 C 0.5434(8) 0.3652(14) 0.4517(3)
H27_3 H 0.542184 0.411385 0.477591
C44_3 C 0.5944(8) 0.3363(13) 0.3661(3)
H28_3 H 0.629230 0.363629 0.333962
C45_3 C 0.4908(9) 0.2528(15) 0.4601(4)
H29_3 H 0.457692 0.224593 0.492445
C46_3 C 0.4866(7) 0.1820(12) 0.4217(4)
C47_3 C 0.5401(7) 0.2251(11) 0.3756(4)
H30_3 H 0.539790 0.177874 0.349835
C48_3 C 0.4227(9) 0.0611(16) 0.4316(6)
O10_3 O 0.4015(9) 0.0202(14) 0.4756(4)
C49_3 C 0.8355(7) 0.5544(12) 0.4093(4)
H31_3 H 0.807359 0.491102 0.429808
C50_3 C 0.8079(8) 0.6723(14) 0.3505(4)
H32_3 H 0.760753 0.686876 0.330786
C51_3 C 0.9210(7) 0.7394(12) 0.3459(4)
H33_3 H 0.949253 0.800315 0.323809
C52_3 C 0.9920(6) 0.7174(10) 0.3735(3)
C53_3 C 0.9506(7) 0.6224(12) 0.4030(4)
H34_3 H 0.998315 0.603038 0.418806
H15_2 H 0.001358 0.616582 0.768111
N3_3 N 0.2360(5) 0.7980(9) 0.5221(3)
C28_3 C 0.1331(8) 0.7118(14) 0.5234(3)
H18_3 H 0.102586 0.675749 0.491924
C29_3 C 0.2807(7) 0.8407(12) 0.5679(3)
H19_3 H 0.353934 0.896626 0.568075
C30_3 C 0.0706(7) 0.6735(13) 0.5672(3)
C31_3 C 0.1163(7) 0.7235(12) 0.6161(3)
C32_3 C 0.0541(7) 0.6902(12) 0.6649(3)
H21_2 H 0.093901 0.708550 0.696064
C33_3 C 0.2265(7) 0.8085(13) 0.6160(3)
H22_3 H 0.262246 0.842359 0.647053
O9_2 O 0.3865(5) 0.9965(9) 0.3909(4)
O3_2 O 0.3900(7) 0.0035(5) 0.2758(4)
Zn1 Zn 0.46143(10) 0.15132(7) 0.21671(4)
N2_3 N 0.4380(7) 0.2020(5) 0.1446(3)
C22_3 C 0.4213(11) 0.2882(8) 0.1433(3)
H13_3 H 0.426837 0.324251 0.174743
C23_3 C 0.4400(10) 0.1593(7) 0.0988(3)
H14_3 H 0.457308 0.103374 0.098592
C24_3 C 0.3971(11) 0.3265(8) 0.0995(3)
H15_3 H 0.383418 0.384776 0.101445
C25_3 C 0.3928(10) 0.2765(7) 0.0506(3)
C26_3 C 0.3639(10) 0.3098(7) 0.0018(3)
C27_3 C 0.4180(11) 0.1915(8) 0.0507(3)
H17_3 H 0.419887 0.157641 0.019614
H21_3 H 0.291450 0.385351 0.029397
O13 O 0.6175(9) 0.1665(6) 0.2131(4)
O15 O 0.6124(12) 0.3085(9) 0.2401(3)
O20_2 O 0.3842(8) 0.2142(6) 0.2582(3)
C6_3 C 0.0124(10) 0.4206(7) 0.2610(3)
N1_3 N 0.1277(7) 0.4777(5) 0.2717(3)
C8_3 C 0.1883(8) 0.5910(6) 0.2616(3)
C9_3 C 0.1825(9) 0.4173(7) 0.2818(3)
C10_3 C 0.1782(11) 0.6348(7) 0.2150(3)
H5_3 H 0.130799 0.588615 0.189076
C11_3 C 0.2581(10) 0.6637(6) 0.3006(3)
H6_3 H 0.265601 0.636371 0.332705
C12_3 C 0.2380(12) 0.7472(8) 0.2066(4)
H7_3 H 0.233099 0.775407 0.174222
C13_3 C 0.3046(10) 0.8180(7) 0.2450(4)
C14_3 C 0.3150(9) 0.7749(6) 0.2911(4)
H8_3 H 0.361916 0.822126 0.316832
C15_3 C 0.3616(13) 0.9389(9) 0.2351(6)
O4_3 O 0.3813(11) 0.9798(6) 0.1911(4)
C16_3 C 0.2811(10) 0.4456(7) 0.2574(4)
H9_3 H 0.316257 0.508898 0.236859
C17_3 C 0.1356(11) 0.3277(8) 0.3162(4)
H10_3 H 0.073877 0.313124 0.335881
C18_3 C 0.1816(10) 0.2606(7) 0.3208(4)
H11_3 H 0.148938 0.199685 0.342858
C19_3 C 0.2746(8) 0.2826(6) 0.2932(3)
C20_3 C 0.3282(10) 0.3776(7) 0.2637(4)
H12_3 H 0.395277 0.396962 0.247861
C21_3 C 0.3166(9) 0.2052(6) 0.2929(3)
O5_3 O 0.2808(7) 0.1299(5) 0.3274(2)
C1_3 C 0.6652(15) 0.2596(11) 0.2296(4)
C2_3 C 0.7867(11) 0.3178(8) 0.2409(3)
C3_3 C 0.8483(9) 0.2697(6) 0.2263(4)
H1_3 H 0.814273 0.202477 0.208782
C4_3 C 0.8416(11) 0.4199(8) 0.2652(3)
H2_3 H 0.802372 0.454759 0.274270
C5_3 C 0.9505(11) 0.4702(8) 0.2760(3)
H3_3 H 0.984561 0.537501 0.293405
C7_3 C 0.9593(10) 0.3202(7) 0.2374(4)
H4_3 H 0.998438 0.285049 0.228488
loop_
_geom_bond_atom_site_label_1
_geom_bond_atom_site_label_2
_geom_bond_site_symmetry_1
_geom_bond_site_symmetry_2
O18 Zn2 1_555 1_555
O19 Zn2 1_555 1_555
O5 C21 1_555 1_555
Zn2_2 O5 1_555 1_555
O6 C21 1_555 1_555
O17 Zn2_2 1_555 1_555
Zn5 O6 1_555 1_555
O17 Zn5 1_555 1_555
O1 C1 1_555 1_555
O2 C1 1_555 1_555
C1 C2 1_555 1_555
C2 C3 1_555 1_555
C3 H1 1_555 1_555
C4 C2 1_555 1_555
H2 C4 1_555 1_555
C5 C4 1_555 1_555
H3 C5 1_555 1_555
C6 C5 1_555 1_555
N1 C6 1_555 1_555
C7 C3 1_555 1_555
H4 C7 1_555 1_555
C8 N1 1_555 1_555
C9 N1 1_555 1_555
C10 C8 1_555 1_555
H5 C10 1_555 1_555
C11 C8 1_555 1_555
H6 C11 1_555 1_555
C12 C10 1_555 1_555
H7 C12 1_555 1_555
C13 C12 1_555 1_555
C14 C11 1_555 1_555
H8 C14 1_555 1_555
C15 C13 1_555 1_555
O4 C15 1_555 1_555
C16 C9 1_555 1_555
H9 C16 1_555 1_555
C17 C9 1_555 1_555
H10 C17 1_555 1_555
C18 C17 1_555 1_555
H11 C18 1_555 1_555
C19 C18 1_555 1_555
C20 C16 1_555 1_555
H12 C20 1_555 1_555
Zn5 O1 1_555 1_555
O2 Zn5 1_555 1_555
C6 C7 1_555 1_555
C13 C14 1_555 1_555
C19 C20 1_555 1_555
N2 Zn5 1_555 1_555
C22 N2 1_555 1_555
H13 C22 1_555 1_555
C23 N2 1_555 1_555
H14 C23 1_555 1_555
C24 C22 1_555 1_555
C25 C24 1_555 1_555
C26 C25 1_555 1_555
H16 C26 1_555 1_555
C27 C23 1_555 1_555
H17 C27 1_555 1_555
C25 C27 1_555 1_555
N3 C28 1_555 1_555
C28 H18 1_555 1_555
C29 N3 1_555 1_555
H19 C29 1_555 1_555
C30 C28 1_555 1_555
H20_2 C30 1_555 1_555
C31 C30 1_555 1_555
C33 C29 1_555 1_555
H22 C33 1_555 1_555
Zn3 N3 1_555 1_555
O14 Zn3 1_555 1_555
O16 Zn3 1_555 1_555
O21 Zn3 1_555 1_555
C31 C32 1_555 1_555
C31 C33 1_555 1_555
O18 Zn3 1_555 1_555
N4 C39 1_555 1_555
C41 N4 1_555 1_555
C42 N4 1_555 1_555
C43 C41 1_555 1_555
H27 C43 1_555 1_555
C44 C41 1_555 1_555
H28 C44 1_555 1_555
C45 C43 1_555 1_555
H29 C45 1_555 1_555
C46 C45 1_555 1_555
C47 C44 1_555 1_555
H30 C47 1_555 1_555
C48 C46 1_555 1_555
O10 C48 1_555 1_555
C49 C42 1_555 1_555
H31 C49 1_555 1_555
C50 C42 1_555 1_555
H32 C50 1_555 1_555
C51 C50 1_555 1_555
H33 C51 1_555 1_555
C52 C51 1_555 1_555
C53 C49 1_555 1_555
H34 C53 1_555 1_555
C54 C52 1_555 1_555
O19 C54 1_555 1_555
O21 C54 1_555 1_555
C46 C47 1_555 1_555
C52 C53 1_555 1_555
O14 C34 1_555 1_555
O16 C34 1_555 1_555
C34 C35 1_555 1_555
C35 C36 1_555 1_555
C36 H23 1_555 1_555
C37 C35 1_555 1_555
H24 C37 1_555 1_555
C38 C37 1_555 1_555
H25 C38 1_555 1_555
C40 C36 1_555 1_555
H26 C40 1_555 1_555
O7 C34_2 1_555 1_555
O8 C34_2 1_555 1_555
C34_2 C35_2 1_555 1_555
C35_2 C36_2 1_555 1_555
C36_2 H23_2 1_555 1_555
C37_2 C35_2 1_555 1_555
H24_2 C37_2 1_555 1_555
C38_2 C37_2 1_555 1_555
H25_2 C38_2 1_555 1_555
C40_2 C36_2 1_555 1_555
H26_2 C40_2 1_555 1_555
Zn7 O7 1_555 1_555
O8 Zn7 1_555 1_555
N3_2 C28_2 1_555 1_555
C28_2 H18_2 1_555 1_555
C29_2 N3_2 1_555 1_555
H19_2 C29_2 1_555 1_555
C30_2 C28_2 1_555 1_555
C31_2 C30_2 1_555 1_555
H21 C32_2 1_555 1_555
C33_2 C29_2 1_555 1_555
H22_2 C33_2 1_555 1_555
N4_2 C39_2 1_555 1_555
C41_2 N4_2 1_555 1_555
C42_2 N4_2 1_555 1_555
C43_2 C41_2 1_555 1_555
H27_2 C43_2 1_555 1_555
C44_2 C41_2 1_555 1_555
H28_2 C44_2 1_555 1_555
C45_2 C43_2 1_555 1_555
H29_2 C45_2 1_555 1_555
C46_2 C45_2 1_555 1_555
C47_2 C44_2 1_555 1_555
H30_2 C47_2 1_555 1_555
C48_2 C46_2 1_555 1_555
O9 C48_2 1_555 1_555
O10_2 C48_2 1_555 1_555
Zn7 N3_2 1_555 1_555
C49_2 C42_2 1_555 1_555
H31_2 C49_2 1_555 1_555
C50_2 C42_2 1_555 1_555
C51_2 C50_2 1_555 1_555
C52_2 C51_2 1_555 1_555
C53_2 C49_2 1_555 1_555
H34_2 C53_2 1_555 1_555
Zn10 O9 1_555 1_555
O21_2 Zn7 1_555 1_555
C31_2 C32_2 1_555 1_555
C31_2 C33_2 1_555 1_555
C46_2 C47_2 1_555 1_555
O9 Zn7 1_555 1_555
O10_2 Zn7 1_555 1_555
C52_2 C53_2 1_555 1_555
O11 C54_2 1_555 1_555
O21_2 C54_2 1_555 1_555
Zn10 O11 1_555 1_555
O1_2 C1_2 1_555 1_555
O2_2 C1_2 1_555 1_555
C1_2 C2_2 1_555 1_555
C2_2 C3_2 1_555 1_555
C3_2 H1_2 1_555 1_555
C4_2 C2_2 1_555 1_555
H2_2 C4_2 1_555 1_555
C5_2 C4_2 1_555 1_555
H3_2 C5_2 1_555 1_555
C7_2 C3_2 1_555 1_555
H4_2 C7_2 1_555 1_555
Zn4 O1_2 1_555 1_555
O2_2 Zn4 1_555 1_555
N1_2 C6_2 1_555 1_555
C8_2 N1_2 1_555 1_555
C9_2 N1_2 1_555 1_555
C10_2 C8_2 1_555 1_555
H5_2 C10_2 1_555 1_555
C11_2 C8_2 1_555 1_555
H6_2 C11_2 1_555 1_555
C12_2 C10_2 1_555 1_555
H7_2 C12_2 1_555 1_555
C13_2 C12_2 1_555 1_555
C14_2 C11_2 1_555 1_555
H8_2 C14_2 1_555 1_555
C15_2 C13_2 1_555 1_555
O3 C15_2 1_555 1_555
O4_2 C15_2 1_555 1_555
Zn4 O3 1_555 1_555
C16_2 C9_2 1_555 1_555
H9_2 C16_2 1_555 1_555
C17_2 C9_2 1_555 1_555
C18_2 C17_2 1_555 1_555
C19_2 C18_2 1_555 1_555
C20_2 C16_2 1_555 1_555
H12_2 C20_2 1_555 1_555
N2_2 Zn4 1_555 1_555
C22_2 N2_2 1_555 1_555
H13_2 C22_2 1_555 1_555
C23_2 N2_2 1_555 1_555
H14_2 C23_2 1_555 1_555
C24_2 C22_2 1_555 1_555
C25_2 C24_2 1_555 1_555
C26_2 C25_2 1_555 1_555
H16_3 C26_2 1_555 1_555
C27_2 C23_2 1_555 1_555
H17_2 C27_2 1_555 1_555
Zn10_2 O3 1_555 1_555
O20 Zn4 1_555 1_555
C13_2 C14_2 1_555 1_555
O4_2 Zn4 1_555 1_555
C19_2 C20_2 1_555 1_555
C25_2 C27_2 1_555 1_555
O5_2 C21_2 1_555 1_555
Zn10_2 O5_2 1_555 1_555
O20 C21_2 1_555 1_555
O11_2 C54_3 1_555 1_555
O12 C54_3 1_555 1_555
Zn6 O12 1_555 1_555
Zn9_2 O11_2 1_555 1_555
O7_2 C34_3 1_555 1_555
O8_2 C34_3 1_555 1_555
C34_3 C35_3 1_555 1_555
C35_3 C36_3 1_555 1_555
C36_3 H23_3 1_555 1_555
C37_3 C35_3 1_555 1_555
H24_3 C37_3 1_555 1_555
C38_3 C37_3 1_555 1_555
H25_3 C38_3 1_555 1_555
C39_3 C38_3 1_555 1_555
N4_3 C39_3 1_555 1_555
C40_3 C36_3 1_555 1_555
H26_3 C40_3 1_555 1_555
C41_3 N4_3 1_555 1_555
C42_3 N4_3 1_555 1_555
C43_3 C41_3 1_555 1_555
H27_3 C43_3 1_555 1_555
C44_3 C41_3 1_555 1_555
H28_3 C44_3 1_555 1_555
C45_3 C43_3 1_555 1_555
H29_3 C45_3 1_555 1_555
C46_3 C45_3 1_555 1_555
C47_3 C44_3 1_555 1_555
H30_3 C47_3 1_555 1_555
C48_3 C46_3 1_555 1_555
O10_3 C48_3 1_555 1_555
C49_3 C42_3 1_555 1_555
H31_3 C49_3 1_555 1_555
C50_3 C42_3 1_555 1_555
H32_3 C50_3 1_555 1_555
C51_3 C50_3 1_555 1_555
H33_3 C51_3 1_555 1_555
C52_3 C51_3 1_555 1_555
C53_3 C49_3 1_555 1_555
H34_3 C53_3 1_555 1_555
Zn6 O7_2 1_555 1_555
O8_2 Zn6 1_555 1_555
C39_3 C40_3 1_555 1_555
C46_3 C47_3 1_555 1_555
C52_3 C53_3 1_555 1_555
N3_3 C28_3 1_555 1_555
C28_3 H18_3 1_555 1_555
C29_3 N3_3 1_555 1_555
H19_3 C29_3 1_555 1_555
C30_3 C28_3 1_555 1_555
C31_3 C30_3 1_555 1_555
H21_2 C32_3 1_555 1_555
C33_3 C29_3 1_555 1_555
H22_3 C33_3 1_555 1_555
Zn6 N3_3 1_555 1_555
Zn9_2 O9_2 1_555 1_555
C31_3 C32_3 1_555 1_555
C31_3 C33_3 1_555 1_555
O9_2 Zn6 1_555 1_555
Zn1 O3_2 1_555 1_555
N2_3 Zn1 1_555 1_555
C22_3 N2_3 1_555 1_555
H13_3 C22_3 1_555 1_555
C23_3 N2_3 1_555 1_555
H14_3 C23_3 1_555 1_555
C24_3 C22_3 1_555 1_555
H15_3 C24_3 1_555 1_555
C25_3 C24_3 1_555 1_555
C26_3 C25_3 1_555 1_555
C27_3 C23_3 1_555 1_555
H17_3 C27_3 1_555 1_555
O13 Zn1 1_555 1_555
O15 Zn1 1_555 1_555
Zn9 O3_2 1_555 1_555
O20_2 Zn1 1_555 1_555
C25_3 C27_3 1_555 1_555
N1_3 C6_3 1_555 1_555
C8_3 N1_3 1_555 1_555
C9_3 N1_3 1_555 1_555
C10_3 C8_3 1_555 1_555
H5_3 C10_3 1_555 1_555
C11_3 C8_3 1_555 1_555
H6_3 C11_3 1_555 1_555
C12_3 C10_3 1_555 1_555
H7_3 C12_3 1_555 1_555
C13_3 C12_3 1_555 1_555
C14_3 C11_3 1_555 1_555
H8_3 C14_3 1_555 1_555
C15_3 C13_3 1_555 1_555
O4_3 C15_3 1_555 1_555
C16_3 C9_3 1_555 1_555
H9_3 C16_3 1_555 1_555
C17_3 C9_3 1_555 1_555
H10_3 C17_3 1_555 1_555
C18_3 C17_3 1_555 1_555
H11_3 C18_3 1_555 1_555
C19_3 C18_3 1_555 1_555
C20_3 C16_3 1_555 1_555
H12_3 C20_3 1_555 1_555
C21_3 C19_3 1_555 1_555
O5_3 C21_3 1_555 1_555
Zn9 O5_3 1_555 1_555
O20_2 C21_3 1_555 1_555
C13_3 C14_3 1_555 1_555
C19_3 C20_3 1_555 1_555
O13 C1_3 1_555 1_555
O15 C1_3 1_555 1_555
C1_3 C2_3 1_555 1_555
C2_3 C3_3 1_555 1_555
C3_3 H1_3 1_555 1_555
C4_3 C2_3 1_555 1_555
H2_3 C4_3 1_555 1_555
C5_3 C4_3 1_555 1_555
H3_3 C5_3 1_555 1_555
C7_3 C3_3 1_555 1_555
H4_3 C7_3 1_555 1_555

#END
