
###############################################################################
#
# This file contains modified crystal structure data generated from the
# MOF subset of the Cambridge Structural Database (CSD) v543 
# hosted by the Cambridge Crystallographic Data Centre (CCDC).
#
# This work is licensed under the Creative Commons
# Attribution-NonCommercial-ShareAlike 4.0 International License.
# To view a copy of this license, visit
# http://creativecommons.org/licenses/by-nc-sa/4.0/
# or send a letter to
# Creative Commons, PO Box 1866, Mountain View, CA 94042, USA.
#
# CIF created using the CSD Python API on 29 September 2022
# The structure has been converted into the P1 space group
# The structure has a 3D framework
# The original CSD entry AKAYIV is in the monoclinic crystal system
# The framework has been calculated to contain at least 10.0% void space
# The void calculation uses a probe of radius 1.32A, grid spacing 0.4
#
###############################################################################

data_AKAYIV
_chemical_formula_moiety         '(C192 H120 Br8 Cu8 N24 O48)n'
_symmetry_cell_setting           triclinic
_symmetry_space_group_name_H-M   'P 1'
_symmetry_Int_Tables_number      1
_space_group_name_Hall           'P 1'
loop_
_symmetry_equiv_pos_site_id
_symmetry_equiv_pos_as_xyz
1 x,y,z
_cell_length_a                   30.267(3)
_cell_length_b                   7.7321(8)
_cell_length_c                   32.107(3)
_cell_angle_alpha                90
_cell_angle_beta                 115.235(2)
_cell_angle_gamma                90
_cell_volume                     6796.84
loop_
_atom_site_label
_atom_site_type_symbol
_atom_site_fract_x
_atom_site_fract_y
_atom_site_fract_z
Cu2 Cu 0.876238(16) 0.25980(6) 0.239907(16)
C33 C 0.73372(13) 0.2426(5) 0.02922(13)
C44 C 0.76814(13) 0.2598(4) 0.07868(13)
C45 C 0.75633(13) 0.1825(5) 0.11166(13)
H27 H 0.7260 0.1241 0.1028
C46 C 0.78807(13) 0.1910(5) 0.15615(13)
H28 H 0.7797 0.1340 0.1780
C47 C 0.84166(14) 0.3531(5) 0.14051(14)
H29 H 0.8715 0.4151 0.1508
C48 C 0.81202(13) 0.3499(4) 0.09390(13)
H30 H 0.8213 0.4077 0.0727
N6 N 0.83102(11) 0.2752(4) 0.17178(10)
O9 O 0.75282(9) 0.3165(4) 0.00212(8)
O12 O 0.69601(10) 0.1718(4) 0.01510(10)
N7 N 0.83896(12) 0.3832(5) 0.27312(12)
N9 N 0.94293(11) 0.3726(4) 0.26769(11)
Cu1 Cu 0.880801(16) 0.78467(6) 0.743597(16)
Br1 Br 0.890787(19) 0.47880(5) 0.762606(16)
C1 C 0.73407(14) 0.8063(6) 0.45810(14)
C2 C 0.75880(14) 0.7310(5) 0.43527(14)
H1 H 0.7909 0.6870 0.4517
C3 C 0.73541(13) 0.7212(5) 0.38743(13)
C4 C 0.68919(13) 0.7867(4) 0.36252(14)
H2 H 0.6737 0.7803 0.3299
C5 C 0.66639(13) 0.8622(5) 0.38734(14)
C6 C 0.68741(14) 0.8721(5) 0.43433(14)
H3 H 0.6705 0.9227 0.4503
C7 C 0.74194(15) 0.7435(5) 0.53231(14)
C8 C 0.7771(2) 0.7084(7) 0.3403(3)
C9 C 0.58233(17) 0.8346(6) 0.3448(2)
C10 C 0.77535(13) 0.7661(4) 0.58204(13)
C11 C 0.76316(13) 0.6879(5) 0.61471(13)
H4 H 0.7335 0.6251 0.6056
C12 C 0.79428(14) 0.7028(5) 0.65968(13)
H5 H 0.7858 0.6478 0.6817
C13 C 0.84812(13) 0.8685(5) 0.64323(13)
H6 H 0.8777 0.9321 0.6532
C14 C 0.81837(13) 0.8580(5) 0.59688(13)
H7 H 0.8274 0.9137 0.5753
C15 C 0.79953(17) 0.5899(6) 0.31530(19)
C16 C 0.8109(2) 0.6677(8) 0.2852(2)
H8 H 0.8075 0.7883 0.2791
C17 C 0.8285(2) 0.5517(7) 0.2637(2)
H9 H 0.8341 0.5965 0.2388
C18 C 0.8283(2) 0.3204(8) 0.3048(2)
H10 H 0.8336 0.2009 0.3121
C19 C 0.80757(18) 0.4321(7) 0.3307(2)
H11 H 0.8011 0.3916 0.3555
C20 C 0.53588(15) 0.9348(5) 0.31928(19)
C21 C 0.49454(18) 0.8458(7) 0.2942(3)
H12 H 0.4951 0.7230 0.2939
C22 C 0.45097(18) 0.9340(7) 0.2687(3)
H13 H 0.4233 0.8702 0.2486
C37 C 0.82433(14) 0.8399(5) 0.80193(13)
H21 H 0.8284 0.7190 0.8075
C38 C 0.80208(14) 0.9348(5) 0.82422(14)
H22 H 0.7911 0.8795 0.8445
N3 N 0.83679(10) 0.7919(4) 0.67507(10)
N4 N 0.84010(11) 0.9089(4) 0.77342(11)
O1 O 0.75982(10) 0.8218(4) 0.50520(9)
O2 O 0.75812(10) 0.6336(4) 0.36405(9)
O3 O 0.62037(9) 0.9398(3) 0.36397(11)
O4 O 0.70445(11) 0.6625(4) 0.51819(11)
O5 O 0.77455(17) 0.8665(7) 0.33679(18)
O6 O 0.58472(12) 0.6828(4) 0.34543(17)
N8 N 0.94704(12) 0.8961(4) 0.77183(14)
C40 C 0.9878(2) 0.6308(7) 0.2892(3)
H23 H 0.9876 0.7536 0.2880
C41 C 0.94556(19) 0.5390(7) 0.2649(2)
H24 H 0.9171 0.6005 0.2454
C42 C 0.98346(13) 0.2901(5) 0.29206(15)
H25 H 0.9825 0.1676 0.2938
C23 C 0.98836(14) 0.8107(5) 0.79503(14)
H14 H 0.9871 0.6879 0.7948
N2 N 0.44704(12) 0.1039(4) 0.27183(14)
C23_2 C 0.48836(14) 0.1893(5) 0.29503(14)
H14_2 H 0.4871 0.3121 0.2948
C24 C 0.53325(14) 0.1113(5) 0.31952(15)
H15 H 0.5616 0.1788 0.3361
C25 C 0.72803(12) 0.2260(5) 0.88393(13)
C26 C 0.68233(12) 0.2963(4) 0.85950(12)
H16 H 0.6668 0.2940 0.8268
C27 C 0.66012(13) 0.3706(5) 0.88490(13)
C28 C 0.68116(13) 0.3769(5) 0.93184(13)
H17 H 0.6647 0.4274 0.9483
C29 C 0.72747(13) 0.3067(5) 0.95462(13)
C30 C 0.75165(13) 0.2302(5) 0.93124(13)
H18 H 0.7834 0.1825 0.9473
C31 C 0.77298(14) 0.2245(5) 0.83927(15)
C32 C 0.57604(16) 0.3523(6) 0.8389(2)
C34 C 0.79613(13) 0.1098(5) 0.81669(13)
C35 C 0.81061(17) 0.1804(6) 0.78542(16)
H19 H 0.8055 0.3000 0.7782
C36 C 0.83278(16) 0.0780(5) 0.76425(16)
H20 H 0.8430 0.1290 0.7429
C39 C 0.53040(15) 0.4560(5) 0.81506(18)
C40_2 C 0.4878(2) 0.3692(7) 0.7892(3)
H23_2 H 0.4876 0.2464 0.7880
C41_2 C 0.44556(19) 0.4610(7) 0.7649(2)
H24_2 H 0.4171 0.3995 0.7454
C42_2 C 0.48346(13) 0.7099(5) 0.79206(15)
H25_2 H 0.4825 0.8324 0.7938
C43 C 0.52792(15) 0.6271(5) 0.81554(15)
H26 H 0.5566 0.6931 0.8320
N5 N 0.44293(11) 0.6274(4) 0.76769(11)
O7 O 0.75089(8) 0.1340(3) 0.86068(9)
O8 O 0.61451(9) 0.4511(3) 0.86178(9)
O10 O 0.77278(13) 0.3785(4) 0.83737(14)
O11 O 0.57866(13) 0.1996(5) 0.83927(19)
Cu3 Cu 0.380801(16) 0.21533(6) 0.243597(16)
Cu5 Cu 0.376238(16) 0.74020(6) 0.739907(16)
Br1_2 Br 0.390787(19) 0.52120(5) 0.262606(16)
Br2 Br 0.38580(3) 0.04509(6) 0.75806(2)
C7_2 C 0.24194(15) 0.2565(5) 0.03231(14)
C10_2 C 0.27535(13) 0.2339(4) 0.08204(13)
C11_2 C 0.26316(13) 0.3121(5) 0.11471(13)
H4_2 H 0.2335 0.3749 0.1056
C12_2 C 0.29428(14) 0.2972(5) 0.15968(13)
H5_2 H 0.2858 0.3522 0.1817
C13_2 C 0.34812(13) 0.1315(5) 0.14323(13)
H6_2 H 0.3777 0.0679 0.1532
C14_2 C 0.31837(13) 0.1420(5) 0.09688(13)
H7_2 H 0.3274 0.0863 0.0753
C37_2 C 0.32433(14) 0.1601(5) 0.30193(13)
H21_2 H 0.3284 0.2810 0.3075
C38_2 C 0.30208(14) 0.0652(5) 0.32422(14)
H22_2 H 0.2911 0.1205 0.3445
N3_2 N 0.33679(10) 0.2081(4) 0.17507(10)
N4_2 N 0.34010(11) 0.0911(4) 0.27342(11)
O1_2 O 0.25982(10) 0.1782(4) 0.00520(9)
O4_2 O 0.20445(11) 0.3375(4) 0.01819(11)
C1_2 C 0.23407(14) 0.1937(6) 0.95810(14)
C2_2 C 0.25880(14) 0.2690(5) 0.93527(14)
H1_2 H 0.2909 0.3130 0.9517
C3_2 C 0.23541(13) 0.2788(5) 0.88743(13)
C4_2 C 0.18919(13) 0.2133(4) 0.86252(14)
H2_2 H 0.1737 0.2197 0.8299
C5_2 C 0.16639(13) 0.1378(5) 0.88734(14)
C6_2 C 0.18741(14) 0.1279(5) 0.93433(14)
H3_2 H 0.1705 0.0773 0.9503
C8_2 C 0.2771(2) 0.2916(7) 0.8403(3)
C9_2 C 0.08233(17) 0.1654(6) 0.8448(2)
C15_2 C 0.29953(17) 0.4101(6) 0.81530(19)
C16_2 C 0.3109(2) 0.3323(8) 0.7852(2)
H8_2 H 0.3075 0.2117 0.7791
C17_2 C 0.3285(2) 0.4483(7) 0.7637(2)
H9_2 H 0.3341 0.4035 0.7388
N1 N 0.33896(12) 0.6168(5) 0.77312(12)
C18_2 C 0.3283(2) 0.6796(8) 0.8048(2)
H10_2 H 0.3336 0.7991 0.8121
C19_2 C 0.30757(18) 0.5679(7) 0.8307(2)
H11_2 H 0.3011 0.6084 0.8555
C20_2 C 0.03588(15) 0.0652(5) 0.81928(19)
O2_2 O 0.25812(10) 0.3664(4) 0.86405(9)
O3_2 O 0.12037(9) 0.0602(3) 0.86397(11)
O5_2 O 0.27455(17) 0.1335(7) 0.83679(18)
O6_2 O 0.08472(12) 0.3172(4) 0.84543(17)
C25_2 C 0.22803(12) 0.7740(5) 0.38393(13)
C26_2 C 0.18233(12) 0.7037(4) 0.35950(12)
H16_2 H 0.1668 0.7060 0.3268
C27_2 C 0.16012(13) 0.6294(5) 0.38490(13)
C28_2 C 0.18116(13) 0.6231(5) 0.43184(13)
H17_2 H 0.1647 0.5726 0.4483
C29_2 C 0.22747(13) 0.6933(5) 0.45462(13)
C30_2 C 0.25165(13) 0.7698(5) 0.43124(13)
H18_2 H 0.2834 0.8175 0.4473
C31_2 C 0.27298(14) 0.7755(5) 0.33927(15)
C32_2 C 0.07604(16) 0.6477(6) 0.3389(2)
C33_2 C 0.23372(13) 0.7574(5) 0.52922(13)
C34_2 C 0.29613(13) 0.8902(5) 0.31669(13)
C35_2 C 0.31061(17) 0.8196(6) 0.28542(16)
H19_2 H 0.3055 0.7000 0.2782
C36_2 C 0.33278(16) 0.9220(5) 0.26425(16)
H20_2 H 0.3430 0.8710 0.2429
C39_2 C 0.03040(15) 0.5440(5) 0.31506(18)
C43_2 C 0.02792(15) 0.3729(5) 0.31554(15)
H26_2 H 0.0566 0.3069 0.3320
C44_2 C 0.26814(13) 0.7402(4) 0.57868(13)
C45_2 C 0.25633(13) 0.8175(5) 0.61166(13)
H27_2 H 0.2260 0.8759 0.6028
C46_2 C 0.28807(13) 0.8090(5) 0.65615(13)
H28_2 H 0.2797 0.8660 0.6780
C47_2 C 0.34166(14) 0.6469(5) 0.64051(14)
H29_2 H 0.3715 0.5849 0.6508
C48_2 C 0.31202(13) 0.6501(4) 0.59390(13)
H30_2 H 0.3213 0.5923 0.5727
N6_2 N 0.33102(11) 0.7248(4) 0.67178(10)
O7_2 O 0.25089(8) 0.8660(3) 0.36068(9)
O8_2 O 0.11451(9) 0.5489(3) 0.36178(9)
O9_2 O 0.25282(9) 0.6835(4) 0.50212(8)
O10_2 O 0.27278(13) 0.6215(4) 0.33737(14)
O11_2 O 0.07866(13) 0.8004(5) 0.33927(19)
O12_2 O 0.19601(10) 0.8282(4) 0.51510(10)
Br2_2 Br 0.88580(3) 0.95491(6) 0.25806(2)
N2_2 N 0.05296(12) 0.1039(4) 0.22817(14)
C23_3 C 0.01164(14) 0.1893(5) 0.20497(14)
H14_3 H 0.0129 0.3121 0.2052
Cu3_2 Cu 0.119199(16) 0.21533(6) 0.256403(16)
C40_3 C 0.0122(2) 0.3692(7) 0.7108(3)
H23_3 H 0.0124 0.2464 0.7120
C41_3 C 0.05444(19) 0.4610(7) 0.7351(2)
H24_3 H 0.0829 0.3995 0.7546
C42_3 C 0.01654(13) 0.7099(5) 0.70794(15)
H25_3 H 0.0175 0.8324 0.7062
N5_2 N 0.05707(11) 0.6274(4) 0.73231(11)
Cu5_2 Cu 0.123762(16) 0.74020(6) 0.760093(16)
Br1_3 Br 0.109213(19) 0.52120(5) 0.237394(16)
C1_3 C 0.26593(14) 0.1937(6) 0.54190(14)
C2_3 C 0.24120(14) 0.2690(5) 0.56473(14)
H1_3 H 0.2091 0.3130 0.5483
C3_3 C 0.26459(13) 0.2788(5) 0.61257(13)
C4_3 C 0.31081(13) 0.2133(4) 0.63748(14)
H2_3 H 0.3263 0.2197 0.6701
C5_3 C 0.33361(13) 0.1378(5) 0.61266(14)
C6_3 C 0.31259(14) 0.1279(5) 0.56567(14)
H3_3 H 0.3295 0.0773 0.5497
C7_3 C 0.25806(15) 0.2565(5) 0.46769(14)
C8_3 C 0.2229(2) 0.2916(7) 0.6597(3)
C9_3 C 0.41767(17) 0.1654(6) 0.6552(2)
C10_3 C 0.22465(13) 0.2339(4) 0.41796(13)
C11_3 C 0.23684(13) 0.3121(5) 0.38529(13)
H4_3 H 0.2665 0.3749 0.3944
C12_3 C 0.20572(14) 0.2972(5) 0.34032(13)
H5_3 H 0.2142 0.3522 0.3183
C13_3 C 0.15188(13) 0.1315(5) 0.35677(13)
H6_3 H 0.1223 0.0679 0.3468
C14_3 C 0.18163(13) 0.1420(5) 0.40312(13)
H7_3 H 0.1726 0.0863 0.4247
C15_3 C 0.20047(17) 0.4101(6) 0.68470(19)
C16_3 C 0.1891(2) 0.3323(8) 0.7148(2)
H8_3 H 0.1925 0.2117 0.7209
C17_3 C 0.1715(2) 0.4483(7) 0.7363(2)
H9_3 H 0.1659 0.4035 0.7612
N1_2 N 0.16104(12) 0.6168(5) 0.72688(12)
C18_3 C 0.1717(2) 0.6796(8) 0.6952(2)
H10_3 H 0.1664 0.7991 0.6879
C19_3 C 0.19243(18) 0.5679(7) 0.6693(2)
H11_3 H 0.1989 0.6084 0.6445
C20_3 C 0.46412(15) 0.0652(5) 0.68072(19)
C21_2 C 0.50546(18) 0.1542(7) 0.7058(3)
H12_2 H 0.5049 0.2770 0.7061
C22_2 C 0.54903(18) 0.0660(7) 0.7313(3)
H13_2 H 0.5767 0.1298 0.7514
C37_3 C 0.17567(14) 0.1601(5) 0.19807(13)
H21_3 H 0.1716 0.2810 0.1925
C38_3 C 0.19792(14) 0.0652(5) 0.17578(14)
H22_3 H 0.2089 0.1205 0.1555
N3_3 N 0.16321(10) 0.2081(4) 0.32493(10)
N4_3 N 0.15990(11) 0.0911(4) 0.22658(11)
O1_3 O 0.24018(10) 0.1782(4) 0.49480(9)
O2_3 O 0.24188(10) 0.3664(4) 0.63595(9)
O3_3 O 0.37963(9) 0.0602(3) 0.63603(11)
O4_3 O 0.29555(11) 0.3375(4) 0.48181(11)
O5_3 O 0.22545(17) 0.1335(7) 0.66321(18)
O6_3 O 0.41528(12) 0.3172(4) 0.65457(17)
C33_3 C 0.26628(13) 0.7574(5) 0.97078(13)
C44_3 C 0.23186(13) 0.7402(4) 0.92132(13)
C45_3 C 0.24367(13) 0.8175(5) 0.88834(13)
H27_3 H 0.2740 0.8759 0.8972
C46_3 C 0.21193(13) 0.8090(5) 0.84385(13)
H28_3 H 0.2203 0.8660 0.8220
C47_3 C 0.15834(14) 0.6469(5) 0.85949(14)
H29_3 H 0.1285 0.5849 0.8492
C48_3 C 0.18798(13) 0.6501(4) 0.90610(13)
H30_3 H 0.1787 0.5923 0.9273
N6_3 N 0.16898(11) 0.7248(4) 0.82822(10)
O9_3 O 0.24718(9) 0.6835(4) 0.99788(8)
O12_3 O 0.30399(10) 0.8282(4) 0.98490(10)
C21_3 C 0.00546(18) 0.8458(7) 0.2058(3)
H12_3 H 0.0049 0.7230 0.2061
C22_3 C 0.04903(18) 0.9340(7) 0.2313(3)
H13_3 H 0.0767 0.8702 0.2514
C24_2 C 0.96675(14) 0.1113(5) 0.18048(15)
H15_2 H 0.9384 0.1788 0.1639
Cu2_2 Cu 0.623762(16) 0.25980(6) 0.260093(16)
C25_3 C 0.77197(12) 0.2260(5) 0.61607(13)
C26_3 C 0.81767(12) 0.2963(4) 0.64050(12)
H16_3 H 0.8332 0.2940 0.6732
C27_3 C 0.83988(13) 0.3706(5) 0.61510(13)
C28_3 C 0.81884(13) 0.3769(5) 0.56816(13)
H17_3 H 0.8353 0.4274 0.5517
C29_3 C 0.77253(13) 0.3067(5) 0.54538(13)
C30_3 C 0.74835(13) 0.2302(5) 0.56876(13)
H18_3 H 0.7166 0.1825 0.5527
C31_3 C 0.72702(14) 0.2245(5) 0.66073(15)
C32_3 C 0.92396(16) 0.3523(6) 0.6611(2)
C33_4 C 0.76628(13) 0.2426(5) 0.47078(13)
C34_3 C 0.70387(13) 0.1098(5) 0.68331(13)
C35_3 C 0.68939(17) 0.1804(6) 0.71458(16)
H19_3 H 0.6945 0.3000 0.7218
C36_3 C 0.66722(16) 0.0780(5) 0.73575(16)
H20_3 H 0.6570 0.1290 0.7571
C39_3 C 0.96960(15) 0.4560(5) 0.68494(18)
C43_3 C 0.97208(15) 0.6271(5) 0.68446(15)
H26_3 H 0.9434 0.6931 0.6680
C44_4 C 0.73186(13) 0.2598(4) 0.42132(13)
C45_4 C 0.74367(13) 0.1825(5) 0.38834(13)
H27_4 H 0.7740 0.1241 0.3972
C46_4 C 0.71193(13) 0.1910(5) 0.34385(13)
H28_4 H 0.7203 0.1340 0.3220
C47_4 C 0.65834(14) 0.3531(5) 0.35949(14)
H29_4 H 0.6285 0.4151 0.3492
C48_4 C 0.68798(13) 0.3499(4) 0.40610(13)
H30_4 H 0.6787 0.4077 0.4273
N6_4 N 0.66898(11) 0.2752(4) 0.32822(10)
O7_3 O 0.74911(8) 0.1340(3) 0.63932(9)
O8_3 O 0.88549(9) 0.4511(3) 0.63822(9)
O9_4 O 0.74718(9) 0.3165(4) 0.49788(8)
O10_3 O 0.72722(13) 0.3785(4) 0.66263(14)
O11_3 O 0.92134(13) 0.1996(5) 0.66073(19)
O12_4 O 0.80399(10) 0.1718(4) 0.48490(10)
N7_2 N 0.66104(12) 0.3832(5) 0.22688(12)
N9_2 N 0.55707(11) 0.3726(4) 0.23231(11)
C1_4 C 0.76593(14) 0.8063(6) 0.04190(14)
C2_4 C 0.74120(14) 0.7310(5) 0.06473(14)
H1_4 H 0.7091 0.6870 0.0483
C3_4 C 0.76459(13) 0.7212(5) 0.11257(13)
C4_4 C 0.81081(13) 0.7867(4) 0.13748(14)
H2_4 H 0.8263 0.7803 0.1701
C5_4 C 0.83361(13) 0.8622(5) 0.11266(14)
C6_4 C 0.81259(14) 0.8721(5) 0.06567(14)
H3_4 H 0.8295 0.9227 0.0497
C8_4 C 0.7229(2) 0.7084(7) 0.1597(3)
C9_4 C 0.91767(17) 0.8346(6) 0.1552(2)
C15_4 C 0.70047(17) 0.5899(6) 0.18470(19)
C16_4 C 0.6891(2) 0.6677(8) 0.2148(2)
H8_4 H 0.6925 0.7883 0.2209
C17_4 C 0.6715(2) 0.5517(7) 0.2363(2)
H9_4 H 0.6659 0.5965 0.2612
C18_4 C 0.6717(2) 0.3204(8) 0.1952(2)
H10_4 H 0.6664 0.2009 0.1879
C19_4 C 0.69243(18) 0.4321(7) 0.1693(2)
H11_4 H 0.6989 0.3916 0.1445
C20_4 C 0.96412(15) 0.9348(5) 0.18072(19)
O2_4 O 0.74188(10) 0.6336(4) 0.13595(9)
O3_4 O 0.87963(9) 0.9398(3) 0.13603(11)
O5_4 O 0.72545(17) 0.8665(7) 0.16321(18)
O6_4 O 0.91528(12) 0.6828(4) 0.15457(17)
Cu1_2 Cu 0.619199(16) 0.78467(6) 0.756403(16)
Br1_4 Br 0.609213(19) 0.47880(5) 0.737394(16)
Br2_3 Br 0.61420(3) 0.95491(6) 0.24194(2)
C7_4 C 0.75806(15) 0.7435(5) 0.96769(14)
C10_4 C 0.72465(13) 0.7661(4) 0.91796(13)
C11_4 C 0.73684(13) 0.6879(5) 0.88529(13)
H4_4 H 0.7665 0.6251 0.8944
C12_4 C 0.70572(14) 0.7028(5) 0.84032(13)
H5_4 H 0.7142 0.6478 0.8183
C13_4 C 0.65188(13) 0.8685(5) 0.85677(13)
H6_4 H 0.6223 0.9321 0.8468
C14_4 C 0.68163(13) 0.8580(5) 0.90312(13)
H7_4 H 0.6726 0.9137 0.9247
C37_4 C 0.67567(14) 0.8399(5) 0.69807(13)
H21_4 H 0.6716 0.7190 0.6925
C38_4 C 0.69792(14) 0.9348(5) 0.67578(14)
H22_4 H 0.7089 0.8795 0.6555
N3_4 N 0.66321(10) 0.7919(4) 0.82493(10)
N4_4 N 0.65990(11) 0.9089(4) 0.72658(11)
O1_4 O 0.74018(10) 0.8218(4) 0.99480(9)
O4_4 O 0.79555(11) 0.6625(4) 0.98181(11)
N8_2 N 0.55296(12) 0.8961(4) 0.72817(14)
C23_4 C 0.51164(14) 0.8107(5) 0.70497(14)
H14_4 H 0.5129 0.6879 0.7052
C24_3 C 0.46675(14) 0.8887(5) 0.68048(15)
H15_3 H 0.4384 0.8212 0.6639
C25_4 C 0.27197(12) 0.7740(5) 0.11607(13)
C26_4 C 0.31767(12) 0.7037(4) 0.14050(12)
H16_4 H 0.3332 0.7060 0.1732
C27_4 C 0.33988(13) 0.6294(5) 0.11510(13)
C28_4 C 0.31884(13) 0.6231(5) 0.06816(13)
H17_4 H 0.3353 0.5726 0.0517
C29_4 C 0.27253(13) 0.6933(5) 0.04538(13)
C30_4 C 0.24835(13) 0.7698(5) 0.06876(13)
H18_4 H 0.2166 0.8175 0.0527
C31_4 C 0.22702(14) 0.7755(5) 0.16073(15)
C32_4 C 0.42396(16) 0.6477(6) 0.1611(2)
C34_4 C 0.20387(13) 0.8902(5) 0.18331(13)
C35_4 C 0.18939(17) 0.8196(6) 0.21458(16)
H19_4 H 0.1945 0.7000 0.2218
C36_4 C 0.16722(16) 0.9220(5) 0.23575(16)
H20_4 H 0.1570 0.8710 0.2571
C39_4 C 0.46960(15) 0.5440(5) 0.18494(18)
C40_4 C 0.5122(2) 0.6308(7) 0.2108(3)
H23_4 H 0.5124 0.7536 0.2120
C41_4 C 0.55444(19) 0.5390(7) 0.2351(2)
H24_4 H 0.5829 0.6005 0.2546
C42_4 C 0.51654(13) 0.2901(5) 0.20794(15)
H25_4 H 0.5175 0.1676 0.2062
C43_4 C 0.47208(15) 0.3729(5) 0.18446(15)
H26_4 H 0.4434 0.3069 0.1680
O7_4 O 0.24911(8) 0.8660(3) 0.13932(9)
O8_4 O 0.38549(9) 0.5489(3) 0.13822(9)
O10_4 O 0.22722(13) 0.6215(4) 0.16263(14)
O11_4 O 0.42134(13) 0.8004(5) 0.16073(19)
Br2_4 Br 0.11420(3) 0.04509(6) 0.74194(2)
C24_4 C 0.03325(14) 0.8887(5) 0.81952(15)
H15_4 H 0.0616 0.8212 0.8361
C21_4 C 0.99454(18) 0.1542(7) 0.7942(3)
H12_4 H 0.9951 0.2770 0.7939
C22_4 C 0.95097(18) 0.0660(7) 0.7687(3)
H13_4 H 0.9233 0.1298 0.7486
loop_
_geom_bond_atom_site_label_1
_geom_bond_atom_site_label_2
_geom_bond_site_symmetry_1
_geom_bond_site_symmetry_2
C33 C44 1_555 1_555
C44 C45 1_555 1_555
C45 H27 1_555 1_555
C46 C45 1_555 1_555
H28 C46 1_555 1_555
C47 H29 1_555 1_555
C48 C44 1_555 1_555
H30 C48 1_555 1_555
N6 Cu2 1_555 1_555
O12 C33 1_555 1_555
N7 Cu2 1_555 1_555
N9 Cu2 1_555 1_555
C33 O9 1_555 1_555
C46 N6 1_555 1_555
C47 C48 1_555 1_555
C47 N6 1_555 1_555
Cu1 Br1 1_555 1_555
C1 C2 1_555 1_555
C2 H1 1_555 1_555
C3 C2 1_555 1_555
C4 C3 1_555 1_555
H2 C4 1_555 1_555
C5 C4 1_555 1_555
C6 C1 1_555 1_555
H3 C6 1_555 1_555
C7 C10 1_555 1_555
C8 C15 1_555 1_555
C9 C20 1_555 1_555
C10 C11 1_555 1_555
C11 H4 1_555 1_555
C12 C11 1_555 1_555
H5 C12 1_555 1_555
C13 H6 1_555 1_555
C14 C10 1_555 1_555
H7 C14 1_555 1_555
C15 C16 1_555 1_555
C16 H8 1_555 1_555
C17 C16 1_555 1_555
H9 C17 1_555 1_555
N7 C17 1_555 1_555
C18 N7 1_555 1_555
H10 C18 1_555 1_555
C19 C15 1_555 1_555
H11 C19 1_555 1_555
C20 C21 1_555 1_555
C21 H12 1_555 1_555
C22 C21 1_555 1_555
H13 C22 1_555 1_555
C37 H21 1_555 1_555
H22 C38 1_555 1_555
N3 Cu1 1_555 1_555
N4 Cu1 1_555 1_555
O1 C1 1_555 1_555
O2 C3 1_555 1_555
O3 C5 1_555 1_555
O4 C7 1_555 1_555
O5 C8 1_555 1_555
O6 C9 1_555 1_555
N8 Cu1 1_555 1_555
C5 C6 1_555 1_555
C7 O1 1_555 1_555
C8 O2 1_555 1_555
C9 O3 1_555 1_555
C12 N3 1_555 1_555
C13 C14 1_555 1_555
C13 N3 1_555 1_555
C18 C19 1_555 1_555
C37 C38 1_555 1_555
C37 N4 1_555 1_555
C40 H23 1_555 1_555
C41 C40 1_555 1_555
H24 C41 1_555 1_555
C42 H25 1_555 1_555
N9 C41 1_555 1_555
C42 N9 1_555 1_555
C23 N8 1_555 1_555
H14 C23 1_555 1_555
C23_2 N2 1_555 1_555
H14_2 C23_2 1_555 1_555
H15 C24 1_555 1_555
C25 C26 1_555 1_555
C26 H16 1_555 1_555
C27 C26 1_555 1_555
C28 C27 1_555 1_555
H17 C28 1_555 1_555
C29 C28 1_555 1_555
C30 C25 1_555 1_555
H18 C30 1_555 1_555
C31 C34 1_555 1_555
C32 C39 1_555 1_555
C34 C35 1_555 1_555
C35 H19 1_555 1_555
C36 C35 1_555 1_555
H20 C36 1_555 1_555
C39 C40_2 1_555 1_555
C40_2 H23_2 1_555 1_555
C41_2 C40_2 1_555 1_555
H24_2 C41_2 1_555 1_555
C42_2 H25_2 1_555 1_555
C43 C39 1_555 1_555
H26 C43 1_555 1_555
N5 C41_2 1_555 1_555
O7 C25 1_555 1_555
O8 C27 1_555 1_555
O10 C31 1_555 1_555
O11 C32 1_555 1_555
Cu3 N2 1_555 1_555
Cu5 N5 1_555 1_555
C23_2 C24 1_555 1_555
C29 C30 1_555 1_555
C31 O7 1_555 1_555
C32 O8 1_555 1_555
C42_2 C43 1_555 1_555
C42_2 N5 1_555 1_555
Cu3 Br1_2 1_555 1_555
C7_2 C10_2 1_555 1_555
C10_2 C11_2 1_555 1_555
C11_2 H4_2 1_555 1_555
C12_2 C11_2 1_555 1_555
H5_2 C12_2 1_555 1_555
C13_2 H6_2 1_555 1_555
C14_2 C10_2 1_555 1_555
H7_2 C14_2 1_555 1_555
C37_2 H21_2 1_555 1_555
H22_2 C38_2 1_555 1_555
N3_2 Cu3 1_555 1_555
N4_2 Cu3 1_555 1_555
O4_2 C7_2 1_555 1_555
C7_2 O1_2 1_555 1_555
C12_2 N3_2 1_555 1_555
C13_2 C14_2 1_555 1_555
C13_2 N3_2 1_555 1_555
C37_2 C38_2 1_555 1_555
C37_2 N4_2 1_555 1_555
C1_2 C2_2 1_555 1_555
C2_2 H1_2 1_555 1_555
C3_2 C2_2 1_555 1_555
C4_2 C3_2 1_555 1_555
H2_2 C4_2 1_555 1_555
C5_2 C4_2 1_555 1_555
C6_2 C1_2 1_555 1_555
H3_2 C6_2 1_555 1_555
C8_2 C15_2 1_555 1_555
C9_2 C20_2 1_555 1_555
C15_2 C16_2 1_555 1_555
C16_2 H8_2 1_555 1_555
C17_2 C16_2 1_555 1_555
H9_2 C17_2 1_555 1_555
N1 C17_2 1_555 1_555
C18_2 N1 1_555 1_555
H10_2 C18_2 1_555 1_555
C19_2 C15_2 1_555 1_555
H11_2 C19_2 1_555 1_555
O2_2 C3_2 1_555 1_555
O3_2 C5_2 1_555 1_555
O5_2 C8_2 1_555 1_555
O6_2 C9_2 1_555 1_555
Cu5 N1 1_555 1_555
C5_2 C6_2 1_555 1_555
C8_2 O2_2 1_555 1_555
C9_2 O3_2 1_555 1_555
C18_2 C19_2 1_555 1_555
C25_2 C26_2 1_555 1_555
C26_2 H16_2 1_555 1_555
C27_2 C26_2 1_555 1_555
C28_2 C27_2 1_555 1_555
H17_2 C28_2 1_555 1_555
C29_2 C28_2 1_555 1_555
C30_2 C25_2 1_555 1_555
H18_2 C30_2 1_555 1_555
C31_2 C34_2 1_555 1_555
C32_2 C39_2 1_555 1_555
C33_2 C44_2 1_555 1_555
C34_2 C35_2 1_555 1_555
C35_2 H19_2 1_555 1_555
C36_2 C35_2 1_555 1_555
H20_2 C36_2 1_555 1_555
C43_2 C39_2 1_555 1_555
H26_2 C43_2 1_555 1_555
C44_2 C45_2 1_555 1_555
C45_2 H27_2 1_555 1_555
C46_2 C45_2 1_555 1_555
H28_2 C46_2 1_555 1_555
C47_2 H29_2 1_555 1_555
C48_2 C44_2 1_555 1_555
H30_2 C48_2 1_555 1_555
N6_2 Cu5 1_555 1_555
O7_2 C25_2 1_555 1_555
O8_2 C27_2 1_555 1_555
O9_2 C29_2 1_555 1_555
O10_2 C31_2 1_555 1_555
O11_2 C32_2 1_555 1_555
O12_2 C33_2 1_555 1_555
C29_2 C30_2 1_555 1_555
C31_2 O7_2 1_555 1_555
C32_2 O8_2 1_555 1_555
C33_2 O9_2 1_555 1_555
C46_2 N6_2 1_555 1_555
C47_2 C48_2 1_555 1_555
C47_2 N6_2 1_555 1_555
C23_3 N2_2 1_555 1_555
H14_3 C23_3 1_555 1_555
Cu3_2 N2_2 1_555 1_555
C40_3 H23_3 1_555 1_555
C41_3 C40_3 1_555 1_555
H24_3 C41_3 1_555 1_555
C42_3 H25_3 1_555 1_555
N5_2 C41_3 1_555 1_555
Cu5_2 N5_2 1_555 1_555
C42_3 N5_2 1_555 1_555
Cu3_2 Br1_3 1_555 1_555
C1_3 C2_3 1_555 1_555
C2_3 H1_3 1_555 1_555
C3_3 C2_3 1_555 1_555
C4_3 C3_3 1_555 1_555
H2_3 C4_3 1_555 1_555
C5_3 C4_3 1_555 1_555
C6_3 C1_3 1_555 1_555
H3_3 C6_3 1_555 1_555
C7_3 C10_3 1_555 1_555
C8_3 C15_3 1_555 1_555
C9_3 C20_3 1_555 1_555
C10_3 C11_3 1_555 1_555
C11_3 H4_3 1_555 1_555
C12_3 C11_3 1_555 1_555
H5_3 C12_3 1_555 1_555
C13_3 H6_3 1_555 1_555
C14_3 C10_3 1_555 1_555
H7_3 C14_3 1_555 1_555
C15_3 C16_3 1_555 1_555
C16_3 H8_3 1_555 1_555
C17_3 C16_3 1_555 1_555
H9_3 C17_3 1_555 1_555
N1_2 C17_3 1_555 1_555
C18_3 N1_2 1_555 1_555
H10_3 C18_3 1_555 1_555
C19_3 C15_3 1_555 1_555
H11_3 C19_3 1_555 1_555
C20_3 C21_2 1_555 1_555
C21_2 H12_2 1_555 1_555
C22_2 C21_2 1_555 1_555
H13_2 C22_2 1_555 1_555
C37_3 H21_3 1_555 1_555
H22_3 C38_3 1_555 1_555
N3_3 Cu3_2 1_555 1_555
N4_3 Cu3_2 1_555 1_555
O1_3 C1_3 1_555 1_555
O2_3 C3_3 1_555 1_555
O3_3 C5_3 1_555 1_555
O4_3 C7_3 1_555 1_555
O5_3 C8_3 1_555 1_555
O6_3 C9_3 1_555 1_555
Cu5_2 N1_2 1_555 1_555
C5_3 C6_3 1_555 1_555
C7_3 O1_3 1_555 1_555
C8_3 O2_3 1_555 1_555
C9_3 O3_3 1_555 1_555
C12_3 N3_3 1_555 1_555
C13_3 C14_3 1_555 1_555
C13_3 N3_3 1_555 1_555
C18_3 C19_3 1_555 1_555
C37_3 C38_3 1_555 1_555
C37_3 N4_3 1_555 1_555
C33_3 C44_3 1_555 1_555
C44_3 C45_3 1_555 1_555
C45_3 H27_3 1_555 1_555
C46_3 C45_3 1_555 1_555
H28_3 C46_3 1_555 1_555
C47_3 H29_3 1_555 1_555
C48_3 C44_3 1_555 1_555
H30_3 C48_3 1_555 1_555
N6_3 Cu5_2 1_555 1_555
O12_3 C33_3 1_555 1_555
C33_3 O9_3 1_555 1_555
C46_3 N6_3 1_555 1_555
C47_3 C48_3 1_555 1_555
C47_3 N6_3 1_555 1_555
C21_3 H12_3 1_555 1_555
C22_3 C21_3 1_555 1_555
H13_3 C22_3 1_555 1_555
H15_2 C24_2 1_555 1_555
C25_3 C26_3 1_555 1_555
C26_3 H16_3 1_555 1_555
C27_3 C26_3 1_555 1_555
C28_3 C27_3 1_555 1_555
H17_3 C28_3 1_555 1_555
C29_3 C28_3 1_555 1_555
C30_3 C25_3 1_555 1_555
H18_3 C30_3 1_555 1_555
C31_3 C34_3 1_555 1_555
C32_3 C39_3 1_555 1_555
C33_4 C44_4 1_555 1_555
C34_3 C35_3 1_555 1_555
C35_3 H19_3 1_555 1_555
C36_3 C35_3 1_555 1_555
H20_3 C36_3 1_555 1_555
C43_3 C39_3 1_555 1_555
H26_3 C43_3 1_555 1_555
C44_4 C45_4 1_555 1_555
C45_4 H27_4 1_555 1_555
C46_4 C45_4 1_555 1_555
H28_4 C46_4 1_555 1_555
C47_4 H29_4 1_555 1_555
C48_4 C44_4 1_555 1_555
H30_4 C48_4 1_555 1_555
N6_4 Cu2_2 1_555 1_555
O7_3 C25_3 1_555 1_555
O8_3 C27_3 1_555 1_555
O9_4 C29_3 1_555 1_555
O10_3 C31_3 1_555 1_555
O11_3 C32_3 1_555 1_555
O12_4 C33_4 1_555 1_555
N7_2 Cu2_2 1_555 1_555
N9_2 Cu2_2 1_555 1_555
C29_3 C30_3 1_555 1_555
C31_3 O7_3 1_555 1_555
C32_3 O8_3 1_555 1_555
C33_4 O9_4 1_555 1_555
C46_4 N6_4 1_555 1_555
C47_4 C48_4 1_555 1_555
C47_4 N6_4 1_555 1_555
C1_4 C2_4 1_555 1_555
C2_4 H1_4 1_555 1_555
C3_4 C2_4 1_555 1_555
C4_4 C3_4 1_555 1_555
H2_4 C4_4 1_555 1_555
C5_4 C4_4 1_555 1_555
C6_4 C1_4 1_555 1_555
H3_4 C6_4 1_555 1_555
C8_4 C15_4 1_555 1_555
C9_4 C20_4 1_555 1_555
C15_4 C16_4 1_555 1_555
C16_4 H8_4 1_555 1_555
C17_4 C16_4 1_555 1_555
H9_4 C17_4 1_555 1_555
N7_2 C17_4 1_555 1_555
C18_4 N7_2 1_555 1_555
H10_4 C18_4 1_555 1_555
C19_4 C15_4 1_555 1_555
H11_4 C19_4 1_555 1_555
O2_4 C3_4 1_555 1_555
O3_4 C5_4 1_555 1_555
O5_4 C8_4 1_555 1_555
O6_4 C9_4 1_555 1_555
C5_4 C6_4 1_555 1_555
C8_4 O2_4 1_555 1_555
C9_4 O3_4 1_555 1_555
C18_4 C19_4 1_555 1_555
Cu1_2 Br1_4 1_555 1_555
C7_4 C10_4 1_555 1_555
C10_4 C11_4 1_555 1_555
C11_4 H4_4 1_555 1_555
C12_4 C11_4 1_555 1_555
H5_4 C12_4 1_555 1_555
C13_4 H6_4 1_555 1_555
C14_4 C10_4 1_555 1_555
H7_4 C14_4 1_555 1_555
C37_4 H21_4 1_555 1_555
H22_4 C38_4 1_555 1_555
N3_4 Cu1_2 1_555 1_555
N4_4 Cu1_2 1_555 1_555
O4_4 C7_4 1_555 1_555
N8_2 Cu1_2 1_555 1_555
C7_4 O1_4 1_555 1_555
C12_4 N3_4 1_555 1_555
C13_4 C14_4 1_555 1_555
C13_4 N3_4 1_555 1_555
C37_4 C38_4 1_555 1_555
C37_4 N4_4 1_555 1_555
C23_4 N8_2 1_555 1_555
H14_4 C23_4 1_555 1_555
H15_3 C24_3 1_555 1_555
C25_4 C26_4 1_555 1_555
C26_4 H16_4 1_555 1_555
C27_4 C26_4 1_555 1_555
C28_4 C27_4 1_555 1_555
H17_4 C28_4 1_555 1_555
C29_4 C28_4 1_555 1_555
C30_4 C25_4 1_555 1_555
H18_4 C30_4 1_555 1_555
C31_4 C34_4 1_555 1_555
C32_4 C39_4 1_555 1_555
C34_4 C35_4 1_555 1_555
C35_4 H19_4 1_555 1_555
C36_4 C35_4 1_555 1_555
H20_4 C36_4 1_555 1_555
C39_4 C40_4 1_555 1_555
C40_4 H23_4 1_555 1_555
C41_4 C40_4 1_555 1_555
H24_4 C41_4 1_555 1_555
C42_4 H25_4 1_555 1_555
C43_4 C39_4 1_555 1_555
H26_4 C43_4 1_555 1_555
N9_2 C41_4 1_555 1_555
O7_4 C25_4 1_555 1_555
O8_4 C27_4 1_555 1_555
O10_4 C31_4 1_555 1_555
O11_4 C32_4 1_555 1_555
C23_4 C24_3 1_555 1_555
C29_4 C30_4 1_555 1_555
C31_4 O7_4 1_555 1_555
C32_4 O8_4 1_555 1_555
C42_4 C43_4 1_555 1_555
C42_4 N9_2 1_555 1_555
H15_4 C24_4 1_555 1_555
C21_4 H12_4 1_555 1_555
C22_4 C21_4 1_555 1_555
H13_4 C22_4 1_555 1_555

#END
