
###############################################################################
#
# This file contains modified crystal structure data generated from the
# MOF subset of the Cambridge Structural Database (CSD) v543 
# hosted by the Cambridge Crystallographic Data Centre (CCDC).
#
# This work is licensed under the Creative Commons
# Attribution-NonCommercial-ShareAlike 4.0 International License.
# To view a copy of this license, visit
# http://creativecommons.org/licenses/by-nc-sa/4.0/
# or send a letter to
# Creative Commons, PO Box 1866, Mountain View, CA 94042, USA.
#
# CIF created using the CSD Python API on 29 September 2022
# The structure has been converted into the P1 space group
# The structure has a 3D framework
# The original CSD entry AKEDIF is in the monoclinic crystal system
# The framework has been calculated to contain at least 10.0% void space
# The void calculation uses a probe of radius 1.32A, grid spacing 0.4
#
###############################################################################

data_AKEDIF
_chemical_formula_moiety         '(C112 H80 N8 O16 Zn2)n'
_symmetry_cell_setting           triclinic
_symmetry_space_group_name_H-M   'P 1'
_symmetry_Int_Tables_number      1
_space_group_name_Hall           'P 1'
loop_
_symmetry_equiv_pos_site_id
_symmetry_equiv_pos_as_xyz
1 x,y,z
_cell_length_a                   31.3256(6)
_cell_length_b                   5.88880(10)
_cell_length_c                   20.4485(4)
_cell_angle_alpha                90
_cell_angle_beta                 102.229(2)
_cell_angle_gamma                90
_cell_volume                     3686.54
loop_
_atom_site_label
_atom_site_type_symbol
_atom_site_fract_x
_atom_site_fract_y
_atom_site_fract_z
C19 C 0.07929(6) 0.0401(3) 0.84823(9)
H13 H 0.0745 0.1797 0.8688
Zn3 Zn -0.0000 0.17886(5) 0.7500
Zn1 Zn 0.0000 0.82114(5) 0.2500
C13 C 0.01230(6) 0.3916(3) 0.44658(9)
H9 H 0.0206 0.3169 0.4100
O3 O 0.00256(4) 0.3884(2) 0.67641(6)
O4 O 0.02610(5) 0.0777(2) 0.63404(6)
C15 C 0.01290(6) 0.2755(3) 0.62837(8)
C16 C 0.00669(6) 0.3950(3) 0.56213(8)
C18 C 0.01912(6) 0.2874(3) 0.50852(9)
H12 H 0.0324 0.1416 0.5145
O5 O 0.00256(4) 0.6116(2) 0.17641(6)
O2 O 0.02610(5) 0.9223(2) 0.13404(6)
C1 C 0.07929(6) 0.9599(3) 0.34823(9)
H1 H 0.0745 0.8203 0.3688
C11 C 0.01290(6) 0.7245(3) 0.12837(8)
C12 C 0.00669(6) 0.6050(3) 0.06213(8)
C14 C 0.01912(6) 0.7126(3) 0.00852(9)
H10 H 0.0324 0.8584 0.0145
C17 C 0.01230(6) 0.6084(3) 0.94658(9)
H11 H 0.0206 0.6831 0.9100
H5 H 0.3373 0.0797 0.1491
C8 C 0.28337(7) 0.1022(4) 0.03085(13)
C9 C 0.27493(7) 0.3018(4) 0.06262(13)
H7 H 0.2920 0.3383 0.1055
C28 C 0.24163(7) 0.4482(5) 0.03186(13)
H20 H 0.2361 0.5833 0.0541
C10 C 0.25837(7) 0.0518(5) 0.96814(13)
N2 N 0.05200(4) 0.9804(3) 0.79070(7)
C20 C 0.11384(6) 0.9062(4) 0.87825(10)
H14 H 0.1325 0.9545 0.9187
C21 C 0.12161(6) 0.6997(4) 0.84952(10)
C22 C 0.09349(6) 0.6413(3) 0.78971(10)
H15 H 0.0978 0.5036 0.7677
C23 C 0.05945(6) 0.7833(3) 0.76242(9)
H16 H 0.0404 0.7395 0.7218
C24 C 0.15707(7) 0.5426(4) 0.87818(12)
H17 H 0.1627 0.4203 0.8509
C25 C 0.18149(7) 0.5578(4) 0.93823(12)
H18 H 0.1763 0.6833 0.9647
C26 C 0.21663(7) 0.3978(4) 0.96915(13)
C27 C 0.22507(7) 0.1982(4) 0.93738(13)
H19 H 0.2080 0.1617 0.8945
Zn1_2 Zn 0.5000 0.32114(5) 0.2500
O1 O 0.49744(4) 0.1116(2) 0.32359(6)
O2_2 O 0.47390(5) 0.4223(2) 0.36596(6)
N1 N 0.44800(4) 0.5196(3) 0.20930(7)
C1_2 C 0.42071(6) 0.4599(3) 0.15177(9)
H1_2 H 0.4255 0.3203 0.1312
C2 C 0.38616(6) 0.5938(4) 0.12175(10)
H2 H 0.3675 0.5455 0.0813
C3 C 0.37839(6) 0.8003(4) 0.15048(10)
C4 C 0.40651(6) 0.8587(3) 0.21029(10)
H3 H 0.4022 0.9964 0.2323
C5 C 0.44055(6) 0.7167(3) 0.23758(9)
H4 H 0.4596 0.7605 0.2782
C6 C 0.34293(7) 0.9574(4) 0.12182(12)
C7 C 0.31851(7) 0.9422(4) 0.06177(12)
H6 H 0.3237 0.8167 0.0353
C11_2 C 0.48710(6) 0.2245(3) 0.37163(8)
C12_2 C 0.49331(6) 0.1050(3) 0.43787(8)
C14_2 C 0.48088(6) 0.2126(3) 0.49148(9)
H10_2 H 0.4676 0.3584 0.4855
C17_2 C 0.48770(6) 0.1084(3) 0.55342(9)
H11_2 H 0.4794 0.1831 0.5900
O5_2 O 0.50256(4) 0.1116(2) 0.17641(6)
N3 N 0.55200(4) 0.5196(3) 0.29070(7)
O2_3 O 0.52610(5) 0.4223(2) 0.13404(6)
C1_3 C 0.57929(6) 0.4599(3) 0.34823(9)
H1_3 H 0.5745 0.3203 0.3688
C2_2 C 0.61384(6) 0.5938(4) 0.37825(10)
H2_2 H 0.6325 0.5455 0.4187
C3_2 C 0.62161(6) 0.8003(4) 0.34952(10)
C4_2 C 0.59349(6) 0.8587(3) 0.28971(10)
H3_2 H 0.5978 0.9964 0.2677
C5_2 C 0.55945(6) 0.7167(3) 0.26242(9)
H4_2 H 0.5404 0.7605 0.2218
C6_2 C 0.65707(7) 0.9574(4) 0.37818(12)
C7_2 C 0.68149(7) 0.9422(4) 0.43823(12)
H6_2 H 0.6763 0.8167 0.4647
H8 H 0.7361 0.9167 0.5541
C11_3 C 0.51290(6) 0.2245(3) 0.12837(8)
C12_3 C 0.50669(6) 0.1050(3) 0.06213(8)
C14_3 C 0.51912(6) 0.2126(3) 0.00852(9)
H10_3 H 0.5324 0.3584 0.0145
H8_2 H 0.2639 0.9167 0.9459
C13_2 C 0.51230(6) 0.8916(3) 0.44658(9)
H9_2 H 0.5206 0.8169 0.4100
O3_2 O 0.50256(4) 0.8884(2) 0.67641(6)
O4_2 O 0.52610(5) 0.5777(2) 0.63404(6)
C15_2 C 0.51290(6) 0.7755(3) 0.62837(8)
C16_2 C 0.50669(6) 0.8950(3) 0.56213(8)
C18_2 C 0.51912(6) 0.7874(3) 0.50852(9)
H12_2 H 0.5324 0.6416 0.5145
Zn2 Zn 0.5000 0.67886(5) 0.7500
O3_3 O 0.49744(4) 0.8884(2) 0.82359(6)
O4_3 O 0.47390(5) 0.5777(2) 0.86596(6)
C15_3 C 0.48710(6) 0.7755(3) 0.87163(8)
C16_3 C 0.49331(6) 0.8950(3) 0.93787(8)
C18_3 C 0.48088(6) 0.7874(3) 0.99148(9)
H12_3 H 0.4676 0.6416 0.9855
N2_2 N 0.55200(4) 0.4804(3) 0.79070(7)
C19_2 C 0.57929(6) 0.5401(3) 0.84823(9)
H13_2 H 0.5745 0.6797 0.8688
C20_2 C 0.61384(6) 0.4062(4) 0.87825(10)
H14_2 H 0.6325 0.4545 0.9187
C21_2 C 0.62161(6) 0.1997(4) 0.84952(10)
C22_2 C 0.59349(6) 0.1413(3) 0.78971(10)
H15_2 H 0.5978 0.0036 0.7677
C23_2 C 0.55945(6) 0.2833(3) 0.76242(9)
H16_2 H 0.5404 0.2395 0.7218
C24_2 C 0.65707(7) 0.0426(4) 0.87818(12)
C25_2 C 0.68149(7) 0.0578(4) 0.93823(12)
H18_2 H 0.6763 0.1833 0.9647
N2_3 N 0.44800(4) 0.4804(3) 0.70930(7)
C19_3 C 0.42071(6) 0.5401(3) 0.65177(9)
H13_3 H 0.4255 0.6797 0.6312
C20_3 C 0.38616(6) 0.4062(4) 0.62175(10)
H14_3 H 0.3675 0.4545 0.5813
C21_3 C 0.37839(6) 0.1997(4) 0.65048(10)
C22_3 C 0.40651(6) 0.1413(3) 0.71029(10)
H15_3 H 0.4022 0.0036 0.7323
C23_3 C 0.44055(6) 0.2833(3) 0.73758(9)
H16_3 H 0.4596 0.2395 0.7782
C24_3 C 0.34293(7) 0.0426(4) 0.62182(12)
C25_3 C 0.31851(7) 0.0578(4) 0.56177(12)
H18_3 H 0.3237 0.1833 0.5353
H20_2 H 0.2639 0.0833 0.4459
Zn3_2 Zn 1.0000 0.17886(5) 0.7500
C19_4 C 0.92071(6) 0.0401(3) 0.65177(9)
H13_4 H 0.9255 0.1797 0.6312
Zn1_3 Zn 1.0000 0.82114(5) 0.2500
O1_2 O 0.99744(4) 0.6116(2) 0.32359(6)
O2_4 O 0.97390(5) 0.9223(2) 0.36596(6)
C1_4 C 0.92071(6) 0.9599(3) 0.15177(9)
H1_4 H 0.9255 0.8203 0.1312
C11_4 C 0.98710(6) 0.7245(3) 0.37163(8)
C12_4 C 0.99331(6) 0.6050(3) 0.43787(8)
C14_4 C 0.98088(6) 0.7126(3) 0.49148(9)
H10_4 H 0.9676 0.8584 0.4855
C17_3 C 0.98770(6) 0.6084(3) 0.55342(9)
H11_3 H 0.9794 0.6831 0.5900
C13_3 C 0.98770(6) 0.3916(3) 0.05342(9)
H9_3 H 0.9794 0.3169 0.0900
O3_4 O 0.99744(4) 0.3884(2) 0.82359(6)
O4_4 O 0.97390(5) 0.0777(2) 0.86596(6)
C15_4 C 0.98710(6) 0.2755(3) 0.87163(8)
C16_4 C 0.99331(6) 0.3950(3) 0.93787(8)
C18_4 C 0.98088(6) 0.2874(3) 0.99148(9)
H12_4 H 0.9676 0.1416 0.9855
H5_2 H 0.6627 0.0797 0.3509
C8_2 C 0.71663(7) 0.1022(4) 0.46915(13)
C9_2 C 0.72507(7) 0.3018(4) 0.43738(13)
H7_2 H 0.7080 0.3383 0.3945
C10_2 C 0.74163(7) 0.0518(5) 0.53186(13)
N2_4 N 0.94800(4) 0.9804(3) 0.70930(7)
C20_4 C 0.88616(6) 0.9062(4) 0.62175(10)
H14_4 H 0.8675 0.9545 0.5813
C21_4 C 0.87839(6) 0.6997(4) 0.65048(10)
C22_4 C 0.90651(6) 0.6413(3) 0.71029(10)
H15_4 H 0.9022 0.5036 0.7323
C23_4 C 0.94055(6) 0.7833(3) 0.73758(9)
H16_4 H 0.9596 0.7395 0.7782
C24_4 C 0.84293(7) 0.5426(4) 0.62182(12)
H17_2 H 0.8373 0.4203 0.6491
C25_4 C 0.81851(7) 0.5578(4) 0.56177(12)
H18_4 H 0.8237 0.6833 0.5353
C26_2 C 0.78337(7) 0.3978(4) 0.53085(13)
C27_2 C 0.77493(7) 0.1982(4) 0.56262(13)
H19_2 H 0.7920 0.1617 0.6055
C28_2 C 0.75837(7) 0.4482(5) 0.46814(13)
H20_3 H 0.7639 0.5833 0.4459
C17_4 C 0.51230(6) 0.1084(3) 0.94658(9)
H11_4 H 0.5206 0.1831 0.9100
C13_4 C 0.48770(6) 0.8916(3) 0.05342(9)
H9_4 H 0.4794 0.8169 0.0900
N3_2 N 0.05200(4) 0.0196(3) 0.29070(7)
C2_3 C 0.11384(6) 0.0938(4) 0.37825(10)
H2_3 H 0.1325 0.0455 0.4187
C3_3 C 0.12161(6) 0.3003(4) 0.34952(10)
C4_3 C 0.09349(6) 0.3587(3) 0.28971(10)
H3_3 H 0.0978 0.4964 0.2677
C5_3 C 0.05945(6) 0.2167(3) 0.26242(9)
H4_3 H 0.0404 0.2605 0.2218
C6_3 C 0.15707(7) 0.4574(4) 0.37818(12)
H5_3 H 0.1627 0.5797 0.3509
C7_3 C 0.18149(7) 0.4422(4) 0.43823(12)
H6_3 H 0.1763 0.3167 0.4647
C8_3 C 0.21663(7) 0.6022(4) 0.46915(13)
C9_3 C 0.22507(7) 0.8018(4) 0.43738(13)
H7_3 H 0.2080 0.8383 0.3945
C10_3 C 0.24163(7) 0.5518(5) 0.53186(13)
H8_3 H 0.2361 0.4167 0.5541
H17_3 H 0.3373 0.9203 0.6491
C26_3 C 0.28337(7) 0.8978(4) 0.53085(13)
C27_3 C 0.27493(7) 0.6982(4) 0.56262(13)
H19_3 H 0.2920 0.6617 0.6055
C28_3 C 0.25837(7) 0.9482(5) 0.46814(13)
H20_4 H 0.7361 0.0833 0.0541
N1_2 N 0.94800(4) 0.0196(3) 0.20930(7)
C2_4 C 0.88616(6) 0.0938(4) 0.12175(10)
H2_4 H 0.8675 0.0455 0.0813
C3_4 C 0.87839(6) 0.3003(4) 0.15048(10)
C4_4 C 0.90651(6) 0.3587(3) 0.21029(10)
H3_4 H 0.9022 0.4964 0.2323
C5_4 C 0.94055(6) 0.2167(3) 0.23758(9)
H4_4 H 0.9596 0.2605 0.2782
C6_4 C 0.84293(7) 0.4574(4) 0.12182(12)
H5_4 H 0.8373 0.5797 0.1491
C7_4 C 0.81851(7) 0.4422(4) 0.06177(12)
H6_4 H 0.8237 0.3167 0.0353
C8_4 C 0.78337(7) 0.6022(4) 0.03085(13)
C9_4 C 0.77493(7) 0.8018(4) 0.06262(13)
H7_4 H 0.7920 0.8383 0.1055
C28_4 C 0.74163(7) 0.9482(5) 0.03186(13)
C10_4 C 0.75837(7) 0.5518(5) 0.96814(13)
H8_4 H 0.7639 0.4167 0.9459
H17_4 H 0.6627 0.9203 0.8509
C26_4 C 0.71663(7) 0.8978(4) 0.96915(13)
C27_4 C 0.72507(7) 0.6982(4) 0.93738(13)
H19_4 H 0.7080 0.6617 0.8945
loop_
_geom_bond_atom_site_label_1
_geom_bond_atom_site_label_2
_geom_bond_site_symmetry_1
_geom_bond_site_symmetry_2
C19 H13 1_555 1_555
C13 H9 1_555 1_555
O3 C15 1_555 1_555
O4 C15 1_555 1_555
C15 C16 1_555 1_555
C18 C13 1_555 1_555
H12 C18 1_555 1_555
Zn3 O3 1_555 1_555
O5 Zn1 1_555 1_555
C16 C18 1_555 1_555
O5 C11 1_555 1_555
O2 C11 1_555 1_555
H1 C1 1_555 1_555
C11 C12 1_555 1_555
C14 C12 1_555 1_555
H10 C14 1_555 1_555
H11 C17 1_555 1_555
C9 C8 1_555 1_555
H7 C9 1_555 1_555
C28 C9 1_555 1_555
H20 C28 1_555 1_555
H14 C20 1_555 1_555
C21 C20 1_555 1_555
C22 C21 1_555 1_555
H15 C22 1_555 1_555
C23 N2 1_555 1_555
H16 C23 1_555 1_555
C24 C21 1_555 1_555
H17 C24 1_555 1_555
C25 C24 1_555 1_555
H18 C25 1_555 1_555
C26 C25 1_555 1_555
C27 C10 1_555 1_555
H19 C27 1_555 1_555
C22 C23 1_555 1_555
C26 C27 1_555 1_555
Zn1_2 O1 1_555 1_555
O1 C11_2 1_555 1_555
O2_2 C11_2 1_555 1_555
N1 Zn1_2 1_555 1_555
C1_2 N1 1_555 1_555
H1_2 C1_2 1_555 1_555
C2 C1_2 1_555 1_555
H2 C2 1_555 1_555
C3 C2 1_555 1_555
C4 C3 1_555 1_555
H3 C4 1_555 1_555
C5 N1 1_555 1_555
H4 C5 1_555 1_555
C6 C3 1_555 1_555
C7 C6 1_555 1_555
H6 C7 1_555 1_555
C11_2 C12_2 1_555 1_555
C14_2 C12_2 1_555 1_555
H10_2 C14_2 1_555 1_555
C17_2 C14_2 1_555 1_555
H11_2 C17_2 1_555 1_555
O5_2 Zn1_2 1_555 1_555
N3 Zn1_2 1_555 1_555
C4 C5 1_555 1_555
O5_2 C11_3 1_555 1_555
O2_3 C11_3 1_555 1_555
C1_3 N3 1_555 1_555
H1_3 C1_3 1_555 1_555
C2_2 C1_3 1_555 1_555
H2_2 C2_2 1_555 1_555
C3_2 C2_2 1_555 1_555
C4_2 C3_2 1_555 1_555
H3_2 C4_2 1_555 1_555
C5_2 N3 1_555 1_555
H4_2 C5_2 1_555 1_555
C6_2 C3_2 1_555 1_555
C7_2 C6_2 1_555 1_555
H6_2 C7_2 1_555 1_555
C11_3 C12_3 1_555 1_555
C14_3 C12_3 1_555 1_555
H10_3 C14_3 1_555 1_555
C4_2 C5_2 1_555 1_555
C13_2 H9_2 1_555 1_555
O3_2 C15_2 1_555 1_555
O4_2 C15_2 1_555 1_555
C15_2 C16_2 1_555 1_555
C18_2 C13_2 1_555 1_555
H12_2 C18_2 1_555 1_555
Zn2 O3_2 1_555 1_555
C16_2 C18_2 1_555 1_555
O3_3 C15_3 1_555 1_555
O4_3 C15_3 1_555 1_555
C15_3 C16_3 1_555 1_555
H12_3 C18_3 1_555 1_555
Zn2 O3_3 1_555 1_555
C16_3 C18_3 1_555 1_555
N2_2 C19_2 1_555 1_555
C19_2 H13_2 1_555 1_555
C20_2 C19_2 1_555 1_555
H14_2 C20_2 1_555 1_555
C21_2 C20_2 1_555 1_555
C22_2 C21_2 1_555 1_555
H15_2 C22_2 1_555 1_555
C23_2 N2_2 1_555 1_555
H16_2 C23_2 1_555 1_555
C24_2 C21_2 1_555 1_555
C25_2 C24_2 1_555 1_555
H18_2 C25_2 1_555 1_555
Zn2 N2_2 1_555 1_555
C22_2 C23_2 1_555 1_555
N2_3 C19_3 1_555 1_555
C19_3 H13_3 1_555 1_555
C20_3 C19_3 1_555 1_555
H14_3 C20_3 1_555 1_555
C21_3 C20_3 1_555 1_555
C22_3 C21_3 1_555 1_555
H15_3 C22_3 1_555 1_555
C23_3 N2_3 1_555 1_555
H16_3 C23_3 1_555 1_555
C24_3 C21_3 1_555 1_555
C25_3 C24_3 1_555 1_555
H18_3 C25_3 1_555 1_555
Zn2 N2_3 1_555 1_555
C22_3 C23_3 1_555 1_555
C19_4 H13_4 1_555 1_555
Zn1_3 O1_2 1_555 1_555
O1_2 C11_4 1_555 1_555
O2_4 C11_4 1_555 1_555
H1_4 C1_4 1_555 1_555
C11_4 C12_4 1_555 1_555
C14_4 C12_4 1_555 1_555
H10_4 C14_4 1_555 1_555
C17_3 C14_4 1_555 1_555
H11_3 C17_3 1_555 1_555
C13_3 H9_3 1_555 1_555
O3_4 C15_4 1_555 1_555
O4_4 C15_4 1_555 1_555
C15_4 C16_4 1_555 1_555
H12_4 C18_4 1_555 1_555
Zn3_2 O3_4 1_555 1_555
C16_4 C18_4 1_555 1_555
C9_2 C8_2 1_555 1_555
H7_2 C9_2 1_555 1_555
C10_2 C8_2 1_555 1_555
H14_4 C20_4 1_555 1_555
C21_4 C20_4 1_555 1_555
C22_4 C21_4 1_555 1_555
H15_4 C22_4 1_555 1_555
C23_4 N2_4 1_555 1_555
H16_4 C23_4 1_555 1_555
C24_4 C21_4 1_555 1_555
H17_2 C24_4 1_555 1_555
C25_4 C24_4 1_555 1_555
H18_4 C25_4 1_555 1_555
C26_2 C25_4 1_555 1_555
C27_2 C10_2 1_555 1_555
H19_2 C27_2 1_555 1_555
C28_2 C9_2 1_555 1_555
H20_3 C28_2 1_555 1_555
C22_4 C23_4 1_555 1_555
C26_2 C27_2 1_555 1_555
C26_2 C28_2 1_555 1_555
H11_4 C17_4 1_555 1_555
C13_4 H9_4 1_555 1_555
H2_3 C2_3 1_555 1_555
C3_3 C2_3 1_555 1_555
C4_3 C3_3 1_555 1_555
H3_3 C4_3 1_555 1_555
C5_3 N3_2 1_555 1_555
H4_3 C5_3 1_555 1_555
C6_3 C3_3 1_555 1_555
H5_3 C6_3 1_555 1_555
C7_3 C6_3 1_555 1_555
H6_3 C7_3 1_555 1_555
C8_3 C7_3 1_555 1_555
C9_3 C8_3 1_555 1_555
H7_3 C9_3 1_555 1_555
C10_3 C8_3 1_555 1_555
H8_3 C10_3 1_555 1_555
C27_3 C10_3 1_555 1_555
H19_3 C27_3 1_555 1_555
C28_3 C9_3 1_555 1_555
C4_3 C5_3 1_555 1_555
C26_3 C27_3 1_555 1_555
C26_3 C28_3 1_555 1_555
H2_4 C2_4 1_555 1_555
C3_4 C2_4 1_555 1_555
C4_4 C3_4 1_555 1_555
H3_4 C4_4 1_555 1_555
C5_4 N1_2 1_555 1_555
H4_4 C5_4 1_555 1_555
C6_4 C3_4 1_555 1_555
H5_4 C6_4 1_555 1_555
C7_4 C6_4 1_555 1_555
H6_4 C7_4 1_555 1_555
C8_4 C7_4 1_555 1_555
C9_4 C8_4 1_555 1_555
H7_4 C9_4 1_555 1_555
C28_4 C9_4 1_555 1_555
C4_4 C5_4 1_555 1_555
H8_4 C10_4 1_555 1_555
C27_4 C10_4 1_555 1_555
H19_4 C27_4 1_555 1_555
C26_4 C27_4 1_555 1_555

#END
