
###############################################################################
#
# This file contains modified crystal structure data generated from the
# MOF subset of the Cambridge Structural Database (CSD) v543 
# hosted by the Cambridge Crystallographic Data Centre (CCDC).
#
# This work is licensed under the Creative Commons
# Attribution-NonCommercial-ShareAlike 4.0 International License.
# To view a copy of this license, visit
# http://creativecommons.org/licenses/by-nc-sa/4.0/
# or send a letter to
# Creative Commons, PO Box 1866, Mountain View, CA 94042, USA.
#
# CIF created using the CSD Python API on 29 September 2022
# The structure has been converted into the P1 space group
# The structure has a 3D framework
# The original CSD entry AKOBAF is in the monoclinic crystal system
# The framework has been calculated to contain at least 10.0% void space
# The void calculation uses a probe of radius 1.32A, grid spacing 0.4
# The framework is charged, counterions have been retained in the structure
# H atom positions have been added when not included in the experimental data
# Generated hydrogen atom positions removed from atoms on special positions
#
###############################################################################

data_AKOBAF
_chemical_formula_moiety         '(C160 H176 Cd6 Cl8 N32 O56 4+)n'
_symmetry_cell_setting           triclinic
_symmetry_space_group_name_H-M   'P 1'
_symmetry_Int_Tables_number      1
_space_group_name_Hall           'P 1'
loop_
_symmetry_equiv_pos_site_id
_symmetry_equiv_pos_as_xyz
1 x,y,z
_cell_length_a                   23.404(4)
_cell_length_b                   11.0971(17)
_cell_length_c                   20.766(5)
_cell_angle_alpha                90
_cell_angle_beta                 120.476(3)
_cell_angle_gamma                90
_cell_volume                     4648.15
loop_
_atom_site_label
_atom_site_type_symbol
_atom_site_fract_x
_atom_site_fract_y
_atom_site_fract_z
N5 N 0.02732(12) 0.6165(2) 0.69771(14)
C23 C 0.09125(15) 0.5811(3) 0.73178(17)
H21 H 0.1244 0.6386 0.7560
C24 C 0.10909(14) 0.4640(3) 0.73198(17)
H22 H 0.1537 0.4431 0.7560
C25 C 0.06089(14) 0.3758(3) 0.69643(18)
H23 H 0.0726 0.2957 0.6965
Cd3 Cd 0.0000 0.78198(2) 0.7500
C9 C 0.2843(2) 0.3030(4) 0.9714(3)
H9 H 0.3074 0.3384 0.9509
O4 O 0.00613(14) 0.1576(3) 0.8316(2)
N6 N 0.05943(12) 0.3324(2) 0.87505(15)
H19 H 0.0976 0.3640 0.9044
C21 C 0.00573(14) 0.4106(3) 0.83938(15)
C22 C 0.01898(14) 0.5327(3) 0.83707(15)
H20 H 0.0631 0.5570 0.8615
C26 C 0.1211(2) 0.1433(4) 0.9004(4)
H24 H 0.1170 0.0753 0.9272
H25 H 0.1235 0.1102 0.8586
C27 C 0.1873(2) 0.2009(3) 0.9518(3)
C28 C 0.2224(3) 0.2555(5) 0.9248(3)
H26 H 0.2043 0.2611 0.8734
C30 C 0.0570(2) 0.2122(3) 0.8678(3)
O3 O 0.66009(10) 0.9988(2) 0.98296(12)
C19 C 0.45708(15) 0.9035(3) 0.97732(19)
H18 H 0.4284 0.8380 0.9618
N7 N 0.10377(13) 0.8072(2) 0.85706(16)
N8 N 0.26173(12) 0.9375(3) 0.90165(14)
H28 H 0.2535 0.9302 0.8565
C31 C 0.21314(13) 0.8923(3) 0.91575(16)
C32 C 0.15544(14) 0.8518(3) 0.85372(16)
H29 H 0.1524 0.8557 0.8073
C33 C 0.10948(17) 0.7997(3) 0.9245(2)
H30 H 0.0745 0.7675 0.9281
C34 C 0.16534(15) 0.8379(3) 0.98871(17)
C35 C 0.21838(14) 0.8855(3) 0.98482(16)
C40 C 0.32030(13) 0.9915(3) 0.95037(17)
O2 O 0.03339(14) 0.9235(3) 0.6943(2)
H37 H 0.0810792 0.91162 0.711529
H39 H 0.0824831 0.922555 0.718832
C19_2 C 0.04292(15) 0.4035(3) 0.52268(19)
H18_2 H 0.0716 0.3380 0.5382
N7_2 N 0.39623(13) 0.3072(2) 0.64294(16)
N8_2 N 0.23827(12) 0.4375(3) 0.59835(14)
H28_2 H 0.2465 0.4302 0.6435
C31_2 C 0.28686(13) 0.3923(3) 0.58425(16)
C32_2 C 0.34456(14) 0.3518(3) 0.64628(16)
H29_2 H 0.3476 0.3557 0.6927
C33_2 C 0.39052(17) 0.2997(3) 0.5755(2)
H30_2 H 0.4255 0.2675 0.5719
C34_2 C 0.33466(15) 0.3379(3) 0.51129(17)
H31 H 0.3325 0.3319 0.4654
C35_2 C 0.28162(14) 0.3855(3) 0.51518(16)
H32 H 0.2436 0.4121 0.4724
O5 O 0.16009(10) 0.5012(2) 0.48296(12)
C36 C 0.14254(16) 0.5409(4) 0.5858(2)
H33 H 0.1508 0.6268 0.5935
H34 H 0.1597 0.5036 0.6344
C37 C 0.06878(14) 0.5200(3) 0.54051(17)
C38 C 0.02529(16) 0.6159(3) 0.51803(19)
H35 H 0.0416 0.6941 0.5302
C40_2 C 0.17970(13) 0.4915(3) 0.54963(17)
Cd2 Cd 0.5000 0.28198(2) 0.7500
C19_3 C 0.95708(15) 0.4035(3) 0.97732(19)
H18_3 H 0.9284 0.3380 0.9618
N7_3 N 0.60377(13) 0.3072(2) 0.85706(16)
N8_3 N 0.76173(12) 0.4375(3) 0.90165(14)
H28_3 H 0.7535 0.4302 0.8565
C31_3 C 0.71314(13) 0.3923(3) 0.91575(16)
C32_3 C 0.65544(14) 0.3518(3) 0.85372(16)
H29_3 H 0.6524 0.3557 0.8073
C33_3 C 0.60948(17) 0.2997(3) 0.9245(2)
H30_3 H 0.5745 0.2675 0.9281
C34_3 C 0.66534(15) 0.3379(3) 0.98871(17)
C35_3 C 0.71838(14) 0.3855(3) 0.98482(16)
C36_2 C 0.85746(16) 0.5409(4) 0.9142(2)
H33_2 H 0.8492 0.6268 0.9065
H34_2 H 0.8403 0.5036 0.8656
C37_2 C 0.93122(14) 0.5200(3) 0.95949(17)
C38_2 C 0.97471(16) 0.6159(3) 0.98197(19)
H35_2 H 0.9584 0.6941 0.9698
C40_3 C 0.82030(13) 0.4915(3) 0.95037(17)
N5_2 N 0.52732(12) 0.1165(2) 0.69771(14)
C22_2 C 0.48102(14) 0.0327(3) 0.66293(15)
H20_2 H 0.4369 0.0570 0.6385
C23_2 C 0.59125(15) 0.0811(3) 0.73178(17)
H21_2 H 0.6244 0.1386 0.7560
N5_3 N 0.47268(12) 0.1165(2) 0.80229(14)
C22_3 C 0.51898(14) 0.0327(3) 0.83707(15)
H20_3 H 0.5631 0.0570 0.8615
C23_3 C 0.40875(15) 0.0811(3) 0.76822(17)
H21_3 H 0.3756 0.1386 0.7440
O2_2 O 0.53339(14) 0.4235(3) 0.6943(2)
O6 O 0.46661(14) 0.4235(3) 0.8057(2)
O1 O 0.50613(14) 0.3424(3) 0.3316(2)
N2 N 0.55943(12) 0.1676(2) 0.37505(15)
H1 H 0.5976 0.1360 0.4044
C1 C 0.50573(14) 0.0894(3) 0.33938(15)
C4 C 0.39091(14) 0.0360(3) 0.26802(17)
H4 H 0.3463 0.0569 0.2440
C5 C 0.43911(14) 0.1242(3) 0.30357(18)
H5 H 0.4274 0.2043 0.3035
C6 C 0.6211(2) 0.3567(4) 0.4004(4)
H6 H 0.6170 0.4247 0.4272
H7 H 0.6235 0.3898 0.3586
C7 C 0.6873(2) 0.2991(3) 0.4518(3)
C8 C 0.7224(3) 0.2445(5) 0.4248(3)
H8 H 0.7043 0.2389 0.3734
C9_2 C 0.7157(2) 0.3030(4) 0.5286(3)
H9_2 H 0.6926 0.3384 0.5491
C10 C 0.5570(2) 0.2878(3) 0.3678(3)
O4_2 O 0.99387(14) 0.1576(3) 0.6684(2)
N6_2 N 0.94057(12) 0.3324(2) 0.62495(15)
H19_2 H 0.9024 0.3640 0.5956
C21_2 C 0.99427(14) 0.4106(3) 0.66062(15)
C22_4 C 0.98102(14) 0.5327(3) 0.66293(15)
H20_4 H 0.9369 0.5570 0.6385
C26_2 C 0.8789(2) 0.1433(4) 0.5996(4)
H24_2 H 0.8830 0.0753 0.5728
H25_2 H 0.8765 0.1102 0.6414
C27_2 C 0.8127(2) 0.2009(3) 0.5482(3)
C28_2 C 0.7776(3) 0.2555(5) 0.5752(3)
H26_2 H 0.7957 0.2611 0.6266
C29 C 0.7843(2) 0.1970(4) 0.4714(3)
H27 H 0.8074 0.1616 0.4509
C30_2 C 0.9430(2) 0.2122(3) 0.6322(3)
Cd3_2 Cd 1.0000 0.78198(2) 0.7500
N5_4 N 0.97268(12) 0.6165(2) 0.80229(14)
C23_4 C 0.90875(15) 0.5811(3) 0.76822(17)
H21_4 H 0.8756 0.6386 0.7440
C24_2 C 0.89091(14) 0.4640(3) 0.76802(17)
H22_2 H 0.8463 0.4431 0.7440
C25_2 C 0.93911(14) 0.3758(3) 0.80357(18)
H23_2 H 0.9274 0.2957 0.8035
O3_2 O 0.33991(10) 0.9988(2) 0.51704(12)
C16 C 0.35746(16) 0.9591(4) 0.4142(2)
H15 H 0.3492 0.8732 0.4065
H16 H 0.3403 0.9964 0.3656
C17 C 0.43122(14) 0.9800(3) 0.45949(17)
C18 C 0.47471(16) 0.8841(3) 0.48197(19)
H17 H 0.4584 0.8059 0.4698
C19_4 C 0.54292(15) 0.9035(3) 0.52268(19)
H18_4 H 0.5716 0.8380 0.5382
N7_4 N 0.89623(13) 0.8072(2) 0.64294(16)
N8_4 N 0.73827(12) 0.9375(3) 0.59835(14)
H28_4 H 0.7465 0.9302 0.6435
C31_4 C 0.78686(13) 0.8923(3) 0.58425(16)
C32_4 C 0.84456(14) 0.8518(3) 0.64628(16)
H29_4 H 0.8476 0.8557 0.6927
C33_4 C 0.89052(17) 0.7997(3) 0.5755(2)
H30_4 H 0.9255 0.7675 0.5719
C34_4 C 0.83466(15) 0.8379(3) 0.51129(17)
H31_2 H 0.8325 0.8319 0.4654
C35_4 C 0.78162(14) 0.8855(3) 0.51518(16)
H32_2 H 0.7436 0.9121 0.4724
C40_4 C 0.67970(13) 0.9915(3) 0.54963(17)
H40 H 0.0184668 0.995291 0.199669
O6_2 O 0.96661(14) 0.9235(3) 0.8057(2)
H39_2 H 0.917517 0.922555 0.781168
H37_2 H 0.918921 0.91162 0.788471
Cd1 Cd 0.5000 0.71802(2) 0.2500
N1 N 0.47268(12) 0.8835(2) 0.30229(14)
C2 C 0.51898(14) 0.9673(3) 0.33707(15)
H2 H 0.5631 0.9430 0.3615
C3 C 0.40875(15) 0.9189(3) 0.26822(17)
H3 H 0.3756 0.8614 0.2440
O2_3 O 0.46661(14) 0.5765(3) 0.3057(2)
N3 N 0.60377(13) 0.6928(2) 0.35706(16)
N4 N 0.76173(12) 0.5625(3) 0.40165(14)
H10 H 0.7535 0.5698 0.3565
C11 C 0.71314(13) 0.6077(3) 0.41575(16)
C12 C 0.65544(14) 0.6482(3) 0.35372(16)
H11 H 0.6524 0.6443 0.3073
C13 C 0.60948(17) 0.7003(3) 0.4245(2)
H12 H 0.5745 0.7325 0.4281
C14 C 0.66534(15) 0.6621(3) 0.48871(17)
H13 H 0.6675 0.6681 0.5346
C15 C 0.71838(14) 0.6145(3) 0.48482(16)
H14 H 0.7564 0.5879 0.5276
O3_3 O 0.83991(10) 0.4988(2) 0.51704(12)
C16_2 C 0.85746(16) 0.4591(4) 0.4142(2)
H15_2 H 0.8492 0.3732 0.4065
H16_2 H 0.8403 0.4964 0.3656
C17_2 C 0.93122(14) 0.4800(3) 0.45949(17)
C18_2 C 0.97471(16) 0.3841(3) 0.48197(19)
H17_2 H 0.9584 0.3059 0.4698
C20 C 0.82030(13) 0.5085(3) 0.45037(17)
C39 C 0.95708(15) 0.5965(3) 0.47732(19)
H36 H 0.9284 0.6620 0.4618
O6_3 O 0.53339(14) 0.5765(3) 0.1943(2)
N9 N 0.52732(12) 0.8835(2) 0.19771(14)
N10 N 0.39623(13) 0.6928(2) 0.14294(16)
C2_2 C 0.48102(14) 0.9673(3) 0.16293(15)
H2_2 H 0.4369 0.9430 0.1385
C3_2 C 0.59125(15) 0.9189(3) 0.23178(17)
H3_2 H 0.6244 0.8614 0.2560
N4_2 N 0.23827(12) 0.5625(3) 0.09835(14)
H10_2 H 0.2465 0.5698 0.1435
C11_2 C 0.28686(13) 0.6077(3) 0.08425(16)
C12_2 C 0.34456(14) 0.6482(3) 0.14628(16)
H11_2 H 0.3476 0.6443 0.1927
C13_2 C 0.39052(17) 0.7003(3) 0.0755(2)
H12_2 H 0.4255 0.7325 0.0719
C14_2 C 0.33466(15) 0.6621(3) 0.01129(17)
C15_2 C 0.28162(14) 0.6145(3) 0.01518(16)
C16_3 C 0.14254(16) 0.4591(4) 0.0858(2)
H15_3 H 0.1508 0.3732 0.0935
H16_3 H 0.1597 0.4964 0.1344
C17_3 C 0.06878(14) 0.4800(3) 0.04051(17)
C18_3 C 0.02529(16) 0.3841(3) 0.01803(19)
H17_3 H 0.0416 0.3059 0.0302
C20_2 C 0.17970(13) 0.5085(3) 0.04963(17)
C39_2 C 0.04292(15) 0.5965(3) 0.02268(19)
H36_2 H 0.0716 0.6620 0.0382
O1_2 O 0.49387(14) 0.3424(3) 0.1684(2)
N2_2 N 0.44057(12) 0.1676(2) 0.12495(15)
H1_2 H 0.4024 0.1360 0.0956
C1_2 C 0.49427(14) 0.0894(3) 0.16062(15)
C4_2 C 0.60909(14) 0.0360(3) 0.23198(17)
H4_2 H 0.6537 0.0569 0.2560
C5_2 C 0.56089(14) 0.1242(3) 0.19643(18)
H5_2 H 0.5726 0.2043 0.1965
C6_2 C 0.3789(2) 0.3567(4) 0.0996(4)
H6_2 H 0.3830 0.4247 0.0728
H7_2 H 0.3765 0.3898 0.1414
C7_2 C 0.3127(2) 0.2991(3) 0.0482(3)
C8_2 C 0.2776(3) 0.2445(5) 0.0752(3)
H8_2 H 0.2957 0.2389 0.1266
C10_2 C 0.4430(2) 0.2878(3) 0.1322(3)
C29_2 C 0.2157(2) 0.1970(4) 0.0286(3)
H27_2 H 0.1926 0.1616 0.0491
C16_4 C 0.64254(16) 0.9591(4) 0.0858(2)
H15_4 H 0.6508 0.8732 0.0935
H16_4 H 0.6597 0.9964 0.1344
C17_4 C 0.56878(14) 0.9800(3) 0.04051(17)
C18_4 C 0.52529(16) 0.8841(3) 0.01803(19)
H17_4 H 0.5416 0.8059 0.0302
H31_3 H 0.1675 0.8319 0.0346
H32_3 H 0.2564 0.9121 0.0276
H40_2 H 0.981533 0.995291 0.300331
H13_2 H 0.3325 0.6681 0.9654
H14_2 H 0.2436 0.5879 0.9724
O3_4 O 0.16009(10) 0.4988(2) 0.98296(12)
H31_4 H 0.6675 0.3319 0.0346
H32_4 H 0.7564 0.4121 0.0276
O5_2 O 0.83991(10) 0.5012(2) 0.01704(12)
Cd1_2 Cd -0.0000 0.21802(2) 0.2500
O1_3 O 0.00613(14) 0.8424(3) 0.3316(2)
N2_3 N 0.05943(12) 0.6676(2) 0.37505(15)
H1_3 H 0.0976 0.6360 0.4044
C1_3 C 0.00573(14) 0.5894(3) 0.33938(15)
C2_3 C 0.01898(14) 0.4673(3) 0.33707(15)
H2_3 H 0.0631 0.4430 0.3615
C6_3 C 0.1211(2) 0.8567(4) 0.4004(4)
H6_3 H 0.1170 0.9247 0.4272
H7_3 H 0.1235 0.8898 0.3586
C7_3 C 0.1873(2) 0.7991(3) 0.4518(3)
C8_3 C 0.2224(3) 0.7445(5) 0.4248(3)
H8_3 H 0.2043 0.7389 0.3734
C9_3 C 0.2157(2) 0.8030(4) 0.5286(3)
H9_3 H 0.1926 0.8384 0.5491
C10_3 C 0.0570(2) 0.7878(3) 0.3678(3)
N3_2 N 0.10377(13) 0.1928(2) 0.35706(16)
N4_3 N 0.26173(12) 0.0625(3) 0.40165(14)
H10_3 H 0.2535 0.0698 0.3565
C11_3 C 0.21314(13) 0.1077(3) 0.41575(16)
C12_3 C 0.15544(14) 0.1482(3) 0.35372(16)
H11_3 H 0.1524 0.1443 0.3073
C13_3 C 0.10948(17) 0.2003(3) 0.4245(2)
H12_3 H 0.0745 0.2325 0.4281
C14_3 C 0.16534(15) 0.1621(3) 0.48871(17)
H13_3 H 0.1675 0.1681 0.5346
C15_3 C 0.21838(14) 0.1145(3) 0.48482(16)
H14_3 H 0.2564 0.0879 0.5276
C20_3 C 0.32030(13) 0.0085(3) 0.45037(17)
O4_3 O 0.49387(14) 0.6576(3) 0.6684(2)
N6_3 N 0.44057(12) 0.8324(2) 0.62495(15)
H19_3 H 0.4024 0.8640 0.5956
C21_3 C 0.49427(14) 0.9106(3) 0.66062(15)
C24_3 C 0.60909(14) 0.9640(3) 0.73198(17)
H22_3 H 0.6537 0.9431 0.7560
C25_3 C 0.56089(14) 0.8758(3) 0.69643(18)
H23_3 H 0.5726 0.7957 0.6965
C26_3 C 0.3789(2) 0.6433(4) 0.5996(4)
H24_3 H 0.3830 0.5753 0.5728
H25_3 H 0.3765 0.6102 0.6414
C27_3 C 0.3127(2) 0.7009(3) 0.5482(3)
C28_3 C 0.2776(3) 0.7555(5) 0.5752(3)
H26_3 H 0.2957 0.7611 0.6266
C29_3 C 0.2843(2) 0.6970(4) 0.4714(3)
H27_3 H 0.3074 0.6616 0.4509
C30_3 C 0.4430(2) 0.7122(3) 0.6322(3)
O5_3 O 0.66009(10) 0.0012(2) 0.48296(12)
C36_3 C 0.64254(16) 0.0409(4) 0.5858(2)
H33_3 H 0.6508 0.1268 0.5935
H34_3 H 0.6597 0.0036 0.6344
C37_3 C 0.56878(14) 0.0200(3) 0.54051(17)
C38_3 C 0.52529(16) 0.1159(3) 0.51803(19)
H35_3 H 0.5416 0.1941 0.5302
C39_3 C 0.45708(15) 0.0965(3) 0.47732(19)
H36_3 H 0.4284 0.1620 0.4618
O6_4 O 0.03339(14) 0.0765(3) 0.1943(2)
N9_2 N 0.02732(12) 0.3835(2) 0.19771(14)
H39_3 H 0.0824831 0.0774452 0.218832
C3_3 C 0.09125(15) 0.4189(3) 0.23178(17)
H3_3 H 0.1244 0.3614 0.2560
C4_3 C 0.10909(14) 0.5360(3) 0.23198(17)
H4_3 H 0.1537 0.5569 0.2560
C5_3 C 0.06089(14) 0.6242(3) 0.19643(18)
H5_3 H 0.0726 0.7043 0.1965
H37_3 H 0.0810792 0.0883795 0.211529
H40_3 H 0.981533 0.00470901 0.800331
Cd1_3 Cd 1.0000 0.21802(2) 0.2500
N1_2 N 0.97268(12) 0.3835(2) 0.30229(14)
C3_4 C 0.90875(15) 0.4189(3) 0.26822(17)
H3_4 H 0.8756 0.3614 0.2440
C4_4 C 0.89091(14) 0.5360(3) 0.26802(17)
H4_4 H 0.8463 0.5569 0.2440
C5_4 C 0.93911(14) 0.6242(3) 0.30357(18)
H5_4 H 0.9274 0.7043 0.3035
O2_4 O 0.96661(14) 0.0765(3) 0.3057(2)
N10_2 N 0.89623(13) 0.1928(2) 0.14294(16)
H37_4 H 0.918921 0.0883795 0.288471
O1_4 O 0.99387(14) 0.8424(3) 0.1684(2)
N2_4 N 0.94057(12) 0.6676(2) 0.12495(15)
H1_4 H 0.9024 0.6360 0.0956
C1_4 C 0.99427(14) 0.5894(3) 0.16062(15)
C2_4 C 0.98102(14) 0.4673(3) 0.16293(15)
H2_4 H 0.9369 0.4430 0.1385
C6_4 C 0.8789(2) 0.8567(4) 0.0996(4)
H6_4 H 0.8830 0.9247 0.0728
H7_4 H 0.8765 0.8898 0.1414
C7_4 C 0.8127(2) 0.7991(3) 0.0482(3)
C8_4 C 0.7776(3) 0.7445(5) 0.0752(3)
H8_4 H 0.7957 0.7389 0.1266
C10_4 C 0.9430(2) 0.7878(3) 0.1322(3)
N4_4 N 0.73827(12) 0.0625(3) 0.09835(14)
H10_4 H 0.7465 0.0698 0.1435
C11_4 C 0.78686(13) 0.1077(3) 0.08425(16)
C12_4 C 0.84456(14) 0.1482(3) 0.14628(16)
H11_4 H 0.8476 0.1443 0.1927
C13_4 C 0.89052(17) 0.2003(3) 0.0755(2)
H12_4 H 0.9255 0.2325 0.0719
C14_4 C 0.83466(15) 0.1621(3) 0.01129(17)
C15_4 C 0.78162(14) 0.1145(3) 0.01518(16)
C20_4 C 0.67970(13) 0.0085(3) 0.04963(17)
C29_4 C 0.7157(2) 0.6970(4) 0.0286(3)
H27_4 H 0.6926 0.6616 0.0491
O5_4 O 0.33991(10) 0.0012(2) 0.01704(12)
C39_4 C 0.54292(15) 0.0965(3) 0.02268(19)
H36_4 H 0.5716 0.1620 0.0382
H39_4 H 0.917517 0.0774452 0.281168
H38 H 0.973386 0.994383 0.291751
H38_2 H 0.0266144 0.994383 0.208249
C9_4 C 0.7843(2) 0.8030(4) 0.9714(3)
H9_4 H 0.8074 0.8384 0.9509
H13_4 H 0.8325 0.1681 0.9654
H14_4 H 0.7436 0.0879 0.9724
O4_4 O 0.50613(14) 0.6576(3) 0.8316(2)
N6_4 N 0.55943(12) 0.8324(2) 0.87505(15)
H19_4 H 0.5976 0.8640 0.9044
C21_4 C 0.50573(14) 0.9106(3) 0.83938(15)
C24_4 C 0.39091(14) 0.9640(3) 0.76802(17)
H22_4 H 0.3463 0.9431 0.7440
C25_4 C 0.43911(14) 0.8758(3) 0.80357(18)
H23_4 H 0.4274 0.7957 0.8035
C26_4 C 0.6211(2) 0.6433(4) 0.9004(4)
H24_4 H 0.6170 0.5753 0.9272
H25_4 H 0.6235 0.6102 0.8586
C27_4 C 0.6873(2) 0.7009(3) 0.9518(3)
C28_4 C 0.7224(3) 0.7555(5) 0.9248(3)
H26_4 H 0.7043 0.7611 0.8734
C30_4 C 0.5570(2) 0.7122(3) 0.8678(3)
C36_4 C 0.35746(16) 0.0409(4) 0.9142(2)
H33_4 H 0.3492 0.1268 0.9065
H34_4 H 0.3403 0.0036 0.8656
C37_4 C 0.43122(14) 0.0200(3) 0.95949(17)
C38_4 C 0.47471(16) 0.1159(3) 0.98197(19)
H35_4 H 0.4584 0.1941 0.9698
H40_4 H 0.0184668 0.00470901 0.699669
H38_3 H 0.0266144 0.00561724 0.708249
H38_4 H 0.973386 0.00561724 0.791751
Cl1 Cl 0.78559(6) 0.83573(15) 0.28981(6)
O7 O 0.8441(3) 0.7927(8) 0.3485(3)
O8 O 0.7546(4) 0.8974(10) 0.3191(4)
O9 O 0.7933(4) 0.8879(10) 0.2402(3)
O10 O 0.7408(12) 0.7434(12) 0.2573(12)
Cl1_2 Cl 0.21441(6) 0.83573(15) 0.21019(6)
O7_2 O 0.1559(3) 0.7927(8) 0.1515(3)
O8_2 O 0.2454(4) 0.8974(10) 0.1809(4)
O9_2 O 0.2067(4) 0.8879(10) 0.2598(3)
O10_2 O 0.2592(12) 0.7434(12) 0.2427(12)
Cl1_3 Cl 0.28559(6) 0.33573(15) 0.28981(6)
O7_3 O 0.3441(3) 0.2927(8) 0.3485(3)
O8_3 O 0.2546(4) 0.3974(10) 0.3191(4)
O9_3 O 0.2933(4) 0.3879(10) 0.2402(3)
O10_3 O 0.2408(12) 0.2434(12) 0.2573(12)
Cl1_4 Cl 0.71441(6) 0.33573(15) 0.21019(6)
O7_4 O 0.6559(3) 0.2927(8) 0.1515(3)
O8_4 O 0.7454(4) 0.3974(10) 0.1809(4)
O9_4 O 0.7067(4) 0.3879(10) 0.2598(3)
O10_4 O 0.7592(12) 0.2434(12) 0.2427(12)
Cl1_5 Cl 0.21441(6) 0.16427(15) 0.71019(6)
O7_5 O 0.1559(3) 0.2073(8) 0.6515(3)
O8_5 O 0.2454(4) 0.1026(10) 0.6809(4)
O9_5 O 0.2067(4) 0.1121(10) 0.7598(3)
O10_5 O 0.2592(12) 0.2566(12) 0.7427(12)
Cl1_6 Cl 0.78559(6) 0.16427(15) 0.78981(6)
O7_6 O 0.8441(3) 0.2073(8) 0.8485(3)
O8_6 O 0.7546(4) 0.1026(10) 0.8191(4)
O9_6 O 0.7933(4) 0.1121(10) 0.7402(3)
O10_6 O 0.7408(12) 0.2566(12) 0.7573(12)
Cl1_7 Cl 0.71441(6) 0.66427(15) 0.71019(6)
O7_7 O 0.6559(3) 0.7073(8) 0.6515(3)
O8_7 O 0.7454(4) 0.6026(10) 0.6809(4)
O9_7 O 0.7067(4) 0.6121(10) 0.7598(3)
O10_7 O 0.7592(12) 0.7566(12) 0.7427(12)
Cl1_8 Cl 0.28559(6) 0.66427(15) 0.78981(6)
O7_8 O 0.3441(3) 0.7073(8) 0.8485(3)
O8_8 O 0.2546(4) 0.6026(10) 0.8191(4)
O9_8 O 0.2933(4) 0.6121(10) 0.7402(3)
O10_8 O 0.2408(12) 0.7566(12) 0.7573(12)
loop_
_geom_bond_atom_site_label_1
_geom_bond_atom_site_label_2
_geom_bond_site_symmetry_1
_geom_bond_site_symmetry_2
C23 N5 1_555 1_555
H21 C23 1_555 1_555
C24 C23 1_555 1_555
H22 C24 1_555 1_555
H23 C25 1_555 1_555
Cd3 N5 1_555 1_555
C24 C25 1_555 1_555
H9 C9 1_555 1_555
O4 C30 1_555 1_555
N6 H19 1_555 1_555
C21 N6 1_555 1_555
C22 C21 1_555 1_555
H20 C22 1_555 1_555
C26 H24 1_555 1_555
H25 C26 1_555 1_555
C27 C26 1_555 1_555
C28 C9 1_555 1_555
H26 C28 1_555 1_555
C30 N6 1_555 1_555
C26 C30 1_555 1_555
C27 C28 1_555 1_555
H18 C19 1_555 1_555
N7 C32 1_555 1_555
N8 H28 1_555 1_555
C31 N8 1_555 1_555
C32 C31 1_555 1_555
H29 C32 1_555 1_555
C33 N7 1_555 1_555
H30 C33 1_555 1_555
C34 C33 1_555 1_555
C35 C31 1_555 1_555
C40 N8 1_555 1_555
Cd3 N7 1_555 1_555
C34 C35 1_555 1_555
O2 Cd3 1_555 1_555
O2 H37 1_555 1_555
O2 H39 1_555 1_555
H18_2 C19_2 1_555 1_555
N7_2 C32_2 1_555 1_555
N8_2 H28_2 1_555 1_555
C31_2 N8_2 1_555 1_555
C32_2 C31_2 1_555 1_555
H29_2 C32_2 1_555 1_555
C33_2 N7_2 1_555 1_555
H30_2 C33_2 1_555 1_555
C34_2 C33_2 1_555 1_555
H31 C34_2 1_555 1_555
C35_2 C31_2 1_555 1_555
H32 C35_2 1_555 1_555
O5 C40_2 1_555 1_555
C36 H33 1_555 1_555
H34 C36 1_555 1_555
C37 C19_2 1_555 1_555
C38 C37 1_555 1_555
H35 C38 1_555 1_555
C40_2 N8_2 1_555 1_555
Cd2 N7_2 1_555 1_555
C34_2 C35_2 1_555 1_555
C36 C37 1_555 1_555
C36 C40_2 1_555 1_555
H18_3 C19_3 1_555 1_555
N7_3 C32_3 1_555 1_555
N8_3 H28_3 1_555 1_555
C31_3 N8_3 1_555 1_555
C32_3 C31_3 1_555 1_555
H29_3 C32_3 1_555 1_555
C33_3 N7_3 1_555 1_555
H30_3 C33_3 1_555 1_555
C34_3 C33_3 1_555 1_555
C35_3 C31_3 1_555 1_555
C36_2 H33_2 1_555 1_555
H34_2 C36_2 1_555 1_555
C37_2 C19_3 1_555 1_555
C38_2 C37_2 1_555 1_555
H35_2 C38_2 1_555 1_555
C40_3 N8_3 1_555 1_555
Cd2 N7_3 1_555 1_555
C34_3 C35_3 1_555 1_555
C36_2 C37_2 1_555 1_555
C36_2 C40_3 1_555 1_555
N5_2 C22_2 1_555 1_555
H20_2 C22_2 1_555 1_555
C23_2 N5_2 1_555 1_555
H21_2 C23_2 1_555 1_555
Cd2 N5_2 1_555 1_555
N5_3 C22_3 1_555 1_555
H20_3 C22_3 1_555 1_555
C23_3 N5_3 1_555 1_555
H21_3 C23_3 1_555 1_555
Cd2 N5_3 1_555 1_555
O2_2 Cd2 1_555 1_555
O6 Cd2 1_555 1_555
O1 C10 1_555 1_555
N2 H1 1_555 1_555
C1 N2 1_555 1_555
H4 C4 1_555 1_555
C5 C1 1_555 1_555
H5 C5 1_555 1_555
C6 H6 1_555 1_555
H7 C6 1_555 1_555
C7 C6 1_555 1_555
C8 C7 1_555 1_555
H8 C8 1_555 1_555
C9_2 C7 1_555 1_555
H9_2 C9_2 1_555 1_555
C10 N2 1_555 1_555
O4_2 C30_2 1_555 1_555
N6_2 H19_2 1_555 1_555
C21_2 N6_2 1_555 1_555
C22_4 C21_2 1_555 1_555
H20_4 C22_4 1_555 1_555
C26_2 H24_2 1_555 1_555
H25_2 C26_2 1_555 1_555
C27_2 C26_2 1_555 1_555
C28_2 C9_2 1_555 1_555
H26_2 C28_2 1_555 1_555
C29 C8 1_555 1_555
H27 C29 1_555 1_555
C30_2 N6_2 1_555 1_555
C4 C5 1_555 1_555
C6 C10 1_555 1_555
C26_2 C30_2 1_555 1_555
C27_2 C28_2 1_555 1_555
C27_2 C29 1_555 1_555
C23_4 N5_4 1_555 1_555
H21_4 C23_4 1_555 1_555
C24_2 C23_4 1_555 1_555
H22_2 C24_2 1_555 1_555
H23_2 C25_2 1_555 1_555
Cd3_2 N5_4 1_555 1_555
C24_2 C25_2 1_555 1_555
C16 H15 1_555 1_555
H16 C16 1_555 1_555
C17 C16 1_555 1_555
C18 C17 1_555 1_555
H17 C18 1_555 1_555
C19_4 C18 1_555 1_555
H18_4 C19_4 1_555 1_555
N7_4 C32_4 1_555 1_555
N8_4 H28_4 1_555 1_555
C31_4 N8_4 1_555 1_555
C32_4 C31_4 1_555 1_555
H29_4 C32_4 1_555 1_555
C33_4 N7_4 1_555 1_555
H30_4 C33_4 1_555 1_555
C34_4 C33_4 1_555 1_555
H31_2 C34_4 1_555 1_555
C35_4 C31_4 1_555 1_555
H32_2 C35_4 1_555 1_555
C40_4 N8_4 1_555 1_555
Cd3_2 N7_4 1_555 1_555
C34_4 C35_4 1_555 1_555
O6_2 Cd3_2 1_555 1_555
O6_2 H39_2 1_555 1_555
O6_2 H37_2 1_555 1_555
Cd1 N1 1_555 1_555
N1 C2 1_555 1_555
H2 C2 1_555 1_555
C3 N1 1_555 1_555
H3 C3 1_555 1_555
O2_3 Cd1 1_555 1_555
N3 Cd1 1_555 1_555
N4 H10 1_555 1_555
C11 N4 1_555 1_555
C12 N3 1_555 1_555
H11 C12 1_555 1_555
C13 N3 1_555 1_555
H12 C13 1_555 1_555
C14 C13 1_555 1_555
H13 C14 1_555 1_555
C15 C11 1_555 1_555
H14 C15 1_555 1_555
O3_3 C20 1_555 1_555
C16_2 H15_2 1_555 1_555
H16_2 C16_2 1_555 1_555
C17_2 C16_2 1_555 1_555
C18_2 C17_2 1_555 1_555
H17_2 C18_2 1_555 1_555
C20 N4 1_555 1_555
C39 C17_2 1_555 1_555
H36 C39 1_555 1_555
O6_3 Cd1 1_555 1_555
N9 Cd1 1_555 1_555
N10 Cd1 1_555 1_555
C11 C12 1_555 1_555
C14 C15 1_555 1_555
C16_2 C20 1_555 1_555
N9 C2_2 1_555 1_555
H2_2 C2_2 1_555 1_555
C3_2 N9 1_555 1_555
H3_2 C3_2 1_555 1_555
N4_2 H10_2 1_555 1_555
C11_2 N4_2 1_555 1_555
C12_2 N10 1_555 1_555
H11_2 C12_2 1_555 1_555
C13_2 N10 1_555 1_555
H12_2 C13_2 1_555 1_555
C14_2 C13_2 1_555 1_555
C15_2 C11_2 1_555 1_555
C16_3 H15_3 1_555 1_555
H16_3 C16_3 1_555 1_555
C17_3 C16_3 1_555 1_555
C18_3 C17_3 1_555 1_555
H17_3 C18_3 1_555 1_555
C20_2 N4_2 1_555 1_555
C39_2 C17_3 1_555 1_555
H36_2 C39_2 1_555 1_555
C11_2 C12_2 1_555 1_555
C14_2 C15_2 1_555 1_555
C16_3 C20_2 1_555 1_555
O1_2 C10_2 1_555 1_555
N2_2 H1_2 1_555 1_555
C1_2 N2_2 1_555 1_555
H4_2 C4_2 1_555 1_555
C5_2 C1_2 1_555 1_555
H5_2 C5_2 1_555 1_555
C6_2 H6_2 1_555 1_555
H7_2 C6_2 1_555 1_555
C7_2 C6_2 1_555 1_555
C8_2 C7_2 1_555 1_555
H8_2 C8_2 1_555 1_555
C10_2 N2_2 1_555 1_555
C29_2 C8_2 1_555 1_555
H27_2 C29_2 1_555 1_555
C4_2 C5_2 1_555 1_555
C6_2 C10_2 1_555 1_555
C16_4 H15_4 1_555 1_555
H16_4 C16_4 1_555 1_555
C17_4 C16_4 1_555 1_555
C18_4 C17_4 1_555 1_555
H17_4 C18_4 1_555 1_555
O1_3 C10_3 1_555 1_555
N2_3 H1_3 1_555 1_555
C1_3 N2_3 1_555 1_555
C2_3 C1_3 1_555 1_555
H2_3 C2_3 1_555 1_555
C6_3 H6_3 1_555 1_555
H7_3 C6_3 1_555 1_555
C7_3 C6_3 1_555 1_555
C8_3 C7_3 1_555 1_555
H8_3 C8_3 1_555 1_555
C9_3 C7_3 1_555 1_555
H9_3 C9_3 1_555 1_555
C10_3 N2_3 1_555 1_555
N3_2 Cd1_2 1_555 1_555
N4_3 H10_3 1_555 1_555
C11_3 N4_3 1_555 1_555
C12_3 N3_2 1_555 1_555
H11_3 C12_3 1_555 1_555
C13_3 N3_2 1_555 1_555
H12_3 C13_3 1_555 1_555
C14_3 C13_3 1_555 1_555
H13_3 C14_3 1_555 1_555
C15_3 C11_3 1_555 1_555
H14_3 C15_3 1_555 1_555
C20_3 N4_3 1_555 1_555
O4_3 C30_3 1_555 1_555
N6_3 H19_3 1_555 1_555
C21_3 N6_3 1_555 1_555
H22_3 C24_3 1_555 1_555
C25_3 C21_3 1_555 1_555
H23_3 C25_3 1_555 1_555
C26_3 H24_3 1_555 1_555
H25_3 C26_3 1_555 1_555
C27_3 C26_3 1_555 1_555
C28_3 C9_3 1_555 1_555
H26_3 C28_3 1_555 1_555
C29_3 C8_3 1_555 1_555
H27_3 C29_3 1_555 1_555
C30_3 N6_3 1_555 1_555
C36_3 H33_3 1_555 1_555
H34_3 C36_3 1_555 1_555
C38_3 C37_3 1_555 1_555
H35_3 C38_3 1_555 1_555
H36_3 C39_3 1_555 1_555
O6_4 Cd1_2 1_555 1_555
N9_2 Cd1_2 1_555 1_555
C6_3 C10_3 1_555 1_555
C11_3 C12_3 1_555 1_555
C14_3 C15_3 1_555 1_555
C24_3 C25_3 1_555 1_555
C26_3 C30_3 1_555 1_555
C27_3 C28_3 1_555 1_555
C27_3 C29_3 1_555 1_555
C36_3 C37_3 1_555 1_555
C38_3 C39_3 1_555 1_555
O6_4 H39_3 1_555 1_555
C3_3 N9_2 1_555 1_555
H3_3 C3_3 1_555 1_555
C4_3 C3_3 1_555 1_555
H4_3 C4_3 1_555 1_555
H5_3 C5_3 1_555 1_555
C4_3 C5_3 1_555 1_555
O6_4 H37_3 1_555 1_555
Cd1_3 N1_2 1_555 1_555
C3_4 N1_2 1_555 1_555
H3_4 C3_4 1_555 1_555
C4_4 C3_4 1_555 1_555
H4_4 C4_4 1_555 1_555
H5_4 C5_4 1_555 1_555
O2_4 Cd1_3 1_555 1_555
N10_2 Cd1_3 1_555 1_555
C4_4 C5_4 1_555 1_555
O2_4 H37_4 1_555 1_555
O1_4 C10_4 1_555 1_555
N2_4 H1_4 1_555 1_555
C1_4 N2_4 1_555 1_555
C2_4 C1_4 1_555 1_555
H2_4 C2_4 1_555 1_555
C6_4 H6_4 1_555 1_555
H7_4 C6_4 1_555 1_555
C7_4 C6_4 1_555 1_555
C8_4 C7_4 1_555 1_555
H8_4 C8_4 1_555 1_555
C10_4 N2_4 1_555 1_555
N4_4 H10_4 1_555 1_555
C11_4 N4_4 1_555 1_555
C12_4 N10_2 1_555 1_555
H11_4 C12_4 1_555 1_555
C13_4 N10_2 1_555 1_555
H12_4 C13_4 1_555 1_555
C14_4 C13_4 1_555 1_555
C15_4 C11_4 1_555 1_555
C20_4 N4_4 1_555 1_555
C29_4 C8_4 1_555 1_555
H27_4 C29_4 1_555 1_555
H36_4 C39_4 1_555 1_555
C6_4 C10_4 1_555 1_555
C11_4 C12_4 1_555 1_555
C14_4 C15_4 1_555 1_555
O2_4 H39_4 1_555 1_555
H9_4 C9_4 1_555 1_555
O4_4 C30_4 1_555 1_555
N6_4 H19_4 1_555 1_555
C21_4 N6_4 1_555 1_555
H22_4 C24_4 1_555 1_555
C25_4 C21_4 1_555 1_555
H23_4 C25_4 1_555 1_555
C26_4 H24_4 1_555 1_555
H25_4 C26_4 1_555 1_555
C27_4 C26_4 1_555 1_555
C28_4 C9_4 1_555 1_555
H26_4 C28_4 1_555 1_555
C30_4 N6_4 1_555 1_555
C36_4 H33_4 1_555 1_555
H34_4 C36_4 1_555 1_555
C38_4 C37_4 1_555 1_555
H35_4 C38_4 1_555 1_555
C24_4 C25_4 1_555 1_555
C26_4 C30_4 1_555 1_555
C27_4 C28_4 1_555 1_555
C36_4 C37_4 1_555 1_555
Cl1 O7 1_555 1_555
O8 Cl1 1_555 1_555
O9 Cl1 1_555 1_555
O10 Cl1 1_555 1_555
Cl1_2 O7_2 1_555 1_555
O8_2 Cl1_2 1_555 1_555
O9_2 Cl1_2 1_555 1_555
O10_2 Cl1_2 1_555 1_555
Cl1_3 O7_3 1_555 1_555
O8_3 Cl1_3 1_555 1_555
O9_3 Cl1_3 1_555 1_555
O10_3 Cl1_3 1_555 1_555
Cl1_4 O7_4 1_555 1_555
O8_4 Cl1_4 1_555 1_555
O9_4 Cl1_4 1_555 1_555
O10_4 Cl1_4 1_555 1_555
Cl1_5 O7_5 1_555 1_555
O8_5 Cl1_5 1_555 1_555
O9_5 Cl1_5 1_555 1_555
O10_5 Cl1_5 1_555 1_555
Cl1_6 O7_6 1_555 1_555
O8_6 Cl1_6 1_555 1_555
O9_6 Cl1_6 1_555 1_555
O10_6 Cl1_6 1_555 1_555
Cl1_7 O7_7 1_555 1_555
O8_7 Cl1_7 1_555 1_555
O9_7 Cl1_7 1_555 1_555
O10_7 Cl1_7 1_555 1_555
Cl1_8 O7_8 1_555 1_555
O8_8 Cl1_8 1_555 1_555
O9_8 Cl1_8 1_555 1_555
O10_8 Cl1_8 1_555 1_555

#END
