
###############################################################################
#
# This file contains modified crystal structure data generated from the
# MOF subset of the Cambridge Structural Database (CSD) v543 
# hosted by the Cambridge Crystallographic Data Centre (CCDC).
#
# This work is licensed under the Creative Commons
# Attribution-NonCommercial-ShareAlike 4.0 International License.
# To view a copy of this license, visit
# http://creativecommons.org/licenses/by-nc-sa/4.0/
# or send a letter to
# Creative Commons, PO Box 1866, Mountain View, CA 94042, USA.
#
# CIF created using the CSD Python API on 29 September 2022
# The structure has been converted into the P1 space group
# The structure has a 3D framework
# The original CSD entry AKUKUO is in the triclinic crystal system
# The framework has been calculated to contain at least 10.0% void space
# The void calculation uses a probe of radius 1.32A, grid spacing 0.4
#
###############################################################################

data_AKUKUO
_chemical_formula_moiety         '(C34 H34 N8 Ni4 O14 P4)n'
_symmetry_cell_setting           triclinic
_symmetry_space_group_name_H-M   'P 1'
_symmetry_Int_Tables_number      1
_space_group_name_Hall           'P 1'
loop_
_symmetry_equiv_pos_site_id
_symmetry_equiv_pos_as_xyz
1 x,y,z
_cell_length_a                   8.8545(18)
_cell_length_b                   10.672(2)
_cell_length_c                   15.389(3)
_cell_angle_alpha                76.40(3)
_cell_angle_beta                 78.58(3)
_cell_angle_gamma                79.92(3)
_cell_volume                     1372.78
loop_
_atom_site_label
_atom_site_type_symbol
_atom_site_fract_x
_atom_site_fract_y
_atom_site_fract_z
Ni8 Ni 0.19226(9) 0.07474(7) 0.37308(5)
C30 C 0.0770(14) 0.2254(10) 0.0649(6)
C31 C 0.0796(16) 0.1010(13) 0.1095(7)
H31 H 0.0609 0.0407 0.0794
C32 C 0.1076(12) 0.0580(10) 0.1951(7)
C33 C 0.1559(16) 0.2580(11) 0.1982(7)
H33 H 0.1907 0.3142 0.2255
C34 C 0.1243(16) 0.3034(12) 0.1083(7)
H34 H 0.1365 0.3886 0.0789
N8 N 0.1383(7) 0.1412(6) 0.2438(4)
Ni1 Ni 0.0000 0.5000 0.5000
P2 P 0.03409(18) 0.81387(14) 0.47125(10)
O4 O 0.0910(5) 0.6712(4) 0.4736(3)
O5 O 0.0327(5) 0.8541(4) 0.5608(3)
O6 O 0.1172(5) 0.9003(4) 0.3911(3)
C9 C 0.0871(12) 0.6265(9) 0.2072(6)
H10 H 0.1622 0.6696 0.1654
C10 C 0.1005(10) 0.5906(8) 0.2974(5)
H11 H 0.1857 0.6104 0.3160
H13 H 0.0210 0.7843 0.0394
N7 N 0.0041(7) 0.4715(5) 0.6408(4)
C23 C 0.1204(10) 0.5047(8) 0.6693(5)
H25 H 0.1889 0.5551 0.6277
C24 C 0.1436(11) 0.4676(9) 0.7578(5)
H26 H 0.2310 0.4878 0.7738
C25 C 0.0427(11) 0.4030(9) 0.8212(5)
C28 C 0.0695(16) 0.3599(12) 0.9176(7)
H29 H 0.1208 0.4161 0.9355
C29 C 0.0386(18) 0.2685(13) 0.9758(7)
O15 O 0.2278(5) 0.4029(4) 0.4846(3)
H3 H 0.5492 0.0478 0.3948
H7 H 0.8285 0.0259 0.4727
C18 C 0.1757(7) 0.1487(6) 0.5440(4)
C19 C 0.1874(7) 0.1294(6) 0.6430(4)
H18 H 0.1308 0.0583 0.6767
H19 H 0.1360 0.2073 0.6642
N5 N 0.3463(6) 0.1013(5) 0.6644(3)
C20 C 0.4606(8) 0.0104(7) 0.6396(4)
N6 N 0.5880(6) 0.0136(5) 0.6698(4)
C21 C 0.5542(10) 0.1129(8) 0.7150(6)
H21 H 0.6230 0.1389 0.7436
C22 C 0.4045(8) 0.1683(8) 0.7118(5)
H22 H 0.3526 0.2382 0.7371
P3 P 0.28459(18) 0.27305(15) 0.46214(11)
O9 O 0.2731(5) 0.2500(4) 0.3706(3)
O10 O 0.4625(5) 0.2384(4) 0.4717(3)
H23 H 0.4723 0.2370 0.5238
O14 O 0.2346(5) 0.0288(4) 0.5120(3)
O18 O 0.8828(5) 0.0997(4) 0.6089(3)
Ni1_2 Ni 1.0000 0.5000 0.5000
Ni2 Ni 0.80774(9) 0.92526(7) 0.62692(5)
C1 C 0.8243(7) 0.8513(6) 0.4560(4)
C2 C 0.8126(7) 0.8706(6) 0.3570(4)
H1 H 0.8692 0.9417 0.3233
H2 H 0.8640 0.7927 0.3358
N1 N 0.6537(6) 0.8987(5) 0.3356(3)
C3 C 0.5394(8) 0.9896(7) 0.3604(4)
N2 N 0.4120(6) 0.9864(5) 0.3302(4)
C4 C 0.4458(10) 0.8871(8) 0.2850(6)
H4 H 0.3770 0.8611 0.2564
C5 C 0.5955(8) 0.8317(8) 0.2882(5)
H5 H 0.6474 0.7618 0.2629
P1 P 0.71541(18) 0.72695(15) 0.53786(11)
O1 O 0.7722(5) 0.5971(4) 0.5154(3)
O2 O 0.7269(5) 0.7500(4) 0.6294(3)
O3 O 0.5375(5) 0.7616(4) 0.5283(3)
H6 H 0.5277 0.7630 0.4762
O7 O 0.7654(5) 0.9712(4) 0.4880(3)
N3 N 0.9959(7) 0.5285(5) 0.3592(4)
C6 C 0.8796(10) 0.4953(8) 0.3307(5)
H8 H 0.8111 0.4449 0.3723
C7 C 0.8564(11) 0.5324(9) 0.2422(5)
H9 H 0.7690 0.5122 0.2262
C8 C 0.9573(11) 0.5970(9) 0.1788(5)
C11 C 0.9305(16) 0.6401(12) 0.0824(7)
H12 H 0.8792 0.5839 0.0645
C12 C 0.9614(18) 0.7315(13) 0.0242(7)
H20 H 0.4508 0.9522 0.6052
H24 H 0.1715 0.9741 0.5273
C26 C 0.9129(12) 0.3735(9) 0.7928(6)
H27 H 0.8378 0.3304 0.8346
C27 C 0.8995(10) 0.4094(8) 0.7026(5)
H28 H 0.8143 0.3896 0.6840
H30 H 0.9790 0.2157 0.9606
O16 O 0.9090(5) 0.3288(4) 0.5264(3)
N9 N 0.8617(7) 0.8588(6) 0.7562(4)
C13 C 0.9230(14) 0.7746(10) 0.9351(6)
C14 C 0.9204(16) 0.8990(13) 0.8905(7)
H14 H 0.9391 0.9593 0.9206
C15 C 0.8924(12) 0.9420(10) 0.8049(7)
C16 C 0.8441(16) 0.7420(11) 0.8018(7)
H16 H 0.8093 0.6858 0.7745
C17 C 0.8757(16) 0.6966(12) 0.8917(7)
H17 H 0.8635 0.6114 0.9211
P4 P 0.96591(18) 0.18613(14) 0.52875(10)
O12 O 0.9673(5) 0.1459(4) 0.4392(3)
H32 H 0.1062 0.9705 0.2220
H15 H 0.8938 0.0295 0.7780
loop_
_geom_bond_atom_site_label_1
_geom_bond_atom_site_label_2
_geom_bond_site_symmetry_1
_geom_bond_site_symmetry_2
C31 C30 1_555 1_555
H31 C31 1_555 1_555
C32 C31 1_555 1_555
C33 H33 1_555 1_555
C34 C30 1_555 1_555
H34 C34 1_555 1_555
N8 C32 1_555 1_555
Ni8 N8 1_555 1_555
C33 C34 1_555 1_555
C33 N8 1_555 1_555
O4 Ni1 1_555 1_555
O6 P2 1_555 1_555
H10 C9 1_555 1_555
H11 C10 1_555 1_555
N7 Ni1 1_555 1_555
C23 N7 1_555 1_555
H25 C23 1_555 1_555
C24 C23 1_555 1_555
H26 C24 1_555 1_555
C25 C24 1_555 1_555
C28 C25 1_555 1_555
H29 C28 1_555 1_555
C29 C28 1_555 1_555
O15 Ni1 1_555 1_555
P2 O4 1_555 1_555
P2 O5 1_555 1_555
C9 C10 1_555 1_555
C18 C19 1_555 1_555
C19 H18 1_555 1_555
H19 C19 1_555 1_555
N5 C19 1_555 1_555
C20 N5 1_555 1_555
C21 N6 1_555 1_555
H21 C21 1_555 1_555
C22 N5 1_555 1_555
H22 C22 1_555 1_555
P3 C18 1_555 1_555
O15 P3 1_555 1_555
O9 Ni8 1_555 1_555
O10 P3 1_555 1_555
H23 O10 1_555 1_555
O14 Ni8 1_555 1_555
C18 O14 1_555 1_555
C20 N6 1_555 1_555
C21 C22 1_555 1_555
P3 O9 1_555 1_555
Ni1_2 O1 1_555 1_555
Ni2 O2 1_555 1_555
C1 C2 1_555 1_555
C2 H1 1_555 1_555
H2 C2 1_555 1_555
N1 C2 1_555 1_555
C3 N1 1_555 1_555
N2 C3 1_555 1_555
C4 N2 1_555 1_555
H4 C4 1_555 1_555
C5 N1 1_555 1_555
H5 C5 1_555 1_555
P1 C1 1_555 1_555
O1 P1 1_555 1_555
O2 P1 1_555 1_555
O3 P1 1_555 1_555
H6 O3 1_555 1_555
O7 Ni2 1_555 1_555
N3 Ni1_2 1_555 1_555
C6 N3 1_555 1_555
H8 C6 1_555 1_555
C7 C6 1_555 1_555
H9 C7 1_555 1_555
C8 C7 1_555 1_555
C11 C8 1_555 1_555
H12 C11 1_555 1_555
C12 C11 1_555 1_555
H27 C26 1_555 1_555
H28 C27 1_555 1_555
O16 Ni1_2 1_555 1_555
N9 Ni2 1_555 1_555
C1 O7 1_555 1_555
C4 C5 1_555 1_555
C26 C27 1_555 1_555
C14 C13 1_555 1_555
H14 C14 1_555 1_555
C15 C14 1_555 1_555
C16 H16 1_555 1_555
C17 C13 1_555 1_555
H17 C17 1_555 1_555
N9 C15 1_555 1_555
C16 C17 1_555 1_555
C16 N9 1_555 1_555
O16 P4 1_555 1_555
O18 P4 1_555 1_555
P4 O12 1_555 1_555

#END
