
###############################################################################
#
# This file contains modified crystal structure data generated from the
# MOF subset of the Cambridge Structural Database (CSD) v543 
# hosted by the Cambridge Crystallographic Data Centre (CCDC).
#
# This work is licensed under the Creative Commons
# Attribution-NonCommercial-ShareAlike 4.0 International License.
# To view a copy of this license, visit
# http://creativecommons.org/licenses/by-nc-sa/4.0/
# or send a letter to
# Creative Commons, PO Box 1866, Mountain View, CA 94042, USA.
#
# CIF created using the CSD Python API on 29 September 2022
# The structure has been converted into the P1 space group
# The structure has a 3D framework
# The original CSD entry ALAHUS is in the tetragonal crystal system
# The framework has been calculated to contain at least 10.0% void space
# The void calculation uses a probe of radius 1.32A, grid spacing 0.4
# H atom positions have been added when not included in the experimental data
# Generated hydrogen atom positions removed from atoms on special positions
#
###############################################################################

data_ALAHUS
_chemical_formula_moiety         '(C354 H290 N16 O188 Tb34)n'
_symmetry_cell_setting           triclinic
_symmetry_space_group_name_H-M   'P 1'
_symmetry_Int_Tables_number      1
_space_group_name_Hall           'P 1'
loop_
_symmetry_equiv_pos_site_id
_symmetry_equiv_pos_as_xyz
1 x,y,z
_cell_length_a                   14.234(4)
_cell_length_b                   14.234(4)
_cell_length_c                   63.76(3)
_cell_angle_alpha                90
_cell_angle_beta                 90
_cell_angle_gamma                90
_cell_volume                     12918.2
loop_
_atom_site_label
_atom_site_type_symbol
_atom_site_fract_x
_atom_site_fract_y
_atom_site_fract_z
Tb1 Tb 0.5000 0.0000 0.459415(7)
O1 O 0.3691(4) 0.0391(4) 0.42818(9)
O2 O 0.5052(6) 0.1127(4) 0.43022(9)
O3 O 0.3238(5) 0.0072(6) 0.34779(9)
O4 O 0.3180(7) 0.1361(6) 0.32923(11)
O5 O 0.4059(5) 0.1283(5) 0.47003(11)
O6 O 0.2548(5) 0.0934(5) 0.46430(11)
O7 O 0.1116(6) 0.2190(6) 0.53200(12)
O8 O 0.0927(5) 0.3718(5) 0.53451(12)
O9 O 0.5000 -0.0000 0.49783(16)
O12 O 0.0752(6) 0.0107(13) 0.44945(19)
N1 N 0.5402(8) 0.3944(8) 0.44220(15)
C1 C 0.4291(7) 0.0991(6) 0.42146(13)
C2 C 0.4061(7) 0.1517(7) 0.40145(14)
C3 C 0.3811(7) 0.1038(7) 0.38384(14)
H1 H 0.3757 0.0387 0.3842
C4 C 0.3638(8) 0.1509(8) 0.36559(17)
C5 C 0.3329(9) 0.0923(9) 0.34593(18)
C6 C 0.3741(9) 0.2467(9) 0.36447(16)
H2 H 0.3671 0.2774 0.3517
C7 C 0.3944(9) 0.2960(9) 0.38191(17)
H3 H 0.3962 0.3613 0.3812
C8 C 0.4129(8) 0.2510(8) 0.40116(15)
C9 C 0.4302(8) 0.3011(6) 0.42074(13)
C10 C 0.5205(9) 0.3512(9) 0.42412(17)
H4 H 0.5645 0.3525 0.4134
C11 C 0.4777(8) 0.3823(8) 0.45813(17)
H5 H 0.4936 0.4096 0.4709
C12 C 0.3946(8) 0.3350(7) 0.45755(15)
C13 C 0.3688(8) 0.2935(7) 0.43793(17)
H6 H 0.3120 0.2618 0.4366
C14 C 0.3286(8) 0.3244(7) 0.47582(14)
C15 C 0.2927(7) 0.2371(7) 0.48139(13)
C16 C 0.3205(8) 0.1459(7) 0.47118(16)
C17 C 0.2286(8) 0.2354(7) 0.49690(14)
H7 H 0.1991 0.1787 0.4999
C18 C 0.2038(8) 0.3152(7) 0.50880(13)
C19 C 0.2373(10) 0.3986(8) 0.50291(17)
H8 H 0.2164 0.4535 0.5093
C20 C 0.3049(9) 0.4022(7) 0.48680(16)
H9 H 0.3338 0.4591 0.4837
C21 C 0.1326(8) 0.2991(7) 0.52630(15)
C22 C 0.0000 -0.0000 0.4417(5)
H10 H 0.0000 -0.0000 0.4271
Tb5 Tb 0.0000 0.5000 0.540585(7)
Tb7 Tb 0.01677(4) 0.22408(4) 0.561804(7)
O27 O 0.1762(5) 0.0072(6) 0.40221(9)
O29 O 0.1820(7) 0.1361(6) 0.42077(11)
O32 O 0.6282(5) 0.0927(5) 0.46549(12)
Tb1_2 Tb 0.5000 1.0000 0.459415(7)
Tb2 Tb 0.22408(4) 0.98323(4) 0.438196(7)
O9_2 O 0.5000 1.0000 0.49783(16)
O10 O 0.3067(9) 0.8550(7) 0.42180(15)
O11 O 0.1253(13) 0.8338(17) 0.4288(3)
C22_2 C -0.0000 1.0000 0.4417(5)
H10_2 H 0.0000 1.0000 0.4271
O14 O 0.0391(4) 0.6309(4) 0.57182(9)
O15 O 0.1127(4) 0.4948(6) 0.56978(9)
O16 O 0.0072(6) 0.6762(5) 0.65221(9)
O17 O 0.1361(6) 0.6820(7) 0.67077(11)
O18 O 0.1283(5) 0.5941(5) 0.52997(11)
O19 O 0.0934(5) 0.7452(5) 0.53570(11)
O20 O 0.2190(6) 0.8884(6) 0.46800(12)
O21 O 0.3718(5) 0.9073(5) 0.46549(12)
N2 N 0.3944(8) 0.4598(8) 0.55780(15)
C23 C 0.0991(6) 0.5709(7) 0.57854(13)
C24 C 0.1517(7) 0.5939(7) 0.59855(14)
C25 C 0.1038(7) 0.6189(7) 0.61616(14)
H11 H 0.0387 0.6243 0.6158
C26 C 0.1509(8) 0.6362(8) 0.63441(17)
C27 C 0.0923(9) 0.6671(9) 0.65407(18)
C28 C 0.2467(9) 0.6259(9) 0.63553(16)
H12 H 0.2774 0.6329 0.6483
C29 C 0.2960(9) 0.6056(9) 0.61809(17)
H13 H 0.3613 0.6038 0.6188
C30 C 0.2510(8) 0.5871(8) 0.59884(15)
C31 C 0.3011(6) 0.5698(8) 0.57926(13)
C32 C 0.3512(9) 0.4795(9) 0.57588(17)
H14 H 0.3525 0.4355 0.5866
C33 C 0.3823(8) 0.5223(8) 0.54187(17)
H15 H 0.4096 0.5064 0.5291
C34 C 0.3350(7) 0.6054(8) 0.54245(15)
C35 C 0.2935(7) 0.6312(8) 0.56207(17)
H16 H 0.2618 0.6880 0.5634
C36 C 0.3244(7) 0.6714(8) 0.52418(14)
C37 C 0.2371(7) 0.7073(7) 0.51861(13)
C38 C 0.1459(7) 0.6795(8) 0.52882(16)
C39 C 0.2354(7) 0.7714(8) 0.50310(14)
H17 H 0.1787 0.8009 0.5001
C40 C 0.3152(7) 0.7962(8) 0.49120(13)
C41 C 0.3986(8) 0.7627(10) 0.49709(17)
H18 H 0.4535 0.7836 0.4907
C42 C 0.4022(7) 0.6951(9) 0.51320(16)
H19 H 0.4591 0.6662 0.5163
C43 C 0.2991(7) 0.8674(8) 0.47370(15)
Tb9 Tb 0.27592(4) 0.98323(4) 0.311804(7)
O24 O 0.6309(4) 0.9609(4) 0.42818(9)
O25 O 0.4948(6) 0.8873(4) 0.43022(9)
O26 O 0.0072(6) 0.8238(5) 0.59779(9)
O28 O 0.1361(6) 0.8180(7) 0.57923(11)
O30 O 0.5941(5) 0.8717(5) 0.47003(11)
O33 O 0.0107(13) 0.9248(6) 0.55055(19)
H20 H 0.452187 0.954834 0.503021
H21 H 0.563021 0.981175 0.503021
C22_3 C 1.0000 -0.0000 0.4417(5)
H10_3 H 1.0000 -0.0000 0.4271
Tb5_2 Tb 1.0000 0.5000 0.540585(7)
Tb6 Tb 0.77592(4) 0.01677(4) 0.438196(7)
C22_4 C 1.0000 1.0000 0.4417(5)
H10_4 H 1.0000 1.0000 0.4271
O13 O 0.9248(6) 0.9893(13) 0.44945(19)
Tb3 Tb 0.98323(4) 0.77592(4) 0.561804(7)
O22 O 0.8550(7) 0.6933(9) 0.57820(15)
O23 O 0.8338(17) 0.8747(13) 0.5712(3)
Tb8 Tb 0.98323(4) 0.72408(4) 0.688196(7)
O31 O 0.8884(6) 0.7810(6) 0.53200(12)
C22_5 C 0.0000 -0.0000 0.5583(5)
H10_5 H -0.0000 -0.0000 0.5729
O9_3 O -0.0000 0.5000 0.50217(16)
C22_6 C -0.0000 1.0000 0.5583(5)
H10_6 H -0.0000 1.0000 0.5729
C22_7 C 1.0000 -0.0000 0.5583(5)
H10_7 H 1.0000 -0.0000 0.5729
O13_2 O 0.9893(13) 0.0752(6) 0.55055(19)
O22_2 O 0.6933(9) 0.1450(7) 0.42180(15)
O23_2 O 0.8747(13) 0.1662(17) 0.4288(3)
Tb8_2 Tb 0.72408(4) 0.01677(4) 0.311804(7)
O31_2 O 0.7810(6) 0.1116(6) 0.46800(12)
O9_4 O 1.0000 0.5000 0.50217(16)
C22_8 C 1.0000 1.0000 0.5583(5)
H10_8 H 1.0000 1.0000 0.5729
O16_2 O 0.6762(5) 0.9928(6) 0.34779(9)
O17_2 O 0.6820(7) 0.8639(6) 0.32923(11)
O19_2 O 0.7452(5) 0.9066(5) 0.46430(11)
O21_2 O 0.9073(5) 0.6282(5) 0.53451(12)
N2_2 N 0.4598(8) 0.6056(8) 0.44220(15)
C23_2 C 0.5709(7) 0.9009(6) 0.42146(13)
C24_2 C 0.5939(7) 0.8483(7) 0.40145(14)
C25_2 C 0.6189(7) 0.8962(7) 0.38384(14)
H11_2 H 0.6243 0.9613 0.3842
C26_2 C 0.6362(8) 0.8491(8) 0.36559(17)
C27_2 C 0.6671(9) 0.9077(9) 0.34593(18)
C28_2 C 0.6259(9) 0.7533(9) 0.36447(16)
H12_2 H 0.6329 0.7226 0.3517
C29_2 C 0.6056(9) 0.7040(9) 0.38191(17)
H13_2 H 0.6038 0.6387 0.3812
C30_2 C 0.5871(8) 0.7490(8) 0.40116(15)
C31_2 C 0.5698(8) 0.6989(6) 0.42074(13)
C32_2 C 0.4795(9) 0.6488(9) 0.42412(17)
H14_2 H 0.4355 0.6475 0.4134
C33_2 C 0.5223(8) 0.6177(8) 0.45813(17)
H15_2 H 0.5064 0.5904 0.4709
C34_2 C 0.6054(8) 0.6650(7) 0.45755(15)
C35_2 C 0.6312(8) 0.7065(7) 0.43793(17)
H16_2 H 0.6880 0.7382 0.4366
C36_2 C 0.6714(8) 0.6756(7) 0.47582(14)
C37_2 C 0.7073(7) 0.7629(7) 0.48139(13)
C38_2 C 0.6795(8) 0.8541(7) 0.47118(16)
C39_2 C 0.7714(8) 0.7646(7) 0.49690(14)
H17_2 H 0.8009 0.8213 0.4999
C40_2 C 0.7962(8) 0.6848(7) 0.50880(13)
C41_2 C 0.7627(10) 0.6014(8) 0.50291(17)
H18_2 H 0.7836 0.5465 0.5093
C42_2 C 0.6951(9) 0.5978(7) 0.48680(16)
H19_2 H 0.6662 0.5409 0.4837
C43_2 C 0.8674(8) 0.7009(7) 0.52630(15)
O24_2 O 0.9609(4) 0.3691(4) 0.57182(9)
O25_2 O 0.8873(4) 0.5052(6) 0.56978(9)
O26_2 O 0.8238(5) 0.9928(6) 0.40221(9)
O28_2 O 0.8180(7) 0.8639(6) 0.42077(11)
O30_2 O 0.8717(5) 0.4059(5) 0.52997(11)
H20_2 H 0.954834 0.547813 0.496979
H21_2 H 0.981175 0.436979 0.496979
O22_3 O 0.1450(7) 0.3067(9) 0.57820(15)
O23_3 O 0.1662(17) 0.1253(13) 0.5712(3)
Tb8_3 Tb 0.01677(4) 0.27592(4) 0.688196(7)
O16_3 O 0.9928(6) 0.3238(5) 0.65221(9)
O17_3 O 0.8639(6) 0.3180(7) 0.67077(11)
O19_3 O 0.9066(5) 0.2548(5) 0.53570(11)
N2_3 N 0.6056(8) 0.5402(8) 0.55780(15)
C23_3 C 0.9009(6) 0.4291(7) 0.57854(13)
C24_3 C 0.8483(7) 0.4061(7) 0.59855(14)
C25_3 C 0.8962(7) 0.3811(7) 0.61616(14)
H11_3 H 0.9613 0.3757 0.6158
C26_3 C 0.8491(8) 0.3638(8) 0.63441(17)
C27_3 C 0.9077(9) 0.3329(9) 0.65407(18)
C28_3 C 0.7533(9) 0.3741(9) 0.63553(16)
H12_3 H 0.7226 0.3671 0.6483
C29_3 C 0.7040(9) 0.3944(9) 0.61809(17)
H13_3 H 0.6387 0.3962 0.6188
C30_3 C 0.7490(8) 0.4129(8) 0.59884(15)
C31_3 C 0.6989(6) 0.4302(8) 0.57926(13)
C32_3 C 0.6488(9) 0.5205(9) 0.57588(17)
H14_3 H 0.6475 0.5645 0.5866
C33_3 C 0.6177(8) 0.4777(8) 0.54187(17)
H15_3 H 0.5904 0.4936 0.5291
C34_3 C 0.6650(7) 0.3946(8) 0.54245(15)
C35_3 C 0.7065(7) 0.3688(8) 0.56207(17)
H16_3 H 0.7382 0.3120 0.5634
C36_3 C 0.6756(7) 0.3286(8) 0.52418(14)
C37_3 C 0.7629(7) 0.2927(7) 0.51861(13)
C38_3 C 0.8541(7) 0.3205(8) 0.52882(16)
C39_3 C 0.7646(7) 0.2286(8) 0.50310(14)
H17_3 H 0.8213 0.1991 0.5001
C40_3 C 0.6848(7) 0.2038(8) 0.49120(13)
C41_3 C 0.6014(8) 0.2373(10) 0.49709(17)
H18_3 H 0.5465 0.2164 0.4907
C42_3 C 0.5978(7) 0.3049(9) 0.51320(16)
H19_3 H 0.5409 0.3338 0.5163
C43_3 C 0.7009(7) 0.1326(8) 0.47370(15)
O26_3 O 0.9928(6) 0.1762(5) 0.59779(9)
O28_3 O 0.8639(6) 0.1820(7) 0.57923(11)
H20_3 H 0.547813 0.0451658 0.503021
H21_3 H 0.436979 0.0188246 0.503021
H20_4 H 0.0451658 0.452187 0.496979
H21_4 H 0.0188246 0.563021 0.496979
O15_2 O 0.1127(4) 0.0052(6) 0.68022(9)
N2_4 N 0.3944(8) 0.0402(8) 0.69220(15)
C32_4 C 0.3512(9) 0.0205(9) 0.67412(17)
H14_4 H 0.3525 0.0645 0.6634
Tb4 Tb 0.0000 0.0000 0.709415(7)
Tb1_3 Tb 0.5000 0.5000 0.790585(7)
Tb2_2 Tb 0.22408(4) 0.51677(4) 0.811804(7)
O1_2 O 0.3691(4) 0.4609(4) 0.82182(9)
O2_2 O 0.5052(6) 0.3873(4) 0.81978(9)
O3_2 O 0.3238(5) 0.4928(6) 0.90221(9)
O4_2 O 0.3180(7) 0.3639(6) 0.92077(11)
O5_2 O 0.4059(5) 0.3717(5) 0.77997(11)
O6_2 O 0.2548(5) 0.4066(5) 0.78570(11)
O7_2 O 0.1116(6) 0.2810(6) 0.71800(12)
O8_2 O 0.0927(5) 0.1282(5) 0.71549(12)
O9_5 O 0.5000 0.5000 0.75217(16)
O10_2 O 0.3067(9) 0.6450(7) 0.82820(15)
O11_2 O 0.1253(13) 0.6662(17) 0.8212(3)
O12_2 O 0.0752(6) 0.4893(13) 0.80055(19)
N1_2 N 0.5402(8) 0.1056(8) 0.80780(15)
C1_2 C 0.4291(7) 0.4009(6) 0.82854(13)
C2_2 C 0.4061(7) 0.3483(7) 0.84855(14)
C3_2 C 0.3811(7) 0.3962(7) 0.86616(14)
H1_2 H 0.3757 0.4613 0.8658
C4_2 C 0.3638(8) 0.3491(8) 0.88441(17)
C5_2 C 0.3329(9) 0.4077(9) 0.90407(18)
C6_2 C 0.3741(9) 0.2533(9) 0.88553(16)
H2_2 H 0.3671 0.2226 0.8983
C7_2 C 0.3944(9) 0.2040(9) 0.86809(17)
H3_2 H 0.3962 0.1387 0.8688
C8_2 C 0.4129(8) 0.2490(8) 0.84884(15)
C9_2 C 0.4302(8) 0.1989(6) 0.82926(13)
C10_2 C 0.5205(9) 0.1488(9) 0.82588(17)
H4_2 H 0.5645 0.1475 0.8366
C11_2 C 0.4777(8) 0.1177(8) 0.79187(17)
H5_2 H 0.4936 0.0904 0.7791
C12_2 C 0.3946(8) 0.1650(7) 0.79245(15)
C13_2 C 0.3688(8) 0.2065(7) 0.81207(17)
H6_2 H 0.3120 0.2382 0.8134
C14_2 C 0.3286(8) 0.1756(7) 0.77418(14)
C15_2 C 0.2927(7) 0.2629(7) 0.76861(13)
C16_2 C 0.3205(8) 0.3541(7) 0.77882(16)
C17_2 C 0.2286(8) 0.2646(7) 0.75310(14)
H7_2 H 0.1991 0.3213 0.7501
C18_2 C 0.2038(8) 0.1848(7) 0.74120(13)
C19_2 C 0.2373(10) 0.1014(8) 0.74709(17)
H8_2 H 0.2164 0.0465 0.7407
C20_2 C 0.3049(9) 0.0978(7) 0.76320(16)
H9_2 H 0.3338 0.0409 0.7663
C21_2 C 0.1326(8) 0.2009(7) 0.72370(15)
C22_9 C 0.0000 0.5000 0.8083(5)
H10_9 H 0.0000 0.5000 0.8229
O14_2 O 0.0391(4) 0.8691(4) 0.67818(9)
O18_2 O 0.1283(5) 0.9059(5) 0.72003(11)
O19_4 O 0.0934(5) 0.7548(5) 0.71430(11)
O20_2 O 0.2190(6) 0.6116(6) 0.78200(12)
O21_3 O 0.3718(5) 0.5927(5) 0.78451(12)
C23_4 C 0.0991(6) 0.9291(7) 0.67146(13)
C24_4 C 0.1517(7) 0.9061(7) 0.65145(14)
C25_4 C 0.1038(7) 0.8811(7) 0.63384(14)
H11_4 H 0.0387 0.8757 0.6342
C26_4 C 0.1509(8) 0.8638(8) 0.61559(17)
C27_4 C 0.0923(9) 0.8329(9) 0.59593(18)
C28_4 C 0.2467(9) 0.8741(9) 0.61447(16)
H12_4 H 0.2774 0.8671 0.6017
C29_4 C 0.2960(9) 0.8944(9) 0.63191(17)
H13_4 H 0.3613 0.8962 0.6312
C30_4 C 0.2510(8) 0.9129(8) 0.65116(15)
C31_4 C 0.3011(6) 0.9302(8) 0.67074(13)
C33_4 C 0.3823(8) 0.9777(8) 0.70813(17)
H15_4 H 0.4096 0.9936 0.7209
C34_4 C 0.3350(7) 0.8946(8) 0.70755(15)
C35_4 C 0.2935(7) 0.8688(8) 0.68793(17)
H16_4 H 0.2618 0.8120 0.6866
C36_4 C 0.3244(7) 0.8286(8) 0.72582(14)
C37_4 C 0.2371(7) 0.7927(7) 0.73139(13)
C38_4 C 0.1459(7) 0.8205(8) 0.72118(16)
C39_4 C 0.2354(7) 0.7286(8) 0.74690(14)
H17_4 H 0.1787 0.6991 0.7499
C40_4 C 0.3152(7) 0.7038(8) 0.75880(13)
C41_4 C 0.3986(8) 0.7373(10) 0.75291(17)
H18_4 H 0.4535 0.7164 0.7593
C42_4 C 0.4022(7) 0.8049(9) 0.73680(16)
H19_4 H 0.4591 0.8338 0.7337
C43_4 C 0.2991(7) 0.6326(8) 0.77630(15)
Tb4_2 Tb 0.0000 1.0000 0.709415(7)
Tb9_2 Tb 0.27592(4) 0.51677(4) 0.938196(7)
O24_3 O 0.6309(4) 0.5391(4) 0.82182(9)
O25_3 O 0.4948(6) 0.6127(4) 0.81978(9)
O27_2 O 0.1762(5) 0.4928(6) 0.84779(9)
O29_2 O 0.1820(7) 0.3639(6) 0.82923(11)
O30_3 O 0.5941(5) 0.6283(5) 0.77997(11)
O32_2 O 0.6282(5) 0.4073(5) 0.78451(12)
O33_2 O 0.0107(13) 0.5752(6) 0.69945(19)
Tb4_3 Tb 1.0000 0.0000 0.709415(7)
C22_10 C 1.0000 0.5000 0.8083(5)
H10_10 H 1.0000 0.5000 0.8229
O13_3 O 0.9248(6) 0.5107(13) 0.80055(19)
O22_4 O 0.8550(7) 0.8067(9) 0.67180(15)
O23_4 O 0.8338(17) 0.6253(13) 0.6788(3)
Tb4_4 Tb 1.0000 1.0000 0.709415(7)
Tb6_2 Tb 0.77592(4) 0.48323(4) 0.811804(7)
O31_3 O 0.8884(6) 0.7190(6) 0.71800(12)
O22_5 O 0.1450(7) 0.1933(9) 0.67180(15)
O23_5 O 0.1662(17) 0.3747(13) 0.6788(3)
O3_3 O 0.6762(5) 0.5072(6) 0.90221(9)
O4_3 O 0.6820(7) 0.6361(6) 0.92077(11)
O6_3 O 0.7452(5) 0.5934(5) 0.78570(11)
O8_3 O 0.9073(5) 0.8718(5) 0.71549(12)
O10_3 O 0.6933(9) 0.3550(7) 0.82820(15)
O11_3 O 0.8747(13) 0.3338(17) 0.8212(3)
N1_3 N 0.4598(8) 0.8944(8) 0.80780(15)
C1_3 C 0.5709(7) 0.5991(6) 0.82854(13)
C2_3 C 0.5939(7) 0.6517(7) 0.84855(14)
C3_3 C 0.6189(7) 0.6038(7) 0.86616(14)
H1_3 H 0.6243 0.5387 0.8658
C4_3 C 0.6362(8) 0.6509(8) 0.88441(17)
C5_3 C 0.6671(9) 0.5923(9) 0.90407(18)
C6_3 C 0.6259(9) 0.7467(9) 0.88553(16)
H2_3 H 0.6329 0.7774 0.8983
C7_3 C 0.6056(9) 0.7960(9) 0.86809(17)
H3_3 H 0.6038 0.8613 0.8688
C8_3 C 0.5871(8) 0.7510(8) 0.84884(15)
C9_3 C 0.5698(8) 0.8011(6) 0.82926(13)
C10_3 C 0.4795(9) 0.8512(9) 0.82588(17)
H4_3 H 0.4355 0.8525 0.8366
C11_3 C 0.5223(8) 0.8823(8) 0.79187(17)
H5_3 H 0.5064 0.9096 0.7791
C12_3 C 0.6054(8) 0.8350(7) 0.79245(15)
C13_3 C 0.6312(8) 0.7935(7) 0.81207(17)
H6_3 H 0.6880 0.7618 0.8134
C14_3 C 0.6714(8) 0.8244(7) 0.77418(14)
C15_3 C 0.7073(7) 0.7371(7) 0.76861(13)
C16_3 C 0.6795(8) 0.6459(7) 0.77882(16)
C17_3 C 0.7714(8) 0.7354(7) 0.75310(14)
H7_3 H 0.8009 0.6787 0.7501
C18_3 C 0.7962(8) 0.8152(7) 0.74120(13)
C19_3 C 0.7627(10) 0.8986(8) 0.74709(17)
H8_3 H 0.7836 0.9535 0.7407
C20_3 C 0.6951(9) 0.9022(7) 0.76320(16)
H9_3 H 0.6662 0.9591 0.7663
C21_3 C 0.8674(8) 0.7991(7) 0.72370(15)
O14_3 O 0.9609(4) 0.1309(4) 0.67818(9)
O18_3 O 0.8717(5) 0.0941(5) 0.72003(11)
O19_5 O 0.9066(5) 0.2452(5) 0.71430(11)
O20_3 O 0.7810(6) 0.3884(6) 0.78200(12)
C23_5 C 0.9009(6) 0.0709(7) 0.67146(13)
C24_5 C 0.8483(7) 0.0939(7) 0.65145(14)
C25_5 C 0.8962(7) 0.1189(7) 0.63384(14)
H11_5 H 0.9613 0.1243 0.6342
C26_5 C 0.8491(8) 0.1362(8) 0.61559(17)
C27_5 C 0.9077(9) 0.1671(9) 0.59593(18)
C28_5 C 0.7533(9) 0.1259(9) 0.61447(16)
H12_5 H 0.7226 0.1329 0.6017
C29_5 C 0.7040(9) 0.1056(9) 0.63191(17)
H13_5 H 0.6387 0.1038 0.6312
C30_5 C 0.7490(8) 0.0871(8) 0.65116(15)
C31_5 C 0.6989(6) 0.0698(8) 0.67074(13)
C33_5 C 0.6177(8) 0.0223(8) 0.70813(17)
H15_5 H 0.5904 0.0064 0.7209
C34_5 C 0.6650(7) 0.1054(8) 0.70755(15)
C35_5 C 0.7065(7) 0.1312(8) 0.68793(17)
H16_5 H 0.7382 0.1880 0.6866
C36_5 C 0.6756(7) 0.1714(8) 0.72582(14)
C37_5 C 0.7629(7) 0.2073(7) 0.73139(13)
C38_5 C 0.8541(7) 0.1795(8) 0.72118(16)
C39_5 C 0.7646(7) 0.2714(8) 0.74690(14)
H17_5 H 0.8213 0.3009 0.7499
C40_5 C 0.6848(7) 0.2962(8) 0.75880(13)
C41_5 C 0.6014(8) 0.2627(10) 0.75291(17)
H18_5 H 0.5465 0.2836 0.7593
C42_5 C 0.5978(7) 0.1951(9) 0.73680(16)
H19_5 H 0.5409 0.1662 0.7337
C43_5 C 0.7009(7) 0.3674(8) 0.77630(15)
Tb9_3 Tb 0.72408(4) 0.48323(4) 0.938196(7)
O27_3 O 0.8238(5) 0.5072(6) 0.84779(9)
O29_3 O 0.8180(7) 0.6361(6) 0.82923(11)
O33_3 O 0.9893(13) 0.4248(6) 0.69945(19)
O15_3 O 0.8873(4) 0.9948(6) 0.68022(9)
N2_5 N 0.6056(8) 0.9598(8) 0.69220(15)
C32_5 C 0.6488(9) 0.9795(9) 0.67412(17)
H14_5 H 0.6475 0.9355 0.6634
O9_6 O 0.0000 0.0000 0.74783(16)
C22_11 C 0.0000 0.5000 0.6917(5)
H10_11 H 0.0000 0.5000 0.6771
H20_5 H 0.0451658 0.0478132 0.753021
O9_7 O 0.0000 1.0000 0.74783(16)
H21_5 H 0.0188246 0.936979 0.753021
O9_8 O 1.0000 0.0000 0.74783(16)
C22_12 C 1.0000 0.5000 0.6917(5)
H10_12 H 1.0000 0.5000 0.6771
O9_9 O 1.0000 1.0000 0.74783(16)
H21_6 H 0.981175 0.0630214 0.753021
H20_6 H 0.954834 0.952187 0.753021
Tb1_4 Tb 0.0000 0.5000 0.959415(7)
O2_3 O 0.0052(6) 0.6127(4) 0.93022(9)
O9_10 O 0.0000 0.5000 0.99783(16)
N1_4 N 0.0402(8) 0.8944(8) 0.94220(15)
C10_4 C 0.0205(9) 0.8512(9) 0.92412(17)
H4_4 H 0.0645 0.8525 0.9134
O24_4 O 0.1309(4) 0.4609(4) 0.92818(9)
O30_4 O 0.0941(5) 0.3717(5) 0.97003(11)
O32_3 O 0.1282(5) 0.5927(5) 0.96549(12)
Tb5_3 Tb 0.5000 -0.0000 0.040585(7)
O7_3 O 0.6116(6) 0.7190(6) 0.03200(12)
O8_4 O 0.5927(5) 0.8718(5) 0.03451(12)
C18_4 C 0.7038(8) 0.8152(7) 0.00880(13)
C19_4 C 0.7373(10) 0.8986(8) 0.00291(17)
H8_4 H 0.7164 0.9535 0.0093
C21_4 C 0.6326(8) 0.7991(7) 0.02630(15)
Tb3_2 Tb 0.48323(4) 0.27592(4) 0.061804(7)
O14_4 O 0.5391(4) 0.1309(4) 0.07182(9)
O16_4 O 0.5072(6) 0.1762(5) 0.15221(9)
O17_4 O 0.6361(6) 0.1820(7) 0.17077(11)
O18_4 O 0.6283(5) 0.0941(5) 0.02997(11)
O19_6 O 0.5934(5) 0.2452(5) 0.03570(11)
O22_6 O 0.3550(7) 0.1933(9) 0.07820(15)
O23_6 O 0.3338(17) 0.3747(13) 0.0712(3)
C23_6 C 0.5991(6) 0.0709(7) 0.07854(13)
C24_6 C 0.6517(7) 0.0939(7) 0.09855(14)
C25_6 C 0.6038(7) 0.1189(7) 0.11616(14)
H11_6 H 0.5387 0.1243 0.1158
C26_6 C 0.6509(8) 0.1362(8) 0.13441(17)
C27_6 C 0.5923(9) 0.1671(9) 0.15407(18)
C28_6 C 0.7467(9) 0.1259(9) 0.13553(16)
H12_6 H 0.7774 0.1329 0.1483
C29_6 C 0.7960(9) 0.1056(9) 0.11809(17)
H13_6 H 0.8613 0.1038 0.1188
C30_6 C 0.7510(8) 0.0871(8) 0.09884(15)
C31_6 C 0.8011(6) 0.0698(8) 0.07926(13)
C33_6 C 0.8823(8) 0.0223(8) 0.04187(17)
H15_6 H 0.9096 0.0064 0.0291
C34_6 C 0.8350(7) 0.1054(8) 0.04245(15)
C35_6 C 0.7935(7) 0.1312(8) 0.06207(17)
H16_6 H 0.7618 0.1880 0.0634
C36_6 C 0.8244(7) 0.1714(8) 0.02418(14)
C37_6 C 0.7371(7) 0.2073(7) 0.01861(13)
C38_6 C 0.6459(7) 0.1795(8) 0.02882(16)
C39_6 C 0.7354(7) 0.2714(8) 0.00310(14)
H17_6 H 0.6787 0.3009 0.0001
C42_6 C 0.9022(7) 0.1951(9) 0.01320(16)
H19_6 H 0.9591 0.1662 0.0163
Tb5_4 Tb 0.5000 1.0000 0.040585(7)
Tb7_2 Tb 0.51677(4) 0.72408(4) 0.061804(7)
Tb8_4 Tb 0.48323(4) 0.22408(4) 0.188196(7)
O26_4 O 0.5072(6) 0.3238(5) 0.09779(9)
O28_4 O 0.6361(6) 0.3180(7) 0.07923(11)
O31_4 O 0.3884(6) 0.2810(6) 0.03200(12)
O33_4 O 0.5107(13) 0.4248(6) 0.05055(19)
H20_7 H 0.952187 0.454834 0.00302134
Tb1_5 Tb 1.0000 0.5000 0.959415(7)
O1_3 O 0.8691(4) 0.5391(4) 0.92818(9)
O5_3 O 0.9059(5) 0.6283(5) 0.97003(11)
O6_4 O 0.7548(5) 0.5934(5) 0.96430(11)
O9_11 O 1.0000 0.5000 0.99783(16)
O10_4 O 0.8067(9) 0.3550(7) 0.92180(15)
O11_4 O 0.6253(13) 0.3338(17) 0.9288(3)
O12_3 O 0.5752(6) 0.5107(13) 0.94945(19)
C1_4 C 0.9291(7) 0.5991(6) 0.92146(13)
C2_4 C 0.9061(7) 0.6517(7) 0.90145(14)
C3_4 C 0.8811(7) 0.6038(7) 0.88384(14)
H1_4 H 0.8757 0.5387 0.8842
C4_4 C 0.8638(8) 0.6509(8) 0.86559(17)
C5_4 C 0.8329(9) 0.5923(9) 0.84593(18)
C6_4 C 0.8741(9) 0.7467(9) 0.86447(16)
H2_4 H 0.8671 0.7774 0.8517
C7_4 C 0.8944(9) 0.7960(9) 0.88191(17)
H3_4 H 0.8962 0.8613 0.8812
C8_4 C 0.9129(8) 0.7510(8) 0.90116(15)
C9_4 C 0.9302(8) 0.8011(6) 0.92074(13)
C11_4 C 0.9777(8) 0.8823(8) 0.95813(17)
H5_4 H 0.9936 0.9096 0.9709
C12_4 C 0.8946(8) 0.8350(7) 0.95755(15)
C13_4 C 0.8688(8) 0.7935(7) 0.93793(17)
H6_4 H 0.8120 0.7618 0.9366
C14_4 C 0.8286(8) 0.8244(7) 0.97582(14)
C15_4 C 0.7927(7) 0.7371(7) 0.98139(13)
C16_4 C 0.8205(8) 0.6459(7) 0.97118(16)
C17_4 C 0.7286(8) 0.7354(7) 0.99690(14)
H7_4 H 0.6991 0.6787 0.9999
C20_4 C 0.8049(9) 0.9022(7) 0.98680(16)
H9_4 H 0.8338 0.9591 0.9837
C22_13 C 0.5000 0.5000 0.9417(5)
H10_13 H 0.5000 0.5000 0.9271
O13_4 O 0.4248(6) 0.4893(13) 0.94945(19)
O20_4 O 0.7190(6) 0.3884(6) 0.96800(12)
O21_4 O 0.8718(5) 0.4073(5) 0.96549(12)
C40_6 C 0.8152(7) 0.2962(8) 0.99120(13)
C41_6 C 0.8986(8) 0.2627(10) 0.99709(17)
H18_6 H 0.9535 0.2836 0.9907
C43_6 C 0.7991(7) 0.3674(8) 0.97370(15)
O25_4 O 0.9948(6) 0.3873(4) 0.93022(9)
O15_4 O 0.6127(4) 0.9948(6) 0.06978(9)
N2_6 N 0.8944(8) 0.9598(8) 0.05780(15)
C32_6 C 0.8512(9) 0.9795(9) 0.07588(17)
H14_6 H 0.8525 0.9355 0.0866
O9_12 O 0.5000 0.0000 0.00217(16)
C22_14 C 0.5000 0.5000 0.0583(5)
H10_14 H 0.5000 0.5000 0.0729
O13_5 O 0.4893(13) 0.5752(6) 0.05055(19)
O21_5 O 0.4073(5) 0.1282(5) 0.03451(12)
C40_7 C 0.2962(8) 0.1848(7) 0.00880(13)
C41_7 C 0.2627(10) 0.1014(8) 0.00291(17)
H18_7 H 0.2836 0.0465 0.0093
C43_7 C 0.3674(8) 0.2009(7) 0.02630(15)
O25_5 O 0.3873(4) 0.0052(6) 0.06978(9)
O19_7 O 0.2452(5) 0.4066(5) 0.96430(11)
O22_7 O 0.1933(9) 0.6450(7) 0.92180(15)
O23_7 O 0.3747(13) 0.6662(17) 0.9288(3)
C23_7 C 0.0709(7) 0.4009(6) 0.92146(13)
C24_7 C 0.0939(7) 0.3483(7) 0.90145(14)
C25_7 C 0.1189(7) 0.3962(7) 0.88384(14)
H11_7 H 0.1243 0.4613 0.8842
C26_7 C 0.1362(8) 0.3491(8) 0.86559(17)
C27_7 C 0.1671(9) 0.4077(9) 0.84593(18)
C28_7 C 0.1259(9) 0.2533(9) 0.86447(16)
H12_7 H 0.1329 0.2226 0.8517
C29_7 C 0.1056(9) 0.2040(9) 0.88191(17)
H13_7 H 0.1038 0.1387 0.8812
C30_7 C 0.0871(8) 0.2490(8) 0.90116(15)
C31_7 C 0.0698(8) 0.1989(6) 0.92074(13)
C33_7 C 0.0223(8) 0.1177(8) 0.95813(17)
H15_7 H 0.0064 0.0904 0.9709
C34_7 C 0.1054(8) 0.1650(7) 0.95755(15)
C35_7 C 0.1312(8) 0.2065(7) 0.93793(17)
H16_7 H 0.1880 0.2382 0.9366
C36_7 C 0.1714(8) 0.1756(7) 0.97582(14)
C37_7 C 0.2073(7) 0.2629(7) 0.98139(13)
C38_7 C 0.1795(8) 0.3541(7) 0.97118(16)
C39_7 C 0.2714(8) 0.2646(7) 0.99690(14)
H17_7 H 0.3009 0.3213 0.9999
C42_7 C 0.1951(9) 0.0978(7) 0.98680(16)
H19_7 H 0.1662 0.0409 0.9837
O31_5 O 0.2810(6) 0.6116(6) 0.96800(12)
H20_8 H 0.454834 0.0478132 0.996979
O9_13 O 0.5000 1.0000 0.00217(16)
O24_5 O 0.4609(4) 0.8691(4) 0.07182(9)
O30_5 O 0.3717(5) 0.9059(5) 0.02997(11)
N2_7 N 0.9598(8) 0.1056(8) 0.94220(15)
C32_7 C 0.9795(9) 0.1488(9) 0.92412(17)
H14_7 H 0.9355 0.1475 0.9134
N2_8 N 0.1056(8) 0.0402(8) 0.05780(15)
C32_8 C 0.1488(9) 0.0205(9) 0.07588(17)
H14_8 H 0.1475 0.0645 0.0866
O16_5 O 0.4928(6) 0.8238(5) 0.15221(9)
O17_5 O 0.3639(6) 0.8180(7) 0.17077(11)
O19_8 O 0.4066(5) 0.7548(5) 0.03570(11)
O22_8 O 0.6450(7) 0.8067(9) 0.07820(15)
O23_8 O 0.6662(17) 0.6253(13) 0.0712(3)
C23_8 C 0.4009(6) 0.9291(7) 0.07854(13)
C24_8 C 0.3483(7) 0.9061(7) 0.09855(14)
C25_8 C 0.3962(7) 0.8811(7) 0.11616(14)
H11_8 H 0.4613 0.8757 0.1158
C26_8 C 0.3491(8) 0.8638(8) 0.13441(17)
C27_8 C 0.4077(9) 0.8329(9) 0.15407(18)
C28_8 C 0.2533(9) 0.8741(9) 0.13553(16)
H12_8 H 0.2226 0.8671 0.1483
C29_8 C 0.2040(9) 0.8944(9) 0.11809(17)
H13_8 H 0.1387 0.8962 0.1188
C30_8 C 0.2490(8) 0.9129(8) 0.09884(15)
C31_8 C 0.1989(6) 0.9302(8) 0.07926(13)
C33_8 C 0.1177(8) 0.9777(8) 0.04187(17)
H15_8 H 0.0904 0.9936 0.0291
C34_8 C 0.1650(7) 0.8946(8) 0.04245(15)
C35_8 C 0.2065(7) 0.8688(8) 0.06207(17)
H16_8 H 0.2382 0.8120 0.0634
C36_8 C 0.1756(7) 0.8286(8) 0.02418(14)
C37_8 C 0.2629(7) 0.7927(7) 0.01861(13)
C38_8 C 0.3541(7) 0.8205(8) 0.02882(16)
C39_8 C 0.2646(7) 0.7286(8) 0.00310(14)
H17_8 H 0.3213 0.6991 0.0001
C42_8 C 0.0978(7) 0.8049(9) 0.01320(16)
H19_8 H 0.0409 0.8338 0.0163
Tb8_5 Tb 0.51677(4) 0.77592(4) 0.188196(7)
O26_5 O 0.4928(6) 0.6762(5) 0.09779(9)
O28_5 O 0.3639(6) 0.6820(7) 0.07923(11)
H20_9 H 0.0478132 0.545166 0.00302134
C40_8 C 0.1848(7) 0.7038(8) 0.99120(13)
C41_8 C 0.1014(8) 0.7373(10) 0.99709(17)
H18_8 H 0.0465 0.7164 0.9907
C43_8 C 0.2009(7) 0.6326(8) 0.97370(15)
H20_10 H 0.545166 0.952187 0.996979
Tb1_6 Tb 0.0000 0.0000 0.290585(7)
O9_14 O 0.0000 0.0000 0.25217(16)
O24_6 O 0.1309(4) 0.0391(4) 0.32182(9)
O30_6 O 0.0941(5) 0.1283(5) 0.27997(11)
H21_7 H 0.0630214 0.0188246 0.246979
Tb1_7 Tb 0.0000 1.0000 0.290585(7)
O2_4 O 0.0052(6) 0.8873(4) 0.31978(9)
O9_15 O -0.0000 1.0000 0.25217(16)
N1_5 N 0.0402(8) 0.6056(8) 0.30780(15)
C10_5 C 0.0205(9) 0.6488(9) 0.32588(17)
H4_5 H 0.0645 0.6475 0.3366
O32_4 O 0.1282(5) 0.9073(5) 0.28451(12)
Tb1_8 Tb 1.0000 0.0000 0.290585(7)
O9_16 O 1.0000 0.0000 0.25217(16)
O10_5 O 0.8067(9) 0.1450(7) 0.32820(15)
O11_5 O 0.6253(13) 0.1662(17) 0.3212(3)
C22_15 C 0.5000 0.0000 0.3083(5)
H10_15 H 0.5000 0.0000 0.3229
O13_6 O 0.4248(6) 0.0107(13) 0.30055(19)
O14_5 O 0.5391(4) 0.3691(4) 0.17818(9)
O15_5 O 0.6127(4) 0.5052(6) 0.18022(9)
O18_5 O 0.6283(5) 0.4059(5) 0.22003(11)
O19_9 O 0.5934(5) 0.2548(5) 0.21430(11)
O20_5 O 0.7190(6) 0.1116(6) 0.28200(12)
O21_6 O 0.8718(5) 0.0927(5) 0.28451(12)
O22_9 O 0.3550(7) 0.3067(9) 0.17180(15)
O23_9 O 0.3338(17) 0.1253(13) 0.1788(3)
N2_9 N 0.8944(8) 0.5402(8) 0.19220(15)
C23_9 C 0.5991(6) 0.4291(7) 0.17146(13)
C24_9 C 0.6517(7) 0.4061(7) 0.15145(14)
C25_9 C 0.6038(7) 0.3811(7) 0.13384(14)
H11_9 H 0.5387 0.3757 0.1342
C26_9 C 0.6509(8) 0.3638(8) 0.11559(17)
C27_9 C 0.5923(9) 0.3329(9) 0.09593(18)
C28_9 C 0.7467(9) 0.3741(9) 0.11447(16)
H12_9 H 0.7774 0.3671 0.1017
C29_9 C 0.7960(9) 0.3944(9) 0.13191(17)
H13_9 H 0.8613 0.3962 0.1312
C30_9 C 0.7510(8) 0.4129(8) 0.15116(15)
C31_9 C 0.8011(6) 0.4302(8) 0.17074(13)
C32_9 C 0.8512(9) 0.5205(9) 0.17412(17)
H14_9 H 0.8525 0.5645 0.1634
C33_9 C 0.8823(8) 0.4777(8) 0.20813(17)
H15_9 H 0.9096 0.4936 0.2209
C34_9 C 0.8350(7) 0.3946(8) 0.20755(15)
C35_9 C 0.7935(7) 0.3688(8) 0.18793(17)
H16_9 H 0.7618 0.3120 0.1866
C36_9 C 0.8244(7) 0.3286(8) 0.22582(14)
C37_9 C 0.7371(7) 0.2927(7) 0.23139(13)
C38_9 C 0.6459(7) 0.3205(8) 0.22118(16)
C39_9 C 0.7354(7) 0.2286(8) 0.24690(14)
H17_9 H 0.6787 0.1991 0.2499
C40_9 C 0.8152(7) 0.2038(8) 0.25880(13)
C41_9 C 0.8986(8) 0.2373(10) 0.25291(17)
H18_9 H 0.9535 0.2164 0.2593
C42_9 C 0.9022(7) 0.3049(9) 0.23680(16)
H19_9 H 0.9591 0.3338 0.2337
C43_9 C 0.7991(7) 0.1326(8) 0.27630(15)
Tb4_5 Tb 0.5000 0.5000 0.209415(7)
O25_6 O 0.9948(6) 0.1127(4) 0.31978(9)
O31_6 O 0.3884(6) 0.2190(6) 0.21800(12)
O33_5 O 0.5107(13) 0.0752(6) 0.19945(19)
H20_11 H 0.952187 0.0451658 0.246979
Tb1_9 Tb 1.0000 1.0000 0.290585(7)
O1_4 O 0.8691(4) 0.9609(4) 0.32182(9)
O5_4 O 0.9059(5) 0.8717(5) 0.27997(11)
O6_5 O 0.7548(5) 0.9066(5) 0.28570(11)
O7_4 O 0.6116(6) 0.7810(6) 0.21800(12)
O8_5 O 0.5927(5) 0.6282(5) 0.21549(12)
O9_17 O 1.0000 1.0000 0.25217(16)
O12_4 O 0.5752(6) 0.9893(13) 0.30055(19)
C1_5 C 0.9291(7) 0.9009(6) 0.32854(13)
C2_5 C 0.9061(7) 0.8483(7) 0.34855(14)
C3_5 C 0.8811(7) 0.8962(7) 0.36616(14)
H1_5 H 0.8757 0.9613 0.3658
C4_5 C 0.8638(8) 0.8491(8) 0.38441(17)
C5_5 C 0.8329(9) 0.9077(9) 0.40407(18)
C6_5 C 0.8741(9) 0.7533(9) 0.38553(16)
H2_5 H 0.8671 0.7226 0.3983
C7_5 C 0.8944(9) 0.7040(9) 0.36809(17)
H3_5 H 0.8962 0.6387 0.3688
C8_5 C 0.9129(8) 0.7490(8) 0.34884(15)
C9_5 C 0.9302(8) 0.6989(6) 0.32926(13)
C11_5 C 0.9777(8) 0.6177(8) 0.29187(17)
H5_5 H 0.9936 0.5904 0.2791
C12_5 C 0.8946(8) 0.6650(7) 0.29245(15)
C13_5 C 0.8688(8) 0.7065(7) 0.31207(17)
H6_5 H 0.8120 0.7382 0.3134
C14_5 C 0.8286(8) 0.6756(7) 0.27418(14)
C15_5 C 0.7927(7) 0.7629(7) 0.26861(13)
C16_5 C 0.8205(8) 0.8541(7) 0.27882(16)
C17_5 C 0.7286(8) 0.7646(7) 0.25310(14)
H7_5 H 0.6991 0.8213 0.2501
C18_5 C 0.7038(8) 0.6848(7) 0.24120(13)
C19_5 C 0.7373(10) 0.6014(8) 0.24709(17)
H8_5 H 0.7164 0.5465 0.2407
C20_5 C 0.8049(9) 0.5978(7) 0.26320(16)
H9_5 H 0.8338 0.5409 0.2663
C21_5 C 0.6326(8) 0.7009(7) 0.22370(15)
C22_16 C 0.5000 1.0000 0.3083(5)
H10_16 H 0.5000 1.0000 0.3229
O6_6 O 0.2452(5) 0.0934(5) 0.28570(11)
O8_6 O 0.4073(5) 0.3718(5) 0.21549(12)
C1_6 C 0.0709(7) 0.0991(6) 0.32854(13)
C2_6 C 0.0939(7) 0.1517(7) 0.34855(14)
C3_6 C 0.1189(7) 0.1038(7) 0.36616(14)
H1_6 H 0.1243 0.0387 0.3658
C4_6 C 0.1362(8) 0.1509(8) 0.38441(17)
C5_6 C 0.1671(9) 0.0923(9) 0.40407(18)
C6_6 C 0.1259(9) 0.2467(9) 0.38553(16)
H2_6 H 0.1329 0.2774 0.3983
C7_6 C 0.1056(9) 0.2960(9) 0.36809(17)
H3_6 H 0.1038 0.3613 0.3688
C8_6 C 0.0871(8) 0.2510(8) 0.34884(15)
C9_6 C 0.0698(8) 0.3011(6) 0.32926(13)
C11_6 C 0.0223(8) 0.3823(8) 0.29187(17)
H5_6 H 0.0064 0.4096 0.2791
C12_6 C 0.1054(8) 0.3350(7) 0.29245(15)
C13_6 C 0.1312(8) 0.2935(7) 0.31207(17)
H6_6 H 0.1880 0.2618 0.3134
C14_6 C 0.1714(8) 0.3244(7) 0.27418(14)
C15_6 C 0.2073(7) 0.2371(7) 0.26861(13)
C16_6 C 0.1795(8) 0.1459(7) 0.27882(16)
C17_6 C 0.2714(8) 0.2354(7) 0.25310(14)
H7_6 H 0.3009 0.1787 0.2501
C18_6 C 0.2962(8) 0.3152(7) 0.24120(13)
C19_6 C 0.2627(10) 0.3986(8) 0.24709(17)
H8_6 H 0.2836 0.4535 0.2407
C20_6 C 0.1951(9) 0.4022(7) 0.26320(16)
H9_6 H 0.1662 0.4591 0.2663
C21_6 C 0.3674(8) 0.2991(7) 0.22370(15)
O10_6 O 0.1933(9) 0.8550(7) 0.32820(15)
O11_6 O 0.3747(13) 0.8338(17) 0.3212(3)
O14_6 O 0.4609(4) 0.6309(4) 0.17818(9)
O15_6 O 0.3873(4) 0.4948(6) 0.18022(9)
O18_6 O 0.3717(5) 0.5941(5) 0.22003(11)
O19_10 O 0.4066(5) 0.7452(5) 0.21430(11)
O20_6 O 0.2810(6) 0.8884(6) 0.28200(12)
O22_10 O 0.6450(7) 0.6933(9) 0.17180(15)
O23_10 O 0.6662(17) 0.8747(13) 0.1788(3)
N2_10 N 0.1056(8) 0.4598(8) 0.19220(15)
C23_10 C 0.4009(6) 0.5709(7) 0.17146(13)
C24_10 C 0.3483(7) 0.5939(7) 0.15145(14)
C25_10 C 0.3962(7) 0.6189(7) 0.13384(14)
H11_10 H 0.4613 0.6243 0.1342
C26_10 C 0.3491(8) 0.6362(8) 0.11559(17)
C27_10 C 0.4077(9) 0.6671(9) 0.09593(18)
C28_10 C 0.2533(9) 0.6259(9) 0.11447(16)
H12_10 H 0.2226 0.6329 0.1017
C29_10 C 0.2040(9) 0.6056(9) 0.13191(17)
H13_10 H 0.1387 0.6038 0.1312
C30_10 C 0.2490(8) 0.5871(8) 0.15116(15)
C31_10 C 0.1989(6) 0.5698(8) 0.17074(13)
C32_10 C 0.1488(9) 0.4795(9) 0.17412(17)
H14_10 H 0.1475 0.4355 0.1634
C33_10 C 0.1177(8) 0.5223(8) 0.20813(17)
H15_10 H 0.0904 0.5064 0.2209
C34_10 C 0.1650(7) 0.6054(8) 0.20755(15)
C35_10 C 0.2065(7) 0.6312(8) 0.18793(17)
H16_10 H 0.2382 0.6880 0.1866
C36_10 C 0.1756(7) 0.6714(8) 0.22582(14)
C37_10 C 0.2629(7) 0.7073(7) 0.23139(13)
C38_10 C 0.3541(7) 0.6795(8) 0.22118(16)
C39_10 C 0.2646(7) 0.7714(8) 0.24690(14)
H17_10 H 0.3213 0.8009 0.2499
C40_10 C 0.1848(7) 0.7962(8) 0.25880(13)
C41_10 C 0.1014(8) 0.7627(10) 0.25291(17)
H18_10 H 0.0465 0.7836 0.2593
C42_10 C 0.0978(7) 0.6951(9) 0.23680(16)
H19_10 H 0.0409 0.6662 0.2337
C43_10 C 0.2009(7) 0.8674(8) 0.27630(15)
O33_6 O 0.4893(13) 0.9248(6) 0.19945(19)
H20_12 H 0.0478132 0.954834 0.246979
N1_6 N 0.9598(8) 0.3944(8) 0.30780(15)
C10_6 C 0.9795(9) 0.3512(9) 0.32588(17)
H4_6 H 0.9355 0.3525 0.3366
H21_8 H 0.936979 0.981175 0.246979
C22_17 C 0.5000 0.0000 0.1917(5)
H10_17 H 0.5000 0.0000 0.1771
O9_18 O 0.5000 0.5000 0.24783(16)
C22_18 C 0.5000 1.0000 0.1917(5)
H10_18 H 0.5000 1.0000 0.1771
H21_9 H 0.0630214 0.481175 0.00302134
H21_10 H 0.481175 0.936979 0.996979
H21_11 H 0.936979 0.518825 0.00302134
H21_12 H 0.518825 0.0630214 0.996979
loop_
_geom_bond_atom_site_label_1
_geom_bond_atom_site_label_2
_geom_bond_site_symmetry_1
_geom_bond_site_symmetry_2
Tb1 O1 1_555 1_555
O1 C1 1_555 1_555
O2 Tb1 1_555 1_555
O3 C5 1_555 1_555
O4 C5 1_555 1_555
O5 Tb1 1_555 1_555
O7 C21 1_555 1_555
O8 C21 1_555 1_555
O9 Tb1 1_555 1_555
N1 C10 1_555 1_555
C1 O2 1_555 1_555
C2 C1 1_555 1_555
C3 C2 1_555 1_555
H1 C3 1_555 1_555
C4 C3 1_555 1_555
C5 C4 1_555 1_555
C6 C4 1_555 1_555
H2 C6 1_555 1_555
C7 C6 1_555 1_555
H3 C7 1_555 1_555
C8 C2 1_555 1_555
C9 C8 1_555 1_555
C10 C9 1_555 1_555
H4 C10 1_555 1_555
C11 N1 1_555 1_555
H5 C11 1_555 1_555
C12 C11 1_555 1_555
C13 C9 1_555 1_555
H6 C13 1_555 1_555
C14 C12 1_555 1_555
C15 C14 1_555 1_555
C16 O5 1_555 1_555
C17 C15 1_555 1_555
H7 C17 1_555 1_555
C18 C17 1_555 1_555
C19 C18 1_555 1_555
H8 C19 1_555 1_555
C20 C14 1_555 1_555
H9 C20 1_555 1_555
C21 C18 1_555 1_555
C22 O12 1_555 1_555
H10 C22 1_555 1_555
Tb5 O8 1_555 1_555
Tb7 O7 1_555 1_555
O32 Tb1 1_555 1_555
O6 C16 1_555 1_555
C7 C8 1_555 1_555
C12 C13 1_555 1_555
C15 C16 1_555 1_555
C19 C20 1_555 1_555
O9_2 Tb1_2 1_555 1_555
O10 Tb2 1_555 1_555
O11 Tb2 1_555 1_555
H10_2 C22_2 1_555 1_555
O14 C23 1_555 1_555
O15 C23 1_555 1_555
O16 C27 1_555 1_555
O17 C27 1_555 1_555
O18 C38 1_555 1_555
O20 Tb2 1_555 1_555
O21 Tb1_2 1_555 1_555
N2 C32 1_555 1_555
C23 C24 1_555 1_555
C24 C25 1_555 1_555
C25 H11 1_555 1_555
C26 C25 1_555 1_555
C27 C26 1_555 1_555
C28 C26 1_555 1_555
H12 C28 1_555 1_555
C29 C28 1_555 1_555
H13 C29 1_555 1_555
C30 C24 1_555 1_555
C31 C30 1_555 1_555
C32 C31 1_555 1_555
H14 C32 1_555 1_555
C33 N2 1_555 1_555
H15 C33 1_555 1_555
C34 C33 1_555 1_555
C35 C31 1_555 1_555
H16 C35 1_555 1_555
C36 C34 1_555 1_555
C37 C36 1_555 1_555
C38 O19 1_555 1_555
C39 C37 1_555 1_555
H17 C39 1_555 1_555
C40 C39 1_555 1_555
C41 C40 1_555 1_555
H18 C41 1_555 1_555
C42 C36 1_555 1_555
H19 C42 1_555 1_555
C43 O20 1_555 1_555
Tb5 O14 1_555 1_555
O24 Tb1_2 1_555 1_555
O25 Tb1_2 1_555 1_555
O30 Tb1_2 1_555 1_555
O15 Tb5 1_555 1_555
O18 Tb5 1_555 1_555
O21 C43 1_555 1_555
C29 C30 1_555 1_555
C34 C35 1_555 1_555
C37 C38 1_555 1_555
C40 C43 1_555 1_555
C41 C42 1_555 1_555
O9_2 H20 1_555 1_555
O9_2 H21 1_555 1_555
H10_3 C22_3 1_555 1_555
H10_4 C22_4 1_555 1_555
O13 C22_4 1_555 1_555
O22 Tb3 1_555 1_555
O23 Tb3 1_555 1_555
O31 Tb3 1_555 1_555
H10_5 C22_5 1_555 1_555
O9_3 Tb5 1_555 1_555
C22_6 O33 1_555 1_555
H10_6 C22_6 1_555 1_555
H10_7 C22_7 1_555 1_555
O13_2 C22_7 1_555 1_555
O22_2 Tb6 1_555 1_555
O23_2 Tb6 1_555 1_555
O31_2 Tb6 1_555 1_555
O9_4 Tb5_2 1_555 1_555
H10_8 C22_8 1_555 1_555
O24 C23_2 1_555 1_555
O25 C23_2 1_555 1_555
O16_2 C27_2 1_555 1_555
O17_2 C27_2 1_555 1_555
O30 C38_2 1_555 1_555
O21_2 Tb5_2 1_555 1_555
N2_2 C32_2 1_555 1_555
C23_2 C24_2 1_555 1_555
C24_2 C25_2 1_555 1_555
C25_2 H11_2 1_555 1_555
C26_2 C25_2 1_555 1_555
C27_2 C26_2 1_555 1_555
C28_2 C26_2 1_555 1_555
H12_2 C28_2 1_555 1_555
C29_2 C28_2 1_555 1_555
H13_2 C29_2 1_555 1_555
C30_2 C24_2 1_555 1_555
C31_2 C30_2 1_555 1_555
C32_2 C31_2 1_555 1_555
H14_2 C32_2 1_555 1_555
C33_2 N2_2 1_555 1_555
H15_2 C33_2 1_555 1_555
C34_2 C33_2 1_555 1_555
C35_2 C31_2 1_555 1_555
H16_2 C35_2 1_555 1_555
C36_2 C34_2 1_555 1_555
C37_2 C36_2 1_555 1_555
C38_2 O19_2 1_555 1_555
C39_2 C37_2 1_555 1_555
H17_2 C39_2 1_555 1_555
C40_2 C39_2 1_555 1_555
C41_2 C40_2 1_555 1_555
H18_2 C41_2 1_555 1_555
C42_2 C36_2 1_555 1_555
H19_2 C42_2 1_555 1_555
C43_2 O31 1_555 1_555
O24_2 Tb5_2 1_555 1_555
O25_2 Tb5_2 1_555 1_555
O30_2 Tb5_2 1_555 1_555
O21_2 C43_2 1_555 1_555
C29_2 C30_2 1_555 1_555
C34_2 C35_2 1_555 1_555
C37_2 C38_2 1_555 1_555
C40_2 C43_2 1_555 1_555
C41_2 C42_2 1_555 1_555
O9_4 H20_2 1_555 1_555
O9_4 H21_2 1_555 1_555
O22_3 Tb7 1_555 1_555
O23_3 Tb7 1_555 1_555
O24_2 C23_3 1_555 1_555
O25_2 C23_3 1_555 1_555
O16_3 C27_3 1_555 1_555
O17_3 C27_3 1_555 1_555
O30_2 C38_3 1_555 1_555
N2_3 C32_3 1_555 1_555
C23_3 C24_3 1_555 1_555
C24_3 C25_3 1_555 1_555
C25_3 H11_3 1_555 1_555
C26_3 C25_3 1_555 1_555
C27_3 C26_3 1_555 1_555
C28_3 C26_3 1_555 1_555
H12_3 C28_3 1_555 1_555
C29_3 C28_3 1_555 1_555
H13_3 C29_3 1_555 1_555
C30_3 C24_3 1_555 1_555
C31_3 C30_3 1_555 1_555
C32_3 C31_3 1_555 1_555
H14_3 C32_3 1_555 1_555
C33_3 N2_3 1_555 1_555
H15_3 C33_3 1_555 1_555
C34_3 C33_3 1_555 1_555
C35_3 C31_3 1_555 1_555
H16_3 C35_3 1_555 1_555
C36_3 C34_3 1_555 1_555
C37_3 C36_3 1_555 1_555
C38_3 O19_3 1_555 1_555
C39_3 C37_3 1_555 1_555
H17_3 C39_3 1_555 1_555
C40_3 C39_3 1_555 1_555
C41_3 C40_3 1_555 1_555
H18_3 C41_3 1_555 1_555
C42_3 C36_3 1_555 1_555
H19_3 C42_3 1_555 1_555
C43_3 O31_2 1_555 1_555
O32 C43_3 1_555 1_555
C29_3 C30_3 1_555 1_555
C34_3 C35_3 1_555 1_555
C37_3 C38_3 1_555 1_555
C40_3 C43_3 1_555 1_555
C41_3 C42_3 1_555 1_555
O9 H20_3 1_555 1_555
O9 H21_3 1_555 1_555
O9_3 H20_4 1_555 1_555
O9_3 H21_4 1_555 1_555
N2_4 C32_4 1_555 1_555
H14_4 C32_4 1_555 1_555
O15_2 Tb4 1_555 1_555
Tb1_3 O1_2 1_555 1_555
Tb2_2 O1_2 1_555 1_555
O1_2 C1_2 1_555 1_555
O2_2 Tb1_3 1_555 1_555
O3_2 C5_2 1_555 1_555
O4_2 C5_2 1_555 1_555
O5_2 Tb1_3 1_555 1_555
O6_2 Tb2_2 1_555 1_555
O7_2 C21_2 1_555 1_555
O8_2 C21_2 1_555 1_555
O9_5 Tb1_3 1_555 1_555
O10_2 Tb2_2 1_555 1_555
O11_2 Tb2_2 1_555 1_555
O12_2 Tb2_2 1_555 1_555
N1_2 C10_2 1_555 1_555
C1_2 O2_2 1_555 1_555
C2_2 C1_2 1_555 1_555
C3_2 C2_2 1_555 1_555
H1_2 C3_2 1_555 1_555
C4_2 C3_2 1_555 1_555
C5_2 C4_2 1_555 1_555
C6_2 C4_2 1_555 1_555
H2_2 C6_2 1_555 1_555
C7_2 C6_2 1_555 1_555
H3_2 C7_2 1_555 1_555
C8_2 C2_2 1_555 1_555
C9_2 C8_2 1_555 1_555
C10_2 C9_2 1_555 1_555
H4_2 C10_2 1_555 1_555
C11_2 N1_2 1_555 1_555
H5_2 C11_2 1_555 1_555
C12_2 C11_2 1_555 1_555
C13_2 C9_2 1_555 1_555
H6_2 C13_2 1_555 1_555
C14_2 C12_2 1_555 1_555
C15_2 C14_2 1_555 1_555
C16_2 O5_2 1_555 1_555
C17_2 C15_2 1_555 1_555
H7_2 C17_2 1_555 1_555
C18_2 C17_2 1_555 1_555
C19_2 C18_2 1_555 1_555
H8_2 C19_2 1_555 1_555
C20_2 C14_2 1_555 1_555
H9_2 C20_2 1_555 1_555
C21_2 C18_2 1_555 1_555
C22_9 O12_2 1_555 1_555
H10_9 C22_9 1_555 1_555
O14_2 C23_4 1_555 1_555
O26 C27_4 1_555 1_555
O28 C27_4 1_555 1_555
O18_2 C38_4 1_555 1_555
O20_2 Tb2_2 1_555 1_555
O21_3 Tb1_3 1_555 1_555
C23_4 C24_4 1_555 1_555
C24_4 C25_4 1_555 1_555
C25_4 H11_4 1_555 1_555
C26_4 C25_4 1_555 1_555
C27_4 C26_4 1_555 1_555
C28_4 C26_4 1_555 1_555
H12_4 C28_4 1_555 1_555
C29_4 C28_4 1_555 1_555
H13_4 C29_4 1_555 1_555
C30_4 C24_4 1_555 1_555
C31_4 C30_4 1_555 1_555
H15_4 C33_4 1_555 1_555
C34_4 C33_4 1_555 1_555
C35_4 C31_4 1_555 1_555
H16_4 C35_4 1_555 1_555
C36_4 C34_4 1_555 1_555
C37_4 C36_4 1_555 1_555
C38_4 O19_4 1_555 1_555
C39_4 C37_4 1_555 1_555
H17_4 C39_4 1_555 1_555
C40_4 C39_4 1_555 1_555
C41_4 C40_4 1_555 1_555
H18_4 C41_4 1_555 1_555
C42_4 C36_4 1_555 1_555
H19_4 C42_4 1_555 1_555
C43_4 O20_2 1_555 1_555
Tb4_2 O14_2 1_555 1_555
Tb4 O8_2 1_555 1_555
Tb8_3 O7_2 1_555 1_555
Tb9_2 O3_2 1_555 1_555
O24_3 Tb1_3 1_555 1_555
O25_3 Tb1_3 1_555 1_555
O27_2 Tb2_2 1_555 1_555
O29_2 Tb2_2 1_555 1_555
O30_3 Tb1_3 1_555 1_555
O32_2 Tb1_3 1_555 1_555
O4_2 Tb9_2 1_555 1_555
O6_2 C16_2 1_555 1_555
C7_2 C8_2 1_555 1_555
C12_2 C13_2 1_555 1_555
C15_2 C16_2 1_555 1_555
C19_2 C20_2 1_555 1_555
O18_2 Tb4_2 1_555 1_555
O21_3 C43_4 1_555 1_555
C29_4 C30_4 1_555 1_555
C34_4 C35_4 1_555 1_555
C37_4 C38_4 1_555 1_555
C40_4 C43_4 1_555 1_555
C41_4 C42_4 1_555 1_555
H10_10 C22_10 1_555 1_555
O13_3 C22_10 1_555 1_555
O22_4 Tb8 1_555 1_555
O23_4 Tb8 1_555 1_555
Tb6_2 O13_3 1_555 1_555
O31_3 Tb8 1_555 1_555
O22_5 Tb8_3 1_555 1_555
O23_5 Tb8_3 1_555 1_555
Tb6_2 O24_3 1_555 1_555
O24_3 C1_3 1_555 1_555
O3_3 C5_3 1_555 1_555
O4_3 C5_3 1_555 1_555
O6_3 Tb6_2 1_555 1_555
O31_3 C21_3 1_555 1_555
O8_3 C21_3 1_555 1_555
O10_3 Tb6_2 1_555 1_555
O11_3 Tb6_2 1_555 1_555
N1_3 C10_3 1_555 1_555
C1_3 O25_3 1_555 1_555
C2_3 C1_3 1_555 1_555
C3_3 C2_3 1_555 1_555
H1_3 C3_3 1_555 1_555
C4_3 C3_3 1_555 1_555
C5_3 C4_3 1_555 1_555
C6_3 C4_3 1_555 1_555
H2_3 C6_3 1_555 1_555
C7_3 C6_3 1_555 1_555
H3_3 C7_3 1_555 1_555
C8_3 C2_3 1_555 1_555
C9_3 C8_3 1_555 1_555
C10_3 C9_3 1_555 1_555
H4_3 C10_3 1_555 1_555
C11_3 N1_3 1_555 1_555
H5_3 C11_3 1_555 1_555
C12_3 C11_3 1_555 1_555
C13_3 C9_3 1_555 1_555
H6_3 C13_3 1_555 1_555
C14_3 C12_3 1_555 1_555
C15_3 C14_3 1_555 1_555
C16_3 O30_3 1_555 1_555
C17_3 C15_3 1_555 1_555
H7_3 C17_3 1_555 1_555
C18_3 C17_3 1_555 1_555
C19_3 C18_3 1_555 1_555
H8_3 C19_3 1_555 1_555
C20_3 C14_3 1_555 1_555
H9_3 C20_3 1_555 1_555
C21_3 C18_3 1_555 1_555
O14_3 C23_5 1_555 1_555
O26_3 C27_5 1_555 1_555
O28_3 C27_5 1_555 1_555
O18_3 C38_5 1_555 1_555
O20_3 Tb6_2 1_555 1_555
C23_5 C24_5 1_555 1_555
C24_5 C25_5 1_555 1_555
C25_5 H11_5 1_555 1_555
C26_5 C25_5 1_555 1_555
C27_5 C26_5 1_555 1_555
C28_5 C26_5 1_555 1_555
H12_5 C28_5 1_555 1_555
C29_5 C28_5 1_555 1_555
H13_5 C29_5 1_555 1_555
C30_5 C24_5 1_555 1_555
C31_5 C30_5 1_555 1_555
H15_5 C33_5 1_555 1_555
C34_5 C33_5 1_555 1_555
C35_5 C31_5 1_555 1_555
H16_5 C35_5 1_555 1_555
C36_5 C34_5 1_555 1_555
C37_5 C36_5 1_555 1_555
C38_5 O19_5 1_555 1_555
C39_5 C37_5 1_555 1_555
H17_5 C39_5 1_555 1_555
C40_5 C39_5 1_555 1_555
C41_5 C40_5 1_555 1_555
H18_5 C41_5 1_555 1_555
C42_5 C36_5 1_555 1_555
H19_5 C42_5 1_555 1_555
C43_5 O20_3 1_555 1_555
Tb4_3 O14_3 1_555 1_555
Tb4_4 O8_3 1_555 1_555
Tb9_3 O3_3 1_555 1_555
O27_3 Tb6_2 1_555 1_555
O29_3 Tb6_2 1_555 1_555
O4_3 Tb9_3 1_555 1_555
O6_3 C16_3 1_555 1_555
C7_3 C8_3 1_555 1_555
C12_3 C13_3 1_555 1_555
C15_3 C16_3 1_555 1_555
C19_3 C20_3 1_555 1_555
O18_3 Tb4_3 1_555 1_555
O32_2 C43_5 1_555 1_555
C29_5 C30_5 1_555 1_555
C34_5 C35_5 1_555 1_555
C37_5 C38_5 1_555 1_555
C40_5 C43_5 1_555 1_555
C41_5 C42_5 1_555 1_555
N2_5 C32_5 1_555 1_555
H14_5 C32_5 1_555 1_555
O15_3 Tb4_4 1_555 1_555
O9_6 Tb4 1_555 1_555
H10_11 C22_11 1_555 1_555
O33_2 C22_11 1_555 1_555
O9_6 H20_5 1_555 1_555
O9_7 Tb4_2 1_555 1_555
O9_7 H21_5 1_555 1_555
O9_8 Tb4_3 1_555 1_555
C22_12 O33_3 1_555 1_555
H10_12 C22_12 1_555 1_555
O9_9 Tb4_4 1_555 1_555
O9_8 H21_6 1_555 1_555
O9_9 H20_6 1_555 1_555
O2_3 Tb1_4 1_555 1_555
O9_10 Tb1_4 1_555 1_555
N1_4 C10_4 1_555 1_555
H4_4 C10_4 1_555 1_555
O24_4 Tb1_4 1_555 1_555
O30_4 Tb1_4 1_555 1_555
O32_3 Tb1_4 1_555 1_555
O7_3 C21_4 1_555 1_555
O8_4 C21_4 1_555 1_555
C19_4 C18_4 1_555 1_555
H8_4 C19_4 1_555 1_555
C21_4 C18_4 1_555 1_555
Tb3_2 O14_4 1_555 1_555
O14_4 C23_6 1_555 1_555
O16_4 C27_6 1_555 1_555
O17_4 C27_6 1_555 1_555
O18_4 C38_6 1_555 1_555
O19_6 Tb3_2 1_555 1_555
O22_6 Tb3_2 1_555 1_555
O23_6 Tb3_2 1_555 1_555
C23_6 C24_6 1_555 1_555
C24_6 C25_6 1_555 1_555
C25_6 H11_6 1_555 1_555
C26_6 C25_6 1_555 1_555
C27_6 C26_6 1_555 1_555
C28_6 C26_6 1_555 1_555
H12_6 C28_6 1_555 1_555
C29_6 C28_6 1_555 1_555
H13_6 C29_6 1_555 1_555
C30_6 C24_6 1_555 1_555
C31_6 C30_6 1_555 1_555
H15_6 C33_6 1_555 1_555
C34_6 C33_6 1_555 1_555
C35_6 C31_6 1_555 1_555
H16_6 C35_6 1_555 1_555
C36_6 C34_6 1_555 1_555
C37_6 C36_6 1_555 1_555
C38_6 O19_6 1_555 1_555
C39_6 C37_6 1_555 1_555
H17_6 C39_6 1_555 1_555
C42_6 C36_6 1_555 1_555
H19_6 C42_6 1_555 1_555
Tb5_3 O14_4 1_555 1_555
Tb5_4 O8_4 1_555 1_555
Tb7_2 O7_3 1_555 1_555
Tb8_4 O16_4 1_555 1_555
O26_4 Tb3_2 1_555 1_555
O28_4 Tb3_2 1_555 1_555
O31_4 Tb3_2 1_555 1_555
O33_4 Tb3_2 1_555 1_555
O17_4 Tb8_4 1_555 1_555
O18_4 Tb5_3 1_555 1_555
C29_6 C30_6 1_555 1_555
C34_6 C35_6 1_555 1_555
C37_6 C38_6 1_555 1_555
Tb1_5 O1_3 1_555 1_555
Tb9_3 O1_3 1_555 1_555
O1_3 C1_4 1_555 1_555
O27_3 C5_4 1_555 1_555
O29_3 C5_4 1_555 1_555
O5_3 Tb1_5 1_555 1_555
O6_4 Tb9_3 1_555 1_555
O9_11 Tb1_5 1_555 1_555
O10_4 Tb9_3 1_555 1_555
O11_4 Tb9_3 1_555 1_555
O12_3 Tb9_3 1_555 1_555
C2_4 C1_4 1_555 1_555
C3_4 C2_4 1_555 1_555
H1_4 C3_4 1_555 1_555
C4_4 C3_4 1_555 1_555
C5_4 C4_4 1_555 1_555
C6_4 C4_4 1_555 1_555
H2_4 C6_4 1_555 1_555
C7_4 C6_4 1_555 1_555
H3_4 C7_4 1_555 1_555
C8_4 C2_4 1_555 1_555
C9_4 C8_4 1_555 1_555
H5_4 C11_4 1_555 1_555
C12_4 C11_4 1_555 1_555
C13_4 C9_4 1_555 1_555
H6_4 C13_4 1_555 1_555
C14_4 C12_4 1_555 1_555
C15_4 C14_4 1_555 1_555
C16_4 O5_3 1_555 1_555
C17_4 C15_4 1_555 1_555
H7_4 C17_4 1_555 1_555
C20_4 C14_4 1_555 1_555
H9_4 C20_4 1_555 1_555
C22_13 O12_3 1_555 1_555
H10_13 C22_13 1_555 1_555
O13_4 C22_13 1_555 1_555
O20_4 Tb9_3 1_555 1_555
O21_4 Tb1_5 1_555 1_555
C41_6 C40_6 1_555 1_555
H18_6 C41_6 1_555 1_555
C43_6 O20_4 1_555 1_555
Tb9_2 O13_4 1_555 1_555
O25_4 Tb1_5 1_555 1_555
O6_4 C16_4 1_555 1_555
C7_4 C8_4 1_555 1_555
C12_4 C13_4 1_555 1_555
C15_4 C16_4 1_555 1_555
O21_4 C43_6 1_555 1_555
C40_6 C43_6 1_555 1_555
N2_6 C32_6 1_555 1_555
H14_6 C32_6 1_555 1_555
O15_4 Tb5_4 1_555 1_555
O9_12 Tb5_3 1_555 1_555
C22_14 O33_4 1_555 1_555
H10_14 C22_14 1_555 1_555
O13_5 C22_14 1_555 1_555
O21_5 Tb5_3 1_555 1_555
C41_7 C40_7 1_555 1_555
H18_7 C41_7 1_555 1_555
C43_7 O31_4 1_555 1_555
Tb7_2 O13_5 1_555 1_555
O25_5 Tb5_3 1_555 1_555
O21_5 C43_7 1_555 1_555
C40_7 C43_7 1_555 1_555
Tb9_2 O24_4 1_555 1_555
O24_4 C23_7 1_555 1_555
O27_2 C27_7 1_555 1_555
O29_2 C27_7 1_555 1_555
O30_4 C38_7 1_555 1_555
O19_7 Tb9_2 1_555 1_555
O22_7 Tb9_2 1_555 1_555
O23_7 Tb9_2 1_555 1_555
C23_7 C24_7 1_555 1_555
C24_7 C25_7 1_555 1_555
C25_7 H11_7 1_555 1_555
C26_7 C25_7 1_555 1_555
C27_7 C26_7 1_555 1_555
C28_7 C26_7 1_555 1_555
H12_7 C28_7 1_555 1_555
C29_7 C28_7 1_555 1_555
H13_7 C29_7 1_555 1_555
C30_7 C24_7 1_555 1_555
C31_7 C30_7 1_555 1_555
H15_7 C33_7 1_555 1_555
C34_7 C33_7 1_555 1_555
C35_7 C31_7 1_555 1_555
H16_7 C35_7 1_555 1_555
C36_7 C34_7 1_555 1_555
C37_7 C36_7 1_555 1_555
C38_7 O19_7 1_555 1_555
C39_7 C37_7 1_555 1_555
H17_7 C39_7 1_555 1_555
C42_7 C36_7 1_555 1_555
H19_7 C42_7 1_555 1_555
O31_5 Tb9_2 1_555 1_555
C29_7 C30_7 1_555 1_555
C34_7 C35_7 1_555 1_555
C37_7 C38_7 1_555 1_555
O9_13 Tb5_4 1_555 1_555
O24_5 Tb5_4 1_555 1_555
O30_5 Tb5_4 1_555 1_555
N2_7 C32_7 1_555 1_555
H14_7 C32_7 1_555 1_555
N2_8 C32_8 1_555 1_555
H14_8 C32_8 1_555 1_555
Tb7_2 O24_5 1_555 1_555
O24_5 C23_8 1_555 1_555
O16_5 C27_8 1_555 1_555
O17_5 C27_8 1_555 1_555
O30_5 C38_8 1_555 1_555
O19_8 Tb7_2 1_555 1_555
O22_8 Tb7_2 1_555 1_555
O23_8 Tb7_2 1_555 1_555
C23_8 C24_8 1_555 1_555
C24_8 C25_8 1_555 1_555
C25_8 H11_8 1_555 1_555
C26_8 C25_8 1_555 1_555
C27_8 C26_8 1_555 1_555
C28_8 C26_8 1_555 1_555
H12_8 C28_8 1_555 1_555
C29_8 C28_8 1_555 1_555
H13_8 C29_8 1_555 1_555
C30_8 C24_8 1_555 1_555
C31_8 C30_8 1_555 1_555
H15_8 C33_8 1_555 1_555
C34_8 C33_8 1_555 1_555
C35_8 C31_8 1_555 1_555
H16_8 C35_8 1_555 1_555
C36_8 C34_8 1_555 1_555
C37_8 C36_8 1_555 1_555
C38_8 O19_8 1_555 1_555
C39_8 C37_8 1_555 1_555
H17_8 C39_8 1_555 1_555
C42_8 C36_8 1_555 1_555
H19_8 C42_8 1_555 1_555
Tb8_5 O16_5 1_555 1_555
O26_5 Tb7_2 1_555 1_555
O28_5 Tb7_2 1_555 1_555
O17_5 Tb8_5 1_555 1_555
C29_8 C30_8 1_555 1_555
C34_8 C35_8 1_555 1_555
C37_8 C38_8 1_555 1_555
C41_8 C40_8 1_555 1_555
H18_8 C41_8 1_555 1_555
C43_8 O31_5 1_555 1_555
O32_3 C43_8 1_555 1_555
C40_8 C43_8 1_555 1_555
O9_14 Tb1_6 1_555 1_555
O24_6 Tb1_6 1_555 1_555
O30_6 Tb1_6 1_555 1_555
O9_14 H21_7 1_555 1_555
O2_4 Tb1_7 1_555 1_555
O9_15 Tb1_7 1_555 1_555
N1_5 C10_5 1_555 1_555
H4_5 C10_5 1_555 1_555
O32_4 Tb1_7 1_555 1_555
O9_16 Tb1_8 1_555 1_555
O10_5 Tb8_2 1_555 1_555
O11_5 Tb8_2 1_555 1_555
H10_15 C22_15 1_555 1_555
O13_6 C22_15 1_555 1_555
Tb8_4 O14_5 1_555 1_555
O14_5 C23_9 1_555 1_555
O15_5 C23_9 1_555 1_555
O26_4 C27_9 1_555 1_555
O28_4 C27_9 1_555 1_555
O18_5 C38_9 1_555 1_555
O19_9 Tb8_4 1_555 1_555
O20_5 Tb8_2 1_555 1_555
O21_6 Tb1_8 1_555 1_555
O22_9 Tb8_4 1_555 1_555
O23_9 Tb8_4 1_555 1_555
N2_9 C32_9 1_555 1_555
C23_9 C24_9 1_555 1_555
C24_9 C25_9 1_555 1_555
C25_9 H11_9 1_555 1_555
C26_9 C25_9 1_555 1_555
C27_9 C26_9 1_555 1_555
C28_9 C26_9 1_555 1_555
H12_9 C28_9 1_555 1_555
C29_9 C28_9 1_555 1_555
H13_9 C29_9 1_555 1_555
C30_9 C24_9 1_555 1_555
C31_9 C30_9 1_555 1_555
C32_9 C31_9 1_555 1_555
H14_9 C32_9 1_555 1_555
C33_9 N2_9 1_555 1_555
H15_9 C33_9 1_555 1_555
C34_9 C33_9 1_555 1_555
C35_9 C31_9 1_555 1_555
H16_9 C35_9 1_555 1_555
C36_9 C34_9 1_555 1_555
C37_9 C36_9 1_555 1_555
C38_9 O19_9 1_555 1_555
C39_9 C37_9 1_555 1_555
H17_9 C39_9 1_555 1_555
C40_9 C39_9 1_555 1_555
C41_9 C40_9 1_555 1_555
H18_9 C41_9 1_555 1_555
C42_9 C36_9 1_555 1_555
H19_9 C42_9 1_555 1_555
C43_9 O20_5 1_555 1_555
Tb4_5 O14_5 1_555 1_555
O25_6 Tb1_8 1_555 1_555
O31_6 Tb8_4 1_555 1_555
O33_5 Tb8_4 1_555 1_555
O15_5 Tb4_5 1_555 1_555
O18_5 Tb4_5 1_555 1_555
O21_6 C43_9 1_555 1_555
C29_9 C30_9 1_555 1_555
C34_9 C35_9 1_555 1_555
C37_9 C38_9 1_555 1_555
C40_9 C43_9 1_555 1_555
C41_9 C42_9 1_555 1_555
O9_16 H20_11 1_555 1_555
Tb1_9 O1_4 1_555 1_555
O1_4 C1_5 1_555 1_555
O26_2 C5_5 1_555 1_555
O28_2 C5_5 1_555 1_555
O5_4 Tb1_9 1_555 1_555
O7_4 C21_5 1_555 1_555
O8_5 C21_5 1_555 1_555
O9_17 Tb1_9 1_555 1_555
C2_5 C1_5 1_555 1_555
C3_5 C2_5 1_555 1_555
H1_5 C3_5 1_555 1_555
C4_5 C3_5 1_555 1_555
C5_5 C4_5 1_555 1_555
C6_5 C4_5 1_555 1_555
H2_5 C6_5 1_555 1_555
C7_5 C6_5 1_555 1_555
H3_5 C7_5 1_555 1_555
C8_5 C2_5 1_555 1_555
C9_5 C8_5 1_555 1_555
H5_5 C11_5 1_555 1_555
C12_5 C11_5 1_555 1_555
C13_5 C9_5 1_555 1_555
H6_5 C13_5 1_555 1_555
C14_5 C12_5 1_555 1_555
C15_5 C14_5 1_555 1_555
C16_5 O5_4 1_555 1_555
C17_5 C15_5 1_555 1_555
H7_5 C17_5 1_555 1_555
C18_5 C17_5 1_555 1_555
C19_5 C18_5 1_555 1_555
H8_5 C19_5 1_555 1_555
C20_5 C14_5 1_555 1_555
H9_5 C20_5 1_555 1_555
C21_5 C18_5 1_555 1_555
C22_16 O12_4 1_555 1_555
H10_16 C22_16 1_555 1_555
Tb4_5 O8_5 1_555 1_555
Tb8_5 O7_4 1_555 1_555
O6_5 C16_5 1_555 1_555
C7_5 C8_5 1_555 1_555
C12_5 C13_5 1_555 1_555
C15_5 C16_5 1_555 1_555
C19_5 C20_5 1_555 1_555
O24_6 C1_6 1_555 1_555
O27 C5_6 1_555 1_555
O29 C5_6 1_555 1_555
O31_6 C21_6 1_555 1_555
O8_6 C21_6 1_555 1_555
C2_6 C1_6 1_555 1_555
C3_6 C2_6 1_555 1_555
H1_6 C3_6 1_555 1_555
C4_6 C3_6 1_555 1_555
C5_6 C4_6 1_555 1_555
C6_6 C4_6 1_555 1_555
H2_6 C6_6 1_555 1_555
C7_6 C6_6 1_555 1_555
H3_6 C7_6 1_555 1_555
C8_6 C2_6 1_555 1_555
C9_6 C8_6 1_555 1_555
H5_6 C11_6 1_555 1_555
C12_6 C11_6 1_555 1_555
C13_6 C9_6 1_555 1_555
H6_6 C13_6 1_555 1_555
C14_6 C12_6 1_555 1_555
C15_6 C14_6 1_555 1_555
C16_6 O30_6 1_555 1_555
C17_6 C15_6 1_555 1_555
H7_6 C17_6 1_555 1_555
C18_6 C17_6 1_555 1_555
C19_6 C18_6 1_555 1_555
H8_6 C19_6 1_555 1_555
C20_6 C14_6 1_555 1_555
H9_6 C20_6 1_555 1_555
C21_6 C18_6 1_555 1_555
Tb4_5 O8_6 1_555 1_555
O6_6 C16_6 1_555 1_555
C7_6 C8_6 1_555 1_555
C12_6 C13_6 1_555 1_555
C15_6 C16_6 1_555 1_555
C19_6 C20_6 1_555 1_555
O10_6 Tb9 1_555 1_555
O11_6 Tb9 1_555 1_555
Tb8_5 O14_6 1_555 1_555
O14_6 C23_10 1_555 1_555
O15_6 C23_10 1_555 1_555
O26_5 C27_10 1_555 1_555
O28_5 C27_10 1_555 1_555
O18_6 C38_10 1_555 1_555
O19_10 Tb8_5 1_555 1_555
O20_6 Tb9 1_555 1_555
O22_10 Tb8_5 1_555 1_555
O23_10 Tb8_5 1_555 1_555
N2_10 C32_10 1_555 1_555
C23_10 C24_10 1_555 1_555
C24_10 C25_10 1_555 1_555
C25_10 H11_10 1_555 1_555
C26_10 C25_10 1_555 1_555
C27_10 C26_10 1_555 1_555
C28_10 C26_10 1_555 1_555
H12_10 C28_10 1_555 1_555
C29_10 C28_10 1_555 1_555
H13_10 C29_10 1_555 1_555
C30_10 C24_10 1_555 1_555
C31_10 C30_10 1_555 1_555
C32_10 C31_10 1_555 1_555
H14_10 C32_10 1_555 1_555
C33_10 N2_10 1_555 1_555
H15_10 C33_10 1_555 1_555
C34_10 C33_10 1_555 1_555
C35_10 C31_10 1_555 1_555
H16_10 C35_10 1_555 1_555
C36_10 C34_10 1_555 1_555
C37_10 C36_10 1_555 1_555
C38_10 O19_10 1_555 1_555
C39_10 C37_10 1_555 1_555
H17_10 C39_10 1_555 1_555
C40_10 C39_10 1_555 1_555
C41_10 C40_10 1_555 1_555
H18_10 C41_10 1_555 1_555
C42_10 C36_10 1_555 1_555
H19_10 C42_10 1_555 1_555
C43_10 O20_6 1_555 1_555
Tb4_5 O14_6 1_555 1_555
O33_6 Tb8_5 1_555 1_555
O15_6 Tb4_5 1_555 1_555
O18_6 Tb4_5 1_555 1_555
O32_4 C43_10 1_555 1_555
C29_10 C30_10 1_555 1_555
C34_10 C35_10 1_555 1_555
C37_10 C38_10 1_555 1_555
C40_10 C43_10 1_555 1_555
C41_10 C42_10 1_555 1_555
O9_15 H20_12 1_555 1_555
N1_6 C10_6 1_555 1_555
H4_6 C10_6 1_555 1_555
O9_17 H21_8 1_555 1_555
H10_17 C22_17 1_555 1_555
O33_5 C22_17 1_555 1_555
O9_18 Tb4_5 1_555 1_555
C22_18 O33_6 1_555 1_555
H10_18 C22_18 1_555 1_555

#END
