
###############################################################################
#
# This file contains modified crystal structure data generated from the
# MOF subset of the Cambridge Structural Database (CSD) v543 
# hosted by the Cambridge Crystallographic Data Centre (CCDC).
#
# This work is licensed under the Creative Commons
# Attribution-NonCommercial-ShareAlike 4.0 International License.
# To view a copy of this license, visit
# http://creativecommons.org/licenses/by-nc-sa/4.0/
# or send a letter to
# Creative Commons, PO Box 1866, Mountain View, CA 94042, USA.
#
# CIF created using the CSD Python API on 29 September 2022
# The structure has been converted into the P1 space group
# The structure has a 3D framework
# The original CSD entry ALAJOP is in the triclinic crystal system
# The framework has been calculated to contain at least 10.0% void space
# The void calculation uses a probe of radius 1.32A, grid spacing 0.4
# H atom positions have been added when not included in the experimental data
#
###############################################################################

data_ALAJOP
_chemical_formula_moiety         '(C186 H144 N6 O24 Zn6)n'
_symmetry_cell_setting           triclinic
_symmetry_space_group_name_H-M   'P 1'
_symmetry_Int_Tables_number      1
_space_group_name_Hall           'P 1'
loop_
_symmetry_equiv_pos_site_id
_symmetry_equiv_pos_as_xyz
1 x,y,z
_cell_length_a                   18.278(2)
_cell_length_b                   19.403(3)
_cell_length_c                   19.438(3)
_cell_angle_alpha                68.819(4)
_cell_angle_beta                 87.825(4)
_cell_angle_gamma                80.484(4)
_cell_volume                     6337.71
loop_
_atom_site_label
_atom_site_type_symbol
_atom_site_fract_x
_atom_site_fract_y
_atom_site_fract_z
N1 N 0.01600(12) 0.69978(13) 0.20473(13)
N2 N 0.63092(12) 0.72733(13) 0.21115(13)
C1 C 0.52988(17) 0.67359(18) 0.18980(19)
H1 H 0.5133 0.6398 0.1727
C3 C 0.47964(16) 0.71768(18) 0.21868(18)
C4 C 0.16862(16) 0.70208(18) 0.20414(18)
C5 C 0.60389(16) 0.67973(17) 0.18646(18)
H2 H 0.6364 0.6501 0.1665
C7 C 0.35615(17) 0.70174(19) 0.28073(19)
C8 C 0.13764(17) 0.64393(19) 0.25507(19)
H3 H 0.1679 0.6044 0.2899
C13 C 0.28162(17) 0.6969(2) 0.2729(2)
H6 H 0.2523 0.6880 0.3144
C14 C 0.24875(16) 0.70481(19) 0.2061(2)
C17 C 0.50838(16) 0.76594(18) 0.24497(19)
H7 H 0.4775 0.7960 0.2657
C20 C 0.58389(16) 0.76842(17) 0.23964(18)
H10 H 0.6024 0.8010 0.2572
C21 C 0.36740(16) 0.71829(18) 0.15215(19)
H11 H 0.3978 0.7234 0.1117
C24 C 0.12110(17) 0.75783(18) 0.15276(19)
H13 H 0.1397 0.7971 0.1170
C25 C 0.04615(16) 0.75549(18) 0.15430(19)
H14 H 0.0150 0.7938 0.1192
C26 C 0.06203(17) 0.64490(19) 0.25384(19)
H15 H 0.0423 0.6057 0.2886
C27 C 0.39880(16) 0.71365(18) 0.21785(19)
C29 C 0.29274(16) 0.71566(19) 0.14373(19)
C31 C 0.38559(19) 0.6942(2) 0.3542(2)
H17 H 0.3466 0.6863 0.3893
H18 H 0.4252 0.6523 0.3704
H19 H 0.4039 0.7391 0.3500
C36 C 0.26360(18) 0.7215(2) 0.0704(2)
H21 H 0.2115 0.7188 0.0736
H22 H 0.2711 0.7684 0.0337
H23 H 0.2895 0.6810 0.0571
Zn7 Zn 0.74117(2) 0.73164(2) 0.20264(2)
O2 O 0.87953(11) 0.72391(13) 0.10006(11)
O3 O 0.75532(11) 0.75065(12) 0.09229(11)
C10 C 0.81842(17) 0.73898(16) 0.06578(16)
Zn4 Zn 0.90466(2) 0.70295(2) 0.20785(2)
O1 O 0.77479(11) 0.62104(11) 0.21652(12)
O5 O 0.89820(11) 0.59427(11) 0.22664(13)
O6 O 0.76282(12) 0.71174(13) 0.31068(11)
O7 O 0.88665(13) 0.68681(14) 0.31488(12)
C2 C 0.83266(17) 0.50417(17) 0.21499(19)
C6 C 0.83525(16) 0.57875(16) 0.22025(16)
C9 C 0.82057(17) 0.74307(17) 0.98766(16)
C11 C 0.75662(19) 0.75899(18) 0.94544(18)
H4 H 0.7110 0.7703 0.9651
C12 C 0.76757(17) 0.48771(18) 0.19503(19)
H5 H 0.7246 0.5231 0.1863
C18 C 0.88859(19) 0.7266(2) 0.95678(17)
H8 H 0.9324 0.7159 0.9841
C19 C 0.76503(19) 0.42019(19) 0.1878(2)
H9 H 0.7213 0.4111 0.1723
C22 C 0.8291(2) 0.7366(3) 0.7684(2)
C23 C 0.89687(19) 0.45023(18) 0.2277(2)
H12 H 0.9414 0.4608 0.2399
C28 C 0.82494(19) 0.69926(19) 0.34218(17)
C30 C 0.7610(2) 0.7170(2) 0.45254(18)
H16 H 0.7157 0.7246 0.4284
C32 C 0.8293(2) 0.36457(19) 0.2040(2)
C33 C 0.82574(19) 0.7013(2) 0.41861(19)
C35 C 0.7944(3) 0.7933(3) 0.7070(2)
C37 C 0.8653(2) 0.6708(3) 0.7617(2)
H24 H 0.8891 0.6329 0.8029
C38 C 0.8667(2) 0.6603(3) 0.6939(2)
C39 C 0.7592(2) 0.7584(2) 0.87451(18)
H25 H 0.7153 0.7690 0.8473
C40 C 0.7621(2) 0.7216(2) 0.52227(19)
H26 H 0.7179 0.7334 0.5440
C41 C 0.8247(2) 0.0800(2) 0.1735(3)
C42 C 0.8925(2) 0.6874(3) 0.4564(2)
H27 H 0.9367 0.6748 0.4351
C43 C 0.8315(3) 0.7160(3) 0.6342(2)
C44 C 0.8764(2) 0.2670(2) 0.1516(3)
H28 H 0.9114 0.2969 0.1280
C45 C 0.8293(3) 0.7086(3) 0.5593(2)
C46 C 0.8946(2) 0.38202(19) 0.2224(2)
H29 H 0.9377 0.3468 0.2314
C47 C 0.8907(2) 0.7261(2) 0.8863(2)
H30 H 0.9362 0.7148 0.8665
C48 C 0.8275(2) 0.1548(2) 0.1758(3)
C49 C 0.7581(2) 0.0592(2) 0.1627(3)
H31 H 0.7148 0.0941 0.1543
C50 C 0.8268(2) 0.2913(2) 0.1963(3)
C51 C 0.8878(2) 0.0258(2) 0.1847(3)
H32 H 0.9335 0.0376 0.1921
C52 C 0.7966(3) 0.7805(3) 0.6410(2)
H33 H 0.7730 0.8180 0.5995
C53 C 0.8776(2) 0.2005(2) 0.1395(3)
C54 C 0.8940(2) 0.6921(3) 0.5257(2)
H34 H 0.9393 0.6840 0.5498
C55 C 0.8258(2) 0.7423(2) 0.84330(19)
C56 C 0.9054(2) 0.5806(3) 0.6951(2)
H35 H 0.9263 0.5512 0.7434
H36 H 0.8693 0.5557 0.6830
H37 H 0.9441 0.5865 0.6596
C57 C 0.7769(3) 0.1800(2) 0.2206(3)
H38 H 0.7414 0.1505 0.2436
C59 C 0.7762(3) 0.2454(3) 0.2331(3)
C60 C 0.9311(3) 0.1826(3) 0.0850(3)
H40 H 0.9612 0.2212 0.0659
H41 H 0.9625 0.1354 0.1093
H42 H 0.9039 0.1796 0.0452
C61 C 0.7608(4) 0.8688(3) 0.7080(3)
H43 H 0.7396 0.8998 0.6602
H44 H 0.7227 0.8632 0.7441
H45 H 0.7985 0.8917 0.7204
C62 C 0.7180(4) 0.2680(3) 0.2864(4)
H46 H 0.7253 0.3150 0.2887
H47 H 0.6686 0.2726 0.2682
H48 H 0.7246 0.2301 0.3349
O13 O 0.87450(12) 0.81495(12) 0.18666(13)
O4 O 0.75050(12) 0.83991(12) 0.18207(13)
C15 C 0.81683(18) 0.93609(18) 0.1759(2)
C16 C 0.81354(19) 0.85780(18) 0.18145(18)
C34 C 0.75453(19) 0.98955(19) 0.1641(2)
H20 H 0.7089 0.9777 0.1568
C58 C 0.8847(2) 0.9570(2) 0.1854(3)
H39 H 0.9282 0.9225 0.1922
Zn2 Zn 0.25883(2) 0.26836(2) 0.79736(2)
O4_2 O 0.24950(12) 0.16009(12) 0.81793(13)
O8 O 0.12550(12) 0.18505(12) 0.81334(13)
C15_2 C 0.18317(18) 0.06391(18) 0.8241(2)
C16_2 C 0.18646(19) 0.14220(18) 0.81855(18)
C34_2 C 0.24547(19) 0.01045(19) 0.8359(2)
H20_2 H 0.2911 0.0223 0.8432
C58_2 C 0.1153(2) 0.0430(2) 0.8146(3)
H39_2 H 0.0718 0.0775 0.8078
Zn3 Zn 0.09534(2) 0.29705(2) 0.79215(2)
O9 O 0.22521(11) 0.37896(11) 0.78348(12)
O11 O 0.24468(11) 0.24935(12) 0.90771(11)
O12 O 0.23718(12) 0.28826(13) 0.68932(11)
N3 N 0.36908(12) 0.27267(13) 0.78885(13)
O5_2 O 0.10180(11) 0.40573(11) 0.77336(13)
O7_2 O 0.11335(13) 0.31319(14) 0.68512(12)
C2_2 C 0.16734(17) 0.49583(17) 0.78501(19)
C6_2 C 0.16475(16) 0.42125(16) 0.77975(16)
C9_2 C 0.17943(17) 0.25693(17) 0.01234(16)
C11_2 C 0.24338(19) 0.24101(18) 0.05456(18)
H4_2 H 0.2890 0.2297 0.0349
C12_2 C 0.23243(17) 0.51229(18) 0.80497(19)
H5_2 H 0.2754 0.4769 0.8137
C18_2 C 0.11141(19) 0.2734(2) 0.04322(17)
H8_2 H 0.0676 0.2841 0.0159
C19_2 C 0.23497(19) 0.57981(19) 0.8122(2)
H9_2 H 0.2787 0.5889 0.8277
C22_2 C 0.1709(2) 0.2634(3) 0.2316(2)
C23_2 C 0.10313(19) 0.54977(18) 0.7723(2)
H12_2 H 0.0586 0.5392 0.7601
C28_2 C 0.17506(19) 0.30074(19) 0.65782(17)
C30_2 C 0.2390(2) 0.2830(2) 0.54746(18)
H16_2 H 0.2843 0.2754 0.5716
C32_2 C 0.1707(2) 0.63543(19) 0.7960(2)
C33_2 C 0.17426(19) 0.2987(2) 0.58139(19)
C35_2 C 0.2056(3) 0.2067(3) 0.2930(2)
C37_2 C 0.1347(2) 0.3292(3) 0.2383(2)
H24_2 H 0.1109 0.3671 0.1971
C38_2 C 0.1333(2) 0.3397(3) 0.3061(2)
C39_2 C 0.2408(2) 0.2416(2) 0.12549(18)
H25_2 H 0.2847 0.2310 0.1527
C40_2 C 0.2379(2) 0.2784(2) 0.47773(19)
H26_2 H 0.2821 0.2666 0.4560
C41_2 C 0.1753(2) 0.9200(2) 0.8265(3)
C42_2 C 0.1075(2) 0.3126(3) 0.5436(2)
H27_2 H 0.0633 0.3252 0.5649
C43_2 C 0.1685(3) 0.2840(3) 0.3658(2)
C44_2 C 0.1236(2) 0.7330(2) 0.8484(3)
H28_2 H 0.0886 0.7031 0.8720
C45_2 C 0.1707(3) 0.2914(3) 0.4407(2)
C46_2 C 0.1054(2) 0.61798(19) 0.7776(2)
H29_2 H 0.0623 0.6532 0.7686
C47_2 C 0.1093(2) 0.2739(2) 0.1137(2)
H30_2 H 0.0638 0.2852 0.1335
C48_2 C 0.1725(2) 0.8452(2) 0.8242(3)
C49_2 C 0.2419(2) 0.9408(2) 0.8373(3)
H31_2 H 0.2852 0.9059 0.8457
C50_2 C 0.1732(2) 0.7087(2) 0.8037(3)
C51_2 C 0.1122(2) 0.9742(2) 0.8153(3)
H32_2 H 0.0665 0.9624 0.8079
C52_2 C 0.2034(3) 0.2195(3) 0.3590(2)
H33_2 H 0.2270 0.1820 0.4005
C53_2 C 0.1224(2) 0.7995(2) 0.8605(3)
C54_2 C 0.1060(2) 0.3079(3) 0.4743(2)
H34_2 H 0.0607 0.3160 0.4502
C55_2 C 0.1742(2) 0.2577(2) 0.15670(19)
C56_2 C 0.0946(2) 0.4194(3) 0.3049(2)
H35_2 H 0.0737 0.4488 0.2566
H36_2 H 0.1307 0.4443 0.3170
H37_2 H 0.0559 0.4135 0.3404
C57_2 C 0.2231(3) 0.8200(2) 0.7794(3)
H38_2 H 0.2586 0.8495 0.7564
C59_2 C 0.2238(3) 0.7546(3) 0.7669(3)
C60_2 C 0.0689(3) 0.8174(3) 0.9150(3)
H40_2 H 0.0388 0.7788 0.9341
H41_2 H 0.0375 0.8646 0.8907
H42_2 H 0.0961 0.8204 0.9548
C61_2 C 0.2392(4) 0.1312(3) 0.2920(3)
H43_2 H 0.2604 0.1002 0.3398
H44_2 H 0.2773 0.1368 0.2559
H45_2 H 0.2015 0.1083 0.2796
C62_2 C 0.2820(4) 0.7320(3) 0.7136(4)
H46_2 H 0.2747 0.6850 0.7113
H47_2 H 0.3314 0.7274 0.7318
H48_2 H 0.2754 0.7699 0.6651
O10 O 0.12047(11) 0.27609(13) 0.89994(11)
C10_2 C 0.18158(17) 0.26102(16) 0.93422(16)
N1_2 N 0.98400(12) 0.30022(13) 0.79527(13)
C1_2 C 0.47012(17) 0.32641(18) 0.81020(19)
H1_2 H 0.4867 0.3602 0.8273
C3_2 C 0.52036(16) 0.28232(18) 0.78132(18)
C4_2 C 0.83138(16) 0.29792(18) 0.79586(18)
C5_2 C 0.39611(16) 0.32027(17) 0.81354(18)
H2_2 H 0.3636 0.3499 0.8335
C7_2 C 0.64385(17) 0.29826(19) 0.71927(19)
C8_2 C 0.86236(17) 0.35607(19) 0.74493(19)
H3_2 H 0.8321 0.3956 0.7101
C13_2 C 0.71838(17) 0.3031(2) 0.7271(2)
H6_2 H 0.7477 0.3120 0.6856
C14_2 C 0.75125(16) 0.29519(19) 0.7939(2)
C17_2 C 0.49162(16) 0.23406(18) 0.75503(19)
H7_2 H 0.5225 0.2040 0.7343
C20_2 C 0.41611(16) 0.23158(17) 0.76036(18)
H10_2 H 0.3976 0.1990 0.7428
C21_2 C 0.63260(16) 0.28171(18) 0.84785(19)
H11_2 H 0.6022 0.2766 0.8883
C24_2 C 0.87890(17) 0.24217(18) 0.84724(19)
H13_2 H 0.8603 0.2029 0.8830
C25_2 C 0.95385(16) 0.24451(18) 0.84570(19)
H14_2 H 0.9850 0.2062 0.8808
C26_2 C 0.93797(17) 0.35510(19) 0.74616(19)
H15_2 H 0.9577 0.3943 0.7114
C27_2 C 0.60120(16) 0.28635(18) 0.78215(19)
C29_2 C 0.70726(16) 0.28434(19) 0.85627(19)
C31_2 C 0.61441(19) 0.3058(2) 0.6458(2)
H17_2 H 0.6534 0.3137 0.6107
H18_2 H 0.5748 0.3477 0.6296
H19_2 H 0.5961 0.2609 0.6500
C36_2 C 0.73640(18) 0.2785(2) 0.9296(2)
H21_2 H 0.7885 0.2812 0.9264
H22_2 H 0.7289 0.2316 0.9663
H23_2 H 0.7105 0.3190 0.9429
N5 N 0.30828(13) 0.51029(13) 0.00370(13)
C116 C 0.28163(16) 0.44708(18) 0.01599(18)
H86 H 0.3151 0.4032 0.0235
C117 C 0.20648(16) 0.44375(19) 0.01817(18)
H87 H 0.1904 0.3983 0.0270
C118 C 0.15554(16) 0.50777(19) 0.00723(18)
C120 C 0.04254(17) 0.5773(2) 0.0937(2)
H89 H 0.0043 0.5767 0.1291
H90 H 0.0889 0.5519 0.1191
H91 H 0.0469 0.6282 0.0645
C121 C 0.07484(17) 0.5055(2) 0.0051(2)
C122 C 0.02280(17) 0.5380(2) 0.0438(2)
C119 C 0.25867(17) 0.57237(19) 0.99458(19)
H88 H 0.2760 0.6171 0.9862
C123 C 0.05147(17) 0.4680(2) 0.9625(2)
C124 C 0.18409(17) 0.5727(2) 0.9971(2)
H92 H 0.1519 0.6168 0.9919
Zn14 Zn 0.41872(2) 0.51406(2) 0.99728(2)
H96 H 0.0928243 0.44258 0.933204
Zn11 Zn 0.58128(2) 0.48594(2) 0.00272(2)
O14 O 0.45490(11) 0.40158(11) 0.01725(12)
O15 O 0.57875(11) 0.37470(11) 0.02582(12)
O16 O 0.44255(11) 0.49671(12) 0.10392(11)
O17 O 0.56677(12) 0.46876(12) 0.11050(11)
C64 C 0.50434(17) 0.48325(17) 0.21400(16)
C65 C 0.50442(17) 0.48212(17) 0.13751(17)
C66 C 0.43961(17) 0.51044(17) 0.24209(17)
H50 H 0.3957 0.5259 0.2141
C67 C 0.51496(16) 0.35825(16) 0.02360(16)
C68 C 0.50337(17) 0.06651(17) 0.0121(2)
C69 C 0.56827(18) 0.46038(19) 0.25653(18)
H51 H 0.6117 0.4414 0.2385
C71 C 0.45063(19) 0.4655(2) 0.47848(19)
H53 H 0.4172 0.4421 0.4635
C72 C 0.51153(16) 0.28046(17) 0.02559(17)
C73 C 0.44046(17) 0.51453(18) 0.31134(17)
H54 H 0.3967 0.5323 0.3298
C74 C 0.50398(18) 0.4979(2) 0.42778(18)
C76 C 0.50565(18) 0.13920(18) 0.02029(19)
C79 C 0.57143(17) 0.22297(17) 0.05090(19)
H56 H 0.6139 0.2315 0.0694
C80 C 0.44560(19) 0.4667(2) 0.54921(18)
C81 C 0.56931(19) 0.4651(2) 0.32561(18)
H57 H 0.6134 0.4495 0.3532
C82 C 0.56836(18) 0.15371(18) 0.0488(2)
H58 H 0.6086 0.1155 0.0667
C84 C 0.50549(18) 0.49268(19) 0.35436(17)
C85 C 0.74133(17) 0.42763(19) 0.00542(19)
H60 H 0.7240 0.3829 0.0138
C90 C 0.3872(2) 0.4284(3) 0.5982(2)
H64 H 0.3484 0.4655 0.6042
H65 H 0.4091 0.3968 0.6455
H66 H 0.3670 0.3985 0.5760
C91 C 0.94853(17) 0.5320(2) 0.0375(2)
C92 C 0.81591(17) 0.4273(2) 0.0029(2)
H67 H 0.8481 0.3832 0.0081
H70 H 0.4935 0.0363 0.1575
O20 O 0.55745(11) 0.50329(12) 0.89608(11)
O21 O 0.43323(12) 0.53124(12) 0.88950(11)
C105 C 0.49566(17) 0.51675(17) 0.78600(16)
C106 C 0.49558(17) 0.51788(17) 0.86249(17)
C107 C 0.56039(17) 0.48956(17) 0.75791(17)
H78 H 0.6043 0.4741 0.7859
C108 C 0.43173(18) 0.53962(19) 0.74347(18)
H79 H 0.3883 0.5586 0.7615
C109 C 0.54937(19) 0.5345(2) 0.52152(19)
H80 H 0.5828 0.5579 0.5365
C110 C 0.55954(17) 0.48547(18) 0.68866(17)
H81 H 0.6033 0.4677 0.6702
C111 C 0.49602(18) 0.5021(2) 0.57222(18)
C112 C 0.55440(19) 0.5333(2) 0.45079(18)
C113 C 0.43069(19) 0.5349(2) 0.67439(18)
H82 H 0.3866 0.5505 0.6468
C114 C 0.49451(18) 0.50732(19) 0.64564(17)
C115 C 0.6128(2) 0.5716(3) 0.4018(2)
H83 H 0.6516 0.5345 0.3958
H84 H 0.5909 0.6032 0.3545
H85 H 0.6330 0.6015 0.4240
H93 H 0.907176 0.55742 0.0667959
N4 N 0.69172(13) 0.48971(13) 0.99630(13)
C63 C 0.71837(16) 0.55292(18) 0.98401(18)
H49 H 0.6849 0.5968 0.9765
C70 C 0.79352(16) 0.55625(19) 0.98183(18)
H52 H 0.8096 0.6017 0.9730
C75 C 0.84446(16) 0.49223(19) 0.99277(18)
C78 C 0.44889(17) 0.26677(17) 0.99785(18)
H55 H 0.4083 0.3048 0.9812
C83 C 0.44601(17) 0.19737(18) 0.99460(19)
H59 H 0.4039 0.1894 0.9751
C87 C 0.95746(17) 0.4227(2) 0.9063(2)
H61 H 0.9957 0.4233 0.8709
H62 H 0.9111 0.4481 0.8809
H63 H 0.9531 0.3718 0.9355
C88 C 0.92516(17) 0.4945(2) 0.9949(2)
C89 C 0.97720(17) 0.4620(2) 0.9562(2)
C98 C 0.48740(18) 0.00240(19) 0.9274(2)
C103 C 0.49106(18) 0.06734(18) 0.9412(2)
C104 C 0.4772(2) 0.0066(2) 0.8490(2)
H75 H 0.4258 0.0075 0.8396
H76 H 0.4928 0.0514 0.8153
O23 O 0.54510(11) 0.59842(11) 0.98275(12)
H95 H 0.484087 0.120726 0.895127
C77 C 0.51260(18) 0.99760(19) 0.0726(2)
C86 C 0.50894(18) 0.93266(18) 0.0588(2)
C93 C 0.5228(2) 0.9934(2) 0.1510(2)
H68 H 0.5742 0.9925 0.1604
H69 H 0.5072 0.9486 0.1847
C99 C 0.55111(17) 0.73323(17) 0.00215(18)
H71 H 0.5917 0.6952 0.0188
C102 C 0.55399(17) 0.80263(18) 0.00540(19)
H74 H 0.5961 0.8106 0.0249
H94 H 0.515913 0.879274 0.104873
O19 O 0.42125(11) 0.62530(11) 0.97418(12)
C94 C 0.48504(16) 0.64175(16) 0.97640(16)
C95 C 0.49663(17) 0.93349(17) 0.9879(2)
C96 C 0.48847(16) 0.71954(17) 0.97441(17)
C97 C 0.49435(18) 0.86080(18) 0.97971(19)
C100 C 0.42857(17) 0.77703(17) 0.94910(19)
H72 H 0.3861 0.7685 0.9306
C101 C 0.43164(18) 0.84629(18) 0.9512(2)
H73 H 0.3914 0.8845 0.9333
H77 H 0.5065 0.9637 0.8425
loop_
_geom_bond_atom_site_label_1
_geom_bond_atom_site_label_2
_geom_bond_site_symmetry_1
_geom_bond_site_symmetry_2
N2 C5 1_555 1_555
C1 H1 1_555 1_555
C3 C1 1_555 1_555
C4 C8 1_555 1_555
C5 C1 1_555 1_555
H2 C5 1_555 1_555
C7 C13 1_555 1_555
C8 H3 1_555 1_555
C13 H6 1_555 1_555
C14 C4 1_555 1_555
C17 C3 1_555 1_555
H7 C17 1_555 1_555
C20 N2 1_555 1_555
H10 C20 1_555 1_555
C21 H11 1_555 1_555
C24 C4 1_555 1_555
H13 C24 1_555 1_555
C25 N1 1_555 1_555
H14 C25 1_555 1_555
C26 N1 1_555 1_555
H15 C26 1_555 1_555
C27 C3 1_555 1_555
C29 C14 1_555 1_555
C31 C7 1_555 1_555
H17 C31 1_555 1_555
H18 C31 1_555 1_555
H19 C31 1_555 1_555
C36 C29 1_555 1_555
H21 C36 1_555 1_555
H22 C36 1_555 1_555
H23 C36 1_555 1_555
Zn7 N2 1_555 1_555
C7 C27 1_555 1_555
C8 C26 1_555 1_555
C13 C14 1_555 1_555
C17 C20 1_555 1_555
C21 C27 1_555 1_555
C21 C29 1_555 1_555
C24 C25 1_555 1_555
O2 C10 1_555 1_555
O3 C10 1_555 1_555
Zn4 O2 1_555 1_555
Zn7 O3 1_555 1_555
Zn4 O5 1_555 1_555
O1 C6 1_555 1_555
O5 C6 1_555 1_555
O6 C28 1_555 1_555
O7 Zn4 1_555 1_555
C2 C6 1_555 1_555
C11 C9 1_555 1_555
H4 C11 1_555 1_555
C12 C2 1_555 1_555
H5 C12 1_555 1_555
C18 C9 1_555 1_555
H8 C18 1_555 1_555
C19 C12 1_555 1_555
H9 C19 1_555 1_555
C22 C35 1_555 1_555
C23 C2 1_555 1_555
H12 C23 1_555 1_555
C28 O7 1_555 1_555
C30 H16 1_555 1_555
C32 C19 1_555 1_555
C33 C28 1_555 1_555
C35 C52 1_555 1_555
C37 C22 1_555 1_555
H24 C37 1_555 1_555
C38 C37 1_555 1_555
C39 C11 1_555 1_555
H25 C39 1_555 1_555
C40 C30 1_555 1_555
H26 C40 1_555 1_555
C41 C48 1_555 1_555
C42 C33 1_555 1_555
H27 C42 1_555 1_555
C43 C38 1_555 1_555
C44 H28 1_555 1_555
C45 C40 1_555 1_555
C46 C23 1_555 1_555
H29 C46 1_555 1_555
C47 C18 1_555 1_555
H30 C47 1_555 1_555
C48 C53 1_555 1_555
H31 C49 1_555 1_555
C50 C32 1_555 1_555
C51 C41 1_555 1_555
H32 C51 1_555 1_555
C52 C43 1_555 1_555
H33 C52 1_555 1_555
C53 C44 1_555 1_555
C54 C42 1_555 1_555
H34 C54 1_555 1_555
C55 C22 1_555 1_555
C56 C38 1_555 1_555
H35 C56 1_555 1_555
H36 C56 1_555 1_555
H37 C56 1_555 1_555
C57 C48 1_555 1_555
H38 C57 1_555 1_555
C59 C50 1_555 1_555
C60 C53 1_555 1_555
H40 C60 1_555 1_555
H41 C60 1_555 1_555
H42 C60 1_555 1_555
C61 C35 1_555 1_555
H43 C61 1_555 1_555
H44 C61 1_555 1_555
H45 C61 1_555 1_555
C62 C59 1_555 1_555
H46 C62 1_555 1_555
H47 C62 1_555 1_555
H48 C62 1_555 1_555
Zn7 O1 1_555 1_555
O13 Zn4 1_555 1_555
O6 Zn7 1_555 1_555
C30 C33 1_555 1_555
C32 C46 1_555 1_555
C39 C55 1_555 1_555
C41 C49 1_555 1_555
C43 C45 1_555 1_555
C44 C50 1_555 1_555
C45 C54 1_555 1_555
C47 C55 1_555 1_555
C57 C59 1_555 1_555
Zn7 O4 1_555 1_555
O4 C16 1_555 1_555
O13 C16 1_555 1_555
C15 C16 1_555 1_555
C34 C15 1_555 1_555
H20 C34 1_555 1_555
C58 C15 1_555 1_555
H39 C58 1_555 1_555
Zn2 O4_2 1_555 1_555
O4_2 C16_2 1_555 1_555
O8 C16_2 1_555 1_555
C15_2 C16_2 1_555 1_555
C34_2 C15_2 1_555 1_555
H20_2 C34_2 1_555 1_555
C58_2 C15_2 1_555 1_555
H39_2 C58_2 1_555 1_555
Zn3 O8 1_555 1_555
O9 Zn2 1_555 1_555
O11 Zn2 1_555 1_555
O12 Zn2 1_555 1_555
N3 Zn2 1_555 1_555
Zn3 O5_2 1_555 1_555
O9 C6_2 1_555 1_555
O5_2 C6_2 1_555 1_555
O12 C28_2 1_555 1_555
O7_2 Zn3 1_555 1_555
C2_2 C6_2 1_555 1_555
C11_2 C9_2 1_555 1_555
H4_2 C11_2 1_555 1_555
C12_2 C2_2 1_555 1_555
H5_2 C12_2 1_555 1_555
C18_2 C9_2 1_555 1_555
H8_2 C18_2 1_555 1_555
C19_2 C12_2 1_555 1_555
H9_2 C19_2 1_555 1_555
C22_2 C35_2 1_555 1_555
C23_2 C2_2 1_555 1_555
H12_2 C23_2 1_555 1_555
C28_2 O7_2 1_555 1_555
C30_2 H16_2 1_555 1_555
C32_2 C19_2 1_555 1_555
C33_2 C28_2 1_555 1_555
C35_2 C52_2 1_555 1_555
C37_2 C22_2 1_555 1_555
H24_2 C37_2 1_555 1_555
C38_2 C37_2 1_555 1_555
C39_2 C11_2 1_555 1_555
H25_2 C39_2 1_555 1_555
C40_2 C30_2 1_555 1_555
H26_2 C40_2 1_555 1_555
C41_2 C48_2 1_555 1_555
C42_2 C33_2 1_555 1_555
H27_2 C42_2 1_555 1_555
C43_2 C38_2 1_555 1_555
C44_2 H28_2 1_555 1_555
C45_2 C40_2 1_555 1_555
C46_2 C23_2 1_555 1_555
H29_2 C46_2 1_555 1_555
C47_2 C18_2 1_555 1_555
H30_2 C47_2 1_555 1_555
C48_2 C53_2 1_555 1_555
H31_2 C49_2 1_555 1_555
C50_2 C32_2 1_555 1_555
C51_2 C41_2 1_555 1_555
H32_2 C51_2 1_555 1_555
C52_2 C43_2 1_555 1_555
H33_2 C52_2 1_555 1_555
C53_2 C44_2 1_555 1_555
C54_2 C42_2 1_555 1_555
H34_2 C54_2 1_555 1_555
C55_2 C22_2 1_555 1_555
C56_2 C38_2 1_555 1_555
H35_2 C56_2 1_555 1_555
H36_2 C56_2 1_555 1_555
H37_2 C56_2 1_555 1_555
C57_2 C48_2 1_555 1_555
H38_2 C57_2 1_555 1_555
C59_2 C50_2 1_555 1_555
C60_2 C53_2 1_555 1_555
H40_2 C60_2 1_555 1_555
H41_2 C60_2 1_555 1_555
H42_2 C60_2 1_555 1_555
C61_2 C35_2 1_555 1_555
H43_2 C61_2 1_555 1_555
H44_2 C61_2 1_555 1_555
H45_2 C61_2 1_555 1_555
C62_2 C59_2 1_555 1_555
H46_2 C62_2 1_555 1_555
H47_2 C62_2 1_555 1_555
H48_2 C62_2 1_555 1_555
O10 Zn3 1_555 1_555
C30_2 C33_2 1_555 1_555
C32_2 C46_2 1_555 1_555
C39_2 C55_2 1_555 1_555
C41_2 C49_2 1_555 1_555
C43_2 C45_2 1_555 1_555
C44_2 C50_2 1_555 1_555
C45_2 C54_2 1_555 1_555
C47_2 C55_2 1_555 1_555
C57_2 C59_2 1_555 1_555
O10 C10_2 1_555 1_555
O11 C10_2 1_555 1_555
N3 C5_2 1_555 1_555
C1_2 H1_2 1_555 1_555
C3_2 C1_2 1_555 1_555
C4_2 C8_2 1_555 1_555
C5_2 C1_2 1_555 1_555
H2_2 C5_2 1_555 1_555
C7_2 C13_2 1_555 1_555
C8_2 H3_2 1_555 1_555
C13_2 H6_2 1_555 1_555
C14_2 C4_2 1_555 1_555
C17_2 C3_2 1_555 1_555
H7_2 C17_2 1_555 1_555
C20_2 N3 1_555 1_555
H10_2 C20_2 1_555 1_555
C21_2 H11_2 1_555 1_555
C24_2 C4_2 1_555 1_555
H13_2 C24_2 1_555 1_555
C25_2 N1_2 1_555 1_555
H14_2 C25_2 1_555 1_555
C26_2 N1_2 1_555 1_555
H15_2 C26_2 1_555 1_555
C27_2 C3_2 1_555 1_555
C29_2 C14_2 1_555 1_555
C31_2 C7_2 1_555 1_555
H17_2 C31_2 1_555 1_555
H18_2 C31_2 1_555 1_555
H19_2 C31_2 1_555 1_555
C36_2 C29_2 1_555 1_555
H21_2 C36_2 1_555 1_555
H22_2 C36_2 1_555 1_555
H23_2 C36_2 1_555 1_555
C7_2 C27_2 1_555 1_555
C8_2 C26_2 1_555 1_555
C13_2 C14_2 1_555 1_555
C17_2 C20_2 1_555 1_555
C21_2 C27_2 1_555 1_555
C21_2 C29_2 1_555 1_555
C24_2 C25_2 1_555 1_555
N5 C116 1_555 1_555
C116 H86 1_555 1_555
C117 C116 1_555 1_555
H87 C117 1_555 1_555
C118 C117 1_555 1_555
C120 H89 1_555 1_555
H90 C120 1_555 1_555
H91 C120 1_555 1_555
C121 C118 1_555 1_555
C120 C122 1_555 1_555
C121 C122 1_555 1_555
H88 C119 1_555 1_555
H92 C124 1_555 1_555
C119 C124 1_555 1_555
C123 H96 1_555 1_555
Zn11 O15 1_555 1_555
O14 C67 1_555 1_555
O15 C67 1_555 1_555
O16 C65 1_555 1_555
O17 Zn11 1_555 1_555
C64 C65 1_555 1_555
C65 O17 1_555 1_555
C66 C64 1_555 1_555
H50 C66 1_555 1_555
C67 C72 1_555 1_555
C68 C76 1_555 1_555
C69 C64 1_555 1_555
H51 C69 1_555 1_555
C71 H53 1_555 1_555
C73 C66 1_555 1_555
H54 C73 1_555 1_555
C74 C71 1_555 1_555
C76 C82 1_555 1_555
C79 C72 1_555 1_555
H56 C79 1_555 1_555
C80 C71 1_555 1_555
C81 C69 1_555 1_555
H57 C81 1_555 1_555
C82 C79 1_555 1_555
H58 C82 1_555 1_555
C84 C73 1_555 1_555
H60 C85 1_555 1_555
C90 C80 1_555 1_555
H64 C90 1_555 1_555
H65 C90 1_555 1_555
H66 C90 1_555 1_555
H67 C92 1_555 1_555
O20 C106 1_555 1_555
O21 C106 1_555 1_555
C105 C106 1_555 1_555
C107 C105 1_555 1_555
H78 C107 1_555 1_555
C108 C105 1_555 1_555
H79 C108 1_555 1_555
C109 H80 1_555 1_555
C110 C107 1_555 1_555
H81 C110 1_555 1_555
C111 C80 1_555 1_555
C112 C74 1_555 1_555
C113 C108 1_555 1_555
H82 C113 1_555 1_555
C114 C110 1_555 1_555
C115 C112 1_555 1_555
H83 C115 1_555 1_555
H84 C115 1_555 1_555
H85 C115 1_555 1_555
Zn14 O21 1_555 1_555
C74 C84 1_555 1_555
C81 C84 1_555 1_555
C85 C92 1_555 1_555
C109 C111 1_555 1_555
C109 C112 1_555 1_555
C111 C114 1_555 1_555
C113 C114 1_555 1_555
C91 H93 1_555 1_555
C63 N4 1_555 1_555
H49 C63 1_555 1_555
C70 C63 1_555 1_555
H52 C70 1_555 1_555
C75 C70 1_555 1_555
C78 H55 1_555 1_555
H59 C83 1_555 1_555
C87 H61 1_555 1_555
H62 C87 1_555 1_555
H63 C87 1_555 1_555
C88 C75 1_555 1_555
C89 C87 1_555 1_555
C104 C98 1_555 1_555
H75 C104 1_555 1_555
H76 C104 1_555 1_555
C78 C83 1_555 1_555
C88 C89 1_555 1_555
C98 C103 1_555 1_555
C103 H95 1_555 1_555
C86 C77 1_555 1_555
C93 C77 1_555 1_555
H68 C93 1_555 1_555
H69 C93 1_555 1_555
C99 H71 1_555 1_555
H74 C102 1_555 1_555
C99 C102 1_555 1_555
C86 H94 1_555 1_555
O23 C94 1_555 1_555
O19 C94 1_555 1_555
C94 C96 1_555 1_555
C97 C95 1_555 1_555
C100 C96 1_555 1_555
H72 C100 1_555 1_555
C101 C97 1_555 1_555
H73 C101 1_555 1_555
Zn14 O19 1_555 1_555
C100 C101 1_555 1_555

#END
