
###############################################################################
#
# This file contains modified crystal structure data generated from the
# MOF subset of the Cambridge Structural Database (CSD) v543 
# hosted by the Cambridge Crystallographic Data Centre (CCDC).
#
# This work is licensed under the Creative Commons
# Attribution-NonCommercial-ShareAlike 4.0 International License.
# To view a copy of this license, visit
# http://creativecommons.org/licenses/by-nc-sa/4.0/
# or send a letter to
# Creative Commons, PO Box 1866, Mountain View, CA 94042, USA.
#
# CIF created using the CSD Python API on 29 September 2022
# The structure has been converted into the P1 space group
# The structure has a 3D framework
# The original CSD entry ALAMUW is in the rhombohedral crystal system
# The framework has been calculated to contain at least 10.0% void space
# The void calculation uses a probe of radius 1.32A, grid spacing 0.4
#
###############################################################################

data_ALAMUW
_chemical_formula_moiety         '(C300 H210 Cu18 N36 O114)n'
_symmetry_cell_setting           triclinic
_symmetry_space_group_name_H-M   'P 1'
_symmetry_Int_Tables_number      1
_space_group_name_Hall           'P 1'
loop_
_symmetry_equiv_pos_site_id
_symmetry_equiv_pos_as_xyz
1 x,y,z
_cell_length_a                   18.794(7)
_cell_length_b                   18.794(7)
_cell_length_c                   50.17(2)
_cell_angle_alpha                90
_cell_angle_beta                 90
_cell_angle_gamma                120
_cell_volume                     15346.6
loop_
_atom_site_label
_atom_site_type_symbol
_atom_site_fract_x
_atom_site_fract_y
_atom_site_fract_z
C26 C 0.0266(5) 0.2393(5) 0.31325(15)
O11 O 0.0771(3) 0.3001(3) 0.29928(9)
O12 O 0.0383(3) 0.2222(2) 0.33690(8)
C30 C 0.0625 0.5313 0.0781
H16 H 0.0128 0.5065 0.0689
C32 C 0.1266 0.5632 0.1144
H19 H 0.1187 0.5593 0.1334
H20 H 0.1568 0.6200 0.1093
Cu2 Cu 0.04569(6) 0.52285(7) 0.02198(2)
N4 N 0.04 0.52 0.1
O14 O 0.1136(6) 0.5568(7) 0.05899(17)
H22 H 0.1568 0.5368 0.1093
Cu5 Cu 0.14383(3) 0.28764(6) 0.35531(2)
Cu8 Cu 0.18952(7) 0.37902(6) 0.31135(2)
O17 O 0.1111(2) 0.6284(3) 0.00357(8)
O20 O 0.1111(2) 0.4827(4) 0.00357(8)
C1 C 0.7294(5) 0.1369(5) 0.06006(15)
H1 H 0.6906 0.0896 0.0688
C2 C 0.7761(3) 0.2239(3) 0.01946(19)
H2 H 0.7677 0.2323 0.0017
C3 C 0.6401(5) 0.0940(5) 0.02008(15)
C4 C 0.8026(4) 0.1974(4) 0.0724(3)
C5 C 0.7703 0.12 0.1139
C6 C 0.8036 0.1404 0.1436
C7 C 0.7564 0.09 0.1667
H3 H 0.7068 0.0406 0.1667
C9 C 0.5151 0.0301 0.1114
H5 H 0.5114 0.0227 0.1304
H6 H 0.4885 0.0602 0.1062
N1 N 0.8127(4) 0.1873(4) 0.1027(3)
O1 O 0.5896(3) 0.0332(3) 0.03405(9)
O3 O 0.7 0.06 0.11
C11 C 0.7204(4) 0.1546(4) 0.03367(13)
C12 C 0.8036(5) 0.0627(5) 0.27327(15)
H9 H 0.7563 0.0239 0.2645
C13 C 0.8906(3) 0.1094(3) 0.31387(19)
H10 H 0.8990 0.1010 0.3316
C15 C 0.8641(4) 0.1359(4) 0.2609(3)
C16 C 0.786667 0.1036 0.2194
C17 C 0.8071 0.1369 0.1897
N3 N 0.8540(4) 0.1460(4) 0.2306(3)
O7 O 0.726667 0.033333 0.223333
C18 C 0.8213(4) 0.0537(4) 0.29966(13)
C19 C 0.8631(5) 0.2706(5) 0.06006(15)
H11 H 0.9104 0.3094 0.0688
C20 C 0.9060(5) 0.3599(5) 0.02008(15)
C21 C 0.88 0.2297 0.1139
C22 C 0.8596 0.1964 0.1436
C23 C 0.91 0.2436 0.1667
H12 H 0.9594 0.2932 0.1667
O8 O 0.9668(3) 0.4104(3) 0.03405(9)
O10 O 0.94 0.3 0.11
C24 C 0.8454(4) 0.2796(4) 0.03367(13)
C25 C 0.9373(5) 0.1964(5) 0.27327(15)
H13 H 0.9761 0.2437 0.2645
C27 C 0.8964 0.213333 0.2194
C28 C 0.8631 0.1929 0.1897
O13 O 0.966667 0.273333 0.223333
C29 C 0.9463(4) 0.1787(4) 0.29966(13)
H14 H 0.5717 0.0602 0.1062
C31 C 0.9699 0.4850 0.1114
H17 H 0.9773 0.4887 0.1304
H18 H 0.9398 0.4283 0.1062
H21 H 0.9398 0.5115 0.1062
O15 O 0.9668(3) 0.5564(4) 0.03405(9)
O16 O 0.4436(4) 0.0332(3) 0.03405(9)
O2 O 0.6284(3) 0.1111(2) 0.99643(8)
O9 O 0.8889(2) 0.3716(3) 0.99643(8)
Cu3 Cu 0.95431(6) 0.47716(3) 0.97802(2)
Cu4 Cu 0.52285(7) 0.04569(6) 0.97802(2)
C8 C 0.4688 0.9375 0.0781
H4 H 0.4937 0.9872 0.0689
C10 C 0.4366 0.8734 0.1144
H7 H 0.4406 0.8813 0.1334
H8 H 0.4632 0.8432 0.1093
Cu1 Cu 0.47716(3) 0.95431(6) 0.02198(2)
N2 N 0.48 0.96 0.1
O4 O 0.4432(3) 0.8864(6) 0.05899(17)
C14 C 0.7607(5) 0.9734(5) 0.31325(15)
O5 O 0.6999(3) 0.9229(3) 0.29928(9)
O6 O 0.7778(2) 0.9617(3) 0.33690(8)
H15 H 0.3800 0.8432 0.1093
Cu6 Cu 0.71236(6) 0.85618(7) 0.35531(2)
Cu7 Cu 0.62098(6) 0.81049(3) 0.31135(2)
O18 O 0.5173(4) 0.8889(2) 0.00357(8)
O19 O 0.3716(3) 0.8889(2) 0.00357(8)
C14_2 C 0.0266(5) 0.7872(7) 0.31325(15)
O5_2 O 0.0771(3) 0.7769(4) 0.29928(9)
O6_2 O 0.0383(3) 0.8160(4) 0.33690(8)
Cu6_2 Cu 0.14382(7) 0.85617(9) 0.35531(2)
Cu7_2 Cu 0.18951(3) 0.81048(7) 0.31135(2)
C1_2 C 0.8631(5) 0.5925(7) 0.06006(15)
H1_2 H 0.9104 0.6010 0.0688
C2_2 C 0.7761(3) 0.5522(4) 0.01946(19)
H2_2 H 0.7677 0.5354 0.0017
C3_2 C 0.9060(5) 0.5461(7) 0.02008(15)
C4_2 C 0.8026(4) 0.6052(6) 0.0724(3)
C5_2 C 0.88 0.6503 0.1139
C6_2 C 0.8596 0.6632 0.1436
C7_2 C 0.91 0.6664 0.1667
H3_2 H 0.9594 0.6662 0.1667
N1_2 N 0.8127(4) 0.6254(6) 0.1027(3)
O3_2 O 0.94 0.64 0.11
C11_2 C 0.8454(4) 0.5658(6) 0.03367(13)
C12_2 C 0.9373(5) 0.7408(7) 0.27327(15)
H9_2 H 0.9761 0.7323 0.2645
C13_2 C 0.8906(3) 0.7811(4) 0.31387(19)
H10_2 H 0.8990 0.7979 0.3316
C15_2 C 0.8641(4) 0.7281(6) 0.2609(3)
C16_2 C 0.8964 0.683033 0.2194
C17_2 C 0.8631 0.6701 0.1897
N3_2 N 0.8540(4) 0.7079(6) 0.2306(3)
O7_2 O 0.966667 0.693333 0.223333
C18_2 C 0.9463(4) 0.7675(6) 0.29966(13)
C19_2 C 0.7294(5) 0.5925(7) 0.06006(15)
H11_2 H 0.6906 0.6010 0.0688
C20_2 C 0.6401(5) 0.5461(7) 0.02008(15)
C21_2 C 0.7703 0.6503 0.1139
C22_2 C 0.8036 0.6632 0.1436
C23_2 C 0.7564 0.6664 0.1667
H12_2 H 0.7068 0.6662 0.1667
O8_2 O 0.5896(3) 0.5564(4) 0.03405(9)
O10_2 O 0.7 0.64 0.11
C24_2 C 0.7204(4) 0.5658(6) 0.03367(13)
C25_2 C 0.8036(5) 0.7408(7) 0.27327(15)
H13_2 H 0.7563 0.7323 0.2645
C26_2 C 0.7607(5) 0.7872(7) 0.31325(15)
C27_2 C 0.786667 0.683033 0.2194
C28_2 C 0.8071 0.6701 0.1897
O11_2 O 0.6999(3) 0.7769(4) 0.29928(9)
O12_2 O 0.7778(2) 0.8160(4) 0.33690(8)
O13_2 O 0.726667 0.693333 0.223333
C29_2 C 0.8213(4) 0.7675(6) 0.29966(13)
C30_2 C 0.4687 0.5312 0.0781
H16_2 H 0.4935 0.5063 0.0689
C31_2 C 0.5150 0.4849 0.1114
H17_2 H 0.5113 0.4886 0.1304
H18_2 H 0.5717 0.5115 0.1062
C32_2 C 0.4368 0.5634 0.1144
H19_2 H 0.4407 0.5594 0.1334
H20_2 H 0.3800 0.5368 0.1093
Cu2_2 Cu 0.47715(7) 0.52284(9) 0.02198(2)
N4_2 N 0.48 0.52 0.1
O14_2 O 0.4432(7) 0.5568(9) 0.05899(17)
H21_2 H 0.4885 0.4283 0.1062
H22_2 H 0.4632 0.6200 0.1093
O15_2 O 0.4436(4) 0.4104(5) 0.03405(9)
O17_2 O 0.3716(3) 0.4827(4) 0.00357(8)
O20_2 O 0.5173(4) 0.6284(4) 0.00357(8)
O2_2 O 0.8889(2) 0.5173(4) 0.99643(8)
O9_2 O 0.6284(3) 0.5173(4) 0.99643(8)
Cu3_2 Cu 0.52284(3) 0.47715(7) 0.97802(2)
C1_3 C 0.4075(7) 0.2706(5) 0.06006(15)
H1_3 H 0.3990 0.3094 0.0688
C2_3 C 0.4478(4) 0.2239(3) 0.01946(19)
H2_3 H 0.4646 0.2323 0.0017
C3_3 C 0.4539(7) 0.3599(5) 0.02008(15)
C4_3 C 0.3948(6) 0.1974(4) 0.0724(3)
C5_3 C 0.3497 0.2297 0.1139
C6_3 C 0.3368 0.1964 0.1436
C7_3 C 0.3336 0.2436 0.1667
H3_3 H 0.3338 0.2932 0.1667
N1_3 N 0.3746(6) 0.1873(4) 0.1027(3)
O3_3 O 0.36 0.3 0.11
C11_3 C 0.4342(6) 0.2796(4) 0.03367(13)
C12_3 C 0.2592(7) 0.1964(5) 0.27327(15)
H9_3 H 0.2677 0.2437 0.2645
C13_3 C 0.2189(4) 0.1094(3) 0.31387(19)
H10_3 H 0.2021 0.1010 0.3316
C14_3 C 0.2128(7) 0.2393(5) 0.31325(15)
C15_3 C 0.2719(6) 0.1359(4) 0.2609(3)
C16_3 C 0.316967 0.213333 0.2194
C17_3 C 0.3299 0.1929 0.1897
N3_3 N 0.2921(6) 0.1460(4) 0.2306(3)
O5_3 O 0.2231(4) 0.3001(3) 0.29928(9)
O6_3 O 0.1840(4) 0.2222(2) 0.33690(8)
O7_3 O 0.306667 0.273333 0.223333
C18_3 C 0.2325(6) 0.1787(4) 0.29966(13)
C19_3 C 0.4075(7) 0.1369(5) 0.06006(15)
H11_3 H 0.3990 0.0896 0.0688
C20_3 C 0.4539(7) 0.0940(5) 0.02008(15)
C21_3 C 0.3497 0.12 0.1139
C22_3 C 0.3368 0.1404 0.1436
C23_3 C 0.3336 0.09 0.1667
H12_3 H 0.3338 0.0406 0.1667
O10_3 O 0.36 0.06 0.11
C24_3 C 0.4342(6) 0.1546(4) 0.03367(13)
C25_3 C 0.2592(7) 0.0627(5) 0.27327(15)
H13_3 H 0.2677 0.0239 0.2645
C27_3 C 0.316967 0.1036 0.2194
C28_3 C 0.3299 0.1369 0.1897
O13_3 O 0.306667 0.033333 0.223333
C29_3 C 0.2325(6) 0.0537(4) 0.29966(13)
O2_3 O 0.4827(4) 0.3716(3) 0.99643(8)
O9_3 O 0.4827(4) 0.1111(2) 0.99643(8)
C26_3 C 0.2128(7) 0.9734(5) 0.31325(15)
O11_3 O 0.2231(4) 0.9229(3) 0.29928(9)
O12_3 O 0.1840(4) 0.9617(3) 0.33690(8)
C26_4 C 0.2393(5) 0.0266(5) 0.68675(15)
O11_4 O 0.3001(3) 0.0771(3) 0.70072(9)
O12_4 O 0.2222(2) 0.0383(3) 0.66310(8)
C30_3 C 0.5313 0.0625 0.9219
H16_3 H 0.5065 0.0128 0.9311
C32_3 C 0.5632 0.1266 0.8856
H19_3 H 0.5593 0.1187 0.8666
H20_3 H 0.6200 0.1568 0.8907
N4_3 N 0.52 0.04 0.9
O14_3 O 0.5568(7) 0.1136(6) 0.94101(17)
H22_3 H 0.5368 0.1568 0.8907
Cu5_2 Cu 0.28764(6) 0.14383(3) 0.64469(2)
Cu8_2 Cu 0.37902(6) 0.18952(7) 0.68865(2)
C1_4 C 0.1369(5) 0.7294(5) 0.93994(15)
H1_4 H 0.0896 0.6906 0.9312
C2_4 C 0.2239(3) 0.7761(3) 0.98054(19)
H2_4 H 0.2323 0.7677 0.9983
C3_4 C 0.0940(5) 0.6401(5) 0.97992(15)
C4_4 C 0.1974(4) 0.8026(4) 0.9276(3)
C5_4 C 0.12 0.7703 0.8861
C6_4 C 0.1404 0.8036 0.8564
C7_4 C 0.09 0.7564 0.8333
H3_4 H 0.0406 0.7068 0.8333
C9_2 C 0.0301 0.5151 0.8886
H5_2 H 0.0227 0.5114 0.8696
H6_2 H 0.0602 0.4885 0.8938
N1_4 N 0.1873(4) 0.8127(4) 0.8973(3)
O1_2 O 0.0332(3) 0.5896(3) 0.96595(9)
O3_4 O 0.06 0.7 0.89
C11_4 C 0.1546(4) 0.7204(4) 0.96633(13)
C12_4 C 0.0627(5) 0.8036(5) 0.72673(15)
H9_4 H 0.0239 0.7563 0.7355
C13_4 C 0.1094(3) 0.8906(3) 0.68613(19)
H10_4 H 0.1010 0.8990 0.6684
C15_4 C 0.1359(4) 0.8641(4) 0.7391(3)
C16_4 C 0.1036 0.786667 0.7806
C17_4 C 0.1369 0.8071 0.8103
N3_4 N 0.1460(4) 0.8540(4) 0.7694(3)
O7_4 O 0.033333 0.726667 0.776667
C18_4 C 0.0537(4) 0.8213(4) 0.70034(13)
C19_4 C 0.2706(5) 0.8631(5) 0.93994(15)
H11_4 H 0.3094 0.9104 0.9312
C20_4 C 0.3599(5) 0.9060(5) 0.97992(15)
C21_4 C 0.2297 0.88 0.8861
C22_4 C 0.1964 0.8596 0.8564
C23_4 C 0.2436 0.91 0.8333
H12_4 H 0.2932 0.9594 0.8333
O8_3 O 0.4104(3) 0.9668(3) 0.96595(9)
O10_4 O 0.3 0.94 0.89
C24_4 C 0.2796(4) 0.8454(4) 0.96633(13)
C25_4 C 0.1964(5) 0.9373(5) 0.72673(15)
H13_4 H 0.2437 0.9761 0.7355
C27_4 C 0.213333 0.8964 0.7806
C28_4 C 0.1929 0.8631 0.8103
O13_4 O 0.273333 0.966667 0.776667
C29_4 C 0.1787(4) 0.9463(4) 0.70034(13)
H14_2 H 0.0602 0.5717 0.8938
C31_3 C 0.4850 0.9699 0.8886
H17_3 H 0.4887 0.9773 0.8696
H18_3 H 0.4283 0.9398 0.8938
H21_3 H 0.5115 0.9398 0.8938
O15_3 O 0.5564(4) 0.9668(3) 0.96595(9)
O16_2 O 0.0332(3) 0.4436(4) 0.96595(9)
C8_2 C 0.9375 0.4688 0.9219
H4_2 H 0.9872 0.4937 0.9311
C10_2 C 0.8734 0.4366 0.8856
H7_2 H 0.8813 0.4406 0.8666
H8_2 H 0.8432 0.4632 0.8907
N2_2 N 0.96 0.48 0.9
O4_2 O 0.8864(6) 0.4432(3) 0.94101(17)
C14_4 C 0.9734(5) 0.7607(5) 0.68675(15)
O5_4 O 0.9229(3) 0.6999(3) 0.70072(9)
O6_4 O 0.9617(3) 0.7778(2) 0.66310(8)
H15_2 H 0.8432 0.3800 0.8907
Cu6_3 Cu 0.85618(7) 0.71236(6) 0.64469(2)
Cu7_3 Cu 0.81049(3) 0.62098(6) 0.68865(2)
C1_5 C 0.2706(5) 0.4075(7) 0.93994(15)
H1_5 H 0.3094 0.3990 0.9312
C2_5 C 0.2239(3) 0.4478(4) 0.98054(19)
H2_5 H 0.2323 0.4646 0.9983
C3_5 C 0.3599(5) 0.4539(7) 0.97992(15)
C4_5 C 0.1974(4) 0.3948(6) 0.9276(3)
C5_5 C 0.2297 0.3497 0.8861
C6_5 C 0.1964 0.3368 0.8564
C7_5 C 0.2436 0.3336 0.8333
H3_5 H 0.2932 0.3338 0.8333
C8_3 C 0.5312 0.4687 0.9219
H4_3 H 0.5063 0.4935 0.9311
C9_3 C 0.4849 0.5150 0.8886
H5_3 H 0.4886 0.5113 0.8696
H6_3 H 0.5115 0.5717 0.8938
C10_3 C 0.5634 0.4368 0.8856
H7_3 H 0.5594 0.4407 0.8666
H8_3 H 0.5368 0.3800 0.8907
N1_5 N 0.1873(4) 0.3746(6) 0.8973(3)
N2_3 N 0.52 0.48 0.9
O1_3 O 0.4104(3) 0.4436(4) 0.96595(9)
O3_5 O 0.3 0.36 0.89
O4_3 O 0.5568(3) 0.4432(7) 0.94101(17)
C11_5 C 0.2796(4) 0.4342(6) 0.96633(13)
C12_5 C 0.1964(5) 0.2592(7) 0.72673(15)
H9_5 H 0.2437 0.2677 0.7355
C13_5 C 0.1094(3) 0.2189(4) 0.68613(19)
H10_5 H 0.1010 0.2021 0.6684
C14_5 C 0.2393(5) 0.2128(7) 0.68675(15)
C15_5 C 0.1359(4) 0.2719(6) 0.7391(3)
C16_5 C 0.213333 0.316967 0.7806
C17_5 C 0.1929 0.3299 0.8103
N3_5 N 0.1460(4) 0.2921(6) 0.7694(3)
O5_5 O 0.3001(3) 0.2231(4) 0.70072(9)
O6_5 O 0.2222(2) 0.1840(4) 0.66310(8)
O7_5 O 0.273333 0.306667 0.776667
C18_5 C 0.1787(4) 0.2325(6) 0.70034(13)
C19_5 C 0.1369(5) 0.4075(7) 0.93994(15)
H11_5 H 0.0896 0.3990 0.9312
C20_5 C 0.0940(5) 0.4539(7) 0.97992(15)
C21_5 C 0.12 0.3497 0.8861
C22_5 C 0.1404 0.3368 0.8564
C23_5 C 0.09 0.3336 0.8333
H12_5 H 0.0406 0.3338 0.8333
O10_5 O 0.06 0.36 0.89
C24_5 C 0.1546(4) 0.4342(6) 0.96633(13)
C25_5 C 0.0627(5) 0.2592(7) 0.72673(15)
H13_5 H 0.0239 0.2677 0.7355
C27_5 C 0.1036 0.316967 0.7806
C28_5 C 0.1369 0.3299 0.8103
O13_5 O 0.033333 0.306667 0.776667
C29_5 C 0.0537(4) 0.2325(6) 0.70034(13)
H14_3 H 0.4283 0.4885 0.8938
H15_3 H 0.6200 0.4632 0.8907
O16_3 O 0.5564(4) 0.5896(5) 0.96595(9)
C26_5 C 0.9734(5) 0.2128(7) 0.68675(15)
O11_5 O 0.9229(3) 0.2231(4) 0.70072(9)
O12_5 O 0.9617(3) 0.1840(4) 0.66310(8)
Cu5_3 Cu 0.85617(3) 0.14382(7) 0.64469(2)
Cu8_3 Cu 0.81048(7) 0.18951(9) 0.68865(2)
C14_6 C 0.7872(7) 0.0266(5) 0.68675(15)
O5_6 O 0.7769(4) 0.0771(3) 0.70072(9)
O6_6 O 0.8160(4) 0.0383(3) 0.66310(8)
C1_6 C 0.5925(7) 0.8631(5) 0.93994(15)
H1_6 H 0.6010 0.9104 0.9312
C2_6 C 0.5522(4) 0.7761(3) 0.98054(19)
H2_6 H 0.5354 0.7677 0.9983
C3_6 C 0.5461(7) 0.9060(5) 0.97992(15)
C4_6 C 0.6052(6) 0.8026(4) 0.9276(3)
C5_6 C 0.6503 0.88 0.8861
C6_6 C 0.6632 0.8596 0.8564
C7_6 C 0.6664 0.91 0.8333
H3_6 H 0.6662 0.9594 0.8333
N1_6 N 0.6254(6) 0.8127(4) 0.8973(3)
O3_6 O 0.64 0.94 0.89
C11_6 C 0.5658(6) 0.8454(4) 0.96633(13)
C12_6 C 0.7408(7) 0.9373(5) 0.72673(15)
H9_6 H 0.7323 0.9761 0.7355
C13_6 C 0.7811(4) 0.8906(3) 0.68613(19)
H10_6 H 0.7979 0.8990 0.6684
C15_6 C 0.7281(6) 0.8641(4) 0.7391(3)
C16_6 C 0.683033 0.8964 0.7806
C17_6 C 0.6701 0.8631 0.8103
N3_6 N 0.7079(6) 0.8540(4) 0.7694(3)
O7_6 O 0.693333 0.966667 0.776667
C18_6 C 0.7675(6) 0.9463(4) 0.70034(13)
C19_6 C 0.5925(7) 0.7294(5) 0.93994(15)
H11_6 H 0.6010 0.6906 0.9312
C20_6 C 0.5461(7) 0.6401(5) 0.97992(15)
C21_6 C 0.6503 0.7703 0.8861
C22_6 C 0.6632 0.8036 0.8564
C23_6 C 0.6664 0.7564 0.8333
H12_6 H 0.6662 0.7068 0.8333
O10_6 O 0.64 0.7 0.89
C24_6 C 0.5658(6) 0.7204(4) 0.96633(13)
C25_6 C 0.7408(7) 0.8036(5) 0.72673(15)
H13_6 H 0.7323 0.7563 0.7355
C26_6 C 0.7872(7) 0.7607(5) 0.68675(15)
C27_6 C 0.683033 0.786667 0.7806
C28_6 C 0.6701 0.8071 0.8103
O11_6 O 0.7769(4) 0.6999(3) 0.70072(9)
O12_6 O 0.8160(4) 0.7778(2) 0.66310(8)
O13_6 O 0.693333 0.726667 0.776667
C29_6 C 0.7675(6) 0.8213(4) 0.70034(13)
C1_7 C 0.3961(5) 0.4702(5) 0.39339(15)
H1_7 H 0.3573 0.4229 0.4021
C2_7 C 0.4428(3) 0.5572(3) 0.35279(19)
H2_7 H 0.4344 0.5656 0.3350
C3_7 C 0.3068(5) 0.4273(5) 0.35341(15)
C4_7 C 0.4693(4) 0.5307(4) 0.4057(3)
C5_7 C 0.4370 0.453333 0.4472
C6_7 C 0.4703 0.4737 0.4769
C7_7 C 0.4231 0.423333 0.5000
H3_7 H 0.3735 0.3739 0.5000
C8_4 C 0.1355 0.2708 0.4114
H4_4 H 0.1604 0.3205 0.4022
C9_4 C 0.1818 0.3634 0.4447
H5_4 H 0.1781 0.3560 0.4637
H6_4 H 0.1552 0.3935 0.4395
C10_4 C 0.1033 0.2067 0.4477
H7_4 H 0.1073 0.2146 0.4667
H8_4 H 0.1299 0.1765 0.4426
N1_7 N 0.4794(4) 0.5206(4) 0.4360(3)
N2_4 N 0.146667 0.293333 0.433333
O1_4 O 0.2563(3) 0.3665(3) 0.36738(9)
O2_4 O 0.2951(3) 0.4444(2) 0.32976(8)
O3_7 O 0.366667 0.393333 0.443333
O4_4 O 0.1099(3) 0.2197(6) 0.39232(17)
C11_7 C 0.3871(4) 0.4879(4) 0.36700(13)
C12_7 C 0.4702(5) 0.3961(5) 0.60661(15)
H9_7 H 0.4229 0.3573 0.5979
C13_7 C 0.5572(3) 0.4428(3) 0.64721(19)
H10_7 H 0.5656 0.4344 0.6650
C14_7 C 0.4273(5) 0.3068(5) 0.64659(15)
C15_7 C 0.5307(4) 0.4693(4) 0.5943(3)
C16_7 C 0.453333 0.4370 0.5528
C17_7 C 0.4737 0.4703 0.5231
N3_7 N 0.5206(4) 0.4794(4) 0.5640(3)
O5_7 O 0.3665(3) 0.2563(3) 0.63262(9)
O6_7 O 0.4444(2) 0.2951(3) 0.67024(8)
O7_7 O 0.393333 0.366667 0.556667
C18_7 C 0.4879(4) 0.3871(4) 0.63300(13)
C19_7 C 0.5298(5) 0.6039(5) 0.39339(15)
H11_7 H 0.5771 0.6427 0.4021
C20_7 C 0.5727(5) 0.6932(5) 0.35341(15)
C21_7 C 0.546667 0.5630 0.4472
C22_7 C 0.5263 0.5297 0.4769
C23_7 C 0.576667 0.5769 0.5000
H12_7 H 0.6261 0.6265 0.5000
O8_4 O 0.6335(3) 0.7437(3) 0.36738(9)
O9_4 O 0.5556(2) 0.7049(3) 0.32976(8)
O10_7 O 0.606667 0.633333 0.443333
C24_7 C 0.5121(4) 0.6129(4) 0.36700(13)
C25_7 C 0.6039(5) 0.5298(5) 0.60661(15)
H13_7 H 0.6427 0.5771 0.5979
C26_7 C 0.6932(5) 0.5727(5) 0.64659(15)
C27_7 C 0.5630 0.546667 0.5528
C28_7 C 0.5297 0.5263 0.5231
O11_7 O 0.7437(3) 0.6335(3) 0.63262(9)
O12_7 O 0.7049(3) 0.5556(2) 0.67024(8)
O13_7 O 0.633333 0.606667 0.556667
C29_7 C 0.6129(4) 0.5121(4) 0.63300(13)
H14_4 H 0.2384 0.3935 0.4395
H15_4 H 0.0467 0.1765 0.4426
C30_4 C 0.7292 0.8646 0.4114
H16_4 H 0.6795 0.8398 0.4022
C31_4 C 0.6366 0.8183 0.4447
H17_4 H 0.6440 0.8220 0.4637
H18_4 H 0.6065 0.7616 0.4395
C32_4 C 0.7933 0.8965 0.4477
H19_4 H 0.7854 0.8926 0.4667
H20_4 H 0.8235 0.9533 0.4426
N4_4 N 0.706667 0.853333 0.433333
O14_4 O 0.7803(6) 0.8901(7) 0.39232(17)
H21_4 H 0.6065 0.8448 0.4395
H22_4 H 0.8235 0.8701 0.4426
O15_4 O 0.6335(3) 0.8897(4) 0.36738(9)
O16_4 O 0.1103(4) 0.3665(3) 0.36738(9)
C12_8 C 0.6039(5) 0.0742(7) 0.60661(15)
H9_8 H 0.6427 0.0657 0.5979
C13_8 C 0.5572(3) 0.1145(4) 0.64721(19)
H10_8 H 0.5656 0.1313 0.6650
C14_8 C 0.6932(5) 0.1206(7) 0.64659(15)
C15_8 C 0.5307(4) 0.0615(6) 0.5943(3)
C16_8 C 0.5630 0.016367 0.5528
C17_8 C 0.5297 0.0035 0.5231
N3_8 N 0.5206(4) 0.0413(6) 0.5640(3)
O5_8 O 0.7437(3) 0.1103(4) 0.63262(9)
O6_8 O 0.7049(3) 0.1494(4) 0.67024(8)
O7_8 O 0.633333 0.026667 0.556667
C18_8 C 0.6129(4) 0.1009(6) 0.63300(13)
C25_8 C 0.4702(5) 0.0742(7) 0.60661(15)
H13_8 H 0.4229 0.0657 0.5979
C26_8 C 0.4273(5) 0.1206(7) 0.64659(15)
C27_8 C 0.453333 0.016367 0.5528
C28_8 C 0.4737 0.0035 0.5231
O11_8 O 0.3665(3) 0.1103(4) 0.63262(9)
O12_8 O 0.4444(2) 0.1494(4) 0.67024(8)
O13_8 O 0.393333 0.026667 0.556667
C29_8 C 0.4879(4) 0.1009(6) 0.63300(13)
C1_8 C 0.5298(5) 0.9258(7) 0.39339(15)
H1_8 H 0.5771 0.9343 0.4021
C2_8 C 0.4428(3) 0.8855(4) 0.35279(19)
H2_8 H 0.4344 0.8687 0.3350
C3_8 C 0.5727(5) 0.8794(7) 0.35341(15)
C4_8 C 0.4693(4) 0.9385(6) 0.4057(3)
C5_8 C 0.546667 0.9836 0.4472
C6_8 C 0.5263 0.9965 0.4769
C7_8 C 0.576667 0.9997 0.5000
H3_8 H 0.6261 0.9995 0.5000
N1_8 N 0.4794(4) 0.9587(6) 0.4360(3)
O2_5 O 0.5556(2) 0.8506(4) 0.32976(8)
O3_8 O 0.606667 0.973333 0.443333
C11_8 C 0.5121(4) 0.8991(6) 0.36700(13)
C19_8 C 0.3961(5) 0.9258(7) 0.39339(15)
H11_8 H 0.3573 0.9343 0.4021
C20_8 C 0.3068(5) 0.8794(7) 0.35341(15)
C21_8 C 0.4370 0.9836 0.4472
C22_8 C 0.4703 0.9965 0.4769
C23_8 C 0.4231 0.9997 0.5000
H12_8 H 0.3735 0.9995 0.5000
O8_5 O 0.2563(3) 0.8897(4) 0.36738(9)
O9_5 O 0.2951(3) 0.8506(4) 0.32976(8)
O10_8 O 0.366667 0.973333 0.443333
C24_8 C 0.3871(4) 0.8991(6) 0.36700(13)
C30_5 C 0.1354 0.8645 0.4114
H16_5 H 0.1602 0.8396 0.4022
C31_5 C 0.1817 0.8182 0.4447
H17_5 H 0.1780 0.8219 0.4637
H18_5 H 0.2384 0.8448 0.4395
C32_5 C 0.1035 0.8967 0.4477
H19_5 H 0.1074 0.8927 0.4667
H20_5 H 0.0467 0.8701 0.4426
N4_5 N 0.146667 0.853333 0.433333
O14_5 O 0.1099(7) 0.8901(9) 0.39232(17)
H21_5 H 0.1552 0.7616 0.4395
H22_5 H 0.1299 0.9533 0.4426
O15_5 O 0.1103(4) 0.7437(5) 0.36738(9)
C1_9 C 0.0742(7) 0.6039(5) 0.39339(15)
H1_9 H 0.0657 0.6427 0.4021
C2_9 C 0.1145(4) 0.5572(3) 0.35279(19)
H2_9 H 0.1313 0.5656 0.3350
C3_9 C 0.1206(7) 0.6932(5) 0.35341(15)
C4_9 C 0.0615(6) 0.5307(4) 0.4057(3)
C5_9 C 0.0164 0.5630 0.4472
C6_9 C 0.0035 0.5297 0.4769
C7_9 C 0.0003 0.5769 0.5000
H3_9 H 0.0005 0.6265 0.5000
N1_9 N 0.0413(6) 0.5206(4) 0.4360(3)
O2_6 O 0.1494(4) 0.7049(3) 0.32976(8)
O3_9 O 0.026667 0.633333 0.443333
C11_9 C 0.1009(6) 0.6129(4) 0.36700(13)
C19_9 C 0.0742(7) 0.4702(5) 0.39339(15)
H11_9 H 0.0657 0.4229 0.4021
C20_9 C 0.1206(7) 0.4273(5) 0.35341(15)
C21_9 C 0.0164 0.453333 0.4472
C22_9 C 0.0035 0.4737 0.4769
C23_9 C 0.0003 0.423333 0.5000
H12_9 H 0.0005 0.3739 0.5000
O9_6 O 0.1494(4) 0.4444(2) 0.32976(8)
O10_9 O 0.026667 0.393333 0.443333
C24_9 C 0.1009(6) 0.4879(4) 0.36700(13)
C12_9 C 0.9258(7) 0.5298(5) 0.60661(15)
H9_9 H 0.9343 0.5771 0.5979
C13_9 C 0.8855(4) 0.4428(3) 0.64721(19)
H10_9 H 0.8687 0.4344 0.6650
C14_9 C 0.8794(7) 0.5727(5) 0.64659(15)
C15_9 C 0.9385(6) 0.4693(4) 0.5943(3)
C16_9 C 0.983633 0.546667 0.5528
C17_9 C 0.9965 0.5263 0.5231
N3_9 N 0.9587(6) 0.4794(4) 0.5640(3)
O5_9 O 0.8897(4) 0.6335(3) 0.63262(9)
O6_9 O 0.8506(4) 0.5556(2) 0.67024(8)
O7_9 O 0.973333 0.606667 0.556667
C18_9 C 0.8991(6) 0.5121(4) 0.63300(13)
C25_9 C 0.9258(7) 0.3961(5) 0.60661(15)
H13_9 H 0.9343 0.3573 0.5979
C26_9 C 0.8794(7) 0.3068(5) 0.64659(15)
C27_9 C 0.983633 0.4370 0.5528
C28_9 C 0.9965 0.4703 0.5231
O11_9 O 0.8897(4) 0.2563(3) 0.63262(9)
O12_9 O 0.8506(4) 0.2951(3) 0.67024(8)
O13_9 O 0.973333 0.366667 0.556667
C29_9 C 0.8991(6) 0.3871(4) 0.63300(13)
C30_6 C 0.1980 0.3958 0.2552
H16_6 H 0.1732 0.3461 0.2644
C31_6 C 0.1517 0.3032 0.2219
H17_6 H 0.1554 0.3106 0.2029
H18_6 H 0.0950 0.2731 0.2271
C32_6 C 0.2299 0.4599 0.2189
H19_6 H 0.2260 0.4520 0.1999
H20_6 H 0.2867 0.4901 0.2240
N4_6 N 0.186667 0.373333 0.233333
O14_6 O 0.2235(7) 0.4469(6) 0.27434(17)
H21_6 H 0.1782 0.2731 0.2271
H22_6 H 0.2035 0.4901 0.2240
C8_5 C 0.6042 0.8021 0.2552
H4_5 H 0.6539 0.8270 0.2644
C9_5 C 0.6968 0.8484 0.2219
H5_5 H 0.6894 0.8447 0.2029
H6_5 H 0.7269 0.8218 0.2271
C10_5 C 0.5401 0.7699 0.2189
H7_5 H 0.5480 0.7739 0.1999
H8_5 H 0.5099 0.7965 0.2240
N2_5 N 0.626667 0.813333 0.233333
O4_5 O 0.5531(6) 0.7765(3) 0.27434(17)
H14_5 H 0.7269 0.9050 0.2271
H15_5 H 0.5099 0.7133 0.2240
C8_6 C 0.1979 0.8020 0.2552
H4_6 H 0.1730 0.8268 0.2644
C9_6 C 0.1516 0.8483 0.2219
H5_6 H 0.1553 0.8446 0.2029
H6_6 H 0.1782 0.9050 0.2271
C10_6 C 0.2301 0.7701 0.2189
H7_6 H 0.2261 0.7740 0.1999
H8_6 H 0.2035 0.7133 0.2240
N2_6 N 0.186667 0.813333 0.233333
O4_6 O 0.2235(3) 0.7765(7) 0.27434(17)
H14_6 H 0.0950 0.8218 0.2271
H15_6 H 0.2867 0.7965 0.2240
C7_10 C 0.9103 0.6669 0.1666
H3_10 H 0.9599 0.6671 0.1666
C23_10 C 0.756667 0.6669 0.1666
H12_10 H 0.7073 0.6671 0.1666
C7_11 C 0.3331 0.243333 0.1666
H3_11 H 0.3329 0.2927 0.1666
C23_11 C 0.3331 0.0897 0.1666
H12_11 H 0.3329 0.0401 0.1666
C30_7 C 0.3958 0.1980 0.7448
H16_7 H 0.3461 0.1732 0.7356
C31_7 C 0.3032 0.1517 0.7781
H17_7 H 0.3106 0.1554 0.7971
H18_7 H 0.2731 0.0950 0.7729
C32_7 C 0.4599 0.2299 0.7811
H19_7 H 0.4520 0.2260 0.8001
H20_7 H 0.4901 0.2867 0.7760
N4_7 N 0.373333 0.186667 0.766667
O14_7 O 0.4469(6) 0.2235(7) 0.72566(17)
H21_7 H 0.2731 0.1782 0.7729
H22_7 H 0.4901 0.2035 0.7760
C8_7 C 0.8021 0.6042 0.7448
H4_7 H 0.8270 0.6539 0.7356
C9_7 C 0.8484 0.6968 0.7781
H5_7 H 0.8447 0.6894 0.7971
H6_7 H 0.8218 0.7269 0.7729
C10_7 C 0.7699 0.5401 0.7811
H7_7 H 0.7739 0.5480 0.8001
H8_7 H 0.7965 0.5099 0.7760
N2_7 N 0.813333 0.626667 0.766667
O4_7 O 0.7765(3) 0.5531(6) 0.72566(17)
H14_7 H 0.9050 0.7269 0.7729
H15_7 H 0.7133 0.5099 0.7760
C7_12 C 0.243333 0.3331 0.8334
H3_12 H 0.2927 0.3329 0.8334
C23_12 C 0.0897 0.3331 0.8334
H12_12 H 0.0401 0.3329 0.8334
C30_8 C 0.8020 0.1979 0.7448
H16_8 H 0.8268 0.1730 0.7356
C31_8 C 0.8483 0.1516 0.7781
H17_8 H 0.8446 0.1553 0.7971
H18_8 H 0.9050 0.1782 0.7729
C32_8 C 0.7701 0.2301 0.7811
H19_8 H 0.7740 0.2261 0.8001
H20_8 H 0.7133 0.2035 0.7760
N4_8 N 0.813333 0.186667 0.766667
O14_8 O 0.7765(7) 0.2235(9) 0.72566(17)
H21_8 H 0.8218 0.0950 0.7729
H22_8 H 0.7965 0.2867 0.7760
C7_13 C 0.6669 0.9103 0.8334
H3_13 H 0.6671 0.9599 0.8334
C23_13 C 0.6669 0.756667 0.8334
H12_13 H 0.6671 0.7073 0.8334
C8_8 C 0.2708 0.1355 0.5886
H4_8 H 0.3205 0.1604 0.5978
C9_8 C 0.3634 0.1818 0.5553
H5_8 H 0.3560 0.1781 0.5363
H6_8 H 0.3935 0.1552 0.5605
C10_8 C 0.2067 0.1033 0.5523
H7_8 H 0.2146 0.1073 0.5333
H8_8 H 0.1765 0.1299 0.5574
N2_8 N 0.293333 0.146667 0.566667
O4_8 O 0.2197(6) 0.1099(3) 0.60768(17)
H14_8 H 0.3935 0.2384 0.5605
H15_8 H 0.1765 0.0467 0.5574
C30_9 C 0.8646 0.7292 0.5886
H16_9 H 0.8398 0.6795 0.5978
C31_9 C 0.8183 0.6366 0.5553
H17_9 H 0.8220 0.6440 0.5363
H18_9 H 0.7616 0.6065 0.5605
C32_9 C 0.8965 0.7933 0.5523
H19_9 H 0.8926 0.7854 0.5333
H20_9 H 0.9533 0.8235 0.5574
N4_9 N 0.853333 0.706667 0.566667
O14_9 O 0.8901(7) 0.7803(6) 0.60768(17)
H21_9 H 0.8448 0.6065 0.5605
H22_9 H 0.8701 0.8235 0.5574
C7_14 C 0.5769 0.0003 0.5000
H3_14 H 0.6265 0.0005 0.5000
C8_9 C 0.8645 0.1354 0.5886
H4_9 H 0.8396 0.1602 0.5978
C9_9 C 0.8182 0.1817 0.5553
H5_9 H 0.8219 0.1780 0.5363
H6_9 H 0.8448 0.2384 0.5605
C10_9 C 0.8967 0.1035 0.5523
H7_9 H 0.8927 0.1074 0.5333
H8_9 H 0.8701 0.0467 0.5574
N2_9 N 0.853333 0.146667 0.566667
O4_9 O 0.8901(3) 0.1099(7) 0.60768(17)
C23_14 C 0.423333 0.0003 0.5000
H12_14 H 0.3739 0.0005 0.5000
H14_9 H 0.7616 0.1552 0.5605
H15_9 H 0.9533 0.1299 0.5574
C7_15 C 0.9997 0.576667 0.5000
H3_15 H 0.9995 0.6261 0.5000
C23_15 C 0.9997 0.4231 0.5000
H12_15 H 0.9995 0.3735 0.5000
loop_
_geom_bond_atom_site_label_1
_geom_bond_atom_site_label_2
_geom_bond_site_symmetry_1
_geom_bond_site_symmetry_2
C26 O11 1_555 1_555
O11 Cu8 1_555 1_555
O12 C26 1_555 1_555
C30 H16 1_555 1_555
C32 H19 1_555 1_555
H20 C32 1_555 1_555
Cu2 O14 1_555 1_555
N4 C30 1_555 1_555
O14 C30 1_555 1_555
H22 C32 1_555 1_555
Cu5 O12 1_555 1_555
Cu8 Cu5 1_555 1_555
O17 Cu2 1_555 1_555
O20 Cu2 1_555 1_555
C32 N4 1_555 1_555
C1 H1 1_555 1_555
C2 H2 1_555 1_555
C3 O1 1_555 1_555
C4 C1 1_555 1_555
C5 C6 1_555 1_555
C6 C7 1_555 1_555
C7 H3 1_555 1_555
C9 H5 1_555 1_555
H6 C9 1_555 1_555
N1 C4 1_555 1_555
O3 C5 1_555 1_555
C11 C1 1_555 1_555
C12 H9 1_555 1_555
C13 H10 1_555 1_555
C15 C12 1_555 1_555
C16 C17 1_555 1_555
C17 C7 1_555 1_555
N3 C15 1_555 1_555
O7 C16 1_555 1_555
C18 C12 1_555 1_555
C19 C4 1_555 1_555
H11 C19 1_555 1_555
C20 O8 1_555 1_555
C21 N1 1_555 1_555
C22 C6 1_555 1_555
C23 C22 1_555 1_555
H12 C23 1_555 1_555
O10 C21 1_555 1_555
C24 C2 1_555 1_555
C25 C15 1_555 1_555
H13 C25 1_555 1_555
C27 N3 1_555 1_555
C28 C17 1_555 1_555
O13 C27 1_555 1_555
C29 C13 1_555 1_555
H14 C9 1_555 1_555
C31 H17 1_555 1_555
H18 C31 1_555 1_555
H21 C31 1_555 1_555
C2 C11 1_555 1_555
C3 C11 1_555 1_555
C5 N1 1_555 1_555
C13 C18 1_555 1_555
C16 N3 1_555 1_555
C19 C24 1_555 1_555
C20 C24 1_555 1_555
C21 C22 1_555 1_555
C23 C28 1_555 1_555
C25 C29 1_555 1_555
C27 C28 1_555 1_555
Cu3 O9 1_555 1_555
O2 Cu4 1_555 1_555
C8 H4 1_555 1_555
C10 H7 1_555 1_555
H8 C10 1_555 1_555
N2 C8 1_555 1_555
O4 C8 1_555 1_555
C14 O5 1_555 1_555
O5 Cu7 1_555 1_555
O6 C14 1_555 1_555
H15 C10 1_555 1_555
Cu6 O6 1_555 1_555
Cu7 Cu6 1_555 1_555
O18 Cu1 1_555 1_555
O19 Cu1 1_555 1_555
C10 N2 1_555 1_555
Cu1 O4 1_555 1_555
C14_2 O5_2 1_555 1_555
O5_2 Cu7_2 1_555 1_555
O6_2 C14_2 1_555 1_555
Cu6_2 O6_2 1_555 1_555
Cu7_2 Cu6_2 1_555 1_555
C1_2 H1_2 1_555 1_555
C2_2 H2_2 1_555 1_555
C3_2 O15 1_555 1_555
C4_2 C1_2 1_555 1_555
C5_2 C6_2 1_555 1_555
C6_2 C7_2 1_555 1_555
C7_2 H3_2 1_555 1_555
N1_2 C4_2 1_555 1_555
O3_2 C5_2 1_555 1_555
C11_2 C1_2 1_555 1_555
C12_2 H9_2 1_555 1_555
C13_2 H10_2 1_555 1_555
C15_2 C12_2 1_555 1_555
C16_2 C17_2 1_555 1_555
C17_2 C7_2 1_555 1_555
N3_2 C15_2 1_555 1_555
O7_2 C16_2 1_555 1_555
C18_2 C12_2 1_555 1_555
C19_2 C4_2 1_555 1_555
H11_2 C19_2 1_555 1_555
C20_2 O8_2 1_555 1_555
C21_2 N1_2 1_555 1_555
C22_2 C6_2 1_555 1_555
C23_2 C22_2 1_555 1_555
H12_2 C23_2 1_555 1_555
O8_2 Cu2_2 1_555 1_555
O10_2 C21_2 1_555 1_555
C24_2 C2_2 1_555 1_555
C25_2 C15_2 1_555 1_555
H13_2 C25_2 1_555 1_555
C26_2 O11_2 1_555 1_555
C27_2 N3_2 1_555 1_555
C28_2 C17_2 1_555 1_555
O11_2 Cu7 1_555 1_555
O12_2 C26_2 1_555 1_555
O13_2 C27_2 1_555 1_555
C29_2 C13_2 1_555 1_555
C30_2 H16_2 1_555 1_555
C31_2 H17_2 1_555 1_555
H18_2 C31_2 1_555 1_555
C32_2 H19_2 1_555 1_555
H20_2 C32_2 1_555 1_555
Cu2_2 O14_2 1_555 1_555
N4_2 C30_2 1_555 1_555
O14_2 C30_2 1_555 1_555
H21_2 C31_2 1_555 1_555
H22_2 C32_2 1_555 1_555
Cu6 O12_2 1_555 1_555
O15_2 Cu2_2 1_555 1_555
O17_2 Cu2_2 1_555 1_555
O20_2 Cu2_2 1_555 1_555
C2_2 C11_2 1_555 1_555
C3_2 C11_2 1_555 1_555
C5_2 N1_2 1_555 1_555
C13_2 C18_2 1_555 1_555
C16_2 N3_2 1_555 1_555
C19_2 C24_2 1_555 1_555
C20_2 C24_2 1_555 1_555
C21_2 C22_2 1_555 1_555
C23_2 C28_2 1_555 1_555
C25_2 C29_2 1_555 1_555
C26_2 C29_2 1_555 1_555
C27_2 C28_2 1_555 1_555
C31_2 N4_2 1_555 1_555
C32_2 N4_2 1_555 1_555
Cu3_2 O9_2 1_555 1_555
O2_2 Cu3 1_555 1_555
C1_3 H1_3 1_555 1_555
C2_3 H2_3 1_555 1_555
C3_3 O15_2 1_555 1_555
C4_3 C1_3 1_555 1_555
C5_3 C6_3 1_555 1_555
C6_3 C7_3 1_555 1_555
C7_3 H3_3 1_555 1_555
N1_3 C4_3 1_555 1_555
O3_3 C5_3 1_555 1_555
C11_3 C1_3 1_555 1_555
C12_3 H9_3 1_555 1_555
C13_3 H10_3 1_555 1_555
C14_3 O5_3 1_555 1_555
C15_3 C12_3 1_555 1_555
C16_3 C17_3 1_555 1_555
C17_3 C7_3 1_555 1_555
N3_3 C15_3 1_555 1_555
O5_3 Cu8 1_555 1_555
O6_3 C14_3 1_555 1_555
O7_3 C16_3 1_555 1_555
C18_3 C12_3 1_555 1_555
C19_3 C4_3 1_555 1_555
H11_3 C19_3 1_555 1_555
C20_3 O16 1_555 1_555
C21_3 N1_3 1_555 1_555
C22_3 C6_3 1_555 1_555
C23_3 C22_3 1_555 1_555
H12_3 C23_3 1_555 1_555
O10_3 C21_3 1_555 1_555
C24_3 C2_3 1_555 1_555
C25_3 C15_3 1_555 1_555
H13_3 C25_3 1_555 1_555
C27_3 N3_3 1_555 1_555
C28_3 C17_3 1_555 1_555
O13_3 C27_3 1_555 1_555
C29_3 C13_3 1_555 1_555
Cu5 O6_3 1_555 1_555
C2_3 C11_3 1_555 1_555
C3_3 C11_3 1_555 1_555
C5_3 N1_3 1_555 1_555
C13_3 C18_3 1_555 1_555
C14_3 C18_3 1_555 1_555
C16_3 N3_3 1_555 1_555
C19_3 C24_3 1_555 1_555
C20_3 C24_3 1_555 1_555
C21_3 C22_3 1_555 1_555
C23_3 C28_3 1_555 1_555
C25_3 C29_3 1_555 1_555
C27_3 C28_3 1_555 1_555
Cu4 O9_3 1_555 1_555
O2_3 Cu3_2 1_555 1_555
C26_3 O11_3 1_555 1_555
O11_3 Cu7_2 1_555 1_555
O12_3 C26_3 1_555 1_555
Cu6_2 O12_3 1_555 1_555
C26_4 O11_4 1_555 1_555
O11_4 Cu8_2 1_555 1_555
O12_4 C26_4 1_555 1_555
C30_3 H16_3 1_555 1_555
C32_3 H19_3 1_555 1_555
H20_3 C32_3 1_555 1_555
Cu4 O14_3 1_555 1_555
N4_3 C30_3 1_555 1_555
O14_3 C30_3 1_555 1_555
H22_3 C32_3 1_555 1_555
Cu5_2 O12_4 1_555 1_555
Cu8_2 Cu5_2 1_555 1_555
C32_3 N4_3 1_555 1_555
C1_4 H1_4 1_555 1_555
C2_4 H2_4 1_555 1_555
C3_4 O1_2 1_555 1_555
C4_4 C1_4 1_555 1_555
C5_4 C6_4 1_555 1_555
C6_4 C7_4 1_555 1_555
C7_4 H3_4 1_555 1_555
C9_2 H5_2 1_555 1_555
H6_2 C9_2 1_555 1_555
N1_4 C4_4 1_555 1_555
O3_4 C5_4 1_555 1_555
C11_4 C1_4 1_555 1_555
C12_4 H9_4 1_555 1_555
C13_4 H10_4 1_555 1_555
C15_4 C12_4 1_555 1_555
C16_4 C17_4 1_555 1_555
C17_4 C7_4 1_555 1_555
N3_4 C15_4 1_555 1_555
O7_4 C16_4 1_555 1_555
C18_4 C12_4 1_555 1_555
C19_4 C4_4 1_555 1_555
H11_4 C19_4 1_555 1_555
C20_4 O8_3 1_555 1_555
C21_4 N1_4 1_555 1_555
C22_4 C6_4 1_555 1_555
C23_4 C22_4 1_555 1_555
H12_4 C23_4 1_555 1_555
O10_4 C21_4 1_555 1_555
C24_4 C2_4 1_555 1_555
C25_4 C15_4 1_555 1_555
H13_4 C25_4 1_555 1_555
C27_4 N3_4 1_555 1_555
C28_4 C17_4 1_555 1_555
O13_4 C27_4 1_555 1_555
C29_4 C13_4 1_555 1_555
H14_2 C9_2 1_555 1_555
C31_3 H17_3 1_555 1_555
H18_3 C31_3 1_555 1_555
H21_3 C31_3 1_555 1_555
C2_4 C11_4 1_555 1_555
C3_4 C11_4 1_555 1_555
C5_4 N1_4 1_555 1_555
C13_4 C18_4 1_555 1_555
C16_4 N3_4 1_555 1_555
C19_4 C24_4 1_555 1_555
C20_4 C24_4 1_555 1_555
C21_4 C22_4 1_555 1_555
C23_4 C28_4 1_555 1_555
C25_4 C29_4 1_555 1_555
C27_4 C28_4 1_555 1_555
C8_2 H4_2 1_555 1_555
C10_2 H7_2 1_555 1_555
H8_2 C10_2 1_555 1_555
N2_2 C8_2 1_555 1_555
O4_2 C8_2 1_555 1_555
C14_4 O5_4 1_555 1_555
O5_4 Cu7_3 1_555 1_555
O6_4 C14_4 1_555 1_555
H15_2 C10_2 1_555 1_555
Cu6_3 O6_4 1_555 1_555
Cu7_3 Cu6_3 1_555 1_555
C10_2 N2_2 1_555 1_555
Cu3 O4_2 1_555 1_555
C1_5 H1_5 1_555 1_555
C2_5 H2_5 1_555 1_555
C3_5 O1_3 1_555 1_555
C4_5 C1_5 1_555 1_555
C5_5 C6_5 1_555 1_555
C6_5 C7_5 1_555 1_555
C7_5 H3_5 1_555 1_555
C8_3 H4_3 1_555 1_555
C9_3 H5_3 1_555 1_555
H6_3 C9_3 1_555 1_555
C10_3 H7_3 1_555 1_555
H8_3 C10_3 1_555 1_555
Cu3_2 O1_3 1_555 1_555
N1_5 C4_5 1_555 1_555
N2_3 C8_3 1_555 1_555
O3_5 C5_5 1_555 1_555
O4_3 C8_3 1_555 1_555
C11_5 C1_5 1_555 1_555
C12_5 H9_5 1_555 1_555
C13_5 H10_5 1_555 1_555
C14_5 O5_5 1_555 1_555
C15_5 C12_5 1_555 1_555
C16_5 C17_5 1_555 1_555
C17_5 C7_5 1_555 1_555
N3_5 C15_5 1_555 1_555
O5_5 Cu8_2 1_555 1_555
O6_5 C14_5 1_555 1_555
O7_5 C16_5 1_555 1_555
C18_5 C12_5 1_555 1_555
C19_5 C4_5 1_555 1_555
H11_5 C19_5 1_555 1_555
C20_5 O16_2 1_555 1_555
C21_5 N1_5 1_555 1_555
C22_5 C6_5 1_555 1_555
C23_5 C22_5 1_555 1_555
H12_5 C23_5 1_555 1_555
O10_5 C21_5 1_555 1_555
C24_5 C2_5 1_555 1_555
C25_5 C15_5 1_555 1_555
H13_5 C25_5 1_555 1_555
C27_5 N3_5 1_555 1_555
C28_5 C17_5 1_555 1_555
O13_5 C27_5 1_555 1_555
C29_5 C13_5 1_555 1_555
H14_3 C9_3 1_555 1_555
H15_3 C10_3 1_555 1_555
Cu5_2 O6_5 1_555 1_555
O16_3 Cu3_2 1_555 1_555
C2_5 C11_5 1_555 1_555
C3_5 C11_5 1_555 1_555
C5_5 N1_5 1_555 1_555
C9_3 N2_3 1_555 1_555
C10_3 N2_3 1_555 1_555
Cu3_2 O4_3 1_555 1_555
C13_5 C18_5 1_555 1_555
C14_5 C18_5 1_555 1_555
C16_5 N3_5 1_555 1_555
C19_5 C24_5 1_555 1_555
C20_5 C24_5 1_555 1_555
C21_5 C22_5 1_555 1_555
C23_5 C28_5 1_555 1_555
C25_5 C29_5 1_555 1_555
C27_5 C28_5 1_555 1_555
C26_5 O11_5 1_555 1_555
O11_5 Cu8_3 1_555 1_555
O12_5 C26_5 1_555 1_555
Cu5_3 O12_5 1_555 1_555
Cu8_3 Cu5_3 1_555 1_555
C14_6 O5_6 1_555 1_555
O5_6 Cu8_3 1_555 1_555
O6_6 C14_6 1_555 1_555
Cu5_3 O6_6 1_555 1_555
C1_6 H1_6 1_555 1_555
C2_6 H2_6 1_555 1_555
C3_6 O15_3 1_555 1_555
C4_6 C1_6 1_555 1_555
C5_6 C6_6 1_555 1_555
C6_6 C7_6 1_555 1_555
C7_6 H3_6 1_555 1_555
N1_6 C4_6 1_555 1_555
O3_6 C5_6 1_555 1_555
C11_6 C1_6 1_555 1_555
C12_6 H9_6 1_555 1_555
C13_6 H10_6 1_555 1_555
C15_6 C12_6 1_555 1_555
C16_6 C17_6 1_555 1_555
C17_6 C7_6 1_555 1_555
N3_6 C15_6 1_555 1_555
O7_6 C16_6 1_555 1_555
C18_6 C12_6 1_555 1_555
C19_6 C4_6 1_555 1_555
H11_6 C19_6 1_555 1_555
C20_6 O16_3 1_555 1_555
C21_6 N1_6 1_555 1_555
C22_6 C6_6 1_555 1_555
C23_6 C22_6 1_555 1_555
H12_6 C23_6 1_555 1_555
O10_6 C21_6 1_555 1_555
C24_6 C2_6 1_555 1_555
C25_6 C15_6 1_555 1_555
H13_6 C25_6 1_555 1_555
C26_6 O11_6 1_555 1_555
C27_6 N3_6 1_555 1_555
C28_6 C17_6 1_555 1_555
O11_6 Cu7_3 1_555 1_555
O12_6 C26_6 1_555 1_555
O13_6 C27_6 1_555 1_555
C29_6 C13_6 1_555 1_555
Cu6_3 O12_6 1_555 1_555
C2_6 C11_6 1_555 1_555
C3_6 C11_6 1_555 1_555
C5_6 N1_6 1_555 1_555
C13_6 C18_6 1_555 1_555
C16_6 N3_6 1_555 1_555
C19_6 C24_6 1_555 1_555
C20_6 C24_6 1_555 1_555
C21_6 C22_6 1_555 1_555
C23_6 C28_6 1_555 1_555
C25_6 C29_6 1_555 1_555
C26_6 C29_6 1_555 1_555
C27_6 C28_6 1_555 1_555
C1_7 H1_7 1_555 1_555
C2_7 H2_7 1_555 1_555
C3_7 O1_4 1_555 1_555
C4_7 C1_7 1_555 1_555
C5_7 C6_7 1_555 1_555
C6_7 C7_7 1_555 1_555
C7_7 H3_7 1_555 1_555
C8_4 H4_4 1_555 1_555
C9_4 H5_4 1_555 1_555
H6_4 C9_4 1_555 1_555
C10_4 H7_4 1_555 1_555
H8_4 C10_4 1_555 1_555
Cu5 O1_4 1_555 1_555
N1_7 C4_7 1_555 1_555
N2_4 C8_4 1_555 1_555
O2_4 C3_7 1_555 1_555
O3_7 C5_7 1_555 1_555
O4_4 C8_4 1_555 1_555
C11_7 C1_7 1_555 1_555
C12_7 H9_7 1_555 1_555
C13_7 H10_7 1_555 1_555
C14_7 O5_7 1_555 1_555
C15_7 C12_7 1_555 1_555
C16_7 C17_7 1_555 1_555
C17_7 C7_7 1_555 1_555
N3_7 C15_7 1_555 1_555
O5_7 Cu5_2 1_555 1_555
O6_7 C14_7 1_555 1_555
O7_7 C16_7 1_555 1_555
C18_7 C12_7 1_555 1_555
C19_7 C4_7 1_555 1_555
H11_7 C19_7 1_555 1_555
C20_7 O8_4 1_555 1_555
C21_7 N1_7 1_555 1_555
C22_7 C6_7 1_555 1_555
C23_7 C22_7 1_555 1_555
H12_7 C23_7 1_555 1_555
O8_4 Cu6 1_555 1_555
O9_4 C20_7 1_555 1_555
O10_7 C21_7 1_555 1_555
C24_7 C2_7 1_555 1_555
C25_7 C15_7 1_555 1_555
H13_7 C25_7 1_555 1_555
C26_7 O11_7 1_555 1_555
C27_7 N3_7 1_555 1_555
C28_7 C17_7 1_555 1_555
O11_7 Cu6_3 1_555 1_555
O12_7 C26_7 1_555 1_555
O13_7 C27_7 1_555 1_555
C29_7 C13_7 1_555 1_555
H14_4 C9_4 1_555 1_555
H15_4 C10_4 1_555 1_555
C30_4 H16_4 1_555 1_555
C31_4 H17_4 1_555 1_555
H18_4 C31_4 1_555 1_555
C32_4 H19_4 1_555 1_555
H20_4 C32_4 1_555 1_555
Cu6 O14_4 1_555 1_555
N4_4 C30_4 1_555 1_555
O14_4 C30_4 1_555 1_555
H21_4 C31_4 1_555 1_555
H22_4 C32_4 1_555 1_555
Cu7 O9_4 1_555 1_555
Cu7_3 O12_7 1_555 1_555
Cu8_2 O6_7 1_555 1_555
O15_4 Cu6 1_555 1_555
O16_4 Cu5 1_555 1_555
C2_7 C11_7 1_555 1_555
C3_7 C11_7 1_555 1_555
C5_7 N1_7 1_555 1_555
C9_4 N2_4 1_555 1_555
C10_4 N2_4 1_555 1_555
Cu5 O4_4 1_555 1_555
O2_4 Cu8 1_555 1_555
C13_7 C18_7 1_555 1_555
C14_7 C18_7 1_555 1_555
C16_7 N3_7 1_555 1_555
C19_7 C24_7 1_555 1_555
C20_7 C24_7 1_555 1_555
C21_7 C22_7 1_555 1_555
C23_7 C28_7 1_555 1_555
C25_7 C29_7 1_555 1_555
C26_7 C29_7 1_555 1_555
C27_7 C28_7 1_555 1_555
C31_4 N4_4 1_555 1_555
C32_4 N4_4 1_555 1_555
C12_8 H9_8 1_555 1_555
C13_8 H10_8 1_555 1_555
C14_8 O5_8 1_555 1_555
C15_8 C12_8 1_555 1_555
C16_8 C17_8 1_555 1_555
N3_8 C15_8 1_555 1_555
O5_8 Cu5_3 1_555 1_555
O6_8 C14_8 1_555 1_555
O7_8 C16_8 1_555 1_555
C18_8 C12_8 1_555 1_555
C25_8 C15_8 1_555 1_555
H13_8 C25_8 1_555 1_555
C26_8 O11_8 1_555 1_555
C27_8 N3_8 1_555 1_555
C28_8 C17_8 1_555 1_555
O11_8 Cu5_2 1_555 1_555
O12_8 C26_8 1_555 1_555
O13_8 C27_8 1_555 1_555
C29_8 C13_8 1_555 1_555
Cu8_2 O12_8 1_555 1_555
Cu8_3 O6_8 1_555 1_555
C13_8 C18_8 1_555 1_555
C14_8 C18_8 1_555 1_555
C16_8 N3_8 1_555 1_555
C25_8 C29_8 1_555 1_555
C26_8 C29_8 1_555 1_555
C27_8 C28_8 1_555 1_555
C1_8 H1_8 1_555 1_555
C2_8 H2_8 1_555 1_555
C3_8 O15_4 1_555 1_555
C4_8 C1_8 1_555 1_555
C5_8 C6_8 1_555 1_555
C6_8 C7_8 1_555 1_555
C7_8 H3_8 1_555 1_555
N1_8 C4_8 1_555 1_555
O2_5 C3_8 1_555 1_555
O3_8 C5_8 1_555 1_555
C11_8 C1_8 1_555 1_555
C19_8 C4_8 1_555 1_555
H11_8 C19_8 1_555 1_555
C20_8 O8_5 1_555 1_555
C21_8 N1_8 1_555 1_555
C22_8 C6_8 1_555 1_555
C23_8 C22_8 1_555 1_555
H12_8 C23_8 1_555 1_555
O8_5 Cu6_2 1_555 1_555
O9_5 C20_8 1_555 1_555
O10_8 C21_8 1_555 1_555
C24_8 C2_8 1_555 1_555
C30_5 H16_5 1_555 1_555
C31_5 H17_5 1_555 1_555
H18_5 C31_5 1_555 1_555
C32_5 H19_5 1_555 1_555
H20_5 C32_5 1_555 1_555
Cu6_2 O14_5 1_555 1_555
N4_5 C30_5 1_555 1_555
O14_5 C30_5 1_555 1_555
H21_5 C31_5 1_555 1_555
H22_5 C32_5 1_555 1_555
Cu7_2 O9_5 1_555 1_555
O15_5 Cu6_2 1_555 1_555
C2_8 C11_8 1_555 1_555
C3_8 C11_8 1_555 1_555
C5_8 N1_8 1_555 1_555
O2_5 Cu7 1_555 1_555
C19_8 C24_8 1_555 1_555
C20_8 C24_8 1_555 1_555
C21_8 C22_8 1_555 1_555
C31_5 N4_5 1_555 1_555
C32_5 N4_5 1_555 1_555
C1_9 H1_9 1_555 1_555
C2_9 H2_9 1_555 1_555
C3_9 O15_5 1_555 1_555
C4_9 C1_9 1_555 1_555
C5_9 C6_9 1_555 1_555
C6_9 C7_9 1_555 1_555
C7_9 H3_9 1_555 1_555
N1_9 C4_9 1_555 1_555
O2_6 C3_9 1_555 1_555
O3_9 C5_9 1_555 1_555
C11_9 C1_9 1_555 1_555
C19_9 C4_9 1_555 1_555
H11_9 C19_9 1_555 1_555
C20_9 O16_4 1_555 1_555
C21_9 N1_9 1_555 1_555
C22_9 C6_9 1_555 1_555
C23_9 C22_9 1_555 1_555
H12_9 C23_9 1_555 1_555
O9_6 C20_9 1_555 1_555
O10_9 C21_9 1_555 1_555
C24_9 C2_9 1_555 1_555
Cu8 O9_6 1_555 1_555
C2_9 C11_9 1_555 1_555
C3_9 C11_9 1_555 1_555
C5_9 N1_9 1_555 1_555
O2_6 Cu7_2 1_555 1_555
C19_9 C24_9 1_555 1_555
C20_9 C24_9 1_555 1_555
C21_9 C22_9 1_555 1_555
C12_9 H9_9 1_555 1_555
C13_9 H10_9 1_555 1_555
C14_9 O5_9 1_555 1_555
C15_9 C12_9 1_555 1_555
C16_9 C17_9 1_555 1_555
N3_9 C15_9 1_555 1_555
O5_9 Cu6_3 1_555 1_555
O6_9 C14_9 1_555 1_555
O7_9 C16_9 1_555 1_555
C18_9 C12_9 1_555 1_555
C25_9 C15_9 1_555 1_555
H13_9 C25_9 1_555 1_555
C26_9 O11_9 1_555 1_555
C27_9 N3_9 1_555 1_555
C28_9 C17_9 1_555 1_555
O11_9 Cu5_3 1_555 1_555
O12_9 C26_9 1_555 1_555
O13_9 C27_9 1_555 1_555
C29_9 C13_9 1_555 1_555
Cu8_3 O12_9 1_555 1_555
Cu7_3 O6_9 1_555 1_555
C13_9 C18_9 1_555 1_555
C14_9 C18_9 1_555 1_555
C16_9 N3_9 1_555 1_555
C25_9 C29_9 1_555 1_555
C26_9 C29_9 1_555 1_555
C27_9 C28_9 1_555 1_555
C30_6 H16_6 1_555 1_555
C31_6 H17_6 1_555 1_555
H18_6 C31_6 1_555 1_555
C32_6 H19_6 1_555 1_555
H20_6 C32_6 1_555 1_555
Cu8 O14_6 1_555 1_555
N4_6 C30_6 1_555 1_555
O14_6 C30_6 1_555 1_555
H21_6 C31_6 1_555 1_555
H22_6 C32_6 1_555 1_555
C31_6 N4_6 1_555 1_555
C32_6 N4_6 1_555 1_555
C8_5 H4_5 1_555 1_555
C9_5 H5_5 1_555 1_555
H6_5 C9_5 1_555 1_555
C10_5 H7_5 1_555 1_555
H8_5 C10_5 1_555 1_555
N2_5 C8_5 1_555 1_555
O4_5 C8_5 1_555 1_555
H14_5 C9_5 1_555 1_555
H15_5 C10_5 1_555 1_555
C9_5 N2_5 1_555 1_555
C10_5 N2_5 1_555 1_555
Cu7 O4_5 1_555 1_555
C8_6 H4_6 1_555 1_555
C9_6 H5_6 1_555 1_555
H6_6 C9_6 1_555 1_555
C10_6 H7_6 1_555 1_555
H8_6 C10_6 1_555 1_555
N2_6 C8_6 1_555 1_555
O4_6 C8_6 1_555 1_555
H14_6 C9_6 1_555 1_555
H15_6 C10_6 1_555 1_555
C9_6 N2_6 1_555 1_555
C10_6 N2_6 1_555 1_555
Cu7_2 O4_6 1_555 1_555
C17_2 C7_10 1_555 1_555
C7_10 H3_10 1_555 1_555
C6_2 C7_10 1_555 1_555
C23_10 C28_2 1_555 1_555
H12_10 C23_10 1_555 1_555
C23_10 C22_2 1_555 1_555
C17_3 C7_11 1_555 1_555
C7_11 H3_11 1_555 1_555
C6_3 C7_11 1_555 1_555
C23_11 C28_3 1_555 1_555
H12_11 C23_11 1_555 1_555
C23_11 C22_3 1_555 1_555
C30_7 H16_7 1_555 1_555
C31_7 H17_7 1_555 1_555
H18_7 C31_7 1_555 1_555
C32_7 H19_7 1_555 1_555
H20_7 C32_7 1_555 1_555
Cu8_2 O14_7 1_555 1_555
N4_7 C30_7 1_555 1_555
O14_7 C30_7 1_555 1_555
H21_7 C31_7 1_555 1_555
H22_7 C32_7 1_555 1_555
C31_7 N4_7 1_555 1_555
C32_7 N4_7 1_555 1_555
C8_7 H4_7 1_555 1_555
C9_7 H5_7 1_555 1_555
H6_7 C9_7 1_555 1_555
C10_7 H7_7 1_555 1_555
H8_7 C10_7 1_555 1_555
N2_7 C8_7 1_555 1_555
O4_7 C8_7 1_555 1_555
H14_7 C9_7 1_555 1_555
H15_7 C10_7 1_555 1_555
C9_7 N2_7 1_555 1_555
C10_7 N2_7 1_555 1_555
Cu7_3 O4_7 1_555 1_555
C17_5 C7_12 1_555 1_555
C7_12 H3_12 1_555 1_555
C6_5 C7_12 1_555 1_555
C23_12 C28_5 1_555 1_555
H12_12 C23_12 1_555 1_555
C23_12 C22_5 1_555 1_555
C30_8 H16_8 1_555 1_555
C31_8 H17_8 1_555 1_555
H18_8 C31_8 1_555 1_555
C32_8 H19_8 1_555 1_555
H20_8 C32_8 1_555 1_555
Cu8_3 O14_8 1_555 1_555
N4_8 C30_8 1_555 1_555
O14_8 C30_8 1_555 1_555
H21_8 C31_8 1_555 1_555
H22_8 C32_8 1_555 1_555
C31_8 N4_8 1_555 1_555
C32_8 N4_8 1_555 1_555
C17_6 C7_13 1_555 1_555
C7_13 H3_13 1_555 1_555
C6_6 C7_13 1_555 1_555
C23_13 C28_6 1_555 1_555
H12_13 C23_13 1_555 1_555
C23_13 C22_6 1_555 1_555
C8_8 H4_8 1_555 1_555
C9_8 H5_8 1_555 1_555
H6_8 C9_8 1_555 1_555
C10_8 H7_8 1_555 1_555
H8_8 C10_8 1_555 1_555
N2_8 C8_8 1_555 1_555
O4_8 C8_8 1_555 1_555
H14_8 C9_8 1_555 1_555
H15_8 C10_8 1_555 1_555
C30_9 H16_9 1_555 1_555
C31_9 H17_9 1_555 1_555
H18_9 C31_9 1_555 1_555
C32_9 H19_9 1_555 1_555
H20_9 C32_9 1_555 1_555
Cu6_3 O14_9 1_555 1_555
N4_9 C30_9 1_555 1_555
O14_9 C30_9 1_555 1_555
H21_9 C31_9 1_555 1_555
H22_9 C32_9 1_555 1_555
C9_8 N2_8 1_555 1_555
C10_8 N2_8 1_555 1_555
Cu5_2 O4_8 1_555 1_555
C31_9 N4_9 1_555 1_555
C32_9 N4_9 1_555 1_555
C17_8 C7_14 1_555 1_555
C7_14 H3_14 1_555 1_555
C8_9 H4_9 1_555 1_555
C9_9 H5_9 1_555 1_555
H6_9 C9_9 1_555 1_555
C10_9 H7_9 1_555 1_555
H8_9 C10_9 1_555 1_555
N2_9 C8_9 1_555 1_555
O4_9 C8_9 1_555 1_555
C23_14 C28_8 1_555 1_555
H12_14 C23_14 1_555 1_555
H14_9 C9_9 1_555 1_555
H15_9 C10_9 1_555 1_555
C9_9 N2_9 1_555 1_555
C10_9 N2_9 1_555 1_555
Cu5_3 O4_9 1_555 1_555
C17_9 C7_15 1_555 1_555
C7_15 H3_15 1_555 1_555
C23_15 C28_9 1_555 1_555
H12_15 C23_15 1_555 1_555

#END
