
###############################################################################
#
# This file contains modified crystal structure data generated from the
# MOF subset of the Cambridge Structural Database (CSD) v543 
# hosted by the Cambridge Crystallographic Data Centre (CCDC).
#
# This work is licensed under the Creative Commons
# Attribution-NonCommercial-ShareAlike 4.0 International License.
# To view a copy of this license, visit
# http://creativecommons.org/licenses/by-nc-sa/4.0/
# or send a letter to
# Creative Commons, PO Box 1866, Mountain View, CA 94042, USA.
#
# CIF created using the CSD Python API on 29 September 2022
# The structure has been converted into the P1 space group
# The structure has a 3D framework
# The original CSD entry ALANAD is in the orthorhombic crystal system
# The framework has been calculated to contain at least 10.0% void space
# The void calculation uses a probe of radius 1.32A, grid spacing 0.4
#
###############################################################################

data_ALANAD
_chemical_formula_moiety         '(C560 H464 N80 O240 Zn32)n'
_symmetry_cell_setting           triclinic
_symmetry_space_group_name_H-M   'P 1'
_symmetry_Int_Tables_number      1
_space_group_name_Hall           'P 1'
loop_
_symmetry_equiv_pos_site_id
_symmetry_equiv_pos_as_xyz
1 x,y,z
_cell_length_a                   18.199(3)
_cell_length_b                   20.125(4)
_cell_length_c                   69.8204(14)
_cell_angle_alpha                90
_cell_angle_beta                 90
_cell_angle_gamma                90
_cell_volume                     25572.1
loop_
_atom_site_label
_atom_site_type_symbol
_atom_site_fract_x
_atom_site_fract_y
_atom_site_fract_z
Zn1 Zn 0.02804(3) 0.22554(3) 0.118207(9)
Zn2 Zn 0.05301(3) 0.11792(3) 0.155631(9)
O1 O 0.0457(2) 0.0750(2) 0.12887(6)
O2 O 0.0309(2) 0.14136(18) 0.10343(6)
O13 O 0.0601(3) 0.1523(3) 0.18408(7)
O14 O 0.0170(2) 0.0256(3) 0.16679(7)
O15 O 0.1603(2) 0.0879(2) 0.15852(7)
C2 C 0.0194(3) 0.0259(3) 0.09917(8)
C3 C 0.0327(3) 0.0865(3) 0.11156(8)
C4 C 0.0162(3) 0.0317(3) 0.07939(8)
H2 H 0.0230 0.0729 0.0736
C27 C 0.0363(13) 0.1611(16) 0.19469(17)
C28 C 0.1052(19) 0.1455(14) 0.2254(4)
H10 H 0.1163 0.1020 0.2206
H11 H 0.0948 0.1430 0.2389
H12 H 0.1465 0.1743 0.2234
C29 C 0.0214(9) 0.2332(10) 0.2180(2)
H14 H 0.0661 0.2569 0.2155
H15 H 0.0104 0.2352 0.2315
C33 C 0.2090(6) 0.0875(3) 0.14603(12)
H23 H 0.1942 0.0904 0.1333
C34 C 0.3047(5) 0.0823(5) 0.16956(16)
H24 H 0.3572 0.0789 0.1702
H25 H 0.2829 0.0449 0.1759
H26 H 0.2892 0.1226 0.1757
C35 C 0.3299(6) 0.0819(5) 0.13310(17)
H27 H 0.3798 0.0781 0.1373
H28 H 0.3240 0.1223 0.1259
H29 H 0.3178 0.0446 0.1251
N3 N 0.0282(16) 0.1773(9) 0.2134(2)
N5 N 0.2814(4) 0.0832(3) 0.14954(14)
O19 O 0.0183(3) 0.3397(2) 0.12353(6)
O22 O 0.0139(2) 0.28987(19) 0.09596(6)
O31 O 0.1566(2) 0.2429(2) 0.11943(6)
O34 O 0.0888(2) 0.21435(18) 0.14427(6)
Zn6 Zn 0.02804(3) 0.27446(3) 0.881793(9)
O18 O 0.0183(3) 0.1603(2) 0.87647(6)
O21 O 0.0139(2) 0.21013(19) 0.90404(6)
C41 C 0.0054(3) 0.0858(3) 0.92356(9)
H32 H 0.0132 0.1230 0.9312
C42 C 0.0017(3) 0.0918(3) 0.90368(8)
C43 C 0.0119(3) 0.1577(3) 0.89400(9)
C65 C 0.0363(8) 0.0033(6) 0.84010(17)
C66 C 0.0163(6) 0.1039(8) 0.82669(19)
H46 H 0.0365 0.1478 0.8255
H47 H 0.0125 0.0841 0.8142
C67 C 0.1338(7) 0.0783(7) 0.84695(17)
H49 H 0.1454 0.1240 0.8444
H50 H 0.1321 0.0713 0.8605
H51 H 0.1708 0.0503 0.8414
N9 N 0.0651(5) 0.0628(5) 0.83891(16)
O24 O 0.0800 0.9290 0.9554
O27 O 0.0734(2) 0.7858(2) 0.87066(5)
O29 O 0.0511(2) 0.8444(2) 0.84361(6)
C44 C 0.0337 0.9685 0.9629
C45 C 0.0213 0.9821 0.9816
C46 C 0.0496 0.9421 0.9992
H33 H 0.0851 0.9089 0.9990
H38 H 0.0123 0.8432 0.8092
H42 H 0.0181 0.7469 0.7891
H45 H 0.0631 0.9759 0.8482
O5 O 0.9200 0.0710 0.0446
O7 O 0.9266(2) 0.2142(2) 0.12934(5)
O8 O 0.9489(2) 0.1556(2) 0.15639(6)
O9 O 0.6566(2) 0.2571(2) 0.11943(6)
O10 O 0.5888(2) 0.28565(18) 0.14427(6)
O11 O 0.8554(3) 0.3127(3) 0.20723(7)
O12 O 0.6584(3) 0.1716(3) 0.20711(7)
C9 C 0.9663 0.0315 0.0371
C10 C 0.9787 0.0179 0.0184
C11 C 0.9504 0.0579 0.0008
H4 H 0.9149 0.0911 0.0010
C14 C 0.7802(3) 0.2310(3) 0.14204(8)
H5 H 0.7862 0.2302 0.1288
C15 C 0.8374(3) 0.2137(3) 0.15384(8)
C16 C 0.9109(3) 0.1913(3) 0.14585(9)
C17 C 0.8294(3) 0.2156(3) 0.17368(8)
H6 H 0.8680 0.2029 0.1816
C18 C 0.7640(3) 0.2366(3) 0.18139(9)
C19 C 0.7049(3) 0.2535(3) 0.16960(8)
H7 H 0.6605 0.2670 0.1749
C20 C 0.7129(3) 0.2499(3) 0.15000(8)
C21 C 0.6503(3) 0.2661(3) 0.13701(10)
C22 C 0.8060(4) 0.2794(3) 0.21305(9)
C23 C 0.7811(3) 0.2680(3) 0.23304(9)
C24 C 0.8120(4) 0.2947(3) 0.25003(10)
H8 H 0.8523 0.3232 0.2500
C25 C 0.7231(3) 0.2254(3) 0.23324(9)
C26 C 0.7064(4) 0.2062(4) 0.21287(10)
H9 H 0.9877 0.1568 0.1908
H13 H 0.9819 0.2531 0.2109
H16 H 0.9369 0.0241 0.1518
N2 N 0.7570(3) 0.2414(3) 0.20178(7)
Zn5 Zn 0.52804(3) 0.27446(3) 0.118207(9)
Zn7 Zn 0.97196(3) 0.22554(3) 0.381793(9)
Zn8 Zn 0.47196(3) 0.27446(3) 0.381793(9)
Zn10 Zn 0.55301(3) 0.38208(3) 0.155631(9)
Zn11 Zn 0.94699(3) 0.11792(3) 0.344369(9)
Zn12 Zn 0.44699(3) 0.38208(3) 0.344369(9)
O26 O 0.5734(2) 0.2858(2) 0.37066(5)
O28 O 0.5511(2) 0.3444(2) 0.34361(6)
O30 O 0.8434(2) 0.2429(2) 0.38057(6)
O33 O 0.9112(2) 0.21435(18) 0.35573(6)
O36 O 0.6446(3) 0.1873(3) 0.29277(7)
O37 O 0.8416(3) 0.3284(3) 0.29289(7)
C49 C 0.7198(3) 0.2690(3) 0.35796(8)
H34 H 0.7138 0.2698 0.3712
C50 C 0.6626(3) 0.2863(3) 0.34616(8)
C51 C 0.5891(3) 0.3087(3) 0.35415(9)
C52 C 0.6706(3) 0.2844(3) 0.32632(8)
H35 H 0.6320 0.2971 0.3184
C53 C 0.7360(3) 0.2634(3) 0.31861(9)
C54 C 0.7951(3) 0.2465(3) 0.33040(8)
H36 H 0.8395 0.2330 0.3251
C55 C 0.7871(3) 0.2501(3) 0.35000(8)
C56 C 0.8497(3) 0.2339(3) 0.36299(10)
C57 C 0.6940(4) 0.2206(3) 0.28695(9)
C58 C 0.7189(3) 0.2320(3) 0.26696(9)
C59 C 0.6880(4) 0.2053(3) 0.24997(10)
H37 H 0.6477 0.1768 0.2500
C60 C 0.7769(3) 0.2746(3) 0.26676(9)
C61 C 0.7936(4) 0.2938(4) 0.28713(10)
N7 N 0.7430(3) 0.2586(3) 0.29822(7)
O3 O 0.9817(3) 0.8397(2) 0.12353(6)
O4 O 0.9861(2) 0.78987(19) 0.09596(6)
C6 C 0.9946(3) 0.9142(3) 0.07644(9)
H3 H 0.9868 0.8770 0.0688
C7 C 0.9983(3) 0.9082(3) 0.09632(8)
C8 C 0.9881(3) 0.8423(3) 0.10600(9)
C30 C 0.9637(8) 0.9967(6) 0.15990(17)
C31 C 0.9837(6) 0.8961(8) 0.17331(19)
H17 H 0.9635 0.8522 0.1745
H18 H 0.9875 0.9159 0.1858
C32 C 0.8662(7) 0.9217(7) 0.15305(17)
H20 H 0.8546 0.8760 0.1556
H21 H 0.8679 0.9287 0.1395
H22 H 0.8292 0.9497 0.1586
N4 N 0.9349(5) 0.9372(5) 0.16109(16)
Zn4 Zn 0.97196(3) 0.72554(3) 0.118207(9)
Zn3 Zn 0.97196(3) 0.77446(3) 0.881793(9)
Zn9 Zn 0.94699(3) 0.88208(3) 0.844369(9)
O16 O 0.9543(2) 0.9250(2) 0.87113(6)
O17 O 0.9691(2) 0.85864(18) 0.89657(6)
O20 O 0.9817(3) 0.6603(2) 0.87647(6)
O23 O 0.9861(2) 0.71013(19) 0.90404(6)
O32 O 0.8434(2) 0.7571(2) 0.88057(6)
O35 O 0.9112(2) 0.78565(18) 0.85573(6)
O38 O 0.9399(3) 0.8477(3) 0.81592(7)
O39 O 0.9830(2) 0.9744(3) 0.83321(7)
O40 O 0.8397(2) 0.9121(2) 0.84148(7)
C37 C 0.9806(3) 0.9741(3) 0.90083(8)
C38 C 0.9673(3) 0.9135(3) 0.88844(8)
C39 C 0.9838(3) 0.9683(3) 0.92061(8)
H31 H 0.9770 0.9271 0.9264
C62 C 0.9637(13) 0.8389(16) 0.80531(17)
C63 C 0.8948(19) 0.8545(14) 0.7746(4)
H39 H 0.8837 0.8980 0.7794
H40 H 0.9052 0.8570 0.7611
H41 H 0.8535 0.8257 0.7766
C64 C 0.9786(9) 0.7668(10) 0.7820(2)
H43 H 0.9339 0.7431 0.7845
H44 H 0.9896 0.7648 0.7685
C68 C 0.7910(6) 0.9125(3) 0.85397(12)
H52 H 0.8058 0.9096 0.8667
C69 C 0.6953(5) 0.9177(5) 0.83044(16)
H53 H 0.6428 0.9211 0.8298
H54 H 0.7171 0.9551 0.8241
H55 H 0.7108 0.8774 0.8243
C70 C 0.6701(6) 0.9181(5) 0.86690(17)
H56 H 0.6202 0.9219 0.8627
H57 H 0.6760 0.8777 0.8741
H58 H 0.6822 0.9554 0.8749
N8 N 0.9718(16) 0.8227(9) 0.7866(2)
N10 N 0.7186(4) 0.9168(3) 0.85046(14)
Zn8_2 Zn 0.02804(3) 0.72554(3) 0.381793(9)
Zn12_2 Zn 0.05301(3) 0.61792(3) 0.344369(9)
O3_2 O 0.5183(3) 0.1603(2) 0.12353(6)
O4_2 O 0.5139(2) 0.21013(19) 0.09596(6)
O6 O 0.4225 0.1032 0.0401
C1 C 0.4893(3) 0.0371(3) 0.10728(8)
H1 H 0.4865 0.0417 0.1205
C5 C 0.4972(3) 0.0238(3) 0.06825(8)
C6_2 C 0.5054(3) 0.0858(3) 0.07644(9)
H3_2 H 0.5132 0.1230 0.0688
C7_2 C 0.5017(3) 0.0918(3) 0.09632(8)
C8_2 C 0.5119(3) 0.1577(3) 0.10600(9)
C12 C 0.4910 0.0327 0.0167
C13 C 0.4613 0.0572 0.0356
C30_2 C 0.5363(8) 0.0033(6) 0.15990(17)
C31_2 C 0.5163(6) 0.1039(8) 0.17331(19)
H17_2 H 0.5365 0.1478 0.1745
H18_2 H 0.5125 0.0841 0.1858
H19 H 0.4684 0.1065 0.1676
C32_2 C 0.6338(7) 0.0783(7) 0.15305(17)
H20_2 H 0.6454 0.1240 0.1556
H21_2 H 0.6321 0.0713 0.1395
H22_2 H 0.6708 0.0503 0.1586
N1 N 0.4991(3) 0.0178(3) 0.04788(7)
N4_2 N 0.5651(5) 0.0628(5) 0.16109(16)
Zn3_2 Zn 0.52804(3) 0.22554(3) 0.881793(9)
Zn9_2 Zn 0.55301(3) 0.11792(3) 0.844369(9)
O16_2 O 0.5457(2) 0.0750(2) 0.87113(6)
O17_2 O 0.5309(2) 0.14136(18) 0.89657(6)
O20_2 O 0.5183(3) 0.3397(2) 0.87647(6)
O23_2 O 0.5139(2) 0.28987(19) 0.90404(6)
O24_2 O 0.4200 0.0710 0.9554
O27_2 O 0.4266(2) 0.2142(2) 0.87066(5)
O29_2 O 0.4489(2) 0.1556(2) 0.84361(6)
O32_2 O 0.6566(2) 0.2429(2) 0.88057(6)
O35_2 O 0.5888(2) 0.21435(18) 0.85573(6)
O38_2 O 0.5601(3) 0.1523(3) 0.81592(7)
O39_2 O 0.5170(2) 0.0256(3) 0.83321(7)
O40_2 O 0.6603(2) 0.0879(2) 0.84148(7)
C37_2 C 0.5194(3) 0.0259(3) 0.90083(8)
C38_2 C 0.5327(3) 0.0865(3) 0.88844(8)
C39_2 C 0.5162(3) 0.0317(3) 0.92061(8)
H31_2 H 0.5230 0.0729 0.9264
C44_2 C 0.4663 0.0315 0.9629
C45_2 C 0.4787 0.0179 0.9816
C46_2 C 0.4504 0.0579 0.9992
H33_2 H 0.4149 0.0911 0.9990
C62_2 C 0.5363(13) 0.1611(16) 0.80531(17)
H38_2 H 0.4877 0.1568 0.8092
C63_2 C 0.6052(19) 0.1455(14) 0.7746(4)
H39_2 H 0.6163 0.1020 0.7794
H40_2 H 0.5948 0.1430 0.7611
H41_2 H 0.6465 0.1743 0.7766
C64_2 C 0.5214(9) 0.2332(10) 0.7820(2)
H42_2 H 0.4819 0.2531 0.7891
H43_2 H 0.5661 0.2569 0.7845
H44_2 H 0.5104 0.2352 0.7685
H45_2 H 0.4369 0.0241 0.8482
C68_2 C 0.7090(6) 0.0875(3) 0.85397(12)
H52_2 H 0.6942 0.0904 0.8667
C69_2 C 0.8047(5) 0.0823(5) 0.83044(16)
H53_2 H 0.8572 0.0789 0.8298
H54_2 H 0.7829 0.0449 0.8241
H55_2 H 0.7892 0.1226 0.8243
C70_2 C 0.8299(6) 0.0819(5) 0.86690(17)
H56_2 H 0.8798 0.0781 0.8627
H57_2 H 0.8240 0.1223 0.8741
H58_2 H 0.8178 0.0446 0.8749
N8_2 N 0.5282(16) 0.1773(9) 0.7866(2)
N10_2 N 0.7814(4) 0.0832(3) 0.85046(14)
Zn1_2 Zn 0.47196(3) 0.77446(3) 0.118207(9)
Zn2_2 Zn 0.44699(3) 0.88208(3) 0.155631(9)
O1_2 O 0.4543(2) 0.9250(2) 0.12887(6)
O2_2 O 0.4691(2) 0.85864(18) 0.10343(6)
O5_2 O 0.5800 0.9290 0.0446
O7_2 O 0.5734(2) 0.7858(2) 0.12934(5)
O8_2 O 0.5511(2) 0.8444(2) 0.15639(6)
O9_2 O 0.8434(2) 0.7429(2) 0.11943(6)
O10_2 O 0.9112(2) 0.71435(18) 0.14427(6)
O11_2 O 0.6446(3) 0.6873(3) 0.20723(7)
O12_2 O 0.8416(3) 0.8284(3) 0.20711(7)
O13_2 O 0.4399(3) 0.8477(3) 0.18408(7)
O14_2 O 0.4830(2) 0.9744(3) 0.16679(7)
O15_2 O 0.3397(2) 0.9121(2) 0.15852(7)
C2_2 C 0.4806(3) 0.9741(3) 0.09917(8)
C3_2 C 0.4673(3) 0.9135(3) 0.11156(8)
C4_2 C 0.4838(3) 0.9683(3) 0.07939(8)
H2_2 H 0.4770 0.9271 0.0736
C9_2 C 0.5337 0.9685 0.0371
C10_2 C 0.5213 0.9821 0.0184
C11_2 C 0.5496 0.9421 0.0008
H4_2 H 0.5851 0.9089 0.0010
C14_2 C 0.7198(3) 0.7690(3) 0.14204(8)
H5_2 H 0.7138 0.7698 0.1288
C15_2 C 0.6626(3) 0.7863(3) 0.15384(8)
C16_2 C 0.5891(3) 0.8087(3) 0.14585(9)
C17_2 C 0.6706(3) 0.7844(3) 0.17368(8)
H6_2 H 0.6320 0.7971 0.1816
C18_2 C 0.7360(3) 0.7634(3) 0.18139(9)
C19_2 C 0.7951(3) 0.7465(3) 0.16960(8)
H7_2 H 0.8395 0.7330 0.1749
C20_2 C 0.7871(3) 0.7501(3) 0.15000(8)
C21_2 C 0.8497(3) 0.7339(3) 0.13701(10)
C22_2 C 0.6940(4) 0.7206(3) 0.21305(9)
C23_2 C 0.7189(3) 0.7320(3) 0.23304(9)
C24_2 C 0.6880(4) 0.7053(3) 0.25003(10)
H8_2 H 0.6477 0.6768 0.2500
C25_2 C 0.7769(3) 0.7746(3) 0.23324(9)
C26_2 C 0.7936(4) 0.7938(4) 0.21287(10)
C27_2 C 0.4637(13) 0.8389(16) 0.19469(17)
H9_2 H 0.5123 0.8432 0.1908
C28_2 C 0.3948(19) 0.8545(14) 0.2254(4)
H10_2 H 0.3837 0.8980 0.2206
H11_2 H 0.4052 0.8570 0.2389
H12_2 H 0.3535 0.8257 0.2234
C29_2 C 0.4786(9) 0.7668(10) 0.2180(2)
H13_2 H 0.5181 0.7469 0.2109
H14_2 H 0.4339 0.7431 0.2155
H15_2 H 0.4896 0.7648 0.2315
H16_2 H 0.5631 0.9759 0.1518
C33_2 C 0.2910(6) 0.9125(3) 0.14603(12)
H23_2 H 0.3058 0.9096 0.1333
C34_2 C 0.1953(5) 0.9177(5) 0.16956(16)
H24_2 H 0.1428 0.9211 0.1702
H25_2 H 0.2171 0.9551 0.1759
H26_2 H 0.2108 0.8774 0.1757
C35_2 C 0.1701(6) 0.9181(5) 0.13310(17)
H27_2 H 0.1202 0.9219 0.1373
H28_2 H 0.1760 0.8777 0.1259
H29_2 H 0.1822 0.9554 0.1251
N2_2 N 0.7430(3) 0.7586(3) 0.20178(7)
N3_2 N 0.4718(16) 0.8227(9) 0.2134(2)
N5_2 N 0.2186(4) 0.9168(3) 0.14954(14)
Zn7_2 Zn 0.52804(3) 0.77446(3) 0.381793(9)
Zn10_2 Zn 0.94699(3) 0.61792(3) 0.155631(9)
Zn11_2 Zn 0.55301(3) 0.88208(3) 0.344369(9)
O19_2 O 0.4817(3) 0.6603(2) 0.12353(6)
O22_2 O 0.4861(2) 0.71013(19) 0.09596(6)
O26_2 O 0.9266(2) 0.7142(2) 0.37066(5)
O28_2 O 0.9489(2) 0.6556(2) 0.34361(6)
O30_2 O 0.6566(2) 0.7571(2) 0.38057(6)
O31_2 O 0.3434(2) 0.7571(2) 0.11943(6)
O33_2 O 0.5888(2) 0.78565(18) 0.35573(6)
O34_2 O 0.4112(2) 0.78565(18) 0.14427(6)
O36_2 O 0.8554(3) 0.8127(3) 0.29277(7)
O37_2 O 0.6584(3) 0.6716(3) 0.29289(7)
C49_2 C 0.7802(3) 0.7310(3) 0.35796(8)
H34_2 H 0.7862 0.7302 0.3712
C50_2 C 0.8374(3) 0.7137(3) 0.34616(8)
C51_2 C 0.9109(3) 0.6913(3) 0.35415(9)
C52_2 C 0.8294(3) 0.7156(3) 0.32632(8)
H35_2 H 0.8680 0.7029 0.3184
C53_2 C 0.7640(3) 0.7366(3) 0.31861(9)
C54_2 C 0.7049(3) 0.7535(3) 0.33040(8)
H36_2 H 0.6605 0.7670 0.3251
C55_2 C 0.7129(3) 0.7499(3) 0.35000(8)
C56_2 C 0.6503(3) 0.7661(3) 0.36299(10)
C57_2 C 0.8060(4) 0.7794(3) 0.28695(9)
C58_2 C 0.7811(3) 0.7680(3) 0.26696(9)
C59_2 C 0.8120(4) 0.7947(3) 0.24997(10)
H37_2 H 0.8523 0.8232 0.2500
C60_2 C 0.7231(3) 0.7254(3) 0.26676(9)
C61_2 C 0.7064(4) 0.7062(4) 0.28713(10)
N7_2 N 0.7570(3) 0.7414(3) 0.29822(7)
Zn6_2 Zn 0.47196(3) 0.72554(3) 0.881793(9)
O18_2 O 0.4817(3) 0.8397(2) 0.87647(6)
O21_2 O 0.4861(2) 0.78987(19) 0.90404(6)
O25 O 0.5775 0.8968 0.9599
C36 C 0.5107(3) 0.9629(3) 0.89272(8)
H30 H 0.5135 0.9583 0.8795
C40 C 0.5028(3) 0.9762(3) 0.93175(8)
C41_2 C 0.4946(3) 0.9142(3) 0.92356(9)
H32_2 H 0.4868 0.8770 0.9312
C42_2 C 0.4983(3) 0.9082(3) 0.90368(8)
C43_2 C 0.4881(3) 0.8423(3) 0.89400(9)
C47 C 0.5090 0.9673 0.9833
C48 C 0.5387 0.9428 0.9644
C65_2 C 0.4637(8) 0.9967(6) 0.84010(17)
C66_2 C 0.4837(6) 0.8961(8) 0.82669(19)
H46_2 H 0.4635 0.8522 0.8255
H47_2 H 0.4875 0.9159 0.8142
H48 H 0.5316 0.8935 0.8324
C67_2 C 0.3662(7) 0.9217(7) 0.84695(17)
H49_2 H 0.3546 0.8760 0.8444
H50_2 H 0.3679 0.9287 0.8605
H51_2 H 0.3292 0.9497 0.8414
N6 N 0.5009(3) 0.9822(3) 0.95212(7)
N9_2 N 0.4349(5) 0.9372(5) 0.83891(16)
O24_3 O 0.0800 0.5710 0.0446
O27_3 O 0.0734(2) 0.7142(2) 0.12934(5)
O29_3 O 0.0511(2) 0.6556(2) 0.15639(6)
C41_3 C 0.0054(3) 0.4142(3) 0.07644(9)
H32_3 H 0.0132 0.3770 0.0688
C42_3 C 0.0017(3) 0.4082(3) 0.09632(8)
C43_3 C 0.0119(3) 0.3423(3) 0.10600(9)
C44_3 C 0.0337 0.5315 0.0371
C45_3 C 0.0213 0.5179 0.0184
C46_3 C 0.0496 0.5579 0.0008
H33_3 H 0.0851 0.5911 0.0010
H38_3 H 0.0123 0.6568 0.1908
H42_3 H 0.0181 0.7531 0.2109
C65_3 C 0.0363(8) 0.4967(6) 0.15990(17)
H45_3 H 0.0631 0.5241 0.1518
C66_3 C 0.0163(6) 0.3961(8) 0.17331(19)
H46_3 H 0.0365 0.3522 0.1745
H47_3 H 0.0125 0.4159 0.1858
C67_3 C 0.1338(7) 0.4217(7) 0.15305(17)
H49_3 H 0.1454 0.3760 0.1556
H50_3 H 0.1321 0.4287 0.1395
H51_3 H 0.1708 0.4497 0.1586
N9_3 N 0.0651(5) 0.4372(5) 0.16109(16)
Zn2_3 Zn 0.05301(3) 0.38208(3) 0.844369(9)
O1_3 O 0.0457(2) 0.4250(2) 0.87113(6)
O2_3 O 0.0309(2) 0.35864(18) 0.89657(6)
O6_2 O 0.0775 0.6032 0.9599
O13_3 O 0.0601(3) 0.3477(3) 0.81592(7)
O14_3 O 0.0170(2) 0.4744(3) 0.83321(7)
O15_3 O 0.1603(2) 0.4121(2) 0.84148(7)
C1_2 C 0.0107(3) 0.5371(3) 0.89272(8)
H1_2 H 0.0135 0.5417 0.8795
C2_3 C 0.0194(3) 0.4741(3) 0.90083(8)
C3_3 C 0.0327(3) 0.4135(3) 0.88844(8)
C4_3 C 0.0162(3) 0.4683(3) 0.92061(8)
H2_3 H 0.0230 0.4271 0.9264
C5_2 C 0.0028(3) 0.5238(3) 0.93175(8)
C12_2 C 0.0090 0.5327 0.9833
C13_2 C 0.0387 0.5572 0.9644
C27_3 C 0.0363(13) 0.3389(16) 0.80531(17)
C28_3 C 0.1052(19) 0.3545(14) 0.7746(4)
H10_3 H 0.1163 0.3980 0.7794
H11_3 H 0.0948 0.3570 0.7611
H12_3 H 0.1465 0.3257 0.7766
C29_3 C 0.0214(9) 0.2668(10) 0.7820(2)
H14_3 H 0.0661 0.2431 0.7845
H15_3 H 0.0104 0.2648 0.7685
H19_2 H 0.0316 0.6065 0.8324
C33_3 C 0.2090(6) 0.4125(3) 0.85397(12)
H23_3 H 0.1942 0.4096 0.8667
C34_3 C 0.3047(5) 0.4177(5) 0.83044(16)
H24_3 H 0.3572 0.4211 0.8298
H25_3 H 0.2829 0.4551 0.8241
H26_3 H 0.2892 0.3774 0.8243
C35_3 C 0.3299(6) 0.4181(5) 0.86690(17)
H27_3 H 0.3798 0.4219 0.8627
H28_3 H 0.3240 0.3777 0.8741
H29_3 H 0.3178 0.4554 0.8749
N1_2 N 0.0009(3) 0.5178(3) 0.95212(7)
N3_3 N 0.0282(16) 0.3227(9) 0.7866(2)
N5_3 N 0.2814(4) 0.4168(3) 0.85046(14)
O31_3 O 0.1566(2) 0.2571(2) 0.88057(6)
O34_3 O 0.0888(2) 0.28565(18) 0.85573(6)
O16_3 O 0.9543(2) 0.5750(2) 0.12887(6)
O17_3 O 0.9691(2) 0.64136(18) 0.10343(6)
O25_2 O 0.9225 0.3968 0.0401
O38_3 O 0.9399(3) 0.6523(3) 0.18408(7)
O39_3 O 0.9830(2) 0.5256(3) 0.16679(7)
O40_3 O 0.8397(2) 0.5879(2) 0.15852(7)
C36_2 C 0.9893(3) 0.4629(3) 0.10728(8)
H30_2 H 0.9865 0.4583 0.1205
C37_3 C 0.9806(3) 0.5259(3) 0.09917(8)
C38_3 C 0.9673(3) 0.5865(3) 0.11156(8)
C39_3 C 0.9838(3) 0.5317(3) 0.07939(8)
H31_3 H 0.9770 0.5729 0.0736
C40_2 C 0.9972(3) 0.4762(3) 0.06825(8)
C47_2 C 0.9910 0.4673 0.0167
C48_2 C 0.9613 0.4428 0.0356
C62_3 C 0.9637(13) 0.6611(16) 0.19469(17)
C63_3 C 0.8948(19) 0.6455(14) 0.2254(4)
H39_3 H 0.8837 0.6020 0.2206
H40_3 H 0.9052 0.6430 0.2389
H41_3 H 0.8535 0.6743 0.2234
C64_3 C 0.9786(9) 0.7332(10) 0.2180(2)
H43_3 H 0.9339 0.7569 0.2155
H44_3 H 0.9896 0.7352 0.2315
H48_2 H 0.9684 0.3935 0.1676
C68_3 C 0.7910(6) 0.5875(3) 0.14603(12)
H52_3 H 0.8058 0.5904 0.1333
C69_3 C 0.6953(5) 0.5823(5) 0.16956(16)
H53_3 H 0.6428 0.5789 0.1702
H54_3 H 0.7171 0.5449 0.1759
H55_3 H 0.7108 0.6226 0.1757
C70_3 C 0.6701(6) 0.5819(5) 0.13310(17)
H56_3 H 0.6202 0.5781 0.1373
H57_3 H 0.6760 0.6223 0.1259
H58_3 H 0.6822 0.5446 0.1251
N6_2 N 0.9991(3) 0.4822(3) 0.04788(7)
N8_3 N 0.9718(16) 0.6773(9) 0.2134(2)
N10_3 N 0.7186(4) 0.5832(3) 0.14954(14)
O5_3 O 0.9200 0.4290 0.9554
O7_3 O 0.9266(2) 0.2858(2) 0.87066(5)
O8_3 O 0.9489(2) 0.3444(2) 0.84361(6)
O11_3 O 0.8554(3) 0.1873(3) 0.79277(7)
O12_3 O 0.6584(3) 0.3284(3) 0.79289(7)
C6_3 C 0.9946(3) 0.5858(3) 0.92356(9)
H3_3 H 0.9868 0.6230 0.9312
C7_3 C 0.9983(3) 0.5918(3) 0.90368(8)
C8_3 C 0.9881(3) 0.6577(3) 0.89400(9)
C9_3 C 0.9663 0.4685 0.9629
C10_3 C 0.9787 0.4821 0.9816
C11_3 C 0.9504 0.4421 0.9992
H4_3 H 0.9149 0.4089 0.9990
C14_3 C 0.7802(3) 0.2690(3) 0.85796(8)
H5_3 H 0.7862 0.2698 0.8712
C15_3 C 0.8374(3) 0.2863(3) 0.84616(8)
C16_3 C 0.9109(3) 0.3087(3) 0.85415(9)
C17_3 C 0.8294(3) 0.2844(3) 0.82632(8)
H6_3 H 0.8680 0.2971 0.8184
C18_3 C 0.7640(3) 0.2634(3) 0.81861(9)
C19_3 C 0.7049(3) 0.2465(3) 0.83040(8)
H7_3 H 0.6605 0.2330 0.8251
C20_3 C 0.7129(3) 0.2501(3) 0.85000(8)
C21_3 C 0.6503(3) 0.2339(3) 0.86299(10)
C22_3 C 0.8060(4) 0.2206(3) 0.78695(9)
C23_3 C 0.7811(3) 0.2320(3) 0.76696(9)
C24_3 C 0.8120(4) 0.2053(3) 0.74997(10)
H8_3 H 0.8523 0.1768 0.7500
C25_3 C 0.7231(3) 0.2746(3) 0.76676(9)
C26_3 C 0.7064(4) 0.2938(4) 0.78713(10)
H9_3 H 0.9877 0.3432 0.8092
H13_3 H 0.9819 0.2469 0.7891
C30_3 C 0.9637(8) 0.5033(6) 0.84010(17)
H16_3 H 0.9369 0.4759 0.8482
C31_3 C 0.9837(6) 0.6039(8) 0.82669(19)
H17_3 H 0.9635 0.6478 0.8255
H18_3 H 0.9875 0.5841 0.8142
C32_3 C 0.8662(7) 0.5783(7) 0.84695(17)
H20_3 H 0.8546 0.6240 0.8444
H21_3 H 0.8679 0.5713 0.8605
H22_3 H 0.8292 0.5503 0.8414
N2_3 N 0.7570(3) 0.2586(3) 0.79822(7)
N4_3 N 0.9349(5) 0.5628(5) 0.83891(16)
Zn7_3 Zn 0.97196(3) 0.27446(3) 0.618207(9)
Zn8_3 Zn 0.47196(3) 0.22554(3) 0.618207(9)
Zn11_3 Zn 0.94699(3) 0.38208(3) 0.655631(9)
Zn12_3 Zn 0.44699(3) 0.11792(3) 0.655631(9)
O26_3 O 0.5734(2) 0.2142(2) 0.62934(5)
O28_3 O 0.5511(2) 0.1556(2) 0.65639(6)
O30_3 O 0.8434(2) 0.2571(2) 0.61943(6)
O33_3 O 0.9112(2) 0.28565(18) 0.64427(6)
O36_3 O 0.6446(3) 0.3127(3) 0.70723(7)
O37_3 O 0.8416(3) 0.1716(3) 0.70711(7)
C49_3 C 0.7198(3) 0.2310(3) 0.64204(8)
H34_3 H 0.7138 0.2302 0.6288
C50_3 C 0.6626(3) 0.2137(3) 0.65384(8)
C51_3 C 0.5891(3) 0.1913(3) 0.64585(9)
C52_3 C 0.6706(3) 0.2156(3) 0.67368(8)
H35_3 H 0.6320 0.2029 0.6816
C53_3 C 0.7360(3) 0.2366(3) 0.68139(9)
C54_3 C 0.7951(3) 0.2535(3) 0.66960(8)
H36_3 H 0.8395 0.2670 0.6749
C55_3 C 0.7871(3) 0.2499(3) 0.65000(8)
C56_3 C 0.8497(3) 0.2661(3) 0.63701(10)
C57_3 C 0.6940(4) 0.2794(3) 0.71305(9)
C58_3 C 0.7189(3) 0.2680(3) 0.73304(9)
C59_3 C 0.6880(4) 0.2947(3) 0.75003(10)
H37_3 H 0.6477 0.3232 0.7500
C60_3 C 0.7769(3) 0.2254(3) 0.73324(9)
C61_3 C 0.7936(4) 0.2062(4) 0.71287(10)
N7_3 N 0.7430(3) 0.2414(3) 0.70178(7)
Zn8_4 Zn 0.02804(3) 0.77446(3) 0.618207(9)
Zn12_4 Zn 0.05301(3) 0.88208(3) 0.655631(9)
O16_4 O 0.5457(2) 0.4250(2) 0.12887(6)
O17_4 O 0.5309(2) 0.35864(18) 0.10343(6)
O24_4 O 0.4200 0.4290 0.0446
O25_3 O 0.5775 0.6032 0.0401
O27_4 O 0.4266(2) 0.2858(2) 0.12934(5)
O29_4 O 0.4489(2) 0.3444(2) 0.15639(6)
O38_4 O 0.5601(3) 0.3477(3) 0.18408(7)
O39_4 O 0.5170(2) 0.4744(3) 0.16679(7)
O40_4 O 0.6603(2) 0.4121(2) 0.15852(7)
C36_3 C 0.5107(3) 0.5371(3) 0.10728(8)
H30_3 H 0.5135 0.5417 0.1205
C37_4 C 0.5194(3) 0.4741(3) 0.09917(8)
C38_4 C 0.5327(3) 0.4135(3) 0.11156(8)
C39_4 C 0.5162(3) 0.4683(3) 0.07939(8)
H31_4 H 0.5230 0.4271 0.0736
C40_3 C 0.5028(3) 0.5238(3) 0.06825(8)
C41_4 C 0.4946(3) 0.5858(3) 0.07644(9)
H32_4 H 0.4868 0.6230 0.0688
C42_4 C 0.4983(3) 0.5918(3) 0.09632(8)
C43_4 C 0.4881(3) 0.6577(3) 0.10600(9)
C44_4 C 0.4663 0.4685 0.0371
C45_4 C 0.4787 0.4821 0.0184
C46_4 C 0.4504 0.4421 0.0008
H33_4 H 0.4149 0.4089 0.0010
C47_3 C 0.5090 0.5327 0.0167
C48_3 C 0.5387 0.5572 0.0356
C62_4 C 0.5363(13) 0.3389(16) 0.19469(17)
H38_4 H 0.4877 0.3432 0.1908
C63_4 C 0.6052(19) 0.3545(14) 0.2254(4)
H39_4 H 0.6163 0.3980 0.2206
H40_4 H 0.5948 0.3570 0.2389
H41_4 H 0.6465 0.3257 0.2234
C64_4 C 0.5214(9) 0.2668(10) 0.2180(2)
H42_4 H 0.4819 0.2469 0.2109
H43_4 H 0.5661 0.2431 0.2155
H44_4 H 0.5104 0.2648 0.2315
C65_4 C 0.4637(8) 0.5033(6) 0.15990(17)
H45_4 H 0.4369 0.4759 0.1518
C66_4 C 0.4837(6) 0.6039(8) 0.17331(19)
H46_4 H 0.4635 0.6478 0.1745
H47_4 H 0.4875 0.5841 0.1858
H48_3 H 0.5316 0.6065 0.1676
C67_4 C 0.3662(7) 0.5783(7) 0.15305(17)
H49_4 H 0.3546 0.6240 0.1556
H50_4 H 0.3679 0.5713 0.1395
H51_4 H 0.3292 0.5503 0.1586
C68_4 C 0.7090(6) 0.4125(3) 0.14603(12)
H52_4 H 0.6942 0.4096 0.1333
C69_4 C 0.8047(5) 0.4177(5) 0.16956(16)
H53_4 H 0.8572 0.4211 0.1702
H54_4 H 0.7829 0.4551 0.1759
H55_4 H 0.7892 0.3774 0.1757
C70_4 C 0.8299(6) 0.4181(5) 0.13310(17)
H56_4 H 0.8798 0.4219 0.1373
H57_4 H 0.8240 0.3777 0.1259
H58_4 H 0.8178 0.4554 0.1251
N6_3 N 0.5009(3) 0.5178(3) 0.04788(7)
N8_4 N 0.5282(16) 0.3227(9) 0.2134(2)
N9_4 N 0.4349(5) 0.5628(5) 0.16109(16)
N10_4 N 0.7814(4) 0.4168(3) 0.14954(14)
Zn2_4 Zn 0.44699(3) 0.61792(3) 0.844369(9)
O1_4 O 0.4543(2) 0.5750(2) 0.87113(6)
O2_4 O 0.4691(2) 0.64136(18) 0.89657(6)
O5_4 O 0.5800 0.5710 0.9554
O6_3 O 0.4225 0.3968 0.9599
O7_4 O 0.5734(2) 0.7142(2) 0.87066(5)
O8_4 O 0.5511(2) 0.6556(2) 0.84361(6)
O11_4 O 0.6446(3) 0.8127(3) 0.79277(7)
O12_4 O 0.8416(3) 0.6716(3) 0.79289(7)
O13_4 O 0.4399(3) 0.6523(3) 0.81592(7)
O14_4 O 0.4830(2) 0.5256(3) 0.83321(7)
O15_4 O 0.3397(2) 0.5879(2) 0.84148(7)
C1_3 C 0.4893(3) 0.4629(3) 0.89272(8)
H1_3 H 0.4865 0.4583 0.8795
C2_4 C 0.4806(3) 0.5259(3) 0.90083(8)
C3_4 C 0.4673(3) 0.5865(3) 0.88844(8)
C4_4 C 0.4838(3) 0.5317(3) 0.92061(8)
H2_4 H 0.4770 0.5729 0.9264
C5_3 C 0.4972(3) 0.4762(3) 0.93175(8)
C6_4 C 0.5054(3) 0.4142(3) 0.92356(9)
H3_4 H 0.5132 0.3770 0.9312
C7_4 C 0.5017(3) 0.4082(3) 0.90368(8)
C8_4 C 0.5119(3) 0.3423(3) 0.89400(9)
C9_4 C 0.5337 0.5315 0.9629
C10_4 C 0.5213 0.5179 0.9816
C11_4 C 0.5496 0.5579 0.9992
H4_4 H 0.5851 0.5911 0.9990
C12_3 C 0.4910 0.4673 0.9833
C13_3 C 0.4613 0.4428 0.9644
C14_4 C 0.7198(3) 0.7310(3) 0.85796(8)
H5_4 H 0.7138 0.7302 0.8712
C15_4 C 0.6626(3) 0.7137(3) 0.84616(8)
C16_4 C 0.5891(3) 0.6913(3) 0.85415(9)
C17_4 C 0.6706(3) 0.7156(3) 0.82632(8)
H6_4 H 0.6320 0.7029 0.8184
C18_4 C 0.7360(3) 0.7366(3) 0.81861(9)
C19_4 C 0.7951(3) 0.7535(3) 0.83040(8)
H7_4 H 0.8395 0.7670 0.8251
C20_4 C 0.7871(3) 0.7499(3) 0.85000(8)
C21_4 C 0.8497(3) 0.7661(3) 0.86299(10)
C22_4 C 0.6940(4) 0.7794(3) 0.78695(9)
C23_4 C 0.7189(3) 0.7680(3) 0.76696(9)
C24_4 C 0.6880(4) 0.7947(3) 0.74997(10)
H8_4 H 0.6477 0.8232 0.7500
C25_4 C 0.7769(3) 0.7254(3) 0.76676(9)
C26_4 C 0.7936(4) 0.7062(4) 0.78713(10)
C27_4 C 0.4637(13) 0.6611(16) 0.80531(17)
H9_4 H 0.5123 0.6568 0.8092
C28_4 C 0.3948(19) 0.6455(14) 0.7746(4)
H10_4 H 0.3837 0.6020 0.7794
H11_4 H 0.4052 0.6430 0.7611
H12_4 H 0.3535 0.6743 0.7766
C29_4 C 0.4786(9) 0.7332(10) 0.7820(2)
H13_4 H 0.5181 0.7531 0.7891
H14_4 H 0.4339 0.7569 0.7845
H15_4 H 0.4896 0.7352 0.7685
C30_4 C 0.5363(8) 0.4967(6) 0.84010(17)
H16_4 H 0.5631 0.5241 0.8482
C31_4 C 0.5163(6) 0.3961(8) 0.82669(19)
H17_4 H 0.5365 0.3522 0.8255
H18_4 H 0.5125 0.4159 0.8142
H19_3 H 0.4684 0.3935 0.8324
C32_4 C 0.6338(7) 0.4217(7) 0.84695(17)
H20_4 H 0.6454 0.3760 0.8444
H21_4 H 0.6321 0.4287 0.8605
H22_4 H 0.6708 0.4497 0.8414
C33_4 C 0.2910(6) 0.5875(3) 0.85397(12)
H23_4 H 0.3058 0.5904 0.8667
C34_4 C 0.1953(5) 0.5823(5) 0.83044(16)
H24_4 H 0.1428 0.5789 0.8298
H25_4 H 0.2171 0.5449 0.8241
H26_4 H 0.2108 0.6226 0.8243
C35_4 C 0.1701(6) 0.5819(5) 0.86690(17)
H27_4 H 0.1202 0.5781 0.8627
H28_4 H 0.1760 0.6223 0.8741
H29_4 H 0.1822 0.5446 0.8749
N1_3 N 0.4991(3) 0.4822(3) 0.95212(7)
N2_4 N 0.7430(3) 0.7414(3) 0.79822(7)
N3_4 N 0.4718(16) 0.6773(9) 0.7866(2)
N4_4 N 0.5651(5) 0.4372(5) 0.83891(16)
N5_4 N 0.2186(4) 0.5832(3) 0.85046(14)
Zn7_4 Zn 0.52804(3) 0.72554(3) 0.618207(9)
Zn11_4 Zn 0.55301(3) 0.61792(3) 0.655631(9)
O26_4 O 0.9266(2) 0.7858(2) 0.62934(5)
O28_4 O 0.9489(2) 0.8444(2) 0.65639(6)
O30_4 O 0.6566(2) 0.7429(2) 0.61943(6)
O31_4 O 0.3434(2) 0.7429(2) 0.88057(6)
O33_4 O 0.5888(2) 0.71435(18) 0.64427(6)
O34_4 O 0.4112(2) 0.71435(18) 0.85573(6)
O36_4 O 0.8554(3) 0.6873(3) 0.70723(7)
O37_4 O 0.6584(3) 0.8284(3) 0.70711(7)
C49_4 C 0.7802(3) 0.7690(3) 0.64204(8)
H34_4 H 0.7862 0.7698 0.6288
C50_4 C 0.8374(3) 0.7863(3) 0.65384(8)
C51_4 C 0.9109(3) 0.8087(3) 0.64585(9)
C52_4 C 0.8294(3) 0.7844(3) 0.67368(8)
H35_4 H 0.8680 0.7971 0.6816
C53_4 C 0.7640(3) 0.7634(3) 0.68139(9)
C54_4 C 0.7049(3) 0.7465(3) 0.66960(8)
H36_4 H 0.6605 0.7330 0.6749
C55_4 C 0.7129(3) 0.7501(3) 0.65000(8)
C56_4 C 0.6503(3) 0.7339(3) 0.63701(10)
C57_4 C 0.8060(4) 0.7206(3) 0.71305(9)
C58_4 C 0.7811(3) 0.7320(3) 0.73304(9)
C59_4 C 0.8120(4) 0.7053(3) 0.75003(10)
H37_4 H 0.8523 0.6768 0.7500
C60_4 C 0.7231(3) 0.7746(3) 0.73324(9)
C61_4 C 0.7064(4) 0.7938(4) 0.71287(10)
N7_4 N 0.7570(3) 0.7586(3) 0.70178(7)
O1_5 O 0.5457(2) 0.5750(2) 0.62887(6)
O2_5 O 0.5309(2) 0.64136(18) 0.60343(6)
O3_3 O 0.4817(3) 0.3397(2) 0.62353(6)
O4_3 O 0.4861(2) 0.28987(19) 0.59596(6)
O5_5 O 0.4200 0.5710 0.5446
O6_4 O 0.5775 0.3968 0.5401
O7_5 O 0.4266(2) 0.7142(2) 0.62934(5)
O8_5 O 0.4489(2) 0.6556(2) 0.65639(6)
O9_3 O 0.1566(2) 0.7571(2) 0.61943(6)
O10_3 O 0.0888(2) 0.78565(18) 0.64427(6)
O11_5 O 0.3554(3) 0.8127(3) 0.70723(7)
O12_5 O 0.1584(3) 0.6716(3) 0.70711(7)
O13_5 O 0.5601(3) 0.6523(3) 0.68408(7)
O14_5 O 0.5170(2) 0.5256(3) 0.66679(7)
O15_5 O 0.6603(2) 0.5879(2) 0.65852(7)
C1_4 C 0.5107(3) 0.4629(3) 0.60728(8)
H1_4 H 0.5135 0.4583 0.6205
C2_5 C 0.5194(3) 0.5259(3) 0.59917(8)
C3_5 C 0.5327(3) 0.5865(3) 0.61156(8)
C4_5 C 0.5162(3) 0.5317(3) 0.57939(8)
H2_5 H 0.5230 0.5729 0.5736
C5_4 C 0.5028(3) 0.4762(3) 0.56825(8)
C6_5 C 0.4946(3) 0.4142(3) 0.57644(9)
H3_5 H 0.4868 0.3770 0.5688
C7_5 C 0.4983(3) 0.4082(3) 0.59632(8)
C8_5 C 0.4881(3) 0.3423(3) 0.60600(9)
C9_5 C 0.4663 0.5315 0.5371
C10_5 C 0.4787 0.5179 0.5184
C11_5 C 0.4504 0.5579 0.5008
H4_5 H 0.4149 0.5911 0.5010
C12_4 C 0.5090 0.4673 0.5167
C13_4 C 0.5387 0.4428 0.5356
C14_5 C 0.2802(3) 0.7310(3) 0.64204(8)
H5_5 H 0.2862 0.7302 0.6288
C15_5 C 0.3374(3) 0.7137(3) 0.65384(8)
C16_5 C 0.4109(3) 0.6913(3) 0.64585(9)
C17_5 C 0.3294(3) 0.7156(3) 0.67368(8)
H6_5 H 0.3680 0.7029 0.6816
C18_5 C 0.2640(3) 0.7366(3) 0.68139(9)
C19_5 C 0.2049(3) 0.7535(3) 0.66960(8)
H7_5 H 0.1605 0.7670 0.6749
C20_5 C 0.2129(3) 0.7499(3) 0.65000(8)
C21_5 C 0.1503(3) 0.7661(3) 0.63701(10)
C22_5 C 0.3060(4) 0.7794(3) 0.71305(9)
C23_5 C 0.2811(3) 0.7680(3) 0.73304(9)
C24_5 C 0.3120(4) 0.7947(3) 0.75003(10)
H8_5 H 0.3523 0.8232 0.7500
C25_5 C 0.2231(3) 0.7254(3) 0.73324(9)
C26_5 C 0.2064(4) 0.7062(4) 0.71287(10)
C27_5 C 0.5363(13) 0.6611(16) 0.69469(17)
H9_5 H 0.4877 0.6568 0.6908
C28_5 C 0.6052(19) 0.6455(14) 0.7254(4)
H10_5 H 0.6163 0.6020 0.7206
H11_5 H 0.5948 0.6430 0.7389
H12_5 H 0.6465 0.6743 0.7234
C29_5 C 0.5214(9) 0.7332(10) 0.7180(2)
H13_5 H 0.4819 0.7531 0.7109
H14_5 H 0.5661 0.7569 0.7155
H15_5 H 0.5104 0.7352 0.7315
C30_5 C 0.4637(8) 0.4967(6) 0.65990(17)
H16_5 H 0.4369 0.5241 0.6518
C31_5 C 0.4837(6) 0.3961(8) 0.67331(19)
H17_5 H 0.4635 0.3522 0.6745
H18_5 H 0.4875 0.4159 0.6858
H19_4 H 0.5316 0.3935 0.6676
C32_5 C 0.3662(7) 0.4217(7) 0.65305(17)
H20_5 H 0.3546 0.3760 0.6556
H21_5 H 0.3679 0.4287 0.6395
H22_5 H 0.3292 0.4497 0.6586
C33_5 C 0.7090(6) 0.5875(3) 0.64603(12)
H23_5 H 0.6942 0.5904 0.6333
C34_5 C 0.8047(5) 0.5823(5) 0.66956(16)
H24_5 H 0.8572 0.5789 0.6702
H25_5 H 0.7829 0.5449 0.6759
H26_5 H 0.7892 0.6226 0.6757
C35_5 C 0.8299(6) 0.5819(5) 0.63310(17)
H27_5 H 0.8798 0.5781 0.6373
H28_5 H 0.8240 0.6223 0.6259
H29_5 H 0.8178 0.5446 0.6251
N1_4 N 0.5009(3) 0.4822(3) 0.54788(7)
N2_5 N 0.2570(3) 0.7414(3) 0.70178(7)
N3_5 N 0.5282(16) 0.6773(9) 0.7134(2)
N4_5 N 0.4349(5) 0.4372(5) 0.66109(16)
N5_5 N 0.7814(4) 0.5832(3) 0.64954(14)
O16_5 O 0.4543(2) 0.4250(2) 0.37113(6)
O17_5 O 0.4691(2) 0.35864(18) 0.39657(6)
O18_3 O 0.5183(3) 0.6603(2) 0.37647(6)
O19_3 O 0.5183(3) 0.8397(2) 0.62353(6)
O20_3 O 0.4817(3) 0.1603(2) 0.37647(6)
O21_3 O 0.5139(2) 0.71013(19) 0.40404(6)
O22_3 O 0.5139(2) 0.78987(19) 0.59596(6)
O23_3 O 0.4861(2) 0.21013(19) 0.40404(6)
O24_5 O 0.5800 0.4290 0.4554
O25_4 O 0.4225 0.6032 0.4599
O32_3 O 0.3434(2) 0.2571(2) 0.38057(6)
O35_3 O 0.4112(2) 0.28565(18) 0.35573(6)
O36_5 O 0.1446(3) 0.6873(3) 0.79277(7)
O37_5 O 0.3416(3) 0.8284(3) 0.79289(7)
O38_5 O 0.4399(3) 0.3477(3) 0.31592(7)
O39_5 O 0.4830(2) 0.4744(3) 0.33321(7)
O40_5 O 0.3397(2) 0.4121(2) 0.34148(7)
C36_4 C 0.4893(3) 0.5371(3) 0.39272(8)
H30_4 H 0.4865 0.5417 0.3795
C37_5 C 0.4806(3) 0.4741(3) 0.40083(8)
C38_5 C 0.4673(3) 0.4135(3) 0.38844(8)
C39_5 C 0.4838(3) 0.4683(3) 0.42061(8)
H31_5 H 0.4770 0.4271 0.4264
C40_4 C 0.4972(3) 0.5238(3) 0.43175(8)
C41_5 C 0.5054(3) 0.5858(3) 0.42356(9)
H32_5 H 0.5132 0.6230 0.4312
C42_5 C 0.5017(3) 0.5918(3) 0.40368(8)
C43_5 C 0.5119(3) 0.6577(3) 0.39400(9)
C44_5 C 0.5337 0.4685 0.4629
C45_5 C 0.5213 0.4821 0.4816
C46_5 C 0.5496 0.4421 0.4992
H33_5 H 0.5851 0.4089 0.4990
C47_4 C 0.4910 0.5327 0.4833
C48_4 C 0.4613 0.5572 0.4644
C49_5 C 0.2198(3) 0.7690(3) 0.85796(8)
H34_5 H 0.2138 0.7698 0.8712
C50_5 C 0.1626(3) 0.7863(3) 0.84616(8)
C51_5 C 0.0891(3) 0.8087(3) 0.85415(9)
C52_5 C 0.1706(3) 0.7844(3) 0.82632(8)
H35_5 H 0.1320 0.7971 0.8184
C53_5 C 0.2360(3) 0.7634(3) 0.81861(9)
C54_5 C 0.2951(3) 0.7465(3) 0.83040(8)
H36_5 H 0.3395 0.7330 0.8251
C55_5 C 0.2871(3) 0.7501(3) 0.85000(8)
C56_5 C 0.3497(3) 0.7339(3) 0.86299(10)
C57_5 C 0.1940(4) 0.7206(3) 0.78695(9)
C58_5 C 0.2189(3) 0.7320(3) 0.76696(9)
C59_5 C 0.1880(4) 0.7053(3) 0.74997(10)
H37_5 H 0.1477 0.6768 0.7500
C60_5 C 0.2769(3) 0.7746(3) 0.76676(9)
C61_5 C 0.2936(4) 0.7938(4) 0.78713(10)
C62_5 C 0.4637(13) 0.3389(16) 0.30531(17)
H38_5 H 0.5123 0.3432 0.3092
C63_5 C 0.3948(19) 0.3545(14) 0.2746(4)
H39_5 H 0.3837 0.3980 0.2794
H40_5 H 0.4052 0.3570 0.2611
H41_5 H 0.3535 0.3257 0.2766
C64_5 C 0.4786(9) 0.2668(10) 0.2820(2)
H42_5 H 0.5181 0.2469 0.2891
H43_5 H 0.4339 0.2431 0.2845
H44_5 H 0.4896 0.2648 0.2685
C65_5 C 0.5363(8) 0.5033(6) 0.34010(17)
H45_5 H 0.5631 0.4759 0.3482
C66_5 C 0.5163(6) 0.6039(8) 0.32669(19)
H46_5 H 0.5365 0.6478 0.3255
H47_5 H 0.5125 0.5841 0.3142
H48_4 H 0.4684 0.6065 0.3324
C67_5 C 0.6338(7) 0.5783(7) 0.34695(17)
H49_5 H 0.6454 0.6240 0.3444
H50_5 H 0.6321 0.5713 0.3605
H51_5 H 0.6708 0.5503 0.3414
C68_5 C 0.2910(6) 0.4125(3) 0.35397(12)
H52_5 H 0.3058 0.4096 0.3667
C69_5 C 0.1953(5) 0.4177(5) 0.33044(16)
H53_5 H 0.1428 0.4211 0.3298
H54_5 H 0.2171 0.4551 0.3241
H55_5 H 0.2108 0.3774 0.3243
C70_5 C 0.1701(6) 0.4181(5) 0.36690(17)
H56_5 H 0.1202 0.4219 0.3627
H57_5 H 0.1760 0.3777 0.3741
H58_5 H 0.1822 0.4554 0.3749
N6_4 N 0.4991(3) 0.5178(3) 0.45212(7)
N7_5 N 0.2430(3) 0.7586(3) 0.79822(7)
N8_5 N 0.4718(16) 0.3227(9) 0.2866(2)
N9_5 N 0.5651(5) 0.5628(5) 0.33891(16)
N10_5 N 0.2186(4) 0.4168(3) 0.35046(14)
O3_4 O 0.0183(3) 0.6603(2) 0.62353(6)
O4_4 O 0.0139(2) 0.71013(19) 0.59596(6)
O5_6 O 0.0800 0.4290 0.5446
O7_6 O 0.0734(2) 0.2858(2) 0.62934(5)
O8_6 O 0.0511(2) 0.3444(2) 0.65639(6)
O9_4 O 0.3434(2) 0.2429(2) 0.61943(6)
O10_4 O 0.4112(2) 0.21435(18) 0.64427(6)
O11_6 O 0.1446(3) 0.1873(3) 0.70723(7)
O12_6 O 0.3416(3) 0.3284(3) 0.70711(7)
C6_6 C 0.0054(3) 0.5858(3) 0.57644(9)
H3_6 H 0.0132 0.6230 0.5688
C7_6 C 0.0017(3) 0.5918(3) 0.59632(8)
C8_6 C 0.0119(3) 0.6577(3) 0.60600(9)
C9_6 C 0.0337 0.4685 0.5371
C10_6 C 0.0213 0.4821 0.5184
C11_6 C 0.0496 0.4421 0.5008
H4_6 H 0.0851 0.4089 0.5010
C14_6 C 0.2198(3) 0.2690(3) 0.64204(8)
H5_6 H 0.2138 0.2698 0.6288
C15_6 C 0.1626(3) 0.2863(3) 0.65384(8)
C16_6 C 0.0891(3) 0.3087(3) 0.64585(9)
C17_6 C 0.1706(3) 0.2844(3) 0.67368(8)
H6_6 H 0.1320 0.2971 0.6816
C18_6 C 0.2360(3) 0.2634(3) 0.68139(9)
C19_6 C 0.2951(3) 0.2465(3) 0.66960(8)
H7_6 H 0.3395 0.2330 0.6749
C20_6 C 0.2871(3) 0.2501(3) 0.65000(8)
C21_6 C 0.3497(3) 0.2339(3) 0.63701(10)
C22_6 C 0.1940(4) 0.2206(3) 0.71305(9)
C23_6 C 0.2189(3) 0.2320(3) 0.73304(9)
C24_6 C 0.1880(4) 0.2053(3) 0.75003(10)
H8_6 H 0.1477 0.1768 0.7500
C25_6 C 0.2769(3) 0.2746(3) 0.73324(9)
C26_6 C 0.2936(4) 0.2938(4) 0.71287(10)
H9_6 H 0.0123 0.3432 0.6908
H13_6 H 0.0181 0.2469 0.7109
C30_6 C 0.0363(8) 0.5033(6) 0.65990(17)
H16_6 H 0.0631 0.4759 0.6518
C31_6 C 0.0163(6) 0.6039(8) 0.67331(19)
H17_6 H 0.0365 0.6478 0.6745
H18_6 H 0.0125 0.5841 0.6858
C32_6 C 0.1338(7) 0.5783(7) 0.65305(17)
H20_6 H 0.1454 0.6240 0.6556
H21_6 H 0.1321 0.5713 0.6395
H22_6 H 0.1708 0.5503 0.6586
N2_6 N 0.2430(3) 0.2586(3) 0.70178(7)
N4_6 N 0.0651(5) 0.5628(5) 0.66109(16)
O16_6 O 0.0457(2) 0.5750(2) 0.37113(6)
O17_6 O 0.0309(2) 0.64136(18) 0.39657(6)
O20_4 O 0.0183(3) 0.8397(2) 0.37647(6)
O23_4 O 0.0139(2) 0.78987(19) 0.40404(6)
O25_5 O 0.0775 0.3968 0.4599
O32_4 O 0.1566(2) 0.7429(2) 0.38057(6)
O35_4 O 0.0888(2) 0.71435(18) 0.35573(6)
O36_6 O 0.3554(3) 0.3127(3) 0.79277(7)
O37_6 O 0.1584(3) 0.1716(3) 0.79289(7)
O38_6 O 0.0601(3) 0.6523(3) 0.31592(7)
O39_6 O 0.0170(2) 0.5256(3) 0.33321(7)
O40_6 O 0.1603(2) 0.5879(2) 0.34148(7)
C36_5 C 0.0107(3) 0.4629(3) 0.39272(8)
H30_5 H 0.0135 0.4583 0.3795
C37_6 C 0.0194(3) 0.5259(3) 0.40083(8)
C38_6 C 0.0327(3) 0.5865(3) 0.38844(8)
C39_6 C 0.0162(3) 0.5317(3) 0.42061(8)
H31_6 H 0.0230 0.5729 0.4264
C40_5 C 0.0028(3) 0.4762(3) 0.43175(8)
C47_5 C 0.0090 0.4673 0.4833
C48_5 C 0.0387 0.4428 0.4644
C49_6 C 0.2802(3) 0.2310(3) 0.85796(8)
H34_6 H 0.2862 0.2302 0.8712
C50_6 C 0.3374(3) 0.2137(3) 0.84616(8)
C51_6 C 0.4109(3) 0.1913(3) 0.85415(9)
C52_6 C 0.3294(3) 0.2156(3) 0.82632(8)
H35_6 H 0.3680 0.2029 0.8184
C53_6 C 0.2640(3) 0.2366(3) 0.81861(9)
C54_6 C 0.2049(3) 0.2535(3) 0.83040(8)
H36_6 H 0.1605 0.2670 0.8251
C55_6 C 0.2129(3) 0.2499(3) 0.85000(8)
C56_6 C 0.1503(3) 0.2661(3) 0.86299(10)
C57_6 C 0.3060(4) 0.2794(3) 0.78695(9)
C58_6 C 0.2811(3) 0.2680(3) 0.76696(9)
C59_6 C 0.3120(4) 0.2947(3) 0.74997(10)
H37_6 H 0.3523 0.3232 0.7500
C60_6 C 0.2231(3) 0.2254(3) 0.76676(9)
C61_6 C 0.2064(4) 0.2062(4) 0.78713(10)
C62_6 C 0.0363(13) 0.6611(16) 0.30531(17)
C63_6 C 0.1052(19) 0.6455(14) 0.2746(4)
H39_6 H 0.1163 0.6020 0.2794
H40_6 H 0.0948 0.6430 0.2611
H41_6 H 0.1465 0.6743 0.2766
C64_6 C 0.0214(9) 0.7332(10) 0.2820(2)
H43_6 H 0.0661 0.7569 0.2845
H44_6 H 0.0104 0.7352 0.2685
H48_5 H 0.0316 0.3935 0.3324
C68_6 C 0.2090(6) 0.5875(3) 0.35397(12)
H52_6 H 0.1942 0.5904 0.3667
C69_6 C 0.3047(5) 0.5823(5) 0.33044(16)
H53_6 H 0.3572 0.5789 0.3298
H54_6 H 0.2829 0.5449 0.3241
H55_6 H 0.2892 0.6226 0.3243
C70_6 C 0.3299(6) 0.5819(5) 0.36690(17)
H56_6 H 0.3798 0.5781 0.3627
H57_6 H 0.3240 0.6223 0.3741
H58_6 H 0.3178 0.5446 0.3749
N6_5 N 0.0009(3) 0.4822(3) 0.45212(7)
N7_6 N 0.2570(3) 0.2414(3) 0.79822(7)
N8_6 N 0.0282(16) 0.6773(9) 0.2866(2)
N10_6 N 0.2814(4) 0.5832(3) 0.35046(14)
O1_6 O 0.9543(2) 0.4250(2) 0.62887(6)
O2_6 O 0.9691(2) 0.35864(18) 0.60343(6)
O6_5 O 0.9225 0.6032 0.5401
O13_6 O 0.9399(3) 0.3477(3) 0.68408(7)
O14_6 O 0.9830(2) 0.4744(3) 0.66679(7)
O15_6 O 0.8397(2) 0.4121(2) 0.65852(7)
C1_5 C 0.9893(3) 0.5371(3) 0.60728(8)
H1_5 H 0.9865 0.5417 0.6205
C2_6 C 0.9806(3) 0.4741(3) 0.59917(8)
C3_6 C 0.9673(3) 0.4135(3) 0.61156(8)
C4_6 C 0.9838(3) 0.4683(3) 0.57939(8)
H2_6 H 0.9770 0.4271 0.5736
C5_5 C 0.9972(3) 0.5238(3) 0.56825(8)
C12_5 C 0.9910 0.5327 0.5167
C13_5 C 0.9613 0.5572 0.5356
C27_6 C 0.9637(13) 0.3389(16) 0.69469(17)
C28_6 C 0.8948(19) 0.3545(14) 0.7254(4)
H10_6 H 0.8837 0.3980 0.7206
H11_6 H 0.9052 0.3570 0.7389
H12_6 H 0.8535 0.3257 0.7234
C29_6 C 0.9786(9) 0.2668(10) 0.7180(2)
H14_6 H 0.9339 0.2431 0.7155
H15_6 H 0.9896 0.2648 0.7315
H19_5 H 0.9684 0.6065 0.6676
C33_6 C 0.7910(6) 0.4125(3) 0.64603(12)
H23_6 H 0.8058 0.4096 0.6333
C34_6 C 0.6953(5) 0.4177(5) 0.66956(16)
H24_6 H 0.6428 0.4211 0.6702
H25_6 H 0.7171 0.4551 0.6759
H26_6 H 0.7108 0.3774 0.6757
C35_6 C 0.6701(6) 0.4181(5) 0.63310(17)
H27_6 H 0.6202 0.4219 0.6373
H28_6 H 0.6760 0.3777 0.6259
H29_6 H 0.6822 0.4554 0.6251
N1_5 N 0.9991(3) 0.5178(3) 0.54788(7)
N3_6 N 0.9718(16) 0.3227(9) 0.7134(2)
N5_6 N 0.7186(4) 0.4168(3) 0.64954(14)
O18_4 O 0.9817(3) 0.3397(2) 0.37647(6)
O19_4 O 0.9817(3) 0.1603(2) 0.62353(6)
O21_4 O 0.9861(2) 0.28987(19) 0.40404(6)
O22_4 O 0.9861(2) 0.21013(19) 0.59596(6)
O24_6 O 0.9200 0.5710 0.4554
C41_6 C 0.9946(3) 0.4142(3) 0.42356(9)
H32_6 H 0.9868 0.3770 0.4312
C42_6 C 0.9983(3) 0.4082(3) 0.40368(8)
C43_6 C 0.9881(3) 0.3423(3) 0.39400(9)
C44_6 C 0.9663 0.5315 0.4629
C45_6 C 0.9787 0.5179 0.4816
C46_6 C 0.9504 0.5579 0.4992
H33_6 H 0.9149 0.5911 0.4990
H38_6 H 0.9877 0.6568 0.3092
H42_6 H 0.9819 0.7531 0.2891
C65_6 C 0.9637(8) 0.4967(6) 0.34010(17)
H45_6 H 0.9369 0.5241 0.3482
C66_6 C 0.9837(6) 0.3961(8) 0.32669(19)
H46_6 H 0.9635 0.3522 0.3255
H47_6 H 0.9875 0.4159 0.3142
C67_6 C 0.8662(7) 0.4217(7) 0.34695(17)
H49_6 H 0.8546 0.3760 0.3444
H50_6 H 0.8679 0.4287 0.3605
H51_6 H 0.8292 0.4497 0.3414
N9_6 N 0.9349(5) 0.4372(5) 0.33891(16)
O6_6 O 0.5775 0.1032 0.4599
C1_6 C 0.5107(3) 0.0371(3) 0.39272(8)
H1_6 H 0.5135 0.0417 0.3795
C5_6 C 0.5028(3) 0.0238(3) 0.43175(8)
C6_7 C 0.4946(3) 0.0858(3) 0.42356(9)
H3_7 H 0.4868 0.1230 0.4312
C7_7 C 0.4983(3) 0.0918(3) 0.40368(8)
C8_7 C 0.4881(3) 0.1577(3) 0.39400(9)
C12_6 C 0.5090 0.0327 0.4833
C13_6 C 0.5387 0.0572 0.4644
C30_7 C 0.4637(8) 0.0033(6) 0.34010(17)
C31_7 C 0.4837(6) 0.1039(8) 0.32669(19)
H17_7 H 0.4635 0.1478 0.3255
H18_7 H 0.4875 0.0841 0.3142
H19_6 H 0.5316 0.1065 0.3324
C32_7 C 0.3662(7) 0.0783(7) 0.34695(17)
H20_7 H 0.3546 0.1240 0.3444
H21_7 H 0.3679 0.0713 0.3605
H22_7 H 0.3292 0.0503 0.3414
N1_6 N 0.5009(3) 0.0178(3) 0.45212(7)
N4_7 N 0.4349(5) 0.0628(5) 0.33891(16)
O16_7 O 0.4543(2) 0.0750(2) 0.62887(6)
O17_7 O 0.4691(2) 0.14136(18) 0.60343(6)
O24_7 O 0.5800 0.0710 0.5446
O38_7 O 0.4399(3) 0.1523(3) 0.68408(7)
O39_7 O 0.4830(2) 0.0256(3) 0.66679(7)
O40_7 O 0.3397(2) 0.0879(2) 0.65852(7)
C37_7 C 0.4806(3) 0.0259(3) 0.59917(8)
C38_7 C 0.4673(3) 0.0865(3) 0.61156(8)
C39_7 C 0.4838(3) 0.0317(3) 0.57939(8)
H31_7 H 0.4770 0.0729 0.5736
C44_7 C 0.5337 0.0315 0.5371
C45_7 C 0.5213 0.0179 0.5184
C46_7 C 0.5496 0.0579 0.5008
H33_7 H 0.5851 0.0911 0.5010
C62_7 C 0.4637(13) 0.1611(16) 0.69469(17)
H38_7 H 0.5123 0.1568 0.6908
C63_7 C 0.3948(19) 0.1455(14) 0.7254(4)
H39_7 H 0.3837 0.1020 0.7206
H40_7 H 0.4052 0.1430 0.7389
H41_7 H 0.3535 0.1743 0.7234
C64_7 C 0.4786(9) 0.2332(10) 0.7180(2)
H42_7 H 0.5181 0.2531 0.7109
H43_7 H 0.4339 0.2569 0.7155
H44_7 H 0.4896 0.2352 0.7315
H45_7 H 0.5631 0.0241 0.6518
C68_7 C 0.2910(6) 0.0875(3) 0.64603(12)
H52_7 H 0.3058 0.0904 0.6333
C69_7 C 0.1953(5) 0.0823(5) 0.66956(16)
H53_7 H 0.1428 0.0789 0.6702
H54_7 H 0.2171 0.0449 0.6759
H55_7 H 0.2108 0.1226 0.6757
C70_7 C 0.1701(6) 0.0819(5) 0.63310(17)
H56_7 H 0.1202 0.0781 0.6373
H57_7 H 0.1760 0.1223 0.6259
H58_7 H 0.1822 0.0446 0.6251
N8_7 N 0.4718(16) 0.1773(9) 0.7134(2)
N10_7 N 0.2186(4) 0.0832(3) 0.64954(14)
O1_7 O 0.5457(2) 0.9250(2) 0.37113(6)
O2_7 O 0.5309(2) 0.85864(18) 0.39657(6)
O5_7 O 0.4200 0.9290 0.4554
O7_7 O 0.4266(2) 0.7858(2) 0.37066(5)
O8_7 O 0.4489(2) 0.8444(2) 0.34361(6)
O11_7 O 0.3554(3) 0.6873(3) 0.29277(7)
O12_7 O 0.1584(3) 0.8284(3) 0.29289(7)
O13_7 O 0.5601(3) 0.8477(3) 0.31592(7)
O14_7 O 0.5170(2) 0.9744(3) 0.33321(7)
O15_7 O 0.6603(2) 0.9121(2) 0.34148(7)
C2_7 C 0.5194(3) 0.9741(3) 0.40083(8)
C3_7 C 0.5327(3) 0.9135(3) 0.38844(8)
C4_7 C 0.5162(3) 0.9683(3) 0.42061(8)
H2_7 H 0.5230 0.9271 0.4264
C9_7 C 0.4663 0.9685 0.4629
C10_7 C 0.4787 0.9821 0.4816
C11_7 C 0.4504 0.9421 0.4992
H4_7 H 0.4149 0.9089 0.4990
C14_7 C 0.2802(3) 0.7690(3) 0.35796(8)
H5_7 H 0.2862 0.7698 0.3712
C15_7 C 0.3374(3) 0.7863(3) 0.34616(8)
C16_7 C 0.4109(3) 0.8087(3) 0.35415(9)
C17_7 C 0.3294(3) 0.7844(3) 0.32632(8)
H6_7 H 0.3680 0.7971 0.3184
C18_7 C 0.2640(3) 0.7634(3) 0.31861(9)
C19_7 C 0.2049(3) 0.7465(3) 0.33040(8)
H7_7 H 0.1605 0.7330 0.3251
C20_7 C 0.2129(3) 0.7501(3) 0.35000(8)
C21_7 C 0.1503(3) 0.7339(3) 0.36299(10)
C22_7 C 0.3060(4) 0.7206(3) 0.28695(9)
C23_7 C 0.2811(3) 0.7320(3) 0.26696(9)
C24_7 C 0.3120(4) 0.7053(3) 0.24997(10)
H8_7 H 0.3523 0.6768 0.2500
C25_7 C 0.2231(3) 0.7746(3) 0.26676(9)
C26_7 C 0.2064(4) 0.7938(4) 0.28713(10)
C27_7 C 0.5363(13) 0.8389(16) 0.30531(17)
H9_7 H 0.4877 0.8432 0.3092
C28_7 C 0.6052(19) 0.8545(14) 0.2746(4)
H10_7 H 0.6163 0.8980 0.2794
H11_7 H 0.5948 0.8570 0.2611
H12_7 H 0.6465 0.8257 0.2766
C29_7 C 0.5214(9) 0.7668(10) 0.2820(2)
H13_7 H 0.4819 0.7469 0.2891
H14_7 H 0.5661 0.7431 0.2845
H15_7 H 0.5104 0.7648 0.2685
H16_7 H 0.4369 0.9759 0.3482
C33_7 C 0.7090(6) 0.9125(3) 0.35397(12)
H23_7 H 0.6942 0.9096 0.3667
C34_7 C 0.8047(5) 0.9177(5) 0.33044(16)
H24_7 H 0.8572 0.9211 0.3298
H25_7 H 0.7829 0.9551 0.3241
H26_7 H 0.7892 0.8774 0.3243
C35_7 C 0.8299(6) 0.9181(5) 0.36690(17)
H27_7 H 0.8798 0.9219 0.3627
H28_7 H 0.8240 0.8777 0.3741
H29_7 H 0.8178 0.9554 0.3749
N2_7 N 0.2570(3) 0.7586(3) 0.29822(7)
N3_7 N 0.5282(16) 0.8227(9) 0.2866(2)
N5_7 N 0.7814(4) 0.9168(3) 0.35046(14)
O25_6 O 0.4225 0.8968 0.5401
O36_7 O 0.1446(3) 0.8127(3) 0.20723(7)
O37_7 O 0.3416(3) 0.6716(3) 0.20711(7)
C36_6 C 0.4893(3) 0.9629(3) 0.60728(8)
H30_6 H 0.4865 0.9583 0.6205
C40_6 C 0.4972(3) 0.9762(3) 0.56825(8)
C41_7 C 0.5054(3) 0.9142(3) 0.57644(9)
H32_7 H 0.5132 0.8770 0.5688
C42_7 C 0.5017(3) 0.9082(3) 0.59632(8)
C43_7 C 0.5119(3) 0.8423(3) 0.60600(9)
C47_6 C 0.4910 0.9673 0.5167
C48_6 C 0.4613 0.9428 0.5356
C49_7 C 0.2198(3) 0.7310(3) 0.14204(8)
H34_7 H 0.2138 0.7302 0.1288
C50_7 C 0.1626(3) 0.7137(3) 0.15384(8)
C51_7 C 0.0891(3) 0.6913(3) 0.14585(9)
C52_7 C 0.1706(3) 0.7156(3) 0.17368(8)
H35_7 H 0.1320 0.7029 0.1816
C53_7 C 0.2360(3) 0.7366(3) 0.18139(9)
C54_7 C 0.2951(3) 0.7535(3) 0.16960(8)
H36_7 H 0.3395 0.7670 0.1749
C55_7 C 0.2871(3) 0.7499(3) 0.15000(8)
C56_7 C 0.3497(3) 0.7661(3) 0.13701(10)
C57_7 C 0.1940(4) 0.7794(3) 0.21305(9)
C58_7 C 0.2189(3) 0.7680(3) 0.23304(9)
C59_7 C 0.1880(4) 0.7947(3) 0.25003(10)
H37_7 H 0.1477 0.8232 0.2500
C60_7 C 0.2769(3) 0.7254(3) 0.23324(9)
C61_7 C 0.2936(4) 0.7062(4) 0.21287(10)
C65_7 C 0.5363(8) 0.9967(6) 0.65990(17)
C66_7 C 0.5163(6) 0.8961(8) 0.67331(19)
H46_7 H 0.5365 0.8522 0.6745
H47_7 H 0.5125 0.9159 0.6858
H48_6 H 0.4684 0.8935 0.6676
C67_7 C 0.6338(7) 0.9217(7) 0.65305(17)
H49_7 H 0.6454 0.8760 0.6556
H50_7 H 0.6321 0.9287 0.6395
H51_7 H 0.6708 0.9497 0.6586
N6_6 N 0.4991(3) 0.9822(3) 0.54788(7)
N7_7 N 0.2430(3) 0.7414(3) 0.20178(7)
N9_7 N 0.5651(5) 0.9372(5) 0.66109(16)
O5_8 O 0.0800 0.0710 0.4554
O7_8 O 0.0734(2) 0.2142(2) 0.37066(5)
O8_8 O 0.0511(2) 0.1556(2) 0.34361(6)
O11_8 O 0.1446(3) 0.3127(3) 0.29277(7)
O12_8 O 0.3416(3) 0.1716(3) 0.29289(7)
C9_8 C 0.0337 0.0315 0.4629
C10_8 C 0.0213 0.0179 0.4816
C11_8 C 0.0496 0.0579 0.4992
H4_8 H 0.0851 0.0911 0.4990
C14_8 C 0.2198(3) 0.2310(3) 0.35796(8)
H5_8 H 0.2138 0.2302 0.3712
C15_8 C 0.1626(3) 0.2137(3) 0.34616(8)
C16_8 C 0.0891(3) 0.1913(3) 0.35415(9)
C17_8 C 0.1706(3) 0.2156(3) 0.32632(8)
H6_8 H 0.1320 0.2029 0.3184
C18_8 C 0.2360(3) 0.2366(3) 0.31861(9)
C19_8 C 0.2951(3) 0.2535(3) 0.33040(8)
H7_8 H 0.3395 0.2670 0.3251
C20_8 C 0.2871(3) 0.2499(3) 0.35000(8)
C21_8 C 0.3497(3) 0.2661(3) 0.36299(10)
C22_8 C 0.1940(4) 0.2794(3) 0.28695(9)
C23_8 C 0.2189(3) 0.2680(3) 0.26696(9)
C24_8 C 0.1880(4) 0.2947(3) 0.24997(10)
H8_8 H 0.1477 0.3232 0.2500
C25_8 C 0.2769(3) 0.2254(3) 0.26676(9)
C26_8 C 0.2936(4) 0.2062(4) 0.28713(10)
H9_8 H 0.0123 0.1568 0.3092
H13_8 H 0.0181 0.2531 0.2891
H16_8 H 0.0631 0.0241 0.3482
N2_8 N 0.2430(3) 0.2414(3) 0.29822(7)
O25_7 O 0.0775 0.1032 0.5401
O36_8 O 0.3554(3) 0.1873(3) 0.20723(7)
O37_8 O 0.1584(3) 0.3284(3) 0.20711(7)
C36_7 C 0.0107(3) 0.0371(3) 0.60728(8)
H30_7 H 0.0135 0.0417 0.6205
C40_7 C 0.0028(3) 0.0238(3) 0.56825(8)
C47_7 C 0.0090 0.0327 0.5167
C48_7 C 0.0387 0.0572 0.5356
C49_8 C 0.2802(3) 0.2690(3) 0.14204(8)
H34_8 H 0.2862 0.2698 0.1288
C50_8 C 0.3374(3) 0.2863(3) 0.15384(8)
C51_8 C 0.4109(3) 0.3087(3) 0.14585(9)
C52_8 C 0.3294(3) 0.2844(3) 0.17368(8)
H35_8 H 0.3680 0.2971 0.1816
C53_8 C 0.2640(3) 0.2634(3) 0.18139(9)
C54_8 C 0.2049(3) 0.2465(3) 0.16960(8)
H36_8 H 0.1605 0.2330 0.1749
C55_8 C 0.2129(3) 0.2501(3) 0.15000(8)
C56_8 C 0.1503(3) 0.2339(3) 0.13701(10)
C57_8 C 0.3060(4) 0.2206(3) 0.21305(9)
C58_8 C 0.2811(3) 0.2320(3) 0.23304(9)
C59_8 C 0.3120(4) 0.2053(3) 0.25003(10)
H37_8 H 0.3523 0.1768 0.2500
C60_8 C 0.2231(3) 0.2746(3) 0.23324(9)
C61_8 C 0.2064(4) 0.2938(4) 0.21287(10)
H48_7 H 0.0316 0.1065 0.6676
N6_7 N 0.0009(3) 0.0178(3) 0.54788(7)
N7_8 N 0.2570(3) 0.2586(3) 0.20178(7)
C6_8 C 0.0054(3) 0.9142(3) 0.42356(9)
H3_8 H 0.0132 0.8770 0.4312
C7_8 C 0.0017(3) 0.9082(3) 0.40368(8)
C8_8 C 0.0119(3) 0.8423(3) 0.39400(9)
C30_8 C 0.0363(8) 0.9967(6) 0.34010(17)
C31_8 C 0.0163(6) 0.8961(8) 0.32669(19)
H17_8 H 0.0365 0.8522 0.3255
H18_8 H 0.0125 0.9159 0.3142
C32_8 C 0.1338(7) 0.9217(7) 0.34695(17)
H20_8 H 0.1454 0.8760 0.3444
H21_8 H 0.1321 0.9287 0.3605
H22_8 H 0.1708 0.9497 0.3414
N4_8 N 0.0651(5) 0.9372(5) 0.33891(16)
O16_8 O 0.0457(2) 0.9250(2) 0.62887(6)
O17_8 O 0.0309(2) 0.85864(18) 0.60343(6)
O38_8 O 0.0601(3) 0.8477(3) 0.68408(7)
O39_8 O 0.0170(2) 0.9744(3) 0.66679(7)
O40_8 O 0.1603(2) 0.9121(2) 0.65852(7)
C37_8 C 0.0194(3) 0.9741(3) 0.59917(8)
C38_8 C 0.0327(3) 0.9135(3) 0.61156(8)
C39_8 C 0.0162(3) 0.9683(3) 0.57939(8)
H31_8 H 0.0230 0.9271 0.5736
C62_8 C 0.0363(13) 0.8389(16) 0.69469(17)
C63_8 C 0.1052(19) 0.8545(14) 0.7254(4)
H39_8 H 0.1163 0.8980 0.7206
H40_8 H 0.0948 0.8570 0.7389
H41_8 H 0.1465 0.8257 0.7234
C64_8 C 0.0214(9) 0.7668(10) 0.7180(2)
H43_8 H 0.0661 0.7431 0.7155
H44_8 H 0.0104 0.7648 0.7315
C68_8 C 0.2090(6) 0.9125(3) 0.64603(12)
H52_8 H 0.1942 0.9096 0.6333
C69_8 C 0.3047(5) 0.9177(5) 0.66956(16)
H53_8 H 0.3572 0.9211 0.6702
H54_8 H 0.2829 0.9551 0.6759
H55_8 H 0.2892 0.8774 0.6757
C70_8 C 0.3299(6) 0.9181(5) 0.63310(17)
H56_8 H 0.3798 0.9219 0.6373
H57_8 H 0.3240 0.8777 0.6259
H58_8 H 0.3178 0.9554 0.6251
N8_8 N 0.0282(16) 0.8227(9) 0.7134(2)
N10_8 N 0.2814(4) 0.9168(3) 0.64954(14)
O1_8 O 0.9543(2) 0.0750(2) 0.37113(6)
O2_8 O 0.9691(2) 0.14136(18) 0.39657(6)
O13_8 O 0.9399(3) 0.1523(3) 0.31592(7)
O14_8 O 0.9830(2) 0.0256(3) 0.33321(7)
O15_8 O 0.8397(2) 0.0879(2) 0.34148(7)
C2_8 C 0.9806(3) 0.0259(3) 0.40083(8)
C3_8 C 0.9673(3) 0.0865(3) 0.38844(8)
C4_8 C 0.9838(3) 0.0317(3) 0.42061(8)
H2_8 H 0.9770 0.0729 0.4264
C27_8 C 0.9637(13) 0.1611(16) 0.30531(17)
C28_8 C 0.8948(19) 0.1455(14) 0.2746(4)
H10_8 H 0.8837 0.1020 0.2794
H11_8 H 0.9052 0.1430 0.2611
H12_8 H 0.8535 0.1743 0.2766
C29_8 C 0.9786(9) 0.2332(10) 0.2820(2)
H14_8 H 0.9339 0.2569 0.2845
H15_8 H 0.9896 0.2352 0.2685
C33_8 C 0.7910(6) 0.0875(3) 0.35397(12)
H23_8 H 0.8058 0.0904 0.3667
C34_8 C 0.6953(5) 0.0823(5) 0.33044(16)
H24_8 H 0.6428 0.0789 0.3298
H25_8 H 0.7171 0.0449 0.3241
H26_8 H 0.7108 0.1226 0.3243
C35_8 C 0.6701(6) 0.0819(5) 0.36690(17)
H27_8 H 0.6202 0.0781 0.3627
H28_8 H 0.6760 0.1223 0.3741
H29_8 H 0.6822 0.0446 0.3749
N3_8 N 0.9718(16) 0.1773(9) 0.2866(2)
N5_8 N 0.7186(4) 0.0832(3) 0.35046(14)
C41_8 C 0.9946(3) 0.0858(3) 0.57644(9)
H32_8 H 0.9868 0.1230 0.5688
C42_8 C 0.9983(3) 0.0918(3) 0.59632(8)
C43_8 C 0.9881(3) 0.1577(3) 0.60600(9)
C65_8 C 0.9637(8) 0.0033(6) 0.65990(17)
C66_8 C 0.9837(6) 0.1039(8) 0.67331(19)
H46_8 H 0.9635 0.1478 0.6745
H47_8 H 0.9875 0.0841 0.6858
C67_8 C 0.8662(7) 0.0783(7) 0.65305(17)
H49_8 H 0.8546 0.1240 0.6556
H50_8 H 0.8679 0.0713 0.6395
H51_8 H 0.8292 0.0503 0.6586
N9_8 N 0.9349(5) 0.0628(5) 0.66109(16)
O6_7 O 0.9225 0.8968 0.4599
C1_7 C 0.9893(3) 0.9629(3) 0.39272(8)
H1_7 H 0.9865 0.9583 0.3795
C5_7 C 0.9972(3) 0.9762(3) 0.43175(8)
C12_7 C 0.9910 0.9673 0.4833
C13_7 C 0.9613 0.9428 0.4644
H19_7 H 0.9684 0.8935 0.3324
N1_7 N 0.9991(3) 0.9822(3) 0.45212(7)
O24_8 O 0.9200 0.9290 0.5446
C44_8 C 0.9663 0.9685 0.5371
C45_8 C 0.9787 0.9821 0.5184
C46_8 C 0.9504 0.9421 0.5008
H33_8 H 0.9149 0.9089 0.5010
H38_8 H 0.9877 0.8432 0.6908
H42_8 H 0.9819 0.7469 0.7109
H45_8 H 0.9369 0.9759 0.6518
O6_8 O 0.0775 0.8968 0.0401
C1_8 C 0.0107(3) 0.9629(3) 0.10728(8)
H1_8 H 0.0135 0.9583 0.1205
C5_8 C 0.0028(3) 0.9762(3) 0.06825(8)
C12_8 C 0.0090 0.9673 0.0167
C13_8 C 0.0387 0.9428 0.0356
H19_8 H 0.0316 0.8935 0.1676
N1_8 N 0.0009(3) 0.9822(3) 0.04788(7)
O25_8 O 0.9225 0.1032 0.9599
C36_8 C 0.9893(3) 0.0371(3) 0.89272(8)
H30_8 H 0.9865 0.0417 0.8795
C40_8 C 0.9972(3) 0.0238(3) 0.93175(8)
C47_8 C 0.9910 0.0327 0.9833
C48_8 C 0.9613 0.0572 0.9644
H48_8 H 0.9684 0.1065 0.8324
N6_8 N 0.9991(3) 0.0178(3) 0.95212(7)
loop_
_geom_bond_atom_site_label_1
_geom_bond_atom_site_label_2
_geom_bond_site_symmetry_1
_geom_bond_site_symmetry_2
Zn1 O2 1_555 1_555
Zn2 O1 1_555 1_555
O1 C3 1_555 1_555
O2 C3 1_555 1_555
O13 Zn2 1_555 1_555
O14 Zn2 1_555 1_555
O15 Zn2 1_555 1_555
C3 C2 1_555 1_555
C4 C2 1_555 1_555
H2 C4 1_555 1_555
C27 O13 1_555 1_555
C28 H10 1_555 1_555
H11 C28 1_555 1_555
H12 C28 1_555 1_555
H14 C29 1_555 1_555
H15 C29 1_555 1_555
C33 O15 1_555 1_555
H23 C33 1_555 1_555
C34 H24 1_555 1_555
H25 C34 1_555 1_555
H26 C34 1_555 1_555
C35 H27 1_555 1_555
H28 C35 1_555 1_555
H29 C35 1_555 1_555
N3 C27 1_555 1_555
N5 C33 1_555 1_555
O19 Zn1 1_555 1_555
O22 Zn1 1_555 1_555
O31 Zn1 1_555 1_555
O34 Zn1 1_555 1_555
Zn2 O34 1_555 1_555
C28 N3 1_555 1_555
C29 N3 1_555 1_555
C34 N5 1_555 1_555
C35 N5 1_555 1_555
Zn6 O18 1_555 1_555
O18 C43 1_555 1_555
O21 Zn6 1_555 1_555
H32 C41 1_555 1_555
C43 O21 1_555 1_555
C66 H46 1_555 1_555
H47 C66 1_555 1_555
C67 H49 1_555 1_555
H50 C67 1_555 1_555
H51 C67 1_555 1_555
N9 C65 1_555 1_555
C41 C42 1_555 1_555
C42 C43 1_555 1_555
C66 N9 1_555 1_555
C67 N9 1_555 1_555
O24 C44 1_555 1_555
C44 C45 1_555 1_555
C45 C46 1_555 1_555
H33 C46 1_555 1_555
O5 C9 1_555 1_555
O9 C21 1_555 1_555
O10 C21 1_555 1_555
O11 C22 1_555 1_555
O12 C26 1_555 1_555
C9 C10 1_555 1_555
C10 C11 1_555 1_555
C11 H4 1_555 1_555
C14 H5 1_555 1_555
C15 C14 1_555 1_555
C16 O7 1_555 1_555
C17 C15 1_555 1_555
H6 C17 1_555 1_555
C18 C17 1_555 1_555
C19 C18 1_555 1_555
H7 C19 1_555 1_555
C20 C14 1_555 1_555
C21 C20 1_555 1_555
C22 C23 1_555 1_555
C23 C24 1_555 1_555
C24 H8 1_555 1_555
C25 C23 1_555 1_555
C26 C25 1_555 1_555
N2 C18 1_555 1_555
Zn5 O9 1_555 1_555
Zn7 O30 1_555 1_555
Zn8 O26 1_555 1_555
Zn10 O10 1_555 1_555
Zn11 O33 1_555 1_555
Zn12 O28 1_555 1_555
O26 C51 1_555 1_555
O28 C51 1_555 1_555
O30 C56 1_555 1_555
O33 Zn7 1_555 1_555
O36 C57 1_555 1_555
O37 C61 1_555 1_555
C49 H34 1_555 1_555
C50 C49 1_555 1_555
C51 C50 1_555 1_555
C52 C50 1_555 1_555
H35 C52 1_555 1_555
C53 C52 1_555 1_555
C54 C53 1_555 1_555
H36 C54 1_555 1_555
C55 C49 1_555 1_555
C56 O33 1_555 1_555
C57 C58 1_555 1_555
C58 C59 1_555 1_555
C59 C25 1_555 1_555
H37 C59 1_555 1_555
C60 C24 1_555 1_555
C61 C60 1_555 1_555
N7 C53 1_555 1_555
O8 C16 1_555 1_555
O10 Zn5 1_555 1_555
C15 C16 1_555 1_555
C19 C20 1_555 1_555
C22 N2 1_555 1_555
C26 N2 1_555 1_555
C54 C55 1_555 1_555
C55 C56 1_555 1_555
C57 N7 1_555 1_555
C58 C60 1_555 1_555
C61 N7 1_555 1_555
O3 C8 1_555 1_555
O4 C8 1_555 1_555
H3 C6 1_555 1_555
C8 C7 1_555 1_555
C31 H17 1_555 1_555
H18 C31 1_555 1_555
C32 H20 1_555 1_555
H21 C32 1_555 1_555
H22 C32 1_555 1_555
N4 C30 1_555 1_555
Zn4 O3 1_555 1_555
O4 Zn4 1_555 1_555
C6 C7 1_555 1_555
C31 N4 1_555 1_555
C32 N4 1_555 1_555
Zn3 O17 1_555 1_555
Zn9 O16 1_555 1_555
O16 C38 1_555 1_555
O17 C38 1_555 1_555
O20 Zn3 1_555 1_555
O23 Zn3 1_555 1_555
O32 Zn3 1_555 1_555
O35 Zn3 1_555 1_555
O38 Zn9 1_555 1_555
O39 Zn9 1_555 1_555
O40 Zn9 1_555 1_555
C38 C37 1_555 1_555
C39 C37 1_555 1_555
H31 C39 1_555 1_555
C62 O38 1_555 1_555
C63 H39 1_555 1_555
H40 C63 1_555 1_555
H41 C63 1_555 1_555
H43 C64 1_555 1_555
H44 C64 1_555 1_555
C68 O40 1_555 1_555
H52 C68 1_555 1_555
C69 H53 1_555 1_555
H54 C69 1_555 1_555
H55 C69 1_555 1_555
C70 H56 1_555 1_555
H57 C70 1_555 1_555
H58 C70 1_555 1_555
N8 C62 1_555 1_555
N10 C68 1_555 1_555
Zn9 O35 1_555 1_555
C63 N8 1_555 1_555
C64 N8 1_555 1_555
C69 N10 1_555 1_555
C70 N10 1_555 1_555
O3_2 C8_2 1_555 1_555
O4_2 C8_2 1_555 1_555
O6 C13 1_555 1_555
C1 H1 1_555 1_555
C6_2 C5 1_555 1_555
H3_2 C6_2 1_555 1_555
C7_2 C1 1_555 1_555
C8_2 C7_2 1_555 1_555
C13 C12 1_555 1_555
C31_2 H17_2 1_555 1_555
H18_2 C31_2 1_555 1_555
H19 C31_2 1_555 1_555
C32_2 H20_2 1_555 1_555
H21_2 C32_2 1_555 1_555
H22_2 C32_2 1_555 1_555
N1 C5 1_555 1_555
N4_2 C30_2 1_555 1_555
Zn5 O3_2 1_555 1_555
O4_2 Zn5 1_555 1_555
C6_2 C7_2 1_555 1_555
C13 N1 1_555 1_555
C31_2 N4_2 1_555 1_555
C32_2 N4_2 1_555 1_555
Zn3_2 O17_2 1_555 1_555
Zn9_2 O16_2 1_555 1_555
O16_2 C38_2 1_555 1_555
O17_2 C38_2 1_555 1_555
O20_2 Zn3_2 1_555 1_555
O23_2 Zn3_2 1_555 1_555
O24_2 C44_2 1_555 1_555
O27_2 Zn3_2 1_555 1_555
O29_2 Zn9_2 1_555 1_555
O32_2 Zn3_2 1_555 1_555
O35_2 Zn3_2 1_555 1_555
O38_2 Zn9_2 1_555 1_555
O39_2 Zn9_2 1_555 1_555
O40_2 Zn9_2 1_555 1_555
C38_2 C37_2 1_555 1_555
C39_2 C37_2 1_555 1_555
H31_2 C39_2 1_555 1_555
C44_2 C45_2 1_555 1_555
C45_2 C46_2 1_555 1_555
H33_2 C46_2 1_555 1_555
C62_2 O38_2 1_555 1_555
H38_2 C62_2 1_555 1_555
C63_2 H39_2 1_555 1_555
H40_2 C63_2 1_555 1_555
H41_2 C63_2 1_555 1_555
C64_2 H42_2 1_555 1_555
H43_2 C64_2 1_555 1_555
H44_2 C64_2 1_555 1_555
C68_2 O40_2 1_555 1_555
H52_2 C68_2 1_555 1_555
C69_2 H53_2 1_555 1_555
H54_2 C69_2 1_555 1_555
H55_2 C69_2 1_555 1_555
C70_2 H56_2 1_555 1_555
H57_2 C70_2 1_555 1_555
H58_2 C70_2 1_555 1_555
N8_2 C62_2 1_555 1_555
N10_2 C68_2 1_555 1_555
Zn9_2 O35_2 1_555 1_555
C63_2 N8_2 1_555 1_555
C64_2 N8_2 1_555 1_555
C69_2 N10_2 1_555 1_555
C70_2 N10_2 1_555 1_555
Zn1_2 O2_2 1_555 1_555
Zn2_2 O1_2 1_555 1_555
O1_2 C3_2 1_555 1_555
O2_2 C3_2 1_555 1_555
O5_2 C9_2 1_555 1_555
O7_2 Zn1_2 1_555 1_555
O8_2 Zn2_2 1_555 1_555
O9_2 C21_2 1_555 1_555
O10_2 C21_2 1_555 1_555
O11_2 C22_2 1_555 1_555
O12_2 C26_2 1_555 1_555
O13_2 Zn2_2 1_555 1_555
O14_2 Zn2_2 1_555 1_555
O15_2 Zn2_2 1_555 1_555
C3_2 C2_2 1_555 1_555
C4_2 C2_2 1_555 1_555
H2_2 C4_2 1_555 1_555
C9_2 C10_2 1_555 1_555
C10_2 C11_2 1_555 1_555
C11_2 H4_2 1_555 1_555
C14_2 H5_2 1_555 1_555
C15_2 C14_2 1_555 1_555
C16_2 O7_2 1_555 1_555
C17_2 C15_2 1_555 1_555
H6_2 C17_2 1_555 1_555
C18_2 C17_2 1_555 1_555
C19_2 C18_2 1_555 1_555
H7_2 C19_2 1_555 1_555
C20_2 C14_2 1_555 1_555
C21_2 C20_2 1_555 1_555
C22_2 C23_2 1_555 1_555
C23_2 C24_2 1_555 1_555
C24_2 H8_2 1_555 1_555
C25_2 C23_2 1_555 1_555
C26_2 C25_2 1_555 1_555
C27_2 O13_2 1_555 1_555
H9_2 C27_2 1_555 1_555
C28_2 H10_2 1_555 1_555
H11_2 C28_2 1_555 1_555
H12_2 C28_2 1_555 1_555
C29_2 H13_2 1_555 1_555
H14_2 C29_2 1_555 1_555
H15_2 C29_2 1_555 1_555
C33_2 O15_2 1_555 1_555
H23_2 C33_2 1_555 1_555
C34_2 H24_2 1_555 1_555
H25_2 C34_2 1_555 1_555
H26_2 C34_2 1_555 1_555
C35_2 H27_2 1_555 1_555
H28_2 C35_2 1_555 1_555
H29_2 C35_2 1_555 1_555
N2_2 C18_2 1_555 1_555
N3_2 C27_2 1_555 1_555
N5_2 C33_2 1_555 1_555
Zn4 O9_2 1_555 1_555
Zn7_2 O30_2 1_555 1_555
Zn10_2 O10_2 1_555 1_555
Zn11_2 O33_2 1_555 1_555
O19_2 Zn1_2 1_555 1_555
O22_2 Zn1_2 1_555 1_555
O26_2 C51_2 1_555 1_555
O28_2 C51_2 1_555 1_555
O30_2 C56_2 1_555 1_555
O31_2 Zn1_2 1_555 1_555
O33_2 Zn7_2 1_555 1_555
O34_2 Zn1_2 1_555 1_555
O36_2 C57_2 1_555 1_555
O37_2 C61_2 1_555 1_555
C49_2 H34_2 1_555 1_555
C50_2 C49_2 1_555 1_555
C51_2 C50_2 1_555 1_555
C52_2 C50_2 1_555 1_555
H35_2 C52_2 1_555 1_555
C53_2 C52_2 1_555 1_555
C54_2 C53_2 1_555 1_555
H36_2 C54_2 1_555 1_555
C55_2 C49_2 1_555 1_555
C56_2 O33_2 1_555 1_555
C57_2 C58_2 1_555 1_555
C58_2 C59_2 1_555 1_555
C59_2 C25_2 1_555 1_555
H37_2 C59_2 1_555 1_555
C60_2 C24_2 1_555 1_555
C61_2 C60_2 1_555 1_555
N7_2 C53_2 1_555 1_555
Zn2_2 O34_2 1_555 1_555
O8_2 C16_2 1_555 1_555
O10_2 Zn4 1_555 1_555
C15_2 C16_2 1_555 1_555
C19_2 C20_2 1_555 1_555
C22_2 N2_2 1_555 1_555
C26_2 N2_2 1_555 1_555
C28_2 N3_2 1_555 1_555
C29_2 N3_2 1_555 1_555
C34_2 N5_2 1_555 1_555
C35_2 N5_2 1_555 1_555
C54_2 C55_2 1_555 1_555
C55_2 C56_2 1_555 1_555
C57_2 N7_2 1_555 1_555
C58_2 C60_2 1_555 1_555
C61_2 N7_2 1_555 1_555
Zn6_2 O18_2 1_555 1_555
O18_2 C43_2 1_555 1_555
O21_2 Zn6_2 1_555 1_555
O25 C48 1_555 1_555
C36 H30 1_555 1_555
C41_2 C40 1_555 1_555
H32_2 C41_2 1_555 1_555
C42_2 C36 1_555 1_555
C43_2 O21_2 1_555 1_555
C48 C47 1_555 1_555
C66_2 H46_2 1_555 1_555
H47_2 C66_2 1_555 1_555
H48 C66_2 1_555 1_555
C67_2 H49_2 1_555 1_555
H50_2 C67_2 1_555 1_555
H51_2 C67_2 1_555 1_555
N6 C40 1_555 1_555
N9_2 C65_2 1_555 1_555
C41_2 C42_2 1_555 1_555
C42_2 C43_2 1_555 1_555
C48 N6 1_555 1_555
C66_2 N9_2 1_555 1_555
C67_2 N9_2 1_555 1_555
O19 C43_3 1_555 1_555
O24_3 C44_3 1_555 1_555
H32_3 C41_3 1_555 1_555
C43_3 O22 1_555 1_555
C44_3 C45_3 1_555 1_555
C45_3 C46_3 1_555 1_555
H33_3 C46_3 1_555 1_555
H45_3 C65_3 1_555 1_555
C66_3 H46_3 1_555 1_555
H47_3 C66_3 1_555 1_555
C67_3 H49_3 1_555 1_555
H50_3 C67_3 1_555 1_555
H51_3 C67_3 1_555 1_555
N9_3 C65_3 1_555 1_555
C41_3 C42_3 1_555 1_555
C42_3 C43_3 1_555 1_555
C66_3 N9_3 1_555 1_555
C67_3 N9_3 1_555 1_555
Zn6 O2_3 1_555 1_555
Zn2_3 O1_3 1_555 1_555
O1_3 C3_3 1_555 1_555
O2_3 C3_3 1_555 1_555
O6_2 C13_2 1_555 1_555
O13_3 Zn2_3 1_555 1_555
O14_3 Zn2_3 1_555 1_555
O15_3 Zn2_3 1_555 1_555
C1_2 H1_2 1_555 1_555
C2_3 C1_2 1_555 1_555
C3_3 C2_3 1_555 1_555
C4_3 C2_3 1_555 1_555
H2_3 C4_3 1_555 1_555
C5_2 C4_3 1_555 1_555
C13_2 C12_2 1_555 1_555
C27_3 O13_3 1_555 1_555
C28_3 H10_3 1_555 1_555
H11_3 C28_3 1_555 1_555
H12_3 C28_3 1_555 1_555
H14_3 C29_3 1_555 1_555
H15_3 C29_3 1_555 1_555
C33_3 O15_3 1_555 1_555
H23_3 C33_3 1_555 1_555
C34_3 H24_3 1_555 1_555
H25_3 C34_3 1_555 1_555
H26_3 C34_3 1_555 1_555
C35_3 H27_3 1_555 1_555
H28_3 C35_3 1_555 1_555
H29_3 C35_3 1_555 1_555
N1_2 C5_2 1_555 1_555
N3_3 C27_3 1_555 1_555
N5_3 C33_3 1_555 1_555
O31_3 Zn6 1_555 1_555
O34_3 Zn6 1_555 1_555
Zn2_3 O34_3 1_555 1_555
C13_2 N1_2 1_555 1_555
C28_3 N3_3 1_555 1_555
C29_3 N3_3 1_555 1_555
C34_3 N5_3 1_555 1_555
C35_3 N5_3 1_555 1_555
Zn4 O17_3 1_555 1_555
Zn10_2 O16_3 1_555 1_555
O16_3 C38_3 1_555 1_555
O17_3 C38_3 1_555 1_555
O25_2 C48_2 1_555 1_555
O38_3 Zn10_2 1_555 1_555
O39_3 Zn10_2 1_555 1_555
O40_3 Zn10_2 1_555 1_555
C36_2 H30_2 1_555 1_555
C37_3 C36_2 1_555 1_555
C38_3 C37_3 1_555 1_555
C39_3 C37_3 1_555 1_555
H31_3 C39_3 1_555 1_555
C40_2 C39_3 1_555 1_555
C48_2 C47_2 1_555 1_555
C62_3 O38_3 1_555 1_555
C63_3 H39_3 1_555 1_555
H40_3 C63_3 1_555 1_555
H41_3 C63_3 1_555 1_555
H43_3 C64_3 1_555 1_555
H44_3 C64_3 1_555 1_555
C68_3 O40_3 1_555 1_555
H52_3 C68_3 1_555 1_555
C69_3 H53_3 1_555 1_555
H54_3 C69_3 1_555 1_555
H55_3 C69_3 1_555 1_555
C70_3 H56_3 1_555 1_555
H57_3 C70_3 1_555 1_555
H58_3 C70_3 1_555 1_555
N6_2 C40_2 1_555 1_555
N8_3 C62_3 1_555 1_555
N10_3 C68_3 1_555 1_555
C48_2 N6_2 1_555 1_555
C63_3 N8_3 1_555 1_555
C64_3 N8_3 1_555 1_555
C69_3 N10_3 1_555 1_555
C70_3 N10_3 1_555 1_555
O20 C8_3 1_555 1_555
O23 C8_3 1_555 1_555
O5_3 C9_3 1_555 1_555
O32_2 C21_3 1_555 1_555
O35_2 C21_3 1_555 1_555
O11_3 C22_3 1_555 1_555
O12_3 C26_3 1_555 1_555
H3_3 C6_3 1_555 1_555
C8_3 C7_3 1_555 1_555
C9_3 C10_3 1_555 1_555
C10_3 C11_3 1_555 1_555
C11_3 H4_3 1_555 1_555
C14_3 H5_3 1_555 1_555
C15_3 C14_3 1_555 1_555
C16_3 O7_3 1_555 1_555
C17_3 C15_3 1_555 1_555
H6_3 C17_3 1_555 1_555
C18_3 C17_3 1_555 1_555
C19_3 C18_3 1_555 1_555
H7_3 C19_3 1_555 1_555
C20_3 C14_3 1_555 1_555
C21_3 C20_3 1_555 1_555
C22_3 C23_3 1_555 1_555
C23_3 C24_3 1_555 1_555
C24_3 H8_3 1_555 1_555
C25_3 C23_3 1_555 1_555
C26_3 C25_3 1_555 1_555
H16_3 C30_3 1_555 1_555
C31_3 H17_3 1_555 1_555
H18_3 C31_3 1_555 1_555
C32_3 H20_3 1_555 1_555
H21_3 C32_3 1_555 1_555
H22_3 C32_3 1_555 1_555
N2_3 C18_3 1_555 1_555
N4_3 C30_3 1_555 1_555
Zn7_3 O30_3 1_555 1_555
Zn8_3 O26_3 1_555 1_555
Zn11_3 O33_3 1_555 1_555
Zn12_3 O28_3 1_555 1_555
O26_3 C51_3 1_555 1_555
O28_3 C51_3 1_555 1_555
O30_3 C56_3 1_555 1_555
O33_3 Zn7_3 1_555 1_555
O36_3 C57_3 1_555 1_555
O37_3 C61_3 1_555 1_555
C49_3 H34_3 1_555 1_555
C50_3 C49_3 1_555 1_555
C51_3 C50_3 1_555 1_555
C52_3 C50_3 1_555 1_555
H35_3 C52_3 1_555 1_555
C53_3 C52_3 1_555 1_555
C54_3 C53_3 1_555 1_555
H36_3 C54_3 1_555 1_555
C55_3 C49_3 1_555 1_555
C56_3 O33_3 1_555 1_555
C57_3 C58_3 1_555 1_555
C58_3 C59_3 1_555 1_555
C59_3 C25_3 1_555 1_555
H37_3 C59_3 1_555 1_555
C60_3 C24_3 1_555 1_555
C61_3 C60_3 1_555 1_555
N7_3 C53_3 1_555 1_555
O8_3 C16_3 1_555 1_555
C6_3 C7_3 1_555 1_555
C15_3 C16_3 1_555 1_555
C19_3 C20_3 1_555 1_555
C22_3 N2_3 1_555 1_555
C26_3 N2_3 1_555 1_555
C31_3 N4_3 1_555 1_555
C32_3 N4_3 1_555 1_555
C54_3 C55_3 1_555 1_555
C55_3 C56_3 1_555 1_555
C57_3 N7_3 1_555 1_555
C58_3 C60_3 1_555 1_555
C61_3 N7_3 1_555 1_555
Zn5 O17_4 1_555 1_555
Zn10 O16_4 1_555 1_555
O16_4 C38_4 1_555 1_555
O17_4 C38_4 1_555 1_555
O19_2 C43_4 1_555 1_555
O24_4 C44_4 1_555 1_555
O25_3 C48_3 1_555 1_555
O27_4 Zn5 1_555 1_555
O29_4 Zn10 1_555 1_555
O38_4 Zn10 1_555 1_555
O39_4 Zn10 1_555 1_555
O40_4 Zn10 1_555 1_555
C36_3 H30_3 1_555 1_555
C37_4 C36_3 1_555 1_555
C38_4 C37_4 1_555 1_555
C39_4 C37_4 1_555 1_555
H31_4 C39_4 1_555 1_555
C40_3 C39_4 1_555 1_555
C41_4 C40_3 1_555 1_555
H32_4 C41_4 1_555 1_555
C42_4 C36_3 1_555 1_555
C43_4 O22_2 1_555 1_555
C44_4 C45_4 1_555 1_555
C45_4 C46_4 1_555 1_555
H33_4 C46_4 1_555 1_555
C48_3 C47_3 1_555 1_555
C62_4 O38_4 1_555 1_555
H38_4 C62_4 1_555 1_555
C63_4 H39_4 1_555 1_555
H40_4 C63_4 1_555 1_555
H41_4 C63_4 1_555 1_555
C64_4 H42_4 1_555 1_555
H43_4 C64_4 1_555 1_555
H44_4 C64_4 1_555 1_555
C65_4 O39_4 1_555 1_555
H45_4 C65_4 1_555 1_555
C66_4 H46_4 1_555 1_555
H47_4 C66_4 1_555 1_555
H48_3 C66_4 1_555 1_555
C67_4 H49_4 1_555 1_555
H50_4 C67_4 1_555 1_555
H51_4 C67_4 1_555 1_555
C68_4 O40_4 1_555 1_555
H52_4 C68_4 1_555 1_555
C69_4 H53_4 1_555 1_555
H54_4 C69_4 1_555 1_555
H55_4 C69_4 1_555 1_555
C70_4 H56_4 1_555 1_555
H57_4 C70_4 1_555 1_555
H58_4 C70_4 1_555 1_555
N6_3 C40_3 1_555 1_555
N8_4 C62_4 1_555 1_555
N9_4 C65_4 1_555 1_555
N10_4 C68_4 1_555 1_555
C41_4 C42_4 1_555 1_555
C42_4 C43_4 1_555 1_555
C44_4 N6_3 1_555 1_555
C45_4 C47_3 1_555 1_555
C48_3 N6_3 1_555 1_555
C63_4 N8_4 1_555 1_555
C64_4 N8_4 1_555 1_555
C66_4 N9_4 1_555 1_555
C67_4 N9_4 1_555 1_555
C69_4 N10_4 1_555 1_555
C70_4 N10_4 1_555 1_555
Zn6_2 O2_4 1_555 1_555
Zn2_4 O1_4 1_555 1_555
O1_4 C3_4 1_555 1_555
O2_4 C3_4 1_555 1_555
O20_2 C8_4 1_555 1_555
O23_2 C8_4 1_555 1_555
O5_4 C9_4 1_555 1_555
O6_3 C13_3 1_555 1_555
O7_4 Zn6_2 1_555 1_555
O8_4 Zn2_4 1_555 1_555
O32 C21_4 1_555 1_555
O35 C21_4 1_555 1_555
O11_4 C22_4 1_555 1_555
O12_4 C26_4 1_555 1_555
O13_4 Zn2_4 1_555 1_555
O14_4 Zn2_4 1_555 1_555
O15_4 Zn2_4 1_555 1_555
C1_3 H1_3 1_555 1_555
C2_4 C1_3 1_555 1_555
C3_4 C2_4 1_555 1_555
C4_4 C2_4 1_555 1_555
H2_4 C4_4 1_555 1_555
C5_3 C4_4 1_555 1_555
C6_4 C5_3 1_555 1_555
H3_4 C6_4 1_555 1_555
C7_4 C1_3 1_555 1_555
C8_4 C7_4 1_555 1_555
C9_4 C10_4 1_555 1_555
C10_4 C11_4 1_555 1_555
C11_4 H4_4 1_555 1_555
C12_3 C10_4 1_555 1_555
C13_3 C12_3 1_555 1_555
C14_4 H5_4 1_555 1_555
C15_4 C14_4 1_555 1_555
C16_4 O7_4 1_555 1_555
C17_4 C15_4 1_555 1_555
H6_4 C17_4 1_555 1_555
C18_4 C17_4 1_555 1_555
C19_4 C18_4 1_555 1_555
H7_4 C19_4 1_555 1_555
C20_4 C14_4 1_555 1_555
C21_4 C20_4 1_555 1_555
C22_4 C23_4 1_555 1_555
C23_4 C24_4 1_555 1_555
C24_4 H8_4 1_555 1_555
C25_4 C23_4 1_555 1_555
C26_4 C25_4 1_555 1_555
C27_4 O13_4 1_555 1_555
H9_4 C27_4 1_555 1_555
C28_4 H10_4 1_555 1_555
H11_4 C28_4 1_555 1_555
H12_4 C28_4 1_555 1_555
C29_4 H13_4 1_555 1_555
H14_4 C29_4 1_555 1_555
H15_4 C29_4 1_555 1_555
C30_4 O14_4 1_555 1_555
H16_4 C30_4 1_555 1_555
C31_4 H17_4 1_555 1_555
H18_4 C31_4 1_555 1_555
H19_3 C31_4 1_555 1_555
C32_4 H20_4 1_555 1_555
H21_4 C32_4 1_555 1_555
H22_4 C32_4 1_555 1_555
C33_4 O15_4 1_555 1_555
H23_4 C33_4 1_555 1_555
C34_4 H24_4 1_555 1_555
H25_4 C34_4 1_555 1_555
H26_4 C34_4 1_555 1_555
C35_4 H27_4 1_555 1_555
H28_4 C35_4 1_555 1_555
H29_4 C35_4 1_555 1_555
N1_3 C5_3 1_555 1_555
N2_4 C18_4 1_555 1_555
N3_4 C27_4 1_555 1_555
N4_4 C30_4 1_555 1_555
N5_4 C33_4 1_555 1_555
Zn7_4 O30_4 1_555 1_555
Zn11_4 O33_4 1_555 1_555
O26_4 C51_4 1_555 1_555
O28_4 C51_4 1_555 1_555
O30_4 C56_4 1_555 1_555
O31_4 Zn6_2 1_555 1_555
O33_4 Zn7_4 1_555 1_555
O34_4 Zn6_2 1_555 1_555
O36_4 C57_4 1_555 1_555
O37_4 C61_4 1_555 1_555
C49_4 H34_4 1_555 1_555
C50_4 C49_4 1_555 1_555
C51_4 C50_4 1_555 1_555
C52_4 C50_4 1_555 1_555
H35_4 C52_4 1_555 1_555
C53_4 C52_4 1_555 1_555
C54_4 C53_4 1_555 1_555
H36_4 C54_4 1_555 1_555
C55_4 C49_4 1_555 1_555
C56_4 O33_4 1_555 1_555
C57_4 C58_4 1_555 1_555
C58_4 C59_4 1_555 1_555
C59_4 C25_4 1_555 1_555
H37_4 C59_4 1_555 1_555
C60_4 C24_4 1_555 1_555
C61_4 C60_4 1_555 1_555
N7_4 C53_4 1_555 1_555
Zn2_4 O34_4 1_555 1_555
O8_4 C16_4 1_555 1_555
C6_4 C7_4 1_555 1_555
C9_4 N1_3 1_555 1_555
C13_3 N1_3 1_555 1_555
C15_4 C16_4 1_555 1_555
C19_4 C20_4 1_555 1_555
C22_4 N2_4 1_555 1_555
C26_4 N2_4 1_555 1_555
C28_4 N3_4 1_555 1_555
C29_4 N3_4 1_555 1_555
C31_4 N4_4 1_555 1_555
C32_4 N4_4 1_555 1_555
C34_4 N5_4 1_555 1_555
C35_4 N5_4 1_555 1_555
C54_4 C55_4 1_555 1_555
C55_4 C56_4 1_555 1_555
C57_4 N7_4 1_555 1_555
C58_4 C60_4 1_555 1_555
C61_4 N7_4 1_555 1_555
Zn7_4 O2_5 1_555 1_555
Zn11_4 O1_5 1_555 1_555
O1_5 C3_5 1_555 1_555
O2_5 C3_5 1_555 1_555
O3_3 C8_5 1_555 1_555
O4_3 C8_5 1_555 1_555
O5_5 C9_5 1_555 1_555
O6_4 C13_4 1_555 1_555
O7_5 Zn7_4 1_555 1_555
O8_5 Zn11_4 1_555 1_555
O9_3 C21_5 1_555 1_555
O10_3 C21_5 1_555 1_555
O11_5 C22_5 1_555 1_555
O12_5 C26_5 1_555 1_555
O13_5 Zn11_4 1_555 1_555
O14_5 Zn11_4 1_555 1_555
O15_5 Zn11_4 1_555 1_555
C1_4 H1_4 1_555 1_555
C2_5 C1_4 1_555 1_555
C3_5 C2_5 1_555 1_555
C4_5 C2_5 1_555 1_555
H2_5 C4_5 1_555 1_555
C5_4 C4_5 1_555 1_555
C6_5 C5_4 1_555 1_555
H3_5 C6_5 1_555 1_555
C7_5 C1_4 1_555 1_555
C8_5 C7_5 1_555 1_555
C9_5 C10_5 1_555 1_555
C10_5 C11_5 1_555 1_555
C11_5 H4_5 1_555 1_555
C12_4 C10_5 1_555 1_555
C13_4 C12_4 1_555 1_555
C14_5 H5_5 1_555 1_555
C15_5 C14_5 1_555 1_555
C16_5 O7_5 1_555 1_555
C17_5 C15_5 1_555 1_555
H6_5 C17_5 1_555 1_555
C18_5 C17_5 1_555 1_555
C19_5 C18_5 1_555 1_555
H7_5 C19_5 1_555 1_555
C20_5 C14_5 1_555 1_555
C21_5 C20_5 1_555 1_555
C22_5 C23_5 1_555 1_555
C23_5 C24_5 1_555 1_555
C24_5 H8_5 1_555 1_555
C25_5 C23_5 1_555 1_555
C26_5 C25_5 1_555 1_555
C27_5 O13_5 1_555 1_555
H9_5 C27_5 1_555 1_555
C28_5 H10_5 1_555 1_555
H11_5 C28_5 1_555 1_555
H12_5 C28_5 1_555 1_555
C29_5 H13_5 1_555 1_555
H14_5 C29_5 1_555 1_555
H15_5 C29_5 1_555 1_555
C30_5 O14_5 1_555 1_555
H16_5 C30_5 1_555 1_555
C31_5 H17_5 1_555 1_555
H18_5 C31_5 1_555 1_555
H19_4 C31_5 1_555 1_555
C32_5 H20_5 1_555 1_555
H21_5 C32_5 1_555 1_555
H22_5 C32_5 1_555 1_555
C33_5 O15_5 1_555 1_555
H23_5 C33_5 1_555 1_555
C34_5 H24_5 1_555 1_555
H25_5 C34_5 1_555 1_555
H26_5 C34_5 1_555 1_555
C35_5 H27_5 1_555 1_555
H28_5 C35_5 1_555 1_555
H29_5 C35_5 1_555 1_555
N1_4 C5_4 1_555 1_555
N2_5 C18_5 1_555 1_555
N3_5 C27_5 1_555 1_555
N4_5 C30_5 1_555 1_555
N5_5 C33_5 1_555 1_555
Zn8 O17_5 1_555 1_555
Zn8_3 O3_3 1_555 1_555
Zn8_4 O9_3 1_555 1_555
Zn7_2 O18_3 1_555 1_555
Zn12 O16_5 1_555 1_555
Zn12_4 O10_3 1_555 1_555
O16_5 C38_5 1_555 1_555
O17_5 C38_5 1_555 1_555
O18_3 C43_5 1_555 1_555
O19_3 Zn7_4 1_555 1_555
O20_3 Zn8 1_555 1_555
O21_3 Zn7_2 1_555 1_555
O22_3 Zn7_4 1_555 1_555
O23_3 Zn8 1_555 1_555
O24_5 C44_5 1_555 1_555
O25_4 C48_4 1_555 1_555
O27 C51_5 1_555 1_555
O29 C51_5 1_555 1_555
O31_4 C56_5 1_555 1_555
O32_3 Zn8 1_555 1_555
O35_3 Zn8 1_555 1_555
O36_5 C57_5 1_555 1_555
O37_5 C61_5 1_555 1_555
O38_5 Zn12 1_555 1_555
O39_5 Zn12 1_555 1_555
O40_5 Zn12 1_555 1_555
C36_4 H30_4 1_555 1_555
C37_5 C36_4 1_555 1_555
C38_5 C37_5 1_555 1_555
C39_5 C37_5 1_555 1_555
H31_5 C39_5 1_555 1_555
C40_4 C39_5 1_555 1_555
C41_5 C40_4 1_555 1_555
H32_5 C41_5 1_555 1_555
C42_5 C36_4 1_555 1_555
C43_5 O21_3 1_555 1_555
C44_5 C45_5 1_555 1_555
C45_5 C46_5 1_555 1_555
C46_5 C12_4 1_555 1_555
H33_5 C46_5 1_555 1_555
C47_4 C11_5 1_555 1_555
C48_4 C47_4 1_555 1_555
C49_5 H34_5 1_555 1_555
C50_5 C49_5 1_555 1_555
C51_5 C50_5 1_555 1_555
C52_5 C50_5 1_555 1_555
H35_5 C52_5 1_555 1_555
C53_5 C52_5 1_555 1_555
C54_5 C53_5 1_555 1_555
H36_5 C54_5 1_555 1_555
C55_5 C49_5 1_555 1_555
C56_5 O34_4 1_555 1_555
C57_5 C58_5 1_555 1_555
C58_5 C59_5 1_555 1_555
C59_5 C25_5 1_555 1_555
H37_5 C59_5 1_555 1_555
C60_5 C24_5 1_555 1_555
C61_5 C60_5 1_555 1_555
C62_5 O38_5 1_555 1_555
H38_5 C62_5 1_555 1_555
C63_5 H39_5 1_555 1_555
H40_5 C63_5 1_555 1_555
H41_5 C63_5 1_555 1_555
C64_5 H42_5 1_555 1_555
H43_5 C64_5 1_555 1_555
H44_5 C64_5 1_555 1_555
C65_5 O39_5 1_555 1_555
H45_5 C65_5 1_555 1_555
C66_5 H46_5 1_555 1_555
H47_5 C66_5 1_555 1_555
H48_4 C66_5 1_555 1_555
C67_5 H49_5 1_555 1_555
H50_5 C67_5 1_555 1_555
H51_5 C67_5 1_555 1_555
C68_5 O40_5 1_555 1_555
H52_5 C68_5 1_555 1_555
C69_5 H53_5 1_555 1_555
H54_5 C69_5 1_555 1_555
H55_5 C69_5 1_555 1_555
C70_5 H56_5 1_555 1_555
H57_5 C70_5 1_555 1_555
H58_5 C70_5 1_555 1_555
N6_4 C40_4 1_555 1_555
N7_5 C53_5 1_555 1_555
N8_5 C62_5 1_555 1_555
N9_5 C65_5 1_555 1_555
N10_5 C68_5 1_555 1_555
O4_3 Zn8_3 1_555 1_555
O8_5 C16_5 1_555 1_555
O10_3 Zn8_4 1_555 1_555
C6_5 C7_5 1_555 1_555
C9_5 N1_4 1_555 1_555
C13_4 N1_4 1_555 1_555
C15_5 C16_5 1_555 1_555
C19_5 C20_5 1_555 1_555
C22_5 N2_5 1_555 1_555
C26_5 N2_5 1_555 1_555
C28_5 N3_5 1_555 1_555
C29_5 N3_5 1_555 1_555
C31_5 N4_5 1_555 1_555
C32_5 N4_5 1_555 1_555
C34_5 N5_5 1_555 1_555
C35_5 N5_5 1_555 1_555
Zn12 O35_3 1_555 1_555
C41_5 C42_5 1_555 1_555
C42_5 C43_5 1_555 1_555
C44_5 N6_4 1_555 1_555
C45_5 C47_4 1_555 1_555
C48_4 N6_4 1_555 1_555
C54_5 C55_5 1_555 1_555
C55_5 C56_5 1_555 1_555
C57_5 N7_5 1_555 1_555
C58_5 C60_5 1_555 1_555
C61_5 N7_5 1_555 1_555
C63_5 N8_5 1_555 1_555
C64_5 N8_5 1_555 1_555
C66_5 N9_5 1_555 1_555
C67_5 N9_5 1_555 1_555
C69_5 N10_5 1_555 1_555
C70_5 N10_5 1_555 1_555
O3_4 C8_6 1_555 1_555
O4_4 C8_6 1_555 1_555
O5_6 C9_6 1_555 1_555
O9_4 C21_6 1_555 1_555
O10_4 C21_6 1_555 1_555
O11_6 C22_6 1_555 1_555
O12_6 C26_6 1_555 1_555
H3_6 C6_6 1_555 1_555
C8_6 C7_6 1_555 1_555
C9_6 C10_6 1_555 1_555
C10_6 C11_6 1_555 1_555
C11_6 H4_6 1_555 1_555
C14_6 H5_6 1_555 1_555
C15_6 C14_6 1_555 1_555
C16_6 O7_6 1_555 1_555
C17_6 C15_6 1_555 1_555
H6_6 C17_6 1_555 1_555
C18_6 C17_6 1_555 1_555
C19_6 C18_6 1_555 1_555
H7_6 C19_6 1_555 1_555
C20_6 C14_6 1_555 1_555
C21_6 C20_6 1_555 1_555
C22_6 C23_6 1_555 1_555
C23_6 C24_6 1_555 1_555
C24_6 H8_6 1_555 1_555
C25_6 C23_6 1_555 1_555
C26_6 C25_6 1_555 1_555
H16_6 C30_6 1_555 1_555
C31_6 H17_6 1_555 1_555
H18_6 C31_6 1_555 1_555
C32_6 H20_6 1_555 1_555
H21_6 C32_6 1_555 1_555
H22_6 C32_6 1_555 1_555
N2_6 C18_6 1_555 1_555
N4_6 C30_6 1_555 1_555
Zn8_2 O17_6 1_555 1_555
Zn8_4 O3_4 1_555 1_555
Zn8_3 O9_4 1_555 1_555
Zn12_2 O16_6 1_555 1_555
Zn12_3 O10_4 1_555 1_555
O16_6 C38_6 1_555 1_555
O17_6 C38_6 1_555 1_555
O20_4 Zn8_2 1_555 1_555
O23_4 Zn8_2 1_555 1_555
O25_5 C48_5 1_555 1_555
O27_2 C51_6 1_555 1_555
O29_2 C51_6 1_555 1_555
O31_3 C56_6 1_555 1_555
O32_4 Zn8_2 1_555 1_555
O35_4 Zn8_2 1_555 1_555
O36_6 C57_6 1_555 1_555
O37_6 C61_6 1_555 1_555
O38_6 Zn12_2 1_555 1_555
O39_6 Zn12_2 1_555 1_555
O40_6 Zn12_2 1_555 1_555
C36_5 H30_5 1_555 1_555
C37_6 C36_5 1_555 1_555
C38_6 C37_6 1_555 1_555
C39_6 C37_6 1_555 1_555
H31_6 C39_6 1_555 1_555
C40_5 C39_6 1_555 1_555
C47_5 C11_6 1_555 1_555
C48_5 C47_5 1_555 1_555
C49_6 H34_6 1_555 1_555
C50_6 C49_6 1_555 1_555
C51_6 C50_6 1_555 1_555
C52_6 C50_6 1_555 1_555
H35_6 C52_6 1_555 1_555
C53_6 C52_6 1_555 1_555
C54_6 C53_6 1_555 1_555
H36_6 C54_6 1_555 1_555
C55_6 C49_6 1_555 1_555
C56_6 O34_3 1_555 1_555
C57_6 C58_6 1_555 1_555
C58_6 C59_6 1_555 1_555
C59_6 C25_6 1_555 1_555
H37_6 C59_6 1_555 1_555
C60_6 C24_6 1_555 1_555
C61_6 C60_6 1_555 1_555
C62_6 O38_6 1_555 1_555
C63_6 H39_6 1_555 1_555
H40_6 C63_6 1_555 1_555
H41_6 C63_6 1_555 1_555
H43_6 C64_6 1_555 1_555
H44_6 C64_6 1_555 1_555
C68_6 O40_6 1_555 1_555
H52_6 C68_6 1_555 1_555
C69_6 H53_6 1_555 1_555
H54_6 C69_6 1_555 1_555
H55_6 C69_6 1_555 1_555
C70_6 H56_6 1_555 1_555
H57_6 C70_6 1_555 1_555
H58_6 C70_6 1_555 1_555
N6_5 C40_5 1_555 1_555
N7_6 C53_6 1_555 1_555
N8_6 C62_6 1_555 1_555
N10_6 C68_6 1_555 1_555
O4_4 Zn8_4 1_555 1_555
O8_6 C16_6 1_555 1_555
O10_4 Zn8_3 1_555 1_555
C6_6 C7_6 1_555 1_555
C15_6 C16_6 1_555 1_555
C19_6 C20_6 1_555 1_555
C22_6 N2_6 1_555 1_555
C26_6 N2_6 1_555 1_555
C31_6 N4_6 1_555 1_555
C32_6 N4_6 1_555 1_555
Zn12_2 O35_4 1_555 1_555
C48_5 N6_5 1_555 1_555
C54_6 C55_6 1_555 1_555
C55_6 C56_6 1_555 1_555
C57_6 N7_6 1_555 1_555
C58_6 C60_6 1_555 1_555
C61_6 N7_6 1_555 1_555
C63_6 N8_6 1_555 1_555
C64_6 N8_6 1_555 1_555
C69_6 N10_6 1_555 1_555
C70_6 N10_6 1_555 1_555
Zn7_3 O2_6 1_555 1_555
Zn11_3 O1_6 1_555 1_555
O1_6 C3_6 1_555 1_555
O2_6 C3_6 1_555 1_555
O6_5 C13_5 1_555 1_555
O13_6 Zn11_3 1_555 1_555
O14_6 Zn11_3 1_555 1_555
O15_6 Zn11_3 1_555 1_555
C1_5 H1_5 1_555 1_555
C2_6 C1_5 1_555 1_555
C3_6 C2_6 1_555 1_555
C4_6 C2_6 1_555 1_555
H2_6 C4_6 1_555 1_555
C5_5 C4_6 1_555 1_555
C13_5 C12_5 1_555 1_555
C27_6 O13_6 1_555 1_555
C28_6 H10_6 1_555 1_555
H11_6 C28_6 1_555 1_555
H12_6 C28_6 1_555 1_555
H14_6 C29_6 1_555 1_555
H15_6 C29_6 1_555 1_555
C33_6 O15_6 1_555 1_555
H23_6 C33_6 1_555 1_555
C34_6 H24_6 1_555 1_555
H25_6 C34_6 1_555 1_555
H26_6 C34_6 1_555 1_555
C35_6 H27_6 1_555 1_555
H28_6 C35_6 1_555 1_555
H29_6 C35_6 1_555 1_555
N1_5 C5_5 1_555 1_555
N3_6 C27_6 1_555 1_555
N5_6 C33_6 1_555 1_555
Zn7 O18_4 1_555 1_555
O18_4 C43_6 1_555 1_555
O19_4 Zn7_3 1_555 1_555
O21_4 Zn7 1_555 1_555
O22_4 Zn7_3 1_555 1_555
O24_6 C44_6 1_555 1_555
H32_6 C41_6 1_555 1_555
C43_6 O21_4 1_555 1_555
C44_6 C45_6 1_555 1_555
C45_6 C46_6 1_555 1_555
C46_6 C12_5 1_555 1_555
H33_6 C46_6 1_555 1_555
H45_6 C65_6 1_555 1_555
C66_6 H46_6 1_555 1_555
H47_6 C66_6 1_555 1_555
C67_6 H49_6 1_555 1_555
H50_6 C67_6 1_555 1_555
H51_6 C67_6 1_555 1_555
N9_6 C65_6 1_555 1_555
C13_5 N1_5 1_555 1_555
C28_6 N3_6 1_555 1_555
C29_6 N3_6 1_555 1_555
C34_6 N5_6 1_555 1_555
C35_6 N5_6 1_555 1_555
C41_6 C42_6 1_555 1_555
C42_6 C43_6 1_555 1_555
C66_6 N9_6 1_555 1_555
C67_6 N9_6 1_555 1_555
O20_3 C8_7 1_555 1_555
O23_3 C8_7 1_555 1_555
O6_6 C13_6 1_555 1_555
C1_6 H1_6 1_555 1_555
C6_7 C5_6 1_555 1_555
H3_7 C6_7 1_555 1_555
C7_7 C1_6 1_555 1_555
C8_7 C7_7 1_555 1_555
C13_6 C12_6 1_555 1_555
C31_7 H17_7 1_555 1_555
H18_7 C31_7 1_555 1_555
H19_6 C31_7 1_555 1_555
C32_7 H20_7 1_555 1_555
H21_7 C32_7 1_555 1_555
H22_7 C32_7 1_555 1_555
N1_6 C5_6 1_555 1_555
N4_7 C30_7 1_555 1_555
Zn8_3 O17_7 1_555 1_555
Zn12_3 O16_7 1_555 1_555
O16_7 C38_7 1_555 1_555
O17_7 C38_7 1_555 1_555
O24_7 C44_7 1_555 1_555
O38_7 Zn12_3 1_555 1_555
O39_7 Zn12_3 1_555 1_555
O40_7 Zn12_3 1_555 1_555
C38_7 C37_7 1_555 1_555
C39_7 C37_7 1_555 1_555
H31_7 C39_7 1_555 1_555
C44_7 C45_7 1_555 1_555
C45_7 C46_7 1_555 1_555
C46_7 C12_6 1_555 1_555
H33_7 C46_7 1_555 1_555
C62_7 O38_7 1_555 1_555
H38_7 C62_7 1_555 1_555
C63_7 H39_7 1_555 1_555
H40_7 C63_7 1_555 1_555
H41_7 C63_7 1_555 1_555
C64_7 H42_7 1_555 1_555
H43_7 C64_7 1_555 1_555
H44_7 C64_7 1_555 1_555
C68_7 O40_7 1_555 1_555
H52_7 C68_7 1_555 1_555
C69_7 H53_7 1_555 1_555
H54_7 C69_7 1_555 1_555
H55_7 C69_7 1_555 1_555
C70_7 H56_7 1_555 1_555
H57_7 C70_7 1_555 1_555
H58_7 C70_7 1_555 1_555
N8_7 C62_7 1_555 1_555
N10_7 C68_7 1_555 1_555
C6_7 C7_7 1_555 1_555
C13_6 N1_6 1_555 1_555
C31_7 N4_7 1_555 1_555
C32_7 N4_7 1_555 1_555
C63_7 N8_7 1_555 1_555
C64_7 N8_7 1_555 1_555
C69_7 N10_7 1_555 1_555
C70_7 N10_7 1_555 1_555
Zn7_2 O2_7 1_555 1_555
Zn11_2 O1_7 1_555 1_555
O1_7 C3_7 1_555 1_555
O2_7 C3_7 1_555 1_555
O5_7 C9_7 1_555 1_555
O7_7 Zn7_2 1_555 1_555
O8_7 Zn11_2 1_555 1_555
O32_4 C21_7 1_555 1_555
O35_4 C21_7 1_555 1_555
O11_7 C22_7 1_555 1_555
O12_7 C26_7 1_555 1_555
O13_7 Zn11_2 1_555 1_555
O14_7 Zn11_2 1_555 1_555
O15_7 Zn11_2 1_555 1_555
C3_7 C2_7 1_555 1_555
C4_7 C2_7 1_555 1_555
H2_7 C4_7 1_555 1_555
C9_7 C10_7 1_555 1_555
C10_7 C11_7 1_555 1_555
C11_7 H4_7 1_555 1_555
C14_7 H5_7 1_555 1_555
C15_7 C14_7 1_555 1_555
C16_7 O7_7 1_555 1_555
C17_7 C15_7 1_555 1_555
H6_7 C17_7 1_555 1_555
C18_7 C17_7 1_555 1_555
C19_7 C18_7 1_555 1_555
H7_7 C19_7 1_555 1_555
C20_7 C14_7 1_555 1_555
C21_7 C20_7 1_555 1_555
C22_7 C23_7 1_555 1_555
C23_7 C24_7 1_555 1_555
C24_7 H8_7 1_555 1_555
C25_7 C23_7 1_555 1_555
C26_7 C25_7 1_555 1_555
C27_7 O13_7 1_555 1_555
H9_7 C27_7 1_555 1_555
C28_7 H10_7 1_555 1_555
H11_7 C28_7 1_555 1_555
H12_7 C28_7 1_555 1_555
C29_7 H13_7 1_555 1_555
H14_7 C29_7 1_555 1_555
H15_7 C29_7 1_555 1_555
C33_7 O15_7 1_555 1_555
H23_7 C33_7 1_555 1_555
C34_7 H24_7 1_555 1_555
H25_7 C34_7 1_555 1_555
H26_7 C34_7 1_555 1_555
C35_7 H27_7 1_555 1_555
H28_7 C35_7 1_555 1_555
H29_7 C35_7 1_555 1_555
N2_7 C18_7 1_555 1_555
N3_7 C27_7 1_555 1_555
N5_7 C33_7 1_555 1_555
O19_3 C43_7 1_555 1_555
O25_6 C48_6 1_555 1_555
O27_3 C51_7 1_555 1_555
O29_3 C51_7 1_555 1_555
O31_2 C56_7 1_555 1_555
O36_7 C57_7 1_555 1_555
O37_7 C61_7 1_555 1_555
C36_6 H30_6 1_555 1_555
C41_7 C40_6 1_555 1_555
H32_7 C41_7 1_555 1_555
C42_7 C36_6 1_555 1_555
C43_7 O22_3 1_555 1_555
C47_6 C11_7 1_555 1_555
C48_6 C47_6 1_555 1_555
C49_7 H34_7 1_555 1_555
C50_7 C49_7 1_555 1_555
C51_7 C50_7 1_555 1_555
C52_7 C50_7 1_555 1_555
H35_7 C52_7 1_555 1_555
C53_7 C52_7 1_555 1_555
C54_7 C53_7 1_555 1_555
H36_7 C54_7 1_555 1_555
C55_7 C49_7 1_555 1_555
C56_7 O34_2 1_555 1_555
C57_7 C58_7 1_555 1_555
C58_7 C59_7 1_555 1_555
C59_7 C25_7 1_555 1_555
H37_7 C59_7 1_555 1_555
C60_7 C24_7 1_555 1_555
C61_7 C60_7 1_555 1_555
C66_7 H46_7 1_555 1_555
H47_7 C66_7 1_555 1_555
H48_6 C66_7 1_555 1_555
C67_7 H49_7 1_555 1_555
H50_7 C67_7 1_555 1_555
H51_7 C67_7 1_555 1_555
N6_6 C40_6 1_555 1_555
N7_7 C53_7 1_555 1_555
N9_7 C65_7 1_555 1_555
O8_7 C16_7 1_555 1_555
C15_7 C16_7 1_555 1_555
C19_7 C20_7 1_555 1_555
C22_7 N2_7 1_555 1_555
C26_7 N2_7 1_555 1_555
C28_7 N3_7 1_555 1_555
C29_7 N3_7 1_555 1_555
C34_7 N5_7 1_555 1_555
C35_7 N5_7 1_555 1_555
C41_7 C42_7 1_555 1_555
C42_7 C43_7 1_555 1_555
C48_6 N6_6 1_555 1_555
C54_7 C55_7 1_555 1_555
C55_7 C56_7 1_555 1_555
C57_7 N7_7 1_555 1_555
C58_7 C60_7 1_555 1_555
C61_7 N7_7 1_555 1_555
C66_7 N9_7 1_555 1_555
C67_7 N9_7 1_555 1_555
O5_8 C9_8 1_555 1_555
O32_3 C21_8 1_555 1_555
O35_3 C21_8 1_555 1_555
O11_8 C22_8 1_555 1_555
O12_8 C26_8 1_555 1_555
C9_8 C10_8 1_555 1_555
C10_8 C11_8 1_555 1_555
C11_8 H4_8 1_555 1_555
C14_8 H5_8 1_555 1_555
C15_8 C14_8 1_555 1_555
C16_8 O7_8 1_555 1_555
C17_8 C15_8 1_555 1_555
H6_8 C17_8 1_555 1_555
C18_8 C17_8 1_555 1_555
C19_8 C18_8 1_555 1_555
H7_8 C19_8 1_555 1_555
C20_8 C14_8 1_555 1_555
C21_8 C20_8 1_555 1_555
C22_8 C23_8 1_555 1_555
C23_8 C24_8 1_555 1_555
C24_8 H8_8 1_555 1_555
C25_8 C23_8 1_555 1_555
C26_8 C25_8 1_555 1_555
N2_8 C18_8 1_555 1_555
O25_7 C48_7 1_555 1_555
O27_4 C51_8 1_555 1_555
O29_4 C51_8 1_555 1_555
O31 C56_8 1_555 1_555
O36_8 C57_8 1_555 1_555
O37_8 C61_8 1_555 1_555
C36_7 H30_7 1_555 1_555
C47_7 C11_8 1_555 1_555
C48_7 C47_7 1_555 1_555
C49_8 H34_8 1_555 1_555
C50_8 C49_8 1_555 1_555
C51_8 C50_8 1_555 1_555
C52_8 C50_8 1_555 1_555
H35_8 C52_8 1_555 1_555
C53_8 C52_8 1_555 1_555
C54_8 C53_8 1_555 1_555
H36_8 C54_8 1_555 1_555
C55_8 C49_8 1_555 1_555
C56_8 O34 1_555 1_555
C57_8 C58_8 1_555 1_555
C58_8 C59_8 1_555 1_555
C59_8 C25_8 1_555 1_555
H37_8 C59_8 1_555 1_555
C60_8 C24_8 1_555 1_555
C61_8 C60_8 1_555 1_555
N6_7 C40_7 1_555 1_555
N7_8 C53_8 1_555 1_555
O8_8 C16_8 1_555 1_555
C15_8 C16_8 1_555 1_555
C19_8 C20_8 1_555 1_555
C22_8 N2_8 1_555 1_555
C26_8 N2_8 1_555 1_555
C48_7 N6_7 1_555 1_555
C54_8 C55_8 1_555 1_555
C55_8 C56_8 1_555 1_555
C57_8 N7_8 1_555 1_555
C58_8 C60_8 1_555 1_555
C61_8 N7_8 1_555 1_555
O20_4 C8_8 1_555 1_555
O23_4 C8_8 1_555 1_555
H3_8 C6_8 1_555 1_555
C8_8 C7_8 1_555 1_555
C31_8 H17_8 1_555 1_555
H18_8 C31_8 1_555 1_555
C32_8 H20_8 1_555 1_555
H21_8 C32_8 1_555 1_555
H22_8 C32_8 1_555 1_555
N4_8 C30_8 1_555 1_555
Zn8_4 O17_8 1_555 1_555
Zn12_4 O16_8 1_555 1_555
O16_8 C38_8 1_555 1_555
O17_8 C38_8 1_555 1_555
O38_8 Zn12_4 1_555 1_555
O39_8 Zn12_4 1_555 1_555
O40_8 Zn12_4 1_555 1_555
C38_8 C37_8 1_555 1_555
C39_8 C37_8 1_555 1_555
H31_8 C39_8 1_555 1_555
C62_8 O38_8 1_555 1_555
C63_8 H39_8 1_555 1_555
H40_8 C63_8 1_555 1_555
H41_8 C63_8 1_555 1_555
H43_8 C64_8 1_555 1_555
H44_8 C64_8 1_555 1_555
C68_8 O40_8 1_555 1_555
H52_8 C68_8 1_555 1_555
C69_8 H53_8 1_555 1_555
H54_8 C69_8 1_555 1_555
H55_8 C69_8 1_555 1_555
C70_8 H56_8 1_555 1_555
H57_8 C70_8 1_555 1_555
H58_8 C70_8 1_555 1_555
N8_8 C62_8 1_555 1_555
N10_8 C68_8 1_555 1_555
C6_8 C7_8 1_555 1_555
C31_8 N4_8 1_555 1_555
C32_8 N4_8 1_555 1_555
C63_8 N8_8 1_555 1_555
C64_8 N8_8 1_555 1_555
C69_8 N10_8 1_555 1_555
C70_8 N10_8 1_555 1_555
Zn7 O2_8 1_555 1_555
Zn11 O1_8 1_555 1_555
O1_8 C3_8 1_555 1_555
O2_8 C3_8 1_555 1_555
O13_8 Zn11 1_555 1_555
O14_8 Zn11 1_555 1_555
O15_8 Zn11 1_555 1_555
C3_8 C2_8 1_555 1_555
C4_8 C2_8 1_555 1_555
H2_8 C4_8 1_555 1_555
C27_8 O13_8 1_555 1_555
C28_8 H10_8 1_555 1_555
H11_8 C28_8 1_555 1_555
H12_8 C28_8 1_555 1_555
H14_8 C29_8 1_555 1_555
H15_8 C29_8 1_555 1_555
C33_8 O15_8 1_555 1_555
H23_8 C33_8 1_555 1_555
C34_8 H24_8 1_555 1_555
H25_8 C34_8 1_555 1_555
H26_8 C34_8 1_555 1_555
C35_8 H27_8 1_555 1_555
H28_8 C35_8 1_555 1_555
H29_8 C35_8 1_555 1_555
N3_8 C27_8 1_555 1_555
N5_8 C33_8 1_555 1_555
O19_4 C43_8 1_555 1_555
H32_8 C41_8 1_555 1_555
C43_8 O22_4 1_555 1_555
C66_8 H46_8 1_555 1_555
H47_8 C66_8 1_555 1_555
C67_8 H49_8 1_555 1_555
H50_8 C67_8 1_555 1_555
H51_8 C67_8 1_555 1_555
N9_8 C65_8 1_555 1_555
C28_8 N3_8 1_555 1_555
C29_8 N3_8 1_555 1_555
C34_8 N5_8 1_555 1_555
C35_8 N5_8 1_555 1_555
C41_8 C42_8 1_555 1_555
C42_8 C43_8 1_555 1_555
C66_8 N9_8 1_555 1_555
C67_8 N9_8 1_555 1_555
O6_7 C13_7 1_555 1_555
C1_7 H1_7 1_555 1_555
C13_7 C12_7 1_555 1_555
N1_7 C5_7 1_555 1_555
O24_8 C44_8 1_555 1_555
C44_8 C45_8 1_555 1_555
C45_8 C46_8 1_555 1_555
C46_8 C12_7 1_555 1_555
H33_8 C46_8 1_555 1_555
C13_7 N1_7 1_555 1_555
O6_8 C13_8 1_555 1_555
C1_8 H1_8 1_555 1_555
C13_8 C12_8 1_555 1_555
N1_8 C5_8 1_555 1_555
C13_8 N1_8 1_555 1_555
O25_8 C48_8 1_555 1_555
C36_8 H30_8 1_555 1_555
C48_8 C47_8 1_555 1_555
N6_8 C40_8 1_555 1_555
C48_8 N6_8 1_555 1_555

#END
