
###############################################################################
#
# This file contains modified crystal structure data generated from the
# MOF subset of the Cambridge Structural Database (CSD) v543 
# hosted by the Cambridge Crystallographic Data Centre (CCDC).
#
# This work is licensed under the Creative Commons
# Attribution-NonCommercial-ShareAlike 4.0 International License.
# To view a copy of this license, visit
# http://creativecommons.org/licenses/by-nc-sa/4.0/
# or send a letter to
# Creative Commons, PO Box 1866, Mountain View, CA 94042, USA.
#
# CIF created using the CSD Python API on 29 September 2022
# The structure has been converted into the P1 space group
# The structure has a 3D framework
# The original CSD entry ALECAY is in the tetragonal crystal system
# The original CSD entry ALECAY is in a Sohncke space group
# The framework has been calculated to contain at least 10.0% void space
# The void calculation uses a probe of radius 1.32A, grid spacing 0.4
# The framework is charged, counterions have been retained in the structure
#
###############################################################################

data_ALECAY
_chemical_formula_moiety         '(C248 H128 O60 U8 8-)n'
_symmetry_cell_setting           triclinic
_symmetry_space_group_name_H-M   'P 1'
_symmetry_Int_Tables_number      1
_space_group_name_Hall           'P 1'
loop_
_symmetry_equiv_pos_site_id
_symmetry_equiv_pos_as_xyz
1 x,y,z
_cell_length_a                   20.471(3)
_cell_length_b                   20.471(3)
_cell_length_c                   57.179(13)
_cell_angle_alpha                90
_cell_angle_beta                 90
_cell_angle_gamma                90
_cell_volume                     23961.5
loop_
_atom_site_label
_atom_site_type_symbol
_atom_site_fract_x
_atom_site_fract_y
_atom_site_fract_z
O10 O 0.0228(4) 0.7355(6) 0.9514(2)
U4 U 0.08424(3) 0.79696(4) 0.92161(2)
O4 O 0.7355(6) 0.0228(4) 0.0486(2)
U6 U 0.79696(4) 0.08424(3) 0.07839(2)
U1 U 0.29696(4) 0.41576(3) 0.17161(2)
O1 O 0.3884(6) 0.4675(5) 0.1518(2)
O2 O 0.3419(6) 0.3877(4) 0.19023(18)
O3 O 0.2425(6) 0.4464(5) 0.1510(2)
O5 O 0.7615(7) 0.1965(6) 0.0887(2)
O6 O 0.8210(6) 0.9752(5) 0.0646(2)
O7 O 0.3572(6) 0.3675(5) 0.1395(2)
O8 O 0.7135(8) 0.1466(6) 0.05908(19)
C1 C 0.5327(7) 0.5359(6) 0.0450(3)
H1 H 0.5028 0.5629 0.0533
C2 C 0.6220(9) 0.4561(7) 0.0210(3)
H2 H 0.6582 0.4342 0.0141
C3 C 0.6919(8) 0.7302(7) 0.0073(2)
C4 C 0.6250(6) 0.7175(6) 0.0126(3)
H3 H 0.5948 0.7482 0.0187
C5 C 0.4827(8) 0.3986(5) 0.0804(3)
H4 H 0.4851 0.3649 0.0691
C6 C 0.5929(7) 0.4333(7) 0.0418(3)
C7 C 0.7128(7) 0.7940(6) 0.0172(2)
C8 C 0.5533(8) 0.4715(6) 0.0557(3)
C9 C 0.6396(6) 0.2583(7) 0.0456(2)
H5 H 0.6298 0.2196 0.0372
C10 C 0.7893(9) 0.8551(8) 0.0411(3)
H6 H 0.8250 0.8551 0.0518
C11 C 0.5552(8) 0.5560(6) 0.0242(3)
C12 C 0.6846(7) 0.3142(7) 0.0803(3)
H7 H 0.7106 0.3129 0.0940
C13 C 0.7718(7) 0.7923(6) 0.0292(3)
H8 H 0.7987 0.7546 0.0297
C14 C 0.5395(6) 0.6196(5) 0.0101(2)
H9 H 0.5103 0.6499 0.0190
C15 C 0.6996(7) 0.9061(7) 0.0246(3)
H10 H 0.6736 0.9444 0.0234
C16 C 0.6776(9) 0.8508(7) 0.0133(3)
H11 H 0.6403 0.8516 0.0034
C17 C 0.7578(8) 0.9101(8) 0.0376(3)
C18 C 0.4401(9) 0.4315(8) 0.1172(3)
C19 C 0.6770(7) 0.2565(7) 0.0663(2)
C20 C 0.6105(5) 0.6485(5) 0.0068(2)
C21 C 0.4775(11) 0.4903(10) 0.1164(3)
H12 H 0.4800 0.5199 0.1292
C22 C 0.3945(9) 0.4150(9) 0.1389(3)
C23 C 0.5967(6) 0.5097(6) 0.0113(2)
C24 C 0.4439(8) 0.3883(6) 0.1004(3)
H13 H 0.4198 0.3488 0.1017
C25 C 0.6148(8) 0.3760(6) 0.0533(3)
C26 C 0.7267(11) 0.1968(10) 0.0719(4)
C27 C 0.5197(7) 0.4590(6) 0.0763(3)
C28 C 0.6536(9) 0.3721(7) 0.0736(3)
H14 H 0.6588 0.4099 0.0831
C29 C 0.6187(8) 0.3158(7) 0.0384(3)
H15 H 0.6051 0.3194 0.0226
C30 C 0.5094(8) 0.5002(7) 0.0959(3)
H16 H 0.5281 0.5424 0.0943
C31 C 0.7736(8) 0.9663(6) 0.0504(3)
O18 O 0.2355(6) 0.4772(4) 0.2014(2)
O20 O 0.2615(7) 0.3035(6) 0.1613(2)
O22 O 0.3210(6) 0.5248(5) 0.1854(2)
O24 O 0.2135(8) 0.3534(6) 0.19092(19)
O9 O 0.4675(5) 0.3884(6) 0.8482(2)
O11 O 0.1965(6) 0.7615(7) 0.9113(2)
O12 O 0.9752(5) 0.8210(6) 0.9354(2)
O13 O 0.3675(5) 0.3572(6) 0.8605(2)
O14 O 0.1466(6) 0.7135(8) 0.94092(19)
C32 C 0.5359(6) 0.5327(7) 0.9550(3)
H17 H 0.5629 0.5028 0.9467
C33 C 0.4561(7) 0.6220(9) 0.9790(3)
H18 H 0.4342 0.6582 0.9859
C34 C 0.7302(7) 0.6919(8) 0.9927(2)
C35 C 0.7175(6) 0.6250(6) 0.9874(3)
H19 H 0.7482 0.5948 0.9813
C36 C 0.3986(5) 0.4827(8) 0.9196(3)
H20 H 0.3649 0.4851 0.9309
C37 C 0.4333(7) 0.5929(7) 0.9582(3)
C38 C 0.7940(6) 0.7128(7) 0.9828(2)
C39 C 0.4715(6) 0.5533(8) 0.9443(3)
C40 C 0.2583(7) 0.6396(6) 0.9544(2)
H21 H 0.2196 0.6298 0.9628
C41 C 0.8551(8) 0.7893(9) 0.9589(3)
H22 H 0.8551 0.8250 0.9482
C42 C 0.5560(6) 0.5552(8) 0.9758(3)
C43 C 0.3142(7) 0.6846(7) 0.9197(3)
H23 H 0.3129 0.7106 0.9060
C44 C 0.7923(6) 0.7718(7) 0.9708(3)
H24 H 0.7546 0.7987 0.9703
C45 C 0.6196(5) 0.5395(6) 0.9899(2)
H25 H 0.6499 0.5103 0.9810
C46 C 0.9061(7) 0.6996(7) 0.9754(3)
H26 H 0.9444 0.6736 0.9766
C47 C 0.8508(7) 0.6776(9) 0.9867(3)
H27 H 0.8516 0.6403 0.9966
C48 C 0.9101(8) 0.7578(8) 0.9624(3)
C49 C 0.4315(8) 0.4401(9) 0.8828(3)
C50 C 0.2565(7) 0.6770(7) 0.9337(2)
C51 C 0.6485(5) 0.6105(5) 0.9932(2)
C52 C 0.4903(10) 0.4775(11) 0.8836(3)
H28 H 0.5199 0.4800 0.8708
C53 C 0.4150(9) 0.3945(9) 0.8611(3)
C54 C 0.5097(6) 0.5967(6) 0.9887(2)
C55 C 0.3883(6) 0.4439(8) 0.8996(3)
H29 H 0.3488 0.4198 0.8983
C56 C 0.3760(6) 0.6148(8) 0.9467(3)
C57 C 0.1968(10) 0.7267(11) 0.9281(4)
C58 C 0.4590(6) 0.5197(7) 0.9237(3)
C59 C 0.3721(7) 0.6536(9) 0.9264(3)
H30 H 0.4099 0.6588 0.9169
C60 C 0.3158(7) 0.6187(8) 0.9616(3)
H31 H 0.3194 0.6051 0.9774
C61 C 0.5002(7) 0.5094(8) 0.9041(3)
H32 H 0.5424 0.5281 0.9057
C62 C 0.9663(6) 0.7736(8) 0.9496(3)
U2 U 0.41576(3) 0.29696(4) 0.82839(2)
O15 O 0.3877(4) 0.3419(6) 0.80977(18)
O16 O 0.4464(5) 0.2425(6) 0.8490(2)
O17 O 0.4772(4) 0.2355(6) 0.7986(2)
O19 O 0.3035(6) 0.2615(7) 0.8387(2)
O21 O 0.5248(5) 0.3210(6) 0.8146(2)
O23 O 0.3534(6) 0.2135(8) 0.80908(19)
C2_2 C 0.0439(7) 0.1220(9) 0.7710(3)
H2_2 H 0.0658 0.1582 0.7641
C6_2 C 0.0667(7) 0.0929(7) 0.7918(3)
C8_2 C 0.0285(6) 0.0533(8) 0.8057(3)
C9_2 C 0.2417(7) 0.1396(6) 0.7956(2)
H5_2 H 0.2804 0.1298 0.7872
C12_2 C 0.1858(7) 0.1846(7) 0.8303(3)
H7_2 H 0.1871 0.2106 0.8440
C19_2 C 0.2435(7) 0.1770(7) 0.8163(2)
C25_2 C 0.1240(6) 0.1148(8) 0.8033(3)
C26_2 C 0.3032(10) 0.2267(11) 0.8219(4)
C27_2 C 0.0410(6) 0.0197(7) 0.8263(3)
C28_2 C 0.1279(7) 0.1536(9) 0.8236(3)
H14_2 H 0.0901 0.1588 0.8331
C29_2 C 0.1842(7) 0.1187(8) 0.7884(3)
H15_2 H 0.1806 0.1051 0.7726
H28_2 H 0.0200 0.0199 0.6208
O21_2 O 0.1790(6) 0.0248(5) 0.5646(2)
O1_2 O 0.0325(5) 0.8884(6) 0.9018(2)
O2_2 O 0.1123(4) 0.8419(6) 0.94023(18)
O3_2 O 0.0536(5) 0.7425(6) 0.9010(2)
O7_2 O 0.1325(5) 0.8572(6) 0.8895(2)
C5_2 C 0.1014(5) 0.9827(8) 0.8304(3)
H4_2 H 0.1351 0.9851 0.8191
C18_2 C 0.0685(8) 0.9401(9) 0.8672(3)
C21_2 C 0.0097(10) 0.9775(11) 0.8664(3)
C22_2 C 0.0850(9) 0.8945(9) 0.8889(3)
C24_2 C 0.1117(6) 0.9439(8) 0.8504(3)
H13_2 H 0.1512 0.9198 0.8517
O9_2 O 0.1116(6) 0.9675(5) 0.5982(2)
O13_2 O 0.1428(6) 0.8675(5) 0.6105(2)
C36_2 C 0.0173(8) 0.8986(5) 0.6696(3)
H20_2 H 0.0149 0.8649 0.6809
C49_2 C 0.0599(9) 0.9315(8) 0.6328(3)
C52_2 C 0.0225(11) 0.9903(10) 0.6336(3)
C53_2 C 0.1055(9) 0.9150(9) 0.6111(3)
C55_2 C 0.0561(8) 0.8883(6) 0.6496(3)
H29_2 H 0.0802 0.8488 0.6483
U2_2 U 0.20304(4) 0.91576(3) 0.57839(2)
O15_2 O 0.1581(6) 0.8877(4) 0.55977(18)
O16_2 O 0.2575(6) 0.9464(5) 0.5990(2)
O17_2 O 0.2645(6) 0.9772(4) 0.5486(2)
O19_2 O 0.2385(7) 0.8035(6) 0.5887(2)
O23_2 O 0.2865(8) 0.8534(6) 0.55908(19)
C1_2 C 0.9641(6) 0.0327(7) 0.7950(3)
H1_2 H 0.9371 0.0028 0.8033
C3_2 C 0.7698(7) 0.1919(8) 0.7573(2)
C4_2 C 0.7825(6) 0.1250(6) 0.7626(3)
H3_2 H 0.7518 0.0948 0.7687
C7_2 C 0.7060(6) 0.2128(7) 0.7672(2)
C10_2 C 0.6449(8) 0.2893(9) 0.7911(3)
H6_2 H 0.6449 0.3250 0.8018
C11_2 C 0.9440(6) 0.0552(8) 0.7742(3)
C13_2 C 0.7077(6) 0.2718(7) 0.7792(3)
H8_2 H 0.7454 0.2987 0.7797
C14_2 C 0.8804(5) 0.0395(6) 0.7601(2)
H9_2 H 0.8501 0.0103 0.7690
C15_2 C 0.5939(7) 0.1996(7) 0.7746(3)
H10_2 H 0.5556 0.1736 0.7734
C16_2 C 0.6492(7) 0.1776(9) 0.7633(3)
H11_2 H 0.6484 0.1403 0.7534
C17_2 C 0.5899(8) 0.2578(8) 0.7876(3)
C20_2 C 0.8515(5) 0.1105(5) 0.7568(2)
C23_2 C 0.9903(6) 0.0967(6) 0.7613(2)
C30_2 C 0.9998(7) 0.0094(8) 0.8459(3)
H16_2 H 0.9576 0.0281 0.8443
C31_2 C 0.5337(6) 0.2736(8) 0.8004(3)
O10_2 O 0.7645(6) 0.5228(4) 0.7014(2)
O12_2 O 0.6790(6) 0.4752(5) 0.6854(2)
C32_2 C 0.9673(7) 0.0359(6) 0.7050(3)
H17_2 H 0.9972 0.0629 0.6967
C34_2 C 0.8081(8) 0.2302(7) 0.7427(2)
C35_2 C 0.8750(6) 0.2175(6) 0.7374(3)
H19_2 H 0.9052 0.2482 0.7313
C38_2 C 0.7872(7) 0.2940(6) 0.7328(2)
C41_2 C 0.7107(9) 0.3551(8) 0.7089(3)
H22_2 H 0.6750 0.3551 0.6982
C42_2 C 0.9448(8) 0.0560(6) 0.7258(3)
C44_2 C 0.7282(7) 0.2923(6) 0.7208(3)
H24_2 H 0.7013 0.2546 0.7203
C45_2 C 0.9605(6) 0.1196(5) 0.7399(2)
H25_2 H 0.9897 0.1499 0.7310
C46_2 C 0.8004(7) 0.4061(7) 0.7254(3)
H26_2 H 0.8264 0.4444 0.7266
C47_2 C 0.8224(9) 0.3508(7) 0.7367(3)
H27_2 H 0.8597 0.3516 0.7466
C48_2 C 0.7422(8) 0.4101(8) 0.7124(3)
C51_2 C 0.8895(5) 0.1485(5) 0.7432(2)
C54_2 C 0.9033(6) 0.0097(6) 0.7387(2)
C61_2 C 0.9906(8) 0.0002(7) 0.6541(3)
H32_2 H 0.9719 0.0424 0.6557
C62_2 C 0.7264(8) 0.4663(6) 0.6996(3)
U4_2 U 0.70304(4) 0.58424(3) 0.67161(2)
H12_2 H 0.9801 0.9800 0.8792
O11_2 O 0.7385(7) 0.6965(6) 0.6613(2)
O14_2 O 0.7865(8) 0.6466(6) 0.69092(19)
C33_2 C 0.8780(9) 0.9561(7) 0.7290(3)
H18_2 H 0.8418 0.9342 0.7359
C37_2 C 0.9071(7) 0.9333(7) 0.7082(3)
C39_2 C 0.9467(8) 0.9715(6) 0.6943(3)
C40_2 C 0.8604(6) 0.7583(7) 0.7044(2)
H21_2 H 0.8702 0.7196 0.7128
C43_2 C 0.8154(7) 0.8142(7) 0.6697(3)
H23_2 H 0.7894 0.8129 0.6560
C50_2 C 0.8230(7) 0.7565(7) 0.6837(2)
C56_2 C 0.8852(8) 0.8760(6) 0.6967(3)
C57_2 C 0.7733(11) 0.6968(10) 0.6781(4)
C58_2 C 0.9803(7) 0.9590(6) 0.6737(3)
C59_2 C 0.8464(9) 0.8721(7) 0.6764(3)
H30_2 H 0.8412 0.9099 0.6669
C60_2 C 0.8813(8) 0.8158(7) 0.7116(3)
H31_2 H 0.8949 0.8194 0.7274
O1_3 O 0.6116(6) 0.5325(5) 0.6518(2)
O2_3 O 0.6581(6) 0.6123(4) 0.69023(18)
O3_3 O 0.7575(6) 0.5536(5) 0.6510(2)
O7_3 O 0.6428(6) 0.6325(5) 0.6395(2)
C1_3 C 0.4673(7) 0.4641(6) 0.5450(3)
H1_3 H 0.4972 0.4371 0.5533
C2_3 C 0.3780(9) 0.5439(7) 0.5210(3)
H2_3 H 0.3418 0.5658 0.5141
C3_3 C 0.3081(8) 0.2698(7) 0.5073(2)
C4_3 C 0.3750(6) 0.2825(6) 0.5126(3)
H3_3 H 0.4052 0.2518 0.5187
C5_3 C 0.5173(8) 0.6014(5) 0.5804(3)
H4_3 H 0.5149 0.6351 0.5691
C6_3 C 0.4071(7) 0.5667(7) 0.5418(3)
C7_3 C 0.2872(7) 0.2060(6) 0.5172(2)
C8_3 C 0.4467(8) 0.5285(6) 0.5557(3)
C9_3 C 0.3604(6) 0.7417(7) 0.5456(2)
H5_3 H 0.3702 0.7804 0.5372
C10_3 C 0.2107(9) 0.1449(8) 0.5411(3)
H6_3 H 0.1750 0.1449 0.5518
C11_3 C 0.4448(8) 0.4440(6) 0.5242(3)
C12_3 C 0.3154(7) 0.6858(7) 0.5803(3)
H7_3 H 0.2894 0.6871 0.5940
C13_3 C 0.2282(7) 0.2077(6) 0.5292(3)
H8_3 H 0.2013 0.2454 0.5297
C14_3 C 0.4605(6) 0.3804(5) 0.5101(2)
H9_3 H 0.4897 0.3501 0.5190
C15_3 C 0.3004(7) 0.0939(7) 0.5246(3)
H10_3 H 0.3264 0.0556 0.5234
C16_3 C 0.3224(9) 0.1492(7) 0.5133(3)
H11_3 H 0.3597 0.1484 0.5034
C17_3 C 0.2422(8) 0.0899(8) 0.5376(3)
C18_3 C 0.5599(9) 0.5685(8) 0.6172(3)
C19_3 C 0.3230(7) 0.7435(7) 0.5663(2)
C20_3 C 0.3895(5) 0.3515(5) 0.5068(2)
C21_3 C 0.5225(11) 0.5097(10) 0.6164(3)
H12_3 H 0.5200 0.4801 0.6292
C22_3 C 0.6055(9) 0.5850(9) 0.6389(3)
C23_3 C 0.4033(6) 0.4903(6) 0.5113(2)
C24_3 C 0.5561(8) 0.6117(6) 0.6004(3)
H13_3 H 0.5802 0.6512 0.6017
C25_3 C 0.3852(8) 0.6240(6) 0.5533(3)
C26_3 C 0.2733(11) 0.8032(10) 0.5719(4)
C27_3 C 0.4803(7) 0.5410(6) 0.5763(3)
C28_3 C 0.3464(9) 0.6279(7) 0.5736(3)
H14_3 H 0.3412 0.5901 0.5831
C29_3 C 0.3813(8) 0.6842(7) 0.5384(3)
H15_3 H 0.3949 0.6806 0.5226
C30_3 C 0.4906(8) 0.4998(7) 0.5959(3)
H16_3 H 0.4719 0.4576 0.5943
C31_3 C 0.2264(8) 0.0337(6) 0.5504(3)
O9_3 O 0.5325(5) 0.6116(6) 0.3482(2)
O11_3 O 0.8035(6) 0.2385(7) 0.4113(2)
O12_3 O 0.0248(5) 0.1790(6) 0.4354(2)
O13_3 O 0.6325(5) 0.6428(6) 0.3605(2)
O14_3 O 0.8534(6) 0.2865(8) 0.44092(19)
C32_3 C 0.4641(6) 0.4673(7) 0.4550(3)
H17_3 H 0.4371 0.4972 0.4467
C33_3 C 0.5439(7) 0.3780(9) 0.4790(3)
H18_3 H 0.5658 0.3418 0.4859
C34_3 C 0.2698(7) 0.3081(8) 0.4927(2)
C35_3 C 0.2825(6) 0.3750(6) 0.4874(3)
H19_3 H 0.2518 0.4052 0.4813
C36_3 C 0.6014(5) 0.5173(8) 0.4196(3)
H20_3 H 0.6351 0.5149 0.4309
C37_3 C 0.5667(7) 0.4071(7) 0.4582(3)
C38_3 C 0.2060(6) 0.2872(7) 0.4828(2)
C39_3 C 0.5285(6) 0.4467(8) 0.4443(3)
C40_3 C 0.7417(7) 0.3604(6) 0.4544(2)
H21_3 H 0.7804 0.3702 0.4628
C41_3 C 0.1449(8) 0.2107(9) 0.4589(3)
H22_3 H 0.1449 0.1750 0.4482
C42_3 C 0.4440(6) 0.4448(8) 0.4758(3)
C43_3 C 0.6858(7) 0.3154(7) 0.4197(3)
H23_3 H 0.6871 0.2894 0.4060
C44_3 C 0.2077(6) 0.2282(7) 0.4708(3)
H24_3 H 0.2454 0.2013 0.4703
C45_3 C 0.3804(5) 0.4605(6) 0.4899(2)
H25_3 H 0.3501 0.4897 0.4810
C46_3 C 0.0939(7) 0.3004(7) 0.4754(3)
H26_3 H 0.0556 0.3264 0.4766
C47_3 C 0.1492(7) 0.3224(9) 0.4867(3)
H27_3 H 0.1484 0.3597 0.4966
C48_3 C 0.0899(8) 0.2422(8) 0.4624(3)
C49_3 C 0.5685(8) 0.5599(9) 0.3828(3)
C50_3 C 0.7435(7) 0.3230(7) 0.4337(2)
C51_3 C 0.3515(5) 0.3895(5) 0.4932(2)
C52_3 C 0.5097(10) 0.5225(11) 0.3836(3)
H28_3 H 0.4801 0.5200 0.3708
C53_3 C 0.5850(9) 0.6055(9) 0.3611(3)
C54_3 C 0.4903(6) 0.4033(6) 0.4887(2)
C55_3 C 0.6117(6) 0.5561(8) 0.3996(3)
H29_3 H 0.6512 0.5802 0.3983
C56_3 C 0.6240(6) 0.3852(8) 0.4467(3)
C57_3 C 0.8032(10) 0.2733(11) 0.4281(4)
C58_3 C 0.5410(6) 0.4803(7) 0.4237(3)
C59_3 C 0.6279(7) 0.3464(9) 0.4264(3)
H30_3 H 0.5901 0.3412 0.4169
C60_3 C 0.6842(7) 0.3813(8) 0.4616(3)
H31_3 H 0.6806 0.3949 0.4774
C61_3 C 0.4998(7) 0.4906(8) 0.4041(3)
H32_3 H 0.4576 0.4719 0.4057
C62_3 C 0.0337(6) 0.2264(8) 0.4496(3)
U2_3 U 0.58424(3) 0.70304(4) 0.32839(2)
O15_3 O 0.6123(4) 0.6581(6) 0.30977(18)
O16_3 O 0.5536(5) 0.7575(6) 0.3490(2)
U3 U 0.91576(3) 0.20304(4) 0.42161(2)
O17_3 O 0.5228(4) 0.7645(6) 0.2986(2)
O19_3 O 0.6965(6) 0.7385(7) 0.3387(2)
O21_3 O 0.4752(5) 0.6790(6) 0.3146(2)
O23_3 O 0.6466(6) 0.7865(8) 0.30908(19)
O10_3 O 0.9772(4) 0.2645(6) 0.4514(2)
H12_4 H 0.0199 0.0200 0.3792
C33_4 C 0.1220(9) 0.0439(7) 0.2290(3)
H18_4 H 0.1582 0.0658 0.2359
C37_4 C 0.0929(7) 0.0667(7) 0.2082(3)
C39_4 C 0.0533(8) 0.0285(6) 0.1943(3)
C40_4 C 0.1396(6) 0.2417(7) 0.2044(2)
H21_4 H 0.1298 0.2804 0.2128
C43_4 C 0.1846(7) 0.1858(7) 0.1697(3)
H23_4 H 0.2106 0.1871 0.1560
C50_4 C 0.1770(7) 0.2435(7) 0.1837(2)
C56_4 C 0.1148(8) 0.1240(6) 0.1967(3)
C57_4 C 0.2267(11) 0.3032(10) 0.1781(4)
C58_4 C 0.0197(7) 0.0410(6) 0.1737(3)
C59_4 C 0.1536(9) 0.1279(7) 0.1764(3)
H30_4 H 0.1588 0.0901 0.1669
C60_4 C 0.1187(8) 0.1842(7) 0.2116(3)
H31_4 H 0.1051 0.1806 0.2274
C1_4 C 0.0359(6) 0.9673(7) 0.2950(3)
H1_4 H 0.0629 0.9972 0.3033
C3_4 C 0.2302(7) 0.8081(8) 0.2573(2)
C4_4 C 0.2175(6) 0.8750(6) 0.2626(3)
H3_4 H 0.2482 0.9052 0.2687
C7_4 C 0.2940(6) 0.7872(7) 0.2672(2)
C10_4 C 0.3551(8) 0.7107(9) 0.2911(3)
H6_4 H 0.3551 0.6750 0.3018
C11_4 C 0.0560(6) 0.9448(8) 0.2742(3)
C13_4 C 0.2923(6) 0.7282(7) 0.2792(3)
H8_4 H 0.2546 0.7013 0.2797
C14_4 C 0.1196(5) 0.9605(6) 0.2601(2)
H9_4 H 0.1499 0.9897 0.2690
C15_4 C 0.4061(7) 0.8004(7) 0.2746(3)
H10_4 H 0.4444 0.8264 0.2734
C16_4 C 0.3508(7) 0.8224(9) 0.2633(3)
H11_4 H 0.3516 0.8597 0.2534
C17_4 C 0.4101(8) 0.7422(8) 0.2876(3)
C20_4 C 0.1485(5) 0.8895(5) 0.2568(2)
C23_4 C 0.0097(6) 0.9033(6) 0.2613(2)
C30_4 C 0.0002(7) 0.9906(8) 0.3459(3)
H16_4 H 0.0424 0.9719 0.3443
C31_4 C 0.4663(6) 0.7264(8) 0.3004(3)
C32_4 C 0.0327(7) 0.9641(6) 0.2050(3)
H17_4 H 0.0028 0.9371 0.1967
C34_4 C 0.1919(8) 0.7698(7) 0.2427(2)
C35_4 C 0.1250(6) 0.7825(6) 0.2374(3)
H19_4 H 0.0948 0.7518 0.2313
C38_4 C 0.2128(7) 0.7060(6) 0.2328(2)
C41_4 C 0.2893(9) 0.6449(8) 0.2089(3)
H22_4 H 0.3250 0.6449 0.1982
C42_4 C 0.0552(8) 0.9440(6) 0.2258(3)
C44_4 C 0.2718(7) 0.7077(6) 0.2208(3)
H24_4 H 0.2987 0.7454 0.2203
C45_4 C 0.0395(6) 0.8804(5) 0.2399(2)
H25_4 H 0.0103 0.8501 0.2310
C46_4 C 0.1996(7) 0.5939(7) 0.2254(3)
H26_4 H 0.1736 0.5556 0.2266
C47_4 C 0.1776(9) 0.6492(7) 0.2367(3)
H27_4 H 0.1403 0.6484 0.2466
C48_4 C 0.2578(8) 0.5899(8) 0.2124(3)
C51_4 C 0.1105(5) 0.8515(5) 0.2432(2)
C54_4 C 0.0967(6) 0.9903(6) 0.2387(2)
C61_4 C 0.0094(8) 0.9998(7) 0.1541(3)
H32_4 H 0.0281 0.9576 0.1557
C62_4 C 0.2736(8) 0.5337(6) 0.1996(3)
O1_4 O 0.9675(5) 0.1116(6) 0.4018(2)
O2_4 O 0.8877(4) 0.1581(6) 0.44023(18)
O3_4 O 0.9464(5) 0.2575(6) 0.4010(2)
O7_4 O 0.8675(5) 0.1428(6) 0.3895(2)
C5_4 C 0.8986(5) 0.0173(8) 0.3304(3)
H4_4 H 0.8649 0.0149 0.3191
C18_4 C 0.9315(8) 0.0599(9) 0.3672(3)
C21_4 C 0.9903(10) 0.0225(11) 0.3664(3)
C22_4 C 0.9150(9) 0.1055(9) 0.3889(3)
C24_4 C 0.8883(6) 0.0561(8) 0.3504(3)
H13_4 H 0.8488 0.0802 0.3517
O9_4 O 0.8884(6) 0.0325(5) 0.0982(2)
O13_4 O 0.8572(6) 0.1325(5) 0.1105(2)
C36_4 C 0.9827(8) 0.1014(5) 0.1696(3)
H20_4 H 0.9851 0.1351 0.1809
C49_4 C 0.9401(9) 0.0685(8) 0.1328(3)
C52_4 C 0.9775(11) 0.0097(10) 0.1336(3)
C53_4 C 0.8945(9) 0.0850(9) 0.1111(3)
C55_4 C 0.9439(8) 0.1117(6) 0.1496(3)
H29_4 H 0.9198 0.1512 0.1483
O15_4 O 0.8419(6) 0.1123(4) 0.05977(18)
O16_4 O 0.7425(6) 0.0536(5) 0.0990(2)
C2_4 C 0.9561(7) 0.8780(9) 0.2710(3)
H2_4 H 0.9342 0.8418 0.2641
C6_4 C 0.9333(7) 0.9071(7) 0.2918(3)
C8_4 C 0.9715(6) 0.9467(8) 0.3057(3)
C9_4 C 0.7583(7) 0.8604(6) 0.2956(2)
H5_4 H 0.7196 0.8702 0.2872
C12_4 C 0.8142(7) 0.8154(7) 0.3303(3)
H7_4 H 0.8129 0.7894 0.3440
C19_4 C 0.7565(7) 0.8230(7) 0.3163(2)
C25_4 C 0.8760(6) 0.8852(8) 0.3033(3)
C26_4 C 0.6968(10) 0.7733(11) 0.3219(4)
C27_4 C 0.9590(6) 0.9803(7) 0.3263(3)
C28_4 C 0.8721(7) 0.8464(9) 0.3236(3)
H14_4 H 0.9099 0.8412 0.3331
C29_4 C 0.8158(7) 0.8813(8) 0.2884(3)
H15_4 H 0.8194 0.8949 0.2726
H28_4 H 0.9800 0.9801 0.1208
loop_
_geom_bond_atom_site_label_1
_geom_bond_atom_site_label_2
_geom_bond_site_symmetry_1
_geom_bond_site_symmetry_2
U4 O10 1_555 1_555
U6 O4 1_555 1_555
U1 O1 1_555 1_555
O1 C22 1_555 1_555
O2 U1 1_555 1_555
O3 U1 1_555 1_555
O5 C26 1_555 1_555
O6 C31 1_555 1_555
O7 U1 1_555 1_555
O8 C26 1_555 1_555
C1 H1 1_555 1_555
C2 H2 1_555 1_555
C3 C4 1_555 1_555
C4 H3 1_555 1_555
C5 H4 1_555 1_555
C6 C2 1_555 1_555
C7 C3 1_555 1_555
C8 C1 1_555 1_555
C9 H5 1_555 1_555
C10 H6 1_555 1_555
C11 C1 1_555 1_555
C12 H7 1_555 1_555
C13 C7 1_555 1_555
H8 C13 1_555 1_555
C14 C11 1_555 1_555
H9 C14 1_555 1_555
C15 H10 1_555 1_555
C16 C7 1_555 1_555
H11 C16 1_555 1_555
C17 C10 1_555 1_555
C18 C21 1_555 1_555
C19 C9 1_555 1_555
C20 C4 1_555 1_555
C21 H12 1_555 1_555
C22 O7 1_555 1_555
C23 C2 1_555 1_555
C24 C5 1_555 1_555
H13 C24 1_555 1_555
C25 C6 1_555 1_555
C26 C19 1_555 1_555
C27 C5 1_555 1_555
C28 C12 1_555 1_555
H14 C28 1_555 1_555
C29 C9 1_555 1_555
H15 C29 1_555 1_555
C30 C21 1_555 1_555
H16 C30 1_555 1_555
C31 C17 1_555 1_555
U6 O5 1_555 1_555
O18 U1 1_555 1_555
O20 U1 1_555 1_555
O22 U1 1_555 1_555
O24 U1 1_555 1_555
O8 U6 1_555 1_555
C6 C8 1_555 1_555
C8 C27 1_555 1_555
C10 C13 1_555 1_555
C11 C23 1_555 1_555
C12 C19 1_555 1_555
C14 C20 1_555 1_555
C15 C16 1_555 1_555
C15 C17 1_555 1_555
C18 C22 1_555 1_555
C18 C24 1_555 1_555
C25 C28 1_555 1_555
C25 C29 1_555 1_555
C27 C30 1_555 1_555
O9 C53 1_555 1_555
O11 C57 1_555 1_555
O12 C62 1_555 1_555
O13 C53 1_555 1_555
O14 C57 1_555 1_555
C32 H17 1_555 1_555
C33 H18 1_555 1_555
C35 C34 1_555 1_555
H19 C35 1_555 1_555
C36 H20 1_555 1_555
C37 C33 1_555 1_555
C38 C34 1_555 1_555
C39 C32 1_555 1_555
C40 H21 1_555 1_555
C41 H22 1_555 1_555
C42 C32 1_555 1_555
C43 H23 1_555 1_555
C44 C38 1_555 1_555
H24 C44 1_555 1_555
H25 C45 1_555 1_555
C46 H26 1_555 1_555
C47 C38 1_555 1_555
H27 C47 1_555 1_555
C48 C41 1_555 1_555
C49 C52 1_555 1_555
C50 C40 1_555 1_555
C52 H28 1_555 1_555
C53 C49 1_555 1_555
C55 C36 1_555 1_555
H29 C55 1_555 1_555
C56 C37 1_555 1_555
C57 C50 1_555 1_555
C58 C36 1_555 1_555
C59 C43 1_555 1_555
H30 C59 1_555 1_555
C60 C40 1_555 1_555
H31 C60 1_555 1_555
C61 C52 1_555 1_555
H32 C61 1_555 1_555
C62 C48 1_555 1_555
U2 O9 1_555 1_555
O15 U2 1_555 1_555
O16 U2 1_555 1_555
U4 O11 1_555 1_555
O17 U2 1_555 1_555
O19 U2 1_555 1_555
O21 U2 1_555 1_555
O23 U2 1_555 1_555
O13 U2 1_555 1_555
O14 U4 1_555 1_555
C33 C54 1_555 1_555
C35 C51 1_555 1_555
C37 C39 1_555 1_555
C39 C58 1_555 1_555
C41 C44 1_555 1_555
C42 C45 1_555 1_555
C42 C54 1_555 1_555
C43 C50 1_555 1_555
C45 C51 1_555 1_555
C46 C47 1_555 1_555
C46 C48 1_555 1_555
C49 C55 1_555 1_555
C56 C59 1_555 1_555
C56 C60 1_555 1_555
C58 C61 1_555 1_555
O19 C26_2 1_555 1_555
O23 C26_2 1_555 1_555
C2_2 H2_2 1_555 1_555
C6_2 C2_2 1_555 1_555
C9_2 H5_2 1_555 1_555
C12_2 H7_2 1_555 1_555
C19_2 C9_2 1_555 1_555
C25_2 C6_2 1_555 1_555
C26_2 C19_2 1_555 1_555
C28_2 C12_2 1_555 1_555
H14_2 C28_2 1_555 1_555
C29_2 C9_2 1_555 1_555
H15_2 C29_2 1_555 1_555
C6_2 C8_2 1_555 1_555
C8_2 C27_2 1_555 1_555
C12_2 C19_2 1_555 1_555
C25_2 C28_2 1_555 1_555
C25_2 C29_2 1_555 1_555
U4 O1_2 1_555 1_555
O1_2 C22_2 1_555 1_555
O2_2 U4 1_555 1_555
O3_2 U4 1_555 1_555
O7_2 U4 1_555 1_555
C5_2 H4_2 1_555 1_555
C18_2 C21_2 1_555 1_555
C22_2 O7_2 1_555 1_555
C24_2 C5_2 1_555 1_555
H13_2 C24_2 1_555 1_555
O9_2 C53_2 1_555 1_555
O13_2 C53_2 1_555 1_555
C36_2 H20_2 1_555 1_555
C49_2 C52_2 1_555 1_555
C53_2 C49_2 1_555 1_555
C55_2 C36_2 1_555 1_555
H29_2 C55_2 1_555 1_555
U2_2 O9_2 1_555 1_555
O15_2 U2_2 1_555 1_555
O16_2 U2_2 1_555 1_555
O17_2 U2_2 1_555 1_555
O19_2 U2_2 1_555 1_555
O23_2 U2_2 1_555 1_555
C18_2 C22_2 1_555 1_555
C18_2 C24_2 1_555 1_555
O13_2 U2_2 1_555 1_555
C49_2 C55_2 1_555 1_555
O17 C31_2 1_555 1_555
O21 C31_2 1_555 1_555
C1_2 H1_2 1_555 1_555
C3_2 C4_2 1_555 1_555
C4_2 H3_2 1_555 1_555
C7_2 C3_2 1_555 1_555
C10_2 H6_2 1_555 1_555
C11_2 C1_2 1_555 1_555
C13_2 C7_2 1_555 1_555
H8_2 C13_2 1_555 1_555
C14_2 C11_2 1_555 1_555
H9_2 C14_2 1_555 1_555
C15_2 H10_2 1_555 1_555
C16_2 C7_2 1_555 1_555
H11_2 C16_2 1_555 1_555
C17_2 C10_2 1_555 1_555
C20_2 C4_2 1_555 1_555
H16_2 C30_2 1_555 1_555
C31_2 C17_2 1_555 1_555
O10_2 C62_2 1_555 1_555
O12_2 C62_2 1_555 1_555
C32_2 H17_2 1_555 1_555
C34_2 C3_2 1_555 1_555
C35_2 C34_2 1_555 1_555
H19_2 C35_2 1_555 1_555
C38_2 C34_2 1_555 1_555
C41_2 H22_2 1_555 1_555
C42_2 C32_2 1_555 1_555
C44_2 C38_2 1_555 1_555
H24_2 C44_2 1_555 1_555
C45_2 C23_2 1_555 1_555
H25_2 C45_2 1_555 1_555
C46_2 H26_2 1_555 1_555
C47_2 C38_2 1_555 1_555
H27_2 C47_2 1_555 1_555
C48_2 C41_2 1_555 1_555
C51_2 C20_2 1_555 1_555
C54_2 C14_2 1_555 1_555
H32_2 C61_2 1_555 1_555
C62_2 C48_2 1_555 1_555
U4_2 O10_2 1_555 1_555
C10_2 C13_2 1_555 1_555
C11_2 C23_2 1_555 1_555
C14_2 C20_2 1_555 1_555
C15_2 C16_2 1_555 1_555
C15_2 C17_2 1_555 1_555
O12_2 U4_2 1_555 1_555
C35_2 C51_2 1_555 1_555
C41_2 C44_2 1_555 1_555
C42_2 C45_2 1_555 1_555
C42_2 C54_2 1_555 1_555
C45_2 C51_2 1_555 1_555
C46_2 C47_2 1_555 1_555
C46_2 C48_2 1_555 1_555
O11_2 C57_2 1_555 1_555
O14_2 C57_2 1_555 1_555
C33_2 H18_2 1_555 1_555
C37_2 C33_2 1_555 1_555
C40_2 H21_2 1_555 1_555
C43_2 H23_2 1_555 1_555
C50_2 C40_2 1_555 1_555
C56_2 C37_2 1_555 1_555
C57_2 C50_2 1_555 1_555
C59_2 C43_2 1_555 1_555
H30_2 C59_2 1_555 1_555
C60_2 C40_2 1_555 1_555
H31_2 C60_2 1_555 1_555
U4_2 O11_2 1_555 1_555
O14_2 U4_2 1_555 1_555
C37_2 C39_2 1_555 1_555
C39_2 C58_2 1_555 1_555
C43_2 C50_2 1_555 1_555
C56_2 C59_2 1_555 1_555
C56_2 C60_2 1_555 1_555
U4_2 O1_3 1_555 1_555
O1_3 C22_3 1_555 1_555
O2_3 U4_2 1_555 1_555
O3_3 U4_2 1_555 1_555
O19_2 C26_3 1_555 1_555
O21_2 C31_3 1_555 1_555
O7_3 U4_2 1_555 1_555
O23_2 C26_3 1_555 1_555
C1_3 H1_3 1_555 1_555
C2_3 H2_3 1_555 1_555
C3_3 C4_3 1_555 1_555
C4_3 H3_3 1_555 1_555
C5_3 H4_3 1_555 1_555
C6_3 C2_3 1_555 1_555
C7_3 C3_3 1_555 1_555
C8_3 C1_3 1_555 1_555
C9_3 H5_3 1_555 1_555
C10_3 H6_3 1_555 1_555
C11_3 C1_3 1_555 1_555
C12_3 H7_3 1_555 1_555
C13_3 C7_3 1_555 1_555
H8_3 C13_3 1_555 1_555
C14_3 C11_3 1_555 1_555
H9_3 C14_3 1_555 1_555
C15_3 H10_3 1_555 1_555
C16_3 C7_3 1_555 1_555
H11_3 C16_3 1_555 1_555
C17_3 C10_3 1_555 1_555
C18_3 C21_3 1_555 1_555
C19_3 C9_3 1_555 1_555
C20_3 C4_3 1_555 1_555
C21_3 H12_3 1_555 1_555
C22_3 O7_3 1_555 1_555
C23_3 C2_3 1_555 1_555
C24_3 C5_3 1_555 1_555
H13_3 C24_3 1_555 1_555
C25_3 C6_3 1_555 1_555
C26_3 C19_3 1_555 1_555
C27_3 C5_3 1_555 1_555
C28_3 C12_3 1_555 1_555
H14_3 C28_3 1_555 1_555
C29_3 C9_3 1_555 1_555
H15_3 C29_3 1_555 1_555
C30_3 C21_3 1_555 1_555
H16_3 C30_3 1_555 1_555
C31_3 C17_3 1_555 1_555
O9_3 C53_3 1_555 1_555
O11_3 C57_3 1_555 1_555
O12_3 C62_3 1_555 1_555
O13_3 C53_3 1_555 1_555
O14_3 C57_3 1_555 1_555
C32_3 H17_3 1_555 1_555
C33_3 H18_3 1_555 1_555
C34_3 C3_3 1_555 1_555
C35_3 C34_3 1_555 1_555
H19_3 C35_3 1_555 1_555
C36_3 H20_3 1_555 1_555
C37_3 C33_3 1_555 1_555
C38_3 C34_3 1_555 1_555
C39_3 C32_3 1_555 1_555
C40_3 H21_3 1_555 1_555
C41_3 H22_3 1_555 1_555
C42_3 C32_3 1_555 1_555
C43_3 H23_3 1_555 1_555
C44_3 C38_3 1_555 1_555
H24_3 C44_3 1_555 1_555
C45_3 C23_3 1_555 1_555
H25_3 C45_3 1_555 1_555
C46_3 H26_3 1_555 1_555
C47_3 C38_3 1_555 1_555
H27_3 C47_3 1_555 1_555
C48_3 C41_3 1_555 1_555
C49_3 C52_3 1_555 1_555
C50_3 C40_3 1_555 1_555
C51_3 C20_3 1_555 1_555
C52_3 H28_3 1_555 1_555
C53_3 C49_3 1_555 1_555
C54_3 C14_3 1_555 1_555
C55_3 C36_3 1_555 1_555
H29_3 C55_3 1_555 1_555
C56_3 C37_3 1_555 1_555
C57_3 C50_3 1_555 1_555
C58_3 C36_3 1_555 1_555
C59_3 C43_3 1_555 1_555
H30_3 C59_3 1_555 1_555
C60_3 C40_3 1_555 1_555
H31_3 C60_3 1_555 1_555
C61_3 C52_3 1_555 1_555
H32_3 C61_3 1_555 1_555
C62_3 C48_3 1_555 1_555
U2_3 O9_3 1_555 1_555
O15_3 U2_3 1_555 1_555
O16_3 U2_3 1_555 1_555
U3 O11_3 1_555 1_555
O17_3 U2_3 1_555 1_555
O19_3 U2_3 1_555 1_555
O21_3 U2_3 1_555 1_555
O23_3 U2_3 1_555 1_555
C6_3 C8_3 1_555 1_555
C8_3 C27_3 1_555 1_555
C10_3 C13_3 1_555 1_555
C11_3 C23_3 1_555 1_555
C12_3 C19_3 1_555 1_555
C14_3 C20_3 1_555 1_555
C15_3 C16_3 1_555 1_555
C15_3 C17_3 1_555 1_555
C18_3 C22_3 1_555 1_555
C18_3 C24_3 1_555 1_555
C25_3 C28_3 1_555 1_555
C25_3 C29_3 1_555 1_555
C27_3 C30_3 1_555 1_555
O13_3 U2_3 1_555 1_555
O14_3 U3 1_555 1_555
C33_3 C54_3 1_555 1_555
C35_3 C51_3 1_555 1_555
C37_3 C39_3 1_555 1_555
C39_3 C58_3 1_555 1_555
C41_3 C44_3 1_555 1_555
C42_3 C45_3 1_555 1_555
C42_3 C54_3 1_555 1_555
C43_3 C50_3 1_555 1_555
C45_3 C51_3 1_555 1_555
C46_3 C47_3 1_555 1_555
C46_3 C48_3 1_555 1_555
C49_3 C55_3 1_555 1_555
C56_3 C59_3 1_555 1_555
C56_3 C60_3 1_555 1_555
C58_3 C61_3 1_555 1_555
U3 O10_3 1_555 1_555
O20 C57_4 1_555 1_555
O24 C57_4 1_555 1_555
C33_4 H18_4 1_555 1_555
C37_4 C33_4 1_555 1_555
C40_4 H21_4 1_555 1_555
C43_4 H23_4 1_555 1_555
C50_4 C40_4 1_555 1_555
C56_4 C37_4 1_555 1_555
C57_4 C50_4 1_555 1_555
C59_4 C43_4 1_555 1_555
H30_4 C59_4 1_555 1_555
C60_4 C40_4 1_555 1_555
H31_4 C60_4 1_555 1_555
C37_4 C39_4 1_555 1_555
C39_4 C58_4 1_555 1_555
C43_4 C50_4 1_555 1_555
C56_4 C59_4 1_555 1_555
C56_4 C60_4 1_555 1_555
O17_3 C31_4 1_555 1_555
O21_3 C31_4 1_555 1_555
C1_4 H1_4 1_555 1_555
C3_4 C4_4 1_555 1_555
C4_4 H3_4 1_555 1_555
C7_4 C3_4 1_555 1_555
C10_4 H6_4 1_555 1_555
C11_4 C1_4 1_555 1_555
C13_4 C7_4 1_555 1_555
H8_4 C13_4 1_555 1_555
C14_4 C11_4 1_555 1_555
H9_4 C14_4 1_555 1_555
C15_4 H10_4 1_555 1_555
C16_4 C7_4 1_555 1_555
H11_4 C16_4 1_555 1_555
C17_4 C10_4 1_555 1_555
C20_4 C4_4 1_555 1_555
H16_4 C30_4 1_555 1_555
C31_4 C17_4 1_555 1_555
O18 C62_4 1_555 1_555
O22 C62_4 1_555 1_555
C32_4 H17_4 1_555 1_555
C34_4 C3_4 1_555 1_555
C35_4 C34_4 1_555 1_555
H19_4 C35_4 1_555 1_555
C38_4 C34_4 1_555 1_555
C41_4 H22_4 1_555 1_555
C42_4 C32_4 1_555 1_555
C44_4 C38_4 1_555 1_555
H24_4 C44_4 1_555 1_555
C45_4 C23_4 1_555 1_555
H25_4 C45_4 1_555 1_555
C46_4 H26_4 1_555 1_555
C47_4 C38_4 1_555 1_555
H27_4 C47_4 1_555 1_555
C48_4 C41_4 1_555 1_555
C51_4 C20_4 1_555 1_555
C54_4 C14_4 1_555 1_555
H32_4 C61_4 1_555 1_555
C62_4 C48_4 1_555 1_555
C10_4 C13_4 1_555 1_555
C11_4 C23_4 1_555 1_555
C14_4 C20_4 1_555 1_555
C15_4 C16_4 1_555 1_555
C15_4 C17_4 1_555 1_555
C35_4 C51_4 1_555 1_555
C41_4 C44_4 1_555 1_555
C42_4 C45_4 1_555 1_555
C42_4 C54_4 1_555 1_555
C45_4 C51_4 1_555 1_555
C46_4 C47_4 1_555 1_555
C46_4 C48_4 1_555 1_555
U3 O1_4 1_555 1_555
O1_4 C22_4 1_555 1_555
O2_4 U3 1_555 1_555
O3_4 U3 1_555 1_555
O7_4 U3 1_555 1_555
C5_4 H4_4 1_555 1_555
C18_4 C21_4 1_555 1_555
C22_4 O7_4 1_555 1_555
C24_4 C5_4 1_555 1_555
H13_4 C24_4 1_555 1_555
O9_4 C53_4 1_555 1_555
O13_4 C53_4 1_555 1_555
C36_4 H20_4 1_555 1_555
C49_4 C52_4 1_555 1_555
C53_4 C49_4 1_555 1_555
C55_4 C36_4 1_555 1_555
H29_4 C55_4 1_555 1_555
U6 O9_4 1_555 1_555
O15_4 U6 1_555 1_555
O16_4 U6 1_555 1_555
C18_4 C22_4 1_555 1_555
C18_4 C24_4 1_555 1_555
O13_4 U6 1_555 1_555
C49_4 C55_4 1_555 1_555
O19_3 C26_4 1_555 1_555
O23_3 C26_4 1_555 1_555
C2_4 H2_4 1_555 1_555
C6_4 C2_4 1_555 1_555
C9_4 H5_4 1_555 1_555
C12_4 H7_4 1_555 1_555
C19_4 C9_4 1_555 1_555
C25_4 C6_4 1_555 1_555
C26_4 C19_4 1_555 1_555
C28_4 C12_4 1_555 1_555
H14_4 C28_4 1_555 1_555
C29_4 C9_4 1_555 1_555
H15_4 C29_4 1_555 1_555
C6_4 C8_4 1_555 1_555
C8_4 C27_4 1_555 1_555
C12_4 C19_4 1_555 1_555
C25_4 C28_4 1_555 1_555
C25_4 C29_4 1_555 1_555

#END
