
###############################################################################
#
# This file contains modified crystal structure data generated from the
# MOF subset of the Cambridge Structural Database (CSD) v543 
# hosted by the Cambridge Crystallographic Data Centre (CCDC).
#
# This work is licensed under the Creative Commons
# Attribution-NonCommercial-ShareAlike 4.0 International License.
# To view a copy of this license, visit
# http://creativecommons.org/licenses/by-nc-sa/4.0/
# or send a letter to
# Creative Commons, PO Box 1866, Mountain View, CA 94042, USA.
#
# CIF created using the CSD Python API on 29 September 2022
# The structure has been converted into the P1 space group
# The structure has a 3D framework
# The original CSD entry ALEJIM is in the tetragonal crystal system
# The framework has been calculated to contain at least 10.0% void space
# The void calculation uses a probe of radius 1.32A, grid spacing 0.4
# H atom positions have been added when not included in the experimental data
# Generated hydrogen atom positions removed from atoms on special positions
#
###############################################################################

data_ALEJIM
_chemical_formula_moiety         '(C528 H480 N96 O296 Zn56)n'
_symmetry_cell_setting           triclinic
_symmetry_space_group_name_H-M   'P 1'
_symmetry_Int_Tables_number      1
_space_group_name_Hall           'P 1'
loop_
_symmetry_equiv_pos_site_id
_symmetry_equiv_pos_as_xyz
1 x,y,z
_cell_length_a                   30.5919(7)
_cell_length_b                   30.5919(7)
_cell_length_c                   44.8181(19)
_cell_angle_alpha                90
_cell_angle_beta                 90
_cell_angle_gamma                90
_cell_volume                     41943.7
loop_
_atom_site_label
_atom_site_type_symbol
_atom_site_fract_x
_atom_site_fract_y
_atom_site_fract_z
Zn1 Zn 0.07162(4) 0.34182(3) 0.5000
Zn2 Zn 0.05326(4) 0.24633(3) 0.5000
Zn3 Zn 0.09537(2) 0.84830(2) 0.62816(2)
Zn4 Zn 0.13349(2) 0.78925(2) 0.67398(2)
O1 O 0.11116(18) 0.31593(16) 0.53174(10)
O2 O 0.10038(17) 0.24531(16) 0.53162(10)
O3 O 0.16365(18) 0.15485(16) 0.61041(12)
O4 O 0.20137(18) 0.18644(15) 0.64731(11)
O5 O 0.29543(17) 0.42784(15) 0.80985(13)
O6 O 0.34449(19) 0.45376(16) 0.84158(12)
O7 O 0.37438(19) 0.60899(17) 0.84462(12)
O8 O 0.35251(17) 0.65185(16) 0.80731(12)
O9 O 0.10971(18) 0.74675(17) 0.64305(11)
O10 O 0.07430(17) 0.79151(17) 0.61196(12)
O13 O 0.1680(3) 0.3959(3) 0.5998(2)
O14 O 0.2744(3) 0.4851(2) 0.71751(17)
O15 O 0.1504(4) 0.6124(3) 0.6294(2)
O16 O 0.0923(3) 0.4027(2) 0.5000
O17 O 0.0341(3) 0.1846(3) 0.5000
O18 O 0.1598(2) 0.74855(19) 0.70323(12)
O19 O 0.0710(3) 0.8881(2) 0.59811(15)
N1 N 0.2139(3) 0.3430(2) 0.61793(18)
H1 H 0.2370 0.3384 0.6291
N2 N 0.2239(3) 0.4120(3) 0.6323(2)
H2 H 0.2474 0.4014 0.6411
N3 N 0.2817(3) 0.5537(3) 0.73409(19)
H3 H 0.2761 0.5811 0.7296
N4 N 0.2481(3) 0.5421(3) 0.69097(18)
H4 H 0.2459 0.5708 0.6912
N5 N 0.1443(3) 0.5441(4) 0.6091(2)
H5 H 0.1332 0.5290 0.5942
N6 N 0.0999(3) 0.5987(3) 0.5923(2)
H6 H 0.0942 0.5796 0.5781
C1 C 0.1167(2) 0.27881(19) 0.54158(12)
C2 C 0.1797(2) 0.1875(2) 0.62367(15)
C3 C 0.1465(2) 0.2736(2) 0.56822(14)
C4 C 0.1514(2) 0.2332(2) 0.58161(15)
H7 H 0.1373 0.2083 0.5734
C5 C 0.1773(3) 0.2292(2) 0.60755(16)
C6 C 0.1963(3) 0.2648(3) 0.61948(19)
H8 H 0.2117 0.2626 0.6378
C7 C 0.1931(3) 0.3072(3) 0.60423(19)
C8 C 0.1678(3) 0.3098(3) 0.57872(18)
H9 H 0.1652 0.3368 0.5684
C9 C 0.3195(2) 0.4572(2) 0.82007(16)
C10 C 0.3559(2) 0.6157(2) 0.82092(17)
C11 C 0.3201(3) 0.5003(2) 0.80475(18)
C12 C 0.3395(2) 0.5361(2) 0.81837(17)
H10 H 0.3538 0.5331 0.8371
C13 C 0.3377(3) 0.5773(2) 0.80384(18)
C14 C 0.3201(3) 0.5822(3) 0.77699(19)
H11 H 0.3207 0.6099 0.7675
C15 C 0.3008(3) 0.5467(3) 0.7627(2)
C16 C 0.3006(3) 0.5052(3) 0.7768(2)
H12 H 0.2873 0.4809 0.7673
C17 C 0.0851(2) 0.7544(2) 0.62118(16)
C19 C 0.0729(3) 0.7161(2) 0.60249(17)
C20 C 0.0424(3) 0.7209(2) 0.57920(17)
H13 H 0.0313 0.7491 0.5744
C21 C 0.0289(3) 0.6854(2) 0.56375(17)
C22 C 0.0457(3) 0.6447(3) 0.5698(2)
H14 H 0.0361 0.6199 0.5588
C23 C 0.0767(4) 0.6401(3) 0.5921(2)
C24 C 0.0908(3) 0.6771(3) 0.6086(2)
H15 H 0.1124 0.6743 0.6237
C25 C 0.1992(4) 0.3843(4) 0.6144(3)
C26 C 0.2710(4) 0.5240(4) 0.7128(2)
C27 C 0.1304(5) 0.5876(5) 0.6137(3)
C28 C 0.2129(3) 0.4571(4) 0.63724(19)
C29 C 0.2361(3) 0.4757(3) 0.66132(18)
H16 H 0.2566 0.4593 0.6726
C30 C 0.2271(2) 0.5203(3) 0.66772(19)
C31 C 0.1977(2) 0.5450(4) 0.65185(18)
H17 H 0.1924 0.5748 0.6567
C32 C 0.1755(3) 0.5243(4) 0.6280(2)
C33 C 0.1819(3) 0.4795(4) 0.6194(2)
H18 H 0.1667 0.4662 0.6033
Zn5 Zn 0.15170(2) 0.09537(2) 0.62816(2)
Zn6 Zn 0.21075(2) 0.13349(2) 0.67398(2)
O20 O 0.68407(16) 0.11116(18) 0.53174(10)
O21 O 0.75469(16) 0.10038(17) 0.53162(10)
O22 O 0.84515(16) 0.16365(18) 0.61041(12)
O23 O 0.81356(15) 0.20137(18) 0.64731(11)
O24 O 0.57216(15) 0.29543(17) 0.80985(13)
O25 O 0.54624(16) 0.34449(19) 0.84158(12)
O26 O 0.39101(17) 0.37438(19) 0.84462(12)
O27 O 0.34815(16) 0.35251(17) 0.80731(12)
O28 O 0.25325(17) 0.10971(18) 0.64305(11)
O29 O 0.20849(17) 0.07430(17) 0.61196(12)
O32 O 0.6041(3) 0.1680(3) 0.5998(2)
O33 O 0.5149(2) 0.2744(3) 0.71751(17)
O34 O 0.3876(3) 0.1504(4) 0.6294(2)
O35 O 0.25145(19) 0.1598(2) 0.70323(12)
O36 O 0.1119(2) 0.0710(3) 0.59811(15)
N7 N 0.6570(2) 0.2139(3) 0.61793(18)
H19 H 0.6616 0.2370 0.6291
N8 N 0.5880(3) 0.2239(3) 0.6323(2)
H20 H 0.5986 0.2474 0.6411
N9 N 0.4463(3) 0.2817(3) 0.73409(19)
H21 H 0.4189 0.2761 0.7296
N10 N 0.4579(3) 0.2481(3) 0.69097(18)
H22 H 0.4292 0.2459 0.6912
N11 N 0.4559(4) 0.1443(3) 0.6091(2)
H23 H 0.4710 0.1332 0.5942
N12 N 0.4013(3) 0.0999(3) 0.5923(2)
H24 H 0.4204 0.0942 0.5781
C34 C 0.72119(19) 0.1167(2) 0.54158(12)
C35 C 0.8125(2) 0.1797(2) 0.62367(15)
C36 C 0.7264(2) 0.1465(2) 0.56822(14)
C37 C 0.7668(2) 0.1514(2) 0.58161(15)
H25 H 0.7917 0.1373 0.5734
C38 C 0.7708(2) 0.1773(3) 0.60755(16)
C39 C 0.7352(3) 0.1963(3) 0.61948(19)
H26 H 0.7374 0.2117 0.6378
C40 C 0.6928(3) 0.1931(3) 0.60423(19)
C41 C 0.6902(3) 0.1678(3) 0.57872(18)
H27 H 0.6632 0.1652 0.5684
C42 C 0.5428(2) 0.3195(2) 0.82007(16)
C43 C 0.3843(2) 0.3559(2) 0.82092(17)
C44 C 0.4997(2) 0.3201(3) 0.80475(18)
C45 C 0.4639(2) 0.3395(2) 0.81837(17)
H28 H 0.4669 0.3538 0.8371
C46 C 0.4227(2) 0.3377(3) 0.80384(18)
C47 C 0.4178(3) 0.3201(3) 0.77699(19)
H29 H 0.3901 0.3207 0.7675
C48 C 0.4533(3) 0.3008(3) 0.7627(2)
C49 C 0.4948(3) 0.3006(3) 0.7768(2)
H30 H 0.5191 0.2873 0.7673
C50 C 0.2456(2) 0.0851(2) 0.62118(16)
C52 C 0.2839(2) 0.0729(3) 0.60249(17)
C53 C 0.2791(2) 0.0424(3) 0.57920(17)
H31 H 0.2509 0.0313 0.5744
C54 C 0.3146(2) 0.0289(3) 0.56375(17)
C55 C 0.3553(3) 0.0457(3) 0.5698(2)
H32 H 0.3801 0.0361 0.5588
C56 C 0.3599(3) 0.0767(4) 0.5921(2)
C57 C 0.3229(3) 0.0908(3) 0.6086(2)
H33 H 0.3257 0.1124 0.6237
C58 C 0.6157(4) 0.1992(4) 0.6144(3)
C59 C 0.4760(4) 0.2710(4) 0.7128(2)
C60 C 0.4124(5) 0.1304(5) 0.6137(3)
C61 C 0.5429(4) 0.2129(3) 0.63724(19)
C62 C 0.5243(3) 0.2361(3) 0.66132(18)
H34 H 0.5407 0.2566 0.6726
C63 C 0.4797(3) 0.2271(2) 0.66772(19)
C64 C 0.4550(4) 0.1977(2) 0.65185(18)
H35 H 0.4252 0.1924 0.6567
C65 C 0.4757(4) 0.1755(3) 0.6280(2)
C66 C 0.5205(4) 0.1819(3) 0.6194(2)
H36 H 0.5338 0.1667 0.6033
Zn7 Zn 0.65818(3) 0.07162(4) 0.5000
Zn10 Zn 0.75367(3) 0.05326(4) 0.5000
Zn13 Zn 0.90463(2) 0.15170(2) 0.62816(2)
Zn14 Zn 0.40463(2) 0.65170(2) 0.87184(2)
Zn15 Zn 0.34830(2) 0.40463(2) 0.87184(2)
Zn16 Zn 0.59537(2) 0.34830(2) 0.87184(2)
Zn17 Zn 0.86651(2) 0.21075(2) 0.67398(2)
Zn18 Zn 0.36651(2) 0.71075(2) 0.82602(2)
Zn19 Zn 0.28925(2) 0.36651(2) 0.82602(2)
Zn20 Zn 0.63349(2) 0.28925(2) 0.82602(2)
O37 O 0.11116(18) 0.31593(16) 0.46826(10)
O38 O 0.10038(17) 0.24531(16) 0.46838(10)
O39 O 0.15485(16) 0.83635(18) 0.61041(12)
O40 O 0.18644(15) 0.79863(18) 0.64731(11)
O41 O 0.20457(17) 0.07216(15) 0.69015(13)
O42 O 0.07216(15) 0.79543(17) 0.69015(13)
O43 O 0.15551(19) 0.04624(16) 0.65842(12)
O44 O 0.04624(16) 0.84449(19) 0.65842(12)
O45 O 0.12562(19) 0.89101(17) 0.65538(12)
O46 O 0.10899(17) 0.12562(19) 0.65538(12)
O47 O 0.14749(17) 0.84815(16) 0.69269(12)
O48 O 0.15185(16) 0.14749(17) 0.69269(12)
O49 O 0.01251(18) 0.27151(16) 0.53103(11)
O50 O 0.01251(18) 0.27151(16) 0.46897(11)
O51 O 0.02379(19) 0.34275(17) 0.53072(12)
O52 O 0.02379(19) 0.34275(17) 0.46928(12)
O30 O 0.27151(16) 0.98749(18) 0.53103(11)
O31 O 0.34275(17) 0.97621(19) 0.53072(12)
C51 C 0.3088(2) 0.9938(3) 0.54050(15)
Zn9 Zn 0.34182(3) 0.92838(4) 0.5000
Zn12 Zn 0.24633(3) 0.94674(4) 0.5000
O11 O 0.98749(18) 0.72849(16) 0.53103(11)
O12 O 0.97621(19) 0.65725(17) 0.53072(12)
C18 C 0.9938(3) 0.6912(2) 0.54050(15)
Zn8 Zn 0.92838(4) 0.65818(3) 0.5000
Zn11 Zn 0.94674(4) 0.75367(3) 0.5000
C51_2 C 0.0062(3) 0.3088(2) 0.54050(15)
O16_2 O 0.5973(2) 0.0923(3) 0.5000
O17_2 O 0.8154(3) 0.0341(3) 0.5000
O20_2 O 0.88884(18) 0.68407(16) 0.53174(10)
O21_2 O 0.89962(17) 0.75469(16) 0.53162(10)
O22_2 O 0.83635(18) 0.84515(16) 0.61041(12)
O23_2 O 0.79863(18) 0.81356(15) 0.64731(11)
O24_2 O 0.70457(17) 0.57216(15) 0.80985(13)
O25_2 O 0.65551(19) 0.54624(16) 0.84158(12)
O26_2 O 0.62562(19) 0.39101(17) 0.84462(12)
O27_2 O 0.64749(17) 0.34815(16) 0.80731(12)
O28_2 O 0.89029(18) 0.25325(17) 0.64305(11)
O29_2 O 0.92570(17) 0.20849(17) 0.61196(12)
O32_2 O 0.8320(3) 0.6041(3) 0.5998(2)
O33_2 O 0.7256(3) 0.5149(2) 0.71751(17)
O34_2 O 0.8496(4) 0.3876(3) 0.6294(2)
O35_2 O 0.8402(2) 0.25145(19) 0.70323(12)
O36_2 O 0.9290(3) 0.1119(2) 0.59811(15)
N7_2 N 0.7861(3) 0.6570(2) 0.61793(18)
H19_2 H 0.7630 0.6616 0.6291
N8_2 N 0.7761(3) 0.5880(3) 0.6323(2)
H20_2 H 0.7526 0.5986 0.6411
N9_2 N 0.7183(3) 0.4463(3) 0.73409(19)
H21_2 H 0.7239 0.4189 0.7296
N10_2 N 0.7519(3) 0.4579(3) 0.69097(18)
H22_2 H 0.7541 0.4292 0.6912
N11_2 N 0.8557(3) 0.4559(4) 0.6091(2)
H23_2 H 0.8668 0.4710 0.5942
N12_2 N 0.9001(3) 0.4013(3) 0.5923(2)
H24_2 H 0.9058 0.4204 0.5781
C34_2 C 0.8833(2) 0.72119(19) 0.54158(12)
C35_2 C 0.8203(2) 0.8125(2) 0.62367(15)
C36_2 C 0.8535(2) 0.7264(2) 0.56822(14)
C37_2 C 0.8486(2) 0.7668(2) 0.58161(15)
H25_2 H 0.8627 0.7917 0.5734
C38_2 C 0.8227(3) 0.7708(2) 0.60755(16)
C39_2 C 0.8037(3) 0.7352(3) 0.61948(19)
H26_2 H 0.7883 0.7374 0.6378
C40_2 C 0.8069(3) 0.6928(3) 0.60423(19)
C41_2 C 0.8322(3) 0.6902(3) 0.57872(18)
H27_2 H 0.8348 0.6632 0.5684
C42_2 C 0.6805(2) 0.5428(2) 0.82007(16)
C43_2 C 0.6441(2) 0.3843(2) 0.82092(17)
C44_2 C 0.6799(3) 0.4997(2) 0.80475(18)
C45_2 C 0.6605(2) 0.4639(2) 0.81837(17)
H28_2 H 0.6462 0.4669 0.8371
C46_2 C 0.6623(3) 0.4227(2) 0.80384(18)
C47_2 C 0.6799(3) 0.4178(3) 0.77699(19)
H29_2 H 0.6793 0.3901 0.7675
C48_2 C 0.6992(3) 0.4533(3) 0.7627(2)
C49_2 C 0.6994(3) 0.4948(3) 0.7768(2)
H30_2 H 0.7127 0.5191 0.7673
C50_2 C 0.9149(2) 0.2456(2) 0.62118(16)
C52_2 C 0.9271(3) 0.2839(2) 0.60249(17)
C53_2 C 0.9576(3) 0.2791(2) 0.57920(17)
H31_2 H 0.9687 0.2509 0.5744
C54_2 C 0.9711(3) 0.3146(2) 0.56375(17)
C55_2 C 0.9543(3) 0.3553(3) 0.5698(2)
H32_2 H 0.9639 0.3801 0.5588
C56_2 C 0.9233(4) 0.3599(3) 0.5921(2)
C57_2 C 0.9092(3) 0.3229(3) 0.6086(2)
H33_2 H 0.8876 0.3257 0.6237
C58_2 C 0.8008(4) 0.6157(4) 0.6144(3)
C59_2 C 0.7290(4) 0.4760(4) 0.7128(2)
C60_2 C 0.8696(5) 0.4124(5) 0.6137(3)
C61_2 C 0.7871(3) 0.5429(4) 0.63724(19)
C62_2 C 0.7639(3) 0.5243(3) 0.66132(18)
H34_2 H 0.7434 0.5407 0.6726
C63_2 C 0.7729(2) 0.4797(3) 0.66772(19)
C64_2 C 0.8023(2) 0.4550(4) 0.65185(18)
H35_2 H 0.8076 0.4252 0.6567
C65_2 C 0.8245(3) 0.4757(4) 0.6280(2)
C66_2 C 0.8181(3) 0.5205(4) 0.6194(2)
H36_2 H 0.8333 0.5338 0.6033
Zn13_2 Zn 0.84830(2) 0.90463(2) 0.62816(2)
Zn16_2 Zn 0.65170(2) 0.59537(2) 0.87184(2)
Zn17_2 Zn 0.78925(2) 0.86651(2) 0.67398(2)
Zn20_2 Zn 0.71075(2) 0.63349(2) 0.82602(2)
O37_2 O 0.68407(16) 0.11116(18) 0.46826(10)
O38_2 O 0.75469(16) 0.10038(17) 0.46838(10)
O41_2 O 0.92784(15) 0.20457(17) 0.69015(13)
O43_2 O 0.95376(16) 0.15551(19) 0.65842(12)
O46_2 O 0.87438(19) 0.10899(17) 0.65538(12)
O48_2 O 0.85251(17) 0.15185(16) 0.69269(12)
O49_2 O 0.72849(16) 0.01251(18) 0.53103(11)
O50_2 O 0.72849(16) 0.01251(18) 0.46897(11)
O51_2 O 0.65725(17) 0.02379(19) 0.53072(12)
O52_2 O 0.65725(17) 0.02379(19) 0.46928(12)
C51_3 C 0.6912(2) 0.0062(3) 0.54050(15)
O16_3 O 0.9077(3) 0.5973(2) 0.5000
O17_3 O 0.9659(3) 0.8154(3) 0.5000
O20_3 O 0.31593(16) 0.88884(18) 0.53174(10)
O21_3 O 0.24531(16) 0.89962(17) 0.53162(10)
O24_3 O 0.42784(15) 0.70457(17) 0.80985(13)
O25_3 O 0.45376(16) 0.65551(19) 0.84158(12)
O26_3 O 0.60899(17) 0.62562(19) 0.84462(12)
O27_3 O 0.65185(16) 0.64749(17) 0.80731(12)
O28_3 O 0.74675(17) 0.89029(18) 0.64305(11)
O29_3 O 0.79151(17) 0.92570(17) 0.61196(12)
O32_3 O 0.3959(3) 0.8320(3) 0.5998(2)
O33_3 O 0.4851(2) 0.7256(3) 0.71751(17)
O34_3 O 0.6124(3) 0.8496(4) 0.6294(2)
O35_3 O 0.74855(19) 0.8402(2) 0.70323(12)
O36_3 O 0.8881(2) 0.9290(3) 0.59811(15)
N7_3 N 0.3430(2) 0.7861(3) 0.61793(18)
H19_3 H 0.3384 0.7630 0.6291
N8_3 N 0.4120(3) 0.7761(3) 0.6323(2)
H20_3 H 0.4014 0.7526 0.6411
N9_3 N 0.5537(3) 0.7183(3) 0.73409(19)
H21_3 H 0.5811 0.7239 0.7296
N10_3 N 0.5421(3) 0.7519(3) 0.69097(18)
H22_3 H 0.5708 0.7541 0.6912
N11_3 N 0.5441(4) 0.8557(3) 0.6091(2)
H23_3 H 0.5290 0.8668 0.5942
N12_3 N 0.5987(3) 0.9001(3) 0.5923(2)
H24_3 H 0.5796 0.9058 0.5781
C34_3 C 0.27881(19) 0.8833(2) 0.54158(12)
C35_3 C 0.1875(2) 0.8203(2) 0.62367(15)
C36_3 C 0.2736(2) 0.8535(2) 0.56822(14)
C37_3 C 0.2332(2) 0.8486(2) 0.58161(15)
H25_3 H 0.2083 0.8627 0.5734
C38_3 C 0.2292(2) 0.8227(3) 0.60755(16)
C39_3 C 0.2648(3) 0.8037(3) 0.61948(19)
H26_3 H 0.2626 0.7883 0.6378
C40_3 C 0.3072(3) 0.8069(3) 0.60423(19)
C41_3 C 0.3098(3) 0.8322(3) 0.57872(18)
H27_3 H 0.3368 0.8348 0.5684
C42_3 C 0.4572(2) 0.6805(2) 0.82007(16)
C43_3 C 0.6157(2) 0.6441(2) 0.82092(17)
C44_3 C 0.5003(2) 0.6799(3) 0.80475(18)
C45_3 C 0.5361(2) 0.6605(2) 0.81837(17)
H28_3 H 0.5331 0.6462 0.8371
C46_3 C 0.5773(2) 0.6623(3) 0.80384(18)
C47_3 C 0.5822(3) 0.6799(3) 0.77699(19)
H29_3 H 0.6099 0.6793 0.7675
C48_3 C 0.5467(3) 0.6992(3) 0.7627(2)
C49_3 C 0.5052(3) 0.6994(3) 0.7768(2)
H30_3 H 0.4809 0.7127 0.7673
C50_3 C 0.7544(2) 0.9149(2) 0.62118(16)
C52_3 C 0.7161(2) 0.9271(3) 0.60249(17)
C53_3 C 0.7209(2) 0.9576(3) 0.57920(17)
H31_3 H 0.7491 0.9687 0.5744
C54_3 C 0.6854(2) 0.9711(3) 0.56375(17)
C55_3 C 0.6447(3) 0.9543(3) 0.5698(2)
H32_3 H 0.6199 0.9639 0.5588
C56_3 C 0.6401(3) 0.9233(4) 0.5921(2)
C57_3 C 0.6771(3) 0.9092(3) 0.6086(2)
H33_3 H 0.6743 0.8876 0.6237
C58_3 C 0.3843(4) 0.8008(4) 0.6144(3)
C59_3 C 0.5240(4) 0.7290(4) 0.7128(2)
C60_3 C 0.5876(5) 0.8696(5) 0.6137(3)
C61_3 C 0.4571(4) 0.7871(3) 0.63724(19)
C62_3 C 0.4757(3) 0.7639(3) 0.66132(18)
H34_3 H 0.4593 0.7434 0.6726
C63_3 C 0.5203(3) 0.7729(2) 0.66772(19)
C64_3 C 0.5450(4) 0.8023(2) 0.65185(18)
H35_3 H 0.5748 0.8076 0.6567
C65_3 C 0.5243(4) 0.8245(3) 0.6280(2)
C66_3 C 0.4795(4) 0.8181(3) 0.6194(2)
H36_3 H 0.4662 0.8333 0.6033
O37_3 O 0.88884(18) 0.68407(16) 0.46826(10)
O38_3 O 0.89962(17) 0.75469(16) 0.46838(10)
O41_3 O 0.79543(17) 0.92784(15) 0.69015(13)
O43_3 O 0.84449(19) 0.95376(16) 0.65842(12)
O46_3 O 0.89101(17) 0.87438(19) 0.65538(12)
O48_3 O 0.84815(16) 0.85251(17) 0.69269(12)
O50_3 O 0.98749(18) 0.72849(16) 0.46897(11)
O52_3 O 0.97621(19) 0.65725(17) 0.46928(12)
O16_4 O 0.4027(2) 0.9077(3) 0.5000
O17_4 O 0.1846(3) 0.9659(3) 0.5000
O37_4 O 0.31593(16) 0.88884(18) 0.46826(10)
O38_4 O 0.24531(16) 0.89962(17) 0.46838(10)
O50_4 O 0.27151(16) 0.98749(18) 0.46897(11)
O52_4 O 0.34275(17) 0.97621(19) 0.46928(12)
O20_4 O 0.18407(16) 0.61116(18) 0.03174(10)
O21_4 O 0.25469(16) 0.60038(17) 0.03162(10)
O22_3 O 0.34515(16) 0.66365(18) 0.11041(12)
O23_3 O 0.31356(15) 0.70137(18) 0.14731(11)
O24_4 O 0.07216(15) 0.79543(17) 0.30985(13)
O25_4 O 0.04624(16) 0.84449(19) 0.34158(12)
O32_4 O 0.1041(3) 0.6680(3) 0.0998(2)
O33_4 O 0.0149(2) 0.7744(3) 0.21751(17)
N7_4 N 0.1570(2) 0.7139(3) 0.11793(18)
H19_4 H 0.1616 0.7370 0.1291
N8_4 N 0.0880(3) 0.7239(3) 0.1323(2)
H20_4 H 0.0986 0.7474 0.1411
C34_4 C 0.22119(19) 0.6167(2) 0.04158(12)
C35_4 C 0.3125(2) 0.6797(2) 0.12367(15)
C36_4 C 0.2264(2) 0.6465(2) 0.06822(14)
C37_4 C 0.2668(2) 0.6514(2) 0.08161(15)
H25_4 H 0.2917 0.6373 0.0734
C38_4 C 0.2708(2) 0.6773(3) 0.10755(16)
C39_4 C 0.2352(3) 0.6963(3) 0.11948(19)
H26_4 H 0.2374 0.7117 0.1378
C40_4 C 0.1928(3) 0.6931(3) 0.10423(19)
C41_4 C 0.1902(3) 0.6678(3) 0.07872(18)
H27_4 H 0.1632 0.6652 0.0684
C42_4 C 0.0428(2) 0.8195(2) 0.32007(16)
H30_4 H 0.0191 0.7873 0.2673
C58_4 C 0.1157(4) 0.6992(4) 0.1144(3)
C61_4 C 0.0429(4) 0.7129(3) 0.13724(19)
C62_4 C 0.0243(3) 0.7361(3) 0.16132(18)
H34_4 H 0.0407 0.7566 0.1726
C66_4 C 0.0205(4) 0.6819(3) 0.1194(2)
H36_4 H 0.0338 0.6667 0.1033
Zn7_2 Zn 0.15818(3) 0.57162(4) -0.0000
Zn10_2 Zn 0.25367(3) 0.55326(4) -0.0000
Zn13_3 Zn 0.40463(2) 0.65170(2) 0.12816(2)
Zn16_3 Zn 0.09537(2) 0.84830(2) 0.37184(2)
Zn17_3 Zn 0.36651(2) 0.71075(2) 0.17398(2)
Zn20_3 Zn 0.13349(2) 0.78925(2) 0.32602(2)
Zn7_3 Zn 0.15818(3) 0.57162(4) 1.0000
Zn10_3 Zn 0.25367(3) 0.55326(4) 1.0000
Zn3_2 Zn 0.59537(2) 0.34830(2) 0.12816(2)
Zn4_2 Zn 0.63349(2) 0.28925(2) 0.17398(2)
O7_2 O 0.87438(19) 0.10899(17) 0.34462(12)
O8_2 O 0.85251(17) 0.15185(16) 0.30731(12)
O9_2 O 0.60971(18) 0.24675(17) 0.14305(11)
O10_2 O 0.57430(17) 0.29151(17) 0.11196(12)
O11_2 O 0.48749(18) 0.22849(16) 0.03103(11)
O12_2 O 0.47621(19) 0.15725(17) 0.03072(12)
O15_2 O 0.6504(4) 0.1124(3) 0.1294(2)
O18_2 O 0.6598(2) 0.24855(19) 0.20323(12)
O19_2 O 0.5710(3) 0.3881(2) 0.09811(15)
N3_2 N 0.7817(3) 0.0537(3) 0.23409(19)
H3_2 H 0.7761 0.0811 0.2296
N4_2 N 0.7481(3) 0.0421(3) 0.19097(18)
H4_2 H 0.7459 0.0708 0.1912
N5_2 N 0.6443(3) 0.0441(4) 0.1091(2)
H5_2 H 0.6332 0.0290 0.0942
N6_2 N 0.5999(3) 0.0987(3) 0.0923(2)
H6_2 H 0.5942 0.0796 0.0781
C10_2 C 0.8559(2) 0.1157(2) 0.32092(17)
C11_2 C 0.8201(3) 0.0003(2) 0.30475(18)
C12_2 C 0.8395(2) 0.0361(2) 0.31837(17)
H10_2 H 0.8538 0.0331 0.3371
C13_2 C 0.8377(3) 0.0773(2) 0.30384(18)
C14_2 C 0.8201(3) 0.0822(3) 0.27699(19)
H11_2 H 0.8207 0.1099 0.2675
C15_2 C 0.8008(3) 0.0467(3) 0.2627(2)
C16_2 C 0.8006(3) 0.0052(3) 0.2768(2)
C17_2 C 0.5851(2) 0.2544(2) 0.12118(16)
C18_2 C 0.4938(3) 0.1912(2) 0.04050(15)
C19_2 C 0.5729(3) 0.2161(2) 0.10249(17)
C20_2 C 0.5424(3) 0.2209(2) 0.07920(17)
H13_2 H 0.5313 0.2491 0.0744
C21_2 C 0.5289(3) 0.1854(2) 0.06375(17)
C22_2 C 0.5457(3) 0.1447(3) 0.0698(2)
H14_2 H 0.5361 0.1199 0.0588
C23_2 C 0.5767(4) 0.1401(3) 0.0921(2)
C24_2 C 0.5908(3) 0.1771(3) 0.1086(2)
H15_2 H 0.6124 0.1743 0.1237
C26_2 C 0.7710(4) 0.0240(4) 0.2128(2)
C27_2 C 0.6304(5) 0.0876(5) 0.1137(3)
C30_2 C 0.7271(2) 0.0203(3) 0.16772(19)
C31_2 C 0.6977(2) 0.0450(4) 0.15185(18)
H17_2 H 0.6924 0.0748 0.1567
C32_2 C 0.6755(3) 0.0243(4) 0.1280(2)
Zn8_2 Zn 0.42838(4) 0.15818(3) -0.0000
Zn11_2 Zn 0.44674(4) 0.25367(3) -0.0000
Zn14_2 Zn 0.90463(2) 0.15170(2) 0.37184(2)
Zn18_2 Zn 0.86651(2) 0.21075(2) 0.32602(2)
O39_2 O 0.65485(16) 0.33635(18) 0.11041(12)
O40_2 O 0.68644(15) 0.29863(18) 0.14731(11)
O42_2 O 0.57216(15) 0.29543(17) 0.19015(13)
O44_2 O 0.54624(16) 0.34449(19) 0.15842(12)
O45_2 O 0.62562(19) 0.39101(17) 0.15538(12)
O47_2 O 0.64749(17) 0.34815(16) 0.19269(12)
Zn8_3 Zn 0.42838(4) 0.15818(3) 1.0000
Zn11_3 Zn 0.44674(4) 0.25367(3) 1.0000
Zn1_2 Zn 0.57162(4) 0.84182(3) -0.0000
Zn2_2 Zn 0.55326(4) 0.74633(3) -0.0000
O1_2 O 0.61116(18) 0.81593(16) 0.03174(10)
O2_2 O 0.60038(17) 0.74531(16) 0.03162(10)
O3_2 O 0.66365(18) 0.65485(16) 0.11041(12)
O4_2 O 0.70137(18) 0.68644(15) 0.14731(11)
O5_2 O 0.79543(17) 0.92784(15) 0.30985(13)
O6_2 O 0.84449(19) 0.95376(16) 0.34158(12)
O13_2 O 0.6680(3) 0.8959(3) 0.0998(2)
O14_2 O 0.7744(3) 0.9851(2) 0.21751(17)
O16_5 O 0.5923(3) 0.9027(2) -0.0000
O17_5 O 0.5341(3) 0.6846(3) -0.0000
N1_2 N 0.7139(3) 0.8430(2) 0.11793(18)
H1_2 H 0.7370 0.8384 0.1291
N2_2 N 0.7239(3) 0.9120(3) 0.1323(2)
H2_2 H 0.7474 0.9014 0.1411
C1_2 C 0.6167(2) 0.77881(19) 0.04158(12)
C2_2 C 0.6797(2) 0.6875(2) 0.12367(15)
C3_2 C 0.6465(2) 0.7736(2) 0.06822(14)
C4_2 C 0.6514(2) 0.7332(2) 0.08161(15)
H7_2 H 0.6373 0.7083 0.0734
C5_2 C 0.6773(3) 0.7292(2) 0.10755(16)
C6_2 C 0.6963(3) 0.7648(3) 0.11948(19)
H8_2 H 0.7117 0.7626 0.1378
C7_2 C 0.6931(3) 0.8072(3) 0.10423(19)
C8_2 C 0.6678(3) 0.8098(3) 0.07872(18)
H9_2 H 0.6652 0.8368 0.0684
C9_2 C 0.8195(2) 0.9572(2) 0.32007(16)
H12_2 H 0.7873 0.9809 0.2673
C25_2 C 0.6992(4) 0.8843(4) 0.1144(3)
C28_2 C 0.7129(3) 0.9571(4) 0.13724(19)
C29_2 C 0.7361(3) 0.9757(3) 0.16132(18)
H16_2 H 0.7566 0.9593 0.1726
C33_2 C 0.6819(3) 0.9795(4) 0.1194(2)
H18_2 H 0.6667 0.9662 0.1033
Zn5_2 Zn 0.65170(2) 0.59537(2) 0.12816(2)
Zn6_2 Zn 0.71075(2) 0.63349(2) 0.17398(2)
O26_4 O 0.89101(17) 0.87438(19) 0.34462(12)
O27_4 O 0.84815(16) 0.85251(17) 0.30731(12)
O28_4 O 0.75325(17) 0.60971(18) 0.14305(11)
O29_4 O 0.70849(17) 0.57430(17) 0.11196(12)
O30_2 O 0.77151(16) 0.48749(18) 0.03103(11)
O31_2 O 0.84275(17) 0.47621(19) 0.03072(12)
O34_4 O 0.8876(3) 0.6504(4) 0.1294(2)
O35_4 O 0.75145(19) 0.6598(2) 0.20323(12)
O36_4 O 0.6119(2) 0.5710(3) 0.09811(15)
N9_4 N 0.9463(3) 0.7817(3) 0.23409(19)
H21_4 H 0.9189 0.7761 0.2296
N10_4 N 0.9579(3) 0.7481(3) 0.19097(18)
H22_4 H 0.9292 0.7459 0.1912
N11_4 N 0.9559(4) 0.6443(3) 0.1091(2)
H23_4 H 0.9710 0.6332 0.0942
N12_4 N 0.9013(3) 0.5999(3) 0.0923(2)
H24_4 H 0.9204 0.5942 0.0781
C43_4 C 0.8843(2) 0.8559(2) 0.32092(17)
C44_4 C 0.9997(2) 0.8201(3) 0.30475(18)
C45_4 C 0.9639(2) 0.8395(2) 0.31837(17)
H28_4 H 0.9669 0.8538 0.3371
C46_4 C 0.9227(2) 0.8377(3) 0.30384(18)
C47_4 C 0.9178(3) 0.8201(3) 0.27699(19)
H29_4 H 0.8901 0.8207 0.2675
C48_4 C 0.9533(3) 0.8008(3) 0.2627(2)
C49_4 C 0.9948(3) 0.8006(3) 0.2768(2)
C50_4 C 0.7456(2) 0.5851(2) 0.12118(16)
C51_4 C 0.8088(2) 0.4938(3) 0.04050(15)
C52_4 C 0.7839(2) 0.5729(3) 0.10249(17)
C53_4 C 0.7791(2) 0.5424(3) 0.07920(17)
H31_4 H 0.7509 0.5313 0.0744
C54_4 C 0.8146(2) 0.5289(3) 0.06375(17)
C55_4 C 0.8553(3) 0.5457(3) 0.0698(2)
H32_4 H 0.8801 0.5361 0.0588
C56_4 C 0.8599(3) 0.5767(4) 0.0921(2)
C57_4 C 0.8229(3) 0.5908(3) 0.1086(2)
H33_4 H 0.8257 0.6124 0.1237
C59_4 C 0.9760(4) 0.7710(4) 0.2128(2)
C60_4 C 0.9124(5) 0.6304(5) 0.1137(3)
C63_4 C 0.9797(3) 0.7271(2) 0.16772(19)
C64_4 C 0.9550(4) 0.6977(2) 0.15185(18)
H35_4 H 0.9252 0.6924 0.1567
C65_4 C 0.9757(4) 0.6755(3) 0.1280(2)
Zn9_2 Zn 0.84182(3) 0.42838(4) -0.0000
Zn12_2 Zn 0.74633(3) 0.44674(4) -0.0000
Zn15_2 Zn 0.84830(2) 0.90463(2) 0.37184(2)
Zn19_2 Zn 0.78925(2) 0.86651(2) 0.32602(2)
O41_4 O 0.70457(17) 0.57216(15) 0.19015(13)
O43_4 O 0.65551(19) 0.54624(16) 0.15842(12)
O46_4 O 0.60899(17) 0.62562(19) 0.15538(12)
O48_4 O 0.65185(16) 0.64749(17) 0.19269(12)
O49_3 O 0.51251(18) 0.77151(16) 0.03103(11)
O51_3 O 0.52379(19) 0.84275(17) 0.03072(12)
H43 H 0.523014 0.676712 0.0201159
Zn1_3 Zn 0.57162(4) 0.84182(3) 1.0000
Zn2_3 Zn 0.55326(4) 0.74633(3) 1.0000
O16_6 O 0.5923(3) 0.9027(2) 1.0000
O17_6 O 0.5341(3) 0.6846(3) 1.0000
Zn9_3 Zn 0.84182(3) 0.42838(4) 1.0000
Zn12_3 Zn 0.74633(3) 0.44674(4) 1.0000
O37_5 O 0.61116(18) 0.81593(16) 0.96826(10)
O38_5 O 0.60038(17) 0.74531(16) 0.96838(10)
O50_5 O 0.51251(18) 0.77151(16) 0.96897(11)
O52_5 O 0.52379(19) 0.84275(17) 0.96928(12)
H39 H 0.623828 0.903417 0.994754
H40 H 0.575454 0.919849 0.985112
H44 H 0.510457 0.680609 0.985066
O20_5 O 0.38884(18) 0.18407(16) 0.03174(10)
O21_5 O 0.39962(17) 0.25469(16) 0.03162(10)
O22_4 O 0.33635(18) 0.34515(16) 0.11041(12)
O23_4 O 0.29863(18) 0.31356(15) 0.14731(11)
O24_5 O 0.20457(17) 0.07216(15) 0.30985(13)
O25_5 O 0.15551(19) 0.04624(16) 0.34158(12)
O32_5 O 0.3320(3) 0.1041(3) 0.0998(2)
O33_5 O 0.2256(3) 0.0149(2) 0.21751(17)
N7_5 N 0.2861(3) 0.1570(2) 0.11793(18)
H19_5 H 0.2630 0.1616 0.1291
N8_5 N 0.2761(3) 0.0880(3) 0.1323(2)
H20_5 H 0.2526 0.0986 0.1411
C34_5 C 0.3833(2) 0.22119(19) 0.04158(12)
C35_5 C 0.3203(2) 0.3125(2) 0.12367(15)
C36_5 C 0.3535(2) 0.2264(2) 0.06822(14)
C37_5 C 0.3486(2) 0.2668(2) 0.08161(15)
H25_5 H 0.3627 0.2917 0.0734
C38_5 C 0.3227(3) 0.2708(2) 0.10755(16)
C39_5 C 0.3037(3) 0.2352(3) 0.11948(19)
H26_5 H 0.2883 0.2374 0.1378
C40_5 C 0.3069(3) 0.1928(3) 0.10423(19)
C41_5 C 0.3322(3) 0.1902(3) 0.07872(18)
H27_5 H 0.3348 0.1632 0.0684
C42_5 C 0.1805(2) 0.0428(2) 0.32007(16)
H30_5 H 0.2127 0.0191 0.2673
C58_5 C 0.3008(4) 0.1157(4) 0.1144(3)
C61_5 C 0.2871(3) 0.0429(4) 0.13724(19)
C62_5 C 0.2639(3) 0.0243(3) 0.16132(18)
H34_5 H 0.2434 0.0407 0.1726
C66_5 C 0.3181(3) 0.0205(4) 0.1194(2)
H36_5 H 0.3333 0.0338 0.1033
Zn13_4 Zn 0.34830(2) 0.40463(2) 0.12816(2)
Zn16_4 Zn 0.15170(2) 0.09537(2) 0.37184(2)
Zn17_4 Zn 0.28925(2) 0.36651(2) 0.17398(2)
Zn20_4 Zn 0.21075(2) 0.13349(2) 0.32602(2)
O16_7 O 0.0973(2) 0.5923(3) -0.0000
O17_7 O 0.3154(3) 0.5341(3) -0.0000
O26_5 O 0.12562(19) 0.89101(17) 0.34462(12)
O27_5 O 0.14749(17) 0.84815(16) 0.30731(12)
O28_5 O 0.39029(18) 0.75325(17) 0.14305(11)
O29_5 O 0.42570(17) 0.70849(17) 0.11196(12)
O34_5 O 0.3496(4) 0.8876(3) 0.1294(2)
O35_5 O 0.3402(2) 0.75145(19) 0.20323(12)
O36_5 O 0.4290(3) 0.6119(2) 0.09811(15)
N9_5 N 0.2183(3) 0.9463(3) 0.23409(19)
H21_5 H 0.2239 0.9189 0.2296
N10_5 N 0.2519(3) 0.9579(3) 0.19097(18)
H22_5 H 0.2541 0.9292 0.1912
N11_5 N 0.3557(3) 0.9559(4) 0.1091(2)
H23_5 H 0.3668 0.9710 0.0942
N12_5 N 0.4001(3) 0.9013(3) 0.0923(2)
H24_5 H 0.4058 0.9204 0.0781
C43_5 C 0.1441(2) 0.8843(2) 0.32092(17)
C44_5 C 0.1799(3) 0.9997(2) 0.30475(18)
C45_5 C 0.1605(2) 0.9639(2) 0.31837(17)
H28_5 H 0.1462 0.9669 0.3371
C46_5 C 0.1623(3) 0.9227(2) 0.30384(18)
C47_5 C 0.1799(3) 0.9178(3) 0.27699(19)
H29_5 H 0.1793 0.8901 0.2675
C48_5 C 0.1992(3) 0.9533(3) 0.2627(2)
C49_5 C 0.1994(3) 0.9948(3) 0.2768(2)
C50_5 C 0.4149(2) 0.7456(2) 0.12118(16)
C51_5 C 0.5062(3) 0.8088(2) 0.04050(15)
C52_5 C 0.4271(3) 0.7839(2) 0.10249(17)
C53_5 C 0.4576(3) 0.7791(2) 0.07920(17)
H31_5 H 0.4687 0.7509 0.0744
C54_5 C 0.4711(3) 0.8146(2) 0.06375(17)
C55_5 C 0.4543(3) 0.8553(3) 0.0698(2)
H32_5 H 0.4639 0.8801 0.0588
C56_5 C 0.4233(4) 0.8599(3) 0.0921(2)
C57_5 C 0.4092(3) 0.8229(3) 0.1086(2)
H33_5 H 0.3876 0.8257 0.1237
C59_5 C 0.2290(4) 0.9760(4) 0.2128(2)
C60_5 C 0.3696(5) 0.9124(5) 0.1137(3)
C63_5 C 0.2729(2) 0.9797(3) 0.16772(19)
C64_5 C 0.3023(2) 0.9550(4) 0.15185(18)
H35_5 H 0.3076 0.9252 0.1567
C65_5 C 0.3245(3) 0.9757(4) 0.1280(2)
O41_5 O 0.42784(15) 0.70457(17) 0.19015(13)
O43_5 O 0.45376(16) 0.65551(19) 0.15842(12)
O46_5 O 0.37438(19) 0.60899(17) 0.15538(12)
O48_5 O 0.35251(17) 0.65185(16) 0.19269(12)
O49_4 O 0.22849(16) 0.51251(18) 0.03103(11)
O51_4 O 0.15725(17) 0.52379(19) 0.03072(12)
H43_2 H 0.323288 0.523014 0.0201159
O16_8 O 0.0973(2) 0.5923(3) 1.0000
O17_8 O 0.3154(3) 0.5341(3) 1.0000
O37_6 O 0.18407(16) 0.61116(18) 0.96826(10)
O38_6 O 0.25469(16) 0.60038(17) 0.96838(10)
O50_6 O 0.22849(16) 0.51251(18) 0.96897(11)
O52_6 O 0.15725(17) 0.52379(19) 0.96928(12)
H39_2 H 0.0965827 0.623828 0.994754
H40_2 H 0.0801506 0.575454 0.985112
H44_2 H 0.319391 0.510457 0.985066
O16_9 O 0.4077(3) 0.0973(2) -0.0000
O17_9 O 0.4659(3) 0.3154(3) -0.0000
O26_6 O 0.10899(17) 0.12562(19) 0.34462(12)
O27_6 O 0.15185(16) 0.14749(17) 0.30731(12)
O28_6 O 0.24675(17) 0.39029(18) 0.14305(11)
O29_6 O 0.29151(17) 0.42570(17) 0.11196(12)
O34_6 O 0.1124(3) 0.3496(4) 0.1294(2)
O35_6 O 0.24855(19) 0.3402(2) 0.20323(12)
O36_6 O 0.3881(2) 0.4290(3) 0.09811(15)
N9_6 N 0.0537(3) 0.2183(3) 0.23409(19)
H21_6 H 0.0811 0.2239 0.2296
N10_6 N 0.0421(3) 0.2519(3) 0.19097(18)
H22_6 H 0.0708 0.2541 0.1912
N11_6 N 0.0441(4) 0.3557(3) 0.1091(2)
H23_6 H 0.0290 0.3668 0.0942
N12_6 N 0.0987(3) 0.4001(3) 0.0923(2)
H24_6 H 0.0796 0.4058 0.0781
C43_6 C 0.1157(2) 0.1441(2) 0.32092(17)
C44_6 C 0.0003(2) 0.1799(3) 0.30475(18)
C45_6 C 0.0361(2) 0.1605(2) 0.31837(17)
H28_6 H 0.0331 0.1462 0.3371
C46_6 C 0.0773(2) 0.1623(3) 0.30384(18)
C47_6 C 0.0822(3) 0.1799(3) 0.27699(19)
H29_6 H 0.1099 0.1793 0.2675
C48_6 C 0.0467(3) 0.1992(3) 0.2627(2)
C49_6 C 0.0052(3) 0.1994(3) 0.2768(2)
C50_6 C 0.2544(2) 0.4149(2) 0.12118(16)
C51_6 C 0.1912(2) 0.5062(3) 0.04050(15)
C52_6 C 0.2161(2) 0.4271(3) 0.10249(17)
C53_6 C 0.2209(2) 0.4576(3) 0.07920(17)
H31_6 H 0.2491 0.4687 0.0744
C54_6 C 0.1854(2) 0.4711(3) 0.06375(17)
C55_6 C 0.1447(3) 0.4543(3) 0.0698(2)
H32_6 H 0.1199 0.4639 0.0588
C56_6 C 0.1401(3) 0.4233(4) 0.0921(2)
C57_6 C 0.1771(3) 0.4092(3) 0.1086(2)
H33_6 H 0.1743 0.3876 0.1237
C59_6 C 0.0240(4) 0.2290(4) 0.2128(2)
C60_6 C 0.0876(5) 0.3696(5) 0.1137(3)
C63_6 C 0.0203(3) 0.2729(2) 0.16772(19)
C64_6 C 0.0450(4) 0.3023(2) 0.15185(18)
H35_6 H 0.0748 0.3076 0.1567
C65_6 C 0.0243(4) 0.3245(3) 0.1280(2)
O41_6 O 0.29543(17) 0.42784(15) 0.19015(13)
O43_6 O 0.34449(19) 0.45376(16) 0.15842(12)
O46_6 O 0.39101(17) 0.37438(19) 0.15538(12)
O48_6 O 0.34815(16) 0.35251(17) 0.19269(12)
H43_3 H 0.476986 0.323288 0.0201159
O16_10 O 0.4077(3) 0.0973(2) 1.0000
O17_10 O 0.4659(3) 0.3154(3) 1.0000
O37_7 O 0.38884(18) 0.18407(16) 0.96826(10)
O38_7 O 0.39962(17) 0.25469(16) 0.96838(10)
O50_7 O 0.48749(18) 0.22849(16) 0.96897(11)
O52_7 O 0.47621(19) 0.15725(17) 0.96928(12)
H39_3 H 0.376172 0.0965827 0.994754
H40_3 H 0.424546 0.0801506 0.985112
H44_3 H 0.489543 0.319391 0.985066
O20_6 O 0.81593(16) 0.38884(18) 0.03174(10)
O21_6 O 0.74531(16) 0.39962(17) 0.03162(10)
O24_6 O 0.92784(15) 0.20457(17) 0.30985(13)
O25_6 O 0.95376(16) 0.15551(19) 0.34158(12)
O32_6 O 0.8959(3) 0.3320(3) 0.0998(2)
O33_6 O 0.9851(2) 0.2256(3) 0.21751(17)
N7_6 N 0.8430(2) 0.2861(3) 0.11793(18)
H19_6 H 0.8384 0.2630 0.1291
N8_6 N 0.9120(3) 0.2761(3) 0.1323(2)
H20_6 H 0.9014 0.2526 0.1411
C34_6 C 0.77881(19) 0.3833(2) 0.04158(12)
C35_6 C 0.6875(2) 0.3203(2) 0.12367(15)
C36_6 C 0.7736(2) 0.3535(2) 0.06822(14)
C37_6 C 0.7332(2) 0.3486(2) 0.08161(15)
H25_6 H 0.7083 0.3627 0.0734
C38_6 C 0.7292(2) 0.3227(3) 0.10755(16)
C39_6 C 0.7648(3) 0.3037(3) 0.11948(19)
H26_6 H 0.7626 0.2883 0.1378
C40_6 C 0.8072(3) 0.3069(3) 0.10423(19)
C41_6 C 0.8098(3) 0.3322(3) 0.07872(18)
H27_6 H 0.8368 0.3348 0.0684
C42_6 C 0.9572(2) 0.1805(2) 0.32007(16)
H30_6 H 0.9809 0.2127 0.2673
C58_6 C 0.8843(4) 0.3008(4) 0.1144(3)
C61_6 C 0.9571(4) 0.2871(3) 0.13724(19)
C62_6 C 0.9757(3) 0.2639(3) 0.16132(18)
H34_6 H 0.9593 0.2434 0.1726
C66_6 C 0.9795(4) 0.3181(3) 0.1194(2)
H36_6 H 0.9662 0.3333 0.1033
O16_11 O 0.9027(2) 0.4077(3) -0.0000
O17_11 O 0.6846(3) 0.4659(3) -0.0000
H43_4 H 0.676712 0.476986 0.0201159
O16_12 O 0.9027(2) 0.4077(3) 1.0000
O17_12 O 0.6846(3) 0.4659(3) 1.0000
O37_8 O 0.81593(16) 0.38884(18) 0.96826(10)
O38_8 O 0.74531(16) 0.39962(17) 0.96838(10)
O50_8 O 0.77151(16) 0.48749(18) 0.96897(11)
O52_8 O 0.84275(17) 0.47621(19) 0.96928(12)
H39_4 H 0.903417 0.376172 0.994754
H40_4 H 0.919849 0.424546 0.985112
H44_4 H 0.680609 0.489543 0.985066
C18_3 C 0.0062(3) 0.3088(2) 0.45950(15)
C51_7 C 0.6912(2) 0.0062(3) 0.45950(15)
O3_3 O 0.83635(18) 0.84515(16) 0.38959(12)
O4_3 O 0.79863(18) 0.81356(15) 0.35269(11)
O9_3 O 0.89029(18) 0.25325(17) 0.35695(11)
O10_3 O 0.92570(17) 0.20849(17) 0.38804(12)
O13_3 O 0.8320(3) 0.6041(3) 0.4002(2)
O14_3 O 0.7256(3) 0.5149(2) 0.28249(17)
O15_3 O 0.8496(4) 0.3876(3) 0.3706(2)
O18_3 O 0.8402(2) 0.25145(19) 0.29677(12)
O19_3 O 0.9290(3) 0.1119(2) 0.40189(15)
N1_3 N 0.7861(3) 0.6570(2) 0.38207(18)
H1_3 H 0.7630 0.6616 0.3709
N2_3 N 0.7761(3) 0.5880(3) 0.3677(2)
H2_3 H 0.7526 0.5986 0.3589
N3_3 N 0.7183(3) 0.4463(3) 0.26591(19)
H3_3 H 0.7239 0.4189 0.2704
N4_3 N 0.7519(3) 0.4579(3) 0.30903(18)
H4_3 H 0.7541 0.4292 0.3088
N5_3 N 0.8557(3) 0.4559(4) 0.3909(2)
H5_3 H 0.8668 0.4710 0.4058
N6_3 N 0.9001(3) 0.4013(3) 0.4077(2)
H6_3 H 0.9058 0.4204 0.4219
C1_3 C 0.8833(2) 0.72119(19) 0.45842(12)
C2_3 C 0.8203(2) 0.8125(2) 0.37633(15)
C3_3 C 0.8535(2) 0.7264(2) 0.43178(14)
C4_3 C 0.8486(2) 0.7668(2) 0.41839(15)
H7_3 H 0.8627 0.7917 0.4266
C5_3 C 0.8227(3) 0.7708(2) 0.39245(16)
C6_3 C 0.8037(3) 0.7352(3) 0.38052(19)
H8_3 H 0.7883 0.7374 0.3622
C7_3 C 0.8069(3) 0.6928(3) 0.39577(19)
C8_3 C 0.8322(3) 0.6902(3) 0.42128(18)
H9_3 H 0.8348 0.6632 0.4316
C9_3 C 0.6805(2) 0.5428(2) 0.17993(16)
C10_3 C 0.6441(2) 0.3843(2) 0.17908(17)
C11_3 C 0.6799(3) 0.4997(2) 0.19525(18)
C12_3 C 0.6605(2) 0.4639(2) 0.18163(17)
H10_3 H 0.6462 0.4669 0.1629
C13_3 C 0.6623(3) 0.4227(2) 0.19616(18)
C14_3 C 0.6799(3) 0.4178(3) 0.22301(19)
H11_3 H 0.6793 0.3901 0.2325
C15_3 C 0.6992(3) 0.4533(3) 0.2373(2)
C16_3 C 0.6994(3) 0.4948(3) 0.2232(2)
H12_3 H 0.7127 0.5191 0.2327
C17_3 C 0.9149(2) 0.2456(2) 0.37882(16)
C19_3 C 0.9271(3) 0.2839(2) 0.39751(17)
C20_3 C 0.9576(3) 0.2791(2) 0.42080(17)
H13_3 H 0.9687 0.2509 0.4256
C21_3 C 0.9711(3) 0.3146(2) 0.43625(17)
C22_3 C 0.9543(3) 0.3553(3) 0.4302(2)
H14_3 H 0.9639 0.3801 0.4412
C23_3 C 0.9233(4) 0.3599(3) 0.4079(2)
C24_3 C 0.9092(3) 0.3229(3) 0.3914(2)
H15_3 H 0.8876 0.3257 0.3763
C25_3 C 0.8008(4) 0.6157(4) 0.3856(3)
C26_3 C 0.7290(4) 0.4760(4) 0.2872(2)
C27_3 C 0.8696(5) 0.4124(5) 0.3863(3)
C28_3 C 0.7871(3) 0.5429(4) 0.36276(19)
C29_3 C 0.7639(3) 0.5243(3) 0.33868(18)
H16_3 H 0.7434 0.5407 0.3274
C30_3 C 0.7729(2) 0.4797(3) 0.33228(19)
C31_3 C 0.8023(2) 0.4550(4) 0.34815(18)
H17_3 H 0.8076 0.4252 0.3433
C32_3 C 0.8245(3) 0.4757(4) 0.3720(2)
C33_3 C 0.8181(3) 0.5205(4) 0.3806(2)
H18_3 H 0.8333 0.5338 0.3967
O22_5 O 0.15485(16) 0.83635(18) 0.38959(12)
O23_5 O 0.18644(15) 0.79863(18) 0.35269(11)
O28_7 O 0.74675(17) 0.89029(18) 0.35695(11)
O29_7 O 0.79151(17) 0.92570(17) 0.38804(12)
O32_7 O 0.3959(3) 0.8320(3) 0.4002(2)
O33_7 O 0.4851(2) 0.7256(3) 0.28249(17)
O34_7 O 0.6124(3) 0.8496(4) 0.3706(2)
O35_7 O 0.74855(19) 0.8402(2) 0.29677(12)
O36_7 O 0.8881(2) 0.9290(3) 0.40189(15)
N7_7 N 0.3430(2) 0.7861(3) 0.38207(18)
H19_7 H 0.3384 0.7630 0.3709
N8_7 N 0.4120(3) 0.7761(3) 0.3677(2)
H20_7 H 0.4014 0.7526 0.3589
N9_7 N 0.5537(3) 0.7183(3) 0.26591(19)
H21_7 H 0.5811 0.7239 0.2704
N10_7 N 0.5421(3) 0.7519(3) 0.30903(18)
H22_7 H 0.5708 0.7541 0.3088
N11_7 N 0.5441(4) 0.8557(3) 0.3909(2)
H23_7 H 0.5290 0.8668 0.4058
N12_7 N 0.5987(3) 0.9001(3) 0.4077(2)
H24_7 H 0.5796 0.9058 0.4219
C34_7 C 0.27881(19) 0.8833(2) 0.45842(12)
C35_7 C 0.1875(2) 0.8203(2) 0.37633(15)
C36_7 C 0.2736(2) 0.8535(2) 0.43178(14)
C37_7 C 0.2332(2) 0.8486(2) 0.41839(15)
H25_7 H 0.2083 0.8627 0.4266
C38_7 C 0.2292(2) 0.8227(3) 0.39245(16)
C39_7 C 0.2648(3) 0.8037(3) 0.38052(19)
H26_7 H 0.2626 0.7883 0.3622
C40_7 C 0.3072(3) 0.8069(3) 0.39577(19)
C41_7 C 0.3098(3) 0.8322(3) 0.42128(18)
H27_7 H 0.3368 0.8348 0.4316
C42_7 C 0.4572(2) 0.6805(2) 0.17993(16)
C43_7 C 0.6157(2) 0.6441(2) 0.17908(17)
C44_7 C 0.5003(2) 0.6799(3) 0.19525(18)
C45_7 C 0.5361(2) 0.6605(2) 0.18163(17)
H28_7 H 0.5331 0.6462 0.1629
C46_7 C 0.5773(2) 0.6623(3) 0.19616(18)
C47_7 C 0.5822(3) 0.6799(3) 0.22301(19)
H29_7 H 0.6099 0.6793 0.2325
C48_7 C 0.5467(3) 0.6992(3) 0.2373(2)
C49_7 C 0.5052(3) 0.6994(3) 0.2232(2)
H30_7 H 0.4809 0.7127 0.2327
C50_7 C 0.7544(2) 0.9149(2) 0.37882(16)
C52_7 C 0.7161(2) 0.9271(3) 0.39751(17)
C53_7 C 0.7209(2) 0.9576(3) 0.42080(17)
H31_7 H 0.7491 0.9687 0.4256
C54_7 C 0.6854(2) 0.9711(3) 0.43625(17)
C55_7 C 0.6447(3) 0.9543(3) 0.4302(2)
H32_7 H 0.6199 0.9639 0.4412
C56_7 C 0.6401(3) 0.9233(4) 0.4079(2)
C57_7 C 0.6771(3) 0.9092(3) 0.3914(2)
H33_7 H 0.6743 0.8876 0.3763
C58_7 C 0.3843(4) 0.8008(4) 0.3856(3)
C59_7 C 0.5240(4) 0.7290(4) 0.2872(2)
C60_7 C 0.5876(5) 0.8696(5) 0.3863(3)
C61_7 C 0.4571(4) 0.7871(3) 0.36276(19)
C62_7 C 0.4757(3) 0.7639(3) 0.33868(18)
H34_7 H 0.4593 0.7434 0.3274
C63_7 C 0.5203(3) 0.7729(2) 0.33228(19)
C64_7 C 0.5450(4) 0.8023(2) 0.34815(18)
H35_7 H 0.5748 0.8076 0.3433
C65_7 C 0.5243(4) 0.8245(3) 0.3720(2)
C66_7 C 0.4795(4) 0.8181(3) 0.3806(2)
H36_7 H 0.4662 0.8333 0.3967
O39_3 O 0.84515(16) 0.16365(18) 0.38959(12)
O40_3 O 0.81356(15) 0.20137(18) 0.35269(11)
O22_6 O 0.16365(18) 0.15485(16) 0.38959(12)
O23_6 O 0.20137(18) 0.18644(15) 0.35269(11)
O28_8 O 0.10971(18) 0.74675(17) 0.35695(11)
O29_8 O 0.07430(17) 0.79151(17) 0.38804(12)
O32_8 O 0.1680(3) 0.3959(3) 0.4002(2)
O33_8 O 0.2744(3) 0.4851(2) 0.28249(17)
O34_8 O 0.1504(4) 0.6124(3) 0.3706(2)
O35_8 O 0.1598(2) 0.74855(19) 0.29677(12)
O36_8 O 0.0710(3) 0.8881(2) 0.40189(15)
N7_8 N 0.2139(3) 0.3430(2) 0.38207(18)
H19_8 H 0.2370 0.3384 0.3709
N8_8 N 0.2239(3) 0.4120(3) 0.3677(2)
H20_8 H 0.2474 0.4014 0.3589
N9_8 N 0.2817(3) 0.5537(3) 0.26591(19)
H21_8 H 0.2761 0.5811 0.2704
N10_8 N 0.2481(3) 0.5421(3) 0.30903(18)
H22_8 H 0.2459 0.5708 0.3088
N11_8 N 0.1443(3) 0.5441(4) 0.3909(2)
H23_8 H 0.1332 0.5290 0.4058
N12_8 N 0.0999(3) 0.5987(3) 0.4077(2)
H24_8 H 0.0942 0.5796 0.4219
C34_8 C 0.1167(2) 0.27881(19) 0.45842(12)
C35_8 C 0.1797(2) 0.1875(2) 0.37633(15)
C36_8 C 0.1465(2) 0.2736(2) 0.43178(14)
C37_8 C 0.1514(2) 0.2332(2) 0.41839(15)
H25_8 H 0.1373 0.2083 0.4266
C38_8 C 0.1773(3) 0.2292(2) 0.39245(16)
C39_8 C 0.1963(3) 0.2648(3) 0.38052(19)
H26_8 H 0.2117 0.2626 0.3622
C40_8 C 0.1931(3) 0.3072(3) 0.39577(19)
C41_8 C 0.1678(3) 0.3098(3) 0.42128(18)
H27_8 H 0.1652 0.3368 0.4316
C42_8 C 0.3195(2) 0.4572(2) 0.17993(16)
C43_8 C 0.3559(2) 0.6157(2) 0.17908(17)
C44_8 C 0.3201(3) 0.5003(2) 0.19525(18)
C45_8 C 0.3395(2) 0.5361(2) 0.18163(17)
H28_8 H 0.3538 0.5331 0.1629
C46_8 C 0.3377(3) 0.5773(2) 0.19616(18)
C47_8 C 0.3201(3) 0.5822(3) 0.22301(19)
H29_8 H 0.3207 0.6099 0.2325
C48_8 C 0.3008(3) 0.5467(3) 0.2373(2)
C49_8 C 0.3006(3) 0.5052(3) 0.2232(2)
H30_8 H 0.2873 0.4809 0.2327
C50_8 C 0.0851(2) 0.7544(2) 0.37882(16)
C52_8 C 0.0729(3) 0.7161(2) 0.39751(17)
C53_8 C 0.0424(3) 0.7209(2) 0.42080(17)
H31_8 H 0.0313 0.7491 0.4256
C54_8 C 0.0289(3) 0.6854(2) 0.43625(17)
C55_8 C 0.0457(3) 0.6447(3) 0.4302(2)
H32_8 H 0.0361 0.6199 0.4412
C56_8 C 0.0767(4) 0.6401(3) 0.4079(2)
C57_8 C 0.0908(3) 0.6771(3) 0.3914(2)
H33_8 H 0.1124 0.6743 0.3763
C58_8 C 0.1992(4) 0.3843(4) 0.3856(3)
C59_8 C 0.2710(4) 0.5240(4) 0.2872(2)
C60_8 C 0.1304(5) 0.5876(5) 0.3863(3)
C61_8 C 0.2129(3) 0.4571(4) 0.36276(19)
C62_8 C 0.2361(3) 0.4757(3) 0.33868(18)
H34_8 H 0.2566 0.4593 0.3274
C63_8 C 0.2271(2) 0.5203(3) 0.33228(19)
C64_8 C 0.1977(2) 0.5450(4) 0.34815(18)
H35_8 H 0.1924 0.5748 0.3433
C65_8 C 0.1755(3) 0.5243(4) 0.3720(2)
C66_8 C 0.1819(3) 0.4795(4) 0.3806(2)
H36_8 H 0.1667 0.4662 0.3967
C51_8 C 0.9938(3) 0.6912(2) 0.45950(15)
O28_9 O 0.25325(17) 0.10971(18) 0.35695(11)
O29_9 O 0.20849(17) 0.07430(17) 0.38804(12)
O32_9 O 0.6041(3) 0.1680(3) 0.4002(2)
O33_9 O 0.5149(2) 0.2744(3) 0.28249(17)
O34_9 O 0.3876(3) 0.1504(4) 0.3706(2)
O35_9 O 0.25145(19) 0.1598(2) 0.29677(12)
O36_9 O 0.1119(2) 0.0710(3) 0.40189(15)
N7_9 N 0.6570(2) 0.2139(3) 0.38207(18)
H19_9 H 0.6616 0.2370 0.3709
N8_9 N 0.5880(3) 0.2239(3) 0.3677(2)
H20_9 H 0.5986 0.2474 0.3589
N9_9 N 0.4463(3) 0.2817(3) 0.26591(19)
H21_9 H 0.4189 0.2761 0.2704
N10_9 N 0.4579(3) 0.2481(3) 0.30903(18)
H22_9 H 0.4292 0.2459 0.3088
N11_9 N 0.4559(4) 0.1443(3) 0.3909(2)
H23_9 H 0.4710 0.1332 0.4058
N12_9 N 0.4013(3) 0.0999(3) 0.4077(2)
H24_9 H 0.4204 0.0942 0.4219
C34_9 C 0.72119(19) 0.1167(2) 0.45842(12)
C35_9 C 0.8125(2) 0.1797(2) 0.37633(15)
C36_9 C 0.7264(2) 0.1465(2) 0.43178(14)
C37_9 C 0.7668(2) 0.1514(2) 0.41839(15)
H25_9 H 0.7917 0.1373 0.4266
C38_9 C 0.7708(2) 0.1773(3) 0.39245(16)
C39_9 C 0.7352(3) 0.1963(3) 0.38052(19)
H26_9 H 0.7374 0.2117 0.3622
C40_9 C 0.6928(3) 0.1931(3) 0.39577(19)
C41_9 C 0.6902(3) 0.1678(3) 0.42128(18)
H27_9 H 0.6632 0.1652 0.4316
C42_9 C 0.5428(2) 0.3195(2) 0.17993(16)
C43_9 C 0.3843(2) 0.3559(2) 0.17908(17)
C44_9 C 0.4997(2) 0.3201(3) 0.19525(18)
C45_9 C 0.4639(2) 0.3395(2) 0.18163(17)
H28_9 H 0.4669 0.3538 0.1629
C46_9 C 0.4227(2) 0.3377(3) 0.19616(18)
C47_9 C 0.4178(3) 0.3201(3) 0.22301(19)
H29_9 H 0.3901 0.3207 0.2325
C48_9 C 0.4533(3) 0.3008(3) 0.2373(2)
C49_9 C 0.4948(3) 0.3006(3) 0.2232(2)
H30_9 H 0.5191 0.2873 0.2327
C50_9 C 0.2456(2) 0.0851(2) 0.37882(16)
C52_9 C 0.2839(2) 0.0729(3) 0.39751(17)
C53_9 C 0.2791(2) 0.0424(3) 0.42080(17)
H31_9 H 0.2509 0.0313 0.4256
C54_9 C 0.3146(2) 0.0289(3) 0.43625(17)
C55_9 C 0.3553(3) 0.0457(3) 0.4302(2)
H32_9 H 0.3801 0.0361 0.4412
C56_9 C 0.3599(3) 0.0767(4) 0.4079(2)
C57_9 C 0.3229(3) 0.0908(3) 0.3914(2)
H33_9 H 0.3257 0.1124 0.3763
C58_9 C 0.6157(4) 0.1992(4) 0.3856(3)
C59_9 C 0.4760(4) 0.2710(4) 0.2872(2)
C60_9 C 0.4124(5) 0.1304(5) 0.3863(3)
C61_9 C 0.5429(4) 0.2129(3) 0.36276(19)
C62_9 C 0.5243(3) 0.2361(3) 0.33868(18)
H34_9 H 0.5407 0.2566 0.3274
C63_9 C 0.4797(3) 0.2271(2) 0.33228(19)
C64_9 C 0.4550(4) 0.1977(2) 0.34815(18)
H35_9 H 0.4252 0.1924 0.3433
C65_9 C 0.4757(4) 0.1755(3) 0.3720(2)
C66_9 C 0.5205(4) 0.1819(3) 0.3806(2)
H36_9 H 0.5338 0.1667 0.3967
C51_9 C 0.3088(2) 0.9938(3) 0.45950(15)
H39_5 H 0.376172 0.0965827 0.00524582
H40_5 H 0.424546 0.0801506 0.0148878
H44_5 H 0.489543 0.319391 0.0149343
O3_4 O 0.33635(18) 0.34515(16) 0.88959(12)
O4_4 O 0.29863(18) 0.31356(15) 0.85269(11)
O13_4 O 0.3320(3) 0.1041(3) 0.9002(2)
O14_4 O 0.2256(3) 0.0149(2) 0.78249(17)
N1_4 N 0.2861(3) 0.1570(2) 0.88207(18)
H1_4 H 0.2630 0.1616 0.8709
N2_4 N 0.2761(3) 0.0880(3) 0.8677(2)
H2_4 H 0.2526 0.0986 0.8589
C1_4 C 0.3833(2) 0.22119(19) 0.95842(12)
C2_4 C 0.3203(2) 0.3125(2) 0.87633(15)
C3_4 C 0.3535(2) 0.2264(2) 0.93178(14)
C4_4 C 0.3486(2) 0.2668(2) 0.91839(15)
H7_4 H 0.3627 0.2917 0.9266
C5_4 C 0.3227(3) 0.2708(2) 0.89245(16)
C6_4 C 0.3037(3) 0.2352(3) 0.88052(19)
H8_4 H 0.2883 0.2374 0.8622
C7_4 C 0.3069(3) 0.1928(3) 0.89577(19)
C8_4 C 0.3322(3) 0.1902(3) 0.92128(18)
H9_4 H 0.3348 0.1632 0.9316
C9_4 C 0.1805(2) 0.0428(2) 0.67993(16)
H12_4 H 0.2127 0.0191 0.7327
C25_4 C 0.3008(4) 0.1157(4) 0.8856(3)
C28_4 C 0.2871(3) 0.0429(4) 0.86276(19)
C29_4 C 0.2639(3) 0.0243(3) 0.83868(18)
H16_4 H 0.2434 0.0407 0.8274
C33_4 C 0.3181(3) 0.0205(4) 0.8806(2)
H18_4 H 0.3333 0.0338 0.8967
O28_10 O 0.24675(17) 0.39029(18) 0.85695(11)
O29_10 O 0.29151(17) 0.42570(17) 0.88804(12)
O34_10 O 0.1124(3) 0.3496(4) 0.8706(2)
O35_10 O 0.24855(19) 0.3402(2) 0.79677(12)
O36_10 O 0.3881(2) 0.4290(3) 0.90189(15)
N9_10 N 0.0537(3) 0.2183(3) 0.76591(19)
H21_10 H 0.0811 0.2239 0.7704
N10_10 N 0.0421(3) 0.2519(3) 0.80903(18)
H22_10 H 0.0708 0.2541 0.8088
N11_10 N 0.0441(4) 0.3557(3) 0.8909(2)
H23_10 H 0.0290 0.3668 0.9058
N12_10 N 0.0987(3) 0.4001(3) 0.9077(2)
H24_10 H 0.0796 0.4058 0.9219
C43_10 C 0.1157(2) 0.1441(2) 0.67908(17)
C44_10 C 0.0003(2) 0.1799(3) 0.69525(18)
C45_10 C 0.0361(2) 0.1605(2) 0.68163(17)
H28_10 H 0.0331 0.1462 0.6629
C46_10 C 0.0773(2) 0.1623(3) 0.69616(18)
C47_10 C 0.0822(3) 0.1799(3) 0.72301(19)
H29_10 H 0.1099 0.1793 0.7325
C48_10 C 0.0467(3) 0.1992(3) 0.7373(2)
C49_10 C 0.0052(3) 0.1994(3) 0.7232(2)
C50_10 C 0.2544(2) 0.4149(2) 0.87882(16)
C51_10 C 0.1912(2) 0.5062(3) 0.95950(15)
C52_10 C 0.2161(2) 0.4271(3) 0.89751(17)
C53_10 C 0.2209(2) 0.4576(3) 0.92080(17)
H31_10 H 0.2491 0.4687 0.9256
C54_10 C 0.1854(2) 0.4711(3) 0.93625(17)
C55_10 C 0.1447(3) 0.4543(3) 0.9302(2)
H32_10 H 0.1199 0.4639 0.9412
C56_10 C 0.1401(3) 0.4233(4) 0.9079(2)
C57_10 C 0.1771(3) 0.4092(3) 0.8914(2)
H33_10 H 0.1743 0.3876 0.8763
C59_10 C 0.0240(4) 0.2290(4) 0.7872(2)
C60_10 C 0.0876(5) 0.3696(5) 0.8863(3)
C63_10 C 0.0203(3) 0.2729(2) 0.83228(19)
C64_10 C 0.0450(4) 0.3023(2) 0.84815(18)
H35_10 H 0.0748 0.3076 0.8433
C65_10 C 0.0243(4) 0.3245(3) 0.8720(2)
H43_5 H 0.476986 0.323288 0.979884
O9_4 O 0.39029(18) 0.75325(17) 0.85695(11)
O10_4 O 0.42570(17) 0.70849(17) 0.88804(12)
O15_4 O 0.3496(4) 0.8876(3) 0.8706(2)
O18_4 O 0.3402(2) 0.75145(19) 0.79677(12)
O19_4 O 0.4290(3) 0.6119(2) 0.90189(15)
N3_4 N 0.2183(3) 0.9463(3) 0.76591(19)
H3_4 H 0.2239 0.9189 0.7704
N4_4 N 0.2519(3) 0.9579(3) 0.80903(18)
H4_4 H 0.2541 0.9292 0.8088
N5_4 N 0.3557(3) 0.9559(4) 0.8909(2)
H5_4 H 0.3668 0.9710 0.9058
N6_4 N 0.4001(3) 0.9013(3) 0.9077(2)
H6_4 H 0.4058 0.9204 0.9219
C10_4 C 0.1441(2) 0.8843(2) 0.67908(17)
C11_4 C 0.1799(3) 0.9997(2) 0.69525(18)
C12_4 C 0.1605(2) 0.9639(2) 0.68163(17)
H10_4 H 0.1462 0.9669 0.6629
C13_4 C 0.1623(3) 0.9227(2) 0.69616(18)
C14_4 C 0.1799(3) 0.9178(3) 0.72301(19)
H11_4 H 0.1793 0.8901 0.7325
C15_4 C 0.1992(3) 0.9533(3) 0.7373(2)
C16_4 C 0.1994(3) 0.9948(3) 0.7232(2)
C17_4 C 0.4149(2) 0.7456(2) 0.87882(16)
C18_4 C 0.5062(3) 0.8088(2) 0.95950(15)
C19_4 C 0.4271(3) 0.7839(2) 0.89751(17)
C20_4 C 0.4576(3) 0.7791(2) 0.92080(17)
H13_4 H 0.4687 0.7509 0.9256
C21_4 C 0.4711(3) 0.8146(2) 0.93625(17)
C22_4 C 0.4543(3) 0.8553(3) 0.9302(2)
H14_4 H 0.4639 0.8801 0.9412
C23_4 C 0.4233(4) 0.8599(3) 0.9079(2)
C24_4 C 0.4092(3) 0.8229(3) 0.8914(2)
H15_4 H 0.3876 0.8257 0.8763
C26_4 C 0.2290(4) 0.9760(4) 0.7872(2)
C27_4 C 0.3696(5) 0.9124(5) 0.8863(3)
C30_4 C 0.2729(2) 0.9797(3) 0.83228(19)
C31_4 C 0.3023(2) 0.9550(4) 0.84815(18)
H17_4 H 0.3076 0.9252 0.8433
C32_4 C 0.3245(3) 0.9757(4) 0.8720(2)
O39_4 O 0.34515(16) 0.66365(18) 0.88959(12)
O40_4 O 0.31356(15) 0.70137(18) 0.85269(11)
O22_7 O 0.65485(16) 0.33635(18) 0.88959(12)
O23_7 O 0.68644(15) 0.29863(18) 0.85269(11)
O32_10 O 0.8959(3) 0.3320(3) 0.9002(2)
O33_10 O 0.9851(2) 0.2256(3) 0.78249(17)
N7_10 N 0.8430(2) 0.2861(3) 0.88207(18)
H19_10 H 0.8384 0.2630 0.8709
N8_10 N 0.9120(3) 0.2761(3) 0.8677(2)
H20_10 H 0.9014 0.2526 0.8589
C34_10 C 0.77881(19) 0.3833(2) 0.95842(12)
C35_10 C 0.6875(2) 0.3203(2) 0.87633(15)
C36_10 C 0.7736(2) 0.3535(2) 0.93178(14)
C37_10 C 0.7332(2) 0.3486(2) 0.91839(15)
H25_10 H 0.7083 0.3627 0.9266
C38_10 C 0.7292(2) 0.3227(3) 0.89245(16)
C39_10 C 0.7648(3) 0.3037(3) 0.88052(19)
H26_10 H 0.7626 0.2883 0.8622
C40_10 C 0.8072(3) 0.3069(3) 0.89577(19)
C41_10 C 0.8098(3) 0.3322(3) 0.92128(18)
H27_10 H 0.8368 0.3348 0.9316
C42_10 C 0.9572(2) 0.1805(2) 0.67993(16)
H30_10 H 0.9809 0.2127 0.7327
C58_10 C 0.8843(4) 0.3008(4) 0.8856(3)
C61_10 C 0.9571(4) 0.2871(3) 0.86276(19)
C62_10 C 0.9757(3) 0.2639(3) 0.83868(18)
H34_10 H 0.9593 0.2434 0.8274
C66_10 C 0.9795(4) 0.3181(3) 0.8806(2)
H36_10 H 0.9662 0.3333 0.8967
H39_6 H 0.903417 0.376172 0.00524582
H40_6 H 0.919849 0.424546 0.0148878
H44_6 H 0.680609 0.489543 0.0149343
O28_11 O 0.60971(18) 0.24675(17) 0.85695(11)
O29_11 O 0.57430(17) 0.29151(17) 0.88804(12)
O34_11 O 0.6504(4) 0.1124(3) 0.8706(2)
O35_11 O 0.6598(2) 0.24855(19) 0.79677(12)
O36_11 O 0.5710(3) 0.3881(2) 0.90189(15)
N9_11 N 0.7817(3) 0.0537(3) 0.76591(19)
H21_11 H 0.7761 0.0811 0.7704
N10_11 N 0.7481(3) 0.0421(3) 0.80903(18)
H22_11 H 0.7459 0.0708 0.8088
N11_11 N 0.6443(3) 0.0441(4) 0.8909(2)
H23_11 H 0.6332 0.0290 0.9058
N12_11 N 0.5999(3) 0.0987(3) 0.9077(2)
H24_11 H 0.5942 0.0796 0.9219
C43_11 C 0.8559(2) 0.1157(2) 0.67908(17)
C44_11 C 0.8201(3) 0.0003(2) 0.69525(18)
C45_11 C 0.8395(2) 0.0361(2) 0.68163(17)
H28_11 H 0.8538 0.0331 0.6629
C46_11 C 0.8377(3) 0.0773(2) 0.69616(18)
C47_11 C 0.8201(3) 0.0822(3) 0.72301(19)
H29_11 H 0.8207 0.1099 0.7325
C48_11 C 0.8008(3) 0.0467(3) 0.7373(2)
C49_11 C 0.8006(3) 0.0052(3) 0.7232(2)
C50_11 C 0.5851(2) 0.2544(2) 0.87882(16)
C51_11 C 0.4938(3) 0.1912(2) 0.95950(15)
C52_11 C 0.5729(3) 0.2161(2) 0.89751(17)
C53_11 C 0.5424(3) 0.2209(2) 0.92080(17)
H31_11 H 0.5313 0.2491 0.9256
C54_11 C 0.5289(3) 0.1854(2) 0.93625(17)
C55_11 C 0.5457(3) 0.1447(3) 0.9302(2)
H32_11 H 0.5361 0.1199 0.9412
C56_11 C 0.5767(4) 0.1401(3) 0.9079(2)
C57_11 C 0.5908(3) 0.1771(3) 0.8914(2)
H33_11 H 0.6124 0.1743 0.8763
C59_11 C 0.7710(4) 0.0240(4) 0.7872(2)
C60_11 C 0.6304(5) 0.0876(5) 0.8863(3)
C63_11 C 0.7271(2) 0.0203(3) 0.83228(19)
C64_11 C 0.6977(2) 0.0450(4) 0.84815(18)
H35_11 H 0.6924 0.0748 0.8433
C65_11 C 0.6755(3) 0.0243(4) 0.8720(2)
H43_6 H 0.676712 0.476986 0.979884
O22_8 O 0.66365(18) 0.65485(16) 0.88959(12)
O23_8 O 0.70137(18) 0.68644(15) 0.85269(11)
O32_11 O 0.6680(3) 0.8959(3) 0.9002(2)
O33_11 O 0.7744(3) 0.9851(2) 0.78249(17)
N7_11 N 0.7139(3) 0.8430(2) 0.88207(18)
H19_11 H 0.7370 0.8384 0.8709
N8_11 N 0.7239(3) 0.9120(3) 0.8677(2)
H20_11 H 0.7474 0.9014 0.8589
C34_11 C 0.6167(2) 0.77881(19) 0.95842(12)
C35_11 C 0.6797(2) 0.6875(2) 0.87633(15)
C36_11 C 0.6465(2) 0.7736(2) 0.93178(14)
C37_11 C 0.6514(2) 0.7332(2) 0.91839(15)
H25_11 H 0.6373 0.7083 0.9266
C38_11 C 0.6773(3) 0.7292(2) 0.89245(16)
C39_11 C 0.6963(3) 0.7648(3) 0.88052(19)
H26_11 H 0.7117 0.7626 0.8622
C40_11 C 0.6931(3) 0.8072(3) 0.89577(19)
C41_11 C 0.6678(3) 0.8098(3) 0.92128(18)
H27_11 H 0.6652 0.8368 0.9316
C42_11 C 0.8195(2) 0.9572(2) 0.67993(16)
H30_11 H 0.7873 0.9809 0.7327
C58_11 C 0.6992(4) 0.8843(4) 0.8856(3)
C61_11 C 0.7129(3) 0.9571(4) 0.86276(19)
C62_11 C 0.7361(3) 0.9757(3) 0.83868(18)
H34_11 H 0.7566 0.9593 0.8274
C66_11 C 0.6819(3) 0.9795(4) 0.8806(2)
H36_11 H 0.6667 0.9662 0.8967
O32_12 O 0.1041(3) 0.6680(3) 0.9002(2)
O33_12 O 0.0149(2) 0.7744(3) 0.78249(17)
N7_12 N 0.1570(2) 0.7139(3) 0.88207(18)
H19_12 H 0.1616 0.7370 0.8709
N8_12 N 0.0880(3) 0.7239(3) 0.8677(2)
H20_12 H 0.0986 0.7474 0.8589
C34_12 C 0.22119(19) 0.6167(2) 0.95842(12)
C35_12 C 0.3125(2) 0.6797(2) 0.87633(15)
C36_12 C 0.2264(2) 0.6465(2) 0.93178(14)
C37_12 C 0.2668(2) 0.6514(2) 0.91839(15)
H25_12 H 0.2917 0.6373 0.9266
C38_12 C 0.2708(2) 0.6773(3) 0.89245(16)
C39_12 C 0.2352(3) 0.6963(3) 0.88052(19)
H26_12 H 0.2374 0.7117 0.8622
C40_12 C 0.1928(3) 0.6931(3) 0.89577(19)
C41_12 C 0.1902(3) 0.6678(3) 0.92128(18)
H27_12 H 0.1632 0.6652 0.9316
C42_12 C 0.0428(2) 0.8195(2) 0.67993(16)
H30_12 H 0.0191 0.7873 0.7327
C58_12 C 0.1157(4) 0.6992(4) 0.8856(3)
C61_12 C 0.0429(4) 0.7129(3) 0.86276(19)
C62_12 C 0.0243(3) 0.7361(3) 0.83868(18)
H34_12 H 0.0407 0.7566 0.8274
C66_12 C 0.0205(4) 0.6819(3) 0.8806(2)
H36_12 H 0.0338 0.6667 0.8967
H39_7 H 0.623828 0.903417 0.00524582
H40_7 H 0.575454 0.919849 0.0148878
H44_7 H 0.510457 0.680609 0.0149343
O28_12 O 0.75325(17) 0.60971(18) 0.85695(11)
O29_12 O 0.70849(17) 0.57430(17) 0.88804(12)
O34_12 O 0.8876(3) 0.6504(4) 0.8706(2)
O35_12 O 0.75145(19) 0.6598(2) 0.79677(12)
O36_12 O 0.6119(2) 0.5710(3) 0.90189(15)
N9_12 N 0.9463(3) 0.7817(3) 0.76591(19)
H21_12 H 0.9189 0.7761 0.7704
N10_12 N 0.9579(3) 0.7481(3) 0.80903(18)
H22_12 H 0.9292 0.7459 0.8088
N11_12 N 0.9559(4) 0.6443(3) 0.8909(2)
H23_12 H 0.9710 0.6332 0.9058
N12_12 N 0.9013(3) 0.5999(3) 0.9077(2)
H24_12 H 0.9204 0.5942 0.9219
C43_12 C 0.8843(2) 0.8559(2) 0.67908(17)
C44_12 C 0.9997(2) 0.8201(3) 0.69525(18)
C45_12 C 0.9639(2) 0.8395(2) 0.68163(17)
H28_12 H 0.9669 0.8538 0.6629
C46_12 C 0.9227(2) 0.8377(3) 0.69616(18)
C47_12 C 0.9178(3) 0.8201(3) 0.72301(19)
H29_12 H 0.8901 0.8207 0.7325
C48_12 C 0.9533(3) 0.8008(3) 0.7373(2)
C49_12 C 0.9948(3) 0.8006(3) 0.7232(2)
C50_12 C 0.7456(2) 0.5851(2) 0.87882(16)
C51_12 C 0.8088(2) 0.4938(3) 0.95950(15)
C52_12 C 0.7839(2) 0.5729(3) 0.89751(17)
C53_12 C 0.7791(2) 0.5424(3) 0.92080(17)
H31_12 H 0.7509 0.5313 0.9256
C54_12 C 0.8146(2) 0.5289(3) 0.93625(17)
C55_12 C 0.8553(3) 0.5457(3) 0.9302(2)
H32_12 H 0.8801 0.5361 0.9412
C56_12 C 0.8599(3) 0.5767(4) 0.9079(2)
C57_12 C 0.8229(3) 0.5908(3) 0.8914(2)
H33_12 H 0.8257 0.6124 0.8763
C59_12 C 0.9760(4) 0.7710(4) 0.7872(2)
C60_12 C 0.9124(5) 0.6304(5) 0.8863(3)
C63_12 C 0.9797(3) 0.7271(2) 0.83228(19)
C64_12 C 0.9550(4) 0.6977(2) 0.84815(18)
H35_12 H 0.9252 0.6924 0.8433
C65_12 C 0.9757(4) 0.6755(3) 0.8720(2)
H43_7 H 0.523014 0.676712 0.979884
H39_8 H 0.0965827 0.623828 0.00524582
H40_8 H 0.0801506 0.575454 0.0148878
H44_8 H 0.319391 0.510457 0.0149343
H43_8 H 0.323288 0.523014 0.979884
loop_
_geom_bond_atom_site_label_1
_geom_bond_atom_site_label_2
_geom_bond_site_symmetry_1
_geom_bond_site_symmetry_2
Zn1 O1 1_555 1_555
Zn2 O2 1_555 1_555
Zn3 O10 1_555 1_555
Zn4 O9 1_555 1_555
O1 C1 1_555 1_555
O2 C1 1_555 1_555
O3 C2 1_555 1_555
O4 C2 1_555 1_555
O5 C9 1_555 1_555
O6 C9 1_555 1_555
O7 C10 1_555 1_555
O8 C10 1_555 1_555
O9 C17 1_555 1_555
O10 C17 1_555 1_555
O13 C25 1_555 1_555
O14 C26 1_555 1_555
O15 C27 1_555 1_555
O16 Zn1 1_555 1_555
O17 Zn2 1_555 1_555
O18 Zn4 1_555 1_555
O19 Zn3 1_555 1_555
N1 H1 1_555 1_555
N2 H2 1_555 1_555
N3 H3 1_555 1_555
N4 H4 1_555 1_555
N5 H5 1_555 1_555
N6 H6 1_555 1_555
C1 C3 1_555 1_555
C2 C5 1_555 1_555
C3 C4 1_555 1_555
C4 H7 1_555 1_555
C5 C4 1_555 1_555
C6 C5 1_555 1_555
H8 C6 1_555 1_555
C7 N1 1_555 1_555
C8 C3 1_555 1_555
H9 C8 1_555 1_555
C9 C11 1_555 1_555
C10 C13 1_555 1_555
C11 C12 1_555 1_555
C12 H10 1_555 1_555
C13 C12 1_555 1_555
C14 C13 1_555 1_555
H11 C14 1_555 1_555
C15 N3 1_555 1_555
C16 C11 1_555 1_555
H12 C16 1_555 1_555
C17 C19 1_555 1_555
C19 C20 1_555 1_555
C20 H13 1_555 1_555
C21 C20 1_555 1_555
C22 C21 1_555 1_555
H14 C22 1_555 1_555
C23 N6 1_555 1_555
C24 C19 1_555 1_555
H15 C24 1_555 1_555
C25 N1 1_555 1_555
C26 N3 1_555 1_555
C27 N5 1_555 1_555
C28 N2 1_555 1_555
C29 C28 1_555 1_555
H16 C29 1_555 1_555
C30 N4 1_555 1_555
C31 C30 1_555 1_555
H17 C31 1_555 1_555
C32 N5 1_555 1_555
C33 C28 1_555 1_555
H18 C33 1_555 1_555
Zn5 O3 1_555 1_555
Zn6 O4 1_555 1_555
O20 C34 1_555 1_555
O21 C34 1_555 1_555
O22 C35 1_555 1_555
O23 C35 1_555 1_555
O24 C42 1_555 1_555
O25 C42 1_555 1_555
O26 C43 1_555 1_555
O27 C43 1_555 1_555
O28 Zn6 1_555 1_555
O29 Zn5 1_555 1_555
O32 C58 1_555 1_555
O33 C59 1_555 1_555
O34 C60 1_555 1_555
O35 Zn6 1_555 1_555
O36 Zn5 1_555 1_555
N7 H19 1_555 1_555
N8 H20 1_555 1_555
N9 H21 1_555 1_555
N10 H22 1_555 1_555
N11 H23 1_555 1_555
N12 H24 1_555 1_555
C34 C36 1_555 1_555
C35 C38 1_555 1_555
C36 C37 1_555 1_555
C37 H25 1_555 1_555
C38 C37 1_555 1_555
C39 C38 1_555 1_555
H26 C39 1_555 1_555
C40 N7 1_555 1_555
C41 C36 1_555 1_555
H27 C41 1_555 1_555
C42 C44 1_555 1_555
C43 C46 1_555 1_555
C44 C45 1_555 1_555
C45 H28 1_555 1_555
C46 C45 1_555 1_555
C47 C46 1_555 1_555
H29 C47 1_555 1_555
C48 N9 1_555 1_555
C49 C44 1_555 1_555
H30 C49 1_555 1_555
C50 O28 1_555 1_555
C52 C50 1_555 1_555
C53 C52 1_555 1_555
H31 C53 1_555 1_555
C54 C53 1_555 1_555
C55 C54 1_555 1_555
H32 C55 1_555 1_555
C56 N12 1_555 1_555
C57 C52 1_555 1_555
H33 C57 1_555 1_555
C58 N7 1_555 1_555
C59 N9 1_555 1_555
C60 N11 1_555 1_555
C61 N8 1_555 1_555
C62 C61 1_555 1_555
H34 C62 1_555 1_555
C63 N10 1_555 1_555
C64 C63 1_555 1_555
H35 C64 1_555 1_555
C65 N11 1_555 1_555
C66 C61 1_555 1_555
H36 C66 1_555 1_555
Zn7 O20 1_555 1_555
Zn10 O21 1_555 1_555
Zn13 O22 1_555 1_555
Zn14 O7 1_555 1_555
Zn15 O6 1_555 1_555
Zn16 O25 1_555 1_555
Zn17 O23 1_555 1_555
Zn18 O8 1_555 1_555
Zn19 O5 1_555 1_555
Zn20 O24 1_555 1_555
O37 Zn1 1_555 1_555
O38 Zn2 1_555 1_555
O39 Zn3 1_555 1_555
O40 Zn4 1_555 1_555
O41 Zn6 1_555 1_555
O42 Zn4 1_555 1_555
O43 Zn5 1_555 1_555
O44 Zn3 1_555 1_555
O45 Zn3 1_555 1_555
O46 Zn5 1_555 1_555
O47 Zn4 1_555 1_555
O48 Zn6 1_555 1_555
O49 Zn2 1_555 1_555
O50 Zn2 1_555 1_555
O51 Zn1 1_555 1_555
O52 Zn1 1_555 1_555
N2 C25 1_555 1_555
N4 C26 1_555 1_555
N6 C27 1_555 1_555
C6 C7 1_555 1_555
C7 C8 1_555 1_555
C14 C15 1_555 1_555
C15 C16 1_555 1_555
C22 C23 1_555 1_555
C23 C24 1_555 1_555
C29 C30 1_555 1_555
C31 C32 1_555 1_555
C32 C33 1_555 1_555
O26 Zn15 1_555 1_555
O27 Zn19 1_555 1_555
O29 C50 1_555 1_555
N8 C58 1_555 1_555
N10 C59 1_555 1_555
N12 C60 1_555 1_555
C39 C40 1_555 1_555
C40 C41 1_555 1_555
C47 C48 1_555 1_555
C48 C49 1_555 1_555
C55 C56 1_555 1_555
C56 C57 1_555 1_555
C62 C63 1_555 1_555
C64 C65 1_555 1_555
C65 C66 1_555 1_555
O30 C51 1_555 1_555
O31 C51 1_555 1_555
Zn9 O31 1_555 1_555
Zn12 O30 1_555 1_555
O11 C18 1_555 1_555
O12 C18 1_555 1_555
Zn8 O12 1_555 1_555
Zn11 O11 1_555 1_555
O49 C51_2 1_555 1_555
O51 C51_2 1_555 1_555
O16_2 Zn7 1_555 1_555
O17_2 Zn10 1_555 1_555
O20_2 C34_2 1_555 1_555
O21_2 C34_2 1_555 1_555
O22_2 C35_2 1_555 1_555
O23_2 C35_2 1_555 1_555
O24_2 C42_2 1_555 1_555
O25_2 C42_2 1_555 1_555
O26_2 C43_2 1_555 1_555
O27_2 C43_2 1_555 1_555
O28_2 Zn17 1_555 1_555
O29_2 Zn13 1_555 1_555
O32_2 C58_2 1_555 1_555
O33_2 C59_2 1_555 1_555
O34_2 C60_2 1_555 1_555
O35_2 Zn17 1_555 1_555
O36_2 Zn13 1_555 1_555
N7_2 H19_2 1_555 1_555
N8_2 H20_2 1_555 1_555
N9_2 H21_2 1_555 1_555
N10_2 H22_2 1_555 1_555
N11_2 H23_2 1_555 1_555
N12_2 H24_2 1_555 1_555
C34_2 C36_2 1_555 1_555
C35_2 C38_2 1_555 1_555
C36_2 C37_2 1_555 1_555
C37_2 H25_2 1_555 1_555
C38_2 C37_2 1_555 1_555
C39_2 C38_2 1_555 1_555
H26_2 C39_2 1_555 1_555
C40_2 N7_2 1_555 1_555
C41_2 C36_2 1_555 1_555
H27_2 C41_2 1_555 1_555
C42_2 C44_2 1_555 1_555
C43_2 C46_2 1_555 1_555
C44_2 C45_2 1_555 1_555
C45_2 H28_2 1_555 1_555
C46_2 C45_2 1_555 1_555
C47_2 C46_2 1_555 1_555
H29_2 C47_2 1_555 1_555
C48_2 N9_2 1_555 1_555
C49_2 C44_2 1_555 1_555
H30_2 C49_2 1_555 1_555
C50_2 O28_2 1_555 1_555
C52_2 C50_2 1_555 1_555
C53_2 C52_2 1_555 1_555
H31_2 C53_2 1_555 1_555
C54_2 C53_2 1_555 1_555
C55_2 C54_2 1_555 1_555
H32_2 C55_2 1_555 1_555
C56_2 N12_2 1_555 1_555
C57_2 C52_2 1_555 1_555
H33_2 C57_2 1_555 1_555
C58_2 N7_2 1_555 1_555
C59_2 N9_2 1_555 1_555
C60_2 N11_2 1_555 1_555
C61_2 N8_2 1_555 1_555
C62_2 C61_2 1_555 1_555
H34_2 C62_2 1_555 1_555
C63_2 N10_2 1_555 1_555
C64_2 C63_2 1_555 1_555
H35_2 C64_2 1_555 1_555
C65_2 N11_2 1_555 1_555
C66_2 C61_2 1_555 1_555
H36_2 C66_2 1_555 1_555
Zn8 O20_2 1_555 1_555
Zn11 O21_2 1_555 1_555
Zn13_2 O22_2 1_555 1_555
Zn16_2 O25_2 1_555 1_555
Zn17_2 O23_2 1_555 1_555
Zn20_2 O24_2 1_555 1_555
O37_2 Zn7 1_555 1_555
O38_2 Zn10 1_555 1_555
O41_2 Zn17 1_555 1_555
O43_2 Zn13 1_555 1_555
O46_2 Zn13 1_555 1_555
O48_2 Zn17 1_555 1_555
O49_2 Zn10 1_555 1_555
O50_2 Zn10 1_555 1_555
O51_2 Zn7 1_555 1_555
O52_2 Zn7 1_555 1_555
O26_2 Zn16 1_555 1_555
O27_2 Zn20 1_555 1_555
O29_2 C50_2 1_555 1_555
N8_2 C58_2 1_555 1_555
N10_2 C59_2 1_555 1_555
N12_2 C60_2 1_555 1_555
C39_2 C40_2 1_555 1_555
C40_2 C41_2 1_555 1_555
C47_2 C48_2 1_555 1_555
C48_2 C49_2 1_555 1_555
C55_2 C56_2 1_555 1_555
C56_2 C57_2 1_555 1_555
C62_2 C63_2 1_555 1_555
C64_2 C65_2 1_555 1_555
C65_2 C66_2 1_555 1_555
O49_2 C51_3 1_555 1_555
O51_2 C51_3 1_555 1_555
O16_3 Zn8 1_555 1_555
O17_3 Zn11 1_555 1_555
O20_3 C34_3 1_555 1_555
O21_3 C34_3 1_555 1_555
O39 C35_3 1_555 1_555
O40 C35_3 1_555 1_555
O24_3 C42_3 1_555 1_555
O25_3 C42_3 1_555 1_555
O26_3 C43_3 1_555 1_555
O27_3 C43_3 1_555 1_555
O28_3 Zn17_2 1_555 1_555
O29_3 Zn13_2 1_555 1_555
O32_3 C58_3 1_555 1_555
O33_3 C59_3 1_555 1_555
O34_3 C60_3 1_555 1_555
O35_3 Zn17_2 1_555 1_555
O36_3 Zn13_2 1_555 1_555
N7_3 H19_3 1_555 1_555
N8_3 H20_3 1_555 1_555
N9_3 H21_3 1_555 1_555
N10_3 H22_3 1_555 1_555
N11_3 H23_3 1_555 1_555
N12_3 H24_3 1_555 1_555
C34_3 C36_3 1_555 1_555
C35_3 C38_3 1_555 1_555
C36_3 C37_3 1_555 1_555
C37_3 H25_3 1_555 1_555
C38_3 C37_3 1_555 1_555
C39_3 C38_3 1_555 1_555
H26_3 C39_3 1_555 1_555
C40_3 N7_3 1_555 1_555
C41_3 C36_3 1_555 1_555
H27_3 C41_3 1_555 1_555
C42_3 C44_3 1_555 1_555
C43_3 C46_3 1_555 1_555
C44_3 C45_3 1_555 1_555
C45_3 H28_3 1_555 1_555
C46_3 C45_3 1_555 1_555
C47_3 C46_3 1_555 1_555
H29_3 C47_3 1_555 1_555
C48_3 N9_3 1_555 1_555
C49_3 C44_3 1_555 1_555
H30_3 C49_3 1_555 1_555
C50_3 O28_3 1_555 1_555
C52_3 C50_3 1_555 1_555
C53_3 C52_3 1_555 1_555
H31_3 C53_3 1_555 1_555
C54_3 C53_3 1_555 1_555
C55_3 C54_3 1_555 1_555
H32_3 C55_3 1_555 1_555
C56_3 N12_3 1_555 1_555
C57_3 C52_3 1_555 1_555
H33_3 C57_3 1_555 1_555
C58_3 N7_3 1_555 1_555
C59_3 N9_3 1_555 1_555
C60_3 N11_3 1_555 1_555
C61_3 N8_3 1_555 1_555
C62_3 C61_3 1_555 1_555
H34_3 C62_3 1_555 1_555
C63_3 N10_3 1_555 1_555
C64_3 C63_3 1_555 1_555
H35_3 C64_3 1_555 1_555
C65_3 N11_3 1_555 1_555
C66_3 C61_3 1_555 1_555
H36_3 C66_3 1_555 1_555
Zn9 O20_3 1_555 1_555
Zn12 O21_3 1_555 1_555
Zn14 O25_3 1_555 1_555
Zn18 O24_3 1_555 1_555
O37_3 Zn8 1_555 1_555
O38_3 Zn11 1_555 1_555
O41_3 Zn17_2 1_555 1_555
O43_3 Zn13_2 1_555 1_555
O46_3 Zn13_2 1_555 1_555
O48_3 Zn17_2 1_555 1_555
O50_3 Zn11 1_555 1_555
O52_3 Zn8 1_555 1_555
O26_3 Zn16_2 1_555 1_555
O27_3 Zn20_2 1_555 1_555
O29_3 C50_3 1_555 1_555
N8_3 C58_3 1_555 1_555
N10_3 C59_3 1_555 1_555
N12_3 C60_3 1_555 1_555
C39_3 C40_3 1_555 1_555
C40_3 C41_3 1_555 1_555
C47_3 C48_3 1_555 1_555
C48_3 C49_3 1_555 1_555
C55_3 C56_3 1_555 1_555
C56_3 C57_3 1_555 1_555
C62_3 C63_3 1_555 1_555
C64_3 C65_3 1_555 1_555
C65_3 C66_3 1_555 1_555
O16_4 Zn9 1_555 1_555
O17_4 Zn12 1_555 1_555
O37_4 Zn9 1_555 1_555
O38_4 Zn12 1_555 1_555
O50_4 Zn12 1_555 1_555
O52_4 Zn9 1_555 1_555
O20_4 C34_4 1_555 1_555
O21_4 C34_4 1_555 1_555
O22_3 C35_4 1_555 1_555
O23_3 C35_4 1_555 1_555
O24_4 C42_4 1_555 1_555
O25_4 C42_4 1_555 1_555
O32_4 C58_4 1_555 1_555
N7_4 H19_4 1_555 1_555
N8_4 H20_4 1_555 1_555
C34_4 C36_4 1_555 1_555
C35_4 C38_4 1_555 1_555
C36_4 C37_4 1_555 1_555
C37_4 H25_4 1_555 1_555
C38_4 C37_4 1_555 1_555
C39_4 C38_4 1_555 1_555
H26_4 C39_4 1_555 1_555
C40_4 N7_4 1_555 1_555
C41_4 C36_4 1_555 1_555
H27_4 C41_4 1_555 1_555
C58_4 N7_4 1_555 1_555
C61_4 N8_4 1_555 1_555
C62_4 C61_4 1_555 1_555
H34_4 C62_4 1_555 1_555
C66_4 C61_4 1_555 1_555
H36_4 C66_4 1_555 1_555
Zn7_2 O20_4 1_555 1_555
Zn10_2 O21_4 1_555 1_555
Zn13_3 O22_3 1_555 1_555
Zn16_3 O25_4 1_555 1_555
Zn17_3 O23_3 1_555 1_555
Zn20_3 O24_4 1_555 1_555
N8_4 C58_4 1_555 1_555
C39_4 C40_4 1_555 1_555
C40_4 C41_4 1_555 1_555
Zn3_2 O10_2 1_555 1_555
Zn4_2 O9_2 1_555 1_555
O7_2 C10_2 1_555 1_555
O8_2 C10_2 1_555 1_555
O9_2 C17_2 1_555 1_555
O10_2 C17_2 1_555 1_555
O11_2 C18_2 1_555 1_555
O12_2 C18_2 1_555 1_555
O15_2 C27_2 1_555 1_555
O18_2 Zn4_2 1_555 1_555
O19_2 Zn3_2 1_555 1_555
N3_2 H3_2 1_555 1_555
N4_2 H4_2 1_555 1_555
N5_2 H5_2 1_555 1_555
N6_2 H6_2 1_555 1_555
C10_2 C13_2 1_555 1_555
C11_2 C12_2 1_555 1_555
C12_2 H10_2 1_555 1_555
C13_2 C12_2 1_555 1_555
C14_2 C13_2 1_555 1_555
H11_2 C14_2 1_555 1_555
C15_2 N3_2 1_555 1_555
C16_2 C11_2 1_555 1_555
C17_2 C19_2 1_555 1_555
C18_2 C21_2 1_555 1_555
C19_2 C20_2 1_555 1_555
C20_2 H13_2 1_555 1_555
C21_2 C20_2 1_555 1_555
C22_2 C21_2 1_555 1_555
H14_2 C22_2 1_555 1_555
C23_2 N6_2 1_555 1_555
C24_2 C19_2 1_555 1_555
H15_2 C24_2 1_555 1_555
C26_2 N3_2 1_555 1_555
C27_2 N5_2 1_555 1_555
C30_2 N4_2 1_555 1_555
C31_2 C30_2 1_555 1_555
H17_2 C31_2 1_555 1_555
C32_2 N5_2 1_555 1_555
Zn8_2 O12_2 1_555 1_555
Zn11_2 O11_2 1_555 1_555
Zn14_2 O7_2 1_555 1_555
Zn18_2 O8_2 1_555 1_555
O39_2 Zn3_2 1_555 1_555
O40_2 Zn4_2 1_555 1_555
O42_2 Zn4_2 1_555 1_555
O44_2 Zn3_2 1_555 1_555
O45_2 Zn3_2 1_555 1_555
O47_2 Zn4_2 1_555 1_555
N4_2 C26_2 1_555 1_555
N6_2 C27_2 1_555 1_555
C14_2 C15_2 1_555 1_555
C15_2 C16_2 1_555 1_555
C22_2 C23_2 1_555 1_555
C23_2 C24_2 1_555 1_555
C31_2 C32_2 1_555 1_555
Zn1_2 O1_2 1_555 1_555
Zn2_2 O2_2 1_555 1_555
O1_2 C1_2 1_555 1_555
O2_2 C1_2 1_555 1_555
O3_2 C2_2 1_555 1_555
O4_2 C2_2 1_555 1_555
O5_2 C9_2 1_555 1_555
O6_2 C9_2 1_555 1_555
O13_2 C25_2 1_555 1_555
O16_5 Zn1_2 1_555 1_555
O17_5 Zn2_2 1_555 1_555
N1_2 H1_2 1_555 1_555
N2_2 H2_2 1_555 1_555
C1_2 C3_2 1_555 1_555
C2_2 C5_2 1_555 1_555
C3_2 C4_2 1_555 1_555
C4_2 H7_2 1_555 1_555
C5_2 C4_2 1_555 1_555
C6_2 C5_2 1_555 1_555
H8_2 C6_2 1_555 1_555
C7_2 N1_2 1_555 1_555
C8_2 C3_2 1_555 1_555
H9_2 C8_2 1_555 1_555
C25_2 N1_2 1_555 1_555
C28_2 N2_2 1_555 1_555
C29_2 C28_2 1_555 1_555
H16_2 C29_2 1_555 1_555
C33_2 C28_2 1_555 1_555
H18_2 C33_2 1_555 1_555
Zn5_2 O3_2 1_555 1_555
Zn6_2 O4_2 1_555 1_555
O26_4 C43_4 1_555 1_555
O27_4 C43_4 1_555 1_555
O28_4 Zn6_2 1_555 1_555
O29_4 Zn5_2 1_555 1_555
O30_2 C51_4 1_555 1_555
O31_2 C51_4 1_555 1_555
O34_4 C60_4 1_555 1_555
O35_4 Zn6_2 1_555 1_555
O36_4 Zn5_2 1_555 1_555
N9_4 H21_4 1_555 1_555
N10_4 H22_4 1_555 1_555
N11_4 H23_4 1_555 1_555
N12_4 H24_4 1_555 1_555
C43_4 C46_4 1_555 1_555
C44_4 C45_4 1_555 1_555
C45_4 H28_4 1_555 1_555
C46_4 C45_4 1_555 1_555
C47_4 C46_4 1_555 1_555
H29_4 C47_4 1_555 1_555
C48_4 N9_4 1_555 1_555
C49_4 C44_4 1_555 1_555
C50_4 O28_4 1_555 1_555
C51_4 C54_4 1_555 1_555
C52_4 C50_4 1_555 1_555
C53_4 C52_4 1_555 1_555
H31_4 C53_4 1_555 1_555
C54_4 C53_4 1_555 1_555
C55_4 C54_4 1_555 1_555
H32_4 C55_4 1_555 1_555
C56_4 N12_4 1_555 1_555
C57_4 C52_4 1_555 1_555
H33_4 C57_4 1_555 1_555
C59_4 N9_4 1_555 1_555
C60_4 N11_4 1_555 1_555
C63_4 N10_4 1_555 1_555
C64_4 C63_4 1_555 1_555
H35_4 C64_4 1_555 1_555
C65_4 N11_4 1_555 1_555
Zn9_2 O31_2 1_555 1_555
Zn12_2 O30_2 1_555 1_555
Zn15_2 O6_2 1_555 1_555
Zn19_2 O5_2 1_555 1_555
O41_4 Zn6_2 1_555 1_555
O43_4 Zn5_2 1_555 1_555
O46_4 Zn5_2 1_555 1_555
O48_4 Zn6_2 1_555 1_555
O49_3 Zn2_2 1_555 1_555
O51_3 Zn1_2 1_555 1_555
N2_2 C25_2 1_555 1_555
C6_2 C7_2 1_555 1_555
C7_2 C8_2 1_555 1_555
O26_4 Zn15_2 1_555 1_555
O27_4 Zn19_2 1_555 1_555
O29_4 C50_4 1_555 1_555
N10_4 C59_4 1_555 1_555
N12_4 C60_4 1_555 1_555
C47_4 C48_4 1_555 1_555
C48_4 C49_4 1_555 1_555
C55_4 C56_4 1_555 1_555
C56_4 C57_4 1_555 1_555
C64_4 C65_4 1_555 1_555
O17_5 H43 1_555 1_555
O16_6 Zn1_3 1_555 1_555
O17_6 Zn2_3 1_555 1_555
O37_5 Zn1_3 1_555 1_555
O38_5 Zn2_3 1_555 1_555
O50_5 Zn2_3 1_555 1_555
O52_5 Zn1_3 1_555 1_555
O16_6 H39 1_555 1_555
O16_6 H40 1_555 1_555
O17_6 H44 1_555 1_555
O20_5 C34_5 1_555 1_555
O21_5 C34_5 1_555 1_555
O22_4 C35_5 1_555 1_555
O23_4 C35_5 1_555 1_555
O24_5 C42_5 1_555 1_555
O25_5 C42_5 1_555 1_555
O32_5 C58_5 1_555 1_555
N7_5 H19_5 1_555 1_555
N8_5 H20_5 1_555 1_555
C34_5 C36_5 1_555 1_555
C35_5 C38_5 1_555 1_555
C36_5 C37_5 1_555 1_555
C37_5 H25_5 1_555 1_555
C38_5 C37_5 1_555 1_555
C39_5 C38_5 1_555 1_555
H26_5 C39_5 1_555 1_555
C40_5 N7_5 1_555 1_555
C41_5 C36_5 1_555 1_555
H27_5 C41_5 1_555 1_555
C58_5 N7_5 1_555 1_555
C61_5 N8_5 1_555 1_555
C62_5 C61_5 1_555 1_555
H34_5 C62_5 1_555 1_555
C66_5 C61_5 1_555 1_555
H36_5 C66_5 1_555 1_555
Zn8_2 O20_5 1_555 1_555
Zn11_2 O21_5 1_555 1_555
Zn13_4 O22_4 1_555 1_555
Zn16_4 O25_5 1_555 1_555
Zn17_4 O23_4 1_555 1_555
Zn20_4 O24_5 1_555 1_555
N8_5 C58_5 1_555 1_555
C39_5 C40_5 1_555 1_555
C40_5 C41_5 1_555 1_555
O16_7 Zn7_2 1_555 1_555
O17_7 Zn10_2 1_555 1_555
O26_5 C43_5 1_555 1_555
O27_5 C43_5 1_555 1_555
O28_5 Zn17_3 1_555 1_555
O29_5 Zn13_3 1_555 1_555
O49_3 C51_5 1_555 1_555
O51_3 C51_5 1_555 1_555
O34_5 C60_5 1_555 1_555
O35_5 Zn17_3 1_555 1_555
O36_5 Zn13_3 1_555 1_555
N9_5 H21_5 1_555 1_555
N10_5 H22_5 1_555 1_555
N11_5 H23_5 1_555 1_555
N12_5 H24_5 1_555 1_555
C43_5 C46_5 1_555 1_555
C44_5 C45_5 1_555 1_555
C45_5 H28_5 1_555 1_555
C46_5 C45_5 1_555 1_555
C47_5 C46_5 1_555 1_555
H29_5 C47_5 1_555 1_555
C48_5 N9_5 1_555 1_555
C49_5 C44_5 1_555 1_555
C50_5 O28_5 1_555 1_555
C51_5 C54_5 1_555 1_555
C52_5 C50_5 1_555 1_555
C53_5 C52_5 1_555 1_555
H31_5 C53_5 1_555 1_555
C54_5 C53_5 1_555 1_555
C55_5 C54_5 1_555 1_555
H32_5 C55_5 1_555 1_555
C56_5 N12_5 1_555 1_555
C57_5 C52_5 1_555 1_555
H33_5 C57_5 1_555 1_555
C59_5 N9_5 1_555 1_555
C60_5 N11_5 1_555 1_555
C63_5 N10_5 1_555 1_555
C64_5 C63_5 1_555 1_555
H35_5 C64_5 1_555 1_555
C65_5 N11_5 1_555 1_555
O41_5 Zn17_3 1_555 1_555
O43_5 Zn13_3 1_555 1_555
O46_5 Zn13_3 1_555 1_555
O48_5 Zn17_3 1_555 1_555
O49_4 Zn10_2 1_555 1_555
O51_4 Zn7_2 1_555 1_555
O26_5 Zn16_3 1_555 1_555
O27_5 Zn20_3 1_555 1_555
O29_5 C50_5 1_555 1_555
N10_5 C59_5 1_555 1_555
N12_5 C60_5 1_555 1_555
C47_5 C48_5 1_555 1_555
C48_5 C49_5 1_555 1_555
C55_5 C56_5 1_555 1_555
C56_5 C57_5 1_555 1_555
C64_5 C65_5 1_555 1_555
O17_7 H43_2 1_555 1_555
O16_8 Zn7_3 1_555 1_555
O17_8 Zn10_3 1_555 1_555
O37_6 Zn7_3 1_555 1_555
O38_6 Zn10_3 1_555 1_555
O50_6 Zn10_3 1_555 1_555
O52_6 Zn7_3 1_555 1_555
O16_8 H39_2 1_555 1_555
O16_8 H40_2 1_555 1_555
O17_8 H44_2 1_555 1_555
O16_9 Zn8_2 1_555 1_555
O17_9 Zn11_2 1_555 1_555
O26_6 C43_6 1_555 1_555
O27_6 C43_6 1_555 1_555
O28_6 Zn17_4 1_555 1_555
O29_6 Zn13_4 1_555 1_555
O49_4 C51_6 1_555 1_555
O51_4 C51_6 1_555 1_555
O34_6 C60_6 1_555 1_555
O35_6 Zn17_4 1_555 1_555
O36_6 Zn13_4 1_555 1_555
N9_6 H21_6 1_555 1_555
N10_6 H22_6 1_555 1_555
N11_6 H23_6 1_555 1_555
N12_6 H24_6 1_555 1_555
C43_6 C46_6 1_555 1_555
C44_6 C45_6 1_555 1_555
C45_6 H28_6 1_555 1_555
C46_6 C45_6 1_555 1_555
C47_6 C46_6 1_555 1_555
H29_6 C47_6 1_555 1_555
C48_6 N9_6 1_555 1_555
C49_6 C44_6 1_555 1_555
C50_6 O28_6 1_555 1_555
C51_6 C54_6 1_555 1_555
C52_6 C50_6 1_555 1_555
C53_6 C52_6 1_555 1_555
H31_6 C53_6 1_555 1_555
C54_6 C53_6 1_555 1_555
C55_6 C54_6 1_555 1_555
H32_6 C55_6 1_555 1_555
C56_6 N12_6 1_555 1_555
C57_6 C52_6 1_555 1_555
H33_6 C57_6 1_555 1_555
C59_6 N9_6 1_555 1_555
C60_6 N11_6 1_555 1_555
C63_6 N10_6 1_555 1_555
C64_6 C63_6 1_555 1_555
H35_6 C64_6 1_555 1_555
C65_6 N11_6 1_555 1_555
O41_6 Zn17_4 1_555 1_555
O43_6 Zn13_4 1_555 1_555
O46_6 Zn13_4 1_555 1_555
O48_6 Zn17_4 1_555 1_555
O26_6 Zn16_4 1_555 1_555
O27_6 Zn20_4 1_555 1_555
O29_6 C50_6 1_555 1_555
N10_6 C59_6 1_555 1_555
N12_6 C60_6 1_555 1_555
C47_6 C48_6 1_555 1_555
C48_6 C49_6 1_555 1_555
C55_6 C56_6 1_555 1_555
C56_6 C57_6 1_555 1_555
C64_6 C65_6 1_555 1_555
O17_9 H43_3 1_555 1_555
O16_10 Zn8_3 1_555 1_555
O17_10 Zn11_3 1_555 1_555
O37_7 Zn8_3 1_555 1_555
O38_7 Zn11_3 1_555 1_555
O50_7 Zn11_3 1_555 1_555
O52_7 Zn8_3 1_555 1_555
O16_10 H39_3 1_555 1_555
O16_10 H40_3 1_555 1_555
O17_10 H44_3 1_555 1_555
O20_6 C34_6 1_555 1_555
O21_6 C34_6 1_555 1_555
O39_2 C35_6 1_555 1_555
O40_2 C35_6 1_555 1_555
O24_6 C42_6 1_555 1_555
O25_6 C42_6 1_555 1_555
O32_6 C58_6 1_555 1_555
N7_6 H19_6 1_555 1_555
N8_6 H20_6 1_555 1_555
C34_6 C36_6 1_555 1_555
C35_6 C38_6 1_555 1_555
C36_6 C37_6 1_555 1_555
C37_6 H25_6 1_555 1_555
C38_6 C37_6 1_555 1_555
C39_6 C38_6 1_555 1_555
H26_6 C39_6 1_555 1_555
C40_6 N7_6 1_555 1_555
C41_6 C36_6 1_555 1_555
H27_6 C41_6 1_555 1_555
C58_6 N7_6 1_555 1_555
C61_6 N8_6 1_555 1_555
C62_6 C61_6 1_555 1_555
H34_6 C62_6 1_555 1_555
C66_6 C61_6 1_555 1_555
H36_6 C66_6 1_555 1_555
Zn9_2 O20_6 1_555 1_555
Zn12_2 O21_6 1_555 1_555
Zn14_2 O25_6 1_555 1_555
Zn18_2 O24_6 1_555 1_555
N8_6 C58_6 1_555 1_555
C39_6 C40_6 1_555 1_555
C40_6 C41_6 1_555 1_555
O16_11 Zn9_2 1_555 1_555
O17_11 Zn12_2 1_555 1_555
O17_11 H43_4 1_555 1_555
O16_12 Zn9_3 1_555 1_555
O17_12 Zn12_3 1_555 1_555
O37_8 Zn9_3 1_555 1_555
O38_8 Zn12_3 1_555 1_555
O50_8 Zn12_3 1_555 1_555
O52_8 Zn9_3 1_555 1_555
O16_12 H39_4 1_555 1_555
O16_12 H40_4 1_555 1_555
O17_12 H44_4 1_555 1_555
O50 C18_3 1_555 1_555
O52 C18_3 1_555 1_555
O50_2 C51_7 1_555 1_555
O52_2 C51_7 1_555 1_555
Zn14_2 O10_3 1_555 1_555
Zn18_2 O9_3 1_555 1_555
O37_3 C1_3 1_555 1_555
O38_3 C1_3 1_555 1_555
O3_3 C2_3 1_555 1_555
O4_3 C2_3 1_555 1_555
O41_4 C9_3 1_555 1_555
O43_4 C9_3 1_555 1_555
O45_2 C10_3 1_555 1_555
O47_2 C10_3 1_555 1_555
O9_3 C17_3 1_555 1_555
O10_3 C17_3 1_555 1_555
O13_3 C25_3 1_555 1_555
O14_3 C26_3 1_555 1_555
O15_3 C27_3 1_555 1_555
O18_3 Zn18_2 1_555 1_555
O19_3 Zn14_2 1_555 1_555
N1_3 H1_3 1_555 1_555
N2_3 H2_3 1_555 1_555
N3_3 H3_3 1_555 1_555
N4_3 H4_3 1_555 1_555
N5_3 H5_3 1_555 1_555
N6_3 H6_3 1_555 1_555
C1_3 C3_3 1_555 1_555
C2_3 C5_3 1_555 1_555
C3_3 C4_3 1_555 1_555
C4_3 H7_3 1_555 1_555
C5_3 C4_3 1_555 1_555
C6_3 C5_3 1_555 1_555
H8_3 C6_3 1_555 1_555
C7_3 N1_3 1_555 1_555
C8_3 C3_3 1_555 1_555
H9_3 C8_3 1_555 1_555
C9_3 C11_3 1_555 1_555
C10_3 C13_3 1_555 1_555
C11_3 C12_3 1_555 1_555
C12_3 H10_3 1_555 1_555
C13_3 C12_3 1_555 1_555
C14_3 C13_3 1_555 1_555
H11_3 C14_3 1_555 1_555
C15_3 N3_3 1_555 1_555
C16_3 C11_3 1_555 1_555
H12_3 C16_3 1_555 1_555
C17_3 C19_3 1_555 1_555
C19_3 C20_3 1_555 1_555
C20_3 H13_3 1_555 1_555
C21_3 C20_3 1_555 1_555
C22_3 C21_3 1_555 1_555
H14_3 C22_3 1_555 1_555
C23_3 N6_3 1_555 1_555
C24_3 C19_3 1_555 1_555
H15_3 C24_3 1_555 1_555
C25_3 N1_3 1_555 1_555
C26_3 N3_3 1_555 1_555
C27_3 N5_3 1_555 1_555
C28_3 N2_3 1_555 1_555
C29_3 C28_3 1_555 1_555
H16_3 C29_3 1_555 1_555
C30_3 N4_3 1_555 1_555
C31_3 C30_3 1_555 1_555
H17_3 C31_3 1_555 1_555
C32_3 N5_3 1_555 1_555
C33_3 C28_3 1_555 1_555
H18_3 C33_3 1_555 1_555
Zn15_2 O3_3 1_555 1_555
Zn19_2 O4_3 1_555 1_555
O37_4 C34_7 1_555 1_555
O38_4 C34_7 1_555 1_555
O22_5 C35_7 1_555 1_555
O23_5 C35_7 1_555 1_555
O41_5 C42_7 1_555 1_555
O43_5 C42_7 1_555 1_555
O46_4 C43_7 1_555 1_555
O48_4 C43_7 1_555 1_555
O28_7 Zn19_2 1_555 1_555
O29_7 Zn15_2 1_555 1_555
O32_7 C58_7 1_555 1_555
O33_7 C59_7 1_555 1_555
O34_7 C60_7 1_555 1_555
O35_7 Zn19_2 1_555 1_555
O36_7 Zn15_2 1_555 1_555
N7_7 H19_7 1_555 1_555
N8_7 H20_7 1_555 1_555
N9_7 H21_7 1_555 1_555
N10_7 H22_7 1_555 1_555
N11_7 H23_7 1_555 1_555
N12_7 H24_7 1_555 1_555
C34_7 C36_7 1_555 1_555
C35_7 C38_7 1_555 1_555
C36_7 C37_7 1_555 1_555
C37_7 H25_7 1_555 1_555
C38_7 C37_7 1_555 1_555
C39_7 C38_7 1_555 1_555
H26_7 C39_7 1_555 1_555
C40_7 N7_7 1_555 1_555
C41_7 C36_7 1_555 1_555
H27_7 C41_7 1_555 1_555
C42_7 C44_7 1_555 1_555
C43_7 C46_7 1_555 1_555
C44_7 C45_7 1_555 1_555
C45_7 H28_7 1_555 1_555
C46_7 C45_7 1_555 1_555
C47_7 C46_7 1_555 1_555
H29_7 C47_7 1_555 1_555
C48_7 N9_7 1_555 1_555
C49_7 C44_7 1_555 1_555
H30_7 C49_7 1_555 1_555
C50_7 O28_7 1_555 1_555
C52_7 C50_7 1_555 1_555
C53_7 C52_7 1_555 1_555
H31_7 C53_7 1_555 1_555
C54_7 C53_7 1_555 1_555
C55_7 C54_7 1_555 1_555
H32_7 C55_7 1_555 1_555
C56_7 N12_7 1_555 1_555
C57_7 C52_7 1_555 1_555
H33_7 C57_7 1_555 1_555
C58_7 N7_7 1_555 1_555
C59_7 N9_7 1_555 1_555
C60_7 N11_7 1_555 1_555
C61_7 N8_7 1_555 1_555
C62_7 C61_7 1_555 1_555
H34_7 C62_7 1_555 1_555
C63_7 N10_7 1_555 1_555
C64_7 C63_7 1_555 1_555
H35_7 C64_7 1_555 1_555
C65_7 N11_7 1_555 1_555
C66_7 C61_7 1_555 1_555
H36_7 C66_7 1_555 1_555
Zn16_3 O22_5 1_555 1_555
Zn20_3 O23_5 1_555 1_555
O39_3 Zn14_2 1_555 1_555
O40_3 Zn18_2 1_555 1_555
N2_3 C25_3 1_555 1_555
N4_3 C26_3 1_555 1_555
N6_3 C27_3 1_555 1_555
C6_3 C7_3 1_555 1_555
C7_3 C8_3 1_555 1_555
C14_3 C15_3 1_555 1_555
C15_3 C16_3 1_555 1_555
C22_3 C23_3 1_555 1_555
C23_3 C24_3 1_555 1_555
C29_3 C30_3 1_555 1_555
C31_3 C32_3 1_555 1_555
C32_3 C33_3 1_555 1_555
O29_7 C50_7 1_555 1_555
N8_7 C58_7 1_555 1_555
N10_7 C59_7 1_555 1_555
N12_7 C60_7 1_555 1_555
C39_7 C40_7 1_555 1_555
C40_7 C41_7 1_555 1_555
C47_7 C48_7 1_555 1_555
C48_7 C49_7 1_555 1_555
C55_7 C56_7 1_555 1_555
C56_7 C57_7 1_555 1_555
C62_7 C63_7 1_555 1_555
C64_7 C65_7 1_555 1_555
C65_7 C66_7 1_555 1_555
O37 C34_8 1_555 1_555
O38 C34_8 1_555 1_555
O22_6 C35_8 1_555 1_555
O23_6 C35_8 1_555 1_555
O41_6 C42_8 1_555 1_555
O43_6 C42_8 1_555 1_555
O46_5 C43_8 1_555 1_555
O48_5 C43_8 1_555 1_555
O28_8 Zn20_3 1_555 1_555
O29_8 Zn16_3 1_555 1_555
O32_8 C58_8 1_555 1_555
O33_8 C59_8 1_555 1_555
O34_8 C60_8 1_555 1_555
O35_8 Zn20_3 1_555 1_555
O36_8 Zn16_3 1_555 1_555
N7_8 H19_8 1_555 1_555
N8_8 H20_8 1_555 1_555
N9_8 H21_8 1_555 1_555
N10_8 H22_8 1_555 1_555
N11_8 H23_8 1_555 1_555
N12_8 H24_8 1_555 1_555
C34_8 C36_8 1_555 1_555
C35_8 C38_8 1_555 1_555
C36_8 C37_8 1_555 1_555
C37_8 H25_8 1_555 1_555
C38_8 C37_8 1_555 1_555
C39_8 C38_8 1_555 1_555
H26_8 C39_8 1_555 1_555
C40_8 N7_8 1_555 1_555
C41_8 C36_8 1_555 1_555
H27_8 C41_8 1_555 1_555
C42_8 C44_8 1_555 1_555
C43_8 C46_8 1_555 1_555
C44_8 C45_8 1_555 1_555
C45_8 H28_8 1_555 1_555
C46_8 C45_8 1_555 1_555
C47_8 C46_8 1_555 1_555
H29_8 C47_8 1_555 1_555
C48_8 N9_8 1_555 1_555
C49_8 C44_8 1_555 1_555
H30_8 C49_8 1_555 1_555
C50_8 O28_8 1_555 1_555
C52_8 C50_8 1_555 1_555
C53_8 C52_8 1_555 1_555
H31_8 C53_8 1_555 1_555
C54_8 C53_8 1_555 1_555
C55_8 C54_8 1_555 1_555
H32_8 C55_8 1_555 1_555
C56_8 N12_8 1_555 1_555
C57_8 C52_8 1_555 1_555
H33_8 C57_8 1_555 1_555
C58_8 N7_8 1_555 1_555
C59_8 N9_8 1_555 1_555
C60_8 N11_8 1_555 1_555
C61_8 N8_8 1_555 1_555
C62_8 C61_8 1_555 1_555
H34_8 C62_8 1_555 1_555
C63_8 N10_8 1_555 1_555
C64_8 C63_8 1_555 1_555
H35_8 C64_8 1_555 1_555
C65_8 N11_8 1_555 1_555
C66_8 C61_8 1_555 1_555
H36_8 C66_8 1_555 1_555
Zn16_4 O22_6 1_555 1_555
Zn20_4 O23_6 1_555 1_555
O29_8 C50_8 1_555 1_555
N8_8 C58_8 1_555 1_555
N10_8 C59_8 1_555 1_555
N12_8 C60_8 1_555 1_555
C39_8 C40_8 1_555 1_555
C40_8 C41_8 1_555 1_555
C47_8 C48_8 1_555 1_555
C48_8 C49_8 1_555 1_555
C55_8 C56_8 1_555 1_555
C56_8 C57_8 1_555 1_555
C62_8 C63_8 1_555 1_555
C64_8 C65_8 1_555 1_555
C65_8 C66_8 1_555 1_555
O50_3 C51_8 1_555 1_555
O52_3 C51_8 1_555 1_555
O37_2 C34_9 1_555 1_555
O38_2 C34_9 1_555 1_555
O39_3 C35_9 1_555 1_555
O40_3 C35_9 1_555 1_555
O42_2 C42_9 1_555 1_555
O44_2 C42_9 1_555 1_555
O46_6 C43_9 1_555 1_555
O48_6 C43_9 1_555 1_555
O28_9 Zn20_4 1_555 1_555
O29_9 Zn16_4 1_555 1_555
O32_9 C58_9 1_555 1_555
O33_9 C59_9 1_555 1_555
O34_9 C60_9 1_555 1_555
O35_9 Zn20_4 1_555 1_555
O36_9 Zn16_4 1_555 1_555
N7_9 H19_9 1_555 1_555
N8_9 H20_9 1_555 1_555
N9_9 H21_9 1_555 1_555
N10_9 H22_9 1_555 1_555
N11_9 H23_9 1_555 1_555
N12_9 H24_9 1_555 1_555
C34_9 C36_9 1_555 1_555
C35_9 C38_9 1_555 1_555
C36_9 C37_9 1_555 1_555
C37_9 H25_9 1_555 1_555
C38_9 C37_9 1_555 1_555
C39_9 C38_9 1_555 1_555
H26_9 C39_9 1_555 1_555
C40_9 N7_9 1_555 1_555
C41_9 C36_9 1_555 1_555
H27_9 C41_9 1_555 1_555
C42_9 C44_9 1_555 1_555
C43_9 C46_9 1_555 1_555
C44_9 C45_9 1_555 1_555
C45_9 H28_9 1_555 1_555
C46_9 C45_9 1_555 1_555
C47_9 C46_9 1_555 1_555
H29_9 C47_9 1_555 1_555
C48_9 N9_9 1_555 1_555
C49_9 C44_9 1_555 1_555
H30_9 C49_9 1_555 1_555
C50_9 O28_9 1_555 1_555
C52_9 C50_9 1_555 1_555
C53_9 C52_9 1_555 1_555
H31_9 C53_9 1_555 1_555
C54_9 C53_9 1_555 1_555
C55_9 C54_9 1_555 1_555
H32_9 C55_9 1_555 1_555
C56_9 N12_9 1_555 1_555
C57_9 C52_9 1_555 1_555
H33_9 C57_9 1_555 1_555
C58_9 N7_9 1_555 1_555
C59_9 N9_9 1_555 1_555
C60_9 N11_9 1_555 1_555
C61_9 N8_9 1_555 1_555
C62_9 C61_9 1_555 1_555
H34_9 C62_9 1_555 1_555
C63_9 N10_9 1_555 1_555
C64_9 C63_9 1_555 1_555
H35_9 C64_9 1_555 1_555
C65_9 N11_9 1_555 1_555
C66_9 C61_9 1_555 1_555
H36_9 C66_9 1_555 1_555
O29_9 C50_9 1_555 1_555
N8_9 C58_9 1_555 1_555
N10_9 C59_9 1_555 1_555
N12_9 C60_9 1_555 1_555
C39_9 C40_9 1_555 1_555
C40_9 C41_9 1_555 1_555
C47_9 C48_9 1_555 1_555
C48_9 C49_9 1_555 1_555
C55_9 C56_9 1_555 1_555
C56_9 C57_9 1_555 1_555
C62_9 C63_9 1_555 1_555
C64_9 C65_9 1_555 1_555
C65_9 C66_9 1_555 1_555
O50_4 C51_9 1_555 1_555
O52_4 C51_9 1_555 1_555
O16_9 H39_5 1_555 1_555
O16_9 H40_5 1_555 1_555
O17_9 H44_5 1_555 1_555
O37_7 C1_4 1_555 1_555
O38_7 C1_4 1_555 1_555
O3_4 C2_4 1_555 1_555
O4_4 C2_4 1_555 1_555
O41 C9_4 1_555 1_555
O43 C9_4 1_555 1_555
O13_4 C25_4 1_555 1_555
N1_4 H1_4 1_555 1_555
N2_4 H2_4 1_555 1_555
C1_4 C3_4 1_555 1_555
C2_4 C5_4 1_555 1_555
C3_4 C4_4 1_555 1_555
C4_4 H7_4 1_555 1_555
C5_4 C4_4 1_555 1_555
C6_4 C5_4 1_555 1_555
H8_4 C6_4 1_555 1_555
C7_4 N1_4 1_555 1_555
C8_4 C3_4 1_555 1_555
H9_4 C8_4 1_555 1_555
C25_4 N1_4 1_555 1_555
C28_4 N2_4 1_555 1_555
C29_4 C28_4 1_555 1_555
H16_4 C29_4 1_555 1_555
C33_4 C28_4 1_555 1_555
H18_4 C33_4 1_555 1_555
Zn15 O3_4 1_555 1_555
Zn19 O4_4 1_555 1_555
O46 C43_10 1_555 1_555
O48 C43_10 1_555 1_555
O28_10 Zn19 1_555 1_555
O29_10 Zn15 1_555 1_555
O50_6 C51_10 1_555 1_555
O52_6 C51_10 1_555 1_555
O34_10 C60_10 1_555 1_555
O35_10 Zn19 1_555 1_555
O36_10 Zn15 1_555 1_555
N9_10 H21_10 1_555 1_555
N10_10 H22_10 1_555 1_555
N11_10 H23_10 1_555 1_555
N12_10 H24_10 1_555 1_555
C43_10 C46_10 1_555 1_555
C44_10 C45_10 1_555 1_555
C45_10 H28_10 1_555 1_555
C46_10 C45_10 1_555 1_555
C47_10 C46_10 1_555 1_555
H29_10 C47_10 1_555 1_555
C48_10 N9_10 1_555 1_555
C49_10 C44_10 1_555 1_555
C50_10 O28_10 1_555 1_555
C51_10 C54_10 1_555 1_555
C52_10 C50_10 1_555 1_555
C53_10 C52_10 1_555 1_555
H31_10 C53_10 1_555 1_555
C54_10 C53_10 1_555 1_555
C55_10 C54_10 1_555 1_555
H32_10 C55_10 1_555 1_555
C56_10 N12_10 1_555 1_555
C57_10 C52_10 1_555 1_555
H33_10 C57_10 1_555 1_555
C59_10 N9_10 1_555 1_555
C60_10 N11_10 1_555 1_555
C63_10 N10_10 1_555 1_555
C64_10 C63_10 1_555 1_555
H35_10 C64_10 1_555 1_555
C65_10 N11_10 1_555 1_555
N2_4 C25_4 1_555 1_555
C6_4 C7_4 1_555 1_555
C7_4 C8_4 1_555 1_555
O29_10 C50_10 1_555 1_555
N10_10 C59_10 1_555 1_555
N12_10 C60_10 1_555 1_555
C47_10 C48_10 1_555 1_555
C48_10 C49_10 1_555 1_555
C55_10 C56_10 1_555 1_555
C56_10 C57_10 1_555 1_555
C64_10 C65_10 1_555 1_555
O17_10 H43_5 1_555 1_555
Zn14 O10_4 1_555 1_555
Zn18 O9_4 1_555 1_555
O45 C10_4 1_555 1_555
O47 C10_4 1_555 1_555
O9_4 C17_4 1_555 1_555
O10_4 C17_4 1_555 1_555
O50_5 C18_4 1_555 1_555
O52_5 C18_4 1_555 1_555
O15_4 C27_4 1_555 1_555
O18_4 Zn18 1_555 1_555
O19_4 Zn14 1_555 1_555
N3_4 H3_4 1_555 1_555
N4_4 H4_4 1_555 1_555
N5_4 H5_4 1_555 1_555
N6_4 H6_4 1_555 1_555
C10_4 C13_4 1_555 1_555
C11_4 C12_4 1_555 1_555
C12_4 H10_4 1_555 1_555
C13_4 C12_4 1_555 1_555
C14_4 C13_4 1_555 1_555
H11_4 C14_4 1_555 1_555
C15_4 N3_4 1_555 1_555
C16_4 C11_4 1_555 1_555
C17_4 C19_4 1_555 1_555
C18_4 C21_4 1_555 1_555
C19_4 C20_4 1_555 1_555
C20_4 H13_4 1_555 1_555
C21_4 C20_4 1_555 1_555
C22_4 C21_4 1_555 1_555
H14_4 C22_4 1_555 1_555
C23_4 N6_4 1_555 1_555
C24_4 C19_4 1_555 1_555
H15_4 C24_4 1_555 1_555
C26_4 N3_4 1_555 1_555
C27_4 N5_4 1_555 1_555
C30_4 N4_4 1_555 1_555
C31_4 C30_4 1_555 1_555
H17_4 C31_4 1_555 1_555
C32_4 N5_4 1_555 1_555
O39_4 Zn14 1_555 1_555
O40_4 Zn18 1_555 1_555
N4_4 C26_4 1_555 1_555
N6_4 C27_4 1_555 1_555
C14_4 C15_4 1_555 1_555
C15_4 C16_4 1_555 1_555
C22_4 C23_4 1_555 1_555
C23_4 C24_4 1_555 1_555
C31_4 C32_4 1_555 1_555
O37_8 C34_10 1_555 1_555
O38_8 C34_10 1_555 1_555
O22_7 C35_10 1_555 1_555
O23_7 C35_10 1_555 1_555
O41_2 C42_10 1_555 1_555
O43_2 C42_10 1_555 1_555
O32_10 C58_10 1_555 1_555
N7_10 H19_10 1_555 1_555
N8_10 H20_10 1_555 1_555
C34_10 C36_10 1_555 1_555
C35_10 C38_10 1_555 1_555
C36_10 C37_10 1_555 1_555
C37_10 H25_10 1_555 1_555
C38_10 C37_10 1_555 1_555
C39_10 C38_10 1_555 1_555
H26_10 C39_10 1_555 1_555
C40_10 N7_10 1_555 1_555
C41_10 C36_10 1_555 1_555
H27_10 C41_10 1_555 1_555
C58_10 N7_10 1_555 1_555
C61_10 N8_10 1_555 1_555
C62_10 C61_10 1_555 1_555
H34_10 C62_10 1_555 1_555
C66_10 C61_10 1_555 1_555
H36_10 C66_10 1_555 1_555
Zn16 O22_7 1_555 1_555
Zn20 O23_7 1_555 1_555
N8_10 C58_10 1_555 1_555
C39_10 C40_10 1_555 1_555
C40_10 C41_10 1_555 1_555
O16_11 H39_6 1_555 1_555
O16_11 H40_6 1_555 1_555
O17_11 H44_6 1_555 1_555
O46_2 C43_11 1_555 1_555
O48_2 C43_11 1_555 1_555
O28_11 Zn20 1_555 1_555
O29_11 Zn16 1_555 1_555
O50_7 C51_11 1_555 1_555
O52_7 C51_11 1_555 1_555
O34_11 C60_11 1_555 1_555
O35_11 Zn20 1_555 1_555
O36_11 Zn16 1_555 1_555
N9_11 H21_11 1_555 1_555
N10_11 H22_11 1_555 1_555
N11_11 H23_11 1_555 1_555
N12_11 H24_11 1_555 1_555
C43_11 C46_11 1_555 1_555
C44_11 C45_11 1_555 1_555
C45_11 H28_11 1_555 1_555
C46_11 C45_11 1_555 1_555
C47_11 C46_11 1_555 1_555
H29_11 C47_11 1_555 1_555
C48_11 N9_11 1_555 1_555
C49_11 C44_11 1_555 1_555
C50_11 O28_11 1_555 1_555
C51_11 C54_11 1_555 1_555
C52_11 C50_11 1_555 1_555
C53_11 C52_11 1_555 1_555
H31_11 C53_11 1_555 1_555
C54_11 C53_11 1_555 1_555
C55_11 C54_11 1_555 1_555
H32_11 C55_11 1_555 1_555
C56_11 N12_11 1_555 1_555
C57_11 C52_11 1_555 1_555
H33_11 C57_11 1_555 1_555
C59_11 N9_11 1_555 1_555
C60_11 N11_11 1_555 1_555
C63_11 N10_11 1_555 1_555
C64_11 C63_11 1_555 1_555
H35_11 C64_11 1_555 1_555
C65_11 N11_11 1_555 1_555
O29_11 C50_11 1_555 1_555
N10_11 C59_11 1_555 1_555
N12_11 C60_11 1_555 1_555
C47_11 C48_11 1_555 1_555
C48_11 C49_11 1_555 1_555
C55_11 C56_11 1_555 1_555
C56_11 C57_11 1_555 1_555
C64_11 C65_11 1_555 1_555
O17_12 H43_6 1_555 1_555
O37_5 C34_11 1_555 1_555
O38_5 C34_11 1_555 1_555
O22_8 C35_11 1_555 1_555
O23_8 C35_11 1_555 1_555
O41_3 C42_11 1_555 1_555
O43_3 C42_11 1_555 1_555
O32_11 C58_11 1_555 1_555
N7_11 H19_11 1_555 1_555
N8_11 H20_11 1_555 1_555
C34_11 C36_11 1_555 1_555
C35_11 C38_11 1_555 1_555
C36_11 C37_11 1_555 1_555
C37_11 H25_11 1_555 1_555
C38_11 C37_11 1_555 1_555
C39_11 C38_11 1_555 1_555
H26_11 C39_11 1_555 1_555
C40_11 N7_11 1_555 1_555
C41_11 C36_11 1_555 1_555
H27_11 C41_11 1_555 1_555
C58_11 N7_11 1_555 1_555
C61_11 N8_11 1_555 1_555
C62_11 C61_11 1_555 1_555
H34_11 C62_11 1_555 1_555
C66_11 C61_11 1_555 1_555
H36_11 C66_11 1_555 1_555
Zn16_2 O22_8 1_555 1_555
Zn20_2 O23_8 1_555 1_555
N8_11 C58_11 1_555 1_555
C39_11 C40_11 1_555 1_555
C40_11 C41_11 1_555 1_555
O37_6 C34_12 1_555 1_555
O38_6 C34_12 1_555 1_555
O39_4 C35_12 1_555 1_555
O40_4 C35_12 1_555 1_555
O42 C42_12 1_555 1_555
O44 C42_12 1_555 1_555
O32_12 C58_12 1_555 1_555
N7_12 H19_12 1_555 1_555
N8_12 H20_12 1_555 1_555
C34_12 C36_12 1_555 1_555
C35_12 C38_12 1_555 1_555
C36_12 C37_12 1_555 1_555
C37_12 H25_12 1_555 1_555
C38_12 C37_12 1_555 1_555
C39_12 C38_12 1_555 1_555
H26_12 C39_12 1_555 1_555
C40_12 N7_12 1_555 1_555
C41_12 C36_12 1_555 1_555
H27_12 C41_12 1_555 1_555
C58_12 N7_12 1_555 1_555
C61_12 N8_12 1_555 1_555
C62_12 C61_12 1_555 1_555
H34_12 C62_12 1_555 1_555
C66_12 C61_12 1_555 1_555
H36_12 C66_12 1_555 1_555
N8_12 C58_12 1_555 1_555
C39_12 C40_12 1_555 1_555
C40_12 C41_12 1_555 1_555
O16_5 H39_7 1_555 1_555
O16_5 H40_7 1_555 1_555
O17_5 H44_7 1_555 1_555
O46_3 C43_12 1_555 1_555
O48_3 C43_12 1_555 1_555
O28_12 Zn20_2 1_555 1_555
O29_12 Zn16_2 1_555 1_555
O50_8 C51_12 1_555 1_555
O52_8 C51_12 1_555 1_555
O34_12 C60_12 1_555 1_555
O35_12 Zn20_2 1_555 1_555
O36_12 Zn16_2 1_555 1_555
N9_12 H21_12 1_555 1_555
N10_12 H22_12 1_555 1_555
N11_12 H23_12 1_555 1_555
N12_12 H24_12 1_555 1_555
C43_12 C46_12 1_555 1_555
C44_12 C45_12 1_555 1_555
C45_12 H28_12 1_555 1_555
C46_12 C45_12 1_555 1_555
C47_12 C46_12 1_555 1_555
H29_12 C47_12 1_555 1_555
C48_12 N9_12 1_555 1_555
C49_12 C44_12 1_555 1_555
C50_12 O28_12 1_555 1_555
C51_12 C54_12 1_555 1_555
C52_12 C50_12 1_555 1_555
C53_12 C52_12 1_555 1_555
H31_12 C53_12 1_555 1_555
C54_12 C53_12 1_555 1_555
C55_12 C54_12 1_555 1_555
H32_12 C55_12 1_555 1_555
C56_12 N12_12 1_555 1_555
C57_12 C52_12 1_555 1_555
H33_12 C57_12 1_555 1_555
C59_12 N9_12 1_555 1_555
C60_12 N11_12 1_555 1_555
C63_12 N10_12 1_555 1_555
C64_12 C63_12 1_555 1_555
H35_12 C64_12 1_555 1_555
C65_12 N11_12 1_555 1_555
O29_12 C50_12 1_555 1_555
N10_12 C59_12 1_555 1_555
N12_12 C60_12 1_555 1_555
C47_12 C48_12 1_555 1_555
C48_12 C49_12 1_555 1_555
C55_12 C56_12 1_555 1_555
C56_12 C57_12 1_555 1_555
C64_12 C65_12 1_555 1_555
O17_6 H43_7 1_555 1_555
O16_7 H39_8 1_555 1_555
O16_7 H40_8 1_555 1_555
O17_7 H44_8 1_555 1_555
O17_8 H43_8 1_555 1_555

#END
