
###############################################################################
#
# This file contains modified crystal structure data generated from the
# MOF subset of the Cambridge Structural Database (CSD) v543 
# hosted by the Cambridge Crystallographic Data Centre (CCDC).
#
# This work is licensed under the Creative Commons
# Attribution-NonCommercial-ShareAlike 4.0 International License.
# To view a copy of this license, visit
# http://creativecommons.org/licenses/by-nc-sa/4.0/
# or send a letter to
# Creative Commons, PO Box 1866, Mountain View, CA 94042, USA.
#
# CIF created using the CSD Python API on 29 September 2022
# The structure has been converted into the P1 space group
# The structure has a 3D framework
# The original CSD entry ALEJAE is in the trigonal crystal system
# The original CSD entry ALEJAE is in a Sohncke space group
# The framework has been calculated to contain at least 10.0% void space
# The void calculation uses a probe of radius 1.32A, grid spacing 0.4
# H atom positions have been added when not included in the experimental data
# Generated hydrogen atom positions removed from atoms on special positions
#
###############################################################################

data_ALEJAE
_chemical_formula_moiety         '(C182 H162 In11 N36 O66)n'
_symmetry_cell_setting           triclinic
_symmetry_space_group_name_H-M   'P 1'
_symmetry_Int_Tables_number      1
_space_group_name_Hall           'P 1'
loop_
_symmetry_equiv_pos_site_id
_symmetry_equiv_pos_as_xyz
1 x,y,z
_cell_length_a                   24.4186(5)
_cell_length_b                   24.4186(5)
_cell_length_c                   55.4757(11)
_cell_angle_alpha                90
_cell_angle_beta                 90
_cell_angle_gamma                120
_cell_volume                     28646.7
loop_
_atom_site_label
_atom_site_type_symbol
_atom_site_fract_x
_atom_site_fract_y
_atom_site_fract_z
O6 O 0.0086(3) 0.2994(4) 0.22046(8)
In5 In 0.00000(6) 0.37164(4) 0.1667
In9 In 0.04949(4) 0.27100(3) 0.19189(2)
O18 O 0.2994(4) 0.0086(3) 0.77954(8)
In4 In 0.37164(4) 0.00000(6) 0.8333
In8 In 0.27100(3) 0.04949(4) 0.80811(2)
In1 In 0.62836(4) 0.62836(4) 0.5000
In2 In 0.77849(3) 0.72900(3) 0.47478(2)
O1 O 0.7635(3) 0.6345(3) 0.47460(9)
O2 O 0.6684(3) 0.5686(3) 0.49132(9)
O5 O 0.9771(3) 0.3662(3) 0.20510(8)
O7 O 0.7890(4) 0.1258(4) 0.44333(14)
O8 O 0.8071(4) 0.4104(3) 0.41900(12)
O9 O 0.8916(4) 0.2620(4) 0.33387(11)
O10 O 0.7155(3) 0.7155(3) 0.5000
O11 O 0.8455(3) 0.7461(3) 0.44819(10)
O12 O 0.5404(3) 0.5404(3) 0.5000
N1 N 0.7387(4) 0.3717(4) 0.45067(14)
H1 H 0.7161 0.3380 0.4589
N2 N 0.7648(4) 0.3063(4) 0.43047(14)
H2 H 0.7437 0.2809 0.4420
N3 N 0.8252(5) 0.0685(5) 0.42292(18)
H3 H 0.8386 0.0659 0.4089
N4 N 0.8347(5) 0.1577(5) 0.40524(17)
H4 H 0.8543 0.1503 0.3940
N5 N 0.8523(4) 0.3192(4) 0.35214(14)
H5 H 0.8474 0.3514 0.3503
N6 N 0.8909(4) 0.3439(4) 0.31408(13)
H6 H 0.8815 0.3734 0.3156
C1 C 0.7192(5) 0.5815(5) 0.48091(14)
C2 C 0.7274(5) 0.5271(5) 0.47385(12)
C3 C 0.6794(5) 0.4675(5) 0.47922(13)
H7 H 0.6450 0.4624 0.4882
C4 C 0.6815(5) 0.4135(5) 0.47118(15)
H8 H 0.6492 0.3726 0.4745
C5 C 0.7359(6) 0.4256(5) 0.45778(16)
C6 C 0.7840(5) 0.4854(6) 0.45219(17)
H9 H 0.8193 0.4913 0.4437
C7 C 0.7784(4) 0.5386(4) 0.45987(14)
H10 H 0.8084 0.5796 0.4555
C8 C 0.7732(4) 0.3664(5) 0.43216(14)
C9 C 0.7860(4) 0.2816(5) 0.41274(19)
C10 C 0.7954(4) 0.2318(5) 0.41946(16)
H11 H 0.7831 0.2134 0.4346
C11 C 0.8239(5) 0.2099(5) 0.4029(2)
C12 C 0.8428(5) 0.2366(6) 0.3802(2)
H12 H 0.8619 0.2223 0.3694
C13 C 0.8316(5) 0.2873(6) 0.37414(18)
C14 C 0.8042(5) 0.3097(5) 0.3902(2)
H13 H 0.7981 0.3431 0.3860
C15 C 0.8137(3) 0.1182(5) 0.42571(18)
C16 C 0.8186(5) 0.0223(5) 0.43898(19)
C17 C 0.7882(4) 0.0116(4) 0.46097(17)
H14 H 0.7745 0.0382 0.4669
C23 C 0.8791(3) 0.3054(4) 0.33334(17)
C24 C 0.9169(4) 0.3404(4) 0.29188(14)
C25 C 0.9445(4) 0.3049(4) 0.28745(15)
H18 H 0.9484 0.2814 0.2999
C26 C 0.9668(4) 0.3032(4) 0.26481(13)
H19 H 0.9857 0.2789 0.2621
C27 C 0.9613(4) 0.3380(4) 0.24584(12)
C28 C 0.9352(5) 0.3748(5) 0.25010(13)
H20 H 0.9339 0.3998 0.2377
C29 C 0.9102(5) 0.3762(5) 0.27290(16)
H21 H 0.8901 0.3995 0.2755
C30 C 0.9849(5) 0.3356(5) 0.22118(14)
In3 In 0.72900(3) 0.77849(3) 0.52522(2)
O13 O 0.6345(3) 0.7635(3) 0.52540(9)
O14 O 0.5686(3) 0.6684(3) 0.50868(9)
O17 O 0.3662(3) 0.9771(3) 0.79490(8)
O19 O 0.1258(4) 0.7890(4) 0.55667(14)
O20 O 0.4104(3) 0.8071(4) 0.58100(12)
O21 O 0.2620(4) 0.8916(4) 0.66613(11)
O22 O 0.7461(3) 0.8455(3) 0.55181(10)
N7 N 0.3717(4) 0.7387(4) 0.54933(14)
H22 H 0.3380 0.7161 0.5411
N8 N 0.3063(4) 0.7648(4) 0.56953(14)
H23 H 0.2809 0.7437 0.5580
N9 N 0.0685(5) 0.8252(5) 0.57708(18)
H24 H 0.0659 0.8386 0.5911
N10 N 0.1577(5) 0.8347(5) 0.59476(17)
H25 H 0.1503 0.8543 0.6060
N11 N 0.3192(4) 0.8523(4) 0.64786(14)
H26 H 0.3514 0.8474 0.6497
N12 N 0.3439(4) 0.8909(4) 0.68592(13)
H27 H 0.3734 0.8815 0.6844
C31 C 0.5815(5) 0.7192(5) 0.51909(14)
C32 C 0.5271(5) 0.7274(5) 0.52615(12)
C33 C 0.4675(5) 0.6794(5) 0.52078(13)
H28 H 0.4624 0.6450 0.5118
C34 C 0.4135(5) 0.6815(5) 0.52882(15)
H29 H 0.3726 0.6492 0.5255
C35 C 0.4256(5) 0.7359(6) 0.54222(16)
C36 C 0.4854(6) 0.7840(5) 0.54781(17)
H30 H 0.4913 0.8193 0.5563
C37 C 0.5386(4) 0.7784(4) 0.54013(14)
H31 H 0.5796 0.8084 0.5445
C38 C 0.3664(5) 0.7732(4) 0.56784(14)
C39 C 0.2816(5) 0.7860(4) 0.58726(19)
C40 C 0.2318(5) 0.7954(4) 0.58054(16)
H32 H 0.2134 0.7831 0.5654
C41 C 0.2099(5) 0.8239(5) 0.5971(2)
C42 C 0.2366(6) 0.8428(5) 0.6198(2)
H33 H 0.2223 0.8619 0.6306
C43 C 0.2873(6) 0.8316(5) 0.62586(18)
C44 C 0.3097(5) 0.8042(5) 0.6098(2)
H34 H 0.3431 0.7981 0.6140
C45 C 0.1182(5) 0.8137(3) 0.57429(18)
C46 C 0.0223(5) 0.8186(5) 0.56102(19)
C47 C 0.0116(4) 0.7882(4) 0.53903(17)
H35 H 0.0382 0.7745 0.5331
C53 C 0.3054(4) 0.8791(3) 0.66666(17)
C54 C 0.3404(4) 0.9169(4) 0.70812(14)
C55 C 0.3049(4) 0.9445(4) 0.71255(15)
H39 H 0.2814 0.9484 0.7001
C56 C 0.3032(4) 0.9668(4) 0.73519(13)
H40 H 0.2789 0.9857 0.7379
C57 C 0.3380(4) 0.9613(4) 0.75416(12)
C58 C 0.3748(5) 0.9352(5) 0.74990(13)
H41 H 0.3998 0.9339 0.7623
C59 C 0.3762(5) 0.9102(5) 0.72710(16)
H42 H 0.3995 0.8901 0.7245
C60 C 0.3356(5) 0.9849(5) 0.77882(14)
In4_2 In 0.37164(4) 1.00000(6) 0.8333
In5_2 In 1.00000(6) 0.37164(4) 0.1667
O23 O 0.7552(3) 0.8528(3) 0.49959(8)
O24 O 0.8528(3) 0.7552(3) 0.50041(8)
O25 O 0.7969(3) 0.8222(3) 0.47021(9)
O26 O 0.8222(3) 0.7969(3) 0.52979(9)
O27 O 0.6338(3) 0.6109(4) 0.53843(8)
O28 O 0.6109(4) 0.6338(3) 0.46157(8)
O29 O 0.7006(4) 0.7092(5) 0.55379(8)
O30 O 0.7092(5) 0.7006(4) 0.44621(8)
C18 C 0.7793(4) 0.9581(4) 0.47382(15)
H15 H 0.7589 0.9494 0.4887
C19 C 0.7987(4) 0.9191(4) 0.46571(14)
C20 C 0.8293(5) 0.9297(5) 0.44273(17)
H16 H 0.8409 0.9014 0.4368
C21 C 0.8414(5) 0.9831(5) 0.42936(17)
H17 H 0.8632 0.9927 0.4148
C22 C 0.7864(5) 0.8622(5) 0.47978(15)
C48 C 0.9581(4) 0.7793(4) 0.52618(15)
H36 H 0.9494 0.7589 0.5113
C49 C 0.9191(4) 0.7987(4) 0.53429(14)
C50 C 0.9297(5) 0.8293(5) 0.55727(17)
H37 H 0.9014 0.8409 0.5632
C51 C 0.9831(5) 0.8414(5) 0.57064(17)
H38 H 0.9927 0.8632 0.5852
C52 C 0.8622(5) 0.7864(5) 0.52022(15)
O3 O 0.1472(3) 0.9024(4) 0.83292(8)
O4 O 0.1778(3) 0.9747(4) 0.80354(9)
C18_2 C 0.0419(4) 0.8212(6) 0.80715(15)
H15_2 H 0.0506 0.8095 0.8220
C19_2 C 0.0809(4) 0.8796(6) 0.79904(14)
C20_2 C 0.0703(5) 0.8996(7) 0.77606(17)
H16_2 H 0.0986 0.9395 0.7701
C21_2 C 0.0169(5) 0.8583(7) 0.76269(17)
H17_2 H 0.0073 0.8705 0.7481
C22_2 C 0.1378(5) 0.9242(7) 0.81311(15)
In11 In 0.22151(3) 0.95051(4) 0.85855(2)
O1_2 O 0.3655(3) 0.1290(4) 0.80793(9)
O2_2 O 0.4314(3) 0.0998(4) 0.82465(9)
O7_2 O 0.8742(4) 0.6632(6) 0.77666(14)
O8_2 O 0.5896(3) 0.3967(5) 0.75233(12)
O9_2 O 0.7380(4) 0.6296(6) 0.66720(11)
O10_2 O 0.2845(3) -0.0000(4) 0.8333
O11_2 O 0.2539(3) 0.0994(4) 0.78152(10)
O12_2 O 0.4596(3) -0.0000(4) 0.8333
N1_2 N 0.6283(4) 0.3670(6) 0.78400(14)
H1_2 H 0.6620 0.3781 0.7922
N2_2 N 0.6937(4) 0.4585(6) 0.76380(14)
H2_2 H 0.7191 0.4628 0.7753
N3_2 N 0.9315(5) 0.7567(7) 0.75625(18)
H3_2 H 0.9341 0.7727 0.7422
N4_2 N 0.8423(5) 0.6770(7) 0.73857(17)
H4_2 H 0.8497 0.7040 0.7273
N5_2 N 0.6808(4) 0.5331(6) 0.68547(14)
H5_2 H 0.6486 0.4960 0.6836
N6_2 N 0.6561(4) 0.5470(6) 0.64741(13)
H6_2 H 0.6266 0.5081 0.6489
C1_2 C 0.4185(5) 0.1377(7) 0.81424(14)
C2_2 C 0.4729(5) 0.2003(7) 0.80718(12)
C3_2 C 0.5325(5) 0.2119(7) 0.81255(13)
H7_2 H 0.5376 0.1826 0.8215
C4_2 C 0.5865(5) 0.2680(7) 0.80451(15)
H8_2 H 0.6274 0.2766 0.8078
C5_2 C 0.5744(5) 0.3103(8) 0.79111(16)
C6_2 C 0.5146(6) 0.2986(8) 0.78552(17)
H9_2 H 0.5087 0.3280 0.7770
C7_2 C 0.4614(4) 0.2398(6) 0.79320(14)
H10_2 H 0.4204 0.2288 0.7888
C8_2 C 0.6336(5) 0.4068(6) 0.76549(14)
C9_2 C 0.7184(5) 0.5044(6) 0.74607(19)
C10_2 C 0.7682(5) 0.5636(6) 0.75279(16)
H11_2 H 0.7866 0.5697 0.7679
C11_2 C 0.7901(5) 0.6140(7) 0.7362(2)
C12_2 C 0.7634(6) 0.6062(8) 0.7135(2)
H12_2 H 0.7777 0.6396 0.7027
C13_2 C 0.7127(6) 0.5443(8) 0.70747(18)
C14_2 C 0.6903(5) 0.4945(7) 0.7235(2)
H13_2 H 0.6569 0.4550 0.7193
C15_2 C 0.8818(5) 0.6955(6) 0.75904(18)
C16_2 C 0.9777(5) 0.7963(7) 0.77231(19)
C17_2 C 0.9884(4) 0.7766(6) 0.79430(17)
H14_2 H 0.9618 0.7363 0.8002
C23_2 C 0.6946(4) 0.5737(5) 0.66667(17)
C24_2 C 0.6596(4) 0.5765(6) 0.62521(14)
C25_2 C 0.6951(4) 0.6396(6) 0.62078(15)
H18_2 H 0.7186 0.6670 0.6332
C26_2 C 0.6968(4) 0.6636(6) 0.59814(13)
H19_2 H 0.7211 0.7068 0.5954
C27_2 C 0.6620(4) 0.6233(6) 0.57917(12)
C28_2 C 0.6252(5) 0.5604(7) 0.58343(13)
H20_2 H 0.6002 0.5341 0.5710
C29_2 C 0.6238(5) 0.5340(7) 0.60623(16)
H21_2 H 0.6005 0.4906 0.6088
C30_2 C 0.6644(5) 0.6493(7) 0.55451(14)
O24_2 O 0.2448(3) 0.0976(4) 0.83374(8)
O26_2 O 0.2031(3) 0.0253(4) 0.86312(9)
O27_2 O 0.3891(4) 0.0229(5) 0.87177(8)
H43 H 0.48821 0.0301095 0.845705
O17_2 O 0.0229(3) 0.3891(4) 0.12823(8)
N12_2 N 0.1091(4) 0.4530(6) 0.01925(13)
H27_2 H 0.1185 0.4919 0.0177
C53_2 C 0.1209(3) 0.4263(5) -0.00001(17)
C54_2 C 0.0831(4) 0.4235(6) 0.04145(14)
C55_2 C 0.0555(4) 0.3604(6) 0.04588(15)
H39_2 H 0.0516 0.3330 0.0334
C56_2 C 0.0332(4) 0.3364(6) 0.06852(13)
H40_2 H 0.0143 0.2932 0.0712
C57_2 C 0.0387(4) 0.3767(6) 0.08749(12)
C58_2 C 0.0648(5) 0.4396(7) 0.08323(13)
H41_2 H 0.0661 0.4659 0.0956
C59_2 C 0.0898(5) 0.4660(7) 0.06043(16)
H42_2 H 0.1099 0.5094 0.0578
C60_2 C 0.0151(5) 0.3507(7) 0.11215(14)
O10_3 O 0.2845(3) 1.0000(4) 0.8333
O12_3 O 0.4596(3) 1.0000(4) 0.8333
O13_2 O 0.2365(3) 0.8710(4) 0.85873(9)
O14_2 O 0.3316(3) 0.9002(4) 0.84201(9)
O19_2 O 0.2110(4) 0.3368(6) 0.89000(14)
O20_2 O 0.1929(4) 0.6033(5) 0.91433(12)
O21_2 O 0.1084(4) 0.3704(6) 0.99946(11)
O22_2 O 0.1545(3) 0.9006(4) 0.88514(10)
N7_2 N 0.2613(4) 0.6330(6) 0.88266(14)
H22_2 H 0.2839 0.6219 0.8744
N8_2 N 0.2352(4) 0.5415(6) 0.90286(14)
H23_2 H 0.2563 0.5372 0.8913
N9_2 N 0.1748(5) 0.2433(7) 0.91041(18)
H24_2 H 0.1614 0.2273 0.9244
N10_2 N 0.1653(5) 0.3230(7) 0.92809(17)
H25_2 H 0.1457 0.2960 0.9393
N11_2 N 0.1477(4) 0.4669(6) 0.98119(14)
H26_2 H 0.1526 0.5040 0.9830
C31_2 C 0.2808(5) 0.8623(7) 0.85242(14)
C32_2 C 0.2726(5) 0.7997(7) 0.85948(12)
C33_2 C 0.3206(5) 0.7881(7) 0.85411(13)
H28_2 H 0.3550 0.8174 0.8451
C34_2 C 0.3185(5) 0.7320(7) 0.86215(15)
H29_2 H 0.3508 0.7234 0.8588
C35_2 C 0.2641(6) 0.6897(8) 0.87555(16)
C36_2 C 0.2160(5) 0.7014(8) 0.88114(17)
H30_2 H 0.1807 0.6720 0.8896
C37_2 C 0.2216(4) 0.7602(6) 0.87346(14)
H31_2 H 0.1916 0.7712 0.8778
C38_2 C 0.2268(4) 0.5932(6) 0.90117(14)
C39_2 C 0.2140(4) 0.4956(6) 0.92059(19)
C40_2 C 0.2046(4) 0.4364(6) 0.91387(16)
H32_2 H 0.2169 0.4303 0.8987
C41_2 C 0.1761(5) 0.3860(7) 0.9304(2)
C42_2 C 0.1572(5) 0.3938(8) 0.9531(2)
H33_2 H 0.1381 0.3604 0.9639
C43_2 C 0.1684(5) 0.4557(8) 0.95919(18)
C44_2 C 0.1958(5) 0.5055(7) 0.9431(2)
H34_2 H 0.2019 0.5450 0.9473
C45_2 C 0.1863(3) 0.3045(6) 0.90762(18)
C46_2 C 0.1814(5) 0.2037(7) 0.89435(19)
C47_2 C 0.2118(4) 0.2234(6) 0.87236(17)
H35_2 H 0.2255 0.2637 0.8664
C48_2 C 0.2207(4) 0.1788(6) 0.85951(15)
H36_2 H 0.2411 0.1905 0.8446
C49_2 C 0.2013(4) 0.1204(6) 0.86762(14)
C50_2 C 0.1707(5) 0.1004(7) 0.89060(17)
H37_2 H 0.1591 0.0605 0.8965
C51_2 C 0.1586(5) 0.1417(7) 0.90397(17)
H38_2 H 0.1368 0.1295 0.9185
C52_2 C 0.2136(5) 0.0758(7) 0.85355(15)
C53_3 C 0.1209(3) 0.4263(5) 0.99999(17)
O29_2 O 0.2908(5) 0.9914(6) 0.88713(8)
H44 H 0.451574 0.956838 0.837087
O18_2 O 0.9914(3) 0.2908(5) 0.11287(8)
In8_2 In 0.95051(4) 0.22151(5) 0.14145(2)
O15 O 0.9024(4) 0.1472(3) 0.16708(8)
O16 O 0.9747(4) 0.1778(3) 0.19646(9)
C48_3 C 0.8212(6) 0.0419(4) 0.19285(15)
H36_3 H 0.8095 0.0506 0.1780
C49_3 C 0.8796(6) 0.0809(4) 0.20096(14)
C50_3 C 0.8996(7) 0.0703(5) 0.22394(17)
H37_3 H 0.9395 0.0986 0.2299
C51_3 C 0.8583(7) 0.0169(5) 0.23731(17)
H38_3 H 0.8705 0.0073 0.2519
C52_3 C 0.9242(7) 0.1378(5) 0.18689(15)
O10_4 O 0.0000(4) 0.2845(3) 0.1667
O12_4 O 0.0000(4) 0.4596(3) 0.1667
O13_3 O 0.1290(4) 0.3655(3) 0.19207(9)
O14_3 O 0.0998(4) 0.4314(3) 0.17535(9)
O19_3 O 0.6632(6) 0.8742(4) 0.22334(14)
O20_3 O 0.3967(5) 0.5896(3) 0.24767(12)
O21_3 O 0.6296(6) 0.7380(4) 0.33280(11)
O22_3 O 0.0994(4) 0.2539(3) 0.21848(10)
N7_3 N 0.3670(6) 0.6283(4) 0.21600(14)
H22_3 H 0.3781 0.6620 0.2078
N8_3 N 0.4585(6) 0.6937(4) 0.23620(14)
H23_3 H 0.4628 0.7191 0.2247
N9_3 N 0.7567(7) 0.9315(5) 0.24375(18)
H24_3 H 0.7727 0.9341 0.2578
N10_3 N 0.6770(7) 0.8423(5) 0.26143(17)
H25_3 H 0.7040 0.8497 0.2727
N11_3 N 0.5331(6) 0.6808(4) 0.31453(14)
H26_3 H 0.4960 0.6486 0.3164
N12_3 N 0.5470(6) 0.6561(4) 0.35259(13)
H27_3 H 0.5081 0.6266 0.3511
C31_3 C 0.1377(7) 0.4185(5) 0.18576(14)
C32_3 C 0.2003(7) 0.4729(5) 0.19282(12)
C33_3 C 0.2119(7) 0.5325(5) 0.18745(13)
H28_3 H 0.1826 0.5376 0.1785
C34_3 C 0.2680(7) 0.5865(5) 0.19549(15)
H29_3 H 0.2766 0.6274 0.1922
C35_3 C 0.3103(8) 0.5744(5) 0.20889(16)
C36_3 C 0.2986(8) 0.5146(6) 0.21448(17)
H30_3 H 0.3280 0.5087 0.2230
C37_3 C 0.2398(6) 0.4614(4) 0.20680(14)
H31_3 H 0.2288 0.4204 0.2112
C38_3 C 0.4068(6) 0.6336(5) 0.23451(14)
C39_3 C 0.5044(6) 0.7184(5) 0.25393(19)
C40_3 C 0.5636(6) 0.7682(5) 0.24721(16)
H32_3 H 0.5697 0.7866 0.2321
C41_3 C 0.6140(7) 0.7901(5) 0.2638(2)
C42_3 C 0.6062(8) 0.7634(6) 0.2865(2)
H33_3 H 0.6396 0.7777 0.2973
C43_3 C 0.5443(8) 0.7127(6) 0.29253(18)
C44_3 C 0.4945(7) 0.6903(5) 0.2765(2)
H34_3 H 0.4550 0.6569 0.2807
C45_3 C 0.6955(6) 0.8818(5) 0.24096(18)
C46_3 C 0.7963(7) 0.9777(5) 0.22769(19)
C47_3 C 0.7766(6) 0.9884(4) 0.20570(17)
H35_3 H 0.7363 0.9618 0.1998
C53_4 C 0.5737(5) 0.6946(4) 0.33333(17)
C54_3 C 0.5765(6) 0.6596(4) 0.37479(14)
C55_3 C 0.6396(6) 0.6951(4) 0.37922(15)
H39_3 H 0.6670 0.7186 0.3668
C56_3 C 0.6636(6) 0.6968(4) 0.40186(13)
H40_3 H 0.7068 0.7211 0.4046
C57_3 C 0.6233(6) 0.6620(4) 0.42083(12)
C58_3 C 0.5604(7) 0.6252(5) 0.41657(13)
H41_3 H 0.5341 0.6002 0.4290
C59_3 C 0.5340(7) 0.6238(5) 0.39377(16)
H42_3 H 0.4906 0.6005 0.3912
C60_3 C 0.6493(7) 0.6644(5) 0.44549(14)
O23_2 O 0.0976(4) 0.2448(3) 0.16626(8)
O25_2 O 0.0253(4) 0.2031(3) 0.13688(9)
H44_2 H 0.043162 0.494736 0.170421
O1_3 O 0.8710(4) 0.2365(3) 0.14127(9)
O2_3 O 0.9002(4) 0.3316(3) 0.15799(9)
O7_3 O 0.3368(6) 0.2110(4) 0.11000(14)
O8_3 O 0.6033(5) 0.1929(4) 0.08567(12)
O9_3 O 0.3704(6) 0.1084(4) 0.00054(11)
O10_5 O 1.0000(4) 0.2845(3) 0.1667
O11_3 O 0.9006(4) 0.1545(3) 0.11486(10)
O12_5 O 1.0000(4) 0.4596(3) 0.1667
N1_3 N 0.6330(6) 0.2613(4) 0.11734(14)
H1_3 H 0.6219 0.2839 0.1256
N2_3 N 0.5415(6) 0.2352(4) 0.09714(14)
H2_3 H 0.5372 0.2563 0.1087
N3_3 N 0.2433(7) 0.1748(5) 0.08959(18)
H3_3 H 0.2273 0.1614 0.0756
N4_3 N 0.3230(7) 0.1653(5) 0.07191(17)
H4_3 H 0.2960 0.1457 0.0607
N5_3 N 0.4669(6) 0.1477(4) 0.01881(14)
H5_3 H 0.5040 0.1526 0.0170
C1_3 C 0.8623(7) 0.2808(5) 0.14758(14)
C2_3 C 0.7997(7) 0.2726(5) 0.14052(12)
C3_3 C 0.7881(7) 0.3206(5) 0.14589(13)
H7_3 H 0.8174 0.3550 0.1549
C4_3 C 0.7320(7) 0.3185(5) 0.13785(15)
H8_3 H 0.7234 0.3508 0.1412
C5_3 C 0.6897(8) 0.2641(6) 0.12445(16)
C6_3 C 0.7014(8) 0.2160(5) 0.11886(17)
H9_3 H 0.6720 0.1807 0.1104
C7_3 C 0.7602(6) 0.2216(4) 0.12654(14)
H10_3 H 0.7712 0.1916 0.1222
C8_3 C 0.5932(6) 0.2268(4) 0.09883(14)
C9_3 C 0.4956(6) 0.2140(4) 0.07941(19)
C10_3 C 0.4364(6) 0.2046(4) 0.08613(16)
H11_3 H 0.4303 0.2169 0.1013
C11_3 C 0.3860(7) 0.1761(5) 0.0696(2)
C12_3 C 0.3938(8) 0.1572(5) 0.0469(2)
H12_3 H 0.3604 0.1381 0.0361
C13_3 C 0.4557(8) 0.1684(5) 0.04081(18)
C14_3 C 0.5055(7) 0.1958(5) 0.0569(2)
H13_3 H 0.5450 0.2019 0.0527
C15_3 C 0.3045(6) 0.1863(3) 0.09238(18)
C16_3 C 0.2037(7) 0.1814(5) 0.10565(19)
C17_3 C 0.2234(6) 0.2118(4) 0.12764(17)
H14_3 H 0.2637 0.2255 0.1336
C18_3 C 0.1788(6) 0.2207(4) 0.14049(15)
H15_3 H 0.1905 0.2411 0.1554
C19_3 C 0.1204(6) 0.2013(4) 0.13238(14)
C20_3 C 0.1004(7) 0.1707(5) 0.10940(17)
H16_3 H 0.0605 0.1591 0.1035
C21_3 C 0.1417(7) 0.1586(5) 0.09603(17)
H17_3 H 0.1295 0.1368 0.0815
C22_3 C 0.0758(7) 0.2136(5) 0.14645(15)
C23_3 C 0.4263(5) 0.1209(3) 0.00001(17)
H43_2 H 0.96989 0.4581 0.179039
N6_3 N 0.4530(6) 0.1091(4) 0.98075(13)
H6_3 H 0.4919 0.1185 0.9823
C23_4 C 0.4263(5) 0.1209(3) 1.00001(17)
C24_3 C 0.4235(6) 0.0831(4) 0.95855(14)
C25_3 C 0.3604(6) 0.0555(4) 0.95412(15)
H18_3 H 0.3330 0.0516 0.9666
C26_3 C 0.3364(6) 0.0332(4) 0.93148(13)
H19_3 H 0.2932 0.0143 0.9288
C27_3 C 0.3767(6) 0.0387(4) 0.91251(12)
C28_3 C 0.4396(7) 0.0648(5) 0.91677(13)
H20_3 H 0.4659 0.0661 0.9044
C29_3 C 0.4660(7) 0.0898(5) 0.93957(16)
H21_3 H 0.5094 0.1099 0.9422
C30_3 C 0.3507(7) 0.0151(5) 0.88785(14)
H43_3 H 0.0301095 0.48821 0.154295
H44_3 H 0.956838 0.451574 0.162913
H44_4 H 0.494736 0.043162 0.829579
H43_4 H 0.4581 0.96989 0.820961
loop_
_geom_bond_atom_site_label_1
_geom_bond_atom_site_label_2
_geom_bond_site_symmetry_1
_geom_bond_site_symmetry_2
In9 O6 1_555 1_555
In8 O18 1_555 1_555
In1 O2 1_555 1_555
In2 O1 1_555 1_555
O1 C1 1_555 1_555
O2 C1 1_555 1_555
O5 C30 1_555 1_555
O7 C15 1_555 1_555
O8 C8 1_555 1_555
O9 C23 1_555 1_555
O10 In1 1_555 1_555
O11 In2 1_555 1_555
O12 In1 1_555 1_555
N1 H1 1_555 1_555
N2 H2 1_555 1_555
N3 H3 1_555 1_555
N4 H4 1_555 1_555
N5 H5 1_555 1_555
N6 H6 1_555 1_555
C1 C2 1_555 1_555
C2 C3 1_555 1_555
C3 H7 1_555 1_555
C4 C3 1_555 1_555
H8 C4 1_555 1_555
C5 N1 1_555 1_555
C6 C5 1_555 1_555
H9 C6 1_555 1_555
C7 C2 1_555 1_555
H10 C7 1_555 1_555
C8 N1 1_555 1_555
C9 N2 1_555 1_555
C10 C9 1_555 1_555
H11 C10 1_555 1_555
C11 N4 1_555 1_555
C12 C11 1_555 1_555
H12 C12 1_555 1_555
C13 N5 1_555 1_555
C14 C9 1_555 1_555
H13 C14 1_555 1_555
C15 N3 1_555 1_555
C16 N3 1_555 1_555
C17 C16 1_555 1_555
H14 C17 1_555 1_555
C23 N5 1_555 1_555
C24 N6 1_555 1_555
C25 C24 1_555 1_555
H18 C25 1_555 1_555
C26 C25 1_555 1_555
H19 C26 1_555 1_555
C27 C26 1_555 1_555
C28 C27 1_555 1_555
H20 C28 1_555 1_555
C29 C24 1_555 1_555
H21 C29 1_555 1_555
C30 C27 1_555 1_555
In3 O10 1_555 1_555
O13 In3 1_555 1_555
O14 In1 1_555 1_555
O17 C60 1_555 1_555
O19 C45 1_555 1_555
O20 C38 1_555 1_555
O21 C53 1_555 1_555
O22 In3 1_555 1_555
N7 H22 1_555 1_555
N8 H23 1_555 1_555
N9 H24 1_555 1_555
N10 H25 1_555 1_555
N11 H26 1_555 1_555
N12 H27 1_555 1_555
C31 O13 1_555 1_555
C32 C31 1_555 1_555
C33 C32 1_555 1_555
H28 C33 1_555 1_555
C34 C33 1_555 1_555
H29 C34 1_555 1_555
C35 N7 1_555 1_555
C36 C35 1_555 1_555
H30 C36 1_555 1_555
C37 C32 1_555 1_555
H31 C37 1_555 1_555
C38 N7 1_555 1_555
C39 N8 1_555 1_555
C40 C39 1_555 1_555
H32 C40 1_555 1_555
C41 N10 1_555 1_555
C42 C41 1_555 1_555
H33 C42 1_555 1_555
C43 N11 1_555 1_555
C44 C39 1_555 1_555
H34 C44 1_555 1_555
C45 N9 1_555 1_555
C46 N9 1_555 1_555
C47 C46 1_555 1_555
H35 C47 1_555 1_555
C53 N11 1_555 1_555
C54 N12 1_555 1_555
C55 C54 1_555 1_555
H39 C55 1_555 1_555
C56 C55 1_555 1_555
H40 C56 1_555 1_555
C57 C56 1_555 1_555
C58 C57 1_555 1_555
H41 C58 1_555 1_555
C59 C54 1_555 1_555
H42 C59 1_555 1_555
C60 C57 1_555 1_555
In4_2 O17 1_555 1_555
In5_2 O5 1_555 1_555
O23 In3 1_555 1_555
O24 In2 1_555 1_555
O25 In2 1_555 1_555
O26 In3 1_555 1_555
O27 In1 1_555 1_555
O28 In1 1_555 1_555
O29 In3 1_555 1_555
O30 In2 1_555 1_555
In2 O10 1_555 1_555
N2 C8 1_555 1_555
N4 C15 1_555 1_555
N6 C23 1_555 1_555
C4 C5 1_555 1_555
C6 C7 1_555 1_555
C10 C11 1_555 1_555
C12 C13 1_555 1_555
C13 C14 1_555 1_555
C28 C29 1_555 1_555
O14 C31 1_555 1_555
N8 C38 1_555 1_555
N10 C45 1_555 1_555
N12 C53 1_555 1_555
C34 C35 1_555 1_555
C36 C37 1_555 1_555
C40 C41 1_555 1_555
C42 C43 1_555 1_555
C43 C44 1_555 1_555
C58 C59 1_555 1_555
O23 C22 1_555 1_555
O25 C22 1_555 1_555
H15 C18 1_555 1_555
C19 C18 1_555 1_555
C20 C19 1_555 1_555
H16 C20 1_555 1_555
H17 C21 1_555 1_555
C22 C19 1_555 1_555
C20 C21 1_555 1_555
O24 C52 1_555 1_555
O26 C52 1_555 1_555
H36 C48 1_555 1_555
C49 C48 1_555 1_555
C50 C49 1_555 1_555
H37 C50 1_555 1_555
H38 C51 1_555 1_555
C52 C49 1_555 1_555
C50 C51 1_555 1_555
O3 C22_2 1_555 1_555
O4 C22_2 1_555 1_555
H15_2 C18_2 1_555 1_555
C19_2 C18_2 1_555 1_555
C20_2 C19_2 1_555 1_555
H16_2 C20_2 1_555 1_555
H17_2 C21_2 1_555 1_555
C22_2 C19_2 1_555 1_555
In11 O3 1_555 1_555
C20_2 C21_2 1_555 1_555
In4 O2_2 1_555 1_555
In8 O1_2 1_555 1_555
O1_2 C1_2 1_555 1_555
O2_2 C1_2 1_555 1_555
O27 C30_2 1_555 1_555
O29 C30_2 1_555 1_555
O7_2 C15_2 1_555 1_555
O8_2 C8_2 1_555 1_555
O9_2 C23_2 1_555 1_555
O10_2 In4 1_555 1_555
O11_2 In8 1_555 1_555
O12_2 In4 1_555 1_555
N1_2 H1_2 1_555 1_555
N2_2 H2_2 1_555 1_555
N3_2 H3_2 1_555 1_555
N4_2 H4_2 1_555 1_555
N5_2 H5_2 1_555 1_555
N6_2 H6_2 1_555 1_555
C1_2 C2_2 1_555 1_555
C2_2 C3_2 1_555 1_555
C3_2 H7_2 1_555 1_555
C4_2 C3_2 1_555 1_555
H8_2 C4_2 1_555 1_555
C5_2 N1_2 1_555 1_555
C6_2 C5_2 1_555 1_555
H9_2 C6_2 1_555 1_555
C7_2 C2_2 1_555 1_555
H10_2 C7_2 1_555 1_555
C8_2 N1_2 1_555 1_555
C9_2 N2_2 1_555 1_555
C10_2 C9_2 1_555 1_555
H11_2 C10_2 1_555 1_555
C11_2 N4_2 1_555 1_555
C12_2 C11_2 1_555 1_555
H12_2 C12_2 1_555 1_555
C13_2 N5_2 1_555 1_555
C14_2 C9_2 1_555 1_555
H13_2 C14_2 1_555 1_555
C15_2 N3_2 1_555 1_555
C16_2 N3_2 1_555 1_555
C17_2 C16_2 1_555 1_555
H14_2 C17_2 1_555 1_555
C23_2 N5_2 1_555 1_555
C24_2 N6_2 1_555 1_555
C25_2 C24_2 1_555 1_555
H18_2 C25_2 1_555 1_555
C26_2 C25_2 1_555 1_555
H19_2 C26_2 1_555 1_555
C27_2 C26_2 1_555 1_555
C28_2 C27_2 1_555 1_555
H20_2 C28_2 1_555 1_555
C29_2 C24_2 1_555 1_555
H21_2 C29_2 1_555 1_555
C30_2 C27_2 1_555 1_555
O24_2 In8 1_555 1_555
O27_2 In4 1_555 1_555
In8 O10_2 1_555 1_555
N2_2 C8_2 1_555 1_555
N4_2 C15_2 1_555 1_555
N6_2 C23_2 1_555 1_555
C4_2 C5_2 1_555 1_555
C6_2 C7_2 1_555 1_555
C10_2 C11_2 1_555 1_555
C12_2 C13_2 1_555 1_555
C13_2 C14_2 1_555 1_555
C28_2 C29_2 1_555 1_555
O12_2 H43 1_555 1_555
O17_2 C60_2 1_555 1_555
N12_2 H27_2 1_555 1_555
C54_2 N12_2 1_555 1_555
C55_2 C54_2 1_555 1_555
H39_2 C55_2 1_555 1_555
C56_2 C55_2 1_555 1_555
H40_2 C56_2 1_555 1_555
C57_2 C56_2 1_555 1_555
C58_2 C57_2 1_555 1_555
H41_2 C58_2 1_555 1_555
C59_2 C54_2 1_555 1_555
H42_2 C59_2 1_555 1_555
C60_2 C57_2 1_555 1_555
In5 O17_2 1_555 1_555
N12_2 C53_2 1_555 1_555
C58_2 C59_2 1_555 1_555
O10_3 In4_2 1_555 1_555
O12_3 In4_2 1_555 1_555
In11 O10_3 1_555 1_555
O13_2 In11 1_555 1_555
O14_2 In4_2 1_555 1_555
O24_2 C52_2 1_555 1_555
O26_2 C52_2 1_555 1_555
O19_2 C45_2 1_555 1_555
O20_2 C38_2 1_555 1_555
O21_2 C53_3 1_555 1_555
O22_2 In11 1_555 1_555
N7_2 H22_2 1_555 1_555
N8_2 H23_2 1_555 1_555
N9_2 H24_2 1_555 1_555
N10_2 H25_2 1_555 1_555
N11_2 H26_2 1_555 1_555
C31_2 O13_2 1_555 1_555
C32_2 C31_2 1_555 1_555
C33_2 C32_2 1_555 1_555
H28_2 C33_2 1_555 1_555
C34_2 C33_2 1_555 1_555
H29_2 C34_2 1_555 1_555
C35_2 N7_2 1_555 1_555
C36_2 C35_2 1_555 1_555
H30_2 C36_2 1_555 1_555
C37_2 C32_2 1_555 1_555
H31_2 C37_2 1_555 1_555
C38_2 N7_2 1_555 1_555
C39_2 N8_2 1_555 1_555
C40_2 C39_2 1_555 1_555
H32_2 C40_2 1_555 1_555
C41_2 N10_2 1_555 1_555
C42_2 C41_2 1_555 1_555
H33_2 C42_2 1_555 1_555
C43_2 N11_2 1_555 1_555
C44_2 C39_2 1_555 1_555
H34_2 C44_2 1_555 1_555
C45_2 N9_2 1_555 1_555
C46_2 N9_2 1_555 1_555
C47_2 C46_2 1_555 1_555
H35_2 C47_2 1_555 1_555
C48_2 C47_2 1_555 1_555
H36_2 C48_2 1_555 1_555
C49_2 C48_2 1_555 1_555
C50_2 C49_2 1_555 1_555
H37_2 C50_2 1_555 1_555
C51_2 C46_2 1_555 1_555
H38_2 C51_2 1_555 1_555
C52_2 C49_2 1_555 1_555
C53_3 N11_2 1_555 1_555
O29_2 In11 1_555 1_555
O14_2 C31_2 1_555 1_555
N8_2 C38_2 1_555 1_555
N10_2 C45_2 1_555 1_555
C34_2 C35_2 1_555 1_555
C36_2 C37_2 1_555 1_555
C40_2 C41_2 1_555 1_555
C42_2 C43_2 1_555 1_555
C43_2 C44_2 1_555 1_555
C50_2 C51_2 1_555 1_555
O12_3 H44 1_555 1_555
In8_2 O18_2 1_555 1_555
O15 C52_3 1_555 1_555
O16 C52_3 1_555 1_555
H36_3 C48_3 1_555 1_555
C49_3 C48_3 1_555 1_555
C50_3 C49_3 1_555 1_555
H37_3 C50_3 1_555 1_555
H38_3 C51_3 1_555 1_555
C52_3 C49_3 1_555 1_555
In8_2 O15 1_555 1_555
C50_3 C51_3 1_555 1_555
O10_4 In5 1_555 1_555
O12_4 In5 1_555 1_555
In9 O10_4 1_555 1_555
O13_3 In9 1_555 1_555
O14_3 In5 1_555 1_555
O28 C60_3 1_555 1_555
O30 C60_3 1_555 1_555
O19_3 C45_3 1_555 1_555
O20_3 C38_3 1_555 1_555
O21_3 C53_4 1_555 1_555
O22_3 In9 1_555 1_555
N7_3 H22_3 1_555 1_555
N8_3 H23_3 1_555 1_555
N9_3 H24_3 1_555 1_555
N10_3 H25_3 1_555 1_555
N11_3 H26_3 1_555 1_555
N12_3 H27_3 1_555 1_555
C31_3 O13_3 1_555 1_555
C32_3 C31_3 1_555 1_555
C33_3 C32_3 1_555 1_555
H28_3 C33_3 1_555 1_555
C34_3 C33_3 1_555 1_555
H29_3 C34_3 1_555 1_555
C35_3 N7_3 1_555 1_555
C36_3 C35_3 1_555 1_555
H30_3 C36_3 1_555 1_555
C37_3 C32_3 1_555 1_555
H31_3 C37_3 1_555 1_555
C38_3 N7_3 1_555 1_555
C39_3 N8_3 1_555 1_555
C40_3 C39_3 1_555 1_555
H32_3 C40_3 1_555 1_555
C41_3 N10_3 1_555 1_555
C42_3 C41_3 1_555 1_555
H33_3 C42_3 1_555 1_555
C43_3 N11_3 1_555 1_555
C44_3 C39_3 1_555 1_555
H34_3 C44_3 1_555 1_555
C45_3 N9_3 1_555 1_555
C46_3 N9_3 1_555 1_555
C47_3 C46_3 1_555 1_555
H35_3 C47_3 1_555 1_555
C53_4 N11_3 1_555 1_555
C54_3 N12_3 1_555 1_555
C55_3 C54_3 1_555 1_555
H39_3 C55_3 1_555 1_555
C56_3 C55_3 1_555 1_555
H40_3 C56_3 1_555 1_555
C57_3 C56_3 1_555 1_555
C58_3 C57_3 1_555 1_555
H41_3 C58_3 1_555 1_555
C59_3 C54_3 1_555 1_555
H42_3 C59_3 1_555 1_555
C60_3 C57_3 1_555 1_555
O23_2 In9 1_555 1_555
O14_3 C31_3 1_555 1_555
N8_3 C38_3 1_555 1_555
N10_3 C45_3 1_555 1_555
N12_3 C53_4 1_555 1_555
C34_3 C35_3 1_555 1_555
C36_3 C37_3 1_555 1_555
C40_3 C41_3 1_555 1_555
C42_3 C43_3 1_555 1_555
C43_3 C44_3 1_555 1_555
C58_3 C59_3 1_555 1_555
O12_4 H44_2 1_555 1_555
In5_2 O2_3 1_555 1_555
In8_2 O1_3 1_555 1_555
O1_3 C1_3 1_555 1_555
O2_3 C1_3 1_555 1_555
O23_2 C22_3 1_555 1_555
O25_2 C22_3 1_555 1_555
O7_3 C15_3 1_555 1_555
O8_3 C8_3 1_555 1_555
O9_3 C23_3 1_555 1_555
O10_5 In5_2 1_555 1_555
O11_3 In8_2 1_555 1_555
O12_5 In5_2 1_555 1_555
N1_3 H1_3 1_555 1_555
N2_3 H2_3 1_555 1_555
N3_3 H3_3 1_555 1_555
N4_3 H4_3 1_555 1_555
N5_3 H5_3 1_555 1_555
C1_3 C2_3 1_555 1_555
C2_3 C3_3 1_555 1_555
C3_3 H7_3 1_555 1_555
C4_3 C3_3 1_555 1_555
H8_3 C4_3 1_555 1_555
C5_3 N1_3 1_555 1_555
C6_3 C5_3 1_555 1_555
H9_3 C6_3 1_555 1_555
C7_3 C2_3 1_555 1_555
H10_3 C7_3 1_555 1_555
C8_3 N1_3 1_555 1_555
C9_3 N2_3 1_555 1_555
C10_3 C9_3 1_555 1_555
H11_3 C10_3 1_555 1_555
C11_3 N4_3 1_555 1_555
C12_3 C11_3 1_555 1_555
H12_3 C12_3 1_555 1_555
C13_3 N5_3 1_555 1_555
C14_3 C9_3 1_555 1_555
H13_3 C14_3 1_555 1_555
C15_3 N3_3 1_555 1_555
C16_3 N3_3 1_555 1_555
C17_3 C16_3 1_555 1_555
H14_3 C17_3 1_555 1_555
C18_3 C17_3 1_555 1_555
H15_3 C18_3 1_555 1_555
C19_3 C18_3 1_555 1_555
C20_3 C19_3 1_555 1_555
H16_3 C20_3 1_555 1_555
C21_3 C16_3 1_555 1_555
H17_3 C21_3 1_555 1_555
C22_3 C19_3 1_555 1_555
C23_3 N5_3 1_555 1_555
In8_2 O10_5 1_555 1_555
N2_3 C8_3 1_555 1_555
N4_3 C15_3 1_555 1_555
C4_3 C5_3 1_555 1_555
C6_3 C7_3 1_555 1_555
C10_3 C11_3 1_555 1_555
C12_3 C13_3 1_555 1_555
C13_3 C14_3 1_555 1_555
C20_3 C21_3 1_555 1_555
O12_5 H43_2 1_555 1_555
O27_2 C30_3 1_555 1_555
N6_3 H6_3 1_555 1_555
C24_3 N6_3 1_555 1_555
C25_3 C24_3 1_555 1_555
H18_3 C25_3 1_555 1_555
C26_3 C25_3 1_555 1_555
H19_3 C26_3 1_555 1_555
C27_3 C26_3 1_555 1_555
C28_3 C27_3 1_555 1_555
H20_3 C28_3 1_555 1_555
C29_3 C24_3 1_555 1_555
H21_3 C29_3 1_555 1_555
C30_3 C27_3 1_555 1_555
N6_3 C23_4 1_555 1_555
C28_3 C29_3 1_555 1_555
O12_4 H43_3 1_555 1_555
O12_5 H44_3 1_555 1_555
O12_2 H44_4 1_555 1_555
O12_3 H43_4 1_555 1_555

#END
