
###############################################################################
#
# This file contains modified crystal structure data generated from the
# MOF subset of the Cambridge Structural Database (CSD) v543 
# hosted by the Cambridge Crystallographic Data Centre (CCDC).
#
# This work is licensed under the Creative Commons
# Attribution-NonCommercial-ShareAlike 4.0 International License.
# To view a copy of this license, visit
# http://creativecommons.org/licenses/by-nc-sa/4.0/
# or send a letter to
# Creative Commons, PO Box 1866, Mountain View, CA 94042, USA.
#
# CIF created using the CSD Python API on 29 September 2022
# The structure has been converted into the P1 space group
# The structure has a 3D framework
# The original CSD entry ALEJEI is in the tetragonal crystal system
# The framework has been calculated to contain at least 10.0% void space
# The void calculation uses a probe of radius 1.32A, grid spacing 0.4
# H atom positions have been added when not included in the experimental data
# Generated hydrogen atom positions removed from atoms on special positions
#
###############################################################################

data_ALEJEI
_chemical_formula_moiety         '(C528 H480 Cu56 N96 O296)n'
_symmetry_cell_setting           triclinic
_symmetry_space_group_name_H-M   'P 1'
_symmetry_Int_Tables_number      1
_space_group_name_Hall           'P 1'
loop_
_symmetry_equiv_pos_site_id
_symmetry_equiv_pos_as_xyz
1 x,y,z
_cell_length_a                   30.4638(3)
_cell_length_b                   30.4638(3)
_cell_length_c                   44.2772(7)
_cell_angle_alpha                90
_cell_angle_beta                 90
_cell_angle_gamma                90
_cell_volume                     41091.2
loop_
_atom_site_label
_atom_site_type_symbol
_atom_site_fract_x
_atom_site_fract_y
_atom_site_fract_z
Cu1 Cu 0.07384(3) 0.33819(2) 0.5000
Cu2 Cu 0.05574(3) 0.25309(2) 0.5000
Cu3 Cu 0.09764(2) 0.84406(2) 0.62788(2)
Cu4 Cu 0.13100(2) 0.79193(2) 0.66983(2)
O1 O 0.11503(12) 0.31973(9) 0.53131(7)
O2 O 0.10061(11) 0.24771(9) 0.53080(6)
O3 O 0.16474(11) 0.15495(10) 0.60870(7)
O4 O 0.20437(11) 0.18462(10) 0.64602(7)
O5 O 0.29642(11) 0.42772(10) 0.81228(7)
O6 O 0.34482(11) 0.45376(10) 0.84601(7)
O7 O 0.37612(11) 0.60916(10) 0.84783(7)
O8 O 0.35214(11) 0.65313(10) 0.81072(7)
O9 O 0.10966(11) 0.74501(10) 0.64319(7)
O10 O 0.07641(11) 0.78957(10) 0.61013(7)
O13 O 0.1655(2) 0.39277(17) 0.60570(13)
O14 O 0.27393(18) 0.48517(15) 0.72033(11)
O15 O 0.1372(3) 0.6088(2) 0.63557(16)
O16 O 0.0941(2) 0.40550(14) 0.5000
O17 O 0.0382(2) 0.18534(17) 0.5000
O18 O 0.15685(13) 0.75065(12) 0.70462(8)
O19 O 0.07105(18) 0.88619(16) 0.59398(9)
N1 N 0.21853(19) 0.34336(16) 0.61776(12)
H1 H 0.2439 0.3393 0.6269
N2 N 0.2243(2) 0.41353(19) 0.63279(15)
H2 H 0.2508 0.4057 0.6385
N3 N 0.2760(2) 0.55492(19) 0.73918(13)
H3 H 0.2680 0.5821 0.7354
N4 N 0.2428(2) 0.5418(2) 0.69478(15)
H4 H 0.2408 0.5706 0.6943
N5 N 0.1352(3) 0.5416(3) 0.61467(19)
H5 H 0.1215 0.5245 0.6017
N6 N 0.0889(2) 0.5937(2) 0.59741(15)
H6 H 0.0766 0.5723 0.5871
C1 C 0.11931(16) 0.28156(12) 0.54120(9)
C2 C 0.18336(15) 0.18611(13) 0.62151(10)
C3 C 0.14998(16) 0.27502(14) 0.56683(10)
C4 C 0.15470(15) 0.23365(14) 0.58018(9)
H7 H 0.1403 0.2087 0.5719
C5 C 0.18089(16) 0.22965(15) 0.60591(10)
C6 C 0.2022(2) 0.26554(15) 0.61750(12)
H8 H 0.2199 0.2624 0.6350
C7 C 0.1982(2) 0.30704(15) 0.60379(13)
C8 C 0.17271(19) 0.31111(15) 0.57808(12)
H9 H 0.1707 0.3386 0.5681
C9 C 0.32026(15) 0.45717(13) 0.82357(10)
C10 C 0.35705(14) 0.61673(14) 0.82364(9)
C11 C 0.32077(16) 0.50100(14) 0.80797(10)
C12 C 0.34041(14) 0.53617(14) 0.82116(9)
H10 H 0.3558 0.5326 0.8396
C13 C 0.33810(16) 0.57725(15) 0.80782(10)
C14 C 0.3172(2) 0.58228(15) 0.78054(12)
H11 H 0.3162 0.6103 0.7712
C15 C 0.2977(2) 0.54713(17) 0.76686(13)
C16 C 0.2987(2) 0.50583(16) 0.78079(13)
H12 H 0.2844 0.4814 0.7717
C17 C 0.08622(15) 0.75257(14) 0.62012(10)
C19 C 0.07064(17) 0.71397(15) 0.60293(11)
C20 C 0.04095(15) 0.71953(15) 0.57937(10)
H13 H 0.0320 0.7483 0.5738
C21 C 0.02458(18) 0.68395(15) 0.56420(11)
C22 C 0.0396(2) 0.64125(19) 0.57126(14)
H14 H 0.0281 0.6162 0.5612
C23 C 0.0718(2) 0.6369(2) 0.59333(16)
C24 C 0.0856(2) 0.67288(18) 0.61012(13)
H15 H 0.1053 0.6690 0.6265
C25 C 0.2011(3) 0.3836(2) 0.61780(16)
C26 C 0.2665(3) 0.5244(2) 0.71796(16)
C27 C 0.1224(3) 0.5834(3) 0.6159(2)
C28 C 0.2110(3) 0.4564(2) 0.64048(18)
C29 C 0.2319(3) 0.4763(2) 0.66412(18)
H16 H 0.2535 0.4610 0.6754
C30 C 0.2212(3) 0.5187(2) 0.67125(17)
C31 C 0.1925(3) 0.5412(3) 0.65472(18)
H17 H 0.1884 0.5716 0.6586
C32 C 0.1693(3) 0.5218(3) 0.6326(2)
C33 C 0.1799(3) 0.4790(2) 0.62305(19)
H18 H 0.1668 0.4661 0.6057
Cu5 Cu 0.15594(2) 0.09764(2) 0.62788(2)
Cu6 Cu 0.20807(2) 0.13100(2) 0.66983(2)
O20 O 0.68027(9) 0.11503(12) 0.53131(7)
O21 O 0.75229(9) 0.10061(11) 0.53080(6)
O22 O 0.84505(10) 0.16474(11) 0.60870(7)
O23 O 0.81538(10) 0.20437(11) 0.64602(7)
O24 O 0.57228(10) 0.29642(11) 0.81228(7)
O25 O 0.54624(10) 0.34482(11) 0.84601(7)
O26 O 0.39084(10) 0.37612(11) 0.84783(7)
O27 O 0.34687(10) 0.35214(11) 0.81072(7)
O28 O 0.25499(10) 0.10966(11) 0.64319(7)
O29 O 0.21043(10) 0.07641(11) 0.61013(7)
O32 O 0.60723(17) 0.1655(2) 0.60570(13)
O33 O 0.51483(15) 0.27393(18) 0.72033(11)
O34 O 0.3912(2) 0.1372(3) 0.63557(16)
O35 O 0.24935(12) 0.15685(13) 0.70462(8)
O36 O 0.11381(16) 0.07105(18) 0.59398(9)
N7 N 0.65664(16) 0.21853(19) 0.61776(12)
H19 H 0.6607 0.2439 0.6269
N8 N 0.58647(19) 0.2243(2) 0.63279(15)
H20 H 0.5943 0.2508 0.6385
N9 N 0.44508(19) 0.2760(2) 0.73918(13)
H21 H 0.4179 0.2680 0.7354
N10 N 0.4582(2) 0.2428(2) 0.69478(15)
H22 H 0.4294 0.2408 0.6943
N11 N 0.4584(3) 0.1352(3) 0.61467(19)
H23 H 0.4755 0.1215 0.6017
N12 N 0.4063(2) 0.0889(2) 0.59741(15)
H24 H 0.4277 0.0766 0.5871
C34 C 0.71844(12) 0.11931(16) 0.54120(9)
C35 C 0.81389(13) 0.18336(15) 0.62151(10)
C36 C 0.72498(14) 0.14998(16) 0.56683(10)
C37 C 0.76635(14) 0.15470(15) 0.58018(9)
H25 H 0.7913 0.1403 0.5719
C38 C 0.77035(15) 0.18089(16) 0.60591(10)
C39 C 0.73446(15) 0.2022(2) 0.61750(12)
H26 H 0.7376 0.2199 0.6350
C40 C 0.69296(15) 0.1982(2) 0.60379(13)
C41 C 0.68889(15) 0.17271(19) 0.57808(12)
H27 H 0.6614 0.1707 0.5681
C42 C 0.54283(13) 0.32026(15) 0.82357(10)
C43 C 0.38327(14) 0.35705(14) 0.82364(9)
C44 C 0.49900(14) 0.32077(16) 0.80797(10)
C45 C 0.46383(14) 0.34041(14) 0.82116(9)
H28 H 0.4674 0.3558 0.8396
C46 C 0.42275(15) 0.33810(16) 0.80782(10)
C47 C 0.41772(15) 0.3172(2) 0.78054(12)
H29 H 0.3897 0.3162 0.7712
C48 C 0.45287(17) 0.2977(2) 0.76686(13)
C49 C 0.49417(16) 0.2987(2) 0.78079(13)
H30 H 0.5186 0.2844 0.7717
C50 C 0.24743(14) 0.08622(15) 0.62012(10)
C52 C 0.28603(15) 0.07064(17) 0.60293(11)
C53 C 0.28047(15) 0.04095(15) 0.57937(10)
H31 H 0.2517 0.0320 0.5738
C54 C 0.31605(15) 0.02458(18) 0.56420(11)
C55 C 0.35875(19) 0.0396(2) 0.57126(14)
H32 H 0.3838 0.0281 0.5612
C56 C 0.3631(2) 0.0718(2) 0.59333(16)
C57 C 0.32712(18) 0.0856(2) 0.61012(13)
H33 H 0.3310 0.1053 0.6265
C58 C 0.6164(2) 0.2011(3) 0.61780(16)
C59 C 0.4756(2) 0.2665(3) 0.71796(16)
C60 C 0.4166(3) 0.1224(3) 0.6159(2)
C61 C 0.5436(2) 0.2110(3) 0.64048(18)
C62 C 0.5237(2) 0.2319(3) 0.66412(18)
H34 H 0.5390 0.2535 0.6754
C63 C 0.4813(2) 0.2212(3) 0.67125(17)
C64 C 0.4588(3) 0.1925(3) 0.65472(18)
H35 H 0.4284 0.1884 0.6586
C65 C 0.4782(3) 0.1693(3) 0.6326(2)
C66 C 0.5210(2) 0.1799(3) 0.62305(19)
H36 H 0.5339 0.1668 0.6057
Cu7 Cu 0.66181(2) 0.07384(3) 0.5000
Cu10 Cu 0.74691(2) 0.05574(3) 0.5000
Cu13 Cu 0.90236(2) 0.15594(2) 0.62788(2)
Cu14 Cu 0.40236(2) 0.65594(2) 0.87212(2)
Cu15 Cu 0.34406(2) 0.40236(2) 0.87212(2)
Cu16 Cu 0.59764(2) 0.34406(2) 0.87212(2)
Cu17 Cu 0.86900(2) 0.20807(2) 0.66983(2)
Cu18 Cu 0.36900(2) 0.70807(2) 0.83017(2)
Cu19 Cu 0.29193(2) 0.36900(2) 0.83017(2)
Cu20 Cu 0.63100(2) 0.29193(2) 0.83017(2)
O37 O 0.11503(12) 0.31973(9) 0.46869(7)
O38 O 0.10061(11) 0.24771(9) 0.46920(6)
O39 O 0.15495(10) 0.83526(11) 0.60870(7)
O40 O 0.18462(10) 0.79563(11) 0.64602(7)
O41 O 0.20358(11) 0.07228(10) 0.68772(7)
O42 O 0.07228(10) 0.79642(11) 0.68772(7)
O43 O 0.15518(11) 0.04624(10) 0.65399(7)
O44 O 0.04624(10) 0.84482(11) 0.65399(7)
O45 O 0.12388(11) 0.89084(10) 0.65217(7)
O46 O 0.10916(10) 0.12388(11) 0.65217(7)
O47 O 0.14786(11) 0.84687(10) 0.68928(7)
O48 O 0.15313(10) 0.14786(11) 0.68928(7)
O49 O 0.01386(11) 0.27161(9) 0.53100(7)
O50 O 0.01386(11) 0.27161(9) 0.46900(7)
O51 O 0.02826(12) 0.34377(10) 0.53063(7)
O52 O 0.02826(12) 0.34377(10) 0.46937(7)
O30 O 0.27161(9) 0.98614(11) 0.53100(7)
O31 O 0.34377(10) 0.97174(12) 0.53063(7)
C51 C 0.31025(14) 0.99092(16) 0.53994(9)
Cu9 Cu 0.33819(2) 0.92616(3) 0.5000
Cu12 Cu 0.25309(2) 0.94426(3) 0.5000
O11 O 0.98614(11) 0.72839(9) 0.53100(7)
O12 O 0.97174(12) 0.65623(10) 0.53063(7)
C18 C 0.99092(16) 0.68975(14) 0.53994(9)
Cu8 Cu 0.92616(3) 0.66181(2) 0.5000
Cu11 Cu 0.94426(3) 0.74691(2) 0.5000
C51_2 C 0.00908(16) 0.31025(14) 0.53994(9)
O16_2 O 0.59450(14) 0.0941(2) 0.5000
O17_2 O 0.81466(17) 0.0382(2) 0.5000
O20_2 O 0.88497(12) 0.68027(9) 0.53131(7)
O21_2 O 0.89939(11) 0.75229(9) 0.53080(6)
O22_2 O 0.83526(11) 0.84505(10) 0.60870(7)
O23_2 O 0.79563(11) 0.81538(10) 0.64602(7)
O24_2 O 0.70358(11) 0.57228(10) 0.81228(7)
O25_2 O 0.65518(11) 0.54624(10) 0.84601(7)
O26_2 O 0.62388(11) 0.39084(10) 0.84783(7)
O27_2 O 0.64786(11) 0.34687(10) 0.81072(7)
O28_2 O 0.89034(11) 0.25499(10) 0.64319(7)
O29_2 O 0.92359(11) 0.21043(10) 0.61013(7)
O32_2 O 0.8345(2) 0.60723(17) 0.60570(13)
O33_2 O 0.72607(18) 0.51483(15) 0.72033(11)
O34_2 O 0.8628(3) 0.3912(2) 0.63557(16)
O35_2 O 0.84315(13) 0.24935(12) 0.70462(8)
O36_2 O 0.92895(18) 0.11381(16) 0.59398(9)
N7_2 N 0.78147(19) 0.65664(16) 0.61776(12)
H19_2 H 0.7561 0.6607 0.6269
N8_2 N 0.7757(2) 0.58647(19) 0.63279(15)
H20_2 H 0.7492 0.5943 0.6385
N9_2 N 0.7240(2) 0.44508(19) 0.73918(13)
H21_2 H 0.7320 0.4179 0.7354
N10_2 N 0.7572(2) 0.4582(2) 0.69478(15)
H22_2 H 0.7592 0.4294 0.6943
N11_2 N 0.8648(3) 0.4584(3) 0.61467(19)
H23_2 H 0.8785 0.4755 0.6017
N12_2 N 0.9111(2) 0.4063(2) 0.59741(15)
H24_2 H 0.9234 0.4277 0.5871
C34_2 C 0.88069(16) 0.71844(12) 0.54120(9)
C35_2 C 0.81664(15) 0.81389(13) 0.62151(10)
C36_2 C 0.85002(16) 0.72498(14) 0.56683(10)
C37_2 C 0.84530(15) 0.76635(14) 0.58018(9)
H25_2 H 0.8597 0.7913 0.5719
C38_2 C 0.81911(16) 0.77035(15) 0.60591(10)
C39_2 C 0.7978(2) 0.73446(15) 0.61750(12)
H26_2 H 0.7801 0.7376 0.6350
C40_2 C 0.8018(2) 0.69296(15) 0.60379(13)
C41_2 C 0.82729(19) 0.68889(15) 0.57808(12)
H27_2 H 0.8293 0.6614 0.5681
C42_2 C 0.67974(15) 0.54283(13) 0.82357(10)
C43_2 C 0.64295(14) 0.38327(14) 0.82364(9)
C44_2 C 0.67923(16) 0.49900(14) 0.80797(10)
C45_2 C 0.65959(14) 0.46383(14) 0.82116(9)
H28_2 H 0.6442 0.4674 0.8396
C46_2 C 0.66190(16) 0.42275(15) 0.80782(10)
C47_2 C 0.6828(2) 0.41772(15) 0.78054(12)
H29_2 H 0.6838 0.3897 0.7712
C48_2 C 0.7023(2) 0.45287(17) 0.76686(13)
C49_2 C 0.7013(2) 0.49417(16) 0.78079(13)
H30_2 H 0.7156 0.5186 0.7717
C50_2 C 0.91378(15) 0.24743(14) 0.62012(10)
C52_2 C 0.92936(17) 0.28603(15) 0.60293(11)
C53_2 C 0.95905(15) 0.28047(15) 0.57937(10)
H31_2 H 0.9680 0.2517 0.5738
C54_2 C 0.97542(18) 0.31605(15) 0.56420(11)
C55_2 C 0.9604(2) 0.35875(19) 0.57126(14)
H32_2 H 0.9719 0.3838 0.5612
C56_2 C 0.9282(2) 0.3631(2) 0.59333(16)
C57_2 C 0.9144(2) 0.32712(18) 0.61012(13)
H33_2 H 0.8947 0.3310 0.6265
C58_2 C 0.7989(3) 0.6164(2) 0.61780(16)
C59_2 C 0.7335(3) 0.4756(2) 0.71796(16)
C60_2 C 0.8776(3) 0.4166(3) 0.6159(2)
C61_2 C 0.7890(3) 0.5436(2) 0.64048(18)
C62_2 C 0.7681(3) 0.5237(2) 0.66412(18)
H34_2 H 0.7465 0.5390 0.6754
C63_2 C 0.7788(3) 0.4813(2) 0.67125(17)
C64_2 C 0.8075(3) 0.4588(3) 0.65472(18)
H35_2 H 0.8116 0.4284 0.6586
C65_2 C 0.8307(3) 0.4782(3) 0.6326(2)
C66_2 C 0.8201(3) 0.5210(2) 0.62305(19)
H36_2 H 0.8332 0.5339 0.6057
Cu13_2 Cu 0.84406(2) 0.90236(2) 0.62788(2)
Cu16_2 Cu 0.65594(2) 0.59764(2) 0.87212(2)
Cu17_2 Cu 0.79193(2) 0.86900(2) 0.66983(2)
Cu20_2 Cu 0.70807(2) 0.63100(2) 0.83017(2)
O37_2 O 0.68027(9) 0.11503(12) 0.46869(7)
O38_2 O 0.75229(9) 0.10061(11) 0.46920(6)
O41_2 O 0.92772(10) 0.20358(11) 0.68772(7)
O43_2 O 0.95376(10) 0.15518(11) 0.65399(7)
O46_2 O 0.87612(11) 0.10916(10) 0.65217(7)
O48_2 O 0.85214(11) 0.15313(10) 0.68928(7)
O49_2 O 0.72839(9) 0.01386(11) 0.53100(7)
O50_2 O 0.72839(9) 0.01386(11) 0.46900(7)
O51_2 O 0.65623(10) 0.02826(12) 0.53063(7)
O52_2 O 0.65623(10) 0.02826(12) 0.46937(7)
C51_3 C 0.68975(14) 0.00908(16) 0.53994(9)
O16_3 O 0.9059(2) 0.59450(14) 0.5000
O17_3 O 0.9618(2) 0.81466(17) 0.5000
O20_3 O 0.31973(9) 0.88497(12) 0.53131(7)
O21_3 O 0.24771(9) 0.89939(11) 0.53080(6)
O24_3 O 0.42772(10) 0.70358(11) 0.81228(7)
O25_3 O 0.45376(10) 0.65518(11) 0.84601(7)
O26_3 O 0.60916(10) 0.62388(11) 0.84783(7)
O27_3 O 0.65313(10) 0.64786(11) 0.81072(7)
O28_3 O 0.74501(10) 0.89034(11) 0.64319(7)
O29_3 O 0.78957(10) 0.92359(11) 0.61013(7)
O32_3 O 0.39277(17) 0.8345(2) 0.60570(13)
O33_3 O 0.48517(15) 0.72607(18) 0.72033(11)
O34_3 O 0.6088(2) 0.8628(3) 0.63557(16)
O35_3 O 0.75065(12) 0.84315(13) 0.70462(8)
O36_3 O 0.88619(16) 0.92895(18) 0.59398(9)
N7_3 N 0.34336(16) 0.78147(19) 0.61776(12)
H19_3 H 0.3393 0.7561 0.6269
N8_3 N 0.41353(19) 0.7757(2) 0.63279(15)
H20_3 H 0.4057 0.7492 0.6385
N9_3 N 0.55492(19) 0.7240(2) 0.73918(13)
H21_3 H 0.5821 0.7320 0.7354
N10_3 N 0.5418(2) 0.7572(2) 0.69478(15)
H22_3 H 0.5706 0.7592 0.6943
N11_3 N 0.5416(3) 0.8648(3) 0.61467(19)
H23_3 H 0.5245 0.8785 0.6017
N12_3 N 0.5937(2) 0.9111(2) 0.59741(15)
H24_3 H 0.5723 0.9234 0.5871
C34_3 C 0.28156(12) 0.88069(16) 0.54120(9)
C35_3 C 0.18611(13) 0.81664(15) 0.62151(10)
C36_3 C 0.27502(14) 0.85002(16) 0.56683(10)
C37_3 C 0.23365(14) 0.84530(15) 0.58018(9)
H25_3 H 0.2087 0.8597 0.5719
C38_3 C 0.22965(15) 0.81911(16) 0.60591(10)
C39_3 C 0.26554(15) 0.7978(2) 0.61750(12)
H26_3 H 0.2624 0.7801 0.6350
C40_3 C 0.30704(15) 0.8018(2) 0.60379(13)
C41_3 C 0.31111(15) 0.82729(19) 0.57808(12)
H27_3 H 0.3386 0.8293 0.5681
C42_3 C 0.45717(13) 0.67974(15) 0.82357(10)
C43_3 C 0.61673(14) 0.64295(14) 0.82364(9)
C44_3 C 0.50100(14) 0.67923(16) 0.80797(10)
C45_3 C 0.53617(14) 0.65959(14) 0.82116(9)
H28_3 H 0.5326 0.6442 0.8396
C46_3 C 0.57725(15) 0.66190(16) 0.80782(10)
C47_3 C 0.58228(15) 0.6828(2) 0.78054(12)
H29_3 H 0.6103 0.6838 0.7712
C48_3 C 0.54713(17) 0.7023(2) 0.76686(13)
C49_3 C 0.50583(16) 0.7013(2) 0.78079(13)
H30_3 H 0.4814 0.7156 0.7717
C50_3 C 0.75257(14) 0.91378(15) 0.62012(10)
C52_3 C 0.71397(15) 0.92936(17) 0.60293(11)
C53_3 C 0.71953(15) 0.95905(15) 0.57937(10)
H31_3 H 0.7483 0.9680 0.5738
C54_3 C 0.68395(15) 0.97542(18) 0.56420(11)
C55_3 C 0.64125(19) 0.9604(2) 0.57126(14)
H32_3 H 0.6162 0.9719 0.5612
C56_3 C 0.6369(2) 0.9282(2) 0.59333(16)
C57_3 C 0.67288(18) 0.9144(2) 0.61012(13)
H33_3 H 0.6690 0.8947 0.6265
C58_3 C 0.3836(2) 0.7989(3) 0.61780(16)
C59_3 C 0.5244(2) 0.7335(3) 0.71796(16)
C60_3 C 0.5834(3) 0.8776(3) 0.6159(2)
C61_3 C 0.4564(2) 0.7890(3) 0.64048(18)
C62_3 C 0.4763(2) 0.7681(3) 0.66412(18)
H34_3 H 0.4610 0.7465 0.6754
C63_3 C 0.5187(2) 0.7788(3) 0.67125(17)
C64_3 C 0.5412(3) 0.8075(3) 0.65472(18)
H35_3 H 0.5716 0.8116 0.6586
C65_3 C 0.5218(3) 0.8307(3) 0.6326(2)
C66_3 C 0.4790(2) 0.8201(3) 0.62305(19)
H36_3 H 0.4661 0.8332 0.6057
O37_3 O 0.88497(12) 0.68027(9) 0.46869(7)
O38_3 O 0.89939(11) 0.75229(9) 0.46920(6)
O41_3 O 0.79642(11) 0.92772(10) 0.68772(7)
O43_3 O 0.84482(11) 0.95376(10) 0.65399(7)
O46_3 O 0.89084(10) 0.87612(11) 0.65217(7)
O48_3 O 0.84687(10) 0.85214(11) 0.68928(7)
O50_3 O 0.98614(11) 0.72839(9) 0.46900(7)
O52_3 O 0.97174(12) 0.65623(10) 0.46937(7)
O16_4 O 0.40550(14) 0.9059(2) 0.5000
O17_4 O 0.18534(17) 0.9618(2) 0.5000
O37_4 O 0.31973(9) 0.88497(12) 0.46869(7)
O38_4 O 0.24771(9) 0.89939(11) 0.46920(6)
O50_4 O 0.27161(9) 0.98614(11) 0.46900(7)
O52_4 O 0.34377(10) 0.97174(12) 0.46937(7)
O20_4 O 0.18027(9) 0.61503(12) 0.03131(7)
O21_4 O 0.25229(9) 0.60061(11) 0.03080(6)
O22_3 O 0.34505(10) 0.66474(11) 0.10870(7)
O23_3 O 0.31538(10) 0.70437(11) 0.14602(7)
O24_4 O 0.07228(10) 0.79642(11) 0.31228(7)
O25_4 O 0.04624(10) 0.84482(11) 0.34601(7)
O32_4 O 0.10723(17) 0.6655(2) 0.10570(13)
O33_4 O 0.01483(15) 0.77393(18) 0.22033(11)
N7_4 N 0.15664(16) 0.71853(19) 0.11776(12)
H19_4 H 0.1607 0.7439 0.1269
N8_4 N 0.08647(19) 0.7243(2) 0.13279(15)
H20_4 H 0.0943 0.7508 0.1385
C34_4 C 0.21844(12) 0.61931(16) 0.04120(9)
C35_4 C 0.31389(13) 0.68336(15) 0.12151(10)
C36_4 C 0.22498(14) 0.64998(16) 0.06683(10)
C37_4 C 0.26635(14) 0.65470(15) 0.08018(9)
H25_4 H 0.2913 0.6403 0.0719
C38_4 C 0.27035(15) 0.68089(16) 0.10591(10)
C39_4 C 0.23446(15) 0.7022(2) 0.11750(12)
H26_4 H 0.2376 0.7199 0.1350
C40_4 C 0.19296(15) 0.6982(2) 0.10379(13)
C41_4 C 0.18889(15) 0.67271(19) 0.07808(12)
H27_4 H 0.1614 0.6707 0.0681
C42_4 C 0.04283(13) 0.82026(15) 0.32357(10)
H30_4 H 0.0186 0.7844 0.2717
C58_4 C 0.1164(2) 0.7011(3) 0.11780(16)
C61_4 C 0.0436(2) 0.7110(3) 0.14048(18)
C62_4 C 0.0237(2) 0.7319(3) 0.16412(18)
H34_4 H 0.0390 0.7535 0.1754
C66_4 C 0.0210(2) 0.6799(3) 0.12305(19)
H36_4 H 0.0339 0.6668 0.1057
Cu7_2 Cu 0.16181(2) 0.57384(3) 0.0000
Cu10_2 Cu 0.24691(2) 0.55574(3) 0.0000
Cu13_3 Cu 0.40236(2) 0.65594(2) 0.12788(2)
Cu16_3 Cu 0.09764(2) 0.84406(2) 0.37212(2)
Cu17_3 Cu 0.36900(2) 0.70807(2) 0.16983(2)
Cu20_3 Cu 0.13100(2) 0.79193(2) 0.33017(2)
Cu7_3 Cu 0.16181(2) 0.57384(3) 1.0000
Cu10_3 Cu 0.24691(2) 0.55574(3) 1.0000
Cu3_2 Cu 0.59764(2) 0.34406(2) 0.12788(2)
Cu4_2 Cu 0.63100(2) 0.29193(2) 0.16983(2)
O7_2 O 0.87612(11) 0.10916(10) 0.34783(7)
O8_2 O 0.85214(11) 0.15313(10) 0.31072(7)
O9_2 O 0.60966(11) 0.24501(10) 0.14319(7)
O10_2 O 0.57641(11) 0.28957(10) 0.11013(7)
O11_2 O 0.48614(11) 0.22839(9) 0.03100(7)
O12_2 O 0.47174(12) 0.15623(10) 0.03063(7)
O15_2 O 0.6372(3) 0.1088(2) 0.13557(16)
O18_2 O 0.65685(13) 0.25065(12) 0.20462(8)
O19_2 O 0.57105(18) 0.38619(16) 0.09398(9)
N3_2 N 0.7760(2) 0.05492(19) 0.23918(13)
H3_2 H 0.7680 0.0821 0.2354
N4_2 N 0.7428(2) 0.0418(2) 0.19478(15)
H4_2 H 0.7408 0.0706 0.1943
N5_2 N 0.6352(3) 0.0416(3) 0.11467(19)
H5_2 H 0.6215 0.0245 0.1017
N6_2 N 0.5889(2) 0.0937(2) 0.09741(15)
H6_2 H 0.5766 0.0723 0.0871
C10_2 C 0.85705(14) 0.11673(14) 0.32364(9)
C11_2 C 0.82077(16) 0.00100(14) 0.30797(10)
C12_2 C 0.84041(14) 0.03617(14) 0.32116(9)
H10_2 H 0.8558 0.0326 0.3396
C13_2 C 0.83810(16) 0.07725(15) 0.30782(10)
C14_2 C 0.8172(2) 0.08228(15) 0.28054(12)
H11_2 H 0.8162 0.1103 0.2712
C15_2 C 0.7977(2) 0.04713(17) 0.26686(13)
C16_2 C 0.7987(2) 0.00583(16) 0.28079(13)
C17_2 C 0.58622(15) 0.25257(14) 0.12012(10)
C18_2 C 0.49092(16) 0.18975(14) 0.03994(9)
C19_2 C 0.57064(17) 0.21397(15) 0.10293(11)
C20_2 C 0.54095(15) 0.21953(15) 0.07937(10)
H13_2 H 0.5320 0.2483 0.0738
C21_2 C 0.52458(18) 0.18395(15) 0.06420(11)
C22_2 C 0.5396(2) 0.14125(19) 0.07126(14)
H14_2 H 0.5281 0.1162 0.0612
C23_2 C 0.5718(2) 0.1369(2) 0.09333(16)
C24_2 C 0.5856(2) 0.17288(18) 0.11012(13)
H15_2 H 0.6053 0.1690 0.1265
C26_2 C 0.7665(3) 0.0244(2) 0.21796(16)
C27_2 C 0.6224(3) 0.0834(3) 0.1159(2)
C30_2 C 0.7212(3) 0.0187(2) 0.17125(17)
C31_2 C 0.6925(3) 0.0412(3) 0.15472(18)
H17_2 H 0.6884 0.0716 0.1586
C32_2 C 0.6693(3) 0.0218(3) 0.1326(2)
Cu8_2 Cu 0.42616(3) 0.16181(2) 0.0000
Cu11_2 Cu 0.44426(3) 0.24691(2) 0.0000
Cu14_2 Cu 0.90236(2) 0.15594(2) 0.37212(2)
Cu18_2 Cu 0.86900(2) 0.20807(2) 0.33017(2)
O39_2 O 0.65495(10) 0.33526(11) 0.10870(7)
O40_2 O 0.68462(10) 0.29563(11) 0.14602(7)
O42_2 O 0.57228(10) 0.29642(11) 0.18772(7)
O44_2 O 0.54624(10) 0.34482(11) 0.15399(7)
O45_2 O 0.62388(11) 0.39084(10) 0.15217(7)
O47_2 O 0.64786(11) 0.34687(10) 0.18928(7)
Cu8_3 Cu 0.42616(3) 0.16181(2) 1.0000
Cu11_3 Cu 0.44426(3) 0.24691(2) 1.0000
Cu1_2 Cu 0.57384(3) 0.83819(2) 0.0000
Cu2_2 Cu 0.55574(3) 0.75309(2) 0.0000
O1_2 O 0.61503(12) 0.81973(9) 0.03131(7)
O2_2 O 0.60061(11) 0.74771(9) 0.03080(6)
O3_2 O 0.66474(11) 0.65495(10) 0.10870(7)
O4_2 O 0.70437(11) 0.68462(10) 0.14602(7)
O5_2 O 0.79642(11) 0.92772(10) 0.31228(7)
O6_2 O 0.84482(11) 0.95376(10) 0.34601(7)
O13_2 O 0.6655(2) 0.89277(17) 0.10570(13)
O14_2 O 0.77393(18) 0.98517(15) 0.22033(11)
O16_5 O 0.5941(2) 0.90550(14) 0.0000
O17_5 O 0.5382(2) 0.68534(17) 0.0000
N1_2 N 0.71853(19) 0.84336(16) 0.11776(12)
H1_2 H 0.7439 0.8393 0.1269
N2_2 N 0.7243(2) 0.91353(19) 0.13279(15)
H2_2 H 0.7508 0.9057 0.1385
C1_2 C 0.61931(16) 0.78156(12) 0.04120(9)
C2_2 C 0.68336(15) 0.68611(13) 0.12151(10)
C3_2 C 0.64998(16) 0.77502(14) 0.06683(10)
C4_2 C 0.65470(15) 0.73365(14) 0.08018(9)
H7_2 H 0.6403 0.7087 0.0719
C5_2 C 0.68089(16) 0.72965(15) 0.10591(10)
C6_2 C 0.7022(2) 0.76554(15) 0.11750(12)
H8_2 H 0.7199 0.7624 0.1350
C7_2 C 0.6982(2) 0.80704(15) 0.10379(13)
C8_2 C 0.67271(19) 0.81111(15) 0.07808(12)
H9_2 H 0.6707 0.8386 0.0681
C9_2 C 0.82026(15) 0.95717(13) 0.32357(10)
H12_2 H 0.7844 0.9814 0.2717
C25_2 C 0.7011(3) 0.8836(2) 0.11780(16)
C28_2 C 0.7110(3) 0.9564(2) 0.14048(18)
C29_2 C 0.7319(3) 0.9763(2) 0.16412(18)
H16_2 H 0.7535 0.9610 0.1754
C33_2 C 0.6799(3) 0.9790(2) 0.12305(19)
H18_2 H 0.6668 0.9661 0.1057
Cu5_2 Cu 0.65594(2) 0.59764(2) 0.12788(2)
Cu6_2 Cu 0.70807(2) 0.63100(2) 0.16983(2)
O26_4 O 0.89084(10) 0.87612(11) 0.34783(7)
O27_4 O 0.84687(10) 0.85214(11) 0.31072(7)
O28_4 O 0.75499(10) 0.60966(11) 0.14319(7)
O29_4 O 0.71043(10) 0.57641(11) 0.11013(7)
O30_2 O 0.77161(9) 0.48614(11) 0.03100(7)
O31_2 O 0.84377(10) 0.47174(12) 0.03063(7)
O34_4 O 0.8912(2) 0.6372(3) 0.13557(16)
O35_4 O 0.74935(12) 0.65685(13) 0.20462(8)
O36_4 O 0.61381(16) 0.57105(18) 0.09398(9)
N9_4 N 0.94508(19) 0.7760(2) 0.23918(13)
H21_4 H 0.9179 0.7680 0.2354
N10_4 N 0.9582(2) 0.7428(2) 0.19478(15)
H22_4 H 0.9294 0.7408 0.1943
N11_4 N 0.9584(3) 0.6352(3) 0.11467(19)
H23_4 H 0.9755 0.6215 0.1017
N12_4 N 0.9063(2) 0.5889(2) 0.09741(15)
H24_4 H 0.9277 0.5766 0.0871
C43_4 C 0.88327(14) 0.85705(14) 0.32364(9)
C44_4 C 0.99900(14) 0.82077(16) 0.30797(10)
C45_4 C 0.96383(14) 0.84041(14) 0.32116(9)
H28_4 H 0.9674 0.8558 0.3396
C46_4 C 0.92275(15) 0.83810(16) 0.30782(10)
C47_4 C 0.91772(15) 0.8172(2) 0.28054(12)
H29_4 H 0.8897 0.8162 0.2712
C48_4 C 0.95287(17) 0.7977(2) 0.26686(13)
C49_4 C 0.99417(16) 0.7987(2) 0.28079(13)
C50_4 C 0.74743(14) 0.58622(15) 0.12012(10)
C51_4 C 0.81025(14) 0.49092(16) 0.03994(9)
C52_4 C 0.78603(15) 0.57064(17) 0.10293(11)
C53_4 C 0.78047(15) 0.54095(15) 0.07937(10)
H31_4 H 0.7517 0.5320 0.0738
C54_4 C 0.81605(15) 0.52458(18) 0.06420(11)
C55_4 C 0.85875(19) 0.5396(2) 0.07126(14)
H32_4 H 0.8838 0.5281 0.0612
C56_4 C 0.8631(2) 0.5718(2) 0.09333(16)
C57_4 C 0.82712(18) 0.5856(2) 0.11012(13)
H33_4 H 0.8310 0.6053 0.1265
C59_4 C 0.9756(2) 0.7665(3) 0.21796(16)
C60_4 C 0.9166(3) 0.6224(3) 0.1159(2)
C63_4 C 0.9813(2) 0.7212(3) 0.17125(17)
C64_4 C 0.9588(3) 0.6925(3) 0.15472(18)
H35_4 H 0.9284 0.6884 0.1586
C65_4 C 0.9782(3) 0.6693(3) 0.1326(2)
Cu9_2 Cu 0.83819(2) 0.42616(3) 0.0000
Cu12_2 Cu 0.75309(2) 0.44426(3) 0.0000
Cu15_2 Cu 0.84406(2) 0.90236(2) 0.37212(2)
Cu19_2 Cu 0.79193(2) 0.86900(2) 0.33017(2)
O41_4 O 0.70358(11) 0.57228(10) 0.18772(7)
O43_4 O 0.65518(11) 0.54624(10) 0.15399(7)
O46_4 O 0.60916(10) 0.62388(11) 0.15217(7)
O48_4 O 0.65313(10) 0.64786(11) 0.18928(7)
O49_3 O 0.51386(11) 0.77161(9) 0.03100(7)
O51_3 O 0.52826(12) 0.84377(10) 0.03063(7)
H37 H 0.527783 0.676813 0.0204251
Cu1_3 Cu 0.57384(3) 0.83819(2) 1.0000
Cu2_3 Cu 0.55574(3) 0.75309(2) 1.0000
O16_6 O 0.5941(2) 0.90550(14) 1.0000
O17_6 O 0.5382(2) 0.68534(17) 1.0000
Cu9_3 Cu 0.83819(2) 0.42616(3) 1.0000
Cu12_3 Cu 0.75309(2) 0.44426(3) 1.0000
O37_5 O 0.61503(12) 0.81973(9) 0.96869(7)
O38_5 O 0.60061(11) 0.74771(9) 0.96920(6)
O50_5 O 0.51386(11) 0.77161(9) 0.96900(7)
O52_5 O 0.52826(12) 0.84377(10) 0.96937(7)
H38 H 0.514435 0.680269 0.985052
H41 H 0.625718 0.90733 0.994696
H42 H 0.576595 0.922116 0.984926
O20_5 O 0.38497(12) 0.18027(9) 0.03131(7)
O21_5 O 0.39939(11) 0.25229(9) 0.03080(6)
O22_4 O 0.33526(11) 0.34505(10) 0.10870(7)
O23_4 O 0.29563(11) 0.31538(10) 0.14602(7)
O24_5 O 0.20358(11) 0.07228(10) 0.31228(7)
O25_5 O 0.15518(11) 0.04624(10) 0.34601(7)
O32_5 O 0.3345(2) 0.10723(17) 0.10570(13)
O33_5 O 0.22607(18) 0.01483(15) 0.22033(11)
N7_5 N 0.28147(19) 0.15664(16) 0.11776(12)
H19_5 H 0.2561 0.1607 0.1269
N8_5 N 0.2757(2) 0.08647(19) 0.13279(15)
H20_5 H 0.2492 0.0943 0.1385
C34_5 C 0.38069(16) 0.21844(12) 0.04120(9)
C35_5 C 0.31664(15) 0.31389(13) 0.12151(10)
C36_5 C 0.35002(16) 0.22498(14) 0.06683(10)
C37_5 C 0.34530(15) 0.26635(14) 0.08018(9)
H25_5 H 0.3597 0.2913 0.0719
C38_5 C 0.31911(16) 0.27035(15) 0.10591(10)
C39_5 C 0.2978(2) 0.23446(15) 0.11750(12)
H26_5 H 0.2801 0.2376 0.1350
C40_5 C 0.3018(2) 0.19296(15) 0.10379(13)
C41_5 C 0.32729(19) 0.18889(15) 0.07808(12)
H27_5 H 0.3293 0.1614 0.0681
C42_5 C 0.17974(15) 0.04283(13) 0.32357(10)
H30_5 H 0.2156 0.0186 0.2717
C58_5 C 0.2989(3) 0.1164(2) 0.11780(16)
C61_5 C 0.2890(3) 0.0436(2) 0.14048(18)
C62_5 C 0.2681(3) 0.0237(2) 0.16412(18)
H34_5 H 0.2465 0.0390 0.1754
C66_5 C 0.3201(3) 0.0210(2) 0.12305(19)
H36_5 H 0.3332 0.0339 0.1057
Cu13_4 Cu 0.34406(2) 0.40236(2) 0.12788(2)
Cu16_4 Cu 0.15594(2) 0.09764(2) 0.37212(2)
Cu17_4 Cu 0.29193(2) 0.36900(2) 0.16983(2)
Cu20_4 Cu 0.20807(2) 0.13100(2) 0.33017(2)
O16_7 O 0.09450(14) 0.5941(2) 0.0000
O17_7 O 0.31466(17) 0.5382(2) 0.0000
O26_5 O 0.12388(11) 0.89084(10) 0.34783(7)
O27_5 O 0.14786(11) 0.84687(10) 0.31072(7)
O28_5 O 0.39034(11) 0.75499(10) 0.14319(7)
O29_5 O 0.42359(11) 0.71043(10) 0.11013(7)
O34_5 O 0.3628(3) 0.8912(2) 0.13557(16)
O35_5 O 0.34315(13) 0.74935(12) 0.20462(8)
O36_5 O 0.42895(18) 0.61381(16) 0.09398(9)
N9_5 N 0.2240(2) 0.94508(19) 0.23918(13)
H21_5 H 0.2320 0.9179 0.2354
N10_5 N 0.2572(2) 0.9582(2) 0.19478(15)
H22_5 H 0.2592 0.9294 0.1943
N11_5 N 0.3648(3) 0.9584(3) 0.11467(19)
H23_5 H 0.3785 0.9755 0.1017
N12_5 N 0.4111(2) 0.9063(2) 0.09741(15)
H24_5 H 0.4234 0.9277 0.0871
C43_5 C 0.14295(14) 0.88327(14) 0.32364(9)
C44_5 C 0.17923(16) 0.99900(14) 0.30797(10)
C45_5 C 0.15959(14) 0.96383(14) 0.32116(9)
H28_5 H 0.1442 0.9674 0.3396
C46_5 C 0.16190(16) 0.92275(15) 0.30782(10)
C47_5 C 0.1828(2) 0.91772(15) 0.28054(12)
H29_5 H 0.1838 0.8897 0.2712
C48_5 C 0.2023(2) 0.95287(17) 0.26686(13)
C49_5 C 0.2013(2) 0.99417(16) 0.28079(13)
C50_5 C 0.41378(15) 0.74743(14) 0.12012(10)
C51_5 C 0.50908(16) 0.81025(14) 0.03994(9)
C52_5 C 0.42936(17) 0.78603(15) 0.10293(11)
C53_5 C 0.45905(15) 0.78047(15) 0.07937(10)
H31_5 H 0.4680 0.7517 0.0738
C54_5 C 0.47542(18) 0.81605(15) 0.06420(11)
C55_5 C 0.4604(2) 0.85875(19) 0.07126(14)
H32_5 H 0.4719 0.8838 0.0612
C56_5 C 0.4282(2) 0.8631(2) 0.09333(16)
C57_5 C 0.4144(2) 0.82712(18) 0.11012(13)
H33_5 H 0.3947 0.8310 0.1265
C59_5 C 0.2335(3) 0.9756(2) 0.21796(16)
C60_5 C 0.3776(3) 0.9166(3) 0.1159(2)
C63_5 C 0.2788(3) 0.9813(2) 0.17125(17)
C64_5 C 0.3075(3) 0.9588(3) 0.15472(18)
H35_5 H 0.3116 0.9284 0.1586
C65_5 C 0.3307(3) 0.9782(3) 0.1326(2)
O41_5 O 0.42772(10) 0.70358(11) 0.18772(7)
O43_5 O 0.45376(10) 0.65518(11) 0.15399(7)
O46_5 O 0.37612(11) 0.60916(10) 0.15217(7)
O48_5 O 0.35214(11) 0.65313(10) 0.18928(7)
O49_4 O 0.22839(9) 0.51386(11) 0.03100(7)
O51_4 O 0.15623(10) 0.52826(12) 0.03063(7)
H37_2 H 0.323187 0.527783 0.0204251
O16_8 O 0.09450(14) 0.5941(2) 1.0000
O17_8 O 0.31466(17) 0.5382(2) 1.0000
O37_6 O 0.18027(9) 0.61503(12) 0.96869(7)
O38_6 O 0.25229(9) 0.60061(11) 0.96920(6)
O50_6 O 0.22839(9) 0.51386(11) 0.96900(7)
O52_6 O 0.15623(10) 0.52826(12) 0.96937(7)
H38_2 H 0.319731 0.514435 0.985052
H41_2 H 0.0926701 0.625718 0.994696
H42_2 H 0.0778843 0.576595 0.984926
O16_9 O 0.4059(2) 0.09450(14) 0.0000
O17_9 O 0.4618(2) 0.31466(17) 0.0000
O26_6 O 0.10916(10) 0.12388(11) 0.34783(7)
O27_6 O 0.15313(10) 0.14786(11) 0.31072(7)
O28_6 O 0.24501(10) 0.39034(11) 0.14319(7)
O29_6 O 0.28957(10) 0.42359(11) 0.11013(7)
O34_6 O 0.1088(2) 0.3628(3) 0.13557(16)
O35_6 O 0.25065(12) 0.34315(13) 0.20462(8)
O36_6 O 0.38619(16) 0.42895(18) 0.09398(9)
N9_6 N 0.05492(19) 0.2240(2) 0.23918(13)
H21_6 H 0.0821 0.2320 0.2354
N10_6 N 0.0418(2) 0.2572(2) 0.19478(15)
H22_6 H 0.0706 0.2592 0.1943
N11_6 N 0.0416(3) 0.3648(3) 0.11467(19)
H23_6 H 0.0245 0.3785 0.1017
N12_6 N 0.0937(2) 0.4111(2) 0.09741(15)
H24_6 H 0.0723 0.4234 0.0871
C43_6 C 0.11673(14) 0.14295(14) 0.32364(9)
C44_6 C 0.00100(14) 0.17923(16) 0.30797(10)
C45_6 C 0.03617(14) 0.15959(14) 0.32116(9)
H28_6 H 0.0326 0.1442 0.3396
C46_6 C 0.07725(15) 0.16190(16) 0.30782(10)
C47_6 C 0.08228(15) 0.1828(2) 0.28054(12)
H29_6 H 0.1103 0.1838 0.2712
C48_6 C 0.04713(17) 0.2023(2) 0.26686(13)
C49_6 C 0.00583(16) 0.2013(2) 0.28079(13)
C50_6 C 0.25257(14) 0.41378(15) 0.12012(10)
C51_6 C 0.18975(14) 0.50908(16) 0.03994(9)
C52_6 C 0.21397(15) 0.42936(17) 0.10293(11)
C53_6 C 0.21953(15) 0.45905(15) 0.07937(10)
H31_6 H 0.2483 0.4680 0.0738
C54_6 C 0.18395(15) 0.47542(18) 0.06420(11)
C55_6 C 0.14125(19) 0.4604(2) 0.07126(14)
H32_6 H 0.1162 0.4719 0.0612
C56_6 C 0.1369(2) 0.4282(2) 0.09333(16)
C57_6 C 0.17288(18) 0.4144(2) 0.11012(13)
H33_6 H 0.1690 0.3947 0.1265
C59_6 C 0.0244(2) 0.2335(3) 0.21796(16)
C60_6 C 0.0834(3) 0.3776(3) 0.1159(2)
C63_6 C 0.0187(2) 0.2788(3) 0.17125(17)
C64_6 C 0.0412(3) 0.3075(3) 0.15472(18)
H35_6 H 0.0716 0.3116 0.1586
C65_6 C 0.0218(3) 0.3307(3) 0.1326(2)
O41_6 O 0.29642(11) 0.42772(10) 0.18772(7)
O43_6 O 0.34482(11) 0.45376(10) 0.15399(7)
O46_6 O 0.39084(10) 0.37612(11) 0.15217(7)
O48_6 O 0.34687(10) 0.35214(11) 0.18928(7)
H37_3 H 0.472217 0.323187 0.0204251
O16_10 O 0.4059(2) 0.09450(14) 1.0000
O17_10 O 0.4618(2) 0.31466(17) 1.0000
O37_7 O 0.38497(12) 0.18027(9) 0.96869(7)
O38_7 O 0.39939(11) 0.25229(9) 0.96920(6)
O50_7 O 0.48614(11) 0.22839(9) 0.96900(7)
O52_7 O 0.47174(12) 0.15623(10) 0.96937(7)
H38_3 H 0.485565 0.319731 0.985052
H41_3 H 0.374282 0.0926701 0.994696
H42_3 H 0.423405 0.0778843 0.984926
O20_6 O 0.81973(9) 0.38497(12) 0.03131(7)
O21_6 O 0.74771(9) 0.39939(11) 0.03080(6)
O24_6 O 0.92772(10) 0.20358(11) 0.31228(7)
O25_6 O 0.95376(10) 0.15518(11) 0.34601(7)
O32_6 O 0.89277(17) 0.3345(2) 0.10570(13)
O33_6 O 0.98517(15) 0.22607(18) 0.22033(11)
N7_6 N 0.84336(16) 0.28147(19) 0.11776(12)
H19_6 H 0.8393 0.2561 0.1269
N8_6 N 0.91353(19) 0.2757(2) 0.13279(15)
H20_6 H 0.9057 0.2492 0.1385
C34_6 C 0.78156(12) 0.38069(16) 0.04120(9)
C35_6 C 0.68611(13) 0.31664(15) 0.12151(10)
C36_6 C 0.77502(14) 0.35002(16) 0.06683(10)
C37_6 C 0.73365(14) 0.34530(15) 0.08018(9)
H25_6 H 0.7087 0.3597 0.0719
C38_6 C 0.72965(15) 0.31911(16) 0.10591(10)
C39_6 C 0.76554(15) 0.2978(2) 0.11750(12)
H26_6 H 0.7624 0.2801 0.1350
C40_6 C 0.80704(15) 0.3018(2) 0.10379(13)
C41_6 C 0.81111(15) 0.32729(19) 0.07808(12)
H27_6 H 0.8386 0.3293 0.0681
C42_6 C 0.95717(13) 0.17974(15) 0.32357(10)
H30_6 H 0.9814 0.2156 0.2717
C58_6 C 0.8836(2) 0.2989(3) 0.11780(16)
C61_6 C 0.9564(2) 0.2890(3) 0.14048(18)
C62_6 C 0.9763(2) 0.2681(3) 0.16412(18)
H34_6 H 0.9610 0.2465 0.1754
C66_6 C 0.9790(2) 0.3201(3) 0.12305(19)
H36_6 H 0.9661 0.3332 0.1057
O16_11 O 0.90550(14) 0.4059(2) 0.0000
O17_11 O 0.68534(17) 0.4618(2) 0.0000
H37_4 H 0.676813 0.472217 0.0204251
O16_12 O 0.90550(14) 0.4059(2) 1.0000
O17_12 O 0.68534(17) 0.4618(2) 1.0000
O37_8 O 0.81973(9) 0.38497(12) 0.96869(7)
O38_8 O 0.74771(9) 0.39939(11) 0.96920(6)
O50_8 O 0.77161(9) 0.48614(11) 0.96900(7)
O52_8 O 0.84377(10) 0.47174(12) 0.96937(7)
H38_4 H 0.680269 0.485565 0.985052
H41_4 H 0.90733 0.374282 0.994696
H42_4 H 0.922116 0.423405 0.984926
C18_3 C 0.00908(16) 0.31025(14) 0.46006(9)
C51_7 C 0.68975(14) 0.00908(16) 0.46006(9)
O3_3 O 0.83526(11) 0.84505(10) 0.39130(7)
O4_3 O 0.79563(11) 0.81538(10) 0.35398(7)
O9_3 O 0.89034(11) 0.25499(10) 0.35681(7)
O10_3 O 0.92359(11) 0.21043(10) 0.38987(7)
O13_3 O 0.8345(2) 0.60723(17) 0.39430(13)
O14_3 O 0.72607(18) 0.51483(15) 0.27967(11)
O15_3 O 0.8628(3) 0.3912(2) 0.36443(16)
O18_3 O 0.84315(13) 0.24935(12) 0.29538(8)
O19_3 O 0.92895(18) 0.11381(16) 0.40602(9)
N1_3 N 0.78147(19) 0.65664(16) 0.38224(12)
H1_3 H 0.7561 0.6607 0.3731
N2_3 N 0.7757(2) 0.58647(19) 0.36721(15)
H2_3 H 0.7492 0.5943 0.3615
N3_3 N 0.7240(2) 0.44508(19) 0.26082(13)
H3_3 H 0.7320 0.4179 0.2646
N4_3 N 0.7572(2) 0.4582(2) 0.30522(15)
H4_3 H 0.7592 0.4294 0.3057
N5_3 N 0.8648(3) 0.4584(3) 0.38533(19)
H5_3 H 0.8785 0.4755 0.3983
N6_3 N 0.9111(2) 0.4063(2) 0.40259(15)
H6_3 H 0.9234 0.4277 0.4129
C1_3 C 0.88069(16) 0.71844(12) 0.45880(9)
C2_3 C 0.81664(15) 0.81389(13) 0.37849(10)
C3_3 C 0.85002(16) 0.72498(14) 0.43317(10)
C4_3 C 0.84530(15) 0.76635(14) 0.41982(9)
H7_3 H 0.8597 0.7913 0.4281
C5_3 C 0.81911(16) 0.77035(15) 0.39409(10)
C6_3 C 0.7978(2) 0.73446(15) 0.38250(12)
H8_3 H 0.7801 0.7376 0.3650
C7_3 C 0.8018(2) 0.69296(15) 0.39621(13)
C8_3 C 0.82729(19) 0.68889(15) 0.42192(12)
H9_3 H 0.8293 0.6614 0.4319
C9_3 C 0.67974(15) 0.54283(13) 0.17643(10)
C10_3 C 0.64295(14) 0.38327(14) 0.17636(9)
C11_3 C 0.67923(16) 0.49900(14) 0.19203(10)
C12_3 C 0.65959(14) 0.46383(14) 0.17884(9)
H10_3 H 0.6442 0.4674 0.1604
C13_3 C 0.66190(16) 0.42275(15) 0.19218(10)
C14_3 C 0.6828(2) 0.41772(15) 0.21946(12)
H11_3 H 0.6838 0.3897 0.2288
C15_3 C 0.7023(2) 0.45287(17) 0.23314(13)
C16_3 C 0.7013(2) 0.49417(16) 0.21921(13)
H12_3 H 0.7156 0.5186 0.2283
C17_3 C 0.91378(15) 0.24743(14) 0.37988(10)
C19_3 C 0.92936(17) 0.28603(15) 0.39707(11)
C20_3 C 0.95905(15) 0.28047(15) 0.42063(10)
H13_3 H 0.9680 0.2517 0.4262
C21_3 C 0.97542(18) 0.31605(15) 0.43580(11)
C22_3 C 0.9604(2) 0.35875(19) 0.42874(14)
H14_3 H 0.9719 0.3838 0.4388
C23_3 C 0.9282(2) 0.3631(2) 0.40667(16)
C24_3 C 0.9144(2) 0.32712(18) 0.38988(13)
H15_3 H 0.8947 0.3310 0.3735
C25_3 C 0.7989(3) 0.6164(2) 0.38220(16)
C26_3 C 0.7335(3) 0.4756(2) 0.28204(16)
C27_3 C 0.8776(3) 0.4166(3) 0.3841(2)
C28_3 C 0.7890(3) 0.5436(2) 0.35952(18)
C29_3 C 0.7681(3) 0.5237(2) 0.33588(18)
H16_3 H 0.7465 0.5390 0.3246
C30_3 C 0.7788(3) 0.4813(2) 0.32875(17)
C31_3 C 0.8075(3) 0.4588(3) 0.34528(18)
H17_3 H 0.8116 0.4284 0.3414
C32_3 C 0.8307(3) 0.4782(3) 0.3674(2)
C33_3 C 0.8201(3) 0.5210(2) 0.37695(19)
H18_3 H 0.8332 0.5339 0.3943
O22_5 O 0.15495(10) 0.83526(11) 0.39130(7)
O23_5 O 0.18462(10) 0.79563(11) 0.35398(7)
O28_7 O 0.74501(10) 0.89034(11) 0.35681(7)
O29_7 O 0.78957(10) 0.92359(11) 0.38987(7)
O32_7 O 0.39277(17) 0.8345(2) 0.39430(13)
O33_7 O 0.48517(15) 0.72607(18) 0.27967(11)
O34_7 O 0.6088(2) 0.8628(3) 0.36443(16)
O35_7 O 0.75065(12) 0.84315(13) 0.29538(8)
O36_7 O 0.88619(16) 0.92895(18) 0.40602(9)
N7_7 N 0.34336(16) 0.78147(19) 0.38224(12)
H19_7 H 0.3393 0.7561 0.3731
N8_7 N 0.41353(19) 0.7757(2) 0.36721(15)
H20_7 H 0.4057 0.7492 0.3615
N9_7 N 0.55492(19) 0.7240(2) 0.26082(13)
H21_7 H 0.5821 0.7320 0.2646
N10_7 N 0.5418(2) 0.7572(2) 0.30522(15)
H22_7 H 0.5706 0.7592 0.3057
N11_7 N 0.5416(3) 0.8648(3) 0.38533(19)
H23_7 H 0.5245 0.8785 0.3983
N12_7 N 0.5937(2) 0.9111(2) 0.40259(15)
H24_7 H 0.5723 0.9234 0.4129
C34_7 C 0.28156(12) 0.88069(16) 0.45880(9)
C35_7 C 0.18611(13) 0.81664(15) 0.37849(10)
C36_7 C 0.27502(14) 0.85002(16) 0.43317(10)
C37_7 C 0.23365(14) 0.84530(15) 0.41982(9)
H25_7 H 0.2087 0.8597 0.4281
C38_7 C 0.22965(15) 0.81911(16) 0.39409(10)
C39_7 C 0.26554(15) 0.7978(2) 0.38250(12)
H26_7 H 0.2624 0.7801 0.3650
C40_7 C 0.30704(15) 0.8018(2) 0.39621(13)
C41_7 C 0.31111(15) 0.82729(19) 0.42192(12)
H27_7 H 0.3386 0.8293 0.4319
C42_7 C 0.45717(13) 0.67974(15) 0.17643(10)
C43_7 C 0.61673(14) 0.64295(14) 0.17636(9)
C44_7 C 0.50100(14) 0.67923(16) 0.19203(10)
C45_7 C 0.53617(14) 0.65959(14) 0.17884(9)
H28_7 H 0.5326 0.6442 0.1604
C46_7 C 0.57725(15) 0.66190(16) 0.19218(10)
C47_7 C 0.58228(15) 0.6828(2) 0.21946(12)
H29_7 H 0.6103 0.6838 0.2288
C48_7 C 0.54713(17) 0.7023(2) 0.23314(13)
C49_7 C 0.50583(16) 0.7013(2) 0.21921(13)
H30_7 H 0.4814 0.7156 0.2283
C50_7 C 0.75257(14) 0.91378(15) 0.37988(10)
C52_7 C 0.71397(15) 0.92936(17) 0.39707(11)
C53_7 C 0.71953(15) 0.95905(15) 0.42063(10)
H31_7 H 0.7483 0.9680 0.4262
C54_7 C 0.68395(15) 0.97542(18) 0.43580(11)
C55_7 C 0.64125(19) 0.9604(2) 0.42874(14)
H32_7 H 0.6162 0.9719 0.4388
C56_7 C 0.6369(2) 0.9282(2) 0.40667(16)
C57_7 C 0.67288(18) 0.9144(2) 0.38988(13)
H33_7 H 0.6690 0.8947 0.3735
C58_7 C 0.3836(2) 0.7989(3) 0.38220(16)
C59_7 C 0.5244(2) 0.7335(3) 0.28204(16)
C60_7 C 0.5834(3) 0.8776(3) 0.3841(2)
C61_7 C 0.4564(2) 0.7890(3) 0.35952(18)
C62_7 C 0.4763(2) 0.7681(3) 0.33588(18)
H34_7 H 0.4610 0.7465 0.3246
C63_7 C 0.5187(2) 0.7788(3) 0.32875(17)
C64_7 C 0.5412(3) 0.8075(3) 0.34528(18)
H35_7 H 0.5716 0.8116 0.3414
C65_7 C 0.5218(3) 0.8307(3) 0.3674(2)
C66_7 C 0.4790(2) 0.8201(3) 0.37695(19)
H36_7 H 0.4661 0.8332 0.3943
O39_3 O 0.84505(10) 0.16474(11) 0.39130(7)
O40_3 O 0.81538(10) 0.20437(11) 0.35398(7)
O22_6 O 0.16474(11) 0.15495(10) 0.39130(7)
O23_6 O 0.20437(11) 0.18462(10) 0.35398(7)
O28_8 O 0.10966(11) 0.74501(10) 0.35681(7)
O29_8 O 0.07641(11) 0.78957(10) 0.38987(7)
O32_8 O 0.1655(2) 0.39277(17) 0.39430(13)
O33_8 O 0.27393(18) 0.48517(15) 0.27967(11)
O34_8 O 0.1372(3) 0.6088(2) 0.36443(16)
O35_8 O 0.15685(13) 0.75065(12) 0.29538(8)
O36_8 O 0.07105(18) 0.88619(16) 0.40602(9)
N7_8 N 0.21853(19) 0.34336(16) 0.38224(12)
H19_8 H 0.2439 0.3393 0.3731
N8_8 N 0.2243(2) 0.41353(19) 0.36721(15)
H20_8 H 0.2508 0.4057 0.3615
N9_8 N 0.2760(2) 0.55492(19) 0.26082(13)
H21_8 H 0.2680 0.5821 0.2646
N10_8 N 0.2428(2) 0.5418(2) 0.30522(15)
H22_8 H 0.2408 0.5706 0.3057
N11_8 N 0.1352(3) 0.5416(3) 0.38533(19)
H23_8 H 0.1215 0.5245 0.3983
N12_8 N 0.0889(2) 0.5937(2) 0.40259(15)
H24_8 H 0.0766 0.5723 0.4129
C34_8 C 0.11931(16) 0.28156(12) 0.45880(9)
C35_8 C 0.18336(15) 0.18611(13) 0.37849(10)
C36_8 C 0.14998(16) 0.27502(14) 0.43317(10)
C37_8 C 0.15470(15) 0.23365(14) 0.41982(9)
H25_8 H 0.1403 0.2087 0.4281
C38_8 C 0.18089(16) 0.22965(15) 0.39409(10)
C39_8 C 0.2022(2) 0.26554(15) 0.38250(12)
H26_8 H 0.2199 0.2624 0.3650
C40_8 C 0.1982(2) 0.30704(15) 0.39621(13)
C41_8 C 0.17271(19) 0.31111(15) 0.42192(12)
H27_8 H 0.1707 0.3386 0.4319
C42_8 C 0.32026(15) 0.45717(13) 0.17643(10)
C43_8 C 0.35705(14) 0.61673(14) 0.17636(9)
C44_8 C 0.32077(16) 0.50100(14) 0.19203(10)
C45_8 C 0.34041(14) 0.53617(14) 0.17884(9)
H28_8 H 0.3558 0.5326 0.1604
C46_8 C 0.33810(16) 0.57725(15) 0.19218(10)
C47_8 C 0.3172(2) 0.58228(15) 0.21946(12)
H29_8 H 0.3162 0.6103 0.2288
C48_8 C 0.2977(2) 0.54713(17) 0.23314(13)
C49_8 C 0.2987(2) 0.50583(16) 0.21921(13)
H30_8 H 0.2844 0.4814 0.2283
C50_8 C 0.08622(15) 0.75257(14) 0.37988(10)
C52_8 C 0.07064(17) 0.71397(15) 0.39707(11)
C53_8 C 0.04095(15) 0.71953(15) 0.42063(10)
H31_8 H 0.0320 0.7483 0.4262
C54_8 C 0.02458(18) 0.68395(15) 0.43580(11)
C55_8 C 0.0396(2) 0.64125(19) 0.42874(14)
H32_8 H 0.0281 0.6162 0.4388
C56_8 C 0.0718(2) 0.6369(2) 0.40667(16)
C57_8 C 0.0856(2) 0.67288(18) 0.38988(13)
H33_8 H 0.1053 0.6690 0.3735
C58_8 C 0.2011(3) 0.3836(2) 0.38220(16)
C59_8 C 0.2665(3) 0.5244(2) 0.28204(16)
C60_8 C 0.1224(3) 0.5834(3) 0.3841(2)
C61_8 C 0.2110(3) 0.4564(2) 0.35952(18)
C62_8 C 0.2319(3) 0.4763(2) 0.33588(18)
H34_8 H 0.2535 0.4610 0.3246
C63_8 C 0.2212(3) 0.5187(2) 0.32875(17)
C64_8 C 0.1925(3) 0.5412(3) 0.34528(18)
H35_8 H 0.1884 0.5716 0.3414
C65_8 C 0.1693(3) 0.5218(3) 0.3674(2)
C66_8 C 0.1799(3) 0.4790(2) 0.37695(19)
H36_8 H 0.1668 0.4661 0.3943
C51_8 C 0.99092(16) 0.68975(14) 0.46006(9)
O28_9 O 0.25499(10) 0.10966(11) 0.35681(7)
O29_9 O 0.21043(10) 0.07641(11) 0.38987(7)
O32_9 O 0.60723(17) 0.1655(2) 0.39430(13)
O33_9 O 0.51483(15) 0.27393(18) 0.27967(11)
O34_9 O 0.3912(2) 0.1372(3) 0.36443(16)
O35_9 O 0.24935(12) 0.15685(13) 0.29538(8)
O36_9 O 0.11381(16) 0.07105(18) 0.40602(9)
N7_9 N 0.65664(16) 0.21853(19) 0.38224(12)
H19_9 H 0.6607 0.2439 0.3731
N8_9 N 0.58647(19) 0.2243(2) 0.36721(15)
H20_9 H 0.5943 0.2508 0.3615
N9_9 N 0.44508(19) 0.2760(2) 0.26082(13)
H21_9 H 0.4179 0.2680 0.2646
N10_9 N 0.4582(2) 0.2428(2) 0.30522(15)
H22_9 H 0.4294 0.2408 0.3057
N11_9 N 0.4584(3) 0.1352(3) 0.38533(19)
H23_9 H 0.4755 0.1215 0.3983
N12_9 N 0.4063(2) 0.0889(2) 0.40259(15)
H24_9 H 0.4277 0.0766 0.4129
C34_9 C 0.71844(12) 0.11931(16) 0.45880(9)
C35_9 C 0.81389(13) 0.18336(15) 0.37849(10)
C36_9 C 0.72498(14) 0.14998(16) 0.43317(10)
C37_9 C 0.76635(14) 0.15470(15) 0.41982(9)
H25_9 H 0.7913 0.1403 0.4281
C38_9 C 0.77035(15) 0.18089(16) 0.39409(10)
C39_9 C 0.73446(15) 0.2022(2) 0.38250(12)
H26_9 H 0.7376 0.2199 0.3650
C40_9 C 0.69296(15) 0.1982(2) 0.39621(13)
C41_9 C 0.68889(15) 0.17271(19) 0.42192(12)
H27_9 H 0.6614 0.1707 0.4319
C42_9 C 0.54283(13) 0.32026(15) 0.17643(10)
C43_9 C 0.38327(14) 0.35705(14) 0.17636(9)
C44_9 C 0.49900(14) 0.32077(16) 0.19203(10)
C45_9 C 0.46383(14) 0.34041(14) 0.17884(9)
H28_9 H 0.4674 0.3558 0.1604
C46_9 C 0.42275(15) 0.33810(16) 0.19218(10)
C47_9 C 0.41772(15) 0.3172(2) 0.21946(12)
H29_9 H 0.3897 0.3162 0.2288
C48_9 C 0.45287(17) 0.2977(2) 0.23314(13)
C49_9 C 0.49417(16) 0.2987(2) 0.21921(13)
H30_9 H 0.5186 0.2844 0.2283
C50_9 C 0.24743(14) 0.08622(15) 0.37988(10)
C52_9 C 0.28603(15) 0.07064(17) 0.39707(11)
C53_9 C 0.28047(15) 0.04095(15) 0.42063(10)
H31_9 H 0.2517 0.0320 0.4262
C54_9 C 0.31605(15) 0.02458(18) 0.43580(11)
C55_9 C 0.35875(19) 0.0396(2) 0.42874(14)
H32_9 H 0.3838 0.0281 0.4388
C56_9 C 0.3631(2) 0.0718(2) 0.40667(16)
C57_9 C 0.32712(18) 0.0856(2) 0.38988(13)
H33_9 H 0.3310 0.1053 0.3735
C58_9 C 0.6164(2) 0.2011(3) 0.38220(16)
C59_9 C 0.4756(2) 0.2665(3) 0.28204(16)
C60_9 C 0.4166(3) 0.1224(3) 0.3841(2)
C61_9 C 0.5436(2) 0.2110(3) 0.35952(18)
C62_9 C 0.5237(2) 0.2319(3) 0.33588(18)
H34_9 H 0.5390 0.2535 0.3246
C63_9 C 0.4813(2) 0.2212(3) 0.32875(17)
C64_9 C 0.4588(3) 0.1925(3) 0.34528(18)
H35_9 H 0.4284 0.1884 0.3414
C65_9 C 0.4782(3) 0.1693(3) 0.3674(2)
C66_9 C 0.5210(2) 0.1799(3) 0.37695(19)
H36_9 H 0.5339 0.1668 0.3943
C51_9 C 0.31025(14) 0.99092(16) 0.46006(9)
H38_5 H 0.485565 0.319731 0.0149479
H41_5 H 0.374282 0.0926701 0.00530392
H42_5 H 0.423405 0.0778843 0.0150741
O3_4 O 0.33526(11) 0.34505(10) 0.89130(7)
O4_4 O 0.29563(11) 0.31538(10) 0.85398(7)
O13_4 O 0.3345(2) 0.10723(17) 0.89430(13)
O14_4 O 0.22607(18) 0.01483(15) 0.77967(11)
N1_4 N 0.28147(19) 0.15664(16) 0.88224(12)
H1_4 H 0.2561 0.1607 0.8731
N2_4 N 0.2757(2) 0.08647(19) 0.86721(15)
H2_4 H 0.2492 0.0943 0.8615
C1_4 C 0.38069(16) 0.21844(12) 0.95880(9)
C2_4 C 0.31664(15) 0.31389(13) 0.87849(10)
C3_4 C 0.35002(16) 0.22498(14) 0.93317(10)
C4_4 C 0.34530(15) 0.26635(14) 0.91982(9)
H7_4 H 0.3597 0.2913 0.9281
C5_4 C 0.31911(16) 0.27035(15) 0.89409(10)
C6_4 C 0.2978(2) 0.23446(15) 0.88250(12)
H8_4 H 0.2801 0.2376 0.8650
C7_4 C 0.3018(2) 0.19296(15) 0.89621(13)
C8_4 C 0.32729(19) 0.18889(15) 0.92192(12)
H9_4 H 0.3293 0.1614 0.9319
C9_4 C 0.17974(15) 0.04283(13) 0.67643(10)
H12_4 H 0.2156 0.0186 0.7283
C25_4 C 0.2989(3) 0.1164(2) 0.88220(16)
C28_4 C 0.2890(3) 0.0436(2) 0.85952(18)
C29_4 C 0.2681(3) 0.0237(2) 0.83588(18)
H16_4 H 0.2465 0.0390 0.8246
C33_4 C 0.3201(3) 0.0210(2) 0.87695(19)
H18_4 H 0.3332 0.0339 0.8943
O28_10 O 0.24501(10) 0.39034(11) 0.85681(7)
O29_10 O 0.28957(10) 0.42359(11) 0.88987(7)
O34_10 O 0.1088(2) 0.3628(3) 0.86443(16)
O35_10 O 0.25065(12) 0.34315(13) 0.79538(8)
O36_10 O 0.38619(16) 0.42895(18) 0.90602(9)
N9_10 N 0.05492(19) 0.2240(2) 0.76082(13)
H21_10 H 0.0821 0.2320 0.7646
N10_10 N 0.0418(2) 0.2572(2) 0.80522(15)
H22_10 H 0.0706 0.2592 0.8057
N11_10 N 0.0416(3) 0.3648(3) 0.88533(19)
H23_10 H 0.0245 0.3785 0.8983
N12_10 N 0.0937(2) 0.4111(2) 0.90259(15)
H24_10 H 0.0723 0.4234 0.9129
C43_10 C 0.11673(14) 0.14295(14) 0.67636(9)
C44_10 C 0.00100(14) 0.17923(16) 0.69203(10)
C45_10 C 0.03617(14) 0.15959(14) 0.67884(9)
H28_10 H 0.0326 0.1442 0.6604
C46_10 C 0.07725(15) 0.16190(16) 0.69218(10)
C47_10 C 0.08228(15) 0.1828(2) 0.71946(12)
H29_10 H 0.1103 0.1838 0.7288
C48_10 C 0.04713(17) 0.2023(2) 0.73314(13)
C49_10 C 0.00583(16) 0.2013(2) 0.71921(13)
C50_10 C 0.25257(14) 0.41378(15) 0.87988(10)
C51_10 C 0.18975(14) 0.50908(16) 0.96006(9)
C52_10 C 0.21397(15) 0.42936(17) 0.89707(11)
C53_10 C 0.21953(15) 0.45905(15) 0.92063(10)
H31_10 H 0.2483 0.4680 0.9262
C54_10 C 0.18395(15) 0.47542(18) 0.93580(11)
C55_10 C 0.14125(19) 0.4604(2) 0.92874(14)
H32_10 H 0.1162 0.4719 0.9388
C56_10 C 0.1369(2) 0.4282(2) 0.90667(16)
C57_10 C 0.17288(18) 0.4144(2) 0.88988(13)
H33_10 H 0.1690 0.3947 0.8735
C59_10 C 0.0244(2) 0.2335(3) 0.78204(16)
C60_10 C 0.0834(3) 0.3776(3) 0.8841(2)
C63_10 C 0.0187(2) 0.2788(3) 0.82875(17)
C64_10 C 0.0412(3) 0.3075(3) 0.84528(18)
H35_10 H 0.0716 0.3116 0.8414
C65_10 C 0.0218(3) 0.3307(3) 0.8674(2)
H37_5 H 0.472217 0.323187 0.979575
O9_4 O 0.39034(11) 0.75499(10) 0.85681(7)
O10_4 O 0.42359(11) 0.71043(10) 0.88987(7)
O15_4 O 0.3628(3) 0.8912(2) 0.86443(16)
O18_4 O 0.34315(13) 0.74935(12) 0.79538(8)
O19_4 O 0.42895(18) 0.61381(16) 0.90602(9)
N3_4 N 0.2240(2) 0.94508(19) 0.76082(13)
H3_4 H 0.2320 0.9179 0.7646
N4_4 N 0.2572(2) 0.9582(2) 0.80522(15)
H4_4 H 0.2592 0.9294 0.8057
N5_4 N 0.3648(3) 0.9584(3) 0.88533(19)
H5_4 H 0.3785 0.9755 0.8983
N6_4 N 0.4111(2) 0.9063(2) 0.90259(15)
H6_4 H 0.4234 0.9277 0.9129
C10_4 C 0.14295(14) 0.88327(14) 0.67636(9)
C11_4 C 0.17923(16) 0.99900(14) 0.69203(10)
C12_4 C 0.15959(14) 0.96383(14) 0.67884(9)
H10_4 H 0.1442 0.9674 0.6604
C13_4 C 0.16190(16) 0.92275(15) 0.69218(10)
C14_4 C 0.1828(2) 0.91772(15) 0.71946(12)
H11_4 H 0.1838 0.8897 0.7288
C15_4 C 0.2023(2) 0.95287(17) 0.73314(13)
C16_4 C 0.2013(2) 0.99417(16) 0.71921(13)
C17_4 C 0.41378(15) 0.74743(14) 0.87988(10)
C18_4 C 0.50908(16) 0.81025(14) 0.96006(9)
C19_4 C 0.42936(17) 0.78603(15) 0.89707(11)
C20_4 C 0.45905(15) 0.78047(15) 0.92063(10)
H13_4 H 0.4680 0.7517 0.9262
C21_4 C 0.47542(18) 0.81605(15) 0.93580(11)
C22_4 C 0.4604(2) 0.85875(19) 0.92874(14)
H14_4 H 0.4719 0.8838 0.9388
C23_4 C 0.4282(2) 0.8631(2) 0.90667(16)
C24_4 C 0.4144(2) 0.82712(18) 0.88988(13)
H15_4 H 0.3947 0.8310 0.8735
C26_4 C 0.2335(3) 0.9756(2) 0.78204(16)
C27_4 C 0.3776(3) 0.9166(3) 0.8841(2)
C30_4 C 0.2788(3) 0.9813(2) 0.82875(17)
C31_4 C 0.3075(3) 0.9588(3) 0.84528(18)
H17_4 H 0.3116 0.9284 0.8414
C32_4 C 0.3307(3) 0.9782(3) 0.8674(2)
O39_4 O 0.34505(10) 0.66474(11) 0.89130(7)
O40_4 O 0.31538(10) 0.70437(11) 0.85398(7)
O22_7 O 0.65495(10) 0.33526(11) 0.89130(7)
O23_7 O 0.68462(10) 0.29563(11) 0.85398(7)
O32_10 O 0.89277(17) 0.3345(2) 0.89430(13)
O33_10 O 0.98517(15) 0.22607(18) 0.77967(11)
N7_10 N 0.84336(16) 0.28147(19) 0.88224(12)
H19_10 H 0.8393 0.2561 0.8731
N8_10 N 0.91353(19) 0.2757(2) 0.86721(15)
H20_10 H 0.9057 0.2492 0.8615
C34_10 C 0.78156(12) 0.38069(16) 0.95880(9)
C35_10 C 0.68611(13) 0.31664(15) 0.87849(10)
C36_10 C 0.77502(14) 0.35002(16) 0.93317(10)
C37_10 C 0.73365(14) 0.34530(15) 0.91982(9)
H25_10 H 0.7087 0.3597 0.9281
C38_10 C 0.72965(15) 0.31911(16) 0.89409(10)
C39_10 C 0.76554(15) 0.2978(2) 0.88250(12)
H26_10 H 0.7624 0.2801 0.8650
C40_10 C 0.80704(15) 0.3018(2) 0.89621(13)
C41_10 C 0.81111(15) 0.32729(19) 0.92192(12)
H27_10 H 0.8386 0.3293 0.9319
C42_10 C 0.95717(13) 0.17974(15) 0.67643(10)
H30_10 H 0.9814 0.2156 0.7283
C58_10 C 0.8836(2) 0.2989(3) 0.88220(16)
C61_10 C 0.9564(2) 0.2890(3) 0.85952(18)
C62_10 C 0.9763(2) 0.2681(3) 0.83588(18)
H34_10 H 0.9610 0.2465 0.8246
C66_10 C 0.9790(2) 0.3201(3) 0.87695(19)
H36_10 H 0.9661 0.3332 0.8943
H38_6 H 0.680269 0.485565 0.0149479
H41_6 H 0.90733 0.374282 0.00530392
H42_6 H 0.922116 0.423405 0.0150741
O28_11 O 0.60966(11) 0.24501(10) 0.85681(7)
O29_11 O 0.57641(11) 0.28957(10) 0.88987(7)
O34_11 O 0.6372(3) 0.1088(2) 0.86443(16)
O35_11 O 0.65685(13) 0.25065(12) 0.79538(8)
O36_11 O 0.57105(18) 0.38619(16) 0.90602(9)
N9_11 N 0.7760(2) 0.05492(19) 0.76082(13)
H21_11 H 0.7680 0.0821 0.7646
N10_11 N 0.7428(2) 0.0418(2) 0.80522(15)
H22_11 H 0.7408 0.0706 0.8057
N11_11 N 0.6352(3) 0.0416(3) 0.88533(19)
H23_11 H 0.6215 0.0245 0.8983
N12_11 N 0.5889(2) 0.0937(2) 0.90259(15)
H24_11 H 0.5766 0.0723 0.9129
C43_11 C 0.85705(14) 0.11673(14) 0.67636(9)
C44_11 C 0.82077(16) 0.00100(14) 0.69203(10)
C45_11 C 0.84041(14) 0.03617(14) 0.67884(9)
H28_11 H 0.8558 0.0326 0.6604
C46_11 C 0.83810(16) 0.07725(15) 0.69218(10)
C47_11 C 0.8172(2) 0.08228(15) 0.71946(12)
H29_11 H 0.8162 0.1103 0.7288
C48_11 C 0.7977(2) 0.04713(17) 0.73314(13)
C49_11 C 0.7987(2) 0.00583(16) 0.71921(13)
C50_11 C 0.58622(15) 0.25257(14) 0.87988(10)
C51_11 C 0.49092(16) 0.18975(14) 0.96006(9)
C52_11 C 0.57064(17) 0.21397(15) 0.89707(11)
C53_11 C 0.54095(15) 0.21953(15) 0.92063(10)
H31_11 H 0.5320 0.2483 0.9262
C54_11 C 0.52458(18) 0.18395(15) 0.93580(11)
C55_11 C 0.5396(2) 0.14125(19) 0.92874(14)
H32_11 H 0.5281 0.1162 0.9388
C56_11 C 0.5718(2) 0.1369(2) 0.90667(16)
C57_11 C 0.5856(2) 0.17288(18) 0.88988(13)
H33_11 H 0.6053 0.1690 0.8735
C59_11 C 0.7665(3) 0.0244(2) 0.78204(16)
C60_11 C 0.6224(3) 0.0834(3) 0.8841(2)
C63_11 C 0.7212(3) 0.0187(2) 0.82875(17)
C64_11 C 0.6925(3) 0.0412(3) 0.84528(18)
H35_11 H 0.6884 0.0716 0.8414
C65_11 C 0.6693(3) 0.0218(3) 0.8674(2)
H37_6 H 0.676813 0.472217 0.979575
O22_8 O 0.66474(11) 0.65495(10) 0.89130(7)
O23_8 O 0.70437(11) 0.68462(10) 0.85398(7)
O32_11 O 0.6655(2) 0.89277(17) 0.89430(13)
O33_11 O 0.77393(18) 0.98517(15) 0.77967(11)
N7_11 N 0.71853(19) 0.84336(16) 0.88224(12)
H19_11 H 0.7439 0.8393 0.8731
N8_11 N 0.7243(2) 0.91353(19) 0.86721(15)
H20_11 H 0.7508 0.9057 0.8615
C34_11 C 0.61931(16) 0.78156(12) 0.95880(9)
C35_11 C 0.68336(15) 0.68611(13) 0.87849(10)
C36_11 C 0.64998(16) 0.77502(14) 0.93317(10)
C37_11 C 0.65470(15) 0.73365(14) 0.91982(9)
H25_11 H 0.6403 0.7087 0.9281
C38_11 C 0.68089(16) 0.72965(15) 0.89409(10)
C39_11 C 0.7022(2) 0.76554(15) 0.88250(12)
H26_11 H 0.7199 0.7624 0.8650
C40_11 C 0.6982(2) 0.80704(15) 0.89621(13)
C41_11 C 0.67271(19) 0.81111(15) 0.92192(12)
H27_11 H 0.6707 0.8386 0.9319
C42_11 C 0.82026(15) 0.95717(13) 0.67643(10)
H30_11 H 0.7844 0.9814 0.7283
C58_11 C 0.7011(3) 0.8836(2) 0.88220(16)
C61_11 C 0.7110(3) 0.9564(2) 0.85952(18)
C62_11 C 0.7319(3) 0.9763(2) 0.83588(18)
H34_11 H 0.7535 0.9610 0.8246
C66_11 C 0.6799(3) 0.9790(2) 0.87695(19)
H36_11 H 0.6668 0.9661 0.8943
O32_12 O 0.10723(17) 0.6655(2) 0.89430(13)
O33_12 O 0.01483(15) 0.77393(18) 0.77967(11)
N7_12 N 0.15664(16) 0.71853(19) 0.88224(12)
H19_12 H 0.1607 0.7439 0.8731
N8_12 N 0.08647(19) 0.7243(2) 0.86721(15)
H20_12 H 0.0943 0.7508 0.8615
C34_12 C 0.21844(12) 0.61931(16) 0.95880(9)
C35_12 C 0.31389(13) 0.68336(15) 0.87849(10)
C36_12 C 0.22498(14) 0.64998(16) 0.93317(10)
C37_12 C 0.26635(14) 0.65470(15) 0.91982(9)
H25_12 H 0.2913 0.6403 0.9281
C38_12 C 0.27035(15) 0.68089(16) 0.89409(10)
C39_12 C 0.23446(15) 0.7022(2) 0.88250(12)
H26_12 H 0.2376 0.7199 0.8650
C40_12 C 0.19296(15) 0.6982(2) 0.89621(13)
C41_12 C 0.18889(15) 0.67271(19) 0.92192(12)
H27_12 H 0.1614 0.6707 0.9319
C42_12 C 0.04283(13) 0.82026(15) 0.67643(10)
H30_12 H 0.0186 0.7844 0.7283
C58_12 C 0.1164(2) 0.7011(3) 0.88220(16)
C61_12 C 0.0436(2) 0.7110(3) 0.85952(18)
C62_12 C 0.0237(2) 0.7319(3) 0.83588(18)
H34_12 H 0.0390 0.7535 0.8246
C66_12 C 0.0210(2) 0.6799(3) 0.87695(19)
H36_12 H 0.0339 0.6668 0.8943
H38_7 H 0.514435 0.680269 0.0149479
H41_7 H 0.625718 0.90733 0.00530392
H42_7 H 0.576595 0.922116 0.0150741
O28_12 O 0.75499(10) 0.60966(11) 0.85681(7)
O29_12 O 0.71043(10) 0.57641(11) 0.88987(7)
O34_12 O 0.8912(2) 0.6372(3) 0.86443(16)
O35_12 O 0.74935(12) 0.65685(13) 0.79538(8)
O36_12 O 0.61381(16) 0.57105(18) 0.90602(9)
N9_12 N 0.94508(19) 0.7760(2) 0.76082(13)
H21_12 H 0.9179 0.7680 0.7646
N10_12 N 0.9582(2) 0.7428(2) 0.80522(15)
H22_12 H 0.9294 0.7408 0.8057
N11_12 N 0.9584(3) 0.6352(3) 0.88533(19)
H23_12 H 0.9755 0.6215 0.8983
N12_12 N 0.9063(2) 0.5889(2) 0.90259(15)
H24_12 H 0.9277 0.5766 0.9129
C43_12 C 0.88327(14) 0.85705(14) 0.67636(9)
C44_12 C 0.99900(14) 0.82077(16) 0.69203(10)
C45_12 C 0.96383(14) 0.84041(14) 0.67884(9)
H28_12 H 0.9674 0.8558 0.6604
C46_12 C 0.92275(15) 0.83810(16) 0.69218(10)
C47_12 C 0.91772(15) 0.8172(2) 0.71946(12)
H29_12 H 0.8897 0.8162 0.7288
C48_12 C 0.95287(17) 0.7977(2) 0.73314(13)
C49_12 C 0.99417(16) 0.7987(2) 0.71921(13)
C50_12 C 0.74743(14) 0.58622(15) 0.87988(10)
C51_12 C 0.81025(14) 0.49092(16) 0.96006(9)
C52_12 C 0.78603(15) 0.57064(17) 0.89707(11)
C53_12 C 0.78047(15) 0.54095(15) 0.92063(10)
H31_12 H 0.7517 0.5320 0.9262
C54_12 C 0.81605(15) 0.52458(18) 0.93580(11)
C55_12 C 0.85875(19) 0.5396(2) 0.92874(14)
H32_12 H 0.8838 0.5281 0.9388
C56_12 C 0.8631(2) 0.5718(2) 0.90667(16)
C57_12 C 0.82712(18) 0.5856(2) 0.88988(13)
H33_12 H 0.8310 0.6053 0.8735
C59_12 C 0.9756(2) 0.7665(3) 0.78204(16)
C60_12 C 0.9166(3) 0.6224(3) 0.8841(2)
C63_12 C 0.9813(2) 0.7212(3) 0.82875(17)
C64_12 C 0.9588(3) 0.6925(3) 0.84528(18)
H35_12 H 0.9284 0.6884 0.8414
C65_12 C 0.9782(3) 0.6693(3) 0.8674(2)
H37_7 H 0.527783 0.676813 0.979575
H38_8 H 0.319731 0.514435 0.0149479
H41_8 H 0.0926701 0.625718 0.00530392
H42_8 H 0.0778843 0.576595 0.0150741
H37_8 H 0.323187 0.527783 0.979575
loop_
_geom_bond_atom_site_label_1
_geom_bond_atom_site_label_2
_geom_bond_site_symmetry_1
_geom_bond_site_symmetry_2
Cu1 O1 1_555 1_555
Cu2 O2 1_555 1_555
Cu3 O10 1_555 1_555
Cu4 O9 1_555 1_555
O1 C1 1_555 1_555
O2 C1 1_555 1_555
O3 C2 1_555 1_555
O4 C2 1_555 1_555
O5 C9 1_555 1_555
O6 C9 1_555 1_555
O7 C10 1_555 1_555
O8 C10 1_555 1_555
O9 C17 1_555 1_555
O10 C17 1_555 1_555
O13 C25 1_555 1_555
O14 C26 1_555 1_555
O15 C27 1_555 1_555
O16 Cu1 1_555 1_555
O17 Cu2 1_555 1_555
O18 Cu4 1_555 1_555
O19 Cu3 1_555 1_555
N1 H1 1_555 1_555
N2 H2 1_555 1_555
N3 H3 1_555 1_555
N4 H4 1_555 1_555
N5 H5 1_555 1_555
N6 H6 1_555 1_555
C1 C3 1_555 1_555
C2 C5 1_555 1_555
C3 C4 1_555 1_555
C4 H7 1_555 1_555
C5 C4 1_555 1_555
C6 C5 1_555 1_555
H8 C6 1_555 1_555
C7 N1 1_555 1_555
C8 C3 1_555 1_555
H9 C8 1_555 1_555
C9 C11 1_555 1_555
C10 C13 1_555 1_555
C11 C12 1_555 1_555
C12 H10 1_555 1_555
C13 C12 1_555 1_555
C14 C13 1_555 1_555
H11 C14 1_555 1_555
C15 N3 1_555 1_555
C16 C11 1_555 1_555
H12 C16 1_555 1_555
C17 C19 1_555 1_555
C19 C20 1_555 1_555
C20 H13 1_555 1_555
C21 C20 1_555 1_555
C22 C21 1_555 1_555
H14 C22 1_555 1_555
C23 N6 1_555 1_555
C24 C19 1_555 1_555
H15 C24 1_555 1_555
C25 N1 1_555 1_555
C26 N3 1_555 1_555
C27 N5 1_555 1_555
C28 N2 1_555 1_555
C29 C28 1_555 1_555
H16 C29 1_555 1_555
C30 N4 1_555 1_555
C31 C30 1_555 1_555
H17 C31 1_555 1_555
C32 N5 1_555 1_555
C33 C28 1_555 1_555
H18 C33 1_555 1_555
Cu5 O3 1_555 1_555
Cu6 O4 1_555 1_555
O20 C34 1_555 1_555
O21 C34 1_555 1_555
O22 C35 1_555 1_555
O23 C35 1_555 1_555
O24 C42 1_555 1_555
O25 C42 1_555 1_555
O26 C43 1_555 1_555
O27 C43 1_555 1_555
O28 Cu6 1_555 1_555
O29 Cu5 1_555 1_555
O32 C58 1_555 1_555
O33 C59 1_555 1_555
O34 C60 1_555 1_555
O35 Cu6 1_555 1_555
O36 Cu5 1_555 1_555
N7 H19 1_555 1_555
N8 H20 1_555 1_555
N9 H21 1_555 1_555
N10 H22 1_555 1_555
N11 H23 1_555 1_555
N12 H24 1_555 1_555
C34 C36 1_555 1_555
C35 C38 1_555 1_555
C36 C37 1_555 1_555
C37 H25 1_555 1_555
C38 C37 1_555 1_555
C39 C38 1_555 1_555
H26 C39 1_555 1_555
C40 N7 1_555 1_555
C41 C36 1_555 1_555
H27 C41 1_555 1_555
C42 C44 1_555 1_555
C43 C46 1_555 1_555
C44 C45 1_555 1_555
C45 H28 1_555 1_555
C46 C45 1_555 1_555
C47 C46 1_555 1_555
H29 C47 1_555 1_555
C48 N9 1_555 1_555
C49 C44 1_555 1_555
H30 C49 1_555 1_555
C50 O28 1_555 1_555
C52 C50 1_555 1_555
C53 C52 1_555 1_555
H31 C53 1_555 1_555
C54 C53 1_555 1_555
C55 C54 1_555 1_555
H32 C55 1_555 1_555
C56 N12 1_555 1_555
C57 C52 1_555 1_555
H33 C57 1_555 1_555
C58 N7 1_555 1_555
C59 N9 1_555 1_555
C60 N11 1_555 1_555
C61 N8 1_555 1_555
C62 C61 1_555 1_555
H34 C62 1_555 1_555
C63 N10 1_555 1_555
C64 C63 1_555 1_555
H35 C64 1_555 1_555
C65 N11 1_555 1_555
C66 C61 1_555 1_555
H36 C66 1_555 1_555
Cu7 O20 1_555 1_555
Cu10 O21 1_555 1_555
Cu13 O22 1_555 1_555
Cu14 O7 1_555 1_555
Cu15 O6 1_555 1_555
Cu16 O25 1_555 1_555
Cu17 O23 1_555 1_555
Cu18 O8 1_555 1_555
Cu19 O5 1_555 1_555
Cu20 O24 1_555 1_555
O37 Cu1 1_555 1_555
O38 Cu2 1_555 1_555
O39 Cu3 1_555 1_555
O40 Cu4 1_555 1_555
O41 Cu6 1_555 1_555
O42 Cu4 1_555 1_555
O43 Cu5 1_555 1_555
O44 Cu3 1_555 1_555
O45 Cu3 1_555 1_555
O46 Cu5 1_555 1_555
O47 Cu4 1_555 1_555
O48 Cu6 1_555 1_555
O49 Cu2 1_555 1_555
O50 Cu2 1_555 1_555
O51 Cu1 1_555 1_555
O52 Cu1 1_555 1_555
N2 C25 1_555 1_555
N4 C26 1_555 1_555
N6 C27 1_555 1_555
C6 C7 1_555 1_555
C7 C8 1_555 1_555
C14 C15 1_555 1_555
C15 C16 1_555 1_555
C22 C23 1_555 1_555
C23 C24 1_555 1_555
C29 C30 1_555 1_555
C31 C32 1_555 1_555
C32 C33 1_555 1_555
O26 Cu15 1_555 1_555
O27 Cu19 1_555 1_555
O29 C50 1_555 1_555
N8 C58 1_555 1_555
N10 C59 1_555 1_555
N12 C60 1_555 1_555
C39 C40 1_555 1_555
C40 C41 1_555 1_555
C47 C48 1_555 1_555
C48 C49 1_555 1_555
C55 C56 1_555 1_555
C56 C57 1_555 1_555
C62 C63 1_555 1_555
C64 C65 1_555 1_555
C65 C66 1_555 1_555
O30 C51 1_555 1_555
O31 C51 1_555 1_555
Cu9 O31 1_555 1_555
Cu12 O30 1_555 1_555
O11 C18 1_555 1_555
O12 C18 1_555 1_555
Cu8 O12 1_555 1_555
Cu11 O11 1_555 1_555
O49 C51_2 1_555 1_555
O51 C51_2 1_555 1_555
O16_2 Cu7 1_555 1_555
O17_2 Cu10 1_555 1_555
O20_2 C34_2 1_555 1_555
O21_2 C34_2 1_555 1_555
O22_2 C35_2 1_555 1_555
O23_2 C35_2 1_555 1_555
O24_2 C42_2 1_555 1_555
O25_2 C42_2 1_555 1_555
O26_2 C43_2 1_555 1_555
O27_2 C43_2 1_555 1_555
O28_2 Cu17 1_555 1_555
O29_2 Cu13 1_555 1_555
O32_2 C58_2 1_555 1_555
O33_2 C59_2 1_555 1_555
O34_2 C60_2 1_555 1_555
O35_2 Cu17 1_555 1_555
O36_2 Cu13 1_555 1_555
N7_2 H19_2 1_555 1_555
N8_2 H20_2 1_555 1_555
N9_2 H21_2 1_555 1_555
N10_2 H22_2 1_555 1_555
N11_2 H23_2 1_555 1_555
N12_2 H24_2 1_555 1_555
C34_2 C36_2 1_555 1_555
C35_2 C38_2 1_555 1_555
C36_2 C37_2 1_555 1_555
C37_2 H25_2 1_555 1_555
C38_2 C37_2 1_555 1_555
C39_2 C38_2 1_555 1_555
H26_2 C39_2 1_555 1_555
C40_2 N7_2 1_555 1_555
C41_2 C36_2 1_555 1_555
H27_2 C41_2 1_555 1_555
C42_2 C44_2 1_555 1_555
C43_2 C46_2 1_555 1_555
C44_2 C45_2 1_555 1_555
C45_2 H28_2 1_555 1_555
C46_2 C45_2 1_555 1_555
C47_2 C46_2 1_555 1_555
H29_2 C47_2 1_555 1_555
C48_2 N9_2 1_555 1_555
C49_2 C44_2 1_555 1_555
H30_2 C49_2 1_555 1_555
C50_2 O28_2 1_555 1_555
C52_2 C50_2 1_555 1_555
C53_2 C52_2 1_555 1_555
H31_2 C53_2 1_555 1_555
C54_2 C53_2 1_555 1_555
C55_2 C54_2 1_555 1_555
H32_2 C55_2 1_555 1_555
C56_2 N12_2 1_555 1_555
C57_2 C52_2 1_555 1_555
H33_2 C57_2 1_555 1_555
C58_2 N7_2 1_555 1_555
C59_2 N9_2 1_555 1_555
C60_2 N11_2 1_555 1_555
C61_2 N8_2 1_555 1_555
C62_2 C61_2 1_555 1_555
H34_2 C62_2 1_555 1_555
C63_2 N10_2 1_555 1_555
C64_2 C63_2 1_555 1_555
H35_2 C64_2 1_555 1_555
C65_2 N11_2 1_555 1_555
C66_2 C61_2 1_555 1_555
H36_2 C66_2 1_555 1_555
Cu8 O20_2 1_555 1_555
Cu11 O21_2 1_555 1_555
Cu13_2 O22_2 1_555 1_555
Cu16_2 O25_2 1_555 1_555
Cu17_2 O23_2 1_555 1_555
Cu20_2 O24_2 1_555 1_555
O37_2 Cu7 1_555 1_555
O38_2 Cu10 1_555 1_555
O41_2 Cu17 1_555 1_555
O43_2 Cu13 1_555 1_555
O46_2 Cu13 1_555 1_555
O48_2 Cu17 1_555 1_555
O49_2 Cu10 1_555 1_555
O50_2 Cu10 1_555 1_555
O51_2 Cu7 1_555 1_555
O52_2 Cu7 1_555 1_555
O26_2 Cu16 1_555 1_555
O27_2 Cu20 1_555 1_555
O29_2 C50_2 1_555 1_555
N8_2 C58_2 1_555 1_555
N10_2 C59_2 1_555 1_555
N12_2 C60_2 1_555 1_555
C39_2 C40_2 1_555 1_555
C40_2 C41_2 1_555 1_555
C47_2 C48_2 1_555 1_555
C48_2 C49_2 1_555 1_555
C55_2 C56_2 1_555 1_555
C56_2 C57_2 1_555 1_555
C62_2 C63_2 1_555 1_555
C64_2 C65_2 1_555 1_555
C65_2 C66_2 1_555 1_555
O49_2 C51_3 1_555 1_555
O51_2 C51_3 1_555 1_555
O16_3 Cu8 1_555 1_555
O17_3 Cu11 1_555 1_555
O20_3 C34_3 1_555 1_555
O21_3 C34_3 1_555 1_555
O39 C35_3 1_555 1_555
O40 C35_3 1_555 1_555
O24_3 C42_3 1_555 1_555
O25_3 C42_3 1_555 1_555
O26_3 C43_3 1_555 1_555
O27_3 C43_3 1_555 1_555
O28_3 Cu17_2 1_555 1_555
O29_3 Cu13_2 1_555 1_555
O32_3 C58_3 1_555 1_555
O33_3 C59_3 1_555 1_555
O34_3 C60_3 1_555 1_555
O35_3 Cu17_2 1_555 1_555
O36_3 Cu13_2 1_555 1_555
N7_3 H19_3 1_555 1_555
N8_3 H20_3 1_555 1_555
N9_3 H21_3 1_555 1_555
N10_3 H22_3 1_555 1_555
N11_3 H23_3 1_555 1_555
N12_3 H24_3 1_555 1_555
C34_3 C36_3 1_555 1_555
C35_3 C38_3 1_555 1_555
C36_3 C37_3 1_555 1_555
C37_3 H25_3 1_555 1_555
C38_3 C37_3 1_555 1_555
C39_3 C38_3 1_555 1_555
H26_3 C39_3 1_555 1_555
C40_3 N7_3 1_555 1_555
C41_3 C36_3 1_555 1_555
H27_3 C41_3 1_555 1_555
C42_3 C44_3 1_555 1_555
C43_3 C46_3 1_555 1_555
C44_3 C45_3 1_555 1_555
C45_3 H28_3 1_555 1_555
C46_3 C45_3 1_555 1_555
C47_3 C46_3 1_555 1_555
H29_3 C47_3 1_555 1_555
C48_3 N9_3 1_555 1_555
C49_3 C44_3 1_555 1_555
H30_3 C49_3 1_555 1_555
C50_3 O28_3 1_555 1_555
C52_3 C50_3 1_555 1_555
C53_3 C52_3 1_555 1_555
H31_3 C53_3 1_555 1_555
C54_3 C53_3 1_555 1_555
C55_3 C54_3 1_555 1_555
H32_3 C55_3 1_555 1_555
C56_3 N12_3 1_555 1_555
C57_3 C52_3 1_555 1_555
H33_3 C57_3 1_555 1_555
C58_3 N7_3 1_555 1_555
C59_3 N9_3 1_555 1_555
C60_3 N11_3 1_555 1_555
C61_3 N8_3 1_555 1_555
C62_3 C61_3 1_555 1_555
H34_3 C62_3 1_555 1_555
C63_3 N10_3 1_555 1_555
C64_3 C63_3 1_555 1_555
H35_3 C64_3 1_555 1_555
C65_3 N11_3 1_555 1_555
C66_3 C61_3 1_555 1_555
H36_3 C66_3 1_555 1_555
Cu9 O20_3 1_555 1_555
Cu12 O21_3 1_555 1_555
Cu14 O25_3 1_555 1_555
Cu18 O24_3 1_555 1_555
O37_3 Cu8 1_555 1_555
O38_3 Cu11 1_555 1_555
O41_3 Cu17_2 1_555 1_555
O43_3 Cu13_2 1_555 1_555
O46_3 Cu13_2 1_555 1_555
O48_3 Cu17_2 1_555 1_555
O50_3 Cu11 1_555 1_555
O52_3 Cu8 1_555 1_555
O26_3 Cu16_2 1_555 1_555
O27_3 Cu20_2 1_555 1_555
O29_3 C50_3 1_555 1_555
N8_3 C58_3 1_555 1_555
N10_3 C59_3 1_555 1_555
N12_3 C60_3 1_555 1_555
C39_3 C40_3 1_555 1_555
C40_3 C41_3 1_555 1_555
C47_3 C48_3 1_555 1_555
C48_3 C49_3 1_555 1_555
C55_3 C56_3 1_555 1_555
C56_3 C57_3 1_555 1_555
C62_3 C63_3 1_555 1_555
C64_3 C65_3 1_555 1_555
C65_3 C66_3 1_555 1_555
O16_4 Cu9 1_555 1_555
O17_4 Cu12 1_555 1_555
O37_4 Cu9 1_555 1_555
O38_4 Cu12 1_555 1_555
O50_4 Cu12 1_555 1_555
O52_4 Cu9 1_555 1_555
O20_4 C34_4 1_555 1_555
O21_4 C34_4 1_555 1_555
O22_3 C35_4 1_555 1_555
O23_3 C35_4 1_555 1_555
O24_4 C42_4 1_555 1_555
O25_4 C42_4 1_555 1_555
O32_4 C58_4 1_555 1_555
N7_4 H19_4 1_555 1_555
N8_4 H20_4 1_555 1_555
C34_4 C36_4 1_555 1_555
C35_4 C38_4 1_555 1_555
C36_4 C37_4 1_555 1_555
C37_4 H25_4 1_555 1_555
C38_4 C37_4 1_555 1_555
C39_4 C38_4 1_555 1_555
H26_4 C39_4 1_555 1_555
C40_4 N7_4 1_555 1_555
C41_4 C36_4 1_555 1_555
H27_4 C41_4 1_555 1_555
C58_4 N7_4 1_555 1_555
C61_4 N8_4 1_555 1_555
C62_4 C61_4 1_555 1_555
H34_4 C62_4 1_555 1_555
C66_4 C61_4 1_555 1_555
H36_4 C66_4 1_555 1_555
Cu7_2 O20_4 1_555 1_555
Cu10_2 O21_4 1_555 1_555
Cu13_3 O22_3 1_555 1_555
Cu16_3 O25_4 1_555 1_555
Cu17_3 O23_3 1_555 1_555
Cu20_3 O24_4 1_555 1_555
N8_4 C58_4 1_555 1_555
C39_4 C40_4 1_555 1_555
C40_4 C41_4 1_555 1_555
Cu3_2 O10_2 1_555 1_555
Cu4_2 O9_2 1_555 1_555
O7_2 C10_2 1_555 1_555
O8_2 C10_2 1_555 1_555
O9_2 C17_2 1_555 1_555
O10_2 C17_2 1_555 1_555
O11_2 C18_2 1_555 1_555
O12_2 C18_2 1_555 1_555
O15_2 C27_2 1_555 1_555
O18_2 Cu4_2 1_555 1_555
O19_2 Cu3_2 1_555 1_555
N3_2 H3_2 1_555 1_555
N4_2 H4_2 1_555 1_555
N5_2 H5_2 1_555 1_555
N6_2 H6_2 1_555 1_555
C10_2 C13_2 1_555 1_555
C11_2 C12_2 1_555 1_555
C12_2 H10_2 1_555 1_555
C13_2 C12_2 1_555 1_555
C14_2 C13_2 1_555 1_555
H11_2 C14_2 1_555 1_555
C15_2 N3_2 1_555 1_555
C16_2 C11_2 1_555 1_555
C17_2 C19_2 1_555 1_555
C18_2 C21_2 1_555 1_555
C19_2 C20_2 1_555 1_555
C20_2 H13_2 1_555 1_555
C21_2 C20_2 1_555 1_555
C22_2 C21_2 1_555 1_555
H14_2 C22_2 1_555 1_555
C23_2 N6_2 1_555 1_555
C24_2 C19_2 1_555 1_555
H15_2 C24_2 1_555 1_555
C26_2 N3_2 1_555 1_555
C27_2 N5_2 1_555 1_555
C30_2 N4_2 1_555 1_555
C31_2 C30_2 1_555 1_555
H17_2 C31_2 1_555 1_555
C32_2 N5_2 1_555 1_555
Cu8_2 O12_2 1_555 1_555
Cu11_2 O11_2 1_555 1_555
Cu14_2 O7_2 1_555 1_555
Cu18_2 O8_2 1_555 1_555
O39_2 Cu3_2 1_555 1_555
O40_2 Cu4_2 1_555 1_555
O42_2 Cu4_2 1_555 1_555
O44_2 Cu3_2 1_555 1_555
O45_2 Cu3_2 1_555 1_555
O47_2 Cu4_2 1_555 1_555
N4_2 C26_2 1_555 1_555
N6_2 C27_2 1_555 1_555
C14_2 C15_2 1_555 1_555
C15_2 C16_2 1_555 1_555
C22_2 C23_2 1_555 1_555
C23_2 C24_2 1_555 1_555
C31_2 C32_2 1_555 1_555
Cu1_2 O1_2 1_555 1_555
Cu2_2 O2_2 1_555 1_555
O1_2 C1_2 1_555 1_555
O2_2 C1_2 1_555 1_555
O3_2 C2_2 1_555 1_555
O4_2 C2_2 1_555 1_555
O5_2 C9_2 1_555 1_555
O6_2 C9_2 1_555 1_555
O13_2 C25_2 1_555 1_555
O16_5 Cu1_2 1_555 1_555
O17_5 Cu2_2 1_555 1_555
N1_2 H1_2 1_555 1_555
N2_2 H2_2 1_555 1_555
C1_2 C3_2 1_555 1_555
C2_2 C5_2 1_555 1_555
C3_2 C4_2 1_555 1_555
C4_2 H7_2 1_555 1_555
C5_2 C4_2 1_555 1_555
C6_2 C5_2 1_555 1_555
H8_2 C6_2 1_555 1_555
C7_2 N1_2 1_555 1_555
C8_2 C3_2 1_555 1_555
H9_2 C8_2 1_555 1_555
C25_2 N1_2 1_555 1_555
C28_2 N2_2 1_555 1_555
C29_2 C28_2 1_555 1_555
H16_2 C29_2 1_555 1_555
C33_2 C28_2 1_555 1_555
H18_2 C33_2 1_555 1_555
Cu5_2 O3_2 1_555 1_555
Cu6_2 O4_2 1_555 1_555
O26_4 C43_4 1_555 1_555
O27_4 C43_4 1_555 1_555
O28_4 Cu6_2 1_555 1_555
O29_4 Cu5_2 1_555 1_555
O30_2 C51_4 1_555 1_555
O31_2 C51_4 1_555 1_555
O34_4 C60_4 1_555 1_555
O35_4 Cu6_2 1_555 1_555
O36_4 Cu5_2 1_555 1_555
N9_4 H21_4 1_555 1_555
N10_4 H22_4 1_555 1_555
N11_4 H23_4 1_555 1_555
N12_4 H24_4 1_555 1_555
C43_4 C46_4 1_555 1_555
C44_4 C45_4 1_555 1_555
C45_4 H28_4 1_555 1_555
C46_4 C45_4 1_555 1_555
C47_4 C46_4 1_555 1_555
H29_4 C47_4 1_555 1_555
C48_4 N9_4 1_555 1_555
C49_4 C44_4 1_555 1_555
C50_4 O28_4 1_555 1_555
C51_4 C54_4 1_555 1_555
C52_4 C50_4 1_555 1_555
C53_4 C52_4 1_555 1_555
H31_4 C53_4 1_555 1_555
C54_4 C53_4 1_555 1_555
C55_4 C54_4 1_555 1_555
H32_4 C55_4 1_555 1_555
C56_4 N12_4 1_555 1_555
C57_4 C52_4 1_555 1_555
H33_4 C57_4 1_555 1_555
C59_4 N9_4 1_555 1_555
C60_4 N11_4 1_555 1_555
C63_4 N10_4 1_555 1_555
C64_4 C63_4 1_555 1_555
H35_4 C64_4 1_555 1_555
C65_4 N11_4 1_555 1_555
Cu9_2 O31_2 1_555 1_555
Cu12_2 O30_2 1_555 1_555
Cu15_2 O6_2 1_555 1_555
Cu19_2 O5_2 1_555 1_555
O41_4 Cu6_2 1_555 1_555
O43_4 Cu5_2 1_555 1_555
O46_4 Cu5_2 1_555 1_555
O48_4 Cu6_2 1_555 1_555
O49_3 Cu2_2 1_555 1_555
O51_3 Cu1_2 1_555 1_555
N2_2 C25_2 1_555 1_555
C6_2 C7_2 1_555 1_555
C7_2 C8_2 1_555 1_555
O26_4 Cu15_2 1_555 1_555
O27_4 Cu19_2 1_555 1_555
O29_4 C50_4 1_555 1_555
N10_4 C59_4 1_555 1_555
N12_4 C60_4 1_555 1_555
C47_4 C48_4 1_555 1_555
C48_4 C49_4 1_555 1_555
C55_4 C56_4 1_555 1_555
C56_4 C57_4 1_555 1_555
C64_4 C65_4 1_555 1_555
O17_5 H37 1_555 1_555
O16_6 Cu1_3 1_555 1_555
O17_6 Cu2_3 1_555 1_555
O37_5 Cu1_3 1_555 1_555
O38_5 Cu2_3 1_555 1_555
O50_5 Cu2_3 1_555 1_555
O52_5 Cu1_3 1_555 1_555
O17_6 H38 1_555 1_555
O16_6 H41 1_555 1_555
O16_6 H42 1_555 1_555
O20_5 C34_5 1_555 1_555
O21_5 C34_5 1_555 1_555
O22_4 C35_5 1_555 1_555
O23_4 C35_5 1_555 1_555
O24_5 C42_5 1_555 1_555
O25_5 C42_5 1_555 1_555
O32_5 C58_5 1_555 1_555
N7_5 H19_5 1_555 1_555
N8_5 H20_5 1_555 1_555
C34_5 C36_5 1_555 1_555
C35_5 C38_5 1_555 1_555
C36_5 C37_5 1_555 1_555
C37_5 H25_5 1_555 1_555
C38_5 C37_5 1_555 1_555
C39_5 C38_5 1_555 1_555
H26_5 C39_5 1_555 1_555
C40_5 N7_5 1_555 1_555
C41_5 C36_5 1_555 1_555
H27_5 C41_5 1_555 1_555
C58_5 N7_5 1_555 1_555
C61_5 N8_5 1_555 1_555
C62_5 C61_5 1_555 1_555
H34_5 C62_5 1_555 1_555
C66_5 C61_5 1_555 1_555
H36_5 C66_5 1_555 1_555
Cu8_2 O20_5 1_555 1_555
Cu11_2 O21_5 1_555 1_555
Cu13_4 O22_4 1_555 1_555
Cu16_4 O25_5 1_555 1_555
Cu17_4 O23_4 1_555 1_555
Cu20_4 O24_5 1_555 1_555
N8_5 C58_5 1_555 1_555
C39_5 C40_5 1_555 1_555
C40_5 C41_5 1_555 1_555
O16_7 Cu7_2 1_555 1_555
O17_7 Cu10_2 1_555 1_555
O26_5 C43_5 1_555 1_555
O27_5 C43_5 1_555 1_555
O28_5 Cu17_3 1_555 1_555
O29_5 Cu13_3 1_555 1_555
O49_3 C51_5 1_555 1_555
O51_3 C51_5 1_555 1_555
O34_5 C60_5 1_555 1_555
O35_5 Cu17_3 1_555 1_555
O36_5 Cu13_3 1_555 1_555
N9_5 H21_5 1_555 1_555
N10_5 H22_5 1_555 1_555
N11_5 H23_5 1_555 1_555
N12_5 H24_5 1_555 1_555
C43_5 C46_5 1_555 1_555
C44_5 C45_5 1_555 1_555
C45_5 H28_5 1_555 1_555
C46_5 C45_5 1_555 1_555
C47_5 C46_5 1_555 1_555
H29_5 C47_5 1_555 1_555
C48_5 N9_5 1_555 1_555
C49_5 C44_5 1_555 1_555
C50_5 O28_5 1_555 1_555
C51_5 C54_5 1_555 1_555
C52_5 C50_5 1_555 1_555
C53_5 C52_5 1_555 1_555
H31_5 C53_5 1_555 1_555
C54_5 C53_5 1_555 1_555
C55_5 C54_5 1_555 1_555
H32_5 C55_5 1_555 1_555
C56_5 N12_5 1_555 1_555
C57_5 C52_5 1_555 1_555
H33_5 C57_5 1_555 1_555
C59_5 N9_5 1_555 1_555
C60_5 N11_5 1_555 1_555
C63_5 N10_5 1_555 1_555
C64_5 C63_5 1_555 1_555
H35_5 C64_5 1_555 1_555
C65_5 N11_5 1_555 1_555
O41_5 Cu17_3 1_555 1_555
O43_5 Cu13_3 1_555 1_555
O46_5 Cu13_3 1_555 1_555
O48_5 Cu17_3 1_555 1_555
O49_4 Cu10_2 1_555 1_555
O51_4 Cu7_2 1_555 1_555
O26_5 Cu16_3 1_555 1_555
O27_5 Cu20_3 1_555 1_555
O29_5 C50_5 1_555 1_555
N10_5 C59_5 1_555 1_555
N12_5 C60_5 1_555 1_555
C47_5 C48_5 1_555 1_555
C48_5 C49_5 1_555 1_555
C55_5 C56_5 1_555 1_555
C56_5 C57_5 1_555 1_555
C64_5 C65_5 1_555 1_555
O17_7 H37_2 1_555 1_555
O16_8 Cu7_3 1_555 1_555
O17_8 Cu10_3 1_555 1_555
O37_6 Cu7_3 1_555 1_555
O38_6 Cu10_3 1_555 1_555
O50_6 Cu10_3 1_555 1_555
O52_6 Cu7_3 1_555 1_555
O17_8 H38_2 1_555 1_555
O16_8 H41_2 1_555 1_555
O16_8 H42_2 1_555 1_555
O16_9 Cu8_2 1_555 1_555
O17_9 Cu11_2 1_555 1_555
O26_6 C43_6 1_555 1_555
O27_6 C43_6 1_555 1_555
O28_6 Cu17_4 1_555 1_555
O29_6 Cu13_4 1_555 1_555
O49_4 C51_6 1_555 1_555
O51_4 C51_6 1_555 1_555
O34_6 C60_6 1_555 1_555
O35_6 Cu17_4 1_555 1_555
O36_6 Cu13_4 1_555 1_555
N9_6 H21_6 1_555 1_555
N10_6 H22_6 1_555 1_555
N11_6 H23_6 1_555 1_555
N12_6 H24_6 1_555 1_555
C43_6 C46_6 1_555 1_555
C44_6 C45_6 1_555 1_555
C45_6 H28_6 1_555 1_555
C46_6 C45_6 1_555 1_555
C47_6 C46_6 1_555 1_555
H29_6 C47_6 1_555 1_555
C48_6 N9_6 1_555 1_555
C49_6 C44_6 1_555 1_555
C50_6 O28_6 1_555 1_555
C51_6 C54_6 1_555 1_555
C52_6 C50_6 1_555 1_555
C53_6 C52_6 1_555 1_555
H31_6 C53_6 1_555 1_555
C54_6 C53_6 1_555 1_555
C55_6 C54_6 1_555 1_555
H32_6 C55_6 1_555 1_555
C56_6 N12_6 1_555 1_555
C57_6 C52_6 1_555 1_555
H33_6 C57_6 1_555 1_555
C59_6 N9_6 1_555 1_555
C60_6 N11_6 1_555 1_555
C63_6 N10_6 1_555 1_555
C64_6 C63_6 1_555 1_555
H35_6 C64_6 1_555 1_555
C65_6 N11_6 1_555 1_555
O41_6 Cu17_4 1_555 1_555
O43_6 Cu13_4 1_555 1_555
O46_6 Cu13_4 1_555 1_555
O48_6 Cu17_4 1_555 1_555
O26_6 Cu16_4 1_555 1_555
O27_6 Cu20_4 1_555 1_555
O29_6 C50_6 1_555 1_555
N10_6 C59_6 1_555 1_555
N12_6 C60_6 1_555 1_555
C47_6 C48_6 1_555 1_555
C48_6 C49_6 1_555 1_555
C55_6 C56_6 1_555 1_555
C56_6 C57_6 1_555 1_555
C64_6 C65_6 1_555 1_555
O17_9 H37_3 1_555 1_555
O16_10 Cu8_3 1_555 1_555
O17_10 Cu11_3 1_555 1_555
O37_7 Cu8_3 1_555 1_555
O38_7 Cu11_3 1_555 1_555
O50_7 Cu11_3 1_555 1_555
O52_7 Cu8_3 1_555 1_555
O17_10 H38_3 1_555 1_555
O16_10 H41_3 1_555 1_555
O16_10 H42_3 1_555 1_555
O20_6 C34_6 1_555 1_555
O21_6 C34_6 1_555 1_555
O39_2 C35_6 1_555 1_555
O40_2 C35_6 1_555 1_555
O24_6 C42_6 1_555 1_555
O25_6 C42_6 1_555 1_555
O32_6 C58_6 1_555 1_555
N7_6 H19_6 1_555 1_555
N8_6 H20_6 1_555 1_555
C34_6 C36_6 1_555 1_555
C35_6 C38_6 1_555 1_555
C36_6 C37_6 1_555 1_555
C37_6 H25_6 1_555 1_555
C38_6 C37_6 1_555 1_555
C39_6 C38_6 1_555 1_555
H26_6 C39_6 1_555 1_555
C40_6 N7_6 1_555 1_555
C41_6 C36_6 1_555 1_555
H27_6 C41_6 1_555 1_555
C58_6 N7_6 1_555 1_555
C61_6 N8_6 1_555 1_555
C62_6 C61_6 1_555 1_555
H34_6 C62_6 1_555 1_555
C66_6 C61_6 1_555 1_555
H36_6 C66_6 1_555 1_555
Cu9_2 O20_6 1_555 1_555
Cu12_2 O21_6 1_555 1_555
Cu14_2 O25_6 1_555 1_555
Cu18_2 O24_6 1_555 1_555
N8_6 C58_6 1_555 1_555
C39_6 C40_6 1_555 1_555
C40_6 C41_6 1_555 1_555
O16_11 Cu9_2 1_555 1_555
O17_11 Cu12_2 1_555 1_555
O17_11 H37_4 1_555 1_555
O16_12 Cu9_3 1_555 1_555
O17_12 Cu12_3 1_555 1_555
O37_8 Cu9_3 1_555 1_555
O38_8 Cu12_3 1_555 1_555
O50_8 Cu12_3 1_555 1_555
O52_8 Cu9_3 1_555 1_555
O17_12 H38_4 1_555 1_555
O16_12 H41_4 1_555 1_555
O16_12 H42_4 1_555 1_555
O50 C18_3 1_555 1_555
O52 C18_3 1_555 1_555
O50_2 C51_7 1_555 1_555
O52_2 C51_7 1_555 1_555
Cu14_2 O10_3 1_555 1_555
Cu18_2 O9_3 1_555 1_555
O37_3 C1_3 1_555 1_555
O38_3 C1_3 1_555 1_555
O3_3 C2_3 1_555 1_555
O4_3 C2_3 1_555 1_555
O41_4 C9_3 1_555 1_555
O43_4 C9_3 1_555 1_555
O45_2 C10_3 1_555 1_555
O47_2 C10_3 1_555 1_555
O9_3 C17_3 1_555 1_555
O10_3 C17_3 1_555 1_555
O13_3 C25_3 1_555 1_555
O14_3 C26_3 1_555 1_555
O15_3 C27_3 1_555 1_555
O18_3 Cu18_2 1_555 1_555
O19_3 Cu14_2 1_555 1_555
N1_3 H1_3 1_555 1_555
N2_3 H2_3 1_555 1_555
N3_3 H3_3 1_555 1_555
N4_3 H4_3 1_555 1_555
N5_3 H5_3 1_555 1_555
N6_3 H6_3 1_555 1_555
C1_3 C3_3 1_555 1_555
C2_3 C5_3 1_555 1_555
C3_3 C4_3 1_555 1_555
C4_3 H7_3 1_555 1_555
C5_3 C4_3 1_555 1_555
C6_3 C5_3 1_555 1_555
H8_3 C6_3 1_555 1_555
C7_3 N1_3 1_555 1_555
C8_3 C3_3 1_555 1_555
H9_3 C8_3 1_555 1_555
C9_3 C11_3 1_555 1_555
C10_3 C13_3 1_555 1_555
C11_3 C12_3 1_555 1_555
C12_3 H10_3 1_555 1_555
C13_3 C12_3 1_555 1_555
C14_3 C13_3 1_555 1_555
H11_3 C14_3 1_555 1_555
C15_3 N3_3 1_555 1_555
C16_3 C11_3 1_555 1_555
H12_3 C16_3 1_555 1_555
C17_3 C19_3 1_555 1_555
C19_3 C20_3 1_555 1_555
C20_3 H13_3 1_555 1_555
C21_3 C20_3 1_555 1_555
C22_3 C21_3 1_555 1_555
H14_3 C22_3 1_555 1_555
C23_3 N6_3 1_555 1_555
C24_3 C19_3 1_555 1_555
H15_3 C24_3 1_555 1_555
C25_3 N1_3 1_555 1_555
C26_3 N3_3 1_555 1_555
C27_3 N5_3 1_555 1_555
C28_3 N2_3 1_555 1_555
C29_3 C28_3 1_555 1_555
H16_3 C29_3 1_555 1_555
C30_3 N4_3 1_555 1_555
C31_3 C30_3 1_555 1_555
H17_3 C31_3 1_555 1_555
C32_3 N5_3 1_555 1_555
C33_3 C28_3 1_555 1_555
H18_3 C33_3 1_555 1_555
Cu15_2 O3_3 1_555 1_555
Cu19_2 O4_3 1_555 1_555
O37_4 C34_7 1_555 1_555
O38_4 C34_7 1_555 1_555
O22_5 C35_7 1_555 1_555
O23_5 C35_7 1_555 1_555
O41_5 C42_7 1_555 1_555
O43_5 C42_7 1_555 1_555
O46_4 C43_7 1_555 1_555
O48_4 C43_7 1_555 1_555
O28_7 Cu19_2 1_555 1_555
O29_7 Cu15_2 1_555 1_555
O32_7 C58_7 1_555 1_555
O33_7 C59_7 1_555 1_555
O34_7 C60_7 1_555 1_555
O35_7 Cu19_2 1_555 1_555
O36_7 Cu15_2 1_555 1_555
N7_7 H19_7 1_555 1_555
N8_7 H20_7 1_555 1_555
N9_7 H21_7 1_555 1_555
N10_7 H22_7 1_555 1_555
N11_7 H23_7 1_555 1_555
N12_7 H24_7 1_555 1_555
C34_7 C36_7 1_555 1_555
C35_7 C38_7 1_555 1_555
C36_7 C37_7 1_555 1_555
C37_7 H25_7 1_555 1_555
C38_7 C37_7 1_555 1_555
C39_7 C38_7 1_555 1_555
H26_7 C39_7 1_555 1_555
C40_7 N7_7 1_555 1_555
C41_7 C36_7 1_555 1_555
H27_7 C41_7 1_555 1_555
C42_7 C44_7 1_555 1_555
C43_7 C46_7 1_555 1_555
C44_7 C45_7 1_555 1_555
C45_7 H28_7 1_555 1_555
C46_7 C45_7 1_555 1_555
C47_7 C46_7 1_555 1_555
H29_7 C47_7 1_555 1_555
C48_7 N9_7 1_555 1_555
C49_7 C44_7 1_555 1_555
H30_7 C49_7 1_555 1_555
C50_7 O28_7 1_555 1_555
C52_7 C50_7 1_555 1_555
C53_7 C52_7 1_555 1_555
H31_7 C53_7 1_555 1_555
C54_7 C53_7 1_555 1_555
C55_7 C54_7 1_555 1_555
H32_7 C55_7 1_555 1_555
C56_7 N12_7 1_555 1_555
C57_7 C52_7 1_555 1_555
H33_7 C57_7 1_555 1_555
C58_7 N7_7 1_555 1_555
C59_7 N9_7 1_555 1_555
C60_7 N11_7 1_555 1_555
C61_7 N8_7 1_555 1_555
C62_7 C61_7 1_555 1_555
H34_7 C62_7 1_555 1_555
C63_7 N10_7 1_555 1_555
C64_7 C63_7 1_555 1_555
H35_7 C64_7 1_555 1_555
C65_7 N11_7 1_555 1_555
C66_7 C61_7 1_555 1_555
H36_7 C66_7 1_555 1_555
Cu16_3 O22_5 1_555 1_555
Cu20_3 O23_5 1_555 1_555
O39_3 Cu14_2 1_555 1_555
O40_3 Cu18_2 1_555 1_555
N2_3 C25_3 1_555 1_555
N4_3 C26_3 1_555 1_555
N6_3 C27_3 1_555 1_555
C6_3 C7_3 1_555 1_555
C7_3 C8_3 1_555 1_555
C14_3 C15_3 1_555 1_555
C15_3 C16_3 1_555 1_555
C22_3 C23_3 1_555 1_555
C23_3 C24_3 1_555 1_555
C29_3 C30_3 1_555 1_555
C31_3 C32_3 1_555 1_555
C32_3 C33_3 1_555 1_555
O29_7 C50_7 1_555 1_555
N8_7 C58_7 1_555 1_555
N10_7 C59_7 1_555 1_555
N12_7 C60_7 1_555 1_555
C39_7 C40_7 1_555 1_555
C40_7 C41_7 1_555 1_555
C47_7 C48_7 1_555 1_555
C48_7 C49_7 1_555 1_555
C55_7 C56_7 1_555 1_555
C56_7 C57_7 1_555 1_555
C62_7 C63_7 1_555 1_555
C64_7 C65_7 1_555 1_555
C65_7 C66_7 1_555 1_555
O37 C34_8 1_555 1_555
O38 C34_8 1_555 1_555
O22_6 C35_8 1_555 1_555
O23_6 C35_8 1_555 1_555
O41_6 C42_8 1_555 1_555
O43_6 C42_8 1_555 1_555
O46_5 C43_8 1_555 1_555
O48_5 C43_8 1_555 1_555
O28_8 Cu20_3 1_555 1_555
O29_8 Cu16_3 1_555 1_555
O32_8 C58_8 1_555 1_555
O33_8 C59_8 1_555 1_555
O34_8 C60_8 1_555 1_555
O35_8 Cu20_3 1_555 1_555
O36_8 Cu16_3 1_555 1_555
N7_8 H19_8 1_555 1_555
N8_8 H20_8 1_555 1_555
N9_8 H21_8 1_555 1_555
N10_8 H22_8 1_555 1_555
N11_8 H23_8 1_555 1_555
N12_8 H24_8 1_555 1_555
C34_8 C36_8 1_555 1_555
C35_8 C38_8 1_555 1_555
C36_8 C37_8 1_555 1_555
C37_8 H25_8 1_555 1_555
C38_8 C37_8 1_555 1_555
C39_8 C38_8 1_555 1_555
H26_8 C39_8 1_555 1_555
C40_8 N7_8 1_555 1_555
C41_8 C36_8 1_555 1_555
H27_8 C41_8 1_555 1_555
C42_8 C44_8 1_555 1_555
C43_8 C46_8 1_555 1_555
C44_8 C45_8 1_555 1_555
C45_8 H28_8 1_555 1_555
C46_8 C45_8 1_555 1_555
C47_8 C46_8 1_555 1_555
H29_8 C47_8 1_555 1_555
C48_8 N9_8 1_555 1_555
C49_8 C44_8 1_555 1_555
H30_8 C49_8 1_555 1_555
C50_8 O28_8 1_555 1_555
C52_8 C50_8 1_555 1_555
C53_8 C52_8 1_555 1_555
H31_8 C53_8 1_555 1_555
C54_8 C53_8 1_555 1_555
C55_8 C54_8 1_555 1_555
H32_8 C55_8 1_555 1_555
C56_8 N12_8 1_555 1_555
C57_8 C52_8 1_555 1_555
H33_8 C57_8 1_555 1_555
C58_8 N7_8 1_555 1_555
C59_8 N9_8 1_555 1_555
C60_8 N11_8 1_555 1_555
C61_8 N8_8 1_555 1_555
C62_8 C61_8 1_555 1_555
H34_8 C62_8 1_555 1_555
C63_8 N10_8 1_555 1_555
C64_8 C63_8 1_555 1_555
H35_8 C64_8 1_555 1_555
C65_8 N11_8 1_555 1_555
C66_8 C61_8 1_555 1_555
H36_8 C66_8 1_555 1_555
Cu16_4 O22_6 1_555 1_555
Cu20_4 O23_6 1_555 1_555
O29_8 C50_8 1_555 1_555
N8_8 C58_8 1_555 1_555
N10_8 C59_8 1_555 1_555
N12_8 C60_8 1_555 1_555
C39_8 C40_8 1_555 1_555
C40_8 C41_8 1_555 1_555
C47_8 C48_8 1_555 1_555
C48_8 C49_8 1_555 1_555
C55_8 C56_8 1_555 1_555
C56_8 C57_8 1_555 1_555
C62_8 C63_8 1_555 1_555
C64_8 C65_8 1_555 1_555
C65_8 C66_8 1_555 1_555
O50_3 C51_8 1_555 1_555
O52_3 C51_8 1_555 1_555
O37_2 C34_9 1_555 1_555
O38_2 C34_9 1_555 1_555
O39_3 C35_9 1_555 1_555
O40_3 C35_9 1_555 1_555
O42_2 C42_9 1_555 1_555
O44_2 C42_9 1_555 1_555
O46_6 C43_9 1_555 1_555
O48_6 C43_9 1_555 1_555
O28_9 Cu20_4 1_555 1_555
O29_9 Cu16_4 1_555 1_555
O32_9 C58_9 1_555 1_555
O33_9 C59_9 1_555 1_555
O34_9 C60_9 1_555 1_555
O35_9 Cu20_4 1_555 1_555
O36_9 Cu16_4 1_555 1_555
N7_9 H19_9 1_555 1_555
N8_9 H20_9 1_555 1_555
N9_9 H21_9 1_555 1_555
N10_9 H22_9 1_555 1_555
N11_9 H23_9 1_555 1_555
N12_9 H24_9 1_555 1_555
C34_9 C36_9 1_555 1_555
C35_9 C38_9 1_555 1_555
C36_9 C37_9 1_555 1_555
C37_9 H25_9 1_555 1_555
C38_9 C37_9 1_555 1_555
C39_9 C38_9 1_555 1_555
H26_9 C39_9 1_555 1_555
C40_9 N7_9 1_555 1_555
C41_9 C36_9 1_555 1_555
H27_9 C41_9 1_555 1_555
C42_9 C44_9 1_555 1_555
C43_9 C46_9 1_555 1_555
C44_9 C45_9 1_555 1_555
C45_9 H28_9 1_555 1_555
C46_9 C45_9 1_555 1_555
C47_9 C46_9 1_555 1_555
H29_9 C47_9 1_555 1_555
C48_9 N9_9 1_555 1_555
C49_9 C44_9 1_555 1_555
H30_9 C49_9 1_555 1_555
C50_9 O28_9 1_555 1_555
C52_9 C50_9 1_555 1_555
C53_9 C52_9 1_555 1_555
H31_9 C53_9 1_555 1_555
C54_9 C53_9 1_555 1_555
C55_9 C54_9 1_555 1_555
H32_9 C55_9 1_555 1_555
C56_9 N12_9 1_555 1_555
C57_9 C52_9 1_555 1_555
H33_9 C57_9 1_555 1_555
C58_9 N7_9 1_555 1_555
C59_9 N9_9 1_555 1_555
C60_9 N11_9 1_555 1_555
C61_9 N8_9 1_555 1_555
C62_9 C61_9 1_555 1_555
H34_9 C62_9 1_555 1_555
C63_9 N10_9 1_555 1_555
C64_9 C63_9 1_555 1_555
H35_9 C64_9 1_555 1_555
C65_9 N11_9 1_555 1_555
C66_9 C61_9 1_555 1_555
H36_9 C66_9 1_555 1_555
O29_9 C50_9 1_555 1_555
N8_9 C58_9 1_555 1_555
N10_9 C59_9 1_555 1_555
N12_9 C60_9 1_555 1_555
C39_9 C40_9 1_555 1_555
C40_9 C41_9 1_555 1_555
C47_9 C48_9 1_555 1_555
C48_9 C49_9 1_555 1_555
C55_9 C56_9 1_555 1_555
C56_9 C57_9 1_555 1_555
C62_9 C63_9 1_555 1_555
C64_9 C65_9 1_555 1_555
C65_9 C66_9 1_555 1_555
O50_4 C51_9 1_555 1_555
O52_4 C51_9 1_555 1_555
O17_9 H38_5 1_555 1_555
O16_9 H41_5 1_555 1_555
O16_9 H42_5 1_555 1_555
O37_7 C1_4 1_555 1_555
O38_7 C1_4 1_555 1_555
O3_4 C2_4 1_555 1_555
O4_4 C2_4 1_555 1_555
O41 C9_4 1_555 1_555
O43 C9_4 1_555 1_555
O13_4 C25_4 1_555 1_555
N1_4 H1_4 1_555 1_555
N2_4 H2_4 1_555 1_555
C1_4 C3_4 1_555 1_555
C2_4 C5_4 1_555 1_555
C3_4 C4_4 1_555 1_555
C4_4 H7_4 1_555 1_555
C5_4 C4_4 1_555 1_555
C6_4 C5_4 1_555 1_555
H8_4 C6_4 1_555 1_555
C7_4 N1_4 1_555 1_555
C8_4 C3_4 1_555 1_555
H9_4 C8_4 1_555 1_555
C25_4 N1_4 1_555 1_555
C28_4 N2_4 1_555 1_555
C29_4 C28_4 1_555 1_555
H16_4 C29_4 1_555 1_555
C33_4 C28_4 1_555 1_555
H18_4 C33_4 1_555 1_555
Cu15 O3_4 1_555 1_555
Cu19 O4_4 1_555 1_555
O46 C43_10 1_555 1_555
O48 C43_10 1_555 1_555
O28_10 Cu19 1_555 1_555
O29_10 Cu15 1_555 1_555
O50_6 C51_10 1_555 1_555
O52_6 C51_10 1_555 1_555
O34_10 C60_10 1_555 1_555
O35_10 Cu19 1_555 1_555
O36_10 Cu15 1_555 1_555
N9_10 H21_10 1_555 1_555
N10_10 H22_10 1_555 1_555
N11_10 H23_10 1_555 1_555
N12_10 H24_10 1_555 1_555
C43_10 C46_10 1_555 1_555
C44_10 C45_10 1_555 1_555
C45_10 H28_10 1_555 1_555
C46_10 C45_10 1_555 1_555
C47_10 C46_10 1_555 1_555
H29_10 C47_10 1_555 1_555
C48_10 N9_10 1_555 1_555
C49_10 C44_10 1_555 1_555
C50_10 O28_10 1_555 1_555
C51_10 C54_10 1_555 1_555
C52_10 C50_10 1_555 1_555
C53_10 C52_10 1_555 1_555
H31_10 C53_10 1_555 1_555
C54_10 C53_10 1_555 1_555
C55_10 C54_10 1_555 1_555
H32_10 C55_10 1_555 1_555
C56_10 N12_10 1_555 1_555
C57_10 C52_10 1_555 1_555
H33_10 C57_10 1_555 1_555
C59_10 N9_10 1_555 1_555
C60_10 N11_10 1_555 1_555
C63_10 N10_10 1_555 1_555
C64_10 C63_10 1_555 1_555
H35_10 C64_10 1_555 1_555
C65_10 N11_10 1_555 1_555
N2_4 C25_4 1_555 1_555
C6_4 C7_4 1_555 1_555
C7_4 C8_4 1_555 1_555
O29_10 C50_10 1_555 1_555
N10_10 C59_10 1_555 1_555
N12_10 C60_10 1_555 1_555
C47_10 C48_10 1_555 1_555
C48_10 C49_10 1_555 1_555
C55_10 C56_10 1_555 1_555
C56_10 C57_10 1_555 1_555
C64_10 C65_10 1_555 1_555
O17_10 H37_5 1_555 1_555
Cu14 O10_4 1_555 1_555
Cu18 O9_4 1_555 1_555
O45 C10_4 1_555 1_555
O47 C10_4 1_555 1_555
O9_4 C17_4 1_555 1_555
O10_4 C17_4 1_555 1_555
O50_5 C18_4 1_555 1_555
O52_5 C18_4 1_555 1_555
O15_4 C27_4 1_555 1_555
O18_4 Cu18 1_555 1_555
O19_4 Cu14 1_555 1_555
N3_4 H3_4 1_555 1_555
N4_4 H4_4 1_555 1_555
N5_4 H5_4 1_555 1_555
N6_4 H6_4 1_555 1_555
C10_4 C13_4 1_555 1_555
C11_4 C12_4 1_555 1_555
C12_4 H10_4 1_555 1_555
C13_4 C12_4 1_555 1_555
C14_4 C13_4 1_555 1_555
H11_4 C14_4 1_555 1_555
C15_4 N3_4 1_555 1_555
C16_4 C11_4 1_555 1_555
C17_4 C19_4 1_555 1_555
C18_4 C21_4 1_555 1_555
C19_4 C20_4 1_555 1_555
C20_4 H13_4 1_555 1_555
C21_4 C20_4 1_555 1_555
C22_4 C21_4 1_555 1_555
H14_4 C22_4 1_555 1_555
C23_4 N6_4 1_555 1_555
C24_4 C19_4 1_555 1_555
H15_4 C24_4 1_555 1_555
C26_4 N3_4 1_555 1_555
C27_4 N5_4 1_555 1_555
C30_4 N4_4 1_555 1_555
C31_4 C30_4 1_555 1_555
H17_4 C31_4 1_555 1_555
C32_4 N5_4 1_555 1_555
O39_4 Cu14 1_555 1_555
O40_4 Cu18 1_555 1_555
N4_4 C26_4 1_555 1_555
N6_4 C27_4 1_555 1_555
C14_4 C15_4 1_555 1_555
C15_4 C16_4 1_555 1_555
C22_4 C23_4 1_555 1_555
C23_4 C24_4 1_555 1_555
C31_4 C32_4 1_555 1_555
O37_8 C34_10 1_555 1_555
O38_8 C34_10 1_555 1_555
O22_7 C35_10 1_555 1_555
O23_7 C35_10 1_555 1_555
O41_2 C42_10 1_555 1_555
O43_2 C42_10 1_555 1_555
O32_10 C58_10 1_555 1_555
N7_10 H19_10 1_555 1_555
N8_10 H20_10 1_555 1_555
C34_10 C36_10 1_555 1_555
C35_10 C38_10 1_555 1_555
C36_10 C37_10 1_555 1_555
C37_10 H25_10 1_555 1_555
C38_10 C37_10 1_555 1_555
C39_10 C38_10 1_555 1_555
H26_10 C39_10 1_555 1_555
C40_10 N7_10 1_555 1_555
C41_10 C36_10 1_555 1_555
H27_10 C41_10 1_555 1_555
C58_10 N7_10 1_555 1_555
C61_10 N8_10 1_555 1_555
C62_10 C61_10 1_555 1_555
H34_10 C62_10 1_555 1_555
C66_10 C61_10 1_555 1_555
H36_10 C66_10 1_555 1_555
Cu16 O22_7 1_555 1_555
Cu20 O23_7 1_555 1_555
N8_10 C58_10 1_555 1_555
C39_10 C40_10 1_555 1_555
C40_10 C41_10 1_555 1_555
O17_11 H38_6 1_555 1_555
O16_11 H41_6 1_555 1_555
O16_11 H42_6 1_555 1_555
O46_2 C43_11 1_555 1_555
O48_2 C43_11 1_555 1_555
O28_11 Cu20 1_555 1_555
O29_11 Cu16 1_555 1_555
O50_7 C51_11 1_555 1_555
O52_7 C51_11 1_555 1_555
O34_11 C60_11 1_555 1_555
O35_11 Cu20 1_555 1_555
O36_11 Cu16 1_555 1_555
N9_11 H21_11 1_555 1_555
N10_11 H22_11 1_555 1_555
N11_11 H23_11 1_555 1_555
N12_11 H24_11 1_555 1_555
C43_11 C46_11 1_555 1_555
C44_11 C45_11 1_555 1_555
C45_11 H28_11 1_555 1_555
C46_11 C45_11 1_555 1_555
C47_11 C46_11 1_555 1_555
H29_11 C47_11 1_555 1_555
C48_11 N9_11 1_555 1_555
C49_11 C44_11 1_555 1_555
C50_11 O28_11 1_555 1_555
C51_11 C54_11 1_555 1_555
C52_11 C50_11 1_555 1_555
C53_11 C52_11 1_555 1_555
H31_11 C53_11 1_555 1_555
C54_11 C53_11 1_555 1_555
C55_11 C54_11 1_555 1_555
H32_11 C55_11 1_555 1_555
C56_11 N12_11 1_555 1_555
C57_11 C52_11 1_555 1_555
H33_11 C57_11 1_555 1_555
C59_11 N9_11 1_555 1_555
C60_11 N11_11 1_555 1_555
C63_11 N10_11 1_555 1_555
C64_11 C63_11 1_555 1_555
H35_11 C64_11 1_555 1_555
C65_11 N11_11 1_555 1_555
O29_11 C50_11 1_555 1_555
N10_11 C59_11 1_555 1_555
N12_11 C60_11 1_555 1_555
C47_11 C48_11 1_555 1_555
C48_11 C49_11 1_555 1_555
C55_11 C56_11 1_555 1_555
C56_11 C57_11 1_555 1_555
C64_11 C65_11 1_555 1_555
O17_12 H37_6 1_555 1_555
O37_5 C34_11 1_555 1_555
O38_5 C34_11 1_555 1_555
O22_8 C35_11 1_555 1_555
O23_8 C35_11 1_555 1_555
O41_3 C42_11 1_555 1_555
O43_3 C42_11 1_555 1_555
O32_11 C58_11 1_555 1_555
N7_11 H19_11 1_555 1_555
N8_11 H20_11 1_555 1_555
C34_11 C36_11 1_555 1_555
C35_11 C38_11 1_555 1_555
C36_11 C37_11 1_555 1_555
C37_11 H25_11 1_555 1_555
C38_11 C37_11 1_555 1_555
C39_11 C38_11 1_555 1_555
H26_11 C39_11 1_555 1_555
C40_11 N7_11 1_555 1_555
C41_11 C36_11 1_555 1_555
H27_11 C41_11 1_555 1_555
C58_11 N7_11 1_555 1_555
C61_11 N8_11 1_555 1_555
C62_11 C61_11 1_555 1_555
H34_11 C62_11 1_555 1_555
C66_11 C61_11 1_555 1_555
H36_11 C66_11 1_555 1_555
Cu16_2 O22_8 1_555 1_555
Cu20_2 O23_8 1_555 1_555
N8_11 C58_11 1_555 1_555
C39_11 C40_11 1_555 1_555
C40_11 C41_11 1_555 1_555
O37_6 C34_12 1_555 1_555
O38_6 C34_12 1_555 1_555
O39_4 C35_12 1_555 1_555
O40_4 C35_12 1_555 1_555
O42 C42_12 1_555 1_555
O44 C42_12 1_555 1_555
O32_12 C58_12 1_555 1_555
N7_12 H19_12 1_555 1_555
N8_12 H20_12 1_555 1_555
C34_12 C36_12 1_555 1_555
C35_12 C38_12 1_555 1_555
C36_12 C37_12 1_555 1_555
C37_12 H25_12 1_555 1_555
C38_12 C37_12 1_555 1_555
C39_12 C38_12 1_555 1_555
H26_12 C39_12 1_555 1_555
C40_12 N7_12 1_555 1_555
C41_12 C36_12 1_555 1_555
H27_12 C41_12 1_555 1_555
C58_12 N7_12 1_555 1_555
C61_12 N8_12 1_555 1_555
C62_12 C61_12 1_555 1_555
H34_12 C62_12 1_555 1_555
C66_12 C61_12 1_555 1_555
H36_12 C66_12 1_555 1_555
N8_12 C58_12 1_555 1_555
C39_12 C40_12 1_555 1_555
C40_12 C41_12 1_555 1_555
O17_5 H38_7 1_555 1_555
O16_5 H41_7 1_555 1_555
O16_5 H42_7 1_555 1_555
O46_3 C43_12 1_555 1_555
O48_3 C43_12 1_555 1_555
O28_12 Cu20_2 1_555 1_555
O29_12 Cu16_2 1_555 1_555
O50_8 C51_12 1_555 1_555
O52_8 C51_12 1_555 1_555
O34_12 C60_12 1_555 1_555
O35_12 Cu20_2 1_555 1_555
O36_12 Cu16_2 1_555 1_555
N9_12 H21_12 1_555 1_555
N10_12 H22_12 1_555 1_555
N11_12 H23_12 1_555 1_555
N12_12 H24_12 1_555 1_555
C43_12 C46_12 1_555 1_555
C44_12 C45_12 1_555 1_555
C45_12 H28_12 1_555 1_555
C46_12 C45_12 1_555 1_555
C47_12 C46_12 1_555 1_555
H29_12 C47_12 1_555 1_555
C48_12 N9_12 1_555 1_555
C49_12 C44_12 1_555 1_555
C50_12 O28_12 1_555 1_555
C51_12 C54_12 1_555 1_555
C52_12 C50_12 1_555 1_555
C53_12 C52_12 1_555 1_555
H31_12 C53_12 1_555 1_555
C54_12 C53_12 1_555 1_555
C55_12 C54_12 1_555 1_555
H32_12 C55_12 1_555 1_555
C56_12 N12_12 1_555 1_555
C57_12 C52_12 1_555 1_555
H33_12 C57_12 1_555 1_555
C59_12 N9_12 1_555 1_555
C60_12 N11_12 1_555 1_555
C63_12 N10_12 1_555 1_555
C64_12 C63_12 1_555 1_555
H35_12 C64_12 1_555 1_555
C65_12 N11_12 1_555 1_555
O29_12 C50_12 1_555 1_555
N10_12 C59_12 1_555 1_555
N12_12 C60_12 1_555 1_555
C47_12 C48_12 1_555 1_555
C48_12 C49_12 1_555 1_555
C55_12 C56_12 1_555 1_555
C56_12 C57_12 1_555 1_555
C64_12 C65_12 1_555 1_555
O17_6 H37_7 1_555 1_555
O17_7 H38_8 1_555 1_555
O16_7 H41_8 1_555 1_555
O16_7 H42_8 1_555 1_555
O17_8 H37_8 1_555 1_555

#END
