
###############################################################################
#
# This file contains modified crystal structure data generated from the
# MOF subset of the Cambridge Structural Database (CSD) v543 
# hosted by the Cambridge Crystallographic Data Centre (CCDC).
#
# This work is licensed under the Creative Commons
# Attribution-NonCommercial-ShareAlike 4.0 International License.
# To view a copy of this license, visit
# http://creativecommons.org/licenses/by-nc-sa/4.0/
# or send a letter to
# Creative Commons, PO Box 1866, Mountain View, CA 94042, USA.
#
# CIF created using the CSD Python API on 29 September 2022
# The structure has been converted into the P1 space group
# The structure has a 3D framework
# The original CSD entry ALICII is in the tetragonal crystal system
# The original CSD entry ALICII is in a Sohncke space group
# The framework has been calculated to contain at least 10.0% void space
# The void calculation uses a probe of radius 1.32A, grid spacing 0.4
# The framework is charged, counterions have been retained in the structure
#
###############################################################################

data_ALICII
_chemical_formula_moiety         '(C16 H16 Cu16 N26 26+)n'
_symmetry_cell_setting           triclinic
_symmetry_space_group_name_H-M   'P 1'
_symmetry_Int_Tables_number      1
_space_group_name_Hall           'P 1'
loop_
_symmetry_equiv_pos_site_id
_symmetry_equiv_pos_as_xyz
1 x,y,z
_cell_length_a                   20.7391(7)
_cell_length_b                   20.7391(7)
_cell_length_c                   3.3462(2)
_cell_angle_alpha                90
_cell_angle_beta                 90
_cell_angle_gamma                90
_cell_volume                     1439.23
loop_
_atom_site_label
_atom_site_type_symbol
_atom_site_fract_x
_atom_site_fract_y
_atom_site_fract_z
Cu1 Cu 0.36518(13) 0.2500 0.1250
Cu2 Cu 0.5000 0.5000 0.0000
N1 N 0.3819(6) 0.3410(5) 0.053(4)
N2 N 0.4314(7) 0.4314(7) 0.0000
C1 C 0.4483(12) 0.3654(10) 0.091(6)
H1 H 0.4881 0.3451 0.1531
Cu4 Cu 0.63482(13) 0.7500 0.1250
N4 N 0.6181(6) 0.6590(5) 0.053(4)
N6 N 0.3819(6) 0.1590(5) 0.197(4)
N8 N 0.5686(7) 0.5686(7) 0.0000
C3 C 0.5517(12) 0.6346(10) 0.091(6)
H3 H 0.5119 0.6549 0.1531
Cu2_2 Cu 0.5000 0.5000 1.0000
N2_2 N 0.4314(7) 0.4314(7) 1.0000
Cu3 Cu 0.2500 0.36518(13) 0.8750
Cu5 Cu 0.7500 0.63482(13) 0.8750
N3 N 0.3410(5) 0.3819(6) 0.947(4)
N5 N 0.6590(5) 0.6181(6) 0.947(4)
N7 N 0.1590(5) 0.3819(6) 0.803(4)
N8_2 N 0.5686(7) 0.5686(7) 1.0000
C2 C 0.3654(10) 0.4483(12) 0.909(6)
C4 C 0.6346(10) 0.5517(12) 0.909(6)
H2 H 0.3451 0.4881 0.8469
H4 H 0.6549 0.5119 0.8469
Cu2_3 Cu 0.5000 -0.0000 0.2500
Cu4_2 Cu 0.2500 0.13482(13) 0.3750
N4_2 N 0.3410(5) 0.1181(6) 0.303(4)
N8_3 N 0.4314(7) 0.0686(7) 0.2500
C3_2 C 0.3654(10) 0.0517(12) 0.341(6)
C4_2 C 0.4483(12) 0.1346(10) 0.159(6)
H3_2 H 0.3451 0.0119 0.4031
H4_2 H 0.4881 0.1549 0.0969
Cu1_2 Cu 0.7500 0.86518(13) 0.3750
Cu2_4 Cu 0.5000 1.0000 0.2500
N1_2 N 0.6590(5) 0.8819(6) 0.303(4)
N2_3 N 0.5686(7) 0.9314(7) 0.2500
C1_2 C 0.6346(10) 0.9483(12) 0.341(6)
H1_2 H 0.6549 0.9881 0.4031
N3_2 N 0.6181(6) 0.8410(5) 0.197(4)
N6_2 N 0.8410(5) 0.8819(6) 0.447(4)
C2_2 C 0.5517(12) 0.8654(10) 0.159(6)
H2_2 H 0.5119 0.8451 0.0969
N7_2 N 0.8410(5) 0.6181(6) 0.803(4)
N6_3 N 0.1590(5) 0.1181(6) 0.447(4)
Cu2_5 Cu -0.0000 0.0000 0.5000
Cu4_3 Cu 0.13482(13) 0.2500 0.6250
N4_3 N 0.1181(6) 0.1590(5) 0.553(4)
N8_4 N 0.0686(7) 0.0686(7) 0.5000
C3_3 C 0.0517(12) 0.1346(10) 0.591(6)
C4_3 C 0.1346(10) 0.0517(12) 0.409(6)
H3_3 H 0.0119 0.1549 0.6531
H4_3 H 0.1549 0.0119 0.3469
Cu1_3 Cu 0.86518(13) 0.7500 0.6250
Cu2_6 Cu 1.0000 1.0000 0.5000
N1_3 N 0.8819(6) 0.8410(5) 0.553(4)
N2_4 N 0.9314(7) 0.9314(7) 0.5000
C1_3 C 0.9483(12) 0.8654(10) 0.591(6)
H1_3 H 0.9881 0.8451 0.6531
N6_4 N 0.8819(6) 0.6590(5) 0.697(4)
C2_3 C 0.8654(10) 0.9483(12) 0.409(6)
H2_3 H 0.8451 0.9881 0.3469
Cu2_7 Cu 0.0000 0.5000 0.7500
N2_5 N 0.0686(7) 0.4314(7) 0.7500
C1_4 C 0.1346(10) 0.4483(12) 0.841(6)
H1_4 H 0.1549 0.4881 0.9031
N3_3 N 0.1181(6) 0.3410(5) 0.697(4)
C2_4 C 0.0517(12) 0.3654(10) 0.659(6)
H2_4 H 0.0119 0.3451 0.5969
Cu2_8 Cu 1.0000 0.5000 0.7500
N8_5 N 0.9314(7) 0.5686(7) 0.7500
C3_4 C 0.8654(10) 0.5517(12) 0.841(6)
C4_4 C 0.9483(12) 0.6346(10) 0.659(6)
H3_4 H 0.8451 0.5119 0.9031
H4_4 H 0.9881 0.6549 0.5969
Cu2_9 Cu -0.0000 1.0000 0.5000
Cu2_10 Cu 1.0000 0.0000 0.5000
loop_
_geom_bond_atom_site_label_1
_geom_bond_atom_site_label_2
_geom_bond_site_symmetry_1
_geom_bond_site_symmetry_2
Cu1 N1 1_555 1_555
Cu2 N2 1_555 1_555
N1 C1 1_555 1_555
N2 C1 1_555 1_555
C1 H1 1_555 1_555
Cu4 N4 1_555 1_555
N6 Cu1 1_555 1_555
N8 Cu2 1_555 1_555
C3 N4 1_555 1_555
H3 C3 1_555 1_555
N8 C3 1_555 1_555
Cu2_2 N2_2 1_555 1_555
Cu3 N3 1_555 1_555
Cu5 N5 1_555 1_555
N5 C4 1_555 1_555
N7 Cu3 1_555 1_555
N8_2 Cu2_2 1_555 1_555
C2 N2_2 1_555 1_555
C4 N8_2 1_555 1_555
H2 C2 1_555 1_555
H4 C4 1_555 1_555
N3 C2 1_555 1_555
Cu4_2 N4_2 1_555 1_555
N4_2 N6 1_555 1_555
N6 C4_2 1_555 1_555
N8_3 Cu2_3 1_555 1_555
C3_2 N4_2 1_555 1_555
C4_2 N8_3 1_555 1_555
H3_2 C3_2 1_555 1_555
H4_2 C4_2 1_555 1_555
N8_3 C3_2 1_555 1_555
Cu1_2 N1_2 1_555 1_555
Cu2_4 N2_3 1_555 1_555
N1_2 C1_2 1_555 1_555
N2_3 C1_2 1_555 1_555
C1_2 H1_2 1_555 1_555
Cu4 N3_2 1_555 1_555
N3_2 N1_2 1_555 1_555
N6_2 Cu1_2 1_555 1_555
C2_2 N2_3 1_555 1_555
H2_2 C2_2 1_555 1_555
N3_2 C2_2 1_555 1_555
N7_2 Cu5 1_555 1_555
N6_3 Cu4_2 1_555 1_555
Cu4_3 N4_3 1_555 1_555
N4_3 N6_3 1_555 1_555
N6_3 C4_3 1_555 1_555
N8_4 Cu2_5 1_555 1_555
C3_3 N4_3 1_555 1_555
C4_3 N8_4 1_555 1_555
H3_3 C3_3 1_555 1_555
H4_3 C4_3 1_555 1_555
N8_4 C3_3 1_555 1_555
Cu1_3 N1_3 1_555 1_555
Cu2_6 N2_4 1_555 1_555
N1_3 C1_3 1_555 1_555
N2_4 C1_3 1_555 1_555
C1_3 H1_3 1_555 1_555
N6_2 N1_3 1_555 1_555
N6_4 Cu1_3 1_555 1_555
C2_3 N2_4 1_555 1_555
H2_3 C2_3 1_555 1_555
N6_2 C2_3 1_555 1_555
Cu2_7 N2_5 1_555 1_555
N7 C1_4 1_555 1_555
N2_5 C1_4 1_555 1_555
C1_4 H1_4 1_555 1_555
Cu4_3 N3_3 1_555 1_555
N3_3 N7 1_555 1_555
C2_4 N2_5 1_555 1_555
H2_4 C2_4 1_555 1_555
N3_3 C2_4 1_555 1_555
N7_2 N6_4 1_555 1_555
N6_4 C4_4 1_555 1_555
N8_5 Cu2_8 1_555 1_555
C3_4 N7_2 1_555 1_555
C4_4 N8_5 1_555 1_555
H3_4 C3_4 1_555 1_555
H4_4 C4_4 1_555 1_555
N8_5 C3_4 1_555 1_555

#END
