
###############################################################################
#
# This file contains modified crystal structure data generated from the
# MOF subset of the Cambridge Structural Database (CSD) v543 
# hosted by the Cambridge Crystallographic Data Centre (CCDC).
#
# This work is licensed under the Creative Commons
# Attribution-NonCommercial-ShareAlike 4.0 International License.
# To view a copy of this license, visit
# http://creativecommons.org/licenses/by-nc-sa/4.0/
# or send a letter to
# Creative Commons, PO Box 1866, Mountain View, CA 94042, USA.
#
# CIF created using the CSD Python API on 29 September 2022
# The structure has been converted into the P1 space group
# The structure has a 3D framework
# The original CSD entry ALIXID is in the orthorhombic crystal system
# The framework has been calculated to contain at least 10.0% void space
# The void calculation uses a probe of radius 1.32A, grid spacing 0.4
# The framework is charged, counterions have been retained in the structure
#
###############################################################################

data_ALIXID
_chemical_formula_moiety         '(C136 H64 Co18 O62 8-)n'
_symmetry_cell_setting           triclinic
_symmetry_space_group_name_H-M   'P 1'
_symmetry_Int_Tables_number      1
_space_group_name_Hall           'P 1'
loop_
_symmetry_equiv_pos_site_id
_symmetry_equiv_pos_as_xyz
1 x,y,z
_cell_length_a                   16.223(3)
_cell_length_b                   10.633(2)
_cell_length_c                   25.188(5)
_cell_angle_alpha                90
_cell_angle_beta                 90
_cell_angle_gamma                90
_cell_volume                     4344.91
loop_
_atom_site_label
_atom_site_type_symbol
_atom_site_fract_x
_atom_site_fract_y
_atom_site_fract_z
O6 O 0.48620(8) 0.01692(11) 0.64307(4)
Co8 Co 0.562909(12) 0.155985(19) 0.618738(8)
Co11 Co 0.5000 -0.0000 0.5000
Co1 Co 0.062909(12) 0.344015(19) 0.381262(8)
Co2 Co -0.0000 0.5000 0.5000
O1 O 0.10356(6) 0.43945(10) 0.45219(4)
O2 O 0.17903(7) 0.29135(11) 0.41767(4)
O3 O 0.43837(6) 0.16612(10) 0.51183(4)
O4 O 0.48156(7) 0.27372(10) 0.58301(4)
O5 O 0.45369(7) 0.91691(10) 0.56758(4)
O7 O 0.44237(7) 0.76840(10) 0.81340(4)
O8 O 0.36238(8) 0.60379(12) 0.80963(4)
C1 C 0.23143(9) 0.39212(14) 0.49575(6)
C2 C 0.30123(10) 0.31717(14) 0.49935(6)
H1 H 0.3110 0.2552 0.4741
C3 C 0.35679(9) 0.33507(14) 0.54107(6)
C4 C 0.33956(9) 0.42441(14) 0.58028(6)
H2 H 0.3756 0.4341 0.6087
C5 C 0.26933(9) 0.49878(13) 0.57731(6)
C6 C 0.21763(9) 0.48496(14) 0.53366(6)
H3 H 0.1729 0.5389 0.5297
C7 C 0.24146(9) 0.58343(14) 0.62226(6)
H4 H 0.1999 0.6403 0.6085
H5 H 0.2150 0.5314 0.6489
C8 C 0.30685(9) 0.66107(14) 0.64936(6)
C9 C 0.35170(9) 0.75188(14) 0.62182(6)
H6 H 0.3444 0.7601 0.5854
C10 C 0.40705(9) 0.83032(14) 0.64783(6)
C11 C 0.42015(10) 0.81534(14) 0.70237(6)
H7 H 0.4569 0.8677 0.7201
C12 C 0.37797(9) 0.72175(14) 0.72996(6)
C13 C 0.32103(10) 0.64713(14) 0.70344(6)
H8 H 0.2918 0.5866 0.7223
C14 C 0.16872(9) 0.37240(14) 0.45314(6)
C15 C 0.43189(9) 0.25180(14) 0.54538(6)
C16 C 0.45326(10) 0.92912(14) 0.61681(6)
C17 C 0.39444(10) 0.69655(15) 0.78732(6)
Co4 Co 0.437091(12) 0.655985(19) 0.881262(8)
Co11_2 Co 0.5000 1.0000 0.5000
O13 O 0.06163(6) 0.66612(10) 0.51183(4)
O16 O 0.01844(7) 0.77372(10) 0.58301(4)
O19 O 0.04631(7) 0.41691(10) 0.56758(4)
O22 O 0.01380(8) 0.51692(11) 0.64307(4)
O24 O 0.05763(7) 0.23160(10) 0.31340(4)
O27 O 0.13762(8) 0.39621(12) 0.30963(4)
Co2_2 Co 1.0000 0.5000 0.5000
Co3 Co 0.937091(12) 0.655985(19) 0.618738(8)
Co5 Co 0.562909(12) 0.344015(19) 0.118738(8)
Co7 Co 0.437091(12) 0.844015(19) 0.381262(8)
O9 O 0.89644(6) 0.56055(10) 0.54781(4)
O10 O 0.82097(7) 0.70865(11) 0.58233(4)
O11 O 0.56163(6) 0.83388(10) 0.48817(4)
O12 O 0.93837(6) 0.33388(10) 0.48817(4)
O14 O 0.51844(7) 0.72628(10) 0.41699(4)
O15 O 0.98156(7) 0.22628(10) 0.41699(4)
O17 O 0.54631(7) 0.08309(10) 0.43242(4)
O18 O 0.95369(7) 0.58309(10) 0.43242(4)
O21 O 0.98620(8) 0.48308(11) 0.35693(4)
O23 O 0.55763(7) 0.23160(10) 0.18660(4)
O25 O 0.94237(7) 0.76840(10) 0.68660(4)
O26 O 0.63762(8) 0.39621(12) 0.19037(4)
O28 O 0.86238(8) 0.60379(12) 0.69037(4)
C18 C 0.76857(9) 0.60788(14) 0.50425(6)
C19 C 0.69877(10) 0.68283(14) 0.50065(6)
H9 H 0.6890 0.7448 0.5259
C20 C 0.64321(9) 0.66493(14) 0.45893(6)
C21 C 0.66044(9) 0.57559(14) 0.41972(6)
H10 H 0.6244 0.5659 0.3913
C22 C 0.73067(9) 0.50122(13) 0.42269(6)
C23 C 0.78237(9) 0.51504(14) 0.46634(6)
H11 H 0.8271 0.4611 0.4703
C24 C 0.75854(9) 0.41657(14) 0.37774(6)
H12 H 0.8001 0.3597 0.3915
H13 H 0.7850 0.4686 0.3511
C25 C 0.69315(9) 0.33893(14) 0.35064(6)
C26 C 0.64830(9) 0.24812(14) 0.37818(6)
H14 H 0.6556 0.2399 0.4146
C27 C 0.59295(9) 0.16968(14) 0.35217(6)
C28 C 0.57985(10) 0.18466(14) 0.29763(6)
H15 H 0.5431 0.1323 0.2799
C29 C 0.62203(9) 0.27825(14) 0.27004(6)
C30 C 0.67897(10) 0.35287(14) 0.29656(6)
H16 H 0.7082 0.4134 0.2777
C31 C 0.83128(9) 0.62760(14) 0.54686(6)
C32 C 0.56811(9) 0.74820(14) 0.45462(6)
C33 C 0.54674(10) 0.07088(14) 0.38319(6)
C34 C 0.60556(10) 0.30345(15) 0.21268(6)
O20 O 0.51380(8) 0.98308(11) 0.35693(4)
Co10 Co 0.0000 0.0000 0.0000
Co9 Co 0.062909(12) 0.155985(19) 0.881262(8)
Co10_2 Co 0.0000 0.0000 1.0000
Co10_3 Co 0.0000 1.0000 0.0000
Co10_4 Co -0.0000 1.0000 1.0000
Co10_5 Co 1.0000 0.0000 0.0000
Co10_6 Co 1.0000 0.0000 1.0000
O20_2 O 0.98620(8) 0.01692(11) 0.85693(4)
Co2_3 Co 0.5000 0.5000 0.0000
O3_2 O 0.06163(6) 0.83388(10) 0.01183(4)
O4_2 O 0.01844(7) 0.72628(10) 0.08301(4)
O5_2 O 0.04631(7) 0.08309(10) 0.06758(4)
C3_2 C 0.14321(9) 0.66493(14) 0.04107(6)
C4_2 C 0.16044(9) 0.57559(14) 0.08028(6)
H2_2 H 0.1244 0.5659 0.1087
C5_2 C 0.23067(9) 0.50122(13) 0.07731(6)
C6_2 C 0.28237(9) 0.51504(14) 0.03366(6)
H3_2 H 0.3271 0.4611 0.0297
C7_2 C 0.25854(9) 0.41657(14) 0.12226(6)
H4_2 H 0.3001 0.3597 0.1085
H5_2 H 0.2850 0.4686 0.1489
C8_2 C 0.19315(9) 0.33893(14) 0.14936(6)
C9_2 C 0.14830(9) 0.24812(14) 0.12182(6)
H6_2 H 0.1556 0.2399 0.0854
C10_2 C 0.09295(9) 0.16968(14) 0.14783(6)
C11_2 C 0.07985(10) 0.18466(14) 0.20237(6)
H7_2 H 0.0431 0.1323 0.2201
C12_2 C 0.12203(9) 0.27825(14) 0.22996(6)
C13_2 C 0.17897(10) 0.35287(14) 0.20344(6)
H8_2 H 0.2082 0.4134 0.2223
C15_2 C 0.06811(9) 0.74820(14) 0.04538(6)
C16_2 C 0.04674(10) 0.07088(14) 0.11681(6)
C17_2 C 0.10556(10) 0.30345(15) 0.28732(6)
Co10_7 Co 1.0000 1.0000 0.0000
O9_2 O 0.60356(6) 0.43945(10) 0.04781(4)
O10_2 O 0.67903(7) 0.29135(11) 0.08233(4)
O13_2 O 0.43837(6) 0.33388(10) 0.01183(4)
O16_2 O 0.48156(7) 0.22628(10) 0.08301(4)
O19_2 O 0.45369(7) 0.58309(10) 0.06758(4)
O22_2 O 0.48620(8) 0.48308(11) 0.14307(4)
C18_2 C 0.73143(9) 0.39212(14) 0.00425(6)
C19_2 C 0.80123(10) 0.31717(14) 0.00065(6)
H9_2 H 0.8110 0.2552 0.0259
C31_2 C 0.66872(9) 0.37240(14) 0.04686(6)
Co2_4 Co 0.5000 0.5000 1.0000
O1_2 O 0.39644(6) 0.56055(10) 0.95219(4)
O2_2 O 0.32097(7) 0.70865(11) 0.91767(4)
C1_2 C 0.26857(9) 0.60788(14) 0.99575(6)
C2_2 C 0.19877(10) 0.68283(14) 0.99935(6)
H1_2 H 0.1890 0.7448 0.9741
C14_2 C 0.33128(9) 0.62760(14) 0.95314(6)
Co10_8 Co 1.0000 1.0000 1.0000
O11_2 O 0.93837(6) 0.16612(10) 0.98817(4)
O12_2 O 0.56163(6) 0.66612(10) 0.98817(4)
O14_2 O 0.98156(7) 0.27372(10) 0.91699(4)
O15_2 O 0.51844(7) 0.77372(10) 0.91699(4)
O17_2 O 0.95369(7) 0.91691(10) 0.93242(4)
O18_2 O 0.54631(7) 0.41691(10) 0.93242(4)
O21_2 O 0.51380(8) 0.51692(11) 0.85693(4)
C20_2 C 0.85679(9) 0.33507(14) 0.95893(6)
C21_2 C 0.83956(9) 0.42441(14) 0.91972(6)
H10_2 H 0.8756 0.4341 0.8913
C22_2 C 0.76933(9) 0.49878(13) 0.92269(6)
C23_2 C 0.71763(9) 0.48496(14) 0.96634(6)
H11_2 H 0.6729 0.5389 0.9703
C24_2 C 0.74146(9) 0.58343(14) 0.87774(6)
H12_2 H 0.6999 0.6403 0.8915
H13_2 H 0.7150 0.5314 0.8511
C25_2 C 0.80685(9) 0.66107(14) 0.85064(6)
C26_2 C 0.85170(9) 0.75188(14) 0.87818(6)
H14_2 H 0.8444 0.7601 0.9146
C27_2 C 0.90705(9) 0.83032(14) 0.85217(6)
C28_2 C 0.92015(10) 0.81534(14) 0.79763(6)
H15_2 H 0.9569 0.8677 0.7799
C29_2 C 0.87797(9) 0.72175(14) 0.77004(6)
C30_2 C 0.82103(10) 0.64713(14) 0.79656(6)
H16_2 H 0.7918 0.5866 0.7777
C32_2 C 0.93189(9) 0.25180(14) 0.95462(6)
C33_2 C 0.95326(10) 0.92912(14) 0.88319(6)
C34_2 C 0.89444(10) 0.69655(15) 0.71268(6)
O6_2 O 0.01380(8) 0.98308(11) 0.14307(4)
Co6 Co 0.937091(12) 0.844015(19) 0.118738(8)
C20_3 C 0.35679(9) 0.16493(14) 0.04107(6)
C21_3 C 0.33956(9) 0.07559(14) 0.08028(6)
H10_3 H 0.3756 0.0659 0.1087
C22_3 C 0.26933(9) 0.00122(13) 0.07731(6)
C23_3 C 0.21763(9) 0.01504(14) 0.03366(6)
C32_3 C 0.43189(9) 0.24820(14) 0.04538(6)
O9_3 O 0.10356(6) 0.06055(10) 0.95219(4)
O10_3 O 0.17903(7) 0.20865(11) 0.91767(4)
O25_2 O 0.05763(7) 0.26840(10) 0.81340(4)
O28_2 O 0.13762(8) 0.10379(12) 0.80963(4)
C18_3 C 0.23143(9) 0.10788(14) 0.99575(6)
C19_3 C 0.30123(10) 0.18283(14) 0.99935(6)
H9_3 H 0.3110 0.2448 0.9741
C31_3 C 0.16872(9) 0.12760(14) 0.95314(6)
O23_2 O 0.44237(7) 0.73160(10) 0.31340(4)
O26_2 O 0.36238(8) 0.89621(12) 0.30963(4)
H11_3 H 0.1729 0.9611 0.0297
C24_3 C 0.24146(9) 0.91657(14) 0.12226(6)
H12_3 H 0.1999 0.8597 0.1085
H13_3 H 0.2150 0.9686 0.1489
C25_3 C 0.30685(9) 0.83893(14) 0.14936(6)
C26_3 C 0.35170(9) 0.74812(14) 0.12182(6)
H14_3 H 0.3444 0.7399 0.0854
C27_3 C 0.40705(9) 0.66968(14) 0.14783(6)
C28_3 C 0.42015(10) 0.68466(14) 0.20237(6)
H15_3 H 0.4569 0.6323 0.2201
C29_3 C 0.37797(9) 0.77825(14) 0.22996(6)
C30_3 C 0.32103(10) 0.85287(14) 0.20344(6)
H16_3 H 0.2918 0.9134 0.2223
C33_3 C 0.45326(10) 0.57088(14) 0.11681(6)
C34_3 C 0.39444(10) 0.80345(15) 0.28732(6)
O7_2 O 0.55763(7) 0.26840(10) 0.68660(4)
O8_2 O 0.63762(8) 0.10379(12) 0.69037(4)
H3_3 H 0.8271 0.0389 0.9703
C7_3 C 0.75854(9) 0.08343(14) 0.87774(6)
H4_3 H 0.8001 0.1403 0.8915
H5_3 H 0.7850 0.0314 0.8511
C8_3 C 0.69315(9) 0.16107(14) 0.85064(6)
C9_3 C 0.64830(9) 0.25188(14) 0.87818(6)
H6_3 H 0.6556 0.2601 0.9146
C10_3 C 0.59295(9) 0.33032(14) 0.85217(6)
C11_3 C 0.57985(10) 0.31534(14) 0.79763(6)
H7_3 H 0.5431 0.3677 0.7799
C12_3 C 0.62203(9) 0.22175(14) 0.77004(6)
C13_3 C 0.67897(10) 0.14713(14) 0.79656(6)
H8_3 H 0.7082 0.0866 0.7777
C16_3 C 0.54674(10) 0.42912(14) 0.88319(6)
C17_3 C 0.60556(10) 0.19655(15) 0.71268(6)
O1_3 O 0.89644(6) 0.93945(10) 0.04781(4)
O2_3 O 0.82097(7) 0.79135(11) 0.08233(4)
C1_3 C 0.76857(9) 0.89212(14) 0.00425(6)
C2_3 C 0.69877(10) 0.81717(14) 0.00065(6)
H1_3 H 0.6890 0.7552 0.0259
C14_3 C 0.83128(9) 0.87240(14) 0.04686(6)
O24_2 O 0.94237(7) 0.73160(10) 0.18660(4)
O27_2 O 0.86238(8) 0.89621(12) 0.19037(4)
C3_3 C 0.64321(9) 0.83507(14) 0.95893(6)
C4_3 C 0.66044(9) 0.92441(14) 0.91972(6)
H2_3 H 0.6244 0.9341 0.8913
C5_3 C 0.73067(9) 0.99878(13) 0.92269(6)
C6_3 C 0.78237(9) 0.98496(14) 0.96634(6)
C15_3 C 0.56811(9) 0.75180(14) 0.95462(6)
O1_4 O 0.60356(6) 0.06055(10) 0.54781(4)
O2_4 O 0.67903(7) 0.20865(11) 0.58233(4)
C1_4 C 0.73143(9) 0.10788(14) 0.50425(6)
C2_4 C 0.80123(10) 0.18283(14) 0.50065(6)
H1_4 H 0.8110 0.2448 0.5259
C3_4 C 0.85679(9) 0.16493(14) 0.45893(6)
C4_4 C 0.83956(9) 0.07559(14) 0.41972(6)
H2_4 H 0.8756 0.0659 0.3913
C5_4 C 0.76933(9) 0.00122(13) 0.42269(6)
C6_4 C 0.71763(9) 0.01504(14) 0.46634(6)
C14_4 C 0.66872(9) 0.12760(14) 0.54686(6)
C15_4 C 0.93189(9) 0.24820(14) 0.45462(6)
H11_4 H 0.3271 0.0389 0.5297
C24_4 C 0.25854(9) 0.08343(14) 0.62226(6)
H12_4 H 0.3001 0.1403 0.6085
H13_4 H 0.2850 0.0314 0.6489
C25_4 C 0.19315(9) 0.16107(14) 0.64936(6)
C26_4 C 0.14830(9) 0.25188(14) 0.62182(6)
H14_4 H 0.1556 0.2601 0.5854
C27_4 C 0.09295(9) 0.33032(14) 0.64783(6)
C28_4 C 0.07985(10) 0.31534(14) 0.70237(6)
H15_4 H 0.0431 0.3677 0.7201
C29_4 C 0.12203(9) 0.22175(14) 0.72996(6)
C30_4 C 0.17897(10) 0.14713(14) 0.70344(6)
H16_4 H 0.2082 0.0866 0.7223
C33_4 C 0.04674(10) 0.42912(14) 0.61681(6)
C34_4 C 0.10556(10) 0.19655(15) 0.78732(6)
H3_4 H 0.6729 0.9611 0.4703
C7_4 C 0.74146(9) 0.91657(14) 0.37774(6)
H4_4 H 0.6999 0.8597 0.3915
H5_4 H 0.7150 0.9686 0.3511
C8_4 C 0.80685(9) 0.83893(14) 0.35064(6)
C9_4 C 0.85170(9) 0.74812(14) 0.37818(6)
H6_4 H 0.8444 0.7399 0.4146
C10_4 C 0.90705(9) 0.66968(14) 0.35217(6)
C11_4 C 0.92015(10) 0.68466(14) 0.29763(6)
H7_4 H 0.9569 0.6323 0.2799
C12_4 C 0.87797(9) 0.77825(14) 0.27004(6)
C13_4 C 0.82103(10) 0.85287(14) 0.29656(6)
H8_4 H 0.7918 0.9134 0.2777
C16_4 C 0.95326(10) 0.57088(14) 0.38319(6)
C17_4 C 0.89444(10) 0.80345(15) 0.21268(6)
O9_4 O 0.39644(6) 0.93945(10) 0.45219(4)
O10_4 O 0.32097(7) 0.79135(11) 0.41767(4)
C18_4 C 0.26857(9) 0.89212(14) 0.49575(6)
C19_4 C 0.19877(10) 0.81717(14) 0.49935(6)
H9_4 H 0.1890 0.7552 0.4741
C20_4 C 0.14321(9) 0.83507(14) 0.54107(6)
C21_4 C 0.16044(9) 0.92441(14) 0.58028(6)
H10_4 H 0.1244 0.9341 0.6087
C22_4 C 0.23067(9) 0.99878(13) 0.57731(6)
C23_4 C 0.28237(9) 0.98496(14) 0.53366(6)
C31_4 C 0.33128(9) 0.87240(14) 0.45314(6)
C32_4 C 0.06811(9) 0.75180(14) 0.54538(6)
loop_
_geom_bond_atom_site_label_1
_geom_bond_atom_site_label_2
_geom_bond_site_symmetry_1
_geom_bond_site_symmetry_2
Co8 O6 1_555 1_555
Co1 O1 1_555 1_555
Co2 O1 1_555 1_555
O1 C14 1_555 1_555
O2 Co1 1_555 1_555
O3 C15 1_555 1_555
O4 C15 1_555 1_555
O5 C16 1_555 1_555
O7 C17 1_555 1_555
O8 C17 1_555 1_555
C1 C2 1_555 1_555
C2 H1 1_555 1_555
C3 C2 1_555 1_555
C4 C3 1_555 1_555
H2 C4 1_555 1_555
C5 C4 1_555 1_555
C6 C1 1_555 1_555
H3 C6 1_555 1_555
C7 C5 1_555 1_555
H4 C7 1_555 1_555
H5 C7 1_555 1_555
C8 C7 1_555 1_555
C9 C8 1_555 1_555
H6 C9 1_555 1_555
C10 C9 1_555 1_555
C11 C10 1_555 1_555
H7 C11 1_555 1_555
C12 C11 1_555 1_555
C13 C8 1_555 1_555
H8 C13 1_555 1_555
C14 O2 1_555 1_555
C15 C3 1_555 1_555
C16 C10 1_555 1_555
C17 C12 1_555 1_555
Co4 O7 1_555 1_555
Co8 O4 1_555 1_555
Co11_2 O5 1_555 1_555
Co11 O3 1_555 1_555
O13 Co2 1_555 1_555
O19 Co2 1_555 1_555
O24 Co1 1_555 1_555
O27 Co1 1_555 1_555
O8 Co4 1_555 1_555
C1 C14 1_555 1_555
C5 C6 1_555 1_555
C12 C13 1_555 1_555
Co3 O9 1_555 1_555
Co5 O23 1_555 1_555
Co7 O14 1_555 1_555
Co11 O17 1_555 1_555
Co11_2 O11 1_555 1_555
O9 Co2_2 1_555 1_555
O10 Co3 1_555 1_555
O11 C32 1_555 1_555
O12 Co2_2 1_555 1_555
O14 C32 1_555 1_555
O17 C33 1_555 1_555
O18 Co2_2 1_555 1_555
O23 C34 1_555 1_555
O25 Co3 1_555 1_555
O26 Co5 1_555 1_555
O28 Co3 1_555 1_555
C18 C19 1_555 1_555
C19 H9 1_555 1_555
C20 C19 1_555 1_555
C21 C20 1_555 1_555
H10 C21 1_555 1_555
C22 C21 1_555 1_555
C23 C18 1_555 1_555
H11 C23 1_555 1_555
C24 C22 1_555 1_555
H12 C24 1_555 1_555
H13 C24 1_555 1_555
C25 C24 1_555 1_555
C26 C25 1_555 1_555
H14 C26 1_555 1_555
C27 C26 1_555 1_555
C28 C27 1_555 1_555
H15 C28 1_555 1_555
C29 C28 1_555 1_555
C30 C25 1_555 1_555
H16 C30 1_555 1_555
C31 O9 1_555 1_555
C32 C20 1_555 1_555
C33 C27 1_555 1_555
C34 O26 1_555 1_555
O10 C31 1_555 1_555
C18 C31 1_555 1_555
C22 C23 1_555 1_555
C29 C30 1_555 1_555
C29 C34 1_555 1_555
Co7 O20 1_555 1_555
O3_2 C15_2 1_555 1_555
O4_2 C15_2 1_555 1_555
O5_2 C16_2 1_555 1_555
O24 C17_2 1_555 1_555
O27 C17_2 1_555 1_555
C4_2 C3_2 1_555 1_555
H2_2 C4_2 1_555 1_555
C5_2 C4_2 1_555 1_555
H3_2 C6_2 1_555 1_555
C7_2 C5_2 1_555 1_555
H4_2 C7_2 1_555 1_555
H5_2 C7_2 1_555 1_555
C8_2 C7_2 1_555 1_555
C9_2 C8_2 1_555 1_555
H6_2 C9_2 1_555 1_555
C10_2 C9_2 1_555 1_555
C11_2 C10_2 1_555 1_555
H7_2 C11_2 1_555 1_555
C12_2 C11_2 1_555 1_555
C13_2 C8_2 1_555 1_555
H8_2 C13_2 1_555 1_555
C15_2 C3_2 1_555 1_555
C16_2 C10_2 1_555 1_555
C17_2 C12_2 1_555 1_555
Co5 O9_2 1_555 1_555
Co10 O5_2 1_555 1_555
Co10_3 O3_2 1_555 1_555
O9_2 Co2_3 1_555 1_555
O10_2 Co5 1_555 1_555
O13_2 Co2_3 1_555 1_555
O16_2 Co5 1_555 1_555
O19_2 Co2_3 1_555 1_555
O22_2 Co5 1_555 1_555
C18_2 C19_2 1_555 1_555
C19_2 H9_2 1_555 1_555
C31_2 O9_2 1_555 1_555
C5_2 C6_2 1_555 1_555
C12_2 C13_2 1_555 1_555
O10_2 C31_2 1_555 1_555
C18_2 C31_2 1_555 1_555
Co4 O1_2 1_555 1_555
Co2_4 O1_2 1_555 1_555
O1_2 C14_2 1_555 1_555
O2_2 Co4 1_555 1_555
C1_2 C2_2 1_555 1_555
C2_2 H1_2 1_555 1_555
C14_2 O2_2 1_555 1_555
Co10_8 O17_2 1_555 1_555
Co10_6 O11_2 1_555 1_555
O11_2 C32_2 1_555 1_555
O12_2 Co2_4 1_555 1_555
O14_2 C32_2 1_555 1_555
O15_2 Co4 1_555 1_555
O17_2 C33_2 1_555 1_555
O18_2 Co2_4 1_555 1_555
O21_2 Co4 1_555 1_555
O25 C34_2 1_555 1_555
C21_2 C20_2 1_555 1_555
H10_2 C21_2 1_555 1_555
C22_2 C21_2 1_555 1_555
H11_2 C23_2 1_555 1_555
C24_2 C22_2 1_555 1_555
H12_2 C24_2 1_555 1_555
H13_2 C24_2 1_555 1_555
C25_2 C24_2 1_555 1_555
C26_2 C25_2 1_555 1_555
H14_2 C26_2 1_555 1_555
C27_2 C26_2 1_555 1_555
C28_2 C27_2 1_555 1_555
H15_2 C28_2 1_555 1_555
C29_2 C28_2 1_555 1_555
C30_2 C25_2 1_555 1_555
H16_2 C30_2 1_555 1_555
C32_2 C20_2 1_555 1_555
C33_2 C27_2 1_555 1_555
C34_2 O28 1_555 1_555
C1_2 C14_2 1_555 1_555
C22_2 C23_2 1_555 1_555
C29_2 C30_2 1_555 1_555
C29_2 C34_2 1_555 1_555
O13_2 C32_3 1_555 1_555
O16_2 C32_3 1_555 1_555
C21_3 C20_3 1_555 1_555
H10_3 C21_3 1_555 1_555
C22_3 C21_3 1_555 1_555
C32_3 C20_3 1_555 1_555
C22_3 C23_3 1_555 1_555
Co9 O9_3 1_555 1_555
O9_3 Co10_2 1_555 1_555
O10_3 Co9 1_555 1_555
O25_2 Co9 1_555 1_555
O28_2 Co9 1_555 1_555
C18_3 C19_3 1_555 1_555
C19_3 H9_3 1_555 1_555
C31_3 O9_3 1_555 1_555
O10_3 C31_3 1_555 1_555
C18_3 C31_3 1_555 1_555
Co7 O23_2 1_555 1_555
O19_2 C33_3 1_555 1_555
O22_2 C33_3 1_555 1_555
O23_2 C34_3 1_555 1_555
O26_2 Co7 1_555 1_555
H12_3 C24_3 1_555 1_555
H13_3 C24_3 1_555 1_555
C25_3 C24_3 1_555 1_555
C26_3 C25_3 1_555 1_555
H14_3 C26_3 1_555 1_555
C27_3 C26_3 1_555 1_555
C28_3 C27_3 1_555 1_555
H15_3 C28_3 1_555 1_555
C29_3 C28_3 1_555 1_555
C30_3 C25_3 1_555 1_555
H16_3 C30_3 1_555 1_555
C33_3 C27_3 1_555 1_555
C34_3 O26_2 1_555 1_555
C29_3 C30_3 1_555 1_555
C29_3 C34_3 1_555 1_555
O18_2 C16_3 1_555 1_555
O21_2 C16_3 1_555 1_555
O7_2 C17_3 1_555 1_555
O8_2 C17_3 1_555 1_555
H4_3 C7_3 1_555 1_555
H5_3 C7_3 1_555 1_555
C8_3 C7_3 1_555 1_555
C9_3 C8_3 1_555 1_555
H6_3 C9_3 1_555 1_555
C10_3 C9_3 1_555 1_555
C11_3 C10_3 1_555 1_555
H7_3 C11_3 1_555 1_555
C12_3 C11_3 1_555 1_555
C13_3 C8_3 1_555 1_555
H8_3 C13_3 1_555 1_555
C16_3 C10_3 1_555 1_555
C17_3 C12_3 1_555 1_555
Co8 O7_2 1_555 1_555
O8_2 Co8 1_555 1_555
C12_3 C13_3 1_555 1_555
Co6 O1_3 1_555 1_555
Co10_7 O1_3 1_555 1_555
O1_3 C14_3 1_555 1_555
O2_3 Co6 1_555 1_555
C1_3 C2_3 1_555 1_555
C2_3 H1_3 1_555 1_555
C14_3 O2_3 1_555 1_555
O24_2 Co6 1_555 1_555
O27_2 Co6 1_555 1_555
C1_3 C14_3 1_555 1_555
O12_2 C15_3 1_555 1_555
O15_2 C15_3 1_555 1_555
C4_3 C3_3 1_555 1_555
H2_3 C4_3 1_555 1_555
C5_3 C4_3 1_555 1_555
C15_3 C3_3 1_555 1_555
C5_3 C6_3 1_555 1_555
Co8 O1_4 1_555 1_555
Co11 O1_4 1_555 1_555
O1_4 C14_4 1_555 1_555
O2_4 Co8 1_555 1_555
O12 C15_4 1_555 1_555
O15 C15_4 1_555 1_555
C1_4 C2_4 1_555 1_555
C2_4 H1_4 1_555 1_555
C3_4 C2_4 1_555 1_555
C4_4 C3_4 1_555 1_555
H2_4 C4_4 1_555 1_555
C5_4 C4_4 1_555 1_555
C6_4 C1_4 1_555 1_555
C14_4 O2_4 1_555 1_555
C15_4 C3_4 1_555 1_555
O19 C33_4 1_555 1_555
O22 C33_4 1_555 1_555
O25_2 C34_4 1_555 1_555
H12_4 C24_4 1_555 1_555
H13_4 C24_4 1_555 1_555
C25_4 C24_4 1_555 1_555
C26_4 C25_4 1_555 1_555
H14_4 C26_4 1_555 1_555
C27_4 C26_4 1_555 1_555
C28_4 C27_4 1_555 1_555
H15_4 C28_4 1_555 1_555
C29_4 C28_4 1_555 1_555
C30_4 C25_4 1_555 1_555
H16_4 C30_4 1_555 1_555
C33_4 C27_4 1_555 1_555
C34_4 O28_2 1_555 1_555
C1_4 C14_4 1_555 1_555
C5_4 C6_4 1_555 1_555
C29_4 C30_4 1_555 1_555
C29_4 C34_4 1_555 1_555
O18 C16_4 1_555 1_555
O21 C16_4 1_555 1_555
O24_2 C17_4 1_555 1_555
O27_2 C17_4 1_555 1_555
H4_4 C7_4 1_555 1_555
H5_4 C7_4 1_555 1_555
C8_4 C7_4 1_555 1_555
C9_4 C8_4 1_555 1_555
H6_4 C9_4 1_555 1_555
C10_4 C9_4 1_555 1_555
C11_4 C10_4 1_555 1_555
H7_4 C11_4 1_555 1_555
C12_4 C11_4 1_555 1_555
C13_4 C8_4 1_555 1_555
H8_4 C13_4 1_555 1_555
C16_4 C10_4 1_555 1_555
C17_4 C12_4 1_555 1_555
Co7 O9_4 1_555 1_555
O9_4 Co11_2 1_555 1_555
O10_4 Co7 1_555 1_555
O13 C32_4 1_555 1_555
O16 C32_4 1_555 1_555
C18_4 C19_4 1_555 1_555
C19_4 H9_4 1_555 1_555
C20_4 C19_4 1_555 1_555
C21_4 C20_4 1_555 1_555
H10_4 C21_4 1_555 1_555
C22_4 C21_4 1_555 1_555
C23_4 C18_4 1_555 1_555
C31_4 O9_4 1_555 1_555
C32_4 C20_4 1_555 1_555
C12_4 C13_4 1_555 1_555
O10_4 C31_4 1_555 1_555
C18_4 C31_4 1_555 1_555
C22_4 C23_4 1_555 1_555

#END
