
###############################################################################
#
# This file contains modified crystal structure data generated from the
# MOF subset of the Cambridge Structural Database (CSD) v543 
# hosted by the Cambridge Crystallographic Data Centre (CCDC).
#
# This work is licensed under the Creative Commons
# Attribution-NonCommercial-ShareAlike 4.0 International License.
# To view a copy of this license, visit
# http://creativecommons.org/licenses/by-nc-sa/4.0/
# or send a letter to
# Creative Commons, PO Box 1866, Mountain View, CA 94042, USA.
#
# CIF created using the CSD Python API on 29 September 2022
# The structure has been converted into the P1 space group
# The structure has a 3D framework
# The original CSD entry ALIXUP is in the orthorhombic crystal system
# The framework has been calculated to contain at least 10.0% void space
# The void calculation uses a probe of radius 1.32A, grid spacing 0.4
# H atom positions have been added when not included in the experimental data
#
###############################################################################

data_ALIXUP
_chemical_formula_moiety         '(C68 H80 Cu20 O56)n'
_symmetry_cell_setting           triclinic
_symmetry_space_group_name_H-M   'P 1'
_symmetry_Int_Tables_number      1
_space_group_name_Hall           'P 1'
loop_
_symmetry_equiv_pos_site_id
_symmetry_equiv_pos_as_xyz
1 x,y,z
_cell_length_a                   18.4609(10)
_cell_length_b                   18.6553(10)
_cell_length_c                   8.1387(4)
_cell_angle_alpha                90
_cell_angle_beta                 90
_cell_angle_gamma                90
_cell_volume                     2802.92
loop_
_atom_site_label
_atom_site_type_symbol
_atom_site_fract_x
_atom_site_fract_y
_atom_site_fract_z
Cu1 Cu 0.06924(3) 0.58564(3) 0.20933(7)
Cu2 Cu 0.5000 0.5000 0.0000
C1 C 0.2128(2) 0.42153(19) 0.2989(5)
C2 C 0.2822(2) 0.4415(2) 0.2542(5)
H1 H 0.2896 0.4833 0.1942
C3 C 0.3410(2) 0.3993(2) 0.2990(5)
C4 C 0.3301(2) 0.33741(19) 0.3917(4)
H2 H 0.3696 0.3097 0.4230
C5 C 0.2606(2) 0.31694(19) 0.4376(4)
C6 C 0.2021(2) 0.3586(2) 0.3891(5)
H3 H 0.1554 0.3445 0.4168
C7 C 0.2500 0.2500 0.5402(6)
H4 H 0.2919 0.2435 0.6105
C8 C 0.1496(2) 0.4680(2) 0.2544(5)
C9 C 0.4164(2) 0.4202(2) 0.2502(5)
O1 O 0.08743(16) 0.44293(18) 0.2475(5)
O2 O 0.16322(16) 0.53457(15) 0.2273(4)
O3 O 0.42224(16) 0.47229(17) 0.1513(5)
O4 O 0.46729(16) 0.38477(17) 0.3078(4)
O5 O 0.55719(16) 0.41685(14) 0.0533(4)
H5 H 0.554(4) 0.371(2) 0.005(8)
O7 O 0.1208(2) 0.6989(2) 0.1984(5)
H8 H 0.092(3) 0.731(3) 0.143(7)
H9 H 0.137(4) 0.720(3) 0.295(5)
Cu4 Cu 0.56924(3) 0.41436(3) 0.29067(7)
Cu7 Cu 0.0000 0.0000 0.0000
C10 C 0.2872(2) 0.07847(19) 0.2989(5)
C11 C 0.2178(2) 0.0585(2) 0.2542(5)
H10 H 0.2104 0.0167 0.1942
C12 C 0.1590(2) 0.1007(2) 0.2990(5)
C13 C 0.1699(2) 0.16259(19) 0.3917(4)
H11 H 0.1304 0.1903 0.4230
C14 C 0.2394(2) 0.18306(19) 0.4376(4)
C15 C 0.2979(2) 0.1414(2) 0.3891(5)
H12 H 0.3446 0.1555 0.4168
H13 H 0.2081 0.2565 0.6105
C16 C 0.3504(2) 0.0320(2) 0.2544(5)
C17 C 0.0836(2) 0.0798(2) 0.2502(5)
O8 O 0.41257(16) 0.05707(18) 0.2475(5)
O10 O 0.07776(16) 0.02771(17) 0.1513(5)
O12 O 0.03271(16) 0.11523(17) 0.3078(4)
O16 O 0.05719(16) 0.58315(14) 0.4467(4)
H15 H 0.054(4) 0.629(2) 0.495(8)
H22 H 0.099342 0.557732 0.495177
Cu2_2 Cu 0.5000 0.5000 1.0000
O6 O 0.0742(2) 0.5877(3) 0.9638(6)
H6 H 0.045(3) 0.619(2) 0.900(8)
H7 H 0.058(3) 0.5408(14) 0.935(3)
Cu6 Cu 0.43076(3) 0.58564(3) 0.70933(7)
Cu7_2 Cu 0.0000 0.0000 1.0000
O11 O 0.57776(16) 0.52771(17) 0.8487(5)
O15 O 0.44281(16) 0.58315(14) 0.9467(4)
H14 H 0.446(4) 0.629(2) 0.995(8)
Cu3 Cu 0.43076(3) 0.91436(3) 0.20933(7)
Cu7_3 Cu 0.0000 1.0000 0.0000
O9 O 0.33678(16) 0.96543(15) 0.2273(4)
O14 O 0.53271(16) 0.88477(17) 0.1922(4)
O17 O 0.44281(16) 0.91685(14) 0.4467(4)
H16 H 0.446(4) 0.871(2) 0.495(8)
O19 O 0.3792(2) 0.8011(2) 0.1984(5)
H19 H 0.408(3) 0.769(3) 0.143(7)
H20 H 0.363(4) 0.780(3) 0.295(5)
H21 H 0.400658 0.942268 0.495177
Cu7_4 Cu 0.0000 1.0000 1.0000
O18 O 0.4258(2) 0.9123(3) 0.9638(6)
H17 H 0.455(3) 0.881(2) 0.900(8)
H18 H 0.442(3) 0.9592(14) 0.935(3)
Cu5 Cu 0.93076(3) 0.08564(3) 0.29067(7)
Cu7_5 Cu 1.0000 0.0000 0.0000
O13 O 0.96729(16) 0.61523(17) 0.1922(4)
Cu7_6 Cu 1.0000 0.0000 1.0000
Cu7_7 Cu 1.0000 1.0000 0.0000
Cu7_8 Cu 1.0000 1.0000 1.0000
Cu6_2 Cu 0.06924(3) 0.91436(3) 0.70933(7)
O15_2 O 0.05719(16) 0.91685(14) 0.9467(4)
H14_2 H 0.054(4) 0.871(2) 0.995(8)
O5_2 O 0.94281(16) 0.08315(14) 0.0533(4)
H5_2 H 0.946(4) 0.129(2) 0.005(8)
O11_2 O 0.92224(16) 0.97229(17) 0.8487(5)
Cu7_9 Cu 0.0000 0.5000 0.5000
Cu2_3 Cu 0.5000 0.0000 0.5000
O2_2 O 0.83678(16) 0.03457(15) 0.2727(4)
O6_2 O 0.9258(2) 0.0877(3) 0.5362(6)
H6_2 H 0.955(3) 0.119(2) 0.600(8)
H7_2 H 0.942(3) 0.0408(14) 0.565(3)
O7_2 O 0.8792(2) 0.1989(2) 0.3016(5)
H8_2 H 0.908(3) 0.231(3) 0.357(7)
H9_2 H 0.863(4) 0.220(3) 0.205(5)
Cu6_3 Cu 0.56924(3) 0.08564(3) 0.79067(7)
O11_3 O 0.42224(16) 0.02771(17) 0.6513(5)
O15_3 O 0.55719(16) 0.08315(14) 0.5533(4)
H14_3 H 0.554(4) 0.129(2) 0.505(8)
H22_2 H 0.900658 0.057732 0.00482311
Cu2_4 Cu 0.5000 1.0000 0.5000
C1_2 C 0.7872(2) 0.92153(19) 0.2011(5)
C2_2 C 0.7178(2) 0.9415(2) 0.2458(5)
H1_2 H 0.7104 0.9833 0.3058
C3_2 C 0.6590(2) 0.8993(2) 0.2010(5)
C4_2 C 0.6699(2) 0.83741(19) 0.1083(4)
H2_2 H 0.6304 0.8097 0.0770
C5_2 C 0.7394(2) 0.81694(19) 0.0624(4)
C6_2 C 0.7979(2) 0.8586(2) 0.1109(5)
H3_2 H 0.8446 0.8445 0.0832
C8_2 C 0.8504(2) 0.9680(2) 0.2456(5)
C9_2 C 0.5836(2) 0.9202(2) 0.2498(5)
O1_2 O 0.91257(16) 0.94293(18) 0.2525(5)
O3_2 O 0.57776(16) 0.97229(17) 0.3487(5)
Cu7_10 Cu 1.0000 0.5000 0.5000
C10_2 C 0.7128(2) 0.57847(19) 0.2011(5)
C11_2 C 0.7822(2) 0.5585(2) 0.2458(5)
H10_2 H 0.7896 0.5167 0.3058
C12_2 C 0.8410(2) 0.6007(2) 0.2010(5)
C13_2 C 0.8301(2) 0.66259(19) 0.1083(4)
H11_2 H 0.8696 0.6903 0.0770
C14_2 C 0.7606(2) 0.68306(19) 0.0624(4)
C15_2 C 0.7021(2) 0.6414(2) 0.1109(5)
H12_2 H 0.6554 0.6555 0.0832
C16_2 C 0.6496(2) 0.5320(2) 0.2456(5)
C17_2 C 0.9164(2) 0.5798(2) 0.2498(5)
O8_2 O 0.58743(16) 0.55707(18) 0.2525(5)
O9_2 O 0.66322(16) 0.46543(15) 0.2727(4)
O10_2 O 0.92224(16) 0.52771(17) 0.3487(5)
O18_2 O 0.5742(2) 0.4123(3) 0.5362(6)
H17_2 H 0.545(3) 0.381(2) 0.600(8)
H18_2 H 0.558(3) 0.4592(14) 0.565(3)
O19_2 O 0.6208(2) 0.3011(2) 0.3016(5)
H19_2 H 0.592(3) 0.269(3) 0.357(7)
H20_2 H 0.637(4) 0.280(3) 0.205(5)
H21_2 H 0.599342 0.442268 0.00482311
O11_4 O 0.07776(16) 0.47229(17) 0.6513(5)
Cu6_4 Cu 0.93076(3) 0.41436(3) 0.79067(7)
O15_4 O 0.94281(16) 0.41685(14) 0.5533(4)
H14_4 H 0.946(4) 0.371(2) 0.505(8)
O13_2 O 0.03271(16) 0.38477(17) 0.8078(4)
O18_3 O 0.5742(2) 0.0877(3) 0.0362(6)
H17_3 H 0.545(3) 0.119(2) 0.100(8)
H18_3 H 0.558(3) 0.0408(14) 0.065(3)
O9_3 O 0.66322(16) 0.03457(15) 0.7727(4)
O14_2 O 0.46729(16) 0.11523(17) 0.8078(4)
O19_3 O 0.6208(2) 0.1989(2) 0.8016(5)
H19_3 H 0.592(3) 0.231(3) 0.857(7)
H20_3 H 0.637(4) 0.220(3) 0.705(5)
H21_3 H 0.599342 0.057732 0.504823
O6_3 O 0.9258(2) 0.4123(3) 0.0362(6)
H6_3 H 0.955(3) 0.381(2) 0.100(8)
H7_3 H 0.942(3) 0.4592(14) 0.065(3)
C1_3 C 0.7872(2) 0.57847(19) 0.7011(5)
C2_3 C 0.7178(2) 0.5585(2) 0.7458(5)
H1_3 H 0.7104 0.5167 0.8058
C3_3 C 0.6590(2) 0.6007(2) 0.7010(5)
C4_3 C 0.6699(2) 0.66259(19) 0.6083(4)
H2_3 H 0.6304 0.6903 0.5770
C5_3 C 0.7394(2) 0.68306(19) 0.5624(4)
C6_3 C 0.7979(2) 0.6414(2) 0.6109(5)
H3_3 H 0.8446 0.6555 0.5832
C7_2 C 0.7500 0.7500 0.4598(6)
H4_2 H 0.7081 0.7565 0.3895
C8_3 C 0.8504(2) 0.5320(2) 0.7456(5)
C9_3 C 0.5836(2) 0.5798(2) 0.7498(5)
O1_3 O 0.91257(16) 0.55707(18) 0.7525(5)
O2_3 O 0.83678(16) 0.46543(15) 0.7727(4)
O4_2 O 0.53271(16) 0.61523(17) 0.6922(4)
O7_3 O 0.8792(2) 0.3011(2) 0.8016(5)
H8_3 H 0.908(3) 0.269(3) 0.857(7)
H9_3 H 0.863(4) 0.280(3) 0.705(5)
C10_3 C 0.7128(2) 0.92153(19) 0.7011(5)
C11_3 C 0.7822(2) 0.9415(2) 0.7458(5)
H10_3 H 0.7896 0.9833 0.8058
C12_3 C 0.8410(2) 0.8993(2) 0.7010(5)
C13_3 C 0.8301(2) 0.83741(19) 0.6083(4)
H11_3 H 0.8696 0.8097 0.5770
C14_3 C 0.7606(2) 0.81694(19) 0.5624(4)
C15_3 C 0.7021(2) 0.8586(2) 0.6109(5)
H12_3 H 0.6554 0.8445 0.5832
H13_2 H 0.7919 0.7435 0.3895
C16_3 C 0.6496(2) 0.9680(2) 0.7456(5)
C17_3 C 0.9164(2) 0.9202(2) 0.7498(5)
O8_3 O 0.58743(16) 0.94293(18) 0.7525(5)
O12_2 O 0.96729(16) 0.88477(17) 0.6922(4)
H22_3 H 0.900658 0.442268 0.504823
C1_4 C 0.2128(2) 0.07847(19) 0.7989(5)
C2_4 C 0.2822(2) 0.0585(2) 0.7542(5)
H1_4 H 0.2896 0.0167 0.6942
C3_4 C 0.3410(2) 0.1007(2) 0.7990(5)
C4_4 C 0.3301(2) 0.16259(19) 0.8917(4)
H2_4 H 0.3696 0.1903 0.9230
C5_4 C 0.2606(2) 0.18306(19) 0.9376(4)
C6_4 C 0.2021(2) 0.1414(2) 0.8891(5)
H3_4 H 0.1554 0.1555 0.9168
C8_4 C 0.1496(2) 0.0320(2) 0.7544(5)
C9_4 C 0.4164(2) 0.0798(2) 0.7502(5)
O1_4 O 0.08743(16) 0.05707(18) 0.7475(5)
C10_4 C 0.2872(2) 0.42153(19) 0.7989(5)
C11_4 C 0.2178(2) 0.4415(2) 0.7542(5)
H10_4 H 0.2104 0.4833 0.6942
C12_4 C 0.1590(2) 0.3993(2) 0.7990(5)
C13_4 C 0.1699(2) 0.33741(19) 0.8917(4)
H11_4 H 0.1304 0.3097 0.9230
C14_4 C 0.2394(2) 0.31694(19) 0.9376(4)
C15_4 C 0.2979(2) 0.3586(2) 0.8891(5)
H12_4 H 0.3446 0.3445 0.9168
C16_4 C 0.3504(2) 0.4680(2) 0.7544(5)
C17_4 C 0.0836(2) 0.4202(2) 0.7502(5)
O8_4 O 0.41257(16) 0.44293(18) 0.7475(5)
O9_4 O 0.33678(16) 0.53457(15) 0.7273(4)
O18_4 O 0.4258(2) 0.5877(3) 0.4638(6)
H17_4 H 0.455(3) 0.619(2) 0.400(8)
H18_4 H 0.442(3) 0.5408(14) 0.435(3)
O19_4 O 0.3792(2) 0.6989(2) 0.6984(5)
H19_4 H 0.408(3) 0.731(3) 0.643(7)
H20_4 H 0.363(4) 0.720(3) 0.795(5)
H21_4 H 0.400658 0.557732 0.995177
O2_4 O 0.16322(16) 0.96543(15) 0.7273(4)
O6_4 O 0.0742(2) 0.9123(3) 0.4638(6)
H6_4 H 0.045(3) 0.881(2) 0.400(8)
H7_4 H 0.058(3) 0.9592(14) 0.435(3)
O7_4 O 0.1208(2) 0.8011(2) 0.6984(5)
H8_4 H 0.092(3) 0.769(3) 0.643(7)
H9_4 H 0.137(4) 0.780(3) 0.795(5)
H22_4 H 0.099342 0.942268 0.995177
C7_3 C 0.7500 0.7500 0.9598(6)
H4_3 H 0.7081 0.7435 0.8895
H13_3 H 0.7919 0.7565 0.8895
C7_4 C 0.2500 0.2500 0.0402(6)
H4_4 H 0.2919 0.2565 0.1105
H13_4 H 0.2081 0.2435 0.1105
loop_
_geom_bond_atom_site_label_1
_geom_bond_atom_site_label_2
_geom_bond_site_symmetry_1
_geom_bond_site_symmetry_2
Cu1 O2 1_555 1_555
Cu2 O3 1_555 1_555
C1 C2 1_555 1_555
C2 H1 1_555 1_555
C3 C2 1_555 1_555
C4 C3 1_555 1_555
H2 C4 1_555 1_555
C5 C4 1_555 1_555
C6 C1 1_555 1_555
H3 C6 1_555 1_555
C7 C5 1_555 1_555
H4 C7 1_555 1_555
C8 C1 1_555 1_555
C9 C3 1_555 1_555
O1 C8 1_555 1_555
O2 C8 1_555 1_555
O3 C9 1_555 1_555
O4 C9 1_555 1_555
O5 Cu2 1_555 1_555
H5 O5 1_555 1_555
O7 Cu1 1_555 1_555
H8 O7 1_555 1_555
H9 O7 1_555 1_555
Cu4 O4 1_555 1_555
Cu7 O10 1_555 1_555
C10 C11 1_555 1_555
C11 H10 1_555 1_555
C12 C11 1_555 1_555
C13 C12 1_555 1_555
H11 C13 1_555 1_555
C14 C7 1_555 1_555
C15 C10 1_555 1_555
H12 C15 1_555 1_555
H13 C7 1_555 1_555
C16 C10 1_555 1_555
C17 C12 1_555 1_555
O8 C16 1_555 1_555
O10 C17 1_555 1_555
O12 C17 1_555 1_555
O16 Cu1 1_555 1_555
H15 O16 1_555 1_555
C5 C6 1_555 1_555
O5 Cu4 1_555 1_555
C13 C14 1_555 1_555
C14 C15 1_555 1_555
O16 H22 1_555 1_555
H6 O6 1_555 1_555
H7 O6 1_555 1_555
Cu6 O15 1_555 1_555
O11 Cu2_2 1_555 1_555
O15 Cu2_2 1_555 1_555
H14 O15 1_555 1_555
Cu3 O9 1_555 1_555
O14 Cu3 1_555 1_555
O17 Cu3 1_555 1_555
H16 O17 1_555 1_555
O19 Cu3 1_555 1_555
H19 O19 1_555 1_555
H20 O19 1_555 1_555
O17 H21 1_555 1_555
H17 O18 1_555 1_555
H18 O18 1_555 1_555
Cu6_2 O15_2 1_555 1_555
O15_2 Cu7_4 1_555 1_555
H14_2 O15_2 1_555 1_555
O5_2 Cu7_5 1_555 1_555
H5_2 O5_2 1_555 1_555
O5_2 Cu5 1_555 1_555
O11_2 Cu7_8 1_555 1_555
Cu5 O2_2 1_555 1_555
O6_2 Cu5 1_555 1_555
H6_2 O6_2 1_555 1_555
H7_2 O6_2 1_555 1_555
O7_2 Cu5 1_555 1_555
H8_2 O7_2 1_555 1_555
H9_2 O7_2 1_555 1_555
Cu6_3 O15_3 1_555 1_555
O11_3 Cu2_3 1_555 1_555
O15_3 Cu2_3 1_555 1_555
H14_3 O15_3 1_555 1_555
O5_2 H22_2 1_555 1_555
Cu2_4 O3_2 1_555 1_555
C1_2 C2_2 1_555 1_555
C2_2 H1_2 1_555 1_555
C3_2 C2_2 1_555 1_555
C4_2 C3_2 1_555 1_555
H2_2 C4_2 1_555 1_555
C5_2 C4_2 1_555 1_555
C6_2 C1_2 1_555 1_555
H3_2 C6_2 1_555 1_555
C8_2 C1_2 1_555 1_555
C9_2 C3_2 1_555 1_555
O1_2 C8_2 1_555 1_555
O3_2 C9_2 1_555 1_555
O14 C9_2 1_555 1_555
O17 Cu2_4 1_555 1_555
Cu4 O9_2 1_555 1_555
Cu7_10 O10_2 1_555 1_555
C10_2 C11_2 1_555 1_555
C11_2 H10_2 1_555 1_555
C12_2 C11_2 1_555 1_555
C13_2 C12_2 1_555 1_555
H11_2 C13_2 1_555 1_555
C15_2 C10_2 1_555 1_555
H12_2 C15_2 1_555 1_555
C16_2 C10_2 1_555 1_555
C17_2 C12_2 1_555 1_555
O8_2 C16_2 1_555 1_555
O9_2 C16_2 1_555 1_555
O10_2 C17_2 1_555 1_555
O13 C17_2 1_555 1_555
O18_2 Cu4 1_555 1_555
H17_2 O18_2 1_555 1_555
H18_2 O18_2 1_555 1_555
O19_2 Cu4 1_555 1_555
H19_2 O19_2 1_555 1_555
H20_2 O19_2 1_555 1_555
C5_2 C6_2 1_555 1_555
C13_2 C14_2 1_555 1_555
C14_2 C15_2 1_555 1_555
O5 H21_2 1_555 1_555
O16 Cu7_9 1_555 1_555
O11_4 Cu7_9 1_555 1_555
Cu6_4 O15_4 1_555 1_555
O15_4 Cu7_10 1_555 1_555
H14_4 O15_4 1_555 1_555
H17_3 O18_3 1_555 1_555
H18_3 O18_3 1_555 1_555
Cu6_3 O9_3 1_555 1_555
O14_2 Cu6_3 1_555 1_555
O19_3 Cu6_3 1_555 1_555
H19_3 O19_3 1_555 1_555
H20_3 O19_3 1_555 1_555
O15_3 H21_3 1_555 1_555
H6_3 O6_3 1_555 1_555
H7_3 O6_3 1_555 1_555
Cu6_4 O2_3 1_555 1_555
C1_3 C2_3 1_555 1_555
C2_3 H1_3 1_555 1_555
C3_3 C2_3 1_555 1_555
C4_3 C3_3 1_555 1_555
H2_3 C4_3 1_555 1_555
C5_3 C4_3 1_555 1_555
C6_3 C1_3 1_555 1_555
H3_3 C6_3 1_555 1_555
C7_2 C5_3 1_555 1_555
H4_2 C7_2 1_555 1_555
C8_3 C1_3 1_555 1_555
C9_3 C3_3 1_555 1_555
O1_3 C8_3 1_555 1_555
O2_3 C8_3 1_555 1_555
O11 C9_3 1_555 1_555
O4_2 C9_3 1_555 1_555
O7_3 Cu6_4 1_555 1_555
H8_3 O7_3 1_555 1_555
H9_3 O7_3 1_555 1_555
Cu6 O4_2 1_555 1_555
C10_3 C11_3 1_555 1_555
C11_3 H10_3 1_555 1_555
C12_3 C11_3 1_555 1_555
C13_3 C12_3 1_555 1_555
H11_3 C13_3 1_555 1_555
C14_3 C7_2 1_555 1_555
C15_3 C10_3 1_555 1_555
H12_3 C15_3 1_555 1_555
H13_2 C7_2 1_555 1_555
C16_3 C10_3 1_555 1_555
C17_3 C12_3 1_555 1_555
O8_3 C16_3 1_555 1_555
O11_2 C17_3 1_555 1_555
O12_2 C17_3 1_555 1_555
C5_3 C6_3 1_555 1_555
C13_3 C14_3 1_555 1_555
C14_3 C15_3 1_555 1_555
O15_4 H22_3 1_555 1_555
C1_4 C2_4 1_555 1_555
C2_4 H1_4 1_555 1_555
C3_4 C2_4 1_555 1_555
C4_4 C3_4 1_555 1_555
H2_4 C4_4 1_555 1_555
C5_4 C4_4 1_555 1_555
C6_4 C1_4 1_555 1_555
H3_4 C6_4 1_555 1_555
C8_4 C1_4 1_555 1_555
C9_4 C3_4 1_555 1_555
O1_4 C8_4 1_555 1_555
O11_3 C9_4 1_555 1_555
O14_2 C9_4 1_555 1_555
Cu6 O9_4 1_555 1_555
C10_4 C11_4 1_555 1_555
C11_4 H10_4 1_555 1_555
C12_4 C11_4 1_555 1_555
C13_4 C12_4 1_555 1_555
H11_4 C13_4 1_555 1_555
C15_4 C10_4 1_555 1_555
H12_4 C15_4 1_555 1_555
C16_4 C10_4 1_555 1_555
C17_4 C12_4 1_555 1_555
O8_4 C16_4 1_555 1_555
O9_4 C16_4 1_555 1_555
O11_4 C17_4 1_555 1_555
O13_2 C17_4 1_555 1_555
O18_4 Cu6 1_555 1_555
H17_4 O18_4 1_555 1_555
H18_4 O18_4 1_555 1_555
O19_4 Cu6 1_555 1_555
H19_4 O19_4 1_555 1_555
H20_4 O19_4 1_555 1_555
C5_4 C6_4 1_555 1_555
C13_4 C14_4 1_555 1_555
C14_4 C15_4 1_555 1_555
O15 H21_4 1_555 1_555
Cu6_2 O2_4 1_555 1_555
O6_4 Cu6_2 1_555 1_555
H6_4 O6_4 1_555 1_555
H7_4 O6_4 1_555 1_555
O7_4 Cu6_2 1_555 1_555
H8_4 O7_4 1_555 1_555
H9_4 O7_4 1_555 1_555
O15_2 H22_4 1_555 1_555
H4_3 C7_3 1_555 1_555
H13_3 C7_3 1_555 1_555
H4_4 C7_4 1_555 1_555
H13_4 C7_4 1_555 1_555

#END
