
###############################################################################
#
# This file contains modified crystal structure data generated from the
# MOF subset of the Cambridge Structural Database (CSD) v543 
# hosted by the Cambridge Crystallographic Data Centre (CCDC).
#
# This work is licensed under the Creative Commons
# Attribution-NonCommercial-ShareAlike 4.0 International License.
# To view a copy of this license, visit
# http://creativecommons.org/licenses/by-nc-sa/4.0/
# or send a letter to
# Creative Commons, PO Box 1866, Mountain View, CA 94042, USA.
#
# CIF created using the CSD Python API on 29 September 2022
# The structure has been converted into the P1 space group
# The structure has a 3D framework
# The original CSD entry ALOLIY is in the monoclinic crystal system
# The framework has been calculated to contain at least 10.0% void space
# The void calculation uses a probe of radius 1.32A, grid spacing 0.4
# The framework is charged, counterions have been retained in the structure
#
###############################################################################

data_ALOLIY
_chemical_formula_moiety         '(C128 H160 Mn20 O120 2+)n'
_symmetry_cell_setting           triclinic
_symmetry_space_group_name_H-M   'P 1'
_symmetry_Int_Tables_number      1
_space_group_name_Hall           'P 1'
loop_
_symmetry_equiv_pos_site_id
_symmetry_equiv_pos_as_xyz
1 x,y,z
_cell_length_a                   23.113(6)
_cell_length_b                   7.3954(17)
_cell_length_c                   29.657(7)
_cell_angle_alpha                90
_cell_angle_beta                 93.037(5)
_cell_angle_gamma                90
_cell_volume                     5062.15
loop_
_atom_site_label
_atom_site_type_symbol
_atom_site_fract_x
_atom_site_fract_y
_atom_site_fract_z
Mn1 Mn 0.0000 0.24979(16) 0.2500
Mn3 Mn 0.2500 0.2500 0.5000
C1 C 0.0867(2) 0.4745(7) 0.31020(16)
C2 C 0.1495(2) 0.4231(7) 0.31093(15)
C3 C 0.1784(2) 0.3779(7) 0.35127(15)
H1 H 0.1591 0.3848 0.3779
C4 C 0.2354(2) 0.3229(7) 0.35271(15)
C5 C 0.2646(2) 0.3171(7) 0.31241(15)
H2 H 0.3032 0.2808 0.3131
C6 C 0.2368(2) 0.3644(7) 0.27182(15)
C7 C 0.1789(2) 0.4146(7) 0.27134(16)
H3 H 0.1594 0.4430 0.2440
C8 C 0.2687(2) 0.3640(7) 0.22935(14)
C9 C 0.2417(2) 0.3106(7) 0.18841(15)
H4 H 0.2036 0.2698 0.1877
C10 C 0.2709(2) 0.3170(7) 0.14832(15)
C11 C 0.3280(2) 0.3801(7) 0.14976(16)
H5 H 0.3478 0.3862 0.1233
C12 C 0.3555(2) 0.4340(7) 0.19064(16)
C13 C 0.3253(2) 0.4237(7) 0.22956(16)
H6 H 0.3438 0.4581 0.2568
C14 C 0.2408(2) 0.2606(7) 0.10471(16)
C15 C 0.4153(2) 0.5105(7) 0.19181(17)
C16 C 0.2645(2) 0.2699(7) 0.39707(16)
O1 O 0.05762(14) 0.4637(5) 0.27259(11)
O2 O 0.06597(15) 0.5203(5) 0.34689(11)
O3 O 0.23189(16) 0.2552(5) 0.42985(11)
O4 O 0.31796(17) 0.2477(6) 0.40000(12)
O5 O 0.43884(16) 0.5462(5) 0.23021(11)
O6 O 0.43935(15) 0.5426(5) 0.15551(11)
O7 O 0.27134(16) 0.2374(5) 0.07094(11)
O8 O 0.18721(15) 0.2357(5) 0.10330(11)
H13 H 0.0043 0.8643 0.3728
H15 H 0.0226 0.3419 0.4249
O14 O 0.2785(2) 0.5292(5) 0.49767(12)
H17 H 0.2691 0.5815 0.5206
H18 H 0.2648 0.5868 0.4760
O15 O 0.34260(17) 0.1754(6) 0.48993(13)
H19 H 0.3535 0.0705 0.4935
H20 H 0.3453 0.2003 0.4632
Mn4 Mn 0.02423(4) 0.53603(12) 0.14329(3)
O24 O 0.02868(15) 0.2571(5) 0.17794(11)
H27 H 0.0003 0.2061 0.1661
H28 H 0.0568 0.1926 0.1738
O25 O 0.04926(19) 0.7022(5) 0.20350(13)
H29 H 0.0499 0.8126 0.2060
H30 H 0.0466 0.6594 0.2288
O26 O 0.11583(16) 0.5037(6) 0.13655(15)
H31 H 0.1318 0.4198 0.1241
H32 H 0.1268 0.5977 0.1250
O27 O 0.0136(2) 0.7986(6) 0.11084(14)
H34 H 0.0328 0.8503 0.0924
O28 O 0.00729(19) 0.4026(7) 0.07893(12)
H36 H 0.0314 0.3554 0.0631
O30 O 0.15740(17) 0.3246(6) 0.51007(13)
H39 H 0.1465 0.4295 0.5065
H40 H 0.1547 0.2997 0.5368
Mn6 Mn 0.5000 0.74979(16) 0.2500
O31 O 0.26811(16) 0.2448(5) 0.57015(11)
O33 O 0.06116(16) 0.0462(5) 0.26979(11)
O29 O 0.2215(2) 0.9708(5) 0.50233(12)
H37 H 0.2309 0.9185 0.4794
H38 H 0.2352 0.9132 0.5240
Mn1_2 Mn 1.0000 0.24979(16) 0.2500
Mn2 Mn 0.97577(4) 0.53603(12) 0.35671(3)
O9 O 0.97132(15) 0.2571(5) 0.32206(11)
H7 H 0.9997 0.2061 0.3339
H8 H 0.9432 0.1926 0.3262
O10 O 0.95074(19) 0.7022(5) 0.29650(13)
H9 H 0.9501 0.8126 0.2940
H10 H 0.9534 0.6594 0.2712
O11 O 0.88417(16) 0.5037(6) 0.36345(15)
H11 H 0.8682 0.4198 0.3759
H12 H 0.8732 0.5977 0.3750
O12 O 0.9864(2) 0.7986(6) 0.38916(14)
H14 H 0.9672 0.8503 0.4076
O13 O 0.99271(19) 0.4026(7) 0.42107(12)
H16 H 0.9686 0.3554 0.4369
C17 C 0.9133(2) 0.4745(7) 0.18980(16)
C18 C 0.8505(2) 0.4231(7) 0.18907(15)
C19 C 0.8216(2) 0.3779(7) 0.14873(15)
H21 H 0.8409 0.3848 0.1221
C20 C 0.7646(2) 0.3229(7) 0.14729(15)
C21 C 0.7354(2) 0.3171(7) 0.18759(15)
H22 H 0.6968 0.2808 0.1869
C22 C 0.7632(2) 0.3644(7) 0.22818(15)
C23 C 0.8211(2) 0.4146(7) 0.22866(16)
H23 H 0.8406 0.4430 0.2560
C24 C 0.7313(2) 0.3640(7) 0.27065(14)
C25 C 0.7583(2) 0.3106(7) 0.31159(15)
H24 H 0.7964 0.2698 0.3123
C26 C 0.7291(2) 0.3170(7) 0.35168(15)
C27 C 0.6720(2) 0.3801(7) 0.35024(16)
H25 H 0.6522 0.3862 0.3767
C28 C 0.6445(2) 0.4340(7) 0.30936(16)
C29 C 0.6747(2) 0.4237(7) 0.27044(16)
H26 H 0.6562 0.4581 0.2432
C30 C 0.7592(2) 0.2606(7) 0.39529(16)
C31 C 0.5847(2) 0.5105(7) 0.30819(17)
C32 C 0.7355(2) 0.2699(7) 0.10293(16)
O16 O 0.94238(14) 0.4637(5) 0.22741(11)
O17 O 0.93403(15) 0.5203(5) 0.15311(11)
O18 O 0.76811(16) 0.2552(5) 0.07015(11)
O19 O 0.68204(17) 0.2477(6) 0.10000(12)
O20 O 0.56116(16) 0.5462(5) 0.26979(11)
O21 O 0.56065(15) 0.5426(5) 0.34449(11)
O22 O 0.72866(16) 0.2374(5) 0.42906(11)
O23 O 0.81279(15) 0.2357(5) 0.39670(11)
H33 H 0.9957 0.8643 0.1272
H35 H 0.9774 0.3419 0.0751
Mn7 Mn 0.7500 0.2500 0.0000
O32 O 0.93884(16) 0.0462(5) 0.23021(11)
Mn7_2 Mn 0.7500 0.2500 1.0000
O14_2 O 0.7215(2) 0.5292(5) 0.00233(12)
H18_2 H 0.7352 0.5868 0.0240
O15_2 O 0.65740(17) 0.1754(6) 0.01007(13)
H19_2 H 0.6465 0.0705 0.0065
H20_2 H 0.6547 0.2003 0.0368
H17_2 H 0.7309 0.5815 0.9794
O30_2 O 0.84260(17) 0.3246(6) 0.98993(13)
H39_2 H 0.8535 0.4295 0.9935
H40_2 H 0.8453 0.2997 0.9632
O31_2 O 0.73189(16) 0.2448(5) 0.92985(11)
O29_2 O 0.7785(2) 0.9708(5) 0.99767(12)
H38_2 H 0.7648 0.9132 0.9760
Mn2_2 Mn 0.47577(4) 0.03603(12) 0.35671(3)
C15_2 C 0.9153(2) 0.0105(7) 0.19181(17)
O2_2 O 0.56597(15) 0.0203(5) 0.34689(11)
O6_2 O 0.93935(15) 0.0426(5) 0.15551(11)
O10_2 O 0.45074(19) 0.2022(5) 0.29650(13)
H9_2 H 0.4501 0.3126 0.2940
H10_2 H 0.4534 0.1594 0.2712
O11_2 O 0.38417(16) 0.0037(6) 0.36345(15)
H12_2 H 0.3732 0.0977 0.3750
O12_2 O 0.4864(2) 0.2986(6) 0.38916(14)
H13_2 H 0.5043 0.3643 0.3728
H14_2 H 0.4672 0.3503 0.4076
O14_3 O 0.7785(2) 0.0292(5) 0.49767(12)
H17_3 H 0.7691 0.0815 0.5206
H18_3 H 0.7648 0.0868 0.4760
Mn4_2 Mn 0.52423(4) 0.03603(12) 0.14329(3)
C31_2 C 0.0847(2) 0.0105(7) 0.30819(17)
O17_2 O 0.43403(15) 0.0203(5) 0.15311(11)
O21_2 O 0.06065(15) 0.0426(5) 0.34449(11)
O25_2 O 0.54926(19) 0.2022(5) 0.20350(13)
H29_2 H 0.5499 0.3126 0.2060
H30_2 H 0.5466 0.1594 0.2288
O26_2 O 0.61583(16) 0.0037(6) 0.13655(15)
H32_2 H 0.6268 0.0977 0.1250
O27_2 O 0.5136(2) 0.2986(6) 0.11084(14)
H33_2 H 0.4957 0.3643 0.1272
H34_2 H 0.5328 0.3503 0.0924
Mn3_2 Mn 0.7500 0.7500 0.5000
C1_2 C 0.5867(2) 0.9745(7) 0.31020(16)
C2_2 C 0.6495(2) 0.9231(7) 0.31093(15)
C3_2 C 0.6784(2) 0.8779(7) 0.35127(15)
H1_2 H 0.6591 0.8848 0.3779
C4_2 C 0.7354(2) 0.8229(7) 0.35271(15)
C5_2 C 0.7646(2) 0.8171(7) 0.31241(15)
H2_2 H 0.8032 0.7808 0.3131
C6_2 C 0.7368(2) 0.8644(7) 0.27182(15)
C7_2 C 0.6789(2) 0.9146(7) 0.27134(16)
H3_2 H 0.6594 0.9430 0.2440
C8_2 C 0.7687(2) 0.8640(7) 0.22935(14)
C9_2 C 0.7417(2) 0.8106(7) 0.18841(15)
H4_2 H 0.7036 0.7698 0.1877
C10_2 C 0.7709(2) 0.8170(7) 0.14832(15)
C11_2 C 0.8280(2) 0.8801(7) 0.14976(16)
H5_2 H 0.8478 0.8862 0.1233
C12_2 C 0.8555(2) 0.9340(7) 0.19064(16)
C13_2 C 0.8253(2) 0.9237(7) 0.22956(16)
H6_2 H 0.8438 0.9581 0.2568
C14_2 C 0.7408(2) 0.7606(7) 0.10471(16)
C16_2 C 0.7645(2) 0.7699(7) 0.39707(16)
O1_2 O 0.55762(14) 0.9637(5) 0.27259(11)
O3_2 O 0.73189(16) 0.7552(5) 0.42985(11)
O4_2 O 0.81796(17) 0.7477(6) 0.40000(12)
O7_2 O 0.77134(16) 0.7374(5) 0.07094(11)
O8_2 O 0.68721(15) 0.7357(5) 0.10330(11)
O9_2 O 0.47132(15) 0.7571(5) 0.32206(11)
H7_2 H 0.4997 0.7061 0.3339
H8_2 H 0.4432 0.6926 0.3262
H11_2 H 0.3682 0.9198 0.3759
O13_2 O 0.49271(19) 0.9026(7) 0.42107(12)
H15_2 H 0.5226 0.8419 0.4249
H16_2 H 0.4686 0.8554 0.4369
O15_3 O 0.84260(17) 0.6754(6) 0.48993(13)
H19_3 H 0.8535 0.5705 0.4935
H20_3 H 0.8453 0.7003 0.4632
C17_2 C 0.4133(2) 0.9745(7) 0.18980(16)
C18_2 C 0.3505(2) 0.9231(7) 0.18907(15)
C19_2 C 0.3216(2) 0.8779(7) 0.14873(15)
H21_2 H 0.3409 0.8848 0.1221
C20_2 C 0.2646(2) 0.8229(7) 0.14729(15)
C21_2 C 0.2354(2) 0.8171(7) 0.18759(15)
H22_2 H 0.1968 0.7808 0.1869
C22_2 C 0.2632(2) 0.8644(7) 0.22818(15)
C23_2 C 0.3211(2) 0.9146(7) 0.22866(16)
H23_2 H 0.3406 0.9430 0.2560
C24_2 C 0.2313(2) 0.8640(7) 0.27065(14)
C25_2 C 0.2583(2) 0.8106(7) 0.31159(15)
H24_2 H 0.2964 0.7698 0.3123
C26_2 C 0.2291(2) 0.8170(7) 0.35168(15)
C27_2 C 0.1720(2) 0.8801(7) 0.35024(16)
H25_2 H 0.1522 0.8862 0.3767
C28_2 C 0.1445(2) 0.9340(7) 0.30936(16)
C29_2 C 0.1747(2) 0.9237(7) 0.27044(16)
H26_2 H 0.1562 0.9581 0.2432
C30_2 C 0.2592(2) 0.7606(7) 0.39529(16)
C32_2 C 0.2355(2) 0.7699(7) 0.10293(16)
O16_2 O 0.44238(14) 0.9637(5) 0.22741(11)
O18_2 O 0.26811(16) 0.7552(5) 0.07015(11)
O19_2 O 0.18204(17) 0.7477(6) 0.10000(12)
O22_2 O 0.22866(16) 0.7374(5) 0.42906(11)
O23_2 O 0.31279(15) 0.7357(5) 0.39670(11)
O24_2 O 0.52868(15) 0.7571(5) 0.17794(11)
H27_2 H 0.5003 0.7061 0.1661
H28_2 H 0.5568 0.6926 0.1738
H31_2 H 0.6318 0.9198 0.1241
O28_2 O 0.50729(19) 0.9026(7) 0.07893(12)
H35_2 H 0.4774 0.8419 0.0751
H36_2 H 0.5314 0.8554 0.0631
O29_3 O 0.7215(2) 0.4708(5) 0.50233(12)
H37_2 H 0.7309 0.4185 0.4794
H38_3 H 0.7352 0.4132 0.5240
O30_3 O 0.65740(17) 0.8246(6) 0.51007(13)
H39_3 H 0.6465 0.9295 0.5065
H40_3 H 0.6547 0.7997 0.5368
Mn7_3 Mn 0.2500 0.7500 0.0000
O31_3 O 0.76811(16) 0.7448(5) 0.57015(11)
Mn7_4 Mn 0.2500 0.7500 1.0000
O14_4 O 0.2215(2) 0.0292(5) 0.00233(12)
H18_4 H 0.2352 0.0868 0.0240
O15_4 O 0.15740(17) 0.6754(6) 0.01007(13)
H19_4 H 0.1465 0.5705 0.0065
H20_4 H 0.1547 0.7003 0.0368
H37_3 H 0.2691 0.4185 0.0206
O29_4 O 0.2785(2) 0.4708(5) 0.99767(12)
H38_4 H 0.2648 0.4132 0.9760
O30_4 O 0.34260(17) 0.8246(6) 0.98993(13)
H39_4 H 0.3535 0.9295 0.9935
H40_4 H 0.3453 0.7997 0.9632
O31_4 O 0.23189(16) 0.7448(5) 0.92985(11)
Mn1_3 Mn 0.0000 0.75021(16) 0.7500
Mn2_3 Mn 0.02423(4) 0.46397(12) 0.64329(3)
O9_3 O 0.02868(15) 0.7429(5) 0.67794(11)
H7_3 H 0.0003 0.7939 0.6661
H8_3 H 0.0568 0.8074 0.6738
O10_3 O 0.04926(19) 0.2978(5) 0.70350(13)
H9_3 H 0.0499 0.1874 0.7060
H10_3 H 0.0466 0.3406 0.7288
O11_3 O 0.11583(16) 0.4963(6) 0.63655(15)
H11_3 H 0.1318 0.5802 0.6241
H12_3 H 0.1268 0.4023 0.6250
O12_3 O 0.0136(2) 0.2014(6) 0.61084(14)
H14_3 H 0.0328 0.1497 0.5924
O13_3 O 0.00729(19) 0.5974(7) 0.57893(12)
H16_3 H 0.0314 0.6446 0.5631
C17_3 C 0.0867(2) 0.5255(7) 0.81020(16)
C18_3 C 0.1495(2) 0.5769(7) 0.81093(15)
C19_3 C 0.1784(2) 0.6221(7) 0.85127(15)
H21_3 H 0.1591 0.6152 0.8779
C20_3 C 0.2354(2) 0.6771(7) 0.85271(15)
C21_3 C 0.2646(2) 0.6829(7) 0.81241(15)
H22_3 H 0.3032 0.7192 0.8131
C22_3 C 0.2368(2) 0.6356(7) 0.77182(15)
C23_3 C 0.1789(2) 0.5854(7) 0.77134(16)
H23_3 H 0.1594 0.5570 0.7440
C24_3 C 0.2687(2) 0.6360(7) 0.72935(14)
C25_3 C 0.2417(2) 0.6894(7) 0.68841(15)
H24_3 H 0.2036 0.7302 0.6877
C26_3 C 0.2709(2) 0.6830(7) 0.64832(15)
C27_3 C 0.3280(2) 0.6199(7) 0.64976(16)
H25_3 H 0.3478 0.6138 0.6233
C28_3 C 0.3555(2) 0.5660(7) 0.69064(16)
C29_3 C 0.3253(2) 0.5763(7) 0.72956(16)
H26_3 H 0.3438 0.5419 0.7568
C30_3 C 0.2408(2) 0.7394(7) 0.60471(16)
C31_3 C 0.4153(2) 0.4895(7) 0.69181(17)
C32_3 C 0.2645(2) 0.7301(7) 0.89707(16)
O16_3 O 0.05762(14) 0.5363(5) 0.77259(11)
O17_3 O 0.06597(15) 0.4797(5) 0.84689(11)
O19_3 O 0.31796(17) 0.7523(6) 0.90000(12)
O20_2 O 0.43884(16) 0.4538(5) 0.73021(11)
O21_3 O 0.43935(15) 0.4574(5) 0.65551(11)
O22_3 O 0.27134(16) 0.7626(5) 0.57094(11)
O23_3 O 0.18721(15) 0.7643(5) 0.60330(11)
H33_3 H 0.0043 0.1357 0.8728
H35_3 H 0.0226 0.6581 0.9249
Mn5 Mn 0.5000 0.25021(16) 0.7500
O32_2 O 0.06116(16) 0.9538(5) 0.76979(11)
Mn1_4 Mn 1.0000 0.75021(16) 0.7500
C1_3 C 0.9133(2) 0.5255(7) 0.68980(16)
C2_3 C 0.8505(2) 0.5769(7) 0.68907(15)
C3_3 C 0.8216(2) 0.6221(7) 0.64873(15)
H1_3 H 0.8409 0.6152 0.6221
C4_3 C 0.7646(2) 0.6771(7) 0.64729(15)
C5_3 C 0.7354(2) 0.6829(7) 0.68759(15)
H2_3 H 0.6968 0.7192 0.6869
C6_3 C 0.7632(2) 0.6356(7) 0.72818(15)
C7_3 C 0.8211(2) 0.5854(7) 0.72866(16)
H3_3 H 0.8406 0.5570 0.7560
C8_3 C 0.7313(2) 0.6360(7) 0.77065(14)
C9_3 C 0.7583(2) 0.6894(7) 0.81159(15)
H4_3 H 0.7964 0.7302 0.8123
C10_3 C 0.7291(2) 0.6830(7) 0.85168(15)
C11_3 C 0.6720(2) 0.6199(7) 0.85024(16)
H5_3 H 0.6522 0.6138 0.8767
C12_3 C 0.6445(2) 0.5660(7) 0.80936(16)
C13_3 C 0.6747(2) 0.5763(7) 0.77044(16)
H6_3 H 0.6562 0.5419 0.7432
C14_3 C 0.7592(2) 0.7394(7) 0.89529(16)
C15_3 C 0.5847(2) 0.4895(7) 0.80819(17)
C16_3 C 0.7355(2) 0.7301(7) 0.60293(16)
O1_3 O 0.94238(14) 0.5363(5) 0.72741(11)
O2_3 O 0.93403(15) 0.4797(5) 0.65311(11)
O4_3 O 0.68204(17) 0.7523(6) 0.60000(12)
O5_2 O 0.56116(16) 0.4538(5) 0.76979(11)
O6_3 O 0.56065(15) 0.4574(5) 0.84449(11)
O7_3 O 0.72866(16) 0.7626(5) 0.92906(11)
O8_3 O 0.81279(15) 0.7643(5) 0.89670(11)
H13_3 H 0.9957 0.1357 0.6272
H15_3 H 0.9774 0.6581 0.5751
Mn4_3 Mn 0.97577(4) 0.46397(12) 0.85671(3)
O24_3 O 0.97132(15) 0.7429(5) 0.82206(11)
H27_3 H 0.9997 0.7939 0.8339
H28_3 H 0.9432 0.8074 0.8262
O25_3 O 0.95074(19) 0.2978(5) 0.79650(13)
H29_3 H 0.9501 0.1874 0.7940
H30_3 H 0.9534 0.3406 0.7712
O26_3 O 0.88417(16) 0.4963(6) 0.86345(15)
H31_3 H 0.8682 0.5802 0.8759
H32_3 H 0.8732 0.4023 0.8750
O27_3 O 0.9864(2) 0.2014(6) 0.88916(14)
H34_3 H 0.9672 0.1497 0.9076
O28_3 O 0.99271(19) 0.5974(7) 0.92107(12)
H36_3 H 0.9686 0.6446 0.9369
O33_2 O 0.93884(16) 0.9538(5) 0.73021(11)
C1_4 C 0.4133(2) 0.0255(7) 0.68980(16)
C2_4 C 0.3505(2) 0.0769(7) 0.68907(15)
C3_4 C 0.3216(2) 0.1221(7) 0.64873(15)
H1_4 H 0.3409 0.1152 0.6221
C4_4 C 0.2646(2) 0.1771(7) 0.64729(15)
C5_4 C 0.2354(2) 0.1829(7) 0.68759(15)
H2_4 H 0.1968 0.2192 0.6869
C6_4 C 0.2632(2) 0.1356(7) 0.72818(15)
C7_4 C 0.3211(2) 0.0854(7) 0.72866(16)
H3_4 H 0.3406 0.0570 0.7560
C8_4 C 0.2313(2) 0.1360(7) 0.77065(14)
C9_4 C 0.2583(2) 0.1894(7) 0.81159(15)
H4_4 H 0.2964 0.2302 0.8123
C10_4 C 0.2291(2) 0.1830(7) 0.85168(15)
C11_4 C 0.1720(2) 0.1199(7) 0.85024(16)
H5_4 H 0.1522 0.1138 0.8767
C12_4 C 0.1445(2) 0.0660(7) 0.80936(16)
C13_4 C 0.1747(2) 0.0763(7) 0.77044(16)
H6_4 H 0.1562 0.0419 0.7432
C14_4 C 0.2592(2) 0.2394(7) 0.89529(16)
C16_4 C 0.2355(2) 0.2301(7) 0.60293(16)
O1_4 O 0.44238(14) 0.0363(5) 0.72741(11)
O4_4 O 0.18204(17) 0.2523(6) 0.60000(12)
O7_4 O 0.22866(16) 0.2626(5) 0.92906(11)
O8_4 O 0.31279(15) 0.2643(5) 0.89670(11)
O9_4 O 0.52868(15) 0.2429(5) 0.67794(11)
H7_4 H 0.5003 0.2939 0.6661
H8_4 H 0.5568 0.3074 0.6738
H11_4 H 0.6318 0.0802 0.6241
O13_4 O 0.50729(19) 0.0974(7) 0.57893(12)
H15_4 H 0.4774 0.1581 0.5751
H16_4 H 0.5314 0.1446 0.5631
C17_4 C 0.5867(2) 0.0255(7) 0.81020(16)
C18_4 C 0.6495(2) 0.0769(7) 0.81093(15)
C19_4 C 0.6784(2) 0.1221(7) 0.85127(15)
H21_4 H 0.6591 0.1152 0.8779
C20_4 C 0.7354(2) 0.1771(7) 0.85271(15)
C21_4 C 0.7646(2) 0.1829(7) 0.81241(15)
H22_4 H 0.8032 0.2192 0.8131
C22_4 C 0.7368(2) 0.1356(7) 0.77182(15)
C23_4 C 0.6789(2) 0.0854(7) 0.77134(16)
H23_4 H 0.6594 0.0570 0.7440
C24_4 C 0.7687(2) 0.1360(7) 0.72935(14)
C25_4 C 0.7417(2) 0.1894(7) 0.68841(15)
H24_4 H 0.7036 0.2302 0.6877
C26_4 C 0.7709(2) 0.1830(7) 0.64832(15)
C27_4 C 0.8280(2) 0.1199(7) 0.64976(16)
H25_4 H 0.8478 0.1138 0.6233
C28_4 C 0.8555(2) 0.0660(7) 0.69064(16)
C29_4 C 0.8253(2) 0.0763(7) 0.72956(16)
H26_4 H 0.8438 0.0419 0.7568
C30_4 C 0.7408(2) 0.2394(7) 0.60471(16)
C32_4 C 0.7645(2) 0.2301(7) 0.89707(16)
O16_4 O 0.55762(14) 0.0363(5) 0.77259(11)
O19_4 O 0.81796(17) 0.2523(6) 0.90000(12)
O22_4 O 0.77134(16) 0.2626(5) 0.57094(11)
O23_4 O 0.68721(15) 0.2643(5) 0.60330(11)
O24_4 O 0.47132(15) 0.2429(5) 0.82206(11)
H27_4 H 0.4997 0.2939 0.8339
H28_4 H 0.4432 0.3074 0.8262
H31_4 H 0.3682 0.0802 0.8759
O28_4 O 0.49271(19) 0.0974(7) 0.92107(12)
H35_4 H 0.5226 0.1581 0.9249
H36_4 H 0.4686 0.1446 0.9369
Mn2_4 Mn 0.52423(4) 0.96397(12) 0.64329(3)
C15_4 C 0.0847(2) 0.9895(7) 0.80819(17)
O2_4 O 0.43403(15) 0.9797(5) 0.65311(11)
O6_4 O 0.06065(15) 0.9574(5) 0.84449(11)
O10_4 O 0.54926(19) 0.7978(5) 0.70350(13)
H9_4 H 0.5499 0.6874 0.7060
H10_4 H 0.5466 0.8406 0.7288
O11_4 O 0.61583(16) 0.9963(6) 0.63655(15)
H12_4 H 0.6268 0.9023 0.6250
O12_4 O 0.5136(2) 0.7014(6) 0.61084(14)
H13_4 H 0.4957 0.6357 0.6272
H14_4 H 0.5328 0.6497 0.5924
Mn4_4 Mn 0.47577(4) 0.96397(12) 0.85671(3)
C31_4 C 0.9153(2) 0.9895(7) 0.69181(17)
O17_4 O 0.56597(15) 0.9797(5) 0.84689(11)
O21_4 O 0.93935(15) 0.9574(5) 0.65551(11)
O25_4 O 0.45074(19) 0.7978(5) 0.79650(13)
H29_4 H 0.4501 0.6874 0.7940
H30_4 H 0.4534 0.8406 0.7712
O26_4 O 0.38417(16) 0.9963(6) 0.86345(15)
H32_4 H 0.3732 0.9023 0.8750
O27_4 O 0.4864(2) 0.7014(6) 0.88916(14)
H33_4 H 0.5043 0.6357 0.8728
H34_4 H 0.4672 0.6497 0.9076
H37_4 H 0.7691 0.9185 0.0206
H17_4 H 0.2309 0.0815 0.9794
loop_
_geom_bond_atom_site_label_1
_geom_bond_atom_site_label_2
_geom_bond_site_symmetry_1
_geom_bond_site_symmetry_2
Mn1 O1 1_555 1_555
Mn3 O3 1_555 1_555
C1 C2 1_555 1_555
C2 C3 1_555 1_555
C3 H1 1_555 1_555
C4 C3 1_555 1_555
C5 C4 1_555 1_555
H2 C5 1_555 1_555
C6 C5 1_555 1_555
C7 C2 1_555 1_555
H3 C7 1_555 1_555
C8 C6 1_555 1_555
C9 C8 1_555 1_555
H4 C9 1_555 1_555
C10 C9 1_555 1_555
C11 C10 1_555 1_555
H5 C11 1_555 1_555
C12 C11 1_555 1_555
C13 C8 1_555 1_555
H6 C13 1_555 1_555
C14 C10 1_555 1_555
C15 C12 1_555 1_555
C16 C4 1_555 1_555
O1 C1 1_555 1_555
O2 C1 1_555 1_555
O3 C16 1_555 1_555
O4 C16 1_555 1_555
O5 C15 1_555 1_555
O6 C15 1_555 1_555
O7 C14 1_555 1_555
O8 C14 1_555 1_555
O14 Mn3 1_555 1_555
H17 O14 1_555 1_555
H18 O14 1_555 1_555
O15 Mn3 1_555 1_555
H19 O15 1_555 1_555
H20 O15 1_555 1_555
O24 Mn1 1_555 1_555
H27 O24 1_555 1_555
H28 O24 1_555 1_555
O25 Mn4 1_555 1_555
H29 O25 1_555 1_555
H30 O25 1_555 1_555
O26 Mn4 1_555 1_555
H31 O26 1_555 1_555
H32 O26 1_555 1_555
O27 Mn4 1_555 1_555
H34 O27 1_555 1_555
O28 Mn4 1_555 1_555
H36 O28 1_555 1_555
O30 Mn3 1_555 1_555
H39 O30 1_555 1_555
H40 O30 1_555 1_555
Mn6 O5 1_555 1_555
O31 Mn3 1_555 1_555
O33 Mn1 1_555 1_555
C6 C7 1_555 1_555
C12 C13 1_555 1_555
Mn4 O24 1_555 1_555
H37 O29 1_555 1_555
H38 O29 1_555 1_555
O9 Mn1_2 1_555 1_555
H7 O9 1_555 1_555
H8 O9 1_555 1_555
O10 Mn2 1_555 1_555
H9 O10 1_555 1_555
H10 O10 1_555 1_555
O11 Mn2 1_555 1_555
H11 O11 1_555 1_555
H12 O11 1_555 1_555
O12 Mn2 1_555 1_555
H14 O12 1_555 1_555
O13 Mn2 1_555 1_555
H16 O13 1_555 1_555
C17 C18 1_555 1_555
C18 C19 1_555 1_555
C19 H21 1_555 1_555
C20 C19 1_555 1_555
C21 C20 1_555 1_555
H22 C21 1_555 1_555
C22 C21 1_555 1_555
C23 C18 1_555 1_555
H23 C23 1_555 1_555
C24 C22 1_555 1_555
C25 C24 1_555 1_555
H24 C25 1_555 1_555
C26 C25 1_555 1_555
C27 C26 1_555 1_555
H25 C27 1_555 1_555
C28 C27 1_555 1_555
C29 C24 1_555 1_555
H26 C29 1_555 1_555
C30 C26 1_555 1_555
C31 C28 1_555 1_555
C32 C20 1_555 1_555
O16 Mn1_2 1_555 1_555
O17 C17 1_555 1_555
O18 C32 1_555 1_555
O19 C32 1_555 1_555
O20 C31 1_555 1_555
O21 C31 1_555 1_555
O22 C30 1_555 1_555
O23 C30 1_555 1_555
Mn6 O20 1_555 1_555
Mn7 O18 1_555 1_555
O32 Mn1_2 1_555 1_555
Mn2 O9 1_555 1_555
C17 O16 1_555 1_555
C22 C23 1_555 1_555
C28 C29 1_555 1_555
O14_2 Mn7 1_555 1_555
H18_2 O14_2 1_555 1_555
O15_2 Mn7 1_555 1_555
H19_2 O15_2 1_555 1_555
H20_2 O15_2 1_555 1_555
O30_2 Mn7_2 1_555 1_555
H39_2 O30_2 1_555 1_555
H40_2 O30_2 1_555 1_555
O31_2 Mn7_2 1_555 1_555
H38_2 O29_2 1_555 1_555
Mn2_2 O2_2 1_555 1_555
O32 C15_2 1_555 1_555
O6_2 C15_2 1_555 1_555
O10_2 Mn2_2 1_555 1_555
H9_2 O10_2 1_555 1_555
H10_2 O10_2 1_555 1_555
O11_2 Mn2_2 1_555 1_555
H12_2 O11_2 1_555 1_555
O12_2 Mn2_2 1_555 1_555
H13_2 O12_2 1_555 1_555
H14_2 O12_2 1_555 1_555
H17_3 O14_3 1_555 1_555
H18_3 O14_3 1_555 1_555
Mn4_2 O17_2 1_555 1_555
O33 C31_2 1_555 1_555
O21_2 C31_2 1_555 1_555
O25_2 Mn4_2 1_555 1_555
H29_2 O25_2 1_555 1_555
H30_2 O25_2 1_555 1_555
O26_2 Mn4_2 1_555 1_555
H32_2 O26_2 1_555 1_555
O27_2 Mn4_2 1_555 1_555
H33_2 O27_2 1_555 1_555
H34_2 O27_2 1_555 1_555
Mn6 O1_2 1_555 1_555
Mn3_2 O3_2 1_555 1_555
C1_2 C2_2 1_555 1_555
C2_2 C3_2 1_555 1_555
C3_2 H1_2 1_555 1_555
C4_2 C3_2 1_555 1_555
C5_2 C4_2 1_555 1_555
H2_2 C5_2 1_555 1_555
C6_2 C5_2 1_555 1_555
C7_2 C2_2 1_555 1_555
H3_2 C7_2 1_555 1_555
C8_2 C6_2 1_555 1_555
C9_2 C8_2 1_555 1_555
H4_2 C9_2 1_555 1_555
C10_2 C9_2 1_555 1_555
C11_2 C10_2 1_555 1_555
H5_2 C11_2 1_555 1_555
C12_2 C11_2 1_555 1_555
C13_2 C8_2 1_555 1_555
H6_2 C13_2 1_555 1_555
C14_2 C10_2 1_555 1_555
C16_2 C4_2 1_555 1_555
O1_2 C1_2 1_555 1_555
O3_2 C16_2 1_555 1_555
O4_2 C16_2 1_555 1_555
O7_2 C14_2 1_555 1_555
O8_2 C14_2 1_555 1_555
O9_2 Mn6 1_555 1_555
H7_2 O9_2 1_555 1_555
H8_2 O9_2 1_555 1_555
H15_2 O13_2 1_555 1_555
H16_2 O13_2 1_555 1_555
O15_3 Mn3_2 1_555 1_555
H19_3 O15_3 1_555 1_555
H20_3 O15_3 1_555 1_555
C17_2 C18_2 1_555 1_555
C18_2 C19_2 1_555 1_555
C19_2 H21_2 1_555 1_555
C20_2 C19_2 1_555 1_555
C21_2 C20_2 1_555 1_555
H22_2 C21_2 1_555 1_555
C22_2 C21_2 1_555 1_555
C23_2 C18_2 1_555 1_555
H23_2 C23_2 1_555 1_555
C24_2 C22_2 1_555 1_555
C25_2 C24_2 1_555 1_555
H24_2 C25_2 1_555 1_555
C26_2 C25_2 1_555 1_555
C27_2 C26_2 1_555 1_555
H25_2 C27_2 1_555 1_555
C28_2 C27_2 1_555 1_555
C29_2 C24_2 1_555 1_555
H26_2 C29_2 1_555 1_555
C30_2 C26_2 1_555 1_555
C32_2 C20_2 1_555 1_555
O16_2 Mn6 1_555 1_555
O18_2 C32_2 1_555 1_555
O19_2 C32_2 1_555 1_555
O22_2 C30_2 1_555 1_555
O23_2 C30_2 1_555 1_555
O24_2 Mn6 1_555 1_555
H27_2 O24_2 1_555 1_555
H28_2 O24_2 1_555 1_555
H35_2 O28_2 1_555 1_555
H36_2 O28_2 1_555 1_555
O29_3 Mn3_2 1_555 1_555
H37_2 O29_3 1_555 1_555
H38_3 O29_3 1_555 1_555
O30_3 Mn3_2 1_555 1_555
H39_3 O30_3 1_555 1_555
H40_3 O30_3 1_555 1_555
Mn7_3 O18_2 1_555 1_555
O31_3 Mn3_2 1_555 1_555
C6_2 C7_2 1_555 1_555
C12_2 C13_2 1_555 1_555
C17_2 O16_2 1_555 1_555
C22_2 C23_2 1_555 1_555
C28_2 C29_2 1_555 1_555
H18_4 O14_4 1_555 1_555
O15_4 Mn7_3 1_555 1_555
H19_4 O15_4 1_555 1_555
H20_4 O15_4 1_555 1_555
O29_4 Mn7_4 1_555 1_555
H38_4 O29_4 1_555 1_555
O30_4 Mn7_4 1_555 1_555
H39_4 O30_4 1_555 1_555
H40_4 O30_4 1_555 1_555
O31_4 Mn7_4 1_555 1_555
O9_3 Mn1_3 1_555 1_555
H7_3 O9_3 1_555 1_555
H8_3 O9_3 1_555 1_555
O10_3 Mn2_3 1_555 1_555
H9_3 O10_3 1_555 1_555
H10_3 O10_3 1_555 1_555
O11_3 Mn2_3 1_555 1_555
H11_3 O11_3 1_555 1_555
H12_3 O11_3 1_555 1_555
O12_3 Mn2_3 1_555 1_555
H14_3 O12_3 1_555 1_555
O13_3 Mn2_3 1_555 1_555
H16_3 O13_3 1_555 1_555
C17_3 C18_3 1_555 1_555
C18_3 C19_3 1_555 1_555
C19_3 H21_3 1_555 1_555
C20_3 C19_3 1_555 1_555
C21_3 C20_3 1_555 1_555
H22_3 C21_3 1_555 1_555
C22_3 C21_3 1_555 1_555
C23_3 C18_3 1_555 1_555
H23_3 C23_3 1_555 1_555
C24_3 C22_3 1_555 1_555
C25_3 C24_3 1_555 1_555
H24_3 C25_3 1_555 1_555
C26_3 C25_3 1_555 1_555
C27_3 C26_3 1_555 1_555
H25_3 C27_3 1_555 1_555
C28_3 C27_3 1_555 1_555
C29_3 C24_3 1_555 1_555
H26_3 C29_3 1_555 1_555
C30_3 C26_3 1_555 1_555
C31_3 C28_3 1_555 1_555
C32_3 C20_3 1_555 1_555
O16_3 Mn1_3 1_555 1_555
O17_3 C17_3 1_555 1_555
O31_4 C32_3 1_555 1_555
O19_3 C32_3 1_555 1_555
O20_2 C31_3 1_555 1_555
O21_3 C31_3 1_555 1_555
O22_3 C30_3 1_555 1_555
O23_3 C30_3 1_555 1_555
Mn5 O20_2 1_555 1_555
O32_2 Mn1_3 1_555 1_555
Mn2_3 O9_3 1_555 1_555
C17_3 O16_3 1_555 1_555
C22_3 C23_3 1_555 1_555
C28_3 C29_3 1_555 1_555
Mn1_4 O1_3 1_555 1_555
C1_3 C2_3 1_555 1_555
C2_3 C3_3 1_555 1_555
C3_3 H1_3 1_555 1_555
C4_3 C3_3 1_555 1_555
C5_3 C4_3 1_555 1_555
H2_3 C5_3 1_555 1_555
C6_3 C5_3 1_555 1_555
C7_3 C2_3 1_555 1_555
H3_3 C7_3 1_555 1_555
C8_3 C6_3 1_555 1_555
C9_3 C8_3 1_555 1_555
H4_3 C9_3 1_555 1_555
C10_3 C9_3 1_555 1_555
C11_3 C10_3 1_555 1_555
H5_3 C11_3 1_555 1_555
C12_3 C11_3 1_555 1_555
C13_3 C8_3 1_555 1_555
H6_3 C13_3 1_555 1_555
C14_3 C10_3 1_555 1_555
C15_3 C12_3 1_555 1_555
C16_3 C4_3 1_555 1_555
O1_3 C1_3 1_555 1_555
O2_3 C1_3 1_555 1_555
O31_3 C16_3 1_555 1_555
O4_3 C16_3 1_555 1_555
O5_2 C15_3 1_555 1_555
O6_3 C15_3 1_555 1_555
O7_3 C14_3 1_555 1_555
O8_3 C14_3 1_555 1_555
O24_3 Mn1_4 1_555 1_555
H27_3 O24_3 1_555 1_555
H28_3 O24_3 1_555 1_555
O25_3 Mn4_3 1_555 1_555
H29_3 O25_3 1_555 1_555
H30_3 O25_3 1_555 1_555
O26_3 Mn4_3 1_555 1_555
H31_3 O26_3 1_555 1_555
H32_3 O26_3 1_555 1_555
O27_3 Mn4_3 1_555 1_555
H34_3 O27_3 1_555 1_555
O28_3 Mn4_3 1_555 1_555
H36_3 O28_3 1_555 1_555
Mn5 O5_2 1_555 1_555
O33_2 Mn1_4 1_555 1_555
C6_3 C7_3 1_555 1_555
C12_3 C13_3 1_555 1_555
Mn4_3 O24_3 1_555 1_555
Mn5 O1_4 1_555 1_555
C1_4 C2_4 1_555 1_555
C2_4 C3_4 1_555 1_555
C3_4 H1_4 1_555 1_555
C4_4 C3_4 1_555 1_555
C5_4 C4_4 1_555 1_555
H2_4 C5_4 1_555 1_555
C6_4 C5_4 1_555 1_555
C7_4 C2_4 1_555 1_555
H3_4 C7_4 1_555 1_555
C8_4 C6_4 1_555 1_555
C9_4 C8_4 1_555 1_555
H4_4 C9_4 1_555 1_555
C10_4 C9_4 1_555 1_555
C11_4 C10_4 1_555 1_555
H5_4 C11_4 1_555 1_555
C12_4 C11_4 1_555 1_555
C13_4 C8_4 1_555 1_555
H6_4 C13_4 1_555 1_555
C14_4 C10_4 1_555 1_555
C16_4 C4_4 1_555 1_555
O1_4 C1_4 1_555 1_555
O31 C16_4 1_555 1_555
O4_4 C16_4 1_555 1_555
O7_4 C14_4 1_555 1_555
O8_4 C14_4 1_555 1_555
O9_4 Mn5 1_555 1_555
H7_4 O9_4 1_555 1_555
H8_4 O9_4 1_555 1_555
H15_4 O13_4 1_555 1_555
H16_4 O13_4 1_555 1_555
C17_4 C18_4 1_555 1_555
C18_4 C19_4 1_555 1_555
C19_4 H21_4 1_555 1_555
C20_4 C19_4 1_555 1_555
C21_4 C20_4 1_555 1_555
H22_4 C21_4 1_555 1_555
C22_4 C21_4 1_555 1_555
C23_4 C18_4 1_555 1_555
H23_4 C23_4 1_555 1_555
C24_4 C22_4 1_555 1_555
C25_4 C24_4 1_555 1_555
H24_4 C25_4 1_555 1_555
C26_4 C25_4 1_555 1_555
C27_4 C26_4 1_555 1_555
H25_4 C27_4 1_555 1_555
C28_4 C27_4 1_555 1_555
C29_4 C24_4 1_555 1_555
H26_4 C29_4 1_555 1_555
C30_4 C26_4 1_555 1_555
C32_4 C20_4 1_555 1_555
O16_4 Mn5 1_555 1_555
O31_2 C32_4 1_555 1_555
O19_4 C32_4 1_555 1_555
O22_4 C30_4 1_555 1_555
O23_4 C30_4 1_555 1_555
O24_4 Mn5 1_555 1_555
H27_4 O24_4 1_555 1_555
H28_4 O24_4 1_555 1_555
H35_4 O28_4 1_555 1_555
H36_4 O28_4 1_555 1_555
C6_4 C7_4 1_555 1_555
C12_4 C13_4 1_555 1_555
C17_4 O16_4 1_555 1_555
C22_4 C23_4 1_555 1_555
C28_4 C29_4 1_555 1_555
Mn2_4 O2_4 1_555 1_555
O32_2 C15_4 1_555 1_555
O6_4 C15_4 1_555 1_555
O10_4 Mn2_4 1_555 1_555
H9_4 O10_4 1_555 1_555
H10_4 O10_4 1_555 1_555
O11_4 Mn2_4 1_555 1_555
H12_4 O11_4 1_555 1_555
O12_4 Mn2_4 1_555 1_555
H13_4 O12_4 1_555 1_555
H14_4 O12_4 1_555 1_555
Mn4_4 O17_4 1_555 1_555
O33_2 C31_4 1_555 1_555
O21_4 C31_4 1_555 1_555
O25_4 Mn4_4 1_555 1_555
H29_4 O25_4 1_555 1_555
H30_4 O25_4 1_555 1_555
O26_4 Mn4_4 1_555 1_555
H32_4 O26_4 1_555 1_555
O27_4 Mn4_4 1_555 1_555
H33_4 O27_4 1_555 1_555
H34_4 O27_4 1_555 1_555

#END
