
###############################################################################
#
# This file contains modified crystal structure data generated from the
# MOF subset of the Cambridge Structural Database (CSD) v543 
# hosted by the Cambridge Crystallographic Data Centre (CCDC).
#
# This work is licensed under the Creative Commons
# Attribution-NonCommercial-ShareAlike 4.0 International License.
# To view a copy of this license, visit
# http://creativecommons.org/licenses/by-nc-sa/4.0/
# or send a letter to
# Creative Commons, PO Box 1866, Mountain View, CA 94042, USA.
#
# CIF created using the CSD Python API on 29 September 2022
# The structure has been converted into the P1 space group
# The structure has a 3D framework
# The original CSD entry ALOLES is in the monoclinic crystal system
# The framework has been calculated to contain at least 10.0% void space
# The void calculation uses a probe of radius 1.32A, grid spacing 0.4
# The framework is charged, counterions have been retained in the structure
# H atom positions have been added when not included in the experimental data
# Generated hydrogen atom positions removed from atoms on special positions
#
###############################################################################

data_ALOLES
_chemical_formula_moiety         '(C144 H256 Bi21 K8 N20 O184 2+)n'
_symmetry_cell_setting           triclinic
_symmetry_space_group_name_H-M   'P 1'
_symmetry_Int_Tables_number      1
_space_group_name_Hall           'P 1'
loop_
_symmetry_equiv_pos_site_id
_symmetry_equiv_pos_as_xyz
1 x,y,z
_cell_length_a                   28.961(6)
_cell_length_b                   9.6050(19)
_cell_length_c                   28.086(6)
_cell_angle_alpha                90
_cell_angle_beta                 91.17(3)
_cell_angle_gamma                90
_cell_volume                     7811.07
loop_
_atom_site_label
_atom_site_type_symbol
_atom_site_fract_x
_atom_site_fract_y
_atom_site_fract_z
O5 O 0.2083(3) 0.1915(10) 0.0636(3)
O6 O 0.1964(5) 0.2496(12) 0.1375(4)
C5 C 0.2117(5) 0.0154(16) 0.1251(5)
H4 H 0.2368 0.0167 0.1485
C6 C 0.2057(4) 0.1565(14) 0.1055(5)
Bi7 Bi 0.253562(14) 0.04828(5) 0.997659(17)
Bi1 Bi 0.099649(13) 0.58214(5) 0.021549(16)
Bi2 Bi 0.246438(14) 0.45172(5) 0.002341(17)
Bi3 Bi 0.011058(16) 0.59089(7) 0.144200(19)
O1 O 0.2658(4) 0.5491(11) 0.0897(4)
O2 O 0.2201(3) 0.6485(11) 0.0364(3)
O3 O 0.1429(3) 0.8525(12) 0.0655(4)
O4 O 0.1863(3) 0.9380(10) 0.0085(3)
O7 O 0.2634(3) 0.9398(9) 0.0635(3)
O8 O 0.0904(3) 0.5793(10) 0.1102(3)
O9 O 0.1562(3) 0.4728(11) 0.1019(4)
O10 O 0.0538(4) 0.7664(13) 0.1856(4)
O11 O 0.1230(4) 0.7851(15) 0.2162(6)
O12 O 0.0468(3) 0.4496(13) 0.3215(4)
O13 O 0.0427(3) 0.6639(14) 0.2942(4)
O14 O 0.0500(3) 0.4897(11) 0.1978(3)
O21 O 0.0702(3) 0.3827(10) 0.0316(3)
O22 O 0.0169(4) 0.3616(16) 0.1070(4)
C1 C 0.2395(4) 0.6476(14) 0.0787(5)
C2 C 0.2284(5) 0.7626(14) 0.1106(5)
H1 H 0.2528 0.7703 0.1346
H2 H 0.2001 0.7401 0.1268
C3 C 0.2224(4) 0.9027(14) 0.0865(5)
C4 C 0.1807(4) 0.8959(13) 0.0519(5)
H3 H 0.1838 0.9890 0.1414
C7 C 0.1258(4) 0.5162(15) 0.1275(5)
C8 C 0.1310(4) 0.4955(18) 0.1804(5)
H5 H 0.1600 0.5375 0.1909
H6 H 0.1333 0.3964 0.1867
C9 C 0.0918(4) 0.5559(16) 0.2110(5)
C10 C 0.0904(5) 0.7114(19) 0.2053(5)
C11 C 0.1021(4) 0.521(2) 0.2627(5)
H7 H 0.1282 0.5769 0.2737
H8 H 0.1110 0.4242 0.2650
C12 C 0.0616(5) 0.547(2) 0.2953(6)
H9 H 0.1210 0.1625 0.0220
H12 H 0.0345 0.1336 0.0224
O28 O 0.0239(3) 0.6453(10) 0.0371(3)
C24 C 0.0176(4) 0.7474(13) 0.0079(5)
O47 O 0.3075(3) 0.2657(10) 0.0396(3)
O56 O 0.0670(3) 0.6839(10) 0.4062(3)
H25 H 0.0426884 0.308803 0.12228
H29 H 0.0127488 0.33867 0.409569
O15 O 0.1605(3) 0.4204(10) 0.9909(3)
O16 O 0.1925(3) 0.2343(10) 0.9604(3)
O17 O 0.0729(3) 0.5095(10) 0.9484(3)
O18 O 0.0670(3) 0.3161(10) 0.9062(3)
C13 C 0.1594(4) 0.2936(15) 0.9804(4)
C14 C 0.1166(4) 0.2069(14) 0.9913(5)
H10 H 0.1134 0.1340 0.9675
C15 C 0.0708(3) 0.2948(14) 0.9917(4)
C16 C 0.0688(3) 0.3765(15) 0.9439(5)
C17 C 0.0309(4) 0.1883(15) 0.9935(5)
H11 H 0.0336 0.1251 0.9667
O23 O 0.1530(3) 0.7235(11) 0.9500(4)
O29 O 0.0476(3) 0.7892(10) 0.9820(3)
O31 O 0.2342(4) 0.9509(11) 0.9103(4)
O32 O 0.2799(3) 0.8515(11) 0.9636(3)
O33 O 0.3571(3) 0.6475(12) 0.9345(4)
O34 O 0.3137(3) 0.5620(10) 0.9915(3)
O35 O 0.2917(3) 0.3085(10) 0.9364(3)
O36 O 0.3036(5) 0.2504(12) 0.8625(4)
O37 O 0.2366(3) 0.5602(9) 0.9365(3)
C25 C 0.2605(4) 0.8524(14) 0.9213(5)
C26 C 0.2716(5) 0.7374(14) 0.8894(5)
H17 H 0.2472 0.7297 0.8654
H18 H 0.2999 0.7599 0.8732
C27 C 0.2776(4) 0.5973(14) 0.9135(5)
C28 C 0.3193(4) 0.6041(13) 0.9481(5)
C29 C 0.2883(5) 0.4846(16) 0.8749(5)
H19 H 0.3162 0.5110 0.8586
H20 H 0.2632 0.4833 0.8515
C30 C 0.2943(4) 0.3435(14) 0.8945(5)
O20 O 0.9524(3) 0.2108(10) 0.0180(3)
O24 O 0.8395(3) 0.5796(10) 0.0091(3)
O25 O 0.8075(3) 0.7657(10) 0.0396(3)
O26 O 0.9271(3) 0.4905(10) 0.0516(3)
O27 O 0.9330(3) 0.6839(10) 0.0938(3)
C19 C 0.8406(4) 0.7064(15) 0.0196(4)
C20 C 0.8834(4) 0.7931(14) 0.0087(5)
H14 H 0.8866 0.8660 0.0325
C21 C 0.9292(3) 0.7052(14) 0.0083(4)
C22 C 0.9312(3) 0.6235(15) 0.0561(5)
C23 C 0.9691(4) 0.8117(15) 0.0065(5)
H15 H 0.9664 0.8749 0.0333
Bi6 Bi 0.988942(16) 0.59089(7) 0.355800(19)
O38 O 0.9096(3) 0.5793(10) 0.3898(3)
O39 O 0.8438(3) 0.4728(11) 0.3981(4)
O40 O 0.9462(4) 0.7664(13) 0.3144(4)
O41 O 0.8770(4) 0.7851(15) 0.2838(6)
O42 O 0.9532(3) 0.4496(13) 0.1785(4)
O43 O 0.9573(3) 0.6639(14) 0.2058(4)
O44 O 0.9500(3) 0.4897(11) 0.3022(3)
C31 C 0.8742(4) 0.5162(15) 0.3725(5)
C32 C 0.8690(4) 0.4955(18) 0.3196(5)
H21 H 0.8400 0.5375 0.3091
H22 H 0.8667 0.3964 0.3133
C33 C 0.9082(4) 0.5559(16) 0.2890(5)
C34 C 0.9096(5) 0.7114(19) 0.2947(5)
C35 C 0.8979(4) 0.521(2) 0.2373(5)
H23 H 0.8718 0.5769 0.2263
H24 H 0.8890 0.4242 0.2350
C36 C 0.9384(5) 0.547(2) 0.2047(6)
O45 O 0.8470(3) 0.2765(11) 0.0500(4)
O46 O 0.9831(4) 0.3616(16) 0.3930(4)
Bi10 Bi 0.746438(14) 0.95172(5) 0.002341(17)
O52 O 0.6863(3) 0.4380(10) 0.0085(3)
O53 O 0.7083(3) 0.6915(10) 0.0636(3)
O54 O 0.7634(3) 0.4398(9) 0.0635(3)
Bi11 Bi 0.900351(13) 0.58214(5) 0.478451(16)
H26 H 0.987538 0.309989 0.111092
H30 H 0.957848 0.362483 0.416389
O19 O 0.9761(3) 0.3547(10) 0.9629(3)
C18 C 0.9824(4) 0.2526(13) 0.9921(5)
O30 O 0.9298(3) 0.6173(10) 0.9684(3)
H13 H 0.8790 0.8375 0.9780
H16 H 0.9655 0.8664 0.9776
Bi4 Bi 0.900351(13) 0.41786(5) 0.978451(16)
Bi5 Bi 0.753562(14) 0.54828(5) 0.997659(17)
Bi9 Bi 0.988942(16) 0.40911(7) 0.855800(19)
O48 O 0.9096(3) 0.4207(10) 0.8898(3)
O49 O 0.8438(3) 0.5272(11) 0.8981(4)
O50 O 0.7342(4) 0.4509(11) 0.9103(4)
O51 O 0.7799(3) 0.3515(11) 0.9636(3)
O55 O 0.6925(3) 0.7343(10) 0.9604(3)
Bi1_2 Bi 0.599649(13) 0.08214(5) 0.021549(16)
Bi3_2 Bi 0.511058(16) 0.09089(7) 0.144200(19)
O1_2 O 0.7658(4) 0.0491(11) 0.0897(4)
O2_2 O 0.7201(3) 0.1485(11) 0.0364(3)
O3_2 O 0.6429(3) 0.3525(12) 0.0655(4)
O6_2 O 0.6964(5) 0.7496(12) 0.1375(4)
O8_2 O 0.5904(3) 0.0793(10) 0.1102(3)
O10_2 O 0.5538(4) 0.2664(13) 0.1856(4)
O11_2 O 0.6230(4) 0.2851(15) 0.2162(6)
O13_2 O 0.5427(3) 0.1639(14) 0.2942(4)
C1_2 C 0.7395(4) 0.1476(14) 0.0787(5)
C2_2 C 0.7284(5) 0.2626(14) 0.1106(5)
H1_2 H 0.7528 0.2703 0.1346
H2_2 H 0.7001 0.2401 0.1268
C3_2 C 0.7224(4) 0.4027(14) 0.0865(5)
C4_2 C 0.6807(4) 0.3959(13) 0.0519(5)
C5_2 C 0.7117(5) 0.5154(16) 0.1251(5)
H3_2 H 0.6838 0.4890 0.1414
H4_2 H 0.7368 0.5167 0.1485
C6_2 C 0.7057(4) 0.6565(14) 0.1055(5)
C7_2 C 0.6258(4) 0.0162(15) 0.1275(5)
H5_2 H 0.6600 0.0375 0.1909
C9_2 C 0.5918(4) 0.0559(16) 0.2110(5)
C10_2 C 0.5904(5) 0.2114(19) 0.2053(5)
C11_2 C 0.6021(4) 0.021(2) 0.2627(5)
H7_2 H 0.6282 0.0769 0.2737
C12_2 C 0.5616(5) 0.047(2) 0.2953(6)
O24_2 O 0.3395(3) 0.0796(10) 0.0091(3)
O27_2 O 0.4330(3) 0.1839(10) 0.0938(3)
O28_2 O 0.5239(3) 0.1453(10) 0.0371(3)
C19_2 C 0.3406(4) 0.2064(15) 0.0196(4)
C20_2 C 0.3834(4) 0.2931(14) 0.0087(5)
H14_2 H 0.3866 0.3660 0.0325
C21_2 C 0.4292(3) 0.2052(14) 0.0083(4)
C22_2 C 0.4312(3) 0.1235(15) 0.0561(5)
C23_2 C 0.4691(4) 0.3117(15) 0.0065(5)
H15_2 H 0.4664 0.3749 0.0333
C24_2 C 0.5176(4) 0.2474(13) 0.0079(5)
Bi6_2 Bi 0.488942(16) 0.09089(7) 0.355800(19)
O38_2 O 0.4096(3) 0.0793(10) 0.3898(3)
O40_2 O 0.4462(4) 0.2664(13) 0.3144(4)
O41_2 O 0.3770(4) 0.2851(15) 0.2838(6)
O43_2 O 0.4573(3) 0.1639(14) 0.2058(4)
C31_2 C 0.3742(4) 0.0162(15) 0.3725(5)
H21_2 H 0.3400 0.0375 0.3091
C33_2 C 0.4082(4) 0.0559(16) 0.2890(5)
C34_2 C 0.4096(5) 0.2114(19) 0.2947(5)
C35_2 C 0.3979(4) 0.021(2) 0.2373(5)
H23_2 H 0.3718 0.0769 0.2263
C36_2 C 0.4384(5) 0.047(2) 0.2047(6)
O56_2 O 0.5670(3) 0.1839(10) 0.4062(3)
Bi11_2 Bi 0.400351(13) 0.08214(5) 0.478451(16)
O17_2 O 0.5729(3) 0.0095(10) 0.9484(3)
O23_2 O 0.6530(3) 0.2235(11) 0.9500(4)
O29_2 O 0.5476(3) 0.2892(10) 0.9820(3)
O30_2 O 0.4298(3) 0.1173(10) 0.9684(3)
H13_2 H 0.3790 0.3375 0.9780
H16_2 H 0.4655 0.3664 0.9776
O33_2 O 0.8571(3) 0.1475(12) 0.9345(4)
O34_2 O 0.8137(3) 0.0620(10) 0.9915(3)
O37_2 O 0.7366(3) 0.0602(9) 0.9365(3)
C25_2 C 0.7605(4) 0.3524(14) 0.9213(5)
C26_2 C 0.7716(5) 0.2374(14) 0.8894(5)
H17_2 H 0.7472 0.2297 0.8654
H18_2 H 0.7999 0.2599 0.8732
C27_2 C 0.7776(4) 0.0973(14) 0.9135(5)
C28_2 C 0.8193(4) 0.1041(13) 0.9481(5)
H19_2 H 0.8162 0.0110 0.8586
O49_2 O 0.3438(3) 0.0272(11) 0.8981(4)
O9_2 O 0.6562(3) 0.9728(11) 0.1019(4)
O12_2 O 0.5468(3) 0.9496(13) 0.3215(4)
O14_2 O 0.5500(3) 0.9897(11) 0.1978(3)
O20_2 O 0.4524(3) 0.7108(10) 0.0180(3)
O21_2 O 0.5702(3) 0.8827(10) 0.0316(3)
O22_2 O 0.5169(4) 0.8616(16) 0.1070(4)
C8_2 C 0.6310(4) 0.9955(18) 0.1804(5)
H6_2 H 0.6333 0.8964 0.1867
H8_2 H 0.6110 0.9242 0.2650
H9_2 H 0.6210 0.6625 0.0220
H12_2 H 0.5345 0.6336 0.0224
O26_2 O 0.4271(3) 0.9905(10) 0.0516(3)
O39_2 O 0.3438(3) 0.9728(11) 0.3981(4)
O42_2 O 0.4532(3) 0.9496(13) 0.1785(4)
O44_2 O 0.4500(3) 0.9897(11) 0.3022(3)
C32_2 C 0.3690(4) 0.9955(18) 0.3196(5)
H22_2 H 0.3667 0.8964 0.3133
H24_2 H 0.3890 0.9242 0.2350
O45_2 O 0.3470(3) 0.7765(11) 0.0500(4)
O46_2 O 0.4831(4) 0.8616(16) 0.3930(4)
O15_2 O 0.6605(3) 0.9204(10) 0.9909(3)
O18_2 O 0.5670(3) 0.8161(10) 0.9062(3)
O19_2 O 0.4761(3) 0.8547(10) 0.9629(3)
C13_2 C 0.6594(4) 0.7936(15) 0.9804(4)
C14_2 C 0.6166(4) 0.7069(14) 0.9913(5)
H10_2 H 0.6134 0.6340 0.9675
C15_2 C 0.5708(3) 0.7948(14) 0.9917(4)
C16_2 C 0.5688(3) 0.8765(15) 0.9439(5)
C17_2 C 0.5309(4) 0.6883(15) 0.9935(5)
H11_2 H 0.5336 0.6251 0.9667
C18_2 C 0.4824(4) 0.7526(13) 0.9921(5)
Bi4_2 Bi 0.400351(13) 0.91786(5) 0.978451(16)
O35_2 O 0.7917(3) 0.8085(10) 0.9364(3)
O36_2 O 0.8036(5) 0.7504(12) 0.8625(4)
C29_2 C 0.7883(5) 0.9846(16) 0.8749(5)
H20_2 H 0.7632 0.9833 0.8515
C30_2 C 0.7943(4) 0.8435(14) 0.8945(5)
Bi9_2 Bi 0.488942(16) 0.90911(7) 0.855800(19)
O48_2 O 0.4096(3) 0.9207(10) 0.8898(3)
Bi1_3 Bi 0.099649(13) 0.41786(5) 0.521549(16)
Bi2_2 Bi 0.246438(14) 0.54828(5) 0.502341(17)
Bi3_3 Bi 0.011058(16) 0.40911(7) 0.644200(19)
O1_3 O 0.2658(4) 0.4509(11) 0.5897(4)
O2_3 O 0.2201(3) 0.3515(11) 0.5364(3)
O3_3 O 0.1429(3) 0.1475(12) 0.5655(4)
O4_2 O 0.1863(3) 0.0620(10) 0.5085(3)
O7_2 O 0.2634(3) 0.0602(9) 0.5635(3)
O8_3 O 0.0904(3) 0.4207(10) 0.6102(3)
O9_3 O 0.1562(3) 0.5272(11) 0.6019(4)
O10_3 O 0.0538(4) 0.2336(13) 0.6856(4)
O11_3 O 0.1230(4) 0.2149(15) 0.7162(6)
O12_3 O 0.0468(3) 0.5504(13) 0.8215(4)
O13_3 O 0.0427(3) 0.3361(14) 0.7942(4)
O14_3 O 0.0500(3) 0.5103(11) 0.6978(3)
O15_3 O 0.1605(3) 0.5796(10) 0.4909(3)
O16_2 O 0.1925(3) 0.7657(10) 0.4604(3)
O17_3 O 0.0729(3) 0.4905(10) 0.4484(3)
O21_3 O 0.0702(3) 0.6173(10) 0.5316(3)
O22_3 O 0.0169(4) 0.6384(16) 0.6070(4)
C1_3 C 0.2395(4) 0.3524(14) 0.5787(5)
C2_3 C 0.2284(5) 0.2374(14) 0.6106(5)
H1_3 H 0.2528 0.2297 0.6346
H2_3 H 0.2001 0.2599 0.6268
C3_3 C 0.2224(4) 0.0973(14) 0.5865(5)
C4_3 C 0.1807(4) 0.1041(13) 0.5519(5)
H3_3 H 0.1838 0.0110 0.6414
C7_3 C 0.1258(4) 0.4838(15) 0.6275(5)
C8_3 C 0.1310(4) 0.5045(18) 0.6804(5)
H5_3 H 0.1600 0.4625 0.6909
H6_3 H 0.1333 0.6036 0.6867
C9_3 C 0.0918(4) 0.4441(16) 0.7110(5)
C10_3 C 0.0904(5) 0.2886(19) 0.7053(5)
C11_3 C 0.1021(4) 0.479(2) 0.7627(5)
H7_3 H 0.1282 0.4231 0.7737
H8_3 H 0.1110 0.5758 0.7650
C12_3 C 0.0616(5) 0.453(2) 0.7953(6)
C13_3 C 0.1594(4) 0.7064(15) 0.4804(4)
C14_3 C 0.1166(4) 0.7931(14) 0.4913(5)
H9_3 H 0.1210 0.8375 0.5220
H10_3 H 0.1134 0.8660 0.4675
C15_3 C 0.0708(3) 0.7052(14) 0.4917(4)
C16_3 C 0.0688(3) 0.6235(15) 0.4439(5)
C17_3 C 0.0309(4) 0.8117(15) 0.4935(5)
H11_3 H 0.0336 0.8749 0.4667
H12_3 H 0.0345 0.8664 0.5224
O23_3 O 0.1530(3) 0.2765(11) 0.4500(4)
O28_3 O 0.0239(3) 0.3547(10) 0.5371(3)
O29_3 O 0.0476(3) 0.2108(10) 0.4820(3)
C24_3 C 0.0176(4) 0.2526(13) 0.5079(5)
O31_2 O 0.2342(4) 0.0491(11) 0.4103(4)
O32_2 O 0.2799(3) 0.1485(11) 0.4636(3)
O33_3 O 0.3571(3) 0.3525(12) 0.4345(4)
O34_3 O 0.3137(3) 0.4380(10) 0.4915(3)
O35_3 O 0.2917(3) 0.6915(10) 0.4364(3)
O36_3 O 0.3036(5) 0.7496(12) 0.3625(4)
O37_3 O 0.2366(3) 0.4398(9) 0.4365(3)
C25_3 C 0.2605(4) 0.1476(14) 0.4213(5)
C26_3 C 0.2716(5) 0.2626(14) 0.3894(5)
H17_3 H 0.2472 0.2703 0.3654
H18_3 H 0.2999 0.2401 0.3732
C27_3 C 0.2776(4) 0.4027(14) 0.4135(5)
C28_3 C 0.3193(4) 0.3959(13) 0.4481(5)
C29_3 C 0.2883(5) 0.5154(16) 0.3749(5)
H19_3 H 0.3162 0.4890 0.3586
H20_3 H 0.2632 0.5167 0.3515
C30_3 C 0.2943(4) 0.6565(14) 0.3945(5)
O47_2 O 0.3075(3) 0.7343(10) 0.5396(3)
Bi8 Bi 0.253562(14) 0.95172(5) 0.497659(17)
H25_2 H 0.0426884 0.691197 0.62228
H29_2 H 0.0127488 0.66133 0.909569
O5_2 O 0.2083(3) 0.8085(10) 0.5636(3)
O6_3 O 0.1964(5) 0.7504(12) 0.6375(4)
C5_3 C 0.2117(5) 0.9846(16) 0.6251(5)
H4_3 H 0.2368 0.9833 0.6485
C6_3 C 0.2057(4) 0.8435(14) 0.6055(5)
O19_3 O 0.9761(3) 0.6453(10) 0.4629(3)
O20_3 O 0.9524(3) 0.7892(10) 0.5180(3)
C18_3 C 0.9824(4) 0.7474(13) 0.4921(5)
O24_3 O 0.8395(3) 0.4204(10) 0.5091(3)
O25_2 O 0.8075(3) 0.2343(10) 0.5396(3)
O26_3 O 0.9271(3) 0.5095(10) 0.5516(3)
O27_3 O 0.9330(3) 0.3161(10) 0.5938(3)
O30_3 O 0.9298(3) 0.3827(10) 0.4684(3)
C19_3 C 0.8406(4) 0.2936(15) 0.5196(4)
C20_3 C 0.8834(4) 0.2069(14) 0.5087(5)
H13_3 H 0.8790 0.1625 0.4780
H14_3 H 0.8866 0.1340 0.5325
C21_3 C 0.9292(3) 0.2948(14) 0.5083(4)
C22_3 C 0.9312(3) 0.3765(15) 0.5561(5)
C23_3 C 0.9691(4) 0.1883(15) 0.5065(5)
H15_3 H 0.9664 0.1251 0.5333
H16_3 H 0.9655 0.1336 0.4776
Bi5_2 Bi 0.753562(14) 0.45172(5) 0.497659(17)
O40_3 O 0.9462(4) 0.2336(13) 0.8144(4)
O41_3 O 0.8770(4) 0.2149(15) 0.7838(6)
O42_3 O 0.9532(3) 0.5504(13) 0.6785(4)
O43_3 O 0.9573(3) 0.3361(14) 0.7058(4)
O44_3 O 0.9500(3) 0.5103(11) 0.8022(3)
C31_3 C 0.8742(4) 0.4838(15) 0.8725(5)
C32_3 C 0.8690(4) 0.5045(18) 0.8196(5)
H21_3 H 0.8400 0.4625 0.8091
H22_3 H 0.8667 0.6036 0.8133
C33_3 C 0.9082(4) 0.4441(16) 0.7890(5)
C34_3 C 0.9096(5) 0.2886(19) 0.7947(5)
C35_3 C 0.8979(4) 0.479(2) 0.7373(5)
H23_3 H 0.8718 0.4231 0.7263
H24_3 H 0.8890 0.5758 0.7350
C36_3 C 0.9384(5) 0.453(2) 0.7047(6)
O45_3 O 0.8470(3) 0.7235(11) 0.5500(4)
O46_3 O 0.9831(4) 0.6384(16) 0.8930(4)
Bi10_2 Bi 0.746438(14) 0.04828(5) 0.502341(17)
O50_2 O 0.7342(4) 0.5491(11) 0.4103(4)
O51_2 O 0.7799(3) 0.6485(11) 0.4636(3)
O52_2 O 0.6863(3) 0.5620(10) 0.5085(3)
O53_2 O 0.7083(3) 0.3085(10) 0.5636(3)
O54_2 O 0.7634(3) 0.5602(9) 0.5635(3)
O55_2 O 0.6925(3) 0.2657(10) 0.4604(3)
H26_2 H 0.987538 0.690011 0.611092
H30_2 H 0.957848 0.637517 0.916389
O9_4 O 0.6562(3) 0.0272(11) 0.6019(4)
O12_4 O 0.5468(3) 0.0504(13) 0.8215(4)
O14_4 O 0.5500(3) 0.0103(11) 0.6978(3)
O15_4 O 0.6605(3) 0.0796(10) 0.4909(3)
O19_4 O 0.4761(3) 0.1453(10) 0.4629(3)
O20_4 O 0.4524(3) 0.2892(10) 0.5180(3)
O21_4 O 0.5702(3) 0.1173(10) 0.5316(3)
O22_4 O 0.5169(4) 0.1384(16) 0.6070(4)
C8_4 C 0.6310(4) 0.0045(18) 0.6804(5)
H6_4 H 0.6333 0.1036 0.6867
H8_4 H 0.6110 0.0758 0.7650
C13_4 C 0.6594(4) 0.2064(15) 0.4804(4)
C14_4 C 0.6166(4) 0.2931(14) 0.4913(5)
H9_4 H 0.6210 0.3375 0.5220
H10_4 H 0.6134 0.3660 0.4675
C15_4 C 0.5708(3) 0.2052(14) 0.4917(4)
C16_4 C 0.5688(3) 0.1235(15) 0.4439(5)
C17_4 C 0.5309(4) 0.3117(15) 0.4935(5)
H11_4 H 0.5336 0.3749 0.4667
H12_4 H 0.5345 0.3664 0.5224
C18_4 C 0.4824(4) 0.2474(13) 0.4921(5)
O26_4 O 0.4271(3) 0.0095(10) 0.5516(3)
O35_4 O 0.7917(3) 0.1915(10) 0.4364(3)
O36_4 O 0.8036(5) 0.2496(12) 0.3625(4)
C29_4 C 0.7883(5) 0.0154(16) 0.3749(5)
H20_4 H 0.7632 0.0167 0.3515
C30_4 C 0.7943(4) 0.1565(14) 0.3945(5)
O42_4 O 0.4532(3) 0.0504(13) 0.6785(4)
O44_4 O 0.4500(3) 0.0103(11) 0.8022(3)
C32_4 C 0.3690(4) 0.0045(18) 0.8196(5)
H22_4 H 0.3667 0.1036 0.8133
H24_4 H 0.3890 0.0758 0.7350
O45_4 O 0.3470(3) 0.2235(11) 0.5500(4)
O46_4 O 0.4831(4) 0.1384(16) 0.8930(4)
Bi1_4 Bi 0.599649(13) 0.91786(5) 0.521549(16)
Bi3_4 Bi 0.511058(16) 0.90911(7) 0.644200(19)
O1_4 O 0.7658(4) 0.9509(11) 0.5897(4)
O2_4 O 0.7201(3) 0.8515(11) 0.5364(3)
O3_4 O 0.6429(3) 0.6475(12) 0.5655(4)
O6_4 O 0.6964(5) 0.2504(12) 0.6375(4)
O8_4 O 0.5904(3) 0.9207(10) 0.6102(3)
O10_4 O 0.5538(4) 0.7336(13) 0.6856(4)
O11_4 O 0.6230(4) 0.7149(15) 0.7162(6)
O13_4 O 0.5427(3) 0.8361(14) 0.7942(4)
O17_4 O 0.5729(3) 0.9905(10) 0.4484(3)
C1_4 C 0.7395(4) 0.8524(14) 0.5787(5)
C2_4 C 0.7284(5) 0.7374(14) 0.6106(5)
H1_4 H 0.7528 0.7297 0.6346
H2_4 H 0.7001 0.7599 0.6268
C3_4 C 0.7224(4) 0.5973(14) 0.5865(5)
C4_4 C 0.6807(4) 0.6041(13) 0.5519(5)
C5_4 C 0.7117(5) 0.4846(16) 0.6251(5)
H3_4 H 0.6838 0.5110 0.6414
H4_4 H 0.7368 0.4833 0.6485
C6_4 C 0.7057(4) 0.3435(14) 0.6055(5)
C7_4 C 0.6258(4) 0.9838(15) 0.6275(5)
H5_4 H 0.6600 0.9625 0.6909
C9_4 C 0.5918(4) 0.9441(16) 0.7110(5)
C10_4 C 0.5904(5) 0.7886(19) 0.7053(5)
C11_4 C 0.6021(4) 0.979(2) 0.7627(5)
H7_4 H 0.6282 0.9231 0.7737
C12_4 C 0.5616(5) 0.953(2) 0.7953(6)
O23_4 O 0.6530(3) 0.7765(11) 0.4500(4)
O24_4 O 0.3395(3) 0.9204(10) 0.5091(3)
O27_4 O 0.4330(3) 0.8161(10) 0.5938(3)
O28_4 O 0.5239(3) 0.8547(10) 0.5371(3)
O29_4 O 0.5476(3) 0.7108(10) 0.4820(3)
O30_4 O 0.4298(3) 0.8827(10) 0.4684(3)
C19_4 C 0.3406(4) 0.7936(15) 0.5196(4)
C20_4 C 0.3834(4) 0.7069(14) 0.5087(5)
H13_4 H 0.3790 0.6625 0.4780
H14_4 H 0.3866 0.6340 0.5325
C21_4 C 0.4292(3) 0.7948(14) 0.5083(4)
C22_4 C 0.4312(3) 0.8765(15) 0.5561(5)
C23_4 C 0.4691(4) 0.6883(15) 0.5065(5)
H15_4 H 0.4664 0.6251 0.5333
H16_4 H 0.4655 0.6336 0.4776
C24_4 C 0.5176(4) 0.7526(13) 0.5079(5)
O33_4 O 0.8571(3) 0.8525(12) 0.4345(4)
O34_4 O 0.8137(3) 0.9380(10) 0.4915(3)
O37_4 O 0.7366(3) 0.9398(9) 0.4365(3)
C25_4 C 0.7605(4) 0.6476(14) 0.4213(5)
C26_4 C 0.7716(5) 0.7626(14) 0.3894(5)
H17_4 H 0.7472 0.7703 0.3654
H18_4 H 0.7999 0.7401 0.3732
C27_4 C 0.7776(4) 0.9027(14) 0.4135(5)
C28_4 C 0.8193(4) 0.8959(13) 0.4481(5)
H19_4 H 0.8162 0.9890 0.3586
O40_4 O 0.4462(4) 0.7336(13) 0.8144(4)
O41_4 O 0.3770(4) 0.7149(15) 0.7838(6)
O43_4 O 0.4573(3) 0.8361(14) 0.7058(4)
C31_4 C 0.3742(4) 0.9838(15) 0.8725(5)
H21_4 H 0.3400 0.9625 0.8091
C33_4 C 0.4082(4) 0.9441(16) 0.7890(5)
C34_4 C 0.4096(5) 0.7886(19) 0.7947(5)
C35_4 C 0.3979(4) 0.979(2) 0.7373(5)
H23_4 H 0.3718 0.9231 0.7263
C36_4 C 0.4384(5) 0.953(2) 0.7047(6)
H26_3 H 0.0124621 0.690011 0.888908
H30_3 H 0.0421517 0.637517 0.583611
H25_3 H 0.957312 0.691197 0.87772
H29_3 H 0.987251 0.66133 0.590431
H26_4 H 0.0124621 0.309989 0.388908
H30_4 H 0.0421517 0.362483 0.0836106
H25_4 H 0.957312 0.308803 0.37772
H29_4 H 0.987251 0.33867 0.0904308
K1 K 0.0764(2) 0.7524(6) 0.8895(2)
K1_2 K 0.5764(2) 0.2524(6) 0.8895(2)
K1_3 K 0.0764(2) 0.2476(6) 0.3895(2)
K1_4 K 0.5764(2) 0.7476(6) 0.3895(2)
K1_5 K 0.9236(2) 0.2476(6) 0.1105(2)
K1_6 K 0.4236(2) 0.7476(6) 0.1105(2)
K1_7 K 0.9236(2) 0.7524(6) 0.6105(2)
K1_8 K 0.4236(2) 0.2524(6) 0.6105(2)
N1 N 0.0000 0.899(2) 0.2500
H37 H 0.0350471 0.899 0.25
H38 H 0.0120198 0.985283 0.26704
H39 H 0.0120198 0.812717 0.26704
H40 H 0.0110075 0.899 0.215921
N1_2 N 1.0000 0.899(2) 0.2500
H38_2 H 0.98798 0.985283 0.23296
H39_2 H 0.98798 0.812717 0.23296
H40_2 H 0.988992 0.899 0.284079
H37_2 H 0.964953 0.899 0.25
N1_3 N 0.5000 0.399(2) 0.2500
H37_3 H 0.535047 0.399 0.25
H38_3 H 0.48798 0.485283 0.23296
H39_3 H 0.48798 0.312717 0.23296
H40_3 H 0.488992 0.399 0.284079
H37_4 H 0.464953 0.399 0.25
H38_4 H 0.51202 0.485283 0.26704
H39_4 H 0.51202 0.312717 0.26704
H40_4 H 0.511008 0.399 0.215921
N1_4 N 0.0000 0.101(2) 0.7500
H37_5 H 0.0350471 0.101 0.75
H38_5 H 0.0120198 0.0147174 0.76704
H39_5 H 0.0120198 0.187283 0.76704
H40_5 H 0.0110075 0.101 0.715921
N1_5 N 1.0000 0.101(2) 0.7500
H38_6 H 0.98798 0.0147174 0.73296
H39_6 H 0.98798 0.187283 0.73296
H40_6 H 0.988992 0.101 0.784079
H37_6 H 0.964953 0.101 0.75
N1_6 N 0.5000 0.601(2) 0.7500
H37_7 H 0.535047 0.601 0.75
H38_7 H 0.48798 0.514717 0.73296
H39_7 H 0.48798 0.687283 0.73296
H40_7 H 0.488992 0.601 0.784079
H37_8 H 0.464953 0.601 0.75
H38_8 H 0.51202 0.514717 0.76704
H39_8 H 0.51202 0.687283 0.76704
H40_8 H 0.511008 0.601 0.715921
N2 N 0.4397(6) 0.5608(17) 0.8972(6)
H33 H 0.474747 0.5608 0.8972
H34 H 0.42768 0.647083 0.88016
H35 H 0.42768 0.474517 0.88016
H36 H 0.428692 0.5608 0.931279
N2_2 N 0.9397(6) 0.0608(17) 0.8972(6)
H33_2 H 0.974747 0.0608 0.8972
H34_2 H 0.92768 0.147083 0.88016
H36_2 H 0.928692 0.0608 0.931279
H35_2 H 0.92768 0.974517 0.88016
N2_3 N 0.4397(6) 0.4392(17) 0.3972(6)
H33_3 H 0.474747 0.4392 0.3972
H34_3 H 0.42768 0.352917 0.38016
H35_3 H 0.42768 0.525483 0.38016
H36_3 H 0.428692 0.4392 0.431279
H35_4 H 0.92768 0.0254826 0.38016
N2_4 N 0.9397(6) 0.9392(17) 0.3972(6)
H33_4 H 0.974747 0.9392 0.3972
H34_4 H 0.92768 0.852917 0.38016
H36_4 H 0.928692 0.9392 0.431279
N2_5 N 0.5603(6) 0.4392(17) 0.1028(6)
H33_5 H 0.525253 0.4392 0.1028
H34_5 H 0.57232 0.352917 0.11984
H35_5 H 0.57232 0.525483 0.11984
H36_5 H 0.571308 0.4392 0.0687207
H35_6 H 0.0723198 0.0254826 0.11984
N2_6 N 0.0603(6) 0.9392(17) 0.1028(6)
H33_6 H 0.0252529 0.9392 0.1028
H34_6 H 0.0723198 0.852917 0.11984
H36_6 H 0.0713075 0.9392 0.0687207
N2_7 N 0.5603(6) 0.5608(17) 0.6028(6)
H33_7 H 0.525253 0.5608 0.6028
H34_7 H 0.57232 0.647083 0.61984
H35_7 H 0.57232 0.474517 0.61984
H36_7 H 0.571308 0.5608 0.568721
N2_8 N 0.0603(6) 0.0608(17) 0.6028(6)
H33_8 H 0.0252529 0.0608 0.6028
H34_8 H 0.0723198 0.147083 0.61984
H36_8 H 0.0713075 0.0608 0.568721
H35_8 H 0.0723198 0.974517 0.61984
N3 N -0.0000 0.292(3) 0.2500
H41 H 0.0350471 0.292 0.25
H42 H 0.0120198 0.378283 0.26704
H43 H 0.0120198 0.205717 0.26704
H44 H 0.0110075 0.292 0.215921
N3_2 N 1.0000 0.292(3) 0.2500
H42_2 H 0.98798 0.378283 0.23296
H43_2 H 0.98798 0.205717 0.23296
H44_2 H 0.988992 0.292 0.284079
H41_2 H 0.964953 0.292 0.25
N3_3 N 0.5000 0.792(3) 0.2500
H41_3 H 0.535047 0.792 0.25
H42_3 H 0.48798 0.878283 0.23296
H43_3 H 0.48798 0.705717 0.23296
H44_3 H 0.488992 0.792 0.284079
H41_4 H 0.464953 0.792 0.25
H42_4 H 0.51202 0.878283 0.26704
H43_4 H 0.51202 0.705717 0.26704
H44_4 H 0.511008 0.792 0.215921
N3_4 N -0.0000 0.708(3) 0.7500
H41_5 H 0.0350471 0.708 0.75
H42_5 H 0.0120198 0.621717 0.76704
H43_5 H 0.0120198 0.794283 0.76704
H44_5 H 0.0110075 0.708 0.715921
N3_5 N 1.0000 0.708(3) 0.7500
H42_6 H 0.98798 0.621717 0.73296
H43_6 H 0.98798 0.794283 0.73296
H44_6 H 0.988992 0.708 0.784079
H41_6 H 0.964953 0.708 0.75
N3_6 N 0.5000 0.208(3) 0.7500
H41_7 H 0.535047 0.208 0.75
H42_7 H 0.48798 0.121717 0.73296
H43_7 H 0.48798 0.294283 0.73296
H44_7 H 0.488992 0.208 0.784079
H41_8 H 0.464953 0.208 0.75
H42_8 H 0.51202 0.121717 0.76704
H43_8 H 0.51202 0.294283 0.76704
H44_8 H 0.511008 0.208 0.715921
loop_
_geom_bond_atom_site_label_1
_geom_bond_atom_site_label_2
_geom_bond_site_symmetry_1
_geom_bond_site_symmetry_2
O5 C6 1_555 1_555
O6 C6 1_555 1_555
H4 C5 1_555 1_555
C6 C5 1_555 1_555
Bi1 O8 1_555 1_555
Bi2 O1 1_555 1_555
Bi3 O8 1_555 1_555
O1 C1 1_555 1_555
O2 Bi2 1_555 1_555
O3 C4 1_555 1_555
O4 C4 1_555 1_555
O7 C3 1_555 1_555
O8 C7 1_555 1_555
O9 Bi1 1_555 1_555
O10 Bi3 1_555 1_555
O11 C10 1_555 1_555
O12 C12 1_555 1_555
O13 C12 1_555 1_555
O14 Bi3 1_555 1_555
O21 Bi1 1_555 1_555
O22 Bi3 1_555 1_555
C1 O2 1_555 1_555
C2 C1 1_555 1_555
H1 C2 1_555 1_555
H2 C2 1_555 1_555
C3 C2 1_555 1_555
C4 C3 1_555 1_555
C7 O9 1_555 1_555
C8 C7 1_555 1_555
H5 C8 1_555 1_555
H6 C8 1_555 1_555
C9 O14 1_555 1_555
C10 O10 1_555 1_555
C11 C9 1_555 1_555
H7 C11 1_555 1_555
H8 C11 1_555 1_555
C12 C11 1_555 1_555
O28 Bi1 1_555 1_555
C24 O28 1_555 1_555
O47 Bi2 1_555 1_555
C8 C9 1_555 1_555
C9 C10 1_555 1_555
O22 H25 1_555 1_555
O18 C16 1_555 1_555
C13 O15 1_555 1_555
C14 C13 1_555 1_555
H10 C14 1_555 1_555
C16 O17 1_555 1_555
C17 C15 1_555 1_555
H11 C17 1_555 1_555
O31 C25 1_555 1_555
O32 C25 1_555 1_555
O33 C28 1_555 1_555
O36 C30 1_555 1_555
C25 C26 1_555 1_555
C26 H17 1_555 1_555
H18 C26 1_555 1_555
C27 O37 1_555 1_555
C28 O34 1_555 1_555
C29 C27 1_555 1_555
H19 C29 1_555 1_555
H20 C29 1_555 1_555
C30 O35 1_555 1_555
Bi7 O16 1_555 1_555
O16 C13 1_555 1_555
C14 C15 1_555 1_555
C15 C16 1_555 1_555
C26 C27 1_555 1_555
C27 C28 1_555 1_555
C29 C30 1_555 1_555
O24 C19 1_555 1_555
O25 C19 1_555 1_555
O26 C22 1_555 1_555
C19 C20 1_555 1_555
H14 C20 1_555 1_555
C21 C20 1_555 1_555
C22 O27 1_555 1_555
C23 C21 1_555 1_555
H15 C23 1_555 1_555
O38 Bi6 1_555 1_555
O39 C31 1_555 1_555
O40 Bi6 1_555 1_555
O41 C34 1_555 1_555
O44 Bi6 1_555 1_555
C31 O38 1_555 1_555
C32 C31 1_555 1_555
H21 C32 1_555 1_555
H22 C32 1_555 1_555
C33 O44 1_555 1_555
C34 O40 1_555 1_555
C35 C33 1_555 1_555
H23 C35 1_555 1_555
H24 C35 1_555 1_555
C36 O42 1_555 1_555
O46 Bi6 1_555 1_555
Bi10 O25 1_555 1_555
Bi11 O38 1_555 1_555
C21 C22 1_555 1_555
O39 Bi11 1_555 1_555
O43 C36 1_555 1_555
C32 C33 1_555 1_555
C33 C34 1_555 1_555
C35 C36 1_555 1_555
O46 H30 1_555 1_555
O19 C18 1_555 1_555
Bi4 O19 1_555 1_555
O48 Bi4 1_555 1_555
O49 Bi4 1_555 1_555
O50 Bi5 1_555 1_555
O51 Bi5 1_555 1_555
O55 Bi5 1_555 1_555
O30 Bi4 1_555 1_555
Bi9 O48 1_555 1_555
Bi1_2 O8_2 1_555 1_555
Bi3_2 O8_2 1_555 1_555
O1_2 C1_2 1_555 1_555
O3_2 C4_2 1_555 1_555
O52 C4_2 1_555 1_555
O53 C6_2 1_555 1_555
O6_2 C6_2 1_555 1_555
O54 C3_2 1_555 1_555
O8_2 C7_2 1_555 1_555
O10_2 Bi3_2 1_555 1_555
O11_2 C10_2 1_555 1_555
O13_2 C12_2 1_555 1_555
C1_2 O2_2 1_555 1_555
C2_2 C1_2 1_555 1_555
H1_2 C2_2 1_555 1_555
H2_2 C2_2 1_555 1_555
C3_2 C2_2 1_555 1_555
C4_2 C3_2 1_555 1_555
C5_2 C3_2 1_555 1_555
H3_2 C5_2 1_555 1_555
H4_2 C5_2 1_555 1_555
C6_2 C5_2 1_555 1_555
C10_2 O10_2 1_555 1_555
C11_2 C9_2 1_555 1_555
H7_2 C11_2 1_555 1_555
C12_2 C11_2 1_555 1_555
O24_2 C19_2 1_555 1_555
O47 C19_2 1_555 1_555
O27_2 Bi3_2 1_555 1_555
O28_2 Bi1_2 1_555 1_555
C19_2 C20_2 1_555 1_555
H14_2 C20_2 1_555 1_555
C21_2 C20_2 1_555 1_555
C22_2 O27_2 1_555 1_555
C23_2 C21_2 1_555 1_555
H15_2 C23_2 1_555 1_555
C24_2 O28_2 1_555 1_555
O38_2 Bi6_2 1_555 1_555
O40_2 Bi6_2 1_555 1_555
O41_2 C34_2 1_555 1_555
O43_2 Bi3_2 1_555 1_555
C31_2 O38_2 1_555 1_555
C34_2 O40_2 1_555 1_555
C35_2 C33_2 1_555 1_555
H23_2 C35_2 1_555 1_555
O56_2 Bi6_2 1_555 1_555
Bi11_2 O38_2 1_555 1_555
O13_2 Bi6_2 1_555 1_555
C9_2 C10_2 1_555 1_555
C21_2 C22_2 1_555 1_555
C23_2 C24_2 1_555 1_555
O43_2 C36_2 1_555 1_555
C33_2 C34_2 1_555 1_555
C35_2 C36_2 1_555 1_555
O50 C25_2 1_555 1_555
O51 C25_2 1_555 1_555
O33_2 C28_2 1_555 1_555
C25_2 C26_2 1_555 1_555
C26_2 H17_2 1_555 1_555
H18_2 C26_2 1_555 1_555
C27_2 O37_2 1_555 1_555
C28_2 O34_2 1_555 1_555
C26_2 C27_2 1_555 1_555
C27_2 C28_2 1_555 1_555
H6_2 C8_2 1_555 1_555
H22_2 C32_2 1_555 1_555
O18_2 C16_2 1_555 1_555
O19_2 C18_2 1_555 1_555
C13_2 O15_2 1_555 1_555
C14_2 C13_2 1_555 1_555
H10_2 C14_2 1_555 1_555
C17_2 C15_2 1_555 1_555
H11_2 C17_2 1_555 1_555
C18_2 C17_2 1_555 1_555
Bi4_2 O19_2 1_555 1_555
O36_2 C30_2 1_555 1_555
H20_2 C29_2 1_555 1_555
C30_2 O35_2 1_555 1_555
Bi9_2 O18_2 1_555 1_555
O48_2 Bi4_2 1_555 1_555
O55 C13_2 1_555 1_555
C14_2 C15_2 1_555 1_555
C15_2 C16_2 1_555 1_555
C29_2 C30_2 1_555 1_555
Bi9_2 O48_2 1_555 1_555
Bi1_3 O8_3 1_555 1_555
Bi2_2 O1_3 1_555 1_555
Bi3_3 O8_3 1_555 1_555
O1_3 C1_3 1_555 1_555
O2_3 Bi2_2 1_555 1_555
O3_3 C4_3 1_555 1_555
O4_2 C4_3 1_555 1_555
O7_2 C3_3 1_555 1_555
O8_3 C7_3 1_555 1_555
O9_3 Bi1_3 1_555 1_555
O10_3 Bi3_3 1_555 1_555
O11_3 C10_3 1_555 1_555
O12_3 C12_3 1_555 1_555
O13_3 C12_3 1_555 1_555
O14_3 Bi3_3 1_555 1_555
O15_3 Bi1_3 1_555 1_555
O16_2 Bi2_2 1_555 1_555
O17_3 Bi1_3 1_555 1_555
O56 C16_3 1_555 1_555
O21_3 Bi1_3 1_555 1_555
O22_3 Bi3_3 1_555 1_555
C1_3 O2_3 1_555 1_555
C2_3 C1_3 1_555 1_555
H1_3 C2_3 1_555 1_555
H2_3 C2_3 1_555 1_555
C3_3 C2_3 1_555 1_555
C4_3 C3_3 1_555 1_555
C7_3 O9_3 1_555 1_555
C8_3 C7_3 1_555 1_555
H5_3 C8_3 1_555 1_555
H6_3 C8_3 1_555 1_555
C9_3 O14_3 1_555 1_555
C10_3 O10_3 1_555 1_555
C11_3 C9_3 1_555 1_555
H7_3 C11_3 1_555 1_555
H8_3 C11_3 1_555 1_555
C12_3 C11_3 1_555 1_555
C13_3 O15_3 1_555 1_555
C14_3 C13_3 1_555 1_555
H9_3 C14_3 1_555 1_555
H10_3 C14_3 1_555 1_555
C15_3 O21_3 1_555 1_555
C16_3 O17_3 1_555 1_555
C17_3 C15_3 1_555 1_555
H11_3 C17_3 1_555 1_555
H12_3 C17_3 1_555 1_555
O23_3 Bi1_3 1_555 1_555
O28_3 Bi1_3 1_555 1_555
O29_3 Bi1_3 1_555 1_555
C24_3 O28_3 1_555 1_555
O31_2 C25_3 1_555 1_555
O32_2 C25_3 1_555 1_555
O33_3 C28_3 1_555 1_555
O34_3 Bi2_2 1_555 1_555
O35_3 Bi2_2 1_555 1_555
O36_3 C30_3 1_555 1_555
O37_3 Bi2_2 1_555 1_555
C25_3 C26_3 1_555 1_555
C26_3 H17_3 1_555 1_555
H18_3 C26_3 1_555 1_555
C27_3 O37_3 1_555 1_555
C28_3 O34_3 1_555 1_555
C29_3 C27_3 1_555 1_555
H19_3 C29_3 1_555 1_555
H20_3 C29_3 1_555 1_555
C30_3 O35_3 1_555 1_555
O47_2 Bi2_2 1_555 1_555
Bi8 O16_2 1_555 1_555
Bi2_2 O15_3 1_555 1_555
O16_2 C13_3 1_555 1_555
C8_3 C9_3 1_555 1_555
C9_3 C10_3 1_555 1_555
C14_3 C15_3 1_555 1_555
C15_3 C16_3 1_555 1_555
O29_3 C24_3 1_555 1_555
C26_3 C27_3 1_555 1_555
C27_3 C28_3 1_555 1_555
C29_3 C30_3 1_555 1_555
O47_2 Bi8 1_555 1_555
O22_3 H25_2 1_555 1_555
O5_2 C6_3 1_555 1_555
O6_3 C6_3 1_555 1_555
H4_3 C5_3 1_555 1_555
C6_3 C5_3 1_555 1_555
O5_2 Bi8 1_555 1_555
O19_3 C18_3 1_555 1_555
O20_3 C18_3 1_555 1_555
O24_3 C19_3 1_555 1_555
O25_2 C19_3 1_555 1_555
O26_3 C22_3 1_555 1_555
O30_3 C21_3 1_555 1_555
C19_3 C20_3 1_555 1_555
C20_3 H13_3 1_555 1_555
H14_3 C20_3 1_555 1_555
C21_3 C20_3 1_555 1_555
C22_3 O27_3 1_555 1_555
C23_3 C21_3 1_555 1_555
H15_3 C23_3 1_555 1_555
H16_3 C23_3 1_555 1_555
Bi11 O19_3 1_555 1_555
Bi5_2 O24_3 1_555 1_555
O49 C31_3 1_555 1_555
O40_3 Bi9 1_555 1_555
O41_3 C34_3 1_555 1_555
O44_3 Bi9 1_555 1_555
C31_3 O48 1_555 1_555
C32_3 C31_3 1_555 1_555
H21_3 C32_3 1_555 1_555
H22_3 C32_3 1_555 1_555
C33_3 O44_3 1_555 1_555
C34_3 O40_3 1_555 1_555
C35_3 C33_3 1_555 1_555
H23_3 C35_3 1_555 1_555
H24_3 C35_3 1_555 1_555
C36_3 O42_3 1_555 1_555
O45_3 Bi11 1_555 1_555
O46_3 Bi9 1_555 1_555
Bi10_2 O25_2 1_555 1_555
O50_2 Bi5_2 1_555 1_555
O51_2 Bi5_2 1_555 1_555
O52_2 Bi5_2 1_555 1_555
O53_2 Bi5_2 1_555 1_555
O54_2 Bi5_2 1_555 1_555
O55_2 Bi5_2 1_555 1_555
O20_3 Bi11 1_555 1_555
O24_3 Bi11 1_555 1_555
O25_2 Bi5_2 1_555 1_555
O26_3 Bi11 1_555 1_555
O30_3 Bi11 1_555 1_555
C21_3 C22_3 1_555 1_555
O43_3 C36_3 1_555 1_555
C32_3 C33_3 1_555 1_555
C33_3 C34_3 1_555 1_555
C35_3 C36_3 1_555 1_555
Bi10_2 O55_2 1_555 1_555
O46_3 H30_2 1_555 1_555
O56_2 C16_4 1_555 1_555
O19_4 C18_4 1_555 1_555
O20_4 C18_4 1_555 1_555
H6_4 C8_4 1_555 1_555
C13_4 O15_4 1_555 1_555
C14_4 C13_4 1_555 1_555
H9_4 C14_4 1_555 1_555
H10_4 C14_4 1_555 1_555
C15_4 O21_4 1_555 1_555
C17_4 C15_4 1_555 1_555
H11_4 C17_4 1_555 1_555
H12_4 C17_4 1_555 1_555
C18_4 C17_4 1_555 1_555
Bi11_2 O19_4 1_555 1_555
O35_4 Bi10_2 1_555 1_555
O36_4 C30_4 1_555 1_555
H20_4 C29_4 1_555 1_555
C30_4 O35_4 1_555 1_555
H22_4 C32_4 1_555 1_555
O45_4 Bi11_2 1_555 1_555
Bi10_2 O15_4 1_555 1_555
O55_2 C13_4 1_555 1_555
O20_4 Bi11_2 1_555 1_555
C14_4 C15_4 1_555 1_555
C15_4 C16_4 1_555 1_555
O26_4 Bi11_2 1_555 1_555
C29_4 C30_4 1_555 1_555
Bi1_4 O8_4 1_555 1_555
Bi3_4 O8_4 1_555 1_555
O1_4 C1_4 1_555 1_555
O3_4 C4_4 1_555 1_555
O52_2 C4_4 1_555 1_555
O53_2 C6_4 1_555 1_555
O6_4 C6_4 1_555 1_555
O54_2 C3_4 1_555 1_555
O8_4 C7_4 1_555 1_555
O10_4 Bi3_4 1_555 1_555
O11_4 C10_4 1_555 1_555
O13_4 C12_4 1_555 1_555
O17_4 Bi1_4 1_555 1_555
C1_4 O2_4 1_555 1_555
C2_4 C1_4 1_555 1_555
H1_4 C2_4 1_555 1_555
H2_4 C2_4 1_555 1_555
C3_4 C2_4 1_555 1_555
C4_4 C3_4 1_555 1_555
C5_4 C3_4 1_555 1_555
H3_4 C5_4 1_555 1_555
H4_4 C5_4 1_555 1_555
C6_4 C5_4 1_555 1_555
C10_4 O10_4 1_555 1_555
C11_4 C9_4 1_555 1_555
H7_4 C11_4 1_555 1_555
C12_4 C11_4 1_555 1_555
O23_4 Bi1_4 1_555 1_555
O24_4 C19_4 1_555 1_555
O47_2 C19_4 1_555 1_555
O27_4 Bi3_4 1_555 1_555
O28_4 Bi1_4 1_555 1_555
O29_4 Bi1_4 1_555 1_555
O30_4 C21_4 1_555 1_555
C19_4 C20_4 1_555 1_555
C20_4 H13_4 1_555 1_555
H14_4 C20_4 1_555 1_555
C21_4 C20_4 1_555 1_555
C22_4 O27_4 1_555 1_555
C23_4 C21_4 1_555 1_555
H15_4 C23_4 1_555 1_555
H16_4 C23_4 1_555 1_555
C24_4 O28_4 1_555 1_555
Bi8 O24_4 1_555 1_555
O50_2 C25_4 1_555 1_555
O51_2 C25_4 1_555 1_555
O33_4 C28_4 1_555 1_555
C25_4 C26_4 1_555 1_555
C26_4 H17_4 1_555 1_555
H18_4 C26_4 1_555 1_555
C27_4 O37_4 1_555 1_555
C28_4 O34_4 1_555 1_555
O40_4 Bi9_2 1_555 1_555
O41_4 C34_4 1_555 1_555
O43_4 Bi3_4 1_555 1_555
C31_4 O48_2 1_555 1_555
C34_4 O40_4 1_555 1_555
C35_4 C33_4 1_555 1_555
H23_4 C35_4 1_555 1_555
O13_4 Bi9_2 1_555 1_555
C9_4 C10_4 1_555 1_555
O29_4 C24_4 1_555 1_555
C21_4 C22_4 1_555 1_555
C23_4 C24_4 1_555 1_555
C26_4 C27_4 1_555 1_555
C27_4 C28_4 1_555 1_555
O43_4 C36_4 1_555 1_555
C33_4 C34_4 1_555 1_555
C35_4 C36_4 1_555 1_555
O22_3 H30_3 1_555 1_555
O46_3 H25_3 1_555 1_555
O22 H30_4 1_555 1_555
O46 H25_4 1_555 1_555
N1 H37 1_555 1_555
N1 H38 1_555 1_555
N1 H39 1_555 1_555
N1 H40 1_555 1_555
N1_2 H38_2 1_555 1_555
N1_2 H39_2 1_555 1_555
N1_2 H40_2 1_555 1_555
N1_2 H37_2 1_555 1_555
N1_3 H37_3 1_555 1_555
N1_3 H38_3 1_555 1_555
N1_3 H39_3 1_555 1_555
N1_3 H40_3 1_555 1_555
N1_3 H37_4 1_555 1_555
N1_3 H38_4 1_555 1_555
N1_3 H39_4 1_555 1_555
N1_3 H40_4 1_555 1_555
N1_4 H37_5 1_555 1_555
N1_4 H38_5 1_555 1_555
N1_4 H39_5 1_555 1_555
N1_4 H40_5 1_555 1_555
N1_5 H38_6 1_555 1_555
N1_5 H39_6 1_555 1_555
N1_5 H40_6 1_555 1_555
N1_5 H37_6 1_555 1_555
N1_6 H37_7 1_555 1_555
N1_6 H38_7 1_555 1_555
N1_6 H39_7 1_555 1_555
N1_6 H40_7 1_555 1_555
N1_6 H37_8 1_555 1_555
N1_6 H38_8 1_555 1_555
N1_6 H39_8 1_555 1_555
N1_6 H40_8 1_555 1_555
N2 H33 1_555 1_555
N2 H34 1_555 1_555
N2 H35 1_555 1_555
N2 H36 1_555 1_555
N2_2 H33_2 1_555 1_555
N2_2 H34_2 1_555 1_555
N2_2 H36_2 1_555 1_555
N2_3 H33_3 1_555 1_555
N2_3 H34_3 1_555 1_555
N2_3 H35_3 1_555 1_555
N2_3 H36_3 1_555 1_555
N2_4 H33_4 1_555 1_555
N2_4 H34_4 1_555 1_555
N2_4 H36_4 1_555 1_555
N2_5 H33_5 1_555 1_555
N2_5 H34_5 1_555 1_555
N2_5 H35_5 1_555 1_555
N2_5 H36_5 1_555 1_555
N2_6 H33_6 1_555 1_555
N2_6 H34_6 1_555 1_555
N2_6 H36_6 1_555 1_555
N2_7 H33_7 1_555 1_555
N2_7 H34_7 1_555 1_555
N2_7 H35_7 1_555 1_555
N2_7 H36_7 1_555 1_555
N2_8 H33_8 1_555 1_555
N2_8 H34_8 1_555 1_555
N2_8 H36_8 1_555 1_555
N3 H41 1_555 1_555
N3 H42 1_555 1_555
N3 H43 1_555 1_555
N3 H44 1_555 1_555
N3_2 H42_2 1_555 1_555
N3_2 H43_2 1_555 1_555
N3_2 H44_2 1_555 1_555
N3_2 H41_2 1_555 1_555
N3_3 H41_3 1_555 1_555
N3_3 H42_3 1_555 1_555
N3_3 H43_3 1_555 1_555
N3_3 H44_3 1_555 1_555
N3_3 H41_4 1_555 1_555
N3_3 H42_4 1_555 1_555
N3_3 H43_4 1_555 1_555
N3_3 H44_4 1_555 1_555
N3_4 H41_5 1_555 1_555
N3_4 H42_5 1_555 1_555
N3_4 H43_5 1_555 1_555
N3_4 H44_5 1_555 1_555
N3_5 H42_6 1_555 1_555
N3_5 H43_6 1_555 1_555
N3_5 H44_6 1_555 1_555
N3_5 H41_6 1_555 1_555
N3_6 H41_7 1_555 1_555
N3_6 H42_7 1_555 1_555
N3_6 H43_7 1_555 1_555
N3_6 H44_7 1_555 1_555
N3_6 H41_8 1_555 1_555
N3_6 H42_8 1_555 1_555
N3_6 H43_8 1_555 1_555
N3_6 H44_8 1_555 1_555

#END
