
###############################################################################
#
# This file contains modified crystal structure data generated from the
# MOF subset of the Cambridge Structural Database (CSD) v543 
# hosted by the Cambridge Crystallographic Data Centre (CCDC).
#
# This work is licensed under the Creative Commons
# Attribution-NonCommercial-ShareAlike 4.0 International License.
# To view a copy of this license, visit
# http://creativecommons.org/licenses/by-nc-sa/4.0/
# or send a letter to
# Creative Commons, PO Box 1866, Mountain View, CA 94042, USA.
#
# CIF created using the CSD Python API on 29 September 2022
# The structure has been converted into the P1 space group
# The structure has a 3D framework
# The original CSD entry ALOYEI is in the monoclinic crystal system
# The framework has been calculated to contain at least 10.0% void space
# The void calculation uses a probe of radius 1.32A, grid spacing 0.4
# H atom positions have been added when not included in the experimental data
#
###############################################################################

data_ALOYEI
_chemical_formula_moiety         '(C264 H176 Co8 N48 O46)n'
_symmetry_cell_setting           triclinic
_symmetry_space_group_name_H-M   'P 1'
_symmetry_Int_Tables_number      1
_space_group_name_Hall           'P 1'
loop_
_symmetry_equiv_pos_site_id
_symmetry_equiv_pos_as_xyz
1 x,y,z
_cell_length_a                   15.311(5)
_cell_length_b                   13.056(5)
_cell_length_c                   34.460(5)
_cell_angle_alpha                90
_cell_angle_beta                 100.110(5)
_cell_angle_gamma                90
_cell_volume                     6781.61
loop_
_atom_site_label
_atom_site_type_symbol
_atom_site_fract_x
_atom_site_fract_y
_atom_site_fract_z
N1 N 0.0420(3) 0.3452(3) 0.04747(16)
C18 C 0.0277(5) 0.3076(4) 0.0108(2)
H9 H 0.043400 0.240100 0.007301
C33 C 0.0246(5) 0.4477(5) 0.05125(19)
H15 H 0.037100 0.475999 0.075800
Co6 Co 0.10587(4) 0.25946(5) 0.09877(2)
O4 O 0.0004(3) 0.8467(3) 0.59489(14)
O6 O 0.1675(3) 0.8362(3) 0.56591(13)
C1 C 0.1558(3) 0.9689(4) 0.51736(17)
H2 H 0.053902 0.973999 0.547800
O10 O 0.2608(3) 0.8339(3) 0.52332(12)
H6 H 0.241501 0.987700 0.479799
C23 C 0.1969(4) 0.8716(4) 0.53711(16)
Co3 Co 0.31901(4) 0.69970(5) 0.54427(2)
Co5 Co 0.10587(4) 0.74054(5) 0.59877(2)
Co1 Co 0.81901(4) 0.19970(5) 0.54427(2)
Co2 Co 0.60587(4) 0.24054(5) 0.59877(2)
O1 O 0.9302(3) 0.2275(3) 0.51042(15)
O5 O 0.9214(3) 0.0907(3) 0.54677(14)
N2 N 0.7474(3) 0.1285(3) 0.49175(15)
N3 N 0.3879(4) 0.2241(4) 0.09619(16)
O7 O 0.6679(3) 0.1117(3) 0.62214(12)
N4 N 0.8673(4) 0.5240(4) 0.84186(16)
O9 O 0.7560(3) 0.1066(3) 0.57793(13)
N5 N 0.8931(4) 0.6723(4) 0.88197(16)
C6 C 0.6669(4) 0.0268(5) 0.42176(18)
C7 C 0.9768(4) 0.4698(4) 0.98142(19)
C11 C 0.4337(5) 0.0699(5) 0.1318(2)
C12 C 0.8927(5) 0.5699(5) 0.87618(19)
C15 C 0.7328(4) 0.0757(4) 0.60879(17)
C16 C 0.7303(5) 0.1758(5) 0.45674(19)
H7 H 0.745300 0.245399 0.455300
C17 C 0.3966(5) 0.1225(5) 0.09897(19)
H8 H 0.376200 0.084700 0.075500
C19 C 0.9251(4) 0.5030(5) 0.9106(2)
C20 C 0.9603(4) 0.1413(4) 0.52345(18)
C21 C 0.4649(6) 0.1219(5) 0.1660(2)
C25 C 0.6923(5) 0.1295(5) 0.4225(2)
H12 H 0.681301 0.165601 0.398500
N9 N 0.6752(4) 0.3128(4) 0.65257(16)
C30 C 0.4999(5) 0.0725(5) 0.2041(2)
C31 C 0.7212(4) 0.0296(4) 0.49119(17)
C32 C 0.9433(4) 0.5355(5) 0.9469(2)
C34 C 0.4584(7) 0.2294(5) 0.1635(2)
H16 H 0.474299 0.266500 0.186500
C35 C 0.8642(6) 0.7263(5) 0.8495(2)
N10 N 0.8380(5) 0.6878(4) 0.81352(18)
C38 C 0.7254(7) 0.3004(7) 0.7230(2)
H18 H 0.733200 0.259300 0.745000
C39 C 0.9958(5) 0.3645(5) 0.97770(19)
H19 H 0.985300 0.332399 0.953000
C43 C 0.7942(6) 0.4441(7) 0.7645(2)
C45 C 0.4210(6) 0.2746(5) 0.1288(2)
H20 H 0.417500 0.346900 0.128701
C47 C 0.8383(6) 0.5851(5) 0.8107(2)
C49 C 0.7556(6) 0.3989(6) 0.7251(2)
C50 C 0.6080(5) 0.0090(5) 0.3497(2)
C51 C 0.8846(6) 0.8880(6) 0.8843(2)
C53 C 0.8073(6) 0.5442(7) 0.7719(2)
C54 C 0.6850(7) 0.2621(6) 0.6869(3)
H22 H 0.667001 0.195701 0.686600
C57 C 0.7470(7) 0.4529(6) 0.6894(3)
H25 H 0.770499 0.520400 0.689900
C61 C 0.7089(7) 0.4076(6) 0.6552(2)
H28 H 0.708800 0.445300 0.631500
C63 C 0.8596(7) 0.8391(5) 0.8521(3)
Co4 Co 0.31901(4) 0.30030(5) 0.04427(2)
O13 O 0.4924(3) 0.2151(3) 0.63291(14)
N13 N 0.5420(3) 0.1548(3) 0.54747(16)
O14 O 0.5004(3) 0.3467(3) 0.59489(14)
O15 O 0.6675(3) 0.3362(3) 0.56591(13)
N14 N 0.8879(4) 0.2759(4) 0.59619(16)
O16 O 0.7608(3) 0.3339(3) 0.52332(12)
H33 H 0.934196 0.421858 0.905166
H35 H 0.933204 0.616492 0.952242
H38 H 0.813026 0.391261 0.788992
H39 H 0.521964 0.121845 0.229401
H41 H 0.833883 0.882344 0.825524
H42 H 0.79379 0.597492 0.747265
H43 H 0.610073 0.0916242 0.34563
H44 H 0.912249 0.842939 0.910141
O2 O 0.9924(3) 0.7151(3) 0.63291(14)
C8 C 0.7832(4) 0.9901(4) 0.63137(17)
C9 C 0.9663(4) 0.8012(5) 0.6203(2)
C10 C 0.8941(4) 0.8566(4) 0.63670(18)
H4 H 0.435999 0.997800 0.131701
C13 C 0.6830(5) 0.9781(5) 0.45846(19)
H5 H 0.671101 0.909800 0.460900
N6 N 0.5810(5) 0.8403(4) 0.32021(17)
N7 N 0.5360(5) 0.8247(4) 0.25109(17)
C22 C 0.8487(4) 0.9378(4) 0.61595(19)
H10 H 0.864201 0.958600 0.592400
N8 N 0.5571(4) 0.9890(4) 0.28030(16)
C26 C 0.5063(6) 0.9714(6) 0.2096(2)
C27 C 0.6314(5) 0.9699(5) 0.3860(2)
O11 O 0.8275(6) 0.7732(5) 0.74276(18)
H13 H 0.820896 0.765837 0.765708
C28 C 0.5848(6) 0.6243(6) 0.3241(3)
C29 C 0.5795(5) 0.9427(5) 0.31513(19)
H14 H 0.729800 0.994599 0.515100
C36 C 0.7649(5) 0.9627(6) 0.6686(2)
H17 H 0.722400 0.999399 0.678301
C40 C 0.5341(5) 0.9278(5) 0.2491(2)
C41 C 0.5585(6) 0.7866(5) 0.2875(2)
C42 C 0.8121(6) 0.8827(6) 0.6899(2)
C44 C 0.5615(6) 0.6706(6) 0.2908(2)
C48 C 0.8755(5) 0.8269(5) 0.6736(2)
H21 H 0.903100 0.769500 0.686700
N12 N 0.6091(9) 0.3021(6) 0.3449(3)
C52 C 0.5895(6) 0.5122(6) 0.3304(3)
C59 C 0.7969(7) 0.8583(8) 0.7303(3)
C62 C 0.5797(11) 0.4415(7) 0.3017(3)
H29 H 0.563400 0.464200 0.276699
C64 C 0.6087(12) 0.4751(7) 0.3675(3)
H30 H 0.630800 0.515800 0.388700
O12 O 0.7643(10) 0.9180(8) 0.7498(3)
C65 C 0.6163(13) 0.3696(8) 0.3734(4)
H31 H 0.616301 0.345201 0.396900
C66 C 0.5869(13) 0.3375(8) 0.3092(4)
H32 H 0.573100 0.290500 0.289700
H34 H 0.490623 0.920363 0.184341
H36 H 0.623118 0.887638 0.389121
H37 H 0.602746 0.672427 0.350088
H40 H 0.543372 0.624935 0.264158
O4_2 O 0.0004(3) 0.1533(3) 0.09489(14)
O6_2 O 0.1675(3) 0.1638(3) 0.06591(13)
C1_2 C 0.1558(3) 0.0311(4) 0.01736(17)
H2_2 H 0.053902 0.026001 0.047800
O10_2 O 0.2608(3) 0.1661(3) 0.02332(12)
C23_2 C 0.1969(4) 0.1284(4) 0.03711(16)
N1_2 N 0.0420(3) 0.6548(3) 0.54747(16)
C2 C 0.0406(4) 0.9019(4) 0.01098(17)
C3 C 0.0792(3) 0.9930(4) 0.02863(16)
C18_2 C 0.0277(5) 0.6924(4) 0.5108(2)
H9_2 H 0.043400 0.759900 0.507301
C33_2 C 0.0246(5) 0.5523(5) 0.55125(19)
H15_2 H 0.037100 0.524001 0.575800
Co1_2 Co 0.81901(4) 0.80030(5) 0.04427(2)
Co2_2 Co 0.60587(4) 0.75946(5) 0.09877(2)
O1_2 O 0.9302(3) 0.7725(3) 0.01042(15)
O5_2 O 0.9214(3) 0.9093(3) 0.04677(14)
O7_2 O 0.6679(3) 0.8883(3) 0.12214(12)
N4_2 N 0.8673(4) 0.4760(4) 0.34186(16)
O9_2 O 0.7560(3) 0.8934(3) 0.07793(13)
N5_2 N 0.8931(4) 0.3277(4) 0.38197(16)
C7_2 C 0.9768(4) 0.5302(4) 0.48142(19)
C12_2 C 0.8927(5) 0.4301(5) 0.37618(19)
C15_2 C 0.7328(4) 0.9243(4) 0.10879(17)
C19_2 C 0.9251(4) 0.4970(5) 0.4106(2)
C20_2 C 0.9603(4) 0.8587(4) 0.02345(18)
C24 C 0.9911(5) 0.4914(5) 0.51894(19)
H11 H 0.978700 0.423700 0.523399
N9_2 N 0.6752(4) 0.6872(4) 0.15257(16)
C32_2 C 0.9433(4) 0.4645(5) 0.4469(2)
C35_2 C 0.8642(6) 0.2737(5) 0.3495(2)
N10_2 N 0.8380(5) 0.3122(4) 0.31352(18)
C38_2 C 0.7254(7) 0.6996(7) 0.2230(2)
H18_2 H 0.733200 0.740700 0.245000
C39_2 C 0.9958(5) 0.6355(5) 0.47770(19)
H19_2 H 0.985300 0.667601 0.453000
C43_2 C 0.7942(6) 0.5559(7) 0.2645(2)
C47_2 C 0.8383(6) 0.4149(5) 0.3107(2)
C49_2 C 0.7556(6) 0.6011(6) 0.2251(2)
C51_2 C 0.8846(6) 0.1120(6) 0.3843(2)
C53_2 C 0.8073(6) 0.4558(7) 0.2719(2)
C54_2 C 0.6850(7) 0.7379(6) 0.1869(3)
H22_2 H 0.667001 0.804299 0.186600
C57_2 C 0.7470(7) 0.5471(6) 0.1894(3)
H25_2 H 0.770499 0.479600 0.189900
C61_2 C 0.7089(7) 0.5924(6) 0.1552(2)
H28_2 H 0.708800 0.554700 0.131500
C63_2 C 0.8596(7) 0.1609(5) 0.3521(3)
O13_2 O 0.4924(3) 0.7849(3) 0.13291(14)
N13_2 N 0.5420(3) 0.8452(3) 0.04747(16)
O14_2 O 0.5004(3) 0.6533(3) 0.09489(14)
O15_2 O 0.6675(3) 0.6638(3) 0.06591(13)
N14_2 N 0.8879(4) 0.7241(4) 0.09619(16)
O16_2 O 0.7608(3) 0.6661(3) 0.02332(12)
H33_2 H 0.934196 0.578142 0.405166
H35_2 H 0.933204 0.383508 0.452242
H38_2 H 0.813026 0.608739 0.288992
H41_2 H 0.833883 0.117656 0.325524
H42_2 H 0.79379 0.402508 0.247265
H44_2 H 0.912249 0.157061 0.410141
N2_2 N 0.7474(3) 0.8715(3) 0.99175(15)
N3_2 N 0.3879(4) 0.7759(4) 0.59619(16)
C6_2 C 0.6669(4) 0.9732(5) 0.92176(18)
C11_2 C 0.4337(5) 0.9301(5) 0.6318(2)
C16_2 C 0.7303(5) 0.8242(5) 0.95674(19)
H7_2 H 0.745300 0.754601 0.955300
C17_2 C 0.3966(5) 0.8775(5) 0.59897(19)
H8_2 H 0.376200 0.915300 0.575500
C21_2 C 0.4649(6) 0.8781(5) 0.6660(2)
C25_2 C 0.6923(5) 0.8705(5) 0.9225(2)
H12_2 H 0.681301 0.834399 0.898500
C30_2 C 0.4999(5) 0.9275(5) 0.7041(2)
C31_2 C 0.7212(4) 0.9704(4) 0.99119(17)
C34_2 C 0.4584(7) 0.7706(5) 0.6635(2)
H16_2 H 0.474299 0.733500 0.686500
C45_2 C 0.4210(6) 0.7254(5) 0.6288(2)
H20_2 H 0.417500 0.653100 0.628701
C50_2 C 0.6080(5) 0.9910(5) 0.8497(2)
H39_2 H 0.521964 0.878155 0.729401
H43_2 H 0.610073 0.908376 0.84563
C18_3 C 0.5277(5) 0.8076(4) 0.0108(2)
H9_3 H 0.543400 0.740100 0.007301
C33_3 C 0.5246(5) 0.9477(5) 0.05125(19)
H15_3 H 0.537100 0.975999 0.075800
O1_3 O 0.4302(3) 0.7275(3) 0.51042(15)
O3 O 0.7723(3) 0.6338(4) 0.43615(18)
H1 H 0.792379 0.674174 0.421768
O5_3 O 0.4214(3) 0.5907(3) 0.54677(14)
N2_3 N 0.2474(3) 0.6285(3) 0.49175(15)
C1_3 C 0.6558(3) 0.4689(4) 0.51736(17)
C2_2 C 0.5406(4) 0.5981(4) 0.51098(17)
C3_2 C 0.5792(3) 0.5070(4) 0.52863(16)
H2_3 H 0.553902 0.473999 0.547800
O7_3 O 0.1679(3) 0.6117(3) 0.62214(12)
C4 C 0.5784(4) 0.6457(4) 0.48152(18)
H3 H 0.551399 0.703600 0.468801
C5 C 0.6548(4) 0.6072(4) 0.47049(17)
O8 O 0.6554(4) 0.7348(4) 0.42216(17)
O9_3 O 0.2560(3) 0.6066(3) 0.57793(13)
C6_3 C 0.1669(4) 0.5268(5) 0.42176(18)
C7_3 C 0.4768(4) 0.9698(4) 0.98142(19)
C8_2 C 0.2832(4) 0.4901(4) 0.63137(17)
C9_2 C 0.4663(4) 0.3012(5) 0.6203(2)
C10_2 C 0.3941(4) 0.3566(4) 0.63670(18)
C13_2 C 0.1830(5) 0.4781(5) 0.45846(19)
H5_2 H 0.171101 0.409800 0.460900
C14 C 0.6929(4) 0.5168(4) 0.48848(18)
H6_2 H 0.741501 0.487700 0.479799
C15_3 C 0.2328(4) 0.5757(4) 0.60879(17)
N6_2 N 0.0810(5) 0.3403(4) 0.32021(17)
N7_2 N 0.0360(5) 0.3247(4) 0.25109(17)
C16_3 C 0.2303(5) 0.6758(5) 0.45674(19)
H7_3 H 0.245300 0.745399 0.455300
C20_3 C 0.4603(4) 0.6413(4) 0.52345(18)
C22_2 C 0.3487(4) 0.4378(4) 0.61595(19)
H10_2 H 0.364201 0.458600 0.592400
C23_3 C 0.6969(4) 0.3716(4) 0.53711(16)
N8_2 N 0.0571(4) 0.4890(4) 0.28030(16)
C25_3 C 0.1923(5) 0.6295(5) 0.4225(2)
H12_3 H 0.181301 0.665601 0.398500
C26_2 C 0.0063(6) 0.4714(6) 0.2096(2)
C27_2 C 0.1314(5) 0.4699(5) 0.3860(2)
O11_2 O 0.3275(6) 0.2732(5) 0.74276(18)
H13_2 H 0.320896 0.265837 0.765708
C28_2 C 0.0848(6) 0.1243(6) 0.3241(3)
N9_3 N 0.1752(4) 0.8128(4) 0.65257(16)
C29_2 C 0.0795(5) 0.4427(5) 0.31513(19)
C31_3 C 0.2212(4) 0.5296(4) 0.49119(17)
H14_2 H 0.229800 0.494599 0.515100
C36_2 C 0.2649(5) 0.4627(6) 0.6686(2)
H17_2 H 0.222400 0.499399 0.678301
C37 C 0.6936(4) 0.6645(4) 0.4411(2)
C38_3 C 0.2254(7) 0.8004(7) 0.7230(2)
H18_3 H 0.233200 0.759300 0.745000
C39_3 C 0.4958(5) 0.8645(5) 0.97770(19)
H19_3 H 0.485300 0.832399 0.953000
C40_2 C 0.0341(5) 0.4278(5) 0.2491(2)
C41_2 C 0.0585(6) 0.2866(5) 0.2875(2)
C42_2 C 0.3121(6) 0.3827(6) 0.6899(2)
C43_3 C 0.2942(6) 0.9441(7) 0.7645(2)
C44_2 C 0.0615(6) 0.1706(6) 0.2908(2)
C48_2 C 0.3755(5) 0.3269(5) 0.6736(2)
H21_2 H 0.403100 0.269500 0.686700
C49_3 C 0.2556(6) 0.8989(6) 0.7251(2)
C50_3 C 0.1080(5) 0.5090(5) 0.3497(2)
C52_2 C 0.0895(6) 0.0122(6) 0.3304(3)
C54_3 C 0.1850(7) 0.7621(6) 0.6869(3)
H22_3 H 0.167001 0.695701 0.686600
C57_3 C 0.2470(7) 0.9529(6) 0.6894(3)
C59_2 C 0.2969(7) 0.3583(8) 0.7303(3)
C61_3 C 0.2089(7) 0.9076(6) 0.6552(2)
H28_3 H 0.208800 0.945300 0.631500
H30_2 H 0.130800 0.015800 0.388700
O12_2 O 0.2643(10) 0.4180(8) 0.7498(3)
H33_3 H 0.434196 0.921858 0.905166
H36_2 H 0.123118 0.387638 0.389121
H37_2 H 0.102746 0.172427 0.350088
H38_3 H 0.313026 0.891261 0.788992
H39_3 H 0.0219641 0.621845 0.229401
H40_2 H 0.0433715 0.124935 0.264158
H43_3 H 0.110073 0.591624 0.34563
C11_3 C 0.9337(5) 0.5699(5) 0.1318(2)
H4_2 H 0.935999 0.497800 0.131701
C17_3 C 0.8966(5) 0.6225(5) 0.09897(19)
H8_3 H 0.876200 0.584700 0.075500
C21_3 C 0.9649(6) 0.6219(5) 0.1660(2)
C30_3 C 0.9999(5) 0.5725(5) 0.2041(2)
C34_3 C 0.9584(7) 0.7294(5) 0.1635(2)
H16_3 H 0.974299 0.766500 0.186500
C45_3 C 0.9210(6) 0.7746(5) 0.1288(2)
H20_3 H 0.917500 0.846900 0.128701
H34_2 H 0.990623 0.420363 0.184341
O1_4 O 0.4302(3) 0.2725(3) 0.01042(15)
O5_4 O 0.4214(3) 0.4093(3) 0.04677(14)
C1_4 C 0.6558(3) 0.5311(4) 0.01736(17)
C2_3 C 0.5406(4) 0.4019(4) 0.01098(17)
C3_3 C 0.5792(3) 0.4930(4) 0.02863(16)
H2_4 H 0.553902 0.526001 0.047800
O7_4 O 0.1679(3) 0.3883(3) 0.12214(12)
O9_4 O 0.2560(3) 0.3934(3) 0.07793(13)
C7_4 C 0.4768(4) 0.0302(4) 0.48142(19)
C8_3 C 0.2832(4) 0.5099(4) 0.13137(17)
C9_3 C 0.4663(4) 0.6988(5) 0.1203(2)
C10_3 C 0.3941(4) 0.6434(4) 0.13670(18)
C15_4 C 0.2328(4) 0.4243(4) 0.10879(17)
C18_4 C 0.5277(5) 0.1924(4) 0.5108(2)
H9_4 H 0.543400 0.259900 0.507301
C20_4 C 0.4603(4) 0.3587(4) 0.02345(18)
C22_3 C 0.3487(4) 0.5622(4) 0.11595(19)
H10_3 H 0.364201 0.541400 0.092400
C23_4 C 0.6969(4) 0.6284(4) 0.03711(16)
O11_3 O 0.3275(6) 0.7268(5) 0.24276(18)
H13_3 H 0.320896 0.734163 0.265708
N9_4 N 0.1752(4) 0.1872(4) 0.15257(16)
H14_3 H 0.229800 0.505401 0.015100
C33_4 C 0.5246(5) 0.0523(5) 0.55125(19)
H15_4 H 0.537100 0.024001 0.575800
C36_3 C 0.2649(5) 0.5373(6) 0.1686(2)
H17_3 H 0.222400 0.500601 0.178301
C38_4 C 0.2254(7) 0.1996(7) 0.2230(2)
H18_4 H 0.233200 0.240700 0.245000
C39_4 C 0.4958(5) 0.1355(5) 0.47770(19)
H19_4 H 0.485300 0.167601 0.453000
C42_3 C 0.3121(6) 0.6173(6) 0.1899(2)
C43_4 C 0.2942(6) 0.0559(7) 0.2645(2)
C48_3 C 0.3755(5) 0.6731(5) 0.1736(2)
H21_3 H 0.403100 0.730500 0.186700
C49_4 C 0.2556(6) 0.1011(6) 0.2251(2)
C54_4 C 0.1850(7) 0.2379(6) 0.1869(3)
H22_4 H 0.167001 0.304299 0.186600
C57_4 C 0.2470(7) 0.0471(6) 0.1894(3)
C59_3 C 0.2969(7) 0.6417(8) 0.2303(3)
C61_4 C 0.2089(7) 0.0924(6) 0.1552(2)
H28_4 H 0.208800 0.054700 0.131500
O12_3 O 0.2643(10) 0.5820(8) 0.2498(3)
H33_4 H 0.434196 0.0781421 0.405166
H38_4 H 0.313026 0.108739 0.288992
C11_4 C 0.9337(5) 0.4301(5) 0.6318(2)
H4_3 H 0.935999 0.502200 0.631701
C17_4 C 0.8966(5) 0.3775(5) 0.59897(19)
H8_4 H 0.876200 0.415300 0.575500
C21_4 C 0.9649(6) 0.3781(5) 0.6660(2)
C30_4 C 0.9999(5) 0.4275(5) 0.7041(2)
C34_4 C 0.9584(7) 0.2706(5) 0.6635(2)
H16_4 H 0.974299 0.233500 0.686500
C45_4 C 0.9210(6) 0.2254(5) 0.6288(2)
H20_4 H 0.917500 0.153100 0.628701
H34_3 H 0.990623 0.579637 0.684341
O3_2 O 0.2723(3) 0.1338(4) 0.43615(18)
H1_2 H 0.292379 0.174174 0.421768
C2_4 C 0.0406(4) 0.0981(4) 0.51098(17)
C3_4 C 0.0792(3) 0.0070(4) 0.52863(16)
C4_2 C 0.0784(4) 0.1457(4) 0.48152(18)
H3_2 H 0.051399 0.203600 0.468801
C5_2 C 0.1548(4) 0.1072(4) 0.47049(17)
O8_2 O 0.1554(4) 0.2348(4) 0.42216(17)
C14_2 C 0.1929(4) 0.0168(4) 0.48848(18)
C37_2 C 0.1936(4) 0.1645(4) 0.4411(2)
C46 C 0.8793(6) 0.0027(6) 0.8898(3)
N11 N 0.8500(6) 0.2125(5) 0.9020(3)
C55 C 0.8538(8) 0.0694(6) 0.8586(3)
H23 H 0.851301 0.044498 0.833500
C56 C 0.8929(6) 0.0433(6) 0.9280(3)
H24 H 0.910600 0.001999 0.949699
C58 C 0.8390(8) 0.1728(7) 0.8656(3)
H26 H 0.820601 0.215200 0.843400
C60 C 0.8766(7) 0.1454(7) 0.9320(3)
H27 H 0.883600 0.174400 0.956699
C24_2 C 0.9911(5) 0.5086(5) 0.01894(19)
H11_2 H 0.978700 0.576300 0.023399
H6_3 H 0.241501 0.012300 0.979799
O3_3 O 0.2723(3) 0.8662(4) 0.93615(18)
H1_3 H 0.292379 0.825826 0.921768
C4_3 C 0.0784(4) 0.8543(4) 0.98152(18)
H3_3 H 0.051399 0.796400 0.968801
C5_3 C 0.1548(4) 0.8928(4) 0.97049(17)
O8_3 O 0.1554(4) 0.7652(4) 0.92216(17)
C14_3 C 0.1929(4) 0.9832(4) 0.98848(18)
C37_3 C 0.1936(4) 0.8355(4) 0.9411(2)
O2_2 O 0.9924(3) 0.2849(3) 0.13291(14)
C8_4 C 0.7832(4) 0.0099(4) 0.13137(17)
C9_4 C 0.9663(4) 0.1988(5) 0.1203(2)
C10_4 C 0.8941(4) 0.1434(4) 0.13670(18)
C22_4 C 0.8487(4) 0.0622(4) 0.11595(19)
H10_4 H 0.864201 0.041400 0.092400
O11_4 O 0.8275(6) 0.2268(5) 0.24276(18)
H13_4 H 0.820896 0.234163 0.265708
H14_4 H 0.729800 0.005401 0.015100
C36_4 C 0.7649(5) 0.0373(6) 0.1686(2)
H17_4 H 0.722400 0.000601 0.178301
C42_4 C 0.8121(6) 0.1173(6) 0.1899(2)
C48_4 C 0.8755(5) 0.1731(5) 0.1736(2)
H21_4 H 0.903100 0.230500 0.186700
C59_4 C 0.7969(7) 0.1417(8) 0.2303(3)
O12_4 O 0.7643(10) 0.0820(8) 0.2498(3)
H4_4 H 0.435999 0.002200 0.631701
C13_3 C 0.6830(5) 0.0219(5) 0.95846(19)
H5_3 H 0.671101 0.090200 0.960900
N6_3 N 0.5810(5) 0.1597(4) 0.82021(17)
N7_3 N 0.5360(5) 0.1753(4) 0.75109(17)
N8_3 N 0.5571(4) 0.0110(4) 0.78030(16)
C26_3 C 0.5063(6) 0.0286(6) 0.7096(2)
C27_3 C 0.6314(5) 0.0301(5) 0.8860(2)
C28_3 C 0.5848(6) 0.3757(6) 0.8241(3)
C29_3 C 0.5795(5) 0.0573(5) 0.81513(19)
C40_3 C 0.5341(5) 0.0722(5) 0.7491(2)
C41_3 C 0.5585(6) 0.2134(5) 0.7875(2)
C44_3 C 0.5615(6) 0.3294(6) 0.7908(2)
N12_2 N 0.6091(9) 0.6979(6) 0.8449(3)
C52_3 C 0.5895(6) 0.4878(6) 0.8304(3)
C62_2 C 0.5797(11) 0.5585(7) 0.8017(3)
H29_2 H 0.563400 0.535800 0.776699
C64_2 C 0.6087(12) 0.5249(7) 0.8675(3)
H30_3 H 0.630800 0.484200 0.888700
C65_2 C 0.6163(13) 0.6304(8) 0.8734(4)
H31_2 H 0.616301 0.654799 0.896900
C66_2 C 0.5869(13) 0.6625(8) 0.8092(4)
H32_2 H 0.573100 0.709500 0.789700
H34_4 H 0.490623 0.0796373 0.684341
H36_3 H 0.623118 0.112362 0.889121
H37_3 H 0.602746 0.327573 0.850088
H40_3 H 0.543372 0.375065 0.764158
C46_2 C 0.8793(6) 0.9973(6) 0.3898(3)
N11_2 N 0.8500(6) 0.7875(5) 0.4020(3)
C55_2 C 0.8538(8) 0.9306(6) 0.3586(3)
H23_2 H 0.851301 0.955502 0.333500
C56_2 C 0.8929(6) 0.9567(6) 0.4280(3)
H24_2 H 0.910600 0.998001 0.449699
C58_2 C 0.8390(8) 0.8272(7) 0.3656(3)
H26_2 H 0.820601 0.784800 0.343400
C60_2 C 0.8766(7) 0.8546(7) 0.4320(3)
H27_2 H 0.883600 0.825600 0.456699
C24_3 C 0.4911(5) 0.0086(5) 0.01894(19)
H11_3 H 0.478700 0.076300 0.023399
N4_3 N 0.3673(4) 0.0240(4) 0.84186(16)
N5_3 N 0.3931(4) 0.1723(4) 0.88197(16)
C12_3 C 0.3927(5) 0.0699(5) 0.87618(19)
C19_3 C 0.4251(4) 0.0030(5) 0.9106(2)
C32_3 C 0.4433(4) 0.0355(5) 0.9469(2)
C35_3 C 0.3642(6) 0.2263(5) 0.8495(2)
N10_3 N 0.3380(5) 0.1878(4) 0.81352(18)
C46_3 C 0.3793(6) 0.5027(6) 0.8898(3)
C47_3 C 0.3383(6) 0.0851(5) 0.8107(2)
N11_3 N 0.3500(6) 0.7125(5) 0.9020(3)
C51_3 C 0.3846(6) 0.3880(6) 0.8843(2)
C53_3 C 0.3073(6) 0.0442(7) 0.7719(2)
C55_3 C 0.3538(8) 0.5694(6) 0.8586(3)
H23_3 H 0.351301 0.544498 0.833500
C56_3 C 0.3929(6) 0.5433(6) 0.9280(3)
H24_3 H 0.410600 0.501999 0.949699
H25_3 H 0.270499 0.020400 0.689900
C58_3 C 0.3390(8) 0.6728(7) 0.8656(3)
H26_3 H 0.320601 0.715200 0.843400
C60_3 C 0.3766(7) 0.6454(7) 0.9320(3)
H27_3 H 0.383600 0.674400 0.956699
C63_3 C 0.3596(7) 0.3391(5) 0.8521(3)
H35_3 H 0.433204 0.116492 0.952242
H41_3 H 0.333883 0.382344 0.825524
H42_3 H 0.29379 0.0974924 0.747265
H44_3 H 0.412249 0.342939 0.910141
N12_3 N 0.1091(9) 0.8021(6) 0.3449(3)
C62_3 C 0.0797(11) 0.9415(7) 0.3017(3)
H29_3 H 0.063400 0.964200 0.276699
C64_3 C 0.1087(12) 0.9751(7) 0.3675(3)
C65_3 C 0.1163(13) 0.8696(8) 0.3734(4)
H31_3 H 0.116301 0.845201 0.396900
C66_3 C 0.0869(13) 0.8375(8) 0.3092(4)
H32_3 H 0.073100 0.790500 0.289700
N12_4 N 0.1091(9) 0.1979(6) 0.8449(3)
C62_4 C 0.0797(11) 0.0585(7) 0.8017(3)
H29_4 H 0.063400 0.035800 0.776699
C64_4 C 0.1087(12) 0.0249(7) 0.8675(3)
C65_4 C 0.1163(13) 0.1304(8) 0.8734(4)
H31_4 H 0.116301 0.154799 0.896900
C66_4 C 0.0869(13) 0.1625(8) 0.8092(4)
H32_4 H 0.073100 0.209500 0.789700
O3_4 O 0.7723(3) 0.3662(4) 0.93615(18)
H1_4 H 0.792379 0.325826 0.921768
N2_4 N 0.2474(3) 0.3715(3) 0.99175(15)
C4_4 C 0.5784(4) 0.3543(4) 0.98152(18)
H3_4 H 0.551399 0.296400 0.968801
C5_4 C 0.6548(4) 0.3928(4) 0.97049(17)
O8_4 O 0.6554(4) 0.2652(4) 0.92216(17)
C6_4 C 0.1669(4) 0.4732(5) 0.92176(18)
C13_4 C 0.1830(5) 0.5219(5) 0.95846(19)
H5_4 H 0.171101 0.590200 0.960900
C14_4 C 0.6929(4) 0.4832(4) 0.98848(18)
H6_4 H 0.741501 0.512300 0.979799
N6_4 N 0.0810(5) 0.6597(4) 0.82021(17)
N7_4 N 0.0360(5) 0.6753(4) 0.75109(17)
C16_4 C 0.2303(5) 0.3242(5) 0.95674(19)
H7_4 H 0.245300 0.254601 0.955300
N8_4 N 0.0571(4) 0.5110(4) 0.78030(16)
C25_4 C 0.1923(5) 0.3705(5) 0.9225(2)
H12_4 H 0.181301 0.334399 0.898500
C26_4 C 0.0063(6) 0.5286(6) 0.7096(2)
C27_4 C 0.1314(5) 0.5301(5) 0.8860(2)
C28_4 C 0.0848(6) 0.8757(6) 0.8241(3)
C29_4 C 0.0795(5) 0.5573(5) 0.81513(19)
C31_4 C 0.2212(4) 0.4704(4) 0.99119(17)
C37_4 C 0.6936(4) 0.3355(4) 0.9411(2)
C40_4 C 0.0341(5) 0.5722(5) 0.7491(2)
C41_4 C 0.0585(6) 0.7134(5) 0.7875(2)
C44_4 C 0.0615(6) 0.8294(6) 0.7908(2)
C50_4 C 0.1080(5) 0.4910(5) 0.8497(2)
C52_4 C 0.0895(6) 0.9878(6) 0.8304(3)
H30_4 H 0.130800 0.984200 0.888700
H36_4 H 0.123118 0.612362 0.889121
H37_4 H 0.102746 0.827573 0.850088
H39_4 H 0.0219641 0.378155 0.729401
H40_4 H 0.0433715 0.875065 0.764158
H43_4 H 0.110073 0.408376 0.84563
N4_4 N 0.3673(4) 0.9760(4) 0.34186(16)
N5_4 N 0.3931(4) 0.8277(4) 0.38197(16)
C12_4 C 0.3927(5) 0.9301(5) 0.37618(19)
C19_4 C 0.4251(4) 0.9970(5) 0.4106(2)
C24_4 C 0.4911(5) 0.9914(5) 0.51894(19)
H11_4 H 0.478700 0.923700 0.523399
C32_4 C 0.4433(4) 0.9645(5) 0.4469(2)
C35_4 C 0.3642(6) 0.7737(5) 0.3495(2)
N10_4 N 0.3380(5) 0.8122(4) 0.31352(18)
C46_4 C 0.3793(6) 0.4973(6) 0.3898(3)
C47_4 C 0.3383(6) 0.9149(5) 0.3107(2)
N11_4 N 0.3500(6) 0.2875(5) 0.4020(3)
C51_4 C 0.3846(6) 0.6120(6) 0.3843(2)
C53_4 C 0.3073(6) 0.9558(7) 0.2719(2)
C55_4 C 0.3538(8) 0.4306(6) 0.3586(3)
H23_4 H 0.351301 0.455502 0.333500
C56_4 C 0.3929(6) 0.4567(6) 0.4280(3)
H24_4 H 0.410600 0.498001 0.449699
H25_4 H 0.270499 0.979600 0.189900
C58_4 C 0.3390(8) 0.3272(7) 0.3656(3)
H26_4 H 0.320601 0.284800 0.343400
C60_4 C 0.3766(7) 0.3546(7) 0.4320(3)
H27_4 H 0.383600 0.325600 0.456699
C63_4 C 0.3596(7) 0.6609(5) 0.3521(3)
H35_4 H 0.433204 0.883508 0.452242
H41_4 H 0.333883 0.617656 0.325524
H42_4 H 0.29379 0.902508 0.247265
H44_4 H 0.412249 0.657061 0.410141
loop_
_geom_bond_atom_site_label_1
_geom_bond_atom_site_label_2
_geom_bond_site_symmetry_1
_geom_bond_site_symmetry_2
N1 C18 1_555 1_555
C18 H9 1_555 1_555
C33 N1 1_555 1_555
H15 C33 1_555 1_555
Co6 N1 1_555 1_555
O6 C23 1_555 1_555
O10 C23 1_555 1_555
C23 C1 1_555 1_555
Co3 O10 1_555 1_555
O4 Co5 1_555 1_555
O6 Co5 1_555 1_555
Co1 O1 1_555 1_555
Co2 O7 1_555 1_555
O1 C20 1_555 1_555
O5 Co1 1_555 1_555
N2 Co1 1_555 1_555
N3 C17 1_555 1_555
O7 C15 1_555 1_555
N4 C12 1_555 1_555
O9 Co1 1_555 1_555
N5 C12 1_555 1_555
C12 C19 1_555 1_555
C15 O9 1_555 1_555
C16 N2 1_555 1_555
H7 C16 1_555 1_555
C17 C11 1_555 1_555
H8 C17 1_555 1_555
C19 C32 1_555 1_555
C20 O5 1_555 1_555
C21 C11 1_555 1_555
C25 C6 1_555 1_555
H12 C25 1_555 1_555
N9 Co2 1_555 1_555
C30 C21 1_555 1_555
C31 N2 1_555 1_555
C32 C7 1_555 1_555
C34 C21 1_555 1_555
H16 C34 1_555 1_555
C35 N5 1_555 1_555
N10 C35 1_555 1_555
C38 H18 1_555 1_555
C39 C7 1_555 1_555
H19 C39 1_555 1_555
C43 C49 1_555 1_555
C45 N3 1_555 1_555
H20 C45 1_555 1_555
C47 N4 1_555 1_555
C49 C38 1_555 1_555
C51 C63 1_555 1_555
C53 C43 1_555 1_555
C54 N9 1_555 1_555
H22 C54 1_555 1_555
C57 C49 1_555 1_555
H25 C57 1_555 1_555
C61 N9 1_555 1_555
H28 C61 1_555 1_555
C63 C35 1_555 1_555
Co4 N3 1_555 1_555
O13 Co2 1_555 1_555
N13 Co2 1_555 1_555
O14 Co2 1_555 1_555
O15 Co2 1_555 1_555
N14 Co1 1_555 1_555
O16 Co1 1_555 1_555
C16 C25 1_555 1_555
C34 C45 1_555 1_555
N10 C47 1_555 1_555
C38 C54 1_555 1_555
C47 C53 1_555 1_555
C57 C61 1_555 1_555
C19 H33 1_555 1_555
C32 H35 1_555 1_555
C43 H38 1_555 1_555
C30 H39 1_555 1_555
C63 H41 1_555 1_555
C53 H42 1_555 1_555
C50 H43 1_555 1_555
C51 H44 1_555 1_555
O2 C9 1_555 1_555
C9 C10 1_555 1_555
C10 C22 1_555 1_555
C13 H5 1_555 1_555
N6 C29 1_555 1_555
N7 C40 1_555 1_555
C22 C8 1_555 1_555
H10 C22 1_555 1_555
N8 C29 1_555 1_555
O11 H13 1_555 1_555
C28 C44 1_555 1_555
C36 C8 1_555 1_555
H17 C36 1_555 1_555
C40 N8 1_555 1_555
C41 N6 1_555 1_555
C42 C36 1_555 1_555
C44 C41 1_555 1_555
C48 C10 1_555 1_555
H21 C48 1_555 1_555
N12 C65 1_555 1_555
C52 C28 1_555 1_555
C59 O11 1_555 1_555
C62 C52 1_555 1_555
H29 C62 1_555 1_555
C64 C52 1_555 1_555
H30 C64 1_555 1_555
O12 C59 1_555 1_555
C65 C64 1_555 1_555
H31 C65 1_555 1_555
C66 N12 1_555 1_555
H32 C66 1_555 1_555
N7 C41 1_555 1_555
C26 C40 1_555 1_555
C42 C48 1_555 1_555
C42 C59 1_555 1_555
C62 C66 1_555 1_555
C26 H34 1_555 1_555
C27 H36 1_555 1_555
C28 H37 1_555 1_555
C44 H40 1_555 1_555
O6_2 C23_2 1_555 1_555
O10_2 C23_2 1_555 1_555
C23_2 C1_2 1_555 1_555
Co4 O10_2 1_555 1_555
O4_2 Co6 1_555 1_555
O6_2 Co6 1_555 1_555
N1_2 C18_2 1_555 1_555
C2 C3 1_555 1_555
C18_2 H9_2 1_555 1_555
C33_2 N1_2 1_555 1_555
H15_2 C33_2 1_555 1_555
Co5 N1_2 1_555 1_555
Co1_2 O1_2 1_555 1_555
Co2_2 O7_2 1_555 1_555
O1_2 C20_2 1_555 1_555
O5_2 Co1_2 1_555 1_555
O7_2 C15_2 1_555 1_555
N4_2 C12_2 1_555 1_555
O9_2 Co1_2 1_555 1_555
N5_2 C12_2 1_555 1_555
C7_2 C24 1_555 1_555
C12_2 C19_2 1_555 1_555
C15_2 O9_2 1_555 1_555
C19_2 C32_2 1_555 1_555
C20_2 O5_2 1_555 1_555
C24 H11 1_555 1_555
N9_2 Co2_2 1_555 1_555
C32_2 C7_2 1_555 1_555
C35_2 N5_2 1_555 1_555
N10_2 C35_2 1_555 1_555
C38_2 H18_2 1_555 1_555
C39_2 C7_2 1_555 1_555
H19_2 C39_2 1_555 1_555
C43_2 C49_2 1_555 1_555
C47_2 N4_2 1_555 1_555
C49_2 C38_2 1_555 1_555
C51_2 C63_2 1_555 1_555
C53_2 C43_2 1_555 1_555
C54_2 N9_2 1_555 1_555
H22_2 C54_2 1_555 1_555
C57_2 C49_2 1_555 1_555
H25_2 C57_2 1_555 1_555
C61_2 N9_2 1_555 1_555
H28_2 C61_2 1_555 1_555
C63_2 C35_2 1_555 1_555
O13_2 Co2_2 1_555 1_555
N13_2 Co2_2 1_555 1_555
O14_2 Co2_2 1_555 1_555
O15_2 Co2_2 1_555 1_555
N14_2 Co1_2 1_555 1_555
O16_2 Co1_2 1_555 1_555
N10_2 C47_2 1_555 1_555
C38_2 C54_2 1_555 1_555
C47_2 C53_2 1_555 1_555
C57_2 C61_2 1_555 1_555
C19_2 H33_2 1_555 1_555
C32_2 H35_2 1_555 1_555
C43_2 H38_2 1_555 1_555
C63_2 H41_2 1_555 1_555
C53_2 H42_2 1_555 1_555
C51_2 H44_2 1_555 1_555
N3_2 C17_2 1_555 1_555
C16_2 N2_2 1_555 1_555
H7_2 C16_2 1_555 1_555
C17_2 C11_2 1_555 1_555
H8_2 C17_2 1_555 1_555
C21_2 C11_2 1_555 1_555
C25_2 C6_2 1_555 1_555
H12_2 C25_2 1_555 1_555
C30_2 C21_2 1_555 1_555
C31_2 N2_2 1_555 1_555
C34_2 C21_2 1_555 1_555
H16_2 C34_2 1_555 1_555
C45_2 N3_2 1_555 1_555
H20_2 C45_2 1_555 1_555
Co3 N3_2 1_555 1_555
C16_2 C25_2 1_555 1_555
C34_2 C45_2 1_555 1_555
C30_2 H39_2 1_555 1_555
C50_2 H43_2 1_555 1_555
N13_2 C18_3 1_555 1_555
C18_3 H9_3 1_555 1_555
C33_3 N13_2 1_555 1_555
H15_3 C33_3 1_555 1_555
Co3 O1_3 1_555 1_555
Co5 O7_3 1_555 1_555
O1_3 C20_3 1_555 1_555
O13 C9_2 1_555 1_555
O3 H1 1_555 1_555
O14 C9_2 1_555 1_555
O5_3 Co3 1_555 1_555
N2_3 Co3 1_555 1_555
O15 C23_3 1_555 1_555
C1_3 C3_2 1_555 1_555
C2_2 C3_2 1_555 1_555
C3_2 H2_3 1_555 1_555
O7_3 C15_3 1_555 1_555
C4 C2_2 1_555 1_555
H3 C4 1_555 1_555
C5 C4 1_555 1_555
O8 C37 1_555 1_555
O9_3 Co3 1_555 1_555
C6_3 C13_2 1_555 1_555
C8_2 C15_3 1_555 1_555
O16 C23_3 1_555 1_555
C9_2 C10_2 1_555 1_555
C10_2 C22_2 1_555 1_555
C13_2 H5_2 1_555 1_555
C14 C1_3 1_555 1_555
H6_2 C14 1_555 1_555
C15_3 O9_3 1_555 1_555
N6_2 C29_2 1_555 1_555
N7_2 C40_2 1_555 1_555
C16_3 N2_3 1_555 1_555
H7_3 C16_3 1_555 1_555
C20_3 O5_3 1_555 1_555
C22_2 C8_2 1_555 1_555
H10_2 C22_2 1_555 1_555
C23_3 C1_3 1_555 1_555
N8_2 C29_2 1_555 1_555
C25_3 C6_3 1_555 1_555
H12_3 C25_3 1_555 1_555
C27_2 C6_3 1_555 1_555
O11_2 H13_2 1_555 1_555
C28_2 C44_2 1_555 1_555
N9_3 Co5 1_555 1_555
C29_2 C50_3 1_555 1_555
C31_3 N2_3 1_555 1_555
H14_2 C31_3 1_555 1_555
C36_2 C8_2 1_555 1_555
H17_2 C36_2 1_555 1_555
C37 O3 1_555 1_555
C38_3 H18_3 1_555 1_555
C39_3 C7_3 1_555 1_555
H19_3 C39_3 1_555 1_555
C40_2 N8_2 1_555 1_555
C41_2 N6_2 1_555 1_555
C42_2 C36_2 1_555 1_555
C43_3 C49_3 1_555 1_555
C44_2 C41_2 1_555 1_555
C48_2 C10_2 1_555 1_555
H21_2 C48_2 1_555 1_555
C49_3 C38_3 1_555 1_555
C50_3 C27_2 1_555 1_555
C52_2 C28_2 1_555 1_555
C54_3 N9_3 1_555 1_555
H22_3 C54_3 1_555 1_555
C57_3 C49_3 1_555 1_555
C59_2 O11_2 1_555 1_555
C61_3 N9_3 1_555 1_555
H28_3 C61_3 1_555 1_555
O12_2 C59_2 1_555 1_555
C2_2 C20_3 1_555 1_555
C5 C14 1_555 1_555
C5 C37 1_555 1_555
C13_2 C31_3 1_555 1_555
N7_2 C41_2 1_555 1_555
C16_3 C25_3 1_555 1_555
C26_2 C40_2 1_555 1_555
C38_3 C54_3 1_555 1_555
C42_2 C48_2 1_555 1_555
C42_2 C59_2 1_555 1_555
C57_3 C61_3 1_555 1_555
C27_2 H36_2 1_555 1_555
C28_2 H37_2 1_555 1_555
C43_3 H38_3 1_555 1_555
C44_2 H40_2 1_555 1_555
C50_3 H43_3 1_555 1_555
N14_2 C17_3 1_555 1_555
C11_3 H4_2 1_555 1_555
C17_3 C11_3 1_555 1_555
H8_3 C17_3 1_555 1_555
C21_3 C11_3 1_555 1_555
C30_3 C21_3 1_555 1_555
C34_3 C21_3 1_555 1_555
H16_3 C34_3 1_555 1_555
C45_3 N14_2 1_555 1_555
H20_3 C45_3 1_555 1_555
C34_3 C45_3 1_555 1_555
Co4 O1_4 1_555 1_555
Co6 O7_4 1_555 1_555
O1_4 C20_4 1_555 1_555
O13_2 C9_3 1_555 1_555
N13 C18_4 1_555 1_555
O14_2 C9_3 1_555 1_555
O5_4 Co4 1_555 1_555
O15_2 C23_4 1_555 1_555
C1_4 C3_3 1_555 1_555
C2_3 C3_3 1_555 1_555
C3_3 H2_4 1_555 1_555
O7_4 C15_4 1_555 1_555
O9_4 Co4 1_555 1_555
C8_3 C15_4 1_555 1_555
O16_2 C23_4 1_555 1_555
C9_3 C10_3 1_555 1_555
C10_3 C22_3 1_555 1_555
C15_4 O9_4 1_555 1_555
C18_4 H9_4 1_555 1_555
C20_4 O5_4 1_555 1_555
C22_3 C8_3 1_555 1_555
H10_3 C22_3 1_555 1_555
C23_4 C1_4 1_555 1_555
O11_3 H13_3 1_555 1_555
N9_4 Co6 1_555 1_555
C33_4 N13 1_555 1_555
H15_4 C33_4 1_555 1_555
C36_3 C8_3 1_555 1_555
H17_3 C36_3 1_555 1_555
C38_4 H18_4 1_555 1_555
C39_4 C7_4 1_555 1_555
H19_4 C39_4 1_555 1_555
C42_3 C36_3 1_555 1_555
C43_4 C49_4 1_555 1_555
C48_3 C10_3 1_555 1_555
H21_3 C48_3 1_555 1_555
C49_4 C38_4 1_555 1_555
C54_4 N9_4 1_555 1_555
H22_4 C54_4 1_555 1_555
C57_4 C49_4 1_555 1_555
C59_3 O11_3 1_555 1_555
C61_4 N9_4 1_555 1_555
H28_4 C61_4 1_555 1_555
O12_3 C59_3 1_555 1_555
C2_3 C20_4 1_555 1_555
C18_4 C39_4 1_555 1_555
C38_4 C54_4 1_555 1_555
C42_3 C48_3 1_555 1_555
C42_3 C59_3 1_555 1_555
C57_4 C61_4 1_555 1_555
C43_4 H38_4 1_555 1_555
N14 C17_4 1_555 1_555
C11_4 H4_3 1_555 1_555
C17_4 C11_4 1_555 1_555
H8_4 C17_4 1_555 1_555
C21_4 C11_4 1_555 1_555
C30_4 C21_4 1_555 1_555
C34_4 C21_4 1_555 1_555
H16_4 C34_4 1_555 1_555
C45_4 N14 1_555 1_555
H20_4 C45_4 1_555 1_555
C34_4 C45_4 1_555 1_555
O3_2 H1_2 1_555 1_555
C2_4 C3_4 1_555 1_555
C4_2 C2_4 1_555 1_555
H3_2 C4_2 1_555 1_555
C5_2 C4_2 1_555 1_555
O8_2 C37_2 1_555 1_555
C37_2 O3_2 1_555 1_555
C5_2 C14_2 1_555 1_555
C5_2 C37_2 1_555 1_555
N11 C58 1_555 1_555
C55 C46 1_555 1_555
H23 C55 1_555 1_555
C56 C46 1_555 1_555
H24 C56 1_555 1_555
C58 C55 1_555 1_555
H26 C58 1_555 1_555
C60 N11 1_555 1_555
H27 C60 1_555 1_555
C56 C60 1_555 1_555
C24_2 H11_2 1_555 1_555
O3_3 H1_3 1_555 1_555
H3_3 C4_3 1_555 1_555
C5_3 C4_3 1_555 1_555
O8_3 C37_3 1_555 1_555
C37_3 O3_3 1_555 1_555
C5_3 C14_3 1_555 1_555
C5_3 C37_3 1_555 1_555
O2_2 C9_4 1_555 1_555
C9_4 C10_4 1_555 1_555
C10_4 C22_4 1_555 1_555
C22_4 C8_4 1_555 1_555
H10_4 C22_4 1_555 1_555
O11_4 H13_4 1_555 1_555
C36_4 C8_4 1_555 1_555
H17_4 C36_4 1_555 1_555
C42_4 C36_4 1_555 1_555
C48_4 C10_4 1_555 1_555
H21_4 C48_4 1_555 1_555
C59_4 O11_4 1_555 1_555
O12_4 C59_4 1_555 1_555
C42_4 C48_4 1_555 1_555
C42_4 C59_4 1_555 1_555
C13_3 H5_3 1_555 1_555
N6_3 C29_3 1_555 1_555
N7_3 C40_3 1_555 1_555
N8_3 C29_3 1_555 1_555
C28_3 C44_3 1_555 1_555
C40_3 N8_3 1_555 1_555
C41_3 N6_3 1_555 1_555
C44_3 C41_3 1_555 1_555
N12_2 C65_2 1_555 1_555
C52_3 C28_3 1_555 1_555
C62_2 C52_3 1_555 1_555
H29_2 C62_2 1_555 1_555
C64_2 C52_3 1_555 1_555
H30_3 C64_2 1_555 1_555
C65_2 C64_2 1_555 1_555
H31_2 C65_2 1_555 1_555
C66_2 N12_2 1_555 1_555
H32_2 C66_2 1_555 1_555
N7_3 C41_3 1_555 1_555
C26_3 C40_3 1_555 1_555
C62_2 C66_2 1_555 1_555
C26_3 H34_4 1_555 1_555
C27_3 H36_3 1_555 1_555
C28_3 H37_3 1_555 1_555
C44_3 H40_3 1_555 1_555
N11_2 C58_2 1_555 1_555
C55_2 C46_2 1_555 1_555
H23_2 C55_2 1_555 1_555
C56_2 C46_2 1_555 1_555
H24_2 C56_2 1_555 1_555
C58_2 C55_2 1_555 1_555
H26_2 C58_2 1_555 1_555
C60_2 N11_2 1_555 1_555
H27_2 C60_2 1_555 1_555
C56_2 C60_2 1_555 1_555
C24_3 H11_3 1_555 1_555
N4_3 C12_3 1_555 1_555
N5_3 C12_3 1_555 1_555
C12_3 C19_3 1_555 1_555
C19_3 C32_3 1_555 1_555
C35_3 N5_3 1_555 1_555
N10_3 C35_3 1_555 1_555
C46_3 C51_3 1_555 1_555
C47_3 N4_3 1_555 1_555
N11_3 C58_3 1_555 1_555
C51_3 C63_3 1_555 1_555
C55_3 C46_3 1_555 1_555
H23_3 C55_3 1_555 1_555
C56_3 C46_3 1_555 1_555
H24_3 C56_3 1_555 1_555
C58_3 C55_3 1_555 1_555
H26_3 C58_3 1_555 1_555
C60_3 N11_3 1_555 1_555
H27_3 C60_3 1_555 1_555
C63_3 C35_3 1_555 1_555
N10_3 C47_3 1_555 1_555
C47_3 C53_3 1_555 1_555
C56_3 C60_3 1_555 1_555
C32_3 H35_3 1_555 1_555
C63_3 H41_3 1_555 1_555
C53_3 H42_3 1_555 1_555
C51_3 H44_3 1_555 1_555
N12_3 C65_3 1_555 1_555
H29_3 C62_3 1_555 1_555
C65_3 C64_3 1_555 1_555
H31_3 C65_3 1_555 1_555
C66_3 N12_3 1_555 1_555
H32_3 C66_3 1_555 1_555
C62_3 C66_3 1_555 1_555
N12_4 C65_4 1_555 1_555
H29_4 C62_4 1_555 1_555
C65_4 C64_4 1_555 1_555
H31_4 C65_4 1_555 1_555
C66_4 N12_4 1_555 1_555
H32_4 C66_4 1_555 1_555
C62_4 C66_4 1_555 1_555
O3_4 H1_4 1_555 1_555
H3_4 C4_4 1_555 1_555
C5_4 C4_4 1_555 1_555
O8_4 C37_4 1_555 1_555
C6_4 C13_4 1_555 1_555
C13_4 H5_4 1_555 1_555
H6_4 C14_4 1_555 1_555
N6_4 C29_4 1_555 1_555
N7_4 C40_4 1_555 1_555
C16_4 N2_4 1_555 1_555
H7_4 C16_4 1_555 1_555
N8_4 C29_4 1_555 1_555
C25_4 C6_4 1_555 1_555
H12_4 C25_4 1_555 1_555
C27_4 C6_4 1_555 1_555
C28_4 C44_4 1_555 1_555
C29_4 C50_4 1_555 1_555
C31_4 N2_4 1_555 1_555
C37_4 O3_4 1_555 1_555
C40_4 N8_4 1_555 1_555
C41_4 N6_4 1_555 1_555
C44_4 C41_4 1_555 1_555
C50_4 C27_4 1_555 1_555
C52_4 C28_4 1_555 1_555
C5_4 C14_4 1_555 1_555
C5_4 C37_4 1_555 1_555
C13_4 C31_4 1_555 1_555
N7_4 C41_4 1_555 1_555
C16_4 C25_4 1_555 1_555
C26_4 C40_4 1_555 1_555
C27_4 H36_4 1_555 1_555
C28_4 H37_4 1_555 1_555
C44_4 H40_4 1_555 1_555
C50_4 H43_4 1_555 1_555
N4_4 C12_4 1_555 1_555
N5_4 C12_4 1_555 1_555
C12_4 C19_4 1_555 1_555
C19_4 C32_4 1_555 1_555
C24_4 H11_4 1_555 1_555
C35_4 N5_4 1_555 1_555
N10_4 C35_4 1_555 1_555
C46_4 C51_4 1_555 1_555
C47_4 N4_4 1_555 1_555
N11_4 C58_4 1_555 1_555
C51_4 C63_4 1_555 1_555
C55_4 C46_4 1_555 1_555
H23_4 C55_4 1_555 1_555
C56_4 C46_4 1_555 1_555
H24_4 C56_4 1_555 1_555
C58_4 C55_4 1_555 1_555
H26_4 C58_4 1_555 1_555
C60_4 N11_4 1_555 1_555
H27_4 C60_4 1_555 1_555
C63_4 C35_4 1_555 1_555
N10_4 C47_4 1_555 1_555
C47_4 C53_4 1_555 1_555
C56_4 C60_4 1_555 1_555
C32_4 H35_4 1_555 1_555
C63_4 H41_4 1_555 1_555
C53_4 H42_4 1_555 1_555
C51_4 H44_4 1_555 1_555

#END
