
###############################################################################
#
# This file contains modified crystal structure data generated from the
# MOF subset of the Cambridge Structural Database (CSD) v543 
# hosted by the Cambridge Crystallographic Data Centre (CCDC).
#
# This work is licensed under the Creative Commons
# Attribution-NonCommercial-ShareAlike 4.0 International License.
# To view a copy of this license, visit
# http://creativecommons.org/licenses/by-nc-sa/4.0/
# or send a letter to
# Creative Commons, PO Box 1866, Mountain View, CA 94042, USA.
#
# CIF created using the CSD Python API on 29 September 2022
# The structure has been converted into the P1 space group
# The structure has a 3D framework
# The original CSD entry ALUKOI is in the monoclinic crystal system
# The framework has been calculated to contain at least 10.0% void space
# The void calculation uses a probe of radius 1.32A, grid spacing 0.4
#
###############################################################################

data_ALUKOI
_chemical_formula_moiety         '(C200 H192 N24 O60 S16 Sm8)n'
_symmetry_cell_setting           triclinic
_symmetry_space_group_name_H-M   'P 1'
_symmetry_Int_Tables_number      1
_space_group_name_Hall           'P 1'
loop_
_symmetry_equiv_pos_site_id
_symmetry_equiv_pos_as_xyz
1 x,y,z
_cell_length_a                   27.4670(13)
_cell_length_b                   16.838(2)
_cell_length_c                   27.9632(11)
_cell_angle_alpha                90
_cell_angle_beta                 101.776(3)
_cell_angle_gamma                90
_cell_volume                     12660.5
loop_
_atom_site_label
_atom_site_type_symbol
_atom_site_fract_x
_atom_site_fract_y
_atom_site_fract_z
C17 C 0.21463(16) 0.0353(3) 0.03603(14)
H9 H 0.1938 0.0171 0.0561
C18 C 0.2201(2) 0.1153(3) 0.02860(17)
H10 H 0.2019 0.1516 0.0428
C44 C 0.24585(16) 0.3563(2) 0.00140(14)
C45 C 0.21994(16) 0.4091(3) 0.02100(16)
H35 H 0.1972 0.3908 0.0389
C46 C 0.22517(14) 0.4898(3) 0.01605(14)
H36 H 0.2071 0.5251 0.0311
Sm6 Sm 0.201089(8) 0.732341(12) 0.046101(7)
N6 N 0.23558(13) 0.27980(19) 0.00498(12)
O16 O 0.24651(11) 0.64952(16) 0.00286(10)
C19 C 0.25415(16) 0.1437(2) 0.99860(14)
C20 C 0.28006(16) 0.0909(3) 0.97900(16)
H11 H 0.3028 0.1092 0.9611
C21 C 0.27483(14) 0.0102(3) 0.98395(14)
N3 N 0.26442(13) 0.22020(19) 0.99502(12)
C40 C 0.26777(17) 0.6024(3) 0.98101(15)
C41 C 0.25874(15) 0.5180(2) 0.98747(15)
C42 C 0.28537(16) 0.4647(3) 0.96397(14)
H33 H 0.3062 0.4829 0.9439
C43 C 0.2799(2) 0.3847(3) 0.97140(17)
H34 H 0.2981 0.3484 0.9572
Sm7 Sm 0.298911(8) 0.767659(12) 0.953899(7)
O19 O 0.29812(10) 0.62254(16) 0.95381(9)
C1 C 0.13881(17) 0.7841(3) 0.10971(15)
C2 C 0.10120(17) 0.8066(2) 0.13885(15)
C3 C 0.11777(17) 0.7957(2) 0.18965(15)
H1 H 0.1509 0.7841 0.2028
C4 C 0.08277(16) 0.8027(2) 0.21991(15)
H2 H 0.0931 0.8007 0.2537
C5 C 0.03310(18) 0.8127(3) 0.19912(17)
C6 C 0.01572(18) 0.8153(3) 0.14747(16)
C7 C 0.05059(16) 0.8064(2) 0.11908(16)
H4 H 0.0400 0.7999 0.0855
C8 C 0.32747(16) 0.7486(2) 0.07698(14)
C9 C 0.36573(16) 0.7472(2) 0.12269(16)
C10 C 0.41512(18) 0.7481(2) 0.12057(15)
H5 H 0.4236 0.7493 0.0900
C11 C 0.45249(19) 0.7473(2) 0.16113(17)
H6 H 0.4856 0.7468 0.1583
C12 C 0.44033(19) 0.7474(2) 0.20493(16)
C13 C 0.39091(18) 0.7493(2) 0.21140(15)
H7 H 0.3837 0.7513 0.2424
C14 C 0.35190(16) 0.7480(2) 0.16837(15)
H8 H 0.3186 0.7477 0.1707
C15 C 0.23223(17) 0.8976(3) 0.01899(15)
C16 C 0.24126(15) 0.9820(2) 0.01253(15)
C22 C 0.20118(18) 0.4965(2) 0.13368(16)
H13 H 0.1737 0.4789 0.1090
H14 H 0.2004 0.4698 0.1638
H15 H 0.2318 0.4845 0.1237
C23 C 0.23651(18) 0.6279(3) 0.19937(16)
H16 H 0.2549 0.5823 0.2138
H17 H 0.2165 0.6478 0.2211
H18 H 0.2593 0.6683 0.1937
C24 C 0.05312(15) 0.5942(2) 0.04707(16)
H19 H 0.0479 0.5380 0.0431
H20 H 0.0215 0.6207 0.0426
H21 H 0.0719 0.6050 0.0793
N2 N 0.47485(15) 0.7508(2) 0.24909(15)
O1 O 0.18370(11) 0.77417(16) 0.12601(10)
O2 O 0.11994(11) 0.77652(18) 0.06314(11)
O3 O 0.33845(10) 0.74659(15) 0.03498(10)
O4 O 0.28347(11) 0.75252(14) 0.08607(10)
O6 O 0.20188(10) 0.87746(16) 0.04619(9)
O7 O 0.22320(10) 0.62710(15) 0.10256(9)
O8 O 0.14044(10) 0.62754(17) 0.02639(10)
S1 S 0.19677(4) 0.59972(6) 0.14193(4)
S2 S 0.08762(4) 0.63067(6) 0.00144(4)
H27 H 0.0178 0.8228 0.3663
C33 C 0.67253(16) 0.7486(2) 0.42302(14)
C34 C 0.63427(16) 0.7472(2) 0.37731(16)
C35 C 0.58488(18) 0.7481(2) 0.37943(15)
H29 H 0.5764 0.7493 0.4100
C36 C 0.54751(19) 0.7473(2) 0.33887(17)
H30 H 0.5144 0.7468 0.3417
C37 C 0.55967(19) 0.7474(2) 0.29507(16)
C38 C 0.60909(18) 0.7493(2) 0.28860(15)
H31 H 0.6163 0.7513 0.2576
C39 C 0.64810(16) 0.7480(2) 0.33163(15)
H32 H 0.6814 0.7477 0.3293
Sm4 Sm 0.701089(8) 0.767659(12) 0.546101(7)
Sm5 Sm 0.798911(8) 0.732341(12) 0.453899(7)
N4 N 0.00551(16) 0.8145(2) 0.27480(14)
N5 N 0.52515(15) 0.7508(2) 0.25091(15)
O11 O 0.66155(10) 0.74659(15) 0.46502(10)
O14 O 0.71653(11) 0.75252(14) 0.41393(10)
H12 H 0.2929 0.9749 0.9689
C25 C 0.08625(16) 0.5465(2) 0.95970(13)
H22 H 0.0899 0.5655 0.9283
H23 H 0.0551 0.5190 0.9565
H24 H 0.1130 0.5108 0.9724
O5 O 0.25349(11) 0.85048(16) 0.99714(10)
O12 O 0.16155(10) 0.75341(15) 0.96502(10)
H3 H 0.9822 0.8228 0.1337
N1 N 0.99449(16) 0.8145(2) 0.22520(14)
C26 C 0.86119(17) 0.7841(3) 0.39029(15)
C27 C 0.89880(17) 0.8066(2) 0.36115(15)
C28 C 0.88223(17) 0.7957(2) 0.31035(15)
H25 H 0.8491 0.7841 0.2972
C29 C 0.91723(16) 0.8027(2) 0.28009(15)
H26 H 0.9069 0.8007 0.2463
C30 C 0.96690(18) 0.8127(3) 0.30088(17)
C31 C 0.98428(18) 0.8153(3) 0.35253(16)
C32 C 0.94941(16) 0.8064(2) 0.38092(16)
H28 H 0.9600 0.7999 0.4145
C47 C 0.79882(18) 0.4965(2) 0.36632(16)
H37 H 0.8263 0.4789 0.3910
H38 H 0.7996 0.4698 0.3362
H39 H 0.7682 0.4845 0.3763
C48 C 0.76349(18) 0.6279(3) 0.30063(16)
H40 H 0.7451 0.5823 0.2862
H41 H 0.7835 0.6478 0.2789
H42 H 0.7407 0.6683 0.3063
C49 C 0.94688(15) 0.5942(2) 0.45293(16)
H43 H 0.9521 0.5380 0.4569
H44 H 0.9785 0.6207 0.4574
H45 H 0.9281 0.6050 0.4207
C50 C 0.91375(16) 0.5465(2) 0.54030(13)
H46 H 0.9101 0.5655 0.5717
H47 H 0.9449 0.5190 0.5435
H48 H 0.8870 0.5108 0.5276
O9 O 0.81630(11) 0.77417(16) 0.37399(10)
O10 O 0.88006(11) 0.77652(18) 0.43686(11)
O13 O 0.83845(10) 0.75341(15) 0.53498(10)
O18 O 0.75349(11) 0.64952(16) 0.49714(10)
O20 O 0.79812(10) 0.87746(16) 0.45381(9)
O21 O 0.77680(10) 0.62710(15) 0.39744(9)
O22 O 0.85956(10) 0.62754(17) 0.47361(10)
S3 S 0.80323(4) 0.59972(6) 0.35807(4)
S4 S 0.91238(4) 0.63067(6) 0.49856(4)
C17_2 C 0.78537(16) 0.0353(3) 0.46397(14)
H9_2 H 0.8062 0.0171 0.4439
C18_2 C 0.7799(2) 0.1153(3) 0.47140(17)
H10_2 H 0.7981 0.1516 0.4572
C19_2 C 0.74585(16) 0.1437(2) 0.50140(14)
C20_2 C 0.71994(16) 0.0909(3) 0.52100(16)
H11_2 H 0.6972 0.1092 0.5389
C21_2 C 0.72517(14) 0.0102(3) 0.51605(14)
N3_2 N 0.73558(13) 0.22020(19) 0.50498(12)
C40_2 C 0.73223(17) 0.6024(3) 0.51899(15)
C41_2 C 0.74126(15) 0.5180(2) 0.51253(15)
C42_2 C 0.71463(16) 0.4647(3) 0.53603(14)
H33_2 H 0.6938 0.4829 0.5561
C43_2 C 0.7201(2) 0.3847(3) 0.52860(17)
H34_2 H 0.7019 0.3484 0.5428
C44_2 C 0.75415(16) 0.3563(2) 0.49860(14)
C45_2 C 0.78006(16) 0.4091(3) 0.47900(16)
H35_2 H 0.8028 0.3908 0.4611
C46_2 C 0.77483(14) 0.4898(3) 0.48395(14)
H36_2 H 0.7929 0.5251 0.4689
N6_2 N 0.76442(13) 0.27980(19) 0.49502(12)
O19_2 O 0.70188(10) 0.62254(16) 0.54619(9)
C15_2 C 0.76777(17) 0.8976(3) 0.48101(15)
C16_2 C 0.75874(15) 0.9820(2) 0.48747(15)
H12_2 H 0.7071 0.9749 0.5311
O5_2 O 0.74651(11) 0.85048(16) 0.50286(10)
C25_2 C 0.41375(16) 0.9535(2) 0.04030(13)
H22_2 H 0.4101 0.9345 0.0717
H23_2 H 0.4449 0.9810 0.0435
H24_2 H 0.3870 0.9892 0.0276
C1_2 C 0.36119(17) 0.7159(3) 0.89029(15)
C2_2 C 0.39880(17) 0.6934(2) 0.86115(15)
C3_2 C 0.38223(17) 0.7043(2) 0.81035(15)
H1_2 H 0.3491 0.7159 0.7972
C4_2 C 0.41723(16) 0.6973(2) 0.78009(15)
H2_2 H 0.4069 0.6993 0.7463
C5_2 C 0.46690(18) 0.6873(3) 0.80088(17)
C6_2 C 0.48428(18) 0.6847(3) 0.85253(16)
H3_2 H 0.5178 0.6772 0.8663
C7_2 C 0.44941(16) 0.6936(2) 0.88092(16)
H4_2 H 0.4600 0.7001 0.9145
C8_2 C 0.17253(16) 0.7514(2) 0.92302(14)
C9_2 C 0.13427(16) 0.7528(2) 0.87731(16)
C10_2 C 0.08488(18) 0.7519(2) 0.87943(15)
H5_2 H 0.0764 0.7507 0.9100
C11_2 C 0.04751(19) 0.7527(2) 0.83887(17)
H6_2 H 0.0144 0.7532 0.8417
C12_2 C 0.05967(19) 0.7526(2) 0.79507(16)
C13_2 C 0.10909(18) 0.7507(2) 0.78860(15)
H7_2 H 0.1163 0.7487 0.7576
C14_2 C 0.14810(16) 0.7520(2) 0.83163(15)
H8_2 H 0.1814 0.7523 0.8293
C23_2 C 0.26349(18) 0.8721(3) 0.80063(16)
H16_2 H 0.2451 0.9177 0.7862
H17_2 H 0.2835 0.8522 0.7789
H18_2 H 0.2407 0.8317 0.8063
C24_2 C 0.44688(15) 0.9058(2) 0.95293(16)
H19_2 H 0.4521 0.9620 0.9569
H20_2 H 0.4785 0.8793 0.9574
H21_2 H 0.4281 0.8950 0.9207
N1_2 N 0.50551(16) 0.6855(2) 0.77480(14)
N2_2 N 0.02515(15) 0.7492(2) 0.75091(15)
O1_2 O 0.31630(11) 0.72583(16) 0.87399(10)
O2_2 O 0.38006(11) 0.72348(18) 0.93686(11)
O4_2 O 0.21653(11) 0.74748(14) 0.91393(10)
O7_2 O 0.27680(10) 0.87290(15) 0.89744(9)
O8_2 O 0.35956(10) 0.87246(17) 0.97361(10)
S1_2 S 0.30323(4) 0.90028(6) 0.85807(4)
S2_2 S 0.41238(4) 0.86933(6) 0.99856(4)
C26_2 C 0.63881(17) 0.7159(3) 0.60971(15)
C27_2 C 0.60120(17) 0.6934(2) 0.63885(15)
C28_2 C 0.61777(17) 0.7043(2) 0.68965(15)
H25_2 H 0.6509 0.7159 0.7028
C29_2 C 0.58277(16) 0.6973(2) 0.71991(15)
H26_2 H 0.5931 0.6993 0.7537
C30_2 C 0.53310(18) 0.6873(3) 0.69912(17)
C31_2 C 0.51572(18) 0.6847(3) 0.64747(16)
H27_2 H 0.4822 0.6772 0.6337
C32_2 C 0.55059(16) 0.6936(2) 0.61908(16)
H28_2 H 0.5400 0.7001 0.5855
C48_2 C 0.73651(18) 0.8721(3) 0.69937(16)
H40_2 H 0.7549 0.9177 0.7138
H41_2 H 0.7165 0.8522 0.7211
H42_2 H 0.7593 0.8317 0.6937
C49_2 C 0.55312(15) 0.9058(2) 0.54707(16)
H43_2 H 0.5479 0.9620 0.5431
H44_2 H 0.5215 0.8793 0.5426
H45_2 H 0.5719 0.8950 0.5793
C50_2 C 0.58625(16) 0.9535(2) 0.45970(13)
H46_2 H 0.5899 0.9345 0.4283
H47_2 H 0.5551 0.9810 0.4565
H48_2 H 0.6130 0.9892 0.4724
N4_2 N 0.49449(16) 0.6855(2) 0.72520(14)
O9_2 O 0.68370(11) 0.72583(16) 0.62601(10)
O10_2 O 0.61994(11) 0.72348(18) 0.56314(11)
O15 O 0.78347(11) 0.74748(14) 0.58607(10)
O21_2 O 0.72320(10) 0.87290(15) 0.60256(9)
O22_2 O 0.64044(10) 0.87246(17) 0.52639(10)
S3_2 S 0.69677(4) 0.90028(6) 0.64193(4)
S4_2 S 0.58762(4) 0.86933(6) 0.50144(4)
C33_2 C 0.82747(16) 0.7514(2) 0.57698(14)
C34_2 C 0.86573(16) 0.7528(2) 0.62269(16)
C35_2 C 0.91512(18) 0.7519(2) 0.62057(15)
H29_2 H 0.9236 0.7507 0.5900
C36_2 C 0.95249(19) 0.7527(2) 0.66113(17)
H30_2 H 0.9856 0.7532 0.6583
C37_2 C 0.94033(19) 0.7526(2) 0.70493(16)
C38_2 C 0.89091(18) 0.7507(2) 0.71140(15)
H31_2 H 0.8837 0.7487 0.7424
C39_2 C 0.85190(16) 0.7520(2) 0.66837(15)
H32_2 H 0.8186 0.7523 0.6707
N5_2 N 0.97485(15) 0.7492(2) 0.74909(15)
C33_3 C 0.17253(16) 0.2486(2) 0.42302(14)
C34_3 C 0.13427(16) 0.2472(2) 0.37731(16)
C35_3 C 0.08488(18) 0.2481(2) 0.37943(15)
H29_3 H 0.0764 0.2493 0.4100
C36_3 C 0.04751(19) 0.2473(2) 0.33887(17)
H30_3 H 0.0144 0.2468 0.3417
C37_3 C 0.05967(19) 0.2474(2) 0.29507(16)
C38_3 C 0.10909(18) 0.2493(2) 0.28860(15)
H31_3 H 0.1163 0.2513 0.2576
C39_3 C 0.14810(16) 0.2480(2) 0.33163(15)
H32_3 H 0.1814 0.2477 0.3293
Sm4_2 Sm 0.201089(8) 0.267659(12) 0.546101(7)
Sm5_2 Sm 0.298911(8) 0.232341(12) 0.453899(7)
N5_3 N 0.02515(15) 0.2508(2) 0.25091(15)
O11_2 O 0.16155(10) 0.24659(15) 0.46502(10)
O14_2 O 0.21653(11) 0.25252(14) 0.41393(10)
H36_3 H 0.7071 0.0251 0.0311
Sm6_2 Sm 0.701089(8) 0.232341(12) 0.046101(7)
O16_2 O 0.74651(11) 0.14952(16) 0.00286(10)
C40_3 C 0.76777(17) 0.1024(3) 0.98101(15)
C41_3 C 0.75874(15) 0.0180(2) 0.98747(15)
Sm7_2 Sm 0.798911(8) 0.267659(12) 0.953899(7)
O19_3 O 0.79812(10) 0.12254(16) 0.95381(9)
C1_3 C 0.63881(17) 0.2841(3) 0.10971(15)
C2_3 C 0.60120(17) 0.3066(2) 0.13885(15)
C3_3 C 0.61777(17) 0.2957(2) 0.18965(15)
H1_3 H 0.6509 0.2841 0.2028
C4_3 C 0.58277(16) 0.3027(2) 0.21991(15)
H2_3 H 0.5931 0.3007 0.2537
C5_3 C 0.53310(18) 0.3127(3) 0.19912(17)
C6_3 C 0.51572(18) 0.3153(3) 0.14747(16)
H3_3 H 0.4822 0.3228 0.1337
C7_3 C 0.55059(16) 0.3064(2) 0.11908(16)
H4_3 H 0.5400 0.2999 0.0855
C8_3 C 0.82747(16) 0.2486(2) 0.07698(14)
C9_3 C 0.86573(16) 0.2472(2) 0.12269(16)
C10_3 C 0.91512(18) 0.2481(2) 0.12057(15)
H5_3 H 0.9236 0.2493 0.0900
C11_3 C 0.95249(19) 0.2473(2) 0.16113(17)
H6_3 H 0.9856 0.2468 0.1583
C12_3 C 0.94033(19) 0.2474(2) 0.20493(16)
C13_3 C 0.89091(18) 0.2493(2) 0.21140(15)
H7_3 H 0.8837 0.2513 0.2424
C14_3 C 0.85190(16) 0.2480(2) 0.16837(15)
H8_3 H 0.8186 0.2477 0.1707
C15_3 C 0.73223(17) 0.3976(3) 0.01899(15)
C16_3 C 0.74126(15) 0.4820(2) 0.01253(15)
C17_3 C 0.71463(16) 0.5353(3) 0.03603(14)
H9_3 H 0.6938 0.5171 0.0561
C18_3 C 0.7201(2) 0.6153(3) 0.02860(17)
H10_3 H 0.7019 0.6516 0.0428
C23_3 C 0.73651(18) 0.1279(3) 0.19937(16)
H16_3 H 0.7549 0.0823 0.2138
H17_3 H 0.7165 0.1478 0.2211
H18_3 H 0.7593 0.1683 0.1937
C24_3 C 0.55312(15) 0.0942(2) 0.04707(16)
H19_3 H 0.5479 0.0380 0.0431
H20_3 H 0.5215 0.1207 0.0426
H21_3 H 0.5719 0.1050 0.0793
N1_3 N 0.49449(16) 0.3145(2) 0.22520(14)
N2_3 N 0.97485(15) 0.2508(2) 0.24909(15)
O1_3 O 0.68370(11) 0.27417(16) 0.12601(10)
O2_3 O 0.61994(11) 0.27652(18) 0.06314(11)
O3_2 O 0.83845(10) 0.24659(15) 0.03498(10)
O4_3 O 0.78347(11) 0.25252(14) 0.08607(10)
O6_2 O 0.70188(10) 0.37746(16) 0.04619(9)
O7_3 O 0.72320(10) 0.12710(15) 0.10256(9)
O8_3 O 0.64044(10) 0.12754(17) 0.02639(10)
S1_3 S 0.69677(4) 0.09972(6) 0.14193(4)
S2_3 S 0.58762(4) 0.13067(6) 0.00144(4)
C26_3 C 0.36119(17) 0.2841(3) 0.39029(15)
C27_3 C 0.39880(17) 0.3066(2) 0.36115(15)
C28_3 C 0.38223(17) 0.2957(2) 0.31035(15)
H25_3 H 0.3491 0.2841 0.2972
C29_3 C 0.41723(16) 0.3027(2) 0.28009(15)
H26_3 H 0.4069 0.3007 0.2463
C30_3 C 0.46690(18) 0.3127(3) 0.30088(17)
C31_3 C 0.48428(18) 0.3153(3) 0.35253(16)
H27_3 H 0.5178 0.3228 0.3663
C32_3 C 0.44941(16) 0.3064(2) 0.38092(16)
H28_3 H 0.4600 0.2999 0.4145
C44_3 C 0.74585(16) 0.8563(2) 0.00140(14)
C45_3 C 0.71994(16) 0.9091(3) 0.02100(16)
H35_3 H 0.6972 0.8908 0.0389
C46_3 C 0.72517(14) 0.9898(3) 0.01605(14)
C48_3 C 0.26349(18) 0.1279(3) 0.30063(16)
H40_3 H 0.2451 0.0823 0.2862
H41_3 H 0.2835 0.1478 0.2789
H42_3 H 0.2407 0.1683 0.3063
C49_3 C 0.44688(15) 0.0942(2) 0.45293(16)
H43_3 H 0.4521 0.0380 0.4569
H44_3 H 0.4785 0.1207 0.4574
H45_3 H 0.4281 0.1050 0.4207
C50_3 C 0.41375(16) 0.0465(2) 0.54030(13)
H46_3 H 0.4101 0.0655 0.5717
H47_3 H 0.4449 0.0190 0.5435
H48_3 H 0.3870 0.0108 0.5276
N4_3 N 0.50551(16) 0.3145(2) 0.27480(14)
N6_3 N 0.73558(13) 0.77980(19) 0.00498(12)
O9_3 O 0.31630(11) 0.27417(16) 0.37399(10)
O10_3 O 0.38006(11) 0.27652(18) 0.43686(11)
O13_2 O 0.33845(10) 0.25341(15) 0.53498(10)
O18_2 O 0.25349(11) 0.14952(16) 0.49714(10)
O20_2 O 0.29812(10) 0.37746(16) 0.45381(9)
O21_3 O 0.27680(10) 0.12710(15) 0.39744(9)
O22_3 O 0.35956(10) 0.12754(17) 0.47361(10)
S3_3 S 0.30323(4) 0.09972(6) 0.35807(4)
S4_3 S 0.41238(4) 0.13067(6) 0.49856(4)
C19_3 C 0.75415(16) 0.6437(2) 0.99860(14)
C20_3 C 0.78006(16) 0.5909(3) 0.97900(16)
H11_3 H 0.8028 0.6092 0.9611
C21_3 C 0.77483(14) 0.5102(3) 0.98395(14)
H12_3 H 0.7929 0.4749 0.9689
C25_3 C 0.58625(16) 0.0465(2) 0.95970(13)
H22_3 H 0.5899 0.0655 0.9283
H23_3 H 0.5551 0.0190 0.9565
H24_3 H 0.6130 0.0108 0.9724
N3_3 N 0.76442(13) 0.72020(19) 0.99502(12)
O5_3 O 0.75349(11) 0.35048(16) 0.99714(10)
C42_3 C 0.78537(16) 0.9647(3) 0.96397(14)
H33_3 H 0.8062 0.9829 0.9439
C43_3 C 0.7799(2) 0.8847(3) 0.97140(17)
H34_3 H 0.7981 0.8484 0.9572
O12_2 O 0.66155(10) 0.25341(15) 0.96502(10)
C40_4 C 0.23223(17) 0.1024(3) 0.51899(15)
C41_4 C 0.24126(15) 0.0180(2) 0.51253(15)
H36_4 H 0.2929 0.0251 0.4689
O19_4 O 0.20188(10) 0.12254(16) 0.54619(9)
C15_4 C 0.26777(17) 0.3976(3) 0.48101(15)
C16_4 C 0.25874(15) 0.4820(2) 0.48747(15)
C17_4 C 0.28537(16) 0.5353(3) 0.46397(14)
H9_4 H 0.3062 0.5171 0.4439
C18_4 C 0.2799(2) 0.6153(3) 0.47140(17)
H10_4 H 0.2981 0.6516 0.4572
C19_4 C 0.24585(16) 0.6437(2) 0.50140(14)
C20_4 C 0.21994(16) 0.5909(3) 0.52100(16)
H11_4 H 0.1972 0.6092 0.5389
C21_4 C 0.22517(14) 0.5102(3) 0.51605(14)
H12_4 H 0.2071 0.4749 0.5311
N3_4 N 0.23558(13) 0.72020(19) 0.50498(12)
O5_4 O 0.24651(11) 0.35048(16) 0.50286(10)
C42_4 C 0.21463(16) 0.9647(3) 0.53603(14)
H33_4 H 0.1938 0.9829 0.5561
C43_4 C 0.2201(2) 0.8847(3) 0.52860(17)
H34_4 H 0.2019 0.8484 0.5428
C44_4 C 0.25415(16) 0.8563(2) 0.49860(14)
C45_4 C 0.28006(16) 0.9091(3) 0.47900(16)
H35_4 H 0.3028 0.8908 0.4611
C46_4 C 0.27483(14) 0.9898(3) 0.48395(14)
N6_4 N 0.26442(13) 0.77980(19) 0.49502(12)
H3_4 H 0.0178 0.1772 0.8663
N1_4 N 0.00551(16) 0.1855(2) 0.77480(14)
C26_4 C 0.13881(17) 0.2159(3) 0.60971(15)
C27_4 C 0.10120(17) 0.1934(2) 0.63885(15)
C28_4 C 0.11777(17) 0.2043(2) 0.68965(15)
H25_4 H 0.1509 0.2159 0.7028
C29_4 C 0.08277(16) 0.1973(2) 0.71991(15)
H26_4 H 0.0931 0.1993 0.7537
C30_4 C 0.03310(18) 0.1873(3) 0.69912(17)
C31_4 C 0.01572(18) 0.1847(3) 0.64747(16)
C32_4 C 0.05059(16) 0.1936(2) 0.61908(16)
H28_4 H 0.0400 0.2001 0.5855
C47_2 C 0.20118(18) 0.5035(2) 0.63368(16)
H37_2 H 0.1737 0.5211 0.6090
H38_2 H 0.2004 0.5302 0.6638
H39_2 H 0.2318 0.5155 0.6237
C48_4 C 0.23651(18) 0.3721(3) 0.69937(16)
H40_4 H 0.2549 0.4177 0.7138
H41_4 H 0.2165 0.3522 0.7211
H42_4 H 0.2593 0.3317 0.6937
C49_4 C 0.05312(15) 0.4058(2) 0.54707(16)
H43_4 H 0.0479 0.4620 0.5431
H44_4 H 0.0215 0.3793 0.5426
H45_4 H 0.0719 0.3950 0.5793
C50_4 C 0.08625(16) 0.4535(2) 0.45970(13)
H46_4 H 0.0899 0.4345 0.4283
H47_4 H 0.0551 0.4810 0.4565
H48_4 H 0.1130 0.4892 0.4724
O9_4 O 0.18370(11) 0.22583(16) 0.62601(10)
O10_4 O 0.11994(11) 0.22348(18) 0.56314(11)
O15_2 O 0.28347(11) 0.24748(14) 0.58607(10)
O21_4 O 0.22320(10) 0.37290(15) 0.60256(9)
O22_4 O 0.14044(10) 0.37246(17) 0.52639(10)
S3_4 S 0.19677(4) 0.40028(6) 0.64193(4)
S4_4 S 0.08762(4) 0.36933(6) 0.50144(4)
C25_4 C 0.91375(16) 0.4535(2) 0.04030(13)
H22_4 H 0.9101 0.4345 0.0717
H23_4 H 0.9449 0.4810 0.0435
H24_4 H 0.8870 0.4892 0.0276
C1_4 C 0.86119(17) 0.2159(3) 0.89029(15)
C2_4 C 0.89880(17) 0.1934(2) 0.86115(15)
C3_4 C 0.88223(17) 0.2043(2) 0.81035(15)
H1_4 H 0.8491 0.2159 0.7972
C4_4 C 0.91723(16) 0.1973(2) 0.78009(15)
H2_4 H 0.9069 0.1993 0.7463
C5_4 C 0.96690(18) 0.1873(3) 0.80088(17)
C6_4 C 0.98428(18) 0.1847(3) 0.85253(16)
C7_4 C 0.94941(16) 0.1936(2) 0.88092(16)
H4_4 H 0.9600 0.2001 0.9145
C8_4 C 0.67253(16) 0.2514(2) 0.92302(14)
C9_4 C 0.63427(16) 0.2528(2) 0.87731(16)
C10_4 C 0.58488(18) 0.2519(2) 0.87943(15)
H5_4 H 0.5764 0.2507 0.9100
C11_4 C 0.54751(19) 0.2527(2) 0.83887(17)
H6_4 H 0.5144 0.2532 0.8417
C12_4 C 0.55967(19) 0.2526(2) 0.79507(16)
C13_4 C 0.60909(18) 0.2507(2) 0.78860(15)
H7_4 H 0.6163 0.2487 0.7576
C14_4 C 0.64810(16) 0.2520(2) 0.83163(15)
H8_4 H 0.6814 0.2523 0.8293
C22_2 C 0.79882(18) 0.5035(2) 0.86632(16)
H13_2 H 0.8263 0.5211 0.8910
H14_2 H 0.7996 0.5302 0.8362
H15_2 H 0.7682 0.5155 0.8763
C23_4 C 0.76349(18) 0.3721(3) 0.80063(16)
H16_4 H 0.7451 0.4177 0.7862
H17_4 H 0.7835 0.3522 0.7789
H18_4 H 0.7407 0.3317 0.8063
C24_4 C 0.94688(15) 0.4058(2) 0.95293(16)
H19_4 H 0.9521 0.4620 0.9569
H20_4 H 0.9785 0.3793 0.9574
H21_4 H 0.9281 0.3950 0.9207
N2_4 N 0.52515(15) 0.2492(2) 0.75091(15)
O1_4 O 0.81630(11) 0.22583(16) 0.87399(10)
O2_4 O 0.88006(11) 0.22348(18) 0.93686(11)
O4_4 O 0.71653(11) 0.24748(14) 0.91393(10)
O7_4 O 0.77680(10) 0.37290(15) 0.89744(9)
O8_4 O 0.85956(10) 0.37246(17) 0.97361(10)
S1_4 S 0.80323(4) 0.40028(6) 0.85807(4)
S2_4 S 0.91238(4) 0.36933(6) 0.99856(4)
H27_4 H 0.9822 0.1772 0.6337
C33_4 C 0.32747(16) 0.2514(2) 0.57698(14)
C34_4 C 0.36573(16) 0.2528(2) 0.62269(16)
C35_4 C 0.41512(18) 0.2519(2) 0.62057(15)
H29_4 H 0.4236 0.2507 0.5900
C36_4 C 0.45249(19) 0.2527(2) 0.66113(17)
H30_4 H 0.4856 0.2532 0.6583
C37_4 C 0.44033(19) 0.2526(2) 0.70493(16)
C38_4 C 0.39091(18) 0.2507(2) 0.71140(15)
H31_4 H 0.3837 0.2487 0.7424
C39_4 C 0.35190(16) 0.2520(2) 0.66837(15)
H32_4 H 0.3186 0.2523 0.6707
N4_4 N 0.99449(16) 0.1855(2) 0.72520(14)
N5_4 N 0.47485(15) 0.2492(2) 0.74909(15)
C22_3 C 0.70118(18) 0.9965(2) 0.13368(16)
H13_3 H 0.6737 0.9789 0.1090
H14_3 H 0.7004 0.9698 0.1638
H15_3 H 0.7318 0.9845 0.1237
C47_3 C 0.29882(18) 0.9965(2) 0.36632(16)
H37_3 H 0.3263 0.9789 0.3910
H38_3 H 0.2996 0.9698 0.3362
H39_3 H 0.2682 0.9845 0.3763
C22_4 C 0.29882(18) 0.0035(2) 0.86632(16)
H13_4 H 0.3263 0.0211 0.8910
H14_4 H 0.2996 0.0302 0.8362
H15_4 H 0.2682 0.0155 0.8763
C47_4 C 0.70118(18) 0.0035(2) 0.63368(16)
H37_4 H 0.6737 0.0211 0.6090
H38_4 H 0.7004 0.0302 0.6638
H39_4 H 0.7318 0.0155 0.6237
loop_
_geom_bond_atom_site_label_1
_geom_bond_atom_site_label_2
_geom_bond_site_symmetry_1
_geom_bond_site_symmetry_2
C17 H9 1_555 1_555
C18 C17 1_555 1_555
H10 C18 1_555 1_555
C45 C44 1_555 1_555
H35 C45 1_555 1_555
H36 C46 1_555 1_555
Sm6 O16 1_555 1_555
C44 N6 1_555 1_555
C45 C46 1_555 1_555
C20 C19 1_555 1_555
H11 C20 1_555 1_555
N3 C19 1_555 1_555
C40 C41 1_555 1_555
C41 C42 1_555 1_555
C42 H33 1_555 1_555
C43 C42 1_555 1_555
H34 C43 1_555 1_555
Sm7 O19 1_555 1_555
O19 C40 1_555 1_555
C20 C21 1_555 1_555
C1 C2 1_555 1_555
C2 C3 1_555 1_555
C3 H1 1_555 1_555
C4 C3 1_555 1_555
H2 C4 1_555 1_555
C5 C4 1_555 1_555
C6 C5 1_555 1_555
C7 C2 1_555 1_555
H4 C7 1_555 1_555
C8 C9 1_555 1_555
C9 C10 1_555 1_555
C10 H5 1_555 1_555
C11 C10 1_555 1_555
H6 C11 1_555 1_555
C12 C11 1_555 1_555
C13 C12 1_555 1_555
H7 C13 1_555 1_555
C14 C9 1_555 1_555
H8 C14 1_555 1_555
C15 C16 1_555 1_555
C22 H13 1_555 1_555
H14 C22 1_555 1_555
H15 C22 1_555 1_555
C23 H16 1_555 1_555
H17 C23 1_555 1_555
H18 C23 1_555 1_555
C24 H19 1_555 1_555
H20 C24 1_555 1_555
H21 C24 1_555 1_555
Sm6 O1 1_555 1_555
N2 C12 1_555 1_555
O1 C1 1_555 1_555
O2 C1 1_555 1_555
O3 C8 1_555 1_555
O4 C8 1_555 1_555
O6 C15 1_555 1_555
O7 Sm6 1_555 1_555
O8 Sm6 1_555 1_555
S1 C22 1_555 1_555
S2 C24 1_555 1_555
C33 C34 1_555 1_555
C34 C35 1_555 1_555
C35 H29 1_555 1_555
C36 C35 1_555 1_555
H30 C36 1_555 1_555
C37 C36 1_555 1_555
C38 C37 1_555 1_555
H31 C38 1_555 1_555
C39 C34 1_555 1_555
H32 C39 1_555 1_555
Sm4 O11 1_555 1_555
Sm5 O14 1_555 1_555
N5 N2 1_555 1_555
O11 C33 1_555 1_555
O14 C33 1_555 1_555
C6 C7 1_555 1_555
C13 C14 1_555 1_555
C23 S1 1_555 1_555
Sm6 O2 1_555 1_555
Sm6 O4 1_555 1_555
Sm6 O6 1_555 1_555
O7 S1 1_555 1_555
O8 S2 1_555 1_555
C37 N5 1_555 1_555
C38 C39 1_555 1_555
C25 H22 1_555 1_555
H23 C25 1_555 1_555
H24 C25 1_555 1_555
O5 Sm7 1_555 1_555
C26 C27 1_555 1_555
C27 C28 1_555 1_555
C28 H25 1_555 1_555
C29 C28 1_555 1_555
H26 C29 1_555 1_555
C30 C29 1_555 1_555
C31 C30 1_555 1_555
C32 C27 1_555 1_555
H28 C32 1_555 1_555
C47 H37 1_555 1_555
H38 C47 1_555 1_555
H39 C47 1_555 1_555
C48 H40 1_555 1_555
H41 C48 1_555 1_555
H42 C48 1_555 1_555
C49 H43 1_555 1_555
H44 C49 1_555 1_555
H45 C49 1_555 1_555
C50 H46 1_555 1_555
H47 C50 1_555 1_555
H48 C50 1_555 1_555
Sm5 O9 1_555 1_555
O9 C26 1_555 1_555
O10 C26 1_555 1_555
O13 Sm5 1_555 1_555
O18 Sm5 1_555 1_555
O20 Sm5 1_555 1_555
O21 Sm5 1_555 1_555
O22 Sm5 1_555 1_555
S3 C47 1_555 1_555
S4 C49 1_555 1_555
C31 C32 1_555 1_555
C48 S3 1_555 1_555
C50 S4 1_555 1_555
Sm5 O10 1_555 1_555
O21 S3 1_555 1_555
O22 S4 1_555 1_555
C17_2 H9_2 1_555 1_555
C18_2 C17_2 1_555 1_555
H10_2 C18_2 1_555 1_555
C19_2 C18_2 1_555 1_555
C20_2 C19_2 1_555 1_555
H11_2 C20_2 1_555 1_555
N3_2 C19_2 1_555 1_555
C40_2 C41_2 1_555 1_555
C41_2 C42_2 1_555 1_555
C42_2 H33_2 1_555 1_555
C43_2 C42_2 1_555 1_555
H34_2 C43_2 1_555 1_555
C44_2 C43_2 1_555 1_555
C45_2 C44_2 1_555 1_555
H35_2 C45_2 1_555 1_555
C46_2 C41_2 1_555 1_555
H36_2 C46_2 1_555 1_555
Sm4 O19_2 1_555 1_555
N6_2 N3_2 1_555 1_555
O18 C40_2 1_555 1_555
O19_2 C40_2 1_555 1_555
C20_2 C21_2 1_555 1_555
C44_2 N6_2 1_555 1_555
C45_2 C46_2 1_555 1_555
C15_2 C16_2 1_555 1_555
O5_2 C15_2 1_555 1_555
O20 C15_2 1_555 1_555
O5_2 Sm4 1_555 1_555
C25_2 H22_2 1_555 1_555
H23_2 C25_2 1_555 1_555
H24_2 C25_2 1_555 1_555
C1_2 C2_2 1_555 1_555
C2_2 C3_2 1_555 1_555
C3_2 H1_2 1_555 1_555
C4_2 C3_2 1_555 1_555
H2_2 C4_2 1_555 1_555
C5_2 C4_2 1_555 1_555
C6_2 C5_2 1_555 1_555
H3_2 C6_2 1_555 1_555
C7_2 C2_2 1_555 1_555
H4_2 C7_2 1_555 1_555
C8_2 C9_2 1_555 1_555
C9_2 C10_2 1_555 1_555
C10_2 H5_2 1_555 1_555
C11_2 C10_2 1_555 1_555
H6_2 C11_2 1_555 1_555
C12_2 C11_2 1_555 1_555
C13_2 C12_2 1_555 1_555
H7_2 C13_2 1_555 1_555
C14_2 C9_2 1_555 1_555
H8_2 C14_2 1_555 1_555
C23_2 H16_2 1_555 1_555
H17_2 C23_2 1_555 1_555
H18_2 C23_2 1_555 1_555
C24_2 H19_2 1_555 1_555
H20_2 C24_2 1_555 1_555
H21_2 C24_2 1_555 1_555
Sm7 O1_2 1_555 1_555
N1_2 C5_2 1_555 1_555
N2_2 C12_2 1_555 1_555
O1_2 C1_2 1_555 1_555
O2_2 C1_2 1_555 1_555
O12 C8_2 1_555 1_555
O4_2 C8_2 1_555 1_555
O7_2 Sm7 1_555 1_555
O8_2 Sm7 1_555 1_555
S2_2 C24_2 1_555 1_555
C26_2 C27_2 1_555 1_555
C27_2 C28_2 1_555 1_555
C28_2 H25_2 1_555 1_555
C29_2 C28_2 1_555 1_555
H26_2 C29_2 1_555 1_555
C30_2 C29_2 1_555 1_555
C31_2 C30_2 1_555 1_555
H27_2 C31_2 1_555 1_555
C32_2 C27_2 1_555 1_555
H28_2 C32_2 1_555 1_555
C48_2 H40_2 1_555 1_555
H41_2 C48_2 1_555 1_555
H42_2 C48_2 1_555 1_555
C49_2 H43_2 1_555 1_555
H44_2 C49_2 1_555 1_555
H45_2 C49_2 1_555 1_555
C50_2 H46_2 1_555 1_555
H47_2 C50_2 1_555 1_555
H48_2 C50_2 1_555 1_555
Sm4 O9_2 1_555 1_555
N4_2 N1_2 1_555 1_555
O9_2 C26_2 1_555 1_555
O10_2 C26_2 1_555 1_555
O15 Sm4 1_555 1_555
O21_2 Sm4 1_555 1_555
O22_2 Sm4 1_555 1_555
S4_2 C49_2 1_555 1_555
C6_2 C7_2 1_555 1_555
C13_2 C14_2 1_555 1_555
C23_2 S1_2 1_555 1_555
Sm7 O2_2 1_555 1_555
Sm7 O4_2 1_555 1_555
O7_2 S1_2 1_555 1_555
O8_2 S2_2 1_555 1_555
C30_2 N4_2 1_555 1_555
C31_2 C32_2 1_555 1_555
C48_2 S3_2 1_555 1_555
C50_2 S4_2 1_555 1_555
Sm4 O10_2 1_555 1_555
O21_2 S3_2 1_555 1_555
O22_2 S4_2 1_555 1_555
C33_2 C34_2 1_555 1_555
C34_2 C35_2 1_555 1_555
C35_2 H29_2 1_555 1_555
C36_2 C35_2 1_555 1_555
H30_2 C36_2 1_555 1_555
C37_2 C36_2 1_555 1_555
C38_2 C37_2 1_555 1_555
H31_2 C38_2 1_555 1_555
C39_2 C34_2 1_555 1_555
H32_2 C39_2 1_555 1_555
O13 C33_2 1_555 1_555
O15 C33_2 1_555 1_555
C37_2 N5_2 1_555 1_555
C38_2 C39_2 1_555 1_555
C33_3 C34_3 1_555 1_555
C34_3 C35_3 1_555 1_555
C35_3 H29_3 1_555 1_555
C36_3 C35_3 1_555 1_555
H30_3 C36_3 1_555 1_555
C37_3 C36_3 1_555 1_555
C38_3 C37_3 1_555 1_555
H31_3 C38_3 1_555 1_555
C39_3 C34_3 1_555 1_555
H32_3 C39_3 1_555 1_555
Sm4_2 O11_2 1_555 1_555
Sm5_2 O14_2 1_555 1_555
O11_2 C33_3 1_555 1_555
O14_2 C33_3 1_555 1_555
C37_3 N5_3 1_555 1_555
C38_3 C39_3 1_555 1_555
Sm6_2 O16_2 1_555 1_555
C40_3 C41_3 1_555 1_555
Sm7_2 O19_3 1_555 1_555
O19_3 C40_3 1_555 1_555
C1_3 C2_3 1_555 1_555
C2_3 C3_3 1_555 1_555
C3_3 H1_3 1_555 1_555
C4_3 C3_3 1_555 1_555
H2_3 C4_3 1_555 1_555
C5_3 C4_3 1_555 1_555
C6_3 C5_3 1_555 1_555
H3_3 C6_3 1_555 1_555
C7_3 C2_3 1_555 1_555
H4_3 C7_3 1_555 1_555
C8_3 C9_3 1_555 1_555
C9_3 C10_3 1_555 1_555
C10_3 H5_3 1_555 1_555
C11_3 C10_3 1_555 1_555
H6_3 C11_3 1_555 1_555
C12_3 C11_3 1_555 1_555
C13_3 C12_3 1_555 1_555
H7_3 C13_3 1_555 1_555
C14_3 C9_3 1_555 1_555
H8_3 C14_3 1_555 1_555
C15_3 C16_3 1_555 1_555
C16_3 C17_3 1_555 1_555
C17_3 H9_3 1_555 1_555
C18_3 C17_3 1_555 1_555
H10_3 C18_3 1_555 1_555
C23_3 H16_3 1_555 1_555
H17_3 C23_3 1_555 1_555
H18_3 C23_3 1_555 1_555
C24_3 H19_3 1_555 1_555
H20_3 C24_3 1_555 1_555
H21_3 C24_3 1_555 1_555
Sm6_2 O1_3 1_555 1_555
N1_3 C5_3 1_555 1_555
N2_3 C12_3 1_555 1_555
O1_3 C1_3 1_555 1_555
O2_3 C1_3 1_555 1_555
O3_2 C8_3 1_555 1_555
O4_3 C8_3 1_555 1_555
O6_2 C15_3 1_555 1_555
O7_3 Sm6_2 1_555 1_555
O8_3 Sm6_2 1_555 1_555
S2_3 C24_3 1_555 1_555
C26_3 C27_3 1_555 1_555
C27_3 C28_3 1_555 1_555
C28_3 H25_3 1_555 1_555
C29_3 C28_3 1_555 1_555
H26_3 C29_3 1_555 1_555
C30_3 C29_3 1_555 1_555
C31_3 C30_3 1_555 1_555
H27_3 C31_3 1_555 1_555
C32_3 C27_3 1_555 1_555
H28_3 C32_3 1_555 1_555
C45_3 C44_3 1_555 1_555
H35_3 C45_3 1_555 1_555
C48_3 H40_3 1_555 1_555
H41_3 C48_3 1_555 1_555
H42_3 C48_3 1_555 1_555
C49_3 H43_3 1_555 1_555
H44_3 C49_3 1_555 1_555
H45_3 C49_3 1_555 1_555
C50_3 H46_3 1_555 1_555
H47_3 C50_3 1_555 1_555
H48_3 C50_3 1_555 1_555
Sm5_2 O9_3 1_555 1_555
N4_3 N1_3 1_555 1_555
O9_3 C26_3 1_555 1_555
O10_3 C26_3 1_555 1_555
O13_2 Sm5_2 1_555 1_555
O18_2 Sm5_2 1_555 1_555
O20_2 Sm5_2 1_555 1_555
O21_3 Sm5_2 1_555 1_555
O22_3 Sm5_2 1_555 1_555
S4_3 C49_3 1_555 1_555
C6_3 C7_3 1_555 1_555
C13_3 C14_3 1_555 1_555
C23_3 S1_3 1_555 1_555
Sm6_2 O2_3 1_555 1_555
Sm6_2 O4_3 1_555 1_555
Sm6_2 O6_2 1_555 1_555
O7_3 S1_3 1_555 1_555
O8_3 S2_3 1_555 1_555
C30_3 N4_3 1_555 1_555
C31_3 C32_3 1_555 1_555
C44_3 N6_3 1_555 1_555
C45_3 C46_3 1_555 1_555
C48_3 S3_3 1_555 1_555
C50_3 S4_3 1_555 1_555
Sm5_2 O10_3 1_555 1_555
O21_3 S3_3 1_555 1_555
O22_3 S4_3 1_555 1_555
C20_3 C19_3 1_555 1_555
H11_3 C20_3 1_555 1_555
H12_3 C21_3 1_555 1_555
C25_3 H22_3 1_555 1_555
H23_3 C25_3 1_555 1_555
H24_3 C25_3 1_555 1_555
N3_3 C19_3 1_555 1_555
C42_3 H33_3 1_555 1_555
C43_3 C42_3 1_555 1_555
H34_3 C43_3 1_555 1_555
C20_3 C21_3 1_555 1_555
O5_3 Sm7_2 1_555 1_555
C40_4 C41_4 1_555 1_555
Sm4_2 O19_4 1_555 1_555
O18_2 C40_4 1_555 1_555
O19_4 C40_4 1_555 1_555
C15_4 C16_4 1_555 1_555
C16_4 C17_4 1_555 1_555
C17_4 H9_4 1_555 1_555
C18_4 C17_4 1_555 1_555
H10_4 C18_4 1_555 1_555
C19_4 C18_4 1_555 1_555
C20_4 C19_4 1_555 1_555
H11_4 C20_4 1_555 1_555
C21_4 C16_4 1_555 1_555
H12_4 C21_4 1_555 1_555
N3_4 C19_4 1_555 1_555
O5_4 C15_4 1_555 1_555
O20_2 C15_4 1_555 1_555
C42_4 H33_4 1_555 1_555
C43_4 C42_4 1_555 1_555
H34_4 C43_4 1_555 1_555
C44_4 C43_4 1_555 1_555
C45_4 C44_4 1_555 1_555
H35_4 C45_4 1_555 1_555
N6_4 N3_4 1_555 1_555
C20_4 C21_4 1_555 1_555
O5_4 Sm4_2 1_555 1_555
C44_4 N6_4 1_555 1_555
C45_4 C46_4 1_555 1_555
C26_4 C27_4 1_555 1_555
C27_4 C28_4 1_555 1_555
C28_4 H25_4 1_555 1_555
C29_4 C28_4 1_555 1_555
H26_4 C29_4 1_555 1_555
C30_4 C29_4 1_555 1_555
C31_4 C30_4 1_555 1_555
C32_4 C27_4 1_555 1_555
H28_4 C32_4 1_555 1_555
C47_2 H37_2 1_555 1_555
H38_2 C47_2 1_555 1_555
H39_2 C47_2 1_555 1_555
C48_4 H40_4 1_555 1_555
H41_4 C48_4 1_555 1_555
H42_4 C48_4 1_555 1_555
C49_4 H43_4 1_555 1_555
H44_4 C49_4 1_555 1_555
H45_4 C49_4 1_555 1_555
C50_4 H46_4 1_555 1_555
H47_4 C50_4 1_555 1_555
H48_4 C50_4 1_555 1_555
Sm4_2 O9_4 1_555 1_555
O9_4 C26_4 1_555 1_555
O10_4 C26_4 1_555 1_555
O15_2 Sm4_2 1_555 1_555
O21_4 Sm4_2 1_555 1_555
O22_4 Sm4_2 1_555 1_555
S3_4 C47_2 1_555 1_555
S4_4 C49_4 1_555 1_555
C31_4 C32_4 1_555 1_555
C48_4 S3_4 1_555 1_555
C50_4 S4_4 1_555 1_555
Sm4_2 O10_4 1_555 1_555
O21_4 S3_4 1_555 1_555
O22_4 S4_4 1_555 1_555
C25_4 H22_4 1_555 1_555
H23_4 C25_4 1_555 1_555
H24_4 C25_4 1_555 1_555
C1_4 C2_4 1_555 1_555
C2_4 C3_4 1_555 1_555
C3_4 H1_4 1_555 1_555
C4_4 C3_4 1_555 1_555
H2_4 C4_4 1_555 1_555
C5_4 C4_4 1_555 1_555
C6_4 C5_4 1_555 1_555
C7_4 C2_4 1_555 1_555
H4_4 C7_4 1_555 1_555
C8_4 C9_4 1_555 1_555
C9_4 C10_4 1_555 1_555
C10_4 H5_4 1_555 1_555
C11_4 C10_4 1_555 1_555
H6_4 C11_4 1_555 1_555
C12_4 C11_4 1_555 1_555
C13_4 C12_4 1_555 1_555
H7_4 C13_4 1_555 1_555
C14_4 C9_4 1_555 1_555
H8_4 C14_4 1_555 1_555
C22_2 H13_2 1_555 1_555
H14_2 C22_2 1_555 1_555
H15_2 C22_2 1_555 1_555
C23_4 H16_4 1_555 1_555
H17_4 C23_4 1_555 1_555
H18_4 C23_4 1_555 1_555
C24_4 H19_4 1_555 1_555
H20_4 C24_4 1_555 1_555
H21_4 C24_4 1_555 1_555
Sm7_2 O1_4 1_555 1_555
N2_4 C12_4 1_555 1_555
O1_4 C1_4 1_555 1_555
O2_4 C1_4 1_555 1_555
O12_2 C8_4 1_555 1_555
O4_4 C8_4 1_555 1_555
O7_4 Sm7_2 1_555 1_555
O8_4 Sm7_2 1_555 1_555
S1_4 C22_2 1_555 1_555
S2_4 C24_4 1_555 1_555
C33_4 C34_4 1_555 1_555
C34_4 C35_4 1_555 1_555
C35_4 H29_4 1_555 1_555
C36_4 C35_4 1_555 1_555
H30_4 C36_4 1_555 1_555
C37_4 C36_4 1_555 1_555
C38_4 C37_4 1_555 1_555
H31_4 C38_4 1_555 1_555
C39_4 C34_4 1_555 1_555
H32_4 C39_4 1_555 1_555
N5_4 N2_4 1_555 1_555
O13_2 C33_4 1_555 1_555
O15_2 C33_4 1_555 1_555
C6_4 C7_4 1_555 1_555
C13_4 C14_4 1_555 1_555
C23_4 S1_4 1_555 1_555
Sm7_2 O2_4 1_555 1_555
Sm7_2 O4_4 1_555 1_555
O7_4 S1_4 1_555 1_555
O8_4 S2_4 1_555 1_555
C37_4 N5_4 1_555 1_555
C38_4 C39_4 1_555 1_555
C22_3 H13_3 1_555 1_555
H14_3 C22_3 1_555 1_555
H15_3 C22_3 1_555 1_555
C47_3 H37_3 1_555 1_555
H38_3 C47_3 1_555 1_555
H39_3 C47_3 1_555 1_555
C22_4 H13_4 1_555 1_555
H14_4 C22_4 1_555 1_555
H15_4 C22_4 1_555 1_555
C47_4 H37_4 1_555 1_555
H38_4 C47_4 1_555 1_555
H39_4 C47_4 1_555 1_555

#END
