
###############################################################################
#
# This file contains modified crystal structure data generated from the
# MOF subset of the Cambridge Structural Database (CSD) v543 
# hosted by the Cambridge Crystallographic Data Centre (CCDC).
#
# This work is licensed under the Creative Commons
# Attribution-NonCommercial-ShareAlike 4.0 International License.
# To view a copy of this license, visit
# http://creativecommons.org/licenses/by-nc-sa/4.0/
# or send a letter to
# Creative Commons, PO Box 1866, Mountain View, CA 94042, USA.
#
# CIF created using the CSD Python API on 29 September 2022
# The structure has been converted into the P1 space group
# The structure has a 3D framework
# The original CSD entry ALUKUO is in the monoclinic crystal system
# The framework has been calculated to contain at least 10.0% void space
# The void calculation uses a probe of radius 1.32A, grid spacing 0.4
#
###############################################################################

data_ALUKUO
_chemical_formula_moiety         '(C200 H192 Eu8 N24 O62 S16)n'
_symmetry_cell_setting           triclinic
_symmetry_space_group_name_H-M   'P 1'
_symmetry_Int_Tables_number      1
_space_group_name_Hall           'P 1'
loop_
_symmetry_equiv_pos_site_id
_symmetry_equiv_pos_as_xyz
1 x,y,z
_cell_length_a                   27.441(4)
_cell_length_b                   16.864(3)
_cell_length_c                   27.919(4)
_cell_angle_alpha                90
_cell_angle_beta                 101.880(3)
_cell_angle_gamma                90
_cell_volume                     12643.2
loop_
_atom_site_label
_atom_site_type_symbol
_atom_site_fract_x
_atom_site_fract_y
_atom_site_fract_z
C1 C 0.13929(14) 0.7846(2) 0.11000(13)
C2 C 0.10135(13) 0.80648(18) 0.13885(13)
C3 C 0.11749(14) 0.7955(2) 0.18987(13)
H1 H 0.1506 0.7838 0.2033
C4 C 0.08265(12) 0.80255(19) 0.21970(12)
H2 H 0.0930 0.8004 0.2536
C5 C 0.03275(14) 0.8127(2) 0.19899(14)
C6 C 0.01558(13) 0.81582(19) 0.14748(13)
C7 C 0.05050(12) 0.80618(19) 0.11917(13)
H4 H 0.0398 0.7992 0.0856
Eu1 Eu 0.201046(6) 0.732384(9) 0.046089(5)
C19 C 0.24597(12) 0.35604(18) 0.00114(12)
C20 C 0.22019(13) 0.4090(2) 0.02126(14)
H11 H 0.1978 0.3906 0.0396
C21 C 0.22512(11) 0.4896(2) 0.01608(12)
H12 H 0.2068 0.5247 0.0310
C22 C 0.20091(13) 0.49669(18) 0.13329(13)
H13 H 0.1731 0.4794 0.1088
H14 H 0.2006 0.4698 0.1635
H15 H 0.2313 0.4848 0.1229
C23 C 0.23637(13) 0.6282(2) 0.19895(13)
H16 H 0.2551 0.5830 0.2133
H17 H 0.2164 0.6477 0.2208
H18 H 0.2588 0.6690 0.1931
C24 C 0.05288(12) 0.59487(19) 0.04714(13)
H19 H 0.0487 0.5384 0.0442
H20 H 0.0208 0.6199 0.0416
H21 H 0.0710 0.6076 0.0794
N3 N 0.23573(10) 0.28009(15) 0.00520(10)
O1 O 0.18374(8) 0.77450(13) 0.12591(8)
O2 O 0.11988(9) 0.77635(14) 0.06337(9)
O5 O 0.24664(8) 0.64958(13) 0.00293(8)
O7 O 0.22318(8) 0.62734(12) 0.10243(7)
O8 O 0.14030(8) 0.62749(13) 0.02646(8)
S1 S 0.19671(3) 0.59974(4) 0.14196(3)
S2 S 0.08763(3) 0.63057(5) 0.00149(3)
H27 H 0.0178 0.8240 0.3665
C42 C 0.21448(12) 0.0353(2) 0.03588(12)
H33 H 0.1933 0.0174 0.0556
C43 C 0.22055(15) 0.1153(2) 0.02855(14)
H34 H 0.2026 0.1517 0.0431
N4 N 0.00545(12) 0.81451(18) 0.27468(12)
O14 O 0.28371(8) 0.75269(11) 0.08611(8)
O19 O 0.20218(7) 0.87730(13) 0.04618(7)
C8 C 0.17271(13) 0.75113(16) 0.92317(12)
C9 C 0.13442(13) 0.75253(19) 0.87701(13)
C10 C 0.08468(13) 0.75200(19) 0.87958(12)
H5 H 0.0762 0.7513 0.9102
C11 C 0.04748(15) 0.7525(2) 0.83870(14)
H6 H 0.0142 0.7527 0.8413
C12 C 0.05977(14) 0.7526(2) 0.79534(14)
C13 C 0.10914(14) 0.75069(19) 0.78854(13)
H7 H 0.1162 0.7491 0.7574
C14 C 0.14801(13) 0.75128(17) 0.83152(12)
H8 H 0.1813 0.7508 0.8292
C15 C 0.26745(11) 0.60304(18) 0.98095(11)
C16 C 0.25878(12) 0.51822(19) 0.98745(13)
C17 C 0.28552(12) 0.4647(2) 0.96412(12)
H9 H 0.3067 0.4826 0.9444
C18 C 0.27945(15) 0.3847(2) 0.97145(14)
H10 H 0.2974 0.3483 0.9569
C25 C 0.08616(13) 0.54616(17) 0.95961(12)
H22 H 0.0907 0.5649 0.9283
H23 H 0.0546 0.5196 0.9558
H24 H 0.1124 0.5098 0.9728
N2 N 0.02519(12) 0.74891(18) 0.75093(12)
O3 O 0.16151(8) 0.75384(12) 0.96484(8)
O4 O 0.21629(8) 0.74731(11) 0.91389(8)
O6 O 0.29782(7) 0.62270(13) 0.95382(7)
Eu3 Eu 0.298954(6) 0.767616(9) 0.953911(5)
C44 C 0.25403(12) 0.14396(18) 0.99886(12)
C45 C 0.27981(13) 0.0910(2) 0.97874(14)
H35 H 0.3022 0.1094 0.9604
C46 C 0.27488(11) 0.0104(2) 0.98392(12)
N6 N 0.26427(10) 0.21991(15) 0.99480(10)
C40 C 0.23255(11) 0.89696(18) 0.01905(11)
C41 C 0.24122(12) 0.98178(19) 0.01255(13)
H36 H 0.2932 0.9753 0.9690
O16 O 0.25336(8) 0.85042(13) 0.99707(8)
H3 H 0.9822 0.8240 0.1335
N1 N 0.99455(12) 0.81451(18) 0.22532(12)
C26 C 0.86071(14) 0.7846(2) 0.39000(13)
C27 C 0.89865(13) 0.80648(18) 0.36115(13)
C28 C 0.88251(14) 0.7955(2) 0.31013(13)
H25 H 0.8494 0.7838 0.2967
C29 C 0.91735(12) 0.80255(19) 0.28030(12)
H26 H 0.9070 0.8004 0.2464
C30 C 0.96725(14) 0.8127(2) 0.30101(14)
C31 C 0.98442(13) 0.81582(19) 0.35252(13)
C32 C 0.94950(12) 0.80618(19) 0.38083(13)
H28 H 0.9602 0.7992 0.4144
Eu2 Eu 0.798954(6) 0.732384(9) 0.453911(5)
C47 C 0.79909(13) 0.49669(18) 0.36671(13)
H37 H 0.8269 0.4794 0.3912
H38 H 0.7994 0.4698 0.3365
H39 H 0.7687 0.4848 0.3771
C48 C 0.76363(13) 0.6282(2) 0.30105(13)
H40 H 0.7449 0.5830 0.2867
H41 H 0.7836 0.6477 0.2792
H42 H 0.7412 0.6690 0.3069
C49 C 0.94712(12) 0.59487(19) 0.45286(13)
H43 H 0.9513 0.5384 0.4558
H44 H 0.9792 0.6199 0.4584
H45 H 0.9290 0.6076 0.4206
C50 C 0.91384(13) 0.54616(17) 0.54039(12)
H46 H 0.9093 0.5649 0.5717
H47 H 0.9454 0.5196 0.5442
H48 H 0.8876 0.5098 0.5272
O9 O 0.81626(8) 0.77450(13) 0.37409(8)
O10 O 0.88012(9) 0.77635(14) 0.43663(9)
O12 O 0.83849(8) 0.75384(12) 0.53516(8)
O15 O 0.71629(8) 0.75269(11) 0.41389(8)
O17 O 0.75336(8) 0.64958(13) 0.49707(8)
O20 O 0.79782(7) 0.87730(13) 0.45382(7)
O21 O 0.77682(8) 0.62734(12) 0.39757(7)
O22 O 0.85970(8) 0.62749(13) 0.47354(8)
S3 S 0.80329(3) 0.59974(4) 0.35804(3)
S4 S 0.91237(3) 0.63057(5) 0.49851(3)
C33 C 0.82729(13) 0.75113(16) 0.57683(12)
C34 C 0.86558(13) 0.75253(19) 0.62299(13)
C35 C 0.91532(13) 0.75200(19) 0.62042(12)
H29 H 0.9238 0.7513 0.5898
C36 C 0.95252(15) 0.7525(2) 0.66130(14)
H30 H 0.9858 0.7527 0.6587
C37 C 0.94023(14) 0.7526(2) 0.70466(14)
C38 C 0.89086(14) 0.75069(19) 0.71146(13)
H31 H 0.8838 0.7491 0.7426
C39 C 0.85199(13) 0.75128(17) 0.66848(12)
H32 H 0.8187 0.7508 0.6708
Eu5 Eu 0.701046(6) 0.767616(9) 0.546089(5)
N5 N 0.97481(12) 0.74891(18) 0.74907(12)
O13 O 0.78371(8) 0.74731(11) 0.58611(8)
C15_2 C 0.73255(11) 0.60304(18) 0.51905(11)
C16_2 C 0.74122(12) 0.51822(19) 0.51255(13)
C17_2 C 0.71448(12) 0.4647(2) 0.53588(12)
H9_2 H 0.6933 0.4826 0.5556
C18_2 C 0.72055(15) 0.3847(2) 0.52855(14)
H10_2 H 0.7026 0.3483 0.5431
C19_2 C 0.75403(12) 0.35604(18) 0.49886(12)
C20_2 C 0.77981(13) 0.4090(2) 0.47874(14)
H11_2 H 0.8022 0.3906 0.4604
C21_2 C 0.77488(11) 0.4896(2) 0.48392(12)
H12_2 H 0.7932 0.5247 0.4690
N3_2 N 0.76427(10) 0.28009(15) 0.49480(10)
O6_2 O 0.70218(7) 0.62270(13) 0.54618(7)
C42_2 C 0.78552(12) 0.0353(2) 0.46412(12)
H33_2 H 0.8067 0.0174 0.4444
C43_2 C 0.77945(15) 0.1153(2) 0.47145(14)
H34_2 H 0.7974 0.1517 0.4569
C44_2 C 0.74597(12) 0.14396(18) 0.50114(12)
C45_2 C 0.72019(13) 0.0910(2) 0.52126(14)
H35_2 H 0.6978 0.1094 0.5396
C46_2 C 0.72512(11) 0.0104(2) 0.51608(12)
N6_2 N 0.73573(10) 0.21991(15) 0.50520(10)
C40_2 C 0.76745(11) 0.89696(18) 0.48095(11)
C41_2 C 0.75878(12) 0.98178(19) 0.48745(13)
H36_2 H 0.7068 0.9753 0.5310
O16_2 O 0.74664(8) 0.85042(13) 0.50293(8)
C22_2 C 0.29909(13) 0.00331(18) 0.86671(13)
H13_2 H 0.3269 0.0206 0.8912
H14_2 H 0.2994 0.0302 0.8365
H15_2 H 0.2687 0.0152 0.8771
C47_2 C 0.70091(13) 0.00331(18) 0.63329(13)
H37_2 H 0.6731 0.0206 0.6088
H38_2 H 0.7006 0.0302 0.6635
H39_2 H 0.7313 0.0152 0.6229
C8_2 C 0.32729(13) 0.74887(16) 0.07683(12)
C9_2 C 0.36558(13) 0.74747(19) 0.12299(13)
C10_2 C 0.41532(13) 0.74800(19) 0.12042(12)
H5_2 H 0.4238 0.7487 0.0898
C11_2 C 0.45252(15) 0.7475(2) 0.16130(14)
H6_2 H 0.4858 0.7473 0.1587
C12_2 C 0.44023(14) 0.7474(2) 0.20466(14)
C13_2 C 0.39086(14) 0.74931(19) 0.21146(13)
H7_2 H 0.3838 0.7509 0.2426
C14_2 C 0.35199(13) 0.74872(17) 0.16848(12)
H8_2 H 0.3187 0.7492 0.1708
C25_2 C 0.41384(13) 0.95384(17) 0.04039(12)
H22_2 H 0.4093 0.9351 0.0717
H23_2 H 0.4454 0.9804 0.0442
H24_2 H 0.3876 0.9902 0.0272
N2_2 N 0.47481(12) 0.75109(18) 0.24907(12)
O3_2 O 0.33849(8) 0.74616(12) 0.03516(8)
C33_2 C 0.67271(13) 0.74887(16) 0.42317(12)
C34_2 C 0.63442(13) 0.74747(19) 0.37701(13)
C35_2 C 0.58468(13) 0.74800(19) 0.37958(12)
H29_2 H 0.5762 0.7487 0.4102
C36_2 C 0.54748(15) 0.7475(2) 0.33870(14)
H30_2 H 0.5142 0.7473 0.3413
C37_2 C 0.55977(14) 0.7474(2) 0.29534(14)
C38_2 C 0.60914(14) 0.74931(19) 0.28854(13)
H31_2 H 0.6162 0.7509 0.2574
C39_2 C 0.64801(13) 0.74872(17) 0.33152(12)
H32_2 H 0.6813 0.7492 0.3292
N5_2 N 0.52519(12) 0.75109(18) 0.25093(12)
O11 O 0.66151(8) 0.74616(12) 0.46484(8)
C1_2 C 0.36071(14) 0.7154(2) 0.89000(13)
C2_2 C 0.39865(13) 0.69352(18) 0.86115(13)
C3_2 C 0.38251(14) 0.7045(2) 0.81013(13)
H1_2 H 0.3494 0.7162 0.7967
C4_2 C 0.41735(12) 0.69745(19) 0.78030(12)
H2_2 H 0.4070 0.6996 0.7464
C5_2 C 0.46725(14) 0.6873(2) 0.80101(14)
C6_2 C 0.48442(13) 0.68418(19) 0.85252(13)
H3_2 H 0.5178 0.6760 0.8665
C7_2 C 0.44950(12) 0.69382(19) 0.88083(13)
H4_2 H 0.4602 0.7008 0.9144
C23_2 C 0.26363(13) 0.8718(2) 0.80105(13)
H16_2 H 0.2449 0.9170 0.7867
H17_2 H 0.2836 0.8523 0.7792
H18_2 H 0.2412 0.8310 0.8069
C24_2 C 0.44712(12) 0.90513(19) 0.95286(13)
H19_2 H 0.4513 0.9616 0.9558
H20_2 H 0.4792 0.8801 0.9584
H21_2 H 0.4290 0.8924 0.9206
N1_2 N 0.50545(12) 0.68549(18) 0.77468(12)
O1_2 O 0.31626(8) 0.72550(13) 0.87409(8)
O2_2 O 0.38012(9) 0.72365(14) 0.93663(9)
O7_2 O 0.27682(8) 0.87266(12) 0.89757(7)
O8_2 O 0.35970(8) 0.87251(13) 0.97354(8)
S1_2 S 0.30329(3) 0.90026(4) 0.85804(3)
S2_2 S 0.41237(3) 0.86943(5) 0.99851(3)
C26_2 C 0.63929(14) 0.7154(2) 0.61000(13)
C27_2 C 0.60135(13) 0.69352(18) 0.63885(13)
C28_2 C 0.61749(14) 0.7045(2) 0.68987(13)
H25_2 H 0.6506 0.7162 0.7033
C29_2 C 0.58265(12) 0.69745(19) 0.71970(12)
H26_2 H 0.5930 0.6996 0.7536
C30_2 C 0.53275(14) 0.6873(2) 0.69899(14)
C31_2 C 0.51558(13) 0.68418(19) 0.64748(13)
H27_2 H 0.4822 0.6760 0.6335
C32_2 C 0.55050(12) 0.69382(19) 0.61917(13)
H28_2 H 0.5398 0.7008 0.5856
C48_2 C 0.73637(13) 0.8718(2) 0.69895(13)
H40_2 H 0.7551 0.9170 0.7133
H41_2 H 0.7164 0.8523 0.7208
H42_2 H 0.7588 0.8310 0.6931
C49_2 C 0.55288(12) 0.90513(19) 0.54714(13)
H43_2 H 0.5487 0.9616 0.5442
H44_2 H 0.5208 0.8801 0.5416
H45_2 H 0.5710 0.8924 0.5794
C50_2 C 0.58616(13) 0.95384(17) 0.45961(12)
H46_2 H 0.5907 0.9351 0.4283
H47_2 H 0.5546 0.9804 0.4558
H48_2 H 0.6124 0.9902 0.4728
N4_2 N 0.49455(12) 0.68549(18) 0.72532(12)
O9_2 O 0.68374(8) 0.72550(13) 0.62591(8)
O10_2 O 0.61988(9) 0.72365(14) 0.56337(9)
O21_2 O 0.72318(8) 0.87266(12) 0.60243(7)
O22_2 O 0.64030(8) 0.87251(13) 0.52646(8)
S3_2 S 0.69671(3) 0.90026(4) 0.64196(3)
S4_2 S 0.58763(3) 0.86943(5) 0.50149(3)
C1_3 C 0.63929(14) 0.2846(2) 0.11000(13)
C2_3 C 0.60135(13) 0.30648(18) 0.13885(13)
C3_3 C 0.61749(14) 0.2955(2) 0.18987(13)
H1_3 H 0.6506 0.2838 0.2033
C4_3 C 0.58265(12) 0.30255(19) 0.21970(12)
H2_3 H 0.5930 0.3004 0.2536
C5_3 C 0.53275(14) 0.3127(2) 0.19899(14)
C6_3 C 0.51558(13) 0.31582(19) 0.14748(13)
H3_3 H 0.4822 0.3240 0.1335
C7_3 C 0.55050(12) 0.30618(19) 0.11917(13)
H4_3 H 0.5398 0.2992 0.0856
Eu1_2 Eu 0.701046(6) 0.232384(9) 0.046089(5)
H12_3 H 0.7068 0.0247 0.0310
C23_3 C 0.73637(13) 0.1282(2) 0.19895(13)
H16_3 H 0.7551 0.0830 0.2133
H17_3 H 0.7164 0.1477 0.2208
H18_3 H 0.7588 0.1690 0.1931
C24_3 C 0.55288(12) 0.09487(19) 0.04714(13)
H19_3 H 0.5487 0.0384 0.0442
H20_3 H 0.5208 0.1199 0.0416
H21_3 H 0.5710 0.1076 0.0794
N1_3 N 0.49455(12) 0.31451(18) 0.22532(12)
O1_3 O 0.68374(8) 0.27450(13) 0.12591(8)
O2_3 O 0.61988(9) 0.27635(14) 0.06337(9)
O5_2 O 0.74664(8) 0.14958(13) 0.00293(8)
O7_3 O 0.72318(8) 0.12734(12) 0.10243(7)
O8_3 O 0.64030(8) 0.12749(13) 0.02646(8)
S1_3 S 0.69671(3) 0.09974(4) 0.14196(3)
S2_3 S 0.58763(3) 0.13057(5) 0.00149(3)
C26_3 C 0.36071(14) 0.2846(2) 0.39000(13)
C27_3 C 0.39865(13) 0.30648(18) 0.36115(13)
C28_3 C 0.38251(14) 0.2955(2) 0.31013(13)
H25_3 H 0.3494 0.2838 0.2967
C29_3 C 0.41735(12) 0.30255(19) 0.28030(12)
H26_3 H 0.4070 0.3004 0.2464
C30_3 C 0.46725(14) 0.3127(2) 0.30101(14)
C31_3 C 0.48442(13) 0.31582(19) 0.35252(13)
H27_3 H 0.5178 0.3240 0.3665
C32_3 C 0.44950(12) 0.30618(19) 0.38083(13)
H28_3 H 0.4602 0.2992 0.4144
Eu2_2 Eu 0.298954(6) 0.232384(9) 0.453911(5)
C48_3 C 0.26363(13) 0.1282(2) 0.30105(13)
H40_3 H 0.2449 0.0830 0.2867
H41_3 H 0.2836 0.1477 0.2792
H42_3 H 0.2412 0.1690 0.3069
C49_3 C 0.44712(12) 0.09487(19) 0.45286(13)
H43_3 H 0.4513 0.0384 0.4558
H44_3 H 0.4792 0.1199 0.4584
H45_3 H 0.4290 0.1076 0.4206
C50_3 C 0.41384(13) 0.04616(17) 0.54039(12)
H46_3 H 0.4093 0.0649 0.5717
H47_3 H 0.4454 0.0196 0.5442
H48_3 H 0.3876 0.0098 0.5272
N4_3 N 0.50545(12) 0.31451(18) 0.27468(12)
O9_3 O 0.31626(8) 0.27450(13) 0.37409(8)
O10_3 O 0.38012(9) 0.27635(14) 0.43663(9)
O12_2 O 0.33849(8) 0.25384(12) 0.53516(8)
O14_2 O 0.78371(8) 0.25269(11) 0.08611(8)
O15_2 O 0.21629(8) 0.25269(11) 0.41389(8)
O17_2 O 0.25336(8) 0.14958(13) 0.49707(8)
O19_2 O 0.70218(7) 0.37730(13) 0.04618(7)
O20_2 O 0.29782(7) 0.37730(13) 0.45382(7)
O21_3 O 0.27682(8) 0.12734(12) 0.39757(7)
O22_3 O 0.35970(8) 0.12749(13) 0.47354(8)
S3_3 S 0.30329(3) 0.09974(4) 0.35804(3)
S4_3 S 0.41237(3) 0.13057(5) 0.49851(3)
C8_3 C 0.67271(13) 0.25113(16) 0.92317(12)
C9_3 C 0.63442(13) 0.25253(19) 0.87701(13)
C10_3 C 0.58468(13) 0.25200(19) 0.87958(12)
H5_3 H 0.5762 0.2513 0.9102
C11_3 C 0.54748(15) 0.2525(2) 0.83870(14)
H6_3 H 0.5142 0.2527 0.8413
C12_3 C 0.55977(14) 0.2526(2) 0.79534(14)
C13_3 C 0.60914(14) 0.25069(19) 0.78854(13)
H7_3 H 0.6162 0.2491 0.7574
C14_3 C 0.64801(13) 0.25128(17) 0.83152(12)
H8_3 H 0.6813 0.2508 0.8292
C15_3 C 0.76745(11) 0.10304(18) 0.98095(11)
C16_3 C 0.75878(12) 0.01822(19) 0.98745(13)
C25_3 C 0.58616(13) 0.04616(17) 0.95961(12)
H22_3 H 0.5907 0.0649 0.9283
H23_3 H 0.5546 0.0196 0.9558
H24_3 H 0.6124 0.0098 0.9728
N2_3 N 0.52519(12) 0.24891(18) 0.75093(12)
O3_3 O 0.66151(8) 0.25384(12) 0.96484(8)
O4_2 O 0.71629(8) 0.24731(11) 0.91389(8)
O6_3 O 0.79782(7) 0.12270(13) 0.95382(7)
C33_3 C 0.32729(13) 0.25113(16) 0.57683(12)
C34_3 C 0.36558(13) 0.25253(19) 0.62299(13)
C35_3 C 0.41532(13) 0.25200(19) 0.62042(12)
H29_3 H 0.4238 0.2513 0.5898
C36_3 C 0.45252(15) 0.2525(2) 0.66130(14)
H30_3 H 0.4858 0.2527 0.6587
C37_3 C 0.44023(14) 0.2526(2) 0.70466(14)
C38_3 C 0.39086(14) 0.25069(19) 0.71146(13)
H31_3 H 0.3838 0.2491 0.7426
C39_3 C 0.35199(13) 0.25128(17) 0.66848(12)
H32_3 H 0.3187 0.2508 0.6708
Eu3_2 Eu 0.798954(6) 0.267616(9) 0.953911(5)
Eu5_2 Eu 0.201046(6) 0.267616(9) 0.546089(5)
N5_3 N 0.47481(12) 0.24891(18) 0.74907(12)
O13_2 O 0.28371(8) 0.24731(11) 0.58611(8)
C19_3 C 0.74597(12) 0.85604(18) 0.00114(12)
C20_3 C 0.72019(13) 0.9090(2) 0.02126(14)
H11_3 H 0.6978 0.8906 0.0396
C21_3 C 0.72512(11) 0.9896(2) 0.01608(12)
C22_3 C 0.70091(13) 0.99669(18) 0.13329(13)
H13_3 H 0.6731 0.9794 0.1088
H14_3 H 0.7006 0.9698 0.1635
H15_3 H 0.7313 0.9848 0.1229
N3_3 N 0.73573(10) 0.78009(15) 0.00520(10)
C40_3 C 0.73255(11) 0.39696(18) 0.01905(11)
C41_3 C 0.74122(12) 0.48178(19) 0.01255(13)
C42_3 C 0.71448(12) 0.5353(2) 0.03588(12)
H33_3 H 0.6933 0.5174 0.0556
C43_3 C 0.72055(15) 0.6153(2) 0.02855(14)
H34_3 H 0.7026 0.6517 0.0431
C47_3 C 0.29909(13) 0.99669(18) 0.36671(13)
H37_3 H 0.3269 0.9794 0.3912
H38_3 H 0.2994 0.9698 0.3365
H39_3 H 0.2687 0.9848 0.3771
C17_3 C 0.78552(12) 0.9647(2) 0.96412(12)
H9_3 H 0.8067 0.9826 0.9444
C18_3 C 0.77945(15) 0.8847(2) 0.97145(14)
H10_3 H 0.7974 0.8483 0.9569
C44_3 C 0.75403(12) 0.64396(18) 0.99886(12)
C45_3 C 0.77981(13) 0.5910(2) 0.97874(14)
H35_3 H 0.8022 0.6094 0.9604
C46_3 C 0.77488(11) 0.5104(2) 0.98392(12)
H36_3 H 0.7932 0.4753 0.9690
N6_3 N 0.76427(10) 0.71991(15) 0.99480(10)
O16_3 O 0.75336(8) 0.35042(13) 0.99707(8)
C15_4 C 0.23255(11) 0.10304(18) 0.51905(11)
C16_4 C 0.24122(12) 0.01822(19) 0.51255(13)
H12_4 H 0.2932 0.0247 0.4690
O6_4 O 0.20218(7) 0.12270(13) 0.54618(7)
C17_4 C 0.21448(12) 0.9647(2) 0.53588(12)
H9_4 H 0.1933 0.9826 0.5556
C18_4 C 0.22055(15) 0.8847(2) 0.52855(14)
H10_4 H 0.2026 0.8483 0.5431
C19_4 C 0.25403(12) 0.85604(18) 0.49886(12)
C20_4 C 0.27981(13) 0.9090(2) 0.47874(14)
H11_4 H 0.3022 0.8906 0.4604
C21_4 C 0.27488(11) 0.9896(2) 0.48392(12)
N3_4 N 0.26427(10) 0.78009(15) 0.49480(10)
C40_4 C 0.26745(11) 0.39696(18) 0.48095(11)
C41_4 C 0.25878(12) 0.48178(19) 0.48745(13)
C42_4 C 0.28552(12) 0.5353(2) 0.46412(12)
H33_4 H 0.3067 0.5174 0.4444
C43_4 C 0.27945(15) 0.6153(2) 0.47145(14)
H34_4 H 0.2974 0.6517 0.4569
C44_4 C 0.24597(12) 0.64396(18) 0.50114(12)
C45_4 C 0.22019(13) 0.5910(2) 0.52126(14)
H35_4 H 0.1978 0.6094 0.5396
C46_4 C 0.22512(11) 0.5104(2) 0.51608(12)
H36_4 H 0.2068 0.4753 0.5310
N6_4 N 0.23573(10) 0.71991(15) 0.50520(10)
O16_4 O 0.24664(8) 0.35042(13) 0.50293(8)
C33_4 C 0.17271(13) 0.24887(16) 0.42317(12)
C34_4 C 0.13442(13) 0.24747(19) 0.37701(13)
C35_4 C 0.08468(13) 0.24800(19) 0.37958(12)
H29_4 H 0.0762 0.2487 0.4102
C36_4 C 0.04748(15) 0.2475(2) 0.33870(14)
H30_4 H 0.0142 0.2473 0.3413
C37_4 C 0.05977(14) 0.2474(2) 0.29534(14)
C38_4 C 0.10914(14) 0.24931(19) 0.28854(13)
H31_4 H 0.1162 0.2509 0.2574
C39_4 C 0.14801(13) 0.24872(17) 0.33152(12)
H32_4 H 0.1813 0.2492 0.3292
N5_4 N 0.02519(12) 0.25109(18) 0.25093(12)
O11_2 O 0.16151(8) 0.24616(12) 0.46484(8)
H3_4 H 0.0178 0.1760 0.8665
N1_4 N 0.00545(12) 0.18549(18) 0.77468(12)
C26_4 C 0.13929(14) 0.2154(2) 0.61000(13)
C27_4 C 0.10135(13) 0.19352(18) 0.63885(13)
C28_4 C 0.11749(14) 0.2045(2) 0.68987(13)
H25_4 H 0.1506 0.2162 0.7033
C29_4 C 0.08265(12) 0.19745(19) 0.71970(12)
H26_4 H 0.0930 0.1996 0.7536
C30_4 C 0.03275(14) 0.1873(2) 0.69899(14)
C31_4 C 0.01558(13) 0.18418(19) 0.64748(13)
C32_4 C 0.05050(12) 0.19382(19) 0.61917(13)
H28_4 H 0.0398 0.2008 0.5856
C47_4 C 0.20091(13) 0.50331(18) 0.63329(13)
H37_4 H 0.1731 0.5206 0.6088
H38_4 H 0.2006 0.5302 0.6635
H39_4 H 0.2313 0.5152 0.6229
C48_4 C 0.23637(13) 0.3718(2) 0.69895(13)
H40_4 H 0.2551 0.4170 0.7133
H41_4 H 0.2164 0.3523 0.7208
H42_4 H 0.2588 0.3310 0.6931
C49_4 C 0.05288(12) 0.40513(19) 0.54714(13)
H43_4 H 0.0487 0.4616 0.5442
H44_4 H 0.0208 0.3801 0.5416
H45_4 H 0.0710 0.3924 0.5794
C50_4 C 0.08616(13) 0.45384(17) 0.45961(12)
H46_4 H 0.0907 0.4351 0.4283
H47_4 H 0.0546 0.4804 0.4558
H48_4 H 0.1124 0.4902 0.4728
O9_4 O 0.18374(8) 0.22550(13) 0.62591(8)
O10_4 O 0.11988(9) 0.22365(14) 0.56337(9)
O21_4 O 0.22318(8) 0.37266(12) 0.60243(7)
O22_4 O 0.14030(8) 0.37251(13) 0.52646(8)
S3_4 S 0.19671(3) 0.40026(4) 0.64196(3)
S4_4 S 0.08763(3) 0.36943(5) 0.50149(3)
C8_4 C 0.82729(13) 0.24887(16) 0.07683(12)
C9_4 C 0.86558(13) 0.24747(19) 0.12299(13)
C10_4 C 0.91532(13) 0.24800(19) 0.12042(12)
H5_4 H 0.9238 0.2487 0.0898
C11_4 C 0.95252(15) 0.2475(2) 0.16130(14)
H6_4 H 0.9858 0.2473 0.1587
C12_4 C 0.94023(14) 0.2474(2) 0.20466(14)
C13_4 C 0.89086(14) 0.24931(19) 0.21146(13)
H7_4 H 0.8838 0.2509 0.2426
C14_4 C 0.85199(13) 0.24872(17) 0.16848(12)
H8_4 H 0.8187 0.2492 0.1708
C25_4 C 0.91384(13) 0.45384(17) 0.04039(12)
H22_4 H 0.9093 0.4351 0.0717
H23_4 H 0.9454 0.4804 0.0442
H24_4 H 0.8876 0.4902 0.0272
N2_4 N 0.97481(12) 0.25109(18) 0.24907(12)
O3_4 O 0.83849(8) 0.24616(12) 0.03516(8)
C1_4 C 0.86071(14) 0.2154(2) 0.89000(13)
C2_4 C 0.89865(13) 0.19352(18) 0.86115(13)
C3_4 C 0.88251(14) 0.2045(2) 0.81013(13)
H1_4 H 0.8494 0.2162 0.7967
C4_4 C 0.91735(12) 0.19745(19) 0.78030(12)
H2_4 H 0.9070 0.1996 0.7464
C5_4 C 0.96725(14) 0.1873(2) 0.80101(14)
C6_4 C 0.98442(13) 0.18418(19) 0.85252(13)
C7_4 C 0.94950(12) 0.19382(19) 0.88083(13)
H4_4 H 0.9602 0.2008 0.9144
C22_4 C 0.79909(13) 0.50331(18) 0.86671(13)
H13_4 H 0.8269 0.5206 0.8912
H14_4 H 0.7994 0.5302 0.8365
H15_4 H 0.7687 0.5152 0.8771
C23_4 C 0.76363(13) 0.3718(2) 0.80105(13)
H16_4 H 0.7449 0.4170 0.7867
H17_4 H 0.7836 0.3523 0.7792
H18_4 H 0.7412 0.3310 0.8069
C24_4 C 0.94712(12) 0.40513(19) 0.95286(13)
H19_4 H 0.9513 0.4616 0.9558
H20_4 H 0.9792 0.3801 0.9584
H21_4 H 0.9290 0.3924 0.9206
O1_4 O 0.81626(8) 0.22550(13) 0.87409(8)
O2_4 O 0.88012(9) 0.22365(14) 0.93663(9)
O7_4 O 0.77682(8) 0.37266(12) 0.89757(7)
O8_4 O 0.85970(8) 0.37251(13) 0.97354(8)
S1_4 S 0.80329(3) 0.40026(4) 0.85804(3)
S2_4 S 0.91237(3) 0.36943(5) 0.99851(3)
H27_4 H 0.9822 0.1760 0.6335
N4_4 N 0.99455(12) 0.18549(18) 0.72532(12)
loop_
_geom_bond_atom_site_label_1
_geom_bond_atom_site_label_2
_geom_bond_site_symmetry_1
_geom_bond_site_symmetry_2
C1 C2 1_555 1_555
C2 C3 1_555 1_555
C3 H1 1_555 1_555
C4 C3 1_555 1_555
H2 C4 1_555 1_555
C5 C4 1_555 1_555
C6 C5 1_555 1_555
C7 C2 1_555 1_555
H4 C7 1_555 1_555
Eu1 O1 1_555 1_555
C20 C19 1_555 1_555
H11 C20 1_555 1_555
H12 C21 1_555 1_555
C22 H13 1_555 1_555
H14 C22 1_555 1_555
H15 C22 1_555 1_555
C23 H16 1_555 1_555
H17 C23 1_555 1_555
H18 C23 1_555 1_555
C24 H19 1_555 1_555
H20 C24 1_555 1_555
H21 C24 1_555 1_555
N3 C19 1_555 1_555
O1 C1 1_555 1_555
O2 C1 1_555 1_555
O5 Eu1 1_555 1_555
O7 Eu1 1_555 1_555
O8 Eu1 1_555 1_555
S1 C22 1_555 1_555
S2 C24 1_555 1_555
C42 H33 1_555 1_555
C43 C42 1_555 1_555
H34 C43 1_555 1_555
O14 Eu1 1_555 1_555
O19 Eu1 1_555 1_555
C6 C7 1_555 1_555
Eu1 O2 1_555 1_555
C20 C21 1_555 1_555
C23 S1 1_555 1_555
O7 S1 1_555 1_555
O8 S2 1_555 1_555
C8 C9 1_555 1_555
C9 C10 1_555 1_555
C10 H5 1_555 1_555
C11 C10 1_555 1_555
H6 C11 1_555 1_555
C12 C11 1_555 1_555
C13 C12 1_555 1_555
H7 C13 1_555 1_555
C14 C9 1_555 1_555
H8 C14 1_555 1_555
C15 C16 1_555 1_555
C16 C17 1_555 1_555
C17 H9 1_555 1_555
C18 C17 1_555 1_555
H10 C18 1_555 1_555
C25 H22 1_555 1_555
H23 C25 1_555 1_555
H24 C25 1_555 1_555
N2 C12 1_555 1_555
O3 C8 1_555 1_555
O4 C8 1_555 1_555
O6 C15 1_555 1_555
Eu3 O4 1_555 1_555
C45 C44 1_555 1_555
H35 C45 1_555 1_555
C13 C14 1_555 1_555
O6 Eu3 1_555 1_555
C44 N6 1_555 1_555
C45 C46 1_555 1_555
C40 C41 1_555 1_555
O19 C40 1_555 1_555
Eu3 O16 1_555 1_555
C26 C27 1_555 1_555
C27 C28 1_555 1_555
C28 H25 1_555 1_555
C29 C28 1_555 1_555
H26 C29 1_555 1_555
C30 C29 1_555 1_555
C31 C30 1_555 1_555
C32 C27 1_555 1_555
H28 C32 1_555 1_555
Eu2 O9 1_555 1_555
C47 H37 1_555 1_555
H38 C47 1_555 1_555
H39 C47 1_555 1_555
C48 H40 1_555 1_555
H41 C48 1_555 1_555
H42 C48 1_555 1_555
C49 H43 1_555 1_555
H44 C49 1_555 1_555
H45 C49 1_555 1_555
C50 H46 1_555 1_555
H47 C50 1_555 1_555
H48 C50 1_555 1_555
O9 C26 1_555 1_555
O10 C26 1_555 1_555
O12 Eu2 1_555 1_555
O15 Eu2 1_555 1_555
O17 Eu2 1_555 1_555
O20 Eu2 1_555 1_555
O21 Eu2 1_555 1_555
O22 Eu2 1_555 1_555
S3 C47 1_555 1_555
S4 C49 1_555 1_555
C31 C32 1_555 1_555
Eu2 O10 1_555 1_555
C48 S3 1_555 1_555
C50 S4 1_555 1_555
O21 S3 1_555 1_555
O22 S4 1_555 1_555
C33 C34 1_555 1_555
C34 C35 1_555 1_555
C35 H29 1_555 1_555
C36 C35 1_555 1_555
H30 C36 1_555 1_555
C37 C36 1_555 1_555
C38 C37 1_555 1_555
H31 C38 1_555 1_555
C39 C34 1_555 1_555
H32 C39 1_555 1_555
Eu5 O13 1_555 1_555
O12 C33 1_555 1_555
O13 C33 1_555 1_555
C37 N5 1_555 1_555
C38 C39 1_555 1_555
C15_2 C16_2 1_555 1_555
C16_2 C17_2 1_555 1_555
C17_2 H9_2 1_555 1_555
C18_2 C17_2 1_555 1_555
H10_2 C18_2 1_555 1_555
C19_2 C18_2 1_555 1_555
C20_2 C19_2 1_555 1_555
H11_2 C20_2 1_555 1_555
C21_2 C16_2 1_555 1_555
H12_2 C21_2 1_555 1_555
N3_2 C19_2 1_555 1_555
O6_2 C15_2 1_555 1_555
C42_2 H33_2 1_555 1_555
C43_2 C42_2 1_555 1_555
H34_2 C43_2 1_555 1_555
C44_2 C43_2 1_555 1_555
C45_2 C44_2 1_555 1_555
H35_2 C45_2 1_555 1_555
N6_2 N3_2 1_555 1_555
C15_2 O17 1_555 1_555
C20_2 C21_2 1_555 1_555
O6_2 Eu5 1_555 1_555
C44_2 N6_2 1_555 1_555
C45_2 C46_2 1_555 1_555
Eu5 O16_2 1_555 1_555
C40_2 C41_2 1_555 1_555
O16_2 C40_2 1_555 1_555
O20 C40_2 1_555 1_555
C22_2 H13_2 1_555 1_555
H14_2 C22_2 1_555 1_555
H15_2 C22_2 1_555 1_555
C47_2 H37_2 1_555 1_555
H38_2 C47_2 1_555 1_555
H39_2 C47_2 1_555 1_555
C8_2 C9_2 1_555 1_555
C9_2 C10_2 1_555 1_555
C10_2 H5_2 1_555 1_555
C11_2 C10_2 1_555 1_555
H6_2 C11_2 1_555 1_555
C12_2 C11_2 1_555 1_555
C13_2 C12_2 1_555 1_555
H7_2 C13_2 1_555 1_555
C14_2 C9_2 1_555 1_555
H8_2 C14_2 1_555 1_555
C25_2 H22_2 1_555 1_555
H23_2 C25_2 1_555 1_555
H24_2 C25_2 1_555 1_555
N2_2 C12_2 1_555 1_555
O3_2 C8_2 1_555 1_555
O14 C8_2 1_555 1_555
C33_2 C34_2 1_555 1_555
C34_2 C35_2 1_555 1_555
C35_2 H29_2 1_555 1_555
C36_2 C35_2 1_555 1_555
H30_2 C36_2 1_555 1_555
C37_2 C36_2 1_555 1_555
C38_2 C37_2 1_555 1_555
H31_2 C38_2 1_555 1_555
C39_2 C34_2 1_555 1_555
H32_2 C39_2 1_555 1_555
Eu5 O11 1_555 1_555
N5_2 N2_2 1_555 1_555
O11 C33_2 1_555 1_555
O15 C33_2 1_555 1_555
C13_2 C14_2 1_555 1_555
C37_2 N5_2 1_555 1_555
C38_2 C39_2 1_555 1_555
C1_2 C2_2 1_555 1_555
C2_2 C3_2 1_555 1_555
C3_2 H1_2 1_555 1_555
C4_2 C3_2 1_555 1_555
H2_2 C4_2 1_555 1_555
C5_2 C4_2 1_555 1_555
C6_2 C5_2 1_555 1_555
H3_2 C6_2 1_555 1_555
C7_2 C2_2 1_555 1_555
H4_2 C7_2 1_555 1_555
Eu3 O1_2 1_555 1_555
C23_2 H16_2 1_555 1_555
H17_2 C23_2 1_555 1_555
H18_2 C23_2 1_555 1_555
C24_2 H19_2 1_555 1_555
H20_2 C24_2 1_555 1_555
H21_2 C24_2 1_555 1_555
N1_2 C5_2 1_555 1_555
O1_2 C1_2 1_555 1_555
O2_2 C1_2 1_555 1_555
O7_2 Eu3 1_555 1_555
O8_2 Eu3 1_555 1_555
S2_2 C24_2 1_555 1_555
C26_2 C27_2 1_555 1_555
C27_2 C28_2 1_555 1_555
C28_2 H25_2 1_555 1_555
C29_2 C28_2 1_555 1_555
H26_2 C29_2 1_555 1_555
C30_2 C29_2 1_555 1_555
C31_2 C30_2 1_555 1_555
H27_2 C31_2 1_555 1_555
C32_2 C27_2 1_555 1_555
H28_2 C32_2 1_555 1_555
Eu5 O9_2 1_555 1_555
C48_2 H40_2 1_555 1_555
H41_2 C48_2 1_555 1_555
H42_2 C48_2 1_555 1_555
C49_2 H43_2 1_555 1_555
H44_2 C49_2 1_555 1_555
H45_2 C49_2 1_555 1_555
C50_2 H46_2 1_555 1_555
H47_2 C50_2 1_555 1_555
H48_2 C50_2 1_555 1_555
N4_2 N1_2 1_555 1_555
O9_2 C26_2 1_555 1_555
O10_2 C26_2 1_555 1_555
O21_2 Eu5 1_555 1_555
O22_2 Eu5 1_555 1_555
S4_2 C49_2 1_555 1_555
C6_2 C7_2 1_555 1_555
Eu3 O2_2 1_555 1_555
C23_2 S1_2 1_555 1_555
O7_2 S1_2 1_555 1_555
O8_2 S2_2 1_555 1_555
C30_2 N4_2 1_555 1_555
C31_2 C32_2 1_555 1_555
Eu5 O10_2 1_555 1_555
C48_2 S3_2 1_555 1_555
C50_2 S4_2 1_555 1_555
O21_2 S3_2 1_555 1_555
O22_2 S4_2 1_555 1_555
C1_3 C2_3 1_555 1_555
C2_3 C3_3 1_555 1_555
C3_3 H1_3 1_555 1_555
C4_3 C3_3 1_555 1_555
H2_3 C4_3 1_555 1_555
C5_3 C4_3 1_555 1_555
C6_3 C5_3 1_555 1_555
H3_3 C6_3 1_555 1_555
C7_3 C2_3 1_555 1_555
H4_3 C7_3 1_555 1_555
Eu1_2 O1_3 1_555 1_555
C23_3 H16_3 1_555 1_555
H17_3 C23_3 1_555 1_555
H18_3 C23_3 1_555 1_555
C24_3 H19_3 1_555 1_555
H20_3 C24_3 1_555 1_555
H21_3 C24_3 1_555 1_555
N1_3 C5_3 1_555 1_555
O1_3 C1_3 1_555 1_555
O2_3 C1_3 1_555 1_555
O5_2 Eu1_2 1_555 1_555
O7_3 Eu1_2 1_555 1_555
O8_3 Eu1_2 1_555 1_555
S2_3 C24_3 1_555 1_555
C26_3 C27_3 1_555 1_555
C27_3 C28_3 1_555 1_555
C28_3 H25_3 1_555 1_555
C29_3 C28_3 1_555 1_555
H26_3 C29_3 1_555 1_555
C30_3 C29_3 1_555 1_555
C31_3 C30_3 1_555 1_555
H27_3 C31_3 1_555 1_555
C32_3 C27_3 1_555 1_555
H28_3 C32_3 1_555 1_555
Eu2_2 O9_3 1_555 1_555
C48_3 H40_3 1_555 1_555
H41_3 C48_3 1_555 1_555
H42_3 C48_3 1_555 1_555
C49_3 H43_3 1_555 1_555
H44_3 C49_3 1_555 1_555
H45_3 C49_3 1_555 1_555
C50_3 H46_3 1_555 1_555
H47_3 C50_3 1_555 1_555
H48_3 C50_3 1_555 1_555
N4_3 N1_3 1_555 1_555
O9_3 C26_3 1_555 1_555
O10_3 C26_3 1_555 1_555
O12_2 Eu2_2 1_555 1_555
O14_2 Eu1_2 1_555 1_555
O15_2 Eu2_2 1_555 1_555
O17_2 Eu2_2 1_555 1_555
O19_2 Eu1_2 1_555 1_555
O20_2 Eu2_2 1_555 1_555
O21_3 Eu2_2 1_555 1_555
O22_3 Eu2_2 1_555 1_555
S4_3 C49_3 1_555 1_555
C6_3 C7_3 1_555 1_555
Eu1_2 O2_3 1_555 1_555
C23_3 S1_3 1_555 1_555
O7_3 S1_3 1_555 1_555
O8_3 S2_3 1_555 1_555
C30_3 N4_3 1_555 1_555
C31_3 C32_3 1_555 1_555
Eu2_2 O10_3 1_555 1_555
C48_3 S3_3 1_555 1_555
C50_3 S4_3 1_555 1_555
O21_3 S3_3 1_555 1_555
O22_3 S4_3 1_555 1_555
C8_3 C9_3 1_555 1_555
C9_3 C10_3 1_555 1_555
C10_3 H5_3 1_555 1_555
C11_3 C10_3 1_555 1_555
H6_3 C11_3 1_555 1_555
C12_3 C11_3 1_555 1_555
C13_3 C12_3 1_555 1_555
H7_3 C13_3 1_555 1_555
C14_3 C9_3 1_555 1_555
H8_3 C14_3 1_555 1_555
C15_3 C16_3 1_555 1_555
C25_3 H22_3 1_555 1_555
H23_3 C25_3 1_555 1_555
H24_3 C25_3 1_555 1_555
N2_3 C12_3 1_555 1_555
O3_3 C8_3 1_555 1_555
O4_2 C8_3 1_555 1_555
O6_3 C15_3 1_555 1_555
C33_3 C34_3 1_555 1_555
C34_3 C35_3 1_555 1_555
C35_3 H29_3 1_555 1_555
C36_3 C35_3 1_555 1_555
H30_3 C36_3 1_555 1_555
C37_3 C36_3 1_555 1_555
C38_3 C37_3 1_555 1_555
H31_3 C38_3 1_555 1_555
C39_3 C34_3 1_555 1_555
H32_3 C39_3 1_555 1_555
Eu3_2 O4_2 1_555 1_555
Eu5_2 O13_2 1_555 1_555
N5_3 N2_3 1_555 1_555
O12_2 C33_3 1_555 1_555
O13_2 C33_3 1_555 1_555
C13_3 C14_3 1_555 1_555
O6_3 Eu3_2 1_555 1_555
C37_3 N5_3 1_555 1_555
C38_3 C39_3 1_555 1_555
C20_3 C19_3 1_555 1_555
H11_3 C20_3 1_555 1_555
C22_3 H13_3 1_555 1_555
H14_3 C22_3 1_555 1_555
H15_3 C22_3 1_555 1_555
N3_3 C19_3 1_555 1_555
C40_3 C41_3 1_555 1_555
C41_3 C42_3 1_555 1_555
C42_3 H33_3 1_555 1_555
C43_3 C42_3 1_555 1_555
H34_3 C43_3 1_555 1_555
C47_3 H37_3 1_555 1_555
H38_3 C47_3 1_555 1_555
H39_3 C47_3 1_555 1_555
O19_2 C40_3 1_555 1_555
C20_3 C21_3 1_555 1_555
C17_3 H9_3 1_555 1_555
C18_3 C17_3 1_555 1_555
H10_3 C18_3 1_555 1_555
Eu3_2 O16_3 1_555 1_555
C45_3 C44_3 1_555 1_555
H35_3 C45_3 1_555 1_555
H36_3 C46_3 1_555 1_555
C44_3 N6_3 1_555 1_555
C45_3 C46_3 1_555 1_555
C15_4 C16_4 1_555 1_555
O6_4 C15_4 1_555 1_555
C15_4 O17_2 1_555 1_555
O6_4 Eu5_2 1_555 1_555
C17_4 H9_4 1_555 1_555
C18_4 C17_4 1_555 1_555
H10_4 C18_4 1_555 1_555
C19_4 C18_4 1_555 1_555
C20_4 C19_4 1_555 1_555
H11_4 C20_4 1_555 1_555
N3_4 C19_4 1_555 1_555
Eu5_2 O16_4 1_555 1_555
C40_4 C41_4 1_555 1_555
C41_4 C42_4 1_555 1_555
C42_4 H33_4 1_555 1_555
C43_4 C42_4 1_555 1_555
H34_4 C43_4 1_555 1_555
C44_4 C43_4 1_555 1_555
C45_4 C44_4 1_555 1_555
H35_4 C45_4 1_555 1_555
C46_4 C41_4 1_555 1_555
H36_4 C46_4 1_555 1_555
N6_4 N3_4 1_555 1_555
O16_4 C40_4 1_555 1_555
O20_2 C40_4 1_555 1_555
C20_4 C21_4 1_555 1_555
C44_4 N6_4 1_555 1_555
C45_4 C46_4 1_555 1_555
C33_4 C34_4 1_555 1_555
C34_4 C35_4 1_555 1_555
C35_4 H29_4 1_555 1_555
C36_4 C35_4 1_555 1_555
H30_4 C36_4 1_555 1_555
C37_4 C36_4 1_555 1_555
C38_4 C37_4 1_555 1_555
H31_4 C38_4 1_555 1_555
C39_4 C34_4 1_555 1_555
H32_4 C39_4 1_555 1_555
Eu5_2 O11_2 1_555 1_555
O11_2 C33_4 1_555 1_555
O15_2 C33_4 1_555 1_555
C37_4 N5_4 1_555 1_555
C38_4 C39_4 1_555 1_555
C26_4 C27_4 1_555 1_555
C27_4 C28_4 1_555 1_555
C28_4 H25_4 1_555 1_555
C29_4 C28_4 1_555 1_555
H26_4 C29_4 1_555 1_555
C30_4 C29_4 1_555 1_555
C31_4 C30_4 1_555 1_555
C32_4 C27_4 1_555 1_555
H28_4 C32_4 1_555 1_555
Eu5_2 O9_4 1_555 1_555
C47_4 H37_4 1_555 1_555
H38_4 C47_4 1_555 1_555
H39_4 C47_4 1_555 1_555
C48_4 H40_4 1_555 1_555
H41_4 C48_4 1_555 1_555
H42_4 C48_4 1_555 1_555
C49_4 H43_4 1_555 1_555
H44_4 C49_4 1_555 1_555
H45_4 C49_4 1_555 1_555
C50_4 H46_4 1_555 1_555
H47_4 C50_4 1_555 1_555
H48_4 C50_4 1_555 1_555
O9_4 C26_4 1_555 1_555
O10_4 C26_4 1_555 1_555
O21_4 Eu5_2 1_555 1_555
O22_4 Eu5_2 1_555 1_555
S3_4 C47_4 1_555 1_555
S4_4 C49_4 1_555 1_555
C31_4 C32_4 1_555 1_555
Eu5_2 O10_4 1_555 1_555
C48_4 S3_4 1_555 1_555
C50_4 S4_4 1_555 1_555
O21_4 S3_4 1_555 1_555
O22_4 S4_4 1_555 1_555
C8_4 C9_4 1_555 1_555
C9_4 C10_4 1_555 1_555
C10_4 H5_4 1_555 1_555
C11_4 C10_4 1_555 1_555
H6_4 C11_4 1_555 1_555
C12_4 C11_4 1_555 1_555
C13_4 C12_4 1_555 1_555
H7_4 C13_4 1_555 1_555
C14_4 C9_4 1_555 1_555
H8_4 C14_4 1_555 1_555
C25_4 H22_4 1_555 1_555
H23_4 C25_4 1_555 1_555
H24_4 C25_4 1_555 1_555
N2_4 C12_4 1_555 1_555
O3_4 C8_4 1_555 1_555
O14_2 C8_4 1_555 1_555
C13_4 C14_4 1_555 1_555
C1_4 C2_4 1_555 1_555
C2_4 C3_4 1_555 1_555
C3_4 H1_4 1_555 1_555
C4_4 C3_4 1_555 1_555
H2_4 C4_4 1_555 1_555
C5_4 C4_4 1_555 1_555
C6_4 C5_4 1_555 1_555
C7_4 C2_4 1_555 1_555
H4_4 C7_4 1_555 1_555
Eu3_2 O1_4 1_555 1_555
C22_4 H13_4 1_555 1_555
H14_4 C22_4 1_555 1_555
H15_4 C22_4 1_555 1_555
C23_4 H16_4 1_555 1_555
H17_4 C23_4 1_555 1_555
H18_4 C23_4 1_555 1_555
C24_4 H19_4 1_555 1_555
H20_4 C24_4 1_555 1_555
H21_4 C24_4 1_555 1_555
O1_4 C1_4 1_555 1_555
O2_4 C1_4 1_555 1_555
O7_4 Eu3_2 1_555 1_555
O8_4 Eu3_2 1_555 1_555
S1_4 C22_4 1_555 1_555
S2_4 C24_4 1_555 1_555
C6_4 C7_4 1_555 1_555
Eu3_2 O2_4 1_555 1_555
C23_4 S1_4 1_555 1_555
O7_4 S1_4 1_555 1_555
O8_4 S2_4 1_555 1_555

#END
