
###############################################################################
#
# This file contains modified crystal structure data generated from the
# MOF subset of the Cambridge Structural Database (CSD) v543 
# hosted by the Cambridge Crystallographic Data Centre (CCDC).
#
# This work is licensed under the Creative Commons
# Attribution-NonCommercial-ShareAlike 4.0 International License.
# To view a copy of this license, visit
# http://creativecommons.org/licenses/by-nc-sa/4.0/
# or send a letter to
# Creative Commons, PO Box 1866, Mountain View, CA 94042, USA.
#
# CIF created using the CSD Python API on 29 September 2022
# The structure has been converted into the P1 space group
# The structure has a 3D framework
# The original CSD entry ALUKIC is in the monoclinic crystal system
# The framework has been calculated to contain at least 10.0% void space
# The void calculation uses a probe of radius 1.32A, grid spacing 0.4
#
###############################################################################

data_ALUKIC
_chemical_formula_moiety         '(C200 H192 Ce8 N24 O60 S16)n'
_symmetry_cell_setting           triclinic
_symmetry_space_group_name_H-M   'P 1'
_symmetry_Int_Tables_number      1
_space_group_name_Hall           'P 1'
loop_
_symmetry_equiv_pos_site_id
_symmetry_equiv_pos_as_xyz
1 x,y,z
_cell_length_a                   27.4350(16)
_cell_length_b                   16.8706(11)
_cell_length_c                   28.128(2)
_cell_angle_alpha                90
_cell_angle_beta                 102.482(14)
_cell_angle_gamma                90
_cell_volume                     12711.2
loop_
_atom_site_label
_atom_site_type_symbol
_atom_site_fract_x
_atom_site_fract_y
_atom_site_fract_z
C17 C 0.21458(15) 0.0357(2) 0.03603(13)
H9 H 0.1939 0.0178 0.0560
C18 C 0.22031(17) 0.1151(2) 0.02854(15)
H10 H 0.2022 0.1514 0.0426
C44 C 0.24588(14) 0.3563(2) 0.00089(13)
C45 C 0.22028(16) 0.4090(2) 0.02099(14)
H35 H 0.1980 0.3905 0.0391
C46 C 0.22532(13) 0.4897(2) 0.01621(12)
H36 H 0.2073 0.5249 0.0312
Ce6 Ce 0.201083(8) 0.732300(11) 0.046104(6)
N6 N 0.23547(12) 0.27989(16) 0.00526(11)
O16 O 0.24678(9) 0.64972(14) 0.00286(9)
C19 C 0.25412(14) 0.1437(2) 0.99911(13)
C20 C 0.27972(16) 0.0910(2) 0.97901(14)
H11 H 0.3020 0.1095 0.9609
C21 C 0.27468(13) 0.0103(2) 0.98379(12)
N3 N 0.26453(12) 0.22011(16) 0.99474(11)
C40 C 0.26780(15) 0.6029(2) 0.98088(13)
C41 C 0.25912(14) 0.5182(2) 0.98744(13)
C42 C 0.28542(15) 0.4643(2) 0.96397(13)
H33 H 0.3061 0.4822 0.9440
C43 C 0.27969(17) 0.3849(2) 0.97146(15)
H34 H 0.2978 0.3486 0.9574
Ce7 Ce 0.298917(8) 0.767700(11) 0.953896(6)
O19 O 0.29780(9) 0.62284(13) 0.95394(7)
C1 C 0.13903(16) 0.7844(2) 0.10996(13)
C2 C 0.10120(15) 0.8059(2) 0.13889(13)
C3 C 0.11761(16) 0.7958(2) 0.18993(13)
H1 H 0.1509 0.7847 0.2034
C4 C 0.08293(16) 0.8027(2) 0.21978(12)
H2 H 0.0937 0.8006 0.2535
C5 C 0.03270(17) 0.8127(2) 0.19905(14)
C6 C 0.01552(16) 0.8159(2) 0.14755(14)
C7 C 0.05034(15) 0.8062(2) 0.11917(14)
H4 H 0.0393 0.7996 0.0857
C8 C 0.32755(14) 0.74860(18) 0.07698(13)
C9 C 0.36590(15) 0.7473(2) 0.12306(14)
C10 C 0.41529(15) 0.7481(2) 0.12041(13)
H5 H 0.4235 0.7488 0.0900
C11 C 0.45268(17) 0.7480(2) 0.16129(14)
H6 H 0.4860 0.7483 0.1591
C12 C 0.43984(17) 0.7474(2) 0.20473(15)
C13 C 0.39094(16) 0.7490(2) 0.21131(13)
H7 H 0.3839 0.7501 0.2422
C14 C 0.35247(15) 0.7487(2) 0.16853(13)
H8 H 0.3191 0.7495 0.1705
C15 C 0.23220(15) 0.8971(2) 0.01912(13)
C16 C 0.24088(14) 0.9818(2) 0.01256(13)
C22 C 0.20127(16) 0.4964(2) 0.13314(14)
H13 H 0.1728 0.4787 0.1093
H14 H 0.2022 0.4694 0.1633
H15 H 0.2312 0.4851 0.1220
C23 C 0.23639(15) 0.6276(2) 0.19902(14)
H16 H 0.2558 0.5827 0.2130
H17 H 0.2163 0.6456 0.2209
H18 H 0.2583 0.6695 0.1937
C24 C 0.05280(14) 0.5948(2) 0.04719(13)
H19 H 0.0480 0.5385 0.0438
H20 H 0.0209 0.6207 0.0420
H21 H 0.0715 0.6066 0.0794
N2 N 0.47504(13) 0.7510(2) 0.24918(13)
O1 O 0.18378(10) 0.77446(14) 0.12603(9)
O2 O 0.11996(10) 0.77642(15) 0.06344(9)
O3 O 0.33855(10) 0.74610(14) 0.03519(8)
O4 O 0.28360(10) 0.75288(12) 0.08620(9)
O6 O 0.20220(9) 0.87716(13) 0.04606(7)
O7 O 0.22312(9) 0.62727(13) 0.10245(8)
O8 O 0.14023(9) 0.62724(14) 0.02634(9)
S1 S 0.19673(4) 0.59967(5) 0.14198(3)
S2 S 0.08762(3) 0.63056(5) 0.00148(3)
H27 H 0.0180 0.8242 0.3665
C33 C 0.67245(14) 0.74860(18) 0.42302(13)
C34 C 0.63410(15) 0.7473(2) 0.37694(14)
C35 C 0.58471(15) 0.7481(2) 0.37959(13)
H29 H 0.5765 0.7488 0.4100
C36 C 0.54732(17) 0.7480(2) 0.33871(14)
H30 H 0.5140 0.7483 0.3409
C37 C 0.56016(17) 0.7474(2) 0.29527(15)
C38 C 0.60906(16) 0.7490(2) 0.28869(13)
H31 H 0.6161 0.7501 0.2578
C39 C 0.64753(15) 0.7487(2) 0.33147(13)
H32 H 0.6809 0.7495 0.3295
Ce4 Ce 0.701083(8) 0.767700(11) 0.546104(6)
Ce5 Ce 0.798917(8) 0.732300(11) 0.453896(6)
N4 N 0.00523(14) 0.8148(2) 0.27491(12)
N5 N 0.52496(13) 0.7510(2) 0.25082(13)
O11 O 0.66145(10) 0.74610(14) 0.46481(8)
O14 O 0.71640(10) 0.75288(12) 0.41380(9)
H12 H 0.2927 0.9751 0.9688
C25 C 0.08606(15) 0.54640(19) 0.95978(12)
H22 H 0.0883 0.5656 0.9282
H23 H 0.0553 0.5178 0.9573
H24 H 0.1137 0.5118 0.9720
O5 O 0.25322(9) 0.85028(14) 0.99714(9)
O12 O 0.16145(10) 0.75390(14) 0.96481(8)
H3 H 0.9820 0.8242 0.1335
N1 N 0.99477(14) 0.8148(2) 0.22509(12)
C26 C 0.86097(16) 0.7844(2) 0.39004(13)
C27 C 0.89880(15) 0.8059(2) 0.36111(13)
C28 C 0.88239(16) 0.7958(2) 0.31007(13)
H25 H 0.8491 0.7847 0.2966
C29 C 0.91707(16) 0.8027(2) 0.28022(12)
H26 H 0.9063 0.8006 0.2465
C30 C 0.96730(17) 0.8127(2) 0.30095(14)
C31 C 0.98448(16) 0.8159(2) 0.35245(14)
C32 C 0.94966(15) 0.8062(2) 0.38083(14)
H28 H 0.9607 0.7996 0.4143
C47 C 0.79873(16) 0.4964(2) 0.36686(14)
H37 H 0.8272 0.4787 0.3907
H38 H 0.7978 0.4694 0.3367
H39 H 0.7688 0.4851 0.3780
C48 C 0.76361(15) 0.6276(2) 0.30098(14)
H40 H 0.7442 0.5827 0.2870
H41 H 0.7837 0.6456 0.2791
H42 H 0.7417 0.6695 0.3063
C49 C 0.94720(14) 0.5948(2) 0.45281(13)
H43 H 0.9520 0.5385 0.4562
H44 H 0.9791 0.6207 0.4580
H45 H 0.9285 0.6066 0.4206
C50 C 0.91394(15) 0.54640(19) 0.54022(12)
H46 H 0.9117 0.5656 0.5718
H47 H 0.9447 0.5178 0.5427
H48 H 0.8863 0.5118 0.5280
O9 O 0.81622(10) 0.77446(14) 0.37397(9)
O10 O 0.88004(10) 0.77642(15) 0.43656(9)
O13 O 0.83855(10) 0.75390(14) 0.53519(8)
O18 O 0.75322(9) 0.64972(14) 0.49714(9)
O20 O 0.79780(9) 0.87716(13) 0.45394(7)
O21 O 0.77688(9) 0.62727(13) 0.39755(8)
O22 O 0.85977(9) 0.62724(14) 0.47366(9)
S3 S 0.80327(4) 0.59967(5) 0.35802(3)
S4 S 0.91238(3) 0.63056(5) 0.49852(3)
C17_2 C 0.78542(15) 0.0357(2) 0.46397(13)
H9_2 H 0.8061 0.0178 0.4440
C18_2 C 0.77969(17) 0.1151(2) 0.47146(15)
H10_2 H 0.7978 0.1514 0.4574
C19_2 C 0.74588(14) 0.1437(2) 0.50089(13)
C20_2 C 0.72028(16) 0.0910(2) 0.52099(14)
H11_2 H 0.6980 0.1095 0.5391
C21_2 C 0.72532(13) 0.0103(2) 0.51621(12)
N3_2 N 0.73547(12) 0.22011(16) 0.50526(11)
C40_2 C 0.73220(15) 0.6029(2) 0.51912(13)
C41_2 C 0.74088(14) 0.5182(2) 0.51256(13)
C42_2 C 0.71458(15) 0.4643(2) 0.53603(13)
H33_2 H 0.6939 0.4822 0.5560
C43_2 C 0.72031(17) 0.3849(2) 0.52854(15)
H34_2 H 0.7022 0.3486 0.5426
C44_2 C 0.75412(14) 0.3563(2) 0.49911(13)
C45_2 C 0.77972(16) 0.4090(2) 0.47901(14)
H35_2 H 0.8020 0.3905 0.4609
C46_2 C 0.77468(13) 0.4897(2) 0.48379(12)
H36_2 H 0.7927 0.5249 0.4688
N6_2 N 0.76453(12) 0.27989(16) 0.49474(11)
O19_2 O 0.70220(9) 0.62284(13) 0.54606(7)
C15_2 C 0.76780(15) 0.8971(2) 0.48088(13)
C16_2 C 0.75912(14) 0.9818(2) 0.48744(13)
H12_2 H 0.7073 0.9751 0.5312
O5_2 O 0.74678(9) 0.85028(14) 0.50286(9)
C25_2 C 0.41394(15) 0.95360(19) 0.04022(12)
H22_2 H 0.4117 0.9344 0.0718
H23_2 H 0.4447 0.9822 0.0427
H24_2 H 0.3863 0.9882 0.0280
C1_2 C 0.36097(16) 0.7156(2) 0.89004(13)
C2_2 C 0.39880(15) 0.6941(2) 0.86111(13)
C3_2 C 0.38239(16) 0.7042(2) 0.81007(13)
H1_2 H 0.3491 0.7153 0.7966
C4_2 C 0.41707(16) 0.6973(2) 0.78022(12)
H2_2 H 0.4063 0.6994 0.7465
C5_2 C 0.46730(17) 0.6873(2) 0.80095(14)
C6_2 C 0.48448(16) 0.6841(2) 0.85245(14)
H3_2 H 0.5180 0.6758 0.8665
C7_2 C 0.44966(15) 0.6938(2) 0.88083(14)
H4_2 H 0.4607 0.7004 0.9143
C8_2 C 0.17245(14) 0.75140(18) 0.92302(13)
C9_2 C 0.13410(15) 0.7527(2) 0.87694(14)
C10_2 C 0.08471(15) 0.7519(2) 0.87959(13)
H5_2 H 0.0765 0.7512 0.9100
C11_2 C 0.04732(17) 0.7520(2) 0.83871(14)
H6_2 H 0.0140 0.7517 0.8409
C12_2 C 0.06016(17) 0.7526(2) 0.79527(15)
C13_2 C 0.10906(16) 0.7510(2) 0.78869(13)
H7_2 H 0.1161 0.7499 0.7578
C14_2 C 0.14753(15) 0.7513(2) 0.83147(13)
H8_2 H 0.1809 0.7505 0.8295
C23_2 C 0.26361(15) 0.8724(2) 0.80098(14)
H16_2 H 0.2442 0.9173 0.7870
H17_2 H 0.2837 0.8544 0.7791
H18_2 H 0.2417 0.8305 0.8063
C24_2 C 0.44720(14) 0.9052(2) 0.95281(13)
H19_2 H 0.4520 0.9615 0.9562
H20_2 H 0.4791 0.8793 0.9580
H21_2 H 0.4285 0.8934 0.9206
N1_2 N 0.50523(14) 0.6852(2) 0.77491(12)
N2_2 N 0.02496(13) 0.7490(2) 0.75082(13)
O1_2 O 0.31622(10) 0.72554(14) 0.87397(9)
O2_2 O 0.38004(10) 0.72358(15) 0.93656(9)
O4_2 O 0.21640(10) 0.74712(12) 0.91380(9)
O7_2 O 0.27688(9) 0.87273(13) 0.89755(8)
O8_2 O 0.35977(9) 0.87276(14) 0.97366(9)
S1_2 S 0.30327(4) 0.90033(5) 0.85802(3)
S2_2 S 0.41238(3) 0.86944(5) 0.99852(3)
C26_2 C 0.63903(16) 0.7156(2) 0.60996(13)
C27_2 C 0.60120(15) 0.6941(2) 0.63889(13)
C28_2 C 0.61761(16) 0.7042(2) 0.68993(13)
H25_2 H 0.6509 0.7153 0.7034
C29_2 C 0.58293(16) 0.6973(2) 0.71978(12)
H26_2 H 0.5937 0.6994 0.7535
C30_2 C 0.53270(17) 0.6873(2) 0.69905(14)
C31_2 C 0.51552(16) 0.6841(2) 0.64755(14)
H27_2 H 0.4820 0.6758 0.6335
C32_2 C 0.55034(15) 0.6938(2) 0.61917(14)
H28_2 H 0.5393 0.7004 0.5857
C48_2 C 0.73639(15) 0.8724(2) 0.69902(14)
H40_2 H 0.7558 0.9173 0.7130
H41_2 H 0.7163 0.8544 0.7209
H42_2 H 0.7583 0.8305 0.6937
C49_2 C 0.55280(14) 0.9052(2) 0.54719(13)
H43_2 H 0.5480 0.9615 0.5438
H44_2 H 0.5209 0.8793 0.5420
H45_2 H 0.5715 0.8934 0.5794
C50_2 C 0.58606(15) 0.95360(19) 0.45978(12)
H46_2 H 0.5883 0.9344 0.4282
H47_2 H 0.5553 0.9822 0.4573
H48_2 H 0.6137 0.9882 0.4720
N4_2 N 0.49477(14) 0.6852(2) 0.72509(12)
O9_2 O 0.68378(10) 0.72554(14) 0.62603(9)
O10_2 O 0.61996(10) 0.72358(15) 0.56344(9)
O15 O 0.78360(10) 0.74712(12) 0.58620(9)
O21_2 O 0.72312(9) 0.87273(13) 0.60245(8)
O22_2 O 0.64023(9) 0.87276(14) 0.52634(9)
S3_2 S 0.69673(4) 0.90033(5) 0.64198(3)
S4_2 S 0.58762(3) 0.86944(5) 0.50148(3)
C33_2 C 0.82755(14) 0.75140(18) 0.57698(13)
C34_2 C 0.86590(15) 0.7527(2) 0.62306(14)
C35_2 C 0.91529(15) 0.7519(2) 0.62041(13)
H29_2 H 0.9235 0.7512 0.5900
C36_2 C 0.95268(17) 0.7520(2) 0.66129(14)
H30_2 H 0.9860 0.7517 0.6591
C37_2 C 0.93984(17) 0.7526(2) 0.70473(15)
C38_2 C 0.89094(16) 0.7510(2) 0.71131(13)
H31_2 H 0.8839 0.7499 0.7422
C39_2 C 0.85247(15) 0.7513(2) 0.66853(13)
H32_2 H 0.8191 0.7505 0.6705
N5_2 N 0.97504(13) 0.7490(2) 0.74918(13)
C33_3 C 0.17245(14) 0.24860(18) 0.42302(13)
C34_3 C 0.13410(15) 0.2473(2) 0.37694(14)
C35_3 C 0.08471(15) 0.2481(2) 0.37959(13)
H29_3 H 0.0765 0.2488 0.4100
C36_3 C 0.04732(17) 0.2480(2) 0.33871(14)
H30_3 H 0.0140 0.2483 0.3409
C37_3 C 0.06016(17) 0.2474(2) 0.29527(15)
C38_3 C 0.10906(16) 0.2490(2) 0.28869(13)
H31_3 H 0.1161 0.2501 0.2578
C39_3 C 0.14753(15) 0.2487(2) 0.33147(13)
H32_3 H 0.1809 0.2495 0.3295
Ce4_2 Ce 0.201083(8) 0.267700(11) 0.546104(6)
Ce5_2 Ce 0.298917(8) 0.232300(11) 0.453896(6)
N5_3 N 0.02496(13) 0.2510(2) 0.25082(13)
O11_2 O 0.16145(10) 0.24610(14) 0.46481(8)
O14_2 O 0.21640(10) 0.25288(12) 0.41380(9)
H36_3 H 0.7073 0.0249 0.0312
Ce6_2 Ce 0.701083(8) 0.232300(11) 0.046104(6)
O16_2 O 0.74678(9) 0.14972(14) 0.00286(9)
C40_3 C 0.76780(15) 0.1029(2) 0.98088(13)
C41_3 C 0.75912(14) 0.0182(2) 0.98744(13)
Ce7_2 Ce 0.798917(8) 0.267700(11) 0.953896(6)
O19_3 O 0.79780(9) 0.12284(13) 0.95394(7)
C1_3 C 0.63903(16) 0.2844(2) 0.10996(13)
C2_3 C 0.60120(15) 0.3059(2) 0.13889(13)
C3_3 C 0.61761(16) 0.2958(2) 0.18993(13)
H1_3 H 0.6509 0.2847 0.2034
C4_3 C 0.58293(16) 0.3027(2) 0.21978(12)
H2_3 H 0.5937 0.3006 0.2535
C5_3 C 0.53270(17) 0.3127(2) 0.19905(14)
C6_3 C 0.51552(16) 0.3159(2) 0.14755(14)
H3_3 H 0.4820 0.3242 0.1335
C7_3 C 0.55034(15) 0.3062(2) 0.11917(14)
H4_3 H 0.5393 0.2996 0.0857
C8_3 C 0.82755(14) 0.24860(18) 0.07698(13)
C9_3 C 0.86590(15) 0.2473(2) 0.12306(14)
C10_3 C 0.91529(15) 0.2481(2) 0.12041(13)
H5_3 H 0.9235 0.2488 0.0900
C11_3 C 0.95268(17) 0.2480(2) 0.16129(14)
H6_3 H 0.9860 0.2483 0.1591
C12_3 C 0.93984(17) 0.2474(2) 0.20473(15)
C13_3 C 0.89094(16) 0.2490(2) 0.21131(13)
H7_3 H 0.8839 0.2501 0.2422
C14_3 C 0.85247(15) 0.2487(2) 0.16853(13)
H8_3 H 0.8191 0.2495 0.1705
C15_3 C 0.73220(15) 0.3971(2) 0.01912(13)
C16_3 C 0.74088(14) 0.4818(2) 0.01256(13)
C17_3 C 0.71458(15) 0.5357(2) 0.03603(13)
H9_3 H 0.6939 0.5178 0.0560
C18_3 C 0.72031(17) 0.6151(2) 0.02854(15)
H10_3 H 0.7022 0.6514 0.0426
C23_3 C 0.73639(15) 0.1276(2) 0.19902(14)
H16_3 H 0.7558 0.0827 0.2130
H17_3 H 0.7163 0.1456 0.2209
H18_3 H 0.7583 0.1695 0.1937
C24_3 C 0.55280(14) 0.0948(2) 0.04719(13)
H19_3 H 0.5480 0.0385 0.0438
H20_3 H 0.5209 0.1207 0.0420
H21_3 H 0.5715 0.1066 0.0794
N1_3 N 0.49477(14) 0.3148(2) 0.22509(12)
N2_3 N 0.97504(13) 0.2510(2) 0.24918(13)
O1_3 O 0.68378(10) 0.27446(14) 0.12603(9)
O2_3 O 0.61996(10) 0.27642(15) 0.06344(9)
O3_2 O 0.83855(10) 0.24610(14) 0.03519(8)
O4_3 O 0.78360(10) 0.25288(12) 0.08620(9)
O6_2 O 0.70220(9) 0.37716(13) 0.04606(7)
O7_3 O 0.72312(9) 0.12727(13) 0.10245(8)
O8_3 O 0.64023(9) 0.12724(14) 0.02634(9)
S1_3 S 0.69673(4) 0.09967(5) 0.14198(3)
S2_3 S 0.58762(3) 0.13056(5) 0.00148(3)
C26_3 C 0.36097(16) 0.2844(2) 0.39004(13)
C27_3 C 0.39880(15) 0.3059(2) 0.36111(13)
C28_3 C 0.38239(16) 0.2958(2) 0.31007(13)
H25_3 H 0.3491 0.2847 0.2966
C29_3 C 0.41707(16) 0.3027(2) 0.28022(12)
H26_3 H 0.4063 0.3006 0.2465
C30_3 C 0.46730(17) 0.3127(2) 0.30095(14)
C31_3 C 0.48448(16) 0.3159(2) 0.35245(14)
H27_3 H 0.5180 0.3242 0.3665
C32_3 C 0.44966(15) 0.3062(2) 0.38083(14)
H28_3 H 0.4607 0.2996 0.4143
C44_3 C 0.74588(14) 0.8563(2) 0.00089(13)
C45_3 C 0.72028(16) 0.9090(2) 0.02099(14)
H35_3 H 0.6980 0.8905 0.0391
C46_3 C 0.72532(13) 0.9897(2) 0.01621(12)
C48_3 C 0.26361(15) 0.1276(2) 0.30098(14)
H40_3 H 0.2442 0.0827 0.2870
H41_3 H 0.2837 0.1456 0.2791
H42_3 H 0.2417 0.1695 0.3063
C49_3 C 0.44720(14) 0.0948(2) 0.45281(13)
H43_3 H 0.4520 0.0385 0.4562
H44_3 H 0.4791 0.1207 0.4580
H45_3 H 0.4285 0.1066 0.4206
C50_3 C 0.41394(15) 0.04640(19) 0.54022(12)
H46_3 H 0.4117 0.0656 0.5718
H47_3 H 0.4447 0.0178 0.5427
H48_3 H 0.3863 0.0118 0.5280
N4_3 N 0.50523(14) 0.3148(2) 0.27491(12)
N6_3 N 0.73547(12) 0.77989(16) 0.00526(11)
O9_3 O 0.31622(10) 0.27446(14) 0.37397(9)
O10_3 O 0.38004(10) 0.27642(15) 0.43656(9)
O13_2 O 0.33855(10) 0.25390(14) 0.53519(8)
O18_2 O 0.25322(9) 0.14972(14) 0.49714(9)
O20_2 O 0.29780(9) 0.37716(13) 0.45394(7)
O21_3 O 0.27688(9) 0.12727(13) 0.39755(8)
O22_3 O 0.35977(9) 0.12724(14) 0.47366(9)
S3_3 S 0.30327(4) 0.09967(5) 0.35802(3)
S4_3 S 0.41238(3) 0.13056(5) 0.49852(3)
C19_3 C 0.75412(14) 0.6437(2) 0.99911(13)
C20_3 C 0.77972(16) 0.5910(2) 0.97901(14)
H11_3 H 0.8020 0.6095 0.9609
C21_3 C 0.77468(13) 0.5103(2) 0.98379(12)
H12_3 H 0.7927 0.4751 0.9688
C25_3 C 0.58606(15) 0.04640(19) 0.95978(12)
H22_3 H 0.5883 0.0656 0.9282
H23_3 H 0.5553 0.0178 0.9573
H24_3 H 0.6137 0.0118 0.9720
N3_3 N 0.76453(12) 0.72011(16) 0.99474(11)
O5_3 O 0.75322(9) 0.35028(14) 0.99714(9)
C42_3 C 0.78542(15) 0.9643(2) 0.96397(13)
H33_3 H 0.8061 0.9822 0.9440
C43_3 C 0.77969(17) 0.8849(2) 0.97146(15)
H34_3 H 0.7978 0.8486 0.9574
O12_2 O 0.66145(10) 0.25390(14) 0.96481(8)
C40_4 C 0.23220(15) 0.1029(2) 0.51912(13)
C41_4 C 0.24088(14) 0.0182(2) 0.51256(13)
H36_4 H 0.2927 0.0249 0.4688
O19_4 O 0.20220(9) 0.12284(13) 0.54606(7)
C15_4 C 0.26780(15) 0.3971(2) 0.48088(13)
C16_4 C 0.25912(14) 0.4818(2) 0.48744(13)
C17_4 C 0.28542(15) 0.5357(2) 0.46397(13)
H9_4 H 0.3061 0.5178 0.4440
C18_4 C 0.27969(17) 0.6151(2) 0.47146(15)
H10_4 H 0.2978 0.6514 0.4574
C19_4 C 0.24588(14) 0.6437(2) 0.50089(13)
C20_4 C 0.22028(16) 0.5910(2) 0.52099(14)
H11_4 H 0.1980 0.6095 0.5391
C21_4 C 0.22532(13) 0.5103(2) 0.51621(12)
H12_4 H 0.2073 0.4751 0.5312
N3_4 N 0.23547(12) 0.72011(16) 0.50526(11)
O5_4 O 0.24678(9) 0.35028(14) 0.50286(9)
C42_4 C 0.21458(15) 0.9643(2) 0.53603(13)
H33_4 H 0.1939 0.9822 0.5560
C43_4 C 0.22031(17) 0.8849(2) 0.52854(15)
H34_4 H 0.2022 0.8486 0.5426
C44_4 C 0.25412(14) 0.8563(2) 0.49911(13)
C45_4 C 0.27972(16) 0.9090(2) 0.47901(14)
H35_4 H 0.3020 0.8905 0.4609
C46_4 C 0.27468(13) 0.9897(2) 0.48379(12)
N6_4 N 0.26453(12) 0.77989(16) 0.49474(11)
H3_4 H 0.0180 0.1758 0.8665
N1_4 N 0.00523(14) 0.1852(2) 0.77491(12)
C26_4 C 0.13903(16) 0.2156(2) 0.60996(13)
C27_4 C 0.10120(15) 0.1941(2) 0.63889(13)
C28_4 C 0.11761(16) 0.2042(2) 0.68993(13)
H25_4 H 0.1509 0.2153 0.7034
C29_4 C 0.08293(16) 0.1973(2) 0.71978(12)
H26_4 H 0.0937 0.1994 0.7535
C30_4 C 0.03270(17) 0.1873(2) 0.69905(14)
C31_4 C 0.01552(16) 0.1841(2) 0.64755(14)
C32_4 C 0.05034(15) 0.1938(2) 0.61917(14)
H28_4 H 0.0393 0.2004 0.5857
C47_2 C 0.20127(16) 0.5036(2) 0.63314(14)
H37_2 H 0.1728 0.5213 0.6093
H38_2 H 0.2022 0.5306 0.6633
H39_2 H 0.2312 0.5149 0.6220
C48_4 C 0.23639(15) 0.3724(2) 0.69902(14)
H40_4 H 0.2558 0.4173 0.7130
H41_4 H 0.2163 0.3544 0.7209
H42_4 H 0.2583 0.3305 0.6937
C49_4 C 0.05280(14) 0.4052(2) 0.54719(13)
H43_4 H 0.0480 0.4615 0.5438
H44_4 H 0.0209 0.3793 0.5420
H45_4 H 0.0715 0.3934 0.5794
C50_4 C 0.08606(15) 0.45360(19) 0.45978(12)
H46_4 H 0.0883 0.4344 0.4282
H47_4 H 0.0553 0.4822 0.4573
H48_4 H 0.1137 0.4882 0.4720
O9_4 O 0.18378(10) 0.22554(14) 0.62603(9)
O10_4 O 0.11996(10) 0.22358(15) 0.56344(9)
O15_2 O 0.28360(10) 0.24712(12) 0.58620(9)
O21_4 O 0.22312(9) 0.37273(13) 0.60245(8)
O22_4 O 0.14023(9) 0.37276(14) 0.52634(9)
S3_4 S 0.19673(4) 0.40033(5) 0.64198(3)
S4_4 S 0.08762(3) 0.36944(5) 0.50148(3)
C25_4 C 0.91394(15) 0.45360(19) 0.04022(12)
H22_4 H 0.9117 0.4344 0.0718
H23_4 H 0.9447 0.4822 0.0427
H24_4 H 0.8863 0.4882 0.0280
C1_4 C 0.86097(16) 0.2156(2) 0.89004(13)
C2_4 C 0.89880(15) 0.1941(2) 0.86111(13)
C3_4 C 0.88239(16) 0.2042(2) 0.81007(13)
H1_4 H 0.8491 0.2153 0.7966
C4_4 C 0.91707(16) 0.1973(2) 0.78022(12)
H2_4 H 0.9063 0.1994 0.7465
C5_4 C 0.96730(17) 0.1873(2) 0.80095(14)
C6_4 C 0.98448(16) 0.1841(2) 0.85245(14)
C7_4 C 0.94966(15) 0.1938(2) 0.88083(14)
H4_4 H 0.9607 0.2004 0.9143
C8_4 C 0.67245(14) 0.25140(18) 0.92302(13)
C9_4 C 0.63410(15) 0.2527(2) 0.87694(14)
C10_4 C 0.58471(15) 0.2519(2) 0.87959(13)
H5_4 H 0.5765 0.2512 0.9100
C11_4 C 0.54732(17) 0.2520(2) 0.83871(14)
H6_4 H 0.5140 0.2517 0.8409
C12_4 C 0.56016(17) 0.2526(2) 0.79527(15)
C13_4 C 0.60906(16) 0.2510(2) 0.78869(13)
H7_4 H 0.6161 0.2499 0.7578
C14_4 C 0.64753(15) 0.2513(2) 0.83147(13)
H8_4 H 0.6809 0.2505 0.8295
C22_2 C 0.79873(16) 0.5036(2) 0.86686(14)
H13_2 H 0.8272 0.5213 0.8907
H14_2 H 0.7978 0.5306 0.8367
H15_2 H 0.7688 0.5149 0.8780
C23_4 C 0.76361(15) 0.3724(2) 0.80098(14)
H16_4 H 0.7442 0.4173 0.7870
H17_4 H 0.7837 0.3544 0.7791
H18_4 H 0.7417 0.3305 0.8063
C24_4 C 0.94720(14) 0.4052(2) 0.95281(13)
H19_4 H 0.9520 0.4615 0.9562
H20_4 H 0.9791 0.3793 0.9580
H21_4 H 0.9285 0.3934 0.9206
N2_4 N 0.52496(13) 0.2490(2) 0.75082(13)
O1_4 O 0.81622(10) 0.22554(14) 0.87397(9)
O2_4 O 0.88004(10) 0.22358(15) 0.93656(9)
O4_4 O 0.71640(10) 0.24712(12) 0.91380(9)
O7_4 O 0.77688(9) 0.37273(13) 0.89755(8)
O8_4 O 0.85977(9) 0.37276(14) 0.97366(9)
S1_4 S 0.80327(4) 0.40033(5) 0.85802(3)
S2_4 S 0.91238(3) 0.36944(5) 0.99852(3)
H27_4 H 0.9820 0.1758 0.6335
C33_4 C 0.32755(14) 0.25140(18) 0.57698(13)
C34_4 C 0.36590(15) 0.2527(2) 0.62306(14)
C35_4 C 0.41529(15) 0.2519(2) 0.62041(13)
H29_4 H 0.4235 0.2512 0.5900
C36_4 C 0.45268(17) 0.2520(2) 0.66129(14)
H30_4 H 0.4860 0.2517 0.6591
C37_4 C 0.43984(17) 0.2526(2) 0.70473(15)
C38_4 C 0.39094(16) 0.2510(2) 0.71131(13)
H31_4 H 0.3839 0.2499 0.7422
C39_4 C 0.35247(15) 0.2513(2) 0.66853(13)
H32_4 H 0.3191 0.2505 0.6705
N4_4 N 0.99477(14) 0.1852(2) 0.72509(12)
N5_4 N 0.47504(13) 0.2490(2) 0.74918(13)
C22_3 C 0.70127(16) 0.9964(2) 0.13314(14)
H13_3 H 0.6728 0.9787 0.1093
H14_3 H 0.7022 0.9694 0.1633
H15_3 H 0.7312 0.9851 0.1220
C47_3 C 0.29873(16) 0.9964(2) 0.36686(14)
H37_3 H 0.3272 0.9787 0.3907
H38_3 H 0.2978 0.9694 0.3367
H39_3 H 0.2688 0.9851 0.3780
C22_4 C 0.29873(16) 0.0036(2) 0.86686(14)
H13_4 H 0.3272 0.0213 0.8907
H14_4 H 0.2978 0.0306 0.8367
H15_4 H 0.2688 0.0149 0.8780
C47_4 C 0.70127(16) 0.0036(2) 0.63314(14)
H37_4 H 0.6728 0.0213 0.6093
H38_4 H 0.7022 0.0306 0.6633
H39_4 H 0.7312 0.0149 0.6220
loop_
_geom_bond_atom_site_label_1
_geom_bond_atom_site_label_2
_geom_bond_site_symmetry_1
_geom_bond_site_symmetry_2
C17 H9 1_555 1_555
C18 C17 1_555 1_555
H10 C18 1_555 1_555
C45 C44 1_555 1_555
H35 C45 1_555 1_555
H36 C46 1_555 1_555
Ce6 O16 1_555 1_555
C44 N6 1_555 1_555
C45 C46 1_555 1_555
C20 C19 1_555 1_555
H11 C20 1_555 1_555
N3 C19 1_555 1_555
C40 C41 1_555 1_555
C41 C42 1_555 1_555
C42 H33 1_555 1_555
C43 C42 1_555 1_555
H34 C43 1_555 1_555
Ce7 O19 1_555 1_555
O19 C40 1_555 1_555
C20 C21 1_555 1_555
C1 C2 1_555 1_555
C2 C3 1_555 1_555
C3 H1 1_555 1_555
C4 C3 1_555 1_555
H2 C4 1_555 1_555
C5 C4 1_555 1_555
C6 C5 1_555 1_555
C7 C2 1_555 1_555
H4 C7 1_555 1_555
C8 C9 1_555 1_555
C9 C10 1_555 1_555
C10 H5 1_555 1_555
C11 C10 1_555 1_555
H6 C11 1_555 1_555
C12 C11 1_555 1_555
C13 C12 1_555 1_555
H7 C13 1_555 1_555
C14 C9 1_555 1_555
H8 C14 1_555 1_555
C15 C16 1_555 1_555
C22 H13 1_555 1_555
H14 C22 1_555 1_555
H15 C22 1_555 1_555
C23 H16 1_555 1_555
H17 C23 1_555 1_555
H18 C23 1_555 1_555
C24 H19 1_555 1_555
H20 C24 1_555 1_555
H21 C24 1_555 1_555
Ce6 O1 1_555 1_555
N2 C12 1_555 1_555
O1 C1 1_555 1_555
O2 C1 1_555 1_555
O3 C8 1_555 1_555
O4 C8 1_555 1_555
O6 C15 1_555 1_555
O7 Ce6 1_555 1_555
O8 Ce6 1_555 1_555
S1 C22 1_555 1_555
S2 C24 1_555 1_555
C33 C34 1_555 1_555
C34 C35 1_555 1_555
C35 H29 1_555 1_555
C36 C35 1_555 1_555
H30 C36 1_555 1_555
C37 C36 1_555 1_555
C38 C37 1_555 1_555
H31 C38 1_555 1_555
C39 C34 1_555 1_555
H32 C39 1_555 1_555
Ce4 O11 1_555 1_555
Ce5 O14 1_555 1_555
N5 N2 1_555 1_555
O11 C33 1_555 1_555
O14 C33 1_555 1_555
C6 C7 1_555 1_555
C13 C14 1_555 1_555
C23 S1 1_555 1_555
Ce6 O2 1_555 1_555
Ce6 O4 1_555 1_555
Ce6 O6 1_555 1_555
O7 S1 1_555 1_555
O8 S2 1_555 1_555
C37 N5 1_555 1_555
C38 C39 1_555 1_555
C25 H22 1_555 1_555
H23 C25 1_555 1_555
H24 C25 1_555 1_555
O5 Ce7 1_555 1_555
C26 C27 1_555 1_555
C27 C28 1_555 1_555
C28 H25 1_555 1_555
C29 C28 1_555 1_555
H26 C29 1_555 1_555
C30 C29 1_555 1_555
C31 C30 1_555 1_555
C32 C27 1_555 1_555
H28 C32 1_555 1_555
C47 H37 1_555 1_555
H38 C47 1_555 1_555
H39 C47 1_555 1_555
C48 H40 1_555 1_555
H41 C48 1_555 1_555
H42 C48 1_555 1_555
C49 H43 1_555 1_555
H44 C49 1_555 1_555
H45 C49 1_555 1_555
C50 H46 1_555 1_555
H47 C50 1_555 1_555
H48 C50 1_555 1_555
Ce5 O9 1_555 1_555
O9 C26 1_555 1_555
O10 C26 1_555 1_555
O13 Ce5 1_555 1_555
O18 Ce5 1_555 1_555
O20 Ce5 1_555 1_555
O21 Ce5 1_555 1_555
O22 Ce5 1_555 1_555
S3 C47 1_555 1_555
S4 C49 1_555 1_555
C31 C32 1_555 1_555
C48 S3 1_555 1_555
C50 S4 1_555 1_555
Ce5 O10 1_555 1_555
O21 S3 1_555 1_555
O22 S4 1_555 1_555
C17_2 H9_2 1_555 1_555
C18_2 C17_2 1_555 1_555
H10_2 C18_2 1_555 1_555
C19_2 C18_2 1_555 1_555
C20_2 C19_2 1_555 1_555
H11_2 C20_2 1_555 1_555
N3_2 C19_2 1_555 1_555
C40_2 C41_2 1_555 1_555
C41_2 C42_2 1_555 1_555
C42_2 H33_2 1_555 1_555
C43_2 C42_2 1_555 1_555
H34_2 C43_2 1_555 1_555
C44_2 C43_2 1_555 1_555
C45_2 C44_2 1_555 1_555
H35_2 C45_2 1_555 1_555
C46_2 C41_2 1_555 1_555
H36_2 C46_2 1_555 1_555
Ce4 O19_2 1_555 1_555
N6_2 N3_2 1_555 1_555
O18 C40_2 1_555 1_555
O19_2 C40_2 1_555 1_555
C20_2 C21_2 1_555 1_555
C44_2 N6_2 1_555 1_555
C45_2 C46_2 1_555 1_555
C15_2 C16_2 1_555 1_555
O5_2 C15_2 1_555 1_555
O20 C15_2 1_555 1_555
O5_2 Ce4 1_555 1_555
C25_2 H22_2 1_555 1_555
H23_2 C25_2 1_555 1_555
H24_2 C25_2 1_555 1_555
C1_2 C2_2 1_555 1_555
C2_2 C3_2 1_555 1_555
C3_2 H1_2 1_555 1_555
C4_2 C3_2 1_555 1_555
H2_2 C4_2 1_555 1_555
C5_2 C4_2 1_555 1_555
C6_2 C5_2 1_555 1_555
H3_2 C6_2 1_555 1_555
C7_2 C2_2 1_555 1_555
H4_2 C7_2 1_555 1_555
C8_2 C9_2 1_555 1_555
C9_2 C10_2 1_555 1_555
C10_2 H5_2 1_555 1_555
C11_2 C10_2 1_555 1_555
H6_2 C11_2 1_555 1_555
C12_2 C11_2 1_555 1_555
C13_2 C12_2 1_555 1_555
H7_2 C13_2 1_555 1_555
C14_2 C9_2 1_555 1_555
H8_2 C14_2 1_555 1_555
C23_2 H16_2 1_555 1_555
H17_2 C23_2 1_555 1_555
H18_2 C23_2 1_555 1_555
C24_2 H19_2 1_555 1_555
H20_2 C24_2 1_555 1_555
H21_2 C24_2 1_555 1_555
Ce7 O1_2 1_555 1_555
N1_2 C5_2 1_555 1_555
N2_2 C12_2 1_555 1_555
O1_2 C1_2 1_555 1_555
O2_2 C1_2 1_555 1_555
O12 C8_2 1_555 1_555
O4_2 C8_2 1_555 1_555
O7_2 Ce7 1_555 1_555
O8_2 Ce7 1_555 1_555
S2_2 C24_2 1_555 1_555
C26_2 C27_2 1_555 1_555
C27_2 C28_2 1_555 1_555
C28_2 H25_2 1_555 1_555
C29_2 C28_2 1_555 1_555
H26_2 C29_2 1_555 1_555
C30_2 C29_2 1_555 1_555
C31_2 C30_2 1_555 1_555
H27_2 C31_2 1_555 1_555
C32_2 C27_2 1_555 1_555
H28_2 C32_2 1_555 1_555
C48_2 H40_2 1_555 1_555
H41_2 C48_2 1_555 1_555
H42_2 C48_2 1_555 1_555
C49_2 H43_2 1_555 1_555
H44_2 C49_2 1_555 1_555
H45_2 C49_2 1_555 1_555
C50_2 H46_2 1_555 1_555
H47_2 C50_2 1_555 1_555
H48_2 C50_2 1_555 1_555
Ce4 O9_2 1_555 1_555
N4_2 N1_2 1_555 1_555
O9_2 C26_2 1_555 1_555
O10_2 C26_2 1_555 1_555
O15 Ce4 1_555 1_555
O21_2 Ce4 1_555 1_555
O22_2 Ce4 1_555 1_555
S4_2 C49_2 1_555 1_555
C6_2 C7_2 1_555 1_555
C13_2 C14_2 1_555 1_555
C23_2 S1_2 1_555 1_555
Ce7 O2_2 1_555 1_555
Ce7 O4_2 1_555 1_555
O7_2 S1_2 1_555 1_555
O8_2 S2_2 1_555 1_555
C30_2 N4_2 1_555 1_555
C31_2 C32_2 1_555 1_555
C48_2 S3_2 1_555 1_555
C50_2 S4_2 1_555 1_555
Ce4 O10_2 1_555 1_555
O21_2 S3_2 1_555 1_555
O22_2 S4_2 1_555 1_555
C33_2 C34_2 1_555 1_555
C34_2 C35_2 1_555 1_555
C35_2 H29_2 1_555 1_555
C36_2 C35_2 1_555 1_555
H30_2 C36_2 1_555 1_555
C37_2 C36_2 1_555 1_555
C38_2 C37_2 1_555 1_555
H31_2 C38_2 1_555 1_555
C39_2 C34_2 1_555 1_555
H32_2 C39_2 1_555 1_555
O13 C33_2 1_555 1_555
O15 C33_2 1_555 1_555
C37_2 N5_2 1_555 1_555
C38_2 C39_2 1_555 1_555
C33_3 C34_3 1_555 1_555
C34_3 C35_3 1_555 1_555
C35_3 H29_3 1_555 1_555
C36_3 C35_3 1_555 1_555
H30_3 C36_3 1_555 1_555
C37_3 C36_3 1_555 1_555
C38_3 C37_3 1_555 1_555
H31_3 C38_3 1_555 1_555
C39_3 C34_3 1_555 1_555
H32_3 C39_3 1_555 1_555
Ce4_2 O11_2 1_555 1_555
Ce5_2 O14_2 1_555 1_555
O11_2 C33_3 1_555 1_555
O14_2 C33_3 1_555 1_555
C37_3 N5_3 1_555 1_555
C38_3 C39_3 1_555 1_555
Ce6_2 O16_2 1_555 1_555
C40_3 C41_3 1_555 1_555
Ce7_2 O19_3 1_555 1_555
O19_3 C40_3 1_555 1_555
C1_3 C2_3 1_555 1_555
C2_3 C3_3 1_555 1_555
C3_3 H1_3 1_555 1_555
C4_3 C3_3 1_555 1_555
H2_3 C4_3 1_555 1_555
C5_3 C4_3 1_555 1_555
C6_3 C5_3 1_555 1_555
H3_3 C6_3 1_555 1_555
C7_3 C2_3 1_555 1_555
H4_3 C7_3 1_555 1_555
C8_3 C9_3 1_555 1_555
C9_3 C10_3 1_555 1_555
C10_3 H5_3 1_555 1_555
C11_3 C10_3 1_555 1_555
H6_3 C11_3 1_555 1_555
C12_3 C11_3 1_555 1_555
C13_3 C12_3 1_555 1_555
H7_3 C13_3 1_555 1_555
C14_3 C9_3 1_555 1_555
H8_3 C14_3 1_555 1_555
C15_3 C16_3 1_555 1_555
C16_3 C17_3 1_555 1_555
C17_3 H9_3 1_555 1_555
C18_3 C17_3 1_555 1_555
H10_3 C18_3 1_555 1_555
C23_3 H16_3 1_555 1_555
H17_3 C23_3 1_555 1_555
H18_3 C23_3 1_555 1_555
C24_3 H19_3 1_555 1_555
H20_3 C24_3 1_555 1_555
H21_3 C24_3 1_555 1_555
Ce6_2 O1_3 1_555 1_555
N1_3 C5_3 1_555 1_555
N2_3 C12_3 1_555 1_555
O1_3 C1_3 1_555 1_555
O2_3 C1_3 1_555 1_555
O3_2 C8_3 1_555 1_555
O4_3 C8_3 1_555 1_555
O6_2 C15_3 1_555 1_555
O7_3 Ce6_2 1_555 1_555
O8_3 Ce6_2 1_555 1_555
S2_3 C24_3 1_555 1_555
C26_3 C27_3 1_555 1_555
C27_3 C28_3 1_555 1_555
C28_3 H25_3 1_555 1_555
C29_3 C28_3 1_555 1_555
H26_3 C29_3 1_555 1_555
C30_3 C29_3 1_555 1_555
C31_3 C30_3 1_555 1_555
H27_3 C31_3 1_555 1_555
C32_3 C27_3 1_555 1_555
H28_3 C32_3 1_555 1_555
C45_3 C44_3 1_555 1_555
H35_3 C45_3 1_555 1_555
C48_3 H40_3 1_555 1_555
H41_3 C48_3 1_555 1_555
H42_3 C48_3 1_555 1_555
C49_3 H43_3 1_555 1_555
H44_3 C49_3 1_555 1_555
H45_3 C49_3 1_555 1_555
C50_3 H46_3 1_555 1_555
H47_3 C50_3 1_555 1_555
H48_3 C50_3 1_555 1_555
Ce5_2 O9_3 1_555 1_555
N4_3 N1_3 1_555 1_555
O9_3 C26_3 1_555 1_555
O10_3 C26_3 1_555 1_555
O13_2 Ce5_2 1_555 1_555
O18_2 Ce5_2 1_555 1_555
O20_2 Ce5_2 1_555 1_555
O21_3 Ce5_2 1_555 1_555
O22_3 Ce5_2 1_555 1_555
S4_3 C49_3 1_555 1_555
C6_3 C7_3 1_555 1_555
C13_3 C14_3 1_555 1_555
C23_3 S1_3 1_555 1_555
Ce6_2 O2_3 1_555 1_555
Ce6_2 O4_3 1_555 1_555
Ce6_2 O6_2 1_555 1_555
O7_3 S1_3 1_555 1_555
O8_3 S2_3 1_555 1_555
C30_3 N4_3 1_555 1_555
C31_3 C32_3 1_555 1_555
C44_3 N6_3 1_555 1_555
C45_3 C46_3 1_555 1_555
C48_3 S3_3 1_555 1_555
C50_3 S4_3 1_555 1_555
Ce5_2 O10_3 1_555 1_555
O21_3 S3_3 1_555 1_555
O22_3 S4_3 1_555 1_555
C20_3 C19_3 1_555 1_555
H11_3 C20_3 1_555 1_555
H12_3 C21_3 1_555 1_555
C25_3 H22_3 1_555 1_555
H23_3 C25_3 1_555 1_555
H24_3 C25_3 1_555 1_555
N3_3 C19_3 1_555 1_555
C42_3 H33_3 1_555 1_555
C43_3 C42_3 1_555 1_555
H34_3 C43_3 1_555 1_555
C20_3 C21_3 1_555 1_555
O5_3 Ce7_2 1_555 1_555
C40_4 C41_4 1_555 1_555
Ce4_2 O19_4 1_555 1_555
O18_2 C40_4 1_555 1_555
O19_4 C40_4 1_555 1_555
C15_4 C16_4 1_555 1_555
C16_4 C17_4 1_555 1_555
C17_4 H9_4 1_555 1_555
C18_4 C17_4 1_555 1_555
H10_4 C18_4 1_555 1_555
C19_4 C18_4 1_555 1_555
C20_4 C19_4 1_555 1_555
H11_4 C20_4 1_555 1_555
C21_4 C16_4 1_555 1_555
H12_4 C21_4 1_555 1_555
N3_4 C19_4 1_555 1_555
O5_4 C15_4 1_555 1_555
O20_2 C15_4 1_555 1_555
C42_4 H33_4 1_555 1_555
C43_4 C42_4 1_555 1_555
H34_4 C43_4 1_555 1_555
C44_4 C43_4 1_555 1_555
C45_4 C44_4 1_555 1_555
H35_4 C45_4 1_555 1_555
N6_4 N3_4 1_555 1_555
C20_4 C21_4 1_555 1_555
O5_4 Ce4_2 1_555 1_555
C44_4 N6_4 1_555 1_555
C45_4 C46_4 1_555 1_555
C26_4 C27_4 1_555 1_555
C27_4 C28_4 1_555 1_555
C28_4 H25_4 1_555 1_555
C29_4 C28_4 1_555 1_555
H26_4 C29_4 1_555 1_555
C30_4 C29_4 1_555 1_555
C31_4 C30_4 1_555 1_555
C32_4 C27_4 1_555 1_555
H28_4 C32_4 1_555 1_555
C47_2 H37_2 1_555 1_555
H38_2 C47_2 1_555 1_555
H39_2 C47_2 1_555 1_555
C48_4 H40_4 1_555 1_555
H41_4 C48_4 1_555 1_555
H42_4 C48_4 1_555 1_555
C49_4 H43_4 1_555 1_555
H44_4 C49_4 1_555 1_555
H45_4 C49_4 1_555 1_555
C50_4 H46_4 1_555 1_555
H47_4 C50_4 1_555 1_555
H48_4 C50_4 1_555 1_555
Ce4_2 O9_4 1_555 1_555
O9_4 C26_4 1_555 1_555
O10_4 C26_4 1_555 1_555
O15_2 Ce4_2 1_555 1_555
O21_4 Ce4_2 1_555 1_555
O22_4 Ce4_2 1_555 1_555
S3_4 C47_2 1_555 1_555
S4_4 C49_4 1_555 1_555
C31_4 C32_4 1_555 1_555
C48_4 S3_4 1_555 1_555
C50_4 S4_4 1_555 1_555
Ce4_2 O10_4 1_555 1_555
O21_4 S3_4 1_555 1_555
O22_4 S4_4 1_555 1_555
C25_4 H22_4 1_555 1_555
H23_4 C25_4 1_555 1_555
H24_4 C25_4 1_555 1_555
C1_4 C2_4 1_555 1_555
C2_4 C3_4 1_555 1_555
C3_4 H1_4 1_555 1_555
C4_4 C3_4 1_555 1_555
H2_4 C4_4 1_555 1_555
C5_4 C4_4 1_555 1_555
C6_4 C5_4 1_555 1_555
C7_4 C2_4 1_555 1_555
H4_4 C7_4 1_555 1_555
C8_4 C9_4 1_555 1_555
C9_4 C10_4 1_555 1_555
C10_4 H5_4 1_555 1_555
C11_4 C10_4 1_555 1_555
H6_4 C11_4 1_555 1_555
C12_4 C11_4 1_555 1_555
C13_4 C12_4 1_555 1_555
H7_4 C13_4 1_555 1_555
C14_4 C9_4 1_555 1_555
H8_4 C14_4 1_555 1_555
C22_2 H13_2 1_555 1_555
H14_2 C22_2 1_555 1_555
H15_2 C22_2 1_555 1_555
C23_4 H16_4 1_555 1_555
H17_4 C23_4 1_555 1_555
H18_4 C23_4 1_555 1_555
C24_4 H19_4 1_555 1_555
H20_4 C24_4 1_555 1_555
H21_4 C24_4 1_555 1_555
Ce7_2 O1_4 1_555 1_555
N2_4 C12_4 1_555 1_555
O1_4 C1_4 1_555 1_555
O2_4 C1_4 1_555 1_555
O12_2 C8_4 1_555 1_555
O4_4 C8_4 1_555 1_555
O7_4 Ce7_2 1_555 1_555
O8_4 Ce7_2 1_555 1_555
S1_4 C22_2 1_555 1_555
S2_4 C24_4 1_555 1_555
C33_4 C34_4 1_555 1_555
C34_4 C35_4 1_555 1_555
C35_4 H29_4 1_555 1_555
C36_4 C35_4 1_555 1_555
H30_4 C36_4 1_555 1_555
C37_4 C36_4 1_555 1_555
C38_4 C37_4 1_555 1_555
H31_4 C38_4 1_555 1_555
C39_4 C34_4 1_555 1_555
H32_4 C39_4 1_555 1_555
N5_4 N2_4 1_555 1_555
O13_2 C33_4 1_555 1_555
O15_2 C33_4 1_555 1_555
C6_4 C7_4 1_555 1_555
C13_4 C14_4 1_555 1_555
C23_4 S1_4 1_555 1_555
Ce7_2 O2_4 1_555 1_555
Ce7_2 O4_4 1_555 1_555
O7_4 S1_4 1_555 1_555
O8_4 S2_4 1_555 1_555
C37_4 N5_4 1_555 1_555
C38_4 C39_4 1_555 1_555
C22_3 H13_3 1_555 1_555
H14_3 C22_3 1_555 1_555
H15_3 C22_3 1_555 1_555
C47_3 H37_3 1_555 1_555
H38_3 C47_3 1_555 1_555
H39_3 C47_3 1_555 1_555
C22_4 H13_4 1_555 1_555
H14_4 C22_4 1_555 1_555
H15_4 C22_4 1_555 1_555
C47_4 H37_4 1_555 1_555
H38_4 C47_4 1_555 1_555
H39_4 C47_4 1_555 1_555

#END
