
###############################################################################
#
# This file contains modified crystal structure data generated from the
# MOF subset of the Cambridge Structural Database (CSD) v543 
# hosted by the Cambridge Crystallographic Data Centre (CCDC).
#
# This work is licensed under the Creative Commons
# Attribution-NonCommercial-ShareAlike 4.0 International License.
# To view a copy of this license, visit
# http://creativecommons.org/licenses/by-nc-sa/4.0/
# or send a letter to
# Creative Commons, PO Box 1866, Mountain View, CA 94042, USA.
#
# CIF created using the CSD Python API on 29 September 2022
# The structure has been converted into the P1 space group
# The structure has a 3D framework
# The original CSD entry ALULAV is in the monoclinic crystal system
# The framework has been calculated to contain at least 10.0% void space
# The void calculation uses a probe of radius 1.32A, grid spacing 0.4
#
###############################################################################

data_ALULAV
_chemical_formula_moiety         '(C200 H192 Gd8 N24 O62 S16)n'
_symmetry_cell_setting           triclinic
_symmetry_space_group_name_H-M   'P 1'
_symmetry_Int_Tables_number      1
_space_group_name_Hall           'P 1'
loop_
_symmetry_equiv_pos_site_id
_symmetry_equiv_pos_as_xyz
1 x,y,z
_cell_length_a                   27.367(3)
_cell_length_b                   16.8285(15)
_cell_length_c                   27.915(3)
_cell_angle_alpha                90
_cell_angle_beta                 101.892(2)
_cell_angle_gamma                90
_cell_volume                     12580.2
loop_
_atom_site_label
_atom_site_type_symbol
_atom_site_fract_x
_atom_site_fract_y
_atom_site_fract_z
C1 C 0.1393(2) 0.7842(3) 0.10989(19)
C2 C 0.1015(2) 0.8057(3) 0.13883(19)
C3 C 0.1174(2) 0.7956(3) 0.18990(18)
H1 H 0.1507 0.7844 0.2035
C4 C 0.0826(2) 0.8027(3) 0.21964(17)
H2 H 0.0929 0.8006 0.2535
C5 C 0.0327(2) 0.8128(3) 0.1988(2)
C6 C 0.0155(2) 0.8155(3) 0.14743(19)
C7 C 0.0506(2) 0.8063(3) 0.11911(18)
H4 H 0.0399 0.8002 0.0855
C19 C 0.24597(19) 0.3563(3) 0.00101(18)
C20 C 0.2200(2) 0.4092(3) 0.02116(19)
H11 H 0.1974 0.3907 0.0393
C21 C 0.22526(18) 0.4900(3) 0.01614(17)
H12 H 0.2072 0.5253 0.0313
C22 C 0.2012(2) 0.4967(3) 0.13322(19)
H13 H 0.1732 0.4791 0.1089
H14 H 0.2013 0.4696 0.1635
H15 H 0.2316 0.4851 0.1225
C23 C 0.2366(2) 0.6278(3) 0.19914(19)
H16 H 0.2556 0.5825 0.2132
H17 H 0.2165 0.6467 0.2212
H18 H 0.2589 0.6691 0.1935
C24 C 0.05287(19) 0.5947(3) 0.04709(19)
H19 H 0.0474 0.5386 0.0431
H20 H 0.0213 0.6216 0.0425
H21 H 0.0718 0.6053 0.0794
Gd1 Gd 0.201080(9) 0.732346(14) 0.046113(8)
N3 N 0.23573(16) 0.2800(2) 0.00515(15)
O1 O 0.18386(13) 0.77429(19) 0.12606(12)
O2 O 0.11995(14) 0.7765(2) 0.06349(13)
O5 O 0.24668(13) 0.6496(2) 0.00289(12)
O7 O 0.22327(13) 0.62736(18) 0.10235(11)
O8 O 0.14020(12) 0.6275(2) 0.02639(12)
S1 S 0.19677(5) 0.59975(7) 0.14195(5)
S2 S 0.08768(5) 0.63060(7) 0.00151(5)
H27 H 0.0180 0.8232 0.3665
C42 C 0.2145(2) 0.0354(3) 0.03582(18)
H33 H 0.1935 0.0173 0.0557
C43 C 0.2203(2) 0.1154(3) 0.0285(2)
H34 H 0.2021 0.1517 0.0429
N4 N 0.00546(19) 0.8147(3) 0.27478(17)
O14 O 0.28361(13) 0.75270(17) 0.08599(12)
O19 O 0.20206(12) 0.87734(19) 0.04616(11)
C8 C 0.1727(2) 0.7514(2) 0.92305(18)
C9 C 0.1345(2) 0.7525(3) 0.87716(19)
C10 C 0.0847(2) 0.7521(3) 0.87949(18)
H5 H 0.0762 0.7514 0.9101
C11 C 0.0473(2) 0.7525(3) 0.8388(2)
H6 H 0.0140 0.7526 0.8414
C12 C 0.0599(2) 0.7528(3) 0.7954(2)
C13 C 0.1094(2) 0.7509(3) 0.78860(19)
H7 H 0.1166 0.7494 0.7575
C14 C 0.1480(2) 0.7513(3) 0.83165(18)
H8 H 0.1815 0.7507 0.8294
C15 C 0.2675(2) 0.6028(3) 0.98096(19)
C16 C 0.25874(19) 0.5182(3) 0.98751(18)
C17 C 0.2855(2) 0.4646(3) 0.96418(18)
H9 H 0.3065 0.4827 0.9443
C18 C 0.2797(2) 0.3846(3) 0.9715(2)
H10 H 0.2979 0.3483 0.9571
C25 C 0.0861(2) 0.5462(3) 0.95976(17)
H22 H 0.0900 0.5650 0.9283
H23 H 0.0547 0.5191 0.9564
H24 H 0.1128 0.5102 0.9727
N2 N 0.02516(18) 0.7489(3) 0.75095(18)
O3 O 0.16152(14) 0.75385(19) 0.96494(12)
O4 O 0.21639(13) 0.74730(17) 0.91401(12)
O6 O 0.29794(12) 0.62266(19) 0.95384(11)
C44 C 0.25403(19) 0.1437(3) 0.99899(18)
C45 C 0.2800(2) 0.0908(3) 0.97884(19)
H35 H 0.3026 0.1093 0.9607
C46 C 0.27474(18) 0.0100(3) 0.98386(17)
Gd3 Gd 0.298920(9) 0.767654(14) 0.953887(8)
N6 N 0.26427(16) 0.2200(2) 0.99485(15)
C40 C 0.2325(2) 0.8972(3) 0.01904(19)
C41 C 0.24126(19) 0.9818(3) 0.01249(18)
H36 H 0.2928 0.9747 0.9687
O16 O 0.25332(13) 0.8504(2) 0.99711(12)
H3 H 0.9820 0.8232 0.1335
N1 N 0.99454(19) 0.8147(3) 0.22522(17)
C26 C 0.8607(2) 0.7842(3) 0.39011(19)
C27 C 0.8985(2) 0.8057(3) 0.36117(19)
C28 C 0.8826(2) 0.7956(3) 0.31010(18)
H25 H 0.8493 0.7844 0.2965
C29 C 0.9174(2) 0.8027(3) 0.28036(17)
H26 H 0.9071 0.8006 0.2465
C30 C 0.9673(2) 0.8128(3) 0.3012(2)
C31 C 0.9845(2) 0.8155(3) 0.35257(19)
C32 C 0.9494(2) 0.8063(3) 0.38089(18)
H28 H 0.9601 0.8002 0.4145
C47 C 0.7988(2) 0.4967(3) 0.36678(19)
H37 H 0.8268 0.4791 0.3911
H38 H 0.7987 0.4696 0.3365
H39 H 0.7684 0.4851 0.3775
C48 C 0.7634(2) 0.6278(3) 0.30086(19)
H40 H 0.7444 0.5825 0.2868
H41 H 0.7835 0.6467 0.2788
H42 H 0.7411 0.6691 0.3065
C49 C 0.94713(19) 0.5947(3) 0.45291(19)
H43 H 0.9526 0.5386 0.4569
H44 H 0.9787 0.6216 0.4575
H45 H 0.9282 0.6053 0.4206
C50 C 0.9139(2) 0.5462(3) 0.54024(17)
H46 H 0.9100 0.5650 0.5717
H47 H 0.9453 0.5191 0.5436
H48 H 0.8872 0.5102 0.5273
Gd2 Gd 0.798920(9) 0.732346(14) 0.453887(8)
O9 O 0.81614(13) 0.77429(19) 0.37394(12)
O10 O 0.88005(14) 0.7765(2) 0.43651(13)
O12 O 0.83848(14) 0.75385(19) 0.53506(12)
O15 O 0.71639(13) 0.75270(17) 0.41401(12)
O17 O 0.75332(13) 0.6496(2) 0.49711(12)
O20 O 0.79794(12) 0.87734(19) 0.45384(11)
O21 O 0.77673(13) 0.62736(18) 0.39765(11)
O22 O 0.85980(12) 0.6275(2) 0.47361(12)
S3 S 0.80323(5) 0.59975(7) 0.35805(5)
S4 S 0.91232(5) 0.63060(7) 0.49849(5)
C33 C 0.8273(2) 0.7514(2) 0.57695(18)
C34 C 0.8655(2) 0.7525(3) 0.62284(19)
C35 C 0.9153(2) 0.7521(3) 0.62051(18)
H29 H 0.9238 0.7514 0.5899
C36 C 0.9527(2) 0.7525(3) 0.6612(2)
H30 H 0.9860 0.7526 0.6586
C37 C 0.9401(2) 0.7528(3) 0.7046(2)
C38 C 0.8906(2) 0.7509(3) 0.71140(19)
H31 H 0.8834 0.7494 0.7425
C39 C 0.8520(2) 0.7513(3) 0.66835(18)
H32 H 0.8185 0.7507 0.6706
Gd5 Gd 0.701080(9) 0.767654(14) 0.546113(8)
N5 N 0.97484(18) 0.7489(3) 0.74905(18)
O13 O 0.78361(13) 0.74730(17) 0.58599(12)
C15_2 C 0.7325(2) 0.6028(3) 0.51904(19)
C16_2 C 0.74126(19) 0.5182(3) 0.51249(18)
C17_2 C 0.7145(2) 0.4646(3) 0.53582(18)
H9_2 H 0.6935 0.4827 0.5557
C18_2 C 0.7203(2) 0.3846(3) 0.5285(2)
H10_2 H 0.7021 0.3483 0.5429
C19_2 C 0.75403(19) 0.3563(3) 0.49899(18)
C20_2 C 0.7800(2) 0.4092(3) 0.47884(19)
H11_2 H 0.8026 0.3907 0.4607
C21_2 C 0.77474(18) 0.4900(3) 0.48386(17)
H12_2 H 0.7928 0.5253 0.4687
N3_2 N 0.76427(16) 0.2800(2) 0.49485(15)
O6_2 O 0.70206(12) 0.62266(19) 0.54616(11)
C42_2 C 0.7855(2) 0.0354(3) 0.46418(18)
H33_2 H 0.8065 0.0173 0.4443
C43_2 C 0.7797(2) 0.1154(3) 0.4715(2)
H34_2 H 0.7979 0.1517 0.4571
C44_2 C 0.74597(19) 0.1437(3) 0.50101(18)
C45_2 C 0.7200(2) 0.0908(3) 0.52116(19)
H35_2 H 0.6974 0.1093 0.5393
C46_2 C 0.72526(18) 0.0100(3) 0.51614(17)
N6_2 N 0.73573(16) 0.2200(2) 0.50515(15)
C40_2 C 0.7675(2) 0.8972(3) 0.48096(19)
C41_2 C 0.75874(19) 0.9818(3) 0.48751(18)
H36_2 H 0.7072 0.9747 0.5313
O16_2 O 0.74668(13) 0.8504(2) 0.50289(12)
C22_2 C 0.2988(2) 0.0033(3) 0.86678(19)
H13_2 H 0.3268 0.0209 0.8911
H14_2 H 0.2987 0.0304 0.8365
H15_2 H 0.2684 0.0149 0.8775
C47_2 C 0.7012(2) 0.0033(3) 0.63322(19)
H37_2 H 0.6732 0.0209 0.6089
H38_2 H 0.7013 0.0304 0.6635
H39_2 H 0.7316 0.0149 0.6225
C8_2 C 0.3273(2) 0.7486(2) 0.07695(18)
C9_2 C 0.3655(2) 0.7475(3) 0.12284(19)
C10_2 C 0.4153(2) 0.7479(3) 0.12051(18)
H5_2 H 0.4238 0.7486 0.0899
C11_2 C 0.4527(2) 0.7475(3) 0.1612(2)
H6_2 H 0.4860 0.7474 0.1586
C12_2 C 0.4401(2) 0.7472(3) 0.2046(2)
C13_2 C 0.3906(2) 0.7491(3) 0.21140(19)
H7_2 H 0.3834 0.7506 0.2425
C14_2 C 0.3520(2) 0.7487(3) 0.16835(18)
H8_2 H 0.3185 0.7493 0.1706
C25_2 C 0.4139(2) 0.9538(3) 0.04024(17)
H22_2 H 0.4100 0.9350 0.0717
H23_2 H 0.4453 0.9809 0.0436
H24_2 H 0.3872 0.9898 0.0273
N2_2 N 0.47484(18) 0.7511(3) 0.24905(18)
O3_2 O 0.33848(14) 0.74615(19) 0.03506(12)
C33_2 C 0.6727(2) 0.7486(2) 0.42305(18)
C34_2 C 0.6345(2) 0.7475(3) 0.37716(19)
C35_2 C 0.5847(2) 0.7479(3) 0.37949(18)
H29_2 H 0.5762 0.7486 0.4101
C36_2 C 0.5473(2) 0.7475(3) 0.3388(2)
H30_2 H 0.5140 0.7474 0.3414
C37_2 C 0.5599(2) 0.7472(3) 0.2954(2)
C38_2 C 0.6094(2) 0.7491(3) 0.28860(19)
H31_2 H 0.6166 0.7506 0.2575
C39_2 C 0.6480(2) 0.7487(3) 0.33165(18)
H32_2 H 0.6815 0.7493 0.3294
N5_2 N 0.52516(18) 0.7511(3) 0.25095(18)
O11 O 0.66152(14) 0.74615(19) 0.46494(12)
C1_2 C 0.3607(2) 0.7158(3) 0.89011(19)
C2_2 C 0.3985(2) 0.6943(3) 0.86117(19)
C3_2 C 0.3826(2) 0.7044(3) 0.81010(18)
H1_2 H 0.3493 0.7156 0.7965
C4_2 C 0.4174(2) 0.6973(3) 0.78036(17)
H2_2 H 0.4071 0.6994 0.7465
C5_2 C 0.4673(2) 0.6872(3) 0.8012(2)
C6_2 C 0.4845(2) 0.6845(3) 0.85257(19)
H3_2 H 0.5180 0.6768 0.8665
C7_2 C 0.4494(2) 0.6937(3) 0.88089(18)
H4_2 H 0.4601 0.6998 0.9145
C23_2 C 0.2634(2) 0.8722(3) 0.80086(19)
H16_2 H 0.2444 0.9175 0.7868
H17_2 H 0.2835 0.8533 0.7788
H18_2 H 0.2411 0.8309 0.8065
C24_2 C 0.44713(19) 0.9053(3) 0.95291(19)
H19_2 H 0.4526 0.9614 0.9569
H20_2 H 0.4787 0.8784 0.9575
H21_2 H 0.4282 0.8947 0.9206
N1_2 N 0.50546(19) 0.6853(3) 0.77478(17)
O1_2 O 0.31614(13) 0.72571(19) 0.87394(12)
O2_2 O 0.38005(14) 0.7235(2) 0.93651(13)
O7_2 O 0.27673(13) 0.87264(18) 0.89765(11)
O8_2 O 0.35980(12) 0.8725(2) 0.97361(12)
S1_2 S 0.30323(5) 0.90025(7) 0.85805(5)
S2_2 S 0.41232(5) 0.86940(7) 0.99849(5)
C26_2 C 0.6393(2) 0.7158(3) 0.60989(19)
C27_2 C 0.6015(2) 0.6943(3) 0.63883(19)
C28_2 C 0.6174(2) 0.7044(3) 0.68990(18)
H25_2 H 0.6507 0.7156 0.7035
C29_2 C 0.5826(2) 0.6973(3) 0.71964(17)
H26_2 H 0.5929 0.6994 0.7535
C30_2 C 0.5327(2) 0.6872(3) 0.6988(2)
C31_2 C 0.5155(2) 0.6845(3) 0.64743(19)
H27_2 H 0.4820 0.6768 0.6335
C32_2 C 0.5506(2) 0.6937(3) 0.61911(18)
H28_2 H 0.5399 0.6998 0.5855
C48_2 C 0.7366(2) 0.8722(3) 0.69914(19)
H40_2 H 0.7556 0.9175 0.7132
H41_2 H 0.7165 0.8533 0.7212
H42_2 H 0.7589 0.8309 0.6935
C49_2 C 0.55287(19) 0.9053(3) 0.54709(19)
H43_2 H 0.5474 0.9614 0.5431
H44_2 H 0.5213 0.8784 0.5425
H45_2 H 0.5718 0.8947 0.5794
C50_2 C 0.5861(2) 0.9538(3) 0.45976(17)
H46_2 H 0.5900 0.9350 0.4283
H47_2 H 0.5547 0.9809 0.4564
H48_2 H 0.6128 0.9898 0.4727
N4_2 N 0.49454(19) 0.6853(3) 0.72522(17)
O9_2 O 0.68386(13) 0.72571(19) 0.62606(12)
O10_2 O 0.61995(14) 0.7235(2) 0.56349(13)
O21_2 O 0.72327(13) 0.87264(18) 0.60235(11)
O22_2 O 0.64020(12) 0.8725(2) 0.52639(12)
S3_2 S 0.69677(5) 0.90025(7) 0.64195(5)
S4_2 S 0.58768(5) 0.86940(7) 0.50151(5)
C1_3 C 0.6393(2) 0.2842(3) 0.10989(19)
C2_3 C 0.6015(2) 0.3057(3) 0.13883(19)
C3_3 C 0.6174(2) 0.2956(3) 0.18990(18)
H1_3 H 0.6507 0.2844 0.2035
C4_3 C 0.5826(2) 0.3027(3) 0.21964(17)
H2_3 H 0.5929 0.3006 0.2535
C5_3 C 0.5327(2) 0.3128(3) 0.1988(2)
C6_3 C 0.5155(2) 0.3155(3) 0.14743(19)
H3_3 H 0.4820 0.3232 0.1335
C7_3 C 0.5506(2) 0.3063(3) 0.11911(18)
H4_3 H 0.5399 0.3002 0.0855
H12_3 H 0.7072 0.0253 0.0313
C23_3 C 0.7366(2) 0.1278(3) 0.19914(19)
H16_3 H 0.7556 0.0825 0.2132
H17_3 H 0.7165 0.1467 0.2212
H18_3 H 0.7589 0.1691 0.1935
C24_3 C 0.55287(19) 0.0947(3) 0.04709(19)
H19_3 H 0.5474 0.0386 0.0431
H20_3 H 0.5213 0.1216 0.0425
H21_3 H 0.5718 0.1053 0.0794
Gd1_2 Gd 0.701080(9) 0.232346(14) 0.046113(8)
N1_3 N 0.49454(19) 0.3147(3) 0.22522(17)
O1_3 O 0.68386(13) 0.27429(19) 0.12606(12)
O2_3 O 0.61995(14) 0.2765(2) 0.06349(13)
O5_2 O 0.74668(13) 0.1496(2) 0.00289(12)
O7_3 O 0.72327(13) 0.12736(18) 0.10235(11)
O8_3 O 0.64020(12) 0.1275(2) 0.02639(12)
S1_3 S 0.69677(5) 0.09975(7) 0.14195(5)
S2_3 S 0.58768(5) 0.13060(7) 0.00151(5)
C26_3 C 0.3607(2) 0.2842(3) 0.39011(19)
C27_3 C 0.3985(2) 0.3057(3) 0.36117(19)
C28_3 C 0.3826(2) 0.2956(3) 0.31010(18)
H25_3 H 0.3493 0.2844 0.2965
C29_3 C 0.4174(2) 0.3027(3) 0.28036(17)
H26_3 H 0.4071 0.3006 0.2465
C30_3 C 0.4673(2) 0.3128(3) 0.3012(2)
C31_3 C 0.4845(2) 0.3155(3) 0.35257(19)
H27_3 H 0.5180 0.3232 0.3665
C32_3 C 0.4494(2) 0.3063(3) 0.38089(18)
H28_3 H 0.4601 0.3002 0.4145
C48_3 C 0.2634(2) 0.1278(3) 0.30086(19)
H40_3 H 0.2444 0.0825 0.2868
H41_3 H 0.2835 0.1467 0.2788
H42_3 H 0.2411 0.1691 0.3065
C49_3 C 0.44713(19) 0.0947(3) 0.45291(19)
H43_3 H 0.4526 0.0386 0.4569
H44_3 H 0.4787 0.1216 0.4575
H45_3 H 0.4282 0.1053 0.4206
C50_3 C 0.4139(2) 0.0462(3) 0.54024(17)
H46_3 H 0.4100 0.0650 0.5717
H47_3 H 0.4453 0.0191 0.5436
H48_3 H 0.3872 0.0102 0.5273
Gd2_2 Gd 0.298920(9) 0.232346(14) 0.453887(8)
N4_3 N 0.50546(19) 0.3147(3) 0.27478(17)
O9_3 O 0.31614(13) 0.27429(19) 0.37394(12)
O10_3 O 0.38005(14) 0.2765(2) 0.43651(13)
O12_2 O 0.33848(14) 0.25385(19) 0.53506(12)
O14_2 O 0.78361(13) 0.25270(17) 0.08599(12)
O15_2 O 0.21639(13) 0.25270(17) 0.41401(12)
O17_2 O 0.25332(13) 0.1496(2) 0.49711(12)
O19_2 O 0.70206(12) 0.37734(19) 0.04616(11)
O20_2 O 0.29794(12) 0.37734(19) 0.45384(11)
O21_3 O 0.27673(13) 0.12736(18) 0.39765(11)
O22_3 O 0.35980(12) 0.1275(2) 0.47361(12)
S3_3 S 0.30323(5) 0.09975(7) 0.35805(5)
S4_3 S 0.41232(5) 0.13060(7) 0.49849(5)
C8_3 C 0.6727(2) 0.2514(2) 0.92305(18)
C9_3 C 0.6345(2) 0.2525(3) 0.87716(19)
C10_3 C 0.5847(2) 0.2521(3) 0.87949(18)
H5_3 H 0.5762 0.2514 0.9101
C11_3 C 0.5473(2) 0.2525(3) 0.8388(2)
H6_3 H 0.5140 0.2526 0.8414
C12_3 C 0.5599(2) 0.2528(3) 0.7954(2)
C13_3 C 0.6094(2) 0.2509(3) 0.78860(19)
H7_3 H 0.6166 0.2494 0.7575
C14_3 C 0.6480(2) 0.2513(3) 0.83165(18)
H8_3 H 0.6815 0.2507 0.8294
C15_3 C 0.7675(2) 0.1028(3) 0.98096(19)
C16_3 C 0.75874(19) 0.0182(3) 0.98751(18)
C25_3 C 0.5861(2) 0.0462(3) 0.95976(17)
H22_3 H 0.5900 0.0650 0.9283
H23_3 H 0.5547 0.0191 0.9564
H24_3 H 0.6128 0.0102 0.9727
N2_3 N 0.52516(18) 0.2489(3) 0.75095(18)
O3_3 O 0.66152(14) 0.25385(19) 0.96494(12)
O4_2 O 0.71639(13) 0.24730(17) 0.91401(12)
O6_3 O 0.79794(12) 0.12266(19) 0.95384(11)
C33_3 C 0.3273(2) 0.2514(2) 0.57695(18)
C34_3 C 0.3655(2) 0.2525(3) 0.62284(19)
C35_3 C 0.4153(2) 0.2521(3) 0.62051(18)
H29_3 H 0.4238 0.2514 0.5899
C36_3 C 0.4527(2) 0.2525(3) 0.6612(2)
H30_3 H 0.4860 0.2526 0.6586
C37_3 C 0.4401(2) 0.2528(3) 0.7046(2)
C38_3 C 0.3906(2) 0.2509(3) 0.71140(19)
H31_3 H 0.3834 0.2494 0.7425
C39_3 C 0.3520(2) 0.2513(3) 0.66835(18)
H32_3 H 0.3185 0.2507 0.6706
Gd3_2 Gd 0.798920(9) 0.267654(14) 0.953887(8)
Gd5_2 Gd 0.201080(9) 0.267654(14) 0.546113(8)
N5_3 N 0.47484(18) 0.2489(3) 0.74905(18)
O13_2 O 0.28361(13) 0.24730(17) 0.58599(12)
C19_3 C 0.74597(19) 0.8563(3) 0.00101(18)
C20_3 C 0.7200(2) 0.9092(3) 0.02116(19)
H11_3 H 0.6974 0.8907 0.0393
C21_3 C 0.72526(18) 0.9900(3) 0.01614(17)
C22_3 C 0.7012(2) 0.9967(3) 0.13322(19)
H13_3 H 0.6732 0.9791 0.1089
H14_3 H 0.7013 0.9696 0.1635
H15_3 H 0.7316 0.9851 0.1225
N3_3 N 0.73573(16) 0.7800(2) 0.00515(15)
C40_3 C 0.7325(2) 0.3972(3) 0.01904(19)
C41_3 C 0.74126(19) 0.4818(3) 0.01249(18)
C42_3 C 0.7145(2) 0.5354(3) 0.03582(18)
H33_3 H 0.6935 0.5173 0.0557
C43_3 C 0.7203(2) 0.6154(3) 0.0285(2)
H34_3 H 0.7021 0.6517 0.0429
C47_3 C 0.2988(2) 0.9967(3) 0.36678(19)
H37_3 H 0.3268 0.9791 0.3911
H38_3 H 0.2987 0.9696 0.3365
H39_3 H 0.2684 0.9851 0.3775
C17_3 C 0.7855(2) 0.9646(3) 0.96418(18)
H9_3 H 0.8065 0.9827 0.9443
C18_3 C 0.7797(2) 0.8846(3) 0.9715(2)
H10_3 H 0.7979 0.8483 0.9571
C44_3 C 0.75403(19) 0.6437(3) 0.99899(18)
C45_3 C 0.7800(2) 0.5908(3) 0.97884(19)
H35_3 H 0.8026 0.6093 0.9607
C46_3 C 0.77474(18) 0.5100(3) 0.98386(17)
H36_3 H 0.7928 0.4747 0.9687
N6_3 N 0.76427(16) 0.7200(2) 0.99485(15)
O16_3 O 0.75332(13) 0.3504(2) 0.99711(12)
C15_4 C 0.2325(2) 0.1028(3) 0.51904(19)
C16_4 C 0.24126(19) 0.0182(3) 0.51249(18)
H12_4 H 0.2928 0.0253 0.4687
O6_4 O 0.20206(12) 0.12266(19) 0.54616(11)
C17_4 C 0.2145(2) 0.9646(3) 0.53582(18)
H9_4 H 0.1935 0.9827 0.5557
C18_4 C 0.2203(2) 0.8846(3) 0.5285(2)
H10_4 H 0.2021 0.8483 0.5429
C19_4 C 0.25403(19) 0.8563(3) 0.49899(18)
C20_4 C 0.2800(2) 0.9092(3) 0.47884(19)
H11_4 H 0.3026 0.8907 0.4607
C21_4 C 0.27474(18) 0.9900(3) 0.48386(17)
N3_4 N 0.26427(16) 0.7800(2) 0.49485(15)
C40_4 C 0.2675(2) 0.3972(3) 0.48096(19)
C41_4 C 0.25874(19) 0.4818(3) 0.48751(18)
C42_4 C 0.2855(2) 0.5354(3) 0.46418(18)
H33_4 H 0.3065 0.5173 0.4443
C43_4 C 0.2797(2) 0.6154(3) 0.4715(2)
H34_4 H 0.2979 0.6517 0.4571
C44_4 C 0.24597(19) 0.6437(3) 0.50101(18)
C45_4 C 0.2200(2) 0.5908(3) 0.52116(19)
H35_4 H 0.1974 0.6093 0.5393
C46_4 C 0.22526(18) 0.5100(3) 0.51614(17)
H36_4 H 0.2072 0.4747 0.5313
N6_4 N 0.23573(16) 0.7200(2) 0.50515(15)
O16_4 O 0.24668(13) 0.3504(2) 0.50289(12)
C33_4 C 0.1727(2) 0.2486(2) 0.42305(18)
C34_4 C 0.1345(2) 0.2475(3) 0.37716(19)
C35_4 C 0.0847(2) 0.2479(3) 0.37949(18)
H29_4 H 0.0762 0.2486 0.4101
C36_4 C 0.0473(2) 0.2475(3) 0.3388(2)
H30_4 H 0.0140 0.2474 0.3414
C37_4 C 0.0599(2) 0.2472(3) 0.2954(2)
C38_4 C 0.1094(2) 0.2491(3) 0.28860(19)
H31_4 H 0.1166 0.2506 0.2575
C39_4 C 0.1480(2) 0.2487(3) 0.33165(18)
H32_4 H 0.1815 0.2493 0.3294
N5_4 N 0.02516(18) 0.2511(3) 0.25095(18)
O11_2 O 0.16152(14) 0.24615(19) 0.46494(12)
H3_4 H 0.0180 0.1768 0.8665
N1_4 N 0.00546(19) 0.1853(3) 0.77478(17)
C26_4 C 0.1393(2) 0.2158(3) 0.60989(19)
C27_4 C 0.1015(2) 0.1943(3) 0.63883(19)
C28_4 C 0.1174(2) 0.2044(3) 0.68990(18)
H25_4 H 0.1507 0.2156 0.7035
C29_4 C 0.0826(2) 0.1973(3) 0.71964(17)
H26_4 H 0.0929 0.1994 0.7535
C30_4 C 0.0327(2) 0.1872(3) 0.6988(2)
C31_4 C 0.0155(2) 0.1845(3) 0.64743(19)
C32_4 C 0.0506(2) 0.1937(3) 0.61911(18)
H28_4 H 0.0399 0.1998 0.5855
C47_4 C 0.2012(2) 0.5033(3) 0.63322(19)
H37_4 H 0.1732 0.5209 0.6089
H38_4 H 0.2013 0.5304 0.6635
H39_4 H 0.2316 0.5149 0.6225
C48_4 C 0.2366(2) 0.3722(3) 0.69914(19)
H40_4 H 0.2556 0.4175 0.7132
H41_4 H 0.2165 0.3533 0.7212
H42_4 H 0.2589 0.3309 0.6935
C49_4 C 0.05287(19) 0.4053(3) 0.54709(19)
H43_4 H 0.0474 0.4614 0.5431
H44_4 H 0.0213 0.3784 0.5425
H45_4 H 0.0718 0.3947 0.5794
C50_4 C 0.0861(2) 0.4538(3) 0.45976(17)
H46_4 H 0.0900 0.4350 0.4283
H47_4 H 0.0547 0.4809 0.4564
H48_4 H 0.1128 0.4898 0.4727
O9_4 O 0.18386(13) 0.22571(19) 0.62606(12)
O10_4 O 0.11995(14) 0.2235(2) 0.56349(13)
O21_4 O 0.22327(13) 0.37264(18) 0.60235(11)
O22_4 O 0.14020(12) 0.3725(2) 0.52639(12)
S3_4 S 0.19677(5) 0.40025(7) 0.64195(5)
S4_4 S 0.08768(5) 0.36940(7) 0.50151(5)
C8_4 C 0.8273(2) 0.2486(2) 0.07695(18)
C9_4 C 0.8655(2) 0.2475(3) 0.12284(19)
C10_4 C 0.9153(2) 0.2479(3) 0.12051(18)
H5_4 H 0.9238 0.2486 0.0899
C11_4 C 0.9527(2) 0.2475(3) 0.1612(2)
H6_4 H 0.9860 0.2474 0.1586
C12_4 C 0.9401(2) 0.2472(3) 0.2046(2)
C13_4 C 0.8906(2) 0.2491(3) 0.21140(19)
H7_4 H 0.8834 0.2506 0.2425
C14_4 C 0.8520(2) 0.2487(3) 0.16835(18)
H8_4 H 0.8185 0.2493 0.1706
C25_4 C 0.9139(2) 0.4538(3) 0.04024(17)
H22_4 H 0.9100 0.4350 0.0717
H23_4 H 0.9453 0.4809 0.0436
H24_4 H 0.8872 0.4898 0.0273
N2_4 N 0.97484(18) 0.2511(3) 0.24905(18)
O3_4 O 0.83848(14) 0.24615(19) 0.03506(12)
C1_4 C 0.8607(2) 0.2158(3) 0.89011(19)
C2_4 C 0.8985(2) 0.1943(3) 0.86117(19)
C3_4 C 0.8826(2) 0.2044(3) 0.81010(18)
H1_4 H 0.8493 0.2156 0.7965
C4_4 C 0.9174(2) 0.1973(3) 0.78036(17)
H2_4 H 0.9071 0.1994 0.7465
C5_4 C 0.9673(2) 0.1872(3) 0.8012(2)
C6_4 C 0.9845(2) 0.1845(3) 0.85257(19)
C7_4 C 0.9494(2) 0.1937(3) 0.88089(18)
H4_4 H 0.9601 0.1998 0.9145
C22_4 C 0.7988(2) 0.5033(3) 0.86678(19)
H13_4 H 0.8268 0.5209 0.8911
H14_4 H 0.7987 0.5304 0.8365
H15_4 H 0.7684 0.5149 0.8775
C23_4 C 0.7634(2) 0.3722(3) 0.80086(19)
H16_4 H 0.7444 0.4175 0.7868
H17_4 H 0.7835 0.3533 0.7788
H18_4 H 0.7411 0.3309 0.8065
C24_4 C 0.94713(19) 0.4053(3) 0.95291(19)
H19_4 H 0.9526 0.4614 0.9569
H20_4 H 0.9787 0.3784 0.9575
H21_4 H 0.9282 0.3947 0.9206
O1_4 O 0.81614(13) 0.22571(19) 0.87394(12)
O2_4 O 0.88005(14) 0.2235(2) 0.93651(13)
O7_4 O 0.77673(13) 0.37264(18) 0.89765(11)
O8_4 O 0.85980(12) 0.3725(2) 0.97361(12)
S1_4 S 0.80323(5) 0.40025(7) 0.85805(5)
S2_4 S 0.91232(5) 0.36940(7) 0.99849(5)
H27_4 H 0.9820 0.1768 0.6335
N4_4 N 0.99454(19) 0.1853(3) 0.72522(17)
loop_
_geom_bond_atom_site_label_1
_geom_bond_atom_site_label_2
_geom_bond_site_symmetry_1
_geom_bond_site_symmetry_2
C1 C2 1_555 1_555
C2 C3 1_555 1_555
C3 H1 1_555 1_555
C4 C3 1_555 1_555
H2 C4 1_555 1_555
C5 C4 1_555 1_555
C6 C5 1_555 1_555
C7 C2 1_555 1_555
H4 C7 1_555 1_555
C20 C19 1_555 1_555
H11 C20 1_555 1_555
H12 C21 1_555 1_555
C22 H13 1_555 1_555
H14 C22 1_555 1_555
H15 C22 1_555 1_555
C23 H16 1_555 1_555
H17 C23 1_555 1_555
H18 C23 1_555 1_555
C24 H19 1_555 1_555
H20 C24 1_555 1_555
H21 C24 1_555 1_555
Gd1 O1 1_555 1_555
N3 C19 1_555 1_555
O1 C1 1_555 1_555
O2 C1 1_555 1_555
O7 Gd1 1_555 1_555
O8 Gd1 1_555 1_555
S1 C22 1_555 1_555
S2 C24 1_555 1_555
C42 H33 1_555 1_555
C43 C42 1_555 1_555
H34 C43 1_555 1_555
O14 Gd1 1_555 1_555
O19 Gd1 1_555 1_555
C6 C7 1_555 1_555
C20 C21 1_555 1_555
C23 S1 1_555 1_555
Gd1 O2 1_555 1_555
Gd1 O5 1_555 1_555
O7 S1 1_555 1_555
O8 S2 1_555 1_555
C8 C9 1_555 1_555
C9 C10 1_555 1_555
C10 H5 1_555 1_555
C11 C10 1_555 1_555
H6 C11 1_555 1_555
C12 C11 1_555 1_555
C13 C12 1_555 1_555
H7 C13 1_555 1_555
C14 C9 1_555 1_555
H8 C14 1_555 1_555
C15 C16 1_555 1_555
C16 C17 1_555 1_555
C17 H9 1_555 1_555
C18 C17 1_555 1_555
H10 C18 1_555 1_555
C25 H22 1_555 1_555
H23 C25 1_555 1_555
H24 C25 1_555 1_555
N2 C12 1_555 1_555
O3 C8 1_555 1_555
O4 C8 1_555 1_555
O6 C15 1_555 1_555
C45 C44 1_555 1_555
H35 C45 1_555 1_555
Gd3 O4 1_555 1_555
C13 C14 1_555 1_555
O6 Gd3 1_555 1_555
C44 N6 1_555 1_555
C45 C46 1_555 1_555
C40 C41 1_555 1_555
O19 C40 1_555 1_555
Gd3 O16 1_555 1_555
C26 C27 1_555 1_555
C27 C28 1_555 1_555
C28 H25 1_555 1_555
C29 C28 1_555 1_555
H26 C29 1_555 1_555
C30 C29 1_555 1_555
C31 C30 1_555 1_555
C32 C27 1_555 1_555
H28 C32 1_555 1_555
C47 H37 1_555 1_555
H38 C47 1_555 1_555
H39 C47 1_555 1_555
C48 H40 1_555 1_555
H41 C48 1_555 1_555
H42 C48 1_555 1_555
C49 H43 1_555 1_555
H44 C49 1_555 1_555
H45 C49 1_555 1_555
C50 H46 1_555 1_555
H47 C50 1_555 1_555
H48 C50 1_555 1_555
Gd2 O9 1_555 1_555
O9 C26 1_555 1_555
O10 C26 1_555 1_555
O12 Gd2 1_555 1_555
O15 Gd2 1_555 1_555
O17 Gd2 1_555 1_555
O20 Gd2 1_555 1_555
O21 Gd2 1_555 1_555
O22 Gd2 1_555 1_555
S3 C47 1_555 1_555
S4 C49 1_555 1_555
C31 C32 1_555 1_555
C48 S3 1_555 1_555
C50 S4 1_555 1_555
Gd2 O10 1_555 1_555
O21 S3 1_555 1_555
O22 S4 1_555 1_555
C33 C34 1_555 1_555
C34 C35 1_555 1_555
C35 H29 1_555 1_555
C36 C35 1_555 1_555
H30 C36 1_555 1_555
C37 C36 1_555 1_555
C38 C37 1_555 1_555
H31 C38 1_555 1_555
C39 C34 1_555 1_555
H32 C39 1_555 1_555
Gd5 O13 1_555 1_555
O12 C33 1_555 1_555
O13 C33 1_555 1_555
C37 N5 1_555 1_555
C38 C39 1_555 1_555
C15_2 C16_2 1_555 1_555
C16_2 C17_2 1_555 1_555
C17_2 H9_2 1_555 1_555
C18_2 C17_2 1_555 1_555
H10_2 C18_2 1_555 1_555
C19_2 C18_2 1_555 1_555
C20_2 C19_2 1_555 1_555
H11_2 C20_2 1_555 1_555
C21_2 C16_2 1_555 1_555
H12_2 C21_2 1_555 1_555
N3_2 C19_2 1_555 1_555
O17 C15_2 1_555 1_555
O6_2 C15_2 1_555 1_555
C42_2 H33_2 1_555 1_555
C43_2 C42_2 1_555 1_555
H34_2 C43_2 1_555 1_555
C44_2 C43_2 1_555 1_555
C45_2 C44_2 1_555 1_555
H35_2 C45_2 1_555 1_555
N6_2 N3_2 1_555 1_555
C20_2 C21_2 1_555 1_555
O6_2 Gd5 1_555 1_555
C44_2 N6_2 1_555 1_555
C45_2 C46_2 1_555 1_555
C40_2 C41_2 1_555 1_555
Gd5 O16_2 1_555 1_555
O16_2 C40_2 1_555 1_555
O20 C40_2 1_555 1_555
C22_2 H13_2 1_555 1_555
H14_2 C22_2 1_555 1_555
H15_2 C22_2 1_555 1_555
C47_2 H37_2 1_555 1_555
H38_2 C47_2 1_555 1_555
H39_2 C47_2 1_555 1_555
C8_2 C9_2 1_555 1_555
C9_2 C10_2 1_555 1_555
C10_2 H5_2 1_555 1_555
C11_2 C10_2 1_555 1_555
H6_2 C11_2 1_555 1_555
C12_2 C11_2 1_555 1_555
C13_2 C12_2 1_555 1_555
H7_2 C13_2 1_555 1_555
C14_2 C9_2 1_555 1_555
H8_2 C14_2 1_555 1_555
C25_2 H22_2 1_555 1_555
H23_2 C25_2 1_555 1_555
H24_2 C25_2 1_555 1_555
N2_2 C12_2 1_555 1_555
O3_2 C8_2 1_555 1_555
O14 C8_2 1_555 1_555
C33_2 C34_2 1_555 1_555
C34_2 C35_2 1_555 1_555
C35_2 H29_2 1_555 1_555
C36_2 C35_2 1_555 1_555
H30_2 C36_2 1_555 1_555
C37_2 C36_2 1_555 1_555
C38_2 C37_2 1_555 1_555
H31_2 C38_2 1_555 1_555
C39_2 C34_2 1_555 1_555
H32_2 C39_2 1_555 1_555
Gd5 O11 1_555 1_555
N5_2 N2_2 1_555 1_555
O11 C33_2 1_555 1_555
O15 C33_2 1_555 1_555
C13_2 C14_2 1_555 1_555
C37_2 N5_2 1_555 1_555
C38_2 C39_2 1_555 1_555
C1_2 C2_2 1_555 1_555
C2_2 C3_2 1_555 1_555
C3_2 H1_2 1_555 1_555
C4_2 C3_2 1_555 1_555
H2_2 C4_2 1_555 1_555
C5_2 C4_2 1_555 1_555
C6_2 C5_2 1_555 1_555
H3_2 C6_2 1_555 1_555
C7_2 C2_2 1_555 1_555
H4_2 C7_2 1_555 1_555
C23_2 H16_2 1_555 1_555
H17_2 C23_2 1_555 1_555
H18_2 C23_2 1_555 1_555
C24_2 H19_2 1_555 1_555
H20_2 C24_2 1_555 1_555
H21_2 C24_2 1_555 1_555
Gd3 O1_2 1_555 1_555
N1_2 C5_2 1_555 1_555
O1_2 C1_2 1_555 1_555
O2_2 C1_2 1_555 1_555
O7_2 Gd3 1_555 1_555
O8_2 Gd3 1_555 1_555
S2_2 C24_2 1_555 1_555
C26_2 C27_2 1_555 1_555
C27_2 C28_2 1_555 1_555
C28_2 H25_2 1_555 1_555
C29_2 C28_2 1_555 1_555
H26_2 C29_2 1_555 1_555
C30_2 C29_2 1_555 1_555
C31_2 C30_2 1_555 1_555
H27_2 C31_2 1_555 1_555
C32_2 C27_2 1_555 1_555
H28_2 C32_2 1_555 1_555
C48_2 H40_2 1_555 1_555
H41_2 C48_2 1_555 1_555
H42_2 C48_2 1_555 1_555
C49_2 H43_2 1_555 1_555
H44_2 C49_2 1_555 1_555
H45_2 C49_2 1_555 1_555
C50_2 H46_2 1_555 1_555
H47_2 C50_2 1_555 1_555
H48_2 C50_2 1_555 1_555
Gd5 O9_2 1_555 1_555
N4_2 N1_2 1_555 1_555
O9_2 C26_2 1_555 1_555
O10_2 C26_2 1_555 1_555
O21_2 Gd5 1_555 1_555
O22_2 Gd5 1_555 1_555
S4_2 C49_2 1_555 1_555
C6_2 C7_2 1_555 1_555
C23_2 S1_2 1_555 1_555
Gd3 O2_2 1_555 1_555
O7_2 S1_2 1_555 1_555
O8_2 S2_2 1_555 1_555
C30_2 N4_2 1_555 1_555
C31_2 C32_2 1_555 1_555
C48_2 S3_2 1_555 1_555
C50_2 S4_2 1_555 1_555
Gd5 O10_2 1_555 1_555
O21_2 S3_2 1_555 1_555
O22_2 S4_2 1_555 1_555
C1_3 C2_3 1_555 1_555
C2_3 C3_3 1_555 1_555
C3_3 H1_3 1_555 1_555
C4_3 C3_3 1_555 1_555
H2_3 C4_3 1_555 1_555
C5_3 C4_3 1_555 1_555
C6_3 C5_3 1_555 1_555
H3_3 C6_3 1_555 1_555
C7_3 C2_3 1_555 1_555
H4_3 C7_3 1_555 1_555
C23_3 H16_3 1_555 1_555
H17_3 C23_3 1_555 1_555
H18_3 C23_3 1_555 1_555
C24_3 H19_3 1_555 1_555
H20_3 C24_3 1_555 1_555
H21_3 C24_3 1_555 1_555
Gd1_2 O1_3 1_555 1_555
N1_3 C5_3 1_555 1_555
O1_3 C1_3 1_555 1_555
O2_3 C1_3 1_555 1_555
O7_3 Gd1_2 1_555 1_555
O8_3 Gd1_2 1_555 1_555
S2_3 C24_3 1_555 1_555
C26_3 C27_3 1_555 1_555
C27_3 C28_3 1_555 1_555
C28_3 H25_3 1_555 1_555
C29_3 C28_3 1_555 1_555
H26_3 C29_3 1_555 1_555
C30_3 C29_3 1_555 1_555
C31_3 C30_3 1_555 1_555
H27_3 C31_3 1_555 1_555
C32_3 C27_3 1_555 1_555
H28_3 C32_3 1_555 1_555
C48_3 H40_3 1_555 1_555
H41_3 C48_3 1_555 1_555
H42_3 C48_3 1_555 1_555
C49_3 H43_3 1_555 1_555
H44_3 C49_3 1_555 1_555
H45_3 C49_3 1_555 1_555
C50_3 H46_3 1_555 1_555
H47_3 C50_3 1_555 1_555
H48_3 C50_3 1_555 1_555
Gd2_2 O9_3 1_555 1_555
N4_3 N1_3 1_555 1_555
O9_3 C26_3 1_555 1_555
O10_3 C26_3 1_555 1_555
O12_2 Gd2_2 1_555 1_555
O14_2 Gd1_2 1_555 1_555
O15_2 Gd2_2 1_555 1_555
O17_2 Gd2_2 1_555 1_555
O19_2 Gd1_2 1_555 1_555
O20_2 Gd2_2 1_555 1_555
O21_3 Gd2_2 1_555 1_555
O22_3 Gd2_2 1_555 1_555
S4_3 C49_3 1_555 1_555
C6_3 C7_3 1_555 1_555
C23_3 S1_3 1_555 1_555
Gd1_2 O2_3 1_555 1_555
Gd1_2 O5_2 1_555 1_555
O7_3 S1_3 1_555 1_555
O8_3 S2_3 1_555 1_555
C30_3 N4_3 1_555 1_555
C31_3 C32_3 1_555 1_555
C48_3 S3_3 1_555 1_555
C50_3 S4_3 1_555 1_555
Gd2_2 O10_3 1_555 1_555
O21_3 S3_3 1_555 1_555
O22_3 S4_3 1_555 1_555
C8_3 C9_3 1_555 1_555
C9_3 C10_3 1_555 1_555
C10_3 H5_3 1_555 1_555
C11_3 C10_3 1_555 1_555
H6_3 C11_3 1_555 1_555
C12_3 C11_3 1_555 1_555
C13_3 C12_3 1_555 1_555
H7_3 C13_3 1_555 1_555
C14_3 C9_3 1_555 1_555
H8_3 C14_3 1_555 1_555
C15_3 C16_3 1_555 1_555
C25_3 H22_3 1_555 1_555
H23_3 C25_3 1_555 1_555
H24_3 C25_3 1_555 1_555
N2_3 C12_3 1_555 1_555
O3_3 C8_3 1_555 1_555
O4_2 C8_3 1_555 1_555
O6_3 C15_3 1_555 1_555
C33_3 C34_3 1_555 1_555
C34_3 C35_3 1_555 1_555
C35_3 H29_3 1_555 1_555
C36_3 C35_3 1_555 1_555
H30_3 C36_3 1_555 1_555
C37_3 C36_3 1_555 1_555
C38_3 C37_3 1_555 1_555
H31_3 C38_3 1_555 1_555
C39_3 C34_3 1_555 1_555
H32_3 C39_3 1_555 1_555
Gd3_2 O4_2 1_555 1_555
Gd5_2 O13_2 1_555 1_555
N5_3 N2_3 1_555 1_555
O12_2 C33_3 1_555 1_555
O13_2 C33_3 1_555 1_555
C13_3 C14_3 1_555 1_555
O6_3 Gd3_2 1_555 1_555
C37_3 N5_3 1_555 1_555
C38_3 C39_3 1_555 1_555
C20_3 C19_3 1_555 1_555
H11_3 C20_3 1_555 1_555
C22_3 H13_3 1_555 1_555
H14_3 C22_3 1_555 1_555
H15_3 C22_3 1_555 1_555
N3_3 C19_3 1_555 1_555
C40_3 C41_3 1_555 1_555
C41_3 C42_3 1_555 1_555
C42_3 H33_3 1_555 1_555
C43_3 C42_3 1_555 1_555
H34_3 C43_3 1_555 1_555
C47_3 H37_3 1_555 1_555
H38_3 C47_3 1_555 1_555
H39_3 C47_3 1_555 1_555
O19_2 C40_3 1_555 1_555
C20_3 C21_3 1_555 1_555
C17_3 H9_3 1_555 1_555
C18_3 C17_3 1_555 1_555
H10_3 C18_3 1_555 1_555
C45_3 C44_3 1_555 1_555
H35_3 C45_3 1_555 1_555
H36_3 C46_3 1_555 1_555
Gd3_2 O16_3 1_555 1_555
C44_3 N6_3 1_555 1_555
C45_3 C46_3 1_555 1_555
C15_4 C16_4 1_555 1_555
O17_2 C15_4 1_555 1_555
O6_4 C15_4 1_555 1_555
O6_4 Gd5_2 1_555 1_555
C17_4 H9_4 1_555 1_555
C18_4 C17_4 1_555 1_555
H10_4 C18_4 1_555 1_555
C19_4 C18_4 1_555 1_555
C20_4 C19_4 1_555 1_555
H11_4 C20_4 1_555 1_555
N3_4 C19_4 1_555 1_555
C40_4 C41_4 1_555 1_555
C41_4 C42_4 1_555 1_555
C42_4 H33_4 1_555 1_555
C43_4 C42_4 1_555 1_555
H34_4 C43_4 1_555 1_555
C44_4 C43_4 1_555 1_555
C45_4 C44_4 1_555 1_555
H35_4 C45_4 1_555 1_555
C46_4 C41_4 1_555 1_555
H36_4 C46_4 1_555 1_555
Gd5_2 O16_4 1_555 1_555
N6_4 N3_4 1_555 1_555
O16_4 C40_4 1_555 1_555
O20_2 C40_4 1_555 1_555
C20_4 C21_4 1_555 1_555
C44_4 N6_4 1_555 1_555
C45_4 C46_4 1_555 1_555
C33_4 C34_4 1_555 1_555
C34_4 C35_4 1_555 1_555
C35_4 H29_4 1_555 1_555
C36_4 C35_4 1_555 1_555
H30_4 C36_4 1_555 1_555
C37_4 C36_4 1_555 1_555
C38_4 C37_4 1_555 1_555
H31_4 C38_4 1_555 1_555
C39_4 C34_4 1_555 1_555
H32_4 C39_4 1_555 1_555
Gd5_2 O11_2 1_555 1_555
O11_2 C33_4 1_555 1_555
O15_2 C33_4 1_555 1_555
C37_4 N5_4 1_555 1_555
C38_4 C39_4 1_555 1_555
C26_4 C27_4 1_555 1_555
C27_4 C28_4 1_555 1_555
C28_4 H25_4 1_555 1_555
C29_4 C28_4 1_555 1_555
H26_4 C29_4 1_555 1_555
C30_4 C29_4 1_555 1_555
C31_4 C30_4 1_555 1_555
C32_4 C27_4 1_555 1_555
H28_4 C32_4 1_555 1_555
C47_4 H37_4 1_555 1_555
H38_4 C47_4 1_555 1_555
H39_4 C47_4 1_555 1_555
C48_4 H40_4 1_555 1_555
H41_4 C48_4 1_555 1_555
H42_4 C48_4 1_555 1_555
C49_4 H43_4 1_555 1_555
H44_4 C49_4 1_555 1_555
H45_4 C49_4 1_555 1_555
C50_4 H46_4 1_555 1_555
H47_4 C50_4 1_555 1_555
H48_4 C50_4 1_555 1_555
Gd5_2 O9_4 1_555 1_555
O9_4 C26_4 1_555 1_555
O10_4 C26_4 1_555 1_555
O21_4 Gd5_2 1_555 1_555
O22_4 Gd5_2 1_555 1_555
S3_4 C47_4 1_555 1_555
S4_4 C49_4 1_555 1_555
C31_4 C32_4 1_555 1_555
C48_4 S3_4 1_555 1_555
C50_4 S4_4 1_555 1_555
Gd5_2 O10_4 1_555 1_555
O21_4 S3_4 1_555 1_555
O22_4 S4_4 1_555 1_555
C8_4 C9_4 1_555 1_555
C9_4 C10_4 1_555 1_555
C10_4 H5_4 1_555 1_555
C11_4 C10_4 1_555 1_555
H6_4 C11_4 1_555 1_555
C12_4 C11_4 1_555 1_555
C13_4 C12_4 1_555 1_555
H7_4 C13_4 1_555 1_555
C14_4 C9_4 1_555 1_555
H8_4 C14_4 1_555 1_555
C25_4 H22_4 1_555 1_555
H23_4 C25_4 1_555 1_555
H24_4 C25_4 1_555 1_555
N2_4 C12_4 1_555 1_555
O3_4 C8_4 1_555 1_555
O14_2 C8_4 1_555 1_555
C13_4 C14_4 1_555 1_555
C1_4 C2_4 1_555 1_555
C2_4 C3_4 1_555 1_555
C3_4 H1_4 1_555 1_555
C4_4 C3_4 1_555 1_555
H2_4 C4_4 1_555 1_555
C5_4 C4_4 1_555 1_555
C6_4 C5_4 1_555 1_555
C7_4 C2_4 1_555 1_555
H4_4 C7_4 1_555 1_555
C22_4 H13_4 1_555 1_555
H14_4 C22_4 1_555 1_555
H15_4 C22_4 1_555 1_555
C23_4 H16_4 1_555 1_555
H17_4 C23_4 1_555 1_555
H18_4 C23_4 1_555 1_555
C24_4 H19_4 1_555 1_555
H20_4 C24_4 1_555 1_555
H21_4 C24_4 1_555 1_555
Gd3_2 O1_4 1_555 1_555
O1_4 C1_4 1_555 1_555
O2_4 C1_4 1_555 1_555
O7_4 Gd3_2 1_555 1_555
O8_4 Gd3_2 1_555 1_555
S1_4 C22_4 1_555 1_555
S2_4 C24_4 1_555 1_555
C6_4 C7_4 1_555 1_555
C23_4 S1_4 1_555 1_555
Gd3_2 O2_4 1_555 1_555
O7_4 S1_4 1_555 1_555
O8_4 S2_4 1_555 1_555

#END
