
###############################################################################
#
# This file contains modified crystal structure data generated from the
# MOF subset of the Cambridge Structural Database (CSD) v543 
# hosted by the Cambridge Crystallographic Data Centre (CCDC).
#
# This work is licensed under the Creative Commons
# Attribution-NonCommercial-ShareAlike 4.0 International License.
# To view a copy of this license, visit
# http://creativecommons.org/licenses/by-nc-sa/4.0/
# or send a letter to
# Creative Commons, PO Box 1866, Mountain View, CA 94042, USA.
#
# CIF created using the CSD Python API on 29 September 2022
# The structure has been converted into the P1 space group
# The structure has a 3D framework
# The original CSD entry ALURIJ is in the orthorhombic crystal system
# The original CSD entry ALURIJ is in a Sohncke space group
# The framework has been calculated to contain at least 10.0% void space
# The void calculation uses a probe of radius 1.32A, grid spacing 0.4
# The framework is charged, counterions have been retained in the structure
#
###############################################################################

data_ALURIJ
_chemical_formula_moiety         '(C158 H136 N32 Ni9 O36 5+)n'
_symmetry_cell_setting           triclinic
_symmetry_space_group_name_H-M   'P 1'
_symmetry_Int_Tables_number      1
_space_group_name_Hall           'P 1'
loop_
_symmetry_equiv_pos_site_id
_symmetry_equiv_pos_as_xyz
1 x,y,z
_cell_length_a                   18.495(4)
_cell_length_b                   24.215(5)
_cell_length_c                   11.297(2)
_cell_angle_alpha                90
_cell_angle_beta                 90
_cell_angle_gamma                90
_cell_volume                     5059.43
loop_
_atom_site_label
_atom_site_type_symbol
_atom_site_fract_x
_atom_site_fract_y
_atom_site_fract_z
Ni4 Ni -0.0000 0.0000 0.53493(3)
Ni9 Ni 0.301028(12) 0.522090(10) 0.46707(2)
C68 C 0.14646(11) 0.55612(9) 0.4833(2)
H58 H 0.1673 0.5899 0.5059
C69 C 0.07168(12) 0.55268(10) 0.4770(2)
H59 H 0.0429 0.5837 0.4939
C70 C 0.04034(11) 0.50351(9) 0.44597(18)
C71 C 0.08491(12) 0.45972(10) 0.4182(2)
H60 H 0.0650 0.4257 0.3945
C72 C 0.15943(12) 0.46622(9) 0.4256(2)
H61 H 0.1893 0.4361 0.4068
N16 N 0.19019(8) 0.51393(7) 0.45869(13)
Ni4_2 Ni -0.0000 1.0000 0.53493(3)
Ni10 Ni 0.198972(12) 0.022090(10) 0.53293(2)
C24 C 0.70457(10) 0.47590(8) 0.03238(16)
C25 C 0.71564(12) 0.42799(9) 0.09809(17)
H20 H 0.7249 0.3943 0.0596
C26 C 0.71295(12) 0.43035(9) 0.22047(17)
H21 H 0.7219 0.3979 0.2637
C27 C 0.68656(12) 0.52252(9) 0.21562(17)
H22 H 0.6756 0.5554 0.2561
C28 C 0.68974(11) 0.52425(9) 0.09401(16)
H23 H 0.6820 0.5576 0.0533
N5 N 0.69816(8) 0.47685(7) 0.28009(13)
Ni7 Ni 0.698972(12) 0.477910(10) 0.46707(2)
Ni1 Ni 0.5000 0.5000 0.46507(3)
C1 C 0.61559(10) 0.39729(7) 0.46439(16)
C2 C 0.56642(10) 0.34650(7) 0.46789(17)
H1 H 0.5210 0.3550 0.4252
C3 C 0.54830(11) 0.33165(9) 0.59573(17)
H2 H 0.5914 0.3180 0.6351
H3 H 0.5113 0.3033 0.5968
H4 H 0.5307 0.3642 0.6367
C4 C 0.60854(11) 0.29824(9) 0.29145(17)
C5 C 0.65669(12) 0.25330(8) 0.24644(17)
C6 C 0.64456(13) 0.23233(9) 0.13251(17)
H5 H 0.6058 0.2457 0.0870
C7 C 0.68972(13) 0.19183(9) 0.08689(17)
C8 C 0.74619(12) 0.17185(9) 0.15580(17)
H6 H 0.7770 0.1446 0.1249
C9 C 0.75780(11) 0.19165(9) 0.27023(17)
C10 C 0.71370(11) 0.23399(8) 0.31372(17)
H7 H 0.7229 0.2493 0.3887
C15 C 0.81679(11) 0.16823(8) 0.34314(17)
C16 C 0.84976(13) 0.16836(9) 0.66588(18)
H12 H 0.8043 0.1525 0.6920
H13 H 0.8469 0.2083 0.6698
H14 H 0.8885 0.1555 0.7167
C17 C 0.86480(10) 0.15069(8) 0.53862(17)
H15 H 0.9109 0.1675 0.5127
C18 C 0.87220(10) 0.08770(8) 0.53369(16)
C19 C 0.73522(12) 0.51916(9) 0.83725(17)
H16 H 0.7567 0.5493 0.8762
C20 C 0.73184(11) 0.51742(9) 0.71517(17)
H17 H 0.7506 0.5476 0.6728
C21 C 0.67784(12) 0.43261(9) 0.71780(17)
H18 H 0.6588 0.4020 0.6772
C22 C 0.67790(13) 0.43129(9) 0.83801(16)
H19 H 0.6588 0.4006 0.8782
C23 C 0.70634(11) 0.47551(9) 0.90138(16)
C29 C 0.85354(11) 0.44388(9) 0.4833(2)
H24 H 0.8327 0.4101 0.5059
C30 C 0.92832(12) 0.44732(10) 0.4770(2)
H25 H 0.9571 0.4163 0.4939
C31 C 0.95966(11) 0.49649(9) 0.44597(18)
C32 C 0.91509(12) 0.54028(10) 0.4182(2)
H26 H 0.9350 0.5743 0.3945
C33 C 0.84057(12) 0.53378(9) 0.4256(2)
H27 H 0.8107 0.5639 0.4068
C34 C 0.50867(11) 0.45335(8) 0.21802(16)
H28 H 0.5152 0.4202 0.2598
C35 C 0.50848(11) 0.45130(8) 0.09652(16)
H29 H 0.5140 0.4174 0.0571
C36 C 0.5000 0.5000 0.0320(2)
N1 N 0.60135(9) 0.30034(7) 0.41096(14)
H32 H 0.6181 0.2734 0.4539
N3 N 0.80721(9) 0.16995(6) 0.46115(14)
H34 H 0.7670 0.1825 0.4908
N4 N 0.70346(9) 0.47528(7) 0.65288(13)
N6 N 0.80981(8) 0.48607(7) 0.45869(13)
N7 N 0.5000 0.5000 0.28035(18)
O1 O 0.59029(7) 0.44598(5) 0.46916(11)
O2 O 0.68306(7) 0.39100(5) 0.46238(11)
O3 O 0.57967(8) 0.33259(6) 0.22548(12)
O7 O 0.81518(7) 0.05976(5) 0.52548(11)
O8 O 0.93579(7) 0.06884(5) 0.54200(11)
O9 O 0.87165(8) 0.14796(7) 0.29726(12)
Ni4_3 Ni 1.0000 0.0000 0.53493(3)
C40 C 0.38441(10) 0.60271(7) 0.46439(16)
C41 C 0.43358(10) 0.65350(7) 0.46789(17)
H35 H 0.4790 0.6450 0.4252
C42 C 0.45170(11) 0.66835(9) 0.59573(17)
H36 H 0.4086 0.6820 0.6351
H37 H 0.4887 0.6967 0.5968
H38 H 0.4693 0.6358 0.6367
C43 C 0.39146(11) 0.70176(9) 0.29145(17)
C44 C 0.34331(12) 0.74670(8) 0.24644(17)
C45 C 0.35544(13) 0.76767(9) 0.13251(17)
H39 H 0.3942 0.7543 0.0870
C46 C 0.31028(13) 0.80817(9) 0.08689(17)
C47 C 0.25381(12) 0.82815(9) 0.15580(17)
H40 H 0.2230 0.8554 0.1249
C48 C 0.24220(11) 0.80835(9) 0.27023(17)
C49 C 0.28630(11) 0.76601(8) 0.31372(17)
H41 H 0.2771 0.7507 0.3887
C54 C 0.18321(11) 0.83177(8) 0.34314(17)
C55 C 0.15024(13) 0.83164(9) 0.66588(18)
H46 H 0.1957 0.8475 0.6920
H47 H 0.1531 0.7917 0.6698
H48 H 0.1115 0.8445 0.7167
C56 C 0.13520(10) 0.84931(8) 0.53862(17)
H49 H 0.0891 0.8325 0.5127
C57 C 0.12780(10) 0.91230(8) 0.53369(16)
C73 C 0.49133(11) 0.54665(8) 0.21802(16)
H62 H 0.4848 0.5798 0.2598
C74 C 0.49152(11) 0.54870(8) 0.09652(16)
H63 H 0.4860 0.5826 0.0571
N9 N 0.39865(9) 0.69966(7) 0.41096(14)
H66 H 0.3819 0.7266 0.4539
N11 N 0.19279(9) 0.83005(6) 0.46115(14)
H68 H 0.2330 0.8175 0.4908
N13 N 0.29654(9) 0.52472(7) 0.65288(13)
N15 N 0.30184(8) 0.52315(7) 0.28009(13)
N18 N 0.5000 0.5000 0.65150(18)
O10 O 0.40971(7) 0.55402(5) 0.46916(11)
O11 O 0.31694(7) 0.60900(5) 0.46238(11)
O12 O 0.42033(8) 0.66741(6) 0.22548(12)
O16 O 0.18482(7) 0.94024(5) 0.52548(11)
O17 O 0.68482(7) 0.55976(5) 0.47452(11)
O18 O 0.31518(7) 0.44024(5) 0.47452(11)
O19 O 0.06421(7) 0.93116(5) 0.54200(11)
O20 O 0.56421(7) 0.56884(5) 0.45800(11)
O21 O 0.43579(7) 0.43116(5) 0.45800(11)
O22 O 0.12835(8) 0.85204(7) 0.29726(12)
C11 C 0.67871(13) 0.16795(10) 0.9645(2)
C12 C 0.54209(14) 0.18524(12) 0.7477(2)
H8 H 0.5269 0.2234 0.7556
H9 H 0.5169 0.1628 0.8056
H10 H 0.5307 0.1721 0.6687
C13 C 0.62428(13) 0.18106(11) 0.76858(18)
H11 H 0.6388 0.1419 0.7596
C14 C 0.66595(13) 0.21554(11) 0.6774(2)
C37 C 0.5000 0.5000 0.9016(2)
C38 C 0.46430(11) 0.45937(9) 0.83626(17)
H30 H 0.4396 0.4309 0.8756
C39 C 0.46522(11) 0.46094(8) 0.71386(16)
H31 H 0.4402 0.4333 0.6722
N2 N 0.64068(12) 0.19848(9) 0.88961(15)
H33 H 0.6247 0.2304 0.9136
O4 O 0.70197(12) 0.25580(9) 0.71215(16)
O5 O 0.65991(9) 0.20123(8) 0.57064(13)
O6 O 0.70525(12) 0.12305(8) 0.93927(15)
C50 C 0.32129(13) 0.83205(10) 0.9645(2)
C51 C 0.45791(14) 0.81476(12) 0.7477(2)
H42 H 0.4731 0.7766 0.7556
H43 H 0.4831 0.8372 0.8056
H44 H 0.4693 0.8279 0.6687
C52 C 0.37572(13) 0.81894(11) 0.76858(18)
H45 H 0.3612 0.8581 0.7596
C53 C 0.33405(13) 0.78446(11) 0.6774(2)
C75 C 0.53570(11) 0.54063(9) 0.83626(17)
H64 H 0.5604 0.5691 0.8756
C76 C 0.53478(11) 0.53906(8) 0.71386(16)
H65 H 0.5598 0.5667 0.6722
N10 N 0.35932(12) 0.80152(9) 0.88961(15)
H67 H 0.3753 0.7696 0.9136
O13 O 0.29803(12) 0.74420(9) 0.71215(16)
O14 O 0.34009(9) 0.79877(8) 0.57064(13)
O15 O 0.29475(12) 0.87695(8) 0.93927(15)
Ni4_4 Ni 1.0000 1.0000 0.53493(3)
Ni8 Ni 0.801028(12) 0.977910(10) 0.53293(2)
C24_2 C 0.29543(10) 0.52410(8) 0.03238(16)
C25_2 C 0.28436(12) 0.57201(9) 0.09809(17)
H20_2 H 0.2751 0.6057 0.0596
C26_2 C 0.28705(12) 0.56965(9) 0.22047(17)
H21_2 H 0.2781 0.6021 0.2637
C27_2 C 0.31344(12) 0.47748(9) 0.21562(17)
H22_2 H 0.3244 0.4446 0.2561
C28_2 C 0.31026(11) 0.47575(9) 0.09401(16)
H23_2 H 0.3180 0.4424 0.0533
C19_2 C 0.26478(12) 0.48084(9) 0.83725(17)
H16_2 H 0.2433 0.4507 0.8762
C20_2 C 0.26816(11) 0.48258(9) 0.71517(17)
H17_2 H 0.2494 0.4524 0.6728
C21_2 C 0.32216(12) 0.56739(9) 0.71780(17)
H18_2 H 0.3412 0.5980 0.6772
C22_2 C 0.32210(13) 0.56871(9) 0.83801(16)
H19_2 H 0.3412 0.5994 0.8782
C23_2 C 0.29366(11) 0.52449(9) 0.90138(16)
C37_2 C 0.0000 0.0000 0.0984(2)
N8 N 0.0000 0.0000 0.34850(18)
C50_2 C 0.17871(13) 0.33205(10) 0.0355(2)
C51_2 C 0.04209(14) 0.31476(12) 0.2523(2)
H42_2 H 0.0269 0.2766 0.2444
H43_2 H 0.0169 0.3372 0.1944
H44_2 H 0.0307 0.3279 0.3313
C52_2 C 0.12428(13) 0.31894(11) 0.23142(18)
H45_2 H 0.1388 0.3581 0.2404
C53_2 C 0.16595(13) 0.28446(11) 0.3226(2)
N10_2 N 0.14068(12) 0.30152(9) 0.11039(15)
H67_2 H 0.1247 0.2696 0.0864
O13_2 O 0.20197(12) 0.24420(9) 0.28785(16)
O14_2 O 0.15991(9) 0.29877(8) 0.42936(13)
O15_2 O 0.20525(12) 0.37695(8) 0.06073(15)
C36_2 C 0.0000 0.0000 0.9680(2)
N7_2 N 0.0000 0.0000 0.71965(18)
C40_2 C 0.11559(10) 0.10271(7) 0.53561(16)
C41_2 C 0.06642(10) 0.15350(7) 0.53211(17)
H35_2 H 0.0210 0.1450 0.5748
C42_2 C 0.04830(11) 0.16835(9) 0.40427(17)
H36_2 H 0.0914 0.1820 0.3649
H37_2 H 0.0113 0.1967 0.4032
H38_2 H 0.0307 0.1358 0.3633
C43_2 C 0.10854(11) 0.20176(9) 0.70855(17)
C44_2 C 0.15669(12) 0.24670(8) 0.75356(17)
C45_2 C 0.14456(13) 0.26767(9) 0.86749(17)
H39_2 H 0.1058 0.2543 0.9130
C46_2 C 0.18972(13) 0.30817(9) 0.91311(17)
C47_2 C 0.24619(12) 0.32815(9) 0.84420(17)
H40_2 H 0.2770 0.3554 0.8751
C48_2 C 0.25780(11) 0.30835(9) 0.72977(17)
C49_2 C 0.21370(11) 0.26601(8) 0.68628(17)
H41_2 H 0.2229 0.2507 0.6113
C54_2 C 0.31679(11) 0.33177(8) 0.65686(17)
C55_2 C 0.34976(13) 0.33164(9) 0.33412(18)
H46_2 H 0.3043 0.3475 0.3080
H47_2 H 0.3469 0.2917 0.3302
H48_2 H 0.3885 0.3445 0.2833
C56_2 C 0.36480(10) 0.34931(8) 0.46138(17)
H49_2 H 0.4109 0.3325 0.4873
C57_2 C 0.37220(10) 0.41230(8) 0.46631(16)
C73_2 C 0.00867(11) 0.04665(8) 0.78198(16)
H62_2 H 0.0152 0.0798 0.7402
C74_2 C 0.00848(11) 0.04870(8) 0.90348(16)
H63_2 H 0.0140 0.0826 0.9429
N9_2 N 0.10135(9) 0.19966(7) 0.58904(14)
H66_2 H 0.1181 0.2266 0.5461
N11_2 N 0.30721(9) 0.33005(6) 0.53885(14)
H68_2 H 0.2670 0.3175 0.5092
N13_2 N 0.20346(9) 0.02472(7) 0.34712(13)
N15_2 N 0.19816(8) 0.02315(7) 0.71991(13)
N17 N 0.30981(8) 0.01393(7) 0.54131(13)
O10_2 O 0.09029(7) 0.05402(5) 0.53084(11)
O11_2 O 0.18306(7) 0.10900(5) 0.53762(11)
O12_2 O 0.07967(8) 0.16741(6) 0.77452(12)
O22_2 O 0.37165(8) 0.35204(7) 0.70274(12)
C37_3 C 0.0000 1.0000 0.0984(2)
C38_2 C 0.03570(11) 0.95937(9) 0.16374(17)
H30_2 H 0.0604 0.9309 0.1244
C39_2 C 0.03478(11) 0.96094(8) 0.28614(16)
H31_2 H 0.0598 0.9333 0.3278
N8_2 N 0.0000 1.0000 0.34850(18)
C36_3 C 0.0000 1.0000 0.9680(2)
N7_3 N 0.0000 1.0000 0.71965(18)
C37_4 C 1.0000 0.0000 0.0984(2)
N8_3 N 1.0000 0.0000 0.34850(18)
C58 C 0.76478(12) 0.01916(9) 0.16275(17)
H50 H 0.7433 0.0493 0.1238
C59 C 0.76816(11) 0.01742(9) 0.28483(17)
H51 H 0.7494 0.0476 0.3272
C75_2 C 0.96430(11) 0.04063(9) 0.16374(17)
H64_2 H 0.9396 0.0691 0.1244
C76_2 C 0.96522(11) 0.03906(8) 0.28614(16)
H65_2 H 0.9402 0.0667 0.3278
C32_2 C 0.58491(12) 0.04028(10) 0.5818(2)
H26_2 H 0.5650 0.0743 0.6055
C33_2 C 0.65943(12) 0.03378(9) 0.5744(2)
H27_2 H 0.6893 0.0639 0.5932
C36_4 C 1.0000 0.0000 0.9680(2)
N7_4 N 1.0000 0.0000 0.71965(18)
C66 C 0.81344(12) 0.02252(9) 0.78438(17)
H56 H 0.8244 0.0554 0.7439
C67 C 0.81026(11) 0.02425(9) 0.90599(16)
H57 H 0.8180 0.0576 0.9467
C68_2 C 0.35354(11) 0.05612(9) 0.5167(2)
H58_2 H 0.3327 0.0899 0.4941
C69_2 C 0.42832(12) 0.05268(10) 0.5230(2)
H59_2 H 0.4571 0.0837 0.5061
C70_2 C 0.45966(11) 0.00351(9) 0.55403(18)
C11_2 C 0.82129(13) 0.66795(10) 0.0355(2)
C12_2 C 0.95791(14) 0.68524(12) 0.2523(2)
H8_2 H 0.9731 0.7234 0.2444
H9_2 H 0.9831 0.6628 0.1944
H10_2 H 0.9693 0.6721 0.3313
C13_2 C 0.87572(13) 0.68106(11) 0.23142(18)
H11_2 H 0.8612 0.6419 0.2404
C14_2 C 0.83405(13) 0.71554(11) 0.3226(2)
C37_5 C 1.0000 1.0000 0.0984(2)
N2_2 N 0.85932(12) 0.69848(9) 0.11039(15)
H33_2 H 0.8753 0.7304 0.0864
N8_4 N 1.0000 1.0000 0.34850(18)
O4_2 O 0.79803(12) 0.75580(9) 0.28785(16)
O5_2 O 0.84009(9) 0.70123(8) 0.42936(13)
O6_2 O 0.79475(12) 0.62305(8) 0.06073(15)
C60 C 0.82216(12) 0.93261(9) 0.28220(17)
H52 H 0.8412 0.9020 0.3228
C61 C 0.82210(13) 0.93129(9) 0.16199(16)
H53 H 0.8412 0.9006 0.1218
C62 C 0.79366(11) 0.97551(9) 0.09862(16)
N12 N 0.79654(9) 0.97528(7) 0.34712(13)
C1_2 C 0.88441(10) 0.89729(7) 0.53561(16)
C2_2 C 0.93358(10) 0.84650(7) 0.53211(17)
H1_2 H 0.9790 0.8550 0.5748
C3_2 C 0.95170(11) 0.83165(9) 0.40427(17)
H2_2 H 0.9086 0.8180 0.3649
H3_2 H 0.9887 0.8033 0.4032
H4_2 H 0.9693 0.8642 0.3633
C4_2 C 0.89146(11) 0.79824(9) 0.70855(17)
C5_2 C 0.84331(12) 0.75330(8) 0.75356(17)
C6_2 C 0.85544(13) 0.73233(9) 0.86749(17)
H5_2 H 0.8942 0.7457 0.9130
C7_2 C 0.81028(13) 0.69183(9) 0.91311(17)
C8_2 C 0.75381(12) 0.67185(9) 0.84420(17)
H6_2 H 0.7230 0.6446 0.8751
C9_2 C 0.74220(11) 0.69165(9) 0.72977(17)
C10_2 C 0.78630(11) 0.73399(8) 0.68628(17)
H7_2 H 0.7771 0.7493 0.6113
C15_2 C 0.68321(11) 0.66823(8) 0.65686(17)
C16_2 C 0.65024(13) 0.66836(9) 0.33412(18)
H12_2 H 0.6957 0.6525 0.3080
H13_2 H 0.6531 0.7083 0.3302
H14_2 H 0.6115 0.6555 0.2833
C17_2 C 0.63520(10) 0.65069(8) 0.46138(17)
H15_2 H 0.5891 0.6675 0.4873
C18_2 C 0.62780(10) 0.58770(8) 0.46631(16)
C29_2 C 0.64646(11) 0.94388(9) 0.5167(2)
H24_2 H 0.6673 0.9101 0.4941
C30_2 C 0.57168(12) 0.94732(10) 0.5230(2)
H25_2 H 0.5429 0.9163 0.5061
C31_2 C 0.54034(11) 0.99649(9) 0.55403(18)
C34_2 C 0.99133(11) 0.95335(8) 0.78198(16)
H28_2 H 0.9848 0.9202 0.7402
C35_2 C 0.99152(11) 0.95130(8) 0.90348(16)
H29_2 H 0.9860 0.9174 0.9429
C36_5 C 1.0000 1.0000 0.9680(2)
N1_2 N 0.89865(9) 0.80034(7) 0.58904(14)
H32_2 H 0.8819 0.7734 0.5461
N3_2 N 0.69279(9) 0.66995(6) 0.53885(14)
H34_2 H 0.7330 0.6825 0.5092
N6_2 N 0.69019(8) 0.98607(7) 0.54131(13)
N7_5 N 1.0000 1.0000 0.71965(18)
O1_2 O 0.90971(7) 0.94598(5) 0.53084(11)
O2_2 O 0.81694(7) 0.89100(5) 0.53762(11)
O3_2 O 0.92033(8) 0.83259(6) 0.77452(12)
O9_2 O 0.62835(8) 0.64796(7) 0.70274(12)
C63 C 0.79543(10) 0.97590(8) 0.96762(16)
C64 C 0.78436(12) 0.92799(9) 0.90191(17)
H54 H 0.7751 0.8943 0.9404
C65 C 0.78705(12) 0.93035(9) 0.77953(17)
H55 H 0.7781 0.8979 0.7363
C71_2 C 0.41509(12) 0.95972(10) 0.5818(2)
H60_2 H 0.4350 0.9257 0.6055
C72_2 C 0.34057(12) 0.96622(9) 0.5744(2)
H61_2 H 0.3107 0.9361 0.5932
N14 N 0.80184(8) 0.97685(7) 0.71991(13)
C60_2 C 0.17784(12) 0.06739(9) 0.28220(17)
H52_2 H 0.1588 0.0980 0.3228
C61_2 C 0.17790(13) 0.06871(9) 0.16199(16)
H53_2 H 0.1588 0.0994 0.1218
C62_2 C 0.20634(11) 0.02449(9) 0.09862(16)
C63_2 C 0.20457(10) 0.02410(8) 0.96762(16)
C64_2 C 0.21564(12) 0.07201(9) 0.90191(17)
H54_2 H 0.2249 0.1057 0.9404
C65_2 C 0.21295(12) 0.06965(9) 0.77953(17)
H55_2 H 0.2219 0.1021 0.7363
C58_2 C 0.23522(12) 0.98084(9) 0.16275(17)
H50_2 H 0.2567 0.9507 0.1238
C59_2 C 0.23184(11) 0.98258(9) 0.28483(17)
H51_2 H 0.2506 0.9524 0.3272
C66_2 C 0.18656(12) 0.97748(9) 0.78438(17)
H56_2 H 0.1756 0.9446 0.7439
C67_2 C 0.18974(11) 0.97575(9) 0.90599(16)
H57_2 H 0.1820 0.9424 0.9467
loop_
_geom_bond_atom_site_label_1
_geom_bond_atom_site_label_2
_geom_bond_site_symmetry_1
_geom_bond_site_symmetry_2
Ni9 N16 1_555 1_555
C68 H58 1_555 1_555
C69 C68 1_555 1_555
H59 C69 1_555 1_555
C71 C70 1_555 1_555
H60 C71 1_555 1_555
C72 C71 1_555 1_555
H61 C72 1_555 1_555
N16 C68 1_555 1_555
C69 C70 1_555 1_555
C72 N16 1_555 1_555
C25 C24 1_555 1_555
H20 C25 1_555 1_555
C26 C25 1_555 1_555
H21 C26 1_555 1_555
C27 H22 1_555 1_555
C28 C24 1_555 1_555
H23 C28 1_555 1_555
N5 C26 1_555 1_555
Ni7 N5 1_555 1_555
C27 C28 1_555 1_555
C27 N5 1_555 1_555
Ni1 N7 1_555 1_555
Ni7 N4 1_555 1_555
C1 C2 1_555 1_555
C2 H1 1_555 1_555
C3 C2 1_555 1_555
H2 C3 1_555 1_555
H3 C3 1_555 1_555
H4 C3 1_555 1_555
C4 C5 1_555 1_555
C5 C6 1_555 1_555
C6 H5 1_555 1_555
C7 C6 1_555 1_555
C8 C7 1_555 1_555
H6 C8 1_555 1_555
C9 C8 1_555 1_555
C10 C5 1_555 1_555
H7 C10 1_555 1_555
C15 C9 1_555 1_555
C16 H12 1_555 1_555
H13 C16 1_555 1_555
H14 C16 1_555 1_555
C17 C16 1_555 1_555
H15 C17 1_555 1_555
C18 C17 1_555 1_555
C19 H16 1_555 1_555
C20 C19 1_555 1_555
H17 C20 1_555 1_555
C21 H18 1_555 1_555
C22 C21 1_555 1_555
H19 C22 1_555 1_555
C23 C19 1_555 1_555
C29 H24 1_555 1_555
C30 C29 1_555 1_555
H25 C30 1_555 1_555
C31 C30 1_555 1_555
C32 C31 1_555 1_555
H26 C32 1_555 1_555
C33 C32 1_555 1_555
H27 C33 1_555 1_555
C34 H28 1_555 1_555
C35 C34 1_555 1_555
H29 C35 1_555 1_555
C36 C35 1_555 1_555
N1 C2 1_555 1_555
H32 N1 1_555 1_555
N3 C15 1_555 1_555
H34 N3 1_555 1_555
N4 C20 1_555 1_555
N6 Ni7 1_555 1_555
N7 C34 1_555 1_555
O1 Ni1 1_555 1_555
O2 Ni7 1_555 1_555
O3 C4 1_555 1_555
O7 C18 1_555 1_555
O8 C18 1_555 1_555
O9 C15 1_555 1_555
Ni4_3 O8 1_555 1_555
Ni4_2 O19 1_555 1_555
Ni9 N13 1_555 1_555
C40 C41 1_555 1_555
C41 H35 1_555 1_555
C42 C41 1_555 1_555
H36 C42 1_555 1_555
H37 C42 1_555 1_555
H38 C42 1_555 1_555
C43 C44 1_555 1_555
C44 C45 1_555 1_555
C45 H39 1_555 1_555
C46 C45 1_555 1_555
C47 C46 1_555 1_555
H40 C47 1_555 1_555
C48 C47 1_555 1_555
C49 C44 1_555 1_555
H41 C49 1_555 1_555
C54 C48 1_555 1_555
C55 H46 1_555 1_555
H47 C55 1_555 1_555
H48 C55 1_555 1_555
C56 C55 1_555 1_555
H49 C56 1_555 1_555
C57 C56 1_555 1_555
C73 N7 1_555 1_555
H62 C73 1_555 1_555
C74 C36 1_555 1_555
H63 C74 1_555 1_555
N9 C41 1_555 1_555
H66 N9 1_555 1_555
N11 C54 1_555 1_555
H68 N11 1_555 1_555
N15 Ni9 1_555 1_555
N18 Ni1 1_555 1_555
O10 Ni1 1_555 1_555
O11 Ni9 1_555 1_555
O12 C43 1_555 1_555
O16 C57 1_555 1_555
O17 Ni7 1_555 1_555
O18 Ni9 1_555 1_555
O19 C57 1_555 1_555
O20 Ni1 1_555 1_555
O21 Ni1 1_555 1_555
O22 C54 1_555 1_555
Ni7 O1 1_555 1_555
C1 O1 1_555 1_555
C1 O2 1_555 1_555
C4 N1 1_555 1_555
C9 C10 1_555 1_555
C17 N3 1_555 1_555
C21 N4 1_555 1_555
C22 C23 1_555 1_555
C29 N6 1_555 1_555
C33 N6 1_555 1_555
Ni9 O10 1_555 1_555
C40 O10 1_555 1_555
C40 O11 1_555 1_555
C43 N9 1_555 1_555
C48 C49 1_555 1_555
C56 N11 1_555 1_555
C73 C74 1_555 1_555
C12 H8 1_555 1_555
H9 C12 1_555 1_555
H10 C12 1_555 1_555
C13 C12 1_555 1_555
H11 C13 1_555 1_555
C14 C13 1_555 1_555
C38 C37 1_555 1_555
H30 C38 1_555 1_555
C39 C38 1_555 1_555
H31 C39 1_555 1_555
N2 C11 1_555 1_555
H33 N2 1_555 1_555
N18 C39 1_555 1_555
O4 C14 1_555 1_555
O5 C14 1_555 1_555
O6 C11 1_555 1_555
C51 H42 1_555 1_555
H43 C51 1_555 1_555
H44 C51 1_555 1_555
C52 C51 1_555 1_555
H45 C52 1_555 1_555
C53 C52 1_555 1_555
C75 C37 1_555 1_555
H64 C75 1_555 1_555
C76 N18 1_555 1_555
H65 C76 1_555 1_555
N10 C50 1_555 1_555
H67 N10 1_555 1_555
O13 C53 1_555 1_555
O14 C53 1_555 1_555
O15 C50 1_555 1_555
C13 N2 1_555 1_555
C52 N10 1_555 1_555
C75 C76 1_555 1_555
C25_2 C24_2 1_555 1_555
H20_2 C25_2 1_555 1_555
C26_2 C25_2 1_555 1_555
H21_2 C26_2 1_555 1_555
C27_2 H22_2 1_555 1_555
C28_2 C24_2 1_555 1_555
H23_2 C28_2 1_555 1_555
N15 C26_2 1_555 1_555
C27_2 C28_2 1_555 1_555
C27_2 N15 1_555 1_555
C19_2 H16_2 1_555 1_555
C20_2 C19_2 1_555 1_555
H17_2 C20_2 1_555 1_555
C21_2 H18_2 1_555 1_555
C22_2 C21_2 1_555 1_555
H19_2 C22_2 1_555 1_555
C23_2 C19_2 1_555 1_555
N13 C20_2 1_555 1_555
C21_2 N13 1_555 1_555
C22_2 C23_2 1_555 1_555
Ni4 N8 1_555 1_555
C51_2 H42_2 1_555 1_555
H43_2 C51_2 1_555 1_555
H44_2 C51_2 1_555 1_555
C52_2 C51_2 1_555 1_555
H45_2 C52_2 1_555 1_555
C53_2 C52_2 1_555 1_555
N10_2 C50_2 1_555 1_555
H67_2 N10_2 1_555 1_555
O13_2 C53_2 1_555 1_555
O14_2 C53_2 1_555 1_555
O15_2 C50_2 1_555 1_555
C52_2 N10_2 1_555 1_555
Ni4 N7_2 1_555 1_555
Ni10 N13_2 1_555 1_555
C40_2 C41_2 1_555 1_555
C41_2 H35_2 1_555 1_555
C42_2 C41_2 1_555 1_555
H36_2 C42_2 1_555 1_555
H37_2 C42_2 1_555 1_555
H38_2 C42_2 1_555 1_555
C43_2 C44_2 1_555 1_555
C44_2 C45_2 1_555 1_555
C45_2 H39_2 1_555 1_555
C46_2 C45_2 1_555 1_555
C47_2 C46_2 1_555 1_555
H40_2 C47_2 1_555 1_555
C48_2 C47_2 1_555 1_555
C49_2 C44_2 1_555 1_555
H41_2 C49_2 1_555 1_555
C54_2 C48_2 1_555 1_555
C55_2 H46_2 1_555 1_555
H47_2 C55_2 1_555 1_555
H48_2 C55_2 1_555 1_555
C56_2 C55_2 1_555 1_555
H49_2 C56_2 1_555 1_555
C57_2 C56_2 1_555 1_555
C73_2 N7_2 1_555 1_555
H62_2 C73_2 1_555 1_555
C74_2 C36_2 1_555 1_555
H63_2 C74_2 1_555 1_555
N9_2 C41_2 1_555 1_555
H66_2 N9_2 1_555 1_555
N11_2 C54_2 1_555 1_555
H68_2 N11_2 1_555 1_555
N15_2 Ni10 1_555 1_555
N17 Ni10 1_555 1_555
O10_2 Ni4 1_555 1_555
O11_2 Ni10 1_555 1_555
O12_2 C43_2 1_555 1_555
O18 C57_2 1_555 1_555
O21 C57_2 1_555 1_555
O22_2 C54_2 1_555 1_555
Ni10 O10_2 1_555 1_555
C40_2 O10_2 1_555 1_555
C40_2 O11_2 1_555 1_555
C43_2 N9_2 1_555 1_555
C48_2 C49_2 1_555 1_555
C56_2 N11_2 1_555 1_555
C73_2 C74_2 1_555 1_555
C38_2 C37_3 1_555 1_555
H30_2 C38_2 1_555 1_555
C39_2 C38_2 1_555 1_555
H31_2 C39_2 1_555 1_555
N8_2 C39_2 1_555 1_555
Ni4_2 N8_2 1_555 1_555
Ni4_2 N7_3 1_555 1_555
Ni4_3 N8_3 1_555 1_555
C58 H50 1_555 1_555
C59 C58 1_555 1_555
H51 C59 1_555 1_555
C75_2 C37_4 1_555 1_555
H64_2 C75_2 1_555 1_555
C76_2 N8_3 1_555 1_555
H65_2 C76_2 1_555 1_555
C75_2 C76_2 1_555 1_555
Ni4_3 N7_4 1_555 1_555
H26_2 C32_2 1_555 1_555
C33_2 C32_2 1_555 1_555
H27_2 C33_2 1_555 1_555
C66 H56 1_555 1_555
H57 C67 1_555 1_555
C68_2 H58_2 1_555 1_555
C69_2 C68_2 1_555 1_555
H59_2 C69_2 1_555 1_555
N17 C68_2 1_555 1_555
C66 C67 1_555 1_555
C69_2 C70_2 1_555 1_555
C12_2 H8_2 1_555 1_555
H9_2 C12_2 1_555 1_555
H10_2 C12_2 1_555 1_555
C13_2 C12_2 1_555 1_555
H11_2 C13_2 1_555 1_555
C14_2 C13_2 1_555 1_555
N2_2 C11_2 1_555 1_555
H33_2 N2_2 1_555 1_555
O4_2 C14_2 1_555 1_555
O5_2 C14_2 1_555 1_555
O6_2 C11_2 1_555 1_555
Ni4_4 N8_4 1_555 1_555
Ni8 N12 1_555 1_555
C60 H52 1_555 1_555
C61 C60 1_555 1_555
H53 C61 1_555 1_555
C13_2 N2_2 1_555 1_555
C60 N12 1_555 1_555
C61 C62 1_555 1_555
Ni4_4 N7_5 1_555 1_555
C1_2 C2_2 1_555 1_555
C2_2 H1_2 1_555 1_555
C3_2 C2_2 1_555 1_555
H2_2 C3_2 1_555 1_555
H3_2 C3_2 1_555 1_555
H4_2 C3_2 1_555 1_555
C4_2 C5_2 1_555 1_555
C5_2 C6_2 1_555 1_555
C6_2 H5_2 1_555 1_555
C7_2 C6_2 1_555 1_555
C8_2 C7_2 1_555 1_555
H6_2 C8_2 1_555 1_555
C9_2 C8_2 1_555 1_555
C10_2 C5_2 1_555 1_555
H7_2 C10_2 1_555 1_555
C15_2 C9_2 1_555 1_555
C16_2 H12_2 1_555 1_555
H13_2 C16_2 1_555 1_555
H14_2 C16_2 1_555 1_555
C17_2 C16_2 1_555 1_555
H15_2 C17_2 1_555 1_555
C18_2 C17_2 1_555 1_555
C29_2 H24_2 1_555 1_555
C30_2 C29_2 1_555 1_555
H25_2 C30_2 1_555 1_555
C31_2 C30_2 1_555 1_555
C34_2 H28_2 1_555 1_555
C35_2 C34_2 1_555 1_555
H29_2 C35_2 1_555 1_555
C36_5 C35_2 1_555 1_555
N1_2 C2_2 1_555 1_555
H32_2 N1_2 1_555 1_555
N3_2 C15_2 1_555 1_555
H34_2 N3_2 1_555 1_555
N6_2 Ni8 1_555 1_555
N7_5 C34_2 1_555 1_555
O1_2 Ni4_4 1_555 1_555
O2_2 Ni8 1_555 1_555
O3_2 C4_2 1_555 1_555
O17 C18_2 1_555 1_555
O20 C18_2 1_555 1_555
O9_2 C15_2 1_555 1_555
C64 C63 1_555 1_555
H54 C64 1_555 1_555
C65 C64 1_555 1_555
H55 C65 1_555 1_555
H60_2 C71_2 1_555 1_555
C72_2 C71_2 1_555 1_555
H61_2 C72_2 1_555 1_555
N14 Ni8 1_555 1_555
Ni8 O1_2 1_555 1_555
C1_2 O1_2 1_555 1_555
C1_2 O2_2 1_555 1_555
C4_2 N1_2 1_555 1_555
C9_2 C10_2 1_555 1_555
C17_2 N3_2 1_555 1_555
C29_2 N6_2 1_555 1_555
C65 N14 1_555 1_555
C60_2 H52_2 1_555 1_555
C61_2 C60_2 1_555 1_555
H53_2 C61_2 1_555 1_555
C60_2 N13_2 1_555 1_555
C61_2 C62_2 1_555 1_555
C64_2 C63_2 1_555 1_555
H54_2 C64_2 1_555 1_555
C65_2 C64_2 1_555 1_555
H55_2 C65_2 1_555 1_555
C65_2 N15_2 1_555 1_555
C58_2 H50_2 1_555 1_555
C59_2 C58_2 1_555 1_555
H51_2 C59_2 1_555 1_555
C66_2 H56_2 1_555 1_555
H57_2 C67_2 1_555 1_555
C66_2 C67_2 1_555 1_555

#END
