
###############################################################################
#
# This file contains modified crystal structure data generated from the
# MOF subset of the Cambridge Structural Database (CSD) v543 
# hosted by the Cambridge Crystallographic Data Centre (CCDC).
#
# This work is licensed under the Creative Commons
# Attribution-NonCommercial-ShareAlike 4.0 International License.
# To view a copy of this license, visit
# http://creativecommons.org/licenses/by-nc-sa/4.0/
# or send a letter to
# Creative Commons, PO Box 1866, Mountain View, CA 94042, USA.
#
# CIF created using the CSD Python API on 29 September 2022
# The structure has been converted into the P1 space group
# The structure has a 3D framework
# The original CSD entry ALUREF is in the orthorhombic crystal system
# The original CSD entry ALUREF is in a Sohncke space group
# The framework has been calculated to contain at least 10.0% void space
# The void calculation uses a probe of radius 1.32A, grid spacing 0.4
# The framework is charged, counterions have been retained in the structure
#
###############################################################################

data_ALUREF
_chemical_formula_moiety         '(C158 H136 Co9 N32 O36 4+)n'
_symmetry_cell_setting           triclinic
_symmetry_space_group_name_H-M   'P 1'
_symmetry_Int_Tables_number      1
_space_group_name_Hall           'P 1'
loop_
_symmetry_equiv_pos_site_id
_symmetry_equiv_pos_as_xyz
1 x,y,z
_cell_length_a                   18.663(4)
_cell_length_b                   24.329(5)
_cell_length_c                   11.395(2)
_cell_angle_alpha                90
_cell_angle_beta                 90
_cell_angle_gamma                90
_cell_volume                     5173.92
loop_
_atom_site_label
_atom_site_type_symbol
_atom_site_fract_x
_atom_site_fract_y
_atom_site_fract_z
Co5 Co -0.0000 0.0000 0.46064(9)
Co5_2 Co 0.0000 1.0000 0.46064(9)
Co8 Co 0.19993(4) 0.01926(4) 0.46544(6)
C11 C 0.3175(4) 0.8330(3) 0.0276(6)
C12 C 0.4486(5) 0.8129(5) 0.2432(8)
H8 H 0.4645 0.7751 0.2358
H9 H 0.4603 0.8266 0.3208
H10 H 0.4723 0.8353 0.1845
C13 C 0.3679(4) 0.8156(4) 0.2249(6)
H11 H 0.3527 0.8543 0.2359
C14 C 0.3280(4) 0.7804(4) 0.3156(6)
C37 C 0.5000 0.5000 0.1030(6)
C38 C 0.5352(3) 0.5412(3) 0.1674(5)
H30 H 0.5593 0.5698 0.1285
C39 C 0.5339(3) 0.5393(3) 0.2878(5)
H31 H 0.5581 0.5669 0.3295
N2 N 0.3494(4) 0.7994(3) 0.1047(5)
H33 H 0.3598 0.7661 0.0823
N8 N 0.5000 0.5000 0.3492(5)
O4 O 0.2931(3) 0.7395(3) 0.2809(4)
O5 O 0.3353(3) 0.7952(3) 0.4219(4)
O6 O 0.2983(4) 0.8785(3) 0.0514(5)
Co3 Co 0.5000 0.5000 0.53936(9)
Co11 Co 0.30007(4) 0.51926(4) 0.53456(6)
C50 C 0.6825(4) 0.1670(3) 0.0276(6)
C51 C 0.5514(5) 0.1871(5) 0.2432(8)
H42 H 0.5355 0.2249 0.2358
H43 H 0.5397 0.1734 0.3208
H44 H 0.5277 0.1647 0.1845
C52 C 0.6321(4) 0.1844(4) 0.2249(6)
H45 H 0.6473 0.1457 0.2359
C53 C 0.6720(4) 0.2196(4) 0.3156(6)
C58 C 0.2633(4) 0.4792(3) 0.1636(5)
H50 H 0.2412 0.4496 0.1252
C59 C 0.2663(3) 0.4808(4) 0.2846(5)
H51 H 0.2458 0.4515 0.3265
C60 C 0.3242(4) 0.5627(3) 0.2807(5)
H52 H 0.3462 0.5918 0.3211
C61 C 0.3229(4) 0.5654(3) 0.1598(5)
H53 H 0.3416 0.5959 0.1196
C62 C 0.2929(3) 0.5215(3) 0.0997(5)
C75 C 0.4648(3) 0.4588(3) 0.1674(5)
H64 H 0.4407 0.4302 0.1285
C76 C 0.4661(3) 0.4607(3) 0.2878(5)
H65 H 0.4419 0.4331 0.3295
N10 N 0.6506(4) 0.2006(3) 0.1047(5)
H67 H 0.6402 0.2339 0.0823
N12 N 0.2964(3) 0.5215(2) 0.3456(4)
O13 O 0.7069(3) 0.2605(3) 0.2809(4)
O14 O 0.6647(3) 0.2048(3) 0.4219(4)
O15 O 0.7017(4) 0.1215(3) 0.0514(5)
C1 C 0.3825(3) 0.6023(3) 0.5364(5)
C2 C 0.4301(3) 0.6526(3) 0.5337(6)
H1 H 0.4751 0.6445 0.5763
C3 C 0.4482(3) 0.6678(3) 0.4057(5)
H2 H 0.4053 0.6808 0.3665
H3 H 0.4664 0.6356 0.3652
H4 H 0.4842 0.6965 0.4049
C4 C 0.3872(3) 0.7022(3) 0.7074(5)
C5 C 0.3400(3) 0.7476(3) 0.7515(5)
C6 C 0.3516(4) 0.7691(3) 0.8621(5)
H5 H 0.3910 0.7570 0.9068
C7 C 0.3062(4) 0.8079(3) 0.9068(6)
C8 C 0.2497(4) 0.8278(3) 0.8396(5)
H6 H 0.2191 0.8549 0.8702
C9 C 0.2383(4) 0.8072(3) 0.7255(5)
C10 C 0.2830(3) 0.7667(3) 0.6831(5)
H7 H 0.2752 0.7520 0.6079
C15 C 0.1794(3) 0.8309(3) 0.6539(5)
C16 C 0.1470(4) 0.8297(4) 0.3331(6)
H12 H 0.1933 0.8434 0.3076
H13 H 0.1099 0.8441 0.2820
H14 H 0.1468 0.7899 0.3297
C17 C 0.1329(3) 0.8484(3) 0.4591(5)
H15 H 0.0869 0.8322 0.4852
C18 C 0.1261(3) 0.9099(2) 0.4637(5)
C29 C 0.1464(4) 0.5533(4) 0.5178(9)
H24 H 0.1678 0.5870 0.4978
C30 C 0.0727(4) 0.5509(4) 0.5218(11)
H25 H 0.0453 0.5825 0.5064
C31 C 0.0396(3) 0.5024(3) 0.5485(6)
C32 C 0.0831(3) 0.4587(4) 0.5722(9)
H26 H 0.0628 0.4247 0.5928
C33 C 0.1573(4) 0.4642(4) 0.5662(8)
H27 H 0.1860 0.4332 0.5813
C34 C 0.4902(3) 0.5468(3) 0.7882(5)
H28 H 0.4830 0.5797 0.7467
C35 C 0.4902(3) 0.5477(3) 0.9083(5)
H29 H 0.4836 0.5813 0.9476
C36 C 0.5000 0.5000 0.9729(7)
N1 N 0.3944(3) 0.6993(2) 0.5900(4)
H32 H 0.3774 0.7258 0.5467
N3 N 0.1890(2) 0.8282(2) 0.5353(4)
H34 H 0.2282 0.8146 0.5061
N6 N 0.1889(2) 0.5110(2) 0.5403(4)
N7 N 0.5000 0.5000 0.7283(5)
O1 O 0.40925(19) 0.55445(17) 0.5349(3)
O2 O 0.31475(19) 0.60730(18) 0.5372(4)
O3 O 0.4146(3) 0.6675(2) 0.7740(4)
O7 O 0.18287(19) 0.93738(17) 0.4732(3)
O8 O 0.06432(19) 0.93024(17) 0.4536(4)
O9 O 0.1263(2) 0.8520(2) 0.6967(4)
Co5_3 Co 1.0000 0.0000 0.46064(9)
Co6 Co 0.69993(4) 0.48074(4) 0.53456(6)
C40 C 0.6175(3) 0.3977(3) 0.5364(5)
C41 C 0.5699(3) 0.3474(3) 0.5337(6)
H35 H 0.5249 0.3555 0.5763
C42 C 0.5518(3) 0.3322(3) 0.4057(5)
H36 H 0.5947 0.3192 0.3665
H37 H 0.5336 0.3644 0.3652
H38 H 0.5158 0.3035 0.4049
C43 C 0.6128(3) 0.2978(3) 0.7074(5)
C44 C 0.6600(3) 0.2524(3) 0.7515(5)
C45 C 0.6484(4) 0.2309(3) 0.8621(5)
H39 H 0.6090 0.2430 0.9068
C46 C 0.6938(4) 0.1921(3) 0.9068(6)
C47 C 0.7503(4) 0.1722(3) 0.8396(5)
H40 H 0.7809 0.1451 0.8702
C48 C 0.7617(4) 0.1928(3) 0.7255(5)
C49 C 0.7170(3) 0.2333(3) 0.6831(5)
H41 H 0.7248 0.2480 0.6079
C54 C 0.8206(3) 0.1691(3) 0.6539(5)
C55 C 0.8530(4) 0.1703(4) 0.3331(6)
H46 H 0.8067 0.1566 0.3076
H47 H 0.8901 0.1559 0.2820
H48 H 0.8532 0.2101 0.3297
C56 C 0.8671(3) 0.1516(3) 0.4591(5)
H49 H 0.9131 0.1678 0.4852
C57 C 0.8739(3) 0.0901(2) 0.4637(5)
C63 C 0.2930(3) 0.5216(3) 0.9701(5)
C64 C 0.2791(4) 0.5677(4) 0.9058(5)
H54 H 0.2680 0.6009 0.9440
C65 C 0.2813(4) 0.5658(3) 0.7824(5)
H55 H 0.2693 0.5976 0.7399
C66 C 0.3138(4) 0.4766(3) 0.7885(5)
H56 H 0.3274 0.4444 0.7487
C67 C 0.3101(4) 0.4741(3) 0.9079(5)
H57 H 0.3190 0.4409 0.9475
C73 C 0.5098(3) 0.4532(3) 0.7882(5)
H62 H 0.5170 0.4203 0.7467
C74 C 0.5098(3) 0.4523(3) 0.9083(5)
H63 H 0.5164 0.4187 0.9476
N9 N 0.6056(3) 0.3007(2) 0.5900(4)
H66 H 0.6226 0.2742 0.5467
N11 N 0.8110(2) 0.1718(2) 0.5353(4)
H68 H 0.7718 0.1854 0.5061
N13 N 0.7036(3) 0.4785(2) 0.3456(4)
N14 N 0.2997(2) 0.5208(2) 0.7236(4)
N15 N 0.7003(2) 0.4792(2) 0.7236(4)
N17 N 0.8111(2) 0.4890(2) 0.5403(4)
O10 O 0.59075(19) 0.44555(17) 0.5349(3)
O11 O 0.68525(19) 0.39270(18) 0.5372(4)
O12 O 0.5854(3) 0.3325(2) 0.7740(4)
O16 O 0.81713(19) 0.06262(17) 0.4732(3)
O17 O 0.31713(19) 0.43738(17) 0.5268(3)
O18 O 0.68287(19) 0.56262(17) 0.5268(3)
O19 O 0.93568(19) 0.06976(17) 0.4536(4)
O20 O 0.43568(19) 0.43024(17) 0.5464(4)
O21 O 0.56432(19) 0.56976(17) 0.5464(4)
O22 O 0.8737(2) 0.1480(2) 0.6967(4)
Co5_4 Co 1.0000 1.0000 0.46064(9)
Co10 Co 0.80007(4) 0.98074(4) 0.46544(6)
C68 C 0.8536(4) 0.4467(4) 0.5178(9)
H58 H 0.8322 0.4130 0.4978
C69 C 0.9273(4) 0.4491(4) 0.5218(11)
H59 H 0.9547 0.4175 0.5064
C70 C 0.9604(3) 0.4976(3) 0.5485(6)
C71 C 0.9169(3) 0.5413(4) 0.5722(9)
H60 H 0.9372 0.5753 0.5928
C72 C 0.8427(4) 0.5358(4) 0.5662(8)
H61 H 0.8140 0.5668 0.5813
C58_2 C 0.7367(4) 0.5208(3) 0.1636(5)
H50_2 H 0.7588 0.5504 0.1252
C59_2 C 0.7337(3) 0.5192(4) 0.2846(5)
H51_2 H 0.7542 0.5485 0.3265
C60_2 C 0.6758(4) 0.4373(3) 0.2807(5)
H52_2 H 0.6538 0.4082 0.3211
C61_2 C 0.6771(4) 0.4346(3) 0.1598(5)
H53_2 H 0.6584 0.4041 0.1196
C62_2 C 0.7071(3) 0.4785(3) 0.0997(5)
C63_2 C 0.7070(3) 0.4784(3) 0.9701(5)
C64_2 C 0.7209(4) 0.4323(4) 0.9058(5)
H54_2 H 0.7320 0.3991 0.9440
C65_2 C 0.7187(4) 0.4342(3) 0.7824(5)
H55_2 H 0.7307 0.4024 0.7399
C66_2 C 0.6862(4) 0.5234(3) 0.7885(5)
H56_2 H 0.6726 0.5556 0.7487
C67_2 C 0.6899(4) 0.5259(3) 0.9079(5)
H57_2 H 0.6810 0.5591 0.9475
C24 C 0.2070(3) 0.0216(3) 0.0299(5)
C25 C 0.2209(4) 0.0677(4) 0.0942(5)
H20 H 0.2320 0.1009 0.0560
C26 C 0.2187(4) 0.0658(3) 0.2176(5)
H21 H 0.2307 0.0976 0.2601
N5 N 0.2003(2) 0.0208(2) 0.2764(4)
C1_2 C 0.1175(3) 0.1023(3) 0.4636(5)
C2_2 C 0.0699(3) 0.1526(3) 0.4663(6)
H1_2 H 0.0249 0.1445 0.4237
C3_2 C 0.0518(3) 0.1678(3) 0.5943(5)
H2_2 H 0.0947 0.1808 0.6335
H3_2 H 0.0336 0.1356 0.6348
H4_2 H 0.0158 0.1965 0.5951
C4_2 C 0.1128(3) 0.2022(3) 0.2926(5)
C5_2 C 0.1600(3) 0.2476(3) 0.2485(5)
C6_2 C 0.1484(4) 0.2691(3) 0.1379(5)
H5_2 H 0.1090 0.2570 0.0932
C7_2 C 0.1938(4) 0.3079(3) 0.0932(6)
C8_2 C 0.2503(4) 0.3278(3) 0.1604(5)
H6_2 H 0.2809 0.3549 0.1298
C9_2 C 0.2617(4) 0.3072(3) 0.2745(5)
C10_2 C 0.2170(3) 0.2667(3) 0.3169(5)
H7_2 H 0.2248 0.2520 0.3921
C15_2 C 0.3206(3) 0.3309(3) 0.3461(5)
C16_2 C 0.3530(4) 0.3297(4) 0.6669(6)
H12_2 H 0.3067 0.3434 0.6924
H13_2 H 0.3901 0.3441 0.7180
H14_2 H 0.3532 0.2899 0.6703
C17_2 C 0.3671(3) 0.3484(3) 0.5409(5)
H15_2 H 0.4131 0.3322 0.5148
C18_2 C 0.3739(3) 0.4099(2) 0.5363(5)
C21 C 0.1758(4) 0.0627(3) 0.7193(5)
H18 H 0.1538 0.0918 0.6789
C22 C 0.1771(4) 0.0654(3) 0.8402(5)
H19 H 0.1584 0.0959 0.8804
C23 C 0.2071(3) 0.0215(3) 0.9003(5)
C29_2 C 0.3536(4) 0.0533(4) 0.4822(9)
H24_2 H 0.3322 0.0870 0.5022
C30_2 C 0.4273(4) 0.0509(4) 0.4782(11)
H25_2 H 0.4547 0.0825 0.4936
C31_2 C 0.4604(3) 0.0024(3) 0.4515(6)
C34_2 C 0.0098(3) 0.0468(3) 0.2118(5)
H28_2 H 0.0170 0.0797 0.2533
C35_2 C 0.0098(3) 0.0477(3) 0.0917(5)
H29_2 H 0.0164 0.0813 0.0524
C36_2 C 0.0000 -0.0000 0.0271(7)
N1_2 N 0.1056(3) 0.1993(2) 0.4100(4)
H32_2 H 0.1226 0.2258 0.4533
N3_2 N 0.3110(2) 0.3282(2) 0.4647(4)
H34_2 H 0.2718 0.3146 0.4939
N4 N 0.2036(3) 0.0215(2) 0.6544(4)
N6_2 N 0.3111(2) 0.0110(2) 0.4597(4)
N7_2 N 0.0000 0.0000 0.2717(5)
O1_2 O 0.09075(19) 0.05445(17) 0.4651(3)
O2_2 O 0.18525(19) 0.10730(18) 0.4628(4)
O3_2 O 0.0854(3) 0.1675(2) 0.2260(4)
O9_2 O 0.3737(2) 0.3520(2) 0.3033(4)
C71_2 C 0.5831(3) 0.0413(4) 0.4278(9)
H60_2 H 0.5628 0.0753 0.4072
C72_2 C 0.6573(4) 0.0358(4) 0.4338(8)
H61_2 H 0.6860 0.0668 0.4187
N18 N 0.0000 0.0000 0.6508(5)
C11_2 C 0.1825(4) 0.3330(3) 0.9724(6)
C12_2 C 0.0514(5) 0.3129(5) 0.7568(8)
H8_2 H 0.0355 0.2751 0.7642
H9_2 H 0.0397 0.3266 0.6792
H10_2 H 0.0277 0.3353 0.8155
C13_2 C 0.1321(4) 0.3156(4) 0.7751(6)
H11_2 H 0.1473 0.3543 0.7641
C14_2 C 0.1720(4) 0.2804(4) 0.6844(6)
C37_2 C 0.0000 -0.0000 0.8970(6)
N2_2 N 0.1506(4) 0.2994(3) 0.8953(5)
H33_2 H 0.1402 0.2661 0.9177
O4_2 O 0.2069(3) 0.2395(3) 0.7191(4)
O5_2 O 0.1647(3) 0.2952(3) 0.5781(4)
O6_2 O 0.2017(4) 0.3785(3) 0.9486(5)
C27 C 0.1862(4) 0.9766(3) 0.2115(5)
H22 H 0.1726 0.9444 0.2513
C28 C 0.1899(4) 0.9741(3) 0.0921(5)
H23 H 0.1810 0.9409 0.0525
C19 C 0.2367(4) 0.9792(3) 0.8364(5)
H16 H 0.2588 0.9496 0.8748
C20 C 0.2337(3) 0.9808(4) 0.7154(5)
H17 H 0.2542 0.9515 0.6735
C32_2 C 0.4169(3) 0.9587(4) 0.4278(9)
H26_2 H 0.4372 0.9247 0.4072
C33_2 C 0.3427(4) 0.9642(4) 0.4338(8)
H27_2 H 0.3140 0.9332 0.4187
C36_3 C 0.0000 1.0000 0.0271(7)
N7_3 N 0.0000 1.0000 0.2717(5)
C68_2 C 0.6464(4) 0.9467(4) 0.4822(9)
H58_2 H 0.6678 0.9130 0.5022
C69_2 C 0.5727(4) 0.9491(4) 0.4782(11)
H59_2 H 0.5453 0.9175 0.4936
C70_2 C 0.5396(3) 0.9976(3) 0.4515(6)
N16 N 0.6889(2) 0.9890(2) 0.4597(4)
N18_2 N 0.0000 1.0000 0.6508(5)
C37_3 C 0.0000 1.0000 0.8970(6)
C75_2 C 0.0352(3) 0.9588(3) 0.8326(5)
H64_2 H 0.0593 0.9302 0.8715
C76_2 C 0.0339(3) 0.9607(3) 0.7122(5)
H65_2 H 0.0581 0.9331 0.6705
C36_4 C 1.0000 -0.0000 0.0271(7)
N7_4 N 1.0000 0.0000 0.2717(5)
N18_3 N 1.0000 0.0000 0.6508(5)
C37_4 C 1.0000 -0.0000 0.8970(6)
C38_2 C 0.9648(3) 0.0412(3) 0.8326(5)
H30_2 H 0.9407 0.0698 0.8715
C39_2 C 0.9661(3) 0.0393(3) 0.7122(5)
H31_2 H 0.9419 0.0669 0.6705
C36_5 C 1.0000 1.0000 0.0271(7)
N7_5 N 1.0000 1.0000 0.2717(5)
C40_2 C 0.8825(3) 0.8977(3) 0.4636(5)
C41_2 C 0.9301(3) 0.8474(3) 0.4663(6)
H35_2 H 0.9751 0.8555 0.4237
C42_2 C 0.9482(3) 0.8322(3) 0.5943(5)
H36_2 H 0.9053 0.8192 0.6335
H37_2 H 0.9664 0.8644 0.6348
H38_2 H 0.9842 0.8035 0.5951
C43_2 C 0.8872(3) 0.7978(3) 0.2926(5)
C44_2 C 0.8400(3) 0.7524(3) 0.2485(5)
C45_2 C 0.8516(4) 0.7309(3) 0.1379(5)
H39_2 H 0.8910 0.7430 0.0932
C46_2 C 0.8062(4) 0.6921(3) 0.0932(6)
C47_2 C 0.7497(4) 0.6722(3) 0.1604(5)
H40_2 H 0.7191 0.6451 0.1298
C48_2 C 0.7383(4) 0.6928(3) 0.2745(5)
C49_2 C 0.7830(3) 0.7333(3) 0.3169(5)
H41_2 H 0.7752 0.7480 0.3921
C54_2 C 0.6794(3) 0.6691(3) 0.3461(5)
C55_2 C 0.6470(4) 0.6703(4) 0.6669(6)
H46_2 H 0.6933 0.6566 0.6924
H47_2 H 0.6099 0.6559 0.7180
H48_2 H 0.6468 0.7101 0.6703
C56_2 C 0.6329(3) 0.6516(3) 0.5409(5)
H49_2 H 0.5869 0.6678 0.5148
C57_2 C 0.6261(3) 0.5901(2) 0.5363(5)
C73_2 C 0.9902(3) 0.9532(3) 0.2118(5)
H62_2 H 0.9830 0.9203 0.2533
C74_2 C 0.9902(3) 0.9523(3) 0.0917(5)
H63_2 H 0.9836 0.9187 0.0524
N9_2 N 0.8944(3) 0.8007(2) 0.4100(4)
H66_2 H 0.8774 0.7742 0.4533
N11_2 N 0.6890(2) 0.6718(2) 0.4647(4)
H68_2 H 0.7282 0.6854 0.4939
N13_2 N 0.7964(3) 0.9785(2) 0.6544(4)
N15_2 N 0.7997(2) 0.9792(2) 0.2764(4)
N18_4 N 1.0000 1.0000 0.6508(5)
O10_2 O 0.90925(19) 0.94555(17) 0.4651(3)
O11_2 O 0.81475(19) 0.89270(18) 0.4628(4)
O12_2 O 0.9146(3) 0.8325(2) 0.2260(4)
O22_2 O 0.6263(2) 0.6480(2) 0.3033(4)
C37_5 C 1.0000 1.0000 0.8970(6)
C50_2 C 0.8175(4) 0.6670(3) 0.9724(6)
C51_2 C 0.9486(5) 0.6871(5) 0.7568(8)
H42_2 H 0.9645 0.7249 0.7642
H43_2 H 0.9603 0.6734 0.6792
H44_2 H 0.9723 0.6647 0.8155
C52_2 C 0.8679(4) 0.6844(4) 0.7751(6)
H45_2 H 0.8527 0.6457 0.7641
C53_2 C 0.8280(4) 0.7196(4) 0.6844(6)
N10_2 N 0.8494(4) 0.7006(3) 0.8953(5)
H67_2 H 0.8598 0.7339 0.9177
O13_2 O 0.7931(3) 0.7605(3) 0.7191(4)
O14_2 O 0.8353(3) 0.7048(3) 0.5781(4)
O15_2 O 0.7983(4) 0.6215(3) 0.9486(5)
C27_2 C 0.8138(4) 0.0234(3) 0.2115(5)
H22_2 H 0.8274 0.0556 0.2513
C28_2 C 0.8101(4) 0.0259(3) 0.0921(5)
H23_2 H 0.8190 0.0591 0.0525
C19_2 C 0.7633(4) 0.0208(3) 0.8364(5)
H16_2 H 0.7412 0.0504 0.8748
C20_2 C 0.7663(3) 0.0192(4) 0.7154(5)
H17_2 H 0.7458 0.0485 0.6735
C24_2 C 0.7930(3) 0.9784(3) 0.0299(5)
C25_2 C 0.7791(4) 0.9323(4) 0.0942(5)
H20_2 H 0.7680 0.8991 0.0560
C26_2 C 0.7813(4) 0.9342(3) 0.2176(5)
H21_2 H 0.7693 0.9024 0.2601
C21_2 C 0.8242(4) 0.9373(3) 0.7193(5)
H18_2 H 0.8462 0.9082 0.6789
C22_2 C 0.8229(4) 0.9346(3) 0.8402(5)
H19_2 H 0.8416 0.9041 0.8804
C23_2 C 0.7929(3) 0.9785(3) 0.9003(5)
loop_
_geom_bond_atom_site_label_1
_geom_bond_atom_site_label_2
_geom_bond_site_symmetry_1
_geom_bond_site_symmetry_2
C12 H8 1_555 1_555
H9 C12 1_555 1_555
H10 C12 1_555 1_555
C13 C12 1_555 1_555
H11 C13 1_555 1_555
C14 C13 1_555 1_555
C38 C37 1_555 1_555
H30 C38 1_555 1_555
C39 C38 1_555 1_555
H31 C39 1_555 1_555
N2 C11 1_555 1_555
H33 N2 1_555 1_555
N8 C39 1_555 1_555
O4 C14 1_555 1_555
O5 C14 1_555 1_555
O6 C11 1_555 1_555
Co3 N8 1_555 1_555
Co11 N12 1_555 1_555
C51 H42 1_555 1_555
H43 C51 1_555 1_555
H44 C51 1_555 1_555
C52 C51 1_555 1_555
H45 C52 1_555 1_555
C53 C52 1_555 1_555
C58 H50 1_555 1_555
C59 C58 1_555 1_555
H51 C59 1_555 1_555
C60 H52 1_555 1_555
C61 C60 1_555 1_555
H53 C61 1_555 1_555
C62 C58 1_555 1_555
C75 C37 1_555 1_555
H64 C75 1_555 1_555
C76 N8 1_555 1_555
H65 C76 1_555 1_555
N10 C50 1_555 1_555
H67 N10 1_555 1_555
N12 C59 1_555 1_555
O13 C53 1_555 1_555
O14 C53 1_555 1_555
O15 C50 1_555 1_555
C13 N2 1_555 1_555
C52 N10 1_555 1_555
C60 N12 1_555 1_555
C61 C62 1_555 1_555
C75 C76 1_555 1_555
Co3 N7 1_555 1_555
C1 C2 1_555 1_555
C2 H1 1_555 1_555
C3 C2 1_555 1_555
H2 C3 1_555 1_555
H3 C3 1_555 1_555
H4 C3 1_555 1_555
C4 C5 1_555 1_555
C5 C6 1_555 1_555
C6 H5 1_555 1_555
C7 C6 1_555 1_555
C8 C7 1_555 1_555
H6 C8 1_555 1_555
C9 C8 1_555 1_555
C10 C5 1_555 1_555
H7 C10 1_555 1_555
C15 C9 1_555 1_555
C16 H12 1_555 1_555
H13 C16 1_555 1_555
H14 C16 1_555 1_555
C17 C16 1_555 1_555
H15 C17 1_555 1_555
C18 C17 1_555 1_555
C29 H24 1_555 1_555
C30 C29 1_555 1_555
H25 C30 1_555 1_555
C31 C30 1_555 1_555
C32 C31 1_555 1_555
H26 C32 1_555 1_555
C33 C32 1_555 1_555
H27 C33 1_555 1_555
C34 H28 1_555 1_555
C35 C34 1_555 1_555
H29 C35 1_555 1_555
C36 C35 1_555 1_555
N1 C2 1_555 1_555
H32 N1 1_555 1_555
N3 C15 1_555 1_555
H34 N3 1_555 1_555
N6 Co11 1_555 1_555
N7 C34 1_555 1_555
O1 Co3 1_555 1_555
O2 Co11 1_555 1_555
O3 C4 1_555 1_555
O7 C18 1_555 1_555
O8 C18 1_555 1_555
O9 C15 1_555 1_555
Co5_2 O8 1_555 1_555
Co5_3 O19 1_555 1_555
Co6 N13 1_555 1_555
C40 C41 1_555 1_555
C41 H35 1_555 1_555
C42 C41 1_555 1_555
H36 C42 1_555 1_555
H37 C42 1_555 1_555
H38 C42 1_555 1_555
C43 C44 1_555 1_555
C44 C45 1_555 1_555
C45 H39 1_555 1_555
C46 C45 1_555 1_555
C47 C46 1_555 1_555
H40 C47 1_555 1_555
C48 C47 1_555 1_555
C49 C44 1_555 1_555
H41 C49 1_555 1_555
C54 C48 1_555 1_555
C55 H46 1_555 1_555
H47 C55 1_555 1_555
H48 C55 1_555 1_555
C56 C55 1_555 1_555
H49 C56 1_555 1_555
C57 C56 1_555 1_555
C64 C63 1_555 1_555
H54 C64 1_555 1_555
C65 C64 1_555 1_555
H55 C65 1_555 1_555
C66 H56 1_555 1_555
C67 C63 1_555 1_555
H57 C67 1_555 1_555
C73 N7 1_555 1_555
H62 C73 1_555 1_555
C74 C36 1_555 1_555
H63 C74 1_555 1_555
N9 C41 1_555 1_555
H66 N9 1_555 1_555
N11 C54 1_555 1_555
H68 N11 1_555 1_555
N14 Co11 1_555 1_555
N15 Co6 1_555 1_555
N17 Co6 1_555 1_555
O10 Co3 1_555 1_555
O11 Co6 1_555 1_555
O12 C43 1_555 1_555
O16 C57 1_555 1_555
O17 Co11 1_555 1_555
O18 Co6 1_555 1_555
O19 C57 1_555 1_555
O20 Co3 1_555 1_555
O21 Co3 1_555 1_555
O22 C54 1_555 1_555
Co11 O1 1_555 1_555
C1 O1 1_555 1_555
C1 O2 1_555 1_555
C4 N1 1_555 1_555
C9 C10 1_555 1_555
C17 N3 1_555 1_555
C29 N6 1_555 1_555
C33 N6 1_555 1_555
Co6 O10 1_555 1_555
C40 O10 1_555 1_555
C40 O11 1_555 1_555
C43 N9 1_555 1_555
C48 C49 1_555 1_555
C56 N11 1_555 1_555
C65 N14 1_555 1_555
C66 C67 1_555 1_555
C66 N14 1_555 1_555
C73 C74 1_555 1_555
C68 H58 1_555 1_555
C69 C68 1_555 1_555
H59 C69 1_555 1_555
C71 C70 1_555 1_555
H60 C71 1_555 1_555
C72 C71 1_555 1_555
H61 C72 1_555 1_555
N17 C68 1_555 1_555
C69 C70 1_555 1_555
C72 N17 1_555 1_555
C58_2 H50_2 1_555 1_555
C59_2 C58_2 1_555 1_555
H51_2 C59_2 1_555 1_555
C60_2 H52_2 1_555 1_555
C61_2 C60_2 1_555 1_555
H53_2 C61_2 1_555 1_555
C62_2 C58_2 1_555 1_555
N13 C59_2 1_555 1_555
C60_2 N13 1_555 1_555
C61_2 C62_2 1_555 1_555
C64_2 C63_2 1_555 1_555
H54_2 C64_2 1_555 1_555
C65_2 C64_2 1_555 1_555
H55_2 C65_2 1_555 1_555
C66_2 H56_2 1_555 1_555
C67_2 C63_2 1_555 1_555
H57_2 C67_2 1_555 1_555
C65_2 N15 1_555 1_555
C66_2 C67_2 1_555 1_555
C66_2 N15 1_555 1_555
C25 C24 1_555 1_555
H20 C25 1_555 1_555
C26 C25 1_555 1_555
H21 C26 1_555 1_555
N5 C26 1_555 1_555
Co8 N5 1_555 1_555
Co5 N7_2 1_555 1_555
Co8 N4 1_555 1_555
C1_2 C2_2 1_555 1_555
C2_2 H1_2 1_555 1_555
C3_2 C2_2 1_555 1_555
H2_2 C3_2 1_555 1_555
H3_2 C3_2 1_555 1_555
H4_2 C3_2 1_555 1_555
C4_2 C5_2 1_555 1_555
C5_2 C6_2 1_555 1_555
C6_2 H5_2 1_555 1_555
C7_2 C6_2 1_555 1_555
C8_2 C7_2 1_555 1_555
H6_2 C8_2 1_555 1_555
C9_2 C8_2 1_555 1_555
C10_2 C5_2 1_555 1_555
H7_2 C10_2 1_555 1_555
C15_2 C9_2 1_555 1_555
C16_2 H12_2 1_555 1_555
H13_2 C16_2 1_555 1_555
H14_2 C16_2 1_555 1_555
C17_2 C16_2 1_555 1_555
H15_2 C17_2 1_555 1_555
C18_2 C17_2 1_555 1_555
C21 H18 1_555 1_555
C22 C21 1_555 1_555
H19 C22 1_555 1_555
C29_2 H24_2 1_555 1_555
C30_2 C29_2 1_555 1_555
H25_2 C30_2 1_555 1_555
C31_2 C30_2 1_555 1_555
C34_2 H28_2 1_555 1_555
C35_2 C34_2 1_555 1_555
H29_2 C35_2 1_555 1_555
C36_2 C35_2 1_555 1_555
N1_2 C2_2 1_555 1_555
H32_2 N1_2 1_555 1_555
N3_2 C15_2 1_555 1_555
H34_2 N3_2 1_555 1_555
N6_2 Co8 1_555 1_555
N7_2 C34_2 1_555 1_555
O1_2 Co5 1_555 1_555
O2_2 Co8 1_555 1_555
O3_2 C4_2 1_555 1_555
O17 C18_2 1_555 1_555
O20 C18_2 1_555 1_555
O9_2 C15_2 1_555 1_555
H60_2 C71_2 1_555 1_555
C72_2 C71_2 1_555 1_555
H61_2 C72_2 1_555 1_555
N18 Co5 1_555 1_555
Co8 O1_2 1_555 1_555
C1_2 O1_2 1_555 1_555
C1_2 O2_2 1_555 1_555
C4_2 N1_2 1_555 1_555
C9_2 C10_2 1_555 1_555
C17_2 N3_2 1_555 1_555
C21 N4 1_555 1_555
C22 C23 1_555 1_555
C29_2 N6_2 1_555 1_555
C12_2 H8_2 1_555 1_555
H9_2 C12_2 1_555 1_555
H10_2 C12_2 1_555 1_555
C13_2 C12_2 1_555 1_555
H11_2 C13_2 1_555 1_555
C14_2 C13_2 1_555 1_555
N2_2 C11_2 1_555 1_555
H33_2 N2_2 1_555 1_555
O4_2 C14_2 1_555 1_555
O5_2 C14_2 1_555 1_555
O6_2 C11_2 1_555 1_555
C13_2 N2_2 1_555 1_555
C27 H22 1_555 1_555
H23 C28 1_555 1_555
C27 C28 1_555 1_555
Co5_2 N7_3 1_555 1_555
C19 H16 1_555 1_555
C20 C19 1_555 1_555
H17 C20 1_555 1_555
H26_2 C32_2 1_555 1_555
C33_2 C32_2 1_555 1_555
H27_2 C33_2 1_555 1_555
Co10 N16 1_555 1_555
C68_2 H58_2 1_555 1_555
C69_2 C68_2 1_555 1_555
H59_2 C69_2 1_555 1_555
N16 C68_2 1_555 1_555
N18_2 Co5_2 1_555 1_555
C69_2 C70_2 1_555 1_555
C75_2 C37_3 1_555 1_555
H64_2 C75_2 1_555 1_555
C76_2 N18_2 1_555 1_555
H65_2 C76_2 1_555 1_555
C75_2 C76_2 1_555 1_555
Co5_3 N7_4 1_555 1_555
N18_3 Co5_3 1_555 1_555
C38_2 C37_4 1_555 1_555
H30_2 C38_2 1_555 1_555
C39_2 C38_2 1_555 1_555
H31_2 C39_2 1_555 1_555
N18_3 C39_2 1_555 1_555
Co5_4 N7_5 1_555 1_555
Co10 N13_2 1_555 1_555
C40_2 C41_2 1_555 1_555
C41_2 H35_2 1_555 1_555
C42_2 C41_2 1_555 1_555
H36_2 C42_2 1_555 1_555
H37_2 C42_2 1_555 1_555
H38_2 C42_2 1_555 1_555
C43_2 C44_2 1_555 1_555
C44_2 C45_2 1_555 1_555
C45_2 H39_2 1_555 1_555
C46_2 C45_2 1_555 1_555
C47_2 C46_2 1_555 1_555
H40_2 C47_2 1_555 1_555
C48_2 C47_2 1_555 1_555
C49_2 C44_2 1_555 1_555
H41_2 C49_2 1_555 1_555
C54_2 C48_2 1_555 1_555
C55_2 H46_2 1_555 1_555
H47_2 C55_2 1_555 1_555
H48_2 C55_2 1_555 1_555
C56_2 C55_2 1_555 1_555
H49_2 C56_2 1_555 1_555
C57_2 C56_2 1_555 1_555
C73_2 N7_5 1_555 1_555
H62_2 C73_2 1_555 1_555
C74_2 C36_5 1_555 1_555
H63_2 C74_2 1_555 1_555
N9_2 C41_2 1_555 1_555
H66_2 N9_2 1_555 1_555
N11_2 C54_2 1_555 1_555
H68_2 N11_2 1_555 1_555
N15_2 Co10 1_555 1_555
N18_4 Co5_4 1_555 1_555
O10_2 Co5_4 1_555 1_555
O11_2 Co10 1_555 1_555
O12_2 C43_2 1_555 1_555
O18 C57_2 1_555 1_555
O21 C57_2 1_555 1_555
O22_2 C54_2 1_555 1_555
Co10 O10_2 1_555 1_555
C40_2 O10_2 1_555 1_555
C40_2 O11_2 1_555 1_555
C43_2 N9_2 1_555 1_555
C48_2 C49_2 1_555 1_555
C56_2 N11_2 1_555 1_555
C73_2 C74_2 1_555 1_555
C51_2 H42_2 1_555 1_555
H43_2 C51_2 1_555 1_555
H44_2 C51_2 1_555 1_555
C52_2 C51_2 1_555 1_555
H45_2 C52_2 1_555 1_555
C53_2 C52_2 1_555 1_555
N10_2 C50_2 1_555 1_555
H67_2 N10_2 1_555 1_555
O13_2 C53_2 1_555 1_555
O14_2 C53_2 1_555 1_555
O15_2 C50_2 1_555 1_555
C52_2 N10_2 1_555 1_555
C27_2 H22_2 1_555 1_555
H23_2 C28_2 1_555 1_555
C27_2 C28_2 1_555 1_555
C19_2 H16_2 1_555 1_555
C20_2 C19_2 1_555 1_555
H17_2 C20_2 1_555 1_555
C25_2 C24_2 1_555 1_555
H20_2 C25_2 1_555 1_555
C26_2 C25_2 1_555 1_555
H21_2 C26_2 1_555 1_555
N15_2 C26_2 1_555 1_555
C21_2 H18_2 1_555 1_555
C22_2 C21_2 1_555 1_555
H19_2 C22_2 1_555 1_555
C21_2 N13_2 1_555 1_555
C22_2 C23_2 1_555 1_555

#END
