
###############################################################################
#
# This file contains modified crystal structure data generated from the
# MOF subset of the Cambridge Structural Database (CSD) v543 
# hosted by the Cambridge Crystallographic Data Centre (CCDC).
#
# This work is licensed under the Creative Commons
# Attribution-NonCommercial-ShareAlike 4.0 International License.
# To view a copy of this license, visit
# http://creativecommons.org/licenses/by-nc-sa/4.0/
# or send a letter to
# Creative Commons, PO Box 1866, Mountain View, CA 94042, USA.
#
# CIF created using the CSD Python API on 29 September 2022
# The structure has been converted into the P1 space group
# The structure has a 3D framework
# The original CSD entry ALURAB is in the orthorhombic crystal system
# The original CSD entry ALURAB is in a Sohncke space group
# The framework has been calculated to contain at least 10.0% void space
# The void calculation uses a probe of radius 1.32A, grid spacing 0.4
# The framework is charged, counterions have been retained in the structure
#
###############################################################################

data_ALURAB
_chemical_formula_moiety         '(C158 H136 Co9 N32 O36 5+)n'
_symmetry_cell_setting           triclinic
_symmetry_space_group_name_H-M   'P 1'
_symmetry_Int_Tables_number      1
_space_group_name_Hall           'P 1'
loop_
_symmetry_equiv_pos_site_id
_symmetry_equiv_pos_as_xyz
1 x,y,z
_cell_length_a                   18.657(4)
_cell_length_b                   24.380(5)
_cell_length_c                   11.400(2)
_cell_angle_alpha                90
_cell_angle_beta                 90
_cell_angle_gamma                90
_cell_volume                     5185.38
loop_
_atom_site_label
_atom_site_type_symbol
_atom_site_fract_x
_atom_site_fract_y
_atom_site_fract_z
Co4 Co -0.0000 0.0000 0.54014(10)
Co9 Co 0.30028(4) 0.51869(3) 0.46481(7)
C68 C 0.1456(4) 0.5528(3) 0.4812(11)
H58 H 0.1671 0.5864 0.5012
C69 C 0.0725(4) 0.5509(3) 0.4773(11)
H59 H 0.0452 0.5824 0.4938
C70 C 0.0396(3) 0.5024(3) 0.4491(7)
C71 C 0.0836(4) 0.4581(3) 0.4278(10)
H60 H 0.0638 0.4237 0.4097
C72 C 0.1565(4) 0.4646(3) 0.4333(9)
H61 H 0.1854 0.4338 0.4175
N16 N 0.1886(2) 0.51096(19) 0.4591(5)
Co4_2 Co 0.0000 1.0000 0.54014(10)
Co10 Co 0.19972(4) 0.01869(3) 0.53519(7)
C24 C 0.7063(3) 0.4793(3) 0.0300(6)
C25 C 0.7218(4) 0.4329(3) 0.0946(6)
H20 H 0.7342 0.4002 0.0561
C26 C 0.7190(4) 0.4344(3) 0.2164(6)
H21 H 0.7310 0.4026 0.2589
C27 C 0.6856(4) 0.5242(3) 0.2116(6)
H22 H 0.6725 0.5563 0.2519
C28 C 0.6885(4) 0.5265(3) 0.0924(6)
H23 H 0.6787 0.5595 0.0527
N5 N 0.7000(3) 0.4797(2) 0.2750(4)
Co7 Co 0.69972(4) 0.48131(3) 0.46481(7)
Co1 Co 0.5000 0.5000 0.45986(10)
C1 C 0.6175(3) 0.3985(2) 0.4622(6)
C2 C 0.5706(3) 0.3473(2) 0.4666(6)
H1 H 0.5254 0.3550 0.4244
C3 C 0.5525(4) 0.3320(3) 0.5935(6)
H2 H 0.5954 0.3191 0.6329
H3 H 0.5166 0.3032 0.5939
H4 H 0.5339 0.3639 0.6340
C4 C 0.6146(3) 0.2983(3) 0.2942(6)
C5 C 0.6612(4) 0.2530(3) 0.2479(6)
C6 C 0.6502(4) 0.2314(3) 0.1376(6)
H5 H 0.6112 0.2436 0.0924
C7 C 0.6952(4) 0.1924(3) 0.0930(6)
C8 C 0.7524(4) 0.1728(3) 0.1595(6)
H6 H 0.7842 0.1468 0.1276
C9 C 0.7622(4) 0.1921(3) 0.2744(6)
C10 C 0.7171(4) 0.2341(2) 0.3171(6)
H7 H 0.7250 0.2491 0.3919
C15 C 0.8208(4) 0.1689(3) 0.3478(6)
C16 C 0.8527(4) 0.1711(3) 0.6669(6)
H12 H 0.8064 0.1570 0.6912
H13 H 0.8520 0.2109 0.6701
H14 H 0.8896 0.1573 0.7189
C17 C 0.8684(3) 0.1525(2) 0.5410(6)
H15 H 0.9144 0.1687 0.5150
C18 C 0.8741(3) 0.0898(2) 0.5367(5)
C19 C 0.7368(4) 0.5218(3) 0.8346(5)
H16 H 0.7593 0.5514 0.8725
C20 C 0.7340(3) 0.5198(3) 0.7141(5)
H17 H 0.7550 0.5487 0.6718
C21 C 0.6755(4) 0.4382(3) 0.7181(6)
H18 H 0.6539 0.4087 0.6786
C22 C 0.6768(4) 0.4364(3) 0.8384(6)
H19 H 0.6579 0.4060 0.8785
C23 C 0.7061(3) 0.4797(3) 0.9000(5)
C29 C 0.8544(4) 0.4472(3) 0.4812(11)
H24 H 0.8329 0.4136 0.5012
C30 C 0.9275(4) 0.4491(3) 0.4773(11)
H25 H 0.9548 0.4176 0.4938
C31 C 0.9604(3) 0.4976(3) 0.4491(7)
C32 C 0.9164(4) 0.5419(3) 0.4278(10)
H26 H 0.9362 0.5763 0.4097
C33 C 0.8435(4) 0.5354(3) 0.4333(9)
H27 H 0.8146 0.5662 0.4175
C34 C 0.5103(3) 0.4537(2) 0.2100(5)
H28 H 0.5180 0.4208 0.2509
C35 C 0.5100(4) 0.4525(3) 0.0910(5)
H29 H 0.5168 0.4189 0.0522
C36 C 0.5000 0.5000 0.0252(8)
N1 N 0.6064(3) 0.3017(2) 0.4090(4)
H32 H 0.6232 0.2753 0.4524
N3 N 0.8115(3) 0.17191(19) 0.4654(5)
H34 H 0.7721 0.1852 0.4949
N4 N 0.7028(3) 0.4789(2) 0.6527(4)
N6 N 0.8114(2) 0.48904(19) 0.4591(5)
N7 N 0.5000 0.5000 0.2719(6)
O1 O 0.59072(19) 0.44628(15) 0.4644(4)
O2 O 0.6857(2) 0.39360(15) 0.4617(4)
O3 O 0.5869(3) 0.3324(2) 0.2264(4)
O7 O 0.8168(2) 0.06276(16) 0.5287(4)
O8 O 0.9363(2) 0.06982(15) 0.5471(4)
O9 O 0.8739(2) 0.1483(2) 0.3042(4)
Co4_3 Co 1.0000 0.0000 0.54014(10)
C40 C 0.3825(3) 0.6015(2) 0.4622(6)
C41 C 0.4294(3) 0.6527(2) 0.4666(6)
H35 H 0.4746 0.6450 0.4244
C42 C 0.4475(4) 0.6680(3) 0.5935(6)
H36 H 0.4046 0.6809 0.6329
H37 H 0.4834 0.6968 0.5939
H38 H 0.4661 0.6361 0.6340
C43 C 0.3854(3) 0.7017(3) 0.2942(6)
C44 C 0.3388(4) 0.7470(3) 0.2479(6)
C45 C 0.3498(4) 0.7686(3) 0.1376(6)
H39 H 0.3888 0.7564 0.0924
C46 C 0.3048(4) 0.8076(3) 0.0930(6)
C47 C 0.2476(4) 0.8272(3) 0.1595(6)
H40 H 0.2158 0.8532 0.1276
C48 C 0.2378(4) 0.8079(3) 0.2744(6)
C49 C 0.2829(4) 0.7659(2) 0.3171(6)
H41 H 0.2750 0.7509 0.3919
C54 C 0.1792(4) 0.8311(3) 0.3478(6)
C55 C 0.1473(4) 0.8289(3) 0.6669(6)
H46 H 0.1936 0.8430 0.6912
H47 H 0.1480 0.7891 0.6701
H48 H 0.1104 0.8427 0.7189
C56 C 0.1316(3) 0.8475(2) 0.5410(6)
H49 H 0.0856 0.8313 0.5150
C57 C 0.1259(3) 0.9102(2) 0.5367(5)
C73 C 0.4897(3) 0.5463(2) 0.2100(5)
H62 H 0.4820 0.5792 0.2509
C74 C 0.4900(4) 0.5475(3) 0.0910(5)
H63 H 0.4832 0.5811 0.0522
N9 N 0.3936(3) 0.6983(2) 0.4090(4)
H66 H 0.3768 0.7247 0.4524
N11 N 0.1885(3) 0.82809(19) 0.4654(5)
H68 H 0.2279 0.8148 0.4949
N13 N 0.2972(3) 0.5211(2) 0.6527(4)
N15 N 0.3000(3) 0.5203(2) 0.2750(4)
N18 N 0.5000 0.5000 0.6489(6)
O10 O 0.40928(19) 0.55372(15) 0.4644(4)
O11 O 0.3143(2) 0.60640(15) 0.4617(4)
O12 O 0.4131(3) 0.6676(2) 0.2264(4)
O16 O 0.1832(2) 0.93724(16) 0.5287(4)
O17 O 0.6832(2) 0.56276(16) 0.4713(4)
O18 O 0.3168(2) 0.43724(16) 0.4713(4)
O19 O 0.0637(2) 0.93018(15) 0.5471(4)
O20 O 0.5637(2) 0.56982(15) 0.4529(4)
O21 O 0.4363(2) 0.43018(15) 0.4529(4)
O22 O 0.1261(2) 0.8517(2) 0.3042(4)
C11 C 0.6835(4) 0.1691(3) 0.9736(7)
C12 C 0.5523(5) 0.1873(5) 0.7571(8)
H8 H 0.5355 0.2240 0.7745
H9 H 0.5291 0.1613 0.8092
H10 H 0.5409 0.1782 0.6764
C13 C 0.6325(4) 0.1847(3) 0.7746(6)
H11 H 0.6476 0.1461 0.7636
C14 C 0.6721(4) 0.2193(4) 0.6851(7)
C37 C 0.5000 0.5000 0.8964(8)
C38 C 0.4656(4) 0.4592(2) 0.8328(6)
H30 H 0.4415 0.4306 0.8717
C39 C 0.4671(3) 0.4611(3) 0.7120(5)
H31 H 0.4433 0.4330 0.6709
N2 N 0.6507(4) 0.2007(3) 0.8955(5)
H33 H 0.6390 0.2337 0.9176
O4 O 0.7063(3) 0.2602(2) 0.7199(5)
O5 O 0.6655(3) 0.2054(3) 0.5787(4)
O6 O 0.7011(4) 0.1211(2) 0.9491(5)
C50 C 0.3165(4) 0.8309(3) 0.9736(7)
C51 C 0.4477(5) 0.8127(5) 0.7571(8)
H42 H 0.4645 0.7760 0.7745
H43 H 0.4709 0.8387 0.8092
H44 H 0.4591 0.8218 0.6764
C52 C 0.3675(4) 0.8153(3) 0.7746(6)
H45 H 0.3524 0.8539 0.7636
C53 C 0.3279(4) 0.7807(4) 0.6851(7)
C75 C 0.5344(4) 0.5408(2) 0.8328(6)
H64 H 0.5585 0.5694 0.8717
C76 C 0.5329(3) 0.5389(3) 0.7120(5)
H65 H 0.5567 0.5670 0.6709
N10 N 0.3493(4) 0.7993(3) 0.8955(5)
H67 H 0.3610 0.7663 0.9176
O13 O 0.2937(3) 0.7398(2) 0.7199(5)
O14 O 0.3345(3) 0.7946(3) 0.5787(4)
O15 O 0.2989(4) 0.8789(2) 0.9491(5)
Co4_4 Co 1.0000 1.0000 0.54014(10)
Co8 Co 0.80028(4) 0.98131(3) 0.53519(7)
C24_2 C 0.2937(3) 0.5207(3) 0.0300(6)
C25_2 C 0.2782(4) 0.5671(3) 0.0946(6)
H20_2 H 0.2658 0.5998 0.0561
C26_2 C 0.2810(4) 0.5656(3) 0.2164(6)
H21_2 H 0.2690 0.5974 0.2589
C27_2 C 0.3144(4) 0.4758(3) 0.2116(6)
H22_2 H 0.3275 0.4437 0.2519
C28_2 C 0.3115(4) 0.4735(3) 0.0924(6)
H23_2 H 0.3213 0.4405 0.0527
C19_2 C 0.2632(4) 0.4782(3) 0.8346(5)
H16_2 H 0.2407 0.4486 0.8725
C20_2 C 0.2660(3) 0.4802(3) 0.7141(5)
H17_2 H 0.2450 0.4513 0.6718
C21_2 C 0.3245(4) 0.5618(3) 0.7181(6)
H18_2 H 0.3461 0.5913 0.6786
C22_2 C 0.3232(4) 0.5636(3) 0.8384(6)
H19_2 H 0.3421 0.5940 0.8785
C23_2 C 0.2939(3) 0.5203(3) 0.9000(5)
C37_2 C 0.0000 0.0000 0.1036(8)
N8 N 0.0000 0.0000 0.3511(6)
C50_2 C 0.1835(4) 0.3309(3) 0.0264(7)
C51_2 C 0.0523(5) 0.3127(5) 0.2429(8)
H42_2 H 0.0355 0.2760 0.2255
H43_2 H 0.0291 0.3387 0.1908
H44_2 H 0.0409 0.3218 0.3236
C52_2 C 0.1325(4) 0.3153(3) 0.2254(6)
H45_2 H 0.1476 0.3539 0.2364
C53_2 C 0.1721(4) 0.2807(4) 0.3149(7)
N10_2 N 0.1507(4) 0.2993(3) 0.1045(5)
H67_2 H 0.1390 0.2663 0.0824
O13_2 O 0.2063(3) 0.2398(2) 0.2801(5)
O14_2 O 0.1655(3) 0.2946(3) 0.4213(4)
O15_2 O 0.2011(4) 0.3789(2) 0.0509(5)
C36_2 C 0.0000 0.0000 0.9748(8)
N7_2 N 0.0000 0.0000 0.7281(6)
C40_2 C 0.1175(3) 0.1015(2) 0.5378(6)
C41_2 C 0.0706(3) 0.1527(2) 0.5334(6)
H35_2 H 0.0254 0.1450 0.5756
C42_2 C 0.0525(4) 0.1680(3) 0.4065(6)
H36_2 H 0.0954 0.1809 0.3671
H37_2 H 0.0166 0.1968 0.4061
H38_2 H 0.0339 0.1361 0.3660
C43_2 C 0.1146(3) 0.2017(3) 0.7058(6)
C44_2 C 0.1612(4) 0.2470(3) 0.7521(6)
C45_2 C 0.1502(4) 0.2686(3) 0.8624(6)
H39_2 H 0.1112 0.2564 0.9076
C46_2 C 0.1952(4) 0.3076(3) 0.9070(6)
C47_2 C 0.2524(4) 0.3272(3) 0.8405(6)
H40_2 H 0.2842 0.3532 0.8724
C48_2 C 0.2622(4) 0.3079(3) 0.7256(6)
C49_2 C 0.2171(4) 0.2659(2) 0.6829(6)
H41_2 H 0.2250 0.2509 0.6081
C54_2 C 0.3208(4) 0.3311(3) 0.6522(6)
C55_2 C 0.3527(4) 0.3289(3) 0.3331(6)
H46_2 H 0.3064 0.3430 0.3088
H47_2 H 0.3520 0.2891 0.3299
H48_2 H 0.3896 0.3427 0.2811
C56_2 C 0.3684(3) 0.3475(2) 0.4590(6)
H49_2 H 0.4144 0.3313 0.4850
C57_2 C 0.3741(3) 0.4102(2) 0.4633(5)
C73_2 C 0.0103(3) 0.0463(2) 0.7900(5)
H62_2 H 0.0180 0.0792 0.7491
C74_2 C 0.0100(4) 0.0475(3) 0.9090(5)
H63_2 H 0.0168 0.0811 0.9478
N9_2 N 0.1064(3) 0.1983(2) 0.5910(4)
H66_2 H 0.1232 0.2247 0.5476
N11_2 N 0.3115(3) 0.32809(19) 0.5346(5)
H68_2 H 0.2721 0.3148 0.5051
N13_2 N 0.2028(3) 0.0211(2) 0.3473(4)
N15_2 N 0.2000(3) 0.0203(2) 0.7250(4)
N17 N 0.3114(2) 0.01096(19) 0.5409(5)
O10_2 O 0.09072(19) 0.05372(15) 0.5356(4)
O11_2 O 0.1857(2) 0.10640(15) 0.5383(4)
O12_2 O 0.0869(3) 0.1676(2) 0.7736(4)
O22_2 O 0.3739(2) 0.3517(2) 0.6958(4)
C37_3 C 0.0000 1.0000 0.1036(8)
C38_2 C 0.0344(4) 0.9592(2) 0.1672(6)
H30_2 H 0.0585 0.9306 0.1283
C39_2 C 0.0329(3) 0.9611(3) 0.2880(5)
H31_2 H 0.0567 0.9330 0.3291
N8_2 N 0.0000 1.0000 0.3511(6)
C36_3 C 0.0000 1.0000 0.9748(8)
N7_3 N 0.0000 1.0000 0.7281(6)
C37_4 C 1.0000 0.0000 0.1036(8)
N8_3 N 1.0000 0.0000 0.3511(6)
C58 C 0.7632(4) 0.0218(3) 0.1654(5)
H50 H 0.7407 0.0514 0.1275
C59 C 0.7660(3) 0.0198(3) 0.2859(5)
H51 H 0.7450 0.0487 0.3282
C75_2 C 0.9656(4) 0.0408(2) 0.1672(6)
H64_2 H 0.9415 0.0694 0.1283
C76_2 C 0.9671(3) 0.0389(3) 0.2880(5)
H65_2 H 0.9433 0.0670 0.3291
C32_2 C 0.5836(4) 0.0419(3) 0.5722(10)
H26_2 H 0.5638 0.0763 0.5903
C33_2 C 0.6565(4) 0.0354(3) 0.5667(9)
H27_2 H 0.6854 0.0662 0.5825
C36_4 C 1.0000 0.0000 0.9748(8)
N7_4 N 1.0000 0.0000 0.7281(6)
C66 C 0.8144(4) 0.0242(3) 0.7884(6)
H56 H 0.8275 0.0563 0.7481
C67 C 0.8115(4) 0.0265(3) 0.9076(6)
H57 H 0.8213 0.0595 0.9473
C68_2 C 0.3544(4) 0.0528(3) 0.5188(11)
H58_2 H 0.3329 0.0864 0.4988
C69_2 C 0.4275(4) 0.0509(3) 0.5227(11)
H59_2 H 0.4548 0.0824 0.5062
C70_2 C 0.4604(3) 0.0024(3) 0.5509(7)
C11_2 C 0.8165(4) 0.6691(3) 0.0264(7)
C12_2 C 0.9477(5) 0.6873(5) 0.2429(8)
H8_2 H 0.9645 0.7240 0.2255
H9_2 H 0.9709 0.6613 0.1908
H10_2 H 0.9591 0.6782 0.3236
C13_2 C 0.8675(4) 0.6847(3) 0.2254(6)
H11_2 H 0.8524 0.6461 0.2364
C14_2 C 0.8279(4) 0.7193(4) 0.3149(7)
C37_5 C 1.0000 1.0000 0.1036(8)
N2_2 N 0.8493(4) 0.7007(3) 0.1045(5)
H33_2 H 0.8610 0.7337 0.0824
N8_4 N 1.0000 1.0000 0.3511(6)
O4_2 O 0.7937(3) 0.7602(2) 0.2801(5)
O5_2 O 0.8345(3) 0.7054(3) 0.4213(4)
O6_2 O 0.7989(4) 0.6211(2) 0.0509(5)
C60 C 0.8245(4) 0.9382(3) 0.2819(6)
H52 H 0.8461 0.9087 0.3214
C61 C 0.8232(4) 0.9364(3) 0.1616(6)
H53 H 0.8421 0.9060 0.1215
C62 C 0.7939(3) 0.9797(3) 0.1000(5)
N12 N 0.7972(3) 0.9789(2) 0.3473(4)
C1_2 C 0.8825(3) 0.8985(2) 0.5378(6)
C2_2 C 0.9294(3) 0.8473(2) 0.5334(6)
H1_2 H 0.9746 0.8550 0.5756
C3_2 C 0.9475(4) 0.8320(3) 0.4065(6)
H2_2 H 0.9046 0.8191 0.3671
H3_2 H 0.9834 0.8032 0.4061
H4_2 H 0.9661 0.8639 0.3660
C4_2 C 0.8854(3) 0.7983(3) 0.7058(6)
C5_2 C 0.8388(4) 0.7530(3) 0.7521(6)
C6_2 C 0.8498(4) 0.7314(3) 0.8624(6)
H5_2 H 0.8888 0.7436 0.9076
C7_2 C 0.8048(4) 0.6924(3) 0.9070(6)
C8_2 C 0.7476(4) 0.6728(3) 0.8405(6)
H6_2 H 0.7158 0.6468 0.8724
C9_2 C 0.7378(4) 0.6921(3) 0.7256(6)
C10_2 C 0.7829(4) 0.7341(2) 0.6829(6)
H7_2 H 0.7750 0.7491 0.6081
C15_2 C 0.6792(4) 0.6689(3) 0.6522(6)
C16_2 C 0.6473(4) 0.6711(3) 0.3331(6)
H12_2 H 0.6936 0.6570 0.3088
H13_2 H 0.6480 0.7109 0.3299
H14_2 H 0.6104 0.6573 0.2811
C17_2 C 0.6316(3) 0.6525(2) 0.4590(6)
H15_2 H 0.5856 0.6687 0.4850
C18_2 C 0.6259(3) 0.5898(2) 0.4633(5)
C29_2 C 0.6456(4) 0.9472(3) 0.5188(11)
H24_2 H 0.6671 0.9136 0.4988
C30_2 C 0.5725(4) 0.9491(3) 0.5227(11)
H25_2 H 0.5452 0.9176 0.5062
C31_2 C 0.5396(3) 0.9976(3) 0.5509(7)
C34_2 C 0.9897(3) 0.9537(2) 0.7900(5)
H28_2 H 0.9820 0.9208 0.7491
C35_2 C 0.9900(4) 0.9525(3) 0.9090(5)
H29_2 H 0.9832 0.9189 0.9478
C36_5 C 1.0000 1.0000 0.9748(8)
N1_2 N 0.8936(3) 0.8017(2) 0.5910(4)
H32_2 H 0.8768 0.7753 0.5476
N3_2 N 0.6885(3) 0.67191(19) 0.5346(5)
H34_2 H 0.7279 0.6852 0.5051
N6_2 N 0.6886(2) 0.98904(19) 0.5409(5)
N7_5 N 1.0000 1.0000 0.7281(6)
O1_2 O 0.90928(19) 0.94628(15) 0.5356(4)
O2_2 O 0.8143(2) 0.89360(15) 0.5383(4)
O3_2 O 0.9131(3) 0.8324(2) 0.7736(4)
O9_2 O 0.6261(2) 0.6483(2) 0.6958(4)
C63 C 0.7937(3) 0.9793(3) 0.9700(6)
C64 C 0.7782(4) 0.9329(3) 0.9054(6)
H54 H 0.7658 0.9002 0.9439
C65 C 0.7810(4) 0.9344(3) 0.7836(6)
H55 H 0.7690 0.9026 0.7411
C71_2 C 0.4164(4) 0.9581(3) 0.5722(10)
H60_2 H 0.4362 0.9237 0.5903
C72_2 C 0.3435(4) 0.9646(3) 0.5667(9)
H61_2 H 0.3146 0.9338 0.5825
N14 N 0.8000(3) 0.9797(2) 0.7250(4)
C60_2 C 0.1755(4) 0.0618(3) 0.2819(6)
H52_2 H 0.1539 0.0913 0.3214
C61_2 C 0.1768(4) 0.0636(3) 0.1616(6)
H53_2 H 0.1579 0.0940 0.1215
C62_2 C 0.2061(3) 0.0203(3) 0.1000(5)
C63_2 C 0.2063(3) 0.0207(3) 0.9700(6)
C64_2 C 0.2218(4) 0.0671(3) 0.9054(6)
H54_2 H 0.2342 0.0998 0.9439
C65_2 C 0.2190(4) 0.0656(3) 0.7836(6)
H55_2 H 0.2310 0.0974 0.7411
C58_2 C 0.2368(4) 0.9782(3) 0.1654(5)
H50_2 H 0.2593 0.9486 0.1275
C59_2 C 0.2340(3) 0.9802(3) 0.2859(5)
H51_2 H 0.2550 0.9513 0.3282
C66_2 C 0.1856(4) 0.9758(3) 0.7884(6)
H56_2 H 0.1725 0.9437 0.7481
C67_2 C 0.1885(4) 0.9735(3) 0.9076(6)
H57_2 H 0.1787 0.9405 0.9473
loop_
_geom_bond_atom_site_label_1
_geom_bond_atom_site_label_2
_geom_bond_site_symmetry_1
_geom_bond_site_symmetry_2
Co9 N16 1_555 1_555
C68 H58 1_555 1_555
C69 C68 1_555 1_555
H59 C69 1_555 1_555
C71 C70 1_555 1_555
H60 C71 1_555 1_555
C72 C71 1_555 1_555
H61 C72 1_555 1_555
N16 C68 1_555 1_555
C69 C70 1_555 1_555
C72 N16 1_555 1_555
C25 C24 1_555 1_555
H20 C25 1_555 1_555
C26 C25 1_555 1_555
H21 C26 1_555 1_555
C27 H22 1_555 1_555
C28 C24 1_555 1_555
H23 C28 1_555 1_555
N5 C26 1_555 1_555
Co7 N5 1_555 1_555
C27 C28 1_555 1_555
C27 N5 1_555 1_555
Co1 N7 1_555 1_555
Co7 N4 1_555 1_555
C1 C2 1_555 1_555
C2 H1 1_555 1_555
C3 C2 1_555 1_555
H2 C3 1_555 1_555
H3 C3 1_555 1_555
H4 C3 1_555 1_555
C4 C5 1_555 1_555
C5 C6 1_555 1_555
C6 H5 1_555 1_555
C7 C6 1_555 1_555
C8 C7 1_555 1_555
H6 C8 1_555 1_555
C9 C8 1_555 1_555
C10 C5 1_555 1_555
H7 C10 1_555 1_555
C15 C9 1_555 1_555
C16 H12 1_555 1_555
H13 C16 1_555 1_555
H14 C16 1_555 1_555
C17 C16 1_555 1_555
H15 C17 1_555 1_555
C18 C17 1_555 1_555
C19 H16 1_555 1_555
C20 C19 1_555 1_555
H17 C20 1_555 1_555
C21 H18 1_555 1_555
C22 C21 1_555 1_555
H19 C22 1_555 1_555
C23 C19 1_555 1_555
C29 H24 1_555 1_555
C30 C29 1_555 1_555
H25 C30 1_555 1_555
C31 C30 1_555 1_555
C32 C31 1_555 1_555
H26 C32 1_555 1_555
C33 C32 1_555 1_555
H27 C33 1_555 1_555
C34 H28 1_555 1_555
C35 C34 1_555 1_555
H29 C35 1_555 1_555
C36 C35 1_555 1_555
N1 C2 1_555 1_555
H32 N1 1_555 1_555
N3 C15 1_555 1_555
H34 N3 1_555 1_555
N4 C20 1_555 1_555
N6 Co7 1_555 1_555
N7 C34 1_555 1_555
O1 Co1 1_555 1_555
O2 Co7 1_555 1_555
O3 C4 1_555 1_555
O7 C18 1_555 1_555
O8 C18 1_555 1_555
O9 C15 1_555 1_555
Co4_3 O8 1_555 1_555
Co4_2 O19 1_555 1_555
Co9 N13 1_555 1_555
C40 C41 1_555 1_555
C41 H35 1_555 1_555
C42 C41 1_555 1_555
H36 C42 1_555 1_555
H37 C42 1_555 1_555
H38 C42 1_555 1_555
C43 C44 1_555 1_555
C44 C45 1_555 1_555
C45 H39 1_555 1_555
C46 C45 1_555 1_555
C47 C46 1_555 1_555
H40 C47 1_555 1_555
C48 C47 1_555 1_555
C49 C44 1_555 1_555
H41 C49 1_555 1_555
C54 C48 1_555 1_555
C55 H46 1_555 1_555
H47 C55 1_555 1_555
H48 C55 1_555 1_555
C56 C55 1_555 1_555
H49 C56 1_555 1_555
C57 C56 1_555 1_555
C73 N7 1_555 1_555
H62 C73 1_555 1_555
C74 C36 1_555 1_555
H63 C74 1_555 1_555
N9 C41 1_555 1_555
H66 N9 1_555 1_555
N11 C54 1_555 1_555
H68 N11 1_555 1_555
N15 Co9 1_555 1_555
N18 Co1 1_555 1_555
O10 Co1 1_555 1_555
O11 Co9 1_555 1_555
O12 C43 1_555 1_555
O16 C57 1_555 1_555
O17 Co7 1_555 1_555
O18 Co9 1_555 1_555
O19 C57 1_555 1_555
O20 Co1 1_555 1_555
O21 Co1 1_555 1_555
O22 C54 1_555 1_555
Co7 O1 1_555 1_555
C1 O1 1_555 1_555
C1 O2 1_555 1_555
C4 N1 1_555 1_555
C9 C10 1_555 1_555
C17 N3 1_555 1_555
C21 N4 1_555 1_555
C22 C23 1_555 1_555
C29 N6 1_555 1_555
C33 N6 1_555 1_555
Co9 O10 1_555 1_555
C40 O10 1_555 1_555
C40 O11 1_555 1_555
C43 N9 1_555 1_555
C48 C49 1_555 1_555
C56 N11 1_555 1_555
C73 C74 1_555 1_555
C12 H8 1_555 1_555
H9 C12 1_555 1_555
H10 C12 1_555 1_555
C13 C12 1_555 1_555
H11 C13 1_555 1_555
C14 C13 1_555 1_555
C38 C37 1_555 1_555
H30 C38 1_555 1_555
C39 C38 1_555 1_555
H31 C39 1_555 1_555
N2 C11 1_555 1_555
H33 N2 1_555 1_555
N18 C39 1_555 1_555
O4 C14 1_555 1_555
O5 C14 1_555 1_555
O6 C11 1_555 1_555
C51 H42 1_555 1_555
H43 C51 1_555 1_555
H44 C51 1_555 1_555
C52 C51 1_555 1_555
H45 C52 1_555 1_555
C53 C52 1_555 1_555
C75 C37 1_555 1_555
H64 C75 1_555 1_555
C76 N18 1_555 1_555
H65 C76 1_555 1_555
N10 C50 1_555 1_555
H67 N10 1_555 1_555
O13 C53 1_555 1_555
O14 C53 1_555 1_555
O15 C50 1_555 1_555
C13 N2 1_555 1_555
C52 N10 1_555 1_555
C75 C76 1_555 1_555
C25_2 C24_2 1_555 1_555
H20_2 C25_2 1_555 1_555
C26_2 C25_2 1_555 1_555
H21_2 C26_2 1_555 1_555
C27_2 H22_2 1_555 1_555
C28_2 C24_2 1_555 1_555
H23_2 C28_2 1_555 1_555
N15 C26_2 1_555 1_555
C27_2 C28_2 1_555 1_555
C27_2 N15 1_555 1_555
C19_2 H16_2 1_555 1_555
C20_2 C19_2 1_555 1_555
H17_2 C20_2 1_555 1_555
C21_2 H18_2 1_555 1_555
C22_2 C21_2 1_555 1_555
H19_2 C22_2 1_555 1_555
C23_2 C19_2 1_555 1_555
N13 C20_2 1_555 1_555
C21_2 N13 1_555 1_555
C22_2 C23_2 1_555 1_555
Co4 N8 1_555 1_555
C51_2 H42_2 1_555 1_555
H43_2 C51_2 1_555 1_555
H44_2 C51_2 1_555 1_555
C52_2 C51_2 1_555 1_555
H45_2 C52_2 1_555 1_555
C53_2 C52_2 1_555 1_555
N10_2 C50_2 1_555 1_555
H67_2 N10_2 1_555 1_555
O13_2 C53_2 1_555 1_555
O14_2 C53_2 1_555 1_555
O15_2 C50_2 1_555 1_555
C52_2 N10_2 1_555 1_555
Co4 N7_2 1_555 1_555
Co10 N13_2 1_555 1_555
C40_2 C41_2 1_555 1_555
C41_2 H35_2 1_555 1_555
C42_2 C41_2 1_555 1_555
H36_2 C42_2 1_555 1_555
H37_2 C42_2 1_555 1_555
H38_2 C42_2 1_555 1_555
C43_2 C44_2 1_555 1_555
C44_2 C45_2 1_555 1_555
C45_2 H39_2 1_555 1_555
C46_2 C45_2 1_555 1_555
C47_2 C46_2 1_555 1_555
H40_2 C47_2 1_555 1_555
C48_2 C47_2 1_555 1_555
C49_2 C44_2 1_555 1_555
H41_2 C49_2 1_555 1_555
C54_2 C48_2 1_555 1_555
C55_2 H46_2 1_555 1_555
H47_2 C55_2 1_555 1_555
H48_2 C55_2 1_555 1_555
C56_2 C55_2 1_555 1_555
H49_2 C56_2 1_555 1_555
C57_2 C56_2 1_555 1_555
C73_2 N7_2 1_555 1_555
H62_2 C73_2 1_555 1_555
C74_2 C36_2 1_555 1_555
H63_2 C74_2 1_555 1_555
N9_2 C41_2 1_555 1_555
H66_2 N9_2 1_555 1_555
N11_2 C54_2 1_555 1_555
H68_2 N11_2 1_555 1_555
N15_2 Co10 1_555 1_555
N17 Co10 1_555 1_555
O10_2 Co4 1_555 1_555
O11_2 Co10 1_555 1_555
O12_2 C43_2 1_555 1_555
O18 C57_2 1_555 1_555
O21 C57_2 1_555 1_555
O22_2 C54_2 1_555 1_555
Co10 O10_2 1_555 1_555
C40_2 O10_2 1_555 1_555
C40_2 O11_2 1_555 1_555
C43_2 N9_2 1_555 1_555
C48_2 C49_2 1_555 1_555
C56_2 N11_2 1_555 1_555
C73_2 C74_2 1_555 1_555
C38_2 C37_3 1_555 1_555
H30_2 C38_2 1_555 1_555
C39_2 C38_2 1_555 1_555
H31_2 C39_2 1_555 1_555
N8_2 C39_2 1_555 1_555
Co4_2 N8_2 1_555 1_555
Co4_2 N7_3 1_555 1_555
Co4_3 N8_3 1_555 1_555
C58 H50 1_555 1_555
C59 C58 1_555 1_555
H51 C59 1_555 1_555
C75_2 C37_4 1_555 1_555
H64_2 C75_2 1_555 1_555
C76_2 N8_3 1_555 1_555
H65_2 C76_2 1_555 1_555
C75_2 C76_2 1_555 1_555
Co4_3 N7_4 1_555 1_555
H26_2 C32_2 1_555 1_555
C33_2 C32_2 1_555 1_555
H27_2 C33_2 1_555 1_555
C66 H56 1_555 1_555
H57 C67 1_555 1_555
C68_2 H58_2 1_555 1_555
C69_2 C68_2 1_555 1_555
H59_2 C69_2 1_555 1_555
N17 C68_2 1_555 1_555
C66 C67 1_555 1_555
C69_2 C70_2 1_555 1_555
C12_2 H8_2 1_555 1_555
H9_2 C12_2 1_555 1_555
H10_2 C12_2 1_555 1_555
C13_2 C12_2 1_555 1_555
H11_2 C13_2 1_555 1_555
C14_2 C13_2 1_555 1_555
N2_2 C11_2 1_555 1_555
H33_2 N2_2 1_555 1_555
O4_2 C14_2 1_555 1_555
O5_2 C14_2 1_555 1_555
O6_2 C11_2 1_555 1_555
Co4_4 N8_4 1_555 1_555
Co8 N12 1_555 1_555
C60 H52 1_555 1_555
C61 C60 1_555 1_555
H53 C61 1_555 1_555
C13_2 N2_2 1_555 1_555
C60 N12 1_555 1_555
C61 C62 1_555 1_555
Co4_4 N7_5 1_555 1_555
C1_2 C2_2 1_555 1_555
C2_2 H1_2 1_555 1_555
C3_2 C2_2 1_555 1_555
H2_2 C3_2 1_555 1_555
H3_2 C3_2 1_555 1_555
H4_2 C3_2 1_555 1_555
C4_2 C5_2 1_555 1_555
C5_2 C6_2 1_555 1_555
C6_2 H5_2 1_555 1_555
C7_2 C6_2 1_555 1_555
C8_2 C7_2 1_555 1_555
H6_2 C8_2 1_555 1_555
C9_2 C8_2 1_555 1_555
C10_2 C5_2 1_555 1_555
H7_2 C10_2 1_555 1_555
C15_2 C9_2 1_555 1_555
C16_2 H12_2 1_555 1_555
H13_2 C16_2 1_555 1_555
H14_2 C16_2 1_555 1_555
C17_2 C16_2 1_555 1_555
H15_2 C17_2 1_555 1_555
C18_2 C17_2 1_555 1_555
C29_2 H24_2 1_555 1_555
C30_2 C29_2 1_555 1_555
H25_2 C30_2 1_555 1_555
C31_2 C30_2 1_555 1_555
C34_2 H28_2 1_555 1_555
C35_2 C34_2 1_555 1_555
H29_2 C35_2 1_555 1_555
C36_5 C35_2 1_555 1_555
N1_2 C2_2 1_555 1_555
H32_2 N1_2 1_555 1_555
N3_2 C15_2 1_555 1_555
H34_2 N3_2 1_555 1_555
N6_2 Co8 1_555 1_555
N7_5 C34_2 1_555 1_555
O1_2 Co4_4 1_555 1_555
O2_2 Co8 1_555 1_555
O3_2 C4_2 1_555 1_555
O17 C18_2 1_555 1_555
O20 C18_2 1_555 1_555
O9_2 C15_2 1_555 1_555
C64 C63 1_555 1_555
H54 C64 1_555 1_555
C65 C64 1_555 1_555
H55 C65 1_555 1_555
H60_2 C71_2 1_555 1_555
C72_2 C71_2 1_555 1_555
H61_2 C72_2 1_555 1_555
N14 Co8 1_555 1_555
Co8 O1_2 1_555 1_555
C1_2 O1_2 1_555 1_555
C1_2 O2_2 1_555 1_555
C4_2 N1_2 1_555 1_555
C9_2 C10_2 1_555 1_555
C17_2 N3_2 1_555 1_555
C29_2 N6_2 1_555 1_555
C65 N14 1_555 1_555
C60_2 H52_2 1_555 1_555
C61_2 C60_2 1_555 1_555
H53_2 C61_2 1_555 1_555
C60_2 N13_2 1_555 1_555
C61_2 C62_2 1_555 1_555
C64_2 C63_2 1_555 1_555
H54_2 C64_2 1_555 1_555
C65_2 C64_2 1_555 1_555
H55_2 C65_2 1_555 1_555
C65_2 N15_2 1_555 1_555
C58_2 H50_2 1_555 1_555
C59_2 C58_2 1_555 1_555
H51_2 C59_2 1_555 1_555
C66_2 H56_2 1_555 1_555
H57_2 C67_2 1_555 1_555
C66_2 C67_2 1_555 1_555

#END
