
###############################################################################
#
# This file contains modified crystal structure data generated from the
# MOF subset of the Cambridge Structural Database (CSD) v543 
# hosted by the Cambridge Crystallographic Data Centre (CCDC).
#
# This work is licensed under the Creative Commons
# Attribution-NonCommercial-ShareAlike 4.0 International License.
# To view a copy of this license, visit
# http://creativecommons.org/licenses/by-nc-sa/4.0/
# or send a letter to
# Creative Commons, PO Box 1866, Mountain View, CA 94042, USA.
#
# CIF created using the CSD Python API on 29 September 2022
# The structure has been converted into the P1 space group
# The structure has a 3D framework
# The original CSD entry AMAFUQ is in the rhombohedral crystal system
# The framework has been calculated to contain at least 10.0% void space
# The void calculation uses a probe of radius 1.32A, grid spacing 0.4
#
###############################################################################

data_AMAFUQ
_chemical_formula_moiety         '(C90 H54 Cu11 N36 O36)n'
_symmetry_cell_setting           triclinic
_symmetry_space_group_name_H-M   'P 1'
_symmetry_Int_Tables_number      1
_space_group_name_Hall           'P 1'
loop_
_symmetry_equiv_pos_site_id
_symmetry_equiv_pos_as_xyz
1 x,y,z
_cell_length_a                   21.593(3)
_cell_length_b                   21.593(3)
_cell_length_c                   7.7402(13)
_cell_angle_alpha                90
_cell_angle_beta                 90
_cell_angle_gamma                120
_cell_volume                     3125.42
loop_
_atom_site_label
_atom_site_type_symbol
_atom_site_fract_x
_atom_site_fract_y
_atom_site_fract_z
Cu1 Cu -0.0000 0.5000 0.5000
O1 O 0.14985(16) 0.79367(14) 0.0633(3)
N1 N 0.06917(18) 0.60435(17) 0.4623(4)
N2 N 0.1587(2) 0.7187(2) 0.5567(4)
C1 C 0.0733(2) 0.63037(19) 0.3021(4)
H1 H 0.0436 0.5992 0.2136
C2 C 0.1629(2) 0.7437(2) 0.3952(5)
H2 H 0.1967 0.7923 0.3713
C3 C 0.1196(2) 0.7010(2) 0.2633(4)
C4 C 0.1207(2) 0.7261(2) 0.0802(4)
C5 C 0.1114(2) 0.6506(2) 0.5830(4)
H3 H 0.1070 0.6329 0.6974
O5 O 0.02285(21) 0.48318(16) 0.2700(3)
Cu1_2 Cu 1.0000 0.5000 0.5000
O3 O 0.85015(16) 0.20633(14) 0.9367(3)
O4 O 0.97715(21) 0.51682(16) 0.7300(3)
N3 N 0.93083(18) 0.39565(17) 0.5377(4)
N4 N 0.8413(2) 0.2813(2) 0.4433(4)
C6 C 0.9267(2) 0.36963(19) 0.6979(4)
H4 H 0.9564 0.4008 0.7864
C7 C 0.8371(2) 0.2563(2) 0.6048(5)
H5 H 0.8033 0.2077 0.6287
C8 C 0.8804(2) 0.2990(2) 0.7367(4)
C9 C 0.8793(2) 0.2739(2) 0.9198(4)
C10 C 0.8886(2) 0.3494(2) 0.4170(4)
H6 H 0.8930 0.3671 0.3026
Cu1_3 Cu 0.5000 0.5000 0.5000
O1_2 O 0.20633(14) 0.35618(21) 0.0633(3)
N1_2 N 0.39565(17) 0.46482(25) 0.4623(4)
N2_2 N 0.2813(2) 0.4400(3) 0.5567(4)
C1_2 C 0.36963(19) 0.44293(28) 0.3021(4)
H1_2 H 0.4008 0.4444 0.2136
C2_2 C 0.2563(2) 0.4192(3) 0.3952(5)
H2_2 H 0.2077 0.4044 0.3713
C3_2 C 0.2990(2) 0.4186(3) 0.2633(4)
C4_2 C 0.2739(2) 0.3946(3) 0.0802(4)
C5_2 C 0.3494(2) 0.4608(3) 0.5830(4)
H3_2 H 0.3671 0.4741 0.6974
O3_2 O 0.79367(14) 0.64382(21) 0.9367(3)
O4_2 O 0.48318(16) 0.46034(26) 0.7300(3)
O5_2 O 0.51682(16) 0.53966(26) 0.2700(3)
N3_2 N 0.60435(17) 0.53518(25) 0.5377(4)
N4_2 N 0.7187(2) 0.5600(3) 0.4433(4)
C6_2 C 0.63037(19) 0.55707(28) 0.6979(4)
H4_2 H 0.5992 0.5556 0.7864
C7_2 C 0.7437(2) 0.5808(3) 0.6048(5)
H5_2 H 0.7923 0.5956 0.6287
C8_2 C 0.7010(2) 0.5814(3) 0.7367(4)
C9_2 C 0.7261(2) 0.6054(3) 0.9198(4)
C10_2 C 0.6506(2) 0.5392(3) 0.4170(4)
H6_2 H 0.6329 0.5259 0.3026
Cu1_4 Cu 0.5000 0.0000 0.5000
O3_3 O 0.35618(21) 0.14985(16) 0.9367(3)
O4_3 O 0.53966(26) 0.02285(21) 0.7300(3)
N3_3 N 0.46482(25) 0.06917(18) 0.5377(4)
N4_3 N 0.4400(3) 0.1587(2) 0.4433(4)
C6_3 C 0.44293(28) 0.0733(2) 0.6979(4)
H4_3 H 0.4444 0.0436 0.7864
C7_3 C 0.4192(3) 0.1629(2) 0.6048(5)
H5_3 H 0.4044 0.1967 0.6287
C8_3 C 0.4186(3) 0.1196(2) 0.7367(4)
C9_3 C 0.3946(3) 0.1207(2) 0.9198(4)
C10_3 C 0.4608(3) 0.1114(2) 0.4170(4)
H6_3 H 0.4741 0.1070 0.3026
Cu1_5 Cu 0.5000 1.0000 0.5000
O1_3 O 0.64382(21) 0.85015(16) 0.0633(3)
N1_3 N 0.53518(25) 0.93083(18) 0.4623(4)
N2_3 N 0.5600(3) 0.8413(2) 0.5567(4)
C1_3 C 0.55707(28) 0.9267(2) 0.3021(4)
H1_3 H 0.5556 0.9564 0.2136
C2_3 C 0.5808(3) 0.8371(2) 0.3952(5)
H2_3 H 0.5956 0.8033 0.3713
C3_3 C 0.5814(3) 0.8804(2) 0.2633(4)
C4_3 C 0.6054(3) 0.8793(2) 0.0802(4)
C5_3 C 0.5392(3) 0.8886(2) 0.5830(4)
H3_3 H 0.5259 0.8930 0.6974
O5_3 O 0.46034(26) 0.97715(21) 0.2700(3)
H3_4 H 0.7737 0.9662 0.0307
O6 O 0.5729(2) 0.6518(2) 0.3685(4)
C6_4 C 0.5934(2) 0.70296(19) 0.0312(4)
H4_4 H 0.6231 0.7341 0.1197
C8_4 C 0.5471(2) 0.6323(2) 0.0700(4)
C9_4 C 0.5460(2) 0.6072(2) 0.2531(4)
H3_5 H 0.0338 0.8074 0.0307
O6_2 O 0.3482(2) 0.9210(3) 0.3685(4)
C6_5 C 0.29704(19) 0.89040(28) 0.0312(4)
H4_5 H 0.2659 0.8889 0.1197
C8_5 C 0.3677(2) 0.9147(3) 0.0700(4)
C9_5 C 0.3928(2) 0.9387(3) 0.2531(4)
H3_6 H 0.1926 0.2263 0.0307
O6_3 O 0.0790(3) 0.4271(2) 0.3685(4)
C6_6 C 0.10960(28) 0.4066(2) 0.0312(4)
H4_6 H 0.1111 0.3769 0.1197
C8_6 C 0.0853(3) 0.4529(2) 0.0700(4)
C9_6 C 0.0613(3) 0.4540(2) 0.2531(4)
O2 O 0.4271(2) 0.3482(2) 0.6315(4)
C1_4 C 0.4066(2) 0.29704(19) 0.9688(4)
H1_4 H 0.3769 0.2659 0.8803
C3_4 C 0.4529(2) 0.3677(2) 0.9300(4)
C4_4 C 0.4540(2) 0.3928(2) 0.7469(4)
H6_4 H 0.2263 0.0338 0.9693
O2_2 O 0.6518(2) 0.0790(3) 0.6315(4)
C1_5 C 0.70296(19) 0.10960(28) 0.9688(4)
H1_5 H 0.7341 0.1111 0.8803
C3_5 C 0.6323(2) 0.0853(3) 0.9300(4)
C4_5 C 0.6072(2) 0.0613(3) 0.7469(4)
H6_5 H 0.9662 0.1926 0.9693
O2_3 O 0.9210(3) 0.5729(2) 0.6315(4)
C1_6 C 0.89040(28) 0.5934(2) 0.9688(4)
H1_6 H 0.8889 0.6231 0.8803
C3_6 C 0.9147(3) 0.5471(2) 0.9300(4)
C4_6 C 0.9387(3) 0.5460(2) 0.7469(4)
H6_6 H 0.8074 0.7737 0.9693
O2_4 O 0.0938(2) 0.6815(2) 0.9648(4)
Cu2 Cu 0.1667 0.8333 0.8333
N1_4 N 0.06232(17) 0.79815(25) 0.7956(4)
C1_7 C 0.03630(19) 0.77626(28) 0.6354(4)
H1_7 H 0.0675 0.7777 0.5469
C5_4 C 0.0161(2) 0.7941(3) 0.9163(4)
O5_4 O 0.18348(16) 0.87300(26) 0.6034(3)
N3_4 N 0.27102(17) 0.86851(25) 0.8710(4)
N4_4 N 0.3854(2) 0.8933(3) 0.7766(4)
C7_4 C 0.4104(2) 0.9141(3) 0.9381(5)
H5_4 H 0.4590 0.9289 0.9620
C10_4 C 0.3173(2) 0.8725(3) 0.7503(4)
H6_7 H 0.2996 0.8592 0.6359
O6_4 O 0.2395(2) 0.9852(2) 0.7019(4)
N4_5 N 0.1746(2) 0.9480(2) 0.1100(4)
C7_5 C 0.1704(2) 0.9230(2) 0.2715(5)
H5_5 H 0.1366 0.8744 0.2954
C8_7 C 0.2137(2) 0.9657(2) 0.4034(4)
C9_7 C 0.2126(2) 0.9406(2) 0.5865(4)
Cu3 Cu 0.8333 0.1667 0.1667
O6_5 O 0.9062(2) 0.3185(2) 0.0352(4)
O1_4 O 0.81652(16) 0.12700(14) 0.3966(3)
O2_5 O 0.7605(2) 0.0148(2) 0.2981(4)
N2_4 N 0.8254(2) 0.0520(2) 0.8900(4)
C2_4 C 0.8296(2) 0.0770(2) 0.7285(5)
H2_4 H 0.8634 0.1256 0.7046
C3_7 C 0.7863(2) 0.0343(2) 0.5966(4)
C4_7 C 0.7874(2) 0.0594(2) 0.4135(4)
N1_5 N 0.72898(17) 0.13149(25) 0.1290(4)
N2_5 N 0.6146(2) 0.1067(3) 0.2234(4)
C2_5 C 0.5896(2) 0.0859(3) 0.0619(5)
H2_5 H 0.5410 0.0711 0.0380
C5_5 C 0.6827(2) 0.1275(3) 0.2497(4)
H3_7 H 0.7004 0.1408 0.3641
N3_5 N 0.93768(17) 0.20185(25) 0.2044(4)
C6_7 C 0.96370(19) 0.22374(28) 0.3646(4)
H4_7 H 0.9325 0.2223 0.4531
C10_5 C 0.9839(2) 0.2059(3) 0.0837(4)
Cu3_2 Cu 0.8333 0.6667 0.1667
O6_6 O 0.6815(2) 0.5877(3) 0.0352(4)
O2_6 O 0.5877(3) 0.9062(2) 0.9648(4)
Cu2_2 Cu 0.6667 0.8333 0.8333
N1_6 N 0.73584(18) 0.93768(17) 0.7956(4)
C1_8 C 0.7400(2) 0.96370(19) 0.6354(4)
H1_8 H 0.7103 0.9325 0.5469
C5_6 C 0.7781(2) 0.9839(2) 0.9163(4)
O5_5 O 0.68951(21) 0.81652(16) 0.6034(3)
N3_6 N 0.59750(18) 0.72898(17) 0.8710(4)
N4_6 N 0.5080(2) 0.6146(2) 0.7766(4)
C7_6 C 0.5038(2) 0.5896(2) 0.9381(5)
H5_6 H 0.4700 0.5410 0.9620
C10_6 C 0.5553(2) 0.6827(2) 0.7503(4)
H6_8 H 0.5597 0.7004 0.6359
O1_5 O 0.87300(14) 0.68951(21) 0.3966(3)
O2_7 O 0.9852(2) 0.7456(3) 0.2981(4)
N2_6 N 0.9480(2) 0.7733(3) 0.8900(4)
C2_6 C 0.9230(2) 0.7525(3) 0.7285(5)
H2_6 H 0.8744 0.7377 0.7046
C3_8 C 0.9657(2) 0.7519(3) 0.5966(4)
C4_8 C 0.9406(2) 0.7279(3) 0.4135(4)
N1_7 N 0.86851(25) 0.59750(18) 0.1290(4)
N2_7 N 0.8933(3) 0.5080(2) 0.2234(4)
C2_7 C 0.9141(3) 0.5038(2) 0.0619(5)
H2_7 H 0.9289 0.4700 0.0380
C5_7 C 0.8725(3) 0.5553(2) 0.2497(4)
H3_8 H 0.8592 0.5597 0.3641
O6_7 O 0.7456(3) 0.7605(2) 0.7019(4)
N3_7 N 0.79815(25) 0.73584(18) 0.2044(4)
N4_7 N 0.7733(3) 0.8254(2) 0.1100(4)
C6_8 C 0.77626(28) 0.7400(2) 0.3646(4)
H4_8 H 0.7777 0.7103 0.4531
C7_7 C 0.7525(3) 0.8296(2) 0.2715(5)
H5_7 H 0.7377 0.8634 0.2954
C8_8 C 0.7519(3) 0.7863(2) 0.4034(4)
C9_8 C 0.7279(3) 0.7874(2) 0.5865(4)
C10_7 C 0.7941(3) 0.7781(2) 0.0837(4)
O2_8 O 0.3185(2) 0.4123(3) 0.9648(4)
Cu2_3 Cu 0.1667 0.3333 0.8333
Cu3_3 Cu 0.3333 0.1667 0.1667
O6_8 O 0.4123(3) 0.0938(2) 0.0352(4)
O1_6 O 0.31049(21) 0.18348(16) 0.3966(3)
O2_9 O 0.2544(3) 0.2395(2) 0.2981(4)
N1_8 N 0.20185(25) 0.26416(18) 0.7956(4)
N2_8 N 0.2267(3) 0.1746(2) 0.8900(4)
C1_9 C 0.22374(28) 0.2600(2) 0.6354(4)
H1_9 H 0.2223 0.2897 0.5469
C2_8 C 0.2475(3) 0.1704(2) 0.7285(5)
H2_8 H 0.2623 0.1366 0.7046
C3_9 C 0.2481(3) 0.2137(2) 0.5966(4)
C4_9 C 0.2721(3) 0.2126(2) 0.4135(4)
C5_8 C 0.2059(3) 0.2219(2) 0.9163(4)
O5_6 O 0.12700(26) 0.31049(21) 0.6034(3)
N3_8 N 0.13149(25) 0.40250(18) 0.8710(4)
N4_8 N 0.1067(3) 0.4920(2) 0.7766(4)
C7_8 C 0.0859(3) 0.4962(2) 0.9381(5)
H5_8 H 0.0711 0.5300 0.9620
C10_8 C 0.1275(3) 0.4447(2) 0.7503(4)
H6_9 H 0.1408 0.4403 0.6359
N1_9 N 0.40250(18) 0.27102(17) 0.1290(4)
N2_9 N 0.4920(2) 0.3854(2) 0.2234(4)
C2_9 C 0.4962(2) 0.4104(2) 0.0619(5)
H2_9 H 0.5300 0.4590 0.0380
C5_9 C 0.4447(2) 0.3173(2) 0.2497(4)
H3_9 H 0.4403 0.2996 0.3641
N3_9 N 0.26416(18) 0.06232(17) 0.2044(4)
C6_9 C 0.2600(2) 0.03630(19) 0.3646(4)
H4_9 H 0.2897 0.0675 0.4531
C10_9 C 0.2219(2) 0.0161(2) 0.0837(4)
O6_9 O 0.0148(2) 0.2544(3) 0.7019(4)
N4_9 N 0.0520(2) 0.2267(3) 0.1100(4)
C7_9 C 0.0770(2) 0.2475(3) 0.2715(5)
H5_9 H 0.1256 0.2623 0.2954
C8_9 C 0.0343(2) 0.2481(3) 0.4034(4)
C9_9 C 0.0594(2) 0.2721(3) 0.5865(4)
loop_
_geom_bond_atom_site_label_1
_geom_bond_atom_site_label_2
_geom_bond_site_symmetry_1
_geom_bond_site_symmetry_2
Cu1 N1 1_555 1_555
O1 C4 1_555 1_555
N1 C1 1_555 1_555
N2 C2 1_555 1_555
C1 H1 1_555 1_555
C2 H2 1_555 1_555
C3 C1 1_555 1_555
C4 C3 1_555 1_555
C5 N1 1_555 1_555
H3 C5 1_555 1_555
O5 Cu1 1_555 1_555
N2 C5 1_555 1_555
C2 C3 1_555 1_555
O3 C9 1_555 1_555
O4 Cu1_2 1_555 1_555
N3 Cu1_2 1_555 1_555
N4 C7 1_555 1_555
C6 N3 1_555 1_555
H4 C6 1_555 1_555
C7 H5 1_555 1_555
C8 C6 1_555 1_555
C9 C8 1_555 1_555
C10 N3 1_555 1_555
H6 C10 1_555 1_555
N4 C10 1_555 1_555
C7 C8 1_555 1_555
Cu1_3 N1_2 1_555 1_555
O1_2 C4_2 1_555 1_555
N1_2 C1_2 1_555 1_555
N2_2 C2_2 1_555 1_555
C1_2 H1_2 1_555 1_555
C2_2 H2_2 1_555 1_555
C3_2 C1_2 1_555 1_555
C4_2 C3_2 1_555 1_555
C5_2 N1_2 1_555 1_555
H3_2 C5_2 1_555 1_555
O3_2 C9_2 1_555 1_555
O4_2 Cu1_3 1_555 1_555
O5_2 Cu1_3 1_555 1_555
N3_2 Cu1_3 1_555 1_555
N4_2 C7_2 1_555 1_555
C6_2 N3_2 1_555 1_555
H4_2 C6_2 1_555 1_555
C7_2 H5_2 1_555 1_555
C8_2 C6_2 1_555 1_555
C9_2 C8_2 1_555 1_555
C10_2 N3_2 1_555 1_555
H6_2 C10_2 1_555 1_555
N2_2 C5_2 1_555 1_555
C2_2 C3_2 1_555 1_555
N4_2 C10_2 1_555 1_555
C7_2 C8_2 1_555 1_555
O3_3 C9_3 1_555 1_555
O4_3 Cu1_4 1_555 1_555
N3_3 Cu1_4 1_555 1_555
N4_3 C7_3 1_555 1_555
C6_3 N3_3 1_555 1_555
H4_3 C6_3 1_555 1_555
C7_3 H5_3 1_555 1_555
C8_3 C6_3 1_555 1_555
C9_3 C8_3 1_555 1_555
C10_3 N3_3 1_555 1_555
H6_3 C10_3 1_555 1_555
N4_3 C10_3 1_555 1_555
C7_3 C8_3 1_555 1_555
Cu1_5 N1_3 1_555 1_555
O1_3 C4_3 1_555 1_555
N1_3 C1_3 1_555 1_555
N2_3 C2_3 1_555 1_555
C1_3 H1_3 1_555 1_555
C2_3 H2_3 1_555 1_555
C3_3 C1_3 1_555 1_555
C4_3 C3_3 1_555 1_555
C5_3 N1_3 1_555 1_555
H3_3 C5_3 1_555 1_555
O5_3 Cu1_5 1_555 1_555
N2_3 C5_3 1_555 1_555
C2_3 C3_3 1_555 1_555
O5_2 C9_4 1_555 1_555
O6 C9_4 1_555 1_555
H4_4 C6_4 1_555 1_555
C8_4 C6_4 1_555 1_555
C9_4 C8_4 1_555 1_555
O5_3 C9_5 1_555 1_555
O6_2 C9_5 1_555 1_555
H4_5 C6_5 1_555 1_555
C8_5 C6_5 1_555 1_555
C9_5 C8_5 1_555 1_555
O5 C9_6 1_555 1_555
O6_3 C9_6 1_555 1_555
H4_6 C6_6 1_555 1_555
C8_6 C6_6 1_555 1_555
C9_6 C8_6 1_555 1_555
O4_2 C4_4 1_555 1_555
O2 C4_4 1_555 1_555
C1_4 H1_4 1_555 1_555
C3_4 C1_4 1_555 1_555
C4_4 C3_4 1_555 1_555
O4_3 C4_5 1_555 1_555
O2_2 C4_5 1_555 1_555
C1_5 H1_5 1_555 1_555
C3_5 C1_5 1_555 1_555
C4_5 C3_5 1_555 1_555
O4 C4_6 1_555 1_555
O2_3 C4_6 1_555 1_555
C1_6 H1_6 1_555 1_555
C3_6 C1_6 1_555 1_555
C4_6 C3_6 1_555 1_555
Cu2 N1_4 1_555 1_555
N1_4 C1_7 1_555 1_555
C1_7 H1_7 1_555 1_555
C5_4 N1_4 1_555 1_555
O5_4 Cu2 1_555 1_555
N3_4 Cu2 1_555 1_555
N4_4 C7_4 1_555 1_555
C7_4 H5_4 1_555 1_555
C10_4 N3_4 1_555 1_555
H6_7 C10_4 1_555 1_555
N4_4 C10_4 1_555 1_555
O5_4 C9_7 1_555 1_555
O6_4 C9_7 1_555 1_555
N4_5 C7_5 1_555 1_555
C7_5 H5_5 1_555 1_555
C9_7 C8_7 1_555 1_555
C7_5 C8_7 1_555 1_555
O1_4 C4_7 1_555 1_555
O2_5 C4_7 1_555 1_555
N2_4 C2_4 1_555 1_555
C2_4 H2_4 1_555 1_555
C4_7 C3_7 1_555 1_555
Cu3 O1_4 1_555 1_555
C2_4 C3_7 1_555 1_555
Cu3 N1_5 1_555 1_555
N2_5 C2_5 1_555 1_555
C2_5 H2_5 1_555 1_555
C5_5 N1_5 1_555 1_555
H3_7 C5_5 1_555 1_555
N3_5 Cu3 1_555 1_555
C6_7 N3_5 1_555 1_555
H4_7 C6_7 1_555 1_555
C10_5 N3_5 1_555 1_555
N2_5 C5_5 1_555 1_555
Cu2_2 N1_6 1_555 1_555
N1_6 C1_8 1_555 1_555
C1_8 H1_8 1_555 1_555
C5_6 N1_6 1_555 1_555
O5_5 Cu2_2 1_555 1_555
N3_6 Cu2_2 1_555 1_555
N4_6 C7_6 1_555 1_555
C7_6 H5_6 1_555 1_555
C10_6 N3_6 1_555 1_555
H6_8 C10_6 1_555 1_555
N4_6 C10_6 1_555 1_555
O1_5 C4_8 1_555 1_555
O2_7 C4_8 1_555 1_555
N2_6 C2_6 1_555 1_555
C2_6 H2_6 1_555 1_555
C4_8 C3_8 1_555 1_555
Cu3_2 O1_5 1_555 1_555
C2_6 C3_8 1_555 1_555
Cu3_2 N1_7 1_555 1_555
N2_7 C2_7 1_555 1_555
C2_7 H2_7 1_555 1_555
C5_7 N1_7 1_555 1_555
H3_8 C5_7 1_555 1_555
O5_5 C9_8 1_555 1_555
O6_7 C9_8 1_555 1_555
N3_7 Cu3_2 1_555 1_555
N4_7 C7_7 1_555 1_555
C6_8 N3_7 1_555 1_555
H4_8 C6_8 1_555 1_555
C7_7 H5_7 1_555 1_555
C8_8 C6_8 1_555 1_555
C9_8 C8_8 1_555 1_555
C10_7 N3_7 1_555 1_555
N2_7 C5_7 1_555 1_555
N4_7 C10_7 1_555 1_555
C7_7 C8_8 1_555 1_555
Cu2_3 N1_8 1_555 1_555
O1_6 C4_9 1_555 1_555
O2_9 C4_9 1_555 1_555
N1_8 C1_9 1_555 1_555
N2_8 C2_8 1_555 1_555
C1_9 H1_9 1_555 1_555
C2_8 H2_8 1_555 1_555
C3_9 C1_9 1_555 1_555
C4_9 C3_9 1_555 1_555
C5_8 N1_8 1_555 1_555
Cu3_3 O1_6 1_555 1_555
O5_6 Cu2_3 1_555 1_555
N3_8 Cu2_3 1_555 1_555
N4_8 C7_8 1_555 1_555
C7_8 H5_8 1_555 1_555
C10_8 N3_8 1_555 1_555
H6_9 C10_8 1_555 1_555
N2_8 C5_8 1_555 1_555
C2_8 C3_9 1_555 1_555
N4_8 C10_8 1_555 1_555
Cu3_3 N1_9 1_555 1_555
N2_9 C2_9 1_555 1_555
C2_9 H2_9 1_555 1_555
C5_9 N1_9 1_555 1_555
H3_9 C5_9 1_555 1_555
N3_9 Cu3_3 1_555 1_555
C6_9 N3_9 1_555 1_555
H4_9 C6_9 1_555 1_555
C10_9 N3_9 1_555 1_555
N2_9 C5_9 1_555 1_555
O5_6 C9_9 1_555 1_555
O6_9 C9_9 1_555 1_555
N4_9 C7_9 1_555 1_555
C7_9 H5_9 1_555 1_555
C9_9 C8_9 1_555 1_555
C7_9 C8_9 1_555 1_555

#END
