
###############################################################################
#
# This file contains modified crystal structure data generated from the
# MOF subset of the Cambridge Structural Database (CSD) v543 
# hosted by the Cambridge Crystallographic Data Centre (CCDC).
#
# This work is licensed under the Creative Commons
# Attribution-NonCommercial-ShareAlike 4.0 International License.
# To view a copy of this license, visit
# http://creativecommons.org/licenses/by-nc-sa/4.0/
# or send a letter to
# Creative Commons, PO Box 1866, Mountain View, CA 94042, USA.
#
# CIF created using the CSD Python API on 29 September 2022
# The structure has been converted into the P1 space group
# The structure has a 3D framework
# The original CSD entry AMAFOK is in the rhombohedral crystal system
# The framework has been calculated to contain at least 10.0% void space
# The void calculation uses a probe of radius 1.32A, grid spacing 0.4
#
###############################################################################

data_AMAFOK
_chemical_formula_moiety         '(C90 H54 Cu16 N36 O36)n'
_symmetry_cell_setting           triclinic
_symmetry_space_group_name_H-M   'P 1'
_symmetry_Int_Tables_number      1
_space_group_name_Hall           'P 1'
loop_
_symmetry_equiv_pos_site_id
_symmetry_equiv_pos_as_xyz
1 x,y,z
_cell_length_a                   21.466(2)
_cell_length_b                   21.466(2)
_cell_length_c                   7.7719(11)
_cell_angle_alpha                90
_cell_angle_beta                 90
_cell_angle_gamma                120
_cell_volume                     3101.42
loop_
_atom_site_label
_atom_site_type_symbol
_atom_site_fract_x
_atom_site_fract_y
_atom_site_fract_z
Cu1 Cu 0.5000 0.0000 0.0000
Cu3 Cu 0.3333 0.1667 0.6667
O3 O 0.48336(12) 0.02218(13) 0.2300(3)
O4 O 0.4302(2) 0.08181(19) 0.1312(3)
N3 N 0.40258(14) 0.13112(15) 0.6281(3)
N4 N 0.60479(21) 0.06925(14) 0.0386(3)
N6 N 0.49501(17) 0.10884(18) 0.7207(4)
C6 C 0.45524(18) 0.06234(18) 0.2466(4)
C7 C 0.45428(18) 0.08602(17) 0.4286(4)
C8 C 0.49898(19) 0.08762(19) 0.5599(4)
C9 C 0.44653(18) 0.1288(2) 0.7479(4)
C10 C 0.40706(17) 0.10940(18) 0.4691(4)
H4 H 0.533(2) 0.074(2) 0.542(5)
H5 H 0.441(2) 0.142(2) 0.860(5)
H6 H 0.374(2) 0.108(2) 0.386(5)
Cu1_2 Cu 1.0000 0.5000 0.0000
Cu3_2 Cu 0.8333 0.1667 0.6667
O3_2 O 0.97782(13) 0.46118(18) 0.2300(3)
O4_2 O 0.91819(19) 0.34839(28) 0.1312(3)
N3_2 N 0.86888(15) 0.27146(21) 0.6281(3)
N4_2 N 0.93075(14) 0.53555(25) 0.0386(3)
N6_2 N 0.89116(18) 0.38617(25) 0.7207(4)
C6_2 C 0.93766(18) 0.39290(25) 0.2466(4)
C7_2 C 0.91398(17) 0.36826(25) 0.4286(4)
C8_2 C 0.91238(19) 0.41136(27) 0.5599(4)
C9_2 C 0.8712(2) 0.31773(27) 0.7479(4)
C10_2 C 0.89060(18) 0.29766(25) 0.4691(4)
H4_2 H 0.926(2) 0.459(3) 0.542(5)
H5_2 H 0.858(2) 0.299(3) 0.860(5)
H6_2 H 0.892(2) 0.266(3) 0.386(5)
Cu1_3 Cu 0.5000 0.5000 0.0000
Cu3_3 Cu 0.8333 0.6667 0.6667
O3_3 O 0.53882(18) 0.51664(12) 0.2300(3)
O4_3 O 0.65161(28) 0.5698(2) 0.1312(3)
N3_3 N 0.72854(21) 0.59742(14) 0.6281(3)
N4_3 N 0.46445(25) 0.39521(21) 0.0386(3)
N6_3 N 0.61383(25) 0.50499(17) 0.7207(4)
C6_3 C 0.60710(25) 0.54476(18) 0.2466(4)
C7_3 C 0.63174(25) 0.54572(18) 0.4286(4)
C8_3 C 0.58864(27) 0.50102(19) 0.5599(4)
C9_3 C 0.68227(27) 0.55347(18) 0.7479(4)
C10_3 C 0.70234(25) 0.59294(17) 0.4691(4)
H4_3 H 0.541(3) 0.467(2) 0.542(5)
H5_3 H 0.701(3) 0.559(2) 0.860(5)
H6_3 H 0.734(3) 0.626(2) 0.386(5)
N1 N 0.26409(14) 0.20221(15) 0.7052(3)
N2 N 0.17166(17) 0.22449(18) 0.6126(4)
C2 C 0.21239(18) 0.24731(17) 0.9047(4)
C3 C 0.16769(19) 0.24571(19) 0.7734(4)
C4 C 0.22014(18) 0.2045(2) 0.5854(4)
C5 C 0.25961(17) 0.22393(18) 0.8642(4)
H1 H 0.134(2) 0.259(2) 0.791(5)
H2 H 0.226(2) 0.191(2) 0.473(5)
H3 H 0.293(2) 0.225(2) 0.947(5)
N1_2 N 0.79779(15) 0.06187(21) 0.7052(3)
C4_2 C 0.7955(2) 0.01560(27) 0.5854(4)
C5_2 C 0.77607(18) 0.03567(25) 0.8642(4)
H2_2 H 0.809(2) 0.034(3) 0.473(5)
H3_2 H 0.775(2) 0.067(3) 0.947(5)
N6_4 N 0.55783(18) 0.71950(25) 0.0540(4)
C9_4 C 0.5379(2) 0.65106(27) 0.0812(4)
H5_4 H 0.525(2) 0.632(3) 0.193(5)
N1_3 N 0.93813(21) 0.73591(14) 0.7052(3)
C4_3 C 0.98440(27) 0.77986(18) 0.5854(4)
C5_3 C 0.96433(25) 0.74039(17) 0.8642(4)
H2_3 H 0.966(3) 0.774(2) 0.473(5)
H3_3 H 0.933(3) 0.707(2) 0.947(5)
O1 O 0.84997(12) 0.64449(13) 0.4367(3)
O2 O 0.9031(2) 0.58486(19) 0.5355(3)
C1 C 0.87809(18) 0.60433(18) 0.4201(4)
C2_2 C 0.87905(18) 0.58065(17) 0.2381(4)
C3_2 C 0.83435(19) 0.57905(19) 0.1068(4)
C5_4 C 0.92627(17) 0.55727(18) 0.1976(4)
H1_2 H 0.800(2) 0.593(2) 0.125(5)
H3_4 H 0.959(2) 0.559(2) 0.281(5)
O3_4 O 0.81669(12) 0.68885(13) 0.8967(3)
O4_4 O 0.7635(2) 0.74848(19) 0.7979(3)
C6_4 C 0.78857(18) 0.72901(18) 0.9133(4)
O1_2 O 0.35551(13) 0.20549(18) 0.4367(3)
O2_2 O 0.41514(19) 0.31828(28) 0.5355(3)
C1_2 C 0.39567(18) 0.27377(25) 0.4201(4)
C2_3 C 0.41935(17) 0.29841(25) 0.2381(4)
C3_3 C 0.42095(19) 0.25531(27) 0.1068(4)
C5_5 C 0.44273(18) 0.36901(25) 0.1976(4)
H1_3 H 0.407(2) 0.208(3) 0.125(5)
H3_5 H 0.441(2) 0.401(3) 0.281(5)
O3_5 O 0.31115(13) 0.12785(18) 0.8967(3)
O4_5 O 0.25152(19) 0.01506(28) 0.7979(3)
C6_5 C 0.27099(18) 0.05957(25) 0.9133(4)
O1_3 O 0.79451(18) 0.15003(12) 0.4367(3)
O2_3 O 0.68172(28) 0.0969(2) 0.5355(3)
C1_3 C 0.72623(25) 0.12191(18) 0.4201(4)
C2_4 C 0.70159(25) 0.12095(18) 0.2381(4)
C3_4 C 0.74469(27) 0.16565(19) 0.1068(4)
C5_6 C 0.63099(25) 0.07373(17) 0.1976(4)
H1_4 H 0.792(3) 0.200(2) 0.125(5)
H3_6 H 0.599(3) 0.041(2) 0.281(5)
O3_6 O 0.87215(18) 0.18331(12) 0.8967(3)
O4_6 O 0.98494(28) 0.2365(2) 0.7979(3)
C6_6 C 0.94043(25) 0.21143(18) 0.9133(4)
Cu1_4 Cu 0.5000 0.0000 1.0000
N2_2 N 0.71950(25) 0.16168(17) 0.9460(4)
C4_4 C 0.65106(27) 0.11320(18) 0.9188(4)
H2_4 H 0.632(3) 0.108(2) 0.807(5)
Cu1_5 Cu 0.5000 1.0000 0.0000
N6_5 N 0.28050(25) 0.83832(17) 0.0540(4)
C9_5 C 0.34894(27) 0.88680(18) 0.0812(4)
H5_5 H 0.368(3) 0.892(2) 0.193(5)
Cu1_6 Cu 0.5000 1.0000 1.0000
O1_4 O 0.51664(12) 0.97782(13) 0.7700(3)
O2_4 O 0.5698(2) 0.91819(19) 0.8688(3)
N1_4 N 0.59742(14) 0.86888(15) 0.3719(3)
N2_3 N 0.50499(17) 0.89116(18) 0.2793(4)
C1_4 C 0.54476(18) 0.93766(18) 0.7534(4)
C2_5 C 0.54572(18) 0.91398(17) 0.5714(4)
C3_5 C 0.50102(19) 0.91238(19) 0.4401(4)
C4_5 C 0.55347(18) 0.8712(2) 0.2521(4)
C5_7 C 0.59294(17) 0.89060(18) 0.5309(4)
H1_5 H 0.467(2) 0.926(2) 0.458(5)
H2_5 H 0.559(2) 0.858(2) 0.140(5)
H3_7 H 0.626(2) 0.892(2) 0.614(5)
Cu2 Cu 0.6667 0.8333 0.3333
N5 N 0.39521(21) 0.93075(14) 0.9614(3)
Cu1_7 Cu -0.0000 0.5000 1.0000
O1_5 O 0.02218(13) 0.53882(18) 0.7700(3)
O2_5 O 0.08181(19) 0.65161(28) 0.8688(3)
N1_5 N 0.13112(15) 0.72854(21) 0.3719(3)
N2_4 N 0.10884(18) 0.61383(25) 0.2793(4)
C1_5 C 0.06234(18) 0.60710(25) 0.7534(4)
C2_6 C 0.08602(17) 0.63174(25) 0.5714(4)
C3_6 C 0.08762(19) 0.58864(27) 0.4401(4)
C4_6 C 0.1288(2) 0.68227(27) 0.2521(4)
C5_8 C 0.10940(18) 0.70234(25) 0.5309(4)
H1_6 H 0.074(2) 0.541(3) 0.458(5)
H2_6 H 0.142(2) 0.701(3) 0.140(5)
H3_8 H 0.108(2) 0.734(3) 0.614(5)
Cu2_2 Cu 0.1667 0.8333 0.3333
N5_2 N 0.06925(14) 0.46445(25) 0.9614(3)
Cu1_8 Cu 0.5000 0.5000 1.0000
O1_6 O 0.46118(18) 0.48336(12) 0.7700(3)
O2_6 O 0.34839(28) 0.4302(2) 0.8688(3)
N1_6 N 0.27146(21) 0.40258(14) 0.3719(3)
N2_5 N 0.38617(25) 0.49501(17) 0.2793(4)
C1_6 C 0.39290(25) 0.45524(18) 0.7534(4)
C2_7 C 0.36826(25) 0.45428(18) 0.5714(4)
C3_7 C 0.41136(27) 0.49898(19) 0.4401(4)
C4_7 C 0.31773(27) 0.44653(18) 0.2521(4)
C5_9 C 0.29766(25) 0.40706(17) 0.5309(4)
H1_7 H 0.459(3) 0.533(2) 0.458(5)
H2_7 H 0.299(3) 0.441(2) 0.140(5)
H3_9 H 0.266(3) 0.374(2) 0.614(5)
Cu2_3 Cu 0.1667 0.3333 0.3333
N5_3 N 0.53555(25) 0.60479(21) 0.9614(3)
O1_7 O 0.18331(12) 0.31115(13) 0.1033(3)
O2_7 O 0.2365(2) 0.25152(19) 0.2021(3)
C1_7 C 0.21143(18) 0.27099(18) 0.0867(4)
O3_7 O 0.15003(12) 0.35551(13) 0.5633(3)
O4_7 O 0.0969(2) 0.41514(19) 0.4645(3)
N5_4 N 0.06187(21) 0.26409(14) 0.2948(3)
C6_7 C 0.12191(18) 0.39567(18) 0.5799(4)
C7_4 C 0.12095(18) 0.41935(17) 0.7619(4)
C8_4 C 0.16565(19) 0.42095(19) 0.8932(4)
C10_4 C 0.07373(17) 0.44273(18) 0.8024(4)
H4_4 H 0.200(2) 0.407(2) 0.875(5)
H6_4 H 0.041(2) 0.441(2) 0.719(5)
O1_8 O 0.68885(13) 0.87215(18) 0.1033(3)
O2_8 O 0.74848(19) 0.98494(28) 0.2021(3)
C1_8 C 0.72901(18) 0.94043(25) 0.0867(4)
O3_8 O 0.64449(13) 0.79451(18) 0.5633(3)
O4_8 O 0.58486(19) 0.68172(28) 0.4645(3)
N5_5 N 0.73591(14) 0.79779(25) 0.2948(3)
C6_8 C 0.60433(18) 0.72623(25) 0.5799(4)
C7_5 C 0.58065(17) 0.70159(25) 0.7619(4)
C8_5 C 0.57905(19) 0.74469(27) 0.8932(4)
C10_5 C 0.55727(18) 0.63099(25) 0.8024(4)
H4_5 H 0.593(2) 0.792(3) 0.875(5)
H6_5 H 0.559(2) 0.599(3) 0.719(5)
O1_9 O 0.12785(18) 0.81669(12) 0.1033(3)
O2_9 O 0.01506(28) 0.7635(2) 0.2021(3)
C1_9 C 0.05957(25) 0.78857(18) 0.0867(4)
O3_9 O 0.20549(18) 0.84997(12) 0.5633(3)
O4_9 O 0.31828(28) 0.9031(2) 0.4645(3)
N5_6 N 0.20221(25) 0.93813(21) 0.2948(3)
C6_9 C 0.27377(25) 0.87809(18) 0.5799(4)
C7_6 C 0.29841(25) 0.87905(18) 0.7619(4)
C8_6 C 0.25531(27) 0.83435(19) 0.8932(4)
C10_6 C 0.36901(25) 0.92627(17) 0.8024(4)
H4_6 H 0.208(3) 0.800(2) 0.875(5)
H6_6 H 0.401(3) 0.959(2) 0.719(5)
N6_6 N 0.82834(17) 0.77551(18) 0.3874(4)
C7_7 C 0.78761(18) 0.75269(17) 0.0953(4)
C8_7 C 0.83231(19) 0.75429(19) 0.2266(4)
C9_6 C 0.77986(18) 0.7955(2) 0.4146(4)
C10_7 C 0.74039(17) 0.77607(18) 0.1358(4)
H4_7 H 0.866(2) 0.741(2) 0.209(5)
H5_6 H 0.774(2) 0.809(2) 0.527(5)
H6_7 H 0.707(2) 0.775(2) 0.053(5)
N2_6 N 0.44217(18) 0.28050(25) 0.9460(4)
C4_8 C 0.4621(2) 0.34894(27) 0.9188(4)
H2_8 H 0.475(2) 0.368(3) 0.807(5)
C9_7 C 0.2045(2) 0.98440(27) 0.4146(4)
C10_8 C 0.22393(18) 0.96433(25) 0.1358(4)
H5_7 H 0.191(2) 0.966(3) 0.527(5)
H6_8 H 0.225(2) 0.933(3) 0.053(5)
C9_8 C 0.01560(27) 0.22014(18) 0.4146(4)
C10_9 C 0.03567(25) 0.25961(17) 0.1358(4)
H5_8 H 0.034(3) 0.226(2) 0.527(5)
H6_9 H 0.067(3) 0.293(2) 0.053(5)
Cu1_9 Cu -0.0000 0.5000 0.0000
N6_7 N 0.16168(17) 0.44217(18) 0.0540(4)
C9_9 C 0.11320(18) 0.4621(2) 0.0812(4)
H5_9 H 0.108(2) 0.475(2) 0.193(5)
Cu1_10 Cu 1.0000 0.5000 1.0000
N2_7 N 0.83832(17) 0.55783(18) 0.9460(4)
C4_9 C 0.88680(18) 0.5379(2) 0.9188(4)
H2_9 H 0.892(2) 0.525(2) 0.807(5)
N2_8 N 0.77551(18) 0.94716(25) 0.6126(4)
C2_8 C 0.75269(17) 0.96507(25) 0.9047(4)
C3_8 C 0.75429(19) 0.92197(27) 0.7734(4)
H1_8 H 0.741(2) 0.874(3) 0.791(5)
N2_9 N 0.05284(25) 0.82834(17) 0.6126(4)
C2_9 C 0.03493(25) 0.78761(18) 0.9047(4)
C3_9 C 0.07803(27) 0.83231(19) 0.7734(4)
H1_9 H 0.126(3) 0.866(2) 0.791(5)
N6_8 N 0.22449(18) 0.05284(25) 0.3874(4)
C7_8 C 0.24731(17) 0.03493(25) 0.0953(4)
C8_8 C 0.24571(19) 0.07803(27) 0.2266(4)
H4_8 H 0.259(2) 0.126(3) 0.209(5)
N6_9 N 0.94716(25) 0.17166(17) 0.3874(4)
C7_9 C 0.96507(25) 0.21239(18) 0.0953(4)
C8_9 C 0.92197(27) 0.16769(19) 0.2266(4)
H4_9 H 0.874(3) 0.134(2) 0.209(5)
loop_
_geom_bond_atom_site_label_1
_geom_bond_atom_site_label_2
_geom_bond_site_symmetry_1
_geom_bond_site_symmetry_2
Cu3 N3 1_555 1_555
O3 Cu1 1_555 1_555
O4 C6 1_555 1_555
N3 C9 1_555 1_555
N4 Cu1 1_555 1_555
N6 C8 1_555 1_555
C6 O3 1_555 1_555
C7 C6 1_555 1_555
C8 C7 1_555 1_555
C9 N6 1_555 1_555
C10 N3 1_555 1_555
H4 C8 1_555 1_555
H5 C9 1_555 1_555
H6 C10 1_555 1_555
C7 C10 1_555 1_555
Cu3_2 N3_2 1_555 1_555
O3_2 Cu1_2 1_555 1_555
O4_2 C6_2 1_555 1_555
N3_2 C9_2 1_555 1_555
N4_2 Cu1_2 1_555 1_555
N6_2 C8_2 1_555 1_555
C6_2 O3_2 1_555 1_555
C7_2 C6_2 1_555 1_555
C8_2 C7_2 1_555 1_555
C9_2 N6_2 1_555 1_555
C10_2 N3_2 1_555 1_555
H4_2 C8_2 1_555 1_555
H5_2 C9_2 1_555 1_555
H6_2 C10_2 1_555 1_555
C7_2 C10_2 1_555 1_555
Cu3_3 N3_3 1_555 1_555
O3_3 Cu1_3 1_555 1_555
O4_3 C6_3 1_555 1_555
N3_3 C9_3 1_555 1_555
N4_3 Cu1_3 1_555 1_555
N6_3 C8_3 1_555 1_555
C6_3 O3_3 1_555 1_555
C7_3 C6_3 1_555 1_555
C8_3 C7_3 1_555 1_555
C9_3 N6_3 1_555 1_555
C10_3 N3_3 1_555 1_555
H4_3 C8_3 1_555 1_555
H5_3 C9_3 1_555 1_555
H6_3 C10_3 1_555 1_555
C7_3 C10_3 1_555 1_555
N1 C4 1_555 1_555
N2 C3 1_555 1_555
C2 C3 1_555 1_555
C3 H1 1_555 1_555
C4 N2 1_555 1_555
C5 N1 1_555 1_555
H2 C4 1_555 1_555
H3 C5 1_555 1_555
Cu3 N1 1_555 1_555
C2 C5 1_555 1_555
N1_2 C4_2 1_555 1_555
C5_2 N1_2 1_555 1_555
H2_2 C4_2 1_555 1_555
H3_2 C5_2 1_555 1_555
Cu3_2 N1_2 1_555 1_555
C9_4 N6_4 1_555 1_555
H5_4 C9_4 1_555 1_555
N1_3 C4_3 1_555 1_555
C5_3 N1_3 1_555 1_555
H2_3 C4_3 1_555 1_555
H3_3 C5_3 1_555 1_555
Cu3_3 N1_3 1_555 1_555
Cu3_3 O1 1_555 1_555
O1 C1 1_555 1_555
O2 C1 1_555 1_555
C1 C2_2 1_555 1_555
C2_2 C3_2 1_555 1_555
C3_2 H1_2 1_555 1_555
C5_4 N4_2 1_555 1_555
H3_4 C5_4 1_555 1_555
O3_4 Cu3_3 1_555 1_555
O4_4 C6_4 1_555 1_555
C6_4 O3_4 1_555 1_555
C2_2 C5_4 1_555 1_555
Cu3 O1_2 1_555 1_555
O1_2 C1_2 1_555 1_555
O2_2 C1_2 1_555 1_555
C1_2 C2_3 1_555 1_555
C2_3 C3_3 1_555 1_555
C3_3 H1_3 1_555 1_555
C5_5 N4_3 1_555 1_555
H3_5 C5_5 1_555 1_555
O3_5 Cu3 1_555 1_555
O4_5 C6_5 1_555 1_555
C6_5 O3_5 1_555 1_555
C2_3 C5_5 1_555 1_555
Cu3_2 O1_3 1_555 1_555
O1_3 C1_3 1_555 1_555
O2_3 C1_3 1_555 1_555
C1_3 C2_4 1_555 1_555
C2_4 C3_4 1_555 1_555
C3_4 H1_4 1_555 1_555
C5_6 N4 1_555 1_555
H3_6 C5_6 1_555 1_555
O3_6 Cu3_2 1_555 1_555
O4_6 C6_6 1_555 1_555
C6_6 O3_6 1_555 1_555
C2_4 C5_6 1_555 1_555
C4_4 N2_2 1_555 1_555
H2_4 C4_4 1_555 1_555
C9_5 N6_5 1_555 1_555
H5_5 C9_5 1_555 1_555
Cu1_6 O1_4 1_555 1_555
O1_4 C1_4 1_555 1_555
O2_4 C1_4 1_555 1_555
N1_4 C4_5 1_555 1_555
N2_3 C3_5 1_555 1_555
C1_4 C2_5 1_555 1_555
C2_5 C3_5 1_555 1_555
C3_5 H1_5 1_555 1_555
C4_5 N2_3 1_555 1_555
C5_7 N1_4 1_555 1_555
H2_5 C4_5 1_555 1_555
H3_7 C5_7 1_555 1_555
Cu2 N1_4 1_555 1_555
N5 Cu1_6 1_555 1_555
C2_5 C5_7 1_555 1_555
Cu1_7 O1_5 1_555 1_555
O1_5 C1_5 1_555 1_555
O2_5 C1_5 1_555 1_555
N1_5 C4_6 1_555 1_555
N2_4 C3_6 1_555 1_555
C1_5 C2_6 1_555 1_555
C2_6 C3_6 1_555 1_555
C3_6 H1_6 1_555 1_555
C4_6 N2_4 1_555 1_555
C5_8 N1_5 1_555 1_555
H2_6 C4_6 1_555 1_555
H3_8 C5_8 1_555 1_555
Cu2_2 N1_5 1_555 1_555
N5_2 Cu1_7 1_555 1_555
C2_6 C5_8 1_555 1_555
Cu1_8 O1_6 1_555 1_555
O1_6 C1_6 1_555 1_555
O2_6 C1_6 1_555 1_555
N1_6 C4_7 1_555 1_555
N2_5 C3_7 1_555 1_555
C1_6 C2_7 1_555 1_555
C2_7 C3_7 1_555 1_555
C3_7 H1_7 1_555 1_555
C4_7 N2_5 1_555 1_555
C5_9 N1_6 1_555 1_555
H2_7 C4_7 1_555 1_555
H3_9 C5_9 1_555 1_555
Cu2_3 N1_6 1_555 1_555
N5_3 Cu1_8 1_555 1_555
C2_7 C5_9 1_555 1_555
Cu2_3 O1_7 1_555 1_555
O1_7 C1_7 1_555 1_555
O2_7 C1_7 1_555 1_555
O3_7 Cu2_3 1_555 1_555
O4_7 C6_7 1_555 1_555
N5_4 Cu2_3 1_555 1_555
C6_7 O3_7 1_555 1_555
C7_4 C6_7 1_555 1_555
C8_4 C7_4 1_555 1_555
C10_4 N5_2 1_555 1_555
H4_4 C8_4 1_555 1_555
H6_4 C10_4 1_555 1_555
C7_4 C10_4 1_555 1_555
Cu2 O1_8 1_555 1_555
O1_8 C1_8 1_555 1_555
O2_8 C1_8 1_555 1_555
O3_8 Cu2 1_555 1_555
O4_8 C6_8 1_555 1_555
N5_5 Cu2 1_555 1_555
C6_8 O3_8 1_555 1_555
C7_5 C6_8 1_555 1_555
C8_5 C7_5 1_555 1_555
C10_5 N5_3 1_555 1_555
H4_5 C8_5 1_555 1_555
H6_5 C10_5 1_555 1_555
C7_5 C10_5 1_555 1_555
Cu2_2 O1_9 1_555 1_555
O1_9 C1_9 1_555 1_555
O2_9 C1_9 1_555 1_555
O3_9 Cu2_2 1_555 1_555
O4_9 C6_9 1_555 1_555
N5_6 Cu2_2 1_555 1_555
C6_9 O3_9 1_555 1_555
C7_6 C6_9 1_555 1_555
C8_6 C7_6 1_555 1_555
C10_6 N5 1_555 1_555
H4_6 C8_6 1_555 1_555
H6_6 C10_6 1_555 1_555
C7_6 C10_6 1_555 1_555
N5_5 C9_6 1_555 1_555
N6_6 C8_7 1_555 1_555
C8_7 C7_7 1_555 1_555
C9_6 N6_6 1_555 1_555
C10_7 N5_5 1_555 1_555
H4_7 C8_7 1_555 1_555
H5_6 C9_6 1_555 1_555
H6_7 C10_7 1_555 1_555
C7_7 C10_7 1_555 1_555
C4_8 N2_6 1_555 1_555
H2_8 C4_8 1_555 1_555
N5_6 C9_7 1_555 1_555
C10_8 N5_6 1_555 1_555
H5_7 C9_7 1_555 1_555
H6_8 C10_8 1_555 1_555
N5_4 C9_8 1_555 1_555
C10_9 N5_4 1_555 1_555
H5_8 C9_8 1_555 1_555
H6_9 C10_9 1_555 1_555
C9_9 N6_7 1_555 1_555
H5_9 C9_9 1_555 1_555
C4_9 N2_7 1_555 1_555
H2_9 C4_9 1_555 1_555
N2_8 C3_8 1_555 1_555
C2_8 C3_8 1_555 1_555
C3_8 H1_8 1_555 1_555
N2_9 C3_9 1_555 1_555
C2_9 C3_9 1_555 1_555
C3_9 H1_9 1_555 1_555
N6_8 C8_8 1_555 1_555
C8_8 C7_8 1_555 1_555
H4_8 C8_8 1_555 1_555
N6_9 C8_9 1_555 1_555
C8_9 C7_9 1_555 1_555
H4_9 C8_9 1_555 1_555

#END
