
###############################################################################
#
# This file contains modified crystal structure data generated from the
# MOF subset of the Cambridge Structural Database (CSD) v543 
# hosted by the Cambridge Crystallographic Data Centre (CCDC).
#
# This work is licensed under the Creative Commons
# Attribution-NonCommercial-ShareAlike 4.0 International License.
# To view a copy of this license, visit
# http://creativecommons.org/licenses/by-nc-sa/4.0/
# or send a letter to
# Creative Commons, PO Box 1866, Mountain View, CA 94042, USA.
#
# CIF created using the CSD Python API on 29 September 2022
# The structure has been converted into the P1 space group
# The structure has a 3D framework
# The original CSD entry AMAGAX is in the rhombohedral crystal system
# The framework has been calculated to contain at least 10.0% void space
# The void calculation uses a probe of radius 1.32A, grid spacing 0.4
#
###############################################################################

data_AMAGAX
_chemical_formula_moiety         '(C360 H216 Cu36 N144 O144)n'
_symmetry_cell_setting           triclinic
_symmetry_space_group_name_H-M   'P 1'
_symmetry_Int_Tables_number      1
_space_group_name_Hall           'P 1'
loop_
_symmetry_equiv_pos_site_id
_symmetry_equiv_pos_as_xyz
1 x,y,z
_cell_length_a                   43.571(6)
_cell_length_b                   43.571(6)
_cell_length_c                   7.7180(15)
_cell_angle_alpha                90
_cell_angle_beta                 90
_cell_angle_gamma                120
_cell_volume                     12689.1
loop_
_atom_site_label
_atom_site_type_symbol
_atom_site_fract_x
_atom_site_fract_y
_atom_site_fract_z
Cu1 Cu 0.08030(3) 0.16642(2) 0.16715(9)
O5 O 0.05949(15) 0.15296(18) 0.3973(6)
O6 O 0.00381(18) 0.12837(19) 0.3001(7)
O8 O 0.15715(16) 0.20727(18) 0.0383(7)
N1 N 0.06055(15) 0.19877(18) 0.1307(7)
N2 N 0.04467(17) 0.24066(17) 0.2293(8)
N6 N 0.0235(2) 0.1150(2) 0.8964(8)
C4 C 0.05660(18) 0.2186(2) 0.2531(9)
H2 H 0.0631 0.2165 0.3680
C5 C 0.03522(18) 0.2430(2) 0.0641(8)
H3 H 0.0275 0.2594 0.0390
C11 C 0.0260(2) 0.1356(2) 0.4135(10)
C12 C 0.0139(2) 0.1236(2) 0.5970(10)
C13 C 0.0351(2) 0.1247(2) 0.7309(9)
H7 H 0.0594 0.1326 0.7068
N10 N 0.0997(2) 0.13357(28) 0.2026(8)
N5 N 0.13357(28) 0.03387(19) 0.7974(8)
C14 C 0.1137(3) 0.0107(2) 0.9183(10)
C15 C 0.1317(4) 0.0218(2) 0.6346(10)
H9 H 0.1455 0.0378 0.5452
Cu3 Cu 0.16642(5) 0.08612(4) 0.83285(9)
O5_2 O 0.15296(18) 0.09347(23) 0.6027(6)
O6_2 O 0.12837(19) 0.12456(26) 0.6999(7)
O8_2 O 0.20727(18) 0.05012(24) 0.9617(7)
N1_2 N 0.19877(18) 0.13822(23) 0.8693(7)
N2_2 N 0.24066(17) 0.19599(24) 0.7707(8)
N6_2 N 0.1150(2) 0.0915(3) 0.1036(8)
C4_2 C 0.2186(2) 0.16200(27) 0.7469(9)
H2_2 H 0.2165 0.1534 0.6320
C5_2 C 0.2430(2) 0.20778(27) 0.9359(8)
H3_2 H 0.2594 0.2319 0.9610
C11_2 C 0.1356(2) 0.1096(3) 0.5865(10)
C12_2 C 0.1236(2) 0.1097(3) 0.4030(10)
C13_2 C 0.1247(2) 0.0896(3) 0.2691(9)
H7_2 H 0.1326 0.0732 0.2932
C14_2 C 0.1030(2) 0.1137(3) 0.0817(10)
C15_2 C 0.1099(3) 0.1317(4) 0.3654(10)
H9_2 H 0.1077 0.1455 0.4548
O1 O 0.00673(13) 0.23891(13) 0.7285(5)
O2 O 0.03203(15) 0.20799(17) 0.6336(6)
O7 O 0.10138(14) 0.18014(17) 0.9374(6)
N7 N 0.19587(15) 0.23466(18) 0.5413(7)
N8 N 0.13790(19) 0.2183(2) 0.4399(8)
C1 C 0.02451(18) 0.22256(19) 0.7457(8)
C2 C 0.03654(16) 0.22228(19) 0.9306(9)
C3 C 0.05004(18) 0.2010(2) 0.9694(9)
H1 H 0.0522 0.1873 0.8797
C16 C 0.1350(2) 0.1986(2) 0.9219(9)
C17 C 0.1475(2) 0.2109(2) 0.7392(9)
C18 C 0.18280(17) 0.2246(2) 0.7025(9)
H10 H 0.1985 0.2271 0.7938
C19 C 0.1720(2) 0.2303(2) 0.4176(9)
H11 H 0.1808 0.2366 0.3027
C20 C 0.1259(2) 0.2090(2) 0.6041(9)
H12 H 0.1016 0.2008 0.6272
Cu4 Cu 0.24727(2) 0.25190(4) 0.50297(9)
N9 N 0.03078(17) 0.29900(25) 0.5342(7)
Cu2 Cu 0.25190(4) 0.00463(3) 0.49703(9)
O3 O 0.27383(21) 0.01794(15) 0.2702(6)
O4 O 0.3293(3) 0.0366(2) 0.3639(7)
C6 C 0.3077(3) 0.0318(2) 0.2523(9)
C7 C 0.3200(3) 0.0435(2) 0.0692(10)
C8 C 0.3548(3) 0.0546(2) 0.0288(10)
H4 H 0.3702 0.0549 0.1169
N11 N 0.23466(27) 0.03879(23) 0.4587(7)
O3_2 O 0.07744(15) 0.39284(21) 0.9369(6)
N4 N 0.07640(18) 0.35494(27) 0.4377(8)
C6_2 C 0.0574(2) 0.3590(3) 0.9190(9)
C7_2 C 0.0568(2) 0.3467(3) 0.7359(10)
C8_2 C 0.0331(2) 0.3119(3) 0.6955(10)
H4_2 H 0.0180 0.2965 0.7836
C9 C 0.0524(2) 0.3212(3) 0.4152(9)
H5 H 0.0504 0.3119 0.3018
C10 C 0.0787(2) 0.3674(3) 0.6015(9)
H6 H 0.0960 0.3913 0.6255
H11_2 H 0.0967 0.6109 0.9694
O1_2 O 0.23891(13) 0.23218(18) 0.2715(5)
O2_2 O 0.20799(17) 0.17596(23) 0.3664(6)
O3_3 O 0.25589(15) 0.27383(21) 0.7298(6)
O4_2 O 0.2927(2) 0.3293(3) 0.6361(7)
O7_2 O 0.18014(17) 0.07876(22) 0.0626(6)
N8_2 N 0.2183(2) 0.08040(28) 0.5601(8)
C1_2 C 0.22256(19) 0.19805(26) 0.2543(8)
C2_2 C 0.22228(19) 0.18574(25) 0.0694(9)
C3_2 C 0.2010(2) 0.15096(27) 0.0306(9)
H1_2 H 0.1873 0.1351 0.1203
C6_3 C 0.2759(2) 0.3077(3) 0.7477(9)
C7_3 C 0.2765(2) 0.3200(3) 0.9308(10)
C8_3 C 0.3002(2) 0.3548(3) 0.9712(10)
H4_3 H 0.3153 0.3702 0.8831
C16_2 C 0.1986(2) 0.0636(3) 0.0781(9)
C17_2 C 0.2109(2) 0.0634(3) 0.2608(9)
C18_2 C 0.2246(2) 0.04180(26) 0.2975(9)
H10_2 H 0.2271 0.0286 0.2062
C19_2 C 0.2303(2) 0.0583(3) 0.5824(9)
H11_3 H 0.2366 0.0558 0.6973
C20_2 C 0.2090(2) 0.0831(3) 0.3959(9)
H12_2 H 0.2008 0.0992 0.3728
N9_2 N 0.29900(25) 0.26821(30) 0.4658(7)
O3_4 O 0.39284(21) 0.31539(15) 0.0631(6)
N4_2 N 0.35494(27) 0.2785(2) 0.5623(8)
C6_4 C 0.3590(3) 0.3015(2) 0.0810(9)
C7_4 C 0.3467(3) 0.2898(2) 0.2641(10)
C8_4 C 0.3119(3) 0.2787(2) 0.3045(10)
H4_4 H 0.2965 0.2784 0.2164
C9_2 C 0.3212(3) 0.2687(2) 0.5848(9)
H5_2 H 0.3119 0.2614 0.6982
C10_2 C 0.3674(3) 0.2886(2) 0.3985(9)
H6_2 H 0.3913 0.2952 0.3745
H11_4 H 0.6109 0.5141 0.0306
H8 H 0.9803 0.0959 0.0324
N5_2 N 0.96613(19) 0.0997(2) 0.7974(8)
C14_3 C 0.9893(2) 0.1030(2) 0.9183(10)
C15_3 C 0.9782(2) 0.1099(3) 0.6346(10)
H9_3 H 0.9622 0.1077 0.5452
Cu3_2 Cu 0.91388(4) 0.08030(3) 0.83285(9)
O5_3 O 0.90653(23) 0.05949(15) 0.6027(6)
O6_3 O 0.87544(26) 0.00381(18) 0.6999(7)
O8_3 O 0.94988(24) 0.15715(16) 0.9617(7)
N1_3 N 0.86178(23) 0.06055(15) 0.8693(7)
N2_3 N 0.80401(24) 0.04467(17) 0.7707(8)
N6_3 N 0.9085(3) 0.0235(2) 0.1036(8)
C4_3 C 0.83800(27) 0.05660(18) 0.7469(9)
H2_3 H 0.8466 0.0631 0.6320
C5_3 C 0.79222(27) 0.03522(18) 0.9359(8)
H3_3 H 0.7681 0.0275 0.9610
C11_3 C 0.8904(3) 0.0260(2) 0.5865(10)
C12_3 C 0.8903(3) 0.0139(2) 0.4030(10)
C13_3 C 0.9104(3) 0.0351(2) 0.2691(9)
H7_3 H 0.9268 0.0594 0.2932
Cu2_2 Cu 0.99537(3) 0.24727(2) 0.49703(9)
O3_5 O 0.98206(15) 0.25589(15) 0.2702(6)
O4_3 O 0.9634(2) 0.2927(2) 0.3639(7)
C6_5 C 0.9682(2) 0.2759(2) 0.2523(9)
C7_5 C 0.9565(2) 0.2765(2) 0.0692(10)
C8_5 C 0.9454(2) 0.3002(2) 0.0288(10)
H4_5 H 0.9451 0.3153 0.1169
N11_2 N 0.96121(23) 0.19587(15) 0.4587(7)
O1_3 O 0.76782(18) 0.00673(13) 0.2715(5)
O2_3 O 0.82404(23) 0.03203(15) 0.3664(6)
O7_3 O 0.92124(22) 0.10138(14) 0.0626(6)
N8_3 N 0.91960(28) 0.13790(19) 0.5601(8)
C1_3 C 0.80195(26) 0.02451(18) 0.2543(8)
C2_3 C 0.81426(25) 0.03654(16) 0.0694(9)
C3_3 C 0.84904(27) 0.05004(18) 0.0306(9)
H1_3 H 0.8649 0.0522 0.1203
C16_3 C 0.9364(3) 0.1350(2) 0.0781(9)
C17_3 C 0.9366(3) 0.1475(2) 0.2608(9)
C18_3 C 0.95820(26) 0.18280(17) 0.2975(9)
H10_3 H 0.9714 0.1985 0.2062
C19_3 C 0.9417(3) 0.1720(2) 0.5824(9)
H11_5 H 0.9442 0.1808 0.6973
C20_3 C 0.9169(3) 0.1259(2) 0.3959(9)
H12_3 H 0.9008 0.1016 0.3728
N9_3 N 0.73179(30) 0.03078(17) 0.4658(7)
O3_6 O 0.68461(15) 0.07744(15) 0.0631(6)
N4_3 N 0.7215(2) 0.07640(18) 0.5623(8)
C6_6 C 0.6985(2) 0.0574(2) 0.0810(9)
C7_6 C 0.7102(2) 0.0568(2) 0.2641(10)
C8_6 C 0.7213(2) 0.0331(2) 0.3045(10)
H4_6 H 0.7216 0.0180 0.2164
C9_3 C 0.7313(2) 0.0524(2) 0.5848(9)
H5_3 H 0.7386 0.0504 0.6982
C10_3 C 0.7114(2) 0.0787(2) 0.3985(9)
H6_3 H 0.7048 0.0960 0.3745
H11_6 H 0.4859 0.0967 0.0306
N3 N 0.93488(18) 0.30255(17) 0.8675(7)
N4_4 N 0.9452(2) 0.25693(18) 0.7710(8)
C9_4 C 0.9354(2) 0.2809(2) 0.7485(9)
H5_4 H 0.9281 0.2829 0.6351
C10_4 C 0.9553(2) 0.2546(2) 0.9348(9)
H6_4 H 0.9619 0.2373 0.9588
Cu5 Cu 0.91857(4) 0.33796(3) 0.83036(9)
N3_2 N 0.69745(17) 0.63233(25) 0.8675(7)
N4_5 N 0.74307(18) 0.68827(27) 0.7710(8)
C9_5 C 0.7191(2) 0.6545(3) 0.7485(9)
H5_5 H 0.7171 0.6452 0.6351
C10_5 C 0.7454(2) 0.7007(3) 0.9348(9)
H6_5 H 0.7627 0.7246 0.9588
Cu5_2 Cu 0.66204(3) 0.58060(5) 0.83036(9)
N3_3 N 0.36767(25) 0.06512(18) 0.8675(7)
N4_6 N 0.31173(27) 0.0548(2) 0.7710(8)
C9_6 C 0.3455(3) 0.0646(2) 0.7485(9)
H5_6 H 0.3548 0.0719 0.6351
C10_6 C 0.2993(3) 0.0447(2) 0.9348(9)
H6_6 H 0.2754 0.0381 0.9588
Cu5_3 Cu 0.41940(5) 0.08143(4) 0.83036(9)
N5_3 N 0.63280(19) 0.4330(2) 0.1307(8)
N6_4 N 0.6902(2) 0.4483(2) 0.2297(8)
C13_4 C 0.7018(2) 0.4580(2) 0.0642(9)
H7_4 H 0.7261 0.4659 0.0401
C14_4 C 0.6560(2) 0.4363(2) 0.2516(10)
H8_2 H 0.6470 0.4292 0.3657
Cu3_3 Cu 0.58055(4) 0.41363(3) 0.16618(9)
O2_4 O 0.69870(15) 0.54132(17) 0.9669(6)
O3_7 O 0.64873(15) 0.58922(15) 0.6035(6)
O4_4 O 0.6301(2) 0.6260(2) 0.6972(7)
N3_4 N 0.60155(18) 0.63588(17) 0.2008(7)
N4_7 N 0.6119(2) 0.59026(18) 0.1043(8)
N7_2 N 0.86254(15) 0.56799(18) 0.8746(7)
N8_4 N 0.80457(19) 0.5516(2) 0.7732(8)
C6_7 C 0.6349(2) 0.6092(2) 0.5856(9)
C7_7 C 0.6232(2) 0.6098(2) 0.4025(10)
C8_7 C 0.6121(2) 0.6335(2) 0.3621(10)
H4_7 H 0.6118 0.6486 0.4502
C9_7 C 0.6021(2) 0.6142(2) 0.0818(9)
C10_7 C 0.6220(2) 0.5879(2) 0.2681(9)
H6_7 H 0.6286 0.5706 0.2921
C19_4 C 0.8387(2) 0.5636(2) 0.7509(9)
H11_7 H 0.8475 0.5699 0.6360
C20_4 C 0.7926(2) 0.5423(2) 0.9374(9)
H12_4 H 0.7683 0.5341 0.9605
Cu4_2 Cu 0.91394(2) 0.58523(4) 0.83630(9)
Cu5_4 Cu 0.58523(4) 0.67130(3) 0.16370(9)
N11_3 N 0.62788(23) 0.52920(15) 0.7920(7)
N5_4 N 0.5670(2) 0.19976(28) 0.1307(8)
N6_5 N 0.5517(2) 0.2418(3) 0.2297(8)
C13_5 C 0.5420(2) 0.2437(3) 0.0642(9)
H7_5 H 0.5341 0.2601 0.0401
C14_5 C 0.5637(2) 0.2196(3) 0.2516(10)
H8_3 H 0.5708 0.2177 0.3657
Cu3_4 Cu 0.58637(3) 0.16691(5) 0.16618(9)
O2_5 O 0.45868(17) 0.15737(23) 0.9669(6)
O3_8 O 0.41078(15) 0.05950(21) 0.6035(6)
O4_5 O 0.3740(2) 0.0040(3) 0.6972(7)
N4_8 N 0.40974(18) 0.02160(27) 0.1043(8)
N7_3 N 0.43201(18) 0.29454(23) 0.8746(7)
N8_5 N 0.4484(2) 0.25293(28) 0.7732(8)
C6_8 C 0.3908(2) 0.0256(3) 0.5856(9)
C7_8 C 0.3902(2) 0.0133(3) 0.4025(10)
C10_8 C 0.4121(2) 0.0340(3) 0.2681(9)
H6_8 H 0.4294 0.0579 0.2921
C19_5 C 0.4364(2) 0.2750(3) 0.7509(9)
H11_8 H 0.4301 0.2775 0.6360
C20_5 C 0.4577(2) 0.2502(3) 0.9374(9)
H12_5 H 0.4659 0.2341 0.9605
Cu4_3 Cu 0.41477(4) 0.32870(4) 0.83630(9)
N11_4 N 0.47080(15) 0.09867(27) 0.7920(7)
N3_5 N 0.36412(17) 0.96566(25) 0.2008(7)
C8_8 C 0.3665(2) 0.9785(3) 0.3621(10)
H4_8 H 0.3514 0.9631 0.4502
C9_8 C 0.3858(2) 0.9878(3) 0.0818(9)
Cu5_5 Cu 0.32870(3) 0.91394(5) 0.16370(9)
N3_6 N 0.03434(25) 0.39845(18) 0.2008(7)
C8_9 C 0.0215(3) 0.3879(2) 0.3621(10)
H4_9 H 0.0369 0.3882 0.4502
C9_9 C 0.0122(3) 0.3979(2) 0.0818(9)
Cu5_6 Cu 0.08606(5) 0.41477(4) 0.16370(9)
N5_5 N 0.80024(28) 0.36720(19) 0.1307(8)
N6_6 N 0.7582(3) 0.3098(2) 0.2297(8)
C13_6 C 0.7563(3) 0.2982(2) 0.0642(9)
H7_6 H 0.7399 0.2739 0.0401
C14_6 C 0.7804(3) 0.3440(2) 0.2516(10)
H8_4 H 0.7823 0.3530 0.3657
Cu3_5 Cu 0.83309(5) 0.41945(4) 0.16618(9)
O2_6 O 0.84263(23) 0.30130(15) 0.9669(6)
O3_9 O 0.94050(21) 0.35127(15) 0.6035(6)
O4_6 O 0.9960(3) 0.3699(2) 0.6972(7)
N4_9 N 0.97840(27) 0.3881(2) 0.1043(8)
N7_4 N 0.70546(23) 0.13746(15) 0.8746(7)
N8_6 N 0.74707(28) 0.19543(19) 0.7732(8)
C6_9 C 0.9744(3) 0.3651(2) 0.5856(9)
C7_9 C 0.9867(3) 0.3768(2) 0.4025(10)
C10_9 C 0.9660(3) 0.3780(2) 0.2681(9)
H6_9 H 0.9421 0.3714 0.2921
C19_6 C 0.7250(3) 0.1613(2) 0.7509(9)
H11_9 H 0.7225 0.1525 0.6360
C20_6 C 0.7498(3) 0.2074(2) 0.9374(9)
H12_6 H 0.7659 0.2317 0.9605
Cu4_4 Cu 0.67130(4) 0.08606(2) 0.83630(9)
N11_5 N 0.90133(27) 0.37212(23) 0.7920(7)
Cu1_2 Cu 0.41363(3) 0.83309(2) 0.83382(9)
O1_4 O 0.34006(13) 0.90558(13) 0.3952(5)
O2_7 O 0.36536(15) 0.87466(17) 0.3003(6)
O4_7 O 0.2967(2) 0.9594(2) 0.0306(7)
O6_4 O 0.33714(18) 0.79504(19) 0.9668(7)
O7_4 O 0.43471(14) 0.84681(17) 0.6041(6)
O8_4 O 0.49048(16) 0.87394(18) 0.7050(7)
N1_4 N 0.39388(15) 0.86544(18) 0.7974(7)
N2_4 N 0.37800(17) 0.90733(17) 0.8960(8)
N7_5 N 0.52920(15) 0.90133(18) 0.2080(7)
N8_7 N 0.47123(19) 0.8850(2) 0.1066(8)
C1_4 C 0.35784(18) 0.88923(19) 0.4124(8)
C2_4 C 0.36987(16) 0.88895(19) 0.5973(9)
C3_4 C 0.38337(18) 0.8677(2) 0.6361(9)
H1_4 H 0.3855 0.8540 0.5464
C4_4 C 0.38993(18) 0.8853(2) 0.9198(9)
C5_4 C 0.36855(18) 0.9097(2) 0.7308(8)
H3_4 H 0.3608 0.9261 0.7057
C16_4 C 0.4683(2) 0.8653(2) 0.5886(9)
C17_4 C 0.4808(2) 0.8776(2) 0.4059(9)
C18_4 C 0.51613(17) 0.8913(2) 0.3692(9)
H10_4 H 0.5318 0.8938 0.4605
C19_7 C 0.5053(2) 0.8970(2) 0.0843(9)
C20_7 C 0.4592(2) 0.8757(2) 0.2708(9)
H12_7 H 0.4349 0.8675 0.2939
Cu4_5 Cu 0.58060(2) 0.91857(4) 0.16964(9)
N10_2 N 0.4330(2) 0.80024(28) 0.8693(8)
N11_6 N 0.29454(23) 0.86254(15) 0.1254(7)
Cu1_3 Cu 0.16691(2) 0.58055(4) 0.83382(9)
O1_5 O 0.09442(13) 0.43449(18) 0.3952(5)
O2_8 O 0.12534(17) 0.49071(23) 0.3003(6)
O4_8 O 0.0406(2) 0.3374(3) 0.0306(7)
O6_5 O 0.20496(19) 0.54211(26) 0.9668(7)
O7_5 O 0.15319(17) 0.58791(22) 0.6041(6)
O8_5 O 0.12606(18) 0.61655(24) 0.7050(7)
N1_5 N 0.13456(18) 0.52845(23) 0.7974(7)
N2_5 N 0.09267(17) 0.47068(24) 0.8960(8)
N7_6 N 0.09867(18) 0.62788(23) 0.2080(7)
N8_8 N 0.1150(2) 0.58627(28) 0.1066(8)
C1_5 C 0.11077(19) 0.46862(26) 0.4124(8)
C2_5 C 0.11105(19) 0.48093(25) 0.5973(9)
C3_5 C 0.1323(2) 0.51571(27) 0.6361(9)
H1_5 H 0.1460 0.5316 0.5464
C4_5 C 0.1147(2) 0.50467(27) 0.9198(9)
C5_5 C 0.0903(2) 0.45889(27) 0.7308(8)
H3_5 H 0.0739 0.4348 0.7057
C16_5 C 0.1347(2) 0.6031(3) 0.5886(9)
C17_5 C 0.1224(2) 0.6033(3) 0.4059(9)
C18_5 C 0.1087(2) 0.62487(26) 0.3692(9)
H10_5 H 0.1062 0.6381 0.4605
C19_8 C 0.1030(2) 0.6084(3) 0.0843(9)
C20_8 C 0.1243(2) 0.5836(3) 0.2708(9)
H12_8 H 0.1325 0.5675 0.2939
Cu4_6 Cu 0.08143(4) 0.66204(4) 0.16964(9)
N10_3 N 0.19976(28) 0.63280(34) 0.8693(8)
N11_7 N 0.13746(15) 0.43201(27) 0.1254(7)
Cu1_4 Cu 0.41945(4) 0.58637(3) 0.83382(9)
O1_6 O 0.56551(18) 0.65994(13) 0.3952(5)
O2_9 O 0.50929(23) 0.63464(15) 0.3003(6)
O4_9 O 0.6626(3) 0.7033(2) 0.0306(7)
O6_6 O 0.45789(26) 0.66286(18) 0.9668(7)
O7_6 O 0.41209(22) 0.56529(14) 0.6041(6)
O8_6 O 0.38345(24) 0.50952(16) 0.7050(7)
N1_6 N 0.47155(23) 0.60612(15) 0.7974(7)
N2_6 N 0.52932(24) 0.62200(17) 0.8960(8)
N7_7 N 0.37212(23) 0.47080(15) 0.2080(7)
N8_9 N 0.41373(28) 0.52877(19) 0.1066(8)
C1_6 C 0.53138(26) 0.64216(18) 0.4124(8)
C2_6 C 0.51907(25) 0.63013(16) 0.5973(9)
C3_6 C 0.48429(27) 0.61663(18) 0.6361(9)
H1_6 H 0.4684 0.6145 0.5464
C4_6 C 0.49533(27) 0.61007(18) 0.9198(9)
C5_6 C 0.54111(27) 0.63145(18) 0.7308(8)
H3_6 H 0.5652 0.6392 0.7057
C16_6 C 0.3969(3) 0.5317(2) 0.5886(9)
C17_6 C 0.3967(3) 0.5192(2) 0.4059(9)
C18_6 C 0.37513(26) 0.48387(17) 0.3692(9)
H10_6 H 0.3619 0.4682 0.4605
C19_9 C 0.3916(3) 0.4947(2) 0.0843(9)
C20_9 C 0.4164(3) 0.5408(2) 0.2708(9)
H12_9 H 0.4325 0.5651 0.2939
Cu4_7 Cu 0.33796(4) 0.41940(2) 0.16964(9)
N10_4 N 0.36720(34) 0.5670(2) 0.8693(8)
N11_8 N 0.56799(27) 0.70546(23) 0.1254(7)
N3_7 N 0.06512(18) 0.69745(17) 0.1325(7)
N4_10 N 0.0548(2) 0.74307(18) 0.2290(8)
C9_10 C 0.0646(2) 0.7191(2) 0.2515(9)
H5_7 H 0.0719 0.7171 0.3649
C10_10 C 0.0447(2) 0.7454(2) 0.0652(9)
H6_10 H 0.0381 0.7627 0.0412
N3_8 N 0.30255(17) 0.36767(25) 0.1325(7)
N4_11 N 0.25693(18) 0.31173(27) 0.2290(8)
C9_11 C 0.2809(2) 0.3455(3) 0.2515(9)
H5_8 H 0.2829 0.3548 0.3649
C10_11 C 0.2546(2) 0.2993(3) 0.0652(9)
H6_11 H 0.2373 0.2754 0.0412
N3_9 N 0.63233(25) 0.93488(18) 0.1325(7)
N4_12 N 0.68827(27) 0.9452(2) 0.2290(8)
C9_12 C 0.6545(3) 0.9354(2) 0.2515(9)
H5_9 H 0.6452 0.9281 0.3649
C10_12 C 0.7007(3) 0.9553(2) 0.0652(9)
H6_12 H 0.7246 0.9619 0.0412
O2_10 O 0.30130(15) 0.45868(17) 0.0331(6)
O3_10 O 0.35127(15) 0.41078(15) 0.3965(6)
O4_10 O 0.3699(2) 0.3740(2) 0.3028(7)
N3_10 N 0.39845(18) 0.36412(17) 0.7992(7)
N4_13 N 0.3881(2) 0.40974(18) 0.8957(8)
N8_10 N 0.19543(19) 0.4484(2) 0.2268(8)
C6_10 C 0.3651(2) 0.3908(2) 0.4144(9)
C7_10 C 0.3768(2) 0.3902(2) 0.5975(10)
C8_10 C 0.3879(2) 0.3665(2) 0.6379(10)
H4_10 H 0.3882 0.3514 0.5498
C9_13 C 0.3979(2) 0.3858(2) 0.9182(9)
C10_13 C 0.3780(2) 0.4121(2) 0.7319(9)
H6_13 H 0.3714 0.4294 0.7079
C19_10 C 0.1613(2) 0.4364(2) 0.2491(9)
H11_10 H 0.1525 0.4301 0.3640
C20_10 C 0.2074(2) 0.4577(2) 0.0626(9)
H12_10 H 0.2317 0.4659 0.0395
N6_7 N 0.3098(2) 0.5517(2) 0.7703(8)
C13_7 C 0.2982(2) 0.5420(2) 0.9358(9)
H7_7 H 0.2739 0.5341 0.9599
C14_7 C 0.3440(2) 0.5637(2) 0.7484(10)
H8_5 H 0.3530 0.5708 0.6343
N3_11 N 0.63588(17) 0.03434(25) 0.7992(7)
C8_11 C 0.6335(2) 0.0215(3) 0.6379(10)
H4_11 H 0.6486 0.0369 0.5498
C9_14 C 0.6142(2) 0.0122(3) 0.9182(9)
O2_11 O 0.54132(17) 0.84263(23) 0.0331(6)
O3_11 O 0.58922(15) 0.94050(21) 0.3965(6)
O4_11 O 0.6260(2) 0.9960(3) 0.3028(7)
N4_14 N 0.59026(18) 0.97840(27) 0.8957(8)
N8_11 N 0.5516(2) 0.74707(28) 0.2268(8)
C6_11 C 0.6092(2) 0.9744(3) 0.4144(9)
C7_11 C 0.6098(2) 0.9867(3) 0.5975(10)
C10_14 C 0.5879(2) 0.9660(3) 0.7319(9)
H6_14 H 0.5706 0.9421 0.7079
C19_11 C 0.5636(2) 0.7250(3) 0.2491(9)
H11_11 H 0.5699 0.7225 0.3640
C20_11 C 0.5423(2) 0.7498(3) 0.0626(9)
H12_11 H 0.5341 0.7659 0.0395
N6_8 N 0.4483(2) 0.7582(3) 0.7703(8)
C13_8 C 0.4580(2) 0.7563(3) 0.9358(9)
H7_8 H 0.4659 0.7399 0.9599
C14_8 C 0.4363(2) 0.7804(3) 0.7484(10)
H8_6 H 0.4292 0.7823 0.6343
O2_12 O 0.15737(23) 0.69870(15) 0.0331(6)
O3_12 O 0.05950(21) 0.64873(15) 0.3965(6)
O4_12 O 0.0040(3) 0.6301(2) 0.3028(7)
N4_15 N 0.02160(27) 0.6119(2) 0.8957(8)
N8_12 N 0.25293(28) 0.80457(19) 0.2268(8)
C6_12 C 0.0256(3) 0.6349(2) 0.4144(9)
C7_12 C 0.0133(3) 0.6232(2) 0.5975(10)
C10_15 C 0.0340(3) 0.6220(2) 0.7319(9)
H6_15 H 0.0579 0.6286 0.7079
C19_12 C 0.2750(3) 0.8387(2) 0.2491(9)
H11_12 H 0.2775 0.8475 0.3640
C20_12 C 0.2502(3) 0.7926(2) 0.0626(9)
H12_12 H 0.2341 0.7683 0.0395
N6_9 N 0.2418(3) 0.6902(2) 0.7703(8)
C13_9 C 0.2437(3) 0.7018(2) 0.9358(9)
H7_9 H 0.2601 0.7261 0.9599
C14_9 C 0.2196(3) 0.6560(2) 0.7484(10)
H8_7 H 0.2177 0.6470 0.6343
N3_12 N 0.96566(25) 0.60155(18) 0.7992(7)
C8_12 C 0.9785(3) 0.6121(2) 0.6379(10)
H4_12 H 0.9631 0.6118 0.5498
C9_15 C 0.9878(3) 0.6021(2) 0.9182(9)
O1_7 O 0.65994(13) 0.09442(13) 0.6048(5)
O2_13 O 0.63464(15) 0.12534(17) 0.6997(6)
O4_13 O 0.7033(2) 0.0406(2) 0.9694(7)
O6_7 O 0.66286(18) 0.20496(19) 0.0332(7)
O7_7 O 0.56529(14) 0.15319(17) 0.3959(6)
O8_7 O 0.50952(16) 0.12606(18) 0.2950(7)
N1_7 N 0.60612(15) 0.13456(18) 0.2026(7)
N2_7 N 0.62200(17) 0.09267(17) 0.1040(8)
N8_13 N 0.52877(19) 0.1150(2) 0.8934(8)
C1_7 C 0.64216(18) 0.11077(19) 0.5876(8)
C2_7 C 0.63013(16) 0.11105(19) 0.4027(9)
C3_7 C 0.61663(18) 0.1323(2) 0.3639(9)
H1_7 H 0.6145 0.1460 0.4536
C4_7 C 0.61007(18) 0.1147(2) 0.0802(9)
C5_7 C 0.63145(18) 0.0903(2) 0.2692(8)
H3_7 H 0.6392 0.0739 0.2943
C16_7 C 0.5317(2) 0.1347(2) 0.4114(9)
C17_7 C 0.5192(2) 0.1224(2) 0.5941(9)
C18_7 C 0.48387(17) 0.1087(2) 0.6308(9)
H10_7 H 0.4682 0.1062 0.5395
C19_13 C 0.4947(2) 0.1030(2) 0.9157(9)
C20_13 C 0.5408(2) 0.1243(2) 0.7292(9)
H12_13 H 0.5651 0.1325 0.7061
O1_8 O 0.90558(13) 0.56551(18) 0.6048(5)
O2_14 O 0.87466(17) 0.50929(23) 0.6997(6)
O4_14 O 0.9594(2) 0.6626(3) 0.9694(7)
O6_8 O 0.79504(19) 0.45789(26) 0.0332(7)
O7_8 O 0.84681(17) 0.41209(22) 0.3959(6)
O8_8 O 0.87394(18) 0.38345(24) 0.2950(7)
N1_8 N 0.86544(18) 0.47155(23) 0.2026(7)
N2_8 N 0.90733(17) 0.52932(24) 0.1040(8)
N8_14 N 0.8850(2) 0.41373(28) 0.8934(8)
C1_8 C 0.88923(19) 0.53138(26) 0.5876(8)
C2_8 C 0.88895(19) 0.51907(25) 0.4027(9)
C3_8 C 0.8677(2) 0.48429(27) 0.3639(9)
H1_8 H 0.8540 0.4684 0.4536
C4_8 C 0.8853(2) 0.49533(27) 0.0802(9)
C5_8 C 0.9097(2) 0.54111(27) 0.2692(8)
H3_8 H 0.9261 0.5652 0.2943
C16_8 C 0.8653(2) 0.3969(3) 0.4114(9)
C17_8 C 0.8776(2) 0.3967(3) 0.5941(9)
C18_8 C 0.8913(2) 0.37513(26) 0.6308(9)
H10_8 H 0.8938 0.3619 0.5395
C19_14 C 0.8970(2) 0.3916(3) 0.9157(9)
C20_14 C 0.8757(2) 0.4164(3) 0.7292(9)
H12_14 H 0.8675 0.4325 0.7061
O1_9 O 0.43449(18) 0.34006(13) 0.6048(5)
O2_15 O 0.49071(23) 0.36536(15) 0.6997(6)
O4_15 O 0.3374(3) 0.2967(2) 0.9694(7)
O6_9 O 0.54211(26) 0.33714(18) 0.0332(7)
O7_9 O 0.58791(22) 0.43471(14) 0.3959(6)
O8_9 O 0.61655(24) 0.49048(16) 0.2950(7)
N1_9 N 0.52845(23) 0.39388(15) 0.2026(7)
N2_9 N 0.47068(24) 0.37800(17) 0.1040(8)
N8_15 N 0.58627(28) 0.47123(19) 0.8934(8)
C1_9 C 0.46862(26) 0.35784(18) 0.5876(8)
C2_9 C 0.48093(25) 0.36987(16) 0.4027(9)
C3_9 C 0.51571(27) 0.38337(18) 0.3639(9)
H1_9 H 0.5316 0.3855 0.4536
C4_9 C 0.50467(27) 0.38993(18) 0.0802(9)
C5_9 C 0.45889(27) 0.36855(18) 0.2692(8)
H3_9 H 0.4348 0.3608 0.2943
C16_9 C 0.6031(3) 0.4683(2) 0.4114(9)
C17_9 C 0.6033(3) 0.4808(2) 0.5941(9)
C18_9 C 0.62487(26) 0.51613(17) 0.6308(9)
H10_9 H 0.6381 0.5318 0.5395
C19_15 C 0.6084(3) 0.5053(2) 0.9157(9)
C20_15 C 0.5836(3) 0.4592(2) 0.7292(9)
H12_15 H 0.5675 0.4349 0.7061
H8_8 H 0.9041 0.8844 0.0324
Cu1_5 Cu 0.83358(2) 0.91388(4) 0.16715(9)
O5_4 O 0.84704(18) 0.90653(23) 0.3973(6)
O6_10 O 0.87163(19) 0.87544(26) 0.3001(7)
O8_10 O 0.79273(18) 0.94988(24) 0.0383(7)
N1_10 N 0.80123(18) 0.86178(23) 0.1307(7)
N2_10 N 0.75934(17) 0.80401(24) 0.2293(8)
N5_6 N 0.9003(2) 0.86643(28) 0.7974(8)
N6_10 N 0.8850(2) 0.9085(3) 0.8964(8)
C4_10 C 0.7814(2) 0.83800(27) 0.2531(9)
H2_4 H 0.7835 0.8466 0.3680
C5_10 C 0.7570(2) 0.79222(27) 0.0641(8)
H3_10 H 0.7406 0.7681 0.0390
C11_4 C 0.8644(2) 0.8904(3) 0.4135(10)
C12_4 C 0.8764(2) 0.8903(3) 0.5970(10)
C13_10 C 0.8753(2) 0.9104(3) 0.7309(9)
H7_10 H 0.8674 0.9268 0.7068
C14_10 C 0.8970(2) 0.8863(3) 0.9183(10)
C15_4 C 0.8901(3) 0.8683(4) 0.6346(10)
H9_4 H 0.8923 0.8545 0.5452
Cu3_6 Cu 0.91970(3) 0.83358(5) 0.83285(9)
N10_5 N 0.86643(28) 0.96613(34) 0.2026(8)
O5_5 O 0.94051(15) 0.84704(18) 0.6027(6)
O6_11 O 0.99619(18) 0.87163(19) 0.6999(7)
O8_11 O 0.84285(16) 0.79273(18) 0.9617(7)
N1_11 N 0.93945(15) 0.80123(18) 0.8693(7)
N2_11 N 0.95533(17) 0.75934(17) 0.7707(8)
N6_11 N 0.9765(2) 0.8850(2) 0.1036(8)
C4_11 C 0.94340(18) 0.7814(2) 0.7469(9)
H2_5 H 0.9369 0.7835 0.6320
C5_11 C 0.96478(18) 0.7570(2) 0.9359(8)
H3_11 H 0.9725 0.7406 0.9610
C11_5 C 0.9740(2) 0.8644(2) 0.5865(10)
C12_5 C 0.9861(2) 0.8764(2) 0.4030(10)
C13_11 C 0.9649(2) 0.8753(2) 0.2691(9)
H7_11 H 0.9406 0.8674 0.2932
C14_11 C 0.8863(3) 0.9893(2) 0.0817(10)
C15_5 C 0.8683(4) 0.9782(2) 0.3654(10)
H9_5 H 0.8545 0.9622 0.4548
Cu2_3 Cu 0.75273(2) 0.74810(4) 0.49703(9)
O1_10 O 0.76109(13) 0.76782(18) 0.7285(5)
O2_16 O 0.79201(17) 0.82404(23) 0.6336(6)
O3_13 O 0.74411(15) 0.72617(21) 0.2702(6)
O4_16 O 0.7073(2) 0.6707(3) 0.3639(7)
O7_10 O 0.81986(17) 0.92124(22) 0.9374(6)
N7_8 N 0.76534(18) 0.96121(23) 0.5413(7)
N8_16 N 0.7817(2) 0.91960(28) 0.4399(8)
C1_10 C 0.77744(19) 0.80195(26) 0.7457(8)
C2_10 C 0.77772(19) 0.81426(25) 0.9306(9)
C3_10 C 0.7990(2) 0.84904(27) 0.9694(9)
H1_10 H 0.8127 0.8649 0.8797
C6_13 C 0.7241(2) 0.6923(3) 0.2523(9)
C7_13 C 0.7235(2) 0.6800(3) 0.0692(10)
C8_13 C 0.6998(2) 0.6452(3) 0.0288(10)
H4_13 H 0.6847 0.6298 0.1169
C16_10 C 0.8014(2) 0.9364(3) 0.9219(9)
C17_10 C 0.7891(2) 0.9366(3) 0.7392(9)
C18_10 C 0.7754(2) 0.95820(26) 0.7025(9)
H10_10 H 0.7729 0.9714 0.7938
C19_16 C 0.7697(2) 0.9417(3) 0.4176(9)
H11_13 H 0.7634 0.9442 0.3027
C20_16 C 0.7910(2) 0.9169(3) 0.6041(9)
H12_16 H 0.7992 0.9008 0.6272
Cu4_8 Cu 0.74810(4) 0.99537(4) 0.50297(9)
N9_4 N 0.70100(25) 0.73179(30) 0.5342(7)
N11_9 N 0.80413(15) 0.76534(27) 0.4587(7)
O3_14 O 0.60716(21) 0.68461(15) 0.9369(6)
N4_16 N 0.64506(27) 0.7215(2) 0.4377(8)
C6_14 C 0.6410(3) 0.6985(2) 0.9190(9)
C7_14 C 0.6533(3) 0.7102(2) 0.7359(10)
C8_14 C 0.6881(3) 0.7213(2) 0.6955(10)
H4_14 H 0.7035 0.7216 0.7836
C9_16 C 0.6788(3) 0.7313(2) 0.4152(9)
H5_10 H 0.6881 0.7386 0.3018
C10_16 C 0.6326(3) 0.7114(2) 0.6015(9)
H6_16 H 0.6087 0.7048 0.6255
H11_14 H 0.3891 0.4859 0.9694
O1_11 O 0.99327(13) 0.76109(13) 0.2715(5)
O2_17 O 0.96797(15) 0.79201(17) 0.3664(6)
O7_11 O 0.89862(14) 0.81986(17) 0.0626(6)
N8_17 N 0.86210(19) 0.7817(2) 0.5601(8)
C1_11 C 0.97549(18) 0.77744(19) 0.2543(8)
C2_11 C 0.96346(16) 0.77772(19) 0.0694(9)
C3_11 C 0.94996(18) 0.7990(2) 0.0306(9)
H1_11 H 0.9478 0.8127 0.1203
C16_11 C 0.8650(2) 0.8014(2) 0.0781(9)
C17_11 C 0.8525(2) 0.7891(2) 0.2608(9)
C18_11 C 0.81720(17) 0.7754(2) 0.2975(9)
H10_11 H 0.8015 0.7729 0.2062
C19_17 C 0.8280(2) 0.7697(2) 0.5824(9)
H11_15 H 0.8192 0.7634 0.6973
C20_17 C 0.8741(2) 0.7910(2) 0.3959(9)
H12_17 H 0.8984 0.7992 0.3728
N9_5 N 0.96922(17) 0.70100(25) 0.4658(7)
O3_15 O 0.72617(21) 0.98206(15) 0.7298(6)
O4_17 O 0.6707(3) 0.9634(2) 0.6361(7)
C6_15 C 0.6923(3) 0.9682(2) 0.7477(9)
C7_15 C 0.6800(3) 0.9565(2) 0.9308(10)
C8_15 C 0.6452(3) 0.9454(2) 0.9712(10)
H4_15 H 0.6298 0.9451 0.8831
O3_16 O 0.92256(15) 0.60716(21) 0.0631(6)
N4_17 N 0.92360(18) 0.64506(27) 0.5623(8)
C6_16 C 0.9426(2) 0.6410(3) 0.0810(9)
C7_16 C 0.9432(2) 0.6533(3) 0.2641(10)
C8_16 C 0.9669(2) 0.6881(3) 0.3045(10)
H4_16 H 0.9820 0.7035 0.2164
C9_17 C 0.9476(2) 0.6788(3) 0.5848(9)
H5_11 H 0.9496 0.6881 0.6982
C10_17 C 0.9213(2) 0.6326(3) 0.3985(9)
H6_17 H 0.9040 0.6087 0.3745
H11_16 H 0.9033 0.3891 0.0306
H8_9 H 0.1156 0.0197 0.0324
Cu1_6 Cu 0.08612(4) 0.91970(3) 0.16715(9)
O5_6 O 0.09347(23) 0.94051(15) 0.3973(6)
O6_12 O 0.12456(26) 0.99619(18) 0.3001(7)
O8_12 O 0.05012(24) 0.84285(16) 0.0383(7)
N1_12 N 0.13822(23) 0.93945(15) 0.1307(7)
N2_12 N 0.19599(24) 0.95533(17) 0.2293(8)
N6_12 N 0.0915(3) 0.9765(2) 0.8964(8)
C4_12 C 0.16200(27) 0.94340(18) 0.2531(9)
H2_6 H 0.1534 0.9369 0.3680
C5_12 C 0.20778(27) 0.96478(18) 0.0641(8)
H3_12 H 0.2319 0.9725 0.0390
C11_6 C 0.1096(3) 0.9740(2) 0.4135(10)
C12_6 C 0.1097(3) 0.9861(2) 0.5970(10)
C13_12 C 0.0896(3) 0.9649(2) 0.7309(9)
H7_12 H 0.0732 0.9406 0.7068
N10_6 N 0.03387(34) 0.9003(2) 0.2026(8)
C14_12 C 0.0107(2) 0.8970(2) 0.0817(10)
C15_6 C 0.0218(2) 0.8901(3) 0.3654(10)
H9_6 H 0.0378 0.8923 0.4548
O1_12 O 0.23218(18) 0.99327(13) 0.7285(5)
O2_18 O 0.17596(23) 0.96797(15) 0.6336(6)
O7_12 O 0.07876(22) 0.89862(14) 0.9374(6)
N7_9 N 0.03879(23) 0.80413(15) 0.5413(7)
N8_18 N 0.08040(28) 0.86210(19) 0.4399(8)
C1_12 C 0.19805(26) 0.97549(18) 0.7457(8)
C2_12 C 0.18574(25) 0.96346(16) 0.9306(9)
C3_12 C 0.15096(27) 0.94996(18) 0.9694(9)
H1_12 H 0.1351 0.9478 0.8797
C16_12 C 0.0636(3) 0.8650(2) 0.9219(9)
C17_12 C 0.0634(3) 0.8525(2) 0.7392(9)
C18_12 C 0.04180(26) 0.81720(17) 0.7025(9)
H10_12 H 0.0286 0.8015 0.7938
C19_18 C 0.0583(3) 0.8280(2) 0.4176(9)
H11_17 H 0.0558 0.8192 0.3027
C20_18 C 0.0831(3) 0.8741(2) 0.6041(9)
H12_18 H 0.0992 0.8984 0.6272
Cu4_9 Cu 0.00463(4) 0.75273(2) 0.50297(9)
N9_6 N 0.26821(30) 0.96922(17) 0.5342(7)
O3_17 O 0.31539(15) 0.92256(15) 0.9369(6)
N4_18 N 0.2785(2) 0.92360(18) 0.4377(8)
C6_17 C 0.3015(2) 0.9426(2) 0.9190(9)
C7_17 C 0.2898(2) 0.9432(2) 0.7359(10)
C8_17 C 0.2787(2) 0.9669(2) 0.6955(10)
H4_17 H 0.2784 0.9820 0.7836
C9_18 C 0.2687(2) 0.9476(2) 0.4152(9)
H5_12 H 0.2614 0.9496 0.3018
C10_18 C 0.2886(2) 0.9213(2) 0.6015(9)
H6_18 H 0.2952 0.9040 0.6255
H11_18 H 0.5141 0.9033 0.9694
O3_18 O 0.01794(15) 0.74411(15) 0.7298(6)
O4_18 O 0.0366(2) 0.7073(2) 0.6361(7)
C6_18 C 0.0318(2) 0.7241(2) 0.7477(9)
C7_18 C 0.0435(2) 0.7235(2) 0.9308(10)
C8_18 C 0.0546(2) 0.6998(2) 0.9712(10)
H4_18 H 0.0549 0.6847 0.8831
Cu1_7 Cu 0.74697(3) 0.49975(2) 0.50048(9)
O1_13 O 0.67340(13) 0.57224(13) 0.0618(5)
O5_7 O 0.72616(15) 0.48629(18) 0.7306(6)
O6_13 O 0.67048(18) 0.46170(19) 0.6334(7)
O7_13 O 0.76805(14) 0.51347(17) 0.2707(6)
O8_13 O 0.82382(16) 0.54060(18) 0.3716(7)
N1_13 N 0.72722(15) 0.53210(18) 0.4640(7)
N2_13 N 0.71134(17) 0.57399(17) 0.5626(8)
C1_13 C 0.69118(18) 0.55589(19) 0.0790(8)
C2_13 C 0.70321(16) 0.55561(19) 0.2639(9)
C3_13 C 0.71671(18) 0.5343(2) 0.3027(9)
H1_13 H 0.7189 0.5206 0.2130
C4_13 C 0.72327(18) 0.5519(2) 0.5864(9)
H2_7 H 0.7298 0.5498 0.7013
C5_13 C 0.70189(18) 0.5763(2) 0.3974(8)
H3_13 H 0.6942 0.5927 0.3723
C11_7 C 0.6927(2) 0.4689(2) 0.7468(10)
C12_7 C 0.6806(2) 0.4569(2) 0.9303(10)
C15_7 C 0.6449(2) 0.4432(3) 0.9679(10)
H9_7 H 0.6289 0.4410 0.8785
C16_13 C 0.8017(2) 0.5319(2) 0.2552(9)
C17_13 C 0.8142(2) 0.5442(2) 0.0725(9)
C18_13 C 0.84947(17) 0.5579(2) 0.0358(9)
H10_13 H 0.8652 0.5604 0.1271
N10_7 N 0.7664(2) 0.46690(28) 0.5359(8)
O5_8 O 0.81963(18) 0.42680(23) 0.9360(6)
N6_13 N 0.7817(2) 0.4248(3) 0.4369(8)
H2_8 H 0.8832 0.4867 0.9653
C11_8 C 0.8023(2) 0.4429(3) 0.9198(10)
C12_8 C 0.7903(2) 0.4430(3) 0.7363(10)
C13_13 C 0.7914(2) 0.4229(3) 0.6024(9)
H7_13 H 0.7993 0.4065 0.6265
C14_13 C 0.7697(2) 0.4470(3) 0.4150(10)
H8_10 H 0.7626 0.4489 0.3009
C15_8 C 0.7766(3) 0.4650(4) 0.6987(10)
H9_8 H 0.7744 0.4788 0.7881
H5_13 H 0.5948 0.6162 0.9684
Cu1_8 Cu 0.50025(2) 0.24721(4) 0.50048(9)
O1_14 O 0.42776(13) 0.10115(18) 0.0618(5)
O5_9 O 0.51371(18) 0.23986(23) 0.7306(6)
O6_14 O 0.53830(19) 0.20877(26) 0.6334(7)
O7_14 O 0.48653(17) 0.25457(22) 0.2707(6)
O8_14 O 0.45940(18) 0.28321(24) 0.3716(7)
N1_14 N 0.46790(18) 0.19511(23) 0.4640(7)
N2_14 N 0.42601(17) 0.13734(24) 0.5626(8)
C1_14 C 0.44411(19) 0.13528(26) 0.0790(8)
C2_14 C 0.44439(19) 0.14759(25) 0.2639(9)
C3_14 C 0.4657(2) 0.18237(27) 0.3027(9)
H1_14 H 0.4794 0.1982 0.2130
C4_14 C 0.4481(2) 0.17133(27) 0.5864(9)
H2_9 H 0.4502 0.1799 0.7013
C5_14 C 0.4237(2) 0.12555(27) 0.3974(8)
H3_14 H 0.4073 0.1014 0.3723
C11_9 C 0.5311(2) 0.2237(3) 0.7468(10)
C12_9 C 0.5431(2) 0.2236(3) 0.9303(10)
C15_9 C 0.5568(3) 0.2016(4) 0.9679(10)
H9_9 H 0.5590 0.1878 0.8785
C16_14 C 0.4681(2) 0.2697(3) 0.2552(9)
C17_14 C 0.4558(2) 0.2699(3) 0.0725(9)
C18_14 C 0.4421(2) 0.29153(26) 0.0358(9)
H10_14 H 0.4396 0.3047 0.1271
N10_8 N 0.53310(28) 0.29946(34) 0.5359(8)
O5_10 O 0.57320(23) 0.39282(15) 0.9360(6)
N6_14 N 0.5752(3) 0.3568(2) 0.4369(8)
H2_10 H 0.5133 0.3964 0.9653
C11_10 C 0.5571(3) 0.3593(2) 0.9198(10)
C12_10 C 0.5570(3) 0.3472(2) 0.7363(10)
C13_14 C 0.5771(3) 0.3684(2) 0.6024(9)
H7_14 H 0.5935 0.3927 0.6265
C14_14 C 0.5530(3) 0.3226(2) 0.4150(10)
H8_11 H 0.5511 0.3136 0.3009
C15_10 C 0.5350(4) 0.3115(2) 0.6987(10)
H9_10 H 0.5212 0.2955 0.7881
H5_14 H 0.3838 0.9785 0.9684
H5_15 H 0.0215 0.4052 0.9684
Cu1_9 Cu 0.75279(4) 0.25303(3) 0.50048(9)
O1_15 O 0.89885(18) 0.32660(13) 0.0618(5)
O5_11 O 0.76014(23) 0.27384(15) 0.7306(6)
O6_15 O 0.79123(26) 0.32952(18) 0.6334(7)
O7_15 O 0.74543(22) 0.23195(14) 0.2707(6)
O8_15 O 0.71679(24) 0.17618(16) 0.3716(7)
N1_15 N 0.80489(23) 0.27278(15) 0.4640(7)
N2_15 N 0.86266(24) 0.28866(17) 0.5626(8)
C1_15 C 0.86472(26) 0.30882(18) 0.0790(8)
C2_15 C 0.85241(25) 0.29679(16) 0.2639(9)
C3_15 C 0.81763(27) 0.28329(18) 0.3027(9)
H1_15 H 0.8018 0.2811 0.2130
C4_15 C 0.82867(27) 0.27673(18) 0.5864(9)
H2_11 H 0.8201 0.2702 0.7013
C5_15 C 0.87445(27) 0.29811(18) 0.3974(8)
H3_15 H 0.8986 0.3058 0.3723
C11_11 C 0.7763(3) 0.3073(2) 0.7468(10)
C12_11 C 0.7764(3) 0.3194(2) 0.9303(10)
C15_11 C 0.7984(4) 0.3551(2) 0.9679(10)
H9_11 H 0.8122 0.3711 0.8785
C16_15 C 0.7303(3) 0.1983(2) 0.2552(9)
C17_15 C 0.7301(3) 0.1858(2) 0.0725(9)
C18_15 C 0.70847(26) 0.15053(17) 0.0358(9)
H10_15 H 0.6953 0.1348 0.1271
N10_9 N 0.70054(34) 0.2336(2) 0.5359(8)
O5_12 O 0.60718(15) 0.18037(18) 0.9360(6)
N6_15 N 0.6432(2) 0.2183(2) 0.4369(8)
H2_12 H 0.6036 0.1168 0.9653
C11_12 C 0.6407(2) 0.1977(2) 0.9198(10)
C12_12 C 0.6528(2) 0.2097(2) 0.7363(10)
C13_15 C 0.6316(2) 0.2086(2) 0.6024(9)
H7_15 H 0.6073 0.2007 0.6265
C14_15 C 0.6774(2) 0.2303(2) 0.4150(10)
H8_12 H 0.6864 0.2374 0.3009
C15_12 C 0.6885(2) 0.2234(3) 0.6987(10)
H9_12 H 0.7045 0.2256 0.7881
O5_13 O 0.39282(15) 0.81963(18) 0.0640(6)
N5_7 N 0.29946(19) 0.7664(2) 0.4641(8)
N6_16 N 0.3568(2) 0.7817(2) 0.5631(8)
H2_13 H 0.3964 0.8832 0.0347
C11_13 C 0.3593(2) 0.8023(2) 0.0802(10)
C12_13 C 0.3472(2) 0.7903(2) 0.2637(10)
C13_16 C 0.3684(2) 0.7914(2) 0.3976(9)
H7_16 H 0.3927 0.7993 0.3735
C14_16 C 0.3226(2) 0.7697(2) 0.5850(10)
H8_13 H 0.3136 0.7626 0.6991
C15_13 C 0.3115(2) 0.7766(3) 0.3013(10)
H9_13 H 0.2955 0.7744 0.2119
Cu3_7 Cu 0.24721(4) 0.74697(3) 0.49952(9)
O1_16 O 0.10115(18) 0.67340(13) 0.9382(5)
O5_14 O 0.23986(23) 0.72616(15) 0.2694(6)
O6_16 O 0.20877(26) 0.67048(18) 0.3666(7)
O7_16 O 0.25457(22) 0.76805(14) 0.7293(6)
O8_16 O 0.28321(24) 0.82382(16) 0.6284(7)
N1_16 N 0.19511(23) 0.72722(15) 0.5360(7)
N2_16 N 0.13734(24) 0.71134(17) 0.4374(8)
C1_16 C 0.13528(26) 0.69118(18) 0.9210(8)
C2_16 C 0.14759(25) 0.70321(16) 0.7361(9)
C3_16 C 0.18237(27) 0.71671(18) 0.6973(9)
H1_16 H 0.1982 0.7189 0.7870
C4_16 C 0.17133(27) 0.72327(18) 0.4136(9)
H2_14 H 0.1799 0.7298 0.2987
C5_16 C 0.12555(27) 0.70189(18) 0.6026(8)
H3_16 H 0.1014 0.6942 0.6277
C11_14 C 0.2237(3) 0.6927(2) 0.2532(10)
C12_14 C 0.2236(3) 0.6806(2) 0.0697(10)
C15_14 C 0.2016(4) 0.6449(2) 0.0321(10)
H9_14 H 0.1878 0.6289 0.1215
C16_16 C 0.2697(3) 0.8017(2) 0.7448(9)
C17_16 C 0.2699(3) 0.8142(2) 0.9275(9)
C18_16 C 0.29153(26) 0.84947(17) 0.9642(9)
H10_16 H 0.3047 0.8652 0.8729
O5_15 O 0.18037(18) 0.57320(23) 0.0640(6)
N5_8 N 0.2336(2) 0.53310(28) 0.4641(8)
N6_17 N 0.2183(2) 0.5752(3) 0.5631(8)
H2_15 H 0.1168 0.5133 0.0347
C11_15 C 0.1977(2) 0.5571(3) 0.0802(10)
C12_15 C 0.2097(2) 0.5570(3) 0.2637(10)
C13_17 C 0.2086(2) 0.5771(3) 0.3976(9)
H7_17 H 0.2007 0.5935 0.3735
C14_17 C 0.2303(2) 0.5530(3) 0.5850(10)
H8_14 H 0.2374 0.5511 0.6991
C15_15 C 0.2234(3) 0.5350(4) 0.3013(10)
H9_15 H 0.2256 0.5212 0.2119
Cu3_8 Cu 0.25303(3) 0.50025(5) 0.49952(9)
O1_17 O 0.32660(13) 0.42776(13) 0.9382(5)
O5_16 O 0.27384(15) 0.51371(18) 0.2694(6)
O6_17 O 0.32952(18) 0.53830(19) 0.3666(7)
O7_17 O 0.23195(14) 0.48653(17) 0.7293(6)
O8_17 O 0.17618(16) 0.45940(18) 0.6284(7)
N1_17 N 0.27278(15) 0.46790(18) 0.5360(7)
N2_17 N 0.28866(17) 0.42601(17) 0.4374(8)
C1_17 C 0.30882(18) 0.44411(19) 0.9210(8)
C2_17 C 0.29679(16) 0.44439(19) 0.7361(9)
C3_17 C 0.28329(18) 0.4657(2) 0.6973(9)
H1_17 H 0.2811 0.4794 0.7870
C4_17 C 0.27673(18) 0.4481(2) 0.4136(9)
H2_16 H 0.2702 0.4502 0.2987
C5_17 C 0.29811(18) 0.4237(2) 0.6026(8)
H3_17 H 0.3058 0.4073 0.6277
C11_16 C 0.3073(2) 0.5311(2) 0.2532(10)
C12_16 C 0.3194(2) 0.5431(2) 0.0697(10)
C15_16 C 0.3551(2) 0.5568(3) 0.0321(10)
H9_16 H 0.3711 0.5590 0.1215
C16_17 C 0.1983(2) 0.4681(2) 0.7448(9)
C17_17 C 0.1858(2) 0.4558(2) 0.9275(9)
C18_17 C 0.15053(17) 0.4421(2) 0.9642(9)
H10_17 H 0.1348 0.4396 0.8729
O5_17 O 0.42680(23) 0.60718(15) 0.0640(6)
N5_9 N 0.46690(28) 0.70054(19) 0.4641(8)
N6_18 N 0.4248(3) 0.6432(2) 0.5631(8)
H2_17 H 0.4867 0.6036 0.0347
C11_17 C 0.4429(3) 0.6407(2) 0.0802(10)
C12_17 C 0.4430(3) 0.6528(2) 0.2637(10)
C13_18 C 0.4229(3) 0.6316(2) 0.3976(9)
H7_18 H 0.4065 0.6073 0.3735
C14_18 C 0.4470(3) 0.6774(2) 0.5850(10)
H8_15 H 0.4489 0.6864 0.6991
C15_17 C 0.4650(4) 0.6885(2) 0.3013(10)
H9_17 H 0.4788 0.7045 0.2119
Cu3_9 Cu 0.49975(5) 0.75279(4) 0.49952(9)
O1_18 O 0.57224(13) 0.89885(18) 0.9382(5)
O5_18 O 0.48629(18) 0.76014(23) 0.2694(6)
O6_18 O 0.46170(19) 0.79123(26) 0.3666(7)
O7_18 O 0.51347(17) 0.74543(22) 0.7293(6)
O8_18 O 0.54060(18) 0.71679(24) 0.6284(7)
N1_18 N 0.53210(18) 0.80489(23) 0.5360(7)
N2_18 N 0.57399(17) 0.86266(24) 0.4374(8)
C1_18 C 0.55589(19) 0.86472(26) 0.9210(8)
C2_18 C 0.55561(19) 0.85241(25) 0.7361(9)
C3_18 C 0.5343(2) 0.81763(27) 0.6973(9)
H1_18 H 0.5206 0.8018 0.7870
C4_18 C 0.5519(2) 0.82867(27) 0.4136(9)
H2_18 H 0.5498 0.8201 0.2987
C5_18 C 0.5763(2) 0.87445(27) 0.6026(8)
H3_18 H 0.5927 0.8986 0.6277
C11_18 C 0.4689(2) 0.7763(3) 0.2532(10)
C12_18 C 0.4569(2) 0.7764(3) 0.0697(10)
C15_18 C 0.4432(3) 0.7984(4) 0.0321(10)
H9_18 H 0.4410 0.8122 0.1215
C16_18 C 0.5319(2) 0.7303(3) 0.7448(9)
C17_18 C 0.5442(2) 0.7301(3) 0.9275(9)
C18_18 C 0.5579(2) 0.70847(26) 0.9642(9)
H10_18 H 0.5604 0.6953 0.8729
H8_16 H 0.0197 0.9041 0.9676
H8_17 H 0.0959 0.1156 0.9676
H8_18 H 0.8844 0.9803 0.9676
H5_16 H 0.4052 0.3838 0.0316
H5_17 H 0.6162 0.0215 0.0316
H5_18 H 0.9785 0.5948 0.0316
loop_
_geom_bond_atom_site_label_1
_geom_bond_atom_site_label_2
_geom_bond_site_symmetry_1
_geom_bond_site_symmetry_2
Cu1 O5 1_555 1_555
O5 C11 1_555 1_555
O6 C11 1_555 1_555
N1 Cu1 1_555 1_555
N2 C4 1_555 1_555
N6 C13 1_555 1_555
C4 N1 1_555 1_555
H2 C4 1_555 1_555
C5 N2 1_555 1_555
H3 C5 1_555 1_555
C11 C12 1_555 1_555
C12 C13 1_555 1_555
C13 H7 1_555 1_555
N10 Cu1 1_555 1_555
N5 C14 1_555 1_555
C15 N5 1_555 1_555
H9 C15 1_555 1_555
Cu3 N5 1_555 1_555
Cu3 O5_2 1_555 1_555
O5_2 C11_2 1_555 1_555
O6_2 C11_2 1_555 1_555
N1_2 Cu3 1_555 1_555
N2_2 C4_2 1_555 1_555
N10 C14_2 1_555 1_555
N6_2 C13_2 1_555 1_555
C4_2 N1_2 1_555 1_555
H2_2 C4_2 1_555 1_555
C5_2 N2_2 1_555 1_555
H3_2 C5_2 1_555 1_555
C11_2 C12_2 1_555 1_555
C12_2 C13_2 1_555 1_555
C13_2 H7_2 1_555 1_555
C14_2 N6_2 1_555 1_555
C15_2 N10 1_555 1_555
H9_2 C15_2 1_555 1_555
C12_2 C15_2 1_555 1_555
O1 C1 1_555 1_555
O2 C1 1_555 1_555
N7 C18 1_555 1_555
N8 C19 1_555 1_555
C1 C2 1_555 1_555
C2 C3 1_555 1_555
H1 C3 1_555 1_555
C16 O7 1_555 1_555
C17 C16 1_555 1_555
C18 C17 1_555 1_555
H10 C18 1_555 1_555
C19 N7 1_555 1_555
H11 C19 1_555 1_555
C20 N8 1_555 1_555
H12 C20 1_555 1_555
Cu4 N7 1_555 1_555
C17 C20 1_555 1_555
O3 Cu2 1_555 1_555
O4 C6 1_555 1_555
C6 O3 1_555 1_555
C7 C6 1_555 1_555
C8 C7 1_555 1_555
H4 C8 1_555 1_555
N11 Cu2 1_555 1_555
N9 C8_2 1_555 1_555
N4 C9 1_555 1_555
C6_2 O3_2 1_555 1_555
C7_2 C6_2 1_555 1_555
C8_2 C7_2 1_555 1_555
H4_2 C8_2 1_555 1_555
C9 N9 1_555 1_555
H5 C9 1_555 1_555
C10 N4 1_555 1_555
H6 C10 1_555 1_555
C7_2 C10 1_555 1_555
Cu4 O1_2 1_555 1_555
O1_2 C1_2 1_555 1_555
O2_2 C1_2 1_555 1_555
O3_3 Cu4 1_555 1_555
O4_2 C6_3 1_555 1_555
N11 C18_2 1_555 1_555
N8_2 C19_2 1_555 1_555
C1_2 C2_2 1_555 1_555
C2_2 C3_2 1_555 1_555
H1_2 C3_2 1_555 1_555
C6_3 O3_3 1_555 1_555
C7_3 C6_3 1_555 1_555
C8_3 C7_3 1_555 1_555
H4_3 C8_3 1_555 1_555
C16_2 O7_2 1_555 1_555
C17_2 C16_2 1_555 1_555
C18_2 C17_2 1_555 1_555
H10_2 C18_2 1_555 1_555
C19_2 N11 1_555 1_555
H11_3 C19_2 1_555 1_555
C20_2 N8_2 1_555 1_555
H12_2 C20_2 1_555 1_555
N9_2 Cu4 1_555 1_555
C17_2 C20_2 1_555 1_555
N9_2 C8_4 1_555 1_555
N4_2 C9_2 1_555 1_555
C6_4 O3_4 1_555 1_555
C7_4 C6_4 1_555 1_555
C8_4 C7_4 1_555 1_555
H4_4 C8_4 1_555 1_555
C9_2 N9_2 1_555 1_555
H5_2 C9_2 1_555 1_555
C10_2 N4_2 1_555 1_555
H6_2 C10_2 1_555 1_555
C7_4 C10_2 1_555 1_555
N5_2 C14_3 1_555 1_555
C15_3 N5_2 1_555 1_555
H9_3 C15_3 1_555 1_555
Cu3_2 N5_2 1_555 1_555
Cu3_2 O5_3 1_555 1_555
O5_3 C11_3 1_555 1_555
O6_3 C11_3 1_555 1_555
N1_3 Cu3_2 1_555 1_555
N2_3 C4_3 1_555 1_555
N6_3 C13_3 1_555 1_555
C4_3 N1_3 1_555 1_555
H2_3 C4_3 1_555 1_555
C5_3 N2_3 1_555 1_555
H3_3 C5_3 1_555 1_555
C11_3 C12_3 1_555 1_555
C12_3 C13_3 1_555 1_555
C13_3 H7_3 1_555 1_555
O3_5 Cu2_2 1_555 1_555
O4_3 C6_5 1_555 1_555
C6_5 O3_5 1_555 1_555
C7_5 C6_5 1_555 1_555
C8_5 C7_5 1_555 1_555
H4_5 C8_5 1_555 1_555
N11_2 Cu2_2 1_555 1_555
O1_3 C1_3 1_555 1_555
O2_3 C1_3 1_555 1_555
N11_2 C18_3 1_555 1_555
N8_3 C19_3 1_555 1_555
C1_3 C2_3 1_555 1_555
C2_3 C3_3 1_555 1_555
H1_3 C3_3 1_555 1_555
C16_3 O7_3 1_555 1_555
C17_3 C16_3 1_555 1_555
C18_3 C17_3 1_555 1_555
H10_3 C18_3 1_555 1_555
C19_3 N11_2 1_555 1_555
H11_5 C19_3 1_555 1_555
C20_3 N8_3 1_555 1_555
H12_3 C20_3 1_555 1_555
C17_3 C20_3 1_555 1_555
N9_3 C8_6 1_555 1_555
N4_3 C9_3 1_555 1_555
C6_6 O3_6 1_555 1_555
C7_6 C6_6 1_555 1_555
C8_6 C7_6 1_555 1_555
H4_6 C8_6 1_555 1_555
C9_3 N9_3 1_555 1_555
H5_3 C9_3 1_555 1_555
C10_3 N4_3 1_555 1_555
H6_3 C10_3 1_555 1_555
C7_6 C10_3 1_555 1_555
N4_4 C9_4 1_555 1_555
C9_4 N3 1_555 1_555
H5_4 C9_4 1_555 1_555
C10_4 N4_4 1_555 1_555
H6_4 C10_4 1_555 1_555
Cu5 N3 1_555 1_555
N4_5 C9_5 1_555 1_555
C9_5 N3_2 1_555 1_555
H5_5 C9_5 1_555 1_555
C10_5 N4_5 1_555 1_555
H6_5 C10_5 1_555 1_555
Cu5_2 N3_2 1_555 1_555
N4_6 C9_6 1_555 1_555
C9_6 N3_3 1_555 1_555
H5_6 C9_6 1_555 1_555
C10_6 N4_6 1_555 1_555
H6_6 C10_6 1_555 1_555
Cu5_3 N3_3 1_555 1_555
N5_3 C14_4 1_555 1_555
N6_4 C13_4 1_555 1_555
C13_4 H7_4 1_555 1_555
C14_4 N6_4 1_555 1_555
H8_2 C14_4 1_555 1_555
Cu3_3 N5_3 1_555 1_555
O3_7 Cu5_2 1_555 1_555
O4_4 C6_7 1_555 1_555
N3_4 C8_7 1_555 1_555
N4_7 C9_7 1_555 1_555
N8_4 C19_4 1_555 1_555
C6_7 O3_7 1_555 1_555
C7_7 C6_7 1_555 1_555
C8_7 C7_7 1_555 1_555
H4_7 C8_7 1_555 1_555
C9_7 N3_4 1_555 1_555
C10_7 N4_7 1_555 1_555
H6_7 C10_7 1_555 1_555
C19_4 N7_2 1_555 1_555
H11_7 C19_4 1_555 1_555
C20_4 N8_4 1_555 1_555
H12_4 C20_4 1_555 1_555
Cu4_2 N7_2 1_555 1_555
Cu5_4 N3_4 1_555 1_555
N11_3 Cu5_2 1_555 1_555
C7_7 C10_7 1_555 1_555
N5_4 C14_5 1_555 1_555
N6_5 C13_5 1_555 1_555
C13_5 H7_5 1_555 1_555
C14_5 N6_5 1_555 1_555
H8_3 C14_5 1_555 1_555
Cu3_4 N5_4 1_555 1_555
O3_8 Cu5_3 1_555 1_555
O4_5 C6_8 1_555 1_555
N8_5 C19_5 1_555 1_555
C6_8 O3_8 1_555 1_555
C7_8 C6_8 1_555 1_555
C10_8 N4_8 1_555 1_555
H6_8 C10_8 1_555 1_555
C19_5 N7_3 1_555 1_555
H11_8 C19_5 1_555 1_555
C20_5 N8_5 1_555 1_555
H12_5 C20_5 1_555 1_555
Cu4_3 N7_3 1_555 1_555
N11_4 Cu5_3 1_555 1_555
C7_8 C10_8 1_555 1_555
N3_5 C8_8 1_555 1_555
H4_8 C8_8 1_555 1_555
C9_8 N3_5 1_555 1_555
Cu5_5 N3_5 1_555 1_555
N3_6 C8_9 1_555 1_555
H4_9 C8_9 1_555 1_555
C9_9 N3_6 1_555 1_555
Cu5_6 N3_6 1_555 1_555
N5_5 C14_6 1_555 1_555
N6_6 C13_6 1_555 1_555
C13_6 H7_6 1_555 1_555
C14_6 N6_6 1_555 1_555
H8_4 C14_6 1_555 1_555
Cu3_5 N5_5 1_555 1_555
O3_9 Cu5 1_555 1_555
O4_6 C6_9 1_555 1_555
N8_6 C19_6 1_555 1_555
C6_9 O3_9 1_555 1_555
C7_9 C6_9 1_555 1_555
C10_9 N4_9 1_555 1_555
H6_9 C10_9 1_555 1_555
C19_6 N7_4 1_555 1_555
H11_9 C19_6 1_555 1_555
C20_6 N8_6 1_555 1_555
H12_6 C20_6 1_555 1_555
Cu4_4 N7_4 1_555 1_555
N11_5 Cu5 1_555 1_555
C7_9 C10_9 1_555 1_555
Cu5_5 O1_4 1_555 1_555
O1_4 C1_4 1_555 1_555
O2_7 C1_4 1_555 1_555
O7_4 Cu1_2 1_555 1_555
O8_4 C16_4 1_555 1_555
N1_4 Cu1_2 1_555 1_555
N2_4 C4_4 1_555 1_555
N7_5 C18_4 1_555 1_555
N8_7 C19_7 1_555 1_555
C1_4 C2_4 1_555 1_555
C2_4 C3_4 1_555 1_555
C3_4 N1_4 1_555 1_555
H1_4 C3_4 1_555 1_555
C4_4 N1_4 1_555 1_555
C5_4 N2_4 1_555 1_555
H3_4 C5_4 1_555 1_555
C16_4 O7_4 1_555 1_555
C17_4 C16_4 1_555 1_555
C18_4 C17_4 1_555 1_555
H10_4 C18_4 1_555 1_555
C19_7 N7_5 1_555 1_555
C20_7 N8_7 1_555 1_555
H12_7 C20_7 1_555 1_555
Cu4_5 N7_5 1_555 1_555
N10_2 Cu1_2 1_555 1_555
N11_6 Cu5_5 1_555 1_555
C2_4 C5_4 1_555 1_555
C17_4 C20_7 1_555 1_555
Cu5_6 O1_5 1_555 1_555
O1_5 C1_5 1_555 1_555
O2_8 C1_5 1_555 1_555
O7_5 Cu1_3 1_555 1_555
O8_5 C16_5 1_555 1_555
N1_5 Cu1_3 1_555 1_555
N2_5 C4_5 1_555 1_555
N7_6 C18_5 1_555 1_555
N8_8 C19_8 1_555 1_555
C1_5 C2_5 1_555 1_555
C2_5 C3_5 1_555 1_555
C3_5 N1_5 1_555 1_555
H1_5 C3_5 1_555 1_555
C4_5 N1_5 1_555 1_555
C5_5 N2_5 1_555 1_555
H3_5 C5_5 1_555 1_555
C16_5 O7_5 1_555 1_555
C17_5 C16_5 1_555 1_555
C18_5 C17_5 1_555 1_555
H10_5 C18_5 1_555 1_555
C19_8 N7_6 1_555 1_555
C20_8 N8_8 1_555 1_555
H12_8 C20_8 1_555 1_555
Cu4_6 N7_6 1_555 1_555
N10_3 Cu1_3 1_555 1_555
N11_7 Cu5_6 1_555 1_555
C2_5 C5_5 1_555 1_555
C17_5 C20_8 1_555 1_555
Cu5_4 O1_6 1_555 1_555
O1_6 C1_6 1_555 1_555
O2_9 C1_6 1_555 1_555
O7_6 Cu1_4 1_555 1_555
O8_6 C16_6 1_555 1_555
N1_6 Cu1_4 1_555 1_555
N2_6 C4_6 1_555 1_555
N7_7 C18_6 1_555 1_555
N8_9 C19_9 1_555 1_555
C1_6 C2_6 1_555 1_555
C2_6 C3_6 1_555 1_555
C3_6 N1_6 1_555 1_555
H1_6 C3_6 1_555 1_555
C4_6 N1_6 1_555 1_555
C5_6 N2_6 1_555 1_555
H3_6 C5_6 1_555 1_555
C16_6 O7_6 1_555 1_555
C17_6 C16_6 1_555 1_555
C18_6 C17_6 1_555 1_555
H10_6 C18_6 1_555 1_555
C19_9 N7_7 1_555 1_555
C20_9 N8_9 1_555 1_555
H12_9 C20_9 1_555 1_555
Cu4_7 N7_7 1_555 1_555
N10_4 Cu1_4 1_555 1_555
N11_8 Cu5_4 1_555 1_555
C2_6 C5_6 1_555 1_555
C17_6 C20_9 1_555 1_555
N4_10 C9_10 1_555 1_555
C9_10 N3_7 1_555 1_555
H5_7 C9_10 1_555 1_555
C10_10 N4_10 1_555 1_555
H6_10 C10_10 1_555 1_555
Cu4_6 N3_7 1_555 1_555
N4_11 C9_11 1_555 1_555
C9_11 N3_8 1_555 1_555
H5_8 C9_11 1_555 1_555
C10_11 N4_11 1_555 1_555
H6_11 C10_11 1_555 1_555
Cu4_7 N3_8 1_555 1_555
N4_12 C9_12 1_555 1_555
C9_12 N3_9 1_555 1_555
H5_9 C9_12 1_555 1_555
C10_12 N4_12 1_555 1_555
H6_12 C10_12 1_555 1_555
Cu4_5 N3_9 1_555 1_555
O3_10 Cu4_7 1_555 1_555
O4_10 C6_10 1_555 1_555
N3_10 C8_10 1_555 1_555
N4_13 C9_13 1_555 1_555
N8_10 C19_10 1_555 1_555
C6_10 O3_10 1_555 1_555
C7_10 C6_10 1_555 1_555
C8_10 C7_10 1_555 1_555
H4_10 C8_10 1_555 1_555
C9_13 N3_10 1_555 1_555
C10_13 N4_13 1_555 1_555
H6_13 C10_13 1_555 1_555
C19_10 N11_7 1_555 1_555
H11_10 C19_10 1_555 1_555
C20_10 N8_10 1_555 1_555
H12_10 C20_10 1_555 1_555
Cu4_3 N3_10 1_555 1_555
C7_10 C10_13 1_555 1_555
N10_4 C14_7 1_555 1_555
N6_7 C13_7 1_555 1_555
C13_7 H7_7 1_555 1_555
C14_7 N6_7 1_555 1_555
H8_5 C14_7 1_555 1_555
N3_11 C8_11 1_555 1_555
H4_11 C8_11 1_555 1_555
C9_14 N3_11 1_555 1_555
Cu4_4 N3_11 1_555 1_555
O3_11 Cu4_5 1_555 1_555
O4_11 C6_11 1_555 1_555
N8_11 C19_11 1_555 1_555
C6_11 O3_11 1_555 1_555
C7_11 C6_11 1_555 1_555
C10_14 N4_14 1_555 1_555
H6_14 C10_14 1_555 1_555
C19_11 N11_8 1_555 1_555
H11_11 C19_11 1_555 1_555
C20_11 N8_11 1_555 1_555
H12_11 C20_11 1_555 1_555
C7_11 C10_14 1_555 1_555
N10_2 C14_8 1_555 1_555
N6_8 C13_8 1_555 1_555
C13_8 H7_8 1_555 1_555
C14_8 N6_8 1_555 1_555
H8_6 C14_8 1_555 1_555
O3_12 Cu4_6 1_555 1_555
O4_12 C6_12 1_555 1_555
N8_12 C19_12 1_555 1_555
C6_12 O3_12 1_555 1_555
C7_12 C6_12 1_555 1_555
C10_15 N4_15 1_555 1_555
H6_15 C10_15 1_555 1_555
C19_12 N11_6 1_555 1_555
H11_12 C19_12 1_555 1_555
C20_12 N8_12 1_555 1_555
H12_12 C20_12 1_555 1_555
C7_12 C10_15 1_555 1_555
N10_3 C14_9 1_555 1_555
N6_9 C13_9 1_555 1_555
C13_9 H7_9 1_555 1_555
C14_9 N6_9 1_555 1_555
H8_7 C14_9 1_555 1_555
N3_12 C8_12 1_555 1_555
H4_12 C8_12 1_555 1_555
C9_15 N3_12 1_555 1_555
Cu4_2 N3_12 1_555 1_555
Cu4_4 O1_7 1_555 1_555
O1_7 C1_7 1_555 1_555
O2_13 C1_7 1_555 1_555
O7_7 Cu3_4 1_555 1_555
O8_7 C16_7 1_555 1_555
N1_7 Cu3_4 1_555 1_555
N2_7 C4_7 1_555 1_555
N11_4 C18_7 1_555 1_555
N8_13 C19_13 1_555 1_555
C1_7 C2_7 1_555 1_555
C2_7 C3_7 1_555 1_555
C3_7 N1_7 1_555 1_555
H1_7 C3_7 1_555 1_555
C4_7 N1_7 1_555 1_555
C5_7 N2_7 1_555 1_555
H3_7 C5_7 1_555 1_555
C16_7 O7_7 1_555 1_555
C17_7 C16_7 1_555 1_555
C18_7 C17_7 1_555 1_555
H10_7 C18_7 1_555 1_555
C19_13 N11_4 1_555 1_555
C20_13 N8_13 1_555 1_555
H12_13 C20_13 1_555 1_555
C2_7 C5_7 1_555 1_555
C17_7 C20_13 1_555 1_555
Cu4_2 O1_8 1_555 1_555
O1_8 C1_8 1_555 1_555
O2_14 C1_8 1_555 1_555
O7_8 Cu3_5 1_555 1_555
O8_8 C16_8 1_555 1_555
N1_8 Cu3_5 1_555 1_555
N2_8 C4_8 1_555 1_555
N11_5 C18_8 1_555 1_555
N8_14 C19_14 1_555 1_555
C1_8 C2_8 1_555 1_555
C2_8 C3_8 1_555 1_555
C3_8 N1_8 1_555 1_555
H1_8 C3_8 1_555 1_555
C4_8 N1_8 1_555 1_555
C5_8 N2_8 1_555 1_555
H3_8 C5_8 1_555 1_555
C16_8 O7_8 1_555 1_555
C17_8 C16_8 1_555 1_555
C18_8 C17_8 1_555 1_555
H10_8 C18_8 1_555 1_555
C19_14 N11_5 1_555 1_555
C20_14 N8_14 1_555 1_555
H12_14 C20_14 1_555 1_555
C2_8 C5_8 1_555 1_555
C17_8 C20_14 1_555 1_555
Cu4_3 O1_9 1_555 1_555
O1_9 C1_9 1_555 1_555
O2_15 C1_9 1_555 1_555
O7_9 Cu3_3 1_555 1_555
O8_9 C16_9 1_555 1_555
N1_9 Cu3_3 1_555 1_555
N2_9 C4_9 1_555 1_555
N11_3 C18_9 1_555 1_555
N8_15 C19_15 1_555 1_555
C1_9 C2_9 1_555 1_555
C2_9 C3_9 1_555 1_555
C3_9 N1_9 1_555 1_555
H1_9 C3_9 1_555 1_555
C4_9 N1_9 1_555 1_555
C5_9 N2_9 1_555 1_555
H3_9 C5_9 1_555 1_555
C16_9 O7_9 1_555 1_555
C17_9 C16_9 1_555 1_555
C18_9 C17_9 1_555 1_555
H10_9 C18_9 1_555 1_555
C19_15 N11_3 1_555 1_555
C20_15 N8_15 1_555 1_555
H12_15 C20_15 1_555 1_555
C2_9 C5_9 1_555 1_555
C17_9 C20_15 1_555 1_555
Cu1_5 O5_4 1_555 1_555
O5_4 C11_4 1_555 1_555
O6_10 C11_4 1_555 1_555
N1_10 Cu1_5 1_555 1_555
N2_10 C4_10 1_555 1_555
N5_6 C14_10 1_555 1_555
N6_10 C13_10 1_555 1_555
C4_10 N1_10 1_555 1_555
H2_4 C4_10 1_555 1_555
C5_10 N2_10 1_555 1_555
H3_10 C5_10 1_555 1_555
C11_4 C12_4 1_555 1_555
C12_4 C13_10 1_555 1_555
C13_10 H7_10 1_555 1_555
C14_10 N6_10 1_555 1_555
C15_4 N5_6 1_555 1_555
H9_4 C15_4 1_555 1_555
Cu3_6 N5_6 1_555 1_555
N10_5 Cu1_5 1_555 1_555
C12_4 C15_4 1_555 1_555
Cu3_6 O5_5 1_555 1_555
O5_5 C11_5 1_555 1_555
O6_11 C11_5 1_555 1_555
N1_11 Cu3_6 1_555 1_555
N2_11 C4_11 1_555 1_555
N6_11 C13_11 1_555 1_555
C4_11 N1_11 1_555 1_555
H2_5 C4_11 1_555 1_555
C5_11 N2_11 1_555 1_555
H3_11 C5_11 1_555 1_555
C11_5 C12_5 1_555 1_555
C12_5 C13_11 1_555 1_555
C13_11 H7_11 1_555 1_555
N10_5 C14_11 1_555 1_555
C15_5 N10_5 1_555 1_555
H9_5 C15_5 1_555 1_555
Cu2_3 O1_10 1_555 1_555
O1_10 C1_10 1_555 1_555
O2_16 C1_10 1_555 1_555
O3_13 Cu2_3 1_555 1_555
O4_16 C6_13 1_555 1_555
N7_8 C18_10 1_555 1_555
N8_16 C19_16 1_555 1_555
C1_10 C2_10 1_555 1_555
C2_10 C3_10 1_555 1_555
H1_10 C3_10 1_555 1_555
C6_13 O3_13 1_555 1_555
C7_13 C6_13 1_555 1_555
C8_13 C7_13 1_555 1_555
H4_13 C8_13 1_555 1_555
C16_10 O7_10 1_555 1_555
C17_10 C16_10 1_555 1_555
C18_10 C17_10 1_555 1_555
H10_10 C18_10 1_555 1_555
C19_16 N7_8 1_555 1_555
H11_13 C19_16 1_555 1_555
C20_16 N8_16 1_555 1_555
H12_16 C20_16 1_555 1_555
Cu4_8 N7_8 1_555 1_555
N9_4 Cu2_3 1_555 1_555
N11_9 Cu2_3 1_555 1_555
C17_10 C20_16 1_555 1_555
N9_4 C8_14 1_555 1_555
N4_16 C9_16 1_555 1_555
C6_14 O3_14 1_555 1_555
C7_14 C6_14 1_555 1_555
C8_14 C7_14 1_555 1_555
H4_14 C8_14 1_555 1_555
C9_16 N9_4 1_555 1_555
H5_10 C9_16 1_555 1_555
C10_16 N4_16 1_555 1_555
H6_16 C10_16 1_555 1_555
C7_14 C10_16 1_555 1_555
O1_11 C1_11 1_555 1_555
O2_17 C1_11 1_555 1_555
N11_9 C18_11 1_555 1_555
N8_17 C19_17 1_555 1_555
C1_11 C2_11 1_555 1_555
C2_11 C3_11 1_555 1_555
H1_11 C3_11 1_555 1_555
C16_11 O7_11 1_555 1_555
C17_11 C16_11 1_555 1_555
C18_11 C17_11 1_555 1_555
H10_11 C18_11 1_555 1_555
C19_17 N11_9 1_555 1_555
H11_15 C19_17 1_555 1_555
C20_17 N8_17 1_555 1_555
H12_17 C20_17 1_555 1_555
C17_11 C20_17 1_555 1_555
O3_15 Cu4_8 1_555 1_555
O4_17 C6_15 1_555 1_555
C6_15 O3_15 1_555 1_555
C7_15 C6_15 1_555 1_555
C8_15 C7_15 1_555 1_555
H4_15 C8_15 1_555 1_555
N9_5 C8_16 1_555 1_555
N4_17 C9_17 1_555 1_555
C6_16 O3_16 1_555 1_555
C7_16 C6_16 1_555 1_555
C8_16 C7_16 1_555 1_555
H4_16 C8_16 1_555 1_555
C9_17 N9_5 1_555 1_555
H5_11 C9_17 1_555 1_555
C10_17 N4_17 1_555 1_555
H6_17 C10_17 1_555 1_555
C7_16 C10_17 1_555 1_555
Cu1_6 O5_6 1_555 1_555
O5_6 C11_6 1_555 1_555
O6_12 C11_6 1_555 1_555
N1_12 Cu1_6 1_555 1_555
N2_12 C4_12 1_555 1_555
N6_12 C13_12 1_555 1_555
C4_12 N1_12 1_555 1_555
H2_6 C4_12 1_555 1_555
C5_12 N2_12 1_555 1_555
H3_12 C5_12 1_555 1_555
C11_6 C12_6 1_555 1_555
C12_6 C13_12 1_555 1_555
C13_12 H7_12 1_555 1_555
N10_6 Cu1_6 1_555 1_555
N10_6 C14_12 1_555 1_555
C15_6 N10_6 1_555 1_555
H9_6 C15_6 1_555 1_555
O1_12 C1_12 1_555 1_555
O2_18 C1_12 1_555 1_555
N7_9 C18_12 1_555 1_555
N8_18 C19_18 1_555 1_555
C1_12 C2_12 1_555 1_555
C2_12 C3_12 1_555 1_555
H1_12 C3_12 1_555 1_555
C16_12 O7_12 1_555 1_555
C17_12 C16_12 1_555 1_555
C18_12 C17_12 1_555 1_555
H10_12 C18_12 1_555 1_555
C19_18 N7_9 1_555 1_555
H11_17 C19_18 1_555 1_555
C20_18 N8_18 1_555 1_555
H12_18 C20_18 1_555 1_555
Cu4_9 N7_9 1_555 1_555
C17_12 C20_18 1_555 1_555
N9_6 C8_17 1_555 1_555
N4_18 C9_18 1_555 1_555
C6_17 O3_17 1_555 1_555
C7_17 C6_17 1_555 1_555
C8_17 C7_17 1_555 1_555
H4_17 C8_17 1_555 1_555
C9_18 N9_6 1_555 1_555
H5_12 C9_18 1_555 1_555
C10_18 N4_18 1_555 1_555
H6_18 C10_18 1_555 1_555
C7_17 C10_18 1_555 1_555
O3_18 Cu4_9 1_555 1_555
O4_18 C6_18 1_555 1_555
C6_18 O3_18 1_555 1_555
C7_18 C6_18 1_555 1_555
C8_18 C7_18 1_555 1_555
H4_18 C8_18 1_555 1_555
Cu1_7 O5_7 1_555 1_555
O1_13 C1_13 1_555 1_555
O5_7 C11_7 1_555 1_555
O6_13 C11_7 1_555 1_555
O7_13 Cu1_7 1_555 1_555
O8_13 C16_13 1_555 1_555
N1_13 Cu1_7 1_555 1_555
N2_13 C4_13 1_555 1_555
C1_13 C2_13 1_555 1_555
C2_13 C3_13 1_555 1_555
C3_13 N1_13 1_555 1_555
H1_13 C3_13 1_555 1_555
C4_13 N1_13 1_555 1_555
H2_7 C4_13 1_555 1_555
C5_13 N2_13 1_555 1_555
H3_13 C5_13 1_555 1_555
C11_7 C12_7 1_555 1_555
H9_7 C15_7 1_555 1_555
C16_13 O7_13 1_555 1_555
C17_13 C16_13 1_555 1_555
C18_13 C17_13 1_555 1_555
H10_13 C18_13 1_555 1_555
N10_7 Cu1_7 1_555 1_555
C2_13 C5_13 1_555 1_555
C12_7 C15_7 1_555 1_555
O5_8 C11_8 1_555 1_555
N10_7 C14_13 1_555 1_555
N6_13 C13_13 1_555 1_555
C11_8 C12_8 1_555 1_555
C12_8 C13_13 1_555 1_555
C13_13 H7_13 1_555 1_555
C14_13 N6_13 1_555 1_555
H8_10 C14_13 1_555 1_555
C15_8 N10_7 1_555 1_555
H9_8 C15_8 1_555 1_555
C12_8 C15_8 1_555 1_555
Cu1_8 O5_9 1_555 1_555
O1_14 C1_14 1_555 1_555
O5_9 C11_9 1_555 1_555
O6_14 C11_9 1_555 1_555
O7_14 Cu1_8 1_555 1_555
O8_14 C16_14 1_555 1_555
N1_14 Cu1_8 1_555 1_555
N2_14 C4_14 1_555 1_555
C1_14 C2_14 1_555 1_555
C2_14 C3_14 1_555 1_555
C3_14 N1_14 1_555 1_555
H1_14 C3_14 1_555 1_555
C4_14 N1_14 1_555 1_555
H2_9 C4_14 1_555 1_555
C5_14 N2_14 1_555 1_555
H3_14 C5_14 1_555 1_555
C11_9 C12_9 1_555 1_555
H9_9 C15_9 1_555 1_555
C16_14 O7_14 1_555 1_555
C17_14 C16_14 1_555 1_555
C18_14 C17_14 1_555 1_555
H10_14 C18_14 1_555 1_555
N10_8 Cu1_8 1_555 1_555
C2_14 C5_14 1_555 1_555
C12_9 C15_9 1_555 1_555
O5_10 C11_10 1_555 1_555
N10_8 C14_14 1_555 1_555
N6_14 C13_14 1_555 1_555
C11_10 C12_10 1_555 1_555
C12_10 C13_14 1_555 1_555
C13_14 H7_14 1_555 1_555
C14_14 N6_14 1_555 1_555
H8_11 C14_14 1_555 1_555
C15_10 N10_8 1_555 1_555
H9_10 C15_10 1_555 1_555
C12_10 C15_10 1_555 1_555
Cu1_9 O5_11 1_555 1_555
O1_15 C1_15 1_555 1_555
O5_11 C11_11 1_555 1_555
O6_15 C11_11 1_555 1_555
O7_15 Cu1_9 1_555 1_555
O8_15 C16_15 1_555 1_555
N1_15 Cu1_9 1_555 1_555
N2_15 C4_15 1_555 1_555
C1_15 C2_15 1_555 1_555
C2_15 C3_15 1_555 1_555
C3_15 N1_15 1_555 1_555
H1_15 C3_15 1_555 1_555
C4_15 N1_15 1_555 1_555
H2_11 C4_15 1_555 1_555
C5_15 N2_15 1_555 1_555
H3_15 C5_15 1_555 1_555
C11_11 C12_11 1_555 1_555
H9_11 C15_11 1_555 1_555
C16_15 O7_15 1_555 1_555
C17_15 C16_15 1_555 1_555
C18_15 C17_15 1_555 1_555
H10_15 C18_15 1_555 1_555
N10_9 Cu1_9 1_555 1_555
C2_15 C5_15 1_555 1_555
C12_11 C15_11 1_555 1_555
O5_12 C11_12 1_555 1_555
N10_9 C14_15 1_555 1_555
N6_15 C13_15 1_555 1_555
C11_12 C12_12 1_555 1_555
C12_12 C13_15 1_555 1_555
C13_15 H7_15 1_555 1_555
C14_15 N6_15 1_555 1_555
H8_12 C14_15 1_555 1_555
C15_12 N10_9 1_555 1_555
H9_12 C15_12 1_555 1_555
C12_12 C15_12 1_555 1_555
O5_13 C11_13 1_555 1_555
N5_7 C14_16 1_555 1_555
N6_16 C13_16 1_555 1_555
C11_13 C12_13 1_555 1_555
C12_13 C13_16 1_555 1_555
C13_16 H7_16 1_555 1_555
C14_16 N6_16 1_555 1_555
H8_13 C14_16 1_555 1_555
C15_13 N5_7 1_555 1_555
H9_13 C15_13 1_555 1_555
Cu3_7 N5_7 1_555 1_555
C12_13 C15_13 1_555 1_555
Cu3_7 O5_14 1_555 1_555
O1_16 C1_16 1_555 1_555
O5_14 C11_14 1_555 1_555
O6_16 C11_14 1_555 1_555
O7_16 Cu3_7 1_555 1_555
O8_16 C16_16 1_555 1_555
N1_16 Cu3_7 1_555 1_555
N2_16 C4_16 1_555 1_555
C1_16 C2_16 1_555 1_555
C2_16 C3_16 1_555 1_555
C3_16 N1_16 1_555 1_555
H1_16 C3_16 1_555 1_555
C4_16 N1_16 1_555 1_555
H2_14 C4_16 1_555 1_555
C5_16 N2_16 1_555 1_555
H3_16 C5_16 1_555 1_555
C11_14 C12_14 1_555 1_555
H9_14 C15_14 1_555 1_555
C16_16 O7_16 1_555 1_555
C17_16 C16_16 1_555 1_555
C18_16 C17_16 1_555 1_555
H10_16 C18_16 1_555 1_555
C2_16 C5_16 1_555 1_555
C12_14 C15_14 1_555 1_555
O5_15 C11_15 1_555 1_555
N5_8 C14_17 1_555 1_555
N6_17 C13_17 1_555 1_555
C11_15 C12_15 1_555 1_555
C12_15 C13_17 1_555 1_555
C13_17 H7_17 1_555 1_555
C14_17 N6_17 1_555 1_555
H8_14 C14_17 1_555 1_555
C15_15 N5_8 1_555 1_555
H9_15 C15_15 1_555 1_555
Cu3_8 N5_8 1_555 1_555
C12_15 C15_15 1_555 1_555
Cu3_8 O5_16 1_555 1_555
O1_17 C1_17 1_555 1_555
O5_16 C11_16 1_555 1_555
O6_17 C11_16 1_555 1_555
O7_17 Cu3_8 1_555 1_555
O8_17 C16_17 1_555 1_555
N1_17 Cu3_8 1_555 1_555
N2_17 C4_17 1_555 1_555
C1_17 C2_17 1_555 1_555
C2_17 C3_17 1_555 1_555
C3_17 N1_17 1_555 1_555
H1_17 C3_17 1_555 1_555
C4_17 N1_17 1_555 1_555
H2_16 C4_17 1_555 1_555
C5_17 N2_17 1_555 1_555
H3_17 C5_17 1_555 1_555
C11_16 C12_16 1_555 1_555
H9_16 C15_16 1_555 1_555
C16_17 O7_17 1_555 1_555
C17_17 C16_17 1_555 1_555
C18_17 C17_17 1_555 1_555
H10_17 C18_17 1_555 1_555
C2_17 C5_17 1_555 1_555
C12_16 C15_16 1_555 1_555
O5_17 C11_17 1_555 1_555
N5_9 C14_18 1_555 1_555
N6_18 C13_18 1_555 1_555
C11_17 C12_17 1_555 1_555
C12_17 C13_18 1_555 1_555
C13_18 H7_18 1_555 1_555
C14_18 N6_18 1_555 1_555
H8_15 C14_18 1_555 1_555
C15_17 N5_9 1_555 1_555
H9_17 C15_17 1_555 1_555
Cu3_9 N5_9 1_555 1_555
C12_17 C15_17 1_555 1_555
Cu3_9 O5_18 1_555 1_555
O1_18 C1_18 1_555 1_555
O5_18 C11_18 1_555 1_555
O6_18 C11_18 1_555 1_555
O7_18 Cu3_9 1_555 1_555
O8_18 C16_18 1_555 1_555
N1_18 Cu3_9 1_555 1_555
N2_18 C4_18 1_555 1_555
C1_18 C2_18 1_555 1_555
C2_18 C3_18 1_555 1_555
C3_18 N1_18 1_555 1_555
H1_18 C3_18 1_555 1_555
C4_18 N1_18 1_555 1_555
H2_18 C4_18 1_555 1_555
C5_18 N2_18 1_555 1_555
H3_18 C5_18 1_555 1_555
C11_18 C12_18 1_555 1_555
H9_18 C15_18 1_555 1_555
C16_18 O7_18 1_555 1_555
C17_18 C16_18 1_555 1_555
C18_18 C17_18 1_555 1_555
H10_18 C18_18 1_555 1_555
C2_18 C5_18 1_555 1_555
C12_18 C15_18 1_555 1_555

#END
