
###############################################################################
#
# This file contains modified crystal structure data generated from the
# MOF subset of the Cambridge Structural Database (CSD) v543 
# hosted by the Cambridge Crystallographic Data Centre (CCDC).
#
# This work is licensed under the Creative Commons
# Attribution-NonCommercial-ShareAlike 4.0 International License.
# To view a copy of this license, visit
# http://creativecommons.org/licenses/by-nc-sa/4.0/
# or send a letter to
# Creative Commons, PO Box 1866, Mountain View, CA 94042, USA.
#
# CIF created using the CSD Python API on 29 September 2022
# The structure has been converted into the P1 space group
# The structure has a 3D framework
# The original CSD entry AMEJIM is in the rhombohedral crystal system
# The framework has been calculated to contain at least 10.0% void space
# The void calculation uses a probe of radius 1.32A, grid spacing 0.4
# The framework is charged, counterions have been retained in the structure
# H atom positions have been added when not included in the experimental data
#
###############################################################################

data_AMEJIM
_chemical_formula_moiety         '(C126 H282 Cu18 Fe10 N36 O50 6+)n'
_symmetry_cell_setting           triclinic
_symmetry_space_group_name_H-M   'P 1'
_symmetry_Int_Tables_number      1
_space_group_name_Hall           'P 1'
loop_
_symmetry_equiv_pos_site_id
_symmetry_equiv_pos_as_xyz
1 x,y,z
_cell_length_a                   18.542(3)
_cell_length_b                   18.542(3)
_cell_length_c                   19.724(4)
_cell_angle_alpha                90
_cell_angle_beta                 90
_cell_angle_gamma                120
_cell_volume                     5872.71
loop_
_atom_site_label
_atom_site_type_symbol
_atom_site_fract_x
_atom_site_fract_y
_atom_site_fract_z
C17 C 0.1953(3) 0.7303(4) 0.4702(2)
H19 H 0.2067 0.7864 0.4565
H24 H 0.2442 0.7372 0.4959
C22 C 0.1849(3) 0.6799(5) 0.4078(2)
H29 H 0.2353 0.7089 0.3791
H34 H 0.1368 0.6736 0.3811
C27 C 0.0508(3) 0.6981(4) 0.4831(2)
H39 H 0.0625 0.7117 0.4344
H44 H 0.0456 0.7433 0.5050
C31 C 0.0298(2) 0.3831(3) 0.5091(2)
H48 H 0.0506 0.3895 0.4620
H53 H 0.0726 0.3848 0.5402
C37 C 0.1460(3) 0.7372(4) 0.5810(2)
H59 H 0.1958 0.7366 0.5984
H64 H 0.1618 0.7961 0.5733
C42 C 0.0791(3) 0.7012(4) 0.6342(2)
H69 H 0.0309 0.7064 0.6193
H74 H 0.1005 0.7328 0.6770
N12 N 0.1219(2) 0.6926(3) 0.51498(16)
O7 O 0.01282(15) 0.44714(21) 0.52519(12)
O19 O 0.17163(17) 0.59963(26) 0.42611(13)
H79 H 0.1923 0.5674 0.4051
O27 O 0.0535(2) 0.61653(28) 0.64551(18)
H87 H 0.0014 0.5890 0.6490
Cu9 Cu 0.08307(2) 0.56701(4) 0.52409(2)
C1 C 0.62540(19) 0.23604(19) 0.38885(15)
C2 C 0.4650(3) 0.1953(3) 0.5298(2)
H1 H 0.4203 0.2067 0.5435
H2 H 0.5070 0.2442 0.5041
C3 C 0.5050(4) 0.1849(3) 0.5922(2)
H3 H 0.5264 0.2353 0.6209
H4 H 0.4632 0.1368 0.6189
C4 C 0.3527(3) 0.0508(3) 0.5169(2)
H5 H 0.3508 0.0625 0.5656
H6 H 0.3023 0.0456 0.4950
C6 C 0.4088(3) 0.1460(3) 0.4190(2)
H9 H 0.4592 0.1958 0.4016
H10 H 0.3657 0.1618 0.4267
C7 C 0.3779(3) 0.0791(3) 0.3658(2)
H11 H 0.3245 0.0309 0.3807
H12 H 0.3677 0.1005 0.3230
N1 N 0.59725(17) 0.17676(16) 0.42189(14)
N2 N 0.4293(2) 0.1219(2) 0.48502(16)
O2 O 0.5720(2) 0.17163(17) 0.57389(13)
H13 H 0.6249 0.1923 0.5949
O3 O 0.43697(19) 0.0535(2) 0.35449(18)
H14 H 0.4124 0.0014 0.3510
Fe1 Fe 0.6667 0.3333 0.3333
Cu1 Cu 0.51606(3) 0.08307(2) 0.47591(2)
C8 C 0.61064(27) 0.37460(19) 0.38885(15)
C9 C 0.76396(19) 0.38936(27) 0.38885(15)
C10 C 0.70793(19) 0.43063(19) 0.27782(15)
C11 C 0.72269(27) 0.29207(19) 0.27782(15)
C12 C 0.56937(19) 0.27731(27) 0.27782(15)
C14 C 0.7303(4) 0.5350(3) 0.5298(2)
C15 C 0.2697(4) 0.4650(3) 0.4702(2)
C16 C 0.8047(3) 0.2697(4) 0.5298(2)
H16 H 0.7864 0.5797 0.5435
H17 H 0.2136 0.4203 0.4565
H18 H 0.7933 0.2136 0.5435
H21 H 0.7372 0.4930 0.5041
H22 H 0.2628 0.5070 0.4959
H23 H 0.7558 0.2628 0.5041
C19 C 0.6799(5) 0.4950(4) 0.5922(2)
C20 C 0.3201(5) 0.5050(4) 0.4078(2)
C21 C 0.8151(3) 0.3201(5) 0.5922(2)
H26 H 0.7089 0.4736 0.6209
H27 H 0.2911 0.5264 0.3791
H28 H 0.7647 0.2911 0.6209
H31 H 0.6736 0.5368 0.6189
H32 H 0.3264 0.4632 0.3811
H33 H 0.8632 0.3264 0.6189
C24 C 0.6981(4) 0.6473(3) 0.5169(2)
C25 C 0.3019(4) 0.3527(3) 0.4831(2)
C26 C 0.9492(3) 0.3019(4) 0.5169(2)
H36 H 0.7117 0.6492 0.5656
H37 H 0.2883 0.3508 0.4344
H38 H 0.9375 0.2883 0.5656
H41 H 0.7433 0.6977 0.4950
H42 H 0.2567 0.3023 0.5050
H43 H 0.9544 0.2567 0.4950
C28 C 0.6467(2) 0.0298(2) 0.4909(2)
C29 C 0.6169(3) 0.6467(2) 0.5091(2)
C30 C 0.3831(3) 0.3533(2) 0.4909(2)
C32 C 0.9702(2) 0.6169(3) 0.4909(2)
H45 H 0.6611 0.0506 0.5380
H46 H 0.6105 0.6611 0.4620
H47 H 0.3895 0.3389 0.5380
H49 H 0.9494 0.6105 0.5380
H50 H 0.6878 0.0726 0.4598
H51 H 0.6152 0.6878 0.5402
H52 H 0.3848 0.3122 0.4598
H54 H 0.9274 0.6152 0.4598
C34 C 0.7372(4) 0.5912(3) 0.4190(2)
C35 C 0.2628(4) 0.4088(3) 0.5810(2)
C36 C 0.8540(3) 0.2628(4) 0.4190(2)
H56 H 0.7366 0.5408 0.4016
H57 H 0.2634 0.4592 0.5984
H58 H 0.8042 0.2634 0.4016
H61 H 0.7961 0.6343 0.4267
H62 H 0.2039 0.3657 0.5733
H63 H 0.8382 0.2039 0.4267
C39 C 0.7012(4) 0.6221(3) 0.3658(2)
C40 C 0.2988(4) 0.3779(3) 0.6342(2)
C41 C 0.9209(3) 0.2988(4) 0.3658(2)
H66 H 0.7064 0.6755 0.3807
H67 H 0.2936 0.3245 0.6193
H68 H 0.9691 0.2936 0.3807
H71 H 0.7328 0.6323 0.3230
H72 H 0.2672 0.3677 0.6770
H73 H 0.8995 0.2672 0.3230
N3 N 0.57951(23) 0.40275(17) 0.42189(14)
N4 N 0.82324(16) 0.42049(23) 0.42189(14)
N5 N 0.73608(17) 0.48991(16) 0.24478(14)
N6 N 0.75382(23) 0.26392(17) 0.24478(14)
N7 N 0.51009(16) 0.24618(23) 0.24478(14)
N9 N 0.6926(3) 0.5707(2) 0.48502(16)
N10 N 0.3074(3) 0.4293(2) 0.51498(16)
N11 N 0.8781(2) 0.3074(3) 0.48502(16)
N13 N 0.9040(2) 0.5448(2) 0.18165(16)
N14 N 0.6407(3) 0.0960(2) 0.18165(16)
N15 N 0.4552(2) 0.3593(3) 0.18165(16)
O4 O 0.56568(15) 0.01282(15) 0.47481(12)
O5 O 0.55286(21) 0.56568(15) 0.52519(12)
O6 O 0.44714(21) 0.43432(15) 0.47481(12)
O8 O 0.98718(15) 0.55286(21) 0.47481(12)
O9 O 0.89901(15) 0.67949(15) 0.14148(12)
O10 O 0.76765(15) 0.65385(15) 0.19186(12)
O11 O 0.78047(21) 0.10099(15) 0.14148(12)
O12 O 0.88619(21) 0.23235(15) 0.19186(12)
O13 O 0.32051(15) 0.21953(21) 0.14148(12)
O14 O 0.34615(15) 0.11381(21) 0.19186(12)
O16 O 0.59963(26) 0.4280(2) 0.57389(13)
O17 O 0.40037(26) 0.5720(2) 0.42611(13)
O18 O 0.82837(17) 0.40037(26) 0.57389(13)
O20 O 0.7613(2) 0.49504(17) 0.09278(13)
O21 O 0.73370(26) 0.2387(2) 0.09278(13)
O22 O 0.50496(17) 0.26630(26) 0.09278(13)
H76 H 0.5674 0.3751 0.5949
H77 H 0.4326 0.6249 0.4051
H78 H 0.8077 0.4326 0.5949
H80 H 0.7084 0.4744 0.0718
H81 H 0.7659 0.2916 0.0718
H82 H 0.5256 0.2341 0.0718
O24 O 0.61653(28) 0.56303(19) 0.35449(18)
O25 O 0.38347(28) 0.43697(19) 0.64551(18)
O26 O 0.9465(2) 0.38347(28) 0.35449(18)
O28 O 0.89636(19) 0.6132(2) 0.31218(18)
O29 O 0.71680(28) 0.10364(19) 0.31218(18)
O30 O 0.3868(2) 0.28320(28) 0.31218(18)
H84 H 0.5890 0.5876 0.3510
H85 H 0.4110 0.4124 0.6490
H86 H 0.9986 0.4110 0.3510
H88 H 0.9209 0.6653 0.3157
H89 H 0.7443 0.0791 0.3157
H90 H 0.3347 0.2557 0.3157
Cu2 Cu 0.56701(4) 0.48394(3) 0.47591(2)
Cu3 Cu 0.91693(2) 0.43299(4) 0.47591(2)
Cu4 Cu 0.81727(3) 0.58360(2) 0.19076(2)
Cu5 Cu 0.76632(4) 0.18273(3) 0.19076(2)
Cu6 Cu 0.41640(2) 0.23368(4) 0.19076(2)
Cu8 Cu 0.43299(4) 0.51606(3) 0.52409(2)
H91 H 0.413856 0.269647 0.349639
H92 H 0.723746 0.197997 0.0561283
H93 H 0.802003 0.52575 0.0561283
H94 H 0.730353 0.144209 0.349639
H95 H 0.855791 0.586144 0.349639
H96 H 0.47425 0.276254 0.0561283
C5 C 0.3533(2) 0.9702(2) 0.5091(2)
H7 H 0.3389 0.9494 0.4620
H8 H 0.3122 0.9274 0.5402
O1 O 0.43432(15) 0.98718(15) 0.52519(12)
C13 C 0.5350(3) 0.8047(3) 0.4702(2)
H15 H 0.5797 0.7933 0.4565
H20 H 0.4930 0.7558 0.4959
C18 C 0.4950(4) 0.8151(3) 0.4078(2)
H25 H 0.4736 0.7647 0.3791
H30 H 0.5368 0.8632 0.3811
C23 C 0.6473(3) 0.9492(3) 0.4831(2)
H35 H 0.6492 0.9375 0.4344
H40 H 0.6977 0.9544 0.5050
C33 C 0.5912(3) 0.8540(3) 0.5810(2)
H55 H 0.5408 0.8042 0.5984
H60 H 0.6343 0.8382 0.5733
C38 C 0.6221(3) 0.9209(3) 0.6342(2)
H65 H 0.6755 0.9691 0.6193
H70 H 0.6323 0.8995 0.6770
N8 N 0.5707(2) 0.8781(2) 0.51498(16)
O15 O 0.4280(2) 0.82837(17) 0.42611(13)
H75 H 0.3751 0.8077 0.4051
O23 O 0.56303(19) 0.9465(2) 0.64551(18)
H83 H 0.5876 0.9986 0.6490
Cu7 Cu 0.48394(3) 0.91693(2) 0.52409(2)
H74_2 H 0.7672 0.0661 0.0103
C17_2 C 0.8620(3) 0.0636(4) 0.8035(2)
H19_2 H 0.8734 0.1197 0.7898
H24_2 H 0.9109 0.0705 0.8292
C22_2 C 0.8516(3) 0.0132(5) 0.7411(2)
H29_2 H 0.9020 0.0422 0.7124
H34_2 H 0.8035 0.0069 0.7144
C27_2 C 0.7175(3) 0.0314(4) 0.8164(2)
H39_2 H 0.7292 0.0450 0.7677
H41_2 H 0.4100 0.0310 0.8283
H44_2 H 0.7123 0.0766 0.8383
H51_2 H 0.2819 0.0211 0.8735
C37_2 C 0.8127(3) 0.0705(4) 0.9143(2)
H59_2 H 0.8625 0.0699 0.9317
H64_2 H 0.8285 0.1294 0.9066
C42_2 C 0.7458(3) 0.0345(4) 0.9675(2)
H66_2 H 0.3731 0.0088 0.7140
H69_2 H 0.6976 0.0397 0.9526
N12_2 N 0.7886(2) 0.0259(3) 0.84831(16)
H70_2 H 0.2990 0.2328 0.0103
C1_2 C 0.29207(19) 0.56937(19) 0.72218(15)
C2_2 C 0.1317(3) 0.5286(3) 0.8631(2)
H1_2 H 0.0870 0.5400 0.8768
H2_2 H 0.1737 0.5775 0.8374
C3_2 C 0.1717(4) 0.5182(3) 0.9255(2)
H3_2 H 0.1931 0.5686 0.9542
H4_2 H 0.1299 0.4701 0.9522
C4_2 C 0.0194(3) 0.3841(3) 0.8502(2)
H5_2 H 0.0175 0.3958 0.8989
C5_2 C 0.0200(2) 0.3035(2) 0.8424(2)
H7_2 H 0.0056 0.2827 0.7953
C6_2 C 0.0755(3) 0.4793(3) 0.7523(2)
H9_2 H 0.1259 0.5291 0.7349
H10_2 H 0.0324 0.4951 0.7600
C7_2 C 0.0446(3) 0.4124(3) 0.6991(2)
H12_2 H 0.0344 0.4338 0.6563
N1_2 N 0.26392(17) 0.51009(16) 0.75522(14)
N2_2 N 0.0960(2) 0.4552(2) 0.81835(16)
O1_2 O 0.10099(15) 0.32051(15) 0.85852(12)
O2_2 O 0.2387(2) 0.50496(17) 0.90722(13)
H13_2 H 0.2916 0.5256 0.9282
O3_2 O 0.10364(19) 0.3868(2) 0.68782(18)
H14_2 H 0.0791 0.3347 0.6843
Fe1_2 Fe 0.3334 0.6666 0.6666
Cu1_2 Cu 0.18273(3) 0.41640(2) 0.80924(2)
C8_2 C 0.27731(27) 0.70793(19) 0.72218(15)
C9_2 C 0.43063(19) 0.72269(27) 0.72218(15)
C10_2 C 0.37460(19) 0.76396(19) 0.61115(15)
C11_2 C 0.38936(27) 0.62540(19) 0.61115(15)
C12_2 C 0.23604(19) 0.61064(27) 0.61115(15)
C13_2 C 0.2017(3) 0.1380(3) 0.8035(2)
C14_2 C 0.3970(4) 0.8683(3) 0.8631(2)
C16_2 C 0.4714(3) 0.6030(4) 0.8631(2)
H15_2 H 0.2464 0.1266 0.7898
H16_2 H 0.4531 0.9130 0.8768
H18_2 H 0.4600 0.5469 0.8768
H20_2 H 0.1597 0.0891 0.8292
H21_2 H 0.4039 0.8263 0.8374
H23_2 H 0.4225 0.5961 0.8374
C18_2 C 0.1617(4) 0.1484(3) 0.7411(2)
C19_2 C 0.3466(5) 0.8283(4) 0.9255(2)
C21_2 C 0.4818(3) 0.6534(5) 0.9255(2)
H25_2 H 0.1403 0.0980 0.7124
H26_2 H 0.3756 0.8069 0.9542
H28_2 H 0.4314 0.6244 0.9542
H30_2 H 0.2035 0.1965 0.7144
H31_2 H 0.3403 0.8701 0.9522
H33_2 H 0.5299 0.6597 0.9522
C23_2 C 0.3140(3) 0.2825(3) 0.8164(2)
C24_2 C 0.3648(4) 0.9806(3) 0.8502(2)
C26_2 C 0.6159(3) 0.6352(4) 0.8502(2)
H35_2 H 0.3159 0.2708 0.7677
H36_2 H 0.3784 0.9825 0.8989
H38_2 H 0.6042 0.6216 0.8989
H40_2 H 0.3644 0.2877 0.8383
H43_2 H 0.6211 0.5900 0.8283
C28_2 C 0.3134(2) 0.3631(2) 0.8242(2)
C29_2 C 0.2836(3) 0.9800(2) 0.8424(2)
C30_2 C 0.0498(3) 0.6866(2) 0.8242(2)
C31_2 C 0.6965(2) 0.7164(3) 0.8424(2)
C32_2 C 0.6369(2) 0.9502(3) 0.8242(2)
H45_2 H 0.3278 0.3839 0.8713
H46_2 H 0.2772 0.9944 0.7953
H47_2 H 0.0562 0.6722 0.8713
H48_2 H 0.7173 0.7228 0.7953
H49_2 H 0.6161 0.9438 0.8713
H50_2 H 0.3545 0.4059 0.7931
H52_2 H 0.0515 0.6455 0.7931
H53_2 H 0.7393 0.7181 0.8735
H54_2 H 0.5941 0.9485 0.7931
C33_2 C 0.2579(3) 0.1873(3) 0.9143(2)
C34_2 C 0.4039(4) 0.9245(3) 0.7523(2)
C36_2 C 0.5207(3) 0.5961(4) 0.7523(2)
H55_2 H 0.2075 0.1375 0.9317
H56_2 H 0.4033 0.8741 0.7349
H58_2 H 0.4709 0.5967 0.7349
H60_2 H 0.3010 0.1715 0.9066
H61_2 H 0.4628 0.9676 0.7600
H63_2 H 0.5049 0.5372 0.7600
C38_2 C 0.2888(3) 0.2542(3) 0.9675(2)
C39_2 C 0.3679(4) 0.9554(3) 0.6991(2)
C41_2 C 0.5876(3) 0.6321(4) 0.6991(2)
H65_2 H 0.3422 0.3024 0.9526
H68_2 H 0.6358 0.6269 0.7140
H71_2 H 0.3995 0.9656 0.6563
H73_2 H 0.5662 0.6005 0.6563
N3_2 N 0.24618(23) 0.73608(17) 0.75522(14)
N4_2 N 0.48991(16) 0.75382(23) 0.75522(14)
N5_2 N 0.40275(17) 0.82324(16) 0.57811(14)
N6_2 N 0.42049(23) 0.59725(17) 0.57811(14)
N7_2 N 0.17676(16) 0.57951(23) 0.57811(14)
N8_2 N 0.2374(2) 0.2114(2) 0.84831(16)
N9_2 N 0.3593(3) 0.9040(2) 0.81835(16)
N11_2 N 0.5448(2) 0.6407(3) 0.81835(16)
O4_2 O 0.23235(15) 0.34615(15) 0.80814(12)
O5_2 O 0.21953(21) 0.89901(15) 0.85852(12)
O6_2 O 0.11381(21) 0.76765(15) 0.80814(12)
O7_2 O 0.67949(15) 0.78047(21) 0.85852(12)
O8_2 O 0.65385(15) 0.88619(21) 0.80814(12)
O15_2 O 0.0947(2) 0.16170(17) 0.75944(13)
O16_2 O 0.26630(26) 0.7613(2) 0.90722(13)
O17_2 O 0.06704(26) 0.9053(2) 0.75944(13)
O18_2 O 0.49504(17) 0.73370(26) 0.90722(13)
O19_2 O 0.83830(17) 0.93296(26) 0.75944(13)
H75_2 H 0.0418 0.1410 0.7384
H76_2 H 0.2341 0.7084 0.9282
H77_2 H 0.0993 0.9582 0.7384
H78_2 H 0.4744 0.7659 0.9282
H79_2 H 0.8590 0.9007 0.7384
O23_2 O 0.22970(19) 0.2798(2) 0.97884(18)
O24_2 O 0.28320(28) 0.89636(19) 0.68782(18)
O25_2 O 0.05014(28) 0.77030(19) 0.97884(18)
O26_2 O 0.6132(2) 0.71680(28) 0.68782(18)
O27_2 O 0.7202(2) 0.94986(28) 0.97884(18)
H83_2 H 0.2543 0.3319 0.9823
H84_2 H 0.2557 0.9209 0.6843
H85_2 H 0.0777 0.7457 0.9823
H86_2 H 0.6653 0.7443 0.6843
H87_2 H 0.6681 0.9223 0.9823
Cu2_2 Cu 0.23368(4) 0.81727(3) 0.80924(2)
Cu3_2 Cu 0.58360(2) 0.76632(4) 0.80924(2)
Cu7_2 Cu 0.15061(3) 0.25026(2) 0.85742(2)
Cu8_2 Cu 0.09966(4) 0.84939(3) 0.85742(2)
Cu9_2 Cu 0.74974(2) 0.90034(4) 0.85742(2)
H91_2 H 0.0805223 0.60298 0.682973
H92_2 H 0.390413 0.53133 0.389462
H93_2 H 0.46867 0.859083 0.389462
H94_2 H 0.39702 0.477542 0.682973
H95_2 H 0.522458 0.919478 0.682973
H96_2 H 0.140917 0.609587 0.389462
H72_2 H 0.9339 0.7010 0.0103
H6_2 H 0.9690 0.3789 0.8283
H8_2 H 0.9789 0.2607 0.8735
H11_2 H 0.9912 0.3642 0.7140
C15_2 C 0.9364(4) 0.7983(3) 0.8035(2)
H17_2 H 0.8803 0.7536 0.7898
H22_2 H 0.9295 0.8403 0.8292
C20_2 C 0.9868(5) 0.8383(4) 0.7411(2)
H27_2 H 0.9578 0.8597 0.7124
H32_2 H 0.9931 0.7965 0.7144
C25_2 C 0.9686(4) 0.6860(3) 0.8164(2)
H37_2 H 0.9550 0.6841 0.7677
H42_2 H 0.9234 0.6356 0.8383
C35_2 C 0.9295(4) 0.7421(3) 0.9143(2)
H57_2 H 0.9301 0.7925 0.9317
H62_2 H 0.8706 0.6990 0.9066
C40_2 C 0.9655(4) 0.7112(3) 0.9675(2)
H67_2 H 0.9603 0.6578 0.9526
N10_2 N 0.9741(3) 0.7626(2) 0.84831(16)
Fe1_3 Fe 0.0000 -0.0000 -0.0000
C9_3 C 0.09729(19) 0.05603(27) 0.05552(15)
C14_3 C 0.0636(4) 0.2017(3) 0.1965(2)
C17_3 C 0.5286(3) 0.3970(4) 0.1369(2)
H16_3 H 0.1197 0.2464 0.2102
H19_3 H 0.5400 0.4531 0.1232
H21_3 H 0.0705 0.1597 0.1708
H24_3 H 0.5775 0.4039 0.1626
C19_3 C 0.0132(5) 0.1617(4) 0.2589(2)
C22_3 C 0.5182(3) 0.3466(5) 0.0745(2)
H26_3 H 0.0422 0.1403 0.2876
H29_3 H 0.5686 0.3756 0.0458
H31_3 H 0.0069 0.2035 0.2856
H34_3 H 0.4701 0.3403 0.0478
C24_3 C 0.0314(4) 0.3140(3) 0.1836(2)
C27_3 C 0.3841(3) 0.3648(4) 0.1498(2)
H36_3 H 0.0450 0.3159 0.2323
H39_3 H 0.3958 0.3784 0.1011
H41_3 H 0.0766 0.3644 0.1617
H44_3 H 0.3789 0.4100 0.1717
C31_3 C 0.3631(2) 0.0498(3) 0.1758(2)
C32_3 C 0.3035(2) 0.2836(3) 0.1576(2)
H48_3 H 0.3839 0.0562 0.1287
H49_3 H 0.2827 0.2772 0.2047
H53_3 H 0.4059 0.0515 0.2069
H54_3 H 0.2607 0.2819 0.1265
C34_3 C 0.0705(4) 0.2579(3) 0.0857(2)
C37_3 C 0.4793(3) 0.4039(4) 0.2477(2)
H56_3 H 0.0699 0.2075 0.0683
H59_3 H 0.5291 0.4033 0.2651
H61_3 H 0.1294 0.3010 0.0934
H64_3 H 0.4951 0.4628 0.2400
C39_3 C 0.0345(4) 0.2888(3) 0.0325(2)
C42_3 C 0.4124(3) 0.3679(4) 0.3009(2)
H66_3 H 0.0397 0.3422 0.0474
H69_3 H 0.3642 0.3731 0.2860
H74_3 H 0.4338 0.3995 0.3437
N4_3 N 0.15657(16) 0.08716(23) 0.08856(14)
N9_3 N 0.0259(3) 0.2374(2) 0.15169(16)
O18_3 O 0.16170(17) 0.06704(26) 0.24056(13)
H78_3 H 0.1410 0.0993 0.2616
O26_3 O 0.2798(2) 0.05014(28) 0.02116(18)
H86_3 H 0.3319 0.0777 0.0177
Cu3_3 Cu 0.25026(2) 0.09966(4) 0.14258(2)
H95_3 H 0.189125 0.252811 0.0163061
Fe1_4 Fe 0.0000 -0.0000 1.0000
C10_3 C 0.04127(19) 0.09729(19) 0.94448(15)
H71_3 H 0.0661 0.2990 0.9897
N5_3 N 0.06942(17) 0.15657(16) 0.91144(14)
H93_3 H 0.135337 0.192416 0.722795
Fe1_5 Fe 0.0000 1.0000 -0.0000
C16_3 C 0.1380(3) 0.9364(4) 0.1965(2)
H18_3 H 0.1266 0.8803 0.2102
H23_3 H 0.0891 0.9295 0.1708
C21_3 C 0.1484(3) 0.9868(5) 0.2589(2)
H28_3 H 0.0980 0.9578 0.2876
H33_3 H 0.1965 0.9931 0.2856
C26_3 C 0.2825(3) 0.9686(4) 0.1836(2)
H38_3 H 0.2708 0.9550 0.2323
H40_3 H 0.0310 0.6211 0.1717
H43_3 H 0.2877 0.9234 0.1617
H50_3 H 0.0211 0.7393 0.1265
C36_3 C 0.1873(3) 0.9295(4) 0.0857(2)
H58_3 H 0.1375 0.9301 0.0683
H63_3 H 0.1715 0.8706 0.0934
C41_3 C 0.2542(3) 0.9655(4) 0.0325(2)
H65_3 H 0.0088 0.6358 0.2860
H68_3 H 0.3024 0.9603 0.0474
N11_3 N 0.2114(2) 0.9741(3) 0.15169(16)
H94_3 H 0.0636864 0.810875 0.0163061
Fe1_6 Fe 0.0000 1.0000 1.0000
C11_3 C 0.05603(27) 0.95873(19) 0.94448(15)
H73_3 H 0.2328 0.9339 0.9897
N6_3 N 0.08716(23) 0.93058(17) 0.91144(14)
H92_3 H 0.0570797 0.864663 0.722795
Fe1_7 Fe 1.0000 -0.0000 -0.0000
C8_3 C 0.94397(27) 0.04127(19) 0.05552(15)
C15_3 C 0.6030(4) 0.1317(3) 0.1369(2)
H17_3 H 0.5469 0.0870 0.1232
H22_3 H 0.5961 0.1737 0.1626
C20_3 C 0.6534(5) 0.1717(4) 0.0745(2)
H27_3 H 0.6244 0.1931 0.0458
H32_3 H 0.6597 0.1299 0.0478
C25_3 C 0.6352(4) 0.0194(3) 0.1498(2)
H37_3 H 0.6216 0.0175 0.1011
C29_3 C 0.9502(3) 0.3134(2) 0.1758(2)
C30_3 C 0.7164(3) 0.0200(2) 0.1576(2)
H46_3 H 0.9438 0.3278 0.1287
H47_3 H 0.7228 0.0056 0.2047
H51_3 H 0.9485 0.3545 0.2069
C35_3 C 0.5961(4) 0.0755(3) 0.2477(2)
H57_3 H 0.5967 0.1259 0.2651
H62_3 H 0.5372 0.0324 0.2400
C40_3 C 0.6321(4) 0.0446(3) 0.3009(2)
H72_3 H 0.6005 0.0344 0.3437
N3_3 N 0.91284(23) 0.06942(17) 0.08856(14)
O16_3 O 0.93296(26) 0.0947(2) 0.24056(13)
H76_3 H 0.9007 0.0418 0.2616
O24_3 O 0.94986(28) 0.22970(19) 0.02116(18)
H84_3 H 0.9223 0.2543 0.0177
Cu2_3 Cu 0.90034(4) 0.15061(3) 0.14258(2)
Fe1_8 Fe 1.0000 -0.0000 1.0000
C1_3 C 0.95873(19) 0.90271(19) 0.05552(15)
C2_3 C 0.7983(3) 0.8620(3) 0.1965(2)
H1_3 H 0.7536 0.8734 0.2102
H2_3 H 0.8403 0.9109 0.1708
C3_3 C 0.8383(4) 0.8516(3) 0.2589(2)
H3_3 H 0.8597 0.9020 0.2876
H4_3 H 0.7965 0.8035 0.2856
C4_3 C 0.6860(3) 0.7175(3) 0.1836(2)
H5_3 H 0.6841 0.7292 0.2323
H6_3 H 0.6356 0.7123 0.1617
C5_3 C 0.6866(2) 0.6369(2) 0.1758(2)
H7_3 H 0.6722 0.6161 0.1287
H8_3 H 0.6455 0.5941 0.2069
C6_3 C 0.7421(3) 0.8127(3) 0.0857(2)
H9_3 H 0.7925 0.8625 0.0683
H10_3 H 0.6990 0.8285 0.0934
C7_3 C 0.7112(3) 0.7458(3) 0.0325(2)
H11_3 H 0.6578 0.6976 0.0474
N1_3 N 0.93058(17) 0.84343(16) 0.08856(14)
N2_3 N 0.7626(2) 0.7886(2) 0.15169(16)
O2_3 O 0.9053(2) 0.83830(17) 0.24056(13)
H13_3 H 0.9582 0.8590 0.2616
O3_3 O 0.77030(19) 0.7202(2) 0.02116(18)
H14_3 H 0.7457 0.6681 0.0177
Fe1_9 Fe 1.0000 1.0000 -0.0000
Cu1_3 Cu 0.84939(3) 0.74974(2) 0.14258(2)
C13_3 C 0.8683(3) 0.4714(3) 0.1369(2)
H15_3 H 0.9130 0.4600 0.1232
H20_3 H 0.8263 0.4225 0.1626
C18_3 C 0.8283(4) 0.4818(3) 0.0745(2)
H25_3 H 0.8069 0.4314 0.0458
H30_3 H 0.8701 0.5299 0.0478
C23_3 C 0.9806(3) 0.6159(3) 0.1498(2)
H35_3 H 0.9825 0.6042 0.1011
H42_3 H 0.5900 0.9690 0.1717
C28_3 C 0.9800(2) 0.6965(2) 0.1576(2)
H45_3 H 0.9944 0.7173 0.2047
H52_3 H 0.7181 0.9789 0.1265
C33_3 C 0.9245(3) 0.5207(3) 0.2477(2)
H55_3 H 0.8741 0.4709 0.2651
H60_3 H 0.9676 0.5049 0.2400
C38_3 C 0.9554(3) 0.5876(3) 0.3009(2)
H67_3 H 0.6269 0.9912 0.2860
H70_3 H 0.9656 0.5662 0.3437
H91_3 H 0.747189 0.936314 0.0163061
H12_3 H 0.7010 0.7672 0.9897
Fe1_10 Fe 1.0000 1.0000 1.0000
C12_3 C 0.90271(19) 0.94397(27) 0.94448(15)
N7_3 N 0.84343(16) 0.91284(23) 0.91144(14)
H96_3 H 0.807584 0.94292 0.722795
H91_4 H 0.586144 0.730353 0.650361
H92_4 H 0.276254 0.802003 0.943872
H93_4 H 0.197997 0.47425 0.943872
H94_4 H 0.269647 0.855791 0.650361
H95_4 H 0.144209 0.413856 0.650361
H96_4 H 0.52575 0.723746 0.943872
H91_5 H 0.919478 0.39702 0.317027
H92_5 H 0.609587 0.46867 0.610538
H93_5 H 0.53133 0.140917 0.610538
H94_5 H 0.60298 0.522458 0.317027
H95_5 H 0.477542 0.0805223 0.317027
H96_5 H 0.859083 0.390413 0.610538
H96_6 H 0.192416 0.0570797 0.277205
H91_6 H 0.252811 0.0636864 0.983694
H92_6 H 0.94292 0.135337 0.277205
H94_6 H 0.936314 0.189125 0.983694
H93_6 H 0.864663 0.807584 0.277205
H95_6 H 0.810875 0.747189 0.983694
loop_
_geom_bond_atom_site_label_1
_geom_bond_atom_site_label_2
_geom_bond_site_symmetry_1
_geom_bond_site_symmetry_2
C17 H19 1_555 1_555
H24 C17 1_555 1_555
C22 C17 1_555 1_555
H29 C22 1_555 1_555
H34 C22 1_555 1_555
C27 H39 1_555 1_555
H44 C27 1_555 1_555
H48 C31 1_555 1_555
H53 C31 1_555 1_555
C37 H59 1_555 1_555
H64 C37 1_555 1_555
C42 C37 1_555 1_555
H69 C42 1_555 1_555
H74 C42 1_555 1_555
N12 C17 1_555 1_555
O7 C31 1_555 1_555
O19 C22 1_555 1_555
H79 O19 1_555 1_555
O27 C42 1_555 1_555
H87 O27 1_555 1_555
Cu9 N12 1_555 1_555
C27 N12 1_555 1_555
C37 N12 1_555 1_555
O7 Cu9 1_555 1_555
O19 Cu9 1_555 1_555
O27 Cu9 1_555 1_555
C1 N1 1_555 1_555
C2 H1 1_555 1_555
H2 C2 1_555 1_555
C3 C2 1_555 1_555
H3 C3 1_555 1_555
H4 C3 1_555 1_555
C4 H5 1_555 1_555
H6 C4 1_555 1_555
C6 H9 1_555 1_555
H10 C6 1_555 1_555
C7 C6 1_555 1_555
H11 C7 1_555 1_555
H12 C7 1_555 1_555
N1 Cu1 1_555 1_555
N2 C2 1_555 1_555
O2 C3 1_555 1_555
H13 O2 1_555 1_555
O3 C7 1_555 1_555
H14 O3 1_555 1_555
Fe1 C1 1_555 1_555
Cu1 N2 1_555 1_555
C8 Fe1 1_555 1_555
C9 Fe1 1_555 1_555
C10 Fe1 1_555 1_555
C11 Fe1 1_555 1_555
C12 Fe1 1_555 1_555
C14 H16 1_555 1_555
C15 H17 1_555 1_555
C16 H18 1_555 1_555
H21 C14 1_555 1_555
H22 C15 1_555 1_555
H23 C16 1_555 1_555
C19 C14 1_555 1_555
C20 C15 1_555 1_555
C21 C16 1_555 1_555
H26 C19 1_555 1_555
H27 C20 1_555 1_555
H28 C21 1_555 1_555
H31 C19 1_555 1_555
H32 C20 1_555 1_555
H33 C21 1_555 1_555
C24 H36 1_555 1_555
C25 H37 1_555 1_555
C26 H38 1_555 1_555
H41 C24 1_555 1_555
H42 C25 1_555 1_555
H43 C26 1_555 1_555
C29 C24 1_555 1_555
C30 C25 1_555 1_555
H45 C28 1_555 1_555
H46 C29 1_555 1_555
H47 C30 1_555 1_555
H49 C32 1_555 1_555
H50 C28 1_555 1_555
H51 C29 1_555 1_555
H52 C30 1_555 1_555
H54 C32 1_555 1_555
C34 H56 1_555 1_555
C35 H57 1_555 1_555
C36 H58 1_555 1_555
H61 C34 1_555 1_555
H62 C35 1_555 1_555
H63 C36 1_555 1_555
C39 C34 1_555 1_555
C40 C35 1_555 1_555
C41 C36 1_555 1_555
H66 C39 1_555 1_555
H67 C40 1_555 1_555
H68 C41 1_555 1_555
H71 C39 1_555 1_555
H72 C40 1_555 1_555
H73 C41 1_555 1_555
N3 C8 1_555 1_555
N4 C9 1_555 1_555
N5 C10 1_555 1_555
N6 C11 1_555 1_555
N7 C12 1_555 1_555
N9 C14 1_555 1_555
N10 C15 1_555 1_555
N11 C16 1_555 1_555
N13 Cu4 1_555 1_555
N14 Cu5 1_555 1_555
N15 Cu6 1_555 1_555
O4 Cu1 1_555 1_555
O5 C29 1_555 1_555
O6 C30 1_555 1_555
O8 C32 1_555 1_555
O9 Cu4 1_555 1_555
O10 Cu4 1_555 1_555
O11 Cu5 1_555 1_555
O12 Cu5 1_555 1_555
O13 Cu6 1_555 1_555
O14 Cu6 1_555 1_555
O16 C19 1_555 1_555
O17 C20 1_555 1_555
O18 C21 1_555 1_555
O20 H80 1_555 1_555
O21 H81 1_555 1_555
O22 H82 1_555 1_555
H76 O16 1_555 1_555
H77 O17 1_555 1_555
H78 O18 1_555 1_555
O24 C39 1_555 1_555
O25 C40 1_555 1_555
O26 C41 1_555 1_555
O28 H88 1_555 1_555
O29 H89 1_555 1_555
O30 H90 1_555 1_555
H84 O24 1_555 1_555
H85 O25 1_555 1_555
H86 O26 1_555 1_555
Cu2 N3 1_555 1_555
Cu3 N4 1_555 1_555
Cu4 N5 1_555 1_555
Cu5 N6 1_555 1_555
Cu6 N7 1_555 1_555
Cu8 N10 1_555 1_555
C4 N2 1_555 1_555
C6 N2 1_555 1_555
O2 Cu1 1_555 1_555
O3 Cu1 1_555 1_555
C24 N9 1_555 1_555
C25 N10 1_555 1_555
C26 N11 1_555 1_555
C28 O4 1_555 1_555
C34 N9 1_555 1_555
C35 N10 1_555 1_555
C36 N11 1_555 1_555
N9 Cu2 1_555 1_555
N11 Cu3 1_555 1_555
O5 Cu2 1_555 1_555
O5 Cu8 1_555 1_555
O6 Cu2 1_555 1_555
O6 Cu8 1_555 1_555
O8 Cu3 1_555 1_555
O16 Cu2 1_555 1_555
O17 Cu8 1_555 1_555
O18 Cu3 1_555 1_555
O20 Cu4 1_555 1_555
O21 Cu5 1_555 1_555
O22 Cu6 1_555 1_555
O24 Cu2 1_555 1_555
O25 Cu8 1_555 1_555
O26 Cu3 1_555 1_555
O28 Cu4 1_555 1_555
O29 Cu5 1_555 1_555
O30 Cu6 1_555 1_555
O30 H91 1_555 1_555
O21 H92 1_555 1_555
O20 H93 1_555 1_555
O29 H94 1_555 1_555
O28 H95 1_555 1_555
O22 H96 1_555 1_555
H7 C5 1_555 1_555
H8 C5 1_555 1_555
O1 C5 1_555 1_555
C13 H15 1_555 1_555
H20 C13 1_555 1_555
C18 C13 1_555 1_555
H25 C18 1_555 1_555
H30 C18 1_555 1_555
C23 H35 1_555 1_555
H40 C23 1_555 1_555
C33 H55 1_555 1_555
H60 C33 1_555 1_555
C38 C33 1_555 1_555
H65 C38 1_555 1_555
H70 C38 1_555 1_555
N8 C13 1_555 1_555
O15 C18 1_555 1_555
H75 O15 1_555 1_555
O23 C38 1_555 1_555
H83 O23 1_555 1_555
Cu7 O1 1_555 1_555
C23 N8 1_555 1_555
C33 N8 1_555 1_555
N8 Cu7 1_555 1_555
O15 Cu7 1_555 1_555
O23 Cu7 1_555 1_555
C17_2 H19_2 1_555 1_555
H24_2 C17_2 1_555 1_555
C22_2 C17_2 1_555 1_555
H29_2 C22_2 1_555 1_555
H34_2 C22_2 1_555 1_555
C27_2 H39_2 1_555 1_555
H44_2 C27_2 1_555 1_555
C37_2 H59_2 1_555 1_555
H64_2 C37_2 1_555 1_555
C42_2 C37_2 1_555 1_555
H69_2 C42_2 1_555 1_555
N12_2 C17_2 1_555 1_555
C27_2 N12_2 1_555 1_555
C37_2 N12_2 1_555 1_555
C1_2 N1_2 1_555 1_555
C2_2 H1_2 1_555 1_555
H2_2 C2_2 1_555 1_555
C3_2 C2_2 1_555 1_555
H3_2 C3_2 1_555 1_555
H4_2 C3_2 1_555 1_555
C4_2 H5_2 1_555 1_555
C5_2 C4_2 1_555 1_555
H7_2 C5_2 1_555 1_555
C6_2 H9_2 1_555 1_555
H10_2 C6_2 1_555 1_555
C7_2 C6_2 1_555 1_555
H12_2 C7_2 1_555 1_555
N1_2 Cu1_2 1_555 1_555
N2_2 C2_2 1_555 1_555
O1_2 C5_2 1_555 1_555
O2_2 C3_2 1_555 1_555
H13_2 O2_2 1_555 1_555
O3_2 C7_2 1_555 1_555
H14_2 O3_2 1_555 1_555
Fe1_2 C1_2 1_555 1_555
Cu1_2 N2_2 1_555 1_555
C8_2 Fe1_2 1_555 1_555
C9_2 Fe1_2 1_555 1_555
C10_2 Fe1_2 1_555 1_555
C11_2 Fe1_2 1_555 1_555
C12_2 Fe1_2 1_555 1_555
C13_2 H15_2 1_555 1_555
C14_2 H16_2 1_555 1_555
C16_2 H18_2 1_555 1_555
H20_2 C13_2 1_555 1_555
H21_2 C14_2 1_555 1_555
H23_2 C16_2 1_555 1_555
C18_2 C13_2 1_555 1_555
C19_2 C14_2 1_555 1_555
C21_2 C16_2 1_555 1_555
H25_2 C18_2 1_555 1_555
H26_2 C19_2 1_555 1_555
H28_2 C21_2 1_555 1_555
H30_2 C18_2 1_555 1_555
H31_2 C19_2 1_555 1_555
H33_2 C21_2 1_555 1_555
C23_2 H35_2 1_555 1_555
C24_2 H36_2 1_555 1_555
C26_2 H38_2 1_555 1_555
H40_2 C23_2 1_555 1_555
H43_2 C26_2 1_555 1_555
C28_2 C23_2 1_555 1_555
C29_2 C24_2 1_555 1_555
C31_2 C26_2 1_555 1_555
H45_2 C28_2 1_555 1_555
H46_2 C29_2 1_555 1_555
H47_2 C30_2 1_555 1_555
H48_2 C31_2 1_555 1_555
H49_2 C32_2 1_555 1_555
H50_2 C28_2 1_555 1_555
H52_2 C30_2 1_555 1_555
H53_2 C31_2 1_555 1_555
H54_2 C32_2 1_555 1_555
C33_2 H55_2 1_555 1_555
C34_2 H56_2 1_555 1_555
C36_2 H58_2 1_555 1_555
H60_2 C33_2 1_555 1_555
H61_2 C34_2 1_555 1_555
H63_2 C36_2 1_555 1_555
C38_2 C33_2 1_555 1_555
C39_2 C34_2 1_555 1_555
C41_2 C36_2 1_555 1_555
H65_2 C38_2 1_555 1_555
H68_2 C41_2 1_555 1_555
H71_2 C39_2 1_555 1_555
H73_2 C41_2 1_555 1_555
N3_2 C8_2 1_555 1_555
N4_2 C9_2 1_555 1_555
N5_2 C10_2 1_555 1_555
N6_2 C11_2 1_555 1_555
N7_2 C12_2 1_555 1_555
N8_2 C13_2 1_555 1_555
N9_2 C14_2 1_555 1_555
N11_2 C16_2 1_555 1_555
O4_2 Cu1_2 1_555 1_555
O5_2 C29_2 1_555 1_555
O6_2 C30_2 1_555 1_555
O7_2 C31_2 1_555 1_555
O8_2 C32_2 1_555 1_555
O15_2 C18_2 1_555 1_555
O16_2 C19_2 1_555 1_555
O18_2 C21_2 1_555 1_555
H75_2 O15_2 1_555 1_555
H76_2 O16_2 1_555 1_555
H77_2 O17_2 1_555 1_555
H78_2 O18_2 1_555 1_555
H79_2 O19_2 1_555 1_555
O23_2 C38_2 1_555 1_555
O24_2 C39_2 1_555 1_555
O26_2 C41_2 1_555 1_555
H83_2 O23_2 1_555 1_555
H84_2 O24_2 1_555 1_555
H85_2 O25_2 1_555 1_555
H86_2 O26_2 1_555 1_555
H87_2 O27_2 1_555 1_555
Cu2_2 N3_2 1_555 1_555
Cu3_2 N4_2 1_555 1_555
Cu7 N5_2 1_555 1_555
Cu8 N6_2 1_555 1_555
Cu9 N7_2 1_555 1_555
Cu7_2 O1_2 1_555 1_555
C4_2 N2_2 1_555 1_555
C6_2 N2_2 1_555 1_555
O1_2 Cu1_2 1_555 1_555
O2_2 Cu1_2 1_555 1_555
O3_2 Cu1_2 1_555 1_555
C23_2 N8_2 1_555 1_555
C24_2 N9_2 1_555 1_555
C26_2 N11_2 1_555 1_555
C28_2 O4_2 1_555 1_555
C33_2 N8_2 1_555 1_555
C34_2 N9_2 1_555 1_555
C36_2 N11_2 1_555 1_555
N8_2 Cu7_2 1_555 1_555
N9_2 Cu2_2 1_555 1_555
N11_2 Cu3_2 1_555 1_555
O4_2 Cu7_2 1_555 1_555
O5_2 Cu2_2 1_555 1_555
O5_2 Cu8_2 1_555 1_555
O6_2 Cu2_2 1_555 1_555
O6_2 Cu8_2 1_555 1_555
O7_2 Cu3_2 1_555 1_555
O7_2 Cu9_2 1_555 1_555
O8_2 Cu3_2 1_555 1_555
O8_2 Cu9_2 1_555 1_555
O15_2 Cu7_2 1_555 1_555
O16_2 Cu2_2 1_555 1_555
O17_2 Cu8_2 1_555 1_555
O18_2 Cu3_2 1_555 1_555
O19_2 Cu9_2 1_555 1_555
O23_2 Cu7_2 1_555 1_555
O24_2 Cu2_2 1_555 1_555
O25_2 Cu8_2 1_555 1_555
O26_2 Cu3_2 1_555 1_555
O27_2 Cu9_2 1_555 1_555
O27 H91_2 1_555 1_555
O17 H92_2 1_555 1_555
O15 H93_2 1_555 1_555
O25 H94_2 1_555 1_555
O23 H95_2 1_555 1_555
O19 H96_2 1_555 1_555
C15_2 H17_2 1_555 1_555
H22_2 C15_2 1_555 1_555
C20_2 C15_2 1_555 1_555
H27_2 C20_2 1_555 1_555
H32_2 C20_2 1_555 1_555
C25_2 H37_2 1_555 1_555
H42_2 C25_2 1_555 1_555
C35_2 H57_2 1_555 1_555
H62_2 C35_2 1_555 1_555
C40_2 C35_2 1_555 1_555
H67_2 C40_2 1_555 1_555
N10_2 C15_2 1_555 1_555
C25_2 N10_2 1_555 1_555
C35_2 N10_2 1_555 1_555
C9_3 Fe1_3 1_555 1_555
C14_3 H16_3 1_555 1_555
C17_3 H19_3 1_555 1_555
H21_3 C14_3 1_555 1_555
H24_3 C17_3 1_555 1_555
C19_3 C14_3 1_555 1_555
C22_3 C17_3 1_555 1_555
H26_3 C19_3 1_555 1_555
H29_3 C22_3 1_555 1_555
H31_3 C19_3 1_555 1_555
H34_3 C22_3 1_555 1_555
C24_3 H36_3 1_555 1_555
C27_3 H39_3 1_555 1_555
H41_3 C24_3 1_555 1_555
H44_3 C27_3 1_555 1_555
C32_3 C27_3 1_555 1_555
H48_3 C31_3 1_555 1_555
H49_3 C32_3 1_555 1_555
H53_3 C31_3 1_555 1_555
H54_3 C32_3 1_555 1_555
C34_3 H56_3 1_555 1_555
C37_3 H59_3 1_555 1_555
H61_3 C34_3 1_555 1_555
H64_3 C37_3 1_555 1_555
C39_3 C34_3 1_555 1_555
C42_3 C37_3 1_555 1_555
H66_3 C39_3 1_555 1_555
H69_3 C42_3 1_555 1_555
H74_3 C42_3 1_555 1_555
N4_3 C9_3 1_555 1_555
N9_3 C14_3 1_555 1_555
N15 C17_3 1_555 1_555
O14 C31_3 1_555 1_555
O13 C32_3 1_555 1_555
O22 C22_3 1_555 1_555
H78_3 O18_3 1_555 1_555
O30 C42_3 1_555 1_555
H86_3 O26_3 1_555 1_555
Cu3_3 N4_3 1_555 1_555
C24_3 N9_3 1_555 1_555
C27_3 N15 1_555 1_555
C34_3 N9_3 1_555 1_555
C37_3 N15 1_555 1_555
O14 Cu3_3 1_555 1_555
O13 Cu3_3 1_555 1_555
O18_3 Cu3_3 1_555 1_555
O26_3 Cu3_3 1_555 1_555
C10_3 Fe1_4 1_555 1_555
N5_3 C10_3 1_555 1_555
Cu7_2 N5_3 1_555 1_555
O15_2 H93_3 1_555 1_555
C16_3 H18_3 1_555 1_555
H23_3 C16_3 1_555 1_555
C21_3 C16_3 1_555 1_555
H28_3 C21_3 1_555 1_555
H33_3 C21_3 1_555 1_555
C26_3 H38_3 1_555 1_555
H43_3 C26_3 1_555 1_555
C36_3 H58_3 1_555 1_555
H63_3 C36_3 1_555 1_555
C41_3 C36_3 1_555 1_555
H68_3 C41_3 1_555 1_555
N11_3 C16_3 1_555 1_555
C26_3 N11_3 1_555 1_555
C36_3 N11_3 1_555 1_555
C11_3 Fe1_6 1_555 1_555
N6_3 C11_3 1_555 1_555
Cu8_2 N6_3 1_555 1_555
O17_2 H92_3 1_555 1_555
C8_3 Fe1_7 1_555 1_555
C15_3 H17_3 1_555 1_555
H22_3 C15_3 1_555 1_555
C20_3 C15_3 1_555 1_555
H27_3 C20_3 1_555 1_555
H32_3 C20_3 1_555 1_555
C25_3 H37_3 1_555 1_555
C30_3 C25_3 1_555 1_555
H46_3 C29_3 1_555 1_555
H47_3 C30_3 1_555 1_555
H51_3 C29_3 1_555 1_555
C35_3 H57_3 1_555 1_555
H62_3 C35_3 1_555 1_555
C40_3 C35_3 1_555 1_555
H72_3 C40_3 1_555 1_555
N3_3 C8_3 1_555 1_555
N14 C15_3 1_555 1_555
O12 C29_3 1_555 1_555
O11 C30_3 1_555 1_555
O21 C20_3 1_555 1_555
H76_3 O16_3 1_555 1_555
O29 C40_3 1_555 1_555
H84_3 O24_3 1_555 1_555
Cu2_3 N3_3 1_555 1_555
C25_3 N14 1_555 1_555
C35_3 N14 1_555 1_555
O12 Cu2_3 1_555 1_555
O11 Cu2_3 1_555 1_555
O16_3 Cu2_3 1_555 1_555
O24_3 Cu2_3 1_555 1_555
C1_3 N1_3 1_555 1_555
C2_3 H1_3 1_555 1_555
H2_3 C2_3 1_555 1_555
C3_3 C2_3 1_555 1_555
H3_3 C3_3 1_555 1_555
H4_3 C3_3 1_555 1_555
C4_3 H5_3 1_555 1_555
H6_3 C4_3 1_555 1_555
C5_3 C4_3 1_555 1_555
H7_3 C5_3 1_555 1_555
H8_3 C5_3 1_555 1_555
C6_3 H9_3 1_555 1_555
H10_3 C6_3 1_555 1_555
C7_3 C6_3 1_555 1_555
H11_3 C7_3 1_555 1_555
N1_3 Cu1_3 1_555 1_555
N2_3 C2_3 1_555 1_555
O10 C5_3 1_555 1_555
O2_3 C3_3 1_555 1_555
H13_3 O2_3 1_555 1_555
O3_3 C7_3 1_555 1_555
H14_3 O3_3 1_555 1_555
Fe1_9 C1_3 1_555 1_555
Cu1_3 N2_3 1_555 1_555
C13_3 H15_3 1_555 1_555
H20_3 C13_3 1_555 1_555
C18_3 C13_3 1_555 1_555
H25_3 C18_3 1_555 1_555
H30_3 C18_3 1_555 1_555
C23_3 H35_3 1_555 1_555
C28_3 C23_3 1_555 1_555
H45_3 C28_3 1_555 1_555
C33_3 H55_3 1_555 1_555
H60_3 C33_3 1_555 1_555
C38_3 C33_3 1_555 1_555
H70_3 C38_3 1_555 1_555
N13 C13_3 1_555 1_555
O9 Cu1_3 1_555 1_555
O20 C18_3 1_555 1_555
O28 C38_3 1_555 1_555
C4_3 N2_3 1_555 1_555
C6_3 N2_3 1_555 1_555
O10 Cu1_3 1_555 1_555
O2_3 Cu1_3 1_555 1_555
O3_3 Cu1_3 1_555 1_555
C23_3 N13 1_555 1_555
C28_3 O9 1_555 1_555
C33_3 N13 1_555 1_555
C12_3 Fe1_10 1_555 1_555
N7_3 C12_3 1_555 1_555
Cu9_2 N7_3 1_555 1_555
O19_2 H96_3 1_555 1_555
O26_2 H91_4 1_555 1_555
O16_2 H92_4 1_555 1_555
O2_2 H93_4 1_555 1_555
O24_2 H94_4 1_555 1_555
O3_2 H95_4 1_555 1_555
O18_2 H96_4 1_555 1_555
O26 H91_5 1_555 1_555
O16 H92_5 1_555 1_555
O2 H93_5 1_555 1_555
O24 H94_5 1_555 1_555
O3 H95_5 1_555 1_555
O18 H96_5 1_555 1_555
O18_3 H96_6 1_555 1_555
O16_3 H92_6 1_555 1_555
O2_3 H93_6 1_555 1_555

#END
