
###############################################################################
#
# This file contains modified crystal structure data generated from the
# MOF subset of the Cambridge Structural Database (CSD) v543 
# hosted by the Cambridge Crystallographic Data Centre (CCDC).
#
# This work is licensed under the Creative Commons
# Attribution-NonCommercial-ShareAlike 4.0 International License.
# To view a copy of this license, visit
# http://creativecommons.org/licenses/by-nc-sa/4.0/
# or send a letter to
# Creative Commons, PO Box 1866, Mountain View, CA 94042, USA.
#
# CIF created using the CSD Python API on 29 September 2022
# The structure has been converted into the P1 space group
# The structure has a 3D framework
# The original CSD entry AMILUE is in the monoclinic crystal system
# The framework has been calculated to contain at least 10.0% void space
# The void calculation uses a probe of radius 1.32A, grid spacing 0.4
#
###############################################################################

data_AMILUE
_chemical_formula_moiety         '(C252 H220 N36 O67 Zn18)n'
_symmetry_cell_setting           triclinic
_symmetry_space_group_name_H-M   'P 1'
_symmetry_Int_Tables_number      1
_space_group_name_Hall           'P 1'
loop_
_symmetry_equiv_pos_site_id
_symmetry_equiv_pos_as_xyz
1 x,y,z
_cell_length_a                   24.8414(6)
_cell_length_b                   31.1031(8)
_cell_length_c                   12.3400(3)
_cell_angle_alpha                90
_cell_angle_beta                 97.318(1)
_cell_angle_gamma                90
_cell_volume                     9456.77
loop_
_atom_site_label
_atom_site_type_symbol
_atom_site_fract_x
_atom_site_fract_y
_atom_site_fract_z
C47 C 0.02793(17) 0.35589(15) 0.0998(3)
H47 H 0.0619 0.3559 0.0720
C48 C 0.02699(15) 0.35610(14) 0.2101(3)
H48 H 0.0599 0.3575 0.2583
O13 O 0.01936(11) 0.36483(8) 0.43041(19)
Zn8 Zn 0.026024(14) 0.365803(10) 0.58950(2)
Zn1 Zn 0.179252(12) 0.255647(10) 0.38810(2)
Zn2 Zn 0.228409(12) 0.245275(10) 0.19120(2)
C2 C 0.4494(3) 0.02631(16) 0.6519(7)
H2 H 0.4662 0.0526 0.6282
H3 H 0.4664 0.0185 0.7253
H4 H 0.4105 0.0312 0.6533
C3 C 0.4867(4) 0.0010(2) 0.4858(7)
H5 H 0.4971 0.0314 0.4898
N2 N 0.14120(11) 0.26467(9) 0.5264(2)
N3 N 0.07635(12) 0.30939(8) 0.6085(2)
N4 N 0.07710(17) 0.23115(11) 0.6338(3)
N5 N 0.15009(16) 0.27425(13) 0.7240(2)
C4 C 0.10622(12) 0.30359(9) 0.5140(2)
H8 H 0.1290 0.3292 0.5062
H9 H 0.0801 0.3009 0.4467
C5 C 0.10604(16) 0.22642(10) 0.5397(3)
H10 H 0.0796 0.2229 0.4731
H11 H 0.1288 0.2002 0.5484
C6 C 0.17986(16) 0.26961(14) 0.6280(3)
H12 H 0.2039 0.2441 0.6378
H13 H 0.2028 0.2953 0.6218
C7 C 0.04226(18) 0.26978(11) 0.6177(4)
H14 H 0.0212 0.2730 0.6801
H15 H 0.0163 0.2664 0.5504
C8 C 0.1169(3) 0.23702(16) 0.7313(4)
H16 H 0.0975 0.2397 0.7962
H17 H 0.1404 0.2113 0.7414
C9 C 0.11595(17) 0.31287(13) 0.7089(3)
H18 H 0.1392 0.3384 0.7035
H19 H 0.0962 0.3167 0.7730
N6 N 0.26440(10) 0.23369(8) 0.0520(2)
C10 C 0.30085(12) 0.19553(9) 0.0695(2)
H20 H 0.3276 0.2003 0.1351
H21 H 0.2791 0.1699 0.0830
C11 C 0.29781(16) 0.27143(10) 0.0285(3)
H22 H 0.2740 0.2969 0.0152
H23 H 0.3246 0.2775 0.0931
H26 H 0.3887 0.2327 0.0172
O2 O 0.25876(11) 0.26405(11) 0.4472(2)
O3 O 0.29832(12) 0.25322(9) 0.2953(2)
C16 C 0.29988(14) 0.26003(10) 0.3963(3)
C17 C 0.35467(14) 0.26263(11) 0.4646(3)
C18 C 0.40025(14) 0.26009(13) 0.4185(3)
H32 H 0.3981 0.2580 0.3413
C19 C 0.45238(15) 0.26039(13) 0.4829(3)
C20 C 0.45508(13) 0.26350(11) 0.5970(3)
C21 C 0.40604(16) 0.26735(19) 0.6442(3)
H33 H 0.4072 0.2698 0.7212
C22 C 0.35690(17) 0.26760(19) 0.5788(3)
H34 H 0.3243 0.2711 0.6105
C23 C 0.50068(16) 0.2570(2) 0.4366(3)
H35 H 0.4993 0.2544 0.3596
C24 C 0.54972(16) 0.2574(2) 0.5001(3)
H36 H 0.5820 0.2557 0.4664
C25 C 0.55368(14) 0.26029(11) 0.6150(3)
C26 C 0.50624(13) 0.26236(12) 0.6618(3)
H37 H 0.5080 0.2630 0.7391
C27 C 0.60809(13) 0.25821(10) 0.6821(3)
O4 O 0.64808(11) 0.25860(10) 0.6319(2)
O5 O 0.60921(10) 0.25578(8) 0.78440(19)
O6 O 0.17711(11) 0.31637(7) 0.3296(2)
O7 O 0.22065(13) 0.30959(8) 0.1823(2)
C28 C 0.19445(15) 0.33074(10) 0.2462(3)
C29 C 0.18267(16) 0.37747(10) 0.2177(3)
C30 C 0.1984(3) 0.39442(14) 0.1206(5)
H38 H 0.2171 0.3769 0.0744
C31 C 0.1864(3) 0.43646(15) 0.0934(5)
H39 H 0.1975 0.4481 0.0286
C32 C 0.1578(2) 0.46268(13) 0.1596(4)
C33 C 0.14224(17) 0.44546(10) 0.2559(3)
C34 C 0.15571(15) 0.40203(10) 0.2837(3)
H40 H 0.1457 0.3902 0.3492
C35 C 0.1444(2) 0.50557(13) 0.1294(4)
H41 H 0.1573 0.5179 0.0673
C36 C 0.1127(2) 0.52919(12) 0.1898(4)
C37 C 0.09621(19) 0.51198(12) 0.2851(4)
H42 H 0.0750 0.5289 0.3278
C38 C 0.1105(2) 0.47101(12) 0.3170(4)
H43 H 0.0988 0.4596 0.3815
C39 C 0.0935(2) 0.57341(12) 0.1479(4)
O8 O 0.1168(2) 0.59127(10) 0.0751(3)
O9 O 0.05476(13) 0.58869(9) 0.1869(3)
O10 O 0.19325(11) 0.19150(8) 0.4041(2)
H44 H 0.0132 0.3542 0.8811
O15 O 0.22656(12) 0.18385(7) 0.2459(2)
C52 C 0.21444(13) 0.17013(10) 0.3352(3)
C53 C 0.22885(17) 0.12468(11) 0.3630(3)
C54 C 0.25376(15) 0.09938(10) 0.2920(3)
H50 H 0.2601 0.1107 0.2232
C55 C 0.26990(16) 0.05701(10) 0.3202(3)
C56 C 0.2598(2) 0.03995(12) 0.4208(4)
C57 C 0.2328(3) 0.06552(14) 0.4913(4)
H51 H 0.2247 0.0539 0.5586
C58 C 0.2181(2) 0.10694(14) 0.4637(4)
H52 H 0.2004 0.1239 0.5127
C59 C 0.29783(19) 0.03154(12) 0.2493(4)
H53 H 0.3056 0.0431 0.1817
Zn5 Zn 0.679252(12) 0.244353(10) 0.88810(2)
Zn6 Zn 0.728409(12) 0.254725(10) 0.69120(2)
Zn7 Zn 0.026024(14) 0.634197(10) 0.08950(2)
Zn9 Zn 0.381980(14) 0.130740(11) -0.00006(2)
O18 O 0.14808(11) 0.24140(10) 0.1319(2)
O19 O 0.10921(10) 0.24422(8) 0.28440(19)
O20 O 0.05476(13) 0.41131(9) 0.6869(3)
N7 N 0.33009(11) 0.18744(8) 0.9738(2)
N8 N 0.32616(16) 0.26442(10) 0.9344(3)
N9 N 0.25124(14) 0.21741(12) 0.8570(2)
C12 C 0.22453(15) 0.22538(12) 0.9518(3)
H24 H 0.2018 0.2002 0.9650
H25 H 0.2003 0.2506 0.9379
C13 C 0.36119(15) 0.22715(10) 0.9534(3)
H27 H 0.3805 0.2225 0.8890
C14 C 0.2844(2) 0.25490(15) 0.8384(4)
H28 H 0.2605 0.2802 0.8233
H29 H 0.3030 0.2497 0.7731
C15 C 0.28753(16) 0.18034(12) 0.8777(3)
H30 H 0.3055 0.1747 0.8119
H31 H 0.2658 0.1547 0.8914
Zn9_2 Zn 0.381980(14) 0.130740(11) 0.99994(2)
Zn4 Zn 0.381980(14) 0.869260(11) 0.49994(2)
O1 O 0.44730(19) 0.92060(7) 0.5379(3)
C1 C 0.43864(18) 0.95240(12) 0.5914(4)
H1 H 0.4171 0.9489 0.6491
N1 N 0.45706(17) 0.99083(10) 0.5745(3)
H6 H 0.4639 0.9954 0.4164
H7 H 0.5194 0.9831 0.4904
C60 C 0.3135(2) 0.99041(13) 0.2780(4)
H54 H 0.3318 0.9736 0.2298
C61 C 0.30276(19) 0.97276(12) 0.3776(4)
C62 C 0.2775(2) 0.99711(13) 0.4474(4)
H55 H 0.2713 0.9853 0.5157
C63 C 0.3248(2) 0.92990(12) 0.4131(5)
O16 O 0.35205(16) 0.90885(10) 0.3509(4)
O17 O 0.32034(14) 0.91597(9) 0.5056(3)
N10 N 0.33009(11) 0.81256(8) 0.4738(2)
O21 O 0.39036(10) 0.86134(8) 0.66147(19)
O23 O 0.43353(10) 0.84096(7) 0.4101(2)
C43 C 0.97947(14) 0.35558(12) 0.0260(3)
C44 C 0.92863(13) 0.35449(11) 0.0687(3)
H45 H 0.8456 0.3546 0.0224
C49 C 0.97651(14) 0.35428(10) 0.2524(2)
C50 C 0.92876(14) 0.35404(12) 0.1823(3)
H49 H 0.8952 0.3536 0.2115
C51 C 0.97576(14) 0.35373(9) 0.3724(2)
O14 O 0.93353(10) 0.34096(7) 0.4101(2)
Zn11 Zn 0.881980(14) 0.369260(11) 0.49994(2)
O11 O 0.89036(10) 0.36134(8) 0.66147(19)
O12 O 0.97639(10) 0.34035(7) 0.68567(19)
C40 C 0.93314(13) 0.35170(9) 0.7207(2)
C41 C 0.93226(14) 0.35312(11) 0.8423(2)
C42 C 0.97969(15) 0.35427(12) 0.9105(3)
C45 C 0.87959(15) 0.35414(13) 0.9950(3)
C46 C 0.88152(14) 0.35318(13) 0.8846(3)
H46 H 0.8487 0.3526 0.8358
O1_2 O 0.44730(19) 0.07940(7) 0.0379(3)
C1_2 C 0.43864(18) 0.04760(12) 0.0914(4)
H1_2 H 0.4171 0.0511 0.1491
N1_2 N 0.45706(17) 0.00917(10) 0.0745(3)
H55_2 H 0.2713 0.0147 0.0157
O17_2 O 0.32034(14) 0.08403(9) 0.0056(3)
O21_2 O 0.39036(10) 0.13866(8) 0.16147(19)
H6_2 H 0.4639 0.0046 0.9164
H7_2 H 0.5194 0.0169 0.9904
C60_2 C 0.3135(2) 0.00959(13) 0.7780(4)
H54_2 H 0.3318 0.0264 0.7298
C61_2 C 0.30276(19) 0.02724(12) 0.8776(4)
C62_2 C 0.2775(2) 0.00289(13) 0.9474(4)
C63_2 C 0.3248(2) 0.07010(12) 0.9131(5)
O16_2 O 0.35205(16) 0.09115(10) 0.8509(4)
O23_2 O 0.43353(10) 0.15904(7) 0.9101(2)
C2_2 C 0.4494(3) 0.97369(16) 0.1519(7)
H2_2 H 0.4662 0.9474 0.1282
H3_2 H 0.4664 0.9815 0.2253
H4_2 H 0.4105 0.9688 0.1533
N2_2 N 0.14120(11) 0.73533(9) 0.0264(2)
N3_2 N 0.07635(12) 0.69061(8) 0.1085(2)
N4_2 N 0.07710(17) 0.76885(11) 0.1338(3)
N5_2 N 0.15009(16) 0.72575(13) 0.2240(2)
C4_2 C 0.10622(12) 0.69641(9) 0.0140(2)
H8_2 H 0.1290 0.6708 0.0062
C5_2 C 0.10604(16) 0.77358(10) 0.0397(3)
H11_2 H 0.1288 0.7998 0.0484
C6_2 C 0.17986(16) 0.73039(14) 0.1280(3)
H12_2 H 0.2039 0.7559 0.1378
H13_2 H 0.2028 0.7047 0.1218
C7_2 C 0.04226(18) 0.73022(11) 0.1177(4)
H14_2 H 0.0212 0.7270 0.1801
H15_2 H 0.0163 0.7336 0.0504
C8_2 C 0.1169(3) 0.76298(16) 0.2313(4)
H16_2 H 0.0975 0.7603 0.2962
H17_2 H 0.1404 0.7887 0.2414
C9_2 C 0.11595(17) 0.68713(13) 0.2089(3)
H18_2 H 0.1392 0.6616 0.2035
H19_2 H 0.0962 0.6833 0.2730
C20_2 C 0.45508(13) 0.73650(11) 0.0970(3)
C21_2 C 0.40604(16) 0.73265(19) 0.1442(3)
H33_2 H 0.4072 0.7302 0.2212
C22_2 C 0.35690(17) 0.73240(19) 0.0788(3)
H34_2 H 0.3243 0.7289 0.1105
C24_2 C 0.54972(16) 0.7426(2) 0.0001(3)
C25_2 C 0.55368(14) 0.73971(11) 0.1150(3)
C26_2 C 0.50624(13) 0.73764(12) 0.1618(3)
H37_2 H 0.5080 0.7370 0.2391
C27_2 C 0.60809(13) 0.74179(10) 0.1821(3)
O4_2 O 0.64808(11) 0.74140(10) 0.1319(2)
O5_2 O 0.60921(10) 0.74422(8) 0.28440(19)
H44_2 H 0.0132 0.6458 0.3811
C47_2 C 0.02793(17) 0.64411(15) 0.5998(3)
H47_2 H 0.0619 0.6441 0.5720
C48_2 C 0.02699(15) 0.64390(14) 0.7101(3)
H48_2 H 0.0599 0.6425 0.7583
O13_2 O 0.01936(11) 0.63517(8) 0.93041(19)
H51_2 H 0.2247 0.9461 0.0586
H52_2 H 0.2004 0.8761 0.0127
Zn5_2 Zn 0.679252(12) 0.755647(10) 0.38810(2)
Zn6_2 Zn 0.728409(12) 0.745275(10) 0.19120(2)
Zn1_2 Zn 0.179252(12) 0.744353(10) 0.88810(2)
Zn2_2 Zn 0.228409(12) 0.754725(10) 0.69120(2)
C3_2 C 0.4867(4) 0.9990(2) 0.9858(7)
H5_2 H 0.4971 0.9686 0.9898
H9_2 H 0.0801 0.6991 0.9467
H10_2 H 0.0796 0.7771 0.9731
N6_2 N 0.26440(10) 0.76631(8) 0.5520(2)
N8_2 N 0.32616(16) 0.73558(10) 0.4344(3)
N9_2 N 0.25124(14) 0.78259(12) 0.3570(2)
C10_2 C 0.30085(12) 0.80447(9) 0.5695(2)
H20_2 H 0.3276 0.7997 0.6351
H21_2 H 0.2791 0.8301 0.5830
C11_2 C 0.29781(16) 0.72857(10) 0.5285(3)
H22_2 H 0.2740 0.7031 0.5152
H23_2 H 0.3246 0.7225 0.5931
C12_2 C 0.22453(15) 0.77462(12) 0.4518(3)
H24_2 H 0.2018 0.7998 0.4650
H25_2 H 0.2003 0.7494 0.4379
C13_2 C 0.36119(15) 0.77285(10) 0.4534(3)
H26_2 H 0.3887 0.7673 0.5172
H27_2 H 0.3805 0.7775 0.3890
C14_2 C 0.2844(2) 0.74510(15) 0.3384(4)
H28_2 H 0.2605 0.7198 0.3233
H29_2 H 0.3030 0.7503 0.2731
C15_2 C 0.28753(16) 0.81966(12) 0.3777(3)
H30_2 H 0.3055 0.8253 0.3119
H31_2 H 0.2658 0.8453 0.3914
O2_2 O 0.25876(11) 0.73595(11) 0.9472(2)
O3_2 O 0.29832(12) 0.74678(9) 0.7953(2)
C16_2 C 0.29988(14) 0.73997(10) 0.8963(3)
C17_2 C 0.35467(14) 0.73737(11) 0.9646(3)
C18_2 C 0.40025(14) 0.73991(13) 0.9185(3)
H32_2 H 0.3981 0.7420 0.8413
C19_2 C 0.45238(15) 0.73961(13) 0.9829(3)
C23_2 C 0.50068(16) 0.7430(2) 0.9366(3)
H35_2 H 0.4993 0.7456 0.8596
H36_2 H 0.5820 0.7443 0.9664
O6_2 O 0.17711(11) 0.68363(7) 0.8296(2)
O7_2 O 0.22065(13) 0.69041(8) 0.6823(2)
C28_2 C 0.19445(15) 0.66926(10) 0.7462(3)
C29_2 C 0.18267(16) 0.62253(10) 0.7177(3)
C30_2 C 0.1984(3) 0.60558(14) 0.6206(5)
H38_2 H 0.2171 0.6231 0.5744
C31_2 C 0.1864(3) 0.56354(15) 0.5934(5)
H39_2 H 0.1975 0.5519 0.5286
C32_2 C 0.1578(2) 0.53732(13) 0.6596(4)
C33_2 C 0.14224(17) 0.55454(10) 0.7559(3)
C34_2 C 0.15571(15) 0.59797(10) 0.7837(3)
H40_2 H 0.1457 0.6098 0.8492
C35_2 C 0.1444(2) 0.49443(13) 0.6294(4)
H41_2 H 0.1573 0.4821 0.5673
C36_2 C 0.1127(2) 0.47081(12) 0.6898(4)
C37_2 C 0.09621(19) 0.48802(12) 0.7851(4)
H42_2 H 0.0750 0.4711 0.8278
C38_2 C 0.1105(2) 0.52899(12) 0.8170(4)
H43_2 H 0.0988 0.5404 0.8815
C39_2 C 0.0935(2) 0.42659(12) 0.6479(4)
O8_2 O 0.1168(2) 0.40873(10) 0.5751(3)
O10_2 O 0.19325(11) 0.80850(8) 0.9041(2)
O15_2 O 0.22656(12) 0.81615(7) 0.7459(2)
C52_2 C 0.21444(13) 0.82987(10) 0.8352(3)
C53_2 C 0.22885(17) 0.87532(11) 0.8630(3)
C54_2 C 0.25376(15) 0.90062(10) 0.7920(3)
H50_2 H 0.2601 0.8893 0.7232
C55_2 C 0.26990(16) 0.94299(10) 0.8202(3)
C56_2 C 0.2598(2) 0.96005(12) 0.9208(4)
C57_2 C 0.2328(3) 0.93448(14) 0.9913(4)
C58_2 C 0.2181(2) 0.89306(14) 0.9637(4)
C59_2 C 0.29783(19) 0.96846(12) 0.7493(4)
H53_2 H 0.3056 0.9569 0.6817
O18_2 O 0.14808(11) 0.75860(10) 0.6319(2)
O19_2 O 0.10921(10) 0.75578(8) 0.78440(19)
Zn11_2 Zn 0.881980(14) 0.630740(11) -0.00006(2)
O11_2 O 0.89036(10) 0.63866(8) 0.16147(19)
O12_2 O 0.97639(10) 0.65965(7) 0.18567(19)
C40_2 C 0.93314(13) 0.64830(9) 0.2207(2)
C41_2 C 0.93226(14) 0.64688(11) 0.3423(2)
C42_2 C 0.97969(15) 0.64573(12) 0.4105(3)
C43_2 C 0.97947(14) 0.64442(12) 0.5260(3)
C44_2 C 0.92863(13) 0.64551(11) 0.5687(3)
C45_2 C 0.87959(15) 0.64586(13) 0.4950(3)
H45_2 H 0.8456 0.6454 0.5224
C46_2 C 0.88152(14) 0.64682(13) 0.3846(3)
H46_2 H 0.8487 0.6474 0.3358
C49_2 C 0.97651(14) 0.64572(10) 0.7524(2)
C50_2 C 0.92876(14) 0.64596(12) 0.6823(3)
H49_2 H 0.8952 0.6464 0.7115
C51_2 C 0.97576(14) 0.64627(9) 0.8724(2)
O14_2 O 0.93353(10) 0.65904(7) 0.9101(2)
Zn11_3 Zn 0.881980(14) 0.630740(11) 0.99994(2)
H7_3 H 0.0194 0.4831 0.4904
C23_3 C 0.00068(16) 0.7570(2) 0.4366(3)
C24_3 C 0.04972(16) 0.7574(2) 0.5001(3)
H36_3 H 0.0820 0.7557 0.4664
C25_3 C 0.05368(14) 0.76029(11) 0.6150(3)
C26_3 C 0.00624(13) 0.76236(12) 0.6618(3)
H37_3 H 0.0080 0.7630 0.7391
C27_3 C 0.10809(13) 0.75821(10) 0.6821(3)
C35_3 C 0.6444(2) 0.00557(13) 0.1294(4)
H41_3 H 0.6573 0.0179 0.0673
C36_3 C 0.6127(2) 0.02919(12) 0.1898(4)
C37_3 C 0.59621(19) 0.01198(12) 0.2851(4)
H42_3 H 0.5750 0.0289 0.3278
C39_3 C 0.5935(2) 0.07341(12) 0.1479(4)
O8_3 O 0.6168(2) 0.09127(10) 0.0751(3)
O9_2 O 0.55476(13) 0.08869(9) 0.1869(3)
Zn7_2 Zn 0.526024(14) 0.134197(10) 0.08950(2)
C43_3 C 0.47947(14) 0.85558(12) 0.0260(3)
C44_3 C 0.42863(13) 0.85449(11) 0.0687(3)
H45_3 H 0.3456 0.8546 0.0224
C47_3 C 0.52793(17) 0.85589(15) 0.0998(3)
H47_3 H 0.5619 0.8559 0.0720
C48_3 C 0.52699(15) 0.85610(14) 0.2101(3)
H48_3 H 0.5599 0.8575 0.2583
C49_3 C 0.47651(14) 0.85428(10) 0.2524(2)
C50_3 C 0.42876(14) 0.85404(12) 0.1823(3)
H49_3 H 0.3952 0.8536 0.2115
C51_3 C 0.47576(14) 0.85373(9) 0.3724(2)
O13_3 O 0.51936(11) 0.86483(8) 0.43041(19)
Zn8_2 Zn 0.526024(14) 0.865803(10) 0.58950(2)
O1_3 O 0.94730(19) 0.42060(7) 0.5379(3)
C1_3 C 0.93864(18) 0.45240(12) 0.5914(4)
H1_3 H 0.9171 0.4489 0.6491
N1_3 N 0.95706(17) 0.49083(10) 0.5745(3)
C2_3 C 0.9494(3) 0.52631(16) 0.6519(7)
H2_3 H 0.9662 0.5526 0.6282
H3_3 H 0.9664 0.5185 0.7253
H4_3 H 0.9105 0.5312 0.6533
C3_3 C 0.9867(4) 0.5010(2) 0.4858(7)
H5_3 H 0.9971 0.5314 0.4898
H6_3 H 0.9639 0.4954 0.4164
N2_3 N 0.64120(11) 0.76467(9) 0.5264(2)
N3_3 N 0.57635(12) 0.80939(8) 0.6085(2)
N4_3 N 0.57710(17) 0.73115(11) 0.6338(3)
N5_3 N 0.65009(16) 0.77425(13) 0.7240(2)
C4_3 C 0.60622(12) 0.80359(9) 0.5140(2)
H8_3 H 0.6290 0.8292 0.5062
H9_3 H 0.5801 0.8009 0.4467
C5_3 C 0.60604(16) 0.72642(10) 0.5397(3)
H10_3 H 0.5796 0.7229 0.4731
H11_3 H 0.6288 0.7002 0.5484
C6_3 C 0.67986(16) 0.76961(14) 0.6280(3)
H12_3 H 0.7039 0.7441 0.6378
H13_3 H 0.7028 0.7953 0.6218
C7_3 C 0.54226(18) 0.76978(11) 0.6177(4)
H14_3 H 0.5212 0.7730 0.6801
H15_3 H 0.5163 0.7664 0.5504
C8_3 C 0.6169(3) 0.73702(16) 0.7313(4)
H16_3 H 0.5975 0.7397 0.7962
H17_3 H 0.6404 0.7113 0.7414
C9_3 C 0.61595(17) 0.81287(13) 0.7089(3)
H18_3 H 0.6392 0.8384 0.7035
H19_3 H 0.5962 0.8167 0.7730
N6_3 N 0.76440(10) 0.73369(8) 0.0520(2)
C10_3 C 0.80085(12) 0.69553(9) 0.0695(2)
H20_3 H 0.8276 0.7003 0.1351
H21_3 H 0.7791 0.6699 0.0830
C11_3 C 0.79781(16) 0.77143(10) 0.0285(3)
H22_3 H 0.7740 0.7969 0.0152
H23_3 H 0.8246 0.7775 0.0931
H26_3 H 0.8887 0.7327 0.0172
O2_3 O 0.75876(11) 0.76405(11) 0.4472(2)
O3_3 O 0.79832(12) 0.75322(9) 0.2953(2)
C16_3 C 0.79988(14) 0.76003(10) 0.3963(3)
C17_3 C 0.85467(14) 0.76263(11) 0.4646(3)
C18_3 C 0.90025(14) 0.76009(13) 0.4185(3)
H32_3 H 0.8981 0.7580 0.3413
C19_3 C 0.95238(15) 0.76039(13) 0.4829(3)
C20_3 C 0.95508(13) 0.76350(11) 0.5970(3)
C21_3 C 0.90604(16) 0.76735(19) 0.6442(3)
H33_3 H 0.9072 0.7698 0.7212
C22_3 C 0.85690(17) 0.76760(19) 0.5788(3)
H34_3 H 0.8243 0.7711 0.6105
H35_3 H 0.9993 0.7544 0.3596
O6_3 O 0.67711(11) 0.81637(7) 0.3296(2)
O7_3 O 0.72065(13) 0.80959(8) 0.1823(2)
C28_3 C 0.69445(15) 0.83074(10) 0.2462(3)
C29_3 C 0.68267(16) 0.87747(10) 0.2177(3)
C30_3 C 0.6984(3) 0.89442(14) 0.1206(5)
H38_3 H 0.7171 0.8769 0.0744
C31_3 C 0.6864(3) 0.93646(15) 0.0934(5)
H39_3 H 0.6975 0.9481 0.0286
C32_3 C 0.6578(2) 0.96268(13) 0.1596(4)
C33_3 C 0.64224(17) 0.94546(10) 0.2559(3)
C34_3 C 0.65571(15) 0.90203(10) 0.2837(3)
H40_3 H 0.6457 0.8902 0.3492
C38_3 C 0.6105(2) 0.97101(12) 0.3170(4)
H43_3 H 0.5988 0.9596 0.3815
O10_3 O 0.69325(11) 0.69150(8) 0.4041(2)
O12_3 O 0.47639(10) 0.84035(7) 0.68567(19)
C40_3 C 0.43314(13) 0.85170(9) 0.7207(2)
C41_3 C 0.43226(14) 0.85312(11) 0.8423(2)
C42_3 C 0.47969(15) 0.85427(12) 0.9105(3)
H44_3 H 0.5132 0.8542 0.8811
C45_3 C 0.37959(15) 0.85414(13) 0.9950(3)
C46_3 C 0.38152(14) 0.85318(13) 0.8846(3)
H46_3 H 0.3487 0.8526 0.8358
O15_3 O 0.72656(12) 0.68385(7) 0.2459(2)
C52_3 C 0.71444(13) 0.67013(10) 0.3352(3)
C53_3 C 0.72885(17) 0.62468(11) 0.3630(3)
C54_3 C 0.75376(15) 0.59938(10) 0.2920(3)
H50_3 H 0.7601 0.6107 0.2232
C55_3 C 0.76990(16) 0.55701(10) 0.3202(3)
C56_3 C 0.7598(2) 0.53995(12) 0.4208(4)
C57_3 C 0.7328(3) 0.56552(14) 0.4913(4)
H51_3 H 0.7247 0.5539 0.5586
C58_3 C 0.7181(2) 0.60694(14) 0.4637(4)
H52_3 H 0.7004 0.6239 0.5127
C59_3 C 0.79783(19) 0.53154(12) 0.2493(4)
H53_3 H 0.8056 0.5431 0.1817
C60_3 C 0.8135(2) 0.49041(13) 0.2780(4)
H54_3 H 0.8318 0.4736 0.2298
C61_3 C 0.80276(19) 0.47276(12) 0.3776(4)
C62_3 C 0.7775(2) 0.49711(13) 0.4474(4)
H55_3 H 0.7713 0.4853 0.5157
C63_3 C 0.8248(2) 0.42990(12) 0.4131(5)
O16_3 O 0.85205(16) 0.40885(10) 0.3509(4)
O17_3 O 0.82034(14) 0.41597(9) 0.5056(3)
N10_2 N 0.83009(11) 0.31256(8) 0.4738(2)
O20_2 O 0.55476(13) 0.91131(9) 0.6869(3)
N7_2 N 0.83009(11) 0.68744(8) 0.9738(2)
N8_3 N 0.82616(16) 0.76442(10) 0.9344(3)
N9_3 N 0.75124(14) 0.71741(12) 0.8570(2)
C12_3 C 0.72453(15) 0.72538(12) 0.9518(3)
H24_3 H 0.7018 0.7002 0.9650
H25_3 H 0.7003 0.7506 0.9379
C13_3 C 0.86119(15) 0.72715(10) 0.9534(3)
H27_3 H 0.8805 0.7225 0.8890
C14_3 C 0.7844(2) 0.75490(15) 0.8384(4)
H28_3 H 0.7605 0.7802 0.8233
H29_3 H 0.8030 0.7497 0.7731
C15_3 C 0.78753(16) 0.68034(12) 0.8777(3)
H30_3 H 0.8055 0.6747 0.8119
H31_3 H 0.7658 0.6547 0.8914
C24_4 C 0.04972(16) 0.2426(2) 0.0001(3)
C25_4 C 0.05368(14) 0.23971(11) 0.1150(3)
C26_4 C 0.00624(13) 0.23764(12) 0.1618(3)
H37_4 H 0.0080 0.2370 0.2391
C27_4 C 0.10809(13) 0.24179(10) 0.1821(3)
O1_4 O 0.94730(19) 0.57940(7) 0.0379(3)
C1_4 C 0.93864(18) 0.54760(12) 0.0914(4)
H1_4 H 0.9171 0.5511 0.1491
N1_4 N 0.95706(17) 0.50917(10) 0.0745(3)
C2_4 C 0.9494(3) 0.47369(16) 0.1519(7)
H2_4 H 0.9662 0.4474 0.1282
H3_4 H 0.9664 0.4815 0.2253
H4_4 H 0.9105 0.4688 0.1533
N2_4 N 0.64120(11) 0.23533(9) 0.0264(2)
N3_4 N 0.57635(12) 0.19061(8) 0.1085(2)
N4_4 N 0.57710(17) 0.26885(11) 0.1338(3)
N5_4 N 0.65009(16) 0.22575(13) 0.2240(2)
C4_4 C 0.60622(12) 0.19641(9) 0.0140(2)
H8_4 H 0.6290 0.1708 0.0062
C5_4 C 0.60604(16) 0.27358(10) 0.0397(3)
H11_4 H 0.6288 0.2998 0.0484
C6_4 C 0.67986(16) 0.23039(14) 0.1280(3)
H12_4 H 0.7039 0.2559 0.1378
H13_4 H 0.7028 0.2047 0.1218
C7_4 C 0.54226(18) 0.23022(11) 0.1177(4)
H14_4 H 0.5212 0.2270 0.1801
H15_4 H 0.5163 0.2336 0.0504
C8_4 C 0.6169(3) 0.26298(16) 0.2313(4)
H16_4 H 0.5975 0.2603 0.2962
H17_4 H 0.6404 0.2887 0.2414
C9_4 C 0.61595(17) 0.18713(13) 0.2089(3)
H18_4 H 0.6392 0.1616 0.2035
H19_4 H 0.5962 0.1833 0.2730
C20_4 C 0.95508(13) 0.23650(11) 0.0970(3)
C21_4 C 0.90604(16) 0.23265(19) 0.1442(3)
H33_4 H 0.9072 0.2302 0.2212
C22_4 C 0.85690(17) 0.23240(19) 0.0788(3)
H34_4 H 0.8243 0.2289 0.1105
O12_4 O 0.47639(10) 0.15965(7) 0.18567(19)
C40_4 C 0.43314(13) 0.14830(9) 0.2207(2)
C41_4 C 0.43226(14) 0.14688(11) 0.3423(2)
C42_4 C 0.47969(15) 0.14573(12) 0.4105(3)
H44_4 H 0.5132 0.1458 0.3811
C43_4 C 0.47947(14) 0.14442(12) 0.5260(3)
C44_4 C 0.42863(13) 0.14551(11) 0.5687(3)
C45_4 C 0.37959(15) 0.14586(13) 0.4950(3)
H45_4 H 0.3456 0.1454 0.5224
C46_4 C 0.38152(14) 0.14682(13) 0.3846(3)
H46_4 H 0.3487 0.1474 0.3358
C47_4 C 0.52793(17) 0.14411(15) 0.5998(3)
H47_4 H 0.5619 0.1441 0.5720
C48_4 C 0.52699(15) 0.14390(14) 0.7101(3)
H48_4 H 0.5599 0.1425 0.7583
C49_4 C 0.47651(14) 0.14572(10) 0.7524(2)
C50_4 C 0.42876(14) 0.14596(12) 0.6823(3)
H49_4 H 0.3952 0.1464 0.7115
C51_4 C 0.47576(14) 0.14627(9) 0.8724(2)
O13_4 O 0.51936(11) 0.13517(8) 0.93041(19)
H51_4 H 0.7247 0.4461 0.0586
H52_4 H 0.7004 0.3761 0.0127
H55_4 H 0.7713 0.5147 0.0157
O17_4 O 0.82034(14) 0.58403(9) 0.0056(3)
C3_4 C 0.9867(4) 0.4990(2) 0.9858(7)
H5_4 H 0.9971 0.4686 0.9898
H6_4 H 0.9639 0.5046 0.9164
H9_4 H 0.5801 0.1991 0.9467
H10_4 H 0.5796 0.2771 0.9731
N6_4 N 0.76440(10) 0.26631(8) 0.5520(2)
N8_4 N 0.82616(16) 0.23558(10) 0.4344(3)
N9_4 N 0.75124(14) 0.28259(12) 0.3570(2)
C10_4 C 0.80085(12) 0.30447(9) 0.5695(2)
H20_4 H 0.8276 0.2997 0.6351
H21_4 H 0.7791 0.3301 0.5830
C11_4 C 0.79781(16) 0.22857(10) 0.5285(3)
H22_4 H 0.7740 0.2031 0.5152
H23_4 H 0.8246 0.2225 0.5931
C12_4 C 0.72453(15) 0.27462(12) 0.4518(3)
H24_4 H 0.7018 0.2998 0.4650
H25_4 H 0.7003 0.2494 0.4379
C13_4 C 0.86119(15) 0.27285(10) 0.4534(3)
H26_4 H 0.8887 0.2673 0.5172
H27_4 H 0.8805 0.2775 0.3890
C14_4 C 0.7844(2) 0.24510(15) 0.3384(4)
H28_4 H 0.7605 0.2198 0.3233
H29_4 H 0.8030 0.2503 0.2731
C15_4 C 0.78753(16) 0.31966(12) 0.3777(3)
H30_4 H 0.8055 0.3253 0.3119
H31_4 H 0.7658 0.3453 0.3914
O2_4 O 0.75876(11) 0.23595(11) 0.9472(2)
O3_4 O 0.79832(12) 0.24678(9) 0.7953(2)
C16_4 C 0.79988(14) 0.23997(10) 0.8963(3)
C17_4 C 0.85467(14) 0.23737(11) 0.9646(3)
C18_4 C 0.90025(14) 0.23991(13) 0.9185(3)
H32_4 H 0.8981 0.2420 0.8413
C19_4 C 0.95238(15) 0.23961(13) 0.9829(3)
H35_4 H 0.9993 0.2456 0.8596
O6_4 O 0.67711(11) 0.18363(7) 0.8296(2)
O7_4 O 0.72065(13) 0.19041(8) 0.6823(2)
C28_4 C 0.69445(15) 0.16926(10) 0.7462(3)
C29_4 C 0.68267(16) 0.12253(10) 0.7177(3)
C30_4 C 0.6984(3) 0.10558(14) 0.6206(5)
H38_4 H 0.7171 0.1231 0.5744
C31_4 C 0.6864(3) 0.06354(15) 0.5934(5)
H39_4 H 0.6975 0.0519 0.5286
C32_4 C 0.6578(2) 0.03732(13) 0.6596(4)
C33_4 C 0.64224(17) 0.05454(10) 0.7559(3)
C34_4 C 0.65571(15) 0.09797(10) 0.7837(3)
H40_4 H 0.6457 0.1098 0.8492
C38_4 C 0.6105(2) 0.02899(12) 0.8170(4)
H43_4 H 0.5988 0.0404 0.8815
O10_4 O 0.69325(11) 0.30850(8) 0.9041(2)
O15_4 O 0.72656(12) 0.31615(7) 0.7459(2)
C52_4 C 0.71444(13) 0.32987(10) 0.8352(3)
C53_4 C 0.72885(17) 0.37532(11) 0.8630(3)
C54_4 C 0.75376(15) 0.40062(10) 0.7920(3)
H50_4 H 0.7601 0.3893 0.7232
C55_4 C 0.76990(16) 0.44299(10) 0.8202(3)
C56_4 C 0.7598(2) 0.46005(12) 0.9208(4)
C57_4 C 0.7328(3) 0.43448(14) 0.9913(4)
C58_4 C 0.7181(2) 0.39306(14) 0.9637(4)
C59_4 C 0.79783(19) 0.46846(12) 0.7493(4)
H53_4 H 0.8056 0.4569 0.6817
C60_4 C 0.8135(2) 0.50959(13) 0.7780(4)
H54_4 H 0.8318 0.5264 0.7298
C61_4 C 0.80276(19) 0.52724(12) 0.8776(4)
C62_4 C 0.7775(2) 0.50289(13) 0.9474(4)
C63_4 C 0.8248(2) 0.57010(12) 0.9131(5)
O16_4 O 0.85205(16) 0.59115(10) 0.8509(4)
C35_4 C 0.6444(2) 0.99443(13) 0.6294(4)
H41_4 H 0.6573 0.9821 0.5673
C36_4 C 0.6127(2) 0.97081(12) 0.6898(4)
C37_4 C 0.59621(19) 0.98802(12) 0.7851(4)
H42_4 H 0.5750 0.9711 0.8278
C39_4 C 0.5935(2) 0.92659(12) 0.6479(4)
O8_4 O 0.6168(2) 0.90873(10) 0.5751(3)
H7_4 H 0.0194 0.5169 0.9904
C23_4 C 0.00068(16) 0.2430(2) 0.9366(3)
H36_4 H 0.0820 0.2443 0.9664
loop_
_geom_bond_atom_site_label_1
_geom_bond_atom_site_label_2
_geom_bond_site_symmetry_1
_geom_bond_site_symmetry_2
H47 C47 1_555 1_555
C48 C47 1_555 1_555
H48 C48 1_555 1_555
Zn8 O13 1_555 1_555
Zn1 N2 1_555 1_555
Zn2 N6 1_555 1_555
Zn8 N3 1_555 1_555
H2 C2 1_555 1_555
H3 C2 1_555 1_555
H4 C2 1_555 1_555
H5 C3 1_555 1_555
N2 C4 1_555 1_555
N3 C4 1_555 1_555
N4 C5 1_555 1_555
N5 C6 1_555 1_555
C4 H8 1_555 1_555
H9 C4 1_555 1_555
C5 N2 1_555 1_555
H10 C5 1_555 1_555
H11 C5 1_555 1_555
C6 N2 1_555 1_555
H12 C6 1_555 1_555
H13 C6 1_555 1_555
C7 N3 1_555 1_555
H14 C7 1_555 1_555
H15 C7 1_555 1_555
C8 N4 1_555 1_555
H16 C8 1_555 1_555
H17 C8 1_555 1_555
C9 N3 1_555 1_555
H18 C9 1_555 1_555
H19 C9 1_555 1_555
N6 C10 1_555 1_555
C10 H20 1_555 1_555
H21 C10 1_555 1_555
C11 N6 1_555 1_555
H22 C11 1_555 1_555
H23 C11 1_555 1_555
O2 Zn1 1_555 1_555
O3 Zn2 1_555 1_555
C16 O2 1_555 1_555
C17 C16 1_555 1_555
C18 C17 1_555 1_555
H32 C18 1_555 1_555
C19 C18 1_555 1_555
C20 C19 1_555 1_555
C21 C20 1_555 1_555
H33 C21 1_555 1_555
C22 C17 1_555 1_555
H34 C22 1_555 1_555
C23 C19 1_555 1_555
H35 C23 1_555 1_555
C24 C23 1_555 1_555
H36 C24 1_555 1_555
C25 C24 1_555 1_555
C26 C20 1_555 1_555
H37 C26 1_555 1_555
C27 C25 1_555 1_555
O4 C27 1_555 1_555
O5 C27 1_555 1_555
O6 Zn1 1_555 1_555
O7 Zn2 1_555 1_555
C28 O6 1_555 1_555
C29 C28 1_555 1_555
C30 C29 1_555 1_555
H38 C30 1_555 1_555
C31 C30 1_555 1_555
H39 C31 1_555 1_555
C32 C31 1_555 1_555
C33 C32 1_555 1_555
C34 C29 1_555 1_555
H40 C34 1_555 1_555
C35 C32 1_555 1_555
H41 C35 1_555 1_555
C36 C35 1_555 1_555
C37 C36 1_555 1_555
H42 C37 1_555 1_555
C38 C33 1_555 1_555
H43 C38 1_555 1_555
C39 C36 1_555 1_555
O8 C39 1_555 1_555
O9 C39 1_555 1_555
O10 Zn1 1_555 1_555
O15 Zn2 1_555 1_555
C52 O10 1_555 1_555
C53 C52 1_555 1_555
C54 C53 1_555 1_555
H50 C54 1_555 1_555
C55 C54 1_555 1_555
C56 C55 1_555 1_555
C57 C56 1_555 1_555
H51 C57 1_555 1_555
C58 C53 1_555 1_555
H52 C58 1_555 1_555
C59 C55 1_555 1_555
H53 C59 1_555 1_555
Zn5 O5 1_555 1_555
Zn6 O4 1_555 1_555
Zn7 O9 1_555 1_555
O18 Zn2 1_555 1_555
O19 Zn1 1_555 1_555
O20 Zn8 1_555 1_555
N4 C7 1_555 1_555
N5 C8 1_555 1_555
N5 C9 1_555 1_555
O3 C16 1_555 1_555
C21 C22 1_555 1_555
C25 C26 1_555 1_555
O7 C28 1_555 1_555
C33 C34 1_555 1_555
C37 C38 1_555 1_555
O15 C52 1_555 1_555
C57 C58 1_555 1_555
N9 C12 1_555 1_555
H24 C12 1_555 1_555
H25 C12 1_555 1_555
C13 N7 1_555 1_555
H27 C13 1_555 1_555
C14 N8 1_555 1_555
H28 C14 1_555 1_555
H29 C14 1_555 1_555
C15 N7 1_555 1_555
H30 C15 1_555 1_555
H31 C15 1_555 1_555
Zn9_2 N7 1_555 1_555
N8 C13 1_555 1_555
N9 C14 1_555 1_555
N9 C15 1_555 1_555
Zn4 O1 1_555 1_555
O1 C1 1_555 1_555
C1 H1 1_555 1_555
N1 C1 1_555 1_555
H54 C60 1_555 1_555
C61 C60 1_555 1_555
H55 C62 1_555 1_555
C63 C61 1_555 1_555
O16 Zn4 1_555 1_555
O17 Zn4 1_555 1_555
N10 Zn4 1_555 1_555
O21 Zn4 1_555 1_555
O23 Zn4 1_555 1_555
C61 C62 1_555 1_555
C63 O16 1_555 1_555
C63 O17 1_555 1_555
C44 C43 1_555 1_555
C50 C44 1_555 1_555
H49 C50 1_555 1_555
C51 C49 1_555 1_555
O14 C51 1_555 1_555
Zn11 O14 1_555 1_555
C49 C50 1_555 1_555
O11 C40 1_555 1_555
C40 O12 1_555 1_555
C41 C40 1_555 1_555
C42 C41 1_555 1_555
C46 C41 1_555 1_555
H46 C46 1_555 1_555
Zn11 O11 1_555 1_555
C45 C46 1_555 1_555
Zn9 O1_2 1_555 1_555
O1_2 C1_2 1_555 1_555
C1_2 H1_2 1_555 1_555
N1_2 C1_2 1_555 1_555
O17_2 Zn9 1_555 1_555
O21_2 Zn9 1_555 1_555
H54_2 C60_2 1_555 1_555
C61_2 C60_2 1_555 1_555
C63_2 C61_2 1_555 1_555
O16_2 Zn9_2 1_555 1_555
O23_2 Zn9_2 1_555 1_555
C61_2 C62_2 1_555 1_555
C63_2 O16_2 1_555 1_555
Zn7 N3_2 1_555 1_555
H2_2 C2_2 1_555 1_555
H3_2 C2_2 1_555 1_555
H4_2 C2_2 1_555 1_555
N2_2 C4_2 1_555 1_555
N3_2 C4_2 1_555 1_555
N4_2 C5_2 1_555 1_555
N5_2 C6_2 1_555 1_555
C4_2 H8_2 1_555 1_555
C5_2 N2_2 1_555 1_555
H11_2 C5_2 1_555 1_555
C6_2 N2_2 1_555 1_555
H12_2 C6_2 1_555 1_555
H13_2 C6_2 1_555 1_555
C7_2 N3_2 1_555 1_555
H14_2 C7_2 1_555 1_555
H15_2 C7_2 1_555 1_555
C8_2 N4_2 1_555 1_555
H16_2 C8_2 1_555 1_555
H17_2 C8_2 1_555 1_555
C9_2 N3_2 1_555 1_555
H18_2 C9_2 1_555 1_555
H19_2 C9_2 1_555 1_555
C21_2 C20_2 1_555 1_555
H33_2 C21_2 1_555 1_555
H34_2 C22_2 1_555 1_555
C25_2 C24_2 1_555 1_555
C26_2 C20_2 1_555 1_555
H37_2 C26_2 1_555 1_555
C27_2 C25_2 1_555 1_555
O4_2 C27_2 1_555 1_555
O5_2 C27_2 1_555 1_555
H47_2 C47_2 1_555 1_555
C48_2 C47_2 1_555 1_555
H48_2 C48_2 1_555 1_555
Zn5_2 O5_2 1_555 1_555
Zn6_2 O4_2 1_555 1_555
N4_2 C7_2 1_555 1_555
N5_2 C8_2 1_555 1_555
N5_2 C9_2 1_555 1_555
C21_2 C22_2 1_555 1_555
C25_2 C26_2 1_555 1_555
Zn2_2 N6_2 1_555 1_555
H5_2 C3_2 1_555 1_555
N6_2 C10_2 1_555 1_555
N10 C10_2 1_555 1_555
N8_2 C11_2 1_555 1_555
N9_2 C12_2 1_555 1_555
C10_2 H20_2 1_555 1_555
H21_2 C10_2 1_555 1_555
C11_2 N6_2 1_555 1_555
H22_2 C11_2 1_555 1_555
H23_2 C11_2 1_555 1_555
C12_2 N6_2 1_555 1_555
H24_2 C12_2 1_555 1_555
H25_2 C12_2 1_555 1_555
C13_2 N10 1_555 1_555
H26_2 C13_2 1_555 1_555
H27_2 C13_2 1_555 1_555
C14_2 N8_2 1_555 1_555
H28_2 C14_2 1_555 1_555
H29_2 C14_2 1_555 1_555
C15_2 N10 1_555 1_555
H30_2 C15_2 1_555 1_555
H31_2 C15_2 1_555 1_555
O2_2 Zn1_2 1_555 1_555
O3_2 Zn2_2 1_555 1_555
C16_2 O2_2 1_555 1_555
C17_2 C16_2 1_555 1_555
C18_2 C17_2 1_555 1_555
H32_2 C18_2 1_555 1_555
C19_2 C18_2 1_555 1_555
C23_2 C19_2 1_555 1_555
H35_2 C23_2 1_555 1_555
O6_2 Zn1_2 1_555 1_555
O7_2 Zn2_2 1_555 1_555
C28_2 O6_2 1_555 1_555
C29_2 C28_2 1_555 1_555
C30_2 C29_2 1_555 1_555
H38_2 C30_2 1_555 1_555
C31_2 C30_2 1_555 1_555
H39_2 C31_2 1_555 1_555
C32_2 C31_2 1_555 1_555
C33_2 C32_2 1_555 1_555
C34_2 C29_2 1_555 1_555
H40_2 C34_2 1_555 1_555
C35_2 C32_2 1_555 1_555
H41_2 C35_2 1_555 1_555
C36_2 C35_2 1_555 1_555
C37_2 C36_2 1_555 1_555
H42_2 C37_2 1_555 1_555
C38_2 C33_2 1_555 1_555
H43_2 C38_2 1_555 1_555
C39_2 C36_2 1_555 1_555
O8_2 C39_2 1_555 1_555
O20 C39_2 1_555 1_555
O10_2 Zn1_2 1_555 1_555
O15_2 Zn2_2 1_555 1_555
C52_2 O10_2 1_555 1_555
C53_2 C52_2 1_555 1_555
C54_2 C53_2 1_555 1_555
H50_2 C54_2 1_555 1_555
C55_2 C54_2 1_555 1_555
C56_2 C55_2 1_555 1_555
C57_2 C56_2 1_555 1_555
C58_2 C53_2 1_555 1_555
C59_2 C55_2 1_555 1_555
H53_2 C59_2 1_555 1_555
O18_2 Zn2_2 1_555 1_555
O19_2 Zn1_2 1_555 1_555
N8_2 C13_2 1_555 1_555
N9_2 C14_2 1_555 1_555
N9_2 C15_2 1_555 1_555
O3_2 C16_2 1_555 1_555
O7_2 C28_2 1_555 1_555
C33_2 C34_2 1_555 1_555
C37_2 C38_2 1_555 1_555
O15_2 C52_2 1_555 1_555
C57_2 C58_2 1_555 1_555
O11_2 C40_2 1_555 1_555
C40_2 O12_2 1_555 1_555
C41_2 C40_2 1_555 1_555
C42_2 C41_2 1_555 1_555
C43_2 C42_2 1_555 1_555
C44_2 C43_2 1_555 1_555
C45_2 C44_2 1_555 1_555
H45_2 C45_2 1_555 1_555
C46_2 C41_2 1_555 1_555
H46_2 C46_2 1_555 1_555
C50_2 C44_2 1_555 1_555
H49_2 C50_2 1_555 1_555
C51_2 C49_2 1_555 1_555
O14_2 C51_2 1_555 1_555
Zn11_2 O11_2 1_555 1_555
Zn11_3 O14_2 1_555 1_555
C45_2 C46_2 1_555 1_555
C49_2 C50_2 1_555 1_555
C24_3 C23_3 1_555 1_555
H36_3 C24_3 1_555 1_555
C25_3 C24_3 1_555 1_555
H37_3 C26_3 1_555 1_555
C27_3 C25_3 1_555 1_555
O18_2 C27_3 1_555 1_555
O19_2 C27_3 1_555 1_555
C25_3 C26_3 1_555 1_555
H41_3 C35_3 1_555 1_555
C36_3 C35_3 1_555 1_555
C37_3 C36_3 1_555 1_555
H42_3 C37_3 1_555 1_555
C39_3 C36_3 1_555 1_555
O8_3 C39_3 1_555 1_555
O9_2 C39_3 1_555 1_555
Zn7_2 O9_2 1_555 1_555
C44_3 C43_3 1_555 1_555
C47_3 C43_3 1_555 1_555
H47_3 C47_3 1_555 1_555
C48_3 C47_3 1_555 1_555
H48_3 C48_3 1_555 1_555
C49_3 C48_3 1_555 1_555
C50_3 C44_3 1_555 1_555
H49_3 C50_3 1_555 1_555
C51_3 C49_3 1_555 1_555
O13_3 C51_3 1_555 1_555
O23 C51_3 1_555 1_555
Zn8_2 O13_3 1_555 1_555
C49_3 C50_3 1_555 1_555
Zn5_2 N2_3 1_555 1_555
Zn6_2 N6_3 1_555 1_555
Zn8_2 N3_3 1_555 1_555
Zn11 O1_3 1_555 1_555
O1_3 C1_3 1_555 1_555
C1_3 H1_3 1_555 1_555
N1_3 C1_3 1_555 1_555
C2_3 N1_3 1_555 1_555
H2_3 C2_3 1_555 1_555
H3_3 C2_3 1_555 1_555
H4_3 C2_3 1_555 1_555
C3_3 N1_3 1_555 1_555
H5_3 C3_3 1_555 1_555
H6_3 C3_3 1_555 1_555
N2_3 C4_3 1_555 1_555
N3_3 C4_3 1_555 1_555
N4_3 C5_3 1_555 1_555
N5_3 C6_3 1_555 1_555
C4_3 H8_3 1_555 1_555
H9_3 C4_3 1_555 1_555
C5_3 N2_3 1_555 1_555
H10_3 C5_3 1_555 1_555
H11_3 C5_3 1_555 1_555
C6_3 N2_3 1_555 1_555
H12_3 C6_3 1_555 1_555
H13_3 C6_3 1_555 1_555
C7_3 N3_3 1_555 1_555
H14_3 C7_3 1_555 1_555
H15_3 C7_3 1_555 1_555
C8_3 N4_3 1_555 1_555
H16_3 C8_3 1_555 1_555
H17_3 C8_3 1_555 1_555
C9_3 N3_3 1_555 1_555
H18_3 C9_3 1_555 1_555
H19_3 C9_3 1_555 1_555
N6_3 C10_3 1_555 1_555
C10_3 H20_3 1_555 1_555
H21_3 C10_3 1_555 1_555
C11_3 N6_3 1_555 1_555
H22_3 C11_3 1_555 1_555
H23_3 C11_3 1_555 1_555
O2_3 Zn5_2 1_555 1_555
O3_3 Zn6_2 1_555 1_555
C16_3 O2_3 1_555 1_555
C17_3 C16_3 1_555 1_555
C18_3 C17_3 1_555 1_555
H32_3 C18_3 1_555 1_555
C19_3 C18_3 1_555 1_555
C20_3 C19_3 1_555 1_555
C21_3 C20_3 1_555 1_555
H33_3 C21_3 1_555 1_555
C22_3 C17_3 1_555 1_555
H34_3 C22_3 1_555 1_555
O6_3 Zn5_2 1_555 1_555
O7_3 Zn6_2 1_555 1_555
C28_3 O6_3 1_555 1_555
C29_3 C28_3 1_555 1_555
C30_3 C29_3 1_555 1_555
H38_3 C30_3 1_555 1_555
C31_3 C30_3 1_555 1_555
H39_3 C31_3 1_555 1_555
C32_3 C31_3 1_555 1_555
C33_3 C32_3 1_555 1_555
C34_3 C29_3 1_555 1_555
H40_3 C34_3 1_555 1_555
C38_3 C33_3 1_555 1_555
H43_3 C38_3 1_555 1_555
O10_3 Zn5_2 1_555 1_555
O21 C40_3 1_555 1_555
O12_3 Zn8_2 1_555 1_555
C40_3 O12_3 1_555 1_555
C41_3 C40_3 1_555 1_555
C42_3 C41_3 1_555 1_555
H44_3 C42_3 1_555 1_555
C46_3 C41_3 1_555 1_555
H46_3 C46_3 1_555 1_555
O15_3 Zn6_2 1_555 1_555
C52_3 O10_3 1_555 1_555
C53_3 C52_3 1_555 1_555
C54_3 C53_3 1_555 1_555
H50_3 C54_3 1_555 1_555
C55_3 C54_3 1_555 1_555
C56_3 C55_3 1_555 1_555
C57_3 C56_3 1_555 1_555
H51_3 C57_3 1_555 1_555
C58_3 C53_3 1_555 1_555
H52_3 C58_3 1_555 1_555
C59_3 C55_3 1_555 1_555
H53_3 C59_3 1_555 1_555
C60_3 C59_3 1_555 1_555
H54_3 C60_3 1_555 1_555
C61_3 C60_3 1_555 1_555
C62_3 C56_3 1_555 1_555
H55_3 C62_3 1_555 1_555
C63_3 C61_3 1_555 1_555
O16_3 Zn11 1_555 1_555
O17_3 Zn11 1_555 1_555
N10_2 Zn11 1_555 1_555
O20_2 Zn8_2 1_555 1_555
N4_3 C7_3 1_555 1_555
N5_3 C8_3 1_555 1_555
N5_3 C9_3 1_555 1_555
O3_3 C16_3 1_555 1_555
C21_3 C22_3 1_555 1_555
O7_3 C28_3 1_555 1_555
C33_3 C34_3 1_555 1_555
C45_3 C46_3 1_555 1_555
O15_3 C52_3 1_555 1_555
C57_3 C58_3 1_555 1_555
C61_3 C62_3 1_555 1_555
C63_3 O16_3 1_555 1_555
C63_3 O17_3 1_555 1_555
N9_3 C12_3 1_555 1_555
H24_3 C12_3 1_555 1_555
H25_3 C12_3 1_555 1_555
C13_3 N7_2 1_555 1_555
H27_3 C13_3 1_555 1_555
C14_3 N8_3 1_555 1_555
H28_3 C14_3 1_555 1_555
H29_3 C14_3 1_555 1_555
C15_3 N7_2 1_555 1_555
H30_3 C15_3 1_555 1_555
H31_3 C15_3 1_555 1_555
Zn11_3 N7_2 1_555 1_555
N8_3 C13_3 1_555 1_555
N9_3 C14_3 1_555 1_555
N9_3 C15_3 1_555 1_555
C25_4 C24_4 1_555 1_555
H37_4 C26_4 1_555 1_555
C27_4 C25_4 1_555 1_555
O18 C27_4 1_555 1_555
O19 C27_4 1_555 1_555
C25_4 C26_4 1_555 1_555
Zn7_2 N3_4 1_555 1_555
Zn11_2 O1_4 1_555 1_555
O1_4 C1_4 1_555 1_555
C1_4 H1_4 1_555 1_555
N1_4 C1_4 1_555 1_555
C2_4 N1_4 1_555 1_555
H2_4 C2_4 1_555 1_555
H3_4 C2_4 1_555 1_555
H4_4 C2_4 1_555 1_555
N2_4 C4_4 1_555 1_555
N3_4 C4_4 1_555 1_555
N4_4 C5_4 1_555 1_555
N5_4 C6_4 1_555 1_555
C4_4 H8_4 1_555 1_555
C5_4 N2_4 1_555 1_555
H11_4 C5_4 1_555 1_555
C6_4 N2_4 1_555 1_555
H12_4 C6_4 1_555 1_555
H13_4 C6_4 1_555 1_555
C7_4 N3_4 1_555 1_555
H14_4 C7_4 1_555 1_555
H15_4 C7_4 1_555 1_555
C8_4 N4_4 1_555 1_555
H16_4 C8_4 1_555 1_555
H17_4 C8_4 1_555 1_555
C9_4 N3_4 1_555 1_555
H18_4 C9_4 1_555 1_555
H19_4 C9_4 1_555 1_555
C21_4 C20_4 1_555 1_555
H33_4 C21_4 1_555 1_555
H34_4 C22_4 1_555 1_555
O21_2 C40_4 1_555 1_555
O12_4 Zn7_2 1_555 1_555
C40_4 O12_4 1_555 1_555
C41_4 C40_4 1_555 1_555
C42_4 C41_4 1_555 1_555
H44_4 C42_4 1_555 1_555
C43_4 C42_4 1_555 1_555
C44_4 C43_4 1_555 1_555
C45_4 C44_4 1_555 1_555
H45_4 C45_4 1_555 1_555
C46_4 C41_4 1_555 1_555
H46_4 C46_4 1_555 1_555
C47_4 C43_4 1_555 1_555
H47_4 C47_4 1_555 1_555
C48_4 C47_4 1_555 1_555
H48_4 C48_4 1_555 1_555
C49_4 C48_4 1_555 1_555
C50_4 C44_4 1_555 1_555
H49_4 C50_4 1_555 1_555
C51_4 C49_4 1_555 1_555
O13_4 C51_4 1_555 1_555
O23_2 C51_4 1_555 1_555
O17_4 Zn11_2 1_555 1_555
N4_4 C7_4 1_555 1_555
N5_4 C8_4 1_555 1_555
N5_4 C9_4 1_555 1_555
C21_4 C22_4 1_555 1_555
C45_4 C46_4 1_555 1_555
C49_4 C50_4 1_555 1_555
Zn6 N6_4 1_555 1_555
H5_4 C3_4 1_555 1_555
H6_4 C3_4 1_555 1_555
N6_4 C10_4 1_555 1_555
N10_2 C10_4 1_555 1_555
N8_4 C11_4 1_555 1_555
N9_4 C12_4 1_555 1_555
C10_4 H20_4 1_555 1_555
H21_4 C10_4 1_555 1_555
C11_4 N6_4 1_555 1_555
H22_4 C11_4 1_555 1_555
H23_4 C11_4 1_555 1_555
C12_4 N6_4 1_555 1_555
H24_4 C12_4 1_555 1_555
H25_4 C12_4 1_555 1_555
C13_4 N10_2 1_555 1_555
H26_4 C13_4 1_555 1_555
H27_4 C13_4 1_555 1_555
C14_4 N8_4 1_555 1_555
H28_4 C14_4 1_555 1_555
H29_4 C14_4 1_555 1_555
C15_4 N10_2 1_555 1_555
H30_4 C15_4 1_555 1_555
H31_4 C15_4 1_555 1_555
O2_4 Zn5 1_555 1_555
O3_4 Zn6 1_555 1_555
C16_4 O2_4 1_555 1_555
C17_4 C16_4 1_555 1_555
C18_4 C17_4 1_555 1_555
H32_4 C18_4 1_555 1_555
C19_4 C18_4 1_555 1_555
O6_4 Zn5 1_555 1_555
O7_4 Zn6 1_555 1_555
C28_4 O6_4 1_555 1_555
C29_4 C28_4 1_555 1_555
C30_4 C29_4 1_555 1_555
H38_4 C30_4 1_555 1_555
C31_4 C30_4 1_555 1_555
H39_4 C31_4 1_555 1_555
C32_4 C31_4 1_555 1_555
C33_4 C32_4 1_555 1_555
C34_4 C29_4 1_555 1_555
H40_4 C34_4 1_555 1_555
C38_4 C33_4 1_555 1_555
H43_4 C38_4 1_555 1_555
O10_4 Zn5 1_555 1_555
O15_4 Zn6 1_555 1_555
C52_4 O10_4 1_555 1_555
C53_4 C52_4 1_555 1_555
C54_4 C53_4 1_555 1_555
H50_4 C54_4 1_555 1_555
C55_4 C54_4 1_555 1_555
C56_4 C55_4 1_555 1_555
C57_4 C56_4 1_555 1_555
C58_4 C53_4 1_555 1_555
C59_4 C55_4 1_555 1_555
H53_4 C59_4 1_555 1_555
C60_4 C59_4 1_555 1_555
H54_4 C60_4 1_555 1_555
C61_4 C60_4 1_555 1_555
C62_4 C56_4 1_555 1_555
C63_4 C61_4 1_555 1_555
O16_4 Zn11_3 1_555 1_555
N8_4 C13_4 1_555 1_555
N9_4 C14_4 1_555 1_555
N9_4 C15_4 1_555 1_555
O3_4 C16_4 1_555 1_555
O7_4 C28_4 1_555 1_555
C33_4 C34_4 1_555 1_555
O15_4 C52_4 1_555 1_555
C57_4 C58_4 1_555 1_555
C61_4 C62_4 1_555 1_555
C63_4 O16_4 1_555 1_555
H41_4 C35_4 1_555 1_555
C36_4 C35_4 1_555 1_555
C37_4 C36_4 1_555 1_555
H42_4 C37_4 1_555 1_555
C39_4 C36_4 1_555 1_555
O8_4 C39_4 1_555 1_555
O20_2 C39_4 1_555 1_555

#END
