
###############################################################################
#
# This file contains modified crystal structure data generated from the
# MOF subset of the Cambridge Structural Database (CSD) v543 
# hosted by the Cambridge Crystallographic Data Centre (CCDC).
#
# This work is licensed under the Creative Commons
# Attribution-NonCommercial-ShareAlike 4.0 International License.
# To view a copy of this license, visit
# http://creativecommons.org/licenses/by-nc-sa/4.0/
# or send a letter to
# Creative Commons, PO Box 1866, Mountain View, CA 94042, USA.
#
# CIF created using the CSD Python API on 29 September 2022
# The structure has been converted into the P1 space group
# The structure has a 3D framework
# The original CSD entry AMILOY is in the monoclinic crystal system
# The framework has been calculated to contain at least 10.0% void space
# The void calculation uses a probe of radius 1.32A, grid spacing 0.4
#
###############################################################################

data_AMILOY
_chemical_formula_moiety         '(C252 H220 N36 O66 Zn16)n'
_symmetry_cell_setting           triclinic
_symmetry_space_group_name_H-M   'P 1'
_symmetry_Int_Tables_number      1
_space_group_name_Hall           'P 1'
loop_
_symmetry_equiv_pos_site_id
_symmetry_equiv_pos_as_xyz
1 x,y,z
_cell_length_a                   12.3274(5)
_cell_length_b                   30.5413(19)
_cell_length_c                   24.7472(15)
_cell_angle_alpha                90
_cell_angle_beta                 98.232(1)
_cell_angle_gamma                90
_cell_volume                     9221.19
loop_
_atom_site_label
_atom_site_type_symbol
_atom_site_fract_x
_atom_site_fract_y
_atom_site_fract_z
C51 C 0.1026(10) 0.1482(3) 0.0170(6)
H43 H 0.0744 0.1535 0.0501
C52 C 0.2227(10) 0.1454(3) 0.0169(4)
C53 C 0.2913(9) 0.1516(4) 0.0636(5)
H44 H 0.2636 0.1565 0.0970
C54 C 0.4020(9) 0.1508(4) 0.0620(5)
H45 H 0.4515 0.1540 0.0949
C55 C 0.4443(8) 0.1451(3) 0.0107(5)
C60 C 0.5636(7) 0.1483(3) 0.0111(4)
O15 O 0.6232(5) 0.1412(2) 0.0563(3)
Zn5 Zn 0.07587(7) 0.23426(3) 0.70133(3)
Zn8 Zn 0.78292(9) 0.14734(3) 0.06212(4)
C50 C 0.0332(8) 0.1433(3) 0.9698(5)
C56 C 0.3757(9) 0.1393(3) 0.9653(5)
H46 H 0.4038 0.1357 0.9318
C57 C 0.2538(10) 0.1384(3) 0.9655(4)
C58 C 0.1834(10) 0.1333(4) 0.9174(5)
H47 H 0.2110 0.1290 0.8838
C59 C 0.0749(10) 0.1344(4) 0.9189(5)
H48 H 0.0251 0.1293 0.8865
O16 O 0.6016(5) 0.1592(2) 0.9688(3)
Zn11 Zn 0.69285(9) 0.13037(3) 0.91863(4)
Zn1 Zn 0.57587(7) 0.26574(3) 0.20133(3)
Zn2 Zn 0.37240(7) 0.27439(3) 0.24839(4)
N1 N 0.7089(5) 0.2594(2) 0.1597(3)
N2 N 0.7934(5) 0.2096(2) 0.0995(3)
N3 N 0.9078(7) 0.2593(3) 0.1608(4)
N4 N 0.7887(7) 0.2888(2) 0.0822(4)
C1 C 0.7040(7) 0.2153(3) 0.1332(3)
H1 H 0.7099 0.1923 0.1617
H2 H 0.6323 0.2118 0.1098
C2 C 0.8186(7) 0.2641(4) 0.1947(4)
H3 H 0.8237 0.2932 0.2125
H4 H 0.8265 0.2415 0.2236
C3 C 0.7011(8) 0.2935(3) 0.1151(4)
H5 H 0.6296 0.2906 0.0914
H6 H 0.7046 0.3230 0.1316
C4 C 0.8994(8) 0.2158(4) 0.1354(4)
H7 H 0.9073 0.1932 0.1643
H8 H 0.9601 0.2120 0.1135
C5 C 0.7828(8) 0.2453(3) 0.0575(4)
H9 H 0.8421 0.2423 0.0347
H10 H 0.7119 0.2422 0.0334
C6 C 0.8914(9) 0.2929(4) 0.1173(5)
H11 H 0.8956 0.3223 0.1343
H12 H 0.9517 0.2906 0.0949
N5 N 0.2393(5) 0.2765(2) 0.2904(3)
N6 N 0.1673(6) 0.3151(2) 0.3637(3)
N7 N 0.1474(8) 0.2361(3) 0.3545(4)
N8 N 0.0415(7) 0.2844(5) 0.2895(4)
C7 C 0.2561(6) 0.3134(3) 0.3297(3)
H13 H 0.3273 0.3098 0.3534
H14 H 0.2582 0.3413 0.3095
C8 C 0.2337(8) 0.2352(3) 0.3205(4)
H15 H 0.2205 0.2107 0.2943
H16 H 0.3049 0.2300 0.3437
C9 C 0.1302(8) 0.2830(5) 0.2557(4)
H17 H 0.1311 0.3108 0.2351
H18 H 0.1166 0.2588 0.2290
C10 C 0.1678(8) 0.2721(3) 0.3948(4)
H19 H 0.2395 0.2679 0.4179
H20 H 0.1099 0.2725 0.4188
C11 C 0.0611(8) 0.3204(4) 0.3277(4)
H21 H 0.0010 0.3217 0.3503
H22 H 0.0613 0.3482 0.3073
C12 C 0.0435(10) 0.2428(5) 0.3203(6)
H24 H 0.0295 0.2182 0.2943
O1 O 0.4865(5) 0.2616(2) 0.3163(2)
O2 O 0.6430(5) 0.2676(2) 0.2801(2)
C13 C 0.5895(7) 0.2622(3) 0.3198(3)
C14 C 0.6556(7) 0.2558(3) 0.3752(3)
C15 C 0.6038(6) 0.2486(3) 0.4206(3)
H25 H 0.5260 0.2480 0.4165
C16 C 0.6633(6) 0.2424(3) 0.4716(3)
C17 C 0.6145(7) 0.2352(4) 0.5188(4)
H26 H 0.5369 0.2336 0.5156
C18 C 0.6749(7) 0.2303(4) 0.5688(4)
H27 H 0.6393 0.2260 0.6000
C19 C 0.7900(7) 0.2317(3) 0.5745(3)
C20 C 0.8438(7) 0.2383(3) 0.5310(3)
H28 H 0.9216 0.2395 0.5356
C21 C 0.7800(6) 0.2438(3) 0.4771(3)
C22 C 0.8307(7) 0.2521(3) 0.4311(3)
H29 H 0.9084 0.2530 0.4346
C23 C 0.7703(7) 0.2589(3) 0.3813(3)
H30 H 0.8057 0.2657 0.3507
C24 C 0.8566(7) 0.2272(3) 0.6307(3)
O3 O 0.9586(5) 0.2350(2) 0.6351(2)
O4 O 0.8070(5) 0.2160(2) 0.6689(2)
O5 O 0.3714(5) 0.2098(2) 0.2320(3)
O6 O 0.5408(5) 0.20075(19) 0.2111(3)
C25 C 0.4487(7) 0.1864(3) 0.2189(3)
C26 C 0.4289(8) 0.1383(3) 0.2128(4)
C27 C 0.3294(10) 0.1207(4) 0.2251(6)
H31 H 0.2795 0.1393 0.2400
C28 C 0.3034(11) 0.0782(4) 0.2160(7)
H32 H 0.2360 0.0673 0.2249
C29 C 0.3755(12) 0.0497(3) 0.1933(5)
C30 C 0.3489(14) 0.0061(4) 0.1805(6)
C33 C 0.5466(14) 0.0397(4) 0.1561(6)
H35 H 0.6159 0.0497 0.1486
C34 C 0.4750(10) 0.0680(3) 0.1796(5)
C35 C 0.5005(9) 0.1117(3) 0.1914(4)
H36 H 0.5689 0.1230 0.1844
O9 O 0.4257(5) 0.3370(2) 0.2542(3)
O10 O 0.5629(6) 0.3323(2) 0.2045(3)
C37 C 0.5073(8) 0.3518(3) 0.2350(4)
C38 C 0.5413(9) 0.3983(3) 0.2515(4)
C39 C 0.4884(9) 0.4211(3) 0.2878(4)
H37 H 0.4277 0.4082 0.3016
C40 C 0.5231(11) 0.4630(3) 0.3047(5)
C41 C 0.4783(12) 0.4869(4) 0.3453(5)
H38 H 0.4204 0.4744 0.3617
C42 C 0.5167(13) 0.5274(4) 0.3613(6)
H39 H 0.4834 0.5430 0.3878
C43 C 0.6030(14) 0.5461(4) 0.3398(6)
C44 C 0.6537(12) 0.5248(4) 0.3024(6)
H40 H 0.7144 0.5376 0.2887
C45 C 0.6139(12) 0.4823(4) 0.2840(6)
C46 C 0.6656(14) 0.4581(5) 0.2466(7)
H41 H 0.7265 0.4704 0.2325
C47 C 0.6300(13) 0.4172(4) 0.2300(6)
H42 H 0.6651 0.4016 0.2042
C48 C 0.6573(12) 0.5906(4) 0.3606(6)
O11 O 0.7211(8) 0.6088(3) 0.3368(4)
O12 O 0.6225(9) 0.6031(3) 0.4040(5)
O14 O 0.8753(6) 0.1660(2) 0.0074(3)
C63 C 0.1600(18) 0.0224(6) 0.0111(9)
H54 H 0.1629 0.0269 0.0505
Zn6 Zn 0.87240(7) 0.22561(3) 0.74839(4)
Zn7 Zn 0.71708(9) 0.64734(3) 0.43788(4)
Zn9 Zn 0.19285(9) 0.36963(3) 0.41863(4)
O18 O 0.4586(5) 0.2650(2) 0.1351(2)
O19 O 0.3070(5) 0.2840(2) 0.1689(2)
O20 O 0.8775(9) 0.1031(3) 0.0960(5)
O13 O 0.8550(6) 0.1330(2) 0.9265(3)
C49 C 0.9118(7) 0.1473(3) 0.9683(4)
C62 C 0.3216(18) 0.0060(6) 0.9732(10)
H50 H 0.3063 0.0365 0.9623
H52 H 0.3927 0.0043 0.9966
H53 H 0.1743 0.0502 0.9937
H55 H 0.0871 0.0116 0.9958
Zn4 Zn 0.30715(9) 0.86963(3) 0.08137(4)
H33 H 0.2818 0.9945 0.1890
C31 C 0.4175(15) 0.9797(4) 0.1561(6)
C32 C 0.5124(15) 0.9966(5) 0.1443(6)
H34 H 0.5589 0.9781 0.1269
C36 C 0.3788(14) 0.9341(4) 0.1389(7)
O7 O 0.4406(14) 0.9126(4) 0.1129(6)
O8 O 0.2949(11) 0.9194(4) 0.1536(6)
O17 O 0.2753(11) 0.9209(3) 0.0130(5)
C61 C 0.2279(18) 0.9534(5) 0.0260(9)
H49 H 0.1819 0.9517 0.0536
N9 N 0.2410(14) 0.9909(4) 0.0014(7)
N10 N 0.3327(6) 0.8151(2) 0.1363(3)
O21 O 0.1450(6) 0.8670(2) 0.0735(3)
O23 O 0.3984(5) 0.8408(2) 0.0312(3)
Zn2_2 Zn 0.12760(7) 0.77439(3) 0.25161(4)
N5_2 N 0.2607(5) 0.7765(2) 0.2096(3)
N7_2 N 0.3526(8) 0.7361(3) 0.1455(4)
N8_2 N 0.4585(7) 0.7844(5) 0.2105(4)
C7_2 C 0.2439(6) 0.8134(3) 0.1703(3)
H13_2 H 0.1727 0.8098 0.1466
H14_2 H 0.2418 0.8413 0.1905
C8_2 C 0.2663(8) 0.7352(3) 0.1795(4)
H15_2 H 0.2795 0.7107 0.2057
H16_2 H 0.1951 0.7300 0.1563
C9_2 C 0.3698(8) 0.7830(5) 0.2443(4)
H17_2 H 0.3689 0.8108 0.2649
H18_2 H 0.3834 0.7588 0.2710
C10_2 C 0.3322(8) 0.7721(3) 0.1052(4)
H19_2 H 0.2605 0.7679 0.0821
H20_2 H 0.3901 0.7725 0.0812
C11_2 C 0.4389(8) 0.8204(4) 0.1723(4)
H21_2 H 0.4990 0.8217 0.1497
H22_2 H 0.4387 0.8482 0.1927
C12_2 C 0.4565(10) 0.7428(5) 0.1797(6)
H23 H 0.5159 0.7431 0.1567
H24_2 H 0.4705 0.7182 0.2057
O1_2 O 0.0135(5) 0.7616(2) 0.1837(2)
O5_2 O 0.1286(5) 0.7098(2) 0.2680(3)
C25_2 C 0.0513(7) 0.6864(3) 0.2811(3)
C26_2 C 0.0711(8) 0.6383(3) 0.2872(4)
C27_2 C 0.1706(10) 0.6207(4) 0.2749(6)
H31_2 H 0.2205 0.6393 0.2600
C28_2 C 0.1966(11) 0.5782(4) 0.2840(7)
H32_2 H 0.2640 0.5673 0.2751
C29_2 C 0.1245(12) 0.5497(3) 0.3067(5)
C30_2 C 0.1511(14) 0.5061(4) 0.3195(6)
H33_2 H 0.2182 0.4945 0.3110
C31_2 C 0.0825(15) 0.4797(4) 0.3439(6)
C34_2 C 0.0250(10) 0.5680(3) 0.3204(5)
C36_2 C 0.1212(14) 0.4341(4) 0.3611(7)
O7_2 O 0.0594(14) 0.4126(4) 0.3871(6)
O8_2 O 0.2051(11) 0.4194(4) 0.3464(6)
O9_2 O 0.0743(5) 0.8370(2) 0.2458(3)
C39_2 C 0.0116(9) 0.9211(3) 0.2122(4)
H37_2 H 0.0723 0.9082 0.1984
C41_2 C 0.0217(12) 0.9869(4) 0.1547(5)
H38_2 H 0.0796 0.9744 0.1383
O17_2 O 0.2247(11) 0.4209(3) 0.4870(5)
C61_2 C 0.2721(18) 0.4534(5) 0.4740(9)
H49_2 H 0.3181 0.4517 0.4464
N9_2 N 0.2590(14) 0.4909(4) 0.4986(7)
C62_2 C 0.1784(18) 0.5060(6) 0.5268(10)
H50_2 H 0.1937 0.5365 0.5377
H51 H 0.1767 0.4880 0.5594
H52_2 H 0.1073 0.5043 0.5034
C63_2 C 0.3400(18) 0.5224(6) 0.4889(9)
H53_2 H 0.3257 0.5502 0.5063
H54_2 H 0.3371 0.5269 0.4495
H55_2 H 0.4129 0.5116 0.5042
O18_2 O 0.0414(5) 0.7650(2) 0.3649(2)
O19_2 O 0.1930(5) 0.7840(2) 0.3311(2)
O21_2 O 0.3550(6) 0.3670(2) 0.4265(3)
O23_2 O 0.1016(5) 0.3408(2) 0.4688(3)
C42_2 C 0.9833(13) 0.0274(4) 0.1387(6)
C43_2 C 0.8970(14) 0.0461(4) 0.1602(6)
C44_2 C 0.8463(12) 0.0248(4) 0.1976(6)
H40_2 H 0.7856 0.0376 0.2113
C48_2 C 0.8427(12) 0.0906(4) 0.1394(6)
O11_2 O 0.7789(8) 0.1088(3) 0.1632(4)
Zn1_2 Zn 0.92413(7) 0.76574(3) 0.29867(3)
N1_2 N 0.7911(5) 0.7594(2) 0.3403(3)
N2_2 N 0.7066(5) 0.7096(2) 0.4005(3)
N3_2 N 0.5922(7) 0.7593(3) 0.3392(4)
N4_2 N 0.7113(7) 0.7888(2) 0.4178(4)
C1_2 C 0.7960(7) 0.7153(3) 0.3668(3)
H1_2 H 0.7901 0.6923 0.3383
H2_2 H 0.8677 0.7118 0.3902
C2_2 C 0.6814(7) 0.7641(4) 0.3053(4)
H3_2 H 0.6763 0.7932 0.2875
H4_2 H 0.6735 0.7415 0.2764
C3_2 C 0.7989(8) 0.7935(3) 0.3849(4)
H5_2 H 0.8704 0.7906 0.4086
H6_2 H 0.7954 0.8230 0.3684
C4_2 C 0.6006(8) 0.7158(4) 0.3646(4)
H7_2 H 0.5927 0.6932 0.3357
H8_2 H 0.5399 0.7120 0.3865
C5_2 C 0.7172(8) 0.7453(3) 0.4425(4)
H9_2 H 0.6579 0.7423 0.4653
H10_2 H 0.7881 0.7422 0.4666
C6_2 C 0.6086(9) 0.7929(4) 0.3827(5)
H11_2 H 0.6044 0.8223 0.3657
H12_2 H 0.5483 0.7906 0.4051
O2_2 O 0.8570(5) 0.7676(2) 0.2199(2)
C13_2 C 0.9105(7) 0.7622(3) 0.1802(3)
C14_2 C 0.8444(7) 0.7558(3) 0.1248(3)
C15_2 C 0.8962(6) 0.7486(3) 0.0794(3)
H25_2 H 0.9740 0.7480 0.0835
C16_2 C 0.8367(6) 0.7424(3) 0.0284(3)
C21_2 C 0.7200(6) 0.7438(3) 0.0229(3)
C22_2 C 0.6693(7) 0.7521(3) 0.0689(3)
H29_2 H 0.5916 0.7530 0.0654
C23_2 C 0.7297(7) 0.7589(3) 0.1187(3)
H30_2 H 0.6943 0.7657 0.1493
O6_2 O 0.9592(5) 0.70075(19) 0.2889(3)
C32_2 C 0.9876(15) 0.4966(5) 0.3557(6)
H34_2 H 0.9411 0.4781 0.3731
C33_2 C 0.9534(14) 0.5397(4) 0.3439(6)
H35_2 H 0.8841 0.5497 0.3514
C35_2 C 0.9995(9) 0.6117(3) 0.3086(4)
H36_2 H 0.9311 0.6230 0.3156
O10_2 O 0.9371(6) 0.8323(2) 0.2955(3)
C37_2 C 0.9927(8) 0.8518(3) 0.2650(4)
C38_2 C 0.9587(9) 0.8983(3) 0.2485(4)
C40_2 C 0.9769(11) 0.9630(3) 0.1953(5)
C45_2 C 0.8861(12) 0.9823(4) 0.2160(6)
C46_2 C 0.8344(14) 0.9581(5) 0.2534(7)
H41_2 H 0.7735 0.9704 0.2675
C47_2 C 0.8700(13) 0.9172(4) 0.2700(6)
H42_2 H 0.8349 0.9016 0.2958
O13_2 O 0.6450(6) 0.6330(2) 0.5735(3)
O14_2 O 0.6247(6) 0.6660(2) 0.4926(3)
C49_2 C 0.5882(7) 0.6473(3) 0.5317(4)
C50_2 C 0.4668(8) 0.6433(3) 0.5302(5)
C51_2 C 0.3974(10) 0.6482(3) 0.4830(6)
H43_2 H 0.4256 0.6535 0.4499
C52_2 C 0.2773(10) 0.6454(3) 0.4831(4)
C53_2 C 0.2087(9) 0.6516(4) 0.4364(5)
H44_2 H 0.2364 0.6565 0.4030
C54_2 C 0.0980(9) 0.6508(4) 0.4380(5)
H45_2 H 0.0485 0.6540 0.4051
C55_2 C 0.0557(8) 0.6451(3) 0.4893(5)
C56_2 C 0.1243(9) 0.6393(3) 0.5347(5)
H46_2 H 0.0962 0.6357 0.5682
C57_2 C 0.2462(10) 0.6384(3) 0.5345(4)
C58_2 C 0.3166(10) 0.6333(4) 0.5826(5)
H47_2 H 0.2890 0.6290 0.6162
C59_2 C 0.4251(10) 0.6344(4) 0.5811(5)
H48_2 H 0.4749 0.6293 0.6135
Zn10 Zn 0.80715(9) 0.63037(3) 0.58137(4)
O22 O 0.8768(5) 0.6412(2) 0.4437(3)
C17_2 C 0.8855(7) 0.7352(4) 0.9812(4)
H26_2 H 0.9631 0.7336 0.9844
C18_2 C 0.8251(7) 0.7303(4) 0.9312(4)
H27_2 H 0.8607 0.7260 0.9000
C19_2 C 0.7100(7) 0.7317(3) 0.9255(3)
C20_2 C 0.6562(7) 0.7383(3) 0.9690(3)
H28_2 H 0.5784 0.7395 0.9644
C24_2 C 0.6434(7) 0.7272(3) 0.8693(3)
O3_2 O 0.5414(5) 0.7350(2) 0.8649(2)
O4_2 O 0.6930(5) 0.7160(2) 0.8311(2)
Zn5_2 Zn 0.42413(7) 0.73426(3) 0.79867(3)
Zn6_2 Zn 0.62760(7) 0.72561(3) 0.75161(4)
C60_2 C 0.9364(7) 0.6483(3) 0.4889(4)
O16_2 O 0.8984(5) 0.6592(2) 0.5312(3)
H33_3 H 0.7182 0.0055 0.8110
C31_3 C 0.5825(15) 0.0203(4) 0.8439(6)
C32_3 C 0.4876(15) 0.0034(5) 0.8557(6)
H34_3 H 0.4411 0.0219 0.8731
C36_3 C 0.6212(14) 0.0659(4) 0.8611(7)
O7_3 O 0.5594(14) 0.0874(4) 0.8871(6)
O8_3 O 0.7051(11) 0.0806(4) 0.8464(6)
O17_3 O 0.7247(11) 0.0791(3) 0.9870(5)
C61_3 C 0.7721(18) 0.0466(5) 0.9740(9)
H49_3 H 0.8181 0.0483 0.9464
N9_3 N 0.7590(14) 0.0091(4) 0.9986(7)
N10_2 N 0.6673(6) 0.1849(2) 0.8637(3)
C49_3 C 0.0882(7) 0.8527(3) 0.0317(4)
C62_3 C 0.6784(18) 0.9940(6) 0.0268(10)
H50_3 H 0.6937 0.9635 0.0377
H52_3 H 0.6073 0.9957 0.0034
H53_3 H 0.8257 0.9498 0.0063
H55_3 H 0.9129 0.9884 0.0042
Zn3 Zn 0.21708(9) 0.85266(3) 0.93788(4)
N1_3 N 0.2911(5) 0.7406(2) 0.8403(3)
N2_3 N 0.2066(5) 0.7904(2) 0.9005(3)
N3_3 N 0.0922(7) 0.7407(3) 0.8392(4)
N4_3 N 0.2113(7) 0.7112(2) 0.9178(4)
C1_3 C 0.2960(7) 0.7847(3) 0.8668(3)
H1_3 H 0.2901 0.8077 0.8383
H2_3 H 0.3677 0.7882 0.8902
C2_3 C 0.1814(7) 0.7359(4) 0.8053(4)
H3_3 H 0.1763 0.7068 0.7875
H4_3 H 0.1735 0.7585 0.7764
C3_3 C 0.2989(8) 0.7065(3) 0.8849(4)
H5_3 H 0.3704 0.7094 0.9086
H6_3 H 0.2954 0.6770 0.8684
C4_3 C 0.1006(8) 0.7842(4) 0.8646(4)
H7_3 H 0.0927 0.8068 0.8357
H8_3 H 0.0399 0.7880 0.8865
C5_3 C 0.2172(8) 0.7547(3) 0.9425(4)
H9_3 H 0.1579 0.7577 0.9653
H10_3 H 0.2881 0.7578 0.9666
C6_3 C 0.1086(9) 0.7071(4) 0.8827(5)
H11_3 H 0.1044 0.6777 0.8657
H12_3 H 0.0483 0.7094 0.9051
N5_3 N 0.7607(5) 0.7235(2) 0.7096(3)
N6_2 N 0.8327(6) 0.6849(2) 0.6363(3)
N7_3 N 0.8526(8) 0.7639(3) 0.6455(4)
N8_3 N 0.9585(7) 0.7156(5) 0.7105(4)
C7_3 C 0.7439(6) 0.6866(3) 0.6703(3)
H13_3 H 0.6727 0.6902 0.6466
H14_3 H 0.7418 0.6587 0.6905
C8_3 C 0.7663(8) 0.7648(3) 0.6795(4)
H15_3 H 0.7795 0.7893 0.7057
H16_3 H 0.6951 0.7700 0.6563
C9_3 C 0.8698(8) 0.7170(5) 0.7443(4)
H17_3 H 0.8689 0.6892 0.7649
H18_3 H 0.8834 0.7412 0.7710
C10_3 C 0.8322(8) 0.7279(3) 0.6052(4)
H19_3 H 0.7605 0.7321 0.5821
H20_3 H 0.8901 0.7275 0.5812
C11_3 C 0.9389(8) 0.6796(4) 0.6723(4)
H21_3 H 0.9990 0.6783 0.6497
H22_3 H 0.9387 0.6518 0.6927
C12_3 C 0.9565(10) 0.7572(5) 0.6797(6)
H24_3 H 0.9705 0.7818 0.7057
O1_3 O 0.5135(5) 0.7384(2) 0.6837(2)
O2_3 O 0.3570(5) 0.7324(2) 0.7199(2)
C13_3 C 0.4105(7) 0.7378(3) 0.6802(3)
C14_3 C 0.3444(7) 0.7442(3) 0.6248(3)
C15_3 C 0.3962(6) 0.7514(3) 0.5794(3)
H25_3 H 0.4740 0.7520 0.5835
C16_3 C 0.3367(6) 0.7576(3) 0.5284(3)
C17_3 C 0.3855(7) 0.7648(4) 0.4812(4)
H26_3 H 0.4631 0.7664 0.4844
C18_3 C 0.3251(7) 0.7697(4) 0.4312(4)
H27_3 H 0.3607 0.7740 0.4000
C19_3 C 0.2100(7) 0.7683(3) 0.4255(3)
C20_3 C 0.1562(7) 0.7617(3) 0.4690(3)
H28_3 H 0.0784 0.7605 0.4644
C21_3 C 0.2200(6) 0.7562(3) 0.5229(3)
C22_3 C 0.1693(7) 0.7479(3) 0.5689(3)
H29_3 H 0.0916 0.7470 0.5654
C23_3 C 0.2297(7) 0.7411(3) 0.6187(3)
H30_3 H 0.1943 0.7343 0.6493
C24_3 C 0.1434(7) 0.7728(3) 0.3693(3)
O5_3 O 0.6286(5) 0.7902(2) 0.7680(3)
O6_3 O 0.4592(5) 0.79925(19) 0.7889(3)
C25_3 C 0.5513(7) 0.8136(3) 0.7811(3)
C26_3 C 0.5711(8) 0.8617(3) 0.7872(4)
C27_3 C 0.6706(10) 0.8793(4) 0.7749(6)
H31_3 H 0.7205 0.8607 0.7600
C28_3 C 0.6966(11) 0.9218(4) 0.7840(7)
H32_3 H 0.7640 0.9327 0.7751
C29_3 C 0.6245(12) 0.9503(3) 0.8067(5)
C30_3 C 0.6511(14) 0.9939(4) 0.8195(6)
C33_3 C 0.4534(14) 0.9603(4) 0.8439(6)
H35_3 H 0.3841 0.9503 0.8514
C34_3 C 0.5250(10) 0.9320(3) 0.8204(5)
C35_3 C 0.4995(9) 0.8883(3) 0.8086(4)
H36_3 H 0.4311 0.8770 0.8156
O9_3 O 0.5743(5) 0.6630(2) 0.7458(3)
O10_3 O 0.4371(6) 0.6677(2) 0.7955(3)
C37_3 C 0.4927(8) 0.6482(3) 0.7650(4)
C38_3 C 0.4587(9) 0.6017(3) 0.7485(4)
C39_3 C 0.5116(9) 0.5789(3) 0.7122(4)
H37_3 H 0.5723 0.5918 0.6984
C40_3 C 0.4769(11) 0.5370(3) 0.6953(5)
C41_3 C 0.5217(12) 0.5131(4) 0.6547(5)
H38_3 H 0.5796 0.5256 0.6383
C42_3 C 0.4833(13) 0.4726(4) 0.6387(6)
H39_2 H 0.5166 0.4570 0.6122
C43_3 C 0.3970(14) 0.4539(4) 0.6602(6)
C44_3 C 0.3463(12) 0.4752(4) 0.6976(6)
H40_3 H 0.2856 0.4624 0.7113
C45_3 C 0.3861(12) 0.5177(4) 0.7160(6)
C46_3 C 0.3344(14) 0.5419(5) 0.7534(7)
H41_3 H 0.2735 0.5296 0.7675
C47_3 C 0.3700(13) 0.5828(4) 0.7700(6)
H42_3 H 0.3349 0.5984 0.7958
C48_3 C 0.3427(12) 0.4094(4) 0.6394(6)
O11_3 O 0.2789(8) 0.3912(3) 0.6632(4)
O12_2 O 0.3775(9) 0.3969(3) 0.5960(5)
O14_3 O 0.1247(6) 0.8340(2) 0.9926(3)
C63_3 C 0.8400(18) 0.9776(6) 0.9889(9)
H54_3 H 0.8371 0.9731 0.9495
Zn7_2 Zn 0.28292(9) 0.35266(3) 0.56212(4)
O20_2 O 0.1225(9) 0.8969(3) 0.9040(5)
O22_2 O 0.3768(5) 0.8588(2) 0.9437(3)
C50_3 C 0.9668(8) 0.8567(3) 0.0302(5)
C56_3 C 0.6243(9) 0.8607(3) 0.0347(5)
H46_3 H 0.5962 0.8643 0.0682
C57_3 C 0.7462(10) 0.8616(3) 0.0345(4)
C58_3 C 0.8166(10) 0.8667(4) 0.0826(5)
H47_3 H 0.7890 0.8710 0.1162
C59_3 C 0.9251(10) 0.8656(4) 0.0811(5)
H48_3 H 0.9749 0.8707 0.1135
C51_3 C 0.8974(10) 0.8518(3) 0.9830(6)
H43_3 H 0.9256 0.8465 0.9499
C52_3 C 0.7773(10) 0.8546(3) 0.9831(4)
C53_3 C 0.7087(9) 0.8484(4) 0.9364(5)
H44_3 H 0.7364 0.8435 0.9030
C54_3 C 0.5980(9) 0.8492(4) 0.9380(5)
H45_3 H 0.5485 0.8460 0.9051
C55_3 C 0.5557(8) 0.8549(3) 0.9893(5)
C60_3 C 0.4364(7) 0.8517(3) 0.9889(4)
C60_4 C 0.0636(7) 0.3517(3) 0.5111(4)
O15_2 O 0.1232(5) 0.3588(2) 0.5563(3)
C17_4 C 0.1145(7) 0.2648(4) 0.0188(4)
H26_4 H 0.0369 0.2664 0.0156
C18_4 C 0.1749(7) 0.2697(4) 0.0688(4)
H27_4 H 0.1393 0.2740 0.1000
C19_4 C 0.2900(7) 0.2683(3) 0.0745(3)
C20_4 C 0.3438(7) 0.2617(3) 0.0310(3)
H28_4 H 0.4216 0.2605 0.0356
C24_4 C 0.3566(7) 0.2728(3) 0.1307(3)
N1_4 N 0.2089(5) 0.2406(2) 0.6597(3)
N2_4 N 0.2934(5) 0.2904(2) 0.5995(3)
N3_4 N 0.4078(7) 0.2407(3) 0.6608(4)
N4_4 N 0.2887(7) 0.2112(2) 0.5822(4)
C1_4 C 0.2040(7) 0.2847(3) 0.6332(3)
H1_4 H 0.2099 0.3077 0.6617
H2_4 H 0.1323 0.2882 0.6098
C2_4 C 0.3186(7) 0.2359(4) 0.6947(4)
H3_4 H 0.3237 0.2068 0.7125
H4_4 H 0.3265 0.2585 0.7236
C3_4 C 0.2011(8) 0.2065(3) 0.6151(4)
H5_4 H 0.1296 0.2094 0.5914
H6_4 H 0.2046 0.1770 0.6316
C4_4 C 0.3994(8) 0.2842(4) 0.6354(4)
H7_4 H 0.4073 0.3068 0.6643
H8_4 H 0.4601 0.2880 0.6135
C5_4 C 0.2828(8) 0.2547(3) 0.5575(4)
H9_4 H 0.3421 0.2577 0.5347
H10_4 H 0.2119 0.2578 0.5334
C6_4 C 0.3914(9) 0.2071(4) 0.6173(5)
H11_4 H 0.3956 0.1777 0.6343
H12_4 H 0.4517 0.2094 0.5949
O2_4 O 0.1430(5) 0.2324(2) 0.7801(2)
C13_4 C 0.0895(7) 0.2378(3) 0.8198(3)
C14_4 C 0.1556(7) 0.2442(3) 0.8752(3)
C15_4 C 0.1038(6) 0.2514(3) 0.9206(3)
H25_4 H 0.0260 0.2520 0.9165
C16_4 C 0.1633(6) 0.2576(3) 0.9716(3)
C21_4 C 0.2800(6) 0.2562(3) 0.9771(3)
C22_4 C 0.3307(7) 0.2479(3) 0.9311(3)
H29_4 H 0.4084 0.2470 0.9346
C23_4 C 0.2703(7) 0.2411(3) 0.8813(3)
H30_4 H 0.3057 0.2343 0.8507
O6_4 O 0.0408(5) 0.29925(19) 0.7111(3)
C32_4 C 0.0124(15) 0.5034(5) 0.6443(6)
H34_4 H 0.0589 0.5219 0.6269
C33_4 C 0.0466(14) 0.4603(4) 0.6561(6)
H35_4 H 0.1159 0.4503 0.6486
C35_4 C 0.0005(9) 0.3883(3) 0.6914(4)
H36_4 H 0.0689 0.3770 0.6844
O10_4 O 0.0629(6) 0.1677(2) 0.7045(3)
C37_4 C 0.0073(8) 0.1482(3) 0.7350(4)
C38_4 C 0.0413(9) 0.1017(3) 0.7515(4)
C40_4 C 0.0231(11) 0.0370(3) 0.8047(5)
C45_4 C 0.1139(12) 0.0177(4) 0.7840(6)
C46_4 C 0.1656(14) 0.0419(5) 0.7466(7)
H41_4 H 0.2265 0.0296 0.7325
C47_4 C 0.1300(13) 0.0828(4) 0.7300(6)
H42_4 H 0.1651 0.0984 0.7042
O14_4 O 0.3753(6) 0.3340(2) 0.5074(3)
C49_4 C 0.4118(7) 0.3527(3) 0.4683(4)
C50_4 C 0.5332(8) 0.3567(3) 0.4698(5)
C51_4 C 0.6026(10) 0.3518(3) 0.5170(6)
H43_4 H 0.5744 0.3465 0.5501
C52_4 C 0.7227(10) 0.3546(3) 0.5169(4)
C53_4 C 0.7913(9) 0.3484(4) 0.5636(5)
H44_4 H 0.7636 0.3435 0.5970
C54_4 C 0.9020(9) 0.3492(4) 0.5620(5)
H45_4 H 0.9515 0.3460 0.5949
C55_4 C 0.9443(8) 0.3549(3) 0.5107(5)
C56_4 C 0.8757(9) 0.3607(3) 0.4653(5)
H46_4 H 0.9038 0.3643 0.4318
C57_4 C 0.7538(10) 0.3616(3) 0.4655(4)
C58_4 C 0.6834(10) 0.3667(4) 0.4174(5)
H47_4 H 0.7110 0.3710 0.3838
C59_4 C 0.5749(10) 0.3656(4) 0.4189(5)
H48_4 H 0.5251 0.3707 0.3865
C42_4 C 0.0167(13) 0.9726(4) 0.8613(6)
C43_4 C 0.1030(14) 0.9539(4) 0.8398(6)
C44_4 C 0.1537(12) 0.9752(4) 0.8024(6)
H40_4 H 0.2144 0.9624 0.7887
C48_4 C 0.1573(12) 0.9094(4) 0.8606(6)
O11_4 O 0.2211(8) 0.8912(3) 0.8368(4)
N5_4 N 0.7393(5) 0.2235(2) 0.7904(3)
N7_4 N 0.6474(8) 0.2639(3) 0.8545(4)
N8_4 N 0.5415(7) 0.2156(5) 0.7895(4)
C7_4 C 0.7561(6) 0.1866(3) 0.8297(3)
H13_4 H 0.8273 0.1902 0.8534
H14_4 H 0.7582 0.1587 0.8095
C8_4 C 0.7337(8) 0.2648(3) 0.8205(4)
H15_4 H 0.7205 0.2893 0.7943
H16_4 H 0.8049 0.2700 0.8437
C9_4 C 0.6302(8) 0.2170(5) 0.7557(4)
H17_4 H 0.6311 0.1892 0.7351
H18_4 H 0.6166 0.2412 0.7290
C10_4 C 0.6678(8) 0.2279(3) 0.8948(4)
H19_4 H 0.7395 0.2321 0.9179
H20_4 H 0.6099 0.2275 0.9188
C11_4 C 0.5611(8) 0.1796(4) 0.8277(4)
H21_4 H 0.5010 0.1783 0.8503
H22_4 H 0.5613 0.1518 0.8073
C12_4 C 0.5435(10) 0.2572(5) 0.8203(6)
H23_2 H 0.4841 0.2569 0.8433
H24_4 H 0.5295 0.2818 0.7943
O1_4 O 0.9865(5) 0.2384(2) 0.8163(2)
O5_4 O 0.8714(5) 0.2902(2) 0.7320(3)
C25_4 C 0.9487(7) 0.3136(3) 0.7189(3)
C26_4 C 0.9289(8) 0.3617(3) 0.7128(4)
C27_4 C 0.8294(10) 0.3793(4) 0.7251(6)
H31_4 H 0.7795 0.3607 0.7400
C28_4 C 0.8034(11) 0.4218(4) 0.7160(7)
H32_4 H 0.7360 0.4327 0.7249
C29_4 C 0.8755(12) 0.4503(3) 0.6933(5)
C30_4 C 0.8489(14) 0.4939(4) 0.6805(6)
H33_4 H 0.7818 0.5055 0.6890
C31_4 C 0.9175(15) 0.5203(4) 0.6561(6)
C34_4 C 0.9750(10) 0.4320(3) 0.6796(5)
C36_4 C 0.8788(14) 0.5659(4) 0.6389(7)
O7_4 O 0.9406(14) 0.5874(4) 0.6129(6)
O8_4 O 0.7949(11) 0.5806(4) 0.6536(6)
O9_4 O 0.9257(5) 0.1630(2) 0.7542(3)
C39_4 C 0.9884(9) 0.0789(3) 0.7878(4)
H37_4 H 0.9277 0.0918 0.8016
C41_4 C 0.9783(12) 0.0131(4) 0.8453(5)
H38_4 H 0.9204 0.0256 0.8617
O17_4 O 0.7753(11) 0.5791(3) 0.5130(5)
C61_4 C 0.7279(18) 0.5466(5) 0.5260(9)
H49_4 H 0.6819 0.5483 0.5536
N9_4 N 0.7410(14) 0.5091(4) 0.5014(7)
C62_4 C 0.8216(18) 0.4940(6) 0.4732(10)
H50_4 H 0.8063 0.4635 0.4623
H51_2 H 0.8233 0.5120 0.4406
H52_4 H 0.8927 0.4957 0.4966
C63_4 C 0.6600(18) 0.4776(6) 0.5111(9)
H53_4 H 0.6743 0.4498 0.4937
H54_4 H 0.6629 0.4731 0.5505
H55_4 H 0.5871 0.4884 0.4958
H51_3 H 0.3233 0.9880 0.9406
H23_3 H 0.9841 0.2431 0.3433
H39_3 H 0.0166 0.0430 0.1122
H23_4 H 0.0159 0.7569 0.6567
H51_4 H 0.6767 0.0120 0.0594
H39_4 H 0.9834 0.9570 0.8878
loop_
_geom_bond_atom_site_label_1
_geom_bond_atom_site_label_2
_geom_bond_site_symmetry_1
_geom_bond_site_symmetry_2
H43 C51 1_555 1_555
C52 C51 1_555 1_555
C53 C52 1_555 1_555
H44 C53 1_555 1_555
C54 C53 1_555 1_555
H45 C54 1_555 1_555
C55 C54 1_555 1_555
C60 C55 1_555 1_555
O15 C60 1_555 1_555
Zn8 O15 1_555 1_555
H46 C56 1_555 1_555
C58 C57 1_555 1_555
H47 C58 1_555 1_555
C59 C50 1_555 1_555
H48 C59 1_555 1_555
Zn11 O16 1_555 1_555
C56 C57 1_555 1_555
C58 C59 1_555 1_555
Zn1 N1 1_555 1_555
Zn2 N5 1_555 1_555
Zn8 N2 1_555 1_555
N1 C1 1_555 1_555
N2 C1 1_555 1_555
N3 C2 1_555 1_555
N4 C3 1_555 1_555
C1 H1 1_555 1_555
H2 C1 1_555 1_555
C2 N1 1_555 1_555
H3 C2 1_555 1_555
H4 C2 1_555 1_555
C3 N1 1_555 1_555
H5 C3 1_555 1_555
H6 C3 1_555 1_555
C4 N2 1_555 1_555
H7 C4 1_555 1_555
H8 C4 1_555 1_555
C5 N2 1_555 1_555
H9 C5 1_555 1_555
H10 C5 1_555 1_555
C6 N3 1_555 1_555
H11 C6 1_555 1_555
H12 C6 1_555 1_555
N5 C7 1_555 1_555
N6 C7 1_555 1_555
N7 C8 1_555 1_555
N8 C9 1_555 1_555
C7 H13 1_555 1_555
H14 C7 1_555 1_555
C8 N5 1_555 1_555
H15 C8 1_555 1_555
H16 C8 1_555 1_555
C9 N5 1_555 1_555
H17 C9 1_555 1_555
H18 C9 1_555 1_555
C10 N6 1_555 1_555
H19 C10 1_555 1_555
H20 C10 1_555 1_555
C11 N6 1_555 1_555
H21 C11 1_555 1_555
H22 C11 1_555 1_555
C12 N7 1_555 1_555
H24 C12 1_555 1_555
O1 Zn2 1_555 1_555
O2 Zn1 1_555 1_555
C13 O1 1_555 1_555
C14 C13 1_555 1_555
C15 C14 1_555 1_555
H25 C15 1_555 1_555
C16 C15 1_555 1_555
C17 C16 1_555 1_555
H26 C17 1_555 1_555
C18 C17 1_555 1_555
H27 C18 1_555 1_555
C19 C18 1_555 1_555
C20 C19 1_555 1_555
H28 C20 1_555 1_555
C21 C16 1_555 1_555
C22 C21 1_555 1_555
H29 C22 1_555 1_555
C23 C14 1_555 1_555
H30 C23 1_555 1_555
C24 C19 1_555 1_555
O3 C24 1_555 1_555
O4 C24 1_555 1_555
O5 Zn2 1_555 1_555
O6 Zn1 1_555 1_555
C25 O5 1_555 1_555
C26 C25 1_555 1_555
C27 C26 1_555 1_555
H31 C27 1_555 1_555
C28 C27 1_555 1_555
H32 C28 1_555 1_555
C29 C28 1_555 1_555
C30 C29 1_555 1_555
H35 C33 1_555 1_555
C34 C29 1_555 1_555
C35 C26 1_555 1_555
H36 C35 1_555 1_555
O9 Zn2 1_555 1_555
O10 Zn1 1_555 1_555
C37 O9 1_555 1_555
C38 C37 1_555 1_555
C39 C38 1_555 1_555
H37 C39 1_555 1_555
C40 C39 1_555 1_555
C41 C40 1_555 1_555
H38 C41 1_555 1_555
C42 C41 1_555 1_555
H39 C42 1_555 1_555
C43 C42 1_555 1_555
C44 C43 1_555 1_555
H40 C44 1_555 1_555
C45 C40 1_555 1_555
C46 C45 1_555 1_555
H41 C46 1_555 1_555
C47 C38 1_555 1_555
H42 C47 1_555 1_555
C48 C43 1_555 1_555
O11 C48 1_555 1_555
O12 C48 1_555 1_555
O14 Zn8 1_555 1_555
H54 C63 1_555 1_555
Zn6 O4 1_555 1_555
Zn7 O12 1_555 1_555
Zn9 N6 1_555 1_555
O18 Zn1 1_555 1_555
O19 Zn2 1_555 1_555
O20 Zn8 1_555 1_555
N3 C4 1_555 1_555
N4 C5 1_555 1_555
N4 C6 1_555 1_555
N7 C10 1_555 1_555
N8 C11 1_555 1_555
N8 C12 1_555 1_555
O2 C13 1_555 1_555
C20 C21 1_555 1_555
C22 C23 1_555 1_555
O6 C25 1_555 1_555
C33 C34 1_555 1_555
C34 C35 1_555 1_555
O10 C37 1_555 1_555
C44 C45 1_555 1_555
C46 C47 1_555 1_555
O13 C49 1_555 1_555
H50 C62 1_555 1_555
H52 C62 1_555 1_555
Zn11 O13 1_555 1_555
Zn4 O7 1_555 1_555
C32 C31 1_555 1_555
H34 C32 1_555 1_555
C36 C31 1_555 1_555
O7 C36 1_555 1_555
O8 Zn4 1_555 1_555
O17 Zn4 1_555 1_555
C61 O17 1_555 1_555
H49 C61 1_555 1_555
N9 C61 1_555 1_555
N10 Zn4 1_555 1_555
O21 Zn4 1_555 1_555
O23 Zn4 1_555 1_555
C36 O8 1_555 1_555
Zn2_2 N5_2 1_555 1_555
Zn9 O7_2 1_555 1_555
N5_2 C7_2 1_555 1_555
N10 C7_2 1_555 1_555
N7_2 C8_2 1_555 1_555
N8_2 C9_2 1_555 1_555
C7_2 H13_2 1_555 1_555
H14_2 C7_2 1_555 1_555
C8_2 N5_2 1_555 1_555
H15_2 C8_2 1_555 1_555
H16_2 C8_2 1_555 1_555
C9_2 N5_2 1_555 1_555
H17_2 C9_2 1_555 1_555
H18_2 C9_2 1_555 1_555
C10_2 N10 1_555 1_555
H19_2 C10_2 1_555 1_555
H20_2 C10_2 1_555 1_555
C11_2 N10 1_555 1_555
H21_2 C11_2 1_555 1_555
H22_2 C11_2 1_555 1_555
C12_2 N7_2 1_555 1_555
H23 C12_2 1_555 1_555
H24_2 C12_2 1_555 1_555
O1_2 Zn2_2 1_555 1_555
O5_2 Zn2_2 1_555 1_555
C25_2 O5_2 1_555 1_555
C26_2 C25_2 1_555 1_555
C27_2 C26_2 1_555 1_555
H31_2 C27_2 1_555 1_555
C28_2 C27_2 1_555 1_555
H32_2 C28_2 1_555 1_555
C29_2 C28_2 1_555 1_555
C30_2 C29_2 1_555 1_555
H33_2 C30_2 1_555 1_555
C31_2 C30_2 1_555 1_555
C34_2 C29_2 1_555 1_555
C36_2 C31_2 1_555 1_555
O7_2 C36_2 1_555 1_555
O8_2 Zn9 1_555 1_555
O9_2 Zn2_2 1_555 1_555
H37_2 C39_2 1_555 1_555
H38_2 C41_2 1_555 1_555
O17_2 Zn9 1_555 1_555
C61_2 O17_2 1_555 1_555
H49_2 C61_2 1_555 1_555
N9_2 C61_2 1_555 1_555
C62_2 N9_2 1_555 1_555
H50_2 C62_2 1_555 1_555
H51 C62_2 1_555 1_555
H52_2 C62_2 1_555 1_555
C63_2 N9_2 1_555 1_555
H53_2 C63_2 1_555 1_555
H54_2 C63_2 1_555 1_555
H55_2 C63_2 1_555 1_555
O19_2 Zn2_2 1_555 1_555
O21_2 Zn9 1_555 1_555
O23_2 Zn9 1_555 1_555
N7_2 C10_2 1_555 1_555
N8_2 C11_2 1_555 1_555
N8_2 C12_2 1_555 1_555
C36_2 O8_2 1_555 1_555
C43_2 C42_2 1_555 1_555
C44_2 C43_2 1_555 1_555
H40_2 C44_2 1_555 1_555
C48_2 C43_2 1_555 1_555
O11_2 C48_2 1_555 1_555
O20 C48_2 1_555 1_555
Zn1_2 N1_2 1_555 1_555
Zn7 N2_2 1_555 1_555
N1_2 C1_2 1_555 1_555
N2_2 C1_2 1_555 1_555
N3_2 C2_2 1_555 1_555
N4_2 C3_2 1_555 1_555
C1_2 H1_2 1_555 1_555
H2_2 C1_2 1_555 1_555
C2_2 N1_2 1_555 1_555
H3_2 C2_2 1_555 1_555
H4_2 C2_2 1_555 1_555
C3_2 N1_2 1_555 1_555
H5_2 C3_2 1_555 1_555
H6_2 C3_2 1_555 1_555
C4_2 N2_2 1_555 1_555
H7_2 C4_2 1_555 1_555
H8_2 C4_2 1_555 1_555
C5_2 N2_2 1_555 1_555
H9_2 C5_2 1_555 1_555
H10_2 C5_2 1_555 1_555
C6_2 N3_2 1_555 1_555
H11_2 C6_2 1_555 1_555
H12_2 C6_2 1_555 1_555
O2_2 Zn1_2 1_555 1_555
C14_2 C13_2 1_555 1_555
C15_2 C14_2 1_555 1_555
H25_2 C15_2 1_555 1_555
C16_2 C15_2 1_555 1_555
C21_2 C16_2 1_555 1_555
C22_2 C21_2 1_555 1_555
H29_2 C22_2 1_555 1_555
C23_2 C14_2 1_555 1_555
H30_2 C23_2 1_555 1_555
O6_2 Zn1_2 1_555 1_555
H34_2 C32_2 1_555 1_555
C33_2 C32_2 1_555 1_555
H35_2 C33_2 1_555 1_555
H36_2 C35_2 1_555 1_555
O10_2 Zn1_2 1_555 1_555
C38_2 C37_2 1_555 1_555
C45_2 C40_2 1_555 1_555
C46_2 C45_2 1_555 1_555
H41_2 C46_2 1_555 1_555
C47_2 C38_2 1_555 1_555
H42_2 C47_2 1_555 1_555
O13_2 C49_2 1_555 1_555
O14_2 Zn7 1_555 1_555
C49_2 O14_2 1_555 1_555
C50_2 C49_2 1_555 1_555
C51_2 C50_2 1_555 1_555
H43_2 C51_2 1_555 1_555
C52_2 C51_2 1_555 1_555
C53_2 C52_2 1_555 1_555
H44_2 C53_2 1_555 1_555
C54_2 C53_2 1_555 1_555
H45_2 C54_2 1_555 1_555
C55_2 C54_2 1_555 1_555
C56_2 C55_2 1_555 1_555
H46_2 C56_2 1_555 1_555
C57_2 C52_2 1_555 1_555
C58_2 C57_2 1_555 1_555
H47_2 C58_2 1_555 1_555
C59_2 C50_2 1_555 1_555
H48_2 C59_2 1_555 1_555
Zn10 O13_2 1_555 1_555
O22 Zn7 1_555 1_555
N3_2 C4_2 1_555 1_555
N4_2 C5_2 1_555 1_555
N4_2 C6_2 1_555 1_555
O2_2 C13_2 1_555 1_555
C22_2 C23_2 1_555 1_555
O10_2 C37_2 1_555 1_555
C46_2 C47_2 1_555 1_555
C56_2 C57_2 1_555 1_555
C58_2 C59_2 1_555 1_555
H26_2 C17_2 1_555 1_555
C18_2 C17_2 1_555 1_555
H27_2 C18_2 1_555 1_555
C19_2 C18_2 1_555 1_555
C20_2 C19_2 1_555 1_555
H28_2 C20_2 1_555 1_555
C24_2 C19_2 1_555 1_555
O3_2 C24_2 1_555 1_555
O4_2 C24_2 1_555 1_555
Zn5_2 O3_2 1_555 1_555
Zn6_2 O4_2 1_555 1_555
O22 C60_2 1_555 1_555
O16_2 C60_2 1_555 1_555
Zn10 O16_2 1_555 1_555
Zn11 O7_3 1_555 1_555
C32_3 C31_3 1_555 1_555
H34_3 C32_3 1_555 1_555
C36_3 C31_3 1_555 1_555
O7_3 C36_3 1_555 1_555
O8_3 Zn11 1_555 1_555
O17_3 Zn11 1_555 1_555
C61_3 O17_3 1_555 1_555
H49_3 C61_3 1_555 1_555
N9_3 C61_3 1_555 1_555
N10_2 Zn11 1_555 1_555
C36_3 O8_3 1_555 1_555
O21 C49_3 1_555 1_555
H50_3 C62_3 1_555 1_555
H52_3 C62_3 1_555 1_555
Zn5_2 N1_3 1_555 1_555
Zn6_2 N5_3 1_555 1_555
Zn3 N2_3 1_555 1_555
N1_3 C1_3 1_555 1_555
N2_3 C1_3 1_555 1_555
N3_3 C2_3 1_555 1_555
N4_3 C3_3 1_555 1_555
C1_3 H1_3 1_555 1_555
H2_3 C1_3 1_555 1_555
C2_3 N1_3 1_555 1_555
H3_3 C2_3 1_555 1_555
H4_3 C2_3 1_555 1_555
C3_3 N1_3 1_555 1_555
H5_3 C3_3 1_555 1_555
H6_3 C3_3 1_555 1_555
C4_3 N2_3 1_555 1_555
H7_3 C4_3 1_555 1_555
H8_3 C4_3 1_555 1_555
C5_3 N2_3 1_555 1_555
H9_3 C5_3 1_555 1_555
H10_3 C5_3 1_555 1_555
C6_3 N3_3 1_555 1_555
H11_3 C6_3 1_555 1_555
H12_3 C6_3 1_555 1_555
N5_3 C7_3 1_555 1_555
N6_2 C7_3 1_555 1_555
N7_3 C8_3 1_555 1_555
N8_3 C9_3 1_555 1_555
C7_3 H13_3 1_555 1_555
H14_3 C7_3 1_555 1_555
C8_3 N5_3 1_555 1_555
H15_3 C8_3 1_555 1_555
H16_3 C8_3 1_555 1_555
C9_3 N5_3 1_555 1_555
H17_3 C9_3 1_555 1_555
H18_3 C9_3 1_555 1_555
C10_3 N6_2 1_555 1_555
H19_3 C10_3 1_555 1_555
H20_3 C10_3 1_555 1_555
C11_3 N6_2 1_555 1_555
H21_3 C11_3 1_555 1_555
H22_3 C11_3 1_555 1_555
C12_3 N7_3 1_555 1_555
H24_3 C12_3 1_555 1_555
O1_3 Zn6_2 1_555 1_555
O2_3 Zn5_2 1_555 1_555
C13_3 O1_3 1_555 1_555
C14_3 C13_3 1_555 1_555
C15_3 C14_3 1_555 1_555
H25_3 C15_3 1_555 1_555
C16_3 C15_3 1_555 1_555
C17_3 C16_3 1_555 1_555
H26_3 C17_3 1_555 1_555
C18_3 C17_3 1_555 1_555
H27_3 C18_3 1_555 1_555
C19_3 C18_3 1_555 1_555
C20_3 C19_3 1_555 1_555
H28_3 C20_3 1_555 1_555
C21_3 C16_3 1_555 1_555
C22_3 C21_3 1_555 1_555
H29_3 C22_3 1_555 1_555
C23_3 C14_3 1_555 1_555
H30_3 C23_3 1_555 1_555
C24_3 C19_3 1_555 1_555
O18_2 C24_3 1_555 1_555
O19_2 C24_3 1_555 1_555
O5_3 Zn6_2 1_555 1_555
O6_3 Zn5_2 1_555 1_555
C25_3 O5_3 1_555 1_555
C26_3 C25_3 1_555 1_555
C27_3 C26_3 1_555 1_555
H31_3 C27_3 1_555 1_555
C28_3 C27_3 1_555 1_555
H32_3 C28_3 1_555 1_555
C29_3 C28_3 1_555 1_555
C30_3 C29_3 1_555 1_555
H35_3 C33_3 1_555 1_555
C34_3 C29_3 1_555 1_555
C35_3 C26_3 1_555 1_555
H36_3 C35_3 1_555 1_555
O9_3 Zn6_2 1_555 1_555
O10_3 Zn5_2 1_555 1_555
C37_3 O9_3 1_555 1_555
C38_3 C37_3 1_555 1_555
C39_3 C38_3 1_555 1_555
H37_3 C39_3 1_555 1_555
C40_3 C39_3 1_555 1_555
C41_3 C40_3 1_555 1_555
H38_3 C41_3 1_555 1_555
C42_3 C41_3 1_555 1_555
H39_2 C42_3 1_555 1_555
C43_3 C42_3 1_555 1_555
C44_3 C43_3 1_555 1_555
H40_3 C44_3 1_555 1_555
C45_3 C40_3 1_555 1_555
C46_3 C45_3 1_555 1_555
H41_3 C46_3 1_555 1_555
C47_3 C38_3 1_555 1_555
H42_3 C47_3 1_555 1_555
C48_3 C43_3 1_555 1_555
O11_3 C48_3 1_555 1_555
O12_2 C48_3 1_555 1_555
O14_3 Zn3 1_555 1_555
H54_3 C63_3 1_555 1_555
Zn7_2 O12_2 1_555 1_555
Zn10 N6_2 1_555 1_555
O20_2 Zn3 1_555 1_555
O22_2 Zn3 1_555 1_555
N3_3 C4_3 1_555 1_555
N4_3 C5_3 1_555 1_555
N4_3 C6_3 1_555 1_555
N7_3 C10_3 1_555 1_555
N8_3 C11_3 1_555 1_555
N8_3 C12_3 1_555 1_555
O2_3 C13_3 1_555 1_555
C20_3 C21_3 1_555 1_555
C22_3 C23_3 1_555 1_555
O6_3 C25_3 1_555 1_555
C33_3 C34_3 1_555 1_555
C34_3 C35_3 1_555 1_555
O10_3 C37_3 1_555 1_555
C44_3 C45_3 1_555 1_555
C46_3 C47_3 1_555 1_555
H46_3 C56_3 1_555 1_555
C58_3 C57_3 1_555 1_555
H47_3 C58_3 1_555 1_555
C59_3 C50_3 1_555 1_555
H48_3 C59_3 1_555 1_555
C56_3 C57_3 1_555 1_555
C58_3 C59_3 1_555 1_555
H43_3 C51_3 1_555 1_555
C52_3 C51_3 1_555 1_555
C53_3 C52_3 1_555 1_555
H44_3 C53_3 1_555 1_555
C54_3 C53_3 1_555 1_555
H45_3 C54_3 1_555 1_555
C55_3 C54_3 1_555 1_555
C60_3 C55_3 1_555 1_555
O22_2 C60_3 1_555 1_555
O15_2 C60_4 1_555 1_555
O23_2 C60_4 1_555 1_555
Zn7_2 O15_2 1_555 1_555
H26_4 C17_4 1_555 1_555
C18_4 C17_4 1_555 1_555
H27_4 C18_4 1_555 1_555
C19_4 C18_4 1_555 1_555
C20_4 C19_4 1_555 1_555
H28_4 C20_4 1_555 1_555
C24_4 C19_4 1_555 1_555
O18 C24_4 1_555 1_555
O19 C24_4 1_555 1_555
Zn5 N1_4 1_555 1_555
Zn7_2 N2_4 1_555 1_555
N1_4 C1_4 1_555 1_555
N2_4 C1_4 1_555 1_555
N3_4 C2_4 1_555 1_555
N4_4 C3_4 1_555 1_555
C1_4 H1_4 1_555 1_555
H2_4 C1_4 1_555 1_555
C2_4 N1_4 1_555 1_555
H3_4 C2_4 1_555 1_555
H4_4 C2_4 1_555 1_555
C3_4 N1_4 1_555 1_555
H5_4 C3_4 1_555 1_555
H6_4 C3_4 1_555 1_555
C4_4 N2_4 1_555 1_555
H7_4 C4_4 1_555 1_555
H8_4 C4_4 1_555 1_555
C5_4 N2_4 1_555 1_555
H9_4 C5_4 1_555 1_555
H10_4 C5_4 1_555 1_555
C6_4 N3_4 1_555 1_555
H11_4 C6_4 1_555 1_555
H12_4 C6_4 1_555 1_555
O2_4 Zn5 1_555 1_555
C14_4 C13_4 1_555 1_555
C15_4 C14_4 1_555 1_555
H25_4 C15_4 1_555 1_555
C16_4 C15_4 1_555 1_555
C21_4 C16_4 1_555 1_555
C22_4 C21_4 1_555 1_555
H29_4 C22_4 1_555 1_555
C23_4 C14_4 1_555 1_555
H30_4 C23_4 1_555 1_555
O6_4 Zn5 1_555 1_555
H34_4 C32_4 1_555 1_555
C33_4 C32_4 1_555 1_555
H35_4 C33_4 1_555 1_555
H36_4 C35_4 1_555 1_555
O10_4 Zn5 1_555 1_555
C38_4 C37_4 1_555 1_555
C45_4 C40_4 1_555 1_555
C46_4 C45_4 1_555 1_555
H41_4 C46_4 1_555 1_555
C47_4 C38_4 1_555 1_555
H42_4 C47_4 1_555 1_555
O21_2 C49_4 1_555 1_555
O14_4 Zn7_2 1_555 1_555
C49_4 O14_4 1_555 1_555
C50_4 C49_4 1_555 1_555
C51_4 C50_4 1_555 1_555
H43_4 C51_4 1_555 1_555
C52_4 C51_4 1_555 1_555
C53_4 C52_4 1_555 1_555
H44_4 C53_4 1_555 1_555
C54_4 C53_4 1_555 1_555
H45_4 C54_4 1_555 1_555
C55_4 C54_4 1_555 1_555
C56_4 C55_4 1_555 1_555
H46_4 C56_4 1_555 1_555
C57_4 C52_4 1_555 1_555
C58_4 C57_4 1_555 1_555
H47_4 C58_4 1_555 1_555
C59_4 C50_4 1_555 1_555
H48_4 C59_4 1_555 1_555
N3_4 C4_4 1_555 1_555
N4_4 C5_4 1_555 1_555
N4_4 C6_4 1_555 1_555
O2_4 C13_4 1_555 1_555
C22_4 C23_4 1_555 1_555
O10_4 C37_4 1_555 1_555
C46_4 C47_4 1_555 1_555
C56_4 C57_4 1_555 1_555
C58_4 C59_4 1_555 1_555
C43_4 C42_4 1_555 1_555
C44_4 C43_4 1_555 1_555
H40_4 C44_4 1_555 1_555
C48_4 C43_4 1_555 1_555
O11_4 C48_4 1_555 1_555
O20_2 C48_4 1_555 1_555
Zn6 N5_4 1_555 1_555
Zn10 O7_4 1_555 1_555
N5_4 C7_4 1_555 1_555
N10_2 C7_4 1_555 1_555
N7_4 C8_4 1_555 1_555
N8_4 C9_4 1_555 1_555
C7_4 H13_4 1_555 1_555
H14_4 C7_4 1_555 1_555
C8_4 N5_4 1_555 1_555
H15_4 C8_4 1_555 1_555
H16_4 C8_4 1_555 1_555
C9_4 N5_4 1_555 1_555
H17_4 C9_4 1_555 1_555
H18_4 C9_4 1_555 1_555
C10_4 N10_2 1_555 1_555
H19_4 C10_4 1_555 1_555
H20_4 C10_4 1_555 1_555
C11_4 N10_2 1_555 1_555
H21_4 C11_4 1_555 1_555
H22_4 C11_4 1_555 1_555
C12_4 N7_4 1_555 1_555
H23_2 C12_4 1_555 1_555
H24_4 C12_4 1_555 1_555
O1_4 Zn6 1_555 1_555
O5_4 Zn6 1_555 1_555
C25_4 O5_4 1_555 1_555
C26_4 C25_4 1_555 1_555
C27_4 C26_4 1_555 1_555
H31_4 C27_4 1_555 1_555
C28_4 C27_4 1_555 1_555
H32_4 C28_4 1_555 1_555
C29_4 C28_4 1_555 1_555
C30_4 C29_4 1_555 1_555
H33_4 C30_4 1_555 1_555
C31_4 C30_4 1_555 1_555
C34_4 C29_4 1_555 1_555
C36_4 C31_4 1_555 1_555
O7_4 C36_4 1_555 1_555
O8_4 Zn10 1_555 1_555
O9_4 Zn6 1_555 1_555
H37_4 C39_4 1_555 1_555
H38_4 C41_4 1_555 1_555
O17_4 Zn10 1_555 1_555
C61_4 O17_4 1_555 1_555
H49_4 C61_4 1_555 1_555
N9_4 C61_4 1_555 1_555
C62_4 N9_4 1_555 1_555
H50_4 C62_4 1_555 1_555
H51_2 C62_4 1_555 1_555
H52_4 C62_4 1_555 1_555
C63_4 N9_4 1_555 1_555
H53_4 C63_4 1_555 1_555
H54_4 C63_4 1_555 1_555
H55_4 C63_4 1_555 1_555
N7_4 C10_4 1_555 1_555
N8_4 C11_4 1_555 1_555
N8_4 C12_4 1_555 1_555
C36_4 O8_4 1_555 1_555

#END
