
###############################################################################
#
# This file contains modified crystal structure data generated from the
# MOF subset of the Cambridge Structural Database (CSD) v543 
# hosted by the Cambridge Crystallographic Data Centre (CCDC).
#
# This work is licensed under the Creative Commons
# Attribution-NonCommercial-ShareAlike 4.0 International License.
# To view a copy of this license, visit
# http://creativecommons.org/licenses/by-nc-sa/4.0/
# or send a letter to
# Creative Commons, PO Box 1866, Mountain View, CA 94042, USA.
#
# CIF created using the CSD Python API on 29 September 2022
# The structure has been converted into the P1 space group
# The structure has a 3D framework
# The original CSD entry AMIMAL is in the monoclinic crystal system
# The framework has been calculated to contain at least 10.0% void space
# The void calculation uses a probe of radius 1.32A, grid spacing 0.4
#
###############################################################################

data_AMIMAL
_chemical_formula_moiety         '(C252 H220 N36 O66 Zn16)n'
_symmetry_cell_setting           triclinic
_symmetry_space_group_name_H-M   'P 1'
_symmetry_Int_Tables_number      1
_space_group_name_Hall           'P 1'
loop_
_symmetry_equiv_pos_site_id
_symmetry_equiv_pos_as_xyz
1 x,y,z
_cell_length_a                   12.2527(2)
_cell_length_b                   31.2515(5)
_cell_length_c                   24.7184(4)
_cell_angle_alpha                90
_cell_angle_beta                 97.023(1)
_cell_angle_gamma                90
_cell_volume                     9394.04
loop_
_atom_site_label
_atom_site_type_symbol
_atom_site_fract_x
_atom_site_fract_y
_atom_site_fract_z
H31 H 0.0155 0.7474 0.6555
C63 C 0.07952(13) 0.35641(5) 0.51520(7)
O16 O 0.13905(9) 0.36324(4) 0.55984(5)
O17 O 0.11478(10) 0.34622(4) 0.47135(5)
Zn8 Zn 0.298600(15) 0.361170(6) 0.566150(8)
Zn11 Zn 0.203040(15) 0.376160(6) 0.418960(8)
Zn4 Zn 0.703040(15) 0.123840(6) 0.918960(8)
O1 O 0.73843(14) 0.07715(5) 0.98726(7)
C1 C 0.7951(2) 0.04516(8) 0.98162(11)
H1 H 0.8537 0.0479 0.9600
H40 H 0.7369 0.0007 0.8222
C34 C 0.59070(17) 0.01692(6) 0.84609(8)
C35 C 0.48326(17) 0.00216(6) 0.85133(9)
H41 H 0.4316 0.0208 0.8647
C39 C 0.62519(19) 0.06083(6) 0.86594(8)
O8 O 0.56001(15) 0.08381(5) 0.88829(7)
O9 O 0.72230(13) 0.07329(5) 0.86244(7)
N11 N 0.67572(10) 0.17836(4) 0.86462(6)
O20 O 0.86575(10) 0.13348(4) 0.92726(5)
O22 O 0.61478(10) 0.15378(4) 0.97135(5)
Zn1 Zn 0.410385(14) 0.740928(6) 0.793470(7)
Zn2 Zn 0.612101(14) 0.729109(6) 0.746230(7)
C3 C 0.8515(4) 0.97136(12) 0.99468(19)
H7 H 0.8473 0.9653 0.9556
N2 N 0.26836(11) 0.75343(4) 0.82882(5)
N3 N 0.18274(11) 0.80260(4) 0.88902(6)
N4 N 0.14769(13) 0.72531(5) 0.89230(7)
N5 N 0.07033(12) 0.76705(5) 0.81313(7)
C4 C 0.28182(12) 0.79350(5) 0.86165(6)
H8 H 0.3467 0.7907 0.8895
H9 H 0.2951 0.8178 0.8375
C5 C 0.16921(13) 0.75852(6) 0.78707(7)
H10 H 0.1816 0.7824 0.7623
H11 H 0.1584 0.7321 0.7650
C6 C 0.24615(14) 0.71732(5) 0.86596(7)
H12 H 0.2366 0.6905 0.8447
H13 H 0.3101 0.7137 0.8942
C7 C 0.08616(13) 0.80613(6) 0.84544(7)
H14 H 0.0189 0.8121 0.8626
H15 H 0.0980 0.8304 0.8211
C8 C 0.16310(15) 0.76484(5) 0.92408(7)
H16 H 0.2266 0.7614 0.9526
H17 H 0.0970 0.7702 0.9424
C9 C 0.05375(15) 0.73121(6) 0.84962(9)
H18 H 0.0425 0.7046 0.8279
N6 N 0.74873(11) 0.72047(4) 0.70623(5)
N7 N 0.82428(10) 0.67836(4) 0.63538(6)
N8 N 0.85064(12) 0.75615(5) 0.63988(6)
N9 N 0.94768(11) 0.71057(5) 0.71024(6)
C10 C 0.73222(12) 0.68292(5) 0.66890(6)
H20 H 0.7266 0.6566 0.6907
H21 H 0.6624 0.6864 0.6446
C11 C 0.75942(14) 0.75970(5) 0.67215(7)
H22 H 0.6903 0.7640 0.6475
H23 H 0.7708 0.7850 0.6963
C12 C 0.85535(13) 0.71433(6) 0.74225(7)
H24 H 0.8680 0.7389 0.7675
H25 H 0.8509 0.6881 0.7644
C13 C 0.83235(14) 0.71910(5) 0.60403(7)
H26 H 0.8937 0.7167 0.5816
H27 H 0.7636 0.7233 0.5791
C14 C 0.92864(13) 0.67377(5) 0.67346(7)
H28 H 0.9249 0.6474 0.6953
H29 H 0.9913 0.6709 0.6519
C15 C 0.95273(14) 0.74961(6) 0.67706(8)
H30 H 0.9655 0.7747 0.7015
O2 O 0.50796(10) 0.74378(4) 0.67597(5)
O3 O 0.35083(10) 0.73779(4) 0.71368(5)
C16 C 0.40450(14) 0.74231(5) 0.67341(7)
C17 C 0.33687(14) 0.74601(6) 0.61880(7)
C18 C 0.38265(14) 0.76053(6) 0.57422(7)
H32 H 0.4583 0.7681 0.5779
C19 C 0.31798(14) 0.76433(6) 0.52245(7)
C20 C 0.36280(15) 0.77948(7) 0.47579(7)
H33 H 0.4374 0.7884 0.4789
C21 C 0.29892(15) 0.78137(7) 0.42625(7)
H34 H 0.3301 0.7911 0.3951
C22 C 0.18659(14) 0.76887(6) 0.42099(7)
C23 C 0.14091(14) 0.75530(6) 0.46583(7)
H35 H 0.0654 0.7476 0.4623
C24 C 0.20507(14) 0.75258(6) 0.51772(7)
C25 C 0.16016(14) 0.73752(7) 0.56419(7)
H36 H 0.0849 0.7295 0.5612
C26 C 0.22409(14) 0.73434(7) 0.61356(7)
H37 H 0.1927 0.7243 0.6445
C27 C 0.11986(14) 0.76978(5) 0.36550(7)
O4 O 0.01960(10) 0.75934(4) 0.36235(5)
O5 O 0.16993(11) 0.78043(5) 0.32619(5)
O6 O 0.62621(11) 0.79278(4) 0.76145(6)
O7 O 0.45516(11) 0.80361(4) 0.78192(5)
C28 C 0.55004(14) 0.81612(5) 0.77496(7)
C29 C 0.57753(14) 0.86255(5) 0.78490(7)
C30 C 0.68495(16) 0.87762(6) 0.77905(9)
H38 H 0.7370 0.8588 0.7662
C31 C 0.71380(16) 0.91894(6) 0.79185(9)
H39 H 0.7859 0.9286 0.7879
C32 C 0.63723(15) 0.94770(6) 0.81107(8)
C33 C 0.66534(16) 0.99034(6) 0.82606(9)
C36 C 0.45349(16) 0.96094(6) 0.83713(9)
H42 H 0.3815 0.9512 0.8411
C37 C 0.52931(14) 0.93280(5) 0.81658(7)
C38 C 0.50129(14) 0.88982(5) 0.80263(7)
H43 H 0.4291 0.8798 0.8056
O10 O 0.54670(11) 0.67017(4) 0.74177(5)
O11 O 0.40847(11) 0.67506(4) 0.79315(5)
C40 C 0.46670(14) 0.65482(5) 0.76294(7)
C41 C 0.43791(14) 0.60902(5) 0.74934(7)
C42 C 0.49730(14) 0.58689(5) 0.71463(7)
H44 H 0.5594 0.6000 0.7020
C43 C 0.46694(14) 0.54487(5) 0.69760(7)
C44 C 0.52383(16) 0.52234(6) 0.65967(8)
H45 H 0.5860 0.5350 0.6465
C45 C 0.48927(17) 0.48237(6) 0.64197(8)
H46 H 0.5271 0.4678 0.6162
C46 C 0.39804(16) 0.46267(6) 0.66170(8)
C47 C 0.34430(16) 0.48324(6) 0.69977(8)
H47 H 0.2854 0.4693 0.7142
C48 C 0.37544(15) 0.52508(6) 0.71790(8)
C49 C 0.31707(17) 0.54824(6) 0.75483(9)
H48 H 0.2567 0.5352 0.7691
C50 C 0.34707(17) 0.58906(6) 0.76985(9)
H49 H 0.3069 0.6042 0.7942
C51 C 0.35456(16) 0.42029(6) 0.63898(8)
O12 O 0.28150(12) 0.40091(5) 0.65956(7)
O13 O 0.39500(12) 0.40679(5) 0.59671(6)
O14 O 0.36575(10) 0.36652(4) 0.42726(5)
O15 O 0.38833(10) 0.33907(4) 0.51133(5)
C52 C 0.42454(13) 0.35436(5) 0.46963(7)
C53 C 0.54608(13) 0.35805(6) 0.46972(7)
C54 C 0.61467(13) 0.35317(6) 0.51746(7)
H50 H 0.5843 0.3474 0.5503
C55 C 0.73038(13) 0.35658(6) 0.51853(7)
C56 C 0.80288(14) 0.35106(7) 0.56727(7)
H51 H 0.7740 0.3465 0.6007
C57 C 0.91433(14) 0.35223(7) 0.56638(7)
H52 H 0.9625 0.3488 0.5992
C58 C 0.95804(13) 0.35861(6) 0.51642(7)
C59 C 0.88969(13) 0.36555(6) 0.46879(7)
H53 H 0.9201 0.3707 0.4359
C60 C 0.77401(14) 0.36501(6) 0.46873(7)
C61 C 0.70094(14) 0.37064(7) 0.42009(7)
H54 H 0.7297 0.3768 0.3870
C62 C 0.58965(14) 0.36732(7) 0.42028(7)
H55 H 0.5416 0.3712 0.3875
Zn6 Zn 0.112101(14) 0.770891(6) 0.246230(7)
Zn7 Zn 0.201400(15) 0.861170(6) 0.933850(8)
Zn9 Zn 0.796960(15) 0.623840(6) 0.581040(8)
N10 N 0.31726(11) 0.30260(4) 0.61098(6)
O18 O 0.51960(10) 0.74066(4) 0.86235(5)
O19 O 0.66993(11) 0.71957(5) 0.82619(5)
H19 H 0.9864 0.7364 0.8671
Zn5 Zn 0.910385(14) 0.759072(6) 0.293470(7)
C20_2 C 0.13720(15) 0.27948(7) 0.02421(7)
H33_2 H 0.0626 0.2884 0.0211
C21_2 C 0.20108(15) 0.28137(7) 0.07375(7)
H34_2 H 0.1699 0.2911 0.1049
C22_2 C 0.31341(14) 0.26887(6) 0.07901(7)
C23_2 C 0.35909(14) 0.25530(6) 0.03417(7)
H35_2 H 0.4346 0.2476 0.0377
C27_2 C 0.38014(14) 0.26978(5) 0.13450(7)
O4_2 O 0.48040(10) 0.25934(4) 0.13765(5)
O5_2 O 0.33007(11) 0.28043(5) 0.17381(5)
Zn5_2 Zn 0.589615(14) 0.259072(6) 0.206530(7)
Zn6_2 Zn 0.387899(14) 0.270891(6) 0.253770(7)
Zn1_2 Zn 0.089615(14) 0.240928(6) 0.706530(7)
N2_2 N 0.23164(11) 0.25343(4) 0.67118(5)
N4_2 N 0.35231(13) 0.22531(5) 0.60770(7)
N5_2 N 0.42967(12) 0.26705(5) 0.68687(7)
C4_2 C 0.21818(12) 0.29350(5) 0.63835(6)
H8_2 H 0.1533 0.2907 0.6105
H9_2 H 0.2049 0.3178 0.6625
C5_2 C 0.33079(13) 0.25852(6) 0.71293(7)
H10_2 H 0.3184 0.2824 0.7377
H11_2 H 0.3416 0.2321 0.7350
C6_2 C 0.25385(14) 0.21732(5) 0.63404(7)
H12_2 H 0.2634 0.1905 0.6553
H13_2 H 0.1899 0.2137 0.6058
C7_2 C 0.41384(13) 0.30613(6) 0.65456(7)
H14_2 H 0.4811 0.3121 0.6374
H15_2 H 0.4020 0.3304 0.6789
C8_2 C 0.33690(15) 0.26484(5) 0.57592(7)
H16_2 H 0.2734 0.2614 0.5474
H17_2 H 0.4030 0.2702 0.5576
C9_2 C 0.44625(15) 0.23121(6) 0.65038(9)
H18_2 H 0.4575 0.2046 0.6721
H19_2 H 0.5136 0.2364 0.6329
O3_2 O 0.14917(10) 0.23779(4) 0.78632(5)
C16_2 C 0.09550(14) 0.24231(5) 0.82659(7)
C17_2 C 0.16313(14) 0.24601(6) 0.88120(7)
C18_2 C 0.11735(14) 0.26053(6) 0.92578(7)
H32_2 H 0.0417 0.2681 0.9221
C19_2 C 0.18202(14) 0.26433(6) 0.97755(7)
C24_2 C 0.29493(14) 0.25258(6) 0.98228(7)
C25_2 C 0.33984(14) 0.23752(7) 0.93581(7)
H36_2 H 0.4151 0.2295 0.9388
C26_2 C 0.27591(14) 0.23434(7) 0.88644(7)
H37_2 H 0.3073 0.2243 0.8555
O7_2 O 0.04484(11) 0.30361(4) 0.71808(5)
C35_2 C 0.01674(17) 0.50216(6) 0.64867(9)
H41_2 H 0.0684 0.5208 0.6353
C36_2 C 0.04651(16) 0.46094(6) 0.66287(9)
H42_2 H 0.1185 0.4512 0.6589
H43_2 H 0.0709 0.3798 0.6944
O11_2 O 0.09153(11) 0.17506(4) 0.70685(5)
C40_2 C 0.03330(14) 0.15482(5) 0.73706(7)
C41_2 C 0.06209(14) 0.10902(5) 0.75066(7)
C42_2 C 0.00270(14) 0.08689(5) 0.78537(7)
C43_2 C 0.03306(14) 0.04487(5) 0.80240(7)
C48_2 C 0.12456(15) 0.02508(6) 0.78210(8)
C49_2 C 0.18293(17) 0.04824(6) 0.74517(9)
H48_2 H 0.2433 0.0352 0.7309
C50_2 C 0.15293(17) 0.08906(6) 0.73015(9)
H49_2 H 0.1931 0.1042 0.7058
O14_2 O 0.13425(10) 0.86652(4) 0.07274(5)
C52_2 C 0.07546(13) 0.85436(5) 0.03037(7)
Zn10 Zn 0.296960(15) 0.876160(6) 0.081040(8)
C45_2 C 0.01073(17) 0.98237(6) 0.85803(8)
C46_2 C 0.10196(16) 0.96267(6) 0.83830(8)
C47_2 C 0.15570(16) 0.98324(6) 0.80023(8)
H47_2 H 0.2146 0.9693 0.7858
C51_2 C 0.14544(16) 0.92029(6) 0.86102(8)
O12_2 O 0.21850(12) 0.90091(5) 0.84044(7)
O13_2 O 0.10500(12) 0.90679(5) 0.90329(6)
O15_2 O 0.11167(10) 0.83907(4) 0.98867(5)
O21 O 0.36095(9) 0.86324(4) 0.94016(5)
Zn2_2 Zn 0.887899(14) 0.229109(6) 0.753770(7)
O1_2 O 0.76157(14) 0.57715(5) 0.51274(7)
C1_2 C 0.7049(2) 0.54516(8) 0.51838(11)
H1_2 H 0.6463 0.5479 0.5400
N1 N 0.7197(3) 0.50769(7) 0.49667(10)
C2 C 0.8048(4) 0.50081(14) 0.4630(2)
H2 H 0.8038 0.4708 0.4513
H3 H 0.8762 0.5074 0.4837
H4 H 0.7928 0.5195 0.4310
C3_2 C 0.6485(4) 0.47136(12) 0.50532(19)
H5 H 0.6728 0.4462 0.4864
H6 H 0.5725 0.4783 0.4909
H7_2 H 0.6527 0.4653 0.5444
N6_2 N 0.75127(11) 0.22047(4) 0.79377(5)
N8_2 N 0.64936(12) 0.25615(5) 0.86012(6)
N9_2 N 0.55232(11) 0.21057(5) 0.78976(6)
C10_2 C 0.76778(12) 0.18292(5) 0.83110(6)
H20_2 H 0.7734 0.1566 0.8093
H21_2 H 0.8376 0.1864 0.8554
C11_2 C 0.74058(14) 0.25970(5) 0.82785(7)
H22_2 H 0.8097 0.2640 0.8525
H23_2 H 0.7292 0.2850 0.8037
C12_2 C 0.64465(13) 0.21433(6) 0.75775(7)
H24_2 H 0.6320 0.2389 0.7325
H25_2 H 0.6491 0.1881 0.7356
C13_2 C 0.66765(14) 0.21910(5) 0.89597(7)
H26_2 H 0.6063 0.2167 0.9184
H27_2 H 0.7364 0.2233 0.9209
C14_2 C 0.57136(13) 0.17377(5) 0.82654(7)
H28_2 H 0.5751 0.1474 0.8047
H29_2 H 0.5087 0.1709 0.8481
C15_2 C 0.54727(14) 0.24961(6) 0.82294(8)
H30_2 H 0.5345 0.2747 0.7985
H31_2 H 0.4845 0.2474 0.8445
O2_2 O 0.99204(10) 0.24378(4) 0.82403(5)
O6_2 O 0.87379(11) 0.29278(4) 0.73855(6)
C28_2 C 0.94996(14) 0.31612(5) 0.72504(7)
C29_2 C 0.92247(14) 0.36255(5) 0.71510(7)
C30_2 C 0.81505(16) 0.37762(6) 0.72095(9)
H38_2 H 0.7630 0.3588 0.7338
C31_2 C 0.78620(16) 0.41894(6) 0.70815(9)
H39_2 H 0.7141 0.4286 0.7121
C32_2 C 0.86277(15) 0.44770(6) 0.68893(8)
C33_2 C 0.83466(16) 0.49034(6) 0.67394(9)
H40_2 H 0.7631 0.5007 0.6778
C34_2 C 0.90930(17) 0.51692(6) 0.65391(8)
C37_2 C 0.97069(14) 0.43280(5) 0.68342(7)
C38_2 C 0.99871(14) 0.38982(5) 0.69737(7)
C39_2 C 0.87481(19) 0.56083(6) 0.63406(8)
O8_2 O 0.93999(15) 0.58381(5) 0.61171(7)
O9_2 O 0.77770(13) 0.57329(5) 0.63756(7)
O10_2 O 0.95330(11) 0.17017(4) 0.75823(5)
H44_2 H 0.9406 0.1000 0.7980
C44_2 C 0.97617(16) 0.02234(6) 0.84033(8)
H45_2 H 0.9140 0.0350 0.8535
O18_2 O 0.98040(10) 0.24066(4) 0.63765(5)
O19_2 O 0.83007(11) 0.21957(5) 0.67381(5)
O20_2 O 0.63425(10) 0.63348(4) 0.57274(5)
O22_2 O 0.88522(10) 0.65378(4) 0.52865(5)
C53_2 C 0.95392(13) 0.85805(6) 0.03028(7)
C59_2 C 0.61031(13) 0.86555(6) 0.03121(7)
H53_2 H 0.5799 0.8707 0.0641
C60_2 C 0.72599(14) 0.86501(6) 0.03127(7)
C61_2 C 0.79906(14) 0.87064(7) 0.07991(7)
H54_2 H 0.7703 0.8768 0.1130
C62_2 C 0.91035(14) 0.86732(7) 0.07972(7)
H55_2 H 0.9584 0.8712 0.1125
O17_2 O 0.38522(10) 0.84622(4) 0.02865(5)
H46_2 H 0.9729 0.9678 0.8838
C54_2 C 0.88533(13) 0.85317(6) 0.98254(7)
H50_2 H 0.9157 0.8474 0.9497
C55_2 C 0.76962(13) 0.85658(6) 0.98147(7)
C56_2 C 0.69712(14) 0.85106(7) 0.93273(7)
H51_2 H 0.7260 0.8465 0.8993
C57_2 C 0.58567(14) 0.85223(7) 0.93362(7)
H52_2 H 0.5375 0.8488 0.9008
C58_2 C 0.54196(13) 0.85861(6) 0.98358(7)
C63_2 C 0.42048(13) 0.85641(5) 0.98480(7)
H19_3 H 0.0136 0.2636 0.1329
Zn3 Zn 0.701400(15) 0.638830(6) 0.433850(8)
C3_3 C 0.1485(4) 0.02864(12) 0.00532(19)
H7_3 H 0.1527 0.0347 0.0444
N2_3 N 0.73164(11) 0.24657(4) 0.17118(5)
N3_2 N 0.81726(11) 0.19740(4) 0.11098(6)
N4_3 N 0.85231(13) 0.27469(5) 0.10770(7)
N5_3 N 0.92967(12) 0.23295(5) 0.18687(7)
C4_3 C 0.71818(12) 0.20650(5) 0.13835(6)
H8_3 H 0.6533 0.2093 0.1105
H9_3 H 0.7049 0.1822 0.1625
C5_3 C 0.83079(13) 0.24148(6) 0.21293(7)
H10_3 H 0.8184 0.2176 0.2377
H11_3 H 0.8416 0.2679 0.2350
C6_3 C 0.75385(14) 0.28268(5) 0.13404(7)
H12_3 H 0.7634 0.3095 0.1553
H13_3 H 0.6899 0.2863 0.1058
C7_3 C 0.91384(13) 0.19387(6) 0.15456(7)
H14_3 H 0.9811 0.1879 0.1374
H15_3 H 0.9020 0.1696 0.1789
C8_3 C 0.83690(15) 0.23516(5) 0.07592(7)
H16_3 H 0.7734 0.2386 0.0474
H17_3 H 0.9030 0.2298 0.0576
C9_3 C 0.94625(15) 0.26879(6) 0.15038(9)
H18_3 H 0.9575 0.2954 0.1721
N6_3 N 0.25127(11) 0.27953(4) 0.29377(5)
N7_2 N 0.17572(10) 0.32164(4) 0.36462(6)
N8_3 N 0.14936(12) 0.24385(5) 0.36012(6)
N9_3 N 0.05232(11) 0.28943(5) 0.28976(6)
C10_3 C 0.26778(12) 0.31708(5) 0.33110(6)
H20_3 H 0.2734 0.3434 0.3093
H21_3 H 0.3376 0.3136 0.3554
C11_3 C 0.24058(14) 0.24030(5) 0.32785(7)
H22_3 H 0.3097 0.2360 0.3525
H23_3 H 0.2292 0.2150 0.3037
C12_3 C 0.14465(13) 0.28567(6) 0.25775(7)
H24_3 H 0.1320 0.2611 0.2325
H25_3 H 0.1491 0.3119 0.2356
C13_3 C 0.16765(14) 0.28090(5) 0.39597(7)
H26_3 H 0.1063 0.2833 0.4184
H27_3 H 0.2364 0.2767 0.4209
C14_3 C 0.07136(13) 0.32623(5) 0.32654(7)
H28_3 H 0.0751 0.3526 0.3047
H29_3 H 0.0087 0.3291 0.3481
C15_3 C 0.04727(14) 0.25039(6) 0.32294(8)
H30_3 H 0.0345 0.2253 0.2985
O2_3 O 0.49204(10) 0.25622(4) 0.32403(5)
O3_3 O 0.64917(10) 0.26221(4) 0.28632(5)
C16_3 C 0.59550(14) 0.25769(5) 0.32659(7)
C17_3 C 0.66313(14) 0.25399(6) 0.38120(7)
C18_3 C 0.61735(14) 0.23947(6) 0.42578(7)
H32_3 H 0.5417 0.2319 0.4221
C19_3 C 0.68202(14) 0.23567(6) 0.47755(7)
C20_3 C 0.63720(15) 0.22052(7) 0.52421(7)
H33_3 H 0.5626 0.2116 0.5211
C21_3 C 0.70108(15) 0.21863(7) 0.57375(7)
H34_3 H 0.6699 0.2089 0.6049
C22_3 C 0.81341(14) 0.23113(6) 0.57901(7)
C23_3 C 0.85909(14) 0.24470(6) 0.53417(7)
H35_3 H 0.9346 0.2524 0.5377
C24_3 C 0.79493(14) 0.24742(6) 0.48228(7)
C25_3 C 0.83984(14) 0.26248(7) 0.43581(7)
H36_3 H 0.9151 0.2705 0.4388
C26_3 C 0.77591(14) 0.26566(7) 0.38644(7)
H37_3 H 0.8073 0.2757 0.3555
C27_3 C 0.88014(14) 0.23022(5) 0.63450(7)
O6_3 O 0.37379(11) 0.20722(4) 0.23855(6)
O7_3 O 0.54484(11) 0.19639(4) 0.21808(5)
C28_3 C 0.44996(14) 0.18388(5) 0.22504(7)
C29_3 C 0.42247(14) 0.13745(5) 0.21510(7)
C30_3 C 0.31505(16) 0.12238(6) 0.22095(9)
H38_3 H 0.2630 0.1412 0.2338
C31_3 C 0.28620(16) 0.08106(6) 0.20815(9)
H39_3 H 0.2141 0.0714 0.2121
C32_3 C 0.36277(15) 0.05230(6) 0.18893(8)
C33_3 C 0.33466(16) 0.00966(6) 0.17394(9)
C36_3 C 0.54651(16) 0.03906(6) 0.16287(9)
H42_3 H 0.6185 0.0488 0.1589
C37_3 C 0.47069(14) 0.06720(5) 0.18342(7)
C38_3 C 0.49871(14) 0.11018(5) 0.19737(7)
H43_3 H 0.5709 0.1202 0.1944
O10_3 O 0.45330(11) 0.32983(4) 0.25823(5)
O11_3 O 0.59153(11) 0.32494(4) 0.20685(5)
C40_3 C 0.53330(14) 0.34518(5) 0.23706(7)
C41_3 C 0.56209(14) 0.39098(5) 0.25066(7)
C42_3 C 0.50270(14) 0.41311(5) 0.28537(7)
H44_3 H 0.4406 0.4000 0.2980
C43_3 C 0.53306(14) 0.45513(5) 0.30240(7)
C44_3 C 0.47617(16) 0.47766(6) 0.34033(8)
H45_3 H 0.4140 0.4650 0.3535
C45_3 C 0.51073(17) 0.51763(6) 0.35803(8)
H46_3 H 0.4729 0.5322 0.3838
C46_3 C 0.60196(16) 0.53733(6) 0.33830(8)
C47_3 C 0.65570(16) 0.51676(6) 0.30023(8)
H47_3 H 0.7146 0.5307 0.2858
C48_3 C 0.62456(15) 0.47492(6) 0.28210(8)
C49_3 C 0.68293(17) 0.45176(6) 0.24517(9)
H48_3 H 0.7433 0.4648 0.2309
C50_3 C 0.65293(17) 0.41094(6) 0.23015(9)
H49_3 H 0.6931 0.3958 0.2058
C51_3 C 0.64544(16) 0.57971(6) 0.36102(8)
O12_3 O 0.71850(12) 0.59909(5) 0.34044(7)
O13_3 O 0.60500(12) 0.59321(5) 0.40329(6)
O15_3 O 0.61167(10) 0.66093(4) 0.48867(5)
C52_3 C 0.57546(13) 0.64564(5) 0.53037(7)
C53_3 C 0.45392(13) 0.64195(6) 0.53028(7)
C54_3 C 0.38533(13) 0.64683(6) 0.48254(7)
H50_3 H 0.4157 0.6526 0.4497
C55_3 C 0.26962(13) 0.64342(6) 0.48147(7)
C56_3 C 0.19712(14) 0.64894(7) 0.43273(7)
H51_3 H 0.2260 0.6535 0.3993
C57_3 C 0.08567(14) 0.64777(7) 0.43362(7)
H52_3 H 0.0375 0.6512 0.4008
C58_3 C 0.04196(13) 0.64139(6) 0.48358(7)
C59_3 C 0.11031(13) 0.63445(6) 0.53121(7)
H53_3 H 0.0799 0.6293 0.5641
C60_3 C 0.22599(14) 0.63499(6) 0.53127(7)
C61_3 C 0.29906(14) 0.62936(7) 0.57991(7)
H54_3 H 0.2703 0.6232 0.6130
C62_3 C 0.41035(14) 0.63268(7) 0.57972(7)
H55_3 H 0.4584 0.6288 0.6125
Zn7_2 Zn 0.798600(15) 0.138830(6) 0.066150(8)
N10_2 N 0.68274(11) 0.69740(4) 0.38902(6)
O21_2 O 0.86095(9) 0.63676(4) 0.44016(5)
O1_3 O 0.26157(14) 0.92285(5) 0.01274(7)
C1_3 C 0.2049(2) 0.95484(8) 0.01838(11)
H1_3 H 0.1463 0.9521 0.0400
H40_3 H 0.2631 0.9993 0.1778
C34_3 C 0.40930(17) 0.98308(6) 0.15391(8)
C35_3 C 0.51674(17) 0.99784(6) 0.14867(9)
H41_3 H 0.5684 0.9792 0.1353
C39_3 C 0.37481(19) 0.93917(6) 0.13406(8)
O8_3 O 0.43999(15) 0.91619(5) 0.11171(7)
O9_3 O 0.27770(13) 0.92671(5) 0.13756(7)
N11_2 N 0.32428(10) 0.82164(4) 0.13538(6)
H31_3 H 0.9845 0.2526 0.3445
C63_3 C 0.92048(13) 0.64359(5) 0.48480(7)
H46_4 H 0.0271 0.0322 0.1162
C54_4 C 0.11467(13) 0.14683(6) 0.01746(7)
H50_4 H 0.0843 0.1526 0.0503
C55_4 C 0.23038(13) 0.14342(6) 0.01853(7)
C56_4 C 0.30288(14) 0.14894(7) 0.06727(7)
H51_4 H 0.2740 0.1535 0.1007
C57_4 C 0.41433(14) 0.14777(7) 0.06638(7)
H52_4 H 0.4625 0.1512 0.0992
C58_4 C 0.45804(13) 0.14139(6) 0.01642(7)
C63_4 C 0.57952(13) 0.14359(5) 0.01520(7)
O16_2 O 0.63905(9) 0.13676(4) 0.05984(5)
C53_4 C 0.04608(13) 0.14195(6) 0.96972(7)
C59_4 C 0.38969(13) 0.13445(6) 0.96879(7)
H53_4 H 0.4201 0.1293 0.9359
C60_4 C 0.27401(14) 0.13499(6) 0.96873(7)
C61_4 C 0.20094(14) 0.12936(7) 0.92009(7)
H54_4 H 0.2297 0.1232 0.8870
C62_4 C 0.08965(14) 0.13268(7) 0.92028(7)
H55_4 H 0.0416 0.1288 0.8875
O1_4 O 0.23843(14) 0.42285(5) 0.48726(7)
C1_4 C 0.2951(2) 0.45484(8) 0.48162(11)
H1_4 H 0.3537 0.4521 0.4600
N1_2 N 0.2803(3) 0.49231(7) 0.50333(10)
C2_2 C 0.1952(4) 0.49919(14) 0.5370(2)
H2_2 H 0.1962 0.5292 0.5487
H3_2 H 0.1238 0.4926 0.5163
H4_2 H 0.2072 0.4805 0.5690
C3_4 C 0.3515(4) 0.52864(12) 0.49468(19)
H5_2 H 0.3272 0.5538 0.5136
H6_2 H 0.4275 0.5217 0.5091
H7_4 H 0.3473 0.5347 0.4556
N6_4 N 0.24873(11) 0.77953(4) 0.20623(5)
N8_4 N 0.35064(12) 0.74385(5) 0.13988(6)
N9_4 N 0.44768(11) 0.78943(5) 0.21024(6)
C10_4 C 0.23222(12) 0.81708(5) 0.16890(6)
H20_4 H 0.2266 0.8434 0.1907
H21_4 H 0.1624 0.8136 0.1446
C11_4 C 0.25942(14) 0.74030(5) 0.17215(7)
H22_4 H 0.1903 0.7360 0.1475
H23_4 H 0.2708 0.7150 0.1963
C12_4 C 0.35535(13) 0.78567(6) 0.24225(7)
H24_4 H 0.3680 0.7611 0.2675
H25_4 H 0.3509 0.8119 0.2644
C13_4 C 0.33235(14) 0.78090(5) 0.10403(7)
H26_4 H 0.3937 0.7833 0.0816
H27_4 H 0.2636 0.7767 0.0791
C14_4 C 0.42864(13) 0.82623(5) 0.17346(7)
H28_4 H 0.4249 0.8526 0.1953
H29_4 H 0.4913 0.8291 0.1519
C15_4 C 0.45273(14) 0.75039(6) 0.17706(8)
H30_4 H 0.4655 0.7253 0.2015
H31_4 H 0.5155 0.7526 0.1555
O2_4 O 0.00796(10) 0.75622(4) 0.17597(5)
O6_4 O 0.12621(11) 0.70722(4) 0.26145(6)
C28_4 C 0.05004(14) 0.68388(5) 0.27496(7)
C29_4 C 0.07753(14) 0.63745(5) 0.28490(7)
C30_4 C 0.18495(16) 0.62238(6) 0.27905(9)
H38_4 H 0.2370 0.6412 0.2662
C31_4 C 0.21380(16) 0.58106(6) 0.29185(9)
H39_4 H 0.2859 0.5714 0.2879
C32_4 C 0.13723(15) 0.55230(6) 0.31107(8)
C33_4 C 0.16534(16) 0.50966(6) 0.32606(9)
H40_4 H 0.2369 0.4993 0.3222
C34_4 C 0.09070(17) 0.48308(6) 0.34609(8)
C37_4 C 0.02931(14) 0.56720(5) 0.31658(7)
C38_4 C 0.00129(14) 0.61018(5) 0.30263(7)
C39_4 C 0.12519(19) 0.43917(6) 0.36594(8)
O8_4 O 0.06001(15) 0.41619(5) 0.38829(7)
O9_4 O 0.22230(13) 0.42671(5) 0.36244(7)
O10_4 O 0.04670(11) 0.82983(4) 0.24177(5)
H44_4 H 0.0594 0.9000 0.2020
C44_4 C 0.02383(16) 0.97766(6) 0.15967(8)
H45_4 H 0.0860 0.9650 0.1465
C45_4 C 0.98927(17) 0.01763(6) 0.14197(8)
C46_4 C 0.89804(16) 0.03733(6) 0.16170(8)
C47_4 C 0.84430(16) 0.01676(6) 0.19977(8)
H47_4 H 0.7854 0.0307 0.2142
C51_4 C 0.85456(16) 0.07971(6) 0.13898(8)
O12_4 O 0.78150(12) 0.09909(5) 0.15956(7)
O13_4 O 0.89500(12) 0.09321(5) 0.09671(6)
O15_4 O 0.88833(10) 0.16093(4) 0.01133(5)
C52_4 C 0.92454(13) 0.14564(5) 0.96963(7)
N2_4 N 0.76836(11) 0.74657(4) 0.32882(5)
N4_4 N 0.64769(13) 0.77469(5) 0.39230(7)
N5_4 N 0.57033(12) 0.73295(5) 0.31313(7)
C4_4 C 0.78182(12) 0.70650(5) 0.36165(6)
H8_4 H 0.8467 0.7093 0.3895
H9_4 H 0.7951 0.6822 0.3375
C5_4 C 0.66921(13) 0.74148(6) 0.28707(7)
H10_4 H 0.6816 0.7176 0.2623
H11_4 H 0.6584 0.7679 0.2650
C6_4 C 0.74615(14) 0.78268(5) 0.36596(7)
H12_4 H 0.7366 0.8095 0.3447
H13_4 H 0.8101 0.7863 0.3942
C7_4 C 0.58616(13) 0.69387(6) 0.34544(7)
H14_4 H 0.5189 0.6879 0.3626
H15_4 H 0.5980 0.6696 0.3211
C8_4 C 0.66310(15) 0.73516(5) 0.42408(7)
H16_4 H 0.7266 0.7386 0.4526
H17_4 H 0.5970 0.7298 0.4424
C9_4 C 0.55375(15) 0.76879(6) 0.34962(9)
H18_4 H 0.5425 0.7954 0.3279
H19_4 H 0.4864 0.7636 0.3671
O3_4 O 0.85083(10) 0.76221(4) 0.21368(5)
C16_4 C 0.90450(14) 0.75769(5) 0.17341(7)
C17_4 C 0.83687(14) 0.75399(6) 0.11880(7)
C18_4 C 0.88265(14) 0.73947(6) 0.07422(7)
H32_4 H 0.9583 0.7319 0.0779
C19_4 C 0.81798(14) 0.73567(6) 0.02245(7)
C24_4 C 0.70507(14) 0.74742(6) 0.01772(7)
C25_4 C 0.66016(14) 0.76248(7) 0.06419(7)
H36_4 H 0.5849 0.7705 0.0612
C26_4 C 0.72409(14) 0.76566(7) 0.11356(7)
H37_4 H 0.6927 0.7757 0.1445
O7_4 O 0.95516(11) 0.69639(4) 0.28192(5)
C35_4 C 0.98326(17) 0.49784(6) 0.35133(9)
H41_4 H 0.9316 0.4792 0.3647
C36_4 C 0.95349(16) 0.53906(6) 0.33713(9)
H42_4 H 0.8815 0.5488 0.3411
H43_4 H 0.9291 0.6202 0.3056
O11_4 O 0.90847(11) 0.82494(4) 0.29315(5)
C40_4 C 0.96670(14) 0.84518(5) 0.26294(7)
C41_4 C 0.93791(14) 0.89098(5) 0.24934(7)
C42_4 C 0.99730(14) 0.91311(5) 0.21463(7)
C43_4 C 0.96694(14) 0.95513(5) 0.19760(7)
C48_4 C 0.87544(15) 0.97492(6) 0.21790(8)
C49_4 C 0.81707(17) 0.95176(6) 0.25483(9)
H48_4 H 0.7567 0.9648 0.2691
C50_4 C 0.84707(17) 0.91094(6) 0.26985(9)
H49_4 H 0.8069 0.8958 0.2942
C20_4 C 0.86280(15) 0.72052(7) 0.97579(7)
H33_4 H 0.9374 0.7116 0.9789
C21_4 C 0.79892(15) 0.71863(7) 0.92625(7)
H34_4 H 0.8301 0.7089 0.8951
C22_4 C 0.68659(14) 0.73113(6) 0.92099(7)
C23_4 C 0.64091(14) 0.74470(6) 0.96583(7)
H35_4 H 0.5654 0.7524 0.9623
C27_4 C 0.61986(14) 0.73022(5) 0.86550(7)
N1_3 N 0.7803(3) 0.00769(7) 0.00333(10)
C2_3 C 0.6952(4) 0.00081(14) 0.0370(2)
H3_3 H 0.6238 0.0074 0.0163
H4_3 H 0.7072 0.0195 0.0690
H2_3 H 0.6962 0.9708 0.0487
H5_3 H 0.8272 0.9462 0.0136
H6_3 H 0.9275 0.9783 0.0091
H2_4 H 0.3038 0.0292 0.9513
H5_4 H 0.1728 0.0538 0.9864
H6_4 H 0.0725 0.0217 0.9909
N1_4 N 0.2197(3) 0.99231(7) 0.99667(10)
C2_4 C 0.3048(4) 0.99919(14) 0.9630(2)
H3_4 H 0.3762 0.9926 0.9837
H4_4 H 0.2928 0.9805 0.9310
loop_
_geom_bond_atom_site_label_1
_geom_bond_atom_site_label_2
_geom_bond_site_symmetry_1
_geom_bond_site_symmetry_2
O16 C63 1_555 1_555
O17 C63 1_555 1_555
Zn8 O16 1_555 1_555
Zn11 O17 1_555 1_555
Zn4 O1 1_555 1_555
O1 C1 1_555 1_555
C1 H1 1_555 1_555
C35 C34 1_555 1_555
H41 C35 1_555 1_555
C39 C34 1_555 1_555
O8 Zn4 1_555 1_555
O9 Zn4 1_555 1_555
N11 Zn4 1_555 1_555
O20 Zn4 1_555 1_555
O22 Zn4 1_555 1_555
C39 O8 1_555 1_555
C39 O9 1_555 1_555
Zn1 N2 1_555 1_555
Zn2 N6 1_555 1_555
Zn8 O13 1_555 1_555
H7 C3 1_555 1_555
N2 C4 1_555 1_555
N3 C4 1_555 1_555
N4 C6 1_555 1_555
N5 C5 1_555 1_555
C4 H8 1_555 1_555
H9 C4 1_555 1_555
C5 N2 1_555 1_555
H10 C5 1_555 1_555
H11 C5 1_555 1_555
C6 N2 1_555 1_555
H12 C6 1_555 1_555
H13 C6 1_555 1_555
C7 N3 1_555 1_555
H14 C7 1_555 1_555
H15 C7 1_555 1_555
C8 N3 1_555 1_555
H16 C8 1_555 1_555
H17 C8 1_555 1_555
C9 N4 1_555 1_555
H18 C9 1_555 1_555
N6 C10 1_555 1_555
N7 C10 1_555 1_555
N8 C11 1_555 1_555
N9 C12 1_555 1_555
C10 H20 1_555 1_555
H21 C10 1_555 1_555
C11 N6 1_555 1_555
H22 C11 1_555 1_555
H23 C11 1_555 1_555
C12 N6 1_555 1_555
H24 C12 1_555 1_555
H25 C12 1_555 1_555
C13 N7 1_555 1_555
H26 C13 1_555 1_555
H27 C13 1_555 1_555
C14 N7 1_555 1_555
H28 C14 1_555 1_555
H29 C14 1_555 1_555
C15 N8 1_555 1_555
H30 C15 1_555 1_555
O2 Zn2 1_555 1_555
O3 Zn1 1_555 1_555
C16 O2 1_555 1_555
C17 C16 1_555 1_555
C18 C17 1_555 1_555
H32 C18 1_555 1_555
C19 C18 1_555 1_555
C20 C19 1_555 1_555
H33 C20 1_555 1_555
C21 C20 1_555 1_555
H34 C21 1_555 1_555
C22 C21 1_555 1_555
C23 C22 1_555 1_555
H35 C23 1_555 1_555
C24 C19 1_555 1_555
C25 C24 1_555 1_555
H36 C25 1_555 1_555
C26 C17 1_555 1_555
H37 C26 1_555 1_555
C27 C22 1_555 1_555
O4 C27 1_555 1_555
O5 C27 1_555 1_555
O6 Zn2 1_555 1_555
O7 Zn1 1_555 1_555
C28 O6 1_555 1_555
C29 C28 1_555 1_555
C30 C29 1_555 1_555
H38 C30 1_555 1_555
C31 C30 1_555 1_555
H39 C31 1_555 1_555
C32 C31 1_555 1_555
C33 C32 1_555 1_555
H42 C36 1_555 1_555
C37 C32 1_555 1_555
C38 C29 1_555 1_555
H43 C38 1_555 1_555
O10 Zn2 1_555 1_555
O11 Zn1 1_555 1_555
C40 O10 1_555 1_555
C41 C40 1_555 1_555
C42 C41 1_555 1_555
H44 C42 1_555 1_555
C43 C42 1_555 1_555
C44 C43 1_555 1_555
H45 C44 1_555 1_555
C45 C44 1_555 1_555
H46 C45 1_555 1_555
C46 C45 1_555 1_555
C47 C46 1_555 1_555
H47 C47 1_555 1_555
C48 C43 1_555 1_555
C49 C48 1_555 1_555
H48 C49 1_555 1_555
C50 C41 1_555 1_555
H49 C50 1_555 1_555
C51 C46 1_555 1_555
O12 C51 1_555 1_555
O13 C51 1_555 1_555
O14 C52 1_555 1_555
O15 Zn8 1_555 1_555
C52 O15 1_555 1_555
C53 C52 1_555 1_555
C54 C53 1_555 1_555
H50 C54 1_555 1_555
C55 C54 1_555 1_555
C56 C55 1_555 1_555
H51 C56 1_555 1_555
C57 C56 1_555 1_555
H52 C57 1_555 1_555
C58 C57 1_555 1_555
C59 C58 1_555 1_555
H53 C59 1_555 1_555
C60 C55 1_555 1_555
C61 C60 1_555 1_555
H54 C61 1_555 1_555
C62 C53 1_555 1_555
H55 C62 1_555 1_555
Zn6 O5 1_555 1_555
Zn7 N3 1_555 1_555
Zn9 N7 1_555 1_555
Zn11 O14 1_555 1_555
N10 Zn8 1_555 1_555
O18 Zn1 1_555 1_555
O19 Zn2 1_555 1_555
N4 C8 1_555 1_555
N5 C7 1_555 1_555
N5 C9 1_555 1_555
N8 C13 1_555 1_555
N9 C14 1_555 1_555
N9 C15 1_555 1_555
O3 C16 1_555 1_555
C23 C24 1_555 1_555
C25 C26 1_555 1_555
O7 C28 1_555 1_555
C36 C37 1_555 1_555
C37 C38 1_555 1_555
O11 C40 1_555 1_555
C47 C48 1_555 1_555
C49 C50 1_555 1_555
C59 C60 1_555 1_555
C61 C62 1_555 1_555
H33_2 C20_2 1_555 1_555
C21_2 C20_2 1_555 1_555
H34_2 C21_2 1_555 1_555
C22_2 C21_2 1_555 1_555
C23_2 C22_2 1_555 1_555
H35_2 C23_2 1_555 1_555
C27_2 C22_2 1_555 1_555
O4_2 C27_2 1_555 1_555
O5_2 C27_2 1_555 1_555
Zn5_2 O4_2 1_555 1_555
Zn6_2 O5_2 1_555 1_555
Zn1_2 N2_2 1_555 1_555
N2_2 C4_2 1_555 1_555
N10 C4_2 1_555 1_555
N4_2 C6_2 1_555 1_555
N5_2 C5_2 1_555 1_555
C4_2 H8_2 1_555 1_555
H9_2 C4_2 1_555 1_555
C5_2 N2_2 1_555 1_555
H10_2 C5_2 1_555 1_555
H11_2 C5_2 1_555 1_555
C6_2 N2_2 1_555 1_555
H12_2 C6_2 1_555 1_555
H13_2 C6_2 1_555 1_555
C7_2 N10 1_555 1_555
H14_2 C7_2 1_555 1_555
H15_2 C7_2 1_555 1_555
C8_2 N10 1_555 1_555
H16_2 C8_2 1_555 1_555
H17_2 C8_2 1_555 1_555
C9_2 N4_2 1_555 1_555
H18_2 C9_2 1_555 1_555
H19_2 C9_2 1_555 1_555
O3_2 Zn1_2 1_555 1_555
C17_2 C16_2 1_555 1_555
C18_2 C17_2 1_555 1_555
H32_2 C18_2 1_555 1_555
C19_2 C18_2 1_555 1_555
C24_2 C19_2 1_555 1_555
C25_2 C24_2 1_555 1_555
H36_2 C25_2 1_555 1_555
C26_2 C17_2 1_555 1_555
H37_2 C26_2 1_555 1_555
O7_2 Zn1_2 1_555 1_555
H41_2 C35_2 1_555 1_555
C36_2 C35_2 1_555 1_555
H42_2 C36_2 1_555 1_555
O11_2 Zn1_2 1_555 1_555
C41_2 C40_2 1_555 1_555
C42_2 C41_2 1_555 1_555
C43_2 C42_2 1_555 1_555
C48_2 C43_2 1_555 1_555
C49_2 C48_2 1_555 1_555
H48_2 C49_2 1_555 1_555
C50_2 C41_2 1_555 1_555
H49_2 C50_2 1_555 1_555
N4_2 C8_2 1_555 1_555
N5_2 C7_2 1_555 1_555
N5_2 C9_2 1_555 1_555
O3_2 C16_2 1_555 1_555
C25_2 C26_2 1_555 1_555
O11_2 C40_2 1_555 1_555
C49_2 C50_2 1_555 1_555
O14_2 C52_2 1_555 1_555
Zn10 O14_2 1_555 1_555
Zn7 O13_2 1_555 1_555
C46_2 C45_2 1_555 1_555
C47_2 C46_2 1_555 1_555
H47_2 C47_2 1_555 1_555
C51_2 C46_2 1_555 1_555
O12_2 C51_2 1_555 1_555
O13_2 C51_2 1_555 1_555
O15_2 Zn7 1_555 1_555
O21 Zn7 1_555 1_555
Zn2_2 N6_2 1_555 1_555
Zn9 O1_2 1_555 1_555
O1_2 C1_2 1_555 1_555
C1_2 H1_2 1_555 1_555
N1 C1_2 1_555 1_555
C2 N1 1_555 1_555
H2 C2 1_555 1_555
H3 C2 1_555 1_555
H4 C2 1_555 1_555
C3_2 N1 1_555 1_555
H5 C3_2 1_555 1_555
H6 C3_2 1_555 1_555
H7_2 C3_2 1_555 1_555
N6_2 C10_2 1_555 1_555
N11 C10_2 1_555 1_555
N8_2 C11_2 1_555 1_555
N9_2 C12_2 1_555 1_555
C10_2 H20_2 1_555 1_555
H21_2 C10_2 1_555 1_555
C11_2 N6_2 1_555 1_555
H22_2 C11_2 1_555 1_555
H23_2 C11_2 1_555 1_555
C12_2 N6_2 1_555 1_555
H24_2 C12_2 1_555 1_555
H25_2 C12_2 1_555 1_555
C13_2 N11 1_555 1_555
H26_2 C13_2 1_555 1_555
H27_2 C13_2 1_555 1_555
C14_2 N11 1_555 1_555
H28_2 C14_2 1_555 1_555
H29_2 C14_2 1_555 1_555
C15_2 N8_2 1_555 1_555
H30_2 C15_2 1_555 1_555
H31_2 C15_2 1_555 1_555
O2_2 Zn2_2 1_555 1_555
O6_2 Zn2_2 1_555 1_555
C28_2 O6_2 1_555 1_555
C29_2 C28_2 1_555 1_555
C30_2 C29_2 1_555 1_555
H38_2 C30_2 1_555 1_555
C31_2 C30_2 1_555 1_555
H39_2 C31_2 1_555 1_555
C32_2 C31_2 1_555 1_555
C33_2 C32_2 1_555 1_555
H40_2 C33_2 1_555 1_555
C34_2 C33_2 1_555 1_555
C37_2 C32_2 1_555 1_555
C38_2 C29_2 1_555 1_555
C39_2 C34_2 1_555 1_555
O8_2 Zn9 1_555 1_555
O9_2 Zn9 1_555 1_555
O10_2 Zn2_2 1_555 1_555
H45_2 C44_2 1_555 1_555
O19_2 Zn2_2 1_555 1_555
O20_2 Zn9 1_555 1_555
O22_2 Zn9 1_555 1_555
N8_2 C13_2 1_555 1_555
N9_2 C14_2 1_555 1_555
N9_2 C15_2 1_555 1_555
C37_2 C38_2 1_555 1_555
C39_2 O8_2 1_555 1_555
C39_2 O9_2 1_555 1_555
H53_2 C59_2 1_555 1_555
C61_2 C60_2 1_555 1_555
H54_2 C61_2 1_555 1_555
C62_2 C53_2 1_555 1_555
H55_2 C62_2 1_555 1_555
Zn10 O17_2 1_555 1_555
C59_2 C60_2 1_555 1_555
C61_2 C62_2 1_555 1_555
H50_2 C54_2 1_555 1_555
C55_2 C54_2 1_555 1_555
C56_2 C55_2 1_555 1_555
H51_2 C56_2 1_555 1_555
C57_2 C56_2 1_555 1_555
H52_2 C57_2 1_555 1_555
C58_2 C57_2 1_555 1_555
C63_2 C58_2 1_555 1_555
O21 C63_2 1_555 1_555
Zn5_2 N2_3 1_555 1_555
Zn6_2 N6_3 1_555 1_555
Zn3 O13_3 1_555 1_555
H7_3 C3_3 1_555 1_555
N2_3 C4_3 1_555 1_555
N3_2 C4_3 1_555 1_555
N4_3 C6_3 1_555 1_555
N5_3 C5_3 1_555 1_555
C4_3 H8_3 1_555 1_555
H9_3 C4_3 1_555 1_555
C5_3 N2_3 1_555 1_555
H10_3 C5_3 1_555 1_555
H11_3 C5_3 1_555 1_555
C6_3 N2_3 1_555 1_555
H12_3 C6_3 1_555 1_555
H13_3 C6_3 1_555 1_555
C7_3 N3_2 1_555 1_555
H14_3 C7_3 1_555 1_555
H15_3 C7_3 1_555 1_555
C8_3 N3_2 1_555 1_555
H16_3 C8_3 1_555 1_555
H17_3 C8_3 1_555 1_555
C9_3 N4_3 1_555 1_555
H18_3 C9_3 1_555 1_555
N6_3 C10_3 1_555 1_555
N7_2 C10_3 1_555 1_555
N8_3 C11_3 1_555 1_555
N9_3 C12_3 1_555 1_555
C10_3 H20_3 1_555 1_555
H21_3 C10_3 1_555 1_555
C11_3 N6_3 1_555 1_555
H22_3 C11_3 1_555 1_555
H23_3 C11_3 1_555 1_555
C12_3 N6_3 1_555 1_555
H24_3 C12_3 1_555 1_555
H25_3 C12_3 1_555 1_555
C13_3 N7_2 1_555 1_555
H26_3 C13_3 1_555 1_555
H27_3 C13_3 1_555 1_555
C14_3 N7_2 1_555 1_555
H28_3 C14_3 1_555 1_555
H29_3 C14_3 1_555 1_555
C15_3 N8_3 1_555 1_555
H30_3 C15_3 1_555 1_555
O2_3 Zn6_2 1_555 1_555
O3_3 Zn5_2 1_555 1_555
C16_3 O2_3 1_555 1_555
C17_3 C16_3 1_555 1_555
C18_3 C17_3 1_555 1_555
H32_3 C18_3 1_555 1_555
C19_3 C18_3 1_555 1_555
C20_3 C19_3 1_555 1_555
H33_3 C20_3 1_555 1_555
C21_3 C20_3 1_555 1_555
H34_3 C21_3 1_555 1_555
C22_3 C21_3 1_555 1_555
C23_3 C22_3 1_555 1_555
H35_3 C23_3 1_555 1_555
C24_3 C19_3 1_555 1_555
C25_3 C24_3 1_555 1_555
H36_3 C25_3 1_555 1_555
C26_3 C17_3 1_555 1_555
H37_3 C26_3 1_555 1_555
C27_3 C22_3 1_555 1_555
O18_2 C27_3 1_555 1_555
O19_2 C27_3 1_555 1_555
O6_3 Zn6_2 1_555 1_555
O7_3 Zn5_2 1_555 1_555
C28_3 O6_3 1_555 1_555
C29_3 C28_3 1_555 1_555
C30_3 C29_3 1_555 1_555
H38_3 C30_3 1_555 1_555
C31_3 C30_3 1_555 1_555
H39_3 C31_3 1_555 1_555
C32_3 C31_3 1_555 1_555
C33_3 C32_3 1_555 1_555
H42_3 C36_3 1_555 1_555
C37_3 C32_3 1_555 1_555
C38_3 C29_3 1_555 1_555
H43_3 C38_3 1_555 1_555
O10_3 Zn6_2 1_555 1_555
O11_3 Zn5_2 1_555 1_555
C40_3 O10_3 1_555 1_555
C41_3 C40_3 1_555 1_555
C42_3 C41_3 1_555 1_555
H44_3 C42_3 1_555 1_555
C43_3 C42_3 1_555 1_555
C44_3 C43_3 1_555 1_555
H45_3 C44_3 1_555 1_555
C45_3 C44_3 1_555 1_555
H46_3 C45_3 1_555 1_555
C46_3 C45_3 1_555 1_555
C47_3 C46_3 1_555 1_555
H47_3 C47_3 1_555 1_555
C48_3 C43_3 1_555 1_555
C49_3 C48_3 1_555 1_555
H48_3 C49_3 1_555 1_555
C50_3 C41_3 1_555 1_555
H49_3 C50_3 1_555 1_555
C51_3 C46_3 1_555 1_555
O12_3 C51_3 1_555 1_555
O13_3 C51_3 1_555 1_555
O20_2 C52_3 1_555 1_555
O15_3 Zn3 1_555 1_555
C52_3 O15_3 1_555 1_555
C53_3 C52_3 1_555 1_555
C54_3 C53_3 1_555 1_555
H50_3 C54_3 1_555 1_555
C55_3 C54_3 1_555 1_555
C56_3 C55_3 1_555 1_555
H51_3 C56_3 1_555 1_555
C57_3 C56_3 1_555 1_555
H52_3 C57_3 1_555 1_555
C58_3 C57_3 1_555 1_555
C59_3 C58_3 1_555 1_555
H53_3 C59_3 1_555 1_555
C60_3 C55_3 1_555 1_555
C61_3 C60_3 1_555 1_555
H54_3 C61_3 1_555 1_555
C62_3 C53_3 1_555 1_555
H55_3 C62_3 1_555 1_555
Zn7_2 N3_2 1_555 1_555
Zn11 N7_2 1_555 1_555
N10_2 Zn3 1_555 1_555
O21_2 Zn3 1_555 1_555
N4_3 C8_3 1_555 1_555
N5_3 C7_3 1_555 1_555
N5_3 C9_3 1_555 1_555
N8_3 C13_3 1_555 1_555
N9_3 C14_3 1_555 1_555
N9_3 C15_3 1_555 1_555
O3_3 C16_3 1_555 1_555
C23_3 C24_3 1_555 1_555
C25_3 C26_3 1_555 1_555
O7_3 C28_3 1_555 1_555
C36_3 C37_3 1_555 1_555
C37_3 C38_3 1_555 1_555
O11_3 C40_3 1_555 1_555
C47_3 C48_3 1_555 1_555
C49_3 C50_3 1_555 1_555
C59_3 C60_3 1_555 1_555
C61_3 C62_3 1_555 1_555
Zn10 O1_3 1_555 1_555
O1_3 C1_3 1_555 1_555
C1_3 H1_3 1_555 1_555
C35_3 C34_3 1_555 1_555
H41_3 C35_3 1_555 1_555
C39_3 C34_3 1_555 1_555
O8_3 Zn10 1_555 1_555
O9_3 Zn10 1_555 1_555
N11_2 Zn10 1_555 1_555
C39_3 O8_3 1_555 1_555
C39_3 O9_3 1_555 1_555
O21_2 C63_3 1_555 1_555
O22_2 C63_3 1_555 1_555
H50_4 C54_4 1_555 1_555
C55_4 C54_4 1_555 1_555
C56_4 C55_4 1_555 1_555
H51_4 C56_4 1_555 1_555
C57_4 C56_4 1_555 1_555
H52_4 C57_4 1_555 1_555
C58_4 C57_4 1_555 1_555
C63_4 C58_4 1_555 1_555
O16_2 C63_4 1_555 1_555
Zn7_2 O16_2 1_555 1_555
H53_4 C59_4 1_555 1_555
C61_4 C60_4 1_555 1_555
H54_4 C61_4 1_555 1_555
C62_4 C53_4 1_555 1_555
H55_4 C62_4 1_555 1_555
C59_4 C60_4 1_555 1_555
C61_4 C62_4 1_555 1_555
Zn6 N6_4 1_555 1_555
Zn11 O1_4 1_555 1_555
O1_4 C1_4 1_555 1_555
C1_4 H1_4 1_555 1_555
N1_2 C1_4 1_555 1_555
C2_2 N1_2 1_555 1_555
H2_2 C2_2 1_555 1_555
H3_2 C2_2 1_555 1_555
H4_2 C2_2 1_555 1_555
C3_4 N1_2 1_555 1_555
H5_2 C3_4 1_555 1_555
H6_2 C3_4 1_555 1_555
H7_4 C3_4 1_555 1_555
N6_4 C10_4 1_555 1_555
N11_2 C10_4 1_555 1_555
N8_4 C11_4 1_555 1_555
N9_4 C12_4 1_555 1_555
C10_4 H20_4 1_555 1_555
H21_4 C10_4 1_555 1_555
C11_4 N6_4 1_555 1_555
H22_4 C11_4 1_555 1_555
H23_4 C11_4 1_555 1_555
C12_4 N6_4 1_555 1_555
H24_4 C12_4 1_555 1_555
H25_4 C12_4 1_555 1_555
C13_4 N11_2 1_555 1_555
H26_4 C13_4 1_555 1_555
H27_4 C13_4 1_555 1_555
C14_4 N11_2 1_555 1_555
H28_4 C14_4 1_555 1_555
H29_4 C14_4 1_555 1_555
C15_4 N8_4 1_555 1_555
H30_4 C15_4 1_555 1_555
H31_4 C15_4 1_555 1_555
O2_4 Zn6 1_555 1_555
O6_4 Zn6 1_555 1_555
C28_4 O6_4 1_555 1_555
C29_4 C28_4 1_555 1_555
C30_4 C29_4 1_555 1_555
H38_4 C30_4 1_555 1_555
C31_4 C30_4 1_555 1_555
H39_4 C31_4 1_555 1_555
C32_4 C31_4 1_555 1_555
C33_4 C32_4 1_555 1_555
H40_4 C33_4 1_555 1_555
C34_4 C33_4 1_555 1_555
C37_4 C32_4 1_555 1_555
C38_4 C29_4 1_555 1_555
C39_4 C34_4 1_555 1_555
O8_4 Zn11 1_555 1_555
O9_4 Zn11 1_555 1_555
O10_4 Zn6 1_555 1_555
H45_4 C44_4 1_555 1_555
N8_4 C13_4 1_555 1_555
N9_4 C14_4 1_555 1_555
N9_4 C15_4 1_555 1_555
C37_4 C38_4 1_555 1_555
C39_4 O8_4 1_555 1_555
C39_4 O9_4 1_555 1_555
Zn7_2 O13_4 1_555 1_555
C46_4 C45_4 1_555 1_555
C47_4 C46_4 1_555 1_555
H47_4 C47_4 1_555 1_555
C51_4 C46_4 1_555 1_555
O12_4 C51_4 1_555 1_555
O13_4 C51_4 1_555 1_555
O15_4 Zn7_2 1_555 1_555
O20 C52_4 1_555 1_555
Zn5 N2_4 1_555 1_555
N2_4 C4_4 1_555 1_555
N10_2 C4_4 1_555 1_555
N4_4 C6_4 1_555 1_555
N5_4 C5_4 1_555 1_555
C4_4 H8_4 1_555 1_555
H9_4 C4_4 1_555 1_555
C5_4 N2_4 1_555 1_555
H10_4 C5_4 1_555 1_555
H11_4 C5_4 1_555 1_555
C6_4 N2_4 1_555 1_555
H12_4 C6_4 1_555 1_555
H13_4 C6_4 1_555 1_555
C7_4 N10_2 1_555 1_555
H14_4 C7_4 1_555 1_555
H15_4 C7_4 1_555 1_555
C8_4 N10_2 1_555 1_555
H16_4 C8_4 1_555 1_555
H17_4 C8_4 1_555 1_555
C9_4 N4_4 1_555 1_555
H18_4 C9_4 1_555 1_555
H19_4 C9_4 1_555 1_555
O3_4 Zn5 1_555 1_555
C17_4 C16_4 1_555 1_555
C18_4 C17_4 1_555 1_555
H32_4 C18_4 1_555 1_555
C19_4 C18_4 1_555 1_555
C24_4 C19_4 1_555 1_555
C25_4 C24_4 1_555 1_555
H36_4 C25_4 1_555 1_555
C26_4 C17_4 1_555 1_555
H37_4 C26_4 1_555 1_555
O7_4 Zn5 1_555 1_555
H41_4 C35_4 1_555 1_555
C36_4 C35_4 1_555 1_555
H42_4 C36_4 1_555 1_555
O11_4 Zn5 1_555 1_555
C41_4 C40_4 1_555 1_555
C42_4 C41_4 1_555 1_555
C43_4 C42_4 1_555 1_555
C48_4 C43_4 1_555 1_555
C49_4 C48_4 1_555 1_555
H48_4 C49_4 1_555 1_555
C50_4 C41_4 1_555 1_555
H49_4 C50_4 1_555 1_555
N4_4 C8_4 1_555 1_555
N5_4 C7_4 1_555 1_555
N5_4 C9_4 1_555 1_555
O3_4 C16_4 1_555 1_555
C25_4 C26_4 1_555 1_555
O11_4 C40_4 1_555 1_555
C49_4 C50_4 1_555 1_555
H33_4 C20_4 1_555 1_555
C21_4 C20_4 1_555 1_555
H34_4 C21_4 1_555 1_555
C22_4 C21_4 1_555 1_555
C23_4 C22_4 1_555 1_555
H35_4 C23_4 1_555 1_555
C27_4 C22_4 1_555 1_555
O18 C27_4 1_555 1_555
O19 C27_4 1_555 1_555
C2_3 N1_3 1_555 1_555
H3_3 C2_3 1_555 1_555
H4_3 C2_3 1_555 1_555
C2_4 N1_4 1_555 1_555
H3_4 C2_4 1_555 1_555
H4_4 C2_4 1_555 1_555

#END
