
###############################################################################
#
# This file contains modified crystal structure data generated from the
# MOF subset of the Cambridge Structural Database (CSD) v543 
# hosted by the Cambridge Crystallographic Data Centre (CCDC).
#
# This work is licensed under the Creative Commons
# Attribution-NonCommercial-ShareAlike 4.0 International License.
# To view a copy of this license, visit
# http://creativecommons.org/licenses/by-nc-sa/4.0/
# or send a letter to
# Creative Commons, PO Box 1866, Mountain View, CA 94042, USA.
#
# CIF created using the CSD Python API on 29 September 2022
# The structure has been converted into the P1 space group
# The structure has a 3D framework
# The original CSD entry AMIMEP is in the monoclinic crystal system
# The framework has been calculated to contain at least 10.0% void space
# The void calculation uses a probe of radius 1.32A, grid spacing 0.4
#
###############################################################################

data_AMIMEP
_chemical_formula_moiety         '(C252 H220 N36 O68 Zn16)n'
_symmetry_cell_setting           triclinic
_symmetry_space_group_name_H-M   'P 1'
_symmetry_Int_Tables_number      1
_space_group_name_Hall           'P 1'
loop_
_symmetry_equiv_pos_site_id
_symmetry_equiv_pos_as_xyz
1 x,y,z
_cell_length_a                   24.6659(7)
_cell_length_b                   31.3085(12)
_cell_length_c                   12.2751(5)
_cell_angle_alpha                90
_cell_angle_beta                 96.306(1)
_cell_angle_gamma                90
_cell_volume                     9422.12
loop_
_atom_site_label
_atom_site_type_symbol
_atom_site_fract_x
_atom_site_fract_y
_atom_site_fract_z
C22 C 0.05017(17) 0.00124(13) 0.1085(3)
H35 H 0.0626 0.0130 0.0444
C25 C 0.01575(16) 0.02440(12) 0.1648(3)
O5 O 0.01654(13) 0.08514(8) 0.0471(2)
Zn1 Zn 0.138766(16) 0.744858(13) 0.18676(3)
Zn2 Zn 0.088562(16) 0.755778(13) 0.38620(3)
N1 N 0.36045(17) 0.50608(11) 0.0562(3)
C1 C 0.34141(17) 0.54494(13) 0.0672(4)
H1 H 0.3220 0.5504 0.1284
C3 C 0.3542(2) 0.47236(16) 0.1366(5)
H5 H 0.3711 0.4460 0.1136
H6 H 0.3153 0.4673 0.1414
H7 H 0.3719 0.4812 0.2084
O1 O 0.34716(12) 0.57510(9) 0.0027(2)
C4 C 0.02029(15) 0.73164(11) 0.5569(3)
H9 H 0.0450 0.7069 0.5714
C6 C 0.02853(15) 0.82526(12) 0.6960(3)
H12 H 0.0496 0.8506 0.6773
H13 H 0.0106 0.8322 0.7621
C7 C 0.03402(16) 0.75157(12) 0.7454(3)
H14 H 0.0157 0.7574 0.8117
H15 H 0.0590 0.7271 0.7617
C8 C 0.09279(15) 0.78022(12) 0.6235(3)
H16 H 0.1182 0.7560 0.6389
H17 H 0.1144 0.8054 0.6057
C9 C 0.01458(16) 0.80645(12) 0.5059(3)
H18 H 0.0354 0.8320 0.4875
N2 N 0.05258(12) 0.76946(9) 0.5266(3)
N4 N 0.06599(12) 0.78930(10) 0.7205(2)
C11 C 0.20969(15) 0.69462(11) 0.0591(3)
H22 H 0.2339 0.6947 0.1290
H23 H 0.1840 0.6704 0.0611
C12 C 0.21800(15) 0.77126(12) 0.0441(3)
H24 H 0.1978 0.7986 0.0369
H25 H 0.2426 0.7722 0.1135
H30 H 0.3053 0.7272 0.0356
N6 N 0.17828(12) 0.73522(10) 0.0489(3)
C16 C 0.10862(15) 0.83115(12) 0.2462(3)
C17 C 0.09679(17) 0.87667(12) 0.2144(3)
C18 C 0.06542(16) 0.90128(12) 0.2757(3)
H32 H 0.0542 0.8902 0.3417
C19 C 0.04957(17) 0.94327(12) 0.2412(3)
C20 C 0.01477(17) 0.96851(13) 0.2997(3)
H33 H 0.0033 0.9581 0.3662
C23 C 0.10119(18) 0.93376(13) 0.0844(4)
H36 H 0.1144 0.9446 0.0201
C24 C 0.11459(17) 0.89320(13) 0.1184(4)
H37 H 0.1363 0.8760 0.0765
C27 C 0.06789(16) 0.95979(12) 0.1439(3)
O2 O 0.13459(11) 0.80937(8) 0.1838(2)
O3 O 0.09011(12) 0.81707(9) 0.3307(2)
C28 C 0.11812(16) 0.67008(13) 0.3298(4)
C29 C 0.13117(16) 0.62399(12) 0.3524(3)
C30 C 0.15491(17) 0.59967(12) 0.2762(3)
H38 H 0.1606 0.6120 0.2076
C31 C 0.17081(16) 0.55712(12) 0.2983(3)
C32 C 0.16232(18) 0.53870(13) 0.4003(4)
C33 C 0.1381(2) 0.56447(15) 0.4775(4)
H39 H 0.1323 0.5528 0.5467
C34 C 0.12297(19) 0.60544(14) 0.4540(4)
H40 H 0.1067 0.6219 0.5068
C35 C 0.19624(17) 0.53274(13) 0.2214(3)
H41 H 0.2020 0.5449 0.1527
C36 C 0.21258(17) 0.49184(13) 0.2451(4)
H42 H 0.2291 0.4756 0.1924
C37 C 0.18062(19) 0.49619(13) 0.4229(4)
H43 H 0.1758 0.4834 0.4914
C38 C 0.20510(17) 0.47363(13) 0.3466(4)
C39 C 0.22759(18) 0.42937(14) 0.3746(5)
O6 O 0.13014(12) 0.68450(9) 0.2399(2)
O7 O 0.09676(12) 0.69098(8) 0.4008(2)
O8 O 0.24910(14) 0.40870(10) 0.3051(3)
O9 O 0.22592(14) 0.41608(10) 0.4715(3)
C40 C 0.01823(16) 0.74432(12) 0.1794(4)
O10 O 0.05865(11) 0.74374(10) 0.1264(2)
O11 O 0.01892(11) 0.74709(9) 0.2812(2)
O18 O 0.20902(11) 0.74840(9) 0.2925(2)
O19 O 0.16830(11) 0.75972(9) 0.4435(2)
O23 O 0.29353(11) 0.63154(9) 0.1451(2)
Zn6 Zn 0.287107(17) 0.372552(14) 0.48191(3)
Zn4 Zn 0.287107(17) 0.627448(14) 0.98191(3)
C2 C 0.3913(3) 0.49580(19) 0.9654(5)
H2 H 0.4023 0.4657 0.9700
H3 H 0.4239 0.5139 0.9690
H4 H 0.3686 0.5009 0.8960
C10 C 0.14222(16) 0.73433(13) 0.9425(3)
H20 H 0.1160 0.7104 0.9430
H21 H 0.1211 0.7612 0.9337
C13 C 0.20541(16) 0.68912(12) 0.8627(3)
H26 H 0.2270 0.6855 0.8000
H27 H 0.1796 0.6649 0.8621
C14 C 0.21334(17) 0.76459(13) 0.8512(3)
H28 H 0.1928 0.7918 0.8414
H29 H 0.2352 0.7614 0.7887
C15 C 0.28072(15) 0.72641(11) 0.9663(3)
H31 H 0.3035 0.7232 0.9052
N7 N 0.24298(13) 0.68841(9) 0.9676(3)
N8 N 0.17465(13) 0.72920(11) 0.8499(3)
N9 N 0.25020(14) 0.76668(10) 0.9531(3)
O21 O 0.22592(14) 0.58392(10) 0.9715(3)
O22 O 0.33925(11) 0.65448(8) 0.8903(2)
Zn3 Zn 0.932660(17) 0.131280(13) 0.07069(3)
C21 C 0.99770(17) 0.00746(12) 0.2610(3)
H34 H 0.9732 0.0235 0.2994
C26 C 0.99544(17) 0.06707(12) 0.1215(3)
O4 O 0.95513(11) 0.08253(9) 0.1646(2)
N10 N 0.98593(12) 0.18435(9) 0.1032(3)
O20 O 0.87911(11) 0.15609(8) 0.1618(2)
C52 C 0.83706(16) 0.14287(12) 0.3229(3)
C53 C 0.83690(16) 0.14295(12) 0.2016(3)
C54 C 0.78688(16) 0.14103(13) 0.3686(4)
H50 H 0.7536 0.1399 0.3218
C55 C 0.78613(17) 0.14081(13) 0.4792(4)
H51 H 0.7522 0.1402 0.5093
C56 C 0.83582(17) 0.14188(13) 0.6652(3)
H52 H 0.8023 0.1418 0.6967
C57 C 0.88321(16) 0.14370(11) 0.8535(3)
C58 C 0.83507(16) 0.14142(13) 0.5493(3)
C59 C 0.88597(16) 0.14232(13) 0.5043(3)
C60 C 0.88525(16) 0.14321(13) 0.3896(3)
H53 H 0.9187 0.1441 0.3580
C61 C 0.93542(17) 0.14224(14) 0.5762(4)
H54 H 0.9694 0.1422 0.5467
C62 C 0.88422(16) 0.14249(12) 0.7329(3)
C63 C 0.93443(17) 0.14223(14) 0.6867(3)
H55 H 0.9678 0.1420 0.7335
O14 O 0.83925(11) 0.15448(8) 0.8903(2)
O15 O 0.92671(11) 0.13411(9) 0.9115(2)
O16 O 0.79353(11) 0.13154(9) 0.1451(2)
Zn9 Zn 0.787107(17) 0.127448(14) 0.98191(3)
H8 H 0.9929 0.7242 0.4947
C5 C 0.95589(15) 0.77644(12) 0.6324(3)
H10 H 0.9373 0.7823 0.6983
H11 H 0.9276 0.7693 0.5715
H19 H 0.9874 0.8000 0.4425
N3 N 0.99249(13) 0.74004(10) 0.6539(3)
N5 N 0.98593(12) 0.81565(9) 0.6032(3)
C41 C 0.96351(16) 0.74116(12) 0.1114(3)
C42 C 0.91601(16) 0.74640(13) 0.1585(3)
H44 H 0.9175 0.7507 0.2354
C43 C 0.86492(16) 0.74544(12) 0.0939(3)
C44 C 0.81487(16) 0.75066(14) 0.1414(3)
H45 H 0.8155 0.7549 0.2181
C51 C 0.76649(16) 0.74956(15) 0.0768(3)
H49 H 0.7335 0.7518 0.1096
Zn5 Zn 0.932660(17) 0.868720(13) 0.57069(3)
C45 C 0.81148(16) 0.74053(12) 0.9143(3)
H46 H 0.8099 0.7376 0.8370
C46 C 0.86300(16) 0.73990(12) 0.9793(3)
C47 C 0.91226(16) 0.73328(13) 0.9328(3)
H47 H 0.9115 0.7282 0.8563
C48 C 0.96134(16) 0.73413(13) 0.9978(3)
H48 H 0.9942 0.7299 0.9656
C49 C 0.76422(16) 0.74522(12) 0.9617(3)
C50 C 0.71063(16) 0.74542(12) 0.8935(3)
O12 O 0.66830(11) 0.74028(9) 0.9435(2)
O13 O 0.70902(11) 0.75160(9) 0.7925(2)
Zn7 Zn 0.588562(16) 0.744222(13) 0.88620(3)
Zn8 Zn 0.638766(16) 0.755142(13) 0.68676(3)
Zn1_2 Zn 0.138766(16) 0.255142(13) 0.68676(3)
Zn2_2 Zn 0.088562(16) 0.244222(13) 0.88620(3)
N1_2 N 0.36045(17) 0.49392(11) 0.5562(3)
C1_2 C 0.34141(17) 0.45506(13) 0.5672(4)
H1_2 H 0.3220 0.4496 0.6284
C2_2 C 0.3913(3) 0.50420(19) 0.4654(5)
H2_2 H 0.4023 0.5343 0.4700
H3_2 H 0.4239 0.4861 0.4690
H4_2 H 0.3686 0.4991 0.3960
C3_2 C 0.3542(2) 0.52764(16) 0.6366(5)
H5_2 H 0.3711 0.5540 0.6136
H6_2 H 0.3153 0.5327 0.6414
H7_2 H 0.3719 0.5188 0.7084
O1_2 O 0.34716(12) 0.42490(9) 0.5027(2)
H18_2 H 0.0354 0.1680 0.9875
C10_2 C 0.14222(16) 0.26567(13) 0.4425(3)
H20_2 H 0.1160 0.2896 0.4430
H21_2 H 0.1211 0.2388 0.4337
C11_2 C 0.20969(15) 0.30538(11) 0.5591(3)
H22_2 H 0.2339 0.3053 0.6290
H23_2 H 0.1840 0.3296 0.5611
C12_2 C 0.21800(15) 0.22874(12) 0.5441(3)
H24_2 H 0.1978 0.2014 0.5369
H25_2 H 0.2426 0.2278 0.6135
C13_2 C 0.20541(16) 0.31088(12) 0.3627(3)
H26_2 H 0.2270 0.3145 0.3000
H27_2 H 0.1796 0.3351 0.3621
C14_2 C 0.21334(17) 0.23541(13) 0.3512(3)
H28_2 H 0.1928 0.2082 0.3414
H29_2 H 0.2352 0.2386 0.2887
C15_2 C 0.28072(15) 0.27359(11) 0.4663(3)
H30_2 H 0.3053 0.2728 0.5356
H31_2 H 0.3035 0.2768 0.4052
N6_2 N 0.17828(12) 0.26478(10) 0.5489(3)
N7_2 N 0.24298(13) 0.31159(9) 0.4676(3)
N8_2 N 0.17465(13) 0.27080(11) 0.3499(3)
N9_2 N 0.25020(14) 0.23332(10) 0.4531(3)
C16_2 C 0.10862(15) 0.16885(12) 0.7462(3)
C17_2 C 0.09679(17) 0.12333(12) 0.7144(3)
C18_2 C 0.06542(16) 0.09872(12) 0.7757(3)
H32_2 H 0.0542 0.1098 0.8417
C19_2 C 0.04957(17) 0.05673(12) 0.7412(3)
C20_2 C 0.01477(17) 0.03149(13) 0.7997(3)
H33_2 H 0.0033 0.0419 0.8662
C23_2 C 0.10119(18) 0.06624(13) 0.5844(4)
H36_2 H 0.1144 0.0554 0.5201
C24_2 C 0.11459(17) 0.10680(13) 0.6184(4)
H37_2 H 0.1363 0.1240 0.5765
C27_2 C 0.06789(16) 0.04021(12) 0.6439(3)
O2_2 O 0.13459(11) 0.19063(8) 0.6838(2)
O3_2 O 0.09011(12) 0.18293(9) 0.8307(2)
C28_2 C 0.11812(16) 0.32992(13) 0.8298(4)
C29_2 C 0.13117(16) 0.37601(12) 0.8524(3)
C30_2 C 0.15491(17) 0.40033(12) 0.7762(3)
H38_2 H 0.1606 0.3880 0.7076
C31_2 C 0.17081(16) 0.44288(12) 0.7983(3)
C32_2 C 0.16232(18) 0.46130(13) 0.9003(4)
C33_2 C 0.1381(2) 0.43553(15) 0.9775(4)
C34_2 C 0.12297(19) 0.39456(14) 0.9540(4)
C35_2 C 0.19624(17) 0.46726(13) 0.7214(3)
H41_2 H 0.2020 0.4551 0.6527
C36_2 C 0.21258(17) 0.50816(13) 0.7451(4)
H42_2 H 0.2291 0.5244 0.6924
C37_2 C 0.18062(19) 0.50381(13) 0.9229(4)
H43_2 H 0.1758 0.5166 0.9914
C38_2 C 0.20510(17) 0.52637(13) 0.8466(4)
C39_2 C 0.22759(18) 0.57063(14) 0.8746(5)
O6_2 O 0.13014(12) 0.31550(9) 0.7399(2)
O7_2 O 0.09676(12) 0.30902(8) 0.9008(2)
O8_2 O 0.24910(14) 0.59130(10) 0.8051(3)
C40_2 C 0.01823(16) 0.25568(12) 0.6794(4)
O10_2 O 0.05865(11) 0.25626(10) 0.6264(2)
O11_2 O 0.01892(11) 0.25291(9) 0.7812(2)
O18_2 O 0.20902(11) 0.25160(9) 0.7925(2)
O19_2 O 0.16830(11) 0.24028(9) 0.9435(2)
O22_2 O 0.33925(11) 0.34552(8) 0.3903(2)
O23_2 O 0.29353(11) 0.36846(9) 0.6451(2)
C5_2 C 0.95589(15) 0.22356(12) 0.1324(3)
H10_2 H 0.9373 0.2177 0.1983
H11_2 H 0.9276 0.2307 0.0715
N3_2 N 0.99249(13) 0.25996(10) 0.1539(3)
H8_2 H 0.9929 0.2758 0.9947
H19_2 H 0.9874 0.2000 0.9425
C41_2 C 0.96351(16) 0.25884(12) 0.6114(3)
C42_2 C 0.91601(16) 0.25360(13) 0.6585(3)
H44_2 H 0.9175 0.2493 0.7354
C43_2 C 0.86492(16) 0.25456(12) 0.5939(3)
C44_2 C 0.81487(16) 0.24934(14) 0.6414(3)
H45_2 H 0.8155 0.2451 0.7181
C45_2 C 0.81148(16) 0.25947(12) 0.4143(3)
H46_2 H 0.8099 0.2624 0.3370
C46_2 C 0.86300(16) 0.26010(12) 0.4793(3)
C47_2 C 0.91226(16) 0.26672(13) 0.4328(3)
H47_2 H 0.9115 0.2718 0.3563
C48_2 C 0.96134(16) 0.26587(13) 0.4978(3)
H48_2 H 0.9942 0.2701 0.4656
C49_2 C 0.76422(16) 0.25478(12) 0.4617(3)
C50_2 C 0.71063(16) 0.25458(12) 0.3935(3)
C51_2 C 0.76649(16) 0.25044(15) 0.5768(3)
H49_2 H 0.7335 0.2482 0.6096
O12_2 O 0.66830(11) 0.25972(9) 0.4435(2)
O13_2 O 0.70902(11) 0.24840(9) 0.2925(2)
Zn7_2 Zn 0.588562(16) 0.255778(13) 0.38620(3)
Zn8_2 Zn 0.638766(16) 0.244858(13) 0.18676(3)
C21_2 C 0.99770(17) 0.99254(12) 0.7610(3)
H34_2 H 0.9732 0.9765 0.7994
C26_2 C 0.99544(17) 0.93293(12) 0.6215(3)
O4_2 O 0.95513(11) 0.91747(9) 0.6646(2)
H51_2 H 0.7522 0.8598 0.0093
C56_2 C 0.83582(17) 0.85812(13) 0.1652(3)
H52_2 H 0.8023 0.8582 0.1967
C57_2 C 0.88321(16) 0.85630(11) 0.3535(3)
C58_2 C 0.83507(16) 0.85858(13) 0.0493(3)
C59_2 C 0.88597(16) 0.85768(13) 0.0043(3)
C61_2 C 0.93542(17) 0.85776(14) 0.0762(4)
H54_2 H 0.9694 0.8578 0.0467
C62_2 C 0.88422(16) 0.85751(12) 0.2329(3)
C63_2 C 0.93443(17) 0.85777(14) 0.1867(3)
H55_2 H 0.9678 0.8580 0.2335
O14_2 O 0.83925(11) 0.84552(8) 0.3903(2)
O15_2 O 0.92671(11) 0.86589(9) 0.4115(2)
O20_2 O 0.87911(11) 0.84391(8) 0.6618(2)
Zn9_2 Zn 0.787107(17) 0.872552(14) 0.48191(3)
C52_2 C 0.83706(16) 0.85713(12) 0.8229(3)
C53_2 C 0.83690(16) 0.85705(12) 0.7016(3)
C54_2 C 0.78688(16) 0.85897(13) 0.8686(4)
H50_2 H 0.7536 0.8601 0.8218
C55_2 C 0.78613(17) 0.85919(13) 0.9792(4)
C60_2 C 0.88525(16) 0.85679(13) 0.8896(3)
H53_2 H 0.9187 0.8559 0.8580
O16_2 O 0.79353(11) 0.86846(9) 0.6451(2)
Zn3_2 Zn 0.432660(17) 0.631280(13) 0.07069(3)
N1_3 N 0.86045(17) 0.00608(11) 0.0562(3)
C1_3 C 0.84141(17) 0.04494(13) 0.0672(4)
H1_3 H 0.8220 0.0504 0.1284
O1_3 O 0.84716(12) 0.07510(9) 0.0027(2)
C4_2 C 0.52029(15) 0.23164(11) 0.5569(3)
H8_3 H 0.4929 0.2242 0.4947
H9_2 H 0.5450 0.2069 0.5714
C5_3 C 0.45589(15) 0.27644(12) 0.6324(3)
H10_3 H 0.4373 0.2823 0.6983
H11_3 H 0.4276 0.2693 0.5715
C6_2 C 0.52853(15) 0.32526(12) 0.6960(3)
H12_2 H 0.5496 0.3506 0.6773
H13_2 H 0.5106 0.3322 0.7621
C7_2 C 0.53402(16) 0.25157(12) 0.7454(3)
H14_2 H 0.5157 0.2574 0.8117
H15_2 H 0.5590 0.2271 0.7617
C8_2 C 0.59279(15) 0.28022(12) 0.6235(3)
H16_2 H 0.6182 0.2560 0.6389
H17_2 H 0.6144 0.3054 0.6057
C9_2 C 0.51458(16) 0.30645(12) 0.5059(3)
H18_3 H 0.5354 0.3320 0.4875
H19_3 H 0.4874 0.3000 0.4425
N2_2 N 0.55258(12) 0.26946(9) 0.5266(3)
N3_3 N 0.49249(13) 0.24004(10) 0.6539(3)
N4_2 N 0.56599(12) 0.28930(10) 0.7205(2)
N5_2 N 0.48593(12) 0.31565(9) 0.6032(3)
C11_3 C 0.70969(15) 0.19462(11) 0.0591(3)
H22_3 H 0.7339 0.1947 0.1290
H23_3 H 0.6840 0.1704 0.0611
C12_3 C 0.71800(15) 0.27126(12) 0.0441(3)
H24_3 H 0.6978 0.2986 0.0369
H25_3 H 0.7426 0.2722 0.1135
H30_3 H 0.8053 0.2272 0.0356
N6_3 N 0.67828(12) 0.23522(10) 0.0489(3)
C16_3 C 0.60862(15) 0.33115(12) 0.2462(3)
C17_3 C 0.59679(17) 0.37667(12) 0.2144(3)
C18_3 C 0.56542(16) 0.40128(12) 0.2757(3)
H32_3 H 0.5542 0.3902 0.3417
C19_3 C 0.54957(17) 0.44327(12) 0.2412(3)
C20_3 C 0.51477(17) 0.46851(13) 0.2997(3)
H33_3 H 0.5033 0.4581 0.3662
C21_3 C 0.49770(17) 0.50746(12) 0.2610(3)
H34_3 H 0.4732 0.5235 0.2994
C22_2 C 0.55017(17) 0.50124(13) 0.1085(3)
H35_2 H 0.5626 0.5130 0.0444
C23_3 C 0.60119(18) 0.43376(13) 0.0844(4)
H36_3 H 0.6144 0.4446 0.0201
C24_3 C 0.61459(17) 0.39320(13) 0.1184(4)
H37_3 H 0.6363 0.3760 0.0765
C25_2 C 0.51575(16) 0.52440(12) 0.1648(3)
C26_3 C 0.49544(17) 0.56707(12) 0.1215(3)
C27_3 C 0.56789(16) 0.45979(12) 0.1439(3)
O2_3 O 0.63459(11) 0.30937(8) 0.1838(2)
O3_3 O 0.59011(12) 0.31707(9) 0.3307(2)
O4_3 O 0.45513(11) 0.58253(9) 0.1646(2)
O5_2 O 0.51654(13) 0.58514(8) 0.0471(2)
C28_3 C 0.61812(16) 0.17008(13) 0.3298(4)
C29_3 C 0.63117(16) 0.12399(12) 0.3524(3)
C30_3 C 0.65491(17) 0.09967(12) 0.2762(3)
H38_3 H 0.6606 0.1120 0.2076
C31_3 C 0.67081(16) 0.05712(12) 0.2983(3)
C32_3 C 0.66232(18) 0.03870(13) 0.4003(4)
C33_3 C 0.6381(2) 0.06447(15) 0.4775(4)
H39_2 H 0.6323 0.0528 0.5467
C34_3 C 0.62297(19) 0.10544(14) 0.4540(4)
H40_2 H 0.6067 0.1219 0.5068
C35_3 C 0.69624(17) 0.03274(13) 0.2214(3)
H41_3 H 0.7020 0.0449 0.1527
O6_3 O 0.63014(12) 0.18450(9) 0.2399(2)
O7_3 O 0.59676(12) 0.19098(8) 0.4008(2)
C40_3 C 0.51823(16) 0.24432(12) 0.1794(4)
C41_3 C 0.46351(16) 0.24116(12) 0.1114(3)
C42_3 C 0.41601(16) 0.24640(13) 0.1585(3)
H44_3 H 0.4175 0.2507 0.2354
C43_3 C 0.36492(16) 0.24544(12) 0.0939(3)
C44_3 C 0.31487(16) 0.25066(14) 0.1414(3)
H45_3 H 0.3155 0.2549 0.2181
C51_3 C 0.26649(16) 0.24956(15) 0.0768(3)
H49_3 H 0.2335 0.2518 0.1096
O10_3 O 0.55865(11) 0.24374(10) 0.1264(2)
O11_3 O 0.51892(11) 0.24709(9) 0.2812(2)
N10_2 N 0.48593(12) 0.68435(9) 0.1032(3)
O20_3 O 0.37911(11) 0.65609(8) 0.1618(2)
Zn5_2 Zn 0.432660(17) 0.368720(13) 0.57069(3)
H3_3 H 0.9239 0.0139 0.9690
H4_3 H 0.8686 0.0009 0.8960
C10_3 C 0.64222(16) 0.23433(13) 0.9425(3)
H20_3 H 0.6160 0.2104 0.9430
H21_3 H 0.6211 0.2612 0.9337
C13_3 C 0.70541(16) 0.18912(12) 0.8627(3)
H26_3 H 0.7270 0.1855 0.8000
H27_3 H 0.6796 0.1649 0.8621
C14_3 C 0.71334(17) 0.26459(13) 0.8512(3)
H28_3 H 0.6928 0.2918 0.8414
H29_3 H 0.7352 0.2614 0.7887
C15_3 C 0.78072(15) 0.22641(11) 0.9663(3)
H31_3 H 0.8035 0.2232 0.9052
N7_3 N 0.74298(13) 0.18841(9) 0.9676(3)
N8_3 N 0.67465(13) 0.22920(11) 0.8499(3)
N9_3 N 0.75020(14) 0.26668(10) 0.9531(3)
C45_3 C 0.31148(16) 0.24053(12) 0.9143(3)
H46_3 H 0.3099 0.2376 0.8370
C46_3 C 0.36300(16) 0.23990(12) 0.9793(3)
C47_3 C 0.41226(16) 0.23328(13) 0.9328(3)
H47_3 H 0.4115 0.2282 0.8563
C48_3 C 0.46134(16) 0.23413(13) 0.9978(3)
H48_3 H 0.4942 0.2299 0.9656
C49_3 C 0.26422(16) 0.24522(12) 0.9617(3)
C50_3 C 0.21063(16) 0.24542(12) 0.8935(3)
C52_3 C 0.33706(16) 0.64287(12) 0.3229(3)
C53_3 C 0.33690(16) 0.64295(12) 0.2016(3)
C54_3 C 0.28688(16) 0.64103(13) 0.3686(4)
H50_3 H 0.2536 0.6399 0.3218
C55_3 C 0.28613(17) 0.64081(13) 0.4792(4)
H51_3 H 0.2522 0.6402 0.5093
C56_3 C 0.33582(17) 0.64188(13) 0.6652(3)
H52_3 H 0.3023 0.6418 0.6967
C57_3 C 0.38321(16) 0.64370(11) 0.8535(3)
C58_3 C 0.33507(16) 0.64142(13) 0.5493(3)
C59_3 C 0.38597(16) 0.64232(13) 0.5043(3)
C60_3 C 0.38525(16) 0.64321(13) 0.3896(3)
H53_3 H 0.4187 0.6441 0.3580
C61_3 C 0.43542(17) 0.64224(14) 0.5762(4)
H54_3 H 0.4694 0.6422 0.5467
C62_3 C 0.38422(16) 0.64249(12) 0.7329(3)
C63_3 C 0.43443(17) 0.64223(14) 0.6867(3)
H55_3 H 0.4678 0.6420 0.7335
O15_3 O 0.42671(11) 0.63411(9) 0.9115(2)
O21_2 O 0.72592(14) 0.08392(10) 0.9715(3)
C3_3 C 0.8542(2) 0.97236(16) 0.1366(5)
H5_3 H 0.8711 0.9460 0.1136
H6_3 H 0.8153 0.9673 0.1414
H7_3 H 0.8719 0.9812 0.2084
C36_3 C 0.71258(17) 0.99184(13) 0.2451(4)
H42_3 H 0.7291 0.9756 0.1924
C37_3 C 0.68062(19) 0.99619(13) 0.4229(4)
H43_3 H 0.6758 0.9834 0.4914
C38_3 C 0.70510(17) 0.97363(13) 0.3466(4)
C39_3 C 0.72759(18) 0.92937(14) 0.3746(5)
O8_3 O 0.74910(14) 0.90870(10) 0.3051(3)
O9_2 O 0.72592(14) 0.91608(10) 0.4715(3)
C2_3 C 0.8913(3) 0.00420(19) 0.4654(5)
H2_3 H 0.9023 0.0343 0.4700
C3_4 C 0.8542(2) 0.02764(16) 0.6366(5)
H5_4 H 0.8711 0.0540 0.6136
H6_4 H 0.8153 0.0327 0.6414
H7_4 H 0.8719 0.0188 0.7084
C36_4 C 0.71258(17) 0.00816(13) 0.7451(4)
H42_4 H 0.7291 0.0244 0.6924
C37_4 C 0.68062(19) 0.00381(13) 0.9229(4)
H43_4 H 0.6758 0.0166 0.9914
C38_4 C 0.70510(17) 0.02637(13) 0.8466(4)
C39_4 C 0.72759(18) 0.07063(14) 0.8746(5)
O8_4 O 0.74910(14) 0.09130(10) 0.8051(3)
C4_3 C 0.52029(15) 0.76836(11) 0.0569(3)
H9_3 H 0.5450 0.7931 0.0714
C5_4 C 0.45589(15) 0.72356(12) 0.1324(3)
H10_4 H 0.4373 0.7177 0.1983
H11_4 H 0.4276 0.7307 0.0715
C6_3 C 0.52853(15) 0.67474(12) 0.1960(3)
H12_3 H 0.5496 0.6494 0.1773
H13_3 H 0.5106 0.6678 0.2621
C7_3 C 0.53402(16) 0.74843(12) 0.2454(3)
H14_3 H 0.5157 0.7426 0.3117
H15_3 H 0.5590 0.7729 0.2617
C8_3 C 0.59279(15) 0.71978(12) 0.1235(3)
H16_3 H 0.6182 0.7440 0.1389
H17_3 H 0.6144 0.6946 0.1057
C9_3 C 0.51458(16) 0.69355(12) 0.0059(3)
N2_3 N 0.55258(12) 0.73054(9) 0.0266(3)
N3_4 N 0.49249(13) 0.75996(10) 0.1539(3)
N4_3 N 0.56599(12) 0.71070(10) 0.2205(2)
H39_3 H 0.6323 0.9472 0.0467
H40_3 H 0.6067 0.8781 0.0068
N1_4 N 0.86045(17) 0.99392(11) 0.5562(3)
C1_4 C 0.84141(17) 0.95506(13) 0.5672(4)
H1_4 H 0.8220 0.9496 0.6284
H3_4 H 0.9239 0.9861 0.4690
H4_4 H 0.8686 0.9991 0.3960
O1_4 O 0.84716(12) 0.92490(9) 0.5027(2)
H8_4 H 0.4929 0.7758 0.9947
H18_4 H 0.5354 0.6680 0.9875
H19_4 H 0.4874 0.7000 0.9425
C10_4 C 0.64222(16) 0.76567(13) 0.4425(3)
H20_4 H 0.6160 0.7896 0.4430
H21_4 H 0.6211 0.7388 0.4337
C11_4 C 0.70969(15) 0.80538(11) 0.5591(3)
H22_4 H 0.7339 0.8053 0.6290
H23_4 H 0.6840 0.8296 0.5611
C12_4 C 0.71800(15) 0.72874(12) 0.5441(3)
H24_4 H 0.6978 0.7014 0.5369
H25_4 H 0.7426 0.7278 0.6135
C13_4 C 0.70541(16) 0.81088(12) 0.3627(3)
H26_4 H 0.7270 0.8145 0.3000
H27_4 H 0.6796 0.8351 0.3621
C14_4 C 0.71334(17) 0.73541(13) 0.3512(3)
H28_4 H 0.6928 0.7082 0.3414
H29_4 H 0.7352 0.7386 0.2887
C15_4 C 0.78072(15) 0.77359(11) 0.4663(3)
H30_4 H 0.8053 0.7728 0.5356
H31_4 H 0.8035 0.7768 0.4052
N6_4 N 0.67828(12) 0.76478(10) 0.5489(3)
N7_4 N 0.74298(13) 0.81159(9) 0.4676(3)
N8_4 N 0.67465(13) 0.77080(11) 0.3499(3)
N9_4 N 0.75020(14) 0.73332(10) 0.4531(3)
C16_4 C 0.60862(15) 0.66885(12) 0.7462(3)
C17_4 C 0.59679(17) 0.62333(12) 0.7144(3)
C18_4 C 0.56542(16) 0.59872(12) 0.7757(3)
H32_4 H 0.5542 0.6098 0.8417
C19_4 C 0.54957(17) 0.55673(12) 0.7412(3)
C20_4 C 0.51477(17) 0.53149(13) 0.7997(3)
H33_4 H 0.5033 0.5419 0.8662
C21_4 C 0.49770(17) 0.49254(12) 0.7610(3)
H34_4 H 0.4732 0.4765 0.7994
C22_3 C 0.55017(17) 0.49876(13) 0.6085(3)
H35_3 H 0.5626 0.4870 0.5444
C23_4 C 0.60119(18) 0.56624(13) 0.5844(4)
H36_4 H 0.6144 0.5554 0.5201
C24_4 C 0.61459(17) 0.60680(13) 0.6184(4)
H37_4 H 0.6363 0.6240 0.5765
C25_3 C 0.51575(16) 0.47560(12) 0.6648(3)
C26_4 C 0.49544(17) 0.43293(12) 0.6215(3)
C27_4 C 0.56789(16) 0.54021(12) 0.6439(3)
O2_4 O 0.63459(11) 0.69063(8) 0.6838(2)
O3_4 O 0.59011(12) 0.68293(9) 0.8307(2)
O4_4 O 0.45513(11) 0.41747(9) 0.6646(2)
O5_3 O 0.51654(13) 0.41486(8) 0.5471(2)
C28_4 C 0.61812(16) 0.82992(13) 0.8298(4)
C29_4 C 0.63117(16) 0.87601(12) 0.8524(3)
C30_4 C 0.65491(17) 0.90033(12) 0.7762(3)
H38_4 H 0.6606 0.8880 0.7076
C31_4 C 0.67081(16) 0.94288(12) 0.7983(3)
C32_4 C 0.66232(18) 0.96130(13) 0.9003(4)
C33_4 C 0.6381(2) 0.93553(15) 0.9775(4)
C34_4 C 0.62297(19) 0.89456(14) 0.9540(4)
C35_4 C 0.69624(17) 0.96726(13) 0.7214(3)
H41_4 H 0.7020 0.9551 0.6527
O6_4 O 0.63014(12) 0.81550(9) 0.7399(2)
O7_4 O 0.59676(12) 0.80902(8) 0.9008(2)
C40_4 C 0.51823(16) 0.75568(12) 0.6794(4)
C41_4 C 0.46351(16) 0.75884(12) 0.6114(3)
C42_4 C 0.41601(16) 0.75360(13) 0.6585(3)
H44_4 H 0.4175 0.7493 0.7354
C43_4 C 0.36492(16) 0.75456(12) 0.5939(3)
C44_4 C 0.31487(16) 0.74934(14) 0.6414(3)
H45_4 H 0.3155 0.7451 0.7181
C45_4 C 0.31148(16) 0.75947(12) 0.4143(3)
H46_4 H 0.3099 0.7624 0.3370
C46_4 C 0.36300(16) 0.76010(12) 0.4793(3)
C47_4 C 0.41226(16) 0.76672(13) 0.4328(3)
H47_4 H 0.4115 0.7718 0.3563
C48_4 C 0.46134(16) 0.76587(13) 0.4978(3)
H48_4 H 0.4942 0.7701 0.4656
C49_4 C 0.26422(16) 0.75478(12) 0.4617(3)
C50_4 C 0.21063(16) 0.75458(12) 0.3935(3)
C51_4 C 0.26649(16) 0.75044(15) 0.5768(3)
H49_4 H 0.2335 0.7482 0.6096
O10_4 O 0.55865(11) 0.75626(10) 0.6264(2)
O11_4 O 0.51892(11) 0.75291(9) 0.7812(2)
H51_4 H 0.2522 0.3598 0.0093
C56_4 C 0.33582(17) 0.35812(13) 0.1652(3)
H52_4 H 0.3023 0.3582 0.1967
C57_4 C 0.38321(16) 0.35630(11) 0.3535(3)
C58_4 C 0.33507(16) 0.35858(13) 0.0493(3)
C59_4 C 0.38597(16) 0.35768(13) 0.0043(3)
C61_4 C 0.43542(17) 0.35776(14) 0.0762(4)
H54_4 H 0.4694 0.3578 0.0467
C62_4 C 0.38422(16) 0.35751(12) 0.2329(3)
C63_4 C 0.43443(17) 0.35777(14) 0.1867(3)
H55_4 H 0.4678 0.3580 0.2335
O15_4 O 0.42671(11) 0.36589(9) 0.4115(2)
O20_4 O 0.37911(11) 0.34391(8) 0.6618(2)
C52_4 C 0.33706(16) 0.35713(12) 0.8229(3)
C53_4 C 0.33690(16) 0.35705(12) 0.7016(3)
C54_4 C 0.28688(16) 0.35897(13) 0.8686(4)
H50_4 H 0.2536 0.3601 0.8218
C55_4 C 0.28613(17) 0.35919(13) 0.9792(4)
C60_4 C 0.38525(16) 0.35679(13) 0.8896(3)
H53_4 H 0.4187 0.3559 0.8580
C4_4 C 0.02029(15) 0.26836(11) 0.0569(3)
H9_4 H 0.0450 0.2931 0.0714
C6_4 C 0.02853(15) 0.17474(12) 0.1960(3)
H12_4 H 0.0496 0.1494 0.1773
H13_4 H 0.0106 0.1678 0.2621
C7_4 C 0.03402(16) 0.24843(12) 0.2454(3)
H14_4 H 0.0157 0.2426 0.3117
H15_4 H 0.0590 0.2729 0.2617
C8_4 C 0.09279(15) 0.21978(12) 0.1235(3)
H16_4 H 0.1182 0.2440 0.1389
H17_4 H 0.1144 0.1946 0.1057
C9_4 C 0.01458(16) 0.19355(12) 0.0059(3)
N2_4 N 0.05258(12) 0.23054(9) 0.0266(3)
N4_4 N 0.06599(12) 0.21070(10) 0.2205(2)
H39_4 H 0.1323 0.4472 0.0467
H40_4 H 0.1067 0.3781 0.0068
C22_4 C 0.05017(17) 0.99876(13) 0.6085(3)
H35_4 H 0.0626 0.9870 0.5444
C25_4 C 0.01575(16) 0.97560(12) 0.6648(3)
O5_4 O 0.01654(13) 0.91486(8) 0.5471(2)
C2_4 C 0.8913(3) 0.99580(19) 0.9654(5)
H2_4 H 0.9023 0.9657 0.9700
loop_
_geom_bond_atom_site_label_1
_geom_bond_atom_site_label_2
_geom_bond_site_symmetry_1
_geom_bond_site_symmetry_2
C22 H35 1_555 1_555
C22 C25 1_555 1_555
Zn1 N6 1_555 1_555
Zn2 N2 1_555 1_555
N1 C1 1_555 1_555
C1 H1 1_555 1_555
C3 N1 1_555 1_555
H5 C3 1_555 1_555
H6 C3 1_555 1_555
H7 C3 1_555 1_555
O1 C1 1_555 1_555
H9 C4 1_555 1_555
C6 H12 1_555 1_555
H13 C6 1_555 1_555
C7 H14 1_555 1_555
H15 C7 1_555 1_555
C8 H16 1_555 1_555
H17 C8 1_555 1_555
C9 H18 1_555 1_555
N2 C4 1_555 1_555
N4 C6 1_555 1_555
C11 H22 1_555 1_555
H23 C11 1_555 1_555
C12 H24 1_555 1_555
H25 C12 1_555 1_555
C16 C17 1_555 1_555
C17 C18 1_555 1_555
C18 H32 1_555 1_555
C19 C18 1_555 1_555
C20 C19 1_555 1_555
H33 C20 1_555 1_555
C23 H36 1_555 1_555
C24 C17 1_555 1_555
H37 C24 1_555 1_555
C27 C19 1_555 1_555
O2 Zn1 1_555 1_555
O3 Zn2 1_555 1_555
C28 C29 1_555 1_555
C29 C30 1_555 1_555
C30 H38 1_555 1_555
C31 C30 1_555 1_555
C32 C31 1_555 1_555
C33 C32 1_555 1_555
H39 C33 1_555 1_555
C34 C29 1_555 1_555
H40 C34 1_555 1_555
C35 C31 1_555 1_555
H41 C35 1_555 1_555
C36 C35 1_555 1_555
H42 C36 1_555 1_555
C37 C32 1_555 1_555
H43 C37 1_555 1_555
C38 C36 1_555 1_555
C39 C38 1_555 1_555
O6 Zn1 1_555 1_555
O7 Zn2 1_555 1_555
O8 C39 1_555 1_555
O9 C39 1_555 1_555
O10 Zn1 1_555 1_555
O11 Zn2 1_555 1_555
O18 Zn1 1_555 1_555
O19 Zn2 1_555 1_555
Zn6 O9 1_555 1_555
C7 N4 1_555 1_555
C8 N2 1_555 1_555
C8 N4 1_555 1_555
C9 N2 1_555 1_555
C11 N6 1_555 1_555
C12 N6 1_555 1_555
C16 O2 1_555 1_555
C16 O3 1_555 1_555
C23 C27 1_555 1_555
C23 C24 1_555 1_555
C28 O6 1_555 1_555
C28 O7 1_555 1_555
C33 C34 1_555 1_555
C37 C38 1_555 1_555
C40 O10 1_555 1_555
C40 O11 1_555 1_555
H2 C2 1_555 1_555
H3 C2 1_555 1_555
H4 C2 1_555 1_555
C10 H20 1_555 1_555
H21 C10 1_555 1_555
C13 H26 1_555 1_555
H27 C13 1_555 1_555
C14 H28 1_555 1_555
H29 C14 1_555 1_555
H31 C15 1_555 1_555
N7 Zn4 1_555 1_555
N8 C10 1_555 1_555
O21 Zn4 1_555 1_555
O22 Zn4 1_555 1_555
C13 N7 1_555 1_555
C13 N8 1_555 1_555
C14 N8 1_555 1_555
C14 N9 1_555 1_555
C15 N9 1_555 1_555
C15 N7 1_555 1_555
Zn3 O4 1_555 1_555
H34 C21 1_555 1_555
O4 C26 1_555 1_555
N10 Zn3 1_555 1_555
O20 Zn3 1_555 1_555
C52 C53 1_555 1_555
C53 O16 1_555 1_555
C54 C52 1_555 1_555
H50 C54 1_555 1_555
C55 C54 1_555 1_555
H51 C55 1_555 1_555
C56 H52 1_555 1_555
C57 C62 1_555 1_555
C58 C55 1_555 1_555
C59 C58 1_555 1_555
C60 C52 1_555 1_555
H53 C60 1_555 1_555
C61 C59 1_555 1_555
H54 C61 1_555 1_555
C62 C56 1_555 1_555
C63 C61 1_555 1_555
H55 C63 1_555 1_555
O14 C57 1_555 1_555
O20 C53 1_555 1_555
Zn9 O14 1_555 1_555
C56 C58 1_555 1_555
C57 O15 1_555 1_555
C59 C60 1_555 1_555
C62 C63 1_555 1_555
C5 H10 1_555 1_555
H11 C5 1_555 1_555
N5 C5 1_555 1_555
C41 C42 1_555 1_555
C42 H44 1_555 1_555
C43 C42 1_555 1_555
C44 C43 1_555 1_555
H45 C44 1_555 1_555
C51 C44 1_555 1_555
H49 C51 1_555 1_555
Zn5 N5 1_555 1_555
C5 N3 1_555 1_555
C45 H46 1_555 1_555
C47 C46 1_555 1_555
H47 C47 1_555 1_555
H48 C48 1_555 1_555
C49 C45 1_555 1_555
C50 C49 1_555 1_555
O12 C50 1_555 1_555
O13 C50 1_555 1_555
Zn7 O12 1_555 1_555
Zn8 O13 1_555 1_555
C45 C46 1_555 1_555
C47 C48 1_555 1_555
Zn1_2 N6_2 1_555 1_555
Zn6 O1_2 1_555 1_555
N1_2 C1_2 1_555 1_555
C1_2 H1_2 1_555 1_555
C2_2 N1_2 1_555 1_555
H2_2 C2_2 1_555 1_555
H3_2 C2_2 1_555 1_555
H4_2 C2_2 1_555 1_555
C3_2 N1_2 1_555 1_555
H5_2 C3_2 1_555 1_555
H6_2 C3_2 1_555 1_555
H7_2 C3_2 1_555 1_555
O1_2 C1_2 1_555 1_555
C10_2 H20_2 1_555 1_555
H21_2 C10_2 1_555 1_555
C11_2 H22_2 1_555 1_555
H23_2 C11_2 1_555 1_555
C12_2 H24_2 1_555 1_555
H25_2 C12_2 1_555 1_555
C13_2 H26_2 1_555 1_555
H27_2 C13_2 1_555 1_555
C14_2 H28_2 1_555 1_555
H29_2 C14_2 1_555 1_555
C15_2 H30_2 1_555 1_555
H31_2 C15_2 1_555 1_555
N6_2 C10_2 1_555 1_555
N7_2 Zn6 1_555 1_555
N8_2 C10_2 1_555 1_555
N9_2 C12_2 1_555 1_555
C16_2 C17_2 1_555 1_555
C17_2 C18_2 1_555 1_555
C18_2 H32_2 1_555 1_555
C19_2 C18_2 1_555 1_555
C20_2 C19_2 1_555 1_555
H33_2 C20_2 1_555 1_555
C23_2 H36_2 1_555 1_555
C24_2 C17_2 1_555 1_555
H37_2 C24_2 1_555 1_555
C27_2 C19_2 1_555 1_555
O2_2 Zn1_2 1_555 1_555
O3_2 Zn2_2 1_555 1_555
C28_2 C29_2 1_555 1_555
C29_2 C30_2 1_555 1_555
C30_2 H38_2 1_555 1_555
C31_2 C30_2 1_555 1_555
C32_2 C31_2 1_555 1_555
C33_2 C32_2 1_555 1_555
C34_2 C29_2 1_555 1_555
C35_2 C31_2 1_555 1_555
H41_2 C35_2 1_555 1_555
C36_2 C35_2 1_555 1_555
H42_2 C36_2 1_555 1_555
C37_2 C32_2 1_555 1_555
H43_2 C37_2 1_555 1_555
C38_2 C36_2 1_555 1_555
C39_2 C38_2 1_555 1_555
O6_2 Zn1_2 1_555 1_555
O7_2 Zn2_2 1_555 1_555
O8_2 C39_2 1_555 1_555
O21 C39_2 1_555 1_555
O10_2 Zn1_2 1_555 1_555
O11_2 Zn2_2 1_555 1_555
O18_2 Zn1_2 1_555 1_555
O19_2 Zn2_2 1_555 1_555
O22_2 Zn6 1_555 1_555
O23_2 Zn6 1_555 1_555
C11_2 N6_2 1_555 1_555
C11_2 N7_2 1_555 1_555
C12_2 N6_2 1_555 1_555
C13_2 N7_2 1_555 1_555
C13_2 N8_2 1_555 1_555
C14_2 N8_2 1_555 1_555
C14_2 N9_2 1_555 1_555
C15_2 N9_2 1_555 1_555
C15_2 N7_2 1_555 1_555
C16_2 O2_2 1_555 1_555
C16_2 O3_2 1_555 1_555
C23_2 C27_2 1_555 1_555
C23_2 C24_2 1_555 1_555
C28_2 O6_2 1_555 1_555
C28_2 O7_2 1_555 1_555
C33_2 C34_2 1_555 1_555
C37_2 C38_2 1_555 1_555
C40_2 O10_2 1_555 1_555
C40_2 O11_2 1_555 1_555
C5_2 H10_2 1_555 1_555
H11_2 C5_2 1_555 1_555
N10 C5_2 1_555 1_555
C5_2 N3_2 1_555 1_555
C41_2 C42_2 1_555 1_555
C42_2 H44_2 1_555 1_555
C43_2 C42_2 1_555 1_555
C44_2 C43_2 1_555 1_555
H45_2 C44_2 1_555 1_555
C45_2 H46_2 1_555 1_555
C46_2 C43_2 1_555 1_555
C47_2 C46_2 1_555 1_555
H47_2 C47_2 1_555 1_555
C48_2 C41_2 1_555 1_555
H48_2 C48_2 1_555 1_555
C49_2 C45_2 1_555 1_555
C50_2 C49_2 1_555 1_555
C51_2 C44_2 1_555 1_555
H49_2 C51_2 1_555 1_555
O12_2 C50_2 1_555 1_555
O13_2 C50_2 1_555 1_555
Zn7_2 O12_2 1_555 1_555
Zn8_2 O13_2 1_555 1_555
C45_2 C46_2 1_555 1_555
C47_2 C48_2 1_555 1_555
C49_2 C51_2 1_555 1_555
Zn5 O4_2 1_555 1_555
H34_2 C21_2 1_555 1_555
O4_2 C26_2 1_555 1_555
C56_2 H52_2 1_555 1_555
C57_2 C62_2 1_555 1_555
C59_2 C58_2 1_555 1_555
C61_2 C59_2 1_555 1_555
H54_2 C61_2 1_555 1_555
C62_2 C56_2 1_555 1_555
C63_2 C61_2 1_555 1_555
H55_2 C63_2 1_555 1_555
O14_2 C57_2 1_555 1_555
O15_2 Zn5 1_555 1_555
O20_2 Zn5 1_555 1_555
Zn9_2 O14_2 1_555 1_555
C56_2 C58_2 1_555 1_555
C57_2 O15_2 1_555 1_555
C62_2 C63_2 1_555 1_555
C52_2 C53_2 1_555 1_555
C53_2 O16_2 1_555 1_555
C54_2 C52_2 1_555 1_555
H50_2 C54_2 1_555 1_555
C55_2 C54_2 1_555 1_555
C60_2 C52_2 1_555 1_555
H53_2 C60_2 1_555 1_555
O16_2 Zn9_2 1_555 1_555
O20_2 C53_2 1_555 1_555
Zn8_2 N6_3 1_555 1_555
Zn7_2 N2_2 1_555 1_555
Zn3_2 O4_3 1_555 1_555
N1_3 C1_3 1_555 1_555
C1_3 H1_3 1_555 1_555
O1_3 C1_3 1_555 1_555
C4_2 H8_3 1_555 1_555
H9_2 C4_2 1_555 1_555
C5_3 H10_3 1_555 1_555
H11_3 C5_3 1_555 1_555
C6_2 H12_2 1_555 1_555
H13_2 C6_2 1_555 1_555
C7_2 H14_2 1_555 1_555
H15_2 C7_2 1_555 1_555
C8_2 H16_2 1_555 1_555
H17_2 C8_2 1_555 1_555
C9_2 H18_3 1_555 1_555
H19_3 C9_2 1_555 1_555
N2_2 C4_2 1_555 1_555
N3_3 C4_2 1_555 1_555
N4_2 C6_2 1_555 1_555
N5_2 C5_3 1_555 1_555
C11_3 H22_3 1_555 1_555
H23_3 C11_3 1_555 1_555
C12_3 H24_3 1_555 1_555
H25_3 C12_3 1_555 1_555
C16_3 C17_3 1_555 1_555
C17_3 C18_3 1_555 1_555
C18_3 H32_3 1_555 1_555
C19_3 C18_3 1_555 1_555
C20_3 C19_3 1_555 1_555
H33_3 C20_3 1_555 1_555
C21_3 C20_3 1_555 1_555
H34_3 C21_3 1_555 1_555
C22_2 H35_2 1_555 1_555
C23_3 H36_3 1_555 1_555
C24_3 C17_3 1_555 1_555
H37_3 C24_3 1_555 1_555
C25_2 C21_3 1_555 1_555
C26_3 C25_2 1_555 1_555
C27_3 C19_3 1_555 1_555
O2_3 Zn8_2 1_555 1_555
O3_3 Zn7_2 1_555 1_555
O4_3 C26_3 1_555 1_555
O5_2 C26_3 1_555 1_555
C28_3 C29_3 1_555 1_555
C29_3 C30_3 1_555 1_555
C30_3 H38_3 1_555 1_555
C31_3 C30_3 1_555 1_555
C32_3 C31_3 1_555 1_555
C33_3 C32_3 1_555 1_555
H39_2 C33_3 1_555 1_555
C34_3 C29_3 1_555 1_555
H40_2 C34_3 1_555 1_555
C35_3 C31_3 1_555 1_555
H41_3 C35_3 1_555 1_555
O6_3 Zn8_2 1_555 1_555
O7_3 Zn7_2 1_555 1_555
C40_3 C41_3 1_555 1_555
C41_3 C42_3 1_555 1_555
C42_3 H44_3 1_555 1_555
C43_3 C42_3 1_555 1_555
C44_3 C43_3 1_555 1_555
H45_3 C44_3 1_555 1_555
C51_3 C44_3 1_555 1_555
H49_3 C51_3 1_555 1_555
O10_3 Zn8_2 1_555 1_555
O11_3 Zn7_2 1_555 1_555
N10_2 Zn3_2 1_555 1_555
O20_3 Zn3_2 1_555 1_555
Zn5_2 N5_2 1_555 1_555
C5_3 N3_3 1_555 1_555
C6_2 N5_2 1_555 1_555
C7_2 N3_3 1_555 1_555
C7_2 N4_2 1_555 1_555
C8_2 N2_2 1_555 1_555
C8_2 N4_2 1_555 1_555
C9_2 N5_2 1_555 1_555
C9_2 N2_2 1_555 1_555
C11_3 N6_3 1_555 1_555
C12_3 N6_3 1_555 1_555
C16_3 O2_3 1_555 1_555
C16_3 O3_3 1_555 1_555
C22_2 C25_2 1_555 1_555
C22_2 C27_3 1_555 1_555
C23_3 C27_3 1_555 1_555
C23_3 C24_3 1_555 1_555
C28_3 O6_3 1_555 1_555
C28_3 O7_3 1_555 1_555
C33_3 C34_3 1_555 1_555
C40_3 O10_3 1_555 1_555
C40_3 O11_3 1_555 1_555
C10_3 H20_3 1_555 1_555
H21_3 C10_3 1_555 1_555
C13_3 H26_3 1_555 1_555
H27_3 C13_3 1_555 1_555
C14_3 H28_3 1_555 1_555
H29_3 C14_3 1_555 1_555
H31_3 C15_3 1_555 1_555
N7_3 Zn9 1_555 1_555
N8_3 C10_3 1_555 1_555
C45_3 H46_3 1_555 1_555
C47_3 C46_3 1_555 1_555
H47_3 C47_3 1_555 1_555
H48_3 C48_3 1_555 1_555
C49_3 C45_3 1_555 1_555
C50_3 C49_3 1_555 1_555
O19_2 C50_3 1_555 1_555
O18_2 C50_3 1_555 1_555
C52_3 C53_3 1_555 1_555
C53_3 O23 1_555 1_555
C54_3 C52_3 1_555 1_555
H50_3 C54_3 1_555 1_555
C55_3 C54_3 1_555 1_555
H51_3 C55_3 1_555 1_555
C56_3 H52_3 1_555 1_555
C57_3 C62_3 1_555 1_555
C58_3 C55_3 1_555 1_555
C59_3 C58_3 1_555 1_555
C60_3 C52_3 1_555 1_555
H53_3 C60_3 1_555 1_555
C61_3 C59_3 1_555 1_555
H54_3 C61_3 1_555 1_555
C62_3 C56_3 1_555 1_555
C63_3 C61_3 1_555 1_555
H55_3 C63_3 1_555 1_555
O22 C57_3 1_555 1_555
O20_3 C53_3 1_555 1_555
O21_2 Zn9 1_555 1_555
C13_3 N7_3 1_555 1_555
C13_3 N8_3 1_555 1_555
C14_3 N8_3 1_555 1_555
C14_3 N9_3 1_555 1_555
C15_3 N9_3 1_555 1_555
C15_3 N7_3 1_555 1_555
C45_3 C46_3 1_555 1_555
C47_3 C48_3 1_555 1_555
C56_3 C58_3 1_555 1_555
C57_3 O15_3 1_555 1_555
C59_3 C60_3 1_555 1_555
C62_3 C63_3 1_555 1_555
H5_3 C3_3 1_555 1_555
H6_3 C3_3 1_555 1_555
H7_3 C3_3 1_555 1_555
H42_3 C36_3 1_555 1_555
H43_3 C37_3 1_555 1_555
C38_3 C36_3 1_555 1_555
C39_3 C38_3 1_555 1_555
O8_3 C39_3 1_555 1_555
O9_2 C39_3 1_555 1_555
Zn9_2 O9_2 1_555 1_555
C37_3 C38_3 1_555 1_555
H2_3 C2_3 1_555 1_555
H5_4 C3_4 1_555 1_555
H6_4 C3_4 1_555 1_555
H7_4 C3_4 1_555 1_555
H42_4 C36_4 1_555 1_555
H43_4 C37_4 1_555 1_555
C38_4 C36_4 1_555 1_555
C39_4 C38_4 1_555 1_555
O8_4 C39_4 1_555 1_555
O21_2 C39_4 1_555 1_555
C37_4 C38_4 1_555 1_555
H9_3 C4_3 1_555 1_555
C5_4 H10_4 1_555 1_555
H11_4 C5_4 1_555 1_555
C6_3 H12_3 1_555 1_555
H13_3 C6_3 1_555 1_555
C7_3 H14_3 1_555 1_555
H15_3 C7_3 1_555 1_555
C8_3 H16_3 1_555 1_555
H17_3 C8_3 1_555 1_555
N2_3 C4_3 1_555 1_555
N3_4 C4_3 1_555 1_555
N4_3 C6_3 1_555 1_555
N10_2 C5_4 1_555 1_555
C5_4 N3_4 1_555 1_555
C6_3 N10_2 1_555 1_555
C7_3 N3_4 1_555 1_555
C7_3 N4_3 1_555 1_555
C8_3 N2_3 1_555 1_555
C8_3 N4_3 1_555 1_555
C9_3 N10_2 1_555 1_555
C9_3 N2_3 1_555 1_555
Zn8 N6_4 1_555 1_555
Zn5_2 O4_4 1_555 1_555
Zn9_2 O1_4 1_555 1_555
N1_4 C1_4 1_555 1_555
C1_4 H1_4 1_555 1_555
O1_4 C1_4 1_555 1_555
C10_4 H20_4 1_555 1_555
H21_4 C10_4 1_555 1_555
C11_4 H22_4 1_555 1_555
H23_4 C11_4 1_555 1_555
C12_4 H24_4 1_555 1_555
H25_4 C12_4 1_555 1_555
C13_4 H26_4 1_555 1_555
H27_4 C13_4 1_555 1_555
C14_4 H28_4 1_555 1_555
H29_4 C14_4 1_555 1_555
C15_4 H30_4 1_555 1_555
H31_4 C15_4 1_555 1_555
N6_4 C10_4 1_555 1_555
N7_4 Zn9_2 1_555 1_555
N8_4 C10_4 1_555 1_555
N9_4 C12_4 1_555 1_555
C16_4 C17_4 1_555 1_555
C17_4 C18_4 1_555 1_555
C18_4 H32_4 1_555 1_555
C19_4 C18_4 1_555 1_555
C20_4 C19_4 1_555 1_555
H33_4 C20_4 1_555 1_555
C21_4 C20_4 1_555 1_555
H34_4 C21_4 1_555 1_555
C22_3 H35_3 1_555 1_555
C23_4 H36_4 1_555 1_555
C24_4 C17_4 1_555 1_555
H37_4 C24_4 1_555 1_555
C25_3 C21_4 1_555 1_555
C26_4 C25_3 1_555 1_555
C27_4 C19_4 1_555 1_555
O2_4 Zn8 1_555 1_555
O3_4 Zn7 1_555 1_555
O4_4 C26_4 1_555 1_555
O5_3 C26_4 1_555 1_555
C28_4 C29_4 1_555 1_555
C29_4 C30_4 1_555 1_555
C30_4 H38_4 1_555 1_555
C31_4 C30_4 1_555 1_555
C32_4 C31_4 1_555 1_555
C33_4 C32_4 1_555 1_555
C34_4 C29_4 1_555 1_555
C35_4 C31_4 1_555 1_555
H41_4 C35_4 1_555 1_555
O6_4 Zn8 1_555 1_555
O7_4 Zn7 1_555 1_555
C40_4 C41_4 1_555 1_555
C41_4 C42_4 1_555 1_555
C42_4 H44_4 1_555 1_555
C43_4 C42_4 1_555 1_555
C44_4 C43_4 1_555 1_555
H45_4 C44_4 1_555 1_555
C45_4 H46_4 1_555 1_555
C46_4 C43_4 1_555 1_555
C47_4 C46_4 1_555 1_555
H47_4 C47_4 1_555 1_555
C48_4 C41_4 1_555 1_555
H48_4 C48_4 1_555 1_555
C49_4 C45_4 1_555 1_555
C50_4 C49_4 1_555 1_555
C51_4 C44_4 1_555 1_555
H49_4 C51_4 1_555 1_555
O10_4 Zn8 1_555 1_555
O11_4 Zn7 1_555 1_555
O19 C50_4 1_555 1_555
O18 C50_4 1_555 1_555
C56_4 H52_4 1_555 1_555
C57_4 C62_4 1_555 1_555
C59_4 C58_4 1_555 1_555
C61_4 C59_4 1_555 1_555
H54_4 C61_4 1_555 1_555
C62_4 C56_4 1_555 1_555
C63_4 C61_4 1_555 1_555
H55_4 C63_4 1_555 1_555
O22_2 C57_4 1_555 1_555
O15_4 Zn5_2 1_555 1_555
O20_4 Zn5_2 1_555 1_555
C11_4 N6_4 1_555 1_555
C11_4 N7_4 1_555 1_555
C12_4 N6_4 1_555 1_555
C13_4 N7_4 1_555 1_555
C13_4 N8_4 1_555 1_555
C14_4 N8_4 1_555 1_555
C14_4 N9_4 1_555 1_555
C15_4 N9_4 1_555 1_555
C15_4 N7_4 1_555 1_555
C16_4 O2_4 1_555 1_555
C16_4 O3_4 1_555 1_555
C22_3 C25_3 1_555 1_555
C22_3 C27_4 1_555 1_555
C23_4 C27_4 1_555 1_555
C23_4 C24_4 1_555 1_555
C28_4 O6_4 1_555 1_555
C28_4 O7_4 1_555 1_555
C33_4 C34_4 1_555 1_555
C40_4 O10_4 1_555 1_555
C40_4 O11_4 1_555 1_555
C45_4 C46_4 1_555 1_555
C47_4 C48_4 1_555 1_555
C49_4 C51_4 1_555 1_555
C56_4 C58_4 1_555 1_555
C57_4 O15_4 1_555 1_555
C62_4 C63_4 1_555 1_555
C52_4 C53_4 1_555 1_555
C53_4 O23_2 1_555 1_555
C54_4 C52_4 1_555 1_555
H50_4 C54_4 1_555 1_555
C55_4 C54_4 1_555 1_555
C60_4 C52_4 1_555 1_555
H53_4 C60_4 1_555 1_555
O20_4 C53_4 1_555 1_555
H9_4 C4_4 1_555 1_555
C6_4 H12_4 1_555 1_555
H13_4 C6_4 1_555 1_555
C7_4 H14_4 1_555 1_555
H15_4 C7_4 1_555 1_555
C8_4 H16_4 1_555 1_555
H17_4 C8_4 1_555 1_555
N2_4 C4_4 1_555 1_555
N4_4 C6_4 1_555 1_555
C7_4 N4_4 1_555 1_555
C8_4 N2_4 1_555 1_555
C8_4 N4_4 1_555 1_555
C9_4 N2_4 1_555 1_555
C22_4 H35_4 1_555 1_555
C22_4 C25_4 1_555 1_555
H2_4 C2_4 1_555 1_555

#END
