
###############################################################################
#
# This file contains modified crystal structure data generated from the
# MOF subset of the Cambridge Structural Database (CSD) v543 
# hosted by the Cambridge Crystallographic Data Centre (CCDC).
#
# This work is licensed under the Creative Commons
# Attribution-NonCommercial-ShareAlike 4.0 International License.
# To view a copy of this license, visit
# http://creativecommons.org/licenses/by-nc-sa/4.0/
# or send a letter to
# Creative Commons, PO Box 1866, Mountain View, CA 94042, USA.
#
# CIF created using the CSD Python API on 29 September 2022
# The structure has been converted into the P1 space group
# The structure has a 3D framework
# The original CSD entry AMIZAZ02 is in the trigonal crystal system
# The framework has been calculated to contain at least 10.0% void space
# The void calculation uses a probe of radius 1.32A, grid spacing 0.4
# The framework is charged, counterions have been retained in the structure
#
###############################################################################

data_AMIZAZ02
_chemical_formula_moiety         '(C12 H12 Ni8 O20 2-)n'
_symmetry_cell_setting           triclinic
_symmetry_space_group_name_H-M   'P 1'
_symmetry_Int_Tables_number      1
_space_group_name_Hall           'P 1'
loop_
_symmetry_equiv_pos_site_id
_symmetry_equiv_pos_as_xyz
1 x,y,z
_cell_length_a                   8.4317(3)
_cell_length_b                   8.4317(3)
_cell_length_c                   13.2920(4)
_cell_angle_alpha                90
_cell_angle_beta                 90
_cell_angle_gamma                120
_cell_volume                     818.373
loop_
_atom_site_label
_atom_site_type_symbol
_atom_site_fract_x
_atom_site_fract_y
_atom_site_fract_z
Ni1 Ni 0.0000 0.0000 0.5000
Ni2 Ni 0.3333 0.6667 0.2500
O1 O 0.2105(2) 0.2033(2) 0.41772(12)
O2 O 0.3393(3) 0.4723(2) 0.34154(12)
C1 C 0.2053(4) 0.3269(4) 0.37020(17)
H1 H 0.0900 0.3091 0.3545
O8 O 0.1330(4) 0.4723(2) 0.15846(12)
C4 C 0.1216(6) 0.3269(4) 0.12980(17)
H4 H 0.2191 0.3091 0.1455
O11 O 0.0072(3) 0.2105(2) 0.58228(12)
Ni3 Ni 0.0000 0.0000 0.0000
O14 O 0.5277(2) 0.8670(4) 0.34154(12)
O15 O 0.1330(4) 0.6607(3) 0.34154(12)
O16 O 0.5277(2) 0.6607(3) 0.15846(12)
O17 O 0.3393(3) 0.8670(4) 0.15846(12)
Ni3_2 Ni 0.0000 0.0000 1.0000
Ni1_2 Ni -0.0000 1.0000 0.5000
C3 C 0.1216(6) 0.7947(4) 0.37020(17)
H3 H 0.2191 0.9100 0.3545
Ni3_3 Ni -0.0000 1.0000 0.0000
O13 O 0.2033(2) 0.9928(3) 0.58228(12)
Ni3_4 Ni -0.0000 1.0000 1.0000
Ni1_3 Ni 1.0000 0.0000 0.5000
O3 O 0.7967(2) 0.0072(3) 0.41772(12)
O7 O 0.9928(3) 0.2033(2) 0.08228(12)
O12 O 0.8670(4) 0.3393(3) 0.65846(12)
C6 C 0.8784(6) 0.2053(4) 0.62980(17)
H6 H 0.7809 0.0900 0.6455
Ni3_5 Ni 1.0000 0.0000 0.0000
Ni7 Ni 0.6667 0.3333 0.7500
Ni3_6 Ni 1.0000 0.0000 1.0000
Ni1_4 Ni 1.0000 1.0000 0.5000
C2 C 0.6731(4) 0.8784(6) 0.37020(17)
H2 H 0.6909 0.7809 0.3545
O5 O 0.9928(3) 0.7895(2) 0.41772(12)
O9 O 0.7895(2) 0.7967(2) 0.58228(12)
O10 O 0.6607(3) 0.5277(2) 0.65846(12)
C5 C 0.7947(4) 0.6731(4) 0.62980(17)
H5 H 0.9100 0.6909 0.6455
Ni3_7 Ni 1.0000 1.0000 0.0000
Ni3_8 Ni 1.0000 1.0000 1.0000
O10_2 O 0.4723(2) 0.1330(4) 0.65846(12)
C5_2 C 0.3269(4) 0.1216(6) 0.62980(17)
H5_2 H 0.3091 0.2191 0.6455
O7_2 O 0.7967(2) 0.7895(4) 0.08228(12)
C4_2 C 0.6731(4) 0.7947(7) 0.12980(17)
H4_2 H 0.6909 0.9100 0.1455
O7_3 O 0.2105(4) 0.0072(3) 0.08228(12)
C4_3 C 0.2053(7) 0.8784(6) 0.12980(17)
H4_3 H 0.0900 0.7809 0.1455
O9_2 O 0.2033(2) 0.2105(2) 0.91772(12)
O10_3 O 0.4723(2) 0.3393(3) 0.84154(12)
C5_3 C 0.3269(4) 0.2053(4) 0.87020(17)
H5_3 H 0.3091 0.0900 0.8545
O13_2 O 0.0072(3) 0.7967(2) 0.91772(12)
O12_2 O 0.6607(3) 0.1330(4) 0.84154(12)
C6_2 C 0.7947(4) 0.1216(6) 0.87020(17)
H6_2 H 0.9100 0.2191 0.8545
O11_2 O 0.7895(2) 0.9928(3) 0.91772(12)
O10_4 O 0.8670(4) 0.5277(2) 0.84154(12)
C5_4 C 0.8784(6) 0.6731(4) 0.87020(17)
H5_4 H 0.7809 0.6909 0.8545
loop_
_geom_bond_atom_site_label_1
_geom_bond_atom_site_label_2
_geom_bond_site_symmetry_1
_geom_bond_site_symmetry_2
Ni1 O1 1_555 1_555
Ni2 O2 1_555 1_555
O1 C1 1_555 1_555
O2 C1 1_555 1_555
C1 H1 1_555 1_555
O8 Ni2 1_555 1_555
C4 O8 1_555 1_555
H4 C4 1_555 1_555
O11 Ni1 1_555 1_555
O14 Ni2 1_555 1_555
O15 Ni2 1_555 1_555
O16 Ni2 1_555 1_555
O17 Ni2 1_555 1_555
O15 C3 1_555 1_555
H3 C3 1_555 1_555
O13 Ni1_2 1_555 1_555
O3 Ni1_3 1_555 1_555
O12 C6 1_555 1_555
H6 C6 1_555 1_555
Ni3_5 O7 1_555 1_555
Ni7 O12 1_555 1_555
O14 C2 1_555 1_555
H2 C2 1_555 1_555
O5 Ni1_4 1_555 1_555
O9 Ni1_4 1_555 1_555
O10 C5 1_555 1_555
C5 O9 1_555 1_555
H5 C5 1_555 1_555
Ni7 O10 1_555 1_555
O10_2 C5_2 1_555 1_555
H5_2 C5_2 1_555 1_555
Ni7 O10_2 1_555 1_555
O7_2 C4_2 1_555 1_555
C4_2 O16 1_555 1_555
H4_2 C4_2 1_555 1_555
Ni3_7 O7_2 1_555 1_555
Ni3 O7_3 1_555 1_555
C4_3 O17 1_555 1_555
H4_3 C4_3 1_555 1_555
O9_2 Ni3_2 1_555 1_555
O10_3 C5_3 1_555 1_555
C5_3 O9_2 1_555 1_555
H5_3 C5_3 1_555 1_555
Ni7 O10_3 1_555 1_555
O13_2 Ni3_4 1_555 1_555
O12_2 C6_2 1_555 1_555
H6_2 C6_2 1_555 1_555
Ni7 O12_2 1_555 1_555
O11_2 Ni3_8 1_555 1_555
O10_4 C5_4 1_555 1_555
H5_4 C5_4 1_555 1_555
Ni7 O10_4 1_555 1_555

#END
