
###############################################################################
#
# This file contains modified crystal structure data generated from the
# MOF subset of the Cambridge Structural Database (CSD) v543 
# hosted by the Cambridge Crystallographic Data Centre (CCDC).
#
# This work is licensed under the Creative Commons
# Attribution-NonCommercial-ShareAlike 4.0 International License.
# To view a copy of this license, visit
# http://creativecommons.org/licenses/by-nc-sa/4.0/
# or send a letter to
# Creative Commons, PO Box 1866, Mountain View, CA 94042, USA.
#
# CIF created using the CSD Python API on 29 September 2022
# The structure has been converted into the P1 space group
# The structure has a 3D framework
# The original CSD entry AMIZEC is in the orthorhombic crystal system
# The framework has been calculated to contain at least 10.0% void space
# The void calculation uses a probe of radius 1.32A, grid spacing 0.4
# H atom positions have been added when not included in the experimental data
#
###############################################################################

data_AMIZEC
_chemical_formula_moiety         '(C216 H176 K4 O114 Zn20)n'
_symmetry_cell_setting           triclinic
_symmetry_space_group_name_H-M   'P 1'
_symmetry_Int_Tables_number      1
_space_group_name_Hall           'P 1'
loop_
_symmetry_equiv_pos_site_id
_symmetry_equiv_pos_as_xyz
1 x,y,z
_cell_length_a                   14.1795(3)
_cell_length_b                   23.7646(5)
_cell_length_c                   18.7113(5)
_cell_angle_alpha                90
_cell_angle_beta                 90
_cell_angle_gamma                90
_cell_volume                     6305.15
loop_
_atom_site_label
_atom_site_type_symbol
_atom_site_fract_x
_atom_site_fract_y
_atom_site_fract_z
O14 O 0.0901(6) 0.5740(3) 0.1959(6)
H18 H 0.0111 0.1735 0.2817
C25 C 0.0325(9) 0.2573(4) 0.2940(10)
H19 H 0.0261 0.3424 0.2877
C27 C 0.1286(10) 0.2521(4) 0.3295(11)
H20 H 0.1609 0.2198 0.3108
H21 H 0.1206 0.2479 0.3801
H22 H 0.1650 0.2853 0.3199
C28 C 0.0466(7) 0.5436(4) 0.1528(6)
C30 C 0.0631(7) 0.5531(5) 0.0767(6)
C31 C 0.0359(7) 0.5126(5) 0.0242(6)
H23 H 0.0110 0.4782 0.0388
C35 C 0.0996(8) 0.6049(5) 0.0499(6)
H25 H 0.1193 0.6318 0.0829
Zn7 Zn 0.07339(9) 0.57110(5) 0.30159(6)
Zn8 Zn 0.05304(8) 0.90848(5) 0.29438(6)
O15 O 0.0180(5) 0.4939(3) 0.8323(4)
C29 C 0.0124(7) 0.4832(4) 0.8974(6)
C32 C 0.0462(7) 0.5238(5) 0.9512(6)
C33 C 0.0811(7) 0.5769(5) 0.9305(7)
H24 H 0.0867 0.5851 0.8820
C34 C 0.1075(8) 0.6174(5) 0.9801(6)
C36 C 0.1409(8) 0.6742(4) 0.9553(6)
H26 H 0.0935 0.7019 0.9655
H27 H 0.1524 0.6731 0.9048
H28 H 0.1982 0.6838 0.9798
Zn6 Zn 0.12173(9) 0.50037(6) 0.74298(12)
O33 O 0.0268(5) 0.3662(3) 0.7959(4)
Zn1 Zn 0.68291(8) 0.42799(5) 0.18806(6)
Zn2 Zn 0.87827(9) 0.49963(6) 0.24298(12)
Zn5 Zn 0.80207(8) 0.59224(5) 0.69318(6)
O1 O 0.6666(6) 0.4248(3) 0.2928(6)
O2 O 0.7654(5) 0.4965(3) 0.3135(4)
O3 O 0.7619(7) 0.5824(3) 0.5554(4)
O4 O 0.7511(5) 0.5240(3) 0.6470(4)
O5 O 0.7729(5) 0.4936(3) 0.1560(4)
O6 O 0.7354(6) 0.4380(3) 0.0677(4)
O9 O 0.7843(5) 0.3670(3) 0.1921(5)
O10 O 0.9032(5) 0.4130(3) 0.2461(4)
O11 O 0.7639(5) 0.1662(3) 0.1928(4)
O12 O 0.8782(6) 0.1130(3) 0.2353(6)
O13 O 0.9888(5) 0.5056(3) 0.1705(4)
O17 O 0.8578(5) 0.5854(3) 0.2427(4)
O18 O 0.9732(5) 0.6338(3) 0.2959(4)
O19 O 0.9848(4) 0.8361(3) 0.2905(4)
O20 O 0.8616(6) 0.8862(3) 0.2553(5)
O23 O 0.5663(5) 0.4905(3) 0.1813(4)
O24 O 0.5732(6) 0.5830(4) 0.1907(6)
O25 O 0.5874(6) 0.3715(3) 0.1543(5)
H1 H 0.5999 0.3375 0.1435
H2 H 0.5336 0.3724 0.1743
O28 O 0.9310(5) 0.6070(3) 0.6535(4)
C1 C 0.7073(8) 0.4580(5) 0.3330(6)
C2 C 0.7443(8) 0.5358(5) 0.5792(6)
C3 C 0.6908(7) 0.4519(5) 0.4142(6)
C4 C 0.7192(7) 0.4946(5) 0.4581(6)
H5 H 0.7428 0.5279 0.4390
C5 C 0.7122(8) 0.4876(5) 0.5317(7)
C6 C 0.6778(7) 0.4381(5) 0.5597(7)
H6 H 0.6742 0.4337 0.6090
C7 C 0.6486(8) 0.3945(5) 0.5155(6)
C8 C 0.6536(8) 0.4032(5) 0.4398(6)
H7 H 0.6315 0.3758 0.4085
C9 C 0.6174(8) 0.3383(5) 0.5483(7)
H8 H 0.6719 0.3179 0.5644
H9 H 0.5846 0.3165 0.5130
H10 H 0.5763 0.3454 0.5881
C10 C 0.7696(8) 0.4830(5) 0.0883(6)
C12 C 0.8025(7) 0.5266(5) 0.0352(6)
C16 C 0.8562(8) 0.6212(5) 0.0136(6)
C17 C 0.8317(7) 0.5791(4) 0.0602(7)
H13 H 0.8346 0.5856 0.1092
C18 C 0.8840(9) 0.6796(5) 0.0421(7)
H14 H 0.8287 0.6988 0.0588
H15 H 0.9127 0.7011 0.0045
H16 H 0.9279 0.6754 0.0808
C19 C 0.8626(8) 0.3697(5) 0.2271(7)
C20 C 0.8433(7) 0.1596(4) 0.2216(6)
C21 C 0.9051(6) 0.3127(3) 0.2445(6)
C22 C 0.8563(8) 0.2642(5) 0.2264(6)
H17 H 0.7976 0.2666 0.2044
C23 C 0.8960(7) 0.2116(4) 0.2414(6)
C24 C 0.9839(7) 0.2086(4) 0.2736(6)
C26 C 0.9932(7) 0.3096(4) 0.2771(6)
C37 C 0.8963(7) 0.6305(4) 0.2617(5)
C38 C 0.9013(8) 0.8412(4) 0.2637(5)
C39 C 0.8501(7) 0.6854(4) 0.2436(6)
C40 C 0.8928(8) 0.7350(5) 0.2611(6)
H29 H 0.9508 0.7338 0.2843
C41 C 0.8540(7) 0.7863(4) 0.2460(6)
C42 C 0.7654(7) 0.7884(5) 0.2115(6)
H30 H 0.7388 0.8229 0.1996
C43 C 0.7189(8) 0.7393(5) 0.1955(8)
C44 C 0.7625(7) 0.6883(4) 0.2111(6)
H31 H 0.7318 0.6550 0.1994
C45 C 0.6234(9) 0.7406(5) 0.1593(8)
H32 H 0.6048 0.7790 0.1516
H33 H 0.5777 0.7223 0.1892
H34 H 0.6271 0.7215 0.1142
C47 C 0.5694(8) 0.5396(5) 0.1536(6)
C49 C 0.5459(7) 0.5026(5) 0.0303(6)
H35 H 0.5292 0.4679 0.0496
C50 C 0.5733(8) 0.5450(5) 0.0753(7)
C51 C 0.5988(8) 0.5977(5) 0.0433(6)
H36 H 0.6172 0.6272 0.0728
Zn9 Zn 0.55304(8) 0.59152(5) 0.29438(6)
Zn11 Zn 0.69793(8) 0.09224(5) 0.19318(6)
O29 O 0.8307(6) 0.5879(4) 0.7949(6)
O30 O 0.7361(5) 0.6662(3) 0.6928(4)
O32 O 0.9820(5) 0.5061(3) 0.3323(4)
H43 H 0.926624 0.612763 0.601042
H44 H 0.957736 0.641242 0.676184
Zn3 Zn 0.92661(9) 0.42890(5) 0.80159(6)
Zn4 Zn 0.44696(8) 0.40848(5) 0.79438(6)
O7 O 0.8061(5) 0.4962(3) 0.8144(4)
O16 O 0.9715(5) 0.4391(3) 0.9185(4)
O21 O 0.5000(5) 0.4734(3) 0.8446(4)
O22 O 0.4903(6) 0.4144(3) 0.9358(5)
O26 O 0.8194(6) 0.3773(4) 0.8277(4)
H3 H 0.7737 0.3806 0.7986
H4 H 0.7968 0.3757 0.8697
O27 O 0.3179(5) 0.3947(3) 0.8277(4)
C11 C 0.8197(7) 0.5447(6) 0.8354(7)
C13 C 0.7990(7) 0.5154(5) 0.9634(6)
H11 H 0.7801 0.4802 0.9470
C14 C 0.8238(7) 0.5572(5) 0.9158(6)
C15 C 0.8532(8) 0.6088(5) 0.9389(6)
H12 H 0.8712 0.6360 0.9059
C46 C 0.5087(8) 0.4618(5) 0.9100(7)
C48 C 0.5425(7) 0.5097(4) 0.9570(6)
C52 C 0.5972(8) 0.6060(5) 0.9719(6)
C53 C 0.5667(7) 0.5617(5) 0.9291(7)
H37 H 0.5624 0.5672 0.8800
C54 C 0.6240(8) 0.6617(5) 0.9413(7)
H38 H 0.6872 0.6710 0.9555
H39 H 0.6205 0.6601 0.8901
H40 H 0.5814 0.6901 0.9587
O31 O 0.9099(6) 0.4260(3) 0.6959(6)
O34 O 0.5152(4) 0.3361(3) 0.7905(4)
O35 O 0.4268(6) 0.4170(4) 0.6907(6)
H41 H 0.278439 0.428368 0.818022
H42 H 0.291261 0.361735 0.80209
Zn5_2 Zn 0.19793(8) 0.40776(5) 0.19318(6)
O3_2 O 0.2381(7) 0.4176(3) 0.0554(4)
O4_2 O 0.2489(5) 0.4760(3) 0.1470(4)
O28_2 O 0.0690(5) 0.3930(3) 0.1535(4)
C2_2 C 0.2557(8) 0.4642(5) 0.0792(6)
C5_2 C 0.2878(8) 0.5124(5) 0.0317(7)
C6_2 C 0.3222(7) 0.5619(5) 0.0597(7)
H6_2 H 0.3258 0.5663 0.1090
C7_2 C 0.3514(8) 0.6055(5) 0.0155(6)
C9_2 C 0.3826(8) 0.6617(5) 0.0483(7)
H8_2 H 0.3281 0.6821 0.0644
H9_2 H 0.4154 0.6835 0.0130
H10_2 H 0.4237 0.6546 0.0881
O29_2 O 0.1693(6) 0.4121(4) 0.2949(6)
O30_2 O 0.2639(5) 0.3338(3) 0.1928(4)
H43_2 H 0.0733764 0.387237 0.101042
H44_2 H 0.042264 0.358758 0.176184
Zn1_2 Zn 0.31709(8) 0.57201(5) 0.68806(6)
O1_2 O 0.3334(6) 0.5752(3) 0.7928(6)
O2_2 O 0.2346(5) 0.5035(3) 0.8135(4)
O5_2 O 0.2271(5) 0.5064(3) 0.6560(4)
O6_2 O 0.2646(6) 0.5620(3) 0.5677(4)
O7_2 O 0.1939(5) 0.5038(3) 0.3144(4)
O9_2 O 0.2157(5) 0.6330(3) 0.6921(5)
O10_2 O 0.0968(5) 0.5870(3) 0.7461(4)
O11_2 O 0.2361(5) 0.8338(3) 0.6928(4)
O12_2 O 0.1218(6) 0.8870(3) 0.7353(6)
O13_2 O 0.0112(5) 0.4944(3) 0.6705(4)
O16_2 O 0.0285(5) 0.5609(3) 0.4185(4)
O17_2 O 0.1422(5) 0.4146(3) 0.7427(4)
O19_2 O 0.0152(4) 0.1639(3) 0.7905(4)
O20_2 O 0.1384(6) 0.1138(3) 0.7553(5)
O21_2 O 0.5000(5) 0.5266(3) 0.3446(4)
O22_2 O 0.5097(6) 0.5856(3) 0.4358(5)
O23_2 O 0.4337(5) 0.5095(3) 0.6813(4)
O25_2 O 0.4126(6) 0.6285(3) 0.6543(5)
H1_2 H 0.4001 0.6625 0.6435
H2_2 H 0.4664 0.6276 0.6743
O26_2 O 0.1806(6) 0.6227(4) 0.3277(4)
H3_2 H 0.2263 0.6194 0.2986
H4_2 H 0.2032 0.6243 0.3697
O27_2 O 0.6821(5) 0.6053(3) 0.3277(4)
C1_2 C 0.2927(8) 0.5420(5) 0.8330(6)
C3_2 C 0.3092(7) 0.5481(5) 0.9142(6)
C4_2 C 0.2808(7) 0.5054(5) 0.9581(6)
H5_2 H 0.2572 0.4721 0.9390
C8_2 C 0.3464(8) 0.5968(5) 0.9398(6)
H7_2 H 0.3685 0.6242 0.9085
C10_2 C 0.2304(8) 0.5170(5) 0.5883(6)
C11_2 C 0.1803(7) 0.4553(6) 0.3354(7)
C12_2 C 0.1975(7) 0.4734(5) 0.5352(6)
C13_2 C 0.2010(7) 0.4846(5) 0.4634(6)
H11_2 H 0.2199 0.5198 0.4470
C14_2 C 0.1762(7) 0.4428(5) 0.4158(6)
C15_2 C 0.1468(8) 0.3912(5) 0.4389(6)
H12_2 H 0.1288 0.3640 0.4059
C16_2 C 0.1438(8) 0.3788(5) 0.5136(6)
C17_2 C 0.1683(7) 0.4209(4) 0.5602(7)
H13_2 H 0.1654 0.4144 0.6092
C18_2 C 0.1160(9) 0.3204(5) 0.5421(7)
H14_2 H 0.1713 0.3012 0.5588
H15_2 H 0.0873 0.2989 0.5045
H16_2 H 0.0721 0.3246 0.5808
C19_2 C 0.1374(8) 0.6303(5) 0.7271(7)
C20_2 C 0.1567(7) 0.8404(4) 0.7216(6)
C21_2 C 0.0949(6) 0.6873(3) 0.7445(6)
C22_2 C 0.1437(8) 0.7358(5) 0.7264(6)
H17_2 H 0.2024 0.7334 0.7044
C23_2 C 0.1040(7) 0.7884(4) 0.7414(6)
C24_2 C 0.0161(7) 0.7914(4) 0.7736(6)
C26_2 C 0.0068(7) 0.6904(4) 0.7771(6)
C37_2 C 0.1037(7) 0.3695(4) 0.7617(5)
C38_2 C 0.0987(8) 0.1588(4) 0.7637(5)
C39_2 C 0.1499(7) 0.3146(4) 0.7436(6)
C40_2 C 0.1072(8) 0.2650(5) 0.7611(6)
H29_2 H 0.0492 0.2662 0.7843
C41_2 C 0.1460(7) 0.2137(4) 0.7460(6)
C42_2 C 0.2346(7) 0.2116(5) 0.7115(6)
H30_2 H 0.2612 0.1771 0.6996
C43_2 C 0.2811(8) 0.2607(5) 0.6955(8)
C44_2 C 0.2375(7) 0.3117(4) 0.7111(6)
H31_2 H 0.2682 0.3450 0.6994
C45_2 C 0.3766(9) 0.2594(5) 0.6593(8)
H32_2 H 0.3952 0.2210 0.6516
H33_2 H 0.4223 0.2777 0.6892
H34_2 H 0.3729 0.2785 0.6142
C46_2 C 0.4913(8) 0.5382(5) 0.4100(7)
C47_2 C 0.4306(8) 0.4604(5) 0.6536(6)
C48_2 C 0.4575(7) 0.4903(4) 0.4570(6)
C49_2 C 0.4541(7) 0.4974(5) 0.5303(6)
H35_2 H 0.4708 0.5321 0.5496
C50_2 C 0.4267(8) 0.4550(5) 0.5753(7)
C51_2 C 0.4012(8) 0.4023(5) 0.5433(6)
H36_2 H 0.3828 0.3728 0.5728
C52_2 C 0.4028(8) 0.3940(5) 0.4719(6)
C53_2 C 0.4333(7) 0.4383(5) 0.4291(7)
H37_2 H 0.4376 0.4328 0.3800
C54_2 C 0.3760(8) 0.3383(5) 0.4413(7)
H38_2 H 0.3128 0.3290 0.4555
H39_2 H 0.3795 0.3399 0.3901
H40_2 H 0.4186 0.3099 0.4587
Zn11_2 Zn 0.30207(8) 0.90776(5) 0.69318(6)
O34_2 O 0.4848(4) 0.6639(3) 0.2905(4)
H41_2 H 0.721561 0.571632 0.318022
H42_2 H 0.708739 0.638265 0.30209
H18_2 H 0.9889 0.8265 0.7817
C25_2 C 0.9675(9) 0.7427(4) 0.7940(10)
H19_2 H 0.9739 0.6576 0.7877
C27_2 C 0.8714(10) 0.7479(4) 0.8295(11)
H20_2 H 0.8391 0.7802 0.8108
H21_2 H 0.8794 0.7521 0.8801
H22_2 H 0.8350 0.7147 0.8199
C28_2 C 0.9534(7) 0.4564(4) 0.6528(6)
C29_2 C 0.9876(7) 0.5168(4) 0.3974(6)
C30_2 C 0.9369(7) 0.4469(5) 0.5767(6)
C31_2 C 0.9641(7) 0.4874(5) 0.5242(6)
H23_2 H 0.9890 0.5218 0.5388
C32_2 C 0.9538(7) 0.4762(5) 0.4512(6)
C33_2 C 0.9189(7) 0.4231(5) 0.4305(7)
H24_2 H 0.9133 0.4149 0.3820
C34_2 C 0.8925(8) 0.3826(5) 0.4801(6)
C35_2 C 0.9004(8) 0.3951(5) 0.5499(6)
H25_2 H 0.8807 0.3682 0.5829
C36_2 C 0.8591(8) 0.3258(4) 0.4553(6)
H26_2 H 0.9065 0.2981 0.4655
H27_2 H 0.8476 0.3269 0.4048
H28_2 H 0.8018 0.3162 0.4798
Zn8_2 Zn 0.94696(8) 0.09152(5) 0.79438(6)
Zn1_3 Zn 0.18291(8) 0.07201(5) 0.18806(6)
Zn2_2 Zn 0.37827(9) 0.00037(6) 0.24298(12)
O1_3 O 0.1666(6) 0.0752(3) 0.2928(6)
O2_3 O 0.2654(5) 0.0035(3) 0.3135(4)
O5_3 O 0.2729(5) 0.0064(3) 0.1560(4)
O6_3 O 0.2354(6) 0.0620(3) 0.0677(4)
O9_3 O 0.2843(5) 0.1330(3) 0.1921(5)
O10_3 O 0.4032(5) 0.0870(3) 0.2461(4)
O12_3 O 0.3782(6) 0.3870(3) 0.2353(6)
O23_3 O 0.0663(5) 0.0095(3) 0.1813(4)
O25_3 O 0.0874(6) 0.1285(3) 0.1543(5)
H1_3 H 0.0999 0.1625 0.1435
H2_3 H 0.0336 0.1276 0.1743
C1_3 C 0.2073(8) 0.0420(5) 0.3330(6)
C3_3 C 0.1908(7) 0.0481(5) 0.4142(6)
C4_3 C 0.2192(7) 0.0054(5) 0.4581(6)
C5_3 C 0.2122(8) 0.0124(5) 0.5317(7)
C6_3 C 0.1778(7) 0.0619(5) 0.5597(7)
H6_3 H 0.1742 0.0663 0.6090
C7_3 C 0.1486(8) 0.1055(5) 0.5155(6)
C8_3 C 0.1536(8) 0.0968(5) 0.4398(6)
H7_3 H 0.1315 0.1242 0.4085
C9_3 C 0.1174(8) 0.1617(5) 0.5483(7)
H8_3 H 0.1719 0.1821 0.5644
H9_3 H 0.0846 0.1835 0.5130
H10_3 H 0.0763 0.1546 0.5881
C10_3 C 0.2696(8) 0.0170(5) 0.0883(6)
C19_3 C 0.3626(8) 0.1303(5) 0.2271(7)
C20_3 C 0.3433(7) 0.3404(4) 0.2216(6)
C21_3 C 0.4051(6) 0.1873(3) 0.2445(6)
C22_3 C 0.3563(8) 0.2358(5) 0.2264(6)
H17_3 H 0.2976 0.2334 0.2044
C23_3 C 0.3960(7) 0.2884(4) 0.2414(6)
C24_3 C 0.4839(7) 0.2914(4) 0.2736(6)
H18_3 H 0.5111 0.3265 0.2817
C25_3 C 0.5325(9) 0.2427(4) 0.2940(10)
C26_3 C 0.4932(7) 0.1904(4) 0.2771(6)
H19_3 H 0.5261 0.1576 0.2877
C27_3 C 0.6286(10) 0.2479(4) 0.3295(11)
H20_3 H 0.6609 0.2802 0.3108
H21_3 H 0.6206 0.2521 0.3801
H22_3 H 0.6650 0.2147 0.3199
H23_3 H 0.5110 0.0218 0.0388
H35_3 H 0.0292 0.0321 0.0496
Zn3_2 Zn 0.42661(9) 0.07110(5) 0.80159(6)
O7_3 O 0.3061(5) 0.0038(3) 0.8144(4)
O15_2 O 0.5180(5) 0.0061(3) 0.8323(4)
O16_3 O 0.4715(5) 0.0609(3) 0.9185(4)
O21_3 O 0.0000(5) 0.0266(3) 0.8446(4)
O26_3 O 0.3194(6) 0.1227(4) 0.8277(4)
H3_3 H 0.2737 0.1194 0.7986
H4_3 H 0.2968 0.1243 0.8697
H11_3 H 0.2801 0.0198 0.9470
C29_3 C 0.5124(7) 0.0168(4) 0.8974(6)
C46_3 C 0.0087(8) 0.0382(5) 0.9100(7)
O31_2 O 0.4099(6) 0.0740(3) 0.6959(6)
O33_2 O 0.5268(5) 0.1338(3) 0.7959(4)
O3_3 O 0.2619(7) 0.9176(3) 0.5554(4)
O4_3 O 0.2511(5) 0.9760(3) 0.6470(4)
O13_3 O 0.4888(5) 0.9944(3) 0.1705(4)
O14_2 O 0.5901(6) 0.9260(3) 0.1959(6)
O17_3 O 0.3578(5) 0.9146(3) 0.2427(4)
O18_2 O 0.4732(5) 0.8662(3) 0.2959(4)
O20_3 O 0.3616(6) 0.6138(3) 0.2553(5)
O24_2 O 0.0732(6) 0.9170(4) 0.1907(6)
O28_3 O 0.4310(5) 0.8930(3) 0.6535(4)
C2_3 C 0.2443(8) 0.9642(5) 0.5792(6)
H5_3 H 0.2428 0.9721 0.4390
C12_3 C 0.3025(7) 0.9734(5) 0.0352(6)
C16_3 C 0.3562(8) 0.8788(5) 0.0136(6)
C17_3 C 0.3317(7) 0.9209(4) 0.0602(7)
H13_3 H 0.3346 0.9144 0.1092
C18_3 C 0.3840(9) 0.8204(5) 0.0421(7)
H14_3 H 0.3287 0.8012 0.0588
H15_3 H 0.4127 0.7989 0.0045
H16_3 H 0.4279 0.8246 0.0808
C28_3 C 0.5466(7) 0.9564(4) 0.1528(6)
C30_3 C 0.5631(7) 0.9469(5) 0.0767(6)
C31_3 C 0.5359(7) 0.9874(5) 0.0242(6)
C35_3 C 0.5996(8) 0.8951(5) 0.0499(6)
H25_3 H 0.6193 0.8682 0.0829
C37_3 C 0.3963(7) 0.8695(4) 0.2617(5)
C38_3 C 0.4013(8) 0.6588(4) 0.2637(5)
C39_3 C 0.3501(7) 0.8146(4) 0.2436(6)
C40_3 C 0.3928(8) 0.7650(5) 0.2611(6)
H29_3 H 0.4508 0.7662 0.2843
C41_3 C 0.3540(7) 0.7137(4) 0.2460(6)
C42_3 C 0.2654(7) 0.7116(5) 0.2115(6)
H30_3 H 0.2388 0.6771 0.1996
C43_3 C 0.2189(8) 0.7607(5) 0.1955(8)
C44_3 C 0.2625(7) 0.8117(4) 0.2111(6)
H31_3 H 0.2318 0.8450 0.1994
C45_3 C 0.1234(9) 0.7594(5) 0.1593(8)
H32_3 H 0.1048 0.7210 0.1516
H33_3 H 0.0777 0.7777 0.1892
H34_3 H 0.1271 0.7785 0.1142
C47_3 C 0.0694(8) 0.9604(5) 0.1536(6)
C49_3 C 0.0459(7) 0.9974(5) 0.0303(6)
C50_3 C 0.0733(8) 0.9550(5) 0.0753(7)
C51_3 C 0.0988(8) 0.9023(5) 0.0433(6)
H36_3 H 0.1172 0.8728 0.0728
Zn7_2 Zn 0.57339(9) 0.92890(5) 0.30159(6)
O29_3 O 0.3307(6) 0.9121(4) 0.7949(6)
O32_2 O 0.4820(5) 0.9939(3) 0.3323(4)
H43_3 H 0.426624 0.887237 0.601042
H44_3 H 0.457736 0.858758 0.676184
C11_3 C 0.3197(7) 0.9553(6) 0.8354(7)
C13_3 C 0.2990(7) 0.9846(5) 0.9634(6)
C14_3 C 0.3238(7) 0.9428(5) 0.9158(6)
C15_3 C 0.3532(8) 0.8912(5) 0.9389(6)
H12_3 H 0.3712 0.8640 0.9059
C32_3 C 0.5462(7) 0.9762(5) 0.9512(6)
C33_3 C 0.5811(7) 0.9231(5) 0.9305(7)
H24_3 H 0.5867 0.9149 0.8820
C34_3 C 0.6075(8) 0.8826(5) 0.9801(6)
C36_3 C 0.6409(8) 0.8258(4) 0.9553(6)
H26_3 H 0.5935 0.7981 0.9655
H27_3 H 0.6524 0.8269 0.9048
H28_3 H 0.6982 0.8162 0.9798
C48_3 C 0.0425(7) 0.9903(4) 0.9570(6)
C52_3 C 0.0972(8) 0.8940(5) 0.9719(6)
C53_3 C 0.0667(7) 0.9383(5) 0.9291(7)
H37_3 H 0.0624 0.9328 0.8800
C54_3 C 0.1240(8) 0.8383(5) 0.9413(7)
H38_3 H 0.1872 0.8290 0.9555
H39_3 H 0.1205 0.8399 0.8901
H40_3 H 0.0814 0.8099 0.9587
Zn6_2 Zn 0.62173(9) 0.99963(6) 0.74298(12)
O21_4 O 1.0000(5) 0.0266(3) 0.8446(4)
O22_3 O 0.9903(6) 0.0856(3) 0.9358(5)
O27_3 O 0.8179(5) 0.1053(3) 0.8277(4)
O35_2 O 0.9268(6) 0.0830(4) 0.6907(6)
H41_3 H 0.778439 0.0716318 0.818022
H42_3 H 0.791261 0.138265 0.80209
O21_5 O -0.0000(5) 0.9734(3) 0.3446(4)
O22_4 O 0.0097(6) 0.9144(3) 0.4358(5)
O27_4 O 0.1821(5) 0.8947(3) 0.3277(4)
H41_4 H 0.221561 0.928368 0.318022
H42_4 H 0.208739 0.861735 0.30209
O3_4 O 0.7381(7) 0.0824(3) 0.0554(4)
O4_4 O 0.7489(5) 0.0240(3) 0.1470(4)
O28_4 O 0.5690(5) 0.1070(3) 0.1535(4)
C2_4 C 0.7557(8) 0.0358(5) 0.0792(6)
O29_4 O 0.6693(6) 0.0879(4) 0.2949(6)
H43_4 H 0.573376 0.112763 0.101042
H44_4 H 0.542264 0.141242 0.176184
O13_4 O 0.5112(5) 0.0056(3) 0.6705(4)
O17_4 O 0.6422(5) 0.0854(3) 0.7427(4)
O20_4 O 0.6384(6) 0.3862(3) 0.7553(5)
H5_4 H 0.7572 0.0279 0.9390
C11_4 C 0.6803(7) 0.0447(6) 0.3354(7)
C12_4 C 0.6975(7) 0.0266(5) 0.5352(6)
C13_4 C 0.7010(7) 0.0154(5) 0.4634(6)
C14_4 C 0.6762(7) 0.0572(5) 0.4158(6)
C15_4 C 0.6468(8) 0.1088(5) 0.4389(6)
H12_4 H 0.6288 0.1360 0.4059
C16_4 C 0.6438(8) 0.1212(5) 0.5136(6)
C17_4 C 0.6683(7) 0.0791(4) 0.5602(7)
H13_4 H 0.6654 0.0856 0.6092
C18_4 C 0.6160(9) 0.1796(5) 0.5421(7)
H14_4 H 0.6713 0.1988 0.5588
H15_4 H 0.5873 0.2011 0.5045
H16_4 H 0.5721 0.1754 0.5808
C28_4 C 0.4534(7) 0.0436(4) 0.6528(6)
C30_4 C 0.4369(7) 0.0531(5) 0.5767(6)
C31_4 C 0.4641(7) 0.0126(5) 0.5242(6)
C32_4 C 0.4538(7) 0.0238(5) 0.4512(6)
C33_4 C 0.4189(7) 0.0769(5) 0.4305(7)
H24_4 H 0.4133 0.0851 0.3820
C34_4 C 0.3925(8) 0.1174(5) 0.4801(6)
C35_4 C 0.4004(8) 0.1049(5) 0.5499(6)
H25_4 H 0.3807 0.1318 0.5829
C36_4 C 0.3591(8) 0.1742(4) 0.4553(6)
H26_4 H 0.4065 0.2019 0.4655
H27_4 H 0.3476 0.1731 0.4048
H28_4 H 0.3018 0.1838 0.4798
C37_4 C 0.6037(7) 0.1305(4) 0.7617(5)
C38_4 C 0.5987(8) 0.3412(4) 0.7637(5)
C39_4 C 0.6499(7) 0.1854(4) 0.7436(6)
C40_4 C 0.6072(8) 0.2350(5) 0.7611(6)
H29_4 H 0.5492 0.2338 0.7843
C41_4 C 0.6460(7) 0.2863(4) 0.7460(6)
C42_4 C 0.7346(7) 0.2884(5) 0.7115(6)
H30_4 H 0.7612 0.3229 0.6996
C43_4 C 0.7811(8) 0.2393(5) 0.6955(8)
C44_4 C 0.7375(7) 0.1883(4) 0.7111(6)
H31_4 H 0.7682 0.1550 0.6994
C45_4 C 0.8766(9) 0.2406(5) 0.6593(8)
H32_4 H 0.8952 0.2790 0.6516
H33_4 H 0.9223 0.2223 0.6892
H34_4 H 0.8729 0.2215 0.6142
C47_4 C 0.9306(8) 0.0396(5) 0.6536(6)
C48_4 C 0.9575(7) 0.0097(4) 0.4570(6)
C49_4 C 0.9541(7) 0.0026(5) 0.5303(6)
C50_4 C 0.9267(8) 0.0450(5) 0.5753(7)
C51_4 C 0.9012(8) 0.0977(5) 0.5433(6)
H36_4 H 0.8828 0.1272 0.5728
C52_4 C 0.9028(8) 0.1060(5) 0.4719(6)
C53_4 C 0.9333(7) 0.0617(5) 0.4291(7)
H37_4 H 0.9376 0.0672 0.3800
C54_4 C 0.8760(8) 0.1617(5) 0.4413(7)
H38_4 H 0.8128 0.1710 0.4555
H39_4 H 0.8795 0.1601 0.3901
H40_4 H 0.9186 0.1901 0.4587
Zn1_4 Zn 0.81709(8) 0.92799(5) 0.68806(6)
O1_4 O 0.8334(6) 0.9248(3) 0.7928(6)
O2_4 O 0.7346(5) 0.9965(3) 0.8135(4)
O5_4 O 0.7271(5) 0.9936(3) 0.6560(4)
O6_4 O 0.7646(6) 0.9380(3) 0.5677(4)
O7_4 O 0.6939(5) 0.9962(3) 0.3144(4)
O9_4 O 0.7157(5) 0.8670(3) 0.6921(5)
O10_4 O 0.5968(5) 0.9130(3) 0.7461(4)
O12_4 O 0.6218(6) 0.6130(3) 0.7353(6)
O16_4 O 0.5285(5) 0.9391(3) 0.4185(4)
O21_6 O 1.0000(5) 0.9734(3) 0.3446(4)
O23_4 O 0.9337(5) 0.9905(3) 0.6813(4)
O25_4 O 0.9126(6) 0.8715(3) 0.6543(5)
H1_4 H 0.9001 0.8375 0.6435
H2_4 H 0.9664 0.8724 0.6743
O26_4 O 0.6806(6) 0.8773(4) 0.3277(4)
H3_4 H 0.7263 0.8806 0.2986
H4_4 H 0.7032 0.8757 0.3697
C1_4 C 0.7927(8) 0.9580(5) 0.8330(6)
C3_4 C 0.8092(7) 0.9519(5) 0.9142(6)
C4_4 C 0.7808(7) 0.9946(5) 0.9581(6)
C8_4 C 0.8464(8) 0.9032(5) 0.9398(6)
H7_4 H 0.8685 0.8758 0.9085
C10_4 C 0.7304(8) 0.9830(5) 0.5883(6)
H11_4 H 0.7199 0.9802 0.4470
C19_4 C 0.6374(8) 0.8697(5) 0.7271(7)
C20_4 C 0.6567(7) 0.6596(4) 0.7216(6)
C21_4 C 0.5949(6) 0.8127(3) 0.7445(6)
C22_4 C 0.6437(8) 0.7642(5) 0.7264(6)
H17_4 H 0.7024 0.7666 0.7044
C23_4 C 0.6040(7) 0.7116(4) 0.7414(6)
C24_4 C 0.5161(7) 0.7086(4) 0.7736(6)
H18_4 H 0.4889 0.6735 0.7817
C25_4 C 0.4675(9) 0.7573(4) 0.7940(10)
C26_4 C 0.5068(7) 0.8096(4) 0.7771(6)
H19_4 H 0.4739 0.8424 0.7877
C27_4 C 0.3714(10) 0.7521(4) 0.8295(11)
H20_4 H 0.3391 0.7198 0.8108
H21_4 H 0.3794 0.7479 0.8801
H22_4 H 0.3350 0.7853 0.8199
C29_4 C 0.4876(7) 0.9832(4) 0.3974(6)
H23_4 H 0.4890 0.9782 0.5388
C46_4 C 0.9913(8) 0.9618(5) 0.4100(7)
H35_4 H 0.9708 0.9679 0.5496
C5_4 C 0.7878(8) 0.9876(5) 0.0317(7)
C6_4 C 0.8222(7) 0.9381(5) 0.0597(7)
H6_4 H 0.8258 0.9337 0.1090
C7_4 C 0.8514(8) 0.8945(5) 0.0155(6)
C9_4 C 0.8826(8) 0.8383(5) 0.0483(7)
H8_4 H 0.8281 0.8179 0.0644
H9_4 H 0.9154 0.8165 0.0130
H10_4 H 0.9237 0.8454 0.0881
K1 K 0.8756(2) 0.00043(13) 0.2449(3)
K1_2 K 0.1244(2) 0.99957(13) 0.7449(3)
K1_3 K 0.3756(2) 0.49957(13) 0.2449(3)
K1_4 K 0.6244(2) 0.50043(13) 0.7449(3)
loop_
_geom_bond_atom_site_label_1
_geom_bond_atom_site_label_2
_geom_bond_site_symmetry_1
_geom_bond_site_symmetry_2
O14 C28 1_555 1_555
C27 C25 1_555 1_555
H20 C27 1_555 1_555
H21 C27 1_555 1_555
H22 C27 1_555 1_555
C30 C28 1_555 1_555
C31 C30 1_555 1_555
H23 C31 1_555 1_555
C35 C30 1_555 1_555
H25 C35 1_555 1_555
Zn7 O14 1_555 1_555
C29 O15 1_555 1_555
C32 C29 1_555 1_555
C33 C32 1_555 1_555
H24 C33 1_555 1_555
C34 C33 1_555 1_555
C36 C34 1_555 1_555
H26 C36 1_555 1_555
H27 C36 1_555 1_555
H28 C36 1_555 1_555
Zn6 O15 1_555 1_555
Zn1 O1 1_555 1_555
Zn2 O2 1_555 1_555
Zn5 O4 1_555 1_555
O1 C1 1_555 1_555
O2 C1 1_555 1_555
O3 C2 1_555 1_555
O4 C2 1_555 1_555
O5 Zn1 1_555 1_555
O6 Zn1 1_555 1_555
O9 Zn1 1_555 1_555
O10 Zn2 1_555 1_555
O11 C20 1_555 1_555
O12 C20 1_555 1_555
O13 Zn2 1_555 1_555
O17 Zn2 1_555 1_555
O18 C37 1_555 1_555
O19 C38 1_555 1_555
O20 C38 1_555 1_555
O23 Zn1 1_555 1_555
O24 C47 1_555 1_555
O25 Zn1 1_555 1_555
H1 O25 1_555 1_555
H2 O25 1_555 1_555
O28 Zn5 1_555 1_555
C1 C3 1_555 1_555
C2 C5 1_555 1_555
C3 C4 1_555 1_555
C4 H5 1_555 1_555
C5 C4 1_555 1_555
C6 C5 1_555 1_555
H6 C6 1_555 1_555
C7 C6 1_555 1_555
C8 C3 1_555 1_555
H7 C8 1_555 1_555
C9 C7 1_555 1_555
H8 C9 1_555 1_555
H9 C9 1_555 1_555
H10 C9 1_555 1_555
C10 O5 1_555 1_555
C12 C10 1_555 1_555
C17 C12 1_555 1_555
H13 C17 1_555 1_555
C18 C16 1_555 1_555
H14 C18 1_555 1_555
H15 C18 1_555 1_555
H16 C18 1_555 1_555
C19 O9 1_555 1_555
C20 C23 1_555 1_555
C21 C19 1_555 1_555
C22 C21 1_555 1_555
H17 C22 1_555 1_555
C23 C22 1_555 1_555
C24 C23 1_555 1_555
C26 C21 1_555 1_555
C37 O17 1_555 1_555
C38 C41 1_555 1_555
C39 C37 1_555 1_555
C40 C39 1_555 1_555
H29 C40 1_555 1_555
C41 C40 1_555 1_555
C42 C41 1_555 1_555
H30 C42 1_555 1_555
C43 C42 1_555 1_555
C44 C39 1_555 1_555
H31 C44 1_555 1_555
C45 C43 1_555 1_555
H32 C45 1_555 1_555
H33 C45 1_555 1_555
H34 C45 1_555 1_555
C47 O23 1_555 1_555
C49 H35 1_555 1_555
C50 C47 1_555 1_555
C51 C50 1_555 1_555
H36 C51 1_555 1_555
Zn9 O24 1_555 1_555
Zn11 O11 1_555 1_555
O29 Zn5 1_555 1_555
O30 Zn5 1_555 1_555
O32 Zn2 1_555 1_555
Zn2 O5 1_555 1_555
O6 C10 1_555 1_555
O10 C19 1_555 1_555
C7 C8 1_555 1_555
C16 C17 1_555 1_555
C43 C44 1_555 1_555
C49 C50 1_555 1_555
O28 H43 1_555 1_555
O28 H44 1_555 1_555
Zn3 O7 1_555 1_555
Zn4 O21 1_555 1_555
O7 C11 1_555 1_555
O29 C11 1_555 1_555
O16 Zn3 1_555 1_555
O21 C46 1_555 1_555
O22 C46 1_555 1_555
O26 Zn3 1_555 1_555
H3 O26 1_555 1_555
H4 O26 1_555 1_555
O27 Zn4 1_555 1_555
C11 C14 1_555 1_555
H11 C13 1_555 1_555
C14 C13 1_555 1_555
C15 C14 1_555 1_555
H12 C15 1_555 1_555
C46 C48 1_555 1_555
C53 C48 1_555 1_555
H37 C53 1_555 1_555
C54 C52 1_555 1_555
H38 C54 1_555 1_555
H39 C54 1_555 1_555
H40 C54 1_555 1_555
O31 Zn3 1_555 1_555
O34 Zn4 1_555 1_555
O35 Zn4 1_555 1_555
C52 C53 1_555 1_555
O27 H41 1_555 1_555
O27 H42 1_555 1_555
Zn5_2 O4_2 1_555 1_555
O3_2 C2_2 1_555 1_555
O4_2 C2_2 1_555 1_555
O28_2 Zn5_2 1_555 1_555
C2_2 C5_2 1_555 1_555
C6_2 C5_2 1_555 1_555
H6_2 C6_2 1_555 1_555
C7_2 C6_2 1_555 1_555
C9_2 C7_2 1_555 1_555
H8_2 C9_2 1_555 1_555
H9_2 C9_2 1_555 1_555
H10_2 C9_2 1_555 1_555
O29_2 Zn5_2 1_555 1_555
O30_2 Zn5_2 1_555 1_555
O28_2 H43_2 1_555 1_555
O28_2 H44_2 1_555 1_555
Zn1_2 O1_2 1_555 1_555
Zn6 O2_2 1_555 1_555
Zn7 O7_2 1_555 1_555
Zn9 O21_2 1_555 1_555
O1_2 C1_2 1_555 1_555
O2_2 C1_2 1_555 1_555
O5_2 Zn1_2 1_555 1_555
O6_2 Zn1_2 1_555 1_555
O7_2 C11_2 1_555 1_555
O29_2 C11_2 1_555 1_555
O9_2 Zn1_2 1_555 1_555
O10_2 Zn6 1_555 1_555
O11_2 C20_2 1_555 1_555
O12_2 C20_2 1_555 1_555
O13_2 Zn6 1_555 1_555
O16_2 Zn7 1_555 1_555
O17_2 Zn6 1_555 1_555
O33 C37_2 1_555 1_555
O19_2 C38_2 1_555 1_555
O20_2 C38_2 1_555 1_555
O21_2 C46_2 1_555 1_555
O22_2 C46_2 1_555 1_555
O23_2 Zn1_2 1_555 1_555
O35 C47_2 1_555 1_555
O25_2 Zn1_2 1_555 1_555
H1_2 O25_2 1_555 1_555
H2_2 O25_2 1_555 1_555
O26_2 Zn7 1_555 1_555
H3_2 O26_2 1_555 1_555
H4_2 O26_2 1_555 1_555
O27_2 Zn9 1_555 1_555
C1_2 C3_2 1_555 1_555
C3_2 C4_2 1_555 1_555
C4_2 H5_2 1_555 1_555
C8_2 C3_2 1_555 1_555
H7_2 C8_2 1_555 1_555
C10_2 O5_2 1_555 1_555
C11_2 C14_2 1_555 1_555
C12_2 C10_2 1_555 1_555
C13_2 C12_2 1_555 1_555
H11_2 C13_2 1_555 1_555
C14_2 C13_2 1_555 1_555
C15_2 C14_2 1_555 1_555
H12_2 C15_2 1_555 1_555
C16_2 C15_2 1_555 1_555
C17_2 C12_2 1_555 1_555
H13_2 C17_2 1_555 1_555
C18_2 C16_2 1_555 1_555
H14_2 C18_2 1_555 1_555
H15_2 C18_2 1_555 1_555
H16_2 C18_2 1_555 1_555
C19_2 O9_2 1_555 1_555
C20_2 C23_2 1_555 1_555
C21_2 C19_2 1_555 1_555
C22_2 C21_2 1_555 1_555
H17_2 C22_2 1_555 1_555
C23_2 C22_2 1_555 1_555
C24_2 C23_2 1_555 1_555
C26_2 C21_2 1_555 1_555
C37_2 O17_2 1_555 1_555
C38_2 C41_2 1_555 1_555
C39_2 C37_2 1_555 1_555
C40_2 C39_2 1_555 1_555
H29_2 C40_2 1_555 1_555
C41_2 C40_2 1_555 1_555
C42_2 C41_2 1_555 1_555
H30_2 C42_2 1_555 1_555
C43_2 C42_2 1_555 1_555
C44_2 C39_2 1_555 1_555
H31_2 C44_2 1_555 1_555
C45_2 C43_2 1_555 1_555
H32_2 C45_2 1_555 1_555
H33_2 C45_2 1_555 1_555
H34_2 C45_2 1_555 1_555
C46_2 C48_2 1_555 1_555
C47_2 O23_2 1_555 1_555
C48_2 C49_2 1_555 1_555
C49_2 H35_2 1_555 1_555
C50_2 C47_2 1_555 1_555
C51_2 C50_2 1_555 1_555
H36_2 C51_2 1_555 1_555
C52_2 C51_2 1_555 1_555
C53_2 C48_2 1_555 1_555
H37_2 C53_2 1_555 1_555
C54_2 C52_2 1_555 1_555
H38_2 C54_2 1_555 1_555
H39_2 C54_2 1_555 1_555
H40_2 C54_2 1_555 1_555
Zn11_2 O11_2 1_555 1_555
O34_2 Zn9 1_555 1_555
Zn6 O5_2 1_555 1_555
O6_2 C10_2 1_555 1_555
O10_2 C19_2 1_555 1_555
C16_2 C17_2 1_555 1_555
C43_2 C44_2 1_555 1_555
C49_2 C50_2 1_555 1_555
C52_2 C53_2 1_555 1_555
O27_2 H41_2 1_555 1_555
O27_2 H42_2 1_555 1_555
O31 C28_2 1_555 1_555
C27_2 C25_2 1_555 1_555
H20_2 C27_2 1_555 1_555
H21_2 C27_2 1_555 1_555
H22_2 C27_2 1_555 1_555
C29_2 O32 1_555 1_555
C30_2 C28_2 1_555 1_555
C31_2 C30_2 1_555 1_555
H23_2 C31_2 1_555 1_555
C32_2 C29_2 1_555 1_555
C33_2 C32_2 1_555 1_555
H24_2 C33_2 1_555 1_555
C34_2 C33_2 1_555 1_555
C35_2 C30_2 1_555 1_555
H25_2 C35_2 1_555 1_555
C36_2 C34_2 1_555 1_555
H26_2 C36_2 1_555 1_555
H27_2 C36_2 1_555 1_555
H28_2 C36_2 1_555 1_555
C31_2 C32_2 1_555 1_555
C34_2 C35_2 1_555 1_555
Zn1_3 O1_3 1_555 1_555
Zn2_2 O2_3 1_555 1_555
O1_3 C1_3 1_555 1_555
O2_3 C1_3 1_555 1_555
O5_3 Zn1_3 1_555 1_555
O6_3 Zn1_3 1_555 1_555
O9_3 Zn1_3 1_555 1_555
O10_3 Zn2_2 1_555 1_555
O30_2 C20_3 1_555 1_555
O12_3 C20_3 1_555 1_555
O23_3 Zn1_3 1_555 1_555
O25_3 Zn1_3 1_555 1_555
H1_3 O25_3 1_555 1_555
H2_3 O25_3 1_555 1_555
C1_3 C3_3 1_555 1_555
C3_3 C4_3 1_555 1_555
C5_3 C4_3 1_555 1_555
C6_3 C5_3 1_555 1_555
H6_3 C6_3 1_555 1_555
C7_3 C6_3 1_555 1_555
C8_3 C3_3 1_555 1_555
H7_3 C8_3 1_555 1_555
C9_3 C7_3 1_555 1_555
H8_3 C9_3 1_555 1_555
H9_3 C9_3 1_555 1_555
H10_3 C9_3 1_555 1_555
C10_3 O5_3 1_555 1_555
C19_3 O9_3 1_555 1_555
C20_3 C23_3 1_555 1_555
C21_3 C19_3 1_555 1_555
C22_3 C21_3 1_555 1_555
H17_3 C22_3 1_555 1_555
C23_3 C22_3 1_555 1_555
C24_3 C23_3 1_555 1_555
H18_3 C24_3 1_555 1_555
C25_3 C24_3 1_555 1_555
C26_3 C21_3 1_555 1_555
H19_3 C26_3 1_555 1_555
C27_3 C25_3 1_555 1_555
H20_3 C27_3 1_555 1_555
H21_3 C27_3 1_555 1_555
H22_3 C27_3 1_555 1_555
Zn2_2 O5_3 1_555 1_555
O6_3 C10_3 1_555 1_555
O10_3 C19_3 1_555 1_555
C7_3 C8_3 1_555 1_555
C25_3 C26_3 1_555 1_555
Zn3_2 O7_3 1_555 1_555
O15_2 Zn3_2 1_555 1_555
O16_3 Zn3_2 1_555 1_555
O21_3 C46_3 1_555 1_555
O26_3 Zn3_2 1_555 1_555
H3_3 O26_3 1_555 1_555
H4_3 O26_3 1_555 1_555
C29_3 O15_2 1_555 1_555
O31_2 Zn3_2 1_555 1_555
O33_2 Zn3_2 1_555 1_555
O16_3 C29_3 1_555 1_555
Zn11_2 O4_3 1_555 1_555
O3_3 C2_3 1_555 1_555
O4_3 C2_3 1_555 1_555
O14_2 C28_3 1_555 1_555
O18_2 C37_3 1_555 1_555
O34_2 C38_3 1_555 1_555
O20_3 C38_3 1_555 1_555
O24_2 C47_3 1_555 1_555
O28_3 Zn11_2 1_555 1_555
C17_3 C12_3 1_555 1_555
H13_3 C17_3 1_555 1_555
C18_3 C16_3 1_555 1_555
H14_3 C18_3 1_555 1_555
H15_3 C18_3 1_555 1_555
H16_3 C18_3 1_555 1_555
C28_3 O13_3 1_555 1_555
C30_3 C28_3 1_555 1_555
C31_3 C30_3 1_555 1_555
C35_3 C30_3 1_555 1_555
H25_3 C35_3 1_555 1_555
C37_3 O17_3 1_555 1_555
C38_3 C41_3 1_555 1_555
C39_3 C37_3 1_555 1_555
C40_3 C39_3 1_555 1_555
H29_3 C40_3 1_555 1_555
C41_3 C40_3 1_555 1_555
C42_3 C41_3 1_555 1_555
H30_3 C42_3 1_555 1_555
C43_3 C42_3 1_555 1_555
C44_3 C39_3 1_555 1_555
H31_3 C44_3 1_555 1_555
C45_3 C43_3 1_555 1_555
H32_3 C45_3 1_555 1_555
H33_3 C45_3 1_555 1_555
H34_3 C45_3 1_555 1_555
C50_3 C47_3 1_555 1_555
C51_3 C50_3 1_555 1_555
H36_3 C51_3 1_555 1_555
Zn7_2 O14_2 1_555 1_555
Zn8 O24_2 1_555 1_555
O29_3 Zn11_2 1_555 1_555
O18_2 Zn7_2 1_555 1_555
C16_3 C17_3 1_555 1_555
C43_3 C44_3 1_555 1_555
C49_3 C50_3 1_555 1_555
Zn7_2 O32_2 1_555 1_555
O28_3 H43_3 1_555 1_555
O28_3 H44_3 1_555 1_555
O29_3 C11_3 1_555 1_555
C11_3 C14_3 1_555 1_555
C14_3 C13_3 1_555 1_555
C15_3 C14_3 1_555 1_555
H12_3 C15_3 1_555 1_555
C33_3 C32_3 1_555 1_555
H24_3 C33_3 1_555 1_555
C34_3 C33_3 1_555 1_555
C36_3 C34_3 1_555 1_555
H26_3 C36_3 1_555 1_555
H27_3 C36_3 1_555 1_555
H28_3 C36_3 1_555 1_555
C53_3 C48_3 1_555 1_555
H37_3 C53_3 1_555 1_555
C54_3 C52_3 1_555 1_555
H38_3 C54_3 1_555 1_555
H39_3 C54_3 1_555 1_555
H40_3 C54_3 1_555 1_555
C52_3 C53_3 1_555 1_555
Zn8_2 O21_4 1_555 1_555
O27_3 Zn8_2 1_555 1_555
O35_2 Zn8_2 1_555 1_555
O27_3 H41_3 1_555 1_555
O27_3 H42_3 1_555 1_555
Zn8 O21_5 1_555 1_555
O27_4 Zn8 1_555 1_555
O27_4 H41_4 1_555 1_555
O27_4 H42_4 1_555 1_555
Zn11 O4_4 1_555 1_555
O3_4 C2_4 1_555 1_555
O4_4 C2_4 1_555 1_555
O28_4 Zn11 1_555 1_555
O29_4 Zn11 1_555 1_555
O28_4 H43_4 1_555 1_555
O28_4 H44_4 1_555 1_555
O29_4 C11_4 1_555 1_555
O31_2 C28_4 1_555 1_555
O33_2 C37_4 1_555 1_555
O34 C38_4 1_555 1_555
O20_4 C38_4 1_555 1_555
O35_2 C47_4 1_555 1_555
C11_4 C14_4 1_555 1_555
C13_4 C12_4 1_555 1_555
C14_4 C13_4 1_555 1_555
C15_4 C14_4 1_555 1_555
H12_4 C15_4 1_555 1_555
C16_4 C15_4 1_555 1_555
C17_4 C12_4 1_555 1_555
H13_4 C17_4 1_555 1_555
C18_4 C16_4 1_555 1_555
H14_4 C18_4 1_555 1_555
H15_4 C18_4 1_555 1_555
H16_4 C18_4 1_555 1_555
C28_4 O13_4 1_555 1_555
C30_4 C28_4 1_555 1_555
C31_4 C30_4 1_555 1_555
C33_4 C32_4 1_555 1_555
H24_4 C33_4 1_555 1_555
C34_4 C33_4 1_555 1_555
C35_4 C30_4 1_555 1_555
H25_4 C35_4 1_555 1_555
C36_4 C34_4 1_555 1_555
H26_4 C36_4 1_555 1_555
H27_4 C36_4 1_555 1_555
H28_4 C36_4 1_555 1_555
C37_4 O17_4 1_555 1_555
C38_4 C41_4 1_555 1_555
C39_4 C37_4 1_555 1_555
C40_4 C39_4 1_555 1_555
H29_4 C40_4 1_555 1_555
C41_4 C40_4 1_555 1_555
C42_4 C41_4 1_555 1_555
H30_4 C42_4 1_555 1_555
C43_4 C42_4 1_555 1_555
C44_4 C39_4 1_555 1_555
H31_4 C44_4 1_555 1_555
C45_4 C43_4 1_555 1_555
H32_4 C45_4 1_555 1_555
H33_4 C45_4 1_555 1_555
H34_4 C45_4 1_555 1_555
C48_4 C49_4 1_555 1_555
C50_4 C47_4 1_555 1_555
C51_4 C50_4 1_555 1_555
H36_4 C51_4 1_555 1_555
C52_4 C51_4 1_555 1_555
C53_4 C48_4 1_555 1_555
H37_4 C53_4 1_555 1_555
C54_4 C52_4 1_555 1_555
H38_4 C54_4 1_555 1_555
H39_4 C54_4 1_555 1_555
H40_4 C54_4 1_555 1_555
C16_4 C17_4 1_555 1_555
C31_4 C32_4 1_555 1_555
C34_4 C35_4 1_555 1_555
C43_4 C44_4 1_555 1_555
C49_4 C50_4 1_555 1_555
C52_4 C53_4 1_555 1_555
Zn1_4 O1_4 1_555 1_555
Zn6_2 O2_4 1_555 1_555
Zn7_2 O7_4 1_555 1_555
O1_4 C1_4 1_555 1_555
O2_4 C1_4 1_555 1_555
O5_4 Zn1_4 1_555 1_555
O6_4 Zn1_4 1_555 1_555
O9_4 Zn1_4 1_555 1_555
O10_4 Zn6_2 1_555 1_555
O30 C20_4 1_555 1_555
O12_4 C20_4 1_555 1_555
O16_4 Zn7_2 1_555 1_555
O21_6 C46_4 1_555 1_555
O23_4 Zn1_4 1_555 1_555
O25_4 Zn1_4 1_555 1_555
H1_4 O25_4 1_555 1_555
H2_4 O25_4 1_555 1_555
O26_4 Zn7_2 1_555 1_555
H3_4 O26_4 1_555 1_555
H4_4 O26_4 1_555 1_555
C1_4 C3_4 1_555 1_555
C3_4 C4_4 1_555 1_555
C8_4 C3_4 1_555 1_555
H7_4 C8_4 1_555 1_555
C10_4 O5_4 1_555 1_555
C19_4 O9_4 1_555 1_555
C20_4 C23_4 1_555 1_555
C21_4 C19_4 1_555 1_555
C22_4 C21_4 1_555 1_555
H17_4 C22_4 1_555 1_555
C23_4 C22_4 1_555 1_555
C24_4 C23_4 1_555 1_555
H18_4 C24_4 1_555 1_555
C25_4 C24_4 1_555 1_555
C26_4 C21_4 1_555 1_555
H19_4 C26_4 1_555 1_555
C27_4 C25_4 1_555 1_555
H20_4 C27_4 1_555 1_555
H21_4 C27_4 1_555 1_555
H22_4 C27_4 1_555 1_555
C29_4 O32_2 1_555 1_555
Zn6_2 O5_4 1_555 1_555
O6_4 C10_4 1_555 1_555
O10_4 C19_4 1_555 1_555
O16_4 C29_4 1_555 1_555
C25_4 C26_4 1_555 1_555
C6_4 C5_4 1_555 1_555
H6_4 C6_4 1_555 1_555
C7_4 C6_4 1_555 1_555
C9_4 C7_4 1_555 1_555
H8_4 C9_4 1_555 1_555
H9_4 C9_4 1_555 1_555
H10_4 C9_4 1_555 1_555

#END
