
###############################################################################
#
# This file contains modified crystal structure data generated from the
# MOF subset of the Cambridge Structural Database (CSD) v543 
# hosted by the Cambridge Crystallographic Data Centre (CCDC).
#
# This work is licensed under the Creative Commons
# Attribution-NonCommercial-ShareAlike 4.0 International License.
# To view a copy of this license, visit
# http://creativecommons.org/licenses/by-nc-sa/4.0/
# or send a letter to
# Creative Commons, PO Box 1866, Mountain View, CA 94042, USA.
#
# CIF created using the CSD Python API on 29 September 2022
# The structure has been converted into the P1 space group
# The structure has a 3D framework
# The original CSD entry AMIZAZ is in the trigonal crystal system
# The framework has been calculated to contain at least 10.0% void space
# The void calculation uses a probe of radius 1.32A, grid spacing 0.4
# The framework is charged, counterions have been retained in the structure
#
###############################################################################

data_AMIZAZ
_chemical_formula_moiety         '(C12 H12 Ni8 O20 3-)n'
_symmetry_cell_setting           triclinic
_symmetry_space_group_name_H-M   'P 1'
_symmetry_Int_Tables_number      1
_space_group_name_Hall           'P 1'
loop_
_symmetry_equiv_pos_site_id
_symmetry_equiv_pos_as_xyz
1 x,y,z
_cell_length_a                   8.4309(2)
_cell_length_b                   8.4309(2)
_cell_length_c                   13.1419(3)
_cell_angle_alpha                90
_cell_angle_beta                 90
_cell_angle_gamma                120
_cell_volume                     808.978
loop_
_atom_site_label
_atom_site_type_symbol
_atom_site_fract_x
_atom_site_fract_y
_atom_site_fract_z
Ni1 Ni -0.0000 0.0000 0.5000
Ni2 Ni 0.3333 0.6667 0.2500
O1 O 0.21157(18) 0.20166(18) 0.41704(10)
O2 O 0.34095(19) 0.47269(18) 0.34194(10)
C1 C 0.2052(3) 0.3262(3) 0.37003(14)
H1 H 0.0875 0.3085 0.3542
O8 O 0.13174(26) 0.47269(18) 0.15806(10)
C4 C 0.1210(4) 0.3262(3) 0.12997(14)
H4 H 0.2210 0.3085 0.1458
O11 O 0.00991(25) 0.21157(18) 0.58296(10)
Ni3 Ni 0.0000 0.0000 0.0000
O14 O 0.52731(18) 0.86826(26) 0.34194(10)
O15 O 0.13174(26) 0.65905(19) 0.34194(10)
O16 O 0.52731(18) 0.65905(19) 0.15806(10)
O17 O 0.34095(19) 0.86826(26) 0.15806(10)
Ni3_2 Ni -0.0000 0.0000 1.0000
Ni1_2 Ni -0.0000 1.0000 0.5000
C3 C 0.1210(4) 0.7948(3) 0.37003(14)
H3 H 0.2210 0.9125 0.3542
Ni3_3 Ni 0.0000 1.0000 0.0000
O13 O 0.20166(18) 0.99009(25) 0.58296(10)
Ni3_4 Ni 0.0000 1.0000 1.0000
Ni1_3 Ni 1.0000 0.0000 0.5000
O3 O 0.79834(18) 0.00991(25) 0.41704(10)
O7 O 0.99009(25) 0.20166(18) 0.08296(10)
O12 O 0.86826(26) 0.34095(19) 0.65806(10)
C6 C 0.8790(4) 0.2052(3) 0.62997(14)
H6 H 0.7790 0.0875 0.6458
Ni3_5 Ni 1.0000 0.0000 0.0000
Ni7 Ni 0.6667 0.3333 0.7500
Ni3_6 Ni 1.0000 0.0000 1.0000
Ni1_4 Ni 1.0000 1.0000 0.5000
C2 C 0.6738(3) 0.8790(4) 0.37003(14)
H2 H 0.6915 0.7790 0.3542
O5 O 0.99009(25) 0.78843(18) 0.41704(10)
O9 O 0.78843(18) 0.79834(18) 0.58296(10)
O10 O 0.65905(19) 0.52731(18) 0.65806(10)
C5 C 0.7948(3) 0.6738(3) 0.62997(14)
H5 H 0.9125 0.6915 0.6458
Ni3_7 Ni 1.0000 1.0000 0.0000
Ni3_8 Ni 1.0000 1.0000 1.0000
O10_2 O 0.47269(18) 0.13174(26) 0.65806(10)
C5_2 C 0.3262(3) 0.1210(4) 0.62997(14)
H5_2 H 0.3085 0.2210 0.6458
O7_2 O 0.79834(18) 0.78843(31) 0.08296(10)
C4_2 C 0.6738(3) 0.7948(5) 0.12997(14)
H4_2 H 0.6915 0.9125 0.1458
O7_3 O 0.21157(31) 0.00991(25) 0.08296(10)
C4_3 C 0.2052(5) 0.8790(4) 0.12997(14)
H4_3 H 0.0875 0.7790 0.1458
O9_2 O 0.20166(18) 0.21157(18) 0.91704(10)
O10_3 O 0.47269(18) 0.34095(19) 0.84194(10)
C5_3 C 0.3262(3) 0.2052(3) 0.87003(14)
H5_3 H 0.3085 0.0875 0.8542
O13_2 O 0.00991(25) 0.79834(18) 0.91704(10)
O12_2 O 0.65905(19) 0.13174(26) 0.84194(10)
C6_2 C 0.7948(3) 0.1210(4) 0.87003(14)
H6_2 H 0.9125 0.2210 0.8542
O11_2 O 0.78843(18) 0.99009(25) 0.91704(10)
O10_4 O 0.86826(26) 0.52731(18) 0.84194(10)
C5_4 C 0.8790(4) 0.6738(3) 0.87003(14)
H5_4 H 0.7790 0.6915 0.8542
loop_
_geom_bond_atom_site_label_1
_geom_bond_atom_site_label_2
_geom_bond_site_symmetry_1
_geom_bond_site_symmetry_2
Ni1 O1 1_555 1_555
Ni2 O2 1_555 1_555
O1 C1 1_555 1_555
O2 C1 1_555 1_555
C1 H1 1_555 1_555
O8 Ni2 1_555 1_555
C4 O8 1_555 1_555
H4 C4 1_555 1_555
O11 Ni1 1_555 1_555
O14 Ni2 1_555 1_555
O15 Ni2 1_555 1_555
O16 Ni2 1_555 1_555
O17 Ni2 1_555 1_555
O15 C3 1_555 1_555
H3 C3 1_555 1_555
O13 Ni1_2 1_555 1_555
O3 Ni1_3 1_555 1_555
O12 C6 1_555 1_555
H6 C6 1_555 1_555
Ni3_5 O7 1_555 1_555
Ni7 O12 1_555 1_555
O14 C2 1_555 1_555
H2 C2 1_555 1_555
O5 Ni1_4 1_555 1_555
O9 Ni1_4 1_555 1_555
O10 C5 1_555 1_555
C5 O9 1_555 1_555
H5 C5 1_555 1_555
Ni7 O10 1_555 1_555
O10_2 C5_2 1_555 1_555
H5_2 C5_2 1_555 1_555
Ni7 O10_2 1_555 1_555
O7_2 C4_2 1_555 1_555
C4_2 O16 1_555 1_555
H4_2 C4_2 1_555 1_555
Ni3_7 O7_2 1_555 1_555
Ni3 O7_3 1_555 1_555
C4_3 O17 1_555 1_555
H4_3 C4_3 1_555 1_555
O9_2 Ni3_2 1_555 1_555
O10_3 C5_3 1_555 1_555
C5_3 O9_2 1_555 1_555
H5_3 C5_3 1_555 1_555
Ni7 O10_3 1_555 1_555
O13_2 Ni3_4 1_555 1_555
O12_2 C6_2 1_555 1_555
H6_2 C6_2 1_555 1_555
Ni7 O12_2 1_555 1_555
O11_2 Ni3_8 1_555 1_555
O10_4 C5_4 1_555 1_555
H5_4 C5_4 1_555 1_555
Ni7 O10_4 1_555 1_555

#END
