
###############################################################################
#
# This file contains modified crystal structure data generated from the
# MOF subset of the Cambridge Structural Database (CSD) v543 
# hosted by the Cambridge Crystallographic Data Centre (CCDC).
#
# This work is licensed under the Creative Commons
# Attribution-NonCommercial-ShareAlike 4.0 International License.
# To view a copy of this license, visit
# http://creativecommons.org/licenses/by-nc-sa/4.0/
# or send a letter to
# Creative Commons, PO Box 1866, Mountain View, CA 94042, USA.
#
# CIF created using the CSD Python API on 29 September 2022
# The structure has been converted into the P1 space group
# The structure has a 3D framework
# The original CSD entry AMOBAI is in the monoclinic crystal system
# The framework has been calculated to contain at least 10.0% void space
# The void calculation uses a probe of radius 1.32A, grid spacing 0.4
# The framework is charged, counterions have been retained in the structure
#
###############################################################################

data_AMOBAI
_chemical_formula_moiety         '(C296 H280 Cl4 Co10 N40 O40 8+)n'
_symmetry_cell_setting           triclinic
_symmetry_space_group_name_H-M   'P 1'
_symmetry_Int_Tables_number      1
_space_group_name_Hall           'P 1'
loop_
_symmetry_equiv_pos_site_id
_symmetry_equiv_pos_as_xyz
1 x,y,z
_cell_length_a                   19.7595(14)
_cell_length_b                   19.5016(10)
_cell_length_c                   23.101(2)
_cell_angle_alpha                90
_cell_angle_beta                 96.033(7)
_cell_angle_gamma                90
_cell_volume                     8852.48
loop_
_atom_site_label
_atom_site_type_symbol
_atom_site_fract_x
_atom_site_fract_y
_atom_site_fract_z
Cl2 Cl 0.2311(4) 0.0199(4) 0.7614(4)
N22 N 0.2419(9) 0.0640(9) 0.6197(9)
Co3 Co 0.21351(15) 0.98537(15) 0.67041(16)
H83 H 0.0153 0.6618 0.6919
C95 C 0.0697(9) 0.7754(11) 0.7679(11)
H91 H 0.0417 0.7879 0.7984
H92 H 0.1096 0.8047 0.7715
C96 C 0.0463(12) 0.6649(12) 0.8027(12)
C97 C 0.0622(11) 0.6526(10) 0.8619(11)
C98 C 0.0244(10) 0.6064(11) 0.8929(12)
C99 C 0.0047(13) 0.6303(10) 0.9955(12)
C111 C 0.1278(9) 0.6876(10) 0.8935(9)
H99 H 0.1174 0.7053 0.9308
H100 H 0.1403 0.7262 0.8704
C112 C 0.2093(9) 0.6049(10) 0.8626(10)
H101 H 0.1923 0.6083 0.8236
C113 C 0.2659(9) 0.5734(12) 0.9385(11)
C114 C 0.3143(13) 0.5483(19) 0.9796(16)
H102 H 0.3493 0.5207 0.9689
C118 C 0.2243(9) 0.6189(11) 0.9551(10)
C136 C 0.0754(9) 0.9496(10) 0.6982(9)
H122 H 0.0849 0.9686 0.7350
C137 C 0.0808(11) 0.9155(13) 0.6094(14)
C138 C 0.1046(16) 0.8960(16) 0.5548(19)
H123 H 0.1495 0.9050 0.5486
C139 C 0.0621(15) 0.864(2) 0.511(2)
H124 H 0.0767 0.8516 0.4758
C142 C 0.0149(13) 0.9013(13) 0.6220(11)
N11 N 0.1855(8) 0.6411(8) 0.9029(9)
N12 N 0.2581(9) 0.5640(9) 0.8803(9)
N17 N 0.0162(9) 0.9225(8) 0.6784(9)
N18 N 0.1185(8) 0.9464(9) 0.6601(10)
O11 O 0.0323(7) 0.7860(7) 0.7127(8)
O12 O 0.0898(7) 0.7073(7) 0.7750(8)
O13 O 0.0417(7) 0.5959(7) 0.9509(8)
Co7 Co 0.28649(15) 0.48537(15) 0.82959(16)
N23 N 0.2723(9) 0.9086(8) 0.6511(9)
Co2 Co 0.5000 0.0000 1.0000
H25 H 0.2899 0.2009 0.9938
C45 C 0.1408(11) 0.3057(11) 0.9502(10)
H36 H 0.0920 0.3026 0.9403
H37 H 0.1580 0.2595 0.9570
C46 C 0.1989(10) 0.3987(11) 0.8958(10)
H38 H 0.1970 0.4324 0.9241
C47 C 0.2224(9) 0.3447(11) 0.8192(13)
C48 C 0.2415(12) 0.3247(12) 0.7647(14)
H39 H 0.2628 0.3549 0.7413
C49 C 0.2271(16) 0.2581(15) 0.7477(13)
H40 H 0.2434 0.2426 0.7136
C50 C 0.1894(14) 0.2120(15) 0.7783(15)
H41 H 0.1806 0.1678 0.7643
C51 C 0.1660(15) 0.2331(12) 0.8284(15)
H42 H 0.1370 0.2052 0.8472
C52 C 0.1870(12) 0.3001(12) 0.8529(13)
C71 C 0.6309(19) 0.214(2) 0.976(2)
H61 H 0.6662 0.2471 0.9734
H62 H 0.5977 0.2312 0.9994
H63 H 0.6095 0.2039 0.9374
C72 C 0.4211(13) 0.1117(15) 0.9373(13)
H64 H 0.4454 0.1367 0.9669
C73 C 0.3766(17) 0.2230(17) 0.8970(18)
H65 H 0.3472 0.2374 0.8635
H66 H 0.4205 0.2438 0.8962
H67 H 0.3575 0.2369 0.9317
C74 C 0.3355(17) 0.1054(18) 0.8598(17)
H68 H 0.3097 0.1329 0.8309
H69 H 0.3052 0.0833 0.8838
H70 H 0.3606 0.0714 0.8410
N3 N 0.1715(8) 0.3352(10) 0.9006(8)
N4 N 0.2277(9) 0.4086(8) 0.8489(9)
N10 N 0.3834(11) 0.1497(12) 0.8964(10)
O4 O 0.0503(8) 0.4049(7) 0.9929(8)
O9 O 0.5715(10) 0.0824(10) 0.9935(9)
O10 O 0.4272(9) 0.0530(8) 0.9406(8)
Co2_2 Co 0.5000 1.0000 0.0000
H95 H 0.7101 0.7991 0.0062
C119 C 0.8592(11) 0.6943(11) 0.0498(10)
H106 H 0.9080 0.6974 0.0597
H107 H 0.8420 0.7405 0.0430
C120 C 0.8011(10) 0.6013(11) 0.1042(10)
H108 H 0.8030 0.5676 0.0759
C121 C 0.7776(9) 0.6553(11) 0.1808(13)
C122 C 0.7585(12) 0.6753(12) 0.2353(14)
H109 H 0.7372 0.6451 0.2587
C123 C 0.7729(16) 0.7419(15) 0.2523(13)
H110 H 0.7566 0.7574 0.2864
C124 C 0.8106(14) 0.7880(15) 0.2217(15)
H111 H 0.8194 0.8322 0.2357
C125 C 0.8340(15) 0.7669(12) 0.1716(15)
H112 H 0.8630 0.7948 0.1528
C126 C 0.8130(12) 0.6999(12) 0.1471(13)
C145 C 0.3691(19) 0.786(2) 0.024(2)
H131 H 0.3338 0.7529 0.0266
H132 H 0.4023 0.7688 0.0006
H133 H 0.3905 0.7961 0.0626
C146 C 0.5789(13) 0.8883(15) 0.0627(13)
H134 H 0.5546 0.8633 0.0331
C147 C 0.6234(17) 0.7770(17) 0.1030(18)
H135 H 0.6528 0.7626 0.1365
H136 H 0.5795 0.7562 0.1038
H137 H 0.6425 0.7631 0.0683
C148 C 0.6645(17) 0.8946(18) 0.1402(17)
H138 H 0.6903 0.8671 0.1691
H139 H 0.6948 0.9167 0.1162
H140 H 0.6394 0.9286 0.1590
N13 N 0.8285(8) 0.6648(10) 0.0994(8)
N14 N 0.7723(9) 0.5914(8) 0.1511(9)
N20 N 0.6166(11) 0.8503(12) 0.1036(10)
O14 O 0.9497(8) 0.5951(7) 0.0071(8)
O19 O 0.4285(10) 0.9176(10) 0.0065(9)
O20 O 0.5728(9) 0.9470(8) 0.0594(8)
Co5 Co 0.71351(15) 0.51463(15) 0.17041(16)
Co1 Co 0.78649(15) 0.01463(15) 0.32959(16)
H13 H 0.9847 0.3382 0.3081
C21 C 0.9303(9) 0.2246(11) 0.2321(11)
H21 H 0.9583 0.2121 0.2016
H22 H 0.8904 0.1953 0.2285
C22 C 0.9537(12) 0.3351(12) 0.1973(12)
C23 C 0.9378(11) 0.3474(10) 0.1381(11)
C24 C 0.9756(10) 0.3936(11) 0.1071(12)
C25 C 0.9953(13) 0.3697(10) 0.0045(12)
C37 C 0.8722(9) 0.3124(10) 0.1065(9)
H29 H 0.8826 0.2947 0.0692
H30 H 0.8597 0.2738 0.1296
C38 C 0.7907(9) 0.3951(10) 0.1374(10)
H31 H 0.8077 0.3917 0.1764
C39 C 0.7341(9) 0.4266(12) 0.0615(11)
C40 C 0.6857(13) 0.4517(19) 0.0204(16)
H32 H 0.6507 0.4793 0.0311
C44 C 0.7757(9) 0.3811(11) 0.0449(10)
C62 C 0.9246(9) 0.0504(10) 0.3018(9)
H52 H 0.9151 0.0314 0.2650
C63 C 0.9192(11) 0.0845(13) 0.3906(14)
C64 C 0.8954(16) 0.1040(16) 0.4452(19)
H53 H 0.8505 0.0950 0.4514
C65 C 0.9379(15) 0.136(2) 0.489(2)
H54 H 0.9233 0.1484 0.5242
C68 C 0.9851(13) 0.0987(13) 0.3780(11)
N1 N 0.8145(8) 0.3589(8) 0.0971(9)
N2 N 0.7419(9) 0.4360(9) 0.1197(9)
N7 N 0.9838(9) 0.0775(8) 0.3216(9)
N8 N 0.8815(8) 0.0536(9) 0.3399(10)
O1 O 0.9677(7) 0.2140(7) 0.2873(8)
O2 O 0.9102(7) 0.2927(7) 0.2250(8)
O3 O 0.9583(7) 0.4041(7) 0.0491(8)
N24 N 0.7277(9) 0.0914(8) 0.3489(9)
Cl1 Cl 0.7689(4) 0.9801(4) 0.2386(4)
N21 N 0.7581(9) 0.9360(9) 0.3803(9)
C2 C 0.3947(11) 0.0328(10) 0.3656(12)
H4 H 0.3689 0.0595 0.3904
H5 H 0.3659 0.0191 0.3315
H6 H 0.4318 0.0598 0.3543
Co2_3 Co 0.0000 0.5000 0.5000
Cl1_2 Cl 0.7311(4) 0.4801(4) 0.2614(4)
C1 C 0.4430(13) 0.9086(12) 0.1722(12)
H1 H 0.4731 0.9473 0.1772
H2 H 0.3997 0.9206 0.1846
H3 H 0.4371 0.8956 0.1319
C3 C 0.1586(12) 0.9153(10) 0.3389(12)
H7 H 0.1148 0.9029 0.3198
H8 H 0.1882 0.9280 0.3104
H9 H 0.1536 0.9533 0.3645
C4 C 0.2105(12) 0.7896(12) 0.1525(12)
H10 H 0.1619 0.7870 0.1522
H11 H 0.2225 0.7848 0.1135
H12 H 0.2263 0.8331 0.1680
C5 C 0.4729(11) 0.8497(10) 0.2081(11)
H13_2 H 0.5153 0.8382 0.1919
C6 C 0.4937(13) 0.8639(11) 0.2746(13)
C7 C 0.4550(11) 0.9090(12) 0.3019(14)
H14 H 0.4190 0.9309 0.2802
C8 C 0.4680(10) 0.9238(10) 0.3630(12)
C9 C 0.4217(11) 0.9716(11) 0.3971(11)
H15 H 0.4510 0.9886 0.4309
C10 C 0.3707(10) 0.9271(10) 0.4206(11)
C11 C 0.3103(11) 0.9108(11) 0.3924(11)
H16 H 0.3003 0.9290 0.3552
C12 C 0.2616(11) 0.8700(10) 0.4127(10)
C13 C 0.1897(12) 0.8528(11) 0.3750(12)
H17 H 0.1576 0.8423 0.4034
C14 C 0.1950(11) 0.7876(11) 0.3392(12)
C15 C 0.2125(8) 0.7903(9) 0.2835(10)
H18 H 0.2159 0.8323 0.2649
C16 C 0.2252(8) 0.7295(9) 0.2550(10)
C17 C 0.2441(10) 0.7310(11) 0.1910(10)
H19 H 0.2270 0.6880 0.1730
C18 C 0.3233(9) 0.7253(9) 0.1975(9)
C19 C 0.3623(9) 0.7838(10) 0.1990(9)
H20 H 0.3405 0.8261 0.1962
C20 C 0.4301(11) 0.7823(11) 0.2043(10)
C21_2 C 0.5697(9) 0.7246(11) 0.2679(11)
H21_2 H 0.5417 0.7121 0.2984
H22_2 H 0.6096 0.6953 0.2715
C22_2 C 0.5463(12) 0.8351(12) 0.3027(12)
C23_2 C 0.5622(11) 0.8474(10) 0.3619(11)
C24_2 C 0.5244(10) 0.8936(11) 0.3929(12)
C25_2 C 0.5047(13) 0.8697(10) 0.4955(12)
H23 H 0.4909 0.8243 0.4818
H24 H 0.5351 0.8645 0.5310
C26 C 0.3896(12) 0.8896(11) 0.4737(12)
C27 C 0.3458(11) 0.8449(12) 0.4964(11)
C28 C 0.2801(12) 0.8354(10) 0.4680(11)
C29 C 0.2227(13) 0.7272(12) 0.4733(11)
H25_2 H 0.2101 0.7009 0.5062
H26 H 0.2656 0.7094 0.4628
C30 C 0.1876(11) 0.7229(10) 0.3692(11)
C31 C 0.1993(11) 0.6637(9) 0.3389(10)
C32 C 0.2147(9) 0.6643(9) 0.2839(10)
C33 C 0.2899(10) 0.5793(11) 0.2464(11)
H27 H 0.3182 0.5946 0.2808
H28 H 0.2898 0.5295 0.2467
C34 C 0.3552(10) 0.6628(10) 0.2033(9)
C35 C 0.4244(9) 0.6595(9) 0.2099(9)
C36 C 0.4612(8) 0.7181(9) 0.2101(9)
C37_2 C 0.6278(9) 0.8124(10) 0.3935(9)
H29_2 H 0.6174 0.7947 0.4308
H30_2 H 0.6403 0.7738 0.3704
C38_2 C 0.7093(9) 0.8951(10) 0.3626(10)
H31_2 H 0.6923 0.8917 0.3236
C39_2 C 0.7659(9) 0.9266(12) 0.4385(11)
C40_2 C 0.8143(13) 0.9517(19) 0.4796(16)
H32_2 H 0.8493 0.9793 0.4689
C41 C 0.8100(14) 0.9346(18) 0.5407(15)
H33 H 0.8403 0.9544 0.5694
C42 C 0.7642(14) 0.8921(18) 0.5553(12)
H34 H 0.7614 0.8826 0.5944
C43 C 0.7178(11) 0.8594(14) 0.5119(13)
H35 H 0.6863 0.8266 0.5207
C44_2 C 0.7243(9) 0.8811(11) 0.4551(10)
C45_2 C 0.3592(11) 0.8057(11) 0.5498(10)
H36_2 H 0.4080 0.8026 0.5597
H37_2 H 0.3420 0.7595 0.5430
C46_2 C 0.3011(10) 0.8987(11) 0.6042(10)
H38_2 H 0.3030 0.9324 0.5759
C47_2 C 0.2776(9) 0.8447(11) 0.6808(13)
C48_2 C 0.2585(12) 0.8247(12) 0.7353(14)
H39_2 H 0.2372 0.8549 0.7587
C49_2 C 0.2729(16) 0.7581(15) 0.7523(13)
H40_2 H 0.2566 0.7426 0.7864
C50_2 C 0.3106(14) 0.7120(15) 0.7217(15)
H41_2 H 0.3194 0.6678 0.7357
C51_2 C 0.3340(15) 0.7331(12) 0.6716(15)
H42_2 H 0.3630 0.7052 0.6528
C52_2 C 0.3130(12) 0.8001(12) 0.6471(13)
C53 C 0.1897(10) 0.5931(10) 0.3669(10)
H43 H 0.2034 0.5574 0.3413
H44 H 0.2188 0.5901 0.4034
C54 C 0.1042(9) 0.5623(9) 0.4316(10)
H45 H 0.1352 0.5579 0.4646
C55 C 0.0078(13) 0.5677(10) 0.3755(11)
C59 C 0.0482(13) 0.6012(16) 0.2822(15)
H49 H 0.0829 0.6128 0.2598
C60 C 0.0606(10) 0.5858(9) 0.3407(9)
C61 C 0.4565(11) 0.5878(10) 0.2142(12)
H50 H 0.4718 0.5784 0.2547
H51 H 0.4216 0.5544 0.2017
C62_2 C 0.5754(9) 0.5504(10) 0.1982(9)
H52_2 H 0.5849 0.5314 0.2350
C63_2 C 0.5808(11) 0.5845(13) 0.1094(14)
C64_2 C 0.6046(16) 0.6040(16) 0.0548(19)
H53_2 H 0.6495 0.5950 0.0486
C65_2 C 0.5621(15) 0.636(2) 0.011(2)
C66 C 0.4922(15) 0.6487(17) 0.0256(15)
C67 C 0.4688(15) 0.6303(16) 0.0830(14)
H56 H 0.4248 0.6399 0.0916
C68_2 C 0.5149(13) 0.5987(13) 0.1220(11)
C72_2 C 0.0789(13) 0.6117(15) 0.5627(13)
H64_2 H 0.0546 0.6367 0.5331
C73_2 C 0.1234(17) 0.7230(17) 0.6030(18)
H65_2 H 0.1528 0.7374 0.6365
H66_2 H 0.0795 0.7438 0.6038
H67_2 H 0.1425 0.7369 0.5683
C74_2 C 0.1645(17) 0.6054(18) 0.6402(17)
H68_2 H 0.1903 0.6329 0.6691
H69_2 H 0.1948 0.5833 0.6162
H70_2 H 0.1394 0.5714 0.6590
N1_2 N 0.6855(8) 0.8589(8) 0.4029(9)
N3_2 N 0.3285(8) 0.8352(10) 0.5994(8)
N5 N 0.1205(7) 0.5822(8) 0.3776(9)
N6 N 0.0369(8) 0.5503(9) 0.4299(9)
N7_2 N 0.5162(9) 0.5775(8) 0.1784(9)
N8_2 N 0.6185(8) 0.5536(9) 0.1601(10)
N10_2 N 0.1166(11) 0.6497(12) 0.6036(10)
O1_2 O 0.5323(7) 0.7140(7) 0.2127(8)
O2_2 O 0.5898(7) 0.7927(7) 0.2750(8)
O3_2 O 0.5417(7) 0.9041(7) 0.4509(8)
O4_2 O 0.4497(8) 0.9049(7) 0.5071(8)
O5 O 0.2302(7) 0.7947(7) 0.4887(7)
O6 O 0.1702(9) 0.7194(7) 0.4240(8)
O7 O 0.2199(6) 0.6040(6) 0.2494(7)
O8 O 0.3181(7) 0.6018(6) 0.1975(7)
O10_2 O 0.0728(9) 0.5530(8) 0.5594(8)
C130 C 0.0606(11) 0.4346(14) 0.6531(14)
H116 H 0.0965 0.4467 0.6321
C131 C 0.0729(14) 0.4189(18) 0.7113(14)
H117 H 0.1170 0.4199 0.7299
C132 C 0.0198(15) 0.4020(15) 0.7412(16)
H118 H 0.0295 0.3916 0.7805
C143 C 0.1229(16) 0.4016(18) 0.5110(17)
H127 H 0.1434 0.4323 0.5383
C144 C 0.229(2) 0.350(2) 0.524(2)
H128 H 0.2493 0.3075 0.5135
H129 H 0.2518 0.3874 0.5073
H130 H 0.2330 0.3545 0.5654
C145_2 C 0.1309(19) 0.286(2) 0.476(2)
H131_2 H 0.1662 0.2529 0.4734
H132_2 H 0.0977 0.2688 0.4994
H133_2 H 0.1095 0.2961 0.4374
N19 N 0.1610(15) 0.3503(16) 0.5024(16)
O19_2 O 0.0715(10) 0.4176(10) 0.4935(9)
Co2_4 Co 1.0000 0.5000 0.5000
C56 C 0.9394(11) 0.5654(14) 0.3469(14)
H46 H 0.9035 0.5533 0.3679
C57 C 0.9271(14) 0.5811(18) 0.2887(14)
H47 H 0.8830 0.5801 0.2701
C58 C 0.9802(15) 0.5980(15) 0.2588(16)
H48 H 0.9705 0.6084 0.2195
C69 C 0.8771(16) 0.5984(18) 0.4890(17)
H57 H 0.8566 0.5677 0.4617
C70 C 0.771(2) 0.650(2) 0.476(2)
H58 H 0.7507 0.6925 0.4865
H59 H 0.7482 0.6126 0.4927
H60 H 0.7670 0.6455 0.4346
C71_2 C 0.8691(19) 0.714(2) 0.524(2)
H61_2 H 0.8338 0.7471 0.5266
H62_2 H 0.9023 0.7312 0.5006
H63_2 H 0.8905 0.7039 0.5626
N9 N 0.8390(15) 0.6497(16) 0.4976(16)
O9_2 O 0.9285(10) 0.5824(10) 0.5065(9)
Cl2_2 Cl 0.2689(4) 0.5199(4) 0.7386(4)
C75 C 0.5570(13) 0.0914(12) 0.8278(12)
H71 H 0.5269 0.0527 0.8228
H72 H 0.6003 0.0794 0.8154
H73 H 0.5629 0.1044 0.8681
C77 C 0.8414(12) 0.0847(10) 0.6611(12)
H77 H 0.8852 0.0971 0.6802
H78 H 0.8118 0.0720 0.6896
H79 H 0.8464 0.0467 0.6355
C78 C 0.7895(12) 0.2104(12) 0.8475(12)
H80 H 0.8381 0.2130 0.8478
H81 H 0.7775 0.2152 0.8865
H82 H 0.7737 0.1669 0.8320
C79 C 0.5271(11) 0.1503(10) 0.7919(11)
H83_2 H 0.4847 0.1618 0.8081
C80 C 0.5063(13) 0.1361(11) 0.7254(13)
C81 C 0.5450(11) 0.0910(12) 0.6981(14)
H84 H 0.5810 0.0691 0.7198
C82 C 0.5320(10) 0.0762(10) 0.6370(12)
C83 C 0.5783(11) 0.0284(11) 0.6029(11)
H85 H 0.5490 0.0114 0.5691
C84 C 0.6293(10) 0.0729(10) 0.5794(11)
C85 C 0.6897(11) 0.0892(11) 0.6076(11)
H86 H 0.6997 0.0710 0.6448
C86 C 0.7384(11) 0.1300(10) 0.5873(10)
C87 C 0.8103(12) 0.1472(11) 0.6250(12)
H87 H 0.8424 0.1577 0.5966
C88 C 0.8050(11) 0.2124(11) 0.6608(12)
C89 C 0.7875(8) 0.2097(9) 0.7165(10)
H88 H 0.7841 0.1677 0.7351
C90 C 0.7748(8) 0.2705(9) 0.7450(10)
C91 C 0.7559(10) 0.2690(11) 0.8090(10)
H89 H 0.7730 0.3120 0.8270
C92 C 0.6767(9) 0.2747(9) 0.8025(9)
C93 C 0.6377(9) 0.2162(10) 0.8010(9)
H90 H 0.6595 0.1739 0.8038
C94 C 0.5699(11) 0.2177(11) 0.7957(10)
C95_2 C 0.4303(9) 0.2754(11) 0.7321(11)
H91_2 H 0.4583 0.2879 0.7016
H92_2 H 0.3904 0.3047 0.7285
C96_2 C 0.4537(12) 0.1649(12) 0.6973(12)
C97_2 C 0.4378(11) 0.1526(10) 0.6381(11)
C98_2 C 0.4756(10) 0.1064(11) 0.6071(12)
C99_2 C 0.4953(13) 0.1303(10) 0.5045(12)
H93 H 0.5091 0.1757 0.5182
H94 H 0.4649 0.1355 0.4690
C100 C 0.6104(12) 0.1104(11) 0.5263(12)
C101 C 0.6542(11) 0.1551(12) 0.5036(11)
C102 C 0.7199(12) 0.1646(10) 0.5320(11)
C103 C 0.7773(13) 0.2728(12) 0.5267(11)
H95_2 H 0.7899 0.2991 0.4938
H96 H 0.7344 0.2906 0.5372
C104 C 0.8124(11) 0.2771(10) 0.6308(11)
C105 C 0.8007(11) 0.3363(9) 0.6611(10)
C106 C 0.7853(9) 0.3357(9) 0.7161(10)
C107 C 0.7101(10) 0.4207(11) 0.7536(11)
H97 H 0.6818 0.4054 0.7192
H98 H 0.7102 0.4705 0.7533
C108 C 0.6448(10) 0.3372(10) 0.7967(9)
C109 C 0.5756(9) 0.3405(9) 0.7901(9)
C110 C 0.5388(8) 0.2819(9) 0.7899(9)
C111_2 C 0.3722(9) 0.1876(10) 0.6065(9)
H99_2 H 0.3826 0.2053 0.5692
H100_2 H 0.3597 0.2262 0.6296
C112_2 C 0.2907(9) 0.1049(10) 0.6374(10)
H101_2 H 0.3077 0.1083 0.6764
C113_2 C 0.2341(9) 0.0734(12) 0.5615(11)
C114_2 C 0.1857(13) 0.0483(19) 0.5204(16)
H102_2 H 0.1507 0.0207 0.5311
C115 C 0.1900(14) 0.0654(18) 0.4593(15)
H103 H 0.1597 0.0456 0.4306
C116 C 0.2358(14) 0.1079(18) 0.4447(12)
H104 H 0.2386 0.1174 0.4056
C117 C 0.2822(11) 0.1406(14) 0.4881(13)
H105 H 0.3137 0.1734 0.4793
C118_2 C 0.2757(9) 0.1189(11) 0.5449(10)
C119_2 C 0.6408(11) 0.1943(11) 0.4502(10)
H106_2 H 0.5920 0.1974 0.4403
H107_2 H 0.6580 0.2405 0.4570
C120_2 C 0.6989(10) 0.1013(11) 0.3958(10)
H108_2 H 0.6970 0.0676 0.4241
C121_2 C 0.7224(9) 0.1553(11) 0.3192(13)
C122_2 C 0.7415(12) 0.1753(12) 0.2647(14)
H109_2 H 0.7628 0.1451 0.2413
C123_2 C 0.7271(16) 0.2419(15) 0.2477(13)
H110_2 H 0.7434 0.2574 0.2136
C124_2 C 0.6894(14) 0.2880(15) 0.2783(15)
H111_2 H 0.6806 0.3322 0.2643
C125_2 C 0.6660(15) 0.2669(12) 0.3284(15)
H112_2 H 0.6370 0.2948 0.3472
C126_2 C 0.6870(12) 0.1999(12) 0.3529(13)
C127 C 0.8103(10) 0.4069(10) 0.6331(10)
H113 H 0.7966 0.4426 0.6587
H114 H 0.7812 0.4099 0.5966
C128 C 0.8958(9) 0.4377(9) 0.5684(10)
H115 H 0.8648 0.4421 0.5354
C129 C 0.9922(13) 0.4323(10) 0.6245(11)
C133 C 0.9518(13) 0.3988(16) 0.7178(15)
H119 H 0.9171 0.3872 0.7402
C134 C 0.9394(10) 0.4142(9) 0.6593(9)
C135 C 0.5435(11) 0.4122(10) 0.7858(12)
H120 H 0.5282 0.4216 0.7453
H121 H 0.5784 0.4456 0.7983
C136_2 C 0.4246(9) 0.4496(10) 0.8018(9)
H122_2 H 0.4151 0.4686 0.7650
C137_2 C 0.4192(11) 0.4155(13) 0.8906(14)
C138_2 C 0.3954(16) 0.3960(16) 0.9452(19)
H123_2 H 0.3505 0.4050 0.9514
C139_2 C 0.4379(15) 0.364(2) 0.989(2)
C140 C 0.5078(15) 0.3513(17) 0.9744(15)
C141 C 0.5312(15) 0.3697(16) 0.9170(14)
H126 H 0.5752 0.3601 0.9084
C142_2 C 0.4851(13) 0.4013(13) 0.8780(11)
C146_2 C 0.9211(13) 0.3883(15) 0.4373(13)
H134_2 H 0.9454 0.3633 0.4669
C147_2 C 0.8766(17) 0.2770(17) 0.3970(18)
H135_2 H 0.8472 0.2626 0.3635
H136_2 H 0.9205 0.2562 0.3962
H137_2 H 0.8575 0.2631 0.4317
C148_2 C 0.8355(17) 0.3946(18) 0.3598(17)
H138_2 H 0.8097 0.3671 0.3309
H139_2 H 0.8052 0.4167 0.3838
H140_2 H 0.8606 0.4286 0.3410
N11_2 N 0.3145(8) 0.1411(8) 0.5971(9)
N13_2 N 0.6715(8) 0.1648(10) 0.4006(8)
N15 N 0.8795(7) 0.4178(8) 0.6224(9)
N16 N 0.9631(8) 0.4497(9) 0.5701(9)
N17_2 N 0.4838(9) 0.4225(8) 0.8216(9)
N18_2 N 0.3815(8) 0.4464(9) 0.8399(10)
N20_2 N 0.8834(11) 0.3503(12) 0.3964(10)
O11_2 O 0.4677(7) 0.2860(7) 0.7873(8)
O12_2 O 0.4102(7) 0.2073(7) 0.7250(8)
O13_2 O 0.4583(7) 0.0959(7) 0.5491(8)
O14_2 O 0.5503(8) 0.0951(7) 0.4929(8)
O15 O 0.7698(7) 0.2053(7) 0.5113(7)
O16 O 0.8298(9) 0.2806(7) 0.5760(8)
O17 O 0.7801(6) 0.3960(6) 0.7506(7)
O18 O 0.6819(7) 0.3982(6) 0.8025(7)
O20_2 O 0.9272(9) 0.4470(8) 0.4406(8)
C76 C 0.6053(11) 0.9672(10) 0.6344(12)
H74 H 0.6311 0.9405 0.6096
H75 H 0.6341 0.9809 0.6685
H76 H 0.5682 0.9402 0.6457
H94_2 H 0.0351 0.6355 0.0310
C115_2 C 0.3100(14) 0.5654(18) 0.0407(15)
H103_2 H 0.3403 0.5456 0.0694
C116_2 C 0.2642(14) 0.6079(18) 0.0553(12)
H104_2 H 0.2614 0.6174 0.0944
C117_2 C 0.2178(11) 0.6406(14) 0.0119(13)
H105_2 H 0.1863 0.6734 0.0207
Co2_5 Co 0.5000 0.0000 0.0000
C1_2 C 0.0570(13) 0.4086(12) 0.3278(12)
H1_2 H 0.0269 0.4473 0.3228
H2_2 H 0.1003 0.4206 0.3154
H3_2 H 0.0629 0.3956 0.3681
C2_2 C 0.1053(11) 0.5328(10) 0.1344(12)
H4_2 H 0.1311 0.5595 0.1096
H5_2 H 0.1341 0.5191 0.1685
H6_2 H 0.0682 0.5598 0.1457
C3_2 C 0.3414(12) 0.4153(10) 0.1611(12)
H7_2 H 0.3852 0.4029 0.1802
H8_2 H 0.3118 0.4280 0.1896
H9_2 H 0.3464 0.4533 0.1355
C4_2 C 0.2895(12) 0.2896(12) 0.3475(12)
H10_2 H 0.3381 0.2870 0.3478
H11_2 H 0.2775 0.2848 0.3865
H12_2 H 0.2737 0.3331 0.3320
C5_2 C 0.0271(11) 0.3497(10) 0.2919(11)
C6_2 C 0.0063(13) 0.3639(11) 0.2254(13)
C7_2 C 0.0450(11) 0.4090(12) 0.1981(14)
H14_2 H 0.0810 0.4309 0.2198
C8_2 C 0.0320(10) 0.4238(10) 0.1370(12)
C9_2 C 0.0783(11) 0.4716(11) 0.1029(11)
H15_2 H 0.0490 0.4886 0.0691
C10_2 C 0.1293(10) 0.4271(10) 0.0794(11)
C11_2 C 0.1897(11) 0.4108(11) 0.1076(11)
H16_2 H 0.1997 0.4290 0.1448
C12_2 C 0.2384(11) 0.3700(10) 0.0873(10)
C13_2 C 0.3103(12) 0.3528(11) 0.1250(12)
H17_2 H 0.3424 0.3423 0.0966
C14_2 C 0.3050(11) 0.2876(11) 0.1608(12)
C15_2 C 0.2875(8) 0.2903(9) 0.2165(10)
H18_2 H 0.2841 0.3323 0.2351
C16_2 C 0.2748(8) 0.2295(9) 0.2450(10)
C17_2 C 0.2559(10) 0.2310(11) 0.3090(10)
H19_2 H 0.2730 0.1880 0.3270
C18_2 C 0.1767(9) 0.2253(9) 0.3025(9)
C19_2 C 0.1377(9) 0.2838(10) 0.3010(9)
H20_2 H 0.1595 0.3261 0.3038
C20_2 C 0.0699(11) 0.2823(11) 0.2957(10)
H23_2 H 0.0091 0.3243 0.0182
C26_2 C 0.1104(12) 0.3896(11) 0.0263(12)
C27_2 C 0.1542(11) 0.3449(12) 0.0036(11)
C28_2 C 0.2199(12) 0.3354(10) 0.0320(11)
C29_2 C 0.2773(13) 0.2272(12) 0.0267(11)
H26_2 H 0.2344 0.2094 0.0372
C30_2 C 0.3124(11) 0.2229(10) 0.1308(11)
C31_2 C 0.3007(11) 0.1637(9) 0.1611(10)
C32_2 C 0.2853(9) 0.1643(9) 0.2161(10)
C33_2 C 0.2101(10) 0.0793(11) 0.2536(11)
H27_2 H 0.1818 0.0946 0.2192
H28_2 H 0.2102 0.0295 0.2533
C34_2 C 0.1448(10) 0.1628(10) 0.2967(9)
C35_2 C 0.0756(9) 0.1595(9) 0.2901(9)
C36_2 C 0.0388(8) 0.2181(9) 0.2899(9)
C53_2 C 0.3103(10) 0.0931(10) 0.1331(10)
H43_2 H 0.2966 0.0574 0.1587
H44_2 H 0.2812 0.0901 0.0966
C54_2 C 0.3958(9) 0.0623(9) 0.0684(10)
H45_2 H 0.3648 0.0579 0.0354
C55_2 C 0.4922(13) 0.0677(10) 0.1245(11)
C56_2 C 0.5606(11) 0.0654(14) 0.1531(14)
H46_2 H 0.5965 0.0533 0.1321
C57_2 C 0.5729(14) 0.0811(18) 0.2113(14)
H47_2 H 0.6170 0.0801 0.2299
C58_2 C 0.5198(15) 0.0980(15) 0.2412(16)
H48_2 H 0.5295 0.1084 0.2805
C59_2 C 0.4518(13) 0.1012(16) 0.2178(15)
H49_2 H 0.4171 0.1128 0.2402
C60_2 C 0.4394(10) 0.0858(9) 0.1593(9)
C61_2 C 0.0435(11) 0.0878(10) 0.2858(12)
H50_2 H 0.0282 0.0784 0.2453
H51_2 H 0.0784 0.0544 0.2983
C66_2 C 0.0078(15) 0.1487(17) 0.4744(15)
H55 H 0.0386 0.1691 0.5024
C67_2 C 0.0312(15) 0.1303(16) 0.4170(14)
H56_2 H 0.0752 0.1399 0.4084
C69_2 C 0.6229(16) 0.0984(18) 0.0110(17)
H57_2 H 0.6434 0.0677 0.0383
C70_2 C 0.729(2) 0.150(2) 0.024(2)
H58_2 H 0.7493 0.1925 0.0135
H59_2 H 0.7518 0.1126 0.0073
H60_2 H 0.7330 0.1455 0.0654
N5_2 N 0.3795(7) 0.0822(8) 0.1224(9)
N6_2 N 0.4631(8) 0.0503(9) 0.0701(9)
N9_2 N 0.6610(15) 0.1497(16) 0.0024(16)
O5_2 O 0.2698(7) 0.2947(7) 0.0113(7)
O6_2 O 0.3298(9) 0.2194(7) 0.0760(8)
O7_2 O 0.2801(6) 0.1040(6) 0.2506(7)
O8_2 O 0.1819(7) 0.1018(6) 0.3025(7)
Co2_6 Co 0.5000 1.0000 1.0000
C75_2 C 0.9430(13) 0.5914(12) 0.6722(12)
H71_2 H 0.9731 0.5527 0.6772
H72_2 H 0.8997 0.5794 0.6846
H73_2 H 0.9371 0.6044 0.6319
C76_2 C 0.8947(11) 0.4672(10) 0.8656(12)
H74_2 H 0.8689 0.4405 0.8904
H75_2 H 0.8659 0.4809 0.8315
H76_2 H 0.9318 0.4402 0.8543
C77_2 C 0.6586(12) 0.5847(10) 0.8389(12)
H77_2 H 0.6148 0.5971 0.8198
H78_2 H 0.6882 0.5720 0.8104
H79_2 H 0.6536 0.5467 0.8645
C78_2 C 0.7105(12) 0.7104(12) 0.6525(12)
H80_2 H 0.6619 0.7130 0.6522
H81_2 H 0.7225 0.7152 0.6135
H82_2 H 0.7263 0.6669 0.6680
C79_2 C 0.9729(11) 0.6503(10) 0.7081(11)
C80_2 C 0.9937(13) 0.6361(11) 0.7746(13)
C81_2 C 0.9550(11) 0.5910(12) 0.8019(14)
H84_2 H 0.9190 0.5691 0.7802
C82_2 C 0.9680(10) 0.5762(10) 0.8630(12)
C83_2 C 0.9217(11) 0.5284(11) 0.8971(11)
H85_2 H 0.9510 0.5114 0.9309
C84_2 C 0.8707(10) 0.5729(10) 0.9206(11)
C85_2 C 0.8103(11) 0.5892(11) 0.8924(11)
H86_2 H 0.8003 0.5710 0.8552
C86_2 C 0.7616(11) 0.6300(10) 0.9127(10)
C87_2 C 0.6897(12) 0.6472(11) 0.8750(12)
H87_2 H 0.6576 0.6577 0.9034
C88_2 C 0.6950(11) 0.7124(11) 0.8392(12)
C89_2 C 0.7125(8) 0.7097(9) 0.7835(10)
H88_2 H 0.7159 0.6677 0.7649
C90_2 C 0.7252(8) 0.7705(9) 0.7550(10)
C91_2 C 0.7441(10) 0.7690(11) 0.6910(10)
H89_2 H 0.7270 0.8120 0.6730
C92_2 C 0.8233(9) 0.7747(9) 0.6975(9)
C93_2 C 0.8623(9) 0.7162(10) 0.6990(9)
H90_2 H 0.8405 0.6739 0.6962
C94_2 C 0.9301(11) 0.7177(11) 0.7043(10)
H93_2 H 0.9909 0.6757 0.9818
C100_2 C 0.8896(12) 0.6104(11) 0.9737(12)
C101_2 C 0.8458(11) 0.6551(12) 0.9964(11)
C102_2 C 0.7801(12) 0.6646(10) 0.9680(11)
C103_2 C 0.7227(13) 0.7728(12) 0.9733(11)
H96_2 H 0.7656 0.7906 0.9628
C104_2 C 0.6876(11) 0.7771(10) 0.8692(11)
C105_2 C 0.6993(11) 0.8363(9) 0.8389(10)
C106_2 C 0.7147(9) 0.8357(9) 0.7839(10)
C107_2 C 0.7899(10) 0.9207(11) 0.7464(11)
H97_2 H 0.8182 0.9054 0.7808
H98_2 H 0.7898 0.9705 0.7467
C108_2 C 0.8552(10) 0.8372(10) 0.7033(9)
C109_2 C 0.9244(9) 0.8405(9) 0.7099(9)
C110_2 C 0.9612(8) 0.7819(9) 0.7101(9)
C127_2 C 0.6897(10) 0.9069(10) 0.8669(10)
H113_2 H 0.7034 0.9426 0.8413
H114_2 H 0.7188 0.9099 0.9034
C128_2 C 0.6042(9) 0.9377(9) 0.9316(10)
H115_2 H 0.6352 0.9421 0.9646
C129_2 C 0.5078(13) 0.9323(10) 0.8755(11)
C130_2 C 0.4394(11) 0.9346(14) 0.8469(14)
H116_2 H 0.4035 0.9467 0.8679
C131_2 C 0.4271(14) 0.9189(18) 0.7887(14)
H117_2 H 0.3830 0.9199 0.7701
C132_2 C 0.4802(15) 0.9020(15) 0.7588(16)
H118_2 H 0.4705 0.8916 0.7195
C133_2 C 0.5482(13) 0.8988(16) 0.7822(15)
H119_2 H 0.5829 0.8872 0.7598
C134_2 C 0.5606(10) 0.9142(9) 0.8407(9)
C135_2 C 0.9565(11) 0.9122(10) 0.7142(12)
H120_2 H 0.9718 0.9216 0.7547
H121_2 H 0.9216 0.9456 0.7017
C140_2 C 0.9922(15) 0.8513(17) 0.5256(15)
H125 H 0.9614 0.8309 0.4976
C141_2 C 0.9688(15) 0.8697(16) 0.5830(14)
H126_2 H 0.9248 0.8601 0.5916
C143_2 C 0.3771(16) 0.9016(18) 0.9890(17)
H127_2 H 0.3566 0.9323 0.9617
C144_2 C 0.271(2) 0.850(2) 0.976(2)
H128_2 H 0.2507 0.8075 0.9865
H129_2 H 0.2482 0.8874 0.9927
H130_2 H 0.2670 0.8545 0.9346
N15_2 N 0.6205(7) 0.9178(8) 0.8776(9)
N16_2 N 0.5369(8) 0.9497(9) 0.9299(9)
N19_2 N 0.3390(15) 0.8503(16) 0.9976(16)
O15_2 O 0.7302(7) 0.7053(7) 0.9887(7)
O16_2 O 0.6702(9) 0.7806(7) 0.9240(8)
O17_2 O 0.7199(6) 0.8960(6) 0.7494(7)
O18_2 O 0.8181(7) 0.8982(6) 0.6975(7)
H24_2 H 0.9649 0.3645 0.9690
C41_2 C 0.6900(14) 0.4346(18) 0.9593(15)
H33_2 H 0.6597 0.4544 0.9306
C42_2 C 0.7358(14) 0.3921(18) 0.9447(12)
H34_2 H 0.7386 0.3826 0.9056
C43_2 C 0.7822(11) 0.3594(14) 0.9881(13)
H35_2 H 0.8137 0.3266 0.9793
H54_2 H 0.5767 0.6484 0.9758
H55_2 H 0.4614 0.6691 0.9976
H124_2 H 0.4233 0.3516 0.0242
H125_2 H 0.5386 0.3309 0.0024
loop_
_geom_bond_atom_site_label_1
_geom_bond_atom_site_label_2
_geom_bond_site_symmetry_1
_geom_bond_site_symmetry_2
C95 H91 1_555 1_555
H92 C95 1_555 1_555
C97 C96 1_555 1_555
C111 C97 1_555 1_555
H99 C111 1_555 1_555
H100 C111 1_555 1_555
C112 H101 1_555 1_555
C113 C114 1_555 1_555
C114 H102 1_555 1_555
C118 C113 1_555 1_555
C136 H122 1_555 1_555
C137 C138 1_555 1_555
C138 H123 1_555 1_555
C139 C138 1_555 1_555
H124 C139 1_555 1_555
C142 C137 1_555 1_555
N11 C111 1_555 1_555
N12 C112 1_555 1_555
N18 Co3 1_555 1_555
O11 C95 1_555 1_555
O12 C95 1_555 1_555
O13 C98 1_555 1_555
Co7 N12 1_555 1_555
N23 Co3 1_555 1_555
C96 O12 1_555 1_555
C97 C98 1_555 1_555
C99 O13 1_555 1_555
C112 N11 1_555 1_555
C113 N12 1_555 1_555
C118 N11 1_555 1_555
C136 N17 1_555 1_555
C136 N18 1_555 1_555
C137 N18 1_555 1_555
C142 N17 1_555 1_555
H36 C45 1_555 1_555
H37 C45 1_555 1_555
C46 H38 1_555 1_555
C47 C48 1_555 1_555
C48 H39 1_555 1_555
C49 C48 1_555 1_555
H40 C49 1_555 1_555
C50 C49 1_555 1_555
H41 C50 1_555 1_555
C51 C50 1_555 1_555
H42 C51 1_555 1_555
C52 C47 1_555 1_555
C71 H61 1_555 1_555
H62 C71 1_555 1_555
H63 C71 1_555 1_555
C72 H64 1_555 1_555
C73 H65 1_555 1_555
H66 C73 1_555 1_555
H67 C73 1_555 1_555
C74 H68 1_555 1_555
H69 C74 1_555 1_555
H70 C74 1_555 1_555
N3 C45 1_555 1_555
N4 C46 1_555 1_555
N10 C72 1_555 1_555
O9 Co2 1_555 1_555
O10 Co2 1_555 1_555
Co7 N4 1_555 1_555
C46 N3 1_555 1_555
C47 N4 1_555 1_555
C51 C52 1_555 1_555
C52 N3 1_555 1_555
C72 O10 1_555 1_555
C73 N10 1_555 1_555
C74 N10 1_555 1_555
H106 C119 1_555 1_555
H107 C119 1_555 1_555
C120 H108 1_555 1_555
C121 C122 1_555 1_555
C122 H109 1_555 1_555
C123 C122 1_555 1_555
H110 C123 1_555 1_555
C124 C123 1_555 1_555
H111 C124 1_555 1_555
C125 C124 1_555 1_555
H112 C125 1_555 1_555
C126 C121 1_555 1_555
C145 H131 1_555 1_555
H132 C145 1_555 1_555
H133 C145 1_555 1_555
C146 H134 1_555 1_555
C147 H135 1_555 1_555
H136 C147 1_555 1_555
H137 C147 1_555 1_555
C148 H138 1_555 1_555
H139 C148 1_555 1_555
H140 C148 1_555 1_555
N13 C119 1_555 1_555
N14 C120 1_555 1_555
N20 C146 1_555 1_555
O19 Co2_2 1_555 1_555
O20 Co2_2 1_555 1_555
Co5 N14 1_555 1_555
C120 N13 1_555 1_555
C121 N14 1_555 1_555
C125 C126 1_555 1_555
C126 N13 1_555 1_555
C146 O20 1_555 1_555
C147 N20 1_555 1_555
C148 N20 1_555 1_555
C21 H21 1_555 1_555
H22 C21 1_555 1_555
C23 C22 1_555 1_555
C37 C23 1_555 1_555
H29 C37 1_555 1_555
H30 C37 1_555 1_555
C38 H31 1_555 1_555
C39 C40 1_555 1_555
C40 H32 1_555 1_555
C44 C39 1_555 1_555
C62 H52 1_555 1_555
C63 C64 1_555 1_555
C64 H53 1_555 1_555
C65 C64 1_555 1_555
H54 C65 1_555 1_555
C68 C63 1_555 1_555
N1 C37 1_555 1_555
N2 C38 1_555 1_555
N8 Co1 1_555 1_555
O1 C21 1_555 1_555
O2 C21 1_555 1_555
O3 C24 1_555 1_555
Co5 N2 1_555 1_555
N24 Co1 1_555 1_555
C22 O2 1_555 1_555
C23 C24 1_555 1_555
C25 O3 1_555 1_555
C38 N1 1_555 1_555
C39 N2 1_555 1_555
C44 N1 1_555 1_555
C62 N7 1_555 1_555
C62 N8 1_555 1_555
C63 N8 1_555 1_555
C68 N7 1_555 1_555
C2 H4 1_555 1_555
H5 C2 1_555 1_555
H6 C2 1_555 1_555
Co5 Cl1_2 1_555 1_555
Co2_3 N6 1_555 1_555
C1 H1 1_555 1_555
H2 C1 1_555 1_555
H3 C1 1_555 1_555
C3 H7 1_555 1_555
H8 C3 1_555 1_555
H9 C3 1_555 1_555
C4 H10 1_555 1_555
H11 C4 1_555 1_555
H12 C4 1_555 1_555
C5 C1 1_555 1_555
H13_2 C5 1_555 1_555
C6 C5 1_555 1_555
C7 C6 1_555 1_555
H14 C7 1_555 1_555
C8 C7 1_555 1_555
H15 C9 1_555 1_555
C10 C9 1_555 1_555
C11 C10 1_555 1_555
H16 C11 1_555 1_555
C12 C11 1_555 1_555
C13 C3 1_555 1_555
H17 C13 1_555 1_555
C14 C13 1_555 1_555
C15 C14 1_555 1_555
H18 C15 1_555 1_555
C16 C15 1_555 1_555
C17 C4 1_555 1_555
H19 C17 1_555 1_555
C18 C17 1_555 1_555
C19 C18 1_555 1_555
H20 C19 1_555 1_555
C20 C5 1_555 1_555
C21_2 H21_2 1_555 1_555
H22_2 C21_2 1_555 1_555
C22_2 C6 1_555 1_555
C23_2 C22_2 1_555 1_555
C24_2 C8 1_555 1_555
C25_2 H23 1_555 1_555
H24 C25_2 1_555 1_555
C26 C10 1_555 1_555
C27 C26 1_555 1_555
C28 C12 1_555 1_555
C29 H25_2 1_555 1_555
H26 C29 1_555 1_555
C30 C14 1_555 1_555
C31 C30 1_555 1_555
C32 C16 1_555 1_555
C33 H27 1_555 1_555
H28 C33 1_555 1_555
C34 C18 1_555 1_555
C35 C34 1_555 1_555
C36 C20 1_555 1_555
C37_2 C23_2 1_555 1_555
H29_2 C37_2 1_555 1_555
H30_2 C37_2 1_555 1_555
C38_2 H31_2 1_555 1_555
C39_2 C40_2 1_555 1_555
C40_2 H32_2 1_555 1_555
C41 C40_2 1_555 1_555
H33 C41 1_555 1_555
C42 C41 1_555 1_555
H34 C42 1_555 1_555
C43 C42 1_555 1_555
H35 C43 1_555 1_555
C44_2 C39_2 1_555 1_555
C45_2 C27 1_555 1_555
H36_2 C45_2 1_555 1_555
H37_2 C45_2 1_555 1_555
C46_2 H38_2 1_555 1_555
C47_2 C48_2 1_555 1_555
C48_2 H39_2 1_555 1_555
C49_2 C48_2 1_555 1_555
H40_2 C49_2 1_555 1_555
C50_2 C49_2 1_555 1_555
H41_2 C50_2 1_555 1_555
C51_2 C50_2 1_555 1_555
H42_2 C51_2 1_555 1_555
C52_2 C47_2 1_555 1_555
C53 C31 1_555 1_555
H43 C53 1_555 1_555
H44 C53 1_555 1_555
C54 H45 1_555 1_555
H49 C59 1_555 1_555
C60 C55 1_555 1_555
C61 C35 1_555 1_555
H50 C61 1_555 1_555
H51 C61 1_555 1_555
C62_2 H52_2 1_555 1_555
C63_2 C64_2 1_555 1_555
C64_2 H53_2 1_555 1_555
C65_2 C64_2 1_555 1_555
C66 C65_2 1_555 1_555
C67 C66 1_555 1_555
H56 C67 1_555 1_555
C68_2 C63_2 1_555 1_555
C72_2 H64_2 1_555 1_555
C73_2 H65_2 1_555 1_555
H66_2 C73_2 1_555 1_555
H67_2 C73_2 1_555 1_555
C74_2 H68_2 1_555 1_555
H69_2 C74_2 1_555 1_555
H70_2 C74_2 1_555 1_555
N1_2 C37_2 1_555 1_555
N21 C38_2 1_555 1_555
N3_2 C45_2 1_555 1_555
N23 C46_2 1_555 1_555
N5 C53 1_555 1_555
N6 C54 1_555 1_555
N7_2 C61 1_555 1_555
N8_2 Co5 1_555 1_555
N10_2 C72_2 1_555 1_555
O1_2 C21_2 1_555 1_555
O2_2 C21_2 1_555 1_555
O3_2 C24_2 1_555 1_555
O4_2 C25_2 1_555 1_555
O5 C28 1_555 1_555
O6 C29 1_555 1_555
O7 C32 1_555 1_555
O8 C33 1_555 1_555
O10_2 Co2_3 1_555 1_555
C130 H116 1_555 1_555
C131 C130 1_555 1_555
H117 C131 1_555 1_555
C132 C131 1_555 1_555
H118 C132 1_555 1_555
C143 H127 1_555 1_555
C144 H128 1_555 1_555
H129 C144 1_555 1_555
H130 C144 1_555 1_555
C145_2 H131_2 1_555 1_555
H132_2 C145_2 1_555 1_555
H133_2 C145_2 1_555 1_555
N19 C143 1_555 1_555
O19_2 Co2_3 1_555 1_555
C8 C9 1_555 1_555
C12 C13 1_555 1_555
C16 C17 1_555 1_555
C19 C20 1_555 1_555
C22_2 O2_2 1_555 1_555
C23_2 C24_2 1_555 1_555
C25_2 O3_2 1_555 1_555
C26 O4_2 1_555 1_555
C27 C28 1_555 1_555
C29 O5 1_555 1_555
C30 O6 1_555 1_555
C31 C32 1_555 1_555
C33 O7 1_555 1_555
C34 O8 1_555 1_555
C35 C36 1_555 1_555
C36 O1_2 1_555 1_555
C38_2 N1_2 1_555 1_555
C39_2 N21 1_555 1_555
C43 C44_2 1_555 1_555
C44_2 N1_2 1_555 1_555
C46_2 N3_2 1_555 1_555
C47_2 N23 1_555 1_555
C51_2 C52_2 1_555 1_555
C52_2 N3_2 1_555 1_555
C54 N5 1_555 1_555
C55 N6 1_555 1_555
C59 C60 1_555 1_555
C60 N5 1_555 1_555
C62_2 N7_2 1_555 1_555
C62_2 N8_2 1_555 1_555
C63_2 N8_2 1_555 1_555
C67 C68_2 1_555 1_555
C68_2 N7_2 1_555 1_555
C72_2 O10_2 1_555 1_555
C73_2 N10_2 1_555 1_555
C74_2 N10_2 1_555 1_555
C143 O19_2 1_555 1_555
C144 N19 1_555 1_555
C145_2 N19 1_555 1_555
C56 H46 1_555 1_555
C57 C56 1_555 1_555
H47 C57 1_555 1_555
C58 C57 1_555 1_555
H48 C58 1_555 1_555
C69 H57 1_555 1_555
C70 H58 1_555 1_555
H59 C70 1_555 1_555
H60 C70 1_555 1_555
C71_2 H61_2 1_555 1_555
H62_2 C71_2 1_555 1_555
H63_2 C71_2 1_555 1_555
N9 C69 1_555 1_555
O9_2 Co2_4 1_555 1_555
Co7 Cl2_2 1_555 1_555
C75 H71 1_555 1_555
H72 C75 1_555 1_555
H73 C75 1_555 1_555
C77 H77 1_555 1_555
H78 C77 1_555 1_555
H79 C77 1_555 1_555
C78 H80 1_555 1_555
H81 C78 1_555 1_555
H82 C78 1_555 1_555
C79 C75 1_555 1_555
H83_2 C79 1_555 1_555
C80 C79 1_555 1_555
C81 C80 1_555 1_555
H84 C81 1_555 1_555
C82 C81 1_555 1_555
H85 C83 1_555 1_555
C84 C83 1_555 1_555
C85 C84 1_555 1_555
H86 C85 1_555 1_555
C86 C85 1_555 1_555
C87 C77 1_555 1_555
H87 C87 1_555 1_555
C88 C87 1_555 1_555
C89 C88 1_555 1_555
H88 C89 1_555 1_555
C90 C89 1_555 1_555
C91 C78 1_555 1_555
H89 C91 1_555 1_555
C92 C91 1_555 1_555
C93 C92 1_555 1_555
H90 C93 1_555 1_555
C94 C79 1_555 1_555
C95_2 H91_2 1_555 1_555
H92_2 C95_2 1_555 1_555
C96_2 C80 1_555 1_555
C97_2 C96_2 1_555 1_555
C98_2 C82 1_555 1_555
C99_2 H93 1_555 1_555
H94 C99_2 1_555 1_555
C100 C84 1_555 1_555
C101 C100 1_555 1_555
C102 C86 1_555 1_555
C103 H95_2 1_555 1_555
H96 C103 1_555 1_555
C104 C88 1_555 1_555
C105 C104 1_555 1_555
C106 C90 1_555 1_555
C107 H97 1_555 1_555
H98 C107 1_555 1_555
C108 C92 1_555 1_555
C109 C108 1_555 1_555
C110 C94 1_555 1_555
C111_2 C97_2 1_555 1_555
H99_2 C111_2 1_555 1_555
H100_2 C111_2 1_555 1_555
C112_2 H101_2 1_555 1_555
C113_2 C114_2 1_555 1_555
C114_2 H102_2 1_555 1_555
C115 C114_2 1_555 1_555
H103 C115 1_555 1_555
C116 C115 1_555 1_555
H104 C116 1_555 1_555
C117 C116 1_555 1_555
H105 C117 1_555 1_555
C118_2 C113_2 1_555 1_555
C119_2 C101 1_555 1_555
H106_2 C119_2 1_555 1_555
H107_2 C119_2 1_555 1_555
C120_2 H108_2 1_555 1_555
C121_2 C122_2 1_555 1_555
C122_2 H109_2 1_555 1_555
C123_2 C122_2 1_555 1_555
H110_2 C123_2 1_555 1_555
C124_2 C123_2 1_555 1_555
H111_2 C124_2 1_555 1_555
C125_2 C124_2 1_555 1_555
H112_2 C125_2 1_555 1_555
C126_2 C121_2 1_555 1_555
C127 C105 1_555 1_555
H113 C127 1_555 1_555
H114 C127 1_555 1_555
C128 H115 1_555 1_555
H119 C133 1_555 1_555
C134 C129 1_555 1_555
C135 C109 1_555 1_555
H120 C135 1_555 1_555
H121 C135 1_555 1_555
C136_2 H122_2 1_555 1_555
C137_2 C138_2 1_555 1_555
C138_2 H123_2 1_555 1_555
C139_2 C138_2 1_555 1_555
C140 C139_2 1_555 1_555
C141 C140 1_555 1_555
H126 C141 1_555 1_555
C142_2 C137_2 1_555 1_555
C146_2 H134_2 1_555 1_555
C147_2 H135_2 1_555 1_555
H136_2 C147_2 1_555 1_555
H137_2 C147_2 1_555 1_555
C148_2 H138_2 1_555 1_555
H139_2 C148_2 1_555 1_555
H140_2 C148_2 1_555 1_555
N11_2 C111_2 1_555 1_555
N22 C112_2 1_555 1_555
N13_2 C119_2 1_555 1_555
N24 C120_2 1_555 1_555
N15 C127 1_555 1_555
N16 Co2_4 1_555 1_555
N17_2 C135 1_555 1_555
N18_2 Co7 1_555 1_555
N20_2 C146_2 1_555 1_555
O11_2 C95_2 1_555 1_555
O12_2 C95_2 1_555 1_555
O13_2 C98_2 1_555 1_555
O14_2 C99_2 1_555 1_555
O15 C102 1_555 1_555
O16 C103 1_555 1_555
O17 C106 1_555 1_555
O18 C107 1_555 1_555
O20_2 Co2_4 1_555 1_555
C69 O9_2 1_555 1_555
C70 N9 1_555 1_555
C71_2 N9 1_555 1_555
C82 C83 1_555 1_555
C86 C87 1_555 1_555
C90 C91 1_555 1_555
C93 C94 1_555 1_555
C96_2 O12_2 1_555 1_555
C97_2 C98_2 1_555 1_555
C99_2 O13_2 1_555 1_555
C100 O14_2 1_555 1_555
C101 C102 1_555 1_555
C103 O15 1_555 1_555
C104 O16 1_555 1_555
C105 C106 1_555 1_555
C107 O17 1_555 1_555
C108 O18 1_555 1_555
C109 C110 1_555 1_555
C110 O11_2 1_555 1_555
C112_2 N11_2 1_555 1_555
C113_2 N22 1_555 1_555
C117 C118_2 1_555 1_555
C118_2 N11_2 1_555 1_555
C120_2 N13_2 1_555 1_555
C121_2 N24 1_555 1_555
C125_2 C126_2 1_555 1_555
C126_2 N13_2 1_555 1_555
C128 N15 1_555 1_555
C128 N16 1_555 1_555
C129 N16 1_555 1_555
C133 C134 1_555 1_555
C134 N15 1_555 1_555
C136_2 N17_2 1_555 1_555
C136_2 N18_2 1_555 1_555
C137_2 N18_2 1_555 1_555
C141 C142_2 1_555 1_555
C142_2 N17_2 1_555 1_555
C146_2 O20_2 1_555 1_555
C147_2 N20_2 1_555 1_555
C148_2 N20_2 1_555 1_555
C76 H74 1_555 1_555
H75 C76 1_555 1_555
H76 C76 1_555 1_555
H103_2 C115_2 1_555 1_555
C116_2 C115_2 1_555 1_555
H104_2 C116_2 1_555 1_555
C117_2 C116_2 1_555 1_555
H105_2 C117_2 1_555 1_555
Co2_5 N6_2 1_555 1_555
C1_2 H1_2 1_555 1_555
H2_2 C1_2 1_555 1_555
H3_2 C1_2 1_555 1_555
C2_2 H4_2 1_555 1_555
H5_2 C2_2 1_555 1_555
H6_2 C2_2 1_555 1_555
C3_2 H7_2 1_555 1_555
H8_2 C3_2 1_555 1_555
H9_2 C3_2 1_555 1_555
C4_2 H10_2 1_555 1_555
H11_2 C4_2 1_555 1_555
H12_2 C4_2 1_555 1_555
C5_2 C1_2 1_555 1_555
C6_2 C5_2 1_555 1_555
C7_2 C6_2 1_555 1_555
H14_2 C7_2 1_555 1_555
C8_2 C7_2 1_555 1_555
C9_2 C2_2 1_555 1_555
H15_2 C9_2 1_555 1_555
C10_2 C9_2 1_555 1_555
C11_2 C10_2 1_555 1_555
H16_2 C11_2 1_555 1_555
C12_2 C11_2 1_555 1_555
C13_2 C3_2 1_555 1_555
H17_2 C13_2 1_555 1_555
C14_2 C13_2 1_555 1_555
C15_2 C14_2 1_555 1_555
H18_2 C15_2 1_555 1_555
C16_2 C15_2 1_555 1_555
C17_2 C4_2 1_555 1_555
H19_2 C17_2 1_555 1_555
C18_2 C17_2 1_555 1_555
C19_2 C18_2 1_555 1_555
H20_2 C19_2 1_555 1_555
C20_2 C5_2 1_555 1_555
C26_2 C10_2 1_555 1_555
C27_2 C26_2 1_555 1_555
C28_2 C12_2 1_555 1_555
H26_2 C29_2 1_555 1_555
C30_2 C14_2 1_555 1_555
C31_2 C30_2 1_555 1_555
C32_2 C16_2 1_555 1_555
C33_2 H27_2 1_555 1_555
H28_2 C33_2 1_555 1_555
C34_2 C18_2 1_555 1_555
C35_2 C34_2 1_555 1_555
C36_2 C20_2 1_555 1_555
C53_2 C31_2 1_555 1_555
H43_2 C53_2 1_555 1_555
H44_2 C53_2 1_555 1_555
C54_2 H45_2 1_555 1_555
C55_2 C56_2 1_555 1_555
C56_2 H46_2 1_555 1_555
C57_2 C56_2 1_555 1_555
H47_2 C57_2 1_555 1_555
C58_2 C57_2 1_555 1_555
H48_2 C58_2 1_555 1_555
C59_2 C58_2 1_555 1_555
H49_2 C59_2 1_555 1_555
C60_2 C55_2 1_555 1_555
C61_2 C35_2 1_555 1_555
H50_2 C61_2 1_555 1_555
H51_2 C61_2 1_555 1_555
H55 C66_2 1_555 1_555
C67_2 C66_2 1_555 1_555
H56_2 C67_2 1_555 1_555
C69_2 H57_2 1_555 1_555
C70_2 H58_2 1_555 1_555
H59_2 C70_2 1_555 1_555
H60_2 C70_2 1_555 1_555
N5_2 C53_2 1_555 1_555
N6_2 C54_2 1_555 1_555
N9_2 C69_2 1_555 1_555
O5_2 C28_2 1_555 1_555
O6_2 C29_2 1_555 1_555
O7_2 C32_2 1_555 1_555
O8_2 C33_2 1_555 1_555
C8_2 C9_2 1_555 1_555
C12_2 C13_2 1_555 1_555
C16_2 C17_2 1_555 1_555
C19_2 C20_2 1_555 1_555
C27_2 C28_2 1_555 1_555
C29_2 O5_2 1_555 1_555
C30_2 O6_2 1_555 1_555
C31_2 C32_2 1_555 1_555
C33_2 O7_2 1_555 1_555
C34_2 O8_2 1_555 1_555
C35_2 C36_2 1_555 1_555
C54_2 N5_2 1_555 1_555
C55_2 N6_2 1_555 1_555
C59_2 C60_2 1_555 1_555
C60_2 N5_2 1_555 1_555
C70_2 N9_2 1_555 1_555
C75_2 H71_2 1_555 1_555
H72_2 C75_2 1_555 1_555
H73_2 C75_2 1_555 1_555
C76_2 H74_2 1_555 1_555
H75_2 C76_2 1_555 1_555
H76_2 C76_2 1_555 1_555
C77_2 H77_2 1_555 1_555
H78_2 C77_2 1_555 1_555
H79_2 C77_2 1_555 1_555
C78_2 H80_2 1_555 1_555
H81_2 C78_2 1_555 1_555
H82_2 C78_2 1_555 1_555
C79_2 C75_2 1_555 1_555
C80_2 C79_2 1_555 1_555
C81_2 C80_2 1_555 1_555
H84_2 C81_2 1_555 1_555
C82_2 C81_2 1_555 1_555
C83_2 C76_2 1_555 1_555
H85_2 C83_2 1_555 1_555
C84_2 C83_2 1_555 1_555
C85_2 C84_2 1_555 1_555
H86_2 C85_2 1_555 1_555
C86_2 C85_2 1_555 1_555
C87_2 C77_2 1_555 1_555
H87_2 C87_2 1_555 1_555
C88_2 C87_2 1_555 1_555
C89_2 C88_2 1_555 1_555
H88_2 C89_2 1_555 1_555
C90_2 C89_2 1_555 1_555
C91_2 C78_2 1_555 1_555
H89_2 C91_2 1_555 1_555
C92_2 C91_2 1_555 1_555
C93_2 C92_2 1_555 1_555
H90_2 C93_2 1_555 1_555
C94_2 C79_2 1_555 1_555
C100_2 C84_2 1_555 1_555
C101_2 C100_2 1_555 1_555
C102_2 C86_2 1_555 1_555
H96_2 C103_2 1_555 1_555
C104_2 C88_2 1_555 1_555
C105_2 C104_2 1_555 1_555
C106_2 C90_2 1_555 1_555
C107_2 H97_2 1_555 1_555
H98_2 C107_2 1_555 1_555
C108_2 C92_2 1_555 1_555
C109_2 C108_2 1_555 1_555
C110_2 C94_2 1_555 1_555
C127_2 C105_2 1_555 1_555
H113_2 C127_2 1_555 1_555
H114_2 C127_2 1_555 1_555
C128_2 H115_2 1_555 1_555
C129_2 C130_2 1_555 1_555
C130_2 H116_2 1_555 1_555
C131_2 C130_2 1_555 1_555
H117_2 C131_2 1_555 1_555
C132_2 C131_2 1_555 1_555
H118_2 C132_2 1_555 1_555
C133_2 C132_2 1_555 1_555
H119_2 C133_2 1_555 1_555
C134_2 C129_2 1_555 1_555
C135_2 C109_2 1_555 1_555
H120_2 C135_2 1_555 1_555
H121_2 C135_2 1_555 1_555
H125 C140_2 1_555 1_555
C141_2 C140_2 1_555 1_555
H126_2 C141_2 1_555 1_555
C143_2 H127_2 1_555 1_555
C144_2 H128_2 1_555 1_555
H129_2 C144_2 1_555 1_555
H130_2 C144_2 1_555 1_555
N15_2 C127_2 1_555 1_555
N16_2 Co2_6 1_555 1_555
N19_2 C143_2 1_555 1_555
O15_2 C102_2 1_555 1_555
O16_2 C103_2 1_555 1_555
O17_2 C106_2 1_555 1_555
O18_2 C107_2 1_555 1_555
C82_2 C83_2 1_555 1_555
C86_2 C87_2 1_555 1_555
C90_2 C91_2 1_555 1_555
C93_2 C94_2 1_555 1_555
C101_2 C102_2 1_555 1_555
C103_2 O15_2 1_555 1_555
C104_2 O16_2 1_555 1_555
C105_2 C106_2 1_555 1_555
C107_2 O17_2 1_555 1_555
C108_2 O18_2 1_555 1_555
C109_2 C110_2 1_555 1_555
C128_2 N15_2 1_555 1_555
C128_2 N16_2 1_555 1_555
C129_2 N16_2 1_555 1_555
C133_2 C134_2 1_555 1_555
C134_2 N15_2 1_555 1_555
C144_2 N19_2 1_555 1_555
H33_2 C41_2 1_555 1_555
C42_2 C41_2 1_555 1_555
H34_2 C42_2 1_555 1_555
C43_2 C42_2 1_555 1_555
H35_2 C43_2 1_555 1_555

#END
