
###############################################################################
#
# This file contains modified crystal structure data generated from the
# MOF subset of the Cambridge Structural Database (CSD) v543 
# hosted by the Cambridge Crystallographic Data Centre (CCDC).
#
# This work is licensed under the Creative Commons
# Attribution-NonCommercial-ShareAlike 4.0 International License.
# To view a copy of this license, visit
# http://creativecommons.org/licenses/by-nc-sa/4.0/
# or send a letter to
# Creative Commons, PO Box 1866, Mountain View, CA 94042, USA.
#
# CIF created using the CSD Python API on 29 September 2022
# The structure has been converted into the P1 space group
# The structure has a 3D framework
# The original CSD entry AMOBEL02 is in the trigonal crystal system
# The framework has been calculated to contain at least 10.0% void space
# The void calculation uses a probe of radius 1.32A, grid spacing 0.4
# The framework is charged, counterions have been retained in the structure
#
###############################################################################

data_AMOBEL02
_chemical_formula_moiety         '(C12 H12 O20 Zn8)n'
_symmetry_cell_setting           triclinic
_symmetry_space_group_name_H-M   'P 1'
_symmetry_Int_Tables_number      1
_space_group_name_Hall           'P 1'
loop_
_symmetry_equiv_pos_site_id
_symmetry_equiv_pos_as_xyz
1 x,y,z
_cell_length_a                   8.5358(3)
_cell_length_b                   8.5358(3)
_cell_length_c                   13.3344(4)
_cell_angle_alpha                90
_cell_angle_beta                 90
_cell_angle_gamma                120
_cell_volume                     841.381
loop_
_atom_site_label
_atom_site_type_symbol
_atom_site_fract_x
_atom_site_fract_y
_atom_site_fract_z
Zn1 Zn 0.0000 0.0000 0.5000
Zn2 Zn 0.3333 0.6667 0.2500
O1 O 0.21343(18) 0.20275(18) 0.41637(9)
O2 O 0.33875(19) 0.47067(18) 0.34318(10)
C1 C 0.2082(3) 0.3260(3) 0.37047(13)
H1 H 0.0940 0.3077 0.3549
O8 O 0.13192(26) 0.47067(18) 0.15682(10)
C4 C 0.1178(4) 0.3260(3) 0.12953(13)
H4 H 0.2137 0.3077 0.1451
O11 O 0.01068(25) 0.21343(18) 0.58363(9)
Zn3 Zn 0.0000 0.0000 0.0000
O14 O 0.52933(18) 0.86808(26) 0.34318(10)
O15 O 0.13192(26) 0.66125(19) 0.34318(10)
O16 O 0.52933(18) 0.66125(19) 0.15682(10)
O17 O 0.33875(19) 0.86808(26) 0.15682(10)
Zn3_2 Zn 0.0000 0.0000 1.0000
Zn1_2 Zn -0.0000 1.0000 0.5000
C3 C 0.1178(4) 0.7918(3) 0.37047(13)
H3 H 0.2137 0.9060 0.3549
Zn3_3 Zn 0.0000 1.0000 0.0000
O13 O 0.20275(18) 0.98932(25) 0.58363(9)
Zn3_4 Zn 0.0000 1.0000 1.0000
Zn1_3 Zn 1.0000 0.0000 0.5000
O3 O 0.79725(18) 0.01068(25) 0.41637(9)
O7 O 0.98932(25) 0.20275(18) 0.08363(9)
O12 O 0.86808(26) 0.33875(19) 0.65682(10)
C6 C 0.8822(4) 0.2082(3) 0.62953(13)
H6 H 0.7863 0.0940 0.6451
Zn3_5 Zn 1.0000 0.0000 0.0000
Zn7 Zn 0.6667 0.3333 0.7500
Zn3_6 Zn 1.0000 0.0000 1.0000
Zn1_4 Zn 1.0000 1.0000 0.5000
C2 C 0.6740(3) 0.8822(4) 0.37047(13)
H2 H 0.6923 0.7863 0.3549
O5 O 0.98932(25) 0.78657(18) 0.41637(9)
O9 O 0.78657(18) 0.79725(18) 0.58363(9)
O10 O 0.66125(19) 0.52933(18) 0.65682(10)
C5 C 0.7918(3) 0.6740(3) 0.62953(13)
H5 H 0.9060 0.6923 0.6451
Zn3_7 Zn 1.0000 1.0000 0.0000
Zn3_8 Zn 1.0000 1.0000 1.0000
O10_2 O 0.47067(18) 0.13192(26) 0.65682(10)
C5_2 C 0.3260(3) 0.1178(4) 0.62953(13)
H5_2 H 0.3077 0.2137 0.6451
O7_2 O 0.79725(18) 0.78657(31) 0.08363(9)
C4_2 C 0.6740(3) 0.7918(5) 0.12953(13)
H4_2 H 0.6923 0.9060 0.1451
O7_3 O 0.21343(31) 0.01068(25) 0.08363(9)
C4_3 C 0.2082(5) 0.8822(4) 0.12953(13)
H4_3 H 0.0940 0.7863 0.1451
O9_2 O 0.20275(18) 0.21343(18) 0.91637(9)
O10_3 O 0.47067(18) 0.33875(19) 0.84318(10)
C5_3 C 0.3260(3) 0.2082(3) 0.87047(13)
H5_3 H 0.3077 0.0940 0.8549
O13_2 O 0.01068(25) 0.79725(18) 0.91637(9)
O12_2 O 0.66125(19) 0.13192(26) 0.84318(10)
C6_2 C 0.7918(3) 0.1178(4) 0.87047(13)
H6_2 H 0.9060 0.2137 0.8549
O11_2 O 0.78657(18) 0.98932(25) 0.91637(9)
O10_4 O 0.86808(26) 0.52933(18) 0.84318(10)
C5_4 C 0.8822(4) 0.6740(3) 0.87047(13)
H5_4 H 0.7863 0.6923 0.8549
loop_
_geom_bond_atom_site_label_1
_geom_bond_atom_site_label_2
_geom_bond_site_symmetry_1
_geom_bond_site_symmetry_2
Zn1 O1 1_555 1_555
Zn2 O2 1_555 1_555
O1 C1 1_555 1_555
O2 C1 1_555 1_555
C1 H1 1_555 1_555
O8 Zn2 1_555 1_555
C4 O8 1_555 1_555
H4 C4 1_555 1_555
O11 Zn1 1_555 1_555
O14 Zn2 1_555 1_555
O15 Zn2 1_555 1_555
O16 Zn2 1_555 1_555
O17 Zn2 1_555 1_555
O15 C3 1_555 1_555
H3 C3 1_555 1_555
O13 Zn1_2 1_555 1_555
O3 Zn1_3 1_555 1_555
O12 C6 1_555 1_555
H6 C6 1_555 1_555
Zn3_5 O7 1_555 1_555
Zn7 O12 1_555 1_555
O14 C2 1_555 1_555
H2 C2 1_555 1_555
O5 Zn1_4 1_555 1_555
O9 Zn1_4 1_555 1_555
O10 C5 1_555 1_555
C5 O9 1_555 1_555
H5 C5 1_555 1_555
Zn7 O10 1_555 1_555
O10_2 C5_2 1_555 1_555
H5_2 C5_2 1_555 1_555
Zn7 O10_2 1_555 1_555
O7_2 C4_2 1_555 1_555
C4_2 O16 1_555 1_555
H4_2 C4_2 1_555 1_555
Zn3_7 O7_2 1_555 1_555
Zn3 O7_3 1_555 1_555
C4_3 O17 1_555 1_555
H4_3 C4_3 1_555 1_555
O9_2 Zn3_2 1_555 1_555
O10_3 C5_3 1_555 1_555
C5_3 O9_2 1_555 1_555
H5_3 C5_3 1_555 1_555
Zn7 O10_3 1_555 1_555
O13_2 Zn3_4 1_555 1_555
O12_2 C6_2 1_555 1_555
H6_2 C6_2 1_555 1_555
Zn7 O12_2 1_555 1_555
O11_2 Zn3_8 1_555 1_555
O10_4 C5_4 1_555 1_555
H5_4 C5_4 1_555 1_555
Zn7 O10_4 1_555 1_555

#END
