
###############################################################################
#
# This file contains modified crystal structure data generated from the
# MOF subset of the Cambridge Structural Database (CSD) v543 
# hosted by the Cambridge Crystallographic Data Centre (CCDC).
#
# This work is licensed under the Creative Commons
# Attribution-NonCommercial-ShareAlike 4.0 International License.
# To view a copy of this license, visit
# http://creativecommons.org/licenses/by-nc-sa/4.0/
# or send a letter to
# Creative Commons, PO Box 1866, Mountain View, CA 94042, USA.
#
# CIF created using the CSD Python API on 29 September 2022
# The structure has been converted into the P1 space group
# The structure has a 3D framework
# The original CSD entry AMOFAK is in the orthorhombic crystal system
# The original CSD entry AMOFAK is in a Sohncke space group
# The framework has been calculated to contain at least 10.0% void space
# The void calculation uses a probe of radius 1.32A, grid spacing 0.4
#
###############################################################################

data_AMOFAK
_chemical_formula_moiety         '(C226 H216 Eu8 O60 S16)n'
_symmetry_cell_setting           triclinic
_symmetry_space_group_name_H-M   'P 1'
_symmetry_Int_Tables_number      1
_space_group_name_Hall           'P 1'
loop_
_symmetry_equiv_pos_site_id
_symmetry_equiv_pos_as_xyz
1 x,y,z
_cell_length_a                   16.5736(7)
_cell_length_b                   21.7897(8)
_cell_length_c                   35.1320(14)
_cell_angle_alpha                90
_cell_angle_beta                 90
_cell_angle_gamma                90
_cell_volume                     12687.4
loop_
_atom_site_label
_atom_site_type_symbol
_atom_site_fract_x
_atom_site_fract_y
_atom_site_fract_z
C53 C 0.0557(7) 0.5993(5) 0.0456(3)
H43 H 0.0367 0.5569 0.0477
H44 H 0.1001 0.6060 0.0635
H45 H 0.0747 0.6070 0.0196
C54 C 0.0318(7) 0.7197(5) 0.0577(3)
H47 H 0.0754 0.7186 0.0389
H48 H 0.0548 0.7252 0.0832
C55 C 0.0467(7) 0.6845(5) 0.1983(3)
H49 H 0.0677 0.7247 0.2058
H50 H 0.0804 0.6676 0.1778
H51 H 0.0478 0.6567 0.2202
Eu1 Eu 0.75717(3) 0.425676(18) 0.114025(10)
Eu2 Eu 0.82439(3) 0.605204(18) 0.120748(11)
S1 S 0.60948(19) 0.36622(13) 0.17705(8)
S2 S 0.62867(19) 0.34006(12) 0.05524(7)
S3 S 0.97706(19) 0.64925(13) 0.05612(7)
S4 S 0.94552(16) 0.69247(10) 0.18175(7)
O1 O 0.7500(5) 0.4644(2) 0.17717(14)
O2 O 0.7581(4) 0.5675(2) 0.17526(15)
O3 O 0.6855(4) 0.6237(2) 0.10556(15)
O4 O 0.6998(4) 0.5214(2) 0.10467(16)
O5 O 0.6679(4) 0.4326(2) 0.55811(15)
O6 O 0.6808(4) 0.5351(2) 0.55956(15)
O9 O 0.7993(4) 0.3305(3) 0.08236(18)
O10 O 0.7705(4) 0.3223(3) 0.14370(18)
O13 O 0.6285(5) 0.3930(3) 0.13788(18)
O14 O 0.6612(4) 0.4053(2) 0.06155(17)
O15 O 0.9563(5) 0.6334(3) 0.09710(18)
O16 O 0.9157(4) 0.6281(3) 0.17358(15)
C1 C 0.7503(7) 0.5174(4) 0.1922(2)
C2 C 0.7419(6) 0.5192(4) 0.2345(2)
C3 C 0.7293(8) 0.4677(5) 0.2555(3)
H1 H 0.7254 0.4293 0.2429
C4 C 0.7219(8) 0.4693(5) 0.2954(3)
H2 H 0.7140 0.4325 0.3095
C5 C 0.7265(7) 0.5254(4) 0.3136(2)
C6 C 0.7401(7) 0.5792(4) 0.2931(2)
H3 H 0.7440 0.6177 0.3056
C7 C 0.7480(7) 0.5748(4) 0.2534(2)
H4 H 0.7578 0.6110 0.2391
C8 C 0.7183(6) 0.5289(4) 0.3564(2)
H5 H 0.7317 0.5669 0.3681
C9 C 0.6559(6) 0.5709(4) 0.1054(2)
C10 C 0.5651(6) 0.5615(4) 0.1072(2)
C11 C 0.5138(7) 0.6129(4) 0.1109(3)
H6 H 0.5360 0.6531 0.1099
C12 C 0.4315(6) 0.6055(5) 0.1160(3)
H7 H 0.3981 0.6398 0.1214
C13 C 0.3983(6) 0.5470(4) 0.1132(3)
C14 C 0.4485(7) 0.4952(5) 0.1084(3)
H8 H 0.4265 0.4549 0.1086
C15 C 0.5316(6) 0.5044(5) 0.1033(3)
H9 H 0.5651 0.4705 0.0970
C16 C 0.3120(6) 0.5410(5) 0.1187(3)
H10 H 0.2819 0.5780 0.1202
C17 C 0.6744(6) 0.4841(4) 0.5418(2)
C18 C 0.6745(6) 0.4879(4) 0.5000(2)
C19 C 0.6520(6) 0.4341(4) 0.4783(2)
H11 H 0.6332 0.3981 0.4908
C20 C 0.6584(6) 0.4363(4) 0.4389(2)
H12 H 0.6435 0.4014 0.4244
C21 C 0.6860(6) 0.4883(4) 0.4205(2)
C22 C 0.7085(7) 0.5400(4) 0.4417(3)
H13 H 0.7273 0.5758 0.4291
C23 C 0.7031(6) 0.5386(4) 0.4811(2)
H14 H 0.7196 0.5735 0.4953
C24 C 0.6947(6) 0.4849(4) 0.3785(3)
H15 H 0.6817 0.4469 0.3668
C26 C 0.0158(6) 0.4682(4) 0.1341(2)
C27 C 0.0646(5) 0.4170(4) 0.1281(3)
H16 H 0.0415 0.3773 0.1256
C28 C 0.1470(6) 0.4250(5) 0.1259(3)
H17 H 0.1802 0.3899 0.1223
C29 C 0.1840(6) 0.4826(4) 0.1288(3)
C30 C 0.1347(6) 0.5333(5) 0.1363(3)
H18 H 0.1586 0.5724 0.1400
C31 C 0.0501(6) 0.5271(4) 0.1383(3)
H19 H 0.0168 0.5620 0.1425
C32 C 0.2705(6) 0.4888(4) 0.1220(3)
H20 H 0.3004 0.4518 0.1196
C33 C 0.7943(6) 0.3000(4) 0.1126(3)
C34 C 0.8153(6) 0.2316(4) 0.1109(3)
C35 C 0.8067(9) 0.1963(4) 0.1429(3)
H21 H 0.7937 0.2149 0.1665
C36 C 0.8174(10) 0.1322(4) 0.1406(3)
H22 H 0.8082 0.1074 0.1625
C37 C 0.8413(7) 0.1051(4) 0.1064(3)
C38 C 0.8502(8) 0.1423(4) 0.0745(3)
H23 H 0.8652 0.1240 0.0510
C39 C 0.8380(9) 0.2052(4) 0.0761(3)
H24 H 0.8448 0.2299 0.0540
C40 C 0.8518(7) 0.0370(4) 0.1016(3)
H25 H 0.8785 0.0213 0.0797
H30 H 0.8021 0.0161 0.1504
C49 C 0.5408(7) 0.4157(5) 0.1965(3)
H31 H 0.5532 0.4577 0.1885
H32 H 0.5435 0.4131 0.2244
H33 H 0.4865 0.4046 0.1880
C50 C 0.5424(7) 0.3079(5) 0.1677(3)
H34 H 0.5701 0.2749 0.1540
H35 H 0.4981 0.3237 0.1520
H36 H 0.5208 0.2920 0.1917
C51 C 0.5266(7) 0.3538(5) 0.0399(4)
H37 H 0.5040 0.3160 0.0293
H38 H 0.5263 0.3859 0.0203
H39 H 0.4940 0.3671 0.0616
C52 C 0.6703(8) 0.3115(4) 0.0127(3)
H40 H 0.6502 0.2699 0.0082
H41 H 0.7293 0.3106 0.0149
H46 H 0.9954 0.7538 0.0520
C56 C 0.9010(7) 0.7129(5) 0.2263(3)
H52 H 0.9179 0.7545 0.2333
H53 H 0.9186 0.6839 0.2459
H54 H 0.8421 0.7115 0.2240
Eu3 Eu 0.74283(3) 0.574324(18) 0.614025(10)
Eu5 Eu 0.67561(3) 0.394796(18) 0.620748(11)
O17 O 0.8321(4) 0.5674(2) 0.05811(15)
O18 O 0.8192(4) 0.4649(2) 0.05956(15)
O19 O 0.8814(4) 0.5082(3) 0.13156(16)
O20 O 0.8974(4) 0.4078(2) 0.13008(16)
O21 O 0.8194(5) 0.7065(3) 0.08674(16)
O22 O 0.7876(4) 0.7042(3) 0.14814(17)
C41 C 0.8047(5) 0.7349(4) 0.1180(3)
C42 C 0.8133(5) 0.8039(3) 0.1196(3)
C43 C 0.8359(7) 0.8355(4) 0.0881(3)
H26 H 0.8471 0.8149 0.0648
C44 C 0.8421(6) 0.9003(4) 0.0907(3)
H27 H 0.8590 0.9233 0.0692
C45 C 0.8241(6) 0.9306(4) 0.1242(3)
C46 C 0.8015(6) 0.8966(4) 0.1551(3)
H28 H 0.7900 0.9172 0.1783
C47 C 0.7947(6) 0.8321(4) 0.1540(3)
H29 H 0.7781 0.8091 0.1756
C48 C 0.8238(7) 0.9989(4) 0.1278(3)
C25 C 0.9264(6) 0.4623(4) 0.1321(2)
O7 O 0.6186(4) 0.4918(3) 0.63156(16)
O8 O 0.6026(4) 0.5922(2) 0.63008(16)
C12_2 C 0.0685(6) 0.3945(5) 0.6160(3)
H7_2 H 0.1019 0.3602 0.6214
C13_2 C 0.1017(6) 0.4530(4) 0.6132(3)
C14_2 C 0.0515(7) 0.5048(5) 0.6084(3)
H8_2 H 0.0735 0.5451 0.6086
C16_2 C 0.1880(6) 0.4590(5) 0.6187(3)
H10_2 H 0.2181 0.4220 0.6202
C25_2 C 0.5736(6) 0.5377(4) 0.6321(2)
C26_2 C 0.4842(6) 0.5318(4) 0.6341(2)
C27_2 C 0.4354(5) 0.5830(4) 0.6281(3)
H16_2 H 0.4585 0.6227 0.6256
C28_2 C 0.3530(6) 0.5750(5) 0.6259(3)
H17_2 H 0.3198 0.6101 0.6223
C29_2 C 0.3160(6) 0.5174(4) 0.6288(3)
C30_2 C 0.3653(6) 0.4667(5) 0.6363(3)
H18_2 H 0.3414 0.4276 0.6400
C31_2 C 0.4499(6) 0.4729(4) 0.6383(3)
H19_2 H 0.4832 0.4380 0.6425
C32_2 C 0.2295(6) 0.5112(4) 0.6220(3)
H20_2 H 0.1996 0.5482 0.6196
H33_2 H 0.0135 0.5954 0.6880
H35_2 H 0.0019 0.6763 0.6520
H39_2 H 0.0060 0.6329 0.5616
O11 O 0.6806(5) 0.2935(3) 0.58674(16)
O12 O 0.7124(4) 0.2958(3) 0.64814(17)
C41_2 C 0.6953(5) 0.2651(4) 0.6180(3)
C42_2 C 0.6867(5) 0.1961(3) 0.6196(3)
C43_2 C 0.6641(7) 0.1645(4) 0.5881(3)
H26_2 H 0.6529 0.1851 0.5648
C44_2 C 0.6579(6) 0.0997(4) 0.5907(3)
H27_2 H 0.6410 0.0767 0.5692
C45_2 C 0.6759(6) 0.0694(4) 0.6242(3)
C46_2 C 0.6985(6) 0.1034(4) 0.6551(3)
H28_2 H 0.7100 0.0828 0.6783
C47_2 C 0.7053(6) 0.1679(4) 0.6540(3)
H29_2 H 0.7219 0.1909 0.6756
C48_2 C 0.6762(7) 0.0011(4) 0.6278(3)
C17_2 C 0.8256(6) 0.5159(4) 0.0418(2)
C18_2 C 0.8255(6) 0.5121(4) 0.0000(2)
S1_2 S 0.89052(19) 0.63378(13) 0.67705(8)
S2_2 S 0.87133(19) 0.65994(12) 0.55524(7)
S3_2 S 0.52294(19) 0.35075(13) 0.55612(7)
S4_2 S 0.55448(16) 0.30753(10) 0.68175(7)
O1_2 O 0.7500(5) 0.5356(2) 0.67717(14)
O2_2 O 0.7419(4) 0.4325(2) 0.67526(15)
O3_2 O 0.8145(4) 0.3763(2) 0.60556(15)
O4_2 O 0.8002(4) 0.4786(2) 0.60467(16)
O9_2 O 0.7007(4) 0.6695(3) 0.58236(18)
O10_2 O 0.7295(4) 0.6777(3) 0.64370(18)
O13_2 O 0.8715(5) 0.6070(3) 0.63788(18)
O14_2 O 0.8388(4) 0.5947(2) 0.56155(17)
O15_2 O 0.5437(5) 0.3666(3) 0.59710(18)
O16_2 O 0.5843(4) 0.3719(3) 0.67358(15)
C1_2 C 0.7497(7) 0.4826(4) 0.6922(2)
C2_2 C 0.7581(6) 0.4808(4) 0.7345(2)
C3_2 C 0.7707(8) 0.5323(5) 0.7555(3)
H1_2 H 0.7746 0.5707 0.7429
C4_2 C 0.7781(8) 0.5307(5) 0.7954(3)
H2_2 H 0.7860 0.5675 0.8095
C5_2 C 0.7735(7) 0.4746(4) 0.8136(2)
C6_2 C 0.7599(7) 0.4208(4) 0.7931(2)
H3_2 H 0.7560 0.3823 0.8056
C7_2 C 0.7520(7) 0.4252(4) 0.7534(2)
H4_2 H 0.7422 0.3890 0.7391
C8_2 C 0.7817(6) 0.4711(4) 0.8564(2)
H5_2 H 0.7683 0.4331 0.8681
C9_2 C 0.8441(6) 0.4291(4) 0.6054(2)
C10_2 C 0.9349(6) 0.4385(4) 0.6072(2)
C11_2 C 0.9862(7) 0.3871(4) 0.6109(3)
H6_2 H 0.9640 0.3469 0.6099
C15_2 C 0.9684(6) 0.4956(5) 0.6033(3)
H9_2 H 0.9349 0.5295 0.5970
C18_3 C 0.8255(6) 0.5121(4) 1.0000(2)
C19_2 C 0.8480(6) 0.5659(4) 0.9783(2)
H11_2 H 0.8668 0.6019 0.9908
C20_2 C 0.8416(6) 0.5637(4) 0.9389(2)
H12_2 H 0.8565 0.5986 0.9244
C21_2 C 0.8140(6) 0.5117(4) 0.9205(2)
C22_2 C 0.7915(7) 0.4600(4) 0.9417(3)
H13_2 H 0.7727 0.4242 0.9291
C23_2 C 0.7969(6) 0.4614(4) 0.9811(2)
H14_2 H 0.7804 0.4265 0.9953
C24_2 C 0.8053(6) 0.5151(4) 0.8785(3)
H15_2 H 0.8183 0.5531 0.8668
C33_2 C 0.7057(6) 0.7000(4) 0.6126(3)
C34_2 C 0.6847(6) 0.7684(4) 0.6109(3)
C35_2 C 0.6933(9) 0.8037(4) 0.6429(3)
H21_2 H 0.7063 0.7851 0.6665
C36_2 C 0.6826(10) 0.8678(4) 0.6406(3)
H22_2 H 0.6918 0.8926 0.6625
C37_2 C 0.6587(7) 0.8949(4) 0.6064(3)
C38_2 C 0.6498(8) 0.8577(4) 0.5745(3)
H23_2 H 0.6348 0.8760 0.5510
C39_2 C 0.6620(9) 0.7948(4) 0.5761(3)
H24_2 H 0.6552 0.7701 0.5540
C40_2 C 0.6482(7) 0.9630(4) 0.6016(3)
H25_2 H 0.6215 0.9787 0.5797
H30_2 H 0.6979 0.9839 0.6504
C49_2 C 0.9592(7) 0.5843(5) 0.6965(3)
H31_2 H 0.9468 0.5423 0.6885
H32_2 H 0.9565 0.5869 0.7244
C50_2 C 0.9576(7) 0.6921(5) 0.6677(3)
H34_2 H 0.9299 0.7251 0.6540
H36_2 H 0.9792 0.7080 0.6917
C51_2 C 0.9734(7) 0.6462(5) 0.5399(4)
H37_2 H 0.9960 0.6840 0.5293
H38_2 H 0.9737 0.6141 0.5203
C52_2 C 0.8297(8) 0.6885(4) 0.5127(3)
H40_2 H 0.8498 0.7301 0.5082
H41_2 H 0.7707 0.6894 0.5149
H42 H 0.8453 0.6619 0.4915
C53_2 C 0.4443(7) 0.4007(5) 0.5456(3)
H43_2 H 0.4633 0.4431 0.5477
H44_2 H 0.3999 0.3940 0.5635
H45_2 H 0.4253 0.3930 0.5196
C54_2 C 0.4682(7) 0.2803(5) 0.5577(3)
H46_2 H 0.5046 0.2462 0.5520
H47_2 H 0.4246 0.2814 0.5389
H48_2 H 0.4452 0.2748 0.5832
C55_2 C 0.4533(7) 0.3155(5) 0.6983(3)
H49_2 H 0.4323 0.2753 0.7058
H50_2 H 0.4196 0.3324 0.6778
H51_2 H 0.4522 0.3433 0.7202
C56_2 C 0.5990(7) 0.2871(5) 0.7263(3)
H52_2 H 0.5821 0.2455 0.7333
H53_2 H 0.5814 0.3161 0.7459
H54_2 H 0.6579 0.2885 0.7240
H42_2 H 0.6547 0.3381 0.9915
O7_2 O 0.1186(4) 0.0082(3) 0.36844(16)
Eu6 Eu 0.17561(3) 0.105204(18) 0.379252(11)
O8_2 O 0.1026(4) 0.9078(2) 0.36992(16)
C25_3 C 0.0736(6) 0.9623(4) 0.3679(2)
Eu4 Eu 0.24283(3) 0.925676(18) 0.385975(10)
S3_3 S 0.02294(19) 0.14925(13) 0.44388(7)
S4_3 S 0.05448(16) 0.19247(10) 0.31825(7)
O2_3 O 0.2419(4) 0.0675(2) 0.32474(15)
O3_3 O 0.3145(4) 0.1237(2) 0.39444(15)
O4_3 O 0.3002(4) 0.0214(2) 0.39533(16)
O15_3 O 0.0437(5) 0.1334(3) 0.40290(18)
O16_3 O 0.0843(4) 0.1281(3) 0.32642(15)
C1_3 C 0.2497(7) 0.0174(4) 0.3078(2)
C2_3 C 0.2581(6) 0.0192(4) 0.2655(2)
C5_3 C 0.2735(7) 0.0254(4) 0.1864(2)
C6_3 C 0.2599(7) 0.0792(4) 0.2069(2)
H3_3 H 0.2560 0.1177 0.1944
C7_3 C 0.2520(7) 0.0748(4) 0.2466(2)
H4_3 H 0.2422 0.1110 0.2609
C8_3 C 0.2817(6) 0.0289(4) 0.1436(2)
H5_3 H 0.2683 0.0669 0.1319
C9_3 C 0.3441(6) 0.0709(4) 0.3946(2)
C10_3 C 0.4349(6) 0.0615(4) 0.3928(2)
C11_3 C 0.4862(7) 0.1129(4) 0.3891(3)
H6_3 H 0.4640 0.1531 0.3901
C12_3 C 0.5685(6) 0.1055(5) 0.3840(3)
H7_3 H 0.6019 0.1398 0.3786
C13_3 C 0.6017(6) 0.0470(4) 0.3868(3)
C15_3 C 0.4684(6) 0.0044(5) 0.3967(3)
C16_3 C 0.6880(6) 0.0410(5) 0.3813(3)
H10_3 H 0.7181 0.0780 0.3798
C22_3 C 0.2915(7) 0.0400(4) 0.0583(3)
H13_3 H 0.2727 0.0758 0.0709
C23_3 C 0.2969(6) 0.0386(4) 0.0189(2)
H14_3 H 0.2804 0.0735 0.0047
C30_3 C 0.8653(6) 0.0333(5) 0.3637(3)
H18_3 H 0.8414 0.0724 0.3600
C31_3 C 0.9499(6) 0.0271(4) 0.3617(3)
H19_3 H 0.9832 0.0620 0.3575
H46_3 H 0.0046 0.2538 0.4480
C56_3 C 0.0990(7) 0.2129(5) 0.2737(3)
H52_3 H 0.0821 0.2545 0.2667
H53_3 H 0.0814 0.1839 0.2541
H54_3 H 0.1579 0.2115 0.2760
O17_2 O 0.1679(4) 0.0674(2) 0.44189(15)
O21_2 O 0.1806(5) 0.2065(3) 0.41326(16)
O22_2 O 0.2124(4) 0.2042(3) 0.35186(17)
O6_2 O 0.3192(4) 0.0351(2) 0.94044(15)
Eu3_2 Eu 0.25717(3) 0.074324(18) 0.885975(10)
S1_3 S 0.39052(19) 0.86622(13) 0.32295(8)
S2_3 S 0.37133(19) 0.84006(12) 0.44476(7)
O1_3 O 0.2500(5) 0.9644(2) 0.32283(14)
O9_3 O 0.2007(4) 0.8305(3) 0.41764(18)
O10_3 O 0.2295(4) 0.8223(3) 0.35630(18)
O13_3 O 0.3715(5) 0.8930(3) 0.36212(18)
O14_3 O 0.3388(4) 0.9053(2) 0.43845(17)
C3_3 C 0.2707(8) 0.9677(5) 0.2445(3)
H1_3 H 0.2746 0.9293 0.2571
C4_3 C 0.2781(8) 0.9693(5) 0.2046(3)
H2_3 H 0.2860 0.9325 0.1905
C14_3 C 0.5515(7) 0.9952(5) 0.3916(3)
H8_3 H 0.5735 0.9549 0.3914
H9_3 H 0.4349 0.9705 0.4030
C18_4 C 0.3255(6) 0.9879(4) 0.0000(2)
C19_3 C 0.3480(6) 0.9341(4) 0.0217(2)
H11_3 H 0.3668 0.8981 0.0092
C20_3 C 0.3416(6) 0.9363(4) 0.0611(2)
H12_3 H 0.3565 0.9014 0.0756
C21_3 C 0.3140(6) 0.9883(4) 0.0795(2)
C24_3 C 0.3053(6) 0.9849(4) 0.1215(3)
H15_3 H 0.3183 0.9469 0.1332
C26_3 C 0.9842(6) 0.9682(4) 0.3659(2)
C27_3 C 0.9354(5) 0.9170(4) 0.3719(3)
H16_3 H 0.9585 0.8773 0.3744
C28_3 C 0.8530(6) 0.9250(5) 0.3741(3)
H17_3 H 0.8198 0.8899 0.3777
C29_3 C 0.8160(6) 0.9826(4) 0.3712(3)
C32_3 C 0.7295(6) 0.9888(4) 0.3780(3)
H20_3 H 0.6996 0.9518 0.3804
C33_3 C 0.2057(6) 0.8000(4) 0.3874(3)
C34_3 C 0.1847(6) 0.7316(4) 0.3891(3)
C35_3 C 0.1933(9) 0.6963(4) 0.3571(3)
H21_3 H 0.2063 0.7149 0.3335
C36_3 C 0.1826(10) 0.6322(4) 0.3594(3)
H22_3 H 0.1918 0.6074 0.3375
C37_3 C 0.1587(7) 0.6051(4) 0.3936(3)
C38_3 C 0.1498(8) 0.6423(4) 0.4255(3)
H23_3 H 0.1348 0.6240 0.4490
C39_3 C 0.1620(9) 0.7052(4) 0.4239(3)
H24_3 H 0.1552 0.7299 0.4460
C40_3 C 0.1482(7) 0.5370(4) 0.3984(3)
H25_3 H 0.1215 0.5213 0.4203
C41_3 C 0.1953(5) 0.2349(4) 0.3820(3)
C42_3 C 0.1867(5) 0.3039(3) 0.3804(3)
C43_3 C 0.1641(7) 0.3355(4) 0.4119(3)
H26_3 H 0.1529 0.3149 0.4352
C44_3 C 0.1579(6) 0.4003(4) 0.4093(3)
H27_3 H 0.1410 0.4233 0.4308
C45_3 C 0.1759(6) 0.4306(4) 0.3758(3)
C46_3 C 0.1985(6) 0.3966(4) 0.3449(3)
H28_3 H 0.2100 0.4172 0.3217
C47_3 C 0.2053(6) 0.3321(4) 0.3460(3)
H29_3 H 0.2219 0.3091 0.3244
C48_3 C 0.1762(7) 0.4989(4) 0.3722(3)
H30_3 H 0.1979 0.5161 0.3496
C49_3 C 0.4592(7) 0.9157(5) 0.3035(3)
H31_3 H 0.4468 0.9577 0.3115
H32_3 H 0.4565 0.9131 0.2756
H33_3 H 0.5135 0.9046 0.3120
C50_3 C 0.4576(7) 0.8079(5) 0.3323(3)
H34_3 H 0.4299 0.7749 0.3460
H35_3 H 0.5019 0.8237 0.3480
H36_3 H 0.4792 0.7920 0.3083
C51_3 C 0.4734(7) 0.8538(5) 0.4601(4)
H37_3 H 0.4960 0.8160 0.4707
H38_3 H 0.4737 0.8859 0.4797
H39_3 H 0.5060 0.8671 0.4384
C52_3 C 0.3297(8) 0.8115(4) 0.4873(3)
H40_3 H 0.3498 0.7699 0.4918
H41_3 H 0.2707 0.8106 0.4851
H42_3 H 0.3453 0.8381 0.5085
O18_2 O 0.1808(4) 0.9649(2) 0.44044(15)
O5_2 O 0.3321(4) 0.9326(2) 0.94189(15)
C17_3 C 0.3256(6) 0.9841(4) 0.9582(2)
C18_5 C 0.3255(6) 0.9879(4) 1.0000(2)
Eu5_2 Eu 0.32439(3) 0.894796(18) 0.879252(11)
S1_4 S 0.10948(19) 0.13378(13) 0.82295(8)
S2_4 S 0.12867(19) 0.15994(12) 0.94476(7)
O1_4 O 0.2500(5) 0.0356(2) 0.82283(14)
O9_4 O 0.2993(4) 0.1695(3) 0.91764(18)
O10_4 O 0.2705(4) 0.1777(3) 0.85630(18)
O11_2 O 0.3194(5) 0.7935(3) 0.91326(16)
O12_2 O 0.2876(4) 0.7958(3) 0.85186(17)
O13_4 O 0.1285(5) 0.1070(3) 0.86212(18)
O14_4 O 0.1612(4) 0.0947(2) 0.93845(17)
C3_4 C 0.2293(8) 0.0323(5) 0.7445(3)
H1_4 H 0.2254 0.0707 0.7571
C4_4 C 0.2219(8) 0.0307(5) 0.7046(3)
H2_4 H 0.2140 0.0675 0.6905
H9_4 H 0.0651 0.0295 0.9030
C17_4 C 0.1744(6) 0.0159(4) 0.4582(2)
C18_6 C 0.1745(6) 0.0121(4) 0.5000(2)
C19_4 C 0.1520(6) 0.0659(4) 0.5217(2)
H11_4 H 0.1332 0.1019 0.5092
C20_4 C 0.1584(6) 0.0637(4) 0.5611(2)
H12_4 H 0.1435 0.0986 0.5756
C21_4 C 0.1860(6) 0.0117(4) 0.5795(2)
C24_4 C 0.1947(6) 0.0151(4) 0.6215(3)
H15_4 H 0.1817 0.0531 0.6332
C33_4 C 0.2943(6) 0.2000(4) 0.8874(3)
C34_4 C 0.3153(6) 0.2684(4) 0.8891(3)
C35_4 C 0.3067(9) 0.3037(4) 0.8571(3)
H21_4 H 0.2937 0.2851 0.8335
C36_4 C 0.3174(10) 0.3678(4) 0.8594(3)
H22_4 H 0.3082 0.3926 0.8375
C37_4 C 0.3413(7) 0.3949(4) 0.8936(3)
C38_4 C 0.3502(8) 0.3577(4) 0.9255(3)
H23_4 H 0.3652 0.3760 0.9490
C39_4 C 0.3380(9) 0.2948(4) 0.9239(3)
H24_4 H 0.3448 0.2701 0.9460
C40_4 C 0.3518(7) 0.4630(4) 0.8984(3)
H25_4 H 0.3785 0.4787 0.9203
C41_4 C 0.3047(5) 0.7651(4) 0.8820(3)
C42_4 C 0.3133(5) 0.6961(3) 0.8804(3)
C43_4 C 0.3359(7) 0.6645(4) 0.9119(3)
H26_4 H 0.3471 0.6851 0.9352
C44_4 C 0.3421(6) 0.5997(4) 0.9093(3)
H27_4 H 0.3590 0.5767 0.9308
C45_4 C 0.3241(6) 0.5694(4) 0.8758(3)
C46_4 C 0.3015(6) 0.6034(4) 0.8449(3)
H28_4 H 0.2900 0.5828 0.8217
C47_4 C 0.2947(6) 0.6679(4) 0.8460(3)
H29_4 H 0.2781 0.6909 0.8244
C48_4 C 0.3238(7) 0.5011(4) 0.8722(3)
H30_4 H 0.3021 0.4839 0.8496
C49_4 C 0.0408(7) 0.0843(5) 0.8035(3)
H31_4 H 0.0532 0.0423 0.8115
H32_4 H 0.0435 0.0869 0.7756
C50_4 C 0.0424(7) 0.1921(5) 0.8323(3)
H34_4 H 0.0701 0.2251 0.8460
H36_4 H 0.0208 0.2080 0.8083
C51_4 C 0.0266(7) 0.1462(5) 0.9601(4)
H37_4 H 0.0040 0.1840 0.9707
H38_4 H 0.0263 0.1141 0.9797
C52_4 C 0.1703(8) 0.1885(4) 0.9873(3)
H40_4 H 0.1502 0.2301 0.9918
H41_4 H 0.2293 0.1894 0.9851
O20_2 O 0.3974(4) 0.0922(2) 0.86992(16)
S3_4 S 0.47706(19) 0.85075(13) 0.94388(7)
S4_4 S 0.44552(16) 0.80753(10) 0.81825(7)
O2_4 O 0.2581(4) 0.9325(2) 0.82474(15)
O3_4 O 0.1855(4) 0.8763(2) 0.89444(15)
O4_4 O 0.1998(4) 0.9786(2) 0.89533(16)
O15_4 O 0.4563(5) 0.8666(3) 0.90290(18)
O16_4 O 0.4157(4) 0.8719(3) 0.82642(15)
C1_4 C 0.2503(7) 0.9826(4) 0.8078(2)
C2_4 C 0.2419(6) 0.9808(4) 0.7655(2)
C5_4 C 0.2265(7) 0.9746(4) 0.6864(2)
C6_4 C 0.2401(7) 0.9208(4) 0.7069(2)
H3_4 H 0.2440 0.8823 0.6944
C7_4 C 0.2480(7) 0.9252(4) 0.7466(2)
H4_4 H 0.2578 0.8890 0.7609
C8_4 C 0.2183(6) 0.9711(4) 0.6436(2)
H5_4 H 0.2317 0.9331 0.6319
C9_4 C 0.1559(6) 0.9291(4) 0.8946(2)
C10_4 C 0.0651(6) 0.9385(4) 0.8928(2)
C11_4 C 0.0138(7) 0.8871(4) 0.8891(3)
H6_4 H 0.0360 0.8469 0.8901
C15_4 C 0.0316(6) 0.9956(5) 0.8967(3)
C22_4 C 0.2085(7) 0.9600(4) 0.5583(3)
H13_4 H 0.2273 0.9242 0.5709
C23_4 C 0.2031(6) 0.9614(4) 0.5189(2)
H14_4 H 0.2196 0.9265 0.5047
C53_3 C 0.5557(7) 0.9007(5) 0.9544(3)
H43_3 H 0.5367 0.9431 0.9523
H44_3 H 0.6001 0.8940 0.9365
H45_3 H 0.5747 0.8930 0.9804
C54_3 C 0.5318(7) 0.7803(5) 0.9423(3)
H46_4 H 0.4954 0.7462 0.9480
H47_3 H 0.5754 0.7814 0.9611
H48_3 H 0.5548 0.7748 0.9168
C55_3 C 0.5467(7) 0.8155(5) 0.8017(3)
H49_3 H 0.5677 0.7753 0.7942
H50_3 H 0.5804 0.8324 0.8222
H51_3 H 0.5478 0.8433 0.7798
C56_4 C 0.4010(7) 0.7871(5) 0.7737(3)
H52_4 H 0.4179 0.7455 0.7667
H53_4 H 0.4186 0.8161 0.7541
H54_4 H 0.3421 0.7885 0.7760
O19_2 O 0.3814(4) 0.9918(3) 0.86844(16)
C14_4 C 0.9485(7) 0.0048(5) 0.8916(3)
H8_4 H 0.9265 0.0451 0.8914
C25_4 C 0.4264(6) 0.0377(4) 0.8679(2)
C26_4 C 0.5158(6) 0.0318(4) 0.8659(2)
C27_4 C 0.5646(5) 0.0830(4) 0.8719(3)
H16_4 H 0.5415 0.1227 0.8744
C28_4 C 0.6470(6) 0.0750(5) 0.8741(3)
H17_4 H 0.6802 0.1101 0.8777
C29_4 C 0.6840(6) 0.0174(4) 0.8712(3)
C32_4 C 0.7705(6) 0.0112(4) 0.8780(3)
H20_4 H 0.8004 0.0482 0.8804
H33_4 H 0.9865 0.0954 0.8120
H35_4 H 0.9981 0.1763 0.8480
H39_4 H 0.9940 0.1329 0.9384
C12_4 C 0.9315(6) 0.8945(5) 0.8840(3)
H7_4 H 0.8981 0.8602 0.8786
C13_4 C 0.8983(6) 0.9530(4) 0.8868(3)
C16_4 C 0.8120(6) 0.9590(5) 0.8813(3)
H10_4 H 0.7819 0.9220 0.8798
C30_4 C 0.6347(6) 0.9667(5) 0.8637(3)
H18_4 H 0.6586 0.9276 0.8600
C31_4 C 0.5501(6) 0.9729(4) 0.8617(3)
H19_4 H 0.5168 0.9380 0.8575
C53_4 C 0.9443(7) 0.0993(5) 0.4544(3)
H43_4 H 0.9633 0.0569 0.4523
H44_4 H 0.8999 0.1060 0.4365
H45_4 H 0.9253 0.1070 0.4804
C54_4 C 0.9682(7) 0.2197(5) 0.4423(3)
H47_4 H 0.9246 0.2186 0.4611
H48_4 H 0.9452 0.2252 0.4168
C55_4 C 0.9533(7) 0.1845(5) 0.3017(3)
H49_4 H 0.9323 0.2247 0.2942
H50_4 H 0.9196 0.1676 0.3222
H51_4 H 0.9522 0.1567 0.2798
H42_4 H 0.1547 0.1619 0.0085
loop_
_geom_bond_atom_site_label_1
_geom_bond_atom_site_label_2
_geom_bond_site_symmetry_1
_geom_bond_site_symmetry_2
H43 C53 1_555 1_555
H44 C53 1_555 1_555
H45 C53 1_555 1_555
H47 C54 1_555 1_555
H48 C54 1_555 1_555
H49 C55 1_555 1_555
H50 C55 1_555 1_555
H51 C55 1_555 1_555
Eu1 O1 1_555 1_555
Eu2 O2 1_555 1_555
S1 O13 1_555 1_555
S2 O14 1_555 1_555
S3 O15 1_555 1_555
S4 O16 1_555 1_555
O1 C1 1_555 1_555
O2 C1 1_555 1_555
O3 Eu2 1_555 1_555
O4 Eu1 1_555 1_555
O5 C17 1_555 1_555
O6 C17 1_555 1_555
O9 Eu1 1_555 1_555
O10 Eu1 1_555 1_555
O13 Eu1 1_555 1_555
O14 Eu1 1_555 1_555
O15 Eu2 1_555 1_555
O16 Eu2 1_555 1_555
C1 C2 1_555 1_555
C2 C3 1_555 1_555
C3 H1 1_555 1_555
C4 C3 1_555 1_555
H2 C4 1_555 1_555
C5 C4 1_555 1_555
C6 C5 1_555 1_555
H3 C6 1_555 1_555
C7 C2 1_555 1_555
H4 C7 1_555 1_555
C8 C5 1_555 1_555
H5 C8 1_555 1_555
C9 O3 1_555 1_555
C10 C9 1_555 1_555
C11 C10 1_555 1_555
H6 C11 1_555 1_555
C12 C11 1_555 1_555
H7 C12 1_555 1_555
C13 C12 1_555 1_555
C14 C13 1_555 1_555
H8 C14 1_555 1_555
C15 C10 1_555 1_555
H9 C15 1_555 1_555
C16 C13 1_555 1_555
H10 C16 1_555 1_555
C17 C18 1_555 1_555
C18 C19 1_555 1_555
C19 H11 1_555 1_555
C20 C19 1_555 1_555
H12 C20 1_555 1_555
C21 C20 1_555 1_555
C22 C21 1_555 1_555
H13 C22 1_555 1_555
C23 C18 1_555 1_555
H14 C23 1_555 1_555
C24 C8 1_555 1_555
H15 C24 1_555 1_555
C26 C27 1_555 1_555
C27 H16 1_555 1_555
C28 C27 1_555 1_555
H17 C28 1_555 1_555
C29 C28 1_555 1_555
C30 C29 1_555 1_555
H18 C30 1_555 1_555
C31 C26 1_555 1_555
H19 C31 1_555 1_555
C32 C16 1_555 1_555
H20 C32 1_555 1_555
C33 O9 1_555 1_555
C34 C33 1_555 1_555
C35 C34 1_555 1_555
H21 C35 1_555 1_555
C36 C35 1_555 1_555
H22 C36 1_555 1_555
C37 C36 1_555 1_555
C38 C37 1_555 1_555
H23 C38 1_555 1_555
C39 C34 1_555 1_555
H24 C39 1_555 1_555
C40 C37 1_555 1_555
H25 C40 1_555 1_555
C49 S1 1_555 1_555
H31 C49 1_555 1_555
H32 C49 1_555 1_555
H33 C49 1_555 1_555
C50 S1 1_555 1_555
H34 C50 1_555 1_555
H35 C50 1_555 1_555
H36 C50 1_555 1_555
C51 S2 1_555 1_555
H37 C51 1_555 1_555
H38 C51 1_555 1_555
H39 C51 1_555 1_555
C52 S2 1_555 1_555
H40 C52 1_555 1_555
H41 C52 1_555 1_555
C56 S4 1_555 1_555
H52 C56 1_555 1_555
H53 C56 1_555 1_555
H54 C56 1_555 1_555
Eu3 O6 1_555 1_555
Eu5 O5 1_555 1_555
O17 Eu2 1_555 1_555
O18 Eu1 1_555 1_555
O19 Eu1 1_555 1_555
O20 Eu1 1_555 1_555
O21 Eu2 1_555 1_555
O22 Eu2 1_555 1_555
Eu2 O4 1_555 1_555
Eu2 O19 1_555 1_555
O4 C9 1_555 1_555
O10 C33 1_555 1_555
C6 C7 1_555 1_555
C14 C15 1_555 1_555
C21 C24 1_555 1_555
C22 C23 1_555 1_555
C29 C32 1_555 1_555
C30 C31 1_555 1_555
C38 C39 1_555 1_555
O21 C41 1_555 1_555
O22 C41 1_555 1_555
C41 C42 1_555 1_555
C42 C43 1_555 1_555
C43 H26 1_555 1_555
C44 C43 1_555 1_555
H27 C44 1_555 1_555
C45 C44 1_555 1_555
C46 C45 1_555 1_555
H28 C46 1_555 1_555
C47 C42 1_555 1_555
H29 C47 1_555 1_555
C45 C48 1_555 1_555
C46 C47 1_555 1_555
O19 C25 1_555 1_555
O20 C25 1_555 1_555
O7 C25_2 1_555 1_555
O8 C25_2 1_555 1_555
H7_2 C12_2 1_555 1_555
C13_2 C12_2 1_555 1_555
C14_2 C13_2 1_555 1_555
H8_2 C14_2 1_555 1_555
C16_2 C13_2 1_555 1_555
H10_2 C16_2 1_555 1_555
C25_2 C26_2 1_555 1_555
C26_2 C27_2 1_555 1_555
C27_2 H16_2 1_555 1_555
C28_2 C27_2 1_555 1_555
H17_2 C28_2 1_555 1_555
C29_2 C28_2 1_555 1_555
C30_2 C29_2 1_555 1_555
H18_2 C30_2 1_555 1_555
C31_2 C26_2 1_555 1_555
H19_2 C31_2 1_555 1_555
C32_2 C16_2 1_555 1_555
H20_2 C32_2 1_555 1_555
Eu3 O7 1_555 1_555
Eu5 O7 1_555 1_555
O8 Eu3 1_555 1_555
C29_2 C32_2 1_555 1_555
C30_2 C31_2 1_555 1_555
O11 C41_2 1_555 1_555
O12 C41_2 1_555 1_555
C41_2 C42_2 1_555 1_555
C42_2 C43_2 1_555 1_555
C43_2 H26_2 1_555 1_555
C44_2 C43_2 1_555 1_555
H27_2 C44_2 1_555 1_555
C45_2 C44_2 1_555 1_555
C46_2 C45_2 1_555 1_555
H28_2 C46_2 1_555 1_555
C47_2 C42_2 1_555 1_555
H29_2 C47_2 1_555 1_555
Eu5 O11 1_555 1_555
O12 Eu5 1_555 1_555
C45_2 C48_2 1_555 1_555
C46_2 C47_2 1_555 1_555
O17 C17_2 1_555 1_555
O18 C17_2 1_555 1_555
C17_2 C18_2 1_555 1_555
Eu3 O1_2 1_555 1_555
Eu5 O2_2 1_555 1_555
S1_2 O13_2 1_555 1_555
S2_2 O14_2 1_555 1_555
S3_2 O15_2 1_555 1_555
S4_2 O16_2 1_555 1_555
O1_2 C1_2 1_555 1_555
O2_2 C1_2 1_555 1_555
O3_2 Eu5 1_555 1_555
O4_2 Eu3 1_555 1_555
O9_2 Eu3 1_555 1_555
O10_2 Eu3 1_555 1_555
O13_2 Eu3 1_555 1_555
O14_2 Eu3 1_555 1_555
O15_2 Eu5 1_555 1_555
O16_2 Eu5 1_555 1_555
C1_2 C2_2 1_555 1_555
C2_2 C3_2 1_555 1_555
C3_2 H1_2 1_555 1_555
C4_2 C3_2 1_555 1_555
H2_2 C4_2 1_555 1_555
C5_2 C4_2 1_555 1_555
C6_2 C5_2 1_555 1_555
H3_2 C6_2 1_555 1_555
C7_2 C2_2 1_555 1_555
H4_2 C7_2 1_555 1_555
C8_2 C5_2 1_555 1_555
H5_2 C8_2 1_555 1_555
C9_2 O3_2 1_555 1_555
C10_2 C9_2 1_555 1_555
C11_2 C10_2 1_555 1_555
H6_2 C11_2 1_555 1_555
C15_2 C10_2 1_555 1_555
H9_2 C15_2 1_555 1_555
C18_3 C19_2 1_555 1_555
C19_2 H11_2 1_555 1_555
C20_2 C19_2 1_555 1_555
H12_2 C20_2 1_555 1_555
C21_2 C20_2 1_555 1_555
C22_2 C21_2 1_555 1_555
H13_2 C22_2 1_555 1_555
C23_2 C18_3 1_555 1_555
H14_2 C23_2 1_555 1_555
C24_2 C8_2 1_555 1_555
H15_2 C24_2 1_555 1_555
C33_2 O9_2 1_555 1_555
C34_2 C33_2 1_555 1_555
C35_2 C34_2 1_555 1_555
H21_2 C35_2 1_555 1_555
C36_2 C35_2 1_555 1_555
H22_2 C36_2 1_555 1_555
C37_2 C36_2 1_555 1_555
C38_2 C37_2 1_555 1_555
H23_2 C38_2 1_555 1_555
C39_2 C34_2 1_555 1_555
H24_2 C39_2 1_555 1_555
C40_2 C37_2 1_555 1_555
H25_2 C40_2 1_555 1_555
C49_2 S1_2 1_555 1_555
H31_2 C49_2 1_555 1_555
H32_2 C49_2 1_555 1_555
C50_2 S1_2 1_555 1_555
H34_2 C50_2 1_555 1_555
H36_2 C50_2 1_555 1_555
C51_2 S2_2 1_555 1_555
H37_2 C51_2 1_555 1_555
H38_2 C51_2 1_555 1_555
C52_2 S2_2 1_555 1_555
H40_2 C52_2 1_555 1_555
H41_2 C52_2 1_555 1_555
H42 C52_2 1_555 1_555
C53_2 S3_2 1_555 1_555
H43_2 C53_2 1_555 1_555
H44_2 C53_2 1_555 1_555
H45_2 C53_2 1_555 1_555
C54_2 S3_2 1_555 1_555
H46_2 C54_2 1_555 1_555
H47_2 C54_2 1_555 1_555
H48_2 C54_2 1_555 1_555
C55_2 S4_2 1_555 1_555
H49_2 C55_2 1_555 1_555
H50_2 C55_2 1_555 1_555
H51_2 C55_2 1_555 1_555
C56_2 S4_2 1_555 1_555
H52_2 C56_2 1_555 1_555
H53_2 C56_2 1_555 1_555
H54_2 C56_2 1_555 1_555
Eu5 O4_2 1_555 1_555
O4_2 C9_2 1_555 1_555
O10_2 C33_2 1_555 1_555
C6_2 C7_2 1_555 1_555
C21_2 C24_2 1_555 1_555
C22_2 C23_2 1_555 1_555
C38_2 C39_2 1_555 1_555
Eu6 O7_2 1_555 1_555
O8_2 C25_3 1_555 1_555
O8_2 Eu4 1_555 1_555
Eu6 O2_3 1_555 1_555
S3_3 O15_3 1_555 1_555
S4_3 O16_3 1_555 1_555
O2_3 C1_3 1_555 1_555
O3_3 Eu6 1_555 1_555
O15_3 Eu6 1_555 1_555
O16_3 Eu6 1_555 1_555
C1_3 C2_3 1_555 1_555
C6_3 C5_3 1_555 1_555
H3_3 C6_3 1_555 1_555
C7_3 C2_3 1_555 1_555
H4_3 C7_3 1_555 1_555
C8_3 C5_3 1_555 1_555
H5_3 C8_3 1_555 1_555
C9_3 O3_3 1_555 1_555
C10_3 C9_3 1_555 1_555
C11_3 C10_3 1_555 1_555
H6_3 C11_3 1_555 1_555
C12_3 C11_3 1_555 1_555
H7_3 C12_3 1_555 1_555
C13_3 C12_3 1_555 1_555
C15_3 C10_3 1_555 1_555
C16_3 C13_3 1_555 1_555
H10_3 C16_3 1_555 1_555
H13_3 C22_3 1_555 1_555
H14_3 C23_3 1_555 1_555
H18_3 C30_3 1_555 1_555
H19_3 C31_3 1_555 1_555
C56_3 S4_3 1_555 1_555
H52_3 C56_3 1_555 1_555
H53_3 C56_3 1_555 1_555
H54_3 C56_3 1_555 1_555
O17_2 Eu6 1_555 1_555
O21_2 Eu6 1_555 1_555
O22_2 Eu6 1_555 1_555
Eu6 O4_3 1_555 1_555
O4_3 C9_3 1_555 1_555
C6_3 C7_3 1_555 1_555
C22_3 C23_3 1_555 1_555
C30_3 C31_3 1_555 1_555
Eu3_2 O6_2 1_555 1_555
Eu4 O1_3 1_555 1_555
S1_3 O13_3 1_555 1_555
S2_3 O14_3 1_555 1_555
O9_3 Eu4 1_555 1_555
O10_3 Eu4 1_555 1_555
O21_2 C41_3 1_555 1_555
O22_2 C41_3 1_555 1_555
O13_3 Eu4 1_555 1_555
O14_3 Eu4 1_555 1_555
C3_3 H1_3 1_555 1_555
C4_3 C3_3 1_555 1_555
H2_3 C4_3 1_555 1_555
H8_3 C14_3 1_555 1_555
C18_4 C19_3 1_555 1_555
C19_3 H11_3 1_555 1_555
C20_3 C19_3 1_555 1_555
H12_3 C20_3 1_555 1_555
C21_3 C20_3 1_555 1_555
H15_3 C24_3 1_555 1_555
C26_3 C27_3 1_555 1_555
C27_3 H16_3 1_555 1_555
C28_3 C27_3 1_555 1_555
H17_3 C28_3 1_555 1_555
C29_3 C28_3 1_555 1_555
H20_3 C32_3 1_555 1_555
C33_3 O9_3 1_555 1_555
C34_3 C33_3 1_555 1_555
C35_3 C34_3 1_555 1_555
H21_3 C35_3 1_555 1_555
C36_3 C35_3 1_555 1_555
H22_3 C36_3 1_555 1_555
C37_3 C36_3 1_555 1_555
C38_3 C37_3 1_555 1_555
H23_3 C38_3 1_555 1_555
C39_3 C34_3 1_555 1_555
H24_3 C39_3 1_555 1_555
C40_3 C37_3 1_555 1_555
H25_3 C40_3 1_555 1_555
C41_3 C42_3 1_555 1_555
C42_3 C43_3 1_555 1_555
C43_3 H26_3 1_555 1_555
C44_3 C43_3 1_555 1_555
H27_3 C44_3 1_555 1_555
C45_3 C44_3 1_555 1_555
C46_3 C45_3 1_555 1_555
H28_3 C46_3 1_555 1_555
C47_3 C42_3 1_555 1_555
H29_3 C47_3 1_555 1_555
C48_3 C40_3 1_555 1_555
H30_3 C48_3 1_555 1_555
C49_3 S1_3 1_555 1_555
H31_3 C49_3 1_555 1_555
H32_3 C49_3 1_555 1_555
H33_3 C49_3 1_555 1_555
C50_3 S1_3 1_555 1_555
H34_3 C50_3 1_555 1_555
H35_3 C50_3 1_555 1_555
H36_3 C50_3 1_555 1_555
C51_3 S2_3 1_555 1_555
H37_3 C51_3 1_555 1_555
H38_3 C51_3 1_555 1_555
H39_3 C51_3 1_555 1_555
C52_3 S2_3 1_555 1_555
H40_3 C52_3 1_555 1_555
H41_3 C52_3 1_555 1_555
H42_3 C52_3 1_555 1_555
O18_2 Eu4 1_555 1_555
O10_3 C33_3 1_555 1_555
C21_3 C24_3 1_555 1_555
C29_3 C32_3 1_555 1_555
C38_3 C39_3 1_555 1_555
C45_3 C48_3 1_555 1_555
C46_3 C47_3 1_555 1_555
O5_2 C17_3 1_555 1_555
C17_3 C18_5 1_555 1_555
Eu5_2 O5_2 1_555 1_555
Eu3_2 O1_4 1_555 1_555
S1_4 O13_4 1_555 1_555
S2_4 O14_4 1_555 1_555
O17_2 C17_4 1_555 1_555
O9_4 Eu3_2 1_555 1_555
O10_4 Eu3_2 1_555 1_555
O11_2 C41_4 1_555 1_555
O12_2 C41_4 1_555 1_555
O13_4 Eu3_2 1_555 1_555
O14_4 Eu3_2 1_555 1_555
C3_4 H1_4 1_555 1_555
C4_4 C3_4 1_555 1_555
H2_4 C4_4 1_555 1_555
C17_4 C18_6 1_555 1_555
C18_6 C19_4 1_555 1_555
C19_4 H11_4 1_555 1_555
C20_4 C19_4 1_555 1_555
H12_4 C20_4 1_555 1_555
C21_4 C20_4 1_555 1_555
H15_4 C24_4 1_555 1_555
C33_4 O9_4 1_555 1_555
C34_4 C33_4 1_555 1_555
C35_4 C34_4 1_555 1_555
H21_4 C35_4 1_555 1_555
C36_4 C35_4 1_555 1_555
H22_4 C36_4 1_555 1_555
C37_4 C36_4 1_555 1_555
C38_4 C37_4 1_555 1_555
H23_4 C38_4 1_555 1_555
C39_4 C34_4 1_555 1_555
H24_4 C39_4 1_555 1_555
C40_4 C37_4 1_555 1_555
H25_4 C40_4 1_555 1_555
C41_4 C42_4 1_555 1_555
C42_4 C43_4 1_555 1_555
C43_4 H26_4 1_555 1_555
C44_4 C43_4 1_555 1_555
H27_4 C44_4 1_555 1_555
C45_4 C44_4 1_555 1_555
C46_4 C45_4 1_555 1_555
H28_4 C46_4 1_555 1_555
C47_4 C42_4 1_555 1_555
H29_4 C47_4 1_555 1_555
C48_4 C40_4 1_555 1_555
H30_4 C48_4 1_555 1_555
C49_4 S1_4 1_555 1_555
H31_4 C49_4 1_555 1_555
H32_4 C49_4 1_555 1_555
C50_4 S1_4 1_555 1_555
H34_4 C50_4 1_555 1_555
H36_4 C50_4 1_555 1_555
C51_4 S2_4 1_555 1_555
H37_4 C51_4 1_555 1_555
H38_4 C51_4 1_555 1_555
C52_4 S2_4 1_555 1_555
H40_4 C52_4 1_555 1_555
H41_4 C52_4 1_555 1_555
Eu5_2 O11_2 1_555 1_555
O20_2 Eu3_2 1_555 1_555
O10_4 C33_4 1_555 1_555
O12_2 Eu5_2 1_555 1_555
C21_4 C24_4 1_555 1_555
C38_4 C39_4 1_555 1_555
C45_4 C48_4 1_555 1_555
C46_4 C47_4 1_555 1_555
Eu5_2 O2_4 1_555 1_555
S3_4 O15_4 1_555 1_555
S4_4 O16_4 1_555 1_555
O2_4 C1_4 1_555 1_555
O3_4 Eu5_2 1_555 1_555
O15_4 Eu5_2 1_555 1_555
O16_4 Eu5_2 1_555 1_555
C1_4 C2_4 1_555 1_555
C6_4 C5_4 1_555 1_555
H3_4 C6_4 1_555 1_555
C7_4 C2_4 1_555 1_555
H4_4 C7_4 1_555 1_555
C8_4 C5_4 1_555 1_555
H5_4 C8_4 1_555 1_555
C9_4 O3_4 1_555 1_555
C10_4 C9_4 1_555 1_555
C11_4 C10_4 1_555 1_555
H6_4 C11_4 1_555 1_555
C15_4 C10_4 1_555 1_555
H13_4 C22_4 1_555 1_555
H14_4 C23_4 1_555 1_555
C53_3 S3_4 1_555 1_555
H43_3 C53_3 1_555 1_555
H44_3 C53_3 1_555 1_555
H45_3 C53_3 1_555 1_555
C54_3 S3_4 1_555 1_555
H46_4 C54_3 1_555 1_555
H47_3 C54_3 1_555 1_555
H48_3 C54_3 1_555 1_555
C55_3 S4_4 1_555 1_555
H49_3 C55_3 1_555 1_555
H50_3 C55_3 1_555 1_555
H51_3 C55_3 1_555 1_555
C56_4 S4_4 1_555 1_555
H52_4 C56_4 1_555 1_555
H53_4 C56_4 1_555 1_555
H54_4 C56_4 1_555 1_555
Eu5_2 O4_4 1_555 1_555
Eu5_2 O19_2 1_555 1_555
O4_4 C9_4 1_555 1_555
C6_4 C7_4 1_555 1_555
C22_4 C23_4 1_555 1_555
O20_2 C25_4 1_555 1_555
H8_4 C14_4 1_555 1_555
C25_4 C26_4 1_555 1_555
C26_4 C27_4 1_555 1_555
C27_4 H16_4 1_555 1_555
C28_4 C27_4 1_555 1_555
H17_4 C28_4 1_555 1_555
C29_4 C28_4 1_555 1_555
H20_4 C32_4 1_555 1_555
C29_4 C32_4 1_555 1_555
H7_4 C12_4 1_555 1_555
C13_4 C12_4 1_555 1_555
C16_4 C13_4 1_555 1_555
H10_4 C16_4 1_555 1_555
H18_4 C30_4 1_555 1_555
H19_4 C31_4 1_555 1_555
C30_4 C31_4 1_555 1_555
H43_4 C53_4 1_555 1_555
H44_4 C53_4 1_555 1_555
H45_4 C53_4 1_555 1_555
H47_4 C54_4 1_555 1_555
H48_4 C54_4 1_555 1_555
H49_4 C55_4 1_555 1_555
H50_4 C55_4 1_555 1_555
H51_4 C55_4 1_555 1_555

#END
