
###############################################################################
#
# This file contains modified crystal structure data generated from the
# MOF subset of the Cambridge Structural Database (CSD) v543 
# hosted by the Cambridge Crystallographic Data Centre (CCDC).
#
# This work is licensed under the Creative Commons
# Attribution-NonCommercial-ShareAlike 4.0 International License.
# To view a copy of this license, visit
# http://creativecommons.org/licenses/by-nc-sa/4.0/
# or send a letter to
# Creative Commons, PO Box 1866, Mountain View, CA 94042, USA.
#
# CIF created using the CSD Python API on 29 September 2022
# The structure has been converted into the P1 space group
# The structure has a 3D framework
# The original CSD entry AMOGEP is in the tetragonal crystal system
# The framework has been calculated to contain at least 10.0% void space
# The void calculation uses a probe of radius 1.32A, grid spacing 0.4
#
###############################################################################

data_AMOGEP
_chemical_formula_moiety         '(C80 H128 Br16 Cu30 N16 S30)n'
_symmetry_cell_setting           triclinic
_symmetry_space_group_name_H-M   'P 1'
_symmetry_Int_Tables_number      1
_space_group_name_Hall           'P 1'
loop_
_symmetry_equiv_pos_site_id
_symmetry_equiv_pos_as_xyz
1 x,y,z
_cell_length_a                   15.6452(5)
_cell_length_b                   15.6452(5)
_cell_length_c                   15.9953(6)
_cell_angle_alpha                90
_cell_angle_beta                 90
_cell_angle_gamma                90
_cell_volume                     3915.21
loop_
_atom_site_label
_atom_site_type_symbol
_atom_site_fract_x
_atom_site_fract_y
_atom_site_fract_z
Cu1 Cu 0.5000 0.5000 0.0000
Br2 Br 0.22059(2) 0.52393(3) 0.00067(3)
Br3 Br 0.72607(3) 0.47059(2) 0.24933(3)
Br6 Br 0.22607(3) 0.47059(2) 0.25067(3)
Cu4 Cu 0.7500 0.7500 0.2500
Cu5 Cu 0.71380(3) 0.55162(3) 0.11939(3)
Cu7 Cu 0.30162(3) 0.53620(3) 0.13061(3)
Cu10 Cu 0.80162(3) 0.53620(3) 0.36939(3)
Cu11 Cu 0.69838(3) 0.96380(3) 0.13061(3)
S3 S 0.57147(6) 0.58857(6) 0.09172(6)
S5 S 0.66143(6) 0.82147(6) 0.15828(6)
S7 S 0.33857(6) 0.67853(6) 0.15828(6)
S9 S 0.43655(6) 0.46530(6) 0.12531(6)
S11 S 0.78470(6) 0.68655(6) 0.12469(6)
N2 N 0.5064(2) 0.5628(2) 0.2450(2)
N4 N 0.6872(2) 0.7564(2) 0.0050(2)
C6 C 0.5059(2) 0.5416(2) 0.1667(2)
C8 C 0.7084(2) 0.7559(2) 0.0833(2)
C9 C 0.5603(2) 0.6318(2) 0.2811(2)
C10 C 0.3818(2) 0.1897(2) 0.0311(2)
C12 C 0.5296(3) 0.6373(3) 0.3714(3)
C13 C 0.3873(3) 0.2204(3) 0.1214(3)
C15 C 0.4982(3) 0.5471(3) 0.3906(2)
C16 C 0.2971(3) 0.2518(3) 0.1406(2)
C18 C 0.4536(2) 0.5210(3) 0.3101(2)
C19 C 0.2710(3) 0.2964(2) 0.0601(2)
H9 H 0.5512 0.6866 0.2514
H10 H 0.4366 0.1988 0.0014
H12 H 0.6217 0.6167 0.2784
H13 H 0.3667 0.1283 0.0284
H15 H 0.5769 0.6538 0.4093
H16 H 0.4038 0.1731 0.1593
H18 H 0.4827 0.6794 0.3771
H19 H 0.4294 0.2673 0.1271
H21 H 0.4579 0.5471 0.4383
H22 H 0.2971 0.2921 0.1883
H24 H 0.5465 0.5084 0.4033
H25 H 0.2584 0.2035 0.1533
H27 H 0.4536 0.4581 0.3032
H28 H 0.2081 0.2964 0.0532
H30 H 0.3940 0.5421 0.3087
H31 H 0.2921 0.3560 0.0587
Br1 Br 0.27393(3) 0.52941(2) 0.75067(3)
Cu1_2 Cu 0.5000 0.5000 1.0000
Cu2 Cu 0.28620(3) 0.44838(3) 0.88061(3)
S1 S 0.42853(6) 0.41143(6) 0.90828(6)
S2 S 0.56345(6) 0.53470(6) 0.87469(6)
N1 N 0.4936(2) 0.4372(2) 0.7550(2)
C1 C 0.4941(2) 0.4584(2) 0.8333(2)
C2 C 0.4397(2) 0.3682(2) 0.7189(2)
C3 C 0.4704(3) 0.3627(3) 0.6286(3)
C4 C 0.5018(3) 0.4529(3) 0.6094(2)
C5 C 0.5464(2) 0.4790(3) 0.6899(2)
H1 H 0.4488 0.3134 0.7486
H2 H 0.3783 0.3833 0.7216
H3 H 0.4231 0.3462 0.5907
H4 H 0.5173 0.3206 0.6229
H5 H 0.5421 0.4529 0.5617
H6 H 0.4535 0.4916 0.5967
H7 H 0.5464 0.5419 0.6968
H8 H 0.6060 0.4579 0.6913
Br4 Br 0.77941(2) 0.47607(3) 0.99933(3)
Br5 Br 0.77393(3) 0.52941(2) 0.74933(3)
Cu3 Cu 0.2500 0.2500 0.7500
Cu6 Cu 0.69838(3) 0.46380(3) 0.86939(3)
Cu8 Cu 0.19838(3) 0.46380(3) 0.63061(3)
Cu9 Cu 0.30162(3) 0.03620(3) 0.86939(3)
S4 S 0.33857(6) 0.17853(6) 0.84172(6)
S6 S 0.66143(6) 0.32147(6) 0.84172(6)
S8 S 0.16143(6) 0.32147(6) 0.65828(6)
S10 S 0.21530(6) 0.31345(6) 0.87531(6)
S12 S 0.28470(6) 0.18655(6) 0.62469(6)
N3 N 0.3128(2) 0.2436(2) 0.9950(2)
C7 C 0.2916(2) 0.2441(2) 0.9167(2)
C11 C 0.6182(2) 0.8103(2) 0.9689(2)
C14 C 0.6127(3) 0.7796(3) 0.8786(3)
C17 C 0.7029(3) 0.7482(3) 0.8594(2)
C20 C 0.7290(3) 0.7036(2) 0.9399(2)
H11 H 0.5634 0.8012 0.9986
H14 H 0.6333 0.8717 0.9716
H17 H 0.5962 0.8269 0.8407
H20 H 0.5706 0.7327 0.8729
H23 H 0.7029 0.7079 0.8117
H26 H 0.7416 0.7965 0.8467
H29 H 0.7919 0.7036 0.9468
H32 H 0.7079 0.6440 0.9413
Br4_2 Br 0.27393(3) 0.02941(2) 0.24933(3)
Cu4_2 Cu -0.0000 -0.0000 0.5000
Cu10_2 Cu 0.21380(3) 0.05162(3) 0.61939(3)
S11_2 S 0.06345(6) 0.03470(6) 0.37469(6)
H29_2 H 0.0464 0.0419 0.1968
Br5_2 Br 0.22059(2) 0.02393(3) 0.99933(3)
Cu1_3 Cu 0.2500 0.7500 0.2500
S2_2 S 0.21530(6) 0.81345(6) 0.12469(6)
N1_2 N 0.3128(2) 0.7436(2) 0.0050(2)
C1_2 C 0.2916(2) 0.7441(2) 0.0833(2)
Br3_2 Br 0.27941(2) 0.97607(3) 0.49933(3)
Br6_2 Br 0.27941(2) 0.47607(3) 0.50067(3)
Cu4_3 Cu -0.0000 1.0000 0.5000
Cu5_2 Cu 0.19838(3) 0.96380(3) 0.36939(3)
Cu6_2 Cu 0.28620(3) 0.94838(3) 0.11939(3)
Cu7_2 Cu 0.21380(3) 0.55162(3) 0.38061(3)
S3_2 S 0.16143(6) 0.82147(6) 0.34172(6)
S6_2 S 0.42853(6) 0.91143(6) 0.09172(6)
S7_2 S 0.07147(6) 0.58857(6) 0.40828(6)
S9_2 S 0.28470(6) 0.68655(6) 0.37531(6)
N2_2 N 0.1872(2) 0.7564(2) 0.4950(2)
C6_2 C 0.2084(2) 0.7559(2) 0.4167(2)
C9_2 C 0.1182(2) 0.8103(2) 0.5311(2)
C12_2 C 0.1127(3) 0.7796(3) 0.6214(3)
C15_2 C 0.2029(3) 0.7482(3) 0.6406(2)
C17_2 C 0.0018(3) 0.9529(3) 0.1094(2)
C18_2 C 0.2290(3) 0.7036(2) 0.5601(2)
C20_2 C 0.0464(2) 0.9790(3) 0.1899(2)
H9_2 H 0.0634 0.8012 0.5014
H12_2 H 0.1333 0.8717 0.5284
H15_2 H 0.0962 0.8269 0.6593
H18_2 H 0.0706 0.7327 0.6271
H20_2 H 0.0173 0.8206 0.1229
H21_2 H 0.2029 0.7079 0.6883
H23_2 H 0.0421 0.9529 0.0617
H24_2 H 0.2416 0.7965 0.6533
H27_2 H 0.2919 0.7036 0.5532
H30_2 H 0.2079 0.6440 0.5587
H32_2 H 0.1060 0.9579 0.1913
C2_2 C 0.3818(2) 0.6897(2) 0.9689(2)
C3_2 C 0.3873(3) 0.7204(3) 0.8786(3)
C4_2 C 0.2971(3) 0.7518(3) 0.8594(2)
C5_2 C 0.2710(3) 0.7964(2) 0.9399(2)
H1_2 H 0.4366 0.6988 0.9986
H2_2 H 0.3667 0.6283 0.9716
H3_2 H 0.4038 0.6731 0.8407
H4_2 H 0.4294 0.7673 0.8729
H5_2 H 0.2971 0.7921 0.8117
H6_2 H 0.2584 0.7035 0.8467
H7_2 H 0.2081 0.7964 0.9468
H8_2 H 0.2921 0.8560 0.9413
Cu4_4 Cu 1.0000 -0.0000 0.5000
Cu4_5 Cu 1.0000 1.0000 0.5000
Cu11_2 Cu 0.78620(3) 0.94838(3) 0.38061(3)
S5_2 S 0.92853(6) 0.91143(6) 0.40828(6)
N4_2 N 0.9936(2) 0.9372(2) 0.2550(2)
C8_2 C 0.9941(2) 0.9584(2) 0.3333(2)
C11_2 C 0.9397(2) 0.8682(2) 0.2189(2)
C14_2 C 0.9704(3) 0.8627(3) 0.1286(3)
H11_2 H 0.9488 0.8134 0.2486
H14_2 H 0.8783 0.8833 0.2216
H17_2 H 0.9231 0.8462 0.0907
H26_2 H 0.9535 0.9916 0.0967
Cu1_4 Cu -0.0000 0.5000 0.5000
N1_3 N 0.0064(2) 0.5628(2) 0.2550(2)
C1_3 C 0.0059(2) 0.5416(2) 0.3333(2)
C2_3 C 0.0603(2) 0.6318(2) 0.2189(2)
C3_3 C 0.0296(3) 0.6373(3) 0.1286(3)
H1_3 H 0.0512 0.6866 0.2486
H2_3 H 0.1217 0.6167 0.2216
H3_3 H 0.0769 0.6538 0.0907
H6_3 H 0.0465 0.5084 0.0967
S9_3 S 0.06345(6) 0.53470(6) 0.62531(6)
C15_3 C 0.0018(3) 0.4529(3) 0.8906(2)
C18_3 C 0.0464(2) 0.4790(3) 0.8101(2)
H18_3 H 0.0173 0.3206 0.8771
H21_3 H 0.0421 0.4529 0.9383
H27_3 H 0.0464 0.5419 0.8032
H30_3 H 0.1060 0.4579 0.8087
Cu1_5 Cu 1.0000 0.5000 0.5000
S2_3 S 0.93655(6) 0.46530(6) 0.37469(6)
C4_3 C 0.9982(3) 0.5471(3) 0.1094(2)
C5_3 C 0.9536(2) 0.5210(3) 0.1899(2)
H4_3 H 0.9827 0.6794 0.1229
H5_3 H 0.9579 0.5471 0.0617
H7_3 H 0.9536 0.4581 0.1968
H8_3 H 0.8940 0.5421 0.1913
Br4_3 Br 0.72059(2) 0.52393(3) 0.49933(3)
Cu4_6 Cu 0.7500 0.2500 0.7500
Cu5_3 Cu 0.78620(3) 0.44838(3) 0.61939(3)
Cu11_3 Cu 0.80162(3) 0.03620(3) 0.63061(3)
S3_3 S 0.92853(6) 0.41143(6) 0.59172(6)
S5_3 S 0.83857(6) 0.17853(6) 0.65828(6)
S6_3 S 0.83857(6) 0.67853(6) 0.34172(6)
S11_3 S 0.71530(6) 0.31345(6) 0.62469(6)
N2_3 N 0.9936(2) 0.4372(2) 0.7450(2)
N4_3 N 0.8128(2) 0.2436(2) 0.5050(2)
C6_3 C 0.9941(2) 0.4584(2) 0.6667(2)
C8_3 C 0.7916(2) 0.2441(2) 0.5833(2)
C9_3 C 0.9397(2) 0.3682(2) 0.7811(2)
C11_3 C 0.8818(2) 0.1897(2) 0.4689(2)
C12_3 C 0.9704(3) 0.3627(3) 0.8714(3)
C14_3 C 0.8873(3) 0.2204(3) 0.3786(3)
C17_3 C 0.7971(3) 0.2518(3) 0.3594(2)
C20_3 C 0.7710(3) 0.2964(2) 0.4399(2)
H9_3 H 0.9488 0.3134 0.7514
H11_3 H 0.9366 0.1988 0.4986
H12_3 H 0.8783 0.3833 0.7784
H14_3 H 0.8667 0.1283 0.4716
H15_3 H 0.9231 0.3462 0.9093
H17_3 H 0.9038 0.1731 0.3407
H20_3 H 0.9294 0.2673 0.3729
H23_3 H 0.7971 0.2921 0.3117
H24_3 H 0.9535 0.4916 0.9033
H26_3 H 0.7584 0.2035 0.3467
H29_3 H 0.7081 0.2964 0.4468
H32_3 H 0.7921 0.3560 0.4413
Cu4_7 Cu 0.5000 0.0000 0.0000
N1_4 N 0.1872(2) 0.2564(2) 0.5050(2)
C1_4 C 0.2084(2) 0.2559(2) 0.5833(2)
C2_4 C 0.1182(2) 0.3103(2) 0.4689(2)
C3_4 C 0.1127(3) 0.2796(3) 0.3786(3)
C4_4 C 0.2029(3) 0.2482(3) 0.3594(2)
C5_4 C 0.2290(3) 0.2036(2) 0.4399(2)
H1_4 H 0.0634 0.3012 0.4986
H2_4 H 0.1333 0.3717 0.4716
H3_4 H 0.0962 0.3269 0.3407
H4_4 H 0.0706 0.2327 0.3729
H5_4 H 0.2029 0.2079 0.3117
H6_4 H 0.2416 0.2965 0.3467
H7_4 H 0.2919 0.2036 0.4468
H8_4 H 0.2079 0.1440 0.4413
Cu4_8 Cu 0.5000 -0.0000 1.0000
Cu11_4 Cu 0.71380(3) 0.05162(3) 0.88061(3)
S5_4 S 0.57147(6) 0.08857(6) 0.90828(6)
S6_4 S 0.07147(6) 0.08857(6) 0.59172(6)
N4_4 N 0.5064(2) 0.0628(2) 0.7550(2)
C8_4 C 0.5059(2) 0.0416(2) 0.8333(2)
C11_4 C 0.5603(2) 0.1318(2) 0.7189(2)
C14_4 C 0.5296(3) 0.1373(3) 0.6286(3)
C17_4 C 0.4982(3) 0.0471(3) 0.6094(2)
C20_4 C 0.4536(2) 0.0210(3) 0.6899(2)
H11_4 H 0.5512 0.1866 0.7486
H14_4 H 0.6217 0.1167 0.7216
H17_4 H 0.5769 0.1538 0.5907
H20_4 H 0.4827 0.1794 0.6229
H23_4 H 0.4579 0.0471 0.5617
H26_4 H 0.5465 0.0084 0.5967
H32_4 H 0.3940 0.0421 0.6913
Cu4_9 Cu 0.5000 1.0000 0.0000
Br4_4 Br 0.22607(3) 0.97059(2) 0.74933(3)
Cu4_10 Cu 0.5000 1.0000 1.0000
S11_4 S 0.43655(6) 0.96530(6) 0.87469(6)
H29_4 H 0.4536 0.9581 0.6968
N2_4 N 0.0064(2) 0.0628(2) 0.7450(2)
C6_4 C 0.0059(2) 0.0416(2) 0.6667(2)
C9_4 C 0.0603(2) 0.1318(2) 0.7811(2)
C12_4 C 0.0296(3) 0.1373(3) 0.8714(3)
H9_4 H 0.0512 0.1866 0.7514
H12_4 H 0.1217 0.1167 0.7784
H15_4 H 0.0769 0.1538 0.9093
H24_4 H 0.0465 0.0084 0.9033
Br1_2 Br 0.77393(3) 0.02941(2) 0.25067(3)
Br2_2 Br 0.72059(2) 0.02393(3) 0.50067(3)
C15_4 C 0.9982(3) 0.0471(3) 0.8906(2)
C18_4 C 0.9536(2) 0.0210(3) 0.8101(2)
H18_4 H 0.9827 0.1794 0.8771
H21_4 H 0.9579 0.0471 0.9383
H30_4 H 0.8940 0.0421 0.8087
Br6_3 Br 0.72607(3) 0.97059(2) 0.75067(3)
S9_4 S 0.93655(6) 0.96530(6) 0.62531(6)
S10_2 S 0.71530(6) 0.81345(6) 0.37531(6)
N3_2 N 0.8128(2) 0.7436(2) 0.4950(2)
C7_2 C 0.7916(2) 0.7441(2) 0.4167(2)
C10_2 C 0.8818(2) 0.6897(2) 0.5311(2)
C13_2 C 0.8873(3) 0.7204(3) 0.6214(3)
C16_2 C 0.7971(3) 0.7518(3) 0.6406(2)
C19_2 C 0.7710(3) 0.7964(2) 0.5601(2)
H10_2 H 0.9366 0.6988 0.5014
H13_2 H 0.8667 0.6283 0.5284
H16_2 H 0.9038 0.6731 0.6593
H19_2 H 0.9294 0.7673 0.6271
H22_2 H 0.7971 0.7921 0.6883
H25_2 H 0.7584 0.7035 0.6533
H27_4 H 0.9536 0.9581 0.8032
H28_2 H 0.7081 0.7964 0.5532
H31_2 H 0.7921 0.8560 0.5587
C9_5 C 0.6182(2) 0.3103(2) 0.0311(2)
C12_5 C 0.6127(3) 0.2796(3) 0.1214(3)
C15_5 C 0.7029(3) 0.2482(3) 0.1406(2)
C18_5 C 0.7290(3) 0.2036(2) 0.0601(2)
H9_5 H 0.5634 0.3012 0.0014
H12_5 H 0.6333 0.3717 0.0284
H15_5 H 0.5962 0.3269 0.1593
H18_5 H 0.5706 0.2327 0.1271
H21_5 H 0.7029 0.2079 0.1883
H24_5 H 0.7416 0.2965 0.1533
H27_5 H 0.7919 0.2036 0.0532
H30_5 H 0.7079 0.1440 0.0587
S9_5 S 0.78470(6) 0.18655(6) 0.87531(6)
N2_5 N 0.6872(2) 0.2564(2) 0.9950(2)
C6_5 C 0.7084(2) 0.2559(2) 0.9167(2)
Br6_4 Br 0.77941(2) 0.97607(3) 0.00067(3)
S9_6 S 0.56345(6) 0.03470(6) 0.12531(6)
H27_6 H 0.5464 0.0419 0.3032
N2_6 N 0.4936(2) 0.9372(2) 0.2450(2)
C6_6 C 0.4941(2) 0.9584(2) 0.1667(2)
C9_6 C 0.4397(2) 0.8682(2) 0.2811(2)
C12_6 C 0.4704(3) 0.8627(3) 0.3714(3)
C15_6 C 0.5018(3) 0.9529(3) 0.3906(2)
C18_6 C 0.5464(2) 0.9790(3) 0.3101(2)
H9_6 H 0.4488 0.8134 0.2514
H12_6 H 0.3783 0.8833 0.2784
H15_6 H 0.4231 0.8462 0.4093
H18_6 H 0.5173 0.8206 0.3771
H21_6 H 0.5421 0.9529 0.4383
H24_6 H 0.4535 0.9916 0.4033
H30_6 H 0.6060 0.9579 0.3087
loop_
_geom_bond_atom_site_label_1
_geom_bond_atom_site_label_2
_geom_bond_site_symmetry_1
_geom_bond_site_symmetry_2
Br3 Cu5 1_555 1_555
Br6 Cu7 1_555 1_555
Cu4 S5 1_555 1_555
Cu5 S3 1_555 1_555
Cu7 Br2 1_555 1_555
Cu10 Br3 1_555 1_555
Cu11 S5 1_555 1_555
S3 Cu1 1_555 1_555
S5 C8 1_555 1_555
S7 Cu7 1_555 1_555
S9 Cu1 1_555 1_555
S11 Cu4 1_555 1_555
N2 C6 1_555 1_555
N4 C8 1_555 1_555
C6 S3 1_555 1_555
C8 S11 1_555 1_555
C9 N2 1_555 1_555
C12 C9 1_555 1_555
C13 C10 1_555 1_555
C15 C12 1_555 1_555
C16 C13 1_555 1_555
C18 N2 1_555 1_555
H9 C9 1_555 1_555
H10 C10 1_555 1_555
H12 C9 1_555 1_555
H13 C10 1_555 1_555
H15 C12 1_555 1_555
H16 C13 1_555 1_555
H18 C12 1_555 1_555
H19 C13 1_555 1_555
H21 C15 1_555 1_555
H22 C16 1_555 1_555
H24 C15 1_555 1_555
H25 C16 1_555 1_555
H27 C18 1_555 1_555
H28 C19 1_555 1_555
H30 C18 1_555 1_555
H31 C19 1_555 1_555
Cu5 S11 1_555 1_555
Cu7 S9 1_555 1_555
S9 C6 1_555 1_555
C15 C18 1_555 1_555
C16 C19 1_555 1_555
Br1 Cu2 1_555 1_555
Cu1_2 S1 1_555 1_555
Cu2 S1 1_555 1_555
S1 C1 1_555 1_555
S2 Cu1_2 1_555 1_555
N1 C1 1_555 1_555
C1 S2 1_555 1_555
C2 N1 1_555 1_555
C3 C2 1_555 1_555
C4 C3 1_555 1_555
C5 N1 1_555 1_555
H1 C2 1_555 1_555
H2 C2 1_555 1_555
H3 C3 1_555 1_555
H4 C3 1_555 1_555
H5 C4 1_555 1_555
H6 C4 1_555 1_555
H7 C5 1_555 1_555
H8 C5 1_555 1_555
Br5 Cu6 1_555 1_555
Cu3 S4 1_555 1_555
Cu6 S2 1_555 1_555
Cu8 Br1 1_555 1_555
Cu9 S4 1_555 1_555
S4 C7 1_555 1_555
S6 Cu6 1_555 1_555
S8 Cu3 1_555 1_555
S10 Cu2 1_555 1_555
S12 Cu3 1_555 1_555
N3 C7 1_555 1_555
C7 S10 1_555 1_555
C14 C11 1_555 1_555
C17 C14 1_555 1_555
H11 C11 1_555 1_555
H14 C11 1_555 1_555
H17 C14 1_555 1_555
H20 C14 1_555 1_555
H23 C17 1_555 1_555
H26 C17 1_555 1_555
H29 C20 1_555 1_555
H32 C20 1_555 1_555
C4 C5 1_555 1_555
Br4 Cu6 1_555 1_555
Cu3 S10 1_555 1_555
Cu8 S8 1_555 1_555
C17 C20 1_555 1_555
S11_2 Cu4_2 1_555 1_555
Cu1_3 S7 1_555 1_555
S7 C1_2 1_555 1_555
S2_2 Cu1_3 1_555 1_555
N1_2 C1_2 1_555 1_555
C1_2 S2_2 1_555 1_555
Br3_2 Cu5_2 1_555 1_555
Br6_2 Cu7_2 1_555 1_555
Cu5_2 S3_2 1_555 1_555
Cu6_2 S2_2 1_555 1_555
Cu7_2 Br6 1_555 1_555
S3_2 Cu1_3 1_555 1_555
S6_2 Cu6_2 1_555 1_555
S7_2 Cu7_2 1_555 1_555
S9_2 Cu1_3 1_555 1_555
N2_2 C6_2 1_555 1_555
C6_2 S3_2 1_555 1_555
C9_2 N2_2 1_555 1_555
C12_2 C9_2 1_555 1_555
C15_2 C12_2 1_555 1_555
C18_2 N2_2 1_555 1_555
H9_2 C9_2 1_555 1_555
H12_2 C9_2 1_555 1_555
H15_2 C12_2 1_555 1_555
H18_2 C12_2 1_555 1_555
H21_2 C15_2 1_555 1_555
H23_2 C17_2 1_555 1_555
H24_2 C15_2 1_555 1_555
H27_2 C18_2 1_555 1_555
H30_2 C18_2 1_555 1_555
H32_2 C20_2 1_555 1_555
Cu7_2 S9_2 1_555 1_555
S9_2 C6_2 1_555 1_555
C15_2 C18_2 1_555 1_555
C17_2 C20_2 1_555 1_555
C3_2 C2_2 1_555 1_555
C4_2 C3_2 1_555 1_555
H1_2 C2_2 1_555 1_555
H2_2 C2_2 1_555 1_555
H3_2 C3_2 1_555 1_555
H4_2 C3_2 1_555 1_555
H5_2 C4_2 1_555 1_555
H6_2 C4_2 1_555 1_555
H7_2 C5_2 1_555 1_555
H8_2 C5_2 1_555 1_555
C4_2 C5_2 1_555 1_555
Cu4_5 S5_2 1_555 1_555
Cu11_2 S5_2 1_555 1_555
S5_2 C8_2 1_555 1_555
N4_2 C8_2 1_555 1_555
C11_2 N4_2 1_555 1_555
C14_2 C11_2 1_555 1_555
H11_2 C11_2 1_555 1_555
H14_2 C11_2 1_555 1_555
H17_2 C14_2 1_555 1_555
Cu1_4 S7_2 1_555 1_555
S7_2 C1_3 1_555 1_555
N1_3 C1_3 1_555 1_555
C2_3 N1_3 1_555 1_555
C3_3 C2_3 1_555 1_555
H1_3 C2_3 1_555 1_555
H2_3 C2_3 1_555 1_555
H3_3 C3_3 1_555 1_555
Cu8 Br6_2 1_555 1_555
S9_3 Cu1_4 1_555 1_555
H21_3 C15_3 1_555 1_555
H27_3 C18_3 1_555 1_555
H30_3 C18_3 1_555 1_555
Cu8 S9_3 1_555 1_555
C15_3 C18_3 1_555 1_555
S2_3 Cu1_5 1_555 1_555
H5_3 C4_3 1_555 1_555
H7_3 C5_3 1_555 1_555
H8_3 C5_3 1_555 1_555
Br5 Cu5_3 1_555 1_555
Br4_3 Cu5_3 1_555 1_555
Cu4_6 S5_3 1_555 1_555
Cu5_3 S3_3 1_555 1_555
Cu10 S2_3 1_555 1_555
Cu11_3 S5_3 1_555 1_555
S3_3 Cu1_5 1_555 1_555
S5_3 C8_3 1_555 1_555
S6_3 Cu10 1_555 1_555
S11_3 Cu4_6 1_555 1_555
N2_3 C6_3 1_555 1_555
N4_3 C8_3 1_555 1_555
C6_3 S3_3 1_555 1_555
C8_3 S11_3 1_555 1_555
C9_3 N2_3 1_555 1_555
C11_3 N4_3 1_555 1_555
C12_3 C9_3 1_555 1_555
C14_3 C11_3 1_555 1_555
C17_3 C14_3 1_555 1_555
C20_3 N4_3 1_555 1_555
H9_3 C9_3 1_555 1_555
H11_3 C11_3 1_555 1_555
H12_3 C9_3 1_555 1_555
H14_3 C11_3 1_555 1_555
H15_3 C12_3 1_555 1_555
H17_3 C14_3 1_555 1_555
H20_3 C14_3 1_555 1_555
H23_3 C17_3 1_555 1_555
H26_3 C17_3 1_555 1_555
H29_3 C20_3 1_555 1_555
H32_3 C20_3 1_555 1_555
C4_3 C5_3 1_555 1_555
Br4_3 Cu10 1_555 1_555
Cu5_3 S11_3 1_555 1_555
C17_3 C20_3 1_555 1_555
S8 C1_4 1_555 1_555
N1_4 C1_4 1_555 1_555
C1_4 S12 1_555 1_555
C2_4 N1_4 1_555 1_555
C3_4 C2_4 1_555 1_555
C4_4 C3_4 1_555 1_555
C5_4 N1_4 1_555 1_555
H1_4 C2_4 1_555 1_555
H2_4 C2_4 1_555 1_555
H3_4 C3_4 1_555 1_555
H4_4 C3_4 1_555 1_555
H5_4 C4_4 1_555 1_555
H6_4 C4_4 1_555 1_555
H7_4 C5_4 1_555 1_555
H8_4 C5_4 1_555 1_555
Br5_2 Cu9 1_555 1_555
Cu4_8 S5_4 1_555 1_555
Cu10_2 S12 1_555 1_555
Cu11_4 S5_4 1_555 1_555
S5_4 C8_4 1_555 1_555
S6_4 Cu10_2 1_555 1_555
N4_4 C8_4 1_555 1_555
C11_4 N4_4 1_555 1_555
C14_4 C11_4 1_555 1_555
C17_4 C14_4 1_555 1_555
C20_4 N4_4 1_555 1_555
H11_4 C11_4 1_555 1_555
H14_4 C11_4 1_555 1_555
H17_4 C14_4 1_555 1_555
H20_4 C14_4 1_555 1_555
H23_4 C17_4 1_555 1_555
H26_4 C17_4 1_555 1_555
H32_4 C20_4 1_555 1_555
C4_4 C5_4 1_555 1_555
C17_4 C20_4 1_555 1_555
S11_4 Cu4_10 1_555 1_555
S6_4 Cu4_2 1_555 1_555
N2_4 C6_4 1_555 1_555
C6_4 S6_4 1_555 1_555
C9_4 N2_4 1_555 1_555
C12_4 C9_4 1_555 1_555
H9_4 C9_4 1_555 1_555
H12_4 C9_4 1_555 1_555
H15_4 C12_4 1_555 1_555
Cu11_3 Br2_2 1_555 1_555
H21_4 C15_4 1_555 1_555
H30_4 C18_4 1_555 1_555
C15_4 C18_4 1_555 1_555
Cu4 S6_3 1_555 1_555
S6_3 C7_2 1_555 1_555
S9_4 Cu4_5 1_555 1_555
S10_2 Cu11_2 1_555 1_555
N3_2 C7_2 1_555 1_555
C7_2 S10_2 1_555 1_555
C10_2 N3_2 1_555 1_555
C13_2 C10_2 1_555 1_555
C16_2 C13_2 1_555 1_555
C19_2 N3_2 1_555 1_555
H10_2 C10_2 1_555 1_555
H13_2 C10_2 1_555 1_555
H16_2 C13_2 1_555 1_555
H19_2 C13_2 1_555 1_555
H22_2 C16_2 1_555 1_555
H25_2 C16_2 1_555 1_555
H28_2 C19_2 1_555 1_555
H31_2 C19_2 1_555 1_555
Cu4 S10_2 1_555 1_555
C16_2 C19_2 1_555 1_555
C12_5 C9_5 1_555 1_555
C15_5 C12_5 1_555 1_555
H9_5 C9_5 1_555 1_555
H12_5 C9_5 1_555 1_555
H15_5 C12_5 1_555 1_555
H18_5 C12_5 1_555 1_555
H21_5 C15_5 1_555 1_555
H24_5 C15_5 1_555 1_555
H27_5 C18_5 1_555 1_555
H30_5 C18_5 1_555 1_555
C15_5 C18_5 1_555 1_555
S6 Cu4_6 1_555 1_555
S9_5 Cu4_6 1_555 1_555
N2_5 C6_5 1_555 1_555
C6_5 S6 1_555 1_555
Cu11_4 S9_5 1_555 1_555
S9_5 C6_5 1_555 1_555
S9_6 Cu4_7 1_555 1_555
Cu11 Br6_4 1_555 1_555
S6_2 Cu4_9 1_555 1_555
N2_6 C6_6 1_555 1_555
C6_6 S6_2 1_555 1_555
C9_6 N2_6 1_555 1_555
C12_6 C9_6 1_555 1_555
C15_6 C12_6 1_555 1_555
C18_6 N2_6 1_555 1_555
H9_6 C9_6 1_555 1_555
H12_6 C9_6 1_555 1_555
H15_6 C12_6 1_555 1_555
H18_6 C12_6 1_555 1_555
H21_6 C15_6 1_555 1_555
H24_6 C15_6 1_555 1_555
H30_6 C18_6 1_555 1_555
C15_6 C18_6 1_555 1_555

#END
