
###############################################################################
#
# This file contains modified crystal structure data generated from the
# MOF subset of the Cambridge Structural Database (CSD) v543 
# hosted by the Cambridge Crystallographic Data Centre (CCDC).
#
# This work is licensed under the Creative Commons
# Attribution-NonCommercial-ShareAlike 4.0 International License.
# To view a copy of this license, visit
# http://creativecommons.org/licenses/by-nc-sa/4.0/
# or send a letter to
# Creative Commons, PO Box 1866, Mountain View, CA 94042, USA.
#
# CIF created using the CSD Python API on 29 September 2022
# The structure has been converted into the P1 space group
# The structure has a 3D framework
# The original CSD entry AMONAT is in the trigonal crystal system
# The framework has been calculated to contain at least 10.0% void space
# The void calculation uses a probe of radius 1.32A, grid spacing 0.4
# The framework is charged, counterions have been retained in the structure
#
###############################################################################

data_AMONAT
_chemical_formula_moiety         '(C12 H12 Fe8 O20 3-)n'
_symmetry_cell_setting           triclinic
_symmetry_space_group_name_H-M   'P 1'
_symmetry_Int_Tables_number      1
_space_group_name_Hall           'P 1'
loop_
_symmetry_equiv_pos_site_id
_symmetry_equiv_pos_as_xyz
1 x,y,z
_cell_length_a                   8.5916(3)
_cell_length_b                   8.5916(3)
_cell_length_c                   13.3542(5)
_cell_angle_alpha                90
_cell_angle_beta                 90
_cell_angle_gamma                120
_cell_volume                     853.683
loop_
_atom_site_label
_atom_site_type_symbol
_atom_site_fract_x
_atom_site_fract_y
_atom_site_fract_z
Fe1 Fe -0.0000 0.0000 0.5000
Fe2 Fe 0.3333 0.6667 0.2500
O1 O 0.2149(2) 0.20223(19) 0.41517(11)
O2 O 0.3407(2) 0.4712(2) 0.34451(11)
C1 C 0.2098(3) 0.3262(3) 0.37049(15)
H1 H 0.0942 0.3083 0.3546
O8 O 0.1305(3) 0.4712(2) 0.15549(11)
C4 C 0.1164(4) 0.3262(3) 0.12951(15)
H4 H 0.2141 0.3083 0.1454
O11 O 0.01267(28) 0.2149(2) 0.58483(11)
Fe3 Fe 0.0000 0.0000 0.0000
O14 O 0.5288(2) 0.8695(3) 0.34451(11)
O15 O 0.1305(3) 0.6593(2) 0.34451(11)
O16 O 0.5288(2) 0.6593(2) 0.15549(11)
O17 O 0.3407(2) 0.8695(3) 0.15549(11)
Fe3_2 Fe -0.0000 0.0000 1.0000
Fe1_2 Fe 0.0000 1.0000 0.5000
C3 C 0.1164(4) 0.7902(3) 0.37049(15)
H3 H 0.2141 0.9058 0.3546
Fe3_3 Fe 0.0000 1.0000 0.0000
O13 O 0.20223(19) 0.98733(28) 0.58483(11)
Fe3_4 Fe 0.0000 1.0000 1.0000
Fe1_3 Fe 1.0000 0.0000 0.5000
O3 O 0.79777(19) 0.01267(28) 0.41517(11)
O7 O 0.98733(28) 0.20223(19) 0.08483(11)
O12 O 0.8695(3) 0.3407(2) 0.65549(11)
C6 C 0.8836(4) 0.2098(3) 0.62951(15)
H6 H 0.7859 0.0942 0.6454
Fe3_5 Fe 1.0000 0.0000 0.0000
Fe7 Fe 0.6667 0.3333 0.7500
Fe3_6 Fe 1.0000 0.0000 1.0000
Fe1_4 Fe 1.0000 1.0000 0.5000
C2 C 0.6738(3) 0.8836(4) 0.37049(15)
H2 H 0.6917 0.7859 0.3546
O5 O 0.98733(28) 0.7851(2) 0.41517(11)
O9 O 0.7851(2) 0.79777(19) 0.58483(11)
O10 O 0.6593(2) 0.5288(2) 0.65549(11)
C5 C 0.7902(3) 0.6738(3) 0.62951(15)
H5 H 0.9058 0.6917 0.6454
Fe3_7 Fe 1.0000 1.0000 0.0000
Fe3_8 Fe 1.0000 1.0000 1.0000
O10_2 O 0.4712(2) 0.1305(3) 0.65549(11)
C5_2 C 0.3262(3) 0.1164(4) 0.62951(15)
H5_2 H 0.3083 0.2141 0.6454
O7_2 O 0.79777(19) 0.78510(34) 0.08483(11)
C4_2 C 0.6738(3) 0.7902(5) 0.12951(15)
H4_2 H 0.6917 0.9058 0.1454
O7_3 O 0.21490(34) 0.01267(28) 0.08483(11)
C4_3 C 0.2098(5) 0.8836(4) 0.12951(15)
H4_3 H 0.0942 0.7859 0.1454
O9_2 O 0.20223(19) 0.2149(2) 0.91517(11)
O10_3 O 0.4712(2) 0.3407(2) 0.84451(11)
C5_3 C 0.3262(3) 0.2098(3) 0.87049(15)
H5_3 H 0.3083 0.0942 0.8546
O13_2 O 0.01267(28) 0.79777(19) 0.91517(11)
O12_2 O 0.6593(2) 0.1305(3) 0.84451(11)
C6_2 C 0.7902(3) 0.1164(4) 0.87049(15)
H6_2 H 0.9058 0.2141 0.8546
O11_2 O 0.7851(2) 0.98733(28) 0.91517(11)
O10_4 O 0.8695(3) 0.5288(2) 0.84451(11)
C5_4 C 0.8836(4) 0.6738(3) 0.87049(15)
H5_4 H 0.7859 0.6917 0.8546
loop_
_geom_bond_atom_site_label_1
_geom_bond_atom_site_label_2
_geom_bond_site_symmetry_1
_geom_bond_site_symmetry_2
Fe1 O1 1_555 1_555
Fe2 O2 1_555 1_555
O1 C1 1_555 1_555
O2 C1 1_555 1_555
C1 H1 1_555 1_555
O8 Fe2 1_555 1_555
C4 O8 1_555 1_555
H4 C4 1_555 1_555
O11 Fe1 1_555 1_555
O14 Fe2 1_555 1_555
O15 Fe2 1_555 1_555
O16 Fe2 1_555 1_555
O17 Fe2 1_555 1_555
O15 C3 1_555 1_555
H3 C3 1_555 1_555
O13 Fe1_2 1_555 1_555
O3 Fe1_3 1_555 1_555
O12 C6 1_555 1_555
H6 C6 1_555 1_555
Fe3_5 O7 1_555 1_555
Fe7 O12 1_555 1_555
O14 C2 1_555 1_555
H2 C2 1_555 1_555
O5 Fe1_4 1_555 1_555
O9 Fe1_4 1_555 1_555
O10 C5 1_555 1_555
C5 O9 1_555 1_555
H5 C5 1_555 1_555
Fe7 O10 1_555 1_555
O10_2 C5_2 1_555 1_555
H5_2 C5_2 1_555 1_555
Fe7 O10_2 1_555 1_555
O7_2 C4_2 1_555 1_555
C4_2 O16 1_555 1_555
H4_2 C4_2 1_555 1_555
Fe3_7 O7_2 1_555 1_555
Fe3 O7_3 1_555 1_555
C4_3 O17 1_555 1_555
H4_3 C4_3 1_555 1_555
O9_2 Fe3_2 1_555 1_555
O10_3 C5_3 1_555 1_555
C5_3 O9_2 1_555 1_555
H5_3 C5_3 1_555 1_555
Fe7 O10_3 1_555 1_555
O13_2 Fe3_4 1_555 1_555
O12_2 C6_2 1_555 1_555
H6_2 C6_2 1_555 1_555
Fe7 O12_2 1_555 1_555
O11_2 Fe3_8 1_555 1_555
O10_4 C5_4 1_555 1_555
H5_4 C5_4 1_555 1_555
Fe7 O10_4 1_555 1_555

#END
