
###############################################################################
#
# This file contains modified crystal structure data generated from the
# MOF subset of the Cambridge Structural Database (CSD) v543 
# hosted by the Cambridge Crystallographic Data Centre (CCDC).
#
# This work is licensed under the Creative Commons
# Attribution-NonCommercial-ShareAlike 4.0 International License.
# To view a copy of this license, visit
# http://creativecommons.org/licenses/by-nc-sa/4.0/
# or send a letter to
# Creative Commons, PO Box 1866, Mountain View, CA 94042, USA.
#
# CIF created using the CSD Python API on 29 September 2022
# The structure has been converted into the P1 space group
# The structure has a 3D framework
# The original CSD entry AMOYOR is in the monoclinic crystal system
# The framework has been calculated to contain at least 10.0% void space
# The void calculation uses a probe of radius 1.32A, grid spacing 0.4
#
###############################################################################

data_AMOYOR
_chemical_formula_moiety         '(C120 H96 N8 O16 Zn3)n'
_symmetry_cell_setting           triclinic
_symmetry_space_group_name_H-M   'P 1'
_symmetry_Int_Tables_number      1
_space_group_name_Hall           'P 1'
loop_
_symmetry_equiv_pos_site_id
_symmetry_equiv_pos_as_xyz
1 x,y,z
_cell_length_a                   25.029(5)
_cell_length_b                   5.8653(12)
_cell_length_c                   20.980(4)
_cell_angle_alpha                90
_cell_angle_beta                 92.38(3)
_cell_angle_gamma                90
_cell_volume                     3077.26
loop_
_atom_site_label
_atom_site_type_symbol
_atom_site_fract_x
_atom_site_fract_y
_atom_site_fract_z
C18 C 0.31786(17) 0.0191(7) 0.5861(2)
C19 C 0.34375(18) 0.2103(7) 0.5710(2)
C20 C 0.37974(16) 0.3379(7) 0.6143(2)
C21 C 0.40043(16) 0.5450(7) 0.5947(2)
C22 C 0.43514(16) 0.6649(7) 0.63357(19)
N2 N 0.45041(12) 0.5936(5) 0.69264(15)
C23 C 0.43082(17) 0.3941(7) 0.7125(2)
C24 C 0.39668(19) 0.2617(7) 0.6756(2)
H13 H 0.3846 0.1212 0.6911
H14 H 0.4410 0.3428 0.7537
H15 H 0.4490 0.8030 0.6186
H16 H 0.3904 0.6029 0.5541
H17 H 0.3383 0.2667 0.5293
H19 H 0.2854 0.0879 0.4621
Zn2 Zn 0.5000 0.78245(10) 0.7500
C18_2 C 0.68214(17) 0.0191(7) 0.9139(2)
C19_2 C 0.65625(18) 0.2103(7) 0.9290(2)
C20_2 C 0.62026(16) 0.3379(7) 0.8857(2)
C21_2 C 0.59957(16) 0.5450(7) 0.9053(2)
C22_2 C 0.56486(16) 0.6649(7) 0.86643(19)
N2_2 N 0.54959(12) 0.5936(5) 0.80736(15)
C23_2 C 0.56918(17) 0.3941(7) 0.7875(2)
C24_2 C 0.60332(19) 0.2617(7) 0.8244(2)
H13_2 H 0.6154 0.1212 0.8089
H14_2 H 0.5590 0.3428 0.7463
H15_2 H 0.5510 0.8030 0.8814
H16_2 H 0.6096 0.6029 0.9459
H17_2 H 0.6617 0.2667 0.9707
C12 C 0.41539(18) 0.9580(9) 0.4008(2)
H10 H 0.4110 0.7989 0.3873
C13 C 0.4960(2) 0.8026(7) 0.4637(2)
H11 H 0.4935 0.6683 0.4393
C14 C 0.45875(16) 0.9767(7) 0.45292(19)
C26 C 0.53648(19) 0.8263(8) 0.5100(2)
C29 C 0.56764(16) 0.8963(8) 0.6549(2)
O3 O 0.53415(11) 0.9876(5) 0.69141(14)
O4 O 0.58291(18) 0.6965(6) 0.6605(2)
H21 H 0.6187 0.9874 0.5838
H24 H 0.5613 0.7076 0.5166
C26_2 C 0.46352(19) 0.8263(8) 0.9900(2)
C29_2 C 0.43236(16) 0.8963(8) 0.8451(2)
O3_2 O 0.46585(11) 0.9876(5) 0.80859(14)
O4_2 O 0.41709(18) 0.6965(6) 0.8395(2)
H21_2 H 0.3813 0.9874 0.9162
H24_2 H 0.4387 0.7076 0.9834
C3 C 0.12026(16) 0.1621(7) 0.3857(2)
C4 C 0.10332(19) 0.2383(7) 0.3244(2)
H3 H 0.1154 0.3788 0.3089
C5 C 0.06918(17) 0.1059(7) 0.2875(2)
H4 H 0.0590 0.1572 0.2463
C6 C 0.15625(18) 0.2897(7) 0.4290(2)
H5 H 0.1617 0.2333 0.4707
C7 C 0.18214(17) 0.4809(7) 0.4139(2)
H6 H 0.1779 0.5343 0.3718
C8 C 0.21702(15) 0.6142(7) 0.4589(2)
C9 C 0.22883(17) 0.5487(8) 0.5224(2)
H7 H 0.2146 0.4121 0.5379
C10 C 0.23901(17) 0.8176(8) 0.4378(2)
H8 H 0.2318 0.8648 0.3954
C16 C 0.26099(17) 0.6824(8) 0.5622(2)
C17 C 0.28298(15) 0.8858(7) 0.5411(2)
H18 H 0.3221 0.9657 0.6282
C25 C 0.27117(17) 0.9513(8) 0.4776(2)
H20 H 0.2682 0.6352 0.6046
Zn1 Zn -0.0000 0.71755(10) 0.2500
N1 N 0.04959(12) 0.9064(5) 0.30736(15)
C1 C 0.06486(16) 0.8351(7) 0.36643(19)
H1 H 0.0510 0.6970 0.3814
C2 C 0.09957(16) 0.9550(7) 0.4053(2)
H2 H 0.1096 0.8971 0.4459
C26_3 C 0.03648(19) 0.3263(8) 0.5100(2)
C27 C 0.04125(16) 0.5233(7) 0.54708(19)
C28 C 0.08461(18) 0.5420(9) 0.5992(2)
C29_3 C 0.06764(16) 0.3963(8) 0.6549(2)
O3_3 O 0.03415(11) 0.4876(5) 0.69141(14)
O4_3 O 0.08291(18) 0.1965(6) 0.6605(2)
H21_3 H 0.1187 0.4874 0.5838
H22 H 0.0890 0.7011 0.6127
C30 C 0.0040(2) 0.6974(7) 0.5363(2)
H23 H 0.0065 0.8317 0.5607
H24_3 H 0.0613 0.2076 0.5166
O5 O 0.03415(11) 0.5124(5) 0.19141(14)
Zn3 Zn 0.0000 0.28245(10) 0.7500
O2 O 0.08291(18) 0.8035(6) 0.1605(2)
C11 C 0.06764(16) 0.6037(8) 0.1549(2)
C12_2 C 0.08461(18) 0.4580(9) 0.0992(2)
H9 H 0.1187 0.5126 0.0838
H10_2 H 0.0890 0.2989 0.1127
C13_2 C 0.0040(2) 0.3026(7) 0.0363(2)
H11_2 H 0.0065 0.1683 0.0607
C14_2 C 0.04125(16) 0.4767(7) 0.04708(19)
C15 C 0.03648(19) 0.6737(8) 0.0100(2)
H12 H 0.0613 0.7924 0.0166
C21_3 C 0.09957(16) 0.0450(7) 0.9053(2)
C22_3 C 0.06486(16) 0.1649(7) 0.86643(19)
N2_3 N 0.04959(12) 0.0936(5) 0.80736(15)
H15_3 H 0.0510 0.3030 0.8814
H16_3 H 0.1096 0.1029 0.9459
Zn1_2 Zn 1.0000 0.71755(10) 0.2500
O1 O 0.96585(11) 0.5124(5) 0.30859(14)
O2_2 O 0.91709(18) 0.8035(6) 0.3395(2)
C11_2 C 0.93236(16) 0.6037(8) 0.3451(2)
C12_3 C 0.91539(18) 0.4580(9) 0.4008(2)
H9_2 H 0.8813 0.5126 0.4162
H10_3 H 0.9110 0.2989 0.3873
C13_3 C 0.9960(2) 0.3026(7) 0.4637(2)
H11_3 H 0.9935 0.1683 0.4393
C14_3 C 0.95875(16) 0.4767(7) 0.45292(19)
C15_2 C 0.96352(19) 0.6737(8) 0.4900(2)
H12_2 H 0.9387 0.7924 0.4834
N3 N 0.95041(12) 0.9064(5) 0.19264(15)
Zn3_2 Zn 1.0000 0.28245(10) 0.7500
C1_2 C 0.93514(16) 0.8351(7) 0.13357(19)
H1_2 H 0.9490 0.6970 0.1186
C2_2 C 0.90043(16) 0.9550(7) 0.0947(2)
H2_2 H 0.8904 0.8971 0.0541
C26_4 C 0.96352(19) 0.3263(8) 0.9900(2)
C27_2 C 0.95875(16) 0.5233(7) 0.95292(19)
C28_2 C 0.91539(18) 0.5420(9) 0.9008(2)
C29_4 C 0.93236(16) 0.3963(8) 0.8451(2)
O3_4 O 0.96585(11) 0.4876(5) 0.80859(14)
O4_4 O 0.91709(18) 0.1965(6) 0.8395(2)
H21_4 H 0.8813 0.4874 0.9162
H22_2 H 0.9110 0.7011 0.8873
C30_2 C 0.9960(2) 0.6974(7) 0.9637(2)
H23_2 H 0.9935 0.8317 0.9393
H24_4 H 0.9387 0.2076 0.9834
C21_4 C 0.90043(16) 0.0450(7) 0.5947(2)
C22_4 C 0.93514(16) 0.1649(7) 0.63357(19)
N2_4 N 0.95041(12) 0.0936(5) 0.69264(15)
H15_4 H 0.9490 0.3030 0.6186
H16_4 H 0.8904 0.1029 0.5541
H19_2 H 0.7146 0.0879 0.0379
C12_4 C 0.58461(18) 0.9580(9) 0.0992(2)
H10_4 H 0.5890 0.7989 0.1127
C13_4 C 0.5040(2) 0.8026(7) 0.0363(2)
H11_4 H 0.5065 0.6683 0.0607
C14_4 C 0.54125(16) 0.9767(7) 0.04708(19)
C3_2 C 0.87974(16) 0.1621(7) 0.1143(2)
C4_2 C 0.89668(19) 0.2383(7) 0.1756(2)
H3_2 H 0.8846 0.3788 0.1911
C5_2 C 0.93082(17) 0.1059(7) 0.2125(2)
H4_2 H 0.9410 0.1572 0.2537
C6_2 C 0.84375(18) 0.2897(7) 0.0710(2)
H5_2 H 0.8383 0.2333 0.0293
C7_2 C 0.81786(17) 0.4809(7) 0.0861(2)
H6_2 H 0.8221 0.5343 0.1282
C8_2 C 0.78298(15) 0.6142(7) 0.0411(2)
C10_2 C 0.76099(17) 0.8176(8) 0.0622(2)
H8_2 H 0.7682 0.8648 0.1046
C25_2 C 0.72883(17) 0.9513(8) 0.0224(2)
C9_2 C 0.77117(17) 0.5487(8) 0.9776(2)
H7_2 H 0.7854 0.4121 0.9621
C16_2 C 0.73901(17) 0.6824(8) 0.9378(2)
C17_2 C 0.71702(15) 0.8858(7) 0.9589(2)
H18_2 H 0.6779 0.9657 0.8718
H20_2 H 0.7318 0.6352 0.8954
H6_3 H 0.6779 0.0343 0.3718
C8_3 C 0.71702(15) 0.1142(7) 0.4589(2)
C9_3 C 0.72883(17) 0.0487(8) 0.5224(2)
C10_3 C 0.73901(17) 0.3176(8) 0.4378(2)
H8_3 H 0.7318 0.3648 0.3954
C16_3 C 0.76099(17) 0.1824(8) 0.5622(2)
C17_3 C 0.78298(15) 0.3858(7) 0.5411(2)
C18_3 C 0.81786(17) 0.5191(7) 0.5861(2)
C19_3 C 0.84375(18) 0.7103(7) 0.5710(2)
C20_3 C 0.87974(16) 0.8379(7) 0.6143(2)
C23_3 C 0.93082(17) 0.8941(7) 0.7125(2)
C24_3 C 0.89668(19) 0.7617(7) 0.6756(2)
H13_3 H 0.8846 0.6212 0.6911
H14_3 H 0.9410 0.8428 0.7537
H17_3 H 0.8383 0.7667 0.5293
H18_3 H 0.8221 0.4657 0.6282
C25_3 C 0.77117(17) 0.4513(8) 0.4776(2)
H19_3 H 0.7854 0.5879 0.4621
H20_3 H 0.7682 0.1352 0.6046
Zn1_3 Zn 0.5000 0.21755(10) 0.2500
N1_2 N 0.54959(12) 0.4064(5) 0.30736(15)
O1_2 O 0.46585(11) 0.0124(5) 0.30859(14)
O2_3 O 0.41709(18) 0.3035(6) 0.3395(2)
C1_3 C 0.56486(16) 0.3351(7) 0.36643(19)
H1_3 H 0.5510 0.1970 0.3814
C2_3 C 0.59957(16) 0.4550(7) 0.4053(2)
H2_3 H 0.6096 0.3971 0.4459
C3_3 C 0.62026(16) 0.6621(7) 0.3857(2)
C4_3 C 0.60332(19) 0.7383(7) 0.3244(2)
H3_3 H 0.6154 0.8788 0.3089
C5_3 C 0.56918(17) 0.6059(7) 0.2875(2)
H4_3 H 0.5590 0.6572 0.2463
C6_3 C 0.65625(18) 0.7897(7) 0.4290(2)
H5_3 H 0.6617 0.7333 0.4707
C7_3 C 0.68214(17) 0.9809(7) 0.4139(2)
H7_3 H 0.7146 0.9121 0.5379
C11_3 C 0.43236(16) 0.1037(8) 0.3451(2)
H9_3 H 0.3813 0.0126 0.4162
C15_3 C 0.46352(19) 0.1737(8) 0.4900(2)
H12_3 H 0.4387 0.2924 0.4834
C27_3 C 0.54125(16) 0.0233(7) 0.54708(19)
C28_3 C 0.58461(18) 0.0420(9) 0.5992(2)
H22_3 H 0.5890 0.2011 0.6127
C30_3 C 0.5040(2) 0.1974(7) 0.5363(2)
H23_3 H 0.5065 0.3317 0.5607
N3_2 N 0.45041(12) 0.4064(5) 0.19264(15)
O5_2 O 0.53415(11) 0.0124(5) 0.19141(14)
O2_4 O 0.58291(18) 0.3035(6) 0.1605(2)
C1_4 C 0.43514(16) 0.3351(7) 0.13357(19)
H1_4 H 0.4490 0.1970 0.1186
C2_4 C 0.40043(16) 0.4550(7) 0.0947(2)
H2_4 H 0.3904 0.3971 0.0541
C3_4 C 0.37974(16) 0.6621(7) 0.1143(2)
C4_4 C 0.39668(19) 0.7383(7) 0.1756(2)
H3_4 H 0.3846 0.8788 0.1911
C5_4 C 0.43082(17) 0.6059(7) 0.2125(2)
H4_4 H 0.4410 0.6572 0.2537
C6_4 C 0.34375(18) 0.7897(7) 0.0710(2)
H5_4 H 0.3383 0.7333 0.0293
C7_4 C 0.31786(17) 0.9809(7) 0.0861(2)
C11_4 C 0.56764(16) 0.1037(8) 0.1549(2)
H9_4 H 0.6187 0.0126 0.0838
C15_4 C 0.53648(19) 0.1737(8) 0.0100(2)
H12_4 H 0.5613 0.2924 0.0166
H6_4 H 0.3221 0.0343 0.1282
C8_4 C 0.28298(15) 0.1142(7) 0.0411(2)
C10_4 C 0.26099(17) 0.3176(8) 0.0622(2)
H8_4 H 0.2682 0.3648 0.1046
C25_4 C 0.22883(17) 0.4513(8) 0.0224(2)
H19_4 H 0.2146 0.5879 0.0379
C9_4 C 0.27117(17) 0.0487(8) 0.9776(2)
C16_4 C 0.23901(17) 0.1824(8) 0.9378(2)
C17_4 C 0.21702(15) 0.3858(7) 0.9589(2)
C18_4 C 0.18214(17) 0.5191(7) 0.9139(2)
C19_4 C 0.15625(18) 0.7103(7) 0.9290(2)
C20_4 C 0.12026(16) 0.8379(7) 0.8857(2)
C23_4 C 0.06918(17) 0.8941(7) 0.7875(2)
C24_4 C 0.10332(19) 0.7617(7) 0.8244(2)
H13_4 H 0.1154 0.6212 0.8089
H14_4 H 0.0590 0.8428 0.7463
H17_4 H 0.1617 0.7667 0.9707
H18_4 H 0.1779 0.4657 0.8718
H20_4 H 0.2318 0.1352 0.8954
H7_4 H 0.2854 0.9121 0.9621
C27_4 C 0.45875(16) 0.0233(7) 0.95292(19)
C28_4 C 0.41539(18) 0.0420(9) 0.9008(2)
H22_4 H 0.4110 0.2011 0.8873
C30_4 C 0.4960(2) 0.1974(7) 0.9637(2)
H23_4 H 0.4935 0.3317 0.9393
loop_
_geom_bond_atom_site_label_1
_geom_bond_atom_site_label_2
_geom_bond_site_symmetry_1
_geom_bond_site_symmetry_2
C19 C18 1_555 1_555
C20 C19 1_555 1_555
C21 C20 1_555 1_555
C22 C21 1_555 1_555
N2 C22 1_555 1_555
C23 N2 1_555 1_555
C24 C20 1_555 1_555
H13 C24 1_555 1_555
H14 C23 1_555 1_555
H15 C22 1_555 1_555
H16 C21 1_555 1_555
H17 C19 1_555 1_555
Zn2 N2 1_555 1_555
C23 C24 1_555 1_555
C19_2 C18_2 1_555 1_555
C20_2 C19_2 1_555 1_555
C21_2 C20_2 1_555 1_555
C22_2 C21_2 1_555 1_555
N2_2 C22_2 1_555 1_555
C23_2 N2_2 1_555 1_555
C24_2 C20_2 1_555 1_555
H13_2 C24_2 1_555 1_555
H14_2 C23_2 1_555 1_555
H15_2 C22_2 1_555 1_555
H16_2 C21_2 1_555 1_555
H17_2 C19_2 1_555 1_555
Zn2 N2_2 1_555 1_555
C23_2 C24_2 1_555 1_555
H10 C12 1_555 1_555
C13 H11 1_555 1_555
C14 C12 1_555 1_555
C26 C13 1_555 1_555
O3 C29 1_555 1_555
O4 C29 1_555 1_555
H24 C26 1_555 1_555
Zn2 O3 1_555 1_555
C13 C14 1_555 1_555
O3_2 C29_2 1_555 1_555
O4_2 C29_2 1_555 1_555
H24_2 C26_2 1_555 1_555
Zn2 O3_2 1_555 1_555
C4 C3 1_555 1_555
H3 C4 1_555 1_555
H4 C5 1_555 1_555
C6 C3 1_555 1_555
H5 C6 1_555 1_555
C7 C6 1_555 1_555
H6 C7 1_555 1_555
C8 C7 1_555 1_555
C9 C8 1_555 1_555
H7 C9 1_555 1_555
C10 C8 1_555 1_555
H8 C10 1_555 1_555
C16 C9 1_555 1_555
C17 C16 1_555 1_555
C25 C10 1_555 1_555
H20 C16 1_555 1_555
C4 C5 1_555 1_555
C17 C25 1_555 1_555
Zn1 N1 1_555 1_555
N1 C1 1_555 1_555
C1 H1 1_555 1_555
C2 C1 1_555 1_555
H2 C2 1_555 1_555
C27 C26_3 1_555 1_555
C28 C27 1_555 1_555
C29_3 C28 1_555 1_555
O3_3 C29_3 1_555 1_555
O4_3 C29_3 1_555 1_555
H21_3 C28 1_555 1_555
H22 C28 1_555 1_555
H23 C30 1_555 1_555
H24_3 C26_3 1_555 1_555
O5 Zn1 1_555 1_555
Zn3 O3_3 1_555 1_555
C27 C30 1_555 1_555
O2 C11 1_555 1_555
C11 O5 1_555 1_555
C12_2 C11 1_555 1_555
H9 C12_2 1_555 1_555
H10_2 C12_2 1_555 1_555
C13_2 H11_2 1_555 1_555
C14_2 C12_2 1_555 1_555
C15 C14_2 1_555 1_555
H12 C15 1_555 1_555
C13_2 C14_2 1_555 1_555
C22_3 C21_3 1_555 1_555
N2_3 C22_3 1_555 1_555
H15_3 C22_3 1_555 1_555
H16_3 C21_3 1_555 1_555
Zn3 N2_3 1_555 1_555
O1 Zn1_2 1_555 1_555
O2_2 C11_2 1_555 1_555
C11_2 O1 1_555 1_555
C12_3 C11_2 1_555 1_555
H9_2 C12_3 1_555 1_555
H10_3 C12_3 1_555 1_555
C13_3 H11_3 1_555 1_555
C14_3 C12_3 1_555 1_555
C15_2 C14_3 1_555 1_555
H12_2 C15_2 1_555 1_555
N3 Zn1_2 1_555 1_555
C13_3 C14_3 1_555 1_555
N3 C1_2 1_555 1_555
C1_2 H1_2 1_555 1_555
C2_2 C1_2 1_555 1_555
H2_2 C2_2 1_555 1_555
C27_2 C26_4 1_555 1_555
C28_2 C27_2 1_555 1_555
C29_4 C28_2 1_555 1_555
O3_4 C29_4 1_555 1_555
O4_4 C29_4 1_555 1_555
H21_4 C28_2 1_555 1_555
H22_2 C28_2 1_555 1_555
H23_2 C30_2 1_555 1_555
H24_4 C26_4 1_555 1_555
Zn3_2 O3_4 1_555 1_555
C27_2 C30_2 1_555 1_555
C22_4 C21_4 1_555 1_555
N2_4 C22_4 1_555 1_555
H15_4 C22_4 1_555 1_555
H16_4 C21_4 1_555 1_555
Zn3_2 N2_4 1_555 1_555
H10_4 C12_4 1_555 1_555
C13_4 H11_4 1_555 1_555
C14_4 C12_4 1_555 1_555
C13_4 C14_4 1_555 1_555
C4_2 C3_2 1_555 1_555
H3_2 C4_2 1_555 1_555
H4_2 C5_2 1_555 1_555
C6_2 C3_2 1_555 1_555
H5_2 C6_2 1_555 1_555
C7_2 C6_2 1_555 1_555
H6_2 C7_2 1_555 1_555
C8_2 C7_2 1_555 1_555
C10_2 C8_2 1_555 1_555
H8_2 C10_2 1_555 1_555
C25_2 C10_2 1_555 1_555
C4_2 C5_2 1_555 1_555
H7_2 C9_2 1_555 1_555
C16_2 C9_2 1_555 1_555
C17_2 C16_2 1_555 1_555
H20_2 C16_2 1_555 1_555
C9_3 C8_3 1_555 1_555
C10_3 C8_3 1_555 1_555
H8_3 C10_3 1_555 1_555
C16_3 C9_3 1_555 1_555
C17_3 C16_3 1_555 1_555
C18_3 C17_3 1_555 1_555
C19_3 C18_3 1_555 1_555
C20_3 C19_3 1_555 1_555
C24_3 C20_3 1_555 1_555
H13_3 C24_3 1_555 1_555
H14_3 C23_3 1_555 1_555
H17_3 C19_3 1_555 1_555
H18_3 C18_3 1_555 1_555
C25_3 C10_3 1_555 1_555
H19_3 C25_3 1_555 1_555
H20_3 C16_3 1_555 1_555
C17_3 C25_3 1_555 1_555
C23_3 C24_3 1_555 1_555
Zn1_3 N1_2 1_555 1_555
N1_2 C1_3 1_555 1_555
O1_2 Zn1_3 1_555 1_555
O2_3 C11_3 1_555 1_555
C1_3 H1_3 1_555 1_555
C2_3 C1_3 1_555 1_555
H2_3 C2_3 1_555 1_555
C3_3 C2_3 1_555 1_555
C4_3 C3_3 1_555 1_555
H3_3 C4_3 1_555 1_555
C5_3 N1_2 1_555 1_555
H4_3 C5_3 1_555 1_555
C6_3 C3_3 1_555 1_555
H5_3 C6_3 1_555 1_555
C7_3 C6_3 1_555 1_555
C11_3 O1_2 1_555 1_555
H12_3 C15_3 1_555 1_555
C28_3 C27_3 1_555 1_555
H22_3 C28_3 1_555 1_555
C30_3 C15_3 1_555 1_555
H23_3 C30_3 1_555 1_555
N3_2 Zn1_3 1_555 1_555
O5_2 Zn1_3 1_555 1_555
C4_3 C5_3 1_555 1_555
C27_3 C30_3 1_555 1_555
N3_2 C1_4 1_555 1_555
O2_4 C11_4 1_555 1_555
C1_4 H1_4 1_555 1_555
C2_4 C1_4 1_555 1_555
H2_4 C2_4 1_555 1_555
C3_4 C2_4 1_555 1_555
C4_4 C3_4 1_555 1_555
H3_4 C4_4 1_555 1_555
C5_4 N3_2 1_555 1_555
H4_4 C5_4 1_555 1_555
C6_4 C3_4 1_555 1_555
H5_4 C6_4 1_555 1_555
C7_4 C6_4 1_555 1_555
C11_4 O5_2 1_555 1_555
H12_4 C15_4 1_555 1_555
C4_4 C5_4 1_555 1_555
C10_4 C8_4 1_555 1_555
H8_4 C10_4 1_555 1_555
C25_4 C10_4 1_555 1_555
H19_4 C25_4 1_555 1_555
C16_4 C9_4 1_555 1_555
C17_4 C16_4 1_555 1_555
C18_4 C17_4 1_555 1_555
C19_4 C18_4 1_555 1_555
C20_4 C19_4 1_555 1_555
C24_4 C20_4 1_555 1_555
H13_4 C24_4 1_555 1_555
H14_4 C23_4 1_555 1_555
H17_4 C19_4 1_555 1_555
H18_4 C18_4 1_555 1_555
H20_4 C16_4 1_555 1_555
C23_4 C24_4 1_555 1_555
C28_4 C27_4 1_555 1_555
H22_4 C28_4 1_555 1_555
H23_4 C30_4 1_555 1_555
C27_4 C30_4 1_555 1_555

#END
