
###############################################################################
#
# This file contains modified crystal structure data generated from the
# MOF subset of the Cambridge Structural Database (CSD) v543 
# hosted by the Cambridge Crystallographic Data Centre (CCDC).
#
# This work is licensed under the Creative Commons
# Attribution-NonCommercial-ShareAlike 4.0 International License.
# To view a copy of this license, visit
# http://creativecommons.org/licenses/by-nc-sa/4.0/
# or send a letter to
# Creative Commons, PO Box 1866, Mountain View, CA 94042, USA.
#
# CIF created using the CSD Python API on 29 September 2022
# The structure has been converted into the P1 space group
# The structure has a 3D framework
# The original CSD entry AMUFIZ is in the triclinic crystal system
# The framework has been calculated to contain at least 10.0% void space
# The void calculation uses a probe of radius 1.32A, grid spacing 0.4
#
###############################################################################

data_AMUFIZ
_chemical_formula_moiety         '(C28 H28 Co7 N4 O19)n'
_symmetry_cell_setting           triclinic
_symmetry_space_group_name_H-M   'P 1'
_symmetry_Int_Tables_number      1
_space_group_name_Hall           'P 1'
loop_
_symmetry_equiv_pos_site_id
_symmetry_equiv_pos_as_xyz
1 x,y,z
_cell_length_a                   9.0838(10)
_cell_length_b                   9.6157(11)
_cell_length_c                   12.4252(14)
_cell_angle_alpha                93.488(2)
_cell_angle_beta                 104.357(2)
_cell_angle_gamma                113.993(2)
_cell_volume                     944.403
loop_
_atom_site_label
_atom_site_type_symbol
_atom_site_fract_x
_atom_site_fract_y
_atom_site_fract_z
Co3 Co 0.0000 0.5000 0.0000
O10 O 0.1367(7) 0.4778(6) 0.1550(4)
H12 H 0.1121 0.3707 0.1545
H14 H 0.2099 0.4335 0.1423
O19 O 0.0668(6) 0.7342(5) 0.0707(4)
H25 H 0.1540 0.8034 0.0431
O26 O 0.0602(6) 0.1745(6) 0.1555(4)
O28 O 0.1317(6) 0.0418(6) 0.2765(4)
Co3_2 Co 0.0000 0.5000 1.0000
H13 H 0.0306 0.2457 0.9514
O22 O 0.1942(6) 0.5394(5) 0.9285(4)
Co8 Co 0.13314(10) 0.99501(9) 0.79590(7)
C1 C 0.6685(8) 0.3465(7) 0.0597(5)
C2 C 0.2958(7) 0.1495(7) 0.0251(5)
C3 C 0.1739(8) 0.1486(7) 0.2208(5)
C4 C 0.7326(8) 0.1846(7) 0.2442(5)
C5 C 0.6444(8) 0.2842(7) 0.2579(5)
H1 H 0.7194 0.3701 0.3211
C6 C 0.5875(7) 0.3548(7) 0.1525(5)
H2 H 0.6311 0.4655 0.1815
C7 C 0.3915(7) 0.2906(7) 0.1195(5)
H3 H 0.3589 0.3728 0.0982
C8 C 0.3550(8) 0.2506(7) 0.2328(5)
H4 H 0.3853 0.3486 0.2810
C9 C 0.4813(8) 0.1888(8) 0.2885(5)
H5 H 0.4385 0.0794 0.2594
H6 H 0.5025 0.2036 0.3698
Co1 Co 0.86686(10) 0.00499(9) 0.20410(7)
Co2 Co 0.5000 0.0000 0.0000
Co3_3 Co 1.0000 0.5000 0.0000
O2 O 0.8058(6) 0.4606(5) 0.0715(4)
O3 O 0.3062(5) 0.0264(5) 0.0439(3)
O7 O 0.6627(5) 0.0662(5) 0.1643(3)
O8 O 0.8709(7) 0.2119(6) 0.3093(4)
H26 H 0.9694 0.7543 0.0486
Co2_2 Co 0.5000 0.0000 1.0000
Co3_4 Co 1.0000 0.5000 1.0000
O1 O 0.6020(6) 0.2303(5) 0.9824(4)
O4 O 0.2104(6) 0.1641(5) 0.9323(4)
O9 O 0.9332(6) 0.2658(5) 0.9293(4)
H11 H 0.8460 0.1966 0.9569
O20 O 0.8633(7) 0.5222(6) 0.8450(4)
H27 H 0.8879 0.6293 0.8455
H28 H 0.7901 0.5665 0.8577
C10 C 0.8666(9) 0.8307(9) 0.3979(6)
H7 H 0.9831 0.8844 0.4139
C11 C 0.8054(10) 0.7325(9) 0.4670(6)
H8 H 0.8787 0.7213 0.5292
C12 C 0.6333(9) 0.6498(7) 0.4435(5)
C13 C 0.5274(9) 0.6712(9) 0.3513(6)
H9 H 0.4107 0.6169 0.3337
C14 C 0.5991(9) 0.7748(9) 0.2863(6)
H10 H 0.5283 0.7905 0.2252
N1 N 0.5760(8) 0.5449(7) 0.5174(5)
Co2_3 Co 0.5000 1.0000 0.0000
N2 N 0.7683(7) 0.8547(6) 0.3075(4)
C15 C 0.1334(9) 0.1693(9) 0.6021(6)
H15 H 0.0169 0.1156 0.5861
C16 C 0.1946(10) 0.2675(9) 0.5330(6)
H16 H 0.1213 0.2787 0.4708
C17 C 0.3667(9) 0.3502(7) 0.5565(5)
C18 C 0.4726(9) 0.3288(9) 0.6487(6)
H17 H 0.5893 0.3831 0.6663
C19 C 0.4009(9) 0.2252(9) 0.7137(6)
H18 H 0.4717 0.2095 0.7748
N3 N 0.4240(8) 0.4551(7) 0.4826(5)
N4 N 0.2317(7) 0.1453(6) 0.6925(4)
O21 O 0.3980(6) 0.7697(5) 0.0176(4)
O25 O 0.7896(6) 0.8359(5) 0.0677(4)
Co2_4 Co 0.5000 1.0000 1.0000
O23 O 0.6938(5) 0.9736(5) 0.9561(3)
O30 O 0.3373(5) 0.9338(5) 0.8357(3)
C20 C 0.3315(8) 0.6535(7) 0.9403(5)
C21 C 0.7042(7) 0.8505(7) 0.9749(5)
C22 C 0.8261(8) 0.8514(7) 0.7792(5)
C23 C 0.2674(8) 0.8154(7) 0.7558(5)
C24 C 0.3556(8) 0.7158(7) 0.7421(5)
H19 H 0.2806 0.6299 0.6789
C25 C 0.4125(7) 0.6452(7) 0.8475(5)
H20 H 0.3689 0.5345 0.8185
C26 C 0.6085(7) 0.7094(7) 0.8805(5)
H21 H 0.6411 0.6272 0.9018
C27 C 0.6450(8) 0.7494(7) 0.7672(5)
H22 H 0.6147 0.6514 0.7190
C28 C 0.5187(8) 0.8112(8) 0.7115(5)
H23 H 0.5615 0.9206 0.7406
H24 H 0.4975 0.7964 0.6302
O15 O 0.9398(6) 0.8255(6) 0.8445(4)
O16 O 0.8683(6) 0.9582(6) 0.7235(4)
O18 O 0.1291(7) 0.7881(6) 0.6907(4)
loop_
_geom_bond_atom_site_label_1
_geom_bond_atom_site_label_2
_geom_bond_site_symmetry_1
_geom_bond_site_symmetry_2
O10 Co3 1_555 1_555
H12 O10 1_555 1_555
H14 O10 1_555 1_555
O19 Co3 1_555 1_555
H25 O19 1_555 1_555
O22 Co3_2 1_555 1_555
C1 C6 1_555 1_555
C2 C7 1_555 1_555
C3 C8 1_555 1_555
C4 C5 1_555 1_555
C5 H1 1_555 1_555
C6 C5 1_555 1_555
H2 C6 1_555 1_555
C7 C6 1_555 1_555
H3 C7 1_555 1_555
C8 C7 1_555 1_555
H4 C8 1_555 1_555
C9 C5 1_555 1_555
H5 C9 1_555 1_555
H6 C9 1_555 1_555
Co3_3 O2 1_555 1_555
O2 C1 1_555 1_555
O3 C2 1_555 1_555
O26 C3 1_555 1_555
O28 C3 1_555 1_555
O7 C4 1_555 1_555
O8 C4 1_555 1_555
C8 C9 1_555 1_555
Co1 O7 1_555 1_555
Co1 O8 1_555 1_555
Co2 O3 1_555 1_555
Co2 O7 1_555 1_555
Co2_2 O1 1_555 1_555
O9 Co3_4 1_555 1_555
H11 O9 1_555 1_555
O20 Co3_4 1_555 1_555
H27 O20 1_555 1_555
H28 O20 1_555 1_555
C10 H7 1_555 1_555
C11 C10 1_555 1_555
H8 C11 1_555 1_555
C12 C11 1_555 1_555
C13 C12 1_555 1_555
H9 C13 1_555 1_555
C14 C13 1_555 1_555
H10 C14 1_555 1_555
N1 C12 1_555 1_555
N2 C10 1_555 1_555
C15 H15 1_555 1_555
C16 C15 1_555 1_555
H16 C16 1_555 1_555
C17 C16 1_555 1_555
C18 C17 1_555 1_555
H17 C18 1_555 1_555
C19 C18 1_555 1_555
H18 C19 1_555 1_555
N3 N1 1_555 1_555
N4 C15 1_555 1_555
O21 Co2_3 1_555 1_555
C14 N2 1_555 1_555
C17 N3 1_555 1_555
C19 N4 1_555 1_555
O23 Co2_4 1_555 1_555
O30 Co2_4 1_555 1_555
Co8 O30 1_555 1_555
C20 C25 1_555 1_555
C21 C26 1_555 1_555
C22 C27 1_555 1_555
C23 C24 1_555 1_555
C24 H19 1_555 1_555
C25 C24 1_555 1_555
H20 C25 1_555 1_555
C26 C25 1_555 1_555
H21 C26 1_555 1_555
C27 C26 1_555 1_555
H22 C27 1_555 1_555
C28 C24 1_555 1_555
H23 C28 1_555 1_555
H24 C28 1_555 1_555
O22 C20 1_555 1_555
O23 C21 1_555 1_555
O15 C22 1_555 1_555
O16 C22 1_555 1_555
O30 C23 1_555 1_555
O18 C23 1_555 1_555
C27 C28 1_555 1_555
Co8 O18 1_555 1_555

#END
