
###############################################################################
#
# This file contains modified crystal structure data generated from the
# MOF subset of the Cambridge Structural Database (CSD) v543 
# hosted by the Cambridge Crystallographic Data Centre (CCDC).
#
# This work is licensed under the Creative Commons
# Attribution-NonCommercial-ShareAlike 4.0 International License.
# To view a copy of this license, visit
# http://creativecommons.org/licenses/by-nc-sa/4.0/
# or send a letter to
# Creative Commons, PO Box 1866, Mountain View, CA 94042, USA.
#
# CIF created using the CSD Python API on 29 September 2022
# The structure has been converted into the P1 space group
# The structure has a 3D framework
# The original CSD entry AMUFOF is in the triclinic crystal system
# The framework has been calculated to contain at least 10.0% void space
# The void calculation uses a probe of radius 1.32A, grid spacing 0.4
#
###############################################################################

data_AMUFOF
_chemical_formula_moiety         '(C30 H30 Co9 N4 O20)n'
_symmetry_cell_setting           triclinic
_symmetry_space_group_name_H-M   'P 1'
_symmetry_Int_Tables_number      1
_space_group_name_Hall           'P 1'
loop_
_symmetry_equiv_pos_site_id
_symmetry_equiv_pos_as_xyz
1 x,y,z
_cell_length_a                   9.1004(4)
_cell_length_b                   9.3972(4)
_cell_length_c                   14.9287(6)
_cell_angle_alpha                82.0880(10)
_cell_angle_beta                 85.4580(10)
_cell_angle_gamma                65.3350(10)
_cell_volume                     1148.82
loop_
_atom_site_label
_atom_site_type_symbol
_atom_site_fract_x
_atom_site_fract_y
_atom_site_fract_z
O17 O 0.01350(19) 0.1598(2) 0.87066(13)
O18 O 0.0064(2) 0.0008(2) 0.78037(13)
Co3 Co 0.0000 0.5000 0.0000
O9 O 0.03097(19) 0.26856(19) 0.05309(12)
H12 H 0.1269 0.1937 0.0267
O10 O 0.0842(2) 0.5239(2) 0.12194(13)
H14 H 0.2003 0.4780 0.1203
H15 H 0.0448 0.6338 0.1292
Co3_2 Co -0.0000 0.5000 1.0000
H28 H 0.0611 0.7485 0.9610
Co7 Co 0.23408(3) 0.97443(4) 0.83801(2)
O21 O 0.22069(18) 0.4520(2) 0.93220(12)
C10 C 0.4453(3) 0.2693(3) 0.23244(18)
H7 H 0.3860 0.2578 0.1882
C11 C 0.3827(3) 0.3628(3) 0.29895(18)
H8 H 0.2741 0.4259 0.3093
C12 C 0.6457(3) 0.2432(3) 0.30987(17)
H9 H 0.7500 0.2113 0.3301
C13 C 0.5055(3) 0.4251(3) 0.42570(17)
C14 C 0.6404(4) 0.4275(6) 0.4547(3)
H10 H 0.7384 0.3791 0.4241
C15 C 0.3651(4) 0.4982(6) 0.4698(3)
H11 H 0.2704 0.4993 0.4498
Co1 Co 0.76592(3) 0.02557(4) 0.16199(2)
Co2 Co 0.5000 0.0000 0.0000
N1 N 0.6108(2) 0.1933(2) 0.24016(14)
N2 N 0.5117(2) 0.3465(2) 0.34889(14)
C16 C 0.5547(3) 0.7307(3) 0.76756(18)
H16 H 0.6140 0.7422 0.8118
C17 C 0.6173(3) 0.6372(3) 0.70105(18)
H17 H 0.7259 0.5741 0.6907
C18 C 0.3543(3) 0.7568(3) 0.69013(17)
H18 H 0.2500 0.7887 0.6699
C19 C 0.4945(3) 0.5749(3) 0.57430(17)
C20 C 0.3596(4) 0.5725(6) 0.5453(3)
H19 H 0.2616 0.6209 0.5759
C21 C 0.6349(4) 0.5018(6) 0.5302(3)
H20 H 0.7296 0.5007 0.5502
N3 N 0.3892(2) 0.8067(2) 0.75984(14)
N4 N 0.4883(2) 0.6535(2) 0.65111(14)
O14 O 0.39297(18) 0.23924(18) 0.01195(11)
O15 O 0.75880(19) 0.1759(2) 0.04762(11)
Co2_2 Co 0.5000 -0.0000 1.0000
C22 C 0.3852(3) 0.1557(3) 0.80350(15)
C23 C 0.3585(2) 0.3430(2) 0.94566(16)
C24 C 0.7155(2) 0.1515(3) 0.97551(15)
C25 C 0.9342(3) 0.1213(3) 0.82025(16)
C26 C 0.7571(3) 0.2247(3) 0.80877(15)
H21 H 0.7494 0.3189 0.7683
C27 C 0.6609(3) 0.1527(3) 0.76634(16)
H22 H 0.6800 0.1562 0.7014
H23 H 0.6906 0.0440 0.7918
C28 C 0.4815(3) 0.2553(3) 0.78911(15)
H24 H 0.4369 0.3349 0.7372
C29 C 0.4845(2) 0.3431(3) 0.87102(15)
H25 H 0.4523 0.4538 0.8464
C30 C 0.6645(2) 0.2823(3) 0.89805(16)
H26 H 0.6853 0.3706 0.9128
O11 O 0.41662(19) 0.04546(19) 0.86899(11)
O12 O 0.27852(19) 0.1743(2) 0.75026(12)
O16 O 0.71446(17) 0.02066(17) 0.96348(11)
C1 C 0.6148(3) 0.8443(3) 0.19650(15)
C2 C 0.6415(2) 0.6570(2) 0.05434(16)
C3 C 0.2845(2) 0.8485(3) 0.02449(15)
C4 C 0.0658(3) 0.8787(3) 0.17975(16)
C5 C 0.2429(3) 0.7753(3) 0.19123(15)
H1 H 0.2506 0.6811 0.2317
C6 C 0.3391(3) 0.8473(3) 0.23366(16)
H2 H 0.3200 0.8438 0.2986
H3 H 0.3094 0.9560 0.2082
C7 C 0.5185(3) 0.7447(3) 0.21089(15)
H4 H 0.5631 0.6651 0.2628
C8 C 0.5155(2) 0.6569(3) 0.12898(15)
H5 H 0.5477 0.5462 0.1536
C9 C 0.3355(2) 0.7177(3) 0.10195(16)
H6 H 0.3147 0.6294 0.0872
Co2_3 Co 0.5000 1.0000 0.0000
Co3_3 Co 1.0000 0.5000 0.0000
O1 O 0.58338(19) 0.95454(19) 0.13101(11)
O2 O 0.72148(19) 0.8257(2) 0.24974(12)
O3 O 0.77931(18) 0.5480(2) 0.06780(12)
O6 O 0.28554(17) 0.97934(17) 0.03652(11)
H13 H 0.9389 0.2515 0.0390
O22 O 0.98650(19) 0.8402(2) 0.12934(13)
O24 O 0.9936(2) 0.9992(2) 0.21963(13)
Co2_4 Co 0.5000 1.0000 1.0000
Co3_4 Co 1.0000 0.5000 1.0000
O4 O 0.60703(18) 0.76076(18) 0.98805(11)
O5 O 0.24120(19) 0.8241(2) 0.95238(11)
O19 O 0.96903(19) 0.73144(19) 0.94691(12)
H27 H 0.8731 0.8063 0.9733
O20 O 0.9158(2) 0.4761(2) 0.87806(13)
H29 H 0.7997 0.5220 0.8797
H30 H 0.9552 0.3662 0.8708
loop_
_geom_bond_atom_site_label_1
_geom_bond_atom_site_label_2
_geom_bond_site_symmetry_1
_geom_bond_site_symmetry_2
O9 Co3 1_555 1_555
H12 O9 1_555 1_555
O10 Co3 1_555 1_555
H14 O10 1_555 1_555
H15 O10 1_555 1_555
O21 Co3_2 1_555 1_555
C10 H7 1_555 1_555
C11 C10 1_555 1_555
H8 C11 1_555 1_555
C12 H9 1_555 1_555
C13 C14 1_555 1_555
C14 H10 1_555 1_555
C15 C13 1_555 1_555
H11 C15 1_555 1_555
Co1 N1 1_555 1_555
N1 C10 1_555 1_555
N2 C11 1_555 1_555
C16 H16 1_555 1_555
C17 C16 1_555 1_555
H17 C17 1_555 1_555
C18 H18 1_555 1_555
C19 C20 1_555 1_555
C20 C15 1_555 1_555
H19 C20 1_555 1_555
C21 C14 1_555 1_555
H20 C21 1_555 1_555
N3 C16 1_555 1_555
N4 C17 1_555 1_555
O14 Co2 1_555 1_555
O15 Co1 1_555 1_555
Co7 N3 1_555 1_555
C12 N1 1_555 1_555
C12 N2 1_555 1_555
C13 N2 1_555 1_555
C18 N3 1_555 1_555
C18 N4 1_555 1_555
C19 C21 1_555 1_555
C19 N4 1_555 1_555
C22 C28 1_555 1_555
C23 C29 1_555 1_555
C24 C30 1_555 1_555
C25 C26 1_555 1_555
C26 H21 1_555 1_555
C27 C26 1_555 1_555
H22 C27 1_555 1_555
H23 C27 1_555 1_555
C28 C27 1_555 1_555
H24 C28 1_555 1_555
C29 C28 1_555 1_555
H25 C29 1_555 1_555
C30 C26 1_555 1_555
H26 C30 1_555 1_555
O11 Co2_2 1_555 1_555
O12 C22 1_555 1_555
O21 C23 1_555 1_555
O16 Co2_2 1_555 1_555
C22 O11 1_555 1_555
C24 O16 1_555 1_555
C29 C30 1_555 1_555
C1 C7 1_555 1_555
C2 C8 1_555 1_555
C3 C9 1_555 1_555
C4 C5 1_555 1_555
C5 H1 1_555 1_555
C6 C5 1_555 1_555
H2 C6 1_555 1_555
H3 C6 1_555 1_555
C7 C6 1_555 1_555
H4 C7 1_555 1_555
C8 C7 1_555 1_555
H5 C8 1_555 1_555
C9 C5 1_555 1_555
H6 C9 1_555 1_555
Co2_3 O1 1_555 1_555
Co3_3 O3 1_555 1_555
O1 C1 1_555 1_555
O2 C1 1_555 1_555
O3 C2 1_555 1_555
O6 C3 1_555 1_555
C8 C9 1_555 1_555
Co2_3 O6 1_555 1_555
Co7 O5 1_555 1_555
O19 Co3_4 1_555 1_555
H27 O19 1_555 1_555
O20 Co3_4 1_555 1_555
H29 O20 1_555 1_555
H30 O20 1_555 1_555
Co2_4 O4 1_555 1_555

#END
