
###############################################################################
#
# This file contains modified crystal structure data generated from the
# MOF subset of the Cambridge Structural Database (CSD) v543 
# hosted by the Cambridge Crystallographic Data Centre (CCDC).
#
# This work is licensed under the Creative Commons
# Attribution-NonCommercial-ShareAlike 4.0 International License.
# To view a copy of this license, visit
# http://creativecommons.org/licenses/by-nc-sa/4.0/
# or send a letter to
# Creative Commons, PO Box 1866, Mountain View, CA 94042, USA.
#
# CIF created using the CSD Python API on 29 September 2022
# The structure has been converted into the P1 space group
# The structure has a 3D framework
# The original CSD entry AMUPOP is in the monoclinic crystal system
# The framework has been calculated to contain at least 10.0% void space
# The void calculation uses a probe of radius 1.32A, grid spacing 0.4
#
###############################################################################

data_AMUPOP
_chemical_formula_moiety         '(C216 H200 N48 O46 Zn7)n'
_symmetry_cell_setting           triclinic
_symmetry_space_group_name_H-M   'P 1'
_symmetry_Int_Tables_number      1
_space_group_name_Hall           'P 1'
loop_
_symmetry_equiv_pos_site_id
_symmetry_equiv_pos_as_xyz
1 x,y,z
_cell_length_a                   25.801(2)
_cell_length_b                   16.7844(14)
_cell_length_c                   18.9522(14)
_cell_angle_alpha                90
_cell_angle_beta                 128.7640(10)
_cell_angle_gamma                90
_cell_volume                     6399.52
loop_
_atom_site_label
_atom_site_type_symbol
_atom_site_fract_x
_atom_site_fract_y
_atom_site_fract_z
O1 O 0.14802(10) 0.08122(13) 0.21264(13)
C3 C 0.06454(12) 0.00629(14) 0.08235(17)
N2 N 0.07965(15) 0.02446(16) 0.3510(2)
C7 C 0.13458(12) 0.02047(15) 0.16741(17)
N4 N 0.17417(15) 0.08877(17) 0.4358(2)
C9 C 0.1067(2) 0.0152(2) 0.4395(3)
C12 C 0.12181(19) 0.0695(2) 0.3515(3)
H8 H 0.1158 0.0857 0.2999
C14 C 0.22188(17) 0.2230(2) 0.4863(3)
H10 H 0.1803 0.2461 0.4351
H11 H 0.2202 0.2189 0.5360
H14 H 0.3657 0.0044 0.5133
C18 C 0.2288(2) 0.1405(2) 0.4613(3)
H15 H 0.2299 0.1443 0.4111
H16 H 0.2705 0.1173 0.5123
C21 C 0.1644(2) 0.0546(2) 0.4921(3)
H19 H 0.1924 0.0582 0.5549
C33 C 0.02595(12) 0.07317(15) 0.03550(17)
H26 H 0.0438 0.1231 0.0604
N9 N 0.42035(15) 0.47554(16) 0.6490(2)
N10 N 0.32583(15) 0.41123(17) 0.5642(2)
C45 C 0.3933(2) 0.4848(2) 0.5605(3)
H37 H 0.4120 0.5141 0.5398
C46 C 0.37819(19) 0.4305(2) 0.6485(3)
H38 H 0.3842 0.4143 0.7001
C47 C 0.27812(17) 0.2770(2) 0.5137(3)
H39 H 0.3197 0.2539 0.5649
H40 H 0.2798 0.2811 0.4640
C48 C 0.2712(2) 0.3595(2) 0.5387(3)
H41 H 0.2701 0.3557 0.5889
H42 H 0.2295 0.3827 0.4877
C49 C 0.3356(2) 0.4454(2) 0.5079(3)
H43 H 0.3076 0.4418 0.4451
Zn5 Zn 0.5000 0.53903(3) 0.7500
O15 O 0.31885(12) 0.08680(15) 0.34912(17)
Zn4 Zn 0.0000 0.03903(3) 0.7500
Zn1 Zn 0.0000 0.96097(3) 0.2500
Zn2 Zn 0.268106(15) 0.990283(19) 0.29253(2)
O2 O 0.17737(9) 0.96845(12) 0.18604(14)
O3 O 0.02094(11) 0.91561(13) 0.17615(15)
O4 O 0.08721(12) 0.83866(16) 0.29325(15)
C1 C 0.08562(12) 0.82208(15) 0.16803(17)
C2 C 0.03766(12) 0.93065(14) 0.04626(16)
N1 N 0.27664(12) 0.95699(15) 0.40269(16)
C4 C 0.07301(11) 0.85340(15) 0.08968(17)
N3 N 0.25486(14) 0.90541(16) 0.48797(18)
C5 C 0.06368(13) 0.86106(16) 0.21706(18)
C8 C 0.11771(13) 0.74910(16) 0.20134(17)
H2 H 0.1268 0.7293 0.2539
H3 H 0.0880 0.9859 0.4602
N5 N 0.31699(12) 0.90744(17) 0.27442(19)
C10 C 0.25367(19) 0.7716(2) 0.5380(2)
H4 H 0.2334 0.7395 0.5575
H5 H 0.3006 0.7763 0.5888
C11 C 0.2230(2) 0.8534(2) 0.5136(3)
H6 H 0.1758 0.8495 0.4635
H7 H 0.2284 0.8763 0.5648
C13 C 0.23376(15) 0.91538(19) 0.4034(2)
H9 H 0.1939 0.8954 0.3518
C15 C 0.37291(18) 0.9174(3) 0.2868(3)
H12 H 0.3921 0.9667 0.2939
C16 C 0.31491(19) 0.9429(2) 0.5447(2)
H13 H 0.3416 0.9456 0.6075
C17 C 0.32807(17) 0.9749(2) 0.4925(2)
N6 N 0.39848(18) 0.8478(3) 0.2879(3)
C19 C 0.3557(3) 0.7884(3) 0.2720(3)
H17 H 0.3599 0.7339 0.2678
C20 C 0.3062(2) 0.8265(2) 0.2637(3)
H18 H 0.2695 0.8013 0.2523
C22 C 0.13665(13) 0.70496(16) 0.15953(19)
O5 O 0.18621(17) 0.60199(17) 0.26983(18)
C23 C 0.09102(14) 0.80824(17) 0.04706(19)
C24 C 0.12201(14) 0.73487(17) 0.0806(2)
H21 H 0.1330 0.7056 0.0500
C25 C 0.17055(15) 0.62541(19) 0.1984(2)
O6 O 0.18115(12) 0.58680(15) 0.15088(17)
C26 C 0.4635(2) 0.8411(4) 0.2349(4)
H22 H 0.4404 0.8888 0.1999
H23 H 0.4393 0.7953 0.1964
C27 C 0.4648(3) 0.8384(5) 0.3107(4)
H24 H 0.4939 0.8803 0.3525
H25 H 0.4837 0.7879 0.3414
N7 N 0.22336(12) 0.54301(15) 0.59731(16)
N8 N 0.24514(14) 0.59459(16) 0.51203(18)
C40 C 0.24633(19) 0.7284(2) 0.4620(2)
H30 H 0.2666 0.7605 0.4425
H31 H 0.1994 0.7237 0.4112
C41 C 0.2770(2) 0.6466(2) 0.4864(3)
H32 H 0.3242 0.6505 0.5365
H33 H 0.2716 0.6237 0.4352
C42 C 0.26624(15) 0.58462(19) 0.5966(2)
H34 H 0.3061 0.6046 0.6482
C43 C 0.18509(19) 0.5571(2) 0.4553(2)
H35 H 0.1584 0.5544 0.3925
C44 C 0.17193(17) 0.5251(2) 0.5075(2)
H36 H 0.1343 0.4956 0.4867
N11 N 0.68301(12) 0.90744(17) 0.22558(19)
C50 C 0.62709(18) 0.9174(3) 0.2132(3)
H44 H 0.6079 0.9667 0.2061
N12 N 0.60152(18) 0.8478(3) 0.2121(3)
C51 C 0.6443(3) 0.7884(3) 0.2280(3)
H45 H 0.6401 0.7339 0.2322
C52 C 0.6938(2) 0.8265(2) 0.2363(3)
H46 H 0.7305 0.8013 0.2477
C53 C 0.5365(2) 0.8411(4) 0.2651(4)
H47 H 0.5596 0.8888 0.3001
H48 H 0.5607 0.7953 0.3036
C54 C 0.5352(3) 0.8384(5) 0.1893(4)
H49 H 0.5061 0.8803 0.1475
H50 H 0.5163 0.7879 0.1586
Zn3 Zn 0.231894(15) 0.490283(19) 0.20747(2)
Zn6 Zn 0.731894(15) 0.990283(19) 0.20747(2)
Zn8 Zn 0.231894(15) 0.509717(19) 0.70747(2)
O13 O 0.32263(9) 0.46845(12) 0.31396(14)
N13 N 0.22336(12) 0.45699(15) 0.09731(16)
N15 N 0.18301(12) 0.40744(17) 0.22558(19)
H20 H 0.0821 0.8276 0.9945
H28 H 0.9179 0.1724 0.0055
N14 N 0.92035(15) 0.02446(16) 0.1490(2)
O8 O 0.82263(9) 0.03155(12) 0.81396(14)
O9 O 0.97906(11) 0.08439(13) 0.82385(15)
O10 O 0.91279(12) 0.16134(16) 0.70675(15)
C28 C 0.91438(12) 0.17792(15) 0.83197(17)
C29 C 0.96234(12) 0.06935(14) 0.95374(16)
C31 C 0.92699(11) 0.14660(15) 0.91032(17)
C32 C 0.93632(13) 0.13894(16) 0.78294(18)
C35 C 0.88229(13) 0.25090(16) 0.79866(17)
H27 H 0.8732 0.2707 0.7461
C36 C 0.86335(13) 0.29504(16) 0.84047(19)
O11 O 0.81379(17) 0.39801(17) 0.73017(18)
C37 C 0.90898(14) 0.19176(17) 0.95294(19)
C38 C 0.87799(14) 0.26513(17) 0.9194(2)
H29 H 0.8670 0.2944 0.9500
C39 C 0.82945(15) 0.37459(19) 0.8016(2)
O12 O 0.81885(12) 0.41320(15) 0.84912(17)
Zn4_2 Zn 1.0000 0.03903(3) 0.7500
Zn7 Zn 0.731894(15) 0.009717(19) 0.70747(2)
Zn9 Zn 0.768106(15) 0.509717(19) 0.79253(2)
Zn1_2 Zn 1.0000 0.96097(3) 0.2500
O14 O 0.97906(11) 0.91561(13) 0.32385(15)
C6 C 0.97405(12) 0.92683(15) 0.96450(17)
H1 H 0.9562 0.8769 0.9396
O7 O 0.85198(10) 0.91878(13) 0.78736(13)
C30 C 0.93546(12) 0.99371(14) 0.91765(17)
C34 C 0.86542(12) 0.97953(15) 0.83259(17)
O8_2 O 0.17737(9) 0.03155(12) 0.68604(14)
O9_2 O 0.02094(11) 0.08439(13) 0.67615(15)
O10_2 O 0.08721(12) 0.16134(16) 0.79325(15)
C28_2 C 0.08562(12) 0.17792(15) 0.66803(17)
C29_2 C 0.03766(12) 0.06935(14) 0.54626(16)
C31_2 C 0.07301(11) 0.14660(15) 0.58968(17)
C32_2 C 0.06368(13) 0.13894(16) 0.71706(18)
C35_2 C 0.11771(13) 0.25090(16) 0.70134(17)
H27_2 H 0.1268 0.2707 0.7539
C36_2 C 0.13665(13) 0.29504(16) 0.65953(19)
O11_2 O 0.18621(17) 0.39801(17) 0.76983(18)
C37_2 C 0.09102(14) 0.19176(17) 0.54706(19)
H28_2 H 0.0821 0.1724 0.4945
C38_2 C 0.12201(14) 0.26513(17) 0.5806(2)
H29_2 H 0.1330 0.2944 0.5500
C39_2 C 0.17055(15) 0.37459(19) 0.6984(2)
O12_2 O 0.18115(12) 0.41320(15) 0.65088(17)
Zn7_2 Zn 0.268106(15) 0.009717(19) 0.79253(2)
C6_2 C 0.02595(12) 0.92683(15) 0.53550(17)
H1_2 H 0.0438 0.8769 0.5604
O7_2 O 0.14802(10) 0.91878(13) 0.71264(13)
C30_2 C 0.06454(12) 0.99371(14) 0.58235(17)
C34_2 C 0.13458(12) 0.97953(15) 0.66741(17)
O1_2 O 0.85198(10) 0.08122(13) 0.28736(13)
C3_2 C 0.93546(12) 0.00629(14) 0.41765(17)
C7_2 C 0.86542(12) 0.02047(15) 0.33259(17)
N4_2 N 0.82583(15) 0.08877(17) 0.0642(2)
C9_2 C 0.8933(2) 0.0152(2) 0.0605(3)
C12_2 C 0.87819(19) 0.0695(2) 0.1485(3)
H8_2 H 0.8842 0.0857 0.2001
C14_2 C 0.77812(17) 0.2230(2) 0.0137(3)
H10_2 H 0.8197 0.2461 0.0649
C18_2 C 0.7712(2) 0.1405(2) 0.0387(3)
H15_2 H 0.7701 0.1443 0.0889
C21_2 C 0.8356(2) 0.0546(2) 0.0079(3)
C33_2 C 0.97405(12) 0.07317(15) 0.46450(17)
H26_2 H 0.9562 0.1231 0.4396
H40_2 H 0.7202 0.2811 0.0360
H42_2 H 0.7705 0.3827 0.0123
H43_2 H 0.6924 0.4418 0.0549
O15_2 O 0.68115(12) 0.08680(15) 0.15088(17)
H11_2 H 0.7798 0.2189 0.9640
H14_2 H 0.6343 0.0044 0.9867
H16_2 H 0.7295 0.1173 0.9877
H19_2 H 0.8076 0.0582 0.9451
N9_2 N 0.57965(15) 0.47554(16) 0.8510(2)
N10_2 N 0.67417(15) 0.41123(17) 0.9358(2)
C45_2 C 0.6067(2) 0.4848(2) 0.9395(3)
H37_2 H 0.5880 0.5141 0.9602
C46_2 C 0.62181(19) 0.4305(2) 0.8515(3)
H38_2 H 0.6158 0.4143 0.7999
C47_2 C 0.72188(17) 0.2770(2) 0.9863(3)
H39_2 H 0.6803 0.2539 0.9351
C48_2 C 0.7288(2) 0.3595(2) 0.9613(3)
H41_2 H 0.7299 0.3557 0.9111
C49_2 C 0.6644(2) 0.4454(2) 0.9921(3)
O2_2 O 0.82263(9) 0.96845(12) 0.31396(14)
O4_2 O 0.91279(12) 0.83866(16) 0.20675(15)
C1_2 C 0.91438(12) 0.82208(15) 0.33197(17)
C2_2 C 0.96234(12) 0.93065(14) 0.45374(16)
N1_2 N 0.72336(12) 0.95699(15) 0.09731(16)
C4_2 C 0.92699(11) 0.85340(15) 0.41032(17)
N3_2 N 0.74514(14) 0.90541(16) 0.01203(18)
C5_2 C 0.93632(13) 0.86106(16) 0.28294(18)
C8_2 C 0.88229(13) 0.74910(16) 0.29866(17)
H2_2 H 0.8732 0.7293 0.2461
H3_2 H 0.9120 0.9859 0.0398
H6_2 H 0.8242 0.8495 0.0365
C13_2 C 0.76624(15) 0.91538(19) 0.0966(2)
H9_2 H 0.8061 0.8954 0.1482
C17_2 C 0.67193(17) 0.9749(2) 0.0075(2)
C22_2 C 0.86335(13) 0.70496(16) 0.34047(19)
O5_2 O 0.81379(17) 0.60199(17) 0.23017(18)
C23_2 C 0.90898(14) 0.80824(17) 0.45294(19)
H20_2 H 0.9179 0.8276 0.5055
C24_2 C 0.87799(14) 0.73487(17) 0.4194(2)
H21_2 H 0.8670 0.7056 0.4500
C25_2 C 0.82945(15) 0.62541(19) 0.3016(2)
O6_2 O 0.81885(12) 0.58680(15) 0.34912(17)
C40_2 C 0.75367(19) 0.7284(2) 0.0380(2)
H30_2 H 0.7334 0.7605 0.0575
H31_2 H 0.8006 0.7237 0.0888
C41_2 C 0.7230(2) 0.6466(2) 0.0136(3)
H33_2 H 0.7284 0.6237 0.0648
C43_2 C 0.81491(19) 0.5571(2) 0.0447(2)
H35_2 H 0.8416 0.5544 0.1075
H36_2 H 0.8657 0.4956 0.0133
Zn3_2 Zn 0.768106(15) 0.490283(19) 0.29253(2)
O13_2 O 0.67737(9) 0.46845(12) 0.18604(14)
N13_2 N 0.77664(12) 0.45699(15) 0.40269(16)
N15_2 N 0.81699(12) 0.40744(17) 0.27442(19)
C10_2 C 0.74633(19) 0.7716(2) 0.9620(2)
H4_2 H 0.7666 0.7395 0.9425
H5_2 H 0.6994 0.7763 0.9112
C11_2 C 0.7770(2) 0.8534(2) 0.9864(3)
H7_2 H 0.7716 0.8763 0.9352
C16_2 C 0.68509(19) 0.9429(2) 0.9553(2)
H13_2 H 0.6584 0.9456 0.8925
N7_2 N 0.77664(12) 0.54301(15) 0.90269(16)
N8_2 N 0.75486(14) 0.59459(16) 0.98797(18)
H32_2 H 0.6758 0.6505 0.9635
C42_2 C 0.73376(15) 0.58462(19) 0.9034(2)
H34_2 H 0.6939 0.6046 0.8518
C44_2 C 0.82807(17) 0.5251(2) 0.9925(2)
C50_2 C 0.12709(18) 0.4174(3) 0.2132(3)
H44_2 H 0.1079 0.4667 0.2061
N12_2 N 0.10152(18) 0.3478(3) 0.2121(3)
C51_2 C 0.1443(3) 0.2884(3) 0.2280(3)
H45_2 H 0.1401 0.2339 0.2322
C52_2 C 0.1938(2) 0.3265(2) 0.2363(3)
H46_2 H 0.2305 0.3013 0.2477
C53_2 C 0.0365(2) 0.3411(4) 0.2651(4)
H47_2 H 0.0596 0.3888 0.3001
H48_2 H 0.0607 0.2953 0.3036
C54_2 C 0.0352(3) 0.3384(5) 0.1893(4)
H49_2 H 0.0061 0.3803 0.1475
H50_2 H 0.0163 0.2879 0.1586
H37_3 H 0.9120 0.0141 0.5398
Zn1_3 Zn 0.5000 0.46097(3) 0.2500
O1_3 O 0.64802(10) 0.58122(13) 0.21264(13)
O3_2 O 0.52094(11) 0.41561(13) 0.17615(15)
O4_3 O 0.58721(12) 0.33866(16) 0.29325(15)
C1_3 C 0.58562(12) 0.32208(15) 0.16803(17)
C2_3 C 0.53766(12) 0.43065(14) 0.04626(16)
C3_3 C 0.56454(12) 0.50629(14) 0.08235(17)
C4_3 C 0.57301(11) 0.35340(15) 0.08968(17)
N2_2 N 0.57965(15) 0.52446(16) 0.3510(2)
N3_3 N 0.75486(14) 0.40541(16) 0.48797(18)
C5_3 C 0.56368(13) 0.36106(16) 0.21706(18)
C7_3 C 0.63458(12) 0.52047(15) 0.16741(17)
N4_3 N 0.67417(15) 0.58877(17) 0.4358(2)
C8_3 C 0.61771(13) 0.24910(16) 0.20134(17)
H2_3 H 0.6268 0.2293 0.2539
C9_3 C 0.6067(2) 0.5152(2) 0.4395(3)
H3_3 H 0.5880 0.4859 0.4602
C10_3 C 0.75367(19) 0.2716(2) 0.5380(2)
H4_3 H 0.7334 0.2395 0.5575
H5_3 H 0.8006 0.2763 0.5888
C11_3 C 0.7230(2) 0.3534(2) 0.5136(3)
H6_3 H 0.6758 0.3495 0.4635
H7_3 H 0.7284 0.3763 0.5648
C12_3 C 0.62181(19) 0.5695(2) 0.3515(3)
H8_3 H 0.6158 0.5857 0.2999
C13_3 C 0.73376(15) 0.41538(19) 0.4034(2)
H9_3 H 0.6939 0.3954 0.3518
C14_3 C 0.72188(17) 0.7230(2) 0.4863(3)
H10_3 H 0.6803 0.7461 0.4351
H11_3 H 0.7202 0.7189 0.5360
C15_2 C 0.87291(18) 0.4174(3) 0.2868(3)
H12_2 H 0.8921 0.4667 0.2939
C16_3 C 0.81491(19) 0.4429(2) 0.5447(2)
H13_3 H 0.8416 0.4456 0.6075
C17_3 C 0.82807(17) 0.4749(2) 0.4925(2)
H14_3 H 0.8657 0.5044 0.5133
N6_2 N 0.89848(18) 0.3478(3) 0.2879(3)
C18_3 C 0.7288(2) 0.6405(2) 0.4613(3)
H15_3 H 0.7299 0.6443 0.4111
H16_3 H 0.7705 0.6173 0.5123
C19_2 C 0.8557(3) 0.2884(3) 0.2720(3)
H17_2 H 0.8599 0.2339 0.2678
C20_2 C 0.8062(2) 0.3265(2) 0.2637(3)
H18_2 H 0.7695 0.3013 0.2523
C21_3 C 0.6644(2) 0.5546(2) 0.4921(3)
H19_3 H 0.6924 0.5582 0.5549
C22_3 C 0.63665(13) 0.20496(16) 0.15953(19)
O5_3 O 0.68621(17) 0.10199(17) 0.26983(18)
C23_3 C 0.59102(14) 0.30824(17) 0.04706(19)
C24_3 C 0.62201(14) 0.23487(17) 0.0806(2)
H21_3 H 0.6330 0.2056 0.0500
C25_3 C 0.67055(15) 0.12541(19) 0.1984(2)
C26_2 C 0.9635(2) 0.3411(4) 0.2349(4)
H22_2 H 0.9404 0.3888 0.1999
H23_2 H 0.9393 0.2953 0.1964
C27_2 C 0.9648(3) 0.3384(5) 0.3107(4)
H24_2 H 0.9939 0.3803 0.3525
H25_2 H 0.9837 0.2879 0.3414
C33_3 C 0.52595(12) 0.57317(15) 0.03550(17)
H26_3 H 0.5438 0.6231 0.0604
H28_3 H 0.4179 0.6724 0.0055
N7_3 N 0.72336(12) 0.04301(15) 0.59731(16)
N8_3 N 0.74514(14) 0.09459(16) 0.51203(18)
C40_3 C 0.74633(19) 0.2284(2) 0.4620(2)
H30_3 H 0.7666 0.2605 0.4425
H31_3 H 0.6994 0.2237 0.4112
C41_3 C 0.7770(2) 0.1466(2) 0.4864(3)
H32_3 H 0.8242 0.1505 0.5365
H33_3 H 0.7716 0.1237 0.4352
C42_3 C 0.76624(15) 0.08462(19) 0.5966(2)
H34_3 H 0.8061 0.1046 0.6482
C43_3 C 0.68509(19) 0.0571(2) 0.4553(2)
H35_3 H 0.6584 0.0544 0.3925
C44_3 C 0.67193(17) 0.0251(2) 0.5075(2)
N9_3 N 0.92035(15) 0.97554(16) 0.6490(2)
N10_3 N 0.82583(15) 0.91123(17) 0.5642(2)
C45_3 C 0.8933(2) 0.9848(2) 0.5605(3)
C46_3 C 0.87819(19) 0.9305(2) 0.6485(3)
H38_3 H 0.8842 0.9143 0.7001
C47_3 C 0.77812(17) 0.7770(2) 0.5137(3)
H39_3 H 0.8197 0.7539 0.5649
H40_3 H 0.7798 0.7811 0.4640
C48_3 C 0.7712(2) 0.8595(2) 0.5387(3)
H41_3 H 0.7701 0.8557 0.5889
H42_3 H 0.7295 0.8827 0.4877
C49_3 C 0.8356(2) 0.9454(2) 0.5079(3)
H43_3 H 0.8076 0.9418 0.4451
O14_2 O 0.47906(11) 0.41561(13) 0.32385(15)
N14_2 N 0.42035(15) 0.52446(16) 0.1490(2)
C6_3 C 0.47405(12) 0.42683(15) 0.96450(17)
H1_3 H 0.4562 0.3769 0.9396
H20_3 H 0.5821 0.3276 0.9945
O7_3 O 0.35198(10) 0.41878(13) 0.78736(13)
O8_3 O 0.32263(9) 0.53155(12) 0.81396(14)
O9_3 O 0.47906(11) 0.58439(13) 0.82385(15)
O10_3 O 0.41279(12) 0.66134(16) 0.70675(15)
C28_3 C 0.41438(12) 0.67792(15) 0.83197(17)
C29_3 C 0.46234(12) 0.56935(14) 0.95374(16)
C30_3 C 0.43546(12) 0.49371(14) 0.91765(17)
C31_3 C 0.42699(11) 0.64660(15) 0.91032(17)
C32_3 C 0.43632(13) 0.63894(16) 0.78294(18)
C34_3 C 0.36542(12) 0.47953(15) 0.83259(17)
C35_3 C 0.38229(13) 0.75090(16) 0.79866(17)
H27_3 H 0.3732 0.7707 0.7461
C36_3 C 0.36335(13) 0.79504(16) 0.84047(19)
O11_3 O 0.31379(17) 0.89801(17) 0.73017(18)
C37_3 C 0.40898(14) 0.69176(17) 0.95294(19)
C38_3 C 0.37799(14) 0.76513(17) 0.9194(2)
H29_3 H 0.3670 0.7944 0.9500
C39_3 C 0.32945(15) 0.87459(19) 0.8016(2)
O12_3 O 0.31885(12) 0.91320(15) 0.84912(17)
H36_3 H 0.6343 0.9956 0.4867
H37_4 H 0.0880 0.0141 0.9602
O1_4 O 0.35198(10) 0.58122(13) 0.28736(13)
O4_4 O 0.41279(12) 0.33866(16) 0.20675(15)
C1_4 C 0.41438(12) 0.32208(15) 0.33197(17)
C2_4 C 0.46234(12) 0.43065(14) 0.45374(16)
C3_4 C 0.43546(12) 0.50629(14) 0.41765(17)
C4_4 C 0.42699(11) 0.35340(15) 0.41032(17)
N3_4 N 0.24514(14) 0.40541(16) 0.01203(18)
C5_4 C 0.43632(13) 0.36106(16) 0.28294(18)
C6_4 C 0.52595(12) 0.42683(15) 0.53550(17)
H1_4 H 0.5438 0.3769 0.5604
C7_4 C 0.36542(12) 0.52047(15) 0.33259(17)
N4_4 N 0.32583(15) 0.58877(17) 0.0642(2)
C8_4 C 0.38229(13) 0.24910(16) 0.29866(17)
H2_4 H 0.3732 0.2293 0.2461
C9_4 C 0.3933(2) 0.5152(2) 0.0605(3)
H3_4 H 0.4120 0.4859 0.0398
H6_4 H 0.3242 0.3495 0.0365
C12_4 C 0.37819(19) 0.5695(2) 0.1485(3)
H8_4 H 0.3842 0.5857 0.2001
C13_4 C 0.26624(15) 0.41538(19) 0.0966(2)
H9_4 H 0.3061 0.3954 0.1482
C14_4 C 0.27812(17) 0.7230(2) 0.0137(3)
H10_4 H 0.3197 0.7461 0.0649
C17_4 C 0.17193(17) 0.4749(2) 0.0075(2)
C18_4 C 0.2712(2) 0.6405(2) 0.0387(3)
H15_4 H 0.2701 0.6443 0.0889
C21_4 C 0.3356(2) 0.5546(2) 0.0079(3)
C22_4 C 0.36335(13) 0.20496(16) 0.34047(19)
O5_4 O 0.31379(17) 0.10199(17) 0.23017(18)
C23_4 C 0.40898(14) 0.30824(17) 0.45294(19)
H20_4 H 0.4179 0.3276 0.5055
C24_4 C 0.37799(14) 0.23487(17) 0.4194(2)
H21_4 H 0.3670 0.2056 0.4500
C25_4 C 0.32945(15) 0.12541(19) 0.3016(2)
O7_4 O 0.64802(10) 0.41878(13) 0.71264(13)
O8_4 O 0.67737(9) 0.53155(12) 0.68604(14)
O9_4 O 0.52094(11) 0.58439(13) 0.67615(15)
O10_4 O 0.58721(12) 0.66134(16) 0.79325(15)
C28_4 C 0.58562(12) 0.67792(15) 0.66803(17)
C29_4 C 0.53766(12) 0.56935(14) 0.54626(16)
C30_4 C 0.56454(12) 0.49371(14) 0.58235(17)
C31_4 C 0.57301(11) 0.64660(15) 0.58968(17)
C32_4 C 0.56368(13) 0.63894(16) 0.71706(18)
C33_4 C 0.47405(12) 0.57317(15) 0.46450(17)
H26_4 H 0.4562 0.6231 0.4396
C34_4 C 0.63458(12) 0.47953(15) 0.66741(17)
C35_4 C 0.61771(13) 0.75090(16) 0.70134(17)
H27_4 H 0.6268 0.7707 0.7539
C36_4 C 0.63665(13) 0.79504(16) 0.65953(19)
O11_4 O 0.68621(17) 0.89801(17) 0.76983(18)
C37_4 C 0.59102(14) 0.69176(17) 0.54706(19)
H28_4 H 0.5821 0.6724 0.4945
C38_4 C 0.62201(14) 0.76513(17) 0.5806(2)
H29_4 H 0.6330 0.7944 0.5500
C39_4 C 0.67055(15) 0.87459(19) 0.6984(2)
O12_4 O 0.68115(12) 0.91320(15) 0.65088(17)
C40_4 C 0.25367(19) 0.2284(2) 0.0380(2)
H30_4 H 0.2334 0.2605 0.0575
H31_4 H 0.3006 0.2237 0.0888
C41_4 C 0.2230(2) 0.1466(2) 0.0136(3)
H33_4 H 0.2284 0.1237 0.0648
C43_4 C 0.31491(19) 0.0571(2) 0.0447(2)
H35_4 H 0.3416 0.0544 0.1075
H40_4 H 0.2202 0.7811 0.0360
H42_4 H 0.2705 0.8827 0.0123
H43_4 H 0.1924 0.9418 0.0549
C10_4 C 0.24633(19) 0.2716(2) 0.9620(2)
H4_4 H 0.2666 0.2395 0.9425
H5_4 H 0.1994 0.2763 0.9112
C11_4 C 0.2770(2) 0.3534(2) 0.9864(3)
H7_4 H 0.2716 0.3763 0.9352
H11_4 H 0.2798 0.7189 0.9640
C16_4 C 0.18509(19) 0.4429(2) 0.9553(2)
H13_4 H 0.1584 0.4456 0.8925
H14_4 H 0.1343 0.5044 0.9867
H16_4 H 0.2295 0.6173 0.9877
H19_4 H 0.3076 0.5582 0.9451
N7_4 N 0.27664(12) 0.04301(15) 0.90269(16)
N8_4 N 0.25486(14) 0.09459(16) 0.98797(18)
H32_4 H 0.1758 0.1505 0.9635
C42_4 C 0.23376(15) 0.08462(19) 0.9034(2)
H34_4 H 0.1939 0.1046 0.8518
C44_4 C 0.32807(17) 0.0251(2) 0.9925(2)
N9_4 N 0.07965(15) 0.97554(16) 0.8510(2)
N10_4 N 0.17417(15) 0.91123(17) 0.9358(2)
C45_4 C 0.1067(2) 0.9848(2) 0.9395(3)
C46_4 C 0.12181(19) 0.9305(2) 0.8515(3)
H38_4 H 0.1158 0.9143 0.7999
C47_4 C 0.22188(17) 0.7770(2) 0.9863(3)
H39_4 H 0.1803 0.7539 0.9351
C48_4 C 0.2288(2) 0.8595(2) 0.9613(3)
H41_4 H 0.2299 0.8557 0.9111
C49_4 C 0.1644(2) 0.9454(2) 0.9921(3)
H36_4 H 0.3657 0.9956 0.0133
N5_2 N 0.68301(12) 0.09256(17) 0.72558(19)
C15_3 C 0.62709(18) 0.0826(3) 0.7132(3)
H12_3 H 0.6079 0.0333 0.7061
N6_3 N 0.60152(18) 0.1522(3) 0.7121(3)
C19_3 C 0.6443(3) 0.2116(3) 0.7280(3)
H17_3 H 0.6401 0.2661 0.7322
C20_3 C 0.6938(2) 0.1735(2) 0.7363(3)
H18_3 H 0.7305 0.1987 0.7477
C26_3 C 0.5365(2) 0.1589(4) 0.7651(4)
H22_3 H 0.5596 0.1112 0.8001
H23_3 H 0.5607 0.2047 0.8036
C27_3 C 0.5352(3) 0.1616(5) 0.6893(4)
H24_3 H 0.5061 0.1197 0.6475
H25_3 H 0.5163 0.2121 0.6586
N11_2 N 0.31699(12) 0.09256(17) 0.77442(19)
C50_3 C 0.37291(18) 0.0826(3) 0.7868(3)
H44_3 H 0.3921 0.0333 0.7939
N12_3 N 0.39848(18) 0.1522(3) 0.7879(3)
C51_3 C 0.3557(3) 0.2116(3) 0.7720(3)
H45_3 H 0.3599 0.2661 0.7678
C52_3 C 0.3062(2) 0.1735(2) 0.7637(3)
H46_3 H 0.2695 0.1987 0.7523
C53_3 C 0.4635(2) 0.1589(4) 0.7349(4)
H47_3 H 0.4404 0.1112 0.6999
H48_3 H 0.4393 0.2047 0.6964
C54_3 C 0.4648(3) 0.1616(5) 0.8107(4)
H49_3 H 0.4939 0.1197 0.8525
H50_3 H 0.4837 0.2121 0.8414
N15_3 N 0.81699(12) 0.59256(17) 0.77442(19)
N15_4 N 0.18301(12) 0.59256(17) 0.72558(19)
C15_4 C 0.12709(18) 0.5826(3) 0.7132(3)
H12_4 H 0.1079 0.5333 0.7061
N6_4 N 0.10152(18) 0.6522(3) 0.7121(3)
C19_4 C 0.1443(3) 0.7116(3) 0.7280(3)
H17_4 H 0.1401 0.7661 0.7322
C20_4 C 0.1938(2) 0.6735(2) 0.7363(3)
H18_4 H 0.2305 0.6987 0.7477
C26_4 C 0.0365(2) 0.6589(4) 0.7651(4)
H22_4 H 0.0596 0.6112 0.8001
H23_4 H 0.0607 0.7047 0.8036
C27_4 C 0.0352(3) 0.6616(5) 0.6893(4)
H24_4 H 0.0061 0.6197 0.6475
H25_4 H 0.0163 0.7121 0.6586
C50_4 C 0.87291(18) 0.5826(3) 0.7868(3)
H44_4 H 0.8921 0.5333 0.7939
N12_4 N 0.89848(18) 0.6522(3) 0.7879(3)
C51_4 C 0.8557(3) 0.7116(3) 0.7720(3)
H45_4 H 0.8599 0.7661 0.7678
C52_4 C 0.8062(2) 0.6735(2) 0.7637(3)
H46_4 H 0.7695 0.6987 0.7523
C53_4 C 0.9635(2) 0.6589(4) 0.7349(4)
H47_4 H 0.9404 0.6112 0.6999
H48_4 H 0.9393 0.7047 0.6964
C54_4 C 0.9648(3) 0.6616(5) 0.8107(4)
H49_4 H 0.9939 0.6197 0.8525
H50_4 H 0.9837 0.7121 0.8414
loop_
_geom_bond_atom_site_label_1
_geom_bond_atom_site_label_2
_geom_bond_site_symmetry_1
_geom_bond_site_symmetry_2
O1 C7 1_555 1_555
C3 C7 1_555 1_555
N4 C12 1_555 1_555
C9 N2 1_555 1_555
C12 N2 1_555 1_555
H8 C12 1_555 1_555
C14 H10 1_555 1_555
H11 C14 1_555 1_555
C18 N4 1_555 1_555
H15 C18 1_555 1_555
H16 C18 1_555 1_555
C21 N4 1_555 1_555
H19 C21 1_555 1_555
C33 C3 1_555 1_555
H26 C33 1_555 1_555
N9 C45 1_555 1_555
N10 C46 1_555 1_555
C45 H37 1_555 1_555
C46 N9 1_555 1_555
H38 C46 1_555 1_555
C47 C14 1_555 1_555
H39 C47 1_555 1_555
H40 C47 1_555 1_555
C48 N10 1_555 1_555
H41 C48 1_555 1_555
H42 C48 1_555 1_555
C49 N10 1_555 1_555
H43 C49 1_555 1_555
Zn5 N9 1_555 1_555
C9 C21 1_555 1_555
C14 C18 1_555 1_555
C45 C49 1_555 1_555
C47 C48 1_555 1_555
Zn1 O3 1_555 1_555
Zn2 O2 1_555 1_555
O3 C5 1_555 1_555
O4 C5 1_555 1_555
C1 C4 1_555 1_555
N1 Zn2 1_555 1_555
C4 C2 1_555 1_555
N3 C11 1_555 1_555
C5 C1 1_555 1_555
C8 C1 1_555 1_555
H2 C8 1_555 1_555
N5 Zn2 1_555 1_555
C10 H4 1_555 1_555
H5 C10 1_555 1_555
C11 C10 1_555 1_555
H6 C11 1_555 1_555
H7 C11 1_555 1_555
C13 N1 1_555 1_555
H9 C13 1_555 1_555
C15 N5 1_555 1_555
H12 C15 1_555 1_555
C16 N3 1_555 1_555
H13 C16 1_555 1_555
C17 N1 1_555 1_555
N6 C15 1_555 1_555
C19 N6 1_555 1_555
H17 C19 1_555 1_555
C20 N5 1_555 1_555
H18 C20 1_555 1_555
C22 C8 1_555 1_555
O5 C25 1_555 1_555
C23 C4 1_555 1_555
C24 C22 1_555 1_555
H21 C24 1_555 1_555
C25 C22 1_555 1_555
O6 C25 1_555 1_555
C26 H22 1_555 1_555
H23 C26 1_555 1_555
C27 N6 1_555 1_555
H24 C27 1_555 1_555
H25 C27 1_555 1_555
N7 C42 1_555 1_555
N8 C41 1_555 1_555
C40 C10 1_555 1_555
H30 C40 1_555 1_555
H31 C40 1_555 1_555
C41 C40 1_555 1_555
H32 C41 1_555 1_555
H33 C41 1_555 1_555
C42 N8 1_555 1_555
H34 C42 1_555 1_555
C43 N8 1_555 1_555
H35 C43 1_555 1_555
C44 N7 1_555 1_555
H36 C44 1_555 1_555
N11 C50 1_555 1_555
C50 H44 1_555 1_555
N12 C50 1_555 1_555
C51 N12 1_555 1_555
H45 C51 1_555 1_555
C52 N11 1_555 1_555
H46 C52 1_555 1_555
C53 C26 1_555 1_555
H47 C53 1_555 1_555
H48 C53 1_555 1_555
C54 N12 1_555 1_555
H49 C54 1_555 1_555
H50 C54 1_555 1_555
Zn3 O6 1_555 1_555
Zn6 N11 1_555 1_555
Zn8 N7 1_555 1_555
O13 Zn3 1_555 1_555
N13 Zn3 1_555 1_555
N15 Zn3 1_555 1_555
N3 C13 1_555 1_555
C16 C17 1_555 1_555
C19 C20 1_555 1_555
C23 C24 1_555 1_555
C26 C27 1_555 1_555
C43 C44 1_555 1_555
C51 C52 1_555 1_555
C53 C54 1_555 1_555
O9 C32 1_555 1_555
O10 C32 1_555 1_555
C28 C31 1_555 1_555
C31 C29 1_555 1_555
C32 C28 1_555 1_555
C35 C28 1_555 1_555
H27 C35 1_555 1_555
C36 C35 1_555 1_555
O11 C39 1_555 1_555
C37 C31 1_555 1_555
C38 C36 1_555 1_555
H29 C38 1_555 1_555
C39 C36 1_555 1_555
O12 C39 1_555 1_555
Zn4_2 O9 1_555 1_555
Zn7 O8 1_555 1_555
Zn9 O12 1_555 1_555
C37 C38 1_555 1_555
O14 Zn1_2 1_555 1_555
H1 C6 1_555 1_555
O7 C34 1_555 1_555
C30 C6 1_555 1_555
C34 C30 1_555 1_555
O9_2 C32_2 1_555 1_555
O10_2 C32_2 1_555 1_555
C28_2 C31_2 1_555 1_555
C31_2 C29_2 1_555 1_555
C32_2 C28_2 1_555 1_555
C35_2 C28_2 1_555 1_555
H27_2 C35_2 1_555 1_555
C36_2 C35_2 1_555 1_555
O11_2 C39_2 1_555 1_555
C37_2 C31_2 1_555 1_555
H28_2 C37_2 1_555 1_555
C38_2 C36_2 1_555 1_555
H29_2 C38_2 1_555 1_555
C39_2 C36_2 1_555 1_555
O12_2 C39_2 1_555 1_555
Zn4 O9_2 1_555 1_555
Zn7_2 O8_2 1_555 1_555
Zn8 O12_2 1_555 1_555
C37_2 C38_2 1_555 1_555
H1_2 C6_2 1_555 1_555
O7_2 C34_2 1_555 1_555
C30_2 C6_2 1_555 1_555
C34_2 C30_2 1_555 1_555
O1_2 C7_2 1_555 1_555
C3_2 C7_2 1_555 1_555
N4_2 C12_2 1_555 1_555
C9_2 N14 1_555 1_555
C12_2 N14 1_555 1_555
H8_2 C12_2 1_555 1_555
C14_2 H10_2 1_555 1_555
C18_2 N4_2 1_555 1_555
H15_2 C18_2 1_555 1_555
C21_2 N4_2 1_555 1_555
C33_2 C3_2 1_555 1_555
H26_2 C33_2 1_555 1_555
C9_2 C21_2 1_555 1_555
C14_2 C18_2 1_555 1_555
N9_2 C45_2 1_555 1_555
N10_2 C46_2 1_555 1_555
C45_2 H37_2 1_555 1_555
C46_2 N9_2 1_555 1_555
H38_2 C46_2 1_555 1_555
H39_2 C47_2 1_555 1_555
C48_2 N10_2 1_555 1_555
H41_2 C48_2 1_555 1_555
C49_2 N10_2 1_555 1_555
Zn5 N9_2 1_555 1_555
C45_2 C49_2 1_555 1_555
C47_2 C48_2 1_555 1_555
Zn6 O2_2 1_555 1_555
O14 C5_2 1_555 1_555
O4_2 C5_2 1_555 1_555
C1_2 C4_2 1_555 1_555
N1_2 Zn6 1_555 1_555
C4_2 C2_2 1_555 1_555
C5_2 C1_2 1_555 1_555
C8_2 C1_2 1_555 1_555
H2_2 C8_2 1_555 1_555
C13_2 N1_2 1_555 1_555
H9_2 C13_2 1_555 1_555
C17_2 N1_2 1_555 1_555
C22_2 C8_2 1_555 1_555
O5_2 C25_2 1_555 1_555
C23_2 C4_2 1_555 1_555
H20_2 C23_2 1_555 1_555
C24_2 C22_2 1_555 1_555
H21_2 C24_2 1_555 1_555
C25_2 C22_2 1_555 1_555
O6_2 C25_2 1_555 1_555
H30_2 C40_2 1_555 1_555
H31_2 C40_2 1_555 1_555
C41_2 C40_2 1_555 1_555
H33_2 C41_2 1_555 1_555
H35_2 C43_2 1_555 1_555
Zn3_2 O6_2 1_555 1_555
O13_2 Zn3_2 1_555 1_555
N13_2 Zn3_2 1_555 1_555
N15_2 Zn3_2 1_555 1_555
N3_2 C13_2 1_555 1_555
C23_2 C24_2 1_555 1_555
C10_2 H4_2 1_555 1_555
H5_2 C10_2 1_555 1_555
C11_2 C10_2 1_555 1_555
H7_2 C11_2 1_555 1_555
H13_2 C16_2 1_555 1_555
N7_2 C42_2 1_555 1_555
C42_2 N8_2 1_555 1_555
H34_2 C42_2 1_555 1_555
C44_2 N7_2 1_555 1_555
Zn9 N7_2 1_555 1_555
N15 C50_2 1_555 1_555
C50_2 H44_2 1_555 1_555
N12_2 C50_2 1_555 1_555
C51_2 N12_2 1_555 1_555
H45_2 C51_2 1_555 1_555
C52_2 N15 1_555 1_555
H46_2 C52_2 1_555 1_555
H47_2 C53_2 1_555 1_555
H48_2 C53_2 1_555 1_555
C54_2 N12_2 1_555 1_555
H49_2 C54_2 1_555 1_555
H50_2 C54_2 1_555 1_555
C51_2 C52_2 1_555 1_555
C53_2 C54_2 1_555 1_555
Zn1_3 O3_2 1_555 1_555
O1_3 C7_3 1_555 1_555
O13_2 C7_3 1_555 1_555
O3_2 C5_3 1_555 1_555
O4_3 C5_3 1_555 1_555
C1_3 C4_3 1_555 1_555
C2_3 C3_3 1_555 1_555
C3_3 C7_3 1_555 1_555
C4_3 C2_3 1_555 1_555
N2_2 Zn1_3 1_555 1_555
N3_3 C11_3 1_555 1_555
C5_3 C1_3 1_555 1_555
N4_3 C12_3 1_555 1_555
C8_3 C1_3 1_555 1_555
H2_3 C8_3 1_555 1_555
C9_3 N2_2 1_555 1_555
H3_3 C9_3 1_555 1_555
C10_3 H4_3 1_555 1_555
H5_3 C10_3 1_555 1_555
C11_3 C10_3 1_555 1_555
H6_3 C11_3 1_555 1_555
H7_3 C11_3 1_555 1_555
C12_3 N2_2 1_555 1_555
H8_3 C12_3 1_555 1_555
C13_3 N13_2 1_555 1_555
H9_3 C13_3 1_555 1_555
C14_3 H10_3 1_555 1_555
H11_3 C14_3 1_555 1_555
C15_2 N15_2 1_555 1_555
H12_2 C15_2 1_555 1_555
C16_3 N3_3 1_555 1_555
H13_3 C16_3 1_555 1_555
C17_3 N13_2 1_555 1_555
H14_3 C17_3 1_555 1_555
N6_2 C15_2 1_555 1_555
C18_3 N4_3 1_555 1_555
H15_3 C18_3 1_555 1_555
H16_3 C18_3 1_555 1_555
C19_2 N6_2 1_555 1_555
H17_2 C19_2 1_555 1_555
C20_2 N15_2 1_555 1_555
H18_2 C20_2 1_555 1_555
C21_3 N4_3 1_555 1_555
H19_3 C21_3 1_555 1_555
C22_3 C8_3 1_555 1_555
O5_3 C25_3 1_555 1_555
C23_3 C4_3 1_555 1_555
C24_3 C22_3 1_555 1_555
H21_3 C24_3 1_555 1_555
C25_3 C22_3 1_555 1_555
O15_2 C25_3 1_555 1_555
C26_2 H22_2 1_555 1_555
H23_2 C26_2 1_555 1_555
C27_2 N6_2 1_555 1_555
H24_2 C27_2 1_555 1_555
H25_2 C27_2 1_555 1_555
C33_3 C3_3 1_555 1_555
H26_3 C33_3 1_555 1_555
N7_3 C42_3 1_555 1_555
N8_3 C41_3 1_555 1_555
C40_3 C10_3 1_555 1_555
H30_3 C40_3 1_555 1_555
H31_3 C40_3 1_555 1_555
C41_3 C40_3 1_555 1_555
H32_3 C41_3 1_555 1_555
H33_3 C41_3 1_555 1_555
C42_3 N8_3 1_555 1_555
H34_3 C42_3 1_555 1_555
C43_3 N8_3 1_555 1_555
H35_3 C43_3 1_555 1_555
C44_3 N7_3 1_555 1_555
N9_3 C45_3 1_555 1_555
N10_3 C46_3 1_555 1_555
C46_3 N9_3 1_555 1_555
H38_3 C46_3 1_555 1_555
C47_3 C14_3 1_555 1_555
H39_3 C47_3 1_555 1_555
H40_3 C47_3 1_555 1_555
C48_3 N10_3 1_555 1_555
H41_3 C48_3 1_555 1_555
H42_3 C48_3 1_555 1_555
C49_3 N10_3 1_555 1_555
H43_3 C49_3 1_555 1_555
Zn7 N7_3 1_555 1_555
O14_2 Zn1_3 1_555 1_555
N14_2 Zn1_3 1_555 1_555
N3_3 C13_3 1_555 1_555
C9_3 C21_3 1_555 1_555
C14_3 C18_3 1_555 1_555
C16_3 C17_3 1_555 1_555
C19_2 C20_2 1_555 1_555
C23_3 C24_3 1_555 1_555
C26_2 C27_2 1_555 1_555
C43_3 C44_3 1_555 1_555
C45_3 C49_3 1_555 1_555
C47_3 C48_3 1_555 1_555
H1_3 C6_3 1_555 1_555
O7_3 C34_3 1_555 1_555
O8_3 C34_3 1_555 1_555
O9_3 C32_3 1_555 1_555
O10_3 C32_3 1_555 1_555
C28_3 C31_3 1_555 1_555
C29_3 C30_3 1_555 1_555
C30_3 C6_3 1_555 1_555
C31_3 C29_3 1_555 1_555
C32_3 C28_3 1_555 1_555
C34_3 C30_3 1_555 1_555
C35_3 C28_3 1_555 1_555
H27_3 C35_3 1_555 1_555
C36_3 C35_3 1_555 1_555
O11_3 C39_3 1_555 1_555
C37_3 C31_3 1_555 1_555
C38_3 C36_3 1_555 1_555
H29_3 C38_3 1_555 1_555
C39_3 C36_3 1_555 1_555
O12_3 C39_3 1_555 1_555
Zn5 O9_3 1_555 1_555
Zn8 O8_3 1_555 1_555
C37_3 C38_3 1_555 1_555
O1_4 C7_4 1_555 1_555
O13 C7_4 1_555 1_555
O14_2 C5_4 1_555 1_555
O4_4 C5_4 1_555 1_555
C1_4 C4_4 1_555 1_555
C2_4 C3_4 1_555 1_555
C3_4 C7_4 1_555 1_555
C4_4 C2_4 1_555 1_555
C5_4 C1_4 1_555 1_555
C6_4 C2_4 1_555 1_555
H1_4 C6_4 1_555 1_555
N4_4 C12_4 1_555 1_555
C8_4 C1_4 1_555 1_555
H2_4 C8_4 1_555 1_555
C9_4 N14_2 1_555 1_555
H3_4 C9_4 1_555 1_555
C12_4 N14_2 1_555 1_555
H8_4 C12_4 1_555 1_555
C13_4 N13 1_555 1_555
H9_4 C13_4 1_555 1_555
C14_4 H10_4 1_555 1_555
C17_4 N13 1_555 1_555
C18_4 N4_4 1_555 1_555
H15_4 C18_4 1_555 1_555
C21_4 N4_4 1_555 1_555
C22_4 C8_4 1_555 1_555
O5_4 C25_4 1_555 1_555
C23_4 C4_4 1_555 1_555
H20_4 C23_4 1_555 1_555
C24_4 C22_4 1_555 1_555
H21_4 C24_4 1_555 1_555
C25_4 C22_4 1_555 1_555
O15 C25_4 1_555 1_555
O7_4 C34_4 1_555 1_555
O8_4 C34_4 1_555 1_555
O9_4 C32_4 1_555 1_555
O10_4 C32_4 1_555 1_555
C28_4 C31_4 1_555 1_555
C29_4 C30_4 1_555 1_555
C30_4 C6_4 1_555 1_555
C31_4 C29_4 1_555 1_555
C32_4 C28_4 1_555 1_555
C33_4 C3_4 1_555 1_555
H26_4 C33_4 1_555 1_555
C34_4 C30_4 1_555 1_555
C35_4 C28_4 1_555 1_555
H27_4 C35_4 1_555 1_555
C36_4 C35_4 1_555 1_555
O11_4 C39_4 1_555 1_555
C37_4 C31_4 1_555 1_555
H28_4 C37_4 1_555 1_555
C38_4 C36_4 1_555 1_555
H29_4 C38_4 1_555 1_555
C39_4 C36_4 1_555 1_555
O12_4 C39_4 1_555 1_555
H30_4 C40_4 1_555 1_555
H31_4 C40_4 1_555 1_555
C41_4 C40_4 1_555 1_555
H33_4 C41_4 1_555 1_555
H35_4 C43_4 1_555 1_555
Zn5 O9_4 1_555 1_555
Zn9 O8_4 1_555 1_555
N3_4 C13_4 1_555 1_555
C9_4 C21_4 1_555 1_555
C14_4 C18_4 1_555 1_555
C23_4 C24_4 1_555 1_555
C29_4 C33_4 1_555 1_555
C37_4 C38_4 1_555 1_555
C10_4 H4_4 1_555 1_555
H5_4 C10_4 1_555 1_555
C11_4 C10_4 1_555 1_555
H7_4 C11_4 1_555 1_555
H13_4 C16_4 1_555 1_555
N7_4 C42_4 1_555 1_555
C42_4 N8_4 1_555 1_555
H34_4 C42_4 1_555 1_555
C44_4 N7_4 1_555 1_555
N9_4 C45_4 1_555 1_555
N10_4 C46_4 1_555 1_555
C46_4 N9_4 1_555 1_555
H38_4 C46_4 1_555 1_555
H39_4 C47_4 1_555 1_555
C48_4 N10_4 1_555 1_555
H41_4 C48_4 1_555 1_555
C49_4 N10_4 1_555 1_555
Zn7_2 N7_4 1_555 1_555
C45_4 C49_4 1_555 1_555
C47_4 C48_4 1_555 1_555
N5_2 Zn7 1_555 1_555
C15_3 N5_2 1_555 1_555
H12_3 C15_3 1_555 1_555
N6_3 C15_3 1_555 1_555
C19_3 N6_3 1_555 1_555
H17_3 C19_3 1_555 1_555
C20_3 N5_2 1_555 1_555
H18_3 C20_3 1_555 1_555
C26_3 H22_3 1_555 1_555
H23_3 C26_3 1_555 1_555
C27_3 N6_3 1_555 1_555
H24_3 C27_3 1_555 1_555
H25_3 C27_3 1_555 1_555
N11_2 C50_3 1_555 1_555
C50_3 H44_3 1_555 1_555
N12_3 C50_3 1_555 1_555
C51_3 N12_3 1_555 1_555
H45_3 C51_3 1_555 1_555
C52_3 N11_2 1_555 1_555
H46_3 C52_3 1_555 1_555
C53_3 C26_3 1_555 1_555
H47_3 C53_3 1_555 1_555
H48_3 C53_3 1_555 1_555
C54_3 N12_3 1_555 1_555
H49_3 C54_3 1_555 1_555
H50_3 C54_3 1_555 1_555
Zn7_2 N11_2 1_555 1_555
N15_3 Zn9 1_555 1_555
C19_3 C20_3 1_555 1_555
C26_3 C27_3 1_555 1_555
C51_3 C52_3 1_555 1_555
C53_3 C54_3 1_555 1_555
N15_4 Zn8 1_555 1_555
C15_4 N15_4 1_555 1_555
H12_4 C15_4 1_555 1_555
N6_4 C15_4 1_555 1_555
C19_4 N6_4 1_555 1_555
H17_4 C19_4 1_555 1_555
C20_4 N15_4 1_555 1_555
H18_4 C20_4 1_555 1_555
C26_4 H22_4 1_555 1_555
H23_4 C26_4 1_555 1_555
C27_4 N6_4 1_555 1_555
H24_4 C27_4 1_555 1_555
H25_4 C27_4 1_555 1_555
C19_4 C20_4 1_555 1_555
C26_4 C27_4 1_555 1_555
N15_3 C50_4 1_555 1_555
C50_4 H44_4 1_555 1_555
N12_4 C50_4 1_555 1_555
C51_4 N12_4 1_555 1_555
H45_4 C51_4 1_555 1_555
C52_4 N15_3 1_555 1_555
H46_4 C52_4 1_555 1_555
H47_4 C53_4 1_555 1_555
H48_4 C53_4 1_555 1_555
C54_4 N12_4 1_555 1_555
H49_4 C54_4 1_555 1_555
H50_4 C54_4 1_555 1_555
C51_4 C52_4 1_555 1_555
C53_4 C54_4 1_555 1_555

#END
