
###############################################################################
#
# This file contains modified crystal structure data generated from the
# MOF subset of the Cambridge Structural Database (CSD) v543 
# hosted by the Cambridge Crystallographic Data Centre (CCDC).
#
# This work is licensed under the Creative Commons
# Attribution-NonCommercial-ShareAlike 4.0 International License.
# To view a copy of this license, visit
# http://creativecommons.org/licenses/by-nc-sa/4.0/
# or send a letter to
# Creative Commons, PO Box 1866, Mountain View, CA 94042, USA.
#
# CIF created using the CSD Python API on 29 September 2022
# The structure has been converted into the P1 space group
# The structure has a 3D framework
# The original CSD entry AMURUX11 is in the trigonal crystal system
# The framework has been calculated to contain at least 10.0% void space
# The void calculation uses a probe of radius 1.32A, grid spacing 0.4
# The framework is charged, counterions have been retained in the structure
#
###############################################################################

data_AMURUX11
_chemical_formula_moiety         '(C12 H12 Mg13 O24 4-)n'
_symmetry_cell_setting           triclinic
_symmetry_space_group_name_H-M   'P 1'
_symmetry_Int_Tables_number      1
_space_group_name_Hall           'P 1'
loop_
_symmetry_equiv_pos_site_id
_symmetry_equiv_pos_as_xyz
1 x,y,z
_cell_length_a                   8.4982(3)
_cell_length_b                   8.4982(3)
_cell_length_c                   13.6708(5)
_cell_angle_alpha                90
_cell_angle_beta                 90
_cell_angle_gamma                120
_cell_volume                     855.024
loop_
_atom_site_label
_atom_site_type_symbol
_atom_site_fract_x
_atom_site_fract_y
_atom_site_fract_z
Mg1 Mg 0.0000 0.0000 0.0000
O1 O 0.20625(15) 0.20687(15) 0.08171(9)
C1 C 0.3253(2) 0.2046(2) 0.13021(12)
O2 O 0.46871(15) 0.33222(15) 0.15949(9)
H1 H 0.3044 0.0898 0.1474
Mg2 Mg 0.6667 0.3333 0.2500
O13 O 0.46871(15) 0.13649(21) 0.34051(9)
O14 O 0.66778(15) 0.13649(21) 0.15949(9)
O15 O 0.86351(21) 0.53129(15) 0.15949(9)
O16 O 0.66778(15) 0.53129(15) 0.34051(9)
O17 O 0.86351(21) 0.33222(15) 0.34051(9)
Mg1_2 Mg 0.0000 0.0000 1.0000
O6 O 0.20687(15) 0.00062(21) 0.91829(9)
C6 C 0.1207(3) 0.3253(2) 0.86979(12)
O12 O 0.13649(21) 0.46871(15) 0.84051(9)
H6 H 0.2146 0.3044 0.8526
Mg7 Mg 0.3333 0.6667 0.7500
Mg1_3 Mg 0.0000 1.0000 1.0000
C5 C 0.2046(2) 0.8793(3) 0.86979(12)
O11 O 0.33222(15) 0.86351(21) 0.84051(9)
H5 H 0.0898 0.7854 0.8526
Mg1_4 Mg 1.0000 0.0000 0.0000
C2 C 0.7954(2) 0.1207(3) 0.13021(12)
H2 H 0.9102 0.2146 0.1474
Mg1_5 Mg 1.0000 1.0000 0.0000
O3 O 0.79313(15) 0.99938(21) 0.08171(9)
C3 C 0.8793(3) 0.6747(2) 0.13021(12)
H3 H 0.7854 0.6956 0.1474
Mg1_6 Mg 1.0000 1.0000 1.0000
O5 O 0.79375(15) 0.79313(15) 0.91829(9)
C4 C 0.6747(2) 0.7954(2) 0.86979(12)
O10 O 0.53129(15) 0.66778(15) 0.84051(9)
H4 H 0.6956 0.9102 0.8526
Mg1_7 Mg 0.0000 0.0000 0.5000
O3_2 O 0.00062(21) 0.20687(15) 0.41829(9)
O5_2 O 0.20687(15) 0.20625(15) 0.58171(9)
C3_2 C 0.3253(2) 0.1207(3) 0.36979(12)
C4_2 C 0.2046(2) 0.3253(2) 0.63021(12)
H3_2 H 0.3044 0.2146 0.3526
O10_2 O 0.33222(15) 0.46871(15) 0.65949(9)
H4_2 H 0.0898 0.3044 0.6474
Mg1_8 Mg -0.0000 1.0000 0.5000
O4 O 0.20625(15) 0.99938(21) 0.41829(9)
C5_2 C 0.1207(3) 0.7954(2) 0.63021(12)
O11_2 O 0.13649(21) 0.66778(15) 0.65949(9)
H5_2 H 0.2146 0.9102 0.6474
Mg1_9 Mg 1.0000 0.0000 0.5000
O7 O 0.79375(15) 0.00062(21) 0.58171(9)
C2_2 C 0.8793(3) 0.2046(2) 0.36979(12)
H2_2 H 0.7854 0.0898 0.3526
Mg1_10 Mg 1.0000 1.0000 0.5000
O1_2 O 0.79313(15) 0.79375(15) 0.41829(9)
C1_2 C 0.7954(2) 0.6747(2) 0.36979(12)
H1_2 H 0.9102 0.6956 0.3526
O6_2 O 0.99938(21) 0.79313(15) 0.58171(9)
C6_2 C 0.6747(2) 0.8793(3) 0.63021(12)
O12_2 O 0.53129(15) 0.86351(21) 0.65949(9)
H6_2 H 0.6956 0.7854 0.6474
Mg1_11 Mg 0.0000 1.0000 0.0000
O4_2 O 0.00062(21) 0.79375(15) 0.08171(9)
Mg1_12 Mg 1.0000 0.0000 1.0000
O7_2 O 0.99938(21) 0.20625(15) 0.91829(9)
loop_
_geom_bond_atom_site_label_1
_geom_bond_atom_site_label_2
_geom_bond_site_symmetry_1
_geom_bond_site_symmetry_2
Mg1 O1 1_555 1_555
O1 C1 1_555 1_555
C1 O2 1_555 1_555
O2 Mg2 1_555 1_555
H1 C1 1_555 1_555
Mg2 O13 1_555 1_555
O14 Mg2 1_555 1_555
O15 Mg2 1_555 1_555
O16 Mg2 1_555 1_555
O17 Mg2 1_555 1_555
O6 Mg1_2 1_555 1_555
O12 C6 1_555 1_555
H6 C6 1_555 1_555
Mg7 O12 1_555 1_555
O11 C5 1_555 1_555
H5 C5 1_555 1_555
Mg7 O11 1_555 1_555
O14 C2 1_555 1_555
H2 C2 1_555 1_555
O3 Mg1_5 1_555 1_555
O15 C3 1_555 1_555
H3 C3 1_555 1_555
O5 Mg1_6 1_555 1_555
C4 O5 1_555 1_555
O10 C4 1_555 1_555
H4 C4 1_555 1_555
Mg7 O10 1_555 1_555
O3_2 Mg1_7 1_555 1_555
O5_2 Mg1_7 1_555 1_555
C4_2 O5_2 1_555 1_555
O13 C3_2 1_555 1_555
H3_2 C3_2 1_555 1_555
O10_2 C4_2 1_555 1_555
H4_2 C4_2 1_555 1_555
Mg7 O10_2 1_555 1_555
O4 Mg1_8 1_555 1_555
O11_2 C5_2 1_555 1_555
H5_2 C5_2 1_555 1_555
Mg7 O11_2 1_555 1_555
O7 Mg1_9 1_555 1_555
O17 C2_2 1_555 1_555
H2_2 C2_2 1_555 1_555
Mg1_10 O1_2 1_555 1_555
O1_2 C1_2 1_555 1_555
C1_2 O16 1_555 1_555
H1_2 C1_2 1_555 1_555
O6_2 Mg1_10 1_555 1_555
O12_2 C6_2 1_555 1_555
H6_2 C6_2 1_555 1_555
Mg7 O12_2 1_555 1_555
O4_2 Mg1_11 1_555 1_555
O7_2 Mg1_12 1_555 1_555

#END
