
###############################################################################
#
# This file contains modified crystal structure data generated from the
# MOF subset of the Cambridge Structural Database (CSD) v543 
# hosted by the Cambridge Crystallographic Data Centre (CCDC).
#
# This work is licensed under the Creative Commons
# Attribution-NonCommercial-ShareAlike 4.0 International License.
# To view a copy of this license, visit
# http://creativecommons.org/licenses/by-nc-sa/4.0/
# or send a letter to
# Creative Commons, PO Box 1866, Mountain View, CA 94042, USA.
#
# CIF created using the CSD Python API on 29 September 2022
# The structure has been converted into the P1 space group
# The structure has a 3D framework
# The original CSD entry AMUVAI is in the rhombohedral crystal system
# The framework has been calculated to contain at least 10.0% void space
# The void calculation uses a probe of radius 1.32A, grid spacing 0.4
# The framework is charged, counterions have been retained in the structure
# H atom positions have been added when not included in the experimental data
# Generated hydrogen atom positions removed from atoms on special positions
#
###############################################################################

data_AMUVAI
_chemical_formula_moiety         '(C900 H1224 Cl18 Cu54 N72 O180 18+)n'
_symmetry_cell_setting           triclinic
_symmetry_space_group_name_H-M   'P 1'
_symmetry_Int_Tables_number      1
_space_group_name_Hall           'P 1'
loop_
_symmetry_equiv_pos_site_id
_symmetry_equiv_pos_as_xyz
1 x,y,z
_cell_length_a                   38.907(3)
_cell_length_b                   38.907(3)
_cell_length_c                   44.043(3)
_cell_angle_alpha                90
_cell_angle_beta                 90
_cell_angle_gamma                120
_cell_volume                     57738.2
loop_
_atom_site_label
_atom_site_type_symbol
_atom_site_fract_x
_atom_site_fract_y
_atom_site_fract_z
Cu1 Cu 0.49380(2) 0.50620(2) 0.57993(2)
Cu2 Cu 0.17555(2) 0.35110(3) 0.38912(2)
Cu3 Cu 0.14943(2) 0.29886(4) 0.43279(2)
Cl1 Cl 0.52126(3) 0.47874(3) 0.54410(4)
C1 C 0.27162(19) 0.3948(2) 0.44743(16)
H1 H 0.290919 0.398180 0.432055
H2 H 0.274124 0.420470 0.451445
C2 C 0.2784(2) 0.3799(2) 0.47348(15)
H3 H 0.274763 0.353853 0.469009
H4 H 0.258431 0.376315 0.488297
C3 C 0.31861(15) 0.40457(19) 0.48773(16)
C4 C 0.32686(17) 0.38748(19) 0.51175(17)
H5 H 0.307118 0.362975 0.518875
C5 C 0.36221(19) 0.4048(2) 0.52521(18)
H6 H 0.367211 0.390615 0.539809
C6 C 0.39186(16) 0.44300(18) 0.51850(14)
C7 C 0.38414(16) 0.46064(18) 0.49473(12)
H7 H 0.403892 0.485569 0.488353
C8 C 0.34786(16) 0.4427(2) 0.47971(13)
H8 H 0.343159 0.456247 0.464334
C9 C 0.43136(14) 0.46299(19) 0.53329(14)
H9 H 0.437824 0.442705 0.538659
H10 H 0.450624 0.479953 0.518258
C10 C 0.4510(3) 0.5490(3) 0.5383(3)
H11 H 0.460420 0.539578 0.521647
H12 H 0.437708 0.562292 0.530043
C11 C 0.42496(18) 0.51710(17) 0.55665(18)
H13 H 0.398771 0.504378 0.547508
H14 H 0.423068 0.527204 0.576342
C12 C 0.40635(19) 0.4616(2) 0.58673(18)
H15 H 0.403002 0.479010 0.600660
H16 H 0.380786 0.444022 0.577525
C13 C 0.4189(2) 0.4393(2) 0.6027(2)
H17 H 0.409704 0.414627 0.591662
H18 H 0.405032 0.432458 0.621996
C14 C 0.4676(3) 0.4706(3) 0.6392(2)
H19 H 0.457720 0.489013 0.639633
H20 H 0.451561 0.448695 0.652813
C15 C 0.5094(2) 0.4906(2) 0.6488(4)
H21 H 0.510862 0.489140 0.670738
H22 H 0.522522 0.477475 0.639843
C16 C 0.47572(19) 0.42632(19) 0.60514(16)
H23 H 0.503825 0.437391 0.609131
H24 H 0.471351 0.418937 0.583863
C17 C 0.45338(18) 0.38941(18) 0.62371(14)
C18 C 0.46501(18) 0.38566(18) 0.65135(18)
H25 H 0.486654 0.407916 0.659692
C19 C 0.4480(2) 0.35225(19) 0.66825(18)
H26 H 0.458069 0.352222 0.687397
C20 C 0.41561(18) 0.31794(17) 0.65719(14)
C21 C 0.4036(2) 0.32139(16) 0.62885(14)
H27 H 0.381412 0.299498 0.620703
C22 C 0.4224(2) 0.35538(19) 0.61154(13)
H28 H 0.414236 0.355339 0.591697
C23 C 0.39376(16) 0.28083(14) 0.67390(12)
H29 H 0.366609 0.275352 0.675425
H30 H 0.393152 0.260270 0.661062
C24 C 0.40432(17) 0.27518(14) 0.70214(12)
H31 H 0.404335 0.295251 0.715221
H32 H 0.431590 0.280975 0.700838
C25 C 0.38155(19) 0.23648(24) 0.71823(13)
C26 C 0.2278(2) 0.3644(3) 0.4357(2)
N1 N 0.43720(12) 0.48752(13) 0.56093(10)
N2 N 0.46593(14) 0.45671(15) 0.61009(11)
O1 O 0.22470(10) 0.37906(14) 0.41146(11)
O2 O 0.20344(13) 0.33457(18) 0.44981(10)
O3 O 0.39473(12) 0.23330(16) 0.74225(8)
O4 O 0.34989(13) 0.21035(17) 0.70482(8)
O5 O 0.12850(13) 0.2570(3) 0.47005(13)
O6 O 0.19585(8) 0.39171(15) 0.35036(10)
C27 C 0.6052(2) 0.72838(19) 0.44743(16)
H33 H 0.601820 0.709081 0.432055
H34 H 0.579530 0.725876 0.451445
C28 C 0.6201(2) 0.7216(2) 0.47348(15)
H35 H 0.646147 0.725237 0.469009
H36 H 0.623685 0.741569 0.488297
C29 C 0.59543(19) 0.68139(15) 0.48773(16)
C30 C 0.61252(19) 0.67314(17) 0.51175(17)
H37 H 0.637025 0.692882 0.518875
C31 C 0.5952(2) 0.63779(19) 0.52521(18)
H38 H 0.609385 0.632789 0.539809
C32 C 0.55700(18) 0.60814(16) 0.51850(14)
C33 C 0.53936(18) 0.61586(16) 0.49473(12)
H39 H 0.514431 0.596108 0.488353
C34 C 0.5573(2) 0.65214(16) 0.47971(13)
H40 H 0.543753 0.656841 0.464334
C35 C 0.53701(19) 0.56864(14) 0.53329(14)
H41 H 0.557295 0.562176 0.538659
H42 H 0.520047 0.549376 0.518258
C36 C 0.48290(17) 0.57504(18) 0.55665(18)
H43 H 0.495622 0.601229 0.547508
H44 H 0.472796 0.576932 0.576342
C37 C 0.5384(2) 0.59365(19) 0.58673(18)
H45 H 0.520990 0.596998 0.600660
H46 H 0.555978 0.619214 0.577525
C38 C 0.5607(2) 0.5811(2) 0.6027(2)
H47 H 0.585373 0.590296 0.591662
H48 H 0.567542 0.594968 0.621996
C39 C 0.5294(3) 0.5324(3) 0.6392(2)
H49 H 0.510987 0.542280 0.639633
H50 H 0.551305 0.548439 0.652813
C40 C 0.57368(19) 0.52428(19) 0.60514(16)
H51 H 0.562609 0.496175 0.609131
H52 H 0.581063 0.528649 0.583863
C41 C 0.61059(18) 0.54662(18) 0.62371(14)
C42 C 0.61434(18) 0.53499(18) 0.65135(18)
H53 H 0.592084 0.513346 0.659692
C43 C 0.64775(19) 0.5520(2) 0.66825(18)
H54 H 0.647778 0.541931 0.687397
C44 C 0.68206(17) 0.58439(18) 0.65719(14)
C45 C 0.67861(16) 0.5964(2) 0.62885(14)
H55 H 0.700502 0.618588 0.620703
C46 C 0.64462(19) 0.5776(2) 0.61154(13)
H56 H 0.644661 0.585764 0.591697
C47 C 0.71917(14) 0.60624(16) 0.67390(12)
H57 H 0.724648 0.633391 0.675425
H58 H 0.739730 0.606848 0.661062
C48 C 0.72482(14) 0.59568(17) 0.70214(12)
H59 H 0.704749 0.595665 0.715221
H60 H 0.719025 0.568410 0.700838
C49 C 0.76352(24) 0.61845(19) 0.71823(13)
C50 C 0.6356(3) 0.7722(2) 0.4357(2)
N3 N 0.51248(13) 0.56280(12) 0.56093(10)
N4 N 0.54329(15) 0.53407(14) 0.61009(11)
O7 O 0.62094(14) 0.77530(10) 0.41146(11)
O8 O 0.66543(18) 0.79656(13) 0.44981(10)
O9 O 0.76670(16) 0.60527(12) 0.74225(8)
O10 O 0.78965(17) 0.65011(13) 0.70482(8)
Cu4 Cu 0.64890(3) 0.82445(4) 0.38912(2)
Cu5 Cu 0.84222(2) 0.68443(3) 0.72245(2)
Cu6 Cu 0.31557(3) 0.15778(4) 0.72245(2)
Cu7 Cu 0.70114(4) 0.85057(4) 0.43279(2)
Cu8 Cu 0.81610(2) 0.63219(4) 0.76612(2)
Cu9 Cu 0.36781(4) 0.18390(4) 0.76612(2)
O11 O 0.15436(17) 0.37906(14) 0.41146(11)
O12 O 0.13113(22) 0.33457(18) 0.44981(10)
O13 O 0.17190(20) 0.27194(12) 0.40892(8)
O14 O 0.10003(16) 0.27194(12) 0.40892(8)
O15 O 0.19379(21) 0.31678(13) 0.37149(8)
O16 O 0.12298(17) 0.31678(13) 0.37149(8)
Cl1_2 Cl 0.52126(3) 0.04252(4) 0.54410(4)
H20_2 H 0.551305 0.002866 0.652813
C15_2 C 0.5094(2) 0.0188(3) 0.6488(4)
H21_2 H 0.510860 0.021722 0.670738
H22_2 H 0.522525 0.045047 0.639843
C16_2 C 0.57368(19) 0.04940(27) 0.60514(16)
H23_2 H 0.562609 0.066434 0.609131
H24_2 H 0.581063 0.052414 0.583863
C17_2 C 0.61059(18) 0.06397(25) 0.62371(14)
C18_2 C 0.61434(18) 0.07935(25) 0.65135(18)
H25_2 H 0.592084 0.078738 0.659692
C19_2 C 0.64775(19) 0.09575(28) 0.66825(18)
H26_2 H 0.647778 0.105847 0.687397
C20_2 C 0.68206(17) 0.09767(25) 0.65719(14)
C21_2 C 0.67861(16) 0.08221(26) 0.62885(14)
H27_2 H 0.700502 0.081914 0.620703
C22_2 C 0.64462(19) 0.06702(28) 0.61154(13)
H28_2 H 0.644661 0.058897 0.591697
C23_2 C 0.71917(14) 0.11293(21) 0.67390(12)
H29_2 H 0.724648 0.091257 0.675425
H30_2 H 0.739730 0.132882 0.661062
C24_2 C 0.72482(14) 0.12914(22) 0.70214(12)
H31_2 H 0.704749 0.109084 0.715221
H32_2 H 0.719025 0.150615 0.700838
C25_2 C 0.76352(24) 0.14507(31) 0.71823(13)
N2_2 N 0.54329(15) 0.00922(21) 0.61009(11)
O3_2 O 0.76670(16) 0.16143(20) 0.74225(8)
O4_2 O 0.78965(17) 0.13954(21) 0.70482(8)
H50_2 H 0.451561 0.002866 0.652813
C40_2 C 0.47572(19) 0.04940(27) 0.60514(16)
H51_2 H 0.503825 0.066434 0.609131
H52_2 H 0.471351 0.052414 0.583863
C41_2 C 0.45338(18) 0.06397(25) 0.62371(14)
C42_2 C 0.46501(18) 0.07935(25) 0.65135(18)
H53_2 H 0.486654 0.078738 0.659692
C43_2 C 0.4480(2) 0.09575(28) 0.66825(18)
H54_2 H 0.458069 0.105847 0.687397
C44_2 C 0.41561(18) 0.09767(25) 0.65719(14)
C45_2 C 0.4036(2) 0.08221(26) 0.62885(14)
H55_2 H 0.381412 0.081914 0.620703
C46_2 C 0.4224(2) 0.06702(28) 0.61154(13)
H56_2 H 0.414236 0.058897 0.591697
C47_2 C 0.39376(16) 0.11293(21) 0.67390(12)
H57_2 H 0.366609 0.091257 0.675425
H58_2 H 0.393152 0.132882 0.661062
C48_2 C 0.40432(17) 0.12914(22) 0.70214(12)
H59_2 H 0.404335 0.109084 0.715221
H60_2 H 0.431590 0.150615 0.700838
C49_2 C 0.38155(19) 0.14507(31) 0.71823(13)
N4_2 N 0.46593(14) 0.00922(21) 0.61009(11)
O9_2 O 0.39473(12) 0.16143(20) 0.74225(8)
O10_2 O 0.34989(13) 0.13954(21) 0.70482(8)
Cu6_2 Cu 0.84222(4) 0.15778(5) 0.72245(2)
Cu9_2 Cu 0.81610(4) 0.18390(6) 0.76612(2)
Cu1_2 Cu 0.49380(2) 0.98760(3) 0.57993(2)
C1_2 C 0.6052(2) 0.87682(28) 0.44743(16)
H1_2 H 0.601820 0.892739 0.432055
H2_2 H 0.579530 0.853654 0.451445
C2_2 C 0.6201(2) 0.8985(3) 0.47348(15)
H3_2 H 0.646147 0.920910 0.469009
H4_2 H 0.623685 0.882116 0.488297
C3_2 C 0.59543(19) 0.91404(24) 0.48773(16)
C4_2 C 0.61252(19) 0.93938(25) 0.51175(17)
H5_2 H 0.637025 0.944143 0.518875
C5_2 C 0.5952(2) 0.95741(28) 0.52521(18)
H6_2 H 0.609385 0.976596 0.539809
C6_2 C 0.55700(18) 0.94886(24) 0.51850(14)
C7_2 C 0.53936(18) 0.92350(24) 0.49473(12)
H7_2 H 0.514431 0.918323 0.488353
C8_2 C 0.5573(2) 0.90516(26) 0.47971(13)
H8_2 H 0.543753 0.886912 0.464334
C9_2 C 0.53701(19) 0.96837(24) 0.53329(14)
H9_2 H 0.557295 0.995119 0.538659
H10_2 H 0.520047 0.970671 0.518258
C10_2 C 0.4510(3) 0.9020(4) 0.5383(3)
H11_2 H 0.460422 0.920842 0.521647
H12_2 H 0.437708 0.875416 0.530043
C11_2 C 0.48290(17) 0.90786(25) 0.55665(18)
H13_2 H 0.495622 0.894393 0.547508
H14_2 H 0.472796 0.895864 0.576342
C12_2 C 0.5384(2) 0.94475(28) 0.58673(18)
H15_2 H 0.520990 0.923992 0.600660
H16_2 H 0.555978 0.936764 0.577525
C13_2 C 0.5607(2) 0.9796(3) 0.6027(2)
H17_2 H 0.585373 0.995077 0.591662
H18_2 H 0.567542 0.972574 0.621996
C14_2 C 0.5294(3) 0.9970(4) 0.6392(2)
H19_2 H 0.510987 0.968707 0.639633
C26_2 C 0.6356(3) 0.8634(4) 0.4357(2)
N1_2 N 0.51248(13) 0.94968(18) 0.56093(10)
O1_2 O 0.62094(14) 0.84564(17) 0.41146(11)
O2_2 O 0.66543(18) 0.86887(22) 0.44981(10)
O5_2 O 0.7430(3) 0.87150(33) 0.47005(13)
O6_2 O 0.60829(15) 0.80414(17) 0.35036(10)
C27_2 C 0.27162(19) 0.87682(28) 0.44743(16)
H33_2 H 0.290919 0.892739 0.432055
H34_2 H 0.274124 0.853654 0.451445
C28_2 C 0.2784(2) 0.8985(3) 0.47348(15)
H35_2 H 0.274763 0.920910 0.469009
H36_2 H 0.258431 0.882116 0.488297
C29_2 C 0.31861(15) 0.91404(24) 0.48773(16)
C30_2 C 0.32686(17) 0.93938(25) 0.51175(17)
H37_2 H 0.307118 0.944143 0.518875
C31_2 C 0.36221(19) 0.95741(28) 0.52521(18)
H38_2 H 0.367211 0.976596 0.539809
C32_2 C 0.39186(16) 0.94886(24) 0.51850(14)
C33_2 C 0.38414(16) 0.92350(24) 0.49473(12)
H39_2 H 0.403892 0.918323 0.488353
C34_2 C 0.34786(16) 0.90516(26) 0.47971(13)
H40_2 H 0.343159 0.886912 0.464334
C35_2 C 0.43136(14) 0.96837(24) 0.53329(14)
H41_2 H 0.437824 0.995119 0.538659
H42_2 H 0.450624 0.970671 0.518258
C36_2 C 0.42496(18) 0.90786(25) 0.55665(18)
H43_2 H 0.398771 0.894393 0.547508
H44_2 H 0.423068 0.895864 0.576342
C37_2 C 0.40635(19) 0.94475(28) 0.58673(18)
H45_2 H 0.403002 0.923992 0.600660
H46_2 H 0.380786 0.936764 0.577525
C38_2 C 0.4189(2) 0.9796(3) 0.6027(2)
H47_2 H 0.409704 0.995077 0.591662
H48_2 H 0.405032 0.972574 0.621996
C39_2 C 0.4676(3) 0.9970(4) 0.6392(2)
H49_2 H 0.457720 0.968707 0.639633
C50_2 C 0.2278(2) 0.8634(4) 0.4357(2)
N3_2 N 0.43720(12) 0.94968(18) 0.56093(10)
O7_2 O 0.22470(10) 0.84564(17) 0.41146(11)
O8_2 O 0.20344(13) 0.86887(22) 0.44981(10)
Cu4_2 Cu 0.17555(4) 0.82445(5) 0.38912(2)
Cu7_2 Cu 0.14943(4) 0.85057(6) 0.43279(2)
O13_2 O 0.72806(12) 0.89997(23) 0.40892(8)
O14_2 O 0.72806(12) 0.82810(20) 0.40892(8)
O15_2 O 0.68322(13) 0.87702(25) 0.37149(8)
O16_2 O 0.68322(13) 0.80621(21) 0.37149(8)
Cu1_3 Cu 0.01240(3) 0.50620(2) 0.57993(2)
C1_3 C 0.12318(28) 0.72838(19) 0.44743(16)
H1_3 H 0.107261 0.709081 0.432055
H2_3 H 0.146346 0.725876 0.451445
C2_3 C 0.1015(3) 0.7216(2) 0.47348(15)
H3_3 H 0.079090 0.725237 0.469009
H4_3 H 0.117884 0.741569 0.488297
C3_3 C 0.08596(24) 0.68139(15) 0.48773(16)
C4_3 C 0.06062(25) 0.67314(17) 0.51175(17)
H5_3 H 0.055857 0.692882 0.518875
C5_3 C 0.04259(28) 0.63779(19) 0.52521(18)
H6_3 H 0.023404 0.632789 0.539809
C6_3 C 0.05114(24) 0.60814(16) 0.51850(14)
C7_3 C 0.07650(24) 0.61586(16) 0.49473(12)
H7_3 H 0.081677 0.596108 0.488353
C8_3 C 0.09484(26) 0.65214(16) 0.47971(13)
H8_3 H 0.113088 0.656841 0.464334
C9_3 C 0.03163(24) 0.56864(14) 0.53329(14)
H9_3 H 0.004881 0.562176 0.538659
H10_3 H 0.029329 0.549376 0.518258
C10_3 C 0.0980(4) 0.5490(3) 0.5383(3)
H11_3 H 0.079158 0.539580 0.521647
H12_3 H 0.124584 0.562292 0.530043
C11_3 C 0.09214(25) 0.57504(18) 0.55665(18)
H13_3 H 0.105607 0.601229 0.547508
H14_3 H 0.104136 0.576932 0.576342
C12_3 C 0.05525(28) 0.59365(19) 0.58673(18)
H15_3 H 0.076008 0.596998 0.600660
H16_3 H 0.063236 0.619214 0.577525
C13_3 C 0.0204(3) 0.5811(2) 0.6027(2)
H17_3 H 0.004923 0.590296 0.591662
H18_3 H 0.027426 0.594968 0.621996
C14_3 C 0.0030(4) 0.5324(3) 0.6392(2)
H19_3 H 0.031293 0.542280 0.639633
C26_3 C 0.1366(4) 0.7722(2) 0.4357(2)
N1_3 N 0.05032(18) 0.56280(12) 0.56093(10)
O1_3 O 0.15436(17) 0.77530(10) 0.41146(11)
O2_3 O 0.13113(22) 0.79656(13) 0.44981(10)
O5_3 O 0.12850(33) 0.87150(13) 0.47005(13)
O6_3 O 0.19586(17) 0.80415(8) 0.35036(10)
C27_3 C 0.12318(28) 0.3948(2) 0.44743(16)
H33_3 H 0.107261 0.398180 0.432055
H34_3 H 0.146346 0.420470 0.451445
C28_3 C 0.1015(3) 0.3799(2) 0.47348(15)
H35_3 H 0.079090 0.353853 0.469009
H36_3 H 0.117884 0.376315 0.488297
C29_3 C 0.08596(24) 0.40457(19) 0.48773(16)
C30_3 C 0.06062(25) 0.38748(19) 0.51175(17)
H37_3 H 0.055857 0.362975 0.518875
C31_3 C 0.04259(28) 0.4048(2) 0.52521(18)
H38_3 H 0.023404 0.390615 0.539809
C32_3 C 0.05114(24) 0.44300(18) 0.51850(14)
C33_3 C 0.07650(24) 0.46064(18) 0.49473(12)
H39_3 H 0.081677 0.485569 0.488353
C34_3 C 0.09484(26) 0.4427(2) 0.47971(13)
H40_3 H 0.113088 0.456247 0.464334
C35_3 C 0.03163(24) 0.46299(19) 0.53329(14)
H41_3 H 0.004881 0.442705 0.538659
H42_3 H 0.029329 0.479953 0.518258
C36_3 C 0.09214(25) 0.51710(17) 0.55665(18)
H43_3 H 0.105607 0.504378 0.547508
H44_3 H 0.104136 0.527204 0.576342
C37_3 C 0.05525(28) 0.4616(2) 0.58673(18)
H45_3 H 0.076008 0.479010 0.600660
H46_3 H 0.063236 0.444022 0.577525
C38_3 C 0.0204(3) 0.4393(2) 0.6027(2)
H47_3 H 0.004923 0.414627 0.591662
H48_3 H 0.027426 0.432458 0.621996
C39_3 C 0.0030(4) 0.4706(3) 0.6392(2)
H49_3 H 0.031293 0.489013 0.639633
C50_3 C 0.1366(4) 0.3644(3) 0.4357(2)
N3_3 N 0.05032(18) 0.48752(13) 0.56093(10)
O13_3 O 0.10003(23) 0.82810(20) 0.40892(8)
O14_3 O 0.17190(20) 0.89997(16) 0.40892(8)
O15_3 O 0.12298(25) 0.80621(21) 0.37149(8)
O16_3 O 0.19379(21) 0.87702(17) 0.37149(8)
Cl1_3 Cl 0.95748(4) 0.47874(3) 0.54410(4)
H20_3 H 0.997134 0.548439 0.652813
C15_3 C 0.9812(3) 0.4906(2) 0.6488(4)
H21_3 H 0.978278 0.489138 0.670738
H22_3 H 0.954953 0.477478 0.639843
C16_3 C 0.95060(27) 0.52428(19) 0.60514(16)
H23_3 H 0.933566 0.496175 0.609131
H24_3 H 0.947586 0.528649 0.583863
C17_3 C 0.93603(25) 0.54662(18) 0.62371(14)
C18_3 C 0.92065(25) 0.53499(18) 0.65135(18)
H25_3 H 0.921262 0.513346 0.659692
C19_3 C 0.90425(28) 0.5520(2) 0.66825(18)
H26_3 H 0.894153 0.541931 0.687397
C20_3 C 0.90233(25) 0.58439(18) 0.65719(14)
C21_3 C 0.91779(26) 0.5964(2) 0.62885(14)
H27_3 H 0.918086 0.618588 0.620703
C22_3 C 0.93298(28) 0.5776(2) 0.61154(13)
H28_3 H 0.941103 0.585764 0.591697
C23_3 C 0.88707(21) 0.60624(16) 0.67390(12)
H29_3 H 0.908743 0.633391 0.675425
H30_3 H 0.867118 0.606848 0.661062
C24_3 C 0.87086(22) 0.59568(17) 0.70214(12)
H31_3 H 0.890916 0.595665 0.715221
H32_3 H 0.849385 0.568410 0.700838
C25_3 C 0.85493(31) 0.61845(19) 0.71823(13)
N2_3 N 0.99078(21) 0.53407(14) 0.61009(11)
O3_3 O 0.83857(20) 0.60527(12) 0.74225(8)
O4_3 O 0.86046(21) 0.65011(13) 0.70482(8)
H50_3 H 0.997134 0.448695 0.652813
C40_3 C 0.95060(27) 0.42632(19) 0.60514(16)
H51_3 H 0.933566 0.437391 0.609131
H52_3 H 0.947586 0.418937 0.583863
C41_3 C 0.93603(25) 0.38941(18) 0.62371(14)
C42_3 C 0.92065(25) 0.38566(18) 0.65135(18)
H53_3 H 0.921262 0.407916 0.659692
C43_3 C 0.90425(28) 0.35225(19) 0.66825(18)
H54_3 H 0.894153 0.352222 0.687397
C44_3 C 0.90233(25) 0.31794(17) 0.65719(14)
C45_3 C 0.91779(26) 0.32139(16) 0.62885(14)
H55_3 H 0.918086 0.299498 0.620703
C46_3 C 0.93298(28) 0.35538(19) 0.61154(13)
H56_3 H 0.941103 0.355339 0.591697
C47_3 C 0.88707(21) 0.28083(14) 0.67390(12)
H57_3 H 0.908743 0.275352 0.675425
H58_3 H 0.867118 0.260270 0.661062
C48_3 C 0.87086(22) 0.27518(14) 0.70214(12)
H59_3 H 0.890916 0.295251 0.715221
H60_3 H 0.849385 0.280975 0.700838
C49_3 C 0.85493(31) 0.23648(24) 0.71823(13)
N4_3 N 0.99078(21) 0.45671(15) 0.61009(11)
O9_3 O 0.83857(20) 0.23330(16) 0.74225(8)
O10_3 O 0.86046(21) 0.21035(17) 0.70482(8)
Cu5_2 Cu 0.50888(2) 0.01777(3) 0.05579(2)
C27_4 C 0.2719(2) 0.06171(19) 0.78076(16)
H33_4 H 0.268487 0.042414 0.765388
H34_4 H 0.246197 0.059209 0.784778
C28_4 C 0.2868(2) 0.0549(2) 0.80681(15)
H35_4 H 0.312814 0.058570 0.802342
H36_4 H 0.290352 0.074902 0.821630
C29_4 C 0.26210(19) 0.01472(15) 0.82106(16)
C30_4 C 0.27919(19) 0.00647(17) 0.84508(17)
H37_4 H 0.303692 0.026215 0.852208
C50_4 C 0.3023(3) 0.1055(2) 0.7690(2)
O7_3 O 0.28761(14) 0.10863(10) 0.74479(11)
O8_3 O 0.33210(18) 0.12989(13) 0.78314(10)
H21_4 H 0.177529 0.822473 0.004071
C19_4 C 0.1147(2) 0.68558(19) 0.00158(18)
H26_4 H 0.124736 0.685555 0.020730
C23_4 C 0.06043(16) 0.61416(14) 0.00723(12)
H29_4 H 0.033276 0.608685 0.008758
C24_4 C 0.07099(17) 0.60851(14) 0.03547(12)
H31_4 H 0.071002 0.628584 0.048554
H32_4 H 0.098257 0.614308 0.034171
C25_4 C 0.04822(19) 0.56981(24) 0.05156(13)
O3_4 O 0.06140(12) 0.56663(16) 0.07558(8)
O4_4 O 0.01656(13) 0.54368(17) 0.03815(8)
C43_4 C 0.31442(19) 0.8853(2) 0.00158(18)
H54_4 H 0.314445 0.875264 0.020730
C47_4 C 0.38584(14) 0.93957(16) 0.00723(12)
H57_4 H 0.391315 0.966724 0.008758
C48_4 C 0.39149(14) 0.92901(17) 0.03547(12)
H59_4 H 0.371416 0.928998 0.048554
H60_4 H 0.385692 0.901743 0.034171
C49_4 C 0.43019(24) 0.95178(19) 0.05156(13)
O9_4 O 0.43337(16) 0.93860(12) 0.07558(8)
O10_4 O 0.45632(17) 0.98344(13) 0.03815(8)
Cu8_2 Cu 0.48276(2) 0.96553(4) 0.09946(2)
Cu9_3 Cu 0.03447(4) 0.51724(4) 0.09946(2)
Cu6_3 Cu 0.98223(3) 0.49112(4) 0.05579(2)
C1_4 C 0.93829(19) 0.7281(2) 0.78076(16)
H1_4 H 0.957586 0.731513 0.765388
H2_4 H 0.940791 0.753803 0.784778
C2_4 C 0.9451(2) 0.7132(2) 0.80681(15)
H3_4 H 0.941430 0.687186 0.802342
H4_4 H 0.925098 0.709648 0.821630
C3_4 C 0.98528(15) 0.73790(19) 0.82106(16)
C4_4 C 0.99353(17) 0.72081(19) 0.84508(17)
H5_4 H 0.973785 0.696308 0.852208
C26_4 C 0.8945(2) 0.6977(3) 0.7690(2)
O1_4 O 0.89137(10) 0.71239(14) 0.74479(11)
O2_4 O 0.87011(13) 0.66790(18) 0.78314(10)
O5_4 O 0.79517(13) 0.5903(3) 0.80338(13)
O6_4 O 0.86252(8) 0.72504(15) 0.68369(10)
O11_2 O 0.82103(17) 0.71239(14) 0.74479(11)
O12_2 O 0.79780(22) 0.66790(18) 0.78314(10)
H21_5 H 0.177527 0.355055 0.004071
C19_5 C 0.31442(19) 0.42908(28) 0.00158(18)
H26_5 H 0.314445 0.439180 0.020730
C23_5 C 0.38584(14) 0.44626(21) 0.00723(12)
H29_5 H 0.391315 0.424590 0.008758
C24_5 C 0.39149(14) 0.46247(22) 0.03547(12)
H31_5 H 0.371416 0.442417 0.048554
H32_5 H 0.385692 0.483948 0.034171
C25_5 C 0.43019(24) 0.47840(31) 0.05156(13)
O3_5 O 0.43337(16) 0.49476(20) 0.07558(8)
O4_5 O 0.45632(17) 0.47287(21) 0.03815(8)
C43_5 C 0.1147(2) 0.42908(28) 0.00158(18)
H54_5 H 0.124736 0.439180 0.020730
C47_5 C 0.06043(16) 0.44626(21) 0.00723(12)
H57_5 H 0.033276 0.424590 0.008758
C48_5 C 0.07099(17) 0.46247(22) 0.03547(12)
H59_5 H 0.071002 0.442417 0.048554
H60_5 H 0.098257 0.483948 0.034171
C49_5 C 0.04822(19) 0.47840(31) 0.05156(13)
O9_5 O 0.06140(12) 0.49476(20) 0.07558(8)
O10_5 O 0.01656(13) 0.47287(21) 0.03815(8)
Cu6_4 Cu 0.50888(4) 0.49112(5) 0.05579(2)
Cu9_4 Cu 0.48276(4) 0.51724(6) 0.09946(2)
Cu1_4 Cu 0.16047(2) 0.32093(3) 0.91326(2)
Cl1_4 Cl 0.18793(3) 0.37585(4) 0.87743(4)
C1_5 C 0.2719(2) 0.21015(28) 0.78076(16)
H1_5 H 0.268487 0.226072 0.765388
H2_5 H 0.246197 0.186987 0.784778
C2_5 C 0.2868(2) 0.2318(3) 0.80681(15)
H3_5 H 0.312814 0.254243 0.802342
H4_5 H 0.290352 0.215449 0.821630
C3_5 C 0.26210(19) 0.24737(24) 0.82106(16)
C4_5 C 0.27919(19) 0.27271(25) 0.84508(17)
H5_5 H 0.303692 0.277476 0.852208
C5_4 C 0.2619(2) 0.29074(28) 0.85854(18)
H6_4 H 0.276052 0.309929 0.873142
C6_4 C 0.22367(18) 0.28219(24) 0.85183(14)
C7_4 C 0.20603(18) 0.25683(24) 0.82806(12)
H7_4 H 0.181098 0.251656 0.821686
C8_4 C 0.2240(2) 0.23849(26) 0.81304(13)
H8_4 H 0.210420 0.220245 0.797667
C9_4 C 0.20368(19) 0.30170(24) 0.86662(14)
H9_4 H 0.223962 0.328452 0.871992
H10_4 H 0.186714 0.304004 0.851591
C10_4 C 0.1177(3) 0.2353(4) 0.8716(3)
H11_4 H 0.127089 0.254175 0.854980
H12_4 H 0.104375 0.208749 0.863376
C11_4 C 0.14957(17) 0.24119(25) 0.88998(18)
H13_4 H 0.162289 0.227726 0.880841
H14_4 H 0.139463 0.229197 0.909675
C12_4 C 0.2051(2) 0.27808(28) 0.92006(18)
H15_4 H 0.187657 0.257325 0.933993
H16_4 H 0.222645 0.270097 0.910858
C13_4 C 0.2274(2) 0.3129(3) 0.9360(2)
H17_4 H 0.252040 0.328410 0.924995
H18_4 H 0.234209 0.305907 0.955329
C14_4 C 0.1961(3) 0.3303(4) 0.9725(2)
H19_4 H 0.177654 0.302040 0.972966
H20_4 H 0.217972 0.336199 0.986146
C15_4 C 0.1761(2) 0.3521(3) 0.9821(4)
H22_4 H 0.189192 0.378380 0.973176
C16_4 C 0.24035(19) 0.38273(27) 0.93847(16)
H23_4 H 0.229276 0.399767 0.942464
H24_4 H 0.247730 0.385747 0.917196
C17_4 C 0.27726(18) 0.39730(25) 0.95704(14)
C18_4 C 0.28101(18) 0.41268(25) 0.98468(18)
H25_4 H 0.258751 0.412071 0.993025
C20_4 C 0.34873(17) 0.43100(25) 0.99052(14)
C21_4 C 0.34528(16) 0.41554(26) 0.96218(14)
H27_4 H 0.367169 0.415247 0.954036
C22_4 C 0.31129(19) 0.40035(28) 0.94487(13)
H28_4 H 0.311328 0.392230 0.925030
H30_4 H 0.406397 0.466215 0.994395
C26_5 C 0.3023(3) 0.1967(4) 0.7690(2)
N1_4 N 0.17915(13) 0.28301(18) 0.89426(10)
N2_4 N 0.20996(15) 0.34255(21) 0.94342(11)
O1_5 O 0.28761(14) 0.17897(17) 0.74479(11)
O2_5 O 0.33210(18) 0.20220(22) 0.78314(10)
O5_5 O 0.4097(3) 0.20483(33) 0.80338(13)
O6_5 O 0.27496(15) 0.13747(17) 0.68369(10)
C31_4 C 0.02888(19) 0.29074(28) 0.85854(18)
H38_4 H 0.033878 0.309929 0.873142
C32_4 C 0.05853(16) 0.28219(24) 0.85183(14)
C33_4 C 0.05081(16) 0.25683(24) 0.82806(12)
H39_4 H 0.070559 0.251656 0.821686
C34_4 C 0.01453(16) 0.23849(26) 0.81304(13)
H40_4 H 0.009826 0.220245 0.797667
C35_4 C 0.09803(14) 0.30170(24) 0.86662(14)
H41_4 H 0.104491 0.328452 0.871992
H42_4 H 0.117291 0.304004 0.851591
C36_4 C 0.09163(18) 0.24119(25) 0.88998(18)
H43_4 H 0.065438 0.227726 0.880841
H44_4 H 0.089735 0.229197 0.909675
C37_4 C 0.07302(19) 0.27808(28) 0.92006(18)
H45_4 H 0.069669 0.257325 0.933993
H46_4 H 0.047453 0.270097 0.910858
C38_4 C 0.0856(2) 0.3129(3) 0.9360(2)
H47_4 H 0.076371 0.328410 0.924995
H48_4 H 0.071699 0.305907 0.955329
C39_4 C 0.1343(3) 0.3303(4) 0.9725(2)
H49_4 H 0.124387 0.302040 0.972966
H50_4 H 0.118228 0.336199 0.986146
C40_4 C 0.14239(19) 0.38273(27) 0.93847(16)
H51_4 H 0.170492 0.399767 0.942464
H52_4 H 0.138018 0.385747 0.917196
C41_4 C 0.12005(18) 0.39730(25) 0.95704(14)
C42_4 C 0.13168(18) 0.41268(25) 0.98468(18)
H53_4 H 0.153321 0.412071 0.993025
C44_4 C 0.08228(18) 0.43100(25) 0.99052(14)
C45_4 C 0.0703(2) 0.41554(26) 0.96218(14)
H55_4 H 0.048079 0.415247 0.954036
C46_4 C 0.0891(2) 0.40035(28) 0.94487(13)
H56_4 H 0.080903 0.392230 0.925030
H58_4 H 0.059819 0.466215 0.994395
N3_4 N 0.10387(12) 0.28301(18) 0.89426(10)
N4_4 N 0.13260(14) 0.34255(21) 0.94342(11)
C27_5 C 0.93829(19) 0.21015(28) 0.78076(16)
H33_5 H 0.957586 0.226072 0.765388
H34_5 H 0.940791 0.186987 0.784778
C28_5 C 0.9451(2) 0.2318(3) 0.80681(15)
H35_5 H 0.941430 0.254243 0.802342
H36_5 H 0.925098 0.215449 0.821630
C29_5 C 0.98528(15) 0.24737(24) 0.82106(16)
C30_5 C 0.99353(17) 0.27271(25) 0.84508(17)
H37_5 H 0.973785 0.277476 0.852208
C50_5 C 0.8945(2) 0.1967(4) 0.7690(2)
O7_4 O 0.89137(10) 0.17897(17) 0.74479(11)
O8_4 O 0.87011(13) 0.20220(22) 0.78314(10)
C1_6 C 0.78985(28) 0.06171(19) 0.78076(16)
H1_6 H 0.773928 0.042414 0.765388
H2_6 H 0.813013 0.059209 0.784778
C2_6 C 0.7682(3) 0.0549(2) 0.80681(15)
H3_6 H 0.745757 0.058570 0.802342
H4_6 H 0.784551 0.074902 0.821630
C3_6 C 0.75263(24) 0.01472(15) 0.82106(16)
C4_6 C 0.72729(25) 0.00647(17) 0.84508(17)
H5_6 H 0.722524 0.026215 0.852208
C26_6 C 0.8033(4) 0.1055(2) 0.7690(2)
O1_6 O 0.82103(17) 0.10863(10) 0.74479(11)
O2_6 O 0.79780(22) 0.12989(13) 0.78314(10)
O5_6 O 0.79517(33) 0.20483(13) 0.80338(13)
O6_6 O 0.86253(17) 0.13748(8) 0.68369(10)
H21_6 H 0.644945 0.822471 0.004071
C19_6 C 0.57092(28) 0.8853(2) 0.00158(18)
H26_6 H 0.560820 0.875264 0.020730
C23_6 C 0.55374(21) 0.93957(16) 0.00723(12)
H29_6 H 0.575410 0.966724 0.008758
C24_6 C 0.53753(22) 0.92901(17) 0.03547(12)
H31_6 H 0.557583 0.928998 0.048554
H32_6 H 0.516052 0.901743 0.034171
C25_6 C 0.52160(31) 0.95178(19) 0.05156(13)
O3_6 O 0.50524(20) 0.93860(12) 0.07558(8)
O4_6 O 0.52713(21) 0.98344(13) 0.03815(8)
C43_6 C 0.57092(28) 0.68558(19) 0.00158(18)
H54_6 H 0.560820 0.685555 0.020730
C47_6 C 0.55374(21) 0.61416(14) 0.00723(12)
H57_6 H 0.575410 0.608685 0.008758
C48_6 C 0.53753(22) 0.60851(14) 0.03547(12)
H59_6 H 0.557583 0.628584 0.048554
H60_6 H 0.516052 0.614308 0.034171
C49_6 C 0.52160(31) 0.56981(24) 0.05156(13)
O9_6 O 0.50524(20) 0.56663(16) 0.07558(8)
O10_6 O 0.52713(21) 0.54368(17) 0.03815(8)
Cu1_5 Cu 0.67907(3) 0.83953(2) 0.91326(2)
Cl1_5 Cl 0.62415(4) 0.81207(3) 0.87743(4)
C5_5 C 0.70926(28) 0.97112(19) 0.85854(18)
H6_5 H 0.690071 0.966122 0.873142
C6_5 C 0.71781(24) 0.94147(16) 0.85183(14)
C7_5 C 0.74317(24) 0.94919(16) 0.82806(12)
H7_5 H 0.748344 0.929441 0.821686
C8_5 C 0.76151(26) 0.98547(16) 0.81304(13)
H8_5 H 0.779755 0.990174 0.797667
C9_5 C 0.69830(24) 0.90197(14) 0.86662(14)
H9_5 H 0.671548 0.895509 0.871992
H10_5 H 0.695996 0.882709 0.851591
C10_5 C 0.7647(4) 0.8823(3) 0.8716(3)
H11_5 H 0.745825 0.872913 0.854980
H12_5 H 0.791251 0.895625 0.863376
C11_5 C 0.75881(25) 0.90837(18) 0.88998(18)
H13_5 H 0.772274 0.934562 0.880841
H14_5 H 0.770803 0.910265 0.909675
C12_5 C 0.72192(28) 0.92698(19) 0.92006(18)
H15_5 H 0.742675 0.930331 0.933993
H16_5 H 0.729903 0.952547 0.910858
C13_5 C 0.6871(3) 0.9144(2) 0.9360(2)
H17_5 H 0.671590 0.923629 0.924995
H18_5 H 0.694093 0.928301 0.955329
C14_5 C 0.6697(4) 0.8657(3) 0.9725(2)
H19_5 H 0.697960 0.875613 0.972966
H20_5 H 0.663801 0.881772 0.986146
C15_5 C 0.6479(3) 0.8239(2) 0.9821(4)
H22_5 H 0.621620 0.810811 0.973176
C16_5 C 0.61727(27) 0.85761(19) 0.93847(16)
H23_5 H 0.600233 0.829508 0.942464
H24_5 H 0.614253 0.861982 0.917196
C17_5 C 0.60270(25) 0.87995(18) 0.95704(14)
C18_5 C 0.58732(25) 0.86832(18) 0.98468(18)
H25_5 H 0.587929 0.846679 0.993025
C20_5 C 0.56900(25) 0.91772(18) 0.99052(14)
C21_5 C 0.58446(26) 0.9297(2) 0.96218(14)
H27_5 H 0.584753 0.951921 0.954036
C22_5 C 0.59965(28) 0.9109(2) 0.94487(13)
H28_5 H 0.607770 0.919097 0.925030
H30_5 H 0.533785 0.940181 0.994395
N1_5 N 0.71699(18) 0.89613(12) 0.89426(10)
N2_5 N 0.65745(21) 0.86740(14) 0.94342(11)
C27_6 C 0.78985(28) 0.7281(2) 0.78076(16)
H33_6 H 0.773928 0.731513 0.765388
H34_6 H 0.813013 0.753803 0.784778
C28_6 C 0.7682(3) 0.7132(2) 0.80681(15)
H35_6 H 0.745757 0.687186 0.802342
H36_6 H 0.784551 0.709648 0.821630
C29_6 C 0.75263(24) 0.73790(19) 0.82106(16)
C30_6 C 0.72729(25) 0.72081(19) 0.84508(17)
H37_6 H 0.722524 0.696308 0.852208
C31_5 C 0.70926(28) 0.7381(2) 0.85854(18)
H38_5 H 0.690071 0.723948 0.873142
C32_5 C 0.71781(24) 0.77633(18) 0.85183(14)
C33_5 C 0.74317(24) 0.79397(18) 0.82806(12)
H39_5 H 0.748344 0.818902 0.821686
C34_5 C 0.76151(26) 0.7760(2) 0.81304(13)
H40_5 H 0.779755 0.789580 0.797667
C35_5 C 0.69830(24) 0.79632(19) 0.86662(14)
H41_5 H 0.671548 0.776038 0.871992
H42_5 H 0.695996 0.813286 0.851591
C36_5 C 0.75881(25) 0.85043(17) 0.88998(18)
H43_5 H 0.772274 0.837711 0.880841
H44_5 H 0.770803 0.860537 0.909675
C37_5 C 0.72192(28) 0.7949(2) 0.92006(18)
H45_5 H 0.742675 0.812343 0.933993
H46_5 H 0.729903 0.777355 0.910858
C38_5 C 0.6871(3) 0.7726(2) 0.9360(2)
H47_5 H 0.671590 0.747960 0.924995
H48_5 H 0.694093 0.765791 0.955329
C39_5 C 0.6697(4) 0.8039(3) 0.9725(2)
H49_5 H 0.697960 0.822346 0.972966
H50_5 H 0.663801 0.782028 0.986146
C40_5 C 0.61727(27) 0.75965(19) 0.93847(16)
H51_5 H 0.600233 0.770724 0.942464
H52_5 H 0.614253 0.752270 0.917196
C41_5 C 0.60270(25) 0.72274(18) 0.95704(14)
C42_5 C 0.58732(25) 0.71899(18) 0.98468(18)
H53_5 H 0.587929 0.741249 0.993025
C44_5 C 0.56900(25) 0.65127(17) 0.99052(14)
C45_5 C 0.58446(26) 0.65472(16) 0.96218(14)
H55_5 H 0.584753 0.632831 0.954036
C46_5 C 0.59965(28) 0.68871(19) 0.94487(13)
H56_5 H 0.607770 0.688672 0.925030
H58_5 H 0.533785 0.593603 0.994395
C50_6 C 0.8033(4) 0.6977(3) 0.7690(2)
N3_5 N 0.71699(18) 0.82085(13) 0.89426(10)
N4_5 N 0.65745(21) 0.79004(15) 0.94342(11)
C44_6 C 0.01539(17) 0.25106(18) 0.32386(14)
C45_6 C 0.01194(16) 0.2631(2) 0.29552(14)
H55_6 H 0.033835 0.285255 0.287370
C47_7 C 0.05250(14) 0.27291(16) 0.34057(12)
H57_7 H 0.057981 0.300058 0.342092
H58_6 H 0.073063 0.273515 0.327729
C48_7 C 0.05815(14) 0.26235(17) 0.36881(12)
H59_7 H 0.038082 0.262332 0.381888
H60_7 H 0.052358 0.235077 0.367505
C49_7 C 0.09685(24) 0.28512(19) 0.38490(13)
Cu1_6 Cu 0.82713(2) 0.17287(2) 0.24660(2)
Cl1_6 Cl 0.85459(3) 0.14541(3) 0.21077(4)
C1_7 C 0.60495(19) 0.0615(2) 0.11410(16)
H1_7 H 0.624252 0.064847 0.098722
H2_7 H 0.607457 0.087137 0.118112
C2_7 C 0.6117(2) 0.0466(2) 0.14015(15)
H3_7 H 0.608096 0.020520 0.135676
H4_7 H 0.591764 0.042982 0.154964
C3_7 C 0.65194(15) 0.07124(19) 0.15440(16)
C4_7 C 0.66019(17) 0.05415(19) 0.17842(17)
H5_7 H 0.640451 0.029642 0.185542
C5_6 C 0.69554(19) 0.0715(2) 0.19188(18)
H6_6 H 0.700544 0.057282 0.206476
C6_6 C 0.72519(16) 0.10967(18) 0.18517(14)
C7_6 C 0.71747(16) 0.12731(18) 0.16140(12)
H7_6 H 0.737225 0.152236 0.155020
C8_6 C 0.68119(16) 0.1094(2) 0.14638(13)
H8_6 H 0.676492 0.122914 0.131001
C9_6 C 0.76469(14) 0.12966(19) 0.19996(14)
H9_6 H 0.771157 0.109372 0.205326
H10_6 H 0.783957 0.146620 0.184925
C10_6 C 0.7843(3) 0.2157(3) 0.2050(3)
H11_6 H 0.793753 0.206245 0.188314
H12_6 H 0.771041 0.228959 0.196710
C11_6 C 0.75829(18) 0.18377(17) 0.22332(18)
H13_6 H 0.732104 0.171045 0.214175
H14_6 H 0.756401 0.193871 0.243009
C12_6 C 0.73968(19) 0.1283(2) 0.25340(18)
H15_6 H 0.736335 0.145677 0.267327
H16_6 H 0.714119 0.110689 0.244192
C13_6 C 0.7522(2) 0.1060(2) 0.2694(2)
H17_6 H 0.743037 0.081294 0.258329
H18_6 H 0.738365 0.099125 0.288663
C14_6 C 0.8009(3) 0.1373(3) 0.3059(2)
H19_6 H 0.791053 0.155680 0.306300
H20_6 H 0.784894 0.115362 0.319480
C15_6 C 0.8427(2) 0.1573(2) 0.3155(4)
H21_7 H 0.844195 0.155807 0.337405
H22_6 H 0.855855 0.144142 0.306510
C16_6 C 0.80905(19) 0.09299(19) 0.27181(16)
H23_6 H 0.837158 0.104058 0.275798
H24_6 H 0.804684 0.085604 0.250530
C17_6 C 0.78671(18) 0.05608(18) 0.29038(14)
C18_6 C 0.79834(18) 0.05233(18) 0.31802(18)
H25_6 H 0.819987 0.074583 0.326359
C19_7 C 0.7813(2) 0.01892(19) 0.33492(18)
H26_7 H 0.791402 0.018889 0.354064
C22_6 C 0.7557(2) 0.02205(19) 0.27821(13)
H28_6 H 0.747569 0.022006 0.258364
C26_7 C 0.5611(2) 0.0311(3) 0.1024(2)
N1_6 N 0.77053(12) 0.15419(13) 0.22760(10)
N2_6 N 0.79926(14) 0.12338(15) 0.27676(11)
O1_7 O 0.55803(10) 0.04573(14) 0.07813(11)
O2_7 O 0.53677(13) 0.00124(18) 0.11648(10)
O6_7 O 0.52918(8) 0.05838(15) 0.01703(10)
C27_7 C 0.9385(2) 0.39505(19) 0.11410(16)
H33_7 H 0.935153 0.375748 0.098722
H34_7 H 0.912863 0.392543 0.118112
C28_7 C 0.9534(2) 0.3883(2) 0.14015(15)
H35_7 H 0.979480 0.391904 0.135676
H36_7 H 0.957018 0.408236 0.154964
C29_7 C 0.92876(19) 0.34806(15) 0.15440(16)
C30_7 C 0.94585(19) 0.33981(17) 0.17842(17)
H37_7 H 0.970358 0.359549 0.185542
C31_6 C 0.9285(2) 0.30446(19) 0.19188(18)
H38_6 H 0.942718 0.299456 0.206476
C32_6 C 0.89033(18) 0.27481(16) 0.18517(14)
C33_6 C 0.87269(18) 0.28253(16) 0.16140(12)
H39_6 H 0.847764 0.262775 0.155020
C34_6 C 0.8906(2) 0.31881(16) 0.14638(13)
H40_6 H 0.877086 0.323508 0.131001
C35_6 C 0.87034(19) 0.23531(14) 0.19996(14)
H41_6 H 0.890628 0.228843 0.205326
H42_6 H 0.853380 0.216043 0.184925
C36_6 C 0.81623(17) 0.24171(18) 0.22332(18)
H43_6 H 0.828955 0.267896 0.214175
H44_6 H 0.806129 0.243599 0.243009
C37_6 C 0.8717(2) 0.26032(19) 0.25340(18)
H45_6 H 0.854323 0.263665 0.267327
H46_6 H 0.889311 0.285881 0.244192
C38_6 C 0.8940(2) 0.2478(2) 0.2694(2)
H47_6 H 0.918706 0.256963 0.258329
H48_6 H 0.900875 0.261635 0.288663
C39_6 C 0.8627(3) 0.1991(3) 0.3059(2)
H49_6 H 0.844320 0.208947 0.306300
H50_6 H 0.884638 0.215106 0.319480
C40_6 C 0.90701(19) 0.19095(19) 0.27181(16)
H51_6 H 0.895942 0.162842 0.275798
H52_6 H 0.914396 0.195316 0.250530
C41_6 C 0.94392(18) 0.21329(18) 0.29038(14)
C42_6 C 0.94767(18) 0.20166(18) 0.31802(18)
H53_6 H 0.925417 0.180013 0.326359
C43_7 C 0.98108(19) 0.2187(2) 0.33492(18)
H54_7 H 0.981111 0.208598 0.354064
C46_6 C 0.97795(19) 0.2443(2) 0.27821(13)
H56_6 H 0.977994 0.252431 0.258364
C50_7 C 0.9689(3) 0.4389(2) 0.1024(2)
N3_6 N 0.84581(13) 0.22947(12) 0.22760(10)
N4_6 N 0.87662(15) 0.20074(14) 0.27676(11)
O7_5 O 0.95427(14) 0.44197(10) 0.07813(11)
O8_5 O 0.99876(18) 0.46323(13) 0.11648(10)
O11_3 O 0.48769(17) 0.04573(14) 0.07813(11)
O12_3 O 0.46446(22) 0.00124(18) 0.11648(10)
C20_6 C 0.74894(18) 0.98461(17) 0.32386(14)
C21_6 C 0.7369(2) 0.98806(16) 0.29552(14)
H27_6 H 0.714745 0.966165 0.287370
C23_7 C 0.72709(16) 0.94750(14) 0.34057(12)
H29_7 H 0.699942 0.942019 0.342092
H30_6 H 0.726485 0.926937 0.327729
C24_7 C 0.73765(17) 0.94185(14) 0.36881(12)
H31_7 H 0.737668 0.961918 0.381888
H32_7 H 0.764923 0.947642 0.367505
C25_7 C 0.71488(19) 0.90315(24) 0.38490(13)
O5_7 O 0.46183(13) 0.9237(3) 0.13672(13)
C20_7 C 0.01539(17) 0.76434(25) 0.32386(14)
C21_7 C 0.01194(16) 0.74888(26) 0.29552(14)
H27_7 H 0.033835 0.748581 0.287370
C23_8 C 0.05250(14) 0.77960(21) 0.34057(12)
H29_8 H 0.057981 0.757924 0.342092
H30_7 H 0.073063 0.799549 0.327729
C24_8 C 0.05815(14) 0.79581(22) 0.36881(12)
H31_8 H 0.038082 0.775751 0.381888
H32_8 H 0.052358 0.817282 0.367505
C25_8 C 0.09685(24) 0.81174(31) 0.38490(13)
O5_8 O 0.0763(3) 0.53817(33) 0.13672(13)
Cu1_7 Cu 0.82713(2) 0.65427(3) 0.24660(2)
Cl1_7 Cl 0.85459(3) 0.70919(4) 0.21077(4)
C1_8 C 0.9385(2) 0.54349(28) 0.11410(16)
H1_8 H 0.935153 0.559406 0.098722
H2_8 H 0.912863 0.520321 0.118112
C2_8 C 0.9534(2) 0.5652(3) 0.14015(15)
H3_8 H 0.979480 0.587577 0.135676
H4_8 H 0.957018 0.548783 0.154964
C3_8 C 0.92876(19) 0.58071(24) 0.15440(16)
C4_8 C 0.94585(19) 0.60605(25) 0.17842(17)
H5_8 H 0.970358 0.610810 0.185542
C5_7 C 0.9285(2) 0.62408(28) 0.19188(18)
H6_7 H 0.942718 0.643263 0.206476
C6_7 C 0.89033(18) 0.61553(24) 0.18517(14)
C7_7 C 0.87269(18) 0.59017(24) 0.16140(12)
H7_7 H 0.847764 0.584990 0.155020
C8_7 C 0.8906(2) 0.57183(26) 0.14638(13)
H8_7 H 0.877086 0.553579 0.131001
C9_7 C 0.87034(19) 0.63504(24) 0.19996(14)
H9_7 H 0.890628 0.661786 0.205326
H10_7 H 0.853380 0.637338 0.184925
C10_7 C 0.7843(3) 0.5687(4) 0.2050(3)
H11_7 H 0.793755 0.587509 0.188314
H12_7 H 0.771041 0.542083 0.196710
C11_7 C 0.81623(17) 0.57453(25) 0.22332(18)
H13_7 H 0.828955 0.561060 0.214175
H14_7 H 0.806129 0.562531 0.243009
C12_7 C 0.8717(2) 0.61142(28) 0.25340(18)
H15_7 H 0.854323 0.590659 0.267327
H16_7 H 0.889311 0.603431 0.244192
C13_7 C 0.8940(2) 0.6463(3) 0.2694(2)
H17_7 H 0.918706 0.661744 0.258329
H18_7 H 0.900875 0.639241 0.288663
C14_7 C 0.8627(3) 0.6637(4) 0.3059(2)
H19_7 H 0.844320 0.635374 0.306300
H20_7 H 0.884638 0.669533 0.319480
C15_7 C 0.8427(2) 0.6855(3) 0.3155(4)
H21_8 H 0.844193 0.688389 0.337405
H22_7 H 0.855858 0.711714 0.306510
C16_7 C 0.90701(19) 0.71607(27) 0.27181(16)
H23_7 H 0.895942 0.733101 0.275798
H24_7 H 0.914396 0.719081 0.250530
C17_7 C 0.94392(18) 0.73064(25) 0.29038(14)
C18_7 C 0.94767(18) 0.74602(25) 0.31802(18)
H25_7 H 0.925417 0.745405 0.326359
C19_8 C 0.98108(19) 0.76242(28) 0.33492(18)
H26_8 H 0.981111 0.772514 0.354064
C22_7 C 0.97795(19) 0.73369(28) 0.27821(13)
H28_7 H 0.977994 0.725564 0.258364
C26_8 C 0.9689(3) 0.5301(4) 0.1024(2)
N1_7 N 0.84581(13) 0.61635(18) 0.22760(10)
N2_7 N 0.87662(15) 0.67589(21) 0.27676(11)
O1_8 O 0.95427(14) 0.51231(17) 0.07813(11)
O2_8 O 0.99876(18) 0.53554(22) 0.11648(10)
O6_8 O 0.94162(15) 0.47081(17) 0.01703(10)
C27_8 C 0.60495(19) 0.54349(28) 0.11410(16)
H33_8 H 0.624252 0.559406 0.098722
H34_8 H 0.607457 0.520321 0.118112
C28_8 C 0.6117(2) 0.5652(3) 0.14015(15)
H35_8 H 0.608096 0.587577 0.135676
H36_8 H 0.591764 0.548783 0.154964
C29_8 C 0.65194(15) 0.58071(24) 0.15440(16)
C30_8 C 0.66019(17) 0.60605(25) 0.17842(17)
H37_8 H 0.640451 0.610810 0.185542
C31_7 C 0.69554(19) 0.62408(28) 0.19188(18)
H38_7 H 0.700544 0.643263 0.206476
C32_7 C 0.72519(16) 0.61553(24) 0.18517(14)
C33_7 C 0.71747(16) 0.59017(24) 0.16140(12)
H39_7 H 0.737225 0.584990 0.155020
C34_7 C 0.68119(16) 0.57183(26) 0.14638(13)
H40_7 H 0.676492 0.553579 0.131001
C35_7 C 0.76469(14) 0.63504(24) 0.19996(14)
H41_7 H 0.771157 0.661786 0.205326
H42_7 H 0.783957 0.637338 0.184925
C36_7 C 0.75829(18) 0.57453(25) 0.22332(18)
H43_7 H 0.732104 0.561060 0.214175
H44_7 H 0.756401 0.562531 0.243009
C37_7 C 0.73968(19) 0.61142(28) 0.25340(18)
H45_7 H 0.736335 0.590659 0.267327
H46_7 H 0.714119 0.603431 0.244192
C38_7 C 0.7522(2) 0.6463(3) 0.2694(2)
H47_7 H 0.743037 0.661744 0.258329
H48_7 H 0.738365 0.639241 0.288663
C39_7 C 0.8009(3) 0.6637(4) 0.3059(2)
H49_7 H 0.791053 0.635374 0.306300
H50_7 H 0.784894 0.669533 0.319480
C40_7 C 0.80905(19) 0.71607(27) 0.27181(16)
H51_7 H 0.837158 0.733101 0.275798
H52_7 H 0.804684 0.719081 0.250530
C41_7 C 0.78671(18) 0.73064(25) 0.29038(14)
C42_7 C 0.79834(18) 0.74602(25) 0.31802(18)
H53_7 H 0.819987 0.745405 0.326359
C43_8 C 0.7813(2) 0.76242(28) 0.33492(18)
H54_8 H 0.791402 0.772514 0.354064
C44_7 C 0.74894(18) 0.76434(25) 0.32386(14)
C45_7 C 0.7369(2) 0.74888(26) 0.29552(14)
H55_7 H 0.714745 0.748581 0.287370
C46_7 C 0.7557(2) 0.73369(28) 0.27821(13)
H56_7 H 0.747569 0.725564 0.258364
C47_8 C 0.72709(16) 0.77960(21) 0.34057(12)
H57_8 H 0.699942 0.757924 0.342092
H58_7 H 0.726485 0.799549 0.327729
C48_8 C 0.73765(17) 0.79581(22) 0.36881(12)
H59_8 H 0.737668 0.775751 0.381888
H60_8 H 0.764923 0.817282 0.367505
C49_8 C 0.71488(19) 0.81174(31) 0.38490(13)
C50_8 C 0.5611(2) 0.5301(4) 0.1024(2)
N3_7 N 0.77053(12) 0.61635(18) 0.22760(10)
N4_7 N 0.79926(14) 0.67589(21) 0.27676(11)
O7_6 O 0.55803(10) 0.51231(17) 0.07813(11)
O8_6 O 0.53677(13) 0.53554(22) 0.11648(10)
Cu1_8 Cu 0.34573(3) 0.17287(2) 0.24660(2)
Cl1_8 Cl 0.29081(4) 0.14541(3) 0.21077(4)
C1_9 C 0.45651(28) 0.39505(19) 0.11410(16)
H1_9 H 0.440594 0.375748 0.098722
H2_9 H 0.479679 0.392543 0.118112
C2_9 C 0.4348(3) 0.3883(2) 0.14015(15)
H3_9 H 0.412423 0.391904 0.135676
H4_9 H 0.451217 0.408236 0.154964
C3_9 C 0.41929(24) 0.34806(15) 0.15440(16)
C4_9 C 0.39395(25) 0.33981(17) 0.17842(17)
H5_9 H 0.389190 0.359549 0.185542
C5_8 C 0.37592(28) 0.30446(19) 0.19188(18)
H6_8 H 0.356737 0.299456 0.206476
C6_8 C 0.38447(24) 0.27481(16) 0.18517(14)
C7_8 C 0.40983(24) 0.28253(16) 0.16140(12)
H7_8 H 0.415010 0.262775 0.155020
C8_8 C 0.42817(26) 0.31881(16) 0.14638(13)
H8_8 H 0.446421 0.323508 0.131001
C9_8 C 0.36496(24) 0.23531(14) 0.19996(14)
H9_8 H 0.338214 0.228843 0.205326
H10_8 H 0.362662 0.216043 0.184925
C10_8 C 0.4313(4) 0.2157(3) 0.2050(3)
H11_8 H 0.412491 0.206247 0.188314
H12_8 H 0.457917 0.228959 0.196710
C11_8 C 0.42547(25) 0.24171(18) 0.22332(18)
H13_8 H 0.438940 0.267896 0.214175
H14_8 H 0.437469 0.243599 0.243009
C12_8 C 0.38858(28) 0.26032(19) 0.25340(18)
H15_8 H 0.409341 0.263665 0.267327
H16_8 H 0.396569 0.285881 0.244192
C13_8 C 0.3537(3) 0.2478(2) 0.2694(2)
H17_8 H 0.338256 0.256963 0.258329
H18_8 H 0.360759 0.261635 0.288663
C14_8 C 0.3363(4) 0.1991(3) 0.3059(2)
H19_8 H 0.364626 0.208947 0.306300
H20_8 H 0.330467 0.215106 0.319480
C15_8 C 0.3145(3) 0.1573(2) 0.3155(4)
H21_9 H 0.311611 0.155805 0.337405
H22_8 H 0.288286 0.144145 0.306510
C16_8 C 0.28393(27) 0.19095(19) 0.27181(16)
H23_8 H 0.266899 0.162842 0.275798
H24_8 H 0.280919 0.195316 0.250530
C17_8 C 0.26936(25) 0.21329(18) 0.29038(14)
C18_8 C 0.25398(25) 0.20166(18) 0.31802(18)
H25_8 H 0.254595 0.180013 0.326359
C19_9 C 0.23758(28) 0.2187(2) 0.33492(18)
H26_9 H 0.227486 0.208598 0.354064
C20_8 C 0.23566(25) 0.25106(18) 0.32386(14)
C21_8 C 0.25112(26) 0.2631(2) 0.29552(14)
H27_8 H 0.251419 0.285255 0.287370
C22_8 C 0.26631(28) 0.2443(2) 0.27821(13)
H28_8 H 0.274436 0.252431 0.258364
C23_9 C 0.22040(21) 0.27291(16) 0.34057(12)
H29_9 H 0.242076 0.300058 0.342092
H30_8 H 0.200451 0.273515 0.327729
C24_9 C 0.20419(22) 0.26235(17) 0.36881(12)
H31_9 H 0.224249 0.262332 0.381888
H32_9 H 0.182718 0.235077 0.367505
C25_9 C 0.18826(31) 0.28512(19) 0.38490(13)
C26_9 C 0.4699(4) 0.4389(2) 0.1024(2)
N1_8 N 0.38365(18) 0.22947(12) 0.22760(10)
N2_8 N 0.32411(21) 0.20074(14) 0.27676(11)
O1_9 O 0.48769(17) 0.44197(10) 0.07813(11)
O2_9 O 0.46446(22) 0.46323(13) 0.11648(10)
O5_9 O 0.46183(33) 0.53817(13) 0.13672(13)
O6_9 O 0.52919(17) 0.47082(8) 0.01703(10)
C27_9 C 0.45651(28) 0.0615(2) 0.11410(16)
H33_9 H 0.440594 0.064847 0.098722
H34_9 H 0.479679 0.087137 0.118112
C28_9 C 0.4348(3) 0.0466(2) 0.14015(15)
H35_9 H 0.412423 0.020520 0.135676
H36_9 H 0.451217 0.042982 0.154964
C29_9 C 0.41929(24) 0.07124(19) 0.15440(16)
C30_9 C 0.39395(25) 0.05415(19) 0.17842(17)
H37_9 H 0.389190 0.029642 0.185542
C31_8 C 0.37592(28) 0.0715(2) 0.19188(18)
H38_8 H 0.356737 0.057282 0.206476
C32_8 C 0.38447(24) 0.10967(18) 0.18517(14)
C33_8 C 0.40983(24) 0.12731(18) 0.16140(12)
H39_8 H 0.415010 0.152236 0.155020
C34_8 C 0.42817(26) 0.1094(2) 0.14638(13)
H40_8 H 0.446421 0.122914 0.131001
C35_8 C 0.36496(24) 0.12966(19) 0.19996(14)
H41_8 H 0.338214 0.109372 0.205326
H42_8 H 0.362662 0.146620 0.184925
C36_8 C 0.42547(25) 0.18377(17) 0.22332(18)
H43_8 H 0.438940 0.171045 0.214175
H44_8 H 0.437469 0.193871 0.243009
C37_8 C 0.38858(28) 0.1283(2) 0.25340(18)
H45_8 H 0.409341 0.145677 0.267327
H46_8 H 0.396569 0.110689 0.244192
C38_8 C 0.3537(3) 0.1060(2) 0.2694(2)
H47_8 H 0.338256 0.081294 0.258329
H48_8 H 0.360759 0.099125 0.288663
C39_8 C 0.3363(4) 0.1373(3) 0.3059(2)
H49_8 H 0.364626 0.155680 0.306300
H50_8 H 0.330467 0.115362 0.319480
C40_8 C 0.28393(27) 0.09299(19) 0.27181(16)
H51_8 H 0.266899 0.104058 0.275798
H52_8 H 0.280919 0.085604 0.250530
C41_8 C 0.26936(25) 0.05608(18) 0.29038(14)
C42_8 C 0.25398(25) 0.05233(18) 0.31802(18)
H53_8 H 0.254595 0.074583 0.326359
C43_9 C 0.23758(28) 0.01892(19) 0.33492(18)
H54_9 H 0.227486 0.018889 0.354064
C46_8 C 0.26631(28) 0.02205(19) 0.27821(13)
H56_8 H 0.274436 0.022006 0.258364
C50_9 C 0.4699(4) 0.0311(3) 0.1024(2)
N3_8 N 0.38365(18) 0.15419(13) 0.22760(10)
N4_8 N 0.32411(21) 0.12338(15) 0.27676(11)
C44_8 C 0.23566(25) 0.98461(17) 0.32386(14)
C45_8 C 0.25112(26) 0.98806(16) 0.29552(14)
H55_8 H 0.251419 0.966165 0.287370
C47_9 C 0.22040(21) 0.94750(14) 0.34057(12)
H57_9 H 0.242076 0.942019 0.342092
H58_8 H 0.200451 0.926937 0.327729
C48_9 C 0.20419(22) 0.94185(14) 0.36881(12)
H59_9 H 0.224249 0.961918 0.381888
H60_9 H 0.182718 0.947642 0.367505
C49_9 C 0.18826(31) 0.90315(24) 0.38490(13)
Cu1_9 Cu 0.50620(2) 0.49380(2) 0.42007(2)
Cu2_2 Cu 0.35110(3) 0.17555(2) 0.61088(2)
Cu3_2 Cu 0.29886(4) 0.14943(2) 0.56721(2)
Cl1_9 Cl 0.47874(3) 0.52126(3) 0.45590(4)
C1_10 C 0.3948(2) 0.27162(19) 0.55257(16)
H1_10 H 0.398180 0.290919 0.567945
H2_10 H 0.420470 0.274124 0.548555
C2_10 C 0.3799(2) 0.2784(2) 0.52652(15)
H3_10 H 0.353853 0.274763 0.530991
H4_10 H 0.376315 0.258431 0.511703
C3_10 C 0.40457(19) 0.31861(15) 0.51227(16)
C4_10 C 0.38748(19) 0.32686(17) 0.48825(17)
H5_10 H 0.362975 0.307118 0.481125
C5_9 C 0.4048(2) 0.36221(19) 0.47479(18)
H6_9 H 0.390615 0.367211 0.460191
C6_9 C 0.44300(18) 0.39186(16) 0.48150(14)
C7_9 C 0.46064(18) 0.38414(16) 0.50527(12)
H7_9 H 0.485569 0.403892 0.511647
C8_9 C 0.4427(2) 0.34786(16) 0.52029(13)
H8_9 H 0.456247 0.343159 0.535666
C9_9 C 0.46299(19) 0.43136(14) 0.46671(14)
H9_9 H 0.442705 0.437824 0.461341
H10_9 H 0.479953 0.450624 0.481742
C10_9 C 0.5490(3) 0.4510(3) 0.4617(3)
H11_9 H 0.539578 0.460420 0.478353
H12_9 H 0.562292 0.437708 0.469957
C11_9 C 0.51710(17) 0.42496(18) 0.44335(18)
H13_9 H 0.504378 0.398771 0.452492
H14_9 H 0.527204 0.423068 0.423658
C12_9 C 0.4616(2) 0.40635(19) 0.41327(18)
H15_9 H 0.479010 0.403002 0.399340
H16_9 H 0.444022 0.380786 0.422475
C13_9 C 0.4393(2) 0.4189(2) 0.3973(2)
H17_9 H 0.414627 0.409704 0.408338
H18_9 H 0.432458 0.405032 0.378004
C14_9 C 0.4706(3) 0.4676(3) 0.3608(2)
H19_9 H 0.489013 0.457720 0.360367
H20_9 H 0.448695 0.451561 0.347187
C15_9 C 0.4906(2) 0.5094(2) 0.3512(4)
H21_10 H 0.489140 0.510862 0.329262
H22_9 H 0.477475 0.522522 0.360157
C16_9 C 0.42632(19) 0.47572(19) 0.39486(16)
H23_9 H 0.437391 0.503825 0.390869
H24_9 H 0.418937 0.471351 0.416137
C17_9 C 0.38941(18) 0.45338(18) 0.37629(14)
C18_9 C 0.38566(18) 0.46501(18) 0.34865(18)
H25_9 H 0.407916 0.486654 0.340308
C19_10 C 0.35225(19) 0.4480(2) 0.33175(18)
H26_10 H 0.352222 0.458069 0.312603
C20_9 C 0.31794(17) 0.41561(18) 0.34281(14)
C21_9 C 0.32139(16) 0.4036(2) 0.37115(14)
H27_9 H 0.299498 0.381412 0.379297
C22_9 C 0.35538(19) 0.4224(2) 0.38846(13)
H28_9 H 0.355339 0.414236 0.408303
C23_10 C 0.28083(14) 0.39376(16) 0.32610(12)
H29_10 H 0.275352 0.366609 0.324575
H30_9 H 0.260270 0.393152 0.338938
C24_10 C 0.27518(14) 0.40432(17) 0.29786(12)
H31_10 H 0.295251 0.404335 0.284779
H32_10 H 0.280975 0.431590 0.299162
C25_10 C 0.23648(24) 0.38155(19) 0.28177(13)
C26_10 C 0.3644(3) 0.2278(2) 0.5643(2)
N1_9 N 0.48752(13) 0.43720(12) 0.43907(10)
N2_9 N 0.45671(15) 0.46593(14) 0.38991(11)
O1_10 O 0.37906(14) 0.22470(10) 0.58854(11)
O2_10 O 0.33457(18) 0.20344(13) 0.55019(10)
O3_7 O 0.23330(16) 0.39473(12) 0.25775(8)
O4_7 O 0.21035(17) 0.34989(13) 0.29518(8)
O5_10 O 0.2570(3) 0.12850(13) 0.52995(13)
O6_10 O 0.39171(15) 0.19585(8) 0.64964(10)
C27_10 C 0.72838(19) 0.6052(2) 0.55257(16)
H33_10 H 0.709081 0.601820 0.567945
H34_10 H 0.725876 0.579530 0.548555
C28_10 C 0.7216(2) 0.6201(2) 0.52652(15)
H35_10 H 0.725237 0.646147 0.530991
H36_10 H 0.741569 0.623685 0.511703
C29_10 C 0.68139(15) 0.59543(19) 0.51227(16)
C30_10 C 0.67314(17) 0.61252(19) 0.48825(17)
H37_10 H 0.692882 0.637025 0.481125
C31_9 C 0.63779(19) 0.5952(2) 0.47479(18)
H38_9 H 0.632789 0.609385 0.460191
C32_9 C 0.60814(16) 0.55700(18) 0.48150(14)
C33_9 C 0.61586(16) 0.53936(18) 0.50527(12)
H39_9 H 0.596108 0.514431 0.511647
C34_9 C 0.65214(16) 0.5573(2) 0.52029(13)
H40_9 H 0.656841 0.543753 0.535666
C35_9 C 0.56864(14) 0.53701(19) 0.46671(14)
H41_9 H 0.562176 0.557295 0.461341
H42_9 H 0.549376 0.520047 0.481742
C36_9 C 0.57504(18) 0.48290(17) 0.44335(18)
H43_9 H 0.601229 0.495622 0.452492
H44_9 H 0.576932 0.472796 0.423658
C37_9 C 0.59365(19) 0.5384(2) 0.41327(18)
H45_9 H 0.596998 0.520990 0.399340
H46_9 H 0.619214 0.555978 0.422475
C38_9 C 0.5811(2) 0.5607(2) 0.3973(2)
H47_9 H 0.590296 0.585373 0.408338
H48_9 H 0.594968 0.567542 0.378004
C39_9 C 0.5324(3) 0.5294(3) 0.3608(2)
H49_9 H 0.542280 0.510987 0.360367
H50_9 H 0.548439 0.551305 0.347187
C40_9 C 0.52428(19) 0.57368(19) 0.39486(16)
H51_9 H 0.496175 0.562609 0.390869
H52_9 H 0.528649 0.581063 0.416137
C41_9 C 0.54662(18) 0.61059(18) 0.37629(14)
C42_9 C 0.53499(18) 0.61434(18) 0.34865(18)
H53_9 H 0.513346 0.592084 0.340308
C43_10 C 0.5520(2) 0.64775(19) 0.33175(18)
H54_10 H 0.541931 0.647778 0.312603
C44_9 C 0.58439(18) 0.68206(17) 0.34281(14)
C45_9 C 0.5964(2) 0.67861(16) 0.37115(14)
H55_9 H 0.618588 0.700502 0.379297
C46_9 C 0.5776(2) 0.64462(19) 0.38846(13)
H56_9 H 0.585764 0.644661 0.408303
C47_10 C 0.60624(16) 0.71917(14) 0.32610(12)
H57_10 H 0.633391 0.724648 0.324575
H58_9 H 0.606848 0.739730 0.338938
C48_10 C 0.59568(17) 0.72482(14) 0.29786(12)
H59_10 H 0.595665 0.704749 0.284779
H60_10 H 0.568410 0.719025 0.299162
C49_10 C 0.61845(19) 0.76352(24) 0.28177(13)
C50_10 C 0.7722(2) 0.6356(3) 0.5643(2)
N3_9 N 0.56280(12) 0.51248(13) 0.43907(10)
N4_9 N 0.53407(14) 0.54329(15) 0.38991(11)
O7_7 O 0.77530(10) 0.62094(14) 0.58854(11)
O8_7 O 0.79656(13) 0.66543(18) 0.55019(10)
O9_7 O 0.60527(12) 0.76670(16) 0.25775(8)
O10_7 O 0.65011(13) 0.78965(17) 0.29518(8)
Cu4_3 Cu 0.82445(4) 0.64890(3) 0.61088(2)
Cu5_3 Cu 0.68443(3) 0.84222(2) 0.27755(2)
Cu6_5 Cu 0.15778(4) 0.31557(3) 0.27755(2)
Cu7_3 Cu 0.85057(4) 0.70114(4) 0.56721(2)
Cu8_3 Cu 0.63219(4) 0.81610(2) 0.23388(2)
Cu9_5 Cu 0.18390(4) 0.36781(4) 0.23388(2)
O11_4 O 0.37906(14) 0.15436(17) 0.58854(11)
O12_4 O 0.33457(18) 0.13113(22) 0.55019(10)
O13_4 O 0.27194(12) 0.17190(20) 0.59108(8)
O14_4 O 0.27194(12) 0.10003(16) 0.59108(8)
O15_4 O 0.31678(13) 0.19379(21) 0.62851(8)
O16_4 O 0.31678(13) 0.12298(17) 0.62851(8)
Cl1_10 Cl 0.04252(4) 0.52126(3) 0.45590(4)
H20_10 H 0.002866 0.551305 0.347187
C15_10 C 0.0188(3) 0.5094(2) 0.3512(4)
H21_11 H 0.021722 0.510860 0.329262
H22_10 H 0.045047 0.522525 0.360157
C16_10 C 0.04940(27) 0.57368(19) 0.39486(16)
H23_10 H 0.066434 0.562609 0.390869
H24_10 H 0.052414 0.581063 0.416137
C17_10 C 0.06397(25) 0.61059(18) 0.37629(14)
C18_10 C 0.07935(25) 0.61434(18) 0.34865(18)
H25_10 H 0.078738 0.592084 0.340308
C19_11 C 0.09575(28) 0.64775(19) 0.33175(18)
H26_11 H 0.105847 0.647778 0.312603
C20_10 C 0.09767(25) 0.68206(17) 0.34281(14)
C21_10 C 0.08221(26) 0.67861(16) 0.37115(14)
H27_10 H 0.081914 0.700502 0.379297
C22_10 C 0.06702(28) 0.64462(19) 0.38846(13)
H28_10 H 0.058897 0.644661 0.408303
C23_11 C 0.11293(21) 0.71917(14) 0.32610(12)
H29_11 H 0.091257 0.724648 0.324575
H30_10 H 0.132882 0.739730 0.338938
C24_11 C 0.12914(22) 0.72482(14) 0.29786(12)
H31_11 H 0.109084 0.704749 0.284779
H32_11 H 0.150615 0.719025 0.299162
C25_11 C 0.14507(31) 0.76352(24) 0.28177(13)
N2_10 N 0.00922(21) 0.54329(15) 0.38991(11)
O3_8 O 0.16143(20) 0.76670(16) 0.25775(8)
O4_8 O 0.13954(21) 0.78965(17) 0.29518(8)
H50_10 H 0.002866 0.451561 0.347187
C40_10 C 0.04940(27) 0.47572(19) 0.39486(16)
H51_10 H 0.066434 0.503825 0.390869
H52_10 H 0.052414 0.471351 0.416137
C41_10 C 0.06397(25) 0.45338(18) 0.37629(14)
C42_10 C 0.07935(25) 0.46501(18) 0.34865(18)
H53_10 H 0.078738 0.486654 0.340308
C43_11 C 0.09575(28) 0.4480(2) 0.33175(18)
H54_11 H 0.105847 0.458069 0.312603
C44_10 C 0.09767(25) 0.41561(18) 0.34281(14)
C45_10 C 0.08221(26) 0.4036(2) 0.37115(14)
H55_10 H 0.081914 0.381412 0.379297
C46_10 C 0.06702(28) 0.4224(2) 0.38846(13)
H56_10 H 0.058897 0.414236 0.408303
C47_11 C 0.11293(21) 0.39376(16) 0.32610(12)
H57_11 H 0.091257 0.366609 0.324575
H58_10 H 0.132882 0.393152 0.338938
C48_11 C 0.12914(22) 0.40432(17) 0.29786(12)
H59_11 H 0.109084 0.404335 0.284779
H60_11 H 0.150615 0.431590 0.299162
C49_11 C 0.14507(31) 0.38155(19) 0.28177(13)
N4_10 N 0.00922(21) 0.46593(14) 0.38991(11)
O9_8 O 0.16143(20) 0.39473(12) 0.25775(8)
O10_8 O 0.13954(21) 0.34989(13) 0.29518(8)
Cu6_6 Cu 0.15778(5) 0.84222(4) 0.27755(2)
Cu9_6 Cu 0.18390(6) 0.81610(4) 0.23388(2)
Cu1_10 Cu 0.98760(3) 0.49380(2) 0.42007(2)
C1_11 C 0.87682(28) 0.6052(2) 0.55257(16)
H1_11 H 0.892739 0.601820 0.567945
H2_11 H 0.853654 0.579530 0.548555
C2_11 C 0.8985(3) 0.6201(2) 0.52652(15)
H3_11 H 0.920910 0.646147 0.530991
H4_11 H 0.882116 0.623685 0.511703
C3_11 C 0.91404(24) 0.59543(19) 0.51227(16)
C4_11 C 0.93938(25) 0.61252(19) 0.48825(17)
H5_11 H 0.944143 0.637025 0.481125
C5_10 C 0.95741(28) 0.5952(2) 0.47479(18)
H6_10 H 0.976596 0.609385 0.460191
C6_10 C 0.94886(24) 0.55700(18) 0.48150(14)
C7_10 C 0.92350(24) 0.53936(18) 0.50527(12)
H7_10 H 0.918323 0.514431 0.511647
C8_10 C 0.90516(26) 0.5573(2) 0.52029(13)
H8_10 H 0.886912 0.543753 0.535666
C9_10 C 0.96837(24) 0.53701(19) 0.46671(14)
H9_10 H 0.995119 0.557295 0.461341
H10_10 H 0.970671 0.520047 0.481742
C10_10 C 0.9020(4) 0.4510(3) 0.4617(3)
H11_10 H 0.920842 0.460422 0.478353
H12_10 H 0.875416 0.437708 0.469957
C11_10 C 0.90786(25) 0.48290(17) 0.44335(18)
H13_10 H 0.894393 0.495622 0.452492
H14_10 H 0.895864 0.472796 0.423658
C12_10 C 0.94475(28) 0.5384(2) 0.41327(18)
H15_10 H 0.923992 0.520990 0.399340
H16_10 H 0.936764 0.555978 0.422475
C13_10 C 0.9796(3) 0.5607(2) 0.3973(2)
H17_10 H 0.995077 0.585373 0.408338
H18_10 H 0.972574 0.567542 0.378004
C14_10 C 0.9970(4) 0.5294(3) 0.3608(2)
H19_10 H 0.968707 0.510987 0.360367
C26_11 C 0.8634(4) 0.6356(3) 0.5643(2)
N1_10 N 0.94968(18) 0.51248(13) 0.43907(10)
O1_11 O 0.84564(17) 0.62094(14) 0.58854(11)
O2_11 O 0.86887(22) 0.66543(18) 0.55019(10)
O5_11 O 0.87150(33) 0.7430(3) 0.52995(13)
O6_11 O 0.80414(17) 0.60829(15) 0.64964(10)
C27_11 C 0.87682(28) 0.27162(19) 0.55257(16)
H33_11 H 0.892739 0.290919 0.567945
H34_11 H 0.853654 0.274124 0.548555
C28_11 C 0.8985(3) 0.2784(2) 0.52652(15)
H35_11 H 0.920910 0.274763 0.530991
H36_11 H 0.882116 0.258431 0.511703
C29_11 C 0.91404(24) 0.31861(15) 0.51227(16)
C30_11 C 0.93938(25) 0.32686(17) 0.48825(17)
H37_11 H 0.944143 0.307118 0.481125
C31_10 C 0.95741(28) 0.36221(19) 0.47479(18)
H38_10 H 0.976596 0.367211 0.460191
C32_10 C 0.94886(24) 0.39186(16) 0.48150(14)
C33_10 C 0.92350(24) 0.38414(16) 0.50527(12)
H39_10 H 0.918323 0.403892 0.511647
C34_10 C 0.90516(26) 0.34786(16) 0.52029(13)
H40_10 H 0.886912 0.343159 0.535666
C35_10 C 0.96837(24) 0.43136(14) 0.46671(14)
H41_10 H 0.995119 0.437824 0.461341
H42_10 H 0.970671 0.450624 0.481742
C36_10 C 0.90786(25) 0.42496(18) 0.44335(18)
H43_10 H 0.894393 0.398771 0.452492
H44_10 H 0.895864 0.423068 0.423658
C37_10 C 0.94475(28) 0.40635(19) 0.41327(18)
H45_10 H 0.923992 0.403002 0.399340
H46_10 H 0.936764 0.380786 0.422475
C38_10 C 0.9796(3) 0.4189(2) 0.3973(2)
H47_10 H 0.995077 0.409704 0.408338
H48_10 H 0.972574 0.405032 0.378004
C39_10 C 0.9970(4) 0.4676(3) 0.3608(2)
H49_10 H 0.968707 0.457720 0.360367
C50_11 C 0.8634(4) 0.2278(2) 0.5643(2)
N3_10 N 0.94968(18) 0.43720(12) 0.43907(10)
O7_8 O 0.84564(17) 0.22470(10) 0.58854(11)
O8_8 O 0.86887(22) 0.20344(13) 0.55019(10)
Cu4_4 Cu 0.82445(5) 0.17555(4) 0.61088(2)
Cu7_4 Cu 0.85057(6) 0.14943(4) 0.56721(2)
O13_5 O 0.89997(23) 0.72806(12) 0.59108(8)
O14_5 O 0.82810(20) 0.72806(12) 0.59108(8)
O15_5 O 0.87702(25) 0.68322(13) 0.62851(8)
O16_5 O 0.80621(21) 0.68322(13) 0.62851(8)
Cu1_11 Cu 0.50620(2) 0.01240(3) 0.42007(2)
C1_12 C 0.72838(19) 0.12318(28) 0.55257(16)
H1_12 H 0.709081 0.107261 0.567945
H2_12 H 0.725876 0.146346 0.548555
C2_12 C 0.7216(2) 0.1015(3) 0.52652(15)
H3_12 H 0.725237 0.079090 0.530991
H4_12 H 0.741569 0.117884 0.511703
C3_12 C 0.68139(15) 0.08596(24) 0.51227(16)
C4_12 C 0.67314(17) 0.06062(25) 0.48825(17)
H5_12 H 0.692882 0.055857 0.481125
C5_11 C 0.63779(19) 0.04259(28) 0.47479(18)
H6_11 H 0.632789 0.023404 0.460191
C6_11 C 0.60814(16) 0.05114(24) 0.48150(14)
C7_11 C 0.61586(16) 0.07650(24) 0.50527(12)
H7_11 H 0.596108 0.081677 0.511647
C8_11 C 0.65214(16) 0.09484(26) 0.52029(13)
H8_11 H 0.656841 0.113088 0.535666
C9_11 C 0.56864(14) 0.03163(24) 0.46671(14)
H9_11 H 0.562176 0.004881 0.461341
H10_11 H 0.549376 0.029329 0.481742
C10_11 C 0.5490(3) 0.0980(4) 0.4617(3)
H11_11 H 0.539580 0.079158 0.478353
H12_11 H 0.562292 0.124584 0.469957
C11_11 C 0.57504(18) 0.09214(25) 0.44335(18)
H13_11 H 0.601229 0.105607 0.452492
H14_11 H 0.576932 0.104136 0.423658
C12_11 C 0.59365(19) 0.05525(28) 0.41327(18)
H15_11 H 0.596998 0.076008 0.399340
H16_11 H 0.619214 0.063236 0.422475
C13_11 C 0.5811(2) 0.0204(3) 0.3973(2)
H17_11 H 0.590296 0.004923 0.408338
H18_11 H 0.594968 0.027426 0.378004
C14_11 C 0.5324(3) 0.0030(4) 0.3608(2)
H19_11 H 0.542280 0.031293 0.360367
C26_12 C 0.7722(2) 0.1366(4) 0.5643(2)
N1_11 N 0.56280(12) 0.05032(18) 0.43907(10)
O1_12 O 0.77530(10) 0.15436(17) 0.58854(11)
O2_12 O 0.79656(13) 0.13113(22) 0.55019(10)
O5_12 O 0.87150(13) 0.12850(33) 0.52995(13)
O6_12 O 0.80415(8) 0.19586(17) 0.64964(10)
C27_12 C 0.3948(2) 0.12318(28) 0.55257(16)
H33_12 H 0.398180 0.107261 0.567945
H34_12 H 0.420470 0.146346 0.548555
C28_12 C 0.3799(2) 0.1015(3) 0.52652(15)
H35_12 H 0.353853 0.079090 0.530991
H36_12 H 0.376315 0.117884 0.511703
C29_12 C 0.40457(19) 0.08596(24) 0.51227(16)
C30_12 C 0.38748(19) 0.06062(25) 0.48825(17)
H37_12 H 0.362975 0.055857 0.481125
C31_11 C 0.4048(2) 0.04259(28) 0.47479(18)
H38_11 H 0.390615 0.023404 0.460191
C32_11 C 0.44300(18) 0.05114(24) 0.48150(14)
C33_11 C 0.46064(18) 0.07650(24) 0.50527(12)
H39_11 H 0.485569 0.081677 0.511647
C34_11 C 0.4427(2) 0.09484(26) 0.52029(13)
H40_11 H 0.456247 0.113088 0.535666
C35_11 C 0.46299(19) 0.03163(24) 0.46671(14)
H41_11 H 0.442705 0.004881 0.461341
H42_11 H 0.479953 0.029329 0.481742
C36_11 C 0.51710(17) 0.09214(25) 0.44335(18)
H43_11 H 0.504378 0.105607 0.452492
H44_11 H 0.527204 0.104136 0.423658
C37_11 C 0.4616(2) 0.05525(28) 0.41327(18)
H45_11 H 0.479010 0.076008 0.399340
H46_11 H 0.444022 0.063236 0.422475
C38_11 C 0.4393(2) 0.0204(3) 0.3973(2)
H47_11 H 0.414627 0.004923 0.408338
H48_11 H 0.432458 0.027426 0.378004
C39_11 C 0.4706(3) 0.0030(4) 0.3608(2)
H49_11 H 0.489013 0.031293 0.360367
C50_12 C 0.3644(3) 0.1366(4) 0.5643(2)
N3_11 N 0.48752(13) 0.05032(18) 0.43907(10)
O13_6 O 0.82810(20) 0.10003(23) 0.59108(8)
O14_6 O 0.89997(16) 0.17190(20) 0.59108(8)
O15_6 O 0.80621(21) 0.12298(25) 0.62851(8)
O16_6 O 0.87702(17) 0.19379(21) 0.62851(8)
Cl1_11 Cl 0.47874(3) 0.95748(4) 0.45590(4)
H20_11 H 0.548439 0.997134 0.347187
C15_11 C 0.4906(2) 0.9812(3) 0.3512(4)
H21_12 H 0.489138 0.978278 0.329262
H22_11 H 0.477478 0.954953 0.360157
C16_11 C 0.52428(19) 0.95060(27) 0.39486(16)
H23_11 H 0.496175 0.933566 0.390869
H24_11 H 0.528649 0.947586 0.416137
C17_11 C 0.54662(18) 0.93603(25) 0.37629(14)
C18_11 C 0.53499(18) 0.92065(25) 0.34865(18)
H25_11 H 0.513346 0.921262 0.340308
C19_12 C 0.5520(2) 0.90425(28) 0.33175(18)
H26_12 H 0.541931 0.894153 0.312603
C20_11 C 0.58439(18) 0.90233(25) 0.34281(14)
C21_11 C 0.5964(2) 0.91779(26) 0.37115(14)
H27_11 H 0.618588 0.918086 0.379297
C22_11 C 0.5776(2) 0.93298(28) 0.38846(13)
H28_11 H 0.585764 0.941103 0.408303
C23_12 C 0.60624(16) 0.88707(21) 0.32610(12)
H29_12 H 0.633391 0.908743 0.324575
H30_11 H 0.606848 0.867118 0.338938
C24_12 C 0.59568(17) 0.87086(22) 0.29786(12)
H31_12 H 0.595665 0.890916 0.284779
H32_12 H 0.568410 0.849385 0.299162
C25_12 C 0.61845(19) 0.85493(31) 0.28177(13)
N2_11 N 0.53407(14) 0.99078(21) 0.38991(11)
O3_9 O 0.60527(12) 0.83857(20) 0.25775(8)
O4_9 O 0.65011(13) 0.86046(21) 0.29518(8)
H50_11 H 0.448695 0.997134 0.347187
C40_11 C 0.42632(19) 0.95060(27) 0.39486(16)
H51_11 H 0.437391 0.933566 0.390869
H52_11 H 0.418937 0.947586 0.416137
C41_11 C 0.38941(18) 0.93603(25) 0.37629(14)
C42_11 C 0.38566(18) 0.92065(25) 0.34865(18)
H53_11 H 0.407916 0.921262 0.340308
C43_12 C 0.35225(19) 0.90425(28) 0.33175(18)
H54_12 H 0.352222 0.894153 0.312603
C44_11 C 0.31794(17) 0.90233(25) 0.34281(14)
C45_11 C 0.32139(16) 0.91779(26) 0.37115(14)
H55_11 H 0.299498 0.918086 0.379297
C46_11 C 0.35538(19) 0.93298(28) 0.38846(13)
H56_11 H 0.355339 0.941103 0.408303
C47_12 C 0.28083(14) 0.88707(21) 0.32610(12)
H57_12 H 0.275352 0.908743 0.324575
H58_11 H 0.260270 0.867118 0.338938
C48_12 C 0.27518(14) 0.87086(22) 0.29786(12)
H59_12 H 0.295251 0.890916 0.284779
H60_12 H 0.280975 0.849385 0.299162
C49_12 C 0.23648(24) 0.85493(31) 0.28177(13)
N4_11 N 0.45671(15) 0.99078(21) 0.38991(11)
O9_9 O 0.23330(16) 0.83857(20) 0.25775(8)
O10_9 O 0.21035(17) 0.86046(21) 0.29518(8)
C44_12 C 0.25106(18) 0.01539(17) 0.67614(14)
C45_12 C 0.2631(2) 0.01194(16) 0.70448(14)
H55_12 H 0.285255 0.033835 0.712630
C47_13 C 0.27291(16) 0.05250(14) 0.65943(12)
H57_13 H 0.300058 0.057981 0.657908
H58_12 H 0.273515 0.073063 0.672271
C48_13 C 0.26235(17) 0.05815(14) 0.63119(12)
H59_13 H 0.262332 0.038082 0.618112
H60_13 H 0.235077 0.052358 0.632495
C49_13 C 0.28512(19) 0.09685(24) 0.61510(13)
Cu7_5 Cu 0.51724(4) 0.03447(4) 0.90054(2)
Cu1_12 Cu 0.17287(2) 0.82713(2) 0.75340(2)
Cu2_3 Cu 0.01777(3) 0.50888(2) 0.94421(2)
Cl1_12 Cl 0.14541(3) 0.85459(3) 0.78923(4)
C1_13 C 0.0615(2) 0.60495(19) 0.88590(16)
H1_13 H 0.064847 0.624252 0.901278
H2_13 H 0.087137 0.607457 0.881888
C2_13 C 0.0466(2) 0.6117(2) 0.85985(15)
H3_13 H 0.020520 0.608096 0.864324
H4_13 H 0.042982 0.591764 0.845036
C3_13 C 0.07124(19) 0.65194(15) 0.84560(16)
C4_13 C 0.05415(19) 0.66019(17) 0.82158(17)
H5_13 H 0.029642 0.640451 0.814458
C5_12 C 0.0715(2) 0.69554(19) 0.80812(18)
H6_12 H 0.057282 0.700544 0.793524
C6_12 C 0.10967(18) 0.72519(16) 0.81483(14)
C7_12 C 0.12731(18) 0.71747(16) 0.83860(12)
H7_12 H 0.152236 0.737225 0.844980
C8_12 C 0.1094(2) 0.68119(16) 0.85362(13)
H8_12 H 0.122914 0.676492 0.868999
C9_12 C 0.12966(19) 0.76469(14) 0.80004(14)
H9_12 H 0.109372 0.771157 0.794674
H10_12 H 0.146620 0.783957 0.815075
C10_12 C 0.2157(3) 0.7843(3) 0.7950(3)
H11_12 H 0.206245 0.793753 0.811686
H12_12 H 0.228959 0.771041 0.803290
C11_12 C 0.18377(17) 0.75829(18) 0.77668(18)
H13_12 H 0.171045 0.732104 0.785825
H14_12 H 0.193871 0.756401 0.756991
C12_12 C 0.1283(2) 0.73968(19) 0.74660(18)
H15_12 H 0.145677 0.736335 0.732673
H16_12 H 0.110689 0.714119 0.755808
C13_12 C 0.1060(2) 0.7522(2) 0.7306(2)
H17_12 H 0.081294 0.743037 0.741671
H18_12 H 0.099125 0.738365 0.711337
C14_12 C 0.1373(3) 0.8009(3) 0.6941(2)
H19_12 H 0.155680 0.791053 0.693700
H20_12 H 0.115362 0.784894 0.680520
C15_12 C 0.1573(2) 0.8427(2) 0.6845(4)
H21_13 H 0.155807 0.844195 0.662595
H22_12 H 0.144142 0.855855 0.693490
C16_12 C 0.09299(19) 0.80905(19) 0.72819(16)
H23_12 H 0.104058 0.837158 0.724202
H24_12 H 0.085604 0.804684 0.749470
C17_12 C 0.05608(18) 0.78671(18) 0.70962(14)
C18_12 C 0.05233(18) 0.79834(18) 0.68198(18)
H25_12 H 0.074583 0.819987 0.673641
C19_13 C 0.01892(19) 0.7813(2) 0.66508(18)
H26_13 H 0.018889 0.791402 0.645936
C22_12 C 0.02205(19) 0.7557(2) 0.72179(13)
H28_12 H 0.022006 0.747569 0.741636
C26_13 C 0.0311(3) 0.5611(2) 0.8976(2)
N1_12 N 0.15419(13) 0.77053(12) 0.77240(10)
N2_12 N 0.12338(15) 0.79926(14) 0.72324(11)
O1_13 O 0.04573(14) 0.55803(10) 0.92187(11)
O2_13 O 0.00124(18) 0.53677(13) 0.88352(10)
O6_13 O 0.05838(15) 0.52918(8) 0.98297(10)
C27_13 C 0.39505(19) 0.9385(2) 0.88590(16)
H33_13 H 0.375748 0.935153 0.901278
H34_13 H 0.392543 0.912863 0.881888
C28_13 C 0.3883(2) 0.9534(2) 0.85985(15)
H35_13 H 0.391904 0.979480 0.864324
H36_13 H 0.408236 0.957018 0.845036
C29_13 C 0.34806(15) 0.92876(19) 0.84560(16)
C30_13 C 0.33981(17) 0.94585(19) 0.82158(17)
H37_13 H 0.359549 0.970358 0.814458
C31_12 C 0.30446(19) 0.9285(2) 0.80812(18)
H38_12 H 0.299456 0.942718 0.793524
C32_12 C 0.27481(16) 0.89033(18) 0.81483(14)
C33_12 C 0.28253(16) 0.87269(18) 0.83860(12)
H39_12 H 0.262775 0.847764 0.844980
C34_12 C 0.31881(16) 0.8906(2) 0.85362(13)
H40_12 H 0.323508 0.877086 0.868999
C35_12 C 0.23531(14) 0.87034(19) 0.80004(14)
H41_12 H 0.228843 0.890628 0.794674
H42_12 H 0.216043 0.853380 0.815075
C36_12 C 0.24171(18) 0.81623(17) 0.77668(18)
H43_12 H 0.267896 0.828955 0.785825
H44_12 H 0.243599 0.806129 0.756991
C37_12 C 0.26032(19) 0.8717(2) 0.74660(18)
H45_12 H 0.263665 0.854323 0.732673
H46_12 H 0.285881 0.889311 0.755808
C38_12 C 0.2478(2) 0.8940(2) 0.7306(2)
H47_12 H 0.256963 0.918706 0.741671
H48_12 H 0.261635 0.900875 0.711337
C39_12 C 0.1991(3) 0.8627(3) 0.6941(2)
H49_12 H 0.208947 0.844320 0.693700
H50_12 H 0.215106 0.884638 0.680520
C40_12 C 0.19095(19) 0.90701(19) 0.72819(16)
H51_12 H 0.162842 0.895942 0.724202
H52_12 H 0.195316 0.914396 0.749470
C41_12 C 0.21329(18) 0.94392(18) 0.70962(14)
C42_12 C 0.20166(18) 0.94767(18) 0.68198(18)
H53_12 H 0.180013 0.925417 0.673641
C43_13 C 0.2187(2) 0.98108(19) 0.66508(18)
H54_13 H 0.208598 0.981111 0.645936
C46_12 C 0.2443(2) 0.97795(19) 0.72179(13)
H56_12 H 0.252431 0.977994 0.741636
C50_13 C 0.4389(2) 0.9689(3) 0.8976(2)
N3_12 N 0.22947(12) 0.84581(13) 0.77240(10)
N4_12 N 0.20074(14) 0.87662(15) 0.72324(11)
O7_9 O 0.44197(10) 0.95427(14) 0.92187(11)
O8_9 O 0.46323(13) 0.99876(18) 0.88352(10)
Cu4_5 Cu 0.49112(4) 0.98223(3) 0.94421(2)
O11_5 O 0.04573(14) 0.48769(17) 0.92187(11)
O12_5 O 0.00124(18) 0.46446(22) 0.88352(10)
Cu3_3 Cu 0.96553(4) 0.48276(2) 0.90054(2)
C20_12 C 0.98461(17) 0.74894(18) 0.67614(14)
C21_12 C 0.98806(16) 0.7369(2) 0.70448(14)
H27_12 H 0.966165 0.714745 0.712630
C23_13 C 0.94750(14) 0.72709(16) 0.65943(12)
H29_13 H 0.942019 0.699942 0.657908
H30_12 H 0.926937 0.726485 0.672271
C24_13 C 0.94185(14) 0.73765(17) 0.63119(12)
H31_13 H 0.961918 0.737668 0.618112
H32_13 H 0.947642 0.764923 0.632495
C25_13 C 0.90315(24) 0.71488(19) 0.61510(13)
O5_13 O 0.9237(3) 0.46183(13) 0.86328(13)
O13_7 O 0.93860(12) 0.50524(20) 0.92442(8)
O14_7 O 0.93860(12) 0.43337(16) 0.92442(8)
O15_7 O 0.98344(13) 0.52713(21) 0.96185(8)
O16_7 O 0.98344(13) 0.45632(17) 0.96185(8)
C20_13 C 0.76434(25) 0.01539(17) 0.67614(14)
C21_13 C 0.74888(26) 0.01194(16) 0.70448(14)
H27_13 H 0.748581 0.033835 0.712630
C23_14 C 0.77960(21) 0.05250(14) 0.65943(12)
H29_14 H 0.757924 0.057981 0.657908
H30_13 H 0.799549 0.073063 0.672271
C24_14 C 0.79581(22) 0.05815(14) 0.63119(12)
H31_14 H 0.775751 0.038082 0.618112
H32_14 H 0.817282 0.052358 0.632495
C25_14 C 0.81174(31) 0.09685(24) 0.61510(13)
O5_14 O 0.53817(33) 0.0763(3) 0.86328(13)
O13_8 O 0.56663(23) 0.06140(12) 0.92442(8)
O14_8 O 0.49476(20) 0.06140(12) 0.92442(8)
O15_8 O 0.54368(25) 0.01656(13) 0.96185(8)
O16_8 O 0.47287(21) 0.01656(13) 0.96185(8)
Cu1_13 Cu 0.65427(3) 0.82713(2) 0.75340(2)
Cl1_13 Cl 0.70919(4) 0.85459(3) 0.78923(4)
C1_14 C 0.54349(28) 0.9385(2) 0.88590(16)
H1_14 H 0.559406 0.935153 0.901278
H2_14 H 0.520321 0.912863 0.881888
C2_14 C 0.5652(3) 0.9534(2) 0.85985(15)
H3_14 H 0.587577 0.979480 0.864324
H4_14 H 0.548783 0.957018 0.845036
C3_14 C 0.58071(24) 0.92876(19) 0.84560(16)
C4_14 C 0.60605(25) 0.94585(19) 0.82158(17)
H5_14 H 0.610810 0.970358 0.814458
C5_13 C 0.62408(28) 0.9285(2) 0.80812(18)
H6_13 H 0.643263 0.942718 0.793524
C6_13 C 0.61553(24) 0.89033(18) 0.81483(14)
C7_13 C 0.59017(24) 0.87269(18) 0.83860(12)
H7_13 H 0.584990 0.847764 0.844980
C8_13 C 0.57183(26) 0.8906(2) 0.85362(13)
H8_13 H 0.553579 0.877086 0.868999
C9_13 C 0.63504(24) 0.87034(19) 0.80004(14)
H9_13 H 0.661786 0.890628 0.794674
H10_13 H 0.637338 0.853380 0.815075
C10_13 C 0.5687(4) 0.7843(3) 0.7950(3)
H11_13 H 0.587509 0.793755 0.811686
H12_13 H 0.542083 0.771041 0.803290
C11_13 C 0.57453(25) 0.81623(17) 0.77668(18)
H13_13 H 0.561060 0.828955 0.785825
H14_13 H 0.562531 0.806129 0.756991
C12_13 C 0.61142(28) 0.8717(2) 0.74660(18)
H15_13 H 0.590659 0.854323 0.732673
H16_13 H 0.603431 0.889311 0.755808
C13_13 C 0.6463(3) 0.8940(2) 0.7306(2)
H17_13 H 0.661744 0.918706 0.741671
H18_13 H 0.639241 0.900875 0.711337
C14_13 C 0.6637(4) 0.8627(3) 0.6941(2)
H19_13 H 0.635374 0.844320 0.693700
H20_13 H 0.669533 0.884638 0.680520
C15_13 C 0.6855(3) 0.8427(2) 0.6845(4)
H21_14 H 0.688389 0.844193 0.662595
H22_13 H 0.711714 0.855858 0.693490
C16_13 C 0.71607(27) 0.90701(19) 0.72819(16)
H23_13 H 0.733101 0.895942 0.724202
H24_13 H 0.719081 0.914396 0.749470
C17_13 C 0.73064(25) 0.94392(18) 0.70962(14)
C18_13 C 0.74602(25) 0.94767(18) 0.68198(18)
H25_13 H 0.745405 0.925417 0.673641
C19_14 C 0.76242(28) 0.98108(19) 0.66508(18)
H26_14 H 0.772514 0.981111 0.645936
C22_13 C 0.73369(28) 0.97795(19) 0.72179(13)
H28_13 H 0.725564 0.977994 0.741636
C26_14 C 0.5301(4) 0.9689(3) 0.8976(2)
N1_13 N 0.61635(18) 0.84581(13) 0.77240(10)
N2_13 N 0.67589(21) 0.87662(15) 0.72324(11)
O1_14 O 0.51231(17) 0.95427(14) 0.92187(11)
O2_14 O 0.53554(22) 0.99876(18) 0.88352(10)
O6_14 O 0.47081(17) 0.94162(15) 0.98297(10)
C27_14 C 0.54349(28) 0.60495(19) 0.88590(16)
H33_14 H 0.559406 0.624252 0.901278
H34_14 H 0.520321 0.607457 0.881888
C28_14 C 0.5652(3) 0.6117(2) 0.85985(15)
H35_14 H 0.587577 0.608096 0.864324
H36_14 H 0.548783 0.591764 0.845036
C29_14 C 0.58071(24) 0.65194(15) 0.84560(16)
C30_14 C 0.60605(25) 0.66019(17) 0.82158(17)
H37_14 H 0.610810 0.640451 0.814458
C31_13 C 0.62408(28) 0.69554(19) 0.80812(18)
H38_13 H 0.643263 0.700544 0.793524
C32_13 C 0.61553(24) 0.72519(16) 0.81483(14)
C33_13 C 0.59017(24) 0.71747(16) 0.83860(12)
H39_13 H 0.584990 0.737225 0.844980
C34_13 C 0.57183(26) 0.68119(16) 0.85362(13)
H40_13 H 0.553579 0.676492 0.868999
C35_13 C 0.63504(24) 0.76469(14) 0.80004(14)
H41_13 H 0.661786 0.771157 0.794674
H42_13 H 0.637338 0.783957 0.815075
C36_13 C 0.57453(25) 0.75829(18) 0.77668(18)
H43_13 H 0.561060 0.732104 0.785825
H44_13 H 0.562531 0.756401 0.756991
C37_13 C 0.61142(28) 0.73968(19) 0.74660(18)
H45_13 H 0.590659 0.736335 0.732673
H46_13 H 0.603431 0.714119 0.755808
C38_13 C 0.6463(3) 0.7522(2) 0.7306(2)
H47_13 H 0.661744 0.743037 0.741671
H48_13 H 0.639241 0.738365 0.711337
C39_13 C 0.6637(4) 0.8009(3) 0.6941(2)
H49_13 H 0.635374 0.791053 0.693700
H50_13 H 0.669533 0.784894 0.680520
C40_13 C 0.71607(27) 0.80905(19) 0.72819(16)
H51_13 H 0.733101 0.837158 0.724202
H52_13 H 0.719081 0.804684 0.749470
C41_13 C 0.73064(25) 0.78671(18) 0.70962(14)
C42_13 C 0.74602(25) 0.79834(18) 0.68198(18)
H53_13 H 0.745405 0.819987 0.673641
C43_14 C 0.76242(28) 0.7813(2) 0.66508(18)
H54_14 H 0.772514 0.791402 0.645936
C44_13 C 0.76434(25) 0.74894(18) 0.67614(14)
C45_13 C 0.74888(26) 0.7369(2) 0.70448(14)
H55_13 H 0.748581 0.714745 0.712630
C46_13 C 0.73369(28) 0.7557(2) 0.72179(13)
H56_13 H 0.725564 0.747569 0.741636
C47_14 C 0.77960(21) 0.72709(16) 0.65943(12)
H57_14 H 0.757924 0.699942 0.657908
H58_13 H 0.799549 0.726485 0.672271
C48_14 C 0.79581(22) 0.73765(17) 0.63119(12)
H59_14 H 0.775751 0.737668 0.618112
H60_14 H 0.817282 0.764923 0.632495
C49_14 C 0.81174(31) 0.71488(19) 0.61510(13)
C50_14 C 0.5301(4) 0.5611(2) 0.8976(2)
N3_13 N 0.61635(18) 0.77053(12) 0.77240(10)
N4_13 N 0.67589(21) 0.79926(14) 0.72324(11)
O7_10 O 0.51231(17) 0.55803(10) 0.92187(11)
O8_10 O 0.53554(22) 0.53677(13) 0.88352(10)
Cu4_6 Cu 0.49112(5) 0.50888(4) 0.94421(2)
Cu7_6 Cu 0.51724(6) 0.48276(4) 0.90054(2)
Cu1_14 Cu 0.17287(2) 0.34573(3) 0.75340(2)
Cl1_14 Cl 0.14541(3) 0.29081(4) 0.78923(4)
C1_15 C 0.39505(19) 0.45651(28) 0.88590(16)
H1_15 H 0.375748 0.440594 0.901278
H2_15 H 0.392543 0.479679 0.881888
C2_15 C 0.3883(2) 0.4348(3) 0.85985(15)
H3_15 H 0.391904 0.412423 0.864324
H4_15 H 0.408236 0.451217 0.845036
C3_15 C 0.34806(15) 0.41929(24) 0.84560(16)
C4_15 C 0.33981(17) 0.39395(25) 0.82158(17)
H5_15 H 0.359549 0.389190 0.814458
C5_14 C 0.30446(19) 0.37592(28) 0.80812(18)
H6_14 H 0.299456 0.356737 0.793524
C6_14 C 0.27481(16) 0.38447(24) 0.81483(14)
C7_14 C 0.28253(16) 0.40983(24) 0.83860(12)
H7_14 H 0.262775 0.415010 0.844980
C8_14 C 0.31881(16) 0.42817(26) 0.85362(13)
H8_14 H 0.323508 0.446421 0.868999
C9_14 C 0.23531(14) 0.36496(24) 0.80004(14)
H9_14 H 0.228843 0.338214 0.794674
H10_14 H 0.216043 0.362662 0.815075
C10_14 C 0.2157(3) 0.4313(4) 0.7950(3)
H11_14 H 0.206247 0.412491 0.811686
H12_14 H 0.228959 0.457917 0.803290
C11_14 C 0.24171(18) 0.42547(25) 0.77668(18)
H13_14 H 0.267896 0.438940 0.785825
H14_14 H 0.243599 0.437469 0.756991
C12_14 C 0.26032(19) 0.38858(28) 0.74660(18)
H15_14 H 0.263665 0.409341 0.732673
H16_14 H 0.285881 0.396569 0.755808
C13_14 C 0.2478(2) 0.3537(3) 0.7306(2)
H17_14 H 0.256963 0.338256 0.741671
H18_14 H 0.261635 0.360759 0.711337
C14_14 C 0.1991(3) 0.3363(4) 0.6941(2)
H19_14 H 0.208947 0.364626 0.693700
H20_14 H 0.215106 0.330467 0.680520
C15_14 C 0.1573(2) 0.3145(3) 0.6845(4)
H21_15 H 0.155805 0.311611 0.662595
H22_14 H 0.144145 0.288286 0.693490
C16_14 C 0.19095(19) 0.28393(27) 0.72819(16)
H23_14 H 0.162842 0.266899 0.724202
H24_14 H 0.195316 0.280919 0.749470
C17_14 C 0.21329(18) 0.26936(25) 0.70962(14)
C18_14 C 0.20166(18) 0.25398(25) 0.68198(18)
H25_14 H 0.180013 0.254595 0.673641
C19_15 C 0.2187(2) 0.23758(28) 0.66508(18)
H26_15 H 0.208598 0.227486 0.645936
C20_14 C 0.25106(18) 0.23566(25) 0.67614(14)
C21_14 C 0.2631(2) 0.25112(26) 0.70448(14)
H27_14 H 0.285255 0.251419 0.712630
C22_14 C 0.2443(2) 0.26631(28) 0.72179(13)
H28_14 H 0.252431 0.274436 0.741636
C23_15 C 0.27291(16) 0.22040(21) 0.65943(12)
H29_15 H 0.300058 0.242076 0.657908
H30_14 H 0.273515 0.200451 0.672271
C24_15 C 0.26235(17) 0.20419(22) 0.63119(12)
H31_15 H 0.262332 0.224249 0.618112
H32_15 H 0.235077 0.182718 0.632495
C25_15 C 0.28512(19) 0.18826(31) 0.61510(13)
C26_15 C 0.4389(2) 0.4699(4) 0.8976(2)
N1_14 N 0.22947(12) 0.38365(18) 0.77240(10)
N2_14 N 0.20074(14) 0.32411(21) 0.72324(11)
O1_15 O 0.44197(10) 0.48769(17) 0.92187(11)
O2_15 O 0.46323(13) 0.46446(22) 0.88352(10)
O5_15 O 0.53817(13) 0.46183(33) 0.86328(13)
O6_15 O 0.47082(8) 0.52919(17) 0.98297(10)
C27_15 C 0.0615(2) 0.45651(28) 0.88590(16)
H33_15 H 0.064847 0.440594 0.901278
H34_15 H 0.087137 0.479679 0.881888
C28_15 C 0.0466(2) 0.4348(3) 0.85985(15)
H35_15 H 0.020520 0.412423 0.864324
H36_15 H 0.042982 0.451217 0.845036
C29_15 C 0.07124(19) 0.41929(24) 0.84560(16)
C30_15 C 0.05415(19) 0.39395(25) 0.82158(17)
H37_15 H 0.029642 0.389190 0.814458
C31_14 C 0.0715(2) 0.37592(28) 0.80812(18)
H38_14 H 0.057282 0.356737 0.793524
C32_14 C 0.10967(18) 0.38447(24) 0.81483(14)
C33_14 C 0.12731(18) 0.40983(24) 0.83860(12)
H39_14 H 0.152236 0.415010 0.844980
C34_14 C 0.1094(2) 0.42817(26) 0.85362(13)
H40_14 H 0.122914 0.446421 0.868999
C35_14 C 0.12966(19) 0.36496(24) 0.80004(14)
H41_14 H 0.109372 0.338214 0.794674
H42_14 H 0.146620 0.362662 0.815075
C36_14 C 0.18377(17) 0.42547(25) 0.77668(18)
H43_14 H 0.171045 0.438940 0.785825
H44_14 H 0.193871 0.437469 0.756991
C37_14 C 0.1283(2) 0.38858(28) 0.74660(18)
H45_14 H 0.145677 0.409341 0.732673
H46_14 H 0.110689 0.396569 0.755808
C38_14 C 0.1060(2) 0.3537(3) 0.7306(2)
H47_14 H 0.081294 0.338256 0.741671
H48_14 H 0.099125 0.360759 0.711337
C39_14 C 0.1373(3) 0.3363(4) 0.6941(2)
H49_14 H 0.155680 0.364626 0.693700
H50_14 H 0.115362 0.330467 0.680520
C40_14 C 0.09299(19) 0.28393(27) 0.72819(16)
H51_14 H 0.104058 0.266899 0.724202
H52_14 H 0.085604 0.280919 0.749470
C41_14 C 0.05608(18) 0.26936(25) 0.70962(14)
C42_14 C 0.05233(18) 0.25398(25) 0.68198(18)
H53_14 H 0.074583 0.254595 0.673641
C43_15 C 0.01892(19) 0.23758(28) 0.66508(18)
H54_15 H 0.018889 0.227486 0.645936
C46_14 C 0.02205(19) 0.26631(28) 0.72179(13)
H56_14 H 0.022006 0.274436 0.741636
C50_15 C 0.0311(3) 0.4699(4) 0.8976(2)
N3_14 N 0.15419(13) 0.38365(18) 0.77240(10)
N4_14 N 0.12338(15) 0.32411(21) 0.72324(11)
O13_9 O 0.49476(20) 0.43337(23) 0.92442(8)
O14_9 O 0.56663(16) 0.50524(20) 0.92442(8)
O15_9 O 0.47287(21) 0.45632(25) 0.96185(8)
O16_9 O 0.54368(17) 0.52713(21) 0.96185(8)
C44_14 C 0.98461(17) 0.23566(25) 0.67614(14)
C45_14 C 0.98806(16) 0.25112(26) 0.70448(14)
H55_14 H 0.966165 0.251419 0.712630
C47_15 C 0.94750(14) 0.22040(21) 0.65943(12)
H57_15 H 0.942019 0.242076 0.657908
H58_14 H 0.926937 0.200451 0.672271
C48_15 C 0.94185(14) 0.20419(22) 0.63119(12)
H59_15 H 0.961918 0.224249 0.618112
H60_15 H 0.947642 0.182718 0.632495
C49_15 C 0.90315(24) 0.18826(31) 0.61510(13)
C27_16 C 0.06171(19) 0.2719(2) 0.21924(16)
H33_16 H 0.042414 0.268487 0.234612
H34_16 H 0.059209 0.246197 0.215222
C28_16 C 0.0549(2) 0.2868(2) 0.19319(15)
H35_16 H 0.058570 0.312814 0.197658
H36_16 H 0.074902 0.290352 0.178370
C29_16 C 0.01472(15) 0.26210(19) 0.17894(16)
C30_16 C 0.00647(17) 0.27919(19) 0.15492(17)
H37_16 H 0.026215 0.303692 0.147792
C50_16 C 0.1055(2) 0.3023(3) 0.2310(2)
O7_11 O 0.10863(10) 0.28761(14) 0.25521(11)
O8_11 O 0.12989(13) 0.33210(18) 0.21686(10)
H21_16 H 0.822473 0.177529 0.995929
C19_16 C 0.68558(19) 0.1147(2) 0.99842(18)
H26_16 H 0.685555 0.124736 0.979270
C23_16 C 0.61416(14) 0.06043(16) 0.99277(12)
H29_16 H 0.608685 0.033276 0.991242
C24_16 C 0.60851(14) 0.07099(17) 0.96453(12)
H31_16 H 0.628584 0.071002 0.951446
H32_16 H 0.614308 0.098257 0.965829
C25_16 C 0.56981(24) 0.04822(19) 0.94844(13)
C43_16 C 0.8853(2) 0.31442(19) 0.99842(18)
H54_16 H 0.875264 0.314445 0.979270
C47_16 C 0.93957(16) 0.38584(14) 0.99277(12)
H57_16 H 0.966724 0.391315 0.991242
C48_16 C 0.92901(17) 0.39149(14) 0.96453(12)
H59_16 H 0.928998 0.371416 0.951446
H60_16 H 0.901743 0.385692 0.965829
C49_16 C 0.95178(19) 0.43019(24) 0.94844(13)
C1_16 C 0.7281(2) 0.93829(19) 0.21924(16)
H1_16 H 0.731513 0.957586 0.234612
H2_16 H 0.753803 0.940791 0.215222
C2_16 C 0.7132(2) 0.9451(2) 0.19319(15)
H3_16 H 0.687186 0.941430 0.197658
H4_16 H 0.709648 0.925098 0.178370
C3_16 C 0.73790(19) 0.98528(15) 0.17894(16)
C4_16 C 0.72081(19) 0.99353(17) 0.15492(17)
H5_16 H 0.696308 0.973785 0.147792
C26_16 C 0.6977(3) 0.8945(2) 0.2310(2)
O1_16 O 0.71239(14) 0.89137(10) 0.25521(11)
O2_16 O 0.66790(18) 0.87011(13) 0.21686(10)
O5_16 O 0.5903(3) 0.79517(13) 0.19662(13)
O6_16 O 0.72504(15) 0.86252(8) 0.31631(10)
O11_6 O 0.71239(14) 0.82103(17) 0.25521(11)
O12_6 O 0.66790(18) 0.79780(22) 0.21686(10)
Cu1_15 Cu 0.32093(3) 0.16047(2) 0.08674(2)
Cl1_15 Cl 0.37585(4) 0.18793(3) 0.12257(4)
C1_17 C 0.21015(28) 0.2719(2) 0.21924(16)
H1_17 H 0.226072 0.268487 0.234612
H2_17 H 0.186987 0.246197 0.215222
C2_17 C 0.2318(3) 0.2868(2) 0.19319(15)
H3_17 H 0.254243 0.312814 0.197658
H4_17 H 0.215449 0.290352 0.178370
C3_17 C 0.24737(24) 0.26210(19) 0.17894(16)
C4_17 C 0.27271(25) 0.27919(19) 0.15492(17)
H5_17 H 0.277476 0.303692 0.147792
C5_15 C 0.29074(28) 0.2619(2) 0.14146(18)
H6_15 H 0.309929 0.276052 0.126858
C6_15 C 0.28219(24) 0.22367(18) 0.14817(14)
C7_15 C 0.25683(24) 0.20603(18) 0.17194(12)
H7_15 H 0.251656 0.181098 0.178314
C8_15 C 0.23849(26) 0.2240(2) 0.18696(13)
H8_15 H 0.220245 0.210420 0.202333
C9_15 C 0.30170(24) 0.20368(19) 0.13338(14)
H9_15 H 0.328452 0.223962 0.128008
H10_15 H 0.304004 0.186714 0.148409
C10_15 C 0.2353(4) 0.1177(3) 0.1284(3)
H11_15 H 0.254175 0.127089 0.145020
H12_15 H 0.208749 0.104375 0.136624
C11_15 C 0.24119(25) 0.14957(17) 0.11002(18)
H13_15 H 0.227726 0.162289 0.119159
H14_15 H 0.229197 0.139463 0.090325
C12_15 C 0.27808(28) 0.2051(2) 0.07994(18)
H15_15 H 0.257325 0.187657 0.066007
H16_15 H 0.270097 0.222645 0.089142
C13_15 C 0.3129(3) 0.2274(2) 0.0640(2)
H17_15 H 0.328410 0.252040 0.075005
H18_15 H 0.305907 0.234209 0.044671
C14_15 C 0.3303(4) 0.1961(3) 0.0275(2)
H19_15 H 0.302040 0.177654 0.027034
H20_15 H 0.336199 0.217972 0.013854
C15_15 C 0.3521(3) 0.1761(2) 0.0179(4)
H22_15 H 0.378380 0.189192 0.026824
C16_15 C 0.38273(27) 0.24035(19) 0.06153(16)
H23_15 H 0.399767 0.229276 0.057536
H24_15 H 0.385747 0.247730 0.082804
C17_15 C 0.39730(25) 0.27726(18) 0.04296(14)
C18_15 C 0.41268(25) 0.28101(18) 0.01532(18)
H25_15 H 0.412071 0.258751 0.006975
C20_15 C 0.43100(25) 0.34873(17) 0.00948(14)
C21_15 C 0.41554(26) 0.34528(16) 0.03782(14)
H27_15 H 0.415247 0.367169 0.045964
C22_15 C 0.40035(28) 0.31129(19) 0.05513(13)
H28_15 H 0.392230 0.311328 0.074970
H30_15 H 0.466215 0.406397 0.005605
C26_17 C 0.1967(4) 0.3023(3) 0.2310(2)
N1_15 N 0.28301(18) 0.17915(13) 0.10574(10)
N2_15 N 0.34255(21) 0.20996(15) 0.05658(11)
O1_17 O 0.17897(17) 0.28761(14) 0.25521(11)
O2_17 O 0.20220(22) 0.33210(18) 0.21686(10)
O5_17 O 0.20483(33) 0.4097(3) 0.19662(13)
O6_17 O 0.13747(17) 0.27496(15) 0.31631(10)
C31_15 C 0.29074(28) 0.02888(19) 0.14146(18)
H38_15 H 0.309929 0.033878 0.126858
C32_15 C 0.28219(24) 0.05853(16) 0.14817(14)
C33_15 C 0.25683(24) 0.05081(16) 0.17194(12)
H39_15 H 0.251656 0.070559 0.178314
C34_15 C 0.23849(26) 0.01453(16) 0.18696(13)
H40_15 H 0.220245 0.009826 0.202333
C35_15 C 0.30170(24) 0.09803(14) 0.13338(14)
H41_15 H 0.328452 0.104491 0.128008
H42_15 H 0.304004 0.117291 0.148409
C36_15 C 0.24119(25) 0.09163(18) 0.11002(18)
H43_15 H 0.227726 0.065438 0.119159
H44_15 H 0.229197 0.089735 0.090325
C37_15 C 0.27808(28) 0.07302(19) 0.07994(18)
H45_15 H 0.257325 0.069669 0.066007
H46_15 H 0.270097 0.047453 0.089142
C38_15 C 0.3129(3) 0.0856(2) 0.0640(2)
H47_15 H 0.328410 0.076371 0.075005
H48_15 H 0.305907 0.071699 0.044671
C39_15 C 0.3303(4) 0.1343(3) 0.0275(2)
H49_15 H 0.302040 0.124387 0.027034
H50_15 H 0.336199 0.118228 0.013854
C40_15 C 0.38273(27) 0.14239(19) 0.06153(16)
H51_15 H 0.399767 0.170492 0.057536
H52_15 H 0.385747 0.138018 0.082804
C41_15 C 0.39730(25) 0.12005(18) 0.04296(14)
C42_15 C 0.41268(25) 0.13168(18) 0.01532(18)
H53_15 H 0.412071 0.153321 0.006975
C44_15 C 0.43100(25) 0.08228(18) 0.00948(14)
C45_15 C 0.41554(26) 0.0703(2) 0.03782(14)
H55_15 H 0.415247 0.048079 0.045964
C46_15 C 0.40035(28) 0.0891(2) 0.05513(13)
H56_15 H 0.392230 0.080903 0.074970
H58_15 H 0.466215 0.059819 0.005605
N3_15 N 0.28301(18) 0.10387(12) 0.10574(10)
N4_15 N 0.34255(21) 0.13260(14) 0.05658(11)
H21_17 H 0.355055 0.177527 0.995929
C19_17 C 0.42908(28) 0.31442(19) 0.99842(18)
H26_17 H 0.439180 0.314445 0.979270
C23_17 C 0.44626(21) 0.38584(14) 0.99277(12)
H29_17 H 0.424590 0.391315 0.991242
C24_17 C 0.46247(22) 0.39149(14) 0.96453(12)
H31_17 H 0.442417 0.371416 0.951446
H32_17 H 0.483948 0.385692 0.965829
C25_17 C 0.47840(31) 0.43019(24) 0.94844(13)
C43_17 C 0.42908(28) 0.1147(2) 0.99842(18)
H54_17 H 0.439180 0.124736 0.979270
C47_17 C 0.44626(21) 0.06043(16) 0.99277(12)
H57_17 H 0.424590 0.033276 0.991242
C48_17 C 0.46247(22) 0.07099(17) 0.96453(12)
H59_17 H 0.442417 0.071002 0.951446
H60_17 H 0.483948 0.098257 0.965829
C49_17 C 0.47840(31) 0.04822(19) 0.94844(13)
C27_17 C 0.21015(28) 0.93829(19) 0.21924(16)
H33_17 H 0.226072 0.957586 0.234612
H34_17 H 0.186987 0.940791 0.215222
C28_17 C 0.2318(3) 0.9451(2) 0.19319(15)
H35_17 H 0.254243 0.941430 0.197658
H36_17 H 0.215449 0.925098 0.178370
C29_17 C 0.24737(24) 0.98528(15) 0.17894(16)
C30_17 C 0.27271(25) 0.99353(17) 0.15492(17)
H37_17 H 0.277476 0.973785 0.147792
C50_17 C 0.1967(4) 0.8945(2) 0.2310(2)
O7_12 O 0.17897(17) 0.89137(10) 0.25521(11)
O8_12 O 0.20220(22) 0.87011(13) 0.21686(10)
C1_18 C 0.06171(19) 0.78985(28) 0.21924(16)
H1_18 H 0.042414 0.773928 0.234612
H2_18 H 0.059209 0.813013 0.215222
C2_18 C 0.0549(2) 0.7682(3) 0.19319(15)
H3_18 H 0.058570 0.745757 0.197658
H4_18 H 0.074902 0.784551 0.178370
C3_18 C 0.01472(15) 0.75263(24) 0.17894(16)
C4_18 C 0.00647(17) 0.72729(25) 0.15492(17)
H5_18 H 0.026215 0.722524 0.147792
C26_18 C 0.1055(2) 0.8033(4) 0.2310(2)
O1_18 O 0.10863(10) 0.82103(17) 0.25521(11)
O2_18 O 0.12989(13) 0.79780(22) 0.21686(10)
O5_18 O 0.20483(13) 0.79517(33) 0.19662(13)
O6_18 O 0.13748(8) 0.86253(17) 0.31631(10)
Cu1_16 Cu 0.83953(2) 0.67907(3) 0.08674(2)
Cl1_16 Cl 0.81207(3) 0.62415(4) 0.12257(4)
C5_16 C 0.97112(19) 0.70926(28) 0.14146(18)
H6_16 H 0.966122 0.690071 0.126858
C6_16 C 0.94147(16) 0.71781(24) 0.14817(14)
C7_16 C 0.94919(16) 0.74317(24) 0.17194(12)
H7_16 H 0.929441 0.748344 0.178314
C8_16 C 0.98547(16) 0.76151(26) 0.18696(13)
H8_16 H 0.990174 0.779755 0.202333
C9_16 C 0.90197(14) 0.69830(24) 0.13338(14)
H9_16 H 0.895509 0.671548 0.128008
H10_16 H 0.882709 0.695996 0.148409
C10_16 C 0.8823(3) 0.7647(4) 0.1284(3)
H11_16 H 0.872913 0.745825 0.145020
H12_16 H 0.895625 0.791251 0.136624
C11_16 C 0.90837(18) 0.75881(25) 0.11002(18)
H13_16 H 0.934562 0.772274 0.119159
H14_16 H 0.910265 0.770803 0.090325
C12_16 C 0.92698(19) 0.72192(28) 0.07994(18)
H15_16 H 0.930331 0.742675 0.066007
H16_16 H 0.952547 0.729903 0.089142
C13_16 C 0.9144(2) 0.6871(3) 0.0640(2)
H17_16 H 0.923629 0.671590 0.075005
H18_16 H 0.928301 0.694093 0.044671
C14_16 C 0.8657(3) 0.6697(4) 0.0275(2)
H19_16 H 0.875613 0.697960 0.027034
H20_16 H 0.881772 0.663801 0.013854
C15_16 C 0.8239(2) 0.6479(3) 0.0179(4)
H22_16 H 0.810811 0.621620 0.026824
C16_16 C 0.85761(19) 0.61727(27) 0.06153(16)
H23_16 H 0.829508 0.600233 0.057536
H24_16 H 0.861982 0.614253 0.082804
C17_16 C 0.87995(18) 0.60270(25) 0.04296(14)
C18_16 C 0.86832(18) 0.58732(25) 0.01532(18)
H25_16 H 0.846679 0.587929 0.006975
C20_16 C 0.91772(18) 0.56900(25) 0.00948(14)
C21_16 C 0.9297(2) 0.58446(26) 0.03782(14)
H27_16 H 0.951921 0.584753 0.045964
C22_16 C 0.9109(2) 0.59965(28) 0.05513(13)
H28_16 H 0.919097 0.607770 0.074970
H30_16 H 0.940181 0.533785 0.005605
N1_16 N 0.89613(12) 0.71699(18) 0.10574(10)
N2_16 N 0.86740(14) 0.65745(21) 0.05658(11)
C27_18 C 0.7281(2) 0.78985(28) 0.21924(16)
H33_18 H 0.731513 0.773928 0.234612
H34_18 H 0.753803 0.813013 0.215222
C28_18 C 0.7132(2) 0.7682(3) 0.19319(15)
H35_18 H 0.687186 0.745757 0.197658
H36_18 H 0.709648 0.784551 0.178370
C29_18 C 0.73790(19) 0.75263(24) 0.17894(16)
C30_18 C 0.72081(19) 0.72729(25) 0.15492(17)
H37_18 H 0.696308 0.722524 0.147792
C31_16 C 0.7381(2) 0.70926(28) 0.14146(18)
H38_16 H 0.723948 0.690071 0.126858
C32_16 C 0.77633(18) 0.71781(24) 0.14817(14)
C33_16 C 0.79397(18) 0.74317(24) 0.17194(12)
H39_16 H 0.818902 0.748344 0.178314
C34_16 C 0.7760(2) 0.76151(26) 0.18696(13)
H40_16 H 0.789580 0.779755 0.202333
C35_16 C 0.79632(19) 0.69830(24) 0.13338(14)
H41_16 H 0.776038 0.671548 0.128008
H42_16 H 0.813286 0.695996 0.148409
C36_16 C 0.85043(17) 0.75881(25) 0.11002(18)
H43_16 H 0.837711 0.772274 0.119159
H44_16 H 0.860537 0.770803 0.090325
C37_16 C 0.7949(2) 0.72192(28) 0.07994(18)
H45_16 H 0.812343 0.742675 0.066007
H46_16 H 0.777355 0.729903 0.089142
C38_16 C 0.7726(2) 0.6871(3) 0.0640(2)
H47_16 H 0.747960 0.671590 0.075005
H48_16 H 0.765791 0.694093 0.044671
C39_16 C 0.8039(3) 0.6697(4) 0.0275(2)
H49_16 H 0.822346 0.697960 0.027034
H50_16 H 0.782028 0.663801 0.013854
C40_16 C 0.75965(19) 0.61727(27) 0.06153(16)
H51_16 H 0.770724 0.600233 0.057536
H52_16 H 0.752270 0.614253 0.082804
C41_16 C 0.72274(18) 0.60270(25) 0.04296(14)
C42_16 C 0.71899(18) 0.58732(25) 0.01532(18)
H53_16 H 0.741249 0.587929 0.006975
C44_16 C 0.65127(17) 0.56900(25) 0.00948(14)
C45_16 C 0.65472(16) 0.58446(26) 0.03782(14)
H55_16 H 0.632831 0.584753 0.045964
C46_16 C 0.68871(19) 0.59965(28) 0.05513(13)
H56_16 H 0.688672 0.607770 0.074970
H58_16 H 0.593603 0.533785 0.005605
C50_18 C 0.6977(3) 0.8033(4) 0.2310(2)
N3_16 N 0.82085(13) 0.71699(18) 0.10574(10)
N4_16 N 0.79004(15) 0.65745(21) 0.05658(11)
H21_18 H 0.822471 0.644945 0.995929
C19_18 C 0.8853(2) 0.57092(28) 0.99842(18)
H26_18 H 0.875264 0.560820 0.979270
C23_18 C 0.93957(16) 0.55374(21) 0.99277(12)
H29_18 H 0.966724 0.575410 0.991242
C24_18 C 0.92901(17) 0.53753(22) 0.96453(12)
H31_18 H 0.928998 0.557583 0.951446
H32_18 H 0.901743 0.516052 0.965829
C25_18 C 0.95178(19) 0.52160(31) 0.94844(13)
C43_18 C 0.68558(19) 0.57092(28) 0.99842(18)
H54_18 H 0.685555 0.560820 0.979270
C47_18 C 0.61416(14) 0.55374(21) 0.99277(12)
H57_18 H 0.608685 0.575410 0.991242
C48_18 C 0.60851(14) 0.53753(22) 0.96453(12)
H59_18 H 0.628584 0.557583 0.951446
H60_18 H 0.614308 0.516052 0.965829
C49_18 C 0.56981(24) 0.52160(31) 0.94844(13)
Cu1_17 Cu 0.16047(2) 0.83953(2) 0.91326(2)
Cl1_17 Cl 0.18793(3) 0.81207(3) 0.87743(4)
C5_17 C 0.02888(19) 0.7381(2) 0.85854(18)
H6_17 H 0.033878 0.723948 0.873142
C6_17 C 0.05853(16) 0.77633(18) 0.85183(14)
C7_17 C 0.05081(16) 0.79397(18) 0.82806(12)
H7_17 H 0.070559 0.818902 0.821686
C8_17 C 0.01453(16) 0.7760(2) 0.81304(13)
H8_17 H 0.009826 0.789580 0.797667
C9_17 C 0.09803(14) 0.79632(19) 0.86662(14)
H9_17 H 0.104491 0.776038 0.871992
H10_17 H 0.117291 0.813286 0.851591
C10_17 C 0.1177(3) 0.8823(3) 0.8716(3)
H11_17 H 0.127087 0.872911 0.854980
H12_17 H 0.104375 0.895625 0.863376
C11_17 C 0.09163(18) 0.85043(17) 0.88998(18)
H13_17 H 0.065438 0.837711 0.880841
H14_17 H 0.089735 0.860537 0.909675
C12_17 C 0.07302(19) 0.7949(2) 0.92006(18)
H15_17 H 0.069669 0.812343 0.933993
H16_17 H 0.047453 0.777355 0.910858
C13_17 C 0.0856(2) 0.7726(2) 0.9360(2)
H17_17 H 0.076371 0.747960 0.924995
H18_17 H 0.071699 0.765791 0.955329
C14_17 C 0.1343(3) 0.8039(3) 0.9725(2)
H19_17 H 0.124387 0.822346 0.972966
H20_17 H 0.118228 0.782028 0.986146
C15_17 C 0.1761(2) 0.8239(2) 0.9821(4)
H22_17 H 0.189189 0.810808 0.973176
C16_17 C 0.14239(19) 0.75965(19) 0.93847(16)
H23_17 H 0.170492 0.770724 0.942464
H24_17 H 0.138018 0.752270 0.917196
C17_17 C 0.12005(18) 0.72274(18) 0.95704(14)
C18_17 C 0.13168(18) 0.71899(18) 0.98468(18)
H25_17 H 0.153321 0.741249 0.993025
C20_17 C 0.08228(18) 0.65127(17) 0.99052(14)
C21_17 C 0.0703(2) 0.65472(16) 0.96218(14)
H27_17 H 0.048079 0.632831 0.954036
C22_17 C 0.0891(2) 0.68871(19) 0.94487(13)
H28_17 H 0.080903 0.688672 0.925030
H30_17 H 0.059819 0.593603 0.994395
N1_17 N 0.10387(12) 0.82085(13) 0.89426(10)
N2_17 N 0.13260(14) 0.79004(15) 0.94342(11)
C31_17 C 0.2619(2) 0.97112(19) 0.85854(18)
H38_17 H 0.276052 0.966122 0.873142
C32_17 C 0.22367(18) 0.94147(16) 0.85183(14)
C33_17 C 0.20603(18) 0.94919(16) 0.82806(12)
H39_17 H 0.181098 0.929441 0.821686
C34_17 C 0.2240(2) 0.98547(16) 0.81304(13)
H40_17 H 0.210420 0.990174 0.797667
C35_17 C 0.20368(19) 0.90197(14) 0.86662(14)
H41_17 H 0.223962 0.895509 0.871992
H42_17 H 0.186714 0.882709 0.851591
C36_17 C 0.14957(17) 0.90837(18) 0.88998(18)
H43_17 H 0.162289 0.934562 0.880841
H44_17 H 0.139463 0.910265 0.909675
C37_17 C 0.2051(2) 0.92698(19) 0.92006(18)
H45_17 H 0.187657 0.930331 0.933993
H46_17 H 0.222645 0.952547 0.910858
C38_17 C 0.2274(2) 0.9144(2) 0.9360(2)
H47_17 H 0.252040 0.923629 0.924995
H48_17 H 0.234209 0.928301 0.955329
C39_17 C 0.1961(3) 0.8657(3) 0.9725(2)
H49_17 H 0.177654 0.875613 0.972966
H50_17 H 0.217972 0.881772 0.986146
C40_17 C 0.24035(19) 0.85761(19) 0.93847(16)
H51_17 H 0.229276 0.829508 0.942464
H52_17 H 0.247730 0.861982 0.917196
C41_17 C 0.27726(18) 0.87995(18) 0.95704(14)
C42_17 C 0.28101(18) 0.86832(18) 0.98468(18)
H53_17 H 0.258751 0.846679 0.993025
C44_17 C 0.34873(17) 0.91772(18) 0.99052(14)
C45_17 C 0.34528(16) 0.9297(2) 0.96218(14)
H55_17 H 0.367169 0.951921 0.954036
C46_17 C 0.31129(19) 0.9109(2) 0.94487(13)
H56_17 H 0.311328 0.919097 0.925030
H58_17 H 0.406397 0.940181 0.994395
N3_17 N 0.17915(13) 0.89613(12) 0.89426(10)
N4_17 N 0.20996(15) 0.86740(14) 0.94342(11)
Cu1_18 Cu 0.83953(2) 0.16047(2) 0.08674(2)
Cl1_18 Cl 0.81207(3) 0.18793(3) 0.12257(4)
C5_18 C 0.7381(2) 0.02888(19) 0.14146(18)
H6_18 H 0.723948 0.033878 0.126858
C6_18 C 0.77633(18) 0.05853(16) 0.14817(14)
C7_18 C 0.79397(18) 0.05081(16) 0.17194(12)
H7_18 H 0.818902 0.070559 0.178314
C8_18 C 0.7760(2) 0.01453(16) 0.18696(13)
H8_18 H 0.789580 0.009826 0.202333
C9_18 C 0.79632(19) 0.09803(14) 0.13338(14)
H9_18 H 0.776038 0.104491 0.128008
H10_18 H 0.813286 0.117291 0.148409
C10_18 C 0.8823(3) 0.1177(3) 0.1284(3)
H11_18 H 0.872911 0.127087 0.145020
H12_18 H 0.895625 0.104375 0.136624
C11_18 C 0.85043(17) 0.09163(18) 0.11002(18)
H13_18 H 0.837711 0.065438 0.119159
H14_18 H 0.860537 0.089735 0.090325
C12_18 C 0.7949(2) 0.07302(19) 0.07994(18)
H15_18 H 0.812343 0.069669 0.066007
H16_18 H 0.777355 0.047453 0.089142
C13_18 C 0.7726(2) 0.0856(2) 0.0640(2)
H17_18 H 0.747960 0.076371 0.075005
H18_18 H 0.765791 0.071699 0.044671
C14_18 C 0.8039(3) 0.1343(3) 0.0275(2)
H19_18 H 0.822346 0.124387 0.027034
H20_18 H 0.782028 0.118228 0.013854
C15_18 C 0.8239(2) 0.1761(2) 0.0179(4)
H22_18 H 0.810808 0.189189 0.026824
C16_18 C 0.75965(19) 0.14239(19) 0.06153(16)
H23_18 H 0.770724 0.170492 0.057536
H24_18 H 0.752270 0.138018 0.082804
C17_18 C 0.72274(18) 0.12005(18) 0.04296(14)
C18_18 C 0.71899(18) 0.13168(18) 0.01532(18)
H25_18 H 0.741249 0.153321 0.006975
C20_18 C 0.65127(17) 0.08228(18) 0.00948(14)
C21_18 C 0.65472(16) 0.0703(2) 0.03782(14)
H27_18 H 0.632831 0.048079 0.045964
C22_18 C 0.68871(19) 0.0891(2) 0.05513(13)
H28_18 H 0.688672 0.080903 0.074970
H30_18 H 0.593603 0.059819 0.005605
N1_18 N 0.82085(13) 0.10387(12) 0.10574(10)
N2_18 N 0.79004(15) 0.13260(14) 0.05658(11)
C31_18 C 0.97112(19) 0.2619(2) 0.14146(18)
H38_18 H 0.966122 0.276052 0.126858
C32_18 C 0.94147(16) 0.22367(18) 0.14817(14)
C33_18 C 0.94919(16) 0.20603(18) 0.17194(12)
H39_18 H 0.929441 0.181098 0.178314
C34_18 C 0.98547(16) 0.2240(2) 0.18696(13)
H40_18 H 0.990174 0.210420 0.202333
C35_18 C 0.90197(14) 0.20368(19) 0.13338(14)
H41_18 H 0.895509 0.223962 0.128008
H42_18 H 0.882709 0.186714 0.148409
C36_18 C 0.90837(18) 0.14957(17) 0.11002(18)
H43_18 H 0.934562 0.162289 0.119159
H44_18 H 0.910265 0.139463 0.090325
C37_18 C 0.92698(19) 0.2051(2) 0.07994(18)
H45_18 H 0.930331 0.187657 0.066007
H46_18 H 0.952547 0.222645 0.089142
C38_18 C 0.9144(2) 0.2274(2) 0.0640(2)
H47_18 H 0.923629 0.252040 0.075005
H48_18 H 0.928301 0.234209 0.044671
C39_18 C 0.8657(3) 0.1961(3) 0.0275(2)
H49_18 H 0.875613 0.177654 0.027034
H50_18 H 0.881772 0.217972 0.013854
C40_18 C 0.85761(19) 0.24035(19) 0.06153(16)
H51_18 H 0.829508 0.229276 0.057536
H52_18 H 0.861982 0.247730 0.082804
C41_18 C 0.87995(18) 0.27726(18) 0.04296(14)
C42_18 C 0.86832(18) 0.28101(18) 0.01532(18)
H53_18 H 0.846679 0.258751 0.006975
C44_18 C 0.91772(18) 0.34873(17) 0.00948(14)
C45_18 C 0.9297(2) 0.34528(16) 0.03782(14)
H55_18 H 0.951921 0.367169 0.045964
C46_18 C 0.9109(2) 0.31129(19) 0.05513(13)
H56_18 H 0.919097 0.311328 0.074970
H58_18 H 0.940181 0.406397 0.005605
N3_18 N 0.89613(12) 0.17915(13) 0.10574(10)
N4_18 N 0.86740(14) 0.20996(15) 0.05658(11)
loop_
_geom_bond_atom_site_label_1
_geom_bond_atom_site_label_2
_geom_bond_site_symmetry_1
_geom_bond_site_symmetry_2
Cu1 Cl1 1_555 1_555
Cu2 O1 1_555 1_555
Cu3 O2 1_555 1_555
C1 H1 1_555 1_555
H2 C1 1_555 1_555
C2 C1 1_555 1_555
H3 C2 1_555 1_555
H4 C2 1_555 1_555
C3 C2 1_555 1_555
C4 C3 1_555 1_555
H5 C4 1_555 1_555
C5 C4 1_555 1_555
H6 C5 1_555 1_555
C6 C5 1_555 1_555
C7 C6 1_555 1_555
H7 C7 1_555 1_555
C8 C3 1_555 1_555
H8 C8 1_555 1_555
C9 C6 1_555 1_555
H9 C9 1_555 1_555
H10 C9 1_555 1_555
C10 H11 1_555 1_555
H12 C10 1_555 1_555
C11 C10 1_555 1_555
H13 C11 1_555 1_555
H14 C11 1_555 1_555
C12 H15 1_555 1_555
H16 C12 1_555 1_555
C13 C12 1_555 1_555
H17 C13 1_555 1_555
H18 C13 1_555 1_555
C14 H19 1_555 1_555
H20 C14 1_555 1_555
C15 C14 1_555 1_555
H21 C15 1_555 1_555
H22 C15 1_555 1_555
C16 H23 1_555 1_555
H24 C16 1_555 1_555
C17 C16 1_555 1_555
C18 C17 1_555 1_555
H25 C18 1_555 1_555
C19 C18 1_555 1_555
H26 C19 1_555 1_555
C20 C19 1_555 1_555
C21 C20 1_555 1_555
H27 C21 1_555 1_555
C22 C17 1_555 1_555
H28 C22 1_555 1_555
C23 C20 1_555 1_555
H29 C23 1_555 1_555
H30 C23 1_555 1_555
C24 C23 1_555 1_555
H31 C24 1_555 1_555
H32 C24 1_555 1_555
C25 C24 1_555 1_555
C26 C1 1_555 1_555
N1 Cu1 1_555 1_555
N2 Cu1 1_555 1_555
O1 C26 1_555 1_555
O2 C26 1_555 1_555
O3 C25 1_555 1_555
O4 C25 1_555 1_555
O5 Cu3 1_555 1_555
O6 Cu2 1_555 1_555
C27 H33 1_555 1_555
H34 C27 1_555 1_555
C28 C27 1_555 1_555
H35 C28 1_555 1_555
H36 C28 1_555 1_555
C29 C28 1_555 1_555
C30 C29 1_555 1_555
H37 C30 1_555 1_555
C31 C30 1_555 1_555
H38 C31 1_555 1_555
C32 C31 1_555 1_555
C33 C32 1_555 1_555
H39 C33 1_555 1_555
C34 C29 1_555 1_555
H40 C34 1_555 1_555
C35 C32 1_555 1_555
H41 C35 1_555 1_555
H42 C35 1_555 1_555
C36 C10 1_555 1_555
H43 C36 1_555 1_555
H44 C36 1_555 1_555
C37 H45 1_555 1_555
H46 C37 1_555 1_555
C38 C37 1_555 1_555
H47 C38 1_555 1_555
H48 C38 1_555 1_555
C39 C15 1_555 1_555
H49 C39 1_555 1_555
H50 C39 1_555 1_555
C40 H51 1_555 1_555
H52 C40 1_555 1_555
C41 C40 1_555 1_555
C42 C41 1_555 1_555
H53 C42 1_555 1_555
C43 C42 1_555 1_555
H54 C43 1_555 1_555
C44 C43 1_555 1_555
C45 C44 1_555 1_555
H55 C45 1_555 1_555
C46 C41 1_555 1_555
H56 C46 1_555 1_555
C47 C44 1_555 1_555
H57 C47 1_555 1_555
H58 C47 1_555 1_555
C48 C47 1_555 1_555
H59 C48 1_555 1_555
H60 C48 1_555 1_555
C49 C48 1_555 1_555
C50 C27 1_555 1_555
N3 Cu1 1_555 1_555
N4 Cu1 1_555 1_555
O7 C50 1_555 1_555
O8 C50 1_555 1_555
O9 C49 1_555 1_555
O10 C49 1_555 1_555
Cu4 O7 1_555 1_555
Cu5 O10 1_555 1_555
Cu6 O4 1_555 1_555
Cu7 O8 1_555 1_555
Cu8 O9 1_555 1_555
Cu9 O3 1_555 1_555
O11 Cu2 1_555 1_555
O12 Cu3 1_555 1_555
O13 Cu3 1_555 1_555
O14 Cu3 1_555 1_555
O15 Cu2 1_555 1_555
O16 Cu2 1_555 1_555
C7 C8 1_555 1_555
C9 N1 1_555 1_555
C11 N1 1_555 1_555
C12 N1 1_555 1_555
C13 N2 1_555 1_555
C14 N2 1_555 1_555
C16 N2 1_555 1_555
C21 C22 1_555 1_555
C33 C34 1_555 1_555
C35 N3 1_555 1_555
C36 N3 1_555 1_555
C37 N3 1_555 1_555
C38 N4 1_555 1_555
C39 N4 1_555 1_555
C40 N4 1_555 1_555
C45 C46 1_555 1_555
H21_2 C15_2 1_555 1_555
H22_2 C15_2 1_555 1_555
C16_2 H23_2 1_555 1_555
H24_2 C16_2 1_555 1_555
C17_2 C16_2 1_555 1_555
C18_2 C17_2 1_555 1_555
H25_2 C18_2 1_555 1_555
C19_2 C18_2 1_555 1_555
H26_2 C19_2 1_555 1_555
C20_2 C19_2 1_555 1_555
C21_2 C20_2 1_555 1_555
H27_2 C21_2 1_555 1_555
C22_2 C17_2 1_555 1_555
H28_2 C22_2 1_555 1_555
C23_2 C20_2 1_555 1_555
H29_2 C23_2 1_555 1_555
H30_2 C23_2 1_555 1_555
C24_2 C23_2 1_555 1_555
H31_2 C24_2 1_555 1_555
H32_2 C24_2 1_555 1_555
C25_2 C24_2 1_555 1_555
O3_2 C25_2 1_555 1_555
O4_2 C25_2 1_555 1_555
C40_2 H51_2 1_555 1_555
H52_2 C40_2 1_555 1_555
C41_2 C40_2 1_555 1_555
C42_2 C41_2 1_555 1_555
H53_2 C42_2 1_555 1_555
C43_2 C42_2 1_555 1_555
H54_2 C43_2 1_555 1_555
C44_2 C43_2 1_555 1_555
C45_2 C44_2 1_555 1_555
H55_2 C45_2 1_555 1_555
C46_2 C41_2 1_555 1_555
H56_2 C46_2 1_555 1_555
C47_2 C44_2 1_555 1_555
H57_2 C47_2 1_555 1_555
H58_2 C47_2 1_555 1_555
C48_2 C47_2 1_555 1_555
H59_2 C48_2 1_555 1_555
H60_2 C48_2 1_555 1_555
C49_2 C48_2 1_555 1_555
O9_2 C49_2 1_555 1_555
O10_2 C49_2 1_555 1_555
Cu6 O10_2 1_555 1_555
Cu6_2 O4_2 1_555 1_555
Cu9 O9_2 1_555 1_555
Cu9_2 O3_2 1_555 1_555
C16_2 N2_2 1_555 1_555
C21_2 C22_2 1_555 1_555
C40_2 N4_2 1_555 1_555
C45_2 C46_2 1_555 1_555
Cu4 O1_2 1_555 1_555
Cu7 O2_2 1_555 1_555
C1_2 H1_2 1_555 1_555
H2_2 C1_2 1_555 1_555
C2_2 C1_2 1_555 1_555
H3_2 C2_2 1_555 1_555
H4_2 C2_2 1_555 1_555
C3_2 C2_2 1_555 1_555
C4_2 C3_2 1_555 1_555
H5_2 C4_2 1_555 1_555
C5_2 C4_2 1_555 1_555
H6_2 C5_2 1_555 1_555
C6_2 C5_2 1_555 1_555
C7_2 C6_2 1_555 1_555
H7_2 C7_2 1_555 1_555
C8_2 C3_2 1_555 1_555
H8_2 C8_2 1_555 1_555
C9_2 C6_2 1_555 1_555
H9_2 C9_2 1_555 1_555
H10_2 C9_2 1_555 1_555
C10_2 H11_2 1_555 1_555
H12_2 C10_2 1_555 1_555
C11_2 C10_2 1_555 1_555
H13_2 C11_2 1_555 1_555
H14_2 C11_2 1_555 1_555
C12_2 H15_2 1_555 1_555
H16_2 C12_2 1_555 1_555
C13_2 C12_2 1_555 1_555
H17_2 C13_2 1_555 1_555
H18_2 C13_2 1_555 1_555
C14_2 H19_2 1_555 1_555
C26_2 C1_2 1_555 1_555
N1_2 Cu1_2 1_555 1_555
O1_2 C26_2 1_555 1_555
O2_2 C26_2 1_555 1_555
O5_2 Cu7 1_555 1_555
O6_2 Cu4 1_555 1_555
C27_2 H33_2 1_555 1_555
H34_2 C27_2 1_555 1_555
C28_2 C27_2 1_555 1_555
H35_2 C28_2 1_555 1_555
H36_2 C28_2 1_555 1_555
C29_2 C28_2 1_555 1_555
C30_2 C29_2 1_555 1_555
H37_2 C30_2 1_555 1_555
C31_2 C30_2 1_555 1_555
H38_2 C31_2 1_555 1_555
C32_2 C31_2 1_555 1_555
C33_2 C32_2 1_555 1_555
H39_2 C33_2 1_555 1_555
C34_2 C29_2 1_555 1_555
H40_2 C34_2 1_555 1_555
C35_2 C32_2 1_555 1_555
H41_2 C35_2 1_555 1_555
H42_2 C35_2 1_555 1_555
C36_2 C10_2 1_555 1_555
H43_2 C36_2 1_555 1_555
H44_2 C36_2 1_555 1_555
C37_2 H45_2 1_555 1_555
H46_2 C37_2 1_555 1_555
C38_2 C37_2 1_555 1_555
H47_2 C38_2 1_555 1_555
H48_2 C38_2 1_555 1_555
H49_2 C39_2 1_555 1_555
C50_2 C27_2 1_555 1_555
N3_2 Cu1_2 1_555 1_555
O7_2 C50_2 1_555 1_555
O8_2 C50_2 1_555 1_555
Cu4_2 O7_2 1_555 1_555
Cu7_2 O8_2 1_555 1_555
O13_2 Cu7 1_555 1_555
O14_2 Cu7 1_555 1_555
O15_2 Cu4 1_555 1_555
O16_2 Cu4 1_555 1_555
C7_2 C8_2 1_555 1_555
C9_2 N1_2 1_555 1_555
C11_2 N1_2 1_555 1_555
C12_2 N1_2 1_555 1_555
C33_2 C34_2 1_555 1_555
C35_2 N3_2 1_555 1_555
C36_2 N3_2 1_555 1_555
C37_2 N3_2 1_555 1_555
Cu4_2 O1_3 1_555 1_555
Cu7_2 O2_3 1_555 1_555
C1_3 H1_3 1_555 1_555
H2_3 C1_3 1_555 1_555
C2_3 C1_3 1_555 1_555
H3_3 C2_3 1_555 1_555
H4_3 C2_3 1_555 1_555
C3_3 C2_3 1_555 1_555
C4_3 C3_3 1_555 1_555
H5_3 C4_3 1_555 1_555
C5_3 C4_3 1_555 1_555
H6_3 C5_3 1_555 1_555
C6_3 C5_3 1_555 1_555
C7_3 C6_3 1_555 1_555
H7_3 C7_3 1_555 1_555
C8_3 C3_3 1_555 1_555
H8_3 C8_3 1_555 1_555
C9_3 C6_3 1_555 1_555
H9_3 C9_3 1_555 1_555
H10_3 C9_3 1_555 1_555
C10_3 H11_3 1_555 1_555
H12_3 C10_3 1_555 1_555
C11_3 C10_3 1_555 1_555
H13_3 C11_3 1_555 1_555
H14_3 C11_3 1_555 1_555
C12_3 H15_3 1_555 1_555
H16_3 C12_3 1_555 1_555
C13_3 C12_3 1_555 1_555
H17_3 C13_3 1_555 1_555
H18_3 C13_3 1_555 1_555
C14_3 H19_3 1_555 1_555
C26_3 C1_3 1_555 1_555
N1_3 Cu1_3 1_555 1_555
O1_3 C26_3 1_555 1_555
O2_3 C26_3 1_555 1_555
O5_3 Cu7_2 1_555 1_555
O6_3 Cu4_2 1_555 1_555
C27_3 H33_3 1_555 1_555
H34_3 C27_3 1_555 1_555
C28_3 C27_3 1_555 1_555
H35_3 C28_3 1_555 1_555
H36_3 C28_3 1_555 1_555
C29_3 C28_3 1_555 1_555
C30_3 C29_3 1_555 1_555
H37_3 C30_3 1_555 1_555
C31_3 C30_3 1_555 1_555
H38_3 C31_3 1_555 1_555
C32_3 C31_3 1_555 1_555
C33_3 C32_3 1_555 1_555
H39_3 C33_3 1_555 1_555
C34_3 C29_3 1_555 1_555
H40_3 C34_3 1_555 1_555
C35_3 C32_3 1_555 1_555
H41_3 C35_3 1_555 1_555
H42_3 C35_3 1_555 1_555
C36_3 C10_3 1_555 1_555
H43_3 C36_3 1_555 1_555
H44_3 C36_3 1_555 1_555
C37_3 H45_3 1_555 1_555
H46_3 C37_3 1_555 1_555
C38_3 C37_3 1_555 1_555
H47_3 C38_3 1_555 1_555
H48_3 C38_3 1_555 1_555
H49_3 C39_3 1_555 1_555
C50_3 C27_3 1_555 1_555
N3_3 Cu1_3 1_555 1_555
O11 C50_3 1_555 1_555
O12 C50_3 1_555 1_555
O13_3 Cu7_2 1_555 1_555
O14_3 Cu7_2 1_555 1_555
O15_3 Cu4_2 1_555 1_555
O16_3 Cu4_2 1_555 1_555
C7_3 C8_3 1_555 1_555
C9_3 N1_3 1_555 1_555
C11_3 N1_3 1_555 1_555
C12_3 N1_3 1_555 1_555
C33_3 C34_3 1_555 1_555
C35_3 N3_3 1_555 1_555
C36_3 N3_3 1_555 1_555
C37_3 N3_3 1_555 1_555
H21_3 C15_3 1_555 1_555
H22_3 C15_3 1_555 1_555
C16_3 H23_3 1_555 1_555
H24_3 C16_3 1_555 1_555
C17_3 C16_3 1_555 1_555
C18_3 C17_3 1_555 1_555
H25_3 C18_3 1_555 1_555
C19_3 C18_3 1_555 1_555
H26_3 C19_3 1_555 1_555
C20_3 C19_3 1_555 1_555
C21_3 C20_3 1_555 1_555
H27_3 C21_3 1_555 1_555
C22_3 C17_3 1_555 1_555
H28_3 C22_3 1_555 1_555
C23_3 C20_3 1_555 1_555
H29_3 C23_3 1_555 1_555
H30_3 C23_3 1_555 1_555
C24_3 C23_3 1_555 1_555
H31_3 C24_3 1_555 1_555
H32_3 C24_3 1_555 1_555
C25_3 C24_3 1_555 1_555
O3_3 C25_3 1_555 1_555
O4_3 C25_3 1_555 1_555
C40_3 H51_3 1_555 1_555
H52_3 C40_3 1_555 1_555
C41_3 C40_3 1_555 1_555
C42_3 C41_3 1_555 1_555
H53_3 C42_3 1_555 1_555
C43_3 C42_3 1_555 1_555
H54_3 C43_3 1_555 1_555
C44_3 C43_3 1_555 1_555
C45_3 C44_3 1_555 1_555
H55_3 C45_3 1_555 1_555
C46_3 C41_3 1_555 1_555
H56_3 C46_3 1_555 1_555
C47_3 C44_3 1_555 1_555
H57_3 C47_3 1_555 1_555
H58_3 C47_3 1_555 1_555
C48_3 C47_3 1_555 1_555
H59_3 C48_3 1_555 1_555
H60_3 C48_3 1_555 1_555
C49_3 C48_3 1_555 1_555
O9_3 C49_3 1_555 1_555
O10_3 C49_3 1_555 1_555
Cu6_2 O10_3 1_555 1_555
Cu5 O4_3 1_555 1_555
Cu9_2 O9_3 1_555 1_555
Cu8 O3_3 1_555 1_555
C16_3 N2_3 1_555 1_555
C21_3 C22_3 1_555 1_555
C40_3 N4_3 1_555 1_555
C45_3 C46_3 1_555 1_555
C27_4 H33_4 1_555 1_555
H34_4 C27_4 1_555 1_555
C28_4 C27_4 1_555 1_555
H35_4 C28_4 1_555 1_555
H36_4 C28_4 1_555 1_555
C29_4 C28_4 1_555 1_555
C30_4 C29_4 1_555 1_555
H37_4 C30_4 1_555 1_555
C50_4 C27_4 1_555 1_555
O7_3 C50_4 1_555 1_555
O8_3 C50_4 1_555 1_555
Cu6 O7_3 1_555 1_555
Cu9 O8_3 1_555 1_555
H26_4 C19_4 1_555 1_555
H29_4 C23_4 1_555 1_555
C24_4 C23_4 1_555 1_555
H31_4 C24_4 1_555 1_555
H32_4 C24_4 1_555 1_555
C25_4 C24_4 1_555 1_555
O3_4 C25_4 1_555 1_555
O4_4 C25_4 1_555 1_555
H54_4 C43_4 1_555 1_555
H57_4 C47_4 1_555 1_555
C48_4 C47_4 1_555 1_555
H59_4 C48_4 1_555 1_555
H60_4 C48_4 1_555 1_555
C49_4 C48_4 1_555 1_555
O9_4 C49_4 1_555 1_555
O10_4 C49_4 1_555 1_555
Cu8_2 O9_4 1_555 1_555
Cu9_3 O3_4 1_555 1_555
Cu5 O1_4 1_555 1_555
Cu8 O2_4 1_555 1_555
C1_4 H1_4 1_555 1_555
H2_4 C1_4 1_555 1_555
C2_4 C1_4 1_555 1_555
H3_4 C2_4 1_555 1_555
H4_4 C2_4 1_555 1_555
C3_4 C2_4 1_555 1_555
C4_4 C3_4 1_555 1_555
H5_4 C4_4 1_555 1_555
C26_4 C1_4 1_555 1_555
O1_4 C26_4 1_555 1_555
O2_4 C26_4 1_555 1_555
O5_4 Cu8 1_555 1_555
O6_4 Cu5 1_555 1_555
O11_2 Cu5 1_555 1_555
O12_2 Cu8 1_555 1_555
H26_5 C19_5 1_555 1_555
H29_5 C23_5 1_555 1_555
C24_5 C23_5 1_555 1_555
H31_5 C24_5 1_555 1_555
H32_5 C24_5 1_555 1_555
C25_5 C24_5 1_555 1_555
O3_5 C25_5 1_555 1_555
O4_5 C25_5 1_555 1_555
H54_5 C43_5 1_555 1_555
H57_5 C47_5 1_555 1_555
C48_5 C47_5 1_555 1_555
H59_5 C48_5 1_555 1_555
H60_5 C48_5 1_555 1_555
C49_5 C48_5 1_555 1_555
O9_5 C49_5 1_555 1_555
O10_5 C49_5 1_555 1_555
Cu6_4 O4_5 1_555 1_555
Cu9_3 O9_5 1_555 1_555
Cu9_4 O3_5 1_555 1_555
Cu1_4 Cl1_4 1_555 1_555
Cu6 O1_5 1_555 1_555
Cu9 O2_5 1_555 1_555
C1_5 H1_5 1_555 1_555
H2_5 C1_5 1_555 1_555
C2_5 C1_5 1_555 1_555
H3_5 C2_5 1_555 1_555
H4_5 C2_5 1_555 1_555
C3_5 C2_5 1_555 1_555
C4_5 C3_5 1_555 1_555
H5_5 C4_5 1_555 1_555
C5_4 C4_5 1_555 1_555
H6_4 C5_4 1_555 1_555
C6_4 C5_4 1_555 1_555
C7_4 C6_4 1_555 1_555
H7_4 C7_4 1_555 1_555
C8_4 C3_5 1_555 1_555
H8_4 C8_4 1_555 1_555
C9_4 C6_4 1_555 1_555
H9_4 C9_4 1_555 1_555
H10_4 C9_4 1_555 1_555
C10_4 H11_4 1_555 1_555
H12_4 C10_4 1_555 1_555
C11_4 C10_4 1_555 1_555
H13_4 C11_4 1_555 1_555
H14_4 C11_4 1_555 1_555
C12_4 H15_4 1_555 1_555
H16_4 C12_4 1_555 1_555
C13_4 C12_4 1_555 1_555
H17_4 C13_4 1_555 1_555
H18_4 C13_4 1_555 1_555
C14_4 H19_4 1_555 1_555
H20_4 C14_4 1_555 1_555
C15_4 C14_4 1_555 1_555
H22_4 C15_4 1_555 1_555
C16_4 H23_4 1_555 1_555
H24_4 C16_4 1_555 1_555
C17_4 C16_4 1_555 1_555
C18_4 C17_4 1_555 1_555
H25_4 C18_4 1_555 1_555
C21_4 C20_4 1_555 1_555
H27_4 C21_4 1_555 1_555
C22_4 C17_4 1_555 1_555
H28_4 C22_4 1_555 1_555
C26_5 C1_5 1_555 1_555
N1_4 Cu1_4 1_555 1_555
N2_4 Cu1_4 1_555 1_555
O1_5 C26_5 1_555 1_555
O2_5 C26_5 1_555 1_555
O5_5 Cu9 1_555 1_555
O6_5 Cu6 1_555 1_555
H38_4 C31_4 1_555 1_555
C32_4 C31_4 1_555 1_555
C33_4 C32_4 1_555 1_555
H39_4 C33_4 1_555 1_555
H40_4 C34_4 1_555 1_555
C35_4 C32_4 1_555 1_555
H41_4 C35_4 1_555 1_555
H42_4 C35_4 1_555 1_555
C36_4 C10_4 1_555 1_555
H43_4 C36_4 1_555 1_555
H44_4 C36_4 1_555 1_555
C37_4 H45_4 1_555 1_555
H46_4 C37_4 1_555 1_555
C38_4 C37_4 1_555 1_555
H47_4 C38_4 1_555 1_555
H48_4 C38_4 1_555 1_555
C39_4 C15_4 1_555 1_555
H49_4 C39_4 1_555 1_555
H50_4 C39_4 1_555 1_555
C40_4 H51_4 1_555 1_555
H52_4 C40_4 1_555 1_555
C41_4 C40_4 1_555 1_555
C42_4 C41_4 1_555 1_555
H53_4 C42_4 1_555 1_555
C45_4 C44_4 1_555 1_555
H55_4 C45_4 1_555 1_555
C46_4 C41_4 1_555 1_555
H56_4 C46_4 1_555 1_555
N3_4 Cu1_4 1_555 1_555
N4_4 Cu1_4 1_555 1_555
C7_4 C8_4 1_555 1_555
C9_4 N1_4 1_555 1_555
C11_4 N1_4 1_555 1_555
C12_4 N1_4 1_555 1_555
C13_4 N2_4 1_555 1_555
C14_4 N2_4 1_555 1_555
C16_4 N2_4 1_555 1_555
C21_4 C22_4 1_555 1_555
C33_4 C34_4 1_555 1_555
C35_4 N3_4 1_555 1_555
C36_4 N3_4 1_555 1_555
C37_4 N3_4 1_555 1_555
C38_4 N4_4 1_555 1_555
C39_4 N4_4 1_555 1_555
C40_4 N4_4 1_555 1_555
C45_4 C46_4 1_555 1_555
C27_5 H33_5 1_555 1_555
H34_5 C27_5 1_555 1_555
C28_5 C27_5 1_555 1_555
H35_5 C28_5 1_555 1_555
H36_5 C28_5 1_555 1_555
C29_5 C28_5 1_555 1_555
C30_5 C29_5 1_555 1_555
H37_5 C30_5 1_555 1_555
C50_5 C27_5 1_555 1_555
O7_4 C50_5 1_555 1_555
O8_4 C50_5 1_555 1_555
Cu6_2 O7_4 1_555 1_555
Cu9_2 O8_4 1_555 1_555
Cu6_2 O1_6 1_555 1_555
Cu9_2 O2_6 1_555 1_555
C1_6 H1_6 1_555 1_555
H2_6 C1_6 1_555 1_555
C2_6 C1_6 1_555 1_555
H3_6 C2_6 1_555 1_555
H4_6 C2_6 1_555 1_555
C3_6 C2_6 1_555 1_555
C4_6 C3_6 1_555 1_555
H5_6 C4_6 1_555 1_555
C26_6 C1_6 1_555 1_555
O1_6 C26_6 1_555 1_555
O2_6 C26_6 1_555 1_555
O5_6 Cu9_2 1_555 1_555
O6_6 Cu6_2 1_555 1_555
H26_6 C19_6 1_555 1_555
H29_6 C23_6 1_555 1_555
C24_6 C23_6 1_555 1_555
H31_6 C24_6 1_555 1_555
H32_6 C24_6 1_555 1_555
C25_6 C24_6 1_555 1_555
O3_6 C25_6 1_555 1_555
O4_6 C25_6 1_555 1_555
H54_6 C43_6 1_555 1_555
H57_6 C47_6 1_555 1_555
C48_6 C47_6 1_555 1_555
H59_6 C48_6 1_555 1_555
H60_6 C48_6 1_555 1_555
C49_6 C48_6 1_555 1_555
O9_6 C49_6 1_555 1_555
O10_6 C49_6 1_555 1_555
Cu6_4 O10_6 1_555 1_555
Cu9_4 O9_6 1_555 1_555
Cu8_2 O3_6 1_555 1_555
Cu1_5 Cl1_5 1_555 1_555
H6_5 C5_5 1_555 1_555
C6_5 C5_5 1_555 1_555
C7_5 C6_5 1_555 1_555
H7_5 C7_5 1_555 1_555
H8_5 C8_5 1_555 1_555
C9_5 C6_5 1_555 1_555
H9_5 C9_5 1_555 1_555
H10_5 C9_5 1_555 1_555
C10_5 H11_5 1_555 1_555
H12_5 C10_5 1_555 1_555
C11_5 C10_5 1_555 1_555
H13_5 C11_5 1_555 1_555
H14_5 C11_5 1_555 1_555
C12_5 H15_5 1_555 1_555
H16_5 C12_5 1_555 1_555
C13_5 C12_5 1_555 1_555
H17_5 C13_5 1_555 1_555
H18_5 C13_5 1_555 1_555
C14_5 H19_5 1_555 1_555
H20_5 C14_5 1_555 1_555
C15_5 C14_5 1_555 1_555
H22_5 C15_5 1_555 1_555
C16_5 H23_5 1_555 1_555
H24_5 C16_5 1_555 1_555
C17_5 C16_5 1_555 1_555
C18_5 C17_5 1_555 1_555
H25_5 C18_5 1_555 1_555
C21_5 C20_5 1_555 1_555
H27_5 C21_5 1_555 1_555
C22_5 C17_5 1_555 1_555
H28_5 C22_5 1_555 1_555
N1_5 Cu1_5 1_555 1_555
N2_5 Cu1_5 1_555 1_555
C27_6 H33_6 1_555 1_555
H34_6 C27_6 1_555 1_555
C28_6 C27_6 1_555 1_555
H35_6 C28_6 1_555 1_555
H36_6 C28_6 1_555 1_555
C29_6 C28_6 1_555 1_555
C30_6 C29_6 1_555 1_555
H37_6 C30_6 1_555 1_555
C31_5 C30_6 1_555 1_555
H38_5 C31_5 1_555 1_555
C32_5 C31_5 1_555 1_555
C33_5 C32_5 1_555 1_555
H39_5 C33_5 1_555 1_555
C34_5 C29_6 1_555 1_555
H40_5 C34_5 1_555 1_555
C35_5 C32_5 1_555 1_555
H41_5 C35_5 1_555 1_555
H42_5 C35_5 1_555 1_555
C36_5 C10_5 1_555 1_555
H43_5 C36_5 1_555 1_555
H44_5 C36_5 1_555 1_555
C37_5 H45_5 1_555 1_555
H46_5 C37_5 1_555 1_555
C38_5 C37_5 1_555 1_555
H47_5 C38_5 1_555 1_555
H48_5 C38_5 1_555 1_555
C39_5 C15_5 1_555 1_555
H49_5 C39_5 1_555 1_555
H50_5 C39_5 1_555 1_555
C40_5 H51_5 1_555 1_555
H52_5 C40_5 1_555 1_555
C41_5 C40_5 1_555 1_555
C42_5 C41_5 1_555 1_555
H53_5 C42_5 1_555 1_555
C45_5 C44_5 1_555 1_555
H55_5 C45_5 1_555 1_555
C46_5 C41_5 1_555 1_555
H56_5 C46_5 1_555 1_555
C50_6 C27_6 1_555 1_555
N3_5 Cu1_5 1_555 1_555
N4_5 Cu1_5 1_555 1_555
O11_2 C50_6 1_555 1_555
O12_2 C50_6 1_555 1_555
C7_5 C8_5 1_555 1_555
C9_5 N1_5 1_555 1_555
C11_5 N1_5 1_555 1_555
C12_5 N1_5 1_555 1_555
C13_5 N2_5 1_555 1_555
C14_5 N2_5 1_555 1_555
C16_5 N2_5 1_555 1_555
C21_5 C22_5 1_555 1_555
C33_5 C34_5 1_555 1_555
C35_5 N3_5 1_555 1_555
C36_5 N3_5 1_555 1_555
C37_5 N3_5 1_555 1_555
C38_5 N4_5 1_555 1_555
C39_5 N4_5 1_555 1_555
C40_5 N4_5 1_555 1_555
C45_5 C46_5 1_555 1_555
C45_6 C44_6 1_555 1_555
H55_6 C45_6 1_555 1_555
C47_7 C44_6 1_555 1_555
H57_7 C47_7 1_555 1_555
H58_6 C47_7 1_555 1_555
C48_7 C47_7 1_555 1_555
H59_7 C48_7 1_555 1_555
H60_7 C48_7 1_555 1_555
C49_7 C48_7 1_555 1_555
O14 C49_7 1_555 1_555
O16 C49_7 1_555 1_555
Cu1_6 Cl1_6 1_555 1_555
Cu5_2 O1_7 1_555 1_555
C1_7 H1_7 1_555 1_555
H2_7 C1_7 1_555 1_555
C2_7 C1_7 1_555 1_555
H3_7 C2_7 1_555 1_555
H4_7 C2_7 1_555 1_555
C3_7 C2_7 1_555 1_555
C4_7 C3_7 1_555 1_555
H5_7 C4_7 1_555 1_555
C5_6 C4_7 1_555 1_555
H6_6 C5_6 1_555 1_555
C6_6 C5_6 1_555 1_555
C7_6 C6_6 1_555 1_555
H7_6 C7_6 1_555 1_555
C8_6 C3_7 1_555 1_555
H8_6 C8_6 1_555 1_555
C9_6 C6_6 1_555 1_555
H9_6 C9_6 1_555 1_555
H10_6 C9_6 1_555 1_555
C10_6 H11_6 1_555 1_555
H12_6 C10_6 1_555 1_555
C11_6 C10_6 1_555 1_555
H13_6 C11_6 1_555 1_555
H14_6 C11_6 1_555 1_555
C12_6 H15_6 1_555 1_555
H16_6 C12_6 1_555 1_555
C13_6 C12_6 1_555 1_555
H17_6 C13_6 1_555 1_555
H18_6 C13_6 1_555 1_555
C14_6 H19_6 1_555 1_555
H20_6 C14_6 1_555 1_555
C15_6 C14_6 1_555 1_555
H21_7 C15_6 1_555 1_555
H22_6 C15_6 1_555 1_555
C16_6 H23_6 1_555 1_555
H24_6 C16_6 1_555 1_555
C17_6 C16_6 1_555 1_555
C18_6 C17_6 1_555 1_555
H25_6 C18_6 1_555 1_555
C19_7 C18_6 1_555 1_555
H26_7 C19_7 1_555 1_555
C22_6 C17_6 1_555 1_555
H28_6 C22_6 1_555 1_555
C26_7 C1_7 1_555 1_555
N1_6 Cu1_6 1_555 1_555
N2_6 Cu1_6 1_555 1_555
O1_7 C26_7 1_555 1_555
O2_7 C26_7 1_555 1_555
O6_7 Cu5_2 1_555 1_555
C27_7 H33_7 1_555 1_555
H34_7 C27_7 1_555 1_555
C28_7 C27_7 1_555 1_555
H35_7 C28_7 1_555 1_555
H36_7 C28_7 1_555 1_555
C29_7 C28_7 1_555 1_555
C30_7 C29_7 1_555 1_555
H37_7 C30_7 1_555 1_555
C31_6 C30_7 1_555 1_555
H38_6 C31_6 1_555 1_555
C32_6 C31_6 1_555 1_555
C33_6 C32_6 1_555 1_555
H39_6 C33_6 1_555 1_555
C34_6 C29_7 1_555 1_555
H40_6 C34_6 1_555 1_555
C35_6 C32_6 1_555 1_555
H41_6 C35_6 1_555 1_555
H42_6 C35_6 1_555 1_555
C36_6 C10_6 1_555 1_555
H43_6 C36_6 1_555 1_555
H44_6 C36_6 1_555 1_555
C37_6 H45_6 1_555 1_555
H46_6 C37_6 1_555 1_555
C38_6 C37_6 1_555 1_555
H47_6 C38_6 1_555 1_555
H48_6 C38_6 1_555 1_555
C39_6 C15_6 1_555 1_555
H49_6 C39_6 1_555 1_555
H50_6 C39_6 1_555 1_555
C40_6 H51_6 1_555 1_555
H52_6 C40_6 1_555 1_555
C41_6 C40_6 1_555 1_555
C42_6 C41_6 1_555 1_555
H53_6 C42_6 1_555 1_555
C43_7 C42_6 1_555 1_555
H54_7 C43_7 1_555 1_555
C46_6 C41_6 1_555 1_555
H56_6 C46_6 1_555 1_555
C50_7 C27_7 1_555 1_555
N3_6 Cu1_6 1_555 1_555
N4_6 Cu1_6 1_555 1_555
O7_5 C50_7 1_555 1_555
O8_5 C50_7 1_555 1_555
Cu6_3 O7_5 1_555 1_555
O11_3 Cu5_2 1_555 1_555
C7_6 C8_6 1_555 1_555
C9_6 N1_6 1_555 1_555
C11_6 N1_6 1_555 1_555
C12_6 N1_6 1_555 1_555
C13_6 N2_6 1_555 1_555
C14_6 N2_6 1_555 1_555
C16_6 N2_6 1_555 1_555
C33_6 C34_6 1_555 1_555
C35_6 N3_6 1_555 1_555
C36_6 N3_6 1_555 1_555
C37_6 N3_6 1_555 1_555
C38_6 N4_6 1_555 1_555
C39_6 N4_6 1_555 1_555
C40_6 N4_6 1_555 1_555
C21_6 C20_6 1_555 1_555
H27_6 C21_6 1_555 1_555
C23_7 C20_6 1_555 1_555
H29_7 C23_7 1_555 1_555
H30_6 C23_7 1_555 1_555
C24_7 C23_7 1_555 1_555
H31_7 C24_7 1_555 1_555
H32_7 C24_7 1_555 1_555
C25_7 C24_7 1_555 1_555
O13_2 C25_7 1_555 1_555
O15_2 C25_7 1_555 1_555
O5_7 Cu8_2 1_555 1_555
C21_7 C20_7 1_555 1_555
H27_7 C21_7 1_555 1_555
C23_8 C20_7 1_555 1_555
H29_8 C23_8 1_555 1_555
H30_7 C23_8 1_555 1_555
C24_8 C23_8 1_555 1_555
H31_8 C24_8 1_555 1_555
H32_8 C24_8 1_555 1_555
C25_8 C24_8 1_555 1_555
O13_3 C25_8 1_555 1_555
O15_3 C25_8 1_555 1_555
O5_8 Cu9_3 1_555 1_555
Cu1_7 Cl1_7 1_555 1_555
Cu6_3 O1_8 1_555 1_555
C1_8 H1_8 1_555 1_555
H2_8 C1_8 1_555 1_555
C2_8 C1_8 1_555 1_555
H3_8 C2_8 1_555 1_555
H4_8 C2_8 1_555 1_555
C3_8 C2_8 1_555 1_555
C4_8 C3_8 1_555 1_555
H5_8 C4_8 1_555 1_555
C5_7 C4_8 1_555 1_555
H6_7 C5_7 1_555 1_555
C6_7 C5_7 1_555 1_555
C7_7 C6_7 1_555 1_555
H7_7 C7_7 1_555 1_555
C8_7 C3_8 1_555 1_555
H8_7 C8_7 1_555 1_555
C9_7 C6_7 1_555 1_555
H9_7 C9_7 1_555 1_555
H10_7 C9_7 1_555 1_555
C10_7 H11_7 1_555 1_555
H12_7 C10_7 1_555 1_555
C11_7 C10_7 1_555 1_555
H13_7 C11_7 1_555 1_555
H14_7 C11_7 1_555 1_555
C12_7 H15_7 1_555 1_555
H16_7 C12_7 1_555 1_555
C13_7 C12_7 1_555 1_555
H17_7 C13_7 1_555 1_555
H18_7 C13_7 1_555 1_555
C14_7 H19_7 1_555 1_555
H20_7 C14_7 1_555 1_555
C15_7 C14_7 1_555 1_555
H21_8 C15_7 1_555 1_555
H22_7 C15_7 1_555 1_555
C16_7 H23_7 1_555 1_555
H24_7 C16_7 1_555 1_555
C17_7 C16_7 1_555 1_555
C18_7 C17_7 1_555 1_555
H25_7 C18_7 1_555 1_555
C19_8 C18_7 1_555 1_555
H26_8 C19_8 1_555 1_555
C22_7 C17_7 1_555 1_555
H28_7 C22_7 1_555 1_555
C26_8 C1_8 1_555 1_555
N1_7 Cu1_7 1_555 1_555
N2_7 Cu1_7 1_555 1_555
O1_8 C26_8 1_555 1_555
O2_8 C26_8 1_555 1_555
O6_8 Cu6_3 1_555 1_555
C27_8 H33_8 1_555 1_555
H34_8 C27_8 1_555 1_555
C28_8 C27_8 1_555 1_555
H35_8 C28_8 1_555 1_555
H36_8 C28_8 1_555 1_555
C29_8 C28_8 1_555 1_555
C30_8 C29_8 1_555 1_555
H37_8 C30_8 1_555 1_555
C31_7 C30_8 1_555 1_555
H38_7 C31_7 1_555 1_555
C32_7 C31_7 1_555 1_555
C33_7 C32_7 1_555 1_555
H39_7 C33_7 1_555 1_555
C34_7 C29_8 1_555 1_555
H40_7 C34_7 1_555 1_555
C35_7 C32_7 1_555 1_555
H41_7 C35_7 1_555 1_555
H42_7 C35_7 1_555 1_555
C36_7 C10_7 1_555 1_555
H43_7 C36_7 1_555 1_555
H44_7 C36_7 1_555 1_555
C37_7 H45_7 1_555 1_555
H46_7 C37_7 1_555 1_555
C38_7 C37_7 1_555 1_555
H47_7 C38_7 1_555 1_555
H48_7 C38_7 1_555 1_555
C39_7 C15_7 1_555 1_555
H49_7 C39_7 1_555 1_555
H50_7 C39_7 1_555 1_555
C40_7 H51_7 1_555 1_555
H52_7 C40_7 1_555 1_555
C41_7 C40_7 1_555 1_555
C42_7 C41_7 1_555 1_555
H53_7 C42_7 1_555 1_555
C43_8 C42_7 1_555 1_555
H54_8 C43_8 1_555 1_555
C44_7 C43_8 1_555 1_555
C45_7 C44_7 1_555 1_555
H55_7 C45_7 1_555 1_555
C46_7 C41_7 1_555 1_555
H56_7 C46_7 1_555 1_555
C47_8 C44_7 1_555 1_555
H57_8 C47_8 1_555 1_555
H58_7 C47_8 1_555 1_555
C48_8 C47_8 1_555 1_555
H59_8 C48_8 1_555 1_555
H60_8 C48_8 1_555 1_555
C49_8 C48_8 1_555 1_555
C50_8 C27_8 1_555 1_555
N3_7 Cu1_7 1_555 1_555
N4_7 Cu1_7 1_555 1_555
O7_6 C50_8 1_555 1_555
O8_6 C50_8 1_555 1_555
O14_2 C49_8 1_555 1_555
O16_2 C49_8 1_555 1_555
Cu6_4 O7_6 1_555 1_555
Cu9_4 O8_6 1_555 1_555
C7_7 C8_7 1_555 1_555
C9_7 N1_7 1_555 1_555
C11_7 N1_7 1_555 1_555
C12_7 N1_7 1_555 1_555
C13_7 N2_7 1_555 1_555
C14_7 N2_7 1_555 1_555
C16_7 N2_7 1_555 1_555
C33_7 C34_7 1_555 1_555
C35_7 N3_7 1_555 1_555
C36_7 N3_7 1_555 1_555
C37_7 N3_7 1_555 1_555
C38_7 N4_7 1_555 1_555
C39_7 N4_7 1_555 1_555
C40_7 N4_7 1_555 1_555
C45_7 C46_7 1_555 1_555
Cu1_8 Cl1_8 1_555 1_555
Cu6_4 O1_9 1_555 1_555
Cu9_4 O2_9 1_555 1_555
C1_9 H1_9 1_555 1_555
H2_9 C1_9 1_555 1_555
C2_9 C1_9 1_555 1_555
H3_9 C2_9 1_555 1_555
H4_9 C2_9 1_555 1_555
C3_9 C2_9 1_555 1_555
C4_9 C3_9 1_555 1_555
H5_9 C4_9 1_555 1_555
C5_8 C4_9 1_555 1_555
H6_8 C5_8 1_555 1_555
C6_8 C5_8 1_555 1_555
C7_8 C6_8 1_555 1_555
H7_8 C7_8 1_555 1_555
C8_8 C3_9 1_555 1_555
H8_8 C8_8 1_555 1_555
C9_8 C6_8 1_555 1_555
H9_8 C9_8 1_555 1_555
H10_8 C9_8 1_555 1_555
C10_8 H11_8 1_555 1_555
H12_8 C10_8 1_555 1_555
C11_8 C10_8 1_555 1_555
H13_8 C11_8 1_555 1_555
H14_8 C11_8 1_555 1_555
C12_8 H15_8 1_555 1_555
H16_8 C12_8 1_555 1_555
C13_8 C12_8 1_555 1_555
H17_8 C13_8 1_555 1_555
H18_8 C13_8 1_555 1_555
C14_8 H19_8 1_555 1_555
H20_8 C14_8 1_555 1_555
C15_8 C14_8 1_555 1_555
H21_9 C15_8 1_555 1_555
H22_8 C15_8 1_555 1_555
C16_8 H23_8 1_555 1_555
H24_8 C16_8 1_555 1_555
C17_8 C16_8 1_555 1_555
C18_8 C17_8 1_555 1_555
H25_8 C18_8 1_555 1_555
C19_9 C18_8 1_555 1_555
H26_9 C19_9 1_555 1_555
C20_8 C19_9 1_555 1_555
C21_8 C20_8 1_555 1_555
H27_8 C21_8 1_555 1_555
C22_8 C17_8 1_555 1_555
H28_8 C22_8 1_555 1_555
C23_9 C20_8 1_555 1_555
H29_9 C23_9 1_555 1_555
H30_8 C23_9 1_555 1_555
C24_9 C23_9 1_555 1_555
H31_9 C24_9 1_555 1_555
H32_9 C24_9 1_555 1_555
C25_9 C24_9 1_555 1_555
C26_9 C1_9 1_555 1_555
N1_8 Cu1_8 1_555 1_555
N2_8 Cu1_8 1_555 1_555
O1_9 C26_9 1_555 1_555
O2_9 C26_9 1_555 1_555
O13 C25_9 1_555 1_555
O15 C25_9 1_555 1_555
O5_9 Cu9_4 1_555 1_555
O6_9 Cu6_4 1_555 1_555
C27_9 H33_9 1_555 1_555
H34_9 C27_9 1_555 1_555
C28_9 C27_9 1_555 1_555
H35_9 C28_9 1_555 1_555
H36_9 C28_9 1_555 1_555
C29_9 C28_9 1_555 1_555
C30_9 C29_9 1_555 1_555
H37_9 C30_9 1_555 1_555
C31_8 C30_9 1_555 1_555
H38_8 C31_8 1_555 1_555
C32_8 C31_8 1_555 1_555
C33_8 C32_8 1_555 1_555
H39_8 C33_8 1_555 1_555
C34_8 C29_9 1_555 1_555
H40_8 C34_8 1_555 1_555
C35_8 C32_8 1_555 1_555
H41_8 C35_8 1_555 1_555
H42_8 C35_8 1_555 1_555
C36_8 C10_8 1_555 1_555
H43_8 C36_8 1_555 1_555
H44_8 C36_8 1_555 1_555
C37_8 H45_8 1_555 1_555
H46_8 C37_8 1_555 1_555
C38_8 C37_8 1_555 1_555
H47_8 C38_8 1_555 1_555
H48_8 C38_8 1_555 1_555
C39_8 C15_8 1_555 1_555
H49_8 C39_8 1_555 1_555
H50_8 C39_8 1_555 1_555
C40_8 H51_8 1_555 1_555
H52_8 C40_8 1_555 1_555
C41_8 C40_8 1_555 1_555
C42_8 C41_8 1_555 1_555
H53_8 C42_8 1_555 1_555
C43_9 C42_8 1_555 1_555
H54_9 C43_9 1_555 1_555
C46_8 C41_8 1_555 1_555
H56_8 C46_8 1_555 1_555
C50_9 C27_9 1_555 1_555
N3_8 Cu1_8 1_555 1_555
N4_8 Cu1_8 1_555 1_555
O11_3 C50_9 1_555 1_555
O12_3 C50_9 1_555 1_555
C7_8 C8_8 1_555 1_555
C9_8 N1_8 1_555 1_555
C11_8 N1_8 1_555 1_555
C12_8 N1_8 1_555 1_555
C13_8 N2_8 1_555 1_555
C14_8 N2_8 1_555 1_555
C16_8 N2_8 1_555 1_555
C21_8 C22_8 1_555 1_555
C33_8 C34_8 1_555 1_555
C35_8 N3_8 1_555 1_555
C36_8 N3_8 1_555 1_555
C37_8 N3_8 1_555 1_555
C38_8 N4_8 1_555 1_555
C39_8 N4_8 1_555 1_555
C40_8 N4_8 1_555 1_555
C45_8 C44_8 1_555 1_555
H55_8 C45_8 1_555 1_555
C47_9 C44_8 1_555 1_555
H57_9 C47_9 1_555 1_555
H58_8 C47_9 1_555 1_555
C48_9 C47_9 1_555 1_555
H59_9 C48_9 1_555 1_555
H60_9 C48_9 1_555 1_555
C49_9 C48_9 1_555 1_555
O14_3 C49_9 1_555 1_555
O16_3 C49_9 1_555 1_555
Cu1_9 Cl1_9 1_555 1_555
Cu2_2 O1_10 1_555 1_555
Cu3_2 O2_10 1_555 1_555
C1_10 H1_10 1_555 1_555
H2_10 C1_10 1_555 1_555
C2_10 C1_10 1_555 1_555
H3_10 C2_10 1_555 1_555
H4_10 C2_10 1_555 1_555
C3_10 C2_10 1_555 1_555
C4_10 C3_10 1_555 1_555
H5_10 C4_10 1_555 1_555
C5_9 C4_10 1_555 1_555
H6_9 C5_9 1_555 1_555
C6_9 C5_9 1_555 1_555
C7_9 C6_9 1_555 1_555
H7_9 C7_9 1_555 1_555
C8_9 C3_10 1_555 1_555
H8_9 C8_9 1_555 1_555
C9_9 C6_9 1_555 1_555
H9_9 C9_9 1_555 1_555
H10_9 C9_9 1_555 1_555
C10_9 H11_9 1_555 1_555
H12_9 C10_9 1_555 1_555
C11_9 C10_9 1_555 1_555
H13_9 C11_9 1_555 1_555
H14_9 C11_9 1_555 1_555
C12_9 H15_9 1_555 1_555
H16_9 C12_9 1_555 1_555
C13_9 C12_9 1_555 1_555
H17_9 C13_9 1_555 1_555
H18_9 C13_9 1_555 1_555
C14_9 H19_9 1_555 1_555
H20_9 C14_9 1_555 1_555
C15_9 C14_9 1_555 1_555
H21_10 C15_9 1_555 1_555
H22_9 C15_9 1_555 1_555
C16_9 H23_9 1_555 1_555
H24_9 C16_9 1_555 1_555
C17_9 C16_9 1_555 1_555
C18_9 C17_9 1_555 1_555
H25_9 C18_9 1_555 1_555
C19_10 C18_9 1_555 1_555
H26_10 C19_10 1_555 1_555
C20_9 C19_10 1_555 1_555
C21_9 C20_9 1_555 1_555
H27_9 C21_9 1_555 1_555
C22_9 C17_9 1_555 1_555
H28_9 C22_9 1_555 1_555
C23_10 C20_9 1_555 1_555
H29_10 C23_10 1_555 1_555
H30_9 C23_10 1_555 1_555
C24_10 C23_10 1_555 1_555
H31_10 C24_10 1_555 1_555
H32_10 C24_10 1_555 1_555
C25_10 C24_10 1_555 1_555
C26_10 C1_10 1_555 1_555
N1_9 Cu1_9 1_555 1_555
N2_9 Cu1_9 1_555 1_555
O1_10 C26_10 1_555 1_555
O2_10 C26_10 1_555 1_555
O3_7 C25_10 1_555 1_555
O4_7 C25_10 1_555 1_555
O5_10 Cu3_2 1_555 1_555
O6_10 Cu2_2 1_555 1_555
C27_10 H33_10 1_555 1_555
H34_10 C27_10 1_555 1_555
C28_10 C27_10 1_555 1_555
H35_10 C28_10 1_555 1_555
H36_10 C28_10 1_555 1_555
C29_10 C28_10 1_555 1_555
C30_10 C29_10 1_555 1_555
H37_10 C30_10 1_555 1_555
C31_9 C30_10 1_555 1_555
H38_9 C31_9 1_555 1_555
C32_9 C31_9 1_555 1_555
C33_9 C32_9 1_555 1_555
H39_9 C33_9 1_555 1_555
C34_9 C29_10 1_555 1_555
H40_9 C34_9 1_555 1_555
C35_9 C32_9 1_555 1_555
H41_9 C35_9 1_555 1_555
H42_9 C35_9 1_555 1_555
C36_9 C10_9 1_555 1_555
H43_9 C36_9 1_555 1_555
H44_9 C36_9 1_555 1_555
C37_9 H45_9 1_555 1_555
H46_9 C37_9 1_555 1_555
C38_9 C37_9 1_555 1_555
H47_9 C38_9 1_555 1_555
H48_9 C38_9 1_555 1_555
C39_9 C15_9 1_555 1_555
H49_9 C39_9 1_555 1_555
H50_9 C39_9 1_555 1_555
C40_9 H51_9 1_555 1_555
H52_9 C40_9 1_555 1_555
C41_9 C40_9 1_555 1_555
C42_9 C41_9 1_555 1_555
H53_9 C42_9 1_555 1_555
C43_10 C42_9 1_555 1_555
H54_10 C43_10 1_555 1_555
C44_9 C43_10 1_555 1_555
C45_9 C44_9 1_555 1_555
H55_9 C45_9 1_555 1_555
C46_9 C41_9 1_555 1_555
H56_9 C46_9 1_555 1_555
C47_10 C44_9 1_555 1_555
H57_10 C47_10 1_555 1_555
H58_9 C47_10 1_555 1_555
C48_10 C47_10 1_555 1_555
H59_10 C48_10 1_555 1_555
H60_10 C48_10 1_555 1_555
C49_10 C48_10 1_555 1_555
C50_10 C27_10 1_555 1_555
N3_9 Cu1_9 1_555 1_555
N4_9 Cu1_9 1_555 1_555
O7_7 C50_10 1_555 1_555
O8_7 C50_10 1_555 1_555
O9_7 C49_10 1_555 1_555
O10_7 C49_10 1_555 1_555
Cu4_3 O7_7 1_555 1_555
Cu5_3 O10_7 1_555 1_555
Cu6_5 O4_7 1_555 1_555
Cu7_3 O8_7 1_555 1_555
Cu8_3 O9_7 1_555 1_555
Cu9_5 O3_7 1_555 1_555
O11_4 Cu2_2 1_555 1_555
O12_4 Cu3_2 1_555 1_555
O13_4 Cu3_2 1_555 1_555
O14_4 Cu3_2 1_555 1_555
O15_4 Cu2_2 1_555 1_555
O16_4 Cu2_2 1_555 1_555
C7_9 C8_9 1_555 1_555
C9_9 N1_9 1_555 1_555
C11_9 N1_9 1_555 1_555
C12_9 N1_9 1_555 1_555
C13_9 N2_9 1_555 1_555
C14_9 N2_9 1_555 1_555
C16_9 N2_9 1_555 1_555
C21_9 C22_9 1_555 1_555
C33_9 C34_9 1_555 1_555
C35_9 N3_9 1_555 1_555
C36_9 N3_9 1_555 1_555
C37_9 N3_9 1_555 1_555
C38_9 N4_9 1_555 1_555
C39_9 N4_9 1_555 1_555
C40_9 N4_9 1_555 1_555
C45_9 C46_9 1_555 1_555
H21_11 C15_10 1_555 1_555
H22_10 C15_10 1_555 1_555
C16_10 H23_10 1_555 1_555
H24_10 C16_10 1_555 1_555
C17_10 C16_10 1_555 1_555
C18_10 C17_10 1_555 1_555
H25_10 C18_10 1_555 1_555
C19_11 C18_10 1_555 1_555
H26_11 C19_11 1_555 1_555
C20_10 C19_11 1_555 1_555
C21_10 C20_10 1_555 1_555
H27_10 C21_10 1_555 1_555
C22_10 C17_10 1_555 1_555
H28_10 C22_10 1_555 1_555
C23_11 C20_10 1_555 1_555
H29_11 C23_11 1_555 1_555
H30_10 C23_11 1_555 1_555
C24_11 C23_11 1_555 1_555
H31_11 C24_11 1_555 1_555
H32_11 C24_11 1_555 1_555
C25_11 C24_11 1_555 1_555
O3_8 C25_11 1_555 1_555
O4_8 C25_11 1_555 1_555
C40_10 H51_10 1_555 1_555
H52_10 C40_10 1_555 1_555
C41_10 C40_10 1_555 1_555
C42_10 C41_10 1_555 1_555
H53_10 C42_10 1_555 1_555
C43_11 C42_10 1_555 1_555
H54_11 C43_11 1_555 1_555
C44_10 C43_11 1_555 1_555
C45_10 C44_10 1_555 1_555
H55_10 C45_10 1_555 1_555
C46_10 C41_10 1_555 1_555
H56_10 C46_10 1_555 1_555
C47_11 C44_10 1_555 1_555
H57_11 C47_11 1_555 1_555
H58_10 C47_11 1_555 1_555
C48_11 C47_11 1_555 1_555
H59_11 C48_11 1_555 1_555
H60_11 C48_11 1_555 1_555
C49_11 C48_11 1_555 1_555
O9_8 C49_11 1_555 1_555
O10_8 C49_11 1_555 1_555
Cu6_5 O10_8 1_555 1_555
Cu6_6 O4_8 1_555 1_555
Cu9_5 O9_8 1_555 1_555
Cu9_6 O3_8 1_555 1_555
C16_10 N2_10 1_555 1_555
C21_10 C22_10 1_555 1_555
C40_10 N4_10 1_555 1_555
C45_10 C46_10 1_555 1_555
Cu4_3 O1_11 1_555 1_555
Cu7_3 O2_11 1_555 1_555
C1_11 H1_11 1_555 1_555
H2_11 C1_11 1_555 1_555
C2_11 C1_11 1_555 1_555
H3_11 C2_11 1_555 1_555
H4_11 C2_11 1_555 1_555
C3_11 C2_11 1_555 1_555
C4_11 C3_11 1_555 1_555
H5_11 C4_11 1_555 1_555
C5_10 C4_11 1_555 1_555
H6_10 C5_10 1_555 1_555
C6_10 C5_10 1_555 1_555
C7_10 C6_10 1_555 1_555
H7_10 C7_10 1_555 1_555
C8_10 C3_11 1_555 1_555
H8_10 C8_10 1_555 1_555
C9_10 C6_10 1_555 1_555
H9_10 C9_10 1_555 1_555
H10_10 C9_10 1_555 1_555
C10_10 H11_10 1_555 1_555
H12_10 C10_10 1_555 1_555
C11_10 C10_10 1_555 1_555
H13_10 C11_10 1_555 1_555
H14_10 C11_10 1_555 1_555
C12_10 H15_10 1_555 1_555
H16_10 C12_10 1_555 1_555
C13_10 C12_10 1_555 1_555
H17_10 C13_10 1_555 1_555
H18_10 C13_10 1_555 1_555
C14_10 H19_10 1_555 1_555
C26_11 C1_11 1_555 1_555
N1_10 Cu1_10 1_555 1_555
O1_11 C26_11 1_555 1_555
O2_11 C26_11 1_555 1_555
O5_11 Cu7_3 1_555 1_555
O6_11 Cu4_3 1_555 1_555
C27_11 H33_11 1_555 1_555
H34_11 C27_11 1_555 1_555
C28_11 C27_11 1_555 1_555
H35_11 C28_11 1_555 1_555
H36_11 C28_11 1_555 1_555
C29_11 C28_11 1_555 1_555
C30_11 C29_11 1_555 1_555
H37_11 C30_11 1_555 1_555
C31_10 C30_11 1_555 1_555
H38_10 C31_10 1_555 1_555
C32_10 C31_10 1_555 1_555
C33_10 C32_10 1_555 1_555
H39_10 C33_10 1_555 1_555
C34_10 C29_11 1_555 1_555
H40_10 C34_10 1_555 1_555
C35_10 C32_10 1_555 1_555
H41_10 C35_10 1_555 1_555
H42_10 C35_10 1_555 1_555
C36_10 C10_10 1_555 1_555
H43_10 C36_10 1_555 1_555
H44_10 C36_10 1_555 1_555
C37_10 H45_10 1_555 1_555
H46_10 C37_10 1_555 1_555
C38_10 C37_10 1_555 1_555
H47_10 C38_10 1_555 1_555
H48_10 C38_10 1_555 1_555
H49_10 C39_10 1_555 1_555
C50_11 C27_11 1_555 1_555
N3_10 Cu1_10 1_555 1_555
O7_8 C50_11 1_555 1_555
O8_8 C50_11 1_555 1_555
Cu4_4 O7_8 1_555 1_555
Cu7_4 O8_8 1_555 1_555
O13_5 Cu7_3 1_555 1_555
O14_5 Cu7_3 1_555 1_555
O15_5 Cu4_3 1_555 1_555
O16_5 Cu4_3 1_555 1_555
C7_10 C8_10 1_555 1_555
C9_10 N1_10 1_555 1_555
C11_10 N1_10 1_555 1_555
C12_10 N1_10 1_555 1_555
C33_10 C34_10 1_555 1_555
C35_10 N3_10 1_555 1_555
C36_10 N3_10 1_555 1_555
C37_10 N3_10 1_555 1_555
Cu4_4 O1_12 1_555 1_555
Cu7_4 O2_12 1_555 1_555
C1_12 H1_12 1_555 1_555
H2_12 C1_12 1_555 1_555
C2_12 C1_12 1_555 1_555
H3_12 C2_12 1_555 1_555
H4_12 C2_12 1_555 1_555
C3_12 C2_12 1_555 1_555
C4_12 C3_12 1_555 1_555
H5_12 C4_12 1_555 1_555
C5_11 C4_12 1_555 1_555
H6_11 C5_11 1_555 1_555
C6_11 C5_11 1_555 1_555
C7_11 C6_11 1_555 1_555
H7_11 C7_11 1_555 1_555
C8_11 C3_12 1_555 1_555
H8_11 C8_11 1_555 1_555
C9_11 C6_11 1_555 1_555
H9_11 C9_11 1_555 1_555
H10_11 C9_11 1_555 1_555
C10_11 H11_11 1_555 1_555
H12_11 C10_11 1_555 1_555
C11_11 C10_11 1_555 1_555
H13_11 C11_11 1_555 1_555
H14_11 C11_11 1_555 1_555
C12_11 H15_11 1_555 1_555
H16_11 C12_11 1_555 1_555
C13_11 C12_11 1_555 1_555
H17_11 C13_11 1_555 1_555
H18_11 C13_11 1_555 1_555
C14_11 H19_11 1_555 1_555
C26_12 C1_12 1_555 1_555
N1_11 Cu1_11 1_555 1_555
O1_12 C26_12 1_555 1_555
O2_12 C26_12 1_555 1_555
O5_12 Cu7_4 1_555 1_555
O6_12 Cu4_4 1_555 1_555
C27_12 H33_12 1_555 1_555
H34_12 C27_12 1_555 1_555
C28_12 C27_12 1_555 1_555
H35_12 C28_12 1_555 1_555
H36_12 C28_12 1_555 1_555
C29_12 C28_12 1_555 1_555
C30_12 C29_12 1_555 1_555
H37_12 C30_12 1_555 1_555
C31_11 C30_12 1_555 1_555
H38_11 C31_11 1_555 1_555
C32_11 C31_11 1_555 1_555
C33_11 C32_11 1_555 1_555
H39_11 C33_11 1_555 1_555
C34_11 C29_12 1_555 1_555
H40_11 C34_11 1_555 1_555
C35_11 C32_11 1_555 1_555
H41_11 C35_11 1_555 1_555
H42_11 C35_11 1_555 1_555
C36_11 C10_11 1_555 1_555
H43_11 C36_11 1_555 1_555
H44_11 C36_11 1_555 1_555
C37_11 H45_11 1_555 1_555
H46_11 C37_11 1_555 1_555
C38_11 C37_11 1_555 1_555
H47_11 C38_11 1_555 1_555
H48_11 C38_11 1_555 1_555
H49_11 C39_11 1_555 1_555
C50_12 C27_12 1_555 1_555
N3_11 Cu1_11 1_555 1_555
O11_4 C50_12 1_555 1_555
O12_4 C50_12 1_555 1_555
O13_6 Cu7_4 1_555 1_555
O14_6 Cu7_4 1_555 1_555
O15_6 Cu4_4 1_555 1_555
O16_6 Cu4_4 1_555 1_555
C7_11 C8_11 1_555 1_555
C9_11 N1_11 1_555 1_555
C11_11 N1_11 1_555 1_555
C12_11 N1_11 1_555 1_555
C33_11 C34_11 1_555 1_555
C35_11 N3_11 1_555 1_555
C36_11 N3_11 1_555 1_555
C37_11 N3_11 1_555 1_555
H21_12 C15_11 1_555 1_555
H22_11 C15_11 1_555 1_555
C16_11 H23_11 1_555 1_555
H24_11 C16_11 1_555 1_555
C17_11 C16_11 1_555 1_555
C18_11 C17_11 1_555 1_555
H25_11 C18_11 1_555 1_555
C19_12 C18_11 1_555 1_555
H26_12 C19_12 1_555 1_555
C20_11 C19_12 1_555 1_555
C21_11 C20_11 1_555 1_555
H27_11 C21_11 1_555 1_555
C22_11 C17_11 1_555 1_555
H28_11 C22_11 1_555 1_555
C23_12 C20_11 1_555 1_555
H29_12 C23_12 1_555 1_555
H30_11 C23_12 1_555 1_555
C24_12 C23_12 1_555 1_555
H31_12 C24_12 1_555 1_555
H32_12 C24_12 1_555 1_555
C25_12 C24_12 1_555 1_555
O3_9 C25_12 1_555 1_555
O4_9 C25_12 1_555 1_555
C40_11 H51_11 1_555 1_555
H52_11 C40_11 1_555 1_555
C41_11 C40_11 1_555 1_555
C42_11 C41_11 1_555 1_555
H53_11 C42_11 1_555 1_555
C43_12 C42_11 1_555 1_555
H54_12 C43_12 1_555 1_555
C44_11 C43_12 1_555 1_555
C45_11 C44_11 1_555 1_555
H55_11 C45_11 1_555 1_555
C46_11 C41_11 1_555 1_555
H56_11 C46_11 1_555 1_555
C47_12 C44_11 1_555 1_555
H57_12 C47_12 1_555 1_555
H58_11 C47_12 1_555 1_555
C48_12 C47_12 1_555 1_555
H59_12 C48_12 1_555 1_555
H60_12 C48_12 1_555 1_555
C49_12 C48_12 1_555 1_555
O9_9 C49_12 1_555 1_555
O10_9 C49_12 1_555 1_555
Cu6_6 O10_9 1_555 1_555
Cu5_3 O4_9 1_555 1_555
Cu9_6 O9_9 1_555 1_555
Cu8_3 O3_9 1_555 1_555
C16_11 N2_11 1_555 1_555
C21_11 C22_11 1_555 1_555
C40_11 N4_11 1_555 1_555
C45_11 C46_11 1_555 1_555
C45_12 C44_12 1_555 1_555
H55_12 C45_12 1_555 1_555
C47_13 C44_12 1_555 1_555
H57_13 C47_13 1_555 1_555
H58_12 C47_13 1_555 1_555
C48_13 C47_13 1_555 1_555
H59_13 C48_13 1_555 1_555
H60_13 C48_13 1_555 1_555
C49_13 C48_13 1_555 1_555
O14_4 C49_13 1_555 1_555
O16_4 C49_13 1_555 1_555
Cu1_12 Cl1_12 1_555 1_555
Cu2_3 O1_13 1_555 1_555
C1_13 H1_13 1_555 1_555
H2_13 C1_13 1_555 1_555
C2_13 C1_13 1_555 1_555
H3_13 C2_13 1_555 1_555
H4_13 C2_13 1_555 1_555
C3_13 C2_13 1_555 1_555
C4_13 C3_13 1_555 1_555
H5_13 C4_13 1_555 1_555
C5_12 C4_13 1_555 1_555
H6_12 C5_12 1_555 1_555
C6_12 C5_12 1_555 1_555
C7_12 C6_12 1_555 1_555
H7_12 C7_12 1_555 1_555
C8_12 C3_13 1_555 1_555
H8_12 C8_12 1_555 1_555
C9_12 C6_12 1_555 1_555
H9_12 C9_12 1_555 1_555
H10_12 C9_12 1_555 1_555
C10_12 H11_12 1_555 1_555
H12_12 C10_12 1_555 1_555
C11_12 C10_12 1_555 1_555
H13_12 C11_12 1_555 1_555
H14_12 C11_12 1_555 1_555
C12_12 H15_12 1_555 1_555
H16_12 C12_12 1_555 1_555
C13_12 C12_12 1_555 1_555
H17_12 C13_12 1_555 1_555
H18_12 C13_12 1_555 1_555
C14_12 H19_12 1_555 1_555
H20_12 C14_12 1_555 1_555
C15_12 C14_12 1_555 1_555
H21_13 C15_12 1_555 1_555
H22_12 C15_12 1_555 1_555
C16_12 H23_12 1_555 1_555
H24_12 C16_12 1_555 1_555
C17_12 C16_12 1_555 1_555
C18_12 C17_12 1_555 1_555
H25_12 C18_12 1_555 1_555
C19_13 C18_12 1_555 1_555
H26_13 C19_13 1_555 1_555
C22_12 C17_12 1_555 1_555
H28_12 C22_12 1_555 1_555
C26_13 C1_13 1_555 1_555
N1_12 Cu1_12 1_555 1_555
N2_12 Cu1_12 1_555 1_555
O1_13 C26_13 1_555 1_555
O2_13 C26_13 1_555 1_555
O6_13 Cu2_3 1_555 1_555
C27_13 H33_13 1_555 1_555
H34_13 C27_13 1_555 1_555
C28_13 C27_13 1_555 1_555
H35_13 C28_13 1_555 1_555
H36_13 C28_13 1_555 1_555
C29_13 C28_13 1_555 1_555
C30_13 C29_13 1_555 1_555
H37_13 C30_13 1_555 1_555
C31_12 C30_13 1_555 1_555
H38_12 C31_12 1_555 1_555
C32_12 C31_12 1_555 1_555
C33_12 C32_12 1_555 1_555
H39_12 C33_12 1_555 1_555
C34_12 C29_13 1_555 1_555
H40_12 C34_12 1_555 1_555
C35_12 C32_12 1_555 1_555
H41_12 C35_12 1_555 1_555
H42_12 C35_12 1_555 1_555
C36_12 C10_12 1_555 1_555
H43_12 C36_12 1_555 1_555
H44_12 C36_12 1_555 1_555
C37_12 H45_12 1_555 1_555
H46_12 C37_12 1_555 1_555
C38_12 C37_12 1_555 1_555
H47_12 C38_12 1_555 1_555
H48_12 C38_12 1_555 1_555
C39_12 C15_12 1_555 1_555
H49_12 C39_12 1_555 1_555
H50_12 C39_12 1_555 1_555
C40_12 H51_12 1_555 1_555
H52_12 C40_12 1_555 1_555
C41_12 C40_12 1_555 1_555
C42_12 C41_12 1_555 1_555
H53_12 C42_12 1_555 1_555
C43_13 C42_12 1_555 1_555
H54_13 C43_13 1_555 1_555
C46_12 C41_12 1_555 1_555
H56_12 C46_12 1_555 1_555
C50_13 C27_13 1_555 1_555
N3_12 Cu1_12 1_555 1_555
N4_12 Cu1_12 1_555 1_555
O7_9 C50_13 1_555 1_555
O8_9 C50_13 1_555 1_555
Cu4_5 O7_9 1_555 1_555
O11_5 Cu2_3 1_555 1_555
C7_12 C8_12 1_555 1_555
C9_12 N1_12 1_555 1_555
C11_12 N1_12 1_555 1_555
C12_12 N1_12 1_555 1_555
C13_12 N2_12 1_555 1_555
C14_12 N2_12 1_555 1_555
C16_12 N2_12 1_555 1_555
C33_12 C34_12 1_555 1_555
C35_12 N3_12 1_555 1_555
C36_12 N3_12 1_555 1_555
C37_12 N3_12 1_555 1_555
C38_12 N4_12 1_555 1_555
C39_12 N4_12 1_555 1_555
C40_12 N4_12 1_555 1_555
C21_12 C20_12 1_555 1_555
H27_12 C21_12 1_555 1_555
C23_13 C20_12 1_555 1_555
H29_13 C23_13 1_555 1_555
H30_12 C23_13 1_555 1_555
C24_13 C23_13 1_555 1_555
H31_13 C24_13 1_555 1_555
H32_13 C24_13 1_555 1_555
C25_13 C24_13 1_555 1_555
O13_5 C25_13 1_555 1_555
O15_5 C25_13 1_555 1_555
O5_13 Cu3_3 1_555 1_555
O13_7 Cu3_3 1_555 1_555
O14_7 Cu3_3 1_555 1_555
C21_13 C20_13 1_555 1_555
H27_13 C21_13 1_555 1_555
C23_14 C20_13 1_555 1_555
H29_14 C23_14 1_555 1_555
H30_13 C23_14 1_555 1_555
C24_14 C23_14 1_555 1_555
H31_14 C24_14 1_555 1_555
H32_14 C24_14 1_555 1_555
C25_14 C24_14 1_555 1_555
O13_6 C25_14 1_555 1_555
O15_6 C25_14 1_555 1_555
O5_14 Cu7_5 1_555 1_555
O13_8 Cu7_5 1_555 1_555
O14_8 Cu7_5 1_555 1_555
Cu1_13 Cl1_13 1_555 1_555
Cu4_5 O1_14 1_555 1_555
C1_14 H1_14 1_555 1_555
H2_14 C1_14 1_555 1_555
C2_14 C1_14 1_555 1_555
H3_14 C2_14 1_555 1_555
H4_14 C2_14 1_555 1_555
C3_14 C2_14 1_555 1_555
C4_14 C3_14 1_555 1_555
H5_14 C4_14 1_555 1_555
C5_13 C4_14 1_555 1_555
H6_13 C5_13 1_555 1_555
C6_13 C5_13 1_555 1_555
C7_13 C6_13 1_555 1_555
H7_13 C7_13 1_555 1_555
C8_13 C3_14 1_555 1_555
H8_13 C8_13 1_555 1_555
C9_13 C6_13 1_555 1_555
H9_13 C9_13 1_555 1_555
H10_13 C9_13 1_555 1_555
C10_13 H11_13 1_555 1_555
H12_13 C10_13 1_555 1_555
C11_13 C10_13 1_555 1_555
H13_13 C11_13 1_555 1_555
H14_13 C11_13 1_555 1_555
C12_13 H15_13 1_555 1_555
H16_13 C12_13 1_555 1_555
C13_13 C12_13 1_555 1_555
H17_13 C13_13 1_555 1_555
H18_13 C13_13 1_555 1_555
C14_13 H19_13 1_555 1_555
H20_13 C14_13 1_555 1_555
C15_13 C14_13 1_555 1_555
H21_14 C15_13 1_555 1_555
H22_13 C15_13 1_555 1_555
C16_13 H23_13 1_555 1_555
H24_13 C16_13 1_555 1_555
C17_13 C16_13 1_555 1_555
C18_13 C17_13 1_555 1_555
H25_13 C18_13 1_555 1_555
C19_14 C18_13 1_555 1_555
H26_14 C19_14 1_555 1_555
C22_13 C17_13 1_555 1_555
H28_13 C22_13 1_555 1_555
C26_14 C1_14 1_555 1_555
N1_13 Cu1_13 1_555 1_555
N2_13 Cu1_13 1_555 1_555
O1_14 C26_14 1_555 1_555
O2_14 C26_14 1_555 1_555
O6_14 Cu4_5 1_555 1_555
C27_14 H33_14 1_555 1_555
H34_14 C27_14 1_555 1_555
C28_14 C27_14 1_555 1_555
H35_14 C28_14 1_555 1_555
H36_14 C28_14 1_555 1_555
C29_14 C28_14 1_555 1_555
C30_14 C29_14 1_555 1_555
H37_14 C30_14 1_555 1_555
C31_13 C30_14 1_555 1_555
H38_13 C31_13 1_555 1_555
C32_13 C31_13 1_555 1_555
C33_13 C32_13 1_555 1_555
H39_13 C33_13 1_555 1_555
C34_13 C29_14 1_555 1_555
H40_13 C34_13 1_555 1_555
C35_13 C32_13 1_555 1_555
H41_13 C35_13 1_555 1_555
H42_13 C35_13 1_555 1_555
C36_13 C10_13 1_555 1_555
H43_13 C36_13 1_555 1_555
H44_13 C36_13 1_555 1_555
C37_13 H45_13 1_555 1_555
H46_13 C37_13 1_555 1_555
C38_13 C37_13 1_555 1_555
H47_13 C38_13 1_555 1_555
H48_13 C38_13 1_555 1_555
C39_13 C15_13 1_555 1_555
H49_13 C39_13 1_555 1_555
H50_13 C39_13 1_555 1_555
C40_13 H51_13 1_555 1_555
H52_13 C40_13 1_555 1_555
C41_13 C40_13 1_555 1_555
C42_13 C41_13 1_555 1_555
H53_13 C42_13 1_555 1_555
C43_14 C42_13 1_555 1_555
H54_14 C43_14 1_555 1_555
C44_13 C43_14 1_555 1_555
C45_13 C44_13 1_555 1_555
H55_13 C45_13 1_555 1_555
C46_13 C41_13 1_555 1_555
H56_13 C46_13 1_555 1_555
C47_14 C44_13 1_555 1_555
H57_14 C47_14 1_555 1_555
H58_13 C47_14 1_555 1_555
C48_14 C47_14 1_555 1_555
H59_14 C48_14 1_555 1_555
H60_14 C48_14 1_555 1_555
C49_14 C48_14 1_555 1_555
C50_14 C27_14 1_555 1_555
N3_13 Cu1_13 1_555 1_555
N4_13 Cu1_13 1_555 1_555
O7_10 C50_14 1_555 1_555
O8_10 C50_14 1_555 1_555
O14_5 C49_14 1_555 1_555
O16_5 C49_14 1_555 1_555
Cu4_6 O7_10 1_555 1_555
Cu7_6 O8_10 1_555 1_555
C7_13 C8_13 1_555 1_555
C9_13 N1_13 1_555 1_555
C11_13 N1_13 1_555 1_555
C12_13 N1_13 1_555 1_555
C13_13 N2_13 1_555 1_555
C14_13 N2_13 1_555 1_555
C16_13 N2_13 1_555 1_555
C33_13 C34_13 1_555 1_555
C35_13 N3_13 1_555 1_555
C36_13 N3_13 1_555 1_555
C37_13 N3_13 1_555 1_555
C38_13 N4_13 1_555 1_555
C39_13 N4_13 1_555 1_555
C40_13 N4_13 1_555 1_555
C45_13 C46_13 1_555 1_555
Cu1_14 Cl1_14 1_555 1_555
Cu4_6 O1_15 1_555 1_555
Cu7_6 O2_15 1_555 1_555
C1_15 H1_15 1_555 1_555
H2_15 C1_15 1_555 1_555
C2_15 C1_15 1_555 1_555
H3_15 C2_15 1_555 1_555
H4_15 C2_15 1_555 1_555
C3_15 C2_15 1_555 1_555
C4_15 C3_15 1_555 1_555
H5_15 C4_15 1_555 1_555
C5_14 C4_15 1_555 1_555
H6_14 C5_14 1_555 1_555
C6_14 C5_14 1_555 1_555
C7_14 C6_14 1_555 1_555
H7_14 C7_14 1_555 1_555
C8_14 C3_15 1_555 1_555
H8_14 C8_14 1_555 1_555
C9_14 C6_14 1_555 1_555
H9_14 C9_14 1_555 1_555
H10_14 C9_14 1_555 1_555
C10_14 H11_14 1_555 1_555
H12_14 C10_14 1_555 1_555
C11_14 C10_14 1_555 1_555
H13_14 C11_14 1_555 1_555
H14_14 C11_14 1_555 1_555
C12_14 H15_14 1_555 1_555
H16_14 C12_14 1_555 1_555
C13_14 C12_14 1_555 1_555
H17_14 C13_14 1_555 1_555
H18_14 C13_14 1_555 1_555
C14_14 H19_14 1_555 1_555
H20_14 C14_14 1_555 1_555
C15_14 C14_14 1_555 1_555
H21_15 C15_14 1_555 1_555
H22_14 C15_14 1_555 1_555
C16_14 H23_14 1_555 1_555
H24_14 C16_14 1_555 1_555
C17_14 C16_14 1_555 1_555
C18_14 C17_14 1_555 1_555
H25_14 C18_14 1_555 1_555
C19_15 C18_14 1_555 1_555
H26_15 C19_15 1_555 1_555
C20_14 C19_15 1_555 1_555
C21_14 C20_14 1_555 1_555
H27_14 C21_14 1_555 1_555
C22_14 C17_14 1_555 1_555
H28_14 C22_14 1_555 1_555
C23_15 C20_14 1_555 1_555
H29_15 C23_15 1_555 1_555
H30_14 C23_15 1_555 1_555
C24_15 C23_15 1_555 1_555
H31_15 C24_15 1_555 1_555
H32_15 C24_15 1_555 1_555
C25_15 C24_15 1_555 1_555
C26_15 C1_15 1_555 1_555
N1_14 Cu1_14 1_555 1_555
N2_14 Cu1_14 1_555 1_555
O1_15 C26_15 1_555 1_555
O2_15 C26_15 1_555 1_555
O13_4 C25_15 1_555 1_555
O15_4 C25_15 1_555 1_555
O5_15 Cu7_6 1_555 1_555
O6_15 Cu4_6 1_555 1_555
C27_15 H33_15 1_555 1_555
H34_15 C27_15 1_555 1_555
C28_15 C27_15 1_555 1_555
H35_15 C28_15 1_555 1_555
H36_15 C28_15 1_555 1_555
C29_15 C28_15 1_555 1_555
C30_15 C29_15 1_555 1_555
H37_15 C30_15 1_555 1_555
C31_14 C30_15 1_555 1_555
H38_14 C31_14 1_555 1_555
C32_14 C31_14 1_555 1_555
C33_14 C32_14 1_555 1_555
H39_14 C33_14 1_555 1_555
C34_14 C29_15 1_555 1_555
H40_14 C34_14 1_555 1_555
C35_14 C32_14 1_555 1_555
H41_14 C35_14 1_555 1_555
H42_14 C35_14 1_555 1_555
C36_14 C10_14 1_555 1_555
H43_14 C36_14 1_555 1_555
H44_14 C36_14 1_555 1_555
C37_14 H45_14 1_555 1_555
H46_14 C37_14 1_555 1_555
C38_14 C37_14 1_555 1_555
H47_14 C38_14 1_555 1_555
H48_14 C38_14 1_555 1_555
C39_14 C15_14 1_555 1_555
H49_14 C39_14 1_555 1_555
H50_14 C39_14 1_555 1_555
C40_14 H51_14 1_555 1_555
H52_14 C40_14 1_555 1_555
C41_14 C40_14 1_555 1_555
C42_14 C41_14 1_555 1_555
H53_14 C42_14 1_555 1_555
C43_15 C42_14 1_555 1_555
H54_15 C43_15 1_555 1_555
C46_14 C41_14 1_555 1_555
H56_14 C46_14 1_555 1_555
C50_15 C27_15 1_555 1_555
N3_14 Cu1_14 1_555 1_555
N4_14 Cu1_14 1_555 1_555
O11_5 C50_15 1_555 1_555
O12_5 C50_15 1_555 1_555
O13_9 Cu7_6 1_555 1_555
O14_9 Cu7_6 1_555 1_555
O15_9 Cu4_6 1_555 1_555
O16_9 Cu4_6 1_555 1_555
C7_14 C8_14 1_555 1_555
C9_14 N1_14 1_555 1_555
C11_14 N1_14 1_555 1_555
C12_14 N1_14 1_555 1_555
C13_14 N2_14 1_555 1_555
C14_14 N2_14 1_555 1_555
C16_14 N2_14 1_555 1_555
C21_14 C22_14 1_555 1_555
C33_14 C34_14 1_555 1_555
C35_14 N3_14 1_555 1_555
C36_14 N3_14 1_555 1_555
C37_14 N3_14 1_555 1_555
C38_14 N4_14 1_555 1_555
C39_14 N4_14 1_555 1_555
C40_14 N4_14 1_555 1_555
C45_14 C44_14 1_555 1_555
H55_14 C45_14 1_555 1_555
C47_15 C44_14 1_555 1_555
H57_15 C47_15 1_555 1_555
H58_14 C47_15 1_555 1_555
C48_15 C47_15 1_555 1_555
H59_15 C48_15 1_555 1_555
H60_15 C48_15 1_555 1_555
C49_15 C48_15 1_555 1_555
O14_6 C49_15 1_555 1_555
O16_6 C49_15 1_555 1_555
C27_16 H33_16 1_555 1_555
H34_16 C27_16 1_555 1_555
C28_16 C27_16 1_555 1_555
H35_16 C28_16 1_555 1_555
H36_16 C28_16 1_555 1_555
C29_16 C28_16 1_555 1_555
C30_16 C29_16 1_555 1_555
H37_16 C30_16 1_555 1_555
C50_16 C27_16 1_555 1_555
O7_11 C50_16 1_555 1_555
O8_11 C50_16 1_555 1_555
Cu6_5 O7_11 1_555 1_555
Cu9_5 O8_11 1_555 1_555
H26_16 C19_16 1_555 1_555
H29_16 C23_16 1_555 1_555
C24_16 C23_16 1_555 1_555
H31_16 C24_16 1_555 1_555
H32_16 C24_16 1_555 1_555
C25_16 C24_16 1_555 1_555
O13_8 C25_16 1_555 1_555
O15_8 C25_16 1_555 1_555
H54_16 C43_16 1_555 1_555
H57_16 C47_16 1_555 1_555
C48_16 C47_16 1_555 1_555
H59_16 C48_16 1_555 1_555
H60_16 C48_16 1_555 1_555
C49_16 C48_16 1_555 1_555
O14_7 C49_16 1_555 1_555
O16_7 C49_16 1_555 1_555
Cu5_3 O1_16 1_555 1_555
Cu8_3 O2_16 1_555 1_555
C1_16 H1_16 1_555 1_555
H2_16 C1_16 1_555 1_555
C2_16 C1_16 1_555 1_555
H3_16 C2_16 1_555 1_555
H4_16 C2_16 1_555 1_555
C3_16 C2_16 1_555 1_555
C4_16 C3_16 1_555 1_555
H5_16 C4_16 1_555 1_555
C26_16 C1_16 1_555 1_555
O1_16 C26_16 1_555 1_555
O2_16 C26_16 1_555 1_555
O5_16 Cu8_3 1_555 1_555
O6_16 Cu5_3 1_555 1_555
O11_6 Cu5_3 1_555 1_555
O12_6 Cu8_3 1_555 1_555
Cu1_15 Cl1_15 1_555 1_555
Cu6_5 O1_17 1_555 1_555
Cu9_5 O2_17 1_555 1_555
C1_17 H1_17 1_555 1_555
H2_17 C1_17 1_555 1_555
C2_17 C1_17 1_555 1_555
H3_17 C2_17 1_555 1_555
H4_17 C2_17 1_555 1_555
C3_17 C2_17 1_555 1_555
C4_17 C3_17 1_555 1_555
H5_17 C4_17 1_555 1_555
C5_15 C4_17 1_555 1_555
H6_15 C5_15 1_555 1_555
C6_15 C5_15 1_555 1_555
C7_15 C6_15 1_555 1_555
H7_15 C7_15 1_555 1_555
C8_15 C3_17 1_555 1_555
H8_15 C8_15 1_555 1_555
C9_15 C6_15 1_555 1_555
H9_15 C9_15 1_555 1_555
H10_15 C9_15 1_555 1_555
C10_15 H11_15 1_555 1_555
H12_15 C10_15 1_555 1_555
C11_15 C10_15 1_555 1_555
H13_15 C11_15 1_555 1_555
H14_15 C11_15 1_555 1_555
C12_15 H15_15 1_555 1_555
H16_15 C12_15 1_555 1_555
C13_15 C12_15 1_555 1_555
H17_15 C13_15 1_555 1_555
H18_15 C13_15 1_555 1_555
C14_15 H19_15 1_555 1_555
H20_15 C14_15 1_555 1_555
C15_15 C14_15 1_555 1_555
H22_15 C15_15 1_555 1_555
C16_15 H23_15 1_555 1_555
H24_15 C16_15 1_555 1_555
C17_15 C16_15 1_555 1_555
C18_15 C17_15 1_555 1_555
H25_15 C18_15 1_555 1_555
C21_15 C20_15 1_555 1_555
H27_15 C21_15 1_555 1_555
C22_15 C17_15 1_555 1_555
H28_15 C22_15 1_555 1_555
C26_17 C1_17 1_555 1_555
N1_15 Cu1_15 1_555 1_555
N2_15 Cu1_15 1_555 1_555
O1_17 C26_17 1_555 1_555
O2_17 C26_17 1_555 1_555
O5_17 Cu9_5 1_555 1_555
O6_17 Cu6_5 1_555 1_555
H38_15 C31_15 1_555 1_555
C32_15 C31_15 1_555 1_555
C33_15 C32_15 1_555 1_555
H39_15 C33_15 1_555 1_555
H40_15 C34_15 1_555 1_555
C35_15 C32_15 1_555 1_555
H41_15 C35_15 1_555 1_555
H42_15 C35_15 1_555 1_555
C36_15 C10_15 1_555 1_555
H43_15 C36_15 1_555 1_555
H44_15 C36_15 1_555 1_555
C37_15 H45_15 1_555 1_555
H46_15 C37_15 1_555 1_555
C38_15 C37_15 1_555 1_555
H47_15 C38_15 1_555 1_555
H48_15 C38_15 1_555 1_555
C39_15 C15_15 1_555 1_555
H49_15 C39_15 1_555 1_555
H50_15 C39_15 1_555 1_555
C40_15 H51_15 1_555 1_555
H52_15 C40_15 1_555 1_555
C41_15 C40_15 1_555 1_555
C42_15 C41_15 1_555 1_555
H53_15 C42_15 1_555 1_555
C45_15 C44_15 1_555 1_555
H55_15 C45_15 1_555 1_555
C46_15 C41_15 1_555 1_555
H56_15 C46_15 1_555 1_555
N3_15 Cu1_15 1_555 1_555
N4_15 Cu1_15 1_555 1_555
C7_15 C8_15 1_555 1_555
C9_15 N1_15 1_555 1_555
C11_15 N1_15 1_555 1_555
C12_15 N1_15 1_555 1_555
C13_15 N2_15 1_555 1_555
C14_15 N2_15 1_555 1_555
C16_15 N2_15 1_555 1_555
C21_15 C22_15 1_555 1_555
C33_15 C34_15 1_555 1_555
C35_15 N3_15 1_555 1_555
C36_15 N3_15 1_555 1_555
C37_15 N3_15 1_555 1_555
C38_15 N4_15 1_555 1_555
C39_15 N4_15 1_555 1_555
C40_15 N4_15 1_555 1_555
C45_15 C46_15 1_555 1_555
H26_17 C19_17 1_555 1_555
H29_17 C23_17 1_555 1_555
C24_17 C23_17 1_555 1_555
H31_17 C24_17 1_555 1_555
H32_17 C24_17 1_555 1_555
C25_17 C24_17 1_555 1_555
O13_9 C25_17 1_555 1_555
O15_9 C25_17 1_555 1_555
H54_17 C43_17 1_555 1_555
H57_17 C47_17 1_555 1_555
C48_17 C47_17 1_555 1_555
H59_17 C48_17 1_555 1_555
H60_17 C48_17 1_555 1_555
C49_17 C48_17 1_555 1_555
O14_8 C49_17 1_555 1_555
O16_8 C49_17 1_555 1_555
C27_17 H33_17 1_555 1_555
H34_17 C27_17 1_555 1_555
C28_17 C27_17 1_555 1_555
H35_17 C28_17 1_555 1_555
H36_17 C28_17 1_555 1_555
C29_17 C28_17 1_555 1_555
C30_17 C29_17 1_555 1_555
H37_17 C30_17 1_555 1_555
C50_17 C27_17 1_555 1_555
O7_12 C50_17 1_555 1_555
O8_12 C50_17 1_555 1_555
Cu6_6 O7_12 1_555 1_555
Cu9_6 O8_12 1_555 1_555
Cu6_6 O1_18 1_555 1_555
Cu9_6 O2_18 1_555 1_555
C1_18 H1_18 1_555 1_555
H2_18 C1_18 1_555 1_555
C2_18 C1_18 1_555 1_555
H3_18 C2_18 1_555 1_555
H4_18 C2_18 1_555 1_555
C3_18 C2_18 1_555 1_555
C4_18 C3_18 1_555 1_555
H5_18 C4_18 1_555 1_555
C26_18 C1_18 1_555 1_555
O1_18 C26_18 1_555 1_555
O2_18 C26_18 1_555 1_555
O5_18 Cu9_6 1_555 1_555
O6_18 Cu6_6 1_555 1_555
Cu1_16 Cl1_16 1_555 1_555
H6_16 C5_16 1_555 1_555
C6_16 C5_16 1_555 1_555
C7_16 C6_16 1_555 1_555
H7_16 C7_16 1_555 1_555
H8_16 C8_16 1_555 1_555
C9_16 C6_16 1_555 1_555
H9_16 C9_16 1_555 1_555
H10_16 C9_16 1_555 1_555
C10_16 H11_16 1_555 1_555
H12_16 C10_16 1_555 1_555
C11_16 C10_16 1_555 1_555
H13_16 C11_16 1_555 1_555
H14_16 C11_16 1_555 1_555
C12_16 H15_16 1_555 1_555
H16_16 C12_16 1_555 1_555
C13_16 C12_16 1_555 1_555
H17_16 C13_16 1_555 1_555
H18_16 C13_16 1_555 1_555
C14_16 H19_16 1_555 1_555
H20_16 C14_16 1_555 1_555
C15_16 C14_16 1_555 1_555
H22_16 C15_16 1_555 1_555
C16_16 H23_16 1_555 1_555
H24_16 C16_16 1_555 1_555
C17_16 C16_16 1_555 1_555
C18_16 C17_16 1_555 1_555
H25_16 C18_16 1_555 1_555
C21_16 C20_16 1_555 1_555
H27_16 C21_16 1_555 1_555
C22_16 C17_16 1_555 1_555
H28_16 C22_16 1_555 1_555
N1_16 Cu1_16 1_555 1_555
N2_16 Cu1_16 1_555 1_555
C27_18 H33_18 1_555 1_555
H34_18 C27_18 1_555 1_555
C28_18 C27_18 1_555 1_555
H35_18 C28_18 1_555 1_555
H36_18 C28_18 1_555 1_555
C29_18 C28_18 1_555 1_555
C30_18 C29_18 1_555 1_555
H37_18 C30_18 1_555 1_555
C31_16 C30_18 1_555 1_555
H38_16 C31_16 1_555 1_555
C32_16 C31_16 1_555 1_555
C33_16 C32_16 1_555 1_555
H39_16 C33_16 1_555 1_555
C34_16 C29_18 1_555 1_555
H40_16 C34_16 1_555 1_555
C35_16 C32_16 1_555 1_555
H41_16 C35_16 1_555 1_555
H42_16 C35_16 1_555 1_555
C36_16 C10_16 1_555 1_555
H43_16 C36_16 1_555 1_555
H44_16 C36_16 1_555 1_555
C37_16 H45_16 1_555 1_555
H46_16 C37_16 1_555 1_555
C38_16 C37_16 1_555 1_555
H47_16 C38_16 1_555 1_555
H48_16 C38_16 1_555 1_555
C39_16 C15_16 1_555 1_555
H49_16 C39_16 1_555 1_555
H50_16 C39_16 1_555 1_555
C40_16 H51_16 1_555 1_555
H52_16 C40_16 1_555 1_555
C41_16 C40_16 1_555 1_555
C42_16 C41_16 1_555 1_555
H53_16 C42_16 1_555 1_555
C45_16 C44_16 1_555 1_555
H55_16 C45_16 1_555 1_555
C46_16 C41_16 1_555 1_555
H56_16 C46_16 1_555 1_555
C50_18 C27_18 1_555 1_555
N3_16 Cu1_16 1_555 1_555
N4_16 Cu1_16 1_555 1_555
O11_6 C50_18 1_555 1_555
O12_6 C50_18 1_555 1_555
C7_16 C8_16 1_555 1_555
C9_16 N1_16 1_555 1_555
C11_16 N1_16 1_555 1_555
C12_16 N1_16 1_555 1_555
C13_16 N2_16 1_555 1_555
C14_16 N2_16 1_555 1_555
C16_16 N2_16 1_555 1_555
C21_16 C22_16 1_555 1_555
C33_16 C34_16 1_555 1_555
C35_16 N3_16 1_555 1_555
C36_16 N3_16 1_555 1_555
C37_16 N3_16 1_555 1_555
C38_16 N4_16 1_555 1_555
C39_16 N4_16 1_555 1_555
C40_16 N4_16 1_555 1_555
C45_16 C46_16 1_555 1_555
H26_18 C19_18 1_555 1_555
H29_18 C23_18 1_555 1_555
C24_18 C23_18 1_555 1_555
H31_18 C24_18 1_555 1_555
H32_18 C24_18 1_555 1_555
C25_18 C24_18 1_555 1_555
O13_7 C25_18 1_555 1_555
O15_7 C25_18 1_555 1_555
H54_18 C43_18 1_555 1_555
H57_18 C47_18 1_555 1_555
C48_18 C47_18 1_555 1_555
H59_18 C48_18 1_555 1_555
H60_18 C48_18 1_555 1_555
C49_18 C48_18 1_555 1_555
O14_9 C49_18 1_555 1_555
O16_9 C49_18 1_555 1_555
Cu1_17 Cl1_17 1_555 1_555
H6_17 C5_17 1_555 1_555
C6_17 C5_17 1_555 1_555
C7_17 C6_17 1_555 1_555
H7_17 C7_17 1_555 1_555
H8_17 C8_17 1_555 1_555
C9_17 C6_17 1_555 1_555
H9_17 C9_17 1_555 1_555
H10_17 C9_17 1_555 1_555
C10_17 H11_17 1_555 1_555
H12_17 C10_17 1_555 1_555
C11_17 C10_17 1_555 1_555
H13_17 C11_17 1_555 1_555
H14_17 C11_17 1_555 1_555
C12_17 H15_17 1_555 1_555
H16_17 C12_17 1_555 1_555
C13_17 C12_17 1_555 1_555
H17_17 C13_17 1_555 1_555
H18_17 C13_17 1_555 1_555
C14_17 H19_17 1_555 1_555
H20_17 C14_17 1_555 1_555
C15_17 C14_17 1_555 1_555
H22_17 C15_17 1_555 1_555
C16_17 H23_17 1_555 1_555
H24_17 C16_17 1_555 1_555
C17_17 C16_17 1_555 1_555
C18_17 C17_17 1_555 1_555
H25_17 C18_17 1_555 1_555
C21_17 C20_17 1_555 1_555
H27_17 C21_17 1_555 1_555
C22_17 C17_17 1_555 1_555
H28_17 C22_17 1_555 1_555
N1_17 Cu1_17 1_555 1_555
N2_17 Cu1_17 1_555 1_555
H38_17 C31_17 1_555 1_555
C32_17 C31_17 1_555 1_555
C33_17 C32_17 1_555 1_555
H39_17 C33_17 1_555 1_555
H40_17 C34_17 1_555 1_555
C35_17 C32_17 1_555 1_555
H41_17 C35_17 1_555 1_555
H42_17 C35_17 1_555 1_555
C36_17 C10_17 1_555 1_555
H43_17 C36_17 1_555 1_555
H44_17 C36_17 1_555 1_555
C37_17 H45_17 1_555 1_555
H46_17 C37_17 1_555 1_555
C38_17 C37_17 1_555 1_555
H47_17 C38_17 1_555 1_555
H48_17 C38_17 1_555 1_555
C39_17 C15_17 1_555 1_555
H49_17 C39_17 1_555 1_555
H50_17 C39_17 1_555 1_555
C40_17 H51_17 1_555 1_555
H52_17 C40_17 1_555 1_555
C41_17 C40_17 1_555 1_555
C42_17 C41_17 1_555 1_555
H53_17 C42_17 1_555 1_555
C45_17 C44_17 1_555 1_555
H55_17 C45_17 1_555 1_555
C46_17 C41_17 1_555 1_555
H56_17 C46_17 1_555 1_555
N3_17 Cu1_17 1_555 1_555
N4_17 Cu1_17 1_555 1_555
C7_17 C8_17 1_555 1_555
C9_17 N1_17 1_555 1_555
C11_17 N1_17 1_555 1_555
C12_17 N1_17 1_555 1_555
C13_17 N2_17 1_555 1_555
C14_17 N2_17 1_555 1_555
C16_17 N2_17 1_555 1_555
C21_17 C22_17 1_555 1_555
C33_17 C34_17 1_555 1_555
C35_17 N3_17 1_555 1_555
C36_17 N3_17 1_555 1_555
C37_17 N3_17 1_555 1_555
C38_17 N4_17 1_555 1_555
C39_17 N4_17 1_555 1_555
C40_17 N4_17 1_555 1_555
C45_17 C46_17 1_555 1_555
Cu1_18 Cl1_18 1_555 1_555
H6_18 C5_18 1_555 1_555
C6_18 C5_18 1_555 1_555
C7_18 C6_18 1_555 1_555
H7_18 C7_18 1_555 1_555
H8_18 C8_18 1_555 1_555
C9_18 C6_18 1_555 1_555
H9_18 C9_18 1_555 1_555
H10_18 C9_18 1_555 1_555
C10_18 H11_18 1_555 1_555
H12_18 C10_18 1_555 1_555
C11_18 C10_18 1_555 1_555
H13_18 C11_18 1_555 1_555
H14_18 C11_18 1_555 1_555
C12_18 H15_18 1_555 1_555
H16_18 C12_18 1_555 1_555
C13_18 C12_18 1_555 1_555
H17_18 C13_18 1_555 1_555
H18_18 C13_18 1_555 1_555
C14_18 H19_18 1_555 1_555
H20_18 C14_18 1_555 1_555
C15_18 C14_18 1_555 1_555
H22_18 C15_18 1_555 1_555
C16_18 H23_18 1_555 1_555
H24_18 C16_18 1_555 1_555
C17_18 C16_18 1_555 1_555
C18_18 C17_18 1_555 1_555
H25_18 C18_18 1_555 1_555
C21_18 C20_18 1_555 1_555
H27_18 C21_18 1_555 1_555
C22_18 C17_18 1_555 1_555
H28_18 C22_18 1_555 1_555
N1_18 Cu1_18 1_555 1_555
N2_18 Cu1_18 1_555 1_555
H38_18 C31_18 1_555 1_555
C32_18 C31_18 1_555 1_555
C33_18 C32_18 1_555 1_555
H39_18 C33_18 1_555 1_555
H40_18 C34_18 1_555 1_555
C35_18 C32_18 1_555 1_555
H41_18 C35_18 1_555 1_555
H42_18 C35_18 1_555 1_555
C36_18 C10_18 1_555 1_555
H43_18 C36_18 1_555 1_555
H44_18 C36_18 1_555 1_555
C37_18 H45_18 1_555 1_555
H46_18 C37_18 1_555 1_555
C38_18 C37_18 1_555 1_555
H47_18 C38_18 1_555 1_555
H48_18 C38_18 1_555 1_555
C39_18 C15_18 1_555 1_555
H49_18 C39_18 1_555 1_555
H50_18 C39_18 1_555 1_555
C40_18 H51_18 1_555 1_555
H52_18 C40_18 1_555 1_555
C41_18 C40_18 1_555 1_555
C42_18 C41_18 1_555 1_555
H53_18 C42_18 1_555 1_555
C45_18 C44_18 1_555 1_555
H55_18 C45_18 1_555 1_555
C46_18 C41_18 1_555 1_555
H56_18 C46_18 1_555 1_555
N3_18 Cu1_18 1_555 1_555
N4_18 Cu1_18 1_555 1_555
C7_18 C8_18 1_555 1_555
C9_18 N1_18 1_555 1_555
C11_18 N1_18 1_555 1_555
C12_18 N1_18 1_555 1_555
C13_18 N2_18 1_555 1_555
C14_18 N2_18 1_555 1_555
C16_18 N2_18 1_555 1_555
C21_18 C22_18 1_555 1_555
C33_18 C34_18 1_555 1_555
C35_18 N3_18 1_555 1_555
C36_18 N3_18 1_555 1_555
C37_18 N3_18 1_555 1_555
C38_18 N4_18 1_555 1_555
C39_18 N4_18 1_555 1_555
C40_18 N4_18 1_555 1_555
C45_18 C46_18 1_555 1_555

#END
