
###############################################################################
#
# This file contains modified crystal structure data generated from the
# MOF subset of the Cambridge Structural Database (CSD) v543 
# hosted by the Cambridge Crystallographic Data Centre (CCDC).
#
# This work is licensed under the Creative Commons
# Attribution-NonCommercial-ShareAlike 4.0 International License.
# To view a copy of this license, visit
# http://creativecommons.org/licenses/by-nc-sa/4.0/
# or send a letter to
# Creative Commons, PO Box 1866, Mountain View, CA 94042, USA.
#
# CIF created using the CSD Python API on 29 September 2022
# The structure has been converted into the P1 space group
# The structure has a 3D framework
# The original CSD entry AMUWIP is in the orthorhombic crystal system
# The framework has been calculated to contain at least 10.0% void space
# The void calculation uses a probe of radius 1.32A, grid spacing 0.4
# The framework is charged, counterions have been retained in the structure
#
###############################################################################

data_AMUWIP
_chemical_formula_moiety         '(C528 H384 Cu33 I12 N48 S26 W7 2-)n'
_symmetry_cell_setting           triclinic
_symmetry_space_group_name_H-M   'P 1'
_symmetry_Int_Tables_number      1
_space_group_name_Hall           'P 1'
loop_
_symmetry_equiv_pos_site_id
_symmetry_equiv_pos_as_xyz
1 x,y,z
_cell_length_a                   25.433(1)
_cell_length_b                   31.146(2)
_cell_length_c                   20.939(1)
_cell_angle_alpha                90
_cell_angle_beta                 90
_cell_angle_gamma                90
_cell_volume                     16586.5
loop_
_atom_site_label
_atom_site_type_symbol
_atom_site_fract_x
_atom_site_fract_y
_atom_site_fract_z
H49 H 0.0092 0.4097 0.1426
Cu6 Cu 0.0000 0.5000 0.20046(8)
Cu1 Cu 0.0000 0.5000 0.45677(8)
S1 S 0.04803(7) 0.54269(6) 0.38909(11)
W1 W 0.0000 0.5000 0.32792(2)
C45 C 0.1036(3) 0.4673(3) 0.5042(4)
H33 H 0.1172 0.4910 0.4830
C46 C 0.1373(3) 0.4403(3) 0.5293(4)
H34 H 0.1728 0.4473 0.5292
C47 C 0.1216(3) 0.4018(3) 0.5558(5)
C48 C 0.0677(3) 0.3937(2) 0.5594(4)
H35 H 0.0537 0.3697 0.5795
C49 C 0.0358(3) 0.4261(3) 0.5290(4)
H36 H 0.0004 0.4192 0.5248
C50 C 0.1570(3) 0.3679(2) 0.5798(4)
C51 C 0.2089(3) 0.3786(2) 0.5925(4)
H37 H 0.2208 0.4062 0.5837
C52 C 0.2440(3) 0.3481(3) 0.6187(4)
H38 H 0.2783 0.3566 0.6272
C53 C 0.2303(3) 0.3081(3) 0.6316(4)
C54 C 0.1768(4) 0.2982(3) 0.6216(5)
H39 H 0.1644 0.2712 0.6334
C55 C 0.1419(3) 0.3275(3) 0.5947(4)
H40 H 0.1075 0.3190 0.5866
C56 C 0.2680(3) 0.2785(3) 0.6613(5)
C57 C 0.3093(4) 0.2894(3) 0.6952(4)
H41 H 0.3135 0.3185 0.7035
C58 C 0.3478(3) 0.2617(3) 0.7202(4)
H42 H 0.3768 0.2722 0.7423
C59 C 0.3406(3) 0.2189(3) 0.7105(4)
C60 C 0.2963(4) 0.2042(3) 0.6780(5)
H43 H 0.2906 0.1749 0.6731
C61 C 0.2602(3) 0.2342(3) 0.6524(4)
H44 H 0.2311 0.2246 0.6296
C62 C 0.4685(3) 0.1678(3) 0.7635(5)
H45 H 0.5033 0.1762 0.7691
C63 C 0.4347(3) 0.1957(2) 0.7409(5)
H46 H 0.4465 0.2231 0.7303
C64 C 0.3791(3) 0.1852(3) 0.7318(5)
C65 C 0.3668(3) 0.1439(3) 0.7442(4)
H47 H 0.3337 0.1332 0.7342
C66 C 0.4058(3) 0.1171(3) 0.7731(5)
H48 H 0.3959 0.0903 0.7887
H54 H 0.8543 0.2689 0.9912
C75 C 0.7874(3) 0.3060(3) 0.9960(5)
C78 C 0.7520(3) 0.2740(3) 0.9717(4)
C79 C 0.7620(4) 0.2306(3) 0.9784(5)
H57 H 0.7938 0.2213 0.9952
C80 C 0.7236(3) 0.2006(3) 0.9597(5)
H58 H 0.7303 0.1714 0.9639
C81 C 0.6750(3) 0.2144(3) 0.9348(5)
C82 C 0.6667(4) 0.2582(3) 0.9278(5)
H59 H 0.6353 0.2679 0.9103
C83 C 0.7043(4) 0.2874(3) 0.9465(5)
H60 H 0.6976 0.3167 0.9423
C84 C 0.5441(3) 0.1674(3) 0.8902(4)
H61 H 0.5095 0.1766 0.8862
C85 C 0.5801(3) 0.1956(3) 0.9099(4)
H62 H 0.5703 0.2234 0.9209
C86 C 0.6338(3) 0.1825(3) 0.9139(4)
C87 C 0.6433(4) 0.1402(3) 0.9009(5)
H63 H 0.6771 0.1293 0.9060
C88 C 0.6061(3) 0.1150(3) 0.8816(4)
H64 H 0.6152 0.0871 0.8708
Cu7 Cu 0.50415(3) 0.08630(3) 0.82722(6)
Cu9 Cu 0.00415(3) 0.41370(3) 0.32722(6)
N5 N 0.0491(3) 0.4633(2) 0.5068(4)
N6 N 0.4554(3) 0.1291(2) 0.7783(4)
N9 N 0.5552(2) 0.1261(2) 0.8759(4)
S5 S 0.45197(7) 0.04269(6) 0.88909(11)
S6 S 0.05342(8) 0.46090(6) 0.26626(11)
S10 S 0.55342(8) 0.03910(6) 0.76626(11)
Cu4 Cu 0.5000 0.0000 0.70046(8)
W2 W 0.5000 0.0000 0.82792(2)
C23 C 0.0251(3) 0.5825(3) 0.1324(4)
C24 C 0.0567(3) 0.6121(3) 0.1045(5)
H18 H 0.0448 0.6401 0.0990
C25 C 0.1063(3) 0.6009(3) 0.0841(5)
C26 C 0.1211(3) 0.5601(3) 0.0926(5)
H19 H 0.1540 0.5511 0.0786
C27 C 0.0888(4) 0.5324(3) 0.1209(5)
H20 H 0.0997 0.5039 0.1238
C28 C 0.1398(3) 0.6333(3) 0.0498(5)
C29 C 0.1234(3) 0.6740(3) 0.0309(4)
H21 H 0.0883 0.6815 0.0364
C30 C 0.1582(3) 0.7043(3) 0.0039(5)
C32 C 0.2273(3) 0.6559(3) 0.0160(4)
H23 H 0.2628 0.6491 0.0126
C33 C 0.1937(3) 0.6244(3) 0.0422(5)
H24 H 0.2071 0.5979 0.0544
N3 N 0.0412(3) 0.5427(2) 0.1460(4)
H45_2 H 0.0033 0.3238 0.2691
C67 C 0.4749(3) 0.0825(3) 0.6324(4)
H49_2 H 0.5092 0.0903 0.6426
C68 C 0.4433(3) 0.1121(3) 0.6045(5)
H50 H 0.4552 0.1401 0.5990
C69 C 0.3937(3) 0.1009(3) 0.5841(5)
C70 C 0.3789(3) 0.0601(3) 0.5926(5)
H51 H 0.3460 0.0511 0.5786
C71 C 0.4112(4) 0.0324(3) 0.6209(5)
H52 H 0.4003 0.0039 0.6238
C72 C 0.3602(3) 0.1333(3) 0.5498(5)
C73 C 0.3766(3) 0.1740(3) 0.5309(4)
H53 H 0.4117 0.1815 0.5364
C74 C 0.3418(3) 0.2043(3) 0.5039(5)
H54_2 H 0.3543 0.2311 0.4912
C75_2 C 0.2874(3) 0.1940(3) 0.4960(5)
C76 C 0.2727(3) 0.1559(3) 0.5160(4)
H55 H 0.2372 0.1491 0.5126
C77 C 0.3063(3) 0.1244(3) 0.5422(5)
H56 H 0.2929 0.0979 0.5544
C78_2 C 0.2520(3) 0.2260(3) 0.4717(4)
C79_2 C 0.2620(4) 0.2694(3) 0.4784(5)
H57_2 H 0.2938 0.2787 0.4952
C80_2 C 0.2236(3) 0.2994(3) 0.4597(5)
H58_2 H 0.2303 0.3286 0.4639
C81_2 C 0.1750(3) 0.2856(3) 0.4348(5)
C82_2 C 0.1667(4) 0.2418(3) 0.4278(5)
H59_2 H 0.1353 0.2321 0.4103
C83_2 C 0.2043(4) 0.2126(3) 0.4465(5)
H60_2 H 0.1976 0.1833 0.4423
C84_2 C 0.0441(3) 0.3326(3) 0.3902(4)
H61_2 H 0.0095 0.3234 0.3862
C85_2 C 0.0801(3) 0.3044(3) 0.4099(4)
H62_2 H 0.0703 0.2766 0.4209
C86_2 C 0.1338(3) 0.3175(3) 0.4139(4)
C87_2 C 0.1433(4) 0.3598(3) 0.4009(5)
H63_2 H 0.1771 0.3707 0.4060
C88_2 C 0.1061(3) 0.3850(3) 0.3816(4)
H64_2 H 0.1152 0.4129 0.3708
N7 N 0.4588(3) 0.0427(2) 0.6460(4)
N9_2 N 0.0552(2) 0.3739(2) 0.3759(4)
Cu1_2 Cu 0.5000 -0.0000 0.95677(8)
H33_2 H 0.6172 0.0090 0.9830
C1 C 0.3964(3) 0.9673(3) 0.0042(4)
C2 C 0.3627(3) 0.9403(3) 0.0293(4)
H2 H 0.3272 0.9473 0.0292
C3 C 0.3784(3) 0.9018(3) 0.0558(5)
C4 C 0.4323(3) 0.8937(2) 0.0594(4)
H3 H 0.4463 0.8697 0.0795
C5 C 0.4642(3) 0.9261(3) 0.0290(4)
H4 H 0.4996 0.9192 0.0248
C6 C 0.3430(3) 0.8679(2) 0.0798(4)
C7 C 0.2911(3) 0.8786(2) 0.0925(4)
H5 H 0.2792 0.9062 0.0837
C8 C 0.2560(3) 0.8481(3) 0.1187(4)
H6 H 0.2217 0.8566 0.1272
C9 C 0.2697(3) 0.8081(3) 0.1316(4)
C10 C 0.3232(4) 0.7982(3) 0.1216(5)
H7 H 0.3356 0.7712 0.1334
C11 C 0.3581(3) 0.8275(3) 0.0947(4)
H8 H 0.3925 0.8190 0.0866
C12 C 0.2320(3) 0.7785(3) 0.1613(5)
C13 C 0.1907(4) 0.7894(3) 0.1952(4)
H9 H 0.1865 0.8185 0.2035
C14 C 0.1522(3) 0.7617(3) 0.2202(4)
H10 H 0.1232 0.7722 0.2423
C15 C 0.1594(3) 0.7189(3) 0.2105(4)
C16 C 0.2037(4) 0.7042(3) 0.1780(5)
H11 H 0.2094 0.6749 0.1731
C17 C 0.2398(3) 0.7342(3) 0.1524(4)
H12 H 0.2689 0.7246 0.1296
C18 C 0.0315(3) 0.6678(3) 0.2635(5)
C19 C 0.0653(3) 0.6957(2) 0.2409(5)
H14 H 0.0535 0.7231 0.2303
C20 C 0.1209(3) 0.6852(3) 0.2318(5)
C21 C 0.1332(3) 0.6439(3) 0.2442(4)
H15 H 0.1663 0.6332 0.2342
C22 C 0.0942(3) 0.6171(3) 0.2731(5)
H16 H 0.1041 0.5903 0.2887
N1 N 0.4509(3) 0.9633(2) 0.0068(4)
N2 N 0.0446(3) 0.6291(2) 0.2783(4)
C67_2 C 0.9749(3) 0.4175(3) 0.1324(4)
C68_2 C 0.9433(3) 0.3879(3) 0.1045(5)
H50_2 H 0.9552 0.3599 0.0990
C69_2 C 0.8937(3) 0.3991(3) 0.0841(5)
C70_2 C 0.8789(3) 0.4399(3) 0.0926(5)
H51_2 H 0.8460 0.4489 0.0786
C71_2 C 0.9112(4) 0.4676(3) 0.1209(5)
H52_2 H 0.9003 0.4961 0.1238
C72_2 C 0.8602(3) 0.3667(3) 0.0498(5)
C73_2 C 0.8766(3) 0.3260(3) 0.0309(4)
H53_2 H 0.9117 0.3185 0.0364
C74_2 C 0.8418(3) 0.2957(3) 0.0039(5)
C76_2 C 0.7727(3) 0.3441(3) 0.0160(4)
H55_2 H 0.7372 0.3509 0.0126
C77_2 C 0.8063(3) 0.3756(3) 0.0422(5)
H56_2 H 0.7929 0.4021 0.0544
Cu6_2 Cu 1.0000 0.5000 0.20046(8)
N7_2 N 0.9588(3) 0.4573(2) 0.1460(4)
C1_2 C 0.8964(3) 0.5327(3) 0.5042(4)
H1 H 0.8828 0.5090 0.4830
C2_2 C 0.8627(3) 0.5597(3) 0.5293(4)
H2_2 H 0.8272 0.5527 0.5292
C3_2 C 0.8784(3) 0.5982(3) 0.5558(5)
C4_2 C 0.9323(3) 0.6063(2) 0.5594(4)
H3_2 H 0.9463 0.6303 0.5795
C5_2 C 0.9642(3) 0.5739(3) 0.5290(4)
H4_2 H 0.9996 0.5808 0.5248
C6_2 C 0.8430(3) 0.6321(2) 0.5798(4)
C7_2 C 0.7911(3) 0.6214(2) 0.5925(4)
H5_2 H 0.7792 0.5938 0.5837
C8_2 C 0.7560(3) 0.6519(3) 0.6187(4)
H6_2 H 0.7217 0.6434 0.6272
C9_2 C 0.7697(3) 0.6919(3) 0.6316(4)
C10_2 C 0.8232(4) 0.7018(3) 0.6216(5)
H7_2 H 0.8356 0.7288 0.6334
C11_2 C 0.8581(3) 0.6725(3) 0.5947(4)
H8_2 H 0.8925 0.6810 0.5866
C12_2 C 0.7320(3) 0.7215(3) 0.6613(5)
C13_2 C 0.6907(4) 0.7106(3) 0.6952(4)
H9_2 H 0.6865 0.6815 0.7035
C14_2 C 0.6522(3) 0.7383(3) 0.7202(4)
H10_2 H 0.6232 0.7278 0.7423
C15_2 C 0.6594(3) 0.7811(3) 0.7105(4)
C16_2 C 0.7037(4) 0.7958(3) 0.6780(5)
H11_2 H 0.7094 0.8251 0.6731
C17_2 C 0.7398(3) 0.7658(3) 0.6524(4)
H12_2 H 0.7689 0.7754 0.6296
C18_2 C 0.5315(3) 0.8322(3) 0.7635(5)
H13 H 0.4967 0.8238 0.7691
C19_2 C 0.5653(3) 0.8043(2) 0.7409(5)
H14_2 H 0.5535 0.7769 0.7303
C20_2 C 0.6209(3) 0.8148(3) 0.7318(5)
C21_2 C 0.6332(3) 0.8561(3) 0.7442(4)
H15_2 H 0.6663 0.8668 0.7342
C22_2 C 0.5942(3) 0.8829(3) 0.7731(5)
H16_2 H 0.6041 0.9097 0.7887
H22 H 0.1457 0.7311 0.9912
C31 C 0.2126(3) 0.6940(3) 0.9960(5)
C34 C 0.2480(3) 0.7260(3) 0.9717(4)
C35 C 0.2380(4) 0.7694(3) 0.9784(5)
H25 H 0.2062 0.7787 0.9952
C36 C 0.2764(3) 0.7994(3) 0.9597(5)
H26 H 0.2697 0.8286 0.9639
C37 C 0.3250(3) 0.7856(3) 0.9348(5)
C38 C 0.3333(4) 0.7418(3) 0.9278(5)
H27 H 0.3647 0.7321 0.9103
C39 C 0.2957(4) 0.7126(3) 0.9465(5)
H28 H 0.3024 0.6833 0.9423
C40 C 0.4559(3) 0.8326(3) 0.8902(4)
H29 H 0.4905 0.8234 0.8862
C41 C 0.4199(3) 0.8044(3) 0.9099(4)
H30 H 0.4297 0.7766 0.9209
C42 C 0.3662(3) 0.8175(3) 0.9139(4)
C43 C 0.3567(4) 0.8598(3) 0.9009(5)
H31 H 0.3229 0.8707 0.9060
C44 C 0.3939(3) 0.8850(3) 0.8816(4)
H32 H 0.3848 0.9129 0.8708
Cu1_3 Cu 1.0000 0.5000 0.45677(8)
Cu3 Cu 0.49585(3) 0.91370(3) 0.82722(6)
N1_2 N 0.9509(3) 0.5367(2) 0.5068(4)
N2_2 N 0.5446(3) 0.8709(2) 0.7783(4)
N4 N 0.4448(2) 0.8739(2) 0.8759(4)
S2 S 0.44658(8) 0.96090(6) 0.76626(11)
W1_2 W 1.0000 0.5000 0.32792(2)
Cu4_2 Cu 0.5000 1.0000 0.70046(8)
Cu8 Cu 0.99585(3) 0.58630(3) 0.32722(6)
S3 S 0.95197(7) 0.45731(6) 0.38909(11)
S4 S 0.54803(7) 0.95731(6) 0.88909(11)
S9 S 0.94658(8) 0.53910(6) 0.26626(11)
W2_2 W 0.5000 1.0000 0.82792(2)
H17 H 0.9908 0.5903 0.1426
C45_2 C 0.6036(3) 0.0327(3) 0.0042(4)
C46_2 C 0.6373(3) 0.0597(3) 0.0293(4)
H34_2 H 0.6728 0.0527 0.0292
C47_2 C 0.6216(3) 0.0982(3) 0.0558(5)
C48_2 C 0.5677(3) 0.1063(2) 0.0594(4)
H35_2 H 0.5537 0.1303 0.0795
C49_2 C 0.5358(3) 0.0739(3) 0.0290(4)
H36_2 H 0.5004 0.0808 0.0248
C50_2 C 0.6570(3) 0.1321(2) 0.0798(4)
C51_2 C 0.7089(3) 0.1214(2) 0.0925(4)
H37_2 H 0.7208 0.0938 0.0837
C52_2 C 0.7440(3) 0.1519(3) 0.1187(4)
H38_2 H 0.7783 0.1434 0.1272
C53_2 C 0.7303(3) 0.1919(3) 0.1316(4)
C54_2 C 0.6768(4) 0.2018(3) 0.1216(5)
H39_2 H 0.6644 0.2288 0.1334
C55_2 C 0.6419(3) 0.1725(3) 0.0947(4)
H40_2 H 0.6075 0.1810 0.0866
C56_2 C 0.7680(3) 0.2215(3) 0.1613(5)
C57_2 C 0.8093(4) 0.2106(3) 0.1952(4)
H41_2 H 0.8135 0.1815 0.2035
C58_2 C 0.8478(3) 0.2383(3) 0.2202(4)
H42_2 H 0.8768 0.2278 0.2423
C59_2 C 0.8406(3) 0.2811(3) 0.2105(4)
C60_2 C 0.7963(4) 0.2958(3) 0.1780(5)
H43_2 H 0.7906 0.3251 0.1731
C61_2 C 0.7602(3) 0.2658(3) 0.1524(4)
H44_2 H 0.7311 0.2754 0.1296
C62_2 C 0.9685(3) 0.3322(3) 0.2635(5)
C63_2 C 0.9347(3) 0.3043(2) 0.2409(5)
H46_2 H 0.9465 0.2769 0.2303
C64_2 C 0.8791(3) 0.3148(3) 0.2318(5)
C65_2 C 0.8668(3) 0.3561(3) 0.2442(4)
H47_2 H 0.8337 0.3668 0.2342
C66_2 C 0.9058(3) 0.3829(3) 0.2731(5)
H48_2 H 0.8959 0.4097 0.2887
N5_2 N 0.5491(3) 0.0367(2) 0.0068(4)
N6_2 N 0.9554(3) 0.3709(2) 0.2783(4)
H1_2 H 0.3828 0.9910 0.9830
Cu1_4 Cu 0.5000 1.0000 0.95677(8)
H13_2 H 0.9967 0.6762 0.2691
C23_2 C 0.5251(3) 0.9175(3) 0.6324(4)
H17_2 H 0.4908 0.9097 0.6426
C24_2 C 0.5567(3) 0.8879(3) 0.6045(5)
H18_2 H 0.5448 0.8599 0.5990
C25_2 C 0.6063(3) 0.8991(3) 0.5841(5)
C26_2 C 0.6211(3) 0.9399(3) 0.5926(5)
H19_2 H 0.6540 0.9489 0.5786
C27_2 C 0.5888(4) 0.9676(3) 0.6209(5)
H20_2 H 0.5997 0.9961 0.6238
C28_2 C 0.6398(3) 0.8667(3) 0.5498(5)
C29_2 C 0.6234(3) 0.8260(3) 0.5309(4)
H21_2 H 0.5883 0.8185 0.5364
C30_2 C 0.6582(3) 0.7957(3) 0.5039(5)
H22_2 H 0.6457 0.7689 0.4912
C31_2 C 0.7126(3) 0.8060(3) 0.4960(5)
C32_2 C 0.7273(3) 0.8441(3) 0.5160(4)
H23_2 H 0.7628 0.8509 0.5126
C33_2 C 0.6937(3) 0.8756(3) 0.5422(5)
H24_2 H 0.7071 0.9021 0.5544
C34_2 C 0.7480(3) 0.7740(3) 0.4717(4)
C35_2 C 0.7380(4) 0.7306(3) 0.4784(5)
H25_2 H 0.7062 0.7213 0.4952
C36_2 C 0.7764(3) 0.7006(3) 0.4597(5)
H26_2 H 0.7697 0.6714 0.4639
C37_2 C 0.8250(3) 0.7144(3) 0.4348(5)
C38_2 C 0.8333(4) 0.7582(3) 0.4278(5)
H27_2 H 0.8647 0.7679 0.4103
C39_2 C 0.7957(4) 0.7874(3) 0.4465(5)
H28_2 H 0.8024 0.8167 0.4423
C40_2 C 0.9559(3) 0.6674(3) 0.3902(4)
H29_2 H 0.9905 0.6766 0.3862
C41_2 C 0.9199(3) 0.6956(3) 0.4099(4)
H30_2 H 0.9297 0.7234 0.4209
C42_2 C 0.8662(3) 0.6825(3) 0.4139(4)
C43_2 C 0.8567(4) 0.6402(3) 0.4009(5)
H31_2 H 0.8229 0.6293 0.4060
C44_2 C 0.8939(3) 0.6150(3) 0.3816(4)
H32_2 H 0.8848 0.5871 0.3708
N3_2 N 0.5412(3) 0.9573(2) 0.6460(4)
N4_2 N 0.9448(2) 0.6261(2) 0.3759(4)
C89 C 0.3293(4) 0.0775(3) 0.0237(5)
H65 H 0.3164 0.0593 0.0553
C90 C 0.3655(5) 0.1123(3) 0.0418(6)
H66 H 0.3766 0.1154 0.0839
C94 C 0.4198(3) 0.1757(3) 0.0102(4)
C95 C 0.4557(4) 0.1694(4) 0.0577(5)
H69 H 0.4554 0.1433 0.0793
C96 C 0.4922(4) 0.1997(3) 0.0751(5)
H70 H 0.5157 0.1940 0.1080
C97 C 0.4939(3) 0.2395(3) 0.0429(4)
C100 C 0.5349(2) 0.27219(17) 0.0625(3)
C101 C 0.5498(3) 0.27999(18) 0.1253(3)
H73 H 0.5359 0.2634 0.1582
C102 C 0.5854(2) 0.3126(2) 0.1390(2)
H74 H 0.5953 0.3178 0.1811
C103 C 0.6061(2) 0.33737(17) 0.0899(3)
C104 C 0.5913(3) 0.3296(2) 0.0271(3)
C105 C 0.5557(3) 0.2970(2) 0.0134(2)
C106 C 0.7016(4) 0.4034(3) 0.1781(4)
H77 H 0.7202 0.4009 0.2161
C107 C 0.6714(4) 0.3705(3) 0.1614(5)
H78 H 0.6704 0.3459 0.1865
C108 C 0.6419(3) 0.3730(3) 0.1069(4)
C109 C 0.6478(3) 0.4085(3) 0.0671(5)
H79 H 0.6300 0.4105 0.0284
C110 C 0.6815(4) 0.4409(3) 0.0881(5)
H80 H 0.6863 0.4644 0.0614
Cu12 Cu 0.75188(4) 0.49486(4) 0.17917(6)
I2 I 0.78354(2) 0.536700(19) 0.08189(3)
N11 N 0.7076(3) 0.4407(2) 0.1441(4)
S14 S 0.81305(9) 0.46297(7) 0.24231(13)
Cu15 Cu 0.75921(5) 0.47785(4) 0.43640(6)
Cu18 Cu 0.73900(3) 0.57468(3) 0.32042(5)
S15 S 0.71227(9) 0.44092(7) 0.36071(12)
S18 S 0.79619(7) 0.53287(6) 0.37859(10)
S20 S 0.69689(7) 0.52871(6) 0.25091(10)
W4 W 0.754618(11) 0.490175(10) 0.308260(19)
C111 C 0.2886(4) 0.8387(3) 0.7750(5)
H81 H 0.2629 0.8252 0.7994
C112 C 0.3254(3) 0.8144(3) 0.7469(5)
H82 H 0.3263 0.7848 0.7535
C113 C 0.3635(4) 0.8351(3) 0.7060(5)
C114 C 0.3584(3) 0.8779(3) 0.7005(4)
H83 H 0.3816 0.8928 0.6743
C115 C 0.3216(3) 0.8993(3) 0.7309(4)
H84 H 0.3198 0.9289 0.7249
C116 C 0.4012(4) 0.8078(3) 0.6687(5)
C117 C 0.4238(3) 0.7715(3) 0.6953(4)
H85 H 0.4151 0.7626 0.7363
C118 C 0.4599(3) 0.7488(3) 0.6586(4)
H86 H 0.4752 0.7243 0.6758
C119 C 0.4739(4) 0.7614(3) 0.5972(5)
C120 C 0.4551(3) 0.7997(3) 0.5731(5)
H87 H 0.4677 0.8103 0.5345
C121 C 0.4166(3) 0.8226(3) 0.6075(5)
H88 H 0.4015 0.8472 0.5902
C122 C 0.5159(4) 0.7368(3) 0.5616(5)
C123 C 0.5523(3) 0.7102(3) 0.5920(5)
H89 H 0.5539 0.7090 0.6363
C124 C 0.5861(3) 0.6853(3) 0.5550(5)
H90 H 0.6108 0.6677 0.5748
C125 C 0.5832(5) 0.6866(3) 0.4884(5)
C126 C 0.5467(3) 0.7124(3) 0.4589(5)
H91 H 0.5447 0.7128 0.4145
C127 C 0.5126(4) 0.7382(3) 0.4948(5)
H92 H 0.4882 0.7559 0.4747
C128 C 0.6630(3) 0.6437(3) 0.3515(5)
H93 H 0.6685 0.6502 0.3086
C129 C 0.6285(4) 0.6676(3) 0.3875(5)
H94 H 0.6100 0.6898 0.3680
C130 C 0.6211(4) 0.6601(3) 0.4483(5)
C131 C 0.6488(4) 0.6242(3) 0.4758(5)
H95 H 0.6451 0.6172 0.5187
C132 C 0.6805(4) 0.6011(3) 0.4365(5)
H96 H 0.6971 0.5769 0.4528
Cu11 Cu 0.23900(3) 0.92532(3) 0.82042(5)
N12 N 0.2868(3) 0.8810(2) 0.7698(4)
N13 N 0.6884(3) 0.6110(2) 0.3787(4)
S12 S 0.29619(7) 0.96713(6) 0.87859(10)
S13 S 0.19689(7) 0.97129(6) 0.75091(10)
C169 C 0.0832(5) 0.8134(3) 0.9884(5)
C170 C 0.0467(3) 0.7876(3) 0.9589(5)
H123 H 0.0447 0.7872 0.9145
C171 C 0.0126(4) 0.7618(3) 0.9948(5)
C172 C 0.1630(3) 0.8563(3) 0.8515(5)
H125 H 0.1685 0.8498 0.8086
C173 C 0.1285(4) 0.8324(3) 0.8875(5)
H126 H 0.1100 0.8102 0.8680
C174 C 0.1211(4) 0.8399(3) 0.9483(5)
C175 C 0.1488(4) 0.8758(3) 0.9758(5)
C176 C 0.1805(4) 0.8989(3) 0.9365(5)
H128 H 0.1971 0.9231 0.9528
I4 I 0.28354(2) 0.963300(19) 0.58189(3)
N17 N 0.1884(3) 0.8890(2) 0.8787(4)
C133 C 0.8293(4) 0.4225(3) 0.5237(5)
H97 H 0.8164 0.4407 0.5553
C134 C 0.8655(5) 0.3877(3) 0.5418(6)
H98 H 0.8766 0.3846 0.5839
C135 C 0.8834(4) 0.3585(3) 0.4937(5)
C136 C 0.8628(4) 0.3669(3) 0.4350(5)
H99 H 0.8717 0.3479 0.4025
C137 C 0.8293(4) 0.4013(3) 0.4181(5)
H100 H 0.8178 0.4048 0.3762
C138 C 0.9198(3) 0.3243(3) 0.5102(4)
C139 C 0.9557(4) 0.3306(4) 0.5577(5)
H101 H 0.9554 0.3567 0.5793
C140 C 0.9922(4) 0.3003(3) 0.5751(5)
C141 C 0.9939(3) 0.2605(3) 0.5429(4)
C142 C 0.9584(4) 0.2553(4) 0.4944(5)
H103 H 0.9583 0.2299 0.4712
C143 C 0.9226(4) 0.2872(3) 0.4792(5)
H104 H 0.8994 0.2824 0.4456
I3 I 0.72213(3) 0.50318(2) 0.54574(3)
N14 N 0.8146(3) 0.4287(3) 0.4639(4)
C155 C 0.7886(4) 0.6613(3) 0.2750(5)
H113 H 0.7629 0.6748 0.2994
C156 C 0.8254(3) 0.6856(3) 0.2469(5)
H114 H 0.8263 0.7152 0.2535
C157 C 0.8635(4) 0.6649(3) 0.2060(5)
C158 C 0.8584(3) 0.6221(3) 0.2005(4)
H115 H 0.8816 0.6072 0.1743
C159 C 0.8216(3) 0.6007(3) 0.2309(4)
H116 H 0.8198 0.5711 0.2249
C160 C 0.9012(4) 0.6922(3) 0.1687(5)
C161 C 0.9238(3) 0.7285(3) 0.1953(4)
H117 H 0.9151 0.7374 0.2363
C162 C 0.9599(3) 0.7512(3) 0.1586(4)
H118 H 0.9752 0.7757 0.1758
C163 C 0.9739(4) 0.7386(3) 0.0972(5)
C164 C 0.9551(3) 0.7003(3) 0.0731(5)
H119 H 0.9677 0.6897 0.0345
C165 C 0.9166(3) 0.6774(3) 0.1075(5)
H120 H 0.9015 0.6528 0.0902
N16 N 0.7868(3) 0.6190(2) 0.2698(4)
C91 C 0.3834(4) 0.1415(3) 0.9937(5)
C92 C 0.3628(4) 0.1331(3) 0.9350(5)
H67 H 0.3717 0.1521 0.9025
C93 C 0.3293(4) 0.0987(3) 0.9181(5)
H68 H 0.3178 0.0952 0.8762
C98 C 0.4584(4) 0.2447(4) 0.9944(5)
H71 H 0.4583 0.2701 0.9712
C99 C 0.4226(4) 0.2128(3) 0.9792(5)
H72 H 0.3994 0.2176 0.9456
H75 H 0.6051 0.3462 0.9942
H76 H 0.5457 0.2918 0.9714
Cu10 Cu 0.25921(5) 0.02215(4) 0.93640(6)
N10 N 0.3146(3) 0.0713(3) 0.9639(4)
S11 S 0.21227(9) 0.05908(7) 0.86071(12)
W3 W 0.254618(11) 0.009825(10) 0.808260(19)
H102 H 0.0157 0.3060 0.6080
C144 C 0.0349(2) 0.22781(17) 0.5625(3)
C145 C 0.0498(3) 0.22001(18) 0.6253(3)
H105 H 0.0359 0.2366 0.6582
C146 C 0.0854(2) 0.1874(2) 0.6390(2)
H106 H 0.0953 0.1822 0.6811
C147 C 0.1061(2) 0.16263(17) 0.5899(3)
C148 C 0.0913(3) 0.1704(2) 0.5271(3)
H107 H 0.1051 0.1538 0.4942
C149 C 0.0557(3) 0.2030(2) 0.5134(2)
H108 H 0.0457 0.2082 0.4714
C150 C 0.2016(4) 0.0966(3) 0.6781(4)
H109 H 0.2202 0.0991 0.7161
C151 C 0.1714(4) 0.1295(3) 0.6614(5)
H110 H 0.1704 0.1541 0.6865
C152 C 0.1419(3) 0.1270(3) 0.6069(4)
C153 C 0.1478(3) 0.0915(3) 0.5671(5)
H111 H 0.1300 0.0895 0.5284
C154 C 0.1815(4) 0.0591(3) 0.5881(5)
H112 H 0.1863 0.0356 0.5614
Cu19 Cu 0.25188(4) 0.00514(4) 0.67917(6)
N15 N 0.2076(3) 0.0593(2) 0.6441(4)
S22 S 0.31305(9) 0.03703(7) 0.74231(13)
I1 I 0.22213(3) 0.99682(2) 0.04574(3)
C166 C 0.0159(4) 0.7632(3) 0.0616(5)
C167 C 0.0523(3) 0.7898(3) 0.0920(5)
H121 H 0.0539 0.7910 0.1363
C168 C 0.0861(3) 0.8147(3) 0.0550(5)
H122 H 0.1108 0.8323 0.0748
H127 H 0.1451 0.8828 0.0187
H124 H 0.9882 0.7441 0.9747
C155_2 C 0.2114(4) 0.3387(3) 0.2750(5)
H113_2 H 0.2371 0.3252 0.2994
C156_2 C 0.1746(3) 0.3144(3) 0.2469(5)
H114_2 H 0.1737 0.2848 0.2535
C157_2 C 0.1365(4) 0.3351(3) 0.2060(5)
C158_2 C 0.1416(3) 0.3779(3) 0.2005(4)
H115_2 H 0.1184 0.3928 0.1743
C159_2 C 0.1784(3) 0.3993(3) 0.2309(4)
H116_2 H 0.1802 0.4289 0.2249
C160_2 C 0.0988(4) 0.3078(3) 0.1687(5)
C161_2 C 0.0762(3) 0.2715(3) 0.1953(4)
H117_2 H 0.0849 0.2626 0.2363
C162_2 C 0.0401(3) 0.2488(3) 0.1586(4)
H118_2 H 0.0248 0.2243 0.1758
C163_2 C 0.0261(4) 0.2614(3) 0.0972(5)
C164_2 C 0.0449(3) 0.2997(3) 0.0731(5)
H119_2 H 0.0323 0.3103 0.0345
C165_2 C 0.0834(3) 0.3226(3) 0.1075(5)
H120_2 H 0.0985 0.3472 0.0902
Cu14 Cu 0.24079(5) 0.52215(4) 0.43640(6)
Cu16 Cu 0.26100(3) 0.42532(3) 0.32042(5)
N16_2 N 0.2132(3) 0.3810(2) 0.2698(4)
N18 N 0.3116(3) 0.3890(2) 0.3787(4)
S17 S 0.20381(7) 0.46713(6) 0.37859(10)
S21 S 0.30311(7) 0.47129(6) 0.25091(10)
W5 W 0.245382(11) 0.509825(10) 0.308260(19)
C133_2 C 0.1707(4) 0.5775(3) 0.5237(5)
H97_2 H 0.1836 0.5593 0.5553
C134_2 C 0.1345(5) 0.6123(3) 0.5418(6)
H98_2 H 0.1234 0.6154 0.5839
C135_2 C 0.1166(4) 0.6415(3) 0.4937(5)
C136_2 C 0.1372(4) 0.6331(3) 0.4350(5)
H99_2 H 0.1283 0.6521 0.4025
C137_2 C 0.1707(4) 0.5987(3) 0.4181(5)
H100_2 H 0.1822 0.5952 0.3762
C138_2 C 0.0802(3) 0.6757(3) 0.5102(4)
C139_2 C 0.0443(4) 0.6694(4) 0.5577(5)
H101_2 H 0.0446 0.6433 0.5793
C140_2 C 0.0078(4) 0.6997(3) 0.5751(5)
C141_2 C 0.0061(3) 0.7395(3) 0.5429(4)
C142_2 C 0.0416(4) 0.7447(4) 0.4944(5)
H103_2 H 0.0417 0.7701 0.4712
C143_2 C 0.0774(4) 0.7128(3) 0.4792(5)
H104_2 H 0.1006 0.7176 0.4456
I3_2 I 0.27787(3) 0.49682(2) 0.54574(3)
N14_2 N 0.1854(3) 0.5713(3) 0.4639(4)
S16 S 0.28773(9) 0.55908(7) 0.36071(12)
C111_2 C 0.7114(4) 0.1613(3) 0.7750(5)
H81_2 H 0.7371 0.1748 0.7994
C112_2 C 0.6746(3) 0.1856(3) 0.7469(5)
H82_2 H 0.6737 0.2152 0.7535
C113_2 C 0.6365(4) 0.1649(3) 0.7060(5)
C114_2 C 0.6416(3) 0.1221(3) 0.7005(4)
H83_2 H 0.6184 0.1072 0.6743
C115_2 C 0.6784(3) 0.1007(3) 0.7309(4)
H84_2 H 0.6802 0.0711 0.7249
C116_2 C 0.5988(4) 0.1922(3) 0.6687(5)
C117_2 C 0.5762(3) 0.2285(3) 0.6953(4)
H85_2 H 0.5849 0.2374 0.7363
C118_2 C 0.5401(3) 0.2512(3) 0.6586(4)
H86_2 H 0.5248 0.2757 0.6758
C119_2 C 0.5261(4) 0.2386(3) 0.5972(5)
C120_2 C 0.5449(3) 0.2003(3) 0.5731(5)
H87_2 H 0.5323 0.1897 0.5345
C121_2 C 0.5834(3) 0.1774(3) 0.6075(5)
H88_2 H 0.5985 0.1528 0.5902
C122_2 C 0.4841(4) 0.2632(3) 0.5616(5)
C123_2 C 0.4477(3) 0.2898(3) 0.5920(5)
H89_2 H 0.4461 0.2910 0.6363
C124_2 C 0.4139(3) 0.3147(3) 0.5550(5)
H90_2 H 0.3892 0.3323 0.5748
C125_2 C 0.4168(5) 0.3134(3) 0.4884(5)
C126_2 C 0.4533(3) 0.2876(3) 0.4589(5)
H91_2 H 0.4553 0.2872 0.4145
C127_2 C 0.4874(4) 0.2618(3) 0.4948(5)
H92_2 H 0.5118 0.2441 0.4747
C128_2 C 0.3370(3) 0.3563(3) 0.3515(5)
H93_2 H 0.3315 0.3498 0.3086
C129_2 C 0.3715(4) 0.3324(3) 0.3875(5)
H94_2 H 0.3900 0.3102 0.3680
C130_2 C 0.3789(4) 0.3399(3) 0.4483(5)
C131_2 C 0.3512(4) 0.3758(3) 0.4758(5)
H95_2 H 0.3549 0.3828 0.5187
C132_2 C 0.3195(4) 0.3989(3) 0.4365(5)
H96_2 H 0.3029 0.4231 0.4528
Cu11_2 Cu 0.76100(3) 0.07468(3) 0.82042(5)
N12_2 N 0.7132(3) 0.1190(2) 0.7698(4)
S12_2 S 0.70381(7) 0.03287(6) 0.87859(10)
S13_2 S 0.80311(7) 0.02871(6) 0.75091(10)
C169_2 C 0.9168(5) 0.1866(3) 0.9884(5)
C170_2 C 0.9533(3) 0.2124(3) 0.9589(5)
H123_2 H 0.9553 0.2128 0.9145
C171_2 C 0.9874(4) 0.2382(3) 0.9948(5)
C172_2 C 0.8370(3) 0.1437(3) 0.8515(5)
H125_2 H 0.8315 0.1502 0.8086
C173_2 C 0.8715(4) 0.1676(3) 0.8875(5)
H126_2 H 0.8900 0.1898 0.8680
C174_2 C 0.8789(4) 0.1601(3) 0.9483(5)
C175_2 C 0.8512(4) 0.1242(3) 0.9758(5)
C176_2 C 0.8195(4) 0.1011(3) 0.9365(5)
H128_2 H 0.8029 0.0769 0.9528
I4_2 I 0.71646(2) 0.036700(19) 0.58189(3)
N17_2 N 0.8116(3) 0.1110(2) 0.8787(4)
C89_2 C 0.6707(4) 0.9225(3) 0.0237(5)
H65_2 H 0.6836 0.9407 0.0553
C90_2 C 0.6345(5) 0.8877(3) 0.0418(6)
H66_2 H 0.6234 0.8846 0.0839
C94_2 C 0.5802(3) 0.8243(3) 0.0102(4)
C95_2 C 0.5443(4) 0.8306(4) 0.0577(5)
H69_2 H 0.5446 0.8567 0.0793
C96_2 C 0.5078(4) 0.8003(3) 0.0751(5)
H70_2 H 0.4843 0.8060 0.1080
C97_2 C 0.5061(3) 0.7605(3) 0.0429(4)
C100_2 C 0.4651(2) 0.72781(17) 0.0625(3)
C101_2 C 0.4502(3) 0.72001(18) 0.1253(3)
H73_2 H 0.4641 0.7366 0.1582
C102_2 C 0.4146(2) 0.6874(2) 0.1390(2)
H74_2 H 0.4047 0.6822 0.1811
C103_2 C 0.3939(2) 0.66263(17) 0.0899(3)
C104_2 C 0.4087(3) 0.6704(2) 0.0271(3)
C105_2 C 0.4443(3) 0.7030(2) 0.0134(2)
C106_2 C 0.2984(4) 0.5966(3) 0.1781(4)
H77_2 H 0.2798 0.5991 0.2161
C107_2 C 0.3286(4) 0.6295(3) 0.1614(5)
H78_2 H 0.3296 0.6541 0.1865
C108_2 C 0.3581(3) 0.6270(3) 0.1069(4)
C109_2 C 0.3522(3) 0.5915(3) 0.0671(5)
H79_2 H 0.3700 0.5895 0.0284
C110_2 C 0.3185(4) 0.5591(3) 0.0881(5)
H80_2 H 0.3137 0.5356 0.0614
Cu12_2 Cu 0.24812(4) 0.50514(4) 0.17917(6)
I2_2 I 0.21646(2) 0.463300(19) 0.08189(3)
N11_2 N 0.2924(3) 0.5593(2) 0.1441(4)
S14_2 S 0.18695(9) 0.53703(7) 0.24231(13)
H124_2 H 0.0118 0.2559 0.9747
I1_2 I 0.77787(3) 0.00318(2) 0.04574(3)
C166_2 C 0.9841(4) 0.2368(3) 0.0616(5)
C167_2 C 0.9477(3) 0.2102(3) 0.0920(5)
H121_2 H 0.9461 0.2090 0.1363
C168_2 C 0.9139(3) 0.1853(3) 0.0550(5)
H122_2 H 0.8892 0.1677 0.0748
H127_2 H 0.8549 0.1172 0.0187
C91_2 C 0.6166(4) 0.8585(3) 0.9937(5)
C92_2 C 0.6372(4) 0.8669(3) 0.9350(5)
H67_2 H 0.6283 0.8479 0.9025
C93_2 C 0.6707(4) 0.9013(3) 0.9181(5)
H68_2 H 0.6822 0.9048 0.8762
C98_2 C 0.5416(4) 0.7553(4) 0.9944(5)
H71_2 H 0.5417 0.7299 0.9712
C99_2 C 0.5774(4) 0.7872(3) 0.9792(5)
H72_2 H 0.6006 0.7824 0.9456
H75_2 H 0.3949 0.6538 0.9942
H76_2 H 0.4543 0.7082 0.9714
Cu10_2 Cu 0.74079(5) 0.97785(4) 0.93640(6)
N10_2 N 0.6854(3) 0.9287(3) 0.9639(4)
S11_2 S 0.78773(9) 0.94092(7) 0.86071(12)
W3_2 W 0.745382(11) 0.990175(10) 0.808260(19)
H102_2 H 0.9843 0.6940 0.6080
C144_2 C 0.9651(2) 0.77219(17) 0.5625(3)
C145_2 C 0.9502(3) 0.77999(18) 0.6253(3)
H105_2 H 0.9641 0.7634 0.6582
C146_2 C 0.9146(2) 0.8126(2) 0.6390(2)
H106_2 H 0.9047 0.8178 0.6811
C147_2 C 0.8939(2) 0.83737(17) 0.5899(3)
C148_2 C 0.9087(3) 0.8296(2) 0.5271(3)
H107_2 H 0.8949 0.8462 0.4942
C149_2 C 0.9443(3) 0.7970(2) 0.5134(2)
H108_2 H 0.9543 0.7918 0.4714
C150_2 C 0.7984(4) 0.9034(3) 0.6781(4)
H109_2 H 0.7798 0.9009 0.7161
C151_2 C 0.8286(4) 0.8705(3) 0.6614(5)
H110_2 H 0.8296 0.8459 0.6865
C152_2 C 0.8581(3) 0.8730(3) 0.6069(4)
C153_2 C 0.8522(3) 0.9085(3) 0.5671(5)
H111_2 H 0.8700 0.9105 0.5284
C154_2 C 0.8185(4) 0.9409(3) 0.5881(5)
H112_2 H 0.8137 0.9644 0.5614
Cu19_2 Cu 0.74812(4) 0.99486(4) 0.67917(6)
N15_2 N 0.7924(3) 0.9407(2) 0.6441(4)
S22_2 S 0.68695(9) 0.96297(7) 0.74231(13)
C199 C 0.4687(3) 0.4275(3) 0.0199(4)
H145 H 0.5046 0.4224 0.0160
C202 C 0.3633(3) 0.4328(3) 0.0371(4)
H147 H 0.3276 0.4354 0.0461
C203 C 0.3995(3) 0.4602(3) 0.0634(4)
H148 H 0.3867 0.4816 0.0901
Cu22 Cu 0.5000 0.5000 0.10867(7)
N22 N 0.4521(3) 0.4589(2) 0.0544(4)
N27 N 0.5479(3) 0.5411(2) 0.0544(4)
S26 S 0.54754(8) 0.45638(6) 0.17663(11)
S27 S 0.45246(8) 0.54362(6) 0.17663(11)
Cu26 Cu 0.0000 1.0000 0.60867(7)
W7 W 0.0000 1.0000 0.73855(2)
C177 C 0.5835(3) 0.4627(3) 0.4473(4)
H129 H 0.5964 0.4905 0.4449
C178 C 0.6130(3) 0.4328(3) 0.4763(4)
H130 H 0.6444 0.4412 0.4951
C179 C 0.5995(4) 0.3921(3) 0.4792(5)
C180 C 0.5472(3) 0.3850(3) 0.4569(4)
H131 H 0.5316 0.3582 0.4622
C181 C 0.5207(3) 0.4160(2) 0.4287(4)
H132 H 0.4876 0.4095 0.4125
C182 C 0.6335(3) 0.3556(3) 0.5016(4)
C183 C 0.6859(3) 0.3565(2) 0.4803(5)
H133 H 0.6969 0.3777 0.4520
C184 C 0.7212(3) 0.3258(3) 0.5014(4)
H134 H 0.7559 0.3266 0.4876
C185 C 0.7047(3) 0.2938(3) 0.5433(4)
C186 C 0.6526(3) 0.2926(2) 0.5636(4)
H135 H 0.6413 0.2713 0.5915
C187 C 0.6174(3) 0.3238(3) 0.5414(5)
H136 H 0.5824 0.3227 0.5542
C188 C 0.7440(3) 0.2593(3) 0.5615(4)
C189 C 0.7287(3) 0.2179(2) 0.5799(4)
H137 H 0.6937 0.2096 0.5759
C190 C 0.7656(3) 0.1892(3) 0.6041(4)
H138 H 0.7551 0.1617 0.6157
C191 C 0.8181(3) 0.2014(3) 0.6110(4)
C192 C 0.8336(3) 0.2424(3) 0.5940(5)
H139 H 0.8686 0.2507 0.5985
C193 C 0.7968(3) 0.2710(3) 0.5704(4)
H140 H 0.8074 0.2988 0.5602
C194 C 0.8861(3) 0.1107(3) 0.6920(4)
H141 H 0.8759 0.0846 0.7095
C195 C 0.8497(3) 0.1364(2) 0.6728(4)
H142 H 0.8151 0.1304 0.6841
C196 C 0.8592(3) 0.1716(3) 0.6370(4)
C197 C 0.9116(3) 0.1796(3) 0.6242(4)
H143 H 0.9219 0.2023 0.5982
C198 C 0.9488(3) 0.1518(2) 0.6522(4)
H144 H 0.9841 0.1575 0.6439
H160 H 0.9957 0.1783 0.7850
Cu20 Cu 0.5000 0.5000 0.36757(7)
Cu21 Cu 0.99373(4) 0.08590(3) 0.73838(6)
N19 N 0.5376(3) 0.4547(2) 0.4223(3)
N20 N 0.9383(3) 0.1191(2) 0.6883(4)
S24 S 0.55369(7) 0.53849(6) 0.30028(11)
W6 W 0.5000 0.5000 0.23855(2)
C221 C 0.4165(3) 0.5373(3) 0.4473(4)
H161 H 0.4036 0.5095 0.4449
C222 C 0.3870(3) 0.5672(3) 0.4763(4)
H162 H 0.3556 0.5588 0.4951
C223 C 0.4005(4) 0.6079(3) 0.4792(5)
C224 C 0.4528(3) 0.6150(3) 0.4569(4)
H163 H 0.4684 0.6418 0.4622
C225 C 0.4793(3) 0.5840(2) 0.4287(4)
H164 H 0.5124 0.5905 0.4125
C226 C 0.3665(3) 0.6444(3) 0.5016(4)
C227 C 0.3141(3) 0.6435(2) 0.4803(5)
H165 H 0.3031 0.6223 0.4520
C228 C 0.2788(3) 0.6742(3) 0.5014(4)
H166 H 0.2441 0.6734 0.4876
C229 C 0.2953(3) 0.7062(3) 0.5433(4)
C230 C 0.3474(3) 0.7074(2) 0.5636(4)
H167 H 0.3587 0.7287 0.5915
C231 C 0.3826(3) 0.6762(3) 0.5414(5)
H168 H 0.4176 0.6773 0.5542
C232 C 0.2560(3) 0.7407(3) 0.5615(4)
C233 C 0.2713(3) 0.7821(2) 0.5799(4)
H169 H 0.3063 0.7904 0.5759
C234 C 0.2344(3) 0.8108(3) 0.6041(4)
H170 H 0.2449 0.8383 0.6157
C235 C 0.1819(3) 0.7986(3) 0.6110(4)
C236 C 0.1664(3) 0.7576(3) 0.5940(5)
H171 H 0.1314 0.7493 0.5985
C237 C 0.2032(3) 0.7290(3) 0.5704(4)
H172 H 0.1926 0.7012 0.5602
C238 C 0.1139(3) 0.8893(3) 0.6920(4)
H173 H 0.1241 0.9154 0.7095
C239 C 0.1503(3) 0.8636(2) 0.6728(4)
H174 H 0.1849 0.8696 0.6841
C240 C 0.1408(3) 0.8284(3) 0.6370(4)
C241 C 0.0884(3) 0.8204(3) 0.6242(4)
H175 H 0.0781 0.7977 0.5982
C242 C 0.0512(3) 0.8482(2) 0.6522(4)
H176 H 0.0159 0.8425 0.6439
H192 H 0.0043 0.8217 0.7850
Cu23 Cu 0.00627(4) 0.91410(3) 0.73838(6)
Cu24 Cu 0.50627(4) 0.58590(3) 0.23838(6)
Cu25 Cu 0.49373(4) 0.41410(3) 0.23838(6)
Cu26_2 Cu 1.0000 0.0000 0.60867(7)
N23 N 0.4624(3) 0.5453(2) 0.4223(3)
N24 N 0.0617(3) 0.8809(2) 0.6883(4)
S30 S 0.44631(7) 0.46151(6) 0.30028(11)
S31 S 0.94631(7) 0.03849(6) 0.80028(11)
S32 S 0.05369(7) 0.96151(6) 0.80028(11)
W7_2 W 1.0000 0.0000 0.73855(2)
C243 C 0.5313(3) 0.5725(3) 0.0199(4)
H177 H 0.4954 0.5776 0.0160
C246 C 0.6367(3) 0.5672(3) 0.0371(4)
H179 H 0.6724 0.5646 0.0461
C247 C 0.6005(3) 0.5398(3) 0.0634(4)
H180 H 0.6133 0.5184 0.0901
N27_2 N 0.0479(3) 0.9589(2) 0.5544(4)
C182_2 C 0.1335(3) 0.1444(3) 0.0016(4)
C184_2 C 0.2212(3) 0.1742(3) 0.0014(4)
C185_2 C 0.2047(3) 0.2062(3) 0.0433(4)
C186_2 C 0.1526(3) 0.2074(2) 0.0636(4)
H135_2 H 0.1413 0.2287 0.0915
C187_2 C 0.1174(3) 0.1762(3) 0.0414(5)
H136_2 H 0.0824 0.1773 0.0542
C188_2 C 0.2440(3) 0.2407(3) 0.0615(4)
C189_2 C 0.2287(3) 0.2821(2) 0.0799(4)
H137_2 H 0.1937 0.2904 0.0759
C190_2 C 0.2656(3) 0.3108(3) 0.1041(4)
H138_2 H 0.2551 0.3383 0.1157
C191_2 C 0.3181(3) 0.2986(3) 0.1110(4)
C192_2 C 0.3336(3) 0.2576(3) 0.0940(5)
H139_2 H 0.3686 0.2493 0.0985
C193_2 C 0.2968(3) 0.2290(3) 0.0704(4)
H140_2 H 0.3074 0.2012 0.0602
C194_2 C 0.3861(3) 0.3893(3) 0.1920(4)
H141_2 H 0.3759 0.4154 0.2095
C195_2 C 0.3497(3) 0.3636(2) 0.1728(4)
H142_2 H 0.3151 0.3696 0.1841
C196_2 C 0.3592(3) 0.3284(3) 0.1370(4)
C197_2 C 0.4116(3) 0.3204(3) 0.1242(4)
H143_2 H 0.4219 0.2977 0.0982
C198_2 C 0.4488(3) 0.3482(2) 0.1522(4)
H144_2 H 0.4841 0.3425 0.1439
C199_2 C 0.9687(3) 0.0725(3) 0.5199(4)
C200 C 0.9334(3) 0.0984(3) 0.4888(4)
H146 H 0.9464 0.1180 0.4592
C201 C 0.8810(3) 0.0973(3) 0.4986(4)
C202_2 C 0.8633(3) 0.0672(3) 0.5371(4)
H147_2 H 0.8276 0.0646 0.5461
C203_2 C 0.8995(3) 0.0398(3) 0.5634(4)
H148_2 H 0.8867 0.0184 0.5901
C204 C 0.84134(18) 0.12758(15) 0.4688(3)
C205 C 0.85734(16) 0.16950(17) 0.4570(3)
H149 H 0.8918 0.1777 0.4655
C206 C 0.8219(2) 0.19913(13) 0.4323(3)
H150 H 0.8326 0.2272 0.4244
C207 C 0.77040(19) 0.18684(16) 0.4195(3)
C208 C 0.75440(16) 0.14492(18) 0.4314(3)
H151 H 0.7200 0.1367 0.4228
C209 C 0.7899(2) 0.11529(13) 0.4560(3)
H152 H 0.7792 0.0872 0.4640
C210 C 0.7318(4) 0.2201(3) 0.3974(5)
C211 C 0.7438(4) 0.2539(3) 0.3585(5)
H153 H 0.7787 0.2574 0.3462
C212 C 0.7057(3) 0.2847(3) 0.3351(5)
H154 H 0.7157 0.3069 0.3079
C213 C 0.6552(3) 0.2802(3) 0.3542(4)
C214 C 0.6415(4) 0.2451(3) 0.3922(5)
H155 H 0.6062 0.2409 0.4022
C215 C 0.6788(4) 0.2161(3) 0.4158(5)
H156 H 0.6686 0.1944 0.4436
C216 C 0.5943(3) 0.3807(3) 0.2989(4)
H157 H 0.6043 0.4093 0.2954
C217 C 0.6300(3) 0.3535(3) 0.3189(5)
H158 H 0.6644 0.3624 0.3261
C218 C 0.6160(3) 0.3121(3) 0.3290(5)
C219 C 0.5640(3) 0.2995(3) 0.3164(5)
H159 H 0.5530 0.2714 0.3233
C220 C 0.5302(4) 0.3299(3) 0.2935(4)
H160_2 H 0.4957 0.3217 0.2850
N20_2 N 0.4383(3) 0.3809(2) 0.1883(4)
N21 N 0.5437(3) 0.3707(2) 0.2828(4)
N22_2 N 0.9521(3) 0.0411(2) 0.5544(4)
Cu20_2 Cu 0.0000 1.0000 0.86757(7)
H164_2 H 0.0124 0.9095 0.9125
H132_2 H 0.9876 0.0905 0.9125
Cu20_3 Cu 1.0000 -0.0000 0.86757(7)
C226_2 C 0.8665(3) 0.8556(3) 0.0016(4)
C228_2 C 0.7788(3) 0.8258(3) 0.0014(4)
C229_2 C 0.7953(3) 0.7938(3) 0.0433(4)
C230_2 C 0.8474(3) 0.7926(2) 0.0636(4)
H167_2 H 0.8587 0.7713 0.0915
C231_2 C 0.8826(3) 0.8238(3) 0.0414(5)
H168_2 H 0.9176 0.8227 0.0542
C232_2 C 0.7560(3) 0.7593(3) 0.0615(4)
C233_2 C 0.7713(3) 0.7179(2) 0.0799(4)
H169_2 H 0.8063 0.7096 0.0759
C234_2 C 0.7344(3) 0.6892(3) 0.1041(4)
H170_2 H 0.7449 0.6617 0.1157
C235_2 C 0.6819(3) 0.7014(3) 0.1110(4)
C236_2 C 0.6664(3) 0.7424(3) 0.0940(5)
H171_2 H 0.6314 0.7507 0.0985
C237_2 C 0.7032(3) 0.7710(3) 0.0704(4)
H172_2 H 0.6926 0.7988 0.0602
C238_2 C 0.6139(3) 0.6107(3) 0.1920(4)
H173_2 H 0.6241 0.5846 0.2095
C239_2 C 0.6503(3) 0.6364(2) 0.1728(4)
H174_2 H 0.6849 0.6304 0.1841
C240_2 C 0.6408(3) 0.6716(3) 0.1370(4)
C241_2 C 0.5884(3) 0.6796(3) 0.1242(4)
H175_2 H 0.5781 0.7023 0.0982
C242_2 C 0.5512(3) 0.6518(2) 0.1522(4)
H176_2 H 0.5159 0.6575 0.1439
C243_2 C 0.0313(3) 0.9275(3) 0.5199(4)
C244 C 0.0666(3) 0.9016(3) 0.4888(4)
H178 H 0.0536 0.8820 0.4592
C245 C 0.1190(3) 0.9027(3) 0.4986(4)
C246_2 C 0.1367(3) 0.9328(3) 0.5371(4)
H179_2 H 0.1724 0.9354 0.5461
C247_2 C 0.1005(3) 0.9602(3) 0.5634(4)
H180_2 H 0.1133 0.9816 0.5901
C248 C 0.15866(18) 0.87242(15) 0.4688(3)
C249 C 0.14266(16) 0.83050(17) 0.4570(3)
H181 H 0.1082 0.8223 0.4655
C250 C 0.1781(2) 0.80087(13) 0.4323(3)
H182 H 0.1674 0.7728 0.4244
C251 C 0.22960(19) 0.81316(16) 0.4195(3)
C252 C 0.24560(16) 0.85508(18) 0.4314(3)
H183 H 0.2800 0.8633 0.4228
C253 C 0.2101(2) 0.88471(13) 0.4560(3)
H184 H 0.2208 0.9128 0.4640
C254 C 0.2682(4) 0.7799(3) 0.3974(5)
C255 C 0.2562(4) 0.7461(3) 0.3585(5)
H185 H 0.2213 0.7426 0.3462
C256 C 0.2943(3) 0.7153(3) 0.3351(5)
H186 H 0.2843 0.6931 0.3079
C257 C 0.3448(3) 0.7198(3) 0.3542(4)
C258 C 0.3585(4) 0.7549(3) 0.3922(5)
H187 H 0.3938 0.7591 0.4022
C259 C 0.3212(4) 0.7839(3) 0.4158(5)
H188 H 0.3314 0.8056 0.4436
C260 C 0.4057(3) 0.6193(3) 0.2989(4)
H189 H 0.3957 0.5907 0.2954
C261 C 0.3700(3) 0.6465(3) 0.3189(5)
H190 H 0.3356 0.6376 0.3261
C262 C 0.3840(3) 0.6879(3) 0.3290(5)
C263 C 0.4360(3) 0.7005(3) 0.3164(5)
H191 H 0.4470 0.7286 0.3233
C264 C 0.4698(4) 0.6701(3) 0.2935(4)
H192_2 H 0.5043 0.6783 0.2850
N24_2 N 0.5617(3) 0.6191(2) 0.1883(4)
N25 N 0.4563(3) 0.6293(2) 0.2828(4)
C200_2 C 0.4334(3) 0.4016(3) 0.9888(4)
H146_2 H 0.4464 0.3820 0.9592
C201_2 C 0.3810(3) 0.4027(3) 0.9986(4)
C204_2 C 0.34134(18) 0.37242(15) 0.9688(3)
C205_2 C 0.35734(16) 0.33050(17) 0.9570(3)
H149_2 H 0.3918 0.3223 0.9655
C206_2 C 0.3219(2) 0.30087(13) 0.9323(3)
H150_2 H 0.3326 0.2728 0.9244
C207_2 C 0.27040(19) 0.31316(16) 0.9195(3)
C208_2 C 0.25440(16) 0.35508(18) 0.9314(3)
H151_2 H 0.2200 0.3633 0.9228
C209_2 C 0.2899(2) 0.38471(13) 0.9560(3)
H152_2 H 0.2792 0.4128 0.9640
C210_2 C 0.2318(4) 0.2799(3) 0.8974(5)
C211_2 C 0.2438(4) 0.2461(3) 0.8585(5)
H153_2 H 0.2787 0.2426 0.8462
C212_2 C 0.2057(3) 0.2153(3) 0.8351(5)
H154_2 H 0.2157 0.1931 0.8079
C213_2 C 0.1552(3) 0.2198(3) 0.8542(4)
C214_2 C 0.1415(4) 0.2549(3) 0.8922(5)
H155_2 H 0.1062 0.2591 0.9022
C215_2 C 0.1788(4) 0.2839(3) 0.9158(5)
H156_2 H 0.1686 0.3056 0.9436
C216_2 C 0.0943(3) 0.1193(3) 0.7989(4)
H157_2 H 0.1043 0.0907 0.7954
C217_2 C 0.1300(3) 0.1465(3) 0.8189(5)
H158_2 H 0.1644 0.1376 0.8261
C218_2 C 0.1160(3) 0.1879(3) 0.8290(5)
C219_2 C 0.0640(3) 0.2005(3) 0.8164(5)
H159_2 H 0.0530 0.2286 0.8233
C220_2 C 0.0302(4) 0.1701(3) 0.7935(4)
N21_2 N 0.0437(3) 0.1293(2) 0.7828(4)
S23 S 0.04754(8) 0.04362(6) 0.67663(11)
Cu26_3 Cu 0.0000 0.0000 0.60867(7)
W7_3 W 0.0000 0.0000 0.73855(2)
H145_2 H 0.0046 0.0776 0.5160
C177_2 C 0.0835(3) 0.0373(3) 0.9473(4)
H129_2 H 0.0964 0.0095 0.9449
C178_2 C 0.1130(3) 0.0672(3) 0.9763(4)
H130_2 H 0.1444 0.0588 0.9951
C179_2 C 0.0995(4) 0.1079(3) 0.9792(5)
C180_2 C 0.0472(3) 0.1150(3) 0.9569(4)
H131_2 H 0.0316 0.1418 0.9622
C181_2 C 0.0207(3) 0.0840(2) 0.9287(4)
C183_2 C 0.1859(3) 0.1435(2) 0.9803(5)
H133_2 H 0.1969 0.1223 0.9520
H134_2 H 0.2559 0.1734 0.9876
Cu20_4 Cu 0.0000 -0.0000 0.86757(7)
N19_2 N 0.0376(3) 0.0453(2) 0.9223(3)
Cu26_4 Cu 1.0000 1.0000 0.60867(7)
W7_4 W 1.0000 1.0000 0.73855(2)
C244_2 C 0.5666(3) 0.5984(3) 0.9888(4)
H178_2 H 0.5536 0.6180 0.9592
C245_2 C 0.6190(3) 0.5973(3) 0.9986(4)
C248_2 C 0.65866(18) 0.62758(15) 0.9688(3)
C249_2 C 0.64266(16) 0.66950(17) 0.9570(3)
H181_2 H 0.6082 0.6777 0.9655
C250_2 C 0.6781(2) 0.69913(13) 0.9323(3)
H182_2 H 0.6674 0.7272 0.9244
C251_2 C 0.72960(19) 0.68684(16) 0.9195(3)
C252_2 C 0.74560(16) 0.64492(18) 0.9314(3)
H183_2 H 0.7800 0.6367 0.9228
C253_2 C 0.7101(2) 0.61529(13) 0.9560(3)
H184_2 H 0.7208 0.5872 0.9640
C254_2 C 0.7682(4) 0.7201(3) 0.8974(5)
C255_2 C 0.7562(4) 0.7539(3) 0.8585(5)
H185_2 H 0.7213 0.7574 0.8462
C256_2 C 0.7943(3) 0.7847(3) 0.8351(5)
H186_2 H 0.7843 0.8069 0.8079
C257_2 C 0.8448(3) 0.7802(3) 0.8542(4)
C258_2 C 0.8585(4) 0.7451(3) 0.8922(5)
H187_2 H 0.8938 0.7409 0.9022
C259_2 C 0.8212(4) 0.7161(3) 0.9158(5)
H188_2 H 0.8314 0.6944 0.9436
C260_2 C 0.9057(3) 0.8807(3) 0.7989(4)
H189_2 H 0.8957 0.9093 0.7954
C261_2 C 0.8700(3) 0.8535(3) 0.8189(5)
H190_2 H 0.8356 0.8624 0.8261
C262_2 C 0.8840(3) 0.8121(3) 0.8290(5)
C263_2 C 0.9360(3) 0.7995(3) 0.8164(5)
H191_2 H 0.9470 0.7714 0.8233
C264_2 C 0.9698(4) 0.8299(3) 0.7935(4)
N25_2 N 0.9563(3) 0.8707(2) 0.7828(4)
S29 S 0.95246(8) 0.95638(6) 0.67663(11)
Cu20_5 Cu 1.0000 1.0000 0.86757(7)
C221_2 C 0.9165(3) 0.9627(3) 0.9473(4)
H161_2 H 0.9036 0.9905 0.9449
C222_2 C 0.8870(3) 0.9328(3) 0.9763(4)
H162_2 H 0.8556 0.9412 0.9951
C223_2 C 0.9005(4) 0.8921(3) 0.9792(5)
C224_2 C 0.9528(3) 0.8850(3) 0.9569(4)
H163_2 H 0.9684 0.8582 0.9622
C225_2 C 0.9793(3) 0.9160(2) 0.9287(4)
C227_2 C 0.8141(3) 0.8565(2) 0.9803(5)
H165_2 H 0.8031 0.8777 0.9520
H166_2 H 0.7441 0.8266 0.9876
N23_2 N 0.9624(3) 0.9547(2) 0.9223(3)
H177_2 H 0.9954 0.9224 0.5160
I5 I 0.00825(2) 0.80287(2) 0.32337(3)
I5_2 I 0.99175(2) 0.19713(2) 0.32337(3)
I5_3 I 0.50825(2) 0.69713(2) 0.82337(3)
I5_4 I 0.49175(2) 0.30287(2) 0.82337(3)
loop_
_geom_bond_atom_site_label_1
_geom_bond_atom_site_label_2
_geom_bond_site_symmetry_1
_geom_bond_site_symmetry_2
S1 Cu1 1_555 1_555
W1 S1 1_555 1_555
C45 H33 1_555 1_555
C46 C45 1_555 1_555
H34 C46 1_555 1_555
C47 C46 1_555 1_555
C48 C47 1_555 1_555
H35 C48 1_555 1_555
C49 C48 1_555 1_555
H36 C49 1_555 1_555
C50 C47 1_555 1_555
C51 C50 1_555 1_555
H37 C51 1_555 1_555
C52 C51 1_555 1_555
H38 C52 1_555 1_555
C53 C52 1_555 1_555
C54 C53 1_555 1_555
H39 C54 1_555 1_555
C55 C50 1_555 1_555
H40 C55 1_555 1_555
C56 C53 1_555 1_555
C57 C56 1_555 1_555
H41 C57 1_555 1_555
C58 C57 1_555 1_555
H42 C58 1_555 1_555
C59 C58 1_555 1_555
C60 C59 1_555 1_555
H43 C60 1_555 1_555
C61 C56 1_555 1_555
H44 C61 1_555 1_555
C62 H45 1_555 1_555
C63 C62 1_555 1_555
H46 C63 1_555 1_555
C64 C59 1_555 1_555
C65 C64 1_555 1_555
H47 C65 1_555 1_555
C66 C65 1_555 1_555
H48 C66 1_555 1_555
C78 C75 1_555 1_555
C79 C78 1_555 1_555
H57 C79 1_555 1_555
C80 C79 1_555 1_555
H58 C80 1_555 1_555
C81 C80 1_555 1_555
C82 C81 1_555 1_555
H59 C82 1_555 1_555
C83 C78 1_555 1_555
H60 C83 1_555 1_555
C84 H61 1_555 1_555
C85 C84 1_555 1_555
H62 C85 1_555 1_555
C86 C81 1_555 1_555
C87 C86 1_555 1_555
H63 C87 1_555 1_555
C88 C87 1_555 1_555
H64 C88 1_555 1_555
Cu6 S6 1_555 1_555
Cu7 N6 1_555 1_555
N5 Cu1 1_555 1_555
N6 C62 1_555 1_555
N9 C84 1_555 1_555
S5 Cu7 1_555 1_555
S6 W1 1_555 1_555
S10 Cu7 1_555 1_555
C45 N5 1_555 1_555
C49 N5 1_555 1_555
C54 C55 1_555 1_555
C60 C61 1_555 1_555
C63 C64 1_555 1_555
C66 N6 1_555 1_555
C82 C83 1_555 1_555
C85 C86 1_555 1_555
C88 N9 1_555 1_555
Cu7 N9 1_555 1_555
Cu9 S6 1_555 1_555
C24 C23 1_555 1_555
H18 C24 1_555 1_555
C25 C24 1_555 1_555
C26 C25 1_555 1_555
H19 C26 1_555 1_555
C27 C26 1_555 1_555
H20 C27 1_555 1_555
C28 C25 1_555 1_555
C29 C28 1_555 1_555
H21 C29 1_555 1_555
C30 C29 1_555 1_555
H23 C32 1_555 1_555
C33 C28 1_555 1_555
H24 C33 1_555 1_555
Cu6 N3 1_555 1_555
N3 C23 1_555 1_555
C27 N3 1_555 1_555
C32 C33 1_555 1_555
Cu4 S10 1_555 1_555
W2 S10 1_555 1_555
S5 W2 1_555 1_555
C67 H49_2 1_555 1_555
C68 C67 1_555 1_555
H50 C68 1_555 1_555
C69 C68 1_555 1_555
C70 C69 1_555 1_555
H51 C70 1_555 1_555
C71 C70 1_555 1_555
H52 C71 1_555 1_555
C72 C69 1_555 1_555
C73 C72 1_555 1_555
H53 C73 1_555 1_555
C74 C73 1_555 1_555
H54_2 C74 1_555 1_555
C75_2 C74 1_555 1_555
C76 C75_2 1_555 1_555
H55 C76 1_555 1_555
C77 C72 1_555 1_555
H56 C77 1_555 1_555
C78_2 C75_2 1_555 1_555
C79_2 C78_2 1_555 1_555
H57_2 C79_2 1_555 1_555
C80_2 C79_2 1_555 1_555
H58_2 C80_2 1_555 1_555
C81_2 C80_2 1_555 1_555
C82_2 C81_2 1_555 1_555
H59_2 C82_2 1_555 1_555
C83_2 C78_2 1_555 1_555
H60_2 C83_2 1_555 1_555
C84_2 H61_2 1_555 1_555
C85_2 C84_2 1_555 1_555
H62_2 C85_2 1_555 1_555
C86_2 C81_2 1_555 1_555
C87_2 C86_2 1_555 1_555
H63_2 C87_2 1_555 1_555
C88_2 C87_2 1_555 1_555
H64_2 C88_2 1_555 1_555
Cu4 N7 1_555 1_555
N7 C67 1_555 1_555
N9_2 C84_2 1_555 1_555
C71 N7 1_555 1_555
C76 C77 1_555 1_555
C82_2 C83_2 1_555 1_555
C85_2 C86_2 1_555 1_555
C88_2 N9_2 1_555 1_555
Cu9 N9_2 1_555 1_555
S5 Cu1_2 1_555 1_555
C2 C1 1_555 1_555
H2 C2 1_555 1_555
C3 C2 1_555 1_555
C4 C3 1_555 1_555
H3 C4 1_555 1_555
C5 C4 1_555 1_555
H4 C5 1_555 1_555
C6 C3 1_555 1_555
C7 C6 1_555 1_555
H5 C7 1_555 1_555
C8 C7 1_555 1_555
H6 C8 1_555 1_555
C9 C8 1_555 1_555
C10 C9 1_555 1_555
H7 C10 1_555 1_555
C11 C6 1_555 1_555
H8 C11 1_555 1_555
C12 C9 1_555 1_555
C13 C12 1_555 1_555
H9 C13 1_555 1_555
C14 C13 1_555 1_555
H10 C14 1_555 1_555
C15 C14 1_555 1_555
C16 C15 1_555 1_555
H11 C16 1_555 1_555
C17 C12 1_555 1_555
H12 C17 1_555 1_555
C19 C18 1_555 1_555
H14 C19 1_555 1_555
C20 C15 1_555 1_555
C21 C20 1_555 1_555
H15 C21 1_555 1_555
C22 C21 1_555 1_555
H16 C22 1_555 1_555
N1 C1 1_555 1_555
N2 C18 1_555 1_555
C5 N1 1_555 1_555
C10 C11 1_555 1_555
C16 C17 1_555 1_555
C19 C20 1_555 1_555
C22 N2 1_555 1_555
C68_2 C67_2 1_555 1_555
H50_2 C68_2 1_555 1_555
C69_2 C68_2 1_555 1_555
C70_2 C69_2 1_555 1_555
H51_2 C70_2 1_555 1_555
C71_2 C70_2 1_555 1_555
H52_2 C71_2 1_555 1_555
C72_2 C69_2 1_555 1_555
C73_2 C72_2 1_555 1_555
H53_2 C73_2 1_555 1_555
C74_2 C73_2 1_555 1_555
H55_2 C76_2 1_555 1_555
C77_2 C72_2 1_555 1_555
H56_2 C77_2 1_555 1_555
Cu6_2 N7_2 1_555 1_555
N7_2 C67_2 1_555 1_555
C71_2 N7_2 1_555 1_555
C76_2 C77_2 1_555 1_555
C1_2 H1 1_555 1_555
C2_2 C1_2 1_555 1_555
H2_2 C2_2 1_555 1_555
C3_2 C2_2 1_555 1_555
C4_2 C3_2 1_555 1_555
H3_2 C4_2 1_555 1_555
C5_2 C4_2 1_555 1_555
H4_2 C5_2 1_555 1_555
C6_2 C3_2 1_555 1_555
C7_2 C6_2 1_555 1_555
H5_2 C7_2 1_555 1_555
C8_2 C7_2 1_555 1_555
H6_2 C8_2 1_555 1_555
C9_2 C8_2 1_555 1_555
C10_2 C9_2 1_555 1_555
H7_2 C10_2 1_555 1_555
C11_2 C6_2 1_555 1_555
H8_2 C11_2 1_555 1_555
C12_2 C9_2 1_555 1_555
C13_2 C12_2 1_555 1_555
H9_2 C13_2 1_555 1_555
C14_2 C13_2 1_555 1_555
H10_2 C14_2 1_555 1_555
C15_2 C14_2 1_555 1_555
C16_2 C15_2 1_555 1_555
H11_2 C16_2 1_555 1_555
C17_2 C12_2 1_555 1_555
H12_2 C17_2 1_555 1_555
C18_2 H13 1_555 1_555
C19_2 C18_2 1_555 1_555
H14_2 C19_2 1_555 1_555
C20_2 C15_2 1_555 1_555
C21_2 C20_2 1_555 1_555
H15_2 C21_2 1_555 1_555
C22_2 C21_2 1_555 1_555
H16_2 C22_2 1_555 1_555
C34 C31 1_555 1_555
C35 C34 1_555 1_555
H25 C35 1_555 1_555
C36 C35 1_555 1_555
H26 C36 1_555 1_555
C37 C36 1_555 1_555
C38 C37 1_555 1_555
H27 C38 1_555 1_555
C39 C34 1_555 1_555
H28 C39 1_555 1_555
C40 H29 1_555 1_555
C41 C40 1_555 1_555
H30 C41 1_555 1_555
C42 C37 1_555 1_555
C43 C42 1_555 1_555
H31 C43 1_555 1_555
C44 C43 1_555 1_555
H32 C44 1_555 1_555
Cu1_3 N1_2 1_555 1_555
Cu3 N2_2 1_555 1_555
N1_2 C1_2 1_555 1_555
N2_2 C18_2 1_555 1_555
N4 C40 1_555 1_555
S2 Cu3 1_555 1_555
Cu4_2 S2 1_555 1_555
S3 Cu1_3 1_555 1_555
S4 Cu3 1_555 1_555
S9 W1_2 1_555 1_555
W2_2 S2 1_555 1_555
C5_2 N1_2 1_555 1_555
C10_2 C11_2 1_555 1_555
C16_2 C17_2 1_555 1_555
C19_2 C20_2 1_555 1_555
C22_2 N2_2 1_555 1_555
C38 C39 1_555 1_555
C41 C42 1_555 1_555
C44 N4 1_555 1_555
Cu3 N4 1_555 1_555
W1_2 S3 1_555 1_555
Cu6_2 S9 1_555 1_555
Cu8 S9 1_555 1_555
S4 W2_2 1_555 1_555
C46_2 C45_2 1_555 1_555
H34_2 C46_2 1_555 1_555
C47_2 C46_2 1_555 1_555
C48_2 C47_2 1_555 1_555
H35_2 C48_2 1_555 1_555
C49_2 C48_2 1_555 1_555
H36_2 C49_2 1_555 1_555
C50_2 C47_2 1_555 1_555
C51_2 C50_2 1_555 1_555
H37_2 C51_2 1_555 1_555
C52_2 C51_2 1_555 1_555
H38_2 C52_2 1_555 1_555
C53_2 C52_2 1_555 1_555
C54_2 C53_2 1_555 1_555
H39_2 C54_2 1_555 1_555
C55_2 C50_2 1_555 1_555
H40_2 C55_2 1_555 1_555
C56_2 C53_2 1_555 1_555
C57_2 C56_2 1_555 1_555
H41_2 C57_2 1_555 1_555
C58_2 C57_2 1_555 1_555
H42_2 C58_2 1_555 1_555
C59_2 C58_2 1_555 1_555
C60_2 C59_2 1_555 1_555
H43_2 C60_2 1_555 1_555
C61_2 C56_2 1_555 1_555
H44_2 C61_2 1_555 1_555
C63_2 C62_2 1_555 1_555
H46_2 C63_2 1_555 1_555
C64_2 C59_2 1_555 1_555
C65_2 C64_2 1_555 1_555
H47_2 C65_2 1_555 1_555
C66_2 C65_2 1_555 1_555
H48_2 C66_2 1_555 1_555
N6_2 C62_2 1_555 1_555
C45_2 N5_2 1_555 1_555
C49_2 N5_2 1_555 1_555
C54_2 C55_2 1_555 1_555
C60_2 C61_2 1_555 1_555
C63_2 C64_2 1_555 1_555
C66_2 N6_2 1_555 1_555
S4 Cu1_4 1_555 1_555
C23_2 H17_2 1_555 1_555
C24_2 C23_2 1_555 1_555
H18_2 C24_2 1_555 1_555
C25_2 C24_2 1_555 1_555
C26_2 C25_2 1_555 1_555
H19_2 C26_2 1_555 1_555
C27_2 C26_2 1_555 1_555
H20_2 C27_2 1_555 1_555
C28_2 C25_2 1_555 1_555
C29_2 C28_2 1_555 1_555
H21_2 C29_2 1_555 1_555
C30_2 C29_2 1_555 1_555
H22_2 C30_2 1_555 1_555
C31_2 C30_2 1_555 1_555
C32_2 C31_2 1_555 1_555
H23_2 C32_2 1_555 1_555
C33_2 C28_2 1_555 1_555
H24_2 C33_2 1_555 1_555
C34_2 C31_2 1_555 1_555
C35_2 C34_2 1_555 1_555
H25_2 C35_2 1_555 1_555
C36_2 C35_2 1_555 1_555
H26_2 C36_2 1_555 1_555
C37_2 C36_2 1_555 1_555
C38_2 C37_2 1_555 1_555
H27_2 C38_2 1_555 1_555
C39_2 C34_2 1_555 1_555
H28_2 C39_2 1_555 1_555
C40_2 H29_2 1_555 1_555
C41_2 C40_2 1_555 1_555
H30_2 C41_2 1_555 1_555
C42_2 C37_2 1_555 1_555
C43_2 C42_2 1_555 1_555
H31_2 C43_2 1_555 1_555
C44_2 C43_2 1_555 1_555
H32_2 C44_2 1_555 1_555
Cu4_2 N3_2 1_555 1_555
N3_2 C23_2 1_555 1_555
N4_2 C40_2 1_555 1_555
C27_2 N3_2 1_555 1_555
C32_2 C33_2 1_555 1_555
C38_2 C39_2 1_555 1_555
C41_2 C42_2 1_555 1_555
C44_2 N4_2 1_555 1_555
Cu8 N4_2 1_555 1_555
C89 H65 1_555 1_555
C90 C89 1_555 1_555
H66 C90 1_555 1_555
C95 C94 1_555 1_555
H69 C95 1_555 1_555
C96 C95 1_555 1_555
H70 C96 1_555 1_555
C97 C96 1_555 1_555
C100 C97 1_555 1_555
C101 C100 1_555 1_555
H73 C101 1_555 1_555
C102 C101 1_555 1_555
H74 C102 1_555 1_555
C103 C102 1_555 1_555
C104 C103 1_555 1_555
C105 C100 1_555 1_555
C106 H77 1_555 1_555
C107 C106 1_555 1_555
H78 C107 1_555 1_555
C108 C103 1_555 1_555
C109 C108 1_555 1_555
H79 C109 1_555 1_555
C110 C109 1_555 1_555
H80 C110 1_555 1_555
Cu12 I2 1_555 1_555
N11 C106 1_555 1_555
S14 Cu12 1_555 1_555
Cu15 S15 1_555 1_555
Cu18 S18 1_555 1_555
S15 W4 1_555 1_555
S18 Cu15 1_555 1_555
S20 Cu12 1_555 1_555
W4 S14 1_555 1_555
C104 C105 1_555 1_555
C107 C108 1_555 1_555
C110 N11 1_555 1_555
Cu12 N11 1_555 1_555
Cu18 S20 1_555 1_555
S18 W4 1_555 1_555
S20 W4 1_555 1_555
C111 H81 1_555 1_555
C112 C111 1_555 1_555
H82 C112 1_555 1_555
C113 C112 1_555 1_555
C114 C113 1_555 1_555
H83 C114 1_555 1_555
C115 C114 1_555 1_555
H84 C115 1_555 1_555
C116 C113 1_555 1_555
C117 C116 1_555 1_555
H85 C117 1_555 1_555
C118 C117 1_555 1_555
H86 C118 1_555 1_555
C119 C118 1_555 1_555
C120 C119 1_555 1_555
H87 C120 1_555 1_555
C121 C116 1_555 1_555
H88 C121 1_555 1_555
C122 C119 1_555 1_555
C123 C122 1_555 1_555
H89 C123 1_555 1_555
C124 C123 1_555 1_555
H90 C124 1_555 1_555
C125 C124 1_555 1_555
C126 C125 1_555 1_555
H91 C126 1_555 1_555
C127 C122 1_555 1_555
H92 C127 1_555 1_555
C128 H93 1_555 1_555
C129 C128 1_555 1_555
H94 C129 1_555 1_555
C130 C125 1_555 1_555
C131 C130 1_555 1_555
H95 C131 1_555 1_555
C132 C131 1_555 1_555
H96 C132 1_555 1_555
Cu11 N12 1_555 1_555
N12 C111 1_555 1_555
N13 C128 1_555 1_555
S13 Cu11 1_555 1_555
C170 C169 1_555 1_555
H123 C170 1_555 1_555
C172 H125 1_555 1_555
C173 C172 1_555 1_555
H126 C173 1_555 1_555
C174 C169 1_555 1_555
C175 C174 1_555 1_555
C176 C175 1_555 1_555
H128 C176 1_555 1_555
Cu18 N13 1_555 1_555
N17 Cu11 1_555 1_555
C115 N12 1_555 1_555
C120 C121 1_555 1_555
C126 C127 1_555 1_555
C129 C130 1_555 1_555
C132 N13 1_555 1_555
Cu11 S12 1_555 1_555
C170 C171 1_555 1_555
C172 N17 1_555 1_555
C173 C174 1_555 1_555
C176 N17 1_555 1_555
C133 H97 1_555 1_555
C134 C133 1_555 1_555
H98 C134 1_555 1_555
C135 C134 1_555 1_555
C136 C135 1_555 1_555
H99 C136 1_555 1_555
C137 C136 1_555 1_555
H100 C137 1_555 1_555
C138 C135 1_555 1_555
C139 C138 1_555 1_555
H101 C139 1_555 1_555
C140 C139 1_555 1_555
C141 C140 1_555 1_555
C142 C141 1_555 1_555
H103 C142 1_555 1_555
C143 C138 1_555 1_555
H104 C143 1_555 1_555
Cu15 I3 1_555 1_555
N14 C133 1_555 1_555
C137 N14 1_555 1_555
C142 C143 1_555 1_555
Cu15 N14 1_555 1_555
C155 H113 1_555 1_555
C156 C155 1_555 1_555
H114 C156 1_555 1_555
C157 C156 1_555 1_555
C158 C157 1_555 1_555
H115 C158 1_555 1_555
C159 C158 1_555 1_555
H116 C159 1_555 1_555
C160 C157 1_555 1_555
C161 C160 1_555 1_555
H117 C161 1_555 1_555
C162 C161 1_555 1_555
H118 C162 1_555 1_555
C163 C162 1_555 1_555
C164 C163 1_555 1_555
H119 C164 1_555 1_555
C165 C160 1_555 1_555
H120 C165 1_555 1_555
Cu18 N16 1_555 1_555
N16 C155 1_555 1_555
C159 N16 1_555 1_555
C164 C165 1_555 1_555
C92 C91 1_555 1_555
H67 C92 1_555 1_555
C93 C92 1_555 1_555
H68 C93 1_555 1_555
H71 C98 1_555 1_555
H72 C99 1_555 1_555
S11 Cu10 1_555 1_555
W3 S11 1_555 1_555
C145 C144 1_555 1_555
H105 C145 1_555 1_555
C146 C145 1_555 1_555
H106 C146 1_555 1_555
C147 C146 1_555 1_555
C148 C147 1_555 1_555
H107 C148 1_555 1_555
C149 C144 1_555 1_555
H108 C149 1_555 1_555
C150 H109 1_555 1_555
C151 C150 1_555 1_555
H110 C151 1_555 1_555
C152 C147 1_555 1_555
C153 C152 1_555 1_555
H111 C153 1_555 1_555
C154 C153 1_555 1_555
H112 C154 1_555 1_555
N15 C150 1_555 1_555
S22 W3 1_555 1_555
C93 N10 1_555 1_555
C98 C99 1_555 1_555
Cu10 N10 1_555 1_555
C148 C149 1_555 1_555
C151 C152 1_555 1_555
C154 N15 1_555 1_555
Cu19 N15 1_555 1_555
Cu19 S22 1_555 1_555
C167 C166 1_555 1_555
H121 C167 1_555 1_555
C168 C167 1_555 1_555
H122 C168 1_555 1_555
C155_2 H113_2 1_555 1_555
C156_2 C155_2 1_555 1_555
H114_2 C156_2 1_555 1_555
C157_2 C156_2 1_555 1_555
C158_2 C157_2 1_555 1_555
H115_2 C158_2 1_555 1_555
C159_2 C158_2 1_555 1_555
H116_2 C159_2 1_555 1_555
C160_2 C157_2 1_555 1_555
C161_2 C160_2 1_555 1_555
H117_2 C161_2 1_555 1_555
C162_2 C161_2 1_555 1_555
H118_2 C162_2 1_555 1_555
C163_2 C162_2 1_555 1_555
C164_2 C163_2 1_555 1_555
H119_2 C164_2 1_555 1_555
C165_2 C160_2 1_555 1_555
H120_2 C165_2 1_555 1_555
Cu14 S17 1_555 1_555
Cu16 N16_2 1_555 1_555
N16_2 C155_2 1_555 1_555
N18 Cu16 1_555 1_555
S17 Cu16 1_555 1_555
S21 Cu16 1_555 1_555
W5 S17 1_555 1_555
C159_2 N16_2 1_555 1_555
C164_2 C165_2 1_555 1_555
S21 W5 1_555 1_555
C133_2 H97_2 1_555 1_555
C134_2 C133_2 1_555 1_555
H98_2 C134_2 1_555 1_555
C135_2 C134_2 1_555 1_555
C136_2 C135_2 1_555 1_555
H99_2 C136_2 1_555 1_555
C137_2 C136_2 1_555 1_555
H100_2 C137_2 1_555 1_555
C138_2 C135_2 1_555 1_555
C139_2 C138_2 1_555 1_555
H101_2 C139_2 1_555 1_555
C140_2 C139_2 1_555 1_555
C141_2 C140_2 1_555 1_555
C142_2 C141_2 1_555 1_555
H103_2 C142_2 1_555 1_555
C143_2 C138_2 1_555 1_555
H104_2 C143_2 1_555 1_555
Cu14 I3_2 1_555 1_555
N14_2 C133_2 1_555 1_555
S16 Cu14 1_555 1_555
C137_2 N14_2 1_555 1_555
C142_2 C143_2 1_555 1_555
Cu14 N14_2 1_555 1_555
C111_2 H81_2 1_555 1_555
C112_2 C111_2 1_555 1_555
H82_2 C112_2 1_555 1_555
C113_2 C112_2 1_555 1_555
C114_2 C113_2 1_555 1_555
H83_2 C114_2 1_555 1_555
C115_2 C114_2 1_555 1_555
H84_2 C115_2 1_555 1_555
C116_2 C113_2 1_555 1_555
C117_2 C116_2 1_555 1_555
H85_2 C117_2 1_555 1_555
C118_2 C117_2 1_555 1_555
H86_2 C118_2 1_555 1_555
C119_2 C118_2 1_555 1_555
C120_2 C119_2 1_555 1_555
H87_2 C120_2 1_555 1_555
C121_2 C116_2 1_555 1_555
H88_2 C121_2 1_555 1_555
C122_2 C119_2 1_555 1_555
C123_2 C122_2 1_555 1_555
H89_2 C123_2 1_555 1_555
C124_2 C123_2 1_555 1_555
H90_2 C124_2 1_555 1_555
C125_2 C124_2 1_555 1_555
C126_2 C125_2 1_555 1_555
H91_2 C126_2 1_555 1_555
C127_2 C122_2 1_555 1_555
H92_2 C127_2 1_555 1_555
C128_2 H93_2 1_555 1_555
C129_2 C128_2 1_555 1_555
H94_2 C129_2 1_555 1_555
C130_2 C125_2 1_555 1_555
C131_2 C130_2 1_555 1_555
H95_2 C131_2 1_555 1_555
C132_2 C131_2 1_555 1_555
H96_2 C132_2 1_555 1_555
Cu11_2 N12_2 1_555 1_555
N12_2 C111_2 1_555 1_555
N18 C128_2 1_555 1_555
S13_2 Cu11_2 1_555 1_555
C170_2 C169_2 1_555 1_555
H123_2 C170_2 1_555 1_555
C172_2 H125_2 1_555 1_555
C173_2 C172_2 1_555 1_555
H126_2 C173_2 1_555 1_555
C174_2 C169_2 1_555 1_555
C175_2 C174_2 1_555 1_555
C176_2 C175_2 1_555 1_555
H128_2 C176_2 1_555 1_555
N17_2 Cu11_2 1_555 1_555
C115_2 N12_2 1_555 1_555
C120_2 C121_2 1_555 1_555
C126_2 C127_2 1_555 1_555
C129_2 C130_2 1_555 1_555
C132_2 N18 1_555 1_555
Cu11_2 S12_2 1_555 1_555
C170_2 C171_2 1_555 1_555
C172_2 N17_2 1_555 1_555
C173_2 C174_2 1_555 1_555
C176_2 N17_2 1_555 1_555
C89_2 H65_2 1_555 1_555
C90_2 C89_2 1_555 1_555
H66_2 C90_2 1_555 1_555
C95_2 C94_2 1_555 1_555
H69_2 C95_2 1_555 1_555
C96_2 C95_2 1_555 1_555
H70_2 C96_2 1_555 1_555
C97_2 C96_2 1_555 1_555
C100_2 C97_2 1_555 1_555
C101_2 C100_2 1_555 1_555
H73_2 C101_2 1_555 1_555
C102_2 C101_2 1_555 1_555
H74_2 C102_2 1_555 1_555
C103_2 C102_2 1_555 1_555
C104_2 C103_2 1_555 1_555
C105_2 C100_2 1_555 1_555
C106_2 H77_2 1_555 1_555
C107_2 C106_2 1_555 1_555
H78_2 C107_2 1_555 1_555
C108_2 C103_2 1_555 1_555
C109_2 C108_2 1_555 1_555
H79_2 C109_2 1_555 1_555
C110_2 C109_2 1_555 1_555
H80_2 C110_2 1_555 1_555
Cu12_2 I2_2 1_555 1_555
N11_2 C106_2 1_555 1_555
S14_2 Cu12_2 1_555 1_555
S16 W5 1_555 1_555
S21 Cu12_2 1_555 1_555
W5 S14_2 1_555 1_555
C104_2 C105_2 1_555 1_555
C107_2 C108_2 1_555 1_555
C110_2 N11_2 1_555 1_555
Cu12_2 N11_2 1_555 1_555
C167_2 C166_2 1_555 1_555
H121_2 C167_2 1_555 1_555
C168_2 C167_2 1_555 1_555
H122_2 C168_2 1_555 1_555
C92_2 C91_2 1_555 1_555
H67_2 C92_2 1_555 1_555
C93_2 C92_2 1_555 1_555
H68_2 C93_2 1_555 1_555
H71_2 C98_2 1_555 1_555
H72_2 C99_2 1_555 1_555
S11_2 Cu10_2 1_555 1_555
W3_2 S11_2 1_555 1_555
C145_2 C144_2 1_555 1_555
H105_2 C145_2 1_555 1_555
C146_2 C145_2 1_555 1_555
H106_2 C146_2 1_555 1_555
C147_2 C146_2 1_555 1_555
C148_2 C147_2 1_555 1_555
H107_2 C148_2 1_555 1_555
C149_2 C144_2 1_555 1_555
H108_2 C149_2 1_555 1_555
C150_2 H109_2 1_555 1_555
C151_2 C150_2 1_555 1_555
H110_2 C151_2 1_555 1_555
C152_2 C147_2 1_555 1_555
C153_2 C152_2 1_555 1_555
H111_2 C153_2 1_555 1_555
C154_2 C153_2 1_555 1_555
H112_2 C154_2 1_555 1_555
N15_2 C150_2 1_555 1_555
S22_2 W3_2 1_555 1_555
C93_2 N10_2 1_555 1_555
C98_2 C99_2 1_555 1_555
Cu10_2 N10_2 1_555 1_555
C148_2 C149_2 1_555 1_555
C151_2 C152_2 1_555 1_555
C154_2 N15_2 1_555 1_555
Cu19_2 N15_2 1_555 1_555
Cu19_2 S22_2 1_555 1_555
C199 H145 1_555 1_555
H147 C202 1_555 1_555
C203 C202 1_555 1_555
H148 C203 1_555 1_555
Cu22 N22 1_555 1_555
N22 C199 1_555 1_555
N27 Cu22 1_555 1_555
S26 Cu22 1_555 1_555
S27 Cu22 1_555 1_555
C203 N22 1_555 1_555
C177 H129 1_555 1_555
C178 C177 1_555 1_555
H130 C178 1_555 1_555
C179 C178 1_555 1_555
C180 C179 1_555 1_555
H131 C180 1_555 1_555
C181 C180 1_555 1_555
H132 C181 1_555 1_555
C182 C179 1_555 1_555
C183 C182 1_555 1_555
H133 C183 1_555 1_555
C184 C183 1_555 1_555
H134 C184 1_555 1_555
C185 C184 1_555 1_555
C186 C185 1_555 1_555
H135 C186 1_555 1_555
C187 C182 1_555 1_555
H136 C187 1_555 1_555
C188 C185 1_555 1_555
C189 C188 1_555 1_555
H137 C189 1_555 1_555
C190 C189 1_555 1_555
H138 C190 1_555 1_555
C191 C190 1_555 1_555
C192 C191 1_555 1_555
H139 C192 1_555 1_555
C193 C188 1_555 1_555
H140 C193 1_555 1_555
C194 H141 1_555 1_555
C195 C194 1_555 1_555
H142 C195 1_555 1_555
C196 C191 1_555 1_555
C197 C196 1_555 1_555
H143 C197 1_555 1_555
C198 C197 1_555 1_555
H144 C198 1_555 1_555
Cu20 N19 1_555 1_555
Cu21 N20 1_555 1_555
N19 C177 1_555 1_555
N20 C194 1_555 1_555
S24 Cu20 1_555 1_555
W6 S24 1_555 1_555
C221 H161 1_555 1_555
C222 C221 1_555 1_555
H162 C222 1_555 1_555
C223 C222 1_555 1_555
C224 C223 1_555 1_555
H163 C224 1_555 1_555
C225 C224 1_555 1_555
H164 C225 1_555 1_555
C226 C223 1_555 1_555
C227 C226 1_555 1_555
H165 C227 1_555 1_555
C228 C227 1_555 1_555
H166 C228 1_555 1_555
C229 C228 1_555 1_555
C230 C229 1_555 1_555
H167 C230 1_555 1_555
C231 C226 1_555 1_555
H168 C231 1_555 1_555
C232 C229 1_555 1_555
C233 C232 1_555 1_555
H169 C233 1_555 1_555
C234 C233 1_555 1_555
H170 C234 1_555 1_555
C235 C234 1_555 1_555
C236 C235 1_555 1_555
H171 C236 1_555 1_555
C237 C232 1_555 1_555
H172 C237 1_555 1_555
C238 H173 1_555 1_555
C239 C238 1_555 1_555
H174 C239 1_555 1_555
C240 C235 1_555 1_555
C241 C240 1_555 1_555
H175 C241 1_555 1_555
C242 C241 1_555 1_555
H176 C242 1_555 1_555
Cu23 N24 1_555 1_555
Cu24 S24 1_555 1_555
Cu25 S26 1_555 1_555
N23 Cu20 1_555 1_555
N24 C238 1_555 1_555
S26 W6 1_555 1_555
S27 W6 1_555 1_555
S30 Cu20 1_555 1_555
S31 Cu21 1_555 1_555
S32 Cu23 1_555 1_555
C181 N19 1_555 1_555
C186 C187 1_555 1_555
C192 C193 1_555 1_555
C195 C196 1_555 1_555
C198 N20 1_555 1_555
W6 S30 1_555 1_555
C221 N23 1_555 1_555
C225 N23 1_555 1_555
C230 C231 1_555 1_555
C236 C237 1_555 1_555
C239 C240 1_555 1_555
C242 N24 1_555 1_555
Cu24 S27 1_555 1_555
Cu25 S30 1_555 1_555
S31 W7_2 1_555 1_555
C243 H177 1_555 1_555
H179 C246 1_555 1_555
C247 C246 1_555 1_555
H180 C247 1_555 1_555
N27 C243 1_555 1_555
C247 N27 1_555 1_555
S32 W7 1_555 1_555
N27_2 Cu26 1_555 1_555
C185_2 C184_2 1_555 1_555
C186_2 C185_2 1_555 1_555
H135_2 C186_2 1_555 1_555
C187_2 C182_2 1_555 1_555
H136_2 C187_2 1_555 1_555
C188_2 C185_2 1_555 1_555
C189_2 C188_2 1_555 1_555
H137_2 C189_2 1_555 1_555
C190_2 C189_2 1_555 1_555
H138_2 C190_2 1_555 1_555
C191_2 C190_2 1_555 1_555
C192_2 C191_2 1_555 1_555
H139_2 C192_2 1_555 1_555
C193_2 C188_2 1_555 1_555
H140_2 C193_2 1_555 1_555
C194_2 H141_2 1_555 1_555
C195_2 C194_2 1_555 1_555
H142_2 C195_2 1_555 1_555
C196_2 C191_2 1_555 1_555
C197_2 C196_2 1_555 1_555
H143_2 C197_2 1_555 1_555
C198_2 C197_2 1_555 1_555
H144_2 C198_2 1_555 1_555
C200 C199_2 1_555 1_555
H146 C200 1_555 1_555
C201 C200 1_555 1_555
C202_2 C201 1_555 1_555
H147_2 C202_2 1_555 1_555
C203_2 C202_2 1_555 1_555
H148_2 C203_2 1_555 1_555
C204 C201 1_555 1_555
C205 C204 1_555 1_555
H149 C205 1_555 1_555
C206 C205 1_555 1_555
H150 C206 1_555 1_555
C207 C206 1_555 1_555
C208 C207 1_555 1_555
H151 C208 1_555 1_555
C209 C204 1_555 1_555
H152 C209 1_555 1_555
C210 C207 1_555 1_555
C211 C210 1_555 1_555
H153 C211 1_555 1_555
C212 C211 1_555 1_555
H154 C212 1_555 1_555
C213 C212 1_555 1_555
C214 C213 1_555 1_555
H155 C214 1_555 1_555
C215 C210 1_555 1_555
H156 C215 1_555 1_555
C216 H157 1_555 1_555
C217 C216 1_555 1_555
H158 C217 1_555 1_555
C218 C213 1_555 1_555
C219 C218 1_555 1_555
H159 C219 1_555 1_555
C220 C219 1_555 1_555
H160_2 C220 1_555 1_555
Cu25 N20_2 1_555 1_555
Cu26_2 N22_2 1_555 1_555
N20_2 C194_2 1_555 1_555
N21 C216 1_555 1_555
N22_2 C199_2 1_555 1_555
C186_2 C187_2 1_555 1_555
C192_2 C193_2 1_555 1_555
C195_2 C196_2 1_555 1_555
C198_2 N20_2 1_555 1_555
C203_2 N22_2 1_555 1_555
C208 C209 1_555 1_555
C214 C215 1_555 1_555
C217 C218 1_555 1_555
C220 N21 1_555 1_555
Cu25 N21 1_555 1_555
S32 Cu20_2 1_555 1_555
S31 Cu20_3 1_555 1_555
C229_2 C228_2 1_555 1_555
C230_2 C229_2 1_555 1_555
H167_2 C230_2 1_555 1_555
C231_2 C226_2 1_555 1_555
H168_2 C231_2 1_555 1_555
C232_2 C229_2 1_555 1_555
C233_2 C232_2 1_555 1_555
H169_2 C233_2 1_555 1_555
C234_2 C233_2 1_555 1_555
H170_2 C234_2 1_555 1_555
C235_2 C234_2 1_555 1_555
C236_2 C235_2 1_555 1_555
H171_2 C236_2 1_555 1_555
C237_2 C232_2 1_555 1_555
H172_2 C237_2 1_555 1_555
C238_2 H173_2 1_555 1_555
C239_2 C238_2 1_555 1_555
H174_2 C239_2 1_555 1_555
C240_2 C235_2 1_555 1_555
C241_2 C240_2 1_555 1_555
H175_2 C241_2 1_555 1_555
C242_2 C241_2 1_555 1_555
H176_2 C242_2 1_555 1_555
C244 C243_2 1_555 1_555
H178 C244 1_555 1_555
C245 C244 1_555 1_555
C246_2 C245 1_555 1_555
H179_2 C246_2 1_555 1_555
C247_2 C246_2 1_555 1_555
H180_2 C247_2 1_555 1_555
C248 C245 1_555 1_555
C249 C248 1_555 1_555
H181 C249 1_555 1_555
C250 C249 1_555 1_555
H182 C250 1_555 1_555
C251 C250 1_555 1_555
C252 C251 1_555 1_555
H183 C252 1_555 1_555
C253 C248 1_555 1_555
H184 C253 1_555 1_555
C254 C251 1_555 1_555
C255 C254 1_555 1_555
H185 C255 1_555 1_555
C256 C255 1_555 1_555
H186 C256 1_555 1_555
C257 C256 1_555 1_555
C258 C257 1_555 1_555
H187 C258 1_555 1_555
C259 C254 1_555 1_555
H188 C259 1_555 1_555
C260 H189 1_555 1_555
C261 C260 1_555 1_555
H190 C261 1_555 1_555
C262 C257 1_555 1_555
C263 C262 1_555 1_555
H191 C263 1_555 1_555
C264 C263 1_555 1_555
H192_2 C264 1_555 1_555
Cu24 N24_2 1_555 1_555
N24_2 C238_2 1_555 1_555
N25 C260 1_555 1_555
N27_2 C243_2 1_555 1_555
C230_2 C231_2 1_555 1_555
C236_2 C237_2 1_555 1_555
C239_2 C240_2 1_555 1_555
C242_2 N24_2 1_555 1_555
C247_2 N27_2 1_555 1_555
C252 C253 1_555 1_555
C258 C259 1_555 1_555
C261 C262 1_555 1_555
C264 N25 1_555 1_555
Cu24 N25 1_555 1_555
H146_2 C200_2 1_555 1_555
C201_2 C200_2 1_555 1_555
C204_2 C201_2 1_555 1_555
C205_2 C204_2 1_555 1_555
H149_2 C205_2 1_555 1_555
C206_2 C205_2 1_555 1_555
H150_2 C206_2 1_555 1_555
C207_2 C206_2 1_555 1_555
C208_2 C207_2 1_555 1_555
H151_2 C208_2 1_555 1_555
C209_2 C204_2 1_555 1_555
H152_2 C209_2 1_555 1_555
C210_2 C207_2 1_555 1_555
C211_2 C210_2 1_555 1_555
H153_2 C211_2 1_555 1_555
C212_2 C211_2 1_555 1_555
H154_2 C212_2 1_555 1_555
C213_2 C212_2 1_555 1_555
C214_2 C213_2 1_555 1_555
H155_2 C214_2 1_555 1_555
C215_2 C210_2 1_555 1_555
H156_2 C215_2 1_555 1_555
C216_2 H157_2 1_555 1_555
C217_2 C216_2 1_555 1_555
H158_2 C217_2 1_555 1_555
C218_2 C213_2 1_555 1_555
C219_2 C218_2 1_555 1_555
H159_2 C219_2 1_555 1_555
C220_2 C219_2 1_555 1_555
N21_2 C216_2 1_555 1_555
Cu26_3 S23 1_555 1_555
W7_3 S23 1_555 1_555
C208_2 C209_2 1_555 1_555
C214_2 C215_2 1_555 1_555
C217_2 C218_2 1_555 1_555
C220_2 N21_2 1_555 1_555
C177_2 H129_2 1_555 1_555
C178_2 C177_2 1_555 1_555
H130_2 C178_2 1_555 1_555
C179_2 C178_2 1_555 1_555
C180_2 C179_2 1_555 1_555
H131_2 C180_2 1_555 1_555
C181_2 C180_2 1_555 1_555
H133_2 C183_2 1_555 1_555
Cu20_4 N19_2 1_555 1_555
N19_2 C177_2 1_555 1_555
C181_2 N19_2 1_555 1_555
H178_2 C244_2 1_555 1_555
C245_2 C244_2 1_555 1_555
C248_2 C245_2 1_555 1_555
C249_2 C248_2 1_555 1_555
H181_2 C249_2 1_555 1_555
C250_2 C249_2 1_555 1_555
H182_2 C250_2 1_555 1_555
C251_2 C250_2 1_555 1_555
C252_2 C251_2 1_555 1_555
H183_2 C252_2 1_555 1_555
C253_2 C248_2 1_555 1_555
H184_2 C253_2 1_555 1_555
C254_2 C251_2 1_555 1_555
C255_2 C254_2 1_555 1_555
H185_2 C255_2 1_555 1_555
C256_2 C255_2 1_555 1_555
H186_2 C256_2 1_555 1_555
C257_2 C256_2 1_555 1_555
C258_2 C257_2 1_555 1_555
H187_2 C258_2 1_555 1_555
C259_2 C254_2 1_555 1_555
H188_2 C259_2 1_555 1_555
C260_2 H189_2 1_555 1_555
C261_2 C260_2 1_555 1_555
H190_2 C261_2 1_555 1_555
C262_2 C257_2 1_555 1_555
C263_2 C262_2 1_555 1_555
H191_2 C263_2 1_555 1_555
C264_2 C263_2 1_555 1_555
N25_2 C260_2 1_555 1_555
C252_2 C253_2 1_555 1_555
C258_2 C259_2 1_555 1_555
C261_2 C262_2 1_555 1_555
C264_2 N25_2 1_555 1_555
Cu26_4 S29 1_555 1_555
W7_4 S29 1_555 1_555
C221_2 H161_2 1_555 1_555
C222_2 C221_2 1_555 1_555
H162_2 C222_2 1_555 1_555
C223_2 C222_2 1_555 1_555
C224_2 C223_2 1_555 1_555
H163_2 C224_2 1_555 1_555
C225_2 C224_2 1_555 1_555
H165_2 C227_2 1_555 1_555
N23_2 Cu20_5 1_555 1_555
C221_2 N23_2 1_555 1_555
C225_2 N23_2 1_555 1_555

#END
