
###############################################################################
#
# This file contains modified crystal structure data generated from the
# MOF subset of the Cambridge Structural Database (CSD) v543 
# hosted by the Cambridge Crystallographic Data Centre (CCDC).
#
# This work is licensed under the Creative Commons
# Attribution-NonCommercial-ShareAlike 4.0 International License.
# To view a copy of this license, visit
# http://creativecommons.org/licenses/by-nc-sa/4.0/
# or send a letter to
# Creative Commons, PO Box 1866, Mountain View, CA 94042, USA.
#
# CIF created using the CSD Python API on 29 September 2022
# The structure has been converted into the P1 space group
# The structure has a 3D framework
# The original CSD entry AMUWUB is in the triclinic crystal system
# The framework has been calculated to contain at least 10.0% void space
# The void calculation uses a probe of radius 1.32A, grid spacing 0.4
# H atom positions have been added when not included in the experimental data
#
###############################################################################

data_AMUWUB
_chemical_formula_moiety         '(C74 H54 Cu6 N6 O30)n'
_symmetry_cell_setting           triclinic
_symmetry_space_group_name_H-M   'P 1'
_symmetry_Int_Tables_number      1
_space_group_name_Hall           'P 1'
loop_
_symmetry_equiv_pos_site_id
_symmetry_equiv_pos_as_xyz
1 x,y,z
_cell_length_a                   10.0358(6)
_cell_length_b                   15.9728(9)
_cell_length_c                   21.5590(12)
_cell_angle_alpha                98.333(5)
_cell_angle_beta                 93.782(5)
_cell_angle_gamma                107.759(5)
_cell_volume                     3234.14
loop_
_atom_site_label
_atom_site_type_symbol
_atom_site_fract_x
_atom_site_fract_y
_atom_site_fract_z
Cu6 Cu 0.04994(5) 0.40772(4) 0.63307(3)
O9 O 0.9167(3) 0.2921(2) 0.65140(16)
O10 O 0.8924(3) 0.33978(19) 0.56330(14)
H6 H 0.2496 0.0086 0.4537
C16 C 0.3040(5) 0.0118(3) 0.5397(3)
C17 C 0.4461(5) 0.0795(3) 0.5519(3)
C18 C 0.5212(5) 0.0943(3) 0.6090(3)
H8 H 0.4836 0.0603 0.6390
C19 C 0.6534(5) 0.1590(3) 0.6243(3)
H9 H 0.7041 0.1670 0.6636
C20 C 0.7079(4) 0.2109(3) 0.5806(2)
C21 C 0.6328(4) 0.1984(3) 0.5226(2)
H10 H 0.6698 0.2333 0.4930
C22 C 0.4997(4) 0.1326(3) 0.5081(3)
H11 H 0.4477 0.1247 0.4691
C23 C 0.8465(4) 0.2840(3) 0.5985(3)
Cu1 Cu 0.62647(6) 0.70005(4) 0.45814(3)
Cu3 Cu 0.06656(8) 0.41343(6) 0.20136(4)
O1 O 0.3838(3) 0.6285(2) 0.29195(16)
O2 O 0.5654(3) 0.6960(2) 0.36685(15)
O3 O 0.0546(3) 0.5071(2) 0.31373(14)
O4 O 0.1884(3) 0.4278(3) 0.28094(17)
O5 O 0.2452(3) 0.3936(2) 0.55853(14)
O6 O 0.1483(3) 0.49787(18) 0.58304(14)
O7 O 0.4868(3) 0.5974(2) 0.60918(15)
O8 O 0.6115(3) 0.68848(19) 0.54975(15)
O13 O 0.1818(7) 0.3211(5) 0.1472(3)
O15 O 0.2018(4) 0.5265(3) 0.18943(18)
N1 N 0.4474(3) 0.6098(2) 0.44987(17)
N2 N 0.8063(3) 0.7953(2) 0.4685(2)
C1 C 0.4449(4) 0.6383(3) 0.3452(2)
C2 C 0.3755(4) 0.5831(3) 0.3923(2)
C3 C 0.2482(4) 0.5126(3) 0.3847(2)
C4 C 0.1563(4) 0.4796(3) 0.3213(2)
C5 C 0.2038(4) 0.4752(3) 0.4364(2)
H1 H 0.1204 0.4277 0.4315
C6 C 0.2799(4) 0.5065(3) 0.49554(19)
C7 C 0.2236(4) 0.4634(3) 0.5506(2)
C8 C 0.4069(4) 0.5762(3) 0.5009(2)
C9 C 0.5080(4) 0.6228(3) 0.5592(2)
C10 C 0.8857(5) 0.8191(3) 0.5227(3)
H2 H 0.8498 0.7943 0.5570
C13 C 0.9947(5) 0.8925(3) 0.4261(3)
C14 C 0.8616(5) 0.8313(3) 0.4211(3)
H5 H 0.8077 0.8146 0.3819
Cu4 Cu 0.37353(6) 0.29995(4) 0.54186(3)
O16 O 0.7548(3) 0.6064(2) 0.44147(14)
O18 O 0.0833(3) 0.7079(2) 0.34860(16)
O19 O 0.1076(3) 0.66022(19) 0.43670(14)
H24 H 0.296651 0.519674 0.18775
H25 H 0.171724 0.542795 0.149301
H26 H 0.170789 0.267637 0.167333
H27 H 0.139497 0.302091 0.102439
Cu2 Cu 0.95006(5) 0.59228(4) 0.36693(3)
O14 O 0.9192(6) 0.3097(4) 0.2223(2)
N3 N 0.8091(3) 0.5688(3) 0.29442(17)
C24 C 0.8450(6) 0.6053(5) 0.2449(3)
H12 H 0.9385 0.6395 0.2451
C25 C 0.7512(6) 0.5958(6) 0.1920(3)
H13 H 0.7812 0.6247 0.1586
C26 C 0.6143(5) 0.5434(5) 0.1897(3)
C27 C 0.5785(5) 0.5052(5) 0.2398(3)
H14 H 0.4864 0.4689 0.2399
C28 C 0.6761(5) 0.5187(4) 0.2912(2)
H15 H 0.6470 0.4913 0.3254
C29 C 0.5071(6) 0.5320(6) 0.1348(3)
H16 H 0.4223 0.4864 0.1329
C30 C 0.5186(8) 0.5772(7) 0.0911(4)
H17 H 0.6047 0.6203 0.0902
C31 C 0.4021(10) 0.5654(9) 0.0406(4)
C36 C 0.2801(11) 0.4967(11) 0.0322(4)
H21 H 0.2686 0.4610 0.0632
O17 O 0.8517(3) 0.50213(18) 0.41696(14)
O20 O 0.9371(4) 0.4153(3) 0.13185(19)
H22 H 0.8841 0.328255 0.262322
H23 H 0.839958 0.28767 0.187757
O12 O 0.0629(4) 0.5847(3) 0.86815(19)
C32 C 0.4302(18) 0.6251(10) 0.9981(5)
H18 H 0.5164 0.6690 0.9988
C33 C 0.2949(9) 0.6086(7) 0.9475(5)
H19 H 0.2961 0.6487 0.9202
C34 C 0.1765(11) 0.5344(8) 0.9449(4)
C35 C 0.1666(11) 0.4709(15) 0.9826(5)
H20 H 0.0938 0.4169 0.9764
C37 C 0.0454(14) 0.5047(7) 0.8919(6)
O11 O 0.9525(10) 0.4245(10) 0.8790(6)
Cu7 Cu 0.93344(8) 0.58657(6) 0.79864(4)
O11_2 O 0.0475(10) 0.5755(10) 0.1210(6)
C32_2 C 0.5698(18) 0.3749(10) 0.0019(5)
H18_2 H 0.4836 0.3310 0.0012
C33_2 C 0.7051(9) 0.3914(7) 0.0525(5)
H19_2 H 0.7039 0.3513 0.0798
C34_2 C 0.8235(11) 0.4656(8) 0.0551(4)
C35_2 C 0.8334(11) 0.5291(15) 0.0174(5)
H20_2 H 0.9062 0.5831 0.0236
C37_2 C 0.9546(14) 0.4953(7) 0.1081(6)
O14_2 O 0.0808(6) 0.6903(4) 0.7777(2)
N3_2 N 0.1909(3) 0.4312(3) 0.70558(17)
C24_2 C 0.1550(6) 0.3947(5) 0.7551(3)
H12_2 H 0.0615 0.3605 0.7549
C25_2 C 0.2488(6) 0.4042(6) 0.8080(3)
H13_2 H 0.2188 0.3753 0.8414
C26_2 C 0.3857(5) 0.4566(5) 0.8103(3)
C27_2 C 0.4215(5) 0.4948(5) 0.7602(3)
H14_2 H 0.5136 0.5311 0.7601
C28_2 C 0.3239(5) 0.4813(4) 0.7088(2)
H15_2 H 0.3530 0.5087 0.6746
C29_2 C 0.4929(6) 0.4680(6) 0.8652(3)
H16_2 H 0.5777 0.5136 0.8671
C30_2 C 0.4814(8) 0.4228(7) 0.9089(4)
H17_2 H 0.3953 0.3797 0.9098
C31_2 C 0.5979(10) 0.4346(9) 0.9594(4)
C36_2 C 0.7199(11) 0.5033(11) 0.9678(4)
H21_2 H 0.7314 0.5390 0.9368
H22_2 H 0.1159 0.671745 0.737678
H23_2 H 0.160042 0.71233 0.812243
O1_2 O 0.6162(3) 0.3715(2) 0.70805(16)
O2_2 O 0.4346(3) 0.3040(2) 0.63315(15)
O3_2 O 0.9454(3) 0.4929(2) 0.68627(14)
O4_2 O 0.8116(3) 0.5722(3) 0.71906(17)
O7_2 O 0.5132(3) 0.4026(2) 0.39082(15)
O8_2 O 0.3885(3) 0.31152(19) 0.45025(15)
O13_2 O 0.8182(7) 0.6789(5) 0.8528(3)
O15_2 O 0.7982(4) 0.4735(3) 0.81057(18)
N1_2 N 0.5526(3) 0.3902(2) 0.55013(17)
N2_2 N 0.1937(3) 0.2047(2) 0.5315(2)
C1_2 C 0.5551(4) 0.3617(3) 0.6548(2)
C2_2 C 0.6245(4) 0.4169(3) 0.6077(2)
C3_2 C 0.7518(4) 0.4874(3) 0.6153(2)
C4_2 C 0.8437(4) 0.5204(3) 0.6787(2)
C5_2 C 0.7962(4) 0.5248(3) 0.5636(2)
H1_2 H 0.8796 0.5723 0.5685
C6_2 C 0.7201(4) 0.4935(3) 0.50446(19)
C7_2 C 0.7764(4) 0.5366(3) 0.4494(2)
C8_2 C 0.5931(4) 0.4238(3) 0.4991(2)
C9_2 C 0.4920(4) 0.3772(3) 0.4408(2)
C10_2 C 0.1143(5) 0.1809(3) 0.4773(3)
H2_2 H 0.1502 0.2057 0.4430
C13_2 C 0.0053(5) 0.1075(3) 0.5739(3)
C14_2 C 0.1384(5) 0.1687(3) 0.5789(3)
H5_2 H 0.1923 0.1854 0.6181
H24_2 H 0.703349 0.480326 0.81225
H25_2 H 0.828276 0.457205 0.850699
H26_2 H 0.829211 0.732363 0.832667
H27_2 H 0.860503 0.697909 0.897561
H6_2 H 0.7504 0.9914 0.5463
C16_2 C 0.6960(5) 0.9882(3) 0.4603(3)
C17_2 C 0.5539(5) 0.9205(3) 0.4481(3)
C18_2 C 0.4788(5) 0.9057(3) 0.3910(3)
H8_2 H 0.5164 0.9397 0.3610
C19_2 C 0.3466(5) 0.8410(3) 0.3757(3)
H9_2 H 0.2959 0.8330 0.3364
C20_2 C 0.2921(4) 0.7891(3) 0.4194(2)
C21_2 C 0.3672(4) 0.8016(3) 0.4774(2)
H10_2 H 0.3302 0.7667 0.5070
C22_2 C 0.5003(4) 0.8674(3) 0.4919(3)
H11_2 H 0.5523 0.8753 0.5309
C23_2 C 0.1535(4) 0.7160(3) 0.4015(3)
C11 C 0.0207(5) 0.8795(4) 0.5315(3)
H3 H 0.0731 0.8940 0.5710
C12 C 0.0775(4) 0.9181(3) 0.4827(3)
H4 H 0.0279 0.9161 0.3910
C15 C 0.2199(5) 0.9849(3) 0.4892(3)
H7 H 0.2723 0.9854 0.5739
C11_2 C 0.9793(5) 0.1205(4) 0.4685(3)
H3_2 H 0.9269 0.1060 0.4290
C12_2 C 0.9225(4) 0.0819(3) 0.5173(3)
H4_2 H 0.9721 0.0839 0.6090
C15_2 C 0.7801(5) 0.0151(3) 0.5108(3)
H7_2 H 0.7277 0.0146 0.4261
loop_
_geom_bond_atom_site_label_1
_geom_bond_atom_site_label_2
_geom_bond_site_symmetry_1
_geom_bond_site_symmetry_2
O9 C23 1_555 1_555
O10 C23 1_555 1_555
C17 C16 1_555 1_555
C18 C17 1_555 1_555
H8 C18 1_555 1_555
C19 C18 1_555 1_555
H9 C19 1_555 1_555
C20 C19 1_555 1_555
C21 C20 1_555 1_555
H10 C21 1_555 1_555
C22 C17 1_555 1_555
H11 C22 1_555 1_555
C23 C20 1_555 1_555
C21 C22 1_555 1_555
Cu1 O2 1_555 1_555
Cu3 O4 1_555 1_555
O1 C1 1_555 1_555
O2 C1 1_555 1_555
O3 C4 1_555 1_555
O4 C4 1_555 1_555
O5 C7 1_555 1_555
O6 C7 1_555 1_555
O7 C9 1_555 1_555
O8 Cu1 1_555 1_555
O13 Cu3 1_555 1_555
O15 Cu3 1_555 1_555
N1 Cu1 1_555 1_555
N2 Cu1 1_555 1_555
C1 C2 1_555 1_555
C2 N1 1_555 1_555
C3 C2 1_555 1_555
C4 C3 1_555 1_555
C5 C3 1_555 1_555
H1 C5 1_555 1_555
C6 C5 1_555 1_555
C7 C6 1_555 1_555
C8 N1 1_555 1_555
C9 O8 1_555 1_555
C10 N2 1_555 1_555
H2 C10 1_555 1_555
C14 N2 1_555 1_555
H5 C14 1_555 1_555
Cu4 O5 1_555 1_555
Cu6 O6 1_555 1_555
O16 Cu1 1_555 1_555
C6 C8 1_555 1_555
C8 C9 1_555 1_555
C13 C14 1_555 1_555
O15 H24 1_555 1_555
O15 H25 1_555 1_555
O13 H26 1_555 1_555
O13 H27 1_555 1_555
N3 Cu2 1_555 1_555
C24 N3 1_555 1_555
H12 C24 1_555 1_555
C25 C24 1_555 1_555
H13 C25 1_555 1_555
C26 C25 1_555 1_555
C27 C26 1_555 1_555
H14 C27 1_555 1_555
C28 N3 1_555 1_555
H15 C28 1_555 1_555
C29 C26 1_555 1_555
H16 C29 1_555 1_555
C30 C29 1_555 1_555
H17 C30 1_555 1_555
C31 C30 1_555 1_555
C36 C31 1_555 1_555
H21 C36 1_555 1_555
O17 Cu2 1_555 1_555
C27 C28 1_555 1_555
O14 H22 1_555 1_555
O14 H23 1_555 1_555
O12 C37 1_555 1_555
H18 C32 1_555 1_555
C33 C32 1_555 1_555
H19 C33 1_555 1_555
C34 C33 1_555 1_555
C35 C34 1_555 1_555
H20 C35 1_555 1_555
C37 C34 1_555 1_555
O20 C37_2 1_555 1_555
H18_2 C32_2 1_555 1_555
C33_2 C32_2 1_555 1_555
H19_2 C33_2 1_555 1_555
C34_2 C33_2 1_555 1_555
C35_2 C34_2 1_555 1_555
H20_2 C35_2 1_555 1_555
C37_2 C34_2 1_555 1_555
N3_2 Cu6 1_555 1_555
C24_2 N3_2 1_555 1_555
H12_2 C24_2 1_555 1_555
C25_2 C24_2 1_555 1_555
H13_2 C25_2 1_555 1_555
C26_2 C25_2 1_555 1_555
C27_2 C26_2 1_555 1_555
H14_2 C27_2 1_555 1_555
C28_2 N3_2 1_555 1_555
H15_2 C28_2 1_555 1_555
C29_2 C26_2 1_555 1_555
H16_2 C29_2 1_555 1_555
C30_2 C29_2 1_555 1_555
H17_2 C30_2 1_555 1_555
C31_2 C30_2 1_555 1_555
C36_2 C31_2 1_555 1_555
H21_2 C36_2 1_555 1_555
C27_2 C28_2 1_555 1_555
O14_2 H22_2 1_555 1_555
O14_2 H23_2 1_555 1_555
Cu4 O2_2 1_555 1_555
Cu7 O4_2 1_555 1_555
O1_2 C1_2 1_555 1_555
O2_2 C1_2 1_555 1_555
O3_2 C4_2 1_555 1_555
O4_2 C4_2 1_555 1_555
O16 C7_2 1_555 1_555
O17 C7_2 1_555 1_555
O7_2 C9_2 1_555 1_555
O8_2 Cu4 1_555 1_555
O13_2 Cu7 1_555 1_555
O15_2 Cu7 1_555 1_555
N1_2 Cu4 1_555 1_555
N2_2 Cu4 1_555 1_555
C1_2 C2_2 1_555 1_555
C2_2 N1_2 1_555 1_555
C3_2 C2_2 1_555 1_555
C4_2 C3_2 1_555 1_555
C5_2 C3_2 1_555 1_555
H1_2 C5_2 1_555 1_555
C6_2 C5_2 1_555 1_555
C7_2 C6_2 1_555 1_555
C8_2 N1_2 1_555 1_555
C9_2 O8_2 1_555 1_555
C10_2 N2_2 1_555 1_555
H2_2 C10_2 1_555 1_555
C14_2 N2_2 1_555 1_555
H5_2 C14_2 1_555 1_555
C6_2 C8_2 1_555 1_555
C8_2 C9_2 1_555 1_555
C13_2 C14_2 1_555 1_555
O15_2 H24_2 1_555 1_555
O15_2 H25_2 1_555 1_555
O13_2 H26_2 1_555 1_555
O13_2 H27_2 1_555 1_555
O18 C23_2 1_555 1_555
O19 C23_2 1_555 1_555
C17_2 C16_2 1_555 1_555
C18_2 C17_2 1_555 1_555
H8_2 C18_2 1_555 1_555
C19_2 C18_2 1_555 1_555
H9_2 C19_2 1_555 1_555
C20_2 C19_2 1_555 1_555
C21_2 C20_2 1_555 1_555
H10_2 C21_2 1_555 1_555
C22_2 C17_2 1_555 1_555
H11_2 C22_2 1_555 1_555
C23_2 C20_2 1_555 1_555
C21_2 C22_2 1_555 1_555
H3 C11 1_555 1_555
C12 C11 1_555 1_555
C15 C12 1_555 1_555
H3_2 C11_2 1_555 1_555
C12_2 C11_2 1_555 1_555
C15_2 C12_2 1_555 1_555

#END
