
###############################################################################
#
# This file contains modified crystal structure data generated from the
# MOF subset of the Cambridge Structural Database (CSD) v543 
# hosted by the Cambridge Crystallographic Data Centre (CCDC).
#
# This work is licensed under the Creative Commons
# Attribution-NonCommercial-ShareAlike 4.0 International License.
# To view a copy of this license, visit
# http://creativecommons.org/licenses/by-nc-sa/4.0/
# or send a letter to
# Creative Commons, PO Box 1866, Mountain View, CA 94042, USA.
#
# CIF created using the CSD Python API on 29 September 2022
# The structure has been converted into the P1 space group
# The structure has a 3D framework
# The original CSD entry AMUXAI is in the triclinic crystal system
# The framework has been calculated to contain at least 10.0% void space
# The void calculation uses a probe of radius 1.32A, grid spacing 0.4
# The framework is charged, counterions have been retained in the structure
# H atom positions have been added when not included in the experimental data
#
###############################################################################

data_AMUXAI
_chemical_formula_moiety         '(C88 H66 Cu6 N8 O28)n'
_symmetry_cell_setting           triclinic
_symmetry_space_group_name_H-M   'P 1'
_symmetry_Int_Tables_number      1
_space_group_name_Hall           'P 1'
loop_
_symmetry_equiv_pos_site_id
_symmetry_equiv_pos_as_xyz
1 x,y,z
_cell_length_a                   9.9506(7)
_cell_length_b                   15.6823(18)
_cell_length_c                   21.500(2)
_cell_angle_alpha                100.072(9)
_cell_angle_beta                 93.060(7)
_cell_angle_gamma                106.834(8)
_cell_volume                     3142.46
loop_
_atom_site_label
_atom_site_type_symbol
_atom_site_fract_x
_atom_site_fract_y
_atom_site_fract_z
O3 O 0.0323(13) 0.0536(13) 0.1189(6)
Cu7 Cu 0.06546(18) 0.90041(15) 0.19724(9)
Cu2 Cu 0.05062(12) 0.91312(10) 0.63410(7)
N2 N 0.1948(8) 0.9400(6) 0.7077(4)
C18 C 0.590(3) 0.885(2) 0.9930(12)
H12 H 0.5066 0.8365 0.9867
C19 C 0.610(2) 0.949(2) 0.9575(11)
C22 C 0.4885(16) 0.9357(15) 0.9076(9)
H15 H 0.4039 0.8918 0.9098
C23 C 0.4928(13) 0.9782(14) 0.8647(7)
C24 C 0.1622(12) 0.9074(10) 0.7586(7)
H17 H 0.0675 0.8756 0.7588
C25 C 0.2475(13) 0.9138(11) 0.8106(7)
H18 H 0.2164 0.8847 0.8436
C26 C 0.3874(11) 0.9679(10) 0.8114(7)
C28 C 0.3261(9) 0.9918(8) 0.7105(5)
O1 O 0.8925(6) 0.8424(4) 0.5632(3)
O2 O 0.9163(6) 0.7948(5) 0.6517(4)
C1 C 0.8464(10) 0.7860(7) 0.5982(6)
C2 C 0.7083(10) 0.7137(7) 0.5795(6)
C3 C 0.6539(10) 0.6621(8) 0.6257(6)
H1 H 0.7025 0.6725 0.6658
C4 C 0.5231(10) 0.5947(7) 0.6077(6)
H2 H 0.4866 0.5575 0.6360
C5 C 0.4479(10) 0.5819(7) 0.5505(6)
C6 C 0.5021(10) 0.6334(7) 0.5074(6)
H3 H 0.4525 0.6240 0.4677
C7 C 0.6343(9) 0.7011(7) 0.5238(6)
H4 H 0.6700 0.7376 0.4951
C8 C 0.2187(10) 0.4833(7) 0.4846(7)
H5 H 0.2489 0.5076 0.4495
C9 C 0.3073(11) 0.5111(7) 0.5383(7)
H6 H 0.2776 0.4829 0.5719
H8 H 0.0210 0.4184 0.3872
C12 C 0.0769(9) 0.4171(7) 0.4772(6)
C13 C 0.0260(11) 0.3807(8) 0.5307(7)
H9 H 0.0817 0.3964 0.5695
O16 O 0.9453(7) 0.9999(5) 0.6875(3)
O7 O 0.1871(8) 0.9131(6) 0.2782(4)
O10 O 0.2436(6) 0.8945(4) 0.5573(3)
O14 O 0.174(2) 0.8126(13) 0.1382(9)
C32 C 0.1614(10) 0.9709(8) 0.3186(6)
C33 C 0.2040(9) 0.9710(7) 0.4332(5)
H21 H 0.1202 0.9234 0.4277
C34 C 0.2217(8) 0.9652(6) 0.5506(5)
C43 C 0.258(6) 0.764(4) 0.153(2)
H27 H 0.3150 0.7965 0.1923
H28 H 0.1980 0.7069 0.1601
C44 C 0.346(5) 0.745(3) 0.110(2)
H29 H 0.4024 0.7124 0.1271
H30 H 0.4071 0.8009 0.1017
H31 H 0.2919 0.7089 0.0712
Cu4 Cu 0.37635(12) 0.79975(9) 0.54398(8)
H32 H 0.301963 0.999851 0.18384
O5 O 0.6185(7) 0.8802(5) 0.7123(4)
O6 O 0.4360(6) 0.8084(4) 0.6346(3)
O9 O 0.8487(6) 0.9952(4) 0.4167(3)
O11 O 0.5150(6) 0.8964(5) 0.3914(4)
O12 O 0.3884(5) 0.8065(4) 0.4532(3)
O13 O 0.7910(8) 0.9888(8) 0.8142(4)
N1 N 0.1937(8) 0.7013(6) 0.5341(5)
N3 N 0.5553(7) 0.8935(5) 0.5520(4)
C10 C 0.1419(10) 0.6667(7) 0.5817(6)
H7 H 0.1979 0.6840 0.6206
C11 C 0.0094(10) 0.6063(7) 0.5778(6)
C14 C 0.1189(12) 0.6831(8) 0.4779(6)
H10 H 0.1565 0.7098 0.4447
C29 C 0.5603(10) 0.8691(7) 0.6573(7)
C30 C 0.6238(9) 0.9220(7) 0.6090(5)
C31 C 0.7522(8) 0.9946(6) 0.6173(5)
C35 C 0.7215(9) 0.9969(6) 0.5055(5)
C36 C 0.5935(8) 0.9224(6) 0.5012(5)
C37 C 0.4939(10) 0.8736(7) 0.4435(5)
H33 H 0.818118 0.97183 0.854354
C20 C 0.2715(18) 0.9796(16) 0.0330(8)
H13 H 0.2605 0.9362 0.0583
H16 H 0.4233 0.9754 0.1338
C27 C 0.5757(12) 0.9936(10) 0.2390(6)
H19 H 0.4836 0.9572 0.2394
H20 H 0.6469 0.9803 0.3235
C21 C 0.8330(19) 0.0292(17) 0.0143(10)
H14 H 0.9137 0.0790 0.0196
C20_2 C 0.7285(18) 0.0204(16) 0.9670(8)
H13_2 H 0.7395 0.0638 0.9417
H16_2 H 0.5767 0.0246 0.8662
C27_2 C 0.4243(12) 0.0064(10) 0.7610(6)
H19_2 H 0.5164 0.0428 0.7606
H20_2 H 0.3531 0.0197 0.6765
O17 O 0.1513(6) 0.0048(4) 0.5833(3)
Cu1 Cu 0.62365(12) 0.20025(9) 0.45602(8)
O5_2 O 0.3815(7) 0.1198(5) 0.2877(4)
O6_2 O 0.5640(6) 0.1916(4) 0.3654(3)
O8 O 0.0547(7) 0.0001(5) 0.3125(3)
O11_2 O 0.4850(6) 0.1036(5) 0.6086(4)
O12_2 O 0.6116(5) 0.1935(4) 0.5468(3)
O13_2 O 0.2090(8) 0.0112(8) 0.1858(4)
N1_2 N 0.8063(8) 0.2987(6) 0.4659(5)
N3_2 N 0.4447(7) 0.1065(5) 0.4480(4)
C10_2 C 0.8581(10) 0.3333(7) 0.4183(6)
H7_2 H 0.8021 0.3160 0.3794
C11_2 C 0.9906(10) 0.3937(7) 0.4222(6)
C14_2 C 0.8811(12) 0.3169(8) 0.5221(6)
H10_2 H 0.8435 0.2902 0.5553
C29_2 C 0.4397(10) 0.1309(7) 0.3427(7)
C30_2 C 0.3762(9) 0.0780(7) 0.3910(5)
C31_2 C 0.2478(8) 0.0054(6) 0.3827(5)
C35_2 C 0.2785(9) 0.0031(6) 0.4945(5)
C36_2 C 0.4065(8) 0.0776(6) 0.4988(5)
C37_2 C 0.5061(10) 0.1264(7) 0.5565(5)
O18 O 0.7564(6) 0.1055(4) 0.4427(3)
H33_2 H 0.181882 0.0281703 0.145646
Cu5 Cu 0.94938(12) 0.08688(10) 0.36590(7)
Cu3 Cu 0.93454(18) 0.09959(15) 0.80276(9)
O7_2 O 0.8129(8) 0.0869(6) 0.7218(4)
O14_2 O 0.826(2) 0.1874(13) 0.8618(9)
C32_2 C 0.8386(10) 0.0291(8) 0.6814(6)
C33_2 C 0.7960(9) 0.0290(7) 0.5668(5)
H21_2 H 0.8798 0.0766 0.5723
C34_2 C 0.7783(8) 0.0348(6) 0.4494(5)
C43_2 C 0.742(6) 0.236(4) 0.847(2)
H27_2 H 0.6850 0.2035 0.8077
H28_2 H 0.8020 0.2931 0.8399
C44_2 C 0.654(5) 0.255(3) 0.890(2)
H29_2 H 0.5976 0.2876 0.8729
H30_2 H 0.5929 0.1991 0.8983
H31_2 H 0.7081 0.2911 0.9288
H32_2 H 0.698037 0.000149123 0.81616
O1_2 O 0.1075(6) 0.1576(4) 0.4368(3)
O2_2 O 0.0837(6) 0.2052(5) 0.3483(4)
C1_2 C 0.1536(10) 0.2140(7) 0.4018(6)
C2_2 C 0.2917(10) 0.2863(7) 0.4205(6)
C3_2 C 0.3461(10) 0.3379(8) 0.3743(6)
H1_2 H 0.2975 0.3275 0.3342
C4_2 C 0.4769(10) 0.4053(7) 0.3923(6)
H2_2 H 0.5134 0.4425 0.3640
C5_2 C 0.5521(10) 0.4181(7) 0.4495(6)
C6_2 C 0.4979(10) 0.3666(7) 0.4926(6)
H3_2 H 0.5475 0.3760 0.5323
C7_2 C 0.3657(9) 0.2989(7) 0.4762(6)
H4_2 H 0.3300 0.2624 0.5049
C8_2 C 0.7813(10) 0.5167(7) 0.5154(7)
H5_2 H 0.7511 0.4924 0.5505
C9_2 C 0.6927(11) 0.4889(7) 0.4617(7)
H6_2 H 0.7224 0.5171 0.4281
H8_2 H 0.9790 0.5816 0.6128
C12_2 C 0.9231(9) 0.5829(7) 0.5228(6)
C13_2 C 0.9740(11) 0.6193(8) 0.4693(7)
H9_2 H 0.9183 0.6036 0.4305
N2_2 N 0.8052(8) 0.0600(6) 0.2923(4)
C18_2 C 0.410(3) 0.115(2) 0.0070(12)
H12_2 H 0.4934 0.1635 0.0133
C19_2 C 0.390(2) 0.051(2) 0.0425(11)
C22_2 C 0.5115(16) 0.0643(15) 0.0924(9)
H15_2 H 0.5961 0.1082 0.0902
C23_2 C 0.5072(13) 0.0218(14) 0.1353(7)
C24_2 C 0.8378(12) 0.0926(10) 0.2414(7)
H17_2 H 0.9325 0.1244 0.2412
C25_2 C 0.7525(13) 0.0862(11) 0.1894(7)
H18_2 H 0.7836 0.1153 0.1564
C26_2 C 0.6126(11) 0.0321(10) 0.1886(7)
C28_2 C 0.6739(9) 0.0082(8) 0.2895(5)
O4 O 0.9362(18) 0.9030(13) 0.1303(8)
C15 C 0.9423(18) 0.962(3) 0.1068(12)
C16 C 0.8253(17) 0.9689(18) 0.0540(9)
C17 C 0.711(2) 0.8932(19) 0.0449(8)
H11 H 0.7056 0.8484 0.0688
N4 N 0.9136(15) 0.8002(10) 0.2163(6)
C38 C 0.803(2) 0.8295(16) 0.2395(11)
H22 H 0.8020 0.8883 0.2388
C39 C 0.695(3) 0.771(3) 0.2638(18)
H23 H 0.6215 0.7903 0.2793
C40 C 0.697(5) 0.683(3) 0.265(3)
H24 H 0.6251 0.6434 0.2810
C41 C 0.808(5) 0.6535(17) 0.242(3)
H25 H 0.8091 0.5946 0.2423
C42 C 0.916(3) 0.7123(14) 0.2173(17)
H26 H 0.9895 0.6927 0.2018
N4_2 N 0.0864(15) 0.1998(10) 0.7837(6)
C38_2 C 0.197(2) 0.1705(16) 0.7605(11)
H22_2 H 0.1980 0.1117 0.7612
C39_2 C 0.305(3) 0.229(3) 0.7362(18)
H23_2 H 0.3785 0.2097 0.7207
C40_2 C 0.303(5) 0.317(3) 0.735(3)
H24_2 H 0.3749 0.3566 0.7190
C41_2 C 0.192(5) 0.3465(17) 0.758(3)
H25_2 H 0.1909 0.4054 0.7577
C42_2 C 0.084(3) 0.2877(14) 0.7827(17)
H26_2 H 0.0105 0.3073 0.7982
O15 O 0.0638(18) 0.0970(13) 0.8697(8)
C15_2 C 0.0577(18) 0.038(3) 0.8932(12)
C16_2 C 0.1747(17) 0.0311(18) 0.9460(9)
C17_2 C 0.289(2) 0.1068(19) 0.9551(8)
H11_2 H 0.2944 0.1516 0.9312
C21_2 C 0.1670(19) 0.9708(17) 0.9857(10)
H14_2 H 0.0863 0.9210 0.9804
O3_2 O 0.9677(13) 0.9464(13) 0.8811(6)
loop_
_geom_bond_atom_site_label_1
_geom_bond_atom_site_label_2
_geom_bond_site_symmetry_1
_geom_bond_site_symmetry_2
N2 Cu2 1_555 1_555
H12 C18 1_555 1_555
C19 C18 1_555 1_555
C22 C19 1_555 1_555
H15 C22 1_555 1_555
C23 C22 1_555 1_555
C24 N2 1_555 1_555
H17 C24 1_555 1_555
C25 C24 1_555 1_555
H18 C25 1_555 1_555
C26 C23 1_555 1_555
C28 N2 1_555 1_555
C25 C26 1_555 1_555
O1 C1 1_555 1_555
C1 O2 1_555 1_555
C2 C1 1_555 1_555
C3 C2 1_555 1_555
H1 C3 1_555 1_555
C4 C3 1_555 1_555
H2 C4 1_555 1_555
C5 C4 1_555 1_555
C6 C5 1_555 1_555
H3 C6 1_555 1_555
C7 C2 1_555 1_555
H4 C7 1_555 1_555
C8 H5 1_555 1_555
C9 C5 1_555 1_555
H6 C9 1_555 1_555
C12 C8 1_555 1_555
C13 C12 1_555 1_555
H9 C13 1_555 1_555
C6 C7 1_555 1_555
C8 C9 1_555 1_555
Cu7 O7 1_555 1_555
O7 C32 1_555 1_555
O10 C34 1_555 1_555
O14 Cu7 1_555 1_555
H21 C33 1_555 1_555
C43 O14 1_555 1_555
H27 C43 1_555 1_555
H28 C43 1_555 1_555
C44 C43 1_555 1_555
H29 C44 1_555 1_555
H30 C44 1_555 1_555
H31 C44 1_555 1_555
Cu4 O10 1_555 1_555
Cu4 O6 1_555 1_555
O5 C29 1_555 1_555
O6 C29 1_555 1_555
O11 C37 1_555 1_555
O12 Cu4 1_555 1_555
N1 Cu4 1_555 1_555
N3 Cu4 1_555 1_555
C10 N1 1_555 1_555
H7 C10 1_555 1_555
C11 C10 1_555 1_555
C14 N1 1_555 1_555
H10 C14 1_555 1_555
C29 C30 1_555 1_555
C30 N3 1_555 1_555
C31 C30 1_555 1_555
C36 N3 1_555 1_555
C37 O12 1_555 1_555
C35 C36 1_555 1_555
C36 C37 1_555 1_555
O13 H33 1_555 1_555
H13 C20 1_555 1_555
H19 C27 1_555 1_555
H14 C21 1_555 1_555
H13_2 C20_2 1_555 1_555
H19_2 C27_2 1_555 1_555
Cu1 O6_2 1_555 1_555
O5_2 C29_2 1_555 1_555
O6_2 C29_2 1_555 1_555
O11_2 C37_2 1_555 1_555
O12_2 Cu1 1_555 1_555
N1_2 Cu1 1_555 1_555
N3_2 Cu1 1_555 1_555
C10_2 N1_2 1_555 1_555
H7_2 C10_2 1_555 1_555
C11_2 C10_2 1_555 1_555
C14_2 N1_2 1_555 1_555
H10_2 C14_2 1_555 1_555
C29_2 C30_2 1_555 1_555
C30_2 N3_2 1_555 1_555
C31_2 C30_2 1_555 1_555
C36_2 N3_2 1_555 1_555
C37_2 O12_2 1_555 1_555
O18 Cu1 1_555 1_555
C35_2 C36_2 1_555 1_555
C36_2 C37_2 1_555 1_555
O13_2 H33_2 1_555 1_555
Cu3 O7_2 1_555 1_555
O7_2 C32_2 1_555 1_555
O18 C34_2 1_555 1_555
O14_2 Cu3 1_555 1_555
H21_2 C33_2 1_555 1_555
C43_2 O14_2 1_555 1_555
H27_2 C43_2 1_555 1_555
H28_2 C43_2 1_555 1_555
C44_2 C43_2 1_555 1_555
H29_2 C44_2 1_555 1_555
H30_2 C44_2 1_555 1_555
H31_2 C44_2 1_555 1_555
O1_2 C1_2 1_555 1_555
C1_2 O2_2 1_555 1_555
C2_2 C1_2 1_555 1_555
C3_2 C2_2 1_555 1_555
H1_2 C3_2 1_555 1_555
C4_2 C3_2 1_555 1_555
H2_2 C4_2 1_555 1_555
C5_2 C4_2 1_555 1_555
C6_2 C5_2 1_555 1_555
H3_2 C6_2 1_555 1_555
C7_2 C2_2 1_555 1_555
H4_2 C7_2 1_555 1_555
C8_2 H5_2 1_555 1_555
C9_2 C5_2 1_555 1_555
H6_2 C9_2 1_555 1_555
C12_2 C8_2 1_555 1_555
C13_2 C12_2 1_555 1_555
H9_2 C13_2 1_555 1_555
C6_2 C7_2 1_555 1_555
C8_2 C9_2 1_555 1_555
N2_2 Cu5 1_555 1_555
H12_2 C18_2 1_555 1_555
C19_2 C18_2 1_555 1_555
C22_2 C19_2 1_555 1_555
H15_2 C22_2 1_555 1_555
C23_2 C22_2 1_555 1_555
C24_2 N2_2 1_555 1_555
H17_2 C24_2 1_555 1_555
C25_2 C24_2 1_555 1_555
H18_2 C25_2 1_555 1_555
C26_2 C23_2 1_555 1_555
C28_2 N2_2 1_555 1_555
C25_2 C26_2 1_555 1_555
O4 C15 1_555 1_555
C15 C16 1_555 1_555
C16 C17 1_555 1_555
C17 H11 1_555 1_555
C38 N4 1_555 1_555
H22 C38 1_555 1_555
C39 C38 1_555 1_555
H23 C39 1_555 1_555
C40 C39 1_555 1_555
H24 C40 1_555 1_555
C41 C40 1_555 1_555
H25 C41 1_555 1_555
C42 N4 1_555 1_555
H26 C42 1_555 1_555
C41 C42 1_555 1_555
C38_2 N4_2 1_555 1_555
H22_2 C38_2 1_555 1_555
C39_2 C38_2 1_555 1_555
H23_2 C39_2 1_555 1_555
C40_2 C39_2 1_555 1_555
H24_2 C40_2 1_555 1_555
C41_2 C40_2 1_555 1_555
H25_2 C41_2 1_555 1_555
C42_2 N4_2 1_555 1_555
H26_2 C42_2 1_555 1_555
C41_2 C42_2 1_555 1_555
O15 C15_2 1_555 1_555
C15_2 C16_2 1_555 1_555
C16_2 C17_2 1_555 1_555
C17_2 H11_2 1_555 1_555
H14_2 C21_2 1_555 1_555

#END
