
###############################################################################
#
# This file contains modified crystal structure data generated from the
# MOF subset of the Cambridge Structural Database (CSD) v543 
# hosted by the Cambridge Crystallographic Data Centre (CCDC).
#
# This work is licensed under the Creative Commons
# Attribution-NonCommercial-ShareAlike 4.0 International License.
# To view a copy of this license, visit
# http://creativecommons.org/licenses/by-nc-sa/4.0/
# or send a letter to
# Creative Commons, PO Box 1866, Mountain View, CA 94042, USA.
#
# CIF created using the CSD Python API on 29 September 2022
# The structure has been converted into the P1 space group
# The structure has a 3D framework
# The original CSD entry ANAWOD is in the orthorhombic crystal system
# The framework has been calculated to contain at least 10.0% void space
# The void calculation uses a probe of radius 1.32A, grid spacing 0.4
#
###############################################################################

data_ANAWOD
_chemical_formula_moiety         '(C96 H14 F48 In10 O59)n'
_symmetry_cell_setting           triclinic
_symmetry_space_group_name_H-M   'P 1'
_symmetry_Int_Tables_number      1
_space_group_name_Hall           'P 1'
loop_
_symmetry_equiv_pos_site_id
_symmetry_equiv_pos_as_xyz
1 x,y,z
_cell_length_a                   16.9789(13)
_cell_length_b                   21.612(2)
_cell_length_c                   13.8905(11)
_cell_angle_alpha                90
_cell_angle_beta                 90
_cell_angle_gamma                90
_cell_volume                     5097.09
loop_
_atom_site_label
_atom_site_type_symbol
_atom_site_fract_x
_atom_site_fract_y
_atom_site_fract_z
C1 C 0.3580(6) 0.1684(5) 0.6193(9)
C2 C 0.4256(6) 0.1661(5) 0.5478(8)
C3 C 0.4392(7) 0.2143(5) 0.4840(11)
C4 C 0.5037(7) 0.2130(5) 0.4211(10)
C5 C 0.5557(6) 0.1652(5) 0.4215(8)
C6 C 0.5426(7) 0.1161(6) 0.4850(11)
C7 C 0.4777(8) 0.1172(6) 0.5483(11)
C8 C 0.6271(6) 0.1647(5) 0.3575(8)
C11 C 0.0176(8) 0.0491(6) 0.9406(10)
F1 F 0.3896(5) 0.2629(3) 0.4787(6)
F2 F 0.5117(5) 0.2614(3) 0.3612(6)
F3 F 0.5915(5) 0.0673(3) 0.4917(7)
F4 F 0.4692(5) 0.0683(3) 0.6083(7)
F5 F 0.0284(6) 0.0968(4) 0.8810(8)
In1 In 0.25044(5) 0.2500 0.7500
In2 In 0.25003(4) 0.08327(3) 0.75091(4)
O1 O 0.3445(5) 0.2201(4) 0.6537(7)
O2 O 0.3244(5) 0.1181(4) 0.6376(6)
O3 O 0.6627(5) 0.2151(4) 0.3447(7)
O4 O 0.6456(5) 0.1127(4) 0.3229(7)
O5 O 0.1730(5) 0.0453(4) 0.8619(6)
O7 O 0.2546(5) 0.1667(3) 0.8267(5)
H1 H 0.278(6) 0.1669(7) 0.880(3)
O8 O 0.2500 0.0000 0.6752(7)
H2 H 0.2500 0.0000 0.6157(15)
In6 In 0.75044(5) 0.2500 0.2500
In10 In 0.75003(4) 0.08327(3) 0.24909(4)
O16 O 0.3445(5) 0.2799(4) 0.8463(7)
O17 O 0.1627(5) 0.2151(4) 0.6553(7)
O18 O 0.1627(5) 0.2849(4) 0.8447(7)
O20 O 0.1456(5) 0.1127(4) 0.6771(7)
O22 O 0.3517(5) 0.0549(3) 0.8296(6)
O23 O 0.2546(5) 0.3333(3) 0.6733(5)
C9 C 0.1351(7) 0.9967(5) 0.8714(9)
C10 C 0.0658(7) 0.9981(5) 0.9383(9)
O6 O 0.1483(5) 0.9451(3) 0.8296(6)
O8_2 O 0.2500 1.0000 0.6752(7)
H2_2 H 0.2500 1.0000 0.6157(15)
C16 C 0.0488(8) 0.9499(6) 0.9984(12)
C17 C 0.1420(6) 0.8316(5) 0.6193(9)
C18 C 0.0744(6) 0.8339(5) 0.5478(8)
C19 C 0.0608(7) 0.7857(5) 0.4840(11)
C23 C 0.0223(8) 0.8828(6) 0.5483(11)
F9 F 0.1104(5) 0.7371(3) 0.4787(6)
F12 F 0.0308(5) 0.9317(3) 0.6083(7)
In3 In 0.24997(4) 0.91673(3) 0.75091(4)
O11 O 0.1555(5) 0.7799(4) 0.6537(7)
O12 O 0.1756(5) 0.8819(4) 0.6376(6)
O15 O 0.2454(5) 0.8333(3) 0.8267(5)
H3 H 0.222(6) 0.8331(7) 0.880(3)
In4 In 0.24956(5) 0.7500 0.7500
O19 O 0.3544(5) 0.8873(4) 0.6771(7)
O21 O 0.3270(5) 0.9547(4) 0.8619(6)
C12 C 0.9512(8) 0.0501(6) 0.0016(12)
C13 C 0.8649(7) 0.0033(5) 0.1286(9)
C14 C 0.9342(7) 0.0019(5) 0.0617(9)
O10 O 0.8517(5) 0.0549(3) 0.1704(6)
C15 C 0.9824(8) 0.9509(6) 0.0594(10)
F7 F 0.9716(6) 0.9032(4) 0.1190(8)
O9 O 0.8270(5) 0.9547(4) 0.1381(6)
In8 In 0.74997(4) 0.91673(3) 0.24909(4)
C20 C 0.9963(7) 0.7870(5) 0.4211(10)
C21 C 0.9443(6) 0.8348(5) 0.4215(8)
C22 C 0.9574(7) 0.8839(6) 0.4850(11)
C24 C 0.8729(6) 0.8353(5) 0.3575(8)
F10 F 0.9883(5) 0.7386(3) 0.3612(6)
F11 F 0.9085(5) 0.9327(3) 0.4917(7)
O13 O 0.8373(5) 0.7849(4) 0.3447(7)
O14 O 0.8544(5) 0.8873(4) 0.3229(7)
In5 In 0.74956(5) 0.7500 0.2500
C15_2 C 0.5176(8) 0.0491(6) 0.0594(10)
F7_2 F 0.5284(6) 0.0968(4) 0.1190(8)
F8 F 0.4043(5) 0.0999(4) 0.0036(7)
O9_2 O 0.6730(5) 0.0453(4) 0.1381(6)
C9_2 C 0.3649(7) 0.0033(5) 0.8714(9)
C10_2 C 0.4342(7) 0.0019(5) 0.9383(9)
C16_2 C 0.4512(8) 0.0501(6) 0.9984(12)
C12_2 C 0.5488(8) 0.9499(6) 0.0016(12)
C13_2 C 0.6351(7) 0.9967(5) 0.1286(9)
C14_2 C 0.5658(7) 0.9981(5) 0.0617(9)
O10_2 O 0.6483(5) 0.9451(3) 0.1704(6)
C11_2 C 0.4824(8) 0.9509(6) 0.9406(10)
F5_2 F 0.4716(6) 0.9032(4) 0.8810(8)
F6 F 0.5957(5) 0.9001(4) 0.9964(7)
O16_2 O 0.1555(5) 0.7201(4) 0.8463(7)
O17_2 O 0.3373(5) 0.7849(4) 0.6553(7)
O18_2 O 0.3373(5) 0.7151(4) 0.8447(7)
O23_2 O 0.2454(5) 0.6667(3) 0.6733(5)
C3_2 C 0.4392(7) 0.2857(5) 0.0160(11)
C4_2 C 0.5037(7) 0.2870(5) 0.0789(10)
C5_2 C 0.5557(6) 0.3348(5) 0.0785(8)
C6_2 C 0.5426(7) 0.3839(6) 0.0150(11)
C8_2 C 0.6271(6) 0.3353(5) 0.1425(8)
F1_2 F 0.3896(5) 0.2371(3) 0.0213(6)
F2_2 F 0.5117(5) 0.2386(3) 0.1388(6)
F3_2 F 0.5915(5) 0.4327(3) 0.0083(7)
O3_2 O 0.6627(5) 0.2849(4) 0.1553(7)
O4_2 O 0.6456(5) 0.3873(4) 0.1771(7)
C19_2 C 0.0608(7) 0.7143(5) 0.0160(11)
F9_2 F 0.1104(5) 0.7629(3) 0.0213(6)
In10_2 In 0.75003(4) 0.41673(3) 0.25091(4)
C1_2 C 0.3580(6) 0.3316(5) 0.8807(9)
C2_2 C 0.4256(6) 0.3339(5) 0.9522(8)
C7_2 C 0.4777(8) 0.3828(6) 0.9517(11)
C9_3 C 0.1351(7) 0.5033(5) 0.6286(9)
C10_3 C 0.0658(7) 0.5019(5) 0.5617(9)
C11_3 C 0.0176(8) 0.4509(6) 0.5594(10)
F4_2 F 0.4692(5) 0.4317(3) 0.8917(7)
F5_3 F 0.0284(6) 0.4032(4) 0.6190(8)
In2_2 In 0.25003(4) 0.41673(3) 0.74909(4)
O2_2 O 0.3244(5) 0.3819(4) 0.8624(6)
O5_2 O 0.1730(5) 0.4547(4) 0.6381(6)
O6_2 O 0.1483(5) 0.5549(3) 0.6704(6)
H1_2 H 0.278(6) 0.3331(7) 0.620(3)
O8_3 O 0.2500 0.5000 0.8248(7)
H2_3 H 0.2500 0.5000 0.8843(15)
C16_3 C 0.0488(8) 0.5501(6) 0.5016(12)
F8_2 F 0.0957(5) 0.5999(4) 0.4964(7)
C17_2 C 0.1420(6) 0.6684(5) 0.8807(9)
C18_2 C 0.0744(6) 0.6661(5) 0.9522(8)
C23_2 C 0.0223(8) 0.6172(6) 0.9517(11)
F12_2 F 0.0308(5) 0.5683(3) 0.8917(7)
In3_2 In 0.24997(4) 0.58327(3) 0.74909(4)
O12_2 O 0.1756(5) 0.6181(4) 0.8624(6)
H3_2 H 0.222(6) 0.6669(7) 0.620(3)
O19_2 O 0.3544(5) 0.6127(4) 0.8229(7)
O20_2 O 0.1456(5) 0.3873(4) 0.8229(7)
O21_2 O 0.3270(5) 0.5453(4) 0.6381(6)
O22_2 O 0.3517(5) 0.4451(3) 0.6704(6)
C20_2 C 0.9963(7) 0.7130(5) 0.0789(10)
C21_2 C 0.9443(6) 0.6652(5) 0.0785(8)
C22_2 C 0.9574(7) 0.6161(6) 0.0150(11)
C24_2 C 0.8729(6) 0.6647(5) 0.1425(8)
F10_2 F 0.9883(5) 0.7614(3) 0.1388(6)
F11_2 F 0.9085(5) 0.5673(3) 0.0083(7)
O13_2 O 0.8373(5) 0.7151(4) 0.1553(7)
O14_2 O 0.8544(5) 0.6127(4) 0.1771(7)
In7 In 0.74997(4) 0.58327(3) 0.25091(4)
C12_3 C 0.9512(8) 0.4499(6) 0.4984(12)
F6_2 F 0.9043(5) 0.4001(4) 0.5036(7)
C13_3 C 0.8649(7) 0.4967(5) 0.3714(9)
C14_3 C 0.9342(7) 0.4981(5) 0.4383(9)
C15_3 C 0.9824(8) 0.5491(6) 0.4406(10)
F7_3 F 0.9716(6) 0.5968(4) 0.3810(8)
O9_3 O 0.8270(5) 0.5453(4) 0.3619(6)
O10_3 O 0.8517(5) 0.4451(3) 0.3296(6)
C9_4 C 0.3649(7) 0.4967(5) 0.6286(9)
C10_4 C 0.4342(7) 0.4981(5) 0.5617(9)
C11_4 C 0.4824(8) 0.5491(6) 0.5594(10)
C12_4 C 0.5488(8) 0.5501(6) 0.4984(12)
F5_4 F 0.4716(6) 0.5968(4) 0.6190(8)
F6_3 F 0.5957(5) 0.5999(4) 0.5036(7)
C13_4 C 0.6351(7) 0.5033(5) 0.3714(9)
C14_4 C 0.5658(7) 0.5019(5) 0.4383(9)
C15_4 C 0.5176(8) 0.4509(6) 0.4406(10)
C16_4 C 0.4512(8) 0.4499(6) 0.5016(12)
F7_4 F 0.5284(6) 0.4032(4) 0.3810(8)
F8_3 F 0.4043(5) 0.4001(4) 0.4964(7)
O9_4 O 0.6730(5) 0.4547(4) 0.3619(6)
O10_4 O 0.6483(5) 0.5549(3) 0.3296(6)
C20_3 C 0.0037(7) 0.2130(5) 0.5789(10)
C21_3 C 0.0557(6) 0.1652(5) 0.5785(8)
C22_3 C 0.0426(7) 0.1161(6) 0.5150(11)
C24_3 C 0.1271(6) 0.1647(5) 0.6425(8)
F10_3 F 0.0117(5) 0.2614(3) 0.6388(6)
F11_3 F 0.0915(5) 0.0673(3) 0.5083(7)
O8_4 O 0.7500 -0.0000 0.3248(7)
H2_4 H 0.7500 0.0000 0.3843(15)
C17_3 C 0.8580(6) 0.1684(5) 0.3807(9)
C18_3 C 0.9256(6) 0.1661(5) 0.4522(8)
C19_3 C 0.9392(7) 0.2143(5) 0.5160(11)
C23_3 C 0.9777(8) 0.1172(6) 0.4517(11)
F9_3 F 0.8896(5) 0.2629(3) 0.5213(6)
F12_3 F 0.9692(5) 0.0683(3) 0.3917(7)
O11_2 O 0.8445(5) 0.2201(4) 0.3463(7)
O12_3 O 0.8244(5) 0.1181(4) 0.3624(6)
O15_2 O 0.7546(5) 0.1667(3) 0.1733(5)
H3_3 H 0.778(6) 0.1669(7) 0.120(3)
C1_3 C 0.6420(6) 0.8316(5) 0.3807(9)
C2_3 C 0.5744(6) 0.8339(5) 0.4522(8)
C3_3 C 0.5608(7) 0.7857(5) 0.5160(11)
C4_3 C 0.4963(7) 0.7870(5) 0.5789(10)
C5_3 C 0.4443(6) 0.8348(5) 0.5785(8)
C6_3 C 0.4574(7) 0.8839(6) 0.5150(11)
C7_3 C 0.5223(8) 0.8828(6) 0.4517(11)
C8_3 C 0.3729(6) 0.8353(5) 0.6425(8)
F1_3 F 0.6104(5) 0.7371(3) 0.5213(6)
F2_3 F 0.4883(5) 0.7386(3) 0.6388(6)
F3_3 F 0.4085(5) 0.9327(3) 0.5083(7)
F4_3 F 0.5308(5) 0.9317(3) 0.3917(7)
O1_2 O 0.6555(5) 0.7799(4) 0.3463(7)
O2_3 O 0.6756(5) 0.8819(4) 0.3624(6)
O7_2 O 0.7454(5) 0.8333(3) 0.1733(5)
H1_3 H 0.722(6) 0.8331(7) 0.120(3)
O8_5 O 0.7500 1.0000 0.3248(7)
H2_5 H 0.7500 1.0000 0.3843(15)
O16_3 O 0.6555(5) 0.7201(4) 0.1537(7)
O23_3 O 0.7454(5) 0.6667(3) 0.3267(5)
O16_4 O 0.8445(5) 0.2799(4) 0.1537(7)
O23_4 O 0.7546(5) 0.3333(3) 0.3267(5)
C20_4 C 0.0037(7) 0.2870(5) 0.9211(10)
C21_4 C 0.0557(6) 0.3348(5) 0.9215(8)
C22_4 C 0.0426(7) 0.3839(6) 0.9850(11)
C24_4 C 0.1271(6) 0.3353(5) 0.8575(8)
F10_4 F 0.0117(5) 0.2386(3) 0.8612(6)
F11_4 F 0.0915(5) 0.4327(3) 0.9917(7)
C1_4 C 0.6420(6) 0.6684(5) 0.1193(9)
C2_4 C 0.5744(6) 0.6661(5) 0.0478(8)
C7_4 C 0.5223(8) 0.6172(6) 0.0483(11)
F4_4 F 0.5308(5) 0.5683(3) 0.1083(7)
O2_4 O 0.6756(5) 0.6181(4) 0.1376(6)
H1_4 H 0.722(6) 0.6669(7) 0.380(3)
O8_6 O 0.7500 0.5000 0.1752(7)
H2_6 H 0.7500 0.5000 0.1157(15)
C17_4 C 0.8580(6) 0.3316(5) 0.1193(9)
C18_4 C 0.9256(6) 0.3339(5) 0.0478(8)
C23_4 C 0.9777(8) 0.3828(6) 0.0483(11)
F12_4 F 0.9692(5) 0.4317(3) 0.1083(7)
O12_4 O 0.8244(5) 0.3819(4) 0.1376(6)
H3_4 H 0.778(6) 0.3331(7) 0.380(3)
C3_4 C 0.5608(7) 0.7143(5) 0.9840(11)
C4_4 C 0.4963(7) 0.7130(5) 0.9211(10)
C5_4 C 0.4443(6) 0.6652(5) 0.9215(8)
C6_4 C 0.4574(7) 0.6161(6) 0.9850(11)
C8_4 C 0.3729(6) 0.6647(5) 0.8575(8)
F1_4 F 0.6104(5) 0.7629(3) 0.9787(6)
F2_4 F 0.4883(5) 0.7614(3) 0.8612(6)
F3_4 F 0.4085(5) 0.5673(3) 0.9917(7)
C19_4 C 0.9392(7) 0.2857(5) 0.9840(11)
F9_4 F 0.8896(5) 0.2371(3) 0.9787(6)
F8_4 F 0.0957(5) 0.9001(4) 0.0036(7)
F6_4 F 0.9043(5) 0.0999(4) 0.9964(7)
loop_
_geom_bond_atom_site_label_1
_geom_bond_atom_site_label_2
_geom_bond_site_symmetry_1
_geom_bond_site_symmetry_2
C1 C2 1_555 1_555
C2 C3 1_555 1_555
C3 C4 1_555 1_555
C4 C5 1_555 1_555
C5 C6 1_555 1_555
C6 C7 1_555 1_555
C7 C2 1_555 1_555
C8 C5 1_555 1_555
F1 C3 1_555 1_555
F2 C4 1_555 1_555
F3 C6 1_555 1_555
F4 C7 1_555 1_555
F5 C11 1_555 1_555
In1 O1 1_555 1_555
In2 O2 1_555 1_555
O1 C1 1_555 1_555
O2 C1 1_555 1_555
O3 C8 1_555 1_555
O4 C8 1_555 1_555
O7 In1 1_555 1_555
H1 O7 1_555 1_555
O8 In2 1_555 1_555
H2 O8 1_555 1_555
In6 O3 1_555 1_555
In10 O4 1_555 1_555
O16 In1 1_555 1_555
O17 In1 1_555 1_555
O18 In1 1_555 1_555
O20 In2 1_555 1_555
O22 In2 1_555 1_555
O23 In1 1_555 1_555
In2 O5 1_555 1_555
In2 O7 1_555 1_555
C9 C10 1_555 1_555
O6 C9 1_555 1_555
H2_2 O8_2 1_555 1_555
C16 C10 1_555 1_555
C17 C18 1_555 1_555
C18 C19 1_555 1_555
C23 C18 1_555 1_555
F9 C19 1_555 1_555
F12 C23 1_555 1_555
In3 O6 1_555 1_555
O11 C17 1_555 1_555
O12 C17 1_555 1_555
O15 In3 1_555 1_555
H3 O15 1_555 1_555
In4 O11 1_555 1_555
O19 In3 1_555 1_555
O21 In3 1_555 1_555
O8_2 In3 1_555 1_555
In3 O12 1_555 1_555
O15 In4 1_555 1_555
C13 C14 1_555 1_555
C14 C12 1_555 1_555
O10 C13 1_555 1_555
In10 O10 1_555 1_555
F7 C15 1_555 1_555
In8 O9 1_555 1_555
C20 C21 1_555 1_555
C21 C22 1_555 1_555
C24 C21 1_555 1_555
F10 C20 1_555 1_555
F11 C22 1_555 1_555
O13 C24 1_555 1_555
O14 C24 1_555 1_555
In5 O13 1_555 1_555
In8 O14 1_555 1_555
F7_2 C15_2 1_555 1_555
In10 O9_2 1_555 1_555
C9_2 C10_2 1_555 1_555
O22 C9_2 1_555 1_555
C16_2 C10_2 1_555 1_555
C13_2 C14_2 1_555 1_555
C14_2 C12_2 1_555 1_555
O10_2 C13_2 1_555 1_555
In8 O10_2 1_555 1_555
F5_2 C11_2 1_555 1_555
O16_2 In4 1_555 1_555
O17_2 In4 1_555 1_555
O18_2 In4 1_555 1_555
O23_2 In4 1_555 1_555
C3_2 C4_2 1_555 1_555
C4_2 C5_2 1_555 1_555
C5_2 C6_2 1_555 1_555
C8_2 C5_2 1_555 1_555
F1_2 C3_2 1_555 1_555
F2_2 C4_2 1_555 1_555
F3_2 C6_2 1_555 1_555
O3_2 C8_2 1_555 1_555
O4_2 C8_2 1_555 1_555
F9_2 C19_2 1_555 1_555
In6 O3_2 1_555 1_555
In10_2 O4_2 1_555 1_555
C1_2 C2_2 1_555 1_555
C7_2 C2_2 1_555 1_555
C9_3 C10_3 1_555 1_555
C10_3 C11_3 1_555 1_555
F4_2 C7_2 1_555 1_555
F5_3 C11_3 1_555 1_555
In2_2 O2_2 1_555 1_555
O16 C1_2 1_555 1_555
O2_2 C1_2 1_555 1_555
O5_2 C9_3 1_555 1_555
O6_2 C9_3 1_555 1_555
H1_2 O23 1_555 1_555
O8_3 In2_2 1_555 1_555
H2_3 O8_3 1_555 1_555
C16_3 C10_3 1_555 1_555
F8_2 C16_3 1_555 1_555
C17_2 C18_2 1_555 1_555
C23_2 C18_2 1_555 1_555
F12_2 C23_2 1_555 1_555
In3_2 O6_2 1_555 1_555
O16_2 C17_2 1_555 1_555
O12_2 C17_2 1_555 1_555
O23_2 In3_2 1_555 1_555
H3_2 O23_2 1_555 1_555
O19_2 In3_2 1_555 1_555
O20_2 In2_2 1_555 1_555
O21_2 In3_2 1_555 1_555
O22_2 In2_2 1_555 1_555
In2_2 O5_2 1_555 1_555
In2_2 O23 1_555 1_555
O8_3 In3_2 1_555 1_555
In3_2 O12_2 1_555 1_555
C20_2 C21_2 1_555 1_555
C21_2 C22_2 1_555 1_555
C24_2 C21_2 1_555 1_555
F10_2 C20_2 1_555 1_555
F11_2 C22_2 1_555 1_555
O13_2 C24_2 1_555 1_555
O14_2 C24_2 1_555 1_555
In5 O13_2 1_555 1_555
In7 O14_2 1_555 1_555
C12_3 F6_2 1_555 1_555
C13_3 C14_3 1_555 1_555
C14_3 C12_3 1_555 1_555
C15_3 C14_3 1_555 1_555
F7_3 C15_3 1_555 1_555
O9_3 C13_3 1_555 1_555
O10_3 C13_3 1_555 1_555
In7 O9_3 1_555 1_555
In10_2 O10_3 1_555 1_555
C9_4 C10_4 1_555 1_555
C10_4 C11_4 1_555 1_555
C11_4 C12_4 1_555 1_555
C12_4 F6_3 1_555 1_555
F5_4 C11_4 1_555 1_555
O21_2 C9_4 1_555 1_555
O22_2 C9_4 1_555 1_555
C13_4 C14_4 1_555 1_555
C14_4 C12_4 1_555 1_555
C15_4 C14_4 1_555 1_555
C16_4 C10_4 1_555 1_555
F7_4 C15_4 1_555 1_555
F8_3 C16_4 1_555 1_555
O9_4 C13_4 1_555 1_555
O10_4 C13_4 1_555 1_555
In10_2 O9_4 1_555 1_555
In7 O10_4 1_555 1_555
C15_4 C16_4 1_555 1_555
C20_3 C21_3 1_555 1_555
C21_3 C22_3 1_555 1_555
C24_3 C21_3 1_555 1_555
F10_3 C20_3 1_555 1_555
F11_3 C22_3 1_555 1_555
O17 C24_3 1_555 1_555
O20 C24_3 1_555 1_555
H2_4 O8_4 1_555 1_555
C17_3 C18_3 1_555 1_555
C18_3 C19_3 1_555 1_555
C23_3 C18_3 1_555 1_555
F9_3 C19_3 1_555 1_555
F12_3 C23_3 1_555 1_555
O11_2 C17_3 1_555 1_555
O12_3 C17_3 1_555 1_555
O15_2 In10 1_555 1_555
H3_3 O15_2 1_555 1_555
In6 O11_2 1_555 1_555
O8_4 In10 1_555 1_555
In10 O12_3 1_555 1_555
O15_2 In6 1_555 1_555
C1_3 C2_3 1_555 1_555
C2_3 C3_3 1_555 1_555
C3_3 C4_3 1_555 1_555
C4_3 C5_3 1_555 1_555
C5_3 C6_3 1_555 1_555
C6_3 C7_3 1_555 1_555
C7_3 C2_3 1_555 1_555
C8_3 C5_3 1_555 1_555
F1_3 C3_3 1_555 1_555
F2_3 C4_3 1_555 1_555
F3_3 C6_3 1_555 1_555
F4_3 C7_3 1_555 1_555
In5 O1_2 1_555 1_555
In8 O2_3 1_555 1_555
O1_2 C1_3 1_555 1_555
O2_3 C1_3 1_555 1_555
O17_2 C8_3 1_555 1_555
O19 C8_3 1_555 1_555
O7_2 In5 1_555 1_555
H1_3 O7_2 1_555 1_555
O8_5 In8 1_555 1_555
H2_5 O8_5 1_555 1_555
O16_3 In5 1_555 1_555
O23_3 In5 1_555 1_555
In8 O7_2 1_555 1_555
O16_4 In6 1_555 1_555
O23_4 In6 1_555 1_555
C20_4 C21_4 1_555 1_555
C21_4 C22_4 1_555 1_555
C24_4 C21_4 1_555 1_555
F10_4 C20_4 1_555 1_555
F11_4 C22_4 1_555 1_555
O18 C24_4 1_555 1_555
O20_2 C24_4 1_555 1_555
C1_4 C2_4 1_555 1_555
C7_4 C2_4 1_555 1_555
F4_4 C7_4 1_555 1_555
In7 O2_4 1_555 1_555
O16_3 C1_4 1_555 1_555
O2_4 C1_4 1_555 1_555
H1_4 O23_3 1_555 1_555
O8_6 In7 1_555 1_555
H2_6 O8_6 1_555 1_555
C17_4 C18_4 1_555 1_555
C23_4 C18_4 1_555 1_555
F12_4 C23_4 1_555 1_555
O16_4 C17_4 1_555 1_555
O12_4 C17_4 1_555 1_555
O23_4 In10_2 1_555 1_555
H3_4 O23_4 1_555 1_555
In7 O23_3 1_555 1_555
O8_6 In10_2 1_555 1_555
In10_2 O12_4 1_555 1_555
C3_4 C4_4 1_555 1_555
C4_4 C5_4 1_555 1_555
C5_4 C6_4 1_555 1_555
C8_4 C5_4 1_555 1_555
F1_4 C3_4 1_555 1_555
F2_4 C4_4 1_555 1_555
F3_4 C6_4 1_555 1_555
O18_2 C8_4 1_555 1_555
O19_2 C8_4 1_555 1_555
F9_4 C19_4 1_555 1_555

#END
