
###############################################################################
#
# This file contains modified crystal structure data generated from the
# MOF subset of the Cambridge Structural Database (CSD) v543 
# hosted by the Cambridge Crystallographic Data Centre (CCDC).
#
# This work is licensed under the Creative Commons
# Attribution-NonCommercial-ShareAlike 4.0 International License.
# To view a copy of this license, visit
# http://creativecommons.org/licenses/by-nc-sa/4.0/
# or send a letter to
# Creative Commons, PO Box 1866, Mountain View, CA 94042, USA.
#
# CIF created using the CSD Python API on 29 September 2022
# The structure has been converted into the P1 space group
# The structure has a 3D framework
# The original CSD entry ANEHEI is in the triclinic crystal system
# The framework has been calculated to contain at least 10.0% void space
# The void calculation uses a probe of radius 1.32A, grid spacing 0.4
# H atom positions have been added when not included in the experimental data
# Generated hydrogen atom positions removed from atoms on special positions
#
###############################################################################

data_ANEHEI
_chemical_formula_moiety         '(C70 H84 N30 O20 Zn8)n'
_symmetry_cell_setting           triclinic
_symmetry_space_group_name_H-M   'P 1'
_symmetry_Int_Tables_number      1
_space_group_name_Hall           'P 1'
loop_
_symmetry_equiv_pos_site_id
_symmetry_equiv_pos_as_xyz
1 x,y,z
_cell_length_a                   14.9215(10)
_cell_length_b                   15.3226(13)
_cell_length_c                   15.9840(13)
_cell_angle_alpha                72.669(7)
_cell_angle_beta                 63.676(7)
_cell_angle_gamma                63.788(7)
_cell_volume                     2914.96
loop_
_atom_site_label
_atom_site_type_symbol
_atom_site_fract_x
_atom_site_fract_y
_atom_site_fract_z
_atom_site_U_iso_or_equiv
_atom_site_thermal_displace_type
Zn1 Zn 0.69815(8) 0.10632(8) 0.15399(7) 0.0422 Uani
Zn3 Zn 0.31402(8) 0.09747(8) 0.48442(6) 0.0369 Uani
H1 H 0.2954 0.0234 0.6799 0.0660 Uiso
C6 C 0.1472(9) 0.2945(8) 0.5075(8) 0.0653 Uani
H2 H 0.1922 0.2981 0.5312 0.0780 Uiso
C7 C 0.1105(6) 0.2094(6) 0.4454(5) 0.0268 Uani
C8 C 0.0194(7) 0.2904(7) 0.4382(6) 0.0386 Uani
C10 C 0.0286(6) 0.1721(6) 0.3865(7) 0.0392 Uani
H3 H 0.0141 0.1357 0.3600 0.0470 Uiso
C12 C 0.4169(6) 0.0325(6) 0.2827(6) 0.0354 Uani
C13 C 0.5016(7) 0.0400(7) 0.2044(6) 0.0413 Uani
C14 C 0.5183(8) 0.0168(8) 0.1194(7) 0.0552 Uani
C15 C 0.4957(7) 0.0982(7) 0.3132(6) 0.0391 Uani
H5 H 0.5111 0.1278 0.3455 0.0470 Uiso
H9 H 0.0291 0.0041 0.1271 0.1060 Uiso
C24 C 0.4742(8) 0.2023(7) 0.5755(7) 0.0534 Uani
H16 H 0.5378 0.1419 0.5684 0.0650 Uiso
C25 C 0.4552(10) 0.2390(8) 0.6611(7) 0.0647 Uani
H17 H 0.4311 0.1950 0.7163 0.0780 Uiso
H18 H 0.5225 0.2375 0.6573 0.0780 Uiso
C26 C 0.3743(10) 0.3406(7) 0.6729(7) 0.0573 Uani
H19 H 0.3688 0.3617 0.7271 0.0690 Uiso
H20 H 0.3046 0.3415 0.6838 0.0690 Uiso
C27 C 0.4076(10) 0.4107(8) 0.5848(8) 0.0701 Uani
H21 H 0.4784 0.4073 0.5756 0.0850 Uiso
C28 C 0.4190(9) 0.3770(7) 0.4997(7) 0.0622 Uani
H22 H 0.4405 0.4216 0.4439 0.0750 Uiso
H23 H 0.3506 0.3775 0.5073 0.0750 Uiso
C29 C 0.5042(8) 0.2721(8) 0.4876(8) 0.0609 Uani
H24 H 0.5093 0.2500 0.4343 0.0720 Uiso
H25 H 0.5737 0.2727 0.4753 0.0720 Uiso
C30 C 0.3826(7) 0.1724(7) 0.5847(7) 0.0479 Uani
C31 C 0.3312(9) 0.5136(7) 0.6011(8) 0.0570 Uani
C34 C 0.0663(12) 0.4573(15) 0.0553(10) 0.1396 Uani
H29 H 0.0973 0.3872 0.0525 0.1660 Uiso
H30 H 0.0939 0.4708 0.0928 0.1660 Uiso
N6 N 0.0681(7) 0.3717(7) 0.5054(7) 0.0671 Uani
N7 N 0.1769(6) 0.2077(6) 0.4809(5) 0.0413 Uani
N9 N 0.1138(6) 0.1355(5) 0.4131(5) 0.0397 Uani
N13 N 0.5560(6) 0.0815(6) 0.2254(4) 0.0405 Uani
N14 N 0.4103(5) 0.0699(5) 0.3537(4) 0.0330 Uani
N15 N 0.5909(7) 0.0292(8) 0.0376(5) 0.0710 Uani
H36 H 0.6361 0.0528 0.0325 0.0860 Uiso
O5 O 0.4012(5) 0.1418(5) 0.5115(4) 0.0485 Uani
O6 O 0.3022(6) 0.1779(5) 0.6571(5) 0.0638 Uani
O7 O 0.2676(5) 0.5582(4) 0.5547(4) 0.0449 Uani
O8 O 0.3179(5) 0.5494(5) 0.6678(5) 0.0539 Uani
O12 O 0.6063(6) 0.2574(6) 0.1590(6) 0.0821 Uani
H50 H 0.0236 0.0065 0.7065 0.1030 Uiso
H51 H 0.0487 0.0854 0.7268 0.1030 Uiso
Zn15 Zn 0.15749(8) 0.65912(7) 0.64740(7) 0.0336 Uani
N32 N 0.7397(6) 0.0941(5) 0.2670(5) 0.0403 Uani
O26 O 0.8523(6) 0.1383(6) 0.0408(5) 0.0779 Uani
O28 O 0.7334(6) 0.1148(7) 0.0147(5) 0.0790 Uani
H35 H 0.5936 0.0139 0.9888 0.0860 Uiso
C36 C 0.0438(13) 0.5142(13) 0.9022(8) 0.1016 Uani
H39 H 0.0675 0.4450 0.8957 0.1220 Uiso
C37 C 0.1005(11) 0.5125(12) 0.9533(9) 0.1056 Uani
H40 H 0.1767 0.4805 0.9205 0.1270 Uiso
H41 H 0.0877 0.5793 0.9570 0.1270 Uiso
C39 C 0.0747(11) 0.5627(11) 0.8028(9) 0.0827 Uani
O13 O 0.0862(6) 0.6488(6) 0.7881(5) 0.0657 Uani
O14 O 0.0964(7) 0.5262(7) 0.7330(6) 0.0830 Uani
Zn2 Zn 0.21081(8) 0.99600(7) 0.39022(7) 0.0403 Uani
C1 C 0.2787(7) 0.9781(7) 0.6673(6) 0.0554 Uani
C2 C 0.2478(7) 0.9175(7) 0.5779(8) 0.0527 Uani
C3 C 0.2270(9) 0.8376(8) 0.6421(8) 0.0891 Uani
C4 C 0.2311(9) 0.8330(7) 0.7271(7) 0.1119 Uani
C5 C 0.2097(7) 0.8254(7) 0.5254(8) 0.0577 Uani
C11 C 0.3666(8) 0.9719(7) 0.2053(6) 0.0507 Uani
H4 H 0.3200 0.9471 0.2050 0.0610 Uiso
C16 C 0.0701(8) 0.8591(8) 0.3180(7) 0.0515 Uani
H6 H 0.0194 0.8486 0.3816 0.0620 Uiso
C17 C 0.0088(10) 0.9329(11) 0.2664(7) 0.0865 Uani
C18 C 0.0750(12) 0.9519(9) 0.1585(9) 0.0879 Uani
H10 H 0.1331 0.9706 0.1497 0.1060 Uiso
C19 C 0.1198(8) 0.8551(9) 0.1182(7) 0.0595 Uani
H11 H 0.0595 0.8375 0.1289 0.0710 Uiso
C20 C 0.1873(11) 0.7769(8) 0.1699(7) 0.0785 Uani
H12 H 0.2462 0.7943 0.1611 0.0940 Uiso
H13 H 0.2172 0.7157 0.1444 0.0940 Uiso
C21 C 0.1210(11) 0.7628(10) 0.2760(7) 0.0835 Uani
H14 H 0.0652 0.7408 0.2851 0.1000 Uiso
H15 H 0.1672 0.7129 0.3083 0.1000 Uiso
C22 C 0.1519(10) 0.8864(11) 0.3286(8) 0.0675 Uani
C23 C 0.1797(8) 0.8672(8) 0.0167(7) 0.0559 Uani
N1 N 0.2603(6) 0.9059(5) 0.7330(5) 0.0403 Uani
N2 N 0.2743(5) 0.9890(6) 0.5816(5) 0.0463 Uani
N3 N 0.2009(6) 0.7783(5) 0.6129(6) 0.0473 Uani
N4 N 0.2348(6) 0.9074(5) 0.5019(6) 0.0450 Uani
N5 N 0.2020(7) 0.7572(6) 0.7950(6) 0.0701 Uani
H31 H 0.2441 0.7304 0.8268 0.0840 Uiso
H32 H 0.1367 0.7824 0.8333 0.0840 Uiso
N11 N 0.4478(7) 0.9787(8) 0.1235(5) 0.0660 Uani
N12 N 0.3463(6) 0.9968(5) 0.2864(5) 0.0366 Uani
O3 O 0.1244(6) 0.9592(6) 0.3548(6) 0.0643 Uani
O4 O 0.2485(7) 0.8176(6) 0.3196(6) 0.0750 Uani
O11 O 0.7763(6) 0.9480(5) 0.1499(5) 0.0701 Uani
H37 H 0.7518 0.9028 0.1940 0.1050 Uiso
H38 H 0.8374 0.9165 0.1048 0.1050 Uiso
C48 C 0.0042(9) 0.6239(8) 0.5290(7) 0.0538 Uani
N23 N 0.0322(6) 0.7364(6) 0.5989(5) 0.0414 Uani
N25 N 0.0836(7) 0.5437(6) 0.5349(8) 0.0799 Uani
H71 H 0.0923 0.4918 0.5173 0.0960 Uiso
H72 H 0.1279 0.5422 0.5565 0.0960 Uiso
Zn12 Zn 0.30185(8) 0.89368(8) 0.84601(7) 0.0422 Uani
H82 H 0.197506 0.79962 0.476109 . .
O1 O 0.1477(6) 0.8617(6) 0.9592(5) 0.0779 Uani
O2 O 0.2666(6) 0.8852(7) 0.9853(5) 0.0790 Uani
Zn4 Zn 0.84251(8) 0.34088(7) 0.35260(7) 0.0336 Uani
C9 C 0.9958(9) 0.3761(8) 0.4710(7) 0.0538 Uani
C32 C 0.9562(13) 0.4858(13) 0.0978(8) 0.1016 Uani
H26 H 0.9325 0.5550 0.1043 0.1220 Uiso
C33 C 0.8995(11) 0.4875(12) 0.0467(9) 0.1056 Uani
H27 H 0.8233 0.5195 0.0795 0.1270 Uiso
H28 H 0.9123 0.4207 0.0430 0.1270 Uiso
C35 C 0.9253(11) 0.4373(11) 0.1972(9) 0.0827 Uani
N8 N 0.9678(6) 0.2636(6) 0.4011(5) 0.0414 Uani
N10 N 0.9164(7) 0.4563(6) 0.4651(8) 0.0799 Uani
H33 H 0.9077 0.5082 0.4827 0.0960 Uiso
H34 H 0.8721 0.4578 0.4435 0.0960 Uiso
O9 O 0.9138(6) 0.3512(6) 0.2119(5) 0.0657 Uani
O10 O 0.9036(7) 0.4738(7) 0.2670(6) 0.0830 Uani
Zn6 Zn 0.78919(8) 0.00400(7) 0.60978(7) 0.0403 Uani
C40 C 0.7213(7) 0.0219(7) 0.3327(6) 0.0554 Uani
C41 C 0.7522(7) 0.0825(7) 0.4221(8) 0.0527 Uani
C42 C 0.7730(9) 0.1624(8) 0.3579(8) 0.0891 Uani
C43 C 0.7689(9) 0.1670(7) 0.2729(7) 0.1119 Uani
C44 C 0.7903(7) 0.1746(7) 0.4746(8) 0.0577 Uani
C50 C 0.6334(8) 0.0281(7) 0.7947(6) 0.0507 Uani
H47 H 0.6800 0.0529 0.7950 0.0610 Uiso
C55 C 0.9299(8) 0.1409(8) 0.6820(7) 0.0515 Uani
H49 H 0.9806 0.1514 0.6184 0.0620 Uiso
C56 C 0.9912(10) 0.0671(11) 0.7336(7) 0.0865 Uani
C57 C 0.9250(12) 0.0481(9) 0.8415(9) 0.0879 Uani
H53 H 0.8669 0.0294 0.8503 0.1060 Uiso
C58 C 0.8802(8) 0.1449(9) 0.8818(7) 0.0595 Uani
H54 H 0.9405 0.1625 0.8711 0.0710 Uiso
C59 C 0.8127(11) 0.2231(8) 0.8301(7) 0.0785 Uani
H55 H 0.7538 0.2057 0.8389 0.0940 Uiso
H56 H 0.7828 0.2843 0.8556 0.0940 Uiso
C60 C 0.8790(11) 0.2372(10) 0.7240(7) 0.0835 Uani
H57 H 0.9348 0.2592 0.7149 0.1000 Uiso
H58 H 0.8328 0.2871 0.6917 0.1000 Uiso
C61 C 0.8481(10) 0.1136(11) 0.6714(8) 0.0675 Uani
C62 C 0.8203(8) 0.1328(8) 0.9833(7) 0.0559 Uani
N17 N 0.7257(5) 0.0110(6) 0.4184(5) 0.0463 Uani
N18 N 0.7991(6) 0.2217(5) 0.3871(6) 0.0473 Uani
N19 N 0.7652(6) 0.0926(5) 0.4981(6) 0.0450 Uani
N20 N 0.7980(7) 0.2428(6) 0.2050(6) 0.0701 Uani
H69 H 0.7559 0.2696 0.1732 0.0840 Uiso
H70 H 0.8633 0.2176 0.1667 0.0840 Uiso
N26 N 0.5522(7) 0.0213(8) 0.8765(5) 0.0660 Uani
N27 N 0.6537(6) 0.0032(5) 0.7136(5) 0.0366 Uani
O17 O 0.8756(6) 0.0408(6) 0.6452(6) 0.0643 Uani
O18 O 0.7515(7) 0.1824(6) 0.6804(6) 0.0750 Uani
O23 O 0.2237(6) 0.0520(5) 0.8501(5) 0.0701 Uani
H75 H 0.2482 0.0972 0.8060 0.1050 Uiso
H76 H 0.1626 0.0835 0.8952 0.1050 Uiso
O30 O 0.7324(5) 0.4418(4) 0.4453(4) 0.0449 Uani
O32 O 0.6821(5) 0.4506(5) 0.3322(5) 0.0539 Uani
H79 H 0.802494 0.20038 0.523891 . .
C38 C 0.9337(12) 0.5427(15) 0.9447(10) 0.1396 Uani
H42 H 0.9027 0.6128 0.9475 0.1660 Uiso
H43 H 0.9061 0.5292 0.9072 0.1660 Uiso
H73 H 0.4064 0.9861 0.0112 0.0860 Uiso
H7 H 0.9764 0.9935 0.2935 0.1030 Uiso
H8 H 0.9513 0.9146 0.2732 0.1030 Uiso
Zn7 Zn 0.68598(8) 0.90253(8) 0.51558(6) 0.0369 Uani
H44 H 0.7046 0.9766 0.3201 0.0660 Uiso
C45 C 0.8528(9) 0.7055(8) 0.4925(8) 0.0653 Uani
H45 H 0.8078 0.7019 0.4688 0.0780 Uiso
C46 C 0.8895(6) 0.7906(6) 0.5546(5) 0.0268 Uani
C47 C 0.9806(7) 0.7096(7) 0.5618(6) 0.0386 Uani
C49 C 0.9714(6) 0.8279(6) 0.6135(7) 0.0392 Uani
H46 H 0.9859 0.8643 0.6400 0.0470 Uiso
C51 C 0.5831(6) 0.9675(6) 0.7173(6) 0.0354 Uani
C52 C 0.4984(7) 0.9600(7) 0.7956(6) 0.0413 Uani
C53 C 0.4817(8) 0.9832(8) 0.8806(7) 0.0552 Uani
C54 C 0.5043(7) 0.9018(7) 0.6868(6) 0.0391 Uani
H48 H 0.4889 0.8722 0.6545 0.0470 Uiso
H52 H 0.9709 0.9959 0.8729 0.1060 Uiso
C63 C 0.5258(8) 0.7977(7) 0.4245(7) 0.0534 Uani
H59 H 0.4622 0.8581 0.4316 0.0650 Uiso
C64 C 0.5448(10) 0.7610(8) 0.3389(7) 0.0647 Uani
H60 H 0.5689 0.8050 0.2837 0.0780 Uiso
H61 H 0.4775 0.7625 0.3427 0.0780 Uiso
C65 C 0.6257(10) 0.6594(7) 0.3271(7) 0.0573 Uani
H62 H 0.6312 0.6383 0.2729 0.0690 Uiso
H63 H 0.6954 0.6585 0.3162 0.0690 Uiso
C66 C 0.5924(10) 0.5893(8) 0.4152(8) 0.0701 Uani
H64 H 0.5216 0.5927 0.4244 0.0850 Uiso
C67 C 0.5810(9) 0.6230(7) 0.5003(7) 0.0622 Uani
H65 H 0.5595 0.5784 0.5561 0.0750 Uiso
H66 H 0.6494 0.6225 0.4927 0.0750 Uiso
C68 C 0.4958(8) 0.7279(8) 0.5124(8) 0.0609 Uani
H67 H 0.4907 0.7500 0.5657 0.0720 Uiso
H68 H 0.4263 0.7273 0.5247 0.0720 Uiso
C69 C 0.6174(7) 0.8276(7) 0.4153(7) 0.0479 Uani
C70 C 0.6688(9) 0.4864(7) 0.3989(8) 0.0570 Uani
N21 N 0.9319(7) 0.6283(7) 0.4946(7) 0.0671 Uani
N22 N 0.8231(6) 0.7923(6) 0.5191(5) 0.0413 Uani
N24 N 0.8862(6) 0.8645(5) 0.5869(5) 0.0397 Uani
N28 N 0.4440(6) 0.9185(6) 0.7746(4) 0.0405 Uani
N29 N 0.5897(5) 0.9301(5) 0.6463(4) 0.0330 Uani
N30 N 0.4091(7) 0.9708(8) 0.9624(5) 0.0710 Uani
H74 H 0.3639 0.9472 0.9675 0.0860 Uiso
O19 O 0.5988(5) 0.8582(5) 0.4885(4) 0.0485 Uani
O20 O 0.6978(6) 0.8221(5) 0.3429(5) 0.0638 Uani
O24 O 0.3937(6) 0.7426(6) 0.8410(6) 0.0821 Uani
loop_
_atom_site_aniso_label
_atom_site_aniso_U_11
_atom_site_aniso_U_22
_atom_site_aniso_U_33
_atom_site_aniso_U_23
_atom_site_aniso_U_13
_atom_site_aniso_U_12
Zn1 0.0356 0.0788 0.0275 -0.0021 -0.0087 -0.0394
Zn3 0.0244 0.0582 0.0264 -0.0108 -0.0065 -0.0129
C6 0.044 0.081 0.096 -0.051 -0.026 -0.018
C7 0.02 0.04 0.018 0.003 -0.005 -0.015
C8 0.047 0.057 0.032 -0.009 -0.017 -0.031
C10 0.021 0.036 0.064 -0.017 -0.014 -0.008
C12 0.022 0.06 0.033 -0.003 -0.012 -0.022
C13 0.031 0.068 0.034 -0.015 -0.004 -0.028
C14 0.053 0.104 0.04 -0.02 -0.016 -0.049
C15 0.025 0.067 0.028 -0.021 -0.001 -0.018
C24 0.054 0.055 0.069 -0.022 -0.026 -0.022
C25 0.095 0.065 0.064 -0.005 -0.05 -0.035
C26 0.084 0.049 0.041 -0.005 -0.031 -0.018
C27 0.083 0.073 0.076 -0.024 -0.048 -0.018
C28 0.064 0.065 0.06 -0.017 -0.045 0.003
C29 0.038 0.078 0.069 -0.032 -0.024 -0.004
C30 0.026 0.064 0.054 -0.033 -0.015 0
C31 0.061 0.051 0.072 -0.01 -0.034 -0.02
C34 0.057 0.25 0.065 0.008 -0.031 -0.025
N6 0.04 0.076 0.11 -0.064 -0.035 -0.001
N7 0.025 0.065 0.036 -0.021 -0.01 -0.01
N9 0.027 0.034 0.057 0.003 -0.015 -0.016
N13 0.042 0.075 0.019 -0.005 -0.008 -0.037
N14 0.03 0.053 0.026 -0.009 -0.011 -0.02
N15 0.061 0.169 0.022 -0.032 0.006 -0.083
O5 0.033 0.079 0.045 -0.027 -0.016 -0.016
O6 0.052 0.089 0.052 -0.037 -0.006 -0.022
O7 0.045 0.049 0.05 -0.008 -0.025 -0.016
O8 0.053 0.06 0.061 -0.021 -0.031 -0.012
O12 0.039 0.101 0.084 0.012 -0.019 -0.025
Zn15 0.0373 0.0429 0.0334 -0.0016 -0.0166 -0.0235
N32 0.034 0.066 0.032 -0.021 -0.012 -0.018
O26 0.046 0.135 0.038 -0.02 -0.016 -0.014
O28 0.055 0.143 0.046 -0.014 0.004 -0.063
C36 0.112 0.165 0.045 0.002 0.001 -0.104
C37 0.06 0.171 0.066 0.026 -0.024 -0.05
C39 0.082 0.117 0.057 0.027 -0.033 -0.059
O13 0.06 0.106 0.037 0.001 -0.02 -0.039
O14 0.099 0.111 0.064 0.005 -0.035 -0.064
Zn2 0.0282 0.0448 0.05 -0.0048 -0.0082 -0.0217
C1 0.022 0.093 0.036 -0.006 -0.008 -0.012
C2 0.02 0.034 0.071 0.016 -0.003 -0.01
C3 0.037 0.109 0.15 -0.079 -0.046 0.001
C4 0.031 0.16 0.152 -0.124 -0.03 0.022
C5 0.02 0.058 0.076 0.008 -0.003 -0.023
C11 0.054 0.072 0.045 -0.018 -0.009 -0.041
C16 0.044 0.097 0.036 -0.021 -0.003 -0.048
C17 0.047 0.166 0.037 -0.035 0.01 -0.042
C18 0.095 0.093 0.075 0 -0.053 -0.018
C19 0.051 0.105 0.047 -0.025 0.001 -0.058
C20 0.099 0.055 0.027 -0.002 0.003 -0.01
C21 0.103 0.115 0.04 0.014 -0.005 -0.082
C22 0.051 0.109 0.067 -0.038 -0.006 -0.048
C23 0.04 0.097 0.039 -0.001 -0.021 -0.03
N1 0.034 0.066 0.032 -0.021 -0.012 -0.018
N2 0.012 0.084 0.029 -0.009 -0.005 -0.007
N3 0.028 0.05 0.085 -0.022 -0.023 -0.021
N4 0.032 0.035 0.071 0.002 -0.015 -0.024
N5 0.054 0.075 0.05 0.049 -0.017 -0.035
N11 0.059 0.141 0.035 -0.023 -0.008 -0.069
N12 0.038 0.049 0.037 -0.014 -0.01 -0.026
O3 0.043 0.076 0.091 -0.027 -0.017 -0.033
O4 0.078 0.075 0.09 -0.016 -0.036 -0.034
O11 0.058 0.083 0.066 -0.026 -0.006 -0.029
C48 0.051 0.058 0.064 -0.013 -0.019 -0.028
N23 0.037 0.062 0.044 0.01 -0.026 -0.033
N25 0.054 0.067 0.143 -0.059 -0.064 0.015
Zn12 0.0356 0.0788 0.0275 -0.0021 -0.0087 -0.0394
O1 0.046 0.135 0.038 -0.02 -0.016 -0.014
O2 0.055 0.143 0.046 -0.014 0.004 -0.063
Zn4 0.0373 0.0429 0.0334 -0.0016 -0.0166 -0.0235
C9 0.051 0.058 0.064 -0.013 -0.019 -0.028
C32 0.112 0.165 0.045 0.002 0.001 -0.104
C33 0.06 0.171 0.066 0.026 -0.024 -0.05
C35 0.082 0.117 0.057 0.027 -0.033 -0.059
N8 0.037 0.062 0.044 0.01 -0.026 -0.033
N10 0.054 0.067 0.143 -0.059 -0.064 0.015
O9 0.06 0.106 0.037 0.001 -0.02 -0.039
O10 0.099 0.111 0.064 0.005 -0.035 -0.064
Zn6 0.0282 0.0448 0.05 -0.0048 -0.0082 -0.0217
C40 0.022 0.093 0.036 -0.006 -0.008 -0.012
C41 0.02 0.034 0.071 0.016 -0.003 -0.01
C42 0.037 0.109 0.15 -0.079 -0.046 0.001
C43 0.031 0.16 0.152 -0.124 -0.03 0.022
C44 0.02 0.058 0.076 0.008 -0.003 -0.023
C50 0.054 0.072 0.045 -0.018 -0.009 -0.041
C55 0.044 0.097 0.036 -0.021 -0.003 -0.048
C56 0.047 0.166 0.037 -0.035 0.01 -0.042
C57 0.095 0.093 0.075 0 -0.053 -0.018
C58 0.051 0.105 0.047 -0.025 0.001 -0.058
C59 0.099 0.055 0.027 -0.002 0.003 -0.01
C60 0.103 0.115 0.04 0.014 -0.005 -0.082
C61 0.051 0.109 0.067 -0.038 -0.006 -0.048
C62 0.04 0.097 0.039 -0.001 -0.021 -0.03
N17 0.012 0.084 0.029 -0.009 -0.005 -0.007
N18 0.028 0.05 0.085 -0.022 -0.023 -0.021
N19 0.032 0.035 0.071 0.002 -0.015 -0.024
N20 0.054 0.075 0.05 0.049 -0.017 -0.035
N26 0.059 0.141 0.035 -0.023 -0.008 -0.069
N27 0.038 0.049 0.037 -0.014 -0.01 -0.026
O17 0.043 0.076 0.091 -0.027 -0.017 -0.033
O18 0.078 0.075 0.09 -0.016 -0.036 -0.034
O23 0.058 0.083 0.066 -0.026 -0.006 -0.029
O30 0.045 0.049 0.05 -0.008 -0.025 -0.016
O32 0.053 0.06 0.061 -0.021 -0.031 -0.012
C38 0.057 0.25 0.065 0.008 -0.031 -0.025
Zn7 0.0244 0.0582 0.0264 -0.0108 -0.0065 -0.0129
C45 0.044 0.081 0.096 -0.051 -0.026 -0.018
C46 0.02 0.04 0.018 0.003 -0.005 -0.015
C47 0.047 0.057 0.032 -0.009 -0.017 -0.031
C49 0.021 0.036 0.064 -0.017 -0.014 -0.008
C51 0.022 0.06 0.033 -0.003 -0.012 -0.022
C52 0.031 0.068 0.034 -0.015 -0.004 -0.028
C53 0.053 0.104 0.04 -0.02 -0.016 -0.049
C54 0.025 0.067 0.028 -0.021 -0.001 -0.018
C63 0.054 0.055 0.069 -0.022 -0.026 -0.022
C64 0.095 0.065 0.064 -0.005 -0.05 -0.035
C65 0.084 0.049 0.041 -0.005 -0.031 -0.018
C66 0.083 0.073 0.076 -0.024 -0.048 -0.018
C67 0.064 0.065 0.06 -0.017 -0.045 0.003
C68 0.038 0.078 0.069 -0.032 -0.024 -0.004
C69 0.026 0.064 0.054 -0.033 -0.015 0
C70 0.061 0.051 0.072 -0.01 -0.034 -0.02
N21 0.04 0.076 0.11 -0.064 -0.035 -0.001
N22 0.025 0.065 0.036 -0.021 -0.01 -0.01
N24 0.027 0.034 0.057 0.003 -0.015 -0.016
N28 0.042 0.075 0.019 -0.005 -0.008 -0.037
N29 0.03 0.053 0.026 -0.009 -0.011 -0.02
N30 0.061 0.169 0.022 -0.032 0.006 -0.083
O19 0.033 0.079 0.045 -0.027 -0.016 -0.016
O20 0.052 0.089 0.052 -0.037 -0.006 -0.022
O24 0.039 0.101 0.084 0.012 -0.019 -0.025
loop_
_geom_bond_atom_site_label_1
_geom_bond_atom_site_label_2
_geom_bond_site_symmetry_1
_geom_bond_site_symmetry_2
Zn1 N13 1_555 1_555
C6 H2 1_555 1_555
C7 C8 1_555 1_555
C10 H3 1_555 1_555
C12 C13 1_555 1_555
C13 C14 1_555 1_555
C15 H5 1_555 1_555
C24 H16 1_555 1_555
C25 C24 1_555 1_555
H17 C25 1_555 1_555
H18 C25 1_555 1_555
C26 C25 1_555 1_555
H19 C26 1_555 1_555
H20 C26 1_555 1_555
C27 C26 1_555 1_555
H21 C27 1_555 1_555
C28 C27 1_555 1_555
H22 C28 1_555 1_555
H23 C28 1_555 1_555
C29 C24 1_555 1_555
H24 C29 1_555 1_555
H25 C29 1_555 1_555
C30 C24 1_555 1_555
C31 C27 1_555 1_555
H29 C34 1_555 1_555
H30 C34 1_555 1_555
N6 C6 1_555 1_555
N7 Zn3 1_555 1_555
N13 C13 1_555 1_555
N14 Zn3 1_555 1_555
N15 C14 1_555 1_555
H36 N15 1_555 1_555
O5 Zn3 1_555 1_555
O6 C30 1_555 1_555
O7 C31 1_555 1_555
O8 C31 1_555 1_555
O12 Zn1 1_555 1_555
Zn15 O7 1_555 1_555
N32 Zn1 1_555 1_555
O26 Zn1 1_555 1_555
O28 Zn1 1_555 1_555
C6 N7 1_555 1_555
C7 N7 1_555 1_555
C7 N9 1_555 1_555
C10 N9 1_555 1_555
C12 N14 1_555 1_555
C15 N13 1_555 1_555
C15 N14 1_555 1_555
C28 C29 1_555 1_555
C30 O5 1_555 1_555
O8 Zn15 1_555 1_555
C36 H39 1_555 1_555
H40 C37 1_555 1_555
H41 C37 1_555 1_555
C39 C36 1_555 1_555
O13 C39 1_555 1_555
O14 C39 1_555 1_555
Zn15 O13 1_555 1_555
C36 C37 1_555 1_555
O14 Zn15 1_555 1_555
Zn2 N4 1_555 1_555
C2 C3 1_555 1_555
C3 C4 1_555 1_555
C4 N1 1_555 1_555
C5 N3 1_555 1_555
C11 H4 1_555 1_555
C16 H6 1_555 1_555
C17 C16 1_555 1_555
C18 C17 1_555 1_555
H10 C18 1_555 1_555
C19 C18 1_555 1_555
H11 C19 1_555 1_555
C20 C19 1_555 1_555
H12 C20 1_555 1_555
H13 C20 1_555 1_555
C21 C16 1_555 1_555
H14 C21 1_555 1_555
H15 C21 1_555 1_555
C22 C16 1_555 1_555
C23 C19 1_555 1_555
N1 C1 1_555 1_555
N2 C1 1_555 1_555
N3 C3 1_555 1_555
N4 C2 1_555 1_555
N5 C4 1_555 1_555
H31 N5 1_555 1_555
H32 N5 1_555 1_555
N11 C11 1_555 1_555
N12 Zn2 1_555 1_555
O3 Zn2 1_555 1_555
O4 C22 1_555 1_555
H37 O11 1_555 1_555
H38 O11 1_555 1_555
Zn15 N3 1_555 1_555
N23 Zn15 1_555 1_555
N25 C48 1_555 1_555
H71 N25 1_555 1_555
H72 N25 1_555 1_555
Zn12 N1 1_555 1_555
C2 N2 1_555 1_555
C5 N4 1_555 1_555
C11 N12 1_555 1_555
C20 C21 1_555 1_555
C22 O3 1_555 1_555
C5 H82 1_555 1_555
Zn12 O1 1_555 1_555
O2 Zn12 1_555 1_555
Zn4 N8 1_555 1_555
C32 H26 1_555 1_555
C33 C32 1_555 1_555
H27 C33 1_555 1_555
H28 C33 1_555 1_555
C35 C32 1_555 1_555
N10 C9 1_555 1_555
H33 N10 1_555 1_555
H34 N10 1_555 1_555
O9 Zn4 1_555 1_555
O10 Zn4 1_555 1_555
Zn6 N19 1_555 1_555
C41 C42 1_555 1_555
C42 C43 1_555 1_555
C43 N32 1_555 1_555
C44 N18 1_555 1_555
C50 H47 1_555 1_555
C55 H49 1_555 1_555
C56 C55 1_555 1_555
C57 C56 1_555 1_555
H53 C57 1_555 1_555
C58 C57 1_555 1_555
H54 C58 1_555 1_555
C59 C58 1_555 1_555
H55 C59 1_555 1_555
H56 C59 1_555 1_555
C60 C55 1_555 1_555
H57 C60 1_555 1_555
H58 C60 1_555 1_555
C61 C55 1_555 1_555
C62 C58 1_555 1_555
N32 C40 1_555 1_555
N17 C40 1_555 1_555
N18 Zn4 1_555 1_555
N19 C41 1_555 1_555
N20 C43 1_555 1_555
H69 N20 1_555 1_555
H70 N20 1_555 1_555
N26 C50 1_555 1_555
N27 Zn6 1_555 1_555
O17 Zn6 1_555 1_555
O18 C61 1_555 1_555
H75 O23 1_555 1_555
H76 O23 1_555 1_555
O30 Zn4 1_555 1_555
O32 Zn4 1_555 1_555
C35 O9 1_555 1_555
C35 O10 1_555 1_555
C41 N17 1_555 1_555
C42 N18 1_555 1_555
C44 N19 1_555 1_555
C50 N27 1_555 1_555
C59 C60 1_555 1_555
C61 O17 1_555 1_555
C44 H79 1_555 1_555
H42 C38 1_555 1_555
H43 C38 1_555 1_555
Zn12 N28 1_555 1_555
C45 H45 1_555 1_555
C46 C47 1_555 1_555
C49 H46 1_555 1_555
C51 C52 1_555 1_555
C52 C53 1_555 1_555
C54 H48 1_555 1_555
C63 H59 1_555 1_555
C64 C63 1_555 1_555
H60 C64 1_555 1_555
H61 C64 1_555 1_555
C65 C64 1_555 1_555
H62 C65 1_555 1_555
H63 C65 1_555 1_555
C66 C65 1_555 1_555
H64 C66 1_555 1_555
C67 C66 1_555 1_555
H65 C67 1_555 1_555
H66 C67 1_555 1_555
C68 C63 1_555 1_555
H67 C68 1_555 1_555
H68 C68 1_555 1_555
C69 C63 1_555 1_555
C70 C66 1_555 1_555
N21 C45 1_555 1_555
N22 Zn7 1_555 1_555
N28 C52 1_555 1_555
N29 Zn7 1_555 1_555
N30 C53 1_555 1_555
H74 N30 1_555 1_555
O19 Zn7 1_555 1_555
O20 C69 1_555 1_555
O30 C70 1_555 1_555
O32 C70 1_555 1_555
O24 Zn12 1_555 1_555
C45 N22 1_555 1_555
C46 N22 1_555 1_555
C46 N24 1_555 1_555
C49 N24 1_555 1_555
C51 N29 1_555 1_555
C54 N28 1_555 1_555
C54 N29 1_555 1_555
C67 C68 1_555 1_555
C69 O19 1_555 1_555

#END
