
###############################################################################
#
# This file contains modified crystal structure data generated from the
# MOF subset of the Cambridge Structural Database (CSD) v543 
# hosted by the Cambridge Crystallographic Data Centre (CCDC).
#
# This work is licensed under the Creative Commons
# Attribution-NonCommercial-ShareAlike 4.0 International License.
# To view a copy of this license, visit
# http://creativecommons.org/licenses/by-nc-sa/4.0/
# or send a letter to
# Creative Commons, PO Box 1866, Mountain View, CA 94042, USA.
#
# CIF created using the CSD Python API on 29 September 2022
# The structure has been converted into the P1 space group
# The structure has a 3D framework
# The original CSD entry ANUGUM is in the monoclinic crystal system
# The framework has been calculated to contain at least 10.0% void space
# The void calculation uses a probe of radius 1.32A, grid spacing 0.4
#
###############################################################################

data_ANUGUM
_chemical_formula_moiety         '(C126 H54 O40 Zn6)n'
_symmetry_cell_setting           triclinic
_symmetry_space_group_name_H-M   'P 1'
_symmetry_Int_Tables_number      1
_space_group_name_Hall           'P 1'
loop_
_symmetry_equiv_pos_site_id
_symmetry_equiv_pos_as_xyz
1 x,y,z
_cell_length_a                   11.8586(2)
_cell_length_b                   30.7710(6)
_cell_length_c                   17.4516(12)
_cell_angle_alpha                90
_cell_angle_beta                 90.983(6)
_cell_angle_gamma                90
_cell_volume                     6367.17
loop_
_atom_site_label
_atom_site_type_symbol
_atom_site_fract_x
_atom_site_fract_y
_atom_site_fract_z
Zn3 Zn 0.08227(4) 0.065020(13) 0.67142(3)
O3 O 0.0630(3) 0.03563(8) 0.84565(16)
O4 O 0.1584(3) 0.02471(8) 0.74028(15)
C9 C 0.1359(3) 0.01711(10) 0.8083(2)
Zn4 Zn 0.91773(4) 0.065020(13) 0.82858(3)
O8 O 0.1367(2) 0.05513(8) 0.57048(15)
O11 O 0.0499(3) 0.12373(8) 0.69641(18)
O12 O 0.9370(3) 0.03563(8) 0.65435(16)
O14 O 0.8416(3) 0.02471(8) 0.75972(15)
C25 C 0.8641(3) 0.01711(10) 0.6917(2)
O1 O 0.1367(2) 0.94487(8) 0.07048(15)
O5 O 0.2587(3) 0.89194(12) 0.06850(19)
C11 C 0.2108(3) 0.92268(14) 0.0383(2)
Zn8 Zn 0.08227(4) 0.934980(13) 0.17142(3)
O2 O 0.4501(3) 0.62373(8) 0.80359(18)
C1 C 0.4239(3) 0.89879(9) 0.7951(2)
C2 C 0.2036(3) 0.98115(9) 0.84700(19)
C3 C 0.2823(3) 0.95817(9) 0.8059(2)
H1 H 0.2974 0.9661 0.7557
C4 C 0.1795(3) 0.96925(11) 0.9233(2)
H2 H 0.1259 0.9847 0.9504
C5 C 0.5000 0.92010(14) 0.7500
H3 H 0.5000 0.9503 0.7500
C6 C 0.3393(3) 0.92313(10) 0.8392(2)
C7 C 0.4240(3) 0.85280(10) 0.7940(2)
H4 H 0.3725 0.8375 0.8232
C8 C 0.3142(3) 0.91135(11) 0.9140(2)
H5 H 0.3500 0.8874 0.9360
C10 C 0.5000 0.78160(14) 0.7500
C12 C 0.2349(3) 0.93504(9) 0.9574(2)
C13 C 0.5000 0.83050(14) 0.7500
C14 C 0.5492(4) 0.75806(13) 0.6916(3)
H6 H 0.5859 0.7728 0.6528
C15 C 0.5000 0.64190(15) 0.7500
C16 C 0.5000 0.69010(16) 0.7500
C17 C 0.5451(5) 0.71394(12) 0.6898(2)
H7 H 0.5730 0.6993 0.6475
Zn5 Zn 0.58227(4) 0.565020(13) 0.67142(3)
Zn6 Zn 0.41773(4) 0.565020(13) 0.82858(3)
Zn7 Zn 0.91773(4) 0.934980(13) 0.32858(3)
O6 O 0.8633(2) 0.94487(8) 0.42952(15)
O9 O 0.5499(3) 0.62373(8) 0.69641(18)
O16 O 0.7413(3) 0.89194(12) 0.43150(19)
C18 C 0.5761(3) 0.89879(9) 0.7049(2)
C19 C 0.7964(3) 0.98115(9) 0.65300(19)
C20 C 0.7177(3) 0.95817(9) 0.6941(2)
H8 H 0.7026 0.9661 0.7443
C21 C 0.8205(3) 0.96925(11) 0.5767(2)
H9 H 0.8741 0.9847 0.5496
C22 C 0.6607(3) 0.92313(10) 0.6608(2)
C23 C 0.5760(3) 0.85280(10) 0.7060(2)
H10 H 0.6275 0.8375 0.6768
C24 C 0.6858(3) 0.91135(11) 0.5860(2)
H11 H 0.6500 0.8874 0.5640
C26 C 0.7892(3) 0.92268(14) 0.4617(2)
C27 C 0.7651(3) 0.93504(9) 0.5426(2)
C28 C 0.4508(4) 0.75806(13) 0.8084(3)
H12 H 0.4141 0.7728 0.8472
C29 C 0.4549(5) 0.71394(12) 0.8102(2)
H13 H 0.4270 0.6993 0.8525
O7 O 0.8633(2) 0.05513(8) 0.92952(15)
O10 O 0.9501(3) 0.12373(8) 0.80359(18)
C5_2 C 0.0000 0.42010(14) 0.7500
H3_2 H 0.0000 0.4503 0.7500
C10_2 C 0.0000 0.28160(14) 0.7500
C13_2 C 0.0000 0.33050(14) 0.7500
C14_2 C 0.0492(4) 0.25806(13) 0.6916(3)
H6_2 H 0.0859 0.2728 0.6528
C15_2 C 0.0000 0.14190(15) 0.7500
C16_2 C 0.0000 0.19010(16) 0.7500
C17_2 C 0.0451(5) 0.21394(12) 0.6898(2)
H7_2 H 0.0730 0.1993 0.6475
Zn7_2 Zn 0.41773(4) 0.434980(13) 0.32858(3)
O6_2 O 0.3633(2) 0.44487(8) 0.42952(15)
O12_2 O 0.4370(3) 0.53563(8) 0.65435(16)
O14_2 O 0.3416(3) 0.52471(8) 0.75972(15)
O16_2 O 0.2413(3) 0.39194(12) 0.43150(19)
C18_2 C 0.0761(3) 0.39879(9) 0.7049(2)
C19_2 C 0.2964(3) 0.48115(9) 0.65300(19)
C20_2 C 0.2177(3) 0.45817(9) 0.6941(2)
H8_2 H 0.2026 0.4661 0.7443
C21_2 C 0.3205(3) 0.46925(11) 0.5767(2)
H9_2 H 0.3741 0.4847 0.5496
C22_2 C 0.1607(3) 0.42313(10) 0.6608(2)
C23_2 C 0.0760(3) 0.35280(10) 0.7060(2)
H10_2 H 0.1275 0.3375 0.6768
C24_2 C 0.1858(3) 0.41135(11) 0.5860(2)
H11_2 H 0.1500 0.3874 0.5640
C25_2 C 0.3641(3) 0.51711(10) 0.6917(2)
C26_2 C 0.2892(3) 0.42268(14) 0.4617(2)
C27_2 C 0.2651(3) 0.43504(9) 0.5426(2)
O1_2 O 0.6367(2) 0.44487(8) 0.07048(15)
O5_2 O 0.7587(3) 0.39194(12) 0.06850(19)
C11_2 C 0.7108(3) 0.42268(14) 0.0383(2)
Zn8_2 Zn 0.58227(4) 0.434980(13) 0.17142(3)
O3_2 O 0.5630(3) 0.53563(8) 0.84565(16)
O4_2 O 0.6584(3) 0.52471(8) 0.74028(15)
C1_2 C 0.9239(3) 0.39879(9) 0.7951(2)
C2_2 C 0.7036(3) 0.48115(9) 0.84700(19)
C3_2 C 0.7823(3) 0.45817(9) 0.8059(2)
H1_2 H 0.7974 0.4661 0.7557
C4_2 C 0.6795(3) 0.46925(11) 0.9233(2)
H2_2 H 0.6259 0.4847 0.9504
C5_3 C 1.0000 0.42010(14) 0.7500
H3_3 H 1.0000 0.4503 0.7500
C6_2 C 0.8393(3) 0.42313(10) 0.8392(2)
C7_2 C 0.9240(3) 0.35280(10) 0.7940(2)
H4_2 H 0.8725 0.3375 0.8232
C8_2 C 0.8142(3) 0.41135(11) 0.9140(2)
H5_2 H 0.8500 0.3874 0.9360
C9_2 C 0.6359(3) 0.51711(10) 0.8083(2)
C10_3 C 1.0000 0.28160(14) 0.7500
C12_2 C 0.7349(3) 0.43504(9) 0.9574(2)
C13_3 C 1.0000 0.33050(14) 0.7500
C15_3 C 1.0000 0.14190(15) 0.7500
C16_3 C 1.0000 0.19010(16) 0.7500
O7_2 O 0.3633(2) 0.55513(8) 0.92952(15)
O8_2 O 0.6367(2) 0.55513(8) 0.57048(15)
C28_2 C 0.9508(4) 0.25806(13) 0.8084(3)
H12_2 H 0.9141 0.2728 0.8472
C29_2 C 0.9549(5) 0.21394(12) 0.8102(2)
H13_2 H 0.9270 0.1993 0.8525
O10_2 O 0.0499(3) 0.87627(8) 0.19641(18)
O13 O 0.0630(3) 0.96437(8) 0.34565(16)
O15 O 0.1584(3) 0.97529(8) 0.24028(15)
O2_2 O 0.5499(3) 0.37627(8) 0.19641(18)
C1_3 C 0.5761(3) 0.10121(9) 0.2049(2)
C2_3 C 0.7964(3) 0.01885(9) 0.15300(19)
C3_3 C 0.7177(3) 0.04183(9) 0.1941(2)
H1_3 H 0.7026 0.0339 0.2443
C4_3 C 0.8205(3) 0.03075(11) 0.0767(2)
H2_3 H 0.8741 0.0153 0.0496
C5_4 C 0.5000 0.07990(14) 0.2500
H3_4 H 0.5000 0.0497 0.2500
C6_3 C 0.6607(3) 0.07687(10) 0.1608(2)
C7_3 C 0.5760(3) 0.14720(10) 0.2060(2)
H4_3 H 0.6275 0.1625 0.1768
C8_3 C 0.6858(3) 0.08865(11) 0.0860(2)
H5_3 H 0.6500 0.1126 0.0640
C10_4 C 0.5000 0.21840(14) 0.2500
C12_3 C 0.7651(3) 0.06496(9) 0.0426(2)
C13_4 C 0.5000 0.16950(14) 0.2500
C14_3 C 0.4508(4) 0.24194(13) 0.3084(3)
H6_3 H 0.4141 0.2272 0.3472
C15_4 C 0.5000 0.35810(15) 0.2500
C16_4 C 0.5000 0.30990(16) 0.2500
C17_3 C 0.4549(5) 0.28606(12) 0.3102(2)
H7_3 H 0.4270 0.3007 0.3525
O9_2 O 0.4501(3) 0.37627(8) 0.30359(18)
O16_3 O 0.2587(3) 0.10806(12) 0.56850(19)
C18_3 C 0.4239(3) 0.10121(9) 0.2951(2)
C19_3 C 0.2036(3) 0.01885(9) 0.34700(19)
C20_3 C 0.2823(3) 0.04183(9) 0.3059(2)
H8_3 H 0.2974 0.0339 0.2557
C21_3 C 0.1795(3) 0.03075(11) 0.4233(2)
H9_3 H 0.1259 0.0153 0.4504
C22_3 C 0.3393(3) 0.07687(10) 0.3392(2)
C23_3 C 0.4240(3) 0.14720(10) 0.2940(2)
H10_3 H 0.3725 0.1625 0.3232
C24_3 C 0.3142(3) 0.08865(11) 0.4140(2)
H11_3 H 0.3500 0.1126 0.4360
C26_3 C 0.2108(3) 0.07732(14) 0.5383(2)
C27_3 C 0.2349(3) 0.06496(9) 0.4574(2)
C28_3 C 0.5492(4) 0.24194(13) 0.1916(3)
H12_3 H 0.5859 0.2272 0.1528
C29_3 C 0.5451(5) 0.28606(12) 0.1898(2)
H13_3 H 0.5730 0.3007 0.1475
O5_3 O 0.7413(3) 0.10806(12) 0.93150(19)
C11_3 C 0.7892(3) 0.07732(14) 0.9617(2)
O3_3 O 0.9370(3) 0.96437(8) 0.15435(16)
O4_3 O 0.8416(3) 0.97529(8) 0.25972(15)
C9_3 C 0.8641(3) 0.98289(10) 0.1917(2)
O11_2 O 0.9501(3) 0.87627(8) 0.30359(18)
C25_3 C 0.1359(3) 0.98289(10) 0.3083(2)
O3_4 O 0.4370(3) 0.46437(8) 0.15435(16)
O4_4 O 0.3416(3) 0.47529(8) 0.25972(15)
C1_4 C 0.0761(3) 0.60121(9) 0.2049(2)
C2_4 C 0.2964(3) 0.51885(9) 0.15300(19)
C3_4 C 0.2177(3) 0.54183(9) 0.1941(2)
H1_4 H 0.2026 0.5339 0.2443
C4_4 C 0.3205(3) 0.53075(11) 0.0767(2)
H2_4 H 0.3741 0.5153 0.0496
C5_5 C 0.0000 0.57990(14) 0.2500
H3_5 H 0.0000 0.5497 0.2500
C6_4 C 0.1607(3) 0.57687(10) 0.1608(2)
C7_4 C 0.0760(3) 0.64720(10) 0.2060(2)
H4_4 H 0.1275 0.6625 0.1768
C8_4 C 0.1858(3) 0.58865(11) 0.0860(2)
H5_4 H 0.1500 0.6126 0.0640
C9_4 C 0.3641(3) 0.48289(10) 0.1917(2)
C10_5 C -0.0000 0.71840(14) 0.2500
C12_4 C 0.2651(3) 0.56496(9) 0.0426(2)
C13_5 C -0.0000 0.66950(14) 0.2500
C15_5 C 0.0000 0.85810(15) 0.2500
C16_5 C 0.0000 0.80990(16) 0.2500
O13_2 O 0.5630(3) 0.46437(8) 0.34565(16)
O15_2 O 0.6584(3) 0.47529(8) 0.24028(15)
C28_4 C 0.0492(4) 0.74194(13) 0.1916(3)
H12_4 H 0.0859 0.7272 0.1528
C29_4 C 0.0451(5) 0.78606(12) 0.1898(2)
H13_4 H 0.0730 0.8007 0.1475
O5_4 O 0.2413(3) 0.60806(12) 0.93150(19)
C11_4 C 0.2892(3) 0.57732(14) 0.9617(2)
C5_6 C 1.0000 0.57990(14) 0.2500
H3_6 H 1.0000 0.5497 0.2500
C10_6 C 1.0000 0.71840(14) 0.2500
C13_6 C 1.0000 0.66950(14) 0.2500
C14_4 C 0.9508(4) 0.74194(13) 0.3084(3)
H6_4 H 0.9141 0.7272 0.3472
C15_6 C 1.0000 0.85810(15) 0.2500
C16_6 C 1.0000 0.80990(16) 0.2500
C17_4 C 0.9549(5) 0.78606(12) 0.3102(2)
H7_4 H 0.9270 0.8007 0.3525
O16_4 O 0.7587(3) 0.60806(12) 0.56850(19)
C18_4 C 0.9239(3) 0.60121(9) 0.2951(2)
C19_4 C 0.7036(3) 0.51885(9) 0.34700(19)
C20_4 C 0.7823(3) 0.54183(9) 0.3059(2)
H8_4 H 0.7974 0.5339 0.2557
C21_4 C 0.6795(3) 0.53075(11) 0.4233(2)
H9_4 H 0.6259 0.5153 0.4504
C22_4 C 0.8393(3) 0.57687(10) 0.3392(2)
C23_4 C 0.9240(3) 0.64720(10) 0.2940(2)
H10_4 H 0.8725 0.6625 0.3232
C24_4 C 0.8142(3) 0.58865(11) 0.4140(2)
H11_4 H 0.8500 0.6126 0.4360
C25_4 C 0.6359(3) 0.48289(10) 0.3083(2)
C26_4 C 0.7108(3) 0.57732(14) 0.5383(2)
C27_4 C 0.7349(3) 0.56496(9) 0.4574(2)
loop_
_geom_bond_atom_site_label_1
_geom_bond_atom_site_label_2
_geom_bond_site_symmetry_1
_geom_bond_site_symmetry_2
Zn3 O4 1_555 1_555
O3 C9 1_555 1_555
O4 C9 1_555 1_555
Zn4 O14 1_555 1_555
O8 Zn3 1_555 1_555
O11 Zn3 1_555 1_555
O12 C25 1_555 1_555
O14 C25 1_555 1_555
O1 C11 1_555 1_555
O5 C11 1_555 1_555
Zn8 O1 1_555 1_555
O2 C15 1_555 1_555
C1 C5 1_555 1_555
C2 C3 1_555 1_555
C3 H1 1_555 1_555
C4 C2 1_555 1_555
H2 C4 1_555 1_555
C5 H3 1_555 1_555
C6 C1 1_555 1_555
C7 C1 1_555 1_555
H4 C7 1_555 1_555
C8 C6 1_555 1_555
H5 C8 1_555 1_555
C10 C13 1_555 1_555
C12 C4 1_555 1_555
C13 C7 1_555 1_555
C14 C10 1_555 1_555
H6 C14 1_555 1_555
C15 C16 1_555 1_555
C16 C17 1_555 1_555
C17 C14 1_555 1_555
H7 C17 1_555 1_555
Zn5 O9 1_555 1_555
Zn6 O2 1_555 1_555
Zn7 O6 1_555 1_555
O6 C26 1_555 1_555
O9 C15 1_555 1_555
O16 C26 1_555 1_555
C18 C5 1_555 1_555
C19 C20 1_555 1_555
C20 H8 1_555 1_555
C21 C19 1_555 1_555
H9 C21 1_555 1_555
C22 C18 1_555 1_555
C23 C13 1_555 1_555
H10 C23 1_555 1_555
C24 C22 1_555 1_555
H11 C24 1_555 1_555
C26 C27 1_555 1_555
C27 C21 1_555 1_555
C28 C10 1_555 1_555
H12 C28 1_555 1_555
C29 C16 1_555 1_555
H13 C29 1_555 1_555
C3 C6 1_555 1_555
C8 C12 1_555 1_555
C18 C23 1_555 1_555
C20 C22 1_555 1_555
C24 C27 1_555 1_555
C28 C29 1_555 1_555
O7 Zn4 1_555 1_555
O10 Zn4 1_555 1_555
C5_2 H3_2 1_555 1_555
C10_2 C13_2 1_555 1_555
C14_2 C10_2 1_555 1_555
H6_2 C14_2 1_555 1_555
C15_2 C16_2 1_555 1_555
C16_2 C17_2 1_555 1_555
C17_2 C14_2 1_555 1_555
H7_2 C17_2 1_555 1_555
Zn5 O12_2 1_555 1_555
Zn6 O14_2 1_555 1_555
Zn7_2 O6_2 1_555 1_555
O6_2 C26_2 1_555 1_555
O11 C15_2 1_555 1_555
O12_2 C25_2 1_555 1_555
O14_2 C25_2 1_555 1_555
O16_2 C26_2 1_555 1_555
C18_2 C5_2 1_555 1_555
C19_2 C20_2 1_555 1_555
C20_2 H8_2 1_555 1_555
C21_2 C19_2 1_555 1_555
H9_2 C21_2 1_555 1_555
C22_2 C18_2 1_555 1_555
C23_2 C13_2 1_555 1_555
H10_2 C23_2 1_555 1_555
C24_2 C22_2 1_555 1_555
H11_2 C24_2 1_555 1_555
C25_2 C19_2 1_555 1_555
C26_2 C27_2 1_555 1_555
C27_2 C21_2 1_555 1_555
C18_2 C23_2 1_555 1_555
C20_2 C22_2 1_555 1_555
C24_2 C27_2 1_555 1_555
O1_2 C11_2 1_555 1_555
O5_2 C11_2 1_555 1_555
Zn8_2 O1_2 1_555 1_555
Zn5 O4_2 1_555 1_555
O10 C15_3 1_555 1_555
O3_2 C9_2 1_555 1_555
O4_2 C9_2 1_555 1_555
C1_2 C5_3 1_555 1_555
C2_2 C3_2 1_555 1_555
C3_2 H1_2 1_555 1_555
C4_2 C2_2 1_555 1_555
H2_2 C4_2 1_555 1_555
C5_3 H3_3 1_555 1_555
C6_2 C1_2 1_555 1_555
C7_2 C1_2 1_555 1_555
H4_2 C7_2 1_555 1_555
C8_2 C6_2 1_555 1_555
H5_2 C8_2 1_555 1_555
C9_2 C2_2 1_555 1_555
C10_3 C13_3 1_555 1_555
C12_2 C4_2 1_555 1_555
C13_3 C7_2 1_555 1_555
C15_3 C16_3 1_555 1_555
Zn6 O3_2 1_555 1_555
O7_2 Zn6 1_555 1_555
O8_2 Zn5 1_555 1_555
C28_2 C10_3 1_555 1_555
H12_2 C28_2 1_555 1_555
C29_2 C16_3 1_555 1_555
H13_2 C29_2 1_555 1_555
C3_2 C6_2 1_555 1_555
C8_2 C12_2 1_555 1_555
C28_2 C29_2 1_555 1_555
O10_2 Zn8 1_555 1_555
O15 Zn8 1_555 1_555
O2_2 C15_4 1_555 1_555
C1_3 C5_4 1_555 1_555
C2_3 C3_3 1_555 1_555
C3_3 H1_3 1_555 1_555
C4_3 C2_3 1_555 1_555
H2_3 C4_3 1_555 1_555
C5_4 H3_4 1_555 1_555
C6_3 C1_3 1_555 1_555
C7_3 C1_3 1_555 1_555
H4_3 C7_3 1_555 1_555
C8_3 C6_3 1_555 1_555
H5_3 C8_3 1_555 1_555
C10_4 C13_4 1_555 1_555
C12_3 C4_3 1_555 1_555
C13_4 C7_3 1_555 1_555
C14_3 C10_4 1_555 1_555
H6_3 C14_3 1_555 1_555
C15_4 C16_4 1_555 1_555
C16_4 C17_3 1_555 1_555
C17_3 C14_3 1_555 1_555
H7_3 C17_3 1_555 1_555
Zn7_2 O9_2 1_555 1_555
Zn8_2 O2_2 1_555 1_555
O8 C26_3 1_555 1_555
O9_2 C15_4 1_555 1_555
O16_3 C26_3 1_555 1_555
C18_3 C5_4 1_555 1_555
C19_3 C20_3 1_555 1_555
C20_3 H8_3 1_555 1_555
C21_3 C19_3 1_555 1_555
H9_3 C21_3 1_555 1_555
C22_3 C18_3 1_555 1_555
C23_3 C13_4 1_555 1_555
H10_3 C23_3 1_555 1_555
C24_3 C22_3 1_555 1_555
H11_3 C24_3 1_555 1_555
C26_3 C27_3 1_555 1_555
C27_3 C21_3 1_555 1_555
C28_3 C10_4 1_555 1_555
H12_3 C28_3 1_555 1_555
C29_3 C16_4 1_555 1_555
H13_3 C29_3 1_555 1_555
C3_3 C6_3 1_555 1_555
C8_3 C12_3 1_555 1_555
C18_3 C23_3 1_555 1_555
C20_3 C22_3 1_555 1_555
C24_3 C27_3 1_555 1_555
C28_3 C29_3 1_555 1_555
O7 C11_3 1_555 1_555
O5_3 C11_3 1_555 1_555
Zn7 O4_3 1_555 1_555
O3_3 C9_3 1_555 1_555
O4_3 C9_3 1_555 1_555
O11_2 Zn7 1_555 1_555
O13 C25_3 1_555 1_555
O15 C25_3 1_555 1_555
Zn7_2 O4_4 1_555 1_555
O10_2 C15_5 1_555 1_555
O3_4 C9_4 1_555 1_555
O4_4 C9_4 1_555 1_555
C1_4 C5_5 1_555 1_555
C2_4 C3_4 1_555 1_555
C3_4 H1_4 1_555 1_555
C4_4 C2_4 1_555 1_555
H2_4 C4_4 1_555 1_555
C5_5 H3_5 1_555 1_555
C6_4 C1_4 1_555 1_555
C7_4 C1_4 1_555 1_555
H4_4 C7_4 1_555 1_555
C8_4 C6_4 1_555 1_555
H5_4 C8_4 1_555 1_555
C9_4 C2_4 1_555 1_555
C10_5 C13_5 1_555 1_555
C12_4 C4_4 1_555 1_555
C13_5 C7_4 1_555 1_555
C15_5 C16_5 1_555 1_555
Zn8_2 O3_4 1_555 1_555
O13_2 Zn7_2 1_555 1_555
O15_2 Zn8_2 1_555 1_555
C28_4 C10_5 1_555 1_555
H12_4 C28_4 1_555 1_555
C29_4 C16_5 1_555 1_555
H13_4 C29_4 1_555 1_555
C3_4 C6_4 1_555 1_555
C8_4 C12_4 1_555 1_555
C28_4 C29_4 1_555 1_555
O7_2 C11_4 1_555 1_555
O5_4 C11_4 1_555 1_555
C5_6 H3_6 1_555 1_555
C10_6 C13_6 1_555 1_555
C14_4 C10_6 1_555 1_555
H6_4 C14_4 1_555 1_555
C15_6 C16_6 1_555 1_555
C16_6 C17_4 1_555 1_555
C17_4 C14_4 1_555 1_555
H7_4 C17_4 1_555 1_555
O8_2 C26_4 1_555 1_555
O11_2 C15_6 1_555 1_555
O13_2 C25_4 1_555 1_555
O15_2 C25_4 1_555 1_555
O16_4 C26_4 1_555 1_555
C18_4 C5_6 1_555 1_555
C19_4 C20_4 1_555 1_555
C20_4 H8_4 1_555 1_555
C21_4 C19_4 1_555 1_555
H9_4 C21_4 1_555 1_555
C22_4 C18_4 1_555 1_555
C23_4 C13_6 1_555 1_555
H10_4 C23_4 1_555 1_555
C24_4 C22_4 1_555 1_555
H11_4 C24_4 1_555 1_555
C25_4 C19_4 1_555 1_555
C26_4 C27_4 1_555 1_555
C27_4 C21_4 1_555 1_555
C18_4 C23_4 1_555 1_555
C20_4 C22_4 1_555 1_555
C24_4 C27_4 1_555 1_555

#END
