
###############################################################################
#
# This file contains modified crystal structure data generated from the
# MOF subset of the Cambridge Structural Database (CSD) v543 
# hosted by the Cambridge Crystallographic Data Centre (CCDC).
#
# This work is licensed under the Creative Commons
# Attribution-NonCommercial-ShareAlike 4.0 International License.
# To view a copy of this license, visit
# http://creativecommons.org/licenses/by-nc-sa/4.0/
# or send a letter to
# Creative Commons, PO Box 1866, Mountain View, CA 94042, USA.
#
# CIF created using the CSD Python API on 29 September 2022
# The structure has been converted into the P1 space group
# The structure has a 3D framework
# The original CSD entry ANUGOG is in the orthorhombic crystal system
# The framework has been calculated to contain at least 10.0% void space
# The void calculation uses a probe of radius 1.32A, grid spacing 0.4
# H atom positions have been added when not included in the experimental data
# Generated hydrogen atom positions removed from atoms on special positions
#
###############################################################################

data_ANUGOG
_chemical_formula_moiety         '(C448 H352 Cu28 O148)n'
_symmetry_cell_setting           triclinic
_symmetry_space_group_name_H-M   'P 1'
_symmetry_Int_Tables_number      1
_space_group_name_Hall           'P 1'
loop_
_symmetry_equiv_pos_site_id
_symmetry_equiv_pos_as_xyz
1 x,y,z
_cell_length_a                   21.7064(7)
_cell_length_b                   29.0072(11)
_cell_length_c                   43.700(3)
_cell_angle_alpha                90
_cell_angle_beta                 90
_cell_angle_gamma                90
_cell_volume                     27515.4
loop_
_atom_site_label
_atom_site_type_symbol
_atom_site_fract_x
_atom_site_fract_y
_atom_site_fract_z
Cu1 Cu 0.75087(3) 0.22130(3) 0.023090(17)
O1 O 0.07769(16) 0.50064(15) 0.03318(9)
O2 O 0.29364(16) 0.47961(15) 0.20416(8)
O4 O 0.74881(17) 0.17038(16) 0.06285(9)
O5 O 0.29236(16) 0.43228(12) 0.24405(9)
C1 C 0.1636(2) 0.4499(2) 0.02905(14)
C2 C 0.1912(3) 0.4126(2) 0.01495(13)
C3 C 0.2440(3) 0.4530(3) 0.06526(16)
H2 H 0.2629 0.4675 0.0818
C4 C 0.2699(3) 0.4141(2) 0.05297(15)
C5 C 0.2444(3) 0.3947(3) 0.02723(13)
H3 H 0.2633 0.3694 0.0181
C6 C 0.1895(3) 0.4712(2) 0.05319(14)
H4 H 0.1715 0.4974 0.0617
C7 C 0.3261(2) 0.3940(2) 0.06987(14)
C8 C 0.3750 0.3750 0.05415(19)
H5 H 0.3750 0.3750 0.0329
C9 C 0.3252(2) 0.3943(2) 0.10103(13)
H6 H 0.2921 0.4071 0.1114
C10 C 0.3750 0.3750 0.11750(18)
C11 C 0.3750 0.3750 0.1501(2)
C12 C 0.3443(2) 0.4083(2) 0.16820(14)
H7 H 0.3241 0.4322 0.1582
C13 C 0.3750 0.3750 0.21646(19)
H8 H 0.3750 0.3750 0.2377
C14 C 0.3424(2) 0.4073(2) 0.19966(14)
C15 C 0.1006(3) 0.4696(2) 0.01763(17)
C16 C 0.3064(3) 0.4421(3) 0.21685(17)
Cu3 Cu 0.25087(3) 0.52870(3) 0.226910(17)
Cu5 Cu 0.24913(3) 0.47130(3) 0.273090(17)
Cu7 Cu 0.49913(3) 0.22130(3) 0.226910(17)
Cu8 Cu 0.50087(3) 0.27870(3) 0.273090(17)
O6 O 0.67231(16) 0.24936(15) 0.03318(9)
O7 O 0.17231(16) 0.50064(15) 0.21682(9)
O8 O 0.45636(16) 0.27039(15) 0.20416(8)
O9 O 0.79364(16) 0.27039(15) 0.04584(8)
O11 O 0.83015(15) 0.20079(14) 0.00685(9)
O12 O 0.33015(15) 0.54921(14) 0.24315(9)
O13 O 0.24881(17) 0.57962(16) 0.18715(9)
O14 O 0.45764(16) 0.31772(12) 0.24405(9)
O16 O 0.20764(16) 0.56772(12) 0.25595(9)
C17 C 0.5864(2) 0.3001(2) 0.02905(14)
C18 C 0.5588(3) 0.3374(2) 0.01495(13)
C19 C 0.5060(3) 0.2970(3) 0.06526(16)
H10 H 0.4871 0.2825 0.0818
C20 C 0.4801(3) 0.3359(2) 0.05297(15)
C21 C 0.5056(3) 0.3553(3) 0.02723(13)
H11 H 0.4867 0.3806 0.0181
C22 C 0.5605(3) 0.2788(2) 0.05319(14)
H12 H 0.5785 0.2526 0.0617
C23 C 0.4239(2) 0.3560(2) 0.06987(14)
C24 C 0.4248(2) 0.3557(2) 0.10103(13)
H13 H 0.4579 0.3429 0.1114
C25 C 0.4057(2) 0.3417(2) 0.16820(14)
H14 H 0.4259 0.3178 0.1582
C26 C 0.4076(2) 0.3427(2) 0.19966(14)
C27 C 0.6494(3) 0.2804(2) 0.01763(17)
C28 C 0.4436(3) 0.3079(3) 0.21685(17)
O3 O 0.08015(15) 0.45079(14) 0.99315(9)
H1 H 0.1740 0.3997 0.9974
Cu4 Cu 0.00087(3) 0.47130(3) 0.976910(17)
Cu6 Cu 0.74913(3) 0.27870(3) 0.976910(17)
O10 O 0.66985(15) 0.29921(14) 0.99315(9)
O15 O 0.70764(16) 0.18228(12) 0.99405(9)
H9 H 0.5760 0.3503 0.9974
Cu2 Cu 0.99913(3) 0.52870(3) 0.023090(17)
O1_2 O 0.17231(16) 0.24936(15) 0.53318(9)
O3_2 O 0.16985(15) 0.29921(14) 0.49315(9)
C1_2 C 0.0864(2) 0.3001(2) 0.52905(14)
C2_2 C 0.0588(3) 0.3374(2) 0.51495(13)
H1_2 H 0.0760 0.3503 0.4974
C3_2 C 0.0060(3) 0.2970(3) 0.56526(16)
C5_2 C 0.0056(3) 0.3553(3) 0.52723(13)
C6_2 C 0.0605(3) 0.2788(2) 0.55319(14)
H4_2 H 0.0785 0.2526 0.5617
C15_2 C 0.1494(3) 0.2804(2) 0.51763(17)
Cu2_2 Cu 0.25087(3) 0.22130(3) 0.523090(17)
Cu4_2 Cu 0.24913(3) 0.27870(3) 0.476910(17)
Cu5_2 Cu 0.00087(3) 0.27870(3) 0.773090(17)
O7_2 O 0.07769(16) 0.24936(15) 0.71682(9)
O13_2 O 0.00119(17) 0.17038(16) 0.68715(9)
O16_2 O 0.04236(16) 0.18228(12) 0.75595(9)
Cu1_2 Cu 0.49913(3) 0.52870(3) 0.523090(17)
O2_2 O 0.95636(16) 0.27039(15) 0.70416(8)
O4_2 O 0.50119(17) 0.57962(16) 0.56285(9)
O5_2 O 0.95764(16) 0.31772(12) 0.74405(9)
H2_2 H 0.9871 0.2825 0.5818
C4_2 C 0.9801(3) 0.3359(2) 0.55297(15)
H3_2 H 0.9867 0.3806 0.5181
C7_2 C 0.9239(2) 0.3560(2) 0.56987(14)
C8_2 C 0.8750 0.3750 0.55415(19)
H5_2 H 0.8750 0.3750 0.5329
C9_2 C 0.9248(2) 0.3557(2) 0.60103(13)
H6_2 H 0.9579 0.3429 0.6114
C10_2 C 0.8750 0.3750 0.61750(18)
C11_2 C 0.8750 0.3750 0.6501(2)
C12_2 C 0.9057(2) 0.3417(2) 0.66820(14)
H7_2 H 0.9259 0.3178 0.6582
C13_2 C 0.8750 0.3750 0.71646(19)
H8_2 H 0.8750 0.3750 0.7377
C14_2 C 0.9076(2) 0.3427(2) 0.69966(14)
C16_2 C 0.9436(3) 0.3079(3) 0.71685(17)
Cu3_2 Cu 0.99913(3) 0.22130(3) 0.726910(17)
Cu6_2 Cu 0.50087(3) 0.47130(3) 0.476910(17)
Cu7_2 Cu 0.75087(3) 0.52870(3) 0.726910(17)
Cu8_2 Cu 0.74913(3) 0.47130(3) 0.773090(17)
O6_2 O 0.57769(16) 0.50064(15) 0.53318(9)
O8_2 O 0.79364(16) 0.47961(15) 0.70416(8)
O9_2 O 0.45636(16) 0.47961(15) 0.54584(8)
O10_2 O 0.58015(15) 0.45079(14) 0.49315(9)
O11_2 O 0.41985(15) 0.54921(14) 0.50685(9)
O12_2 O 0.91985(15) 0.20079(14) 0.74315(9)
O14_2 O 0.79236(16) 0.43228(12) 0.74405(9)
O15_2 O 0.54236(16) 0.56772(12) 0.49405(9)
C17_2 C 0.6636(2) 0.4499(2) 0.52905(14)
C18_2 C 0.6912(3) 0.4126(2) 0.51495(13)
H9_2 H 0.6740 0.3997 0.4974
C19_2 C 0.7440(3) 0.4530(3) 0.56526(16)
H10_2 H 0.7629 0.4675 0.5818
C20_2 C 0.7699(3) 0.4141(2) 0.55297(15)
C21_2 C 0.7444(3) 0.3947(3) 0.52723(13)
H11_2 H 0.7633 0.3694 0.5181
C22_2 C 0.6895(3) 0.4712(2) 0.55319(14)
H12_2 H 0.6715 0.4974 0.5617
C23_2 C 0.8261(2) 0.3940(2) 0.56987(14)
C24_2 C 0.8252(2) 0.3943(2) 0.60103(13)
H13_2 H 0.7921 0.4071 0.6114
C25_2 C 0.8443(2) 0.4083(2) 0.66820(14)
H14_2 H 0.8241 0.4322 0.6582
C26_2 C 0.8424(2) 0.4073(2) 0.69966(14)
C27_2 C 0.6006(3) 0.4696(2) 0.51763(17)
C28_2 C 0.8064(3) 0.4421(3) 0.71685(17)
O1_3 O 0.07769(16) 0.00064(15) 0.53318(9)
Cu3_3 Cu 0.25087(3) 0.02870(3) 0.726910(17)
O7_3 O 0.17231(16) 0.00064(15) 0.71682(9)
O12_3 O 0.33015(15) 0.04921(14) 0.74315(9)
O13_3 O 0.24881(17) 0.07962(16) 0.68715(9)
O16_3 O 0.20764(16) 0.06772(12) 0.75595(9)
Cu1_3 Cu 0.75087(3) 0.72130(3) 0.523090(17)
O2_3 O 0.29364(16) 0.97961(15) 0.70416(8)
O3_3 O 0.08015(15) 0.95079(14) 0.49315(9)
O4_3 O 0.74881(17) 0.67038(16) 0.56285(9)
O5_3 O 0.29236(16) 0.93228(12) 0.74405(9)
C1_3 C 0.1636(2) 0.9499(2) 0.52905(14)
C2_3 C 0.1912(3) 0.9126(2) 0.51495(13)
H1_3 H 0.1740 0.8997 0.4974
C3_3 C 0.2440(3) 0.9530(3) 0.56526(16)
H2_3 H 0.2629 0.9675 0.5818
C4_3 C 0.2699(3) 0.9141(2) 0.55297(15)
C5_3 C 0.2444(3) 0.8947(3) 0.52723(13)
H3_3 H 0.2633 0.8694 0.5181
C6_3 C 0.1895(3) 0.9712(2) 0.55319(14)
H4_3 H 0.1715 0.9974 0.5617
C7_3 C 0.3261(2) 0.8940(2) 0.56987(14)
C8_3 C 0.3750 0.8750 0.55415(19)
H5_3 H 0.3750 0.8750 0.5329
C9_3 C 0.3252(2) 0.8943(2) 0.60103(13)
H6_3 H 0.2921 0.9071 0.6114
C10_3 C 0.3750 0.8750 0.61750(18)
C11_3 C 0.3750 0.8750 0.6501(2)
C12_3 C 0.3443(2) 0.9083(2) 0.66820(14)
H7_3 H 0.3241 0.9322 0.6582
C13_3 C 0.3750 0.8750 0.71646(19)
H8_3 H 0.3750 0.8750 0.7377
C14_3 C 0.3424(2) 0.9073(2) 0.69966(14)
C15_3 C 0.1006(3) 0.9696(2) 0.51763(17)
C16_3 C 0.3064(3) 0.9421(3) 0.71685(17)
Cu4_3 Cu 0.00087(3) 0.97130(3) 0.476910(17)
Cu5_3 Cu 0.24913(3) 0.97130(3) 0.773090(17)
Cu6_3 Cu 0.74913(3) 0.77870(3) 0.476910(17)
Cu7_3 Cu 0.49913(3) 0.72130(3) 0.726910(17)
Cu8_3 Cu 0.50087(3) 0.77870(3) 0.773090(17)
O6_3 O 0.67231(16) 0.74936(15) 0.53318(9)
O8_3 O 0.45636(16) 0.77039(15) 0.70416(8)
O9_3 O 0.79364(16) 0.77039(15) 0.54584(8)
O10_3 O 0.66985(15) 0.79921(14) 0.49315(9)
O11_3 O 0.83015(15) 0.70079(14) 0.50685(9)
O14_3 O 0.45764(16) 0.81772(12) 0.74405(9)
O15_3 O 0.70764(16) 0.68228(12) 0.49405(9)
C17_3 C 0.5864(2) 0.8001(2) 0.52905(14)
C18_3 C 0.5588(3) 0.8374(2) 0.51495(13)
H9_3 H 0.5760 0.8503 0.4974
C19_3 C 0.5060(3) 0.7970(3) 0.56526(16)
H10_3 H 0.4871 0.7825 0.5818
C20_3 C 0.4801(3) 0.8359(2) 0.55297(15)
C21_3 C 0.5056(3) 0.8553(3) 0.52723(13)
H11_3 H 0.4867 0.8806 0.5181
C22_3 C 0.5605(3) 0.7788(2) 0.55319(14)
H12_3 H 0.5785 0.7526 0.5617
C23_3 C 0.4239(2) 0.8560(2) 0.56987(14)
C24_3 C 0.4248(2) 0.8557(2) 0.60103(13)
H13_3 H 0.4579 0.8429 0.6114
C25_3 C 0.4057(2) 0.8417(2) 0.66820(14)
H14_3 H 0.4259 0.8178 0.6582
C26_3 C 0.4076(2) 0.8427(2) 0.69966(14)
C27_3 C 0.6494(3) 0.7804(2) 0.51763(17)
C28_3 C 0.4436(3) 0.8079(3) 0.71685(17)
Cu2_3 Cu 0.99913(3) 0.02870(3) 0.523090(17)
O1_4 O 0.17231(16) 0.74936(15) 0.03318(9)
C1_4 C 0.0864(2) 0.8001(2) 0.02905(14)
C2_4 C 0.0588(3) 0.8374(2) 0.01495(13)
C3_4 C 0.0060(3) 0.7970(3) 0.06526(16)
C5_4 C 0.0056(3) 0.8553(3) 0.02723(13)
C6_4 C 0.0605(3) 0.7788(2) 0.05319(14)
H4_4 H 0.0785 0.7526 0.0617
C15_4 C 0.1494(3) 0.7804(2) 0.01763(17)
Cu2_4 Cu 0.25087(3) 0.72130(3) 0.023090(17)
Cu5_4 Cu 0.00087(3) 0.77870(3) 0.273090(17)
O7_4 O 0.07769(16) 0.74936(15) 0.21682(9)
O13_4 O 0.00119(17) 0.67038(16) 0.18715(9)
O16_4 O 0.04236(16) 0.68228(12) 0.25595(9)
O3_4 O 0.16985(15) 0.79921(14) 0.99315(9)
H1_4 H 0.0760 0.8503 0.9974
Cu4_4 Cu 0.24913(3) 0.77870(3) 0.976910(17)
Cu1_4 Cu 0.49913(3) 0.02870(3) 0.023090(17)
O4_4 O 0.50119(17) 0.07962(16) 0.06285(9)
Cu7_4 Cu 0.75087(3) 0.02870(3) 0.226910(17)
O6_4 O 0.57769(16) 0.00064(15) 0.03318(9)
O11_4 O 0.41985(15) 0.04921(14) 0.00685(9)
O15_4 O 0.54236(16) 0.06772(12) 0.99405(9)
O2_4 O 0.95636(16) 0.77039(15) 0.20416(8)
O5_4 O 0.95764(16) 0.81772(12) 0.24405(9)
H2_4 H 0.9871 0.7825 0.0818
C4_4 C 0.9801(3) 0.8359(2) 0.05297(15)
H3_4 H 0.9867 0.8806 0.0181
C7_4 C 0.9239(2) 0.8560(2) 0.06987(14)
C8_4 C 0.8750 0.8750 0.05415(19)
H5_4 H 0.8750 0.8750 0.0329
C9_4 C 0.9248(2) 0.8557(2) 0.10103(13)
H6_4 H 0.9579 0.8429 0.1114
C10_4 C 0.8750 0.8750 0.11750(18)
C11_4 C 0.8750 0.8750 0.1501(2)
C12_4 C 0.9057(2) 0.8417(2) 0.16820(14)
H7_4 H 0.9259 0.8178 0.1582
C13_4 C 0.8750 0.8750 0.21646(19)
H8_4 H 0.8750 0.8750 0.2377
C14_4 C 0.9076(2) 0.8427(2) 0.19966(14)
C16_4 C 0.9436(3) 0.8079(3) 0.21685(17)
Cu3_4 Cu 0.99913(3) 0.72130(3) 0.226910(17)
Cu8_4 Cu 0.74913(3) 0.97130(3) 0.273090(17)
O8_4 O 0.79364(16) 0.97961(15) 0.20416(8)
O9_4 O 0.45636(16) 0.97961(15) 0.04584(8)
O12_4 O 0.91985(15) 0.70079(14) 0.24315(9)
O14_4 O 0.79236(16) 0.93228(12) 0.24405(9)
C17_4 C 0.6636(2) 0.9499(2) 0.02905(14)
C18_4 C 0.6912(3) 0.9126(2) 0.01495(13)
C19_4 C 0.7440(3) 0.9530(3) 0.06526(16)
H10_4 H 0.7629 0.9675 0.0818
C20_4 C 0.7699(3) 0.9141(2) 0.05297(15)
C21_4 C 0.7444(3) 0.8947(3) 0.02723(13)
H11_4 H 0.7633 0.8694 0.0181
C22_4 C 0.6895(3) 0.9712(2) 0.05319(14)
H12_4 H 0.6715 0.9974 0.0617
C23_4 C 0.8261(2) 0.8940(2) 0.06987(14)
C24_4 C 0.8252(2) 0.8943(2) 0.10103(13)
H13_4 H 0.7921 0.9071 0.1114
C25_4 C 0.8443(2) 0.9083(2) 0.16820(14)
H14_4 H 0.8241 0.9322 0.1582
C26_4 C 0.8424(2) 0.9073(2) 0.19966(14)
C27_4 C 0.6006(3) 0.9696(2) 0.01763(17)
C28_4 C 0.8064(3) 0.9421(3) 0.21685(17)
Cu6_4 Cu 0.50087(3) 0.97130(3) 0.976910(17)
O10_4 O 0.58015(15) 0.95079(14) 0.99315(9)
H9_4 H 0.6740 0.8997 0.9974
O4_5 O 0.24881(17) 0.17038(16) 0.56285(9)
O9_5 O 0.29364(16) 0.27039(15) 0.54584(8)
O11_5 O 0.33015(15) 0.20079(14) 0.50685(9)
O15_5 O 0.20764(16) 0.18228(12) 0.49405(9)
O7_5 O 0.67231(16) 0.50064(15) 0.71682(9)
O12_5 O 0.83015(15) 0.54921(14) 0.74315(9)
O13_5 O 0.74881(17) 0.57962(16) 0.68715(9)
O16_5 O 0.70764(16) 0.56772(12) 0.75595(9)
O4_6 O 0.00119(17) 0.57962(16) 0.06285(9)
O7_6 O 0.57769(16) 0.24936(15) 0.21682(9)
O12_6 O 0.41985(15) 0.20079(14) 0.24315(9)
O13_6 O 0.50119(17) 0.17038(16) 0.18715(9)
O16_6 O 0.54236(16) 0.18228(12) 0.25595(9)
O15_6 O 0.04236(16) 0.56772(12) 0.99405(9)
O9_6 O 0.95636(16) 0.47961(15) 0.04584(8)
O11_6 O 0.91985(15) 0.54921(14) 0.00685(9)
H16 H 0.963389 0.598888 0.0624038
O4_7 O 0.24881(17) 0.67038(16) 0.06285(9)
O9_7 O 0.29364(16) 0.77039(15) 0.04584(8)
O11_7 O 0.33015(15) 0.70079(14) 0.00685(9)
O15_7 O 0.20764(16) 0.68228(12) 0.99405(9)
O7_7 O 0.67231(16) 0.00064(15) 0.21682(9)
O12_7 O 0.83015(15) 0.04921(14) 0.24315(9)
O13_7 O 0.74881(17) 0.07962(16) 0.18715(9)
O16_7 O 0.70764(16) 0.06772(12) 0.25595(9)
O4_8 O 0.00119(17) 0.07962(16) 0.56285(9)
O15_8 O 0.04236(16) 0.06772(12) 0.49405(9)
O7_8 O 0.57769(16) 0.74936(15) 0.71682(9)
O12_8 O 0.41985(15) 0.70079(14) 0.74315(9)
O13_8 O 0.50119(17) 0.67038(16) 0.68715(9)
O16_8 O 0.54236(16) 0.68228(12) 0.75595(9)
O11_8 O 0.91985(15) 0.04921(14) 0.50685(9)
H16_2 H 0.963389 0.0988883 0.562404
O9_8 O 0.95636(16) 0.97961(15) 0.54584(8)
O3_5 O 0.08015(15) 0.29921(14) 0.75685(9)
O5_5 O 0.29236(16) 0.31772(12) 0.50595(9)
C1_5 C 0.1636(2) 0.3001(2) 0.72095(14)
C2_5 C 0.1912(3) 0.3374(2) 0.73505(13)
H1_5 H 0.1740 0.3503 0.7526
C3_5 C 0.2440(3) 0.2970(3) 0.68474(16)
H2_5 H 0.2629 0.2825 0.6682
C4_5 C 0.2699(3) 0.3359(2) 0.69703(15)
C5_5 C 0.2444(3) 0.3553(3) 0.72277(13)
H3_5 H 0.2633 0.3806 0.7319
C6_5 C 0.1895(3) 0.2788(2) 0.69681(14)
H4_5 H 0.1715 0.2526 0.6883
C7_5 C 0.3261(2) 0.3560(2) 0.68013(14)
C8_5 C 0.3750 0.3750 0.69585(19)
H5_5 H 0.3750 0.3750 0.7171
C9_5 C 0.3252(2) 0.3557(2) 0.64897(13)
H6_5 H 0.2921 0.3429 0.6386
C10_5 C 0.3750 0.3750 0.63250(18)
C11_5 C 0.3750 0.3750 0.5999(2)
C12_5 C 0.3443(2) 0.3417(2) 0.58180(14)
H7_5 H 0.3241 0.3178 0.5918
C13_5 C 0.3750 0.3750 0.53354(19)
H8_5 H 0.3750 0.3750 0.5123
C14_5 C 0.3424(2) 0.3427(2) 0.55034(14)
C15_5 C 0.1006(3) 0.2804(2) 0.73237(17)
C16_5 C 0.3064(3) 0.3079(3) 0.53315(17)
O10_5 O 0.66985(15) 0.45079(14) 0.75685(9)
O14_5 O 0.45764(16) 0.43228(12) 0.50595(9)
C17_5 C 0.5864(2) 0.4499(2) 0.72095(14)
C18_5 C 0.5588(3) 0.4126(2) 0.73505(13)
H9_5 H 0.5760 0.3997 0.7526
C19_5 C 0.5060(3) 0.4530(3) 0.68474(16)
H10_5 H 0.4871 0.4675 0.6682
C20_5 C 0.4801(3) 0.4141(2) 0.69703(15)
C21_5 C 0.5056(3) 0.3947(3) 0.72277(13)
H11_5 H 0.4867 0.3694 0.7319
C22_5 C 0.5605(3) 0.4712(2) 0.69681(14)
H12_5 H 0.5785 0.4974 0.6883
C23_5 C 0.4239(2) 0.3940(2) 0.68013(14)
C24_5 C 0.4248(2) 0.3943(2) 0.64897(13)
H13_5 H 0.4579 0.4071 0.6386
C25_5 C 0.4057(2) 0.4083(2) 0.58180(14)
H14_5 H 0.4259 0.4322 0.5918
C26_5 C 0.4076(2) 0.4073(2) 0.55034(14)
C27_5 C 0.6494(3) 0.4696(2) 0.73237(17)
C28_5 C 0.4436(3) 0.4421(3) 0.53315(17)
H16_3 H 0.963389 0.151112 0.687596
O3_6 O 0.08015(15) 0.79921(14) 0.25685(9)
O5_6 O 0.29236(16) 0.81772(12) 0.00595(9)
C1_6 C 0.1636(2) 0.8001(2) 0.22095(14)
C2_6 C 0.1912(3) 0.8374(2) 0.23505(13)
H1_6 H 0.1740 0.8503 0.2526
C3_6 C 0.2440(3) 0.7970(3) 0.18474(16)
H2_6 H 0.2629 0.7825 0.1682
C4_6 C 0.2699(3) 0.8359(2) 0.19703(15)
C5_6 C 0.2444(3) 0.8553(3) 0.22277(13)
H3_6 H 0.2633 0.8806 0.2319
C6_6 C 0.1895(3) 0.7788(2) 0.19681(14)
H4_6 H 0.1715 0.7526 0.1883
C7_6 C 0.3261(2) 0.8560(2) 0.18013(14)
C8_6 C 0.3750 0.8750 0.19585(19)
H5_6 H 0.3750 0.8750 0.2171
C9_6 C 0.3252(2) 0.8557(2) 0.14897(13)
H6_6 H 0.2921 0.8429 0.1386
C10_6 C 0.3750 0.8750 0.13250(18)
C11_6 C 0.3750 0.8750 0.0999(2)
C12_6 C 0.3443(2) 0.8417(2) 0.08180(14)
H7_6 H 0.3241 0.8178 0.0918
C13_6 C 0.3750 0.8750 0.03354(19)
H8_6 H 0.3750 0.8750 0.0123
C14_6 C 0.3424(2) 0.8427(2) 0.05034(14)
C15_6 C 0.1006(3) 0.7804(2) 0.23237(17)
C16_6 C 0.3064(3) 0.8079(3) 0.03315(17)
O10_6 O 0.66985(15) 0.95079(14) 0.25685(9)
O14_6 O 0.45764(16) 0.93228(12) 0.00595(9)
C17_6 C 0.5864(2) 0.9499(2) 0.22095(14)
C18_6 C 0.5588(3) 0.9126(2) 0.23505(13)
H9_6 H 0.5760 0.8997 0.2526
C19_6 C 0.5060(3) 0.9530(3) 0.18474(16)
H10_6 H 0.4871 0.9675 0.1682
C20_6 C 0.4801(3) 0.9141(2) 0.19703(15)
C21_6 C 0.5056(3) 0.8947(3) 0.22277(13)
H11_6 H 0.4867 0.8694 0.2319
C22_6 C 0.5605(3) 0.9712(2) 0.19681(14)
H12_6 H 0.5785 0.9974 0.1883
C23_6 C 0.4239(2) 0.8940(2) 0.18013(14)
C24_6 C 0.4248(2) 0.8943(2) 0.14897(13)
H13_6 H 0.4579 0.9071 0.1386
C25_6 C 0.4057(2) 0.9083(2) 0.08180(14)
H14_6 H 0.4259 0.9322 0.0918
C26_6 C 0.4076(2) 0.9073(2) 0.05034(14)
C27_6 C 0.6494(3) 0.9696(2) 0.23237(17)
C28_6 C 0.4436(3) 0.9421(3) 0.03315(17)
H16_4 H 0.963389 0.651112 0.187596
O10_7 O 0.16985(15) 0.45079(14) 0.25685(9)
C17_7 C 0.0864(2) 0.4499(2) 0.22095(14)
C18_7 C 0.0588(3) 0.4126(2) 0.23505(13)
H9_7 H 0.0760 0.3997 0.2526
C19_7 C 0.0060(3) 0.4530(3) 0.18474(16)
C21_7 C 0.0056(3) 0.3947(3) 0.22277(13)
C22_7 C 0.0605(3) 0.4712(2) 0.19681(14)
H12_7 H 0.0785 0.4974 0.1883
C27_7 C 0.1494(3) 0.4696(2) 0.23237(17)
O3_7 O 0.58015(15) 0.29921(14) 0.25685(9)
O5_7 O 0.79236(16) 0.31772(12) 0.00595(9)
C1_7 C 0.6636(2) 0.3001(2) 0.22095(14)
C2_7 C 0.6912(3) 0.3374(2) 0.23505(13)
H1_7 H 0.6740 0.3503 0.2526
C3_7 C 0.7440(3) 0.2970(3) 0.18474(16)
H2_7 H 0.7629 0.2825 0.1682
C4_7 C 0.7699(3) 0.3359(2) 0.19703(15)
C5_7 C 0.7444(3) 0.3553(3) 0.22277(13)
H3_7 H 0.7633 0.3806 0.2319
C6_7 C 0.6895(3) 0.2788(2) 0.19681(14)
H4_7 H 0.6715 0.2526 0.1883
C7_7 C 0.8261(2) 0.3560(2) 0.18013(14)
C8_7 C 0.8750 0.3750 0.19585(19)
H5_7 H 0.8750 0.3750 0.2171
C9_7 C 0.8252(2) 0.3557(2) 0.14897(13)
H6_7 H 0.7921 0.3429 0.1386
C10_7 C 0.8750 0.3750 0.13250(18)
C11_7 C 0.8750 0.3750 0.0999(2)
C12_7 C 0.8443(2) 0.3417(2) 0.08180(14)
H7_7 H 0.8241 0.3178 0.0918
C13_7 C 0.8750 0.3750 0.03354(19)
H8_7 H 0.8750 0.3750 0.0123
C14_7 C 0.8424(2) 0.3427(2) 0.05034(14)
C15_7 C 0.6006(3) 0.2804(2) 0.23237(17)
C16_7 C 0.8064(3) 0.3079(3) 0.03315(17)
O14_7 O 0.95764(16) 0.43228(12) 0.00595(9)
H10_7 H 0.9871 0.4675 0.1682
C20_7 C 0.9801(3) 0.4141(2) 0.19703(15)
H11_7 H 0.9867 0.3694 0.2319
C23_7 C 0.9239(2) 0.3940(2) 0.18013(14)
C24_7 C 0.9248(2) 0.3943(2) 0.14897(13)
H13_7 H 0.9579 0.4071 0.1386
C25_7 C 0.9057(2) 0.4083(2) 0.08180(14)
H14_7 H 0.9259 0.4322 0.0918
C26_7 C 0.9076(2) 0.4073(2) 0.05034(14)
C28_7 C 0.9436(3) 0.4421(3) 0.03315(17)
O10_8 O 0.16985(15) 0.95079(14) 0.75685(9)
C17_8 C 0.0864(2) 0.9499(2) 0.72095(14)
C18_8 C 0.0588(3) 0.9126(2) 0.73505(13)
H9_8 H 0.0760 0.8997 0.7526
C19_8 C 0.0060(3) 0.9530(3) 0.68474(16)
C21_8 C 0.0056(3) 0.8947(3) 0.72277(13)
C22_8 C 0.0605(3) 0.9712(2) 0.69681(14)
H12_8 H 0.0785 0.9974 0.6883
C27_8 C 0.1494(3) 0.9696(2) 0.73237(17)
O3_8 O 0.58015(15) 0.79921(14) 0.75685(9)
O5_8 O 0.79236(16) 0.81772(12) 0.50595(9)
C1_8 C 0.6636(2) 0.8001(2) 0.72095(14)
C2_8 C 0.6912(3) 0.8374(2) 0.73505(13)
H1_8 H 0.6740 0.8503 0.7526
C3_8 C 0.7440(3) 0.7970(3) 0.68474(16)
H2_8 H 0.7629 0.7825 0.6682
C4_8 C 0.7699(3) 0.8359(2) 0.69703(15)
C5_8 C 0.7444(3) 0.8553(3) 0.72277(13)
H3_8 H 0.7633 0.8806 0.7319
C6_8 C 0.6895(3) 0.7788(2) 0.69681(14)
H4_8 H 0.6715 0.7526 0.6883
C7_8 C 0.8261(2) 0.8560(2) 0.68013(14)
C8_8 C 0.8750 0.8750 0.69585(19)
H5_8 H 0.8750 0.8750 0.7171
C9_8 C 0.8252(2) 0.8557(2) 0.64897(13)
H6_8 H 0.7921 0.8429 0.6386
C10_8 C 0.8750 0.8750 0.63250(18)
C11_8 C 0.8750 0.8750 0.5999(2)
C12_8 C 0.8443(2) 0.8417(2) 0.58180(14)
H7_8 H 0.8241 0.8178 0.5918
C13_8 C 0.8750 0.8750 0.53354(19)
H8_8 H 0.8750 0.8750 0.5123
C14_8 C 0.8424(2) 0.8427(2) 0.55034(14)
C15_8 C 0.6006(3) 0.7804(2) 0.73237(17)
C16_8 C 0.8064(3) 0.8079(3) 0.53315(17)
O14_8 O 0.95764(16) 0.93228(12) 0.50595(9)
H10_8 H 0.9871 0.9675 0.6682
C20_8 C 0.9801(3) 0.9141(2) 0.69703(15)
H11_8 H 0.9867 0.8694 0.7319
C23_8 C 0.9239(2) 0.8940(2) 0.68013(14)
C24_8 C 0.9248(2) 0.8943(2) 0.64897(13)
H13_8 H 0.9579 0.9071 0.6386
C25_8 C 0.9057(2) 0.9083(2) 0.58180(14)
H14_8 H 0.9259 0.9322 0.5918
C26_8 C 0.9076(2) 0.9073(2) 0.55034(14)
C28_8 C 0.9436(3) 0.9421(3) 0.53315(17)
H1_9 H 0.8260 0.6003 0.0026
H9_9 H 0.4240 0.6497 0.0026
O1_5 O 0.92231(16) 0.49936(15) 0.96682(9)
O2_5 O 0.70636(16) 0.52039(15) 0.79584(8)
O4_9 O 0.25119(17) 0.82962(16) 0.93715(9)
C1_9 C 0.8364(2) 0.5501(2) 0.97095(14)
C2_9 C 0.8088(3) 0.5874(2) 0.98505(13)
C3_9 C 0.7560(3) 0.5470(3) 0.93474(16)
H2_9 H 0.7371 0.5325 0.9182
C4_9 C 0.7301(3) 0.5859(2) 0.94703(15)
C5_9 C 0.7556(3) 0.6053(3) 0.97277(13)
H3_9 H 0.7367 0.6306 0.9819
C6_9 C 0.8105(3) 0.5288(2) 0.94681(14)
H4_9 H 0.8285 0.5026 0.9383
C7_9 C 0.6739(2) 0.6060(2) 0.93013(14)
C8_9 C 0.6250 0.6250 0.94585(19)
H5_9 H 0.6250 0.6250 0.9671
C9_9 C 0.6748(2) 0.6057(2) 0.89897(13)
H6_9 H 0.7079 0.5929 0.8886
C10_9 C 0.6250 0.6250 0.88250(18)
C11_9 C 0.6250 0.6250 0.8499(2)
C12_9 C 0.6557(2) 0.5917(2) 0.83180(14)
H7_9 H 0.6759 0.5678 0.8418
C13_9 C 0.6250 0.6250 0.78354(19)
H8_9 H 0.6250 0.6250 0.7623
C14_9 C 0.6576(2) 0.5927(2) 0.80034(14)
C15_9 C 0.8994(3) 0.5304(2) 0.98237(17)
C16_9 C 0.6936(3) 0.5579(3) 0.78315(17)
O6_5 O 0.32769(16) 0.75064(15) 0.96682(9)
O7_9 O 0.82769(16) 0.49936(15) 0.78318(9)
O8_5 O 0.54364(16) 0.72961(15) 0.79584(8)
O9_9 O 0.20636(16) 0.72961(15) 0.95416(8)
O13_9 O 0.75119(17) 0.42038(16) 0.81285(9)
C17_9 C 0.4136(2) 0.6999(2) 0.97095(14)
C18_9 C 0.4412(3) 0.6626(2) 0.98505(13)
C19_9 C 0.4940(3) 0.7030(3) 0.93474(16)
H10_9 H 0.5129 0.7175 0.9182
C20_9 C 0.5199(3) 0.6641(2) 0.94703(15)
C21_9 C 0.4944(3) 0.6447(3) 0.97277(13)
H11_9 H 0.5133 0.6194 0.9819
C22_9 C 0.4395(3) 0.7212(2) 0.94681(14)
H12_9 H 0.4215 0.7474 0.9383
C23_9 C 0.5761(2) 0.6440(2) 0.93013(14)
C24_9 C 0.5752(2) 0.6443(2) 0.89897(13)
H13_9 H 0.5421 0.6571 0.8886
C25_9 C 0.5943(2) 0.6583(2) 0.83180(14)
H14_9 H 0.5741 0.6822 0.8418
C26_9 C 0.5924(2) 0.6573(2) 0.80034(14)
C27_9 C 0.3506(3) 0.7196(2) 0.98237(17)
C28_9 C 0.5564(3) 0.6921(3) 0.78315(17)
O2_6 O 0.04364(16) 0.72961(15) 0.29584(8)
O4_10 O 0.49881(17) 0.42038(16) 0.43715(9)
H2_10 H 0.0129 0.7175 0.4182
C4_10 C 0.0199(3) 0.6641(2) 0.44703(15)
H3_10 H 0.0133 0.6194 0.4819
C7_10 C 0.0761(2) 0.6440(2) 0.43013(14)
C8_10 C 0.1250 0.6250 0.44585(19)
H5_10 H 0.1250 0.6250 0.4671
C9_10 C 0.0752(2) 0.6443(2) 0.39897(13)
H6_10 H 0.0421 0.6571 0.3886
C10_10 C 0.1250 0.6250 0.38250(18)
C11_10 C 0.1250 0.6250 0.3499(2)
C12_10 C 0.0943(2) 0.6583(2) 0.33180(14)
H7_10 H 0.0741 0.6822 0.3418
C13_10 C 0.1250 0.6250 0.28354(19)
H8_10 H 0.1250 0.6250 0.2623
C14_10 C 0.0924(2) 0.6573(2) 0.30034(14)
C16_10 C 0.0564(3) 0.6921(3) 0.28315(17)
O6_6 O 0.42231(16) 0.49936(15) 0.46682(9)
O8_6 O 0.20636(16) 0.52039(15) 0.29584(8)
O9_10 O 0.54364(16) 0.52039(15) 0.45416(8)
C17_10 C 0.3364(2) 0.5501(2) 0.47095(14)
C18_10 C 0.3088(3) 0.5874(2) 0.48505(13)
H9_10 H 0.3260 0.6003 0.5026
C19_10 C 0.2560(3) 0.5470(3) 0.43474(16)
H10_10 H 0.2371 0.5325 0.4182
C20_10 C 0.2301(3) 0.5859(2) 0.44703(15)
C21_10 C 0.2556(3) 0.6053(3) 0.47277(13)
H11_10 H 0.2367 0.6306 0.4819
C22_10 C 0.3105(3) 0.5288(2) 0.44681(14)
H12_10 H 0.3285 0.5026 0.4383
C23_10 C 0.1739(2) 0.6060(2) 0.43013(14)
C24_10 C 0.1748(2) 0.6057(2) 0.39897(13)
H13_10 H 0.2079 0.5929 0.3886
C25_10 C 0.1557(2) 0.5917(2) 0.33180(14)
H14_10 H 0.1759 0.5678 0.3418
C26_10 C 0.1576(2) 0.5927(2) 0.30034(14)
C27_10 C 0.3994(3) 0.5304(2) 0.48237(17)
C28_10 C 0.1936(3) 0.5579(3) 0.28315(17)
O1_6 O 0.82769(16) 0.75064(15) 0.46682(9)
C1_10 C 0.9136(2) 0.6999(2) 0.47095(14)
C2_10 C 0.9412(3) 0.6626(2) 0.48505(13)
H1_10 H 0.9240 0.6497 0.5026
C3_10 C 0.9940(3) 0.7030(3) 0.43474(16)
C5_10 C 0.9944(3) 0.6447(3) 0.47277(13)
C6_10 C 0.9395(3) 0.7212(2) 0.44681(14)
H4_10 H 0.9215 0.7474 0.4383
C15_10 C 0.8506(3) 0.7196(2) 0.48237(17)
O7_10 O 0.92231(16) 0.75064(15) 0.28318(9)
O13_10 O 0.99881(17) 0.82962(16) 0.31285(9)
O2_7 O 0.70636(16) 0.02039(15) 0.29584(8)
O4_11 O 0.25119(17) 0.32962(16) 0.43715(9)
C1_11 C 0.8364(2) 0.0501(2) 0.47095(14)
C2_11 C 0.8088(3) 0.0874(2) 0.48505(13)
H1_11 H 0.8260 0.1003 0.5026
C3_11 C 0.7560(3) 0.0470(3) 0.43474(16)
H2_11 H 0.7371 0.0325 0.4182
C4_11 C 0.7301(3) 0.0859(2) 0.44703(15)
C5_11 C 0.7556(3) 0.1053(3) 0.47277(13)
H3_11 H 0.7367 0.1306 0.4819
C6_11 C 0.8105(3) 0.0288(2) 0.44681(14)
H4_11 H 0.8285 0.0026 0.4383
C7_11 C 0.6739(2) 0.1060(2) 0.43013(14)
C8_11 C 0.6250 0.1250 0.44585(19)
H5_11 H 0.6250 0.1250 0.4671
C9_11 C 0.6748(2) 0.1057(2) 0.39897(13)
H6_11 H 0.7079 0.0929 0.3886
C10_11 C 0.6250 0.1250 0.38250(18)
C11_11 C 0.6250 0.1250 0.3499(2)
C12_11 C 0.6557(2) 0.0917(2) 0.33180(14)
H7_11 H 0.6759 0.0678 0.3418
C13_11 C 0.6250 0.1250 0.28354(19)
H8_11 H 0.6250 0.1250 0.2623
C14_11 C 0.6576(2) 0.0927(2) 0.30034(14)
C15_11 C 0.8994(3) 0.0304(2) 0.48237(17)
C16_11 C 0.6936(3) 0.0579(3) 0.28315(17)
O6_7 O 0.32769(16) 0.25064(15) 0.46682(9)
O8_7 O 0.54364(16) 0.22961(15) 0.29584(8)
O9_11 O 0.20636(16) 0.22961(15) 0.45416(8)
C17_11 C 0.4136(2) 0.1999(2) 0.47095(14)
C18_11 C 0.4412(3) 0.1626(2) 0.48505(13)
H9_11 H 0.4240 0.1497 0.5026
C19_11 C 0.4940(3) 0.2030(3) 0.43474(16)
H10_11 H 0.5129 0.2175 0.4182
C20_11 C 0.5199(3) 0.1641(2) 0.44703(15)
C21_11 C 0.4944(3) 0.1447(3) 0.47277(13)
H11_11 H 0.5133 0.1194 0.4819
C22_11 C 0.4395(3) 0.2212(2) 0.44681(14)
H12_11 H 0.4215 0.2474 0.4383
C23_11 C 0.5761(2) 0.1440(2) 0.43013(14)
C24_11 C 0.5752(2) 0.1443(2) 0.39897(13)
H13_11 H 0.5421 0.1571 0.3886
C25_11 C 0.5943(2) 0.1583(2) 0.33180(14)
H14_11 H 0.5741 0.1822 0.3418
C26_11 C 0.5924(2) 0.1573(2) 0.30034(14)
C27_11 C 0.3506(3) 0.2196(2) 0.48237(17)
C28_11 C 0.5564(3) 0.1921(3) 0.28315(17)
O1_7 O 0.92231(16) 0.99936(15) 0.46682(9)
O7_11 O 0.82769(16) 0.99936(15) 0.28318(9)
O13_11 O 0.75119(17) 0.92038(16) 0.31285(9)
H9_12 H 0.3260 0.1003 0.0026
O2_8 O 0.04364(16) 0.22961(15) 0.79584(8)
H2_12 H 0.0129 0.2175 0.9182
C4_12 C 0.0199(3) 0.1641(2) 0.94703(15)
H3_12 H 0.0133 0.1194 0.9819
C7_12 C 0.0761(2) 0.1440(2) 0.93013(14)
C8_12 C 0.1250 0.1250 0.94585(19)
H5_12 H 0.1250 0.1250 0.9671
C9_12 C 0.0752(2) 0.1443(2) 0.89897(13)
H6_12 H 0.0421 0.1571 0.8886
C10_12 C 0.1250 0.1250 0.88250(18)
C11_12 C 0.1250 0.1250 0.8499(2)
C12_12 C 0.0943(2) 0.1583(2) 0.83180(14)
H7_12 H 0.0741 0.1822 0.8418
C13_12 C 0.1250 0.1250 0.78354(19)
H8_12 H 0.1250 0.1250 0.7623
C14_12 C 0.0924(2) 0.1573(2) 0.80034(14)
C16_12 C 0.0564(3) 0.1921(3) 0.78315(17)
O8_8 O 0.20636(16) 0.02039(15) 0.79584(8)
O9_12 O 0.54364(16) 0.02039(15) 0.95416(8)
C17_12 C 0.3364(2) 0.0501(2) 0.97095(14)
C18_12 C 0.3088(3) 0.0874(2) 0.98505(13)
C19_12 C 0.2560(3) 0.0470(3) 0.93474(16)
H10_12 H 0.2371 0.0325 0.9182
C20_12 C 0.2301(3) 0.0859(2) 0.94703(15)
C21_12 C 0.2556(3) 0.1053(3) 0.97277(13)
H11_12 H 0.2367 0.1306 0.9819
C22_12 C 0.3105(3) 0.0288(2) 0.94681(14)
H12_12 H 0.3285 0.0026 0.9383
C23_12 C 0.1739(2) 0.1060(2) 0.93013(14)
C24_12 C 0.1748(2) 0.1057(2) 0.89897(13)
H13_12 H 0.2079 0.0929 0.8886
C25_12 C 0.1557(2) 0.0917(2) 0.83180(14)
H14_12 H 0.1759 0.0678 0.8418
C26_12 C 0.1576(2) 0.0927(2) 0.80034(14)
C27_12 C 0.3994(3) 0.0304(2) 0.98237(17)
C28_12 C 0.1936(3) 0.0579(3) 0.78315(17)
O4_12 O 0.49881(17) 0.92038(16) 0.93715(9)
O6_8 O 0.42231(16) 0.99936(15) 0.96682(9)
H1_12 H 0.9240 0.1497 0.0026
O1_8 O 0.82769(16) 0.25064(15) 0.96682(9)
C1_12 C 0.9136(2) 0.1999(2) 0.97095(14)
C2_12 C 0.9412(3) 0.1626(2) 0.98505(13)
C3_12 C 0.9940(3) 0.2030(3) 0.93474(16)
C5_12 C 0.9944(3) 0.1447(3) 0.97277(13)
C6_12 C 0.9395(3) 0.2212(2) 0.94681(14)
H4_12 H 0.9215 0.2474 0.9383
C15_12 C 0.8506(3) 0.2196(2) 0.98237(17)
O7_12 O 0.92231(16) 0.25064(15) 0.78318(9)
O13_12 O 0.99881(17) 0.32962(16) 0.81285(9)
O7_13 O 0.32769(16) 0.49936(15) 0.28318(9)
O13_13 O 0.25119(17) 0.42038(16) 0.31285(9)
O4_13 O 0.75119(17) 0.82962(16) 0.43715(9)
O9_13 O 0.70636(16) 0.72961(15) 0.45416(8)
O9_14 O 0.04364(16) 0.52039(15) 0.95416(8)
H16_5 H 0.0366115 0.401112 0.937596
O4_14 O 0.99881(17) 0.42038(16) 0.93715(9)
O7_14 O 0.42231(16) 0.75064(15) 0.78318(9)
O13_14 O 0.49881(17) 0.82962(16) 0.81285(9)
O7_15 O 0.32769(16) 0.99936(15) 0.78318(9)
O13_15 O 0.25119(17) 0.92038(16) 0.81285(9)
O4_15 O 0.75119(17) 0.32962(16) 0.93715(9)
O9_15 O 0.70636(16) 0.22961(15) 0.95416(8)
O9_16 O 0.04364(16) 0.02039(15) 0.45416(8)
H16_6 H 0.0366115 0.901112 0.437596
O7_16 O 0.42231(16) 0.25064(15) 0.28318(9)
O13_16 O 0.49881(17) 0.32962(16) 0.31285(9)
O4_16 O 0.99881(17) 0.92038(16) 0.43715(9)
C1_13 C 0.8364(2) 0.6999(2) 0.27905(14)
C2_13 C 0.8088(3) 0.6626(2) 0.26495(13)
H1_13 H 0.8260 0.6497 0.2474
C3_13 C 0.7560(3) 0.7030(3) 0.31526(16)
H2_13 H 0.7371 0.7175 0.3318
C4_13 C 0.7301(3) 0.6641(2) 0.30297(15)
C5_13 C 0.7556(3) 0.6447(3) 0.27723(13)
H3_13 H 0.7367 0.6194 0.2681
C6_13 C 0.8105(3) 0.7212(2) 0.30319(14)
H4_13 H 0.8285 0.7474 0.3117
C7_13 C 0.6739(2) 0.6440(2) 0.31987(14)
C8_13 C 0.6250 0.6250 0.30415(19)
H5_13 H 0.6250 0.6250 0.2829
C9_13 C 0.6748(2) 0.6443(2) 0.35103(13)
H6_13 H 0.7079 0.6571 0.3614
C10_13 C 0.6250 0.6250 0.36750(18)
C11_13 C 0.6250 0.6250 0.4001(2)
C12_13 C 0.6557(2) 0.6583(2) 0.41820(14)
H7_13 H 0.6759 0.6822 0.4082
C13_13 C 0.6250 0.6250 0.46646(19)
H8_13 H 0.6250 0.6250 0.4877
C14_13 C 0.6576(2) 0.6573(2) 0.44966(14)
C15_13 C 0.8994(3) 0.7196(2) 0.26763(17)
C16_13 C 0.6936(3) 0.6921(3) 0.46685(17)
C17_13 C 0.4136(2) 0.5501(2) 0.27905(14)
C18_13 C 0.4412(3) 0.5874(2) 0.26495(13)
H9_13 H 0.4240 0.6003 0.2474
C19_13 C 0.4940(3) 0.5470(3) 0.31526(16)
H10_13 H 0.5129 0.5325 0.3318
C20_13 C 0.5199(3) 0.5859(2) 0.30297(15)
C21_13 C 0.4944(3) 0.6053(3) 0.27723(13)
H11_13 H 0.5133 0.6306 0.2681
C22_13 C 0.4395(3) 0.5288(2) 0.30319(14)
H12_13 H 0.4215 0.5026 0.3117
C23_13 C 0.5761(2) 0.6060(2) 0.31987(14)
C24_13 C 0.5752(2) 0.6057(2) 0.35103(13)
H13_13 H 0.5421 0.5929 0.3614
C25_13 C 0.5943(2) 0.5917(2) 0.41820(14)
H14_13 H 0.5741 0.5678 0.4082
C26_13 C 0.5924(2) 0.5927(2) 0.44966(14)
C27_13 C 0.3506(3) 0.5304(2) 0.26763(17)
C28_13 C 0.5564(3) 0.5579(3) 0.46685(17)
H16_7 H 0.0366115 0.848888 0.312404
C1_14 C 0.8364(2) 0.1999(2) 0.77905(14)
C2_14 C 0.8088(3) 0.1626(2) 0.76495(13)
H1_14 H 0.8260 0.1497 0.7474
C3_14 C 0.7560(3) 0.2030(3) 0.81526(16)
H2_14 H 0.7371 0.2175 0.8318
C4_14 C 0.7301(3) 0.1641(2) 0.80297(15)
C5_14 C 0.7556(3) 0.1447(3) 0.77723(13)
H3_14 H 0.7367 0.1194 0.7681
C6_14 C 0.8105(3) 0.2212(2) 0.80319(14)
H4_14 H 0.8285 0.2474 0.8117
C7_14 C 0.6739(2) 0.1440(2) 0.81987(14)
C8_14 C 0.6250 0.1250 0.80415(19)
H5_14 H 0.6250 0.1250 0.7829
C9_14 C 0.6748(2) 0.1443(2) 0.85103(13)
H6_14 H 0.7079 0.1571 0.8614
C10_14 C 0.6250 0.1250 0.86750(18)
C11_14 C 0.6250 0.1250 0.9001(2)
C12_14 C 0.6557(2) 0.1583(2) 0.91820(14)
H7_14 H 0.6759 0.1822 0.9082
C13_14 C 0.6250 0.1250 0.96646(19)
H8_14 H 0.6250 0.1250 0.9877
C14_14 C 0.6576(2) 0.1573(2) 0.94966(14)
C15_14 C 0.8994(3) 0.2196(2) 0.76763(17)
C16_14 C 0.6936(3) 0.1921(3) 0.96685(17)
C17_14 C 0.4136(2) 0.0501(2) 0.77905(14)
C18_14 C 0.4412(3) 0.0874(2) 0.76495(13)
H9_14 H 0.4240 0.1003 0.7474
C19_14 C 0.4940(3) 0.0470(3) 0.81526(16)
H10_14 H 0.5129 0.0325 0.8318
C20_14 C 0.5199(3) 0.0859(2) 0.80297(15)
C21_14 C 0.4944(3) 0.1053(3) 0.77723(13)
H11_14 H 0.5133 0.1306 0.7681
C22_14 C 0.4395(3) 0.0288(2) 0.80319(14)
H12_14 H 0.4215 0.0026 0.8117
C23_14 C 0.5761(2) 0.1060(2) 0.81987(14)
C24_14 C 0.5752(2) 0.1057(2) 0.85103(13)
H13_14 H 0.5421 0.0929 0.8614
C25_14 C 0.5943(2) 0.0917(2) 0.91820(14)
H14_14 H 0.5741 0.0678 0.9082
C26_14 C 0.5924(2) 0.0927(2) 0.94966(14)
C27_14 C 0.3506(3) 0.0304(2) 0.76763(17)
C28_14 C 0.5564(3) 0.0579(3) 0.96685(17)
H16_8 H 0.0366115 0.348888 0.812404
C1_15 C 0.3364(2) 0.6999(2) 0.77905(14)
C2_15 C 0.3088(3) 0.6626(2) 0.76495(13)
H1_15 H 0.3260 0.6497 0.7474
C3_15 C 0.2560(3) 0.7030(3) 0.81526(16)
H2_15 H 0.2371 0.7175 0.8318
C4_15 C 0.2301(3) 0.6641(2) 0.80297(15)
C5_15 C 0.2556(3) 0.6447(3) 0.77723(13)
H3_15 H 0.2367 0.6194 0.7681
C6_15 C 0.3105(3) 0.7212(2) 0.80319(14)
H4_15 H 0.3285 0.7474 0.8117
C7_15 C 0.1739(2) 0.6440(2) 0.81987(14)
C8_15 C 0.1250 0.6250 0.80415(19)
H5_15 H 0.1250 0.6250 0.7829
C9_15 C 0.1748(2) 0.6443(2) 0.85103(13)
H6_15 H 0.2079 0.6571 0.8614
C10_15 C 0.1250 0.6250 0.86750(18)
C11_15 C 0.1250 0.6250 0.9001(2)
C12_15 C 0.1557(2) 0.6583(2) 0.91820(14)
H7_15 H 0.1759 0.6822 0.9082
C13_15 C 0.1250 0.6250 0.96646(19)
H8_15 H 0.1250 0.6250 0.9877
C14_15 C 0.1576(2) 0.6573(2) 0.94966(14)
C15_15 C 0.3994(3) 0.7196(2) 0.76763(17)
C16_15 C 0.1936(3) 0.6921(3) 0.96685(17)
H10_15 H 0.0129 0.5325 0.8318
C20_15 C 0.0199(3) 0.5859(2) 0.80297(15)
H11_15 H 0.0133 0.6306 0.7681
C23_15 C 0.0761(2) 0.6060(2) 0.81987(14)
C24_15 C 0.0752(2) 0.6057(2) 0.85103(13)
H13_15 H 0.0421 0.5929 0.8614
C25_15 C 0.0943(2) 0.5917(2) 0.91820(14)
H14_15 H 0.0741 0.5678 0.9082
C26_15 C 0.0924(2) 0.5927(2) 0.94966(14)
C28_15 C 0.0564(3) 0.5579(3) 0.96685(17)
C17_15 C 0.9136(2) 0.5501(2) 0.77905(14)
C18_15 C 0.9412(3) 0.5874(2) 0.76495(13)
H9_15 H 0.9240 0.6003 0.7474
C19_15 C 0.9940(3) 0.5470(3) 0.81526(16)
C21_15 C 0.9944(3) 0.6053(3) 0.77723(13)
C22_15 C 0.9395(3) 0.5288(2) 0.80319(14)
H12_15 H 0.9215 0.5026 0.8117
C27_15 C 0.8506(3) 0.5304(2) 0.76763(17)
C1_16 C 0.3364(2) 0.1999(2) 0.27905(14)
C2_16 C 0.3088(3) 0.1626(2) 0.26495(13)
H1_16 H 0.3260 0.1497 0.2474
C3_16 C 0.2560(3) 0.2030(3) 0.31526(16)
H2_16 H 0.2371 0.2175 0.3318
C4_16 C 0.2301(3) 0.1641(2) 0.30297(15)
C5_16 C 0.2556(3) 0.1447(3) 0.27723(13)
H3_16 H 0.2367 0.1194 0.2681
C6_16 C 0.3105(3) 0.2212(2) 0.30319(14)
H4_16 H 0.3285 0.2474 0.3117
C7_16 C 0.1739(2) 0.1440(2) 0.31987(14)
C8_16 C 0.1250 0.1250 0.30415(19)
H5_16 H 0.1250 0.1250 0.2829
C9_16 C 0.1748(2) 0.1443(2) 0.35103(13)
H6_16 H 0.2079 0.1571 0.3614
C10_16 C 0.1250 0.1250 0.36750(18)
C11_16 C 0.1250 0.1250 0.4001(2)
C12_16 C 0.1557(2) 0.1583(2) 0.41820(14)
H7_16 H 0.1759 0.1822 0.4082
C13_16 C 0.1250 0.1250 0.46646(19)
H8_16 H 0.1250 0.1250 0.4877
C14_16 C 0.1576(2) 0.1573(2) 0.44966(14)
C15_16 C 0.3994(3) 0.2196(2) 0.26763(17)
C16_16 C 0.1936(3) 0.1921(3) 0.46685(17)
H10_16 H 0.0129 0.0325 0.3318
C20_16 C 0.0199(3) 0.0859(2) 0.30297(15)
H11_16 H 0.0133 0.1306 0.2681
C23_16 C 0.0761(2) 0.1060(2) 0.31987(14)
C24_16 C 0.0752(2) 0.1057(2) 0.35103(13)
H13_16 H 0.0421 0.0929 0.3614
C25_16 C 0.0943(2) 0.0917(2) 0.41820(14)
H14_16 H 0.0741 0.0678 0.4082
C26_16 C 0.0924(2) 0.0927(2) 0.44966(14)
C28_16 C 0.0564(3) 0.0579(3) 0.46685(17)
C17_16 C 0.9136(2) 0.0501(2) 0.27905(14)
C18_16 C 0.9412(3) 0.0874(2) 0.26495(13)
H9_16 H 0.9240 0.1003 0.2474
C19_16 C 0.9940(3) 0.0470(3) 0.31526(16)
C21_16 C 0.9944(3) 0.1053(3) 0.27723(13)
C22_16 C 0.9395(3) 0.0288(2) 0.30319(14)
H12_16 H 0.9215 0.0026 0.3117
C27_16 C 0.8506(3) 0.0304(2) 0.26763(17)
loop_
_geom_bond_atom_site_label_1
_geom_bond_atom_site_label_2
_geom_bond_site_symmetry_1
_geom_bond_site_symmetry_2
Cu1 O4 1_555 1_555
O1 C15 1_555 1_555
O2 C16 1_555 1_555
O5 C16 1_555 1_555
C1 C2 1_555 1_555
C3 H2 1_555 1_555
C4 C3 1_555 1_555
C5 C2 1_555 1_555
H3 C5 1_555 1_555
C6 C1 1_555 1_555
H4 C6 1_555 1_555
C7 C4 1_555 1_555
C8 C7 1_555 1_555
H5 C8 1_555 1_555
C9 C7 1_555 1_555
H6 C9 1_555 1_555
C10 C9 1_555 1_555
C11 C10 1_555 1_555
C12 C11 1_555 1_555
H7 C12 1_555 1_555
C13 H8 1_555 1_555
C14 C12 1_555 1_555
C15 C1 1_555 1_555
C16 C14 1_555 1_555
Cu3 O2 1_555 1_555
Cu5 O5 1_555 1_555
Cu7 O8 1_555 1_555
Cu8 O14 1_555 1_555
O6 Cu1 1_555 1_555
O7 Cu3 1_555 1_555
O8 C28 1_555 1_555
O9 Cu1 1_555 1_555
O11 Cu1 1_555 1_555
O12 Cu3 1_555 1_555
O13 Cu3 1_555 1_555
O14 C28 1_555 1_555
O16 Cu3 1_555 1_555
C17 C18 1_555 1_555
C19 H10 1_555 1_555
C20 C19 1_555 1_555
C21 C18 1_555 1_555
H11 C21 1_555 1_555
C22 C17 1_555 1_555
H12 C22 1_555 1_555
C23 C8 1_555 1_555
C24 C10 1_555 1_555
H13 C24 1_555 1_555
C25 C11 1_555 1_555
H14 C25 1_555 1_555
C26 C13 1_555 1_555
C27 O6 1_555 1_555
C28 C26 1_555 1_555
C3 C6 1_555 1_555
C4 C5 1_555 1_555
C13 C14 1_555 1_555
C17 C27 1_555 1_555
C19 C22 1_555 1_555
C20 C21 1_555 1_555
C20 C23 1_555 1_555
C23 C24 1_555 1_555
C25 C26 1_555 1_555
Cu4 O3 1_555 1_555
Cu6 O10 1_555 1_555
O1_2 C15_2 1_555 1_555
O3_2 C15_2 1_555 1_555
C1_2 C2_2 1_555 1_555
C2_2 H1_2 1_555 1_555
C5_2 C2_2 1_555 1_555
C6_2 C1_2 1_555 1_555
H4_2 C6_2 1_555 1_555
C15_2 C1_2 1_555 1_555
Cu2_2 O1_2 1_555 1_555
Cu4_2 O3_2 1_555 1_555
C3_2 C6_2 1_555 1_555
Cu1_2 O4_2 1_555 1_555
O2_2 C16_2 1_555 1_555
O5_2 C16_2 1_555 1_555
C7_2 C4_2 1_555 1_555
C8_2 C7_2 1_555 1_555
H5_2 C8_2 1_555 1_555
C9_2 C7_2 1_555 1_555
H6_2 C9_2 1_555 1_555
C10_2 C9_2 1_555 1_555
C11_2 C10_2 1_555 1_555
C12_2 C11_2 1_555 1_555
H7_2 C12_2 1_555 1_555
C13_2 H8_2 1_555 1_555
C14_2 C12_2 1_555 1_555
C16_2 C14_2 1_555 1_555
Cu3_2 O2_2 1_555 1_555
Cu6_2 O10_2 1_555 1_555
Cu7_2 O8_2 1_555 1_555
Cu8_2 O14_2 1_555 1_555
O6_2 Cu1_2 1_555 1_555
O8_2 C28_2 1_555 1_555
O9_2 Cu1_2 1_555 1_555
O10_2 C27_2 1_555 1_555
O11_2 Cu1_2 1_555 1_555
O12_2 Cu3_2 1_555 1_555
O14_2 C28_2 1_555 1_555
O15_2 Cu1_2 1_555 1_555
C17_2 C18_2 1_555 1_555
C18_2 H9_2 1_555 1_555
C19_2 H10_2 1_555 1_555
C20_2 C19_2 1_555 1_555
C21_2 C18_2 1_555 1_555
H11_2 C21_2 1_555 1_555
C22_2 C17_2 1_555 1_555
H12_2 C22_2 1_555 1_555
C23_2 C8_2 1_555 1_555
C24_2 C10_2 1_555 1_555
H13_2 C24_2 1_555 1_555
C25_2 C11_2 1_555 1_555
H14_2 C25_2 1_555 1_555
C26_2 C13_2 1_555 1_555
C27_2 O6_2 1_555 1_555
C28_2 C26_2 1_555 1_555
C13_2 C14_2 1_555 1_555
C17_2 C27_2 1_555 1_555
C19_2 C22_2 1_555 1_555
C20_2 C21_2 1_555 1_555
C20_2 C23_2 1_555 1_555
C23_2 C24_2 1_555 1_555
C25_2 C26_2 1_555 1_555
O7_3 Cu3_3 1_555 1_555
O12_3 Cu3_3 1_555 1_555
O13_3 Cu3_3 1_555 1_555
O16_3 Cu3_3 1_555 1_555
Cu1_3 O4_3 1_555 1_555
O2_3 C16_3 1_555 1_555
O3_3 C15_3 1_555 1_555
O5_3 C16_3 1_555 1_555
C1_3 C2_3 1_555 1_555
C2_3 H1_3 1_555 1_555
C3_3 H2_3 1_555 1_555
C4_3 C3_3 1_555 1_555
C5_3 C2_3 1_555 1_555
H3_3 C5_3 1_555 1_555
C6_3 C1_3 1_555 1_555
H4_3 C6_3 1_555 1_555
C7_3 C4_3 1_555 1_555
C8_3 C7_3 1_555 1_555
H5_3 C8_3 1_555 1_555
C9_3 C7_3 1_555 1_555
H6_3 C9_3 1_555 1_555
C10_3 C9_3 1_555 1_555
C11_3 C10_3 1_555 1_555
C12_3 C11_3 1_555 1_555
H7_3 C12_3 1_555 1_555
C13_3 H8_3 1_555 1_555
C14_3 C12_3 1_555 1_555
C15_3 C1_3 1_555 1_555
C16_3 C14_3 1_555 1_555
Cu4_3 O3_3 1_555 1_555
Cu5_3 O5_3 1_555 1_555
Cu6_3 O10_3 1_555 1_555
Cu7_3 O8_3 1_555 1_555
Cu8_3 O14_3 1_555 1_555
O6_3 Cu1_3 1_555 1_555
O8_3 C28_3 1_555 1_555
O9_3 Cu1_3 1_555 1_555
O10_3 C27_3 1_555 1_555
O11_3 Cu1_3 1_555 1_555
O14_3 C28_3 1_555 1_555
O15_3 Cu1_3 1_555 1_555
C17_3 C18_3 1_555 1_555
C18_3 H9_3 1_555 1_555
C19_3 H10_3 1_555 1_555
C20_3 C19_3 1_555 1_555
C21_3 C18_3 1_555 1_555
H11_3 C21_3 1_555 1_555
C22_3 C17_3 1_555 1_555
H12_3 C22_3 1_555 1_555
C23_3 C8_3 1_555 1_555
C24_3 C10_3 1_555 1_555
H13_3 C24_3 1_555 1_555
C25_3 C11_3 1_555 1_555
H14_3 C25_3 1_555 1_555
C26_3 C13_3 1_555 1_555
C27_3 O6_3 1_555 1_555
C28_3 C26_3 1_555 1_555
C3_3 C6_3 1_555 1_555
C4_3 C5_3 1_555 1_555
C13_3 C14_3 1_555 1_555
C17_3 C27_3 1_555 1_555
C19_3 C22_3 1_555 1_555
C20_3 C21_3 1_555 1_555
C20_3 C23_3 1_555 1_555
C23_3 C24_3 1_555 1_555
C25_3 C26_3 1_555 1_555
O1_4 C15_4 1_555 1_555
C1_4 C2_4 1_555 1_555
C5_4 C2_4 1_555 1_555
C6_4 C1_4 1_555 1_555
H4_4 C6_4 1_555 1_555
C15_4 C1_4 1_555 1_555
Cu2_4 O1_4 1_555 1_555
C3_4 C6_4 1_555 1_555
Cu4_4 O3_4 1_555 1_555
Cu1_4 O4_4 1_555 1_555
O6_4 Cu1_4 1_555 1_555
O11_4 Cu1_4 1_555 1_555
O2_4 C16_4 1_555 1_555
O5_4 C16_4 1_555 1_555
C7_4 C4_4 1_555 1_555
C8_4 C7_4 1_555 1_555
H5_4 C8_4 1_555 1_555
C9_4 C7_4 1_555 1_555
H6_4 C9_4 1_555 1_555
C10_4 C9_4 1_555 1_555
C11_4 C10_4 1_555 1_555
C12_4 C11_4 1_555 1_555
H7_4 C12_4 1_555 1_555
C13_4 H8_4 1_555 1_555
C14_4 C12_4 1_555 1_555
C16_4 C14_4 1_555 1_555
Cu3_4 O2_4 1_555 1_555
Cu8_4 O14_4 1_555 1_555
O8_4 C28_4 1_555 1_555
O12_4 Cu3_4 1_555 1_555
O14_4 C28_4 1_555 1_555
C17_4 C18_4 1_555 1_555
C19_4 H10_4 1_555 1_555
C20_4 C19_4 1_555 1_555
C21_4 C18_4 1_555 1_555
H11_4 C21_4 1_555 1_555
C22_4 C17_4 1_555 1_555
H12_4 C22_4 1_555 1_555
C23_4 C8_4 1_555 1_555
C24_4 C10_4 1_555 1_555
H13_4 C24_4 1_555 1_555
C25_4 C11_4 1_555 1_555
H14_4 C25_4 1_555 1_555
C26_4 C13_4 1_555 1_555
C28_4 C26_4 1_555 1_555
C13_4 C14_4 1_555 1_555
C17_4 C27_4 1_555 1_555
C19_4 C22_4 1_555 1_555
C20_4 C21_4 1_555 1_555
C20_4 C23_4 1_555 1_555
C23_4 C24_4 1_555 1_555
C25_4 C26_4 1_555 1_555
Cu6_4 O10_4 1_555 1_555
Cu2_2 O4_5 1_555 1_555
O9_5 Cu2_2 1_555 1_555
O11_5 Cu2_2 1_555 1_555
O15_5 Cu2_2 1_555 1_555
O7_5 Cu7_2 1_555 1_555
O12_5 Cu7_2 1_555 1_555
O13_5 Cu7_2 1_555 1_555
O16_5 Cu7_2 1_555 1_555
O7_6 Cu7 1_555 1_555
O12_6 Cu7 1_555 1_555
O13_6 Cu7 1_555 1_555
O16_6 Cu7 1_555 1_555
O9_6 Cu2 1_555 1_555
O11_6 Cu2 1_555 1_555
Cu2_4 O4_7 1_555 1_555
O9_7 Cu2_4 1_555 1_555
O11_7 Cu2_4 1_555 1_555
O7_7 Cu7_4 1_555 1_555
O12_7 Cu7_4 1_555 1_555
O13_7 Cu7_4 1_555 1_555
O16_7 Cu7_4 1_555 1_555
O7_8 Cu7_3 1_555 1_555
O12_8 Cu7_3 1_555 1_555
O13_8 Cu7_3 1_555 1_555
O16_8 Cu7_3 1_555 1_555
O11_8 Cu2_3 1_555 1_555
O7_2 C15_5 1_555 1_555
O9_5 C16_5 1_555 1_555
O3_5 C15_5 1_555 1_555
O5_5 C16_5 1_555 1_555
C1_5 C2_5 1_555 1_555
C2_5 H1_5 1_555 1_555
C3_5 H2_5 1_555 1_555
C4_5 C3_5 1_555 1_555
C5_5 C2_5 1_555 1_555
H3_5 C5_5 1_555 1_555
C6_5 C1_5 1_555 1_555
H4_5 C6_5 1_555 1_555
C7_5 C4_5 1_555 1_555
C8_5 C7_5 1_555 1_555
H5_5 C8_5 1_555 1_555
C9_5 C7_5 1_555 1_555
H6_5 C9_5 1_555 1_555
C10_5 C9_5 1_555 1_555
C11_5 C10_5 1_555 1_555
C12_5 C11_5 1_555 1_555
H7_5 C12_5 1_555 1_555
C13_5 H8_5 1_555 1_555
C14_5 C12_5 1_555 1_555
C15_5 C1_5 1_555 1_555
C16_5 C14_5 1_555 1_555
Cu5_2 O3_5 1_555 1_555
Cu4_2 O5_5 1_555 1_555
Cu8_2 O10_5 1_555 1_555
Cu6_2 O14_5 1_555 1_555
O9_2 C28_5 1_555 1_555
O10_5 C27_5 1_555 1_555
O14_5 C28_5 1_555 1_555
C17_5 C18_5 1_555 1_555
C18_5 H9_5 1_555 1_555
C19_5 H10_5 1_555 1_555
C20_5 C19_5 1_555 1_555
C21_5 C18_5 1_555 1_555
H11_5 C21_5 1_555 1_555
C22_5 C17_5 1_555 1_555
H12_5 C22_5 1_555 1_555
C23_5 C8_5 1_555 1_555
C24_5 C10_5 1_555 1_555
H13_5 C24_5 1_555 1_555
C25_5 C11_5 1_555 1_555
H14_5 C25_5 1_555 1_555
C26_5 C13_5 1_555 1_555
C27_5 O7_5 1_555 1_555
C28_5 C26_5 1_555 1_555
C3_5 C6_5 1_555 1_555
C4_5 C5_5 1_555 1_555
C13_5 C14_5 1_555 1_555
C17_5 C27_5 1_555 1_555
C19_5 C22_5 1_555 1_555
C20_5 C21_5 1_555 1_555
C20_5 C23_5 1_555 1_555
C23_5 C24_5 1_555 1_555
C25_5 C26_5 1_555 1_555
O7_4 C15_6 1_555 1_555
O9_7 C16_6 1_555 1_555
O3_6 C15_6 1_555 1_555
O5_6 C16_6 1_555 1_555
C1_6 C2_6 1_555 1_555
C2_6 H1_6 1_555 1_555
C3_6 H2_6 1_555 1_555
C4_6 C3_6 1_555 1_555
C5_6 C2_6 1_555 1_555
H3_6 C5_6 1_555 1_555
C6_6 C1_6 1_555 1_555
H4_6 C6_6 1_555 1_555
C7_6 C4_6 1_555 1_555
C8_6 C7_6 1_555 1_555
H5_6 C8_6 1_555 1_555
C9_6 C7_6 1_555 1_555
H6_6 C9_6 1_555 1_555
C10_6 C9_6 1_555 1_555
C11_6 C10_6 1_555 1_555
C12_6 C11_6 1_555 1_555
H7_6 C12_6 1_555 1_555
C13_6 H8_6 1_555 1_555
C14_6 C12_6 1_555 1_555
C15_6 C1_6 1_555 1_555
C16_6 C14_6 1_555 1_555
Cu5_4 O3_6 1_555 1_555
Cu8_4 O10_6 1_555 1_555
O9_4 C28_6 1_555 1_555
O10_6 C27_6 1_555 1_555
O14_6 C28_6 1_555 1_555
C17_6 C18_6 1_555 1_555
C18_6 H9_6 1_555 1_555
C19_6 H10_6 1_555 1_555
C20_6 C19_6 1_555 1_555
C21_6 C18_6 1_555 1_555
H11_6 C21_6 1_555 1_555
C22_6 C17_6 1_555 1_555
H12_6 C22_6 1_555 1_555
C23_6 C8_6 1_555 1_555
C24_6 C10_6 1_555 1_555
H13_6 C24_6 1_555 1_555
C25_6 C11_6 1_555 1_555
H14_6 C25_6 1_555 1_555
C26_6 C13_6 1_555 1_555
C28_6 C26_6 1_555 1_555
C3_6 C6_6 1_555 1_555
C4_6 C5_6 1_555 1_555
C13_6 C14_6 1_555 1_555
C17_6 C27_6 1_555 1_555
C19_6 C22_6 1_555 1_555
C20_6 C21_6 1_555 1_555
C20_6 C23_6 1_555 1_555
C23_6 C24_6 1_555 1_555
C25_6 C26_6 1_555 1_555
Cu5 O10_7 1_555 1_555
O10_7 C27_7 1_555 1_555
C17_7 C18_7 1_555 1_555
C18_7 H9_7 1_555 1_555
C21_7 C18_7 1_555 1_555
C22_7 C17_7 1_555 1_555
H12_7 C22_7 1_555 1_555
C27_7 O7 1_555 1_555
C17_7 C27_7 1_555 1_555
C19_7 C22_7 1_555 1_555
O7_6 C15_7 1_555 1_555
O9 C16_7 1_555 1_555
O3_7 C15_7 1_555 1_555
O5_7 C16_7 1_555 1_555
C1_7 C2_7 1_555 1_555
C2_7 H1_7 1_555 1_555
C3_7 H2_7 1_555 1_555
C4_7 C3_7 1_555 1_555
C5_7 C2_7 1_555 1_555
H3_7 C5_7 1_555 1_555
C6_7 C1_7 1_555 1_555
H4_7 C6_7 1_555 1_555
C7_7 C4_7 1_555 1_555
C8_7 C7_7 1_555 1_555
H5_7 C8_7 1_555 1_555
C9_7 C7_7 1_555 1_555
H6_7 C9_7 1_555 1_555
C10_7 C9_7 1_555 1_555
C11_7 C10_7 1_555 1_555
C12_7 C11_7 1_555 1_555
H7_7 C12_7 1_555 1_555
C13_7 H8_7 1_555 1_555
C14_7 C12_7 1_555 1_555
C15_7 C1_7 1_555 1_555
C16_7 C14_7 1_555 1_555
Cu8 O3_7 1_555 1_555
O9_6 C28_7 1_555 1_555
O14_7 C28_7 1_555 1_555
C23_7 C8_7 1_555 1_555
C24_7 C10_7 1_555 1_555
H13_7 C24_7 1_555 1_555
C25_7 C11_7 1_555 1_555
H14_7 C25_7 1_555 1_555
C26_7 C13_7 1_555 1_555
C28_7 C26_7 1_555 1_555
C3_7 C6_7 1_555 1_555
C4_7 C5_7 1_555 1_555
C13_7 C14_7 1_555 1_555
C20_7 C23_7 1_555 1_555
C23_7 C24_7 1_555 1_555
C25_7 C26_7 1_555 1_555
Cu5_3 O10_8 1_555 1_555
O10_8 C27_8 1_555 1_555
C17_8 C18_8 1_555 1_555
C18_8 H9_8 1_555 1_555
C21_8 C18_8 1_555 1_555
C22_8 C17_8 1_555 1_555
H12_8 C22_8 1_555 1_555
C17_8 C27_8 1_555 1_555
C19_8 C22_8 1_555 1_555
O7_8 C15_8 1_555 1_555
O9_3 C16_8 1_555 1_555
O3_8 C15_8 1_555 1_555
O5_8 C16_8 1_555 1_555
C1_8 C2_8 1_555 1_555
C2_8 H1_8 1_555 1_555
C3_8 H2_8 1_555 1_555
C4_8 C3_8 1_555 1_555
C5_8 C2_8 1_555 1_555
H3_8 C5_8 1_555 1_555
C6_8 C1_8 1_555 1_555
H4_8 C6_8 1_555 1_555
C7_8 C4_8 1_555 1_555
C8_8 C7_8 1_555 1_555
H5_8 C8_8 1_555 1_555
C9_8 C7_8 1_555 1_555
H6_8 C9_8 1_555 1_555
C10_8 C9_8 1_555 1_555
C11_8 C10_8 1_555 1_555
C12_8 C11_8 1_555 1_555
H7_8 C12_8 1_555 1_555
C13_8 H8_8 1_555 1_555
C14_8 C12_8 1_555 1_555
C15_8 C1_8 1_555 1_555
C16_8 C14_8 1_555 1_555
Cu8_3 O3_8 1_555 1_555
Cu6_3 O5_8 1_555 1_555
O9_8 C28_8 1_555 1_555
O14_8 C28_8 1_555 1_555
C23_8 C8_8 1_555 1_555
C24_8 C10_8 1_555 1_555
H13_8 C24_8 1_555 1_555
C25_8 C11_8 1_555 1_555
H14_8 C25_8 1_555 1_555
C26_8 C13_8 1_555 1_555
C28_8 C26_8 1_555 1_555
C3_8 C6_8 1_555 1_555
C4_8 C5_8 1_555 1_555
C13_8 C14_8 1_555 1_555
C20_8 C23_8 1_555 1_555
C23_8 C24_8 1_555 1_555
C25_8 C26_8 1_555 1_555
Cu4_4 O4_9 1_555 1_555
O1_5 C15_9 1_555 1_555
O2_5 C16_9 1_555 1_555
O16_5 C16_9 1_555 1_555
C1_9 C2_9 1_555 1_555
C3_9 H2_9 1_555 1_555
C4_9 C3_9 1_555 1_555
C5_9 C2_9 1_555 1_555
H3_9 C5_9 1_555 1_555
C6_9 C1_9 1_555 1_555
H4_9 C6_9 1_555 1_555
C7_9 C4_9 1_555 1_555
C8_9 C7_9 1_555 1_555
H5_9 C8_9 1_555 1_555
C9_9 C7_9 1_555 1_555
H6_9 C9_9 1_555 1_555
C10_9 C9_9 1_555 1_555
C11_9 C10_9 1_555 1_555
C12_9 C11_9 1_555 1_555
H7_9 C12_9 1_555 1_555
C13_9 H8_9 1_555 1_555
C14_9 C12_9 1_555 1_555
C15_9 C1_9 1_555 1_555
C16_9 C14_9 1_555 1_555
Cu8_2 O2_5 1_555 1_555
Cu8_3 O8_5 1_555 1_555
O6_5 Cu4_4 1_555 1_555
O7_9 Cu8_2 1_555 1_555
O8_5 C28_9 1_555 1_555
O9_9 Cu4_4 1_555 1_555
O13_9 Cu8_2 1_555 1_555
O16_8 C28_9 1_555 1_555
C17_9 C18_9 1_555 1_555
C19_9 H10_9 1_555 1_555
C20_9 C19_9 1_555 1_555
C21_9 C18_9 1_555 1_555
H11_9 C21_9 1_555 1_555
C22_9 C17_9 1_555 1_555
H12_9 C22_9 1_555 1_555
C23_9 C8_9 1_555 1_555
C24_9 C10_9 1_555 1_555
H13_9 C24_9 1_555 1_555
C25_9 C11_9 1_555 1_555
H14_9 C25_9 1_555 1_555
C26_9 C13_9 1_555 1_555
C27_9 O6_5 1_555 1_555
C28_9 C26_9 1_555 1_555
C3_9 C6_9 1_555 1_555
C4_9 C5_9 1_555 1_555
C13_9 C14_9 1_555 1_555
C17_9 C27_9 1_555 1_555
C19_9 C22_9 1_555 1_555
C20_9 C21_9 1_555 1_555
C20_9 C23_9 1_555 1_555
C23_9 C24_9 1_555 1_555
C25_9 C26_9 1_555 1_555
Cu6_2 O4_10 1_555 1_555
O2_6 C16_10 1_555 1_555
O16_4 C16_10 1_555 1_555
C7_10 C4_10 1_555 1_555
C8_10 C7_10 1_555 1_555
H5_10 C8_10 1_555 1_555
C9_10 C7_10 1_555 1_555
H6_10 C9_10 1_555 1_555
C10_10 C9_10 1_555 1_555
C11_10 C10_10 1_555 1_555
C12_10 C11_10 1_555 1_555
H7_10 C12_10 1_555 1_555
C13_10 H8_10 1_555 1_555
C14_10 C12_10 1_555 1_555
C16_10 C14_10 1_555 1_555
Cu5_4 O2_6 1_555 1_555
Cu5 O8_6 1_555 1_555
O6_6 Cu6_2 1_555 1_555
O8_6 C28_10 1_555 1_555
O9_10 Cu6_2 1_555 1_555
O11_2 C27_10 1_555 1_555
O16 C28_10 1_555 1_555
C17_10 C18_10 1_555 1_555
C18_10 H9_10 1_555 1_555
C19_10 H10_10 1_555 1_555
C20_10 C19_10 1_555 1_555
C21_10 C18_10 1_555 1_555
H11_10 C21_10 1_555 1_555
C22_10 C17_10 1_555 1_555
H12_10 C22_10 1_555 1_555
C23_10 C8_10 1_555 1_555
C24_10 C10_10 1_555 1_555
H13_10 C24_10 1_555 1_555
C25_10 C11_10 1_555 1_555
H14_10 C25_10 1_555 1_555
C26_10 C13_10 1_555 1_555
C27_10 O6_6 1_555 1_555
C28_10 C26_10 1_555 1_555
C13_10 C14_10 1_555 1_555
C17_10 C27_10 1_555 1_555
C19_10 C22_10 1_555 1_555
C20_10 C21_10 1_555 1_555
C20_10 C23_10 1_555 1_555
C23_10 C24_10 1_555 1_555
C25_10 C26_10 1_555 1_555
O1_6 C15_10 1_555 1_555
O11_3 C15_10 1_555 1_555
C1_10 C2_10 1_555 1_555
C2_10 H1_10 1_555 1_555
C5_10 C2_10 1_555 1_555
C6_10 C1_10 1_555 1_555
H4_10 C6_10 1_555 1_555
C15_10 C1_10 1_555 1_555
Cu6_3 O1_6 1_555 1_555
C3_10 C6_10 1_555 1_555
Cu4_2 O4_11 1_555 1_555
O2_7 C16_11 1_555 1_555
O11_8 C15_11 1_555 1_555
O16_7 C16_11 1_555 1_555
C1_11 C2_11 1_555 1_555
C2_11 H1_11 1_555 1_555
C3_11 H2_11 1_555 1_555
C4_11 C3_11 1_555 1_555
C5_11 C2_11 1_555 1_555
H3_11 C5_11 1_555 1_555
C6_11 C1_11 1_555 1_555
H4_11 C6_11 1_555 1_555
C7_11 C4_11 1_555 1_555
C8_11 C7_11 1_555 1_555
H5_11 C8_11 1_555 1_555
C9_11 C7_11 1_555 1_555
H6_11 C9_11 1_555 1_555
C10_11 C9_11 1_555 1_555
C11_11 C10_11 1_555 1_555
C12_11 C11_11 1_555 1_555
H7_11 C12_11 1_555 1_555
C13_11 H8_11 1_555 1_555
C14_11 C12_11 1_555 1_555
C15_11 C1_11 1_555 1_555
C16_11 C14_11 1_555 1_555
Cu8 O8_7 1_555 1_555
O6_7 Cu4_2 1_555 1_555
O8_7 C28_11 1_555 1_555
O9_11 Cu4_2 1_555 1_555
O11_5 C27_11 1_555 1_555
O16_6 C28_11 1_555 1_555
C17_11 C18_11 1_555 1_555
C18_11 H9_11 1_555 1_555
C19_11 H10_11 1_555 1_555
C20_11 C19_11 1_555 1_555
C21_11 C18_11 1_555 1_555
H11_11 C21_11 1_555 1_555
C22_11 C17_11 1_555 1_555
H12_11 C22_11 1_555 1_555
C23_11 C8_11 1_555 1_555
C24_11 C10_11 1_555 1_555
H13_11 C24_11 1_555 1_555
C25_11 C11_11 1_555 1_555
H14_11 C25_11 1_555 1_555
C26_11 C13_11 1_555 1_555
C27_11 O6_7 1_555 1_555
C28_11 C26_11 1_555 1_555
C3_11 C6_11 1_555 1_555
C4_11 C5_11 1_555 1_555
C13_11 C14_11 1_555 1_555
C17_11 C27_11 1_555 1_555
C19_11 C22_11 1_555 1_555
C20_11 C21_11 1_555 1_555
C20_11 C23_11 1_555 1_555
C23_11 C24_11 1_555 1_555
C25_11 C26_11 1_555 1_555
O7_11 Cu8_4 1_555 1_555
O13_11 Cu8_4 1_555 1_555
O2_8 C16_12 1_555 1_555
O16_2 C16_12 1_555 1_555
C7_12 C4_12 1_555 1_555
C8_12 C7_12 1_555 1_555
H5_12 C8_12 1_555 1_555
C9_12 C7_12 1_555 1_555
H6_12 C9_12 1_555 1_555
C10_12 C9_12 1_555 1_555
C11_12 C10_12 1_555 1_555
C12_12 C11_12 1_555 1_555
H7_12 C12_12 1_555 1_555
C13_12 H8_12 1_555 1_555
C14_12 C12_12 1_555 1_555
C16_12 C14_12 1_555 1_555
Cu5_2 O2_8 1_555 1_555
O8_8 C28_12 1_555 1_555
O16_3 C28_12 1_555 1_555
C17_12 C18_12 1_555 1_555
C19_12 H10_12 1_555 1_555
C20_12 C19_12 1_555 1_555
C21_12 C18_12 1_555 1_555
H11_12 C21_12 1_555 1_555
C22_12 C17_12 1_555 1_555
H12_12 C22_12 1_555 1_555
C23_12 C8_12 1_555 1_555
C24_12 C10_12 1_555 1_555
H13_12 C24_12 1_555 1_555
C25_12 C11_12 1_555 1_555
H14_12 C25_12 1_555 1_555
C26_12 C13_12 1_555 1_555
C28_12 C26_12 1_555 1_555
C13_12 C14_12 1_555 1_555
C17_12 C27_12 1_555 1_555
C19_12 C22_12 1_555 1_555
C20_12 C21_12 1_555 1_555
C20_12 C23_12 1_555 1_555
C23_12 C24_12 1_555 1_555
C25_12 C26_12 1_555 1_555
Cu6_4 O4_12 1_555 1_555
O6_8 Cu6_4 1_555 1_555
O1_8 C15_12 1_555 1_555
C1_12 C2_12 1_555 1_555
C5_12 C2_12 1_555 1_555
C6_12 C1_12 1_555 1_555
H4_12 C6_12 1_555 1_555
C15_12 C1_12 1_555 1_555
Cu6 O1_8 1_555 1_555
C3_12 C6_12 1_555 1_555
O7_13 Cu5 1_555 1_555
O13_13 Cu5 1_555 1_555
Cu6_3 O4_13 1_555 1_555
O9_13 Cu6_3 1_555 1_555
O9_14 Cu4 1_555 1_555
O7_14 Cu8_3 1_555 1_555
O13_14 Cu8_3 1_555 1_555
O7_15 Cu5_3 1_555 1_555
O13_15 Cu5_3 1_555 1_555
Cu6 O4_15 1_555 1_555
O9_15 Cu6 1_555 1_555
O7_16 Cu8 1_555 1_555
O13_16 Cu8 1_555 1_555
O7_10 C15_13 1_555 1_555
O9_13 C16_13 1_555 1_555
O12_4 C15_13 1_555 1_555
O15_3 C16_13 1_555 1_555
C1_13 C2_13 1_555 1_555
C2_13 H1_13 1_555 1_555
C3_13 H2_13 1_555 1_555
C4_13 C3_13 1_555 1_555
C5_13 C2_13 1_555 1_555
H3_13 C5_13 1_555 1_555
C6_13 C1_13 1_555 1_555
H4_13 C6_13 1_555 1_555
C7_13 C4_13 1_555 1_555
C8_13 C7_13 1_555 1_555
H5_13 C8_13 1_555 1_555
C9_13 C7_13 1_555 1_555
H6_13 C9_13 1_555 1_555
C10_13 C9_13 1_555 1_555
C11_13 C10_13 1_555 1_555
C12_13 C11_13 1_555 1_555
H7_13 C12_13 1_555 1_555
C13_13 H8_13 1_555 1_555
C14_13 C12_13 1_555 1_555
C15_13 C1_13 1_555 1_555
C16_13 C14_13 1_555 1_555
O9_10 C28_13 1_555 1_555
O12 C27_13 1_555 1_555
O15_2 C28_13 1_555 1_555
C17_13 C18_13 1_555 1_555
C18_13 H9_13 1_555 1_555
C19_13 H10_13 1_555 1_555
C20_13 C19_13 1_555 1_555
C21_13 C18_13 1_555 1_555
H11_13 C21_13 1_555 1_555
C22_13 C17_13 1_555 1_555
H12_13 C22_13 1_555 1_555
C23_13 C8_13 1_555 1_555
C24_13 C10_13 1_555 1_555
H13_13 C24_13 1_555 1_555
C25_13 C11_13 1_555 1_555
H14_13 C25_13 1_555 1_555
C26_13 C13_13 1_555 1_555
C27_13 O7_13 1_555 1_555
C28_13 C26_13 1_555 1_555
C3_13 C6_13 1_555 1_555
C4_13 C5_13 1_555 1_555
C13_13 C14_13 1_555 1_555
C17_13 C27_13 1_555 1_555
C19_13 C22_13 1_555 1_555
C20_13 C21_13 1_555 1_555
C20_13 C23_13 1_555 1_555
C23_13 C24_13 1_555 1_555
C25_13 C26_13 1_555 1_555
O7_12 C15_14 1_555 1_555
O9_15 C16_14 1_555 1_555
O12_2 C15_14 1_555 1_555
O15 C16_14 1_555 1_555
C1_14 C2_14 1_555 1_555
C2_14 H1_14 1_555 1_555
C3_14 H2_14 1_555 1_555
C4_14 C3_14 1_555 1_555
C5_14 C2_14 1_555 1_555
H3_14 C5_14 1_555 1_555
C6_14 C1_14 1_555 1_555
H4_14 C6_14 1_555 1_555
C7_14 C4_14 1_555 1_555
C8_14 C7_14 1_555 1_555
H5_14 C8_14 1_555 1_555
C9_14 C7_14 1_555 1_555
H6_14 C9_14 1_555 1_555
C10_14 C9_14 1_555 1_555
C11_14 C10_14 1_555 1_555
C12_14 C11_14 1_555 1_555
H7_14 C12_14 1_555 1_555
C13_14 H8_14 1_555 1_555
C14_14 C12_14 1_555 1_555
C15_14 C1_14 1_555 1_555
C16_14 C14_14 1_555 1_555
O9_12 C28_14 1_555 1_555
O12_3 C27_14 1_555 1_555
O15_4 C28_14 1_555 1_555
C17_14 C18_14 1_555 1_555
C18_14 H9_14 1_555 1_555
C19_14 H10_14 1_555 1_555
C20_14 C19_14 1_555 1_555
C21_14 C18_14 1_555 1_555
H11_14 C21_14 1_555 1_555
C22_14 C17_14 1_555 1_555
H12_14 C22_14 1_555 1_555
C23_14 C8_14 1_555 1_555
C24_14 C10_14 1_555 1_555
H13_14 C24_14 1_555 1_555
C25_14 C11_14 1_555 1_555
H14_14 C25_14 1_555 1_555
C26_14 C13_14 1_555 1_555
C28_14 C26_14 1_555 1_555
C3_14 C6_14 1_555 1_555
C4_14 C5_14 1_555 1_555
C13_14 C14_14 1_555 1_555
C17_14 C27_14 1_555 1_555
C19_14 C22_14 1_555 1_555
C20_14 C21_14 1_555 1_555
C20_14 C23_14 1_555 1_555
C23_14 C24_14 1_555 1_555
C25_14 C26_14 1_555 1_555
O7_14 C15_15 1_555 1_555
O9_9 C16_15 1_555 1_555
O12_8 C15_15 1_555 1_555
O15_7 C16_15 1_555 1_555
C1_15 C2_15 1_555 1_555
C2_15 H1_15 1_555 1_555
C3_15 H2_15 1_555 1_555
C4_15 C3_15 1_555 1_555
C5_15 C2_15 1_555 1_555
H3_15 C5_15 1_555 1_555
C6_15 C1_15 1_555 1_555
H4_15 C6_15 1_555 1_555
C7_15 C4_15 1_555 1_555
C8_15 C7_15 1_555 1_555
H5_15 C8_15 1_555 1_555
C9_15 C7_15 1_555 1_555
H6_15 C9_15 1_555 1_555
C10_15 C9_15 1_555 1_555
C11_15 C10_15 1_555 1_555
C12_15 C11_15 1_555 1_555
H7_15 C12_15 1_555 1_555
C13_15 H8_15 1_555 1_555
C14_15 C12_15 1_555 1_555
C15_15 C1_15 1_555 1_555
C16_15 C14_15 1_555 1_555
O9_14 C28_15 1_555 1_555
O15_6 C28_15 1_555 1_555
C23_15 C8_15 1_555 1_555
C24_15 C10_15 1_555 1_555
H13_15 C24_15 1_555 1_555
C25_15 C11_15 1_555 1_555
H14_15 C25_15 1_555 1_555
C26_15 C13_15 1_555 1_555
C28_15 C26_15 1_555 1_555
C3_15 C6_15 1_555 1_555
C4_15 C5_15 1_555 1_555
C13_15 C14_15 1_555 1_555
C20_15 C23_15 1_555 1_555
C23_15 C24_15 1_555 1_555
C25_15 C26_15 1_555 1_555
O12_5 C27_15 1_555 1_555
C17_15 C18_15 1_555 1_555
C18_15 H9_15 1_555 1_555
C21_15 C18_15 1_555 1_555
C22_15 C17_15 1_555 1_555
H12_15 C22_15 1_555 1_555
C27_15 O7_9 1_555 1_555
C17_15 C27_15 1_555 1_555
C19_15 C22_15 1_555 1_555
O7_16 C15_16 1_555 1_555
O9_11 C16_16 1_555 1_555
O12_6 C15_16 1_555 1_555
O15_5 C16_16 1_555 1_555
C1_16 C2_16 1_555 1_555
C2_16 H1_16 1_555 1_555
C3_16 H2_16 1_555 1_555
C4_16 C3_16 1_555 1_555
C5_16 C2_16 1_555 1_555
H3_16 C5_16 1_555 1_555
C6_16 C1_16 1_555 1_555
H4_16 C6_16 1_555 1_555
C7_16 C4_16 1_555 1_555
C8_16 C7_16 1_555 1_555
H5_16 C8_16 1_555 1_555
C9_16 C7_16 1_555 1_555
H6_16 C9_16 1_555 1_555
C10_16 C9_16 1_555 1_555
C11_16 C10_16 1_555 1_555
C12_16 C11_16 1_555 1_555
H7_16 C12_16 1_555 1_555
C13_16 H8_16 1_555 1_555
C14_16 C12_16 1_555 1_555
C15_16 C1_16 1_555 1_555
C16_16 C14_16 1_555 1_555
O9_16 C28_16 1_555 1_555
O15_8 C28_16 1_555 1_555
C23_16 C8_16 1_555 1_555
C24_16 C10_16 1_555 1_555
H13_16 C24_16 1_555 1_555
C25_16 C11_16 1_555 1_555
H14_16 C25_16 1_555 1_555
C26_16 C13_16 1_555 1_555
C28_16 C26_16 1_555 1_555
C3_16 C6_16 1_555 1_555
C4_16 C5_16 1_555 1_555
C13_16 C14_16 1_555 1_555
C20_16 C23_16 1_555 1_555
C23_16 C24_16 1_555 1_555
C25_16 C26_16 1_555 1_555
O12_7 C27_16 1_555 1_555
C17_16 C18_16 1_555 1_555
C18_16 H9_16 1_555 1_555
C21_16 C18_16 1_555 1_555
C22_16 C17_16 1_555 1_555
H12_16 C22_16 1_555 1_555
C17_16 C27_16 1_555 1_555
C19_16 C22_16 1_555 1_555

#END
