
###############################################################################
#
# This file contains modified crystal structure data generated from the
# MOF subset of the Cambridge Structural Database (CSD) v543 
# hosted by the Cambridge Crystallographic Data Centre (CCDC).
#
# This work is licensed under the Creative Commons
# Attribution-NonCommercial-ShareAlike 4.0 International License.
# To view a copy of this license, visit
# http://creativecommons.org/licenses/by-nc-sa/4.0/
# or send a letter to
# Creative Commons, PO Box 1866, Mountain View, CA 94042, USA.
#
# CIF created using the CSD Python API on 29 September 2022
# The structure has been converted into the P1 space group
# The structure has a 3D framework
# The original CSD entry ANUGEW is in the orthorhombic crystal system
# The framework has been calculated to contain at least 10.0% void space
# The void calculation uses a probe of radius 1.32A, grid spacing 0.4
# H atom positions have been added when not included in the experimental data
# Generated hydrogen atom positions removed from atoms on special positions
#
###############################################################################

data_ANUGEW
_chemical_formula_moiety         '(C360 H296 Cu36 O132)n'
_symmetry_cell_setting           triclinic
_symmetry_space_group_name_H-M   'P 1'
_symmetry_Int_Tables_number      1
_space_group_name_Hall           'P 1'
loop_
_symmetry_equiv_pos_site_id
_symmetry_equiv_pos_as_xyz
1 x,y,z
_cell_length_a                   24.6055(17)
_cell_length_b                   33.271(2)
_cell_length_c                   33.271(2)
_cell_angle_alpha                90
_cell_angle_beta                 90
_cell_angle_gamma                90
_cell_volume                     27237.3
loop_
_atom_site_label
_atom_site_type_symbol
_atom_site_fract_x
_atom_site_fract_y
_atom_site_fract_z
Cu1 Cu 0.5000 0.5000 0.03981(5)
Cu2 Cu 0.19980(4) 0.26204(3) 0.24545(3)
Cu3 Cu -0.0000 0.03987(4) 0.0000
O1 O 0.5000 0.5000 0.1034(3)
O2 O 0.44423(19) 0.45765(11) 0.03392(12)
O3 O 0.2230(3) 0.28655(14) 0.19604(12)
O4 O 0.1144(2) 0.28468(18) 0.24004(18)
O5 O 0.1887(2) 0.21057(15) 0.21822(17)
O6 O 0.3109(3) 0.26737(17) 0.20378(17)
O7 O 0.2733(3) 0.19060(12) 0.22443(14)
O8 O -0.0000 0.1037(2) 0.0000
O9 O 0.05450(17) 0.03408(11) 0.04225(11)
C1 C 0.4290(4) 0.4453(2) 0.0000
C2 C 0.3911(4) 0.4109(2) 0.0000
C3 C 0.3755(3) 0.39472(18) 0.03508(19)
H1 H 0.3907 0.4043 0.0592
C4 C 0.3352(3) 0.36239(17) 0.03638(19)
C5 C 0.3163(4) 0.3453(3) 0.0000
H2 H 0.2920 0.3235 0.0000
C6 C 0.3165(3) 0.3437(2) 0.0749(2)
C7 C 0.2664(4) 0.3337(2) 0.0835(2)
H3 H 0.2393 0.3389 0.0643
C8 C 0.2514(4) 0.3161(2) 0.1187(2)
H4 H 0.2145 0.3110 0.1241
C9 C 0.2899(4) 0.3058(2) 0.1460(2)
C10 C 0.3423(4) 0.3143(2) 0.1390(2)
H5 H 0.3687 0.3081 0.1585
C11 C 0.3582(4) 0.3324(2) 0.1021(3)
H6 H 0.3950 0.3367 0.0959
C12 C 0.2704(5) 0.28672(19) 0.1857(2)
C13 C 0.2245(4) 0.1865(3) 0.2117(2)
C14 C 0.2111(4) 0.1471(2) 0.1910(2)
C15 C 0.1601(3) 0.1418(2) 0.1761(2)
H7 H 0.1348 0.1629 0.1779
C16 C 0.1451(3) 0.1063(2) 0.1586(2)
H8 H 0.1095 0.1028 0.1490
C17 C 0.1827(3) 0.07545(18) 0.1552(2)
C18 C 0.2359(4) 0.08075(18) 0.1695(2)
H9 H 0.2619 0.0603 0.1666
C19 C 0.2493(3) 0.1165(2) 0.1878(2)
H10 H 0.2845 0.1202 0.1981
C20 C 0.1833(4) 0.0000 0.1531(3)
H11 H 0.2064 0.0000 0.1755
C21 C 0.1650(3) 0.03731(18) 0.1354(2)
C22 C 0.1304(2) 0.03514(17) 0.10351(19)
H12 H 0.1186 0.0593 0.0916
C23 C 0.1121(4) 0.0000 0.0881(3)
C24 C 0.0741(3) 0.0000 0.0526(2)
Cu6 Cu 0.80020(4) 0.73796(3) 0.24545(3)
Cu8 Cu 0.30020(4) 0.23796(3) 0.25455(3)
Cu12 Cu 0.69980(4) 0.76204(3) 0.25455(3)
Cu14 Cu 0.30020(4) 0.76204(3) 0.25455(3)
Cu15 Cu 0.19980(4) 0.73796(3) 0.24545(3)
Cu17 Cu 0.5000 0.46013(4) 0.5000
Cu18 Cu 0.5000 0.53987(4) 0.5000
O11 O 0.55577(19) 0.54235(11) 0.03392(12)
O13 O 0.55577(19) 0.45765(11) 0.03392(12)
O14 O 0.44423(19) 0.54235(11) 0.03392(12)
O16 O 0.7770(3) 0.71345(14) 0.19604(12)
O19 O 0.8856(2) 0.71532(18) 0.24004(18)
O22 O 0.3113(2) 0.28943(15) 0.28178(17)
O23 O 0.3113(2) 0.71057(15) 0.28178(17)
O25 O 0.8113(2) 0.78943(15) 0.21822(17)
O28 O 0.6891(3) 0.73263(17) 0.20378(17)
O30 O 0.1891(3) 0.23263(17) 0.29622(17)
O32 O 0.8109(3) 0.76737(17) 0.29622(17)
O35 O 0.2267(3) 0.30940(12) 0.27557(14)
O36 O 0.2267(3) 0.69060(12) 0.27557(14)
O38 O 0.7733(3) 0.69060(12) 0.27557(14)
O41 O 0.44550(17) 0.46592(11) 0.45775(11)
O42 O 0.44550(17) 0.53408(11) 0.45775(11)
C25 C 0.5710(4) 0.5547(2) 0.0000
C26 C 0.6089(4) 0.5891(2) 0.0000
C28 C 0.6245(3) 0.60528(18) 0.03508(19)
H14 H 0.6093 0.5957 0.0592
C31 C 0.6648(3) 0.63761(17) 0.03638(19)
C33 C 0.6837(4) 0.6547(3) 0.0000
H16 H 0.7080 0.6765 0.0000
C35 C 0.6835(3) 0.6563(2) 0.0749(2)
C38 C 0.7336(4) 0.6663(2) 0.0835(2)
H18 H 0.7607 0.6611 0.0643
C41 C 0.7486(4) 0.6839(2) 0.1187(2)
H21 H 0.7855 0.6890 0.1241
C44 C 0.7101(4) 0.6942(2) 0.1460(2)
C47 C 0.6577(4) 0.6857(2) 0.1390(2)
H24 H 0.6313 0.6919 0.1585
C50 C 0.6418(4) 0.6676(2) 0.1021(3)
H27 H 0.6050 0.6633 0.0959
C53 C 0.7296(5) 0.71328(19) 0.1857(2)
C56 C 0.2755(4) 0.3135(3) 0.2883(2)
C57 C 0.2755(4) 0.6865(3) 0.2883(2)
C59 C 0.2889(4) 0.3529(2) 0.3090(2)
C60 C 0.2889(4) 0.6471(2) 0.3090(2)
C62 C 0.3399(3) 0.3582(2) 0.3239(2)
C63 C 0.3399(3) 0.6418(2) 0.3239(2)
H30 H 0.3652 0.3371 0.3221
H31 H 0.3652 0.6629 0.3221
C65 C 0.3549(3) 0.3937(2) 0.3414(2)
C66 C 0.3549(3) 0.6063(2) 0.3414(2)
H33 H 0.3905 0.3972 0.3510
H34 H 0.3905 0.6028 0.3510
C68 C 0.3173(3) 0.42455(18) 0.3448(2)
C69 C 0.3173(3) 0.57545(18) 0.3448(2)
C71 C 0.2641(4) 0.41925(18) 0.3305(2)
C72 C 0.2641(4) 0.58075(18) 0.3305(2)
H36 H 0.2381 0.4397 0.3334
H37 H 0.2381 0.5603 0.3334
C74 C 0.2507(3) 0.3835(2) 0.3122(2)
C75 C 0.2507(3) 0.6165(2) 0.3122(2)
H39 H 0.2155 0.3798 0.3019
H40 H 0.2155 0.6202 0.3019
C76 C 0.3167(4) 0.5000 0.3469(3)
H41 H 0.2936 0.5000 0.3245
C78 C 0.3350(3) 0.46269(18) 0.3646(2)
C79 C 0.3350(3) 0.53731(18) 0.3646(2)
C81 C 0.3696(2) 0.46486(17) 0.39649(19)
C82 C 0.3696(2) 0.53514(17) 0.39649(19)
H43 H 0.3814 0.4407 0.4084
H44 H 0.3814 0.5593 0.4084
C83 C 0.3879(4) 0.5000 0.4119(3)
C84 C 0.4259(3) 0.5000 0.4474(2)
Cu3_2 Cu -0.0000 0.03987(4) 1.0000
O8_2 O -0.0000 0.1037(2) 1.0000
C1_2 C 0.4290(4) 0.4453(2) 1.0000
C2_2 C 0.3911(4) 0.4109(2) 1.0000
C5_2 C 0.3163(4) 0.3453(3) 1.0000
H2_2 H 0.2920 0.3235 1.0000
Cu4 Cu 0.5000 0.5000 0.96019(5)
Cu5 Cu 0.19980(4) 0.26204(3) 0.75455(3)
Cu7 Cu 0.80020(4) 0.73796(3) 0.75455(3)
Cu9 Cu 0.30020(4) 0.23796(3) 0.74545(3)
Cu13 Cu 0.69980(4) 0.76204(3) 0.74545(3)
O10 O 0.44423(19) 0.45765(11) 0.96608(12)
O12 O 0.55577(19) 0.54235(11) 0.96608(12)
O15 O 0.2230(3) 0.28655(14) 0.80396(12)
O17 O 0.7770(3) 0.71345(14) 0.80396(12)
O18 O 0.1144(2) 0.28468(18) 0.75996(18)
O20 O 0.8856(2) 0.71532(18) 0.75996(18)
O24 O 0.1887(2) 0.21057(15) 0.78178(17)
O26 O 0.8113(2) 0.78943(15) 0.78178(17)
O27 O 0.3109(3) 0.26737(17) 0.79622(17)
O29 O 0.6891(3) 0.73263(17) 0.79622(17)
O31 O 0.1891(3) 0.23263(17) 0.70378(17)
O33 O 0.8109(3) 0.76737(17) 0.70378(17)
O37 O 0.2267(3) 0.30940(12) 0.72443(14)
O39 O 0.7733(3) 0.69060(12) 0.72443(14)
O44 O 0.05450(17) 0.03408(11) 0.95775(11)
C25_2 C 0.5710(4) 0.5547(2) 1.0000
C26_2 C 0.6089(4) 0.5891(2) 1.0000
C27 C 0.3755(3) 0.39472(18) 0.96492(19)
C29 C 0.6245(3) 0.60528(18) 0.96492(19)
H13 H 0.3907 0.4043 0.9408
H15 H 0.6093 0.5957 0.9408
C30 C 0.3352(3) 0.36239(17) 0.96362(19)
C32 C 0.6648(3) 0.63761(17) 0.96362(19)
C33_2 C 0.6837(4) 0.6547(3) 1.0000
H16_2 H 0.7080 0.6765 1.0000
C34 C 0.3165(3) 0.3437(2) 0.9251(2)
C36 C 0.6835(3) 0.6563(2) 0.9251(2)
C37 C 0.2664(4) 0.3337(2) 0.9165(2)
C39 C 0.7336(4) 0.6663(2) 0.9165(2)
H17 H 0.2393 0.3389 0.9357
H19 H 0.7607 0.6611 0.9357
C40 C 0.2514(4) 0.3161(2) 0.8813(2)
C42 C 0.7486(4) 0.6839(2) 0.8813(2)
H20 H 0.2145 0.3110 0.8759
H22 H 0.7855 0.6890 0.8759
C43 C 0.2899(4) 0.3058(2) 0.8540(2)
C45 C 0.7101(4) 0.6942(2) 0.8540(2)
C46 C 0.3423(4) 0.3143(2) 0.8610(2)
C48 C 0.6577(4) 0.6857(2) 0.8610(2)
H23 H 0.3687 0.3081 0.8415
H25 H 0.6313 0.6919 0.8415
C49 C 0.3582(4) 0.3324(2) 0.8979(3)
C51 C 0.6418(4) 0.6676(2) 0.8979(3)
H26 H 0.3950 0.3367 0.9041
H28 H 0.6050 0.6633 0.9041
C52 C 0.2704(5) 0.28672(19) 0.8143(2)
C54 C 0.7296(5) 0.71328(19) 0.8143(2)
H49 H 0.036974 0.113649 0.993359
C20_2 C 0.1833(4) 1.0000 0.1531(3)
H11_2 H 0.2064 1.0000 0.1755
C23_2 C 0.1121(4) 1.0000 0.0881(3)
C24_2 C 0.0741(3) 1.0000 0.0526(2)
Cu16 Cu -0.0000 0.96013(4) 0.0000
O21 O 0.1887(2) 0.78943(15) 0.21822(17)
O34 O 0.2733(3) 0.80940(12) 0.22443(14)
O40 O 0.05450(17) 0.96592(11) 0.04225(11)
C55 C 0.2245(4) 0.8135(3) 0.2117(2)
C58 C 0.2111(4) 0.8529(2) 0.1910(2)
C61 C 0.1601(3) 0.8582(2) 0.1761(2)
H29 H 0.1348 0.8371 0.1779
C64 C 0.1451(3) 0.8937(2) 0.1586(2)
H32 H 0.1095 0.8972 0.1490
C67 C 0.1827(3) 0.92455(18) 0.1552(2)
C70 C 0.2359(4) 0.91925(18) 0.1695(2)
H35 H 0.2619 0.9397 0.1666
C73 C 0.2493(3) 0.8835(2) 0.1878(2)
H38 H 0.2845 0.8798 0.1981
C77 C 0.1650(3) 0.96269(18) 0.1354(2)
C80 C 0.1304(2) 0.96486(17) 0.10351(19)
H42 H 0.1186 0.9407 0.0916
Cu16_2 Cu -0.0000 0.96013(4) 1.0000
Cu3_3 Cu 1.0000 0.03987(4) 0.0000
O8_3 O 1.0000 0.1037(2) 0.0000
O45 O 0.94550(17) 0.03408(11) 0.04225(11)
Cu3_4 Cu 1.0000 0.03987(4) 1.0000
O8_4 O 1.0000 0.1037(2) 1.0000
O43 O 0.94550(17) 0.03408(11) 0.95775(11)
H50 H 0.973736 0.113649 0.97964
Cu16_3 Cu 1.0000 0.96013(4) 0.0000
Cu16_4 Cu 1.0000 0.96013(4) 1.0000
O8_5 O -0.0000 0.8963(2) 0.0000
O8_6 O -0.0000 0.8963(2) 1.0000
O43_2 O 0.05450(17) 0.96592(11) 0.95775(11)
H50_2 H 0.0262635 0.886351 0.97964
C20_3 C 0.8167(4) 0.0000 0.1531(3)
H11_3 H 0.7936 -0.0000 0.1755
C23_3 C 0.8879(4) 0.0000 0.0881(3)
C24_3 C 0.9259(3) 0.0000 0.0526(2)
Cu10 Cu 0.80020(4) 0.26204(3) 0.24545(3)
Cu11 Cu 0.69980(4) 0.23796(3) 0.25455(3)
O21_2 O 0.8113(2) 0.21057(15) 0.21822(17)
O34_2 O 0.7267(3) 0.19060(12) 0.22443(14)
C55_2 C 0.7755(4) 0.1865(3) 0.2117(2)
C58_2 C 0.7889(4) 0.1471(2) 0.1910(2)
C61_2 C 0.8399(3) 0.1418(2) 0.1761(2)
H29_2 H 0.8652 0.1629 0.1779
C64_2 C 0.8549(3) 0.1063(2) 0.1586(2)
H32_2 H 0.8905 0.1028 0.1490
C67_2 C 0.8173(3) 0.07545(18) 0.1552(2)
C70_2 C 0.7641(4) 0.08075(18) 0.1695(2)
H35_2 H 0.7381 0.0603 0.1666
C73_2 C 0.7507(3) 0.1165(2) 0.1878(2)
H38_2 H 0.7155 0.1202 0.1981
C77_2 C 0.8350(3) 0.03731(18) 0.1354(2)
C80_2 C 0.8696(2) 0.03514(17) 0.10351(19)
H42_2 H 0.8814 0.0593 0.0916
O7_2 O 0.7267(3) 0.80940(12) 0.22443(14)
O8_7 O 1.0000 0.8963(2) 0.0000
O9_2 O 0.94550(17) 0.96592(11) 0.04225(11)
C13_2 C 0.7755(4) 0.8135(3) 0.2117(2)
C14_2 C 0.7889(4) 0.8529(2) 0.1910(2)
C15_2 C 0.8399(3) 0.8582(2) 0.1761(2)
H7_2 H 0.8652 0.8371 0.1779
C16_2 C 0.8549(3) 0.8937(2) 0.1586(2)
H8_2 H 0.8905 0.8972 0.1490
C17_2 C 0.8173(3) 0.92455(18) 0.1552(2)
C18_2 C 0.7641(4) 0.91925(18) 0.1695(2)
H9_2 H 0.7381 0.9397 0.1666
C19_2 C 0.7507(3) 0.8835(2) 0.1878(2)
H10_2 H 0.7155 0.8798 0.1981
C20_4 C 0.8167(4) 1.0000 0.1531(3)
H11_4 H 0.7936 1.0000 0.1755
C21_2 C 0.8350(3) 0.96269(18) 0.1354(2)
C22_2 C 0.8696(2) 0.96486(17) 0.10351(19)
H12_2 H 0.8814 0.9407 0.0916
C23_4 C 0.8879(4) 1.0000 0.0881(3)
C24_4 C 0.9259(3) 1.0000 0.0526(2)
O22_2 O 0.6887(2) 0.71057(15) 0.28178(17)
O23_2 O 0.6887(2) 0.28943(15) 0.28178(17)
O36_2 O 0.7733(3) 0.30940(12) 0.27557(14)
O41_2 O 0.55450(17) 0.53408(11) 0.45775(11)
O42_2 O 0.55450(17) 0.46592(11) 0.45775(11)
C56_2 C 0.7245(4) 0.6865(3) 0.2883(2)
C57_2 C 0.7245(4) 0.3135(3) 0.2883(2)
C59_2 C 0.7111(4) 0.6471(2) 0.3090(2)
C60_2 C 0.7111(4) 0.3529(2) 0.3090(2)
C62_2 C 0.6601(3) 0.6418(2) 0.3239(2)
C63_2 C 0.6601(3) 0.3582(2) 0.3239(2)
H30_2 H 0.6348 0.6629 0.3221
H31_2 H 0.6348 0.3371 0.3221
C65_2 C 0.6451(3) 0.6063(2) 0.3414(2)
C66_2 C 0.6451(3) 0.3937(2) 0.3414(2)
H33_2 H 0.6095 0.6028 0.3510
H34_2 H 0.6095 0.3972 0.3510
C68_2 C 0.6827(3) 0.57545(18) 0.3448(2)
C69_2 C 0.6827(3) 0.42455(18) 0.3448(2)
C71_2 C 0.7359(4) 0.58075(18) 0.3305(2)
C72_2 C 0.7359(4) 0.41925(18) 0.3305(2)
H36_2 H 0.7619 0.5603 0.3334
H37_2 H 0.7619 0.4397 0.3334
C74_2 C 0.7493(3) 0.6165(2) 0.3122(2)
C75_2 C 0.7493(3) 0.3835(2) 0.3122(2)
H39_2 H 0.7845 0.6202 0.3019
H40_2 H 0.7845 0.3798 0.3019
C76_2 C 0.6833(4) 0.5000 0.3469(3)
H41_2 H 0.7064 0.5000 0.3245
C78_2 C 0.6650(3) 0.53731(18) 0.3646(2)
C79_2 C 0.6650(3) 0.46269(18) 0.3646(2)
C81_2 C 0.6304(2) 0.53514(17) 0.39649(19)
C82_2 C 0.6304(2) 0.46486(17) 0.39649(19)
H43_2 H 0.6186 0.5593 0.4084
H44_2 H 0.6186 0.4407 0.4084
C83_2 C 0.6121(4) 0.5000 0.4119(3)
C84_2 C 0.5741(3) 0.5000 0.4474(2)
O8_8 O 1.0000 0.8963(2) 1.0000
O44_2 O 0.94550(17) 0.96592(11) 0.95775(11)
H49_2 H 0.963026 0.886351 0.993359
Cu1_2 Cu -0.0000 0.0000 0.53981(5)
O1_2 O -0.0000 0.0000 0.6034(3)
Cu4_2 Cu -0.0000 0.0000 0.46019(5)
O11_2 O 0.05577(19) 0.04235(11) 0.53392(12)
O12_2 O 0.05577(19) 0.04235(11) 0.46608(12)
O16_2 O 0.2770(3) 0.21345(14) 0.69604(12)
O17_2 O 0.2770(3) 0.21345(14) 0.30396(12)
O19_2 O 0.3856(2) 0.21532(18) 0.74004(18)
O20_2 O 0.3856(2) 0.21532(18) 0.25996(18)
O25_2 O 0.3113(2) 0.28943(15) 0.71822(17)
O38_2 O 0.2733(3) 0.19060(12) 0.77557(14)
C25_3 C 0.0710(4) 0.0547(2) 0.5000
C26_3 C 0.1089(4) 0.0891(2) 0.5000
C28_2 C 0.1245(3) 0.10528(18) 0.53508(19)
C29_2 C 0.1245(3) 0.10528(18) 0.46492(19)
H14_2 H 0.1093 0.0957 0.5592
H15_2 H 0.1093 0.0957 0.4408
C31_2 C 0.1648(3) 0.13761(17) 0.53638(19)
C32_2 C 0.1648(3) 0.13761(17) 0.46362(19)
C33_3 C 0.1837(4) 0.1547(3) 0.5000
H16_3 H 0.2080 0.1765 0.5000
C35_2 C 0.1835(3) 0.1563(2) 0.5749(2)
C36_2 C 0.1835(3) 0.1563(2) 0.4251(2)
C38_2 C 0.2336(4) 0.1663(2) 0.5835(2)
C39_2 C 0.2336(4) 0.1663(2) 0.4165(2)
H18_2 H 0.2607 0.1611 0.5643
H19_2 H 0.2607 0.1611 0.4357
C41_2 C 0.2486(4) 0.1839(2) 0.6187(2)
C42_2 C 0.2486(4) 0.1839(2) 0.3813(2)
H21_2 H 0.2855 0.1890 0.6241
H22_2 H 0.2855 0.1890 0.3759
C44_2 C 0.2101(4) 0.1942(2) 0.6460(2)
C45_2 C 0.2101(4) 0.1942(2) 0.3540(2)
C47_2 C 0.1577(4) 0.1857(2) 0.6390(2)
C48_2 C 0.1577(4) 0.1857(2) 0.3610(2)
H24_2 H 0.1313 0.1919 0.6585
H25_2 H 0.1313 0.1919 0.3415
C50_2 C 0.1418(4) 0.1676(2) 0.6021(3)
C51_2 C 0.1418(4) 0.1676(2) 0.3979(3)
H27_2 H 0.1050 0.1633 0.5959
H28_2 H 0.1050 0.1633 0.4041
C53_2 C 0.2296(5) 0.21328(19) 0.6857(2)
C54_2 C 0.2296(5) 0.21328(19) 0.3143(2)
H46 H 0.0265465 0.0201586 0.613349
Cu1_3 Cu -0.0000 1.0000 0.53981(5)
O1_3 O -0.0000 1.0000 0.6034(3)
Cu4_3 Cu -0.0000 1.0000 0.46019(5)
O13_2 O 0.05577(19) 0.95765(11) 0.53392(12)
H45 H 0.0103328 0.972919 0.613349
Cu1_4 Cu 1.0000 0.0000 0.53981(5)
O1_4 O 1.0000 0.0000 0.6034(3)
Cu4_4 Cu 1.0000 0.0000 0.46019(5)
Cu14_2 Cu 0.80020(4) 0.26204(3) 0.75455(3)
Cu15_2 Cu 0.69980(4) 0.23796(3) 0.74545(3)
O14_2 O 0.94423(19) 0.04235(11) 0.53392(12)
O23_3 O 0.8113(2) 0.21057(15) 0.78178(17)
O36_3 O 0.7267(3) 0.19060(12) 0.77557(14)
C57_3 C 0.7755(4) 0.1865(3) 0.7883(2)
C60_3 C 0.7889(4) 0.1471(2) 0.8090(2)
C63_3 C 0.8399(3) 0.1418(2) 0.8239(2)
H31_3 H 0.8652 0.1629 0.8221
C66_3 C 0.8549(3) 0.1063(2) 0.8414(2)
H34_3 H 0.8905 0.1028 0.8510
C69_3 C 0.8173(3) 0.07545(18) 0.8448(2)
C72_3 C 0.7641(4) 0.08075(18) 0.8305(2)
H37_3 H 0.7381 0.0603 0.8334
C75_3 C 0.7507(3) 0.1165(2) 0.8122(2)
H40_3 H 0.7155 0.1202 0.8019
C76_3 C 0.8167(4) 0.0000 0.8469(3)
H41_3 H 0.7936 0.0000 0.8245
C79_3 C 0.8350(3) 0.03731(18) 0.8646(2)
C82_3 C 0.8696(2) 0.03514(17) 0.89649(19)
H44_3 H 0.8814 0.0593 0.9084
C83_3 C 0.8879(4) 0.0000 0.9119(3)
C84_3 C 0.9259(3) 0.0000 0.9474(2)
Cu1_5 Cu 1.0000 1.0000 0.53981(5)
O1_5 O 1.0000 1.0000 0.6034(3)
O2_2 O 0.94423(19) 0.95765(11) 0.53392(12)
O3_2 O 0.7230(3) 0.78655(14) 0.69604(12)
O4_2 O 0.6144(2) 0.78468(18) 0.74004(18)
O5_2 O 0.6887(2) 0.71057(15) 0.71822(17)
O8_9 O 0.5000 0.6037(2) 0.5000
O9_3 O 0.55450(17) 0.53408(11) 0.54225(11)
C1_3 C 0.9290(4) 0.9453(2) 0.5000
C2_3 C 0.8911(4) 0.9109(2) 0.5000
C3_2 C 0.8755(3) 0.89472(18) 0.53508(19)
H1_2 H 0.8907 0.9043 0.5592
C4_2 C 0.8352(3) 0.86239(17) 0.53638(19)
C5_3 C 0.8163(4) 0.8453(3) 0.5000
H2_3 H 0.7920 0.8235 0.5000
C6_2 C 0.8165(3) 0.8437(2) 0.5749(2)
C7_2 C 0.7664(4) 0.8337(2) 0.5835(2)
H3_2 H 0.7393 0.8389 0.5643
C8_2 C 0.7514(4) 0.8161(2) 0.6187(2)
H4_2 H 0.7145 0.8110 0.6241
C9_2 C 0.7899(4) 0.8058(2) 0.6460(2)
C10_2 C 0.8423(4) 0.8143(2) 0.6390(2)
H5_2 H 0.8687 0.8081 0.6585
C11_2 C 0.8582(4) 0.8324(2) 0.6021(3)
H6_2 H 0.8950 0.8367 0.5959
C12_2 C 0.7704(5) 0.78672(19) 0.6857(2)
C13_3 C 0.7245(4) 0.6865(3) 0.7117(2)
C14_3 C 0.7111(4) 0.6471(2) 0.6910(2)
C15_3 C 0.6601(3) 0.6418(2) 0.6761(2)
H7_3 H 0.6348 0.6629 0.6779
C16_3 C 0.6451(3) 0.6063(2) 0.6586(2)
H8_3 H 0.6095 0.6028 0.6490
C17_3 C 0.6827(3) 0.57545(18) 0.6552(2)
C18_3 C 0.7359(4) 0.58075(18) 0.6695(2)
H9_3 H 0.7619 0.5603 0.6666
C19_3 C 0.7493(3) 0.6165(2) 0.6878(2)
H10_3 H 0.7845 0.6202 0.6981
C20_5 C 0.6833(4) 0.5000 0.6531(3)
H11_5 H 0.7064 0.5000 0.6755
C21_3 C 0.6650(3) 0.53731(18) 0.6354(2)
C22_3 C 0.6304(2) 0.53514(17) 0.60351(19)
H12_3 H 0.6186 0.5593 0.5916
C23_5 C 0.6121(4) 0.5000 0.5881(3)
C24_5 C 0.5741(3) 0.5000 0.5526(2)
Cu4_5 Cu 1.0000 1.0000 0.46019(5)
O10_2 O 0.94423(19) 0.95765(11) 0.46608(12)
O15_2 O 0.7230(3) 0.78655(14) 0.30396(12)
O18_2 O 0.6144(2) 0.78468(18) 0.25996(18)
O21_3 O 0.6887(2) 0.28943(15) 0.71822(17)
O34_3 O 0.7733(3) 0.30940(12) 0.72443(14)
O35_2 O 0.7267(3) 0.80940(12) 0.77557(14)
O40_2 O 0.55450(17) 0.46592(11) 0.54225(11)
O45_2 O 0.44550(17) 0.53408(11) 0.54225(11)
C27_2 C 0.8755(3) 0.89472(18) 0.46492(19)
H13_2 H 0.8907 0.9043 0.4408
C30_2 C 0.8352(3) 0.86239(17) 0.46362(19)
C34_2 C 0.8165(3) 0.8437(2) 0.4251(2)
C37_2 C 0.7664(4) 0.8337(2) 0.4165(2)
H17_2 H 0.7393 0.8389 0.4357
C40_2 C 0.7514(4) 0.8161(2) 0.3813(2)
H20_2 H 0.7145 0.8110 0.3759
C43_2 C 0.7899(4) 0.8058(2) 0.3540(2)
C46_2 C 0.8423(4) 0.8143(2) 0.3610(2)
H23_2 H 0.8687 0.8081 0.3415
C49_2 C 0.8582(4) 0.8324(2) 0.3979(3)
H26_2 H 0.8950 0.8367 0.4041
C52_2 C 0.7704(5) 0.78672(19) 0.3143(2)
C55_3 C 0.7245(4) 0.3135(3) 0.7117(2)
C56_3 C 0.7755(4) 0.8135(3) 0.7883(2)
C58_3 C 0.7111(4) 0.3529(2) 0.6910(2)
C59_3 C 0.7889(4) 0.8529(2) 0.8090(2)
C61_3 C 0.6601(3) 0.3582(2) 0.6761(2)
C62_3 C 0.8399(3) 0.8582(2) 0.8239(2)
H29_3 H 0.6348 0.3371 0.6779
H30_3 H 0.8652 0.8371 0.8221
C64_3 C 0.6451(3) 0.3937(2) 0.6586(2)
C65_3 C 0.8549(3) 0.8937(2) 0.8414(2)
H32_3 H 0.6095 0.3972 0.6490
H33_3 H 0.8905 0.8972 0.8510
C67_3 C 0.6827(3) 0.42455(18) 0.6552(2)
C68_3 C 0.8173(3) 0.92455(18) 0.8448(2)
C70_3 C 0.7359(4) 0.41925(18) 0.6695(2)
C71_3 C 0.7641(4) 0.91925(18) 0.8305(2)
H35_3 H 0.7619 0.4397 0.6666
H36_3 H 0.7381 0.9397 0.8334
C73_3 C 0.7493(3) 0.3835(2) 0.6878(2)
C74_3 C 0.7507(3) 0.8835(2) 0.8122(2)
H38_3 H 0.7845 0.3798 0.6981
H39_3 H 0.7155 0.8798 0.8019
C76_4 C 0.8167(4) 1.0000 0.8469(3)
H41_4 H 0.7936 1.0000 0.8245
C77_3 C 0.6650(3) 0.46269(18) 0.6354(2)
C78_3 C 0.8350(3) 0.96269(18) 0.8646(2)
C80_3 C 0.6304(2) 0.46486(17) 0.60351(19)
C81_3 C 0.8696(2) 0.96486(17) 0.89649(19)
H42_3 H 0.6186 0.4407 0.5916
H43_3 H 0.8814 0.9407 0.9084
C83_4 C 0.8879(4) 1.0000 0.9119(3)
C84_4 C 0.9259(3) 1.0000 0.9474(2)
O8_10 O 0.5000 0.3963(2) 0.5000
O9_4 O 0.44550(17) 0.46592(11) 0.54225(11)
C13_4 C 0.2755(4) 0.3135(3) 0.7117(2)
C14_4 C 0.2889(4) 0.3529(2) 0.6910(2)
C15_4 C 0.3399(3) 0.3582(2) 0.6761(2)
H7_4 H 0.3652 0.3371 0.6779
C16_4 C 0.3549(3) 0.3937(2) 0.6586(2)
H8_4 H 0.3905 0.3972 0.6490
C17_4 C 0.3173(3) 0.42455(18) 0.6552(2)
C18_4 C 0.2641(4) 0.41925(18) 0.6695(2)
H9_4 H 0.2381 0.4397 0.6666
C19_4 C 0.2507(3) 0.3835(2) 0.6878(2)
H10_4 H 0.2155 0.3798 0.6981
C20_6 C 0.3167(4) 0.5000 0.6531(3)
H11_6 H 0.2936 0.5000 0.6755
C21_4 C 0.3350(3) 0.46269(18) 0.6354(2)
C22_4 C 0.3696(2) 0.46486(17) 0.60351(19)
H12_4 H 0.3814 0.4407 0.5916
C23_6 C 0.3879(4) 0.5000 0.5881(3)
C24_6 C 0.4259(3) 0.5000 0.5526(2)
Cu10_2 Cu 0.30020(4) 0.76204(3) 0.74545(3)
Cu11_2 Cu 0.19980(4) 0.73796(3) 0.75455(3)
O21_4 O 0.3113(2) 0.71057(15) 0.71822(17)
O34_4 O 0.2267(3) 0.69060(12) 0.72443(14)
C55_4 C 0.2755(4) 0.6865(3) 0.7117(2)
C56_4 C 0.2245(4) 0.1865(3) 0.7883(2)
C58_4 C 0.2889(4) 0.6471(2) 0.6910(2)
C59_4 C 0.2111(4) 0.1471(2) 0.8090(2)
C61_4 C 0.3399(3) 0.6418(2) 0.6761(2)
C62_4 C 0.1601(3) 0.1418(2) 0.8239(2)
H29_4 H 0.3652 0.6629 0.6779
H30_4 H 0.1348 0.1629 0.8221
C64_4 C 0.3549(3) 0.6063(2) 0.6586(2)
C65_4 C 0.1451(3) 0.1063(2) 0.8414(2)
H32_4 H 0.3905 0.6028 0.6490
H33_4 H 0.1095 0.1028 0.8510
C67_4 C 0.3173(3) 0.57545(18) 0.6552(2)
C68_4 C 0.1827(3) 0.07545(18) 0.8448(2)
C70_4 C 0.2641(4) 0.58075(18) 0.6695(2)
C71_4 C 0.2359(4) 0.08075(18) 0.8305(2)
H35_4 H 0.2381 0.5603 0.6666
H36_4 H 0.2619 0.0603 0.8334
C73_4 C 0.2507(3) 0.6165(2) 0.6878(2)
C74_4 C 0.2493(3) 0.1165(2) 0.8122(2)
H38_4 H 0.2155 0.6202 0.6981
H39_4 H 0.2845 0.1202 0.8019
C76_5 C 0.1833(4) -0.0000 0.8469(3)
H41_5 H 0.2064 -0.0000 0.8245
C77_4 C 0.3350(3) 0.53731(18) 0.6354(2)
C78_4 C 0.1650(3) 0.03731(18) 0.8646(2)
C80_4 C 0.3696(2) 0.53514(17) 0.60351(19)
C81_4 C 0.1304(2) 0.03514(17) 0.89649(19)
H42_4 H 0.3814 0.5593 0.5916
H43_4 H 0.1186 0.0593 0.9084
C83_5 C 0.1121(4) -0.0000 0.9119(3)
C84_5 C 0.0741(3) -0.0000 0.9474(2)
O23_4 O 0.1887(2) 0.78943(15) 0.78178(17)
O36_4 O 0.2733(3) 0.80940(12) 0.77557(14)
C57_4 C 0.2245(4) 0.8135(3) 0.7883(2)
C60_4 C 0.2111(4) 0.8529(2) 0.8090(2)
C63_4 C 0.1601(3) 0.8582(2) 0.8239(2)
H31_4 H 0.1348 0.8371 0.8221
C66_4 C 0.1451(3) 0.8937(2) 0.8414(2)
H34_4 H 0.1095 0.8972 0.8510
C69_4 C 0.1827(3) 0.92455(18) 0.8448(2)
C72_4 C 0.2359(4) 0.91925(18) 0.8305(2)
H37_4 H 0.2619 0.9397 0.8334
C75_4 C 0.2493(3) 0.8835(2) 0.8122(2)
H40_4 H 0.2845 0.8798 0.8019
C76_6 C 0.1833(4) 1.0000 0.8469(3)
H41_6 H 0.2064 1.0000 0.8245
C79_4 C 0.1650(3) 0.96269(18) 0.8646(2)
C82_4 C 0.1304(2) 0.96486(17) 0.89649(19)
H44_4 H 0.1186 0.9407 0.9084
C83_6 C 0.1121(4) 1.0000 0.9119(3)
C84_6 C 0.0741(3) 1.0000 0.9474(2)
H45_2 H 0.989667 0.0270814 0.613349
H46_2 H 0.973454 0.979841 0.613349
C1_4 C 0.4290(4) 0.5547(2) 0.0000
C2_4 C 0.3911(4) 0.5891(2) 0.0000
C5_4 C 0.3163(4) 0.6547(3) 0.0000
H2_4 H 0.2920 0.6765 0.0000
O15_3 O 0.2230(3) 0.71345(14) 0.19604(12)
O17_3 O 0.7770(3) 0.28655(14) 0.19604(12)
O18_3 O 0.1144(2) 0.71532(18) 0.24004(18)
O20_3 O 0.8856(2) 0.28468(18) 0.24004(18)
O27_2 O 0.3109(3) 0.73263(17) 0.20378(17)
O29_2 O 0.6891(3) 0.26737(17) 0.20378(17)
O31_2 O 0.1891(3) 0.76737(17) 0.29622(17)
O33_2 O 0.8109(3) 0.23263(17) 0.29622(17)
C25_4 C 0.5710(4) 0.4453(2) 0.0000
C26_4 C 0.6089(4) 0.4109(2) 0.0000
C27_3 C 0.3755(3) 0.60528(18) 0.03508(19)
C29_3 C 0.6245(3) 0.39472(18) 0.03508(19)
H13_3 H 0.3907 0.5957 0.0592
H15_3 H 0.6093 0.4043 0.0592
C30_3 C 0.3352(3) 0.63761(17) 0.03638(19)
C32_3 C 0.6648(3) 0.36239(17) 0.03638(19)
C33_4 C 0.6837(4) 0.3453(3) 0.0000
H16_4 H 0.7080 0.3235 0.0000
C34_3 C 0.3165(3) 0.6563(2) 0.0749(2)
C36_3 C 0.6835(3) 0.3437(2) 0.0749(2)
C37_3 C 0.2664(4) 0.6663(2) 0.0835(2)
C39_3 C 0.7336(4) 0.3337(2) 0.0835(2)
H17_3 H 0.2393 0.6611 0.0643
H19_3 H 0.7607 0.3389 0.0643
C40_3 C 0.2514(4) 0.6839(2) 0.1187(2)
C42_3 C 0.7486(4) 0.3161(2) 0.1187(2)
H20_3 H 0.2145 0.6890 0.1241
H22_3 H 0.7855 0.3110 0.1241
C43_3 C 0.2899(4) 0.6942(2) 0.1460(2)
C45_3 C 0.7101(4) 0.3058(2) 0.1460(2)
C46_3 C 0.3423(4) 0.6857(2) 0.1390(2)
C48_3 C 0.6577(4) 0.3143(2) 0.1390(2)
H23_3 H 0.3687 0.6919 0.1585
H25_3 H 0.6313 0.3081 0.1585
C49_3 C 0.3582(4) 0.6676(2) 0.1021(3)
C51_3 C 0.6418(4) 0.3324(2) 0.1021(3)
H26_3 H 0.3950 0.6633 0.0959
H28_3 H 0.6050 0.3367 0.0959
C52_3 C 0.2704(5) 0.71328(19) 0.1857(2)
C54_3 C 0.7296(5) 0.28672(19) 0.1857(2)
H49_3 H 0.036974 0.886351 0.0066408
O1_6 O 0.5000 0.5000 0.8966(3)
O2_3 O 0.44423(19) 0.54235(11) 0.96608(12)
O3_3 O 0.2230(3) 0.71345(14) 0.80396(12)
O4_3 O 0.1144(2) 0.71532(18) 0.75996(18)
O6_2 O 0.3109(3) 0.73263(17) 0.79622(17)
C1_5 C 0.4290(4) 0.5547(2) 1.0000
C2_5 C 0.3911(4) 0.5891(2) 1.0000
C3_3 C 0.3755(3) 0.60528(18) 0.96492(19)
H1_3 H 0.3907 0.5957 0.9408
C4_3 C 0.3352(3) 0.63761(17) 0.96362(19)
C5_5 C 0.3163(4) 0.6547(3) 1.0000
H2_5 H 0.2920 0.6765 1.0000
C6_3 C 0.3165(3) 0.6563(2) 0.9251(2)
C7_3 C 0.2664(4) 0.6663(2) 0.9165(2)
H3_3 H 0.2393 0.6611 0.9357
C8_3 C 0.2514(4) 0.6839(2) 0.8813(2)
H4_3 H 0.2145 0.6890 0.8759
C9_3 C 0.2899(4) 0.6942(2) 0.8540(2)
C10_3 C 0.3423(4) 0.6857(2) 0.8610(2)
H5_3 H 0.3687 0.6919 0.8415
C11_3 C 0.3582(4) 0.6676(2) 0.8979(3)
H6_3 H 0.3950 0.6633 0.9041
C12_3 C 0.2704(5) 0.71328(19) 0.8143(2)
O11_3 O 0.55577(19) 0.45765(11) 0.96608(12)
O16_3 O 0.7770(3) 0.28655(14) 0.80396(12)
O19_3 O 0.8856(2) 0.28468(18) 0.75996(18)
O28_2 O 0.6891(3) 0.26737(17) 0.79622(17)
O30_2 O 0.1891(3) 0.76737(17) 0.70378(17)
O32_2 O 0.8109(3) 0.23263(17) 0.70378(17)
C25_5 C 0.5710(4) 0.4453(2) 1.0000
C26_5 C 0.6089(4) 0.4109(2) 1.0000
C28_3 C 0.6245(3) 0.39472(18) 0.96492(19)
H14_3 H 0.6093 0.4043 0.9408
C31_3 C 0.6648(3) 0.36239(17) 0.96362(19)
C33_5 C 0.6837(4) 0.3453(3) 1.0000
H16_5 H 0.7080 0.3235 1.0000
C35_3 C 0.6835(3) 0.3437(2) 0.9251(2)
C38_3 C 0.7336(4) 0.3337(2) 0.9165(2)
H18_3 H 0.7607 0.3389 0.9357
C41_3 C 0.7486(4) 0.3161(2) 0.8813(2)
H21_3 H 0.7855 0.3110 0.8759
C44_3 C 0.7101(4) 0.3058(2) 0.8540(2)
C47_3 C 0.6577(4) 0.3143(2) 0.8610(2)
H24_3 H 0.6313 0.3081 0.8415
C50_3 C 0.6418(4) 0.3324(2) 0.8979(3)
H27_3 H 0.6050 0.3367 0.9041
C53_3 C 0.7296(5) 0.28672(19) 0.8143(2)
H50_3 H 0.973736 0.886351 0.0203602
H50_4 H 0.0262635 0.113649 0.0203602
H49_4 H 0.963026 0.113649 0.0066408
O1_7 O -0.0000 -0.0000 0.3966(3)
H45_3 H 0.0103328 0.0270814 0.386651
O1_8 O -0.0000 1.0000 0.3966(3)
O11_4 O 0.05577(19) 0.95765(11) 0.46608(12)
O16_4 O 0.2770(3) 0.78655(14) 0.30396(12)
O17_4 O 0.2770(3) 0.78655(14) 0.69604(12)
O19_4 O 0.3856(2) 0.78468(18) 0.25996(18)
O20_4 O 0.3856(2) 0.78468(18) 0.74004(18)
C25_6 C 0.0710(4) 0.9453(2) 0.5000
C26_6 C 0.1089(4) 0.9109(2) 0.5000
C28_4 C 0.1245(3) 0.89472(18) 0.46492(19)
C29_4 C 0.1245(3) 0.89472(18) 0.53508(19)
H14_4 H 0.1093 0.9043 0.4408
H15_4 H 0.1093 0.9043 0.5592
C31_4 C 0.1648(3) 0.86239(17) 0.46362(19)
C32_4 C 0.1648(3) 0.86239(17) 0.53638(19)
C33_6 C 0.1837(4) 0.8453(3) 0.5000
H16_6 H 0.2080 0.8235 0.5000
C35_4 C 0.1835(3) 0.8437(2) 0.4251(2)
C36_4 C 0.1835(3) 0.8437(2) 0.5749(2)
C38_4 C 0.2336(4) 0.8337(2) 0.4165(2)
C39_4 C 0.2336(4) 0.8337(2) 0.5835(2)
H18_4 H 0.2607 0.8389 0.4357
H19_4 H 0.2607 0.8389 0.5643
C41_4 C 0.2486(4) 0.8161(2) 0.3813(2)
C42_4 C 0.2486(4) 0.8161(2) 0.6187(2)
H21_4 H 0.2855 0.8110 0.3759
H22_4 H 0.2855 0.8110 0.6241
C44_4 C 0.2101(4) 0.8058(2) 0.3540(2)
C45_4 C 0.2101(4) 0.8058(2) 0.6460(2)
C47_4 C 0.1577(4) 0.8143(2) 0.3610(2)
C48_4 C 0.1577(4) 0.8143(2) 0.6390(2)
H24_4 H 0.1313 0.8081 0.3415
H25_4 H 0.1313 0.8081 0.6585
C50_4 C 0.1418(4) 0.8324(2) 0.3979(3)
C51_4 C 0.1418(4) 0.8324(2) 0.6021(3)
H27_4 H 0.1050 0.8367 0.4041
H28_4 H 0.1050 0.8367 0.5959
C53_4 C 0.2296(5) 0.78672(19) 0.3143(2)
C54_4 C 0.2296(5) 0.78672(19) 0.6857(2)
H46_3 H 0.0265465 0.979841 0.386651
O1_9 O 1.0000 -0.0000 0.3966(3)
O2_4 O 0.94423(19) 0.04235(11) 0.46608(12)
O3_4 O 0.7230(3) 0.21345(14) 0.30396(12)
O4_4 O 0.6144(2) 0.21532(18) 0.25996(18)
C1_6 C 0.9290(4) 0.0547(2) 0.5000
C2_6 C 0.8911(4) 0.0891(2) 0.5000
C3_4 C 0.8755(3) 0.10528(18) 0.46492(19)
H1_4 H 0.8907 0.0957 0.4408
C4_4 C 0.8352(3) 0.13761(17) 0.46362(19)
C5_6 C 0.8163(4) 0.1547(3) 0.5000
H2_6 H 0.7920 0.1765 0.5000
C6_4 C 0.8165(3) 0.1563(2) 0.4251(2)
C7_4 C 0.7664(4) 0.1663(2) 0.4165(2)
H3_4 H 0.7393 0.1611 0.4357
C8_4 C 0.7514(4) 0.1839(2) 0.3813(2)
H4_4 H 0.7145 0.1890 0.3759
C9_4 C 0.7899(4) 0.1942(2) 0.3540(2)
C10_4 C 0.8423(4) 0.1857(2) 0.3610(2)
H5_4 H 0.8687 0.1919 0.3415
C11_4 C 0.8582(4) 0.1676(2) 0.3979(3)
H6_4 H 0.8950 0.1633 0.4041
C12_4 C 0.7704(5) 0.21328(19) 0.3143(2)
O15_4 O 0.7230(3) 0.21345(14) 0.69604(12)
O18_4 O 0.6144(2) 0.21532(18) 0.74004(18)
C27_4 C 0.8755(3) 0.10528(18) 0.53508(19)
H13_4 H 0.8907 0.0957 0.5592
C30_4 C 0.8352(3) 0.13761(17) 0.53638(19)
C34_4 C 0.8165(3) 0.1563(2) 0.5749(2)
C37_4 C 0.7664(4) 0.1663(2) 0.5835(2)
H17_4 H 0.7393 0.1611 0.5643
C40_4 C 0.7514(4) 0.1839(2) 0.6187(2)
H20_4 H 0.7145 0.1890 0.6241
C43_4 C 0.7899(4) 0.1942(2) 0.6460(2)
C46_4 C 0.8423(4) 0.1857(2) 0.6390(2)
H23_4 H 0.8687 0.1919 0.6585
C49_4 C 0.8582(4) 0.1676(2) 0.6021(3)
H26_4 H 0.8950 0.1633 0.5959
C52_4 C 0.7704(5) 0.21328(19) 0.6857(2)
O1_10 O 1.0000 1.0000 0.3966(3)
H46_4 H 0.973454 0.0201586 0.386651
H45_4 H 0.989667 0.972919 0.386651
H50_5 H 0.0262635 0.886351 0.0203602
H49_5 H 0.963026 0.886351 0.0066408
H49_6 H 0.036974 0.113649 0.0066408
H50_6 H 0.973736 0.113649 0.0203602
H45_5 H 0.989667 0.0270814 0.386651
H46_5 H 0.973454 0.979841 0.386651
H46_6 H 0.0265465 0.0201586 0.386651
H45_6 H 0.0103328 0.972919 0.386651
H50_7 H 0.0262635 0.113649 0.97964
H49_7 H 0.963026 0.113649 0.993359
H49_8 H 0.036974 0.886351 0.993359
H50_8 H 0.973736 0.886351 0.97964
H46_7 H 0.973454 0.0201586 0.613349
H45_7 H 0.989667 0.972919 0.613349
H45_8 H 0.0103328 0.0270814 0.613349
H46_8 H 0.0265465 0.979841 0.613349
loop_
_geom_bond_atom_site_label_1
_geom_bond_atom_site_label_2
_geom_bond_site_symmetry_1
_geom_bond_site_symmetry_2
Cu1 O1 1_555 1_555
Cu2 O3 1_555 1_555
Cu3 O8 1_555 1_555
O2 Cu1 1_555 1_555
O3 C12 1_555 1_555
O4 Cu2 1_555 1_555
O5 Cu2 1_555 1_555
O6 C12 1_555 1_555
O7 C13 1_555 1_555
O9 Cu3 1_555 1_555
C1 O2 1_555 1_555
C2 C1 1_555 1_555
C3 C2 1_555 1_555
H1 C3 1_555 1_555
C4 C3 1_555 1_555
C5 C4 1_555 1_555
H2 C5 1_555 1_555
C6 C4 1_555 1_555
C7 C6 1_555 1_555
H3 C7 1_555 1_555
C8 C7 1_555 1_555
H4 C8 1_555 1_555
C9 C8 1_555 1_555
C10 C9 1_555 1_555
H5 C10 1_555 1_555
C11 C6 1_555 1_555
H6 C11 1_555 1_555
C12 C9 1_555 1_555
C13 O5 1_555 1_555
C14 C13 1_555 1_555
C15 C14 1_555 1_555
H7 C15 1_555 1_555
C16 C15 1_555 1_555
H8 C16 1_555 1_555
C17 C16 1_555 1_555
C18 C17 1_555 1_555
H9 C18 1_555 1_555
C19 C14 1_555 1_555
H10 C19 1_555 1_555
C20 H11 1_555 1_555
C21 C17 1_555 1_555
C22 C21 1_555 1_555
H12 C22 1_555 1_555
C23 C22 1_555 1_555
C24 O9 1_555 1_555
Cu6 O16 1_555 1_555
Cu8 O6 1_555 1_555
Cu12 O28 1_555 1_555
Cu14 O23 1_555 1_555
Cu15 O36 1_555 1_555
Cu17 O41 1_555 1_555
Cu18 O42 1_555 1_555
O11 Cu1 1_555 1_555
O13 Cu1 1_555 1_555
O14 Cu1 1_555 1_555
O16 C53 1_555 1_555
O19 Cu6 1_555 1_555
O22 Cu8 1_555 1_555
O23 C57 1_555 1_555
O25 Cu6 1_555 1_555
O28 C53 1_555 1_555
O30 Cu2 1_555 1_555
O32 Cu6 1_555 1_555
O35 Cu2 1_555 1_555
O36 C57 1_555 1_555
O38 Cu6 1_555 1_555
O41 C84 1_555 1_555
O42 C84 1_555 1_555
C25 O11 1_555 1_555
C26 C25 1_555 1_555
C28 C26 1_555 1_555
H14 C28 1_555 1_555
C31 C28 1_555 1_555
C33 C31 1_555 1_555
H16 C33 1_555 1_555
C35 C31 1_555 1_555
C38 C35 1_555 1_555
H18 C38 1_555 1_555
C41 C38 1_555 1_555
H21 C41 1_555 1_555
C44 C41 1_555 1_555
C47 C44 1_555 1_555
H24 C47 1_555 1_555
C50 C35 1_555 1_555
H27 C50 1_555 1_555
C53 C44 1_555 1_555
C56 O22 1_555 1_555
C57 C60 1_555 1_555
C59 C56 1_555 1_555
C60 C63 1_555 1_555
C62 C59 1_555 1_555
C63 H31 1_555 1_555
H30 C62 1_555 1_555
C65 C62 1_555 1_555
C66 C63 1_555 1_555
H33 C65 1_555 1_555
H34 C66 1_555 1_555
C68 C65 1_555 1_555
C69 C66 1_555 1_555
C71 C68 1_555 1_555
C72 C69 1_555 1_555
H36 C71 1_555 1_555
H37 C72 1_555 1_555
C74 C59 1_555 1_555
C75 C60 1_555 1_555
H39 C74 1_555 1_555
H40 C75 1_555 1_555
C76 H41 1_555 1_555
C78 C68 1_555 1_555
C79 C69 1_555 1_555
C81 C78 1_555 1_555
C82 C79 1_555 1_555
H43 C81 1_555 1_555
H44 C82 1_555 1_555
C83 C81 1_555 1_555
C84 C83 1_555 1_555
O7 Cu8 1_555 1_555
C10 C11 1_555 1_555
C18 C19 1_555 1_555
C20 C21 1_555 1_555
C23 C24 1_555 1_555
O35 C56 1_555 1_555
C47 C50 1_555 1_555
C71 C74 1_555 1_555
C72 C75 1_555 1_555
C76 C78 1_555 1_555
C76 C79 1_555 1_555
C82 C83 1_555 1_555
Cu3_2 O8_2 1_555 1_555
C2_2 C1_2 1_555 1_555
H2_2 C5_2 1_555 1_555
Cu4 O10 1_555 1_555
Cu5 O15 1_555 1_555
Cu7 O17 1_555 1_555
Cu9 O27 1_555 1_555
Cu13 O29 1_555 1_555
O10 C1_2 1_555 1_555
O12 Cu4 1_555 1_555
O15 C52 1_555 1_555
O17 C54 1_555 1_555
O18 Cu5 1_555 1_555
O20 Cu7 1_555 1_555
O24 Cu5 1_555 1_555
O26 Cu7 1_555 1_555
O27 C52 1_555 1_555
O29 C54 1_555 1_555
O31 Cu5 1_555 1_555
O33 Cu7 1_555 1_555
O37 Cu5 1_555 1_555
O39 Cu7 1_555 1_555
O44 Cu3_2 1_555 1_555
C26_2 C25_2 1_555 1_555
C27 C2_2 1_555 1_555
C29 C26_2 1_555 1_555
H13 C27 1_555 1_555
H15 C29 1_555 1_555
C30 C5_2 1_555 1_555
C32 C29 1_555 1_555
H16_2 C33_2 1_555 1_555
C34 C30 1_555 1_555
C36 C32 1_555 1_555
C37 C34 1_555 1_555
C39 C36 1_555 1_555
H17 C37 1_555 1_555
H19 C39 1_555 1_555
C40 C37 1_555 1_555
C42 C39 1_555 1_555
H20 C40 1_555 1_555
H22 C42 1_555 1_555
C43 C40 1_555 1_555
C45 C42 1_555 1_555
C46 C43 1_555 1_555
C48 C45 1_555 1_555
H23 C46 1_555 1_555
H25 C48 1_555 1_555
C49 C34 1_555 1_555
C51 C36 1_555 1_555
H26 C49 1_555 1_555
H28 C51 1_555 1_555
C52 C43 1_555 1_555
C54 C45 1_555 1_555
O12 C25_2 1_555 1_555
C27 C30 1_555 1_555
C32 C33_2 1_555 1_555
C46 C49 1_555 1_555
C48 C51 1_555 1_555
O8_2 H49 1_555 1_555
C20_2 H11_2 1_555 1_555
Cu15 O21 1_555 1_555
Cu14 O34 1_555 1_555
Cu16 O40 1_555 1_555
O21 C55 1_555 1_555
O34 C55 1_555 1_555
O40 C24_2 1_555 1_555
C55 C58 1_555 1_555
C58 C61 1_555 1_555
C61 H29 1_555 1_555
C64 C61 1_555 1_555
H32 C64 1_555 1_555
C67 C64 1_555 1_555
C70 C67 1_555 1_555
H35 C70 1_555 1_555
C73 C58 1_555 1_555
H38 C73 1_555 1_555
C77 C20_2 1_555 1_555
C80 C23_2 1_555 1_555
H42 C80 1_555 1_555
C23_2 C24_2 1_555 1_555
C67 C77 1_555 1_555
C70 C73 1_555 1_555
C77 C80 1_555 1_555
Cu3_3 O8_3 1_555 1_555
O45 Cu3_3 1_555 1_555
Cu3_4 O8_4 1_555 1_555
O43 Cu3_4 1_555 1_555
O8_4 H50 1_555 1_555
Cu16 O8_5 1_555 1_555
Cu16_2 O8_6 1_555 1_555
O43_2 Cu16_2 1_555 1_555
O8_6 H50_2 1_555 1_555
C20_3 H11_3 1_555 1_555
Cu10 O21_2 1_555 1_555
Cu11 O34_2 1_555 1_555
O21_2 C55_2 1_555 1_555
O34_2 C55_2 1_555 1_555
O45 C24_3 1_555 1_555
C55_2 C58_2 1_555 1_555
C58_2 C61_2 1_555 1_555
C61_2 H29_2 1_555 1_555
C64_2 C61_2 1_555 1_555
H32_2 C64_2 1_555 1_555
C67_2 C64_2 1_555 1_555
C70_2 C67_2 1_555 1_555
H35_2 C70_2 1_555 1_555
C73_2 C58_2 1_555 1_555
H38_2 C73_2 1_555 1_555
C77_2 C20_3 1_555 1_555
C80_2 C23_3 1_555 1_555
H42_2 C80_2 1_555 1_555
C23_3 C24_3 1_555 1_555
C67_2 C77_2 1_555 1_555
C70_2 C73_2 1_555 1_555
C77_2 C80_2 1_555 1_555
Cu16_3 O8_7 1_555 1_555
O7_2 C13_2 1_555 1_555
O9_2 Cu16_3 1_555 1_555
C13_2 O25 1_555 1_555
C14_2 C13_2 1_555 1_555
C15_2 C14_2 1_555 1_555
H7_2 C15_2 1_555 1_555
C16_2 C15_2 1_555 1_555
H8_2 C16_2 1_555 1_555
C17_2 C16_2 1_555 1_555
C18_2 C17_2 1_555 1_555
H9_2 C18_2 1_555 1_555
C19_2 C14_2 1_555 1_555
H10_2 C19_2 1_555 1_555
C20_4 H11_4 1_555 1_555
C21_2 C17_2 1_555 1_555
C22_2 C21_2 1_555 1_555
H12_2 C22_2 1_555 1_555
C23_4 C22_2 1_555 1_555
C24_4 O9_2 1_555 1_555
Cu11 O23_2 1_555 1_555
Cu10 O36_2 1_555 1_555
Cu18 O41_2 1_555 1_555
Cu17 O42_2 1_555 1_555
O22_2 Cu12 1_555 1_555
O23_2 C57_2 1_555 1_555
O36_2 C57_2 1_555 1_555
O41_2 C84_2 1_555 1_555
O42_2 C84_2 1_555 1_555
C56_2 O22_2 1_555 1_555
C57_2 C60_2 1_555 1_555
C59_2 C56_2 1_555 1_555
C60_2 C63_2 1_555 1_555
C62_2 C59_2 1_555 1_555
C63_2 H31_2 1_555 1_555
H30_2 C62_2 1_555 1_555
C65_2 C62_2 1_555 1_555
C66_2 C63_2 1_555 1_555
H33_2 C65_2 1_555 1_555
H34_2 C66_2 1_555 1_555
C68_2 C65_2 1_555 1_555
C69_2 C66_2 1_555 1_555
C71_2 C68_2 1_555 1_555
C72_2 C69_2 1_555 1_555
H36_2 C71_2 1_555 1_555
H37_2 C72_2 1_555 1_555
C74_2 C59_2 1_555 1_555
C75_2 C60_2 1_555 1_555
H39_2 C74_2 1_555 1_555
H40_2 C75_2 1_555 1_555
C76_2 H41_2 1_555 1_555
C78_2 C68_2 1_555 1_555
C79_2 C69_2 1_555 1_555
C81_2 C78_2 1_555 1_555
C82_2 C79_2 1_555 1_555
H43_2 C81_2 1_555 1_555
H44_2 C82_2 1_555 1_555
C83_2 C81_2 1_555 1_555
C84_2 C83_2 1_555 1_555
O7_2 Cu12 1_555 1_555
C18_2 C19_2 1_555 1_555
C20_4 C21_2 1_555 1_555
C23_4 C24_4 1_555 1_555
O38 C56_2 1_555 1_555
C71_2 C74_2 1_555 1_555
C72_2 C75_2 1_555 1_555
C76_2 C78_2 1_555 1_555
C76_2 C79_2 1_555 1_555
C82_2 C83_2 1_555 1_555
Cu16_4 O8_8 1_555 1_555
O44_2 Cu16_4 1_555 1_555
O8_8 H49_2 1_555 1_555
Cu1_2 O1_2 1_555 1_555
Cu9 O16_2 1_555 1_555
Cu8 O17_2 1_555 1_555
O11_2 Cu1_2 1_555 1_555
O12_2 Cu4_2 1_555 1_555
O16_2 C53_2 1_555 1_555
O17_2 C54_2 1_555 1_555
O19_2 Cu9 1_555 1_555
O20_2 Cu8 1_555 1_555
O25_2 Cu9 1_555 1_555
O31 C53_2 1_555 1_555
O30 C54_2 1_555 1_555
O38_2 Cu9 1_555 1_555
C25_3 O11_2 1_555 1_555
C26_3 C25_3 1_555 1_555
C28_2 C26_3 1_555 1_555
C29_2 C26_3 1_555 1_555
H14_2 C28_2 1_555 1_555
H15_2 C29_2 1_555 1_555
C31_2 C28_2 1_555 1_555
C32_2 C29_2 1_555 1_555
C33_3 C31_2 1_555 1_555
H16_3 C33_3 1_555 1_555
C35_2 C31_2 1_555 1_555
C36_2 C32_2 1_555 1_555
C38_2 C35_2 1_555 1_555
C39_2 C36_2 1_555 1_555
H18_2 C38_2 1_555 1_555
H19_2 C39_2 1_555 1_555
C41_2 C38_2 1_555 1_555
C42_2 C39_2 1_555 1_555
H21_2 C41_2 1_555 1_555
H22_2 C42_2 1_555 1_555
C44_2 C41_2 1_555 1_555
C45_2 C42_2 1_555 1_555
C47_2 C44_2 1_555 1_555
C48_2 C45_2 1_555 1_555
H24_2 C47_2 1_555 1_555
H25_2 C48_2 1_555 1_555
C50_2 C35_2 1_555 1_555
C51_2 C36_2 1_555 1_555
H27_2 C50_2 1_555 1_555
H28_2 C51_2 1_555 1_555
C53_2 C44_2 1_555 1_555
C54_2 C45_2 1_555 1_555
O12_2 C25_3 1_555 1_555
C32_2 C33_3 1_555 1_555
C47_2 C50_2 1_555 1_555
C48_2 C51_2 1_555 1_555
O1_2 H46 1_555 1_555
Cu1_3 O1_3 1_555 1_555
O13_2 Cu1_3 1_555 1_555
O1_3 H45 1_555 1_555
Cu1_4 O1_4 1_555 1_555
Cu14_2 O23_3 1_555 1_555
Cu15_2 O36_3 1_555 1_555
O14_2 Cu1_4 1_555 1_555
O23_3 C57_3 1_555 1_555
O36_3 C57_3 1_555 1_555
O43 C84_3 1_555 1_555
C57_3 C60_3 1_555 1_555
C60_3 C63_3 1_555 1_555
C63_3 H31_3 1_555 1_555
C66_3 C63_3 1_555 1_555
H34_3 C66_3 1_555 1_555
C69_3 C66_3 1_555 1_555
C72_3 C69_3 1_555 1_555
H37_3 C72_3 1_555 1_555
C75_3 C60_3 1_555 1_555
H40_3 C75_3 1_555 1_555
C76_3 H41_3 1_555 1_555
C79_3 C69_3 1_555 1_555
C82_3 C79_3 1_555 1_555
H44_3 C82_3 1_555 1_555
C84_3 C83_3 1_555 1_555
C72_3 C75_3 1_555 1_555
C76_3 C79_3 1_555 1_555
C82_3 C83_3 1_555 1_555
Cu1_5 O1_5 1_555 1_555
Cu13 O3_2 1_555 1_555
Cu18 O8_9 1_555 1_555
O2_2 Cu1_5 1_555 1_555
O3_2 C12_2 1_555 1_555
O4_2 Cu13 1_555 1_555
O5_2 Cu13 1_555 1_555
O33 C12_2 1_555 1_555
O39 C13_3 1_555 1_555
O9_3 Cu18 1_555 1_555
C1_3 O2_2 1_555 1_555
C2_3 C1_3 1_555 1_555
C3_2 C2_3 1_555 1_555
H1_2 C3_2 1_555 1_555
C4_2 C3_2 1_555 1_555
C5_3 C4_2 1_555 1_555
H2_3 C5_3 1_555 1_555
C6_2 C4_2 1_555 1_555
C7_2 C6_2 1_555 1_555
H3_2 C7_2 1_555 1_555
C8_2 C7_2 1_555 1_555
H4_2 C8_2 1_555 1_555
C9_2 C8_2 1_555 1_555
C10_2 C9_2 1_555 1_555
H5_2 C10_2 1_555 1_555
C11_2 C6_2 1_555 1_555
H6_2 C11_2 1_555 1_555
C12_2 C9_2 1_555 1_555
C13_3 O5_2 1_555 1_555
C14_3 C13_3 1_555 1_555
C15_3 C14_3 1_555 1_555
H7_3 C15_3 1_555 1_555
C16_3 C15_3 1_555 1_555
H8_3 C16_3 1_555 1_555
C17_3 C16_3 1_555 1_555
C18_3 C17_3 1_555 1_555
H9_3 C18_3 1_555 1_555
C19_3 C14_3 1_555 1_555
H10_3 C19_3 1_555 1_555
C20_5 H11_5 1_555 1_555
C21_3 C17_3 1_555 1_555
C22_3 C21_3 1_555 1_555
H12_3 C22_3 1_555 1_555
C23_5 C22_3 1_555 1_555
C24_5 O9_3 1_555 1_555
Cu4_5 O10_2 1_555 1_555
Cu12 O15_2 1_555 1_555
Cu15_2 O21_3 1_555 1_555
Cu14_2 O34_3 1_555 1_555
Cu17 O40_2 1_555 1_555
O10_2 C1_3 1_555 1_555
O15_2 C52_2 1_555 1_555
O18_2 Cu12 1_555 1_555
O21_3 C55_3 1_555 1_555
O32 C52_2 1_555 1_555
O34_3 C55_3 1_555 1_555
O35_2 Cu13 1_555 1_555
O40_2 C24_5 1_555 1_555
O44_2 C84_4 1_555 1_555
O45_2 Cu18 1_555 1_555
C27_2 C2_3 1_555 1_555
H13_2 C27_2 1_555 1_555
C30_2 C5_3 1_555 1_555
C34_2 C30_2 1_555 1_555
C37_2 C34_2 1_555 1_555
H17_2 C37_2 1_555 1_555
C40_2 C37_2 1_555 1_555
H20_2 C40_2 1_555 1_555
C43_2 C40_2 1_555 1_555
C46_2 C43_2 1_555 1_555
H23_2 C46_2 1_555 1_555
C49_2 C34_2 1_555 1_555
H26_2 C49_2 1_555 1_555
C52_2 C43_2 1_555 1_555
C55_3 C58_3 1_555 1_555
C56_3 O26 1_555 1_555
C58_3 C61_3 1_555 1_555
C59_3 C56_3 1_555 1_555
C61_3 H29_3 1_555 1_555
C62_3 C59_3 1_555 1_555
H30_3 C62_3 1_555 1_555
C64_3 C61_3 1_555 1_555
C65_3 C62_3 1_555 1_555
H32_3 C64_3 1_555 1_555
H33_3 C65_3 1_555 1_555
C67_3 C64_3 1_555 1_555
C68_3 C65_3 1_555 1_555
C70_3 C67_3 1_555 1_555
C71_3 C68_3 1_555 1_555
H35_3 C70_3 1_555 1_555
H36_3 C71_3 1_555 1_555
C73_3 C58_3 1_555 1_555
C74_3 C59_3 1_555 1_555
H38_3 C73_3 1_555 1_555
H39_3 C74_3 1_555 1_555
C76_4 H41_4 1_555 1_555
C77_3 C20_5 1_555 1_555
C78_3 C68_3 1_555 1_555
C80_3 C23_5 1_555 1_555
C81_3 C78_3 1_555 1_555
H42_3 C80_3 1_555 1_555
H43_3 C81_3 1_555 1_555
C83_4 C81_3 1_555 1_555
C84_4 C83_4 1_555 1_555
C10_2 C11_2 1_555 1_555
C18_3 C19_3 1_555 1_555
C20_5 C21_3 1_555 1_555
C23_5 C24_5 1_555 1_555
O35_2 C56_3 1_555 1_555
C27_2 C30_2 1_555 1_555
C46_2 C49_2 1_555 1_555
C67_3 C77_3 1_555 1_555
C70_3 C73_3 1_555 1_555
C71_3 C74_3 1_555 1_555
C76_4 C78_3 1_555 1_555
C77_3 C80_3 1_555 1_555
Cu17 O8_10 1_555 1_555
O37 C13_4 1_555 1_555
O9_4 Cu17 1_555 1_555
C13_4 O25_2 1_555 1_555
C14_4 C13_4 1_555 1_555
C15_4 C14_4 1_555 1_555
H7_4 C15_4 1_555 1_555
C16_4 C15_4 1_555 1_555
H8_4 C16_4 1_555 1_555
C17_4 C16_4 1_555 1_555
C18_4 C17_4 1_555 1_555
H9_4 C18_4 1_555 1_555
C19_4 C14_4 1_555 1_555
H10_4 C19_4 1_555 1_555
C20_6 H11_6 1_555 1_555
C21_4 C17_4 1_555 1_555
C22_4 C21_4 1_555 1_555
H12_4 C22_4 1_555 1_555
C23_6 C22_4 1_555 1_555
C24_6 O9_4 1_555 1_555
Cu10_2 O21_4 1_555 1_555
Cu11_2 O34_4 1_555 1_555
O21_4 C55_4 1_555 1_555
O34_4 C55_4 1_555 1_555
O45_2 C24_6 1_555 1_555
O44 C84_5 1_555 1_555
C55_4 C58_4 1_555 1_555
C56_4 O24 1_555 1_555
C58_4 C61_4 1_555 1_555
C59_4 C56_4 1_555 1_555
C61_4 H29_4 1_555 1_555
C62_4 C59_4 1_555 1_555
H30_4 C62_4 1_555 1_555
C64_4 C61_4 1_555 1_555
C65_4 C62_4 1_555 1_555
H32_4 C64_4 1_555 1_555
H33_4 C65_4 1_555 1_555
C67_4 C64_4 1_555 1_555
C68_4 C65_4 1_555 1_555
C70_4 C67_4 1_555 1_555
C71_4 C68_4 1_555 1_555
H35_4 C70_4 1_555 1_555
H36_4 C71_4 1_555 1_555
C73_4 C58_4 1_555 1_555
C74_4 C59_4 1_555 1_555
H38_4 C73_4 1_555 1_555
H39_4 C74_4 1_555 1_555
C76_5 H41_5 1_555 1_555
C77_4 C20_6 1_555 1_555
C78_4 C68_4 1_555 1_555
C80_4 C23_6 1_555 1_555
C81_4 C78_4 1_555 1_555
H42_4 C80_4 1_555 1_555
H43_4 C81_4 1_555 1_555
C83_5 C81_4 1_555 1_555
C84_5 C83_5 1_555 1_555
C18_4 C19_4 1_555 1_555
C20_6 C21_4 1_555 1_555
C23_6 C24_6 1_555 1_555
O38_2 C56_4 1_555 1_555
C67_4 C77_4 1_555 1_555
C70_4 C73_4 1_555 1_555
C71_4 C74_4 1_555 1_555
C76_5 C78_4 1_555 1_555
C77_4 C80_4 1_555 1_555
Cu11_2 O23_4 1_555 1_555
Cu10_2 O36_4 1_555 1_555
O23_4 C57_4 1_555 1_555
O36_4 C57_4 1_555 1_555
O43_2 C84_6 1_555 1_555
C57_4 C60_4 1_555 1_555
C60_4 C63_4 1_555 1_555
C63_4 H31_4 1_555 1_555
C66_4 C63_4 1_555 1_555
H34_4 C66_4 1_555 1_555
C69_4 C66_4 1_555 1_555
C72_4 C69_4 1_555 1_555
H37_4 C72_4 1_555 1_555
C75_4 C60_4 1_555 1_555
H40_4 C75_4 1_555 1_555
C76_6 H41_6 1_555 1_555
C79_4 C69_4 1_555 1_555
C82_4 C79_4 1_555 1_555
H44_4 C82_4 1_555 1_555
C84_6 C83_6 1_555 1_555
C72_4 C75_4 1_555 1_555
C76_6 C79_4 1_555 1_555
C82_4 C83_6 1_555 1_555
O1_4 H45_2 1_555 1_555
O1_5 H46_2 1_555 1_555
C2_4 C1_4 1_555 1_555
H2_4 C5_4 1_555 1_555
Cu15 O15_3 1_555 1_555
Cu10 O17_3 1_555 1_555
Cu14 O27_2 1_555 1_555
Cu11 O29_2 1_555 1_555
O14 C1_4 1_555 1_555
O15_3 C52_3 1_555 1_555
O17_3 C54_3 1_555 1_555
O18_3 Cu15 1_555 1_555
O20_3 Cu10 1_555 1_555
O27_2 C52_3 1_555 1_555
O29_2 C54_3 1_555 1_555
O31_2 Cu15 1_555 1_555
O33_2 Cu10 1_555 1_555
C26_4 C25_4 1_555 1_555
C27_3 C2_4 1_555 1_555
C29_3 C26_4 1_555 1_555
H13_3 C27_3 1_555 1_555
H15_3 C29_3 1_555 1_555
C30_3 C5_4 1_555 1_555
C32_3 C29_3 1_555 1_555
H16_4 C33_4 1_555 1_555
C34_3 C30_3 1_555 1_555
C36_3 C32_3 1_555 1_555
C37_3 C34_3 1_555 1_555
C39_3 C36_3 1_555 1_555
H17_3 C37_3 1_555 1_555
H19_3 C39_3 1_555 1_555
C40_3 C37_3 1_555 1_555
C42_3 C39_3 1_555 1_555
H20_3 C40_3 1_555 1_555
H22_3 C42_3 1_555 1_555
C43_3 C40_3 1_555 1_555
C45_3 C42_3 1_555 1_555
C46_3 C43_3 1_555 1_555
C48_3 C45_3 1_555 1_555
H23_3 C46_3 1_555 1_555
H25_3 C48_3 1_555 1_555
C49_3 C34_3 1_555 1_555
C51_3 C36_3 1_555 1_555
H26_3 C49_3 1_555 1_555
H28_3 C51_3 1_555 1_555
C52_3 C43_3 1_555 1_555
C54_3 C45_3 1_555 1_555
O13 C25_4 1_555 1_555
C27_3 C30_3 1_555 1_555
C32_3 C33_4 1_555 1_555
C46_3 C49_3 1_555 1_555
C48_3 C51_3 1_555 1_555
O8_5 H49_3 1_555 1_555
Cu4 O1_6 1_555 1_555
Cu11_2 O3_3 1_555 1_555
O2_3 Cu4 1_555 1_555
O3_3 C12_3 1_555 1_555
O4_3 Cu11_2 1_555 1_555
O6_2 C12_3 1_555 1_555
C1_5 O2_3 1_555 1_555
C2_5 C1_5 1_555 1_555
C3_3 C2_5 1_555 1_555
H1_3 C3_3 1_555 1_555
C4_3 C3_3 1_555 1_555
C5_5 C4_3 1_555 1_555
H2_5 C5_5 1_555 1_555
C6_3 C4_3 1_555 1_555
C7_3 C6_3 1_555 1_555
H3_3 C7_3 1_555 1_555
C8_3 C7_3 1_555 1_555
H4_3 C8_3 1_555 1_555
C9_3 C8_3 1_555 1_555
C10_3 C9_3 1_555 1_555
H5_3 C10_3 1_555 1_555
C11_3 C6_3 1_555 1_555
H6_3 C11_3 1_555 1_555
C12_3 C9_3 1_555 1_555
Cu14_2 O16_3 1_555 1_555
Cu10_2 O6_2 1_555 1_555
Cu15_2 O28_2 1_555 1_555
O11_3 Cu4 1_555 1_555
O16_3 C53_3 1_555 1_555
O19_3 Cu14_2 1_555 1_555
O28_2 C53_3 1_555 1_555
O30_2 Cu11_2 1_555 1_555
O32_2 Cu14_2 1_555 1_555
C25_5 O11_3 1_555 1_555
C26_5 C25_5 1_555 1_555
C28_3 C26_5 1_555 1_555
H14_3 C28_3 1_555 1_555
C31_3 C28_3 1_555 1_555
C33_5 C31_3 1_555 1_555
H16_5 C33_5 1_555 1_555
C35_3 C31_3 1_555 1_555
C38_3 C35_3 1_555 1_555
H18_3 C38_3 1_555 1_555
C41_3 C38_3 1_555 1_555
H21_3 C41_3 1_555 1_555
C44_3 C41_3 1_555 1_555
C47_3 C44_3 1_555 1_555
H24_3 C47_3 1_555 1_555
C50_3 C35_3 1_555 1_555
H27_3 C50_3 1_555 1_555
C53_3 C44_3 1_555 1_555
C10_3 C11_3 1_555 1_555
C47_3 C50_3 1_555 1_555
O8_7 H50_3 1_555 1_555
O8 H50_4 1_555 1_555
O8_3 H49_4 1_555 1_555
Cu4_2 O1_7 1_555 1_555
O1_7 H45_3 1_555 1_555
Cu4_3 O1_8 1_555 1_555
Cu14 O16_4 1_555 1_555
Cu10_2 O17_4 1_555 1_555
O11_4 Cu4_3 1_555 1_555
O16_4 C53_4 1_555 1_555
O17_4 C54_4 1_555 1_555
O19_4 Cu14 1_555 1_555
O20_4 Cu10_2 1_555 1_555
O31_2 C53_4 1_555 1_555
O30_2 C54_4 1_555 1_555
C25_6 O11_4 1_555 1_555
C26_6 C25_6 1_555 1_555
C28_4 C26_6 1_555 1_555
C29_4 C26_6 1_555 1_555
H14_4 C28_4 1_555 1_555
H15_4 C29_4 1_555 1_555
C31_4 C28_4 1_555 1_555
C32_4 C29_4 1_555 1_555
C33_6 C31_4 1_555 1_555
H16_6 C33_6 1_555 1_555
C35_4 C31_4 1_555 1_555
C36_4 C32_4 1_555 1_555
C38_4 C35_4 1_555 1_555
C39_4 C36_4 1_555 1_555
H18_4 C38_4 1_555 1_555
H19_4 C39_4 1_555 1_555
C41_4 C38_4 1_555 1_555
C42_4 C39_4 1_555 1_555
H21_4 C41_4 1_555 1_555
H22_4 C42_4 1_555 1_555
C44_4 C41_4 1_555 1_555
C45_4 C42_4 1_555 1_555
C47_4 C44_4 1_555 1_555
C48_4 C45_4 1_555 1_555
H24_4 C47_4 1_555 1_555
H25_4 C48_4 1_555 1_555
C50_4 C35_4 1_555 1_555
C51_4 C36_4 1_555 1_555
H27_4 C50_4 1_555 1_555
H28_4 C51_4 1_555 1_555
C53_4 C44_4 1_555 1_555
C54_4 C45_4 1_555 1_555
O13_2 C25_6 1_555 1_555
C32_4 C33_6 1_555 1_555
C47_4 C50_4 1_555 1_555
C48_4 C51_4 1_555 1_555
O1_8 H46_3 1_555 1_555
Cu4_4 O1_9 1_555 1_555
Cu11 O3_4 1_555 1_555
O2_4 Cu4_4 1_555 1_555
O3_4 C12_4 1_555 1_555
O4_4 Cu11 1_555 1_555
O33_2 C12_4 1_555 1_555
C1_6 O2_4 1_555 1_555
C2_6 C1_6 1_555 1_555
C3_4 C2_6 1_555 1_555
H1_4 C3_4 1_555 1_555
C4_4 C3_4 1_555 1_555
C5_6 C4_4 1_555 1_555
H2_6 C5_6 1_555 1_555
C6_4 C4_4 1_555 1_555
C7_4 C6_4 1_555 1_555
H3_4 C7_4 1_555 1_555
C8_4 C7_4 1_555 1_555
H4_4 C8_4 1_555 1_555
C9_4 C8_4 1_555 1_555
C10_4 C9_4 1_555 1_555
H5_4 C10_4 1_555 1_555
C11_4 C6_4 1_555 1_555
H6_4 C11_4 1_555 1_555
C12_4 C9_4 1_555 1_555
Cu15_2 O15_4 1_555 1_555
O14_2 C1_6 1_555 1_555
O15_4 C52_4 1_555 1_555
O18_4 Cu15_2 1_555 1_555
O32_2 C52_4 1_555 1_555
C27_4 C2_6 1_555 1_555
H13_4 C27_4 1_555 1_555
C30_4 C5_6 1_555 1_555
C34_4 C30_4 1_555 1_555
C37_4 C34_4 1_555 1_555
H17_4 C37_4 1_555 1_555
C40_4 C37_4 1_555 1_555
H20_4 C40_4 1_555 1_555
C43_4 C40_4 1_555 1_555
C46_4 C43_4 1_555 1_555
H23_4 C46_4 1_555 1_555
C49_4 C34_4 1_555 1_555
H26_4 C49_4 1_555 1_555
C52_4 C43_4 1_555 1_555
C10_4 C11_4 1_555 1_555
C27_4 C30_4 1_555 1_555
C46_4 C49_4 1_555 1_555
Cu4_5 O1_10 1_555 1_555
O1_9 H46_4 1_555 1_555
O1_10 H45_4 1_555 1_555
O8_5 H50_5 1_555 1_555
O8_7 H49_5 1_555 1_555
O8 H49_6 1_555 1_555
O8_3 H50_6 1_555 1_555
O1_9 H45_5 1_555 1_555
O1_10 H46_5 1_555 1_555
O1_7 H46_6 1_555 1_555
O1_8 H45_6 1_555 1_555
O8_2 H50_7 1_555 1_555
O8_4 H49_7 1_555 1_555
O8_6 H49_8 1_555 1_555
O8_8 H50_8 1_555 1_555
O1_4 H46_7 1_555 1_555
O1_5 H45_7 1_555 1_555
O1_2 H45_8 1_555 1_555
O1_3 H46_8 1_555 1_555

#END
