
###############################################################################
#
# This file contains modified crystal structure data generated from the
# MOF subset of the Cambridge Structural Database (CSD) v543 
# hosted by the Cambridge Crystallographic Data Centre (CCDC).
#
# This work is licensed under the Creative Commons
# Attribution-NonCommercial-ShareAlike 4.0 International License.
# To view a copy of this license, visit
# http://creativecommons.org/licenses/by-nc-sa/4.0/
# or send a letter to
# Creative Commons, PO Box 1866, Mountain View, CA 94042, USA.
#
# CIF created using the CSD Python API on 29 September 2022
# The structure has been converted into the P1 space group
# The structure has a 3D framework
# The original CSD entry ANUGIA is in the rhombohedral crystal system
# The framework has been calculated to contain at least 10.0% void space
# The void calculation uses a probe of radius 1.32A, grid spacing 0.4
# H atom positions have been added when not included in the experimental data
# Generated hydrogen atom positions removed from atoms on special positions
#
###############################################################################

data_ANUGIA
_chemical_formula_moiety         '(C252 H198 Cu18 O84)n'
_symmetry_cell_setting           triclinic
_symmetry_space_group_name_H-M   'P 1'
_symmetry_Int_Tables_number      1
_space_group_name_Hall           'P 1'
loop_
_symmetry_equiv_pos_site_id
_symmetry_equiv_pos_as_xyz
1 x,y,z
_cell_length_a                   26.3043(11)
_cell_length_b                   26.3043(11)
_cell_length_c                   26.5885(19)
_cell_angle_alpha                90
_cell_angle_beta                 90
_cell_angle_gamma                120
_cell_volume                     15932.3
loop_
_atom_site_label
_atom_site_type_symbol
_atom_site_fract_x
_atom_site_fract_y
_atom_site_fract_z
Cu1 Cu 0.39833(5) 0.19917(2) 0.29450(5)
Cu2 Cu 0.43713(5) 0.56287(3) 0.71109(5)
O1 O 0.3514(2) 0.2265(2) 0.3253(2)
O2 O 0.4094(4) 0.59063(18) 0.7772(3)
O3 O 0.3469(4) 0.1734(2) 0.2215(4)
O4 O 0.3622(2) 0.5351(2) 0.6780(2)
O5 O 0.38737(19) 0.50707(18) 0.60635(17)
O6 O 0.40383(19) 0.25390(18) 0.39748(18)
C1 C 0.3241(3) 0.2715(3) 0.3886(4)
C2 C 0.2946(4) 0.3111(4) 0.4540(4)
H1 H 0.3001 0.3252 0.4868
C3 C 0.3299(4) 0.2906(4) 0.4378(4)
H2 H 0.3572 0.2894 0.4592
C4 C 0.2505(4) 0.3131(3) 0.4257(4)
C5 C 0.2447(4) 0.2902(4) 0.3805(5)
H3 H 0.2146 0.2871 0.3600
C6 C 0.2819(4) 0.2701(4) 0.3612(4)
H4 H 0.2762 0.2557 0.3285
C7 C 0.3616(3) 0.2481(3) 0.3674(4)
C8 C 0.3518(3) 0.5143(3) 0.6340(3)
C9 C 0.1571(2) 0.3141(2) 0.4287(4)
H5 H 0.1433 0.2865 0.4029
C10 C 0.2111(3) 0.3326(3) 0.4459(3)
C11 C 0.2324(3) 0.3757(3) 0.4828(3)
H6 H 0.2708 0.3904 0.4939
C12 C 0.1992(2) 0.3983(2) 0.5043(5)
C13 C 0.2200(2) 0.4399(2) 0.5477(4)
C14 C 0.25631(18) 0.51261(18) 0.6332(4)
H7 H 0.2679 0.5357 0.6620
C15 C 0.2932(3) 0.4932(3) 0.6090(3)
C16 C 0.2737(3) 0.4573(3) 0.5692(3)
H8 H 0.2973 0.4437 0.5556
Cu3 Cu 0.46750(2) 0.53249(5) 0.62783(5)
Cu5 Cu 0.06500(5) 0.53249(5) 0.62783(5)
Cu6 Cu 0.45907(6) 0.22954(5) 0.37776(5)
Cu8 Cu 0.12574(6) 0.56287(5) 0.71109(5)
O8 O 0.3514(2) 0.1249(3) 0.3253(2)
O9 O 0.1729(3) 0.5351(2) 0.6780(2)
O10 O 0.4649(2) 0.6378(2) 0.6780(2)
O11 O 0.11970(26) 0.50707(18) 0.60635(17)
O12 O 0.45303(26) 0.27930(19) 0.27302(17)
O13 O 0.45303(26) 0.17374(18) 0.27302(17)
O15 O 0.41277(18) 0.48326(26) 0.73081(18)
O16 O 0.51674(26) 0.58723(18) 0.73081(18)
C18 C 0.0165(6) 0.3111(4) 0.4540(4)
H9 H 0.0251 0.3252 0.4868
C20 C 0.0626(5) 0.3131(3) 0.4257(4)
C21 C 0.0455(6) 0.2902(4) 0.3805(5)
H11 H 0.0725 0.2871 0.3600
C24 C 0.1625(4) 0.5143(3) 0.6340(3)
C25 C 0.1215(4) 0.3326(3) 0.4459(3)
C26 C 0.1433(4) 0.3757(3) 0.4828(3)
H13 H 0.1196 0.3904 0.4939
C27 C 0.2000(4) 0.4932(3) 0.6090(3)
C28 C 0.1836(4) 0.4573(3) 0.5692(3)
H14 H 0.1464 0.4437 0.5556
Cu4 Cu 0.80084(5) 0.19917(2) 0.29450(5)
Cu7 Cu 0.77046(5) 0.22954(3) 0.37776(5)
O7 O 0.8751(3) 0.2265(2) 0.3253(2)
O14 O 0.85007(26) 0.25390(18) 0.39748(18)
C17 C 0.9474(4) 0.2715(3) 0.3886(4)
C19 C 0.9607(6) 0.2906(4) 0.4378(4)
H10 H 0.9322 0.2894 0.4592
C22 C 0.9882(6) 0.2701(4) 0.3612(4)
H12 H 0.9795 0.2557 0.3285
C23 C 0.8865(4) 0.2481(3) 0.3674(4)
O1_2 O 0.7735(2) 0.1249(3) 0.3253(2)
O3_2 O 0.8266(2) 0.1735(4) 0.2215(4)
O6_2 O 0.74610(18) 0.14993(26) 0.39748(18)
C1_2 C 0.7285(3) 0.0526(4) 0.3886(4)
C3_2 C 0.7094(4) 0.0393(6) 0.4378(4)
H2_2 H 0.7106 0.0678 0.4592
C6_2 C 0.7299(4) 0.0118(6) 0.3612(4)
H4_2 H 0.7443 0.0205 0.3285
C7_2 C 0.7519(3) 0.1135(4) 0.3674(4)
O12_2 O 0.72070(19) 0.17374(32) 0.27302(17)
O13_2 O 0.82626(18) 0.27930(32) 0.27302(17)
Cu2_2 Cu 0.43713(3) 0.87426(6) 0.71109(5)
O2_2 O 0.40937(18) 0.81877(44) 0.7772(3)
O4_2 O 0.4649(2) 0.8271(3) 0.6780(2)
O5_2 O 0.49293(18) 0.88030(26) 0.60635(17)
C2_2 C 0.6889(4) 0.9835(6) 0.4540(4)
H1_2 H 0.6748 0.9749 0.4868
C4_2 C 0.6869(3) 0.9374(5) 0.4257(4)
C5_2 C 0.7098(4) 0.9545(6) 0.3805(5)
H3_2 H 0.7129 0.9275 0.3600
C8_2 C 0.4857(3) 0.8375(4) 0.6340(3)
C9_2 C 0.6859(2) 0.8430(3) 0.4287(4)
H5_2 H 0.7135 0.8568 0.4029
C10_2 C 0.6674(3) 0.8785(4) 0.4459(3)
C11_2 C 0.6243(3) 0.8567(4) 0.4828(3)
H6_2 H 0.6096 0.8804 0.4939
C12_2 C 0.6017(2) 0.8009(3) 0.5043(5)
C13_2 C 0.5601(2) 0.7801(3) 0.5477(4)
C14_2 C 0.48739(18) 0.74370(25) 0.6332(4)
H7_2 H 0.4643 0.7322 0.6620
C15_2 C 0.5068(3) 0.8000(4) 0.6090(3)
C16_2 C 0.5427(3) 0.8164(4) 0.5692(3)
H8_2 H 0.5563 0.8536 0.5556
Cu3_2 Cu 0.46751(5) 0.93500(5) 0.62783(5)
Cu4_2 Cu 0.80083(2) 0.60167(5) 0.29450(5)
Cu7_2 Cu 0.77046(3) 0.54093(6) 0.37776(5)
O7_2 O 0.7735(2) 0.6486(4) 0.3253(2)
O10_2 O 0.3622(2) 0.8271(3) 0.6780(2)
O11_2 O 0.49293(18) 0.61263(32) 0.60635(17)
O14_2 O 0.74610(18) 0.59617(32) 0.39748(18)
O15_2 O 0.51674(26) 0.92950(32) 0.73081(18)
O16_2 O 0.41277(18) 0.92950(32) 0.73081(18)
C17_2 C 0.7285(3) 0.6759(5) 0.3886(4)
C18_2 C 0.6889(4) 0.7054(7) 0.4540(4)
H9_2 H 0.6748 0.6999 0.4868
C19_2 C 0.7094(4) 0.6701(7) 0.4378(4)
H10_2 H 0.7106 0.6428 0.4592
C20_2 C 0.6869(3) 0.7495(6) 0.4257(4)
C21_2 C 0.7098(4) 0.7553(7) 0.3805(5)
H11_2 H 0.7129 0.7854 0.3600
C22_2 C 0.7299(4) 0.7181(7) 0.3612(4)
H12_2 H 0.7443 0.7238 0.3285
C23_2 C 0.7519(3) 0.6384(5) 0.3674(4)
C24_2 C 0.4857(3) 0.6482(5) 0.6340(3)
C25_2 C 0.6674(3) 0.7889(5) 0.4459(3)
C26_2 C 0.6243(3) 0.7676(5) 0.4828(3)
H13_2 H 0.6096 0.7292 0.4939
C27_2 C 0.5068(3) 0.7068(5) 0.6090(3)
C28_2 C 0.5427(3) 0.7263(5) 0.5692(3)
H14_2 H 0.5563 0.7027 0.5556
O14_3 O 0.40383(32) 0.14993(26) 0.39748(18)
C17_3 C 0.3241(5) 0.0526(4) 0.3886(4)
C19_3 C 0.3299(7) 0.0393(6) 0.4378(4)
H10_3 H 0.3572 0.0678 0.4592
C22_3 C 0.2819(7) 0.0118(6) 0.3612(4)
H12_3 H 0.2762 0.0205 0.3285
C23_3 C 0.3616(5) 0.1135(4) 0.3674(4)
O2_3 O 0.18123(44) 0.5906(4) 0.7772(3)
O4_3 O 0.1729(3) 0.6378(2) 0.6780(2)
O5_3 O 0.11970(26) 0.61263(19) 0.60635(17)
C2_3 C 0.0165(6) 0.7054(4) 0.4540(4)
H1_3 H 0.0251 0.6999 0.4868
C4_3 C 0.0626(5) 0.7495(4) 0.4257(4)
C5_3 C 0.0455(6) 0.7553(4) 0.3805(5)
H3_3 H 0.0725 0.7854 0.3600
C8_3 C 0.1625(4) 0.6482(3) 0.6340(3)
C9_3 C 0.1570(3) 0.8429(2) 0.4287(4)
H5_3 H 0.1432 0.8567 0.4029
C10_3 C 0.1215(4) 0.7889(3) 0.4459(3)
C11_3 C 0.1433(4) 0.7676(3) 0.4828(3)
H6_3 H 0.1196 0.7292 0.4939
C12_3 C 0.1991(3) 0.8008(2) 0.5043(5)
C13_3 C 0.2199(3) 0.7800(2) 0.5477(4)
C14_3 C 0.25630(25) 0.74369(18) 0.6332(4)
H7_3 H 0.2678 0.7321 0.6620
C15_3 C 0.2000(4) 0.7068(3) 0.6090(3)
C16_3 C 0.1836(4) 0.7263(3) 0.5692(3)
H8_3 H 0.1464 0.7027 0.5556
O11_3 O 0.38737(32) 0.88030(26) 0.60635(17)
O15_3 O 0.07050(32) 0.58723(18) 0.73081(18)
O16_3 O 0.07050(32) 0.48326(26) 0.73081(18)
C18_3 C 0.2946(7) 0.9835(6) 0.4540(4)
H9_3 H 0.3001 0.9749 0.4868
C20_3 C 0.2505(6) 0.9374(5) 0.4257(4)
C21_3 C 0.2447(7) 0.9545(6) 0.3805(5)
H11_3 H 0.2146 0.9275 0.3600
C24_3 C 0.3518(5) 0.8375(4) 0.6340(3)
C25_3 C 0.2111(5) 0.8785(4) 0.4459(3)
C26_3 C 0.2324(5) 0.8567(4) 0.4828(3)
H13_3 H 0.2708 0.8804 0.4939
C27_3 C 0.2932(5) 0.8000(4) 0.6090(3)
C28_3 C 0.2737(5) 0.8164(4) 0.5692(3)
H14_3 H 0.2973 0.8536 0.5556
O1_3 O 0.8751(3) 0.6486(2) 0.3253(2)
O3_3 O 0.8265(4) 0.6531(4) 0.2215(4)
O6_3 O 0.85007(26) 0.59617(19) 0.39748(18)
C1_3 C 0.9474(4) 0.6759(3) 0.3886(4)
C3_3 C 0.9607(6) 0.6701(4) 0.4378(4)
H2_3 H 0.9322 0.6428 0.4592
C6_3 C 0.9882(6) 0.7181(4) 0.3612(4)
H4_3 H 0.9795 0.7238 0.3285
C7_3 C 0.8865(4) 0.6384(3) 0.3674(4)
O12_3 O 0.82626(32) 0.54697(26) 0.27302(17)
O13_3 O 0.72070(32) 0.54697(26) 0.27302(17)
Cu2_3 Cu 0.10380(5) 0.89620(3) 0.04442(5)
O2_4 O 0.0761(4) 0.92396(18) 0.1105(3)
O4_4 O 0.0289(2) 0.8684(2) 0.0113(2)
O10_3 O 0.1316(2) 0.9711(2) 0.0113(2)
O15_4 O 0.07943(18) 0.81660(26) 0.06415(18)
O16_4 O 0.18340(26) 0.92057(18) 0.06415(18)
O1_4 O 0.0181(2) 0.5598(2) 0.6586(2)
O3_4 O 0.0136(4) 0.5067(2) 0.5548(4)
O5_4 O 0.05404(19) 0.84040(18) 0.93968(17)
H2_4 H 0.0239 0.6227 0.7925
C7_4 C 0.0283(3) 0.5814(3) 0.7007(4)
C8_4 C 0.0185(3) 0.8476(3) 0.9673(3)
Cu3_3 Cu 0.13416(2) 0.86583(5) 0.96117(5)
O8_2 O 0.0181(2) 0.4582(3) 0.6586(2)
Cu8_2 Cu 0.79241(6) 0.89620(5) 0.04442(5)
O9_2 O 0.8396(3) 0.8684(2) 0.0113(2)
C1_4 C 0.9908(3) 0.6048(3) 0.7219(4)
C2_4 C 0.9613(4) 0.6444(4) 0.7873(4)
H1_4 H 0.9668 0.6585 0.8201
C3_4 C 0.9966(4) 0.6239(4) 0.7711(4)
C4_4 C 0.9172(4) 0.6464(3) 0.7590(4)
C5_4 C 0.9114(4) 0.6235(4) 0.7138(5)
H3_4 H 0.8813 0.6204 0.6933
C6_4 C 0.9486(4) 0.6034(4) 0.6945(4)
H4_4 H 0.9429 0.5890 0.6618
C9_4 C 0.8238(2) 0.6474(2) 0.7620(4)
H5_4 H 0.8100 0.6198 0.7362
C10_4 C 0.8778(3) 0.6659(3) 0.7792(3)
C11_4 C 0.8991(3) 0.7090(3) 0.8161(3)
H6_4 H 0.9375 0.7237 0.8272
C12_4 C 0.8659(2) 0.7316(2) 0.8376(5)
C13_4 C 0.8867(2) 0.7732(2) 0.8810(4)
C14_4 C 0.92298(18) 0.84594(18) 0.9665(4)
H7_4 H 0.9346 0.8690 0.9953
C15_4 C 0.9599(3) 0.8265(3) 0.9423(3)
C16_4 C 0.9404(3) 0.7906(3) 0.9025(3)
H8_4 H 0.9640 0.7770 0.8889
Cu5_2 Cu 0.73166(5) 0.86583(5) 0.96117(5)
O7_3 O 0.5418(3) 0.5598(2) 0.6586(2)
O11_4 O 0.78637(26) 0.84040(18) 0.93968(17)
C17_4 C 0.6141(4) 0.6048(3) 0.7219(4)
C18_4 C 0.6832(6) 0.6444(4) 0.7873(4)
H9_4 H 0.6918 0.6585 0.8201
C19_4 C 0.6274(6) 0.6239(4) 0.7711(4)
H10_4 H 0.5989 0.6227 0.7925
C20_4 C 0.7293(5) 0.6464(3) 0.7590(4)
C21_4 C 0.7122(6) 0.6235(4) 0.7138(5)
H11_4 H 0.7392 0.6204 0.6933
C22_4 C 0.6549(6) 0.6034(4) 0.6945(4)
H12_4 H 0.6462 0.5890 0.6618
C23_4 C 0.5532(4) 0.5814(3) 0.7007(4)
C24_4 C 0.8292(4) 0.8476(3) 0.9673(3)
C25_4 C 0.7882(4) 0.6659(3) 0.7792(3)
C26_4 C 0.8100(4) 0.7090(3) 0.8161(3)
H13_4 H 0.7863 0.7237 0.8272
C27_4 C 0.8667(4) 0.8265(3) 0.9423(3)
C28_4 C 0.8503(4) 0.7906(3) 0.9025(3)
H14_4 H 0.8131 0.7770 0.8889
Cu2_4 Cu 0.10380(3) 0.20759(6) 0.04442(5)
O2_5 O 0.07604(18) 0.15210(44) 0.1105(3)
O4_5 O 0.1316(2) 0.1604(3) 0.0113(2)
O10_4 O 0.0289(2) 0.1604(3) 0.0113(2)
O15_5 O 0.18340(26) 0.26284(32) 0.06415(18)
O16_5 O 0.07943(18) 0.26284(32) 0.06415(18)
O1_5 O 0.4402(2) 0.4582(3) 0.6586(2)
O3_5 O 0.4933(2) 0.5068(4) 0.5548(4)
O5_5 O 0.15960(18) 0.21363(26) 0.93968(17)
C1_5 C 0.3952(3) 0.3859(4) 0.7219(4)
C2_5 C 0.3556(4) 0.3168(6) 0.7873(4)
H1_5 H 0.3415 0.3082 0.8201
C3_5 C 0.3761(4) 0.3726(6) 0.7711(4)
H2_5 H 0.3773 0.4011 0.7925
C4_5 C 0.3536(3) 0.2707(5) 0.7590(4)
C5_5 C 0.3765(4) 0.2878(6) 0.7138(5)
H3_5 H 0.3796 0.2608 0.6933
C6_5 C 0.3966(4) 0.3451(6) 0.6945(4)
H4_5 H 0.4110 0.3538 0.6618
C7_5 C 0.4186(3) 0.4468(4) 0.7007(4)
C8_5 C 0.1524(3) 0.1708(4) 0.9673(3)
C9_5 C 0.3526(2) 0.1763(3) 0.7620(4)
H5_5 H 0.3802 0.1901 0.7362
C10_5 C 0.3341(3) 0.2118(4) 0.7792(3)
C11_5 C 0.2910(3) 0.1900(4) 0.8161(3)
H6_5 H 0.2763 0.2137 0.8272
C12_5 C 0.2684(2) 0.1342(3) 0.8376(5)
C13_5 C 0.2268(2) 0.1134(3) 0.8810(4)
C14_5 C 0.15406(18) 0.07703(25) 0.9665(4)
H7_5 H 0.1310 0.0655 0.9953
C15_5 C 0.1735(3) 0.1333(4) 0.9423(3)
C16_5 C 0.2094(3) 0.1497(4) 0.9025(3)
H8_5 H 0.2230 0.1869 0.8889
Cu3_4 Cu 0.13417(5) 0.26834(5) 0.96117(5)
C17_5 C 0.3952(3) 0.0092(5) 0.7219(4)
C18_5 C 0.3556(4) 0.0387(7) 0.7873(4)
H9_5 H 0.3415 0.0332 0.8201
C19_5 C 0.3761(4) 0.0034(7) 0.7711(4)
C20_5 C 0.3536(3) 0.0828(6) 0.7590(4)
C21_5 C 0.3765(4) 0.0886(7) 0.7138(5)
H11_5 H 0.3796 0.1187 0.6933
C22_5 C 0.3966(4) 0.0514(7) 0.6945(4)
H12_5 H 0.4110 0.0571 0.6618
C25_5 C 0.3341(3) 0.1222(5) 0.7792(3)
C26_5 C 0.2910(3) 0.1009(5) 0.8161(3)
H13_5 H 0.2763 0.0625 0.8272
C27_5 C 0.1735(3) 0.0401(5) 0.9423(3)
C28_5 C 0.2094(3) 0.0596(5) 0.9025(3)
H14_5 H 0.2230 0.0360 0.8889
O7_4 O 0.4402(2) 0.9819(4) 0.6586(2)
O11_5 O 0.15960(18) 0.94596(32) 0.93968(17)
H10_5 H 0.3773 0.9761 0.7925
C23_5 C 0.4186(3) 0.9717(5) 0.7007(4)
C24_5 C 0.1524(3) 0.9815(5) 0.9673(3)
O11_6 O 0.05404(32) 0.21363(26) 0.93968(17)
H10_6 H 0.0239 0.4011 0.7925
C23_6 C 0.0283(5) 0.4468(4) 0.7007(4)
C24_6 C 0.0185(5) 0.1708(4) 0.9673(3)
O2_6 O 0.84790(44) 0.9239(4) 0.1105(3)
O4_6 O 0.8396(3) 0.9711(2) 0.0113(2)
O15_6 O 0.73716(32) 0.92057(18) 0.06415(18)
O16_6 O 0.73716(32) 0.81660(26) 0.06415(18)
O1_6 O 0.5418(3) 0.9819(2) 0.6586(2)
O3_6 O 0.4932(4) 0.9864(4) 0.5548(4)
O5_6 O 0.78637(26) 0.94596(19) 0.93968(17)
H2_6 H 0.5989 0.9761 0.7925
C7_6 C 0.5532(4) 0.9717(3) 0.7007(4)
C8_6 C 0.8292(4) 0.9815(3) 0.9673(3)
O2_7 O 0.7427(4) 0.25730(18) 0.4439(3)
O4_7 O 0.6955(2) 0.2018(2) 0.3447(2)
C8_7 C 0.6851(3) 0.1810(3) 0.3007(3)
C11_6 C 0.5657(3) 0.0424(3) 0.1495(3)
H6_6 H 0.6041 0.0571 0.1606
C12_6 C 0.5325(2) 0.0650(2) 0.1710(5)
C13_6 C 0.5533(2) 0.1066(2) 0.2144(4)
C14_6 C 0.58964(18) 0.17928(18) 0.2999(4)
H7_6 H 0.6012 0.2024 0.3287
C15_6 C 0.6265(3) 0.1599(3) 0.2757(3)
C16_6 C 0.6070(3) 0.1240(3) 0.2359(3)
H8_6 H 0.6306 0.1104 0.2223
O9_3 O 0.5062(3) 0.2018(2) 0.3447(2)
O10_5 O 0.7982(2) 0.3045(2) 0.3447(2)
C24_7 C 0.4958(4) 0.1810(3) 0.3007(3)
C26_6 C 0.4766(4) 0.0424(3) 0.1495(3)
H13_6 H 0.4529 0.0571 0.1606
C27_6 C 0.5333(4) 0.1599(3) 0.2757(3)
C28_6 C 0.5169(4) 0.1240(3) 0.2359(3)
H14_6 H 0.4797 0.1104 0.2223
C1_6 C 0.6574(3) 0.9382(3) 0.0553(4)
C2_6 C 0.6279(4) 0.9778(4) 0.1207(4)
H1_6 H 0.6334 0.9919 0.1535
C3_6 C 0.6632(4) 0.9573(4) 0.1045(4)
H2_7 H 0.6905 0.9561 0.1259
C4_6 C 0.5838(4) 0.9798(3) 0.0924(4)
C5_6 C 0.5780(4) 0.9569(4) 0.0472(5)
H3_6 H 0.5479 0.9538 0.0267
C6_6 C 0.6152(4) 0.9368(4) 0.0279(4)
C7_7 C 0.6949(3) 0.9148(3) 0.0341(4)
C9_6 C 0.4904(2) 0.9808(2) 0.0954(4)
H5_6 H 0.4766 0.9532 0.0696
C10_6 C 0.5444(3) 0.9993(3) 0.1126(3)
C17_6 C 0.2807(4) 0.9382(3) 0.0553(4)
C18_6 C 0.3498(6) 0.9778(4) 0.1207(4)
H9_6 H 0.3584 0.9919 0.1535
C19_6 C 0.2940(6) 0.9573(4) 0.1045(4)
H10_7 H 0.2655 0.9561 0.1259
C20_6 C 0.3959(5) 0.9798(3) 0.0924(4)
C21_6 C 0.3788(6) 0.9569(4) 0.0472(5)
H11_6 H 0.4058 0.9538 0.0267
C22_6 C 0.3215(6) 0.9368(4) 0.0279(4)
C23_7 C 0.2198(4) 0.9148(3) 0.0341(4)
C25_6 C 0.4548(4) 0.9993(3) 0.1126(3)
O1_7 O 0.6847(2) 0.8932(2) 0.9920(2)
O3_7 O 0.6802(4) 0.8401(2) 0.8882(4)
H4_6 H 0.6095 0.9224 0.9952
O7_5 O 0.2084(3) 0.8932(2) 0.9920(2)
O8_3 O 0.6847(2) 0.7916(3) 0.9920(2)
H12_6 H 0.3128 0.9224 0.9952
C1_7 C 0.0618(3) 0.7193(4) 0.0553(4)
C2_7 C 0.0222(4) 0.6502(6) 0.1207(4)
H1_7 H 0.0081 0.6416 0.1535
C3_7 C 0.0427(4) 0.7060(6) 0.1045(4)
H2_8 H 0.0439 0.7345 0.1259
C4_7 C 0.0202(3) 0.6041(5) 0.0924(4)
C5_7 C 0.0431(4) 0.6212(6) 0.0472(5)
H3_7 H 0.0462 0.5942 0.0267
C6_7 C 0.0632(4) 0.6785(6) 0.0279(4)
C7_8 C 0.0852(3) 0.7802(4) 0.0341(4)
C9_7 C 0.0192(2) 0.5097(3) 0.0954(4)
H5_7 H 0.0468 0.5235 0.0696
C10_7 C 0.0007(3) 0.5452(4) 0.1126(3)
C17_7 C 0.0618(3) 0.3426(5) 0.0553(4)
C18_7 C 0.0222(4) 0.3721(7) 0.1207(4)
H9_7 H 0.0081 0.3666 0.1535
C19_7 C 0.0427(4) 0.3368(7) 0.1045(4)
H10_8 H 0.0439 0.3095 0.1259
C20_7 C 0.0202(3) 0.4162(6) 0.0924(4)
C21_7 C 0.0431(4) 0.4220(7) 0.0472(5)
H11_7 H 0.0462 0.4521 0.0267
C22_7 C 0.0632(4) 0.3848(7) 0.0279(4)
C23_8 C 0.0852(3) 0.3051(5) 0.0341(4)
C25_7 C 0.0007(3) 0.4556(5) 0.1126(3)
O1_8 O 0.1068(2) 0.7916(3) 0.9920(2)
O3_8 O 0.1599(2) 0.8402(4) 0.8882(4)
H4_7 H 0.0776 0.6872 0.9952
O7_6 O 0.1068(2) 0.3153(4) 0.9920(2)
H12_7 H 0.0776 0.3905 0.9952
O2_8 O 0.74270(18) 0.48544(44) 0.4439(3)
O4_8 O 0.7982(2) 0.4938(3) 0.3447(2)
C8_8 C 0.8190(3) 0.5042(4) 0.3007(3)
C11_7 C 0.9576(3) 0.5234(4) 0.1495(3)
H6_7 H 0.9429 0.5471 0.1606
C12_7 C 0.9350(2) 0.4676(3) 0.1710(5)
C13_7 C 0.8934(2) 0.4468(3) 0.2144(4)
C14_7 C 0.82072(18) 0.41037(25) 0.2999(4)
H7_7 H 0.7976 0.3989 0.3287
C15_7 C 0.8401(3) 0.4667(4) 0.2757(3)
C16_7 C 0.8760(3) 0.4831(4) 0.2359(3)
H8_7 H 0.8896 0.5203 0.2223
O10_6 O 0.6955(2) 0.4938(3) 0.3447(2)
C24_8 C 0.8190(3) 0.3149(5) 0.3007(3)
C26_7 C 0.9576(3) 0.4343(5) 0.1495(3)
H13_7 H 0.9429 0.3959 0.1606
C27_7 C 0.8401(3) 0.3735(5) 0.2757(3)
C28_7 C 0.8760(3) 0.3930(5) 0.2359(3)
H14_7 H 0.8896 0.3694 0.2223
O2_9 O 0.51456(44) 0.2573(4) 0.4439(3)
O4_9 O 0.5062(3) 0.3045(2) 0.3447(2)
C1_8 C 0.2807(4) 0.3426(3) 0.0553(4)
C2_8 C 0.3498(6) 0.3721(4) 0.1207(4)
H1_8 H 0.3584 0.3666 0.1535
C3_8 C 0.2940(6) 0.3368(4) 0.1045(4)
H2_9 H 0.2655 0.3095 0.1259
C4_8 C 0.3959(5) 0.4162(4) 0.0924(4)
C5_8 C 0.3788(6) 0.4220(4) 0.0472(5)
H3_8 H 0.4058 0.4521 0.0267
C6_8 C 0.3215(6) 0.3848(4) 0.0279(4)
C7_9 C 0.2198(4) 0.3051(3) 0.0341(4)
C8_9 C 0.4958(4) 0.3149(3) 0.3007(3)
C9_8 C 0.4903(3) 0.5096(2) 0.0954(4)
H5_8 H 0.4765 0.5234 0.0696
C10_8 C 0.4548(4) 0.4556(3) 0.1126(3)
C11_8 C 0.4766(4) 0.4343(3) 0.1495(3)
H6_8 H 0.4529 0.3959 0.1606
C12_8 C 0.5324(3) 0.4675(2) 0.1710(5)
C13_8 C 0.5532(3) 0.4467(2) 0.2144(4)
C14_8 C 0.58963(25) 0.41036(18) 0.2999(4)
H7_8 H 0.6011 0.3988 0.3287
C15_8 C 0.5333(4) 0.3735(3) 0.2757(3)
C16_8 C 0.5169(4) 0.3930(3) 0.2359(3)
H8_8 H 0.4797 0.3694 0.2223
C17_8 C 0.6574(5) 0.7193(4) 0.0553(4)
C18_8 C 0.6279(7) 0.6502(6) 0.1207(4)
H9_8 H 0.6334 0.6416 0.1535
C19_8 C 0.6632(7) 0.7060(6) 0.1045(4)
H10_9 H 0.6905 0.7345 0.1259
C20_8 C 0.5838(6) 0.6041(5) 0.0924(4)
C21_8 C 0.5780(7) 0.6212(6) 0.0472(5)
H11_8 H 0.5479 0.5942 0.0267
C22_8 C 0.6152(7) 0.6785(6) 0.0279(4)
C23_9 C 0.6949(5) 0.7802(4) 0.0341(4)
C24_9 C 0.6851(5) 0.5042(4) 0.3007(3)
C25_8 C 0.5444(5) 0.5452(4) 0.1126(3)
C26_8 C 0.5657(5) 0.5234(4) 0.1495(3)
H13_8 H 0.6041 0.5471 0.1606
C27_8 C 0.6265(5) 0.4667(4) 0.2757(3)
C28_8 C 0.6070(5) 0.4831(4) 0.2359(3)
H14_8 H 0.6306 0.5203 0.2223
O1_9 O 0.2084(3) 0.3153(2) 0.9920(2)
O3_9 O 0.1598(4) 0.3198(4) 0.8882(4)
H4_8 H 0.3128 0.3905 0.9952
H12_8 H 0.6095 0.6872 0.9952
C1_9 C 0.6141(4) 0.0092(3) 0.7219(4)
C2_9 C 0.6832(6) 0.0387(4) 0.7873(4)
H1_9 H 0.6918 0.0332 0.8201
C3_9 C 0.6274(6) 0.0034(4) 0.7711(4)
C4_9 C 0.7293(5) 0.0828(4) 0.7590(4)
C5_9 C 0.7122(6) 0.0886(4) 0.7138(5)
H3_9 H 0.7392 0.1187 0.6933
C6_9 C 0.6549(6) 0.0514(4) 0.6945(4)
H4_9 H 0.6462 0.0571 0.6618
C9_9 C 0.8237(3) 0.1762(2) 0.7620(4)
H5_9 H 0.8099 0.1900 0.7362
C10_9 C 0.7882(4) 0.1222(3) 0.7792(3)
C11_9 C 0.8100(4) 0.1009(3) 0.8161(3)
H6_9 H 0.7863 0.0625 0.8272
C12_9 C 0.8658(3) 0.1341(2) 0.8376(5)
C13_9 C 0.8866(3) 0.1133(2) 0.8810(4)
C14_9 C 0.92297(25) 0.07702(18) 0.9665(4)
H7_9 H 0.9345 0.0654 0.9953
C15_9 C 0.8667(4) 0.0401(3) 0.9423(3)
C16_9 C 0.8503(4) 0.0596(3) 0.9025(3)
H8_9 H 0.8131 0.0360 0.8889
C17_9 C 0.9908(5) 0.3859(4) 0.7219(4)
C18_9 C 0.9613(7) 0.3168(6) 0.7873(4)
H9_9 H 0.9668 0.3082 0.8201
C19_9 C 0.9966(7) 0.3726(6) 0.7711(4)
C20_9 C 0.9172(6) 0.2707(5) 0.7590(4)
C21_9 C 0.9114(7) 0.2878(6) 0.7138(5)
H11_9 H 0.8813 0.2608 0.6933
C22_9 C 0.9486(7) 0.3451(6) 0.6945(4)
H12_9 H 0.9429 0.3538 0.6618
C25_9 C 0.8778(5) 0.2118(4) 0.7792(3)
C26_9 C 0.8991(5) 0.1900(4) 0.8161(3)
H13_9 H 0.9375 0.2137 0.8272
C27_9 C 0.9599(5) 0.1333(4) 0.9423(3)
C28_9 C 0.9404(5) 0.1497(4) 0.9025(3)
H14_9 H 0.9640 0.1869 0.8889
loop_
_geom_bond_atom_site_label_1
_geom_bond_atom_site_label_2
_geom_bond_site_symmetry_1
_geom_bond_site_symmetry_2
Cu1 O1 1_555 1_555
Cu2 O2 1_555 1_555
O1 C7 1_555 1_555
O3 Cu1 1_555 1_555
O4 Cu2 1_555 1_555
O5 C8 1_555 1_555
O6 C7 1_555 1_555
C1 C3 1_555 1_555
C2 H1 1_555 1_555
C3 C2 1_555 1_555
H2 C3 1_555 1_555
C4 C2 1_555 1_555
C5 C4 1_555 1_555
H3 C5 1_555 1_555
C6 C1 1_555 1_555
H4 C6 1_555 1_555
C7 C1 1_555 1_555
C8 O4 1_555 1_555
C9 H5 1_555 1_555
C10 C4 1_555 1_555
C11 C10 1_555 1_555
H6 C11 1_555 1_555
C12 C11 1_555 1_555
C13 C12 1_555 1_555
C14 H7 1_555 1_555
C15 C8 1_555 1_555
C16 C13 1_555 1_555
H8 C16 1_555 1_555
Cu3 O5 1_555 1_555
Cu5 O11 1_555 1_555
Cu6 O6 1_555 1_555
Cu8 O9 1_555 1_555
O8 Cu1 1_555 1_555
O9 C24 1_555 1_555
O10 Cu2 1_555 1_555
O11 C24 1_555 1_555
O12 Cu1 1_555 1_555
O13 Cu1 1_555 1_555
O15 Cu2 1_555 1_555
O16 Cu2 1_555 1_555
C18 H9 1_555 1_555
C20 C18 1_555 1_555
C21 C20 1_555 1_555
H11 C21 1_555 1_555
C24 C27 1_555 1_555
C25 C9 1_555 1_555
C26 C12 1_555 1_555
H13 C26 1_555 1_555
C27 C14 1_555 1_555
C28 C13 1_555 1_555
H14 C28 1_555 1_555
C5 C6 1_555 1_555
C9 C10 1_555 1_555
C14 C15 1_555 1_555
C15 C16 1_555 1_555
C20 C25 1_555 1_555
C25 C26 1_555 1_555
C27 C28 1_555 1_555
Cu4 O7 1_555 1_555
Cu7 O14 1_555 1_555
O7 C23 1_555 1_555
O14 C23 1_555 1_555
C17 C19 1_555 1_555
H10 C19 1_555 1_555
C22 C17 1_555 1_555
H12 C22 1_555 1_555
C23 C17 1_555 1_555
Cu4 O1_2 1_555 1_555
O1_2 C7_2 1_555 1_555
O3_2 Cu4 1_555 1_555
O6_2 C7_2 1_555 1_555
C1_2 C3_2 1_555 1_555
H2_2 C3_2 1_555 1_555
C6_2 C1_2 1_555 1_555
H4_2 C6_2 1_555 1_555
C7_2 C1_2 1_555 1_555
Cu7 O6_2 1_555 1_555
O12_2 Cu4 1_555 1_555
O13_2 Cu4 1_555 1_555
Cu2_2 O2_2 1_555 1_555
O4_2 Cu2_2 1_555 1_555
O5_2 C8_2 1_555 1_555
C2_2 H1_2 1_555 1_555
C4_2 C2_2 1_555 1_555
C5_2 C4_2 1_555 1_555
H3_2 C5_2 1_555 1_555
C8_2 O4_2 1_555 1_555
C9_2 H5_2 1_555 1_555
C10_2 C4_2 1_555 1_555
C11_2 C10_2 1_555 1_555
H6_2 C11_2 1_555 1_555
C12_2 C11_2 1_555 1_555
C13_2 C12_2 1_555 1_555
C14_2 H7_2 1_555 1_555
C15_2 C8_2 1_555 1_555
C16_2 C13_2 1_555 1_555
H8_2 C16_2 1_555 1_555
Cu3_2 O5_2 1_555 1_555
Cu4_2 O7_2 1_555 1_555
Cu3 O11_2 1_555 1_555
Cu7_2 O14_2 1_555 1_555
O7_2 C23_2 1_555 1_555
O10 C24_2 1_555 1_555
O10_2 Cu2_2 1_555 1_555
O11_2 C24_2 1_555 1_555
O14_2 C23_2 1_555 1_555
O15_2 Cu2_2 1_555 1_555
O16_2 Cu2_2 1_555 1_555
C17_2 C19_2 1_555 1_555
C18_2 H9_2 1_555 1_555
C19_2 C18_2 1_555 1_555
H10_2 C19_2 1_555 1_555
C20_2 C18_2 1_555 1_555
C21_2 C20_2 1_555 1_555
H11_2 C21_2 1_555 1_555
C22_2 C17_2 1_555 1_555
H12_2 C22_2 1_555 1_555
C23_2 C17_2 1_555 1_555
C24_2 C27_2 1_555 1_555
C25_2 C9_2 1_555 1_555
C26_2 C12_2 1_555 1_555
H13_2 C26_2 1_555 1_555
C27_2 C14_2 1_555 1_555
C28_2 C13_2 1_555 1_555
H14_2 C28_2 1_555 1_555
C9_2 C10_2 1_555 1_555
C14_2 C15_2 1_555 1_555
C15_2 C16_2 1_555 1_555
C20_2 C25_2 1_555 1_555
C21_2 C22_2 1_555 1_555
C25_2 C26_2 1_555 1_555
C27_2 C28_2 1_555 1_555
Cu6 O14_3 1_555 1_555
O8 C23_3 1_555 1_555
O14_3 C23_3 1_555 1_555
C17_3 C19_3 1_555 1_555
H10_3 C19_3 1_555 1_555
C22_3 C17_3 1_555 1_555
H12_3 C22_3 1_555 1_555
C23_3 C17_3 1_555 1_555
Cu8 O2_3 1_555 1_555
O4_3 Cu8 1_555 1_555
O5_3 C8_3 1_555 1_555
C2_3 H1_3 1_555 1_555
C4_3 C2_3 1_555 1_555
C5_3 C4_3 1_555 1_555
H3_3 C5_3 1_555 1_555
C8_3 O4_3 1_555 1_555
C9_3 H5_3 1_555 1_555
C10_3 C4_3 1_555 1_555
C11_3 C10_3 1_555 1_555
H6_3 C11_3 1_555 1_555
C12_3 C11_3 1_555 1_555
C13_3 C12_3 1_555 1_555
C14_3 H7_3 1_555 1_555
C15_3 C8_3 1_555 1_555
C16_3 C13_3 1_555 1_555
H8_3 C16_3 1_555 1_555
Cu5 O5_3 1_555 1_555
Cu3_2 O11_3 1_555 1_555
O10_2 C24_3 1_555 1_555
O11_3 C24_3 1_555 1_555
O15_3 Cu8 1_555 1_555
O16_3 Cu8 1_555 1_555
C18_3 H9_3 1_555 1_555
C20_3 C18_3 1_555 1_555
C21_3 C20_3 1_555 1_555
H11_3 C21_3 1_555 1_555
C24_3 C27_3 1_555 1_555
C25_3 C9_3 1_555 1_555
C26_3 C12_3 1_555 1_555
H13_3 C26_3 1_555 1_555
C27_3 C14_3 1_555 1_555
C28_3 C13_3 1_555 1_555
H14_3 C28_3 1_555 1_555
C9_3 C10_3 1_555 1_555
C14_3 C15_3 1_555 1_555
C15_3 C16_3 1_555 1_555
C20_3 C25_3 1_555 1_555
C25_3 C26_3 1_555 1_555
C27_3 C28_3 1_555 1_555
Cu4_2 O1_3 1_555 1_555
O1_3 C7_3 1_555 1_555
O3_3 Cu4_2 1_555 1_555
O6_3 C7_3 1_555 1_555
C1_3 C3_3 1_555 1_555
H2_3 C3_3 1_555 1_555
C6_3 C1_3 1_555 1_555
H4_3 C6_3 1_555 1_555
C7_3 C1_3 1_555 1_555
Cu7_2 O6_3 1_555 1_555
O12_3 Cu4_2 1_555 1_555
O13_3 Cu4_2 1_555 1_555
Cu2_3 O2_4 1_555 1_555
O4_4 Cu2_3 1_555 1_555
O10_3 Cu2_3 1_555 1_555
O15_4 Cu2_3 1_555 1_555
O16_4 Cu2_3 1_555 1_555
Cu5 O1_4 1_555 1_555
O1_4 C7_4 1_555 1_555
O3_4 Cu5 1_555 1_555
O5_4 C8_4 1_555 1_555
O15_3 C7_4 1_555 1_555
Cu3_3 O5_4 1_555 1_555
O8_2 Cu5 1_555 1_555
Cu8_2 O9_2 1_555 1_555
C1_4 C3_4 1_555 1_555
C2_4 H1_4 1_555 1_555
C3_4 C2_4 1_555 1_555
C4_4 C2_4 1_555 1_555
C5_4 C4_4 1_555 1_555
H3_4 C5_4 1_555 1_555
C6_4 C1_4 1_555 1_555
H4_4 C6_4 1_555 1_555
C9_4 H5_4 1_555 1_555
C10_4 C4_4 1_555 1_555
C11_4 C10_4 1_555 1_555
H6_4 C11_4 1_555 1_555
C12_4 C11_4 1_555 1_555
C13_4 C12_4 1_555 1_555
C14_4 H7_4 1_555 1_555
C16_4 C13_4 1_555 1_555
H8_4 C16_4 1_555 1_555
Cu3 O7_3 1_555 1_555
Cu5_2 O11_4 1_555 1_555
O7_3 C23_4 1_555 1_555
O11_4 C24_4 1_555 1_555
O16 C23_4 1_555 1_555
C17_4 C19_4 1_555 1_555
C18_4 H9_4 1_555 1_555
C19_4 C18_4 1_555 1_555
H10_4 C19_4 1_555 1_555
C20_4 C18_4 1_555 1_555
C21_4 C20_4 1_555 1_555
H11_4 C21_4 1_555 1_555
C22_4 C17_4 1_555 1_555
H12_4 C22_4 1_555 1_555
C23_4 C17_4 1_555 1_555
C24_4 C27_4 1_555 1_555
C25_4 C9_4 1_555 1_555
C26_4 C12_4 1_555 1_555
H13_4 C26_4 1_555 1_555
C27_4 C14_4 1_555 1_555
C28_4 C13_4 1_555 1_555
H14_4 C28_4 1_555 1_555
C5_4 C6_4 1_555 1_555
C9_4 C10_4 1_555 1_555
C14_4 C15_4 1_555 1_555
C15_4 C16_4 1_555 1_555
C20_4 C25_4 1_555 1_555
C21_4 C22_4 1_555 1_555
C25_4 C26_4 1_555 1_555
C27_4 C28_4 1_555 1_555
Cu2_4 O2_5 1_555 1_555
O4_5 Cu2_4 1_555 1_555
O10_4 Cu2_4 1_555 1_555
O15_5 Cu2_4 1_555 1_555
O16_5 Cu2_4 1_555 1_555
Cu3 O1_5 1_555 1_555
O1_5 C7_5 1_555 1_555
O3_5 Cu3 1_555 1_555
O5_5 C8_5 1_555 1_555
O15 C7_5 1_555 1_555
C1_5 C3_5 1_555 1_555
C2_5 H1_5 1_555 1_555
C3_5 C2_5 1_555 1_555
H2_5 C3_5 1_555 1_555
C4_5 C2_5 1_555 1_555
C5_5 C4_5 1_555 1_555
H3_5 C5_5 1_555 1_555
C6_5 C1_5 1_555 1_555
H4_5 C6_5 1_555 1_555
C7_5 C1_5 1_555 1_555
C9_5 H5_5 1_555 1_555
C10_5 C4_5 1_555 1_555
C11_5 C10_5 1_555 1_555
H6_5 C11_5 1_555 1_555
C12_5 C11_5 1_555 1_555
C13_5 C12_5 1_555 1_555
C14_5 H7_5 1_555 1_555
C15_5 C8_5 1_555 1_555
C16_5 C13_5 1_555 1_555
H8_5 C16_5 1_555 1_555
Cu3_4 O5_5 1_555 1_555
C17_5 C19_5 1_555 1_555
C18_5 H9_5 1_555 1_555
C19_5 C18_5 1_555 1_555
C20_5 C18_5 1_555 1_555
C21_5 C20_5 1_555 1_555
H11_5 C21_5 1_555 1_555
C22_5 C17_5 1_555 1_555
H12_5 C22_5 1_555 1_555
C25_5 C9_5 1_555 1_555
C26_5 C12_5 1_555 1_555
H13_5 C26_5 1_555 1_555
C27_5 C14_5 1_555 1_555
C28_5 C13_5 1_555 1_555
H14_5 C28_5 1_555 1_555
C5_5 C6_5 1_555 1_555
C9_5 C10_5 1_555 1_555
C14_5 C15_5 1_555 1_555
C15_5 C16_5 1_555 1_555
C20_5 C25_5 1_555 1_555
C21_5 C22_5 1_555 1_555
C25_5 C26_5 1_555 1_555
C27_5 C28_5 1_555 1_555
Cu3_2 O7_4 1_555 1_555
Cu3_3 O11_5 1_555 1_555
O7_4 C23_5 1_555 1_555
O11_5 C24_5 1_555 1_555
O16_2 C23_5 1_555 1_555
Cu3_4 O11_6 1_555 1_555
O8_2 C23_6 1_555 1_555
O11_6 C24_6 1_555 1_555
O16_3 C23_6 1_555 1_555
Cu8_2 O2_6 1_555 1_555
O4_6 Cu8_2 1_555 1_555
O15_6 Cu8_2 1_555 1_555
O16_6 Cu8_2 1_555 1_555
Cu3_2 O1_6 1_555 1_555
O1_6 C7_6 1_555 1_555
O3_6 Cu3_2 1_555 1_555
O5_6 C8_6 1_555 1_555
O15_2 C7_6 1_555 1_555
Cu5_2 O5_6 1_555 1_555
Cu7 O2_7 1_555 1_555
O4_7 Cu7 1_555 1_555
O12_2 C8_7 1_555 1_555
C8_7 O4_7 1_555 1_555
H6_6 C11_6 1_555 1_555
C12_6 C11_6 1_555 1_555
C13_6 C12_6 1_555 1_555
C14_6 H7_6 1_555 1_555
C15_6 C8_7 1_555 1_555
C16_6 C13_6 1_555 1_555
H8_6 C16_6 1_555 1_555
Cu6 O9_3 1_555 1_555
O9_3 C24_7 1_555 1_555
O10_5 Cu7 1_555 1_555
O13 C24_7 1_555 1_555
C24_7 C27_6 1_555 1_555
C26_6 C12_6 1_555 1_555
H13_6 C26_6 1_555 1_555
C27_6 C14_6 1_555 1_555
C28_6 C13_6 1_555 1_555
H14_6 C28_6 1_555 1_555
C14_6 C15_6 1_555 1_555
C15_6 C16_6 1_555 1_555
C27_6 C28_6 1_555 1_555
O15_6 C7_7 1_555 1_555
C1_6 C3_6 1_555 1_555
C2_6 H1_6 1_555 1_555
C3_6 C2_6 1_555 1_555
H2_7 C3_6 1_555 1_555
C4_6 C2_6 1_555 1_555
C5_6 C4_6 1_555 1_555
H3_6 C5_6 1_555 1_555
C6_6 C1_6 1_555 1_555
C7_7 C1_6 1_555 1_555
C9_6 H5_6 1_555 1_555
C10_6 C4_6 1_555 1_555
O16_4 C23_7 1_555 1_555
C17_6 C19_6 1_555 1_555
C18_6 H9_6 1_555 1_555
C19_6 C18_6 1_555 1_555
H10_7 C19_6 1_555 1_555
C20_6 C18_6 1_555 1_555
C21_6 C20_6 1_555 1_555
H11_6 C21_6 1_555 1_555
C22_6 C17_6 1_555 1_555
C23_7 C17_6 1_555 1_555
C25_6 C9_6 1_555 1_555
C5_6 C6_6 1_555 1_555
C9_6 C10_6 1_555 1_555
C20_6 C25_6 1_555 1_555
C21_6 C22_6 1_555 1_555
Cu5_2 O1_7 1_555 1_555
O3_7 Cu5_2 1_555 1_555
Cu3_3 O7_5 1_555 1_555
O8_3 Cu5_2 1_555 1_555
O15_4 C7_8 1_555 1_555
C1_7 C3_7 1_555 1_555
C2_7 H1_7 1_555 1_555
C3_7 C2_7 1_555 1_555
H2_8 C3_7 1_555 1_555
C4_7 C2_7 1_555 1_555
C5_7 C4_7 1_555 1_555
H3_7 C5_7 1_555 1_555
C6_7 C1_7 1_555 1_555
C7_8 C1_7 1_555 1_555
C9_7 H5_7 1_555 1_555
C10_7 C4_7 1_555 1_555
O16_5 C23_8 1_555 1_555
C17_7 C19_7 1_555 1_555
C18_7 H9_7 1_555 1_555
C19_7 C18_7 1_555 1_555
H10_8 C19_7 1_555 1_555
C20_7 C18_7 1_555 1_555
C21_7 C20_7 1_555 1_555
H11_7 C21_7 1_555 1_555
C22_7 C17_7 1_555 1_555
C23_8 C17_7 1_555 1_555
C25_7 C9_7 1_555 1_555
C5_7 C6_7 1_555 1_555
C9_7 C10_7 1_555 1_555
C20_7 C25_7 1_555 1_555
C21_7 C22_7 1_555 1_555
Cu3_3 O1_8 1_555 1_555
O3_8 Cu3_3 1_555 1_555
Cu3_4 O7_6 1_555 1_555
Cu7_2 O2_8 1_555 1_555
O4_8 Cu7_2 1_555 1_555
O12_3 C8_8 1_555 1_555
C8_8 O4_8 1_555 1_555
H6_7 C11_7 1_555 1_555
C12_7 C11_7 1_555 1_555
C13_7 C12_7 1_555 1_555
C14_7 H7_7 1_555 1_555
C15_7 C8_8 1_555 1_555
C16_7 C13_7 1_555 1_555
H8_7 C16_7 1_555 1_555
O10_5 C24_8 1_555 1_555
O10_6 Cu7_2 1_555 1_555
O13_2 C24_8 1_555 1_555
C24_8 C27_7 1_555 1_555
C26_7 C12_7 1_555 1_555
H13_7 C26_7 1_555 1_555
C27_7 C14_7 1_555 1_555
C28_7 C13_7 1_555 1_555
H14_7 C28_7 1_555 1_555
C14_7 C15_7 1_555 1_555
C15_7 C16_7 1_555 1_555
C27_7 C28_7 1_555 1_555
Cu6 O2_9 1_555 1_555
O4_9 Cu6 1_555 1_555
O12 C8_9 1_555 1_555
O15_5 C7_9 1_555 1_555
C1_8 C3_8 1_555 1_555
C2_8 H1_8 1_555 1_555
C3_8 C2_8 1_555 1_555
H2_9 C3_8 1_555 1_555
C4_8 C2_8 1_555 1_555
C5_8 C4_8 1_555 1_555
H3_8 C5_8 1_555 1_555
C6_8 C1_8 1_555 1_555
C7_9 C1_8 1_555 1_555
C8_9 O4_9 1_555 1_555
C9_8 H5_8 1_555 1_555
C10_8 C4_8 1_555 1_555
C11_8 C10_8 1_555 1_555
H6_8 C11_8 1_555 1_555
C12_8 C11_8 1_555 1_555
C13_8 C12_8 1_555 1_555
C14_8 H7_8 1_555 1_555
C15_8 C8_9 1_555 1_555
C16_8 C13_8 1_555 1_555
H8_8 C16_8 1_555 1_555
O10_6 C24_9 1_555 1_555
O13_3 C24_9 1_555 1_555
O16_6 C23_9 1_555 1_555
C17_8 C19_8 1_555 1_555
C18_8 H9_8 1_555 1_555
C19_8 C18_8 1_555 1_555
H10_9 C19_8 1_555 1_555
C20_8 C18_8 1_555 1_555
C21_8 C20_8 1_555 1_555
H11_8 C21_8 1_555 1_555
C22_8 C17_8 1_555 1_555
C23_9 C17_8 1_555 1_555
C24_9 C27_8 1_555 1_555
C25_8 C9_8 1_555 1_555
C26_8 C12_8 1_555 1_555
H13_8 C26_8 1_555 1_555
C27_8 C14_8 1_555 1_555
C28_8 C13_8 1_555 1_555
H14_8 C28_8 1_555 1_555
C5_8 C6_8 1_555 1_555
C9_8 C10_8 1_555 1_555
C14_8 C15_8 1_555 1_555
C15_8 C16_8 1_555 1_555
C20_8 C25_8 1_555 1_555
C21_8 C22_8 1_555 1_555
C25_8 C26_8 1_555 1_555
C27_8 C28_8 1_555 1_555
Cu3_4 O1_9 1_555 1_555
O3_9 Cu3_4 1_555 1_555
C1_9 C3_9 1_555 1_555
C2_9 H1_9 1_555 1_555
C3_9 C2_9 1_555 1_555
C4_9 C2_9 1_555 1_555
C5_9 C4_9 1_555 1_555
H3_9 C5_9 1_555 1_555
C6_9 C1_9 1_555 1_555
H4_9 C6_9 1_555 1_555
C9_9 H5_9 1_555 1_555
C10_9 C4_9 1_555 1_555
C11_9 C10_9 1_555 1_555
H6_9 C11_9 1_555 1_555
C12_9 C11_9 1_555 1_555
C13_9 C12_9 1_555 1_555
C14_9 H7_9 1_555 1_555
C16_9 C13_9 1_555 1_555
H8_9 C16_9 1_555 1_555
C17_9 C19_9 1_555 1_555
C18_9 H9_9 1_555 1_555
C19_9 C18_9 1_555 1_555
C20_9 C18_9 1_555 1_555
C21_9 C20_9 1_555 1_555
H11_9 C21_9 1_555 1_555
C22_9 C17_9 1_555 1_555
H12_9 C22_9 1_555 1_555
C25_9 C9_9 1_555 1_555
C26_9 C12_9 1_555 1_555
H13_9 C26_9 1_555 1_555
C27_9 C14_9 1_555 1_555
C28_9 C13_9 1_555 1_555
H14_9 C28_9 1_555 1_555
C5_9 C6_9 1_555 1_555
C9_9 C10_9 1_555 1_555
C14_9 C15_9 1_555 1_555
C15_9 C16_9 1_555 1_555
C20_9 C25_9 1_555 1_555
C21_9 C22_9 1_555 1_555
C25_9 C26_9 1_555 1_555
C27_9 C28_9 1_555 1_555

#END
