
###############################################################################
#
# This file contains modified crystal structure data generated from the
# MOF subset of the Cambridge Structural Database (CSD) v543 
# hosted by the Cambridge Crystallographic Data Centre (CCDC).
#
# This work is licensed under the Creative Commons
# Attribution-NonCommercial-ShareAlike 4.0 International License.
# To view a copy of this license, visit
# http://creativecommons.org/licenses/by-nc-sa/4.0/
# or send a letter to
# Creative Commons, PO Box 1866, Mountain View, CA 94042, USA.
#
# CIF created using the CSD Python API on 29 September 2022
# The structure has been converted into the P1 space group
# The structure has a 3D framework
# The original CSD entry ANUNUV is in the orthorhombic crystal system
# The framework has been calculated to contain at least 10.0% void space
# The void calculation uses a probe of radius 1.32A, grid spacing 0.4
#
###############################################################################

data_ANUNUV
_chemical_formula_moiety         '(C332 H224 Cu32 N48 S32 W12)n'
_symmetry_cell_setting           triclinic
_symmetry_space_group_name_H-M   'P 1'
_symmetry_Int_Tables_number      1
_space_group_name_Hall           'P 1'
loop_
_symmetry_equiv_pos_site_id
_symmetry_equiv_pos_as_xyz
1 x,y,z
_cell_length_a                   16.0935(15)
_cell_length_b                   22.723(2)
_cell_length_c                   32.954(3)
_cell_angle_alpha                90
_cell_angle_beta                 90
_cell_angle_gamma                90
_cell_volume                     12051
loop_
_atom_site_label
_atom_site_type_symbol
_atom_site_fract_x
_atom_site_fract_y
_atom_site_fract_z
W1 W 0.250000 0.43884(2) 0.000000
H1 H 0.241(2) 0.253(2) 0.1240(15)
Cu1 Cu 0.11497(4) 0.43397(3) 0.04830(2)
C1 C 0.1922(3) 0.28218(19) 0.12425(11)
C2 C 0.1403(3) 0.24433(19) 0.19250(11)
N1 N 0.1516(2) 0.09340(16) 0.38092(9)
N2 N 0.0087(3) 0.47342(19) 0.05997(10)
N3 N 0.12484(19) 0.36422(15) 0.09209(9)
C3 C 0.1457(3) 0.18181(18) 0.19013(11)
C5 C 0.1839(3) 0.32312(18) 0.09350(11)
H2 H 0.222182 0.321928 0.072359
C6 C 0.1459(3) 0.14875(19) 0.22691(11)
C7 C 0.1356(3) 0.28338(19) 0.15608(11)
C8 C 0.1439(3) 0.1788(2) 0.26487(12)
C9 C 0.1473(3) 0.1472(2) 0.30465(12)
C10 C 0.2092(3) 0.10738(19) 0.31463(11)
H3 H 0.250155 0.097826 0.295862
C11 C 0.1360(3) 0.2713(2) 0.22957(13)
H4 H 0.131376 0.312041 0.230762
C12 C 0.1383(3) 0.2391(2) 0.26570(13)
H5 H 0.135995 0.258630 0.290472
C13 C 0.2094(3) 0.0819(2) 0.35274(11)
H6 H 0.251719 0.055644 0.359124
C14 C 0.0708(3) 0.3646(2) 0.12257(12)
H7 H 0.028522 0.392529 0.122212
C15 C 0.1449(4) 0.0863(2) 0.22393(14)
H8 H 0.144302 0.063908 0.247529
C16 C 0.0742(3) 0.3262(2) 0.15445(13)
H9 H 0.035082 0.328763 0.175156
C17 C 0.1452(3) 0.1514(2) 0.15298(12)
H10 H 0.144760 0.172676 0.128874
C18 C 0.0942(3) 0.1321(3) 0.37165(14)
H11 H 0.054670 0.141452 0.391210
C19 C 0.1449(5) 0.0591(2) 0.18780(16)
H12 H 0.144608 0.018209 0.186784
C20 C 0.0892(3) 0.1598(3) 0.33425(14)
H13 H 0.046985 0.186735 0.329109
C21 C 0.1454(4) 0.0915(2) 0.15147(14)
H14 H 0.145805 0.072187 0.126590
Cu4 Cu 0.35362(4) 0.44964(3) 0.06443(2)
S3 S 0.36179(6) 0.38318(5) 0.01102(3)
S4 S 0.22826(6) 0.49599(5) 0.05381(3)
Cu6 Cu 0.14638(4) 0.05036(3) 0.43557(2)
N8 N 0.3484(2) 0.40660(16) 0.11908(9)
C44 C 0.4500(2) 0.50050(18) 0.06528(10)
W1_2 W 0.250000 0.43884(2) 1.000000
Cu2 Cu 0.14638(4) 0.44964(3) 0.93557(2)
S1 S 0.13821(6) 0.38318(5) 0.98898(3)
S2 S 0.27174(6) 0.49599(5) 0.94619(3)
H15 H 0.259(2) 0.253(2) 0.8760(15)
Cu3 Cu 0.38503(4) 0.43397(3) 0.95170(2)
C22 C 0.3078(3) 0.28218(19) 0.87575(11)
C23 C 0.3597(3) 0.24433(19) 0.80750(11)
N4 N 0.3484(2) 0.09340(16) 0.61908(9)
N5 N 0.4913(3) 0.47342(19) 0.94003(10)
N6 N 0.37516(19) 0.36422(15) 0.90791(9)
C24 C 0.3543(3) 0.18181(18) 0.80987(11)
C25 C 0.5500(2) 0.49950(18) 0.93472(10)
C26 C 0.3161(3) 0.32312(18) 0.90650(11)
H16 H 0.277818 0.321928 0.927641
C27 C 0.3541(3) 0.14875(19) 0.77309(11)
C28 C 0.3644(3) 0.28338(19) 0.84392(11)
C29 C 0.3561(3) 0.1788(2) 0.73513(12)
C30 C 0.3527(3) 0.1472(2) 0.69535(12)
C31 C 0.2908(3) 0.10738(19) 0.68537(11)
H17 H 0.249845 0.097826 0.704138
C32 C 0.3640(3) 0.2713(2) 0.77043(13)
H18 H 0.368624 0.312041 0.769238
C33 C 0.3617(3) 0.2391(2) 0.73430(13)
H19 H 0.364005 0.258630 0.709528
C34 C 0.2906(3) 0.0819(2) 0.64726(11)
H20 H 0.248281 0.055644 0.640876
C35 C 0.4292(3) 0.3646(2) 0.87743(12)
H21 H 0.471478 0.392529 0.877788
C36 C 0.3551(4) 0.0863(2) 0.77607(14)
H22 H 0.355698 0.063908 0.752471
C37 C 0.4258(3) 0.3262(2) 0.84555(13)
H23 H 0.464918 0.328763 0.824844
C38 C 0.3548(3) 0.1514(2) 0.84702(12)
H24 H 0.355240 0.172676 0.871126
C39 C 0.4058(3) 0.1321(3) 0.62835(14)
H25 H 0.445330 0.141452 0.608790
C40 C 0.3551(5) 0.0591(2) 0.81220(16)
H26 H 0.355392 0.018209 0.813216
C41 C 0.4108(3) 0.1598(3) 0.66575(14)
H27 H 0.453015 0.186735 0.670891
C42 C 0.3546(4) 0.0915(2) 0.84853(14)
H28 H 0.354195 0.072187 0.873410
Cu7 Cu 0.35362(4) 0.05036(3) 0.56443(2)
Cu8 Cu 0.64638(4) 0.55036(3) 0.93557(2)
N7 N 0.1516(2) 0.40660(16) 0.88092(9)
C43 C 0.0500(2) 0.50050(18) 0.93472(10)
C4 C 0.9500(2) 0.49950(18) 0.06528(10)
Cu5 Cu 0.85362(4) 0.55036(3) 0.06443(2)
C4_2 C 0.0500(2) 0.99950(18) 0.43472(10)
C43_2 C 0.9500(2) 0.00050(18) 0.56528(10)
C44_2 C 0.5500(2) 0.00050(18) 0.43472(10)
W1_3 W 0.750000 0.93884(2) 0.500000
H1_2 H 0.759(2) 0.753(2) 0.3760(15)
Cu1_2 Cu 0.88503(4) 0.93397(3) 0.45170(2)
Cu2_2 Cu 0.85362(4) 0.94964(3) 0.56443(2)
C1_2 C 0.8078(3) 0.78218(19) 0.37575(11)
S1_2 S 0.86179(6) 0.88318(5) 0.51102(3)
S2_2 S 0.72826(6) 0.99599(5) 0.55381(3)
C2_2 C 0.8597(3) 0.74433(19) 0.30750(11)
N1_2 N 0.8484(2) 0.59340(16) 0.11908(9)
N2_2 N 0.9913(3) 0.97342(19) 0.44003(10)
N3_2 N 0.87516(19) 0.86422(15) 0.40791(9)
C3_2 C 0.8543(3) 0.68181(18) 0.30987(11)
C5_2 C 0.8161(3) 0.82312(18) 0.40650(11)
H2_2 H 0.777818 0.821928 0.427641
C6_2 C 0.8541(3) 0.64875(19) 0.27309(11)
C7_2 C 0.8644(3) 0.78338(19) 0.34392(11)
C8_2 C 0.8561(3) 0.6788(2) 0.23513(12)
C9_2 C 0.8527(3) 0.6472(2) 0.19535(12)
C10_2 C 0.7908(3) 0.60738(19) 0.18537(11)
H3_2 H 0.749845 0.597826 0.204138
C11_2 C 0.8640(3) 0.7713(2) 0.27043(13)
H4_2 H 0.868624 0.812041 0.269238
C12_2 C 0.8617(3) 0.7391(2) 0.23430(13)
H5_2 H 0.864005 0.758630 0.209528
C13_2 C 0.7906(3) 0.5819(2) 0.14726(11)
H6_2 H 0.748281 0.555644 0.140876
C14_2 C 0.9292(3) 0.8646(2) 0.37743(12)
H7_2 H 0.971478 0.892529 0.377788
C15_2 C 0.8551(4) 0.5863(2) 0.27607(14)
H8_2 H 0.855698 0.563908 0.252471
C16_2 C 0.9258(3) 0.8262(2) 0.34555(13)
H9_2 H 0.964918 0.828763 0.324844
C17_2 C 0.8548(3) 0.6514(2) 0.34702(12)
H10_2 H 0.855240 0.672676 0.371126
C18_2 C 0.9058(3) 0.6321(3) 0.12835(14)
H11_2 H 0.945330 0.641452 0.108790
C19_2 C 0.8551(5) 0.5591(2) 0.31220(16)
H12_2 H 0.855392 0.518209 0.313216
C20_2 C 0.9108(3) 0.6598(3) 0.16575(14)
H13_2 H 0.953015 0.686735 0.170891
C21_2 C 0.8546(4) 0.5915(2) 0.34853(14)
H14_2 H 0.854195 0.572187 0.373410
H15_2 H 0.741(2) 0.753(2) 0.6240(15)
Cu3_2 Cu 0.61497(4) 0.93397(3) 0.54830(2)
Cu4_2 Cu 0.64638(4) 0.94964(3) 0.43557(2)
C22_2 C 0.6922(3) 0.78218(19) 0.62425(11)
S3_2 S 0.63821(6) 0.88318(5) 0.48898(3)
S4_2 S 0.77174(6) 0.99599(5) 0.44619(3)
C23_2 C 0.6403(3) 0.74433(19) 0.69250(11)
N4_2 N 0.6516(2) 0.59340(16) 0.88092(9)
N5_2 N 0.5087(3) 0.97342(19) 0.55997(10)
N6_2 N 0.62484(19) 0.86422(15) 0.59209(9)
C24_2 C 0.6457(3) 0.68181(18) 0.69013(11)
C25_2 C 0.4500(2) 0.99950(18) 0.56528(10)
C26_2 C 0.6839(3) 0.82312(18) 0.59350(11)
H16_2 H 0.722182 0.821928 0.572359
C27_2 C 0.6459(3) 0.64875(19) 0.72691(11)
C28_2 C 0.6356(3) 0.78338(19) 0.65608(11)
C29_2 C 0.6439(3) 0.6788(2) 0.76487(12)
C30_2 C 0.6473(3) 0.6472(2) 0.80465(12)
C31_2 C 0.7092(3) 0.60738(19) 0.81463(11)
H17_2 H 0.750155 0.597826 0.795862
C32_2 C 0.6360(3) 0.7713(2) 0.72957(13)
H18_2 H 0.631376 0.812041 0.730762
C33_2 C 0.6383(3) 0.7391(2) 0.76570(13)
H19_2 H 0.635995 0.758630 0.790472
C34_2 C 0.7094(3) 0.5819(2) 0.85274(11)
H20_2 H 0.751719 0.555644 0.859124
C35_2 C 0.5708(3) 0.8646(2) 0.62257(12)
H21_2 H 0.528522 0.892529 0.622212
C36_2 C 0.6449(4) 0.5863(2) 0.72393(14)
H22_2 H 0.644302 0.563908 0.747529
C37_2 C 0.5742(3) 0.8262(2) 0.65445(13)
H23_2 H 0.535082 0.828763 0.675156
C38_2 C 0.6452(3) 0.6514(2) 0.65298(12)
H24_2 H 0.644760 0.672676 0.628874
C39_2 C 0.5942(3) 0.6321(3) 0.87165(14)
H25_2 H 0.554670 0.641452 0.891210
C40_2 C 0.6449(5) 0.5591(2) 0.68780(16)
H26_2 H 0.644608 0.518209 0.686784
C41_2 C 0.5892(3) 0.6598(3) 0.83425(14)
H27_2 H 0.546985 0.686735 0.829109
C42_2 C 0.6454(4) 0.5915(2) 0.65147(14)
H28_2 H 0.645805 0.572187 0.626590
N7_2 N 0.8484(2) 0.90660(16) 0.61908(9)
N8_2 N 0.6516(2) 0.90660(16) 0.38092(9)
W1_4 W 0.750000 0.56116(2) 0.000000
S1_3 S 0.86179(6) 0.61682(5) 0.01102(3)
S2_3 S 0.72826(6) 0.50401(5) 0.05381(3)
H15_3 H 0.741(2) 0.747(2) 0.1240(15)
Cu3_3 Cu 0.61497(4) 0.56603(3) 0.04830(2)
C22_3 C 0.6922(3) 0.71782(19) 0.12425(11)
C23_3 C 0.6403(3) 0.75567(19) 0.19250(11)
N5_3 N 0.5087(3) 0.52658(19) 0.05997(10)
N6_3 N 0.62484(19) 0.63578(15) 0.09209(9)
C24_3 C 0.6457(3) 0.81819(18) 0.19013(11)
C26_3 C 0.6839(3) 0.67688(18) 0.09350(11)
H16_3 H 0.722182 0.678072 0.072359
C27_3 C 0.6459(3) 0.85125(19) 0.22691(11)
C28_3 C 0.6356(3) 0.71662(19) 0.15608(11)
C29_3 C 0.6439(3) 0.8212(2) 0.26487(12)
C30_3 C 0.6473(3) 0.8528(2) 0.30465(12)
C31_3 C 0.7092(3) 0.89262(19) 0.31463(11)
H17_3 H 0.750155 0.902174 0.295862
C32_3 C 0.6360(3) 0.7287(2) 0.22957(13)
H18_3 H 0.631376 0.687959 0.230762
C33_3 C 0.6383(3) 0.7609(2) 0.26570(13)
H19_3 H 0.635995 0.741370 0.290472
C34_3 C 0.7094(3) 0.9181(2) 0.35274(11)
H20_3 H 0.751719 0.944356 0.359124
C35_3 C 0.5708(3) 0.6354(2) 0.12257(12)
H21_3 H 0.528522 0.607471 0.122212
C36_3 C 0.6449(4) 0.9137(2) 0.22393(14)
H22_3 H 0.644302 0.936092 0.247529
C37_3 C 0.5742(3) 0.6738(2) 0.15445(13)
H23_3 H 0.535082 0.671237 0.175156
C38_3 C 0.6452(3) 0.8486(2) 0.15298(12)
H24_3 H 0.644760 0.827324 0.128874
C39_3 C 0.5942(3) 0.8679(3) 0.37165(14)
H25_3 H 0.554670 0.858548 0.391210
C40_3 C 0.6449(5) 0.9409(2) 0.18780(16)
H26_3 H 0.644608 0.981791 0.186784
C41_3 C 0.5892(3) 0.8402(3) 0.33425(14)
H27_3 H 0.546985 0.813265 0.329109
C42_3 C 0.6454(4) 0.9085(2) 0.15147(14)
H28_3 H 0.645805 0.927813 0.126590
W1_5 W 0.750000 0.56116(2) 1.000000
H1_3 H 0.759(2) 0.747(2) 0.8760(15)
Cu1_3 Cu 0.88503(4) 0.56603(3) 0.95170(2)
C1_3 C 0.8078(3) 0.71782(19) 0.87575(11)
C2_3 C 0.8597(3) 0.75567(19) 0.80750(11)
N2_3 N 0.9913(3) 0.52658(19) 0.94003(10)
N3_3 N 0.87516(19) 0.63578(15) 0.90791(9)
C3_3 C 0.8543(3) 0.81819(18) 0.80987(11)
C5_3 C 0.8161(3) 0.67688(18) 0.90650(11)
H2_3 H 0.777818 0.678072 0.927641
C6_3 C 0.8541(3) 0.85125(19) 0.77309(11)
C7_3 C 0.8644(3) 0.71662(19) 0.84392(11)
C8_3 C 0.8561(3) 0.8212(2) 0.73513(12)
C9_3 C 0.8527(3) 0.8528(2) 0.69535(12)
C10_3 C 0.7908(3) 0.89262(19) 0.68537(11)
H3_3 H 0.749845 0.902174 0.704138
C11_3 C 0.8640(3) 0.7287(2) 0.77043(13)
H4_3 H 0.868624 0.687959 0.769238
C12_3 C 0.8617(3) 0.7609(2) 0.73430(13)
H5_3 H 0.864005 0.741370 0.709528
C13_3 C 0.7906(3) 0.9181(2) 0.64726(11)
H6_3 H 0.748281 0.944356 0.640876
C14_3 C 0.9292(3) 0.6354(2) 0.87743(12)
H7_3 H 0.971478 0.607471 0.877788
C15_3 C 0.8551(4) 0.9137(2) 0.77607(14)
H8_3 H 0.855698 0.936092 0.752471
C16_3 C 0.9258(3) 0.6738(2) 0.84555(13)
H9_3 H 0.964918 0.671237 0.824844
C17_3 C 0.8548(3) 0.8486(2) 0.84702(12)
H10_3 H 0.855240 0.827324 0.871126
C18_3 C 0.9058(3) 0.8679(3) 0.62835(14)
H11_3 H 0.945330 0.858548 0.608790
C19_3 C 0.8551(5) 0.9409(2) 0.81220(16)
H12_3 H 0.855392 0.981791 0.813216
C20_3 C 0.9108(3) 0.8402(3) 0.66575(14)
H13_3 H 0.953015 0.813265 0.670891
C21_3 C 0.8546(4) 0.9085(2) 0.84853(14)
H14_3 H 0.854195 0.927813 0.873410
S3_3 S 0.63821(6) 0.61682(5) 0.98898(3)
S4_3 S 0.77174(6) 0.50401(5) 0.94619(3)
W1_6 W 0.250000 0.06116(2) 0.500000
H1_4 H 0.241(2) 0.247(2) 0.6240(15)
Cu1_4 Cu 0.11497(4) 0.06603(3) 0.54830(2)
C1_4 C 0.1922(3) 0.21782(19) 0.62425(11)
S1_4 S 0.13821(6) 0.11682(5) 0.48898(3)
S2_4 S 0.27174(6) 0.00401(5) 0.44619(3)
C2_4 C 0.1403(3) 0.25567(19) 0.69250(11)
N2_4 N 0.0087(3) 0.02658(19) 0.55997(10)
N3_4 N 0.12484(19) 0.13578(15) 0.59209(9)
C3_4 C 0.1457(3) 0.31819(18) 0.69013(11)
C5_4 C 0.1839(3) 0.17688(18) 0.59350(11)
H2_4 H 0.222182 0.178072 0.572359
C6_4 C 0.1459(3) 0.35125(19) 0.72691(11)
C7_4 C 0.1356(3) 0.21662(19) 0.65608(11)
C8_4 C 0.1439(3) 0.3212(2) 0.76487(12)
C9_4 C 0.1473(3) 0.3528(2) 0.80465(12)
C10_4 C 0.2092(3) 0.39262(19) 0.81463(11)
H3_4 H 0.250155 0.402174 0.795862
C11_4 C 0.1360(3) 0.2287(2) 0.72957(13)
H4_4 H 0.131376 0.187959 0.730762
C12_4 C 0.1383(3) 0.2609(2) 0.76570(13)
H5_4 H 0.135995 0.241370 0.790472
C13_4 C 0.2094(3) 0.4181(2) 0.85274(11)
H6_4 H 0.251719 0.444356 0.859124
C14_4 C 0.0708(3) 0.1354(2) 0.62257(12)
H7_4 H 0.028522 0.107471 0.622212
C15_4 C 0.1449(4) 0.4137(2) 0.72393(14)
H8_4 H 0.144302 0.436092 0.747529
C16_4 C 0.0742(3) 0.1738(2) 0.65445(13)
H9_4 H 0.035082 0.171237 0.675156
C17_4 C 0.1452(3) 0.3486(2) 0.65298(12)
H10_4 H 0.144760 0.327324 0.628874
C18_4 C 0.0942(3) 0.3679(3) 0.87165(14)
H11_4 H 0.054670 0.358548 0.891210
C19_4 C 0.1449(5) 0.4409(2) 0.68780(16)
H12_4 H 0.144608 0.481791 0.686784
C20_4 C 0.0892(3) 0.3402(3) 0.83425(14)
H13_4 H 0.046985 0.313265 0.829109
C21_4 C 0.1454(4) 0.4085(2) 0.65147(14)
H14_4 H 0.145805 0.427813 0.626590
H15_4 H 0.259(2) 0.247(2) 0.3760(15)
Cu3_4 Cu 0.38503(4) 0.06603(3) 0.45170(2)
C22_4 C 0.3078(3) 0.21782(19) 0.37575(11)
S3_4 S 0.36179(6) 0.11682(5) 0.51102(3)
S4_4 S 0.22826(6) 0.00401(5) 0.55381(3)
C23_4 C 0.3597(3) 0.25567(19) 0.30750(11)
N5_4 N 0.4913(3) 0.02658(19) 0.44003(10)
N6_4 N 0.37516(19) 0.13578(15) 0.40791(9)
C24_4 C 0.3543(3) 0.31819(18) 0.30987(11)
C26_4 C 0.3161(3) 0.17688(18) 0.40650(11)
H16_4 H 0.277818 0.178072 0.427641
C27_4 C 0.3541(3) 0.35125(19) 0.27309(11)
C28_4 C 0.3644(3) 0.21662(19) 0.34392(11)
C29_4 C 0.3561(3) 0.3212(2) 0.23513(12)
C30_4 C 0.3527(3) 0.3528(2) 0.19535(12)
C31_4 C 0.2908(3) 0.39262(19) 0.18537(11)
H17_4 H 0.249845 0.402174 0.204138
C32_4 C 0.3640(3) 0.2287(2) 0.27043(13)
H18_4 H 0.368624 0.187959 0.269238
C33_4 C 0.3617(3) 0.2609(2) 0.23430(13)
H19_4 H 0.364005 0.241370 0.209528
C34_4 C 0.2906(3) 0.4181(2) 0.14726(11)
H20_4 H 0.248281 0.444356 0.140876
C35_4 C 0.4292(3) 0.1354(2) 0.37743(12)
H21_4 H 0.471478 0.107471 0.377788
C36_4 C 0.3551(4) 0.4137(2) 0.27607(14)
H22_4 H 0.355698 0.436092 0.252471
C37_4 C 0.4258(3) 0.1738(2) 0.34555(13)
H23_4 H 0.464918 0.171237 0.324844
C38_4 C 0.3548(3) 0.3486(2) 0.34702(12)
H24_4 H 0.355240 0.327324 0.371126
C39_4 C 0.4058(3) 0.3679(3) 0.12835(14)
H25_4 H 0.445330 0.358548 0.108790
C40_4 C 0.3551(5) 0.4409(2) 0.31220(16)
H26_4 H 0.355392 0.481791 0.313216
C41_4 C 0.4108(3) 0.3402(3) 0.16575(14)
H27_4 H 0.453015 0.313265 0.170891
C42_4 C 0.3546(4) 0.4085(2) 0.34853(14)
H28_4 H 0.354195 0.427813 0.373410
C4_3 C 0.0500(2) 0.00050(18) 0.06528(10)
Cu5_2 Cu 0.14638(4) 0.94964(3) 0.06443(2)
W1_7 W 0.750000 0.06116(2) 0.000000
H1_5 H 0.759(2) 0.247(2) 0.1240(15)
Cu1_5 Cu 0.88503(4) 0.06603(3) 0.04830(2)
C1_5 C 0.8078(3) 0.21782(19) 0.12425(11)
C2_5 C 0.8597(3) 0.25567(19) 0.19250(11)
N1_3 N 0.8484(2) 0.40660(16) 0.38092(9)
N2_5 N 0.9913(3) 0.02658(19) 0.05997(10)
N3_5 N 0.87516(19) 0.13578(15) 0.09209(9)
C3_5 C 0.8543(3) 0.31819(18) 0.19013(11)
C5_5 C 0.8161(3) 0.17688(18) 0.09350(11)
H2_5 H 0.777818 0.178072 0.072359
C6_5 C 0.8541(3) 0.35125(19) 0.22691(11)
C7_5 C 0.8644(3) 0.21662(19) 0.15608(11)
C8_5 C 0.8561(3) 0.3212(2) 0.26487(12)
C9_5 C 0.8527(3) 0.3528(2) 0.30465(12)
C10_5 C 0.7908(3) 0.39262(19) 0.31463(11)
H3_5 H 0.749845 0.402174 0.295862
C11_5 C 0.8640(3) 0.2287(2) 0.22957(13)
H4_5 H 0.868624 0.187959 0.230762
C12_5 C 0.8617(3) 0.2609(2) 0.26570(13)
H5_5 H 0.864005 0.241370 0.290472
C13_5 C 0.7906(3) 0.4181(2) 0.35274(11)
H6_5 H 0.748281 0.444356 0.359124
C14_5 C 0.9292(3) 0.1354(2) 0.12257(12)
H7_5 H 0.971478 0.107471 0.122212
C15_5 C 0.8551(4) 0.4137(2) 0.22393(14)
H8_5 H 0.855698 0.436092 0.247529
C16_5 C 0.9258(3) 0.1738(2) 0.15445(13)
H9_5 H 0.964918 0.171237 0.175156
C17_5 C 0.8548(3) 0.3486(2) 0.15298(12)
H10_5 H 0.855240 0.327324 0.128874
C18_5 C 0.9058(3) 0.3679(3) 0.37165(14)
H11_5 H 0.945330 0.358548 0.391210
C19_5 C 0.8551(5) 0.4409(2) 0.18780(16)
H12_5 H 0.855392 0.481791 0.186784
C20_5 C 0.9108(3) 0.3402(3) 0.33425(14)
H13_5 H 0.953015 0.313265 0.329109
C21_5 C 0.8546(4) 0.4085(2) 0.15147(14)
H14_5 H 0.854195 0.427813 0.126590
Cu4_3 Cu 0.64638(4) 0.05036(3) 0.06443(2)
S3_5 S 0.63821(6) 0.11682(5) 0.01102(3)
S4_5 S 0.77174(6) 0.00401(5) 0.05381(3)
Cu6_2 Cu 0.85362(4) 0.44964(3) 0.43557(2)
N8_3 N 0.6516(2) 0.09340(16) 0.11908(9)
W1_8 W 0.750000 0.06116(2) 1.000000
Cu2_3 Cu 0.85362(4) 0.05036(3) 0.93557(2)
S1_5 S 0.86179(6) 0.11682(5) 0.98898(3)
S2_5 S 0.72826(6) 0.00401(5) 0.94619(3)
H15_5 H 0.741(2) 0.247(2) 0.8760(15)
Cu3_5 Cu 0.61497(4) 0.06603(3) 0.95170(2)
C22_5 C 0.6922(3) 0.21782(19) 0.87575(11)
C23_5 C 0.6403(3) 0.25567(19) 0.80750(11)
N4_3 N 0.6516(2) 0.40660(16) 0.61908(9)
N5_5 N 0.5087(3) 0.02658(19) 0.94003(10)
N6_5 N 0.62484(19) 0.13578(15) 0.90791(9)
C24_5 C 0.6457(3) 0.31819(18) 0.80987(11)
C25_3 C 0.4500(2) 0.00050(18) 0.93472(10)
C26_5 C 0.6839(3) 0.17688(18) 0.90650(11)
H16_5 H 0.722182 0.178072 0.927641
C27_5 C 0.6459(3) 0.35125(19) 0.77309(11)
C28_5 C 0.6356(3) 0.21662(19) 0.84392(11)
C29_5 C 0.6439(3) 0.3212(2) 0.73513(12)
C30_5 C 0.6473(3) 0.3528(2) 0.69535(12)
C31_5 C 0.7092(3) 0.39262(19) 0.68537(11)
H17_5 H 0.750155 0.402174 0.704138
C32_5 C 0.6360(3) 0.2287(2) 0.77043(13)
H18_5 H 0.631376 0.187959 0.769238
C33_5 C 0.6383(3) 0.2609(2) 0.73430(13)
H19_5 H 0.635995 0.241370 0.709528
C34_5 C 0.7094(3) 0.4181(2) 0.64726(11)
H20_5 H 0.751719 0.444356 0.640876
C35_5 C 0.5708(3) 0.1354(2) 0.87743(12)
H21_5 H 0.528522 0.107471 0.877788
C36_5 C 0.6449(4) 0.4137(2) 0.77607(14)
H22_5 H 0.644302 0.436092 0.752471
C37_5 C 0.5742(3) 0.1738(2) 0.84555(13)
H23_5 H 0.535082 0.171237 0.824844
C38_5 C 0.6452(3) 0.3486(2) 0.84702(12)
H24_5 H 0.644760 0.327324 0.871126
C39_5 C 0.5942(3) 0.3679(3) 0.62835(14)
H25_5 H 0.554670 0.358548 0.608790
C40_5 C 0.6449(5) 0.4409(2) 0.81220(16)
H26_5 H 0.644608 0.481791 0.813216
C41_5 C 0.5892(3) 0.3402(3) 0.66575(14)
H27_5 H 0.546985 0.313265 0.670891
C42_5 C 0.6454(4) 0.4085(2) 0.84853(14)
H28_5 H 0.645805 0.427813 0.873410
Cu7_2 Cu 0.64638(4) 0.44964(3) 0.56443(2)
N7_3 N 0.8484(2) 0.09340(16) 0.88092(9)
C44_3 C 0.5500(2) 0.99950(18) 0.06528(10)
Cu8_2 Cu 0.35362(4) 0.94964(3) 0.93557(2)
C43_3 C 0.9500(2) 0.99950(18) 0.93472(10)
W1_9 W 0.250000 0.56116(2) 0.500000
H1_6 H 0.241(2) 0.747(2) 0.3760(15)
Cu1_6 Cu 0.11497(4) 0.56603(3) 0.45170(2)
Cu2_4 Cu 0.14638(4) 0.55036(3) 0.56443(2)
C1_6 C 0.1922(3) 0.71782(19) 0.37575(11)
S1_6 S 0.13821(6) 0.61682(5) 0.51102(3)
S2_6 S 0.27174(6) 0.50401(5) 0.55381(3)
C2_6 C 0.1403(3) 0.75567(19) 0.30750(11)
N1_4 N 0.1516(2) 0.90660(16) 0.11908(9)
N2_6 N 0.0087(3) 0.52658(19) 0.44003(10)
N3_6 N 0.12484(19) 0.63578(15) 0.40791(9)
C3_6 C 0.1457(3) 0.81819(18) 0.30987(11)
C5_6 C 0.1839(3) 0.67688(18) 0.40650(11)
H2_6 H 0.222182 0.678072 0.427641
C6_6 C 0.1459(3) 0.85125(19) 0.27309(11)
C7_6 C 0.1356(3) 0.71662(19) 0.34392(11)
C8_6 C 0.1439(3) 0.8212(2) 0.23513(12)
C9_6 C 0.1473(3) 0.8528(2) 0.19535(12)
C10_6 C 0.2092(3) 0.89262(19) 0.18537(11)
H3_6 H 0.250155 0.902174 0.204138
C11_6 C 0.1360(3) 0.7287(2) 0.27043(13)
H4_6 H 0.131376 0.687959 0.269238
C12_6 C 0.1383(3) 0.7609(2) 0.23430(13)
H5_6 H 0.135995 0.741370 0.209528
C13_6 C 0.2094(3) 0.9181(2) 0.14726(11)
H6_6 H 0.251719 0.944356 0.140876
C14_6 C 0.0708(3) 0.6354(2) 0.37743(12)
H7_6 H 0.028522 0.607471 0.377788
C15_6 C 0.1449(4) 0.9137(2) 0.27607(14)
H8_6 H 0.144302 0.936092 0.252471
C16_6 C 0.0742(3) 0.6738(2) 0.34555(13)
H9_6 H 0.035082 0.671237 0.324844
C17_6 C 0.1452(3) 0.8486(2) 0.34702(12)
H10_6 H 0.144760 0.827324 0.371126
C18_6 C 0.0942(3) 0.8679(3) 0.12835(14)
H11_6 H 0.054670 0.858548 0.108790
C19_6 C 0.1449(5) 0.9409(2) 0.31220(16)
H12_6 H 0.144608 0.981791 0.313216
C20_6 C 0.0892(3) 0.8402(3) 0.16575(14)
H13_6 H 0.046985 0.813265 0.170891
C21_6 C 0.1454(4) 0.9085(2) 0.34853(14)
H14_6 H 0.145805 0.927813 0.373410
H15_6 H 0.259(2) 0.747(2) 0.6240(15)
Cu3_6 Cu 0.38503(4) 0.56603(3) 0.54830(2)
Cu4_4 Cu 0.35362(4) 0.55036(3) 0.43557(2)
C22_6 C 0.3078(3) 0.71782(19) 0.62425(11)
S3_6 S 0.36179(6) 0.61682(5) 0.48898(3)
S4_6 S 0.22826(6) 0.50401(5) 0.44619(3)
C23_6 C 0.3597(3) 0.75567(19) 0.69250(11)
N4_4 N 0.3484(2) 0.90660(16) 0.88092(9)
N5_6 N 0.4913(3) 0.52658(19) 0.55997(10)
N6_6 N 0.37516(19) 0.63578(15) 0.59209(9)
C24_6 C 0.3543(3) 0.81819(18) 0.69013(11)
C25_4 C 0.5500(2) 0.50050(18) 0.56528(10)
C26_6 C 0.3161(3) 0.67688(18) 0.59350(11)
H16_6 H 0.277818 0.678072 0.572359
C27_6 C 0.3541(3) 0.85125(19) 0.72691(11)
C28_6 C 0.3644(3) 0.71662(19) 0.65608(11)
C29_6 C 0.3561(3) 0.8212(2) 0.76487(12)
C30_6 C 0.3527(3) 0.8528(2) 0.80465(12)
C31_6 C 0.2908(3) 0.89262(19) 0.81463(11)
H17_6 H 0.249845 0.902174 0.795862
C32_6 C 0.3640(3) 0.7287(2) 0.72957(13)
H18_6 H 0.368624 0.687959 0.730762
C33_6 C 0.3617(3) 0.7609(2) 0.76570(13)
H19_6 H 0.364005 0.741370 0.790472
C34_6 C 0.2906(3) 0.9181(2) 0.85274(11)
H20_6 H 0.248281 0.944356 0.859124
C35_6 C 0.4292(3) 0.6354(2) 0.62257(12)
H21_6 H 0.471478 0.607471 0.622212
C36_6 C 0.3551(4) 0.9137(2) 0.72393(14)
H22_6 H 0.355698 0.936092 0.747529
C37_6 C 0.4258(3) 0.6738(2) 0.65445(13)
H23_6 H 0.464918 0.671237 0.675156
C38_6 C 0.3548(3) 0.8486(2) 0.65298(12)
H24_6 H 0.355240 0.827324 0.628874
C39_6 C 0.4058(3) 0.8679(3) 0.87165(14)
H25_6 H 0.445330 0.858548 0.891210
C40_6 C 0.3551(5) 0.9409(2) 0.68780(16)
H26_6 H 0.355392 0.981791 0.686784
C41_6 C 0.4108(3) 0.8402(3) 0.83425(14)
H27_6 H 0.453015 0.813265 0.829109
C42_6 C 0.3546(4) 0.9085(2) 0.65147(14)
H28_6 H 0.354195 0.927813 0.626590
N7_4 N 0.1516(2) 0.59340(16) 0.61908(9)
N8_4 N 0.3484(2) 0.59340(16) 0.38092(9)
C43_4 C 0.0500(2) 0.49950(18) 0.56528(10)
C44_4 C 0.4500(2) 0.49950(18) 0.43472(10)
C4_4 C 0.9500(2) 0.50050(18) 0.43472(10)
W1_10 W 0.250000 0.93884(2) 0.000000
S1_7 S 0.13821(6) 0.88318(5) 0.01102(3)
S2_7 S 0.27174(6) 0.99599(5) 0.05381(3)
H15_7 H 0.259(2) 0.753(2) 0.1240(15)
Cu3_7 Cu 0.38503(4) 0.93397(3) 0.04830(2)
C22_7 C 0.3078(3) 0.78218(19) 0.12425(11)
C23_7 C 0.3597(3) 0.74433(19) 0.19250(11)
N5_7 N 0.4913(3) 0.97342(19) 0.05997(10)
N6_7 N 0.37516(19) 0.86422(15) 0.09209(9)
C24_7 C 0.3543(3) 0.68181(18) 0.19013(11)
C26_7 C 0.3161(3) 0.82312(18) 0.09350(11)
H16_7 H 0.277818 0.821928 0.072359
C27_7 C 0.3541(3) 0.64875(19) 0.22691(11)
C28_7 C 0.3644(3) 0.78338(19) 0.15608(11)
C29_7 C 0.3561(3) 0.6788(2) 0.26487(12)
C30_7 C 0.3527(3) 0.6472(2) 0.30465(12)
C31_7 C 0.2908(3) 0.60738(19) 0.31463(11)
H17_7 H 0.249845 0.597826 0.295862
C32_7 C 0.3640(3) 0.7713(2) 0.22957(13)
H18_7 H 0.368624 0.812041 0.230762
C33_7 C 0.3617(3) 0.7391(2) 0.26570(13)
H19_7 H 0.364005 0.758630 0.290472
C34_7 C 0.2906(3) 0.5819(2) 0.35274(11)
H20_7 H 0.248281 0.555644 0.359124
C35_7 C 0.4292(3) 0.8646(2) 0.12257(12)
H21_7 H 0.471478 0.892529 0.122212
C36_7 C 0.3551(4) 0.5863(2) 0.22393(14)
H22_7 H 0.355698 0.563908 0.247529
C37_7 C 0.4258(3) 0.8262(2) 0.15445(13)
H23_7 H 0.464918 0.828763 0.175156
C38_7 C 0.3548(3) 0.6514(2) 0.15298(12)
H24_7 H 0.355240 0.672676 0.128874
C39_7 C 0.4058(3) 0.6321(3) 0.37165(14)
H25_7 H 0.445330 0.641452 0.391210
C40_7 C 0.3551(5) 0.5591(2) 0.18780(16)
H26_7 H 0.355392 0.518209 0.186784
C41_7 C 0.4108(3) 0.6598(3) 0.33425(14)
H27_7 H 0.453015 0.686735 0.329109
C42_7 C 0.3546(4) 0.5915(2) 0.15147(14)
H28_7 H 0.354195 0.572187 0.126590
W1_11 W 0.250000 0.93884(2) 1.000000
H1_7 H 0.241(2) 0.753(2) 0.8760(15)
Cu1_7 Cu 0.11497(4) 0.93397(3) 0.95170(2)
C1_7 C 0.1922(3) 0.78218(19) 0.87575(11)
C2_7 C 0.1403(3) 0.74433(19) 0.80750(11)
N2_7 N 0.0087(3) 0.97342(19) 0.94003(10)
N3_7 N 0.12484(19) 0.86422(15) 0.90791(9)
C3_7 C 0.1457(3) 0.68181(18) 0.80987(11)
C5_7 C 0.1839(3) 0.82312(18) 0.90650(11)
H2_7 H 0.222182 0.821928 0.927641
C6_7 C 0.1459(3) 0.64875(19) 0.77309(11)
C7_7 C 0.1356(3) 0.78338(19) 0.84392(11)
C8_7 C 0.1439(3) 0.6788(2) 0.73513(12)
C9_7 C 0.1473(3) 0.6472(2) 0.69535(12)
C10_7 C 0.2092(3) 0.60738(19) 0.68537(11)
H3_7 H 0.250155 0.597826 0.704138
C11_7 C 0.1360(3) 0.7713(2) 0.77043(13)
H4_7 H 0.131376 0.812041 0.769238
C12_7 C 0.1383(3) 0.7391(2) 0.73430(13)
H5_7 H 0.135995 0.758630 0.709528
C13_7 C 0.2094(3) 0.5819(2) 0.64726(11)
H6_7 H 0.251719 0.555644 0.640876
C14_7 C 0.0708(3) 0.8646(2) 0.87743(12)
H7_7 H 0.028522 0.892529 0.877788
C15_7 C 0.1449(4) 0.5863(2) 0.77607(14)
H8_7 H 0.144302 0.563908 0.752471
C16_7 C 0.0742(3) 0.8262(2) 0.84555(13)
H9_7 H 0.035082 0.828763 0.824844
C17_7 C 0.1452(3) 0.6514(2) 0.84702(12)
H10_7 H 0.144760 0.672676 0.871126
C18_7 C 0.0942(3) 0.6321(3) 0.62835(14)
H11_7 H 0.054670 0.641452 0.608790
C19_7 C 0.1449(5) 0.5591(2) 0.81220(16)
H12_7 H 0.144608 0.518209 0.813216
C20_7 C 0.0892(3) 0.6598(3) 0.66575(14)
H13_7 H 0.046985 0.686735 0.670891
C21_7 C 0.1454(4) 0.5915(2) 0.84853(14)
H14_7 H 0.145805 0.572187 0.873410
S3_7 S 0.36179(6) 0.88318(5) 0.98898(3)
S4_7 S 0.22826(6) 0.99599(5) 0.94619(3)
W1_12 W 0.750000 0.43884(2) 0.500000
H1_8 H 0.759(2) 0.253(2) 0.6240(15)
Cu1_8 Cu 0.88503(4) 0.43397(3) 0.54830(2)
C1_8 C 0.8078(3) 0.28218(19) 0.62425(11)
S1_8 S 0.86179(6) 0.38318(5) 0.48898(3)
S2_8 S 0.72826(6) 0.49599(5) 0.44619(3)
C2_8 C 0.8597(3) 0.24433(19) 0.69250(11)
N2_8 N 0.9913(3) 0.47342(19) 0.55997(10)
N3_8 N 0.87516(19) 0.36422(15) 0.59209(9)
C3_8 C 0.8543(3) 0.18181(18) 0.69013(11)
C5_8 C 0.8161(3) 0.32312(18) 0.59350(11)
H2_8 H 0.777818 0.321928 0.572359
C6_8 C 0.8541(3) 0.14875(19) 0.72691(11)
C7_8 C 0.8644(3) 0.28338(19) 0.65608(11)
C8_8 C 0.8561(3) 0.1788(2) 0.76487(12)
C9_8 C 0.8527(3) 0.1472(2) 0.80465(12)
C10_8 C 0.7908(3) 0.10738(19) 0.81463(11)
H3_8 H 0.749845 0.097826 0.795862
C11_8 C 0.8640(3) 0.2713(2) 0.72957(13)
H4_8 H 0.868624 0.312041 0.730762
C12_8 C 0.8617(3) 0.2391(2) 0.76570(13)
H5_8 H 0.864005 0.258630 0.790472
C13_8 C 0.7906(3) 0.0819(2) 0.85274(11)
H6_8 H 0.748281 0.055644 0.859124
C14_8 C 0.9292(3) 0.3646(2) 0.62257(12)
H7_8 H 0.971478 0.392529 0.622212
C15_8 C 0.8551(4) 0.0863(2) 0.72393(14)
H8_8 H 0.855698 0.063908 0.747529
C16_8 C 0.9258(3) 0.3262(2) 0.65445(13)
H9_8 H 0.964918 0.328763 0.675156
C17_8 C 0.8548(3) 0.1514(2) 0.65298(12)
H10_8 H 0.855240 0.172676 0.628874
C18_8 C 0.9058(3) 0.1321(3) 0.87165(14)
H11_8 H 0.945330 0.141452 0.891210
C19_8 C 0.8551(5) 0.0591(2) 0.68780(16)
H12_8 H 0.855392 0.018209 0.686784
C20_8 C 0.9108(3) 0.1598(3) 0.83425(14)
H13_8 H 0.953015 0.186735 0.829109
C21_8 C 0.8546(4) 0.0915(2) 0.65147(14)
H14_8 H 0.854195 0.072187 0.626590
H15_8 H 0.741(2) 0.253(2) 0.3760(15)
Cu3_8 Cu 0.61497(4) 0.43397(3) 0.45170(2)
C22_8 C 0.6922(3) 0.28218(19) 0.37575(11)
S3_8 S 0.63821(6) 0.38318(5) 0.51102(3)
S4_8 S 0.77174(6) 0.49599(5) 0.55381(3)
C23_8 C 0.6403(3) 0.24433(19) 0.30750(11)
N5_8 N 0.5087(3) 0.47342(19) 0.44003(10)
N6_8 N 0.62484(19) 0.36422(15) 0.40791(9)
C24_8 C 0.6457(3) 0.18181(18) 0.30987(11)
C26_8 C 0.6839(3) 0.32312(18) 0.40650(11)
H16_8 H 0.722182 0.321928 0.427641
C27_8 C 0.6459(3) 0.14875(19) 0.27309(11)
C28_8 C 0.6356(3) 0.28338(19) 0.34392(11)
C29_8 C 0.6439(3) 0.1788(2) 0.23513(12)
C30_8 C 0.6473(3) 0.1472(2) 0.19535(12)
C31_8 C 0.7092(3) 0.10738(19) 0.18537(11)
H17_8 H 0.750155 0.097826 0.204138
C32_8 C 0.6360(3) 0.2713(2) 0.27043(13)
H18_8 H 0.631376 0.312041 0.269238
C33_8 C 0.6383(3) 0.2391(2) 0.23430(13)
H19_8 H 0.635995 0.258630 0.209528
C34_8 C 0.7094(3) 0.0819(2) 0.14726(11)
H20_8 H 0.751719 0.055644 0.140876
C35_8 C 0.5708(3) 0.3646(2) 0.37743(12)
H21_8 H 0.528522 0.392529 0.377788
C36_8 C 0.6449(4) 0.0863(2) 0.27607(14)
H22_8 H 0.644302 0.063908 0.252471
C37_8 C 0.5742(3) 0.3262(2) 0.34555(13)
H23_8 H 0.535082 0.328763 0.324844
C38_8 C 0.6452(3) 0.1514(2) 0.34702(12)
H24_8 H 0.644760 0.172676 0.371126
C39_8 C 0.5942(3) 0.1321(3) 0.12835(14)
H25_8 H 0.554670 0.141452 0.108790
C40_8 C 0.6449(5) 0.0591(2) 0.31220(16)
H26_8 H 0.644608 0.018209 0.313216
C41_8 C 0.5892(3) 0.1598(3) 0.16575(14)
H27_8 H 0.546985 0.186735 0.170891
C42_8 C 0.6454(4) 0.0915(2) 0.34853(14)
H28_8 H 0.645805 0.072187 0.373410
loop_
_geom_bond_atom_site_label_1
_geom_bond_atom_site_label_2
_geom_bond_site_symmetry_1
_geom_bond_site_symmetry_2
H1 C1 1_555 1_555
C1 C5 1_555 1_555
C2 C3 1_555 1_555
N1 C13 1_555 1_555
N2 Cu1 1_555 1_555
N3 Cu1 1_555 1_555
C3 C6 1_555 1_555
C5 N3 1_555 1_555
H2 C5 1_555 1_555
C6 C8 1_555 1_555
C7 C1 1_555 1_555
C8 C9 1_555 1_555
C9 C10 1_555 1_555
C10 H3 1_555 1_555
C11 C2 1_555 1_555
H4 C11 1_555 1_555
C12 C8 1_555 1_555
H5 C12 1_555 1_555
C13 C10 1_555 1_555
H6 C13 1_555 1_555
C14 N3 1_555 1_555
H7 C14 1_555 1_555
C15 C6 1_555 1_555
H8 C15 1_555 1_555
C16 C7 1_555 1_555
H9 C16 1_555 1_555
C17 C3 1_555 1_555
H10 C17 1_555 1_555
C18 N1 1_555 1_555
H11 C18 1_555 1_555
C19 C15 1_555 1_555
H12 C19 1_555 1_555
C20 C9 1_555 1_555
H13 C20 1_555 1_555
C21 C17 1_555 1_555
H14 C21 1_555 1_555
Cu4 S3 1_555 1_555
S3 W1 1_555 1_555
S4 W1 1_555 1_555
Cu6 N1 1_555 1_555
N8 Cu4 1_555 1_555
C44 Cu4 1_555 1_555
Cu1 S4 1_555 1_555
C2 C7 1_555 1_555
C11 C12 1_555 1_555
C14 C16 1_555 1_555
C18 C20 1_555 1_555
C19 C21 1_555 1_555
Cu4 S4 1_555 1_555
W1_2 S1 1_555 1_555
Cu2 S1 1_555 1_555
S2 W1_2 1_555 1_555
H15 C22 1_555 1_555
Cu3 S2 1_555 1_555
C22 C26 1_555 1_555
C23 C24 1_555 1_555
N4 C34 1_555 1_555
N5 Cu3 1_555 1_555
N6 Cu3 1_555 1_555
C24 C27 1_555 1_555
C25 N5 1_555 1_555
C26 N6 1_555 1_555
H16 C26 1_555 1_555
C27 C29 1_555 1_555
C28 C22 1_555 1_555
C29 C30 1_555 1_555
C30 C31 1_555 1_555
C31 H17 1_555 1_555
C32 C23 1_555 1_555
H18 C32 1_555 1_555
C33 C29 1_555 1_555
H19 C33 1_555 1_555
C34 C31 1_555 1_555
H20 C34 1_555 1_555
C35 N6 1_555 1_555
H21 C35 1_555 1_555
C36 C27 1_555 1_555
H22 C36 1_555 1_555
C37 C28 1_555 1_555
H23 C37 1_555 1_555
C38 C24 1_555 1_555
H24 C38 1_555 1_555
C39 N4 1_555 1_555
H25 C39 1_555 1_555
C40 C36 1_555 1_555
H26 C40 1_555 1_555
C41 C30 1_555 1_555
H27 C41 1_555 1_555
C42 C38 1_555 1_555
H28 C42 1_555 1_555
Cu7 N4 1_555 1_555
Cu8 C25 1_555 1_555
N7 Cu2 1_555 1_555
C43 Cu2 1_555 1_555
Cu2 S2 1_555 1_555
C23 C28 1_555 1_555
C32 C33 1_555 1_555
C35 C37 1_555 1_555
C39 C41 1_555 1_555
C40 C42 1_555 1_555
Cu5 C4 1_555 1_555
W1_3 S1_2 1_555 1_555
H1_2 C1_2 1_555 1_555
Cu1_2 S1_2 1_555 1_555
Cu2_2 S1_2 1_555 1_555
C1_2 C5_2 1_555 1_555
S2_2 W1_3 1_555 1_555
C2_2 C3_2 1_555 1_555
N1_2 C13_2 1_555 1_555
N2_2 Cu1_2 1_555 1_555
N3_2 Cu1_2 1_555 1_555
C3_2 C6_2 1_555 1_555
C5_2 N3_2 1_555 1_555
H2_2 C5_2 1_555 1_555
C6_2 C8_2 1_555 1_555
C7_2 C1_2 1_555 1_555
C8_2 C9_2 1_555 1_555
C9_2 C10_2 1_555 1_555
C10_2 H3_2 1_555 1_555
C11_2 C2_2 1_555 1_555
H4_2 C11_2 1_555 1_555
C12_2 C8_2 1_555 1_555
H5_2 C12_2 1_555 1_555
C13_2 C10_2 1_555 1_555
H6_2 C13_2 1_555 1_555
C14_2 N3_2 1_555 1_555
H7_2 C14_2 1_555 1_555
C15_2 C6_2 1_555 1_555
H8_2 C15_2 1_555 1_555
C16_2 C7_2 1_555 1_555
H9_2 C16_2 1_555 1_555
C17_2 C3_2 1_555 1_555
H10_2 C17_2 1_555 1_555
C18_2 N1_2 1_555 1_555
H11_2 C18_2 1_555 1_555
C19_2 C15_2 1_555 1_555
H12_2 C19_2 1_555 1_555
C20_2 C9_2 1_555 1_555
H13_2 C20_2 1_555 1_555
C21_2 C17_2 1_555 1_555
H14_2 C21_2 1_555 1_555
H15_2 C22_2 1_555 1_555
Cu3_2 S2_2 1_555 1_555
Cu4_2 S3_2 1_555 1_555
C22_2 C26_2 1_555 1_555
S3_2 W1_3 1_555 1_555
S4_2 W1_3 1_555 1_555
C23_2 C24_2 1_555 1_555
N4_2 C34_2 1_555 1_555
N5_2 Cu3_2 1_555 1_555
N6_2 Cu3_2 1_555 1_555
C24_2 C27_2 1_555 1_555
C25_2 N5_2 1_555 1_555
C26_2 N6_2 1_555 1_555
H16_2 C26_2 1_555 1_555
C27_2 C29_2 1_555 1_555
C28_2 C22_2 1_555 1_555
C29_2 C30_2 1_555 1_555
C30_2 C31_2 1_555 1_555
C31_2 H17_2 1_555 1_555
C32_2 C23_2 1_555 1_555
H18_2 C32_2 1_555 1_555
C33_2 C29_2 1_555 1_555
H19_2 C33_2 1_555 1_555
C34_2 C31_2 1_555 1_555
H20_2 C34_2 1_555 1_555
C35_2 N6_2 1_555 1_555
H21_2 C35_2 1_555 1_555
C36_2 C27_2 1_555 1_555
H22_2 C36_2 1_555 1_555
C37_2 C28_2 1_555 1_555
H23_2 C37_2 1_555 1_555
C38_2 C24_2 1_555 1_555
H24_2 C38_2 1_555 1_555
C39_2 N4_2 1_555 1_555
H25_2 C39_2 1_555 1_555
C40_2 C36_2 1_555 1_555
H26_2 C40_2 1_555 1_555
C41_2 C30_2 1_555 1_555
H27_2 C41_2 1_555 1_555
C42_2 C38_2 1_555 1_555
H28_2 C42_2 1_555 1_555
Cu5 N1_2 1_555 1_555
Cu8 N4_2 1_555 1_555
N7_2 Cu2_2 1_555 1_555
N8_2 Cu4_2 1_555 1_555
Cu1_2 S4_2 1_555 1_555
Cu2_2 S2_2 1_555 1_555
C2_2 C7_2 1_555 1_555
C11_2 C12_2 1_555 1_555
C14_2 C16_2 1_555 1_555
C18_2 C20_2 1_555 1_555
C19_2 C21_2 1_555 1_555
Cu3_2 S3_2 1_555 1_555
Cu4_2 S4_2 1_555 1_555
C23_2 C28_2 1_555 1_555
C32_2 C33_2 1_555 1_555
C35_2 C37_2 1_555 1_555
C39_2 C41_2 1_555 1_555
C40_2 C42_2 1_555 1_555
W1_4 S1_3 1_555 1_555
Cu5 S1_3 1_555 1_555
S2_3 W1_4 1_555 1_555
H15_3 C22_3 1_555 1_555
Cu3_3 S2_3 1_555 1_555
C22_3 C26_3 1_555 1_555
C23_3 C24_3 1_555 1_555
N8_2 C34_3 1_555 1_555
N5_3 Cu3_3 1_555 1_555
N6_3 Cu3_3 1_555 1_555
C24_3 C27_3 1_555 1_555
C44 N5_3 1_555 1_555
C26_3 N6_3 1_555 1_555
H16_3 C26_3 1_555 1_555
C27_3 C29_3 1_555 1_555
C28_3 C22_3 1_555 1_555
C29_3 C30_3 1_555 1_555
C30_3 C31_3 1_555 1_555
C31_3 H17_3 1_555 1_555
C32_3 C23_3 1_555 1_555
H18_3 C32_3 1_555 1_555
C33_3 C29_3 1_555 1_555
H19_3 C33_3 1_555 1_555
C34_3 C31_3 1_555 1_555
H20_3 C34_3 1_555 1_555
C35_3 N6_3 1_555 1_555
H21_3 C35_3 1_555 1_555
C36_3 C27_3 1_555 1_555
H22_3 C36_3 1_555 1_555
C37_3 C28_3 1_555 1_555
H23_3 C37_3 1_555 1_555
C38_3 C24_3 1_555 1_555
H24_3 C38_3 1_555 1_555
C39_3 N8_2 1_555 1_555
H25_3 C39_3 1_555 1_555
C40_3 C36_3 1_555 1_555
H26_3 C40_3 1_555 1_555
C41_3 C30_3 1_555 1_555
H27_3 C41_3 1_555 1_555
C42_3 C38_3 1_555 1_555
H28_3 C42_3 1_555 1_555
Cu5 S2_3 1_555 1_555
C23_3 C28_3 1_555 1_555
C32_3 C33_3 1_555 1_555
C35_3 C37_3 1_555 1_555
C39_3 C41_3 1_555 1_555
C40_3 C42_3 1_555 1_555
H1_3 C1_3 1_555 1_555
C1_3 C5_3 1_555 1_555
C2_3 C3_3 1_555 1_555
N7_2 C13_3 1_555 1_555
N2_3 Cu1_3 1_555 1_555
N3_3 Cu1_3 1_555 1_555
C3_3 C6_3 1_555 1_555
C5_3 N3_3 1_555 1_555
H2_3 C5_3 1_555 1_555
C6_3 C8_3 1_555 1_555
C7_3 C1_3 1_555 1_555
C8_3 C9_3 1_555 1_555
C9_3 C10_3 1_555 1_555
C10_3 H3_3 1_555 1_555
C11_3 C2_3 1_555 1_555
H4_3 C11_3 1_555 1_555
C12_3 C8_3 1_555 1_555
H5_3 C12_3 1_555 1_555
C13_3 C10_3 1_555 1_555
H6_3 C13_3 1_555 1_555
C14_3 N3_3 1_555 1_555
H7_3 C14_3 1_555 1_555
C15_3 C6_3 1_555 1_555
H8_3 C15_3 1_555 1_555
C16_3 C7_3 1_555 1_555
H9_3 C16_3 1_555 1_555
C17_3 C3_3 1_555 1_555
H10_3 C17_3 1_555 1_555
C18_3 N7_2 1_555 1_555
H11_3 C18_3 1_555 1_555
C19_3 C15_3 1_555 1_555
H12_3 C19_3 1_555 1_555
C20_3 C9_3 1_555 1_555
H13_3 C20_3 1_555 1_555
C21_3 C17_3 1_555 1_555
H14_3 C21_3 1_555 1_555
Cu8 S3_3 1_555 1_555
S3_3 W1_5 1_555 1_555
S4_3 W1_5 1_555 1_555
Cu1_3 S4_3 1_555 1_555
C2_3 C7_3 1_555 1_555
C11_3 C12_3 1_555 1_555
C14_3 C16_3 1_555 1_555
C18_3 C20_3 1_555 1_555
C19_3 C21_3 1_555 1_555
Cu8 S4_3 1_555 1_555
W1_6 S1_4 1_555 1_555
H1_4 C1_4 1_555 1_555
Cu1_4 S1_4 1_555 1_555
Cu6 S1_4 1_555 1_555
C1_4 C5_4 1_555 1_555
S2_4 W1_6 1_555 1_555
C2_4 C3_4 1_555 1_555
N7 C13_4 1_555 1_555
N2_4 Cu1_4 1_555 1_555
N3_4 Cu1_4 1_555 1_555
C3_4 C6_4 1_555 1_555
C5_4 N3_4 1_555 1_555
H2_4 C5_4 1_555 1_555
C6_4 C8_4 1_555 1_555
C7_4 C1_4 1_555 1_555
C8_4 C9_4 1_555 1_555
C9_4 C10_4 1_555 1_555
C10_4 H3_4 1_555 1_555
C11_4 C2_4 1_555 1_555
H4_4 C11_4 1_555 1_555
C12_4 C8_4 1_555 1_555
H5_4 C12_4 1_555 1_555
C13_4 C10_4 1_555 1_555
H6_4 C13_4 1_555 1_555
C14_4 N3_4 1_555 1_555
H7_4 C14_4 1_555 1_555
C15_4 C6_4 1_555 1_555
H8_4 C15_4 1_555 1_555
C16_4 C7_4 1_555 1_555
H9_4 C16_4 1_555 1_555
C17_4 C3_4 1_555 1_555
H10_4 C17_4 1_555 1_555
C18_4 N7 1_555 1_555
H11_4 C18_4 1_555 1_555
C19_4 C15_4 1_555 1_555
H12_4 C19_4 1_555 1_555
C20_4 C9_4 1_555 1_555
H13_4 C20_4 1_555 1_555
C21_4 C17_4 1_555 1_555
H14_4 C21_4 1_555 1_555
H15_4 C22_4 1_555 1_555
Cu3_4 S2_4 1_555 1_555
Cu7 S3_4 1_555 1_555
C22_4 C26_4 1_555 1_555
S3_4 W1_6 1_555 1_555
S4_4 W1_6 1_555 1_555
C23_4 C24_4 1_555 1_555
N8 C34_4 1_555 1_555
N5_4 Cu3_4 1_555 1_555
N6_4 Cu3_4 1_555 1_555
C24_4 C27_4 1_555 1_555
C44_2 N5_4 1_555 1_555
C26_4 N6_4 1_555 1_555
H16_4 C26_4 1_555 1_555
C27_4 C29_4 1_555 1_555
C28_4 C22_4 1_555 1_555
C29_4 C30_4 1_555 1_555
C30_4 C31_4 1_555 1_555
C31_4 H17_4 1_555 1_555
C32_4 C23_4 1_555 1_555
H18_4 C32_4 1_555 1_555
C33_4 C29_4 1_555 1_555
H19_4 C33_4 1_555 1_555
C34_4 C31_4 1_555 1_555
H20_4 C34_4 1_555 1_555
C35_4 N6_4 1_555 1_555
H21_4 C35_4 1_555 1_555
C36_4 C27_4 1_555 1_555
H22_4 C36_4 1_555 1_555
C37_4 C28_4 1_555 1_555
H23_4 C37_4 1_555 1_555
C38_4 C24_4 1_555 1_555
H24_4 C38_4 1_555 1_555
C39_4 N8 1_555 1_555
H25_4 C39_4 1_555 1_555
C40_4 C36_4 1_555 1_555
H26_4 C40_4 1_555 1_555
C41_4 C30_4 1_555 1_555
H27_4 C41_4 1_555 1_555
C42_4 C38_4 1_555 1_555
H28_4 C42_4 1_555 1_555
Cu1_4 S4_4 1_555 1_555
Cu6 S2_4 1_555 1_555
C2_4 C7_4 1_555 1_555
C11_4 C12_4 1_555 1_555
C14_4 C16_4 1_555 1_555
C18_4 C20_4 1_555 1_555
C19_4 C21_4 1_555 1_555
Cu3_4 S3_4 1_555 1_555
Cu7 S4_4 1_555 1_555
C23_4 C28_4 1_555 1_555
C32_4 C33_4 1_555 1_555
C35_4 C37_4 1_555 1_555
C39_4 C41_4 1_555 1_555
C40_4 C42_4 1_555 1_555
H1_5 C1_5 1_555 1_555
C1_5 C5_5 1_555 1_555
C2_5 C3_5 1_555 1_555
N1_3 C13_5 1_555 1_555
N2_5 Cu1_5 1_555 1_555
N3_5 Cu1_5 1_555 1_555
C3_5 C6_5 1_555 1_555
C5_5 N3_5 1_555 1_555
H2_5 C5_5 1_555 1_555
C6_5 C8_5 1_555 1_555
C7_5 C1_5 1_555 1_555
C8_5 C9_5 1_555 1_555
C9_5 C10_5 1_555 1_555
C10_5 H3_5 1_555 1_555
C11_5 C2_5 1_555 1_555
H4_5 C11_5 1_555 1_555
C12_5 C8_5 1_555 1_555
H5_5 C12_5 1_555 1_555
C13_5 C10_5 1_555 1_555
H6_5 C13_5 1_555 1_555
C14_5 N3_5 1_555 1_555
H7_5 C14_5 1_555 1_555
C15_5 C6_5 1_555 1_555
H8_5 C15_5 1_555 1_555
C16_5 C7_5 1_555 1_555
H9_5 C16_5 1_555 1_555
C17_5 C3_5 1_555 1_555
H10_5 C17_5 1_555 1_555
C18_5 N1_3 1_555 1_555
H11_5 C18_5 1_555 1_555
C19_5 C15_5 1_555 1_555
H12_5 C19_5 1_555 1_555
C20_5 C9_5 1_555 1_555
H13_5 C20_5 1_555 1_555
C21_5 C17_5 1_555 1_555
H14_5 C21_5 1_555 1_555
Cu4_3 S3_5 1_555 1_555
S3_5 W1_7 1_555 1_555
S4_5 W1_7 1_555 1_555
Cu6_2 N1_3 1_555 1_555
N8_3 Cu4_3 1_555 1_555
Cu1_5 S4_5 1_555 1_555
C2_5 C7_5 1_555 1_555
C11_5 C12_5 1_555 1_555
C14_5 C16_5 1_555 1_555
C18_5 C20_5 1_555 1_555
C19_5 C21_5 1_555 1_555
Cu4_3 S4_5 1_555 1_555
W1_8 S1_5 1_555 1_555
Cu2_3 S1_5 1_555 1_555
S2_5 W1_8 1_555 1_555
H15_5 C22_5 1_555 1_555
Cu3_5 S2_5 1_555 1_555
C22_5 C26_5 1_555 1_555
C23_5 C24_5 1_555 1_555
N4_3 C34_5 1_555 1_555
N5_5 Cu3_5 1_555 1_555
N6_5 Cu3_5 1_555 1_555
C24_5 C27_5 1_555 1_555
C25_3 N5_5 1_555 1_555
C26_5 N6_5 1_555 1_555
H16_5 C26_5 1_555 1_555
C27_5 C29_5 1_555 1_555
C28_5 C22_5 1_555 1_555
C29_5 C30_5 1_555 1_555
C30_5 C31_5 1_555 1_555
C31_5 H17_5 1_555 1_555
C32_5 C23_5 1_555 1_555
H18_5 C32_5 1_555 1_555
C33_5 C29_5 1_555 1_555
H19_5 C33_5 1_555 1_555
C34_5 C31_5 1_555 1_555
H20_5 C34_5 1_555 1_555
C35_5 N6_5 1_555 1_555
H21_5 C35_5 1_555 1_555
C36_5 C27_5 1_555 1_555
H22_5 C36_5 1_555 1_555
C37_5 C28_5 1_555 1_555
H23_5 C37_5 1_555 1_555
C38_5 C24_5 1_555 1_555
H24_5 C38_5 1_555 1_555
C39_5 N4_3 1_555 1_555
H25_5 C39_5 1_555 1_555
C40_5 C36_5 1_555 1_555
H26_5 C40_5 1_555 1_555
C41_5 C30_5 1_555 1_555
H27_5 C41_5 1_555 1_555
C42_5 C38_5 1_555 1_555
H28_5 C42_5 1_555 1_555
Cu7_2 N4_3 1_555 1_555
N7_3 Cu2_3 1_555 1_555
Cu2_3 S2_5 1_555 1_555
C23_5 C28_5 1_555 1_555
C32_5 C33_5 1_555 1_555
C35_5 C37_5 1_555 1_555
C39_5 C41_5 1_555 1_555
C40_5 C42_5 1_555 1_555
W1_9 S1_6 1_555 1_555
H1_6 C1_6 1_555 1_555
Cu1_6 S1_6 1_555 1_555
Cu2_4 S1_6 1_555 1_555
C1_6 C5_6 1_555 1_555
S2_6 W1_9 1_555 1_555
C2_6 C3_6 1_555 1_555
N1_4 C13_6 1_555 1_555
N2_6 Cu1_6 1_555 1_555
N3_6 Cu1_6 1_555 1_555
C3_6 C6_6 1_555 1_555
C5_6 N3_6 1_555 1_555
H2_6 C5_6 1_555 1_555
C6_6 C8_6 1_555 1_555
C7_6 C1_6 1_555 1_555
C8_6 C9_6 1_555 1_555
C9_6 C10_6 1_555 1_555
C10_6 H3_6 1_555 1_555
C11_6 C2_6 1_555 1_555
H4_6 C11_6 1_555 1_555
C12_6 C8_6 1_555 1_555
H5_6 C12_6 1_555 1_555
C13_6 C10_6 1_555 1_555
H6_6 C13_6 1_555 1_555
C14_6 N3_6 1_555 1_555
H7_6 C14_6 1_555 1_555
C15_6 C6_6 1_555 1_555
H8_6 C15_6 1_555 1_555
C16_6 C7_6 1_555 1_555
H9_6 C16_6 1_555 1_555
C17_6 C3_6 1_555 1_555
H10_6 C17_6 1_555 1_555
C18_6 N1_4 1_555 1_555
H11_6 C18_6 1_555 1_555
C19_6 C15_6 1_555 1_555
H12_6 C19_6 1_555 1_555
C20_6 C9_6 1_555 1_555
H13_6 C20_6 1_555 1_555
C21_6 C17_6 1_555 1_555
H14_6 C21_6 1_555 1_555
H15_6 C22_6 1_555 1_555
Cu3_6 S2_6 1_555 1_555
Cu4_4 S3_6 1_555 1_555
C22_6 C26_6 1_555 1_555
S3_6 W1_9 1_555 1_555
S4_6 W1_9 1_555 1_555
C23_6 C24_6 1_555 1_555
N4_4 C34_6 1_555 1_555
N5_6 Cu3_6 1_555 1_555
N6_6 Cu3_6 1_555 1_555
C24_6 C27_6 1_555 1_555
C25_4 N5_6 1_555 1_555
C26_6 N6_6 1_555 1_555
H16_6 C26_6 1_555 1_555
C27_6 C29_6 1_555 1_555
C28_6 C22_6 1_555 1_555
C29_6 C30_6 1_555 1_555
C30_6 C31_6 1_555 1_555
C31_6 H17_6 1_555 1_555
C32_6 C23_6 1_555 1_555
H18_6 C32_6 1_555 1_555
C33_6 C29_6 1_555 1_555
H19_6 C33_6 1_555 1_555
C34_6 C31_6 1_555 1_555
H20_6 C34_6 1_555 1_555
C35_6 N6_6 1_555 1_555
H21_6 C35_6 1_555 1_555
C36_6 C27_6 1_555 1_555
H22_6 C36_6 1_555 1_555
C37_6 C28_6 1_555 1_555
H23_6 C37_6 1_555 1_555
C38_6 C24_6 1_555 1_555
H24_6 C38_6 1_555 1_555
C39_6 N4_4 1_555 1_555
H25_6 C39_6 1_555 1_555
C40_6 C36_6 1_555 1_555
H26_6 C40_6 1_555 1_555
C41_6 C30_6 1_555 1_555
H27_6 C41_6 1_555 1_555
C42_6 C38_6 1_555 1_555
H28_6 C42_6 1_555 1_555
Cu5_2 N1_4 1_555 1_555
Cu8_2 N4_4 1_555 1_555
Cu7_2 C25_4 1_555 1_555
N7_4 Cu2_4 1_555 1_555
N8_4 Cu4_4 1_555 1_555
C43_4 Cu2_4 1_555 1_555
C44_4 Cu4_4 1_555 1_555
Cu1_6 S4_6 1_555 1_555
Cu2_4 S2_6 1_555 1_555
C2_6 C7_6 1_555 1_555
C11_6 C12_6 1_555 1_555
C14_6 C16_6 1_555 1_555
C18_6 C20_6 1_555 1_555
C19_6 C21_6 1_555 1_555
Cu3_6 S3_6 1_555 1_555
Cu4_4 S4_6 1_555 1_555
C23_6 C28_6 1_555 1_555
C32_6 C33_6 1_555 1_555
C35_6 C37_6 1_555 1_555
C39_6 C41_6 1_555 1_555
C40_6 C42_6 1_555 1_555
Cu6_2 C4_4 1_555 1_555
W1_10 S1_7 1_555 1_555
Cu5_2 S1_7 1_555 1_555
S2_7 W1_10 1_555 1_555
H15_7 C22_7 1_555 1_555
Cu3_7 S2_7 1_555 1_555
C22_7 C26_7 1_555 1_555
C23_7 C24_7 1_555 1_555
N8_4 C34_7 1_555 1_555
N5_7 Cu3_7 1_555 1_555
N6_7 Cu3_7 1_555 1_555
C24_7 C27_7 1_555 1_555
C44_3 N5_7 1_555 1_555
C26_7 N6_7 1_555 1_555
H16_7 C26_7 1_555 1_555
C27_7 C29_7 1_555 1_555
C28_7 C22_7 1_555 1_555
C29_7 C30_7 1_555 1_555
C30_7 C31_7 1_555 1_555
C31_7 H17_7 1_555 1_555
C32_7 C23_7 1_555 1_555
H18_7 C32_7 1_555 1_555
C33_7 C29_7 1_555 1_555
H19_7 C33_7 1_555 1_555
C34_7 C31_7 1_555 1_555
H20_7 C34_7 1_555 1_555
C35_7 N6_7 1_555 1_555
H21_7 C35_7 1_555 1_555
C36_7 C27_7 1_555 1_555
H22_7 C36_7 1_555 1_555
C37_7 C28_7 1_555 1_555
H23_7 C37_7 1_555 1_555
C38_7 C24_7 1_555 1_555
H24_7 C38_7 1_555 1_555
C39_7 N8_4 1_555 1_555
H25_7 C39_7 1_555 1_555
C40_7 C36_7 1_555 1_555
H26_7 C40_7 1_555 1_555
C41_7 C30_7 1_555 1_555
H27_7 C41_7 1_555 1_555
C42_7 C38_7 1_555 1_555
H28_7 C42_7 1_555 1_555
Cu5_2 S2_7 1_555 1_555
C23_7 C28_7 1_555 1_555
C32_7 C33_7 1_555 1_555
C35_7 C37_7 1_555 1_555
C39_7 C41_7 1_555 1_555
C40_7 C42_7 1_555 1_555
H1_7 C1_7 1_555 1_555
C1_7 C5_7 1_555 1_555
C2_7 C3_7 1_555 1_555
N7_4 C13_7 1_555 1_555
N2_7 Cu1_7 1_555 1_555
N3_7 Cu1_7 1_555 1_555
C3_7 C6_7 1_555 1_555
C5_7 N3_7 1_555 1_555
H2_7 C5_7 1_555 1_555
C6_7 C8_7 1_555 1_555
C7_7 C1_7 1_555 1_555
C8_7 C9_7 1_555 1_555
C9_7 C10_7 1_555 1_555
C10_7 H3_7 1_555 1_555
C11_7 C2_7 1_555 1_555
H4_7 C11_7 1_555 1_555
C12_7 C8_7 1_555 1_555
H5_7 C12_7 1_555 1_555
C13_7 C10_7 1_555 1_555
H6_7 C13_7 1_555 1_555
C14_7 N3_7 1_555 1_555
H7_7 C14_7 1_555 1_555
C15_7 C6_7 1_555 1_555
H8_7 C15_7 1_555 1_555
C16_7 C7_7 1_555 1_555
H9_7 C16_7 1_555 1_555
C17_7 C3_7 1_555 1_555
H10_7 C17_7 1_555 1_555
C18_7 N7_4 1_555 1_555
H11_7 C18_7 1_555 1_555
C19_7 C15_7 1_555 1_555
H12_7 C19_7 1_555 1_555
C20_7 C9_7 1_555 1_555
H13_7 C20_7 1_555 1_555
C21_7 C17_7 1_555 1_555
H14_7 C21_7 1_555 1_555
Cu8_2 S3_7 1_555 1_555
S3_7 W1_11 1_555 1_555
S4_7 W1_11 1_555 1_555
Cu1_7 S4_7 1_555 1_555
C2_7 C7_7 1_555 1_555
C11_7 C12_7 1_555 1_555
C14_7 C16_7 1_555 1_555
C18_7 C20_7 1_555 1_555
C19_7 C21_7 1_555 1_555
Cu8_2 S4_7 1_555 1_555
W1_12 S1_8 1_555 1_555
H1_8 C1_8 1_555 1_555
Cu1_8 S1_8 1_555 1_555
Cu6_2 S1_8 1_555 1_555
C1_8 C5_8 1_555 1_555
S2_8 W1_12 1_555 1_555
C2_8 C3_8 1_555 1_555
N7_3 C13_8 1_555 1_555
N2_8 Cu1_8 1_555 1_555
N3_8 Cu1_8 1_555 1_555
C3_8 C6_8 1_555 1_555
C5_8 N3_8 1_555 1_555
H2_8 C5_8 1_555 1_555
C6_8 C8_8 1_555 1_555
C7_8 C1_8 1_555 1_555
C8_8 C9_8 1_555 1_555
C9_8 C10_8 1_555 1_555
C10_8 H3_8 1_555 1_555
C11_8 C2_8 1_555 1_555
H4_8 C11_8 1_555 1_555
C12_8 C8_8 1_555 1_555
H5_8 C12_8 1_555 1_555
C13_8 C10_8 1_555 1_555
H6_8 C13_8 1_555 1_555
C14_8 N3_8 1_555 1_555
H7_8 C14_8 1_555 1_555
C15_8 C6_8 1_555 1_555
H8_8 C15_8 1_555 1_555
C16_8 C7_8 1_555 1_555
H9_8 C16_8 1_555 1_555
C17_8 C3_8 1_555 1_555
H10_8 C17_8 1_555 1_555
C18_8 N7_3 1_555 1_555
H11_8 C18_8 1_555 1_555
C19_8 C15_8 1_555 1_555
H12_8 C19_8 1_555 1_555
C20_8 C9_8 1_555 1_555
H13_8 C20_8 1_555 1_555
C21_8 C17_8 1_555 1_555
H14_8 C21_8 1_555 1_555
H15_8 C22_8 1_555 1_555
Cu3_8 S2_8 1_555 1_555
Cu7_2 S3_8 1_555 1_555
C22_8 C26_8 1_555 1_555
S3_8 W1_12 1_555 1_555
S4_8 W1_12 1_555 1_555
C23_8 C24_8 1_555 1_555
N8_3 C34_8 1_555 1_555
N5_8 Cu3_8 1_555 1_555
N6_8 Cu3_8 1_555 1_555
C24_8 C27_8 1_555 1_555
C44_4 N5_8 1_555 1_555
C26_8 N6_8 1_555 1_555
H16_8 C26_8 1_555 1_555
C27_8 C29_8 1_555 1_555
C28_8 C22_8 1_555 1_555
C29_8 C30_8 1_555 1_555
C30_8 C31_8 1_555 1_555
C31_8 H17_8 1_555 1_555
C32_8 C23_8 1_555 1_555
H18_8 C32_8 1_555 1_555
C33_8 C29_8 1_555 1_555
H19_8 C33_8 1_555 1_555
C34_8 C31_8 1_555 1_555
H20_8 C34_8 1_555 1_555
C35_8 N6_8 1_555 1_555
H21_8 C35_8 1_555 1_555
C36_8 C27_8 1_555 1_555
H22_8 C36_8 1_555 1_555
C37_8 C28_8 1_555 1_555
H23_8 C37_8 1_555 1_555
C38_8 C24_8 1_555 1_555
H24_8 C38_8 1_555 1_555
C39_8 N8_3 1_555 1_555
H25_8 C39_8 1_555 1_555
C40_8 C36_8 1_555 1_555
H26_8 C40_8 1_555 1_555
C41_8 C30_8 1_555 1_555
H27_8 C41_8 1_555 1_555
C42_8 C38_8 1_555 1_555
H28_8 C42_8 1_555 1_555
Cu1_8 S4_8 1_555 1_555
Cu6_2 S2_8 1_555 1_555
C2_8 C7_8 1_555 1_555
C11_8 C12_8 1_555 1_555
C14_8 C16_8 1_555 1_555
C18_8 C20_8 1_555 1_555
C19_8 C21_8 1_555 1_555
Cu3_8 S3_8 1_555 1_555
Cu7_2 S4_8 1_555 1_555
C23_8 C28_8 1_555 1_555
C32_8 C33_8 1_555 1_555
C35_8 C37_8 1_555 1_555
C39_8 C41_8 1_555 1_555
C40_8 C42_8 1_555 1_555

#END
