
###############################################################################
#
# This file contains modified crystal structure data generated from the
# MOF subset of the Cambridge Structural Database (CSD) v543 
# hosted by the Cambridge Crystallographic Data Centre (CCDC).
#
# This work is licensed under the Creative Commons
# Attribution-NonCommercial-ShareAlike 4.0 International License.
# To view a copy of this license, visit
# http://creativecommons.org/licenses/by-nc-sa/4.0/
# or send a letter to
# Creative Commons, PO Box 1866, Mountain View, CA 94042, USA.
#
# CIF created using the CSD Python API on 29 September 2022
# The structure has been converted into the P1 space group
# The structure has a 3D framework
# The original CSD entry ANUNIJ is in the monoclinic crystal system
# The framework has been calculated to contain at least 10.0% void space
# The void calculation uses a probe of radius 1.32A, grid spacing 0.4
#
###############################################################################

data_ANUNIJ
_chemical_formula_moiety         '(C288 H192 Cu16 I8 N24 S16 W6)n'
_symmetry_cell_setting           triclinic
_symmetry_space_group_name_H-M   'P 1'
_symmetry_Int_Tables_number      1
_space_group_name_Hall           'P 1'
loop_
_symmetry_equiv_pos_site_id
_symmetry_equiv_pos_as_xyz
1 x,y,z
_cell_length_a                   31.2009(13)
_cell_length_b                   7.9224(4)
_cell_length_c                   32.3716(17)
_cell_angle_alpha                90
_cell_angle_beta                 98.480(4)
_cell_angle_gamma                90
_cell_volume                     7914.33
loop_
_atom_site_label
_atom_site_type_symbol
_atom_site_fract_x
_atom_site_fract_y
_atom_site_fract_z
N2 N 0.14923(18) 0.4745(8) 0.07035(18)
C1 C 0.1496(3) 0.3203(11) 0.0544(3)
H1 H 0.172441 0.290435 0.040397
C2 C 0.1179(3) 0.2025(11) 0.0576(3)
H2 H 0.120240 0.094503 0.046876
C3 C 0.0827(2) 0.2449(9) 0.0768(2)
C4 C 0.0827(2) 0.4029(10) 0.0940(2)
H3 H 0.060366 0.436189 0.108296
C5 C 0.1166(2) 0.5129(10) 0.0901(2)
H4 H 0.116089 0.619530 0.101982
H8 H 0.111132 0.042179 0.135962
C14 C 0.0075(2) 0.1474(9) 0.0499(2)
C15 C 0.0454(2) 0.1259(9) 0.0782(2)
C17 C 0.0040(2) 0.2705(10) 0.0177(2)
H10 H 0.027660 0.339850 0.015580
Cu6 Cu 0.19908(3) 0.63911(13) 0.06091(3)
N4 N 0.20656(18) 0.8047(8) 0.11122(17)
C37 C 0.2070(3) 0.7519(11) 0.1503(2)
H25 H 0.200074 0.639861 0.154803
C38 C 0.2165(3) 0.9646(11) 0.1061(2)
C41 C 0.2172(3) 0.8562(11) 0.1845(2)
H28 H 0.217402 0.813291 0.211249
C44 C 0.3096(3) 0.9955(11) 0.2339(2)
H29 H 0.303067 0.924373 0.211014
C45 C 0.3480(3) 0.9797(11) 0.2586(3)
H30 H 0.367439 0.896943 0.252834
W1 W 0.250000 0.62998(5) 0.000000
I2 I 0.33414(2) 0.82390(9) 0.12451(2)
Cu4 Cu 0.31965(3) 0.62937(14) 0.06102(3)
S3 S 0.25773(5) 0.4688(2) 0.05712(5)
S4 S 0.30929(5) 0.7897(2) 0.00046(5)
N5 N 0.36975(19) 0.4523(8) 0.0678(2)
C54 C 0.5176(2) 0.2442(10) 0.1405(2)
H37 H 0.494784 0.318518 0.141757
C55 C 0.5544(3) 0.2603(12) 0.1684(3)
H38 H 0.556275 0.342395 0.189107
C56 C 0.5899(3) 0.1515(12) 0.1658(3)
H39 H 0.615371 0.165409 0.184413
C57 C 0.5875(3) 0.0284(11) 0.1369(3)
C58 C 0.5489(2) 0.0052(9) 0.1077(2)
C59 C 0.5133(2) 0.1165(9) 0.1093(2)
C60 C 0.4748(2) 0.0954(9) 0.0807(2)
H44 H 0.409488 0.005565 0.022002
C68 C 0.4385(2) 0.2210(10) 0.0789(2)
C69 C 0.4448(2) 0.3916(10) 0.0713(2)
H45 H 0.472437 0.431258 0.069220
C70 C 0.4105(2) 0.5013(10) 0.0670(2)
H46 H 0.415937 0.615292 0.063279
C71 C 0.3636(2) 0.2916(11) 0.0757(3)
H47 H 0.335453 0.256059 0.077307
C72 C 0.3964(2) 0.1723(11) 0.0816(3)
H48 H 0.390177 0.060673 0.087315
C6 C 0.0176(2) 0.7558(10) 0.1405(2)
C7 C 0.0544(3) 0.7397(12) 0.1684(3)
H6 H 0.056275 0.657605 0.189107
C8 C 0.0899(3) 0.8485(12) 0.1658(3)
H7 H 0.115371 0.834591 0.184413
C9 C 0.0875(3) 0.9716(11) 0.1369(3)
C10 C 0.0489(2) 0.9948(9) 0.1077(2)
C11 C 0.0133(2) 0.8835(9) 0.1093(2)
C13 C 0.9715(2) 0.0356(9) 0.0516(2)
C19 C 0.9335(2) 0.0635(10) 0.0214(2)
C64 C 0.5325(2) 0.2898(10) 0.0097(2)
H41 H 0.533758 0.372514 0.030241
C66 C 0.5686(2) 0.1862(11) 0.0077(3)
H43 H 0.593942 0.202185 0.026327
C16 C 0.9675(2) 0.2898(10) 0.9903(2)
H9 H 0.966242 0.372514 0.969759
C18 C 0.9314(2) 0.1862(11) 0.9923(3)
H11 H 0.906058 0.202185 0.973673
N6 N 0.35077(18) 0.4745(8) 0.92965(18)
C49 C 0.3504(3) 0.3203(11) 0.9456(3)
H33 H 0.327559 0.290435 0.959603
C50 C 0.3821(3) 0.2025(11) 0.9424(3)
H34 H 0.379760 0.094503 0.953124
C51 C 0.4173(2) 0.2449(9) 0.9232(2)
C52 C 0.4173(2) 0.4029(10) 0.9060(2)
H35 H 0.439634 0.436189 0.891704
C53 C 0.3834(2) 0.5129(10) 0.9099(2)
H36 H 0.383911 0.619530 0.898018
H40 H 0.388868 0.042179 0.864038
C61 C 0.5285(2) 0.0356(9) 0.9484(2)
C62 C 0.4925(2) 0.1474(9) 0.9501(2)
C63 C 0.4546(2) 0.1259(9) 0.9218(2)
C65 C 0.4960(2) 0.2705(10) 0.9823(2)
H42 H 0.472340 0.339850 0.984420
C67 C 0.5665(2) 0.0635(10) 0.9786(2)
Cu5 Cu 0.30092(3) 0.63911(13) 0.93909(3)
N4_2 N 0.29344(18) 0.8047(8) 0.88878(17)
C37_2 C 0.2930(3) 0.7519(11) 0.8497(2)
H25_2 H 0.299926 0.639861 0.845197
C38_2 C 0.2835(3) 0.9646(11) 0.8939(2)
C41_2 C 0.2828(3) 0.8562(11) 0.8155(2)
H28_2 H 0.282598 0.813291 0.788751
C44_2 C 0.1904(3) 0.9955(11) 0.7661(2)
H29_2 H 0.196933 0.924373 0.788986
C45_2 C 0.1520(3) 0.9797(11) 0.7414(3)
H30_2 H 0.132561 0.896943 0.747166
W1_2 W 0.250000 0.62998(5) 1.000000
I1 I 0.16586(2) 0.82390(9) 0.87549(2)
Cu2 Cu 0.18035(3) 0.62937(14) 0.93898(3)
S1 S 0.24227(5) 0.4688(2) 0.94288(5)
S2 S 0.19071(5) 0.7897(2) 0.99954(5)
N1 N 0.13025(19) 0.4523(8) 0.9322(2)
H5 H 0.005216 0.318518 0.858243
C12 C 0.0252(2) 0.0954(9) 0.9193(2)
H12 H 0.090512 0.005565 0.977998
C20 C 0.0615(2) 0.2210(10) 0.9211(2)
C21 C 0.0552(2) 0.3916(10) 0.9287(2)
H13 H 0.027563 0.431258 0.930780
C22 C 0.0895(2) 0.5013(10) 0.9330(2)
H14 H 0.084063 0.615292 0.936721
C23 C 0.1364(2) 0.2916(11) 0.9243(3)
H15 H 0.164547 0.256059 0.922693
C24 C 0.1036(2) 0.1723(11) 0.9184(3)
H16 H 0.109823 0.060673 0.912685
W1_3 W 0.750000 0.37002(5) 0.000000
I1_2 I 0.83414(2) 0.17610(9) 0.12451(2)
Cu1 Cu 0.69908(3) 0.36089(13) 0.06091(3)
Cu2_2 Cu 0.81965(3) 0.37063(14) 0.06102(3)
S1_2 S 0.75773(5) 0.5312(2) 0.05712(5)
S2_2 S 0.80929(5) 0.2103(2) 0.00046(5)
N1_2 N 0.86975(19) 0.5477(8) 0.0678(2)
N3 N 0.70656(18) 0.1953(8) 0.11122(17)
H5_2 H 0.994784 0.681482 0.141757
C12_2 C 0.9748(2) 0.9046(9) 0.0807(2)
H12_2 H 0.909488 0.994435 0.022002
C20_2 C 0.9385(2) 0.7790(10) 0.0789(2)
C21_2 C 0.9448(2) 0.6084(10) 0.0713(2)
H13_2 H 0.972437 0.568742 0.069220
C22_2 C 0.9105(2) 0.4987(10) 0.0670(2)
H14_2 H 0.915937 0.384708 0.063279
C23_2 C 0.8636(2) 0.7084(11) 0.0757(3)
H15_2 H 0.835453 0.743941 0.077307
C24_2 C 0.8964(2) 0.8277(11) 0.0816(3)
H16_2 H 0.890177 0.939327 0.087315
C25 C 0.7070(3) 0.2481(11) 0.1503(2)
H17 H 0.700074 0.360139 0.154803
C26 C 0.7165(3) 0.0354(11) 0.1061(2)
C29 C 0.7172(3) 0.1438(11) 0.1845(2)
H20 H 0.717402 0.186709 0.211249
C32 C 0.8096(3) 0.0045(11) 0.2339(2)
H21 H 0.803067 0.075627 0.211014
C33 C 0.8480(3) 0.0203(11) 0.2586(3)
H22 H 0.867439 0.103057 0.252834
N8 N 0.64923(18) 0.5255(8) 0.07035(18)
C16_2 C 0.0325(2) 0.7102(10) 0.0097(2)
H9_2 H 0.033758 0.627486 0.030241
C18_2 C 0.0686(2) 0.8138(11) 0.0077(3)
H11_2 H 0.093942 0.797815 0.026327
C49_2 C 0.6496(3) 0.6797(11) 0.0544(3)
H33_2 H 0.672441 0.709565 0.040397
C50_2 C 0.6179(3) 0.7975(11) 0.0576(3)
H34_2 H 0.620240 0.905497 0.046876
C51_2 C 0.5827(2) 0.7551(9) 0.0768(2)
C52_2 C 0.5827(2) 0.5971(10) 0.0940(2)
H35_2 H 0.560366 0.563811 0.108296
C53_2 C 0.6166(2) 0.4871(10) 0.0901(2)
H36_2 H 0.616089 0.380470 0.101982
H40_2 H 0.611132 0.957821 0.135962
C61_2 C 0.4715(2) 0.9644(9) 0.0516(2)
C62_2 C 0.5075(2) 0.8526(9) 0.0499(2)
C63_2 C 0.5454(2) 0.8741(9) 0.0782(2)
C65_2 C 0.5040(2) 0.7295(10) 0.0177(2)
H42_2 H 0.527660 0.660150 0.015580
C67_2 C 0.4335(2) 0.9365(10) 0.0214(2)
W1_4 W 0.750000 0.37002(5) 1.000000
I2_2 I 0.66586(2) 0.17610(9) 0.87549(2)
Cu3 Cu 0.80092(3) 0.36089(13) 0.93909(3)
Cu4_2 Cu 0.68035(3) 0.37063(14) 0.93898(3)
S3_2 S 0.74227(5) 0.5312(2) 0.94288(5)
S4_2 S 0.69071(5) 0.2103(2) 0.99954(5)
N5_2 N 0.63025(19) 0.5477(8) 0.9322(2)
C54_2 C 0.4824(2) 0.7558(10) 0.8595(2)
H37_2 H 0.505216 0.681482 0.858243
C55_2 C 0.4456(3) 0.7397(12) 0.8316(3)
H38_2 H 0.443725 0.657605 0.810893
C56_2 C 0.4101(3) 0.8485(12) 0.8342(3)
H39_2 H 0.384629 0.834591 0.815587
C57_2 C 0.4125(3) 0.9716(11) 0.8631(3)
C58_2 C 0.4511(2) 0.9948(9) 0.8923(2)
C59_2 C 0.4867(2) 0.8835(9) 0.8907(2)
C60_2 C 0.5252(2) 0.9046(9) 0.9193(2)
H44_2 H 0.590512 0.994435 0.977998
C68_2 C 0.5615(2) 0.7790(10) 0.9211(2)
C69_2 C 0.5552(2) 0.6084(10) 0.9287(2)
H45_2 H 0.527563 0.568742 0.930780
C70_2 C 0.5895(2) 0.4987(10) 0.9330(2)
H46_2 H 0.584063 0.384708 0.936721
C71_2 C 0.6364(2) 0.7084(11) 0.9243(3)
H47_2 H 0.664547 0.743941 0.922693
C72_2 C 0.6036(2) 0.8277(11) 0.9184(3)
H48_2 H 0.609823 0.939327 0.912685
N7 N 0.85077(18) 0.5255(8) 0.92965(18)
N9 N 0.79344(18) 0.1953(8) 0.88878(17)
C25_2 C 0.7930(3) 0.2481(11) 0.8497(2)
H17_2 H 0.799926 0.360139 0.845197
C26_2 C 0.7835(3) 0.0354(11) 0.8939(2)
C29_2 C 0.7828(3) 0.1438(11) 0.8155(2)
H20_2 H 0.782598 0.186709 0.788751
C32_2 C 0.6904(3) 0.0045(11) 0.7661(2)
H21_2 H 0.696933 0.075627 0.788986
C33_2 C 0.6520(3) 0.0203(11) 0.7414(3)
H22_2 H 0.632561 0.103057 0.747166
C1_2 C 0.8504(3) 0.6797(11) 0.9456(3)
H1_2 H 0.827559 0.709565 0.959603
C2_2 C 0.8821(3) 0.7975(11) 0.9424(3)
H2_2 H 0.879760 0.905497 0.953124
C3_2 C 0.9173(2) 0.7551(9) 0.9232(2)
C4_2 C 0.9173(2) 0.5971(10) 0.9060(2)
H3_2 H 0.939634 0.563811 0.891704
C5_2 C 0.8834(2) 0.4871(10) 0.9099(2)
H4_2 H 0.883911 0.380470 0.898018
H8_2 H 0.888868 0.957821 0.864038
C14_2 C 0.9925(2) 0.8526(9) 0.9501(2)
C15_2 C 0.9546(2) 0.8741(9) 0.9218(2)
C17_2 C 0.9960(2) 0.7295(10) 0.9823(2)
H10_2 H 0.972340 0.660150 0.984420
H18 H 0.716571 0.995976 0.079105
C27 C 0.7266(3) 0.9245(11) 0.1386(2)
H19 H 0.733284 0.813064 0.133075
C28 C 0.7271(2) 0.9764(10) 0.1791(2)
C30 C 0.7392(3) 0.8600(10) 0.2153(2)
C31 C 0.7784(3) 0.8803(9) 0.2422(2)
C34 C 0.8591(3) 0.9119(13) 0.2933(3)
H23 H 0.885816 0.923376 0.310181
C35 C 0.8308(3) 0.7908(12) 0.3021(3)
H24 H 0.838466 0.720710 0.325078
C36 C 0.7104(2) 0.7306(10) 0.2232(2)
N4_3 N 0.79344(18) 0.3047(8) 0.38878(17)
C37_3 C 0.7930(3) 0.2519(11) 0.3497(2)
H25_3 H 0.799926 0.139861 0.345197
C38_3 C 0.7835(3) 0.4646(11) 0.3939(2)
H26 H 0.783429 0.504024 0.420895
C39 C 0.7734(3) 0.5755(11) 0.3614(2)
H27 H 0.766716 0.686936 0.366925
C40 C 0.7729(2) 0.5236(10) 0.3209(2)
C41_3 C 0.7828(3) 0.3562(11) 0.3155(2)
H28_3 H 0.782598 0.313291 0.288751
C42 C 0.7608(3) 0.6400(10) 0.2847(2)
C43 C 0.7216(3) 0.6197(9) 0.2578(2)
C44_3 C 0.6904(3) 0.4955(11) 0.2661(2)
H29_3 H 0.696933 0.424373 0.288986
C45_3 C 0.6520(3) 0.4797(11) 0.2414(3)
H30_3 H 0.632561 0.396943 0.247166
C46 C 0.6409(3) 0.5881(13) 0.2067(3)
H31 H 0.614184 0.576624 0.189819
C47 C 0.6692(3) 0.7092(12) 0.1979(3)
H32 H 0.661534 0.779290 0.174922
C48 C 0.7896(2) 0.7694(10) 0.2768(2)
Cu7 Cu 0.80092(3) 0.13911(13) 0.43909(3)
H18_2 H 0.783429 0.995976 0.920895
C27_2 C 0.7734(3) 0.9245(11) 0.8614(2)
H19_2 H 0.766716 0.813064 0.866925
C28_2 C 0.7729(2) 0.9764(10) 0.8209(2)
C30_2 C 0.7608(3) 0.8600(10) 0.7847(2)
C31_2 C 0.7216(3) 0.8803(9) 0.7578(2)
C34_2 C 0.6409(3) 0.9119(13) 0.7067(3)
H23_2 H 0.614184 0.923376 0.689819
C35_2 C 0.6692(3) 0.7908(12) 0.6979(3)
H24_2 H 0.661534 0.720710 0.674922
C36_2 C 0.7896(2) 0.7306(10) 0.7768(2)
N4_4 N 0.70656(18) 0.3047(8) 0.61122(17)
C37_4 C 0.7070(3) 0.2519(11) 0.6503(2)
H25_4 H 0.700074 0.139861 0.654803
C38_4 C 0.7165(3) 0.4646(11) 0.6061(2)
H26_2 H 0.716571 0.504024 0.579105
C39_2 C 0.7266(3) 0.5755(11) 0.6386(2)
H27_2 H 0.733284 0.686936 0.633075
C40_2 C 0.7271(2) 0.5236(10) 0.6791(2)
C41_4 C 0.7172(3) 0.3562(11) 0.6845(2)
H28_4 H 0.717402 0.313291 0.711249
C42_2 C 0.7392(3) 0.6400(10) 0.7153(2)
C43_2 C 0.7784(3) 0.6197(9) 0.7422(2)
C44_4 C 0.8096(3) 0.4955(11) 0.7339(2)
H29_4 H 0.803067 0.424373 0.711014
C45_4 C 0.8480(3) 0.4797(11) 0.7586(3)
H30_4 H 0.867439 0.396943 0.752834
C46_2 C 0.8591(3) 0.5881(13) 0.7933(3)
H31_2 H 0.885816 0.576624 0.810181
C47_2 C 0.8308(3) 0.7092(12) 0.8021(3)
H32_2 H 0.838466 0.779290 0.825078
C48_2 C 0.7104(2) 0.7694(10) 0.7232(2)
Cu7_2 Cu 0.69908(3) 0.13911(13) 0.56091(3)
C5_3 C 0.6166(2) 0.0129(10) 0.5901(2)
H4_3 H 0.616089 0.119530 0.601982
C53_3 C 0.8834(2) 0.0129(10) 0.4099(2)
H36_3 H 0.883911 0.119530 0.398018
W1_5 W 0.750000 0.12998(5) 0.500000
I1_3 I 0.66586(2) 0.32390(9) 0.37549(2)
Cu2_3 Cu 0.68035(3) 0.12937(14) 0.43898(3)
S2_3 S 0.69071(5) 0.2897(2) 0.49954(5)
C22_3 C 0.5895(2) 0.0013(10) 0.4330(2)
H14_3 H 0.584063 0.115292 0.436721
I2_3 I 0.83414(2) 0.32390(9) 0.62451(2)
Cu4_3 Cu 0.81965(3) 0.12937(14) 0.56102(3)
S4_3 S 0.80929(5) 0.2897(2) 0.50046(5)
C70_3 C 0.9105(2) 0.0013(10) 0.5670(2)
H46_3 H 0.915937 0.115292 0.563279
S1_3 S 0.25773(5) 0.0312(2) 0.55712(5)
N1_3 N 0.36975(19) 0.0477(8) 0.5678(2)
N2_2 N 0.64923(18) 0.9745(8) 0.57035(18)
C1_3 C 0.6496(3) 0.8203(11) 0.5544(3)
H1_3 H 0.672441 0.790435 0.540397
C2_3 C 0.6179(3) 0.7025(11) 0.5576(3)
H2_3 H 0.620240 0.594503 0.546876
C3_3 C 0.5827(2) 0.7449(9) 0.5768(2)
C4_3 C 0.5827(2) 0.9029(10) 0.5940(2)
H3_3 H 0.560366 0.936189 0.608296
C6_2 C 0.5176(2) 0.2558(10) 0.6405(2)
H5_3 H 0.494784 0.181482 0.641757
C7_2 C 0.5544(3) 0.2397(12) 0.6684(3)
H6_2 H 0.556275 0.157605 0.689107
C8_2 C 0.5899(3) 0.3485(12) 0.6658(3)
H7_2 H 0.615371 0.334591 0.684413
C9_2 C 0.5875(3) 0.4716(11) 0.6369(3)
H8_3 H 0.611132 0.542179 0.635962
C10_2 C 0.5489(2) 0.4948(9) 0.6077(2)
C11_2 C 0.5133(2) 0.3835(9) 0.6093(2)
C12_3 C 0.4748(2) 0.4046(9) 0.5807(2)
C13_2 C 0.4715(2) 0.5356(9) 0.5516(2)
C14_3 C 0.5075(2) 0.6474(9) 0.5499(2)
C15_3 C 0.5454(2) 0.6259(9) 0.5782(2)
C16_3 C 0.4675(2) 0.7898(10) 0.4903(2)
H9_3 H 0.466242 0.872514 0.469759
C17_3 C 0.5040(2) 0.7705(10) 0.5177(2)
H10_3 H 0.527660 0.839850 0.515580
C18_3 C 0.4314(2) 0.6862(11) 0.4923(3)
H11_3 H 0.406058 0.702185 0.473673
C19_2 C 0.4335(2) 0.5635(10) 0.5214(2)
H12_3 H 0.409488 0.494435 0.522002
C20_3 C 0.4385(2) 0.2790(10) 0.5789(2)
C21_3 C 0.4448(2) 0.1084(10) 0.5713(2)
H13_3 H 0.472437 0.068742 0.569220
C23_3 C 0.3636(2) 0.2084(11) 0.5757(3)
H15_3 H 0.335453 0.243941 0.577307
C24_3 C 0.3964(2) 0.3277(11) 0.5816(3)
H16_3 H 0.390177 0.439327 0.587315
S3_3 S 0.24227(5) 0.0312(2) 0.44288(5)
N5_3 N 0.13025(19) 0.0477(8) 0.4322(2)
H37_3 H 0.005216 0.181482 0.358243
C60_3 C 0.0252(2) 0.4046(9) 0.4193(2)
C61_3 C 0.0285(2) 0.5356(9) 0.4484(2)
C64_2 C 0.0325(2) 0.7898(10) 0.5097(2)
H41_2 H 0.033758 0.872514 0.530241
C66_2 C 0.0686(2) 0.6862(11) 0.5077(3)
H43_2 H 0.093942 0.702185 0.526327
C67_3 C 0.0665(2) 0.5635(10) 0.4786(2)
H44_3 H 0.090512 0.494435 0.477998
C68_3 C 0.0615(2) 0.2790(10) 0.4211(2)
C69_3 C 0.0552(2) 0.1084(10) 0.4287(2)
H45_3 H 0.027563 0.068742 0.430780
C71_3 C 0.1364(2) 0.2084(11) 0.4243(3)
H47_3 H 0.164547 0.243941 0.422693
C72_3 C 0.1036(2) 0.3277(11) 0.4184(3)
H48_3 H 0.109823 0.439327 0.412685
N7_2 N 0.35077(18) 0.0255(8) 0.42965(18)
N8_2 N 0.14923(18) 0.0255(8) 0.57035(18)
N6_2 N 0.85077(18) 0.9745(8) 0.42965(18)
C49_3 C 0.8504(3) 0.8203(11) 0.4456(3)
H33_3 H 0.827559 0.790435 0.459603
C50_3 C 0.8821(3) 0.7025(11) 0.4424(3)
H34_3 H 0.879760 0.594503 0.453124
C51_3 C 0.9173(2) 0.7449(9) 0.4232(2)
C52_3 C 0.9173(2) 0.9029(10) 0.4060(2)
H35_3 H 0.939634 0.936189 0.391704
C54_3 C 0.9824(2) 0.2558(10) 0.3595(2)
C55_3 C 0.9456(3) 0.2397(12) 0.3316(3)
H38_3 H 0.943725 0.157605 0.310893
C56_3 C 0.9101(3) 0.3485(12) 0.3342(3)
H39_3 H 0.884629 0.334591 0.315587
C57_3 C 0.9125(3) 0.4716(11) 0.3631(3)
H40_3 H 0.888868 0.542179 0.364038
C58_3 C 0.9511(2) 0.4948(9) 0.3923(2)
C59_3 C 0.9867(2) 0.3835(9) 0.3907(2)
C62_3 C 0.9925(2) 0.6474(9) 0.4501(2)
C63_3 C 0.9546(2) 0.6259(9) 0.4218(2)
C65_3 C 0.9960(2) 0.7705(10) 0.4823(2)
H42_3 H 0.972340 0.839850 0.484420
C49_4 C 0.1496(3) 0.1797(11) 0.5544(3)
H33_4 H 0.172441 0.209565 0.540397
C50_4 C 0.1179(3) 0.2975(11) 0.5576(3)
H34_4 H 0.120240 0.405497 0.546876
C51_4 C 0.0827(2) 0.2551(9) 0.5768(2)
C52_4 C 0.0827(2) 0.0971(10) 0.5940(2)
H35_4 H 0.060366 0.063811 0.608296
C54_4 C 0.0176(2) 0.7442(10) 0.6405(2)
C55_4 C 0.0544(3) 0.7603(12) 0.6684(3)
H38_4 H 0.056275 0.842395 0.689107
C56_4 C 0.0899(3) 0.6515(12) 0.6658(3)
H39_4 H 0.115371 0.665409 0.684413
C57_4 C 0.0875(3) 0.5284(11) 0.6369(3)
H40_4 H 0.111132 0.457821 0.635962
C58_4 C 0.0489(2) 0.5052(9) 0.6077(2)
C59_4 C 0.0133(2) 0.6165(9) 0.6093(2)
C62_4 C 0.0075(2) 0.3526(9) 0.5499(2)
C63_4 C 0.0454(2) 0.3741(9) 0.5782(2)
C65_4 C 0.0040(2) 0.2295(10) 0.5177(2)
H42_4 H 0.027660 0.160150 0.515580
S1_4 S 0.74227(5) 0.9688(2) 0.44288(5)
N1_4 N 0.63025(19) 0.9523(8) 0.4322(2)
C1_4 C 0.3504(3) 0.1797(11) 0.4456(3)
H1_4 H 0.327559 0.209565 0.459603
C2_4 C 0.3821(3) 0.2975(11) 0.4424(3)
H2_4 H 0.379760 0.405497 0.453124
C3_4 C 0.4173(2) 0.2551(9) 0.4232(2)
C4_4 C 0.4173(2) 0.0971(10) 0.4060(2)
H3_4 H 0.439634 0.063811 0.391704
C6_3 C 0.4824(2) 0.7442(10) 0.3595(2)
H5_4 H 0.505216 0.818518 0.358243
C7_3 C 0.4456(3) 0.7603(12) 0.3316(3)
H6_3 H 0.443725 0.842395 0.310893
C8_3 C 0.4101(3) 0.6515(12) 0.3342(3)
H7_3 H 0.384629 0.665409 0.315587
C9_3 C 0.4125(3) 0.5284(11) 0.3631(3)
H8_4 H 0.388868 0.457821 0.364038
C10_3 C 0.4511(2) 0.5052(9) 0.3923(2)
C11_3 C 0.4867(2) 0.6165(9) 0.3907(2)
C12_4 C 0.5252(2) 0.5954(9) 0.4193(2)
C13_3 C 0.5285(2) 0.4644(9) 0.4484(2)
C14_4 C 0.4925(2) 0.3526(9) 0.4501(2)
C15_4 C 0.4546(2) 0.3741(9) 0.4218(2)
C16_4 C 0.5325(2) 0.2102(10) 0.5097(2)
H9_4 H 0.533758 0.127486 0.530241
C17_4 C 0.4960(2) 0.2295(10) 0.4823(2)
H10_4 H 0.472340 0.160150 0.484420
C18_4 C 0.5686(2) 0.3138(11) 0.5077(3)
H11_4 H 0.593942 0.297815 0.526327
C19_3 C 0.5665(2) 0.4365(10) 0.4786(2)
H12_4 H 0.590512 0.505565 0.477998
C20_4 C 0.5615(2) 0.7210(10) 0.4211(2)
C21_4 C 0.5552(2) 0.8916(10) 0.4287(2)
H13_4 H 0.527563 0.931258 0.430780
C23_4 C 0.6364(2) 0.7916(11) 0.4243(3)
H15_4 H 0.664547 0.756059 0.422693
C24_4 C 0.6036(2) 0.6723(11) 0.4184(3)
H16_4 H 0.609823 0.560673 0.412685
S3_4 S 0.75773(5) 0.9688(2) 0.55712(5)
N5_4 N 0.86975(19) 0.9523(8) 0.5678(2)
H37_4 H 0.994784 0.818518 0.641757
C60_4 C 0.9748(2) 0.5954(9) 0.5807(2)
C61_4 C 0.9715(2) 0.4644(9) 0.5516(2)
C64_3 C 0.9675(2) 0.2102(10) 0.4903(2)
H41_3 H 0.966242 0.127486 0.469759
C66_3 C 0.9314(2) 0.3138(11) 0.4923(3)
H43_3 H 0.906058 0.297815 0.473673
C67_4 C 0.9335(2) 0.4365(10) 0.5214(2)
H44_4 H 0.909488 0.505565 0.522002
C68_4 C 0.9385(2) 0.7210(10) 0.5789(2)
C69_4 C 0.9448(2) 0.8916(10) 0.5713(2)
H45_4 H 0.972437 0.931258 0.569220
C71_4 C 0.8636(2) 0.7916(11) 0.5757(3)
H47_4 H 0.835453 0.756059 0.577307
C72_4 C 0.8964(2) 0.6723(11) 0.5816(3)
H48_4 H 0.890177 0.560673 0.587315
W1_6 W 0.250000 0.87002(5) 0.500000
I1_4 I 0.33414(2) 0.67610(9) 0.62451(2)
Cu1_2 Cu 0.19908(3) 0.86089(13) 0.56091(3)
Cu2_4 Cu 0.31965(3) 0.87063(14) 0.56102(3)
S2_4 S 0.30929(5) 0.7103(2) 0.50046(5)
N3_2 N 0.20656(18) 0.6953(8) 0.61122(17)
C22_4 C 0.4105(2) 0.9987(10) 0.5670(2)
H14_4 H 0.415937 0.884708 0.563279
C25_3 C 0.2070(3) 0.7481(11) 0.6503(2)
H17_3 H 0.200074 0.860139 0.654803
C26_3 C 0.2165(3) 0.5354(11) 0.6061(2)
H18_3 H 0.216571 0.495976 0.579105
C27_3 C 0.2266(3) 0.4245(11) 0.6386(2)
H19_3 H 0.233284 0.313064 0.633075
C28_3 C 0.2271(2) 0.4764(10) 0.6791(2)
C29_3 C 0.2172(3) 0.6438(11) 0.6845(2)
H20_3 H 0.217402 0.686709 0.711249
C30_3 C 0.2392(3) 0.3600(10) 0.7153(2)
C31_3 C 0.2784(3) 0.3803(9) 0.7422(2)
C32_3 C 0.3096(3) 0.5045(11) 0.7339(2)
H21_3 H 0.303067 0.575627 0.711014
C33_3 C 0.3480(3) 0.5203(11) 0.7586(3)
H22_3 H 0.367439 0.603057 0.752834
C34_3 C 0.3591(3) 0.4119(13) 0.7933(3)
H23_3 H 0.385816 0.423376 0.810181
C35_3 C 0.3308(3) 0.2908(12) 0.8021(3)
H24_3 H 0.338466 0.220710 0.825078
C36_3 C 0.2104(2) 0.2306(10) 0.7232(2)
H26_3 H 0.283429 0.004024 0.920895
C39_3 C 0.2734(3) 0.0755(11) 0.8614(2)
H27_3 H 0.266716 0.186936 0.866925
C40_3 C 0.2729(2) 0.0236(10) 0.8209(2)
C42_3 C 0.2608(3) 0.1400(10) 0.7847(2)
C43_3 C 0.2216(3) 0.1197(9) 0.7578(2)
C46_3 C 0.1409(3) 0.0881(13) 0.7067(3)
H31_3 H 0.114184 0.076624 0.689819
C47_3 C 0.1692(3) 0.2092(12) 0.6979(3)
H32_3 H 0.161534 0.279290 0.674922
C48_3 C 0.2896(2) 0.2694(10) 0.7768(2)
I2_4 I 0.16586(2) 0.67610(9) 0.37549(2)
Cu3_2 Cu 0.30092(3) 0.86089(13) 0.43909(3)
Cu4_4 Cu 0.18035(3) 0.87063(14) 0.43898(3)
S4_4 S 0.19071(5) 0.7103(2) 0.49954(5)
C70_4 C 0.0895(2) 0.9987(10) 0.4330(2)
H46_4 H 0.084063 0.884708 0.436721
N9_2 N 0.29344(18) 0.6953(8) 0.38878(17)
C25_4 C 0.2930(3) 0.7481(11) 0.3497(2)
H17_4 H 0.299926 0.860139 0.345197
C26_4 C 0.2835(3) 0.5354(11) 0.3939(2)
H18_4 H 0.283429 0.495976 0.420895
C27_4 C 0.2734(3) 0.4245(11) 0.3614(2)
H19_4 H 0.266716 0.313064 0.366925
C28_4 C 0.2729(2) 0.4764(10) 0.3209(2)
C29_4 C 0.2828(3) 0.6438(11) 0.3155(2)
H20_4 H 0.282598 0.686709 0.288751
C30_4 C 0.2608(3) 0.3600(10) 0.2847(2)
C31_4 C 0.2216(3) 0.3803(9) 0.2578(2)
C32_4 C 0.1904(3) 0.5045(11) 0.2661(2)
H21_4 H 0.196933 0.575627 0.288986
C33_4 C 0.1520(3) 0.5203(11) 0.2414(3)
H22_4 H 0.132561 0.603057 0.247166
C34_4 C 0.1409(3) 0.4119(13) 0.2067(3)
H23_4 H 0.114184 0.423376 0.189819
C35_4 C 0.1692(3) 0.2908(12) 0.1979(3)
H24_4 H 0.161534 0.220710 0.174922
C36_4 C 0.2896(2) 0.2306(10) 0.2768(2)
H26_4 H 0.216571 0.004024 0.079105
C39_4 C 0.2266(3) 0.0755(11) 0.1386(2)
H27_4 H 0.233284 0.186936 0.133075
C40_4 C 0.2271(2) 0.0236(10) 0.1791(2)
C42_4 C 0.2392(3) 0.1400(10) 0.2153(2)
C43_4 C 0.2784(3) 0.1197(9) 0.2422(2)
C46_4 C 0.3591(3) 0.0881(13) 0.2933(3)
H31_4 H 0.385816 0.076624 0.310181
C47_4 C 0.3308(3) 0.2092(12) 0.3021(3)
H32_4 H 0.338466 0.279290 0.325078
C48_4 C 0.2104(2) 0.2694(10) 0.2232(2)
C53_4 C 0.1166(2) 0.9871(10) 0.5901(2)
H36_4 H 0.116089 0.880470 0.601982
C5_4 C 0.3834(2) 0.9871(10) 0.4099(2)
H4_4 H 0.383911 0.880470 0.398018
C13_4 C 0.0285(2) 0.9644(9) 0.9484(2)
C19_4 C 0.0665(2) 0.9365(10) 0.9786(2)
C64_4 C 0.4675(2) 0.7102(10) 0.9903(2)
H41_4 H 0.466242 0.627486 0.969759
C66_4 C 0.4314(2) 0.8138(11) 0.9923(3)
H43_4 H 0.406058 0.797815 0.973673
C6_4 C 0.9824(2) 0.2442(10) 0.8595(2)
C7_4 C 0.9456(3) 0.2603(12) 0.8316(3)
H6_4 H 0.943725 0.342395 0.810893
C8_4 C 0.9101(3) 0.1515(12) 0.8342(3)
H7_4 H 0.884629 0.165409 0.815587
C9_4 C 0.9125(3) 0.0284(11) 0.8631(3)
C10_4 C 0.9511(2) 0.0052(9) 0.8923(2)
C11_4 C 0.9867(2) 0.1165(9) 0.8907(2)
loop_
_geom_bond_atom_site_label_1
_geom_bond_atom_site_label_2
_geom_bond_site_symmetry_1
_geom_bond_site_symmetry_2
N2 C1 1_555 1_555
C1 H1 1_555 1_555
C2 C1 1_555 1_555
H2 C2 1_555 1_555
C3 C2 1_555 1_555
C4 C3 1_555 1_555
H3 C4 1_555 1_555
C5 N2 1_555 1_555
H4 C5 1_555 1_555
C15 C3 1_555 1_555
C17 C14 1_555 1_555
H10 C17 1_555 1_555
Cu6 N2 1_555 1_555
C4 C5 1_555 1_555
C14 C15 1_555 1_555
N4 C37 1_555 1_555
C37 H25 1_555 1_555
C38 N4 1_555 1_555
C41 C37 1_555 1_555
H28 C41 1_555 1_555
H29 C44 1_555 1_555
C45 C44 1_555 1_555
H30 C45 1_555 1_555
Cu6 N4 1_555 1_555
I2 Cu4 1_555 1_555
Cu4 S3 1_555 1_555
S3 W1 1_555 1_555
S4 W1 1_555 1_555
N5 Cu4 1_555 1_555
C54 H37 1_555 1_555
C55 C54 1_555 1_555
H38 C55 1_555 1_555
C56 C55 1_555 1_555
H39 C56 1_555 1_555
C57 C56 1_555 1_555
C58 C57 1_555 1_555
C59 C54 1_555 1_555
C60 C59 1_555 1_555
C68 C60 1_555 1_555
C69 C68 1_555 1_555
H45 C69 1_555 1_555
C70 N5 1_555 1_555
H46 C70 1_555 1_555
C71 N5 1_555 1_555
H47 C71 1_555 1_555
C72 C68 1_555 1_555
H48 C72 1_555 1_555
Cu6 S3 1_555 1_555
Cu4 S4 1_555 1_555
C58 C59 1_555 1_555
C69 C70 1_555 1_555
C71 C72 1_555 1_555
C7 C6 1_555 1_555
H6 C7 1_555 1_555
C8 C7 1_555 1_555
H7 C8 1_555 1_555
C9 C8 1_555 1_555
C10 C9 1_555 1_555
C11 C6 1_555 1_555
C10 C11 1_555 1_555
C19 C13 1_555 1_555
C64 H41 1_555 1_555
C66 C64 1_555 1_555
H43 C66 1_555 1_555
C16 H9 1_555 1_555
C18 C16 1_555 1_555
H11 C18 1_555 1_555
N6 C49 1_555 1_555
C49 H33 1_555 1_555
C50 C49 1_555 1_555
H34 C50 1_555 1_555
C51 C50 1_555 1_555
C52 C51 1_555 1_555
H35 C52 1_555 1_555
C53 N6 1_555 1_555
H36 C53 1_555 1_555
C62 C61 1_555 1_555
C63 C51 1_555 1_555
C65 C62 1_555 1_555
H42 C65 1_555 1_555
C67 C61 1_555 1_555
Cu5 N6 1_555 1_555
C52 C53 1_555 1_555
C62 C63 1_555 1_555
N4_2 C37_2 1_555 1_555
C37_2 H25_2 1_555 1_555
C38_2 N4_2 1_555 1_555
C41_2 C37_2 1_555 1_555
H28_2 C41_2 1_555 1_555
H29_2 C44_2 1_555 1_555
C45_2 C44_2 1_555 1_555
H30_2 C45_2 1_555 1_555
Cu5 N4_2 1_555 1_555
W1_2 S1 1_555 1_555
I1 Cu2 1_555 1_555
Cu5 S1 1_555 1_555
Cu2 S1 1_555 1_555
S2 W1_2 1_555 1_555
N1 Cu2 1_555 1_555
C20 C12 1_555 1_555
C21 C20 1_555 1_555
H13 C21 1_555 1_555
C22 N1 1_555 1_555
H14 C22 1_555 1_555
C23 N1 1_555 1_555
H15 C23 1_555 1_555
C24 C20 1_555 1_555
H16 C24 1_555 1_555
Cu2 S2 1_555 1_555
C21 C22 1_555 1_555
C23 C24 1_555 1_555
W1_3 S1_2 1_555 1_555
I1_2 Cu2_2 1_555 1_555
Cu1 S1_2 1_555 1_555
Cu2_2 S1_2 1_555 1_555
S2_2 W1_3 1_555 1_555
N1_2 Cu2_2 1_555 1_555
N3 Cu1 1_555 1_555
C20_2 C12_2 1_555 1_555
C21_2 C20_2 1_555 1_555
H13_2 C21_2 1_555 1_555
C22_2 N1_2 1_555 1_555
H14_2 C22_2 1_555 1_555
C23_2 N1_2 1_555 1_555
H15_2 C23_2 1_555 1_555
C24_2 C20_2 1_555 1_555
H16_2 C24_2 1_555 1_555
C25 N3 1_555 1_555
H17 C25 1_555 1_555
C26 N3 1_555 1_555
C29 C25 1_555 1_555
H20 C29 1_555 1_555
H21 C32 1_555 1_555
C33 C32 1_555 1_555
H22 C33 1_555 1_555
N8 Cu1 1_555 1_555
Cu2_2 S2_2 1_555 1_555
C21_2 C22_2 1_555 1_555
C23_2 C24_2 1_555 1_555
C16_2 H9_2 1_555 1_555
C18_2 C16_2 1_555 1_555
H11_2 C18_2 1_555 1_555
N8 C49_2 1_555 1_555
C49_2 H33_2 1_555 1_555
C50_2 C49_2 1_555 1_555
H34_2 C50_2 1_555 1_555
C51_2 C50_2 1_555 1_555
C52_2 C51_2 1_555 1_555
H35_2 C52_2 1_555 1_555
C53_2 N8 1_555 1_555
H36_2 C53_2 1_555 1_555
C62_2 C61_2 1_555 1_555
C63_2 C51_2 1_555 1_555
C65_2 C62_2 1_555 1_555
H42_2 C65_2 1_555 1_555
C67_2 C61_2 1_555 1_555
C52_2 C53_2 1_555 1_555
C62_2 C63_2 1_555 1_555
I2_2 Cu4_2 1_555 1_555
Cu4_2 S3_2 1_555 1_555
S3_2 W1_4 1_555 1_555
S4_2 W1_4 1_555 1_555
N5_2 Cu4_2 1_555 1_555
C54_2 H37_2 1_555 1_555
C55_2 C54_2 1_555 1_555
H38_2 C55_2 1_555 1_555
C56_2 C55_2 1_555 1_555
H39_2 C56_2 1_555 1_555
C57_2 C56_2 1_555 1_555
C58_2 C57_2 1_555 1_555
C59_2 C54_2 1_555 1_555
C60_2 C59_2 1_555 1_555
C68_2 C60_2 1_555 1_555
C69_2 C68_2 1_555 1_555
H45_2 C69_2 1_555 1_555
C70_2 N5_2 1_555 1_555
H46_2 C70_2 1_555 1_555
C71_2 N5_2 1_555 1_555
H47_2 C71_2 1_555 1_555
C72_2 C68_2 1_555 1_555
H48_2 C72_2 1_555 1_555
N7 Cu3 1_555 1_555
N9 Cu3 1_555 1_555
Cu3 S3_2 1_555 1_555
Cu4_2 S4_2 1_555 1_555
C58_2 C59_2 1_555 1_555
C69_2 C70_2 1_555 1_555
C71_2 C72_2 1_555 1_555
C25_2 N9 1_555 1_555
H17_2 C25_2 1_555 1_555
C26_2 N9 1_555 1_555
C29_2 C25_2 1_555 1_555
H20_2 C29_2 1_555 1_555
H21_2 C32_2 1_555 1_555
C33_2 C32_2 1_555 1_555
H22_2 C33_2 1_555 1_555
N7 C1_2 1_555 1_555
C1_2 H1_2 1_555 1_555
C2_2 C1_2 1_555 1_555
H2_2 C2_2 1_555 1_555
C3_2 C2_2 1_555 1_555
C4_2 C3_2 1_555 1_555
H3_2 C4_2 1_555 1_555
C5_2 N7 1_555 1_555
H4_2 C5_2 1_555 1_555
C15_2 C3_2 1_555 1_555
C17_2 C14_2 1_555 1_555
H10_2 C17_2 1_555 1_555
C4_2 C5_2 1_555 1_555
C14_2 C15_2 1_555 1_555
H19 C27 1_555 1_555
C28 C27 1_555 1_555
C30 C28 1_555 1_555
C31 C30 1_555 1_555
H23 C34 1_555 1_555
C35 C34 1_555 1_555
H24 C35 1_555 1_555
C36 C30 1_555 1_555
N4_3 C37_3 1_555 1_555
C37_3 H25_3 1_555 1_555
C38_3 N4_3 1_555 1_555
H26 C38_3 1_555 1_555
C39 C38_3 1_555 1_555
H27 C39 1_555 1_555
C40 C39 1_555 1_555
C41_3 C37_3 1_555 1_555
H28_3 C41_3 1_555 1_555
C42 C40 1_555 1_555
C43 C36 1_555 1_555
C44_3 C43 1_555 1_555
H29_3 C44_3 1_555 1_555
C45_3 C44_3 1_555 1_555
H30_3 C45_3 1_555 1_555
C46 C45_3 1_555 1_555
H31 C46 1_555 1_555
C47 C36 1_555 1_555
H32 C47 1_555 1_555
C48 C31 1_555 1_555
Cu7 N4_3 1_555 1_555
C35 C48 1_555 1_555
C40 C41_3 1_555 1_555
C42 C43 1_555 1_555
C42 C48 1_555 1_555
C46 C47 1_555 1_555
H19_2 C27_2 1_555 1_555
C28_2 C27_2 1_555 1_555
C30_2 C28_2 1_555 1_555
C31_2 C30_2 1_555 1_555
H23_2 C34_2 1_555 1_555
C35_2 C34_2 1_555 1_555
H24_2 C35_2 1_555 1_555
C36_2 C30_2 1_555 1_555
N4_4 C37_4 1_555 1_555
C37_4 H25_4 1_555 1_555
C38_4 N4_4 1_555 1_555
H26_2 C38_4 1_555 1_555
C39_2 C38_4 1_555 1_555
H27_2 C39_2 1_555 1_555
C40_2 C39_2 1_555 1_555
C41_4 C37_4 1_555 1_555
H28_4 C41_4 1_555 1_555
C42_2 C40_2 1_555 1_555
C43_2 C36_2 1_555 1_555
C44_4 C43_2 1_555 1_555
H29_4 C44_4 1_555 1_555
C45_4 C44_4 1_555 1_555
H30_4 C45_4 1_555 1_555
C46_2 C45_4 1_555 1_555
H31_2 C46_2 1_555 1_555
C47_2 C36_2 1_555 1_555
H32_2 C47_2 1_555 1_555
C48_2 C31_2 1_555 1_555
Cu7_2 N4_4 1_555 1_555
C35_2 C48_2 1_555 1_555
C40_2 C41_4 1_555 1_555
C42_2 C43_2 1_555 1_555
C42_2 C48_2 1_555 1_555
C46_2 C47_2 1_555 1_555
H4_3 C5_3 1_555 1_555
H36_3 C53_3 1_555 1_555
I1_3 Cu2_3 1_555 1_555
S2_3 W1_5 1_555 1_555
H14_3 C22_3 1_555 1_555
I2_3 Cu4_3 1_555 1_555
Cu7_2 S2_3 1_555 1_555
S4_3 W1_5 1_555 1_555
H46_3 C70_3 1_555 1_555
Cu7 S4_3 1_555 1_555
Cu2_3 S2_3 1_555 1_555
Cu4_3 S4_3 1_555 1_555
N2_2 C1_3 1_555 1_555
C1_3 H1_3 1_555 1_555
C2_3 C1_3 1_555 1_555
H2_3 C2_3 1_555 1_555
C3_3 C2_3 1_555 1_555
C4_3 C3_3 1_555 1_555
H3_3 C4_3 1_555 1_555
C6_2 H5_3 1_555 1_555
C7_2 C6_2 1_555 1_555
H6_2 C7_2 1_555 1_555
C8_2 C7_2 1_555 1_555
H7_2 C8_2 1_555 1_555
C9_2 C8_2 1_555 1_555
H8_3 C9_2 1_555 1_555
C10_2 C9_2 1_555 1_555
C11_2 C6_2 1_555 1_555
C12_3 C11_2 1_555 1_555
C13_2 C12_3 1_555 1_555
C14_3 C13_2 1_555 1_555
C15_3 C3_3 1_555 1_555
C16_3 H9_3 1_555 1_555
C17_3 C14_3 1_555 1_555
H10_3 C17_3 1_555 1_555
C18_3 C16_3 1_555 1_555
H11_3 C18_3 1_555 1_555
C19_2 C13_2 1_555 1_555
H12_3 C19_2 1_555 1_555
C20_3 C12_3 1_555 1_555
C21_3 C20_3 1_555 1_555
H13_3 C21_3 1_555 1_555
C23_3 N1_3 1_555 1_555
H15_3 C23_3 1_555 1_555
C24_3 C20_3 1_555 1_555
H16_3 C24_3 1_555 1_555
C61_3 C60_3 1_555 1_555
C64_2 H41_2 1_555 1_555
C66_2 C64_2 1_555 1_555
H43_2 C66_2 1_555 1_555
C67_3 C61_3 1_555 1_555
H44_3 C67_3 1_555 1_555
C68_3 C60_3 1_555 1_555
C69_3 C68_3 1_555 1_555
H45_3 C69_3 1_555 1_555
C71_3 N5_3 1_555 1_555
H47_3 C71_3 1_555 1_555
C72_3 C68_3 1_555 1_555
H48_3 C72_3 1_555 1_555
C10_2 C11_2 1_555 1_555
C10_2 C15_3 1_555 1_555
C14_3 C15_3 1_555 1_555
C16_3 C17_3 1_555 1_555
C18_3 C19_2 1_555 1_555
C23_3 C24_3 1_555 1_555
C66_2 C67_3 1_555 1_555
C71_3 C72_3 1_555 1_555
N6_2 C49_3 1_555 1_555
C49_3 H33_3 1_555 1_555
C50_3 C49_3 1_555 1_555
H34_3 C50_3 1_555 1_555
C51_3 C50_3 1_555 1_555
C52_3 C51_3 1_555 1_555
H35_3 C52_3 1_555 1_555
C55_3 C54_3 1_555 1_555
H38_3 C55_3 1_555 1_555
C56_3 C55_3 1_555 1_555
H39_3 C56_3 1_555 1_555
C57_3 C56_3 1_555 1_555
H40_3 C57_3 1_555 1_555
C58_3 C57_3 1_555 1_555
C59_3 C54_3 1_555 1_555
C63_3 C51_3 1_555 1_555
C65_3 C62_3 1_555 1_555
H42_3 C65_3 1_555 1_555
C58_3 C59_3 1_555 1_555
C58_3 C63_3 1_555 1_555
C62_3 C63_3 1_555 1_555
N8_2 C49_4 1_555 1_555
C49_4 H33_4 1_555 1_555
C50_4 C49_4 1_555 1_555
H34_4 C50_4 1_555 1_555
C51_4 C50_4 1_555 1_555
C52_4 C51_4 1_555 1_555
H35_4 C52_4 1_555 1_555
C55_4 C54_4 1_555 1_555
H38_4 C55_4 1_555 1_555
C56_4 C55_4 1_555 1_555
H39_4 C56_4 1_555 1_555
C57_4 C56_4 1_555 1_555
H40_4 C57_4 1_555 1_555
C58_4 C57_4 1_555 1_555
C59_4 C54_4 1_555 1_555
C63_4 C51_4 1_555 1_555
C65_4 C62_4 1_555 1_555
H42_4 C65_4 1_555 1_555
C58_4 C59_4 1_555 1_555
C58_4 C63_4 1_555 1_555
C62_4 C63_4 1_555 1_555
N7_2 C1_4 1_555 1_555
C1_4 H1_4 1_555 1_555
C2_4 C1_4 1_555 1_555
H2_4 C2_4 1_555 1_555
C3_4 C2_4 1_555 1_555
C4_4 C3_4 1_555 1_555
H3_4 C4_4 1_555 1_555
C6_3 H5_4 1_555 1_555
C7_3 C6_3 1_555 1_555
H6_3 C7_3 1_555 1_555
C8_3 C7_3 1_555 1_555
H7_3 C8_3 1_555 1_555
C9_3 C8_3 1_555 1_555
H8_4 C9_3 1_555 1_555
C10_3 C9_3 1_555 1_555
C11_3 C6_3 1_555 1_555
C12_4 C11_3 1_555 1_555
C13_3 C12_4 1_555 1_555
C14_4 C13_3 1_555 1_555
C15_4 C3_4 1_555 1_555
C16_4 H9_4 1_555 1_555
C17_4 C14_4 1_555 1_555
H10_4 C17_4 1_555 1_555
C18_4 C16_4 1_555 1_555
H11_4 C18_4 1_555 1_555
C19_3 C13_3 1_555 1_555
H12_4 C19_3 1_555 1_555
C20_4 C12_4 1_555 1_555
C21_4 C20_4 1_555 1_555
H13_4 C21_4 1_555 1_555
C23_4 N1_4 1_555 1_555
H15_4 C23_4 1_555 1_555
C24_4 C20_4 1_555 1_555
H16_4 C24_4 1_555 1_555
C61_4 C60_4 1_555 1_555
C64_3 H41_3 1_555 1_555
C66_3 C64_3 1_555 1_555
H43_3 C66_3 1_555 1_555
C67_4 C61_4 1_555 1_555
H44_4 C67_4 1_555 1_555
C68_4 C60_4 1_555 1_555
C69_4 C68_4 1_555 1_555
H45_4 C69_4 1_555 1_555
C71_4 N5_4 1_555 1_555
H47_4 C71_4 1_555 1_555
C72_4 C68_4 1_555 1_555
H48_4 C72_4 1_555 1_555
C10_3 C11_3 1_555 1_555
C10_3 C15_4 1_555 1_555
C14_4 C15_4 1_555 1_555
C16_4 C17_4 1_555 1_555
C18_4 C19_3 1_555 1_555
C23_4 C24_4 1_555 1_555
C66_3 C67_4 1_555 1_555
C71_4 C72_4 1_555 1_555
I1_4 Cu2_4 1_555 1_555
S2_4 W1_6 1_555 1_555
N3_2 Cu1_2 1_555 1_555
H14_4 C22_4 1_555 1_555
C25_3 N3_2 1_555 1_555
H17_3 C25_3 1_555 1_555
C26_3 N3_2 1_555 1_555
H18_3 C26_3 1_555 1_555
C27_3 C26_3 1_555 1_555
H19_3 C27_3 1_555 1_555
C28_3 C27_3 1_555 1_555
C29_3 C25_3 1_555 1_555
H20_3 C29_3 1_555 1_555
C30_3 C28_3 1_555 1_555
C31_3 C30_3 1_555 1_555
C32_3 C31_3 1_555 1_555
H21_3 C32_3 1_555 1_555
C33_3 C32_3 1_555 1_555
H22_3 C33_3 1_555 1_555
C34_3 C33_3 1_555 1_555
H23_3 C34_3 1_555 1_555
C35_3 C34_3 1_555 1_555
H24_3 C35_3 1_555 1_555
C36_3 C30_3 1_555 1_555
H27_3 C39_3 1_555 1_555
C40_3 C39_3 1_555 1_555
C42_3 C40_3 1_555 1_555
C43_3 C36_3 1_555 1_555
H31_3 C46_3 1_555 1_555
C47_3 C36_3 1_555 1_555
H32_3 C47_3 1_555 1_555
C48_3 C31_3 1_555 1_555
I2_4 Cu4_4 1_555 1_555
Cu3_2 S2_4 1_555 1_555
S4_4 W1_6 1_555 1_555
H46_4 C70_4 1_555 1_555
N9_2 Cu3_2 1_555 1_555
Cu1_2 S4_4 1_555 1_555
Cu2_4 S2_4 1_555 1_555
C28_3 C29_3 1_555 1_555
C35_3 C48_3 1_555 1_555
C42_3 C43_3 1_555 1_555
C42_3 C48_3 1_555 1_555
C46_3 C47_3 1_555 1_555
Cu4_4 S4_4 1_555 1_555
C25_4 N9_2 1_555 1_555
H17_4 C25_4 1_555 1_555
C26_4 N9_2 1_555 1_555
H18_4 C26_4 1_555 1_555
C27_4 C26_4 1_555 1_555
H19_4 C27_4 1_555 1_555
C28_4 C27_4 1_555 1_555
C29_4 C25_4 1_555 1_555
H20_4 C29_4 1_555 1_555
C30_4 C28_4 1_555 1_555
C31_4 C30_4 1_555 1_555
C32_4 C31_4 1_555 1_555
H21_4 C32_4 1_555 1_555
C33_4 C32_4 1_555 1_555
H22_4 C33_4 1_555 1_555
C34_4 C33_4 1_555 1_555
H23_4 C34_4 1_555 1_555
C35_4 C34_4 1_555 1_555
H24_4 C35_4 1_555 1_555
C36_4 C30_4 1_555 1_555
H27_4 C39_4 1_555 1_555
C40_4 C39_4 1_555 1_555
C42_4 C40_4 1_555 1_555
C43_4 C36_4 1_555 1_555
H31_4 C46_4 1_555 1_555
C47_4 C36_4 1_555 1_555
H32_4 C47_4 1_555 1_555
C48_4 C31_4 1_555 1_555
C28_4 C29_4 1_555 1_555
C35_4 C48_4 1_555 1_555
C42_4 C43_4 1_555 1_555
C42_4 C48_4 1_555 1_555
C46_4 C47_4 1_555 1_555
H36_4 C53_4 1_555 1_555
H4_4 C5_4 1_555 1_555
C19_4 C13_4 1_555 1_555
C64_4 H41_4 1_555 1_555
C66_4 C64_4 1_555 1_555
H43_4 C66_4 1_555 1_555
C7_4 C6_4 1_555 1_555
H6_4 C7_4 1_555 1_555
C8_4 C7_4 1_555 1_555
H7_4 C8_4 1_555 1_555
C9_4 C8_4 1_555 1_555
C10_4 C9_4 1_555 1_555
C11_4 C6_4 1_555 1_555
C10_4 C11_4 1_555 1_555

#END
