
###############################################################################
#
# This file contains modified crystal structure data generated from the
# MOF subset of the Cambridge Structural Database (CSD) v543 
# hosted by the Cambridge Crystallographic Data Centre (CCDC).
#
# This work is licensed under the Creative Commons
# Attribution-NonCommercial-ShareAlike 4.0 International License.
# To view a copy of this license, visit
# http://creativecommons.org/licenses/by-nc-sa/4.0/
# or send a letter to
# Creative Commons, PO Box 1866, Mountain View, CA 94042, USA.
#
# CIF created using the CSD Python API on 29 September 2022
# The structure has been converted into the P1 space group
# The structure has a 3D framework
# The original CSD entry APAYIB is in the monoclinic crystal system
# The framework has been calculated to contain at least 10.0% void space
# The void calculation uses a probe of radius 1.32A, grid spacing 0.4
#
###############################################################################

data_APAYIB
_chemical_formula_moiety         '(C168 H120 Eu8 O64)n'
_symmetry_cell_setting           triclinic
_symmetry_space_group_name_H-M   'P 1'
_symmetry_Int_Tables_number      1
_space_group_name_Hall           'P 1'
loop_
_symmetry_equiv_pos_site_id
_symmetry_equiv_pos_as_xyz
1 x,y,z
_cell_length_a                   33.02(5)
_cell_length_b                   13.317(19)
_cell_length_c                   14.22(2)
_cell_angle_alpha                90
_cell_angle_beta                 101.739(15)
_cell_angle_gamma                90
_cell_volume                     6122.14
loop_
_atom_site_label
_atom_site_type_symbol
_atom_site_fract_x
_atom_site_fract_y
_atom_site_fract_z
C1 C 0.1168(3) 0.7505(10) 0.5039(7)
C2 C 0.0781(3) 0.7739(8) 0.5405(8)
C3 C 0.0697(3) 0.8712(9) 0.5654(7)
H1 H 0.0882 0.9228 0.5608
C4 C 0.0336(3) 0.8910(9) 0.5974(7)
H2 H 0.0293 0.9559 0.6175
C5 C 0.0043(3) 0.8219(8) 0.6010(7)
C6 C 0.0128(4) 0.7297(10) 0.5786(10)
C7 C 0.0495(4) 0.6988(10) 0.5488(10)
H4 H 0.0542 0.6319 0.5355
Eu1 Eu 0.19208(2) 0.70332(4) 0.45242(3)
O1 O 0.1605(2) 0.5566(7) 0.3620(6)
H12 H 0.1785 0.5265 0.3371
H13 H 0.1359 0.5368 0.3595
O2 O 0.1572(3) 0.7725(7) 0.3004(5)
H14 H 0.1732 0.7702 0.2607
H15 H 0.1319 0.7891 0.2926
O3 O 0.1376(2) 0.8211(6) 0.4812(5)
O4 O 0.1274(2) 0.6595(6) 0.5036(5)
O9 O 0.2056(2) 0.7544(6) 0.6156(4)
O10 O 0.23498(18) 0.6610(5) 0.3436(4)
O11 O 0.21548(18) 0.5538(5) 0.5496(4)
O12 O 0.26868(17) 0.6495(5) 0.5422(4)
O13 O 0.23132(17) 0.8505(5) 0.4578(4)
H6 H 0.9004 0.0307 0.6291
H9 H 0.8311 0.0253 0.5857
C20 C 0.7530(2) 0.0709(7) 0.5715(6)
O7 O 0.71548(18) 0.0538(5) 0.5496(4)
O8 O 0.76868(17) 0.1495(5) 0.5422(4)
Eu3 Eu 0.69208(2) 0.20332(4) 0.45242(3)
Eu4 Eu 0.80792(2) 0.29668(4) 0.54758(3)
Eu2 Eu 0.80792(2) 0.70332(4) 0.04758(3)
H3 H 0.9932 0.6805 0.5826
C8 C 0.9649(3) 0.8490(9) 0.6291(7)
C9 C 0.9492(3) 0.9440(9) 0.6202(7)
H5 H 0.9649 0.9955 0.6016
C10 C 0.9106(3) 0.9655(8) 0.6382(6)
C11 C 0.8869(3) 0.8932(8) 0.6693(6)
C12 C 0.9033(3) 0.7976(8) 0.6814(7)
H7 H 0.8882 0.7477 0.7046
C13 C 0.9408(3) 0.7734(9) 0.6606(8)
H8 H 0.9504 0.7076 0.6672
C14 C 0.8444(3) 0.9136(7) 0.6827(6)
C15 C 0.8200(2) 0.9853(7) 0.6277(6)
C16 C 0.7791(2) 0.9980(7) 0.6346(6)
C17 C 0.7633(3) 0.9420(7) 0.7014(6)
H10 H 0.7357 0.9491 0.7055
C18 C 0.7879(3) 0.8775(7) 0.7604(5)
C19 C 0.8278(3) 0.8593(7) 0.7500(6)
H11 H 0.8437 0.8109 0.7878
C21 C 0.7706(3) 0.8157(7) 0.8356(6)
O5 O 0.7944(2) 0.7544(6) 0.8844(4)
O6 O 0.73498(18) 0.8390(5) 0.8436(4)
Eu5 Eu 0.69208(2) 0.79668(4) 0.95242(3)
Eu3_2 Eu 0.30792(2) 0.20332(4) 0.04758(3)
H6_2 H 0.0996 0.0307 0.8709
H9_2 H 0.1689 0.0253 0.9143
C20_2 C 0.2470(2) 0.0709(7) 0.9285(6)
O7_2 O 0.28452(18) 0.0538(5) 0.9504(4)
O8_2 O 0.23132(17) 0.1495(5) 0.9578(4)
Eu4_2 Eu 0.19208(2) 0.29668(4) 0.95242(3)
H3_2 H 0.0068 0.6805 0.9174
C8_2 C 0.0351(3) 0.8490(9) 0.8709(7)
C9_2 C 0.0508(3) 0.9440(9) 0.8798(7)
H5_2 H 0.0351 0.9955 0.8984
C10_2 C 0.0894(3) 0.9655(8) 0.8618(6)
C11_2 C 0.1131(3) 0.8932(8) 0.8307(6)
C12_2 C 0.0967(3) 0.7976(8) 0.8186(7)
H7_2 H 0.1118 0.7477 0.7954
C13_2 C 0.0592(3) 0.7734(9) 0.8394(8)
H8_2 H 0.0496 0.7076 0.8328
C14_2 C 0.1556(3) 0.9136(7) 0.8173(6)
C15_2 C 0.1800(2) 0.9853(7) 0.8723(6)
C16_2 C 0.2209(2) 0.9980(7) 0.8654(6)
C17_2 C 0.2367(3) 0.9420(7) 0.7986(6)
H10_2 H 0.2643 0.9491 0.7945
C18_2 C 0.2121(3) 0.8775(7) 0.7396(5)
C19_2 C 0.1722(3) 0.8593(7) 0.7500(6)
H11_2 H 0.1563 0.8109 0.7122
C21_2 C 0.2294(3) 0.8157(7) 0.6644(6)
O6_2 O 0.26502(18) 0.8390(5) 0.6564(4)
Eu5_2 Eu 0.30792(2) 0.79668(4) 0.54758(3)
O1_2 O 0.8395(2) 0.5566(7) 0.1380(6)
H12_2 H 0.8215 0.5265 0.1629
H13_2 H 0.8641 0.5368 0.1405
O2_2 O 0.8428(3) 0.7725(7) 0.1996(5)
H14_2 H 0.8268 0.7702 0.2393
H15_2 H 0.8681 0.7891 0.2074
O3_2 O 0.8624(2) 0.8211(6) 0.0188(5)
O10_2 O 0.76502(18) 0.6610(5) 0.1564(4)
O13_2 O 0.76868(17) 0.8505(5) 0.0422(4)
C1_2 C 0.8832(3) 0.7505(10) 0.9961(7)
C2_2 C 0.9219(3) 0.7739(8) 0.9595(8)
C3_2 C 0.9303(3) 0.8712(9) 0.9346(7)
H1_2 H 0.9118 0.9228 0.9392
C4_2 C 0.9664(3) 0.8910(9) 0.9026(7)
H2_2 H 0.9707 0.9559 0.8825
C5_2 C 0.9957(3) 0.8219(8) 0.8990(7)
C6_2 C 0.9872(4) 0.7297(10) 0.9214(10)
C7_2 C 0.9505(4) 0.6988(10) 0.9512(10)
H4_2 H 0.9458 0.6319 0.9645
O4_2 O 0.8726(2) 0.6595(6) 0.9964(5)
O11_2 O 0.78452(18) 0.5538(5) 0.9504(4)
O12_2 O 0.73132(17) 0.6495(5) 0.9578(4)
C1_3 C 0.6168(3) 0.2505(10) 0.5039(7)
C2_3 C 0.5781(3) 0.2739(8) 0.5405(8)
C3_3 C 0.5697(3) 0.3712(9) 0.5654(7)
H1_3 H 0.5882 0.4228 0.5608
C4_3 C 0.5336(3) 0.3910(9) 0.5974(7)
H2_3 H 0.5293 0.4559 0.6175
C5_3 C 0.5043(3) 0.3219(8) 0.6010(7)
C6_3 C 0.5128(4) 0.2297(10) 0.5786(10)
H3_3 H 0.4932 0.1805 0.5826
C7_3 C 0.5495(4) 0.1988(10) 0.5488(10)
H4_3 H 0.5542 0.1319 0.5355
C8_3 C 0.4649(3) 0.3490(9) 0.6291(7)
C9_3 C 0.4492(3) 0.4440(9) 0.6202(7)
H5_3 H 0.4649 0.4955 0.6016
C10_3 C 0.4106(3) 0.4655(8) 0.6382(6)
H6_3 H 0.4004 0.5307 0.6291
C11_3 C 0.3869(3) 0.3932(8) 0.6693(6)
C12_3 C 0.4033(3) 0.2976(8) 0.6814(7)
H7_3 H 0.3882 0.2477 0.7046
C13_3 C 0.4408(3) 0.2734(9) 0.6606(8)
H8_3 H 0.4504 0.2076 0.6672
C14_3 C 0.3444(3) 0.4136(7) 0.6827(6)
C15_3 C 0.3200(2) 0.4853(7) 0.6277(6)
H9_3 H 0.3311 0.5253 0.5857
C16_3 C 0.2791(2) 0.4980(7) 0.6346(6)
C17_3 C 0.2633(3) 0.4420(7) 0.7014(6)
H10_3 H 0.2357 0.4491 0.7055
C18_3 C 0.2879(3) 0.3775(7) 0.7604(5)
C19_3 C 0.3278(3) 0.3593(7) 0.7500(6)
H11_3 H 0.3437 0.3109 0.7878
C20_3 C 0.2530(2) 0.5709(7) 0.5715(6)
C21_3 C 0.2706(3) 0.3157(7) 0.8356(6)
O1_3 O 0.6605(2) 0.0566(7) 0.3620(6)
H12_3 H 0.6785 0.0265 0.3371
H13_3 H 0.6359 0.0368 0.3595
O2_3 O 0.6572(3) 0.2725(7) 0.3004(5)
H14_3 H 0.6732 0.2702 0.2607
H15_3 H 0.6319 0.2891 0.2926
O3_3 O 0.6376(2) 0.3211(6) 0.4812(5)
O4_3 O 0.6274(2) 0.1595(6) 0.5036(5)
O5_2 O 0.2944(2) 0.2544(6) 0.8844(4)
O6_3 O 0.23498(18) 0.3390(5) 0.8436(4)
O9_2 O 0.7056(2) 0.2544(6) 0.6156(4)
O10_3 O 0.73498(18) 0.1610(5) 0.3436(4)
O13_3 O 0.73132(17) 0.3505(5) 0.4578(4)
O1_4 O 0.3395(2) 0.0566(7) 0.1380(6)
H12_4 H 0.3215 0.0265 0.1629
H13_4 H 0.3641 0.0368 0.1405
O2_4 O 0.3428(3) 0.2725(7) 0.1996(5)
H14_4 H 0.3268 0.2702 0.2393
H15_4 H 0.3681 0.2891 0.2074
O3_4 O 0.3624(2) 0.3211(6) 0.0188(5)
O10_4 O 0.26502(18) 0.1610(5) 0.1564(4)
O13_4 O 0.26868(17) 0.3505(5) 0.0422(4)
C1_4 C 0.3832(3) 0.2505(10) 0.9961(7)
C2_4 C 0.4219(3) 0.2739(8) 0.9595(8)
C3_4 C 0.4303(3) 0.3712(9) 0.9346(7)
H1_4 H 0.4118 0.4228 0.9392
C4_4 C 0.4664(3) 0.3910(9) 0.9026(7)
H2_4 H 0.4707 0.4559 0.8825
C5_4 C 0.4957(3) 0.3219(8) 0.8990(7)
C6_4 C 0.4872(4) 0.2297(10) 0.9214(10)
H3_4 H 0.5068 0.1805 0.9174
C7_4 C 0.4505(4) 0.1988(10) 0.9512(10)
H4_4 H 0.4458 0.1319 0.9645
C8_4 C 0.5351(3) 0.3490(9) 0.8709(7)
C9_4 C 0.5508(3) 0.4440(9) 0.8798(7)
H5_4 H 0.5351 0.4955 0.8984
C10_4 C 0.5894(3) 0.4655(8) 0.8618(6)
H6_4 H 0.5996 0.5307 0.8709
C11_4 C 0.6131(3) 0.3932(8) 0.8307(6)
C12_4 C 0.5967(3) 0.2976(8) 0.8186(7)
H7_4 H 0.6118 0.2477 0.7954
C13_4 C 0.5592(3) 0.2734(9) 0.8394(8)
H8_4 H 0.5496 0.2076 0.8328
C14_4 C 0.6556(3) 0.4136(7) 0.8173(6)
C15_4 C 0.6800(2) 0.4853(7) 0.8723(6)
H9_4 H 0.6689 0.5253 0.9143
C16_4 C 0.7209(2) 0.4980(7) 0.8654(6)
C17_4 C 0.7367(3) 0.4420(7) 0.7986(6)
H10_4 H 0.7643 0.4491 0.7945
C18_4 C 0.7121(3) 0.3775(7) 0.7396(5)
C19_4 C 0.6722(3) 0.3593(7) 0.7500(6)
H11_4 H 0.6563 0.3109 0.7122
C20_4 C 0.7470(2) 0.5709(7) 0.9285(6)
C21_4 C 0.7294(3) 0.3157(7) 0.6644(6)
O4_4 O 0.3726(2) 0.1595(6) 0.9964(5)
O6_4 O 0.76502(18) 0.3390(5) 0.6564(4)
H3_5 H 0.0068 0.3195 0.4174
C8_5 C 0.0351(3) 0.1510(9) 0.3709(7)
C9_5 C 0.0508(3) 0.0560(9) 0.3798(7)
H5_5 H 0.0351 0.0045 0.3984
C10_5 C 0.0894(3) 0.0345(8) 0.3618(6)
C11_5 C 0.1131(3) 0.1068(8) 0.3307(6)
C12_5 C 0.0967(3) 0.2024(8) 0.3186(7)
H7_5 H 0.1118 0.2523 0.2954
C13_5 C 0.0592(3) 0.2266(9) 0.3394(8)
H8_5 H 0.0496 0.2924 0.3328
C14_5 C 0.1556(3) 0.0864(7) 0.3173(6)
C15_5 C 0.1800(2) 0.0147(7) 0.3723(6)
C16_5 C 0.2209(2) 0.0020(7) 0.3654(6)
C17_5 C 0.2367(3) 0.0580(7) 0.2986(6)
H10_5 H 0.2643 0.0509 0.2945
C18_5 C 0.2121(3) 0.1225(7) 0.2396(5)
C19_5 C 0.1722(3) 0.1407(7) 0.2500(6)
H11_5 H 0.1563 0.1891 0.2122
C21_5 C 0.2294(3) 0.1843(7) 0.1644(6)
O5_3 O 0.2056(2) 0.2456(6) 0.1156(4)
H6_5 H 0.0996 0.9693 0.3709
H9_5 H 0.1689 0.9747 0.4143
C20_5 C 0.2470(2) 0.9291(7) 0.4285(6)
O7_3 O 0.28452(18) 0.9462(5) 0.4504(4)
C1_5 C 0.8832(3) 0.2495(10) 0.4961(7)
C2_5 C 0.9219(3) 0.2261(8) 0.4595(8)
C3_5 C 0.9303(3) 0.1288(9) 0.4346(7)
H1_5 H 0.9118 0.0772 0.4392
C4_5 C 0.9664(3) 0.1090(9) 0.4026(7)
H2_5 H 0.9707 0.0441 0.3825
C5_5 C 0.9957(3) 0.1781(8) 0.3990(7)
C6_5 C 0.9872(4) 0.2703(10) 0.4214(10)
C7_5 C 0.9505(4) 0.3012(10) 0.4512(10)
H4_5 H 0.9458 0.3681 0.4645
O1_5 O 0.8395(2) 0.4434(7) 0.6380(6)
H12_5 H 0.8215 0.4735 0.6629
H13_5 H 0.8641 0.4632 0.6405
O2_5 O 0.8428(3) 0.2275(7) 0.6996(5)
H14_5 H 0.8268 0.2298 0.7393
H15_5 H 0.8681 0.2109 0.7074
O3_5 O 0.8624(2) 0.1789(6) 0.5188(5)
O4_5 O 0.8726(2) 0.3405(6) 0.4964(5)
O9_3 O 0.7944(2) 0.2456(6) 0.3844(4)
O11_3 O 0.78452(18) 0.4462(5) 0.4504(4)
C1_6 C 0.1168(3) 0.2495(10) 0.0039(7)
C2_6 C 0.0781(3) 0.2261(8) 0.0405(8)
C3_6 C 0.0697(3) 0.1288(9) 0.0654(7)
H1_6 H 0.0882 0.0772 0.0608
C4_6 C 0.0336(3) 0.1090(9) 0.0974(7)
H2_6 H 0.0293 0.0441 0.1175
C5_6 C 0.0043(3) 0.1781(8) 0.1010(7)
C6_6 C 0.0128(4) 0.2703(10) 0.0786(10)
C7_6 C 0.0495(4) 0.3012(10) 0.0488(10)
H4_6 H 0.0542 0.3681 0.0355
O4_6 O 0.1274(2) 0.3405(6) 0.0036(5)
O11_4 O 0.21548(18) 0.4462(5) 0.0496(4)
O1_6 O 0.1605(2) 0.4434(7) 0.8620(6)
H12_6 H 0.1785 0.4735 0.8371
H13_6 H 0.1359 0.4632 0.8595
O2_6 O 0.1572(3) 0.2275(7) 0.8004(5)
H14_6 H 0.1732 0.2298 0.7607
H15_6 H 0.1319 0.2109 0.7926
O3_6 O 0.1376(2) 0.1789(6) 0.9812(5)
H3_6 H 0.9932 0.3195 0.0826
C8_6 C 0.9649(3) 0.1510(9) 0.1291(7)
C9_6 C 0.9492(3) 0.0560(9) 0.1202(7)
H5_6 H 0.9649 0.0045 0.1016
C10_6 C 0.9106(3) 0.0345(8) 0.1382(6)
C11_6 C 0.8869(3) 0.1068(8) 0.1693(6)
C12_6 C 0.9033(3) 0.2024(8) 0.1814(7)
H7_6 H 0.8882 0.2523 0.2046
C13_6 C 0.9408(3) 0.2266(9) 0.1606(8)
H8_6 H 0.9504 0.2924 0.1672
C14_6 C 0.8444(3) 0.0864(7) 0.1827(6)
C15_6 C 0.8200(2) 0.0147(7) 0.1277(6)
C16_6 C 0.7791(2) 0.0020(7) 0.1346(6)
C17_6 C 0.7633(3) 0.0580(7) 0.2014(6)
H10_6 H 0.7357 0.0509 0.2055
C18_6 C 0.7879(3) 0.1225(7) 0.2604(5)
C19_6 C 0.8278(3) 0.1407(7) 0.2500(6)
H11_6 H 0.8437 0.1891 0.2878
C21_6 C 0.7706(3) 0.1843(7) 0.3356(6)
H6_6 H 0.9004 0.9693 0.1291
H9_6 H 0.8311 0.9747 0.0857
C20_6 C 0.7530(2) 0.9291(7) 0.0715(6)
O7_4 O 0.71548(18) 0.9462(5) 0.0496(4)
C1_7 C 0.3832(3) 0.7495(10) 0.4961(7)
C2_7 C 0.4219(3) 0.7261(8) 0.4595(8)
C3_7 C 0.4303(3) 0.6288(9) 0.4346(7)
H1_7 H 0.4118 0.5772 0.4392
C4_7 C 0.4664(3) 0.6090(9) 0.4026(7)
H2_7 H 0.4707 0.5441 0.3825
C5_7 C 0.4957(3) 0.6781(8) 0.3990(7)
C6_7 C 0.4872(4) 0.7703(10) 0.4214(10)
H3_7 H 0.5068 0.8195 0.4174
C7_7 C 0.4505(4) 0.8012(10) 0.4512(10)
H4_7 H 0.4458 0.8681 0.4645
C8_7 C 0.5351(3) 0.6510(9) 0.3709(7)
C9_7 C 0.5508(3) 0.5560(9) 0.3798(7)
H5_7 H 0.5351 0.5045 0.3984
C10_7 C 0.5894(3) 0.5345(8) 0.3618(6)
H6_7 H 0.5996 0.4693 0.3709
C11_7 C 0.6131(3) 0.6068(8) 0.3307(6)
C12_7 C 0.5967(3) 0.7024(8) 0.3186(7)
H7_7 H 0.6118 0.7523 0.2954
C13_7 C 0.5592(3) 0.7266(9) 0.3394(8)
H8_7 H 0.5496 0.7924 0.3328
C14_7 C 0.6556(3) 0.5864(7) 0.3173(6)
C15_7 C 0.6800(2) 0.5147(7) 0.3723(6)
H9_7 H 0.6689 0.4747 0.4143
C16_7 C 0.7209(2) 0.5020(7) 0.3654(6)
C17_7 C 0.7367(3) 0.5580(7) 0.2986(6)
H10_7 H 0.7643 0.5509 0.2945
C18_7 C 0.7121(3) 0.6225(7) 0.2396(5)
C19_7 C 0.6722(3) 0.6407(7) 0.2500(6)
H11_7 H 0.6563 0.6891 0.2122
C20_7 C 0.7470(2) 0.4291(7) 0.4285(6)
C21_7 C 0.7294(3) 0.6843(7) 0.1644(6)
O1_7 O 0.3395(2) 0.9434(7) 0.6380(6)
H12_7 H 0.3215 0.9735 0.6629
H13_7 H 0.3641 0.9632 0.6405
O2_7 O 0.3428(3) 0.7275(7) 0.6996(5)
H14_7 H 0.3268 0.7298 0.7393
H15_7 H 0.3681 0.7109 0.7074
O3_7 O 0.3624(2) 0.6789(6) 0.5188(5)
O4_7 O 0.3726(2) 0.8405(6) 0.4964(5)
O5_4 O 0.7056(2) 0.7456(6) 0.1156(4)
O9_4 O 0.2944(2) 0.7456(6) 0.3844(4)
C1_8 C 0.6168(3) 0.7495(10) 0.0039(7)
C2_8 C 0.5781(3) 0.7261(8) 0.0405(8)
C3_8 C 0.5697(3) 0.6288(9) 0.0654(7)
H1_8 H 0.5882 0.5772 0.0608
C4_8 C 0.5336(3) 0.6090(9) 0.0974(7)
H2_8 H 0.5293 0.5441 0.1175
C5_8 C 0.5043(3) 0.6781(8) 0.1010(7)
C6_8 C 0.5128(4) 0.7703(10) 0.0786(10)
H3_8 H 0.4932 0.8195 0.0826
C7_8 C 0.5495(4) 0.8012(10) 0.0488(10)
H4_8 H 0.5542 0.8681 0.0355
C8_8 C 0.4649(3) 0.6510(9) 0.1291(7)
C9_8 C 0.4492(3) 0.5560(9) 0.1202(7)
H5_8 H 0.4649 0.5045 0.1016
C10_8 C 0.4106(3) 0.5345(8) 0.1382(6)
H6_8 H 0.4004 0.4693 0.1291
C11_8 C 0.3869(3) 0.6068(8) 0.1693(6)
C12_8 C 0.4033(3) 0.7024(8) 0.1814(7)
H7_8 H 0.3882 0.7523 0.2046
C13_8 C 0.4408(3) 0.7266(9) 0.1606(8)
H8_8 H 0.4504 0.7924 0.1672
C14_8 C 0.3444(3) 0.5864(7) 0.1827(6)
C15_8 C 0.3200(2) 0.5147(7) 0.1277(6)
H9_8 H 0.3311 0.4747 0.0857
C16_8 C 0.2791(2) 0.5020(7) 0.1346(6)
C17_8 C 0.2633(3) 0.5580(7) 0.2014(6)
H10_8 H 0.2357 0.5509 0.2055
C18_8 C 0.2879(3) 0.6225(7) 0.2604(5)
C19_8 C 0.3278(3) 0.6407(7) 0.2500(6)
H11_8 H 0.3437 0.6891 0.2878
C20_8 C 0.2530(2) 0.4291(7) 0.0715(6)
C21_8 C 0.2706(3) 0.6843(7) 0.3356(6)
O4_8 O 0.6274(2) 0.8405(6) 0.0036(5)
O1_8 O 0.6605(2) 0.9434(7) 0.8620(6)
H12_8 H 0.6785 0.9735 0.8371
H13_8 H 0.6359 0.9632 0.8595
O2_8 O 0.6572(3) 0.7275(7) 0.8004(5)
H14_8 H 0.6732 0.7298 0.7607
H15_8 H 0.6319 0.7109 0.7926
O3_8 O 0.6376(2) 0.6789(6) 0.9812(5)
loop_
_geom_bond_atom_site_label_1
_geom_bond_atom_site_label_2
_geom_bond_site_symmetry_1
_geom_bond_site_symmetry_2
C1 C2 1_555 1_555
C2 C3 1_555 1_555
C3 H1 1_555 1_555
C4 C3 1_555 1_555
H2 C4 1_555 1_555
C5 C4 1_555 1_555
C6 C5 1_555 1_555
C7 C2 1_555 1_555
H4 C7 1_555 1_555
Eu1 O1 1_555 1_555
O1 H12 1_555 1_555
H13 O1 1_555 1_555
O2 Eu1 1_555 1_555
H14 O2 1_555 1_555
H15 O2 1_555 1_555
O3 C1 1_555 1_555
O4 C1 1_555 1_555
O9 Eu1 1_555 1_555
O10 Eu1 1_555 1_555
O11 Eu1 1_555 1_555
O12 Eu1 1_555 1_555
O13 Eu1 1_555 1_555
C6 C7 1_555 1_555
Eu1 O3 1_555 1_555
Eu1 O4 1_555 1_555
O7 C20 1_555 1_555
O8 C20 1_555 1_555
Eu3 O7 1_555 1_555
Eu4 O8 1_555 1_555
O8 Eu3 1_555 1_555
C9 C8 1_555 1_555
H5 C9 1_555 1_555
C10 C9 1_555 1_555
C11 C10 1_555 1_555
C12 C11 1_555 1_555
H7 C12 1_555 1_555
C13 C8 1_555 1_555
H8 C13 1_555 1_555
C14 C11 1_555 1_555
C15 C14 1_555 1_555
C16 C15 1_555 1_555
C17 C16 1_555 1_555
H10 C17 1_555 1_555
C18 C17 1_555 1_555
C19 C14 1_555 1_555
H11 C19 1_555 1_555
C21 C18 1_555 1_555
O5 C21 1_555 1_555
O6 C21 1_555 1_555
Eu5 O6 1_555 1_555
C12 C13 1_555 1_555
C18 C19 1_555 1_555
O7_2 C20_2 1_555 1_555
O8_2 C20_2 1_555 1_555
Eu4_2 O8_2 1_555 1_555
C9_2 C8_2 1_555 1_555
H5_2 C9_2 1_555 1_555
C10_2 C9_2 1_555 1_555
C11_2 C10_2 1_555 1_555
C12_2 C11_2 1_555 1_555
H7_2 C12_2 1_555 1_555
C13_2 C8_2 1_555 1_555
H8_2 C13_2 1_555 1_555
C14_2 C11_2 1_555 1_555
C15_2 C14_2 1_555 1_555
C16_2 C15_2 1_555 1_555
C17_2 C16_2 1_555 1_555
H10_2 C17_2 1_555 1_555
C18_2 C17_2 1_555 1_555
C19_2 C14_2 1_555 1_555
H11_2 C19_2 1_555 1_555
C21_2 C18_2 1_555 1_555
O9 C21_2 1_555 1_555
O6_2 C21_2 1_555 1_555
Eu5_2 O6_2 1_555 1_555
C12_2 C13_2 1_555 1_555
C18_2 C19_2 1_555 1_555
Eu2 O1_2 1_555 1_555
O1_2 H12_2 1_555 1_555
H13_2 O1_2 1_555 1_555
O2_2 Eu2 1_555 1_555
H14_2 O2_2 1_555 1_555
H15_2 O2_2 1_555 1_555
O10_2 Eu2 1_555 1_555
O13_2 Eu2 1_555 1_555
Eu2 O3_2 1_555 1_555
C1_2 C2_2 1_555 1_555
C2_2 C3_2 1_555 1_555
C3_2 H1_2 1_555 1_555
C4_2 C3_2 1_555 1_555
H2_2 C4_2 1_555 1_555
C5_2 C4_2 1_555 1_555
C6_2 C5_2 1_555 1_555
C7_2 C2_2 1_555 1_555
H4_2 C7_2 1_555 1_555
O4_2 C1_2 1_555 1_555
C6_2 C7_2 1_555 1_555
C1_3 C2_3 1_555 1_555
C2_3 C3_3 1_555 1_555
C3_3 H1_3 1_555 1_555
C4_3 C3_3 1_555 1_555
H2_3 C4_3 1_555 1_555
C5_3 C4_3 1_555 1_555
C6_3 C5_3 1_555 1_555
H3_3 C6_3 1_555 1_555
C7_3 C2_3 1_555 1_555
H4_3 C7_3 1_555 1_555
C8_3 C5_3 1_555 1_555
C9_3 C8_3 1_555 1_555
H5_3 C9_3 1_555 1_555
C10_3 C9_3 1_555 1_555
H6_3 C10_3 1_555 1_555
C11_3 C10_3 1_555 1_555
C12_3 C11_3 1_555 1_555
H7_3 C12_3 1_555 1_555
C13_3 C8_3 1_555 1_555
H8_3 C13_3 1_555 1_555
C14_3 C11_3 1_555 1_555
C15_3 C14_3 1_555 1_555
H9_3 C15_3 1_555 1_555
C16_3 C15_3 1_555 1_555
C17_3 C16_3 1_555 1_555
H10_3 C17_3 1_555 1_555
C18_3 C17_3 1_555 1_555
C19_3 C14_3 1_555 1_555
H11_3 C19_3 1_555 1_555
C20_3 C16_3 1_555 1_555
C21_3 C18_3 1_555 1_555
Eu3 O1_3 1_555 1_555
O1_3 H12_3 1_555 1_555
H13_3 O1_3 1_555 1_555
O2_3 Eu3 1_555 1_555
H14_3 O2_3 1_555 1_555
H15_3 O2_3 1_555 1_555
O3_3 C1_3 1_555 1_555
O4_3 C1_3 1_555 1_555
O5_2 C21_3 1_555 1_555
O6_3 C21_3 1_555 1_555
O11 C20_3 1_555 1_555
O12 C20_3 1_555 1_555
Eu5_2 O12 1_555 1_555
Eu4_2 O6_3 1_555 1_555
O9_2 Eu3 1_555 1_555
O10_3 Eu3 1_555 1_555
O13_3 Eu3 1_555 1_555
C6_3 C7_3 1_555 1_555
C12_3 C13_3 1_555 1_555
C18_3 C19_3 1_555 1_555
Eu3 O3_3 1_555 1_555
Eu3 O4_3 1_555 1_555
Eu3_2 O1_4 1_555 1_555
O1_4 H12_4 1_555 1_555
H13_4 O1_4 1_555 1_555
O2_4 Eu3_2 1_555 1_555
H14_4 O2_4 1_555 1_555
H15_4 O2_4 1_555 1_555
O10_4 Eu3_2 1_555 1_555
O13_4 Eu3_2 1_555 1_555
Eu3_2 O3_4 1_555 1_555
C1_4 C2_4 1_555 1_555
C2_4 C3_4 1_555 1_555
C3_4 H1_4 1_555 1_555
C4_4 C3_4 1_555 1_555
H2_4 C4_4 1_555 1_555
C5_4 C4_4 1_555 1_555
C6_4 C5_4 1_555 1_555
H3_4 C6_4 1_555 1_555
C7_4 C2_4 1_555 1_555
H4_4 C7_4 1_555 1_555
C8_4 C5_4 1_555 1_555
C9_4 C8_4 1_555 1_555
H5_4 C9_4 1_555 1_555
C10_4 C9_4 1_555 1_555
H6_4 C10_4 1_555 1_555
C11_4 C10_4 1_555 1_555
C12_4 C11_4 1_555 1_555
H7_4 C12_4 1_555 1_555
C13_4 C8_4 1_555 1_555
H8_4 C13_4 1_555 1_555
C14_4 C11_4 1_555 1_555
C15_4 C14_4 1_555 1_555
H9_4 C15_4 1_555 1_555
C16_4 C15_4 1_555 1_555
C17_4 C16_4 1_555 1_555
H10_4 C17_4 1_555 1_555
C18_4 C17_4 1_555 1_555
C19_4 C14_4 1_555 1_555
H11_4 C19_4 1_555 1_555
C20_4 C16_4 1_555 1_555
C21_4 C18_4 1_555 1_555
O4_4 C1_4 1_555 1_555
O9_2 C21_4 1_555 1_555
O6_4 C21_4 1_555 1_555
O11_2 C20_4 1_555 1_555
O12_2 C20_4 1_555 1_555
Eu5 O12_2 1_555 1_555
Eu4 O6_4 1_555 1_555
C6_4 C7_4 1_555 1_555
C12_4 C13_4 1_555 1_555
C18_4 C19_4 1_555 1_555
C9_5 C8_5 1_555 1_555
H5_5 C9_5 1_555 1_555
C10_5 C9_5 1_555 1_555
C11_5 C10_5 1_555 1_555
C12_5 C11_5 1_555 1_555
H7_5 C12_5 1_555 1_555
C13_5 C8_5 1_555 1_555
H8_5 C13_5 1_555 1_555
C14_5 C11_5 1_555 1_555
C15_5 C14_5 1_555 1_555
C16_5 C15_5 1_555 1_555
C17_5 C16_5 1_555 1_555
H10_5 C17_5 1_555 1_555
C18_5 C17_5 1_555 1_555
C19_5 C14_5 1_555 1_555
H11_5 C19_5 1_555 1_555
C21_5 C18_5 1_555 1_555
O5_3 C21_5 1_555 1_555
O10_4 C21_5 1_555 1_555
C12_5 C13_5 1_555 1_555
C18_5 C19_5 1_555 1_555
O7_3 C20_5 1_555 1_555
O13 C20_5 1_555 1_555
Eu5_2 O7_3 1_555 1_555
O13 Eu5_2 1_555 1_555
C1_5 C2_5 1_555 1_555
C2_5 C3_5 1_555 1_555
C3_5 H1_5 1_555 1_555
C4_5 C3_5 1_555 1_555
H2_5 C4_5 1_555 1_555
C5_5 C4_5 1_555 1_555
C6_5 C5_5 1_555 1_555
C7_5 C2_5 1_555 1_555
H4_5 C7_5 1_555 1_555
Eu4 O1_5 1_555 1_555
O1_5 H12_5 1_555 1_555
H13_5 O1_5 1_555 1_555
O2_5 Eu4 1_555 1_555
H14_5 O2_5 1_555 1_555
H15_5 O2_5 1_555 1_555
O3_5 C1_5 1_555 1_555
O4_5 C1_5 1_555 1_555
O9_3 Eu4 1_555 1_555
O11_3 Eu4 1_555 1_555
O13_3 Eu4 1_555 1_555
C6_5 C7_5 1_555 1_555
Eu4 O3_5 1_555 1_555
Eu4 O4_5 1_555 1_555
C1_6 C2_6 1_555 1_555
C2_6 C3_6 1_555 1_555
C3_6 H1_6 1_555 1_555
C4_6 C3_6 1_555 1_555
H2_6 C4_6 1_555 1_555
C5_6 C4_6 1_555 1_555
C6_6 C5_6 1_555 1_555
C7_6 C2_6 1_555 1_555
H4_6 C7_6 1_555 1_555
O4_6 C1_6 1_555 1_555
C6_6 C7_6 1_555 1_555
Eu4_2 O1_6 1_555 1_555
O1_6 H12_6 1_555 1_555
H13_6 O1_6 1_555 1_555
O2_6 Eu4_2 1_555 1_555
H14_6 O2_6 1_555 1_555
H15_6 O2_6 1_555 1_555
Eu4_2 O3_6 1_555 1_555
C9_6 C8_6 1_555 1_555
H5_6 C9_6 1_555 1_555
C10_6 C9_6 1_555 1_555
C11_6 C10_6 1_555 1_555
C12_6 C11_6 1_555 1_555
H7_6 C12_6 1_555 1_555
C13_6 C8_6 1_555 1_555
H8_6 C13_6 1_555 1_555
C14_6 C11_6 1_555 1_555
C15_6 C14_6 1_555 1_555
C16_6 C15_6 1_555 1_555
C17_6 C16_6 1_555 1_555
H10_6 C17_6 1_555 1_555
C18_6 C17_6 1_555 1_555
C19_6 C14_6 1_555 1_555
H11_6 C19_6 1_555 1_555
C21_6 C18_6 1_555 1_555
O9_3 C21_6 1_555 1_555
O10_3 C21_6 1_555 1_555
C12_6 C13_6 1_555 1_555
C18_6 C19_6 1_555 1_555
O7_4 C20_6 1_555 1_555
O13_2 C20_6 1_555 1_555
C1_7 C2_7 1_555 1_555
C2_7 C3_7 1_555 1_555
C3_7 H1_7 1_555 1_555
C4_7 C3_7 1_555 1_555
H2_7 C4_7 1_555 1_555
C5_7 C4_7 1_555 1_555
C6_7 C5_7 1_555 1_555
H3_7 C6_7 1_555 1_555
C7_7 C2_7 1_555 1_555
H4_7 C7_7 1_555 1_555
C8_7 C5_7 1_555 1_555
C9_7 C8_7 1_555 1_555
H5_7 C9_7 1_555 1_555
C10_7 C9_7 1_555 1_555
H6_7 C10_7 1_555 1_555
C11_7 C10_7 1_555 1_555
C12_7 C11_7 1_555 1_555
H7_7 C12_7 1_555 1_555
C13_7 C8_7 1_555 1_555
H8_7 C13_7 1_555 1_555
C14_7 C11_7 1_555 1_555
C15_7 C14_7 1_555 1_555
H9_7 C15_7 1_555 1_555
C16_7 C15_7 1_555 1_555
C17_7 C16_7 1_555 1_555
H10_7 C17_7 1_555 1_555
C18_7 C17_7 1_555 1_555
C19_7 C14_7 1_555 1_555
H11_7 C19_7 1_555 1_555
C20_7 C16_7 1_555 1_555
C21_7 C18_7 1_555 1_555
Eu5_2 O1_7 1_555 1_555
O1_7 H12_7 1_555 1_555
H13_7 O1_7 1_555 1_555
O2_7 Eu5_2 1_555 1_555
H14_7 O2_7 1_555 1_555
H15_7 O2_7 1_555 1_555
O3_7 C1_7 1_555 1_555
O4_7 C1_7 1_555 1_555
O5_4 C21_7 1_555 1_555
O10_2 C21_7 1_555 1_555
O11_3 C20_7 1_555 1_555
O13_3 C20_7 1_555 1_555
O9_4 Eu5_2 1_555 1_555
C6_7 C7_7 1_555 1_555
C12_7 C13_7 1_555 1_555
C18_7 C19_7 1_555 1_555
Eu5_2 O3_7 1_555 1_555
Eu5_2 O4_7 1_555 1_555
C1_8 C2_8 1_555 1_555
C2_8 C3_8 1_555 1_555
C3_8 H1_8 1_555 1_555
C4_8 C3_8 1_555 1_555
H2_8 C4_8 1_555 1_555
C5_8 C4_8 1_555 1_555
C6_8 C5_8 1_555 1_555
H3_8 C6_8 1_555 1_555
C7_8 C2_8 1_555 1_555
H4_8 C7_8 1_555 1_555
C8_8 C5_8 1_555 1_555
C9_8 C8_8 1_555 1_555
H5_8 C9_8 1_555 1_555
C10_8 C9_8 1_555 1_555
H6_8 C10_8 1_555 1_555
C11_8 C10_8 1_555 1_555
C12_8 C11_8 1_555 1_555
H7_8 C12_8 1_555 1_555
C13_8 C8_8 1_555 1_555
H8_8 C13_8 1_555 1_555
C14_8 C11_8 1_555 1_555
C15_8 C14_8 1_555 1_555
H9_8 C15_8 1_555 1_555
C16_8 C15_8 1_555 1_555
C17_8 C16_8 1_555 1_555
H10_8 C17_8 1_555 1_555
C18_8 C17_8 1_555 1_555
C19_8 C14_8 1_555 1_555
H11_8 C19_8 1_555 1_555
C20_8 C16_8 1_555 1_555
C21_8 C18_8 1_555 1_555
O4_8 C1_8 1_555 1_555
O9_4 C21_8 1_555 1_555
O10 C21_8 1_555 1_555
O11_4 C20_8 1_555 1_555
O13_4 C20_8 1_555 1_555
C6_8 C7_8 1_555 1_555
C12_8 C13_8 1_555 1_555
C18_8 C19_8 1_555 1_555
Eu5 O1_8 1_555 1_555
O1_8 H12_8 1_555 1_555
H13_8 O1_8 1_555 1_555
O2_8 Eu5 1_555 1_555
H14_8 O2_8 1_555 1_555
H15_8 O2_8 1_555 1_555
Eu5 O3_8 1_555 1_555

#END
