
###############################################################################
#
# This file contains modified crystal structure data generated from the
# MOF subset of the Cambridge Structural Database (CSD) v543 
# hosted by the Cambridge Crystallographic Data Centre (CCDC).
#
# This work is licensed under the Creative Commons
# Attribution-NonCommercial-ShareAlike 4.0 International License.
# To view a copy of this license, visit
# http://creativecommons.org/licenses/by-nc-sa/4.0/
# or send a letter to
# Creative Commons, PO Box 1866, Mountain View, CA 94042, USA.
#
# CIF created using the CSD Python API on 29 September 2022
# The structure has been converted into the P1 space group
# The structure has a 3D framework
# The original CSD entry APAYUN is in the monoclinic crystal system
# The framework has been calculated to contain at least 10.0% void space
# The void calculation uses a probe of radius 1.32A, grid spacing 0.4
#
###############################################################################

data_APAYUN
_chemical_formula_moiety         '(C168 H120 La8 O56)n'
_symmetry_cell_setting           triclinic
_symmetry_space_group_name_H-M   'P 1'
_symmetry_Int_Tables_number      1
_space_group_name_Hall           'P 1'
loop_
_symmetry_equiv_pos_site_id
_symmetry_equiv_pos_as_xyz
1 x,y,z
_cell_length_a                   33.69(3)
_cell_length_b                   12.970(11)
_cell_length_c                   14.771(12)
_cell_angle_alpha                90
_cell_angle_beta                 101.572(9)
_cell_angle_gamma                90
_cell_volume                     6323.13
loop_
_atom_site_label
_atom_site_type_symbol
_atom_site_fract_x
_atom_site_fract_y
_atom_site_fract_z
C1 C 0.25256(12) 0.4379(3) 0.0692(3)
C2 C 0.28008(11) 0.5092(3) 0.1342(3)
C3 C 0.26420(12) 0.5647(3) 0.2000(3)
H1 H 0.2371 0.5571 0.2037
C4 C 0.28893(12) 0.6307(3) 0.2593(3)
C5 C 0.32923(12) 0.6451(4) 0.2517(3)
H2 H 0.3455 0.6908 0.2913
C6 C 0.34546(11) 0.5916(3) 0.1852(3)
C7 C 0.32031(11) 0.5212(3) 0.1283(3)
H3 H 0.3309 0.4821 0.0859
C8 C 0.27247(13) 0.6887(4) 0.3337(4)
C9 C 0.38763(12) 0.6113(4) 0.1717(3)
C10 C 0.40464(13) 0.7096(4) 0.1857(4)
H4 H 0.3904 0.7611 0.2094
C11 C 0.44250(13) 0.7328(4) 0.1652(4)
H5 H 0.4528 0.7994 0.1744
C12 C 0.46479(13) 0.6571(4) 0.1311(4)
C13 C 0.44849(13) 0.5588(4) 0.1214(4)
H6 H 0.4634 0.5059 0.1018
C14 C 0.41060(12) 0.5367(4) 0.1400(4)
H7 H 0.4005 0.4700 0.1308
C15 C 0.50388(13) 0.6819(4) 0.1026(4)
C16 C 0.51260(17) 0.7824(5) 0.0801(6)
H8 H 0.4943 0.8350 0.0844
C17 C 0.54834(18) 0.8047(5) 0.0512(6)
H9 H 0.5540 0.8728 0.0387
C18 C 0.57573(13) 0.7289(4) 0.0403(4)
C19 C 0.56777(13) 0.6316(4) 0.0650(4)
H10 H 0.5862 0.5793 0.0606
C20 C 0.53240(14) 0.6081(4) 0.0970(4)
H11 H 0.5282 0.5409 0.1149
C21 C 0.61325(13) 0.7534(5) 0.0039(4)
La1 La 0.30913(2) 0.19977(2) 0.05111(2)
O1 O 0.34641(14) 0.2696(4) 0.2100(3)
H12 H 0.3300 0.3098 0.2305
H13 H 0.3713 0.2538 0.2178
O2 O 0.33839(14) 0.0371(3) 0.1410(3)
H14 H 0.3614 0.0182 0.1321
H15 H 0.3291 0.0323 0.1902
O3 O 0.26786(8) 0.3605(2) 0.0364(2)
O4 O 0.21521(8) 0.4580(2) 0.0493(2)
O5 O 0.23578(9) 0.6713(3) 0.3365(2)
O6 O 0.29602(9) 0.7500(3) 0.3843(2)
La2 La 0.19087(2) 0.69977(2) 0.44889(2)
La4 La 0.30913(2) 0.80023(2) 0.55111(2)
O11 O 0.26422(9) 0.1713(3) 0.1635(2)
O13 O 0.37647(10) 0.1535(3) 0.0029(3)
O14 O 0.36686(10) 0.3205(3) 0.0213(3)
O7 O 0.62353(10) 0.8465(3) 0.9971(3)
O8 O 0.63314(10) 0.6795(3) 0.9787(3)
La3 La 0.69087(2) 0.80023(2) 0.94889(2)
La5 La 0.19087(2) 0.30023(2) 0.94889(2)
O9 O 0.23214(8) 0.1395(2) 0.9636(2)
O10 O 0.28479(8) 0.0420(2) 0.9507(2)
O12 O 0.29602(9) 0.2500(3) 0.8843(2)
C1_2 C 0.74744(12) 0.4379(3) 0.4308(3)
C2_2 C 0.71992(11) 0.5092(3) 0.3658(3)
C3_2 C 0.73580(12) 0.5647(3) 0.3000(3)
H1_2 H 0.7629 0.5571 0.2963
C4_2 C 0.71107(12) 0.6307(3) 0.2407(3)
C5_2 C 0.67077(12) 0.6451(4) 0.2483(3)
H2_2 H 0.6545 0.6908 0.2087
C6_2 C 0.65454(11) 0.5916(3) 0.3148(3)
C7_2 C 0.67969(11) 0.5212(3) 0.3717(3)
H3_2 H 0.6691 0.4821 0.4141
C8_2 C 0.72753(13) 0.6887(4) 0.1663(4)
C9_2 C 0.61237(12) 0.6113(4) 0.3283(3)
C10_2 C 0.59536(13) 0.7096(4) 0.3143(4)
H4_2 H 0.6096 0.7611 0.2906
C11_2 C 0.55750(13) 0.7328(4) 0.3348(4)
H5_2 H 0.5472 0.7994 0.3256
C12_2 C 0.53521(13) 0.6571(4) 0.3689(4)
C13_2 C 0.55151(13) 0.5588(4) 0.3786(4)
H6_2 H 0.5366 0.5059 0.3982
C14_2 C 0.58940(12) 0.5367(4) 0.3600(4)
H7_2 H 0.5995 0.4700 0.3692
C15_2 C 0.49612(13) 0.6819(4) 0.3974(4)
C16_2 C 0.48740(17) 0.7824(5) 0.4199(6)
H8_2 H 0.5057 0.8350 0.4156
C17_2 C 0.45166(18) 0.8047(5) 0.4488(6)
H9_2 H 0.4460 0.8728 0.4613
C18_2 C 0.42427(13) 0.7289(4) 0.4597(4)
C19_2 C 0.43223(13) 0.6316(4) 0.4350(4)
H10_2 H 0.4138 0.5793 0.4394
C20_2 C 0.46760(14) 0.6081(4) 0.4030(4)
H11_2 H 0.4718 0.5409 0.3851
C21_2 C 0.38675(13) 0.7534(5) 0.4961(4)
La1_2 La 0.69087(2) 0.19977(2) 0.44889(2)
O1_2 O 0.65359(14) 0.2696(4) 0.2900(3)
H12_2 H 0.6700 0.3098 0.2695
H13_2 H 0.6287 0.2538 0.2822
O2_2 O 0.66161(14) 0.0371(3) 0.3590(3)
H14_2 H 0.6386 0.0182 0.3679
H15_2 H 0.6709 0.0323 0.3098
O3_2 O 0.73214(8) 0.3605(2) 0.4636(2)
O4_2 O 0.78479(8) 0.4580(2) 0.4507(2)
O5_2 O 0.76422(9) 0.6713(3) 0.1635(2)
O6_2 O 0.70398(9) 0.7500(3) 0.1157(2)
O7_2 O 0.37647(10) 0.8465(3) 0.5029(3)
O8_2 O 0.36686(10) 0.6795(3) 0.5213(3)
La2_2 La 0.80913(2) 0.69977(2) 0.05111(2)
La5_2 La 0.80913(2) 0.30023(2) 0.55111(2)
O9_2 O 0.76786(8) 0.1395(2) 0.5364(2)
O10_2 O 0.71521(8) 0.0420(2) 0.5493(2)
O11_2 O 0.73578(9) 0.1713(3) 0.3365(2)
O12_2 O 0.70398(9) 0.2500(3) 0.6157(2)
O13_2 O 0.62353(10) 0.1535(3) 0.4971(3)
O14_2 O 0.63314(10) 0.3205(3) 0.4787(3)
O7_3 O 0.12353(10) 0.3465(3) 0.9971(3)
O8_3 O 0.13314(10) 0.1795(3) 0.9787(3)
C2_3 C 0.78008(11) 0.0092(3) 0.1342(3)
C3_3 C 0.76420(12) 0.0647(3) 0.2000(3)
H1_3 H 0.7371 0.0571 0.2037
C4_3 C 0.78893(12) 0.1307(3) 0.2593(3)
C5_3 C 0.82923(12) 0.1451(4) 0.2517(3)
H2_3 H 0.8455 0.1908 0.2913
C6_3 C 0.84546(11) 0.0916(3) 0.1852(3)
C7_3 C 0.82031(11) 0.0212(3) 0.1283(3)
C8_3 C 0.77247(13) 0.1887(4) 0.3337(4)
C9_3 C 0.88763(12) 0.1113(4) 0.1717(3)
C10_3 C 0.90464(13) 0.2096(4) 0.1857(4)
H4_3 H 0.8904 0.2611 0.2094
C11_3 C 0.94250(13) 0.2328(4) 0.1652(4)
H5_3 H 0.9528 0.2994 0.1744
C12_3 C 0.96479(13) 0.1571(4) 0.1311(4)
C13_3 C 0.94849(13) 0.0588(4) 0.1214(4)
H6_3 H 0.9634 0.0059 0.1018
C14_3 C 0.91060(12) 0.0367(4) 0.1400(4)
H8_3 H 0.9943 0.3350 0.0844
O6_3 O 0.79602(9) 0.2500(3) 0.3843(2)
C1_3 C 0.75256(12) 0.9379(3) 0.0692(3)
H3_3 H 0.8309 0.9821 0.0859
H7_3 H 0.9005 0.9700 0.1308
O1_3 O 0.84641(14) 0.7696(4) 0.2100(3)
H12_3 H 0.8300 0.8098 0.2305
H13_3 H 0.8713 0.7538 0.2178
O2_3 O 0.83839(14) 0.5371(3) 0.1410(3)
H14_3 H 0.8614 0.5182 0.1321
H15_3 H 0.8291 0.5323 0.1902
O3_3 O 0.76786(8) 0.8605(2) 0.0364(2)
O4_3 O 0.71521(8) 0.9580(2) 0.0493(2)
O13_3 O 0.87647(10) 0.6535(3) 0.0029(3)
O14_3 O 0.86686(10) 0.8205(3) 0.0213(3)
O9_3 O 0.73214(8) 0.6395(2) 0.9636(2)
O10_3 O 0.78479(8) 0.5420(2) 0.9507(2)
O12_3 O 0.79602(9) 0.7500(3) 0.8843(2)
C2_4 C 0.21992(11) 0.0092(3) 0.3658(3)
C3_4 C 0.23580(12) 0.0647(3) 0.3000(3)
H1_4 H 0.2629 0.0571 0.2963
C4_4 C 0.21107(12) 0.1307(3) 0.2407(3)
C5_4 C 0.17077(12) 0.1451(4) 0.2483(3)
H2_4 H 0.1545 0.1908 0.2087
C6_4 C 0.15454(11) 0.0916(3) 0.3148(3)
C7_4 C 0.17969(11) 0.0212(3) 0.3717(3)
C8_4 C 0.22753(13) 0.1887(4) 0.1663(4)
C9_4 C 0.11237(12) 0.1113(4) 0.3283(3)
C10_4 C 0.09536(13) 0.2096(4) 0.3143(4)
H4_4 H 0.1096 0.2611 0.2906
C11_4 C 0.05750(13) 0.2328(4) 0.3348(4)
H5_4 H 0.0472 0.2994 0.3256
C12_4 C 0.03521(13) 0.1571(4) 0.3689(4)
C13_4 C 0.05151(13) 0.0588(4) 0.3786(4)
H6_4 H 0.0366 0.0059 0.3982
C14_4 C 0.08940(12) 0.0367(4) 0.3600(4)
H8_4 H 0.0057 0.3350 0.4156
O6_4 O 0.20398(9) 0.2500(3) 0.1157(2)
C1_4 C 0.24744(12) 0.9379(3) 0.4308(3)
H3_4 H 0.1691 0.9821 0.4141
H7_4 H 0.0995 0.9700 0.3692
O1_4 O 0.15359(14) 0.7696(4) 0.2900(3)
H12_4 H 0.1700 0.8098 0.2695
H13_4 H 0.1287 0.7538 0.2822
O2_4 O 0.16161(14) 0.5371(3) 0.3590(3)
H14_4 H 0.1386 0.5182 0.3679
H15_4 H 0.1709 0.5323 0.3098
O3_4 O 0.23214(8) 0.8605(2) 0.4636(2)
O4_4 O 0.28479(8) 0.9580(2) 0.4507(2)
O9_4 O 0.26786(8) 0.6395(2) 0.5364(2)
O10_4 O 0.21521(8) 0.5420(2) 0.5493(2)
O12_4 O 0.20398(9) 0.7500(3) 0.6157(2)
O13_4 O 0.12353(10) 0.6535(3) 0.4971(3)
O14_4 O 0.13314(10) 0.8205(3) 0.4787(3)
C15_3 C 0.99612(13) 0.1819(4) 0.3974(4)
C16_3 C 0.98740(17) 0.2824(5) 0.4199(6)
C17_3 C 0.95166(18) 0.3047(5) 0.4488(6)
H9_3 H 0.9460 0.3728 0.4613
C18_3 C 0.92427(13) 0.2289(4) 0.4597(4)
C19_3 C 0.93223(13) 0.1316(4) 0.4350(4)
H10_3 H 0.9138 0.0793 0.4394
C20_3 C 0.96760(14) 0.1081(4) 0.4030(4)
H11_3 H 0.9718 0.0409 0.3851
C21_3 C 0.88675(13) 0.2534(5) 0.4961(4)
O7_4 O 0.87647(10) 0.3465(3) 0.5029(3)
O8_4 O 0.86686(10) 0.1795(3) 0.5213(3)
C1_5 C 0.74744(12) 0.5621(3) 0.9308(3)
C2_5 C 0.71992(11) 0.4908(3) 0.8658(3)
C3_5 C 0.73580(12) 0.4353(3) 0.8000(3)
H1_5 H 0.7629 0.4429 0.7963
C4_5 C 0.71107(12) 0.3693(3) 0.7407(3)
C5_5 C 0.67077(12) 0.3549(4) 0.7483(3)
H2_5 H 0.6545 0.3092 0.7087
C6_5 C 0.65454(11) 0.4084(3) 0.8148(3)
C7_5 C 0.67969(11) 0.4788(3) 0.8717(3)
H3_5 H 0.6691 0.5179 0.9141
C8_5 C 0.72753(13) 0.3113(4) 0.6663(4)
C9_5 C 0.61237(12) 0.3887(4) 0.8283(3)
C10_5 C 0.59536(13) 0.2904(4) 0.8143(4)
H4_5 H 0.6096 0.2389 0.7906
C11_5 C 0.55750(13) 0.2672(4) 0.8348(4)
H5_5 H 0.5472 0.2006 0.8256
C12_5 C 0.53521(13) 0.3429(4) 0.8689(4)
C13_5 C 0.55151(13) 0.4412(4) 0.8786(4)
H6_5 H 0.5366 0.4941 0.8982
C14_5 C 0.58940(12) 0.4633(4) 0.8600(4)
H7_5 H 0.5995 0.5300 0.8692
C15_4 C 0.49612(13) 0.3181(4) 0.8974(4)
C16_4 C 0.48740(17) 0.2176(5) 0.9199(6)
H8_5 H 0.5057 0.1650 0.9156
C17_4 C 0.45166(18) 0.1953(5) 0.9488(6)
H9_4 H 0.4460 0.1272 0.9613
C18_4 C 0.42427(13) 0.2711(4) 0.9597(4)
C19_4 C 0.43223(13) 0.3684(4) 0.9350(4)
H10_4 H 0.4138 0.4207 0.9394
C20_4 C 0.46760(14) 0.3919(4) 0.9030(4)
H11_4 H 0.4718 0.4591 0.8851
C21_4 C 0.38675(13) 0.2466(5) 0.9961(4)
O1_5 O 0.65359(14) 0.7304(4) 0.7900(3)
H12_5 H 0.6700 0.6902 0.7695
H13_5 H 0.6287 0.7462 0.7822
O2_5 O 0.66161(14) 0.9629(3) 0.8590(3)
H14_5 H 0.6386 0.9818 0.8679
H15_5 H 0.6709 0.9677 0.8098
O5_3 O 0.76422(9) 0.3287(3) 0.6635(2)
O11_3 O 0.73578(9) 0.8287(3) 0.8365(2)
C1_6 C 0.25256(12) 0.5621(3) 0.5692(3)
C2_6 C 0.28008(11) 0.4908(3) 0.6342(3)
C3_6 C 0.26420(12) 0.4353(3) 0.7000(3)
H1_6 H 0.2371 0.4429 0.7037
C4_6 C 0.28893(12) 0.3693(3) 0.7593(3)
C5_6 C 0.32923(12) 0.3549(4) 0.7517(3)
H2_6 H 0.3455 0.3092 0.7913
C6_6 C 0.34546(11) 0.4084(3) 0.6852(3)
C7_6 C 0.32031(11) 0.4788(3) 0.6283(3)
H3_6 H 0.3309 0.5179 0.5859
C8_6 C 0.27247(13) 0.3113(4) 0.8337(4)
C9_6 C 0.38763(12) 0.3887(4) 0.6717(3)
C10_6 C 0.40464(13) 0.2904(4) 0.6857(4)
H4_6 H 0.3904 0.2389 0.7094
C11_6 C 0.44250(13) 0.2672(4) 0.6652(4)
H5_6 H 0.4528 0.2006 0.6744
C12_6 C 0.46479(13) 0.3429(4) 0.6311(4)
C13_6 C 0.44849(13) 0.4412(4) 0.6214(4)
H6_6 H 0.4634 0.4941 0.6018
C14_6 C 0.41060(12) 0.4633(4) 0.6400(4)
H7_6 H 0.4005 0.5300 0.6308
C15_5 C 0.50388(13) 0.3181(4) 0.6026(4)
C16_5 C 0.51260(17) 0.2176(5) 0.5801(6)
H8_6 H 0.4943 0.1650 0.5844
C17_5 C 0.54834(18) 0.1953(5) 0.5512(6)
H9_5 H 0.5540 0.1272 0.5387
C18_5 C 0.57573(13) 0.2711(4) 0.5403(4)
C19_5 C 0.56777(13) 0.3684(4) 0.5650(4)
H10_5 H 0.5862 0.4207 0.5606
C20_5 C 0.53240(14) 0.3919(4) 0.5970(4)
H11_5 H 0.5282 0.4591 0.6149
C21_5 C 0.61325(13) 0.2466(5) 0.5039(4)
O1_6 O 0.34641(14) 0.7304(4) 0.7100(3)
H12_6 H 0.3300 0.6902 0.7305
H13_6 H 0.3713 0.7462 0.7178
O2_6 O 0.33839(14) 0.9629(3) 0.6410(3)
H14_6 H 0.3614 0.9818 0.6321
H15_6 H 0.3291 0.9677 0.6902
O5_4 O 0.23578(9) 0.3287(3) 0.8365(2)
O11_4 O 0.26422(9) 0.8287(3) 0.6635(2)
C1_7 C 0.24744(12) 0.0621(3) 0.9308(3)
H3_7 H 0.1691 0.0179 0.9141
H7_7 H 0.0995 0.0300 0.8692
O1_7 O 0.15359(14) 0.2304(4) 0.7900(3)
H12_7 H 0.1700 0.1902 0.7695
H13_7 H 0.1287 0.2462 0.7822
O2_7 O 0.16161(14) 0.4629(3) 0.8590(3)
H14_7 H 0.1386 0.4818 0.8679
H15_7 H 0.1709 0.4677 0.8098
C2_7 C 0.21992(11) 0.9908(3) 0.8658(3)
C3_7 C 0.23580(12) 0.9353(3) 0.8000(3)
H1_7 H 0.2629 0.9429 0.7963
C4_7 C 0.21107(12) 0.8693(3) 0.7407(3)
C5_7 C 0.17077(12) 0.8549(4) 0.7483(3)
H2_7 H 0.1545 0.8092 0.7087
C6_7 C 0.15454(11) 0.9084(3) 0.8148(3)
C7_7 C 0.17969(11) 0.9788(3) 0.8717(3)
C8_7 C 0.22753(13) 0.8113(4) 0.6663(4)
C9_7 C 0.11237(12) 0.8887(4) 0.8283(3)
C10_7 C 0.09536(13) 0.7904(4) 0.8143(4)
H4_7 H 0.1096 0.7389 0.7906
C11_7 C 0.05750(13) 0.7672(4) 0.8348(4)
H5_7 H 0.0472 0.7006 0.8256
C12_7 C 0.03521(13) 0.8429(4) 0.8689(4)
C13_7 C 0.05151(13) 0.9412(4) 0.8786(4)
H6_7 H 0.0366 0.9941 0.8982
C14_7 C 0.08940(12) 0.9633(4) 0.8600(4)
H8_7 H 0.0057 0.6650 0.9156
C15_6 C 0.00388(13) 0.8181(4) 0.6026(4)
C16_6 C 0.01260(17) 0.7176(5) 0.5801(6)
C17_6 C 0.04834(18) 0.6953(5) 0.5512(6)
H9_6 H 0.0540 0.6272 0.5387
C18_6 C 0.07573(13) 0.7711(4) 0.5403(4)
C19_6 C 0.06777(13) 0.8684(4) 0.5650(4)
H10_6 H 0.0862 0.9207 0.5606
C20_6 C 0.03240(14) 0.8919(4) 0.5970(4)
H11_6 H 0.0282 0.9591 0.6149
C21_6 C 0.11325(13) 0.7466(5) 0.5039(4)
C1_8 C 0.75256(12) 0.0621(3) 0.5692(3)
H3_8 H 0.8309 0.0179 0.5859
H7_8 H 0.9005 0.0300 0.6308
O1_8 O 0.84641(14) 0.2304(4) 0.7100(3)
H12_8 H 0.8300 0.1902 0.7305
H13_8 H 0.8713 0.2462 0.7178
O2_8 O 0.83839(14) 0.4629(3) 0.6410(3)
H14_8 H 0.8614 0.4818 0.6321
H15_8 H 0.8291 0.4677 0.6902
C2_8 C 0.78008(11) 0.9908(3) 0.6342(3)
C3_8 C 0.76420(12) 0.9353(3) 0.7000(3)
H1_8 H 0.7371 0.9429 0.7037
C4_8 C 0.78893(12) 0.8693(3) 0.7593(3)
C5_8 C 0.82923(12) 0.8549(4) 0.7517(3)
H2_8 H 0.8455 0.8092 0.7913
C6_8 C 0.84546(11) 0.9084(3) 0.6852(3)
C7_8 C 0.82031(11) 0.9788(3) 0.6283(3)
C8_8 C 0.77247(13) 0.8113(4) 0.8337(4)
C9_8 C 0.88763(12) 0.8887(4) 0.6717(3)
C10_8 C 0.90464(13) 0.7904(4) 0.6857(4)
H4_8 H 0.8904 0.7389 0.7094
C11_8 C 0.94250(13) 0.7672(4) 0.6652(4)
H5_8 H 0.9528 0.7006 0.6744
C12_8 C 0.96479(13) 0.8429(4) 0.6311(4)
C13_8 C 0.94849(13) 0.9412(4) 0.6214(4)
H6_8 H 0.9634 0.9941 0.6018
C14_8 C 0.91060(12) 0.9633(4) 0.6400(4)
H8_8 H 0.9943 0.6650 0.5844
C15_7 C 0.00388(13) 0.1819(4) 0.1026(4)
C16_7 C 0.01260(17) 0.2824(5) 0.0801(6)
C17_7 C 0.04834(18) 0.3047(5) 0.0512(6)
H9_7 H 0.0540 0.3728 0.0387
C18_7 C 0.07573(13) 0.2289(4) 0.0403(4)
C19_7 C 0.06777(13) 0.1316(4) 0.0650(4)
H10_7 H 0.0862 0.0793 0.0606
C20_7 C 0.03240(14) 0.1081(4) 0.0970(4)
H11_7 H 0.0282 0.0409 0.1149
C21_7 C 0.11325(13) 0.2534(5) 0.0039(4)
C15_8 C 0.99612(13) 0.8181(4) 0.8974(4)
C16_8 C 0.98740(17) 0.7176(5) 0.9199(6)
C17_8 C 0.95166(18) 0.6953(5) 0.9488(6)
H9_8 H 0.9460 0.6272 0.9613
C18_8 C 0.92427(13) 0.7711(4) 0.9597(4)
C19_8 C 0.93223(13) 0.8684(4) 0.9350(4)
H10_8 H 0.9138 0.9207 0.9394
C20_8 C 0.96760(14) 0.8919(4) 0.9030(4)
H11_8 H 0.9718 0.9591 0.8851
C21_8 C 0.88675(13) 0.7466(5) 0.9961(4)
loop_
_geom_bond_atom_site_label_1
_geom_bond_atom_site_label_2
_geom_bond_site_symmetry_1
_geom_bond_site_symmetry_2
C1 C2 1_555 1_555
C2 C3 1_555 1_555
C3 H1 1_555 1_555
C4 C3 1_555 1_555
C5 C4 1_555 1_555
H2 C5 1_555 1_555
C6 C5 1_555 1_555
C7 C2 1_555 1_555
H3 C7 1_555 1_555
C8 C4 1_555 1_555
C9 C6 1_555 1_555
C10 C9 1_555 1_555
H4 C10 1_555 1_555
C11 C10 1_555 1_555
H5 C11 1_555 1_555
C12 C11 1_555 1_555
C13 C12 1_555 1_555
H6 C13 1_555 1_555
C14 C9 1_555 1_555
H7 C14 1_555 1_555
C15 C12 1_555 1_555
C16 C15 1_555 1_555
H8 C16 1_555 1_555
C17 C16 1_555 1_555
H9 C17 1_555 1_555
C18 C17 1_555 1_555
C19 C18 1_555 1_555
H10 C19 1_555 1_555
C20 C15 1_555 1_555
H11 C20 1_555 1_555
C21 C18 1_555 1_555
La1 O1 1_555 1_555
O1 H12 1_555 1_555
H13 O1 1_555 1_555
O2 La1 1_555 1_555
H14 O2 1_555 1_555
H15 O2 1_555 1_555
O3 C1 1_555 1_555
O4 C1 1_555 1_555
O5 C8 1_555 1_555
O6 C8 1_555 1_555
La2 O5 1_555 1_555
La4 O6 1_555 1_555
O11 La1 1_555 1_555
O13 La1 1_555 1_555
O14 La1 1_555 1_555
C6 C7 1_555 1_555
C13 C14 1_555 1_555
C19 C20 1_555 1_555
La1 O3 1_555 1_555
La3 O7 1_555 1_555
O8 La3 1_555 1_555
La5 O9 1_555 1_555
C1_2 C2_2 1_555 1_555
C2_2 C3_2 1_555 1_555
C3_2 H1_2 1_555 1_555
C4_2 C3_2 1_555 1_555
C5_2 C4_2 1_555 1_555
H2_2 C5_2 1_555 1_555
C6_2 C5_2 1_555 1_555
C7_2 C2_2 1_555 1_555
H3_2 C7_2 1_555 1_555
C8_2 C4_2 1_555 1_555
C9_2 C6_2 1_555 1_555
C10_2 C9_2 1_555 1_555
H4_2 C10_2 1_555 1_555
C11_2 C10_2 1_555 1_555
H5_2 C11_2 1_555 1_555
C12_2 C11_2 1_555 1_555
C13_2 C12_2 1_555 1_555
H6_2 C13_2 1_555 1_555
C14_2 C9_2 1_555 1_555
H7_2 C14_2 1_555 1_555
C15_2 C12_2 1_555 1_555
C16_2 C15_2 1_555 1_555
H8_2 C16_2 1_555 1_555
C17_2 C16_2 1_555 1_555
H9_2 C17_2 1_555 1_555
C18_2 C17_2 1_555 1_555
C19_2 C18_2 1_555 1_555
H10_2 C19_2 1_555 1_555
C20_2 C15_2 1_555 1_555
H11_2 C20_2 1_555 1_555
C21_2 C18_2 1_555 1_555
La1_2 O1_2 1_555 1_555
O1_2 H12_2 1_555 1_555
H13_2 O1_2 1_555 1_555
O2_2 La1_2 1_555 1_555
H14_2 O2_2 1_555 1_555
H15_2 O2_2 1_555 1_555
O3_2 C1_2 1_555 1_555
O4_2 C1_2 1_555 1_555
O5_2 C8_2 1_555 1_555
O6_2 C8_2 1_555 1_555
O7_2 C21_2 1_555 1_555
O8_2 C21_2 1_555 1_555
La2_2 O5_2 1_555 1_555
La4 O7_2 1_555 1_555
La5_2 O3_2 1_555 1_555
O9_2 La1_2 1_555 1_555
O10_2 La1_2 1_555 1_555
O11_2 La1_2 1_555 1_555
O12_2 La1_2 1_555 1_555
O13_2 La1_2 1_555 1_555
O14_2 La1_2 1_555 1_555
C6_2 C7_2 1_555 1_555
C13_2 C14_2 1_555 1_555
C19_2 C20_2 1_555 1_555
La1_2 O3_2 1_555 1_555
O4_2 La5_2 1_555 1_555
O8_2 La4 1_555 1_555
La5_2 O9_2 1_555 1_555
La5 O7_3 1_555 1_555
O8_3 La5 1_555 1_555
C2_3 C3_3 1_555 1_555
C3_3 H1_3 1_555 1_555
C4_3 C3_3 1_555 1_555
C5_3 C4_3 1_555 1_555
H2_3 C5_3 1_555 1_555
C6_3 C5_3 1_555 1_555
C7_3 C2_3 1_555 1_555
C8_3 C4_3 1_555 1_555
C9_3 C6_3 1_555 1_555
C10_3 C9_3 1_555 1_555
H4_3 C10_3 1_555 1_555
C11_3 C10_3 1_555 1_555
H5_3 C11_3 1_555 1_555
C12_3 C11_3 1_555 1_555
C13_3 C12_3 1_555 1_555
H6_3 C13_3 1_555 1_555
C14_3 C9_3 1_555 1_555
O11_2 C8_3 1_555 1_555
O6_3 C8_3 1_555 1_555
La5_2 O6_3 1_555 1_555
C6_3 C7_3 1_555 1_555
C13_3 C14_3 1_555 1_555
La2_2 O1_3 1_555 1_555
O1_3 H12_3 1_555 1_555
H13_3 O1_3 1_555 1_555
O2_3 La2_2 1_555 1_555
H14_3 O2_3 1_555 1_555
H15_3 O2_3 1_555 1_555
O3_3 C1_3 1_555 1_555
O4_3 C1_3 1_555 1_555
O13_3 La2_2 1_555 1_555
O14_3 La2_2 1_555 1_555
La2_2 O3_3 1_555 1_555
La3 O9_3 1_555 1_555
C2_4 C3_4 1_555 1_555
C3_4 H1_4 1_555 1_555
C4_4 C3_4 1_555 1_555
C5_4 C4_4 1_555 1_555
H2_4 C5_4 1_555 1_555
C6_4 C5_4 1_555 1_555
C7_4 C2_4 1_555 1_555
C8_4 C4_4 1_555 1_555
C9_4 C6_4 1_555 1_555
C10_4 C9_4 1_555 1_555
H4_4 C10_4 1_555 1_555
C11_4 C10_4 1_555 1_555
H5_4 C11_4 1_555 1_555
C12_4 C11_4 1_555 1_555
C13_4 C12_4 1_555 1_555
H6_4 C13_4 1_555 1_555
C14_4 C9_4 1_555 1_555
O11 C8_4 1_555 1_555
O6_4 C8_4 1_555 1_555
C6_4 C7_4 1_555 1_555
C13_4 C14_4 1_555 1_555
La2 O1_4 1_555 1_555
O1_4 H12_4 1_555 1_555
H13_4 O1_4 1_555 1_555
O2_4 La2 1_555 1_555
H14_4 O2_4 1_555 1_555
H15_4 O2_4 1_555 1_555
O3_4 C1_4 1_555 1_555
O4_4 C1_4 1_555 1_555
La4 O3_4 1_555 1_555
O9_4 La2 1_555 1_555
O10_4 La2 1_555 1_555
O12_4 La2 1_555 1_555
O13_4 La2 1_555 1_555
O14_4 La2 1_555 1_555
La2 O3_4 1_555 1_555
O4_4 La4 1_555 1_555
La4 O9_4 1_555 1_555
C16_3 C15_3 1_555 1_555
C17_3 C16_3 1_555 1_555
H9_3 C17_3 1_555 1_555
C18_3 C17_3 1_555 1_555
C19_3 C18_3 1_555 1_555
H10_3 C19_3 1_555 1_555
C20_3 C15_3 1_555 1_555
H11_3 C20_3 1_555 1_555
C21_3 C18_3 1_555 1_555
O7_4 C21_3 1_555 1_555
O8_4 C21_3 1_555 1_555
La5_2 O7_4 1_555 1_555
C19_3 C20_3 1_555 1_555
O8_4 La5_2 1_555 1_555
C1_5 C2_5 1_555 1_555
C2_5 C3_5 1_555 1_555
C3_5 H1_5 1_555 1_555
C4_5 C3_5 1_555 1_555
C5_5 C4_5 1_555 1_555
H2_5 C5_5 1_555 1_555
C6_5 C5_5 1_555 1_555
C7_5 C2_5 1_555 1_555
H3_5 C7_5 1_555 1_555
C8_5 C4_5 1_555 1_555
C9_5 C6_5 1_555 1_555
C10_5 C9_5 1_555 1_555
H4_5 C10_5 1_555 1_555
C11_5 C10_5 1_555 1_555
H5_5 C11_5 1_555 1_555
C12_5 C11_5 1_555 1_555
C13_5 C12_5 1_555 1_555
H6_5 C13_5 1_555 1_555
C14_5 C9_5 1_555 1_555
H7_5 C14_5 1_555 1_555
C15_4 C12_5 1_555 1_555
C16_4 C15_4 1_555 1_555
H8_5 C16_4 1_555 1_555
C17_4 C16_4 1_555 1_555
H9_4 C17_4 1_555 1_555
C18_4 C17_4 1_555 1_555
C19_4 C18_4 1_555 1_555
H10_4 C19_4 1_555 1_555
C20_4 C15_4 1_555 1_555
H11_4 C20_4 1_555 1_555
C21_4 C18_4 1_555 1_555
La3 O1_5 1_555 1_555
O1_5 H12_5 1_555 1_555
H13_5 O1_5 1_555 1_555
O2_5 La3 1_555 1_555
H14_5 O2_5 1_555 1_555
H15_5 O2_5 1_555 1_555
O9_3 C1_5 1_555 1_555
O10_3 C1_5 1_555 1_555
O5_3 C8_5 1_555 1_555
O12_2 C8_5 1_555 1_555
La5_2 O5_3 1_555 1_555
O11_3 La3 1_555 1_555
C6_5 C7_5 1_555 1_555
C13_5 C14_5 1_555 1_555
C19_4 C20_4 1_555 1_555
C1_6 C2_6 1_555 1_555
C2_6 C3_6 1_555 1_555
C3_6 H1_6 1_555 1_555
C4_6 C3_6 1_555 1_555
C5_6 C4_6 1_555 1_555
H2_6 C5_6 1_555 1_555
C6_6 C5_6 1_555 1_555
C7_6 C2_6 1_555 1_555
H3_6 C7_6 1_555 1_555
C8_6 C4_6 1_555 1_555
C9_6 C6_6 1_555 1_555
C10_6 C9_6 1_555 1_555
H4_6 C10_6 1_555 1_555
C11_6 C10_6 1_555 1_555
H5_6 C11_6 1_555 1_555
C12_6 C11_6 1_555 1_555
C13_6 C12_6 1_555 1_555
H6_6 C13_6 1_555 1_555
C14_6 C9_6 1_555 1_555
H7_6 C14_6 1_555 1_555
C15_5 C12_6 1_555 1_555
C16_5 C15_5 1_555 1_555
H8_6 C16_5 1_555 1_555
C17_5 C16_5 1_555 1_555
H9_5 C17_5 1_555 1_555
C18_5 C17_5 1_555 1_555
C19_5 C18_5 1_555 1_555
H10_5 C19_5 1_555 1_555
C20_5 C15_5 1_555 1_555
H11_5 C20_5 1_555 1_555
C21_5 C18_5 1_555 1_555
La4 O1_6 1_555 1_555
O1_6 H12_6 1_555 1_555
H13_6 O1_6 1_555 1_555
O2_6 La4 1_555 1_555
H14_6 O2_6 1_555 1_555
H15_6 O2_6 1_555 1_555
O9_4 C1_6 1_555 1_555
O10_4 C1_6 1_555 1_555
O5_4 C8_6 1_555 1_555
O12 C8_6 1_555 1_555
O13_2 C21_5 1_555 1_555
O14_2 C21_5 1_555 1_555
La5 O5_4 1_555 1_555
O11_4 La4 1_555 1_555
C6_6 C7_6 1_555 1_555
C13_6 C14_6 1_555 1_555
C19_5 C20_5 1_555 1_555
La5 O1_7 1_555 1_555
O1_7 H12_7 1_555 1_555
H13_7 O1_7 1_555 1_555
O2_7 La5 1_555 1_555
H14_7 O2_7 1_555 1_555
H15_7 O2_7 1_555 1_555
O9 C1_7 1_555 1_555
O10 C1_7 1_555 1_555
C2_7 C3_7 1_555 1_555
C3_7 H1_7 1_555 1_555
C4_7 C3_7 1_555 1_555
C5_7 C4_7 1_555 1_555
H2_7 C5_7 1_555 1_555
C6_7 C5_7 1_555 1_555
C7_7 C2_7 1_555 1_555
C8_7 C4_7 1_555 1_555
C9_7 C6_7 1_555 1_555
C10_7 C9_7 1_555 1_555
H4_7 C10_7 1_555 1_555
C11_7 C10_7 1_555 1_555
H5_7 C11_7 1_555 1_555
C12_7 C11_7 1_555 1_555
C13_7 C12_7 1_555 1_555
H6_7 C13_7 1_555 1_555
C14_7 C9_7 1_555 1_555
O11_4 C8_7 1_555 1_555
O12_4 C8_7 1_555 1_555
C6_7 C7_7 1_555 1_555
C13_7 C14_7 1_555 1_555
C16_6 C15_6 1_555 1_555
C17_6 C16_6 1_555 1_555
H9_6 C17_6 1_555 1_555
C18_6 C17_6 1_555 1_555
C19_6 C18_6 1_555 1_555
H10_6 C19_6 1_555 1_555
C20_6 C15_6 1_555 1_555
H11_6 C20_6 1_555 1_555
C21_6 C18_6 1_555 1_555
O13_4 C21_6 1_555 1_555
O14_4 C21_6 1_555 1_555
C19_6 C20_6 1_555 1_555
La5_2 O1_8 1_555 1_555
O1_8 H12_8 1_555 1_555
H13_8 O1_8 1_555 1_555
O2_8 La5_2 1_555 1_555
H14_8 O2_8 1_555 1_555
H15_8 O2_8 1_555 1_555
O9_2 C1_8 1_555 1_555
O10_2 C1_8 1_555 1_555
C2_8 C3_8 1_555 1_555
C3_8 H1_8 1_555 1_555
C4_8 C3_8 1_555 1_555
C5_8 C4_8 1_555 1_555
H2_8 C5_8 1_555 1_555
C6_8 C5_8 1_555 1_555
C7_8 C2_8 1_555 1_555
C8_8 C4_8 1_555 1_555
C9_8 C6_8 1_555 1_555
C10_8 C9_8 1_555 1_555
H4_8 C10_8 1_555 1_555
C11_8 C10_8 1_555 1_555
H5_8 C11_8 1_555 1_555
C12_8 C11_8 1_555 1_555
C13_8 C12_8 1_555 1_555
H6_8 C13_8 1_555 1_555
C14_8 C9_8 1_555 1_555
O11_3 C8_8 1_555 1_555
O12_3 C8_8 1_555 1_555
C6_8 C7_8 1_555 1_555
C13_8 C14_8 1_555 1_555
C16_7 C15_7 1_555 1_555
C17_7 C16_7 1_555 1_555
H9_7 C17_7 1_555 1_555
C18_7 C17_7 1_555 1_555
C19_7 C18_7 1_555 1_555
H10_7 C19_7 1_555 1_555
C20_7 C15_7 1_555 1_555
H11_7 C20_7 1_555 1_555
C21_7 C18_7 1_555 1_555
C19_7 C20_7 1_555 1_555
C16_8 C15_8 1_555 1_555
C17_8 C16_8 1_555 1_555
H9_8 C17_8 1_555 1_555
C18_8 C17_8 1_555 1_555
C19_8 C18_8 1_555 1_555
H10_8 C19_8 1_555 1_555
C20_8 C15_8 1_555 1_555
H11_8 C20_8 1_555 1_555
C21_8 C18_8 1_555 1_555
C19_8 C20_8 1_555 1_555

#END
