
###############################################################################
#
# This file contains modified crystal structure data generated from the
# MOF subset of the Cambridge Structural Database (CSD) v543 
# hosted by the Cambridge Crystallographic Data Centre (CCDC).
#
# This work is licensed under the Creative Commons
# Attribution-NonCommercial-ShareAlike 4.0 International License.
# To view a copy of this license, visit
# http://creativecommons.org/licenses/by-nc-sa/4.0/
# or send a letter to
# Creative Commons, PO Box 1866, Mountain View, CA 94042, USA.
#
# CIF created using the CSD Python API on 29 September 2022
# The structure has been converted into the P1 space group
# The structure has a 3D framework
# The original CSD entry APAYOH is in the monoclinic crystal system
# The framework has been calculated to contain at least 10.0% void space
# The void calculation uses a probe of radius 1.32A, grid spacing 0.4
#
###############################################################################

data_APAYOH
_chemical_formula_moiety         '(C168 H120 O60 Tb8)n'
_symmetry_cell_setting           triclinic
_symmetry_space_group_name_H-M   'P 1'
_symmetry_Int_Tables_number      1
_space_group_name_Hall           'P 1'
loop_
_symmetry_equiv_pos_site_id
_symmetry_equiv_pos_as_xyz
1 x,y,z
_cell_length_a                   33.13(2)
_cell_length_b                   13.572(8)
_cell_length_c                   14.049(9)
_cell_angle_alpha                90
_cell_angle_beta                 101.324(7)
_cell_angle_gamma                90
_cell_volume                     6194.02
loop_
_atom_site_label
_atom_site_type_symbol
_atom_site_fract_x
_atom_site_fract_y
_atom_site_fract_z
C3 C 0.23778(14) 0.0538(4) 0.7989(4)
H1 H 0.2652 0.0462 0.7944
C4 C 0.21328(13) 0.1216(4) 0.7409(3)
C5 C 0.17282(13) 0.1362(4) 0.7518(3)
H2 H 0.1567 0.1830 0.7134
C6 C 0.15605(14) 0.0831(4) 0.8180(4)
C7 C 0.18012(14) 0.0116(4) 0.8722(4)
C8 C 0.22974(14) 0.1781(4) 0.6643(4)
C9 C 0.11361(13) 0.1029(5) 0.8332(3)
C10 C 0.09764(16) 0.1987(5) 0.8216(5)
H4 H 0.1131 0.2486 0.8009
C11 C 0.05892(16) 0.2199(5) 0.8407(5)
H5 H 0.0489 0.2839 0.8321
C12 C 0.03549(14) 0.1499(5) 0.8714(4)
C13 C 0.05062(15) 0.0527(5) 0.8817(4)
H6 H 0.0349 0.0030 0.9020
C14 C 0.08964(14) 0.0309(5) 0.8613(4)
H8 H 0.0062 0.3160 0.9224
O7 O 0.20697(10) 0.2419(3) 0.6177(2)
O8 O 0.26590(9) 0.1581(3) 0.6553(2)
Tb3 Tb 0.19221(2) 0.29391(2) 0.45476(2)
Tb4 Tb 0.30779(2) 0.20609(2) 0.54524(2)
O1 O 0.34007(13) 0.9349(4) 0.1356(3)
H12 H 0.3647 0.9151 0.1482
H13 H 0.3243 0.9856 0.1302
O2 O 0.34208(14) 0.7294(4) 0.2006(3)
H14 H 0.3593 0.6857 0.1913
H15 H 0.3361 0.7641 0.2460
Tb1 Tb 0.30779(2) 0.79391(2) 0.04524(2)
O9 O 0.26918(10) 0.6519(3) 0.0444(2)
O10 O 0.36209(11) 0.6753(3) 0.0183(3)
O13 O 0.26590(9) 0.8419(3) 0.1553(2)
C1 C 0.24734(15) 0.9242(4) 0.9260(3)
C2 C 0.22109(13) 0.9975(4) 0.8636(3)
H3 H 0.1689 0.9725 0.9148
H7 H 0.0992 0.9664 0.8671
O3 O 0.28530(9) 0.9385(3) 0.9487(3)
O4 O 0.23082(10) 0.8481(3) 0.9556(2)
O11 O 0.37138(11) 0.8313(3) 0.9934(3)
O12 O 0.29303(10) 0.7419(3) 0.8823(2)
Tb5 Tb 0.19221(2) 0.70609(2) 0.95476(2)
O5 O 0.86209(11) 0.1753(3) 0.0183(3)
Tb2 Tb 0.80779(2) 0.29391(2) 0.04524(2)
C15 C 0.99540(15) 0.1735(5) 0.9004(4)
C16 C 0.9868(2) 0.2667(6) 0.9238(7)
C17 C 0.9497(2) 0.2907(6) 0.9499(7)
H9 H 0.9440 0.3561 0.9622
C18 C 0.92128(15) 0.2190(5) 0.9576(4)
C19 C 0.92915(16) 0.1261(5) 0.9315(5)
H10 H 0.9096 0.0773 0.9330
C20 C 0.96583(16) 0.1011(5) 0.9024(4)
H11 H 0.9704 0.0367 0.8845
C21 C 0.88254(15) 0.2445(6) 0.9919(4)
O6 O 0.87138(11) 0.3313(3) 0.9934(3)
C15_2 C 0.00460(15) 0.1735(5) 0.5996(4)
C16_2 C 0.0132(2) 0.2667(6) 0.5762(7)
C17_2 C 0.0503(2) 0.2907(6) 0.5501(7)
H9_2 H 0.0560 0.3561 0.5378
C18_2 C 0.07872(15) 0.2190(5) 0.5424(4)
C19_2 C 0.07085(16) 0.1261(5) 0.5685(5)
H10_2 H 0.0904 0.0773 0.5670
C20_2 C 0.03417(16) 0.1011(5) 0.5976(4)
H11_2 H 0.0296 0.0367 0.6155
C21_2 C 0.11746(15) 0.2445(6) 0.5081(4)
O5_2 O 0.13791(11) 0.1753(3) 0.4817(3)
O6_2 O 0.12862(11) 0.3313(3) 0.5066(3)
C3_2 C 0.76222(14) 0.0538(4) 0.7011(4)
H1_2 H 0.7348 0.0462 0.7056
C4_2 C 0.78672(13) 0.1216(4) 0.7591(3)
C5_2 C 0.82718(13) 0.1362(4) 0.7482(3)
H2_2 H 0.8433 0.1830 0.7866
C6_2 C 0.84395(14) 0.0831(4) 0.6820(4)
C7_2 C 0.81988(14) 0.0116(4) 0.6278(4)
C8_2 C 0.77026(14) 0.1781(4) 0.8357(4)
C9_2 C 0.88639(13) 0.1029(5) 0.6668(3)
C10_2 C 0.90236(16) 0.1987(5) 0.6784(5)
H4_2 H 0.8869 0.2486 0.6991
C11_2 C 0.94108(16) 0.2199(5) 0.6593(5)
H5_2 H 0.9511 0.2839 0.6679
C12_2 C 0.96451(14) 0.1499(5) 0.6286(4)
C13_2 C 0.94938(15) 0.0527(5) 0.6183(4)
H6_2 H 0.9651 0.0030 0.5980
C14_2 C 0.91036(14) 0.0309(5) 0.6387(4)
H8_2 H 0.9938 0.3160 0.5776
O7_2 O 0.79303(10) 0.2419(3) 0.8823(2)
O8_2 O 0.73410(9) 0.1581(3) 0.8447(2)
Tb4_2 Tb 0.69221(2) 0.20609(2) 0.95476(2)
C1_2 C 0.75266(15) 0.9242(4) 0.5740(3)
C2_2 C 0.77891(13) 0.9975(4) 0.6364(3)
H3_2 H 0.8311 0.9725 0.5852
H7_2 H 0.9008 0.9664 0.6329
O1_2 O 0.65993(13) 0.9349(4) 0.3644(3)
H12_2 H 0.6353 0.9151 0.3518
H13_2 H 0.6757 0.9856 0.3698
O2_2 O 0.65792(14) 0.7294(4) 0.2994(3)
H14_2 H 0.6407 0.6857 0.3087
H15_2 H 0.6639 0.7641 0.2540
O3_2 O 0.71470(9) 0.9385(3) 0.5513(3)
O4_2 O 0.76918(10) 0.8481(3) 0.5444(2)
Tb1_2 Tb 0.69221(2) 0.79391(2) 0.45476(2)
O9_2 O 0.73082(10) 0.6519(3) 0.4556(2)
O10_2 O 0.63791(11) 0.6753(3) 0.4817(3)
O11_2 O 0.62862(11) 0.8313(3) 0.5066(3)
O12_2 O 0.70697(10) 0.7419(3) 0.6177(2)
O13_2 O 0.73410(9) 0.8419(3) 0.3447(2)
Tb5_2 Tb 0.80779(2) 0.70609(2) 0.54524(2)
O1_3 O 0.84007(13) 0.4349(4) 0.1356(3)
H12_3 H 0.8647 0.4151 0.1482
H13_3 H 0.8243 0.4856 0.1302
O2_3 O 0.84208(14) 0.2294(4) 0.2006(3)
H14_3 H 0.8593 0.1857 0.1913
H15_3 H 0.8361 0.2641 0.2460
O9_3 O 0.76918(10) 0.1519(3) 0.0444(2)
O13_3 O 0.76590(9) 0.3419(3) 0.1553(2)
C1_3 C 0.74734(15) 0.4242(4) 0.9260(3)
C2_3 C 0.72109(13) 0.4975(4) 0.8636(3)
C3_3 C 0.73778(14) 0.5538(4) 0.7989(4)
H1_3 H 0.7652 0.5462 0.7944
C4_3 C 0.71328(13) 0.6216(4) 0.7409(3)
C5_3 C 0.67282(13) 0.6362(4) 0.7518(3)
H2_3 H 0.6567 0.6830 0.7134
C6_3 C 0.65605(14) 0.5831(4) 0.8180(4)
C7_3 C 0.68012(14) 0.5116(4) 0.8722(4)
H3_3 H 0.6689 0.4725 0.9148
C8_3 C 0.72974(14) 0.6781(4) 0.6643(4)
C9_3 C 0.61361(13) 0.6029(5) 0.8332(3)
C10_3 C 0.59764(16) 0.6987(5) 0.8216(5)
H4_3 H 0.6131 0.7486 0.8009
C11_3 C 0.55892(16) 0.7199(5) 0.8407(5)
H5_3 H 0.5489 0.7839 0.8321
C12_3 C 0.53549(14) 0.6499(5) 0.8714(4)
C13_3 C 0.55062(15) 0.5527(5) 0.8817(4)
H6_3 H 0.5349 0.5030 0.9020
C14_3 C 0.58964(14) 0.5309(5) 0.8613(4)
H7_3 H 0.5992 0.4664 0.8671
C15_3 C 0.49540(15) 0.6735(5) 0.9004(4)
C16_3 C 0.4868(2) 0.7667(6) 0.9238(7)
H8_3 H 0.5062 0.8160 0.9224
C17_3 C 0.4497(2) 0.7907(6) 0.9499(7)
H9_3 H 0.4440 0.8561 0.9622
C18_3 C 0.42128(15) 0.7190(5) 0.9576(4)
C19_3 C 0.42915(16) 0.6261(5) 0.9315(5)
H10_3 H 0.4096 0.5773 0.9330
C20_3 C 0.46583(16) 0.6011(5) 0.9024(4)
H11_3 H 0.4704 0.5367 0.8845
C21_3 C 0.38254(15) 0.7445(6) 0.9919(4)
O3_3 O 0.78530(9) 0.4385(3) 0.9487(3)
O4_3 O 0.73082(10) 0.3481(3) 0.9556(2)
O8_3 O 0.76590(9) 0.6581(3) 0.6553(2)
C1_4 C 0.25266(15) 0.4242(4) 0.5740(3)
C2_4 C 0.27891(13) 0.4975(4) 0.6364(3)
C3_4 C 0.26222(14) 0.5538(4) 0.7011(4)
H1_4 H 0.2348 0.5462 0.7056
C4_4 C 0.28672(13) 0.6216(4) 0.7591(3)
C5_4 C 0.32718(13) 0.6362(4) 0.7482(3)
H2_4 H 0.3433 0.6830 0.7866
C6_4 C 0.34395(14) 0.5831(4) 0.6820(4)
C7_4 C 0.31988(14) 0.5116(4) 0.6278(4)
H3_4 H 0.3311 0.4725 0.5852
C8_4 C 0.27026(14) 0.6781(4) 0.8357(4)
C9_4 C 0.38639(13) 0.6029(5) 0.6668(3)
C10_4 C 0.40236(16) 0.6987(5) 0.6784(5)
H4_4 H 0.3869 0.7486 0.6991
C11_4 C 0.44108(16) 0.7199(5) 0.6593(5)
H5_4 H 0.4511 0.7839 0.6679
C12_4 C 0.46451(14) 0.6499(5) 0.6286(4)
C13_4 C 0.44938(15) 0.5527(5) 0.6183(4)
H6_4 H 0.4651 0.5030 0.5980
C14_4 C 0.41036(14) 0.5309(5) 0.6387(4)
H7_4 H 0.4008 0.4664 0.6329
C15_4 C 0.50460(15) 0.6735(5) 0.5996(4)
C16_4 C 0.5132(2) 0.7667(6) 0.5762(7)
H8_4 H 0.4938 0.8160 0.5776
C17_4 C 0.5503(2) 0.7907(6) 0.5501(7)
H9_4 H 0.5560 0.8561 0.5378
C18_4 C 0.57872(15) 0.7190(5) 0.5424(4)
C19_4 C 0.57085(16) 0.6261(5) 0.5685(5)
H10_4 H 0.5904 0.5773 0.5670
C20_4 C 0.53417(16) 0.6011(5) 0.5976(4)
H11_4 H 0.5296 0.5367 0.6155
C21_4 C 0.61746(15) 0.7445(6) 0.5081(4)
O1_4 O 0.15993(13) 0.4349(4) 0.3644(3)
H12_4 H 0.1353 0.4151 0.3518
H13_4 H 0.1757 0.4856 0.3698
O2_4 O 0.15792(14) 0.2294(4) 0.2994(3)
H14_4 H 0.1407 0.1857 0.3087
H15_4 H 0.1639 0.2641 0.2540
O3_4 O 0.21470(9) 0.4385(3) 0.5513(3)
O4_4 O 0.26918(10) 0.3481(3) 0.5444(2)
O8_4 O 0.23410(9) 0.6581(3) 0.8447(2)
O9_4 O 0.23082(10) 0.1519(3) 0.4556(2)
O13_4 O 0.23410(9) 0.3419(3) 0.3447(2)
C15_5 C 0.00460(15) 0.8265(5) 0.0996(4)
C16_5 C 0.0132(2) 0.7333(6) 0.0762(7)
C17_5 C 0.0503(2) 0.7093(6) 0.0501(7)
H9_5 H 0.0560 0.6439 0.0378
C18_5 C 0.07872(15) 0.7810(5) 0.0424(4)
C19_5 C 0.07085(16) 0.8739(5) 0.0685(5)
H10_5 H 0.0904 0.9227 0.0670
C20_5 C 0.03417(16) 0.8989(5) 0.0976(4)
H11_5 H 0.0296 0.9633 0.1155
C21_5 C 0.11746(15) 0.7555(6) 0.0081(4)
O6_3 O 0.12862(11) 0.6687(3) 0.0066(3)
O5_3 O 0.13791(11) 0.8247(3) 0.9817(3)
C1_5 C 0.75266(15) 0.0758(4) 0.0740(3)
C2_5 C 0.77891(13) 0.0025(4) 0.1364(3)
H3_5 H 0.8311 0.0275 0.0852
H7_5 H 0.9008 0.0336 0.1329
O3_5 O 0.71470(9) 0.0615(3) 0.0513(3)
O11_3 O 0.62862(11) 0.1687(3) 0.0066(3)
O12_3 O 0.70697(10) 0.2581(3) 0.1177(2)
O1_5 O 0.65993(13) 0.0651(4) 0.8644(3)
H12_5 H 0.6353 0.0849 0.8518
H13_5 H 0.6757 0.0144 0.8698
O2_5 O 0.65792(14) 0.2706(4) 0.7994(3)
H14_5 H 0.6407 0.3143 0.8087
H15_5 H 0.6639 0.2359 0.7540
O10_3 O 0.63791(11) 0.3247(3) 0.9817(3)
C3_5 C 0.76222(14) 0.9462(4) 0.2011(4)
H1_5 H 0.7348 0.9538 0.2056
C4_5 C 0.78672(13) 0.8784(4) 0.2591(3)
C5_5 C 0.82718(13) 0.8638(4) 0.2482(3)
H2_5 H 0.8433 0.8170 0.2866
C6_5 C 0.84395(14) 0.9169(4) 0.1820(4)
C7_5 C 0.81988(14) 0.9884(4) 0.1278(4)
C8_5 C 0.77026(14) 0.8219(4) 0.3357(4)
C9_5 C 0.88639(13) 0.8971(5) 0.1668(3)
C10_5 C 0.90236(16) 0.8013(5) 0.1784(5)
H4_5 H 0.8869 0.7514 0.1991
C11_5 C 0.94108(16) 0.7801(5) 0.1593(5)
H5_5 H 0.9511 0.7161 0.1679
C12_5 C 0.96451(14) 0.8501(5) 0.1286(4)
C13_5 C 0.94938(15) 0.9473(5) 0.1183(4)
H6_5 H 0.9651 0.9970 0.0980
C14_5 C 0.91036(14) 0.9691(5) 0.1387(4)
H8_5 H 0.9938 0.6840 0.0776
O7_3 O 0.79303(10) 0.7581(3) 0.3823(2)
C1_6 C 0.24734(15) 0.0758(4) 0.4260(3)
C2_6 C 0.22109(13) 0.0025(4) 0.3636(3)
H3_6 H 0.1689 0.0275 0.4148
H7_6 H 0.0992 0.0336 0.3671
O1_6 O 0.34007(13) 0.0651(4) 0.6356(3)
H12_6 H 0.3647 0.0849 0.6482
H13_6 H 0.3243 0.0144 0.6302
O2_6 O 0.34208(14) 0.2706(4) 0.7006(3)
H14_6 H 0.3593 0.3143 0.6913
H15_6 H 0.3361 0.2359 0.7460
O3_6 O 0.28530(9) 0.0615(3) 0.4487(3)
O10_4 O 0.36209(11) 0.3247(3) 0.5183(3)
O11_4 O 0.37138(11) 0.1687(3) 0.4934(3)
O12_4 O 0.29303(10) 0.2581(3) 0.3823(2)
C3_6 C 0.23778(14) 0.9462(4) 0.2989(4)
H1_6 H 0.2652 0.9538 0.2944
C4_6 C 0.21328(13) 0.8784(4) 0.2409(3)
C5_6 C 0.17282(13) 0.8638(4) 0.2518(3)
H2_6 H 0.1567 0.8170 0.2134
C6_6 C 0.15605(14) 0.9169(4) 0.3180(4)
C7_6 C 0.18012(14) 0.9884(4) 0.3722(4)
C8_6 C 0.22974(14) 0.8219(4) 0.1643(4)
C9_6 C 0.11361(13) 0.8971(5) 0.3332(3)
C10_6 C 0.09764(16) 0.8013(5) 0.3216(5)
H4_6 H 0.1131 0.7514 0.3009
C11_6 C 0.05892(16) 0.7801(5) 0.3407(5)
H5_6 H 0.0489 0.7161 0.3321
C12_6 C 0.03549(14) 0.8501(5) 0.3714(4)
C13_6 C 0.05062(15) 0.9473(5) 0.3817(4)
H6_6 H 0.0349 0.9970 0.4020
C14_6 C 0.08964(14) 0.9691(5) 0.3613(4)
H8_6 H 0.0062 0.6840 0.4224
O7_4 O 0.20697(10) 0.7581(3) 0.1177(2)
C15_6 C 0.99540(15) 0.8265(5) 0.4004(4)
C16_6 C 0.9868(2) 0.7333(6) 0.4238(7)
C17_6 C 0.9497(2) 0.7093(6) 0.4499(7)
H9_6 H 0.9440 0.6439 0.4622
C18_6 C 0.92128(15) 0.7810(5) 0.4576(4)
C19_6 C 0.92915(16) 0.8739(5) 0.4315(5)
H10_6 H 0.9096 0.9227 0.4330
C20_6 C 0.96583(16) 0.8989(5) 0.4024(4)
H11_6 H 0.9704 0.9633 0.3845
C21_6 C 0.88254(15) 0.7555(6) 0.4919(4)
O5_4 O 0.86209(11) 0.8247(3) 0.5183(3)
O6_4 O 0.87138(11) 0.6687(3) 0.4934(3)
C1_7 C 0.25266(15) 0.5758(4) 0.0740(3)
C2_7 C 0.27891(13) 0.5025(4) 0.1364(3)
C3_7 C 0.26222(14) 0.4462(4) 0.2011(4)
H1_7 H 0.2348 0.4538 0.2056
C4_7 C 0.28672(13) 0.3784(4) 0.2591(3)
C5_7 C 0.32718(13) 0.3638(4) 0.2482(3)
H2_7 H 0.3433 0.3170 0.2866
C6_7 C 0.34395(14) 0.4169(4) 0.1820(4)
C7_7 C 0.31988(14) 0.4884(4) 0.1278(4)
H3_7 H 0.3311 0.5275 0.0852
C8_7 C 0.27026(14) 0.3219(4) 0.3357(4)
C9_7 C 0.38639(13) 0.3971(5) 0.1668(3)
C10_7 C 0.40236(16) 0.3013(5) 0.1784(5)
H4_7 H 0.3869 0.2514 0.1991
C11_7 C 0.44108(16) 0.2801(5) 0.1593(5)
H5_7 H 0.4511 0.2161 0.1679
C12_7 C 0.46451(14) 0.3501(5) 0.1286(4)
C13_7 C 0.44938(15) 0.4473(5) 0.1183(4)
H6_7 H 0.4651 0.4970 0.0980
C14_7 C 0.41036(14) 0.4691(5) 0.1387(4)
H7_7 H 0.4008 0.5336 0.1329
C15_7 C 0.50460(15) 0.3265(5) 0.0996(4)
C16_7 C 0.5132(2) 0.2333(6) 0.0762(7)
H8_7 H 0.4938 0.1840 0.0776
C17_7 C 0.5503(2) 0.2093(6) 0.0501(7)
H9_7 H 0.5560 0.1439 0.0378
C18_7 C 0.57872(15) 0.2810(5) 0.0424(4)
C19_7 C 0.57085(16) 0.3739(5) 0.0685(5)
H10_7 H 0.5904 0.4227 0.0670
C20_7 C 0.53417(16) 0.3989(5) 0.0976(4)
H11_7 H 0.5296 0.4633 0.1155
C21_7 C 0.61746(15) 0.2555(6) 0.0081(4)
O3_7 O 0.21470(9) 0.5615(3) 0.0513(3)
O1_7 O 0.15993(13) 0.5651(4) 0.8644(3)
H12_7 H 0.1353 0.5849 0.8518
H13_7 H 0.1757 0.5144 0.8698
O2_7 O 0.15792(14) 0.7706(4) 0.7994(3)
H14_7 H 0.1407 0.8143 0.8087
H15_7 H 0.1639 0.7359 0.7540
C1_8 C 0.74734(15) 0.5758(4) 0.4260(3)
C2_8 C 0.72109(13) 0.5025(4) 0.3636(3)
C3_8 C 0.73778(14) 0.4462(4) 0.2989(4)
H1_8 H 0.7652 0.4538 0.2944
C4_8 C 0.71328(13) 0.3784(4) 0.2409(3)
C5_8 C 0.67282(13) 0.3638(4) 0.2518(3)
H2_8 H 0.6567 0.3170 0.2134
C6_8 C 0.65605(14) 0.4169(4) 0.3180(4)
C7_8 C 0.68012(14) 0.4884(4) 0.3722(4)
H3_8 H 0.6689 0.5275 0.4148
C8_8 C 0.72974(14) 0.3219(4) 0.1643(4)
C9_8 C 0.61361(13) 0.3971(5) 0.3332(3)
C10_8 C 0.59764(16) 0.3013(5) 0.3216(5)
H4_8 H 0.6131 0.2514 0.3009
C11_8 C 0.55892(16) 0.2801(5) 0.3407(5)
H5_8 H 0.5489 0.2161 0.3321
C12_8 C 0.53549(14) 0.3501(5) 0.3714(4)
C13_8 C 0.55062(15) 0.4473(5) 0.3817(4)
H6_8 H 0.5349 0.4970 0.4020
C14_8 C 0.58964(14) 0.4691(5) 0.3613(4)
H7_8 H 0.5992 0.5336 0.3671
C15_8 C 0.49540(15) 0.3265(5) 0.4004(4)
C16_8 C 0.4868(2) 0.2333(6) 0.4238(7)
H8_8 H 0.5062 0.1840 0.4224
C17_8 C 0.4497(2) 0.2093(6) 0.4499(7)
H9_8 H 0.4440 0.1439 0.4622
C18_8 C 0.42128(15) 0.2810(5) 0.4576(4)
C19_8 C 0.42915(16) 0.3739(5) 0.4315(5)
H10_8 H 0.4096 0.4227 0.4330
C20_8 C 0.46583(16) 0.3989(5) 0.4024(4)
H11_8 H 0.4704 0.4633 0.3845
C21_8 C 0.38254(15) 0.2555(6) 0.4919(4)
O1_8 O 0.84007(13) 0.5651(4) 0.6356(3)
H12_8 H 0.8647 0.5849 0.6482
H13_8 H 0.8243 0.5144 0.6302
O2_8 O 0.84208(14) 0.7706(4) 0.7006(3)
H14_8 H 0.8593 0.8143 0.6913
H15_8 H 0.8361 0.7359 0.7460
O3_8 O 0.78530(9) 0.5615(3) 0.4487(3)
loop_
_geom_bond_atom_site_label_1
_geom_bond_atom_site_label_2
_geom_bond_site_symmetry_1
_geom_bond_site_symmetry_2
C3 H1 1_555 1_555
C4 C3 1_555 1_555
C5 C4 1_555 1_555
H2 C5 1_555 1_555
C6 C5 1_555 1_555
C8 C4 1_555 1_555
C9 C6 1_555 1_555
C10 C9 1_555 1_555
H4 C10 1_555 1_555
C11 C10 1_555 1_555
H5 C11 1_555 1_555
C12 C11 1_555 1_555
C13 C12 1_555 1_555
H6 C13 1_555 1_555
C14 C9 1_555 1_555
O7 C8 1_555 1_555
O8 C8 1_555 1_555
Tb3 O7 1_555 1_555
Tb4 O8 1_555 1_555
C6 C7 1_555 1_555
C13 C14 1_555 1_555
O1 H12 1_555 1_555
H13 O1 1_555 1_555
O2 H14 1_555 1_555
H15 O2 1_555 1_555
Tb1 O1 1_555 1_555
O9 Tb1 1_555 1_555
O10 Tb1 1_555 1_555
O13 Tb1 1_555 1_555
O2 Tb1 1_555 1_555
C1 C2 1_555 1_555
O3 C1 1_555 1_555
O4 C1 1_555 1_555
Tb5 O4 1_555 1_555
Tb2 O5 1_555 1_555
C16 C15 1_555 1_555
C17 C16 1_555 1_555
H9 C17 1_555 1_555
C18 C17 1_555 1_555
C19 C18 1_555 1_555
H10 C19 1_555 1_555
C20 C15 1_555 1_555
H11 C20 1_555 1_555
C21 C18 1_555 1_555
O6 C21 1_555 1_555
C19 C20 1_555 1_555
C16_2 C15_2 1_555 1_555
C17_2 C16_2 1_555 1_555
H9_2 C17_2 1_555 1_555
C18_2 C17_2 1_555 1_555
C19_2 C18_2 1_555 1_555
H10_2 C19_2 1_555 1_555
C20_2 C15_2 1_555 1_555
H11_2 C20_2 1_555 1_555
C21_2 C18_2 1_555 1_555
O5_2 C21_2 1_555 1_555
O6_2 C21_2 1_555 1_555
Tb3 O5_2 1_555 1_555
C19_2 C20_2 1_555 1_555
O6_2 Tb3 1_555 1_555
C3_2 H1_2 1_555 1_555
C4_2 C3_2 1_555 1_555
C5_2 C4_2 1_555 1_555
H2_2 C5_2 1_555 1_555
C6_2 C5_2 1_555 1_555
C8_2 C4_2 1_555 1_555
C9_2 C6_2 1_555 1_555
C10_2 C9_2 1_555 1_555
H4_2 C10_2 1_555 1_555
C11_2 C10_2 1_555 1_555
H5_2 C11_2 1_555 1_555
C12_2 C11_2 1_555 1_555
C13_2 C12_2 1_555 1_555
H6_2 C13_2 1_555 1_555
C14_2 C9_2 1_555 1_555
O7_2 C8_2 1_555 1_555
O8_2 C8_2 1_555 1_555
Tb4_2 O8_2 1_555 1_555
C6_2 C7_2 1_555 1_555
C13_2 C14_2 1_555 1_555
C1_2 C2_2 1_555 1_555
O1_2 H12_2 1_555 1_555
H13_2 O1_2 1_555 1_555
O2_2 H14_2 1_555 1_555
H15_2 O2_2 1_555 1_555
O3_2 C1_2 1_555 1_555
O4_2 C1_2 1_555 1_555
Tb1_2 O1_2 1_555 1_555
O9_2 Tb1_2 1_555 1_555
O10_2 Tb1_2 1_555 1_555
O11_2 Tb1_2 1_555 1_555
O12_2 Tb1_2 1_555 1_555
O13_2 Tb1_2 1_555 1_555
Tb5_2 O4_2 1_555 1_555
O2_2 Tb1_2 1_555 1_555
O3_2 Tb1_2 1_555 1_555
O4_2 Tb1_2 1_555 1_555
O9_2 Tb5_2 1_555 1_555
O1_3 H12_3 1_555 1_555
H13_3 O1_3 1_555 1_555
O2_3 H14_3 1_555 1_555
H15_3 O2_3 1_555 1_555
Tb2 O1_3 1_555 1_555
O9_3 Tb2 1_555 1_555
O13_3 Tb2 1_555 1_555
O2_3 Tb2 1_555 1_555
C1_3 C2_3 1_555 1_555
C2_3 C3_3 1_555 1_555
C3_3 H1_3 1_555 1_555
C4_3 C3_3 1_555 1_555
C5_3 C4_3 1_555 1_555
H2_3 C5_3 1_555 1_555
C6_3 C5_3 1_555 1_555
C7_3 C2_3 1_555 1_555
H3_3 C7_3 1_555 1_555
C8_3 C4_3 1_555 1_555
C9_3 C6_3 1_555 1_555
C10_3 C9_3 1_555 1_555
H4_3 C10_3 1_555 1_555
C11_3 C10_3 1_555 1_555
H5_3 C11_3 1_555 1_555
C12_3 C11_3 1_555 1_555
C13_3 C12_3 1_555 1_555
H6_3 C13_3 1_555 1_555
C14_3 C9_3 1_555 1_555
H7_3 C14_3 1_555 1_555
C15_3 C12_3 1_555 1_555
C16_3 C15_3 1_555 1_555
H8_3 C16_3 1_555 1_555
C17_3 C16_3 1_555 1_555
H9_3 C17_3 1_555 1_555
C18_3 C17_3 1_555 1_555
C19_3 C18_3 1_555 1_555
H10_3 C19_3 1_555 1_555
C20_3 C15_3 1_555 1_555
H11_3 C20_3 1_555 1_555
C21_3 C18_3 1_555 1_555
O3_3 C1_3 1_555 1_555
O4_3 C1_3 1_555 1_555
O11 C21_3 1_555 1_555
O12_2 C8_3 1_555 1_555
O8_3 C8_3 1_555 1_555
Tb5_2 O8_3 1_555 1_555
Tb4_2 O4_3 1_555 1_555
C6_3 C7_3 1_555 1_555
C13_3 C14_3 1_555 1_555
C19_3 C20_3 1_555 1_555
C1_4 C2_4 1_555 1_555
C2_4 C3_4 1_555 1_555
C3_4 H1_4 1_555 1_555
C4_4 C3_4 1_555 1_555
C5_4 C4_4 1_555 1_555
H2_4 C5_4 1_555 1_555
C6_4 C5_4 1_555 1_555
C7_4 C2_4 1_555 1_555
H3_4 C7_4 1_555 1_555
C8_4 C4_4 1_555 1_555
C9_4 C6_4 1_555 1_555
C10_4 C9_4 1_555 1_555
H4_4 C10_4 1_555 1_555
C11_4 C10_4 1_555 1_555
H5_4 C11_4 1_555 1_555
C12_4 C11_4 1_555 1_555
C13_4 C12_4 1_555 1_555
H6_4 C13_4 1_555 1_555
C14_4 C9_4 1_555 1_555
H7_4 C14_4 1_555 1_555
C15_4 C12_4 1_555 1_555
C16_4 C15_4 1_555 1_555
H8_4 C16_4 1_555 1_555
C17_4 C16_4 1_555 1_555
H9_4 C17_4 1_555 1_555
C18_4 C17_4 1_555 1_555
C19_4 C18_4 1_555 1_555
H10_4 C19_4 1_555 1_555
C20_4 C15_4 1_555 1_555
H11_4 C20_4 1_555 1_555
C21_4 C18_4 1_555 1_555
O1_4 H12_4 1_555 1_555
H13_4 O1_4 1_555 1_555
O2_4 H14_4 1_555 1_555
H15_4 O2_4 1_555 1_555
O3_4 C1_4 1_555 1_555
O4_4 C1_4 1_555 1_555
O10_2 C21_4 1_555 1_555
O11_2 C21_4 1_555 1_555
O12 C8_4 1_555 1_555
O8_4 C8_4 1_555 1_555
Tb3 O1_4 1_555 1_555
O9_4 Tb3 1_555 1_555
O13_4 Tb3 1_555 1_555
Tb5 O8_4 1_555 1_555
Tb4 O4_4 1_555 1_555
C6_4 C7_4 1_555 1_555
C13_4 C14_4 1_555 1_555
C19_4 C20_4 1_555 1_555
O2_4 Tb3 1_555 1_555
O3_4 Tb3 1_555 1_555
O4_4 Tb3 1_555 1_555
O9_4 Tb4 1_555 1_555
C16_5 C15_5 1_555 1_555
C17_5 C16_5 1_555 1_555
H9_5 C17_5 1_555 1_555
C18_5 C17_5 1_555 1_555
C19_5 C18_5 1_555 1_555
H10_5 C19_5 1_555 1_555
C20_5 C15_5 1_555 1_555
H11_5 C20_5 1_555 1_555
C21_5 C18_5 1_555 1_555
O6_3 C21_5 1_555 1_555
C19_5 C20_5 1_555 1_555
Tb5 O5_3 1_555 1_555
C1_5 C2_5 1_555 1_555
O3_5 C1_5 1_555 1_555
O9_3 C1_5 1_555 1_555
O1_5 H12_5 1_555 1_555
H13_5 O1_5 1_555 1_555
O2_5 H14_5 1_555 1_555
H15_5 O2_5 1_555 1_555
Tb4_2 O1_5 1_555 1_555
O10_3 Tb4_2 1_555 1_555
O2_5 Tb4_2 1_555 1_555
C3_5 H1_5 1_555 1_555
C4_5 C3_5 1_555 1_555
C5_5 C4_5 1_555 1_555
H2_5 C5_5 1_555 1_555
C6_5 C5_5 1_555 1_555
C8_5 C4_5 1_555 1_555
C9_5 C6_5 1_555 1_555
C10_5 C9_5 1_555 1_555
H4_5 C10_5 1_555 1_555
C11_5 C10_5 1_555 1_555
H5_5 C11_5 1_555 1_555
C12_5 C11_5 1_555 1_555
C13_5 C12_5 1_555 1_555
H6_5 C13_5 1_555 1_555
C14_5 C9_5 1_555 1_555
O7_3 C8_5 1_555 1_555
O13_2 C8_5 1_555 1_555
Tb5_2 O7_3 1_555 1_555
C6_5 C7_5 1_555 1_555
C13_5 C14_5 1_555 1_555
C1_6 C2_6 1_555 1_555
O1_6 H12_6 1_555 1_555
H13_6 O1_6 1_555 1_555
O2_6 H14_6 1_555 1_555
H15_6 O2_6 1_555 1_555
O3_6 C1_6 1_555 1_555
O9_4 C1_6 1_555 1_555
Tb4 O1_6 1_555 1_555
O10_4 Tb4 1_555 1_555
O11_4 Tb4 1_555 1_555
O12_4 Tb4 1_555 1_555
O2_6 Tb4 1_555 1_555
O3_6 Tb4 1_555 1_555
C3_6 H1_6 1_555 1_555
C4_6 C3_6 1_555 1_555
C5_6 C4_6 1_555 1_555
H2_6 C5_6 1_555 1_555
C6_6 C5_6 1_555 1_555
C8_6 C4_6 1_555 1_555
C9_6 C6_6 1_555 1_555
C10_6 C9_6 1_555 1_555
H4_6 C10_6 1_555 1_555
C11_6 C10_6 1_555 1_555
H5_6 C11_6 1_555 1_555
C12_6 C11_6 1_555 1_555
C13_6 C12_6 1_555 1_555
H6_6 C13_6 1_555 1_555
C14_6 C9_6 1_555 1_555
O7_4 C8_6 1_555 1_555
O13 C8_6 1_555 1_555
C6_6 C7_6 1_555 1_555
C13_6 C14_6 1_555 1_555
C16_6 C15_6 1_555 1_555
C17_6 C16_6 1_555 1_555
H9_6 C17_6 1_555 1_555
C18_6 C17_6 1_555 1_555
C19_6 C18_6 1_555 1_555
H10_6 C19_6 1_555 1_555
C20_6 C15_6 1_555 1_555
H11_6 C20_6 1_555 1_555
C21_6 C18_6 1_555 1_555
O5_4 C21_6 1_555 1_555
O6_4 C21_6 1_555 1_555
Tb5_2 O5_4 1_555 1_555
C19_6 C20_6 1_555 1_555
O6_4 Tb5_2 1_555 1_555
C1_7 C2_7 1_555 1_555
C2_7 C3_7 1_555 1_555
C3_7 H1_7 1_555 1_555
C4_7 C3_7 1_555 1_555
C5_7 C4_7 1_555 1_555
H2_7 C5_7 1_555 1_555
C6_7 C5_7 1_555 1_555
C7_7 C2_7 1_555 1_555
H3_7 C7_7 1_555 1_555
C8_7 C4_7 1_555 1_555
C9_7 C6_7 1_555 1_555
C10_7 C9_7 1_555 1_555
H4_7 C10_7 1_555 1_555
C11_7 C10_7 1_555 1_555
H5_7 C11_7 1_555 1_555
C12_7 C11_7 1_555 1_555
C13_7 C12_7 1_555 1_555
H6_7 C13_7 1_555 1_555
C14_7 C9_7 1_555 1_555
H7_7 C14_7 1_555 1_555
C15_7 C12_7 1_555 1_555
C16_7 C15_7 1_555 1_555
H8_7 C16_7 1_555 1_555
C17_7 C16_7 1_555 1_555
H9_7 C17_7 1_555 1_555
C18_7 C17_7 1_555 1_555
C19_7 C18_7 1_555 1_555
H10_7 C19_7 1_555 1_555
C20_7 C15_7 1_555 1_555
H11_7 C20_7 1_555 1_555
C21_7 C18_7 1_555 1_555
O3_7 C1_7 1_555 1_555
O9 C1_7 1_555 1_555
O11_3 C21_7 1_555 1_555
O12_4 C8_7 1_555 1_555
O13_4 C8_7 1_555 1_555
C6_7 C7_7 1_555 1_555
C13_7 C14_7 1_555 1_555
C19_7 C20_7 1_555 1_555
O1_7 H12_7 1_555 1_555
H13_7 O1_7 1_555 1_555
O2_7 H14_7 1_555 1_555
H15_7 O2_7 1_555 1_555
Tb5 O1_7 1_555 1_555
O2_7 Tb5 1_555 1_555
C1_8 C2_8 1_555 1_555
C2_8 C3_8 1_555 1_555
C3_8 H1_8 1_555 1_555
C4_8 C3_8 1_555 1_555
C5_8 C4_8 1_555 1_555
H2_8 C5_8 1_555 1_555
C6_8 C5_8 1_555 1_555
C7_8 C2_8 1_555 1_555
H3_8 C7_8 1_555 1_555
C8_8 C4_8 1_555 1_555
C9_8 C6_8 1_555 1_555
C10_8 C9_8 1_555 1_555
H4_8 C10_8 1_555 1_555
C11_8 C10_8 1_555 1_555
H5_8 C11_8 1_555 1_555
C12_8 C11_8 1_555 1_555
C13_8 C12_8 1_555 1_555
H6_8 C13_8 1_555 1_555
C14_8 C9_8 1_555 1_555
H7_8 C14_8 1_555 1_555
C15_8 C12_8 1_555 1_555
C16_8 C15_8 1_555 1_555
H8_8 C16_8 1_555 1_555
C17_8 C16_8 1_555 1_555
H9_8 C17_8 1_555 1_555
C18_8 C17_8 1_555 1_555
C19_8 C18_8 1_555 1_555
H10_8 C19_8 1_555 1_555
C20_8 C15_8 1_555 1_555
H11_8 C20_8 1_555 1_555
C21_8 C18_8 1_555 1_555
O1_8 H12_8 1_555 1_555
H13_8 O1_8 1_555 1_555
O2_8 H14_8 1_555 1_555
H15_8 O2_8 1_555 1_555
O3_8 C1_8 1_555 1_555
O9_2 C1_8 1_555 1_555
O10_4 C21_8 1_555 1_555
O11_4 C21_8 1_555 1_555
O12_3 C8_8 1_555 1_555
O13_3 C8_8 1_555 1_555
Tb5_2 O1_8 1_555 1_555
C6_8 C7_8 1_555 1_555
C13_8 C14_8 1_555 1_555
C19_8 C20_8 1_555 1_555
O2_8 Tb5_2 1_555 1_555
O3_8 Tb5_2 1_555 1_555

#END
