
###############################################################################
#
# This file contains modified crystal structure data generated from the
# MOF subset of the Cambridge Structural Database (CSD) v543 
# hosted by the Cambridge Crystallographic Data Centre (CCDC).
#
# This work is licensed under the Creative Commons
# Attribution-NonCommercial-ShareAlike 4.0 International License.
# To view a copy of this license, visit
# http://creativecommons.org/licenses/by-nc-sa/4.0/
# or send a letter to
# Creative Commons, PO Box 1866, Mountain View, CA 94042, USA.
#
# CIF created using the CSD Python API on 29 September 2022
# The structure has been converted into the P1 space group
# The structure has a 3D framework
# The original CSD entry APAZOI is in the monoclinic crystal system
# The framework has been calculated to contain at least 10.0% void space
# The void calculation uses a probe of radius 1.32A, grid spacing 0.4
#
###############################################################################

data_APAZOI
_chemical_formula_moiety         '(C120 H88 La8 O64)n'
_symmetry_cell_setting           triclinic
_symmetry_space_group_name_H-M   'P 1'
_symmetry_Int_Tables_number      1
_space_group_name_Hall           'P 1'
loop_
_symmetry_equiv_pos_site_id
_symmetry_equiv_pos_as_xyz
1 x,y,z
_cell_length_a                   24.799(18)
_cell_length_b                   13.263(10)
_cell_length_c                   14.971(11)
_cell_angle_alpha                90
_cell_angle_beta                 96.635(8)
_cell_angle_gamma                90
_cell_volume                     4891.12
loop_
_atom_site_label
_atom_site_type_symbol
_atom_site_fract_x
_atom_site_fract_y
_atom_site_fract_z
C2 C 0.2149(2) 0.0070(4) 0.8696(4)
C3 C 0.2367(2) 0.0567(4) 0.7995(3)
H1 H 0.2722 0.0436 0.7887
C4 C 0.2059(2) 0.1244(4) 0.7469(3)
C5 C 0.1535(2) 0.1465(5) 0.7656(4)
H2 H 0.1327 0.1929 0.7300
C6 C 0.1316(2) 0.1004(4) 0.8367(4)
C7 C 0.1622(2) 0.0276(4) 0.8861(3)
C8 C 0.2274(2) 0.1738(5) 0.6665(4)
C9 C 0.0774(2) 0.1312(5) 0.8604(4)
C10 C 0.0616(3) 0.2322(5) 0.8544(5)
H4 H 0.0841 0.2794 0.8317
C11 C 0.0127(3) 0.2631(5) 0.8819(5)
H5 H 0.0023 0.3304 0.8763
C14 C 0.0428(2) 0.0632(5) 0.8934(4)
O5 O 0.27489(16) 0.1514(4) 0.6523(3)
O6 O 0.19728(18) 0.2347(4) 0.6236(3)
La3 La 0.17011(2) 0.29215(2) 0.46936(2)
La4 La 0.32989(2) 0.20785(2) 0.53064(2)
La1 La 0.32989(2) 0.79215(2) 0.03064(2)
O1 O 0.3798(3) 0.9430(6) 0.1064(5)
H8 H 0.3911 0.9806 0.0665
H9 H 0.3580 0.9761 0.1352
O2 O 0.3751(3) 0.7234(5) 0.1788(4)
H10 H 0.3975 0.6778 0.1680
H11 H 0.3920 0.7708 0.2083
O9 O 0.27316(15) 0.6398(3) 0.0382(3)
O10 O 0.27489(16) 0.8486(4) 0.1523(3)
C1 C 0.2495(2) 0.9338(4) 0.9261(4)
H3 H 0.1471 0.9922 0.9308
H7 H 0.0523 0.9953 0.8970
O3 O 0.29936(16) 0.9466(3) 0.9363(3)
O4 O 0.22684(15) 0.8602(3) 0.9618(3)
La5 La 0.17011(2) 0.70785(2) 0.96936(2)
O11 O 0.30272(18) 0.7347(4) 0.8764(3)
O12 O 0.41598(19) 0.8193(4) 0.9533(4)
O13 O 0.40199(17) 0.6632(4) 0.9937(3)
La2 La 0.82989(2) 0.29215(2) 0.03064(2)
C12 C 0.9793(2) 0.1939(4) 0.9177(4)
C13 C 0.9937(2) 0.0941(5) 0.9214(4)
H6 H 0.9707 0.0468 0.9428
C15 C 0.9297(2) 0.2284(5) 0.9574(4)
O7 O 0.91598(19) 0.3193(4) 0.9533(4)
O8 O 0.90199(17) 0.1632(4) 0.9937(3)
C12_2 C 0.0207(2) 0.1939(4) 0.5823(4)
C13_2 C 0.0063(2) 0.0941(5) 0.5786(4)
H6_2 H 0.0293 0.0468 0.5572
C15_2 C 0.0703(2) 0.2284(5) 0.5426(4)
O7_2 O 0.08402(19) 0.3193(4) 0.5467(4)
O8_2 O 0.09801(17) 0.1632(4) 0.5063(3)
C2_2 C 0.7851(2) 0.0070(4) 0.6304(4)
C3_2 C 0.7633(2) 0.0567(4) 0.7005(3)
H1_2 H 0.7278 0.0436 0.7113
C4_2 C 0.7941(2) 0.1244(4) 0.7531(3)
C5_2 C 0.8465(2) 0.1465(5) 0.7344(4)
H2_2 H 0.8673 0.1929 0.7700
C6_2 C 0.8684(2) 0.1004(4) 0.6633(4)
C7_2 C 0.8378(2) 0.0276(4) 0.6139(3)
C8_2 C 0.7726(2) 0.1738(5) 0.8335(4)
C9_2 C 0.9226(2) 0.1312(5) 0.6396(4)
C10_2 C 0.9384(3) 0.2322(5) 0.6456(5)
H4_2 H 0.9159 0.2794 0.6683
C11_2 C 0.9873(3) 0.2631(5) 0.6181(5)
H5_2 H 0.9977 0.3304 0.6237
C14_2 C 0.9572(2) 0.0632(5) 0.6066(4)
O5_2 O 0.72511(16) 0.1514(4) 0.8477(3)
O6_2 O 0.80272(18) 0.2347(4) 0.8764(3)
La4_2 La 0.67011(2) 0.20785(2) 0.96936(2)
C1_2 C 0.7505(2) 0.9338(4) 0.5739(4)
H3_2 H 0.8529 0.9922 0.5692
H7_2 H 0.9477 0.9953 0.6030
La1_2 La 0.67011(2) 0.79215(2) 0.46936(2)
O1_2 O 0.6202(3) 0.9430(6) 0.3936(5)
H8_2 H 0.6089 0.9806 0.4335
H9_2 H 0.6420 0.9761 0.3648
O2_2 O 0.6249(3) 0.7234(5) 0.3212(4)
H10_2 H 0.6025 0.6778 0.3320
H11_2 H 0.6080 0.7708 0.2917
O3_2 O 0.70064(16) 0.9466(3) 0.5637(3)
O4_2 O 0.77316(15) 0.8602(3) 0.5382(3)
La5_2 La 0.82989(2) 0.70785(2) 0.53064(2)
O9_2 O 0.72684(15) 0.6398(3) 0.4618(3)
O10_2 O 0.72511(16) 0.8486(4) 0.3477(3)
O11_2 O 0.69728(18) 0.7347(4) 0.6236(3)
O12_2 O 0.58402(19) 0.8193(4) 0.5467(4)
O13_2 O 0.59801(17) 0.6632(4) 0.5063(3)
O1_3 O 0.8798(3) 0.4430(6) 0.1064(5)
H8_3 H 0.8911 0.4806 0.0665
H9_3 H 0.8580 0.4761 0.1352
O2_3 O 0.8751(3) 0.2234(5) 0.1788(4)
H10_3 H 0.8975 0.1778 0.1680
H11_3 H 0.8920 0.2708 0.2083
O9_3 O 0.77316(15) 0.1398(3) 0.0382(3)
O10_3 O 0.77489(16) 0.3486(4) 0.1523(3)
C1_3 C 0.7495(2) 0.4338(4) 0.9261(4)
C2_3 C 0.7149(2) 0.5070(4) 0.8696(4)
C3_3 C 0.7367(2) 0.5567(4) 0.7995(3)
H1_3 H 0.7722 0.5436 0.7887
C4_3 C 0.7059(2) 0.6244(4) 0.7469(3)
C5_3 C 0.6535(2) 0.6465(5) 0.7656(4)
H2_3 H 0.6327 0.6929 0.7300
C6_3 C 0.6316(2) 0.6004(4) 0.8367(4)
C7_3 C 0.6622(2) 0.5276(4) 0.8861(3)
H3_3 H 0.6471 0.4922 0.9308
C8_3 C 0.7274(2) 0.6738(5) 0.6665(4)
C9_3 C 0.5774(2) 0.6312(5) 0.8604(4)
C10_3 C 0.5616(3) 0.7322(5) 0.8544(5)
H4_3 H 0.5841 0.7794 0.8317
C11_3 C 0.5127(3) 0.7631(5) 0.8819(5)
H5_3 H 0.5023 0.8304 0.8763
C12_3 C 0.4793(2) 0.6939(4) 0.9177(4)
C13_3 C 0.4937(2) 0.5941(5) 0.9214(4)
H6_3 H 0.4707 0.5468 0.9428
C14_3 C 0.5428(2) 0.5632(5) 0.8934(4)
H7_3 H 0.5523 0.4953 0.8970
C15_3 C 0.4297(2) 0.7284(5) 0.9574(4)
O3_3 O 0.79936(16) 0.4466(3) 0.9363(3)
O4_3 O 0.72684(15) 0.3602(3) 0.9618(3)
O5_3 O 0.77489(16) 0.6514(4) 0.6523(3)
C1_4 C 0.2505(2) 0.4338(4) 0.5739(4)
C2_4 C 0.2851(2) 0.5070(4) 0.6304(4)
C3_4 C 0.2633(2) 0.5567(4) 0.7005(3)
H1_4 H 0.2278 0.5436 0.7113
C4_4 C 0.2941(2) 0.6244(4) 0.7531(3)
C5_4 C 0.3465(2) 0.6465(5) 0.7344(4)
H2_4 H 0.3673 0.6929 0.7700
C6_4 C 0.3684(2) 0.6004(4) 0.6633(4)
C7_4 C 0.3378(2) 0.5276(4) 0.6139(3)
H3_4 H 0.3529 0.4922 0.5692
C8_4 C 0.2726(2) 0.6738(5) 0.8335(4)
C9_4 C 0.4226(2) 0.6312(5) 0.6396(4)
C10_4 C 0.4384(3) 0.7322(5) 0.6456(5)
H4_4 H 0.4159 0.7794 0.6683
C11_4 C 0.4873(3) 0.7631(5) 0.6181(5)
H5_4 H 0.4977 0.8304 0.6237
C12_4 C 0.5207(2) 0.6939(4) 0.5823(4)
C13_4 C 0.5063(2) 0.5941(5) 0.5786(4)
H6_4 H 0.5293 0.5468 0.5572
C14_4 C 0.4572(2) 0.5632(5) 0.6066(4)
H7_4 H 0.4477 0.4953 0.6030
C15_4 C 0.5703(2) 0.7284(5) 0.5426(4)
O1_4 O 0.1202(3) 0.4430(6) 0.3936(5)
H8_4 H 0.1089 0.4806 0.4335
H9_4 H 0.1420 0.4761 0.3648
O2_4 O 0.1249(3) 0.2234(5) 0.3212(4)
H10_4 H 0.1025 0.1778 0.3320
H11_4 H 0.1080 0.2708 0.2917
O3_4 O 0.20064(16) 0.4466(3) 0.5637(3)
O4_4 O 0.27316(15) 0.3602(3) 0.5382(3)
O5_4 O 0.22511(16) 0.6514(4) 0.8477(3)
O9_4 O 0.22684(15) 0.1398(3) 0.4618(3)
O10_4 O 0.22511(16) 0.3486(4) 0.3477(3)
C12_5 C 0.0207(2) 0.8061(4) 0.0823(4)
C13_5 C 0.0063(2) 0.9059(5) 0.0786(4)
H6_5 H 0.0293 0.9532 0.0572
C15_5 C 0.0703(2) 0.7716(5) 0.0426(4)
O7_3 O 0.08402(19) 0.6807(4) 0.0467(4)
O8_3 O 0.09801(17) 0.8368(4) 0.0063(3)
C1_5 C 0.7505(2) 0.0662(4) 0.0739(4)
H3_5 H 0.8529 0.0078 0.0692
H7_5 H 0.9477 0.0047 0.1030
O3_5 O 0.70064(16) 0.0534(3) 0.0637(3)
O11_3 O 0.69728(18) 0.2653(4) 0.1236(3)
O12_3 O 0.58402(19) 0.1807(4) 0.0467(4)
O13_3 O 0.59801(17) 0.3368(4) 0.0063(3)
O1_5 O 0.6202(3) 0.0570(6) 0.8936(5)
H8_5 H 0.6089 0.0194 0.9335
H9_5 H 0.6420 0.0239 0.8648
O2_5 O 0.6249(3) 0.2766(5) 0.8212(4)
H10_5 H 0.6025 0.3222 0.8320
H11_5 H 0.6080 0.2292 0.7917
C2_5 C 0.7851(2) 0.9930(4) 0.1304(4)
C3_5 C 0.7633(2) 0.9433(4) 0.2005(3)
H1_5 H 0.7278 0.9564 0.2113
C4_5 C 0.7941(2) 0.8756(4) 0.2531(3)
C5_5 C 0.8465(2) 0.8535(5) 0.2344(4)
H2_5 H 0.8673 0.8071 0.2700
C6_5 C 0.8684(2) 0.8996(4) 0.1633(4)
C7_5 C 0.8378(2) 0.9724(4) 0.1139(3)
C8_5 C 0.7726(2) 0.8262(5) 0.3335(4)
C9_5 C 0.9226(2) 0.8688(5) 0.1396(4)
C10_5 C 0.9384(3) 0.7678(5) 0.1456(5)
H4_5 H 0.9159 0.7206 0.1683
C11_5 C 0.9873(3) 0.7369(5) 0.1181(5)
H5_5 H 0.9977 0.6696 0.1237
C14_5 C 0.9572(2) 0.9368(5) 0.1066(4)
O6_3 O 0.80272(18) 0.7653(4) 0.3764(3)
C1_6 C 0.2495(2) 0.0662(4) 0.4261(4)
H3_6 H 0.1471 0.0078 0.4308
H7_6 H 0.0523 0.0047 0.3970
O1_6 O 0.3798(3) 0.0570(6) 0.6064(5)
H8_6 H 0.3911 0.0194 0.5665
H9_6 H 0.3580 0.0239 0.6352
O2_6 O 0.3751(3) 0.2766(5) 0.6788(4)
H10_6 H 0.3975 0.3222 0.6680
H11_6 H 0.3920 0.2292 0.7083
O3_6 O 0.29936(16) 0.0534(3) 0.4363(3)
O11_4 O 0.30272(18) 0.2653(4) 0.3764(3)
O12_4 O 0.41598(19) 0.1807(4) 0.4533(4)
O13_4 O 0.40199(17) 0.3368(4) 0.4937(3)
C2_6 C 0.2149(2) 0.9930(4) 0.3696(4)
C3_6 C 0.2367(2) 0.9433(4) 0.2995(3)
H1_6 H 0.2722 0.9564 0.2887
C4_6 C 0.2059(2) 0.8756(4) 0.2469(3)
C5_6 C 0.1535(2) 0.8535(5) 0.2656(4)
H2_6 H 0.1327 0.8071 0.2300
C6_6 C 0.1316(2) 0.8996(4) 0.3367(4)
C7_6 C 0.1622(2) 0.9724(4) 0.3861(3)
C8_6 C 0.2274(2) 0.8262(5) 0.1665(4)
C9_6 C 0.0774(2) 0.8688(5) 0.3604(4)
C10_6 C 0.0616(3) 0.7678(5) 0.3544(5)
H4_6 H 0.0841 0.7206 0.3317
C11_6 C 0.0127(3) 0.7369(5) 0.3819(5)
H5_6 H 0.0023 0.6696 0.3763
C14_6 C 0.0428(2) 0.9368(5) 0.3934(4)
O6_4 O 0.19728(18) 0.7653(4) 0.1236(3)
C12_6 C 0.9793(2) 0.8061(4) 0.4177(4)
C13_6 C 0.9937(2) 0.9059(5) 0.4214(4)
H6_6 H 0.9707 0.9532 0.4428
C15_6 C 0.9297(2) 0.7716(5) 0.4574(4)
O7_4 O 0.91598(19) 0.6807(4) 0.4533(4)
O8_4 O 0.90199(17) 0.8368(4) 0.4937(3)
C1_7 C 0.2505(2) 0.5662(4) 0.0739(4)
C2_7 C 0.2851(2) 0.4930(4) 0.1304(4)
C3_7 C 0.2633(2) 0.4433(4) 0.2005(3)
H1_7 H 0.2278 0.4564 0.2113
C4_7 C 0.2941(2) 0.3756(4) 0.2531(3)
C5_7 C 0.3465(2) 0.3535(5) 0.2344(4)
H2_7 H 0.3673 0.3071 0.2700
C6_7 C 0.3684(2) 0.3996(4) 0.1633(4)
C7_7 C 0.3378(2) 0.4724(4) 0.1139(3)
H3_7 H 0.3529 0.5078 0.0692
C8_7 C 0.2726(2) 0.3262(5) 0.3335(4)
C9_7 C 0.4226(2) 0.3688(5) 0.1396(4)
C10_7 C 0.4384(3) 0.2678(5) 0.1456(5)
H4_7 H 0.4159 0.2206 0.1683
C11_7 C 0.4873(3) 0.2369(5) 0.1181(5)
H5_7 H 0.4977 0.1696 0.1237
C12_7 C 0.5207(2) 0.3061(4) 0.0823(4)
C13_7 C 0.5063(2) 0.4059(5) 0.0786(4)
H6_7 H 0.5293 0.4532 0.0572
C14_7 C 0.4572(2) 0.4368(5) 0.1066(4)
H7_7 H 0.4477 0.5047 0.1030
C15_7 C 0.5703(2) 0.2716(5) 0.0426(4)
O3_7 O 0.20064(16) 0.5534(3) 0.0637(3)
O1_7 O 0.1202(3) 0.5570(6) 0.8936(5)
H8_7 H 0.1089 0.5194 0.9335
H9_7 H 0.1420 0.5239 0.8648
O2_7 O 0.1249(3) 0.7766(5) 0.8212(4)
H10_7 H 0.1025 0.8222 0.8320
H11_7 H 0.1080 0.7292 0.7917
C1_8 C 0.7495(2) 0.5662(4) 0.4261(4)
C2_8 C 0.7149(2) 0.4930(4) 0.3696(4)
C3_8 C 0.7367(2) 0.4433(4) 0.2995(3)
H1_8 H 0.7722 0.4564 0.2887
C4_8 C 0.7059(2) 0.3756(4) 0.2469(3)
C5_8 C 0.6535(2) 0.3535(5) 0.2656(4)
H2_8 H 0.6327 0.3071 0.2300
C6_8 C 0.6316(2) 0.3996(4) 0.3367(4)
C7_8 C 0.6622(2) 0.4724(4) 0.3861(3)
H3_8 H 0.6471 0.5078 0.4308
C8_8 C 0.7274(2) 0.3262(5) 0.1665(4)
C9_8 C 0.5774(2) 0.3688(5) 0.3604(4)
C10_8 C 0.5616(3) 0.2678(5) 0.3544(5)
H4_8 H 0.5841 0.2206 0.3317
C11_8 C 0.5127(3) 0.2369(5) 0.3819(5)
H5_8 H 0.5023 0.1696 0.3763
C12_8 C 0.4793(2) 0.3061(4) 0.4177(4)
C13_8 C 0.4937(2) 0.4059(5) 0.4214(4)
H6_8 H 0.4707 0.4532 0.4428
C14_8 C 0.5428(2) 0.4368(5) 0.3934(4)
H7_8 H 0.5523 0.5047 0.3970
C15_8 C 0.4297(2) 0.2716(5) 0.4574(4)
O1_8 O 0.8798(3) 0.5570(6) 0.6064(5)
H8_8 H 0.8911 0.5194 0.5665
H9_8 H 0.8580 0.5239 0.6352
O2_8 O 0.8751(3) 0.7766(5) 0.6788(4)
H10_8 H 0.8975 0.8222 0.6680
H11_8 H 0.8920 0.7292 0.7083
O3_8 O 0.79936(16) 0.5534(3) 0.4363(3)
loop_
_geom_bond_atom_site_label_1
_geom_bond_atom_site_label_2
_geom_bond_site_symmetry_1
_geom_bond_site_symmetry_2
C2 C3 1_555 1_555
C3 H1 1_555 1_555
C4 C3 1_555 1_555
C5 C4 1_555 1_555
H2 C5 1_555 1_555
C6 C5 1_555 1_555
C7 C2 1_555 1_555
C8 C4 1_555 1_555
C9 C6 1_555 1_555
C10 C9 1_555 1_555
H4 C10 1_555 1_555
C11 C10 1_555 1_555
H5 C11 1_555 1_555
C14 C9 1_555 1_555
O5 C8 1_555 1_555
O6 C8 1_555 1_555
La3 O6 1_555 1_555
La4 O5 1_555 1_555
C6 C7 1_555 1_555
La1 O1 1_555 1_555
O1 H8 1_555 1_555
H9 O1 1_555 1_555
O2 La1 1_555 1_555
H10 O2 1_555 1_555
H11 O2 1_555 1_555
O9 La1 1_555 1_555
O10 La1 1_555 1_555
O3 C1 1_555 1_555
O4 C1 1_555 1_555
La5 O4 1_555 1_555
C13 C12 1_555 1_555
H6 C13 1_555 1_555
C15 C12 1_555 1_555
O7 C15 1_555 1_555
O8 C15 1_555 1_555
C13_2 C12_2 1_555 1_555
H6_2 C13_2 1_555 1_555
C15_2 C12_2 1_555 1_555
O7_2 C15_2 1_555 1_555
O8_2 C15_2 1_555 1_555
La3 O7_2 1_555 1_555
O8_2 La3 1_555 1_555
C2_2 C3_2 1_555 1_555
C3_2 H1_2 1_555 1_555
C4_2 C3_2 1_555 1_555
C5_2 C4_2 1_555 1_555
H2_2 C5_2 1_555 1_555
C6_2 C5_2 1_555 1_555
C7_2 C2_2 1_555 1_555
C8_2 C4_2 1_555 1_555
C9_2 C6_2 1_555 1_555
C10_2 C9_2 1_555 1_555
H4_2 C10_2 1_555 1_555
C11_2 C10_2 1_555 1_555
H5_2 C11_2 1_555 1_555
C14_2 C9_2 1_555 1_555
O5_2 C8_2 1_555 1_555
O6_2 C8_2 1_555 1_555
La4_2 O5_2 1_555 1_555
C6_2 C7_2 1_555 1_555
La1_2 O1_2 1_555 1_555
O1_2 H8_2 1_555 1_555
H9_2 O1_2 1_555 1_555
O2_2 La1_2 1_555 1_555
H10_2 O2_2 1_555 1_555
H11_2 O2_2 1_555 1_555
O3_2 C1_2 1_555 1_555
O4_2 C1_2 1_555 1_555
La5_2 O4_2 1_555 1_555
O9_2 La1_2 1_555 1_555
O10_2 La1_2 1_555 1_555
O11_2 La1_2 1_555 1_555
O12_2 La1_2 1_555 1_555
O13_2 La1_2 1_555 1_555
La1_2 O3_2 1_555 1_555
La1_2 O4_2 1_555 1_555
La5_2 O9_2 1_555 1_555
La2 O1_3 1_555 1_555
O1_3 H8_3 1_555 1_555
H9_3 O1_3 1_555 1_555
O2_3 La2 1_555 1_555
H10_3 O2_3 1_555 1_555
H11_3 O2_3 1_555 1_555
O9_3 La2 1_555 1_555
O10_3 La2 1_555 1_555
C1_3 C2_3 1_555 1_555
C2_3 C3_3 1_555 1_555
C3_3 H1_3 1_555 1_555
C4_3 C3_3 1_555 1_555
C5_3 C4_3 1_555 1_555
H2_3 C5_3 1_555 1_555
C6_3 C5_3 1_555 1_555
C7_3 C2_3 1_555 1_555
H3_3 C7_3 1_555 1_555
C8_3 C4_3 1_555 1_555
C9_3 C6_3 1_555 1_555
C10_3 C9_3 1_555 1_555
H4_3 C10_3 1_555 1_555
C11_3 C10_3 1_555 1_555
H5_3 C11_3 1_555 1_555
C12_3 C11_3 1_555 1_555
C13_3 C12_3 1_555 1_555
H6_3 C13_3 1_555 1_555
C14_3 C9_3 1_555 1_555
H7_3 C14_3 1_555 1_555
C15_3 C12_3 1_555 1_555
O3_3 C1_3 1_555 1_555
O4_3 C1_3 1_555 1_555
O5_3 C8_3 1_555 1_555
O11_2 C8_3 1_555 1_555
O12 C15_3 1_555 1_555
O13 C15_3 1_555 1_555
La5_2 O5_3 1_555 1_555
La4_2 O4_3 1_555 1_555
C6_3 C7_3 1_555 1_555
C13_3 C14_3 1_555 1_555
C1_4 C2_4 1_555 1_555
C2_4 C3_4 1_555 1_555
C3_4 H1_4 1_555 1_555
C4_4 C3_4 1_555 1_555
C5_4 C4_4 1_555 1_555
H2_4 C5_4 1_555 1_555
C6_4 C5_4 1_555 1_555
C7_4 C2_4 1_555 1_555
H3_4 C7_4 1_555 1_555
C8_4 C4_4 1_555 1_555
C9_4 C6_4 1_555 1_555
C10_4 C9_4 1_555 1_555
H4_4 C10_4 1_555 1_555
C11_4 C10_4 1_555 1_555
H5_4 C11_4 1_555 1_555
C12_4 C11_4 1_555 1_555
C13_4 C12_4 1_555 1_555
H6_4 C13_4 1_555 1_555
C14_4 C9_4 1_555 1_555
H7_4 C14_4 1_555 1_555
C15_4 C12_4 1_555 1_555
La3 O1_4 1_555 1_555
O1_4 H8_4 1_555 1_555
H9_4 O1_4 1_555 1_555
O2_4 La3 1_555 1_555
H10_4 O2_4 1_555 1_555
H11_4 O2_4 1_555 1_555
O3_4 C1_4 1_555 1_555
O4_4 C1_4 1_555 1_555
O5_4 C8_4 1_555 1_555
O11 C8_4 1_555 1_555
O12_2 C15_4 1_555 1_555
O13_2 C15_4 1_555 1_555
La5 O5_4 1_555 1_555
La4 O4_4 1_555 1_555
O9_4 La3 1_555 1_555
O10_4 La3 1_555 1_555
C6_4 C7_4 1_555 1_555
C13_4 C14_4 1_555 1_555
La3 O3_4 1_555 1_555
La3 O4_4 1_555 1_555
La4 O9_4 1_555 1_555
C13_5 C12_5 1_555 1_555
H6_5 C13_5 1_555 1_555
C15_5 C12_5 1_555 1_555
O7_3 C15_5 1_555 1_555
O8_3 C15_5 1_555 1_555
O3_5 C1_5 1_555 1_555
O9_3 C1_5 1_555 1_555
La4_2 O1_5 1_555 1_555
O1_5 H8_5 1_555 1_555
H9_5 O1_5 1_555 1_555
O2_5 La4_2 1_555 1_555
H10_5 O2_5 1_555 1_555
H11_5 O2_5 1_555 1_555
C2_5 C3_5 1_555 1_555
C3_5 H1_5 1_555 1_555
C4_5 C3_5 1_555 1_555
C5_5 C4_5 1_555 1_555
H2_5 C5_5 1_555 1_555
C6_5 C5_5 1_555 1_555
C7_5 C2_5 1_555 1_555
C8_5 C4_5 1_555 1_555
C9_5 C6_5 1_555 1_555
C10_5 C9_5 1_555 1_555
H4_5 C10_5 1_555 1_555
C11_5 C10_5 1_555 1_555
H5_5 C11_5 1_555 1_555
C14_5 C9_5 1_555 1_555
O10_2 C8_5 1_555 1_555
O6_3 C8_5 1_555 1_555
La5_2 O6_3 1_555 1_555
C6_5 C7_5 1_555 1_555
La4 O1_6 1_555 1_555
O1_6 H8_6 1_555 1_555
H9_6 O1_6 1_555 1_555
O2_6 La4 1_555 1_555
H10_6 O2_6 1_555 1_555
H11_6 O2_6 1_555 1_555
O3_6 C1_6 1_555 1_555
O9_4 C1_6 1_555 1_555
O11_4 La4 1_555 1_555
O12_4 La4 1_555 1_555
O13_4 La4 1_555 1_555
La4 O3_6 1_555 1_555
C2_6 C3_6 1_555 1_555
C3_6 H1_6 1_555 1_555
C4_6 C3_6 1_555 1_555
C5_6 C4_6 1_555 1_555
H2_6 C5_6 1_555 1_555
C6_6 C5_6 1_555 1_555
C7_6 C2_6 1_555 1_555
C8_6 C4_6 1_555 1_555
C9_6 C6_6 1_555 1_555
C10_6 C9_6 1_555 1_555
H4_6 C10_6 1_555 1_555
C11_6 C10_6 1_555 1_555
H5_6 C11_6 1_555 1_555
C14_6 C9_6 1_555 1_555
O10 C8_6 1_555 1_555
O6_4 C8_6 1_555 1_555
C6_6 C7_6 1_555 1_555
C13_6 C12_6 1_555 1_555
H6_6 C13_6 1_555 1_555
C15_6 C12_6 1_555 1_555
O7_4 C15_6 1_555 1_555
O8_4 C15_6 1_555 1_555
La5_2 O7_4 1_555 1_555
O8_4 La5_2 1_555 1_555
C1_7 C2_7 1_555 1_555
C2_7 C3_7 1_555 1_555
C3_7 H1_7 1_555 1_555
C4_7 C3_7 1_555 1_555
C5_7 C4_7 1_555 1_555
H2_7 C5_7 1_555 1_555
C6_7 C5_7 1_555 1_555
C7_7 C2_7 1_555 1_555
H3_7 C7_7 1_555 1_555
C8_7 C4_7 1_555 1_555
C9_7 C6_7 1_555 1_555
C10_7 C9_7 1_555 1_555
H4_7 C10_7 1_555 1_555
C11_7 C10_7 1_555 1_555
H5_7 C11_7 1_555 1_555
C12_7 C11_7 1_555 1_555
C13_7 C12_7 1_555 1_555
H6_7 C13_7 1_555 1_555
C14_7 C9_7 1_555 1_555
H7_7 C14_7 1_555 1_555
C15_7 C12_7 1_555 1_555
O3_7 C1_7 1_555 1_555
O9 C1_7 1_555 1_555
O10_4 C8_7 1_555 1_555
O11_4 C8_7 1_555 1_555
O12_3 C15_7 1_555 1_555
O13_3 C15_7 1_555 1_555
C6_7 C7_7 1_555 1_555
C13_7 C14_7 1_555 1_555
La5 O1_7 1_555 1_555
O1_7 H8_7 1_555 1_555
H9_7 O1_7 1_555 1_555
O2_7 La5 1_555 1_555
H10_7 O2_7 1_555 1_555
H11_7 O2_7 1_555 1_555
C1_8 C2_8 1_555 1_555
C2_8 C3_8 1_555 1_555
C3_8 H1_8 1_555 1_555
C4_8 C3_8 1_555 1_555
C5_8 C4_8 1_555 1_555
H2_8 C5_8 1_555 1_555
C6_8 C5_8 1_555 1_555
C7_8 C2_8 1_555 1_555
H3_8 C7_8 1_555 1_555
C8_8 C4_8 1_555 1_555
C9_8 C6_8 1_555 1_555
C10_8 C9_8 1_555 1_555
H4_8 C10_8 1_555 1_555
C11_8 C10_8 1_555 1_555
H5_8 C11_8 1_555 1_555
C12_8 C11_8 1_555 1_555
C13_8 C12_8 1_555 1_555
H6_8 C13_8 1_555 1_555
C14_8 C9_8 1_555 1_555
H7_8 C14_8 1_555 1_555
C15_8 C12_8 1_555 1_555
La5_2 O1_8 1_555 1_555
O1_8 H8_8 1_555 1_555
H9_8 O1_8 1_555 1_555
O2_8 La5_2 1_555 1_555
H10_8 O2_8 1_555 1_555
H11_8 O2_8 1_555 1_555
O3_8 C1_8 1_555 1_555
O9_2 C1_8 1_555 1_555
O10_3 C8_8 1_555 1_555
O11_3 C8_8 1_555 1_555
O12_4 C15_8 1_555 1_555
O13_4 C15_8 1_555 1_555
C6_8 C7_8 1_555 1_555
C13_8 C14_8 1_555 1_555
La5_2 O3_8 1_555 1_555

#END
