
###############################################################################
#
# This file contains modified crystal structure data generated from the
# MOF subset of the Cambridge Structural Database (CSD) v543 
# hosted by the Cambridge Crystallographic Data Centre (CCDC).
#
# This work is licensed under the Creative Commons
# Attribution-NonCommercial-ShareAlike 4.0 International License.
# To view a copy of this license, visit
# http://creativecommons.org/licenses/by-nc-sa/4.0/
# or send a letter to
# Creative Commons, PO Box 1866, Mountain View, CA 94042, USA.
#
# CIF created using the CSD Python API on 29 September 2022
# The structure has been converted into the P1 space group
# The structure has a 3D framework
# The original CSD entry APAZEY is in the monoclinic crystal system
# The framework has been calculated to contain at least 10.0% void space
# The void calculation uses a probe of radius 1.32A, grid spacing 0.4
#
###############################################################################

data_APAZEY
_chemical_formula_moiety         '(C216 H152 O60 Tb8)n'
_symmetry_cell_setting           triclinic
_symmetry_space_group_name_H-M   'P 1'
_symmetry_Int_Tables_number      1
_space_group_name_Hall           'P 1'
loop_
_symmetry_equiv_pos_site_id
_symmetry_equiv_pos_as_xyz
1 x,y,z
_cell_length_a                   42.145(7)
_cell_length_b                   14.296(3)
_cell_length_c                   13.771(2)
_cell_angle_alpha                90
_cell_angle_beta                 101.683(2)
_cell_angle_gamma                90
_cell_volume                     8125.2
loop_
_atom_site_label
_atom_site_type_symbol
_atom_site_fract_x
_atom_site_fract_y
_atom_site_fract_z
C1 C 0.25235(15) 0.0857(4) 0.0799(5)
C2 C 0.27319(14) 0.0122(4) 0.1414(5)
C3 C 0.30510(14) 0.0010(4) 0.1326(5)
H1 H 0.3136 0.0393 0.0896
H4 H 0.3703 0.0483 0.1469
H5 H 0.4220 0.0216 0.1288
O3 O 0.22238(10) 0.0737(3) 0.0563(4)
O4 O 0.26545(10) 0.1567(3) 0.0517(3)
O11 O 0.21566(10) 0.2694(3) 0.1168(3)
O12 O 0.15464(11) 0.1712(4) 0.0102(4)
Tb5 Tb 0.29602(2) 0.29131(2) 0.04544(2)
O1 O 0.17801(14) 0.0743(5) 0.8623(4)
H16 H 0.1621 0.0934 0.8185
H17 H 0.1815 0.0161 0.8743
O2 O 0.17875(16) 0.2693(5) 0.7898(5)
H18 H 0.1641 0.3084 0.7956
H19 H 0.1905 0.2601 0.7476
Tb1 Tb 0.20398(2) 0.20869(2) 0.95456(2)
O9 O 0.23455(10) 0.3433(3) 0.9483(3)
O10 O 0.23724(10) 0.1549(3) 0.8457(3)
O13 O 0.15931(11) 0.3174(3) 0.9731(4)
C4 C 0.32470(15) 0.9330(5) 0.1876(5)
C5 C 0.31082(15) 0.8788(5) 0.2525(5)
H2 H 0.3234 0.8334 0.2905
C6 C 0.27907(14) 0.8900(4) 0.2624(5)
C7 C 0.25996(14) 0.9551(4) 0.2040(5)
H3 H 0.2382 0.9606 0.2067
C8 C 0.26584(15) 0.8299(5) 0.3366(5)
C9 C 0.35836(15) 0.9171(5) 0.1760(5)
C10 C 0.37833(15) 0.9875(5) 0.1537(5)
C11 C 0.40938(16) 0.9715(6) 0.1413(6)
C12 C 0.42207(16) 0.8824(5) 0.1469(5)
C13 C 0.40292(18) 0.8098(6) 0.1696(6)
H6 H 0.4109 0.7490 0.1744
C14 C 0.37195(18) 0.8272(6) 0.1850(6)
H7 H 0.3598 0.7777 0.2018
C15 C 0.45611(10) 0.8616(4) 0.1326(5)
C16 C 0.47662(14) 0.9356(3) 0.1227(5)
H8 H 0.4697 0.9969 0.1274
C17 C 0.50747(13) 0.9180(4) 0.1056(5)
H9 H 0.5212 0.9675 0.0990
C18 C 0.51781(10) 0.8264(5) 0.0986(5)
C19 C 0.49730(15) 0.7524(3) 0.1085(6)
H10 H 0.5042 0.6911 0.1038
C20 C 0.46645(13) 0.7700(4) 0.1255(6)
H11 H 0.4527 0.7205 0.1322
C21 C 0.55155(17) 0.8093(6) 0.0778(6)
C22 C 0.57349(17) 0.8805(6) 0.0732(6)
H12 H 0.5682 0.9416 0.0867
C23 C 0.60308(17) 0.8622(6) 0.0489(6)
H13 H 0.6170 0.9116 0.0436
C24 C 0.61225(17) 0.7726(5) 0.0324(6)
C25 C 0.59122(18) 0.7003(6) 0.0439(7)
H14 H 0.5977 0.6387 0.0383
C26 C 0.56088(19) 0.7179(6) 0.0635(7)
H15 H 0.5467 0.6687 0.0672
C27 C 0.64392(17) 0.7536(6) 0.0032(6)
O5 O 0.23724(10) 0.8451(3) 0.3457(3)
O6 O 0.28434(10) 0.7694(3) 0.3832(3)
O7 O 0.65464(11) 0.6712(4) 0.0102(4)
Tb3 Tb 0.29602(2) 0.70869(2) 0.54544(2)
Tb4 Tb 0.20398(2) 0.79131(2) 0.45456(2)
O8 O 0.65931(11) 0.8174(3) 0.9731(4)
Tb2 Tb 0.70398(2) 0.70869(2) 0.95456(2)
C1_2 C 0.74765(15) 0.0857(4) 0.4201(5)
C2_2 C 0.72681(14) 0.0122(4) 0.3586(5)
C3_2 C 0.69490(14) 0.0010(4) 0.3674(5)
H1_2 H 0.6864 0.0393 0.4104
H4_2 H 0.6297 0.0483 0.3531
H5_2 H 0.5780 0.0216 0.3712
O1_2 O 0.82199(14) 0.0743(5) 0.6377(4)
H16_2 H 0.8379 0.0934 0.6815
H17_2 H 0.8185 0.0161 0.6257
O2_2 O 0.82125(16) 0.2693(5) 0.7102(5)
H18_2 H 0.8359 0.3084 0.7044
H19_2 H 0.8095 0.2601 0.7524
O3_2 O 0.77762(10) 0.0737(3) 0.4437(4)
O4_2 O 0.73455(10) 0.1567(3) 0.4483(3)
Tb1_2 Tb 0.79602(2) 0.20869(2) 0.54544(2)
O9_2 O 0.76545(10) 0.3433(3) 0.5517(3)
O10_2 O 0.76276(10) 0.1549(3) 0.6543(3)
O11_2 O 0.78434(10) 0.2694(3) 0.3832(3)
O12_2 O 0.84536(11) 0.1712(4) 0.4898(4)
O13_2 O 0.84069(11) 0.3174(3) 0.5269(4)
Tb5_2 Tb 0.70398(2) 0.29131(2) 0.45456(2)
C4_2 C 0.67530(15) 0.9330(5) 0.3124(5)
C5_2 C 0.68918(15) 0.8788(5) 0.2475(5)
H2_2 H 0.6766 0.8334 0.2095
C6_2 C 0.72093(14) 0.8900(4) 0.2376(5)
C7_2 C 0.74004(14) 0.9551(4) 0.2960(5)
H3_2 H 0.7618 0.9606 0.2933
C8_2 C 0.73416(15) 0.8299(5) 0.1634(5)
C9_2 C 0.64164(15) 0.9171(5) 0.3240(5)
C10_2 C 0.62167(15) 0.9875(5) 0.3463(5)
C11_2 C 0.59062(16) 0.9715(6) 0.3587(6)
C12_2 C 0.57793(16) 0.8824(5) 0.3531(5)
C13_2 C 0.59708(18) 0.8098(6) 0.3304(6)
H6_2 H 0.5891 0.7490 0.3256
C14_2 C 0.62805(18) 0.8272(6) 0.3150(6)
H7_2 H 0.6402 0.7777 0.2982
C15_2 C 0.54389(10) 0.8616(4) 0.3674(5)
C16_2 C 0.52338(14) 0.9356(3) 0.3773(5)
H8_2 H 0.5303 0.9969 0.3726
C17_2 C 0.49253(13) 0.9180(4) 0.3944(5)
H9_2 H 0.4788 0.9675 0.4010
C18_2 C 0.48219(10) 0.8264(5) 0.4014(5)
C19_2 C 0.50270(15) 0.7524(3) 0.3915(6)
H10_2 H 0.4958 0.6911 0.3962
C20_2 C 0.53355(13) 0.7700(4) 0.3745(6)
H11_2 H 0.5473 0.7205 0.3678
C21_2 C 0.44845(17) 0.8093(6) 0.4222(6)
C22_2 C 0.42651(17) 0.8805(6) 0.4268(6)
H12_2 H 0.4318 0.9416 0.4133
C23_2 C 0.39692(17) 0.8622(6) 0.4511(6)
H13_2 H 0.3830 0.9116 0.4564
C24_2 C 0.38775(17) 0.7726(5) 0.4676(6)
C25_2 C 0.40878(18) 0.7003(6) 0.4561(7)
H14_2 H 0.4023 0.6387 0.4617
C26_2 C 0.43912(19) 0.7179(6) 0.4365(7)
H15_2 H 0.4533 0.6687 0.4328
C27_2 C 0.35608(17) 0.7536(6) 0.4968(6)
O5_2 O 0.76276(10) 0.8451(3) 0.1543(3)
O6_2 O 0.71566(10) 0.7694(3) 0.1168(3)
O7_2 O 0.34536(11) 0.6712(4) 0.4898(4)
O8_2 O 0.34069(11) 0.8174(3) 0.5269(4)
Tb4_2 Tb 0.79602(2) 0.79131(2) 0.04544(2)
C17_3 C 0.00747(13) 0.4180(4) 0.1056(5)
H9_3 H 0.0212 0.4675 0.0990
C18_3 C 0.01781(10) 0.3264(5) 0.0986(5)
H10_3 H 0.0042 0.1911 0.1038
C21_3 C 0.05155(17) 0.3093(6) 0.0778(6)
C22_3 C 0.07349(17) 0.3805(6) 0.0732(6)
H12_3 H 0.0682 0.4416 0.0867
C23_3 C 0.10308(17) 0.3622(6) 0.0489(6)
H13_3 H 0.1170 0.4116 0.0436
C24_3 C 0.11225(17) 0.2726(5) 0.0324(6)
C25_3 C 0.09122(18) 0.2003(6) 0.0439(7)
H14_3 H 0.0977 0.1387 0.0383
C26_3 C 0.06088(19) 0.2179(6) 0.0635(7)
H15_3 H 0.0467 0.1687 0.0672
C27_3 C 0.14392(17) 0.2536(6) 0.0032(6)
C1_3 C 0.75235(15) 0.5857(4) 0.0799(5)
C2_3 C 0.77319(14) 0.5122(4) 0.1414(5)
C3_3 C 0.80510(14) 0.5010(4) 0.1326(5)
H1_3 H 0.8136 0.5393 0.0896
C4_3 C 0.82470(15) 0.4330(5) 0.1876(5)
C5_3 C 0.81082(15) 0.3788(5) 0.2525(5)
H2_3 H 0.8234 0.3334 0.2905
C6_3 C 0.77907(14) 0.3900(4) 0.2624(5)
C7_3 C 0.75996(14) 0.4551(4) 0.2040(5)
H3_3 H 0.7382 0.4606 0.2067
C8_3 C 0.76584(15) 0.3299(5) 0.3366(5)
C9_3 C 0.85836(15) 0.4171(5) 0.1760(5)
C10_3 C 0.87833(15) 0.4875(5) 0.1537(5)
H4_3 H 0.8703 0.5483 0.1469
C11_3 C 0.90938(16) 0.4715(6) 0.1413(6)
H5_3 H 0.9220 0.5216 0.1288
C12_3 C 0.92207(16) 0.3824(5) 0.1469(5)
C13_3 C 0.90292(18) 0.3098(6) 0.1696(6)
H6_3 H 0.9109 0.2490 0.1744
C14_3 C 0.87195(18) 0.3272(6) 0.1850(6)
H7_3 H 0.8598 0.2777 0.2018
C15_3 C 0.95611(10) 0.3616(4) 0.1326(5)
C16_3 C 0.97662(14) 0.4356(3) 0.1227(5)
H8_3 H 0.9697 0.4969 0.1274
C19_3 C 0.99730(15) 0.2524(3) 0.1085(6)
C20_3 C 0.96645(13) 0.2700(4) 0.1255(6)
H11_3 H 0.9527 0.2205 0.1322
O3_3 O 0.72238(10) 0.5737(3) 0.0563(4)
O4_3 O 0.76545(10) 0.6567(3) 0.0517(3)
O5_3 O 0.73724(10) 0.3451(3) 0.3457(3)
O1_3 O 0.67801(14) 0.5743(5) 0.8623(4)
H16_3 H 0.6621 0.5934 0.8185
H17_3 H 0.6815 0.5161 0.8743
O2_3 O 0.67875(16) 0.7693(5) 0.7898(5)
H18_3 H 0.6641 0.8084 0.7956
H19_3 H 0.6905 0.7601 0.7476
O9_3 O 0.73455(10) 0.8433(3) 0.9483(3)
O10_3 O 0.73724(10) 0.6549(3) 0.8457(3)
C1_4 C 0.24765(15) 0.5857(4) 0.4201(5)
C2_4 C 0.22681(14) 0.5122(4) 0.3586(5)
C3_4 C 0.19490(14) 0.5010(4) 0.3674(5)
H1_4 H 0.1864 0.5393 0.4104
C4_4 C 0.17530(15) 0.4330(5) 0.3124(5)
C5_4 C 0.18918(15) 0.3788(5) 0.2475(5)
H2_4 H 0.1766 0.3334 0.2095
C6_4 C 0.22093(14) 0.3900(4) 0.2376(5)
C7_4 C 0.24004(14) 0.4551(4) 0.2960(5)
H3_4 H 0.2618 0.4606 0.2933
C8_4 C 0.23416(15) 0.3299(5) 0.1634(5)
C9_4 C 0.14164(15) 0.4171(5) 0.3240(5)
C10_4 C 0.12167(15) 0.4875(5) 0.3463(5)
H4_4 H 0.1297 0.5483 0.3531
C11_4 C 0.09062(16) 0.4715(6) 0.3587(6)
H5_4 H 0.0780 0.5216 0.3712
C12_4 C 0.07793(16) 0.3824(5) 0.3531(5)
C13_4 C 0.09708(18) 0.3098(6) 0.3304(6)
H6_4 H 0.0891 0.2490 0.3256
C14_4 C 0.12805(18) 0.3272(6) 0.3150(6)
H7_4 H 0.1402 0.2777 0.2982
C15_4 C 0.04389(10) 0.3616(4) 0.3674(5)
C16_4 C 0.02338(14) 0.4356(3) 0.3773(5)
H8_4 H 0.0303 0.4969 0.3726
C19_4 C 0.00270(15) 0.2524(3) 0.3915(6)
C20_4 C 0.03355(13) 0.2700(4) 0.3745(6)
H11_4 H 0.0473 0.2205 0.3678
O1_4 O 0.32199(14) 0.5743(5) 0.6377(4)
H16_4 H 0.3379 0.5934 0.6815
H17_4 H 0.3185 0.5161 0.6257
O2_4 O 0.32125(16) 0.7693(5) 0.7102(5)
H18_4 H 0.3359 0.8084 0.7044
H19_4 H 0.3095 0.7601 0.7524
O3_4 O 0.27762(10) 0.5737(3) 0.4437(4)
O4_4 O 0.23455(10) 0.6567(3) 0.4483(3)
O5_4 O 0.26276(10) 0.3451(3) 0.1543(3)
O9_4 O 0.26545(10) 0.8433(3) 0.5517(3)
O10_4 O 0.26276(10) 0.6549(3) 0.6543(3)
C17_4 C 0.99253(13) 0.4180(4) 0.3944(5)
H9_4 H 0.9788 0.4675 0.4010
C18_4 C 0.98219(10) 0.3264(5) 0.4014(5)
H10_4 H 0.9958 0.1911 0.3962
C21_4 C 0.94845(17) 0.3093(6) 0.4222(6)
C22_4 C 0.92651(17) 0.3805(6) 0.4268(6)
H12_4 H 0.9318 0.4416 0.4133
C23_4 C 0.89692(17) 0.3622(6) 0.4511(6)
H13_4 H 0.8830 0.4116 0.4564
C24_4 C 0.88775(17) 0.2726(5) 0.4676(6)
C25_4 C 0.90878(18) 0.2003(6) 0.4561(7)
H14_4 H 0.9023 0.1387 0.4617
C26_4 C 0.93912(19) 0.2179(6) 0.4365(7)
H15_4 H 0.9533 0.1687 0.4328
C27_4 C 0.85608(17) 0.2536(6) 0.4968(6)
O8_3 O 0.34069(11) 0.1826(3) 0.0269(4)
C4_5 C 0.67530(15) 0.0670(5) 0.8124(5)
C5_5 C 0.68918(15) 0.1212(5) 0.7475(5)
H2_5 H 0.6766 0.1666 0.7095
C6_5 C 0.72093(14) 0.1100(4) 0.7376(5)
C7_5 C 0.74004(14) 0.0449(4) 0.7960(5)
H3_5 H 0.7618 0.0394 0.7933
C8_5 C 0.73416(15) 0.1701(5) 0.6634(5)
C9_5 C 0.64164(15) 0.0829(5) 0.8240(5)
C10_5 C 0.62167(15) 0.0125(5) 0.8463(5)
C11_5 C 0.59062(16) 0.0285(6) 0.8587(6)
C12_5 C 0.57793(16) 0.1176(5) 0.8531(5)
C13_5 C 0.59708(18) 0.1902(6) 0.8304(6)
H6_5 H 0.5891 0.2510 0.8256
C14_5 C 0.62805(18) 0.1728(6) 0.8150(6)
H7_5 H 0.6402 0.2223 0.7982
C15_5 C 0.54389(10) 0.1384(4) 0.8674(5)
C16_5 C 0.52338(14) 0.0644(3) 0.8773(5)
H8_5 H 0.5303 0.0031 0.8726
C17_5 C 0.49253(13) 0.0820(4) 0.8944(5)
H9_5 H 0.4788 0.0325 0.9010
C18_5 C 0.48219(10) 0.1736(5) 0.9014(5)
C19_5 C 0.50270(15) 0.2476(3) 0.8915(6)
H10_5 H 0.4958 0.3089 0.8962
C20_5 C 0.53355(13) 0.2300(4) 0.8745(6)
H11_5 H 0.5473 0.2795 0.8678
C21_5 C 0.44845(17) 0.1907(6) 0.9222(6)
C22_5 C 0.42651(17) 0.1195(6) 0.9268(6)
H12_5 H 0.4318 0.0584 0.9133
C23_5 C 0.39692(17) 0.1378(6) 0.9511(6)
H13_5 H 0.3830 0.0884 0.9564
C24_5 C 0.38775(17) 0.2274(5) 0.9676(6)
C25_5 C 0.40878(18) 0.2997(6) 0.9561(7)
H14_5 H 0.4023 0.3613 0.9617
C26_5 C 0.43912(19) 0.2821(6) 0.9365(7)
H15_5 H 0.4533 0.3313 0.9328
C27_5 C 0.35608(17) 0.2464(6) 0.9968(6)
O6_3 O 0.71566(10) 0.2306(3) 0.6168(3)
O7_3 O 0.34536(11) 0.3288(4) 0.9898(4)
O1_5 O 0.82199(14) 0.9257(5) 0.1377(4)
H16_5 H 0.8379 0.9066 0.1815
H17_5 H 0.8185 0.9839 0.1257
O2_5 O 0.82125(16) 0.7307(5) 0.2102(5)
H18_5 H 0.8359 0.6916 0.2044
H19_5 H 0.8095 0.7399 0.2524
O13_3 O 0.84069(11) 0.6826(3) 0.0269(4)
C1_5 C 0.74765(15) 0.9143(4) 0.9201(5)
C2_5 C 0.72681(14) 0.9878(4) 0.8586(5)
C3_5 C 0.69490(14) 0.9990(4) 0.8674(5)
H1_5 H 0.6864 0.9607 0.9104
H4_5 H 0.6297 0.9517 0.8531
H5_5 H 0.5780 0.9784 0.8712
O3_5 O 0.77762(10) 0.9263(3) 0.9437(4)
O11_3 O 0.78434(10) 0.7306(3) 0.8832(3)
O12_3 O 0.84536(11) 0.8288(4) 0.9898(4)
C4_6 C 0.32470(15) 0.0670(5) 0.6876(5)
C5_6 C 0.31082(15) 0.1212(5) 0.7525(5)
H2_6 H 0.3234 0.1666 0.7905
C6_6 C 0.27907(14) 0.1100(4) 0.7624(5)
C7_6 C 0.25996(14) 0.0449(4) 0.7040(5)
H3_6 H 0.2382 0.0394 0.7067
C8_6 C 0.26584(15) 0.1701(5) 0.8366(5)
C9_6 C 0.35836(15) 0.0829(5) 0.6760(5)
C10_6 C 0.37833(15) 0.0125(5) 0.6537(5)
C11_6 C 0.40938(16) 0.0285(6) 0.6413(6)
C12_6 C 0.42207(16) 0.1176(5) 0.6469(5)
C13_6 C 0.40292(18) 0.1902(6) 0.6696(6)
H6_6 H 0.4109 0.2510 0.6744
C14_6 C 0.37195(18) 0.1728(6) 0.6850(6)
H7_6 H 0.3598 0.2223 0.7018
C15_6 C 0.45611(10) 0.1384(4) 0.6326(5)
C16_6 C 0.47662(14) 0.0644(3) 0.6227(5)
H8_6 H 0.4697 0.0031 0.6274
C17_6 C 0.50747(13) 0.0820(4) 0.6056(5)
H9_6 H 0.5212 0.0325 0.5990
C18_6 C 0.51781(10) 0.1736(5) 0.5986(5)
C19_6 C 0.49730(15) 0.2476(3) 0.6085(6)
H10_6 H 0.5042 0.3089 0.6038
C20_6 C 0.46645(13) 0.2300(4) 0.6255(6)
H11_6 H 0.4527 0.2795 0.6322
C21_6 C 0.55155(17) 0.1907(6) 0.5778(6)
C22_6 C 0.57349(17) 0.1195(6) 0.5732(6)
H12_6 H 0.5682 0.0584 0.5867
C23_6 C 0.60308(17) 0.1378(6) 0.5489(6)
H13_6 H 0.6170 0.0884 0.5436
C24_6 C 0.61225(17) 0.2274(5) 0.5324(6)
C25_6 C 0.59122(18) 0.2997(6) 0.5439(7)
H14_6 H 0.5977 0.3613 0.5383
C26_6 C 0.56088(19) 0.2821(6) 0.5635(7)
H15_6 H 0.5467 0.3313 0.5672
C27_6 C 0.64392(17) 0.2464(6) 0.5032(6)
O6_4 O 0.28434(10) 0.2306(3) 0.8832(3)
O7_4 O 0.65464(11) 0.3288(4) 0.5102(4)
O8_4 O 0.65931(11) 0.1826(3) 0.4731(4)
C1_6 C 0.25235(15) 0.9143(4) 0.5799(5)
C2_6 C 0.27319(14) 0.9878(4) 0.6414(5)
C3_6 C 0.30510(14) 0.9990(4) 0.6326(5)
H1_6 H 0.3136 0.9607 0.5896
H4_6 H 0.3703 0.9517 0.6469
H5_6 H 0.4220 0.9784 0.6288
O1_6 O 0.17801(14) 0.9257(5) 0.3623(4)
H16_6 H 0.1621 0.9066 0.3185
H17_6 H 0.1815 0.9839 0.3743
O2_6 O 0.17875(16) 0.7307(5) 0.2898(5)
H18_6 H 0.1641 0.6916 0.2956
H19_6 H 0.1905 0.7399 0.2476
O3_6 O 0.22238(10) 0.9263(3) 0.5563(4)
O11_4 O 0.21566(10) 0.7306(3) 0.6168(3)
O12_4 O 0.15464(11) 0.8288(4) 0.5102(4)
O13_4 O 0.15931(11) 0.6826(3) 0.4731(4)
O1_7 O 0.32199(14) 0.4257(5) 0.1377(4)
H16_7 H 0.3379 0.4066 0.1815
H17_7 H 0.3185 0.4839 0.1257
O2_7 O 0.32125(16) 0.2307(5) 0.2102(5)
H18_7 H 0.3359 0.1916 0.2044
H19_7 H 0.3095 0.2399 0.2524
C1_7 C 0.24765(15) 0.4143(4) 0.9201(5)
C2_7 C 0.22681(14) 0.4878(4) 0.8586(5)
C3_7 C 0.19490(14) 0.4990(4) 0.8674(5)
H1_7 H 0.1864 0.4607 0.9104
C4_7 C 0.17530(15) 0.5670(5) 0.8124(5)
C5_7 C 0.18918(15) 0.6212(5) 0.7475(5)
H2_7 H 0.1766 0.6666 0.7095
C6_7 C 0.22093(14) 0.6100(4) 0.7376(5)
C7_7 C 0.24004(14) 0.5449(4) 0.7960(5)
H3_7 H 0.2618 0.5394 0.7933
C8_7 C 0.23416(15) 0.6701(5) 0.6634(5)
C9_7 C 0.14164(15) 0.5829(5) 0.8240(5)
C10_7 C 0.12167(15) 0.5125(5) 0.8463(5)
H4_7 H 0.1297 0.4517 0.8531
C11_7 C 0.09062(16) 0.5285(6) 0.8587(6)
H5_7 H 0.0780 0.4784 0.8712
C12_7 C 0.07793(16) 0.6176(5) 0.8531(5)
C13_7 C 0.09708(18) 0.6902(6) 0.8304(6)
H6_7 H 0.0891 0.7510 0.8256
C14_7 C 0.12805(18) 0.6728(6) 0.8150(6)
H7_7 H 0.1402 0.7223 0.7982
C15_7 C 0.04389(10) 0.6384(4) 0.8674(5)
C16_7 C 0.02338(14) 0.5644(3) 0.8773(5)
H8_7 H 0.0303 0.5031 0.8726
C19_7 C 0.00270(15) 0.7476(3) 0.8915(6)
C20_7 C 0.03355(13) 0.7300(4) 0.8745(6)
H11_7 H 0.0473 0.7795 0.8678
O3_7 O 0.27762(10) 0.4263(3) 0.9437(4)
C17_7 C 0.99253(13) 0.5820(4) 0.8944(5)
H9_7 H 0.9788 0.5325 0.9010
C18_7 C 0.98219(10) 0.6736(5) 0.9014(5)
H10_7 H 0.9958 0.8089 0.8962
C21_7 C 0.94845(17) 0.6907(6) 0.9222(6)
C22_7 C 0.92651(17) 0.6195(6) 0.9268(6)
H12_7 H 0.9318 0.5584 0.9133
C23_7 C 0.89692(17) 0.6378(6) 0.9511(6)
H13_7 H 0.8830 0.5884 0.9564
C24_7 C 0.88775(17) 0.7274(5) 0.9676(6)
C25_7 C 0.90878(18) 0.7997(6) 0.9561(7)
H14_7 H 0.9023 0.8613 0.9617
C26_7 C 0.93912(19) 0.7821(6) 0.9365(7)
H15_7 H 0.9533 0.8313 0.9328
C27_7 C 0.85608(17) 0.7464(6) 0.9968(6)
C17_8 C 0.00747(13) 0.5820(4) 0.6056(5)
H9_8 H 0.0212 0.5325 0.5990
C18_8 C 0.01781(10) 0.6736(5) 0.5986(5)
H10_8 H 0.0042 0.8089 0.6038
C21_8 C 0.05155(17) 0.6907(6) 0.5778(6)
C22_8 C 0.07349(17) 0.6195(6) 0.5732(6)
H12_8 H 0.0682 0.5584 0.5867
C23_8 C 0.10308(17) 0.6378(6) 0.5489(6)
H13_8 H 0.1170 0.5884 0.5436
C24_8 C 0.11225(17) 0.7274(5) 0.5324(6)
C25_8 C 0.09122(18) 0.7997(6) 0.5439(7)
H14_8 H 0.0977 0.8613 0.5383
C26_8 C 0.06088(19) 0.7821(6) 0.5635(7)
H15_8 H 0.0467 0.8313 0.5672
C27_8 C 0.14392(17) 0.7464(6) 0.5032(6)
C1_8 C 0.75235(15) 0.4143(4) 0.5799(5)
C2_8 C 0.77319(14) 0.4878(4) 0.6414(5)
C3_8 C 0.80510(14) 0.4990(4) 0.6326(5)
H1_8 H 0.8136 0.4607 0.5896
C4_8 C 0.82470(15) 0.5670(5) 0.6876(5)
C5_8 C 0.81082(15) 0.6212(5) 0.7525(5)
H2_8 H 0.8234 0.6666 0.7905
C6_8 C 0.77907(14) 0.6100(4) 0.7624(5)
C7_8 C 0.75996(14) 0.5449(4) 0.7040(5)
H3_8 H 0.7382 0.5394 0.7067
C8_8 C 0.76584(15) 0.6701(5) 0.8366(5)
C9_8 C 0.85836(15) 0.5829(5) 0.6760(5)
C10_8 C 0.87833(15) 0.5125(5) 0.6537(5)
H4_8 H 0.8703 0.4517 0.6469
C11_8 C 0.90938(16) 0.5285(6) 0.6413(6)
H5_8 H 0.9220 0.4784 0.6288
C12_8 C 0.92207(16) 0.6176(5) 0.6469(5)
C13_8 C 0.90292(18) 0.6902(6) 0.6696(6)
H6_8 H 0.9109 0.7510 0.6744
C14_8 C 0.87195(18) 0.6728(6) 0.6850(6)
H7_8 H 0.8598 0.7223 0.7018
C15_8 C 0.95611(10) 0.6384(4) 0.6326(5)
C16_8 C 0.97662(14) 0.5644(3) 0.6227(5)
H8_8 H 0.9697 0.5031 0.6274
C19_8 C 0.99730(15) 0.7476(3) 0.6085(6)
C20_8 C 0.96645(13) 0.7300(4) 0.6255(6)
H11_8 H 0.9527 0.7795 0.6322
O1_8 O 0.67801(14) 0.4257(5) 0.3623(4)
H16_8 H 0.6621 0.4066 0.3185
H17_8 H 0.6815 0.4839 0.3743
O2_8 O 0.67875(16) 0.2307(5) 0.2898(5)
H18_8 H 0.6641 0.1916 0.2956
H19_8 H 0.6905 0.2399 0.2476
O3_8 O 0.72238(10) 0.4263(3) 0.5563(4)
loop_
_geom_bond_atom_site_label_1
_geom_bond_atom_site_label_2
_geom_bond_site_symmetry_1
_geom_bond_site_symmetry_2
C1 C2 1_555 1_555
C2 C3 1_555 1_555
C3 H1 1_555 1_555
O3 C1 1_555 1_555
O4 C1 1_555 1_555
Tb5 O4 1_555 1_555
O1 H16 1_555 1_555
H17 O1 1_555 1_555
O2 H18 1_555 1_555
H19 O2 1_555 1_555
Tb1 O1 1_555 1_555
O9 Tb1 1_555 1_555
O10 Tb1 1_555 1_555
O13 Tb1 1_555 1_555
O2 Tb1 1_555 1_555
C5 C4 1_555 1_555
H2 C5 1_555 1_555
C6 C5 1_555 1_555
H3 C7 1_555 1_555
C8 C6 1_555 1_555
C9 C4 1_555 1_555
C10 C9 1_555 1_555
C11 C10 1_555 1_555
C12 C11 1_555 1_555
C13 C12 1_555 1_555
H6 C13 1_555 1_555
C14 C9 1_555 1_555
H7 C14 1_555 1_555
C15 C12 1_555 1_555
C16 C15 1_555 1_555
H8 C16 1_555 1_555
C17 C16 1_555 1_555
H9 C17 1_555 1_555
C18 C17 1_555 1_555
C19 C18 1_555 1_555
H10 C19 1_555 1_555
C20 C15 1_555 1_555
H11 C20 1_555 1_555
C21 C18 1_555 1_555
C22 C21 1_555 1_555
H12 C22 1_555 1_555
C23 C22 1_555 1_555
H13 C23 1_555 1_555
C24 C23 1_555 1_555
C25 C24 1_555 1_555
H14 C25 1_555 1_555
C26 C21 1_555 1_555
H15 C26 1_555 1_555
C27 C24 1_555 1_555
O5 C8 1_555 1_555
O6 C8 1_555 1_555
O7 C27 1_555 1_555
Tb3 O6 1_555 1_555
Tb4 O5 1_555 1_555
C6 C7 1_555 1_555
C13 C14 1_555 1_555
C19 C20 1_555 1_555
C25 C26 1_555 1_555
O8 Tb2 1_555 1_555
C1_2 C2_2 1_555 1_555
C2_2 C3_2 1_555 1_555
C3_2 H1_2 1_555 1_555
O1_2 H16_2 1_555 1_555
H17_2 O1_2 1_555 1_555
O2_2 H18_2 1_555 1_555
H19_2 O2_2 1_555 1_555
O3_2 C1_2 1_555 1_555
O4_2 C1_2 1_555 1_555
Tb1_2 O1_2 1_555 1_555
O9_2 Tb1_2 1_555 1_555
O10_2 Tb1_2 1_555 1_555
O11_2 Tb1_2 1_555 1_555
O12_2 Tb1_2 1_555 1_555
O13_2 Tb1_2 1_555 1_555
Tb5_2 O4_2 1_555 1_555
O2_2 Tb1_2 1_555 1_555
O3_2 Tb1_2 1_555 1_555
O4_2 Tb1_2 1_555 1_555
O9_2 Tb5_2 1_555 1_555
C5_2 C4_2 1_555 1_555
H2_2 C5_2 1_555 1_555
C6_2 C5_2 1_555 1_555
H3_2 C7_2 1_555 1_555
C8_2 C6_2 1_555 1_555
C9_2 C4_2 1_555 1_555
C10_2 C9_2 1_555 1_555
C11_2 C10_2 1_555 1_555
C12_2 C11_2 1_555 1_555
C13_2 C12_2 1_555 1_555
H6_2 C13_2 1_555 1_555
C14_2 C9_2 1_555 1_555
H7_2 C14_2 1_555 1_555
C15_2 C12_2 1_555 1_555
C16_2 C15_2 1_555 1_555
H8_2 C16_2 1_555 1_555
C17_2 C16_2 1_555 1_555
H9_2 C17_2 1_555 1_555
C18_2 C17_2 1_555 1_555
C19_2 C18_2 1_555 1_555
H10_2 C19_2 1_555 1_555
C20_2 C15_2 1_555 1_555
H11_2 C20_2 1_555 1_555
C21_2 C18_2 1_555 1_555
C22_2 C21_2 1_555 1_555
H12_2 C22_2 1_555 1_555
C23_2 C22_2 1_555 1_555
H13_2 C23_2 1_555 1_555
C24_2 C23_2 1_555 1_555
C25_2 C24_2 1_555 1_555
H14_2 C25_2 1_555 1_555
C26_2 C21_2 1_555 1_555
H15_2 C26_2 1_555 1_555
C27_2 C24_2 1_555 1_555
O5_2 C8_2 1_555 1_555
O6_2 C8_2 1_555 1_555
O7_2 C27_2 1_555 1_555
O8_2 C27_2 1_555 1_555
Tb3 O7_2 1_555 1_555
Tb4_2 O5_2 1_555 1_555
C6_2 C7_2 1_555 1_555
C13_2 C14_2 1_555 1_555
C19_2 C20_2 1_555 1_555
C25_2 C26_2 1_555 1_555
O8_2 Tb3 1_555 1_555
H9_3 C17_3 1_555 1_555
C18_3 C17_3 1_555 1_555
C21_3 C18_3 1_555 1_555
C22_3 C21_3 1_555 1_555
H12_3 C22_3 1_555 1_555
C23_3 C22_3 1_555 1_555
H13_3 C23_3 1_555 1_555
C24_3 C23_3 1_555 1_555
C25_3 C24_3 1_555 1_555
H14_3 C25_3 1_555 1_555
C26_3 C21_3 1_555 1_555
H15_3 C26_3 1_555 1_555
C27_3 C24_3 1_555 1_555
O12 C27_3 1_555 1_555
C25_3 C26_3 1_555 1_555
C1_3 C2_3 1_555 1_555
C2_3 C3_3 1_555 1_555
C3_3 H1_3 1_555 1_555
C4_3 C3_3 1_555 1_555
C5_3 C4_3 1_555 1_555
H2_3 C5_3 1_555 1_555
C6_3 C5_3 1_555 1_555
C7_3 C2_3 1_555 1_555
H3_3 C7_3 1_555 1_555
C8_3 C6_3 1_555 1_555
C9_3 C4_3 1_555 1_555
C10_3 C9_3 1_555 1_555
H4_3 C10_3 1_555 1_555
C11_3 C10_3 1_555 1_555
H5_3 C11_3 1_555 1_555
C12_3 C11_3 1_555 1_555
C13_3 C12_3 1_555 1_555
H6_3 C13_3 1_555 1_555
C14_3 C9_3 1_555 1_555
H7_3 C14_3 1_555 1_555
C15_3 C12_3 1_555 1_555
C16_3 C15_3 1_555 1_555
H8_3 C16_3 1_555 1_555
C20_3 C15_3 1_555 1_555
H11_3 C20_3 1_555 1_555
O3_3 C1_3 1_555 1_555
O4_3 C1_3 1_555 1_555
O5_3 C8_3 1_555 1_555
O11_2 C8_3 1_555 1_555
Tb5_2 O5_3 1_555 1_555
Tb4_2 O4_3 1_555 1_555
C6_3 C7_3 1_555 1_555
C13_3 C14_3 1_555 1_555
C19_3 C20_3 1_555 1_555
O1_3 H16_3 1_555 1_555
H17_3 O1_3 1_555 1_555
O2_3 H18_3 1_555 1_555
H19_3 O2_3 1_555 1_555
Tb2 O1_3 1_555 1_555
O9_3 Tb2 1_555 1_555
O10_3 Tb2 1_555 1_555
O2_3 Tb2 1_555 1_555
C1_4 C2_4 1_555 1_555
C2_4 C3_4 1_555 1_555
C3_4 H1_4 1_555 1_555
C4_4 C3_4 1_555 1_555
C5_4 C4_4 1_555 1_555
H2_4 C5_4 1_555 1_555
C6_4 C5_4 1_555 1_555
C7_4 C2_4 1_555 1_555
H3_4 C7_4 1_555 1_555
C8_4 C6_4 1_555 1_555
C9_4 C4_4 1_555 1_555
C10_4 C9_4 1_555 1_555
H4_4 C10_4 1_555 1_555
C11_4 C10_4 1_555 1_555
H5_4 C11_4 1_555 1_555
C12_4 C11_4 1_555 1_555
C13_4 C12_4 1_555 1_555
H6_4 C13_4 1_555 1_555
C14_4 C9_4 1_555 1_555
H7_4 C14_4 1_555 1_555
C15_4 C12_4 1_555 1_555
C16_4 C15_4 1_555 1_555
H8_4 C16_4 1_555 1_555
C20_4 C15_4 1_555 1_555
H11_4 C20_4 1_555 1_555
O1_4 H16_4 1_555 1_555
H17_4 O1_4 1_555 1_555
O2_4 H18_4 1_555 1_555
H19_4 O2_4 1_555 1_555
O3_4 C1_4 1_555 1_555
O4_4 C1_4 1_555 1_555
O5_4 C8_4 1_555 1_555
O11 C8_4 1_555 1_555
Tb3 O1_4 1_555 1_555
O9_4 Tb3 1_555 1_555
O10_4 Tb3 1_555 1_555
Tb5 O5_4 1_555 1_555
Tb4 O4_4 1_555 1_555
C6_4 C7_4 1_555 1_555
C13_4 C14_4 1_555 1_555
C19_4 C20_4 1_555 1_555
O2_4 Tb3 1_555 1_555
O3_4 Tb3 1_555 1_555
O4_4 Tb3 1_555 1_555
O9_4 Tb4 1_555 1_555
H9_4 C17_4 1_555 1_555
C18_4 C17_4 1_555 1_555
C21_4 C18_4 1_555 1_555
C22_4 C21_4 1_555 1_555
H12_4 C22_4 1_555 1_555
C23_4 C22_4 1_555 1_555
H13_4 C23_4 1_555 1_555
C24_4 C23_4 1_555 1_555
C25_4 C24_4 1_555 1_555
H14_4 C25_4 1_555 1_555
C26_4 C21_4 1_555 1_555
H15_4 C26_4 1_555 1_555
C27_4 C24_4 1_555 1_555
O12_2 C27_4 1_555 1_555
O13_2 C27_4 1_555 1_555
C25_4 C26_4 1_555 1_555
O8_3 Tb5 1_555 1_555
C5_5 C4_5 1_555 1_555
H2_5 C5_5 1_555 1_555
C6_5 C5_5 1_555 1_555
H3_5 C7_5 1_555 1_555
C8_5 C6_5 1_555 1_555
C9_5 C4_5 1_555 1_555
C10_5 C9_5 1_555 1_555
C11_5 C10_5 1_555 1_555
C12_5 C11_5 1_555 1_555
C13_5 C12_5 1_555 1_555
H6_5 C13_5 1_555 1_555
C14_5 C9_5 1_555 1_555
H7_5 C14_5 1_555 1_555
C15_5 C12_5 1_555 1_555
C16_5 C15_5 1_555 1_555
H8_5 C16_5 1_555 1_555
C17_5 C16_5 1_555 1_555
H9_5 C17_5 1_555 1_555
C18_5 C17_5 1_555 1_555
C19_5 C18_5 1_555 1_555
H10_5 C19_5 1_555 1_555
C20_5 C15_5 1_555 1_555
H11_5 C20_5 1_555 1_555
C21_5 C18_5 1_555 1_555
C22_5 C21_5 1_555 1_555
H12_5 C22_5 1_555 1_555
C23_5 C22_5 1_555 1_555
H13_5 C23_5 1_555 1_555
C24_5 C23_5 1_555 1_555
C25_5 C24_5 1_555 1_555
H14_5 C25_5 1_555 1_555
C26_5 C21_5 1_555 1_555
H15_5 C26_5 1_555 1_555
C27_5 C24_5 1_555 1_555
O10_2 C8_5 1_555 1_555
O6_3 C8_5 1_555 1_555
O7_3 C27_5 1_555 1_555
Tb5_2 O6_3 1_555 1_555
C6_5 C7_5 1_555 1_555
C13_5 C14_5 1_555 1_555
C19_5 C20_5 1_555 1_555
C25_5 C26_5 1_555 1_555
O1_5 H16_5 1_555 1_555
H17_5 O1_5 1_555 1_555
O2_5 H18_5 1_555 1_555
H19_5 O2_5 1_555 1_555
Tb4_2 O1_5 1_555 1_555
O13_3 Tb4_2 1_555 1_555
O2_5 Tb4_2 1_555 1_555
C1_5 C2_5 1_555 1_555
C2_5 C3_5 1_555 1_555
C3_5 H1_5 1_555 1_555
O3_5 C1_5 1_555 1_555
O9_3 C1_5 1_555 1_555
C5_6 C4_6 1_555 1_555
H2_6 C5_6 1_555 1_555
C6_6 C5_6 1_555 1_555
H3_6 C7_6 1_555 1_555
C8_6 C6_6 1_555 1_555
C9_6 C4_6 1_555 1_555
C10_6 C9_6 1_555 1_555
C11_6 C10_6 1_555 1_555
C12_6 C11_6 1_555 1_555
C13_6 C12_6 1_555 1_555
H6_6 C13_6 1_555 1_555
C14_6 C9_6 1_555 1_555
H7_6 C14_6 1_555 1_555
C15_6 C12_6 1_555 1_555
C16_6 C15_6 1_555 1_555
H8_6 C16_6 1_555 1_555
C17_6 C16_6 1_555 1_555
H9_6 C17_6 1_555 1_555
C18_6 C17_6 1_555 1_555
C19_6 C18_6 1_555 1_555
H10_6 C19_6 1_555 1_555
C20_6 C15_6 1_555 1_555
H11_6 C20_6 1_555 1_555
C21_6 C18_6 1_555 1_555
C22_6 C21_6 1_555 1_555
H12_6 C22_6 1_555 1_555
C23_6 C22_6 1_555 1_555
H13_6 C23_6 1_555 1_555
C24_6 C23_6 1_555 1_555
C25_6 C24_6 1_555 1_555
H14_6 C25_6 1_555 1_555
C26_6 C21_6 1_555 1_555
H15_6 C26_6 1_555 1_555
C27_6 C24_6 1_555 1_555
O10 C8_6 1_555 1_555
O6_4 C8_6 1_555 1_555
O7_4 C27_6 1_555 1_555
O8_4 C27_6 1_555 1_555
Tb5_2 O7_4 1_555 1_555
C6_6 C7_6 1_555 1_555
C13_6 C14_6 1_555 1_555
C19_6 C20_6 1_555 1_555
C25_6 C26_6 1_555 1_555
O8_4 Tb5_2 1_555 1_555
C1_6 C2_6 1_555 1_555
C2_6 C3_6 1_555 1_555
C3_6 H1_6 1_555 1_555
O1_6 H16_6 1_555 1_555
H17_6 O1_6 1_555 1_555
O2_6 H18_6 1_555 1_555
H19_6 O2_6 1_555 1_555
O3_6 C1_6 1_555 1_555
O9_4 C1_6 1_555 1_555
Tb4 O1_6 1_555 1_555
O11_4 Tb4 1_555 1_555
O12_4 Tb4 1_555 1_555
O13_4 Tb4 1_555 1_555
O2_6 Tb4 1_555 1_555
O3_6 Tb4 1_555 1_555
O1_7 H16_7 1_555 1_555
H17_7 O1_7 1_555 1_555
O2_7 H18_7 1_555 1_555
H19_7 O2_7 1_555 1_555
Tb5 O1_7 1_555 1_555
O2_7 Tb5 1_555 1_555
C1_7 C2_7 1_555 1_555
C2_7 C3_7 1_555 1_555
C3_7 H1_7 1_555 1_555
C4_7 C3_7 1_555 1_555
C5_7 C4_7 1_555 1_555
H2_7 C5_7 1_555 1_555
C6_7 C5_7 1_555 1_555
C7_7 C2_7 1_555 1_555
H3_7 C7_7 1_555 1_555
C8_7 C6_7 1_555 1_555
C9_7 C4_7 1_555 1_555
C10_7 C9_7 1_555 1_555
H4_7 C10_7 1_555 1_555
C11_7 C10_7 1_555 1_555
H5_7 C11_7 1_555 1_555
C12_7 C11_7 1_555 1_555
C13_7 C12_7 1_555 1_555
H6_7 C13_7 1_555 1_555
C14_7 C9_7 1_555 1_555
H7_7 C14_7 1_555 1_555
C15_7 C12_7 1_555 1_555
C16_7 C15_7 1_555 1_555
H8_7 C16_7 1_555 1_555
C20_7 C15_7 1_555 1_555
H11_7 C20_7 1_555 1_555
O3_7 C1_7 1_555 1_555
O9 C1_7 1_555 1_555
O10_4 C8_7 1_555 1_555
O11_4 C8_7 1_555 1_555
C6_7 C7_7 1_555 1_555
C13_7 C14_7 1_555 1_555
C19_7 C20_7 1_555 1_555
H9_7 C17_7 1_555 1_555
C18_7 C17_7 1_555 1_555
C21_7 C18_7 1_555 1_555
C22_7 C21_7 1_555 1_555
H12_7 C22_7 1_555 1_555
C23_7 C22_7 1_555 1_555
H13_7 C23_7 1_555 1_555
C24_7 C23_7 1_555 1_555
C25_7 C24_7 1_555 1_555
H14_7 C25_7 1_555 1_555
C26_7 C21_7 1_555 1_555
H15_7 C26_7 1_555 1_555
C27_7 C24_7 1_555 1_555
O12_3 C27_7 1_555 1_555
C25_7 C26_7 1_555 1_555
H9_8 C17_8 1_555 1_555
C18_8 C17_8 1_555 1_555
C21_8 C18_8 1_555 1_555
C22_8 C21_8 1_555 1_555
H12_8 C22_8 1_555 1_555
C23_8 C22_8 1_555 1_555
H13_8 C23_8 1_555 1_555
C24_8 C23_8 1_555 1_555
C25_8 C24_8 1_555 1_555
H14_8 C25_8 1_555 1_555
C26_8 C21_8 1_555 1_555
H15_8 C26_8 1_555 1_555
C27_8 C24_8 1_555 1_555
O12_4 C27_8 1_555 1_555
O13_4 C27_8 1_555 1_555
C25_8 C26_8 1_555 1_555
C1_8 C2_8 1_555 1_555
C2_8 C3_8 1_555 1_555
C3_8 H1_8 1_555 1_555
C4_8 C3_8 1_555 1_555
C5_8 C4_8 1_555 1_555
H2_8 C5_8 1_555 1_555
C6_8 C5_8 1_555 1_555
C7_8 C2_8 1_555 1_555
H3_8 C7_8 1_555 1_555
C8_8 C6_8 1_555 1_555
C9_8 C4_8 1_555 1_555
C10_8 C9_8 1_555 1_555
H4_8 C10_8 1_555 1_555
C11_8 C10_8 1_555 1_555
H5_8 C11_8 1_555 1_555
C12_8 C11_8 1_555 1_555
C13_8 C12_8 1_555 1_555
H6_8 C13_8 1_555 1_555
C14_8 C9_8 1_555 1_555
H7_8 C14_8 1_555 1_555
C15_8 C12_8 1_555 1_555
C16_8 C15_8 1_555 1_555
H8_8 C16_8 1_555 1_555
C20_8 C15_8 1_555 1_555
H11_8 C20_8 1_555 1_555
O1_8 H16_8 1_555 1_555
H17_8 O1_8 1_555 1_555
O2_8 H18_8 1_555 1_555
H19_8 O2_8 1_555 1_555
O3_8 C1_8 1_555 1_555
O9_2 C1_8 1_555 1_555
O10_3 C8_8 1_555 1_555
O11_3 C8_8 1_555 1_555
Tb5_2 O1_8 1_555 1_555
C6_8 C7_8 1_555 1_555
C13_8 C14_8 1_555 1_555
C19_8 C20_8 1_555 1_555
O2_8 Tb5_2 1_555 1_555
O3_8 Tb5_2 1_555 1_555

#END
