
###############################################################################
#
# This file contains modified crystal structure data generated from the
# MOF subset of the Cambridge Structural Database (CSD) v543 
# hosted by the Cambridge Crystallographic Data Centre (CCDC).
#
# This work is licensed under the Creative Commons
# Attribution-NonCommercial-ShareAlike 4.0 International License.
# To view a copy of this license, visit
# http://creativecommons.org/licenses/by-nc-sa/4.0/
# or send a letter to
# Creative Commons, PO Box 1866, Mountain View, CA 94042, USA.
#
# CIF created using the CSD Python API on 29 September 2022
# The structure has been converted into the P1 space group
# The structure has a 3D framework
# The original CSD entry APAZAU is in the monoclinic crystal system
# The framework has been calculated to contain at least 10.0% void space
# The void calculation uses a probe of radius 1.32A, grid spacing 0.4
#
###############################################################################

data_APAZAU
_chemical_formula_moiety         '(C216 H152 Eu8 O64)n'
_symmetry_cell_setting           triclinic
_symmetry_space_group_name_H-M   'P 1'
_symmetry_Int_Tables_number      1
_space_group_name_Hall           'P 1'
loop_
_symmetry_equiv_pos_site_id
_symmetry_equiv_pos_as_xyz
1 x,y,z
_cell_length_a                   42.142(15)
_cell_length_b                   14.065(5)
_cell_length_c                   13.870(5)
_cell_angle_alpha                90
_cell_angle_beta                 101.996(5)
_cell_angle_gamma                90
_cell_volume                     8041.59
loop_
_atom_site_label
_atom_site_type_symbol
_atom_site_fract_x
_atom_site_fract_y
_atom_site_fract_z
Eu3 Eu 0.29589(2) 0.79234(4) 0.04796(4)
C1 C 0.2528(3) 0.4212(9) 0.5771(9)
C2 C 0.2724(3) 0.4923(8) 0.6358(8)
C3 C 0.3047(3) 0.5031(8) 0.6303(9)
H1 H 0.3135 0.4640 0.5885
C4 C 0.3243(3) 0.5722(9) 0.6870(9)
C5 C 0.3113(2) 0.6258(8) 0.7515(8)
H2 H 0.3242 0.6713 0.7895
C6 C 0.2798(2) 0.6147(8) 0.7623(8)
C7 C 0.2596(2) 0.5510(8) 0.6996(8)
H3 H 0.2376 0.5479 0.7005
C8 C 0.2655(3) 0.6763(10) 0.8372(10)
C9 C 0.3588(3) 0.5869(9) 0.6764(10)
C10 C 0.3783(3) 0.5145(10) 0.6555(10)
H4 H 0.3700 0.4530 0.6515
C11 C 0.4098(3) 0.5272(10) 0.6399(10)
H5 H 0.4217 0.4755 0.6254
C12 C 0.4231(3) 0.6198(10) 0.6464(10)
C13 C 0.4034(3) 0.6973(10) 0.6713(12)
H6 H 0.4121 0.7582 0.6800
C14 C 0.3715(3) 0.6819(10) 0.6823(11)
H7 H 0.3586 0.7328 0.6934
C15 C 0.45710(19) 0.6380(8) 0.6350(9)
C16 C 0.4759(2) 0.5628(6) 0.6138(9)
H8 H 0.4681 0.5009 0.6123
C17 C 0.5065(2) 0.5801(7) 0.5947(9)
H9 H 0.5191 0.5298 0.5805
C18 C 0.5183(2) 0.6726(8) 0.5969(9)
C19 C 0.4994(3) 0.7478(6) 0.6181(10)
H10 H 0.5073 0.8097 0.6196
C20 C 0.4689(2) 0.7305(7) 0.6372(10)
H11 H 0.4562 0.7808 0.6514
C21 C 0.6441(3) 0.7490(11) 0.4995(11)
C22 C 0.55246(17) 0.6921(7) 0.5788(8)
C23 C 0.5734(2) 0.6176(5) 0.5702(7)
H12 H 0.5673 0.5553 0.5800
C24 C 0.60329(19) 0.6362(5) 0.5469(7)
H13 H 0.6173 0.5863 0.5411
C25 C 0.61231(17) 0.7293(6) 0.5322(8)
C26 C 0.5914(2) 0.8038(5) 0.5408(9)
H14 H 0.5974 0.8660 0.5310
C27 C 0.5615(2) 0.7852(6) 0.5641(9)
H15 H 0.5475 0.8350 0.5699
Eu1 Eu 0.20411(2) 0.29234(4) 0.45204(4)
O1 O 0.1770(3) 0.4256(9) 0.3522(9)
H16 H 0.1613 0.4046 0.3089
H17 H 0.1910 0.4695 0.3664
O2 O 0.1782(3) 0.2227(8) 0.2916(8)
H18 H 0.1636 0.1840 0.3001
H19 H 0.1933 0.2301 0.2603
O3 O 0.22275(19) 0.4327(6) 0.5508(7)
O4 O 0.26449(17) 0.3460(6) 0.5486(6)
O5 O 0.23786(19) 0.6624(7) 0.8401(6)
O6 O 0.2839(2) 0.7399(7) 0.8810(6)
O7 O 0.6536(2) 0.8324(8) 0.5058(8)
O8 O 0.6595(2) 0.6840(7) 0.4747(7)
Eu2 Eu 0.70411(2) 0.79234(4) 0.45204(4)
Eu4 Eu 0.20411(2) 0.70766(4) 0.95204(4)
Eu5 Eu 0.29589(2) 0.20766(4) 0.54796(4)
O9 O 0.23551(17) 0.1540(6) 0.4514(6)
O10 O 0.23786(19) 0.3376(7) 0.3401(6)
O11 O 0.2161(2) 0.2399(7) 0.6190(6)
O12 O 0.1536(2) 0.3324(8) 0.5058(8)
O13 O 0.1595(2) 0.1840(7) 0.4747(7)
C21_2 C 0.3559(3) 0.7490(11) 0.0005(11)
Eu1_2 Eu 0.79589(2) 0.29234(4) 0.04796(4)
O1_2 O 0.8230(3) 0.4256(9) 0.1478(9)
H16_2 H 0.8387 0.4046 0.1911
H17_2 H 0.8090 0.4695 0.1336
O2_2 O 0.8218(3) 0.2227(8) 0.2084(8)
H18_2 H 0.8364 0.1840 0.1999
H19_2 H 0.8067 0.2301 0.2397
O8_2 O 0.3405(2) 0.6840(7) 0.0253(7)
O9_2 O 0.76449(17) 0.1540(6) 0.0486(6)
O10_2 O 0.76214(19) 0.3376(7) 0.1599(6)
O13_2 O 0.8405(2) 0.1840(7) 0.0253(7)
C1_2 C 0.7472(3) 0.4212(9) 0.9229(9)
C2_2 C 0.7276(3) 0.4923(8) 0.8642(8)
C3_2 C 0.6953(3) 0.5031(8) 0.8697(9)
H1_2 H 0.6865 0.4640 0.9115
C4_2 C 0.6757(3) 0.5722(9) 0.8130(9)
C5_2 C 0.6887(2) 0.6258(8) 0.7485(8)
H2_2 H 0.6758 0.6713 0.7105
C6_2 C 0.7202(2) 0.6147(8) 0.7377(8)
C7_2 C 0.7404(2) 0.5510(8) 0.8004(8)
H3_2 H 0.7624 0.5479 0.7995
C8_2 C 0.7345(3) 0.6763(10) 0.6628(10)
C9_2 C 0.6412(3) 0.5869(9) 0.8236(10)
C10_2 C 0.6217(3) 0.5145(10) 0.8445(10)
H4_2 H 0.6300 0.4530 0.8485
C11_2 C 0.5902(3) 0.5272(10) 0.8601(10)
H5_2 H 0.5783 0.4755 0.8746
C12_2 C 0.5769(3) 0.6198(10) 0.8536(10)
C13_2 C 0.5966(3) 0.6973(10) 0.8287(12)
H6_2 H 0.5879 0.7582 0.8200
C14_2 C 0.6285(3) 0.6819(10) 0.8177(11)
H7_2 H 0.6414 0.7328 0.8066
C15_2 C 0.54290(19) 0.6380(8) 0.8650(9)
C16_2 C 0.5241(2) 0.5628(6) 0.8862(9)
H8_2 H 0.5319 0.5009 0.8877
C17_2 C 0.4935(2) 0.5801(7) 0.9053(9)
H9_2 H 0.4809 0.5298 0.9195
C18_2 C 0.4817(2) 0.6726(8) 0.9031(9)
C19_2 C 0.5006(3) 0.7478(6) 0.8819(10)
H10_2 H 0.4927 0.8097 0.8804
C20_2 C 0.5311(2) 0.7305(7) 0.8628(10)
H11_2 H 0.5438 0.7808 0.8486
C22_2 C 0.44754(17) 0.6921(7) 0.9212(8)
C23_2 C 0.4266(2) 0.6176(5) 0.9298(7)
H12_2 H 0.4327 0.5553 0.9200
C24_2 C 0.39671(19) 0.6362(5) 0.9531(7)
H13_2 H 0.3827 0.5863 0.9589
C25_2 C 0.38769(17) 0.7293(6) 0.9678(8)
C26_2 C 0.4086(2) 0.8038(5) 0.9592(9)
H14_2 H 0.4026 0.8660 0.9690
C27_2 C 0.4385(2) 0.7852(6) 0.9359(9)
H15_2 H 0.4525 0.8350 0.9301
O3_2 O 0.77725(19) 0.4327(6) 0.9492(7)
O4_2 O 0.73551(17) 0.3460(6) 0.9514(6)
O5_2 O 0.76214(19) 0.6624(7) 0.6599(6)
O6_2 O 0.7161(2) 0.7399(7) 0.6190(6)
O7_2 O 0.3464(2) 0.8324(8) 0.9942(8)
Eu4_2 Eu 0.79589(2) 0.70766(4) 0.54796(4)
Eu5_2 Eu 0.70411(2) 0.20766(4) 0.95204(4)
O11_2 O 0.7839(2) 0.2399(7) 0.8810(6)
O12_2 O 0.8464(2) 0.3324(8) 0.9942(8)
C17_3 C 0.0065(2) 0.0801(7) 0.5947(9)
H9_3 H 0.0191 0.0298 0.5805
C18_3 C 0.0183(2) 0.1726(8) 0.5969(9)
H10_3 H 0.0073 0.3097 0.6196
C21_3 C 0.1441(3) 0.2490(11) 0.4995(11)
C22_3 C 0.05246(17) 0.1921(7) 0.5788(8)
C23_3 C 0.0734(2) 0.1176(5) 0.5702(7)
H12_3 H 0.0673 0.0553 0.5800
C24_3 C 0.10329(19) 0.1362(5) 0.5469(7)
H13_3 H 0.1173 0.0863 0.5411
C25_3 C 0.11231(17) 0.2293(6) 0.5322(8)
C26_3 C 0.0914(2) 0.3038(5) 0.5408(9)
H14_3 H 0.0974 0.3660 0.5310
C27_3 C 0.0615(2) 0.2852(6) 0.5641(9)
H15_3 H 0.0475 0.3350 0.5699
C3_3 C 0.8047(3) 0.0031(8) 0.6303(9)
C4_3 C 0.8243(3) 0.0722(9) 0.6870(9)
C5_3 C 0.8113(2) 0.1258(8) 0.7515(8)
H2_3 H 0.8242 0.1713 0.7895
C6_3 C 0.7798(2) 0.1147(8) 0.7623(8)
C7_3 C 0.7596(2) 0.0510(8) 0.6996(8)
H3_3 H 0.7376 0.0479 0.7005
C8_3 C 0.7655(3) 0.1763(10) 0.8372(10)
C9_3 C 0.8588(3) 0.0869(9) 0.6764(10)
C10_3 C 0.8783(3) 0.0145(10) 0.6555(10)
C11_3 C 0.9098(3) 0.0272(10) 0.6399(10)
C12_3 C 0.9231(3) 0.1198(10) 0.6464(10)
C13_3 C 0.9034(3) 0.1973(10) 0.6713(12)
H6_3 H 0.9121 0.2582 0.6800
C14_3 C 0.8715(3) 0.1819(10) 0.6823(11)
H7_3 H 0.8586 0.2328 0.6934
C15_3 C 0.95710(19) 0.1380(8) 0.6350(9)
C16_3 C 0.9759(2) 0.0628(6) 0.6138(9)
H8_3 H 0.9681 0.0009 0.6123
C19_3 C 0.9994(3) 0.2478(6) 0.6181(10)
C20_3 C 0.9689(2) 0.2305(7) 0.6372(10)
H11_3 H 0.9562 0.2808 0.6514
O5_3 O 0.73786(19) 0.1624(7) 0.8401(6)
C1_3 C 0.7528(3) 0.9212(9) 0.5771(9)
C2_3 C 0.7724(3) 0.9923(8) 0.6358(8)
H1_3 H 0.8135 0.9640 0.5885
H4_3 H 0.8700 0.9530 0.6515
H5_3 H 0.9217 0.9755 0.6254
O1_3 O 0.6770(3) 0.9256(9) 0.3522(9)
H16_3 H 0.6613 0.9046 0.3089
H17_3 H 0.6910 0.9695 0.3664
O2_3 O 0.6782(3) 0.7227(8) 0.2916(8)
H18_3 H 0.6636 0.6840 0.3001
H19_3 H 0.6933 0.7301 0.2603
O3_3 O 0.72275(19) 0.9327(6) 0.5508(7)
O4_3 O 0.76449(17) 0.8460(6) 0.5486(6)
O9_3 O 0.73551(17) 0.6540(6) 0.4514(6)
O10_3 O 0.73786(19) 0.8376(7) 0.3401(6)
C3_4 C 0.1953(3) 0.0031(8) 0.8697(9)
C4_4 C 0.1757(3) 0.0722(9) 0.8130(9)
C5_4 C 0.1887(2) 0.1258(8) 0.7485(8)
H2_4 H 0.1758 0.1713 0.7105
C6_4 C 0.2202(2) 0.1147(8) 0.7377(8)
C7_4 C 0.2404(2) 0.0510(8) 0.8004(8)
H3_4 H 0.2624 0.0479 0.7995
C8_4 C 0.2345(3) 0.1763(10) 0.6628(10)
C9_4 C 0.1412(3) 0.0869(9) 0.8236(10)
C10_4 C 0.1217(3) 0.0145(10) 0.8445(10)
C11_4 C 0.0902(3) 0.0272(10) 0.8601(10)
C12_4 C 0.0769(3) 0.1198(10) 0.8536(10)
C13_4 C 0.0966(3) 0.1973(10) 0.8287(12)
H6_4 H 0.0879 0.2582 0.8200
C14_4 C 0.1285(3) 0.1819(10) 0.8177(11)
H7_4 H 0.1414 0.2328 0.8066
C15_4 C 0.04290(19) 0.1380(8) 0.8650(9)
C16_4 C 0.0241(2) 0.0628(6) 0.8862(9)
H8_4 H 0.0319 0.0009 0.8877
C19_4 C 0.0006(3) 0.2478(6) 0.8819(10)
C20_4 C 0.0311(2) 0.2305(7) 0.8628(10)
H11_4 H 0.0438 0.2808 0.8486
O5_4 O 0.26214(19) 0.1624(7) 0.6599(6)
O1_4 O 0.3230(3) 0.9256(9) 0.1478(9)
H16_4 H 0.3387 0.9046 0.1911
H17_4 H 0.3090 0.9695 0.1336
O2_4 O 0.3218(3) 0.7227(8) 0.2084(8)
H18_4 H 0.3364 0.6840 0.1999
H19_4 H 0.3067 0.7301 0.2397
O9_4 O 0.26449(17) 0.6540(6) 0.0486(6)
O10_4 O 0.26214(19) 0.8376(7) 0.1599(6)
C1_4 C 0.2472(3) 0.9212(9) 0.9229(9)
C2_4 C 0.2276(3) 0.9923(8) 0.8642(8)
H1_4 H 0.1865 0.9640 0.9115
H4_4 H 0.1300 0.9530 0.8485
H5_4 H 0.0783 0.9755 0.8746
O3_4 O 0.27725(19) 0.9327(6) 0.9492(7)
O4_4 O 0.23551(17) 0.8460(6) 0.9514(6)
C21_4 C 0.8559(3) 0.2490(11) 0.0005(11)
C17_4 C 0.9935(2) 0.0801(7) 0.9053(9)
H9_4 H 0.9809 0.0298 0.9195
C18_4 C 0.9817(2) 0.1726(8) 0.9031(9)
H10_4 H 0.9927 0.3097 0.8804
C22_4 C 0.94754(17) 0.1921(7) 0.9212(8)
C23_4 C 0.9266(2) 0.1176(5) 0.9298(7)
H12_4 H 0.9327 0.0553 0.9200
C24_4 C 0.89671(19) 0.1362(5) 0.9531(7)
H13_4 H 0.8827 0.0863 0.9589
C25_4 C 0.88769(17) 0.2293(6) 0.9678(8)
C26_4 C 0.9086(2) 0.3038(5) 0.9592(9)
H14_4 H 0.9026 0.3660 0.9690
C27_4 C 0.9385(2) 0.2852(6) 0.9359(9)
H15_4 H 0.9525 0.3350 0.9301
C1_5 C 0.7472(3) 0.5788(9) 0.4229(9)
C2_5 C 0.7276(3) 0.5077(8) 0.3642(8)
C3_5 C 0.6953(3) 0.4969(8) 0.3697(9)
H1_5 H 0.6865 0.5360 0.4115
C4_5 C 0.6757(3) 0.4278(9) 0.3130(9)
C5_5 C 0.6887(2) 0.3742(8) 0.2485(8)
H2_5 H 0.6758 0.3287 0.2105
C6_5 C 0.7202(2) 0.3853(8) 0.2377(8)
C7_5 C 0.7404(2) 0.4490(8) 0.3004(8)
H3_5 H 0.7624 0.4521 0.2995
C8_5 C 0.7345(3) 0.3237(10) 0.1628(10)
C9_5 C 0.6412(3) 0.4131(9) 0.3236(10)
C10_5 C 0.6217(3) 0.4855(10) 0.3445(10)
H4_5 H 0.6300 0.5470 0.3485
C11_5 C 0.5902(3) 0.4728(10) 0.3601(10)
H5_5 H 0.5783 0.5245 0.3746
C12_5 C 0.5769(3) 0.3802(10) 0.3536(10)
C13_5 C 0.5966(3) 0.3027(10) 0.3287(12)
H6_5 H 0.5879 0.2418 0.3200
C14_5 C 0.6285(3) 0.3181(10) 0.3177(11)
H7_5 H 0.6414 0.2672 0.3066
C15_5 C 0.54290(19) 0.3620(8) 0.3650(9)
C16_5 C 0.5241(2) 0.4372(6) 0.3862(9)
H8_5 H 0.5319 0.4991 0.3877
C17_5 C 0.4935(2) 0.4199(7) 0.4053(9)
H9_5 H 0.4809 0.4702 0.4195
C18_5 C 0.4817(2) 0.3274(8) 0.4031(9)
C19_5 C 0.5006(3) 0.2522(6) 0.3819(10)
H10_5 H 0.4927 0.1903 0.3804
C20_5 C 0.5311(2) 0.2695(7) 0.3628(10)
H11_5 H 0.5438 0.2192 0.3486
C21_5 C 0.3559(3) 0.2510(11) 0.5005(11)
C22_5 C 0.44754(17) 0.3079(7) 0.4212(8)
C23_5 C 0.4266(2) 0.3824(5) 0.4298(7)
H12_5 H 0.4327 0.4447 0.4200
C24_5 C 0.39671(19) 0.3638(5) 0.4531(7)
H13_5 H 0.3827 0.4137 0.4589
C25_5 C 0.38769(17) 0.2707(6) 0.4678(8)
C26_5 C 0.4086(2) 0.1962(5) 0.4592(9)
H14_5 H 0.4026 0.1340 0.4690
C27_5 C 0.4385(2) 0.2148(6) 0.4359(9)
H15_5 H 0.4525 0.1650 0.4301
O1_5 O 0.8230(3) 0.5744(9) 0.6478(9)
H16_5 H 0.8387 0.5954 0.6911
H17_5 H 0.8090 0.5305 0.6336
O2_5 O 0.8218(3) 0.7773(8) 0.7084(8)
H18_5 H 0.8364 0.8160 0.6999
H19_5 H 0.8067 0.7699 0.7397
O3_5 O 0.77725(19) 0.5673(6) 0.4492(7)
O6_3 O 0.7161(2) 0.2601(7) 0.1190(6)
O7_3 O 0.3464(2) 0.1676(8) 0.4942(8)
O8_3 O 0.3405(2) 0.3160(7) 0.5253(7)
O11_3 O 0.7839(2) 0.7601(7) 0.3810(6)
O12_3 O 0.8464(2) 0.6676(8) 0.4942(8)
O13_3 O 0.8405(2) 0.8160(7) 0.5253(7)
C1_6 C 0.2528(3) 0.5788(9) 0.0771(9)
C2_6 C 0.2724(3) 0.5077(8) 0.1358(8)
C3_6 C 0.3047(3) 0.4969(8) 0.1303(9)
H1_6 H 0.3135 0.5360 0.0885
C4_6 C 0.3243(3) 0.4278(9) 0.1870(9)
C5_6 C 0.3113(2) 0.3742(8) 0.2515(8)
H2_6 H 0.3242 0.3287 0.2895
C6_6 C 0.2798(2) 0.3853(8) 0.2623(8)
C7_6 C 0.2596(2) 0.4490(8) 0.1996(8)
H3_6 H 0.2376 0.4521 0.2005
C8_6 C 0.2655(3) 0.3237(10) 0.3372(10)
C9_6 C 0.3588(3) 0.4131(9) 0.1764(10)
C10_6 C 0.3783(3) 0.4855(10) 0.1555(10)
H4_6 H 0.3700 0.5470 0.1515
C11_6 C 0.4098(3) 0.4728(10) 0.1399(10)
H5_6 H 0.4217 0.5245 0.1254
C12_6 C 0.4231(3) 0.3802(10) 0.1464(10)
C13_6 C 0.4034(3) 0.3027(10) 0.1713(12)
H6_6 H 0.4121 0.2418 0.1800
C14_6 C 0.3715(3) 0.3181(10) 0.1823(11)
H7_6 H 0.3586 0.2672 0.1934
C15_6 C 0.45710(19) 0.3620(8) 0.1350(9)
C16_6 C 0.4759(2) 0.4372(6) 0.1138(9)
H8_6 H 0.4681 0.4991 0.1123
C17_6 C 0.5065(2) 0.4199(7) 0.0947(9)
H9_6 H 0.5191 0.4702 0.0805
C18_6 C 0.5183(2) 0.3274(8) 0.0969(9)
C19_6 C 0.4994(3) 0.2522(6) 0.1181(10)
H10_6 H 0.5073 0.1903 0.1196
C20_6 C 0.4689(2) 0.2695(7) 0.1372(10)
H11_6 H 0.4562 0.2192 0.1514
C22_6 C 0.55246(17) 0.3079(7) 0.0788(8)
C23_6 C 0.5734(2) 0.3824(5) 0.0702(7)
H12_6 H 0.5673 0.4447 0.0800
C24_6 C 0.60329(19) 0.3638(5) 0.0469(7)
H13_6 H 0.6173 0.4137 0.0411
C25_6 C 0.61231(17) 0.2707(6) 0.0322(8)
C26_6 C 0.5914(2) 0.1962(5) 0.0408(9)
H14_6 H 0.5974 0.1340 0.0310
C27_6 C 0.5615(2) 0.2148(6) 0.0641(9)
H15_6 H 0.5475 0.1650 0.0699
O3_6 O 0.22275(19) 0.5673(6) 0.0508(7)
O6_4 O 0.2839(2) 0.2601(7) 0.3810(6)
O7_4 O 0.6536(2) 0.1676(8) 0.0058(8)
O11_4 O 0.2161(2) 0.7601(7) 0.1190(6)
O12_4 O 0.1536(2) 0.6676(8) 0.0058(8)
C21_6 C 0.6441(3) 0.2510(11) 0.9995(11)
O1_6 O 0.1770(3) 0.5744(9) 0.8522(9)
H16_6 H 0.1613 0.5954 0.8089
H17_6 H 0.1910 0.5305 0.8664
O2_6 O 0.1782(3) 0.7773(8) 0.7916(8)
H18_6 H 0.1636 0.8160 0.8001
H19_6 H 0.1933 0.7699 0.7603
O8_4 O 0.6595(2) 0.3160(7) 0.9747(7)
O13_4 O 0.1595(2) 0.8160(7) 0.9747(7)
C1_7 C 0.2472(3) 0.0788(9) 0.4229(9)
C2_7 C 0.2276(3) 0.0077(8) 0.3642(8)
H1_7 H 0.1865 0.0360 0.4115
H4_7 H 0.1300 0.0470 0.3485
H5_7 H 0.0783 0.0245 0.3746
O1_7 O 0.3230(3) 0.0744(9) 0.6478(9)
H16_7 H 0.3387 0.0954 0.6911
H17_7 H 0.3090 0.0305 0.6336
O2_7 O 0.3218(3) 0.2773(8) 0.7084(8)
H18_7 H 0.3364 0.3160 0.6999
H19_7 H 0.3067 0.2699 0.7397
O3_7 O 0.27725(19) 0.0673(6) 0.4492(7)
C3_7 C 0.1953(3) 0.9969(8) 0.3697(9)
C4_7 C 0.1757(3) 0.9278(9) 0.3130(9)
C5_7 C 0.1887(2) 0.8742(8) 0.2485(8)
H2_7 H 0.1758 0.8287 0.2105
C6_7 C 0.2202(2) 0.8853(8) 0.2377(8)
C7_7 C 0.2404(2) 0.9490(8) 0.3004(8)
H3_7 H 0.2624 0.9521 0.2995
C8_7 C 0.2345(3) 0.8237(10) 0.1628(10)
C9_7 C 0.1412(3) 0.9131(9) 0.3236(10)
C10_7 C 0.1217(3) 0.9855(10) 0.3445(10)
C11_7 C 0.0902(3) 0.9728(10) 0.3601(10)
C12_7 C 0.0769(3) 0.8802(10) 0.3536(10)
C13_7 C 0.0966(3) 0.8027(10) 0.3287(12)
H6_7 H 0.0879 0.7418 0.3200
C14_7 C 0.1285(3) 0.8181(10) 0.3177(11)
H7_7 H 0.1414 0.7672 0.3066
C15_7 C 0.04290(19) 0.8620(8) 0.3650(9)
C16_7 C 0.0241(2) 0.9372(6) 0.3862(9)
H8_7 H 0.0319 0.9991 0.3877
C19_7 C 0.0006(3) 0.7522(6) 0.3819(10)
C20_7 C 0.0311(2) 0.7695(7) 0.3628(10)
H11_7 H 0.0438 0.7192 0.3486
C17_7 C 0.9935(2) 0.9199(7) 0.4053(9)
H9_7 H 0.9809 0.9702 0.4195
C18_7 C 0.9817(2) 0.8274(8) 0.4031(9)
H10_7 H 0.9927 0.6903 0.3804
C21_7 C 0.8559(3) 0.7510(11) 0.5005(11)
C22_7 C 0.94754(17) 0.8079(7) 0.4212(8)
C23_7 C 0.9266(2) 0.8824(5) 0.4298(7)
H12_7 H 0.9327 0.9447 0.4200
C24_7 C 0.89671(19) 0.8638(5) 0.4531(7)
H13_7 H 0.8827 0.9137 0.4589
C25_7 C 0.88769(17) 0.7707(6) 0.4678(8)
C26_7 C 0.9086(2) 0.6962(5) 0.4592(9)
H14_7 H 0.9026 0.6340 0.4690
C27_7 C 0.9385(2) 0.7148(6) 0.4359(9)
H15_7 H 0.9525 0.6650 0.4301
C17_8 C 0.0065(2) 0.9199(7) 0.0947(9)
H9_8 H 0.0191 0.9702 0.0805
C18_8 C 0.0183(2) 0.8274(8) 0.0969(9)
H10_8 H 0.0073 0.6903 0.1196
C22_8 C 0.05246(17) 0.8079(7) 0.0788(8)
C23_8 C 0.0734(2) 0.8824(5) 0.0702(7)
H12_8 H 0.0673 0.9447 0.0800
C24_8 C 0.10329(19) 0.8638(5) 0.0469(7)
H13_8 H 0.1173 0.9137 0.0411
C25_8 C 0.11231(17) 0.7707(6) 0.0322(8)
C26_8 C 0.0914(2) 0.6962(5) 0.0408(9)
H14_8 H 0.0974 0.6340 0.0310
C27_8 C 0.0615(2) 0.7148(6) 0.0641(9)
H15_8 H 0.0475 0.6650 0.0699
C21_8 C 0.1441(3) 0.7510(11) 0.9995(11)
C1_8 C 0.7528(3) 0.0788(9) 0.0771(9)
C2_8 C 0.7724(3) 0.0077(8) 0.1358(8)
H1_8 H 0.8135 0.0360 0.0885
H4_8 H 0.8700 0.0470 0.1515
H5_8 H 0.9217 0.0245 0.1254
O3_8 O 0.72275(19) 0.0673(6) 0.0508(7)
O1_8 O 0.6770(3) 0.0744(9) 0.8522(9)
H16_8 H 0.6613 0.0954 0.8089
H17_8 H 0.6910 0.0305 0.8664
O2_8 O 0.6782(3) 0.2773(8) 0.7916(8)
H18_8 H 0.6636 0.3160 0.8001
H19_8 H 0.6933 0.2699 0.7603
C3_8 C 0.8047(3) 0.9969(8) 0.1303(9)
C4_8 C 0.8243(3) 0.9278(9) 0.1870(9)
C5_8 C 0.8113(2) 0.8742(8) 0.2515(8)
H2_8 H 0.8242 0.8287 0.2895
C6_8 C 0.7798(2) 0.8853(8) 0.2623(8)
C7_8 C 0.7596(2) 0.9490(8) 0.1996(8)
H3_8 H 0.7376 0.9521 0.2005
C8_8 C 0.7655(3) 0.8237(10) 0.3372(10)
C9_8 C 0.8588(3) 0.9131(9) 0.1764(10)
C10_8 C 0.8783(3) 0.9855(10) 0.1555(10)
C11_8 C 0.9098(3) 0.9728(10) 0.1399(10)
C12_8 C 0.9231(3) 0.8802(10) 0.1464(10)
C13_8 C 0.9034(3) 0.8027(10) 0.1713(12)
H6_8 H 0.9121 0.7418 0.1800
C14_8 C 0.8715(3) 0.8181(10) 0.1823(11)
H7_8 H 0.8586 0.7672 0.1934
C15_8 C 0.95710(19) 0.8620(8) 0.1350(9)
C16_8 C 0.9759(2) 0.9372(6) 0.1138(9)
H8_8 H 0.9681 0.9991 0.1123
C19_8 C 0.9994(3) 0.7522(6) 0.1181(10)
C20_8 C 0.9689(2) 0.7695(7) 0.1372(10)
H11_8 H 0.9562 0.7192 0.1514
loop_
_geom_bond_atom_site_label_1
_geom_bond_atom_site_label_2
_geom_bond_site_symmetry_1
_geom_bond_site_symmetry_2
C1 C2 1_555 1_555
C2 C3 1_555 1_555
C3 H1 1_555 1_555
C4 C3 1_555 1_555
C5 C4 1_555 1_555
H2 C5 1_555 1_555
C6 C5 1_555 1_555
C7 C2 1_555 1_555
H3 C7 1_555 1_555
C8 C6 1_555 1_555
C9 C4 1_555 1_555
C10 C9 1_555 1_555
H4 C10 1_555 1_555
C11 C10 1_555 1_555
H5 C11 1_555 1_555
C12 C11 1_555 1_555
C13 C12 1_555 1_555
H6 C13 1_555 1_555
C14 C9 1_555 1_555
H7 C14 1_555 1_555
C15 C12 1_555 1_555
C16 C15 1_555 1_555
H8 C16 1_555 1_555
C17 C16 1_555 1_555
H9 C17 1_555 1_555
C18 C17 1_555 1_555
C19 C18 1_555 1_555
H10 C19 1_555 1_555
C20 C15 1_555 1_555
H11 C20 1_555 1_555
C21 C25 1_555 1_555
C22 C18 1_555 1_555
C23 C22 1_555 1_555
H12 C23 1_555 1_555
C24 C23 1_555 1_555
H13 C24 1_555 1_555
C25 C24 1_555 1_555
C26 C25 1_555 1_555
H14 C26 1_555 1_555
C27 C22 1_555 1_555
H15 C27 1_555 1_555
Eu1 O1 1_555 1_555
O1 H16 1_555 1_555
H17 O1 1_555 1_555
O2 Eu1 1_555 1_555
H18 O2 1_555 1_555
H19 O2 1_555 1_555
O3 C1 1_555 1_555
O4 C1 1_555 1_555
O5 C8 1_555 1_555
O6 C8 1_555 1_555
O7 C21 1_555 1_555
O8 C21 1_555 1_555
Eu2 O7 1_555 1_555
Eu4 O5 1_555 1_555
Eu5 O4 1_555 1_555
O9 Eu1 1_555 1_555
O10 Eu1 1_555 1_555
O11 Eu1 1_555 1_555
O12 Eu1 1_555 1_555
O13 Eu1 1_555 1_555
C6 C7 1_555 1_555
C13 C14 1_555 1_555
C19 C20 1_555 1_555
C26 C27 1_555 1_555
Eu1 O3 1_555 1_555
Eu1 O4 1_555 1_555
O8 Eu2 1_555 1_555
Eu5 O9 1_555 1_555
Eu1_2 O1_2 1_555 1_555
O1_2 H16_2 1_555 1_555
H17_2 O1_2 1_555 1_555
O2_2 Eu1_2 1_555 1_555
H18_2 O2_2 1_555 1_555
H19_2 O2_2 1_555 1_555
O8_2 C21_2 1_555 1_555
O9_2 Eu1_2 1_555 1_555
O10_2 Eu1_2 1_555 1_555
O13_2 Eu1_2 1_555 1_555
O8_2 Eu3 1_555 1_555
C1_2 C2_2 1_555 1_555
C2_2 C3_2 1_555 1_555
C3_2 H1_2 1_555 1_555
C4_2 C3_2 1_555 1_555
C5_2 C4_2 1_555 1_555
H2_2 C5_2 1_555 1_555
C6_2 C5_2 1_555 1_555
C7_2 C2_2 1_555 1_555
H3_2 C7_2 1_555 1_555
C8_2 C6_2 1_555 1_555
C9_2 C4_2 1_555 1_555
C10_2 C9_2 1_555 1_555
H4_2 C10_2 1_555 1_555
C11_2 C10_2 1_555 1_555
H5_2 C11_2 1_555 1_555
C12_2 C11_2 1_555 1_555
C13_2 C12_2 1_555 1_555
H6_2 C13_2 1_555 1_555
C14_2 C9_2 1_555 1_555
H7_2 C14_2 1_555 1_555
C15_2 C12_2 1_555 1_555
C16_2 C15_2 1_555 1_555
H8_2 C16_2 1_555 1_555
C17_2 C16_2 1_555 1_555
H9_2 C17_2 1_555 1_555
C18_2 C17_2 1_555 1_555
C19_2 C18_2 1_555 1_555
H10_2 C19_2 1_555 1_555
C20_2 C15_2 1_555 1_555
H11_2 C20_2 1_555 1_555
C22_2 C18_2 1_555 1_555
C23_2 C22_2 1_555 1_555
H12_2 C23_2 1_555 1_555
C24_2 C23_2 1_555 1_555
H13_2 C24_2 1_555 1_555
C25_2 C24_2 1_555 1_555
C26_2 C25_2 1_555 1_555
H14_2 C26_2 1_555 1_555
C27_2 C22_2 1_555 1_555
H15_2 C27_2 1_555 1_555
O3_2 C1_2 1_555 1_555
O4_2 C1_2 1_555 1_555
O5_2 C8_2 1_555 1_555
O6_2 C8_2 1_555 1_555
Eu2 O6_2 1_555 1_555
Eu4_2 O5_2 1_555 1_555
Eu5_2 O4_2 1_555 1_555
C6_2 C7_2 1_555 1_555
C13_2 C14_2 1_555 1_555
C19_2 C20_2 1_555 1_555
C26_2 C27_2 1_555 1_555
H9_3 C17_3 1_555 1_555
C18_3 C17_3 1_555 1_555
C21_3 C25_3 1_555 1_555
C22_3 C18_3 1_555 1_555
C23_3 C22_3 1_555 1_555
H12_3 C23_3 1_555 1_555
C24_3 C23_3 1_555 1_555
H13_3 C24_3 1_555 1_555
C25_3 C24_3 1_555 1_555
C26_3 C25_3 1_555 1_555
H14_3 C26_3 1_555 1_555
C27_3 C22_3 1_555 1_555
H15_3 C27_3 1_555 1_555
O12 C21_3 1_555 1_555
O13 C21_3 1_555 1_555
C26_3 C27_3 1_555 1_555
C4_3 C3_3 1_555 1_555
C5_3 C4_3 1_555 1_555
H2_3 C5_3 1_555 1_555
C6_3 C5_3 1_555 1_555
H3_3 C7_3 1_555 1_555
C8_3 C6_3 1_555 1_555
C9_3 C4_3 1_555 1_555
C10_3 C9_3 1_555 1_555
C11_3 C10_3 1_555 1_555
C12_3 C11_3 1_555 1_555
C13_3 C12_3 1_555 1_555
H6_3 C13_3 1_555 1_555
C14_3 C9_3 1_555 1_555
H7_3 C14_3 1_555 1_555
C15_3 C12_3 1_555 1_555
C16_3 C15_3 1_555 1_555
H8_3 C16_3 1_555 1_555
C20_3 C15_3 1_555 1_555
H11_3 C20_3 1_555 1_555
O5_3 C8_3 1_555 1_555
O11_2 C8_3 1_555 1_555
Eu5_2 O5_3 1_555 1_555
C6_3 C7_3 1_555 1_555
C13_3 C14_3 1_555 1_555
C19_3 C20_3 1_555 1_555
C1_3 C2_3 1_555 1_555
Eu2 O1_3 1_555 1_555
O1_3 H16_3 1_555 1_555
H17_3 O1_3 1_555 1_555
O2_3 Eu2 1_555 1_555
H18_3 O2_3 1_555 1_555
H19_3 O2_3 1_555 1_555
O3_3 C1_3 1_555 1_555
O4_3 C1_3 1_555 1_555
Eu4_2 O4_3 1_555 1_555
O9_3 Eu2 1_555 1_555
O10_3 Eu2 1_555 1_555
Eu2 O3_3 1_555 1_555
Eu2 O4_3 1_555 1_555
Eu4_2 O9_3 1_555 1_555
C4_4 C3_4 1_555 1_555
C5_4 C4_4 1_555 1_555
H2_4 C5_4 1_555 1_555
C6_4 C5_4 1_555 1_555
H3_4 C7_4 1_555 1_555
C8_4 C6_4 1_555 1_555
C9_4 C4_4 1_555 1_555
C10_4 C9_4 1_555 1_555
C11_4 C10_4 1_555 1_555
C12_4 C11_4 1_555 1_555
C13_4 C12_4 1_555 1_555
H6_4 C13_4 1_555 1_555
C14_4 C9_4 1_555 1_555
H7_4 C14_4 1_555 1_555
C15_4 C12_4 1_555 1_555
C16_4 C15_4 1_555 1_555
H8_4 C16_4 1_555 1_555
C20_4 C15_4 1_555 1_555
H11_4 C20_4 1_555 1_555
O5_4 C8_4 1_555 1_555
O11 C8_4 1_555 1_555
Eu5 O5_4 1_555 1_555
C6_4 C7_4 1_555 1_555
C13_4 C14_4 1_555 1_555
C19_4 C20_4 1_555 1_555
Eu3 O1_4 1_555 1_555
O1_4 H16_4 1_555 1_555
H17_4 O1_4 1_555 1_555
O2_4 Eu3 1_555 1_555
H18_4 O2_4 1_555 1_555
H19_4 O2_4 1_555 1_555
O9_4 Eu3 1_555 1_555
O10_4 Eu3 1_555 1_555
C1_4 C2_4 1_555 1_555
O3_4 C1_4 1_555 1_555
O4_4 C1_4 1_555 1_555
Eu4 O4_4 1_555 1_555
O13_2 C21_4 1_555 1_555
H9_4 C17_4 1_555 1_555
C18_4 C17_4 1_555 1_555
C22_4 C18_4 1_555 1_555
C23_4 C22_4 1_555 1_555
H12_4 C23_4 1_555 1_555
C24_4 C23_4 1_555 1_555
H13_4 C24_4 1_555 1_555
C25_4 C24_4 1_555 1_555
C26_4 C25_4 1_555 1_555
H14_4 C26_4 1_555 1_555
C27_4 C22_4 1_555 1_555
H15_4 C27_4 1_555 1_555
C26_4 C27_4 1_555 1_555
C1_5 C2_5 1_555 1_555
C2_5 C3_5 1_555 1_555
C3_5 H1_5 1_555 1_555
C4_5 C3_5 1_555 1_555
C5_5 C4_5 1_555 1_555
H2_5 C5_5 1_555 1_555
C6_5 C5_5 1_555 1_555
C7_5 C2_5 1_555 1_555
H3_5 C7_5 1_555 1_555
C8_5 C6_5 1_555 1_555
C9_5 C4_5 1_555 1_555
C10_5 C9_5 1_555 1_555
H4_5 C10_5 1_555 1_555
C11_5 C10_5 1_555 1_555
H5_5 C11_5 1_555 1_555
C12_5 C11_5 1_555 1_555
C13_5 C12_5 1_555 1_555
H6_5 C13_5 1_555 1_555
C14_5 C9_5 1_555 1_555
H7_5 C14_5 1_555 1_555
C15_5 C12_5 1_555 1_555
C16_5 C15_5 1_555 1_555
H8_5 C16_5 1_555 1_555
C17_5 C16_5 1_555 1_555
H9_5 C17_5 1_555 1_555
C18_5 C17_5 1_555 1_555
C19_5 C18_5 1_555 1_555
H10_5 C19_5 1_555 1_555
C20_5 C15_5 1_555 1_555
H11_5 C20_5 1_555 1_555
C21_5 C25_5 1_555 1_555
C22_5 C18_5 1_555 1_555
C23_5 C22_5 1_555 1_555
H12_5 C23_5 1_555 1_555
C24_5 C23_5 1_555 1_555
H13_5 C24_5 1_555 1_555
C25_5 C24_5 1_555 1_555
C26_5 C25_5 1_555 1_555
H14_5 C26_5 1_555 1_555
C27_5 C22_5 1_555 1_555
H15_5 C27_5 1_555 1_555
Eu4_2 O1_5 1_555 1_555
O1_5 H16_5 1_555 1_555
H17_5 O1_5 1_555 1_555
O2_5 Eu4_2 1_555 1_555
H18_5 O2_5 1_555 1_555
H19_5 O2_5 1_555 1_555
O3_5 C1_5 1_555 1_555
O9_3 C1_5 1_555 1_555
O10_2 C8_5 1_555 1_555
O6_3 C8_5 1_555 1_555
O7_3 C21_5 1_555 1_555
O8_3 C21_5 1_555 1_555
Eu5 O7_3 1_555 1_555
O11_3 Eu4_2 1_555 1_555
O12_3 Eu4_2 1_555 1_555
O13_3 Eu4_2 1_555 1_555
C6_5 C7_5 1_555 1_555
C13_5 C14_5 1_555 1_555
C19_5 C20_5 1_555 1_555
C26_5 C27_5 1_555 1_555
Eu4_2 O3_5 1_555 1_555
O8_3 Eu5 1_555 1_555
C1_6 C2_6 1_555 1_555
C2_6 C3_6 1_555 1_555
C3_6 H1_6 1_555 1_555
C4_6 C3_6 1_555 1_555
C5_6 C4_6 1_555 1_555
H2_6 C5_6 1_555 1_555
C6_6 C5_6 1_555 1_555
C7_6 C2_6 1_555 1_555
H3_6 C7_6 1_555 1_555
C8_6 C6_6 1_555 1_555
C9_6 C4_6 1_555 1_555
C10_6 C9_6 1_555 1_555
H4_6 C10_6 1_555 1_555
C11_6 C10_6 1_555 1_555
H5_6 C11_6 1_555 1_555
C12_6 C11_6 1_555 1_555
C13_6 C12_6 1_555 1_555
H6_6 C13_6 1_555 1_555
C14_6 C9_6 1_555 1_555
H7_6 C14_6 1_555 1_555
C15_6 C12_6 1_555 1_555
C16_6 C15_6 1_555 1_555
H8_6 C16_6 1_555 1_555
C17_6 C16_6 1_555 1_555
H9_6 C17_6 1_555 1_555
C18_6 C17_6 1_555 1_555
C19_6 C18_6 1_555 1_555
H10_6 C19_6 1_555 1_555
C20_6 C15_6 1_555 1_555
H11_6 C20_6 1_555 1_555
C22_6 C18_6 1_555 1_555
C23_6 C22_6 1_555 1_555
H12_6 C23_6 1_555 1_555
C24_6 C23_6 1_555 1_555
H13_6 C24_6 1_555 1_555
C25_6 C24_6 1_555 1_555
C26_6 C25_6 1_555 1_555
H14_6 C26_6 1_555 1_555
C27_6 C22_6 1_555 1_555
H15_6 C27_6 1_555 1_555
O3_6 C1_6 1_555 1_555
O9_4 C1_6 1_555 1_555
O10 C8_6 1_555 1_555
O6_4 C8_6 1_555 1_555
Eu5 O6_4 1_555 1_555
C6_6 C7_6 1_555 1_555
C13_6 C14_6 1_555 1_555
C19_6 C20_6 1_555 1_555
C26_6 C27_6 1_555 1_555
Eu4 O1_6 1_555 1_555
O1_6 H16_6 1_555 1_555
H17_6 O1_6 1_555 1_555
O2_6 Eu4 1_555 1_555
H18_6 O2_6 1_555 1_555
H19_6 O2_6 1_555 1_555
O8_4 C21_6 1_555 1_555
O13_4 Eu4 1_555 1_555
O8_4 Eu5_2 1_555 1_555
C1_7 C2_7 1_555 1_555
Eu5 O1_7 1_555 1_555
O1_7 H16_7 1_555 1_555
H17_7 O1_7 1_555 1_555
O2_7 Eu5 1_555 1_555
H18_7 O2_7 1_555 1_555
H19_7 O2_7 1_555 1_555
O3_7 C1_7 1_555 1_555
O9 C1_7 1_555 1_555
Eu5 O3_7 1_555 1_555
C4_7 C3_7 1_555 1_555
C5_7 C4_7 1_555 1_555
H2_7 C5_7 1_555 1_555
C6_7 C5_7 1_555 1_555
H3_7 C7_7 1_555 1_555
C8_7 C6_7 1_555 1_555
C9_7 C4_7 1_555 1_555
C10_7 C9_7 1_555 1_555
C11_7 C10_7 1_555 1_555
C12_7 C11_7 1_555 1_555
C13_7 C12_7 1_555 1_555
H6_7 C13_7 1_555 1_555
C14_7 C9_7 1_555 1_555
H7_7 C14_7 1_555 1_555
C15_7 C12_7 1_555 1_555
C16_7 C15_7 1_555 1_555
H8_7 C16_7 1_555 1_555
C20_7 C15_7 1_555 1_555
H11_7 C20_7 1_555 1_555
O10_4 C8_7 1_555 1_555
O11_4 C8_7 1_555 1_555
C6_7 C7_7 1_555 1_555
C13_7 C14_7 1_555 1_555
C19_7 C20_7 1_555 1_555
H9_7 C17_7 1_555 1_555
C18_7 C17_7 1_555 1_555
C21_7 C25_7 1_555 1_555
C22_7 C18_7 1_555 1_555
C23_7 C22_7 1_555 1_555
H12_7 C23_7 1_555 1_555
C24_7 C23_7 1_555 1_555
H13_7 C24_7 1_555 1_555
C25_7 C24_7 1_555 1_555
C26_7 C25_7 1_555 1_555
H14_7 C26_7 1_555 1_555
C27_7 C22_7 1_555 1_555
H15_7 C27_7 1_555 1_555
O12_3 C21_7 1_555 1_555
O13_3 C21_7 1_555 1_555
C26_7 C27_7 1_555 1_555
H9_8 C17_8 1_555 1_555
C18_8 C17_8 1_555 1_555
C22_8 C18_8 1_555 1_555
C23_8 C22_8 1_555 1_555
H12_8 C23_8 1_555 1_555
C24_8 C23_8 1_555 1_555
H13_8 C24_8 1_555 1_555
C25_8 C24_8 1_555 1_555
C26_8 C25_8 1_555 1_555
H14_8 C26_8 1_555 1_555
C27_8 C22_8 1_555 1_555
H15_8 C27_8 1_555 1_555
C26_8 C27_8 1_555 1_555
O13_4 C21_8 1_555 1_555
C1_8 C2_8 1_555 1_555
O3_8 C1_8 1_555 1_555
O9_2 C1_8 1_555 1_555
Eu5_2 O1_8 1_555 1_555
O1_8 H16_8 1_555 1_555
H17_8 O1_8 1_555 1_555
O2_8 Eu5_2 1_555 1_555
H18_8 O2_8 1_555 1_555
H19_8 O2_8 1_555 1_555
C4_8 C3_8 1_555 1_555
C5_8 C4_8 1_555 1_555
H2_8 C5_8 1_555 1_555
C6_8 C5_8 1_555 1_555
H3_8 C7_8 1_555 1_555
C8_8 C6_8 1_555 1_555
C9_8 C4_8 1_555 1_555
C10_8 C9_8 1_555 1_555
C11_8 C10_8 1_555 1_555
C12_8 C11_8 1_555 1_555
C13_8 C12_8 1_555 1_555
H6_8 C13_8 1_555 1_555
C14_8 C9_8 1_555 1_555
H7_8 C14_8 1_555 1_555
C15_8 C12_8 1_555 1_555
C16_8 C15_8 1_555 1_555
H8_8 C16_8 1_555 1_555
C20_8 C15_8 1_555 1_555
H11_8 C20_8 1_555 1_555
O10_3 C8_8 1_555 1_555
O11_3 C8_8 1_555 1_555
C6_8 C7_8 1_555 1_555
C13_8 C14_8 1_555 1_555
C19_8 C20_8 1_555 1_555

#END
