
###############################################################################
#
# This file contains modified crystal structure data generated from the
# MOF subset of the Cambridge Structural Database (CSD) v543 
# hosted by the Cambridge Crystallographic Data Centre (CCDC).
#
# This work is licensed under the Creative Commons
# Attribution-NonCommercial-ShareAlike 4.0 International License.
# To view a copy of this license, visit
# http://creativecommons.org/licenses/by-nc-sa/4.0/
# or send a letter to
# Creative Commons, PO Box 1866, Mountain View, CA 94042, USA.
#
# CIF created using the CSD Python API on 29 September 2022
# The structure has been converted into the P1 space group
# The structure has a 3D framework
# The original CSD entry APAZIC is in the monoclinic crystal system
# The framework has been calculated to contain at least 10.0% void space
# The void calculation uses a probe of radius 1.32A, grid spacing 0.4
#
###############################################################################

data_APAZIC
_chemical_formula_moiety         '(C216 H152 La8 O64)n'
_symmetry_cell_setting           triclinic
_symmetry_space_group_name_H-M   'P 1'
_symmetry_Int_Tables_number      1
_space_group_name_Hall           'P 1'
loop_
_symmetry_equiv_pos_site_id
_symmetry_equiv_pos_as_xyz
1 x,y,z
_cell_length_a                   13.9999(10)
_cell_length_b                   14.6470(11)
_cell_length_c                   42.040(3)
_cell_angle_alpha                90
_cell_angle_beta                 97.9480(10)
_cell_angle_gamma                90
_cell_volume                     8537.77
loop_
_atom_site_label
_atom_site_type_symbol
_atom_site_fract_x
_atom_site_fract_y
_atom_site_fract_z
C1 C 0.5653(5) 0.6680(4) 0.23601(14)
C2 C 0.4811(4) 0.6077(4) 0.22279(14)
C3 C 0.4424(4) 0.5437(4) 0.24177(14)
H1 H 0.4665 0.5387 0.2634
C4 C 0.3690(4) 0.4880(4) 0.22869(13)
C5 C 0.3286(5) 0.4981(4) 0.19644(14)
H2 H 0.2792 0.4593 0.1878
C6 C 0.3611(5) 0.5645(4) 0.17751(14)
C7 C 0.4405(4) 0.6167(4) 0.19067(14)
H3 H 0.4670 0.6585 0.1777
C8 C 0.3284(5) 0.4175(4) 0.24947(14)
C9 C 0.3163(5) 0.5801(5) 0.14385(15)
C10 C 0.2731(5) 0.5092(5) 0.12461(16)
H4 H 0.2725 0.4502 0.1328
C11 C 0.2312(6) 0.5268(5) 0.09341(16)
H5 H 0.2046 0.4781 0.0810
C12 C 0.2269(5) 0.6123(5) 0.07975(15)
C13 C 0.2702(6) 0.6808(5) 0.09871(16)
H6 H 0.2703 0.7396 0.0903
C14 C 0.3140(5) 0.6659(5) 0.13007(17)
H7 H 0.3423 0.7147 0.1420
C15 C 0.1793(4) 0.6306(4) 0.04620(9)
C16 C 0.1461(5) 0.5583(3) 0.02627(12)
H8 H 0.1547 0.4985 0.0336
C19 C 0.1204(5) 0.7368(3) 0.00433(13)
C20 C 0.1664(5) 0.7199(3) 0.03523(12)
H11 H 0.1886 0.7683 0.0486
La1 La 0.74569(3) 0.78748(2) 0.20248(2)
O1 O 0.8907(5) 0.7208(4) 0.17728(15)
H16 H 0.8960 0.6643 0.1817
H17 H 0.8803 0.7277 0.1570
O2 O 0.8129(4) 0.9225(4) 0.17325(13)
H18 H 0.7801 0.9700 0.1759
H19 H 0.8715 0.9314 0.1811
O3 O 0.5937(3) 0.7267(3) 0.21748(10)
O4 O 0.6020(3) 0.6557(3) 0.26415(10)
O5 O 0.3406(3) 0.4287(3) 0.27930(9)
O6 O 0.2843(3) 0.3495(3) 0.23645(9)
La3 La 0.25431(3) 0.28748(2) 0.29752(2)
La4 La 0.24569(3) 0.21252(2) 0.20248(2)
La5 La 0.75431(3) 0.71252(2) 0.29752(2)
O9 O 0.8980(3) 0.8443(3) 0.23585(10)
O10 O 0.6594(3) 0.9287(3) 0.22070(9)
O11 O 0.7157(3) 0.8495(3) 0.26355(9)
O12 O 0.7843(3) 0.6505(3) 0.23645(9)
O13 O 0.6741(4) 0.6764(3) 0.15732(11)
O14 O 0.6331(4) 0.8197(3) 0.15156(11)
C17 C 0.3999(5) 0.5752(3) 0.00462(11)
H9 H 0.4221 0.5268 0.0180
C18 C 0.4127(4) 0.6645(4) 0.01559(9)
H10 H 0.3882 0.7966 0.0030
C21 C 0.4664(5) 0.6825(5) 0.04928(16)
C22 C 0.4932(5) 0.6121(5) 0.07136(16)
H12 H 0.4763 0.5522 0.0658
C23 C 0.5437(5) 0.6297(5) 0.10087(16)
H13 H 0.5617 0.5818 0.1149
C24 C 0.5682(5) 0.7181(5) 0.10999(15)
C25 C 0.5354(6) 0.7894(6) 0.08930(16)
H14 H 0.5462 0.8496 0.0958
C26 C 0.4877(6) 0.7710(6) 0.05957(18)
H15 H 0.4687 0.8192 0.0457
C27 C 0.6295(5) 0.7395(5) 0.14123(16)
C2_2 C 0.9811(4) 0.1077(4) 0.72279(14)
C3_2 C 0.9424(4) 0.0437(4) 0.74177(14)
H1_2 H 0.9665 0.0387 0.7634
C6_2 C 0.8611(5) 0.0645(4) 0.67751(14)
C7_2 C 0.9405(4) 0.1167(4) 0.69067(14)
H3_2 H 0.9670 0.1585 0.6777
C9_2 C 0.8163(5) 0.0801(5) 0.64385(15)
C10_2 C 0.7731(5) 0.0092(5) 0.62461(16)
C11_2 C 0.7312(6) 0.0268(5) 0.59341(16)
C12_2 C 0.7269(5) 0.1123(5) 0.57975(15)
C13_2 C 0.7702(6) 0.1808(5) 0.59871(16)
H6_2 H 0.7703 0.2396 0.5903
C14_2 C 0.8140(5) 0.1659(5) 0.63007(17)
H7_2 H 0.8423 0.2147 0.6420
C15_2 C 0.6793(4) 0.1306(4) 0.54620(9)
C16_2 C 0.6461(5) 0.0583(3) 0.52627(12)
C17_2 C 0.6001(5) 0.0752(3) 0.49538(11)
H9_2 H 0.5779 0.0268 0.4820
C18_2 C 0.5873(4) 0.1645(4) 0.48441(9)
C19_2 C 0.6204(5) 0.2368(3) 0.50433(13)
H10_2 H 0.6118 0.2966 0.4970
C20_2 C 0.6664(5) 0.2199(3) 0.53523(12)
H11_2 H 0.6886 0.2683 0.5486
C21_2 C 0.5336(5) 0.1825(5) 0.45072(16)
C22_2 C 0.5068(5) 0.1121(5) 0.42864(16)
H12_2 H 0.5237 0.0522 0.4342
C23_2 C 0.4563(5) 0.1297(5) 0.39913(16)
H13_2 H 0.4383 0.0818 0.3851
C24_2 C 0.4318(5) 0.2181(5) 0.39001(15)
C25_2 C 0.4646(6) 0.2894(6) 0.41070(16)
H14_2 H 0.4538 0.3496 0.4042
C26_2 C 0.5123(6) 0.2710(6) 0.44043(18)
H15_2 H 0.5313 0.3192 0.4543
C27_2 C 0.3705(5) 0.2395(5) 0.35877(16)
O7 O 0.3259(4) 0.1764(3) 0.34268(11)
O8 O 0.3669(4) 0.3197(3) 0.34844(11)
C1_2 C 0.4347(5) 0.1680(4) 0.26399(14)
C2_3 C 0.5189(4) 0.1077(4) 0.27721(14)
C3_3 C 0.5576(4) 0.0437(4) 0.25823(14)
H1_3 H 0.5335 0.0387 0.2366
C6_3 C 0.6389(5) 0.0645(4) 0.32249(14)
C7_3 C 0.5595(4) 0.1167(4) 0.30933(14)
H3_3 H 0.5330 0.1585 0.3223
C9_3 C 0.6837(5) 0.0801(5) 0.35615(15)
C10_3 C 0.7269(5) 0.0092(5) 0.37539(16)
C11_3 C 0.7688(6) 0.0268(5) 0.40659(16)
C12_3 C 0.7731(5) 0.1123(5) 0.42025(15)
C13_3 C 0.7298(6) 0.1808(5) 0.40129(16)
H6_3 H 0.7297 0.2396 0.4097
C14_3 C 0.6860(5) 0.1659(5) 0.36993(17)
H7_3 H 0.6577 0.2147 0.3580
C15_3 C 0.8207(4) 0.1306(4) 0.45380(9)
C16_3 C 0.8539(5) 0.0583(3) 0.47373(12)
C17_3 C 0.8999(5) 0.0752(3) 0.50462(11)
H9_3 H 0.9221 0.0268 0.5180
C18_3 C 0.9127(4) 0.1645(4) 0.51559(9)
C19_3 C 0.8796(5) 0.2368(3) 0.49567(13)
H10_3 H 0.8882 0.2966 0.5030
C20_3 C 0.8336(5) 0.2199(3) 0.46477(12)
H11_3 H 0.8114 0.2683 0.4514
C21_3 C 0.9664(5) 0.1825(5) 0.54928(16)
C22_3 C 0.9932(5) 0.1121(5) 0.57136(16)
H12_3 H 0.9763 0.0522 0.5658
C26_3 C 0.9877(6) 0.2710(6) 0.55957(18)
H15_3 H 0.9687 0.3192 0.5457
O1_2 O 0.1093(5) 0.2208(4) 0.32272(15)
H16_2 H 0.1040 0.1643 0.3183
H17_2 H 0.1197 0.2277 0.3430
O2_2 O 0.1871(4) 0.4225(4) 0.32675(13)
H18_2 H 0.2199 0.4700 0.3241
H19_2 H 0.1285 0.4314 0.3189
O3_2 O 0.4063(3) 0.2267(3) 0.28252(10)
O4_2 O 0.3980(3) 0.1557(3) 0.23585(10)
O9_2 O 0.1020(3) 0.3443(3) 0.26415(10)
O12_2 O 0.2157(3) 0.1505(3) 0.26355(9)
C4_2 C 0.6310(4) 0.9880(4) 0.27131(13)
C5_2 C 0.6714(5) 0.9981(4) 0.30356(14)
H2_2 H 0.7208 0.9593 0.3122
C8_2 C 0.6716(5) 0.9175(4) 0.25053(14)
H4_2 H 0.7275 0.9502 0.3672
H5_2 H 0.7954 0.9781 0.4190
H8_2 H 0.8453 0.9985 0.4664
C23_3 C 0.0437(5) 0.3703(5) 0.10087(16)
H13_3 H 0.0617 0.4182 0.1149
C24_3 C 0.0682(5) 0.2819(5) 0.10999(15)
C25_3 C 0.0354(6) 0.2106(6) 0.08930(16)
H14_3 H 0.0462 0.1504 0.0958
C27_3 C 0.1295(5) 0.2605(5) 0.14123(16)
O7_2 O 0.1741(4) 0.3236(3) 0.15732(11)
O8_2 O 0.1331(4) 0.1803(3) 0.15156(11)
C1_3 C 0.0653(5) 0.3320(4) 0.23601(14)
O1_3 O 0.3907(5) 0.2792(4) 0.17728(15)
H16_3 H 0.3960 0.3357 0.1817
H17_3 H 0.3803 0.2723 0.1570
O2_3 O 0.3129(4) 0.0775(4) 0.17325(13)
H18_3 H 0.2801 0.0300 0.1759
H19_3 H 0.3715 0.0686 0.1811
O3_3 O 0.0937(3) 0.2733(3) 0.21748(10)
O10_2 O 0.1594(3) 0.0713(3) 0.22070(9)
C2_4 C 0.9811(4) 0.3923(4) 0.22279(14)
C3_4 C 0.9424(4) 0.4563(4) 0.24177(14)
H1_4 H 0.9665 0.4613 0.2634
C4_3 C 0.8690(4) 0.5120(4) 0.22869(13)
C5_3 C 0.8286(5) 0.5019(4) 0.19644(14)
H2_3 H 0.7792 0.5407 0.1878
C6_4 C 0.8611(5) 0.4355(4) 0.17751(14)
C7_4 C 0.9405(4) 0.3833(4) 0.19067(14)
H3_4 H 0.9670 0.3415 0.1777
C8_3 C 0.8284(5) 0.5825(4) 0.24947(14)
C9_4 C 0.8163(5) 0.4199(5) 0.14385(15)
C10_4 C 0.7731(5) 0.4908(5) 0.12461(16)
H4_3 H 0.7725 0.5498 0.1328
C11_4 C 0.7312(6) 0.4732(5) 0.09341(16)
H5_3 H 0.7046 0.5219 0.0810
C12_4 C 0.7269(5) 0.3877(5) 0.07975(15)
C13_4 C 0.7702(6) 0.3192(5) 0.09871(16)
H6_4 H 0.7703 0.2604 0.0903
C14_4 C 0.8140(5) 0.3341(5) 0.13007(17)
H7_4 H 0.8423 0.2853 0.1420
C15_4 C 0.6793(4) 0.3694(4) 0.04620(9)
C16_4 C 0.6461(5) 0.4417(3) 0.02627(12)
H8_3 H 0.6547 0.5015 0.0336
C19_4 C 0.6204(5) 0.2632(3) 0.00433(13)
C20_4 C 0.6664(5) 0.2801(3) 0.03523(12)
H11_4 H 0.6886 0.2317 0.0486
O5_2 O 0.8406(3) 0.5713(3) 0.27930(9)
C4_4 C 0.1310(4) 0.0120(4) 0.27131(13)
C5_4 C 0.1714(5) 0.0019(4) 0.30356(14)
H2_4 H 0.2208 0.0407 0.3122
C8_4 C 0.1716(5) 0.0825(4) 0.25053(14)
H4_4 H 0.2275 0.0498 0.3672
H5_4 H 0.2954 0.0219 0.4190
H8_4 H 0.3453 0.0015 0.4664
C1_4 C 0.9347(5) 0.8320(4) 0.26399(14)
O1_4 O 0.6093(5) 0.7792(4) 0.32272(15)
H16_4 H 0.6040 0.8357 0.3183
H17_4 H 0.6197 0.7723 0.3430
O2_4 O 0.6871(4) 0.5775(4) 0.32675(13)
H18_4 H 0.7199 0.5300 0.3241
H19_4 H 0.6285 0.5686 0.3189
O3_4 O 0.9063(3) 0.7733(3) 0.28252(10)
O13_2 O 0.8259(4) 0.8236(3) 0.34268(11)
O14_2 O 0.8669(4) 0.6803(3) 0.34844(11)
C23_4 C 0.9563(5) 0.8703(5) 0.39913(16)
H13_4 H 0.9383 0.9182 0.3851
C24_4 C 0.9318(5) 0.7819(5) 0.39001(15)
C25_4 C 0.9646(6) 0.7106(6) 0.41070(16)
H14_4 H 0.9538 0.6504 0.4042
C27_4 C 0.8705(5) 0.7605(5) 0.35877(16)
C17_4 C 0.1001(5) 0.5752(3) 0.99538(11)
H9_4 H 0.0779 0.5268 0.9820
C18_4 C 0.0873(4) 0.6645(4) 0.98441(9)
H10_4 H 0.1118 0.7966 0.9970
C21_4 C 0.0336(5) 0.6825(5) 0.95072(16)
C22_4 C 0.0068(5) 0.6121(5) 0.92864(16)
H12_4 H 0.0237 0.5522 0.9342
C26_4 C 0.0123(6) 0.7710(6) 0.94043(18)
H15_4 H 0.0313 0.8192 0.9543
C23_5 C 0.9563(5) 0.6297(5) 0.89913(16)
H13_5 H 0.9383 0.5818 0.8851
C24_5 C 0.9318(5) 0.7181(5) 0.89001(15)
C25_5 C 0.9646(6) 0.7894(6) 0.91070(16)
H14_5 H 0.9538 0.8496 0.9042
C27_5 C 0.8705(5) 0.7395(5) 0.85877(16)
O7_3 O 0.8259(4) 0.6764(3) 0.84268(11)
O8_3 O 0.8669(4) 0.8197(3) 0.84844(11)
La2 La 0.75431(3) 0.78748(2) 0.79752(2)
C2_5 C 0.0189(4) 0.6077(4) 0.77721(14)
C3_5 C 0.0576(4) 0.5437(4) 0.75823(14)
H1_5 H 0.0335 0.5387 0.7366
C4_5 C 0.1310(4) 0.4880(4) 0.77131(13)
C5_5 C 0.1714(5) 0.4981(4) 0.80356(14)
H2_5 H 0.2208 0.4593 0.8122
C6_5 C 0.1389(5) 0.5645(4) 0.82249(14)
C7_5 C 0.0595(4) 0.6167(4) 0.80933(14)
H3_5 H 0.0330 0.6585 0.8223
C8_5 C 0.1716(5) 0.4175(4) 0.75053(14)
C9_5 C 0.1837(5) 0.5801(5) 0.85615(15)
C10_5 C 0.2269(5) 0.5092(5) 0.87539(16)
H4_5 H 0.2275 0.4502 0.8672
C11_5 C 0.2688(6) 0.5268(5) 0.90659(16)
H5_5 H 0.2954 0.4781 0.9190
C12_5 C 0.2731(5) 0.6123(5) 0.92025(15)
C13_5 C 0.2298(6) 0.6808(5) 0.90129(16)
H6_5 H 0.2297 0.7396 0.9097
C14_5 C 0.1860(5) 0.6659(5) 0.86993(17)
H7_5 H 0.1577 0.7147 0.8580
C15_5 C 0.3207(4) 0.6306(4) 0.95380(9)
C16_5 C 0.3539(5) 0.5583(3) 0.97373(12)
H8_5 H 0.3453 0.4985 0.9664
C19_5 C 0.3796(5) 0.7368(3) 0.99567(13)
C20_5 C 0.3336(5) 0.7199(3) 0.96477(12)
H11_5 H 0.3114 0.7683 0.9514
O5_3 O 0.1594(3) 0.4287(3) 0.72070(9)
O6_2 O 0.2157(3) 0.3495(3) 0.76355(9)
La3_2 La 0.24569(3) 0.28748(2) 0.70248(2)
La4_2 La 0.25431(3) 0.21252(2) 0.79752(2)
C1_5 C 0.9347(5) 0.6680(4) 0.76399(14)
O1_5 O 0.6093(5) 0.7208(4) 0.82272(15)
H16_5 H 0.6040 0.6643 0.8183
H17_5 H 0.6197 0.7277 0.8430
O2_5 O 0.6871(4) 0.9225(4) 0.82675(13)
H18_5 H 0.7199 0.9700 0.8241
H19_5 H 0.6285 0.9314 0.8189
O3_5 O 0.9063(3) 0.7267(3) 0.78252(10)
O4_3 O 0.8980(3) 0.6557(3) 0.73585(10)
La5_2 La 0.74569(3) 0.71252(2) 0.70248(2)
O9_3 O 0.6020(3) 0.8443(3) 0.76415(10)
O10_3 O 0.8406(3) 0.9287(3) 0.77930(9)
O11_2 O 0.7843(3) 0.8495(3) 0.73645(9)
O12_3 O 0.7157(3) 0.6505(3) 0.76355(9)
C1_6 C 0.0653(5) 0.1680(4) 0.73601(14)
O1_6 O 0.3907(5) 0.2208(4) 0.67728(15)
H16_6 H 0.3960 0.1643 0.6817
H17_6 H 0.3803 0.2277 0.6570
O2_6 O 0.3129(4) 0.4225(4) 0.67325(13)
H18_6 H 0.2801 0.4700 0.6759
H19_6 H 0.3715 0.4314 0.6811
O3_6 O 0.0937(3) 0.2267(3) 0.71748(10)
O4_4 O 0.1020(3) 0.1557(3) 0.76415(10)
O9_4 O 0.3980(3) 0.3443(3) 0.73585(10)
O12_4 O 0.2843(3) 0.1505(3) 0.73645(9)
O13_3 O 0.1741(4) 0.1764(3) 0.65732(11)
O14_3 O 0.1331(4) 0.3197(3) 0.65156(11)
C4_6 C 0.8690(4) 0.9880(4) 0.72869(13)
C5_6 C 0.8286(5) 0.9981(4) 0.69644(14)
H2_6 H 0.7792 0.9593 0.6878
C8_6 C 0.8284(5) 0.9175(4) 0.74947(14)
H4_6 H 0.7725 0.9502 0.6328
H5_6 H 0.7046 0.9781 0.5810
H8_6 H 0.6547 0.9985 0.5336
C23_6 C 0.0437(5) 0.1297(5) 0.60087(16)
H13_6 H 0.0617 0.0818 0.6149
C24_6 C 0.0682(5) 0.2181(5) 0.60999(15)
C25_6 C 0.0354(6) 0.2894(6) 0.58930(16)
H14_6 H 0.0462 0.3496 0.5958
C27_6 C 0.1295(5) 0.2395(5) 0.64123(16)
C1_7 C 0.4347(5) 0.3320(4) 0.76399(14)
C2_6 C 0.5189(4) 0.3923(4) 0.77721(14)
C3_6 C 0.5576(4) 0.4563(4) 0.75823(14)
H1_6 H 0.5335 0.4613 0.7366
C4_7 C 0.6310(4) 0.5120(4) 0.77131(13)
C5_7 C 0.6714(5) 0.5019(4) 0.80356(14)
H2_7 H 0.7208 0.5407 0.8122
C6_6 C 0.6389(5) 0.4355(4) 0.82249(14)
C7_6 C 0.5595(4) 0.3833(4) 0.80933(14)
H3_6 H 0.5330 0.3415 0.8223
C8_7 C 0.6716(5) 0.5825(4) 0.75053(14)
C9_6 C 0.6837(5) 0.4199(5) 0.85615(15)
C10_6 C 0.7269(5) 0.4908(5) 0.87539(16)
H4_7 H 0.7275 0.5498 0.8672
C11_6 C 0.7688(6) 0.4732(5) 0.90659(16)
H5_7 H 0.7954 0.5219 0.9190
C12_6 C 0.7731(5) 0.3877(5) 0.92025(15)
C13_6 C 0.7298(6) 0.3192(5) 0.90129(16)
H6_6 H 0.7297 0.2604 0.9097
C14_6 C 0.6860(5) 0.3341(5) 0.86993(17)
H7_6 H 0.6577 0.2853 0.8580
C15_6 C 0.8207(4) 0.3694(4) 0.95380(9)
C16_6 C 0.8539(5) 0.4417(3) 0.97373(12)
H8_7 H 0.8453 0.5015 0.9664
C19_6 C 0.8796(5) 0.2632(3) 0.99567(13)
C20_6 C 0.8336(5) 0.2801(3) 0.96477(12)
H11_6 H 0.8114 0.2317 0.9514
O1_7 O 0.1093(5) 0.2792(4) 0.82272(15)
H16_7 H 0.1040 0.3357 0.8183
H17_7 H 0.1197 0.2723 0.8430
O2_7 O 0.1871(4) 0.0775(4) 0.82675(13)
H18_7 H 0.2199 0.0300 0.8241
H19_7 H 0.1285 0.0686 0.8189
O3_7 O 0.4063(3) 0.2733(3) 0.78252(10)
O5_4 O 0.6594(3) 0.5713(3) 0.72070(9)
O10_4 O 0.3406(3) 0.0713(3) 0.77930(9)
O13_4 O 0.3259(4) 0.3236(3) 0.84268(11)
O14_4 O 0.3669(4) 0.1803(3) 0.84844(11)
C17_5 C 0.6001(5) 0.4248(3) 0.99538(11)
H9_5 H 0.5779 0.4732 0.9820
C18_5 C 0.5873(4) 0.3355(4) 0.98441(9)
H10_5 H 0.6118 0.2034 0.9970
C21_5 C 0.5336(5) 0.3175(5) 0.95072(16)
C22_5 C 0.5068(5) 0.3879(5) 0.92864(16)
H12_5 H 0.5237 0.4478 0.9342
C23_7 C 0.4563(5) 0.3703(5) 0.89913(16)
H13_7 H 0.4383 0.4182 0.8851
C24_7 C 0.4318(5) 0.2819(5) 0.89001(15)
C25_7 C 0.4646(6) 0.2106(6) 0.91070(16)
H14_7 H 0.4538 0.1504 0.9042
C26_5 C 0.5123(6) 0.2290(6) 0.94043(18)
H15_5 H 0.5313 0.1808 0.9543
C27_7 C 0.3705(5) 0.2605(5) 0.85877(16)
C2_7 C 0.0189(4) 0.8923(4) 0.27721(14)
C3_7 C 0.0576(4) 0.9563(4) 0.25823(14)
H1_7 H 0.0335 0.9613 0.2366
C6_7 C 0.1389(5) 0.9355(4) 0.32249(14)
C7_7 C 0.0595(4) 0.8833(4) 0.30933(14)
H3_7 H 0.0330 0.8415 0.3223
C9_7 C 0.1837(5) 0.9199(5) 0.35615(15)
C10_7 C 0.2269(5) 0.9908(5) 0.37539(16)
C11_7 C 0.2688(6) 0.9732(5) 0.40659(16)
C12_7 C 0.2731(5) 0.8877(5) 0.42025(15)
C13_7 C 0.2298(6) 0.8192(5) 0.40129(16)
H6_7 H 0.2297 0.7604 0.4097
C14_7 C 0.1860(5) 0.8341(5) 0.36993(17)
H7_7 H 0.1577 0.7853 0.3580
C15_7 C 0.3207(4) 0.8694(4) 0.45380(9)
C16_7 C 0.3539(5) 0.9417(3) 0.47373(12)
C17_6 C 0.3999(5) 0.9248(3) 0.50462(11)
H9_6 H 0.4221 0.9732 0.5180
C18_6 C 0.4127(4) 0.8355(4) 0.51559(9)
C19_7 C 0.3796(5) 0.7632(3) 0.49567(13)
H10_6 H 0.3882 0.7034 0.5030
C20_7 C 0.3336(5) 0.7801(3) 0.46477(12)
H11_7 H 0.3114 0.7317 0.4514
C21_6 C 0.4664(5) 0.8175(5) 0.54928(16)
C22_6 C 0.4932(5) 0.8879(5) 0.57136(16)
H12_6 H 0.4763 0.9478 0.5658
C23_8 C 0.5437(5) 0.8703(5) 0.60087(16)
H13_8 H 0.5617 0.9182 0.6149
C24_8 C 0.5682(5) 0.7819(5) 0.60999(15)
C25_8 C 0.5354(6) 0.7106(6) 0.58930(16)
H14_8 H 0.5462 0.6504 0.5958
C26_6 C 0.4877(6) 0.7290(6) 0.55957(18)
H15_6 H 0.4687 0.6808 0.5457
C27_8 C 0.6295(5) 0.7605(5) 0.64123(16)
O7_4 O 0.6741(4) 0.8236(3) 0.65732(11)
O8_4 O 0.6331(4) 0.6803(3) 0.65156(11)
C4_8 C 0.3690(4) 0.0120(4) 0.72869(13)
C5_8 C 0.3286(5) 0.0019(4) 0.69644(14)
H2_8 H 0.2792 0.0407 0.6878
C8_8 C 0.3284(5) 0.0825(4) 0.74947(14)
H4_8 H 0.2725 0.0498 0.6328
H5_8 H 0.2046 0.0219 0.5810
H8_8 H 0.1547 0.0015 0.5336
C1_8 C 0.5653(5) 0.8320(4) 0.73601(14)
C2_8 C 0.4811(4) 0.8923(4) 0.72279(14)
C3_8 C 0.4424(4) 0.9563(4) 0.74177(14)
H1_8 H 0.4665 0.9613 0.7634
C6_8 C 0.3611(5) 0.9355(4) 0.67751(14)
C7_8 C 0.4405(4) 0.8833(4) 0.69067(14)
H3_8 H 0.4670 0.8415 0.6777
C9_8 C 0.3163(5) 0.9199(5) 0.64385(15)
C10_8 C 0.2731(5) 0.9908(5) 0.62461(16)
C11_8 C 0.2312(6) 0.9732(5) 0.59341(16)
C12_8 C 0.2269(5) 0.8877(5) 0.57975(15)
C13_8 C 0.2702(6) 0.8192(5) 0.59871(16)
H6_8 H 0.2703 0.7604 0.5903
C14_8 C 0.3140(5) 0.8341(5) 0.63007(17)
H7_8 H 0.3423 0.7853 0.6420
C15_8 C 0.1793(4) 0.8694(4) 0.54620(9)
C16_8 C 0.1461(5) 0.9417(3) 0.52627(12)
C17_7 C 0.1001(5) 0.9248(3) 0.49538(11)
H9_7 H 0.0779 0.9732 0.4820
C18_7 C 0.0873(4) 0.8355(4) 0.48441(9)
C19_8 C 0.1204(5) 0.7632(3) 0.50433(13)
H10_7 H 0.1118 0.7034 0.4970
C20_8 C 0.1664(5) 0.7801(3) 0.53523(12)
H11_8 H 0.1886 0.7317 0.5486
C21_7 C 0.0336(5) 0.8175(5) 0.45072(16)
C22_7 C 0.0068(5) 0.8879(5) 0.42864(16)
H12_7 H 0.0237 0.9478 0.4342
C26_7 C 0.0123(6) 0.7290(6) 0.44043(18)
H15_7 H 0.0313 0.6808 0.4543
O1_8 O 0.8907(5) 0.7792(4) 0.67728(15)
H16_8 H 0.8960 0.8357 0.6817
H17_8 H 0.8803 0.7723 0.6570
O2_8 O 0.8129(4) 0.5775(4) 0.67325(13)
H18_8 H 0.7801 0.5300 0.6759
H19_8 H 0.8715 0.5686 0.6811
O3_8 O 0.5937(3) 0.7733(3) 0.71748(10)
C17_8 C 0.8999(5) 0.4248(3) 0.00462(11)
H9_8 H 0.9221 0.4732 0.0180
C18_8 C 0.9127(4) 0.3355(4) 0.01559(9)
H10_8 H 0.8882 0.2034 0.0030
C21_8 C 0.9664(5) 0.3175(5) 0.04928(16)
C22_8 C 0.9932(5) 0.3879(5) 0.07136(16)
H12_8 H 0.9763 0.4478 0.0658
C26_8 C 0.9877(6) 0.2290(6) 0.05957(18)
H15_8 H 0.9687 0.1808 0.0457
loop_
_geom_bond_atom_site_label_1
_geom_bond_atom_site_label_2
_geom_bond_site_symmetry_1
_geom_bond_site_symmetry_2
C1 C2 1_555 1_555
C2 C3 1_555 1_555
C3 H1 1_555 1_555
C4 C3 1_555 1_555
C5 C4 1_555 1_555
H2 C5 1_555 1_555
C6 C5 1_555 1_555
C7 C2 1_555 1_555
H3 C7 1_555 1_555
C8 C4 1_555 1_555
C9 C6 1_555 1_555
C10 C9 1_555 1_555
H4 C10 1_555 1_555
C11 C10 1_555 1_555
H5 C11 1_555 1_555
C12 C11 1_555 1_555
C13 C12 1_555 1_555
H6 C13 1_555 1_555
C14 C9 1_555 1_555
H7 C14 1_555 1_555
C15 C12 1_555 1_555
C16 C15 1_555 1_555
H8 C16 1_555 1_555
C20 C15 1_555 1_555
H11 C20 1_555 1_555
La1 O1 1_555 1_555
O1 H16 1_555 1_555
H17 O1 1_555 1_555
O2 La1 1_555 1_555
H18 O2 1_555 1_555
H19 O2 1_555 1_555
O3 C1 1_555 1_555
O4 C1 1_555 1_555
O5 C8 1_555 1_555
O6 C8 1_555 1_555
La3 O5 1_555 1_555
La4 O6 1_555 1_555
La5 O4 1_555 1_555
O9 La1 1_555 1_555
O10 La1 1_555 1_555
O11 La1 1_555 1_555
O12 La1 1_555 1_555
O13 La1 1_555 1_555
O14 La1 1_555 1_555
C6 C7 1_555 1_555
C13 C14 1_555 1_555
C19 C20 1_555 1_555
La1 O3 1_555 1_555
O6 La3 1_555 1_555
La5 O11 1_555 1_555
La5 O12 1_555 1_555
H9 C17 1_555 1_555
C18 C17 1_555 1_555
C21 C18 1_555 1_555
C22 C21 1_555 1_555
H12 C22 1_555 1_555
C23 C22 1_555 1_555
H13 C23 1_555 1_555
C24 C23 1_555 1_555
C25 C24 1_555 1_555
H14 C25 1_555 1_555
C26 C21 1_555 1_555
H15 C26 1_555 1_555
C27 C24 1_555 1_555
O13 C27 1_555 1_555
O14 C27 1_555 1_555
C25 C26 1_555 1_555
C2_2 C3_2 1_555 1_555
C3_2 H1_2 1_555 1_555
C7_2 C2_2 1_555 1_555
H3_2 C7_2 1_555 1_555
C9_2 C6_2 1_555 1_555
C10_2 C9_2 1_555 1_555
C11_2 C10_2 1_555 1_555
C12_2 C11_2 1_555 1_555
C13_2 C12_2 1_555 1_555
H6_2 C13_2 1_555 1_555
C14_2 C9_2 1_555 1_555
H7_2 C14_2 1_555 1_555
C15_2 C12_2 1_555 1_555
C16_2 C15_2 1_555 1_555
C17_2 C16_2 1_555 1_555
H9_2 C17_2 1_555 1_555
C18_2 C17_2 1_555 1_555
C19_2 C18_2 1_555 1_555
H10_2 C19_2 1_555 1_555
C20_2 C15_2 1_555 1_555
H11_2 C20_2 1_555 1_555
C21_2 C18_2 1_555 1_555
C22_2 C21_2 1_555 1_555
H12_2 C22_2 1_555 1_555
C23_2 C22_2 1_555 1_555
H13_2 C23_2 1_555 1_555
C24_2 C23_2 1_555 1_555
C25_2 C24_2 1_555 1_555
H14_2 C25_2 1_555 1_555
C26_2 C21_2 1_555 1_555
H15_2 C26_2 1_555 1_555
C27_2 C24_2 1_555 1_555
O7 C27_2 1_555 1_555
O8 C27_2 1_555 1_555
La3 O7 1_555 1_555
C6_2 C7_2 1_555 1_555
C13_2 C14_2 1_555 1_555
C19_2 C20_2 1_555 1_555
C25_2 C26_2 1_555 1_555
O8 La3 1_555 1_555
C1_2 C2_3 1_555 1_555
C2_3 C3_3 1_555 1_555
C3_3 H1_3 1_555 1_555
C7_3 C2_3 1_555 1_555
H3_3 C7_3 1_555 1_555
C9_3 C6_3 1_555 1_555
C10_3 C9_3 1_555 1_555
C11_3 C10_3 1_555 1_555
C12_3 C11_3 1_555 1_555
C13_3 C12_3 1_555 1_555
H6_3 C13_3 1_555 1_555
C14_3 C9_3 1_555 1_555
H7_3 C14_3 1_555 1_555
C15_3 C12_3 1_555 1_555
C16_3 C15_3 1_555 1_555
C17_3 C16_3 1_555 1_555
H9_3 C17_3 1_555 1_555
C18_3 C17_3 1_555 1_555
C19_3 C18_3 1_555 1_555
H10_3 C19_3 1_555 1_555
C20_3 C15_3 1_555 1_555
H11_3 C20_3 1_555 1_555
C21_3 C18_3 1_555 1_555
C22_3 C21_3 1_555 1_555
H12_3 C22_3 1_555 1_555
C26_3 C21_3 1_555 1_555
H15_3 C26_3 1_555 1_555
La3 O1_2 1_555 1_555
O1_2 H16_2 1_555 1_555
H17_2 O1_2 1_555 1_555
O2_2 La3 1_555 1_555
H18_2 O2_2 1_555 1_555
H19_2 O2_2 1_555 1_555
O3_2 C1_2 1_555 1_555
O4_2 C1_2 1_555 1_555
La4 O4_2 1_555 1_555
O9_2 La3 1_555 1_555
O12_2 La3 1_555 1_555
C6_3 C7_3 1_555 1_555
C13_3 C14_3 1_555 1_555
C19_3 C20_3 1_555 1_555
La3 O3_2 1_555 1_555
La4 O12_2 1_555 1_555
C5_2 C4_2 1_555 1_555
H2_2 C5_2 1_555 1_555
C8_2 C4_2 1_555 1_555
O10 C8_2 1_555 1_555
O11 C8_2 1_555 1_555
H13_3 C23_3 1_555 1_555
C24_3 C23_3 1_555 1_555
C25_3 C24_3 1_555 1_555
H14_3 C25_3 1_555 1_555
C27_3 C24_3 1_555 1_555
O7_2 C27_3 1_555 1_555
O8_2 C27_3 1_555 1_555
La4 O7_2 1_555 1_555
O8_2 La4 1_555 1_555
La4 O1_3 1_555 1_555
O1_3 H16_3 1_555 1_555
H17_3 O1_3 1_555 1_555
O2_3 La4 1_555 1_555
H18_3 O2_3 1_555 1_555
H19_3 O2_3 1_555 1_555
O3_3 C1_3 1_555 1_555
O9_2 C1_3 1_555 1_555
O10_2 La4 1_555 1_555
La4 O3_3 1_555 1_555
C2_4 C3_4 1_555 1_555
C3_4 H1_4 1_555 1_555
C4_3 C3_4 1_555 1_555
C5_3 C4_3 1_555 1_555
H2_3 C5_3 1_555 1_555
C6_4 C5_3 1_555 1_555
C7_4 C2_4 1_555 1_555
H3_4 C7_4 1_555 1_555
C8_3 C4_3 1_555 1_555
C9_4 C6_4 1_555 1_555
C10_4 C9_4 1_555 1_555
H4_3 C10_4 1_555 1_555
C11_4 C10_4 1_555 1_555
H5_3 C11_4 1_555 1_555
C12_4 C11_4 1_555 1_555
C13_4 C12_4 1_555 1_555
H6_4 C13_4 1_555 1_555
C14_4 C9_4 1_555 1_555
H7_4 C14_4 1_555 1_555
C15_4 C12_4 1_555 1_555
C16_4 C15_4 1_555 1_555
H8_3 C16_4 1_555 1_555
C20_4 C15_4 1_555 1_555
H11_4 C20_4 1_555 1_555
O5_2 C8_3 1_555 1_555
O12 C8_3 1_555 1_555
La5 O5_2 1_555 1_555
C6_4 C7_4 1_555 1_555
C13_4 C14_4 1_555 1_555
C19_4 C20_4 1_555 1_555
C5_4 C4_4 1_555 1_555
H2_4 C5_4 1_555 1_555
C8_4 C4_4 1_555 1_555
O10_2 C8_4 1_555 1_555
O12_2 C8_4 1_555 1_555
La5 O1_4 1_555 1_555
O1_4 H16_4 1_555 1_555
H17_4 O1_4 1_555 1_555
O2_4 La5 1_555 1_555
H18_4 O2_4 1_555 1_555
H19_4 O2_4 1_555 1_555
O3_4 C1_4 1_555 1_555
O9 C1_4 1_555 1_555
O13_2 La5 1_555 1_555
O14_2 La5 1_555 1_555
La5 O3_4 1_555 1_555
H13_4 C23_4 1_555 1_555
C24_4 C23_4 1_555 1_555
C25_4 C24_4 1_555 1_555
H14_4 C25_4 1_555 1_555
C27_4 C24_4 1_555 1_555
O13_2 C27_4 1_555 1_555
O14_2 C27_4 1_555 1_555
H9_4 C17_4 1_555 1_555
C18_4 C17_4 1_555 1_555
C21_4 C18_4 1_555 1_555
C22_4 C21_4 1_555 1_555
H12_4 C22_4 1_555 1_555
C26_4 C21_4 1_555 1_555
H15_4 C26_4 1_555 1_555
H13_5 C23_5 1_555 1_555
C24_5 C23_5 1_555 1_555
C25_5 C24_5 1_555 1_555
H14_5 C25_5 1_555 1_555
C27_5 C24_5 1_555 1_555
O7_3 C27_5 1_555 1_555
O8_3 C27_5 1_555 1_555
La2 O7_3 1_555 1_555
O8_3 La2 1_555 1_555
C2_5 C3_5 1_555 1_555
C3_5 H1_5 1_555 1_555
C4_5 C3_5 1_555 1_555
C5_5 C4_5 1_555 1_555
H2_5 C5_5 1_555 1_555
C6_5 C5_5 1_555 1_555
C7_5 C2_5 1_555 1_555
H3_5 C7_5 1_555 1_555
C8_5 C4_5 1_555 1_555
C9_5 C6_5 1_555 1_555
C10_5 C9_5 1_555 1_555
H4_5 C10_5 1_555 1_555
C11_5 C10_5 1_555 1_555
H5_5 C11_5 1_555 1_555
C12_5 C11_5 1_555 1_555
C13_5 C12_5 1_555 1_555
H6_5 C13_5 1_555 1_555
C14_5 C9_5 1_555 1_555
H7_5 C14_5 1_555 1_555
C15_5 C12_5 1_555 1_555
C16_5 C15_5 1_555 1_555
H8_5 C16_5 1_555 1_555
C20_5 C15_5 1_555 1_555
H11_5 C20_5 1_555 1_555
O5_3 C8_5 1_555 1_555
O6_2 C8_5 1_555 1_555
La3_2 O5_3 1_555 1_555
La4_2 O6_2 1_555 1_555
C6_5 C7_5 1_555 1_555
C13_5 C14_5 1_555 1_555
C19_5 C20_5 1_555 1_555
O6_2 La3_2 1_555 1_555
La2 O1_5 1_555 1_555
O1_5 H16_5 1_555 1_555
H17_5 O1_5 1_555 1_555
O2_5 La2 1_555 1_555
H18_5 O2_5 1_555 1_555
H19_5 O2_5 1_555 1_555
O3_5 C1_5 1_555 1_555
O4_3 C1_5 1_555 1_555
La5_2 O4_3 1_555 1_555
O9_3 La2 1_555 1_555
O10_3 La2 1_555 1_555
O11_2 La2 1_555 1_555
O12_3 La2 1_555 1_555
La2 O3_5 1_555 1_555
La5_2 O11_2 1_555 1_555
La5_2 O12_3 1_555 1_555
La3_2 O1_6 1_555 1_555
O1_6 H16_6 1_555 1_555
H17_6 O1_6 1_555 1_555
O2_6 La3_2 1_555 1_555
H18_6 O2_6 1_555 1_555
H19_6 O2_6 1_555 1_555
O3_6 C1_6 1_555 1_555
O4_4 C1_6 1_555 1_555
La4_2 O4_4 1_555 1_555
O9_4 La3_2 1_555 1_555
O12_4 La3_2 1_555 1_555
O13_3 La3_2 1_555 1_555
O14_3 La3_2 1_555 1_555
La3_2 O3_6 1_555 1_555
La4_2 O12_4 1_555 1_555
C5_6 C4_6 1_555 1_555
H2_6 C5_6 1_555 1_555
C8_6 C4_6 1_555 1_555
O10_3 C8_6 1_555 1_555
O11_2 C8_6 1_555 1_555
H13_6 C23_6 1_555 1_555
C24_6 C23_6 1_555 1_555
C25_6 C24_6 1_555 1_555
H14_6 C25_6 1_555 1_555
C27_6 C24_6 1_555 1_555
O13_3 C27_6 1_555 1_555
O14_3 C27_6 1_555 1_555
C1_7 C2_6 1_555 1_555
C2_6 C3_6 1_555 1_555
C3_6 H1_6 1_555 1_555
C4_7 C3_6 1_555 1_555
C5_7 C4_7 1_555 1_555
H2_7 C5_7 1_555 1_555
C6_6 C5_7 1_555 1_555
C7_6 C2_6 1_555 1_555
H3_6 C7_6 1_555 1_555
C8_7 C4_7 1_555 1_555
C9_6 C6_6 1_555 1_555
C10_6 C9_6 1_555 1_555
H4_7 C10_6 1_555 1_555
C11_6 C10_6 1_555 1_555
H5_7 C11_6 1_555 1_555
C12_6 C11_6 1_555 1_555
C13_6 C12_6 1_555 1_555
H6_6 C13_6 1_555 1_555
C14_6 C9_6 1_555 1_555
H7_6 C14_6 1_555 1_555
C15_6 C12_6 1_555 1_555
C16_6 C15_6 1_555 1_555
H8_7 C16_6 1_555 1_555
C20_6 C15_6 1_555 1_555
H11_6 C20_6 1_555 1_555
La4_2 O1_7 1_555 1_555
O1_7 H16_7 1_555 1_555
H17_7 O1_7 1_555 1_555
O2_7 La4_2 1_555 1_555
H18_7 O2_7 1_555 1_555
H19_7 O2_7 1_555 1_555
O3_7 C1_7 1_555 1_555
O9_4 C1_7 1_555 1_555
O5_4 C8_7 1_555 1_555
O12_3 C8_7 1_555 1_555
La5_2 O5_4 1_555 1_555
O10_4 La4_2 1_555 1_555
O13_4 La4_2 1_555 1_555
O14_4 La4_2 1_555 1_555
C6_6 C7_6 1_555 1_555
C13_6 C14_6 1_555 1_555
C19_6 C20_6 1_555 1_555
La4_2 O3_7 1_555 1_555
H9_5 C17_5 1_555 1_555
C18_5 C17_5 1_555 1_555
C21_5 C18_5 1_555 1_555
C22_5 C21_5 1_555 1_555
H12_5 C22_5 1_555 1_555
C23_7 C22_5 1_555 1_555
H13_7 C23_7 1_555 1_555
C24_7 C23_7 1_555 1_555
C25_7 C24_7 1_555 1_555
H14_7 C25_7 1_555 1_555
C26_5 C21_5 1_555 1_555
H15_5 C26_5 1_555 1_555
C27_7 C24_7 1_555 1_555
O13_4 C27_7 1_555 1_555
O14_4 C27_7 1_555 1_555
C25_7 C26_5 1_555 1_555
C2_7 C3_7 1_555 1_555
C3_7 H1_7 1_555 1_555
C7_7 C2_7 1_555 1_555
H3_7 C7_7 1_555 1_555
C9_7 C6_7 1_555 1_555
C10_7 C9_7 1_555 1_555
C11_7 C10_7 1_555 1_555
C12_7 C11_7 1_555 1_555
C13_7 C12_7 1_555 1_555
H6_7 C13_7 1_555 1_555
C14_7 C9_7 1_555 1_555
H7_7 C14_7 1_555 1_555
C15_7 C12_7 1_555 1_555
C16_7 C15_7 1_555 1_555
C17_6 C16_7 1_555 1_555
H9_6 C17_6 1_555 1_555
C18_6 C17_6 1_555 1_555
C19_7 C18_6 1_555 1_555
H10_6 C19_7 1_555 1_555
C20_7 C15_7 1_555 1_555
H11_7 C20_7 1_555 1_555
C21_6 C18_6 1_555 1_555
C22_6 C21_6 1_555 1_555
H12_6 C22_6 1_555 1_555
C23_8 C22_6 1_555 1_555
H13_8 C23_8 1_555 1_555
C24_8 C23_8 1_555 1_555
C25_8 C24_8 1_555 1_555
H14_8 C25_8 1_555 1_555
C26_6 C21_6 1_555 1_555
H15_6 C26_6 1_555 1_555
C27_8 C24_8 1_555 1_555
O7_4 C27_8 1_555 1_555
O8_4 C27_8 1_555 1_555
La5_2 O7_4 1_555 1_555
C6_7 C7_7 1_555 1_555
C13_7 C14_7 1_555 1_555
C19_7 C20_7 1_555 1_555
C25_8 C26_6 1_555 1_555
O8_4 La5_2 1_555 1_555
C5_8 C4_8 1_555 1_555
H2_8 C5_8 1_555 1_555
C8_8 C4_8 1_555 1_555
O10_4 C8_8 1_555 1_555
O12_4 C8_8 1_555 1_555
C1_8 C2_8 1_555 1_555
C2_8 C3_8 1_555 1_555
C3_8 H1_8 1_555 1_555
C7_8 C2_8 1_555 1_555
H3_8 C7_8 1_555 1_555
C9_8 C6_8 1_555 1_555
C10_8 C9_8 1_555 1_555
C11_8 C10_8 1_555 1_555
C12_8 C11_8 1_555 1_555
C13_8 C12_8 1_555 1_555
H6_8 C13_8 1_555 1_555
C14_8 C9_8 1_555 1_555
H7_8 C14_8 1_555 1_555
C15_8 C12_8 1_555 1_555
C16_8 C15_8 1_555 1_555
C17_7 C16_8 1_555 1_555
H9_7 C17_7 1_555 1_555
C18_7 C17_7 1_555 1_555
C19_8 C18_7 1_555 1_555
H10_7 C19_8 1_555 1_555
C20_8 C15_8 1_555 1_555
H11_8 C20_8 1_555 1_555
C21_7 C18_7 1_555 1_555
C22_7 C21_7 1_555 1_555
H12_7 C22_7 1_555 1_555
C26_7 C21_7 1_555 1_555
H15_7 C26_7 1_555 1_555
La5_2 O1_8 1_555 1_555
O1_8 H16_8 1_555 1_555
H17_8 O1_8 1_555 1_555
O2_8 La5_2 1_555 1_555
H18_8 O2_8 1_555 1_555
H19_8 O2_8 1_555 1_555
O3_8 C1_8 1_555 1_555
O9_3 C1_8 1_555 1_555
C6_8 C7_8 1_555 1_555
C13_8 C14_8 1_555 1_555
C19_8 C20_8 1_555 1_555
La5_2 O3_8 1_555 1_555
H9_8 C17_8 1_555 1_555
C18_8 C17_8 1_555 1_555
C21_8 C18_8 1_555 1_555
C22_8 C21_8 1_555 1_555
H12_8 C22_8 1_555 1_555
C26_8 C21_8 1_555 1_555
H15_8 C26_8 1_555 1_555

#END
