
###############################################################################
#
# This file contains modified crystal structure data generated from the
# MOF subset of the Cambridge Structural Database (CSD) v543 
# hosted by the Cambridge Crystallographic Data Centre (CCDC).
#
# This work is licensed under the Creative Commons
# Attribution-NonCommercial-ShareAlike 4.0 International License.
# To view a copy of this license, visit
# http://creativecommons.org/licenses/by-nc-sa/4.0/
# or send a letter to
# Creative Commons, PO Box 1866, Mountain View, CA 94042, USA.
#
# CIF created using the CSD Python API on 29 September 2022
# The structure has been converted into the P1 space group
# The structure has a 3D framework
# The original CSD entry APEBEE is in the triclinic crystal system
# The framework has been calculated to contain at least 10.0% void space
# The void calculation uses a probe of radius 1.32A, grid spacing 0.4
#
###############################################################################

data_APEBEE
_chemical_formula_moiety         '(C38 H42 B2 Cd2 N18 O8 2-)n'
_symmetry_cell_setting           triclinic
_symmetry_space_group_name_H-M   'P 1'
_symmetry_Int_Tables_number      1
_space_group_name_Hall           'P 1'
loop_
_symmetry_equiv_pos_site_id
_symmetry_equiv_pos_as_xyz
1 x,y,z
_cell_length_a                   8.562(3)
_cell_length_b                   8.839(3)
_cell_length_c                   16.904(5)
_cell_angle_alpha                82.238(7)
_cell_angle_beta                 89.592(7)
_cell_angle_gamma                78.252(4)
_cell_volume                     1240.74
loop_
_atom_site_label
_atom_site_type_symbol
_atom_site_fract_x
_atom_site_fract_y
_atom_site_fract_z
_atom_site_U_iso_or_equiv
_atom_site_thermal_displace_type
O5 O 0.2889(5) 0.6665(5) 0.6018(3) 0.0479 Uani
O6 O 0.2973(6) 0.5644(8) 0.4669(3) 0.0660 Uani
H22 H 0.3369 0.5867 0.5066 0.0990 Uiso
C20 C 0.1604(6) 0.6258(6) 0.6189(3) 0.0321 Uani
C21 C 0.0767(6) 0.5625(6) 0.5569(3) 0.0283 Uani
C22 C 0.0727(7) 0.4712(7) 0.4290(3) 0.0364 Uani
H23 H 0.1221 0.4517 0.3812 0.0430 Uiso
C23 C 0.1507(7) 0.5335(7) 0.4844(3) 0.0364 Uani
O7 O 0.0961(5) 0.6324(5) 0.6859(2) 0.0420 Uani
Cd7 Cd 0.24146(3) 0.67606(3) 0.787293(18) 0.0215 Uani
N15 N 0.1532(5) 0.4548(5) 0.8566(3) 0.0301 Uani
C24 C 0.0154(5) 0.4246(5) 0.8367(3) 0.0263 Uani
C28 C 0.1029(6) 0.2497(5) 0.9366(3) 0.0282 Uani
H28 H 0.1132 0.1657 0.9771 0.0340 Uiso
H33 H 0.1036 0.0023 0.8622 0.0350 Uiso
C35 C 0.2078(6) 0.3438(6) 0.9198(3) 0.0308 Uani
H35 H 0.3036 0.3344 0.9474 0.0370 Uiso
N13 N 0.0058(5) 0.8521(5) 0.8127(3) 0.0332 Uani
C33 C 0.0102(6) 0.9797(5) 0.8435(3) 0.0285 Uani
N7 N 0.3197(5) 0.7181(5) 0.9189(2) 0.0284 Uani
C3 C 0.2287(6) 0.6940(5) 0.9808(3) 0.0249 Uani
H3 H 0.1594 0.6249 0.9840 0.0300 Uiso
C11 C 0.4025(6) 0.8258(6) 0.9384(3) 0.0337 Uani
H11 H 0.4770 0.8661 0.9062 0.0400 Uiso
N10 N 0.4952(4) 0.5336(5) 0.7760(2) 0.0261 Uani
N11 N 0.8653(4) 0.0754(4) 0.8455(2) 0.0235 Uani
B2 B 0.8252(5) 0.2343(5) 0.8772(3) 0.0204 Uani
N12 N 0.9774(4) 0.3015(4) 0.8824(2) 0.0218 Uani
N14 N 0.7534(4) 0.2200(4) 0.9610(2) 0.0212 Uani
H24 H 0.9505 0.4832 0.7949 0.0310 Uiso
C25 C 0.7055(6) 0.3707(6) 0.7370(3) 0.0299 Uani
H25 H 0.7807 0.3181 0.7050 0.0360 Uiso
N17 N 0.7031(4) 0.3462(4) 0.8194(2) 0.0216 Uani
H27 H 0.6509 0.0336 0.8061 0.0430 Uiso
C29 C 0.5790(6) 0.4849(6) 0.7113(3) 0.0296 Uani
H29 H 0.5528 0.5243 0.6581 0.0360 Uiso
C30 C 0.5741(5) 0.4496(5) 0.8387(3) 0.0235 Uani
H30 H 0.5444 0.4602 0.8910 0.0280 Uiso
C31 C 0.6406(6) 0.1353(6) 0.9886(3) 0.0308 Uani
H31 H 0.6014 0.0648 0.9620 0.0370 Uiso
C36 C 0.3924(8) 0.9575(7) 0.6869(4) 0.0496 Uani
H36 H 0.4438 0.8853 0.6551 0.0600 Uiso
O8 O 0.3316(6) 0.9088(5) 0.7474(3) 0.0507 Uani
C4 C 0.2394(6) 0.0010(6) 0.1870(4) 0.0360 Uani
C9 C 0.1512(7) 0.1362(6) 0.2072(4) 0.0397 Uani
H9 H 0.1917 0.2096 0.2309 0.0480 Uiso
N18 N 0.3904(9) 0.1042(7) 0.6635(4) 0.0660 Uani
C37 C 0.3066(13) 0.2223(9) 0.7089(7) 0.0898 Uani
H37 H 0.1985 0.2564 0.6892 0.1350 Uiso
H38 H 0.3588 0.3094 0.7034 0.1350 Uiso
H39 H 0.3069 0.1794 0.7642 0.1350 Uiso
C38 C 0.464(2) 0.1609(16) 0.5915(7) 0.1437 Uani
H40 H 0.5518 0.0822 0.5791 0.2150 Uiso
H41 H 0.5011 0.2532 0.5993 0.2150 Uiso
H42 H 0.3867 0.1851 0.5483 0.2150 Uiso
N1 N 0.5048(4) 0.4664(5) 0.2240(2) 0.0261 Uani
N2 N 0.1347(4) 0.9246(4) 0.1545(2) 0.0235 Uani
B1 B 0.1748(5) 0.7657(5) 0.1228(3) 0.0204 Uani
N3 N 0.0226(4) 0.6985(4) 0.1176(2) 0.0218 Uani
N5 N 0.2466(4) 0.7800(4) 0.0390(2) 0.0212 Uani
H1 H 0.0495 0.5168 0.2051 0.0310 Uiso
C2 C 0.2945(6) 0.6293(6) 0.2630(3) 0.0299 Uani
H2 H 0.2193 0.6819 0.2950 0.0360 Uiso
N8 N 0.2969(4) 0.6538(4) 0.1806(2) 0.0216 Uani
H4 H 0.3491 0.9664 0.1939 0.0430 Uiso
C6 C 0.4210(6) 0.5151(6) 0.2887(3) 0.0296 Uani
H6 H 0.4472 0.4757 0.3419 0.0360 Uiso
C7 C 0.4259(5) 0.5504(5) 0.1613(3) 0.0235 Uani
H7 H 0.4556 0.5398 0.1090 0.0280 Uiso
C8 C 0.3594(6) 0.8647(6) 0.0114(3) 0.0308 Uani
H8 H 0.3986 0.9352 0.0380 0.0370 Uiso
Cd1 Cd 0.75854(3) 0.32394(3) 0.212707(18) 0.0215 Uani
O1 O 0.7111(5) 0.3335(5) 0.3982(3) 0.0479 Uani
O2 O 0.7027(6) 0.4356(8) 0.5331(3) 0.0660 Uani
H13 H 0.6631 0.4133 0.4934 0.0990 Uiso
C13 C 0.8396(6) 0.3742(6) 0.3811(3) 0.0321 Uani
C14 C 0.9233(6) 0.4375(6) 0.4431(3) 0.0283 Uani
C15 C 0.9273(7) 0.5288(7) 0.5710(3) 0.0364 Uani
H14 H 0.8779 0.5483 0.6188 0.0430 Uiso
C16 C 0.8493(7) 0.4665(7) 0.5156(3) 0.0364 Uani
O3 O 0.9039(5) 0.3676(5) 0.3141(2) 0.0420 Uani
C17 C 0.6076(8) 0.0425(7) 0.3131(4) 0.0496 Uani
H15 H 0.5562 0.1147 0.3449 0.0600 Uiso
O4 O 0.6684(6) 0.0912(5) 0.2526(3) 0.0507 Uani
N16 N 0.6803(5) 0.2819(5) 0.0811(2) 0.0284 Uani
C26 C 0.7713(6) 0.3060(5) 0.0192(3) 0.0249 Uani
H26 H 0.8406 0.3751 0.0160 0.0300 Uiso
C34 C 0.5975(6) 0.1742(6) 0.0616(3) 0.0337 Uani
H34 H 0.5230 0.1339 0.0938 0.0400 Uiso
N19 N 0.9942(5) 0.1479(5) 0.1873(3) 0.0332 Uani
N21 N 0.8468(5) 0.5452(5) 0.1434(3) 0.0301 Uani
C10 C 0.9898(6) 0.0203(5) 0.1565(3) 0.0285 Uani
C1 C 0.9846(5) 0.5754(5) 0.1633(3) 0.0263 Uani
C5 C 0.8971(6) 0.7503(5) 0.0634(3) 0.0282 Uani
H5 H 0.8868 0.8343 0.0229 0.0340 Uiso
H10 H 0.8964 0.9977 0.1378 0.0350 Uiso
C12 C 0.7922(6) 0.6562(6) 0.0802(3) 0.0308 Uani
H12 H 0.6964 0.6656 0.0526 0.0370 Uiso
N9 N 0.6096(9) 0.8958(7) 0.3365(4) 0.0660 Uani
C18 C 0.6934(13) 0.7777(9) 0.2911(7) 0.0898 Uani
H16 H 0.8015 0.7436 0.3108 0.1350 Uiso
H17 H 0.6412 0.6906 0.2966 0.1350 Uiso
H18 H 0.6931 0.8206 0.2358 0.1350 Uiso
C19 C 0.536(2) 0.8391(16) 0.4085(7) 0.1437 Uani
H19 H 0.4482 0.9178 0.4209 0.2150 Uiso
H20 H 0.4989 0.7468 0.4007 0.2150 Uiso
H21 H 0.6133 0.8149 0.4517 0.2150 Uiso
C27 C 0.7606(6) 0.9990(6) 0.8130(4) 0.0360 Uani
C32 C 0.8488(7) 0.8638(6) 0.7928(4) 0.0397 Uani
H32 H 0.8083 0.7904 0.7691 0.0480 Uiso
loop_
_atom_site_aniso_label
_atom_site_aniso_U_11
_atom_site_aniso_U_22
_atom_site_aniso_U_33
_atom_site_aniso_U_23
_atom_site_aniso_U_13
_atom_site_aniso_U_12
O5 0.042 0.062 0.046 -0.018 -0.009 -0.018
O6 0.049 0.124 0.045 -0.036 0.016 -0.049
C20 0.038 0.029 0.028 -0.0056 -0.01 -0.002
C21 0.034 0.032 0.02 -0.0065 -0.0029 -0.0072
C22 0.041 0.051 0.021 -0.013 0.003 -0.013
C23 0.038 0.05 0.026 -0.009 0.003 -0.018
O7 0.054 0.052 0.0248 -0.0155 -0.0055 -0.015
Cd7 0.02071 0.02082 0.02271 -0.00598 -0.00039 -0.00147
N15 0.028 0.027 0.036 -0.0029 -0.0013 -0.0083
C24 0.024 0.025 0.029 -0.0017 -0.0009 -0.004
C28 0.026 0.026 0.032 0.0007 -0.0054 -0.0067
C35 0.026 0.031 0.036 -0.007 -0.0052 -0.0051
N13 0.029 0.029 0.041 -0.0164 -0.0033 0.0029
C33 0.023 0.026 0.036 -0.0113 -0.0021 0.0011
N7 0.027 0.034 0.026 -0.0087 0.0004 -0.0071
C3 0.029 0.025 0.023 -0.0086 0.0024 -0.0076
C11 0.034 0.045 0.028 -0.007 0.006 -0.021
N10 0.022 0.0279 0.025 -0.0035 0.0009 0.003
N11 0.0214 0.0225 0.027 -0.0092 0.001 -0.0019
B2 0.017 0.019 0.024 -0.0054 0.0014 0.0008
N12 0.0185 0.0201 0.0264 -0.0055 0.0001 -0.0012
N14 0.0202 0.0203 0.0231 -0.0043 0.0005 -0.0034
C25 0.026 0.039 0.022 -0.0099 0.0051 0.0034
N17 0.0185 0.0247 0.0203 -0.005 0.0018 -0.0002
C29 0.027 0.039 0.02 -0.0037 0.0017 -0.0003
C30 0.022 0.026 0.021 -0.0046 0.0025 -0.0009
C31 0.033 0.038 0.028 -0.01 0.0044 -0.019
C36 0.065 0.039 0.049 -0.013 0.01 -0.016
O8 0.071 0.032 0.051 -0.0034 0.013 -0.017
C4 0.023 0.036 0.052 -0.021 -0.004 -0.0028
C9 0.036 0.032 0.054 -0.022 -0.009 -0.003
N18 0.093 0.055 0.057 -0.001 0.011 -0.036
C37 0.116 0.034 0.119 -0.01 0.017 -0.015
C38 0.238 0.139 0.087 -0.011 0.064 -0.12
N1 0.022 0.0279 0.025 -0.0035 0.0009 0.003
N2 0.0214 0.0225 0.027 -0.0092 0.001 -0.0019
B1 0.017 0.019 0.024 -0.0054 0.0014 0.0008
N3 0.0185 0.0201 0.0264 -0.0055 0.0001 -0.0012
N5 0.0202 0.0203 0.0231 -0.0043 0.0005 -0.0034
C2 0.026 0.039 0.022 -0.0099 0.0051 0.0034
N8 0.0185 0.0247 0.0203 -0.005 0.0018 -0.0002
C6 0.027 0.039 0.02 -0.0037 0.0017 -0.0003
C7 0.022 0.026 0.021 -0.0046 0.0025 -0.0009
C8 0.033 0.038 0.028 -0.01 0.0044 -0.019
Cd1 0.02071 0.02082 0.02271 -0.00598 -0.00039 -0.00147
O1 0.042 0.062 0.046 -0.018 -0.009 -0.018
O2 0.049 0.124 0.045 -0.036 0.016 -0.049
C13 0.038 0.029 0.028 -0.0056 -0.01 -0.002
C14 0.034 0.032 0.02 -0.0065 -0.0029 -0.0072
C15 0.041 0.051 0.021 -0.013 0.003 -0.013
C16 0.038 0.05 0.026 -0.009 0.003 -0.018
O3 0.054 0.052 0.0248 -0.0155 -0.0055 -0.015
C17 0.065 0.039 0.049 -0.013 0.01 -0.016
O4 0.071 0.032 0.051 -0.0034 0.013 -0.017
N16 0.027 0.034 0.026 -0.0087 0.0004 -0.0071
C26 0.029 0.025 0.023 -0.0086 0.0024 -0.0076
C34 0.034 0.045 0.028 -0.007 0.006 -0.021
N19 0.029 0.029 0.041 -0.0164 -0.0033 0.0029
N21 0.028 0.027 0.036 -0.0029 -0.0013 -0.0083
C10 0.023 0.026 0.036 -0.0113 -0.0021 0.0011
C1 0.024 0.025 0.029 -0.0017 -0.0009 -0.004
C5 0.026 0.026 0.032 0.0007 -0.0054 -0.0067
C12 0.026 0.031 0.036 -0.007 -0.0052 -0.0051
N9 0.093 0.055 0.057 -0.001 0.011 -0.036
C18 0.116 0.034 0.119 -0.01 0.017 -0.015
C19 0.238 0.139 0.087 -0.011 0.064 -0.12
C27 0.023 0.036 0.052 -0.021 -0.004 -0.0028
C32 0.036 0.032 0.054 -0.022 -0.009 -0.003
loop_
_geom_bond_atom_site_label_1
_geom_bond_atom_site_label_2
_geom_bond_site_symmetry_1
_geom_bond_site_symmetry_2
O5 C20 1_555 1_555
O6 H22 1_555 1_555
C20 C21 1_555 1_555
H23 C22 1_555 1_555
C23 O6 1_555 1_555
O7 C20 1_555 1_555
Cd7 O7 1_555 1_555
C21 C23 1_555 1_555
C22 C23 1_555 1_555
N15 C24 1_555 1_555
H28 C28 1_555 1_555
C35 N15 1_555 1_555
H35 C35 1_555 1_555
Cd7 N15 1_555 1_555
C28 C35 1_555 1_555
Cd7 N13 1_555 1_555
N13 C33 1_555 1_555
N7 C3 1_555 1_555
H3 C3 1_555 1_555
C11 N7 1_555 1_555
H11 C11 1_555 1_555
N10 C29 1_555 1_555
N11 B2 1_555 1_555
B2 N12 1_555 1_555
N14 B2 1_555 1_555
C25 H25 1_555 1_555
N17 B2 1_555 1_555
C29 C25 1_555 1_555
H29 C29 1_555 1_555
C30 N10 1_555 1_555
H30 C30 1_555 1_555
C31 N14 1_555 1_555
H31 C31 1_555 1_555
Cd7 N7 1_555 1_555
C36 H36 1_555 1_555
O8 Cd7 1_555 1_555
N10 Cd7 1_555 1_555
C25 N17 1_555 1_555
N17 C30 1_555 1_555
C36 O8 1_555 1_555
C9 C4 1_555 1_555
H9 C9 1_555 1_555
C37 N18 1_555 1_555
H37 C37 1_555 1_555
H38 C37 1_555 1_555
H39 C37 1_555 1_555
C38 N18 1_555 1_555
H40 C38 1_555 1_555
H41 C38 1_555 1_555
H42 C38 1_555 1_555
N1 C6 1_555 1_555
N2 B1 1_555 1_555
B1 N3 1_555 1_555
N5 B1 1_555 1_555
C2 H2 1_555 1_555
N8 B1 1_555 1_555
C6 C2 1_555 1_555
H6 C6 1_555 1_555
C7 N1 1_555 1_555
H7 C7 1_555 1_555
C8 N5 1_555 1_555
H8 C8 1_555 1_555
Cd1 N1 1_555 1_555
O1 C13 1_555 1_555
O2 H13 1_555 1_555
C13 C14 1_555 1_555
C14 C16 1_555 1_555
C15 H14 1_555 1_555
C16 O2 1_555 1_555
O3 Cd1 1_555 1_555
C17 H15 1_555 1_555
O4 Cd1 1_555 1_555
N16 Cd1 1_555 1_555
H26 C26 1_555 1_555
C34 N16 1_555 1_555
H34 C34 1_555 1_555
N19 Cd1 1_555 1_555
N21 Cd1 1_555 1_555
C2 N8 1_555 1_555
N8 C7 1_555 1_555
C13 O3 1_555 1_555
C15 C16 1_555 1_555
C17 O4 1_555 1_555
N16 C26 1_555 1_555
N19 C10 1_555 1_555
N21 C1 1_555 1_555
H5 C5 1_555 1_555
C12 N21 1_555 1_555
H12 C12 1_555 1_555
C5 C12 1_555 1_555
C18 N9 1_555 1_555
H16 C18 1_555 1_555
H17 C18 1_555 1_555
H18 C18 1_555 1_555
C19 N9 1_555 1_555
H19 C19 1_555 1_555
H20 C19 1_555 1_555
H21 C19 1_555 1_555
C32 C27 1_555 1_555
H32 C32 1_555 1_555

#END
