
###############################################################################
#
# This file contains modified crystal structure data generated from the
# MOF subset of the Cambridge Structural Database (CSD) v543 
# hosted by the Cambridge Crystallographic Data Centre (CCDC).
#
# This work is licensed under the Creative Commons
# Attribution-NonCommercial-ShareAlike 4.0 International License.
# To view a copy of this license, visit
# http://creativecommons.org/licenses/by-nc-sa/4.0/
# or send a letter to
# Creative Commons, PO Box 1866, Mountain View, CA 94042, USA.
#
# CIF created using the CSD Python API on 29 September 2022
# The structure has been converted into the P1 space group
# The structure has a 3D framework
# The original CSD entry APOBEP is in the hexagonal crystal system
# The framework has been calculated to contain at least 10.0% void space
# The void calculation uses a probe of radius 1.32A, grid spacing 0.4
# The framework is charged, counterions have been retained in the structure
#
###############################################################################

data_APOBEP
_chemical_formula_moiety         '(C12 H24 Bi2 I11 K1 N4 2-)n'
_symmetry_cell_setting           triclinic
_symmetry_space_group_name_H-M   'P 1'
_symmetry_Int_Tables_number      1
_space_group_name_Hall           'P 1'
loop_
_symmetry_equiv_pos_site_id
_symmetry_equiv_pos_as_xyz
1 x,y,z
_cell_length_a                   10.16174(4)
_cell_length_b                   10.16174(4)
_cell_length_c                   14.79110(4)
_cell_angle_alpha                90
_cell_angle_beta                 90
_cell_angle_gamma                120
_cell_volume                     1322.72
loop_
_atom_site_label
_atom_site_type_symbol
_atom_site_fract_x
_atom_site_fract_y
_atom_site_fract_z
K3 K 0.3333 0.6667 0.3927(5)
I7 I 0.52789(9) 0.05578(13) 0.45325(14)
Bi1 Bi 0.6667 0.3333 0.58487(13)
I1 I 0.52789(9) 0.47211(9) 0.45325(14)
I2 I 0.38575(16) 0.19287(8) 0.70306(14)
N1 N 0.3333 0.6667 0.5953(14)
C1 C 0.2544(9) 0.5088(18) 0.6314(10)
C2 C 0.2571(14) 0.514(3) 0.7372(16)
N2 N 0.3333 0.6667 0.7663(18)
H1 H 0.1521 0.4569 0.6108
H2 H 0.1559 0.4644 0.7596
C3 C 0.4912(18) 0.7456(9) 0.6314(10)
C4 C 0.486(3) 0.7429(14) 0.7372(16)
H3 H 0.5431 0.8479 0.6108
H4 H 0.5356 0.8441 0.7596
H5 H 0.5431 0.6952 0.6108
H6 H 0.5356 0.6915 0.7596
C5 C 0.2544(9) 0.7456(20) 0.6314(10)
C6 C 0.2571(14) 0.7431(33) 0.7372(16)
H7 H 0.1521 0.6952 0.6108
H8 H 0.1559 0.6915 0.7596
H9 H 0.3048 0.8479 0.6108
H10 H 0.3085 0.8441 0.7596
H11 H 0.3048 0.4569 0.6108
H12 H 0.3085 0.4644 0.7596
I3 I 0.80713(8) 0.61425(16) 0.70306(14)
I5 I 0.80713(8) 0.19288(18) 0.70306(14)
I6 I 0.94422(13) 0.47211(9) 0.45325(14)
I9 I 0.19287(8) 0.80712(18) 0.20306(14)
I10 I 0.19288(18) 0.38575(16) 0.20306(14)
I11 I 0.61425(16) 0.80713(8) 0.20306(14)
K4 K 0.6667 0.3334 0.8927(5)
I7_2 I 0.05578(13) 0.52789(16) 0.95325(14)
N1_2 N 0.6667 0.3334 0.0953(14)
C1_2 C 0.5088(18) 0.2544(20) 0.1314(10)
C2_2 C 0.514(3) 0.2569(33) 0.2372(16)
N2_2 N 0.6667 0.3334 0.2663(18)
H1_2 H 0.4569 0.3048 0.1108
H2_2 H 0.4644 0.3085 0.2596
C3_2 C 0.7456(9) 0.2544(20) 0.1314(10)
C4_2 C 0.7429(14) 0.2569(33) 0.2372(16)
H3_2 H 0.8479 0.3048 0.1108
H4_2 H 0.8441 0.3085 0.2596
H5_2 H 0.6952 0.1521 0.1108
H6_2 H 0.6915 0.1559 0.2596
C5_2 C 0.7456(20) 0.4912(22) 0.1314(10)
C6_2 C 0.7431(33) 0.4860(36) 0.2372(16)
H7_2 H 0.6952 0.5431 0.1108
H8_2 H 0.6915 0.5356 0.2596
H9_2 H 0.8479 0.5431 0.1108
H10_2 H 0.8441 0.5356 0.2596
H11_2 H 0.4569 0.1521 0.1108
H12_2 H 0.4644 0.1559 0.2596
I8 I 0.47211(9) 0.52789(16) 0.95325(14)
Bi1_2 Bi 0.3333 0.6666 0.08487(13)
I1_2 I 0.47211(9) 0.94422(13) 0.95325(14)
loop_
_geom_bond_atom_site_label_1
_geom_bond_atom_site_label_2
_geom_bond_site_symmetry_1
_geom_bond_site_symmetry_2
Bi1 I1 1_555 1_555
I1 K3 1_555 1_555
I2 Bi1 1_555 1_555
K3 N1 1_555 1_555
N1 C1 1_555 1_555
C1 C2 1_555 1_555
C2 N2 1_555 1_555
N2 C4 1_555 1_555
H1 C1 1_555 1_555
H2 C2 1_555 1_555
C3 N1 1_555 1_555
C4 C3 1_555 1_555
H3 C3 1_555 1_555
H4 C4 1_555 1_555
H5 C3 1_555 1_555
H6 C4 1_555 1_555
C5 N1 1_555 1_555
C6 N2 1_555 1_555
H7 C5 1_555 1_555
H8 C6 1_555 1_555
H9 C5 1_555 1_555
H10 C6 1_555 1_555
H11 C1 1_555 1_555
H12 C2 1_555 1_555
I3 Bi1 1_555 1_555
I7 Bi1 1_555 1_555
I5 Bi1 1_555 1_555
I6 Bi1 1_555 1_555
I9 K3 1_555 1_555
I10 K3 1_555 1_555
I11 K3 1_555 1_555
K4 I2 1_555 1_555
C5 C6 1_555 1_555
I3 K4 1_555 1_555
I5 K4 1_555 1_555
N1_2 C1_2 1_555 1_555
C1_2 C2_2 1_555 1_555
C2_2 N2_2 1_555 1_555
N2_2 C4_2 1_555 1_555
H1_2 C1_2 1_555 1_555
H2_2 C2_2 1_555 1_555
C3_2 N1_2 1_555 1_555
C4_2 C3_2 1_555 1_555
H3_2 C3_2 1_555 1_555
H4_2 C4_2 1_555 1_555
H5_2 C3_2 1_555 1_555
H6_2 C4_2 1_555 1_555
C5_2 N1_2 1_555 1_555
C6_2 N2_2 1_555 1_555
H7_2 C5_2 1_555 1_555
H8_2 C6_2 1_555 1_555
H9_2 C5_2 1_555 1_555
H10_2 C6_2 1_555 1_555
H11_2 C1_2 1_555 1_555
H12_2 C2_2 1_555 1_555
C5_2 C6_2 1_555 1_555
I8 K4 1_555 1_555
I9 Bi1_2 1_555 1_555
I11 Bi1_2 1_555 1_555
I10 Bi1_2 1_555 1_555

#END
