
###############################################################################
#
# This file contains modified crystal structure data generated from the
# MOF subset of the Cambridge Structural Database (CSD) v543 
# hosted by the Cambridge Crystallographic Data Centre (CCDC).
#
# This work is licensed under the Creative Commons
# Attribution-NonCommercial-ShareAlike 4.0 International License.
# To view a copy of this license, visit
# http://creativecommons.org/licenses/by-nc-sa/4.0/
# or send a letter to
# Creative Commons, PO Box 1866, Mountain View, CA 94042, USA.
#
# CIF created using the CSD Python API on 29 September 2022
# The structure has been converted into the P1 space group
# The structure has a 3D framework
# The original CSD entry APUVIS is in the hexagonal crystal system
# The original CSD entry APUVIS is in a Sohncke space group
# The framework has been calculated to contain at least 10.0% void space
# The void calculation uses a probe of radius 1.32A, grid spacing 0.4
#
###############################################################################

data_APUVIS
_chemical_formula_moiety         '(C72 H102 Br6 N12 O11 Zn6)n'
_symmetry_cell_setting           triclinic
_symmetry_space_group_name_H-M   'P 1'
_symmetry_Int_Tables_number      1
_space_group_name_Hall           'P 1'
loop_
_symmetry_equiv_pos_site_id
_symmetry_equiv_pos_as_xyz
1 x,y,z
_cell_length_a                   15.9539(6)
_cell_length_b                   15.9539(6)
_cell_length_c                   14.7843(5)
_cell_angle_alpha                90
_cell_angle_beta                 90
_cell_angle_gamma                120
_cell_volume                     3258.86
loop_
_atom_site_label
_atom_site_type_symbol
_atom_site_fract_x
_atom_site_fract_y
_atom_site_fract_z
Zn1 Zn 0.38554(5) 0.75206(5) 0.51490(5)
Br1 Br 0.52477(5) 0.73356(7) 0.52064(6)
N1 N 0.2429(3) 0.6376(4) 0.4866(4)
O1 O 0.3288(3) 0.6927(3) 0.6475(3)
C1 C 0.2127(5) 0.5629(5) 0.5572(4)
H1 H 0.1420 0.5227 0.5580
C2 C 0.2583(6) 0.5000(5) 0.5420(5)
H2 H 0.2428 0.4570 0.5934
H3 H 0.3281 0.5417 0.5408
C3 C 0.2276(6) 0.4383(6) 0.4552(6)
H4 H 0.2368 0.4819 0.4048
C4 C 0.2489(4) 0.6170(4) 0.6478(4)
C5 C 0.1759(4) 0.6760(5) 0.4785(5)
H5 H 0.2027 0.7291 0.4356
H6 H 0.1719 0.7019 0.5367
C6 C 0.2899(9) 0.3963(8) 0.4374(9)
H7 H 0.2688 0.3583 0.3830
H8 H 0.2857 0.3558 0.4872
H9 H 0.3557 0.4473 0.4303
C7 C 0.1199(8) 0.3619(8) 0.4575(8)
H10 H 0.1028 0.3244 0.4029
H11 H 0.0822 0.3934 0.4625
H12 H 0.1072 0.3201 0.5086
O2 O 0.1982(3) 0.5772(3) 0.7167(3)
C8 C 0.0751(5) 0.6025(5) 0.4487(4)
H13 H 0.0028 0.6179 0.5512
C10 C 0.0582(4) 0.5493(5) 0.3696(5)
H14 H 0.1097 0.5572 0.3340
H17 H 0.244(5) 0.612(4) 0.435(3)
Zn2 Zn 0.24794(5) 0.63348(7) 0.84823(5)
O3 O 0.3790(4) 0.8018(3) 0.3834(3)
N3 N 0.4193(6) 0.8884(4) 0.5592(3)
C9 C 0.9954(4) 0.5845(5) 0.4975(4)
C11 C 0.9665(5) 0.4862(5) 0.3448(5)
H15 H 0.9569 0.4523 0.2911
C12 C 0.9056(5) 0.5188(5) 0.4689(5)
H16 H 0.8531 0.5077 0.5047
N2 N 0.8884(4) 0.4691(4) 0.3925(3)
Zn3 Zn 0.75206(5) 0.36652(7) 0.34823(5)
Zn2_2 Zn 0.61446(9) 0.24794(5) 0.01490(5)
Zn1_2 Zn 0.63348(7) 0.38554(5) 0.68157(5)
Br1_2 Br 0.79121(9) 0.52477(5) 0.68731(6)
N1_2 N 0.6053(5) 0.2429(3) 0.6533(4)
O1_2 O 0.6361(4) 0.3288(3) 0.8142(3)
C1_2 C 0.6498(7) 0.2127(5) 0.7239(4)
H1_2 H 0.6193 0.1420 0.7247
C2_2 C 0.7583(8) 0.2583(6) 0.7087(5)
H2_2 H 0.7858 0.2428 0.7601
H3_2 H 0.7864 0.3281 0.7075
C3_2 C 0.7893(8) 0.2276(6) 0.6219(6)
H4_2 H 0.7549 0.2368 0.5715
C4_2 C 0.6319(6) 0.2489(4) 0.8145(4)
C5_2 C 0.4999(6) 0.1759(4) 0.6452(5)
H5_2 H 0.4736 0.2027 0.6023
H6_2 H 0.4700 0.1719 0.7034
C6_2 C 0.8936(12) 0.2899(9) 0.6041(9)
H7_2 H 0.9105 0.2688 0.5497
H8_2 H 0.9299 0.2857 0.6539
H9_2 H 0.9084 0.3557 0.5970
C7_2 C 0.7580(11) 0.1199(8) 0.6242(8)
H10_2 H 0.7784 0.1028 0.5696
H11_2 H 0.6888 0.0822 0.6292
H12_2 H 0.7871 0.1072 0.6753
O2_2 O 0.6210(4) 0.1982(3) 0.8834(3)
C8_2 C 0.4726(7) 0.0751(5) 0.6154(4)
H13_2 H 0.3849 0.0028 0.7179
C10_2 C 0.5089(6) 0.0582(4) 0.5363(5)
H14_2 H 0.5525 0.1097 0.5007
H17_2 H 0.632(6) 0.244(5) 0.602(3)
O3_2 O 0.5772(5) 0.3790(4) 0.5500(3)
N3_2 N 0.5309(7) 0.4193(6) 0.7258(3)
C9_2 C 0.4109(6) 0.9954(4) 0.6642(4)
C11_2 C 0.4803(7) 0.9665(5) 0.5115(5)
H15_2 H 0.5046 0.9569 0.4578
C12_2 C 0.3868(7) 0.9056(5) 0.6356(5)
H16_2 H 0.3454 0.8531 0.6714
O2_3 O 0.4228(3) 0.6210(4) 0.0500(3)
Zn2_3 Zn 0.36652(7) 0.61446(9) 0.18157(5)
Br1_3 Br 0.26644(7) 0.79121(9) 0.85397(6)
N1_3 N 0.3624(4) 0.6053(5) 0.8199(4)
O1_3 O 0.3073(3) 0.6361(4) 0.9808(3)
C1_3 C 0.4371(5) 0.6498(7) 0.8905(4)
H1_3 H 0.4773 0.6193 0.8913
C2_3 C 0.5000(5) 0.7583(8) 0.8753(5)
H2_3 H 0.5430 0.7858 0.9267
H3_3 H 0.4583 0.7864 0.8741
C3_3 C 0.5617(6) 0.7893(8) 0.7885(6)
H4_3 H 0.5181 0.7549 0.7381
C4_3 C 0.3830(4) 0.6319(6) 0.9811(4)
C5_3 C 0.3240(5) 0.4999(6) 0.8118(5)
H5_3 H 0.2709 0.4736 0.7689
H6_3 H 0.2981 0.4700 0.8700
C6_3 C 0.6037(8) 0.8936(12) 0.7707(9)
H7_3 H 0.6417 0.9105 0.7163
H8_3 H 0.6442 0.9299 0.8205
H9_3 H 0.5527 0.9084 0.7636
C7_3 C 0.6381(8) 0.7580(11) 0.7908(8)
H10_3 H 0.6756 0.7784 0.7362
H11_3 H 0.6066 0.6888 0.7958
H12_3 H 0.6799 0.7871 0.8419
C8_3 C 0.3975(5) 0.4726(7) 0.7820(4)
C9_3 C 0.4155(5) 0.4109(6) 0.8308(4)
H13_3 H 0.3821 0.3849 0.8845
C10_3 C 0.4507(5) 0.5089(6) 0.7029(5)
H14_3 H 0.4428 0.5525 0.6673
C11_3 C 0.5138(5) 0.4803(7) 0.6781(5)
H15_3 H 0.5477 0.5046 0.6244
C12_3 C 0.4812(5) 0.3868(7) 0.8022(5)
H16_3 H 0.4923 0.3454 0.8380
H17_3 H 0.388(4) 0.632(6) 0.768(3)
N3_3 N 0.1116(4) 0.5309(7) 0.8925(3)
C9_4 C 0.0046(4) 0.4155(5) 0.9975(4)
C11_4 C 0.0335(5) 0.5138(5) 0.8448(5)
H15_4 H 0.0431 0.5477 0.7911
C12_4 C 0.0944(5) 0.4812(5) 0.9689(5)
Br1_4 Br 0.47523(5) 0.26644(7) 0.02064(6)
O1_4 O 0.6712(3) 0.3073(3) 0.1475(3)
C1_4 C 0.7873(5) 0.4371(5) 0.0572(4)
H1_4 H 0.8580 0.4773 0.0580
C2_4 C 0.7417(6) 0.5000(5) 0.0420(5)
H2_4 H 0.7572 0.5430 0.0934
H3_4 H 0.6719 0.4583 0.0408
C4_4 C 0.7511(4) 0.3830(4) 0.1478(4)
H6_4 H 0.8281 0.2981 0.0367
H12_4 H 0.8928 0.6799 0.0086
O2_4 O 0.8018(3) 0.4228(3) 0.2167(3)
H13_4 H 0.9972 0.3821 0.0512
N3_4 N 0.5807(6) 0.1116(4) 0.0592(3)
N1_4 N 0.7571(3) 0.3624(4) 0.9866(4)
C3_4 C 0.7724(6) 0.5617(6) 0.9552(6)
H4_4 H 0.7632 0.5181 0.9048
C5_4 C 0.8241(4) 0.3240(5) 0.9785(5)
H5_4 H 0.7973 0.2709 0.9356
C6_4 C 0.7101(9) 0.6037(8) 0.9374(9)
H7_4 H 0.7312 0.6417 0.8830
H8_4 H 0.7143 0.6442 0.9872
H9_4 H 0.6443 0.5527 0.9303
C7_4 C 0.8801(8) 0.6381(8) 0.9575(8)
H10_4 H 0.8972 0.6756 0.9029
H11_4 H 0.9178 0.6066 0.9625
C8_4 C 0.9249(5) 0.3975(5) 0.9487(4)
C10_4 C 0.9418(4) 0.4507(5) 0.8696(5)
H14_4 H 0.8903 0.4428 0.8340
H17_4 H 0.756(5) 0.388(4) 0.935(3)
C9_5 C 0.5891(6) 0.0046(4) 0.1642(4)
C11_5 C 0.5197(7) 0.0335(5) 0.0115(5)
C12_5 C 0.6132(7) 0.0944(5) 0.1356(5)
H16_4 H 0.6546 0.1469 0.1714
Br1_5 Br 0.20879(9) 0.47523(5) 0.18731(6)
N1_5 N 0.3947(5) 0.7571(3) 0.1533(4)
O1_5 O 0.3639(4) 0.6712(3) 0.3142(3)
C1_5 C 0.3502(7) 0.7873(5) 0.2239(4)
H1_5 H 0.3807 0.8580 0.2247
C2_5 C 0.2417(8) 0.7417(6) 0.2087(5)
H2_5 H 0.2142 0.7572 0.2601
H3_5 H 0.2136 0.6719 0.2075
C3_5 C 0.2107(8) 0.7724(6) 0.1219(6)
H4_5 H 0.2451 0.7632 0.0715
C4_5 C 0.3681(6) 0.7511(4) 0.3145(4)
C5_5 C 0.5001(6) 0.8241(4) 0.1452(5)
H5_5 H 0.5264 0.7973 0.1023
H6_5 H 0.5300 0.8281 0.2034
C6_5 C 0.1064(12) 0.7101(9) 0.1041(9)
H7_5 H 0.0895 0.7312 0.0497
H8_5 H 0.0701 0.7143 0.1539
H9_5 H 0.0916 0.6443 0.0970
C7_5 C 0.2420(11) 0.8801(8) 0.1242(8)
H10_5 H 0.2216 0.8972 0.0696
H11_5 H 0.3112 0.9178 0.1292
H12_5 H 0.2129 0.8928 0.1753
C8_5 C 0.5274(7) 0.9249(5) 0.1154(4)
H13_5 H 0.6151 0.9972 0.2179
C10_5 C 0.4911(6) 0.9418(4) 0.0363(5)
H14_5 H 0.4475 0.8903 0.0007
H17_5 H 0.368(6) 0.756(5) 0.102(3)
N3_5 N 0.4691(7) 0.5807(6) 0.2258(3)
Br1_6 Br 0.73356(7) 0.20879(9) 0.35397(6)
N1_6 N 0.6376(4) 0.3947(5) 0.3199(4)
O1_6 O 0.6927(3) 0.3639(4) 0.4808(3)
C1_6 C 0.5629(5) 0.3502(7) 0.3905(4)
H1_6 H 0.5227 0.3807 0.3913
C2_6 C 0.5000(5) 0.2417(8) 0.3753(5)
H2_6 H 0.4570 0.2142 0.4267
H3_6 H 0.5417 0.2136 0.3741
C3_6 C 0.4383(6) 0.2107(8) 0.2885(6)
H4_6 H 0.4819 0.2451 0.2381
C4_6 C 0.6170(4) 0.3681(6) 0.4811(4)
C5_6 C 0.6760(5) 0.5001(6) 0.3118(5)
H5_6 H 0.7291 0.5264 0.2689
H6_6 H 0.7019 0.5300 0.3700
C6_6 C 0.3963(8) 0.1064(12) 0.2707(9)
H7_6 H 0.3583 0.0895 0.2163
H8_6 H 0.3558 0.0701 0.3205
H9_6 H 0.4473 0.0916 0.2636
C7_6 C 0.3619(8) 0.2420(11) 0.2908(8)
H10_6 H 0.3244 0.2216 0.2362
H11_6 H 0.3934 0.3112 0.2958
H12_6 H 0.3201 0.2129 0.3419
C8_6 C 0.6025(5) 0.5274(7) 0.2820(4)
C9_6 C 0.5845(5) 0.5891(6) 0.3308(4)
H13_6 H 0.6179 0.6151 0.3845
C10_6 C 0.5493(5) 0.4911(6) 0.2029(5)
H14_6 H 0.5572 0.4475 0.1673
C11_6 C 0.4862(5) 0.5197(7) 0.1781(5)
H15_5 H 0.4523 0.4954 0.1244
C12_6 C 0.5188(5) 0.6132(7) 0.3022(5)
H16_5 H 0.5077 0.6546 0.3380
H17_6 H 0.612(4) 0.368(6) 0.268(3)
H16_6 H 0.1469 0.4923 0.0047
H15_6 H 0.4954 0.0431 0.9578
loop_
_geom_bond_atom_site_label_1
_geom_bond_atom_site_label_2
_geom_bond_site_symmetry_1
_geom_bond_site_symmetry_2
Zn1 Br1 1_555 1_555
N1 Zn1 1_555 1_555
O1 Zn1 1_555 1_555
C1 N1 1_555 1_555
H1 C1 1_555 1_555
C2 C1 1_555 1_555
H2 C2 1_555 1_555
H3 C2 1_555 1_555
C3 C2 1_555 1_555
H4 C3 1_555 1_555
C4 O1 1_555 1_555
C5 N1 1_555 1_555
H5 C5 1_555 1_555
H6 C5 1_555 1_555
C6 C3 1_555 1_555
H7 C6 1_555 1_555
H8 C6 1_555 1_555
H9 C6 1_555 1_555
C7 C3 1_555 1_555
H10 C7 1_555 1_555
H11 C7 1_555 1_555
H12 C7 1_555 1_555
O2 C4 1_555 1_555
C8 C5 1_555 1_555
C10 C8 1_555 1_555
H14 C10 1_555 1_555
H17 N1 1_555 1_555
Zn2 O2 1_555 1_555
O3 Zn1 1_555 1_555
N3 Zn1 1_555 1_555
C1 C4 1_555 1_555
H15 C11 1_555 1_555
C12 C9 1_555 1_555
H16 C12 1_555 1_555
N2 C11 1_555 1_555
Zn3 N2 1_555 1_555
C12 N2 1_555 1_555
Zn1_2 Br1_2 1_555 1_555
N1_2 Zn1_2 1_555 1_555
O1_2 Zn1_2 1_555 1_555
C1_2 N1_2 1_555 1_555
H1_2 C1_2 1_555 1_555
C2_2 C1_2 1_555 1_555
H2_2 C2_2 1_555 1_555
H3_2 C2_2 1_555 1_555
C3_2 C2_2 1_555 1_555
H4_2 C3_2 1_555 1_555
C4_2 O1_2 1_555 1_555
C5_2 N1_2 1_555 1_555
H5_2 C5_2 1_555 1_555
H6_2 C5_2 1_555 1_555
C6_2 C3_2 1_555 1_555
H7_2 C6_2 1_555 1_555
H8_2 C6_2 1_555 1_555
H9_2 C6_2 1_555 1_555
C7_2 C3_2 1_555 1_555
H10_2 C7_2 1_555 1_555
H11_2 C7_2 1_555 1_555
H12_2 C7_2 1_555 1_555
O2_2 C4_2 1_555 1_555
C8_2 C5_2 1_555 1_555
C10_2 C8_2 1_555 1_555
H14_2 C10_2 1_555 1_555
H17_2 N1_2 1_555 1_555
O3_2 Zn1_2 1_555 1_555
N3_2 Zn1_2 1_555 1_555
C1_2 C4_2 1_555 1_555
H15_2 C11_2 1_555 1_555
C12_2 C9_2 1_555 1_555
H16_2 C12_2 1_555 1_555
N3 C11_2 1_555 1_555
C12_2 N3 1_555 1_555
Zn2_3 O2_3 1_555 1_555
Zn2 Br1_3 1_555 1_555
N1_3 Zn2 1_555 1_555
O1_3 Zn2 1_555 1_555
C1_3 N1_3 1_555 1_555
H1_3 C1_3 1_555 1_555
C2_3 C1_3 1_555 1_555
H2_3 C2_3 1_555 1_555
H3_3 C2_3 1_555 1_555
C3_3 C2_3 1_555 1_555
H4_3 C3_3 1_555 1_555
C4_3 O1_3 1_555 1_555
C5_3 N1_3 1_555 1_555
H5_3 C5_3 1_555 1_555
H6_3 C5_3 1_555 1_555
C6_3 C3_3 1_555 1_555
H7_3 C6_3 1_555 1_555
H8_3 C6_3 1_555 1_555
H9_3 C6_3 1_555 1_555
C7_3 C3_3 1_555 1_555
H10_3 C7_3 1_555 1_555
H11_3 C7_3 1_555 1_555
H12_3 C7_3 1_555 1_555
C8_3 C5_3 1_555 1_555
C9_3 C8_3 1_555 1_555
H13_3 C9_3 1_555 1_555
C10_3 C8_3 1_555 1_555
H14_3 C10_3 1_555 1_555
C11_3 C10_3 1_555 1_555
H15_3 C11_3 1_555 1_555
C12_3 C9_3 1_555 1_555
H16_3 C12_3 1_555 1_555
N3_2 C11_3 1_555 1_555
H17_3 N1_3 1_555 1_555
N3_3 Zn2 1_555 1_555
C1_3 C4_3 1_555 1_555
C12_3 N3_2 1_555 1_555
H15_4 C11_4 1_555 1_555
C12_4 C9_4 1_555 1_555
N3_3 C11_4 1_555 1_555
C12_4 N3_3 1_555 1_555
Zn2_2 Br1_4 1_555 1_555
O1_4 Zn2_2 1_555 1_555
H1_4 C1_4 1_555 1_555
C2_4 C1_4 1_555 1_555
H2_4 C2_4 1_555 1_555
H3_4 C2_4 1_555 1_555
C4_4 O1_4 1_555 1_555
O2_4 C4_4 1_555 1_555
Zn3 O2_4 1_555 1_555
N3_4 Zn2_2 1_555 1_555
C1_4 C4_4 1_555 1_555
H4_4 C3_4 1_555 1_555
C5_4 N1_4 1_555 1_555
H5_4 C5_4 1_555 1_555
C6_4 C3_4 1_555 1_555
H7_4 C6_4 1_555 1_555
H8_4 C6_4 1_555 1_555
H9_4 C6_4 1_555 1_555
C7_4 C3_4 1_555 1_555
H10_4 C7_4 1_555 1_555
H11_4 C7_4 1_555 1_555
C8_4 C5_4 1_555 1_555
C10_4 C8_4 1_555 1_555
H14_4 C10_4 1_555 1_555
H17_4 N1_4 1_555 1_555
C12_5 C9_5 1_555 1_555
H16_4 C12_5 1_555 1_555
N3_4 C11_5 1_555 1_555
C12_5 N3_4 1_555 1_555
Zn2_3 Br1_5 1_555 1_555
N1_5 Zn2_3 1_555 1_555
O1_5 Zn2_3 1_555 1_555
C1_5 N1_5 1_555 1_555
H1_5 C1_5 1_555 1_555
C2_5 C1_5 1_555 1_555
H2_5 C2_5 1_555 1_555
H3_5 C2_5 1_555 1_555
C3_5 C2_5 1_555 1_555
H4_5 C3_5 1_555 1_555
C4_5 O1_5 1_555 1_555
C5_5 N1_5 1_555 1_555
H5_5 C5_5 1_555 1_555
H6_5 C5_5 1_555 1_555
C6_5 C3_5 1_555 1_555
H7_5 C6_5 1_555 1_555
H8_5 C6_5 1_555 1_555
H9_5 C6_5 1_555 1_555
C7_5 C3_5 1_555 1_555
H10_5 C7_5 1_555 1_555
H11_5 C7_5 1_555 1_555
H12_5 C7_5 1_555 1_555
O3 C4_5 1_555 1_555
C8_5 C5_5 1_555 1_555
C10_5 C8_5 1_555 1_555
H14_5 C10_5 1_555 1_555
H17_5 N1_5 1_555 1_555
N3_5 Zn2_3 1_555 1_555
C1_5 C4_5 1_555 1_555
Zn3 Br1_6 1_555 1_555
N1_6 Zn3 1_555 1_555
O1_6 Zn3 1_555 1_555
C1_6 N1_6 1_555 1_555
H1_6 C1_6 1_555 1_555
C2_6 C1_6 1_555 1_555
H2_6 C2_6 1_555 1_555
H3_6 C2_6 1_555 1_555
C3_6 C2_6 1_555 1_555
H4_6 C3_6 1_555 1_555
C4_6 O1_6 1_555 1_555
C5_6 N1_6 1_555 1_555
H5_6 C5_6 1_555 1_555
H6_6 C5_6 1_555 1_555
C6_6 C3_6 1_555 1_555
H7_6 C6_6 1_555 1_555
H8_6 C6_6 1_555 1_555
H9_6 C6_6 1_555 1_555
C7_6 C3_6 1_555 1_555
H10_6 C7_6 1_555 1_555
H11_6 C7_6 1_555 1_555
H12_6 C7_6 1_555 1_555
O3_2 C4_6 1_555 1_555
C8_6 C5_6 1_555 1_555
C9_6 C8_6 1_555 1_555
H13_6 C9_6 1_555 1_555
C10_6 C8_6 1_555 1_555
H14_6 C10_6 1_555 1_555
C11_6 C10_6 1_555 1_555
H15_5 C11_6 1_555 1_555
C12_6 C9_6 1_555 1_555
H16_5 C12_6 1_555 1_555
N3_5 C11_6 1_555 1_555
H17_6 N1_6 1_555 1_555
C1_6 C4_6 1_555 1_555
C12_6 N3_5 1_555 1_555

#END
