
###############################################################################
#
# This file contains modified crystal structure data generated from the
# MOF subset of the Cambridge Structural Database (CSD) v543 
# hosted by the Cambridge Crystallographic Data Centre (CCDC).
#
# This work is licensed under the Creative Commons
# Attribution-NonCommercial-ShareAlike 4.0 International License.
# To view a copy of this license, visit
# http://creativecommons.org/licenses/by-nc-sa/4.0/
# or send a letter to
# Creative Commons, PO Box 1866, Mountain View, CA 94042, USA.
#
# CIF created using the CSD Python API on 29 September 2022
# The structure has been converted into the P1 space group
# The structure has a 3D framework
# The original CSD entry APUZUJ is in the rhombohedral crystal system
# The framework has been calculated to contain at least 10.0% void space
# The void calculation uses a probe of radius 1.32A, grid spacing 0.4
#
###############################################################################

data_APUZUJ
_chemical_formula_moiety         '(C486 H288 Co18 N72 O106)n'
_symmetry_cell_setting           triclinic
_symmetry_space_group_name_H-M   'P 1'
_symmetry_Int_Tables_number      1
_space_group_name_Hall           'P 1'
loop_
_symmetry_equiv_pos_site_id
_symmetry_equiv_pos_as_xyz
1 x,y,z
_cell_length_a                   26.658(8)
_cell_length_b                   26.658(8)
_cell_length_c                   20.810(9)
_cell_angle_alpha                90
_cell_angle_beta                 90
_cell_angle_gamma                120
_cell_volume                     12807.3
loop_
_atom_site_label
_atom_site_type_symbol
_atom_site_fract_x
_atom_site_fract_y
_atom_site_fract_z
H26 H 0.135790 0.001792 0.222531
N11 N 0.12789(9) 0.24063(6) 0.23925(8)
N12 N 0.05922(10) 0.02759(7) 0.24477(10)
C46 C 0.07095(13) 0.21202(9) 0.22834(13)
H29 H 0.052741 0.233183 0.219080
C47 C 0.03786(13) 0.15234(9) 0.23019(15)
C48 C 0.06413(11) 0.12015(8) 0.24350(11)
C49 C 0.12311(12) 0.14925(9) 0.25525(12)
H31 H 0.142321 0.129070 0.264566
C50 C 0.15277(13) 0.20913(9) 0.25280(12)
H32 H 0.192349 0.228564 0.261066
C51 C 0.03007(11) 0.05616(8) 0.24450(11)
Co5 Co 0.17748(3) 0.33279(2) 0.23649(2)
N9 N 0.11274(7) 0.87211(9) 0.23925(8)
C40 C 0.14107(9) 0.92905(13) 0.22834(13)
H25 H 0.180442 0.947259 0.219080
C41 C 0.11448(9) 0.96214(13) 0.23019(15)
C42 C 0.05602(8) 0.93587(11) 0.24350(11)
C43 C 0.02614(8) 0.87689(12) 0.25525(12)
C44 C 0.05636(9) 0.84723(13) 0.25280(12)
H28 H 0.036215 0.807651 0.261066
C45 C 0.02609(8) 0.96993(11) 0.24450(11)
Co4 Co 0.15531(2) 0.82252(3) 0.23649(2)
N4 N 0.97241(7) 0.03163(7) 0.24477(10)
H15 H 0.870930 0.013251 0.264566
H30 H 0.998208 0.133998 0.222531
Co11 Co 0.48919(3) 0.00054(2) 0.09684(2)
O4 O 0.55896(6) 0.00483(6) 0.98048(6)
Co1 Co 0.66721(2) 0.84469(2) 0.23649(2)
O1 O 0.66439(7) 0.83601(7) 0.11944(7)
O2 O 0.66844(7) 0.90638(6) 0.17651(6)
O3 O 0.56203(6) 0.99548(5) 0.08569(6)
N1 N 0.57327(7) 0.79782(7) 0.23566(8)
N2 N 0.35968(7) 0.72570(7) 0.24911(9)
N3 N 0.75937(6) 0.88726(7) 0.23925(8)
C1 C 0.65680(8) 0.91178(8) 0.06503(8)
C2 C 0.62739(8) 0.94190(8) 0.07342(8)
H2 H 0.615212 0.945378 0.114214
C3 C 0.61610(7) 0.96687(7) 0.02104(8)
C6 C 0.67626(8) 0.90784(9) 0.00401(9)
C13 C 0.66427(8) 0.88274(8) 0.12298(9)
C14 C 0.57682(7) 0.99142(7) 0.02930(8)
C16 C 0.54227(9) 0.82156(9) 0.25611(11)
H9 H 0.561899 0.860547 0.267330
C17 C 0.48280(9) 0.79132(9) 0.26143(11)
H10 H 0.462797 0.809639 0.275156
C18 C 0.45346(8) 0.73289(8) 0.24582(10)
C19 C 0.48513(9) 0.70787(9) 0.22523(12)
H11 H 0.466751 0.668623 0.215308
C20 C 0.54414(8) 0.74174(9) 0.21961(11)
H12 H 0.564900 0.724868 0.203859
C21 C 0.38950(8) 0.69767(8) 0.24921(10)
C22 C 0.78798(9) 0.85893(9) 0.22834(13)
H13 H 0.766817 0.819558 0.219080
C23 C 0.84766(9) 0.88552(9) 0.23019(15)
H14 H 0.866002 0.864210 0.222531
C24 C 0.87985(8) 0.94398(8) 0.24350(11)
C25 C 0.85075(9) 0.97386(8) 0.25525(12)
C26 C 0.79087(9) 0.94364(9) 0.25280(12)
H16 H 0.771436 0.963785 0.261066
C27 C 0.94384(8) 0.97391(8) 0.24450(11)
N5 N 0.20218(7) 0.77545(10) 0.23566(8)
N6 N 0.27430(7) 0.63398(10) 0.24911(9)
C28 C 0.17844(9) 0.72071(13) 0.25611(11)
H17 H 0.139453 0.701352 0.267330
C29 C 0.20868(9) 0.69148(13) 0.26143(11)
H18 H 0.190361 0.653158 0.275156
C30 C 0.26711(8) 0.72057(11) 0.24582(10)
C31 C 0.29213(9) 0.77726(13) 0.22523(12)
H19 H 0.331377 0.798128 0.215308
C32 C 0.25826(9) 0.80240(12) 0.21961(11)
H20 H 0.275132 0.840032 0.203859
C33 C 0.30233(8) 0.69183(11) 0.24921(10)
N7 N 0.22455(10) 0.42673(7) 0.23566(8)
N8 N 0.36602(10) 0.64032(7) 0.24911(9)
C34 C 0.27929(13) 0.45773(9) 0.25611(11)
H21 H 0.298648 0.438101 0.267330
C35 C 0.30852(13) 0.51720(9) 0.26143(11)
H22 H 0.346842 0.537203 0.275156
C36 C 0.27943(11) 0.54654(8) 0.24582(10)
C37 C 0.22274(13) 0.51487(9) 0.22523(12)
H23 H 0.201872 0.533249 0.215308
C38 C 0.19760(12) 0.45586(8) 0.21961(11)
H24 H 0.159968 0.435100 0.203859
C39 C 0.30817(11) 0.61050(8) 0.24921(10)
N10 N 0.96837(7) 0.94078(10) 0.24477(10)
H27 H 0.986749 0.857679 0.264566
O7 O 0.16399(7) 0.82838(10) 0.11944(7)
O8 O 0.09362(6) 0.76206(9) 0.17651(6)
O9 O 0.00452(5) 0.56655(8) 0.08569(6)
C52 C 0.08822(8) 0.74502(11) 0.06503(8)
C53 C 0.05810(8) 0.68549(11) 0.07342(8)
H34 H 0.054622 0.669834 0.114214
C54 C 0.03313(7) 0.64923(10) 0.02104(8)
C57 C 0.09216(9) 0.76842(12) 0.00401(9)
C64 C 0.11726(8) 0.78153(11) 0.12298(9)
C65 C 0.00858(7) 0.58540(10) 0.02930(8)
O13 O 0.17162(10) 0.33561(7) 0.11944(7)
O14 O 0.23794(9) 0.33156(7) 0.17651(6)
O15 O 0.43345(8) 0.43797(6) 0.08569(6)
C67 C 0.25498(11) 0.34320(8) 0.06503(8)
C68 C 0.31451(11) 0.37261(8) 0.07342(8)
H42 H 0.330166 0.384788 0.114214
C69 C 0.35077(10) 0.38390(7) 0.02104(8)
C72 C 0.23158(12) 0.32374(8) 0.00401(9)
C79 C 0.21847(11) 0.33573(8) 0.12298(9)
C80 C 0.41460(10) 0.42318(7) 0.02930(8)
Co10 Co 0.51136(2) 0.51081(3) 0.09684(2)
O19 O 0.10464(6) 0.33785(5) 0.24764(6)
O20 O 0.66215(5) 0.76678(8) 0.24764(6)
O21 O 0.23322(8) 0.89536(6) 0.24764(6)
O22 O 0.22563(6) 0.33816(6) 0.31381(6)
O23 O 0.66184(6) 0.88746(8) 0.31381(6)
O24 O 0.11254(8) 0.77437(6) 0.31381(6)
O5 O 0.77207(10) 0.89499(11) 0.68336(10)
O6 O 0.69397(11) 0.89802(10) 0.65085(8)
H1 H 0.679928 0.871853 0.610673
C4 C 0.63724(8) 0.96437(8) 0.96052(8)
H3 H 0.631163 0.982792 0.925933
C5 C 0.66742(8) 0.93460(8) 0.95108(9)
H4 H 0.695436 0.887046 0.998551
C7 C 0.68578(9) 0.92845(9) 0.88515(9)
C8 C 0.65625(12) 0.93145(12) 0.83151(10)
H5 H 0.625828 0.938704 0.836986
C9 C 0.67139(13) 0.92380(12) 0.76989(11)
H6 H 0.651210 0.926218 0.734684
C10 C 0.71641(11) 0.91258(9) 0.76051(10)
C11 C 0.74606(10) 0.90945(11) 0.81354(11)
H7 H 0.776264 0.901881 0.807928
C12 C 0.73111(10) 0.91751(11) 0.87507(11)
H8 H 0.751711 0.915570 0.910127
C15 C 0.73194(13) 0.90151(11) 0.69494(12)
O11 O 0.10501(11) 0.87708(15) 0.68336(10)
O12 O 0.10198(10) 0.79595(15) 0.65085(8)
H33 H 0.128147 0.808075 0.610673
C55 C 0.03563(8) 0.67287(11) 0.96052(8)
H35 H 0.017208 0.648371 0.925933
C56 C 0.06540(8) 0.73282(11) 0.95108(9)
H36 H 0.112954 0.808390 0.998551
C58 C 0.07155(9) 0.75733(13) 0.88515(9)
C59 C 0.06855(12) 0.72480(17) 0.83151(10)
H37 H 0.061296 0.687124 0.836986
C60 C 0.07620(12) 0.74759(18) 0.76989(11)
H38 H 0.073782 0.724992 0.734684
C61 C 0.08742(9) 0.80383(14) 0.76051(10)
C62 C 0.09055(11) 0.83661(15) 0.81354(11)
H39 H 0.098119 0.874383 0.807928
C63 C 0.08249(11) 0.81360(15) 0.87507(11)
H40 H 0.084430 0.836141 0.910127
C66 C 0.09849(11) 0.83043(17) 0.69494(12)
O16 O 0.44587(8) 0.44104(6) 0.98048(6)
O17 O 0.12292(15) 0.22793(10) 0.68336(10)
O18 O 0.20405(15) 0.30603(11) 0.65085(8)
H41 H 0.191925 0.320072 0.610673
C70 C 0.32713(11) 0.36276(8) 0.96052(8)
H43 H 0.351629 0.368837 0.925933
C71 C 0.26718(11) 0.33258(8) 0.95108(9)
H44 H 0.191610 0.304564 0.998551
C73 C 0.24267(13) 0.31422(9) 0.88515(9)
C74 C 0.27520(17) 0.34375(12) 0.83151(10)
H45 H 0.312876 0.374172 0.836986
C75 C 0.25241(18) 0.32861(13) 0.76989(11)
H46 H 0.275008 0.348790 0.734684
C76 C 0.19617(14) 0.28359(11) 0.76051(10)
C77 C 0.16339(15) 0.25394(10) 0.81354(11)
H47 H 0.125617 0.223736 0.807928
C78 C 0.18640(15) 0.26889(10) 0.87507(11)
H48 H 0.163859 0.248289 0.910127
C81 C 0.16957(17) 0.26806(13) 0.69494(12)
Co6 Co 0.00054(2) 0.51136(2) 0.90316(2)
Co7 Co 0.48864(2) 0.48919(3) 0.90316(2)
Co8 Co 0.51081(3) 0.99946(2) 0.90316(2)
Co9 Co 0.99946(2) 0.48864(2) 0.09684(2)
O10 O 0.99517(6) 0.55413(8) 0.98048(6)
Co1_2 Co 0.33388(2) 0.17802(2) 0.56982(2)
O1_2 O 0.33106(7) 0.16934(7) 0.45277(7)
O2_2 O 0.33511(7) 0.23971(6) 0.50984(6)
O3_2 O 0.22870(6) 0.32881(5) 0.41902(6)
O5_2 O 0.43874(10) 0.22832(11) 0.01669(10)
N1_2 N 0.23994(7) 0.13115(7) 0.56899(8)
N2_2 N 0.02635(7) 0.05903(7) 0.58244(9)
N3_2 N 0.42604(6) 0.22059(7) 0.57258(8)
N4_2 N 0.63908(7) 0.36496(7) 0.57810(10)
C1_2 C 0.32347(8) 0.24511(8) 0.39836(8)
C2_2 C 0.29406(8) 0.27523(8) 0.40675(8)
H2_2 H 0.281879 0.278711 0.447547
C3_2 C 0.28277(7) 0.30020(7) 0.35437(8)
C4_2 C 0.30391(8) 0.29770(8) 0.29385(8)
H3_2 H 0.297830 0.316125 0.259266
C5_2 C 0.33409(8) 0.26793(8) 0.28441(9)
C6_2 C 0.34293(8) 0.24117(9) 0.33734(9)
H4_2 H 0.362103 0.220379 0.331884
C7_2 C 0.35245(9) 0.26178(9) 0.21848(9)
C8_2 C 0.32292(12) 0.26478(12) 0.16484(10)
H5_2 H 0.292495 0.272037 0.170319
C9_2 C 0.33806(13) 0.25713(12) 0.10322(11)
H6_2 H 0.317877 0.259551 0.068017
C10_2 C 0.38308(11) 0.24591(9) 0.09384(10)
C11_2 C 0.41273(10) 0.24278(11) 0.14687(11)
H7_2 H 0.442931 0.235214 0.141261
C12_2 C 0.39778(10) 0.25084(11) 0.20840(11)
H8_2 H 0.418378 0.248903 0.243460
C13_2 C 0.33094(8) 0.21607(8) 0.45631(9)
C14_2 C 0.24349(7) 0.32475(7) 0.36263(8)
C15_2 C 0.39861(13) 0.23484(11) 0.02827(12)
C16_2 C 0.20894(9) 0.15489(9) 0.58944(11)
H9_2 H 0.228566 0.193880 0.600663
C17_2 C 0.14947(9) 0.12465(9) 0.59476(11)
H10_2 H 0.129464 0.142972 0.608489
C18_2 C 0.12013(8) 0.06622(8) 0.57915(10)
C19_2 C 0.15180(9) 0.04120(9) 0.55856(12)
H11_2 H 0.133418 0.001956 0.548641
C20_2 C 0.21081(8) 0.07507(9) 0.55294(11)
H12_2 H 0.231567 0.058201 0.537192
C21_2 C 0.05617(8) 0.03100(8) 0.58254(10)
C22_2 C 0.45465(9) 0.19226(9) 0.56167(13)
H13_2 H 0.433484 0.152891 0.552413
C23_2 C 0.51433(9) 0.21885(9) 0.56352(15)
H14_2 H 0.532669 0.197543 0.555864
C24_2 C 0.54652(8) 0.27731(8) 0.57683(11)
C25_2 C 0.51742(9) 0.30719(8) 0.58858(12)
H15_2 H 0.537597 0.346584 0.597899
C26_2 C 0.45754(9) 0.27697(9) 0.58613(12)
H16_2 H 0.438103 0.297118 0.594399
C27_2 C 0.61051(8) 0.30724(8) 0.57783(11)
N9_2 N 0.77941(7) 0.20544(9) 0.57258(8)
N10_2 N 0.63504(7) 0.27411(10) 0.57810(10)
C40_2 C 0.80774(9) 0.26238(13) 0.56167(13)
H25_2 H 0.847109 0.280592 0.552413
C41_2 C 0.78115(9) 0.29547(13) 0.56352(15)
H26_2 H 0.802457 0.335125 0.555864
C42_2 C 0.72269(8) 0.26920(11) 0.57683(11)
C43_2 C 0.69281(8) 0.21022(12) 0.58858(12)
H27_2 H 0.653416 0.191012 0.597899
C44_2 C 0.72303(9) 0.18056(13) 0.58613(12)
H28_2 H 0.702882 0.140984 0.594399
C45_2 C 0.69276(8) 0.30326(11) 0.57783(11)
N11_2 N 0.79456(9) 0.57396(6) 0.57258(8)
N12_2 N 0.72589(10) 0.36092(7) 0.57810(10)
C46_2 C 0.73762(13) 0.54535(9) 0.56167(13)
H29_2 H 0.719408 0.566516 0.552413
C47_2 C 0.70453(13) 0.48567(9) 0.56352(15)
H30_2 H 0.664875 0.467331 0.555864
C48_2 C 0.73080(11) 0.45348(8) 0.57683(11)
C49_2 C 0.78978(12) 0.48258(9) 0.58858(12)
H31_2 H 0.808988 0.462403 0.597899
C50_2 C 0.81944(13) 0.54246(9) 0.58613(12)
H32_2 H 0.859016 0.561897 0.594399
C51_2 C 0.69674(11) 0.38949(8) 0.57783(11)
Co4_2 Co 0.82198(2) 0.15585(3) 0.56982(2)
Co5_2 Co 0.84415(3) 0.66612(2) 0.56982(2)
Co11_2 Co 0.15585(3) 0.33388(2) 0.43018(2)
O20_2 O 0.32881(5) 0.10012(8) 0.58098(6)
O23_2 O 0.32850(6) 0.22080(8) 0.64715(6)
N8_2 N 0.03269(10) 0.97365(7) 0.58244(9)
H22_2 H 0.013509 0.870536 0.608489
O15_2 O 0.10012(8) 0.77130(6) 0.41902(6)
C69_2 C 0.01744(10) 0.71723(7) 0.35437(8)
H43_2 H 0.018296 0.702170 0.259266
C80_2 C 0.08127(10) 0.75651(7) 0.36263(8)
Co10_2 Co 0.17802(2) 0.84415(3) 0.43018(2)
N5_2 N 0.86885(7) 0.10878(10) 0.56899(8)
C28_2 C 0.84511(9) 0.05404(13) 0.58944(11)
H17_2 H 0.806120 0.034685 0.600663
C29_2 C 0.87535(9) 0.02481(13) 0.59476(11)
C30_2 C 0.93378(8) 0.05390(11) 0.57915(10)
C31_2 C 0.95880(9) 0.11059(13) 0.55856(12)
H19_2 H 0.998044 0.131461 0.548641
C32_2 C 0.92493(9) 0.13573(12) 0.55294(11)
H20_2 H 0.941799 0.173365 0.537192
C33_2 C 0.96900(8) 0.02516(11) 0.58254(10)
O7_2 O 0.83066(7) 0.16171(10) 0.45277(7)
O8_2 O 0.76029(6) 0.09539(9) 0.50984(6)
O11_2 O 0.77168(11) 0.21041(15) 0.01669(10)
C52_2 C 0.75489(8) 0.07835(11) 0.39836(8)
C53_2 C 0.72477(8) 0.01882(11) 0.40675(8)
H34_2 H 0.721289 0.003167 0.447547
C55_2 C 0.70230(8) 0.00620(11) 0.29385(8)
C56_2 C 0.73207(8) 0.06615(11) 0.28441(9)
C57_2 C 0.75883(9) 0.10175(12) 0.33734(9)
H36_2 H 0.779621 0.141723 0.331884
C58_2 C 0.73822(9) 0.09066(13) 0.21848(9)
C59_2 C 0.73522(12) 0.05813(17) 0.16484(10)
H37_2 H 0.727963 0.020457 0.170319
C60_2 C 0.74287(12) 0.08092(18) 0.10322(11)
H38_2 H 0.740449 0.058325 0.068017
C61_2 C 0.75409(9) 0.13716(14) 0.09384(10)
C62_2 C 0.75722(11) 0.16994(15) 0.14687(11)
H39_2 H 0.764786 0.207716 0.141261
C63_2 C 0.74916(11) 0.14693(15) 0.20840(11)
H40_2 H 0.751097 0.169474 0.243460
C64_2 C 0.78393(8) 0.11486(11) 0.45631(9)
C66_2 C 0.76516(11) 0.16376(17) 0.02827(12)
O21_2 O 0.89988(8) 0.22870(6) 0.58098(6)
O24_2 O 0.77920(8) 0.10771(6) 0.64715(6)
N6_2 N 0.94097(7) 0.96731(10) 0.58244(9)
H18_2 H 0.857028 0.986491 0.608489
N7_2 N 0.89122(10) 0.76006(7) 0.56899(8)
C34_2 C 0.94596(13) 0.79106(9) 0.58944(11)
H21_2 H 0.965315 0.771434 0.600663
C35_2 C 0.97519(13) 0.85053(9) 0.59476(11)
C36_2 C 0.94610(11) 0.87987(8) 0.57915(10)
C37_2 C 0.88941(13) 0.84820(9) 0.55856(12)
H23_2 H 0.868539 0.866582 0.548641
C38_2 C 0.86427(12) 0.78919(8) 0.55294(11)
H24_2 H 0.826635 0.768433 0.537192
C39_2 C 0.97484(11) 0.94383(8) 0.58254(10)
O9_2 O 0.67119(5) 0.89988(8) 0.41902(6)
C54_2 C 0.69980(7) 0.98256(10) 0.35437(8)
H35_2 H 0.683875 0.981704 0.259266
C65_2 C 0.67525(7) 0.91873(10) 0.36263(8)
O13_2 O 0.83829(10) 0.66894(7) 0.45277(7)
O14_2 O 0.90461(9) 0.66489(7) 0.50984(6)
O17_2 O 0.78959(15) 0.56126(10) 0.01669(10)
C67_2 C 0.92165(11) 0.67653(8) 0.39836(8)
C68_2 C 0.98118(11) 0.70594(8) 0.40675(8)
H42_2 H 0.996833 0.718121 0.447547
C70_2 C 0.99380(11) 0.69609(8) 0.29385(8)
C71_2 C 0.93385(11) 0.66591(8) 0.28441(9)
C72_2 C 0.89825(12) 0.65707(8) 0.33734(9)
H44_2 H 0.858277 0.637897 0.331884
C73_2 C 0.90934(13) 0.64755(9) 0.21848(9)
C74_2 C 0.94187(17) 0.67708(12) 0.16484(10)
H45_2 H 0.979543 0.707505 0.170319
C75_2 C 0.91908(18) 0.66194(13) 0.10322(11)
H46_2 H 0.941675 0.682123 0.068017
C76_2 C 0.86284(14) 0.61692(11) 0.09384(10)
C77_2 C 0.83006(15) 0.58727(10) 0.14687(11)
H47_2 H 0.792284 0.557069 0.141261
C78_2 C 0.85307(15) 0.60222(10) 0.20840(11)
H48_2 H 0.830526 0.581622 0.243460
C79_2 C 0.88514(11) 0.66906(8) 0.45631(9)
C81_2 C 0.83624(17) 0.60139(13) 0.02827(12)
Co9_2 Co 0.66612(2) 0.82198(2) 0.43018(2)
O19_2 O 0.77130(6) 0.67119(5) 0.58098(6)
O22_2 O 0.89229(6) 0.67150(6) 0.64715(6)
O2_3 O 0.00177(7) 0.57305(6) 0.84318(6)
O5_3 O 0.10540(10) 0.56166(11) 0.35003(10)
O6_2 O 0.02730(11) 0.56469(10) 0.31752(8)
H1_2 H 0.013261 0.538520 0.277340
N3_3 N 0.09270(6) 0.55393(7) 0.90592(8)
N4_3 N 0.30574(7) 0.69830(7) 0.91144(10)
C5_3 C 0.00075(8) 0.60127(8) 0.61775(9)
C6_3 C 0.00959(8) 0.57451(9) 0.67068(9)
H4_3 H 0.028769 0.553713 0.665218
C7_3 C 0.01911(9) 0.59512(9) 0.55182(9)
C9_3 C 0.00472(13) 0.59047(12) 0.43656(11)
C10_3 C 0.04974(11) 0.57925(9) 0.42718(10)
C11_3 C 0.07939(10) 0.57612(11) 0.48021(11)
H7_3 H 0.109597 0.568548 0.474595
C12_3 C 0.06444(10) 0.58418(11) 0.54174(11)
H8_3 H 0.085044 0.582237 0.576794
C15_3 C 0.06527(13) 0.56818(11) 0.36161(12)
C22_3 C 0.12131(9) 0.52560(9) 0.89501(13)
H13_3 H 0.100150 0.486225 0.885747
C23_3 C 0.18099(9) 0.55219(9) 0.89686(15)
H14_3 H 0.199335 0.530877 0.889198
C24_3 C 0.21318(8) 0.61065(8) 0.91017(11)
C25_3 C 0.18408(9) 0.64053(8) 0.92192(12)
H15_3 H 0.204263 0.679918 0.931233
C26_3 C 0.12420(9) 0.61031(9) 0.91947(12)
H16_3 H 0.104769 0.630452 0.927733
C27_3 C 0.27717(8) 0.64058(8) 0.91117(11)
N9_3 N 0.44607(7) 0.53878(9) 0.90592(8)
N10_3 N 0.30170(7) 0.60745(10) 0.91144(10)
C40_3 C 0.47440(9) 0.59572(13) 0.89501(13)
H25_3 H 0.513775 0.613926 0.885747
C41_3 C 0.44781(9) 0.62881(13) 0.89686(15)
H26_3 H 0.469123 0.668459 0.889198
C42_3 C 0.38935(8) 0.60254(11) 0.91017(11)
C43_3 C 0.35947(8) 0.54356(12) 0.92192(12)
H27_3 H 0.320082 0.524346 0.931233
C44_3 C 0.38969(9) 0.51390(13) 0.91947(12)
H28_3 H 0.369548 0.474318 0.927733
C45_3 C 0.35942(8) 0.63660(11) 0.91117(11)
N11_3 N 0.46122(9) 0.90730(6) 0.90592(8)
N12_3 N 0.39255(10) 0.69426(7) 0.91144(10)
C46_3 C 0.40428(13) 0.87869(9) 0.89501(13)
H29_3 H 0.386074 0.899850 0.885747
C47_3 C 0.37119(13) 0.81901(9) 0.89686(15)
H30_3 H 0.331541 0.800665 0.889198
C48_3 C 0.39746(11) 0.78682(8) 0.91017(11)
C49_3 C 0.45644(12) 0.81592(9) 0.92192(12)
H31_3 H 0.475654 0.795737 0.931233
C50_3 C 0.48610(13) 0.87580(9) 0.91947(12)
H32_3 H 0.525682 0.895231 0.927733
C51_3 C 0.36340(11) 0.72283(8) 0.91117(11)
O1_3 O 0.99772(7) 0.50268(7) 0.78611(7)
O3_3 O 0.89536(6) 0.66215(5) 0.75236(6)
N1_3 N 0.90660(7) 0.46449(7) 0.90233(8)
N2_3 N 0.69301(7) 0.39237(7) 0.91578(9)
C1_3 C 0.99013(8) 0.57845(8) 0.73170(8)
C2_3 C 0.96072(8) 0.60857(8) 0.74009(8)
H2_3 H 0.948545 0.612045 0.780881
C3_3 C 0.94943(7) 0.63354(7) 0.68771(8)
C4_3 C 0.97057(8) 0.63104(8) 0.62719(8)
H3_3 H 0.964496 0.649459 0.592600
C8_3 C 0.98958(12) 0.59812(12) 0.49818(10)
H5_3 H 0.959161 0.605371 0.503653
H6_3 H 0.984543 0.592885 0.401351
C13_3 C 0.99760(8) 0.54941(8) 0.78965(9)
C14_3 C 0.91015(7) 0.65809(7) 0.69597(8)
C16_3 C 0.87560(9) 0.48823(9) 0.92278(11)
H9_3 H 0.895232 0.527214 0.933997
C17_3 C 0.81613(9) 0.45799(9) 0.92810(11)
H10_3 H 0.796130 0.476306 0.941823
C18_3 C 0.78679(8) 0.39956(8) 0.91249(10)
C19_3 C 0.81846(9) 0.37454(9) 0.89190(12)
H11_3 H 0.800084 0.335290 0.881975
C20_3 C 0.87747(8) 0.40841(9) 0.88628(11)
H12_3 H 0.898233 0.391535 0.870526
C21_3 C 0.72283(8) 0.36434(8) 0.91588(10)
N5_3 N 0.53551(7) 0.44212(10) 0.90233(8)
N6_3 N 0.60763(7) 0.30065(10) 0.91578(9)
C28_3 C 0.51177(9) 0.38738(13) 0.92278(11)
H17_3 H 0.472786 0.368019 0.933997
C29_3 C 0.54201(9) 0.35815(13) 0.92810(11)
H18_3 H 0.523694 0.319825 0.941823
C30_3 C 0.60044(8) 0.38724(11) 0.91249(10)
C31_3 C 0.62546(9) 0.44393(13) 0.89190(12)
H19_3 H 0.664710 0.464795 0.881975
C32_3 C 0.59159(9) 0.46907(12) 0.88628(11)
H20_3 H 0.608465 0.506699 0.870526
C33_3 C 0.63566(8) 0.35850(11) 0.91588(10)
N7_3 N 0.55788(10) 0.09340(7) 0.90233(8)
N8_3 N 0.69935(10) 0.30699(7) 0.91578(9)
C34_3 C 0.61262(13) 0.12440(9) 0.92278(11)
H21_3 H 0.631981 0.104768 0.933997
C35_3 C 0.64185(13) 0.18387(9) 0.92810(11)
H22_3 H 0.680175 0.203870 0.941823
C36_3 C 0.61276(11) 0.21321(8) 0.91249(10)
C37_3 C 0.55607(13) 0.18154(9) 0.89190(12)
H23_3 H 0.535205 0.199916 0.881975
C38_3 C 0.53093(12) 0.12253(8) 0.88628(11)
H24_3 H 0.493301 0.101767 0.870526
C39_3 C 0.64150(11) 0.27717(8) 0.91588(10)
O7_3 O 0.49732(7) 0.49505(10) 0.78611(7)
O8_3 O 0.42695(6) 0.42873(9) 0.84318(6)
O9_3 O 0.33785(5) 0.23322(8) 0.75236(6)
O11_3 O 0.43834(11) 0.54375(15) 0.35003(10)
O12_2 O 0.43531(10) 0.46262(15) 0.31752(8)
H33_2 H 0.461480 0.474742 0.277340
C52_3 C 0.42155(8) 0.41169(11) 0.73170(8)
C53_3 C 0.39143(8) 0.35216(11) 0.74009(8)
H34_3 H 0.387955 0.336501 0.780881
C54_3 C 0.36646(7) 0.31590(10) 0.68771(8)
C55_3 C 0.36896(8) 0.33954(11) 0.62719(8)
H35_3 H 0.350541 0.315038 0.592600
C56_3 C 0.39873(8) 0.39949(11) 0.61775(9)
C57_3 C 0.42549(9) 0.43509(12) 0.67068(9)
H36_3 H 0.446287 0.475057 0.665218
C58_3 C 0.40488(9) 0.42400(13) 0.55182(9)
C59_3 C 0.40188(12) 0.39147(17) 0.49818(10)
H37_3 H 0.394629 0.353791 0.503653
C60_3 C 0.40953(12) 0.41426(18) 0.43656(11)
H38_3 H 0.407115 0.391659 0.401351
C61_3 C 0.42075(9) 0.47050(14) 0.42718(10)
C62_3 C 0.42388(11) 0.50328(15) 0.48021(11)
H39_3 H 0.431452 0.541050 0.474595
C63_3 C 0.41582(11) 0.48027(15) 0.54174(11)
H40_3 H 0.417763 0.502808 0.576794
C64_3 C 0.45059(8) 0.44820(11) 0.78965(9)
C65_3 C 0.34191(7) 0.25207(10) 0.69597(8)
C66_3 C 0.43182(11) 0.49710(17) 0.36161(12)
O13_3 O 0.50495(10) 0.00228(7) 0.78611(7)
O15_3 O 0.76678(8) 0.10464(6) 0.75236(6)
C67_3 C 0.58831(11) 0.00987(8) 0.73170(8)
C68_3 C 0.64784(11) 0.03928(8) 0.74009(8)
H42_3 H 0.663499 0.051455 0.780881
C69_3 C 0.68410(10) 0.05057(7) 0.68771(8)
C70_3 C 0.66046(11) 0.02943(8) 0.62719(8)
H43_3 H 0.684962 0.035504 0.592600
C74_3 C 0.60853(17) 0.01042(12) 0.49818(10)
H45_3 H 0.646209 0.040839 0.503653
H46_3 H 0.608341 0.015457 0.401351
C79_3 C 0.55180(11) 0.00240(8) 0.78965(9)
C80_3 C 0.74793(10) 0.08985(7) 0.69597(8)
Co9_3 Co 0.33279(2) 0.15531(2) 0.76351(2)
Co10_3 Co 0.84469(2) 0.17748(3) 0.76351(2)
Co11_3 Co 0.82252(3) 0.66721(2) 0.76351(2)
O19_3 O 0.43797(6) 0.00452(5) 0.91431(6)
O20_3 O 0.99548(5) 0.43345(8) 0.91431(6)
O21_3 O 0.56655(8) 0.56203(6) 0.91431(6)
O14_3 O 0.57127(9) 0.99823(7) 0.84318(6)
O17_3 O 0.45625(15) 0.89460(10) 0.35003(10)
O18_2 O 0.53738(15) 0.97270(11) 0.31752(8)
H41_2 H 0.525258 0.986739 0.277340
C71_3 C 0.60051(11) 0.99925(8) 0.61775(9)
C72_3 C 0.56491(12) 0.99041(8) 0.67068(9)
H44_3 H 0.524943 0.971231 0.665218
C73_3 C 0.57600(13) 0.98089(9) 0.55182(9)
C75_3 C 0.58574(18) 0.99528(13) 0.43656(11)
C76_3 C 0.52950(14) 0.95026(11) 0.42718(10)
C77_3 C 0.49672(15) 0.92061(10) 0.48021(11)
H47_3 H 0.458950 0.890403 0.474595
C78_3 C 0.51973(15) 0.93556(10) 0.54174(11)
H48_3 H 0.497192 0.914956 0.576794
C81_3 C 0.50290(17) 0.93473(13) 0.36161(12)
O10_2 O 0.00483(6) 0.44587(8) 0.01952(6)
O5_4 O 0.22793(10) 0.10501(11) 0.31664(10)
O6_3 O 0.30603(11) 0.10198(10) 0.34915(8)
H1_3 H 0.320072 0.128147 0.389327
C4_4 C 0.36276(8) 0.03563(8) 0.03948(8)
H3_4 H 0.368837 0.017208 0.074067
C5_4 C 0.33258(8) 0.06540(8) 0.04892(9)
H4_4 H 0.304564 0.112954 0.001449
C7_4 C 0.31422(9) 0.07155(9) 0.11485(9)
C8_4 C 0.34375(12) 0.06855(12) 0.16849(10)
H5_4 H 0.374172 0.061296 0.163014
C9_4 C 0.32861(13) 0.07620(12) 0.23011(11)
H6_4 H 0.348790 0.073782 0.265316
C10_4 C 0.28359(11) 0.08742(9) 0.23949(10)
C11_4 C 0.25394(10) 0.09055(11) 0.18646(11)
H7_4 H 0.223736 0.098119 0.192072
C12_4 C 0.26889(10) 0.08249(11) 0.12493(11)
H8_4 H 0.248289 0.084430 0.089873
C15_4 C 0.26806(13) 0.09849(11) 0.30506(12)
O11_4 O 0.89499(11) 0.12292(15) 0.31664(10)
O12_3 O 0.89802(10) 0.20405(15) 0.34915(8)
H33_3 H 0.871853 0.191925 0.389327
C55_4 C 0.96437(8) 0.32713(11) 0.03948(8)
H35_4 H 0.982792 0.351629 0.074067
C56_4 C 0.93460(8) 0.26718(11) 0.04892(9)
H36_4 H 0.887046 0.191610 0.001449
C58_4 C 0.92845(9) 0.24267(13) 0.11485(9)
C59_4 C 0.93145(12) 0.27520(17) 0.16849(10)
H37_4 H 0.938704 0.312876 0.163014
C60_4 C 0.92380(12) 0.25241(18) 0.23011(11)
H38_4 H 0.926218 0.275008 0.265316
C61_4 C 0.91258(9) 0.19617(14) 0.23949(10)
C62_4 C 0.90945(11) 0.16339(15) 0.18646(11)
H39_4 H 0.901881 0.125617 0.192072
C63_4 C 0.91751(11) 0.18640(15) 0.12493(11)
H40_4 H 0.915570 0.163859 0.089873
C66_4 C 0.90151(11) 0.16957(17) 0.30506(12)
O16_2 O 0.55413(8) 0.55896(6) 0.01952(6)
O17_4 O 0.87708(15) 0.77207(10) 0.31664(10)
O18_3 O 0.79595(15) 0.69397(11) 0.34915(8)
H41_3 H 0.808075 0.679928 0.389327
C70_4 C 0.67287(11) 0.63724(8) 0.03948(8)
H43_4 H 0.648371 0.631163 0.074067
C71_4 C 0.73282(11) 0.66742(8) 0.04892(9)
H44_4 H 0.808390 0.695436 0.001449
C73_4 C 0.75733(13) 0.68578(9) 0.11485(9)
C74_4 C 0.72480(17) 0.65625(12) 0.16849(10)
H45_4 H 0.687124 0.625828 0.163014
C75_4 C 0.74759(18) 0.67139(13) 0.23011(11)
H46_4 H 0.724992 0.651210 0.265316
C76_4 C 0.80383(14) 0.71641(11) 0.23949(10)
C77_4 C 0.83661(15) 0.74606(10) 0.18646(11)
H47_4 H 0.874383 0.776264 0.192072
C78_4 C 0.81360(15) 0.73111(10) 0.12493(11)
H48_4 H 0.836141 0.751711 0.089873
C81_4 C 0.83043(17) 0.73194(13) 0.30506(12)
O1_4 O 0.33561(7) 0.16399(7) 0.88056(7)
O2_4 O 0.33156(7) 0.09362(6) 0.82349(6)
N1_4 N 0.42673(7) 0.20218(7) 0.76434(8)
N2_4 N 0.64032(7) 0.27430(7) 0.75089(9)
N3_4 N 0.24063(6) 0.11274(7) 0.76075(8)
C1_4 C 0.34320(8) 0.08822(8) 0.93497(8)
C2_4 C 0.37261(8) 0.05810(8) 0.92658(8)
H2_4 H 0.384788 0.054622 0.885786
C3_4 C 0.38390(7) 0.03313(7) 0.97896(8)
C6_4 C 0.32374(8) 0.09216(9) 0.99599(9)
C13_4 C 0.33573(8) 0.11726(8) 0.87702(9)
C14_4 C 0.42318(7) 0.00858(7) 0.97070(8)
C16_4 C 0.45773(9) 0.17844(9) 0.74389(11)
H9_4 H 0.438101 0.139453 0.732670
C17_4 C 0.51720(9) 0.20868(9) 0.73857(11)
H10_4 H 0.537203 0.190361 0.724844
C18_4 C 0.54654(8) 0.26711(8) 0.75418(10)
C19_4 C 0.51487(9) 0.29213(9) 0.77477(12)
H11_4 H 0.533249 0.331377 0.784692
C20_4 C 0.45586(8) 0.25826(9) 0.78039(11)
H12_4 H 0.435100 0.275132 0.796141
C21_4 C 0.61050(8) 0.30233(8) 0.75079(10)
C22_4 C 0.21202(9) 0.14107(9) 0.77166(13)
H13_4 H 0.233183 0.180442 0.780920
C23_4 C 0.15234(9) 0.11448(9) 0.76981(15)
H14_4 H 0.133998 0.135790 0.777469
C24_4 C 0.12015(8) 0.05602(8) 0.75650(11)
C25_4 C 0.14925(9) 0.02614(8) 0.74475(12)
C26_4 C 0.20913(9) 0.05636(9) 0.74720(12)
H16_4 H 0.228564 0.036215 0.738934
C27_4 C 0.05616(8) 0.02609(8) 0.75550(11)
N5_4 N 0.79782(7) 0.22455(10) 0.76434(8)
N6_4 N 0.72570(7) 0.36602(10) 0.75089(9)
C28_4 C 0.82156(9) 0.27929(13) 0.74389(11)
H17_4 H 0.860547 0.298648 0.732670
C29_4 C 0.79132(9) 0.30852(13) 0.73857(11)
H18_4 H 0.809639 0.346842 0.724844
C30_4 C 0.73289(8) 0.27943(11) 0.75418(10)
C31_4 C 0.70787(9) 0.22274(13) 0.77477(12)
H19_4 H 0.668623 0.201872 0.784692
C32_4 C 0.74174(9) 0.19760(12) 0.78039(11)
H20_4 H 0.724868 0.159968 0.796141
C33_4 C 0.69767(8) 0.30817(11) 0.75079(10)
N7_4 N 0.77545(10) 0.57327(7) 0.76434(8)
N8_4 N 0.63398(10) 0.35968(7) 0.75089(9)
C34_4 C 0.72071(13) 0.54227(9) 0.74389(11)
H21_4 H 0.701352 0.561899 0.732670
C35_4 C 0.69148(13) 0.48280(9) 0.73857(11)
H22_4 H 0.653158 0.462797 0.724844
C36_4 C 0.72057(11) 0.45346(8) 0.75418(10)
C37_4 C 0.77726(13) 0.48513(9) 0.77477(12)
H23_4 H 0.798128 0.466751 0.784692
C38_4 C 0.80240(12) 0.54414(8) 0.78039(11)
H24_4 H 0.840032 0.564900 0.796141
C39_4 C 0.69183(11) 0.38950(8) 0.75079(10)
N10_4 N 0.03163(7) 0.05922(10) 0.75523(10)
H27_4 H 0.013251 0.142321 0.735434
O7_4 O 0.83601(7) 0.17162(10) 0.88056(7)
O8_4 O 0.90638(6) 0.23794(9) 0.82349(6)
C52_4 C 0.91178(8) 0.25498(11) 0.93497(8)
C53_4 C 0.94190(8) 0.31451(11) 0.92658(8)
H34_4 H 0.945378 0.330166 0.885786
C54_4 C 0.96687(7) 0.35077(10) 0.97896(8)
C57_4 C 0.90784(9) 0.23158(12) 0.99599(9)
C64_4 C 0.88274(8) 0.21847(11) 0.87702(9)
C65_4 C 0.99142(7) 0.41460(10) 0.97070(8)
O13_4 O 0.82838(10) 0.66439(7) 0.88056(7)
O14_4 O 0.76206(9) 0.66844(7) 0.82349(6)
C67_4 C 0.74502(11) 0.65680(8) 0.93497(8)
C68_4 C 0.68549(11) 0.62739(8) 0.92658(8)
H42_4 H 0.669834 0.615212 0.885786
C69_4 C 0.64923(10) 0.61610(7) 0.97896(8)
C72_4 C 0.76842(12) 0.67626(8) 0.99599(9)
C79_4 C 0.78153(11) 0.66427(8) 0.87702(9)
C80_4 C 0.58540(10) 0.57682(7) 0.97070(8)
O22_3 O 0.77437(6) 0.66184(6) 0.68619(6)
O23_3 O 0.33816(6) 0.11254(8) 0.68619(6)
O24_3 O 0.88746(8) 0.22563(6) 0.68619(6)
N13 N 0.88726(7) 0.12789(9) 0.76075(8)
N14 N 0.87211(9) 0.75937(6) 0.76075(8)
O4_2 O 0.44104(6) 0.99517(6) 0.01952(6)
N4_4 N 0.02759(7) 0.96837(7) 0.75523(10)
H15_4 H 0.129070 0.986749 0.735434
H30_4 H 0.001792 0.866002 0.777469
C40_4 C 0.85893(9) 0.07095(13) 0.77166(13)
H25_4 H 0.819558 0.052741 0.780920
C41_4 C 0.88552(9) 0.03786(13) 0.76981(15)
C42_4 C 0.94398(8) 0.06413(11) 0.75650(11)
C43_4 C 0.97386(8) 0.12311(12) 0.74475(12)
C44_4 C 0.94364(9) 0.15277(13) 0.74720(12)
H28_4 H 0.963785 0.192349 0.738934
C45_4 C 0.97391(8) 0.03007(11) 0.75550(11)
H26_4 H 0.864210 0.998208 0.777469
N12_4 N 0.94078(10) 0.97241(7) 0.75523(10)
C46_4 C 0.92905(13) 0.78798(9) 0.77166(13)
H29_4 H 0.947259 0.766817 0.780920
C47_4 C 0.96214(13) 0.84766(9) 0.76981(15)
C48_4 C 0.93587(11) 0.87985(8) 0.75650(11)
C49_4 C 0.87689(12) 0.85075(9) 0.74475(12)
H31_4 H 0.857679 0.870930 0.735434
C50_4 C 0.84723(13) 0.79087(9) 0.74720(12)
H32_4 H 0.807651 0.771436 0.738934
C51_4 C 0.96993(11) 0.94384(8) 0.75550(11)
N6_5 N 0.05903(7) 0.03269(10) 0.41756(9)
H18_5 H 0.142972 0.013509 0.391511
N7_5 N 0.10878(10) 0.23994(7) 0.43101(8)
C34_5 C 0.05404(13) 0.20894(9) 0.41056(11)
H21_5 H 0.034685 0.228566 0.399337
C35_5 C 0.02481(13) 0.14947(9) 0.40524(11)
C36_5 C 0.05390(11) 0.12013(8) 0.42085(10)
C37_5 C 0.11059(13) 0.15180(9) 0.44144(12)
H23_5 H 0.131461 0.133418 0.451359
C38_5 C 0.13573(12) 0.21081(8) 0.44706(11)
H24_5 H 0.173365 0.231567 0.462808
C39_5 C 0.02516(11) 0.05617(8) 0.41746(10)
C54_5 C 0.30020(7) 0.01744(10) 0.64563(8)
H35_5 H 0.316125 0.018296 0.740734
C65_5 C 0.32475(7) 0.08127(10) 0.63737(8)
O13_5 O 0.16171(10) 0.33106(7) 0.54723(7)
O14_5 O 0.09539(9) 0.33511(7) 0.49016(6)
O17_5 O 0.21041(15) 0.43874(10) 0.98331(10)
C67_5 C 0.07835(11) 0.32347(8) 0.60164(8)
C68_5 C 0.01882(11) 0.29406(8) 0.59325(8)
H42_5 H 0.003167 0.281879 0.552453
C70_5 C 0.00620(11) 0.30391(8) 0.70615(8)
C71_5 C 0.06615(11) 0.33409(8) 0.71559(9)
C72_5 C 0.10175(12) 0.34293(8) 0.66266(9)
H44_5 H 0.141723 0.362103 0.668116
C73_5 C 0.09066(13) 0.35245(9) 0.78152(9)
C74_5 C 0.05813(17) 0.32292(12) 0.83516(10)
H45_5 H 0.020457 0.292495 0.829681
C75_5 C 0.08092(18) 0.33806(13) 0.89678(11)
H46_5 H 0.058325 0.317877 0.931983
C76_5 C 0.13716(14) 0.38308(11) 0.90616(10)
C77_5 C 0.16994(15) 0.41273(10) 0.85313(11)
H47_5 H 0.207716 0.442931 0.858739
C78_5 C 0.14693(15) 0.39778(10) 0.79160(11)
H48_5 H 0.169474 0.418378 0.756540
C79_5 C 0.11486(11) 0.33094(8) 0.54369(9)
C81_5 C 0.16376(17) 0.39861(13) 0.97173(12)
O22_4 O 0.10771(6) 0.32850(6) 0.35285(6)
N14_2 N 0.20544(9) 0.42604(6) 0.42742(8)
N5_5 N 0.13115(7) 0.89122(10) 0.43101(8)
C28_5 C 0.15489(9) 0.94596(13) 0.41056(11)
H17_5 H 0.193880 0.965315 0.399337
C29_5 C 0.12465(9) 0.97519(13) 0.40524(11)
C30_5 C 0.06622(8) 0.94610(11) 0.42085(10)
C31_5 C 0.04120(9) 0.88941(13) 0.44144(12)
H19_5 H 0.001956 0.868539 0.451359
C32_5 C 0.07507(9) 0.86427(12) 0.44706(11)
H20_5 H 0.058201 0.826635 0.462808
C33_5 C 0.03100(8) 0.97484(11) 0.41746(10)
O7_5 O 0.16934(7) 0.83829(10) 0.54723(7)
O8_5 O 0.23971(6) 0.90461(9) 0.49016(6)
O11_5 O 0.22832(11) 0.78959(15) 0.98331(10)
C52_5 C 0.24511(8) 0.92165(11) 0.60164(8)
C53_5 C 0.27523(8) 0.98118(11) 0.59325(8)
H34_5 H 0.278711 0.996833 0.552453
C55_5 C 0.29770(8) 0.99380(11) 0.70615(8)
C56_5 C 0.26793(8) 0.93385(11) 0.71559(9)
C57_5 C 0.24117(9) 0.89825(12) 0.66266(9)
H36_5 H 0.220379 0.858277 0.668116
C58_5 C 0.26178(9) 0.90934(13) 0.78152(9)
C59_5 C 0.26478(12) 0.94187(17) 0.83516(10)
H37_5 H 0.272037 0.979543 0.829681
C60_5 C 0.25713(12) 0.91908(18) 0.89678(11)
H38_5 H 0.259551 0.941675 0.931983
C61_5 C 0.24591(9) 0.86284(14) 0.90616(10)
C62_5 C 0.24278(11) 0.83006(15) 0.85313(11)
H39_5 H 0.235214 0.792284 0.858739
C63_5 C 0.25084(11) 0.85307(15) 0.79160(11)
H40_5 H 0.248903 0.830526 0.756540
C64_5 C 0.21607(8) 0.88514(11) 0.54369(9)
C66_5 C 0.23484(11) 0.83624(17) 0.97173(12)
O24_4 O 0.22080(8) 0.89229(6) 0.35285(6)
N13_2 N 0.22059(7) 0.79456(9) 0.42742(8)
N8_5 N 0.96731(10) 0.02635(7) 0.41756(9)
H22_5 H 0.986491 0.129464 0.391511
C69_5 C 0.98256(10) 0.28277(7) 0.64563(8)
H43_5 H 0.981704 0.297830 0.740734
C80_5 C 0.91873(10) 0.24349(7) 0.63737(8)
O1_5 O 0.66894(7) 0.83066(7) 0.54723(7)
O2_5 O 0.66489(7) 0.76029(6) 0.49016(6)
O5_5 O 0.56126(10) 0.77168(11) 0.98331(10)
N1_5 N 0.76006(7) 0.86885(7) 0.43101(8)
N2_5 N 0.97365(7) 0.94097(7) 0.41756(9)
N3_5 N 0.57396(6) 0.77941(7) 0.42742(8)
N4_5 N 0.36092(7) 0.63504(7) 0.42190(10)
C1_5 C 0.67653(8) 0.75489(8) 0.60164(8)
C2_5 C 0.70594(8) 0.72477(8) 0.59325(8)
H2_5 H 0.718121 0.721289 0.552453
C3_5 C 0.71723(7) 0.69980(7) 0.64563(8)
C4_5 C 0.69609(8) 0.70230(8) 0.70615(8)
H3_5 H 0.702170 0.683875 0.740734
C5_5 C 0.66591(8) 0.73207(8) 0.71559(9)
C6_5 C 0.65707(8) 0.75883(9) 0.66266(9)
H4_5 H 0.637897 0.779621 0.668116
C7_5 C 0.64755(9) 0.73822(9) 0.78152(9)
C8_5 C 0.67708(12) 0.73522(12) 0.83516(10)
H5_5 H 0.707505 0.727963 0.829681
C9_5 C 0.66194(13) 0.74287(12) 0.89678(11)
H6_5 H 0.682123 0.740449 0.931983
C10_5 C 0.61692(11) 0.75409(9) 0.90616(10)
C11_5 C 0.58727(10) 0.75722(11) 0.85313(11)
H7_5 H 0.557069 0.764786 0.858739
C12_5 C 0.60222(10) 0.74916(11) 0.79160(11)
H8_5 H 0.581622 0.751097 0.756540
C13_5 C 0.66906(8) 0.78393(8) 0.54369(9)
C14_5 C 0.75651(7) 0.67525(7) 0.63737(8)
C15_5 C 0.60139(13) 0.76516(11) 0.97173(12)
C16_5 C 0.79106(9) 0.84511(9) 0.41056(11)
H9_5 H 0.771434 0.806120 0.399337
C17_5 C 0.85053(9) 0.87535(9) 0.40524(11)
H10_5 H 0.870536 0.857028 0.391511
C18_5 C 0.87987(8) 0.93378(8) 0.42085(10)
C19_5 C 0.84820(9) 0.95880(9) 0.44144(12)
H11_5 H 0.866582 0.998044 0.451359
C20_5 C 0.78919(8) 0.92493(9) 0.44706(11)
H12_5 H 0.768433 0.941799 0.462808
C21_5 C 0.94383(8) 0.96900(8) 0.41746(10)
C22_5 C 0.54535(9) 0.80774(9) 0.43833(13)
H13_5 H 0.566516 0.847109 0.447587
C23_5 C 0.48567(9) 0.78115(9) 0.43648(15)
H14_5 H 0.467331 0.802457 0.444136
C24_5 C 0.45348(8) 0.72269(8) 0.42317(11)
C25_5 C 0.48258(9) 0.69281(8) 0.41142(12)
H15_5 H 0.462403 0.653416 0.402101
C26_5 C 0.54246(9) 0.72303(9) 0.41387(12)
H16_5 H 0.561897 0.702882 0.405601
C27_5 C 0.38949(8) 0.69276(8) 0.42217(11)
N10_5 N 0.36496(7) 0.72589(10) 0.42190(10)
C40_5 C 0.19226(9) 0.73762(13) 0.43833(13)
H25_5 H 0.152891 0.719408 0.447587
C41_5 C 0.21885(9) 0.70453(13) 0.43648(15)
H26_5 H 0.197543 0.664875 0.444136
C42_5 C 0.27731(8) 0.73080(11) 0.42317(11)
C43_5 C 0.30719(8) 0.78978(12) 0.41142(12)
H27_5 H 0.346584 0.808988 0.402101
C44_5 C 0.27697(9) 0.81944(13) 0.41387(12)
H28_5 H 0.297118 0.859016 0.405601
C45_5 C 0.30724(8) 0.69674(11) 0.42217(11)
N12_5 N 0.27411(10) 0.63908(7) 0.42190(10)
C46_5 C 0.26238(13) 0.45465(9) 0.43833(13)
H29_5 H 0.280592 0.433484 0.447587
C47_5 C 0.29547(13) 0.51433(9) 0.43648(15)
H30_5 H 0.335125 0.532669 0.444136
C48_5 C 0.26920(11) 0.54652(8) 0.42317(11)
C49_5 C 0.21022(12) 0.51742(9) 0.41142(12)
H31_5 H 0.191012 0.537597 0.402101
C50_5 C 0.18056(13) 0.45754(9) 0.41387(12)
H32_5 H 0.140984 0.438103 0.405601
C51_5 C 0.30326(11) 0.61051(8) 0.42217(11)
O23_4 O 0.67150(6) 0.77920(8) 0.35285(6)
O14_6 O 0.42873(9) 0.00177(7) 0.15682(6)
O17_6 O 0.54375(15) 0.10540(10) 0.64997(10)
O18_4 O 0.46262(15) 0.02730(11) 0.68248(8)
H41_4 H 0.474742 0.013261 0.722660
C71_6 C 0.39949(11) 0.00075(8) 0.38225(9)
C72_6 C 0.43509(12) 0.00959(8) 0.32932(9)
H44_6 H 0.475057 0.028769 0.334782
C73_6 C 0.42400(13) 0.01911(9) 0.44818(9)
C75_6 C 0.41426(18) 0.00472(13) 0.56344(11)
C76_6 C 0.47050(14) 0.04974(11) 0.57282(10)
C77_6 C 0.50328(15) 0.07939(10) 0.51979(11)
H47_6 H 0.541050 0.109597 0.525405
C78_6 C 0.48027(15) 0.06444(10) 0.45826(11)
H48_6 H 0.502808 0.085044 0.423206
C81_6 C 0.49710(17) 0.06527(13) 0.63839(12)
N14_3 N 0.53878(9) 0.09270(6) 0.09408(8)
O1_6 O 0.00228(7) 0.49732(7) 0.21389(7)
N1_6 N 0.09340(7) 0.53551(7) 0.09767(8)
N2_6 N 0.30699(7) 0.60763(7) 0.08422(9)
C1_6 C 0.00987(8) 0.42155(8) 0.26830(8)
C2_6 C 0.03928(8) 0.39143(8) 0.25991(8)
H2_6 H 0.051455 0.387955 0.219119
C3_6 C 0.05057(7) 0.36646(7) 0.31229(8)
C4_6 C 0.02943(8) 0.36896(8) 0.37281(8)
H3_6 H 0.035504 0.350541 0.407400
C8_6 C 0.01042(12) 0.40188(12) 0.50182(10)
H5_6 H 0.040839 0.394629 0.496347
H6_6 H 0.015457 0.407115 0.598649
C13_6 C 0.00240(8) 0.45059(8) 0.21035(9)
C14_6 C 0.08985(7) 0.34191(7) 0.30403(8)
C16_6 C 0.12440(9) 0.51177(9) 0.07722(11)
H9_6 H 0.104768 0.472786 0.066003
C17_6 C 0.18387(9) 0.54201(9) 0.07190(11)
H10_6 H 0.203870 0.523694 0.058177
C18_6 C 0.21321(8) 0.60044(8) 0.08751(10)
C19_6 C 0.18154(9) 0.62546(9) 0.10810(12)
H11_6 H 0.199916 0.664710 0.118025
C20_6 C 0.12253(8) 0.59159(9) 0.11372(11)
H12_6 H 0.101767 0.608465 0.129474
C21_6 C 0.27717(8) 0.63566(8) 0.08412(10)
N5_6 N 0.46449(7) 0.55788(10) 0.09767(8)
N6_6 N 0.39237(7) 0.69935(10) 0.08422(9)
C28_6 C 0.48823(9) 0.61262(13) 0.07722(11)
H17_6 H 0.527214 0.631981 0.066003
C29_6 C 0.45799(9) 0.64185(13) 0.07190(11)
H18_6 H 0.476306 0.680175 0.058177
C30_6 C 0.39956(8) 0.61276(11) 0.08751(10)
C31_6 C 0.37454(9) 0.55607(13) 0.10810(12)
H19_6 H 0.335290 0.535205 0.118025
C32_6 C 0.40841(9) 0.53093(12) 0.11372(11)
H20_6 H 0.391535 0.493301 0.129474
C33_6 C 0.36434(8) 0.64150(11) 0.08412(10)
N7_6 N 0.44212(10) 0.90660(7) 0.09767(8)
N8_6 N 0.30065(10) 0.69301(7) 0.08422(9)
C34_6 C 0.38738(13) 0.87560(9) 0.07722(11)
H21_6 H 0.368019 0.895232 0.066003
C35_6 C 0.35815(13) 0.81613(9) 0.07190(11)
H22_6 H 0.319825 0.796130 0.058177
C36_6 C 0.38724(11) 0.78679(8) 0.08751(10)
C37_6 C 0.44393(13) 0.81846(9) 0.10810(12)
H23_6 H 0.464795 0.800084 0.118025
C38_6 C 0.46907(12) 0.87747(8) 0.11372(11)
H24_6 H 0.506699 0.898233 0.129474
C39_6 C 0.35850(11) 0.72283(8) 0.08412(10)
O7_6 O 0.50268(7) 0.50495(10) 0.21389(7)
O8_6 O 0.57305(6) 0.57127(9) 0.15682(6)
O11_6 O 0.56166(11) 0.45625(15) 0.64997(10)
O12_4 O 0.56469(10) 0.53738(15) 0.68248(8)
H33_4 H 0.538520 0.525258 0.722660
C52_6 C 0.57845(8) 0.58831(11) 0.26830(8)
C53_6 C 0.60857(8) 0.64784(11) 0.25991(8)
H34_6 H 0.612045 0.663499 0.219119
C54_6 C 0.63354(7) 0.68410(10) 0.31229(8)
C55_6 C 0.63104(8) 0.66046(11) 0.37281(8)
H35_6 H 0.649459 0.684962 0.407400
C56_6 C 0.60127(8) 0.60051(11) 0.38225(9)
C57_6 C 0.57451(9) 0.56491(12) 0.32932(9)
H36_6 H 0.553713 0.524943 0.334782
C58_6 C 0.59512(9) 0.57600(13) 0.44818(9)
C59_6 C 0.59812(12) 0.60853(17) 0.50182(10)
H37_6 H 0.605371 0.646209 0.496347
C60_6 C 0.59047(12) 0.58574(18) 0.56344(11)
H38_6 H 0.592885 0.608341 0.598649
C61_6 C 0.57925(9) 0.52950(14) 0.57282(10)
C62_6 C 0.57612(11) 0.49672(15) 0.51979(11)
H39_6 H 0.568548 0.458950 0.525405
C63_6 C 0.58418(11) 0.51973(15) 0.45826(11)
H40_6 H 0.582237 0.497192 0.423206
C64_6 C 0.54941(8) 0.55180(11) 0.21035(9)
C65_6 C 0.65809(7) 0.74793(10) 0.30403(8)
C66_6 C 0.56818(11) 0.50290(17) 0.63839(12)
O13_6 O 0.49505(10) 0.99772(7) 0.21389(7)
C67_6 C 0.41169(11) 0.99013(8) 0.26830(8)
C68_6 C 0.35216(11) 0.96072(8) 0.25991(8)
H42_6 H 0.336501 0.948545 0.219119
C69_6 C 0.31590(10) 0.94943(7) 0.31229(8)
C70_6 C 0.33954(11) 0.97057(8) 0.37281(8)
H43_6 H 0.315038 0.964496 0.407400
C74_6 C 0.39147(17) 0.98958(12) 0.50182(10)
H45_6 H 0.353791 0.959161 0.496347
H46_6 H 0.391659 0.984543 0.598649
C79_6 C 0.44820(11) 0.99760(8) 0.21035(9)
C80_6 C 0.25207(10) 0.91015(7) 0.30403(8)
N13_3 N 0.55393(7) 0.46122(9) 0.09408(8)
O2_6 O 0.99823(7) 0.42695(6) 0.15682(6)
O5_6 O 0.89460(10) 0.43834(11) 0.64997(10)
O6_4 O 0.97270(11) 0.43531(10) 0.68248(8)
H1_4 H 0.986739 0.461480 0.722660
N3_6 N 0.90730(6) 0.44607(7) 0.09408(8)
N4_6 N 0.69426(7) 0.30170(7) 0.08856(10)
C5_6 C 0.99925(8) 0.39873(8) 0.38225(9)
C6_6 C 0.99041(8) 0.42549(9) 0.32932(9)
H4_6 H 0.971231 0.446287 0.334782
C7_6 C 0.98089(9) 0.40488(9) 0.44818(9)
C9_6 C 0.99528(13) 0.40953(12) 0.56344(11)
C10_6 C 0.95026(11) 0.42075(9) 0.57282(10)
C11_6 C 0.92061(10) 0.42388(11) 0.51979(11)
H7_6 H 0.890403 0.431452 0.525405
C12_6 C 0.93556(10) 0.41582(11) 0.45826(11)
H8_6 H 0.914956 0.417763 0.423206
C15_6 C 0.93473(13) 0.43182(11) 0.63839(12)
C22_6 C 0.87869(9) 0.47440(9) 0.10499(13)
H13_6 H 0.899850 0.513775 0.114253
C23_6 C 0.81901(9) 0.44781(9) 0.10314(15)
H14_6 H 0.800665 0.469123 0.110802
C24_6 C 0.78682(8) 0.38935(8) 0.08983(11)
C25_6 C 0.81592(9) 0.35947(8) 0.07808(12)
H15_6 H 0.795737 0.320082 0.068767
C26_6 C 0.87580(9) 0.38969(9) 0.08053(12)
H16_6 H 0.895231 0.369548 0.072267
C27_6 C 0.72283(8) 0.35942(8) 0.08883(11)
N10_6 N 0.69830(7) 0.39255(10) 0.08856(10)
C40_6 C 0.52560(9) 0.40428(13) 0.10499(13)
H25_6 H 0.486225 0.386074 0.114253
C41_6 C 0.55219(9) 0.37119(13) 0.10314(15)
H26_6 H 0.530877 0.331541 0.110802
C42_6 C 0.61065(8) 0.39746(11) 0.08983(11)
C43_6 C 0.64053(8) 0.45644(12) 0.07808(12)
H27_6 H 0.679918 0.475654 0.068767
C44_6 C 0.61031(9) 0.48610(13) 0.08053(12)
H28_6 H 0.630452 0.525682 0.072267
C45_6 C 0.64058(8) 0.36340(11) 0.08883(11)
N12_6 N 0.60745(10) 0.30574(7) 0.08856(10)
C46_6 C 0.59572(13) 0.12131(9) 0.10499(13)
H29_6 H 0.613926 0.100150 0.114253
C47_6 C 0.62881(13) 0.18099(9) 0.10314(15)
H30_6 H 0.668459 0.199335 0.110802
C48_6 C 0.60254(11) 0.21318(8) 0.08983(11)
C49_6 C 0.54356(12) 0.18408(9) 0.07808(12)
H31_6 H 0.524346 0.204263 0.068767
C50_6 C 0.51390(13) 0.12420(9) 0.08053(12)
H32_6 H 0.474318 0.104769 0.072267
C51_6 C 0.63660(11) 0.27717(8) 0.08883(11)
O6_5 O 0.36064(11) 0.23135(10) 0.98418(8)
H1_5 H 0.346595 0.205186 0.944006
O12_5 O 0.76865(10) 0.12928(15) 0.98418(8)
H33_5 H 0.794814 0.141408 0.944006
O18_5 O 0.87072(15) 0.63936(11) 0.98418(8)
H41_5 H 0.858592 0.653405 0.944006
O18_6 O 0.12928(15) 0.36064(11) 0.01582(8)
H41_6 H 0.141408 0.346595 0.055994
O12_6 O 0.23135(10) 0.87072(15) 0.01582(8)
H33_6 H 0.205186 0.858592 0.055994
O6_6 O 0.63936(11) 0.76865(10) 0.01582(8)
H1_6 H 0.653405 0.794814 0.055994
loop_
_geom_bond_atom_site_label_1
_geom_bond_atom_site_label_2
_geom_bond_site_symmetry_1
_geom_bond_site_symmetry_2
N11 C46 1_555 1_555
C46 H29 1_555 1_555
C47 C46 1_555 1_555
C48 C47 1_555 1_555
C49 C48 1_555 1_555
H31 C49 1_555 1_555
C50 N11 1_555 1_555
H32 C50 1_555 1_555
Co5 N11 1_555 1_555
N12 C51 1_555 1_555
C48 C51 1_555 1_555
C49 C50 1_555 1_555
N9 C40 1_555 1_555
C40 H25 1_555 1_555
C41 C40 1_555 1_555
C42 C41 1_555 1_555
C43 C42 1_555 1_555
C44 N9 1_555 1_555
H28 C44 1_555 1_555
Co4 N9 1_555 1_555
C42 C45 1_555 1_555
C43 C44 1_555 1_555
Co1 O1 1_555 1_555
O1 C13 1_555 1_555
O2 Co1 1_555 1_555
O3 C14 1_555 1_555
N1 Co1 1_555 1_555
N2 C21 1_555 1_555
N3 Co1 1_555 1_555
C1 C2 1_555 1_555
C2 H2 1_555 1_555
C3 C2 1_555 1_555
C6 C1 1_555 1_555
C13 O2 1_555 1_555
C14 C3 1_555 1_555
C16 N1 1_555 1_555
H9 C16 1_555 1_555
C17 C16 1_555 1_555
H10 C17 1_555 1_555
C18 C17 1_555 1_555
C19 C18 1_555 1_555
H11 C19 1_555 1_555
C20 N1 1_555 1_555
H12 C20 1_555 1_555
C21 C18 1_555 1_555
C22 N3 1_555 1_555
H13 C22 1_555 1_555
C23 C22 1_555 1_555
H14 C23 1_555 1_555
C24 C23 1_555 1_555
C25 C24 1_555 1_555
C26 N3 1_555 1_555
H16 C26 1_555 1_555
C27 C24 1_555 1_555
N5 C28 1_555 1_555
N6 C33 1_555 1_555
C28 H17 1_555 1_555
C29 C28 1_555 1_555
H18 C29 1_555 1_555
C30 C29 1_555 1_555
C31 C30 1_555 1_555
H19 C31 1_555 1_555
C32 N5 1_555 1_555
H20 C32 1_555 1_555
C33 N2 1_555 1_555
N7 C34 1_555 1_555
N8 C21 1_555 1_555
C34 H21 1_555 1_555
C35 C34 1_555 1_555
H22 C35 1_555 1_555
C36 C35 1_555 1_555
C37 C36 1_555 1_555
H23 C37 1_555 1_555
C38 N7 1_555 1_555
H24 C38 1_555 1_555
C39 N6 1_555 1_555
N10 C27 1_555 1_555
Co4 N5 1_555 1_555
O7 Co4 1_555 1_555
O8 Co4 1_555 1_555
O9 C65 1_555 1_555
C52 C53 1_555 1_555
C53 H34 1_555 1_555
C54 C53 1_555 1_555
C57 C52 1_555 1_555
C64 O7 1_555 1_555
C65 C54 1_555 1_555
Co5 N7 1_555 1_555
O13 Co5 1_555 1_555
O14 Co5 1_555 1_555
O15 C80 1_555 1_555
C67 C68 1_555 1_555
C68 H42 1_555 1_555
C69 C68 1_555 1_555
C72 C67 1_555 1_555
C79 O13 1_555 1_555
C80 C69 1_555 1_555
Co10 O15 1_555 1_555
O19 Co5 1_555 1_555
O20 Co1 1_555 1_555
O21 Co4 1_555 1_555
O22 Co5 1_555 1_555
O23 Co1 1_555 1_555
O24 Co4 1_555 1_555
C1 C13 1_555 1_555
C19 C20 1_555 1_555
C25 C26 1_555 1_555
C30 C33 1_555 1_555
C31 C32 1_555 1_555
N8 C39 1_555 1_555
C36 C39 1_555 1_555
C37 C38 1_555 1_555
O8 C64 1_555 1_555
C52 C64 1_555 1_555
O14 C79 1_555 1_555
C67 C79 1_555 1_555
O5 C15 1_555 1_555
O6 H1 1_555 1_555
H3 C4 1_555 1_555
C5 C4 1_555 1_555
C7 C5 1_555 1_555
C8 C7 1_555 1_555
H5 C8 1_555 1_555
C9 C8 1_555 1_555
H6 C9 1_555 1_555
C10 C9 1_555 1_555
C11 C10 1_555 1_555
H7 C11 1_555 1_555
C12 C7 1_555 1_555
H8 C12 1_555 1_555
C15 O6 1_555 1_555
O11 C66 1_555 1_555
O12 H33 1_555 1_555
H35 C55 1_555 1_555
C56 C55 1_555 1_555
C58 C56 1_555 1_555
C59 C58 1_555 1_555
H37 C59 1_555 1_555
C60 C59 1_555 1_555
H38 C60 1_555 1_555
C61 C60 1_555 1_555
C62 C61 1_555 1_555
H39 C62 1_555 1_555
C63 C58 1_555 1_555
H40 C63 1_555 1_555
C66 O12 1_555 1_555
O17 C81 1_555 1_555
O18 H41 1_555 1_555
H43 C70 1_555 1_555
C71 C70 1_555 1_555
C73 C71 1_555 1_555
C74 C73 1_555 1_555
H45 C74 1_555 1_555
C75 C74 1_555 1_555
H46 C75 1_555 1_555
C76 C75 1_555 1_555
C77 C76 1_555 1_555
H47 C77 1_555 1_555
C78 C73 1_555 1_555
H48 C78 1_555 1_555
C81 O18 1_555 1_555
Co7 O16 1_555 1_555
C10 C15 1_555 1_555
C11 C12 1_555 1_555
C61 C66 1_555 1_555
C62 C63 1_555 1_555
C76 C81 1_555 1_555
C77 C78 1_555 1_555
Co1_2 O1_2 1_555 1_555
O1_2 C13_2 1_555 1_555
O2_2 Co1_2 1_555 1_555
O3_2 C14_2 1_555 1_555
O22 C14_2 1_555 1_555
O5_2 C15_2 1_555 1_555
N1_2 Co1_2 1_555 1_555
N2_2 C21_2 1_555 1_555
N3_2 Co1_2 1_555 1_555
N4_2 C27_2 1_555 1_555
C1_2 C2_2 1_555 1_555
C2_2 H2_2 1_555 1_555
C3_2 C2_2 1_555 1_555
C4_2 C3_2 1_555 1_555
H3_2 C4_2 1_555 1_555
C5_2 C4_2 1_555 1_555
C6_2 C1_2 1_555 1_555
H4_2 C6_2 1_555 1_555
C7_2 C5_2 1_555 1_555
C8_2 C7_2 1_555 1_555
H5_2 C8_2 1_555 1_555
C9_2 C8_2 1_555 1_555
H6_2 C9_2 1_555 1_555
C10_2 C9_2 1_555 1_555
C11_2 C10_2 1_555 1_555
H7_2 C11_2 1_555 1_555
C12_2 C7_2 1_555 1_555
H8_2 C12_2 1_555 1_555
C13_2 O2_2 1_555 1_555
C14_2 C3_2 1_555 1_555
C16_2 N1_2 1_555 1_555
H9_2 C16_2 1_555 1_555
C17_2 C16_2 1_555 1_555
H10_2 C17_2 1_555 1_555
C18_2 C17_2 1_555 1_555
C19_2 C18_2 1_555 1_555
H11_2 C19_2 1_555 1_555
C20_2 N1_2 1_555 1_555
H12_2 C20_2 1_555 1_555
C21_2 C18_2 1_555 1_555
C22_2 N3_2 1_555 1_555
H13_2 C22_2 1_555 1_555
C23_2 C22_2 1_555 1_555
H14_2 C23_2 1_555 1_555
C24_2 C23_2 1_555 1_555
C25_2 C24_2 1_555 1_555
H15_2 C25_2 1_555 1_555
C26_2 N3_2 1_555 1_555
H16_2 C26_2 1_555 1_555
C27_2 C24_2 1_555 1_555
N9_2 C40_2 1_555 1_555
N10_2 C27_2 1_555 1_555
C40_2 H25_2 1_555 1_555
C41_2 C40_2 1_555 1_555
H26_2 C41_2 1_555 1_555
C42_2 C41_2 1_555 1_555
C43_2 C42_2 1_555 1_555
H27_2 C43_2 1_555 1_555
C44_2 N9_2 1_555 1_555
H28_2 C44_2 1_555 1_555
C45_2 N10_2 1_555 1_555
N11_2 C46_2 1_555 1_555
N12_2 C45_2 1_555 1_555
C46_2 H29_2 1_555 1_555
C47_2 C46_2 1_555 1_555
H30_2 C47_2 1_555 1_555
C48_2 C47_2 1_555 1_555
C49_2 C48_2 1_555 1_555
H31_2 C49_2 1_555 1_555
C50_2 N11_2 1_555 1_555
H32_2 C50_2 1_555 1_555
C51_2 N4_2 1_555 1_555
Co4_2 N9_2 1_555 1_555
Co5_2 N11_2 1_555 1_555
Co11_2 O3_2 1_555 1_555
O20_2 Co1_2 1_555 1_555
O23_2 Co1_2 1_555 1_555
C1_2 C13_2 1_555 1_555
C5_2 C6_2 1_555 1_555
C10_2 C15_2 1_555 1_555
C11_2 C12_2 1_555 1_555
C19_2 C20_2 1_555 1_555
C25_2 C26_2 1_555 1_555
C42_2 C45_2 1_555 1_555
C43_2 C44_2 1_555 1_555
N12_2 C51_2 1_555 1_555
C48_2 C51_2 1_555 1_555
C49_2 C50_2 1_555 1_555
O15_2 C80_2 1_555 1_555
O24 C80_2 1_555 1_555
C80_2 C69_2 1_555 1_555
Co10_2 O15_2 1_555 1_555
N5_2 C28_2 1_555 1_555
C28_2 H17_2 1_555 1_555
C29_2 C28_2 1_555 1_555
C30_2 C29_2 1_555 1_555
C31_2 C30_2 1_555 1_555
H19_2 C31_2 1_555 1_555
C32_2 N5_2 1_555 1_555
H20_2 C32_2 1_555 1_555
Co4_2 N5_2 1_555 1_555
O7_2 Co4_2 1_555 1_555
O8_2 Co4_2 1_555 1_555
O11_2 C66_2 1_555 1_555
C52_2 C53_2 1_555 1_555
C53_2 H34_2 1_555 1_555
C56_2 C55_2 1_555 1_555
C57_2 C52_2 1_555 1_555
H36_2 C57_2 1_555 1_555
C58_2 C56_2 1_555 1_555
C59_2 C58_2 1_555 1_555
H37_2 C59_2 1_555 1_555
C60_2 C59_2 1_555 1_555
H38_2 C60_2 1_555 1_555
C61_2 C60_2 1_555 1_555
C62_2 C61_2 1_555 1_555
H39_2 C62_2 1_555 1_555
C63_2 C58_2 1_555 1_555
H40_2 C63_2 1_555 1_555
C64_2 O7_2 1_555 1_555
O21_2 Co4_2 1_555 1_555
O24_2 Co4_2 1_555 1_555
C30_2 C33_2 1_555 1_555
C31_2 C32_2 1_555 1_555
O8_2 C64_2 1_555 1_555
C52_2 C64_2 1_555 1_555
C56_2 C57_2 1_555 1_555
C61_2 C66_2 1_555 1_555
C62_2 C63_2 1_555 1_555
N7_2 C34_2 1_555 1_555
C34_2 H21_2 1_555 1_555
C35_2 C34_2 1_555 1_555
C36_2 C35_2 1_555 1_555
C37_2 C36_2 1_555 1_555
H23_2 C37_2 1_555 1_555
C38_2 N7_2 1_555 1_555
H24_2 C38_2 1_555 1_555
C39_2 N6_2 1_555 1_555
O9_2 C65_2 1_555 1_555
O23 C65_2 1_555 1_555
C65_2 C54_2 1_555 1_555
Co5_2 N7_2 1_555 1_555
O13_2 Co5_2 1_555 1_555
O14_2 Co5_2 1_555 1_555
O17_2 C81_2 1_555 1_555
C67_2 C68_2 1_555 1_555
C68_2 H42_2 1_555 1_555
C71_2 C70_2 1_555 1_555
C72_2 C67_2 1_555 1_555
H44_2 C72_2 1_555 1_555
C73_2 C71_2 1_555 1_555
C74_2 C73_2 1_555 1_555
H45_2 C74_2 1_555 1_555
C75_2 C74_2 1_555 1_555
H46_2 C75_2 1_555 1_555
C76_2 C75_2 1_555 1_555
C77_2 C76_2 1_555 1_555
H47_2 C77_2 1_555 1_555
C78_2 C73_2 1_555 1_555
H48_2 C78_2 1_555 1_555
C79_2 O13_2 1_555 1_555
Co9_2 O9_2 1_555 1_555
O19_2 Co5_2 1_555 1_555
O22_2 Co5_2 1_555 1_555
C36_2 C39_2 1_555 1_555
C37_2 C38_2 1_555 1_555
O14_2 C79_2 1_555 1_555
C67_2 C79_2 1_555 1_555
C71_2 C72_2 1_555 1_555
C76_2 C81_2 1_555 1_555
C77_2 C78_2 1_555 1_555
O2_3 Co6 1_555 1_555
O5_3 C15_3 1_555 1_555
O6_2 H1_2 1_555 1_555
N3_3 Co6 1_555 1_555
N4_3 C27_3 1_555 1_555
H4_3 C6_3 1_555 1_555
C7_3 C5_3 1_555 1_555
C10_3 C9_3 1_555 1_555
C11_3 C10_3 1_555 1_555
H7_3 C11_3 1_555 1_555
C12_3 C7_3 1_555 1_555
H8_3 C12_3 1_555 1_555
C15_3 O6_2 1_555 1_555
C22_3 N3_3 1_555 1_555
H13_3 C22_3 1_555 1_555
C23_3 C22_3 1_555 1_555
H14_3 C23_3 1_555 1_555
C24_3 C23_3 1_555 1_555
C25_3 C24_3 1_555 1_555
H15_3 C25_3 1_555 1_555
C26_3 N3_3 1_555 1_555
H16_3 C26_3 1_555 1_555
C27_3 C24_3 1_555 1_555
N9_3 C40_3 1_555 1_555
N10_3 C27_3 1_555 1_555
C40_3 H25_3 1_555 1_555
C41_3 C40_3 1_555 1_555
H26_3 C41_3 1_555 1_555
C42_3 C41_3 1_555 1_555
C43_3 C42_3 1_555 1_555
H27_3 C43_3 1_555 1_555
C44_3 N9_3 1_555 1_555
H28_3 C44_3 1_555 1_555
C45_3 N10_3 1_555 1_555
N11_3 C46_3 1_555 1_555
N12_3 C45_3 1_555 1_555
C46_3 H29_3 1_555 1_555
C47_3 C46_3 1_555 1_555
H30_3 C47_3 1_555 1_555
C48_3 C47_3 1_555 1_555
C49_3 C48_3 1_555 1_555
H31_3 C49_3 1_555 1_555
C50_3 N11_3 1_555 1_555
H32_3 C50_3 1_555 1_555
C51_3 N4_3 1_555 1_555
Co7 N9_3 1_555 1_555
Co8 N11_3 1_555 1_555
C5_3 C6_3 1_555 1_555
C10_3 C15_3 1_555 1_555
C11_3 C12_3 1_555 1_555
C25_3 C26_3 1_555 1_555
C42_3 C45_3 1_555 1_555
C43_3 C44_3 1_555 1_555
N12_3 C51_3 1_555 1_555
C48_3 C51_3 1_555 1_555
C49_3 C50_3 1_555 1_555
O1_3 C13_3 1_555 1_555
O3_3 C14_3 1_555 1_555
O22_2 C14_3 1_555 1_555
N2_3 C21_3 1_555 1_555
C1_3 C2_3 1_555 1_555
C2_3 H2_3 1_555 1_555
C3_3 C2_3 1_555 1_555
C4_3 C3_3 1_555 1_555
H3_3 C4_3 1_555 1_555
H5_3 C8_3 1_555 1_555
C14_3 C3_3 1_555 1_555
C16_3 N1_3 1_555 1_555
H9_3 C16_3 1_555 1_555
C17_3 C16_3 1_555 1_555
H10_3 C17_3 1_555 1_555
C18_3 C17_3 1_555 1_555
C19_3 C18_3 1_555 1_555
H11_3 C19_3 1_555 1_555
C20_3 N1_3 1_555 1_555
H12_3 C20_3 1_555 1_555
C21_3 C18_3 1_555 1_555
N5_3 C28_3 1_555 1_555
N6_3 C33_3 1_555 1_555
C28_3 H17_3 1_555 1_555
C29_3 C28_3 1_555 1_555
H18_3 C29_3 1_555 1_555
C30_3 C29_3 1_555 1_555
C31_3 C30_3 1_555 1_555
H19_3 C31_3 1_555 1_555
C32_3 N5_3 1_555 1_555
H20_3 C32_3 1_555 1_555
C33_3 N2_3 1_555 1_555
N7_3 C34_3 1_555 1_555
N8_3 C21_3 1_555 1_555
C34_3 H21_3 1_555 1_555
C35_3 C34_3 1_555 1_555
H22_3 C35_3 1_555 1_555
C36_3 C35_3 1_555 1_555
C37_3 C36_3 1_555 1_555
H23_3 C37_3 1_555 1_555
C38_3 N7_3 1_555 1_555
H24_3 C38_3 1_555 1_555
C39_3 N6_3 1_555 1_555
Co7 N5_3 1_555 1_555
O7_3 Co7 1_555 1_555
O8_3 Co7 1_555 1_555
O9_3 C65_3 1_555 1_555
O23_2 C65_3 1_555 1_555
O11_3 C66_3 1_555 1_555
O12_2 H33_2 1_555 1_555
C52_3 C53_3 1_555 1_555
C53_3 H34_3 1_555 1_555
C54_3 C53_3 1_555 1_555
C55_3 C54_3 1_555 1_555
H35_3 C55_3 1_555 1_555
C56_3 C55_3 1_555 1_555
C57_3 C52_3 1_555 1_555
H36_3 C57_3 1_555 1_555
C58_3 C56_3 1_555 1_555
C59_3 C58_3 1_555 1_555
H37_3 C59_3 1_555 1_555
C60_3 C59_3 1_555 1_555
H38_3 C60_3 1_555 1_555
C61_3 C60_3 1_555 1_555
C62_3 C61_3 1_555 1_555
H39_3 C62_3 1_555 1_555
C63_3 C58_3 1_555 1_555
H40_3 C63_3 1_555 1_555
C64_3 O7_3 1_555 1_555
C65_3 C54_3 1_555 1_555
C66_3 O12_2 1_555 1_555
O15_3 C80_3 1_555 1_555
O24_2 C80_3 1_555 1_555
C67_3 C68_3 1_555 1_555
C68_3 H42_3 1_555 1_555
C69_3 C68_3 1_555 1_555
C70_3 C69_3 1_555 1_555
H43_3 C70_3 1_555 1_555
H45_3 C74_3 1_555 1_555
C79_3 O13_3 1_555 1_555
C80_3 C69_3 1_555 1_555
Co9_3 O9_3 1_555 1_555
Co10_3 O15_3 1_555 1_555
Co11_3 O3_3 1_555 1_555
O21_3 Co7 1_555 1_555
C1_3 C13_3 1_555 1_555
C19_3 C20_3 1_555 1_555
C30_3 C33_3 1_555 1_555
C31_3 C32_3 1_555 1_555
N8_3 C39_3 1_555 1_555
C36_3 C39_3 1_555 1_555
C37_3 C38_3 1_555 1_555
O8_3 C64_3 1_555 1_555
C52_3 C64_3 1_555 1_555
C56_3 C57_3 1_555 1_555
C61_3 C66_3 1_555 1_555
C62_3 C63_3 1_555 1_555
C67_3 C79_3 1_555 1_555
O14_3 Co8 1_555 1_555
O17_3 C81_3 1_555 1_555
O18_2 H41_2 1_555 1_555
H44_3 C72_3 1_555 1_555
C73_3 C71_3 1_555 1_555
C76_3 C75_3 1_555 1_555
C77_3 C76_3 1_555 1_555
H47_3 C77_3 1_555 1_555
C78_3 C73_3 1_555 1_555
H48_3 C78_3 1_555 1_555
C81_3 O18_2 1_555 1_555
C71_3 C72_3 1_555 1_555
C76_3 C81_3 1_555 1_555
C77_3 C78_3 1_555 1_555
O5_4 C15_4 1_555 1_555
O6_3 H1_3 1_555 1_555
H3_4 C4_4 1_555 1_555
C5_4 C4_4 1_555 1_555
C7_4 C5_4 1_555 1_555
C8_4 C7_4 1_555 1_555
H5_4 C8_4 1_555 1_555
C9_4 C8_4 1_555 1_555
H6_4 C9_4 1_555 1_555
C10_4 C9_4 1_555 1_555
C11_4 C10_4 1_555 1_555
H7_4 C11_4 1_555 1_555
C12_4 C7_4 1_555 1_555
H8_4 C12_4 1_555 1_555
C15_4 O6_3 1_555 1_555
O11_4 C66_4 1_555 1_555
O12_3 H33_3 1_555 1_555
H35_4 C55_4 1_555 1_555
C56_4 C55_4 1_555 1_555
C58_4 C56_4 1_555 1_555
C59_4 C58_4 1_555 1_555
H37_4 C59_4 1_555 1_555
C60_4 C59_4 1_555 1_555
H38_4 C60_4 1_555 1_555
C61_4 C60_4 1_555 1_555
C62_4 C61_4 1_555 1_555
H39_4 C62_4 1_555 1_555
C63_4 C58_4 1_555 1_555
H40_4 C63_4 1_555 1_555
C66_4 O12_3 1_555 1_555
O17_4 C81_4 1_555 1_555
O18_3 H41_3 1_555 1_555
H43_4 C70_4 1_555 1_555
C71_4 C70_4 1_555 1_555
C73_4 C71_4 1_555 1_555
C74_4 C73_4 1_555 1_555
H45_4 C74_4 1_555 1_555
C75_4 C74_4 1_555 1_555
H46_4 C75_4 1_555 1_555
C76_4 C75_4 1_555 1_555
C77_4 C76_4 1_555 1_555
H47_4 C77_4 1_555 1_555
C78_4 C73_4 1_555 1_555
H48_4 C78_4 1_555 1_555
C81_4 O18_3 1_555 1_555
Co10 O16_2 1_555 1_555
C10_4 C15_4 1_555 1_555
C11_4 C12_4 1_555 1_555
C61_4 C66_4 1_555 1_555
C62_4 C63_4 1_555 1_555
C76_4 C81_4 1_555 1_555
C77_4 C78_4 1_555 1_555
Co9_3 O1_4 1_555 1_555
O1_4 C13_4 1_555 1_555
O2_4 Co9_3 1_555 1_555
O19_3 C14_4 1_555 1_555
N1_4 Co9_3 1_555 1_555
N2_4 C21_4 1_555 1_555
N3_4 Co9_3 1_555 1_555
C1_4 C2_4 1_555 1_555
C2_4 H2_4 1_555 1_555
C3_4 C2_4 1_555 1_555
C6_4 C1_4 1_555 1_555
C13_4 O2_4 1_555 1_555
C14_4 C3_4 1_555 1_555
C16_4 N1_4 1_555 1_555
H9_4 C16_4 1_555 1_555
C17_4 C16_4 1_555 1_555
H10_4 C17_4 1_555 1_555
C18_4 C17_4 1_555 1_555
C19_4 C18_4 1_555 1_555
H11_4 C19_4 1_555 1_555
C20_4 N1_4 1_555 1_555
H12_4 C20_4 1_555 1_555
C21_4 C18_4 1_555 1_555
C22_4 N3_4 1_555 1_555
H13_4 C22_4 1_555 1_555
C23_4 C22_4 1_555 1_555
H14_4 C23_4 1_555 1_555
C24_4 C23_4 1_555 1_555
C25_4 C24_4 1_555 1_555
C26_4 N3_4 1_555 1_555
H16_4 C26_4 1_555 1_555
C27_4 C24_4 1_555 1_555
N5_4 C28_4 1_555 1_555
N6_4 C33_4 1_555 1_555
C28_4 H17_4 1_555 1_555
C29_4 C28_4 1_555 1_555
H18_4 C29_4 1_555 1_555
C30_4 C29_4 1_555 1_555
C31_4 C30_4 1_555 1_555
H19_4 C31_4 1_555 1_555
C32_4 N5_4 1_555 1_555
H20_4 C32_4 1_555 1_555
C33_4 N2_4 1_555 1_555
N7_4 C34_4 1_555 1_555
N8_4 C21_4 1_555 1_555
C34_4 H21_4 1_555 1_555
C35_4 C34_4 1_555 1_555
H22_4 C35_4 1_555 1_555
C36_4 C35_4 1_555 1_555
C37_4 C36_4 1_555 1_555
H23_4 C37_4 1_555 1_555
C38_4 N7_4 1_555 1_555
H24_4 C38_4 1_555 1_555
C39_4 N6_4 1_555 1_555
N10_4 C27_4 1_555 1_555
Co10_3 N5_4 1_555 1_555
O7_4 Co10_3 1_555 1_555
O8_4 Co10_3 1_555 1_555
O20_3 C65_4 1_555 1_555
C52_4 C53_4 1_555 1_555
C53_4 H34_4 1_555 1_555
C54_4 C53_4 1_555 1_555
C57_4 C52_4 1_555 1_555
C64_4 O7_4 1_555 1_555
C65_4 C54_4 1_555 1_555
Co11_3 N7_4 1_555 1_555
O13_4 Co11_3 1_555 1_555
O14_4 Co11_3 1_555 1_555
O21_3 C80_4 1_555 1_555
C67_4 C68_4 1_555 1_555
C68_4 H42_4 1_555 1_555
C69_4 C68_4 1_555 1_555
C72_4 C67_4 1_555 1_555
C79_4 O13_4 1_555 1_555
C80_4 C69_4 1_555 1_555
O22_3 Co11_3 1_555 1_555
O23_3 Co9_3 1_555 1_555
O24_3 Co10_3 1_555 1_555
N13 Co10_3 1_555 1_555
N14 Co11_3 1_555 1_555
C1_4 C13_4 1_555 1_555
C19_4 C20_4 1_555 1_555
C25_4 C26_4 1_555 1_555
C30_4 C33_4 1_555 1_555
C31_4 C32_4 1_555 1_555
N8_4 C39_4 1_555 1_555
C36_4 C39_4 1_555 1_555
C37_4 C38_4 1_555 1_555
O8_4 C64_4 1_555 1_555
C52_4 C64_4 1_555 1_555
O14_4 C79_4 1_555 1_555
C67_4 C79_4 1_555 1_555
N13 C40_4 1_555 1_555
C40_4 H25_4 1_555 1_555
C41_4 C40_4 1_555 1_555
C42_4 C41_4 1_555 1_555
C43_4 C42_4 1_555 1_555
C44_4 N13 1_555 1_555
H28_4 C44_4 1_555 1_555
C42_4 C45_4 1_555 1_555
C43_4 C44_4 1_555 1_555
N14 C46_4 1_555 1_555
C46_4 H29_4 1_555 1_555
C47_4 C46_4 1_555 1_555
C48_4 C47_4 1_555 1_555
C49_4 C48_4 1_555 1_555
H31_4 C49_4 1_555 1_555
C50_4 N14 1_555 1_555
H32_4 C50_4 1_555 1_555
N12_4 C51_4 1_555 1_555
C48_4 C51_4 1_555 1_555
C49_4 C50_4 1_555 1_555
N7_5 C34_5 1_555 1_555
C34_5 H21_5 1_555 1_555
C35_5 C34_5 1_555 1_555
C36_5 C35_5 1_555 1_555
C37_5 C36_5 1_555 1_555
H23_5 C37_5 1_555 1_555
C38_5 N7_5 1_555 1_555
H24_5 C38_5 1_555 1_555
C39_5 N6_5 1_555 1_555
O20_2 C65_5 1_555 1_555
O23_3 C65_5 1_555 1_555
C65_5 C54_5 1_555 1_555
Co11_2 N7_5 1_555 1_555
O13_5 Co11_2 1_555 1_555
O14_5 Co11_2 1_555 1_555
O17_5 C81_5 1_555 1_555
C67_5 C68_5 1_555 1_555
C68_5 H42_5 1_555 1_555
C71_5 C70_5 1_555 1_555
C72_5 C67_5 1_555 1_555
H44_5 C72_5 1_555 1_555
C73_5 C71_5 1_555 1_555
C74_5 C73_5 1_555 1_555
H45_5 C74_5 1_555 1_555
C75_5 C74_5 1_555 1_555
H46_5 C75_5 1_555 1_555
C76_5 C75_5 1_555 1_555
C77_5 C76_5 1_555 1_555
H47_5 C77_5 1_555 1_555
C78_5 C73_5 1_555 1_555
H48_5 C78_5 1_555 1_555
C79_5 O13_5 1_555 1_555
O22_4 Co11_2 1_555 1_555
N14_2 Co11_2 1_555 1_555
C36_5 C39_5 1_555 1_555
C37_5 C38_5 1_555 1_555
O14_5 C79_5 1_555 1_555
C67_5 C79_5 1_555 1_555
C71_5 C72_5 1_555 1_555
C76_5 C81_5 1_555 1_555
C77_5 C78_5 1_555 1_555
N5_5 C28_5 1_555 1_555
C28_5 H17_5 1_555 1_555
C29_5 C28_5 1_555 1_555
C30_5 C29_5 1_555 1_555
C31_5 C30_5 1_555 1_555
H19_5 C31_5 1_555 1_555
C32_5 N5_5 1_555 1_555
H20_5 C32_5 1_555 1_555
Co10_2 N5_5 1_555 1_555
O7_5 Co10_2 1_555 1_555
O8_5 Co10_2 1_555 1_555
O11_5 C66_5 1_555 1_555
C52_5 C53_5 1_555 1_555
C53_5 H34_5 1_555 1_555
C56_5 C55_5 1_555 1_555
C57_5 C52_5 1_555 1_555
H36_5 C57_5 1_555 1_555
C58_5 C56_5 1_555 1_555
C59_5 C58_5 1_555 1_555
H37_5 C59_5 1_555 1_555
C60_5 C59_5 1_555 1_555
H38_5 C60_5 1_555 1_555
C61_5 C60_5 1_555 1_555
C62_5 C61_5 1_555 1_555
H39_5 C62_5 1_555 1_555
C63_5 C58_5 1_555 1_555
H40_5 C63_5 1_555 1_555
C64_5 O7_5 1_555 1_555
O24_4 Co10_2 1_555 1_555
N13_2 Co10_2 1_555 1_555
C30_5 C33_5 1_555 1_555
C31_5 C32_5 1_555 1_555
O8_5 C64_5 1_555 1_555
C52_5 C64_5 1_555 1_555
C56_5 C57_5 1_555 1_555
C61_5 C66_5 1_555 1_555
C62_5 C63_5 1_555 1_555
O21_2 C80_5 1_555 1_555
O24_3 C80_5 1_555 1_555
C80_5 C69_5 1_555 1_555
Co9_2 O1_5 1_555 1_555
O1_5 C13_5 1_555 1_555
O2_5 Co9_2 1_555 1_555
O19_2 C14_5 1_555 1_555
O22_3 C14_5 1_555 1_555
O5_5 C15_5 1_555 1_555
N1_5 Co9_2 1_555 1_555
N2_5 C21_5 1_555 1_555
N3_5 Co9_2 1_555 1_555
N4_5 C27_5 1_555 1_555
C1_5 C2_5 1_555 1_555
C2_5 H2_5 1_555 1_555
C3_5 C2_5 1_555 1_555
C4_5 C3_5 1_555 1_555
H3_5 C4_5 1_555 1_555
C5_5 C4_5 1_555 1_555
C6_5 C1_5 1_555 1_555
H4_5 C6_5 1_555 1_555
C7_5 C5_5 1_555 1_555
C8_5 C7_5 1_555 1_555
H5_5 C8_5 1_555 1_555
C9_5 C8_5 1_555 1_555
H6_5 C9_5 1_555 1_555
C10_5 C9_5 1_555 1_555
C11_5 C10_5 1_555 1_555
H7_5 C11_5 1_555 1_555
C12_5 C7_5 1_555 1_555
H8_5 C12_5 1_555 1_555
C13_5 O2_5 1_555 1_555
C14_5 C3_5 1_555 1_555
C16_5 N1_5 1_555 1_555
H9_5 C16_5 1_555 1_555
C17_5 C16_5 1_555 1_555
H10_5 C17_5 1_555 1_555
C18_5 C17_5 1_555 1_555
C19_5 C18_5 1_555 1_555
H11_5 C19_5 1_555 1_555
C20_5 N1_5 1_555 1_555
H12_5 C20_5 1_555 1_555
C21_5 C18_5 1_555 1_555
C22_5 N3_5 1_555 1_555
H13_5 C22_5 1_555 1_555
C23_5 C22_5 1_555 1_555
H14_5 C23_5 1_555 1_555
C24_5 C23_5 1_555 1_555
C25_5 C24_5 1_555 1_555
H15_5 C25_5 1_555 1_555
C26_5 N3_5 1_555 1_555
H16_5 C26_5 1_555 1_555
C27_5 C24_5 1_555 1_555
N13_2 C40_5 1_555 1_555
N10_5 C27_5 1_555 1_555
C40_5 H25_5 1_555 1_555
C41_5 C40_5 1_555 1_555
H26_5 C41_5 1_555 1_555
C42_5 C41_5 1_555 1_555
C43_5 C42_5 1_555 1_555
H27_5 C43_5 1_555 1_555
C44_5 N13_2 1_555 1_555
H28_5 C44_5 1_555 1_555
C45_5 N10_5 1_555 1_555
N14_2 C46_5 1_555 1_555
N12_5 C45_5 1_555 1_555
C46_5 H29_5 1_555 1_555
C47_5 C46_5 1_555 1_555
H30_5 C47_5 1_555 1_555
C48_5 C47_5 1_555 1_555
C49_5 C48_5 1_555 1_555
H31_5 C49_5 1_555 1_555
C50_5 N14_2 1_555 1_555
H32_5 C50_5 1_555 1_555
C51_5 N4_5 1_555 1_555
O23_4 Co9_2 1_555 1_555
C1_5 C13_5 1_555 1_555
C5_5 C6_5 1_555 1_555
C10_5 C15_5 1_555 1_555
C11_5 C12_5 1_555 1_555
C19_5 C20_5 1_555 1_555
C25_5 C26_5 1_555 1_555
C42_5 C45_5 1_555 1_555
C43_5 C44_5 1_555 1_555
N12_5 C51_5 1_555 1_555
C48_5 C51_5 1_555 1_555
C49_5 C50_5 1_555 1_555
O14_6 Co11 1_555 1_555
O17_6 C81_6 1_555 1_555
O18_4 H41_4 1_555 1_555
H44_6 C72_6 1_555 1_555
C73_6 C71_6 1_555 1_555
C76_6 C75_6 1_555 1_555
C77_6 C76_6 1_555 1_555
H47_6 C77_6 1_555 1_555
C78_6 C73_6 1_555 1_555
H48_6 C78_6 1_555 1_555
C81_6 O18_4 1_555 1_555
N14_3 Co11 1_555 1_555
C71_6 C72_6 1_555 1_555
C76_6 C81_6 1_555 1_555
C77_6 C78_6 1_555 1_555
O1_6 C13_6 1_555 1_555
O19 C14_6 1_555 1_555
O22_4 C14_6 1_555 1_555
N2_6 C21_6 1_555 1_555
C1_6 C2_6 1_555 1_555
C2_6 H2_6 1_555 1_555
C3_6 C2_6 1_555 1_555
C4_6 C3_6 1_555 1_555
H3_6 C4_6 1_555 1_555
H5_6 C8_6 1_555 1_555
C14_6 C3_6 1_555 1_555
C16_6 N1_6 1_555 1_555
H9_6 C16_6 1_555 1_555
C17_6 C16_6 1_555 1_555
H10_6 C17_6 1_555 1_555
C18_6 C17_6 1_555 1_555
C19_6 C18_6 1_555 1_555
H11_6 C19_6 1_555 1_555
C20_6 N1_6 1_555 1_555
H12_6 C20_6 1_555 1_555
C21_6 C18_6 1_555 1_555
N5_6 C28_6 1_555 1_555
N6_6 C33_6 1_555 1_555
C28_6 H17_6 1_555 1_555
C29_6 C28_6 1_555 1_555
H18_6 C29_6 1_555 1_555
C30_6 C29_6 1_555 1_555
C31_6 C30_6 1_555 1_555
H19_6 C31_6 1_555 1_555
C32_6 N5_6 1_555 1_555
H20_6 C32_6 1_555 1_555
C33_6 N2_6 1_555 1_555
N7_6 C34_6 1_555 1_555
N8_6 C21_6 1_555 1_555
C34_6 H21_6 1_555 1_555
C35_6 C34_6 1_555 1_555
H22_6 C35_6 1_555 1_555
C36_6 C35_6 1_555 1_555
C37_6 C36_6 1_555 1_555
H23_6 C37_6 1_555 1_555
C38_6 N7_6 1_555 1_555
H24_6 C38_6 1_555 1_555
C39_6 N6_6 1_555 1_555
Co10 N5_6 1_555 1_555
O7_6 Co10 1_555 1_555
O8_6 Co10 1_555 1_555
O20 C65_6 1_555 1_555
O23_4 C65_6 1_555 1_555
O11_6 C66_6 1_555 1_555
O12_4 H33_4 1_555 1_555
C52_6 C53_6 1_555 1_555
C53_6 H34_6 1_555 1_555
C54_6 C53_6 1_555 1_555
C55_6 C54_6 1_555 1_555
H35_6 C55_6 1_555 1_555
C56_6 C55_6 1_555 1_555
C57_6 C52_6 1_555 1_555
H36_6 C57_6 1_555 1_555
C58_6 C56_6 1_555 1_555
C59_6 C58_6 1_555 1_555
H37_6 C59_6 1_555 1_555
C60_6 C59_6 1_555 1_555
H38_6 C60_6 1_555 1_555
C61_6 C60_6 1_555 1_555
C62_6 C61_6 1_555 1_555
H39_6 C62_6 1_555 1_555
C63_6 C58_6 1_555 1_555
H40_6 C63_6 1_555 1_555
C64_6 O7_6 1_555 1_555
C65_6 C54_6 1_555 1_555
C66_6 O12_4 1_555 1_555
O21 C80_6 1_555 1_555
O24_4 C80_6 1_555 1_555
C67_6 C68_6 1_555 1_555
C68_6 H42_6 1_555 1_555
C69_6 C68_6 1_555 1_555
C70_6 C69_6 1_555 1_555
H43_6 C70_6 1_555 1_555
H45_6 C74_6 1_555 1_555
C79_6 O13_6 1_555 1_555
C80_6 C69_6 1_555 1_555
N13_3 Co10 1_555 1_555
C1_6 C13_6 1_555 1_555
C19_6 C20_6 1_555 1_555
C30_6 C33_6 1_555 1_555
C31_6 C32_6 1_555 1_555
N8_6 C39_6 1_555 1_555
C36_6 C39_6 1_555 1_555
C37_6 C38_6 1_555 1_555
O8_6 C64_6 1_555 1_555
C52_6 C64_6 1_555 1_555
C56_6 C57_6 1_555 1_555
C61_6 C66_6 1_555 1_555
C62_6 C63_6 1_555 1_555
C67_6 C79_6 1_555 1_555
O2_6 Co9 1_555 1_555
O5_6 C15_6 1_555 1_555
O6_4 H1_4 1_555 1_555
N3_6 Co9 1_555 1_555
N4_6 C27_6 1_555 1_555
H4_6 C6_6 1_555 1_555
C7_6 C5_6 1_555 1_555
C10_6 C9_6 1_555 1_555
C11_6 C10_6 1_555 1_555
H7_6 C11_6 1_555 1_555
C12_6 C7_6 1_555 1_555
H8_6 C12_6 1_555 1_555
C15_6 O6_4 1_555 1_555
C22_6 N3_6 1_555 1_555
H13_6 C22_6 1_555 1_555
C23_6 C22_6 1_555 1_555
H14_6 C23_6 1_555 1_555
C24_6 C23_6 1_555 1_555
C25_6 C24_6 1_555 1_555
H15_6 C25_6 1_555 1_555
C26_6 N3_6 1_555 1_555
H16_6 C26_6 1_555 1_555
C27_6 C24_6 1_555 1_555
N13_3 C40_6 1_555 1_555
N10_6 C27_6 1_555 1_555
C40_6 H25_6 1_555 1_555
C41_6 C40_6 1_555 1_555
H26_6 C41_6 1_555 1_555
C42_6 C41_6 1_555 1_555
C43_6 C42_6 1_555 1_555
H27_6 C43_6 1_555 1_555
C44_6 N13_3 1_555 1_555
H28_6 C44_6 1_555 1_555
C45_6 N10_6 1_555 1_555
N14_3 C46_6 1_555 1_555
N12_6 C45_6 1_555 1_555
C46_6 H29_6 1_555 1_555
C47_6 C46_6 1_555 1_555
H30_6 C47_6 1_555 1_555
C48_6 C47_6 1_555 1_555
C49_6 C48_6 1_555 1_555
H31_6 C49_6 1_555 1_555
C50_6 N14_3 1_555 1_555
H32_6 C50_6 1_555 1_555
C51_6 N4_6 1_555 1_555
C5_6 C6_6 1_555 1_555
C10_6 C15_6 1_555 1_555
C11_6 C12_6 1_555 1_555
C25_6 C26_6 1_555 1_555
C42_6 C45_6 1_555 1_555
C43_6 C44_6 1_555 1_555
N12_6 C51_6 1_555 1_555
C48_6 C51_6 1_555 1_555
C49_6 C50_6 1_555 1_555
O6_5 H1_5 1_555 1_555
O12_5 H33_5 1_555 1_555
O18_5 H41_5 1_555 1_555
O18_6 H41_6 1_555 1_555
O12_6 H33_6 1_555 1_555
O6_6 H1_6 1_555 1_555

#END
