
###############################################################################
#
# This file contains modified crystal structure data generated from the
# MOF subset of the Cambridge Structural Database (CSD) v543 
# hosted by the Cambridge Crystallographic Data Centre (CCDC).
#
# This work is licensed under the Creative Commons
# Attribution-NonCommercial-ShareAlike 4.0 International License.
# To view a copy of this license, visit
# http://creativecommons.org/licenses/by-nc-sa/4.0/
# or send a letter to
# Creative Commons, PO Box 1866, Mountain View, CA 94042, USA.
#
# CIF created using the CSD Python API on 29 September 2022
# The structure has been converted into the P1 space group
# The structure has a 3D framework
# The original CSD entry AQABEC is in the monoclinic crystal system
# The framework has been calculated to contain at least 10.0% void space
# The void calculation uses a probe of radius 1.32A, grid spacing 0.4
#
###############################################################################

data_AQABEC
_chemical_formula_moiety         '(C180 H108 Cl4 Co8 N48 O24)n'
_symmetry_cell_setting           triclinic
_symmetry_space_group_name_H-M   'P 1'
_symmetry_Int_Tables_number      1
_space_group_name_Hall           'P 1'
loop_
_symmetry_equiv_pos_site_id
_symmetry_equiv_pos_as_xyz
1 x,y,z
_cell_length_a                   13.850(3)
_cell_length_b                   13.682(3)
_cell_length_c                   26.863(7)
_cell_angle_alpha                90
_cell_angle_beta                 97.757(4)
_cell_angle_gamma                90
_cell_volume                     5043.84
loop_
_atom_site_label
_atom_site_type_symbol
_atom_site_fract_x
_atom_site_fract_y
_atom_site_fract_z
Co1 Co 0.37643(3) 0.73361(4) 0.21927(2)
Co2 Co 0.11136(4) 0.73671(4) 0.22212(2)
Cl1 Cl 0.23892(7) 0.83493(8) 0.19744(4)
N3 N 0.1215(2) 0.4176(3) 0.01247(12)
N6 N 0.0998(2) 0.6596(3) 0.15132(12)
N9 N 0.3765(3) 0.4200(3) 0.00776(12)
N12 N 0.3599(2) 0.6599(3) 0.14765(12)
C3 C 0.1201(3) 0.5147(3) 0.01260(14)
C5 C 0.1039(5) 0.2118(4) 0.0046(2)
H1 H 0.089923 0.241078 0.034039
H2 H 0.082861 0.074347 0.025498
C14 C 0.1114(3) 0.5654(3) 0.06077(14)
C15 C 0.1099(3) 0.6660(3) 0.06356(15)
H9 H 0.112768 0.703663 0.034971
C16 C 0.1039(3) 0.7104(3) 0.10927(15)
H10 H 0.102783 0.778253 0.110766
C17 C 0.0994(3) 0.5625(3) 0.14818(14)
H11 H 0.094825 0.526648 0.177198
C18 C 0.1053(3) 0.5124(3) 0.10444(14)
H12 H 0.105198 0.444394 0.103980
C21 C 0.3721(3) 0.5176(3) 0.00724(14)
C23 C 0.3793(6) 0.2128(4) 0.0020(2)
H13 H 0.371122 0.240621 0.032775
H14 H 0.368604 0.074489 0.023328
C32 C 0.3646(3) 0.5675(3) 0.05558(14)
C33 C 0.3575(3) 0.6678(3) 0.05870(15)
H21 H 0.354537 0.706049 0.029915
C34 C 0.3549(3) 0.7106(3) 0.10471(16)
H22 H 0.349426 0.778290 0.106152
C35 C 0.3653(3) 0.5634(3) 0.14462(15)
H23 H 0.368011 0.527121 0.174065
C36 C 0.3670(3) 0.5136(3) 0.09955(15)
H24 H 0.369647 0.445721 0.098882
O7 O 0.48558(18) 0.8191(2) 0.19934(11)
O8 O 0.33246(18) 0.61321(19) 0.25208(10)
O9 O 0.17294(18) 0.61872(19) 0.25803(10)
N13 N 0.1218(3) 0.8124(3) 0.29345(12)
N14 N 0.3990(2) 0.8079(3) 0.29143(12)
N1 N 0.1380(2) 0.4252(3) 0.92593(12)
N2 N 0.1233(2) 0.5708(3) 0.97180(12)
N4 N 0.1211(5) 0.0638(4) 0.95894(19)
N5 N 0.1218(3) 0.6876(3) 0.79345(12)
N7 N 0.3929(2) 0.4278(3) 0.92096(12)
N8 N 0.3770(2) 0.5735(3) 0.96680(12)
N10 N 0.3951(5) 0.0676(4) 0.9549(2)
N11 N 0.3990(2) 0.6921(3) 0.79143(12)
C1 C 0.1301(3) 0.3759(3) 0.96843(14)
C2 C 0.1316(3) 0.5217(3) 0.92938(14)
C4 C 0.1285(3) 0.2677(4) 0.96526(16)
C6 C 0.1007(6) 0.1112(5) 0.9991(2)
C7 C 0.1426(5) 0.1191(4) 0.9213(2)
H3 H 0.155555 0.088033 0.892167
C8 C 0.1469(4) 0.2200(4) 0.92289(18)
H4 H 0.162178 0.255012 0.895340
C9 C 0.1309(3) 0.5802(3) 0.88266(14)
C10 C 0.1260(3) 0.5333(3) 0.83663(15)
H5 H 0.125931 0.465378 0.834827
C11 C 0.1211(3) 0.5891(3) 0.79343(15)
H6 H 0.117156 0.556920 0.762722
C12 C 0.1281(4) 0.7315(4) 0.83855(17)
H7 H 0.130385 0.799411 0.839661
C13 C 0.1316(4) 0.6811(4) 0.88336(16)
H8 H 0.134303 0.714744 0.913599
C19 C 0.3868(3) 0.3785(3) 0.96355(14)
C20 C 0.3875(3) 0.5246(3) 0.92463(14)
C22 C 0.3913(3) 0.2705(3) 0.96123(16)
C24 C 0.3799(7) 0.1127(5) 0.9961(2)
C25 C 0.4076(5) 0.1243(4) 0.9159(2)
H15 H 0.418324 0.094344 0.886093
C26 C 0.4056(4) 0.2236(4) 0.91742(18)
H16 H 0.413746 0.259762 0.888973
C27 C 0.3936(3) 0.5830(3) 0.87885(14)
C28 C 0.4022(3) 0.5374(3) 0.83336(14)
H17 H 0.406531 0.469670 0.831428
C29 C 0.4042(3) 0.5943(3) 0.79127(14)
H18 H 0.409536 0.563176 0.760994
C30 C 0.3936(4) 0.7351(3) 0.83571(16)
H19 H 0.391997 0.802979 0.836806
C31 C 0.3903(3) 0.6845(3) 0.87971(15)
H20 H 0.385923 0.717642 0.909541
Co5 Co 0.37643(3) 0.76639(4) 0.71927(2)
Co7 Co 0.11136(4) 0.76329(4) 0.72212(2)
O5 O 0.66754(18) 0.11321(19) 0.24792(10)
O6 O 0.82706(18) 0.11872(19) 0.24197(10)
C45 C 0.7463(2) 0.0760(3) 0.23929(12)
Co4 Co 0.62357(3) 0.23361(4) 0.28073(2)
Co6 Co 0.88864(4) 0.23671(4) 0.27788(2)
O2 O 0.5539(2) 0.6794(2) 0.22411(13)
O3 O 0.9430(2) 0.6858(2) 0.22684(13)
O4 O 0.99412(18) 0.8243(2) 0.19853(11)
C37 C 0.6565(2) 0.8175(3) 0.21518(13)
C38 C 0.7438(3) 0.7680(3) 0.21233(14)
H25 H 0.743796 0.700344 0.208901
C39 C 0.8308(2) 0.8197(3) 0.21461(13)
C40 C 0.8307(2) 0.9204(3) 0.22090(13)
H26 H 0.888418 0.955375 0.221527
C41 C 0.7447(2) 0.9694(3) 0.22625(12)
C42 C 0.6576(2) 0.9177(3) 0.22223(13)
H27 H 0.599617 0.950785 0.224280
C43 C 0.5595(3) 0.7659(3) 0.21238(14)
C44 C 0.9286(3) 0.7706(3) 0.21244(15)
O1 O 0.51442(18) 0.3191(2) 0.30066(11)
O2_2 O 0.4461(2) 0.1794(2) 0.27589(13)
O3_2 O 0.0570(2) 0.1858(2) 0.27316(13)
O4_2 O 0.00588(18) 0.3243(2) 0.30147(11)
C37_2 C 0.3435(2) 0.3175(3) 0.28482(13)
C38_2 C 0.2562(3) 0.2680(3) 0.28767(14)
H25_2 H 0.256204 0.200344 0.291099
C39_2 C 0.1692(2) 0.3197(3) 0.28539(13)
C40_2 C 0.1693(2) 0.4204(3) 0.27910(13)
H26_2 H 0.111582 0.455375 0.278473
C41_2 C 0.2553(2) 0.4694(3) 0.27375(12)
C42_2 C 0.3424(2) 0.4177(3) 0.27777(13)
H27_2 H 0.400383 0.450785 0.275720
C43_2 C 0.4405(3) 0.2659(3) 0.28762(14)
C44_2 C 0.0714(3) 0.2706(3) 0.28756(15)
C45_2 C 0.2537(2) 0.5760(3) 0.26071(12)
Cl1_2 Cl 0.76108(7) 0.33493(8) 0.30256(4)
N2_2 N 0.8767(2) 0.0708(3) 0.52820(12)
N5_2 N 0.8782(3) 0.1876(3) 0.70655(12)
N6_2 N 0.9002(2) 0.1596(3) 0.34868(12)
N8_2 N 0.6230(2) 0.0735(3) 0.53320(12)
N11_2 N 0.6010(2) 0.1921(3) 0.70857(12)
N12_2 N 0.6401(2) 0.1599(3) 0.35235(12)
C2_2 C 0.8684(3) 0.0217(3) 0.57062(14)
C3_2 C 0.8799(3) 0.0147(3) 0.48740(14)
C9_2 C 0.8691(3) 0.0802(3) 0.61734(14)
C10_2 C 0.8740(3) 0.0333(3) 0.66337(15)
C11_2 C 0.8789(3) 0.0891(3) 0.70657(15)
H6_2 H 0.882844 0.056920 0.737278
C12_2 C 0.8719(4) 0.2315(4) 0.66145(17)
H7_2 H 0.869615 0.299411 0.660339
C13_2 C 0.8684(4) 0.1811(4) 0.61664(16)
H8_2 H 0.865697 0.214744 0.586401
C14_2 C 0.8886(3) 0.0654(3) 0.43923(14)
C15_2 C 0.8901(3) 0.1660(3) 0.43644(15)
H9_2 H 0.887232 0.203663 0.465029
C16_2 C 0.8961(3) 0.2104(3) 0.39073(15)
H10_2 H 0.897217 0.278253 0.389234
C17_2 C 0.9006(3) 0.0625(3) 0.35182(14)
H11_2 H 0.905175 0.026648 0.322802
C18_2 C 0.8947(3) 0.0124(3) 0.39556(14)
C20_2 C 0.6125(3) 0.0246(3) 0.57537(14)
C21_2 C 0.6279(3) 0.0176(3) 0.49276(14)
C27_2 C 0.6064(3) 0.0830(3) 0.62115(14)
C28_2 C 0.5978(3) 0.0374(3) 0.66664(14)
C29_2 C 0.5958(3) 0.0943(3) 0.70873(14)
H18_2 H 0.590464 0.063176 0.739006
C30_2 C 0.6064(4) 0.2351(3) 0.66429(16)
H19_2 H 0.608003 0.302979 0.663194
C31_2 C 0.6097(3) 0.1845(3) 0.62029(15)
H20_2 H 0.614077 0.217642 0.590459
C32_2 C 0.6354(3) 0.0675(3) 0.44442(14)
C33_2 C 0.6425(3) 0.1678(3) 0.44130(15)
H21_2 H 0.645463 0.206049 0.470085
C34_2 C 0.6451(3) 0.2106(3) 0.39529(16)
H22_2 H 0.650574 0.278290 0.393848
C35_2 C 0.6347(3) 0.0634(3) 0.35538(15)
H23_2 H 0.631989 0.027121 0.325935
C36_2 C 0.6330(3) 0.0136(3) 0.40045(15)
Co5_2 Co 0.62357(3) 0.26639(4) 0.78073(2)
Co7_2 Co 0.88864(4) 0.26329(4) 0.77788(2)
N13_2 N 0.8782(3) 0.3124(3) 0.20655(12)
N14_2 N 0.6010(2) 0.3079(3) 0.20857(12)
O1_2 O 0.51442(18) 0.1809(2) 0.80066(11)
O2_3 O 0.4461(2) 0.3206(2) 0.77589(13)
O3_3 O 0.0570(2) 0.3142(2) 0.77316(13)
O4_3 O 0.00588(18) 0.1757(2) 0.80147(11)
C37_3 C 0.3435(2) 0.1825(3) 0.78482(13)
C38_3 C 0.2562(3) 0.2320(3) 0.78767(14)
H25_3 H 0.256204 0.299656 0.791099
C39_3 C 0.1692(2) 0.1803(3) 0.78539(13)
C40_3 C 0.1693(2) 0.0796(3) 0.77910(13)
H26_3 H 0.111582 0.044625 0.778473
C41_3 C 0.2553(2) 0.0306(3) 0.77375(12)
C42_3 C 0.3424(2) 0.0823(3) 0.77777(13)
H27_3 H 0.400383 0.049215 0.775720
C43_3 C 0.4405(3) 0.2341(3) 0.78762(14)
C44_3 C 0.0714(3) 0.2294(3) 0.78756(15)
O5_2 O 0.33246(18) 0.88679(19) 0.75208(10)
O6_2 O 0.17294(18) 0.88128(19) 0.75803(10)
C45_3 C 0.2537(2) 0.9240(3) 0.76071(12)
N1_2 N 0.8620(2) 0.5748(3) 0.07407(12)
N2_3 N 0.8767(2) 0.4292(3) 0.02820(12)
N4_2 N 0.8789(5) 0.9362(4) 0.04106(19)
N7_2 N 0.6071(2) 0.5722(3) 0.07904(12)
N8_3 N 0.6230(2) 0.4265(3) 0.03320(12)
N10_2 N 0.6049(5) 0.9324(4) 0.0451(2)
C1_2 C 0.8699(3) 0.6241(3) 0.03157(14)
C2_3 C 0.8684(3) 0.4783(3) 0.07062(14)
C4_2 C 0.8715(3) 0.7323(4) 0.03474(16)
C6_2 C 0.8993(6) 0.8888(5) 0.0009(2)
C7_2 C 0.8574(5) 0.8809(4) 0.0787(2)
H3_2 H 0.844445 0.911967 0.107833
C8_2 C 0.8531(4) 0.7800(4) 0.07711(18)
H4_2 H 0.837822 0.744988 0.104660
C9_3 C 0.8691(3) 0.4198(3) 0.11734(14)
C10_3 C 0.8740(3) 0.4667(3) 0.16337(15)
H5_2 H 0.874069 0.534622 0.165173
C11_3 C 0.8789(3) 0.4109(3) 0.20657(15)
H6_3 H 0.882844 0.443080 0.237278
C12_3 C 0.8719(4) 0.2685(4) 0.16145(17)
H7_3 H 0.869615 0.200589 0.160339
C13_3 C 0.8684(4) 0.3189(4) 0.11664(16)
H8_3 H 0.865697 0.285256 0.086401
C19_2 C 0.6132(3) 0.6215(3) 0.03645(14)
C20_3 C 0.6125(3) 0.4754(3) 0.07537(14)
C22_2 C 0.6087(3) 0.7295(3) 0.03877(16)
C24_2 C 0.6201(7) 0.8873(5) 0.0039(2)
C25_2 C 0.5924(5) 0.8757(4) 0.0841(2)
H15_2 H 0.581676 0.905656 0.113907
C26_2 C 0.5944(4) 0.7764(4) 0.08258(18)
H16_2 H 0.586254 0.740238 0.111027
C27_3 C 0.6064(3) 0.4170(3) 0.12115(14)
C28_3 C 0.5978(3) 0.4626(3) 0.16664(14)
H17_2 H 0.593469 0.530330 0.168572
C29_3 C 0.5958(3) 0.4057(3) 0.20873(14)
H18_3 H 0.590464 0.436824 0.239006
C30_3 C 0.6064(4) 0.2649(3) 0.16429(16)
H19_3 H 0.608003 0.197021 0.163194
C31_3 C 0.6097(3) 0.3155(3) 0.12029(15)
H20_3 H 0.614077 0.282358 0.090459
Cl1_3 Cl 0.76108(7) 0.16507(8) 0.80256(4)
N3_2 N 0.8785(2) 0.5824(3) 0.98753(12)
N6_3 N 0.9002(2) 0.3404(3) 0.84868(12)
N9_2 N 0.6235(3) 0.5800(3) 0.99224(12)
N12_3 N 0.6401(2) 0.3401(3) 0.85235(12)
C3_3 C 0.8799(3) 0.4853(3) 0.98740(14)
C5_2 C 0.8961(5) 0.7882(4) 0.9954(2)
H1_2 H 0.910077 0.758922 0.965961
H2_2 H 0.917139 0.925653 0.974502
C14_3 C 0.8886(3) 0.4346(3) 0.93923(14)
C15_3 C 0.8901(3) 0.3340(3) 0.93644(15)
H9_3 H 0.887232 0.296337 0.965029
C16_3 C 0.8961(3) 0.2896(3) 0.89073(15)
H10_3 H 0.897217 0.221747 0.889234
C17_3 C 0.9006(3) 0.4375(3) 0.85182(14)
H11_3 H 0.905175 0.473352 0.822802
C18_3 C 0.8947(3) 0.4876(3) 0.89556(14)
H12_2 H 0.894802 0.555606 0.896020
C21_3 C 0.6279(3) 0.4824(3) 0.99276(14)
C23_2 C 0.6207(6) 0.7872(4) 0.9980(2)
H13_2 H 0.628878 0.759379 0.967225
H14_2 H 0.631396 0.925511 0.976672
C32_3 C 0.6354(3) 0.4325(3) 0.94442(14)
C33_3 C 0.6425(3) 0.3322(3) 0.94130(15)
H21_3 H 0.645463 0.293951 0.970085
C34_3 C 0.6451(3) 0.2894(3) 0.89529(16)
H22_3 H 0.650574 0.221710 0.893848
C35_3 C 0.6347(3) 0.4366(3) 0.85538(15)
H23_3 H 0.631989 0.472879 0.825935
C36_3 C 0.6330(3) 0.4864(3) 0.90045(15)
H24_2 H 0.630353 0.554279 0.901118
O8_2 O 0.66754(18) 0.38679(19) 0.74792(10)
O9_2 O 0.82706(18) 0.38128(19) 0.74197(10)
Cl1_4 Cl 0.23892(7) 0.66507(8) 0.69744(4)
N2_4 N 0.1233(2) 0.9292(3) 0.47180(12)
N6_4 N 0.0998(2) 0.8404(3) 0.65132(12)
N8_4 N 0.3770(2) 0.9265(3) 0.46680(12)
N12_4 N 0.3599(2) 0.8401(3) 0.64765(12)
C2_4 C 0.1316(3) 0.9783(3) 0.42938(14)
C3_4 C 0.1201(3) 0.9853(3) 0.51260(14)
C9_4 C 0.1309(3) 0.9198(3) 0.38266(14)
C10_4 C 0.1260(3) 0.9667(3) 0.33663(15)
C11_4 C 0.1211(3) 0.9109(3) 0.29343(15)
H6_4 H 0.117156 0.943080 0.262722
C12_4 C 0.1281(4) 0.7685(4) 0.33855(17)
H7_4 H 0.130385 0.700589 0.339661
C13_4 C 0.1316(4) 0.8189(4) 0.38336(16)
H8_4 H 0.134303 0.785256 0.413599
C14_4 C 0.1114(3) 0.9346(3) 0.56077(14)
C15_4 C 0.1099(3) 0.8340(3) 0.56356(15)
H9_4 H 0.112768 0.796337 0.534971
C16_4 C 0.1039(3) 0.7896(3) 0.60927(15)
H10_4 H 0.102783 0.721747 0.610766
C17_4 C 0.0994(3) 0.9375(3) 0.64818(14)
H11_4 H 0.094825 0.973352 0.677198
C18_4 C 0.1053(3) 0.9876(3) 0.60444(14)
C20_4 C 0.3875(3) 0.9754(3) 0.42463(14)
C21_4 C 0.3721(3) 0.9824(3) 0.50724(14)
C27_4 C 0.3936(3) 0.9170(3) 0.37885(14)
C28_4 C 0.4022(3) 0.9626(3) 0.33336(14)
C29_4 C 0.4042(3) 0.9057(3) 0.29127(14)
H18_4 H 0.409536 0.936824 0.260994
C30_4 C 0.3936(4) 0.7649(3) 0.33571(16)
H19_4 H 0.391997 0.697021 0.336806
C31_4 C 0.3903(3) 0.8155(3) 0.37971(15)
H20_4 H 0.385923 0.782358 0.409541
C32_4 C 0.3646(3) 0.9325(3) 0.55558(14)
C33_4 C 0.3575(3) 0.8322(3) 0.55870(15)
H21_4 H 0.354537 0.793951 0.529915
C34_4 C 0.3549(3) 0.7894(3) 0.60471(16)
H22_4 H 0.349426 0.721710 0.606152
C35_4 C 0.3653(3) 0.9366(3) 0.64462(15)
H23_4 H 0.368011 0.972879 0.674065
C36_4 C 0.3670(3) 0.9864(3) 0.59955(15)
O7_2 O 0.48558(18) 0.6809(2) 0.69934(11)
O2_4 O 0.5539(2) 0.8206(2) 0.72411(13)
O3_4 O 0.9430(2) 0.8142(2) 0.72684(13)
O4_4 O 0.99412(18) 0.6757(2) 0.69853(11)
C37_4 C 0.6565(2) 0.6825(3) 0.71518(13)
C38_4 C 0.7438(3) 0.7320(3) 0.71233(14)
H25_4 H 0.743796 0.799656 0.708901
C39_4 C 0.8308(2) 0.6803(3) 0.71461(13)
C40_4 C 0.8307(2) 0.5796(3) 0.72090(13)
H26_4 H 0.888418 0.544625 0.721527
C41_4 C 0.7447(2) 0.5306(3) 0.72625(12)
C42_4 C 0.6576(2) 0.5823(3) 0.72223(13)
H27_4 H 0.599617 0.549215 0.724280
C43_4 C 0.5595(3) 0.7341(3) 0.71238(14)
C44_4 C 0.9286(3) 0.7294(3) 0.71244(15)
C45_4 C 0.7463(2) 0.4240(3) 0.73929(12)
N1_3 N 0.8620(2) 0.9252(3) 0.57407(12)
N3_3 N 0.8785(2) 0.9176(3) 0.48753(12)
N4_3 N 0.8789(5) 0.5638(4) 0.54106(19)
N7_3 N 0.6071(2) 0.9278(3) 0.57904(12)
N9_3 N 0.6235(3) 0.9200(3) 0.49224(12)
N10_3 N 0.6049(5) 0.5676(4) 0.5451(2)
C1_3 C 0.8699(3) 0.8759(3) 0.53157(14)
C4_3 C 0.8715(3) 0.7677(4) 0.53474(16)
C5_3 C 0.8961(5) 0.7118(4) 0.4954(2)
H1_3 H 0.910077 0.741078 0.465961
C6_3 C 0.8993(6) 0.6112(5) 0.5009(2)
H2_3 H 0.917139 0.574347 0.474502
C7_3 C 0.8574(5) 0.6191(4) 0.5787(2)
H3_3 H 0.844445 0.588033 0.607833
C8_3 C 0.8531(4) 0.7200(4) 0.57711(18)
H4_3 H 0.837822 0.755012 0.604660
H5_3 H 0.874069 0.965378 0.665173
H12_3 H 0.894802 0.944394 0.396020
C19_3 C 0.6132(3) 0.8785(3) 0.53645(14)
C22_3 C 0.6087(3) 0.7705(3) 0.53877(16)
C23_3 C 0.6207(6) 0.7128(4) 0.4980(2)
H13_3 H 0.628878 0.740621 0.467225
C24_3 C 0.6201(7) 0.6127(5) 0.5039(2)
H14_3 H 0.631396 0.574489 0.476672
C25_3 C 0.5924(5) 0.6243(4) 0.5841(2)
H15_3 H 0.581676 0.594344 0.613907
C26_3 C 0.5944(4) 0.7236(4) 0.58258(18)
H16_3 H 0.586254 0.759762 0.611027
H17_3 H 0.593469 0.969670 0.668572
H24_3 H 0.630353 0.945721 0.401118
N1_4 N 0.1380(2) 0.0748(3) 0.42593(12)
N3_4 N 0.1215(2) 0.0824(3) 0.51247(12)
N4_4 N 0.1211(5) 0.4362(4) 0.45894(19)
N7_4 N 0.3929(2) 0.0722(3) 0.42096(12)
N9_4 N 0.3765(3) 0.0800(3) 0.50776(12)
N10_4 N 0.3951(5) 0.4324(4) 0.4549(2)
C1_4 C 0.1301(3) 0.1241(3) 0.46843(14)
C4_4 C 0.1285(3) 0.2323(4) 0.46526(16)
C5_4 C 0.1039(5) 0.2882(4) 0.5046(2)
H1_4 H 0.089923 0.258922 0.534039
C6_4 C 0.1007(6) 0.3888(5) 0.4991(2)
H2_4 H 0.082861 0.425653 0.525498
C7_4 C 0.1426(5) 0.3809(4) 0.4213(2)
H3_4 H 0.155555 0.411967 0.392167
C8_4 C 0.1469(4) 0.2800(4) 0.42289(18)
H4_4 H 0.162178 0.244988 0.395340
H5_4 H 0.125931 0.034622 0.334827
H12_4 H 0.105198 0.055606 0.603980
C19_4 C 0.3868(3) 0.1215(3) 0.46355(14)
C22_4 C 0.3913(3) 0.2295(3) 0.46123(16)
C23_4 C 0.3793(6) 0.2872(4) 0.5020(2)
H13_4 H 0.371122 0.259379 0.532775
C24_4 C 0.3799(7) 0.3873(5) 0.4961(2)
H14_4 H 0.368604 0.425511 0.523328
C25_4 C 0.4076(5) 0.3757(4) 0.4159(2)
H15_4 H 0.418324 0.405656 0.386093
C26_4 C 0.4056(4) 0.2764(4) 0.41742(18)
H16_4 H 0.413746 0.240238 0.388973
H17_4 H 0.406531 0.030330 0.331428
H24_4 H 0.369647 0.054279 0.598882
loop_
_geom_bond_atom_site_label_1
_geom_bond_atom_site_label_2
_geom_bond_site_symmetry_1
_geom_bond_site_symmetry_2
Co1 Cl1 1_555 1_555
Co2 Cl1 1_555 1_555
N6 Co2 1_555 1_555
N12 Co1 1_555 1_555
C5 H1 1_555 1_555
C14 C3 1_555 1_555
C15 C14 1_555 1_555
H9 C15 1_555 1_555
C16 N6 1_555 1_555
H10 C16 1_555 1_555
C17 N6 1_555 1_555
H11 C17 1_555 1_555
C18 C14 1_555 1_555
H12 C18 1_555 1_555
C23 H13 1_555 1_555
C32 C21 1_555 1_555
C33 C32 1_555 1_555
H21 C33 1_555 1_555
C34 N12 1_555 1_555
H22 C34 1_555 1_555
C35 N12 1_555 1_555
H23 C35 1_555 1_555
C36 C32 1_555 1_555
H24 C36 1_555 1_555
O7 Co1 1_555 1_555
O8 Co1 1_555 1_555
O9 Co2 1_555 1_555
N13 Co2 1_555 1_555
N14 Co1 1_555 1_555
N3 C3 1_555 1_555
N9 C21 1_555 1_555
C15 C16 1_555 1_555
C17 C18 1_555 1_555
C33 C34 1_555 1_555
C35 C36 1_555 1_555
N1 C1 1_555 1_555
N2 C2 1_555 1_555
N4 C6 1_555 1_555
N5 C11 1_555 1_555
N7 C19 1_555 1_555
N8 C20 1_555 1_555
N10 C24 1_555 1_555
N11 C29 1_555 1_555
C1 C4 1_555 1_555
C2 N1 1_555 1_555
C7 N4 1_555 1_555
H3 C7 1_555 1_555
C8 C4 1_555 1_555
H4 C8 1_555 1_555
C9 C2 1_555 1_555
C10 C9 1_555 1_555
H5 C10 1_555 1_555
C11 C10 1_555 1_555
H6 C11 1_555 1_555
C12 N5 1_555 1_555
H7 C12 1_555 1_555
C13 C9 1_555 1_555
H8 C13 1_555 1_555
C19 C22 1_555 1_555
C20 N7 1_555 1_555
C25 N10 1_555 1_555
H15 C25 1_555 1_555
C26 C22 1_555 1_555
H16 C26 1_555 1_555
C27 C20 1_555 1_555
C28 C27 1_555 1_555
H17 C28 1_555 1_555
C29 C28 1_555 1_555
H18 C29 1_555 1_555
C30 N11 1_555 1_555
H19 C30 1_555 1_555
C31 C27 1_555 1_555
H20 C31 1_555 1_555
Co5 N11 1_555 1_555
Co7 N5 1_555 1_555
C7 C8 1_555 1_555
C12 C13 1_555 1_555
C25 C26 1_555 1_555
C30 C31 1_555 1_555
O5 C45 1_555 1_555
O6 C45 1_555 1_555
Co4 O5 1_555 1_555
Co6 O6 1_555 1_555
O7 C43 1_555 1_555
O2 C43 1_555 1_555
C37 C38 1_555 1_555
C38 H25 1_555 1_555
C39 C38 1_555 1_555
C40 C39 1_555 1_555
H26 C40 1_555 1_555
C41 C40 1_555 1_555
C42 C37 1_555 1_555
H27 C42 1_555 1_555
C43 C37 1_555 1_555
C44 O3 1_555 1_555
O4 C44 1_555 1_555
C39 C44 1_555 1_555
C41 C42 1_555 1_555
O1 C43_2 1_555 1_555
O2_2 C43_2 1_555 1_555
O8 C45_2 1_555 1_555
O9 C45_2 1_555 1_555
C37_2 C38_2 1_555 1_555
C38_2 H25_2 1_555 1_555
C39_2 C38_2 1_555 1_555
C40_2 C39_2 1_555 1_555
H26_2 C40_2 1_555 1_555
C41_2 C40_2 1_555 1_555
C42_2 C37_2 1_555 1_555
H27_2 C42_2 1_555 1_555
C43_2 C37_2 1_555 1_555
C44_2 O3_2 1_555 1_555
C45_2 C41_2 1_555 1_555
Co4 O1 1_555 1_555
O4_2 C44_2 1_555 1_555
C39_2 C44_2 1_555 1_555
C41_2 C42_2 1_555 1_555
Co4 Cl1_2 1_555 1_555
Co6 Cl1_2 1_555 1_555
N2_2 C2_2 1_555 1_555
N5_2 C11_2 1_555 1_555
N6_2 Co6 1_555 1_555
N8_2 C20_2 1_555 1_555
N11_2 C29_2 1_555 1_555
N12_2 Co4 1_555 1_555
C3_2 N2_2 1_555 1_555
C9_2 C2_2 1_555 1_555
C10_2 C9_2 1_555 1_555
C11_2 C10_2 1_555 1_555
H6_2 C11_2 1_555 1_555
C12_2 N5_2 1_555 1_555
H7_2 C12_2 1_555 1_555
C13_2 C9_2 1_555 1_555
H8_2 C13_2 1_555 1_555
C14_2 C3_2 1_555 1_555
C15_2 C14_2 1_555 1_555
H9_2 C15_2 1_555 1_555
C16_2 N6_2 1_555 1_555
H10_2 C16_2 1_555 1_555
C17_2 N6_2 1_555 1_555
H11_2 C17_2 1_555 1_555
C18_2 C14_2 1_555 1_555
C21_2 N8_2 1_555 1_555
C27_2 C20_2 1_555 1_555
C28_2 C27_2 1_555 1_555
C29_2 C28_2 1_555 1_555
H18_2 C29_2 1_555 1_555
C30_2 N11_2 1_555 1_555
H19_2 C30_2 1_555 1_555
C31_2 C27_2 1_555 1_555
H20_2 C31_2 1_555 1_555
C32_2 C21_2 1_555 1_555
C33_2 C32_2 1_555 1_555
H21_2 C33_2 1_555 1_555
C34_2 N12_2 1_555 1_555
H22_2 C34_2 1_555 1_555
C35_2 N12_2 1_555 1_555
H23_2 C35_2 1_555 1_555
C36_2 C32_2 1_555 1_555
Co5_2 N11_2 1_555 1_555
Co7_2 N5_2 1_555 1_555
N13_2 Co6 1_555 1_555
N14_2 Co4 1_555 1_555
C12_2 C13_2 1_555 1_555
C15_2 C16_2 1_555 1_555
C17_2 C18_2 1_555 1_555
C30_2 C31_2 1_555 1_555
C33_2 C34_2 1_555 1_555
C35_2 C36_2 1_555 1_555
O1_2 C43_3 1_555 1_555
O2_3 C43_3 1_555 1_555
C37_3 C38_3 1_555 1_555
C38_3 H25_3 1_555 1_555
C39_3 C38_3 1_555 1_555
C40_3 C39_3 1_555 1_555
H26_3 C40_3 1_555 1_555
C41_3 C40_3 1_555 1_555
C42_3 C37_3 1_555 1_555
H27_3 C42_3 1_555 1_555
C43_3 C37_3 1_555 1_555
C44_3 O3_3 1_555 1_555
Co5_2 O1_2 1_555 1_555
O4_3 C44_3 1_555 1_555
C39_3 C44_3 1_555 1_555
C41_3 C42_3 1_555 1_555
O5_2 C45_3 1_555 1_555
O6_2 C45_3 1_555 1_555
Co5 O5_2 1_555 1_555
Co7 O6_2 1_555 1_555
N1_2 C1_2 1_555 1_555
N2_3 C2_3 1_555 1_555
N4_2 C6_2 1_555 1_555
N13_2 C11_3 1_555 1_555
N7_2 C19_2 1_555 1_555
N8_3 C20_3 1_555 1_555
N10_2 C24_2 1_555 1_555
N14_2 C29_3 1_555 1_555
C1_2 C4_2 1_555 1_555
C2_3 N1_2 1_555 1_555
C7_2 N4_2 1_555 1_555
H3_2 C7_2 1_555 1_555
C8_2 C4_2 1_555 1_555
H4_2 C8_2 1_555 1_555
C9_3 C2_3 1_555 1_555
C10_3 C9_3 1_555 1_555
H5_2 C10_3 1_555 1_555
C11_3 C10_3 1_555 1_555
H6_3 C11_3 1_555 1_555
C12_3 N13_2 1_555 1_555
H7_3 C12_3 1_555 1_555
C13_3 C9_3 1_555 1_555
H8_3 C13_3 1_555 1_555
C19_2 C22_2 1_555 1_555
C20_3 N7_2 1_555 1_555
C25_2 N10_2 1_555 1_555
H15_2 C25_2 1_555 1_555
C26_2 C22_2 1_555 1_555
H16_2 C26_2 1_555 1_555
C27_3 C20_3 1_555 1_555
C28_3 C27_3 1_555 1_555
H17_2 C28_3 1_555 1_555
C29_3 C28_3 1_555 1_555
H18_3 C29_3 1_555 1_555
C30_3 N14_2 1_555 1_555
H19_3 C30_3 1_555 1_555
C31_3 C27_3 1_555 1_555
H20_3 C31_3 1_555 1_555
C7_2 C8_2 1_555 1_555
C12_3 C13_3 1_555 1_555
C25_2 C26_2 1_555 1_555
C30_3 C31_3 1_555 1_555
Co5_2 Cl1_3 1_555 1_555
Co7_2 Cl1_3 1_555 1_555
N6_3 Co7_2 1_555 1_555
N12_3 Co5_2 1_555 1_555
C5_2 H1_2 1_555 1_555
C14_3 C3_3 1_555 1_555
C15_3 C14_3 1_555 1_555
H9_3 C15_3 1_555 1_555
C16_3 N6_3 1_555 1_555
H10_3 C16_3 1_555 1_555
C17_3 N6_3 1_555 1_555
H11_3 C17_3 1_555 1_555
C18_3 C14_3 1_555 1_555
H12_2 C18_3 1_555 1_555
C23_2 H13_2 1_555 1_555
C32_3 C21_3 1_555 1_555
C33_3 C32_3 1_555 1_555
H21_3 C33_3 1_555 1_555
C34_3 N12_3 1_555 1_555
H22_3 C34_3 1_555 1_555
C35_3 N12_3 1_555 1_555
H23_3 C35_3 1_555 1_555
C36_3 C32_3 1_555 1_555
H24_2 C36_3 1_555 1_555
O8_2 Co5_2 1_555 1_555
O9_2 Co7_2 1_555 1_555
N3_2 C3_3 1_555 1_555
N9_2 C21_3 1_555 1_555
C15_3 C16_3 1_555 1_555
C17_3 C18_3 1_555 1_555
C33_3 C34_3 1_555 1_555
C35_3 C36_3 1_555 1_555
Co5 Cl1_4 1_555 1_555
Co7 Cl1_4 1_555 1_555
N2_4 C2_4 1_555 1_555
N13 C11_4 1_555 1_555
N6_4 Co7 1_555 1_555
N8_4 C20_4 1_555 1_555
N14 C29_4 1_555 1_555
N12_4 Co5 1_555 1_555
C3_4 N2_4 1_555 1_555
C9_4 C2_4 1_555 1_555
C10_4 C9_4 1_555 1_555
C11_4 C10_4 1_555 1_555
H6_4 C11_4 1_555 1_555
C12_4 N13 1_555 1_555
H7_4 C12_4 1_555 1_555
C13_4 C9_4 1_555 1_555
H8_4 C13_4 1_555 1_555
C14_4 C3_4 1_555 1_555
C15_4 C14_4 1_555 1_555
H9_4 C15_4 1_555 1_555
C16_4 N6_4 1_555 1_555
H10_4 C16_4 1_555 1_555
C17_4 N6_4 1_555 1_555
H11_4 C17_4 1_555 1_555
C18_4 C14_4 1_555 1_555
C21_4 N8_4 1_555 1_555
C27_4 C20_4 1_555 1_555
C28_4 C27_4 1_555 1_555
C29_4 C28_4 1_555 1_555
H18_4 C29_4 1_555 1_555
C30_4 N14 1_555 1_555
H19_4 C30_4 1_555 1_555
C31_4 C27_4 1_555 1_555
H20_4 C31_4 1_555 1_555
C32_4 C21_4 1_555 1_555
C33_4 C32_4 1_555 1_555
H21_4 C33_4 1_555 1_555
C34_4 N12_4 1_555 1_555
H22_4 C34_4 1_555 1_555
C35_4 N12_4 1_555 1_555
H23_4 C35_4 1_555 1_555
C36_4 C32_4 1_555 1_555
O7_2 Co5 1_555 1_555
C12_4 C13_4 1_555 1_555
C15_4 C16_4 1_555 1_555
C17_4 C18_4 1_555 1_555
C30_4 C31_4 1_555 1_555
C33_4 C34_4 1_555 1_555
C35_4 C36_4 1_555 1_555
O7_2 C43_4 1_555 1_555
O2_4 C43_4 1_555 1_555
O8_2 C45_4 1_555 1_555
O9_2 C45_4 1_555 1_555
C37_4 C38_4 1_555 1_555
C38_4 H25_4 1_555 1_555
C39_4 C38_4 1_555 1_555
C40_4 C39_4 1_555 1_555
H26_4 C40_4 1_555 1_555
C41_4 C40_4 1_555 1_555
C42_4 C37_4 1_555 1_555
H27_4 C42_4 1_555 1_555
C43_4 C37_4 1_555 1_555
C44_4 O3_4 1_555 1_555
C45_4 C41_4 1_555 1_555
O4_4 C44_4 1_555 1_555
C39_4 C44_4 1_555 1_555
C41_4 C42_4 1_555 1_555
N1_3 C1_3 1_555 1_555
N3_3 C1_3 1_555 1_555
N4_3 C6_3 1_555 1_555
N7_3 C19_3 1_555 1_555
N9_3 C19_3 1_555 1_555
N10_3 C24_3 1_555 1_555
C1_3 C4_3 1_555 1_555
C4_3 C5_3 1_555 1_555
C5_3 H1_3 1_555 1_555
C6_3 C5_3 1_555 1_555
H2_3 C6_3 1_555 1_555
C7_3 N4_3 1_555 1_555
H3_3 C7_3 1_555 1_555
C8_3 C4_3 1_555 1_555
H4_3 C8_3 1_555 1_555
C19_3 C22_3 1_555 1_555
C22_3 C23_3 1_555 1_555
C23_3 H13_3 1_555 1_555
C24_3 C23_3 1_555 1_555
H14_3 C24_3 1_555 1_555
C25_3 N10_3 1_555 1_555
H15_3 C25_3 1_555 1_555
C26_3 C22_3 1_555 1_555
H16_3 C26_3 1_555 1_555
C7_3 C8_3 1_555 1_555
C25_3 C26_3 1_555 1_555
N1_4 C1_4 1_555 1_555
N3_4 C1_4 1_555 1_555
N4_4 C6_4 1_555 1_555
N7_4 C19_4 1_555 1_555
N9_4 C19_4 1_555 1_555
N10_4 C24_4 1_555 1_555
C1_4 C4_4 1_555 1_555
C4_4 C5_4 1_555 1_555
C5_4 H1_4 1_555 1_555
C6_4 C5_4 1_555 1_555
H2_4 C6_4 1_555 1_555
C7_4 N4_4 1_555 1_555
H3_4 C7_4 1_555 1_555
C8_4 C4_4 1_555 1_555
H4_4 C8_4 1_555 1_555
C19_4 C22_4 1_555 1_555
C22_4 C23_4 1_555 1_555
C23_4 H13_4 1_555 1_555
C24_4 C23_4 1_555 1_555
H14_4 C24_4 1_555 1_555
C25_4 N10_4 1_555 1_555
H15_4 C25_4 1_555 1_555
C26_4 C22_4 1_555 1_555
H16_4 C26_4 1_555 1_555
C7_4 C8_4 1_555 1_555
C25_4 C26_4 1_555 1_555

#END
