
###############################################################################
#
# This file contains modified crystal structure data generated from the
# MOF subset of the Cambridge Structural Database (CSD) v543 
# hosted by the Cambridge Crystallographic Data Centre (CCDC).
#
# This work is licensed under the Creative Commons
# Attribution-NonCommercial-ShareAlike 4.0 International License.
# To view a copy of this license, visit
# http://creativecommons.org/licenses/by-nc-sa/4.0/
# or send a letter to
# Creative Commons, PO Box 1866, Mountain View, CA 94042, USA.
#
# CIF created using the CSD Python API on 29 September 2022
# The structure has been converted into the P1 space group
# The structure has a 3D framework
# The original CSD entry AQAJEI is in the orthorhombic crystal system
# The framework has been calculated to contain at least 10.0% void space
# The void calculation uses a probe of radius 1.32A, grid spacing 0.4
#
###############################################################################

data_AQAJEI
_chemical_formula_moiety         '(C144 H96 N48 O32 Zn8)n'
_symmetry_cell_setting           triclinic
_symmetry_space_group_name_H-M   'P 1'
_symmetry_Int_Tables_number      1
_space_group_name_Hall           'P 1'
loop_
_symmetry_equiv_pos_site_id
_symmetry_equiv_pos_as_xyz
1 x,y,z
_cell_length_a                   19.7665(9)
_cell_length_b                   15.8012(8)
_cell_length_c                   16.9680(8)
_cell_angle_alpha                90
_cell_angle_beta                 90
_cell_angle_gamma                90
_cell_volume                     5299.69
loop_
_atom_site_label
_atom_site_type_symbol
_atom_site_fract_x
_atom_site_fract_y
_atom_site_fract_z
C1 C 0.1470(4) 0.4248(4) 0.2037(4)
H1 H 0.1172 0.4198 0.2459
C2 C 0.2297(4) 0.4009(4) 0.1259(4)
H2 H 0.2679 0.3777 0.1024
C3 C 0.2178(3) 0.2975(4) 0.2347(4)
C4 C 0.2137(3) 0.2987(4) 0.3162(4)
H3 H 0.2024 0.3484 0.3425
C5 C 0.2265(4) 0.2256(4) 0.3580(4)
H4 H 0.2230 0.2256 0.4126
C6 C 0.2448(4) 0.1518(4) 0.3187(4)
C7 C 0.2494(5) 0.1513(5) 0.2372(4)
H5 H 0.2618 0.1020 0.2110
C8 C 0.2355(4) 0.2251(5) 0.1942(4)
H6 H 0.2381 0.2252 0.1395
C9 C 0.2598(4) 0.0720(4) 0.3646(4)
H7 H 0.1147 0.6873 0.0072
N1 N 0.1431(3) 0.4827(4) 0.1508(3)
N2 N 0.1972(3) 0.4673(3) 0.1000(3)
N3 N 0.2002(3) 0.3714(3) 0.1908(3)
O1 O 0.2633(4) 0.0036(3) 0.3307(3)
O2 O 0.2689(2) 0.0826(3) 0.4380(3)
O6 O 0.2700(3) 0.6247(4) 0.0019(3)
C10 C 0.0939(4) 0.6422(5) 0.9816(5)
C11 C 0.0204(4) 0.5641(5) 0.9220(5)
H12 H 0.0415 0.8039 0.9373
N4 N 0.0760(3) 0.5189(4) 0.9263(4)
N5 N 0.1229(3) 0.5695(4) 0.9655(3)
N6 N 0.0291(3) 0.6415(4) 0.9555(4)
Zn1 Zn 0.21462(4) 0.52288(4) 0.99343(4)
O5 O 0.2311(2) 0.4174(3) 0.9380(3)
H10 H 0.8212 0.7331 0.0009
Zn3 Zn 0.71462(4) 0.97712(4) 0.00657(4)
H8 H 0.9802 0.5457 0.8991
C12 C 0.9784(4) 0.7060(5) 0.9637(5)
C13 C 0.9134(4) 0.6839(5) 0.9807(4)
H9 H 0.9015 0.6274 0.9871
C14 C 0.8656(4) 0.7473(5) 0.9881(4)
C15 C 0.8824(4) 0.8307(5) 0.9770(5)
C16 C 0.9488(5) 0.8526(6) 0.9588(7)
H11 H 0.9605 0.9092 0.9520
C17 C 0.9973(4) 0.7902(5) 0.9509(7)
C18 C 0.8299(4) 0.8997(6) 0.9831(5)
O3 O 0.7700(3) 0.8753(4) 0.9981(3)
O4 O 0.8453(4) 0.9745(4) 0.9756(5)
C1_2 C 0.3530(4) 0.0752(4) 0.7037(4)
H1_2 H 0.3828 0.0802 0.7459
C2_2 C 0.2703(4) 0.0991(4) 0.6259(4)
H2_2 H 0.2321 0.1223 0.6024
C3_2 C 0.2822(3) 0.2025(4) 0.7347(4)
C4_2 C 0.2863(3) 0.2013(4) 0.8162(4)
H3_2 H 0.2976 0.1516 0.8425
C5_2 C 0.2735(4) 0.2744(4) 0.8580(4)
H4_2 H 0.2770 0.2744 0.9126
C6_2 C 0.2552(4) 0.3482(4) 0.8187(4)
C7_2 C 0.2506(5) 0.3487(5) 0.7372(4)
H5_2 H 0.2382 0.3980 0.7110
C8_2 C 0.2645(4) 0.2749(5) 0.6942(4)
H6_2 H 0.2619 0.2748 0.6395
C9_2 C 0.2402(4) 0.4280(4) 0.8646(4)
N1_2 N 0.3569(3) 0.0173(4) 0.6508(3)
N2_2 N 0.3028(3) 0.0327(3) 0.6000(3)
N3_2 N 0.2998(3) 0.1286(3) 0.6908(3)
O1_2 O 0.2367(4) 0.4964(3) 0.8307(3)
C10_2 C 0.5939(4) 0.8578(5) 0.0184(5)
C11_2 C 0.5204(4) 0.9359(5) 0.0780(5)
H8_2 H 0.4802 0.9543 0.1009
C12_2 C 0.4784(4) 0.7940(5) 0.0363(5)
C13_2 C 0.4134(4) 0.8161(5) 0.0193(4)
H9_2 H 0.4015 0.8726 0.0129
C14_2 C 0.3656(4) 0.7527(5) 0.0119(4)
C15_2 C 0.3824(4) 0.6693(5) 0.0230(5)
C16_2 C 0.4488(5) 0.6474(6) 0.0412(7)
H11_2 H 0.4605 0.5908 0.0480
C17_2 C 0.4973(4) 0.7098(5) 0.0491(7)
H12_2 H 0.5415 0.6961 0.0627
C18_2 C 0.3299(4) 0.6003(6) 0.0169(5)
N4_2 N 0.5760(3) 0.9811(4) 0.0737(4)
N5_2 N 0.6229(3) 0.9305(4) 0.0345(3)
N6_2 N 0.5291(3) 0.8585(4) 0.0445(4)
O4_2 O 0.3453(4) 0.5255(4) 0.0244(5)
H7_2 H 0.6147 0.8127 0.9928
H10_2 H 0.3212 0.7669 0.9991
Zn2 Zn 0.28538(4) 0.97712(4) 0.49343(4)
C10_3 C 0.4061(4) 0.8578(5) 0.4816(5)
H7_3 H 0.3853 0.8127 0.5072
C11_3 C 0.4796(4) 0.9359(5) 0.4220(5)
H8_3 H 0.5198 0.9543 0.3991
C12_3 C 0.5216(4) 0.7940(5) 0.4637(5)
C13_3 C 0.5866(4) 0.8161(5) 0.4807(4)
H9_3 H 0.5985 0.8726 0.4871
C14_3 C 0.6344(4) 0.7527(5) 0.4881(4)
H10_3 H 0.6788 0.7669 0.5009
C15_3 C 0.6176(4) 0.6693(5) 0.4770(5)
C16_3 C 0.5512(5) 0.6474(6) 0.4588(7)
H11_3 H 0.5395 0.5908 0.4520
C17_3 C 0.5027(4) 0.7098(5) 0.4509(7)
H12_3 H 0.4585 0.6961 0.4373
C18_3 C 0.6701(4) 0.6003(6) 0.4831(5)
N4_3 N 0.4240(3) 0.9811(4) 0.4263(4)
N5_3 N 0.3771(3) 0.9305(4) 0.4655(3)
N6_3 N 0.4709(3) 0.8585(4) 0.4555(4)
O3_2 O 0.7300(3) 0.6247(4) 0.4981(3)
O4_3 O 0.6547(4) 0.5255(4) 0.4756(5)
O6_2 O 0.2300(3) 0.8753(4) 0.5019(3)
Zn3_2 Zn 0.78538(4) 0.52288(4) 0.50657(4)
H8_4 H 0.0198 0.5457 0.6009
C12_4 C 0.0216(4) 0.7060(5) 0.5363(5)
C13_4 C 0.0866(4) 0.6839(5) 0.5193(4)
H9_4 H 0.0985 0.6274 0.5129
C14_4 C 0.1344(4) 0.7473(5) 0.5119(4)
H10_4 H 0.1788 0.7331 0.4991
C15_4 C 0.1176(4) 0.8307(5) 0.5230(5)
C16_4 C 0.0512(5) 0.8526(6) 0.5412(7)
H11_4 H 0.0395 0.9092 0.5480
C17_4 C 0.0027(4) 0.7902(5) 0.5491(7)
C18_4 C 0.1701(4) 0.8997(6) 0.5169(5)
O4_4 O 0.1547(4) 0.9745(4) 0.5244(5)
C1_3 C 0.8530(4) 0.4248(4) 0.2963(4)
H1_3 H 0.8828 0.4198 0.2541
C2_3 C 0.7703(4) 0.4009(4) 0.3741(4)
H2_3 H 0.7321 0.3777 0.3976
C3_3 C 0.7822(3) 0.2975(4) 0.2653(4)
C4_3 C 0.7863(3) 0.2987(4) 0.1838(4)
H3_3 H 0.7976 0.3484 0.1575
C5_3 C 0.7735(4) 0.2256(4) 0.1420(4)
H4_3 H 0.7770 0.2256 0.0874
C6_3 C 0.7552(4) 0.1518(4) 0.1813(4)
C7_3 C 0.7506(5) 0.1513(5) 0.2628(4)
H5_3 H 0.7382 0.1020 0.2890
C8_3 C 0.7645(4) 0.2251(5) 0.3058(4)
H6_3 H 0.7619 0.2252 0.3605
C9_3 C 0.7402(4) 0.0720(4) 0.1354(4)
C10_4 C 0.9061(4) 0.6422(5) 0.5184(5)
H7_4 H 0.8853 0.6873 0.4928
C11_4 C 0.9796(4) 0.5641(5) 0.5780(5)
H12_4 H 0.9585 0.8039 0.5627
N1_3 N 0.8569(3) 0.4827(4) 0.3492(3)
N2_3 N 0.8028(3) 0.4673(3) 0.4000(3)
N3_3 N 0.7998(3) 0.3714(3) 0.3092(3)
N4_4 N 0.9240(3) 0.5189(4) 0.5737(4)
N5_4 N 0.8771(3) 0.5695(4) 0.5345(3)
N6_4 N 0.9709(3) 0.6415(4) 0.5445(4)
O1_3 O 0.7367(4) 0.0036(3) 0.1693(3)
O2_2 O 0.7311(2) 0.0826(3) 0.0620(3)
O5_2 O 0.7689(2) 0.4174(3) 0.5620(3)
C1_4 C 0.6470(4) 0.0752(4) 0.7963(4)
H1_4 H 0.6172 0.0802 0.7541
C2_4 C 0.7297(4) 0.0991(4) 0.8741(4)
H2_4 H 0.7679 0.1223 0.8976
C3_4 C 0.7178(3) 0.2025(4) 0.7653(4)
C4_4 C 0.7137(3) 0.2013(4) 0.6838(4)
H3_4 H 0.7024 0.1516 0.6575
C5_4 C 0.7265(4) 0.2744(4) 0.6420(4)
H4_4 H 0.7230 0.2744 0.5874
C6_4 C 0.7448(4) 0.3482(4) 0.6813(4)
C7_4 C 0.7494(5) 0.3487(5) 0.7628(4)
H5_4 H 0.7618 0.3980 0.7890
C8_4 C 0.7355(4) 0.2749(5) 0.8058(4)
H6_4 H 0.7381 0.2748 0.8605
C9_4 C 0.7598(4) 0.4280(4) 0.6354(4)
N1_4 N 0.6431(3) 0.0173(4) 0.8492(3)
N2_4 N 0.6972(3) 0.0327(3) 0.9000(3)
N3_4 N 0.7002(3) 0.1286(3) 0.8092(3)
O1_4 O 0.7633(4) 0.4964(3) 0.6693(3)
H8_5 H 0.0198 0.4543 0.1009
C12_5 C 0.0216(4) 0.2940(5) 0.0363(5)
C13_5 C 0.0866(4) 0.3161(5) 0.0193(4)
H9_5 H 0.0985 0.3726 0.0129
C14_5 C 0.1344(4) 0.2527(5) 0.0119(4)
C15_5 C 0.1176(4) 0.1693(5) 0.0230(5)
C16_5 C 0.0512(5) 0.1474(6) 0.0412(7)
H11_5 H 0.0395 0.0908 0.0480
C17_5 C 0.0027(4) 0.2098(5) 0.0491(7)
C18_5 C 0.1701(4) 0.1003(6) 0.0169(5)
O3_3 O 0.2300(3) 0.1247(4) 0.0019(3)
O4_5 O 0.1547(4) 0.0255(4) 0.0244(5)
H10_5 H 0.1788 0.2669 0.9991
Zn3_3 Zn 0.28538(4) 0.02288(4) 0.99343(4)
C10_5 C 0.9061(4) 0.3578(5) 0.0184(5)
C11_5 C 0.9796(4) 0.4359(5) 0.0780(5)
H12_5 H 0.9585 0.1961 0.0627
N4_5 N 0.9240(3) 0.4811(4) 0.0737(4)
N5_5 N 0.8771(3) 0.4305(4) 0.0345(3)
N6_5 N 0.9709(3) 0.3585(4) 0.0445(4)
Zn1_2 Zn 0.78538(4) 0.47712(4) 0.00657(4)
O5_3 O 0.7689(2) 0.5826(3) 0.0620(3)
C1_5 C 0.8530(4) 0.5752(4) 0.7963(4)
H1_5 H 0.8828 0.5802 0.7541
C2_5 C 0.7703(4) 0.5991(4) 0.8741(4)
H2_5 H 0.7321 0.6223 0.8976
C3_5 C 0.7822(3) 0.7025(4) 0.7653(4)
C4_5 C 0.7863(3) 0.7013(4) 0.6838(4)
H3_5 H 0.7976 0.6516 0.6575
C5_5 C 0.7735(4) 0.7744(4) 0.6420(4)
H4_5 H 0.7770 0.7744 0.5874
C6_5 C 0.7552(4) 0.8482(4) 0.6813(4)
C7_5 C 0.7506(5) 0.8487(5) 0.7628(4)
H5_5 H 0.7382 0.8980 0.7890
C8_5 C 0.7645(4) 0.7749(5) 0.8058(4)
H6_5 H 0.7619 0.7748 0.8605
C9_5 C 0.7402(4) 0.9280(4) 0.6354(4)
H7_5 H 0.8853 0.3127 0.9928
N1_5 N 0.8569(3) 0.5173(4) 0.8492(3)
N2_5 N 0.8028(3) 0.5327(3) 0.9000(3)
N3_5 N 0.7998(3) 0.6286(3) 0.8092(3)
O1_5 O 0.7367(4) 0.9964(3) 0.6693(3)
O2_3 O 0.7311(2) 0.9174(3) 0.5620(3)
O6_3 O 0.7300(3) 0.3753(4) 0.9981(3)
C1_6 C 0.6470(4) 0.9248(4) 0.2963(4)
H1_6 H 0.6172 0.9198 0.2541
C2_6 C 0.7297(4) 0.9009(4) 0.3741(4)
H2_6 H 0.7679 0.8777 0.3976
C3_6 C 0.7178(3) 0.7975(4) 0.2653(4)
C4_6 C 0.7137(3) 0.7987(4) 0.1838(4)
H3_6 H 0.7024 0.8484 0.1575
C5_6 C 0.7265(4) 0.7256(4) 0.1420(4)
H4_6 H 0.7230 0.7256 0.0874
C6_6 C 0.7448(4) 0.6518(4) 0.1813(4)
C7_6 C 0.7494(5) 0.6513(5) 0.2628(4)
H5_6 H 0.7618 0.6020 0.2890
C8_6 C 0.7355(4) 0.7251(5) 0.3058(4)
H6_6 H 0.7381 0.7252 0.3605
C9_6 C 0.7598(4) 0.5720(4) 0.1354(4)
N1_6 N 0.6431(3) 0.9827(4) 0.3492(3)
N2_6 N 0.6972(3) 0.9673(3) 0.4000(3)
N3_6 N 0.7002(3) 0.8714(3) 0.3092(3)
O1_6 O 0.7633(4) 0.5036(3) 0.1693(3)
H7_6 H 0.3853 0.1873 0.0072
H10_6 H 0.6788 0.2331 0.0009
C10_6 C 0.4061(4) 0.1422(5) 0.9816(5)
C11_6 C 0.4796(4) 0.0641(5) 0.9220(5)
H8_6 H 0.5198 0.0457 0.8991
C12_6 C 0.5216(4) 0.2060(5) 0.9637(5)
C13_6 C 0.5866(4) 0.1839(5) 0.9807(4)
H9_6 H 0.5985 0.1274 0.9871
C14_6 C 0.6344(4) 0.2473(5) 0.9881(4)
C15_6 C 0.6176(4) 0.3307(5) 0.9770(5)
C16_6 C 0.5512(5) 0.3526(6) 0.9588(7)
H11_6 H 0.5395 0.4092 0.9520
C17_6 C 0.5027(4) 0.2902(5) 0.9509(7)
H12_6 H 0.4585 0.3039 0.9373
C18_6 C 0.6701(4) 0.3997(6) 0.9831(5)
N4_6 N 0.4240(3) 0.0189(4) 0.9263(4)
N5_6 N 0.3771(3) 0.0695(4) 0.9655(3)
N6_6 N 0.4709(3) 0.1415(4) 0.9555(4)
O4_6 O 0.6547(4) 0.4745(4) 0.9756(5)
Zn2_2 Zn 0.71462(4) 0.02288(4) 0.50657(4)
C10_7 C 0.5939(4) 0.1422(5) 0.5184(5)
H7_7 H 0.6147 0.1873 0.4928
C11_7 C 0.5204(4) 0.0641(5) 0.5780(5)
H8_7 H 0.4802 0.0457 0.6009
C12_7 C 0.4784(4) 0.2060(5) 0.5363(5)
C13_7 C 0.4134(4) 0.1839(5) 0.5193(4)
H9_7 H 0.4015 0.1274 0.5129
C14_7 C 0.3656(4) 0.2473(5) 0.5119(4)
H10_7 H 0.3212 0.2331 0.4991
C15_7 C 0.3824(4) 0.3307(5) 0.5230(5)
C16_7 C 0.4488(5) 0.3526(6) 0.5412(7)
H11_7 H 0.4605 0.4092 0.5480
C17_7 C 0.4973(4) 0.2902(5) 0.5491(7)
H12_7 H 0.5415 0.3039 0.5627
C18_7 C 0.3299(4) 0.3997(6) 0.5169(5)
N4_7 N 0.5760(3) 0.0189(4) 0.5737(4)
N5_7 N 0.6229(3) 0.0695(4) 0.5345(3)
N6_7 N 0.5291(3) 0.1415(4) 0.5445(4)
O3_4 O 0.2700(3) 0.3753(4) 0.5019(3)
O4_7 O 0.3453(4) 0.4745(4) 0.5244(5)
O6_4 O 0.7700(3) 0.1247(4) 0.4981(3)
Zn3_4 Zn 0.21462(4) 0.47712(4) 0.49343(4)
C1_7 C 0.1470(4) 0.5752(4) 0.7037(4)
H1_7 H 0.1172 0.5802 0.7459
C2_7 C 0.2297(4) 0.5991(4) 0.6259(4)
H2_7 H 0.2679 0.6223 0.6024
C3_7 C 0.2178(3) 0.7025(4) 0.7347(4)
C4_7 C 0.2137(3) 0.7013(4) 0.8162(4)
H3_7 H 0.2024 0.6516 0.8425
C5_7 C 0.2265(4) 0.7744(4) 0.8580(4)
H4_7 H 0.2230 0.7744 0.9126
C6_7 C 0.2448(4) 0.8482(4) 0.8187(4)
C7_7 C 0.2494(5) 0.8487(5) 0.7372(4)
H5_7 H 0.2618 0.8980 0.7110
C8_7 C 0.2355(4) 0.7749(5) 0.6942(4)
H6_7 H 0.2381 0.7748 0.6395
C9_7 C 0.2598(4) 0.9280(4) 0.8646(4)
C10_8 C 0.0939(4) 0.3578(5) 0.4816(5)
H7_8 H 0.1147 0.3127 0.5072
C11_8 C 0.0204(4) 0.4359(5) 0.4220(5)
H12_8 H 0.0415 0.1961 0.4373
N1_7 N 0.1431(3) 0.5173(4) 0.6508(3)
N2_7 N 0.1972(3) 0.5327(3) 0.6000(3)
N3_7 N 0.2002(3) 0.6286(3) 0.6908(3)
N4_8 N 0.0760(3) 0.4811(4) 0.4263(4)
N5_8 N 0.1229(3) 0.4305(4) 0.4655(3)
N6_8 N 0.0291(3) 0.3585(4) 0.4555(4)
O1_7 O 0.2633(4) 0.9964(3) 0.8307(3)
O2_4 O 0.2689(2) 0.9174(3) 0.9380(3)
O5_4 O 0.2311(2) 0.5826(3) 0.4380(3)
H8_8 H 0.9802 0.4543 0.3991
C12_8 C 0.9784(4) 0.2940(5) 0.4637(5)
C13_8 C 0.9134(4) 0.3161(5) 0.4807(4)
H9_8 H 0.9015 0.3726 0.4871
C14_8 C 0.8656(4) 0.2527(5) 0.4881(4)
H10_8 H 0.8212 0.2669 0.5009
C15_8 C 0.8824(4) 0.1693(5) 0.4770(5)
C16_8 C 0.9488(5) 0.1474(6) 0.4588(7)
H11_8 H 0.9605 0.0908 0.4520
C17_8 C 0.9973(4) 0.2098(5) 0.4509(7)
C18_8 C 0.8299(4) 0.1003(6) 0.4831(5)
O4_8 O 0.8453(4) 0.0255(4) 0.4756(5)
C1_8 C 0.3530(4) 0.9248(4) 0.2037(4)
H1_8 H 0.3828 0.9198 0.2459
C2_8 C 0.2703(4) 0.9009(4) 0.1259(4)
H2_8 H 0.2321 0.8777 0.1024
C3_8 C 0.2822(3) 0.7975(4) 0.2347(4)
C4_8 C 0.2863(3) 0.7987(4) 0.3162(4)
H3_8 H 0.2976 0.8484 0.3425
C5_8 C 0.2735(4) 0.7256(4) 0.3580(4)
H4_8 H 0.2770 0.7256 0.4126
C6_8 C 0.2552(4) 0.6518(4) 0.3187(4)
C7_8 C 0.2506(5) 0.6513(5) 0.2372(4)
H5_8 H 0.2382 0.6020 0.2110
C8_8 C 0.2645(4) 0.7251(5) 0.1942(4)
H6_8 H 0.2619 0.7252 0.1395
C9_8 C 0.2402(4) 0.5720(4) 0.3646(4)
N1_8 N 0.3569(3) 0.9827(4) 0.1508(3)
N2_8 N 0.3028(3) 0.9673(3) 0.1000(3)
N3_8 N 0.2998(3) 0.8714(3) 0.1908(3)
O1_8 O 0.2367(4) 0.5036(3) 0.3307(3)
loop_
_geom_bond_atom_site_label_1
_geom_bond_atom_site_label_2
_geom_bond_site_symmetry_1
_geom_bond_site_symmetry_2
C1 H1 1_555 1_555
C2 H2 1_555 1_555
C3 C4 1_555 1_555
C4 H3 1_555 1_555
C5 C4 1_555 1_555
H4 C5 1_555 1_555
C6 C5 1_555 1_555
C7 C6 1_555 1_555
H5 C7 1_555 1_555
C8 C3 1_555 1_555
H6 C8 1_555 1_555
C9 C6 1_555 1_555
N1 C1 1_555 1_555
N2 C2 1_555 1_555
N3 C1 1_555 1_555
O1 C9 1_555 1_555
O2 C9 1_555 1_555
C2 N3 1_555 1_555
C3 N3 1_555 1_555
C7 C8 1_555 1_555
N1 N2 1_555 1_555
N4 C11 1_555 1_555
N5 C10 1_555 1_555
N6 C10 1_555 1_555
O5 Zn1 1_555 1_555
C11 N6 1_555 1_555
N4 N5 1_555 1_555
N5 Zn1 1_555 1_555
C12 C13 1_555 1_555
C13 H9 1_555 1_555
C14 C13 1_555 1_555
C15 C14 1_555 1_555
C16 C15 1_555 1_555
H11 C16 1_555 1_555
C17 C12 1_555 1_555
C18 C15 1_555 1_555
O3 C18 1_555 1_555
O4 C18 1_555 1_555
C16 C17 1_555 1_555
C1_2 H1_2 1_555 1_555
C2_2 H2_2 1_555 1_555
C3_2 C4_2 1_555 1_555
C4_2 H3_2 1_555 1_555
C5_2 C4_2 1_555 1_555
H4_2 C5_2 1_555 1_555
C6_2 C5_2 1_555 1_555
C7_2 C6_2 1_555 1_555
H5_2 C7_2 1_555 1_555
C8_2 C3_2 1_555 1_555
H6_2 C8_2 1_555 1_555
C9_2 C6_2 1_555 1_555
N1_2 C1_2 1_555 1_555
N2_2 C2_2 1_555 1_555
N3_2 C1_2 1_555 1_555
O1_2 C9_2 1_555 1_555
O5 C9_2 1_555 1_555
C2_2 N3_2 1_555 1_555
C3_2 N3_2 1_555 1_555
C7_2 C8_2 1_555 1_555
N1_2 N2_2 1_555 1_555
C11_2 H8_2 1_555 1_555
C12_2 C13_2 1_555 1_555
C13_2 H9_2 1_555 1_555
C14_2 C13_2 1_555 1_555
C15_2 C14_2 1_555 1_555
C16_2 C15_2 1_555 1_555
H11_2 C16_2 1_555 1_555
C17_2 C12_2 1_555 1_555
H12_2 C17_2 1_555 1_555
C18_2 C15_2 1_555 1_555
N4_2 C11_2 1_555 1_555
N5_2 C10_2 1_555 1_555
N6_2 C10_2 1_555 1_555
O6 C18_2 1_555 1_555
O4_2 C18_2 1_555 1_555
C11_2 N6_2 1_555 1_555
C12_2 N6_2 1_555 1_555
C16_2 C17_2 1_555 1_555
N4_2 N5_2 1_555 1_555
N5_2 Zn3 1_555 1_555
C10_3 H7_3 1_555 1_555
C11_3 H8_3 1_555 1_555
C12_3 C13_3 1_555 1_555
C13_3 H9_3 1_555 1_555
C14_3 C13_3 1_555 1_555
H10_3 C14_3 1_555 1_555
C15_3 C14_3 1_555 1_555
C16_3 C15_3 1_555 1_555
H11_3 C16_3 1_555 1_555
C17_3 C12_3 1_555 1_555
H12_3 C17_3 1_555 1_555
C18_3 C15_3 1_555 1_555
N4_3 C11_3 1_555 1_555
N5_3 C10_3 1_555 1_555
N6_3 C10_3 1_555 1_555
O3_2 C18_3 1_555 1_555
O4_3 C18_3 1_555 1_555
O6_2 Zn2 1_555 1_555
Zn3_2 O3_2 1_555 1_555
C11_3 N6_3 1_555 1_555
C12_3 N6_3 1_555 1_555
C16_3 C17_3 1_555 1_555
N4_3 N5_3 1_555 1_555
N5_3 Zn2 1_555 1_555
C12_4 C13_4 1_555 1_555
C13_4 H9_4 1_555 1_555
C14_4 C13_4 1_555 1_555
H10_4 C14_4 1_555 1_555
C15_4 C14_4 1_555 1_555
C16_4 C15_4 1_555 1_555
H11_4 C16_4 1_555 1_555
C17_4 C12_4 1_555 1_555
C18_4 C15_4 1_555 1_555
O6_2 C18_4 1_555 1_555
O4_4 C18_4 1_555 1_555
C16_4 C17_4 1_555 1_555
C1_3 H1_3 1_555 1_555
C2_3 H2_3 1_555 1_555
C3_3 C4_3 1_555 1_555
C4_3 H3_3 1_555 1_555
C5_3 C4_3 1_555 1_555
H4_3 C5_3 1_555 1_555
C6_3 C5_3 1_555 1_555
C7_3 C6_3 1_555 1_555
H5_3 C7_3 1_555 1_555
C8_3 C3_3 1_555 1_555
H6_3 C8_3 1_555 1_555
C9_3 C6_3 1_555 1_555
C10_4 H7_4 1_555 1_555
N1_3 C1_3 1_555 1_555
N2_3 C2_3 1_555 1_555
N3_3 C1_3 1_555 1_555
N4_4 C11_4 1_555 1_555
N5_4 C10_4 1_555 1_555
N6_4 C10_4 1_555 1_555
O1_3 C9_3 1_555 1_555
O2_2 C9_3 1_555 1_555
Zn3_2 N2_3 1_555 1_555
O5_2 Zn3_2 1_555 1_555
C2_3 N3_3 1_555 1_555
C3_3 N3_3 1_555 1_555
C7_3 C8_3 1_555 1_555
C11_4 N6_4 1_555 1_555
N1_3 N2_3 1_555 1_555
N4_4 N5_4 1_555 1_555
N5_4 Zn3_2 1_555 1_555
C1_4 H1_4 1_555 1_555
C2_4 H2_4 1_555 1_555
C3_4 C4_4 1_555 1_555
C4_4 H3_4 1_555 1_555
C5_4 C4_4 1_555 1_555
H4_4 C5_4 1_555 1_555
C6_4 C5_4 1_555 1_555
C7_4 C6_4 1_555 1_555
H5_4 C7_4 1_555 1_555
C8_4 C3_4 1_555 1_555
H6_4 C8_4 1_555 1_555
C9_4 C6_4 1_555 1_555
N1_4 C1_4 1_555 1_555
N2_4 C2_4 1_555 1_555
N3_4 C1_4 1_555 1_555
O1_4 C9_4 1_555 1_555
O5_2 C9_4 1_555 1_555
C2_4 N3_4 1_555 1_555
C3_4 N3_4 1_555 1_555
C7_4 C8_4 1_555 1_555
N1_4 N2_4 1_555 1_555
C12_5 C13_5 1_555 1_555
C13_5 H9_5 1_555 1_555
C14_5 C13_5 1_555 1_555
C15_5 C14_5 1_555 1_555
C16_5 C15_5 1_555 1_555
H11_5 C16_5 1_555 1_555
C17_5 C12_5 1_555 1_555
C18_5 C15_5 1_555 1_555
O3_3 C18_5 1_555 1_555
O4_5 C18_5 1_555 1_555
C16_5 C17_5 1_555 1_555
N4_5 C11_5 1_555 1_555
N5_5 C10_5 1_555 1_555
N6_5 C10_5 1_555 1_555
O5_3 Zn1_2 1_555 1_555
C11_5 N6_5 1_555 1_555
N4_5 N5_5 1_555 1_555
N5_5 Zn1_2 1_555 1_555
C1_5 H1_5 1_555 1_555
C2_5 H2_5 1_555 1_555
C3_5 C4_5 1_555 1_555
C4_5 H3_5 1_555 1_555
C5_5 C4_5 1_555 1_555
H4_5 C5_5 1_555 1_555
C6_5 C5_5 1_555 1_555
C7_5 C6_5 1_555 1_555
H5_5 C7_5 1_555 1_555
C8_5 C3_5 1_555 1_555
H6_5 C8_5 1_555 1_555
C9_5 C6_5 1_555 1_555
N1_5 C1_5 1_555 1_555
N2_5 C2_5 1_555 1_555
N3_5 C1_5 1_555 1_555
O1_5 C9_5 1_555 1_555
O2_3 C9_5 1_555 1_555
C2_5 N3_5 1_555 1_555
C3_5 N3_5 1_555 1_555
C7_5 C8_5 1_555 1_555
N1_5 N2_5 1_555 1_555
C1_6 H1_6 1_555 1_555
C2_6 H2_6 1_555 1_555
C3_6 C4_6 1_555 1_555
C4_6 H3_6 1_555 1_555
C5_6 C4_6 1_555 1_555
H4_6 C5_6 1_555 1_555
C6_6 C5_6 1_555 1_555
C7_6 C6_6 1_555 1_555
H5_6 C7_6 1_555 1_555
C8_6 C3_6 1_555 1_555
H6_6 C8_6 1_555 1_555
C9_6 C6_6 1_555 1_555
N1_6 C1_6 1_555 1_555
N2_6 C2_6 1_555 1_555
N3_6 C1_6 1_555 1_555
O1_6 C9_6 1_555 1_555
O5_3 C9_6 1_555 1_555
C2_6 N3_6 1_555 1_555
C3_6 N3_6 1_555 1_555
C7_6 C8_6 1_555 1_555
N1_6 N2_6 1_555 1_555
C11_6 H8_6 1_555 1_555
C12_6 C13_6 1_555 1_555
C13_6 H9_6 1_555 1_555
C14_6 C13_6 1_555 1_555
C15_6 C14_6 1_555 1_555
C16_6 C15_6 1_555 1_555
H11_6 C16_6 1_555 1_555
C17_6 C12_6 1_555 1_555
H12_6 C17_6 1_555 1_555
C18_6 C15_6 1_555 1_555
N4_6 C11_6 1_555 1_555
N5_6 C10_6 1_555 1_555
N6_6 C10_6 1_555 1_555
O6_3 C18_6 1_555 1_555
O4_6 C18_6 1_555 1_555
C11_6 N6_6 1_555 1_555
C12_6 N6_6 1_555 1_555
C16_6 C17_6 1_555 1_555
N4_6 N5_6 1_555 1_555
N5_6 Zn3_3 1_555 1_555
C10_7 H7_7 1_555 1_555
C11_7 H8_7 1_555 1_555
C12_7 C13_7 1_555 1_555
C13_7 H9_7 1_555 1_555
C14_7 C13_7 1_555 1_555
H10_7 C14_7 1_555 1_555
C15_7 C14_7 1_555 1_555
C16_7 C15_7 1_555 1_555
H11_7 C16_7 1_555 1_555
C17_7 C12_7 1_555 1_555
H12_7 C17_7 1_555 1_555
C18_7 C15_7 1_555 1_555
N4_7 C11_7 1_555 1_555
N5_7 C10_7 1_555 1_555
N6_7 C10_7 1_555 1_555
O3_4 C18_7 1_555 1_555
O4_7 C18_7 1_555 1_555
O6_4 Zn2_2 1_555 1_555
Zn3_4 O3_4 1_555 1_555
C11_7 N6_7 1_555 1_555
C12_7 N6_7 1_555 1_555
C16_7 C17_7 1_555 1_555
N4_7 N5_7 1_555 1_555
N5_7 Zn2_2 1_555 1_555
C1_7 H1_7 1_555 1_555
C2_7 H2_7 1_555 1_555
C3_7 C4_7 1_555 1_555
C4_7 H3_7 1_555 1_555
C5_7 C4_7 1_555 1_555
H4_7 C5_7 1_555 1_555
C6_7 C5_7 1_555 1_555
C7_7 C6_7 1_555 1_555
H5_7 C7_7 1_555 1_555
C8_7 C3_7 1_555 1_555
H6_7 C8_7 1_555 1_555
C9_7 C6_7 1_555 1_555
C10_8 H7_8 1_555 1_555
N1_7 C1_7 1_555 1_555
N2_7 C2_7 1_555 1_555
N3_7 C1_7 1_555 1_555
N4_8 C11_8 1_555 1_555
N5_8 C10_8 1_555 1_555
N6_8 C10_8 1_555 1_555
O1_7 C9_7 1_555 1_555
O2_4 C9_7 1_555 1_555
Zn3_4 N2_7 1_555 1_555
O5_4 Zn3_4 1_555 1_555
C2_7 N3_7 1_555 1_555
C3_7 N3_7 1_555 1_555
C7_7 C8_7 1_555 1_555
C11_8 N6_8 1_555 1_555
N1_7 N2_7 1_555 1_555
N4_8 N5_8 1_555 1_555
N5_8 Zn3_4 1_555 1_555
C12_8 C13_8 1_555 1_555
C13_8 H9_8 1_555 1_555
C14_8 C13_8 1_555 1_555
H10_8 C14_8 1_555 1_555
C15_8 C14_8 1_555 1_555
C16_8 C15_8 1_555 1_555
H11_8 C16_8 1_555 1_555
C17_8 C12_8 1_555 1_555
C18_8 C15_8 1_555 1_555
O6_4 C18_8 1_555 1_555
O4_8 C18_8 1_555 1_555
C16_8 C17_8 1_555 1_555
C1_8 H1_8 1_555 1_555
C2_8 H2_8 1_555 1_555
C3_8 C4_8 1_555 1_555
C4_8 H3_8 1_555 1_555
C5_8 C4_8 1_555 1_555
H4_8 C5_8 1_555 1_555
C6_8 C5_8 1_555 1_555
C7_8 C6_8 1_555 1_555
H5_8 C7_8 1_555 1_555
C8_8 C3_8 1_555 1_555
H6_8 C8_8 1_555 1_555
C9_8 C6_8 1_555 1_555
N1_8 C1_8 1_555 1_555
N2_8 C2_8 1_555 1_555
N3_8 C1_8 1_555 1_555
O1_8 C9_8 1_555 1_555
O5_4 C9_8 1_555 1_555
C2_8 N3_8 1_555 1_555
C3_8 N3_8 1_555 1_555
C7_8 C8_8 1_555 1_555
N1_8 N2_8 1_555 1_555

#END
