
###############################################################################
#
# This file contains modified crystal structure data generated from the
# MOF subset of the Cambridge Structural Database (CSD) v543 
# hosted by the Cambridge Crystallographic Data Centre (CCDC).
#
# This work is licensed under the Creative Commons
# Attribution-NonCommercial-ShareAlike 4.0 International License.
# To view a copy of this license, visit
# http://creativecommons.org/licenses/by-nc-sa/4.0/
# or send a letter to
# Creative Commons, PO Box 1866, Mountain View, CA 94042, USA.
#
# CIF created using the CSD Python API on 29 September 2022
# The structure has been converted into the P1 space group
# The structure has a 3D framework
# The original CSD entry AQIXUV is in the triclinic crystal system
# The framework has been calculated to contain at least 10.0% void space
# The void calculation uses a probe of radius 1.32A, grid spacing 0.4
# The framework is charged, counterions have been retained in the structure
#
###############################################################################

data_AQIXUV
_chemical_formula_moiety         '(C168 H150 N6 Ni9 O40 2-)n'
_symmetry_cell_setting           triclinic
_symmetry_space_group_name_H-M   'P 1'
_symmetry_Int_Tables_number      1
_space_group_name_Hall           'P 1'
loop_
_symmetry_equiv_pos_site_id
_symmetry_equiv_pos_as_xyz
1 x,y,z
_cell_length_a                   13.709(4)
_cell_length_b                   17.722(5)
_cell_length_c                   23.810(6)
_cell_angle_alpha                70.746(4)
_cell_angle_beta                 77.493(4)
_cell_angle_gamma                88.400(4)
_cell_volume                     5325.57
loop_
_atom_site_label
_atom_site_type_symbol
_atom_site_fract_x
_atom_site_fract_y
_atom_site_fract_z
Ni4 Ni -0.0000 -0.0000 0.0000
O29 O 0.0229(2) 0.13795(15) 0.06261(13)
C104 C 0.0139(2) 0.16478(19) 0.00648(17)
C105 C 0.0020(3) 0.3027(2) 0.01637(18)
H95 H 0.0024 0.2795 0.0575
Ni4_2 Ni 1.0000 -0.0000 0.0000
O32 O 0.3464(3) 0.3362(2) 0.02297(16)
C119 C 0.3898(3) 0.4401(2) 0.05710(18)
C122 C 0.2703(4) 0.6419(2) 0.0255(3)
H103 H 0.2269 0.6630 0.0541
C126 C 0.4282(3) 0.3853(3) 0.0212(2)
H107 H 0.4789 0.3522 0.0387
H109 H 0.9907 0.4156 0.0173
C130 C 0.3117(4) 0.5640(2) 0.0590(2)
C132 C 0.4007(4) 0.4253(2) 0.1153(2)
C135 C 0.3738(4) 0.4794(3) 0.1460(2)
C139 C 0.3419(4) 0.5099(2) 0.0281(2)
C140 C 0.3278(4) 0.5505(3) 0.1171(2)
C142 C 0.4454(5) 0.3462(3) 0.1482(3)
H117 H 0.4374 0.3072 0.1293
H118 H 0.5152 0.3555 0.1453
H119 H 0.4112 0.3268 0.1903
C155 C 0.2964(6) 0.6132(3) 0.1474(3)
H138 H 0.2248 0.6139 0.1571
H139 H 0.3211 0.6006 0.1840
H140 H 0.3236 0.6649 0.1200
O38 O 0.4761(4) 0.5036(3) 0.2034(2)
C161 C 0.3814(6) 0.4659(4) 0.2081(3)
H144 H 0.3268 0.4897 0.2288
H145 H 0.3798 0.4091 0.2304
C162 C 0.5996(5) 0.5157(3) 0.2541(2)
H146 H 0.6324 0.5542 0.2181
C163 C 0.6441(4) 0.4904(4) 0.3040(3)
H147 H 0.7066 0.5120 0.3015
C164 C 0.5951(5) 0.4328(4) 0.3577(2)
C165 C 0.5017(5) 0.4006(3) 0.3614(2)
H148 H 0.4689 0.3621 0.3974
C166 C 0.4572(5) 0.4259(4) 0.3115(3)
H149 H 0.3947 0.4043 0.3141
C167 C 0.5062(5) 0.4835(3) 0.2578(2)
O39 O 0.7158(7) 0.4417(6) 0.4077(4)
O40 O 0.5824(8) 0.3270(6) 0.4578(4)
H150 H 0.5774 0.2914 0.4436
C168 C 0.6415(8) 0.3919(6) 0.4128(5)
Ni4_3 Ni -0.0000 -0.0000 1.0000
Ni4_4 Ni -0.0000 1.0000 0.0000
C1 C 0.2230(3) 0.0517(2) 0.96901(19)
H5 H 0.2009 0.0980 0.9437
C19 C 0.3221(3) 0.0496(3) 0.96964(19)
H14 H 0.3647 0.0937 0.9457
N4 N 0.8439(2) 0.00684(15) 0.99839(12)
C86 C 0.8105(3) 0.0732(2) 0.9638(2)
H77 H 0.8558 0.1161 0.9410
C87 C 0.6402(3) 0.0181(2) 0.99415(16)
C88 C 0.5360(3) 0.0281(2) 0.98896(16)
H78 H 0.5190 0.0792 0.9680
C90 C 0.7120(3) 0.0813(2) 0.96006(19)
H80 H 0.6924 0.1287 0.9349
O21 O 0.00893(18) 0.12327(12) 0.97462(11)
O23 O 0.02822(19) 0.01323(13) 0.90721(11)
H92 H 0.0914 0.0201 0.8921
O30 O 0.0033(3) 0.50081(15) 0.91023(14)
C103 C 0.0070(3) 0.25437(18) 0.98070(16)
C109 C 0.0041(3) 0.2893(2) 0.91889(19)
H96 H 0.0041 0.2577 0.8945
O35 O 0.2952(3) 0.7741(3) 0.72368(19)
C117 C 0.0011(4) 0.3724(2) 0.89481(19)
H101 H 0.0002 0.3965 0.8538
C123 C 0.0154(5) 0.5410(2) 0.8461(2)
H105 H 0.0713 0.5203 0.8237
C124 C 0.0348(3) 0.6295(2) 0.83468(19)
C129 C 0.2578(4) 0.7756(4) 0.7843(2)
H110 H 0.2969 0.7426 0.8119
H111 H 0.2605 0.8298 0.7852
C137 C 0.1507(3) 0.7427(3) 0.8024(2)
C144 C 0.2208(5) 0.6059(4) 0.8152(4)
H121 H 0.2220 0.5845 0.7829
H122 H 0.2821 0.6362 0.8073
H123 H 0.2135 0.5628 0.8532
C146 C 0.0721(4) 0.7924(2) 0.80495(19)
C148 C 0.1322(4) 0.6606(3) 0.8186(2)
C151 C 0.4571(5) 0.8290(4) 0.7226(3)
H130 H 0.4373 0.8308 0.7621
C153 C 0.0903(5) 0.8827(3) 0.7841(3)
H134 H 0.0798 0.9000 0.8190
H135 H 0.1579 0.8968 0.7611
H136 H 0.0448 0.9082 0.7589
C154 C 0.4234(6) 0.7886(4) 0.6409(3)
H137 H 0.3802 0.7650 0.6256
C156 C 0.5493(5) 0.8564(6) 0.6887(3)
H141 H 0.5904 0.8830 0.7032
C157 C 0.3933(5) 0.7985(4) 0.6977(3)
C158 C 0.5228(6) 0.8158(5) 0.6069(4)
H142 H 0.5441 0.8128 0.5679
C159 C 0.5849(7) 0.8454(7) 0.6313(4)
O36 O 0.7323(7) 0.9347(6) 0.6065(4)
H143 H 0.7730 0.9624 0.5766
O37 O 0.7056(6) 0.8635(6) 0.5415(4)
C160 C 0.6784(8) 0.8872(7) 0.5899(5)
Ni4_5 Ni 1.0000 -0.0000 1.0000
H1 H 0.0011 0.9460 0.1119
O5 O 0.5930(2) 0.79948(15) 0.19992(11)
N1 N 0.1561(2) 0.99316(15) 0.00161(12)
O7 O 0.6451(2) 0.30346(15) 0.00830(16)
O13 O 0.1479(3) 0.15049(18) 0.21140(15)
O14 O 0.7362(3) 0.7433(2) 0.2014(2)
C3 C 0.1895(3) 0.9268(2) 0.0362(2)
H6 H 0.1442 0.8839 0.0590
C5 C 0.3598(3) 0.9819(2) 0.00585(16)
C7 C 0.6811(3) 0.0796(2) 0.12703(16)
C8 C 0.6631(3) 0.2301(2) 0.0467(2)
C12 C 0.0005(3) 0.5810(2) 0.06882(19)
C14 C 0.6547(4) 0.7368(3) 0.1258(2)
C15 C 0.7652(3) 0.1309(2) 0.09458(19)
H10 H 0.8288 0.1144 0.0994
C16 C 0.4640(3) 0.9719(2) 0.01104(16)
H11 H 0.4810 0.9208 0.0320
C17 C 0.5889(3) 0.1045(2) 0.11853(19)
H12 H 0.5328 0.0707 0.1400
C18 C 0.7534(3) 0.2062(2) 0.0553(2)
H13 H 0.8092 0.2406 0.0345
C20 C 0.5774(3) 0.1802(2) 0.0779(2)
H15 H 0.5145 0.1969 0.0719
C22 C 0.0436(4) 0.3223(2) 0.1583(2)
C24 C 0.5663(3) 0.7302(2) 0.11015(19)
H17 H 0.5082 0.7433 0.1328
C25 C 0.6621(3) 0.7623(3) 0.1784(2)
H19 H 0.7680 0.3664 0.0020
C27 C 0.2880(3) 0.9187(2) 0.03994(19)
H20 H 0.3076 0.8713 0.0651
H22 H 0.0446 0.4671 0.1670
C30 C 0.2130(4) 0.0905(2) 0.20800(19)
H24 H 0.5419 0.5834 0.0207
C32 C 0.0035(3) 0.6158(2) 0.0077(2)
C33 C 0.6498(4) 0.6886(3) 0.0253(2)
C38 C 0.1095(4) 0.1884(3) 0.1569(2)
H28 H 0.0854 0.1480 0.1433
H29 H 0.1622 0.2211 0.1244
C39 C 0.2404(4) 0.0530(3) 0.2627(2)
H30 H 0.2151 0.0682 0.2967
C41 C 0.0248(4) 0.2401(2) 0.17221(19)
C51 C 0.2465(4) 0.0684(3) 0.1579(2)
H35 H 0.2256 0.0944 0.1220
C54 C 0.7405(4) 0.7240(4) 0.0894(3)
H40 H 0.8018 0.7328 0.0975
C56 C 0.3125(4) 0.0061(3) 0.1606(2)
C58 C 0.5591(4) 0.7042(3) 0.0604(2)
H45 H 0.4977 0.6978 0.0515
C60 C 0.7386(4) 0.6980(4) 0.0403(3)
H46 H 0.7981 0.6871 0.0176
C62 C 0.6771(5) 0.4778(4) 0.0337(2)
H48 H 0.7154 0.5230 0.0325
H49 H 0.7135 0.4302 0.0459
H50 H 0.6144 0.4721 0.0625
C66 C 0.1517(5) 0.3557(4) 0.1388(3)
H54 H 0.1549 0.4099 0.1117
H55 H 0.1927 0.3237 0.1181
H56 H 0.1756 0.3543 0.1741
H61 H 0.6838 0.0210 0.3829
C72 C 0.5419(6) 0.0045(3) 0.4774(2)
H66 H 0.5957 0.0356 0.4770
C85 C 0.7770(3) 0.9483(2) 0.03099(19)
H76 H 0.7991 0.9020 0.0563
C89 C 0.6779(3) 0.9504(3) 0.03036(19)
H79 H 0.6353 0.9063 0.0543
N6 N 0.4261(3) 0.09747(19) 0.66445(14)
C97 C 0.5064(4) 0.1148(3) 0.6186(2)
H86 H 0.5547 0.1508 0.6183
C98 C 0.4477(5) 0.0324(3) 0.5710(2)
C99 C 0.5232(5) 0.0842(4) 0.5727(2)
H87 H 0.5824 0.0967 0.5430
C100 C 0.3555(4) 0.0484(3) 0.6622(2)
H88 H 0.2971 0.0367 0.6925
C101 C 0.3659(5) 0.0142(4) 0.6162(3)
Ni4_6 Ni 1.0000 1.0000 0.0000
Ni5 Ni 0.59279(4) 0.84975(3) 0.26776(2)
Ni8 Ni 0.40721(4) 0.15025(3) 0.73224(2)
O2 O 0.6145(2) 0.96033(15) 0.20333(11)
O4 O 0.4401(2) 0.86885(15) 0.26664(11)
O6 O 0.7437(2) 0.83749(16) 0.26463(12)
H3 H 0.7758 0.8494 0.2879
H4 H 0.7842 0.8198 0.2396
N2 N 0.5600(3) 0.73634(19) 0.33315(16)
O8 O 0.4483(2) 0.88568(17) 0.16836(12)
O11 O 0.7807(2) 0.97453(18) 0.17424(13)
N3 N 0.5739(3) 0.90253(19) 0.33555(14)
C9 C 0.6950(3) 0.9991(2) 0.17093(16)
C11 C 0.4128(3) 0.9028(2) 0.21906(16)
C13 C 0.6077(5) 0.7141(3) 0.3781(3)
H9 H 0.6595 0.7471 0.3779
C36 C 0.3423(3) 0.9673(2) 0.21423(17)
C43 C 0.3077(3) 0.9909(3) 0.26558(19)
H31 H 0.3291 0.9657 0.3014
C44 C 0.4905(5) 0.6864(3) 0.3327(2)
H32 H 0.4598 0.7006 0.2997
C46 C 0.4936(4) 0.8852(3) 0.3814(2)
H33 H 0.4453 0.8492 0.3817
C47 C 0.5816(5) 0.6412(4) 0.4267(3)
H34 H 0.6128 0.6289 0.4593
C48 C 0.5132(5) 0.5900(3) 0.4264(2)
C49 C 0.5523(5) 0.9676(3) 0.4290(2)
C53 C 0.4820(5) 0.5144(3) 0.4755(3)
H39 H 0.4316 0.4837 0.4716
H44 H 0.3361 0.9910 0.1263
C61 C 0.4768(5) 0.9158(4) 0.4273(2)
H47 H 0.4176 0.9033 0.4570
C63 C 0.6445(4) 0.9516(3) 0.3378(2)
H51 H 0.7029 0.9633 0.3075
C64 C 0.4610(5) 0.6135(3) 0.3790(3)
H52 H 0.4087 0.5815 0.3786
C69 C 0.6341(5) 0.9858(4) 0.3838(3)
N5 N 0.4400(3) 0.26366(19) 0.66685(16)
C91 C 0.3923(5) 0.2859(3) 0.6219(3)
H81 H 0.3405 0.2529 0.6221
C92 C 0.5095(5) 0.3136(3) 0.6673(2)
H82 H 0.5402 0.2994 0.7003
C93 C 0.4184(5) 0.3588(4) 0.5733(3)
H83 H 0.3872 0.3711 0.5407
C94 C 0.4868(5) 0.4100(3) 0.5736(2)
C95 C 0.5180(5) 0.4856(3) 0.5245(3)
H84 H 0.5684 0.5163 0.5284
C96 C 0.5390(5) 0.3865(3) 0.6210(3)
H85 H 0.5913 0.4185 0.6214
H89 H 0.3162 0.9790 0.6171
C102 C 0.4581(6) 0.9955(3) 0.5226(2)
H90 H 0.4043 0.9644 0.5230
O22 O 0.3855(2) 0.03967(15) 0.79667(11)
O24 O 0.5599(2) 0.13115(15) 0.73336(11)
O26 O 0.2563(2) 0.16251(16) 0.73537(12)
H93 H 0.2242 0.1506 0.7121
H94 H 0.2158 0.1802 0.7604
O28 O 0.5517(2) 0.11432(17) 0.83164(12)
O31 O 0.2193(2) 0.02547(18) 0.82576(13)
C108 C 0.3050(3) 0.0009(2) 0.82907(16)
C110 C 0.5872(3) 0.0972(2) 0.78094(16)
C131 C 0.6577(3) 0.0327(2) 0.78577(17)
C138 C 0.6923(3) 0.0091(3) 0.73442(19)
H115 H 0.6709 0.0343 0.6986
H124 H 0.6639 0.0090 0.8737
O42 O 0.4070(2) 0.20052(15) 0.80008(11)
H91 H 0.9989 0.0540 0.8881
O27 O 0.3549(2) 0.69654(15) 0.99170(16)
O33 O 0.8521(3) 0.84951(18) 0.78860(15)
O34 O 0.2638(3) 0.2567(2) 0.7986(2)
C106 C 0.3189(3) 0.9204(2) 0.87297(16)
C107 C 0.3369(3) 0.7699(2) 0.9533(2)
C111 C 0.9995(3) 0.4190(2) 0.93118(19)
C112 C 0.3453(4) 0.2632(3) 0.8742(2)
C113 C 0.2348(3) 0.8691(2) 0.90542(19)
H97 H 0.1712 0.8856 0.9006
C114 C 0.4111(3) 0.8955(2) 0.88147(19)
H98 H 0.4672 0.9293 0.8600
C115 C 0.2466(3) 0.7938(2) 0.9447(2)
H99 H 0.1908 0.7594 0.9655
C116 C 0.4226(3) 0.8198(2) 0.9221(2)
H100 H 0.4855 0.8031 0.9281
C118 C 0.9564(4) 0.6777(2) 0.8417(2)
C120 C 0.4337(3) 0.2698(2) 0.88985(19)
H102 H 0.4918 0.2567 0.8672
C121 C 0.3379(3) 0.2377(3) 0.8216(2)
H104 H 0.2320 0.6336 0.9980
H106 H 0.9554 0.5329 0.8330
C125 C 0.7870(4) 0.9095(2) 0.79200(19)
H108 H 0.4581 0.4166 0.9793
C127 C 0.9965(3) 0.3842(2) 0.9923(2)
C128 C 0.3502(4) 0.3114(3) 0.9747(2)
C133 C 0.8905(4) 0.8116(3) 0.8431(2)
H112 H 0.9146 0.8520 0.8567
H113 H 0.8378 0.7789 0.8756
C134 C 0.7596(4) 0.9470(3) 0.7373(2)
H114 H 0.7849 0.9318 0.7033
C136 C 0.9752(4) 0.7599(2) 0.82779(19)
C141 C 0.7535(4) 0.9316(3) 0.8421(2)
H116 H 0.7744 0.9056 0.8780
C143 C 0.2595(4) 0.2760(4) 0.9106(3)
H120 H 0.1982 0.2672 0.9025
C145 C 0.6875(4) 0.9939(3) 0.8394(2)
C147 C 0.4409(4) 0.2958(3) 0.9396(2)
H125 H 0.5023 0.3022 0.9485
C149 C 0.2614(4) 0.3020(4) 0.9597(3)
H126 H 0.2019 0.3129 0.9824
C150 C 0.3229(5) 0.5222(4) 0.9663(2)
H127 H 0.2846 0.4770 0.9675
H128 H 0.2865 0.5698 0.9541
H129 H 0.3856 0.5279 0.9375
C152 C 0.8483(5) 0.6443(4) 0.8612(3)
H131 H 0.8451 0.5901 0.8883
H132 H 0.8073 0.6763 0.8819
H133 H 0.8244 0.6457 0.8259
O1 O 0.99107(18) 0.87673(12) 0.02538(11)
O3 O 0.97178(19) 0.98677(13) 0.09279(11)
H2 H 0.9086 0.9799 0.1079
O10 O 0.9967(3) 0.49919(15) 0.08977(14)
C2 C 0.9930(3) 0.74563(18) 0.01930(16)
C10 C 0.9959(3) 0.7107(2) 0.08111(19)
H8 H 0.9959 0.7423 0.1055
O15 O 0.7048(3) 0.2259(3) 0.27632(19)
C21 C 0.9989(4) 0.6276(2) 0.10519(19)
H16 H 0.9998 0.6035 0.1462
C28 C 0.9846(5) 0.4590(2) 0.1539(2)
H21 H 0.9287 0.4797 0.1763
C29 C 0.9652(3) 0.3705(2) 0.16532(19)
C34 C 0.7422(4) 0.2244(4) 0.2157(2)
H26 H 0.7031 0.2574 0.1881
H27 H 0.7395 0.1702 0.2148
C42 C 0.8493(3) 0.2573(3) 0.1976(2)
C55 C 0.7792(5) 0.3941(4) 0.1848(4)
H41 H 0.7780 0.4155 0.2171
H42 H 0.7179 0.3638 0.1927
H43 H 0.7865 0.4372 0.1468
C57 C 0.9279(4) 0.2076(2) 0.19505(19)
C59 C 0.8678(4) 0.3394(3) 0.1814(2)
C65 C 0.5429(5) 0.1710(4) 0.2774(3)
H53 H 0.5627 0.1692 0.2379
C67 C 0.9097(5) 0.1173(3) 0.2159(3)
H57 H 0.9202 0.1000 0.1810
H58 H 0.8421 0.1032 0.2389
H59 H 0.9552 0.0918 0.2411
C68 C 0.5766(6) 0.2114(4) 0.3591(3)
H60 H 0.6198 0.2350 0.3744
C71 C 0.4507(5) 0.1436(6) 0.3113(3)
H65 H 0.4096 0.1170 0.2968
C73 C 0.6067(5) 0.2015(4) 0.3023(3)
C74 C 0.4772(6) 0.1842(5) 0.3931(4)
H67 H 0.4559 0.1872 0.4321
C75 C 0.4151(7) 0.1546(7) 0.3687(4)
O16 O 0.2677(7) 0.0653(6) 0.3935(4)
H68 H 0.2270 0.0376 0.4234
O17 O 0.2944(6) 0.1365(6) 0.4585(4)
C76 C 0.3216(8) 0.1128(7) 0.4101(5)
Ni4_7 Ni -0.0000 1.0000 1.0000
O12 O 0.6536(3) 0.6638(2) 0.97703(16)
C23 C 0.6102(3) 0.5599(2) 0.94290(18)
C26 C 0.7297(4) 0.3581(2) 0.9745(3)
H18 H 0.7731 0.3370 0.9459
C31 C 0.5718(3) 0.6147(3) 0.9788(2)
H23 H 0.5211 0.6478 0.9613
H25 H 0.0093 0.5844 0.9827
C35 C 0.6883(4) 0.4360(2) 0.9410(2)
C37 C 0.5993(4) 0.5747(2) 0.8847(2)
C40 C 0.6262(4) 0.5206(3) 0.8540(2)
C45 C 0.6581(4) 0.4901(2) 0.9719(2)
C50 C 0.6722(4) 0.4495(3) 0.8829(2)
C52 C 0.5546(5) 0.6538(3) 0.8518(3)
H36 H 0.5626 0.6928 0.8707
H37 H 0.4848 0.6445 0.8547
H38 H 0.5888 0.6732 0.8097
C70 C 0.7036(6) 0.3868(3) 0.8526(3)
H62 H 0.7752 0.3861 0.8429
H63 H 0.6789 0.3994 0.8160
H64 H 0.6764 0.3351 0.8800
O18 O 0.5239(4) 0.4964(3) 0.7966(2)
C77 C 0.6186(6) 0.5341(4) 0.7919(3)
H69 H 0.6732 0.5103 0.7712
H70 H 0.6202 0.5909 0.7696
C78 C 0.4004(5) 0.4843(3) 0.7459(2)
H71 H 0.3676 0.4458 0.7819
C79 C 0.3559(4) 0.5096(4) 0.6960(3)
H72 H 0.2934 0.4880 0.6985
C80 C 0.4049(5) 0.5672(4) 0.6423(2)
C81 C 0.4983(5) 0.5994(3) 0.6386(2)
H73 H 0.5311 0.6379 0.6026
C82 C 0.5428(5) 0.5741(4) 0.6885(3)
H74 H 0.6053 0.5957 0.6859
C83 C 0.4938(5) 0.5165(3) 0.7422(2)
O19 O 0.2842(7) 0.5583(6) 0.5923(4)
O20 O 0.4176(8) 0.6730(6) 0.5422(4)
H75 H 0.4226 0.7086 0.5564
C84 C 0.3585(8) 0.6081(6) 0.5872(5)
Ni4_8 Ni 1.0000 1.0000 1.0000
O9 O 0.9771(2) 0.86205(15) 0.93739(13)
C4 C 0.9861(2) 0.83522(19) 0.99352(17)
C6 C 0.9980(3) 0.6973(2) 0.98363(18)
H7 H 0.9976 0.7205 0.9425
loop_
_geom_bond_atom_site_label_1
_geom_bond_atom_site_label_2
_geom_bond_site_symmetry_1
_geom_bond_site_symmetry_2
O29 C104 1_555 1_555
H95 C105 1_555 1_555
O32 C126 1_555 1_555
C119 C126 1_555 1_555
H103 C122 1_555 1_555
C126 H107 1_555 1_555
C130 C122 1_555 1_555
C132 C119 1_555 1_555
C135 C132 1_555 1_555
C139 C119 1_555 1_555
C140 C130 1_555 1_555
C142 C132 1_555 1_555
H117 C142 1_555 1_555
H118 C142 1_555 1_555
H119 C142 1_555 1_555
C155 C140 1_555 1_555
H138 C155 1_555 1_555
H139 C155 1_555 1_555
H140 C155 1_555 1_555
O38 C161 1_555 1_555
C161 C135 1_555 1_555
H144 C161 1_555 1_555
H145 C161 1_555 1_555
C162 H146 1_555 1_555
C163 C162 1_555 1_555
H147 C163 1_555 1_555
C164 C163 1_555 1_555
C165 C164 1_555 1_555
H148 C165 1_555 1_555
C166 C165 1_555 1_555
H149 C166 1_555 1_555
C167 O38 1_555 1_555
O39 C168 1_555 1_555
O40 H150 1_555 1_555
C168 C164 1_555 1_555
C130 C139 1_555 1_555
C135 C140 1_555 1_555
C162 C167 1_555 1_555
C166 C167 1_555 1_555
O40 C168 1_555 1_555
H5 C1 1_555 1_555
C19 C1 1_555 1_555
H14 C19 1_555 1_555
C86 N4 1_555 1_555
H77 C86 1_555 1_555
C87 C88 1_555 1_555
H78 C88 1_555 1_555
C90 C86 1_555 1_555
H80 C90 1_555 1_555
O21 Ni4_3 1_555 1_555
O23 Ni4_3 1_555 1_555
H92 O23 1_555 1_555
C109 C103 1_555 1_555
H96 C109 1_555 1_555
O35 C129 1_555 1_555
C117 C109 1_555 1_555
H101 C117 1_555 1_555
C123 O30 1_555 1_555
H105 C123 1_555 1_555
C124 C123 1_555 1_555
C129 H110 1_555 1_555
H111 C129 1_555 1_555
C137 C129 1_555 1_555
C144 H121 1_555 1_555
H122 C144 1_555 1_555
H123 C144 1_555 1_555
C148 C124 1_555 1_555
C151 H130 1_555 1_555
C153 C146 1_555 1_555
H134 C153 1_555 1_555
H135 C153 1_555 1_555
H136 C153 1_555 1_555
C154 H137 1_555 1_555
C156 C151 1_555 1_555
H141 C156 1_555 1_555
C157 O35 1_555 1_555
C158 C154 1_555 1_555
H142 C158 1_555 1_555
C159 C156 1_555 1_555
O36 H143 1_555 1_555
O37 C160 1_555 1_555
C160 C159 1_555 1_555
Ni4_5 N4 1_555 1_555
C87 C90 1_555 1_555
C137 C146 1_555 1_555
C137 C148 1_555 1_555
C144 C148 1_555 1_555
C151 C157 1_555 1_555
C154 C157 1_555 1_555
C158 C159 1_555 1_555
O36 C160 1_555 1_555
O5 C25 1_555 1_555
N1 Ni4_4 1_555 1_555
O7 C8 1_555 1_555
O13 C30 1_555 1_555
O14 C25 1_555 1_555
C3 N1 1_555 1_555
H6 C3 1_555 1_555
C5 C16 1_555 1_555
C8 C18 1_555 1_555
C14 C24 1_555 1_555
C15 C7 1_555 1_555
H10 C15 1_555 1_555
C16 H11 1_555 1_555
C17 C7 1_555 1_555
H12 C17 1_555 1_555
C18 C15 1_555 1_555
H13 C18 1_555 1_555
C20 C8 1_555 1_555
H15 C20 1_555 1_555
C24 H17 1_555 1_555
C25 C14 1_555 1_555
C27 C3 1_555 1_555
H20 C27 1_555 1_555
C30 C39 1_555 1_555
C38 O13 1_555 1_555
H28 C38 1_555 1_555
H29 C38 1_555 1_555
C39 H30 1_555 1_555
C41 C22 1_555 1_555
C51 C30 1_555 1_555
H35 C51 1_555 1_555
C54 C14 1_555 1_555
H40 C54 1_555 1_555
C58 C24 1_555 1_555
H45 C58 1_555 1_555
C60 C33 1_555 1_555
H46 C60 1_555 1_555
H48 C62 1_555 1_555
H49 C62 1_555 1_555
H50 C62 1_555 1_555
C66 C22 1_555 1_555
H54 C66 1_555 1_555
H55 C66 1_555 1_555
H56 C66 1_555 1_555
H66 C72 1_555 1_555
C85 H76 1_555 1_555
C89 C85 1_555 1_555
H79 C89 1_555 1_555
N6 C97 1_555 1_555
C97 H86 1_555 1_555
C98 C99 1_555 1_555
C99 C97 1_555 1_555
H87 C99 1_555 1_555
C100 N6 1_555 1_555
H88 C100 1_555 1_555
C101 C98 1_555 1_555
Ni5 O5 1_555 1_555
Ni8 N6 1_555 1_555
C5 C27 1_555 1_555
C12 C32 1_555 1_555
C17 C20 1_555 1_555
C33 C58 1_555 1_555
C38 C41 1_555 1_555
C51 C56 1_555 1_555
C54 C60 1_555 1_555
C100 C101 1_555 1_555
Ni5 O2 1_555 1_555
O2 C9 1_555 1_555
O4 Ni5 1_555 1_555
O6 Ni5 1_555 1_555
H3 O6 1_555 1_555
H4 O6 1_555 1_555
N2 Ni5 1_555 1_555
O8 C11 1_555 1_555
O11 C9 1_555 1_555
N3 Ni5 1_555 1_555
C11 O4 1_555 1_555
C13 N2 1_555 1_555
H9 C13 1_555 1_555
C36 C11 1_555 1_555
C43 C36 1_555 1_555
H31 C43 1_555 1_555
C44 N2 1_555 1_555
H32 C44 1_555 1_555
C46 N3 1_555 1_555
H33 C46 1_555 1_555
C47 C13 1_555 1_555
H34 C47 1_555 1_555
C48 C47 1_555 1_555
C49 C61 1_555 1_555
C53 C48 1_555 1_555
H39 C53 1_555 1_555
C61 C46 1_555 1_555
H47 C61 1_555 1_555
C63 N3 1_555 1_555
H51 C63 1_555 1_555
C64 C44 1_555 1_555
H52 C64 1_555 1_555
C69 C49 1_555 1_555
N5 C91 1_555 1_555
C91 H81 1_555 1_555
C92 N5 1_555 1_555
H82 C92 1_555 1_555
C93 C91 1_555 1_555
H83 C93 1_555 1_555
C94 C93 1_555 1_555
C95 C53 1_555 1_555
H84 C95 1_555 1_555
C96 C92 1_555 1_555
H85 C96 1_555 1_555
H90 C102 1_555 1_555
Ni8 N5 1_555 1_555
C48 C64 1_555 1_555
C63 C69 1_555 1_555
C94 C95 1_555 1_555
C94 C96 1_555 1_555
Ni8 O22 1_555 1_555
O22 C108 1_555 1_555
O24 Ni8 1_555 1_555
O26 Ni8 1_555 1_555
H93 O26 1_555 1_555
H94 O26 1_555 1_555
O28 C110 1_555 1_555
O31 C108 1_555 1_555
C110 O24 1_555 1_555
C131 C110 1_555 1_555
C138 C131 1_555 1_555
H115 C138 1_555 1_555
O42 Ni8 1_555 1_555
O42 C121 1_555 1_555
O27 C107 1_555 1_555
O33 C125 1_555 1_555
O34 C121 1_555 1_555
C107 C115 1_555 1_555
C112 C120 1_555 1_555
C113 C106 1_555 1_555
H97 C113 1_555 1_555
C114 C106 1_555 1_555
H98 C114 1_555 1_555
C115 C113 1_555 1_555
H99 C115 1_555 1_555
C116 C107 1_555 1_555
H100 C116 1_555 1_555
C120 H102 1_555 1_555
C121 C112 1_555 1_555
C125 C134 1_555 1_555
C133 O33 1_555 1_555
H112 C133 1_555 1_555
H113 C133 1_555 1_555
C134 H114 1_555 1_555
C136 C118 1_555 1_555
C141 C125 1_555 1_555
H116 C141 1_555 1_555
C143 C112 1_555 1_555
H120 C143 1_555 1_555
C147 C120 1_555 1_555
H125 C147 1_555 1_555
C149 C128 1_555 1_555
H126 C149 1_555 1_555
H127 C150 1_555 1_555
H128 C150 1_555 1_555
H129 C150 1_555 1_555
C152 C118 1_555 1_555
H131 C152 1_555 1_555
H132 C152 1_555 1_555
H133 C152 1_555 1_555
C111 C127 1_555 1_555
C114 C116 1_555 1_555
C128 C147 1_555 1_555
C133 C136 1_555 1_555
C141 C145 1_555 1_555
C143 C149 1_555 1_555
Ni4_6 O1 1_555 1_555
O3 Ni4_6 1_555 1_555
H2 O3 1_555 1_555
C10 C2 1_555 1_555
H8 C10 1_555 1_555
O15 C34 1_555 1_555
C21 C10 1_555 1_555
H16 C21 1_555 1_555
C28 O10 1_555 1_555
H21 C28 1_555 1_555
C29 C28 1_555 1_555
C34 H26 1_555 1_555
H27 C34 1_555 1_555
C42 C34 1_555 1_555
C55 H41 1_555 1_555
H42 C55 1_555 1_555
H43 C55 1_555 1_555
C59 C29 1_555 1_555
C65 H53 1_555 1_555
C67 C57 1_555 1_555
H57 C67 1_555 1_555
H58 C67 1_555 1_555
H59 C67 1_555 1_555
C68 H60 1_555 1_555
C71 C65 1_555 1_555
H65 C71 1_555 1_555
C73 O15 1_555 1_555
C74 C68 1_555 1_555
H67 C74 1_555 1_555
C75 C71 1_555 1_555
O16 H68 1_555 1_555
O17 C76 1_555 1_555
C76 C75 1_555 1_555
C42 C57 1_555 1_555
C42 C59 1_555 1_555
C55 C59 1_555 1_555
C65 C73 1_555 1_555
C68 C73 1_555 1_555
C74 C75 1_555 1_555
O16 C76 1_555 1_555
O12 C31 1_555 1_555
C23 C31 1_555 1_555
H18 C26 1_555 1_555
C31 H23 1_555 1_555
C35 C26 1_555 1_555
C37 C23 1_555 1_555
C40 C37 1_555 1_555
C45 C23 1_555 1_555
C50 C35 1_555 1_555
C52 C37 1_555 1_555
H36 C52 1_555 1_555
H37 C52 1_555 1_555
H38 C52 1_555 1_555
C70 C50 1_555 1_555
H62 C70 1_555 1_555
H63 C70 1_555 1_555
H64 C70 1_555 1_555
O18 C77 1_555 1_555
C77 C40 1_555 1_555
H69 C77 1_555 1_555
H70 C77 1_555 1_555
C78 H71 1_555 1_555
C79 C78 1_555 1_555
H72 C79 1_555 1_555
C80 C79 1_555 1_555
C81 C80 1_555 1_555
H73 C81 1_555 1_555
C82 C81 1_555 1_555
H74 C82 1_555 1_555
C83 O18 1_555 1_555
O19 C84 1_555 1_555
O20 H75 1_555 1_555
C84 C80 1_555 1_555
C35 C45 1_555 1_555
C40 C50 1_555 1_555
C78 C83 1_555 1_555
C82 C83 1_555 1_555
O20 C84 1_555 1_555
O9 C4 1_555 1_555
H7 C6 1_555 1_555

#END
