
###############################################################################
#
# This file contains modified crystal structure data generated from the
# MOF subset of the Cambridge Structural Database (CSD) v543 
# hosted by the Cambridge Crystallographic Data Centre (CCDC).
#
# This work is licensed under the Creative Commons
# Attribution-NonCommercial-ShareAlike 4.0 International License.
# To view a copy of this license, visit
# http://creativecommons.org/licenses/by-nc-sa/4.0/
# or send a letter to
# Creative Commons, PO Box 1866, Mountain View, CA 94042, USA.
#
# CIF created using the CSD Python API on 29 September 2022
# The structure has been converted into the P1 space group
# The structure has a 3D framework
# The original CSD entry AQODOA is in the monoclinic crystal system
# The framework has been calculated to contain at least 10.0% void space
# The void calculation uses a probe of radius 1.32A, grid spacing 0.4
#
###############################################################################

data_AQODOA
_chemical_formula_moiety         '(C44 H60 Ag2 N16 O12 S4)n'
_symmetry_cell_setting           triclinic
_symmetry_space_group_name_H-M   'P 1'
_symmetry_Int_Tables_number      1
_space_group_name_Hall           'P 1'
loop_
_symmetry_equiv_pos_site_id
_symmetry_equiv_pos_as_xyz
1 x,y,z
_cell_length_a                   6.4420(3)
_cell_length_b                   8.9100(4)
_cell_length_c                   24.4160(13)
_cell_angle_alpha                90
_cell_angle_beta                 97.291(4)
_cell_angle_gamma                90
_cell_volume                     1390.1
loop_
_atom_site_label
_atom_site_type_symbol
_atom_site_fract_x
_atom_site_fract_y
_atom_site_fract_z
C8 C 0.0695(11) 0.0223(8) 0.5244(3)
Ag2 Ag 0.22426(8) 0.50257(8) 0.69422(3)
S2 S 0.1581(3) 0.1875(2) 0.62145(8)
O4 O 0.0343(9) 0.2985(7) 0.6468(2)
N7 N 0.5266(8) 0.6341(7) 0.6839(2)
O5 O 0.1985(8) 0.0550(6) 0.6556(2)
N10 N 0.2663(9) 0.3490(7) 0.7776(3)
O6 O 0.3477(9) 0.2518(7) 0.6051(2)
H27 H 0.0427 0.8204 0.7189
Ag6 Ag 0.77574(8) 0.00257(8) 0.80578(3)
N8 N 0.7337(9) 0.8490(7) 0.7224(3)
N11 N 0.9045(9) 0.6408(7) 0.6797(2)
N12 N 0.6721(10) 0.8122(8) 0.6226(3)
C12 C 0.5556(11) 0.7502(9) 0.7278(3)
H16 H 0.5770 0.7013 0.7635
H17 H 0.4293 0.8102 0.7262
C13 C 0.9959(11) 0.1316(8) 0.5601(3)
C14 C 0.7214(10) 0.5446(8) 0.6866(3)
H18 H 0.7455 0.4936 0.7220
H19 H 0.7056 0.4688 0.6579
C15 C 0.6695(11) 0.1499(9) 0.5017(3)
H20 H 0.5380 0.1939 0.4944
C16 C 0.4956(11) 0.7144(9) 0.6299(3)
H21 H 0.3689 0.7741 0.6278
H22 H 0.4775 0.6414 0.6002
C17 C 0.7294(11) 0.0450(8) 0.4664(3)
H23 H 0.6371 0.0169 0.4357
C18 C 0.8624(12) 0.7210(9) 0.6258(3)
H24 H 0.8478 0.6482 0.5960
H25 H 0.9805 0.7852 0.6210
C20 C 0.9247(10) 0.7559(9) 0.7234(3)
H26 H 0.9531 0.7072 0.7591
C21 C 0.8042(12) 0.1934(10) 0.5496(3)
H28 H 0.7603 0.2642 0.5737
C22 C 0.6996(12) 0.9220(9) 0.6670(3)
H29 H 0.8186 0.9854 0.6625
H30 H 0.5764 0.9854 0.6648
N5 N 0.4734(8) 0.1341(7) 0.8161(2)
N11_2 N 0.0955(9) 0.1408(7) 0.8203(2)
N12_2 N 0.3279(10) 0.3122(8) 0.8774(3)
C12_2 C 0.4444(11) 0.2502(9) 0.7722(3)
H16_2 H 0.4230 0.2013 0.7365
H17_2 H 0.5707 0.3102 0.7738
C14_2 C 0.2786(10) 0.0446(8) 0.8134(3)
C16_2 C 0.5044(11) 0.2144(9) 0.8701(3)
H21_2 H 0.6311 0.2741 0.8722
H22_2 H 0.5225 0.1414 0.8998
C18_2 C 0.1376(12) 0.2210(9) 0.8742(3)
H24_2 H 0.1522 0.1482 0.9040
H25_2 H 0.0195 0.2852 0.8790
C20_2 C 0.0753(10) 0.2559(9) 0.7766(3)
H26_2 H 0.0469 0.2072 0.7409
C22_2 C 0.3004(12) 0.4220(9) 0.8330(3)
H29_2 H 0.1814 0.4854 0.8375
H30_2 H 0.4236 0.4854 0.8352
H27_2 H 0.9573 0.3204 0.7811
H5 H 0.5380 0.3061 0.9944
C6 C 0.7294(11) 0.4550(8) 0.9664(3)
H8 H 0.6371 0.4831 0.9357
C8_2 C 0.9305(11) 0.5223(8) 0.9756(3)
S2_2 S 0.8419(3) 0.6875(2) 0.87855(8)
O4_2 O 0.9657(9) 0.7985(7) 0.8532(2)
O5_2 O 0.8015(8) 0.5550(6) 0.8444(2)
O6_2 O 0.6523(9) 0.7518(7) 0.8949(2)
N1 N 0.4734(8) 0.3659(7) 0.3161(2)
N2 N 0.2663(9) 0.1510(7) 0.2776(3)
N3 N 0.0955(9) 0.3592(7) 0.3203(2)
N4 N 0.3279(10) 0.1878(8) 0.3774(3)
C1 C 0.4444(11) 0.2498(9) 0.2722(3)
H1 H 0.4230 0.2987 0.2365
H2 H 0.5707 0.1898 0.2738
C2 C 0.0041(11) 0.8684(8) 0.4399(3)
C3 C 0.2786(10) 0.4554(8) 0.3134(3)
H3 H 0.2545 0.5064 0.2780
H4 H 0.2944 0.5312 0.3421
C4 C 0.3305(11) 0.8501(9) 0.4983(3)
H5_2 H 0.4620 0.8061 0.5056
C5 C 0.5044(11) 0.2856(9) 0.3701(3)
H6 H 0.6311 0.2259 0.3722
H7 H 0.5225 0.3586 0.3998
C6_2 C 0.2706(11) 0.9550(8) 0.5336(3)
H8_2 H 0.3629 0.9831 0.5643
C7 C 0.1376(12) 0.2790(9) 0.3742(3)
H9 H 0.1522 0.3518 0.4040
H10 H 0.0195 0.2148 0.3790
C9 C 0.0753(10) 0.2441(9) 0.2766(3)
H11 H 0.0469 0.2928 0.2409
C10 C 0.1958(12) 0.8066(10) 0.4504(3)
H13 H 0.2397 0.7358 0.4263
C11 C 0.3004(12) 0.0780(9) 0.3330(3)
H14 H 0.1814 0.0146 0.3375
H15 H 0.4236 0.0146 0.3352
Ag3 Ag 0.77574(8) 0.49743(8) 0.30578(3)
Ag4 Ag 0.22426(8) 0.99743(8) 0.19422(3)
S1 S 0.8419(3) 0.8125(2) 0.37855(8)
O1 O 0.9657(9) 0.7015(7) 0.3532(2)
O2 O 0.8015(8) 0.9450(6) 0.3444(2)
O3 O 0.6523(9) 0.7482(7) 0.3949(2)
H12 H 0.9573 0.1796 0.2811
N9 N 0.7337(9) 0.6510(7) 0.2224(3)
C19 C 0.9305(11) 0.9777(8) 0.4756(3)
S1_2 S 0.1581(3) 0.3125(2) 0.12145(8)
O1_2 O 0.0343(9) 0.2015(7) 0.1468(2)
O2_2 O 0.1985(8) 0.4450(6) 0.1556(2)
O3_2 O 0.3477(9) 0.2482(7) 0.1051(2)
H20_2 H 0.4620 0.6939 0.0056
C17_2 C 0.2706(11) 0.5450(8) 0.0336(3)
H23_2 H 0.3629 0.5169 0.0643
C19_2 C 0.0695(11) 0.4777(8) 0.0244(3)
H12_2 H 0.0427 0.6796 0.2189
N6 N 0.5266(8) 0.8659(7) 0.1839(2)
N3_2 N 0.9045(9) 0.8592(7) 0.1797(2)
N4_2 N 0.6721(10) 0.6878(8) 0.1226(3)
C1_2 C 0.5556(11) 0.7498(9) 0.2278(3)
H1_2 H 0.5770 0.7987 0.2635
H2_2 H 0.4293 0.6898 0.2262
C3_2 C 0.7214(10) 0.9554(8) 0.1866(3)
C5_2 C 0.4956(11) 0.7856(9) 0.1299(3)
H6_2 H 0.3689 0.7259 0.1278
H7_2 H 0.4775 0.8586 0.1002
C7_2 C 0.8624(12) 0.7790(9) 0.1258(3)
H9_2 H 0.8478 0.8518 0.0960
H10_2 H 0.9805 0.7148 0.1210
C9_2 C 0.9247(10) 0.7441(9) 0.2234(3)
H11_2 H 0.9531 0.7928 0.2591
C11_2 C 0.6996(12) 0.5780(9) 0.1670(3)
H14_2 H 0.8186 0.5146 0.1625
H15_2 H 0.5764 0.5146 0.1648
C13_2 C 0.0041(11) 0.6316(8) 0.9399(3)
H18_2 H 0.2545 0.9936 0.7780
H19_2 H 0.2944 0.9688 0.8421
C15_2 C 0.3305(11) 0.6499(9) 0.9983(3)
C21_2 C 0.1958(12) 0.6934(10) 0.9504(3)
H28_2 H 0.2397 0.7642 0.9263
C2_2 C 0.9959(11) 0.3684(8) 0.0601(3)
H3_2 H 0.7455 0.0064 0.2220
H4_2 H 0.7056 0.0312 0.1579
C4_2 C 0.6695(11) 0.3501(9) 0.0017(3)
C10_2 C 0.8042(12) 0.3066(10) 0.0496(3)
H13_2 H 0.7603 0.2358 0.0737
loop_
_geom_bond_atom_site_label_1
_geom_bond_atom_site_label_2
_geom_bond_site_symmetry_1
_geom_bond_site_symmetry_2
Ag2 O4 1_555 1_555
S2 O4 1_555 1_555
N7 Ag2 1_555 1_555
O5 S2 1_555 1_555
N10 Ag2 1_555 1_555
O6 S2 1_555 1_555
N7 C12 1_555 1_555
N8 C12 1_555 1_555
N12 C16 1_555 1_555
C12 H16 1_555 1_555
H17 C12 1_555 1_555
C14 N7 1_555 1_555
H18 C14 1_555 1_555
H19 C14 1_555 1_555
C15 H20 1_555 1_555
C16 N7 1_555 1_555
H21 C16 1_555 1_555
H22 C16 1_555 1_555
C17 C15 1_555 1_555
H23 C17 1_555 1_555
C18 N11 1_555 1_555
H24 C18 1_555 1_555
H25 C18 1_555 1_555
C20 N8 1_555 1_555
H26 C20 1_555 1_555
C21 C13 1_555 1_555
H28 C21 1_555 1_555
C22 N8 1_555 1_555
H29 C22 1_555 1_555
H30 C22 1_555 1_555
N11 C14 1_555 1_555
N11 C20 1_555 1_555
N12 C18 1_555 1_555
N12 C22 1_555 1_555
C15 C21 1_555 1_555
Ag6 N5 1_555 1_555
N5 C12_2 1_555 1_555
N10 C12_2 1_555 1_555
N12_2 C16_2 1_555 1_555
C12_2 H16_2 1_555 1_555
H17_2 C12_2 1_555 1_555
C14_2 N5 1_555 1_555
C16_2 N5 1_555 1_555
H21_2 C16_2 1_555 1_555
H22_2 C16_2 1_555 1_555
C18_2 N11_2 1_555 1_555
H24_2 C18_2 1_555 1_555
H25_2 C18_2 1_555 1_555
C20_2 N10 1_555 1_555
H26_2 C20_2 1_555 1_555
C22_2 N10 1_555 1_555
H29_2 C22_2 1_555 1_555
H30_2 C22_2 1_555 1_555
N11_2 C14_2 1_555 1_555
N11_2 C20_2 1_555 1_555
N12_2 C18_2 1_555 1_555
N12_2 C22_2 1_555 1_555
H8 C6 1_555 1_555
C8_2 C6 1_555 1_555
S2_2 O4_2 1_555 1_555
O5_2 S2_2 1_555 1_555
O6_2 S2_2 1_555 1_555
N1 C1 1_555 1_555
N2 C1 1_555 1_555
N4 C5 1_555 1_555
C1 H1 1_555 1_555
H2 C1 1_555 1_555
C3 N1 1_555 1_555
H3 C3 1_555 1_555
H4 C3 1_555 1_555
C4 H5_2 1_555 1_555
C5 N1 1_555 1_555
H6 C5 1_555 1_555
H7 C5 1_555 1_555
C6_2 C4 1_555 1_555
H8_2 C6_2 1_555 1_555
C7 N3 1_555 1_555
H9 C7 1_555 1_555
H10 C7 1_555 1_555
C9 N2 1_555 1_555
H11 C9 1_555 1_555
C10 C2 1_555 1_555
H13 C10 1_555 1_555
C11 N2 1_555 1_555
H14 C11 1_555 1_555
H15 C11 1_555 1_555
Ag3 N1 1_555 1_555
N3 C3 1_555 1_555
N3 C9 1_555 1_555
N4 C7 1_555 1_555
N4 C11 1_555 1_555
C4 C10 1_555 1_555
Ag3 O1 1_555 1_555
S1 O1 1_555 1_555
O2 S1 1_555 1_555
O3 S1 1_555 1_555
N9 Ag3 1_555 1_555
S1_2 O1_2 1_555 1_555
O2_2 S1_2 1_555 1_555
O3_2 S1_2 1_555 1_555
H23_2 C17_2 1_555 1_555
C17_2 C19_2 1_555 1_555
N6 Ag4 1_555 1_555
N6 C1_2 1_555 1_555
N9 C1_2 1_555 1_555
N4_2 C5_2 1_555 1_555
C1_2 H1_2 1_555 1_555
H2_2 C1_2 1_555 1_555
C3_2 N6 1_555 1_555
C5_2 N6 1_555 1_555
H6_2 C5_2 1_555 1_555
H7_2 C5_2 1_555 1_555
C7_2 N3_2 1_555 1_555
H9_2 C7_2 1_555 1_555
H10_2 C7_2 1_555 1_555
C9_2 N9 1_555 1_555
H11_2 C9_2 1_555 1_555
C11_2 N9 1_555 1_555
H14_2 C11_2 1_555 1_555
H15_2 C11_2 1_555 1_555
N3_2 C3_2 1_555 1_555
N3_2 C9_2 1_555 1_555
N4_2 C7_2 1_555 1_555
N4_2 C11_2 1_555 1_555
C21_2 C13_2 1_555 1_555
H28_2 C21_2 1_555 1_555
C15_2 C21_2 1_555 1_555
C10_2 C2_2 1_555 1_555
H13_2 C10_2 1_555 1_555
C4_2 C10_2 1_555 1_555

#END
