
###############################################################################
#
# This file contains modified crystal structure data generated from the
# MOF subset of the Cambridge Structural Database (CSD) v543 
# hosted by the Cambridge Crystallographic Data Centre (CCDC).
#
# This work is licensed under the Creative Commons
# Attribution-NonCommercial-ShareAlike 4.0 International License.
# To view a copy of this license, visit
# http://creativecommons.org/licenses/by-nc-sa/4.0/
# or send a letter to
# Creative Commons, PO Box 1866, Mountain View, CA 94042, USA.
#
# CIF created using the CSD Python API on 29 September 2022
# The structure has been converted into the P1 space group
# The structure has a 3D framework
# The original CSD entry AQUBIA is in the orthorhombic crystal system
# The framework has been calculated to contain at least 10.0% void space
# The void calculation uses a probe of radius 1.32A, grid spacing 0.4
#
###############################################################################

data_AQUBIA
_chemical_formula_moiety         '(C68 H60 N44 O16 Zn8)n'
_symmetry_cell_setting           triclinic
_symmetry_space_group_name_H-M   'P 1'
_symmetry_Int_Tables_number      1
_space_group_name_Hall           'P 1'
loop_
_symmetry_equiv_pos_site_id
_symmetry_equiv_pos_as_xyz
1 x,y,z
_cell_length_a                   17.3460(3)
_cell_length_b                   17.3127(3)
_cell_length_c                   9.5207(2)
_cell_angle_alpha                90
_cell_angle_beta                 90
_cell_angle_gamma                90
_cell_volume                     2859.12
loop_
_atom_site_label
_atom_site_type_symbol
_atom_site_fract_x
_atom_site_fract_y
_atom_site_fract_z
N1 N 0.6906(2) 0.7500 0.5505(4)
H1 H 0.6691 0.7500 0.6354
H2 H 0.6527 0.7500 0.4876
C1 C 0.7353(3) 0.6782(3) 0.5340(4)
H3 H 0.7560 0.6757 0.4407
H4 H 0.7023 0.6346 0.5499
H5 H 0.7768 0.6775 0.6009
C2 C 0.7353(3) 0.8218(3) 0.5340(4)
H6 H 0.7560 0.8243 0.4407
H7 H 0.7023 0.8654 0.5499
H8 H 0.7768 0.8225 0.6009
N1_2 N 0.8094(2) 0.2500 0.0505(4)
H1_2 H 0.8309 0.2500 0.1354
C1_2 C 0.7647(3) 0.3218(3) 0.0340(4)
H4_2 H 0.7977 0.3654 0.0499
H5_2 H 0.7232 0.3225 0.1009
C2_2 C 0.7647(3) 0.1782(3) 0.0340(4)
H7_2 H 0.7977 0.1346 0.0499
H8_2 H 0.7232 0.1775 0.1009
H2_2 H 0.8473 0.2500 0.9876
H3_2 H 0.7440 0.3243 0.9407
H6_2 H 0.7440 0.1757 0.9407
N1_3 N 0.3094(2) 0.2500 0.4495(4)
H1_3 H 0.3309 0.2500 0.3646
H2_3 H 0.3473 0.2500 0.5124
C1_3 C 0.2647(3) 0.1782(3) 0.4660(4)
H3_3 H 0.2440 0.1757 0.5593
H4_3 H 0.2977 0.1346 0.4501
H5_3 H 0.2232 0.1775 0.3991
C2_3 C 0.2647(3) 0.3218(3) 0.4660(4)
H6_3 H 0.2440 0.3243 0.5593
H7_3 H 0.2977 0.3654 0.4501
H8_3 H 0.2232 0.3225 0.3991
H2_4 H 0.1527 0.7500 0.0124
H3_4 H 0.2560 0.8243 0.0593
H6_4 H 0.2560 0.6757 0.0593
N1_4 N 0.1906(2) 0.7500 0.9495(4)
H1_4 H 0.1691 0.7500 0.8646
C1_4 C 0.2353(3) 0.8218(3) 0.9660(4)
H4_4 H 0.2023 0.8654 0.9501
H5_4 H 0.2768 0.8225 0.8991
C2_4 C 0.2353(3) 0.6782(3) 0.9660(4)
H7_4 H 0.2023 0.6346 0.9501
H8_4 H 0.2768 0.6775 0.8991
Zn1 Zn 0.69469(2) 0.57848(2) 0.00787(3)
N5 N 0.71718(10) 0.68723(10) 0.06823(18)
N6 N 0.76509(12) 0.71223(10) 0.1710(2)
C9 C 0.68973(18) 0.7500 0.0085(3)
N7 N 0.71718(10) 0.81277(10) 0.06823(18)
N8 N 0.76509(12) 0.78777(10) 0.1710(2)
O3 O 0.38270(9) 0.34244(9) 0.23977(17)
O4 O 0.40900(8) 0.42485(9) 0.06779(17)
N9 N 0.68885(9) 0.50836(10) 0.17424(18)
N10 N 0.74641(10) 0.50105(9) 0.26542(19)
N11 N 0.72637(10) 0.45235(10) 0.36727(19)
C11 C 0.42624(12) 0.38745(13) 0.1794(2)
C12 C 0.50684(12) 0.40129(12) 0.2338(2)
C13 C 0.55532(12) 0.45001(12) 0.1619(2)
H13 H 0.5399 0.4738 0.0789
C14 C 0.62882(11) 0.46243(12) 0.2185(2)
C15 C 0.65292(12) 0.42655(12) 0.3419(2)
C16 C 0.60382(13) 0.37614(16) 0.4145(3)
H14 H 0.6193 0.3517 0.4968
C17 C 0.53158(13) 0.36444(15) 0.3585(3)
H15 H 0.4979 0.3311 0.4042
Zn3 Zn 0.80531(2) 0.42152(2) 0.50787(3)
Zn5 Zn 0.69469(2) 0.92152(2) 0.00787(3)
N12 N 0.22637(10) 0.45235(10) 0.13273(19)
O1 O 0.61730(9) 0.65756(9) 0.76023(17)
O2 O 0.59100(8) 0.57515(9) 0.93221(17)
N2 N 0.31115(9) 0.49164(10) 0.82576(18)
N3 N 0.25359(10) 0.49895(9) 0.73458(19)
N4 N 0.27363(10) 0.54765(10) 0.63273(19)
C3 C 0.57376(12) 0.61255(13) 0.8206(2)
C4 C 0.49316(12) 0.59871(12) 0.7662(2)
C5 C 0.44468(12) 0.54999(12) 0.8381(2)
H9 H 0.4601 0.5262 0.9211
C6 C 0.37118(11) 0.53757(12) 0.7815(2)
C7 C 0.34708(12) 0.57345(12) 0.6581(2)
C8 C 0.39618(13) 0.62386(16) 0.5855(3)
H10 H 0.3807 0.6483 0.5032
H11 H 0.6553 0.7500 0.9336
C10 C 0.46842(13) 0.63556(15) 0.6415(3)
H12 H 0.5021 0.6689 0.5958
Zn2 Zn 0.30531(2) 0.42152(2) 0.99213(3)
Zn4 Zn 0.19469(2) 0.57848(2) 0.49213(3)
N13 N 0.77363(10) 0.54765(10) 0.86727(19)
N14 N 0.28282(10) 0.31277(10) 0.93177(18)
N2_2 N 0.18885(9) 0.50836(10) 0.32576(18)
N3_2 N 0.24641(10) 0.50105(9) 0.23458(19)
C4_2 C 0.00684(12) 0.40129(12) 0.2662(2)
C5_2 C 0.05532(12) 0.45001(12) 0.3381(2)
H9_2 H 0.0399 0.4738 0.4211
C6_2 C 0.12882(11) 0.46243(12) 0.2815(2)
C7_2 C 0.15292(12) 0.42655(12) 0.1581(2)
C8_2 C 0.10382(13) 0.37614(16) 0.0855(3)
H10_2 H 0.1193 0.3517 0.0032
C10_2 C 0.03158(13) 0.36444(15) 0.1415(3)
O3_2 O 0.11730(9) 0.65756(9) 0.73977(17)
O4_2 O 0.09100(8) 0.57515(9) 0.56779(17)
C11_2 C 0.07376(12) 0.61255(13) 0.6794(2)
H15_2 H 0.0021 0.6689 0.9042
N14_2 N 0.21718(10) 0.68723(10) 0.43177(18)
O1_2 O 0.88270(9) 0.34244(9) 0.26023(17)
O2_2 O 0.90900(8) 0.42485(9) 0.43221(17)
N5_2 N 0.78282(10) 0.31277(10) 0.56823(18)
N6_2 N 0.73491(12) 0.28777(10) 0.6710(2)
C3_2 C 0.92624(12) 0.38745(13) 0.3206(2)
C9_2 C 0.81027(18) 0.2500 0.5085(3)
H11_2 H 0.8447 0.2500 0.4336
H12_2 H 0.9979 0.3311 0.0958
N7_2 N 0.78282(10) 0.18723(10) 0.56823(18)
N8_2 N 0.73491(12) 0.21223(10) 0.6710(2)
N9_2 N 0.81115(9) 0.49164(10) 0.67424(18)
N10_2 N 0.75359(10) 0.49895(9) 0.76542(19)
C12_2 C 0.99316(12) 0.59871(12) 0.7338(2)
C13_2 C 0.94468(12) 0.54999(12) 0.6619(2)
H13_2 H 0.9601 0.5262 0.5789
C14_2 C 0.87118(11) 0.53757(12) 0.7185(2)
C15_2 C 0.84708(12) 0.57345(12) 0.8419(2)
C16_2 C 0.89618(13) 0.62386(16) 0.9145(3)
H14_2 H 0.8807 0.6483 0.9968
C17_2 C 0.96842(13) 0.63556(15) 0.8585(3)
Zn5_2 Zn 0.80531(2) 0.07848(2) 0.50787(3)
O1_3 O 0.38270(9) 0.15756(9) 0.23977(17)
O2_3 O 0.40900(8) 0.07515(9) 0.06779(17)
N4_2 N 0.72637(10) 0.04765(10) 0.36727(19)
C3_3 C 0.42624(12) 0.11255(13) 0.1794(2)
C4_3 C 0.50684(12) 0.09871(12) 0.2338(2)
C5_3 C 0.55532(12) 0.04999(12) 0.1619(2)
H9_3 H 0.5399 0.0262 0.0789
C6_3 C 0.62882(11) 0.03757(12) 0.2185(2)
C7_3 C 0.65292(12) 0.07345(12) 0.3419(2)
C8_3 C 0.60382(13) 0.12386(16) 0.4145(3)
H10_3 H 0.6193 0.1483 0.4968
H11_3 H 0.3447 0.2500 0.0664
C10_3 C 0.53158(13) 0.13556(15) 0.3585(3)
H12_3 H 0.4979 0.1689 0.4042
N13_2 N 0.22637(10) 0.04765(10) 0.13273(19)
Zn1_2 Zn 0.30531(2) 0.07848(2) 0.99213(3)
N5_3 N 0.28282(10) 0.18723(10) 0.93177(18)
N6_3 N 0.23491(12) 0.21223(10) 0.8290(2)
C9_3 C 0.31027(18) 0.2500 0.9915(3)
N8_3 N 0.23491(12) 0.28777(10) 0.8290(2)
N9_3 N 0.31115(9) 0.00836(10) 0.82576(18)
N10_3 N 0.25359(10) 0.00105(9) 0.73458(19)
N2_3 N 0.68885(9) 0.99164(10) 0.17424(18)
N3_3 N 0.74641(10) 0.99895(9) 0.26542(19)
O3_3 O 0.61730(9) 0.84244(9) 0.76023(17)
O4_3 O 0.59100(8) 0.92485(9) 0.93221(17)
N11_2 N 0.27363(10) 0.95235(10) 0.63273(19)
C11_3 C 0.57376(12) 0.88745(13) 0.8206(2)
C12_3 C 0.49316(12) 0.90129(12) 0.7662(2)
C13_3 C 0.44468(12) 0.95001(12) 0.8381(2)
H13_3 H 0.4601 0.9738 0.9211
C14_3 C 0.37118(11) 0.96243(12) 0.7815(2)
C15_3 C 0.34708(12) 0.92655(12) 0.6581(2)
C16_3 C 0.39618(13) 0.87614(16) 0.5855(3)
H14_3 H 0.3807 0.8517 0.5032
C17_3 C 0.46842(13) 0.86444(15) 0.6415(3)
H15_3 H 0.5021 0.8311 0.5958
Zn3_2 Zn 0.19469(2) 0.92152(2) 0.49213(3)
N12_2 N 0.77363(10) 0.95235(10) 0.86727(19)
C12_4 C 0.00684(12) 0.09871(12) 0.2662(2)
C13_4 C 0.05532(12) 0.04999(12) 0.3381(2)
H13_4 H 0.0399 0.0262 0.4211
C14_4 C 0.12882(11) 0.03757(12) 0.2815(2)
C15_4 C 0.15292(12) 0.07345(12) 0.1581(2)
C16_4 C 0.10382(13) 0.12386(16) 0.0855(3)
H14_4 H 0.1193 0.1483 0.0032
C17_4 C 0.03158(13) 0.13556(15) 0.1415(3)
O1_4 O 0.11730(9) 0.84244(9) 0.73977(17)
O2_4 O 0.09100(8) 0.92485(9) 0.56779(17)
N5_4 N 0.21718(10) 0.81277(10) 0.43177(18)
N6_4 N 0.26509(12) 0.78777(10) 0.3290(2)
C3_4 C 0.07376(12) 0.88745(13) 0.6794(2)
C9_4 C 0.18973(18) 0.7500 0.4915(3)
H11_4 H 0.1553 0.7500 0.5664
H12_4 H 0.0021 0.8311 0.9042
N8_4 N 0.26509(12) 0.71223(10) 0.3290(2)
N9_4 N 0.18885(9) 0.99164(10) 0.32576(18)
N10_4 N 0.24641(10) 0.99895(9) 0.23458(19)
N2_4 N 0.81115(9) 0.00836(10) 0.67424(18)
N3_4 N 0.75359(10) 0.00105(9) 0.76542(19)
O3_4 O 0.88270(9) 0.15756(9) 0.26023(17)
O4_4 O 0.90900(8) 0.07515(9) 0.43221(17)
C11_4 C 0.92624(12) 0.11255(13) 0.3206(2)
H15_4 H 0.9979 0.1689 0.0958
C4_4 C 0.99316(12) 0.90129(12) 0.7338(2)
C5_4 C 0.94468(12) 0.95001(12) 0.6619(2)
H9_4 H 0.9601 0.9738 0.5789
C6_4 C 0.87118(11) 0.96243(12) 0.7185(2)
C7_4 C 0.84708(12) 0.92655(12) 0.8419(2)
C8_4 C 0.89618(13) 0.87614(16) 0.9145(3)
H10_4 H 0.8807 0.8517 0.9968
C10_4 C 0.96842(13) 0.86444(15) 0.8585(3)
loop_
_geom_bond_atom_site_label_1
_geom_bond_atom_site_label_2
_geom_bond_site_symmetry_1
_geom_bond_site_symmetry_2
N1 H1 1_555 1_555
H2 N1 1_555 1_555
C1 N1 1_555 1_555
H3 C1 1_555 1_555
H4 C1 1_555 1_555
H5 C1 1_555 1_555
C2 N1 1_555 1_555
H6 C2 1_555 1_555
H7 C2 1_555 1_555
H8 C2 1_555 1_555
N1_2 H1_2 1_555 1_555
C1_2 N1_2 1_555 1_555
H4_2 C1_2 1_555 1_555
H5_2 C1_2 1_555 1_555
C2_2 N1_2 1_555 1_555
H7_2 C2_2 1_555 1_555
H8_2 C2_2 1_555 1_555
N1_3 H1_3 1_555 1_555
H2_3 N1_3 1_555 1_555
C1_3 N1_3 1_555 1_555
H3_3 C1_3 1_555 1_555
H4_3 C1_3 1_555 1_555
H5_3 C1_3 1_555 1_555
C2_3 N1_3 1_555 1_555
H6_3 C2_3 1_555 1_555
H7_3 C2_3 1_555 1_555
H8_3 C2_3 1_555 1_555
N1_4 H1_4 1_555 1_555
C1_4 N1_4 1_555 1_555
H4_4 C1_4 1_555 1_555
H5_4 C1_4 1_555 1_555
C2_4 N1_4 1_555 1_555
H7_4 C2_4 1_555 1_555
H8_4 C2_4 1_555 1_555
N5 Zn1 1_555 1_555
N6 N5 1_555 1_555
C9 N5 1_555 1_555
N7 C9 1_555 1_555
N8 N6 1_555 1_555
O3 C11 1_555 1_555
N9 Zn1 1_555 1_555
N10 N9 1_555 1_555
N11 N10 1_555 1_555
C11 O4 1_555 1_555
C12 C11 1_555 1_555
C13 C12 1_555 1_555
H13 C13 1_555 1_555
C14 N9 1_555 1_555
C15 N11 1_555 1_555
C16 C15 1_555 1_555
H14 C16 1_555 1_555
C17 C12 1_555 1_555
H15 C17 1_555 1_555
Zn3 N11 1_555 1_555
Zn5 N7 1_555 1_555
N7 N8 1_555 1_555
C13 C14 1_555 1_555
C14 C15 1_555 1_555
C16 C17 1_555 1_555
O1 C3 1_555 1_555
O2 C3 1_555 1_555
N2 N3 1_555 1_555
N3 N4 1_555 1_555
N4 C7 1_555 1_555
C3 C4 1_555 1_555
C4 C5 1_555 1_555
C5 H9 1_555 1_555
C6 N2 1_555 1_555
C7 C6 1_555 1_555
C8 C7 1_555 1_555
H10 C8 1_555 1_555
C10 C4 1_555 1_555
H12 C10 1_555 1_555
Zn2 N2 1_555 1_555
Zn4 N4 1_555 1_555
N14 Zn2 1_555 1_555
C5 C6 1_555 1_555
C8 C10 1_555 1_555
N2_2 N3_2 1_555 1_555
N3_2 N12 1_555 1_555
N12 C7_2 1_555 1_555
C4_2 C5_2 1_555 1_555
C5_2 H9_2 1_555 1_555
C6_2 N2_2 1_555 1_555
C7_2 C6_2 1_555 1_555
C8_2 C7_2 1_555 1_555
H10_2 C8_2 1_555 1_555
C10_2 C4_2 1_555 1_555
Zn4 N2_2 1_555 1_555
O3_2 C11_2 1_555 1_555
O4_2 Zn4 1_555 1_555
C11_2 O4_2 1_555 1_555
N14_2 Zn4 1_555 1_555
C5_2 C6_2 1_555 1_555
C8_2 C10_2 1_555 1_555
Zn3 O2_2 1_555 1_555
O1_2 C3_2 1_555 1_555
O2_2 C3_2 1_555 1_555
N5_2 Zn3 1_555 1_555
N6_2 N5_2 1_555 1_555
C9_2 N5_2 1_555 1_555
H11_2 C9_2 1_555 1_555
N7_2 C9_2 1_555 1_555
N8_2 N6_2 1_555 1_555
N9_2 Zn3 1_555 1_555
N10_2 N9_2 1_555 1_555
N13 N10_2 1_555 1_555
C13_2 C12_2 1_555 1_555
H13_2 C13_2 1_555 1_555
C14_2 N9_2 1_555 1_555
C15_2 N13 1_555 1_555
C16_2 C15_2 1_555 1_555
H14_2 C16_2 1_555 1_555
C17_2 C12_2 1_555 1_555
Zn5_2 N7_2 1_555 1_555
N7_2 N8_2 1_555 1_555
C13_2 C14_2 1_555 1_555
C14_2 C15_2 1_555 1_555
C16_2 C17_2 1_555 1_555
O1_3 C3_3 1_555 1_555
O2_3 C3_3 1_555 1_555
N4_2 C7_3 1_555 1_555
C3_3 C4_3 1_555 1_555
C4_3 C5_3 1_555 1_555
C5_3 H9_3 1_555 1_555
C7_3 C6_3 1_555 1_555
C8_3 C7_3 1_555 1_555
H10_3 C8_3 1_555 1_555
C10_3 C4_3 1_555 1_555
H12_3 C10_3 1_555 1_555
Zn5_2 N4_2 1_555 1_555
C5_3 C6_3 1_555 1_555
C8_3 C10_3 1_555 1_555
N5_3 Zn1_2 1_555 1_555
N6_3 N5_3 1_555 1_555
C9_3 N5_3 1_555 1_555
N14 C9_3 1_555 1_555
N8_3 N6_3 1_555 1_555
N9_3 Zn1_2 1_555 1_555
N10_3 N9_3 1_555 1_555
N14 N8_3 1_555 1_555
N2_3 N3_3 1_555 1_555
Zn5 N2_3 1_555 1_555
O3_3 C11_3 1_555 1_555
C11_3 O4_3 1_555 1_555
C12_3 C11_3 1_555 1_555
C13_3 C12_3 1_555 1_555
H13_3 C13_3 1_555 1_555
C15_3 N11_2 1_555 1_555
C16_3 C15_3 1_555 1_555
H14_3 C16_3 1_555 1_555
C17_3 C12_3 1_555 1_555
H15_3 C17_3 1_555 1_555
Zn3_2 N11_2 1_555 1_555
C13_3 C14_3 1_555 1_555
C14_3 C15_3 1_555 1_555
C16_3 C17_3 1_555 1_555
C13_4 C12_4 1_555 1_555
H13_4 C13_4 1_555 1_555
C15_4 N13_2 1_555 1_555
C16_4 C15_4 1_555 1_555
H14_4 C16_4 1_555 1_555
C17_4 C12_4 1_555 1_555
C13_4 C14_4 1_555 1_555
C14_4 C15_4 1_555 1_555
C16_4 C17_4 1_555 1_555
Zn3_2 O2_4 1_555 1_555
O1_4 C3_4 1_555 1_555
O2_4 C3_4 1_555 1_555
N5_4 Zn3_2 1_555 1_555
N6_4 N5_4 1_555 1_555
C9_4 N5_4 1_555 1_555
H11_4 C9_4 1_555 1_555
N14_2 C9_4 1_555 1_555
N8_4 N6_4 1_555 1_555
N9_4 Zn3_2 1_555 1_555
N10_4 N9_4 1_555 1_555
N14_2 N8_4 1_555 1_555
N2_4 N3_4 1_555 1_555
Zn5_2 N2_4 1_555 1_555
O3_4 C11_4 1_555 1_555
O4_4 Zn5_2 1_555 1_555
C11_4 O4_4 1_555 1_555
N12_2 C7_4 1_555 1_555
C4_4 C5_4 1_555 1_555
C5_4 H9_4 1_555 1_555
C7_4 C6_4 1_555 1_555
C8_4 C7_4 1_555 1_555
H10_4 C8_4 1_555 1_555
C10_4 C4_4 1_555 1_555
C5_4 C6_4 1_555 1_555
C8_4 C10_4 1_555 1_555

#END
