
###############################################################################
#
# This file contains modified crystal structure data generated from the
# MOF subset of the Cambridge Structural Database (CSD) v543 
# hosted by the Cambridge Crystallographic Data Centre (CCDC).
#
# This work is licensed under the Creative Commons
# Attribution-NonCommercial-ShareAlike 4.0 International License.
# To view a copy of this license, visit
# http://creativecommons.org/licenses/by-nc-sa/4.0/
# or send a letter to
# Creative Commons, PO Box 1866, Mountain View, CA 94042, USA.
#
# CIF created using the CSD Python API on 29 September 2022
# The structure has been converted into the P1 space group
# The structure has a 3D framework
# The original CSD entry AQUCUM is in the rhombohedral crystal system
# The framework has been calculated to contain at least 10.0% void space
# The void calculation uses a probe of radius 1.32A, grid spacing 0.4
#
###############################################################################

data_AQUCUM
_chemical_formula_moiety         '(C72 H18 Ni8 O48)n'
_symmetry_cell_setting           triclinic
_symmetry_space_group_name_H-M   'P 1'
_symmetry_Int_Tables_number      1
_space_group_name_Hall           'P 1'
loop_
_symmetry_equiv_pos_site_id
_symmetry_equiv_pos_as_xyz
1 x,y,z
_cell_length_a                   25.7611(4)
_cell_length_b                   25.7611(4)
_cell_length_c                   6.7565(3)
_cell_angle_alpha                90
_cell_angle_beta                 90
_cell_angle_gamma                120
_cell_volume                     3883.12
loop_
_atom_site_label
_atom_site_type_symbol
_atom_site_fract_x
_atom_site_fract_y
_atom_site_fract_z
_atom_site_U_iso_or_equiv
_atom_site_thermal_displace_type
Ni1 Ni 0.61749(10) 0.64832(10) 0.3537(4) 0.0337 Uiso
O1 O 0.436919 0.407457 0.430968 0.0337 Uiso
O2 O 0.367878 0.365292 0.211973 0.0337 Uiso
O3 O 0.611372 0.585523 0.155521 0.0337 Uiso
C1 C 0.416609 0.407372 0.249678 0.0337 Uiso
C2 C 0.460763 0.454094 0.114119 0.0337 Uiso
C3 C 0.55692 0.550362 0.076891 0.0337 Uiso
C4 C 0.515753 0.49831 0.190871 0.0337 Uiso
H1 H 0.526496 0.49396 0.32337 0.0405 Uiso
Ni4 Ni 0.38251(10) 0.35168(10) 0.6463(4) 0.0337 Uiso
Ni7 Ni 0.68501(10) 0.63584(14) 0.0204(4) 0.0337 Uiso
Ni8 Ni 0.30250(14) 0.28416(10) 0.3130(4) 0.0337 Uiso
O8 O 0.563081 0.592543 0.569032 0.0337 Uiso
O10 O 0.669253 0.701211 0.121360 0.0337 Uiso
O12 O 0.698625 0.664081 0.454694 0.0337 Uiso
O13 O 0.640818 0.721961 0.488854 0.0337 Uiso
O5 O 0.632122 0.634708 0.788027 0.0337 Uiso
O6 O 0.388628 0.414477 0.844479 0.0337 Uiso
C5 C 0.583391 0.592628 0.750322 0.0337 Uiso
C6 C 0.539237 0.545906 0.885881 0.0337 Uiso
C7 C 0.44308 0.449638 0.923109 0.0337 Uiso
C8 C 0.484247 0.50169 0.809129 0.0337 Uiso
H2 H 0.473504 0.50604 0.67663 0.0405 Uiso
Ni5 Ni 0.69750(14) 0.71584(10) 0.6870(4) 0.0337 Uiso
Ni6 Ni 0.31499(10) 0.36416(14) 0.9796(4) 0.0337 Uiso
O9 O 0.301375 0.335919 0.545306 0.0337 Uiso
O11 O 0.330747 0.298789 0.878640 0.0337 Uiso
O14 O 0.359182 0.278039 0.511146 0.0337 Uiso
O1_2 O 0.592543 0.029462 0.430968 0.0337 Uiso
O2_2 O 0.634708 0.002586 0.211973 0.0337 Uiso
O3_2 O 0.414477 0.025849 0.155521 0.0337 Uiso
C1_2 C 0.592628 0.009237 0.249678 0.0337 Uiso
C2_2 C 0.545906 0.006669 0.114119 0.0337 Uiso
C3_2 C 0.449638 0.006558 0.076891 0.0337 Uiso
C4_2 C 0.50169 0.017443 0.190871 0.0337 Uiso
H1_2 H 0.50604 0.032536 0.32337 0.0405 Uiso
Ni4_2 Ni 0.64832(10) 0.03083(14) 0.6463(4) 0.0337 Uiso
Ni7_2 Ni 0.36416(14) 0.04918(17) 0.0204(4) 0.0337 Uiso
Ni8_2 Ni 0.71584(10) 0.01835(17) 0.3130(4) 0.0337 Uiso
O12_2 O 0.335919 0.034545 0.454694 0.0337 Uiso
O11_2 O 0.701211 0.031959 0.878640 0.0337 Uiso
O14_2 O 0.721961 0.081144 0.511146 0.0337 Uiso
Ni1_2 Ni 0.35168(10) 0.96917(14) 0.3537(4) 0.0337 Uiso
O8_2 O 0.407457 0.970538 0.569032 0.0337 Uiso
O10_2 O 0.298789 0.968041 0.121360 0.0337 Uiso
O13_2 O 0.278039 0.918856 0.488854 0.0337 Uiso
O5_2 O 0.365292 0.997414 0.788027 0.0337 Uiso
O6_2 O 0.585523 0.974151 0.844479 0.0337 Uiso
C5_2 C 0.407372 0.990763 0.750322 0.0337 Uiso
C6_2 C 0.454094 0.993331 0.885881 0.0337 Uiso
C7_2 C 0.550362 0.993442 0.923109 0.0337 Uiso
C8_2 C 0.49831 0.982557 0.809129 0.0337 Uiso
H2_2 H 0.49396 0.967464 0.67663 0.0405 Uiso
Ni5_2 Ni 0.28416(10) 0.98165(17) 0.6870(4) 0.0337 Uiso
Ni6_2 Ni 0.63584(14) 0.95082(17) 0.9796(4) 0.0337 Uiso
O9_2 O 0.664081 0.965455 0.545306 0.0337 Uiso
Ni1_3 Ni 0.03083(14) 0.38251(10) 0.3537(4) 0.0337 Uiso
O8_3 O 0.029462 0.436919 0.569032 0.0337 Uiso
O10_3 O 0.031959 0.330747 0.121360 0.0337 Uiso
O13_3 O 0.081144 0.359182 0.488854 0.0337 Uiso
O5_3 O 0.002586 0.367878 0.788027 0.0337 Uiso
O6_3 O 0.025849 0.611372 0.844479 0.0337 Uiso
C5_3 C 0.009237 0.416609 0.750322 0.0337 Uiso
C6_3 C 0.006669 0.460763 0.885881 0.0337 Uiso
C7_3 C 0.006558 0.55692 0.923109 0.0337 Uiso
C8_3 C 0.017443 0.515753 0.809129 0.0337 Uiso
H2_3 H 0.032536 0.526496 0.67663 0.0405 Uiso
Ni5_3 Ni 0.01835(17) 0.30250(14) 0.6870(4) 0.0337 Uiso
Ni6_3 Ni 0.04918(17) 0.68501(10) 0.9796(4) 0.0337 Uiso
O9_3 O 0.034545 0.698625 0.545306 0.0337 Uiso
O1_3 O 0.970538 0.563081 0.430968 0.0337 Uiso
O2_3 O 0.997414 0.632122 0.211973 0.0337 Uiso
O3_3 O 0.974151 0.388628 0.155521 0.0337 Uiso
C1_3 C 0.990763 0.583391 0.249678 0.0337 Uiso
C2_3 C 0.993331 0.539237 0.114119 0.0337 Uiso
C3_3 C 0.993442 0.44308 0.076891 0.0337 Uiso
C4_3 C 0.982557 0.484247 0.190871 0.0337 Uiso
H1_3 H 0.967464 0.473504 0.32337 0.0405 Uiso
Ni4_3 Ni 0.96917(14) 0.61749(10) 0.6463(4) 0.0337 Uiso
Ni7_3 Ni 0.95082(17) 0.31499(10) 0.0204(4) 0.0337 Uiso
Ni8_3 Ni 0.98165(17) 0.69750(14) 0.3130(4) 0.0337 Uiso
O12_3 O 0.965455 0.301375 0.454694 0.0337 Uiso
O11_3 O 0.968041 0.669253 0.878640 0.0337 Uiso
O14_3 O 0.918856 0.640818 0.511146 0.0337 Uiso
O13_4 O 0.307484 0.055295 0.822188 0.0337 Uiso
O1_4 O 0.103586 0.740790 0.764301 0.0337 Uiso
C1_4 C 0.083276 0.740705 0.583011 0.0337 Uiso
C2_4 C 0.127430 0.787427 0.447452 0.0337 Uiso
C3_4 C 0.22359 0.883695 0.410224 0.0337 Uiso
C4_4 C 0.182420 0.83164 0.524204 0.0337 Uiso
H1_4 H 0.193163 0.82729 0.65670 0.0405 Uiso
O6_4 O 0.055295 0.747810 0.177812 0.0337 Uiso
C5_4 C 0.250058 0.925961 0.083655 0.0337 Uiso
C6_4 C 0.205904 0.879239 0.219214 0.0337 Uiso
C7_4 C 0.10975 0.782971 0.256442 0.0337 Uiso
C8_4 C 0.150914 0.83502 0.142462 0.0337 Uiso
H2_4 H 0.140171 0.83937 0.00996 0.0405 Uiso
O8_4 O 0.229748 0.925876 0.902365 0.0337 Uiso
O1_5 O 0.259210 0.362795 0.764301 0.0337 Uiso
C1_5 C 0.259295 0.342570 0.583011 0.0337 Uiso
C2_5 C 0.212573 0.340002 0.447452 0.0337 Uiso
C3_5 C 0.116305 0.339891 0.410224 0.0337 Uiso
C4_5 C 0.16836 0.350776 0.524204 0.0337 Uiso
H1_5 H 0.17271 0.365869 0.65670 0.0405 Uiso
O6_5 O 0.252190 0.307484 0.177812 0.0337 Uiso
C5_5 C 0.074039 0.324096 0.083655 0.0337 Uiso
C6_5 C 0.120761 0.326664 0.219214 0.0337 Uiso
C7_5 C 0.217029 0.326775 0.256442 0.0337 Uiso
C8_5 C 0.16498 0.315890 0.142462 0.0337 Uiso
H2_5 H 0.16063 0.300797 0.00996 0.0405 Uiso
O8_5 O 0.074124 0.303871 0.902365 0.0337 Uiso
O13_5 O 0.944705 0.252190 0.822188 0.0337 Uiso
O1_6 O 0.637205 0.896414 0.764301 0.0337 Uiso
C1_6 C 0.657430 0.916724 0.583011 0.0337 Uiso
C2_6 C 0.659998 0.872570 0.447452 0.0337 Uiso
C3_6 C 0.660109 0.77641 0.410224 0.0337 Uiso
C4_6 C 0.649224 0.817580 0.524204 0.0337 Uiso
H1_6 H 0.634131 0.806837 0.65670 0.0405 Uiso
O6_6 O 0.692516 0.944705 0.177812 0.0337 Uiso
C5_6 C 0.675904 0.749942 0.083655 0.0337 Uiso
C6_6 C 0.673336 0.794096 0.219214 0.0337 Uiso
C7_6 C 0.673225 0.89025 0.256442 0.0337 Uiso
C8_6 C 0.684110 0.849086 0.142462 0.0337 Uiso
H2_6 H 0.699203 0.859829 0.00996 0.0405 Uiso
O8_6 O 0.696129 0.770252 0.902365 0.0337 Uiso
O13_6 O 0.747810 0.692516 0.822188 0.0337 Uiso
O1_7 O 0.770252 0.074124 0.097635 0.0337 Uiso
O8_7 O 0.896414 0.259210 0.235699 0.0337 Uiso
C1_7 C 0.749942 0.074039 0.916345 0.0337 Uiso
C2_7 C 0.794096 0.120761 0.780786 0.0337 Uiso
C3_7 C 0.89025 0.217029 0.743558 0.0337 Uiso
C4_7 C 0.849086 0.16498 0.857538 0.0337 Uiso
H1_7 H 0.859829 0.16063 0.99004 0.0405 Uiso
C5_7 C 0.916724 0.259295 0.416989 0.0337 Uiso
C6_7 C 0.872570 0.212573 0.552548 0.0337 Uiso
C7_7 C 0.77641 0.116305 0.589776 0.0337 Uiso
C8_7 C 0.817580 0.16836 0.475796 0.0337 Uiso
H2_7 H 0.806837 0.17271 0.34330 0.0405 Uiso
O1_8 O 0.925876 0.696129 0.097635 0.0337 Uiso
O8_8 O 0.740790 0.637205 0.235699 0.0337 Uiso
C1_8 C 0.925961 0.675904 0.916345 0.0337 Uiso
C2_8 C 0.879239 0.673336 0.780786 0.0337 Uiso
C3_8 C 0.782971 0.673225 0.743558 0.0337 Uiso
C4_8 C 0.83502 0.684110 0.857538 0.0337 Uiso
H1_8 H 0.83937 0.699203 0.99004 0.0405 Uiso
C5_8 C 0.740705 0.657430 0.416989 0.0337 Uiso
C6_8 C 0.787427 0.659998 0.552548 0.0337 Uiso
C7_8 C 0.883695 0.660109 0.589776 0.0337 Uiso
C8_8 C 0.83164 0.649224 0.475796 0.0337 Uiso
H2_8 H 0.82729 0.634131 0.34330 0.0405 Uiso
O1_9 O 0.303871 0.229748 0.097635 0.0337 Uiso
O8_9 O 0.362795 0.103586 0.235699 0.0337 Uiso
C1_9 C 0.324096 0.250058 0.916345 0.0337 Uiso
C2_9 C 0.326664 0.205904 0.780786 0.0337 Uiso
C3_9 C 0.326775 0.10975 0.743558 0.0337 Uiso
C4_9 C 0.315890 0.150914 0.857538 0.0337 Uiso
H1_9 H 0.300797 0.140171 0.99004 0.0405 Uiso
C5_9 C 0.342570 0.083276 0.416989 0.0337 Uiso
C6_9 C 0.340002 0.127430 0.552548 0.0337 Uiso
C7_9 C 0.339891 0.22359 0.589776 0.0337 Uiso
C8_9 C 0.350776 0.182420 0.475796 0.0337 Uiso
H2_9 H 0.365869 0.193163 0.34330 0.0405 Uiso
loop_
_geom_bond_atom_site_label_1
_geom_bond_atom_site_label_2
_geom_bond_site_symmetry_1
_geom_bond_site_symmetry_2
Ni1 O3 1_555 1_555
O1 C1 1_555 1_555
O2 C1 1_555 1_555
O3 C3 1_555 1_555
C1 C2 1_555 1_555
C2 C4 1_555 1_555
C3 C4 1_555 1_555
C4 H1 1_555 1_555
Ni4 O1 1_555 1_555
Ni7 O3 1_555 1_555
Ni8 O2 1_555 1_555
O8 Ni1 1_555 1_555
O10 Ni1 1_555 1_555
O12 Ni1 1_555 1_555
O13 Ni1 1_555 1_555
Ni7 O10 1_555 1_555
O8 C5 1_555 1_555
O5 C5 1_555 1_555
O6 C7 1_555 1_555
C5 C6 1_555 1_555
C8 C6 1_555 1_555
H2 C8 1_555 1_555
Ni4 O6 1_555 1_555
Ni5 O5 1_555 1_555
O9 Ni4 1_555 1_555
O11 Ni4 1_555 1_555
O14 Ni4 1_555 1_555
O6 Ni6 1_555 1_555
C7 C8 1_555 1_555
Ni6 O11 1_555 1_555
O1_2 C1_2 1_555 1_555
O2_2 C1_2 1_555 1_555
O3_2 C3_2 1_555 1_555
C1_2 C2_2 1_555 1_555
C2_2 C4_2 1_555 1_555
C3_2 C4_2 1_555 1_555
C4_2 H1_2 1_555 1_555
Ni4_2 O1_2 1_555 1_555
Ni7_2 O3_2 1_555 1_555
Ni8_2 O2_2 1_555 1_555
O11_2 Ni4_2 1_555 1_555
O14_2 Ni4_2 1_555 1_555
O8_2 Ni1_2 1_555 1_555
O10_2 Ni1_2 1_555 1_555
O13_2 Ni1_2 1_555 1_555
O8_2 C5_2 1_555 1_555
O5_2 C5_2 1_555 1_555
O6_2 C7_2 1_555 1_555
C5_2 C6_2 1_555 1_555
C8_2 C6_2 1_555 1_555
H2_2 C8_2 1_555 1_555
Ni5_2 O5_2 1_555 1_555
O6_2 Ni6_2 1_555 1_555
C7_2 C8_2 1_555 1_555
O8_3 Ni1_3 1_555 1_555
O10_3 Ni1_3 1_555 1_555
O13_3 Ni1_3 1_555 1_555
O8_3 C5_3 1_555 1_555
O5_3 C5_3 1_555 1_555
O6_3 C7_3 1_555 1_555
C5_3 C6_3 1_555 1_555
C8_3 C6_3 1_555 1_555
H2_3 C8_3 1_555 1_555
Ni5_3 O5_3 1_555 1_555
O6_3 Ni6_3 1_555 1_555
C7_3 C8_3 1_555 1_555
O1_3 C1_3 1_555 1_555
O2_3 C1_3 1_555 1_555
O3_3 C3_3 1_555 1_555
C1_3 C2_3 1_555 1_555
C2_3 C4_3 1_555 1_555
C3_3 C4_3 1_555 1_555
C4_3 H1_3 1_555 1_555
Ni4_3 O1_3 1_555 1_555
Ni7_3 O3_3 1_555 1_555
Ni8_3 O2_3 1_555 1_555
O11_3 Ni4_3 1_555 1_555
O14_3 Ni4_3 1_555 1_555
Ni5_2 O13_2 1_555 1_555
O1_4 C1_4 1_555 1_555
O9_3 C1_4 1_555 1_555
O13_2 C3_4 1_555 1_555
C1_4 C2_4 1_555 1_555
C2_4 C4_4 1_555 1_555
C3_4 C4_4 1_555 1_555
C4_4 H1_4 1_555 1_555
O10_2 C5_4 1_555 1_555
O6_4 C7_4 1_555 1_555
C5_4 C6_4 1_555 1_555
C6_4 C3_4 1_555 1_555
C7_4 C2_4 1_555 1_555
C8_4 C6_4 1_555 1_555
H2_4 C8_4 1_555 1_555
Ni6_3 O1_4 1_555 1_555
O8_4 Ni5_2 1_555 1_555
C7_4 C8_4 1_555 1_555
Ni5_3 O13_3 1_555 1_555
O1_5 C1_5 1_555 1_555
O9 C1_5 1_555 1_555
O13_3 C3_5 1_555 1_555
C1_5 C2_5 1_555 1_555
C2_5 C4_5 1_555 1_555
C3_5 C4_5 1_555 1_555
C4_5 H1_5 1_555 1_555
O10_3 C5_5 1_555 1_555
O6_5 C7_5 1_555 1_555
C5_5 C6_5 1_555 1_555
C6_5 C3_5 1_555 1_555
C7_5 C2_5 1_555 1_555
C8_5 C6_5 1_555 1_555
H2_5 C8_5 1_555 1_555
Ni6 O1_5 1_555 1_555
Ni8 O9 1_555 1_555
O8_5 Ni5_3 1_555 1_555
O6_5 Ni8 1_555 1_555
C7_5 C8_5 1_555 1_555
Ni5 O13 1_555 1_555
O1_6 C1_6 1_555 1_555
O9_2 C1_6 1_555 1_555
O13 C3_6 1_555 1_555
C1_6 C2_6 1_555 1_555
C2_6 C4_6 1_555 1_555
C3_6 C4_6 1_555 1_555
C4_6 H1_6 1_555 1_555
O10 C5_6 1_555 1_555
O6_6 C7_6 1_555 1_555
C5_6 C6_6 1_555 1_555
C6_6 C3_6 1_555 1_555
C7_6 C2_6 1_555 1_555
C8_6 C6_6 1_555 1_555
H2_6 C8_6 1_555 1_555
Ni6_2 O1_6 1_555 1_555
O8_6 Ni5 1_555 1_555
O12 Ni5 1_555 1_555
O13_6 Ni5 1_555 1_555
C7_6 C8_6 1_555 1_555
Ni8_2 O1_7 1_555 1_555
O8_7 Ni7_3 1_555 1_555
O11_2 C1_7 1_555 1_555
O13_5 C3_7 1_555 1_555
C1_7 C2_7 1_555 1_555
C2_7 C4_7 1_555 1_555
C3_7 C4_7 1_555 1_555
C4_7 H1_7 1_555 1_555
O8_7 C5_7 1_555 1_555
O12_3 C5_7 1_555 1_555
O14_2 C7_7 1_555 1_555
C5_7 C6_7 1_555 1_555
C6_7 C3_7 1_555 1_555
C7_7 C2_7 1_555 1_555
C8_7 C6_7 1_555 1_555
H2_7 C8_7 1_555 1_555
Ni8_2 O14_2 1_555 1_555
C7_7 C8_7 1_555 1_555
Ni8_3 O1_8 1_555 1_555
O8_8 Ni7 1_555 1_555
O11_3 C1_8 1_555 1_555
O13_6 C3_8 1_555 1_555
C1_8 C2_8 1_555 1_555
C2_8 C4_8 1_555 1_555
C3_8 C4_8 1_555 1_555
C4_8 H1_8 1_555 1_555
O8_8 C5_8 1_555 1_555
O12 C5_8 1_555 1_555
O14_3 C7_8 1_555 1_555
C5_8 C6_8 1_555 1_555
C6_8 C3_8 1_555 1_555
C7_8 C2_8 1_555 1_555
C8_8 C6_8 1_555 1_555
H2_8 C8_8 1_555 1_555
Ni8_3 O14_3 1_555 1_555
C7_8 C8_8 1_555 1_555
Ni8 O1_9 1_555 1_555
O8_9 Ni7_2 1_555 1_555
O11 C1_9 1_555 1_555
O13_4 C3_9 1_555 1_555
C1_9 C2_9 1_555 1_555
C2_9 C4_9 1_555 1_555
C3_9 C4_9 1_555 1_555
C4_9 H1_9 1_555 1_555
O8_9 C5_9 1_555 1_555
O12_2 C5_9 1_555 1_555
O14 C7_9 1_555 1_555
C5_9 C6_9 1_555 1_555
C6_9 C3_9 1_555 1_555
C7_9 C2_9 1_555 1_555
C8_9 C6_9 1_555 1_555
H2_9 C8_9 1_555 1_555
Ni8 O14 1_555 1_555
C7_9 C8_9 1_555 1_555

#END
