
###############################################################################
#
# This file contains modified crystal structure data generated from the
# MOF subset of the Cambridge Structural Database (CSD) v543 
# hosted by the Cambridge Crystallographic Data Centre (CCDC).
#
# This work is licensed under the Creative Commons
# Attribution-NonCommercial-ShareAlike 4.0 International License.
# To view a copy of this license, visit
# http://creativecommons.org/licenses/by-nc-sa/4.0/
# or send a letter to
# Creative Commons, PO Box 1866, Mountain View, CA 94042, USA.
#
# CIF created using the CSD Python API on 29 September 2022
# The structure has been converted into the P1 space group
# The structure has a 3D framework
# The original CSD entry AQUDOH is in the monoclinic crystal system
# The framework has been calculated to contain at least 10.0% void space
# The void calculation uses a probe of radius 1.32A, grid spacing 0.4
#
###############################################################################

data_AQUDOH
_chemical_formula_moiety         '(C70 H56 Cu8 N36 O12)n'
_symmetry_cell_setting           triclinic
_symmetry_space_group_name_H-M   'P 1'
_symmetry_Int_Tables_number      1
_space_group_name_Hall           'P 1'
loop_
_symmetry_equiv_pos_site_id
_symmetry_equiv_pos_as_xyz
1 x,y,z
_cell_length_a                   28.7444(11)
_cell_length_b                   9.2672(5)
_cell_length_c                   9.3295(4)
_cell_angle_alpha                90
_cell_angle_beta                 116.097(3)
_cell_angle_gamma                90
_cell_volume                     2231.83
loop_
_atom_site_label
_atom_site_type_symbol
_atom_site_fract_x
_atom_site_fract_y
_atom_site_fract_z
_atom_site_U_iso_or_equiv
_atom_site_thermal_displace_type
O1 O 0.1282(5) 0.0730(16) 0.3449(16) 0.0700 Uiso
O2 O 0.1390(5) 0.1799(17) 0.5742(16) 0.0700 Uiso
N1 N 0.2196(4) 0.0088(16) 0.7398(11) 0.0700 Uiso
C1 C 0.1493(2) 0.0886(11) 0.4906(15) 0.0700 Uiso
Cu4 Cu 0.18782(17) 0.1693(6) 0.8137(6) 0.0550 Uiso
Cu1 Cu 0.18782(17) 0.8307(6) 0.3137(6) 0.0550 Uiso
N2 N 0.2559(4) 0.9053(17) 0.7928(12) 0.0700 Uiso
N3 N 0.2505(4) 0.8258(12) 0.6685(16) 0.0700 Uiso
N4 N 0.2114(4) 0.8766(14) 0.5377(13) 0.0700 Uiso
N5 N 0.1430(3) 0.6608(7) 0.3308(10) 0.0700 Uiso
C2 C 0.1930(2) 0.9887(9) 0.5840(10) 0.0700 Uiso
C3 C 0.1108(4) 0.7196(8) 0.3847(12) 0.0700 Uiso
C4 C 0.0730(4) 0.6439(9) 0.4080(11) 0.0700 Uiso
C5 C 0.06843(16) 0.4973(9) 0.3725(4) 0.0700 Uiso
C6 C 0.1010(2) 0.4330(7) 0.3168(11) 0.0700 Uiso
C7 C 0.1376(3) 0.5186(7) 0.2976(13) 0.0700 Uiso
C8 C 0.02817(12) 0.4078(12) 0.39506(12) 0.0700 Uiso
C9 C 0.000 0.3137(12) 0.250 0.0700 Uiso
H1 H 0.114278 0.820932 0.408723 0.0845 Uiso
H2 H 0.050946 0.690645 0.446847 0.0845 Uiso
H3 H 0.098311 0.331908 0.292053 0.0845 Uiso
H4 H 0.16012 0.474283 0.258945 0.0845 Uiso
H5 H 0.044837 0.348102 0.487942 0.0845 Uiso
H6 H 0.003825 0.470557 0.408656 0.0845 Uiso
H7 H 0.02454(6) 0.2539(12) 0.2338(3) 0.0845 Uiso
Cu5 Cu 0.31218(17) 0.6693(6) 0.6863(6) 0.0550 Uiso
O6 O 0.1390(5) 0.8201(17) 0.0742(16) 0.0700 Uiso
N12 N 0.2196(4) 0.9912(16) 0.2398(11) 0.0700 Uiso
N13 N 0.2495(4) 0.6742(12) 0.3315(16) 0.0700 Uiso
O4 O 0.8610(5) 0.1799(17) 0.9258(16) 0.0700 Uiso
N7 N 0.7804(4) 0.0088(16) 0.7602(11) 0.0700 Uiso
Cu3 Cu 0.81218(17) 0.1693(6) 0.6863(6) 0.0550 Uiso
C9_2 C 1.000 0.3137(12) 0.250 0.0700 Uiso
N6 N 0.8570(3) 0.6608(7) 0.1692(10) 0.0700 Uiso
C10 C 0.8892(4) 0.7196(8) 0.1153(12) 0.0700 Uiso
C11 C 0.9270(4) 0.6439(9) 0.0920(11) 0.0700 Uiso
C12 C 0.93157(16) 0.4973(9) 0.1275(4) 0.0700 Uiso
C13 C 0.8990(2) 0.4330(7) 0.1832(11) 0.0700 Uiso
C14 C 0.8624(3) 0.5186(7) 0.2024(13) 0.0700 Uiso
C15 C 0.97183(12) 0.4078(12) 0.10494(12) 0.0700 Uiso
H8 H 0.885722 0.820932 0.091277 0.0845 Uiso
H9 H 0.949054 0.690645 0.053153 0.0845 Uiso
H10 H 0.901689 0.331908 0.207947 0.0845 Uiso
H11 H 0.83988 0.474283 0.241055 0.0845 Uiso
H12 H 0.955163 0.348102 0.012058 0.0845 Uiso
H13 H 0.996175 0.470557 0.091344 0.0845 Uiso
H14 H 0.97546(6) 0.2539(12) 0.2662(3) 0.0845 Uiso
Cu2 Cu 0.81218(17) 0.8307(6) 0.1863(6) 0.0550 Uiso
O5 O 0.8610(5) 0.8201(17) 0.4258(16) 0.0700 Uiso
N11 N 0.7804(4) 0.9912(16) 0.2602(11) 0.0700 Uiso
N14 N 0.7505(4) 0.6742(12) 0.1685(16) 0.0700 Uiso
N8 N 0.7441(4) 0.9053(17) 0.7072(12) 0.0700 Uiso
N9 N 0.7495(4) 0.8258(12) 0.8315(16) 0.0700 Uiso
N10 N 0.7886(4) 0.8766(14) 0.9623(13) 0.0700 Uiso
C17 C 0.8070(2) 0.9887(9) 0.9160(10) 0.0700 Uiso
Cu6 Cu 0.68782(17) 0.6693(6) 0.8137(6) 0.0550 Uiso
Cu1_2 Cu 0.68782(17) 0.3307(6) 0.3137(6) 0.0550 Uiso
O1_2 O 0.6282(5) 0.5730(16) 0.3449(16) 0.0700 Uiso
O2_2 O 0.6390(5) 0.6799(17) 0.5742(16) 0.0700 Uiso
N1_2 N 0.7196(4) 0.5088(16) 0.7398(11) 0.0700 Uiso
N2_2 N 0.7559(4) 0.4053(17) 0.7928(12) 0.0700 Uiso
N3_2 N 0.7505(4) 0.3258(12) 0.6685(16) 0.0700 Uiso
N4_2 N 0.7114(4) 0.3766(14) 0.5377(13) 0.0700 Uiso
N5_2 N 0.6430(3) 0.1608(7) 0.3308(10) 0.0700 Uiso
C1_2 C 0.6493(2) 0.5886(11) 0.4906(15) 0.0700 Uiso
C2_2 C 0.6930(2) 0.4887(9) 0.5840(10) 0.0700 Uiso
C3_2 C 0.6108(4) 0.2196(8) 0.3847(12) 0.0700 Uiso
C4_2 C 0.5730(4) 0.1439(9) 0.4080(11) 0.0700 Uiso
C7_2 C 0.6376(3) 0.0186(7) 0.2976(13) 0.0700 Uiso
H1_2 H 0.614278 0.320932 0.408723 0.0845 Uiso
H2_2 H 0.550946 0.190645 0.446847 0.0845 Uiso
N6_2 N 0.3570(3) 0.1608(7) 0.1692(10) 0.0700 Uiso
C10_2 C 0.3892(4) 0.2196(8) 0.1153(12) 0.0700 Uiso
C11_2 C 0.4270(4) 0.1439(9) 0.0920(11) 0.0700 Uiso
C14_2 C 0.3624(3) 0.0186(7) 0.2024(13) 0.0700 Uiso
H8_2 H 0.385722 0.320932 0.091277 0.0845 Uiso
H9_2 H 0.449054 0.190645 0.053153 0.0845 Uiso
Cu2_2 Cu 0.31218(17) 0.3307(6) 0.1863(6) 0.0550 Uiso
O3 O 0.3718(5) 0.5730(16) 0.1551(16) 0.0700 Uiso
C16 C 0.3507(2) 0.5886(11) 0.0094(15) 0.0700 Uiso
O5_2 O 0.3610(5) 0.3201(17) 0.4258(16) 0.0700 Uiso
O6_2 O 0.6390(5) 0.3201(17) 0.0742(16) 0.0700 Uiso
N11_2 N 0.2804(4) 0.4912(16) 0.2602(11) 0.0700 Uiso
N12_2 N 0.7196(4) 0.4912(16) 0.2398(11) 0.0700 Uiso
N13_2 N 0.7495(4) 0.1742(12) 0.3315(16) 0.0700 Uiso
N14_2 N 0.2505(4) 0.1742(12) 0.1685(16) 0.0700 Uiso
O4_2 O 0.3610(5) 0.6799(17) 0.9258(16) 0.0700 Uiso
N7_2 N 0.2804(4) 0.5088(16) 0.7602(11) 0.0700 Uiso
N8_2 N 0.2441(4) 0.4053(17) 0.7072(12) 0.0700 Uiso
N9_2 N 0.2495(4) 0.3258(12) 0.8315(16) 0.0700 Uiso
N10_2 N 0.2886(4) 0.3766(14) 0.9623(13) 0.0700 Uiso
C17_2 C 0.3070(2) 0.4887(9) 0.9160(10) 0.0700 Uiso
N8_3 N 0.2559(4) 0.0947(17) 0.2928(12) 0.0700 Uiso
N10_3 N 0.2114(4) 0.1234(14) 0.0377(13) 0.0700 Uiso
C17_3 C 0.1930(2) 0.0113(9) 0.0840(10) 0.0700 Uiso
C9_3 C 0.000 0.6863(12) 0.750 0.0700 Uiso
N6_3 N 0.1430(3) 0.3392(7) 0.8308(10) 0.0700 Uiso
C10_3 C 0.1108(4) 0.2804(8) 0.8847(12) 0.0700 Uiso
C11_3 C 0.0730(4) 0.3561(9) 0.9080(11) 0.0700 Uiso
C12_2 C 0.06843(16) 0.5027(9) 0.8725(4) 0.0700 Uiso
C13_2 C 0.1010(2) 0.5670(7) 0.8168(11) 0.0700 Uiso
C14_3 C 0.1376(3) 0.4814(7) 0.7976(13) 0.0700 Uiso
C15_2 C 0.02817(12) 0.5922(12) 0.89506(12) 0.0700 Uiso
H8_3 H 0.114278 0.179068 0.908723 0.0845 Uiso
H9_3 H 0.050946 0.309355 0.946847 0.0845 Uiso
H10_2 H 0.098311 0.668092 0.792053 0.0845 Uiso
H11_2 H 0.16012 0.525717 0.758945 0.0845 Uiso
H12_2 H 0.044837 0.651898 0.987942 0.0845 Uiso
H13_2 H 0.003825 0.529443 0.908656 0.0845 Uiso
H14_2 H 0.02454(6) 0.7461(12) 0.7338(3) 0.0845 Uiso
N2_3 N 0.7441(4) 0.0947(17) 0.2072(12) 0.0700 Uiso
N4_3 N 0.7886(4) 0.1234(14) 0.4623(13) 0.0700 Uiso
N5_3 N 0.8570(3) 0.3392(7) 0.6692(10) 0.0700 Uiso
C2_3 C 0.8070(2) 0.0113(9) 0.4160(10) 0.0700 Uiso
C3_3 C 0.8892(4) 0.2804(8) 0.6153(12) 0.0700 Uiso
C4_3 C 0.9270(4) 0.3561(9) 0.5920(11) 0.0700 Uiso
C5_2 C 0.93157(16) 0.5027(9) 0.6275(4) 0.0700 Uiso
C6_2 C 0.8990(2) 0.5670(7) 0.6832(11) 0.0700 Uiso
C7_3 C 0.8624(3) 0.4814(7) 0.7024(13) 0.0700 Uiso
C8_2 C 0.97183(12) 0.5922(12) 0.60494(12) 0.0700 Uiso
C9_4 C 1.000 0.6863(12) 0.750 0.0700 Uiso
H1_3 H 0.885722 0.179068 0.591277 0.0845 Uiso
H2_3 H 0.949054 0.309355 0.553153 0.0845 Uiso
H3_2 H 0.901689 0.668092 0.707947 0.0845 Uiso
H4_2 H 0.83988 0.525717 0.741055 0.0845 Uiso
H5_2 H 0.955163 0.651898 0.512058 0.0845 Uiso
H6_2 H 0.996175 0.529443 0.591344 0.0845 Uiso
H7_2 H 0.97546(6) 0.7461(12) 0.7662(3) 0.0845 Uiso
O1_3 O 0.8718(5) 0.9270(16) 0.6551(16) 0.0700 Uiso
C1_3 C 0.8507(2) 0.9114(11) 0.5094(15) 0.0700 Uiso
N8_4 N 0.7559(4) 0.5947(17) 0.2928(12) 0.0700 Uiso
N10_4 N 0.7114(4) 0.6234(14) 0.0377(13) 0.0700 Uiso
C17_4 C 0.6930(2) 0.5113(9) 0.0840(10) 0.0700 Uiso
O1_4 O 0.3718(5) 0.4270(16) 0.6551(16) 0.0700 Uiso
N2_4 N 0.2441(4) 0.5947(17) 0.2072(12) 0.0700 Uiso
N4_4 N 0.2886(4) 0.6234(14) 0.4623(13) 0.0700 Uiso
N5_4 N 0.3570(3) 0.8392(7) 0.6692(10) 0.0700 Uiso
C1_4 C 0.3507(2) 0.4114(11) 0.5094(15) 0.0700 Uiso
C2_4 C 0.3070(2) 0.5113(9) 0.4160(10) 0.0700 Uiso
C3_4 C 0.3892(4) 0.7804(8) 0.6153(12) 0.0700 Uiso
C4_4 C 0.4270(4) 0.8561(9) 0.5920(11) 0.0700 Uiso
C7_4 C 0.3624(3) 0.9814(7) 0.7024(13) 0.0700 Uiso
H1_4 H 0.385722 0.679068 0.591277 0.0845 Uiso
H2_4 H 0.449054 0.809355 0.553153 0.0845 Uiso
N6_4 N 0.6430(3) 0.8392(7) 0.8308(10) 0.0700 Uiso
C10_4 C 0.6108(4) 0.7804(8) 0.8847(12) 0.0700 Uiso
C11_4 C 0.5730(4) 0.8561(9) 0.9080(11) 0.0700 Uiso
C14_4 C 0.6376(3) 0.9814(7) 0.7976(13) 0.0700 Uiso
H8_4 H 0.614278 0.679068 0.908723 0.0845 Uiso
H9_4 H 0.550946 0.809355 0.946847 0.0845 Uiso
O3_2 O 0.6282(5) 0.4270(16) 0.8449(16) 0.0700 Uiso
C16_2 C 0.6493(2) 0.4114(11) 0.9906(15) 0.0700 Uiso
O3_3 O 0.8718(5) 0.0730(16) 0.1551(16) 0.0700 Uiso
C16_3 C 0.8507(2) 0.0886(11) 0.0094(15) 0.0700 Uiso
C5_3 C 0.56843(16) 0.9973(9) 0.3725(4) 0.0700 Uiso
C6_3 C 0.6010(2) 0.9330(7) 0.3168(11) 0.0700 Uiso
C8_3 C 0.52817(12) 0.9078(12) 0.39506(12) 0.0700 Uiso
C9_5 C 0.500 0.8137(12) 0.250 0.0700 Uiso
H3_3 H 0.598311 0.831908 0.292053 0.0845 Uiso
H4_3 H 0.66012 0.974283 0.258945 0.0845 Uiso
H5_3 H 0.544837 0.848102 0.487942 0.0845 Uiso
H6_3 H 0.503825 0.970557 0.408656 0.0845 Uiso
H7_3 H 0.52454(6) 0.7539(12) 0.2338(3) 0.0845 Uiso
C12_3 C 0.43157(16) 0.9973(9) 0.1275(4) 0.0700 Uiso
C13_3 C 0.3990(2) 0.9330(7) 0.1832(11) 0.0700 Uiso
C15_3 C 0.47183(12) 0.9078(12) 0.10494(12) 0.0700 Uiso
H10_3 H 0.401689 0.831908 0.207947 0.0845 Uiso
H11_3 H 0.33988 0.974283 0.241055 0.0845 Uiso
H12_3 H 0.455163 0.848102 0.012058 0.0845 Uiso
H13_3 H 0.496175 0.970557 0.091344 0.0845 Uiso
H14_3 H 0.47546(6) 0.7539(12) 0.2662(3) 0.0845 Uiso
O3_4 O 0.1282(5) 0.9270(16) 0.8449(16) 0.0700 Uiso
C16_4 C 0.1493(2) 0.9114(11) 0.9906(15) 0.0700 Uiso
C5_4 C 0.43157(16) 0.0027(9) 0.6275(4) 0.0700 Uiso
C6_4 C 0.3990(2) 0.0670(7) 0.6832(11) 0.0700 Uiso
C8_4 C 0.47183(12) 0.0922(12) 0.60494(12) 0.0700 Uiso
C9_6 C 0.500 0.1863(12) 0.750 0.0700 Uiso
H3_4 H 0.401689 0.168092 0.707947 0.0845 Uiso
H4_4 H 0.33988 0.025717 0.741055 0.0845 Uiso
H5_4 H 0.455163 0.151898 0.512058 0.0845 Uiso
H6_4 H 0.496175 0.029443 0.591344 0.0845 Uiso
H7_4 H 0.47546(6) 0.2461(12) 0.7662(3) 0.0845 Uiso
C12_4 C 0.56843(16) 0.0027(9) 0.8725(4) 0.0700 Uiso
C13_4 C 0.6010(2) 0.0670(7) 0.8168(11) 0.0700 Uiso
C15_4 C 0.52817(12) 0.0922(12) 0.89506(12) 0.0700 Uiso
H10_4 H 0.598311 0.168092 0.792053 0.0845 Uiso
H11_4 H 0.66012 0.025717 0.758945 0.0845 Uiso
H12_4 H 0.544837 0.151898 0.987942 0.0845 Uiso
H13_4 H 0.503825 0.029443 0.908656 0.0845 Uiso
H14_4 H 0.52454(6) 0.2461(12) 0.7338(3) 0.0845 Uiso
loop_
_geom_bond_atom_site_label_1
_geom_bond_atom_site_label_2
_geom_bond_site_symmetry_1
_geom_bond_site_symmetry_2
O1 C1 1_555 1_555
O2 C1 1_555 1_555
Cu4 O2 1_555 1_555
N1 Cu4 1_555 1_555
Cu1 N4 1_555 1_555
N2 N3 1_555 1_555
N3 N4 1_555 1_555
N4 C2 1_555 1_555
N5 Cu1 1_555 1_555
C3 N5 1_555 1_555
C4 C3 1_555 1_555
C5 C4 1_555 1_555
C6 C5 1_555 1_555
C7 N5 1_555 1_555
C8 C5 1_555 1_555
C9 C8 1_555 1_555
H1 C3 1_555 1_555
H2 C4 1_555 1_555
H3 C6 1_555 1_555
H4 C7 1_555 1_555
H5 C8 1_555 1_555
H6 C8 1_555 1_555
H7 C9 1_555 1_555
Cu5 N3 1_555 1_555
O6 Cu1 1_555 1_555
N12 Cu1 1_555 1_555
N13 Cu1 1_555 1_555
C6 C7 1_555 1_555
Cu3 O4 1_555 1_555
N7 Cu3 1_555 1_555
N6 C10 1_555 1_555
C10 C11 1_555 1_555
C11 C12 1_555 1_555
C12 C13 1_555 1_555
C13 C14 1_555 1_555
C14 N6 1_555 1_555
C15 C9_2 1_555 1_555
H8 C10 1_555 1_555
H9 C11 1_555 1_555
H10 C13 1_555 1_555
H11 C14 1_555 1_555
H12 C15 1_555 1_555
H13 C15 1_555 1_555
H14 C9_2 1_555 1_555
Cu2 N6 1_555 1_555
O5 Cu2 1_555 1_555
N11 Cu2 1_555 1_555
N14 Cu2 1_555 1_555
C12 C15 1_555 1_555
N8 N9 1_555 1_555
N9 N10 1_555 1_555
Cu6 N9 1_555 1_555
N10 C17 1_555 1_555
Cu1_2 N4_2 1_555 1_555
O1_2 C1_2 1_555 1_555
O2_2 C1_2 1_555 1_555
N1_2 N2_2 1_555 1_555
N2_2 N3_2 1_555 1_555
N3_2 N4_2 1_555 1_555
N4_2 C2_2 1_555 1_555
N5_2 Cu1_2 1_555 1_555
C1_2 C2_2 1_555 1_555
C2_2 N1_2 1_555 1_555
C3_2 N5_2 1_555 1_555
C4_2 C3_2 1_555 1_555
C7_2 N5_2 1_555 1_555
H1_2 C3_2 1_555 1_555
H2_2 C4_2 1_555 1_555
N6_2 C10_2 1_555 1_555
C10_2 C11_2 1_555 1_555
C14_2 N6_2 1_555 1_555
H8_2 C10_2 1_555 1_555
H9_2 C11_2 1_555 1_555
Cu2_2 N6_2 1_555 1_555
O3 C16 1_555 1_555
Cu6 O2_2 1_555 1_555
Cu3 N3_2 1_555 1_555
O5_2 Cu2_2 1_555 1_555
O6_2 Cu1_2 1_555 1_555
N11_2 Cu2_2 1_555 1_555
N12_2 Cu1_2 1_555 1_555
N13_2 Cu1_2 1_555 1_555
N14_2 Cu2_2 1_555 1_555
N1_2 Cu6 1_555 1_555
N7_2 N8_2 1_555 1_555
N8_2 N9_2 1_555 1_555
N9_2 N10_2 1_555 1_555
C17_2 N7_2 1_555 1_555
Cu5 O4_2 1_555 1_555
Cu4 N9_2 1_555 1_555
N7_2 Cu5 1_555 1_555
N10_2 C17_2 1_555 1_555
N8_3 N14_2 1_555 1_555
N14_2 N10_3 1_555 1_555
N10_3 C17_3 1_555 1_555
N6_3 C10_3 1_555 1_555
C10_3 C11_3 1_555 1_555
C11_3 C12_2 1_555 1_555
C12_2 C13_2 1_555 1_555
C13_2 C14_3 1_555 1_555
C14_3 N6_3 1_555 1_555
C15_2 C9_3 1_555 1_555
H8_3 C10_3 1_555 1_555
H9_3 C11_3 1_555 1_555
H10_2 C13_2 1_555 1_555
H11_2 C14_3 1_555 1_555
H12_2 C15_2 1_555 1_555
H13_2 C15_2 1_555 1_555
H14_2 C9_3 1_555 1_555
Cu4 N6_3 1_555 1_555
C12_2 C15_2 1_555 1_555
Cu3 N4_3 1_555 1_555
N2_3 N13_2 1_555 1_555
N13_2 N4_3 1_555 1_555
N4_3 C2_3 1_555 1_555
N5_3 Cu3 1_555 1_555
C3_3 N5_3 1_555 1_555
C4_3 C3_3 1_555 1_555
C5_2 C4_3 1_555 1_555
C6_2 C5_2 1_555 1_555
C7_3 N5_3 1_555 1_555
C8_2 C5_2 1_555 1_555
C9_4 C8_2 1_555 1_555
H1_3 C3_3 1_555 1_555
H2_3 C4_3 1_555 1_555
H3_2 C6_2 1_555 1_555
H4_2 C7_3 1_555 1_555
H5_2 C8_2 1_555 1_555
H6_2 C8_2 1_555 1_555
H7_2 C9_4 1_555 1_555
C6_2 C7_3 1_555 1_555
O1_3 C1_3 1_555 1_555
O5 C1_3 1_555 1_555
N12_2 N8_4 1_555 1_555
N8_4 N14 1_555 1_555
N14 N10_4 1_555 1_555
C17_4 N12_2 1_555 1_555
N10_4 C17_4 1_555 1_555
Cu5 N4_4 1_555 1_555
O1_4 C1_4 1_555 1_555
O5_2 C1_4 1_555 1_555
N11_2 N2_4 1_555 1_555
N2_4 N13 1_555 1_555
N13 N4_4 1_555 1_555
N4_4 C2_4 1_555 1_555
N5_4 Cu5 1_555 1_555
C1_4 C2_4 1_555 1_555
C2_4 N11_2 1_555 1_555
C3_4 N5_4 1_555 1_555
C4_4 C3_4 1_555 1_555
C7_4 N5_4 1_555 1_555
H1_4 C3_4 1_555 1_555
H2_4 C4_4 1_555 1_555
N6_4 C10_4 1_555 1_555
C10_4 C11_4 1_555 1_555
C14_4 N6_4 1_555 1_555
H8_4 C10_4 1_555 1_555
H9_4 C11_4 1_555 1_555
Cu6 N6_4 1_555 1_555
O3_2 C16_2 1_555 1_555
O3_3 C16_3 1_555 1_555
C6_3 C5_3 1_555 1_555
C8_3 C5_3 1_555 1_555
C9_5 C8_3 1_555 1_555
H3_3 C6_3 1_555 1_555
H5_3 C8_3 1_555 1_555
H6_3 C8_3 1_555 1_555
H7_3 C9_5 1_555 1_555
C12_3 C13_3 1_555 1_555
C15_3 C9_5 1_555 1_555
H10_3 C13_3 1_555 1_555
H12_3 C15_3 1_555 1_555
H13_3 C15_3 1_555 1_555
H14_3 C9_5 1_555 1_555
C12_3 C15_3 1_555 1_555
O3_4 C16_4 1_555 1_555
C6_4 C5_4 1_555 1_555
C8_4 C5_4 1_555 1_555
C9_6 C8_4 1_555 1_555
H3_4 C6_4 1_555 1_555
H5_4 C8_4 1_555 1_555
H6_4 C8_4 1_555 1_555
H7_4 C9_6 1_555 1_555
C12_4 C13_4 1_555 1_555
C15_4 C9_6 1_555 1_555
H10_4 C13_4 1_555 1_555
H12_4 C15_4 1_555 1_555
H13_4 C15_4 1_555 1_555
H14_4 C9_6 1_555 1_555
C12_4 C15_4 1_555 1_555

#END
