
###############################################################################
#
# This file contains modified crystal structure data generated from the
# MOF subset of the Cambridge Structural Database (CSD) v543 
# hosted by the Cambridge Crystallographic Data Centre (CCDC).
#
# This work is licensed under the Creative Commons
# Attribution-NonCommercial-ShareAlike 4.0 International License.
# To view a copy of this license, visit
# http://creativecommons.org/licenses/by-nc-sa/4.0/
# or send a letter to
# Creative Commons, PO Box 1866, Mountain View, CA 94042, USA.
#
# CIF created using the CSD Python API on 29 September 2022
# The structure has been converted into the P1 space group
# The structure has a 3D framework
# The original CSD entry AQUDEX is in the monoclinic crystal system
# The framework has been calculated to contain at least 10.0% void space
# The void calculation uses a probe of radius 1.32A, grid spacing 0.4
#
###############################################################################

data_AQUDEX
_chemical_formula_moiety         '(C70 H56 Cu8 N36 O12)n'
_symmetry_cell_setting           triclinic
_symmetry_space_group_name_H-M   'P 1'
_symmetry_Int_Tables_number      1
_space_group_name_Hall           'P 1'
loop_
_symmetry_equiv_pos_site_id
_symmetry_equiv_pos_as_xyz
1 x,y,z
_cell_length_a                   28.6841(11)
_cell_length_b                   9.2655(5)
_cell_length_c                   9.3005(4)
_cell_angle_alpha                90
_cell_angle_beta                 116.369(3)
_cell_angle_gamma                90
_cell_volume                     2214.63
loop_
_atom_site_label
_atom_site_type_symbol
_atom_site_fract_x
_atom_site_fract_y
_atom_site_fract_z
_atom_site_U_iso_or_equiv
_atom_site_thermal_displace_type
O1 O 0.1284(5) 0.0703(15) 0.3384(17) 0.0570 Uiso
O2 O 0.1379(5) 0.1780(17) 0.5668(15) 0.0570 Uiso
N1 N 0.2204(4) 0.0125(15) 0.7372(12) 0.0570 Uiso
C1 C 0.1491(2) 0.0869(11) 0.4848(16) 0.0570 Uiso
Cu4 Cu 0.18800(16) 0.1708(5) 0.8140(6) 0.0540 Uiso
Cu1 Cu 0.18800(16) 0.8292(5) 0.3140(6) 0.0540 Uiso
N2 N 0.2571(3) 0.9096(16) 0.7932(12) 0.0570 Uiso
N3 N 0.2513(4) 0.8265(12) 0.6706(16) 0.0570 Uiso
N4 N 0.2117(4) 0.8745(13) 0.5379(13) 0.0570 Uiso
N5 N 0.1432(3) 0.6607(7) 0.3229(10) 0.0570 Uiso
C2 C 0.1933(2) 0.9885(9) 0.5813(11) 0.0570 Uiso
C3 C 0.1121(4) 0.7200(7) 0.3808(11) 0.0570 Uiso
C4 C 0.0746(4) 0.6450(9) 0.4069(10) 0.0570 Uiso
C5 C 0.06924(16) 0.4987(8) 0.3699(4) 0.0570 Uiso
C6 C 0.1007(2) 0.4339(7) 0.3100(11) 0.0570 Uiso
C7 C 0.1371(3) 0.5187(7) 0.2883(13) 0.0570 Uiso
C8 C 0.02929(12) 0.4100(11) 0.39526(13) 0.0570 Uiso
C9 C 0.000 0.3159(11) 0.250 0.0570 Uiso
H1 H 0.116168 0.821138 0.40582 0.0686 Uiso
H2 H 0.053368 0.692109 0.448515 0.0686 Uiso
H3 H 0.097401 0.332918 0.284216 0.0686 Uiso
H4 H 0.158784 0.474054 0.246854 0.0686 Uiso
H5 H 0.046475 0.350312 0.488505 0.0686 Uiso
H6 H 0.005313 0.473252 0.410377 0.0686 Uiso
H7 H 0.02417(6) 0.2560(11) 0.2317(3) 0.0686 Uiso
Cu5 Cu 0.31200(16) 0.6708(5) 0.6860(6) 0.0540 Uiso
O6 O 0.1379(5) 0.8220(17) 0.0668(15) 0.0570 Uiso
N12 N 0.2204(4) 0.9875(15) 0.2372(12) 0.0570 Uiso
N13 N 0.2487(4) 0.6735(12) 0.3294(16) 0.0570 Uiso
O4 O 0.8621(5) 0.1780(17) 0.9332(15) 0.0570 Uiso
N7 N 0.7796(4) 0.0125(15) 0.7628(12) 0.0570 Uiso
Cu3 Cu 0.81200(16) 0.1708(5) 0.6860(6) 0.0540 Uiso
C9_2 C 1.000 0.3159(11) 0.250 0.0570 Uiso
N6 N 0.8568(3) 0.6607(7) 0.1771(10) 0.0570 Uiso
C10 C 0.8879(4) 0.7200(7) 0.1192(11) 0.0570 Uiso
C11 C 0.9254(4) 0.6450(9) 0.0931(10) 0.0570 Uiso
C12 C 0.93076(16) 0.4987(8) 0.1301(4) 0.0570 Uiso
C13 C 0.8993(2) 0.4339(7) 0.1900(11) 0.0570 Uiso
C14 C 0.8629(3) 0.5187(7) 0.2117(13) 0.0570 Uiso
C15 C 0.97071(12) 0.4100(11) 0.10474(13) 0.0570 Uiso
H8 H 0.883832 0.821138 0.09418 0.0686 Uiso
H9 H 0.946632 0.692109 0.051485 0.0686 Uiso
H10 H 0.902599 0.332918 0.215784 0.0686 Uiso
H11 H 0.841216 0.474054 0.253146 0.0686 Uiso
H12 H 0.953525 0.350312 0.011495 0.0686 Uiso
H13 H 0.994687 0.473252 0.089623 0.0686 Uiso
H14 H 0.97583(6) 0.2560(11) 0.2683(3) 0.0686 Uiso
Cu2 Cu 0.81200(16) 0.8292(5) 0.1860(6) 0.0540 Uiso
O5 O 0.8621(5) 0.8220(17) 0.4332(15) 0.0570 Uiso
N11 N 0.7796(4) 0.9875(15) 0.2628(12) 0.0570 Uiso
N14 N 0.7513(4) 0.6735(12) 0.1706(16) 0.0570 Uiso
N8 N 0.7429(3) 0.9096(16) 0.7068(12) 0.0570 Uiso
N9 N 0.7487(4) 0.8265(12) 0.8294(16) 0.0570 Uiso
N10 N 0.7883(4) 0.8745(13) 0.9621(13) 0.0570 Uiso
C17 C 0.8067(2) 0.9885(9) 0.9187(11) 0.0570 Uiso
Cu6 Cu 0.68800(16) 0.6708(5) 0.8140(6) 0.0540 Uiso
Cu1_2 Cu 0.68800(16) 0.3292(5) 0.3140(6) 0.0540 Uiso
O1_2 O 0.6284(5) 0.5703(15) 0.3384(17) 0.0570 Uiso
O2_2 O 0.6379(5) 0.6780(17) 0.5668(15) 0.0570 Uiso
N1_2 N 0.7204(4) 0.5125(15) 0.7372(12) 0.0570 Uiso
N2_2 N 0.7571(3) 0.4096(16) 0.7932(12) 0.0570 Uiso
N3_2 N 0.7513(4) 0.3265(12) 0.6706(16) 0.0570 Uiso
N4_2 N 0.7117(4) 0.3745(13) 0.5379(13) 0.0570 Uiso
N5_2 N 0.6432(3) 0.1607(7) 0.3229(10) 0.0570 Uiso
C1_2 C 0.6491(2) 0.5869(11) 0.4848(16) 0.0570 Uiso
C2_2 C 0.6933(2) 0.4885(9) 0.5813(11) 0.0570 Uiso
C3_2 C 0.6121(4) 0.2200(7) 0.3808(11) 0.0570 Uiso
C4_2 C 0.5746(4) 0.1450(9) 0.4069(10) 0.0570 Uiso
C7_2 C 0.6371(3) 0.0187(7) 0.2883(13) 0.0570 Uiso
H1_2 H 0.616168 0.321138 0.40582 0.0686 Uiso
H2_2 H 0.553368 0.192109 0.448515 0.0686 Uiso
N6_2 N 0.3568(3) 0.1607(7) 0.1771(10) 0.0570 Uiso
C10_2 C 0.3879(4) 0.2200(7) 0.1192(11) 0.0570 Uiso
C11_2 C 0.4254(4) 0.1450(9) 0.0931(10) 0.0570 Uiso
C14_2 C 0.3629(3) 0.0187(7) 0.2117(13) 0.0570 Uiso
H8_2 H 0.383832 0.321138 0.09418 0.0686 Uiso
H9_2 H 0.446632 0.192109 0.051485 0.0686 Uiso
Cu2_2 Cu 0.31200(16) 0.3292(5) 0.1860(6) 0.0540 Uiso
O3 O 0.3716(5) 0.5703(15) 0.1616(17) 0.0570 Uiso
C16 C 0.3509(2) 0.5869(11) 0.0152(16) 0.0570 Uiso
O5_2 O 0.3621(5) 0.3220(17) 0.4332(15) 0.0570 Uiso
O6_2 O 0.6379(5) 0.3220(17) 0.0668(15) 0.0570 Uiso
N11_2 N 0.2796(4) 0.4875(15) 0.2628(12) 0.0570 Uiso
N12_2 N 0.7204(4) 0.4875(15) 0.2372(12) 0.0570 Uiso
N13_2 N 0.7487(4) 0.1735(12) 0.3294(16) 0.0570 Uiso
N14_2 N 0.2513(4) 0.1735(12) 0.1706(16) 0.0570 Uiso
O4_2 O 0.3621(5) 0.6780(17) 0.9332(15) 0.0570 Uiso
N7_2 N 0.2796(4) 0.5125(15) 0.7628(12) 0.0570 Uiso
N8_2 N 0.2429(3) 0.4096(16) 0.7068(12) 0.0570 Uiso
N9_2 N 0.2487(4) 0.3265(12) 0.8294(16) 0.0570 Uiso
N10_2 N 0.2883(4) 0.3745(13) 0.9621(13) 0.0570 Uiso
C17_2 C 0.3067(2) 0.4885(9) 0.9187(11) 0.0570 Uiso
N8_3 N 0.2571(3) 0.0904(16) 0.2932(12) 0.0570 Uiso
N10_3 N 0.2117(4) 0.1255(13) 0.0379(13) 0.0570 Uiso
C17_3 C 0.1933(2) 0.0115(9) 0.0813(11) 0.0570 Uiso
C9_3 C 0.000 0.6841(11) 0.750 0.0570 Uiso
N6_3 N 0.1432(3) 0.3393(7) 0.8229(10) 0.0570 Uiso
C10_3 C 0.1121(4) 0.2800(7) 0.8808(11) 0.0570 Uiso
C11_3 C 0.0746(4) 0.3550(9) 0.9069(10) 0.0570 Uiso
C12_2 C 0.06924(16) 0.5013(8) 0.8699(4) 0.0570 Uiso
C13_2 C 0.1007(2) 0.5661(7) 0.8100(11) 0.0570 Uiso
C14_3 C 0.1371(3) 0.4813(7) 0.7883(13) 0.0570 Uiso
C15_2 C 0.02929(12) 0.5900(11) 0.89526(13) 0.0570 Uiso
H8_3 H 0.116168 0.178862 0.90582 0.0686 Uiso
H9_3 H 0.053368 0.307891 0.948515 0.0686 Uiso
H10_2 H 0.097401 0.667082 0.784216 0.0686 Uiso
H11_2 H 0.158784 0.525946 0.746854 0.0686 Uiso
H12_2 H 0.046475 0.649688 0.988505 0.0686 Uiso
H13_2 H 0.005313 0.526748 0.910377 0.0686 Uiso
H14_2 H 0.02417(6) 0.7440(11) 0.7317(3) 0.0686 Uiso
N2_3 N 0.7429(3) 0.0904(16) 0.2068(12) 0.0570 Uiso
N4_3 N 0.7883(4) 0.1255(13) 0.4621(13) 0.0570 Uiso
N5_3 N 0.8568(3) 0.3393(7) 0.6771(10) 0.0570 Uiso
C2_3 C 0.8067(2) 0.0115(9) 0.4187(11) 0.0570 Uiso
C3_3 C 0.8879(4) 0.2800(7) 0.6192(11) 0.0570 Uiso
C4_3 C 0.9254(4) 0.3550(9) 0.5931(10) 0.0570 Uiso
C5_2 C 0.93076(16) 0.5013(8) 0.6301(4) 0.0570 Uiso
C6_2 C 0.8993(2) 0.5661(7) 0.6900(11) 0.0570 Uiso
C7_3 C 0.8629(3) 0.4813(7) 0.7117(13) 0.0570 Uiso
C8_2 C 0.97071(12) 0.5900(11) 0.60474(13) 0.0570 Uiso
C9_4 C 1.000 0.6841(11) 0.750 0.0570 Uiso
H1_3 H 0.883832 0.178862 0.59418 0.0686 Uiso
H2_3 H 0.946632 0.307891 0.551485 0.0686 Uiso
H3_2 H 0.902599 0.667082 0.715784 0.0686 Uiso
H4_2 H 0.841216 0.525946 0.753146 0.0686 Uiso
H5_2 H 0.953525 0.649688 0.511495 0.0686 Uiso
H6_2 H 0.994687 0.526748 0.589623 0.0686 Uiso
H7_2 H 0.97583(6) 0.7440(11) 0.7683(3) 0.0686 Uiso
O1_3 O 0.8716(5) 0.9297(15) 0.6616(17) 0.0570 Uiso
C1_3 C 0.8509(2) 0.9131(11) 0.5152(16) 0.0570 Uiso
N8_4 N 0.7571(3) 0.5904(16) 0.2932(12) 0.0570 Uiso
N10_4 N 0.7117(4) 0.6255(13) 0.0379(13) 0.0570 Uiso
C17_4 C 0.6933(2) 0.5115(9) 0.0813(11) 0.0570 Uiso
O1_4 O 0.3716(5) 0.4297(15) 0.6616(17) 0.0570 Uiso
N2_4 N 0.2429(3) 0.5904(16) 0.2068(12) 0.0570 Uiso
N4_4 N 0.2883(4) 0.6255(13) 0.4621(13) 0.0570 Uiso
N5_4 N 0.3568(3) 0.8393(7) 0.6771(10) 0.0570 Uiso
C1_4 C 0.3509(2) 0.4131(11) 0.5152(16) 0.0570 Uiso
C2_4 C 0.3067(2) 0.5115(9) 0.4187(11) 0.0570 Uiso
C3_4 C 0.3879(4) 0.7800(7) 0.6192(11) 0.0570 Uiso
C4_4 C 0.4254(4) 0.8550(9) 0.5931(10) 0.0570 Uiso
C7_4 C 0.3629(3) 0.9813(7) 0.7117(13) 0.0570 Uiso
H1_4 H 0.383832 0.678862 0.59418 0.0686 Uiso
H2_4 H 0.446632 0.807891 0.551485 0.0686 Uiso
N6_4 N 0.6432(3) 0.8393(7) 0.8229(10) 0.0570 Uiso
C10_4 C 0.6121(4) 0.7800(7) 0.8808(11) 0.0570 Uiso
C11_4 C 0.5746(4) 0.8550(9) 0.9069(10) 0.0570 Uiso
C14_4 C 0.6371(3) 0.9813(7) 0.7883(13) 0.0570 Uiso
H8_4 H 0.616168 0.678862 0.90582 0.0686 Uiso
H9_4 H 0.553368 0.807891 0.948515 0.0686 Uiso
O3_2 O 0.6284(5) 0.4297(15) 0.8384(17) 0.0570 Uiso
C16_2 C 0.6491(2) 0.4131(11) 0.9848(16) 0.0570 Uiso
O3_3 O 0.8716(5) 0.0703(15) 0.1616(17) 0.0570 Uiso
C16_3 C 0.8509(2) 0.0869(11) 0.0152(16) 0.0570 Uiso
C5_3 C 0.56924(16) 0.9987(8) 0.3699(4) 0.0570 Uiso
C6_3 C 0.6007(2) 0.9339(7) 0.3100(11) 0.0570 Uiso
C8_3 C 0.52929(12) 0.9100(11) 0.39526(13) 0.0570 Uiso
C9_5 C 0.500 0.8159(11) 0.250 0.0570 Uiso
H3_3 H 0.597401 0.832918 0.284216 0.0686 Uiso
H4_3 H 0.658784 0.974054 0.246854 0.0686 Uiso
H5_3 H 0.546475 0.850312 0.488505 0.0686 Uiso
H6_3 H 0.505313 0.973252 0.410377 0.0686 Uiso
H7_3 H 0.52417(6) 0.7560(11) 0.2317(3) 0.0686 Uiso
C12_3 C 0.43076(16) 0.9987(8) 0.1301(4) 0.0570 Uiso
C13_3 C 0.3993(2) 0.9339(7) 0.1900(11) 0.0570 Uiso
C15_3 C 0.47071(12) 0.9100(11) 0.10474(13) 0.0570 Uiso
H10_3 H 0.402599 0.832918 0.215784 0.0686 Uiso
H11_3 H 0.341216 0.974054 0.253146 0.0686 Uiso
H12_3 H 0.453525 0.850312 0.011495 0.0686 Uiso
H13_3 H 0.494687 0.973252 0.089623 0.0686 Uiso
H14_3 H 0.47583(6) 0.7560(11) 0.2683(3) 0.0686 Uiso
O3_4 O 0.1284(5) 0.9297(15) 0.8384(17) 0.0570 Uiso
C16_4 C 0.1491(2) 0.9131(11) 0.9848(16) 0.0570 Uiso
C5_4 C 0.43076(16) 0.0013(8) 0.6301(4) 0.0570 Uiso
C6_4 C 0.3993(2) 0.0661(7) 0.6900(11) 0.0570 Uiso
C8_4 C 0.47071(12) 0.0900(11) 0.60474(13) 0.0570 Uiso
C9_6 C 0.500 0.1841(11) 0.750 0.0570 Uiso
H3_4 H 0.402599 0.167082 0.715784 0.0686 Uiso
H4_4 H 0.341216 0.025946 0.753146 0.0686 Uiso
H5_4 H 0.453525 0.149688 0.511495 0.0686 Uiso
H6_4 H 0.494687 0.026748 0.589623 0.0686 Uiso
H7_4 H 0.47583(6) 0.2440(11) 0.7683(3) 0.0686 Uiso
C12_4 C 0.56924(16) 0.0013(8) 0.8699(4) 0.0570 Uiso
C13_4 C 0.6007(2) 0.0661(7) 0.8100(11) 0.0570 Uiso
C15_4 C 0.52929(12) 0.0900(11) 0.89526(13) 0.0570 Uiso
H10_4 H 0.597401 0.167082 0.784216 0.0686 Uiso
H11_4 H 0.658784 0.025946 0.746854 0.0686 Uiso
H12_4 H 0.546475 0.149688 0.988505 0.0686 Uiso
H13_4 H 0.505313 0.026748 0.910377 0.0686 Uiso
H14_4 H 0.52417(6) 0.2440(11) 0.7317(3) 0.0686 Uiso
loop_
_geom_bond_atom_site_label_1
_geom_bond_atom_site_label_2
_geom_bond_site_symmetry_1
_geom_bond_site_symmetry_2
O1 C1 1_555 1_555
O2 C1 1_555 1_555
Cu4 O2 1_555 1_555
N1 Cu4 1_555 1_555
Cu1 N4 1_555 1_555
N2 N3 1_555 1_555
N3 N4 1_555 1_555
N4 C2 1_555 1_555
N5 Cu1 1_555 1_555
C3 N5 1_555 1_555
C4 C3 1_555 1_555
C5 C4 1_555 1_555
C6 C5 1_555 1_555
C7 N5 1_555 1_555
C8 C5 1_555 1_555
C9 C8 1_555 1_555
H1 C3 1_555 1_555
H2 C4 1_555 1_555
H3 C6 1_555 1_555
H4 C7 1_555 1_555
H5 C8 1_555 1_555
H6 C8 1_555 1_555
H7 C9 1_555 1_555
Cu5 N3 1_555 1_555
O6 Cu1 1_555 1_555
N12 Cu1 1_555 1_555
N13 Cu1 1_555 1_555
C6 C7 1_555 1_555
Cu3 O4 1_555 1_555
N7 Cu3 1_555 1_555
N6 C10 1_555 1_555
C10 C11 1_555 1_555
C11 C12 1_555 1_555
C12 C13 1_555 1_555
C13 C14 1_555 1_555
C14 N6 1_555 1_555
C15 C9_2 1_555 1_555
H8 C10 1_555 1_555
H9 C11 1_555 1_555
H10 C13 1_555 1_555
H11 C14 1_555 1_555
H12 C15 1_555 1_555
H13 C15 1_555 1_555
H14 C9_2 1_555 1_555
Cu2 N6 1_555 1_555
O5 Cu2 1_555 1_555
N11 Cu2 1_555 1_555
N14 Cu2 1_555 1_555
C12 C15 1_555 1_555
N8 N9 1_555 1_555
N9 N10 1_555 1_555
Cu6 N9 1_555 1_555
N10 C17 1_555 1_555
Cu1_2 N4_2 1_555 1_555
O1_2 C1_2 1_555 1_555
O2_2 C1_2 1_555 1_555
N1_2 N2_2 1_555 1_555
N2_2 N3_2 1_555 1_555
N3_2 N4_2 1_555 1_555
N4_2 C2_2 1_555 1_555
N5_2 Cu1_2 1_555 1_555
C1_2 C2_2 1_555 1_555
C2_2 N1_2 1_555 1_555
C3_2 N5_2 1_555 1_555
C4_2 C3_2 1_555 1_555
C7_2 N5_2 1_555 1_555
H1_2 C3_2 1_555 1_555
H2_2 C4_2 1_555 1_555
N6_2 C10_2 1_555 1_555
C10_2 C11_2 1_555 1_555
C14_2 N6_2 1_555 1_555
H8_2 C10_2 1_555 1_555
H9_2 C11_2 1_555 1_555
Cu2_2 N6_2 1_555 1_555
O3 C16 1_555 1_555
Cu6 O2_2 1_555 1_555
Cu3 N3_2 1_555 1_555
O5_2 Cu2_2 1_555 1_555
O6_2 Cu1_2 1_555 1_555
N11_2 Cu2_2 1_555 1_555
N12_2 Cu1_2 1_555 1_555
N13_2 Cu1_2 1_555 1_555
N14_2 Cu2_2 1_555 1_555
N1_2 Cu6 1_555 1_555
N7_2 N8_2 1_555 1_555
N8_2 N9_2 1_555 1_555
N9_2 N10_2 1_555 1_555
C17_2 N7_2 1_555 1_555
Cu5 O4_2 1_555 1_555
Cu4 N9_2 1_555 1_555
N7_2 Cu5 1_555 1_555
N10_2 C17_2 1_555 1_555
N8_3 N14_2 1_555 1_555
N14_2 N10_3 1_555 1_555
N10_3 C17_3 1_555 1_555
N6_3 C10_3 1_555 1_555
C10_3 C11_3 1_555 1_555
C11_3 C12_2 1_555 1_555
C12_2 C13_2 1_555 1_555
C13_2 C14_3 1_555 1_555
C14_3 N6_3 1_555 1_555
C15_2 C9_3 1_555 1_555
H8_3 C10_3 1_555 1_555
H9_3 C11_3 1_555 1_555
H10_2 C13_2 1_555 1_555
H11_2 C14_3 1_555 1_555
H12_2 C15_2 1_555 1_555
H13_2 C15_2 1_555 1_555
H14_2 C9_3 1_555 1_555
Cu4 N6_3 1_555 1_555
C12_2 C15_2 1_555 1_555
Cu3 N4_3 1_555 1_555
N2_3 N13_2 1_555 1_555
N13_2 N4_3 1_555 1_555
N4_3 C2_3 1_555 1_555
N5_3 Cu3 1_555 1_555
C3_3 N5_3 1_555 1_555
C4_3 C3_3 1_555 1_555
C5_2 C4_3 1_555 1_555
C6_2 C5_2 1_555 1_555
C7_3 N5_3 1_555 1_555
C8_2 C5_2 1_555 1_555
C9_4 C8_2 1_555 1_555
H1_3 C3_3 1_555 1_555
H2_3 C4_3 1_555 1_555
H3_2 C6_2 1_555 1_555
H4_2 C7_3 1_555 1_555
H5_2 C8_2 1_555 1_555
H6_2 C8_2 1_555 1_555
H7_2 C9_4 1_555 1_555
C6_2 C7_3 1_555 1_555
O1_3 C1_3 1_555 1_555
O5 C1_3 1_555 1_555
N12_2 N8_4 1_555 1_555
N8_4 N14 1_555 1_555
N14 N10_4 1_555 1_555
C17_4 N12_2 1_555 1_555
N10_4 C17_4 1_555 1_555
Cu5 N4_4 1_555 1_555
O1_4 C1_4 1_555 1_555
O5_2 C1_4 1_555 1_555
N11_2 N2_4 1_555 1_555
N2_4 N13 1_555 1_555
N13 N4_4 1_555 1_555
N4_4 C2_4 1_555 1_555
N5_4 Cu5 1_555 1_555
C1_4 C2_4 1_555 1_555
C2_4 N11_2 1_555 1_555
C3_4 N5_4 1_555 1_555
C4_4 C3_4 1_555 1_555
C7_4 N5_4 1_555 1_555
H1_4 C3_4 1_555 1_555
H2_4 C4_4 1_555 1_555
N6_4 C10_4 1_555 1_555
C10_4 C11_4 1_555 1_555
C14_4 N6_4 1_555 1_555
H8_4 C10_4 1_555 1_555
H9_4 C11_4 1_555 1_555
Cu6 N6_4 1_555 1_555
O3_2 C16_2 1_555 1_555
O3_3 C16_3 1_555 1_555
C6_3 C5_3 1_555 1_555
C8_3 C5_3 1_555 1_555
C9_5 C8_3 1_555 1_555
H3_3 C6_3 1_555 1_555
H5_3 C8_3 1_555 1_555
H6_3 C8_3 1_555 1_555
H7_3 C9_5 1_555 1_555
C12_3 C13_3 1_555 1_555
C15_3 C9_5 1_555 1_555
H10_3 C13_3 1_555 1_555
H12_3 C15_3 1_555 1_555
H13_3 C15_3 1_555 1_555
H14_3 C9_5 1_555 1_555
C12_3 C15_3 1_555 1_555
O3_4 C16_4 1_555 1_555
C6_4 C5_4 1_555 1_555
C8_4 C5_4 1_555 1_555
C9_6 C8_4 1_555 1_555
H3_4 C6_4 1_555 1_555
H5_4 C8_4 1_555 1_555
H6_4 C8_4 1_555 1_555
H7_4 C9_6 1_555 1_555
C12_4 C13_4 1_555 1_555
C15_4 C9_6 1_555 1_555
H10_4 C13_4 1_555 1_555
H12_4 C15_4 1_555 1_555
H13_4 C15_4 1_555 1_555
H14_4 C9_6 1_555 1_555
C12_4 C15_4 1_555 1_555

#END
