
###############################################################################
#
# This file contains modified crystal structure data generated from the
# MOF subset of the Cambridge Structural Database (CSD) v543 
# hosted by the Cambridge Crystallographic Data Centre (CCDC).
#
# This work is licensed under the Creative Commons
# Attribution-NonCommercial-ShareAlike 4.0 International License.
# To view a copy of this license, visit
# http://creativecommons.org/licenses/by-nc-sa/4.0/
# or send a letter to
# Creative Commons, PO Box 1866, Mountain View, CA 94042, USA.
#
# CIF created using the CSD Python API on 29 September 2022
# The structure has been converted into the P1 space group
# The structure has a 3D framework
# The original CSD entry AQUDAT is in the monoclinic crystal system
# The framework has been calculated to contain at least 10.0% void space
# The void calculation uses a probe of radius 1.32A, grid spacing 0.4
#
###############################################################################

data_AQUDAT
_chemical_formula_moiety         '(C70 H56 Cu8 N36 O12)n'
_symmetry_cell_setting           triclinic
_symmetry_space_group_name_H-M   'P 1'
_symmetry_Int_Tables_number      1
_space_group_name_Hall           'P 1'
loop_
_symmetry_equiv_pos_site_id
_symmetry_equiv_pos_as_xyz
1 x,y,z
_cell_length_a                   28.6315(13)
_cell_length_b                   9.2743(5)
_cell_length_c                   9.2833(5)
_cell_angle_alpha                90
_cell_angle_beta                 116.615(4)
_cell_angle_gamma                90
_cell_volume                     2203.86
loop_
_atom_site_label
_atom_site_type_symbol
_atom_site_fract_x
_atom_site_fract_y
_atom_site_fract_z
_atom_site_U_iso_or_equiv
_atom_site_thermal_displace_type
O1 O 0.1271(6) 0.0664(17) 0.334(2) 0.0360 Uiso
O2 O 0.1372(5) 0.176(2) 0.5621(17) 0.0360 Uiso
N1 N 0.2208(5) 0.0110(17) 0.7329(14) 0.0360 Uiso
C1 C 0.1482(3) 0.0844(13) 0.4805(19) 0.0360 Uiso
Cu4 Cu 0.18764(18) 0.1731(6) 0.8103(7) 0.0430 Uiso
Cu1 Cu 0.18764(18) 0.8269(6) 0.3103(7) 0.0430 Uiso
N2 N 0.2577(4) 0.9082(19) 0.7884(14) 0.0360 Uiso
N3 N 0.2512(4) 0.8247(15) 0.6652(18) 0.0360 Uiso
N4 N 0.2109(5) 0.8722(16) 0.5326(14) 0.0360 Uiso
N5 N 0.1422(3) 0.6614(8) 0.3189(12) 0.0360 Uiso
C2 C 0.1928(3) 0.9864(11) 0.5767(13) 0.0360 Uiso
C3 C 0.1110(5) 0.7198(9) 0.3772(13) 0.0360 Uiso
C4 C 0.0740(4) 0.6438(10) 0.4047(12) 0.0360 Uiso
C5 C 0.06917(17) 0.4974(9) 0.3689(5) 0.0360 Uiso
C6 C 0.1007(3) 0.4335(8) 0.3086(12) 0.0360 Uiso
C7 C 0.1366(3) 0.5193(8) 0.2854(14) 0.0360 Uiso
C8 C 0.02973(13) 0.4077(12) 0.39570(14) 0.0360 Uiso
C9 C 0.000 0.3136(13) 0.250 0.0360 Uiso
H1 H 0.114705 0.821055 0.401414 0.0434 Uiso
H2 H 0.052662 0.6903 0.44649 0.0434 Uiso
H3 H 0.097777 0.3325 0.283528 0.0434 Uiso
H4 H 0.158355 0.475305 0.243733 0.0434 Uiso
H5 H 0.047508 0.347965 0.489059 0.0434 Uiso
H6 H 0.005764 0.470107 0.411951 0.0434 Uiso
H7 H 0.02411(7) 0.2538(13) 0.2312(3) 0.0434 Uiso
Cu5 Cu 0.31236(18) 0.6731(6) 0.6897(7) 0.0430 Uiso
O6 O 0.1372(5) 0.824(2) 0.0621(17) 0.0360 Uiso
N12 N 0.2208(5) 0.9890(17) 0.2329(14) 0.0360 Uiso
N13 N 0.2488(4) 0.6753(15) 0.3348(18) 0.0360 Uiso
O4 O 0.8628(5) 0.176(2) 0.9379(17) 0.0360 Uiso
N7 N 0.7792(5) 0.0110(17) 0.7671(14) 0.0360 Uiso
Cu3 Cu 0.81236(18) 0.1731(6) 0.6897(7) 0.0430 Uiso
C9_2 C 1.000 0.3136(13) 0.250 0.0360 Uiso
N6 N 0.8578(3) 0.6614(8) 0.1811(12) 0.0360 Uiso
C10 C 0.8890(5) 0.7198(9) 0.1228(13) 0.0360 Uiso
C11 C 0.9260(4) 0.6438(10) 0.0953(12) 0.0360 Uiso
C12 C 0.93083(17) 0.4974(9) 0.1311(5) 0.0360 Uiso
C13 C 0.8993(3) 0.4335(8) 0.1914(12) 0.0360 Uiso
C14 C 0.8634(3) 0.5193(8) 0.2146(14) 0.0360 Uiso
C15 C 0.97027(13) 0.4077(12) 0.10430(14) 0.0360 Uiso
H8 H 0.885295 0.821055 0.098586 0.0434 Uiso
H9 H 0.947338 0.6903 0.05351 0.0434 Uiso
H10 H 0.902223 0.3325 0.216472 0.0434 Uiso
H11 H 0.841645 0.475305 0.256267 0.0434 Uiso
H12 H 0.952492 0.347965 0.010941 0.0434 Uiso
H13 H 0.994236 0.470107 0.088049 0.0434 Uiso
H14 H 0.97589(7) 0.2538(13) 0.2688(3) 0.0434 Uiso
Cu2 Cu 0.81236(18) 0.8269(6) 0.1897(7) 0.0430 Uiso
O5 O 0.8628(5) 0.824(2) 0.4379(17) 0.0360 Uiso
N11 N 0.7792(5) 0.9890(17) 0.2671(14) 0.0360 Uiso
N14 N 0.7512(4) 0.6753(15) 0.1652(18) 0.0360 Uiso
N8 N 0.7423(4) 0.9082(19) 0.7116(14) 0.0360 Uiso
N9 N 0.7488(4) 0.8247(15) 0.8348(18) 0.0360 Uiso
N10 N 0.7891(5) 0.8722(16) 0.9674(14) 0.0360 Uiso
C17 C 0.8072(3) 0.9864(11) 0.9233(13) 0.0360 Uiso
Cu6 Cu 0.68764(18) 0.6731(6) 0.8103(7) 0.0430 Uiso
Cu1_2 Cu 0.68764(18) 0.3269(6) 0.3103(7) 0.0430 Uiso
O1_2 O 0.6271(6) 0.5664(17) 0.334(2) 0.0360 Uiso
O2_2 O 0.6372(5) 0.676(2) 0.5621(17) 0.0360 Uiso
N1_2 N 0.7208(5) 0.5110(17) 0.7329(14) 0.0360 Uiso
N2_2 N 0.7577(4) 0.4082(19) 0.7884(14) 0.0360 Uiso
N3_2 N 0.7512(4) 0.3247(15) 0.6652(18) 0.0360 Uiso
N4_2 N 0.7109(5) 0.3722(16) 0.5326(14) 0.0360 Uiso
N5_2 N 0.6422(3) 0.1614(8) 0.3189(12) 0.0360 Uiso
C1_2 C 0.6482(3) 0.5844(13) 0.4805(19) 0.0360 Uiso
C2_2 C 0.6928(3) 0.4864(11) 0.5767(13) 0.0360 Uiso
C3_2 C 0.6110(5) 0.2198(9) 0.3772(13) 0.0360 Uiso
C4_2 C 0.5740(4) 0.1438(10) 0.4047(12) 0.0360 Uiso
C7_2 C 0.6366(3) 0.0193(8) 0.2854(14) 0.0360 Uiso
H1_2 H 0.614705 0.321055 0.401414 0.0434 Uiso
H2_2 H 0.552662 0.1903 0.44649 0.0434 Uiso
N6_2 N 0.3578(3) 0.1614(8) 0.1811(12) 0.0360 Uiso
C10_2 C 0.3890(5) 0.2198(9) 0.1228(13) 0.0360 Uiso
C11_2 C 0.4260(4) 0.1438(10) 0.0953(12) 0.0360 Uiso
C14_2 C 0.3634(3) 0.0193(8) 0.2146(14) 0.0360 Uiso
H8_2 H 0.385295 0.321055 0.098586 0.0434 Uiso
H9_2 H 0.447338 0.1903 0.05351 0.0434 Uiso
Cu2_2 Cu 0.31236(18) 0.3269(6) 0.1897(7) 0.0430 Uiso
O3 O 0.3729(6) 0.5664(17) 0.166(2) 0.0360 Uiso
C16 C 0.3518(3) 0.5844(13) 0.0195(19) 0.0360 Uiso
O5_2 O 0.3628(5) 0.324(2) 0.4379(17) 0.0360 Uiso
O6_2 O 0.6372(5) 0.324(2) 0.0621(17) 0.0360 Uiso
N11_2 N 0.2792(5) 0.4890(17) 0.2671(14) 0.0360 Uiso
N12_2 N 0.7208(5) 0.4890(17) 0.2329(14) 0.0360 Uiso
N13_2 N 0.7488(4) 0.1753(15) 0.3348(18) 0.0360 Uiso
N14_2 N 0.2512(4) 0.1753(15) 0.1652(18) 0.0360 Uiso
O4_2 O 0.3628(5) 0.676(2) 0.9379(17) 0.0360 Uiso
N7_2 N 0.2792(5) 0.5110(17) 0.7671(14) 0.0360 Uiso
N8_2 N 0.2423(4) 0.4082(19) 0.7116(14) 0.0360 Uiso
N9_2 N 0.2488(4) 0.3247(15) 0.8348(18) 0.0360 Uiso
N10_2 N 0.2891(5) 0.3722(16) 0.9674(14) 0.0360 Uiso
C17_2 C 0.3072(3) 0.4864(11) 0.9233(13) 0.0360 Uiso
N8_3 N 0.2577(4) 0.0918(19) 0.2884(14) 0.0360 Uiso
N10_3 N 0.2109(5) 0.1278(16) 0.0326(14) 0.0360 Uiso
C17_3 C 0.1928(3) 0.0136(11) 0.0767(13) 0.0360 Uiso
C9_3 C -0.000 0.6864(13) 0.750 0.0360 Uiso
N6_3 N 0.1422(3) 0.3386(8) 0.8189(12) 0.0360 Uiso
C10_3 C 0.1110(5) 0.2802(9) 0.8772(13) 0.0360 Uiso
C11_3 C 0.0740(4) 0.3562(10) 0.9047(12) 0.0360 Uiso
C12_2 C 0.06917(17) 0.5026(9) 0.8689(5) 0.0360 Uiso
C13_2 C 0.1007(3) 0.5665(8) 0.8086(12) 0.0360 Uiso
C14_3 C 0.1366(3) 0.4807(8) 0.7854(14) 0.0360 Uiso
C15_2 C 0.02973(13) 0.5923(12) 0.89570(14) 0.0360 Uiso
H8_3 H 0.114705 0.178945 0.901414 0.0434 Uiso
H9_3 H 0.052662 0.3097 0.94649 0.0434 Uiso
H10_2 H 0.097777 0.6675 0.783528 0.0434 Uiso
H11_2 H 0.158355 0.524695 0.743733 0.0434 Uiso
H12_2 H 0.047508 0.652035 0.989059 0.0434 Uiso
H13_2 H 0.005764 0.529893 0.911951 0.0434 Uiso
H14_2 H 0.02411(7) 0.7462(13) 0.7312(3) 0.0434 Uiso
N2_3 N 0.7423(4) 0.0918(19) 0.2116(14) 0.0360 Uiso
N4_3 N 0.7891(5) 0.1278(16) 0.4674(14) 0.0360 Uiso
N5_3 N 0.8578(3) 0.3386(8) 0.6811(12) 0.0360 Uiso
C2_3 C 0.8072(3) 0.0136(11) 0.4233(13) 0.0360 Uiso
C3_3 C 0.8890(5) 0.2802(9) 0.6228(13) 0.0360 Uiso
C4_3 C 0.9260(4) 0.3562(10) 0.5953(12) 0.0360 Uiso
C5_2 C 0.93083(17) 0.5026(9) 0.6311(5) 0.0360 Uiso
C6_2 C 0.8993(3) 0.5665(8) 0.6914(12) 0.0360 Uiso
C7_3 C 0.8634(3) 0.4807(8) 0.7146(14) 0.0360 Uiso
C8_2 C 0.97027(13) 0.5923(12) 0.60430(14) 0.0360 Uiso
C9_4 C 1.000 0.6864(13) 0.750 0.0360 Uiso
H1_3 H 0.885295 0.178945 0.598586 0.0434 Uiso
H2_3 H 0.947338 0.3097 0.55351 0.0434 Uiso
H3_2 H 0.902223 0.6675 0.716472 0.0434 Uiso
H4_2 H 0.841645 0.524695 0.756267 0.0434 Uiso
H5_2 H 0.952492 0.652035 0.510941 0.0434 Uiso
H6_2 H 0.994236 0.529893 0.588049 0.0434 Uiso
H7_2 H 0.97589(7) 0.7462(13) 0.7688(3) 0.0434 Uiso
O1_3 O 0.8729(6) 0.9336(17) 0.666(2) 0.0360 Uiso
C1_3 C 0.8518(3) 0.9156(13) 0.5195(19) 0.0360 Uiso
N8_4 N 0.7577(4) 0.5918(19) 0.2884(14) 0.0360 Uiso
N10_4 N 0.7109(5) 0.6278(16) 0.0326(14) 0.0360 Uiso
C17_4 C 0.6928(3) 0.5136(11) 0.0767(13) 0.0360 Uiso
O1_4 O 0.3729(6) 0.4336(17) 0.666(2) 0.0360 Uiso
N2_4 N 0.2423(4) 0.5918(19) 0.2116(14) 0.0360 Uiso
N4_4 N 0.2891(5) 0.6278(16) 0.4674(14) 0.0360 Uiso
N5_4 N 0.3578(3) 0.8386(8) 0.6811(12) 0.0360 Uiso
C1_4 C 0.3518(3) 0.4156(13) 0.5195(19) 0.0360 Uiso
C2_4 C 0.3072(3) 0.5136(11) 0.4233(13) 0.0360 Uiso
C3_4 C 0.3890(5) 0.7802(9) 0.6228(13) 0.0360 Uiso
C4_4 C 0.4260(4) 0.8562(10) 0.5953(12) 0.0360 Uiso
C7_4 C 0.3634(3) 0.9807(8) 0.7146(14) 0.0360 Uiso
H1_4 H 0.385295 0.678945 0.598586 0.0434 Uiso
H2_4 H 0.447338 0.8097 0.55351 0.0434 Uiso
N6_4 N 0.6422(3) 0.8386(8) 0.8189(12) 0.0360 Uiso
C10_4 C 0.6110(5) 0.7802(9) 0.8772(13) 0.0360 Uiso
C11_4 C 0.5740(4) 0.8562(10) 0.9047(12) 0.0360 Uiso
C14_4 C 0.6366(3) 0.9807(8) 0.7854(14) 0.0360 Uiso
H8_4 H 0.614705 0.678945 0.901414 0.0434 Uiso
H9_4 H 0.552662 0.8097 0.94649 0.0434 Uiso
O3_2 O 0.6271(6) 0.4336(17) 0.834(2) 0.0360 Uiso
C16_2 C 0.6482(3) 0.4156(13) 0.9805(19) 0.0360 Uiso
O3_3 O 0.8729(6) 0.0664(17) 0.166(2) 0.0360 Uiso
C16_3 C 0.8518(3) 0.0844(13) 0.0195(19) 0.0360 Uiso
C5_3 C 0.56917(17) 0.9974(9) 0.3689(5) 0.0360 Uiso
C6_3 C 0.6007(3) 0.9335(8) 0.3086(12) 0.0360 Uiso
C8_3 C 0.52973(13) 0.9077(12) 0.39570(14) 0.0360 Uiso
C9_5 C 0.500 0.8136(13) 0.250 0.0360 Uiso
H3_3 H 0.597777 0.8325 0.283528 0.0434 Uiso
H4_3 H 0.658355 0.975305 0.243733 0.0434 Uiso
H5_3 H 0.547508 0.847965 0.489059 0.0434 Uiso
H6_3 H 0.505764 0.970107 0.411951 0.0434 Uiso
H7_3 H 0.52411(7) 0.7538(13) 0.2312(3) 0.0434 Uiso
C12_3 C 0.43083(17) 0.9974(9) 0.1311(5) 0.0360 Uiso
C13_3 C 0.3993(3) 0.9335(8) 0.1914(12) 0.0360 Uiso
C15_3 C 0.47027(13) 0.9077(12) 0.10430(14) 0.0360 Uiso
H10_3 H 0.402223 0.8325 0.216472 0.0434 Uiso
H11_3 H 0.341645 0.975305 0.256267 0.0434 Uiso
H12_3 H 0.452492 0.847965 0.010941 0.0434 Uiso
H13_3 H 0.494236 0.970107 0.088049 0.0434 Uiso
H14_3 H 0.47589(7) 0.7538(13) 0.2688(3) 0.0434 Uiso
O3_4 O 0.1271(6) 0.9336(17) 0.834(2) 0.0360 Uiso
C16_4 C 0.1482(3) 0.9156(13) 0.9805(19) 0.0360 Uiso
C5_4 C 0.43083(17) 0.0026(9) 0.6311(5) 0.0360 Uiso
C6_4 C 0.3993(3) 0.0665(8) 0.6914(12) 0.0360 Uiso
C8_4 C 0.47027(13) 0.0923(12) 0.60430(14) 0.0360 Uiso
C9_6 C 0.500 0.1864(13) 0.750 0.0360 Uiso
H3_4 H 0.402223 0.1675 0.716472 0.0434 Uiso
H4_4 H 0.341645 0.024695 0.756267 0.0434 Uiso
H5_4 H 0.452492 0.152035 0.510941 0.0434 Uiso
H6_4 H 0.494236 0.029893 0.588049 0.0434 Uiso
H7_4 H 0.47589(7) 0.2462(13) 0.7688(3) 0.0434 Uiso
C12_4 C 0.56917(17) 0.0026(9) 0.8689(5) 0.0360 Uiso
C13_4 C 0.6007(3) 0.0665(8) 0.8086(12) 0.0360 Uiso
C15_4 C 0.52973(13) 0.0923(12) 0.89570(14) 0.0360 Uiso
H10_4 H 0.597777 0.1675 0.783528 0.0434 Uiso
H11_4 H 0.658355 0.024695 0.743733 0.0434 Uiso
H12_4 H 0.547508 0.152035 0.989059 0.0434 Uiso
H13_4 H 0.505764 0.029893 0.911951 0.0434 Uiso
H14_4 H 0.52411(7) 0.2462(13) 0.7312(3) 0.0434 Uiso
loop_
_geom_bond_atom_site_label_1
_geom_bond_atom_site_label_2
_geom_bond_site_symmetry_1
_geom_bond_site_symmetry_2
O1 C1 1_555 1_555
O2 C1 1_555 1_555
Cu4 O2 1_555 1_555
N1 Cu4 1_555 1_555
Cu1 N4 1_555 1_555
N2 N3 1_555 1_555
N3 N4 1_555 1_555
N4 C2 1_555 1_555
N5 Cu1 1_555 1_555
C3 N5 1_555 1_555
C4 C3 1_555 1_555
C5 C4 1_555 1_555
C6 C5 1_555 1_555
C7 N5 1_555 1_555
C8 C5 1_555 1_555
C9 C8 1_555 1_555
H1 C3 1_555 1_555
H2 C4 1_555 1_555
H3 C6 1_555 1_555
H4 C7 1_555 1_555
H5 C8 1_555 1_555
H6 C8 1_555 1_555
H7 C9 1_555 1_555
Cu5 N3 1_555 1_555
O6 Cu1 1_555 1_555
N12 Cu1 1_555 1_555
N13 Cu1 1_555 1_555
C6 C7 1_555 1_555
Cu3 O4 1_555 1_555
N7 Cu3 1_555 1_555
N6 C10 1_555 1_555
C10 C11 1_555 1_555
C11 C12 1_555 1_555
C12 C13 1_555 1_555
C13 C14 1_555 1_555
C14 N6 1_555 1_555
C15 C9_2 1_555 1_555
H8 C10 1_555 1_555
H9 C11 1_555 1_555
H10 C13 1_555 1_555
H11 C14 1_555 1_555
H12 C15 1_555 1_555
H13 C15 1_555 1_555
H14 C9_2 1_555 1_555
Cu2 N6 1_555 1_555
O5 Cu2 1_555 1_555
N11 Cu2 1_555 1_555
N14 Cu2 1_555 1_555
C12 C15 1_555 1_555
N8 N9 1_555 1_555
N9 N10 1_555 1_555
Cu6 N9 1_555 1_555
N10 C17 1_555 1_555
Cu1_2 N4_2 1_555 1_555
O1_2 C1_2 1_555 1_555
O2_2 C1_2 1_555 1_555
N1_2 N2_2 1_555 1_555
N2_2 N3_2 1_555 1_555
N3_2 N4_2 1_555 1_555
N4_2 C2_2 1_555 1_555
N5_2 Cu1_2 1_555 1_555
C1_2 C2_2 1_555 1_555
C2_2 N1_2 1_555 1_555
C3_2 N5_2 1_555 1_555
C4_2 C3_2 1_555 1_555
C7_2 N5_2 1_555 1_555
H1_2 C3_2 1_555 1_555
H2_2 C4_2 1_555 1_555
N6_2 C10_2 1_555 1_555
C10_2 C11_2 1_555 1_555
C14_2 N6_2 1_555 1_555
H8_2 C10_2 1_555 1_555
H9_2 C11_2 1_555 1_555
Cu2_2 N6_2 1_555 1_555
O3 C16 1_555 1_555
Cu6 O2_2 1_555 1_555
Cu3 N3_2 1_555 1_555
O5_2 Cu2_2 1_555 1_555
O6_2 Cu1_2 1_555 1_555
N11_2 Cu2_2 1_555 1_555
N12_2 Cu1_2 1_555 1_555
N13_2 Cu1_2 1_555 1_555
N14_2 Cu2_2 1_555 1_555
N1_2 Cu6 1_555 1_555
N7_2 N8_2 1_555 1_555
N8_2 N9_2 1_555 1_555
N9_2 N10_2 1_555 1_555
C17_2 N7_2 1_555 1_555
Cu5 O4_2 1_555 1_555
Cu4 N9_2 1_555 1_555
N7_2 Cu5 1_555 1_555
N10_2 C17_2 1_555 1_555
N8_3 N14_2 1_555 1_555
N14_2 N10_3 1_555 1_555
N10_3 C17_3 1_555 1_555
N6_3 C10_3 1_555 1_555
C10_3 C11_3 1_555 1_555
C11_3 C12_2 1_555 1_555
C12_2 C13_2 1_555 1_555
C13_2 C14_3 1_555 1_555
C14_3 N6_3 1_555 1_555
C15_2 C9_3 1_555 1_555
H8_3 C10_3 1_555 1_555
H9_3 C11_3 1_555 1_555
H10_2 C13_2 1_555 1_555
H11_2 C14_3 1_555 1_555
H12_2 C15_2 1_555 1_555
H13_2 C15_2 1_555 1_555
H14_2 C9_3 1_555 1_555
Cu4 N6_3 1_555 1_555
C12_2 C15_2 1_555 1_555
Cu3 N4_3 1_555 1_555
N2_3 N13_2 1_555 1_555
N13_2 N4_3 1_555 1_555
N4_3 C2_3 1_555 1_555
N5_3 Cu3 1_555 1_555
C3_3 N5_3 1_555 1_555
C4_3 C3_3 1_555 1_555
C5_2 C4_3 1_555 1_555
C6_2 C5_2 1_555 1_555
C7_3 N5_3 1_555 1_555
C8_2 C5_2 1_555 1_555
C9_4 C8_2 1_555 1_555
H1_3 C3_3 1_555 1_555
H2_3 C4_3 1_555 1_555
H3_2 C6_2 1_555 1_555
H4_2 C7_3 1_555 1_555
H5_2 C8_2 1_555 1_555
H6_2 C8_2 1_555 1_555
H7_2 C9_4 1_555 1_555
C6_2 C7_3 1_555 1_555
O1_3 C1_3 1_555 1_555
O5 C1_3 1_555 1_555
N12_2 N8_4 1_555 1_555
N8_4 N14 1_555 1_555
N14 N10_4 1_555 1_555
C17_4 N12_2 1_555 1_555
N10_4 C17_4 1_555 1_555
Cu5 N4_4 1_555 1_555
O1_4 C1_4 1_555 1_555
O5_2 C1_4 1_555 1_555
N11_2 N2_4 1_555 1_555
N2_4 N13 1_555 1_555
N13 N4_4 1_555 1_555
N4_4 C2_4 1_555 1_555
N5_4 Cu5 1_555 1_555
C1_4 C2_4 1_555 1_555
C2_4 N11_2 1_555 1_555
C3_4 N5_4 1_555 1_555
C4_4 C3_4 1_555 1_555
C7_4 N5_4 1_555 1_555
H1_4 C3_4 1_555 1_555
H2_4 C4_4 1_555 1_555
N6_4 C10_4 1_555 1_555
C10_4 C11_4 1_555 1_555
C14_4 N6_4 1_555 1_555
H8_4 C10_4 1_555 1_555
H9_4 C11_4 1_555 1_555
Cu6 N6_4 1_555 1_555
O3_2 C16_2 1_555 1_555
O3_3 C16_3 1_555 1_555
C6_3 C5_3 1_555 1_555
C8_3 C5_3 1_555 1_555
C9_5 C8_3 1_555 1_555
H3_3 C6_3 1_555 1_555
H5_3 C8_3 1_555 1_555
H6_3 C8_3 1_555 1_555
H7_3 C9_5 1_555 1_555
C12_3 C13_3 1_555 1_555
C15_3 C9_5 1_555 1_555
H10_3 C13_3 1_555 1_555
H12_3 C15_3 1_555 1_555
H13_3 C15_3 1_555 1_555
H14_3 C9_5 1_555 1_555
C12_3 C15_3 1_555 1_555
O3_4 C16_4 1_555 1_555
C6_4 C5_4 1_555 1_555
C8_4 C5_4 1_555 1_555
C9_6 C8_4 1_555 1_555
H3_4 C6_4 1_555 1_555
H5_4 C8_4 1_555 1_555
H6_4 C8_4 1_555 1_555
H7_4 C9_6 1_555 1_555
C12_4 C13_4 1_555 1_555
C15_4 C9_6 1_555 1_555
H10_4 C13_4 1_555 1_555
H12_4 C15_4 1_555 1_555
H13_4 C15_4 1_555 1_555
H14_4 C9_6 1_555 1_555
C12_4 C15_4 1_555 1_555

#END
