
###############################################################################
#
# This file contains modified crystal structure data generated from the
# MOF subset of the Cambridge Structural Database (CSD) v543 
# hosted by the Cambridge Crystallographic Data Centre (CCDC).
#
# This work is licensed under the Creative Commons
# Attribution-NonCommercial-ShareAlike 4.0 International License.
# To view a copy of this license, visit
# http://creativecommons.org/licenses/by-nc-sa/4.0/
# or send a letter to
# Creative Commons, PO Box 1866, Mountain View, CA 94042, USA.
#
# CIF created using the CSD Python API on 29 September 2022
# The structure has been converted into the P1 space group
# The structure has a 3D framework
# The original CSD entry AQUDIB is in the rhombohedral crystal system
# The framework has been calculated to contain at least 10.0% void space
# The void calculation uses a probe of radius 1.32A, grid spacing 0.4
#
###############################################################################

data_AQUDIB
_chemical_formula_moiety         '(C72 H18 Ni8 O48)n'
_symmetry_cell_setting           triclinic
_symmetry_space_group_name_H-M   'P 1'
_symmetry_Int_Tables_number      1
_space_group_name_Hall           'P 1'
loop_
_symmetry_equiv_pos_site_id
_symmetry_equiv_pos_as_xyz
1 x,y,z
_cell_length_a                   25.7522(3)
_cell_length_b                   25.7522(3)
_cell_length_c                   6.7576(3)
_cell_angle_alpha                90
_cell_angle_beta                 90
_cell_angle_gamma                120
_cell_volume                     3881.07
loop_
_atom_site_label
_atom_site_type_symbol
_atom_site_fract_x
_atom_site_fract_y
_atom_site_fract_z
_atom_site_U_iso_or_equiv
_atom_site_thermal_displace_type
Ni1 Ni 0.61899(8) 0.64771(9) 0.3532(3) 0.0621 Uiso
O1 O 0.438614 0.406244 0.434232 0.0621 Uiso
O2 O 0.368971 0.365436 0.216567 0.0621 Uiso
O3 O 0.614437 0.582814 0.157977 0.0621 Uiso
C1 C 0.418153 0.406857 0.253761 0.0621 Uiso
C2 C 0.462557 0.4533 0.11806 0.0621 Uiso
C3 C 0.559669 0.548566 0.080323 0.0621 Uiso
C4 C 0.518049 0.496704 0.194141 0.0621 Uiso
H1 H 0.528839 0.491907 0.32607 0.0745 Uiso
Ni4 Ni 0.38101(8) 0.35229(9) 0.6468(3) 0.0621 Uiso
Ni7 Ni 0.68562(9) 0.63795(12) 0.0199(3) 0.0621 Uiso
Ni8 Ni 0.30461(12) 0.28566(8) 0.3135(3) 0.0621 Uiso
O8 O 0.561386 0.593756 0.565768 0.0621 Uiso
O10 O 0.670202 0.702304 0.116766 0.0621 Uiso
O12 O 0.698769 0.663132 0.450100 0.0621 Uiso
O13 O 0.635044 0.718896 0.491310 0.0621 Uiso
O5 O 0.631029 0.634564 0.783433 0.0621 Uiso
O6 O 0.385563 0.417186 0.842023 0.0621 Uiso
C5 C 0.581847 0.593143 0.746239 0.0621 Uiso
C6 C 0.537443 0.5467 0.88194 0.0621 Uiso
C7 C 0.440331 0.451434 0.919677 0.0621 Uiso
C8 C 0.481951 0.503296 0.805859 0.0621 Uiso
H2 H 0.471161 0.508093 0.67393 0.0745 Uiso
Ni5 Ni 0.69539(12) 0.71434(8) 0.6865(3) 0.0621 Uiso
Ni6 Ni 0.31438(9) 0.36205(12) 0.9801(3) 0.0621 Uiso
O9 O 0.301231 0.336868 0.549900 0.0621 Uiso
O11 O 0.329798 0.297696 0.883234 0.0621 Uiso
O14 O 0.364956 0.281104 0.508690 0.0621 Uiso
O1_2 O 0.593756 0.032370 0.434232 0.0621 Uiso
O2_2 O 0.634564 0.003535 0.216567 0.0621 Uiso
O3_2 O 0.417186 0.031623 0.157977 0.0621 Uiso
C1_2 C 0.593143 0.011296 0.253761 0.0621 Uiso
C2_2 C 0.5467 0.009257 0.11806 0.0621 Uiso
C3_2 C 0.451434 0.011103 0.080323 0.0621 Uiso
C4_2 C 0.503296 0.021345 0.194141 0.0621 Uiso
H1_2 H 0.508093 0.036932 0.32607 0.0745 Uiso
Ni4_2 Ni 0.64771(9) 0.02872(12) 0.6468(3) 0.0621 Uiso
Ni7_2 Ni 0.36205(12) 0.04768(15) 0.0199(3) 0.0621 Uiso
Ni8_2 Ni 0.71434(8) 0.01896(14) 0.3135(3) 0.0621 Uiso
O12_2 O 0.336868 0.035638 0.450100 0.0621 Uiso
O11_2 O 0.702304 0.032103 0.883234 0.0621 Uiso
O14_2 O 0.718896 0.083853 0.508690 0.0621 Uiso
Ni1_2 Ni 0.35229(9) 0.97128(12) 0.3532(3) 0.0621 Uiso
O8_2 O 0.406244 0.967630 0.565768 0.0621 Uiso
O10_2 O 0.297696 0.967897 0.116766 0.0621 Uiso
O13_2 O 0.281104 0.916147 0.491310 0.0621 Uiso
O5_2 O 0.365436 0.996465 0.783433 0.0621 Uiso
O6_2 O 0.582814 0.968377 0.842023 0.0621 Uiso
C5_2 C 0.406857 0.988704 0.746239 0.0621 Uiso
C6_2 C 0.4533 0.990743 0.88194 0.0621 Uiso
C7_2 C 0.548566 0.988897 0.919677 0.0621 Uiso
C8_2 C 0.496704 0.978655 0.805859 0.0621 Uiso
H2_2 H 0.491907 0.963068 0.67393 0.0745 Uiso
Ni5_2 Ni 0.28566(8) 0.98104(14) 0.6865(3) 0.0621 Uiso
Ni6_2 Ni 0.63795(12) 0.95232(15) 0.9801(3) 0.0621 Uiso
O9_2 O 0.663132 0.964362 0.549900 0.0621 Uiso
Ni1_3 Ni 0.02872(12) 0.38101(8) 0.3532(3) 0.0621 Uiso
O8_3 O 0.032370 0.438614 0.565768 0.0621 Uiso
O10_3 O 0.032103 0.329798 0.116766 0.0621 Uiso
O13_3 O 0.083853 0.364956 0.491310 0.0621 Uiso
O5_3 O 0.003535 0.368971 0.783433 0.0621 Uiso
O6_3 O 0.031623 0.614437 0.842023 0.0621 Uiso
C5_3 C 0.011296 0.418153 0.746239 0.0621 Uiso
C6_3 C 0.009257 0.462557 0.88194 0.0621 Uiso
C7_3 C 0.011103 0.559669 0.919677 0.0621 Uiso
C8_3 C 0.021345 0.518049 0.805859 0.0621 Uiso
H2_3 H 0.036932 0.528839 0.67393 0.0745 Uiso
Ni5_3 Ni 0.01896(14) 0.30461(12) 0.6865(3) 0.0621 Uiso
Ni6_3 Ni 0.04768(15) 0.68562(9) 0.9801(3) 0.0621 Uiso
O9_3 O 0.035638 0.698769 0.549900 0.0621 Uiso
O1_3 O 0.967630 0.561386 0.434232 0.0621 Uiso
O2_3 O 0.996465 0.631029 0.216567 0.0621 Uiso
O3_3 O 0.968377 0.385563 0.157977 0.0621 Uiso
C1_3 C 0.988704 0.581847 0.253761 0.0621 Uiso
C2_3 C 0.990743 0.537443 0.11806 0.0621 Uiso
C3_3 C 0.988897 0.440331 0.080323 0.0621 Uiso
C4_3 C 0.978655 0.481951 0.194141 0.0621 Uiso
H1_3 H 0.963068 0.471161 0.32607 0.0745 Uiso
Ni4_3 Ni 0.97128(12) 0.61899(8) 0.6468(3) 0.0621 Uiso
Ni7_3 Ni 0.95232(15) 0.31438(9) 0.0199(3) 0.0621 Uiso
Ni8_3 Ni 0.98104(14) 0.69539(12) 0.3135(3) 0.0621 Uiso
O12_3 O 0.964362 0.301231 0.450100 0.0621 Uiso
O11_3 O 0.967897 0.670202 0.883234 0.0621 Uiso
O14_3 O 0.916147 0.635044 0.508690 0.0621 Uiso
O13_4 O 0.301710 0.052230 0.824644 0.0621 Uiso
O1_4 O 0.105281 0.739577 0.767565 0.0621 Uiso
C1_4 C 0.084820 0.740190 0.587094 0.0621 Uiso
C2_4 C 0.129224 0.7866 0.45139 0.0621 Uiso
C3_4 C 0.226336 0.881899 0.413656 0.0621 Uiso
C4_4 C 0.184716 0.830037 0.527474 0.0621 Uiso
H1_4 H 0.195506 0.825240 0.65940 0.0745 Uiso
O6_4 O 0.052230 0.750519 0.175356 0.0621 Uiso
C5_4 C 0.248514 0.926476 0.079572 0.0621 Uiso
C6_4 C 0.204110 0.8800 0.21527 0.0621 Uiso
C7_4 C 0.106998 0.784767 0.253010 0.0621 Uiso
C8_4 C 0.148618 0.836629 0.139192 0.0621 Uiso
H2_4 H 0.137828 0.841426 0.00726 0.0745 Uiso
O8_4 O 0.228053 0.927089 0.899101 0.0621 Uiso
O1_5 O 0.260423 0.365703 0.767565 0.0621 Uiso
C1_5 C 0.259810 0.344629 0.587094 0.0621 Uiso
C2_5 C 0.2134 0.342590 0.45139 0.0621 Uiso
C3_5 C 0.118101 0.344436 0.413656 0.0621 Uiso
C4_5 C 0.169963 0.354678 0.527474 0.0621 Uiso
H1_5 H 0.174760 0.370265 0.65940 0.0745 Uiso
O6_5 O 0.249481 0.301710 0.175356 0.0621 Uiso
C5_5 C 0.073524 0.322037 0.079572 0.0621 Uiso
C6_5 C 0.1200 0.324076 0.21527 0.0621 Uiso
C7_5 C 0.215233 0.322230 0.253010 0.0621 Uiso
C8_5 C 0.163371 0.311988 0.139192 0.0621 Uiso
H2_5 H 0.158574 0.296401 0.00726 0.0745 Uiso
O8_5 O 0.072911 0.300963 0.899101 0.0621 Uiso
O13_5 O 0.947770 0.249481 0.824644 0.0621 Uiso
O1_6 O 0.634297 0.894719 0.767565 0.0621 Uiso
C1_6 C 0.655371 0.915180 0.587094 0.0621 Uiso
C2_6 C 0.657410 0.870776 0.45139 0.0621 Uiso
C3_6 C 0.655564 0.773664 0.413656 0.0621 Uiso
C4_6 C 0.645322 0.815284 0.527474 0.0621 Uiso
H1_6 H 0.629735 0.804494 0.65940 0.0745 Uiso
O6_6 O 0.698290 0.947770 0.175356 0.0621 Uiso
C5_6 C 0.677963 0.751486 0.079572 0.0621 Uiso
C6_6 C 0.675924 0.795890 0.21527 0.0621 Uiso
C7_6 C 0.677770 0.893002 0.253010 0.0621 Uiso
C8_6 C 0.688012 0.851382 0.139192 0.0621 Uiso
H2_6 H 0.703599 0.862172 0.00726 0.0745 Uiso
O8_6 O 0.699037 0.771947 0.899101 0.0621 Uiso
O13_6 O 0.750519 0.698290 0.824644 0.0621 Uiso
O1_7 O 0.771947 0.072911 0.100899 0.0621 Uiso
O8_7 O 0.894719 0.260423 0.232435 0.0621 Uiso
C1_7 C 0.751486 0.073524 0.920428 0.0621 Uiso
C2_7 C 0.795890 0.1200 0.78473 0.0621 Uiso
C3_7 C 0.893002 0.215233 0.746990 0.0621 Uiso
C4_7 C 0.851382 0.163371 0.860808 0.0621 Uiso
H1_7 H 0.862172 0.158574 0.99274 0.0745 Uiso
C5_7 C 0.915180 0.259810 0.412906 0.0621 Uiso
C6_7 C 0.870776 0.2134 0.54861 0.0621 Uiso
C7_7 C 0.773664 0.118101 0.586344 0.0621 Uiso
C8_7 C 0.815284 0.169963 0.472526 0.0621 Uiso
H2_7 H 0.804494 0.174760 0.34060 0.0745 Uiso
O1_8 O 0.927089 0.699037 0.100899 0.0621 Uiso
O8_8 O 0.739577 0.634297 0.232435 0.0621 Uiso
C1_8 C 0.926476 0.677963 0.920428 0.0621 Uiso
C2_8 C 0.8800 0.675924 0.78473 0.0621 Uiso
C3_8 C 0.784767 0.677770 0.746990 0.0621 Uiso
C4_8 C 0.836629 0.688012 0.860808 0.0621 Uiso
H1_8 H 0.841426 0.703599 0.99274 0.0745 Uiso
C5_8 C 0.740190 0.655371 0.412906 0.0621 Uiso
C6_8 C 0.7866 0.657410 0.54861 0.0621 Uiso
C7_8 C 0.881899 0.655564 0.586344 0.0621 Uiso
C8_8 C 0.830037 0.645322 0.472526 0.0621 Uiso
H2_8 H 0.825240 0.629735 0.34060 0.0745 Uiso
O1_9 O 0.300963 0.228053 0.100899 0.0621 Uiso
O8_9 O 0.365703 0.105281 0.232435 0.0621 Uiso
C1_9 C 0.322037 0.248514 0.920428 0.0621 Uiso
C2_9 C 0.324076 0.204110 0.78473 0.0621 Uiso
C3_9 C 0.322230 0.106998 0.746990 0.0621 Uiso
C4_9 C 0.311988 0.148618 0.860808 0.0621 Uiso
H1_9 H 0.296401 0.137828 0.99274 0.0745 Uiso
C5_9 C 0.344629 0.084820 0.412906 0.0621 Uiso
C6_9 C 0.342590 0.129224 0.54861 0.0621 Uiso
C7_9 C 0.344436 0.226336 0.586344 0.0621 Uiso
C8_9 C 0.354678 0.184716 0.472526 0.0621 Uiso
H2_9 H 0.370265 0.195506 0.34060 0.0745 Uiso
loop_
_geom_bond_atom_site_label_1
_geom_bond_atom_site_label_2
_geom_bond_site_symmetry_1
_geom_bond_site_symmetry_2
Ni1 O3 1_555 1_555
O1 C1 1_555 1_555
O2 C1 1_555 1_555
O3 C3 1_555 1_555
C1 C2 1_555 1_555
C2 C4 1_555 1_555
C3 C4 1_555 1_555
C4 H1 1_555 1_555
Ni4 O1 1_555 1_555
Ni7 O3 1_555 1_555
Ni8 O2 1_555 1_555
O8 Ni1 1_555 1_555
O10 Ni1 1_555 1_555
O12 Ni1 1_555 1_555
O13 Ni1 1_555 1_555
Ni7 O10 1_555 1_555
O8 C5 1_555 1_555
O5 C5 1_555 1_555
O6 C7 1_555 1_555
C5 C6 1_555 1_555
C8 C6 1_555 1_555
H2 C8 1_555 1_555
Ni4 O6 1_555 1_555
Ni5 O5 1_555 1_555
O9 Ni4 1_555 1_555
O11 Ni4 1_555 1_555
O14 Ni4 1_555 1_555
O6 Ni6 1_555 1_555
C7 C8 1_555 1_555
Ni6 O11 1_555 1_555
O1_2 C1_2 1_555 1_555
O2_2 C1_2 1_555 1_555
O3_2 C3_2 1_555 1_555
C1_2 C2_2 1_555 1_555
C2_2 C4_2 1_555 1_555
C3_2 C4_2 1_555 1_555
C4_2 H1_2 1_555 1_555
Ni4_2 O1_2 1_555 1_555
Ni7_2 O3_2 1_555 1_555
Ni8_2 O2_2 1_555 1_555
O11_2 Ni4_2 1_555 1_555
O14_2 Ni4_2 1_555 1_555
O8_2 Ni1_2 1_555 1_555
O10_2 Ni1_2 1_555 1_555
O13_2 Ni1_2 1_555 1_555
O8_2 C5_2 1_555 1_555
O5_2 C5_2 1_555 1_555
O6_2 C7_2 1_555 1_555
C5_2 C6_2 1_555 1_555
C8_2 C6_2 1_555 1_555
H2_2 C8_2 1_555 1_555
Ni5_2 O5_2 1_555 1_555
O6_2 Ni6_2 1_555 1_555
C7_2 C8_2 1_555 1_555
O8_3 Ni1_3 1_555 1_555
O10_3 Ni1_3 1_555 1_555
O13_3 Ni1_3 1_555 1_555
O8_3 C5_3 1_555 1_555
O5_3 C5_3 1_555 1_555
O6_3 C7_3 1_555 1_555
C5_3 C6_3 1_555 1_555
C8_3 C6_3 1_555 1_555
H2_3 C8_3 1_555 1_555
Ni5_3 O5_3 1_555 1_555
O6_3 Ni6_3 1_555 1_555
C7_3 C8_3 1_555 1_555
O1_3 C1_3 1_555 1_555
O2_3 C1_3 1_555 1_555
O3_3 C3_3 1_555 1_555
C1_3 C2_3 1_555 1_555
C2_3 C4_3 1_555 1_555
C3_3 C4_3 1_555 1_555
C4_3 H1_3 1_555 1_555
Ni4_3 O1_3 1_555 1_555
Ni7_3 O3_3 1_555 1_555
Ni8_3 O2_3 1_555 1_555
O11_3 Ni4_3 1_555 1_555
O14_3 Ni4_3 1_555 1_555
Ni5_2 O13_2 1_555 1_555
O1_4 C1_4 1_555 1_555
O9_3 C1_4 1_555 1_555
O13_2 C3_4 1_555 1_555
C1_4 C2_4 1_555 1_555
C2_4 C4_4 1_555 1_555
C3_4 C4_4 1_555 1_555
C4_4 H1_4 1_555 1_555
O10_2 C5_4 1_555 1_555
O6_4 C7_4 1_555 1_555
C5_4 C6_4 1_555 1_555
C6_4 C3_4 1_555 1_555
C7_4 C2_4 1_555 1_555
C8_4 C6_4 1_555 1_555
H2_4 C8_4 1_555 1_555
Ni6_3 O1_4 1_555 1_555
O8_4 Ni5_2 1_555 1_555
C7_4 C8_4 1_555 1_555
Ni5_3 O13_3 1_555 1_555
O1_5 C1_5 1_555 1_555
O9 C1_5 1_555 1_555
O13_3 C3_5 1_555 1_555
C1_5 C2_5 1_555 1_555
C2_5 C4_5 1_555 1_555
C3_5 C4_5 1_555 1_555
C4_5 H1_5 1_555 1_555
O10_3 C5_5 1_555 1_555
O6_5 C7_5 1_555 1_555
C5_5 C6_5 1_555 1_555
C6_5 C3_5 1_555 1_555
C7_5 C2_5 1_555 1_555
C8_5 C6_5 1_555 1_555
H2_5 C8_5 1_555 1_555
Ni6 O1_5 1_555 1_555
Ni8 O9 1_555 1_555
O8_5 Ni5_3 1_555 1_555
O6_5 Ni8 1_555 1_555
C7_5 C8_5 1_555 1_555
Ni5 O13 1_555 1_555
O1_6 C1_6 1_555 1_555
O9_2 C1_6 1_555 1_555
O13 C3_6 1_555 1_555
C1_6 C2_6 1_555 1_555
C2_6 C4_6 1_555 1_555
C3_6 C4_6 1_555 1_555
C4_6 H1_6 1_555 1_555
O10 C5_6 1_555 1_555
O6_6 C7_6 1_555 1_555
C5_6 C6_6 1_555 1_555
C6_6 C3_6 1_555 1_555
C7_6 C2_6 1_555 1_555
C8_6 C6_6 1_555 1_555
H2_6 C8_6 1_555 1_555
Ni6_2 O1_6 1_555 1_555
O8_6 Ni5 1_555 1_555
O12 Ni5 1_555 1_555
O13_6 Ni5 1_555 1_555
C7_6 C8_6 1_555 1_555
Ni8_2 O1_7 1_555 1_555
O8_7 Ni7_3 1_555 1_555
O11_2 C1_7 1_555 1_555
O13_5 C3_7 1_555 1_555
C1_7 C2_7 1_555 1_555
C2_7 C4_7 1_555 1_555
C3_7 C4_7 1_555 1_555
C4_7 H1_7 1_555 1_555
O8_7 C5_7 1_555 1_555
O12_3 C5_7 1_555 1_555
O14_2 C7_7 1_555 1_555
C5_7 C6_7 1_555 1_555
C6_7 C3_7 1_555 1_555
C7_7 C2_7 1_555 1_555
C8_7 C6_7 1_555 1_555
H2_7 C8_7 1_555 1_555
Ni8_2 O14_2 1_555 1_555
C7_7 C8_7 1_555 1_555
Ni8_3 O1_8 1_555 1_555
O8_8 Ni7 1_555 1_555
O11_3 C1_8 1_555 1_555
O13_6 C3_8 1_555 1_555
C1_8 C2_8 1_555 1_555
C2_8 C4_8 1_555 1_555
C3_8 C4_8 1_555 1_555
C4_8 H1_8 1_555 1_555
O8_8 C5_8 1_555 1_555
O12 C5_8 1_555 1_555
O14_3 C7_8 1_555 1_555
C5_8 C6_8 1_555 1_555
C6_8 C3_8 1_555 1_555
C7_8 C2_8 1_555 1_555
C8_8 C6_8 1_555 1_555
H2_8 C8_8 1_555 1_555
Ni8_3 O14_3 1_555 1_555
C7_8 C8_8 1_555 1_555
Ni8 O1_9 1_555 1_555
O8_9 Ni7_2 1_555 1_555
O11 C1_9 1_555 1_555
O13_4 C3_9 1_555 1_555
C1_9 C2_9 1_555 1_555
C2_9 C4_9 1_555 1_555
C3_9 C4_9 1_555 1_555
C4_9 H1_9 1_555 1_555
O8_9 C5_9 1_555 1_555
O12_2 C5_9 1_555 1_555
O14 C7_9 1_555 1_555
C5_9 C6_9 1_555 1_555
C6_9 C3_9 1_555 1_555
C7_9 C2_9 1_555 1_555
C8_9 C6_9 1_555 1_555
H2_9 C8_9 1_555 1_555
Ni8 O14 1_555 1_555
C7_9 C8_9 1_555 1_555

#END
