
###############################################################################
#
# This file contains modified crystal structure data generated from the
# MOF subset of the Cambridge Structural Database (CSD) v543 
# hosted by the Cambridge Crystallographic Data Centre (CCDC).
#
# This work is licensed under the Creative Commons
# Attribution-NonCommercial-ShareAlike 4.0 International License.
# To view a copy of this license, visit
# http://creativecommons.org/licenses/by-nc-sa/4.0/
# or send a letter to
# Creative Commons, PO Box 1866, Mountain View, CA 94042, USA.
#
# CIF created using the CSD Python API on 29 September 2022
# The structure has been converted into the P1 space group
# The structure has a 3D framework
# The original CSD entry ARADEE is in the monoclinic crystal system
# The framework has been calculated to contain at least 10.0% void space
# The void calculation uses a probe of radius 1.32A, grid spacing 0.4
# The framework is charged, counterions have been retained in the structure
#
###############################################################################

data_ARADEE
_chemical_formula_moiety         '(C128 H112 Cd14 N22 O56 2-)n'
_symmetry_cell_setting           triclinic
_symmetry_space_group_name_H-M   'P 1'
_symmetry_Int_Tables_number      1
_space_group_name_Hall           'P 1'
loop_
_symmetry_equiv_pos_site_id
_symmetry_equiv_pos_as_xyz
1 x,y,z
_cell_length_a                   21.7899(9)
_cell_length_b                   16.6337(10)
_cell_length_c                   13.5149(7)
_cell_angle_alpha                90
_cell_angle_beta                 93.816(4)
_cell_angle_gamma                90
_cell_volume                     4887.57
loop_
_atom_site_label
_atom_site_type_symbol
_atom_site_fract_x
_atom_site_fract_y
_atom_site_fract_z
Cd1 Cd 0.5000 0.13271(3) 0.2500
Cd2 Cd 0.643319(14) 0.249554(18) 0.26697(2)
C1 C 0.58457(19) 0.1111(3) 0.4147(3)
C3 C 0.7677(2) 0.1496(3) 0.6549(4)
C4 C 0.62431(19) 0.0825(3) 0.5047(3)
C5 C 0.61005(18) 0.0106(3) 0.5520(3)
C7 C 0.69830(19) 0.0296(3) 0.6646(3)
H2 H 0.7237 0.0114 0.7179
C8 C 0.71218(18) 0.1015(3) 0.6195(3)
C9 C 0.67440(19) 0.1278(3) 0.5390(3)
H3 H 0.6829 0.1762 0.5082
C10 C 0.5314(2) 0.3918(3) 0.2509(3)
C11 C 0.5659(2) 0.4641(3) 0.2509(4)
H4 H 0.6086 0.4641 0.2514
C12 C 0.5329(2) 0.5333(3) 0.2500(5)
H5 H 0.5536 0.5822 0.2494
N1 N 0.5000 0.2704(3) 0.2500
N2 N 0.55048(15) 0.3143(2) 0.2511(3)
O1 O 0.58995(14) 0.1829(2) 0.3894(2)
O2 O 0.54867(15) 0.0621(2) 0.3727(3)
O5 O 0.80588(18) 0.1168(3) 0.7154(4)
O6 O 0.77364(18) 0.2184(2) 0.6258(3)
O7 O 0.6803(4) 0.2749(5) 0.1173(5)
N3 N 0.6924(6) 0.3736(7) 0.0128(7)
C13 C 0.6622(6) 0.3091(7) 0.0673(9)
C14 C 0.6039(7) 0.3409(10) 0.0078(8)
H6 H 0.5689 0.3098 0.0242
H8 H 0.5975 0.3963 0.0241
C16 C 0.7561(6) 0.3688(10) 0.0577(11)
H12 H 0.7572 0.3344 0.1148
H13 H 0.7700 0.4216 0.0772
H14 H 0.7825 0.3473 0.0101
C17 C 0.4686(2) 0.3918(3) 0.2491(3)
C18 C 0.4341(2) 0.4641(3) 0.2491(4)
H15 H 0.3914 0.4641 0.2486
C19 C 0.4671(2) 0.5333(3) 0.2500(5)
H16 H 0.4464 0.5822 0.2506
N4 N 0.44952(15) 0.3143(2) 0.2489(3)
Cd3 Cd 0.356681(14) 0.249554(18) 0.23303(2)
C20 C 0.41543(19) 0.1111(3) 0.0853(3)
O8 O 0.41005(14) 0.1829(2) 0.1106(2)
O9 O 0.45133(15) 0.0621(2) 0.1273(3)
O14 O 0.3197(4) 0.2749(5) 0.3827(5)
N5 N 0.3076(6) 0.3736(7) 0.4872(7)
C29 C 0.3378(6) 0.3091(7) 0.4327(9)
C30 C 0.3961(7) 0.3409(10) 0.4922(8)
H20 H 0.4311 0.3098 0.4758
H21 H 0.3908 0.3362 0.5620
H22 H 0.4025 0.3963 0.4759
C31 C 0.3135(7) 0.4250(9) 0.5767(9)
H23 H 0.3558 0.4266 0.6018
H24 H 0.2888 0.4034 0.6265
H25 H 0.2999 0.4785 0.5598
C32 C 0.2439(6) 0.3688(10) 0.4423(11)
H26 H 0.2428 0.3344 0.3852
H27 H 0.2300 0.4216 0.4228
H28 H 0.2175 0.3473 0.4899
Cd8 Cd 0.856681(14) 0.250446(18) 0.73303(2)
O15 O 0.41392(15) 0.1312(2) 0.3407(2)
O16 O 0.58608(15) 0.1312(2) 0.1593(2)
O17 O 0.32180(16) 0.1246(2) 0.2641(3)
O18 O 0.67820(16) 0.1246(2) 0.2359(3)
O19 O 0.69412(18) 0.3832(3) 0.2846(4)
O20 O 0.30588(18) 0.3832(3) 0.2154(4)
O21 O 0.72636(18) 0.2816(2) 0.3742(3)
O22 O 0.27364(18) 0.2816(2) 0.1258(3)
H7 H 0.6092 0.3362 0.9380
C15 C 0.6865(7) 0.4250(9) 0.9233(9)
H9 H 0.6442 0.4266 0.8982
H10 H 0.7112 0.4034 0.8735
H11 H 0.7001 0.4785 0.9402
C22 C 0.2323(2) 0.1496(3) 0.8451(4)
C23 C 0.37569(19) 0.0825(3) 0.9953(3)
C24 C 0.38995(18) 0.0106(3) 0.9480(3)
C26 C 0.30170(19) 0.0296(3) 0.8354(3)
H18 H 0.2763 0.0114 0.7821
C27 C 0.28782(18) 0.1015(3) 0.8805(3)
C28 C 0.32560(19) 0.1278(3) 0.9610(3)
H19 H 0.3171 0.1762 0.9918
O12 O 0.19412(18) 0.1168(3) 0.7846(4)
O13 O 0.22636(18) 0.2184(2) 0.8742(3)
Cd9 Cd 0.143319(14) 0.250446(18) 0.76697(2)
C2 C 0.6360(2) 0.9046(3) 0.6799(3)
H1 H 0.5757 0.9808 0.5298
C6 C 0.64778(18) 0.9843(3) 0.6326(3)
O3 O 0.58608(15) 0.8688(2) 0.6593(2)
O4 O 0.67820(16) 0.8754(2) 0.7359(3)
Cd5 Cd 0.5000 0.86729(3) 0.7500
Cd7 Cd 0.643319(14) 0.750446(18) 0.76697(2)
C21 C 0.3640(2) 0.9046(3) 0.8201(3)
H17 H 0.4243 0.9808 0.9702
C25 C 0.35222(18) 0.9843(3) 0.8674(3)
O10 O 0.41392(15) 0.8688(2) 0.8407(2)
O11 O 0.32180(16) 0.8754(2) 0.7641(3)
Cd6 Cd 0.356681(14) 0.750446(18) 0.73303(2)
Cd1_2 Cd 0.0000 0.63271(3) 0.2500
Cd2_2 Cd 0.143319(14) 0.749554(18) 0.26697(2)
C1_2 C 0.08457(19) 0.6111(3) 0.4147(3)
C2_2 C 0.1360(2) 0.4046(3) 0.6799(3)
C3_2 C 0.2677(2) 0.6496(3) 0.6549(4)
C4_2 C 0.12431(19) 0.5825(3) 0.5047(3)
C5_2 C 0.11005(18) 0.5106(3) 0.5520(3)
H1_2 H 0.0757 0.4808 0.5298
C6_2 C 0.14778(18) 0.4843(3) 0.6326(3)
C7_2 C 0.19830(19) 0.5296(3) 0.6646(3)
H2_2 H 0.2237 0.5114 0.7179
C8_2 C 0.21218(18) 0.6015(3) 0.6195(3)
C9_2 C 0.17440(19) 0.6278(3) 0.5390(3)
H3_2 H 0.1829 0.6762 0.5082
C10_2 C 0.0314(2) 0.8918(3) 0.2509(3)
C11_2 C 0.0659(2) 0.9641(3) 0.2509(4)
H4_2 H 0.1086 0.9641 0.2514
N1_2 N 0.0000 0.7704(3) 0.2500
N2_2 N 0.05048(15) 0.8143(2) 0.2511(3)
O1_2 O 0.08995(14) 0.6829(2) 0.3894(2)
O2_2 O 0.04867(15) 0.5621(2) 0.3727(3)
O3_2 O 0.08608(15) 0.3688(2) 0.6593(2)
O4_2 O 0.17820(16) 0.3754(2) 0.7359(3)
O5_2 O 0.30588(18) 0.6168(3) 0.7154(4)
O6_2 O 0.27364(18) 0.7184(2) 0.6258(3)
O7_2 O 0.1803(4) 0.7749(5) 0.1173(5)
N3_2 N 0.1924(6) 0.8736(7) 0.0128(7)
C13_2 C 0.1622(6) 0.8091(7) 0.0673(9)
C14_2 C 0.1039(7) 0.8409(10) 0.0078(8)
H6_2 H 0.0689 0.8098 0.0242
H8_2 H 0.0975 0.8963 0.0241
C16_2 C 0.2561(6) 0.8688(10) 0.0577(11)
H12_2 H 0.2572 0.8344 0.1148
H13_2 H 0.2700 0.9216 0.0772
H14_2 H 0.2825 0.8473 0.0101
Cd5_2 Cd 0.0000 0.36729(3) 0.7500
O16_2 O 0.08608(15) 0.6312(2) 0.1593(2)
O18_2 O 0.17820(16) 0.6246(2) 0.2359(3)
O19_2 O 0.19412(18) 0.8832(3) 0.2846(4)
O21_2 O 0.22636(18) 0.7816(2) 0.3742(3)
H7_2 H 0.1092 0.8362 0.9380
C15_2 C 0.1865(7) 0.9250(9) 0.9233(9)
H9_2 H 0.1442 0.9266 0.8982
H10_2 H 0.2112 0.9034 0.8735
H11_2 H 0.2001 0.9785 0.9402
Cd1_3 Cd 1.0000 0.63271(3) 0.2500
N1_3 N 1.0000 0.7704(3) 0.2500
C17_2 C 0.9686(2) 0.8918(3) 0.2491(3)
C18_2 C 0.9341(2) 0.9641(3) 0.2491(4)
H15_2 H 0.8914 0.9641 0.2486
N4_2 N 0.94952(15) 0.8143(2) 0.2489(3)
Cd3_2 Cd 0.856681(14) 0.749554(18) 0.23303(2)
C20_2 C 0.91543(19) 0.6111(3) 0.0853(3)
O8_2 O 0.91005(14) 0.6829(2) 0.1106(2)
O9_2 O 0.95133(15) 0.5621(2) 0.1273(3)
O14_2 O 0.8197(4) 0.7749(5) 0.3827(5)
N5_2 N 0.8076(6) 0.8736(7) 0.4872(7)
C29_2 C 0.8378(6) 0.8091(7) 0.4327(9)
C30_2 C 0.8961(7) 0.8409(10) 0.4922(8)
H20_2 H 0.9311 0.8098 0.4758
H21_2 H 0.8908 0.8362 0.5620
H22_2 H 0.9025 0.8963 0.4759
C31_2 C 0.8135(7) 0.9250(9) 0.5767(9)
H23_2 H 0.8558 0.9266 0.6018
H24_2 H 0.7888 0.9034 0.6265
H25_2 H 0.7999 0.9785 0.5598
C32_2 C 0.7439(6) 0.8688(10) 0.4423(11)
H26_2 H 0.7428 0.8344 0.3852
H27_2 H 0.7300 0.9216 0.4228
H28_2 H 0.7175 0.8473 0.4899
Cd5_3 Cd 1.0000 0.36729(3) 0.7500
O15_2 O 0.91392(15) 0.6312(2) 0.3407(2)
O17_2 O 0.82180(16) 0.6246(2) 0.2641(3)
O20_2 O 0.80588(18) 0.8832(3) 0.2154(4)
O22_2 O 0.77364(18) 0.7816(2) 0.1258(3)
C21_2 C 0.8640(2) 0.4046(3) 0.8201(3)
C22_2 C 0.7323(2) 0.6496(3) 0.8451(4)
C23_2 C 0.87569(19) 0.5825(3) 0.9953(3)
C24_2 C 0.88995(18) 0.5106(3) 0.9480(3)
H17_2 H 0.9243 0.4808 0.9702
C25_2 C 0.85222(18) 0.4843(3) 0.8674(3)
C26_2 C 0.80170(19) 0.5296(3) 0.8354(3)
H18_2 H 0.7763 0.5114 0.7821
C27_2 C 0.78782(18) 0.6015(3) 0.8805(3)
C28_2 C 0.82560(19) 0.6278(3) 0.9610(3)
H19_2 H 0.8171 0.6762 0.9918
O10_2 O 0.91392(15) 0.3688(2) 0.8407(2)
O11_2 O 0.82180(16) 0.3754(2) 0.7641(3)
O12_2 O 0.69412(18) 0.6168(3) 0.7846(4)
O13_2 O 0.72636(18) 0.7184(2) 0.8742(3)
C21_3 C 0.6360(2) 0.0954(3) 0.1799(3)
H17_3 H 0.5757 0.0192 0.0298
C25_3 C 0.64778(18) 0.0157(3) 0.1326(3)
C2_3 C 0.3640(2) 0.0954(3) 0.3201(3)
H1_3 H 0.4243 0.0192 0.4702
C6_3 C 0.35222(18) 0.0157(3) 0.3674(3)
H7_3 H 0.3908 0.6638 0.0620
C15_3 C 0.3135(7) 0.5750(9) 0.0767(9)
H9_3 H 0.3558 0.5734 0.1018
H10_3 H 0.2888 0.5966 0.1265
H11_3 H 0.2999 0.5215 0.0598
C22_3 C 0.7677(2) 0.8504(3) 0.1549(4)
C23_3 C 0.62431(19) 0.9175(3) 0.0047(3)
C24_3 C 0.61005(18) 0.9894(3) 0.0520(3)
C26_3 C 0.69830(19) 0.9704(3) 0.1646(3)
H18_3 H 0.7237 0.9886 0.2179
C27_3 C 0.71218(18) 0.8985(3) 0.1195(3)
C28_3 C 0.67440(19) 0.8722(3) 0.0390(3)
H19_3 H 0.6829 0.8238 0.0082
C1_3 C 0.41543(19) 0.8889(3) 0.5853(3)
C3_3 C 0.2323(2) 0.8504(3) 0.3451(4)
C4_3 C 0.37569(19) 0.9175(3) 0.4953(3)
C5_3 C 0.38995(18) 0.9894(3) 0.4480(3)
C7_3 C 0.30170(19) 0.9704(3) 0.3354(3)
H2_3 H 0.2763 0.9886 0.2821
C8_3 C 0.28782(18) 0.8985(3) 0.3805(3)
C9_3 C 0.32560(19) 0.8722(3) 0.4610(3)
H3_3 H 0.3171 0.8238 0.4918
C10_3 C 0.4686(2) 0.6082(3) 0.7491(3)
C11_3 C 0.4341(2) 0.5359(3) 0.7491(4)
H4_3 H 0.3914 0.5359 0.7486
C12_2 C 0.4671(2) 0.4667(3) 0.7500(5)
H5_2 H 0.4464 0.4178 0.7506
N1_4 N 0.5000 0.7296(3) 0.7500
N2_3 N 0.44952(15) 0.6857(2) 0.7489(3)
O1_3 O 0.41005(14) 0.8171(2) 0.6106(2)
O2_3 O 0.45133(15) 0.9379(2) 0.6273(3)
O7_3 O 0.3197(4) 0.7251(5) 0.8827(5)
N3_3 N 0.3076(6) 0.6264(7) 0.9872(7)
C13_3 C 0.3378(6) 0.6909(7) 0.9327(9)
C14_3 C 0.3961(7) 0.6591(10) 0.9922(8)
H6_3 H 0.4311 0.6902 0.9758
H8_3 H 0.4025 0.6037 0.9759
C16_3 C 0.2439(6) 0.6312(10) 0.9423(11)
H12_3 H 0.2428 0.6656 0.8852
H13_3 H 0.2300 0.5784 0.9228
H14_3 H 0.2175 0.6527 0.9899
C17_3 C 0.5314(2) 0.6082(3) 0.7509(3)
C18_3 C 0.5659(2) 0.5359(3) 0.7509(4)
H15_3 H 0.6086 0.5359 0.7514
C19_2 C 0.5329(2) 0.4667(3) 0.7500(5)
H16_2 H 0.5536 0.4178 0.7494
N4_3 N 0.55048(15) 0.6857(2) 0.7511(3)
C20_3 C 0.58457(19) 0.8889(3) 0.9147(3)
O8_3 O 0.58995(14) 0.8171(2) 0.8894(2)
O9_3 O 0.54867(15) 0.9379(2) 0.8727(3)
O14_3 O 0.6803(4) 0.7251(5) 0.6173(5)
N5_3 N 0.6924(6) 0.6264(7) 0.5128(7)
C29_3 C 0.6622(6) 0.6909(7) 0.5673(9)
C30_3 C 0.6039(7) 0.6591(10) 0.5078(8)
H20_3 H 0.5689 0.6902 0.5242
H21_3 H 0.6092 0.6638 0.4380
H22_3 H 0.5975 0.6037 0.5241
C31_3 C 0.6865(7) 0.5750(9) 0.4233(9)
H23_3 H 0.6442 0.5734 0.3982
H24_3 H 0.7112 0.5966 0.3735
H25_3 H 0.7001 0.5215 0.4402
C32_3 C 0.7561(6) 0.6312(10) 0.5577(11)
H26_3 H 0.7572 0.6656 0.6148
H27_3 H 0.7700 0.5784 0.5772
H28_3 H 0.7825 0.6527 0.5101
C21_4 C 0.1360(2) 0.5954(3) 0.1799(3)
C22_4 C 0.2677(2) 0.3504(3) 0.1549(4)
C23_4 C 0.12431(19) 0.4175(3) 0.0047(3)
C24_4 C 0.11005(18) 0.4894(3) 0.0520(3)
H17_4 H 0.0757 0.5192 0.0298
C25_4 C 0.14778(18) 0.5157(3) 0.1326(3)
C26_4 C 0.19830(19) 0.4704(3) 0.1646(3)
H18_4 H 0.2237 0.4886 0.2179
C27_4 C 0.21218(18) 0.3985(3) 0.1195(3)
C28_4 C 0.17440(19) 0.3722(3) 0.0390(3)
H19_4 H 0.1829 0.3238 0.0082
N1_5 N -0.0000 0.2296(3) 0.7500
C17_4 C 0.0314(2) 0.1082(3) 0.7509(3)
C18_4 C 0.0659(2) 0.0359(3) 0.7509(4)
H15_4 H 0.1086 0.0359 0.7514
N4_4 N 0.05048(15) 0.1857(2) 0.7511(3)
C20_4 C 0.08457(19) 0.3889(3) 0.9147(3)
O8_4 O 0.08995(14) 0.3171(2) 0.8894(2)
O9_4 O 0.04867(15) 0.4379(2) 0.8727(3)
O14_4 O 0.1803(4) 0.2251(5) 0.6173(5)
N5_4 N 0.1924(6) 0.1264(7) 0.5128(7)
C29_4 C 0.1622(6) 0.1909(7) 0.5673(9)
C30_4 C 0.1039(7) 0.1591(10) 0.5078(8)
H20_4 H 0.0689 0.1902 0.5242
H21_4 H 0.1092 0.1638 0.4380
H22_4 H 0.0975 0.1037 0.5241
C31_4 C 0.1865(7) 0.0750(9) 0.4233(9)
H23_4 H 0.1442 0.0734 0.3982
H24_4 H 0.2112 0.0966 0.3735
H25_4 H 0.2001 0.0215 0.4402
C32_4 C 0.2561(6) 0.1312(10) 0.5577(11)
H26_4 H 0.2572 0.1656 0.6148
H27_4 H 0.2700 0.0784 0.5772
H28_4 H 0.2825 0.1527 0.5101
H7_4 H 0.8908 0.1638 0.0620
C15_4 C 0.8135(7) 0.0750(9) 0.0767(9)
H9_4 H 0.8558 0.0734 0.1018
H10_4 H 0.7888 0.0966 0.1265
H11_4 H 0.7999 0.0215 0.0598
C1_4 C 0.91543(19) 0.3889(3) 0.5853(3)
C2_4 C 0.8640(2) 0.5954(3) 0.3201(3)
C3_4 C 0.7323(2) 0.3504(3) 0.3451(4)
C4_4 C 0.87569(19) 0.4175(3) 0.4953(3)
C5_4 C 0.88995(18) 0.4894(3) 0.4480(3)
H1_4 H 0.9243 0.5192 0.4702
C6_4 C 0.85222(18) 0.5157(3) 0.3674(3)
C7_4 C 0.80170(19) 0.4704(3) 0.3354(3)
H2_4 H 0.7763 0.4886 0.2821
C8_4 C 0.78782(18) 0.3985(3) 0.3805(3)
C9_4 C 0.82560(19) 0.3722(3) 0.4610(3)
H3_4 H 0.8171 0.3238 0.4918
C10_4 C 0.9686(2) 0.1082(3) 0.7491(3)
C11_4 C 0.9341(2) 0.0359(3) 0.7491(4)
H4_4 H 0.8914 0.0359 0.7486
N1_6 N 1.0000 0.2296(3) 0.7500
N2_4 N 0.94952(15) 0.1857(2) 0.7489(3)
O1_4 O 0.91005(14) 0.3171(2) 0.6106(2)
O2_4 O 0.95133(15) 0.4379(2) 0.6273(3)
O7_4 O 0.8197(4) 0.2251(5) 0.8827(5)
N3_4 N 0.8076(6) 0.1264(7) 0.9872(7)
C13_4 C 0.8378(6) 0.1909(7) 0.9327(9)
C14_4 C 0.8961(7) 0.1591(10) 0.9922(8)
H6_4 H 0.9311 0.1902 0.9758
H8_4 H 0.9025 0.1037 0.9759
C16_4 C 0.7439(6) 0.1312(10) 0.9423(11)
H12_4 H 0.7428 0.1656 0.8852
H13_4 H 0.7300 0.0784 0.9228
H14_4 H 0.7175 0.1527 0.9899
C12_3 C 0.0329(2) 0.0333(3) 0.2500(5)
H5_3 H 0.0536 0.0822 0.2494
C19_3 C 0.9671(2) 0.0333(3) 0.2500(5)
H16_3 H 0.9464 0.0822 0.2506
C19_4 C 0.0329(2) 0.9667(3) 0.7500(5)
H16_4 H 0.0536 0.9178 0.7494
C12_4 C 0.9671(2) 0.9667(3) 0.7500(5)
H5_4 H 0.9464 0.9178 0.7506
loop_
_geom_bond_atom_site_label_1
_geom_bond_atom_site_label_2
_geom_bond_site_symmetry_1
_geom_bond_site_symmetry_2
Cd1 N1 1_555 1_555
Cd2 N2 1_555 1_555
C1 C4 1_555 1_555
C3 C8 1_555 1_555
C4 C5 1_555 1_555
H2 C7 1_555 1_555
C8 C7 1_555 1_555
C9 C4 1_555 1_555
H3 C9 1_555 1_555
C10 C11 1_555 1_555
C11 H4 1_555 1_555
C12 C11 1_555 1_555
H5 C12 1_555 1_555
N1 N2 1_555 1_555
N2 C10 1_555 1_555
O1 Cd1 1_555 1_555
O2 Cd1 1_555 1_555
O5 C3 1_555 1_555
O6 C3 1_555 1_555
O7 Cd2 1_555 1_555
N3 C13 1_555 1_555
C13 O7 1_555 1_555
C14 C13 1_555 1_555
H6 C14 1_555 1_555
H8 C14 1_555 1_555
C16 N3 1_555 1_555
H12 C16 1_555 1_555
H13 C16 1_555 1_555
H14 C16 1_555 1_555
C17 C10 1_555 1_555
C18 C17 1_555 1_555
H15 C18 1_555 1_555
C19 C12 1_555 1_555
H16 C19 1_555 1_555
N4 N1 1_555 1_555
Cd3 N4 1_555 1_555
O8 Cd1 1_555 1_555
O9 Cd1 1_555 1_555
O14 Cd3 1_555 1_555
N5 C29 1_555 1_555
C29 O14 1_555 1_555
C30 C29 1_555 1_555
H20 C30 1_555 1_555
H21 C30 1_555 1_555
H22 C30 1_555 1_555
C31 N5 1_555 1_555
H23 C31 1_555 1_555
H24 C31 1_555 1_555
H25 C31 1_555 1_555
C32 N5 1_555 1_555
H26 C32 1_555 1_555
H27 C32 1_555 1_555
H28 C32 1_555 1_555
Cd8 O5 1_555 1_555
O15 Cd1 1_555 1_555
O16 Cd1 1_555 1_555
O17 Cd3 1_555 1_555
O18 Cd2 1_555 1_555
O19 Cd2 1_555 1_555
O20 Cd3 1_555 1_555
O21 Cd2 1_555 1_555
O22 Cd3 1_555 1_555
Cd2 O1 1_555 1_555
Cd2 O16 1_555 1_555
C1 O1 1_555 1_555
C1 O2 1_555 1_555
C8 C9 1_555 1_555
O6 Cd8 1_555 1_555
C17 N4 1_555 1_555
C18 C19 1_555 1_555
Cd3 O8 1_555 1_555
Cd3 O15 1_555 1_555
C20 O8 1_555 1_555
C20 O9 1_555 1_555
H9 C15 1_555 1_555
H10 C15 1_555 1_555
H11 C15 1_555 1_555
C22 C27 1_555 1_555
C23 C24 1_555 1_555
H18 C26 1_555 1_555
C27 C26 1_555 1_555
C28 C23 1_555 1_555
H19 C28 1_555 1_555
O12 C22 1_555 1_555
O13 C22 1_555 1_555
Cd9 O12 1_555 1_555
C27 C28 1_555 1_555
O13 Cd9 1_555 1_555
C2 C6 1_555 1_555
O3 C2 1_555 1_555
O4 C2 1_555 1_555
Cd5 O3 1_555 1_555
Cd7 O3 1_555 1_555
O4 Cd7 1_555 1_555
C21 C25 1_555 1_555
O10 C21 1_555 1_555
O11 C21 1_555 1_555
Cd5 O10 1_555 1_555
Cd6 O10 1_555 1_555
O11 Cd6 1_555 1_555
Cd1_2 N1_2 1_555 1_555
Cd2_2 N2_2 1_555 1_555
C1_2 C4_2 1_555 1_555
C2_2 C6_2 1_555 1_555
C3_2 C8_2 1_555 1_555
C4_2 C5_2 1_555 1_555
C5_2 H1_2 1_555 1_555
C6_2 C5_2 1_555 1_555
C7_2 C6_2 1_555 1_555
H2_2 C7_2 1_555 1_555
C8_2 C7_2 1_555 1_555
C9_2 C4_2 1_555 1_555
H3_2 C9_2 1_555 1_555
C10_2 C11_2 1_555 1_555
C11_2 H4_2 1_555 1_555
N1_2 N2_2 1_555 1_555
N2_2 C10_2 1_555 1_555
O1_2 Cd1_2 1_555 1_555
O2_2 Cd1_2 1_555 1_555
O3_2 C2_2 1_555 1_555
O4_2 C2_2 1_555 1_555
O5_2 C3_2 1_555 1_555
O6_2 C3_2 1_555 1_555
O7_2 Cd2_2 1_555 1_555
N3_2 C13_2 1_555 1_555
C13_2 O7_2 1_555 1_555
C14_2 C13_2 1_555 1_555
H6_2 C14_2 1_555 1_555
H8_2 C14_2 1_555 1_555
C16_2 N3_2 1_555 1_555
H12_2 C16_2 1_555 1_555
H13_2 C16_2 1_555 1_555
H14_2 C16_2 1_555 1_555
Cd5_2 O3_2 1_555 1_555
Cd9 O3_2 1_555 1_555
Cd6 O5_2 1_555 1_555
O16_2 Cd1_2 1_555 1_555
O18_2 Cd2_2 1_555 1_555
O19_2 Cd2_2 1_555 1_555
O21_2 Cd2_2 1_555 1_555
Cd2_2 O1_2 1_555 1_555
Cd2_2 O16_2 1_555 1_555
C1_2 O1_2 1_555 1_555
C1_2 O2_2 1_555 1_555
C8_2 C9_2 1_555 1_555
O4_2 Cd9 1_555 1_555
O6_2 Cd6 1_555 1_555
H9_2 C15_2 1_555 1_555
H10_2 C15_2 1_555 1_555
H11_2 C15_2 1_555 1_555
Cd1_3 N1_3 1_555 1_555
C18_2 C17_2 1_555 1_555
H15_2 C18_2 1_555 1_555
N4_2 N1_3 1_555 1_555
Cd3_2 N4_2 1_555 1_555
O8_2 Cd1_3 1_555 1_555
O9_2 Cd1_3 1_555 1_555
O14_2 Cd3_2 1_555 1_555
N5_2 C29_2 1_555 1_555
C29_2 O14_2 1_555 1_555
C30_2 C29_2 1_555 1_555
H20_2 C30_2 1_555 1_555
H21_2 C30_2 1_555 1_555
H22_2 C30_2 1_555 1_555
C31_2 N5_2 1_555 1_555
H23_2 C31_2 1_555 1_555
H24_2 C31_2 1_555 1_555
H25_2 C31_2 1_555 1_555
C32_2 N5_2 1_555 1_555
H26_2 C32_2 1_555 1_555
H27_2 C32_2 1_555 1_555
H28_2 C32_2 1_555 1_555
O15_2 Cd1_3 1_555 1_555
O17_2 Cd3_2 1_555 1_555
O20_2 Cd3_2 1_555 1_555
O22_2 Cd3_2 1_555 1_555
C17_2 N4_2 1_555 1_555
Cd3_2 O8_2 1_555 1_555
Cd3_2 O15_2 1_555 1_555
C20_2 O8_2 1_555 1_555
C20_2 O9_2 1_555 1_555
C21_2 C25_2 1_555 1_555
C22_2 C27_2 1_555 1_555
C23_2 C24_2 1_555 1_555
C24_2 H17_2 1_555 1_555
C25_2 C24_2 1_555 1_555
C26_2 C25_2 1_555 1_555
H18_2 C26_2 1_555 1_555
C27_2 C26_2 1_555 1_555
C28_2 C23_2 1_555 1_555
H19_2 C28_2 1_555 1_555
O10_2 C21_2 1_555 1_555
O11_2 C21_2 1_555 1_555
O12_2 C22_2 1_555 1_555
O13_2 C22_2 1_555 1_555
Cd5_3 O10_2 1_555 1_555
Cd8 O10_2 1_555 1_555
Cd7 O12_2 1_555 1_555
C27_2 C28_2 1_555 1_555
O11_2 Cd8 1_555 1_555
O13_2 Cd7 1_555 1_555
C21_3 C25_3 1_555 1_555
O16 C21_3 1_555 1_555
O18 C21_3 1_555 1_555
C2_3 C6_3 1_555 1_555
O15 C2_3 1_555 1_555
O17 C2_3 1_555 1_555
H9_3 C15_3 1_555 1_555
H10_3 C15_3 1_555 1_555
H11_3 C15_3 1_555 1_555
C22_3 C27_3 1_555 1_555
C23_3 C24_3 1_555 1_555
H18_3 C26_3 1_555 1_555
C27_3 C26_3 1_555 1_555
C28_3 C23_3 1_555 1_555
H19_3 C28_3 1_555 1_555
O20_2 C22_3 1_555 1_555
O22_2 C22_3 1_555 1_555
C27_3 C28_3 1_555 1_555
Cd5 N1_4 1_555 1_555
Cd6 N2_3 1_555 1_555
C1_3 C4_3 1_555 1_555
C3_3 C8_3 1_555 1_555
C4_3 C5_3 1_555 1_555
H2_3 C7_3 1_555 1_555
C8_3 C7_3 1_555 1_555
C9_3 C4_3 1_555 1_555
H3_3 C9_3 1_555 1_555
C10_3 C11_3 1_555 1_555
C11_3 H4_3 1_555 1_555
C12_2 C11_3 1_555 1_555
H5_2 C12_2 1_555 1_555
N1_4 N2_3 1_555 1_555
N2_3 C10_3 1_555 1_555
O1_3 Cd5 1_555 1_555
O2_3 Cd5 1_555 1_555
O19_2 C3_3 1_555 1_555
O21_2 C3_3 1_555 1_555
O7_3 Cd6 1_555 1_555
N3_3 C13_3 1_555 1_555
C13_3 O7_3 1_555 1_555
C14_3 C13_3 1_555 1_555
H6_3 C14_3 1_555 1_555
H8_3 C14_3 1_555 1_555
C16_3 N3_3 1_555 1_555
H12_3 C16_3 1_555 1_555
H13_3 C16_3 1_555 1_555
H14_3 C16_3 1_555 1_555
C17_3 C10_3 1_555 1_555
C18_3 C17_3 1_555 1_555
H15_3 C18_3 1_555 1_555
C19_2 C12_2 1_555 1_555
H16_2 C19_2 1_555 1_555
N4_3 N1_4 1_555 1_555
Cd7 N4_3 1_555 1_555
O8_3 Cd5 1_555 1_555
O9_3 Cd5 1_555 1_555
O14_3 Cd7 1_555 1_555
N5_3 C29_3 1_555 1_555
C29_3 O14_3 1_555 1_555
C30_3 C29_3 1_555 1_555
H20_3 C30_3 1_555 1_555
H21_3 C30_3 1_555 1_555
H22_3 C30_3 1_555 1_555
C31_3 N5_3 1_555 1_555
H23_3 C31_3 1_555 1_555
H24_3 C31_3 1_555 1_555
H25_3 C31_3 1_555 1_555
C32_3 N5_3 1_555 1_555
H26_3 C32_3 1_555 1_555
H27_3 C32_3 1_555 1_555
H28_3 C32_3 1_555 1_555
Cd6 O1_3 1_555 1_555
C1_3 O1_3 1_555 1_555
C1_3 O2_3 1_555 1_555
C8_3 C9_3 1_555 1_555
C17_3 N4_3 1_555 1_555
C18_3 C19_2 1_555 1_555
Cd7 O8_3 1_555 1_555
C20_3 O8_3 1_555 1_555
C20_3 O9_3 1_555 1_555
C21_4 C25_4 1_555 1_555
C22_4 C27_4 1_555 1_555
C23_4 C24_4 1_555 1_555
C24_4 H17_4 1_555 1_555
C25_4 C24_4 1_555 1_555
C26_4 C25_4 1_555 1_555
H18_4 C26_4 1_555 1_555
C27_4 C26_4 1_555 1_555
C28_4 C23_4 1_555 1_555
H19_4 C28_4 1_555 1_555
O16_2 C21_4 1_555 1_555
O18_2 C21_4 1_555 1_555
O20 C22_4 1_555 1_555
O22 C22_4 1_555 1_555
C27_4 C28_4 1_555 1_555
Cd5_2 N1_5 1_555 1_555
C18_4 C17_4 1_555 1_555
H15_4 C18_4 1_555 1_555
N4_4 N1_5 1_555 1_555
Cd9 N4_4 1_555 1_555
O8_4 Cd5_2 1_555 1_555
O9_4 Cd5_2 1_555 1_555
O14_4 Cd9 1_555 1_555
N5_4 C29_4 1_555 1_555
C29_4 O14_4 1_555 1_555
C30_4 C29_4 1_555 1_555
H20_4 C30_4 1_555 1_555
H21_4 C30_4 1_555 1_555
H22_4 C30_4 1_555 1_555
C31_4 N5_4 1_555 1_555
H23_4 C31_4 1_555 1_555
H24_4 C31_4 1_555 1_555
H25_4 C31_4 1_555 1_555
C32_4 N5_4 1_555 1_555
H26_4 C32_4 1_555 1_555
H27_4 C32_4 1_555 1_555
H28_4 C32_4 1_555 1_555
C17_4 N4_4 1_555 1_555
Cd9 O8_4 1_555 1_555
C20_4 O8_4 1_555 1_555
C20_4 O9_4 1_555 1_555
H9_4 C15_4 1_555 1_555
H10_4 C15_4 1_555 1_555
H11_4 C15_4 1_555 1_555
Cd5_3 N1_6 1_555 1_555
Cd8 N2_4 1_555 1_555
C1_4 C4_4 1_555 1_555
C2_4 C6_4 1_555 1_555
C3_4 C8_4 1_555 1_555
C4_4 C5_4 1_555 1_555
C5_4 H1_4 1_555 1_555
C6_4 C5_4 1_555 1_555
C7_4 C6_4 1_555 1_555
H2_4 C7_4 1_555 1_555
C8_4 C7_4 1_555 1_555
C9_4 C4_4 1_555 1_555
H3_4 C9_4 1_555 1_555
C10_4 C11_4 1_555 1_555
C11_4 H4_4 1_555 1_555
N1_6 N2_4 1_555 1_555
N2_4 C10_4 1_555 1_555
O1_4 Cd5_3 1_555 1_555
O2_4 Cd5_3 1_555 1_555
O15_2 C2_4 1_555 1_555
O17_2 C2_4 1_555 1_555
O19 C3_4 1_555 1_555
O21 C3_4 1_555 1_555
O7_4 Cd8 1_555 1_555
N3_4 C13_4 1_555 1_555
C13_4 O7_4 1_555 1_555
C14_4 C13_4 1_555 1_555
H6_4 C14_4 1_555 1_555
H8_4 C14_4 1_555 1_555
C16_4 N3_4 1_555 1_555
H12_4 C16_4 1_555 1_555
H13_4 C16_4 1_555 1_555
H14_4 C16_4 1_555 1_555
Cd8 O1_4 1_555 1_555
C1_4 O1_4 1_555 1_555
C1_4 O2_4 1_555 1_555
C8_4 C9_4 1_555 1_555
H5_3 C12_3 1_555 1_555
H16_3 C19_3 1_555 1_555
H16_4 C19_4 1_555 1_555
H5_4 C12_4 1_555 1_555

#END
