
###############################################################################
#
# This file contains modified crystal structure data generated from the
# MOF subset of the Cambridge Structural Database (CSD) v543 
# hosted by the Cambridge Crystallographic Data Centre (CCDC).
#
# This work is licensed under the Creative Commons
# Attribution-NonCommercial-ShareAlike 4.0 International License.
# To view a copy of this license, visit
# http://creativecommons.org/licenses/by-nc-sa/4.0/
# or send a letter to
# Creative Commons, PO Box 1866, Mountain View, CA 94042, USA.
#
# CIF created using the CSD Python API on 29 September 2022
# The structure has been converted into the P1 space group
# The structure has a 3D framework
# The original CSD entry ARAGOR is in the monoclinic crystal system
# The framework has been calculated to contain at least 10.0% void space
# The void calculation uses a probe of radius 1.32A, grid spacing 0.4
# H atom positions have been added when not included in the experimental data
# Generated hydrogen atom positions removed from atoms on special positions
#
###############################################################################

data_ARAGOR
_chemical_formula_moiety         '(C128 H136 Ca16 Cu8 N8 O84 S16)n'
_symmetry_cell_setting           triclinic
_symmetry_space_group_name_H-M   'P 1'
_symmetry_Int_Tables_number      1
_space_group_name_Hall           'P 1'
loop_
_symmetry_equiv_pos_site_id
_symmetry_equiv_pos_as_xyz
1 x,y,z
_cell_length_a                   17.0093(4)
_cell_length_b                   11.9939(3)
_cell_length_c                   25.0317(6)
_cell_angle_alpha                90
_cell_angle_beta                 92.911(2)
_cell_angle_gamma                90
_cell_volume                     5100.07
loop_
_atom_site_label
_atom_site_type_symbol
_atom_site_fract_x
_atom_site_fract_y
_atom_site_fract_z
Cu1 Cu 0.04641(9) 0.69513(17) 0.12147(7)
Ca1 Ca 0.5000 0.3590(3) 0.2500
Ca2 Ca 0.0000 0.5000 0.0000
S2 S 0.2827(2) 0.4614(4) 0.13616(16)
O1 O 0.4616(6) 0.2890(9) 0.0912(5)
O4 O 0.1045(6) 0.5772(9) 0.0492(5)
O5 O 0.1339(7) 0.5913(11) 0.1363(4)
O7 O 0.5000 0.1619(14) 0.2500
C1 C 0.4166(9) 0.3354(14) 0.1220(7)
O8 O 0.4288(7) 0.3464(11) 0.1707(5)
C3 C 0.2192(9) 0.4856(13) 0.0818(6)
C4 C 0.1482(8) 0.5525(12) 0.0897(7)
C6 C 0.3447(9) 0.3820(14) 0.0967(6)
C7 C 0.3149(10) 0.3812(16) 0.0448(7)
H1 H 0.3389 0.3437 0.0174
C9 C 0.2444(10) 0.4427(17) 0.0367(7)
H2 H 0.2184 0.4523 0.0034
O10 O 0.0291(10) 0.3324(10) 0.0431(7)
N1 N 0.0510(14) 0.1680(15) 0.0817(11)
C13 C 0.0088(15) 0.236(2) 0.0544(9)
O11 O 0.5000 0.5563(18) 0.2500
C15 C 0.129(2) 0.214(3) 0.1054(16)
H8 H 0.1326 0.2920 0.0972
H9 H 0.1718 0.1750 0.0903
H10 H 0.1313 0.2040 0.1435
C16 C 0.029(2) 0.056(3) 0.093(2)
H12 H 0.0291 0.0456 0.1310
H13 H 0.0664 0.0057 0.0783
S3 S 0.2220(2) 0.4260(4) 0.39046(16)
O13 O 0.0306(6) 0.5905(9) 0.3516(4)
O14 O 0.3728(7) 0.3110(11) 0.3846(5)
O17 O 0.0813(7) 0.5390(11) 0.4311(5)
C18 C 0.0830(9) 0.5491(12) 0.3824(6)
C21 C 0.1543(9) 0.5071(18) 0.3549(7)
O19 O 0.3911(8) 0.342(2) 0.2988(6)
C24 C 0.3533(9) 0.3455(16) 0.3422(8)
C26 C 0.2791(10) 0.415(2) 0.3363(7)
C27 C 0.1764(12) 0.534(2) 0.3056(8)
H16 H 0.1485 0.5808 0.2820
C28 C 0.2487(11) 0.479(3) 0.2946(8)
H17 H 0.2729 0.4869 0.2623
Cu4 Cu 0.54641(9) 0.19513(17) 0.12147(7)
Cu6 Cu 0.45359(9) 0.19513(17) 0.37853(7)
Ca4 Ca 0.0000 0.5000 0.5000
O22 O 0.0384(6) 0.7890(9) 0.4088(5)
O23 O 0.1272(7) 0.8110(11) 0.1154(5)
O27 O 0.5712(7) 0.3464(11) 0.3293(5)
O28 O 0.6089(8) 0.342(2) 0.2012(6)
Ca2_2 Ca 0.0000 0.5000 1.0000
C30 C 0.0700(18) 0.807(3) 0.9712(13)
H18 H 0.0955 0.7488 0.9917
H19 H 0.1034 0.8310 0.9436
H20 H 0.0599 0.8691 0.9942
H24 H 0.0223 0.9588 0.9228
O26 O 0.0813(7) 0.4610(11) 0.9311(5)
Ca2_3 Ca 1.0000 0.5000 0.0000
S1 S 0.7780(2) 0.4260(4) 0.10954(16)
O2 O 0.9694(6) 0.5905(9) 0.1484(4)
O3 O 0.6272(7) 0.3110(11) 0.1154(5)
O6 O 0.9187(7) 0.5390(11) 0.0689(5)
C2 C 0.9170(9) 0.5491(12) 0.1176(6)
C5 C 0.8457(9) 0.5071(18) 0.1451(7)
C8 C 0.6467(9) 0.3455(16) 0.1578(8)
C10 C 0.7209(10) 0.415(2) 0.1637(7)
C11 C 0.8236(12) 0.534(2) 0.1944(8)
H3 H 0.8515 0.5808 0.2180
C12 C 0.7513(11) 0.479(3) 0.2054(8)
H4 H 0.7271 0.4869 0.2377
C14 C 0.9300(18) 0.193(3) 0.0288(13)
H5 H 0.9045 0.2512 0.0083
H6 H 0.8966 0.1690 0.0564
H7 H 0.9401 0.1309 0.0058
H11 H 0.9777 0.0412 0.0772
Cu2 Cu 0.95359(9) 0.69513(17) 0.37853(7)
S4 S 0.7173(2) 0.4614(4) 0.36384(16)
O12 O 0.5384(6) 0.2890(9) 0.4088(5)
O15 O 0.8955(6) 0.5772(9) 0.4508(5)
O16 O 0.8661(7) 0.5913(11) 0.3637(4)
C17 C 0.5834(9) 0.3354(14) 0.3780(7)
C19 C 0.7808(9) 0.4856(13) 0.4182(6)
C20 C 0.8518(8) 0.5525(12) 0.4103(7)
C22 C 0.6553(9) 0.3820(14) 0.4033(6)
C23 C 0.6851(10) 0.3812(16) 0.4552(7)
H14 H 0.6611 0.3437 0.4826
C25 C 0.7556(10) 0.4427(17) 0.4633(7)
H15 H 0.7816 0.4523 0.4966
Ca4_2 Ca 1.0000 0.5000 0.5000
O21 O 0.9616(6) 0.7890(9) 0.0912(5)
O24 O 0.8728(7) 0.8110(11) 0.3846(5)
Ca2_4 Ca 1.0000 0.5000 1.0000
O20 O 0.9709(10) 0.6676(10) 0.9569(7)
N2 N 0.9490(14) 0.8320(15) 0.9183(11)
C29 C 0.9912(15) 0.764(2) 0.9456(9)
C31 C 0.871(2) 0.786(3) 0.8946(16)
H21 H 0.8674 0.7080 0.9028
H22 H 0.8282 0.8250 0.9097
H23 H 0.8687 0.7960 0.8565
C32 C 0.971(2) 0.944(3) 0.907(2)
H25 H 0.9709 0.9544 0.8690
H26 H 0.9336 0.9943 0.9217
O25 O 0.8955(6) 0.4228(9) 0.9508(5)
C14_2 C 0.0700(18) 0.193(3) 0.4712(13)
H5_2 H 0.0955 0.2512 0.4917
H6_2 H 0.1034 0.1690 0.4436
H7_2 H 0.0599 0.1309 0.4942
H11_2 H 0.0223 0.0412 0.4228
O20_2 O 0.0291(10) 0.6676(10) 0.5431(7)
N2_2 N 0.0510(14) 0.8320(15) 0.5817(11)
C29_2 C 0.0088(15) 0.764(2) 0.5544(9)
C31_2 C 0.129(2) 0.786(3) 0.6054(16)
H21_2 H 0.1326 0.7080 0.5972
H22_2 H 0.1718 0.8250 0.5903
H23_2 H 0.1313 0.7960 0.6435
C32_2 C 0.029(2) 0.944(3) 0.593(2)
H25_2 H 0.0291 0.9544 0.6310
H26_2 H 0.0664 0.9943 0.5783
O25_2 O 0.1045(6) 0.4228(9) 0.5492(5)
O10_2 O 0.9709(10) 0.3324(10) 0.4569(7)
N1_2 N 0.9490(14) 0.1680(15) 0.4183(11)
C13_2 C 0.9912(15) 0.236(2) 0.4456(9)
C15_2 C 0.871(2) 0.214(3) 0.3946(16)
H8_2 H 0.8674 0.2920 0.4028
H9_2 H 0.8282 0.1750 0.4097
H10_2 H 0.8687 0.2040 0.3565
C16_2 C 0.971(2) 0.056(3) 0.407(2)
H12_2 H 0.9709 0.0456 0.3690
H13_2 H 0.9336 0.0057 0.4217
C30_2 C 0.9300(18) 0.807(3) 0.5288(13)
H18_2 H 0.9045 0.7488 0.5083
H19_2 H 0.8966 0.8310 0.5564
H20_2 H 0.9401 0.8691 0.5058
H24_2 H 0.9777 0.9588 0.5772
O26_2 O 0.9187(7) 0.4610(11) 0.5689(5)
O11_2 O 0.0000 0.0563(18) 0.2500
H30 H 0.0293367 0.0838974 0.282674
Ca1_2 Ca 0.0000 0.8590(3) 0.2500
O7_2 O 0.0000 0.6619(14) 0.2500
O27_2 O 0.0712(7) 0.8464(11) 0.3293(5)
O28_2 O 0.1089(8) 0.842(2) 0.2012(6)
H27 H 0.0257362 0.634303 0.217816
H28 H 0.0293367 0.634303 0.282674
Ca2_5 Ca 0.5000 0.0000 0.0000
O2_2 O 0.4694(6) 0.0905(9) 0.1484(4)
O4_2 O 0.6045(6) 0.0772(9) 0.0492(5)
O5_2 O 0.6339(7) 0.0913(11) 0.1363(4)
O6_2 O 0.4187(7) 0.0390(11) 0.0689(5)
C2_2 C 0.4170(9) 0.0491(12) 0.1176(6)
C4_2 C 0.6482(8) 0.0525(12) 0.0897(7)
C5_2 C 0.3457(9) 0.0071(18) 0.1451(7)
C11_2 C 0.3236(12) 0.034(2) 0.1944(8)
H3_2 H 0.3515 0.0808 0.2180
O11_3 O 1.0000 0.0563(18) 0.2500
O13_2 O 0.5306(6) 0.0905(9) 0.3516(4)
O15_2 O 0.3955(6) 0.0772(9) 0.4508(5)
O16_2 O 0.3661(7) 0.0913(11) 0.3637(4)
O17_2 O 0.5813(7) 0.0390(11) 0.4311(5)
C18_2 C 0.5830(9) 0.0491(12) 0.3824(6)
C20_2 C 0.3518(8) 0.0525(12) 0.4103(7)
C21_2 C 0.6543(9) 0.0071(18) 0.3549(7)
C27_2 C 0.6764(12) 0.034(2) 0.3056(8)
H16_2 H 0.6485 0.0808 0.2820
Ca4_3 Ca 0.5000 0.0000 0.5000
H29 H 0.944927 0.0838974 0.24951
Ca2_6 Ca 0.5000 0.0000 1.0000
O20_3 O 0.4709(10) 0.1676(10) 0.9569(7)
N2_3 N 0.4490(14) 0.3320(15) 0.9183(11)
C29_3 C 0.4912(15) 0.264(2) 0.9456(9)
C30_3 C 0.5700(18) 0.307(3) 0.9712(13)
H18_3 H 0.5955 0.2488 0.9917
H19_3 H 0.6034 0.3310 0.9436
H20_3 H 0.5599 0.3691 0.9942
C31_3 C 0.371(2) 0.286(3) 0.8946(16)
H21_3 H 0.3674 0.2080 0.9028
H22_3 H 0.3282 0.3250 0.9097
H23_3 H 0.3687 0.2960 0.8565
C32_3 C 0.471(2) 0.444(3) 0.907(2)
H24_3 H 0.5223 0.4588 0.9228
H25_3 H 0.4709 0.4544 0.8690
H26_3 H 0.4336 0.4943 0.9217
Ca1_3 Ca 1.0000 0.8590(3) 0.2500
Ca2_7 Ca 0.5000 1.0000 0.0000
S1_2 S 0.2780(2) 0.9260(4) 0.10954(16)
S2_2 S 0.7827(2) 0.9614(4) 0.13616(16)
O7_3 O 1.0000 0.6619(14) 0.2500
C1_2 C 0.9166(9) 0.8354(14) 0.1220(7)
O8_2 O 0.9288(7) 0.8464(11) 0.1707(5)
C3_2 C 0.7192(9) 0.9856(13) 0.0818(6)
C6_2 C 0.8447(9) 0.8820(14) 0.0967(6)
C7_2 C 0.8149(10) 0.8812(16) 0.0448(7)
H1_2 H 0.8389 0.8437 0.0174
C8_2 C 0.1467(9) 0.8455(16) 0.1578(8)
C9_2 C 0.7444(10) 0.9427(17) 0.0367(7)
H2_2 H 0.7184 0.9523 0.0034
C10_2 C 0.2209(10) 0.915(2) 0.1637(7)
C12_2 C 0.2513(11) 0.979(3) 0.2054(8)
H4_2 H 0.2271 0.9869 0.2377
O10_3 O 0.5291(10) 0.8324(10) 0.0431(7)
N1_3 N 0.5510(14) 0.6680(15) 0.0817(11)
C13_3 C 0.5088(15) 0.736(2) 0.0544(9)
C14_3 C 0.4300(18) 0.693(3) 0.0288(13)
H5_3 H 0.4045 0.7512 0.0083
H6_3 H 0.3966 0.6690 0.0564
H7_3 H 0.4401 0.6309 0.0058
C15_3 C 0.629(2) 0.714(3) 0.1054(16)
H8_3 H 0.6326 0.7920 0.0972
H9_3 H 0.6718 0.6750 0.0903
H10_3 H 0.6313 0.7040 0.1435
C16_3 C 0.529(2) 0.556(3) 0.093(2)
H11_3 H 0.4777 0.5412 0.0772
H12_3 H 0.5291 0.5456 0.1310
H13_3 H 0.5664 0.5057 0.0783
S3_2 S 0.7220(2) 0.9260(4) 0.39046(16)
S4_2 S 0.2173(2) 0.9614(4) 0.36384(16)
C17_2 C 0.0834(9) 0.8354(14) 0.3780(7)
C19_2 C 0.2808(9) 0.9856(13) 0.4182(6)
O19_2 O 0.8911(8) 0.842(2) 0.2988(6)
C22_2 C 0.1553(9) 0.8820(14) 0.4033(6)
C23_2 C 0.1851(10) 0.8812(16) 0.4552(7)
H14_2 H 0.1611 0.8437 0.4826
C24_2 C 0.8533(9) 0.8455(16) 0.3422(8)
C25_2 C 0.2556(10) 0.9427(17) 0.4633(7)
H15_2 H 0.2816 0.9523 0.4966
C26_2 C 0.7791(10) 0.915(2) 0.3363(7)
C28_2 C 0.7487(11) 0.979(3) 0.2946(8)
H17_2 H 0.7729 0.9869 0.2623
Ca4_4 Ca 0.5000 1.0000 0.5000
Ca2_8 Ca 0.5000 1.0000 1.0000
O25_3 O 0.3955(6) 0.9228(9) 0.9508(5)
O26_3 O 0.5813(7) 0.9610(11) 0.9311(5)
O20_4 O 0.5291(10) 0.1676(10) 0.5431(7)
N2_4 N 0.5510(14) 0.3320(15) 0.5817(11)
C29_4 C 0.5088(15) 0.264(2) 0.5544(9)
C30_4 C 0.4300(18) 0.307(3) 0.5288(13)
H18_4 H 0.4045 0.2488 0.5083
H19_4 H 0.3966 0.3310 0.5564
H20_4 H 0.4401 0.3691 0.5058
C31_4 C 0.629(2) 0.286(3) 0.6054(16)
H21_4 H 0.6326 0.2080 0.5972
H22_4 H 0.6718 0.3250 0.5903
H23_4 H 0.6313 0.2960 0.6435
C32_4 C 0.529(2) 0.444(3) 0.593(2)
H24_4 H 0.4777 0.4588 0.5772
H25_4 H 0.5291 0.4544 0.6310
H26_4 H 0.5664 0.4943 0.5783
H29_2 H 0.0550729 0.0838974 0.25049
O10_4 O 0.4709(10) 0.8324(10) 0.4569(7)
N1_4 N 0.4490(14) 0.6680(15) 0.4183(11)
C13_4 C 0.4912(15) 0.736(2) 0.4456(9)
C14_4 C 0.5700(18) 0.693(3) 0.4712(13)
H5_4 H 0.5955 0.7512 0.4917
H6_4 H 0.6034 0.6690 0.4436
H7_4 H 0.5599 0.6309 0.4942
C15_4 C 0.371(2) 0.714(3) 0.3946(16)
H8_4 H 0.3674 0.7920 0.4028
H9_4 H 0.3282 0.6750 0.4097
H10_4 H 0.3687 0.7040 0.3565
C16_4 C 0.471(2) 0.556(3) 0.407(2)
H11_4 H 0.5223 0.5412 0.4228
H12_4 H 0.4709 0.5456 0.3690
H13_4 H 0.4336 0.5057 0.4217
O25_4 O 0.6045(6) 0.9228(9) 0.5492(5)
O26_4 O 0.4187(7) 0.9610(11) 0.5689(5)
H30_2 H 0.970663 0.0838974 0.217326
H27_2 H 0.974264 0.634303 0.282184
H28_2 H 0.970663 0.634303 0.217326
S1_3 S 0.2220(2) 0.5740(4) 0.89046(16)
O2_3 O 0.0306(6) 0.4095(9) 0.8516(4)
O3_2 O 0.3728(7) 0.6890(11) 0.8846(5)
C2_3 C 0.0830(9) 0.4509(12) 0.8824(6)
C5_3 C 0.1543(9) 0.4929(18) 0.8549(7)
O9 O 0.3911(8) 0.658(2) 0.7988(6)
C8_3 C 0.3533(9) 0.6545(16) 0.8422(8)
C10_3 C 0.2791(10) 0.585(2) 0.8363(7)
C11_3 C 0.1764(12) 0.466(2) 0.8056(8)
H3_3 H 0.1485 0.4192 0.7820
C12_3 C 0.2487(11) 0.521(3) 0.7946(8)
H4_3 H 0.2729 0.5131 0.7623
Cu2_2 Cu 0.04641(9) 0.30487(17) 0.62147(7)
S4_3 S 0.2827(2) 0.5386(4) 0.63616(16)
O12_2 O 0.4616(6) 0.7110(9) 0.5912(5)
O16_3 O 0.1339(7) 0.4087(11) 0.6363(4)
C17_3 C 0.4166(9) 0.6646(14) 0.6220(7)
O18 O 0.4288(7) 0.6536(11) 0.6707(5)
C19_3 C 0.2192(9) 0.5144(13) 0.5818(6)
C20_3 C 0.1482(8) 0.4475(12) 0.5897(7)
C22_3 C 0.3447(9) 0.6180(14) 0.5967(6)
C23_3 C 0.3149(10) 0.6188(16) 0.5448(7)
H14_3 H 0.3389 0.6563 0.5174
C25_3 C 0.2444(10) 0.5573(17) 0.5367(7)
H15_3 H 0.2184 0.5477 0.5034
Cu3 Cu 0.45359(9) 0.80487(17) 0.87853(7)
Cu5 Cu 0.54641(9) 0.80487(17) 0.62147(7)
Ca3 Ca 0.5000 0.6410(3) 0.7500
O21_2 O 0.0384(6) 0.2110(9) 0.9088(5)
O24_2 O 0.1272(7) 0.1890(11) 0.6154(5)
Cu1_2 Cu 0.95359(9) 0.30487(17) 0.87853(7)
S2_3 S 0.7173(2) 0.5386(4) 0.86384(16)
O1_2 O 0.5384(6) 0.7110(9) 0.9088(5)
O5_3 O 0.8661(7) 0.4087(11) 0.8637(4)
O7_4 O 0.5000 0.8381(14) 0.7500
C1_3 C 0.5834(9) 0.6646(14) 0.8780(7)
O8_3 O 0.5712(7) 0.6536(11) 0.8293(5)
C3_3 C 0.7808(9) 0.5144(13) 0.9182(6)
C4_3 C 0.8518(8) 0.4475(12) 0.9103(7)
C6_3 C 0.6553(9) 0.6180(14) 0.9033(6)
C7_3 C 0.6851(10) 0.6188(16) 0.9552(7)
H1_3 H 0.6611 0.6563 0.9826
C9_3 C 0.7556(10) 0.5573(17) 0.9633(7)
H2_3 H 0.7816 0.5477 0.9966
O11_4 O 0.5000 0.4437(18) 0.7500
S3_3 S 0.7780(2) 0.5740(4) 0.60954(16)
O13_3 O 0.9694(6) 0.4095(9) 0.6484(4)
O14_2 O 0.6272(7) 0.6890(11) 0.6154(5)
C18_3 C 0.9170(9) 0.4509(12) 0.6176(6)
C21_3 C 0.8457(9) 0.4929(18) 0.6451(7)
O19_3 O 0.6089(8) 0.658(2) 0.7012(6)
C24_3 C 0.6467(9) 0.6545(16) 0.6578(8)
C26_3 C 0.7209(10) 0.585(2) 0.6637(7)
C27_3 C 0.8236(12) 0.466(2) 0.6944(8)
H16_3 H 0.8515 0.4192 0.7180
C28_3 C 0.7513(11) 0.521(3) 0.7054(8)
H17_3 H 0.7271 0.5131 0.7377
O22_2 O 0.9616(6) 0.2110(9) 0.5912(5)
O23_2 O 0.8728(7) 0.1890(11) 0.8846(5)
Ca3_2 Ca 0.0000 0.1410(3) 0.7500
S1_4 S 0.7220(2) 0.0740(4) 0.89046(16)
S2_4 S 0.2173(2) 0.0386(4) 0.86384(16)
O7_5 O -0.0000 0.3381(14) 0.7500
C1_4 C 0.0834(9) 0.1646(14) 0.8780(7)
O8_4 O 0.0712(7) 0.1536(11) 0.8293(5)
C3_4 C 0.2808(9) 0.0144(13) 0.9182(6)
O9_2 O 0.8911(8) 0.158(2) 0.7988(6)
C6_4 C 0.1553(9) 0.1180(14) 0.9033(6)
C7_4 C 0.1851(10) 0.1188(16) 0.9552(7)
H1_4 H 0.1611 0.1563 0.9826
C8_4 C 0.8533(9) 0.1545(16) 0.8422(8)
C9_4 C 0.2556(10) 0.0573(17) 0.9633(7)
H2_4 H 0.2816 0.0477 0.9966
C10_4 C 0.7791(10) 0.085(2) 0.8363(7)
C12_4 C 0.7487(11) 0.021(3) 0.7946(8)
H4_4 H 0.7729 0.0131 0.7623
S3_4 S 0.2780(2) 0.0740(4) 0.60954(16)
S4_4 S 0.7827(2) 0.0386(4) 0.63616(16)
C17_4 C 0.9166(9) 0.1646(14) 0.6220(7)
O18_2 O 0.9288(7) 0.1536(11) 0.6707(5)
C19_4 C 0.7192(9) 0.0144(13) 0.5818(6)
O19_4 O 0.1089(8) 0.158(2) 0.7012(6)
C22_4 C 0.8447(9) 0.1180(14) 0.5967(6)
C23_4 C 0.8149(10) 0.1188(16) 0.5448(7)
H14_4 H 0.8389 0.1563 0.5174
C24_4 C 0.1467(9) 0.1545(16) 0.6578(8)
C25_4 C 0.7444(10) 0.0573(17) 0.5367(7)
H15_4 H 0.7184 0.0477 0.5034
C26_4 C 0.2209(10) 0.085(2) 0.6637(7)
C28_4 C 0.2513(11) 0.021(3) 0.7054(8)
H17_4 H 0.2271 0.0131 0.7377
Ca3_3 Ca 1.0000 0.1410(3) 0.7500
O2_4 O 0.5306(6) 0.9095(9) 0.8516(4)
O5_4 O 0.3661(7) 0.9087(11) 0.8637(4)
C2_4 C 0.5830(9) 0.9509(12) 0.8824(6)
C4_4 C 0.3518(8) 0.9475(12) 0.9103(7)
C5_4 C 0.6543(9) 0.9929(18) 0.8549(7)
C11_4 C 0.6764(12) 0.966(2) 0.8056(8)
H3_4 H 0.6485 0.9192 0.7820
O11_5 O -0.0000 0.9437(18) 0.7500
O13_4 O 0.4694(6) 0.9095(9) 0.6484(4)
O16_4 O 0.6339(7) 0.9087(11) 0.6363(4)
C18_4 C 0.4170(9) 0.9509(12) 0.6176(6)
C20_4 C 0.6482(8) 0.9475(12) 0.5897(7)
C21_4 C 0.3457(9) 0.9929(18) 0.6451(7)
C27_4 C 0.3236(12) 0.966(2) 0.6944(8)
H16_4 H 0.3515 0.9192 0.7180
H29_3 H 0.0550729 0.916103 0.75049
O7_6 O 1.0000 0.3381(14) 0.7500
H27_3 H 0.974264 0.365697 0.782184
H28_3 H 0.970663 0.365697 0.717326
O11_6 O 1.0000 0.9437(18) 0.7500
H30_3 H 0.970663 0.916103 0.717326
H27_4 H 0.0257362 0.365697 0.717816
H28_4 H 0.0293367 0.365697 0.782674
H30_4 H 0.0293367 0.916103 0.782674
H29_4 H 0.944927 0.916103 0.74951
loop_
_geom_bond_atom_site_label_1
_geom_bond_atom_site_label_2
_geom_bond_site_symmetry_1
_geom_bond_site_symmetry_2
Ca1 O7 1_555 1_555
Ca2 O4 1_555 1_555
S2 C3 1_555 1_555
O1 C1 1_555 1_555
O4 Cu1 1_555 1_555
O5 Cu1 1_555 1_555
C1 O8 1_555 1_555
O8 Ca1 1_555 1_555
C3 C4 1_555 1_555
C4 O4 1_555 1_555
C6 S2 1_555 1_555
C7 C6 1_555 1_555
H1 C7 1_555 1_555
C9 C3 1_555 1_555
H2 C9 1_555 1_555
O10 Ca2 1_555 1_555
N1 C13 1_555 1_555
C13 O10 1_555 1_555
O11 Ca1 1_555 1_555
C15 N1 1_555 1_555
H8 C15 1_555 1_555
H9 C15 1_555 1_555
H10 C15 1_555 1_555
C16 N1 1_555 1_555
H12 C16 1_555 1_555
H13 C16 1_555 1_555
S3 C21 1_555 1_555
O13 C18 1_555 1_555
O14 C24 1_555 1_555
O17 C18 1_555 1_555
C18 C21 1_555 1_555
C21 C27 1_555 1_555
O19 Ca1 1_555 1_555
C24 O19 1_555 1_555
C26 S3 1_555 1_555
C27 H16 1_555 1_555
C28 C26 1_555 1_555
H17 C28 1_555 1_555
Cu4 O1 1_555 1_555
Cu6 O14 1_555 1_555
O23 Cu1 1_555 1_555
O27 Ca1 1_555 1_555
O28 Ca1 1_555 1_555
O5 C4 1_555 1_555
C1 C6 1_555 1_555
C7 C9 1_555 1_555
O17 Ca4 1_555 1_555
C24 C26 1_555 1_555
C27 C28 1_555 1_555
H18 C30 1_555 1_555
H19 C30 1_555 1_555
H20 C30 1_555 1_555
O26 Ca2_2 1_555 1_555
S1 C5 1_555 1_555
O2 C2 1_555 1_555
O3 C8 1_555 1_555
O6 Ca2_3 1_555 1_555
C2 O6 1_555 1_555
C5 C2 1_555 1_555
O28 C8 1_555 1_555
C8 C10 1_555 1_555
C10 S1 1_555 1_555
C11 C5 1_555 1_555
H3 C11 1_555 1_555
C12 C10 1_555 1_555
H4 C12 1_555 1_555
H5 C14 1_555 1_555
H6 C14 1_555 1_555
H7 C14 1_555 1_555
S4 C19 1_555 1_555
O12 C17 1_555 1_555
O15 Cu2 1_555 1_555
O16 Cu2 1_555 1_555
C17 O27 1_555 1_555
C19 C20 1_555 1_555
C20 O15 1_555 1_555
C22 S4 1_555 1_555
C23 C22 1_555 1_555
H14 C23 1_555 1_555
C25 C19 1_555 1_555
H15 C25 1_555 1_555
Cu4 O3 1_555 1_555
Cu6 O12 1_555 1_555
Ca4_2 O15 1_555 1_555
O24 Cu2 1_555 1_555
C11 C12 1_555 1_555
O16 C20 1_555 1_555
C17 C22 1_555 1_555
C23 C25 1_555 1_555
O20 Ca2_4 1_555 1_555
N2 C29 1_555 1_555
C29 O20 1_555 1_555
C31 N2 1_555 1_555
H21 C31 1_555 1_555
H22 C31 1_555 1_555
H23 C31 1_555 1_555
C32 N2 1_555 1_555
H25 C32 1_555 1_555
H26 C32 1_555 1_555
O25 Ca2_4 1_555 1_555
H5_2 C14_2 1_555 1_555
H6_2 C14_2 1_555 1_555
H7_2 C14_2 1_555 1_555
O20_2 Ca4 1_555 1_555
N2_2 C29_2 1_555 1_555
C29_2 O20_2 1_555 1_555
C31_2 N2_2 1_555 1_555
H21_2 C31_2 1_555 1_555
H22_2 C31_2 1_555 1_555
H23_2 C31_2 1_555 1_555
C32_2 N2_2 1_555 1_555
H25_2 C32_2 1_555 1_555
H26_2 C32_2 1_555 1_555
O25_2 Ca4 1_555 1_555
O10_2 Ca4_2 1_555 1_555
N1_2 C13_2 1_555 1_555
C13_2 O10_2 1_555 1_555
C15_2 N1_2 1_555 1_555
H8_2 C15_2 1_555 1_555
H9_2 C15_2 1_555 1_555
H10_2 C15_2 1_555 1_555
C16_2 N1_2 1_555 1_555
H12_2 C16_2 1_555 1_555
H13_2 C16_2 1_555 1_555
H18_2 C30_2 1_555 1_555
H19_2 C30_2 1_555 1_555
H20_2 C30_2 1_555 1_555
O26_2 Ca4_2 1_555 1_555
O11_2 H30 1_555 1_555
Ca1_2 O7_2 1_555 1_555
O27_2 Ca1_2 1_555 1_555
O28_2 Ca1_2 1_555 1_555
O7_2 H27 1_555 1_555
O7_2 H28 1_555 1_555
Cu4 O2_2 1_555 1_555
Ca2_5 O4_2 1_555 1_555
O2_2 C2_2 1_555 1_555
O4_2 Cu4 1_555 1_555
O5_2 Cu4 1_555 1_555
O6_2 Ca2_5 1_555 1_555
C2_2 O6_2 1_555 1_555
C4_2 O4_2 1_555 1_555
C5_2 C2_2 1_555 1_555
C11_2 C5_2 1_555 1_555
H3_2 C11_2 1_555 1_555
Cu6 O13_2 1_555 1_555
O13_2 C18_2 1_555 1_555
O15_2 Cu6 1_555 1_555
O16_2 Cu6 1_555 1_555
O17_2 C18_2 1_555 1_555
C18_2 C21_2 1_555 1_555
C20_2 O15_2 1_555 1_555
C21_2 C27_2 1_555 1_555
C27_2 H16_2 1_555 1_555
Ca4_3 O15_2 1_555 1_555
O5_2 C4_2 1_555 1_555
O16_2 C20_2 1_555 1_555
O17_2 Ca4_3 1_555 1_555
O11_3 H29 1_555 1_555
O20_3 Ca2_6 1_555 1_555
N2_3 C29_3 1_555 1_555
C29_3 O20_3 1_555 1_555
C30_3 C29_3 1_555 1_555
H18_3 C30_3 1_555 1_555
H19_3 C30_3 1_555 1_555
H20_3 C30_3 1_555 1_555
C31_3 N2_3 1_555 1_555
H21_3 C31_3 1_555 1_555
H22_3 C31_3 1_555 1_555
H23_3 C31_3 1_555 1_555
C32_3 N2_3 1_555 1_555
H24_3 C32_3 1_555 1_555
H25_3 C32_3 1_555 1_555
H26_3 C32_3 1_555 1_555
Ca1_3 O7_3 1_555 1_555
S2_2 C3_2 1_555 1_555
O21 C1_2 1_555 1_555
O23 C8_2 1_555 1_555
C1_2 O8_2 1_555 1_555
O8_2 Ca1_3 1_555 1_555
O28_2 C8_2 1_555 1_555
C6_2 S2_2 1_555 1_555
C7_2 C6_2 1_555 1_555
H1_2 C7_2 1_555 1_555
C8_2 C10_2 1_555 1_555
C9_2 C3_2 1_555 1_555
H2_2 C9_2 1_555 1_555
C10_2 S1_2 1_555 1_555
C12_2 C10_2 1_555 1_555
H4_2 C12_2 1_555 1_555
O10_3 Ca2_7 1_555 1_555
N1_3 C13_3 1_555 1_555
C13_3 O10_3 1_555 1_555
C14_3 C13_3 1_555 1_555
H5_3 C14_3 1_555 1_555
H6_3 C14_3 1_555 1_555
H7_3 C14_3 1_555 1_555
C15_3 N1_3 1_555 1_555
H8_3 C15_3 1_555 1_555
H9_3 C15_3 1_555 1_555
H10_3 C15_3 1_555 1_555
C16_3 N1_3 1_555 1_555
H11_3 C16_3 1_555 1_555
H12_3 C16_3 1_555 1_555
H13_3 C16_3 1_555 1_555
S4_2 C19_2 1_555 1_555
O22 C17_2 1_555 1_555
O24 C24_2 1_555 1_555
C17_2 O27_2 1_555 1_555
O19_2 Ca1_3 1_555 1_555
C22_2 S4_2 1_555 1_555
C23_2 C22_2 1_555 1_555
H14_2 C23_2 1_555 1_555
C24_2 O19_2 1_555 1_555
C25_2 C19_2 1_555 1_555
H15_2 C25_2 1_555 1_555
C26_2 S3_2 1_555 1_555
C28_2 C26_2 1_555 1_555
H17_2 C28_2 1_555 1_555
C1_2 C6_2 1_555 1_555
C7_2 C9_2 1_555 1_555
C17_2 C22_2 1_555 1_555
C23_2 C25_2 1_555 1_555
C24_2 C26_2 1_555 1_555
O25_3 Ca2_8 1_555 1_555
O26_3 Ca2_8 1_555 1_555
O20_4 Ca4_3 1_555 1_555
N2_4 C29_4 1_555 1_555
C29_4 O20_4 1_555 1_555
C30_4 C29_4 1_555 1_555
H18_4 C30_4 1_555 1_555
H19_4 C30_4 1_555 1_555
H20_4 C30_4 1_555 1_555
C31_4 N2_4 1_555 1_555
H21_4 C31_4 1_555 1_555
H22_4 C31_4 1_555 1_555
H23_4 C31_4 1_555 1_555
C32_4 N2_4 1_555 1_555
H24_4 C32_4 1_555 1_555
H25_4 C32_4 1_555 1_555
H26_4 C32_4 1_555 1_555
O11_2 H29_2 1_555 1_555
O10_4 Ca4_4 1_555 1_555
N1_4 C13_4 1_555 1_555
C13_4 O10_4 1_555 1_555
C14_4 C13_4 1_555 1_555
H5_4 C14_4 1_555 1_555
H6_4 C14_4 1_555 1_555
H7_4 C14_4 1_555 1_555
C15_4 N1_4 1_555 1_555
H8_4 C15_4 1_555 1_555
H9_4 C15_4 1_555 1_555
H10_4 C15_4 1_555 1_555
C16_4 N1_4 1_555 1_555
H11_4 C16_4 1_555 1_555
H12_4 C16_4 1_555 1_555
H13_4 C16_4 1_555 1_555
O25_4 Ca4_4 1_555 1_555
O26_4 Ca4_4 1_555 1_555
O11_3 H30_2 1_555 1_555
O7_3 H27_2 1_555 1_555
O7_3 H28_2 1_555 1_555
S1_3 C5_3 1_555 1_555
O2_3 C2_3 1_555 1_555
O3_2 C8_3 1_555 1_555
C2_3 O26 1_555 1_555
C5_3 C2_3 1_555 1_555
O9 C8_3 1_555 1_555
C8_3 C10_3 1_555 1_555
C10_3 S1_3 1_555 1_555
C11_3 C5_3 1_555 1_555
H3_3 C11_3 1_555 1_555
C12_3 C10_3 1_555 1_555
H4_3 C12_3 1_555 1_555
S4_3 C19_3 1_555 1_555
O12_2 C17_3 1_555 1_555
O25_2 Cu2_2 1_555 1_555
O16_3 Cu2_2 1_555 1_555
C17_3 O18 1_555 1_555
O18 Ca3 1_555 1_555
C19_3 C20_3 1_555 1_555
C20_3 O25_2 1_555 1_555
C22_3 S4_3 1_555 1_555
C23_3 C22_3 1_555 1_555
H14_3 C23_3 1_555 1_555
C25_3 C19_3 1_555 1_555
H15_3 C25_3 1_555 1_555
Cu3 O3_2 1_555 1_555
Cu5 O12_2 1_555 1_555
Ca3 O9 1_555 1_555
O24_2 Cu2_2 1_555 1_555
C11_3 C12_3 1_555 1_555
O16_3 C20_3 1_555 1_555
C17_3 C22_3 1_555 1_555
C23_3 C25_3 1_555 1_555
Ca3 O7_4 1_555 1_555
S2_3 C3_3 1_555 1_555
O1_2 C1_3 1_555 1_555
O25 Cu1_2 1_555 1_555
O5_3 Cu1_2 1_555 1_555
C1_3 O8_3 1_555 1_555
O8_3 Ca3 1_555 1_555
C3_3 C4_3 1_555 1_555
C4_3 O25 1_555 1_555
C6_3 S2_3 1_555 1_555
C7_3 C6_3 1_555 1_555
H1_3 C7_3 1_555 1_555
C9_3 C3_3 1_555 1_555
H2_3 C9_3 1_555 1_555
O11_4 Ca3 1_555 1_555
S3_3 C21_3 1_555 1_555
O13_3 C18_3 1_555 1_555
O14_2 C24_3 1_555 1_555
O26_2 C18_3 1_555 1_555
C18_3 C21_3 1_555 1_555
C21_3 C27_3 1_555 1_555
O19_3 Ca3 1_555 1_555
C24_3 O19_3 1_555 1_555
C26_3 S3_3 1_555 1_555
C27_3 H16_3 1_555 1_555
C28_3 C26_3 1_555 1_555
H17_3 C28_3 1_555 1_555
Cu3 O1_2 1_555 1_555
Cu5 O14_2 1_555 1_555
O23_2 Cu1_2 1_555 1_555
O5_3 C4_3 1_555 1_555
C1_3 C6_3 1_555 1_555
C7_3 C9_3 1_555 1_555
C24_3 C26_3 1_555 1_555
C27_3 C28_3 1_555 1_555
Ca3_2 O7_5 1_555 1_555
S2_4 C3_4 1_555 1_555
O21_2 C1_4 1_555 1_555
O23_2 C8_4 1_555 1_555
C1_4 O8_4 1_555 1_555
O8_4 Ca3_2 1_555 1_555
O9_2 C8_4 1_555 1_555
C6_4 S2_4 1_555 1_555
C7_4 C6_4 1_555 1_555
H1_4 C7_4 1_555 1_555
C8_4 C10_4 1_555 1_555
C9_4 C3_4 1_555 1_555
H2_4 C9_4 1_555 1_555
C10_4 S1_4 1_555 1_555
C12_4 C10_4 1_555 1_555
H4_4 C12_4 1_555 1_555
S4_4 C19_4 1_555 1_555
O22_2 C17_4 1_555 1_555
O24_2 C24_4 1_555 1_555
C17_4 O18_2 1_555 1_555
O18_2 Ca3_3 1_555 1_555
O19_4 Ca3_2 1_555 1_555
C22_4 S4_4 1_555 1_555
C23_4 C22_4 1_555 1_555
H14_4 C23_4 1_555 1_555
C24_4 O19_4 1_555 1_555
C25_4 C19_4 1_555 1_555
H15_4 C25_4 1_555 1_555
C26_4 S3_4 1_555 1_555
C28_4 C26_4 1_555 1_555
H17_4 C28_4 1_555 1_555
Ca3_3 O9_2 1_555 1_555
C1_4 C6_4 1_555 1_555
C7_4 C9_4 1_555 1_555
C17_4 C22_4 1_555 1_555
C23_4 C25_4 1_555 1_555
C24_4 C26_4 1_555 1_555
Cu3 O2_4 1_555 1_555
O2_4 C2_4 1_555 1_555
O25_3 Cu3 1_555 1_555
O5_4 Cu3 1_555 1_555
C2_4 O26_3 1_555 1_555
C4_4 O25_3 1_555 1_555
C5_4 C2_4 1_555 1_555
C11_4 C5_4 1_555 1_555
H3_4 C11_4 1_555 1_555
Cu5 O13_4 1_555 1_555
O13_4 C18_4 1_555 1_555
O25_4 Cu5 1_555 1_555
O16_4 Cu5 1_555 1_555
O26_4 C18_4 1_555 1_555
C18_4 C21_4 1_555 1_555
C20_4 O25_4 1_555 1_555
C21_4 C27_4 1_555 1_555
C27_4 H16_4 1_555 1_555
O5_4 C4_4 1_555 1_555
O16_4 C20_4 1_555 1_555
O11_5 H29_3 1_555 1_555
Ca3_3 O7_6 1_555 1_555
O7_6 H27_3 1_555 1_555
O7_6 H28_3 1_555 1_555
O11_6 H30_3 1_555 1_555
O7_5 H27_4 1_555 1_555
O7_5 H28_4 1_555 1_555
O11_5 H30_4 1_555 1_555
O11_6 H29_4 1_555 1_555

#END
