
###############################################################################
#
# This file contains modified crystal structure data generated from the
# MOF subset of the Cambridge Structural Database (CSD) v543 
# hosted by the Cambridge Crystallographic Data Centre (CCDC).
#
# This work is licensed under the Creative Commons
# Attribution-NonCommercial-ShareAlike 4.0 International License.
# To view a copy of this license, visit
# http://creativecommons.org/licenses/by-nc-sa/4.0/
# or send a letter to
# Creative Commons, PO Box 1866, Mountain View, CA 94042, USA.
#
# CIF created using the CSD Python API on 29 September 2022
# The structure has been converted into the P1 space group
# The structure has a 3D framework
# The original CSD entry ARAJEK is in the tetragonal crystal system
# The original CSD entry ARAJEK is in a Sohncke space group
# The framework has been calculated to contain at least 10.0% void space
# The void calculation uses a probe of radius 1.32A, grid spacing 0.4
#
###############################################################################

data_ARAJEK
_chemical_formula_moiety         '(C80 H48 Cu6 N8 O12)n'
_symmetry_cell_setting           triclinic
_symmetry_space_group_name_H-M   'P 1'
_symmetry_Int_Tables_number      1
_space_group_name_Hall           'P 1'
loop_
_symmetry_equiv_pos_site_id
_symmetry_equiv_pos_as_xyz
1 x,y,z
_cell_length_a                   16.7580(8)
_cell_length_b                   16.7580(8)
_cell_length_c                   8.2223(6)
_cell_angle_alpha                90
_cell_angle_beta                 90
_cell_angle_gamma                90
_cell_volume                     2309.07
loop_
_atom_site_label
_atom_site_type_symbol
_atom_site_fract_x
_atom_site_fract_y
_atom_site_fract_z
Cu1 Cu 0.22207(3) 0.22207(3) 0.0000
C3 C 0.0001(3) 0.2884(5) 0.4668(7)
C4 C 0.0667(3) 0.2436(3) 0.1717(6)
C9 C 0.1167(3) 0.2614(4) 0.3057(6)
H5 H 0.1719 0.2585 0.2948
C10 C 0.0841(4) 0.2827(5) 0.4489(8)
H6 H 0.1170 0.2937 0.5371
N1 N 0.1022(3) 0.2220(2) 0.0269(5)
C16 C 0.2055(4) 0.0567(4) 0.0984(8)
H9 H 0.1907 0.0813 0.1952
O5 O 0.2235(2) 0.3390(2) 0.0139(4)
O8 O 0.3123(2) 0.2139(3) 0.2462(4)
C1 C 0.9498(3) 0.2709(4) 0.3398(6)
C2 C 0.8608(3) 0.2781(3) 0.3708(6)
H1 H 0.9788 0.3043 0.5661
C5 C 0.9375(4) 0.2297(4) 0.0424(8)
H2 H 0.8821 0.2318 0.0455
C8 C 0.9829(3) 0.2488(3) 0.1863(6)
O1 O 0.8390(2) 0.2765(2) 0.5139(4)
O2 O 0.8123(2) 0.2861(3) 0.2538(4)
Cu3 Cu 0.72207(3) 0.27793(3) 0.5000
C11 C 0.7291(4) 0.0502(3) 0.6602(6)
C12 C 0.7219(3) 0.1392(3) 0.6292(6)
H7 H 0.6957 0.0212 0.4339
C15 C 0.7703(4) 0.0625(4) 0.9576(8)
H8 H 0.7682 0.1179 0.9545
C18 C 0.7512(3) 0.0171(3) 0.8137(6)
O3 O 0.7235(2) 0.1610(2) 0.4861(4)
O4 O 0.7139(3) 0.1877(2) 0.7462(4)
Cu1_2 Cu 0.77793(3) 0.77793(3) 1.0000
C6 C 0.9433(4) 0.7945(4) 0.9016(8)
H3 H 0.9187 0.8093 0.8048
C13 C 0.7116(5) 0.9999(3) 0.5332(7)
C14 C 0.7564(3) 0.9333(3) 0.8283(6)
C19 C 0.7386(4) 0.8833(3) 0.6943(6)
H11 H 0.7415 0.8281 0.7052
C20 C 0.7173(5) 0.9159(4) 0.5511(8)
H12 H 0.7063 0.8830 0.4629
N2 N 0.7780(2) 0.8978(3) 0.9731(5)
O6 O 0.6610(2) 0.7765(2) 0.9861(4)
O7 O 0.7861(3) 0.6877(2) 0.7538(4)
H1_2 H 0.1957 0.4788 0.0661
H6_2 H 0.2063 0.6170 0.0371
H7_2 H 0.5212 0.8043 0.9339
H12_2 H 0.3830 0.7937 0.9629
C1_2 C 0.7709(4) 0.5502(3) 0.8398(6)
C2_2 C 0.7781(3) 0.6392(3) 0.8708(6)
C3_2 C 0.7884(5) 0.4999(3) 0.9668(7)
C4_2 C 0.7436(3) 0.4333(3) 0.6717(6)
C5_2 C 0.7297(4) 0.5625(4) 0.5424(8)
H2_2 H 0.7318 0.6179 0.5455
C6_2 C 0.7055(4) 0.4433(4) 0.4016(8)
H3_2 H 0.6907 0.4187 0.3048
C7 C 0.7090(5) 0.5257(4) 0.4053(8)
H4 H 0.6969 0.5552 0.3127
C8_2 C 0.7488(3) 0.5171(3) 0.6863(6)
C9_2 C 0.7614(4) 0.3833(3) 0.8057(6)
H5_2 H 0.7585 0.3281 0.7948
C10_2 C 0.7827(5) 0.4159(4) 0.9489(8)
N1_2 N 0.7220(2) 0.3978(3) 0.5269(5)
C11_2 C 0.4498(3) 0.2291(4) 0.1602(6)
C12_2 C 0.3608(3) 0.2219(3) 0.1292(6)
C13_2 C 0.5001(3) 0.2116(5) 0.0332(7)
C14_2 C 0.5667(3) 0.2564(3) 0.3283(6)
C15_2 C 0.4375(4) 0.2703(4) 0.4576(8)
H8_2 H 0.3821 0.2682 0.4545
C16_2 C 0.5567(4) 0.2945(4) 0.5984(8)
H9_2 H 0.5813 0.3093 0.6952
C17 C 0.4743(4) 0.2910(5) 0.5947(8)
H10 H 0.4448 0.3031 0.6873
C18_2 C 0.4829(3) 0.2512(3) 0.3137(6)
C19_2 C 0.6167(3) 0.2386(4) 0.1943(6)
H11_2 H 0.6719 0.2415 0.2052
C20_2 C 0.5841(4) 0.2173(5) 0.0511(8)
N2_2 N 0.6022(3) 0.2780(2) 0.4731(5)
Cu1_3 Cu 0.22207(3) 0.22207(3) 1.0000
C6_3 C 0.0567(4) 0.2055(4) 0.9016(8)
H3_3 H 0.0813 0.1907 0.8048
C13_3 C 0.2884(5) 0.0001(3) 0.5332(7)
C14_3 C 0.2436(3) 0.0667(3) 0.8283(6)
C19_3 C 0.2614(4) 0.1167(3) 0.6943(6)
H11_3 H 0.2585 0.1719 0.7052
C20_3 C 0.2827(5) 0.0841(4) 0.5511(8)
H12_3 H 0.2937 0.1170 0.4629
N2_3 N 0.2220(2) 0.1022(3) 0.9731(5)
O6_2 O 0.3390(2) 0.2235(2) 0.9861(4)
O7_2 O 0.2139(3) 0.3123(2) 0.7538(4)
C11_3 C 0.2709(4) 0.9498(3) 0.6602(6)
C12_3 C 0.2781(3) 0.8608(3) 0.6292(6)
H7_3 H 0.3043 0.9788 0.4339
C15_3 C 0.2297(4) 0.9375(4) 0.9576(8)
H8_3 H 0.2318 0.8821 0.9545
C18_3 C 0.2488(3) 0.9829(3) 0.8137(6)
O3_2 O 0.2765(2) 0.8390(2) 0.4861(4)
O4_2 O 0.2861(3) 0.8123(2) 0.7462(4)
Cu2 Cu 0.27793(3) 0.72207(3) 0.5000
C1_3 C 0.0502(3) 0.7291(4) 0.3398(6)
C2_3 C 0.1392(3) 0.7219(3) 0.3708(6)
H1_3 H 0.0212 0.6957 0.5661
C5_3 C 0.0625(4) 0.7703(4) 0.0424(8)
H2_3 H 0.1179 0.7682 0.0455
C8_3 C 0.0171(3) 0.7512(3) 0.1863(6)
O1_2 O 0.1610(2) 0.7235(2) 0.5139(4)
O2_2 O 0.1877(2) 0.7139(3) 0.2538(4)
Cu1_4 Cu 0.77793(3) 0.77793(3) 0.0000
C3_3 C 0.9999(3) 0.7116(5) 0.4668(7)
C4_3 C 0.9333(3) 0.7564(3) 0.1717(6)
C9_3 C 0.8833(3) 0.7386(4) 0.3057(6)
H5_3 H 0.8281 0.7415 0.2948
C10_3 C 0.9159(4) 0.7173(5) 0.4489(8)
H6_3 H 0.8830 0.7063 0.5371
N1_3 N 0.8978(3) 0.7780(2) 0.0269(5)
C16_3 C 0.7945(4) 0.9433(4) 0.0984(8)
H9_3 H 0.8093 0.9187 0.1952
O5_2 O 0.7765(2) 0.6610(2) 0.0139(4)
O8_2 O 0.6877(2) 0.7861(3) 0.2462(4)
C1_4 C 0.2291(4) 0.4498(3) 0.8398(6)
C2_4 C 0.2219(3) 0.3608(3) 0.8708(6)
C3_4 C 0.2116(5) 0.5001(3) 0.9668(7)
C4_4 C 0.2564(3) 0.5667(3) 0.6717(6)
C5_4 C 0.2703(4) 0.4375(4) 0.5424(8)
H2_4 H 0.2682 0.3821 0.5455
C6_4 C 0.2945(4) 0.5567(4) 0.4016(8)
H3_4 H 0.3093 0.5813 0.3048
C7_2 C 0.2910(5) 0.4743(4) 0.4053(8)
H4_2 H 0.3031 0.4448 0.3127
C8_4 C 0.2512(3) 0.4829(3) 0.6863(6)
C9_4 C 0.2386(4) 0.6167(3) 0.8057(6)
H5_4 H 0.2415 0.6719 0.7948
C10_4 C 0.2173(5) 0.5841(4) 0.9489(8)
N1_4 N 0.2780(2) 0.6022(3) 0.5269(5)
C11_4 C 0.5502(3) 0.7709(4) 0.1602(6)
C12_4 C 0.6392(3) 0.7781(3) 0.1292(6)
C13_4 C 0.4999(3) 0.7884(5) 0.0332(7)
C14_4 C 0.4333(3) 0.7436(3) 0.3283(6)
C15_4 C 0.5625(4) 0.7297(4) 0.4576(8)
H8_4 H 0.6179 0.7318 0.4545
C16_4 C 0.4433(4) 0.7055(4) 0.5984(8)
H9_4 H 0.4187 0.6907 0.6952
C17_2 C 0.5257(4) 0.7090(5) 0.5947(8)
H10_2 H 0.5552 0.6969 0.6873
C18_4 C 0.5171(3) 0.7488(3) 0.3137(6)
C19_4 C 0.3833(3) 0.7614(4) 0.1943(6)
H11_4 H 0.3281 0.7585 0.2052
C20_4 C 0.4159(4) 0.7827(5) 0.0511(8)
N2_4 N 0.3978(3) 0.7220(2) 0.4731(5)
H1_4 H 0.8043 0.5212 0.0661
H6_4 H 0.7937 0.3830 0.0371
H7_4 H 0.4788 0.1957 0.9339
H12_4 H 0.6170 0.2063 0.9629
C17_3 C 0.2090(5) 0.9743(4) 0.0947(8)
H10_3 H 0.1969 0.9448 0.1873
C7_3 C 0.9743(4) 0.2090(5) 0.9053(8)
H4_3 H 0.9448 0.1969 0.8127
C7_4 C 0.0257(4) 0.7910(5) 0.9053(8)
H4_4 H 0.0552 0.8031 0.8127
C17_4 C 0.7910(5) 0.0257(4) 0.0947(8)
H10_4 H 0.8031 0.0552 0.1873
loop_
_geom_bond_atom_site_label_1
_geom_bond_atom_site_label_2
_geom_bond_site_symmetry_1
_geom_bond_site_symmetry_2
Cu1 N1 1_555 1_555
C9 C4 1_555 1_555
H5 C9 1_555 1_555
C10 C3 1_555 1_555
H6 C10 1_555 1_555
N1 C4 1_555 1_555
C16 H9 1_555 1_555
O5 Cu1 1_555 1_555
O8 Cu1 1_555 1_555
C9 C10 1_555 1_555
C1 C2 1_555 1_555
C2 O1 1_555 1_555
C5 H2 1_555 1_555
C8 C1 1_555 1_555
O1 Cu3 1_555 1_555
O2 C2 1_555 1_555
Cu3 O2 1_555 1_555
C5 C8 1_555 1_555
C11 C12 1_555 1_555
C12 O3 1_555 1_555
C15 H8 1_555 1_555
C18 C11 1_555 1_555
O3 Cu3 1_555 1_555
O4 C12 1_555 1_555
Cu3 O4 1_555 1_555
C15 C18 1_555 1_555
C6 H3 1_555 1_555
C19 C14 1_555 1_555
H11 C19 1_555 1_555
C20 C13 1_555 1_555
H12 C20 1_555 1_555
N2 Cu1_2 1_555 1_555
O6 Cu1_2 1_555 1_555
O7 Cu1_2 1_555 1_555
C14 N2 1_555 1_555
C19 C20 1_555 1_555
Cu3 N1_2 1_555 1_555
C1_2 C2_2 1_555 1_555
C3_2 C1_2 1_555 1_555
C4_2 C8_2 1_555 1_555
C5_2 H2_2 1_555 1_555
C6_2 H3_2 1_555 1_555
C7 C5_2 1_555 1_555
H4 C7 1_555 1_555
C8_2 C1_2 1_555 1_555
C9_2 C4_2 1_555 1_555
H5_2 C9_2 1_555 1_555
C10_2 C3_2 1_555 1_555
N1_2 C4_2 1_555 1_555
O7 C2_2 1_555 1_555
C11_2 C12_2 1_555 1_555
C13_2 C11_2 1_555 1_555
C14_2 C18_2 1_555 1_555
C15_2 H8_2 1_555 1_555
C16_2 H9_2 1_555 1_555
C17 C15_2 1_555 1_555
H10 C17 1_555 1_555
C18_2 C11_2 1_555 1_555
C19_2 C14_2 1_555 1_555
H11_2 C19_2 1_555 1_555
C20_2 C13_2 1_555 1_555
N2_2 Cu3 1_555 1_555
O8 C12_2 1_555 1_555
C5_2 C8_2 1_555 1_555
C6_2 C7 1_555 1_555
C6_2 N1_2 1_555 1_555
C9_2 C10_2 1_555 1_555
C14_2 N2_2 1_555 1_555
C15_2 C18_2 1_555 1_555
C16_2 C17 1_555 1_555
C16_2 N2_2 1_555 1_555
C19_2 C20_2 1_555 1_555
C6_3 H3_3 1_555 1_555
C19_3 C14_3 1_555 1_555
H11_3 C19_3 1_555 1_555
C20_3 C13_3 1_555 1_555
H12_3 C20_3 1_555 1_555
N2_3 Cu1_3 1_555 1_555
O6_2 Cu1_3 1_555 1_555
O7_2 Cu1_3 1_555 1_555
C14_3 N2_3 1_555 1_555
C19_3 C20_3 1_555 1_555
C11_3 C12_3 1_555 1_555
C12_3 O3_2 1_555 1_555
C15_3 H8_3 1_555 1_555
C18_3 C11_3 1_555 1_555
O3_2 Cu2 1_555 1_555
O4_2 C12_3 1_555 1_555
Cu2 O4_2 1_555 1_555
C15_3 C18_3 1_555 1_555
C1_3 C2_3 1_555 1_555
C2_3 O1_2 1_555 1_555
C5_3 H2_3 1_555 1_555
C8_3 C1_3 1_555 1_555
O1_2 Cu2 1_555 1_555
O2_2 C2_3 1_555 1_555
Cu2 O2_2 1_555 1_555
C5_3 C8_3 1_555 1_555
Cu1_4 N1_3 1_555 1_555
C9_3 C4_3 1_555 1_555
H5_3 C9_3 1_555 1_555
C10_3 C3_3 1_555 1_555
H6_3 C10_3 1_555 1_555
N1_3 C4_3 1_555 1_555
C16_3 H9_3 1_555 1_555
O5_2 Cu1_4 1_555 1_555
O8_2 Cu1_4 1_555 1_555
C9_3 C10_3 1_555 1_555
Cu2 N1_4 1_555 1_555
C1_4 C2_4 1_555 1_555
C3_4 C1_4 1_555 1_555
C4_4 C8_4 1_555 1_555
C5_4 H2_4 1_555 1_555
C6_4 H3_4 1_555 1_555
C7_2 C5_4 1_555 1_555
H4_2 C7_2 1_555 1_555
C8_4 C1_4 1_555 1_555
C9_4 C4_4 1_555 1_555
H5_4 C9_4 1_555 1_555
C10_4 C3_4 1_555 1_555
N1_4 C4_4 1_555 1_555
O7_2 C2_4 1_555 1_555
C11_4 C12_4 1_555 1_555
C13_4 C11_4 1_555 1_555
C14_4 C18_4 1_555 1_555
C15_4 H8_4 1_555 1_555
C16_4 H9_4 1_555 1_555
C17_2 C15_4 1_555 1_555
H10_2 C17_2 1_555 1_555
C18_4 C11_4 1_555 1_555
C19_4 C14_4 1_555 1_555
H11_4 C19_4 1_555 1_555
C20_4 C13_4 1_555 1_555
N2_4 Cu2 1_555 1_555
O8_2 C12_4 1_555 1_555
C5_4 C8_4 1_555 1_555
C6_4 C7_2 1_555 1_555
C6_4 N1_4 1_555 1_555
C9_4 C10_4 1_555 1_555
C14_4 N2_4 1_555 1_555
C15_4 C18_4 1_555 1_555
C16_4 C17_2 1_555 1_555
C16_4 N2_4 1_555 1_555
C19_4 C20_4 1_555 1_555
H10_3 C17_3 1_555 1_555
H4_3 C7_3 1_555 1_555
H4_4 C7_4 1_555 1_555
H10_4 C17_4 1_555 1_555

#END
