
###############################################################################
#
# This file contains modified crystal structure data generated from the
# MOF subset of the Cambridge Structural Database (CSD) v543 
# hosted by the Cambridge Crystallographic Data Centre (CCDC).
#
# This work is licensed under the Creative Commons
# Attribution-NonCommercial-ShareAlike 4.0 International License.
# To view a copy of this license, visit
# http://creativecommons.org/licenses/by-nc-sa/4.0/
# or send a letter to
# Creative Commons, PO Box 1866, Mountain View, CA 94042, USA.
#
# CIF created using the CSD Python API on 29 September 2022
# The structure has been converted into the P1 space group
# The structure has a 3D framework
# The original CSD entry ARAJOU is in the tetragonal crystal system
# The original CSD entry ARAJOU is in a Sohncke space group
# The framework has been calculated to contain at least 10.0% void space
# The void calculation uses a probe of radius 1.32A, grid spacing 0.4
#
###############################################################################

data_ARAJOU
_chemical_formula_moiety         '(C160 H96 N16 Ni8 O32)n'
_symmetry_cell_setting           triclinic
_symmetry_space_group_name_H-M   'P 1'
_symmetry_Int_Tables_number      1
_space_group_name_Hall           'P 1'
loop_
_symmetry_equiv_pos_site_id
_symmetry_equiv_pos_as_xyz
1 x,y,z
_cell_length_a                   16.9661(4)
_cell_length_b                   16.9661(4)
_cell_length_c                   15.5065(5)
_cell_angle_alpha                90
_cell_angle_beta                 90
_cell_angle_gamma                90
_cell_volume                     4463.52
loop_
_atom_site_label
_atom_site_type_symbol
_atom_site_fract_x
_atom_site_fract_y
_atom_site_fract_z
Ni1 Ni 0.73216(2) 0.26704(2) 0.01828(2)
N1 N 0.74836(17) 0.64690(16) 0.2482(2)
O1 O 0.74391(15) 0.35382(14) 0.11536(15)
C1 C 0.7441(2) 0.52630(19) 0.1594(2)
C2 C 0.7448(2) 0.4060(2) 0.0560(2)
O3 O 0.60359(14) 0.27599(16) 0.00698(17)
C3 C 0.7852(3) 0.6539(2) 0.0987(2)
H1 H 0.7963 0.7083 0.1059
C5 C 0.7168(2) 0.4846(2) 0.2326(2)
H2 H 0.7050 0.4300 0.2283
H5 H 0.4874 0.1868 0.0141
H6 H 0.3589 0.1495 0.0397
C13 C 0.7557(2) 0.4924(2) 0.0761(2)
C15 C 0.7802(3) 0.5389(2) 0.0083(3)
C16 C 0.7591(2) 0.6089(2) 0.1702(2)
C17 C 0.7072(3) 0.5235(2) 0.3104(2)
H9 H 0.6899 0.4959 0.3602
C18 C 0.7945(3) 0.6199(2) 0.0198(3)
C20 C 0.7233(2) 0.6038(2) 0.3142(2)
H12 H 0.7158 0.6298 0.3679
Ni3 Ni 0.76704(2) 0.76784(2) 0.26828(2)
N4 N 0.71821(18) 0.16945(16) 0.09550(19)
O2 O 0.73822(17) 0.38543(14) 0.97789(16)
N2 N 0.33055(16) 0.21821(18) 0.84550(19)
C4 C 0.4077(2) 0.2380(2) 0.8269(2)
O4 O 0.68069(14) 0.22623(16) 0.90548(15)
C6 C 0.4686(2) 0.2294(2) 0.8889(2)
C7 C 0.5028(2) 0.2860(3) 0.7227(3)
H3 H 0.5155 0.3052 0.6668
C8 C 0.6130(2) 0.2504(2) 0.9314(2)
C9 C 0.4265(2) 0.2678(2) 0.7428(2)
H4 H 0.3860 0.2748 0.7012
C10 C 0.4481(2) 0.1946(2) 0.9713(2)
C11 C 0.5469(2) 0.2520(2) 0.8665(2)
C12 C 0.3731(2) 0.1735(2) 0.9865(2)
C14 C 0.5631(2) 0.2765(3) 0.7853(2)
H7 H 0.6162 0.2875 0.7698
H8 H 0.7874 0.5159 0.9530
H10 H 0.8107 0.6511 0.9721
C19 C 0.3149(2) 0.1875(2) 0.9217(3)
H11 H 0.2618 0.1739 0.9343
Ni2 Ni 0.23296(2) 0.23216(2) 0.76828(2)
N3 N 0.85310(16) 0.24836(17) 0.9982(2)
Ni1_2 Ni 0.26784(2) 0.73296(2) 0.51828(2)
N1_2 N 0.25164(17) 0.35310(16) 0.7482(2)
O1_2 O 0.25609(15) 0.64618(14) 0.61536(15)
O2_2 O 0.26178(17) 0.61457(14) 0.47789(16)
C1_2 C 0.2559(2) 0.47370(19) 0.6594(2)
C2_2 C 0.2552(2) 0.5940(2) 0.5560(2)
O3_2 O 0.39641(14) 0.72401(16) 0.50698(17)
N2_2 N 0.66945(16) 0.78179(18) 0.34550(19)
C3_2 C 0.2148(3) 0.3461(2) 0.5987(2)
H1_2 H 0.2037 0.2917 0.6059
C4_2 C 0.5923(2) 0.7620(2) 0.3269(2)
C5_2 C 0.2832(2) 0.5154(2) 0.7326(2)
H2_2 H 0.2950 0.5700 0.7283
O4_2 O 0.31931(14) 0.77377(16) 0.40548(15)
C6_2 C 0.5314(2) 0.7706(2) 0.3889(2)
C7_2 C 0.4972(2) 0.7140(3) 0.2227(3)
H3_2 H 0.4845 0.6948 0.1668
C8_2 C 0.3870(2) 0.7496(2) 0.4314(2)
C9_2 C 0.5735(2) 0.7322(2) 0.2428(2)
H4_2 H 0.6140 0.7252 0.2012
C10_2 C 0.5519(2) 0.8054(2) 0.4713(2)
H5_2 H 0.5126 0.8132 0.5141
C11_2 C 0.4531(2) 0.7480(2) 0.3665(2)
C12_2 C 0.6269(2) 0.8265(2) 0.4865(2)
H6_2 H 0.6411 0.8505 0.5397
C13_2 C 0.2443(2) 0.5076(2) 0.5761(2)
C14_2 C 0.4369(2) 0.7235(3) 0.2853(2)
H7_2 H 0.3838 0.7125 0.2698
C15_2 C 0.2198(3) 0.4611(2) 0.5083(3)
H8_2 H 0.2126 0.4841 0.4530
C16_2 C 0.2409(2) 0.3911(2) 0.6702(2)
C17_2 C 0.2928(3) 0.4765(2) 0.8104(2)
H9_2 H 0.3101 0.5041 0.8602
C18_2 C 0.2055(3) 0.3801(2) 0.5198(3)
H10_2 H 0.1893 0.3489 0.4721
C19_2 C 0.6851(2) 0.8125(2) 0.4217(3)
H11_2 H 0.7382 0.8261 0.4343
C20_2 C 0.2767(2) 0.3962(2) 0.8142(2)
H12_2 H 0.2842 0.3702 0.8679
N3_2 N 0.14690(16) 0.75164(17) 0.4982(2)
N4_2 N 0.28179(18) 0.83055(16) 0.59550(19)
O1_3 O 0.14618(14) 0.24391(15) 0.86536(15)
O2_3 O 0.11457(14) 0.23822(17) 0.72789(16)
C2_3 C 0.0940(2) 0.2448(2) 0.8060(2)
O3_3 O 0.22401(16) 0.10359(14) 0.75698(17)
C5_3 C 0.0154(2) 0.2168(2) 0.9826(2)
H2_3 H 0.0700 0.2050 0.9783
O4_3 O 0.27377(16) 0.18069(14) 0.65548(15)
C7_3 C 0.2140(3) 0.0028(2) 0.4727(3)
H3_3 H 0.1948 0.0155 0.4168
C8_3 C 0.2496(2) 0.1130(2) 0.6814(2)
C11_3 C 0.2480(2) 0.0469(2) 0.6165(2)
C13_3 C 0.0076(2) 0.2557(2) 0.8261(2)
C14_3 C 0.2235(3) 0.0631(2) 0.5353(2)
H7_3 H 0.2125 0.1162 0.5198
C4_3 C 0.2620(2) 0.9077(2) 0.5769(2)
C6_3 C 0.2706(2) 0.9686(2) 0.6389(2)
C9_3 C 0.2322(2) 0.9265(2) 0.4928(2)
H4_3 H 0.2252 0.8860 0.4512
C10_3 C 0.3054(2) 0.9481(2) 0.7213(2)
H5_3 H 0.3132 0.9874 0.7641
C12_3 C 0.3265(2) 0.8731(2) 0.7365(2)
H6_3 H 0.3505 0.8589 0.7897
C19_3 C 0.3125(2) 0.8149(2) 0.6717(3)
H11_3 H 0.3261 0.7618 0.6843
C17_3 C 0.9765(2) 0.2072(3) 0.0604(2)
C20_3 C 0.8962(2) 0.2233(2) 0.0642(2)
H12_3 H 0.8702 0.2158 0.1179
C1_3 C 0.97370(19) 0.2441(2) 0.9094(2)
C3_3 C 0.8461(2) 0.2852(3) 0.8487(2)
H1_3 H 0.7917 0.2963 0.8559
C15_3 C 0.9611(2) 0.2802(3) 0.7583(3)
H8_3 H 0.9841 0.2874 0.7030
C16_3 C 0.8911(2) 0.2591(2) 0.9202(2)
C18_3 C 0.8801(2) 0.2945(3) 0.7698(3)
H10_3 H 0.8489 0.3107 0.7221
C1_4 C 0.02630(19) 0.7559(2) 0.4094(2)
C3_4 C 0.1539(2) 0.7148(3) 0.3487(2)
H1_4 H 0.2083 0.7037 0.3559
C15_4 C 0.0389(2) 0.7198(3) 0.2583(3)
H8_4 H 0.0159 0.7126 0.2030
C16_4 C 0.1089(2) 0.7409(2) 0.4202(2)
C17_4 C 0.0235(2) 0.7928(3) 0.5604(2)
C18_4 C 0.1199(2) 0.7055(3) 0.2698(3)
H10_4 H 0.1511 0.6893 0.2221
C20_4 C 0.1038(2) 0.7767(2) 0.5642(2)
H12_4 H 0.1298 0.7842 0.6179
C4_4 C 0.7380(2) 0.0923(2) 0.0769(2)
C6_4 C 0.7294(2) 0.0314(2) 0.1389(2)
C10_4 C 0.6946(2) 0.0519(2) 0.2213(2)
H5_4 H 0.6868 0.0126 0.2641
C12_4 C 0.6735(2) 0.1269(2) 0.2365(2)
H6_4 H 0.6495 0.1411 0.2897
C19_4 C 0.6875(2) 0.1851(2) 0.1717(3)
H11_4 H 0.6739 0.2382 0.1843
O1_4 O 0.85382(14) 0.75609(15) 0.36536(15)
O2_4 O 0.88543(14) 0.76178(17) 0.22789(16)
C2_4 C 0.9060(2) 0.7552(2) 0.3060(2)
O3_4 O 0.77599(16) 0.89641(14) 0.25698(17)
C5_4 C 0.9846(2) 0.7832(2) 0.4826(2)
H2_4 H 0.9300 0.7950 0.4783
O4_4 O 0.72623(16) 0.81931(14) 0.15548(15)
C8_4 C 0.7504(2) 0.8870(2) 0.1814(2)
C11_4 C 0.7520(2) 0.9531(2) 0.1165(2)
C13_4 C 0.9924(2) 0.7443(2) 0.3261(2)
C14_4 C 0.7765(3) 0.9369(2) 0.0353(2)
H7_4 H 0.7875 0.8838 0.0198
H9_3 H 0.9959 0.8101 0.6102
H9_4 H 0.0041 0.1899 0.1102
C9_4 C 0.7678(2) 0.0735(2) 0.9928(2)
H4_4 H 0.7748 0.1140 0.9512
C7_4 C 0.7860(3) 0.9972(2) 0.9727(3)
H3_4 H 0.8052 0.9845 0.9168
C9_5 C 0.0735(2) 0.7678(2) 0.0072(2)
H4_5 H 0.1140 0.7748 0.0488
N2_3 N 0.16945(16) 0.71821(18) 0.90450(19)
C4_5 C 0.0923(2) 0.7380(2) 0.9231(2)
C6_5 C 0.0314(2) 0.7294(2) 0.8611(2)
C10_5 C 0.0519(2) 0.6946(2) 0.7787(2)
H5_5 H 0.0126 0.6868 0.7359
C12_5 C 0.1269(2) 0.6735(2) 0.7635(2)
H6_5 H 0.1411 0.6495 0.7103
C19_5 C 0.1851(2) 0.6875(2) 0.8283(3)
H11_5 H 0.2382 0.6739 0.8157
Ni2_2 Ni 0.26704(2) 0.73216(2) 0.98172(2)
N1_3 N 0.75164(17) 0.14690(16) 0.5018(2)
C1_5 C 0.7559(2) 0.02630(19) 0.5906(2)
C3_5 C 0.7148(3) 0.1539(2) 0.6513(2)
H1_5 H 0.7037 0.2083 0.6441
C15_5 C 0.7198(3) 0.0389(2) 0.7417(3)
H8_5 H 0.7126 0.0159 0.7970
C16_5 C 0.7409(2) 0.1089(2) 0.5798(2)
C17_5 C 0.7928(3) 0.0235(2) 0.4396(2)
C18_5 C 0.7055(3) 0.1199(2) 0.7302(3)
H10_5 H 0.6893 0.1511 0.7779
C20_5 C 0.7767(2) 0.1038(2) 0.4358(2)
H12_5 H 0.7842 0.1298 0.3821
Ni3_2 Ni 0.73296(2) 0.26784(2) 0.48172(2)
Ni1_3 Ni 0.76784(2) 0.76704(2) 0.73172(2)
O1_5 O 0.75609(15) 0.85382(14) 0.63464(15)
O2_5 O 0.76178(17) 0.88543(14) 0.77211(16)
C2_5 C 0.7552(2) 0.9060(2) 0.6940(2)
O3_5 O 0.89641(14) 0.77599(16) 0.74302(17)
C5_5 C 0.7832(2) 0.9846(2) 0.5174(2)
H2_5 H 0.7950 0.9300 0.5217
O4_5 O 0.81931(14) 0.72623(16) 0.84452(15)
C8_5 C 0.8870(2) 0.7504(2) 0.8186(2)
C11_5 C 0.9531(2) 0.7520(2) 0.8835(2)
C13_5 C 0.7443(2) 0.9924(2) 0.6739(2)
C14_5 C 0.9369(2) 0.7765(3) 0.9647(2)
H7_5 H 0.8838 0.7875 0.9802
H9_5 H 0.8101 0.9959 0.3898
N3_3 N 0.64690(16) 0.74836(17) 0.7518(2)
N4_3 N 0.78179(18) 0.66945(16) 0.65450(19)
Ni1_4 Ni 0.23216(2) 0.23296(2) 0.23172(2)
O1_6 O 0.24391(15) 0.14618(14) 0.13464(15)
O2_6 O 0.23822(17) 0.11457(14) 0.27211(16)
C2_6 C 0.2448(2) 0.0940(2) 0.1940(2)
O3_6 O 0.10359(14) 0.22401(16) 0.24302(17)
C5_6 C 0.2168(2) 0.0154(2) 0.0174(2)
H2_6 H 0.2050 0.0700 0.0217
O4_6 O 0.18069(14) 0.27377(16) 0.34452(15)
C7_5 C 0.0028(2) 0.2140(3) 0.5273(3)
H3_5 H 0.0155 0.1948 0.5832
C8_6 C 0.1130(2) 0.2496(2) 0.3186(2)
C11_6 C 0.0469(2) 0.2480(2) 0.3835(2)
C13_6 C 0.2557(2) 0.0076(2) 0.1739(2)
C14_6 C 0.0631(2) 0.2235(3) 0.4647(2)
H7_6 H 0.1162 0.2125 0.4802
N3_4 N 0.35310(16) 0.25164(17) 0.2518(2)
N4_4 N 0.21821(18) 0.33055(16) 0.15450(19)
N1_4 N 0.24836(17) 0.85310(16) 0.0018(2)
C1_6 C 0.2441(2) 0.97370(19) 0.0906(2)
C3_6 C 0.2852(3) 0.8461(2) 0.1513(2)
H1_6 H 0.2963 0.7917 0.1441
C15_6 C 0.2802(3) 0.9611(2) 0.2417(3)
H8_6 H 0.2874 0.9841 0.2970
C16_6 C 0.2591(2) 0.8911(2) 0.0798(2)
C18_6 C 0.2945(3) 0.8801(2) 0.2302(3)
H10_6 H 0.3107 0.8489 0.2779
C17_6 C 0.2072(3) 0.9765(2) 0.9396(2)
C20_6 C 0.2233(2) 0.8962(2) 0.9358(2)
H12_6 H 0.2158 0.8702 0.8821
N2_4 N 0.83055(16) 0.28179(18) 0.40450(19)
C4_6 C 0.9077(2) 0.2620(2) 0.4231(2)
C6_6 C 0.9686(2) 0.2706(2) 0.3611(2)
C9_6 C 0.9265(2) 0.2322(2) 0.5072(2)
H4_6 H 0.8860 0.2252 0.5488
C10_6 C 0.9481(2) 0.3054(2) 0.2787(2)
H5_6 H 0.9874 0.3132 0.2359
C12_6 C 0.8731(2) 0.3265(2) 0.2635(2)
H6_6 H 0.8589 0.3505 0.2103
C19_6 C 0.8149(2) 0.3125(2) 0.3283(3)
H11_6 H 0.7618 0.3261 0.3157
O2_7 O 0.38543(14) 0.73822(17) 0.02211(16)
C4_7 C 0.2380(2) 0.4077(2) 0.1731(2)
O4_7 O 0.22623(16) 0.68069(14) 0.09452(15)
C6_7 C 0.2294(2) 0.4686(2) 0.1111(2)
C7_6 C 0.2860(3) 0.5028(2) 0.2773(3)
H3_6 H 0.3052 0.5155 0.3332
C8_7 C 0.2504(2) 0.6130(2) 0.0686(2)
C9_7 C 0.2678(2) 0.4265(2) 0.2572(2)
H4_7 H 0.2748 0.3860 0.2988
C10_7 C 0.1946(2) 0.4481(2) 0.0287(2)
C11_7 C 0.2520(2) 0.5469(2) 0.1335(2)
C12_7 C 0.1735(2) 0.3731(2) 0.0135(2)
C14_7 C 0.2765(3) 0.5631(2) 0.2147(2)
H7_7 H 0.2875 0.6162 0.2302
H8_7 H 0.5159 0.7874 0.0470
H10_7 H 0.6511 0.8107 0.0279
C19_7 C 0.1875(2) 0.3149(2) 0.0783(3)
H11_7 H 0.1739 0.2618 0.0657
O1_7 O 0.35382(14) 0.74391(15) 0.88464(15)
C1_7 C 0.52630(19) 0.7441(2) 0.8406(2)
C2_7 C 0.4060(2) 0.7448(2) 0.9440(2)
O3_7 O 0.27599(16) 0.60359(14) 0.99302(17)
C3_7 C 0.6539(2) 0.7852(3) 0.9013(2)
H1_7 H 0.7083 0.7963 0.8941
C5_7 C 0.4846(2) 0.7168(2) 0.7674(2)
H2_7 H 0.4300 0.7050 0.7717
H5_7 H 0.1868 0.4874 0.9859
H6_7 H 0.1495 0.3589 0.9603
C13_7 C 0.4924(2) 0.7557(2) 0.9239(2)
C15_7 C 0.5389(2) 0.7802(3) 0.9917(3)
C16_7 C 0.6089(2) 0.7591(2) 0.8298(2)
C17_7 C 0.5235(2) 0.7072(3) 0.6896(2)
H9_6 H 0.4959 0.6899 0.6398
C18_7 C 0.6199(2) 0.7945(3) 0.9802(3)
C20_7 C 0.6038(2) 0.7233(2) 0.6858(2)
H12_7 H 0.6298 0.7158 0.6321
O1_8 O 0.64618(14) 0.25609(15) 0.38464(15)
O2_8 O 0.61457(14) 0.26178(17) 0.52211(16)
C1_8 C 0.47370(19) 0.2559(2) 0.3406(2)
C2_8 C 0.5940(2) 0.2552(2) 0.4440(2)
O3_8 O 0.72401(16) 0.39641(14) 0.49302(17)
C3_8 C 0.3461(2) 0.2148(3) 0.4013(2)
H1_8 H 0.2917 0.2037 0.3941
C4_8 C 0.7620(2) 0.5923(2) 0.6731(2)
C5_8 C 0.5154(2) 0.2832(2) 0.2674(2)
H2_8 H 0.5700 0.2950 0.2717
O4_8 O 0.77377(16) 0.31931(14) 0.59452(15)
C6_8 C 0.7706(2) 0.5314(2) 0.6111(2)
C7_7 C 0.7140(3) 0.4972(2) 0.7773(3)
H3_7 H 0.6948 0.4845 0.8332
C8_8 C 0.7496(2) 0.3870(2) 0.5686(2)
C9_8 C 0.7322(2) 0.5735(2) 0.7572(2)
H4_8 H 0.7252 0.6140 0.7988
C10_8 C 0.8054(2) 0.5519(2) 0.5287(2)
H5_8 H 0.8132 0.5126 0.4859
C11_8 C 0.7480(2) 0.4531(2) 0.6335(2)
C12_8 C 0.8265(2) 0.6269(2) 0.5135(2)
H6_8 H 0.8505 0.6411 0.4603
C13_8 C 0.5076(2) 0.2443(2) 0.4239(2)
C14_8 C 0.7235(3) 0.4369(2) 0.7147(2)
H7_8 H 0.7125 0.3838 0.7302
C15_8 C 0.4611(2) 0.2198(3) 0.4917(3)
H8_8 H 0.4841 0.2126 0.5470
C16_8 C 0.3911(2) 0.2409(2) 0.3298(2)
C17_8 C 0.4765(2) 0.2928(3) 0.1896(2)
H9_7 H 0.5041 0.3101 0.1398
C18_8 C 0.3801(2) 0.2055(3) 0.4802(3)
H10_8 H 0.3489 0.1893 0.5279
C19_8 C 0.8125(2) 0.6851(2) 0.5783(3)
H11_8 H 0.8261 0.7382 0.5657
C20_8 C 0.3962(2) 0.2767(2) 0.1858(2)
H12_8 H 0.3702 0.2842 0.1321
C7_8 C 0.9972(2) 0.7860(3) 0.0273(3)
H3_8 H 0.9845 0.8052 0.0832
H9_8 H 0.1899 0.0041 0.8898
loop_
_geom_bond_atom_site_label_1
_geom_bond_atom_site_label_2
_geom_bond_site_symmetry_1
_geom_bond_site_symmetry_2
Ni1 O1 1_555 1_555
N1 C16 1_555 1_555
O1 C2 1_555 1_555
C1 C5 1_555 1_555
O3 Ni1 1_555 1_555
C3 H1 1_555 1_555
C5 H2 1_555 1_555
C13 C1 1_555 1_555
C15 C13 1_555 1_555
C16 C1 1_555 1_555
C17 C5 1_555 1_555
H9 C17 1_555 1_555
C18 C3 1_555 1_555
C20 N1 1_555 1_555
H12 C20 1_555 1_555
Ni3 N1 1_555 1_555
N4 Ni1 1_555 1_555
C2 C13 1_555 1_555
C3 C16 1_555 1_555
C15 C18 1_555 1_555
C17 C20 1_555 1_555
N2 C4 1_555 1_555
C4 C6 1_555 1_555
C6 C10 1_555 1_555
C7 H3 1_555 1_555
C9 C4 1_555 1_555
H4 C9 1_555 1_555
C11 C6 1_555 1_555
C12 C10 1_555 1_555
C14 C7 1_555 1_555
H7 C14 1_555 1_555
C19 N2 1_555 1_555
H11 C19 1_555 1_555
Ni2 N2 1_555 1_555
O4 C8 1_555 1_555
C7 C9 1_555 1_555
C8 C11 1_555 1_555
C11 C14 1_555 1_555
C12 C19 1_555 1_555
Ni1_2 O1_2 1_555 1_555
N1_2 C16_2 1_555 1_555
O1_2 C2_2 1_555 1_555
O2_2 Ni1_2 1_555 1_555
C1_2 C5_2 1_555 1_555
C2_2 O2_2 1_555 1_555
O3_2 Ni1_2 1_555 1_555
N2_2 C4_2 1_555 1_555
C3_2 H1_2 1_555 1_555
C4_2 C6_2 1_555 1_555
C5_2 H2_2 1_555 1_555
O4_2 Ni1_2 1_555 1_555
C6_2 C10_2 1_555 1_555
C7_2 H3_2 1_555 1_555
C8_2 O3_2 1_555 1_555
C9_2 C4_2 1_555 1_555
H4_2 C9_2 1_555 1_555
C10_2 H5_2 1_555 1_555
C11_2 C6_2 1_555 1_555
C12_2 C10_2 1_555 1_555
H6_2 C12_2 1_555 1_555
C13_2 C1_2 1_555 1_555
C14_2 C7_2 1_555 1_555
H7_2 C14_2 1_555 1_555
C15_2 C13_2 1_555 1_555
H8_2 C15_2 1_555 1_555
C16_2 C1_2 1_555 1_555
C17_2 C5_2 1_555 1_555
H9_2 C17_2 1_555 1_555
C18_2 C3_2 1_555 1_555
H10_2 C18_2 1_555 1_555
C19_2 N2_2 1_555 1_555
H11_2 C19_2 1_555 1_555
C20_2 N1_2 1_555 1_555
H12_2 C20_2 1_555 1_555
Ni3 N2_2 1_555 1_555
Ni2 N1_2 1_555 1_555
N3_2 Ni1_2 1_555 1_555
N4_2 Ni1_2 1_555 1_555
C2_2 C13_2 1_555 1_555
C3_2 C16_2 1_555 1_555
O4_2 C8_2 1_555 1_555
C7_2 C9_2 1_555 1_555
C8_2 C11_2 1_555 1_555
C11_2 C14_2 1_555 1_555
C12_2 C19_2 1_555 1_555
C15_2 C18_2 1_555 1_555
C17_2 C20_2 1_555 1_555
Ni2 O1_3 1_555 1_555
O1_3 C2_3 1_555 1_555
O2_3 Ni2 1_555 1_555
C2_3 O2_3 1_555 1_555
O3_3 Ni2 1_555 1_555
C5_3 H2_3 1_555 1_555
O4_3 Ni2 1_555 1_555
C7_3 H3_3 1_555 1_555
C8_3 O3_3 1_555 1_555
C14_3 C7_3 1_555 1_555
H7_3 C14_3 1_555 1_555
C2_3 C13_3 1_555 1_555
O4_3 C8_3 1_555 1_555
C8_3 C11_3 1_555 1_555
C11_3 C14_3 1_555 1_555
N4_2 C4_3 1_555 1_555
C4_3 C6_3 1_555 1_555
C6_3 C10_3 1_555 1_555
C9_3 C4_3 1_555 1_555
H4_3 C9_3 1_555 1_555
C10_3 H5_3 1_555 1_555
C12_3 C10_3 1_555 1_555
H6_3 C12_3 1_555 1_555
C19_3 N4_2 1_555 1_555
H11_3 C19_3 1_555 1_555
C12_3 C19_3 1_555 1_555
H12_3 C20_3 1_555 1_555
C17_3 C20_3 1_555 1_555
N3 C16_3 1_555 1_555
C3_3 H1_3 1_555 1_555
H8_3 C15_3 1_555 1_555
C16_3 C1_3 1_555 1_555
C18_3 C3_3 1_555 1_555
H10_3 C18_3 1_555 1_555
C3_3 C16_3 1_555 1_555
C15_3 C18_3 1_555 1_555
N3_2 C16_4 1_555 1_555
C3_4 H1_4 1_555 1_555
H8_4 C15_4 1_555 1_555
C16_4 C1_4 1_555 1_555
C18_4 C3_4 1_555 1_555
H10_4 C18_4 1_555 1_555
C20_4 N3_2 1_555 1_555
H12_4 C20_4 1_555 1_555
C3_4 C16_4 1_555 1_555
C15_4 C18_4 1_555 1_555
C17_4 C20_4 1_555 1_555
N4 C4_4 1_555 1_555
C4_4 C6_4 1_555 1_555
C6_4 C10_4 1_555 1_555
C10_4 H5_4 1_555 1_555
C12_4 C10_4 1_555 1_555
H6_4 C12_4 1_555 1_555
C19_4 N4 1_555 1_555
H11_4 C19_4 1_555 1_555
C12_4 C19_4 1_555 1_555
Ni3 O1_4 1_555 1_555
O1_4 C2_4 1_555 1_555
O2_4 Ni3 1_555 1_555
C2_4 O2_4 1_555 1_555
O3_4 Ni3 1_555 1_555
C5_4 H2_4 1_555 1_555
O4_4 Ni3 1_555 1_555
C8_4 O3_4 1_555 1_555
H7_4 C14_4 1_555 1_555
C2_4 C13_4 1_555 1_555
O4_4 C8_4 1_555 1_555
C8_4 C11_4 1_555 1_555
C11_4 C14_4 1_555 1_555
H4_4 C9_4 1_555 1_555
C7_4 H3_4 1_555 1_555
H4_5 C9_5 1_555 1_555
N2_3 C4_5 1_555 1_555
C4_5 C6_5 1_555 1_555
C6_5 C10_5 1_555 1_555
C10_5 H5_5 1_555 1_555
C12_5 C10_5 1_555 1_555
H6_5 C12_5 1_555 1_555
C19_5 N2_3 1_555 1_555
H11_5 C19_5 1_555 1_555
Ni2_2 N2_3 1_555 1_555
C12_5 C19_5 1_555 1_555
N1_3 C16_5 1_555 1_555
C3_5 H1_5 1_555 1_555
H8_5 C15_5 1_555 1_555
C16_5 C1_5 1_555 1_555
C18_5 C3_5 1_555 1_555
H10_5 C18_5 1_555 1_555
C20_5 N1_3 1_555 1_555
H12_5 C20_5 1_555 1_555
Ni3_2 N1_3 1_555 1_555
C3_5 C16_5 1_555 1_555
C15_5 C18_5 1_555 1_555
C17_5 C20_5 1_555 1_555
Ni1_3 O1_5 1_555 1_555
O1_5 C2_5 1_555 1_555
O2_5 Ni1_3 1_555 1_555
C2_5 O2_5 1_555 1_555
O3_5 Ni1_3 1_555 1_555
C5_5 H2_5 1_555 1_555
O4_5 Ni1_3 1_555 1_555
C8_5 O3_5 1_555 1_555
H7_5 C14_5 1_555 1_555
N3_3 Ni1_3 1_555 1_555
N4_3 Ni1_3 1_555 1_555
C2_5 C13_5 1_555 1_555
O4_5 C8_5 1_555 1_555
C8_5 C11_5 1_555 1_555
C11_5 C14_5 1_555 1_555
Ni1_4 O1_6 1_555 1_555
O1_6 C2_6 1_555 1_555
O2_6 Ni1_4 1_555 1_555
C2_6 O2_6 1_555 1_555
O3_6 Ni1_4 1_555 1_555
C5_6 H2_6 1_555 1_555
O4_6 Ni1_4 1_555 1_555
C7_5 H3_5 1_555 1_555
C8_6 O3_6 1_555 1_555
C14_6 C7_5 1_555 1_555
H7_6 C14_6 1_555 1_555
N3_4 Ni1_4 1_555 1_555
N4_4 Ni1_4 1_555 1_555
C2_6 C13_6 1_555 1_555
O4_6 C8_6 1_555 1_555
C8_6 C11_6 1_555 1_555
C11_6 C14_6 1_555 1_555
N1_4 C16_6 1_555 1_555
C3_6 H1_6 1_555 1_555
H8_6 C15_6 1_555 1_555
C16_6 C1_6 1_555 1_555
C18_6 C3_6 1_555 1_555
H10_6 C18_6 1_555 1_555
C3_6 C16_6 1_555 1_555
C15_6 C18_6 1_555 1_555
H12_6 C20_6 1_555 1_555
C17_6 C20_6 1_555 1_555
N2_4 C4_6 1_555 1_555
C4_6 C6_6 1_555 1_555
C6_6 C10_6 1_555 1_555
C9_6 C4_6 1_555 1_555
H4_6 C9_6 1_555 1_555
C10_6 H5_6 1_555 1_555
C12_6 C10_6 1_555 1_555
H6_6 C12_6 1_555 1_555
C19_6 N2_4 1_555 1_555
H11_6 C19_6 1_555 1_555
Ni3_2 N2_4 1_555 1_555
C12_6 C19_6 1_555 1_555
N4_4 C4_7 1_555 1_555
C4_7 C6_7 1_555 1_555
C6_7 C10_7 1_555 1_555
C7_6 H3_6 1_555 1_555
C9_7 C4_7 1_555 1_555
H4_7 C9_7 1_555 1_555
C11_7 C6_7 1_555 1_555
C12_7 C10_7 1_555 1_555
C14_7 C7_6 1_555 1_555
H7_7 C14_7 1_555 1_555
C19_7 N4_4 1_555 1_555
H11_7 C19_7 1_555 1_555
O4_7 C8_7 1_555 1_555
C7_6 C9_7 1_555 1_555
C8_7 C11_7 1_555 1_555
C11_7 C14_7 1_555 1_555
C12_7 C19_7 1_555 1_555
Ni2_2 O1_7 1_555 1_555
N3_3 C16_7 1_555 1_555
O1_7 C2_7 1_555 1_555
C1_7 C5_7 1_555 1_555
O3_7 Ni2_2 1_555 1_555
C3_7 H1_7 1_555 1_555
C5_7 H2_7 1_555 1_555
C13_7 C1_7 1_555 1_555
C15_7 C13_7 1_555 1_555
C16_7 C1_7 1_555 1_555
C17_7 C5_7 1_555 1_555
H9_6 C17_7 1_555 1_555
C18_7 C3_7 1_555 1_555
C20_7 N3_3 1_555 1_555
H12_7 C20_7 1_555 1_555
C2_7 C13_7 1_555 1_555
C3_7 C16_7 1_555 1_555
C15_7 C18_7 1_555 1_555
C17_7 C20_7 1_555 1_555
Ni3_2 O1_8 1_555 1_555
N3_4 C16_8 1_555 1_555
O1_8 C2_8 1_555 1_555
O2_8 Ni3_2 1_555 1_555
C1_8 C5_8 1_555 1_555
C2_8 O2_8 1_555 1_555
O3_8 Ni3_2 1_555 1_555
N4_3 C4_8 1_555 1_555
C3_8 H1_8 1_555 1_555
C4_8 C6_8 1_555 1_555
C5_8 H2_8 1_555 1_555
O4_8 Ni3_2 1_555 1_555
C6_8 C10_8 1_555 1_555
C7_7 H3_7 1_555 1_555
C8_8 O3_8 1_555 1_555
C9_8 C4_8 1_555 1_555
H4_8 C9_8 1_555 1_555
C10_8 H5_8 1_555 1_555
C11_8 C6_8 1_555 1_555
C12_8 C10_8 1_555 1_555
H6_8 C12_8 1_555 1_555
C13_8 C1_8 1_555 1_555
C14_8 C7_7 1_555 1_555
H7_8 C14_8 1_555 1_555
C15_8 C13_8 1_555 1_555
H8_8 C15_8 1_555 1_555
C16_8 C1_8 1_555 1_555
C17_8 C5_8 1_555 1_555
H9_7 C17_8 1_555 1_555
C18_8 C3_8 1_555 1_555
H10_8 C18_8 1_555 1_555
C19_8 N4_3 1_555 1_555
H11_8 C19_8 1_555 1_555
C20_8 N3_4 1_555 1_555
H12_8 C20_8 1_555 1_555
C2_8 C13_8 1_555 1_555
C3_8 C16_8 1_555 1_555
O4_8 C8_8 1_555 1_555
C7_7 C9_8 1_555 1_555
C8_8 C11_8 1_555 1_555
C11_8 C14_8 1_555 1_555
C12_8 C19_8 1_555 1_555
C15_8 C18_8 1_555 1_555
C17_8 C20_8 1_555 1_555
C7_8 H3_8 1_555 1_555

#END
