
###############################################################################
#
# This file contains modified crystal structure data generated from the
# MOF subset of the Cambridge Structural Database (CSD) v543 
# hosted by the Cambridge Crystallographic Data Centre (CCDC).
#
# This work is licensed under the Creative Commons
# Attribution-NonCommercial-ShareAlike 4.0 International License.
# To view a copy of this license, visit
# http://creativecommons.org/licenses/by-nc-sa/4.0/
# or send a letter to
# Creative Commons, PO Box 1866, Mountain View, CA 94042, USA.
#
# CIF created using the CSD Python API on 29 September 2022
# The structure has been converted into the P1 space group
# The structure has a 3D framework
# The original CSD entry ARAKAH is in the tetragonal crystal system
# The original CSD entry ARAKAH is in a Sohncke space group
# The framework has been calculated to contain at least 10.0% void space
# The void calculation uses a probe of radius 1.32A, grid spacing 0.4
#
###############################################################################

data_ARAKAH
_chemical_formula_moiety         '(C160 H96 N16 O32 Zn8)n'
_symmetry_cell_setting           triclinic
_symmetry_space_group_name_H-M   'P 1'
_symmetry_Int_Tables_number      1
_space_group_name_Hall           'P 1'
loop_
_symmetry_equiv_pos_site_id
_symmetry_equiv_pos_as_xyz
1 x,y,z
_cell_length_a                   17.2452(7)
_cell_length_b                   17.2452(7)
_cell_length_c                   15.4338(10)
_cell_angle_alpha                90
_cell_angle_beta                 90
_cell_angle_gamma                90
_cell_volume                     4589.96
loop_
_atom_site_label
_atom_site_type_symbol
_atom_site_fract_x
_atom_site_fract_y
_atom_site_fract_z
O1 O 0.12451(14) 0.25369(18) 0.28102(18)
C1 C 0.10508(19) 0.2539(2) 0.2025(3)
O3 O 0.15625(12) 0.25193(15) 0.14326(16)
C10 C 0.0315(2) 0.2161(2) 0.0249(3)
H4 H 0.0849 0.2097 0.0290
C20 C 0.01999(18) 0.2578(2) 0.1809(2)
Zn3 Zn 0.24759(2) 0.25039(2) 0.23435(2)
C2 C 0.41658(18) 0.2448(2) 0.1691(2)
C3 C 0.55521(18) 0.2480(2) 0.1292(2)
N1 N 0.86878(15) 0.23296(16) 0.0087(2)
C4 C 0.90484(18) 0.2478(2) 0.0866(2)
O4 O 0.68640(13) 0.22308(14) 0.08950(17)
C5 C 0.3779(2) 0.1828(2) 0.0088(3)
C6 C 0.61931(18) 0.2452(2) 0.0623(2)
C7 C 0.4374(2) 0.2711(2) 0.2532(3)
H2 H 0.3989 0.2796 0.2943
C9 C 0.98761(18) 0.2411(2) 0.0983(2)
N2 N 0.33972(15) 0.23056(16) 0.1499(2)
C11 C 0.8578(2) 0.2715(2) 0.1571(3)
H5 H 0.8046 0.2764 0.1496
C12 C 0.8903(2) 0.2872(3) 0.2365(3)
H6 H 0.8590 0.3019 0.2827
C13 C 0.5136(2) 0.2841(2) 0.2747(3)
H7 H 0.5265 0.3002 0.3303
C14 C 0.4539(2) 0.1995(2) 0.0241(3)
C15 C 0.5726(2) 0.2728(2) 0.2117(3)
H9 H 0.6240 0.2824 0.2265
C16 C 0.47624(19) 0.2314(2) 0.1056(3)
C17 C 0.3222(2) 0.2011(2) 0.0741(3)
H10 H 0.2703 0.1915 0.0621
C19 C 0.9709(2) 0.2812(3) 0.2478(3)
H12 H 0.9921 0.2931 0.3015
O5 O 0.75369(18) 0.37549(14) 0.03102(18)
Zn1 Zn 0.75039(2) 0.25241(2) 0.98435(2)
O2 O 0.60714(13) 0.26732(15) 0.98743(18)
H1 H 0.3626 0.1600 0.9569
C8 C 0.9932(2) 0.2017(2) 0.9476(3)
H8 H 0.4910 0.1901 0.9817
C18 C 0.9131(2) 0.2106(2) 0.9421(3)
H11 H 0.8892 0.2005 0.8893
O6 O 0.75193(15) 0.34375(12) 0.89326(16)
N3 N 0.73056(16) 0.16028(15) 0.8999(2)
O1_2 O 0.24631(18) 0.62451(14) 0.53102(18)
C1_2 C 0.2461(2) 0.60508(19) 0.4525(3)
O2_2 O 0.23268(15) 0.10714(13) 0.23743(18)
O3_2 O 0.24807(15) 0.65625(12) 0.39326(16)
C3_2 C 0.2520(2) 0.05521(18) 0.3792(2)
N1_2 N 0.26704(16) 0.36878(15) 0.2587(2)
C4_2 C 0.2522(2) 0.40484(18) 0.3366(2)
O4_2 O 0.27692(14) 0.18640(13) 0.33950(17)
C6_2 C 0.2548(2) 0.11931(18) 0.3123(2)
C8_2 C 0.2983(2) 0.4932(2) 0.1976(3)
H3 H 0.3141 0.5212 0.1492
C9_2 C 0.2589(2) 0.48761(18) 0.3483(2)
C10_2 C 0.2839(2) 0.5315(2) 0.2749(3)
H4_2 H 0.2903 0.5849 0.2790
C11_2 C 0.2285(2) 0.3578(2) 0.4071(3)
H5_2 H 0.2236 0.3046 0.3996
C12_2 C 0.2128(3) 0.3903(2) 0.4865(3)
H6_2 H 0.1981 0.3590 0.5327
C13_2 C 0.2159(2) 0.0136(2) 0.5247(3)
H7_2 H 0.1998 0.0265 0.5803
C15_2 C 0.2272(2) 0.0726(2) 0.4617(3)
H9_2 H 0.2176 0.1240 0.4765
C18_2 C 0.2894(2) 0.4131(2) 0.1921(3)
H11_2 H 0.2995 0.3892 0.1393
C19_2 C 0.2188(3) 0.4709(2) 0.4978(3)
H12_2 H 0.2069 0.4921 0.5515
C20_2 C 0.2422(2) 0.51999(18) 0.4309(2)
Zn3_2 Zn 0.24961(2) 0.74759(2) 0.48435(2)
C2_2 C 0.2552(2) 0.91658(18) 0.4191(2)
C5_2 C 0.3172(2) 0.8779(2) 0.2588(3)
H1_2 H 0.3400 0.8626 0.2069
C7_2 C 0.2289(2) 0.9374(2) 0.5032(3)
H2_2 H 0.2204 0.8989 0.5443
N2_2 N 0.26944(16) 0.83972(15) 0.3999(2)
C14_2 C 0.3005(2) 0.9539(2) 0.2741(3)
H8_2 H 0.3099 0.9910 0.2317
C16_2 C 0.2686(2) 0.97624(19) 0.3556(3)
C17_2 C 0.2989(2) 0.8222(2) 0.3241(3)
H10_2 H 0.3085 0.7703 0.3121
O2_3 O 0.39286(13) 0.73268(15) 0.48743(18)
C2_3 C 0.58342(18) 0.7552(2) 0.6691(2)
C3_3 C 0.44479(18) 0.7520(2) 0.6292(2)
N1_3 N 0.13122(15) 0.76704(16) 0.5087(2)
C4_3 C 0.09516(18) 0.7522(2) 0.5866(2)
O4_3 O 0.31360(13) 0.77692(14) 0.58950(17)
C5_3 C 0.6221(2) 0.8172(2) 0.5088(3)
H1_3 H 0.6374 0.8400 0.4569
C6_3 C 0.38069(18) 0.7548(2) 0.5623(2)
C7_3 C 0.5626(2) 0.7289(2) 0.7532(3)
H2_3 H 0.6011 0.7204 0.7943
C8_3 C 0.0068(2) 0.7983(2) 0.4476(3)
C9_3 C 0.01239(18) 0.7589(2) 0.5983(2)
N2_3 N 0.66028(15) 0.76944(16) 0.6499(2)
C11_3 C 0.1422(2) 0.7285(2) 0.6571(3)
H5_3 H 0.1954 0.7236 0.6496
C12_3 C 0.1097(2) 0.7128(3) 0.7365(3)
H6_3 H 0.1410 0.6981 0.7827
C13_3 C 0.4864(2) 0.7159(2) 0.7747(3)
H7_3 H 0.4735 0.6998 0.8303
C14_3 C 0.5461(2) 0.8005(2) 0.5241(3)
H8_3 H 0.5090 0.8099 0.4817
C15_3 C 0.4274(2) 0.7272(2) 0.7117(3)
H9_3 H 0.3760 0.7176 0.7265
C16_3 C 0.52376(19) 0.7686(2) 0.6056(3)
C17_3 C 0.6778(2) 0.7989(2) 0.5741(3)
H10_3 H 0.7297 0.8085 0.5621
C18_3 C 0.0869(2) 0.7894(2) 0.4421(3)
H11_3 H 0.1108 0.7995 0.3893
C19_3 C 0.0291(2) 0.7188(3) 0.7478(3)
H12_3 H 0.0079 0.7069 0.8015
Zn2 Zn 0.75241(2) 0.74961(2) 0.73435(2)
O1_3 O 0.87549(14) 0.74631(18) 0.78102(18)
C1_3 C 0.89492(19) 0.7461(2) 0.7025(3)
O3_3 O 0.84375(12) 0.74807(15) 0.64326(16)
H3_2 H 0.9788 0.8141 0.3992
C10_3 C 0.9685(2) 0.7839(2) 0.5249(3)
H4_3 H 0.9151 0.7903 0.5290
C20_3 C 0.98001(18) 0.7422(2) 0.6809(2)
C2_4 C 0.7448(2) 0.08342(18) 0.9191(2)
C5_4 C 0.6828(2) 0.1221(2) 0.7588(3)
H1_4 H 0.6600 0.1374 0.7069
C14_4 C 0.6995(2) 0.0461(2) 0.7741(3)
H8_4 H 0.6901 0.0090 0.7317
C16_4 C 0.7314(2) 0.02376(19) 0.8556(3)
C17_4 C 0.7011(2) 0.1778(2) 0.8241(3)
H10_4 H 0.6915 0.2297 0.8121
H6_4 H 0.8019 0.6410 0.0327
C13_4 C 0.7841(2) 0.9864(2) 0.0247(3)
H7_4 H 0.8002 0.9735 0.0803
H12_4 H 0.7931 0.5079 0.0515
C1_4 C 0.7539(2) 0.39492(19) 0.9525(3)
O2_4 O 0.76732(15) 0.89286(13) 0.73743(18)
C3_4 C 0.7480(2) 0.94479(18) 0.8792(2)
N1_4 N 0.73296(16) 0.63122(15) 0.7587(2)
C4_4 C 0.7478(2) 0.59516(18) 0.8366(2)
O4_4 O 0.72308(14) 0.81360(13) 0.83950(17)
C6_4 C 0.7452(2) 0.88069(18) 0.8123(2)
C8_4 C 0.7017(2) 0.5068(2) 0.6976(3)
H3_3 H 0.6859 0.4788 0.6492
C9_4 C 0.7411(2) 0.51239(18) 0.8483(2)
C10_4 C 0.7161(2) 0.4685(2) 0.7749(3)
H4_4 H 0.7097 0.4151 0.7790
C11_4 C 0.7715(2) 0.6422(2) 0.9071(3)
H5_4 H 0.7764 0.6954 0.8996
C12_4 C 0.7872(3) 0.6097(2) 0.9865(3)
C15_4 C 0.7728(2) 0.9274(2) 0.9617(3)
H9_4 H 0.7824 0.8760 0.9765
C18_4 C 0.7106(2) 0.5869(2) 0.6921(3)
H11_4 H 0.7005 0.6108 0.6393
C19_4 C 0.7812(3) 0.5291(2) 0.9978(3)
C20_4 C 0.7578(2) 0.48001(18) 0.9309(2)
H3_4 H 0.0212 0.1859 0.8992
C7_4 C 0.7711(2) 0.0626(2) 0.0032(3)
H2_4 H 0.7796 0.1011 0.0443
Zn1_2 Zn 0.25039(2) 0.24759(2) 0.76565(2)
O1_4 O 0.62451(14) 0.24631(18) 0.46898(18)
C1_5 C 0.60508(19) 0.2461(2) 0.5475(3)
O2_5 O 0.10714(13) 0.23268(15) 0.76257(18)
O3_4 O 0.65625(12) 0.24807(15) 0.60674(16)
C3_5 C 0.05521(18) 0.2520(2) 0.6208(2)
N1_5 N 0.36878(15) 0.26704(16) 0.7413(2)
C4_5 C 0.40484(18) 0.2522(2) 0.6634(2)
O4_5 O 0.18640(13) 0.27692(14) 0.66050(17)
C6_5 C 0.11931(18) 0.2548(2) 0.6877(2)
C8_5 C 0.4932(2) 0.2983(2) 0.8024(3)
H3_5 H 0.5212 0.3141 0.8508
C9_5 C 0.48761(18) 0.2589(2) 0.6517(2)
C10_5 C 0.5315(2) 0.2839(2) 0.7251(3)
H4_5 H 0.5849 0.2903 0.7210
C11_5 C 0.3578(2) 0.2285(2) 0.5929(3)
H5_5 H 0.3046 0.2236 0.6004
C12_5 C 0.3903(2) 0.2128(3) 0.5135(3)
H6_5 H 0.3590 0.1981 0.4673
C13_5 C 0.0136(2) 0.2159(2) 0.4753(3)
H7_5 H 0.0265 0.1998 0.4197
C15_5 C 0.0726(2) 0.2272(2) 0.5383(3)
H9_5 H 0.1240 0.2176 0.5235
C18_5 C 0.4131(2) 0.2894(2) 0.8079(3)
H11_5 H 0.3892 0.2995 0.8607
C19_5 C 0.4709(2) 0.2188(3) 0.5022(3)
H12_5 H 0.4921 0.2069 0.4485
C20_5 C 0.51999(18) 0.2422(2) 0.5691(2)
Zn3_3 Zn 0.74759(2) 0.24961(2) 0.51565(2)
O5_2 O 0.25369(18) 0.12451(14) 0.71898(18)
O6_2 O 0.25193(15) 0.15625(12) 0.85674(16)
N3_2 N 0.23056(16) 0.33972(15) 0.8501(2)
C2_5 C 0.91658(18) 0.2552(2) 0.5809(2)
C5_5 C 0.8779(2) 0.3172(2) 0.7412(3)
H1_5 H 0.8626 0.3400 0.7931
C7_5 C 0.9374(2) 0.2289(2) 0.4968(3)
H2_5 H 0.8989 0.2204 0.4557
N2_4 N 0.83972(15) 0.26944(16) 0.6001(2)
C14_5 C 0.9539(2) 0.3005(2) 0.7259(3)
H8_5 H 0.9910 0.3099 0.7683
C16_5 C 0.97624(19) 0.2686(2) 0.6444(3)
C17_5 C 0.8222(2) 0.2989(2) 0.6759(3)
H10_5 H 0.7703 0.3085 0.6879
C2_6 C 0.08342(18) 0.7448(2) 0.0809(2)
C5_6 C 0.1221(2) 0.6828(2) 0.2412(3)
H1_6 H 0.1374 0.6600 0.2931
N2_5 N 0.16028(15) 0.73056(16) 0.1001(2)
C14_6 C 0.0461(2) 0.6995(2) 0.2259(3)
H8_6 H 0.0090 0.6901 0.2683
C16_6 C 0.02376(19) 0.7314(2) 0.1444(3)
C17_6 C 0.1778(2) 0.7011(2) 0.1759(3)
H10_6 H 0.2297 0.6915 0.1879
Zn2_2 Zn 0.25241(2) 0.75039(2) 0.01565(2)
Zn1_3 Zn 0.74961(2) 0.75241(2) 0.26565(2)
C1_6 C 0.39492(19) 0.7539(2) 0.0475(3)
O2_6 O 0.89286(13) 0.76732(15) 0.26257(18)
O3_5 O 0.34375(12) 0.75193(15) 0.10674(16)
C3_6 C 0.94479(18) 0.7480(2) 0.1208(2)
N1_6 N 0.63122(15) 0.73296(16) 0.2413(2)
C4_6 C 0.59516(18) 0.7478(2) 0.1634(2)
O4_6 O 0.81360(13) 0.72308(14) 0.16050(17)
C6_6 C 0.88069(18) 0.7452(2) 0.1877(2)
C8_6 C 0.5068(2) 0.7017(2) 0.3024(3)
H3_6 H 0.4788 0.6859 0.3508
C9_6 C 0.51239(18) 0.7411(2) 0.1517(2)
C10_6 C 0.4685(2) 0.7161(2) 0.2251(3)
H4_6 H 0.4151 0.7097 0.2210
C11_6 C 0.6422(2) 0.7715(2) 0.0929(3)
H5_6 H 0.6954 0.7764 0.1004
C12_6 C 0.6097(2) 0.7872(3) 0.0135(3)
C15_6 C 0.9274(2) 0.7728(2) 0.0383(3)
H9_6 H 0.8760 0.7824 0.0235
C18_6 C 0.5869(2) 0.7106(2) 0.3079(3)
H11_6 H 0.6108 0.7005 0.3607
C19_6 C 0.5291(2) 0.7812(3) 0.0022(3)
C20_6 C 0.48001(18) 0.7578(2) 0.0691(2)
O5_3 O 0.74631(18) 0.87549(14) 0.21898(18)
O6_3 O 0.74807(15) 0.84375(12) 0.35674(16)
N3_3 N 0.76944(16) 0.66028(15) 0.3501(2)
O1_5 O 0.37549(14) 0.75369(18) 0.96898(18)
H6_6 H 0.6410 0.8019 0.9673
C13_6 C 0.9864(2) 0.7841(2) 0.9753(3)
H7_6 H 0.9735 0.8002 0.9197
H12_6 H 0.5079 0.7931 0.9485
C1_7 C 0.2539(2) 0.10508(19) 0.7975(3)
C10_7 C 0.2161(2) 0.0315(2) 0.9751(3)
H4_7 H 0.2097 0.0849 0.9710
C20_7 C 0.2578(2) 0.01999(18) 0.8191(2)
O2_7 O 0.26732(15) 0.60714(13) 0.01257(18)
H1_7 H 0.1600 0.3626 0.0431
C8_7 C 0.2017(2) 0.9932(2) 0.0524(3)
H8_7 H 0.1901 0.4910 0.0183
C18_7 C 0.2106(2) 0.9131(2) 0.0579(3)
H11_7 H 0.2005 0.8892 0.1107
C2_7 C 0.2448(2) 0.41658(18) 0.8309(2)
C3_7 C 0.2480(2) 0.55521(18) 0.8708(2)
N1_7 N 0.23296(16) 0.86878(15) 0.9913(2)
C4_7 C 0.2478(2) 0.90484(18) 0.9134(2)
O4_7 O 0.22308(14) 0.68640(13) 0.91050(17)
C5_7 C 0.1828(2) 0.3779(2) 0.9912(3)
C6_7 C 0.2452(2) 0.61931(18) 0.9377(2)
C7_6 C 0.2711(2) 0.4374(2) 0.7468(3)
H2_6 H 0.2796 0.3989 0.7057
C9_7 C 0.2411(2) 0.98761(18) 0.9017(2)
C11_7 C 0.2715(2) 0.8578(2) 0.8429(3)
H5_7 H 0.2764 0.8046 0.8504
C12_7 C 0.2872(3) 0.8903(2) 0.7635(3)
H6_7 H 0.3019 0.8590 0.7173
C13_7 C 0.2841(2) 0.5136(2) 0.7253(3)
H7_7 H 0.3002 0.5265 0.6697
C14_7 C 0.1995(2) 0.4539(2) 0.9759(3)
C15_7 C 0.2728(2) 0.5726(2) 0.7883(3)
H9_7 H 0.2824 0.6240 0.7735
C16_7 C 0.2314(2) 0.47624(19) 0.8944(3)
C17_7 C 0.2011(2) 0.3222(2) 0.9259(3)
H10_7 H 0.1915 0.2703 0.9379
C19_7 C 0.2812(3) 0.9709(2) 0.7522(3)
H12_7 H 0.2931 0.9921 0.6985
O2_8 O 0.73268(15) 0.39286(13) 0.51257(18)
C2_8 C 0.7552(2) 0.58342(18) 0.3309(2)
C3_8 C 0.7520(2) 0.44479(18) 0.3708(2)
N1_8 N 0.76704(16) 0.13122(15) 0.4913(2)
C4_8 C 0.7522(2) 0.09516(18) 0.4134(2)
O4_8 O 0.77692(14) 0.31360(13) 0.41050(17)
C5_8 C 0.8172(2) 0.6221(2) 0.4912(3)
H1_8 H 0.8400 0.6374 0.5431
C6_8 C 0.7548(2) 0.38069(18) 0.4377(2)
C7_7 C 0.7289(2) 0.5626(2) 0.2468(3)
H2_7 H 0.7204 0.6011 0.2057
C8_8 C 0.7983(2) 0.0068(2) 0.5524(3)
C9_8 C 0.7589(2) 0.01239(18) 0.4017(2)
C11_8 C 0.7285(2) 0.1422(2) 0.3429(3)
H5_8 H 0.7236 0.1954 0.3504
C12_8 C 0.7128(3) 0.1097(2) 0.2635(3)
H6_8 H 0.6981 0.1410 0.2173
C13_8 C 0.7159(2) 0.4864(2) 0.2253(3)
H7_8 H 0.6998 0.4735 0.1697
C14_8 C 0.8005(2) 0.5461(2) 0.4759(3)
H8_8 H 0.8099 0.5090 0.5183
C15_8 C 0.7272(2) 0.4274(2) 0.2883(3)
H9_8 H 0.7176 0.3760 0.2735
C16_8 C 0.7686(2) 0.52376(19) 0.3944(3)
C17_8 C 0.7989(2) 0.6778(2) 0.4259(3)
H10_8 H 0.8085 0.7297 0.4379
C18_8 C 0.7894(2) 0.0869(2) 0.5579(3)
H11_8 H 0.7995 0.1108 0.6107
C19_8 C 0.7188(3) 0.0291(2) 0.2522(3)
H12_8 H 0.7069 0.0079 0.1985
C1_8 C 0.7461(2) 0.89492(19) 0.2975(3)
H3_7 H 0.8141 0.9788 0.6008
C10_8 C 0.7839(2) 0.9685(2) 0.4751(3)
H4_8 H 0.7903 0.9151 0.4710
C20_8 C 0.7422(2) 0.98001(18) 0.3191(2)
C7_8 C 0.0626(2) 0.7711(2) 0.9968(3)
H2_8 H 0.1011 0.7796 0.9557
H3_8 H 0.1859 0.0212 0.1008
loop_
_geom_bond_atom_site_label_1
_geom_bond_atom_site_label_2
_geom_bond_site_symmetry_1
_geom_bond_site_symmetry_2
O1 C1 1_555 1_555
C1 O3 1_555 1_555
O3 Zn3 1_555 1_555
H4 C10 1_555 1_555
C20 C1 1_555 1_555
Zn3 O1 1_555 1_555
C2 C7 1_555 1_555
C3 C6 1_555 1_555
C4 N1 1_555 1_555
C6 O4 1_555 1_555
C7 H2 1_555 1_555
C9 C4 1_555 1_555
N2 C2 1_555 1_555
C11 C4 1_555 1_555
H5 C11 1_555 1_555
C12 C11 1_555 1_555
H6 C12 1_555 1_555
C13 C7 1_555 1_555
H7 C13 1_555 1_555
C14 C5 1_555 1_555
C15 C3 1_555 1_555
H9 C15 1_555 1_555
C16 C2 1_555 1_555
C17 C5 1_555 1_555
H10 C17 1_555 1_555
C19 C12 1_555 1_555
H12 C19 1_555 1_555
Zn3 N2 1_555 1_555
C3 C16 1_555 1_555
N2 C17 1_555 1_555
C13 C15 1_555 1_555
C14 C16 1_555 1_555
Zn1 O2 1_555 1_555
H11 C18 1_555 1_555
O6 Zn1 1_555 1_555
N3 Zn1 1_555 1_555
C8 C18 1_555 1_555
Zn3 O2_2 1_555 1_555
O1_2 C1_2 1_555 1_555
C1_2 O3_2 1_555 1_555
O2_2 C6_2 1_555 1_555
O3_2 Zn3_2 1_555 1_555
C3_2 C6_2 1_555 1_555
N1_2 Zn3 1_555 1_555
C4_2 N1_2 1_555 1_555
O4_2 Zn3 1_555 1_555
C6_2 O4_2 1_555 1_555
C8_2 H3 1_555 1_555
C9_2 C4_2 1_555 1_555
C10_2 C8_2 1_555 1_555
H4_2 C10_2 1_555 1_555
C11_2 C4_2 1_555 1_555
H5_2 C11_2 1_555 1_555
C12_2 C11_2 1_555 1_555
H6_2 C12_2 1_555 1_555
H7_2 C13_2 1_555 1_555
C15_2 C3_2 1_555 1_555
H9_2 C15_2 1_555 1_555
C18_2 N1_2 1_555 1_555
H11_2 C18_2 1_555 1_555
C19_2 C12_2 1_555 1_555
H12_2 C19_2 1_555 1_555
C20_2 C1_2 1_555 1_555
Zn3_2 O1_2 1_555 1_555
C8_2 C18_2 1_555 1_555
C9_2 C10_2 1_555 1_555
C9_2 C20_2 1_555 1_555
C13_2 C15_2 1_555 1_555
C19_2 C20_2 1_555 1_555
C2_2 C7_2 1_555 1_555
C5_2 H1_2 1_555 1_555
C7_2 H2_2 1_555 1_555
N2_2 C2_2 1_555 1_555
C14_2 C5_2 1_555 1_555
H8_2 C14_2 1_555 1_555
C16_2 C2_2 1_555 1_555
C17_2 C5_2 1_555 1_555
H10_2 C17_2 1_555 1_555
Zn3_2 N2_2 1_555 1_555
N2_2 C17_2 1_555 1_555
C14_2 C16_2 1_555 1_555
Zn3_2 O2_3 1_555 1_555
O2_3 C6_3 1_555 1_555
C2_3 C7_3 1_555 1_555
C3_3 C6_3 1_555 1_555
N1_3 Zn3_2 1_555 1_555
C4_3 N1_3 1_555 1_555
O4_3 Zn3_2 1_555 1_555
C5_3 H1_3 1_555 1_555
C6_3 O4_3 1_555 1_555
C7_3 H2_3 1_555 1_555
C9_3 C4_3 1_555 1_555
N2_3 C2_3 1_555 1_555
C11_3 C4_3 1_555 1_555
H5_3 C11_3 1_555 1_555
C12_3 C11_3 1_555 1_555
H6_3 C12_3 1_555 1_555
C13_3 C7_3 1_555 1_555
H7_3 C13_3 1_555 1_555
C14_3 C5_3 1_555 1_555
H8_3 C14_3 1_555 1_555
C15_3 C3_3 1_555 1_555
H9_3 C15_3 1_555 1_555
C16_3 C2_3 1_555 1_555
C17_3 C5_3 1_555 1_555
H10_3 C17_3 1_555 1_555
C18_3 N1_3 1_555 1_555
H11_3 C18_3 1_555 1_555
C19_3 C12_3 1_555 1_555
H12_3 C19_3 1_555 1_555
Zn2 N2_3 1_555 1_555
C3_3 C16_3 1_555 1_555
C8_3 C18_3 1_555 1_555
N2_3 C17_3 1_555 1_555
C13_3 C15_3 1_555 1_555
C14_3 C16_3 1_555 1_555
O1_3 C1_3 1_555 1_555
C1_3 O3_3 1_555 1_555
O3_3 Zn2 1_555 1_555
H4_3 C10_3 1_555 1_555
C20_3 C1_3 1_555 1_555
Zn2 O1_3 1_555 1_555
C5_4 H1_4 1_555 1_555
N3 C2_4 1_555 1_555
C14_4 C5_4 1_555 1_555
H8_4 C14_4 1_555 1_555
C16_4 C2_4 1_555 1_555
C17_4 C5_4 1_555 1_555
H10_4 C17_4 1_555 1_555
N3 C17_4 1_555 1_555
C14_4 C16_4 1_555 1_555
H7_4 C13_4 1_555 1_555
Zn2 O2_4 1_555 1_555
C1_4 O6 1_555 1_555
O2_4 C6_4 1_555 1_555
C3_4 C6_4 1_555 1_555
N1_4 Zn2 1_555 1_555
C4_4 N1_4 1_555 1_555
O4_4 Zn2 1_555 1_555
C6_4 O4_4 1_555 1_555
C8_4 H3_3 1_555 1_555
C9_4 C4_4 1_555 1_555
C10_4 C8_4 1_555 1_555
H4_4 C10_4 1_555 1_555
C11_4 C4_4 1_555 1_555
H5_4 C11_4 1_555 1_555
C12_4 C11_4 1_555 1_555
C15_4 C3_4 1_555 1_555
H9_4 C15_4 1_555 1_555
C18_4 N1_4 1_555 1_555
H11_4 C18_4 1_555 1_555
C19_4 C12_4 1_555 1_555
C20_4 C1_4 1_555 1_555
C8_4 C18_4 1_555 1_555
C9_4 C10_4 1_555 1_555
C9_4 C20_4 1_555 1_555
C19_4 C20_4 1_555 1_555
C7_4 H2_4 1_555 1_555
Zn1_2 O2_5 1_555 1_555
O1_4 C1_5 1_555 1_555
C1_5 O3_4 1_555 1_555
O2_5 C6_5 1_555 1_555
O3_4 Zn3_3 1_555 1_555
C3_5 C6_5 1_555 1_555
N1_5 Zn1_2 1_555 1_555
C4_5 N1_5 1_555 1_555
O4_5 Zn1_2 1_555 1_555
C6_5 O4_5 1_555 1_555
C8_5 H3_5 1_555 1_555
C9_5 C4_5 1_555 1_555
C10_5 C8_5 1_555 1_555
H4_5 C10_5 1_555 1_555
C11_5 C4_5 1_555 1_555
H5_5 C11_5 1_555 1_555
C12_5 C11_5 1_555 1_555
H6_5 C12_5 1_555 1_555
H7_5 C13_5 1_555 1_555
C15_5 C3_5 1_555 1_555
H9_5 C15_5 1_555 1_555
C18_5 N1_5 1_555 1_555
H11_5 C18_5 1_555 1_555
C19_5 C12_5 1_555 1_555
H12_5 C19_5 1_555 1_555
C20_5 C1_5 1_555 1_555
Zn3_3 O1_4 1_555 1_555
O5_2 Zn1_2 1_555 1_555
O6_2 Zn1_2 1_555 1_555
N3_2 Zn1_2 1_555 1_555
C8_5 C18_5 1_555 1_555
C9_5 C10_5 1_555 1_555
C9_5 C20_5 1_555 1_555
C13_5 C15_5 1_555 1_555
C19_5 C20_5 1_555 1_555
C2_5 C7_5 1_555 1_555
C5_5 H1_5 1_555 1_555
C7_5 H2_5 1_555 1_555
N2_4 C2_5 1_555 1_555
C14_5 C5_5 1_555 1_555
H8_5 C14_5 1_555 1_555
C16_5 C2_5 1_555 1_555
C17_5 C5_5 1_555 1_555
H10_5 C17_5 1_555 1_555
Zn3_3 N2_4 1_555 1_555
N2_4 C17_5 1_555 1_555
C14_5 C16_5 1_555 1_555
C5_6 H1_6 1_555 1_555
N2_5 C2_6 1_555 1_555
C14_6 C5_6 1_555 1_555
H8_6 C14_6 1_555 1_555
C16_6 C2_6 1_555 1_555
C17_6 C5_6 1_555 1_555
H10_6 C17_6 1_555 1_555
Zn2_2 N2_5 1_555 1_555
N2_5 C17_6 1_555 1_555
C14_6 C16_6 1_555 1_555
Zn1_3 O2_6 1_555 1_555
C1_6 O3_5 1_555 1_555
O2_6 C6_6 1_555 1_555
O3_5 Zn2_2 1_555 1_555
C3_6 C6_6 1_555 1_555
N1_6 Zn1_3 1_555 1_555
C4_6 N1_6 1_555 1_555
O4_6 Zn1_3 1_555 1_555
C6_6 O4_6 1_555 1_555
C8_6 H3_6 1_555 1_555
C9_6 C4_6 1_555 1_555
C10_6 C8_6 1_555 1_555
H4_6 C10_6 1_555 1_555
C11_6 C4_6 1_555 1_555
H5_6 C11_6 1_555 1_555
C12_6 C11_6 1_555 1_555
C15_6 C3_6 1_555 1_555
H9_6 C15_6 1_555 1_555
C18_6 N1_6 1_555 1_555
H11_6 C18_6 1_555 1_555
C19_6 C12_6 1_555 1_555
C20_6 C1_6 1_555 1_555
O5_3 Zn1_3 1_555 1_555
O6_3 Zn1_3 1_555 1_555
N3_3 Zn1_3 1_555 1_555
C8_6 C18_6 1_555 1_555
C9_6 C10_6 1_555 1_555
C9_6 C20_6 1_555 1_555
C19_6 C20_6 1_555 1_555
H7_6 C13_6 1_555 1_555
O5_2 C1_7 1_555 1_555
C1_7 O6_2 1_555 1_555
H4_7 C10_7 1_555 1_555
C20_7 C1_7 1_555 1_555
Zn2_2 O2_7 1_555 1_555
H11_7 C18_7 1_555 1_555
C8_7 C18_7 1_555 1_555
C2_7 C7_6 1_555 1_555
C3_7 C6_7 1_555 1_555
C4_7 N1_7 1_555 1_555
C6_7 O4_7 1_555 1_555
C7_6 H2_6 1_555 1_555
C9_7 C4_7 1_555 1_555
N3_2 C2_7 1_555 1_555
C11_7 C4_7 1_555 1_555
H5_7 C11_7 1_555 1_555
C12_7 C11_7 1_555 1_555
H6_7 C12_7 1_555 1_555
C13_7 C7_6 1_555 1_555
H7_7 C13_7 1_555 1_555
C14_7 C5_7 1_555 1_555
C15_7 C3_7 1_555 1_555
H9_7 C15_7 1_555 1_555
C16_7 C2_7 1_555 1_555
C17_7 C5_7 1_555 1_555
H10_7 C17_7 1_555 1_555
C19_7 C12_7 1_555 1_555
H12_7 C19_7 1_555 1_555
C3_7 C16_7 1_555 1_555
N3_2 C17_7 1_555 1_555
C13_7 C15_7 1_555 1_555
C14_7 C16_7 1_555 1_555
Zn3_3 O2_8 1_555 1_555
O2_8 C6_8 1_555 1_555
C2_8 C7_7 1_555 1_555
C3_8 C6_8 1_555 1_555
N1_8 Zn3_3 1_555 1_555
C4_8 N1_8 1_555 1_555
O4_8 Zn3_3 1_555 1_555
C5_8 H1_8 1_555 1_555
C6_8 O4_8 1_555 1_555
C7_7 H2_7 1_555 1_555
C9_8 C4_8 1_555 1_555
N3_3 C2_8 1_555 1_555
C11_8 C4_8 1_555 1_555
H5_8 C11_8 1_555 1_555
C12_8 C11_8 1_555 1_555
H6_8 C12_8 1_555 1_555
C13_8 C7_7 1_555 1_555
H7_8 C13_8 1_555 1_555
C14_8 C5_8 1_555 1_555
H8_8 C14_8 1_555 1_555
C15_8 C3_8 1_555 1_555
H9_8 C15_8 1_555 1_555
C16_8 C2_8 1_555 1_555
C17_8 C5_8 1_555 1_555
H10_8 C17_8 1_555 1_555
C18_8 N1_8 1_555 1_555
H11_8 C18_8 1_555 1_555
C19_8 C12_8 1_555 1_555
H12_8 C19_8 1_555 1_555
C3_8 C16_8 1_555 1_555
C8_8 C18_8 1_555 1_555
N3_3 C17_8 1_555 1_555
C13_8 C15_8 1_555 1_555
C14_8 C16_8 1_555 1_555
O5_3 C1_8 1_555 1_555
C1_8 O6_3 1_555 1_555
H4_8 C10_8 1_555 1_555
C20_8 C1_8 1_555 1_555
C7_8 H2_8 1_555 1_555

#END
