
###############################################################################
#
# This file contains modified crystal structure data generated from the
# MOF subset of the Cambridge Structural Database (CSD) v543 
# hosted by the Cambridge Crystallographic Data Centre (CCDC).
#
# This work is licensed under the Creative Commons
# Attribution-NonCommercial-ShareAlike 4.0 International License.
# To view a copy of this license, visit
# http://creativecommons.org/licenses/by-nc-sa/4.0/
# or send a letter to
# Creative Commons, PO Box 1866, Mountain View, CA 94042, USA.
#
# CIF created using the CSD Python API on 29 September 2022
# The structure has been converted into the P1 space group
# The structure has a 3D framework
# The original CSD entry ARAWEW is in the orthorhombic crystal system
# The framework has been calculated to contain at least 10.0% void space
# The void calculation uses a probe of radius 1.32A, grid spacing 0.4
#
###############################################################################

data_ARAWEW
_chemical_formula_moiety         '(C80 H96 Cu16 N24)n'
_symmetry_cell_setting           triclinic
_symmetry_space_group_name_H-M   'P 1'
_symmetry_Int_Tables_number      1
_space_group_name_Hall           'P 1'
loop_
_symmetry_equiv_pos_site_id
_symmetry_equiv_pos_as_xyz
1 x,y,z
_cell_length_a                   13.3256(4)
_cell_length_b                   15.0498(4)
_cell_length_c                   17.4936(6)
_cell_angle_alpha                90
_cell_angle_beta                 90
_cell_angle_gamma                90
_cell_volume                     3508.3
loop_
_atom_site_label
_atom_site_type_symbol
_atom_site_fract_x
_atom_site_fract_y
_atom_site_fract_z
Cu1 Cu 0.6729(5) 0.4209(5) 0.1276(4)
Cu2 Cu 0.3262(5) 0.0783(5) 0.1270(4)
N1 N 0.5667(5) 0.3214(5) 0.1226(4)
N2 N 0.4288(5) 0.1853(5) 0.1385(4)
C1 C 0.4763(5) 0.3300(5) 0.1354(4)
C2 C 0.5342(5) 0.1584(5) 0.1232(4)
C3 C 0.3090(5) 0.0330(5) 0.2228(4)
C4 C 0.6007(5) 0.2331(5) 0.1296(4)
C5 C 0.4012(5) 0.2663(5) 0.1301(4)
C6 C 0.2792(5) 0.0615(5) 0.0286(4)
C7 C 0.4447(5) 0.4315(5) 0.1153(4)
C8 C 0.5638(5) 0.0693(5) 0.1389(4)
C9 C 0.7129(5) 0.2162(5) 0.1269(4)
C10 C 0.2916(5) 0.2854(5) 0.1355(4)
H1 H 0.374320 0.436410 0.126120
H2 H 0.456760 0.447320 0.062890
H3 H 0.481510 0.470900 0.148120
H4 H 0.633990 0.060680 0.129060
H5 H 0.525180 0.033940 0.103930
H6 H 0.548830 0.051560 0.190390
H7 H 0.721040 0.153570 0.135290
H8 H 0.750010 0.248510 0.164820
H9 H 0.737530 0.231270 0.076950
H10 H 0.271910 0.346290 0.128780
H11 H 0.272510 0.265710 0.185570
H12 H 0.259000 0.249270 0.097680
N5 N 0.6851(5) 0.4895(5) 0.2210(4)
N6 N 0.7424(5) 0.4315(5) 0.0314(4)
N3 N 0.3149(5) 0.9895(5) 0.2790(4)
Cu4 Cu 0.3271(5) 0.9209(5) 0.3724(4)
Cu2_2 Cu 0.1738(5) 0.9217(5) 0.6270(4)
N2_2 N 0.0712(5) 0.8147(5) 0.6385(4)
C1_2 C 0.0237(5) 0.6700(5) 0.6354(4)
C3_2 C 0.1910(5) 0.9670(5) 0.7228(4)
C5_2 C 0.0988(5) 0.7337(5) 0.6301(4)
C6_2 C 0.2208(5) 0.9385(5) 0.5286(4)
N4 N 0.2576(5) 0.9315(5) 0.4686(4)
C7_2 C 0.0553(5) 0.5685(5) 0.6153(4)
C10_2 C 0.2084(5) 0.7146(5) 0.6355(4)
H1_2 H 0.125680 0.563590 0.626120
H2_2 H 0.043240 0.552680 0.562890
H3_2 H 0.018490 0.529100 0.648120
H10_2 H 0.228090 0.653710 0.628780
H11_2 H 0.227490 0.734290 0.685570
H12_2 H 0.241000 0.750730 0.597680
Cu1_2 Cu 0.8271(5) 0.5791(5) 0.6276(4)
N1_2 N 0.9333(5) 0.6786(5) 0.6226(4)
C2_2 C 0.9658(5) 0.8416(5) 0.6232(4)
C4_2 C 0.8993(5) 0.7669(5) 0.6296(4)
C8_2 C 0.9362(5) 0.9307(5) 0.6389(4)
C9_2 C 0.7871(5) 0.7838(5) 0.6269(4)
H4_2 H 0.866010 0.939320 0.629060
H5_2 H 0.974820 0.966060 0.603930
H6_2 H 0.951170 0.948440 0.690390
H7_2 H 0.778960 0.846430 0.635290
H8_2 H 0.749990 0.751490 0.664820
H9_2 H 0.762470 0.768730 0.576950
N5_2 N 0.8149(5) 0.5105(5) 0.7210(4)
N6_2 N 0.7576(5) 0.5685(5) 0.5314(4)
Cu2_3 Cu 0.8262(5) 0.4217(5) 0.8730(4)
N2_3 N 0.9288(5) 0.3147(5) 0.8615(4)
C1_3 C 0.9763(5) 0.1700(5) 0.8646(4)
C3_3 C 0.8090(5) 0.4670(5) 0.7772(4)
C5_3 C 0.9012(5) 0.2337(5) 0.8699(4)
C6_3 C 0.7792(5) 0.4385(5) 0.9714(4)
C7_3 C 0.9447(5) 0.0685(5) 0.8847(4)
C10_3 C 0.7916(5) 0.2146(5) 0.8645(4)
H1_3 H 0.874320 0.063590 0.873880
H2_3 H 0.956760 0.052680 0.937110
H3_3 H 0.981510 0.029100 0.851880
H10_3 H 0.771910 0.153710 0.871220
H11_3 H 0.772510 0.234290 0.814430
H12_3 H 0.759000 0.250730 0.902320
Cu2_4 Cu 0.6738(5) 0.5783(5) 0.3730(4)
N1_3 N 0.4333(5) 0.8214(5) 0.3774(4)
N2_4 N 0.5712(5) 0.6853(5) 0.3615(4)
C1_4 C 0.5237(5) 0.8300(5) 0.3646(4)
C2_3 C 0.4658(5) 0.6584(5) 0.3768(4)
C3_4 C 0.6910(5) 0.5330(5) 0.2772(4)
C4_3 C 0.3993(5) 0.7331(5) 0.3704(4)
C5_4 C 0.5988(5) 0.7663(5) 0.3699(4)
C6_4 C 0.7208(5) 0.5615(5) 0.4714(4)
C7_4 C 0.5553(5) 0.9315(5) 0.3847(4)
C8_3 C 0.4362(5) 0.5693(5) 0.3611(4)
C9_3 C 0.2871(5) 0.7162(5) 0.3731(4)
C10_4 C 0.7084(5) 0.7854(5) 0.3645(4)
H1_4 H 0.625680 0.936410 0.373880
H2_4 H 0.543240 0.947320 0.437110
H3_4 H 0.518490 0.970900 0.351880
H4_3 H 0.366010 0.560680 0.370940
H5_3 H 0.474820 0.533940 0.396070
H6_3 H 0.451170 0.551560 0.309610
H7_3 H 0.278960 0.653570 0.364710
H8_3 H 0.249990 0.748510 0.335180
H9_3 H 0.262470 0.731270 0.423050
H10_4 H 0.728090 0.846290 0.371220
H11_4 H 0.727490 0.765710 0.314430
H12_4 H 0.741000 0.749270 0.402320
N4_2 N 0.2424(5) 0.0685(5) 0.9686(4)
Cu3 Cu 0.1729(5) 0.0791(5) 0.8724(4)
N3_2 N 0.1851(5) 0.0105(5) 0.7790(4)
N1_4 N 0.0667(5) 0.1786(5) 0.8774(4)
C2_4 C 0.0342(5) 0.3416(5) 0.8768(4)
C4_4 C 0.1007(5) 0.2669(5) 0.8704(4)
C8_4 C 0.0638(5) 0.4307(5) 0.8611(4)
C9_4 C 0.2129(5) 0.2838(5) 0.8731(4)
H4_4 H 0.133990 0.439320 0.870940
H5_4 H 0.025180 0.466060 0.896070
H6_4 H 0.048830 0.448440 0.809610
H7_4 H 0.221040 0.346430 0.864710
H8_4 H 0.250010 0.251490 0.835180
H9_4 H 0.237530 0.268730 0.923050
N3_3 N 0.6851(5) 0.0105(5) 0.7210(4)
Cu4_2 Cu 0.6729(5) 0.0791(5) 0.6276(4)
Cu1_3 Cu 0.3271(5) 0.5791(5) 0.8724(4)
Cu2_5 Cu 0.6738(5) 0.9217(5) 0.8730(4)
N1_5 N 0.4333(5) 0.6786(5) 0.8774(4)
N2_5 N 0.5712(5) 0.8147(5) 0.8615(4)
C1_5 C 0.5237(5) 0.6700(5) 0.8646(4)
C2_5 C 0.4658(5) 0.8416(5) 0.8768(4)
C3_5 C 0.6910(5) 0.9670(5) 0.7772(4)
C4_5 C 0.3993(5) 0.7669(5) 0.8704(4)
C5_5 C 0.5988(5) 0.7337(5) 0.8699(4)
C6_5 C 0.7208(5) 0.9385(5) 0.9714(4)
C7_5 C 0.5553(5) 0.5685(5) 0.8847(4)
C8_5 C 0.4362(5) 0.9307(5) 0.8611(4)
C9_5 C 0.2871(5) 0.7838(5) 0.8731(4)
C10_5 C 0.7084(5) 0.7146(5) 0.8645(4)
H1_5 H 0.625680 0.563590 0.873880
H2_5 H 0.543240 0.552680 0.937110
H3_5 H 0.518490 0.529100 0.851880
H4_5 H 0.366010 0.939320 0.870940
H5_5 H 0.474820 0.966060 0.896070
H6_5 H 0.451170 0.948440 0.809610
H7_5 H 0.278960 0.846430 0.864710
H8_5 H 0.249990 0.751490 0.835180
H9_5 H 0.262470 0.768730 0.923050
H10_5 H 0.728090 0.653710 0.871220
H11_5 H 0.727490 0.734290 0.814430
H12_5 H 0.741000 0.750730 0.902320
N5_3 N 0.3149(5) 0.5105(5) 0.7790(4)
N6_3 N 0.2576(5) 0.5685(5) 0.9686(4)
Cu1_4 Cu 0.1729(5) 0.4209(5) 0.3724(4)
N1_6 N 0.0667(5) 0.3214(5) 0.3774(4)
C2_6 C 0.0342(5) 0.1584(5) 0.3768(4)
C4_6 C 0.1007(5) 0.2331(5) 0.3704(4)
C8_6 C 0.0638(5) 0.0693(5) 0.3611(4)
C9_6 C 0.2129(5) 0.2162(5) 0.3731(4)
H4_6 H 0.133990 0.060680 0.370940
H5_6 H 0.025180 0.033940 0.396070
H6_6 H 0.048830 0.051560 0.309610
H7_6 H 0.221040 0.153570 0.364710
H8_6 H 0.250010 0.248510 0.335180
H9_6 H 0.237530 0.231270 0.423050
N5_4 N 0.1851(5) 0.4895(5) 0.2790(4)
N6_4 N 0.2424(5) 0.4315(5) 0.4686(4)
Cu2_6 Cu 0.8262(5) 0.0783(5) 0.3730(4)
N2_6 N 0.9288(5) 0.1853(5) 0.3615(4)
C1_6 C 0.9763(5) 0.3300(5) 0.3646(4)
C3_6 C 0.8090(5) 0.0330(5) 0.2772(4)
C5_6 C 0.9012(5) 0.2663(5) 0.3699(4)
C6_6 C 0.7792(5) 0.0615(5) 0.4714(4)
N4_3 N 0.7424(5) 0.0685(5) 0.5314(4)
C7_6 C 0.9447(5) 0.4315(5) 0.3847(4)
C10_6 C 0.7916(5) 0.2854(5) 0.3645(4)
H1_6 H 0.874320 0.436410 0.373880
H2_6 H 0.956760 0.447320 0.437110
H3_6 H 0.981510 0.470900 0.351880
H10_6 H 0.771910 0.346290 0.371220
H11_6 H 0.772510 0.265710 0.314430
H12_6 H 0.759000 0.249270 0.402320
Cu2_7 Cu 0.1738(5) 0.5783(5) 0.1270(4)
N2_7 N 0.0712(5) 0.6853(5) 0.1385(4)
C1_7 C 0.0237(5) 0.8300(5) 0.1354(4)
C3_7 C 0.1910(5) 0.5330(5) 0.2228(4)
C5_7 C 0.0988(5) 0.7663(5) 0.1301(4)
C6_7 C 0.2208(5) 0.5615(5) 0.0286(4)
C7_7 C 0.0553(5) 0.9315(5) 0.1153(4)
C10_7 C 0.2084(5) 0.7854(5) 0.1355(4)
H1_7 H 0.125680 0.936410 0.126120
H2_7 H 0.043240 0.947320 0.062890
H3_7 H 0.018490 0.970900 0.148120
H10_7 H 0.228090 0.846290 0.128780
H11_7 H 0.227490 0.765710 0.185570
H12_7 H 0.241000 0.749270 0.097680
Cu2_8 Cu 0.3262(5) 0.4217(5) 0.6270(4)
N1_7 N 0.5667(5) 0.1786(5) 0.6226(4)
N2_8 N 0.4288(5) 0.3147(5) 0.6385(4)
C1_8 C 0.4763(5) 0.1700(5) 0.6354(4)
C2_7 C 0.5342(5) 0.3416(5) 0.6232(4)
C3_8 C 0.3090(5) 0.4670(5) 0.7228(4)
C4_7 C 0.6007(5) 0.2669(5) 0.6296(4)
C5_8 C 0.4012(5) 0.2337(5) 0.6301(4)
C6_8 C 0.2792(5) 0.4385(5) 0.5286(4)
C7_8 C 0.4447(5) 0.0685(5) 0.6153(4)
C8_7 C 0.5638(5) 0.4307(5) 0.6389(4)
C9_7 C 0.7129(5) 0.2838(5) 0.6269(4)
C10_8 C 0.2916(5) 0.2146(5) 0.6355(4)
H1_8 H 0.374320 0.063590 0.626120
H2_8 H 0.456760 0.052680 0.562890
H3_8 H 0.481510 0.029100 0.648120
H4_7 H 0.633990 0.439320 0.629060
H5_7 H 0.525180 0.466060 0.603930
H6_7 H 0.548830 0.448440 0.690390
H7_7 H 0.721040 0.346430 0.635290
H8_7 H 0.750010 0.251490 0.664820
H9_7 H 0.737530 0.268730 0.576950
H10_8 H 0.271910 0.153710 0.628780
H11_8 H 0.272510 0.234290 0.685570
H12_8 H 0.259000 0.250730 0.597680
N4_4 N 0.7576(5) 0.9315(5) 0.0314(4)
Cu3_2 Cu 0.8271(5) 0.9209(5) 0.1276(4)
N3_4 N 0.8149(5) 0.9895(5) 0.2210(4)
N1_8 N 0.9333(5) 0.8214(5) 0.1226(4)
C2_8 C 0.9658(5) 0.6584(5) 0.1232(4)
C4_8 C 0.8993(5) 0.7331(5) 0.1296(4)
C8_8 C 0.9362(5) 0.5693(5) 0.1389(4)
C9_8 C 0.7871(5) 0.7162(5) 0.1269(4)
H4_8 H 0.866010 0.560680 0.129060
H5_8 H 0.974820 0.533940 0.103930
H6_8 H 0.951170 0.551560 0.190390
H7_8 H 0.778960 0.653570 0.135290
H8_8 H 0.749990 0.748510 0.164820
H9_8 H 0.762470 0.731270 0.076950
loop_
_geom_bond_atom_site_label_1
_geom_bond_atom_site_label_2
_geom_bond_site_symmetry_1
_geom_bond_site_symmetry_2
Cu1 N1 1_555 1_555
Cu2 N2 1_555 1_555
N1 C1 1_555 1_555
N2 C2 1_555 1_555
C1 C5 1_555 1_555
C2 C4 1_555 1_555
C3 Cu2 1_555 1_555
C4 N1 1_555 1_555
C5 N2 1_555 1_555
C6 Cu2 1_555 1_555
C7 C1 1_555 1_555
C8 C2 1_555 1_555
C9 C4 1_555 1_555
C10 C5 1_555 1_555
H1 C7 1_555 1_555
H2 C7 1_555 1_555
H3 C7 1_555 1_555
H4 C8 1_555 1_555
H5 C8 1_555 1_555
H6 C8 1_555 1_555
H7 C9 1_555 1_555
H8 C9 1_555 1_555
H9 C9 1_555 1_555
H10 C10 1_555 1_555
H11 C10 1_555 1_555
H12 C10 1_555 1_555
N5 Cu1 1_555 1_555
N6 Cu1 1_555 1_555
Cu4 N3 1_555 1_555
Cu2_2 N2_2 1_555 1_555
C1_2 C5_2 1_555 1_555
C3_2 Cu2_2 1_555 1_555
C5_2 N2_2 1_555 1_555
C6_2 Cu2_2 1_555 1_555
N4 C6_2 1_555 1_555
C7_2 C1_2 1_555 1_555
C10_2 C5_2 1_555 1_555
H1_2 C7_2 1_555 1_555
H2_2 C7_2 1_555 1_555
H3_2 C7_2 1_555 1_555
H10_2 C10_2 1_555 1_555
H11_2 C10_2 1_555 1_555
H12_2 C10_2 1_555 1_555
Cu4 N4 1_555 1_555
Cu1_2 N1_2 1_555 1_555
C2_2 C4_2 1_555 1_555
C4_2 N1_2 1_555 1_555
C8_2 C2_2 1_555 1_555
C9_2 C4_2 1_555 1_555
H4_2 C8_2 1_555 1_555
H5_2 C8_2 1_555 1_555
H6_2 C8_2 1_555 1_555
H7_2 C9_2 1_555 1_555
H8_2 C9_2 1_555 1_555
H9_2 C9_2 1_555 1_555
N5_2 Cu1_2 1_555 1_555
N6_2 Cu1_2 1_555 1_555
Cu2_3 N2_3 1_555 1_555
C1_3 C5_3 1_555 1_555
C3_3 Cu2_3 1_555 1_555
N5_2 C3_3 1_555 1_555
C5_3 N2_3 1_555 1_555
C6_3 Cu2_3 1_555 1_555
C7_3 C1_3 1_555 1_555
C10_3 C5_3 1_555 1_555
H1_3 C7_3 1_555 1_555
H2_3 C7_3 1_555 1_555
H3_3 C7_3 1_555 1_555
H10_3 C10_3 1_555 1_555
H11_3 C10_3 1_555 1_555
H12_3 C10_3 1_555 1_555
Cu4 N1_3 1_555 1_555
Cu2_4 N2_4 1_555 1_555
N1_3 C1_4 1_555 1_555
N2_4 C2_3 1_555 1_555
C1_4 C5_4 1_555 1_555
C2_3 C4_3 1_555 1_555
C3_4 Cu2_4 1_555 1_555
N5 C3_4 1_555 1_555
C4_3 N1_3 1_555 1_555
C5_4 N2_4 1_555 1_555
C6_4 Cu2_4 1_555 1_555
N6_2 C6_4 1_555 1_555
C7_4 C1_4 1_555 1_555
C8_3 C2_3 1_555 1_555
C9_3 C4_3 1_555 1_555
C10_4 C5_4 1_555 1_555
H1_4 C7_4 1_555 1_555
H2_4 C7_4 1_555 1_555
H3_4 C7_4 1_555 1_555
H4_3 C8_3 1_555 1_555
H5_3 C8_3 1_555 1_555
H6_3 C8_3 1_555 1_555
H7_3 C9_3 1_555 1_555
H8_3 C9_3 1_555 1_555
H9_3 C9_3 1_555 1_555
H10_4 C10_4 1_555 1_555
H11_4 C10_4 1_555 1_555
H12_4 C10_4 1_555 1_555
Cu3 N4_2 1_555 1_555
Cu3 N3_2 1_555 1_555
Cu3 N1_4 1_555 1_555
C2_4 C4_4 1_555 1_555
C4_4 N1_4 1_555 1_555
C8_4 C2_4 1_555 1_555
C9_4 C4_4 1_555 1_555
H4_4 C8_4 1_555 1_555
H5_4 C8_4 1_555 1_555
H6_4 C8_4 1_555 1_555
H7_4 C9_4 1_555 1_555
H8_4 C9_4 1_555 1_555
H9_4 C9_4 1_555 1_555
Cu4_2 N3_3 1_555 1_555
Cu1_3 N1_5 1_555 1_555
Cu2_5 N2_5 1_555 1_555
N1_5 C1_5 1_555 1_555
N2_5 C2_5 1_555 1_555
C1_5 C5_5 1_555 1_555
C2_5 C4_5 1_555 1_555
C3_5 Cu2_5 1_555 1_555
C4_5 N1_5 1_555 1_555
C5_5 N2_5 1_555 1_555
C6_5 Cu2_5 1_555 1_555
C7_5 C1_5 1_555 1_555
C8_5 C2_5 1_555 1_555
C9_5 C4_5 1_555 1_555
C10_5 C5_5 1_555 1_555
H1_5 C7_5 1_555 1_555
H2_5 C7_5 1_555 1_555
H3_5 C7_5 1_555 1_555
H4_5 C8_5 1_555 1_555
H5_5 C8_5 1_555 1_555
H6_5 C8_5 1_555 1_555
H7_5 C9_5 1_555 1_555
H8_5 C9_5 1_555 1_555
H9_5 C9_5 1_555 1_555
H10_5 C10_5 1_555 1_555
H11_5 C10_5 1_555 1_555
H12_5 C10_5 1_555 1_555
N5_3 Cu1_3 1_555 1_555
N6_3 Cu1_3 1_555 1_555
Cu1_4 N1_6 1_555 1_555
C2_6 C4_6 1_555 1_555
C4_6 N1_6 1_555 1_555
C8_6 C2_6 1_555 1_555
C9_6 C4_6 1_555 1_555
H4_6 C8_6 1_555 1_555
H5_6 C8_6 1_555 1_555
H6_6 C8_6 1_555 1_555
H7_6 C9_6 1_555 1_555
H8_6 C9_6 1_555 1_555
H9_6 C9_6 1_555 1_555
N5_4 Cu1_4 1_555 1_555
N6_4 Cu1_4 1_555 1_555
Cu2_6 N2_6 1_555 1_555
C1_6 C5_6 1_555 1_555
C3_6 Cu2_6 1_555 1_555
C5_6 N2_6 1_555 1_555
C6_6 Cu2_6 1_555 1_555
N4_3 C6_6 1_555 1_555
C7_6 C1_6 1_555 1_555
C10_6 C5_6 1_555 1_555
H1_6 C7_6 1_555 1_555
H2_6 C7_6 1_555 1_555
H3_6 C7_6 1_555 1_555
H10_6 C10_6 1_555 1_555
H11_6 C10_6 1_555 1_555
H12_6 C10_6 1_555 1_555
Cu4_2 N4_3 1_555 1_555
Cu2_7 N2_7 1_555 1_555
C1_7 C5_7 1_555 1_555
C3_7 Cu2_7 1_555 1_555
N5_4 C3_7 1_555 1_555
C5_7 N2_7 1_555 1_555
C6_7 Cu2_7 1_555 1_555
C7_7 C1_7 1_555 1_555
C10_7 C5_7 1_555 1_555
H1_7 C7_7 1_555 1_555
H2_7 C7_7 1_555 1_555
H3_7 C7_7 1_555 1_555
H10_7 C10_7 1_555 1_555
H11_7 C10_7 1_555 1_555
H12_7 C10_7 1_555 1_555
Cu4_2 N1_7 1_555 1_555
Cu2_8 N2_8 1_555 1_555
N1_7 C1_8 1_555 1_555
N2_8 C2_7 1_555 1_555
C1_8 C5_8 1_555 1_555
C2_7 C4_7 1_555 1_555
C3_8 Cu2_8 1_555 1_555
N5_3 C3_8 1_555 1_555
C4_7 N1_7 1_555 1_555
C5_8 N2_8 1_555 1_555
C6_8 Cu2_8 1_555 1_555
N6_4 C6_8 1_555 1_555
C7_8 C1_8 1_555 1_555
C8_7 C2_7 1_555 1_555
C9_7 C4_7 1_555 1_555
C10_8 C5_8 1_555 1_555
H1_8 C7_8 1_555 1_555
H2_8 C7_8 1_555 1_555
H3_8 C7_8 1_555 1_555
H4_7 C8_7 1_555 1_555
H5_7 C8_7 1_555 1_555
H6_7 C8_7 1_555 1_555
H7_7 C9_7 1_555 1_555
H8_7 C9_7 1_555 1_555
H9_7 C9_7 1_555 1_555
H10_8 C10_8 1_555 1_555
H11_8 C10_8 1_555 1_555
H12_8 C10_8 1_555 1_555
Cu3_2 N4_4 1_555 1_555
Cu3_2 N3_4 1_555 1_555
Cu3_2 N1_8 1_555 1_555
C2_8 C4_8 1_555 1_555
C4_8 N1_8 1_555 1_555
C8_8 C2_8 1_555 1_555
C9_8 C4_8 1_555 1_555
H4_8 C8_8 1_555 1_555
H5_8 C8_8 1_555 1_555
H6_8 C8_8 1_555 1_555
H7_8 C9_8 1_555 1_555
H8_8 C9_8 1_555 1_555
H9_8 C9_8 1_555 1_555

#END
