
###############################################################################
#
# This file contains modified crystal structure data generated from the
# MOF subset of the Cambridge Structural Database (CSD) v543 
# hosted by the Cambridge Crystallographic Data Centre (CCDC).
#
# This work is licensed under the Creative Commons
# Attribution-NonCommercial-ShareAlike 4.0 International License.
# To view a copy of this license, visit
# http://creativecommons.org/licenses/by-nc-sa/4.0/
# or send a letter to
# Creative Commons, PO Box 1866, Mountain View, CA 94042, USA.
#
# CIF created using the CSD Python API on 29 September 2022
# The structure has been converted into the P1 space group
# The structure has a 3D framework
# The original CSD entry ARECOS is in the monoclinic crystal system
# The framework has been calculated to contain at least 10.0% void space
# The void calculation uses a probe of radius 1.32A, grid spacing 0.4
# H atom positions have been added when not included in the experimental data
#
###############################################################################

data_ARECOS
_chemical_formula_moiety         '(C240 H232 Cd12 N48 O46)n'
_symmetry_cell_setting           triclinic
_symmetry_space_group_name_H-M   'P 1'
_symmetry_Int_Tables_number      1
_space_group_name_Hall           'P 1'
loop_
_symmetry_equiv_pos_site_id
_symmetry_equiv_pos_as_xyz
1 x,y,z
_cell_length_a                   23.507(8)
_cell_length_b                   11.808(4)
_cell_length_c                   25.671(9)
_cell_angle_alpha                90
_cell_angle_beta                 108.890(6)
_cell_angle_gamma                90
_cell_volume                     6741.75
loop_
_atom_site_label
_atom_site_type_symbol
_atom_site_fract_x
_atom_site_fract_y
_atom_site_fract_z
O3 O 0.1798(3) 0.5883(5) 0.0392(3)
C2 C 0.0118(3) 0.3314(6) 0.0429(3)
C9 C 0.0400(3) 0.4170(6) 0.0778(3)
C11 C 0.0240(3) 0.4474(6) 0.1267(3)
C14 C 0.0118(3) 0.5839(6) 0.1923(3)
H8 H 0.0143 0.6585 0.2045
C16 C 0.0860(3) 0.4765(6) 0.0653(3)
H9 H 0.1052 0.5364 0.0876
C19 C 0.0269(3) 0.5582(6) 0.1456(3)
H11 H 0.0391 0.6157 0.1268
C20 C 0.1550(3) 0.5063(6) 0.0101(3)
C21 C 0.1030(3) 0.4467(6) 0.0196(3)
C28 C 0.0065(3) 0.3621(6) 0.1562(3)
H15 H 0.0054 0.2869 0.1451
O1 O 0.0129(3) 0.1817(5) 0.9194(2)
O6 O 0.1720(2) 0.4739(5) 0.9699(3)
C3 C 0.0287(3) 0.2986(6) 0.9976(3)
C7 C 0.0746(3) 0.3577(6) 0.9865(3)
H6 H 0.0863 0.3372 0.9564
Cd8 Cd 0.24671(2) 0.61402(5) 0.98886(3)
O16 O 0.6720(2) 0.0261(5) 0.4699(3)
O17 O 0.8249(3) 0.0228(5) 0.5184(2)
H2 H 0.9802 0.2936 0.0496
O11 O 0.9881(3) 0.6253(7) 0.2914(3)
O13 O 0.9536(5) 0.4564(6) 0.2924(3)
C25 C 0.9934(3) 0.5019(6) 0.2204(3)
C30 C 0.9783(3) 0.5273(7) 0.2720(3)
C33 C 0.9908(3) 0.3905(6) 0.2021(3)
H19 H 0.9782 0.3340 0.2210
Cd6 Cd 0.94257(3) 0.58392(6) 0.36019(2)
Cd1 Cd 0.94606(2) 0.04536(5) 0.87115(2)
Cd2 Cd 0.55743(3) 0.08392(6) 0.13981(2)
Cd3 Cd 0.74671(2) 0.88598(5) 0.48886(3)
O2 O 0.9586(2) 0.1455(5) 0.9727(2)
O5 O 0.4814(3) 0.1777(6) 0.0795(2)
O7 O 0.3249(3) 0.4772(5) 0.0184(2)
O9 O 0.5581(3) 0.1832(6) 0.0484(3)
C4 C 0.4760(3) 0.3030(6) 0.0055(3)
N3 N 0.8731(3) 0.1771(6) 0.8350(3)
C5 C 0.4263(3) 0.3608(6) 0.0113(3)
H5 H 0.4130 0.3445 0.0409
N4 N 0.6285(3) 0.2109(6) 0.1816(3)
N5 N 0.8017(3) 0.7581(6) 0.5483(4)
N6 N 0.6936(3) 0.7704(7) 0.4206(4)
C15 C 0.9974(3) 0.2013(6) 0.9608(3)
N7 N 0.8168(3) 0.3024(7) 0.7797(3)
C26 C 0.5077(3) 0.2158(6) 0.0465(3)
N10 N 0.6827(4) 0.3315(8) 0.2415(4)
C32 C 0.8456(4) 0.2446(8) 0.8635(4)
H18 H 0.8496 0.2368 0.9005
C34 C 0.6609(5) 0.2815(11) 0.1588(5)
H20 H 0.6590 0.2790 0.1221
C37 C 0.8123(4) 0.3227(10) 0.8299(5)
H23 H 0.7903 0.3800 0.8393
C39 C 0.8554(5) 0.2150(9) 0.7861(5)
H25 H 0.8676 0.1857 0.7578
N11 N 0.6539(4) 0.6965(10) 0.3395(4)
H26 H 0.6158 0.0138 0.0440
C41 C 0.6948(6) 0.3531(12) 0.1952(5)
H27 H 0.7213 0.4068 0.1898
C42 C 0.6926(6) 0.7716(13) 0.3705(6)
N12 N 0.8429(4) 0.6605(8) 0.6238(5)
C43 C 0.8007(5) 0.7376(11) 0.5950(6)
H28 H 0.7735 0.7715 0.6096
C44 C 0.6417(6) 0.2473(12) 0.2323(6)
H29 H 0.6253 0.2193 0.2582
C45 C 0.8477(4) 0.6925(10) 0.5416(5)
H30 H 0.8606 0.6922 0.5110
C46 C 0.7921(5) 0.3692(9) 0.7297(5)
H31 H 0.7491 0.3785 0.7220
H32 H 0.7983 0.3295 0.6989
C47 C 0.8700(5) 0.6310(11) 0.5862(5)
H33 H 0.8997 0.5761 0.5912
C48 C 0.6495(6) 0.6968(13) 0.4231(6)
H34 H 0.6381 0.6783 0.4535
C50 C 0.8213(5) 0.4831(9) 0.7356(5)
H37 H 0.8080 0.5296 0.7606
H38 H 0.8646 0.4750 0.7507
C51 C 0.6255(7) 0.6558(13) 0.3694(6)
C52 C 0.8498(5) 0.6190(10) 0.6750(5)
H39 H 0.8503 0.6831 0.6988
H40 H 0.8891 0.5837 0.6885
C53 C 0.8052(5) 0.5360(10) 0.6823(5)
H41 H 0.7670 0.5745 0.6755
H42 H 0.7993 0.4772 0.6546
C54 C 0.7081(6) 0.3910(10) 0.2958(6)
H43 H 0.6831 0.3720 0.3181
H44 H 0.7477 0.3597 0.3142
C55 C 0.6392(6) 0.6768(12) 0.2786(5)
H45 H 0.5959 0.6713 0.2621
H46 H 0.6525 0.7419 0.2626
C57 C 0.6651(6) 0.5803(12) 0.2653(6)
H49 H 0.6749 0.6014 0.2327
H50 H 0.6321 0.5270 0.2528
C60 C 0.7139(6) 0.5143(10) 0.2958(6)
H55 H 0.7251 0.5394 0.3338
H56 H 0.7474 0.5319 0.2830
O14 O 0.6798(3) 0.9117(5) 0.5392(3)
O15 O 0.8146(3) 0.9302(6) 0.4417(3)
O19 O 0.9905(3) 0.0784(6) 0.8026(3)
O20 O 0.5119(3) 0.1253(7) 0.2086(3)
H57 H 0.720207 0.827574 0.354923
H58 H 0.587804 0.597281 0.355327
O4 O 0.3146(3) 0.5698(6) 0.9417(3)
O8 O 0.5670(4) 0.4304(6) 0.7132(3)
O10 O 0.5095(3) 0.5784(6) 0.6974(3)
C1 C 0.4955(3) 0.3294(6) 0.9615(3)
H1 H 0.5289 0.2920 0.9580
C6 C 0.4672(3) 0.4092(6) 0.9228(3)
C8 C 0.4865(3) 0.4351(6) 0.8740(3)
C10 C 0.4167(3) 0.4671(6) 0.9290(3)
H7 H 0.3968 0.5216 0.9034
C12 C 0.3418(3) 0.4990(6) 0.9786(3)
C13 C 0.5200(3) 0.4771(6) 0.7806(3)
C17 C 0.5327(3) 0.4951(7) 0.7272(3)
C18 C 0.5112(3) 0.3498(6) 0.8501(3)
H10 H 0.5167 0.2777 0.8655
C22 C 0.3971(3) 0.4421(6) 0.9733(3)
C23 C 0.5275(3) 0.3708(6) 0.8037(3)
H12 H 0.5435 0.3129 0.7882
C24 C 0.4942(3) 0.5614(6) 0.8023(3)
H13 H 0.4871 0.6320 0.7853
C29 C 0.4785(3) 0.5418(6) 0.8502(3)
H16 H 0.4629 0.6002 0.8657
Cd5 Cd 0.55394(2) 0.54536(5) 0.62885(2)
N2 N 0.6027(4) 0.9474(6) 0.1099(3)
C27 C 0.6224(4) 0.8413(9) 0.1320(4)
H14 H 0.6117 0.8073 0.1601
N9 N 0.6577(4) 0.8642(8) 0.0662(4)
C38 C 0.6591(5) 0.7947(10) 0.1072(5)
H24 H 0.6809 0.7277 0.1168
C40 C 0.6236(5) 0.9538(10) 0.0688(5)
C49 C 0.6880(5) 0.8464(10) 0.0230(5)
H35 H 0.7029 0.7694 0.0248
H48 H 0.8320 0.8235 0.0174
C58 C 0.7370(5) 0.9250(11) 0.0329(5)
H51 H 0.7688 0.9029 0.0661
H52 H 0.7233 0.9999 0.0389
N13 N 0.8876(3) 0.9206(6) 0.8958(3)
O18 O 0.9330(4) 0.9304(6) 0.7868(3)
O21 O 0.5464(5) 0.9564(6) 0.2076(3)
N8 N 0.8284(3) 0.8489(8) 0.9378(3)
C31 C 0.8615(4) 0.8228(9) 0.8708(4)
H17 H 0.8687 0.7899 0.8406
C35 C 0.8244(5) 0.7817(10) 0.8954(5)
H21 H 0.8001 0.7179 0.8850
C36 C 0.8663(5) 0.9317(10) 0.9368(5)
H22 H 0.8765 0.9906 0.9622
H36 H 0.6593 0.8587 0.9865
C56 C 0.8007(5) 0.8318(10) 0.9821(5)
H47 H 0.7767 0.7631 0.9749
C59 C 0.7624(5) 0.9295(10) 0.9837(5)
H53 H 0.7290 0.9324 0.9495
H54 H 0.7856 0.9984 0.9864
O4_2 O 0.1854(3) 0.0698(6) 0.5583(3)
H7_2 H 0.1032 0.0216 0.5966
C24_2 C 0.0058(3) 0.0614(6) 0.6977(3)
H13_2 H 0.0129 0.1320 0.7147
C29_2 C 0.0215(3) 0.0418(6) 0.6498(3)
H16_2 H 0.0371 0.1002 0.6343
Cd7 Cd 0.25329(2) 0.11402(5) 0.51114(3)
O5_2 O 0.0186(3) 0.6777(6) 0.4205(2)
O7_2 O 0.1751(3) 0.9772(5) 0.4816(2)
C1_2 C 0.0045(3) 0.8294(6) 0.5385(3)
C4_2 C 0.0240(3) 0.8030(6) 0.4945(3)
C5_2 C 0.0737(3) 0.8608(6) 0.4887(3)
H5_2 H 0.0870 0.8445 0.4591
C6_2 C 0.0328(3) 0.9092(6) 0.5772(3)
C8_2 C 0.0135(3) 0.9351(6) 0.6260(3)
C10_2 C 0.0833(3) 0.9671(6) 0.5710(3)
C12_2 C 0.1582(3) 0.9990(6) 0.5214(3)
C22_2 C 0.1029(3) 0.9421(6) 0.5267(3)
Cd3_2 Cd 0.75329(2) 0.38598(5) 0.01114(3)
N6_2 N 0.8064(3) 0.2704(7) 0.0794(4)
N11_2 N 0.8461(4) 0.1965(10) 0.1605(4)
C42_2 C 0.8074(6) 0.2716(13) 0.1295(6)
C48_2 C 0.8505(6) 0.1968(13) 0.0769(6)
H34_2 H 0.8619 0.1783 0.0465
C51_2 C 0.8745(7) 0.1558(13) 0.1306(6)
C55_2 C 0.8608(6) 0.1768(12) 0.2214(5)
H45_2 H 0.9041 0.1713 0.2379
H46_2 H 0.8475 0.2419 0.2374
C57_2 C 0.8349(6) 0.0803(12) 0.2347(6)
H49_2 H 0.8251 0.1014 0.2673
H50_2 H 0.8679 0.0270 0.2472
C60_2 C 0.7861(6) 0.0143(10) 0.2042(6)
H55_2 H 0.7749 0.0394 0.1662
H56_2 H 0.7526 0.0319 0.2170
O15_2 O 0.6854(3) 0.4302(6) 0.0583(3)
O16_2 O 0.8280(2) 0.5261(5) 0.0301(3)
H57_2 H 0.779793 0.327574 0.145077
H58_2 H 0.912196 0.0972806 0.144673
O3_2 O 0.3202(3) 0.0883(5) 0.4608(3)
N5_2 N 0.6983(3) 0.2581(6) 0.9517(4)
C14_2 C 0.4882(3) 0.0839(6) 0.3077(3)
H8_2 H 0.4857 0.1585 0.2955
H9_2 H 0.3948 0.0364 0.4124
C19_2 C 0.4731(3) 0.0582(6) 0.3544(3)
H11_2 H 0.4609 0.1157 0.3732
C20_2 C 0.3450(3) 0.0063(6) 0.4899(3)
C25_2 C 0.5066(3) 0.0019(6) 0.2796(3)
C30_2 C 0.5217(3) 0.0273(7) 0.2280(3)
N12_2 N 0.6571(4) 0.1605(8) 0.8762(5)
C43_2 C 0.6993(5) 0.2376(11) 0.9050(6)
H28_2 H 0.7265 0.2715 0.8904
C45_2 C 0.6523(4) 0.1925(10) 0.9584(5)
H30_2 H 0.6394 0.1922 0.9890
C47_2 C 0.6300(5) 0.1310(11) 0.9138(5)
H33_2 H 0.6003 0.0761 0.9088
H37_2 H 0.6920 0.0296 0.7394
C52_2 C 0.6502(5) 0.1190(10) 0.8250(5)
H39_2 H 0.6497 0.1831 0.8012
H40_2 H 0.6109 0.0837 0.8115
C53_2 C 0.6948(5) 0.0360(10) 0.8177(5)
H41_2 H 0.7330 0.0745 0.8245
O14_2 O 0.8202(3) 0.4117(5) 0.9608(3)
O17_2 O 0.6751(3) 0.5228(5) 0.9816(2)
N1 N 0.6124(3) 0.4206(6) 0.6042(3)
O9_2 O 0.9419(3) 0.6832(6) 0.4516(3)
H1_2 H 0.9711 0.7920 0.5420
N2_2 N 0.8973(4) 0.4474(6) 0.3901(3)
N4_2 N 0.8715(3) 0.7109(6) 0.3184(3)
C13_2 C 0.9800(3) 0.9771(6) 0.7194(3)
C17_2 C 0.9673(3) 0.9951(7) 0.7728(3)
C18_2 C 0.9888(3) 0.8498(6) 0.6499(3)
H10_2 H 0.9833 0.7777 0.6345
C23_2 C 0.9725(3) 0.8708(6) 0.6963(3)
H12_2 H 0.9565 0.8129 0.7118
C26_2 C 0.9923(3) 0.7158(6) 0.4535(3)
C27_2 C 0.8776(4) 0.3413(9) 0.3680(4)
H14_2 H 0.8883 0.3073 0.3399
N8_2 N 0.6716(3) 0.3489(8) 0.5622(3)
N9_2 N 0.8423(4) 0.3642(8) 0.4338(4)
C31_2 C 0.6385(4) 0.3228(9) 0.6292(4)
H17_2 H 0.6313 0.2899 0.6594
N10_2 N 0.8173(4) 0.8315(8) 0.2585(4)
C34_2 C 0.8391(5) 0.7815(11) 0.3412(5)
H20_2 H 0.8410 0.7790 0.3779
C35_2 C 0.6756(5) 0.2817(10) 0.6046(5)
H21_2 H 0.6999 0.2179 0.6150
C36_2 C 0.6337(5) 0.4317(10) 0.5632(5)
H22_2 H 0.6235 0.4906 0.5378
C38_2 C 0.8409(5) 0.2947(10) 0.3928(5)
H24_2 H 0.8191 0.2277 0.3832
C40_2 C 0.8764(5) 0.4538(10) 0.4312(5)
H26_2 H 0.8842 0.5138 0.4560
C41_2 C 0.8052(6) 0.8531(12) 0.3048(5)
H27_2 H 0.7787 0.9068 0.3102
C44_2 C 0.8583(6) 0.7473(12) 0.2677(6)
H29_2 H 0.8747 0.7193 0.2418
C49_2 C 0.8120(5) 0.3464(10) 0.4770(5)
H35_2 H 0.7971 0.2694 0.4752
H36_2 H 0.8407 0.3587 0.5135
C54_2 C 0.7919(6) 0.8910(10) 0.2042(6)
H43_2 H 0.8169 0.8720 0.1819
H44_2 H 0.7523 0.8597 0.1858
C56_2 C 0.6993(5) 0.3318(10) 0.5179(5)
H47_2 H 0.7233 0.2631 0.5251
H48_2 H 0.6680 0.3235 0.4826
C58_2 C 0.7630(5) 0.4250(11) 0.4671(5)
H51_2 H 0.7312 0.4029 0.4339
H52_2 H 0.7767 0.4999 0.4611
C59_2 C 0.7376(5) 0.4295(10) 0.5163(5)
H53_2 H 0.7710 0.4324 0.5505
H54_2 H 0.7144 0.4984 0.5136
O1_2 O 0.4871(3) 0.6817(5) 0.5806(2)
O2_2 O 0.5414(2) 0.6455(5) 0.5273(2)
O6_2 O 0.3280(2) 0.9739(5) 0.5301(3)
C2_2 C 0.4882(3) 0.8314(6) 0.4571(3)
H2_2 H 0.5198 0.7936 0.4504
C3_2 C 0.4713(3) 0.7986(6) 0.5024(3)
O12 O 0.4673(2) 0.4373(5) 0.5740(3)
H3 H 0.4340 0.4689 0.5749
H4 H 0.4666 0.3705 0.5886
N3_2 N 0.6269(3) 0.6771(6) 0.6650(3)
C7_2 C 0.4254(3) 0.8577(6) 0.5135(3)
H6_2 H 0.4137 0.8372 0.5436
C9_2 C 0.4600(3) 0.9170(6) 0.4222(3)
C11_2 C 0.4760(3) 0.9474(6) 0.3733(3)
C15_2 C 0.5026(3) 0.7013(6) 0.5392(3)
C16_2 C 0.4140(3) 0.9765(6) 0.4347(3)
C21_2 C 0.3970(3) 0.9467(6) 0.4804(3)
N7_2 N 0.6832(3) 0.8024(7) 0.7203(3)
C28_2 C 0.4935(3) 0.8621(6) 0.3438(3)
H15_2 H 0.4946 0.7869 0.3549
C32_2 C 0.6544(4) 0.7446(8) 0.6365(4)
H18_2 H 0.6504 0.7368 0.5995
C33_2 C 0.5092(3) 0.8905(6) 0.2979(3)
H19_2 H 0.5218 0.8340 0.2790
C37_2 C 0.6877(4) 0.8227(10) 0.6701(5)
H23_2 H 0.7097 0.8800 0.6607
C39_2 C 0.6446(5) 0.7150(9) 0.7139(5)
H25_2 H 0.6324 0.6857 0.7422
C46_2 C 0.7079(5) 0.8692(9) 0.7703(5)
H31_2 H 0.7509 0.8785 0.7780
H32_2 H 0.7017 0.8295 0.8011
C50_2 C 0.6787(5) 0.9831(9) 0.7644(5)
H38_2 H 0.6354 0.9750 0.7493
H42_2 H 0.7007 0.9772 0.8454
N1_2 N 0.1124(3) 0.0794(6) 0.1042(3)
N8_3 N 0.1716(3) 0.1511(8) 0.0622(3)
C31_3 C 0.1385(4) 0.1772(9) 0.1292(4)
H17_3 H 0.1313 0.2101 0.1594
C35_3 C 0.1756(5) 0.2183(10) 0.1046(5)
H21_3 H 0.1999 0.2821 0.1150
C36_3 C 0.1337(5) 0.0683(10) 0.0632(5)
H22_3 H 0.1235 0.0094 0.0378
H36_3 H 0.3407 0.1413 0.0135
C56_3 C 0.1993(5) 0.1682(10) 0.0179(5)
H47_3 H 0.2233 0.2369 0.0251
C59_3 C 0.2376(5) 0.0705(10) 0.0163(5)
H53_3 H 0.2710 0.0676 0.0505
H54_3 H 0.2144 0.0016 0.0136
N2_3 N 0.3973(4) 0.0526(6) 0.8901(3)
C27_3 C 0.3776(4) 0.1587(9) 0.8680(4)
H14_3 H 0.3883 0.1927 0.8399
N9_3 N 0.3423(4) 0.1358(8) 0.9338(4)
C38_3 C 0.3409(5) 0.2053(10) 0.8928(5)
H24_3 H 0.3191 0.2723 0.8832
C40_3 C 0.3764(5) 0.0462(10) 0.9312(5)
C49_3 C 0.3120(5) 0.1536(10) 0.9770(5)
H35_3 H 0.2971 0.2306 0.9752
H48_3 H 0.1680 0.1765 0.9826
C58_3 C 0.2630(5) 0.0750(11) 0.9671(5)
H51_3 H 0.2312 0.0971 0.9339
H52_3 H 0.2767 0.0001 0.9611
O18_2 O 0.0670(4) 0.0696(6) 0.2132(3)
O21_2 O 0.4536(5) 0.0436(6) 0.7924(3)
O8_2 O 0.4330(4) 0.5696(6) 0.2868(3)
O10_2 O 0.4905(3) 0.4216(6) 0.3026(3)
C1_3 C 0.5045(3) 0.6706(6) 0.0385(3)
H1_3 H 0.4711 0.7080 0.0420
C6_3 C 0.5328(3) 0.5908(6) 0.0772(3)
C8_3 C 0.5135(3) 0.5649(6) 0.1260(3)
C10_3 C 0.5833(3) 0.5329(6) 0.0710(3)
H7_3 H 0.6032 0.4784 0.0966
C12_3 C 0.6582(3) 0.5010(6) 0.0214(3)
C13_3 C 0.4800(3) 0.5229(6) 0.2194(3)
C17_3 C 0.4673(3) 0.5049(7) 0.2728(3)
C18_3 C 0.4888(3) 0.6502(6) 0.1499(3)
H10_3 H 0.4833 0.7223 0.1345
C22_3 C 0.6029(3) 0.5579(6) 0.0267(3)
C23_3 C 0.4725(3) 0.6292(6) 0.1963(3)
H12_3 H 0.4565 0.6871 0.2118
C24_3 C 0.5058(3) 0.4386(6) 0.1977(3)
H13_3 H 0.5129 0.3680 0.2147
C29_3 C 0.5215(3) 0.4582(6) 0.1498(3)
H16_3 H 0.5371 0.3998 0.1343
Cd4 Cd 0.05394(2) 0.95464(5) 0.12885(2)
Cd5_2 Cd 0.44606(2) 0.45464(5) 0.37115(2)
Cd2_2 Cd 0.44257(3) 0.91608(6) 0.86019(2)
O2_3 O 0.0414(2) 0.8545(5) 0.0273(2)
O5_3 O 0.5186(3) 0.8223(6) 0.9205(2)
O9_3 O 0.4419(3) 0.8168(6) 0.9516(3)
C4_3 C 0.5240(3) 0.6970(6) 0.9945(3)
N3_3 N 0.1269(3) 0.8229(6) 0.1650(3)
C5_3 C 0.5737(3) 0.6392(6) 0.9887(3)
H5_3 H 0.5870 0.6555 0.9591
N4_3 N 0.3715(3) 0.7891(6) 0.8184(3)
N5_3 N 0.1983(3) 0.2419(6) 0.4517(4)
N6_3 N 0.3064(3) 0.2296(7) 0.5794(4)
C15_3 C 0.0026(3) 0.7987(6) 0.0392(3)
N7_3 N 0.1832(3) 0.6976(7) 0.2203(3)
C26_3 C 0.4923(3) 0.7842(6) 0.9535(3)
N10_3 N 0.3173(4) 0.6685(8) 0.7585(4)
C32_3 C 0.1544(4) 0.7554(8) 0.1365(4)
H18_3 H 0.1504 0.7632 0.0995
C34_3 C 0.3391(5) 0.7185(11) 0.8412(5)
H20_3 H 0.3410 0.7210 0.8779
C37_3 C 0.1877(4) 0.6773(10) 0.1701(5)
H23_3 H 0.2097 0.6200 0.1607
C39_3 C 0.1446(5) 0.7850(9) 0.2139(5)
H25_3 H 0.1324 0.8143 0.2422
N11_3 N 0.3461(4) 0.3035(10) 0.6605(4)
H26_3 H 0.3842 0.9862 0.9560
C41_3 C 0.3052(6) 0.6469(12) 0.8048(5)
H27_3 H 0.2787 0.5932 0.8102
C42_3 C 0.3074(6) 0.2284(13) 0.6295(6)
N12_3 N 0.1571(4) 0.3395(8) 0.3762(5)
C43_3 C 0.1993(5) 0.2624(11) 0.4050(6)
H28_3 H 0.2265 0.2285 0.3904
C44_3 C 0.3583(6) 0.7527(12) 0.7677(6)
H29_3 H 0.3747 0.7807 0.7418
C45_3 C 0.1523(4) 0.3075(10) 0.4584(5)
H30_3 H 0.1394 0.3078 0.4890
C46_3 C 0.2079(5) 0.6308(9) 0.2703(5)
H31_3 H 0.2509 0.6215 0.2780
H32_3 H 0.2017 0.6705 0.3011
C47_3 C 0.1300(5) 0.3690(11) 0.4138(5)
H33_3 H 0.1003 0.4239 0.4088
C48_3 C 0.3505(6) 0.3032(13) 0.5769(6)
H34_3 H 0.3619 0.3217 0.5465
C50_3 C 0.1787(5) 0.5169(9) 0.2644(5)
H37_3 H 0.1920 0.4704 0.2394
H38_3 H 0.1354 0.5250 0.2493
C51_3 C 0.3745(7) 0.3442(13) 0.6306(6)
C52_3 C 0.1502(5) 0.3810(10) 0.3250(5)
H39_3 H 0.1497 0.3169 0.3012
H40_3 H 0.1109 0.4163 0.3115
C53_3 C 0.1948(5) 0.4640(10) 0.3177(5)
H41_3 H 0.2330 0.4255 0.3245
H42_3 H 0.2007 0.5228 0.3454
C54_3 C 0.2919(6) 0.6090(10) 0.7042(6)
H43_3 H 0.3169 0.6280 0.6819
H44_3 H 0.2523 0.6403 0.6858
C55_3 C 0.3608(6) 0.3232(12) 0.7214(5)
H45_3 H 0.4041 0.3287 0.7379
H46_3 H 0.3475 0.2581 0.7374
C57_3 C 0.3349(6) 0.4197(12) 0.7347(6)
H49_3 H 0.3251 0.3986 0.7673
H50_3 H 0.3679 0.4730 0.7472
C60_3 C 0.2861(6) 0.4857(10) 0.7042(6)
H55_3 H 0.2749 0.4606 0.6662
H56_3 H 0.2526 0.4681 0.7170
O19_2 O 0.0095(3) 0.9216(6) 0.1974(3)
O20_2 O 0.4881(3) 0.8747(7) 0.7914(3)
H57_3 H 0.279793 0.172426 0.645077
H58_3 H 0.412196 0.402719 0.644673
H2_3 H 0.0198 0.7064 0.9504
O11_2 O 0.0119(3) 0.3747(7) 0.7086(3)
O13_2 O 0.0464(5) 0.5436(6) 0.7076(3)
C25_3 C 0.0066(3) 0.4981(6) 0.7796(3)
C30_3 C 0.0217(3) 0.4727(7) 0.7280(3)
C33_3 C 0.0092(3) 0.6095(6) 0.7979(3)
H19_3 H 0.0218 0.6660 0.7790
Cd6_2 Cd 0.05743(3) 0.41608(6) 0.63981(2)
O1_3 O 0.9871(3) 0.8183(5) 0.0806(2)
C3_3 C 0.9713(3) 0.7014(6) 0.0024(3)
C7_3 C 0.9254(3) 0.6423(6) 0.0135(3)
H6_3 H 0.9137 0.6628 0.0436
C2_3 C 0.9882(3) 0.6686(6) 0.9571(3)
C9_3 C 0.9600(3) 0.5830(6) 0.9222(3)
C11_3 C 0.9760(3) 0.5526(6) 0.8733(3)
C14_3 C 0.9882(3) 0.4161(6) 0.8077(3)
H8_3 H 0.9857 0.3415 0.7955
C16_3 C 0.9140(3) 0.5235(6) 0.9347(3)
H9_3 H 0.8948 0.4636 0.9124
C19_3 C 0.9731(3) 0.4418(6) 0.8544(3)
H11_3 H 0.9609 0.3843 0.8732
C20_3 C 0.8450(3) 0.4937(6) 0.9899(3)
C21_3 C 0.8970(3) 0.5533(6) 0.9804(3)
C28_3 C 0.9935(3) 0.6379(6) 0.8438(3)
H15_3 H 0.9946 0.7131 0.8549
O1_4 O 0.5129(3) 0.3183(5) 0.4194(2)
O2_4 O 0.4586(2) 0.3545(5) 0.4727(2)
C2_4 C 0.5118(3) 0.1686(6) 0.5429(3)
H2_4 H 0.4802 0.2064 0.5496
C3_4 C 0.5287(3) 0.2014(6) 0.4976(3)
O12_2 O 0.5327(2) 0.5627(5) 0.4260(3)
H3_2 H 0.5660 0.5311 0.4251
H4_2 H 0.5334 0.6295 0.4114
N3_4 N 0.3731(3) 0.3229(6) 0.3350(3)
C7_4 C 0.5746(3) 0.1423(6) 0.4865(3)
H6_4 H 0.5863 0.1628 0.4564
C9_4 C 0.5400(3) 0.0830(6) 0.5778(3)
C11_4 C 0.5240(3) 0.0526(6) 0.6267(3)
C15_4 C 0.4974(3) 0.2987(6) 0.4608(3)
C16_4 C 0.5860(3) 0.0235(6) 0.5653(3)
C21_4 C 0.6030(3) 0.0533(6) 0.5196(3)
N7_4 N 0.3168(3) 0.1976(7) 0.2797(3)
C28_4 C 0.5065(3) 0.1379(6) 0.6562(3)
H15_4 H 0.5054 0.2131 0.6451
C32_4 C 0.3456(4) 0.2554(8) 0.3635(4)
H18_4 H 0.3496 0.2632 0.4005
C33_4 C 0.4908(3) 0.1095(6) 0.7021(3)
H19_4 H 0.4782 0.1660 0.7210
C37_4 C 0.3123(4) 0.1773(10) 0.3299(5)
H23_4 H 0.2903 0.1200 0.3393
C39_4 C 0.3554(5) 0.2850(9) 0.2861(5)
H25_4 H 0.3676 0.3143 0.2578
C46_4 C 0.2921(5) 0.1308(9) 0.2297(5)
H31_4 H 0.2491 0.1215 0.2220
H32_4 H 0.2983 0.1705 0.1989
C50_4 C 0.3213(5) 0.0169(9) 0.2356(5)
H38_4 H 0.3646 0.0250 0.2507
H42_4 H 0.2993 0.0228 0.1546
N13_2 N 0.3876(3) 0.5794(6) 0.3958(3)
O9_4 O 0.0581(3) 0.3168(6) 0.5484(3)
H1_4 H 0.0289 0.2080 0.4580
N2_4 N 0.1027(4) 0.5526(6) 0.6099(3)
N4_4 N 0.1285(3) 0.2891(6) 0.6816(3)
C13_4 C 0.0200(3) 0.0229(6) 0.2806(3)
C17_4 C 0.0327(3) 0.0049(7) 0.2272(3)
C18_4 C 0.0112(3) 0.1502(6) 0.3501(3)
H10_4 H 0.0167 0.2223 0.3655
C23_4 C 0.0275(3) 0.1292(6) 0.3037(3)
H12_4 H 0.0435 0.1871 0.2882
C26_4 C 0.0077(3) 0.2842(6) 0.5465(3)
C27_4 C 0.1224(4) 0.6587(9) 0.6320(4)
H14_4 H 0.1117 0.6927 0.6601
N8_4 N 0.3284(3) 0.6511(8) 0.4378(3)
N9_4 N 0.1577(4) 0.6358(8) 0.5662(4)
C31_4 C 0.3615(4) 0.6772(9) 0.3708(4)
H17_4 H 0.3687 0.7101 0.3406
N10_4 N 0.1827(4) 0.1685(8) 0.7415(4)
C34_4 C 0.1609(5) 0.2185(11) 0.6588(5)
H20_4 H 0.1590 0.2210 0.6221
C35_4 C 0.3244(5) 0.7183(10) 0.3954(5)
H21_4 H 0.3001 0.7821 0.3850
C36_4 C 0.3663(5) 0.5683(10) 0.4368(5)
H22_4 H 0.3765 0.5094 0.4622
C38_4 C 0.1591(5) 0.7053(10) 0.6072(5)
H24_4 H 0.1809 0.7723 0.6168
C40_4 C 0.1236(5) 0.5462(10) 0.5688(5)
H26_4 H 0.1158 0.4862 0.5440
C41_4 C 0.1948(6) 0.1469(12) 0.6952(5)
H27_4 H 0.2213 0.0932 0.6898
C44_4 C 0.1417(6) 0.2527(12) 0.7323(6)
H29_4 H 0.1253 0.2807 0.7582
C49_4 C 0.1880(5) 0.6536(10) 0.5230(5)
H35_4 H 0.2029 0.7306 0.5248
H36_4 H 0.1593 0.6413 0.4865
C54_4 C 0.2081(6) 0.1090(10) 0.7958(6)
H43_4 H 0.1831 0.1280 0.8181
H44_4 H 0.2477 0.1403 0.8142
C56_4 C 0.3007(5) 0.6682(10) 0.4821(5)
H47_4 H 0.2767 0.7369 0.4749
H48_4 H 0.3320 0.6765 0.5174
C58_4 C 0.2370(5) 0.5750(11) 0.5329(5)
H51_4 H 0.2688 0.5971 0.5661
H52_4 H 0.2233 0.5001 0.5389
C59_4 C 0.2624(5) 0.5705(10) 0.4837(5)
H53_4 H 0.2290 0.5676 0.4495
H54_4 H 0.2856 0.5016 0.4864
N5_4 N 0.3017(3) 0.7419(6) 0.0483(4)
C14_4 C 0.5118(3) 0.9161(6) 0.6923(3)
H8_4 H 0.5143 0.8415 0.7045
H9_4 H 0.6052 0.9636 0.5876
C19_4 C 0.5269(3) 0.9418(6) 0.6456(3)
H11_4 H 0.5391 0.8843 0.6268
C20_4 C 0.6550(3) 0.9937(6) 0.5101(3)
C25_4 C 0.4934(3) 0.9981(6) 0.7204(3)
C30_4 C 0.4783(3) 0.9727(7) 0.7720(3)
N12_4 N 0.3429(4) 0.8395(8) 0.1238(5)
C43_4 C 0.3007(5) 0.7624(11) 0.0950(6)
H28_4 H 0.2735 0.7285 0.1096
C45_4 C 0.3477(4) 0.8075(10) 0.0416(5)
H30_4 H 0.3606 0.8078 0.0110
C47_4 C 0.3700(5) 0.8690(11) 0.0862(5)
H33_4 H 0.3997 0.9239 0.0912
H37_4 H 0.3080 0.9704 0.2606
C52_4 C 0.3498(5) 0.8810(10) 0.1750(5)
H39_4 H 0.3503 0.8169 0.1988
H40_4 H 0.3891 0.9163 0.1885
C53_4 C 0.3052(5) 0.9640(10) 0.1823(5)
H41_4 H 0.2670 0.9255 0.1755
N6_4 N 0.1936(3) 0.7296(7) 0.9206(4)
N11_4 N 0.1539(4) 0.8035(10) 0.8395(4)
C42_4 C 0.1926(6) 0.7284(13) 0.8705(6)
C48_4 C 0.1495(6) 0.8032(13) 0.9231(6)
H34_4 H 0.1381 0.8217 0.9535
C51_4 C 0.1255(7) 0.8442(13) 0.8694(6)
C55_4 C 0.1392(6) 0.8232(12) 0.7786(5)
H45_4 H 0.0959 0.8287 0.7621
H46_4 H 0.1525 0.7581 0.7626
C57_4 C 0.1651(6) 0.9197(12) 0.7653(6)
H49_4 H 0.1749 0.8986 0.7327
H50_4 H 0.1321 0.9730 0.7528
C60_4 C 0.2139(6) 0.9857(10) 0.7958(6)
H55_4 H 0.2251 0.9606 0.8338
H56_4 H 0.2474 0.9681 0.7830
H57_4 H 0.220207 0.672426 0.854923
H58_4 H 0.0878038 0.902719 0.855327
O5_4 O 0.9814(3) 0.3223(6) 0.5795(2)
C1_4 C 0.9955(3) 0.1706(6) 0.4615(3)
C4_4 C 0.9760(3) 0.1970(6) 0.5055(3)
C5_4 C 0.9263(3) 0.1392(6) 0.5113(3)
H5_4 H 0.9130 0.1555 0.5409
C6_4 C 0.9672(3) 0.0908(6) 0.4228(3)
C8_4 C 0.9865(3) 0.0649(6) 0.3740(3)
C10_4 C 0.9167(3) 0.0329(6) 0.4290(3)
C12_4 C 0.8418(3) 0.0010(6) 0.4786(3)
C22_4 C 0.8971(3) 0.0579(6) 0.4733(3)
H7_4 H 0.8968 0.9784 0.4034
C24_4 C 0.9942(3) 0.9386(6) 0.3023(3)
H13_4 H 0.9871 0.8680 0.2853
C29_4 C 0.9785(3) 0.9582(6) 0.3502(3)
H16_4 H 0.9629 0.8998 0.3657
O12_3 O 0.0327(2) 0.9373(5) 0.9260(3)
H3_3 H 0.0660 0.9689 0.9251
H4_3 H 0.0334 0.8705 0.9114
O12_4 O 0.9673(2) 0.0627(5) 0.0740(3)
H3_4 H 0.9340 0.0311 0.0749
H4_4 H 0.9666 0.1295 0.0886
loop_
_geom_bond_atom_site_label_1
_geom_bond_atom_site_label_2
_geom_bond_site_symmetry_1
_geom_bond_site_symmetry_2
O3 C20 1_555 1_555
C9 C2 1_555 1_555
C11 C9 1_555 1_555
C14 H8 1_555 1_555
C16 C9 1_555 1_555
H9 C16 1_555 1_555
C19 C11 1_555 1_555
H11 C19 1_555 1_555
C20 C21 1_555 1_555
C28 C11 1_555 1_555
H15 C28 1_555 1_555
C14 C19 1_555 1_555
C16 C21 1_555 1_555
C7 C3 1_555 1_555
H6 C7 1_555 1_555
O6 Cd8 1_555 1_555
O11 C30 1_555 1_555
O13 C30 1_555 1_555
C30 C25 1_555 1_555
C33 C25 1_555 1_555
H19 C33 1_555 1_555
Cd6 O11 1_555 1_555
O13 Cd6 1_555 1_555
Cd2 O5 1_555 1_555
Cd3 N5 1_555 1_555
O2 Cd1 1_555 1_555
O5 C26 1_555 1_555
O9 Cd2 1_555 1_555
N3 Cd1 1_555 1_555
C5 C4 1_555 1_555
H5 C5 1_555 1_555
N4 Cd2 1_555 1_555
N5 C43 1_555 1_555
N6 Cd3 1_555 1_555
C15 O2 1_555 1_555
N7 C37 1_555 1_555
C26 O9 1_555 1_555
N10 C41 1_555 1_555
C32 N3 1_555 1_555
H18 C32 1_555 1_555
C34 N4 1_555 1_555
H20 C34 1_555 1_555
C37 C32 1_555 1_555
H23 C37 1_555 1_555
C39 N3 1_555 1_555
H25 C39 1_555 1_555
N11 C42 1_555 1_555
C41 C34 1_555 1_555
H27 C41 1_555 1_555
C42 N6 1_555 1_555
N12 C43 1_555 1_555
C43 H28 1_555 1_555
C44 N4 1_555 1_555
H29 C44 1_555 1_555
C45 N5 1_555 1_555
H30 C45 1_555 1_555
C46 N7 1_555 1_555
H31 C46 1_555 1_555
H32 C46 1_555 1_555
C47 N12 1_555 1_555
H33 C47 1_555 1_555
C48 N6 1_555 1_555
H34 C48 1_555 1_555
C50 C46 1_555 1_555
H37 C50 1_555 1_555
H38 C50 1_555 1_555
C51 N11 1_555 1_555
C52 N12 1_555 1_555
H39 C52 1_555 1_555
H40 C52 1_555 1_555
C53 C50 1_555 1_555
H41 C53 1_555 1_555
H42 C53 1_555 1_555
C54 N10 1_555 1_555
H43 C54 1_555 1_555
H44 C54 1_555 1_555
C55 N11 1_555 1_555
H45 C55 1_555 1_555
H46 C55 1_555 1_555
C57 C55 1_555 1_555
H49 C57 1_555 1_555
H50 C57 1_555 1_555
C60 C54 1_555 1_555
H55 C60 1_555 1_555
H56 C60 1_555 1_555
O14 Cd3 1_555 1_555
O15 Cd3 1_555 1_555
O19 Cd1 1_555 1_555
O20 Cd2 1_555 1_555
C4 C26 1_555 1_555
N7 C39 1_555 1_555
N10 C44 1_555 1_555
C45 C47 1_555 1_555
C48 C51 1_555 1_555
C52 C53 1_555 1_555
C57 C60 1_555 1_555
C42 H57 1_555 1_555
C51 H58 1_555 1_555
O4 C12 1_555 1_555
O8 C17 1_555 1_555
O10 C17 1_555 1_555
C1 H1 1_555 1_555
C6 C1 1_555 1_555
C8 C6 1_555 1_555
C10 C6 1_555 1_555
H7 C10 1_555 1_555
C12 C22 1_555 1_555
C13 C17 1_555 1_555
C18 C8 1_555 1_555
H10 C18 1_555 1_555
C23 C13 1_555 1_555
H12 C23 1_555 1_555
C24 C13 1_555 1_555
H13 C24 1_555 1_555
C29 C8 1_555 1_555
H16 C29 1_555 1_555
Cd5 O8 1_555 1_555
Cd8 O4 1_555 1_555
O10 Cd5 1_555 1_555
C10 C22 1_555 1_555
C18 C23 1_555 1_555
C24 C29 1_555 1_555
C27 N2 1_555 1_555
H14 C27 1_555 1_555
N9 C38 1_555 1_555
C38 C27 1_555 1_555
H24 C38 1_555 1_555
C40 N2 1_555 1_555
C49 N9 1_555 1_555
H35 C49 1_555 1_555
C58 C49 1_555 1_555
H51 C58 1_555 1_555
H52 C58 1_555 1_555
N9 C40 1_555 1_555
N13 C31 1_555 1_555
N8 C35 1_555 1_555
C31 H17 1_555 1_555
C35 C31 1_555 1_555
H21 C35 1_555 1_555
C36 N13 1_555 1_555
H22 C36 1_555 1_555
C56 N8 1_555 1_555
H47 C56 1_555 1_555
C59 C56 1_555 1_555
H53 C59 1_555 1_555
H54 C59 1_555 1_555
N8 C36 1_555 1_555
H13_2 C24_2 1_555 1_555
H16_2 C29_2 1_555 1_555
Cd7 O4_2 1_555 1_555
C24_2 C29_2 1_555 1_555
O7_2 C12_2 1_555 1_555
C4_2 C1_2 1_555 1_555
C5_2 C4_2 1_555 1_555
H5_2 C5_2 1_555 1_555
C6_2 C1_2 1_555 1_555
C8_2 C6_2 1_555 1_555
C10_2 C6_2 1_555 1_555
C12_2 C22_2 1_555 1_555
C22_2 C5_2 1_555 1_555
C10_2 C22_2 1_555 1_555
N6_2 Cd3_2 1_555 1_555
N11_2 C42_2 1_555 1_555
C42_2 N6_2 1_555 1_555
C48_2 N6_2 1_555 1_555
H34_2 C48_2 1_555 1_555
C51_2 N11_2 1_555 1_555
C55_2 N11_2 1_555 1_555
H45_2 C55_2 1_555 1_555
H46_2 C55_2 1_555 1_555
C57_2 C55_2 1_555 1_555
H49_2 C57_2 1_555 1_555
H50_2 C57_2 1_555 1_555
H55_2 C60_2 1_555 1_555
H56_2 C60_2 1_555 1_555
O15_2 Cd3_2 1_555 1_555
O16_2 Cd3_2 1_555 1_555
C48_2 C51_2 1_555 1_555
C57_2 C60_2 1_555 1_555
C42_2 H57_2 1_555 1_555
C51_2 H58_2 1_555 1_555
O3_2 C20_2 1_555 1_555
O20 C30_2 1_555 1_555
N5_2 C43_2 1_555 1_555
C14_2 H8_2 1_555 1_555
H11_2 C19_2 1_555 1_555
C25_2 C14_2 1_555 1_555
C30_2 C25_2 1_555 1_555
N12_2 C43_2 1_555 1_555
C43_2 H28_2 1_555 1_555
C45_2 N5_2 1_555 1_555
H30_2 C45_2 1_555 1_555
C47_2 N12_2 1_555 1_555
H33_2 C47_2 1_555 1_555
C52_2 N12_2 1_555 1_555
H39_2 C52_2 1_555 1_555
H40_2 C52_2 1_555 1_555
H41_2 C53_2 1_555 1_555
Cd7 O3_2 1_555 1_555
C14_2 C19_2 1_555 1_555
C45_2 C47_2 1_555 1_555
C52_2 C53_2 1_555 1_555
N1 C31_2 1_555 1_555
O18 C17_2 1_555 1_555
O9_2 Cd6 1_555 1_555
N2_2 Cd6 1_555 1_555
N4_2 Cd6 1_555 1_555
C13_2 C17_2 1_555 1_555
H10_2 C18_2 1_555 1_555
C23_2 C13_2 1_555 1_555
H12_2 C23_2 1_555 1_555
C26_2 O9_2 1_555 1_555
C27_2 N2_2 1_555 1_555
H14_2 C27_2 1_555 1_555
N8_2 C35_2 1_555 1_555
N9_2 C38_2 1_555 1_555
C31_2 H17_2 1_555 1_555
N10_2 C41_2 1_555 1_555
C34_2 N4_2 1_555 1_555
H20_2 C34_2 1_555 1_555
C35_2 C31_2 1_555 1_555
H21_2 C35_2 1_555 1_555
C36_2 N1 1_555 1_555
H22_2 C36_2 1_555 1_555
C38_2 C27_2 1_555 1_555
H24_2 C38_2 1_555 1_555
C40_2 N2_2 1_555 1_555
H26_2 C40_2 1_555 1_555
C41_2 C34_2 1_555 1_555
H27_2 C41_2 1_555 1_555
C44_2 N4_2 1_555 1_555
H29_2 C44_2 1_555 1_555
C49_2 N9_2 1_555 1_555
H35_2 C49_2 1_555 1_555
H36_2 C49_2 1_555 1_555
C54_2 N10_2 1_555 1_555
H43_2 C54_2 1_555 1_555
H44_2 C54_2 1_555 1_555
C56_2 N8_2 1_555 1_555
H47_2 C56_2 1_555 1_555
H48_2 C56_2 1_555 1_555
C58_2 C49_2 1_555 1_555
H51_2 C58_2 1_555 1_555
H52_2 C58_2 1_555 1_555
C59_2 C56_2 1_555 1_555
H53_2 C59_2 1_555 1_555
H54_2 C59_2 1_555 1_555
Cd5 N1 1_555 1_555
C18_2 C23_2 1_555 1_555
N8_2 C36_2 1_555 1_555
N9_2 C40_2 1_555 1_555
N10_2 C44_2 1_555 1_555
C58_2 C59_2 1_555 1_555
Cd5 O1_2 1_555 1_555
O1_2 C15_2 1_555 1_555
O2_2 Cd5 1_555 1_555
C2_2 H2_2 1_555 1_555
C3_2 C2_2 1_555 1_555
O12 Cd5 1_555 1_555
H3 O12 1_555 1_555
H4 O12 1_555 1_555
N3_2 Cd5 1_555 1_555
C7_2 C3_2 1_555 1_555
H6_2 C7_2 1_555 1_555
C9_2 C2_2 1_555 1_555
C11_2 C9_2 1_555 1_555
C15_2 O2_2 1_555 1_555
C16_2 C9_2 1_555 1_555
C21_2 C7_2 1_555 1_555
N7_2 C37_2 1_555 1_555
C28_2 C11_2 1_555 1_555
H15_2 C28_2 1_555 1_555
C32_2 N3_2 1_555 1_555
H18_2 C32_2 1_555 1_555
H19_2 C33_2 1_555 1_555
C37_2 C32_2 1_555 1_555
H23_2 C37_2 1_555 1_555
C39_2 N3_2 1_555 1_555
H25_2 C39_2 1_555 1_555
C46_2 N7_2 1_555 1_555
H31_2 C46_2 1_555 1_555
H32_2 C46_2 1_555 1_555
C50_2 C46_2 1_555 1_555
H38_2 C50_2 1_555 1_555
C3_2 C15_2 1_555 1_555
C16_2 C21_2 1_555 1_555
N7_2 C39_2 1_555 1_555
C28_2 C33_2 1_555 1_555
N1_2 C31_3 1_555 1_555
N8_3 C35_3 1_555 1_555
C31_3 H17_3 1_555 1_555
C35_3 C31_3 1_555 1_555
H21_3 C35_3 1_555 1_555
C36_3 N1_2 1_555 1_555
H22_3 C36_3 1_555 1_555
C56_3 N8_3 1_555 1_555
H47_3 C56_3 1_555 1_555
C59_3 C56_3 1_555 1_555
H53_3 C59_3 1_555 1_555
H54_3 C59_3 1_555 1_555
N8_3 C36_3 1_555 1_555
C27_3 N2_3 1_555 1_555
H14_3 C27_3 1_555 1_555
N9_3 C38_3 1_555 1_555
C38_3 C27_3 1_555 1_555
H24_3 C38_3 1_555 1_555
C40_3 N2_3 1_555 1_555
C49_3 N9_3 1_555 1_555
H35_3 C49_3 1_555 1_555
C58_3 C49_3 1_555 1_555
H51_3 C58_3 1_555 1_555
H52_3 C58_3 1_555 1_555
N9_3 C40_3 1_555 1_555
O15_2 C12_3 1_555 1_555
O8_2 C17_3 1_555 1_555
O10_2 C17_3 1_555 1_555
C1_3 H1_3 1_555 1_555
C6_3 C1_3 1_555 1_555
C8_3 C6_3 1_555 1_555
C10_3 C6_3 1_555 1_555
H7_3 C10_3 1_555 1_555
C12_3 C22_3 1_555 1_555
C13_3 C17_3 1_555 1_555
C18_3 C8_3 1_555 1_555
H10_3 C18_3 1_555 1_555
C23_3 C13_3 1_555 1_555
H12_3 C23_3 1_555 1_555
C24_3 C13_3 1_555 1_555
H13_3 C24_3 1_555 1_555
C29_3 C8_3 1_555 1_555
H16_3 C29_3 1_555 1_555
Cd5_2 O8_2 1_555 1_555
O10_2 Cd5_2 1_555 1_555
C10_3 C22_3 1_555 1_555
C18_3 C23_3 1_555 1_555
C24_3 C29_3 1_555 1_555
Cd2_2 O5_3 1_555 1_555
Cd7 N5_3 1_555 1_555
O2_3 Cd4 1_555 1_555
O5_3 C26_3 1_555 1_555
O9_3 Cd2_2 1_555 1_555
N3_3 Cd4 1_555 1_555
C5_3 C4_3 1_555 1_555
H5_3 C5_3 1_555 1_555
N4_3 Cd2_2 1_555 1_555
N5_3 C43_3 1_555 1_555
N6_3 Cd7 1_555 1_555
C15_3 O2_3 1_555 1_555
N7_3 C37_3 1_555 1_555
C26_3 O9_3 1_555 1_555
N10_3 C41_3 1_555 1_555
C32_3 N3_3 1_555 1_555
H18_3 C32_3 1_555 1_555
C34_3 N4_3 1_555 1_555
H20_3 C34_3 1_555 1_555
C37_3 C32_3 1_555 1_555
H23_3 C37_3 1_555 1_555
C39_3 N3_3 1_555 1_555
H25_3 C39_3 1_555 1_555
N11_3 C42_3 1_555 1_555
C41_3 C34_3 1_555 1_555
H27_3 C41_3 1_555 1_555
C42_3 N6_3 1_555 1_555
N12_3 C43_3 1_555 1_555
C43_3 H28_3 1_555 1_555
C44_3 N4_3 1_555 1_555
H29_3 C44_3 1_555 1_555
C45_3 N5_3 1_555 1_555
H30_3 C45_3 1_555 1_555
C46_3 N7_3 1_555 1_555
H31_3 C46_3 1_555 1_555
H32_3 C46_3 1_555 1_555
C47_3 N12_3 1_555 1_555
H33_3 C47_3 1_555 1_555
C48_3 N6_3 1_555 1_555
H34_3 C48_3 1_555 1_555
C50_3 C46_3 1_555 1_555
H37_3 C50_3 1_555 1_555
H38_3 C50_3 1_555 1_555
C51_3 N11_3 1_555 1_555
C52_3 N12_3 1_555 1_555
H39_3 C52_3 1_555 1_555
H40_3 C52_3 1_555 1_555
C53_3 C50_3 1_555 1_555
H41_3 C53_3 1_555 1_555
H42_3 C53_3 1_555 1_555
C54_3 N10_3 1_555 1_555
H43_3 C54_3 1_555 1_555
H44_3 C54_3 1_555 1_555
C55_3 N11_3 1_555 1_555
H45_3 C55_3 1_555 1_555
H46_3 C55_3 1_555 1_555
C57_3 C55_3 1_555 1_555
H49_3 C57_3 1_555 1_555
H50_3 C57_3 1_555 1_555
C60_3 C54_3 1_555 1_555
H55_3 C60_3 1_555 1_555
H56_3 C60_3 1_555 1_555
O19_2 Cd4 1_555 1_555
O20_2 Cd2_2 1_555 1_555
C4_3 C26_3 1_555 1_555
N7_3 C39_3 1_555 1_555
N10_3 C44_3 1_555 1_555
C45_3 C47_3 1_555 1_555
C48_3 C51_3 1_555 1_555
C52_3 C53_3 1_555 1_555
C57_3 C60_3 1_555 1_555
C42_3 H57_3 1_555 1_555
C51_3 H58_3 1_555 1_555
O11_2 C30_3 1_555 1_555
O13_2 C30_3 1_555 1_555
C30_3 C25_3 1_555 1_555
C33_3 C25_3 1_555 1_555
H19_3 C33_3 1_555 1_555
Cd6_2 O11_2 1_555 1_555
O13_2 Cd6_2 1_555 1_555
C7_3 C3_3 1_555 1_555
H6_3 C7_3 1_555 1_555
O14_2 C20_3 1_555 1_555
C9_3 C2_3 1_555 1_555
C11_3 C9_3 1_555 1_555
C14_3 H8_3 1_555 1_555
C16_3 C9_3 1_555 1_555
H9_3 C16_3 1_555 1_555
C19_3 C11_3 1_555 1_555
H11_3 C19_3 1_555 1_555
C20_3 C21_3 1_555 1_555
C28_3 C11_3 1_555 1_555
H15_3 C28_3 1_555 1_555
C14_3 C19_3 1_555 1_555
C16_3 C21_3 1_555 1_555
Cd5_2 O1_4 1_555 1_555
O1_4 C15_4 1_555 1_555
O2_4 Cd5_2 1_555 1_555
C2_4 H2_4 1_555 1_555
C3_4 C2_4 1_555 1_555
O12_2 Cd5_2 1_555 1_555
H3_2 O12_2 1_555 1_555
H4_2 O12_2 1_555 1_555
N3_4 Cd5_2 1_555 1_555
C7_4 C3_4 1_555 1_555
H6_4 C7_4 1_555 1_555
C9_4 C2_4 1_555 1_555
C11_4 C9_4 1_555 1_555
C15_4 O2_4 1_555 1_555
C16_4 C9_4 1_555 1_555
C21_4 C7_4 1_555 1_555
N7_4 C37_4 1_555 1_555
C28_4 C11_4 1_555 1_555
H15_4 C28_4 1_555 1_555
C32_4 N3_4 1_555 1_555
H18_4 C32_4 1_555 1_555
H19_4 C33_4 1_555 1_555
C37_4 C32_4 1_555 1_555
H23_4 C37_4 1_555 1_555
C39_4 N3_4 1_555 1_555
H25_4 C39_4 1_555 1_555
C46_4 N7_4 1_555 1_555
H31_4 C46_4 1_555 1_555
H32_4 C46_4 1_555 1_555
C50_4 C46_4 1_555 1_555
H38_4 C50_4 1_555 1_555
N13_2 Cd5_2 1_555 1_555
C3_4 C15_4 1_555 1_555
C16_4 C21_4 1_555 1_555
N7_4 C39_4 1_555 1_555
C28_4 C33_4 1_555 1_555
N13_2 C31_4 1_555 1_555
O18_2 C17_4 1_555 1_555
O9_4 Cd6_2 1_555 1_555
N2_4 Cd6_2 1_555 1_555
N4_4 Cd6_2 1_555 1_555
C13_4 C17_4 1_555 1_555
H10_4 C18_4 1_555 1_555
C23_4 C13_4 1_555 1_555
H12_4 C23_4 1_555 1_555
C26_4 O9_4 1_555 1_555
C27_4 N2_4 1_555 1_555
H14_4 C27_4 1_555 1_555
N8_4 C35_4 1_555 1_555
N9_4 C38_4 1_555 1_555
C31_4 H17_4 1_555 1_555
N10_4 C41_4 1_555 1_555
C34_4 N4_4 1_555 1_555
H20_4 C34_4 1_555 1_555
C35_4 C31_4 1_555 1_555
H21_4 C35_4 1_555 1_555
C36_4 N13_2 1_555 1_555
H22_4 C36_4 1_555 1_555
C38_4 C27_4 1_555 1_555
H24_4 C38_4 1_555 1_555
C40_4 N2_4 1_555 1_555
H26_4 C40_4 1_555 1_555
C41_4 C34_4 1_555 1_555
H27_4 C41_4 1_555 1_555
C44_4 N4_4 1_555 1_555
H29_4 C44_4 1_555 1_555
C49_4 N9_4 1_555 1_555
H35_4 C49_4 1_555 1_555
H36_4 C49_4 1_555 1_555
C54_4 N10_4 1_555 1_555
H43_4 C54_4 1_555 1_555
H44_4 C54_4 1_555 1_555
C56_4 N8_4 1_555 1_555
H47_4 C56_4 1_555 1_555
H48_4 C56_4 1_555 1_555
C58_4 C49_4 1_555 1_555
H51_4 C58_4 1_555 1_555
H52_4 C58_4 1_555 1_555
C59_4 C56_4 1_555 1_555
H53_4 C59_4 1_555 1_555
H54_4 C59_4 1_555 1_555
C18_4 C23_4 1_555 1_555
N8_4 C36_4 1_555 1_555
N9_4 C40_4 1_555 1_555
N10_4 C44_4 1_555 1_555
C58_4 C59_4 1_555 1_555
O14 C20_4 1_555 1_555
O20_2 C30_4 1_555 1_555
N5_4 C43_4 1_555 1_555
C14_4 H8_4 1_555 1_555
H11_4 C19_4 1_555 1_555
C25_4 C14_4 1_555 1_555
C30_4 C25_4 1_555 1_555
N12_4 C43_4 1_555 1_555
C43_4 H28_4 1_555 1_555
C45_4 N5_4 1_555 1_555
H30_4 C45_4 1_555 1_555
C47_4 N12_4 1_555 1_555
H33_4 C47_4 1_555 1_555
C52_4 N12_4 1_555 1_555
H39_4 C52_4 1_555 1_555
H40_4 C52_4 1_555 1_555
H41_4 C53_4 1_555 1_555
C14_4 C19_4 1_555 1_555
C45_4 C47_4 1_555 1_555
C52_4 C53_4 1_555 1_555
N6_4 Cd8 1_555 1_555
N11_4 C42_4 1_555 1_555
C42_4 N6_4 1_555 1_555
C48_4 N6_4 1_555 1_555
H34_4 C48_4 1_555 1_555
C51_4 N11_4 1_555 1_555
C55_4 N11_4 1_555 1_555
H45_4 C55_4 1_555 1_555
H46_4 C55_4 1_555 1_555
C57_4 C55_4 1_555 1_555
H49_4 C57_4 1_555 1_555
H50_4 C57_4 1_555 1_555
H55_4 C60_4 1_555 1_555
H56_4 C60_4 1_555 1_555
C48_4 C51_4 1_555 1_555
C57_4 C60_4 1_555 1_555
C42_4 H57_4 1_555 1_555
C51_4 H58_4 1_555 1_555
O17 C12_4 1_555 1_555
C4_4 C1_4 1_555 1_555
C5_4 C4_4 1_555 1_555
H5_4 C5_4 1_555 1_555
C6_4 C1_4 1_555 1_555
C8_4 C6_4 1_555 1_555
C10_4 C6_4 1_555 1_555
C12_4 C22_4 1_555 1_555
C22_4 C5_4 1_555 1_555
C10_4 C22_4 1_555 1_555
H13_4 C24_4 1_555 1_555
H16_4 C29_4 1_555 1_555
C24_4 C29_4 1_555 1_555
H3_3 O12_3 1_555 1_555
H4_3 O12_3 1_555 1_555
H3_4 O12_4 1_555 1_555
H4_4 O12_4 1_555 1_555

#END
