
###############################################################################
#
# This file contains modified crystal structure data generated from the
# MOF subset of the Cambridge Structural Database (CSD) v543 
# hosted by the Cambridge Crystallographic Data Centre (CCDC).
#
# This work is licensed under the Creative Commons
# Attribution-NonCommercial-ShareAlike 4.0 International License.
# To view a copy of this license, visit
# http://creativecommons.org/licenses/by-nc-sa/4.0/
# or send a letter to
# Creative Commons, PO Box 1866, Mountain View, CA 94042, USA.
#
# CIF created using the CSD Python API on 29 September 2022
# The structure has been converted into the P1 space group
# The structure has a 3D framework
# The original CSD entry AREHUD is in the monoclinic crystal system
# The framework has been calculated to contain at least 10.0% void space
# The void calculation uses a probe of radius 1.32A, grid spacing 0.4
#
###############################################################################

data_AREHUD
_chemical_formula_moiety         '(C144 H168 Cu46 I22 N48 S24)n'
_symmetry_cell_setting           triclinic
_symmetry_space_group_name_H-M   'P 1'
_symmetry_Int_Tables_number      1
_space_group_name_Hall           'P 1'
loop_
_symmetry_equiv_pos_site_id
_symmetry_equiv_pos_as_xyz
1 x,y,z
_cell_length_a                   28.313(3)
_cell_length_b                   15.0425(14)
_cell_length_c                   20.956(2)
_cell_angle_alpha                90
_cell_angle_beta                 124.589(3)
_cell_angle_gamma                90
_cell_volume                     7347.57
loop_
_atom_site_label
_atom_site_type_symbol
_atom_site_fract_x
_atom_site_fract_y
_atom_site_fract_z
I1 I 0.18080(5) 0.32831(9) 0.28511(6)
I2 I 0.36004(4) 0.37972(8) 0.38864(5)
Cu2 Cu 0.31366(6) 0.32365(9) 0.10107(8)
Cu3 Cu 0.19330(6) 0.21221(9) 0.03402(7)
Cu4 Cu 0.25887(7) 0.39019(10) 0.26818(8)
Cu5 Cu 0.27241(8) 0.39251(10) 0.39912(9)
S2 S 0.25084(12) 0.30383(17) 0.13517(14)
N1 N 0.3019(5) 0.5745(6) 0.0064(6)
N2 N 0.3238(4) 0.4540(6) 0.0929(5)
N3 N 0.1930(4) 0.4395(6) 0.0375(5)
N4 N 0.2269(4) 0.4589(6) 0.1705(5)
C1 C 0.3000(5) 0.4893(7) 0.0215(6)
C2 C 0.3342(9) 0.7255(9) 0.0508(9)
H1 H 0.3582 0.7296 0.0310
H2 H 0.3515 0.7605 0.0985
H3 H 0.2959 0.7487 0.0119
C3 C 0.3298(7) 0.6314(8) 0.0675(8)
C4 C 0.3524(7) 0.6009(9) 0.1421(8)
H4 H 0.3689 0.6413 0.1844
C5 C 0.3505(5) 0.5107(8) 0.1542(6)
C6 C 0.3768(6) 0.4707(11) 0.2326(7)
H5 H 0.3524 0.4223 0.2294
H6 H 0.3805 0.5162 0.2685
H7 H 0.4149 0.4471 0.2513
C7 C 0.2201(5) 0.4100(7) 0.1111(6)
C9 C 0.1709(5) 0.5223(7) 0.0223(7)
C10 C 0.1790(6) 0.5748(8) 0.0814(7)
H11 H 0.1649 0.6340 0.0709
C11 C 0.2070(6) 0.5426(8) 0.1551(7)
C12 C 0.2165(7) 0.5954(9) 0.2226(8)
H12 H 0.1924 0.5713 0.2384
H13 H 0.2062 0.6577 0.2072
H14 H 0.2569 0.5916 0.2661
C14 C 0.1063(6) 0.1784(11) 0.0814(7)
H15 H 0.1262 0.2261 0.1196
H16 H 0.1343 0.1341 0.0884
H17 H 0.0784 0.1500 0.0885
C15 C 0.0756(6) 0.2167(9) 0.0009(7)
S7 S 0.23754(13) 0.08002(17) 0.05848(15)
S9 S 0.37619(12) 0.21486(18) 0.13412(14)
N14 N 0.3019(5) 0.4255(6) 0.5064(6)
I3 I 0.0000 0.49869(14) 0.7500
Cu1 Cu 0.19635(6) 0.36493(9) 0.96042(7)
Cu6 Cu 0.0000 0.33270(16) 0.7500
S1 S 0.26246(13) 0.41998(17) 0.94152(15)
S3 S 0.12381(12) 0.28514(18) 0.86588(14)
N5 N 0.1078(4) 0.2298(6) 0.9732(5)
N6 N 0.0267(4) 0.2840(6) 0.8536(5)
C8 C 0.1403(7) 0.5500(8) 0.9395(7)
H8 H 0.1679 0.5540 0.9253
H9 H 0.1224 0.6081 0.9323
H10 H 0.1108 0.5060 0.9063
C13 C 0.0819(5) 0.2640(7) 0.9017(6)
C16 C 0.0192(6) 0.2367(10) 0.9568(7)
H39 H 0.0035 0.2268 0.5237
C35 C 0.0059(5) 0.2716(10) 0.6170(7)
C36 C 0.0669(6) 0.3019(13) 0.6656(9)
H40 H 0.0692 0.3594 0.6892
H41 H 0.0814 0.3081 0.6330
H42 H 0.0901 0.2581 0.7064
Cu12 Cu 0.18634(6) 0.17635(9) 0.89893(8)
Cu14 Cu 0.30670(6) 0.28779(9) 0.96598(7)
Cu17 Cu 0.27241(8) 0.60749(10) 0.89912(9)
I3_2 I 1.0000 0.49869(14) 0.7500
Cu6_2 Cu 1.0000 0.33270(16) 0.7500
H18 H 0.9965 0.2268 0.9763
C17 C 0.9941(5) 0.2716(10) 0.8830(7)
C18 C 0.9331(6) 0.3019(13) 0.8344(9)
H19 H 0.9308 0.3594 0.8108
H20 H 0.9186 0.3081 0.8670
H21 H 0.9099 0.2581 0.7936
I4 I 0.81920(5) 0.32831(9) 0.21489(6)
I5 I 0.63996(4) 0.37972(8) 0.11136(5)
Cu7 Cu 0.80365(6) 0.36493(9) 0.53958(7)
Cu8 Cu 0.68634(6) 0.32365(9) 0.39893(8)
Cu9 Cu 0.80670(6) 0.21221(9) 0.46598(7)
Cu10 Cu 0.74113(7) 0.39019(10) 0.23182(8)
Cu11 Cu 0.72759(8) 0.39251(10) 0.10088(9)
S4 S 0.73754(13) 0.41998(17) 0.55848(15)
S5 S 0.74916(12) 0.30383(17) 0.36483(14)
S6 S 0.87619(12) 0.28514(18) 0.63412(14)
N7 N 0.6981(5) 0.5745(6) 0.4936(6)
N8 N 0.6762(4) 0.4540(6) 0.4071(5)
N9 N 0.8070(4) 0.4395(6) 0.4625(5)
N10 N 0.7731(4) 0.4589(6) 0.3295(5)
N11 N 0.8922(4) 0.2298(6) 0.5268(5)
N12 N 0.9733(4) 0.2840(6) 0.6464(5)
C19 C 0.7000(5) 0.4893(7) 0.4785(6)
C20 C 0.6658(9) 0.7255(9) 0.4492(9)
H22 H 0.6418 0.7296 0.4690
H23 H 0.6485 0.7605 0.4015
H24 H 0.7041 0.7487 0.4881
C21 C 0.6702(7) 0.6314(8) 0.4325(8)
C22 C 0.6476(7) 0.6009(9) 0.3579(8)
H25 H 0.6311 0.6413 0.3156
C23 C 0.6495(5) 0.5107(8) 0.3458(6)
C24 C 0.6232(6) 0.4707(11) 0.2674(7)
H26 H 0.6476 0.4223 0.2706
H27 H 0.6195 0.5162 0.2315
H28 H 0.5851 0.4471 0.2487
C25 C 0.7799(5) 0.4100(7) 0.3889(6)
C26 C 0.8597(7) 0.5500(8) 0.5605(7)
H29 H 0.8321 0.5540 0.5747
H30 H 0.8776 0.6081 0.5677
H31 H 0.8892 0.5060 0.5937
C27 C 0.8291(5) 0.5223(7) 0.4777(7)
C28 C 0.8210(6) 0.5748(8) 0.4186(7)
H32 H 0.8351 0.6340 0.4291
C29 C 0.7930(6) 0.5426(8) 0.3449(7)
C30 C 0.7835(7) 0.5954(9) 0.2774(8)
H33 H 0.8076 0.5713 0.2616
H34 H 0.7938 0.6577 0.2928
H35 H 0.7431 0.5916 0.2339
C31 C 0.9181(5) 0.2640(7) 0.5983(6)
C32 C 0.8937(6) 0.1784(11) 0.4186(7)
H36 H 0.8738 0.2261 0.3804
H37 H 0.8657 0.1341 0.4116
H38 H 0.9216 0.1500 0.4115
C33 C 0.9244(6) 0.2167(9) 0.4991(7)
C34 C 0.9808(6) 0.2367(10) 0.5432(7)
Cu13 Cu 0.81366(6) 0.17635(9) 0.60107(8)
Cu15 Cu 0.69330(6) 0.28779(9) 0.53402(7)
Cu16 Cu 0.72759(8) 0.60749(10) 0.60088(9)
S8 S 0.76246(13) 0.08002(17) 0.44152(15)
S10 S 0.62381(12) 0.21486(18) 0.36588(14)
N13 N 0.6981(5) 0.4255(6) 0.9936(6)
C8_2 C 0.6403(7) 0.0500(8) 0.9395(7)
H8_2 H 0.6679 0.0540 0.9253
H9_2 H 0.6224 0.1081 0.9323
H10_2 H 0.6108 0.0060 0.9063
N7_2 N 0.1981(5) 0.0745(6) 0.4936(6)
C20_2 C 0.1658(9) 0.2255(9) 0.4492(9)
H22_2 H 0.1418 0.2296 0.4690
H23_2 H 0.1485 0.2605 0.4015
H24_2 H 0.2041 0.2487 0.4881
C21_2 C 0.1702(7) 0.1314(8) 0.4325(8)
C22_2 C 0.1476(7) 0.1009(9) 0.3579(8)
H25_2 H 0.1311 0.1413 0.3156
C23_2 C 0.1495(5) 0.0107(8) 0.3458(6)
H27_2 H 0.1195 0.0162 0.2315
C26_2 C 0.3597(7) 0.0500(8) 0.5605(7)
H29_2 H 0.3321 0.0540 0.5747
H30_2 H 0.3776 0.1081 0.5677
H31_2 H 0.3892 0.0060 0.5937
C27_2 C 0.3291(5) 0.0223(7) 0.4777(7)
C28_2 C 0.3210(6) 0.0748(8) 0.4186(7)
H32_2 H 0.3351 0.1340 0.4291
C29_2 C 0.2930(6) 0.0426(8) 0.3449(7)
C30_2 C 0.2835(7) 0.0954(9) 0.2774(8)
H33_2 H 0.3076 0.0713 0.2616
H34_2 H 0.2938 0.1577 0.2928
H35_2 H 0.2431 0.0916 0.2339
Cu16_2 Cu 0.22759(8) 0.10749(10) 0.60088(9)
Cu17_2 Cu 0.77241(8) 0.10749(10) 0.89912(9)
I1_2 I 0.68080(5) 0.82831(9) 0.28511(6)
I2_2 I 0.86004(4) 0.87972(8) 0.38864(5)
Cu2_2 Cu 0.81366(6) 0.82365(9) 0.10107(8)
Cu3_2 Cu 0.69330(6) 0.71221(9) 0.03402(7)
Cu4_2 Cu 0.75887(7) 0.89019(10) 0.26818(8)
Cu5_2 Cu 0.77241(8) 0.89251(10) 0.39912(9)
S2_2 S 0.75084(12) 0.80383(17) 0.13517(14)
N2_2 N 0.8238(4) 0.9540(6) 0.0929(5)
N3_2 N 0.6930(4) 0.9395(6) 0.0375(5)
N4_2 N 0.7269(4) 0.9589(6) 0.1705(5)
C1_2 C 0.8000(5) 0.9893(7) 0.0215(6)
C6_2 C 0.8768(6) 0.9707(11) 0.2326(7)
H5_2 H 0.8524 0.9223 0.2294
H7_2 H 0.9149 0.9471 0.2513
C7_2 C 0.7201(5) 0.9100(7) 0.1111(6)
C14_2 C 0.6063(6) 0.6784(11) 0.0814(7)
H15_2 H 0.6262 0.7261 0.1196
H16_2 H 0.6343 0.6341 0.0884
H17_2 H 0.5784 0.6500 0.0885
C15_2 C 0.5756(6) 0.7167(9) 0.0009(7)
S7_2 S 0.73754(13) 0.58002(17) 0.05848(15)
S9_2 S 0.87619(12) 0.71486(18) 0.13412(14)
N14_2 N 0.8019(5) 0.9255(6) 0.5064(6)
I3_3 I 0.5000 0.99869(14) 0.7500
Cu1_2 Cu 0.69635(6) 0.86493(9) 0.96042(7)
Cu6_3 Cu 0.5000 0.83270(16) 0.7500
S1_2 S 0.76246(13) 0.91998(17) 0.94152(15)
S3_2 S 0.62381(12) 0.78514(18) 0.86588(14)
N5_2 N 0.6078(4) 0.7298(6) 0.9732(5)
N6_2 N 0.5267(4) 0.7840(6) 0.8536(5)
C13_2 C 0.5819(5) 0.7640(7) 0.9017(6)
C16_2 C 0.5192(6) 0.7367(10) 0.9568(7)
H18_2 H 0.4965 0.7268 0.9763
C17_2 C 0.4941(5) 0.7716(10) 0.8830(7)
C18_2 C 0.4331(6) 0.8019(13) 0.8344(9)
H19_2 H 0.4308 0.8594 0.8108
H20_2 H 0.4186 0.8081 0.8670
H21_2 H 0.4099 0.7581 0.7936
I4_2 I 0.31920(5) 0.82831(9) 0.21489(6)
I5_2 I 0.13996(4) 0.87972(8) 0.11136(5)
Cu7_2 Cu 0.30365(6) 0.86493(9) 0.53958(7)
Cu8_2 Cu 0.18634(6) 0.82365(9) 0.39893(8)
Cu9_2 Cu 0.30670(6) 0.71221(9) 0.46598(7)
Cu10_2 Cu 0.24113(7) 0.89019(10) 0.23182(8)
Cu11_2 Cu 0.22759(8) 0.89251(10) 0.10088(9)
S4_2 S 0.23754(13) 0.91998(17) 0.55848(15)
S5_2 S 0.24916(12) 0.80383(17) 0.36483(14)
S6_2 S 0.37619(12) 0.78514(18) 0.63412(14)
N8_2 N 0.1762(4) 0.9540(6) 0.4071(5)
N9_2 N 0.3070(4) 0.9395(6) 0.4625(5)
N10_2 N 0.2731(4) 0.9589(6) 0.3295(5)
N11_2 N 0.3922(4) 0.7298(6) 0.5268(5)
N12_2 N 0.4733(4) 0.7840(6) 0.6464(5)
C19_2 C 0.2000(5) 0.9893(7) 0.4785(6)
C24_2 C 0.1232(6) 0.9707(11) 0.2674(7)
H26_2 H 0.1476 0.9223 0.2706
H28_2 H 0.0851 0.9471 0.2487
C25_2 C 0.2799(5) 0.9100(7) 0.3889(6)
C31_2 C 0.4181(5) 0.7640(7) 0.5983(6)
C32_2 C 0.3937(6) 0.6784(11) 0.4186(7)
H36_2 H 0.3738 0.7261 0.3804
H37_2 H 0.3657 0.6341 0.4116
H38_2 H 0.4216 0.6500 0.4115
C33_2 C 0.4244(6) 0.7167(9) 0.4991(7)
C34_2 C 0.4808(6) 0.7367(10) 0.5432(7)
H39_2 H 0.5035 0.7268 0.5237
C35_2 C 0.5059(5) 0.7716(10) 0.6170(7)
C36_2 C 0.5669(6) 0.8019(13) 0.6656(9)
H40_2 H 0.5692 0.8594 0.6892
H41_2 H 0.5814 0.8081 0.6330
H42_2 H 0.5901 0.7581 0.7064
Cu12_2 Cu 0.68634(6) 0.67635(9) 0.89893(8)
Cu13_2 Cu 0.31366(6) 0.67635(9) 0.60107(8)
Cu14_2 Cu 0.80670(6) 0.78779(9) 0.96598(7)
Cu15_2 Cu 0.19330(6) 0.78779(9) 0.53402(7)
S8_2 S 0.26246(13) 0.58002(17) 0.44152(15)
S10_2 S 0.12381(12) 0.71486(18) 0.36588(14)
I3_4 I 0.0000 0.50131(14) 0.2500
Cu6_4 Cu 0.0000 0.66730(16) 0.2500
H18_3 H 0.0035 0.7732 0.0237
C17_3 C 0.0059(5) 0.7284(10) 0.1170(7)
C18_3 C 0.0669(6) 0.6981(13) 0.1656(9)
H19_3 H 0.0692 0.6406 0.1892
H20_3 H 0.0814 0.6919 0.1330
H21_3 H 0.0901 0.7419 0.2064
I4_3 I 0.18080(5) 0.67169(9) 0.78511(6)
I5_3 I 0.36004(4) 0.62028(8) 0.88864(5)
Cu7_3 Cu 0.19635(6) 0.63507(9) 0.46042(7)
Cu10_3 Cu 0.25887(7) 0.60981(10) 0.76818(8)
S5_3 S 0.25084(12) 0.69617(17) 0.63517(14)
N8_3 N 0.3238(4) 0.5460(6) 0.5929(5)
N9_3 N 0.1930(4) 0.5605(6) 0.5375(5)
N10_3 N 0.2269(4) 0.5411(6) 0.6705(5)
N11_3 N 0.1078(4) 0.7702(6) 0.4732(5)
N12_3 N 0.0267(4) 0.7160(6) 0.3536(5)
C19_3 C 0.3000(5) 0.5107(7) 0.5215(6)
C20_3 C 0.3342(9) 0.2745(9) 0.5508(9)
H22_3 H 0.3582 0.2704 0.5310
H23_3 H 0.3515 0.2395 0.5985
H24_3 H 0.2959 0.2513 0.5119
C21_3 C 0.3298(7) 0.3686(8) 0.5675(8)
C22_3 C 0.3524(7) 0.3991(9) 0.6421(8)
H25_3 H 0.3689 0.3587 0.6844
C23_3 C 0.3505(5) 0.4893(8) 0.6542(6)
C24_3 C 0.3768(6) 0.5293(11) 0.7326(7)
H26_3 H 0.3524 0.5777 0.7294
H27_3 H 0.3805 0.4838 0.7685
H28_3 H 0.4149 0.5529 0.7513
C25_3 C 0.2201(5) 0.5900(7) 0.6111(6)
C26_3 C 0.1403(7) 0.4500(8) 0.4395(7)
H29_3 H 0.1679 0.4460 0.4253
H30_3 H 0.1224 0.3919 0.4323
H31_3 H 0.1108 0.4940 0.4063
C27_3 C 0.1709(5) 0.4777(7) 0.5223(7)
C28_3 C 0.1790(6) 0.4252(8) 0.5814(7)
H32_3 H 0.1649 0.3660 0.5709
C29_3 C 0.2070(6) 0.4574(8) 0.6551(7)
C30_3 C 0.2165(7) 0.4046(9) 0.7226(8)
H33_3 H 0.1924 0.4287 0.7384
H34_3 H 0.2062 0.3423 0.7072
H35_3 H 0.2569 0.4084 0.7661
C31_3 C 0.0819(5) 0.7360(7) 0.4017(6)
C32_3 C 0.1063(6) 0.8216(11) 0.5814(7)
H36_3 H 0.1262 0.7739 0.6196
H37_3 H 0.1343 0.8659 0.5884
H38_3 H 0.0784 0.8500 0.5885
C33_3 C 0.0756(6) 0.7833(9) 0.5009(7)
C34_3 C 0.0192(6) 0.7633(10) 0.4568(7)
I3_5 I 1.0000 0.50131(14) 0.2500
Cu1_3 Cu 0.80365(6) 0.63507(9) 0.03958(7)
Cu6_5 Cu 1.0000 0.66730(16) 0.2500
N5_3 N 0.8922(4) 0.7702(6) 0.0268(5)
N6_3 N 0.9733(4) 0.7160(6) 0.1464(5)
C8_3 C 0.8597(7) 0.4500(8) 0.0605(7)
H8_3 H 0.8321 0.4460 0.0747
H9_3 H 0.8776 0.3919 0.0677
H10_3 H 0.8892 0.4940 0.0937
C13_3 C 0.9181(5) 0.7360(7) 0.0983(6)
C16_3 C 0.9808(6) 0.7633(10) 0.0432(7)
H39_3 H 0.9965 0.7732 0.4763
C35_3 C 0.9941(5) 0.7284(10) 0.3830(7)
C36_3 C 0.9331(6) 0.6981(13) 0.3344(9)
H40_3 H 0.9308 0.6406 0.3108
H41_3 H 0.9186 0.6919 0.3670
H42_3 H 0.9099 0.7419 0.2936
I1_3 I 0.81920(5) 0.67169(9) 0.71489(6)
I2_3 I 0.63996(4) 0.62028(8) 0.61136(5)
Cu4_3 Cu 0.74113(7) 0.60981(10) 0.73182(8)
S2_3 S 0.74916(12) 0.69617(17) 0.86483(14)
N2_3 N 0.6762(4) 0.5460(6) 0.9071(5)
N3_3 N 0.8070(4) 0.5605(6) 0.9625(5)
N4_3 N 0.7731(4) 0.5411(6) 0.8295(5)
C1_3 C 0.7000(5) 0.5107(7) 0.9785(6)
C2_2 C 0.6658(9) 0.2745(9) 0.9492(9)
H1_2 H 0.6418 0.2704 0.9690
H2_2 H 0.6485 0.2395 0.9015
H3_2 H 0.7041 0.2513 0.9881
C3_2 C 0.6702(7) 0.3686(8) 0.9325(8)
C4_2 C 0.6476(7) 0.3991(9) 0.8579(8)
H4_2 H 0.6311 0.3587 0.8156
C5_2 C 0.6495(5) 0.4893(8) 0.8458(6)
C6_3 C 0.6232(6) 0.5293(11) 0.7674(7)
H5_3 H 0.6476 0.5777 0.7706
H6_2 H 0.6195 0.4838 0.7315
H7_3 H 0.5851 0.5529 0.7487
C7_3 C 0.7799(5) 0.5900(7) 0.8889(6)
C9_2 C 0.8291(5) 0.4777(7) 0.9777(7)
C10_2 C 0.8210(6) 0.4252(8) 0.9186(7)
H11_2 H 0.8351 0.3660 0.9291
C11_2 C 0.7930(6) 0.4574(8) 0.8449(7)
C12_2 C 0.7835(7) 0.4046(9) 0.7774(8)
H12_2 H 0.8076 0.4287 0.7616
H13_2 H 0.7938 0.3423 0.7928
H14_2 H 0.7431 0.4084 0.7339
C14_3 C 0.8937(6) 0.8216(11) 0.9186(7)
H15_3 H 0.8738 0.7739 0.8804
H16_3 H 0.8657 0.8659 0.9116
H17_3 H 0.9216 0.8500 0.9115
C15_3 C 0.9244(6) 0.7833(9) 0.9991(7)
I3_6 I 0.5000 0.00131(14) 0.2500
Cu1_4 Cu 0.30365(6) 0.13507(9) 0.03958(7)
Cu6_6 Cu 0.5000 0.16730(16) 0.2500
N5_4 N 0.3922(4) 0.2702(6) 0.0268(5)
N6_4 N 0.4733(4) 0.2160(6) 0.1464(5)
C13_4 C 0.4181(5) 0.2360(7) 0.0983(6)
C16_4 C 0.4808(6) 0.2633(10) 0.0432(7)
H18_4 H 0.5035 0.2732 0.0237
C17_4 C 0.5059(5) 0.2284(10) 0.1170(7)
C18_4 C 0.5669(6) 0.1981(13) 0.1656(9)
H19_4 H 0.5692 0.1406 0.1892
H20_4 H 0.5814 0.1919 0.1330
H21_4 H 0.5901 0.2419 0.2064
I4_4 I 0.68080(5) 0.17169(9) 0.78511(6)
I5_4 I 0.86004(4) 0.12028(8) 0.88864(5)
Cu7_4 Cu 0.69635(6) 0.13507(9) 0.46042(7)
Cu10_4 Cu 0.75887(7) 0.10981(10) 0.76818(8)
S5_4 S 0.75084(12) 0.19617(17) 0.63517(14)
N8_4 N 0.8238(4) 0.0460(6) 0.5929(5)
N9_4 N 0.6930(4) 0.0605(6) 0.5375(5)
N10_4 N 0.7269(4) 0.0411(6) 0.6705(5)
N11_4 N 0.6078(4) 0.2702(6) 0.4732(5)
N12_4 N 0.5267(4) 0.2160(6) 0.3536(5)
C19_4 C 0.8000(5) 0.0107(7) 0.5215(6)
C24_4 C 0.8768(6) 0.0293(11) 0.7326(7)
H26_4 H 0.8524 0.0777 0.7294
H28_4 H 0.9149 0.0529 0.7513
C25_4 C 0.7201(5) 0.0900(7) 0.6111(6)
C31_4 C 0.5819(5) 0.2360(7) 0.4017(6)
C32_4 C 0.6063(6) 0.3216(11) 0.5814(7)
H36_4 H 0.6262 0.2739 0.6196
H37_4 H 0.6343 0.3659 0.5884
H38_4 H 0.5784 0.3500 0.5885
C33_4 C 0.5756(6) 0.2833(9) 0.5009(7)
C34_4 C 0.5192(6) 0.2633(10) 0.4568(7)
H39_4 H 0.4965 0.2732 0.4763
C35_4 C 0.4941(5) 0.2284(10) 0.3830(7)
C36_4 C 0.4331(6) 0.1981(13) 0.3344(9)
H40_4 H 0.4308 0.1406 0.3108
H41_4 H 0.4186 0.1919 0.3670
H42_4 H 0.4099 0.2419 0.2936
I1_4 I 0.31920(5) 0.17169(9) 0.71489(6)
I2_4 I 0.13996(4) 0.12028(8) 0.61136(5)
Cu4_4 Cu 0.24113(7) 0.10981(10) 0.73182(8)
S2_4 S 0.24916(12) 0.19617(17) 0.86483(14)
N2_4 N 0.1762(4) 0.0460(6) 0.9071(5)
N3_4 N 0.3070(4) 0.0605(6) 0.9625(5)
N4_4 N 0.2731(4) 0.0411(6) 0.8295(5)
C1_4 C 0.2000(5) 0.0107(7) 0.9785(6)
C6_4 C 0.1232(6) 0.0293(11) 0.7674(7)
H5_4 H 0.1476 0.0777 0.7706
H7_4 H 0.0851 0.0529 0.7487
C7_4 C 0.2799(5) 0.0900(7) 0.8889(6)
C14_4 C 0.3937(6) 0.3216(11) 0.9186(7)
H15_4 H 0.3738 0.2739 0.8804
H16_4 H 0.3657 0.3659 0.9116
H17_4 H 0.4216 0.3500 0.9115
C15_4 C 0.4244(6) 0.2833(9) 0.9991(7)
C8_4 C 0.3597(7) 0.9500(8) 0.0605(7)
H8_4 H 0.3321 0.9460 0.0747
H9_4 H 0.3776 0.8919 0.0677
H10_4 H 0.3892 0.9940 0.0937
C20_4 C 0.8342(9) 0.7745(9) 0.5508(9)
H22_4 H 0.8582 0.7704 0.5310
H23_4 H 0.8515 0.7395 0.5985
H24_4 H 0.7959 0.7513 0.5119
C21_4 C 0.8298(7) 0.8686(8) 0.5675(8)
C22_4 C 0.8524(7) 0.8991(9) 0.6421(8)
H25_4 H 0.8689 0.8587 0.6844
C23_4 C 0.8505(5) 0.9893(8) 0.6542(6)
H27_4 H 0.8805 0.9838 0.7685
C26_4 C 0.6403(7) 0.9500(8) 0.4395(7)
H29_4 H 0.6679 0.9460 0.4253
H30_4 H 0.6224 0.8919 0.4323
H31_4 H 0.6108 0.9940 0.4063
C27_4 C 0.6709(5) 0.9777(7) 0.5223(7)
C28_4 C 0.6790(6) 0.9252(8) 0.5814(7)
H32_4 H 0.6649 0.8660 0.5709
C29_4 C 0.7070(6) 0.9574(8) 0.6551(7)
C30_4 C 0.7165(7) 0.9046(9) 0.7226(8)
H33_4 H 0.6924 0.9287 0.7384
H34_4 H 0.7062 0.8423 0.7072
H35_4 H 0.7569 0.9084 0.7661
N1_2 N 0.8019(5) 0.0745(6) 0.0064(6)
C2_3 C 0.8342(9) 0.2255(9) 0.0508(9)
H1_3 H 0.8582 0.2296 0.0310
H2_3 H 0.8515 0.2605 0.0985
H3_3 H 0.7959 0.2487 0.0119
C3_3 C 0.8298(7) 0.1314(8) 0.0675(8)
C4_3 C 0.8524(7) 0.1009(9) 0.1421(8)
H4_3 H 0.8689 0.1413 0.1844
C5_3 C 0.8505(5) 0.0107(8) 0.1542(6)
H6_3 H 0.8805 0.0162 0.2685
C9_3 C 0.6709(5) 0.0223(7) 0.0223(7)
C10_3 C 0.6790(6) 0.0748(8) 0.0814(7)
H11_3 H 0.6649 0.1340 0.0709
C11_3 C 0.7070(6) 0.0426(8) 0.1551(7)
C12_3 C 0.7165(7) 0.0954(9) 0.2226(8)
H12_3 H 0.6924 0.0713 0.2384
H13_3 H 0.7062 0.1577 0.2072
H14_3 H 0.7569 0.0916 0.2661
N13_2 N 0.1981(5) 0.9255(6) 0.9936(6)
C2_4 C 0.1658(9) 0.7745(9) 0.9492(9)
H1_4 H 0.1418 0.7704 0.9690
H2_4 H 0.1485 0.7395 0.9015
H3_4 H 0.2041 0.7513 0.9881
C3_4 C 0.1702(7) 0.8686(8) 0.9325(8)
C4_4 C 0.1476(7) 0.8991(9) 0.8579(8)
H4_4 H 0.1311 0.8587 0.8156
C5_4 C 0.1495(5) 0.9893(8) 0.8458(6)
H6_4 H 0.1195 0.9838 0.7315
C9_4 C 0.3291(5) 0.9777(7) 0.9777(7)
C10_4 C 0.3210(6) 0.9252(8) 0.9186(7)
H11_4 H 0.3351 0.8660 0.9291
C11_4 C 0.2930(6) 0.9574(8) 0.8449(7)
C12_4 C 0.2835(7) 0.9046(9) 0.7774(8)
H12_4 H 0.3076 0.9287 0.7616
H13_4 H 0.2938 0.8423 0.7928
H14_4 H 0.2431 0.9084 0.7339
loop_
_geom_bond_atom_site_label_1
_geom_bond_atom_site_label_2
_geom_bond_site_symmetry_1
_geom_bond_site_symmetry_2
I1 Cu4 1_555 1_555
I2 Cu4 1_555 1_555
Cu2 S2 1_555 1_555
Cu3 S2 1_555 1_555
Cu4 S2 1_555 1_555
Cu5 I1 1_555 1_555
S2 C7 1_555 1_555
N1 C1 1_555 1_555
N2 Cu2 1_555 1_555
N4 Cu4 1_555 1_555
C1 N2 1_555 1_555
C2 H1 1_555 1_555
H2 C2 1_555 1_555
H3 C2 1_555 1_555
C3 N1 1_555 1_555
C4 C3 1_555 1_555
H4 C4 1_555 1_555
C5 N2 1_555 1_555
C6 C5 1_555 1_555
H5 C6 1_555 1_555
H6 C6 1_555 1_555
H7 C6 1_555 1_555
C7 N3 1_555 1_555
C9 N3 1_555 1_555
C10 C9 1_555 1_555
H11 C10 1_555 1_555
C11 N4 1_555 1_555
C12 C11 1_555 1_555
H12 C12 1_555 1_555
H13 C12 1_555 1_555
H14 C12 1_555 1_555
C14 H15 1_555 1_555
H16 C14 1_555 1_555
H17 C14 1_555 1_555
S7 Cu3 1_555 1_555
S9 Cu2 1_555 1_555
N14 Cu5 1_555 1_555
I2 Cu5 1_555 1_555
N4 C7 1_555 1_555
C2 C3 1_555 1_555
C4 C5 1_555 1_555
C10 C11 1_555 1_555
C14 C15 1_555 1_555
I3 Cu6 1_555 1_555
Cu1 S1 1_555 1_555
Cu6 N6 1_555 1_555
S3 Cu1 1_555 1_555
N6 C13 1_555 1_555
C8 H8 1_555 1_555
H9 C8 1_555 1_555
H10 C8 1_555 1_555
C13 S3 1_555 1_555
C36 C35 1_555 1_555
H40 C36 1_555 1_555
H41 C36 1_555 1_555
H42 C36 1_555 1_555
Cu12 S3 1_555 1_555
Cu14 S1 1_555 1_555
N5 C13 1_555 1_555
I3_2 Cu6_2 1_555 1_555
C18 C17 1_555 1_555
H19 C18 1_555 1_555
H20 C18 1_555 1_555
H21 C18 1_555 1_555
I4 Cu10 1_555 1_555
I5 Cu10 1_555 1_555
Cu7 S4 1_555 1_555
Cu8 S5 1_555 1_555
Cu9 S5 1_555 1_555
Cu10 S5 1_555 1_555
Cu11 I4 1_555 1_555
S4 C19 1_555 1_555
S5 C25 1_555 1_555
S6 Cu7 1_555 1_555
N7 C19 1_555 1_555
N8 Cu8 1_555 1_555
N9 Cu7 1_555 1_555
N10 Cu10 1_555 1_555
N11 Cu9 1_555 1_555
N12 Cu6_2 1_555 1_555
C19 N8 1_555 1_555
C20 H22 1_555 1_555
H23 C20 1_555 1_555
H24 C20 1_555 1_555
C21 N7 1_555 1_555
C22 C21 1_555 1_555
H25 C22 1_555 1_555
C23 N8 1_555 1_555
C24 C23 1_555 1_555
H26 C24 1_555 1_555
H27 C24 1_555 1_555
H28 C24 1_555 1_555
C25 N9 1_555 1_555
C26 H29 1_555 1_555
H30 C26 1_555 1_555
H31 C26 1_555 1_555
C27 N9 1_555 1_555
C28 C27 1_555 1_555
H32 C28 1_555 1_555
C29 N10 1_555 1_555
C30 C29 1_555 1_555
H33 C30 1_555 1_555
H34 C30 1_555 1_555
H35 C30 1_555 1_555
C31 S6 1_555 1_555
C32 H36 1_555 1_555
H37 C32 1_555 1_555
H38 C32 1_555 1_555
C33 N11 1_555 1_555
C34 C33 1_555 1_555
Cu13 S6 1_555 1_555
Cu15 S4 1_555 1_555
Cu16 N7 1_555 1_555
S8 Cu9 1_555 1_555
S10 Cu8 1_555 1_555
I5 Cu11 1_555 1_555
N10 C25 1_555 1_555
N11 C31 1_555 1_555
N12 C31 1_555 1_555
C20 C21 1_555 1_555
C22 C23 1_555 1_555
C26 C27 1_555 1_555
C28 C29 1_555 1_555
C32 C33 1_555 1_555
C8_2 H8_2 1_555 1_555
H9_2 C8_2 1_555 1_555
H10_2 C8_2 1_555 1_555
C20_2 H22_2 1_555 1_555
H23_2 C20_2 1_555 1_555
H24_2 C20_2 1_555 1_555
C21_2 N7_2 1_555 1_555
C22_2 C21_2 1_555 1_555
H25_2 C22_2 1_555 1_555
C26_2 H29_2 1_555 1_555
H30_2 C26_2 1_555 1_555
H31_2 C26_2 1_555 1_555
C28_2 C27_2 1_555 1_555
H32_2 C28_2 1_555 1_555
C30_2 C29_2 1_555 1_555
H33_2 C30_2 1_555 1_555
H34_2 C30_2 1_555 1_555
H35_2 C30_2 1_555 1_555
Cu16_2 N7_2 1_555 1_555
C20_2 C21_2 1_555 1_555
C22_2 C23_2 1_555 1_555
C26_2 C27_2 1_555 1_555
C28_2 C29_2 1_555 1_555
I1_2 Cu4_2 1_555 1_555
I2_2 Cu4_2 1_555 1_555
Cu2_2 S2_2 1_555 1_555
Cu3_2 S2_2 1_555 1_555
Cu4_2 S2_2 1_555 1_555
Cu5_2 I1_2 1_555 1_555
S2_2 C7_2 1_555 1_555
N2_2 Cu2_2 1_555 1_555
N4_2 Cu4_2 1_555 1_555
C1_2 N2_2 1_555 1_555
H5_2 C6_2 1_555 1_555
H7_2 C6_2 1_555 1_555
C7_2 N3_2 1_555 1_555
C14_2 H15_2 1_555 1_555
H16_2 C14_2 1_555 1_555
H17_2 C14_2 1_555 1_555
S7_2 Cu3_2 1_555 1_555
S9_2 Cu2_2 1_555 1_555
N14_2 Cu5_2 1_555 1_555
I2_2 Cu5_2 1_555 1_555
N4_2 C7_2 1_555 1_555
C14_2 C15_2 1_555 1_555
I3_3 Cu6_3 1_555 1_555
Cu1_2 S1_2 1_555 1_555
Cu6_3 N6_2 1_555 1_555
S3_2 Cu1_2 1_555 1_555
N6_2 C13_2 1_555 1_555
C13_2 S3_2 1_555 1_555
H18_2 C16_2 1_555 1_555
C17_2 N6_2 1_555 1_555
C18_2 C17_2 1_555 1_555
H19_2 C18_2 1_555 1_555
H20_2 C18_2 1_555 1_555
H21_2 C18_2 1_555 1_555
I4_2 Cu10_2 1_555 1_555
I5_2 Cu10_2 1_555 1_555
Cu7_2 S4_2 1_555 1_555
Cu8_2 S5_2 1_555 1_555
Cu9_2 S5_2 1_555 1_555
Cu10_2 S5_2 1_555 1_555
Cu11_2 I4_2 1_555 1_555
S4_2 C19_2 1_555 1_555
S5_2 C25_2 1_555 1_555
S6_2 Cu7_2 1_555 1_555
N8_2 Cu8_2 1_555 1_555
N9_2 Cu7_2 1_555 1_555
N10_2 Cu10_2 1_555 1_555
N11_2 Cu9_2 1_555 1_555
N12_2 Cu6_3 1_555 1_555
C19_2 N8_2 1_555 1_555
H26_2 C24_2 1_555 1_555
H28_2 C24_2 1_555 1_555
C25_2 N9_2 1_555 1_555
C31_2 S6_2 1_555 1_555
C32_2 H36_2 1_555 1_555
H37_2 C32_2 1_555 1_555
H38_2 C32_2 1_555 1_555
C33_2 N11_2 1_555 1_555
C34_2 C33_2 1_555 1_555
H39_2 C34_2 1_555 1_555
C35_2 N12_2 1_555 1_555
C36_2 C35_2 1_555 1_555
H40_2 C36_2 1_555 1_555
H41_2 C36_2 1_555 1_555
H42_2 C36_2 1_555 1_555
Cu12_2 S3_2 1_555 1_555
Cu13_2 S6_2 1_555 1_555
Cu14_2 S1_2 1_555 1_555
Cu15_2 S4_2 1_555 1_555
S8_2 Cu9_2 1_555 1_555
S10_2 Cu8_2 1_555 1_555
N5_2 C13_2 1_555 1_555
C16_2 C17_2 1_555 1_555
I5_2 Cu11_2 1_555 1_555
N10_2 C25_2 1_555 1_555
N11_2 C31_2 1_555 1_555
N12_2 C31_2 1_555 1_555
C32_2 C33_2 1_555 1_555
C34_2 C35_2 1_555 1_555
I3_4 Cu6_4 1_555 1_555
C18_3 C17_3 1_555 1_555
H19_3 C18_3 1_555 1_555
H20_3 C18_3 1_555 1_555
H21_3 C18_3 1_555 1_555
I4_3 Cu10_3 1_555 1_555
I5_3 Cu10_3 1_555 1_555
Cu7_3 S8_2 1_555 1_555
Cu13_2 S5_3 1_555 1_555
Cu15_2 S5_3 1_555 1_555
Cu10_3 S5_3 1_555 1_555
Cu17 I4_3 1_555 1_555
S8_2 C19_3 1_555 1_555
S5_3 C25_3 1_555 1_555
S10_2 Cu7_3 1_555 1_555
N14 C19_3 1_555 1_555
N8_3 Cu13_2 1_555 1_555
N9_3 Cu7_3 1_555 1_555
N10_3 Cu10_3 1_555 1_555
N11_3 Cu15_2 1_555 1_555
N12_3 Cu6_4 1_555 1_555
C19_3 N8_3 1_555 1_555
C20_3 H22_3 1_555 1_555
H23_3 C20_3 1_555 1_555
H24_3 C20_3 1_555 1_555
C21_3 N14 1_555 1_555
C22_3 C21_3 1_555 1_555
H25_3 C22_3 1_555 1_555
C23_3 N8_3 1_555 1_555
C24_3 C23_3 1_555 1_555
H26_3 C24_3 1_555 1_555
H27_3 C24_3 1_555 1_555
H28_3 C24_3 1_555 1_555
C25_3 N9_3 1_555 1_555
C26_3 H29_3 1_555 1_555
H30_3 C26_3 1_555 1_555
H31_3 C26_3 1_555 1_555
C27_3 N9_3 1_555 1_555
C28_3 C27_3 1_555 1_555
H32_3 C28_3 1_555 1_555
C29_3 N10_3 1_555 1_555
C30_3 C29_3 1_555 1_555
H33_3 C30_3 1_555 1_555
H34_3 C30_3 1_555 1_555
H35_3 C30_3 1_555 1_555
C31_3 S10_2 1_555 1_555
C32_3 H36_3 1_555 1_555
H37_3 C32_3 1_555 1_555
H38_3 C32_3 1_555 1_555
C33_3 N11_3 1_555 1_555
C34_3 C33_3 1_555 1_555
I5_3 Cu17 1_555 1_555
N10_3 C25_3 1_555 1_555
N11_3 C31_3 1_555 1_555
N12_3 C31_3 1_555 1_555
C20_3 C21_3 1_555 1_555
C22_3 C23_3 1_555 1_555
C26_3 C27_3 1_555 1_555
C28_3 C29_3 1_555 1_555
C32_3 C33_3 1_555 1_555
I3_5 Cu6_5 1_555 1_555
Cu1_3 S7_2 1_555 1_555
Cu6_5 N6_3 1_555 1_555
S9_2 Cu1_3 1_555 1_555
N6_3 C13_3 1_555 1_555
C8_3 H8_3 1_555 1_555
H9_3 C8_3 1_555 1_555
H10_3 C8_3 1_555 1_555
C13_3 S9_2 1_555 1_555
C36_3 C35_3 1_555 1_555
H40_3 C36_3 1_555 1_555
H41_3 C36_3 1_555 1_555
H42_3 C36_3 1_555 1_555
N5_3 C13_3 1_555 1_555
I1_3 Cu4_3 1_555 1_555
I2_3 Cu4_3 1_555 1_555
Cu12_2 S2_3 1_555 1_555
Cu14_2 S2_3 1_555 1_555
Cu4_3 S2_3 1_555 1_555
Cu16 I1_3 1_555 1_555
S2_3 C7_3 1_555 1_555
N13 C1_3 1_555 1_555
N2_3 Cu12_2 1_555 1_555
N4_3 Cu4_3 1_555 1_555
C1_3 N2_3 1_555 1_555
C2_2 H1_2 1_555 1_555
H2_2 C2_2 1_555 1_555
H3_2 C2_2 1_555 1_555
C3_2 N13 1_555 1_555
C4_2 C3_2 1_555 1_555
H4_2 C4_2 1_555 1_555
C5_2 N2_3 1_555 1_555
C6_3 C5_2 1_555 1_555
H5_3 C6_3 1_555 1_555
H6_2 C6_3 1_555 1_555
H7_3 C6_3 1_555 1_555
C7_3 N3_3 1_555 1_555
C9_2 N3_3 1_555 1_555
C10_2 C9_2 1_555 1_555
H11_2 C10_2 1_555 1_555
C11_2 N4_3 1_555 1_555
C12_2 C11_2 1_555 1_555
H12_2 C12_2 1_555 1_555
H13_2 C12_2 1_555 1_555
H14_2 C12_2 1_555 1_555
C14_3 H15_3 1_555 1_555
H16_3 C14_3 1_555 1_555
H17_3 C14_3 1_555 1_555
I2_3 Cu16 1_555 1_555
N4_3 C7_3 1_555 1_555
C2_2 C3_2 1_555 1_555
C4_2 C5_2 1_555 1_555
C10_2 C11_2 1_555 1_555
C14_3 C15_3 1_555 1_555
I3_6 Cu6_6 1_555 1_555
Cu1_4 S7 1_555 1_555
Cu6_6 N6_4 1_555 1_555
S9 Cu1_4 1_555 1_555
N6_4 C13_4 1_555 1_555
C13_4 S9 1_555 1_555
H18_4 C16_4 1_555 1_555
C17_4 N6_4 1_555 1_555
C18_4 C17_4 1_555 1_555
H19_4 C18_4 1_555 1_555
H20_4 C18_4 1_555 1_555
H21_4 C18_4 1_555 1_555
I4_4 Cu10_4 1_555 1_555
I5_4 Cu10_4 1_555 1_555
Cu7_4 S8 1_555 1_555
Cu13 S5_4 1_555 1_555
Cu15 S5_4 1_555 1_555
Cu10_4 S5_4 1_555 1_555
Cu17_2 I4_4 1_555 1_555
S8 C19_4 1_555 1_555
S5_4 C25_4 1_555 1_555
S10 Cu7_4 1_555 1_555
N8_4 Cu13 1_555 1_555
N9_4 Cu7_4 1_555 1_555
N10_4 Cu10_4 1_555 1_555
N11_4 Cu15 1_555 1_555
N12_4 Cu6_6 1_555 1_555
C19_4 N8_4 1_555 1_555
H26_4 C24_4 1_555 1_555
H28_4 C24_4 1_555 1_555
C25_4 N9_4 1_555 1_555
C31_4 S10 1_555 1_555
C32_4 H36_4 1_555 1_555
H37_4 C32_4 1_555 1_555
H38_4 C32_4 1_555 1_555
C33_4 N11_4 1_555 1_555
C34_4 C33_4 1_555 1_555
H39_4 C34_4 1_555 1_555
C35_4 N12_4 1_555 1_555
C36_4 C35_4 1_555 1_555
H40_4 C36_4 1_555 1_555
H41_4 C36_4 1_555 1_555
H42_4 C36_4 1_555 1_555
N5_4 C13_4 1_555 1_555
C16_4 C17_4 1_555 1_555
I5_4 Cu17_2 1_555 1_555
N10_4 C25_4 1_555 1_555
N11_4 C31_4 1_555 1_555
N12_4 C31_4 1_555 1_555
C32_4 C33_4 1_555 1_555
C34_4 C35_4 1_555 1_555
I1_4 Cu4_4 1_555 1_555
I2_4 Cu4_4 1_555 1_555
Cu12 S2_4 1_555 1_555
Cu14 S2_4 1_555 1_555
Cu4_4 S2_4 1_555 1_555
Cu16_2 I1_4 1_555 1_555
S2_4 C7_4 1_555 1_555
N2_4 Cu12 1_555 1_555
N4_4 Cu4_4 1_555 1_555
C1_4 N2_4 1_555 1_555
H5_4 C6_4 1_555 1_555
H7_4 C6_4 1_555 1_555
C7_4 N3_4 1_555 1_555
C14_4 H15_4 1_555 1_555
H16_4 C14_4 1_555 1_555
H17_4 C14_4 1_555 1_555
I2_4 Cu16_2 1_555 1_555
N4_4 C7_4 1_555 1_555
C14_4 C15_4 1_555 1_555
C8_4 H8_4 1_555 1_555
H9_4 C8_4 1_555 1_555
H10_4 C8_4 1_555 1_555
C20_4 H22_4 1_555 1_555
H23_4 C20_4 1_555 1_555
H24_4 C20_4 1_555 1_555
C21_4 N14_2 1_555 1_555
C22_4 C21_4 1_555 1_555
H25_4 C22_4 1_555 1_555
C26_4 H29_4 1_555 1_555
H30_4 C26_4 1_555 1_555
H31_4 C26_4 1_555 1_555
C28_4 C27_4 1_555 1_555
H32_4 C28_4 1_555 1_555
C30_4 C29_4 1_555 1_555
H33_4 C30_4 1_555 1_555
H34_4 C30_4 1_555 1_555
H35_4 C30_4 1_555 1_555
C20_4 C21_4 1_555 1_555
C22_4 C23_4 1_555 1_555
C26_4 C27_4 1_555 1_555
C28_4 C29_4 1_555 1_555
C2_3 H1_3 1_555 1_555
H2_3 C2_3 1_555 1_555
H3_3 C2_3 1_555 1_555
C3_3 N1_2 1_555 1_555
C4_3 C3_3 1_555 1_555
H4_3 C4_3 1_555 1_555
C10_3 C9_3 1_555 1_555
H11_3 C10_3 1_555 1_555
C12_3 C11_3 1_555 1_555
H12_3 C12_3 1_555 1_555
H13_3 C12_3 1_555 1_555
H14_3 C12_3 1_555 1_555
C2_3 C3_3 1_555 1_555
C4_3 C5_3 1_555 1_555
C10_3 C11_3 1_555 1_555
C2_4 H1_4 1_555 1_555
H2_4 C2_4 1_555 1_555
H3_4 C2_4 1_555 1_555
C3_4 N13_2 1_555 1_555
C4_4 C3_4 1_555 1_555
H4_4 C4_4 1_555 1_555
C10_4 C9_4 1_555 1_555
H11_4 C10_4 1_555 1_555
C12_4 C11_4 1_555 1_555
H12_4 C12_4 1_555 1_555
H13_4 C12_4 1_555 1_555
H14_4 C12_4 1_555 1_555
C2_4 C3_4 1_555 1_555
C4_4 C5_4 1_555 1_555
C10_4 C11_4 1_555 1_555

#END
