
###############################################################################
#
# This file contains modified crystal structure data generated from the
# MOF subset of the Cambridge Structural Database (CSD) v543 
# hosted by the Cambridge Crystallographic Data Centre (CCDC).
#
# This work is licensed under the Creative Commons
# Attribution-NonCommercial-ShareAlike 4.0 International License.
# To view a copy of this license, visit
# http://creativecommons.org/licenses/by-nc-sa/4.0/
# or send a letter to
# Creative Commons, PO Box 1866, Mountain View, CA 94042, USA.
#
# CIF created using the CSD Python API on 29 September 2022
# The structure has been converted into the P1 space group
# The structure has a 3D framework
# The original CSD entry AROFET is in the triclinic crystal system
# The framework has been calculated to contain at least 10.0% void space
# The void calculation uses a probe of radius 1.32A, grid spacing 0.4
# H atom positions have been added when not included in the experimental data
#
###############################################################################

data_AROFET
_chemical_formula_moiety         '(C66 H56 Cd4 O28)n'
_symmetry_cell_setting           triclinic
_symmetry_space_group_name_H-M   'P 1'
_symmetry_Int_Tables_number      1
_space_group_name_Hall           'P 1'
loop_
_symmetry_equiv_pos_site_id
_symmetry_equiv_pos_as_xyz
1 x,y,z
_cell_length_a                   13.3460(11)
_cell_length_b                   16.1864(13)
_cell_length_c                   17.7807(15)
_cell_angle_alpha                112.598(3)
_cell_angle_beta                 107.375(3)
_cell_angle_gamma                97.625(3)
_cell_volume                     3248.15
loop_
_atom_site_label
_atom_site_type_symbol
_atom_site_fract_x
_atom_site_fract_y
_atom_site_fract_z
O5 O 0.0075(4) 0.2709(3) 0.3517(4)
Cd3 Cd 0.06721(3) 0.61608(3) 0.59303(2)
O16 O 0.0980(3) 0.4803(2) 0.5130(3)
H25 H 0.046313 0.254268 0.398538
C4 C 0.8336(5) 0.0424(4) 0.3431(4)
H5 H 0.8879 0.0157 0.3273
C9 C 0.6474(5) 0.0250(4) 0.3351(4)
C10 C 0.8589(5) 0.1382(5) 0.4007(4)
H12 H 0.9311 0.1767 0.4216
C19 C 0.6774(5) 0.1200(4) 0.3947(4)
H19 H 0.6235 0.1452 0.4129
O11 O 0.8975(3) 0.3336(3) 0.5021(3)
O12 O 0.7471(4) 0.3055(3) 0.5269(3)
C31 C 0.8071(5) 0.2764(4) 0.4877(3)
C32 C 0.7820(5) 0.1783(4) 0.4280(4)
Cd5 Cd 0.93279(3) 0.38392(3) 0.40697(2)
Cd8 Cd 0.83732(3) 0.45615(3) 0.61614(2)
O1 O 0.7052(3) 0.8980(3) 0.2541(3)
C1 C 0.6134(5) 0.6378(4) 0.3695(4)
H1 H 0.5457 0.6513 0.3673
C3 C 0.4696(6) 0.6845(4) 0.1049(4)
H3 H 0.4630 0.6189 0.0672
H4 H 0.4368 0.6861 0.1484
C5 C 0.6575(5) 0.6996(5) 0.2047(4)
H6 H 0.6598 0.6384 0.1639
H7 H 0.7334 0.7405 0.2393
C7 C 0.7651(5) 0.6365(4) 0.3224(4)
H9 H 0.8012 0.6485 0.2875
H11 H 0.5746 0.9871 0.3127
O3 O 0.4160(4) 0.7264(3) 0.0525(3)
O4 O 0.7580(3) 0.5190(3) 0.5296(2)
C13 C 0.6387(7) 0.7451(4) 0.0861(4)
H15 H 0.6077 0.7835 0.0584
H16 H 0.7192 0.7718 0.1150
C14 C 0.6616(5) 0.6015(4) 0.4246(4)
H17 H 0.6261 0.5892 0.4598
O6 O 0.9020(3) 0.5197(2) 0.4870(3)
O7 O 0.6100(5) 0.6489(3) 0.0204(3)
C16 C 0.5909(5) 0.7430(4) 0.1522(4)
C17 C 0.7252(5) 0.9884(4) 0.3102(4)
C20 C 0.6642(5) 0.6548(4) 0.3169(4)
C24 C 0.5927(5) 0.8401(4) 0.2129(4)
H21 H 0.5452 0.8660 0.1788
H22 H 0.5656 0.8379 0.2584
O9 O 0.6092(3) 0.6882(3) 0.2620(2)
C26 C 0.8088(5) 0.5379(4) 0.4865(3)
C27 C 0.7606(4) 0.5823(3) 0.4298(3)
C29 C 0.8115(5) 0.6007(4) 0.3793(3)
H24 H 0.8802 0.5887 0.3835
O14 O 0.7524(4) 0.3245(3) 0.3234(3)
O17 O 0.9778(3) 0.4385(3) 0.3179(2)
H26 H 0.949133 0.215191 0.302453
H27 H 0.723335 0.267597 0.327924
H28 H 0.713673 0.371454 0.344454
C2 C 0.6060(7) 0.5346(4) 0.8916(4)
H2 H 0.5537 0.4921 0.8954
C6 C 0.1959(5) 0.6694(4) 0.8473(3)
H8 H 0.1687 0.7004 0.8132
C8 C 0.2885(5) 0.7179(4) 0.9261(4)
H10 H 0.3242 0.7813 0.9451
C11 C 0.2775(5) 0.5796(4) 0.9488(4)
H13 H 0.3052 0.5486 0.9828
C12 C 0.1856(5) 0.5330(4) 0.8699(4)
H14 H 0.1504 0.4694 0.8504
O8 O 0.0222(3) 0.5615(3) 0.6821(2)
C15 C 0.7273(8) 0.6886(5) 0.9498(4)
H18 H 0.7582 0.7515 0.9936
C18 C 0.7222(5) 0.5611(5) 0.8170(3)
C21 C 0.7556(6) 0.5305(5) 0.7432(4)
C22 C 0.3271(5) 0.6730(4) 0.9756(4)
C23 C 0.7599(7) 0.6572(5) 0.8805(4)
H20 H 0.8088 0.7002 0.8743
C25 C 0.1440(5) 0.5773(4) 0.8190(3)
O10 O 0.8312(4) 0.5842(3) 0.7413(3)
C28 C 0.6397(5) 0.5057(4) 0.8245(4)
H23 H 0.6055 0.4437 0.7791
C30 C 0.6482(7) 0.6283(5) 0.9567(4)
O13 O 0.7136(4) 0.4476(3) 0.6854(3)
C33 C 0.0448(5) 0.5268(4) 0.7382(4)
O2 O 0.9835(3) 0.4530(3) 0.7240(2)
Cd2 Cd 0.16268(3) 0.54385(3) 0.38386(2)
O2_2 O 0.0165(3) 0.5470(3) 0.2760(2)
O15 O 0.2420(3) 0.4810(3) 0.4704(2)
O18 O 0.1688(4) 0.4158(3) 0.2587(3)
O20 O 0.1025(3) 0.6664(3) 0.4979(3)
O21 O 0.2529(4) 0.6945(3) 0.4731(3)
O22 O 0.2864(4) 0.5524(3) 0.3146(3)
C2_2 C 0.3940(7) 0.4654(4) 0.1084(4)
H2_2 H 0.4463 0.5079 0.1046
C6_2 C 0.8041(5) 0.3306(4) 0.1527(3)
H8_2 H 0.8313 0.2996 0.1868
C8_2 C 0.7115(5) 0.2821(4) 0.0739(4)
H10_2 H 0.6758 0.2187 0.0549
C11_2 C 0.7225(5) 0.4204(4) 0.0512(4)
H13_2 H 0.6948 0.4514 0.0172
C12_2 C 0.8144(5) 0.4670(4) 0.1301(4)
H14_2 H 0.8496 0.5306 0.1496
C15_2 C 0.2727(8) 0.3114(5) 0.0502(4)
H18_2 H 0.2418 0.2485 0.0064
C18_2 C 0.2778(5) 0.4389(5) 0.1830(3)
C21_2 C 0.2444(6) 0.4695(5) 0.2568(4)
C22_2 C 0.6729(5) 0.3270(4) 0.0244(4)
C23_2 C 0.2401(7) 0.3428(5) 0.1195(4)
H20_2 H 0.1912 0.2998 0.1257
C25_2 C 0.8560(5) 0.4227(4) 0.1810(3)
C28_2 C 0.3603(5) 0.4943(4) 0.1755(4)
H23_2 H 0.3945 0.5563 0.2209
C30_2 C 0.3518(7) 0.3717(5) 0.0433(4)
C33_2 C 0.9552(5) 0.4732(4) 0.2618(4)
O1_2 O 0.2948(3) 0.1020(3) 0.7459(3)
C1_2 C 0.3866(5) 0.3622(4) 0.6305(4)
H1_2 H 0.4543 0.3487 0.6327
C3_2 C 0.5304(6) 0.3155(4) 0.8951(4)
H3_2 H 0.5370 0.3811 0.9328
H4_2 H 0.5632 0.3139 0.8516
C5_2 C 0.3425(5) 0.3004(5) 0.7953(4)
H6_2 H 0.3402 0.3616 0.8361
H7_2 H 0.2666 0.2595 0.7607
C7_2 C 0.2349(5) 0.3635(4) 0.6776(4)
H9_2 H 0.1988 0.3515 0.7125
H11_2 H 0.4254 0.0129 0.6873
O3_2 O 0.5840(4) 0.2736(3) 0.9475(3)
C13_2 C 0.3613(7) 0.2549(4) 0.9139(4)
H15_2 H 0.3923 0.2165 0.9416
H16_2 H 0.2808 0.2282 0.8850
C14_2 C 0.3384(5) 0.3985(4) 0.5754(4)
H17_2 H 0.3739 0.4108 0.5402
O7_2 O 0.3900(5) 0.3511(3) 0.9796(3)
C16_2 C 0.4091(5) 0.2570(4) 0.8478(4)
C17_2 C 0.2748(5) 0.0116(4) 0.6898(4)
C20_2 C 0.3358(5) 0.3452(4) 0.6831(4)
C24_2 C 0.4073(5) 0.1599(4) 0.7871(4)
H21_2 H 0.4548 0.1340 0.8212
H22_2 H 0.4344 0.1621 0.7416
O9_2 O 0.3908(3) 0.3118(3) 0.7380(2)
C26_2 C 0.1912(5) 0.4621(4) 0.5135(3)
C27_2 C 0.2394(4) 0.4177(3) 0.5702(3)
C29_2 C 0.1885(5) 0.3993(4) 0.6207(3)
H24_2 H 0.1198 0.4113 0.6165
O14_2 O 0.2476(4) 0.6755(3) 0.6766(3)
H26_2 H 0.0508673 0.784809 0.697547
H27_2 H 0.276665 0.732403 0.672076
H28_2 H 0.286327 0.628546 0.655546
C4_2 C 0.1664(5) 0.9576(4) 0.6569(4)
H5_2 H 0.1121 0.9843 0.6727
C9_2 C 0.3526(5) 0.9750(4) 0.6649(4)
C10_2 C 0.1411(5) 0.8618(5) 0.5993(4)
H12_2 H 0.0689 0.8233 0.5784
C19_2 C 0.3226(5) 0.8800(4) 0.6053(4)
H19_2 H 0.3765 0.8548 0.5871
C31_2 C 0.1929(5) 0.7236(4) 0.5123(3)
C32_2 C 0.2180(5) 0.8217(4) 0.5720(4)
O5_2 O 0.9925(4) 0.7291(3) 0.6483(4)
H25_2 H 0.953687 0.745732 0.601462
loop_
_geom_bond_atom_site_label_1
_geom_bond_atom_site_label_2
_geom_bond_site_symmetry_1
_geom_bond_site_symmetry_2
Cd3 O16 1_555 1_555
O5 H25 1_555 1_555
C4 H5 1_555 1_555
C10 C4 1_555 1_555
H12 C10 1_555 1_555
C19 C9 1_555 1_555
H19 C19 1_555 1_555
O11 C31 1_555 1_555
O12 C31 1_555 1_555
C31 C32 1_555 1_555
C32 C10 1_555 1_555
Cd5 O11 1_555 1_555
Cd8 O11 1_555 1_555
C19 C32 1_555 1_555
O12 Cd8 1_555 1_555
O1 C17 1_555 1_555
C1 H1 1_555 1_555
C3 H3 1_555 1_555
H4 C3 1_555 1_555
C5 H6 1_555 1_555
H7 C5 1_555 1_555
C7 H9 1_555 1_555
O3 C3 1_555 1_555
O4 C26 1_555 1_555
C13 H15 1_555 1_555
H16 C13 1_555 1_555
C14 C1 1_555 1_555
H17 C14 1_555 1_555
O6 Cd5 1_555 1_555
O7 C13 1_555 1_555
C16 C3 1_555 1_555
C20 C1 1_555 1_555
C24 O1 1_555 1_555
H21 C24 1_555 1_555
H22 C24 1_555 1_555
O9 C5 1_555 1_555
C26 O6 1_555 1_555
C27 C14 1_555 1_555
C29 C7 1_555 1_555
H24 C29 1_555 1_555
O14 Cd5 1_555 1_555
Cd8 O4 1_555 1_555
O17 Cd5 1_555 1_555
C5 C16 1_555 1_555
C7 C20 1_555 1_555
C13 C16 1_555 1_555
C16 C24 1_555 1_555
C20 O9 1_555 1_555
C26 C27 1_555 1_555
C27 C29 1_555 1_555
O14 H27 1_555 1_555
O14 H28 1_555 1_555
C2 H2 1_555 1_555
C6 H8 1_555 1_555
C8 C6 1_555 1_555
H10 C8 1_555 1_555
C11 H13 1_555 1_555
C12 C11 1_555 1_555
H14 C12 1_555 1_555
C15 H18 1_555 1_555
C18 C21 1_555 1_555
C21 O10 1_555 1_555
C22 C8 1_555 1_555
C23 C15 1_555 1_555
H20 C23 1_555 1_555
C25 C6 1_555 1_555
O10 Cd8 1_555 1_555
C28 C2 1_555 1_555
H23 C28 1_555 1_555
C30 C2 1_555 1_555
O13 C21 1_555 1_555
C33 O8 1_555 1_555
Cd3 O8 1_555 1_555
Cd8 O13 1_555 1_555
C11 C22 1_555 1_555
C12 C25 1_555 1_555
C15 C30 1_555 1_555
C18 C23 1_555 1_555
C18 C28 1_555 1_555
C25 C33 1_555 1_555
Cd8 O2 1_555 1_555
Cd2 O2_2 1_555 1_555
O15 Cd2 1_555 1_555
O18 Cd2 1_555 1_555
O20 Cd2 1_555 1_555
O21 Cd2 1_555 1_555
O22 Cd2 1_555 1_555
C2_2 H2_2 1_555 1_555
C6_2 H8_2 1_555 1_555
C8_2 C6_2 1_555 1_555
H10_2 C8_2 1_555 1_555
C11_2 H13_2 1_555 1_555
C12_2 C11_2 1_555 1_555
H14_2 C12_2 1_555 1_555
C15_2 H18_2 1_555 1_555
C18_2 C21_2 1_555 1_555
C21_2 O18 1_555 1_555
C22_2 C8_2 1_555 1_555
C23_2 C15_2 1_555 1_555
H20_2 C23_2 1_555 1_555
C25_2 C6_2 1_555 1_555
C28_2 C2_2 1_555 1_555
H23_2 C28_2 1_555 1_555
C30_2 C2_2 1_555 1_555
O22 C21_2 1_555 1_555
C33_2 O17 1_555 1_555
C11_2 C22_2 1_555 1_555
C12_2 C25_2 1_555 1_555
C15_2 C30_2 1_555 1_555
C18_2 C23_2 1_555 1_555
C18_2 C28_2 1_555 1_555
C25_2 C33_2 1_555 1_555
O1_2 C17_2 1_555 1_555
C1_2 H1_2 1_555 1_555
C3_2 H3_2 1_555 1_555
H4_2 C3_2 1_555 1_555
C5_2 H6_2 1_555 1_555
H7_2 C5_2 1_555 1_555
C7_2 H9_2 1_555 1_555
O3_2 C3_2 1_555 1_555
O15 C26_2 1_555 1_555
C13_2 H15_2 1_555 1_555
H16_2 C13_2 1_555 1_555
C14_2 C1_2 1_555 1_555
H17_2 C14_2 1_555 1_555
O7_2 C13_2 1_555 1_555
C16_2 C3_2 1_555 1_555
C20_2 C1_2 1_555 1_555
C24_2 O1_2 1_555 1_555
H21_2 C24_2 1_555 1_555
H22_2 C24_2 1_555 1_555
O9_2 C5_2 1_555 1_555
C26_2 O16 1_555 1_555
C27_2 C14_2 1_555 1_555
C29_2 C7_2 1_555 1_555
H24_2 C29_2 1_555 1_555
O14_2 Cd3 1_555 1_555
O20 Cd3 1_555 1_555
C5_2 C16_2 1_555 1_555
C7_2 C20_2 1_555 1_555
C13_2 C16_2 1_555 1_555
C16_2 C24_2 1_555 1_555
C20_2 O9_2 1_555 1_555
C26_2 C27_2 1_555 1_555
C27_2 C29_2 1_555 1_555
O14_2 H27_2 1_555 1_555
O14_2 H28_2 1_555 1_555
C4_2 H5_2 1_555 1_555
C10_2 C4_2 1_555 1_555
H12_2 C10_2 1_555 1_555
C19_2 C9_2 1_555 1_555
H19_2 C19_2 1_555 1_555
O20 C31_2 1_555 1_555
O21 C31_2 1_555 1_555
C31_2 C32_2 1_555 1_555
C32_2 C10_2 1_555 1_555
C19_2 C32_2 1_555 1_555
O5_2 H25_2 1_555 1_555

#END
