
###############################################################################
#
# This file contains modified crystal structure data generated from the
# MOF subset of the Cambridge Structural Database (CSD) v543 
# hosted by the Cambridge Crystallographic Data Centre (CCDC).
#
# This work is licensed under the Creative Commons
# Attribution-NonCommercial-ShareAlike 4.0 International License.
# To view a copy of this license, visit
# http://creativecommons.org/licenses/by-nc-sa/4.0/
# or send a letter to
# Creative Commons, PO Box 1866, Mountain View, CA 94042, USA.
#
# CIF created using the CSD Python API on 29 September 2022
# The structure has been converted into the P1 space group
# The structure has a 3D framework
# The original CSD entry AROFAP is in the triclinic crystal system
# The original CSD entry AROFAP is in a Sohncke space group
# The framework has been calculated to contain at least 10.0% void space
# The void calculation uses a probe of radius 1.32A, grid spacing 0.4
# H atom positions have been added when not included in the experimental data
#
###############################################################################

data_AROFAP
_chemical_formula_moiety         '(C99 H84 Cd5 O42)n'
_symmetry_cell_setting           triclinic
_symmetry_space_group_name_H-M   'P 1'
_symmetry_Int_Tables_number      1
_space_group_name_Hall           'P 1'
loop_
_symmetry_equiv_pos_site_id
_symmetry_equiv_pos_as_xyz
1 x,y,z
_cell_length_a                   15.420(5)
_cell_length_b                   15.842(3)
_cell_length_c                   17.819(3)
_cell_angle_alpha                112.763(2)
_cell_angle_beta                 112.203(3)
_cell_angle_gamma                95.425(3)
_cell_volume                     3565.41
loop_
_atom_site_label
_atom_site_type_symbol
_atom_site_fract_x
_atom_site_fract_y
_atom_site_fract_z
_atom_site_U_iso_or_equiv
_atom_site_thermal_displace_type
Cd12 Cd 0.40738(3) 0.18065(3) 0.00141(3) 0.0357 Uani
Cd22 Cd 0.22606(3) 0.10488(3) 0.07819(3) 0.0339 Uani
O20 O 0.2459(3) 0.0995(3) 0.9534(3) 0.0462 Uani
O22 O 0.2681(4) 0.1722(4) 0.8772(3) 0.0522 Uani
C54 C 0.1091(5) 0.0793(5) 0.8217(5) 0.0438 Uani
C61 C 0.0698(6) 0.1109(6) 0.7561(5) 0.0569 Uani
H45 H 0.1102 0.1584 0.7543 0.0680 Uiso
C74 C 0.2119(5) 0.1193(5) 0.8865(5) 0.0402 Uani
C77 C 0.0477(6) 0.0070(6) 0.8193(5) 0.0587 Uani
Cd19 Cd 0.14723(3) 0.92200(3) 0.15135(3) 0.0309 Uani
Cd7 Cd 0.64696(3) 0.31376(3) 0.04123(3) 0.0367 Uani
O54 O 0.4104(4) 0.3267(4) 0.0941(4) 0.0539 Uani
O59 O 0.5049(4) 0.1322(4) 0.0958(3) 0.0571 Uani
O12 O 0.4276(4) 0.0493(4) 0.8791(3) 0.0513 Uani
O14 O 0.5013(3) 0.2011(3) 0.9323(3) 0.0405 Uani
O21 O 0.3893(4) 0.1452(5) 0.1405(4) 0.0607 Uani
O32 O 0.6365(4) 0.0179(3) 0.6257(3) 0.0486 Uani
C44 C 0.5976(6) 0.0348(5) 0.6844(4) 0.0439 Uani
H37 H 0.7769 0.0544 0.5971 0.0460 Uiso
C47 C 0.5973(6) 0.1276(5) 0.7302(5) 0.0460 Uani
H38 H 0.6212 0.1746 0.7167 0.0550 Uiso
H40 H 0.6078 0.0340 0.4880 0.0480 Uiso
C49 C 0.6057(5) 0.0215(5) 0.3373(4) 0.0428 Uani
C57 C 0.5223(5) 0.0844(5) 0.8115(4) 0.0368 Uani
C63 C 0.5173(6) 0.0400(7) 0.3255(5) 0.0575 Uani
H47 H 0.4875 0.0328 0.3614 0.0690 Uiso
C64 C 0.9712(5) 0.0726(6) 0.6934(5) 0.0546 Uani
H48 H 0.9433 0.0998 0.6541 0.0650 Uiso
C65 C 0.5632(6) 0.1547(5) 0.7959(5) 0.0433 Uani
H49 H 0.5677 0.2197 0.8294 0.0520 Uiso
C66 C 0.4823(5) 0.1127(5) 0.8777(5) 0.0398 Uani
C68 C 0.4662(6) 0.1242(5) 0.1460(5) 0.0478 Uani
C76 C 0.4723(6) 0.0697(7) 0.2592(6) 0.0597 Uani
H55 H 0.4094 0.0785 0.2479 0.0720 Uiso
C82 C 0.6505(6) 0.0365(6) 0.2867(5) 0.0544 Uani
H58 H 0.7108 0.0225 0.2939 0.0650 Uiso
C83 C 0.5145(6) 0.0859(6) 0.2119(5) 0.0500 Uani
C85 C 0.6069(6) 0.0716(7) 0.2261(5) 0.0561 Uani
H59 H 0.6390 0.0858 0.1945 0.0670 Uiso
O41 O 0.0634(5) 0.0871(7) 0.0326(5) 0.1061 Uani
O42 O 0.2556(8) 0.2653(5) 0.1278(6) 0.1227 Uani
O48 O 0.2368(3) 0.0815(3) 0.2023(3) 0.0363 Uani
H79 H 0.290975 0.285076 0.0982281 . .
H80 H 0.192694 0.281725 0.11179 . .
H81 H 0.0453566 0.138392 0.0163166 . .
H82 H 0.0258731 0.0239689 0.978598 . .
O13 O 0.5653(4) 0.3522(4) 0.1253(3) 0.0461 Uani
O24 O 0.6742(4) 0.2033(4) 0.0965(4) 0.0557 Uani
O33 O 0.5703(3) 0.7631(3) 0.3891(3) 0.0501 Uani
C33 C 0.6678(4) 0.8265(5) 0.4410(4) 0.0397 Uani
H29 H 0.6935 0.8315 0.3992 0.0470 Uiso
H30 H 0.7112 0.8011 0.4787 0.0470 Uiso
C34 C 0.5166(5) 0.4832(5) 0.2038(5) 0.0465 Uani
C35 C 0.6662(5) 0.9242(5) 0.5019(4) 0.0340 Uani
C36 C 0.6070(5) 0.5459(6) 0.2420(5) 0.0525 Uani
H31 H 0.6546 0.5246 0.2237 0.0630 Uiso
C39 C 0.6231(5) 0.9203(4) 0.5637(4) 0.0370 Uani
H33 H 0.5527 0.8853 0.5276 0.0450 Uiso
H34 H 0.6564 0.8872 0.5982 0.0450 Uiso
C43 C 0.4971(5) 0.3809(5) 0.1373(5) 0.0400 Uani
O34 O 0.6536(4) 0.9850(4) 0.3945(3) 0.0521 Uani
O36 O 0.8192(3) 0.9502(4) 0.6229(3) 0.0515 Uani
C45 C 0.7742(5) 0.9871(5) 0.5626(5) 0.0379 Uani
H36 H 0.8077 0.9844 0.5244 0.0460 Uiso
C48 C 0.6094(5) 0.9716(5) 0.4462(5) 0.0404 Uani
H39 H 0.5413 0.9309 0.4053 0.0480 Uiso
C50 C 0.9145(5) 0.9972(5) 0.6876(4) 0.0470 Uani
C53 C 0.5573(5) 0.6705(6) 0.3299(4) 0.0490 Uani
C58 C 0.5220(5) 0.9927(5) 0.7655(5) 0.0397 Uani
H43 H 0.4958 0.9451 0.7772 0.0470 Uiso
C60 C 0.6305(5) 0.6417(5) 0.3082(5) 0.0493 Uani
H44 H 0.6939 0.6843 0.3366 0.0590 Uiso
C67 C 0.9521(6) 0.9632(6) 0.7491(5) 0.0634 Uani
H50 H 0.9130 0.9094 0.7442 0.0760 Uiso
C73 C 0.5581(5) 0.9666(5) 0.7031(5) 0.0423 Uani
H54 H 0.5564 0.9018 0.6724 0.0500 Uiso
C78 C 0.4469(6) 0.5124(6) 0.2295(6) 0.0707 Uani
H57 H 0.3861 0.4682 0.2066 0.0850 Uiso
C90 C 0.4668(6) 0.6075(6) 0.2896(6) 0.0715 Uani
H65 H 0.4167 0.6294 0.3031 0.0850 Uiso
Cd10 Cd 0.77177(4) 0.55051(3) 0.07633(3) 0.0353 Uani
O46 O 0.1851(4) 0.9462(3) 0.0093(4) 0.0502 Uani
O49 O 0.7656(4) 0.4561(3) 0.1459(3) 0.0454 Uani
H75 H 0.802409 0.323476 0.0032794 . .
H76 H 0.782357 0.225075 0.010271 . .
H77 H 0.690675 0.15105 0.0560291 . .
H78 H 0.729195 0.234996 0.159071 . .
O4 O 0.1881(4) 0.3674(3) 0.6703(4) 0.0582 Uani
C2 C 0.0220(5) 0.2801(5) 0.5659(4) 0.0370 Uani
C4 C 0.4703(5) 0.4336(5) 0.8691(4) 0.0409 Uani
H3 H 0.0498 0.0352 0.3337 0.0970 Uiso
C8 C 0.4396(5) 0.4949(5) 0.8358(4) 0.0363 Uani
H6 H 0.4836 0.5552 0.8592 0.0440 Uiso
C10 C 0.0314(5) 0.3295(6) 0.5083(5) 0.0453 Uani
H8 H 0.0673 0.3980 0.5482 0.0550 Uiso
H9 H 0.0667 0.2991 0.4738 0.0550 Uiso
C15 C 0.3448(5) 0.4714(5) 0.7680(4) 0.0425 Uani
H12 H 0.3237 0.5152 0.7457 0.0510 Uiso
C19 C 0.3110(6) 0.3189(5) 0.7643(6) 0.0616 Uani
H17 H 0.2687 0.2570 0.7386 0.0740 Uiso
C22 C 0.1208(5) 0.2751(5) 0.6243(6) 0.0501 Uani
H18 H 0.1163 0.2551 0.6692 0.0600 Uiso
H19 H 0.1430 0.2279 0.5856 0.0600 Uiso
C28 C 0.4057(5) 0.3472(6) 0.8354(5) 0.0492 Uani
H24 H 0.4255 0.3053 0.8608 0.0590 Uiso
O11 O 0.6008(4) 0.4005(5) 0.9669(4) 0.0754 Uani
O27 O 0.6245(4) 0.5421(4) 0.9751(4) 0.0611 Uani
O30 O 0.7513(5) 0.2667(5) 0.9854(5) 0.0872 Uani
C59 C 0.5728(5) 0.4614(6) 0.9441(4) 0.0432 Uani
H53 H 0.0637 0.4261 0.4299 0.0680 Uiso
C84 C 0.2815(5) 0.3817(5) 0.7336(5) 0.0442 Uani
H60 H 0.0252 0.4011 0.6702 0.0630 Uiso
H62 H 0.0263 0.4980 0.3360 0.0630 Uiso
O45 O 0.1626(4) 0.0559(3) 0.2786(3) 0.0488 Uani
O26 O 0.2059(4) 0.8387(4) 0.0612(3) 0.0515 Uani
O28 O 0.9806(5) 0.7861(6) 0.0305(5) 0.0803 Uani
O29 O 0.9999(4) 0.9345(6) 0.0617(5) 0.0797 Uani
C41 C 0.2138(5) 0.8760(5) 0.0078(4) 0.0380 Uani
C95 C 0.9452(6) 0.8478(8) 0.0169(6) 0.0597 Uani
Cd16 Cd 0.99681(3) 0.68594(3) 0.09314(3) 0.0389 Uani
O1 O 0.1183(3) 0.8195(3) 0.2102(3) 0.0399 Uani
O2 O 0.2742(3) 0.8910(4) 0.2663(3) 0.0455 Uani
O3 O 0.3004(3) 0.6810(4) 0.5117(3) 0.0435 Uani
C1 C 0.3977(5) 0.6544(4) 0.6362(4) 0.0319 Uani
O5 O 0.5626(3) 0.7552(3) 0.7454(3) 0.0500 Uani
C3 C 0.5010(5) 0.6582(4) 0.6975(4) 0.0369 Uani
H1 H 0.4991 0.6360 0.7418 0.0440 Uiso
H2 H 0.5276 0.6158 0.6599 0.0440 Uiso
O8 O 0.3785(4) 0.5017(3) 0.5259(3) 0.0557 Uani
C6 C 0.2821(5) 0.7185(5) 0.4519(5) 0.0437 Uani
C7 C 0.3981(5) 0.6918(5) 0.5693(4) 0.0351 Uani
H4 H 0.4359 0.7599 0.6030 0.0420 Uiso
H5 H 0.4289 0.6555 0.5326 0.0420 Uiso
C9 C 0.3701(6) 0.3663(6) 0.4029(6) 0.0688 Uani
H7 H 0.4200 0.4056 0.4023 0.0830 Uiso
C11 C 0.2342(5) 0.7921(5) 0.3272(5) 0.0388 Uani
C16 C 0.3377(5) 0.5505(5) 0.5844(5) 0.0380 Uani
H13 H 0.3418 0.5238 0.6271 0.0460 Uiso
H14 H 0.2683 0.5442 0.5481 0.0460 Uiso
C17 C 0.1867(5) 0.7166(6) 0.4056(5) 0.0500 Uani
H15 H 0.1374 0.6903 0.4164 0.0600 Uiso
C20 C 0.2087(5) 0.8366(5) 0.2667(4) 0.0364 Uani
C24 C 0.3277(5) 0.7942(5) 0.3741(4) 0.0382 Uani
H21 H 0.3771 0.8234 0.3652 0.0450 Uiso
C25 C 0.3549(5) 0.7552(5) 0.4352(4) 0.0341 Uani
H22 H 0.4203 0.7538 0.4641 0.0410 Uiso
C26 C 0.1628(5) 0.7523(6) 0.3445(5) 0.0493 Uani
H23 H 0.0967 0.7503 0.3130 0.0590 Uiso
C27 C 0.3337(6) 0.4055(5) 0.4660(5) 0.0483 Uani
O25 O 0.1038(5) 0.6603(5) 0.0304(5) 0.0773 Uani
O31 O 0.3529(4) 0.6843(3) 0.7578(3) 0.0503 Uani
C29 C 0.3348(5) 0.2743(5) 0.3442(5) 0.0478 Uani
H25 H 0.3612 0.2488 0.3027 0.0580 Uiso
C30 C 0.3542(5) 0.7168(4) 0.6940(4) 0.0340 Uani
H26 H 0.3940 0.7842 0.7268 0.0410 Uiso
H27 H 0.2870 0.7130 0.6542 0.0410 Uiso
C31 C 0.2605(5) 0.2137(5) 0.3409(4) 0.0389 Uani
C37 C 0.3196(6) 0.7365(6) 0.8187(5) 0.0510 Uani
C38 C 0.2680(5) 0.8684(5) 0.8911(5) 0.0418 Uani
H32 H 0.2547 0.9274 0.8969 0.0500 Uiso
C42 C 0.2528(6) 0.8284(5) 0.9460(5) 0.0438 Uani
C51 C 0.2630(5) 0.3483(5) 0.4658(5) 0.0481 Uani
H41 H 0.2381 0.3742 0.5085 0.0580 Uiso
C52 C 0.2262(6) 0.2527(5) 0.4043(5) 0.0488 Uani
H42 H 0.1769 0.2133 0.4055 0.0580 Uiso
C62 C 0.3017(6) 0.8220(5) 0.8299(5) 0.0527 Uani
H46 H 0.3127 0.8500 0.7946 0.0630 Uiso
C69 C 0.2171(5) 0.1128(5) 0.2710(4) 0.0350 Uani
C70 C 0.6930(6) 0.7045(6) 0.8291(6) 0.0585 Uani
H51 H 0.6549 0.6398 0.7984 0.0700 Uiso
C71 C 0.2751(8) 0.7438(7) 0.9367(6) 0.0686 Uani
H52 H 0.2678 0.7164 0.9736 0.0820 Uiso
C75 C 0.6547(6) 0.7701(5) 0.8059(5) 0.0472 Uani
C79 C 0.8462(5) 0.8244(6) 0.9408(6) 0.0526 Uani
C88 C 0.7860(7) 0.7319(6) 0.8966(5) 0.0685 Uani
H63 H 0.8104 0.6860 0.9140 0.0820 Uiso
C91 C 0.3081(9) 0.6988(7) 0.8739(7) 0.0788 Uani
H66 H 0.3234 0.6407 0.8683 0.0950 Uiso
C97 C 0.7144(7) 0.8660(7) 0.8506(7) 0.0859 Uani
H70 H 0.6902 0.9134 0.8361 0.1030 Uiso
C98 C 0.8080(6) 0.8871(6) 0.9151(6) 0.0755 Uani
H71 H 0.8486 0.9504 0.9437 0.0900 Uiso
O40 O 0.0362(4) 0.5789(4) 0.1414(4) 0.0628 Uani
H73 H 0.163616 0.65368 0.0728353 . .
H83 H 0.035096 0.597813 0.200992 . .
O6 O 0.9339(3) 0.3185(4) 0.4474(3) 0.0515 Uani
O7 O 0.9917(4) 0.1331(4) 0.4415(4) 0.0559 Uani
C12 C 0.8787(5) 0.4455(5) 0.2747(5) 0.0450 Uani
C13 C 0.9554(5) 0.1772(5) 0.5032(5) 0.0418 Uani
H10 H 0.9562 0.1429 0.5395 0.0490 Uiso
H11 H 0.8874 0.1773 0.4702 0.0490 Uiso
C14 C 0.9226(5) 0.3648(6) 0.3932(5) 0.0458 Uani
C18 C 0.8031(5) 0.3918(6) 0.2791(5) 0.0507 Uani
H16 H 0.7368 0.3832 0.2409 0.0610 Uiso
C21 C 0.9526(5) 0.0372(5) 0.3858(5) 0.0488 Uani
C23 C 0.8245(6) 0.3524(6) 0.3377(6) 0.0560 Uani
H20 H 0.7736 0.3172 0.3408 0.0670 Uiso
O10 O 0.8561(4) 0.5739(4) 0.9725(4) 0.0612 Uani
H35 H 0.8468 0.0065 0.4220 0.0470 Uiso
O35 O 0.9171(4) 0.5410(4) 0.2103(4) 0.0577 Uani
C46 C 0.8555(5) 0.4838(5) 0.2082(5) 0.0441 Uani
O38 O 0.8043(5) 0.4419(4) 0.9710(4) 0.0675 Uani
C56 C 0.8369(5) 0.4837(6) 0.9404(5) 0.0481 Uani
C72 C 0.9975(6) 0.4180(6) 0.3919(6) 0.0570 Uani
O39 O 0.9490(5) 0.2893(4) 0.6659(4) 0.0656 Uani
C81 C 0.8614(6) 0.4313(6) 0.8626(5) 0.0573 Uani
C86 C 0.9772(6) 0.3386(5) 0.6231(5) 0.0520 Uani
H61 H 0.9194 0.3504 0.5839 0.0630 Uiso
C87 C 0.9747(6) 0.4588(6) 0.3349(5) 0.0527 Uani
C89 C 0.9099(9) 0.4313(7) 0.7477(7) 0.0831 Uani
H64 H 0.9208 0.4618 0.7142 0.0990 Uiso
C92 C 0.8894(9) 0.4793(7) 0.8212(7) 0.0817 Uani
H67 H 0.8947 0.5455 0.8426 0.0980 Uiso
C93 C 0.9137(6) 0.3372(6) 0.7257(5) 0.0580 Uani
C94 C 0.8813(8) 0.2896(6) 0.7627(6) 0.0751 Uani
H68 H 0.8789 0.2242 0.7443 0.0910 Uiso
C99 C 0.8514(8) 0.3370(6) 0.8279(8) 0.0836 Uani
H72 H 0.8226 0.3013 0.8491 0.1000 Uiso
C5 C 0.9950(7) 0.9970(6) 0.3292(7) 0.0803 Uani
O9 O 0.8858(4) 0.7018(3) 0.1487(4) 0.0512 Uani
O18 O 0.7749(4) 0.6888(3) 0.1950(4) 0.0535 Uani
C32 C 0.8409(5) 0.8830(5) 0.3196(5) 0.0378 Uani
H28 H 0.7868 0.8439 0.3152 0.0450 Uiso
C40 C 0.8754(5) 0.9803(5) 0.3826(5) 0.0389 Uani
C55 C 0.8457(5) 0.7410(5) 0.2015(5) 0.0446 Uani
C80 C 0.8827(5) 0.8429(5) 0.2645(5) 0.0360 Uani
C96 C 0.9579(8) 0.9024(6) 0.2671(8) 0.0921 Uani
H69 H 0.9836 0.8768 0.2250 0.1100 Uiso
H84 H 0.988483 0.515466 0.0961754 . .
H56 H 0.0708 0.9872 0.8655 0.0700 Uiso
H74 H 0.0723696 0.600998 0.971468 . .
loop_
_atom_site_aniso_label
_atom_site_aniso_U_11
_atom_site_aniso_U_22
_atom_site_aniso_U_33
_atom_site_aniso_U_23
_atom_site_aniso_U_13
_atom_site_aniso_U_12
Cd12 0.0328 0.0413 0.0256 0.0125 0.0121 -0.0036
Cd22 0.0373 0.0304 0.0313 0.0141 0.0145 0.0023
O20 0.042 0.053 0.033 0.023 0.008 -0.007
O22 0.041 0.075 0.046 0.04 0.015 0.004
C54 0.043 0.048 0.029 0.021 0.005 -0.001
C61 0.048 0.062 0.062 0.046 0.014 -0.01
C74 0.041 0.039 0.037 0.019 0.015 0.001
C77 0.046 0.058 0.04 0.035 -0.016 -0.022
Cd19 0.0338 0.0278 0.0268 0.01149 0.0124 0.001
Cd7 0.0394 0.0316 0.0323 0.0107 0.0164 -0.0014
O54 0.053 0.04 0.053 0.007 0.028 -0.006
O59 0.079 0.058 0.039 0.032 0.027 -0.006
O12 0.051 0.053 0.045 0.02 0.024 -0.005
O14 0.046 0.034 0.03 0.003 0.021 -0.001
O21 0.036 0.093 0.05 0.052 0.001 0
O32 0.074 0.034 0.044 0.009 0.045 0.001
C44 0.072 0.032 0.031 0.011 0.032 0.006
C47 0.074 0.026 0.037 0.009 0.034 -0.005
C49 0.042 0.066 0.028 0.026 0.017 0.022
C57 0.044 0.033 0.025 0.007 0.018 -0.007
C63 0.053 0.11 0.035 0.051 0.023 0.037
C64 0.04 0.064 0.036 0.032 -0.009 -0.012
C65 0.067 0.031 0.033 0.012 0.029 0.002
C66 0.046 0.042 0.03 0.014 0.022 -0.003
C68 0.042 0.042 0.035 0.017 -0.002 -0.003
C76 0.055 0.105 0.056 0.065 0.029 0.035
C82 0.047 0.087 0.058 0.049 0.034 0.025
C83 0.051 0.07 0.025 0.028 0.009 0.008
C85 0.048 0.095 0.043 0.043 0.026 0.02
O41 0.062 0.16 0.091 0.05 0.029 0.066
O42 0.198 0.044 0.124 0.017 0.094 0.029
O48 0.044 0.03 0.024 0.0044 0.016 -0.002
O13 0.057 0.048 0.032 0.015 0.022 0.016
O24 0.061 0.056 0.063 0.039 0.028 0.018
O33 0.032 0.043 0.041 -0.006 0.011 0.003
C33 0.024 0.041 0.032 0.005 0.005 0.002
C34 0.038 0.041 0.03 -0.004 0.008 0.006
C35 0.039 0.038 0.016 0.009 0.007 0.012
C36 0.042 0.054 0.05 0.008 0.026 0.013
C39 0.037 0.028 0.035 0.009 0.013 0.002
C43 0.05 0.03 0.03 0.006 0.017 0.008
O34 0.049 0.09 0.048 0.046 0.034 0.032
O36 0.035 0.051 0.046 0.029 -0.006 -0.007
C45 0.033 0.044 0.04 0.026 0.014 0.006
C48 0.041 0.064 0.037 0.032 0.025 0.03
C50 0.047 0.049 0.023 0.018 -0.001 -0.012
C53 0.036 0.055 0.02 -0.006 0.003 0.007
C58 0.046 0.032 0.04 0.017 0.021 -0.002
C60 0.037 0.036 0.04 -0.007 0.009 0.009
C67 0.057 0.075 0.046 0.039 0.009 -0.021
C73 0.049 0.036 0.049 0.022 0.028 0.005
C78 0.04 0.066 0.062 -0.012 0.025 0.006
C90 0.042 0.06 0.072 -0.013 0.033 0.006
Cd10 0.0369 0.0289 0.0327 0.01082 0.0143 -0.00113
O46 0.07 0.033 0.055 0.015 0.04 0.017
O49 0.054 0.039 0.028 0.015 0.01 -0.012
O4 0.052 0.036 0.05 0.015 -0.005 0.002
C2 0.045 0.034 0.029 0.011 0.016 0.017
C4 0.035 0.038 0.031 0.01 0.006 -0.004
C8 0.036 0.026 0.032 0.007 0.012 -0.011
C10 0.035 0.052 0.04 0.017 0.011 0.019
C15 0.059 0.028 0.028 0.009 0.013 0.006
C19 0.039 0.036 0.082 0.027 0.003 0
C22 0.052 0.027 0.057 0.016 0.015 0.008
C28 0.039 0.055 0.04 0.029 0.001 -0.003
O11 0.054 0.095 0.068 0.063 -0.002 -0.004
O27 0.042 0.05 0.048 0.002 0.003 -0.002
O30 0.069 0.091 0.085 0.009 0.055 0.005
C59 0.037 0.054 0.022 0.011 0.007 -0.001
C84 0.038 0.039 0.038 0.016 0.004 0.002
O45 0.067 0.031 0.039 0.002 0.034 -0.007
O26 0.062 0.062 0.041 0.024 0.03 0.03
O28 0.054 0.12 0.084 0.074 0.019 0.027
O29 0.037 0.117 0.081 0.061 0.012 -0.001
C41 0.042 0.038 0.019 0.003 0.01 0.01
C95 0.038 0.111 0.041 0.045 0.017 0.025
Cd16 0.0363 0.0376 0.0378 0.0138 0.0181 -0.0009
O1 0.033 0.043 0.035 0.021 0.006 0.001
O2 0.041 0.055 0.032 0.022 0.012 -0.011
O3 0.029 0.061 0.041 0.032 0.011 -0.003
C1 0.046 0.02 0.025 0.008 0.015 0.004
O5 0.038 0.038 0.053 0.023 -0.001 0.007
C3 0.044 0.025 0.024 0.006 0.005 0.004
O8 0.06 0.038 0.042 -0.009 0.031 -0.012
C6 0.038 0.057 0.037 0.027 0.015 0.001
C7 0.038 0.038 0.025 0.016 0.009 0.009
C9 0.064 0.05 0.053 -0.014 0.037 -0.027
C11 0.036 0.042 0.035 0.019 0.012 0.008
C16 0.034 0.034 0.033 0.009 0.012 -0.003
C17 0.035 0.068 0.045 0.036 0.009 0.001
C20 0.034 0.041 0.011 0.001 0.002 -0.002
C24 0.033 0.05 0.032 0.02 0.017 -0.002
C25 0.028 0.049 0.02 0.018 0.006 0
C26 0.035 0.073 0.041 0.037 0.01 0.003
C27 0.054 0.039 0.045 0.009 0.03 -0.003
O25 0.091 0.079 0.095 0.037 0.078 0.02
O31 0.1 0.038 0.041 0.027 0.047 0.032
C29 0.046 0.039 0.052 0.002 0.039 -0.004
C30 0.048 0.027 0.026 0.014 0.015 0.006
C31 0.05 0.038 0.023 0.006 0.021 0.004
C37 0.084 0.053 0.036 0.027 0.035 0.039
C38 0.06 0.022 0.031 0.008 0.014 0.006
C42 0.063 0.044 0.034 0.021 0.026 0.023
C51 0.053 0.047 0.038 0.006 0.031 0.003
C52 0.062 0.044 0.032 0.007 0.028 -0.003
C62 0.072 0.04 0.052 0.024 0.029 0.023
C69 0.037 0.036 0.027 0.012 0.013 0.007
C70 0.045 0.039 0.052 0.011 -0.004 0.003
C71 0.121 0.075 0.071 0.056 0.071 0.064
C75 0.053 0.034 0.035 0.013 0.004 0.011
C79 0.036 0.058 0.047 0.021 0.008 0.003
C88 0.083 0.061 0.041 0.02 0.006 0.045
C91 0.153 0.072 0.09 0.06 0.096 0.08
C97 0.066 0.068 0.094 0.052 -0.004 0.002
C98 0.046 0.053 0.076 0.032 -0.02 -0.007
O40 0.065 0.054 0.092 0.049 0.04 0.022
O6 0.037 0.066 0.048 0.035 0.009 0.004
O7 0.056 0.036 0.054 -0.005 0.034 -0.003
C12 0.045 0.036 0.035 0.009 0.01 -0.001
C13 0.039 0.045 0.043 0.016 0.024 0.013
C14 0.033 0.058 0.034 0.019 0.008 0.001
C18 0.031 0.075 0.025 0.017 0.004 -0.01
C21 0.047 0.026 0.052 -0.004 0.026 0.002
C23 0.04 0.067 0.06 0.04 0.015 -0.004
O10 0.052 0.055 0.036 -0.009 0.014 0.004
O35 0.06 0.061 0.043 0.027 0.019 -0.016
C46 0.043 0.041 0.026 0.004 0.009 -0.002
O38 0.074 0.07 0.073 0.031 0.051 0.012
C56 0.038 0.052 0.038 0.008 0.017 0.002
C72 0.038 0.076 0.056 0.037 0.014 0.013
O39 0.11 0.047 0.068 0.026 0.064 0.038
C81 0.07 0.045 0.04 0.002 0.032 -0.008
C86 0.07 0.038 0.036 0.006 0.023 0.018
C87 0.045 0.061 0.056 0.032 0.021 0.016
C89 0.148 0.061 0.076 0.039 0.071 0.057
C92 0.161 0.052 0.083 0.038 0.093 0.048
C93 0.068 0.053 0.039 0.008 0.028 0
C94 0.126 0.041 0.065 0.019 0.055 0.024
C99 0.111 0.034 0.11 0.008 0.083 0.006
C5 0.084 0.033 0.107 -0.014 0.08 -0.009
O9 0.058 0.034 0.054 0.004 0.037 0.002
O18 0.04 0.029 0.077 0.008 0.032 -0.003
C32 0.033 0.034 0.041 0.009 0.022 0.001
C40 0.029 0.043 0.037 0.011 0.016 0.006
C55 0.043 0.046 0.037 0.014 0.017 0.007
C80 0.032 0.032 0.039 0.012 0.017 0.003
C96 0.124 0.032 0.143 0.008 0.118 0.01
loop_
_geom_bond_atom_site_label_1
_geom_bond_atom_site_label_2
_geom_bond_site_symmetry_1
_geom_bond_site_symmetry_2
O20 C74 1_555 1_555
O22 C74 1_555 1_555
C54 C61 1_555 1_555
C61 H45 1_555 1_555
C74 C54 1_555 1_555
C77 C54 1_555 1_555
O54 Cd12 1_555 1_555
O59 Cd12 1_555 1_555
Cd22 O21 1_555 1_555
O12 C66 1_555 1_555
O21 C68 1_555 1_555
C44 O32 1_555 1_555
C47 C44 1_555 1_555
H38 C47 1_555 1_555
O59 C68 1_555 1_555
C63 C49 1_555 1_555
H47 C63 1_555 1_555
H48 C64 1_555 1_555
C65 C47 1_555 1_555
H49 C65 1_555 1_555
C66 O14 1_555 1_555
C68 C83 1_555 1_555
C76 C63 1_555 1_555
H55 C76 1_555 1_555
C82 C49 1_555 1_555
H58 C82 1_555 1_555
C83 C76 1_555 1_555
C85 C82 1_555 1_555
H59 C85 1_555 1_555
O41 Cd22 1_555 1_555
O42 Cd22 1_555 1_555
O48 Cd22 1_555 1_555
C57 C65 1_555 1_555
C57 C66 1_555 1_555
C83 C85 1_555 1_555
O42 H79 1_555 1_555
O42 H80 1_555 1_555
O41 H81 1_555 1_555
O13 Cd7 1_555 1_555
O54 C43 1_555 1_555
O24 Cd7 1_555 1_555
O33 C33 1_555 1_555
C33 H29 1_555 1_555
H30 C33 1_555 1_555
C34 C36 1_555 1_555
C35 C33 1_555 1_555
C36 H31 1_555 1_555
C39 C35 1_555 1_555
H33 C39 1_555 1_555
H34 C39 1_555 1_555
C43 O13 1_555 1_555
O34 C48 1_555 1_555
O36 C45 1_555 1_555
C45 C35 1_555 1_555
H36 C45 1_555 1_555
C48 C35 1_555 1_555
H39 C48 1_555 1_555
C50 O36 1_555 1_555
C53 O33 1_555 1_555
C58 H43 1_555 1_555
C60 C36 1_555 1_555
H44 C60 1_555 1_555
C67 C50 1_555 1_555
H50 C67 1_555 1_555
H54 C73 1_555 1_555
C78 C34 1_555 1_555
H57 C78 1_555 1_555
C90 C53 1_555 1_555
H65 C90 1_555 1_555
O49 Cd7 1_555 1_555
C34 C43 1_555 1_555
C53 C60 1_555 1_555
C58 C73 1_555 1_555
C78 C90 1_555 1_555
Cd10 O49 1_555 1_555
O24 H77 1_555 1_555
O24 H78 1_555 1_555
O4 C22 1_555 1_555
C2 C10 1_555 1_555
C4 C8 1_555 1_555
C8 H6 1_555 1_555
C10 H8 1_555 1_555
H9 C10 1_555 1_555
C15 C8 1_555 1_555
H12 C15 1_555 1_555
C19 H17 1_555 1_555
C22 C2 1_555 1_555
H18 C22 1_555 1_555
H19 C22 1_555 1_555
C28 C4 1_555 1_555
H24 C28 1_555 1_555
O11 C59 1_555 1_555
O27 C59 1_555 1_555
C59 C4 1_555 1_555
C84 O4 1_555 1_555
C15 C84 1_555 1_555
C19 C28 1_555 1_555
C19 C84 1_555 1_555
O46 C41 1_555 1_555
O26 C41 1_555 1_555
O28 C95 1_555 1_555
O29 C95 1_555 1_555
Cd16 O28 1_555 1_555
Cd19 O26 1_555 1_555
Cd19 O1 1_555 1_555
O1 C20 1_555 1_555
O2 Cd19 1_555 1_555
O3 C6 1_555 1_555
C1 C3 1_555 1_555
O5 C3 1_555 1_555
C3 H1 1_555 1_555
H2 C3 1_555 1_555
O8 C16 1_555 1_555
C6 C17 1_555 1_555
C7 O3 1_555 1_555
H4 C7 1_555 1_555
H5 C7 1_555 1_555
C9 H7 1_555 1_555
C11 C20 1_555 1_555
C16 C1 1_555 1_555
H13 C16 1_555 1_555
H14 C16 1_555 1_555
C17 H15 1_555 1_555
C20 O2 1_555 1_555
C24 C11 1_555 1_555
H21 C24 1_555 1_555
C25 C6 1_555 1_555
H22 C25 1_555 1_555
C26 C11 1_555 1_555
H23 C26 1_555 1_555
C27 O8 1_555 1_555
O45 C69 1_555 1_555
O48 C69 1_555 1_555
O31 C30 1_555 1_555
C29 C9 1_555 1_555
H25 C29 1_555 1_555
C30 C1 1_555 1_555
H26 C30 1_555 1_555
H27 C30 1_555 1_555
C31 C29 1_555 1_555
C37 O31 1_555 1_555
C38 H32 1_555 1_555
C42 C38 1_555 1_555
C51 C27 1_555 1_555
H41 C51 1_555 1_555
C52 C31 1_555 1_555
H42 C52 1_555 1_555
C62 C37 1_555 1_555
H46 C62 1_555 1_555
C69 C31 1_555 1_555
C70 H51 1_555 1_555
C71 C42 1_555 1_555
H52 C71 1_555 1_555
C75 O5 1_555 1_555
C79 C88 1_555 1_555
C88 C70 1_555 1_555
H63 C88 1_555 1_555
C91 C37 1_555 1_555
H66 C91 1_555 1_555
C97 C75 1_555 1_555
H70 C97 1_555 1_555
C98 C79 1_555 1_555
H71 C98 1_555 1_555
C1 C7 1_555 1_555
C9 C27 1_555 1_555
C17 C26 1_555 1_555
C24 C25 1_555 1_555
C38 C62 1_555 1_555
C51 C52 1_555 1_555
C70 C75 1_555 1_555
C71 C91 1_555 1_555
C97 C98 1_555 1_555
O25 H73 1_555 1_555
O40 H83 1_555 1_555
O7 C13 1_555 1_555
C12 C18 1_555 1_555
H10 C13 1_555 1_555
H11 C13 1_555 1_555
C14 O6 1_555 1_555
C18 H16 1_555 1_555
C21 O7 1_555 1_555
C23 C14 1_555 1_555
H20 C23 1_555 1_555
O10 C56 1_555 1_555
O49 C46 1_555 1_555
O35 C46 1_555 1_555
C46 C12 1_555 1_555
O38 C56 1_555 1_555
C56 C81 1_555 1_555
C72 C14 1_555 1_555
O39 C86 1_555 1_555
C81 C92 1_555 1_555
H61 C86 1_555 1_555
C87 C12 1_555 1_555
C89 H64 1_555 1_555
C92 C89 1_555 1_555
H67 C92 1_555 1_555
C93 O39 1_555 1_555
C94 C93 1_555 1_555
H68 C94 1_555 1_555
C99 C81 1_555 1_555
H72 C99 1_555 1_555
C18 C23 1_555 1_555
C72 C87 1_555 1_555
C89 C93 1_555 1_555
C94 C99 1_555 1_555
Cd10 O9 1_555 1_555
O9 Cd16 1_555 1_555
O18 Cd10 1_555 1_555
C32 H28 1_555 1_555
C55 O9 1_555 1_555
C80 C32 1_555 1_555
C96 C5 1_555 1_555
H69 C96 1_555 1_555
O18 C55 1_555 1_555
C32 C40 1_555 1_555
C55 C80 1_555 1_555
C80 C96 1_555 1_555

#END
