
###############################################################################
#
# This file contains modified crystal structure data generated from the
# MOF subset of the Cambridge Structural Database (CSD) v543 
# hosted by the Cambridge Crystallographic Data Centre (CCDC).
#
# This work is licensed under the Creative Commons
# Attribution-NonCommercial-ShareAlike 4.0 International License.
# To view a copy of this license, visit
# http://creativecommons.org/licenses/by-nc-sa/4.0/
# or send a letter to
# Creative Commons, PO Box 1866, Mountain View, CA 94042, USA.
#
# CIF created using the CSD Python API on 29 September 2022
# The structure has been converted into the P1 space group
# The structure has a 3D framework
# The original CSD entry AROHOH is in the monoclinic crystal system
# The framework has been calculated to contain at least 10.0% void space
# The void calculation uses a probe of radius 1.32A, grid spacing 0.4
#
###############################################################################

data_AROHOH
_chemical_formula_moiety         '(C344 H216 N24 O112 S4 Zn32)n'
_symmetry_cell_setting           triclinic
_symmetry_space_group_name_H-M   'P 1'
_symmetry_Int_Tables_number      1
_space_group_name_Hall           'P 1'
loop_
_symmetry_equiv_pos_site_id
_symmetry_equiv_pos_as_xyz
1 x,y,z
_cell_length_a                   22.8220(15)
_cell_length_b                   24.2194(18)
_cell_length_c                   33.1182(18)
_cell_angle_alpha                90
_cell_angle_beta                 104.328(3)
_cell_angle_gamma                90
_cell_volume                     17736.2
loop_
_atom_site_label
_atom_site_type_symbol
_atom_site_fract_x
_atom_site_fract_y
_atom_site_fract_z
O15 O 0.00932(9) 0.16976(8) 0.70149(6)
Zn18 Zn 0.07731(2) 0.22552(2) 0.70832(2)
C80 C 0.02409(13) 0.25905(12) 0.02106(9)
H36 H 0.0667 0.1944 0.0013
C84 C 0.02320(13) 0.23828(12) 0.06358(9)
O24 O 0.06254(9) 0.20327(8) 0.07893(6)
Zn13 Zn 0.10927(2) 0.20221(2) 0.13881(2)
C71 C 0.05537(13) 0.26090(12) 0.88913(9)
C72 C 0.06612(13) 0.25623(12) 0.84978(9)
H31 H 0.0861 0.2256 0.8428
C73 C 0.04672(13) 0.29759(12) 0.82135(9)
C74 C 0.01817(13) 0.34380(12) 0.83241(9)
H32 H 0.0055 0.3718 0.8130
C75 C 0.00813(13) 0.34892(12) 0.87200(9)
C76 C 0.02663(13) 0.30730(12) 0.90036(9)
C77 C 0.02313(13) 0.29977(12) 0.94308(9)
C81 C 0.04937(13) 0.22869(12) 0.99334(9)
C82 C 0.04879(14) 0.24934(12) 0.95437(9)
C83 C 0.05349(13) 0.29190(12) 0.77724(9)
C85 C 0.23896(14) 0.23588(12) 0.76567(9)
H37 H 0.2184 0.2582 0.7818
H38 H 0.2815 0.2357 0.7787
H39 H 0.2237 0.1988 0.7642
C86 C 0.26767(12) 0.32958(12) 0.72517(9)
H40 H 0.2523 0.3559 0.7035
H41 H 0.3099 0.3233 0.7273
H42 H 0.2626 0.3436 0.7512
N6 N 0.07181(11) 0.22683(10) 0.92245(7)
H48 H 0.0925 0.1969 0.9238
O21 O 0.03366(9) 0.33335(8) 0.75535(6)
O22 O 0.07465(9) 0.24999(8) 0.76564(6)
O25 O 0.16139(9) 0.28599(8) 0.70486(6)
O27 O 0.04500(8) 0.28417(7) 0.66985(6)
O30 O 0.19266(9) 0.29409(8) 0.62355(6)
H53 H 0.2025 0.2564 0.6189
H54 H 0.2221 0.3091 0.6454
S1 S 0.22617(3) 0.26436(3) 0.71289(2)
Zn5 Zn 0.10927(2) 0.29779(2) 0.63881(2)
Zn7 Zn 0.03161(2) 0.34970(2) 0.69813(2)
O33 O 0.11338(9) 0.20531(8) 0.63590(6)
O34 O 0.13575(9) 0.16929(8) 0.69616(6)
O35 O 0.12112(9) 0.38125(8) 0.64458(6)
O36 O 0.08563(8) 0.41086(8) 0.69786(6)
O40 O 0.06254(9) 0.29673(8) 0.57893(6)
C15 C 0.33914(13) 0.01250(12) 0.65243(9)
C19 C 0.34306(13) 0.01567(11) 0.58065(9)
H9 H 0.3286 0.0306 0.5542
C20 C 0.31903(13) 0.03445(11) 0.61329(9)
C21 C 0.26999(13) 0.07064(12) 0.61701(9)
C22 C 0.23210(13) 0.10467(12) 0.59052(9)
H10 H 0.2336 0.1064 0.5627
C23 C 0.19030(13) 0.13753(12) 0.60461(9)
H11 H 0.1641 0.1602 0.5857
C24 C 0.18707(12) 0.13697(11) 0.64610(9)
C25 C 0.22576(13) 0.10384(12) 0.67318(9)
H12 H 0.2251 0.1031 0.7011
C26 C 0.26714(13) 0.07035(12) 0.65874(9)
C28 C 0.14212(13) 0.17234(12) 0.66118(9)
C49 C 0.86805(13) 0.00984(12) 0.68433(9)
C50 C 0.92879(13) 0.01497(12) 0.70204(9)
C51 C 0.95752(13) 0.06518(11) 0.70064(9)
H23 H 0.9988 0.0683 0.7127
C52 C 0.92601(13) 0.11000(12) 0.68175(9)
C53 C 0.86561(12) 0.10505(12) 0.66419(8)
H24 H 0.8437 0.1354 0.6514
C54 C 0.83676(12) 0.05521(11) 0.66528(9)
C56 C 0.95902(13) 0.16290(12) 0.67837(9)
N2 N 0.30962(11) 0.03509(10) 0.68097(8)
H44 H 0.3168 0.0281 0.7072
N4 N 0.77804(11) 0.04042(10) 0.65080(7)
H46 H 0.7492 0.0621 0.6385
O16 O 0.93398(9) 0.19745(8) 0.65277(6)
Zn14 Zn 0.97144(2) 0.26161(2) 0.63433(2)
C79 C 0.99752(13) 0.30991(12) 0.00925(9)
H35 H 0.9800 0.3298 0.0273
O23 O 0.98307(9) 0.25665(8) 0.07877(6)
Zn15 Zn 0.97144(2) 0.23839(2) 0.13433(2)
C1 C 0.54932(13) 0.75329(12) 0.41926(9)
C2 C 0.53370(13) 0.75355(12) 0.45771(9)
H1 H 0.5057 0.7285 0.4631
C3 C 0.56046(13) 0.79108(12) 0.48674(9)
C4 C 0.60286(13) 0.82838(12) 0.47838(9)
H2 H 0.6205 0.8540 0.4986
C5 C 0.61942(13) 0.82820(12) 0.44038(8)
H3 H 0.6481 0.8529 0.4354
C6 C 0.59206(13) 0.79048(12) 0.41051(9)
C7 C 0.59663(13) 0.78105(11) 0.36852(9)
C8 C 0.63173(13) 0.80267(12) 0.34289(9)
H4 H 0.6613 0.8288 0.3537
C9 C 0.62309(12) 0.78578(11) 0.30200(9)
H5 H 0.6468 0.7996 0.2852
C10 C 0.57856(12) 0.74805(11) 0.28721(8)
C11 C 0.54271(13) 0.72597(12) 0.31270(9)
H6 H 0.5127 0.7002 0.3019
C12 C 0.55239(13) 0.74272(12) 0.35347(9)
C13 C 0.54647(13) 0.78863(13) 0.52885(9)
C14 C 0.56812(13) 0.73174(11) 0.24273(8)
C16 C 0.38349(13) 0.97204(12) 0.65855(9)
H7 H 0.3975 0.9565 0.6849
C17 C 0.40767(13) 0.95416(12) 0.62563(8)
C18 C 0.38760(13) 0.97565(11) 0.58661(9)
H8 H 0.4033 0.9638 0.5647
C27 C 0.45250(13) 0.90765(11) 0.63140(9)
C29 C 0.30600(13) 0.58110(12) 0.65376(9)
C30 C 0.34957(13) 0.61496(12) 0.64278(9)
H13 H 0.3676 0.6042 0.6217
C31 C 0.36532(13) 0.66395(13) 0.66335(9)
C32 C 0.33672(13) 0.68010(12) 0.69512(9)
H14 H 0.3474 0.7134 0.7090
C33 C 0.29282(13) 0.64681(12) 0.70588(9)
H15 H 0.2744 0.6578 0.7266
C34 C 0.27722(13) 0.59724(12) 0.68518(9)
C35 C 0.23921(13) 0.55246(12) 0.68901(9)
C36 C 0.20176(13) 0.54188(12) 0.71675(9)
H16 H 0.2030 0.5655 0.7391
C37 C 0.16344(13) 0.49657(12) 0.71068(9)
H17 H 0.1387 0.4898 0.7286
C38 C 0.16261(13) 0.46172(12) 0.67761(8)
C39 C 0.20081(12) 0.47228(12) 0.65024(9)
H18 H 0.2002 0.4484 0.6282
C40 C 0.23834(13) 0.51728(11) 0.65613(8)
C41 C 0.41280(14) 0.70072(13) 0.65198(9)
C42 C 0.12100(12) 0.41362(12) 0.67344(9)
C43 C 0.77214(12) 0.98770(12) 0.65846(9)
C44 C 0.72134(13) 0.95451(12) 0.64873(9)
H19 H 0.6845 0.9697 0.6347
C45 C 0.72415(12) 0.89901(12) 0.65950(9)
C46 C 0.77815(12) 0.87651(12) 0.68008(9)
H20 H 0.7806 0.8395 0.6877
C47 C 0.82914(13) 0.90942(12) 0.68940(9)
H21 H 0.8661 0.8942 0.7032
C48 C 0.82609(12) 0.96495(12) 0.67850(9)
H22 H 0.9508 0.9848 0.7150
C55 C 0.66945(13) 0.86365(12) 0.65031(9)
C57 C 0.73446(13) 0.54841(12) 0.64205(9)
C58 C 0.70472(13) 0.59720(12) 0.64523(9)
H25 H 0.7244 0.6251 0.6627
C59 C 0.64622(13) 0.60456(12) 0.62260(9)
C60 C 0.61941(13) 0.56319(12) 0.59700(9)
H26 H 0.5799 0.5677 0.5813
C61 C 0.64947(13) 0.51454(12) 0.59370(9)
H27 H 0.6298 0.4868 0.5760
C62 C 0.70727(12) 0.50674(12) 0.61591(9)
C63 C 0.75225(13) 0.46327(12) 0.61880(9)
C64 C 0.75446(13) 0.41305(12) 0.59951(9)
H28 H 0.7206 0.4007 0.5798
C65 C 0.80607(13) 0.38060(12) 0.60890(9)
H29 H 0.8070 0.3472 0.5952
C66 C 0.85505(13) 0.39790(12) 0.63814(9)
C67 C 0.85263(13) 0.44841(12) 0.65757(9)
H30 H 0.8864 0.4607 0.6775
C68 C 0.80127(13) 0.48074(11) 0.64801(9)
C69 C 0.61289(14) 0.65690(12) 0.62484(9)
C70 C 0.90896(13) 0.36208(12) 0.64969(9)
H33 H 0.9891 0.3801 0.8791
C78 C 0.99744(13) 0.33064(13) 0.97058(9)
H34 H 0.9804 0.3650 0.9625
N1 N 0.52417(11) 0.72416(10) 0.38472(7)
H43 H 0.4966 0.6993 0.3821
N3 N 0.27915(10) 0.53401(10) 0.63324(7)
H45 H 0.2861 0.5187 0.6115
N5 N 0.79104(11) 0.53307(10) 0.66137(7)
H47 H 0.8166 0.5526 0.6791
O1 O 0.50892(9) 0.75540(8) 0.53523(6)
O2 O 0.57476(9) 0.82371(8) 0.55379(6)
O3 O 0.60677(8) 0.74870(8) 0.22346(6)
O4 O 0.52300(9) 0.70337(8) 0.22727(6)
O5 O 0.48522(9) 0.90579(8) 0.60446(6)
O6 O 0.45602(9) 0.87783(8) 0.66198(6)
O9 O 0.43763(9) 0.68524(8) 0.62374(6)
O10 O 0.42047(9) 0.74394(9) 0.67305(6)
O13 O 0.62199(9) 0.88313(8) 0.62894(6)
O14 O 0.67365(8) 0.81590(8) 0.66542(6)
O17 O 0.56060(9) 0.65821(8) 0.60453(6)
O18 O 0.64232(9) 0.69107(8) 0.64862(6)
O19 O 0.90914(8) 0.31819(8) 0.62958(6)
O20 O 0.95108(9) 0.37902(8) 0.67682(6)
O26 O 0.53317(8) 0.78190(7) 0.63290(6)
O28 O 0.44385(9) 0.67023(8) 0.55227(6)
H49 H 0.4711 0.6397 0.5562
H50 H 0.4417 0.6926 0.5281
O29 O 0.43034(9) 0.78749(8) 0.58101(6)
H51 H 0.4477 0.8202 0.5721
H52 H 0.4151 0.7954 0.6053
Zn1 Zn 0.49826(2) 0.72375(2) 0.59420(2)
Zn2 Zn 0.54483(2) 0.84790(2) 0.60319(2)
Zn3 Zn 0.47805(2) 0.79930(2) 0.66862(2)
Zn4 Zn 0.61033(2) 0.76121(2) 0.66568(2)
O31 O 0.60677(8) 0.75130(8) 0.72346(6)
O32 O 0.52300(9) 0.79663(8) 0.72727(6)
O39 O 0.98307(9) 0.24335(8) 0.57877(6)
Zn9 Zn 0.47805(2) 0.70070(2) 0.16862(2)
Zn10 Zn 0.61033(2) 0.73879(2) 0.16568(2)
C71_2 C 0.05537(13) 0.23910(12) 0.38913(9)
C72_2 C 0.06612(13) 0.24377(12) 0.34978(9)
H31_2 H 0.0861 0.2744 0.3428
C73_2 C 0.04672(13) 0.20241(12) 0.32135(9)
C74_2 C 0.01817(13) 0.15620(12) 0.33241(9)
H32_2 H 0.0055 0.1282 0.3130
C75_2 C 0.00813(13) 0.15108(12) 0.37200(9)
C76_2 C 0.02663(13) 0.19270(12) 0.40036(9)
C77_2 C 0.02313(13) 0.20023(12) 0.44308(9)
C80_2 C 0.02409(13) 0.24095(12) 0.52106(9)
C81_2 C 0.04937(13) 0.27131(12) 0.49334(9)
H36_2 H 0.0667 0.3056 0.5013
C82_2 C 0.04879(14) 0.25066(12) 0.45437(9)
C83_2 C 0.05349(13) 0.20810(12) 0.27724(9)
C84_2 C 0.02320(13) 0.26172(12) 0.56358(9)
C85_2 C 0.23896(14) 0.26412(12) 0.26567(9)
H37_2 H 0.2184 0.2418 0.2818
H38_2 H 0.2815 0.2643 0.2787
H39_2 H 0.2237 0.3012 0.2642
C86_2 C 0.26767(12) 0.17042(12) 0.22517(9)
H40_2 H 0.2523 0.1441 0.2035
H41_2 H 0.3099 0.1767 0.2273
H42_2 H 0.2626 0.1564 0.2512
N6_2 N 0.07181(11) 0.27317(10) 0.42245(7)
H48_2 H 0.0925 0.3031 0.4238
O21_2 O 0.03366(9) 0.16665(8) 0.25535(6)
O22_2 O 0.07465(9) 0.25001(8) 0.26564(6)
O25_2 O 0.16139(9) 0.21401(8) 0.20486(6)
O27_2 O 0.04500(8) 0.21583(7) 0.16985(6)
O30_2 O 0.19266(9) 0.20591(8) 0.12355(6)
H53_2 H 0.2025 0.2436 0.1189
H54_2 H 0.2221 0.1909 0.1454
S1_2 S 0.22617(3) 0.23564(3) 0.21289(2)
Zn7_2 Zn 0.03161(2) 0.15030(2) 0.19813(2)
Zn8 Zn 0.07731(2) 0.27448(2) 0.20832(2)
O33_2 O 0.11338(9) 0.29469(8) 0.13590(6)
O34_2 O 0.13575(9) 0.33071(8) 0.19616(6)
O35_2 O 0.12112(9) 0.11875(8) 0.14458(6)
O36_2 O 0.08563(8) 0.08914(8) 0.19786(6)
O37 O 0.00932(9) 0.33024(8) 0.20149(6)
C37_2 C 0.16344(13) 0.00343(12) 0.21068(9)
H17_2 H 0.1387 0.0102 0.2286
C38_2 C 0.16261(13) 0.03828(12) 0.17761(8)
C39_2 C 0.20081(12) 0.02772(12) 0.15024(9)
H18_2 H 0.2002 0.0516 0.1282
C42_2 C 0.12100(12) 0.08638(12) 0.17344(9)
H27_2 H 0.6298 0.0132 0.0760
C63_2 C 0.75225(13) 0.03673(12) 0.11880(9)
C64_2 C 0.75446(13) 0.08695(12) 0.09951(9)
H28_2 H 0.7206 0.0993 0.0798
C65_2 C 0.80607(13) 0.11940(12) 0.10890(9)
H29_2 H 0.8070 0.1528 0.0952
C66_2 C 0.85505(13) 0.10210(12) 0.13814(9)
C67_2 C 0.85263(13) 0.05159(12) 0.15757(9)
H30_2 H 0.8864 0.0393 0.1775
C68_2 C 0.80127(13) 0.01926(11) 0.14801(9)
C70_2 C 0.90896(13) 0.13792(12) 0.14969(9)
H33_2 H 0.9891 0.1199 0.3791
C78_2 C 0.99744(13) 0.16936(13) 0.47058(9)
H34_2 H 0.9804 0.1350 0.4625
C79_2 C 0.99752(13) 0.19009(12) 0.50925(9)
H35_2 H 0.9800 0.1702 0.5273
O19_2 O 0.90914(8) 0.18181(8) 0.12958(6)
O20_2 O 0.95108(9) 0.12098(8) 0.17682(6)
O38 O 0.93398(9) 0.30255(8) 0.15277(6)
C13_2 C 0.54647(13) 0.71137(13) 0.02885(9)
C15_2 C 0.33914(13) 0.48750(12) 0.15243(9)
C16_2 C 0.38349(13) 0.52796(12) 0.15855(9)
H7_2 H 0.3975 0.5435 0.1849
C17_2 C 0.40767(13) 0.54584(12) 0.12563(8)
C18_2 C 0.38760(13) 0.52435(11) 0.08661(9)
H8_2 H 0.4033 0.5362 0.0647
C19_2 C 0.34306(13) 0.48433(11) 0.08065(9)
H9_2 H 0.3286 0.4694 0.0542
C20_2 C 0.31903(13) 0.46555(11) 0.11329(9)
C21_2 C 0.26999(13) 0.42936(12) 0.11701(9)
C22_2 C 0.23210(13) 0.39533(12) 0.09052(9)
H10_2 H 0.2336 0.3936 0.0627
C23_2 C 0.19030(13) 0.36247(12) 0.10461(9)
H11_2 H 0.1641 0.3398 0.0857
C24_2 C 0.18707(12) 0.36303(11) 0.14610(9)
C25_2 C 0.22576(13) 0.39616(12) 0.17318(9)
H12_2 H 0.2251 0.3969 0.2011
C26_2 C 0.26714(13) 0.42965(12) 0.15874(9)
C27_2 C 0.45250(13) 0.59235(11) 0.13140(9)
C28_2 C 0.14212(13) 0.32766(12) 0.16118(9)
C29_2 C 0.30600(13) 0.91890(12) 0.15376(9)
C30_2 C 0.34957(13) 0.88504(12) 0.14278(9)
H13_2 H 0.3676 0.8958 0.1217
C31_2 C 0.36532(13) 0.83605(13) 0.16335(9)
C32_2 C 0.33672(13) 0.81990(12) 0.19512(9)
H14_2 H 0.3474 0.7866 0.2090
C33_2 C 0.29282(13) 0.85319(12) 0.20588(9)
H15_2 H 0.2744 0.8422 0.2266
C34_2 C 0.27722(13) 0.90276(12) 0.18518(9)
C35_2 C 0.23921(13) 0.94754(12) 0.18901(9)
C36_2 C 0.20176(13) 0.95812(12) 0.21675(9)
H16_2 H 0.2030 0.9345 0.2391
C40_2 C 0.23834(13) 0.98272(11) 0.15613(8)
C41_2 C 0.41280(14) 0.79928(13) 0.15198(9)
C43_2 C 0.77214(12) 0.51230(12) 0.15846(9)
C44_2 C 0.72134(13) 0.54549(12) 0.14873(9)
H19_2 H 0.6845 0.5303 0.1347
C45_2 C 0.72415(12) 0.60099(12) 0.15950(9)
C46_2 C 0.77815(12) 0.62349(12) 0.18008(9)
H20_2 H 0.7806 0.6605 0.1877
C47_2 C 0.82914(13) 0.59058(12) 0.18940(9)
H21_2 H 0.8661 0.6058 0.2032
C48_2 C 0.82609(12) 0.53505(12) 0.17850(9)
C49_2 C 0.86805(13) 0.49016(12) 0.18433(9)
C50_2 C 0.92879(13) 0.48503(12) 0.20204(9)
H22_2 H 0.9508 0.5152 0.2150
C51_2 C 0.95752(13) 0.43482(11) 0.20064(9)
H23_2 H 0.9988 0.4317 0.2127
C52_2 C 0.92601(13) 0.39000(12) 0.18175(9)
C53_2 C 0.86561(12) 0.39495(12) 0.16419(8)
H24_2 H 0.8437 0.3646 0.1514
C54_2 C 0.83676(12) 0.44479(11) 0.16528(9)
C55_2 C 0.66945(13) 0.63635(12) 0.15031(9)
C56_2 C 0.95902(13) 0.33710(12) 0.17837(9)
C57_2 C 0.73446(13) 0.95159(12) 0.14205(9)
C58_2 C 0.70472(13) 0.90280(12) 0.14523(9)
H25_2 H 0.7244 0.8749 0.1627
C59_2 C 0.64622(13) 0.89544(12) 0.12260(9)
C60_2 C 0.61941(13) 0.93681(12) 0.09700(9)
H26_2 H 0.5799 0.9323 0.0813
C61_2 C 0.64947(13) 0.98546(12) 0.09370(9)
C62_2 C 0.70727(12) 0.99326(12) 0.11591(9)
C69_2 C 0.61289(14) 0.84310(12) 0.12484(9)
N2_2 N 0.30962(11) 0.46491(10) 0.18097(8)
H44_2 H 0.3168 0.4719 0.2072
N3_2 N 0.27915(10) 0.96599(10) 0.13324(7)
H45_2 H 0.2861 0.9813 0.1115
N4_2 N 0.77804(11) 0.45958(10) 0.15080(7)
H46_2 H 0.7492 0.4379 0.1385
N5_2 N 0.79104(11) 0.96693(10) 0.16137(7)
H47_2 H 0.8166 0.9474 0.1791
O1_2 O 0.50892(9) 0.74460(8) 0.03523(6)
O2_2 O 0.57476(9) 0.67629(8) 0.05379(6)
O5_2 O 0.48522(9) 0.59421(8) 0.10446(6)
O6_2 O 0.45602(9) 0.62217(8) 0.16198(6)
O9_2 O 0.43763(9) 0.81476(8) 0.12374(6)
O10_2 O 0.42047(9) 0.75606(9) 0.17305(6)
O13_2 O 0.62199(9) 0.61687(8) 0.12894(6)
O14_2 O 0.67365(8) 0.68410(8) 0.16542(6)
O17_2 O 0.56060(9) 0.84179(8) 0.10453(6)
O18_2 O 0.64232(9) 0.80893(8) 0.14862(6)
O26_2 O 0.53317(8) 0.71810(7) 0.13290(6)
O28_2 O 0.44385(9) 0.82977(8) 0.05227(6)
H49_2 H 0.4711 0.8603 0.0562
H50_2 H 0.4417 0.8074 0.0281
O29_2 O 0.43034(9) 0.71251(8) 0.08101(6)
H51_2 H 0.4477 0.6798 0.0721
H52_2 H 0.4151 0.7046 0.1053
Zn1_2 Zn 0.49826(2) 0.77625(2) 0.09420(2)
Zn2_2 Zn 0.54483(2) 0.65210(2) 0.10319(2)
C1_2 C 0.54932(13) 0.74671(12) 0.91926(9)
C2_2 C 0.53370(13) 0.74645(12) 0.95771(9)
H1_2 H 0.5057 0.7715 0.9631
C3_2 C 0.56046(13) 0.70892(12) 0.98674(9)
C4_2 C 0.60286(13) 0.67162(12) 0.97838(9)
H2_2 H 0.6205 0.6460 0.9986
C5_2 C 0.61942(13) 0.67180(12) 0.94038(8)
H3_2 H 0.6481 0.6471 0.9354
C6_2 C 0.59206(13) 0.70952(12) 0.91051(9)
C7_2 C 0.59663(13) 0.71895(11) 0.86852(9)
C8_2 C 0.63173(13) 0.69733(12) 0.84289(9)
H4_2 H 0.6613 0.6712 0.8537
C9_2 C 0.62309(12) 0.71422(11) 0.80200(9)
H5_2 H 0.6468 0.7004 0.7852
C10_2 C 0.57856(12) 0.75195(11) 0.78721(8)
C11_2 C 0.54271(13) 0.77403(12) 0.81270(9)
H6_2 H 0.5127 0.7998 0.8019
C12_2 C 0.55239(13) 0.75728(12) 0.85347(9)
C14_2 C 0.56812(13) 0.76826(11) 0.74273(8)
N1_2 N 0.52417(11) 0.77584(10) 0.88472(7)
H43_2 H 0.4966 0.8007 0.8821
C1_3 C 0.45068(13) 0.25329(12) 0.08074(9)
C2_3 C 0.46630(13) 0.25355(12) 0.04229(9)
H1_3 H 0.4943 0.2285 0.0369
C3_3 C 0.43954(13) 0.29108(12) 0.01326(9)
C4_3 C 0.39714(13) 0.32838(12) 0.02162(9)
H2_3 H 0.3795 0.3540 0.0014
C5_3 C 0.38058(13) 0.32820(12) 0.05962(8)
H3_3 H 0.3519 0.3529 0.0646
C6_3 C 0.40794(13) 0.29048(12) 0.08949(9)
C7_3 C 0.40337(13) 0.28105(11) 0.13148(9)
C8_3 C 0.36827(13) 0.30267(12) 0.15711(9)
H4_3 H 0.3387 0.3288 0.1463
C9_3 C 0.37691(12) 0.28578(11) 0.19800(9)
H5_3 H 0.3532 0.2996 0.2148
C10_3 C 0.42144(12) 0.24805(11) 0.21279(8)
C11_3 C 0.45729(13) 0.22597(12) 0.18730(9)
H6_3 H 0.4873 0.2002 0.1981
C12_3 C 0.44761(13) 0.24272(12) 0.14653(9)
C14_3 C 0.43188(13) 0.23174(11) 0.25727(8)
N1_3 N 0.47583(11) 0.22416(10) 0.11528(7)
H43_3 H 0.5034 0.1993 0.1179
O3_2 O 0.39323(8) 0.24870(8) 0.27654(6)
O4_2 O 0.47700(9) 0.20337(8) 0.27273(6)
Zn9_2 Zn 0.52195(2) 0.20070(2) 0.33138(2)
Zn10_2 Zn 0.38967(2) 0.23879(2) 0.33432(2)
C13_3 C 0.45353(13) 0.28863(13) 0.97115(9)
C15_3 C 0.66086(13) 0.51250(12) 0.84757(9)
C16_3 C 0.61651(13) 0.47204(12) 0.84145(9)
H7_3 H 0.6025 0.4565 0.8151
C17_3 C 0.59233(13) 0.45416(12) 0.87437(8)
C18_3 C 0.61240(13) 0.47565(11) 0.91339(9)
H8_3 H 0.5967 0.4638 0.9353
C19_3 C 0.65694(13) 0.51567(11) 0.91935(9)
H9_3 H 0.6714 0.5306 0.9458
C20_3 C 0.68097(13) 0.53445(11) 0.88671(9)
C21_3 C 0.73001(13) 0.57064(12) 0.88299(9)
C22_3 C 0.76790(13) 0.60467(12) 0.90948(9)
H10_3 H 0.7664 0.6064 0.9373
C23_3 C 0.80970(13) 0.63753(12) 0.89539(9)
H11_3 H 0.8359 0.6602 0.9143
C24_3 C 0.81293(12) 0.63697(11) 0.85390(9)
C25_3 C 0.77424(13) 0.60384(12) 0.82682(9)
H12_3 H 0.7749 0.6031 0.7989
C26_3 C 0.73286(13) 0.57035(12) 0.84126(9)
C27_3 C 0.54750(13) 0.40765(11) 0.86860(9)
C28_3 C 0.85788(13) 0.67234(12) 0.83882(9)
C29_3 C 0.69400(13) 0.08110(12) 0.84624(9)
C30_3 C 0.65043(13) 0.11496(12) 0.85722(9)
H13_3 H 0.6324 0.1042 0.8783
C31_3 C 0.63468(13) 0.16395(13) 0.83665(9)
C32_3 C 0.66328(13) 0.18010(12) 0.80488(9)
H14_3 H 0.6526 0.2134 0.7910
C33_3 C 0.70718(13) 0.14681(12) 0.79412(9)
H15_3 H 0.7256 0.1578 0.7734
C34_3 C 0.72278(13) 0.09724(12) 0.81482(9)
C35_3 C 0.76079(13) 0.05246(12) 0.81099(9)
C36_3 C 0.79824(13) 0.04188(12) 0.78325(9)
H16_3 H 0.7970 0.0655 0.7609
C40_3 C 0.76166(13) 0.01728(11) 0.84387(8)
C41_3 C 0.58720(14) 0.20072(13) 0.84802(9)
C43_3 C 0.22786(12) 0.48770(12) 0.84154(9)
C44_3 C 0.27866(13) 0.45451(12) 0.85127(9)
H19_3 H 0.3155 0.4697 0.8653
C45_3 C 0.27585(12) 0.39901(12) 0.84050(9)
C46_3 C 0.22185(12) 0.37651(12) 0.81992(9)
H20_3 H 0.2194 0.3395 0.8123
C47_3 C 0.17086(13) 0.40942(12) 0.81060(9)
H21_3 H 0.1339 0.3942 0.7968
C48_3 C 0.17391(12) 0.46495(12) 0.82150(9)
C49_3 C 0.13195(13) 0.50984(12) 0.81567(9)
C50_3 C 0.07121(13) 0.51497(12) 0.79796(9)
H22_3 H 0.0492 0.4848 0.7850
C51_3 C 0.04248(13) 0.56518(11) 0.79936(9)
H23_3 H 0.0012 0.5683 0.7873
C52_3 C 0.07399(13) 0.61000(12) 0.81825(9)
C53_3 C 0.13439(12) 0.60505(12) 0.83581(8)
H24_3 H 0.1563 0.6354 0.8486
C54_3 C 0.16324(12) 0.55521(11) 0.83472(9)
C55_3 C 0.33055(13) 0.36365(12) 0.84969(9)
C56_3 C 0.04098(13) 0.66290(12) 0.82163(9)
C57_3 C 0.26554(13) 0.04841(12) 0.85795(9)
C58_3 C 0.29528(13) 0.09720(12) 0.85477(9)
H25_3 H 0.2756 0.1251 0.8373
C59_3 C 0.35378(13) 0.10456(12) 0.87740(9)
C60_3 C 0.38059(13) 0.06319(12) 0.90300(9)
H26_3 H 0.4201 0.0677 0.9187
C61_3 C 0.35053(13) 0.01454(12) 0.90630(9)
C62_3 C 0.29273(12) 0.00674(12) 0.88409(9)
C69_3 C 0.38711(14) 0.15690(12) 0.87516(9)
N2_3 N 0.69038(11) 0.53509(10) 0.81903(8)
H44_3 H 0.6832 0.5281 0.7928
N3_3 N 0.72085(10) 0.03401(10) 0.86676(7)
H45_3 H 0.7139 0.0187 0.8885
N4_3 N 0.22196(11) 0.54042(10) 0.84920(7)
H46_3 H 0.2508 0.5621 0.8615
N5_3 N 0.20896(11) 0.03307(10) 0.83863(7)
H47_3 H 0.1834 0.0526 0.8209
O1_3 O 0.49108(9) 0.25540(8) 0.96477(6)
O2_3 O 0.42524(9) 0.32371(8) 0.94621(6)
O5_3 O 0.51478(9) 0.40579(8) 0.89554(6)
O6_3 O 0.54398(9) 0.37783(8) 0.83802(6)
O7 O 0.88662(9) 0.70531(8) 0.86410(6)
O8 O 0.86425(9) 0.66929(8) 0.80384(6)
O9_3 O 0.56237(9) 0.18524(8) 0.87626(6)
O10_3 O 0.57953(9) 0.24394(9) 0.82695(6)
O13_3 O 0.37801(9) 0.38313(8) 0.87106(6)
O14_3 O 0.32635(8) 0.31590(8) 0.83458(6)
O16_2 O 0.06602(9) 0.69745(8) 0.84723(6)
O17_3 O 0.43940(9) 0.15821(8) 0.89547(6)
O18_3 O 0.35768(9) 0.19107(8) 0.85138(6)
O26_3 O 0.46683(8) 0.28190(7) 0.86710(6)
O28_3 O 0.55615(9) 0.17023(8) 0.94773(6)
H49_3 H 0.5289 0.1397 0.9438
H50_3 H 0.5583 0.1926 0.9719
O29_3 O 0.56966(9) 0.28749(8) 0.91899(6)
H51_3 H 0.5523 0.3202 0.9279
H52_3 H 0.5849 0.2954 0.8947
Zn1_3 Zn 0.50174(2) 0.22375(2) 0.90580(2)
Zn2_3 Zn 0.45517(2) 0.34790(2) 0.89681(2)
Zn3_2 Zn 0.52195(2) 0.29930(2) 0.83138(2)
Zn4_2 Zn 0.38967(2) 0.26121(2) 0.83432(2)
O31_2 O 0.39323(8) 0.25130(8) 0.77654(6)
O32_2 O 0.47700(9) 0.29663(8) 0.77273(6)
Zn12 Zn 0.89073(2) 0.79779(2) 0.86119(2)
Zn14_2 Zn 0.02856(2) 0.76161(2) 0.86567(2)
Zn17 Zn 0.92269(2) 0.72552(2) 0.79168(2)
C37_3 C 0.83656(13) 0.99657(12) 0.78932(9)
H17_3 H 0.8613 0.9898 0.7714
C38_3 C 0.83739(13) 0.96172(12) 0.82239(8)
C39_3 C 0.79919(12) 0.97228(12) 0.84976(9)
H18_3 H 0.7998 0.9484 0.8718
C42_3 C 0.87900(12) 0.91362(12) 0.82656(9)
H27_3 H 0.3702 0.9868 0.9240
C63_3 C 0.24775(13) 0.96327(12) 0.88120(9)
C64_3 C 0.24554(13) 0.91305(12) 0.90049(9)
H28_3 H 0.2794 0.9007 0.9202
C65_3 C 0.19393(13) 0.88060(12) 0.89110(9)
H29_3 H 0.1930 0.8472 0.9048
C66_3 C 0.14495(13) 0.89790(12) 0.86186(9)
C67_3 C 0.14737(13) 0.94841(12) 0.84243(9)
H30_3 H 0.1136 0.9607 0.8225
C68_3 C 0.19873(13) 0.98074(11) 0.85199(9)
C70_3 C 0.09104(13) 0.86208(12) 0.85031(9)
H33_3 H 0.0109 0.8801 0.6209
C78_3 C 0.00256(13) 0.83064(13) 0.52942(9)
H34_3 H 0.0196 0.8650 0.5375
C79_3 C 0.00248(13) 0.80991(12) 0.49075(9)
H35_3 H 0.0200 0.8298 0.4727
O11 O 0.87888(9) 0.88125(8) 0.85542(6)
O12 O 0.91437(8) 0.91086(8) 0.80214(6)
O19_3 O 0.09086(8) 0.81819(8) 0.87042(6)
O20_3 O 0.04892(9) 0.87902(8) 0.82318(6)
O23_2 O 0.01693(9) 0.75665(8) 0.42123(6)
O39_2 O 0.01693(9) 0.74335(8) 0.92123(6)
Zn15_2 Zn 0.02856(2) 0.73839(2) 0.36567(2)
Zn16 Zn 0.96839(2) 0.84970(2) 0.80187(2)
O15_2 O 0.99068(9) 0.66976(8) 0.79851(6)
C71_3 C 0.94463(13) 0.76090(12) 0.61087(9)
C72_3 C 0.93388(13) 0.75623(12) 0.65022(9)
H31_3 H 0.9139 0.7256 0.6572
C73_3 C 0.95328(13) 0.79759(12) 0.67865(9)
C74_3 C 0.98183(13) 0.84380(12) 0.66759(9)
H32_3 H 0.9945 0.8718 0.6870
C75_3 C 0.99187(13) 0.84892(12) 0.62800(9)
C76_3 C 0.97337(13) 0.80730(12) 0.59964(9)
C77_3 C 0.97687(13) 0.79977(12) 0.55692(9)
C80_3 C 0.97591(13) 0.75905(12) 0.47894(9)
C81_3 C 0.95063(13) 0.72869(12) 0.50666(9)
H36_3 H 0.9333 0.6944 0.4987
C82_3 C 0.95121(14) 0.74934(12) 0.54563(9)
C83_3 C 0.94651(13) 0.79190(12) 0.72276(9)
C84_3 C 0.97680(13) 0.73828(12) 0.43642(9)
C85_3 C 0.76104(14) 0.73588(12) 0.73433(9)
H37_3 H 0.7816 0.7582 0.7182
H38_3 H 0.7185 0.7357 0.7213
H39_3 H 0.7763 0.6988 0.7358
C86_3 C 0.73233(12) 0.82958(12) 0.77483(9)
H40_3 H 0.7477 0.8559 0.7965
H41_3 H 0.6901 0.8233 0.7727
H42_3 H 0.7374 0.8436 0.7488
N6_3 N 0.92819(11) 0.72683(10) 0.57755(7)
H48_3 H 0.9075 0.6969 0.5762
O21_3 O 0.96634(9) 0.83335(8) 0.74465(6)
O22_3 O 0.92535(9) 0.74999(8) 0.73436(6)
O24_2 O 0.93746(9) 0.70327(8) 0.42107(6)
O25_3 O 0.83861(9) 0.78599(8) 0.79514(6)
O27_3 O 0.95500(8) 0.78417(7) 0.83015(6)
O30_3 O 0.80734(9) 0.79409(8) 0.87645(6)
H53_3 H 0.7975 0.7564 0.8811
H54_3 H 0.7779 0.8091 0.8546
S1_3 S 0.77383(3) 0.76436(3) 0.78711(2)
O40_2 O 0.93746(9) 0.79673(8) 0.92107(6)
Zn13_2 Zn 0.89073(2) 0.70221(2) 0.36119(2)
C1_4 C 0.45068(13) 0.24671(12) 0.58074(9)
C2_4 C 0.46630(13) 0.24645(12) 0.54229(9)
H1_4 H 0.4943 0.2715 0.5369
C3_4 C 0.43954(13) 0.20892(12) 0.51326(9)
C4_4 C 0.39714(13) 0.17162(12) 0.52162(9)
H2_4 H 0.3795 0.1460 0.5014
C5_4 C 0.38058(13) 0.17180(12) 0.55962(8)
H3_4 H 0.3519 0.1471 0.5646
C6_4 C 0.40794(13) 0.20952(12) 0.58949(9)
C7_4 C 0.40337(13) 0.21895(11) 0.63148(9)
C8_4 C 0.36827(13) 0.19733(12) 0.65711(9)
H4_4 H 0.3387 0.1712 0.6463
C9_4 C 0.37691(12) 0.21422(11) 0.69800(9)
H5_4 H 0.3532 0.2004 0.7148
C10_4 C 0.42144(12) 0.25195(11) 0.71279(8)
C11_4 C 0.45729(13) 0.27403(12) 0.68730(9)
H6_4 H 0.4873 0.2998 0.6981
C12_4 C 0.44761(13) 0.25728(12) 0.64653(9)
C13_4 C 0.45353(13) 0.21137(13) 0.47115(9)
C14_4 C 0.43188(13) 0.26826(11) 0.75727(8)
C16_4 C 0.61651(13) 0.02796(12) 0.34145(9)
H7_4 H 0.6025 0.0435 0.3151
C17_4 C 0.59233(13) 0.04584(12) 0.37437(8)
C18_4 C 0.61240(13) 0.02435(11) 0.41339(9)
H8_4 H 0.5967 0.0362 0.4353
C27_4 C 0.54750(13) 0.09235(11) 0.36860(9)
C29_4 C 0.69400(13) 0.41890(12) 0.34624(9)
C30_4 C 0.65043(13) 0.38504(12) 0.35722(9)
H13_4 H 0.6324 0.3958 0.3783
C31_4 C 0.63468(13) 0.33605(13) 0.33665(9)
C32_4 C 0.66328(13) 0.31990(12) 0.30488(9)
H14_4 H 0.6526 0.2866 0.2910
C33_4 C 0.70718(13) 0.35319(12) 0.29412(9)
H15_4 H 0.7256 0.3422 0.2734
C34_4 C 0.72278(13) 0.40276(12) 0.31482(9)
C35_4 C 0.76079(13) 0.44754(12) 0.31099(9)
C36_4 C 0.79824(13) 0.45812(12) 0.28325(9)
H16_4 H 0.7970 0.4345 0.2609
C37_4 C 0.83656(13) 0.50343(12) 0.28932(9)
H17_4 H 0.8613 0.5102 0.2714
C38_4 C 0.83739(13) 0.53828(12) 0.32239(8)
C39_4 C 0.79919(12) 0.52772(12) 0.34976(9)
H18_4 H 0.7998 0.5516 0.3718
C40_4 C 0.76166(13) 0.48272(11) 0.34387(8)
C41_4 C 0.58720(14) 0.29928(13) 0.34802(9)
C42_4 C 0.87900(12) 0.58638(12) 0.32656(9)
C43_4 C 0.22786(12) 0.01230(12) 0.34154(9)
C44_4 C 0.27866(13) 0.04549(12) 0.35127(9)
H19_4 H 0.3155 0.0303 0.3653
C45_4 C 0.27585(12) 0.10099(12) 0.34050(9)
C46_4 C 0.22185(12) 0.12349(12) 0.31992(9)
H20_4 H 0.2194 0.1605 0.3123
C47_4 C 0.17086(13) 0.09058(12) 0.31060(9)
H21_4 H 0.1339 0.1058 0.2968
C48_4 C 0.17391(12) 0.03505(12) 0.32150(9)
H22_4 H 0.0492 0.0152 0.2850
C55_4 C 0.33055(13) 0.13635(12) 0.34969(9)
C57_4 C 0.26554(13) 0.45159(12) 0.35795(9)
C58_4 C 0.29528(13) 0.40280(12) 0.35477(9)
H25_4 H 0.2756 0.3749 0.3373
C59_4 C 0.35378(13) 0.39544(12) 0.37740(9)
C60_4 C 0.38059(13) 0.43681(12) 0.40300(9)
H26_4 H 0.4201 0.4323 0.4187
C61_4 C 0.35053(13) 0.48546(12) 0.40630(9)
H27_4 H 0.3702 0.5132 0.4240
C62_4 C 0.29273(12) 0.49326(12) 0.38409(9)
C63_4 C 0.24775(13) 0.53673(12) 0.38120(9)
C64_4 C 0.24554(13) 0.58695(12) 0.40049(9)
H28_4 H 0.2794 0.5993 0.4202
C65_4 C 0.19393(13) 0.61940(12) 0.39110(9)
H29_4 H 0.1930 0.6528 0.4048
C66_4 C 0.14495(13) 0.60210(12) 0.36186(9)
C67_4 C 0.14737(13) 0.55159(12) 0.34243(9)
H30_4 H 0.1136 0.5393 0.3225
C68_4 C 0.19873(13) 0.51926(11) 0.35199(9)
C69_4 C 0.38711(14) 0.34310(12) 0.37516(9)
C70_4 C 0.09104(13) 0.63792(12) 0.35031(9)
H33_4 H 0.0109 0.6199 0.1209
C78_4 C 0.00256(13) 0.66936(13) 0.02942(9)
H34_4 H 0.0196 0.6350 0.0375
N1_4 N 0.47583(11) 0.27584(10) 0.61528(7)
H43_4 H 0.5034 0.3007 0.6179
N3_4 N 0.72085(10) 0.46599(10) 0.36676(7)
H45_4 H 0.7139 0.4813 0.3885
N5_4 N 0.20896(11) 0.46693(10) 0.33863(7)
H47_4 H 0.1834 0.4474 0.3209
O1_4 O 0.49108(9) 0.24460(8) 0.46477(6)
O2_4 O 0.42524(9) 0.17629(8) 0.44621(6)
O5_4 O 0.51478(9) 0.09421(8) 0.39554(6)
O6_4 O 0.54398(9) 0.12217(8) 0.33802(6)
O9_4 O 0.56237(9) 0.31476(8) 0.37626(6)
O10_4 O 0.57953(9) 0.25606(9) 0.32695(6)
O11_2 O 0.87888(9) 0.61875(8) 0.35542(6)
O12_2 O 0.91437(8) 0.58914(8) 0.30214(6)
O13_4 O 0.37801(9) 0.11687(8) 0.37106(6)
O14_4 O 0.32635(8) 0.18410(8) 0.33458(6)
O17_4 O 0.43940(9) 0.34179(8) 0.39547(6)
O18_4 O 0.35768(9) 0.30893(8) 0.35138(6)
O19_4 O 0.09086(8) 0.68181(8) 0.37042(6)
O20_4 O 0.04892(9) 0.62098(8) 0.32318(6)
O26_4 O 0.46683(8) 0.21810(7) 0.36710(6)
O28_4 O 0.55615(9) 0.32977(8) 0.44773(6)
H49_4 H 0.5289 0.3603 0.4438
H50_4 H 0.5583 0.3074 0.4719
O29_4 O 0.56966(9) 0.21251(8) 0.41899(6)
H51_4 H 0.5523 0.1798 0.4279
H52_4 H 0.5849 0.2046 0.3947
Zn1_4 Zn 0.50174(2) 0.27625(2) 0.40580(2)
Zn2_4 Zn 0.45517(2) 0.15210(2) 0.39681(2)
O38_2 O 0.06602(9) 0.80255(8) 0.34723(6)
Zn16_2 Zn 0.96839(2) 0.65030(2) 0.30187(2)
C79_4 C 0.00248(13) 0.69009(12) 0.99075(9)
H35_4 H 0.0200 0.6702 0.9727
C15_4 C 0.66086(13) 0.98750(12) 0.34757(9)
C19_4 C 0.65694(13) 0.98433(11) 0.41935(9)
H9_4 H 0.6714 0.9694 0.4458
C20_4 C 0.68097(13) 0.96555(11) 0.38671(9)
C21_4 C 0.73001(13) 0.92936(12) 0.38299(9)
C22_4 C 0.76790(13) 0.89533(12) 0.40948(9)
H10_4 H 0.7664 0.8936 0.4373
C23_4 C 0.80970(13) 0.86247(12) 0.39539(9)
H11_4 H 0.8359 0.8398 0.4143
C24_4 C 0.81293(12) 0.86303(11) 0.35390(9)
C25_4 C 0.77424(13) 0.89616(12) 0.32682(9)
H12_4 H 0.7749 0.8969 0.2989
C26_4 C 0.73286(13) 0.92965(12) 0.34126(9)
C28_4 C 0.85788(13) 0.82766(12) 0.33882(9)
C49_4 C 0.13195(13) 0.99016(12) 0.31567(9)
C50_4 C 0.07121(13) 0.98503(12) 0.29796(9)
C51_4 C 0.04248(13) 0.93482(11) 0.29936(9)
H23_4 H 0.0012 0.9317 0.2873
C52_4 C 0.07399(13) 0.89000(12) 0.31825(9)
C53_4 C 0.13439(12) 0.89495(12) 0.33581(8)
H24_4 H 0.1563 0.8646 0.3486
C54_4 C 0.16324(12) 0.94479(11) 0.33472(9)
C56_4 C 0.04098(13) 0.83710(12) 0.32163(9)
N2_4 N 0.69038(11) 0.96491(10) 0.31903(8)
H44_4 H 0.6832 0.9719 0.2928
N4_4 N 0.22196(11) 0.95958(10) 0.34920(7)
H46_4 H 0.2508 0.9379 0.3615
O7_2 O 0.88662(9) 0.79469(8) 0.36410(6)
O8_2 O 0.86425(9) 0.83071(8) 0.30384(6)
Zn17_2 Zn 0.92269(2) 0.77448(2) 0.29168(2)
C71_4 C 0.94463(13) 0.73910(12) 0.11087(9)
C72_4 C 0.93388(13) 0.74377(12) 0.15022(9)
H31_4 H 0.9139 0.7744 0.1572
C73_4 C 0.95328(13) 0.70241(12) 0.17865(9)
C74_4 C 0.98183(13) 0.65620(12) 0.16759(9)
H32_4 H 0.9945 0.6282 0.1870
C75_4 C 0.99187(13) 0.65108(12) 0.12800(9)
C76_4 C 0.97337(13) 0.69270(12) 0.09964(9)
C77_4 C 0.97687(13) 0.70023(12) 0.05692(9)
C81_4 C 0.95063(13) 0.77131(12) 0.00666(9)
C82_4 C 0.95121(14) 0.75066(12) 0.04563(9)
C83_4 C 0.94651(13) 0.70810(12) 0.22276(9)
C85_4 C 0.76104(14) 0.76412(12) 0.23433(9)
H37_4 H 0.7816 0.7418 0.2182
H38_4 H 0.7185 0.7643 0.2213
H39_4 H 0.7763 0.8012 0.2358
C86_4 C 0.73233(12) 0.67042(12) 0.27483(9)
H40_4 H 0.7477 0.6441 0.2965
H41_4 H 0.6901 0.6767 0.2727
H42_4 H 0.7374 0.6564 0.2488
N6_4 N 0.92819(11) 0.77317(10) 0.07755(7)
H48_4 H 0.9075 0.8031 0.0762
O21_4 O 0.96634(9) 0.66665(8) 0.24465(6)
O22_4 O 0.92535(9) 0.75001(8) 0.23436(6)
O25_4 O 0.83861(9) 0.71401(8) 0.29514(6)
O27_4 O 0.95500(8) 0.71583(7) 0.33015(6)
O30_4 O 0.80734(9) 0.70591(8) 0.37645(6)
H53_4 H 0.7975 0.7436 0.3811
H54_4 H 0.7779 0.6909 0.3546
S1_4 S 0.77383(3) 0.73564(3) 0.28711(2)
O37_2 O 0.99068(9) 0.83024(8) 0.29851(6)
C80_4 C 0.97591(13) 0.74095(12) 0.97894(9)
H36_4 H 0.9333 0.8056 0.9987
C84_4 C 0.97680(13) 0.76172(12) 0.93642(9)
loop_
_geom_bond_atom_site_label_1
_geom_bond_atom_site_label_2
_geom_bond_site_symmetry_1
_geom_bond_site_symmetry_2
Zn18 O15 1_555 1_555
C84 C80 1_555 1_555
O24 C84 1_555 1_555
Zn13 O24 1_555 1_555
C71 C72 1_555 1_555
C72 H31 1_555 1_555
C73 C72 1_555 1_555
C74 C73 1_555 1_555
H32 C74 1_555 1_555
C75 C74 1_555 1_555
C76 C71 1_555 1_555
C77 C76 1_555 1_555
C82 C77 1_555 1_555
C83 C73 1_555 1_555
C85 H37 1_555 1_555
H38 C85 1_555 1_555
H39 C85 1_555 1_555
C86 H40 1_555 1_555
H41 C86 1_555 1_555
H42 C86 1_555 1_555
N6 C71 1_555 1_555
H48 N6 1_555 1_555
O21 C83 1_555 1_555
O22 C83 1_555 1_555
O25 S1 1_555 1_555
O27 Zn5 1_555 1_555
O30 H53 1_555 1_555
H54 O30 1_555 1_555
S1 C85 1_555 1_555
Zn5 O25 1_555 1_555
Zn18 O22 1_555 1_555
O33 Zn5 1_555 1_555
O34 Zn18 1_555 1_555
O35 Zn5 1_555 1_555
O36 Zn7 1_555 1_555
O40 Zn5 1_555 1_555
C75 C76 1_555 1_555
C81 C82 1_555 1_555
C82 N6 1_555 1_555
C86 S1 1_555 1_555
O21 Zn7 1_555 1_555
O25 Zn18 1_555 1_555
O27 Zn7 1_555 1_555
O27 Zn18 1_555 1_555
O30 Zn5 1_555 1_555
H9 C19 1_555 1_555
C20 C15 1_555 1_555
C21 C20 1_555 1_555
C22 C21 1_555 1_555
H10 C22 1_555 1_555
C23 C22 1_555 1_555
H11 C23 1_555 1_555
C24 C23 1_555 1_555
C25 C24 1_555 1_555
H12 C25 1_555 1_555
C26 C21 1_555 1_555
C28 C24 1_555 1_555
C50 C49 1_555 1_555
C51 C50 1_555 1_555
H23 C51 1_555 1_555
C52 C51 1_555 1_555
C53 C52 1_555 1_555
H24 C53 1_555 1_555
C54 C49 1_555 1_555
C56 C52 1_555 1_555
N2 C15 1_555 1_555
H44 N2 1_555 1_555
H46 N4 1_555 1_555
O33 C28 1_555 1_555
O34 C28 1_555 1_555
O16 C56 1_555 1_555
Zn14 O16 1_555 1_555
C19 C20 1_555 1_555
C25 C26 1_555 1_555
C26 N2 1_555 1_555
C53 C54 1_555 1_555
C54 N4 1_555 1_555
H35 C79 1_555 1_555
Zn15 O23 1_555 1_555
C1 C2 1_555 1_555
C2 H1 1_555 1_555
C3 C2 1_555 1_555
C4 C3 1_555 1_555
H2 C4 1_555 1_555
C5 C4 1_555 1_555
H3 C5 1_555 1_555
C6 C1 1_555 1_555
C7 C6 1_555 1_555
C8 C7 1_555 1_555
H4 C8 1_555 1_555
C9 C8 1_555 1_555
H5 C9 1_555 1_555
C10 C9 1_555 1_555
C11 C10 1_555 1_555
H6 C11 1_555 1_555
C12 C7 1_555 1_555
C13 C3 1_555 1_555
C14 C10 1_555 1_555
C16 H7 1_555 1_555
C17 C16 1_555 1_555
C18 C17 1_555 1_555
H8 C18 1_555 1_555
C27 C17 1_555 1_555
C29 C30 1_555 1_555
C30 H13 1_555 1_555
C31 C30 1_555 1_555
C32 C31 1_555 1_555
H14 C32 1_555 1_555
C33 C32 1_555 1_555
H15 C33 1_555 1_555
C34 C29 1_555 1_555
C35 C34 1_555 1_555
C36 C35 1_555 1_555
H16 C36 1_555 1_555
C37 C36 1_555 1_555
H17 C37 1_555 1_555
C38 C37 1_555 1_555
C39 C38 1_555 1_555
H18 C39 1_555 1_555
C40 C35 1_555 1_555
C41 C31 1_555 1_555
C42 C38 1_555 1_555
C43 C44 1_555 1_555
C44 H19 1_555 1_555
C45 C44 1_555 1_555
C46 C45 1_555 1_555
H20 C46 1_555 1_555
C47 C46 1_555 1_555
H21 C47 1_555 1_555
C48 C43 1_555 1_555
C55 C45 1_555 1_555
C57 C58 1_555 1_555
C58 H25 1_555 1_555
C59 C58 1_555 1_555
C60 C59 1_555 1_555
H26 C60 1_555 1_555
C61 C60 1_555 1_555
H27 C61 1_555 1_555
C62 C57 1_555 1_555
C63 C62 1_555 1_555
C64 C63 1_555 1_555
H28 C64 1_555 1_555
C65 C64 1_555 1_555
H29 C65 1_555 1_555
C66 C65 1_555 1_555
C67 C66 1_555 1_555
H30 C67 1_555 1_555
C68 C63 1_555 1_555
C69 C59 1_555 1_555
C70 C66 1_555 1_555
H34 C78 1_555 1_555
N1 C1 1_555 1_555
H43 N1 1_555 1_555
N3 C29 1_555 1_555
H45 N3 1_555 1_555
N5 C57 1_555 1_555
H47 N5 1_555 1_555
O1 C13 1_555 1_555
O2 C13 1_555 1_555
O3 C14 1_555 1_555
O4 C14 1_555 1_555
O5 C27 1_555 1_555
O6 C27 1_555 1_555
O9 C41 1_555 1_555
O10 C41 1_555 1_555
O35 C42 1_555 1_555
O36 C42 1_555 1_555
O13 C55 1_555 1_555
O14 C55 1_555 1_555
O17 C69 1_555 1_555
O18 C69 1_555 1_555
O19 C70 1_555 1_555
O20 C70 1_555 1_555
O26 Zn1 1_555 1_555
O28 H49 1_555 1_555
H50 O28 1_555 1_555
O29 H51 1_555 1_555
H52 O29 1_555 1_555
Zn1 O1 1_555 1_555
Zn2 O2 1_555 1_555
Zn3 O6 1_555 1_555
Zn4 O14 1_555 1_555
Zn14 O19 1_555 1_555
O31 Zn4 1_555 1_555
O32 Zn3 1_555 1_555
O39 Zn14 1_555 1_555
Zn9 O4 1_555 1_555
Zn10 O3 1_555 1_555
C5 C6 1_555 1_555
C11 C12 1_555 1_555
C12 N1 1_555 1_555
C33 C34 1_555 1_555
C39 C40 1_555 1_555
C40 N3 1_555 1_555
C47 C48 1_555 1_555
C61 C62 1_555 1_555
C67 C68 1_555 1_555
C68 N5 1_555 1_555
O5 Zn2 1_555 1_555
O9 Zn1 1_555 1_555
O10 Zn3 1_555 1_555
O13 Zn2 1_555 1_555
O17 Zn1 1_555 1_555
O18 Zn4 1_555 1_555
O26 Zn2 1_555 1_555
O26 Zn3 1_555 1_555
O26 Zn4 1_555 1_555
O28 Zn1 1_555 1_555
O29 Zn1 1_555 1_555
C71_2 C72_2 1_555 1_555
C72_2 H31_2 1_555 1_555
C73_2 C72_2 1_555 1_555
C74_2 C73_2 1_555 1_555
H32_2 C74_2 1_555 1_555
C75_2 C74_2 1_555 1_555
C76_2 C71_2 1_555 1_555
C77_2 C76_2 1_555 1_555
C81_2 C80_2 1_555 1_555
H36_2 C81_2 1_555 1_555
C82_2 C77_2 1_555 1_555
C83_2 C73_2 1_555 1_555
C84_2 C80_2 1_555 1_555
C85_2 H37_2 1_555 1_555
H38_2 C85_2 1_555 1_555
H39_2 C85_2 1_555 1_555
C86_2 H40_2 1_555 1_555
H41_2 C86_2 1_555 1_555
H42_2 C86_2 1_555 1_555
N6_2 C71_2 1_555 1_555
H48_2 N6_2 1_555 1_555
O21_2 C83_2 1_555 1_555
O22_2 C83_2 1_555 1_555
O40 C84_2 1_555 1_555
O25_2 S1_2 1_555 1_555
O27_2 Zn13 1_555 1_555
O30_2 H53_2 1_555 1_555
H54_2 O30_2 1_555 1_555
S1_2 C85_2 1_555 1_555
Zn13 O25_2 1_555 1_555
Zn8 O22_2 1_555 1_555
O33_2 Zn13 1_555 1_555
O34_2 Zn8 1_555 1_555
O35_2 Zn13 1_555 1_555
O36_2 Zn7_2 1_555 1_555
O37 Zn8 1_555 1_555
C75_2 C76_2 1_555 1_555
C81_2 C82_2 1_555 1_555
C82_2 N6_2 1_555 1_555
C86_2 S1_2 1_555 1_555
O21_2 Zn7_2 1_555 1_555
O25_2 Zn8 1_555 1_555
O27_2 Zn7_2 1_555 1_555
O27_2 Zn8 1_555 1_555
O30_2 Zn13 1_555 1_555
H17_2 C37_2 1_555 1_555
C38_2 C37_2 1_555 1_555
C39_2 C38_2 1_555 1_555
H18_2 C39_2 1_555 1_555
C42_2 C38_2 1_555 1_555
C64_2 C63_2 1_555 1_555
H28_2 C64_2 1_555 1_555
C65_2 C64_2 1_555 1_555
H29_2 C65_2 1_555 1_555
C66_2 C65_2 1_555 1_555
C67_2 C66_2 1_555 1_555
H30_2 C67_2 1_555 1_555
C68_2 C63_2 1_555 1_555
C70_2 C66_2 1_555 1_555
H34_2 C78_2 1_555 1_555
C79_2 C78_2 1_555 1_555
H35_2 C79_2 1_555 1_555
O35_2 C42_2 1_555 1_555
O36_2 C42_2 1_555 1_555
O19_2 C70_2 1_555 1_555
O20_2 C70_2 1_555 1_555
Zn15 O19_2 1_555 1_555
O38 Zn15 1_555 1_555
C67_2 C68_2 1_555 1_555
C15_2 C16_2 1_555 1_555
C16_2 H7_2 1_555 1_555
C17_2 C16_2 1_555 1_555
C18_2 C17_2 1_555 1_555
H8_2 C18_2 1_555 1_555
C19_2 C18_2 1_555 1_555
H9_2 C19_2 1_555 1_555
C20_2 C15_2 1_555 1_555
C21_2 C20_2 1_555 1_555
C22_2 C21_2 1_555 1_555
H10_2 C22_2 1_555 1_555
C23_2 C22_2 1_555 1_555
H11_2 C23_2 1_555 1_555
C24_2 C23_2 1_555 1_555
C25_2 C24_2 1_555 1_555
H12_2 C25_2 1_555 1_555
C26_2 C21_2 1_555 1_555
C27_2 C17_2 1_555 1_555
C28_2 C24_2 1_555 1_555
C29_2 C30_2 1_555 1_555
C30_2 H13_2 1_555 1_555
C31_2 C30_2 1_555 1_555
C32_2 C31_2 1_555 1_555
H14_2 C32_2 1_555 1_555
C33_2 C32_2 1_555 1_555
H15_2 C33_2 1_555 1_555
C34_2 C29_2 1_555 1_555
C35_2 C34_2 1_555 1_555
C36_2 C35_2 1_555 1_555
H16_2 C36_2 1_555 1_555
C40_2 C35_2 1_555 1_555
C41_2 C31_2 1_555 1_555
C43_2 C44_2 1_555 1_555
C44_2 H19_2 1_555 1_555
C45_2 C44_2 1_555 1_555
C46_2 C45_2 1_555 1_555
H20_2 C46_2 1_555 1_555
C47_2 C46_2 1_555 1_555
H21_2 C47_2 1_555 1_555
C48_2 C43_2 1_555 1_555
C49_2 C48_2 1_555 1_555
C50_2 C49_2 1_555 1_555
H22_2 C50_2 1_555 1_555
C51_2 C50_2 1_555 1_555
H23_2 C51_2 1_555 1_555
C52_2 C51_2 1_555 1_555
C53_2 C52_2 1_555 1_555
H24_2 C53_2 1_555 1_555
C54_2 C49_2 1_555 1_555
C55_2 C45_2 1_555 1_555
C56_2 C52_2 1_555 1_555
C57_2 C58_2 1_555 1_555
C58_2 H25_2 1_555 1_555
C59_2 C58_2 1_555 1_555
C60_2 C59_2 1_555 1_555
H26_2 C60_2 1_555 1_555
C61_2 C60_2 1_555 1_555
C62_2 C57_2 1_555 1_555
C69_2 C59_2 1_555 1_555
N2_2 C15_2 1_555 1_555
H44_2 N2_2 1_555 1_555
N3_2 C29_2 1_555 1_555
H45_2 N3_2 1_555 1_555
N4_2 C43_2 1_555 1_555
H46_2 N4_2 1_555 1_555
N5_2 C57_2 1_555 1_555
H47_2 N5_2 1_555 1_555
O1_2 C13_2 1_555 1_555
O2_2 C13_2 1_555 1_555
O5_2 C27_2 1_555 1_555
O6_2 C27_2 1_555 1_555
O33_2 C28_2 1_555 1_555
O34_2 C28_2 1_555 1_555
O9_2 C41_2 1_555 1_555
O10_2 C41_2 1_555 1_555
O13_2 C55_2 1_555 1_555
O14_2 C55_2 1_555 1_555
O38 C56_2 1_555 1_555
O17_2 C69_2 1_555 1_555
O18_2 C69_2 1_555 1_555
O26_2 Zn1_2 1_555 1_555
O28_2 H49_2 1_555 1_555
H50_2 O28_2 1_555 1_555
O29_2 H51_2 1_555 1_555
H52_2 O29_2 1_555 1_555
Zn1_2 O1_2 1_555 1_555
Zn2_2 O2_2 1_555 1_555
Zn9 O6_2 1_555 1_555
Zn10 O14_2 1_555 1_555
C19_2 C20_2 1_555 1_555
C25_2 C26_2 1_555 1_555
C26_2 N2_2 1_555 1_555
C33_2 C34_2 1_555 1_555
C40_2 N3_2 1_555 1_555
C47_2 C48_2 1_555 1_555
C53_2 C54_2 1_555 1_555
C54_2 N4_2 1_555 1_555
C61_2 C62_2 1_555 1_555
O5_2 Zn2_2 1_555 1_555
O9_2 Zn1_2 1_555 1_555
O10_2 Zn9 1_555 1_555
O13_2 Zn2_2 1_555 1_555
O17_2 Zn1_2 1_555 1_555
O18_2 Zn10 1_555 1_555
O26_2 Zn2_2 1_555 1_555
O26_2 Zn9 1_555 1_555
O26_2 Zn10 1_555 1_555
O28_2 Zn1_2 1_555 1_555
O29_2 Zn1_2 1_555 1_555
C1_2 C2_2 1_555 1_555
C2_2 H1_2 1_555 1_555
C3_2 C2_2 1_555 1_555
C4_2 C3_2 1_555 1_555
H2_2 C4_2 1_555 1_555
C5_2 C4_2 1_555 1_555
H3_2 C5_2 1_555 1_555
C6_2 C1_2 1_555 1_555
C7_2 C6_2 1_555 1_555
C8_2 C7_2 1_555 1_555
H4_2 C8_2 1_555 1_555
C9_2 C8_2 1_555 1_555
H5_2 C9_2 1_555 1_555
C10_2 C9_2 1_555 1_555
C11_2 C10_2 1_555 1_555
H6_2 C11_2 1_555 1_555
C12_2 C7_2 1_555 1_555
C14_2 C10_2 1_555 1_555
N1_2 C1_2 1_555 1_555
H43_2 N1_2 1_555 1_555
O31 C14_2 1_555 1_555
O32 C14_2 1_555 1_555
C5_2 C6_2 1_555 1_555
C11_2 C12_2 1_555 1_555
C12_2 N1_2 1_555 1_555
C1_3 C2_3 1_555 1_555
C2_3 H1_3 1_555 1_555
C3_3 C2_3 1_555 1_555
C4_3 C3_3 1_555 1_555
H2_3 C4_3 1_555 1_555
C5_3 C4_3 1_555 1_555
H3_3 C5_3 1_555 1_555
C6_3 C1_3 1_555 1_555
C7_3 C6_3 1_555 1_555
C8_3 C7_3 1_555 1_555
H4_3 C8_3 1_555 1_555
C9_3 C8_3 1_555 1_555
H5_3 C9_3 1_555 1_555
C10_3 C9_3 1_555 1_555
C11_3 C10_3 1_555 1_555
H6_3 C11_3 1_555 1_555
C12_3 C7_3 1_555 1_555
C14_3 C10_3 1_555 1_555
N1_3 C1_3 1_555 1_555
H43_3 N1_3 1_555 1_555
O3_2 C14_3 1_555 1_555
O4_2 C14_3 1_555 1_555
Zn9_2 O4_2 1_555 1_555
Zn10_2 O3_2 1_555 1_555
C5_3 C6_3 1_555 1_555
C11_3 C12_3 1_555 1_555
C12_3 N1_3 1_555 1_555
C15_3 C16_3 1_555 1_555
C16_3 H7_3 1_555 1_555
C17_3 C16_3 1_555 1_555
C18_3 C17_3 1_555 1_555
H8_3 C18_3 1_555 1_555
C19_3 C18_3 1_555 1_555
H9_3 C19_3 1_555 1_555
C20_3 C15_3 1_555 1_555
C21_3 C20_3 1_555 1_555
C22_3 C21_3 1_555 1_555
H10_3 C22_3 1_555 1_555
C23_3 C22_3 1_555 1_555
H11_3 C23_3 1_555 1_555
C24_3 C23_3 1_555 1_555
C25_3 C24_3 1_555 1_555
H12_3 C25_3 1_555 1_555
C26_3 C21_3 1_555 1_555
C27_3 C17_3 1_555 1_555
C28_3 C24_3 1_555 1_555
C29_3 C30_3 1_555 1_555
C30_3 H13_3 1_555 1_555
C31_3 C30_3 1_555 1_555
C32_3 C31_3 1_555 1_555
H14_3 C32_3 1_555 1_555
C33_3 C32_3 1_555 1_555
H15_3 C33_3 1_555 1_555
C34_3 C29_3 1_555 1_555
C35_3 C34_3 1_555 1_555
C36_3 C35_3 1_555 1_555
H16_3 C36_3 1_555 1_555
C40_3 C35_3 1_555 1_555
C41_3 C31_3 1_555 1_555
C43_3 C44_3 1_555 1_555
C44_3 H19_3 1_555 1_555
C45_3 C44_3 1_555 1_555
C46_3 C45_3 1_555 1_555
H20_3 C46_3 1_555 1_555
C47_3 C46_3 1_555 1_555
H21_3 C47_3 1_555 1_555
C48_3 C43_3 1_555 1_555
C49_3 C48_3 1_555 1_555
C50_3 C49_3 1_555 1_555
H22_3 C50_3 1_555 1_555
C51_3 C50_3 1_555 1_555
H23_3 C51_3 1_555 1_555
C52_3 C51_3 1_555 1_555
C53_3 C52_3 1_555 1_555
H24_3 C53_3 1_555 1_555
C54_3 C49_3 1_555 1_555
C55_3 C45_3 1_555 1_555
C56_3 C52_3 1_555 1_555
C57_3 C58_3 1_555 1_555
C58_3 H25_3 1_555 1_555
C59_3 C58_3 1_555 1_555
C60_3 C59_3 1_555 1_555
H26_3 C60_3 1_555 1_555
C61_3 C60_3 1_555 1_555
C62_3 C57_3 1_555 1_555
C69_3 C59_3 1_555 1_555
N2_3 C15_3 1_555 1_555
H44_3 N2_3 1_555 1_555
N3_3 C29_3 1_555 1_555
H45_3 N3_3 1_555 1_555
N4_3 C43_3 1_555 1_555
H46_3 N4_3 1_555 1_555
N5_3 C57_3 1_555 1_555
H47_3 N5_3 1_555 1_555
O1_3 C13_3 1_555 1_555
O2_3 C13_3 1_555 1_555
O5_3 C27_3 1_555 1_555
O6_3 C27_3 1_555 1_555
O7 C28_3 1_555 1_555
O8 C28_3 1_555 1_555
O9_3 C41_3 1_555 1_555
O10_3 C41_3 1_555 1_555
O13_3 C55_3 1_555 1_555
O14_3 C55_3 1_555 1_555
O16_2 C56_3 1_555 1_555
O17_3 C69_3 1_555 1_555
O18_3 C69_3 1_555 1_555
O26_3 Zn1_3 1_555 1_555
O28_3 H49_3 1_555 1_555
H50_3 O28_3 1_555 1_555
O29_3 H51_3 1_555 1_555
H52_3 O29_3 1_555 1_555
Zn1_3 O1_3 1_555 1_555
Zn2_3 O2_3 1_555 1_555
Zn3_2 O6_3 1_555 1_555
Zn4_2 O14_3 1_555 1_555
O31_2 Zn4_2 1_555 1_555
O32_2 Zn3_2 1_555 1_555
Zn12 O7 1_555 1_555
Zn14_2 O16_2 1_555 1_555
Zn17 O8 1_555 1_555
C19_3 C20_3 1_555 1_555
C25_3 C26_3 1_555 1_555
C26_3 N2_3 1_555 1_555
C33_3 C34_3 1_555 1_555
C40_3 N3_3 1_555 1_555
C47_3 C48_3 1_555 1_555
C53_3 C54_3 1_555 1_555
C54_3 N4_3 1_555 1_555
C61_3 C62_3 1_555 1_555
O5_3 Zn2_3 1_555 1_555
O9_3 Zn1_3 1_555 1_555
O10_3 Zn3_2 1_555 1_555
O13_3 Zn2_3 1_555 1_555
O17_3 Zn1_3 1_555 1_555
O18_3 Zn4_2 1_555 1_555
O26_3 Zn2_3 1_555 1_555
O26_3 Zn3_2 1_555 1_555
O26_3 Zn4_2 1_555 1_555
O28_3 Zn1_3 1_555 1_555
O29_3 Zn1_3 1_555 1_555
H17_3 C37_3 1_555 1_555
C38_3 C37_3 1_555 1_555
C39_3 C38_3 1_555 1_555
H18_3 C39_3 1_555 1_555
C42_3 C38_3 1_555 1_555
C64_3 C63_3 1_555 1_555
H28_3 C64_3 1_555 1_555
C65_3 C64_3 1_555 1_555
H29_3 C65_3 1_555 1_555
C66_3 C65_3 1_555 1_555
C67_3 C66_3 1_555 1_555
H30_3 C67_3 1_555 1_555
C68_3 C63_3 1_555 1_555
C70_3 C66_3 1_555 1_555
H34_3 C78_3 1_555 1_555
C79_3 C78_3 1_555 1_555
H35_3 C79_3 1_555 1_555
O11 C42_3 1_555 1_555
O12 C42_3 1_555 1_555
O19_3 C70_3 1_555 1_555
O20_3 C70_3 1_555 1_555
Zn14_2 O19_3 1_555 1_555
O39_2 Zn14_2 1_555 1_555
Zn12 O11 1_555 1_555
Zn15_2 O23_2 1_555 1_555
Zn16 O12 1_555 1_555
C67_3 C68_3 1_555 1_555
Zn17 O15_2 1_555 1_555
C71_3 C72_3 1_555 1_555
C72_3 H31_3 1_555 1_555
C73_3 C72_3 1_555 1_555
C74_3 C73_3 1_555 1_555
H32_3 C74_3 1_555 1_555
C75_3 C74_3 1_555 1_555
C76_3 C71_3 1_555 1_555
C77_3 C76_3 1_555 1_555
C81_3 C80_3 1_555 1_555
H36_3 C81_3 1_555 1_555
C82_3 C77_3 1_555 1_555
C83_3 C73_3 1_555 1_555
C84_3 C80_3 1_555 1_555
C85_3 H37_3 1_555 1_555
H38_3 C85_3 1_555 1_555
H39_3 C85_3 1_555 1_555
C86_3 H40_3 1_555 1_555
H41_3 C86_3 1_555 1_555
H42_3 C86_3 1_555 1_555
N6_3 C71_3 1_555 1_555
H48_3 N6_3 1_555 1_555
O21_3 C83_3 1_555 1_555
O22_3 C83_3 1_555 1_555
O24_2 C84_3 1_555 1_555
O25_3 S1_3 1_555 1_555
O27_3 Zn12 1_555 1_555
O30_3 H53_3 1_555 1_555
H54_3 O30_3 1_555 1_555
S1_3 C85_3 1_555 1_555
Zn12 O25_3 1_555 1_555
Zn17 O22_3 1_555 1_555
O40_2 Zn12 1_555 1_555
Zn13_2 O24_2 1_555 1_555
C75_3 C76_3 1_555 1_555
C81_3 C82_3 1_555 1_555
C82_3 N6_3 1_555 1_555
C86_3 S1_3 1_555 1_555
O21_3 Zn16 1_555 1_555
O25_3 Zn17 1_555 1_555
O27_3 Zn16 1_555 1_555
O27_3 Zn17 1_555 1_555
O30_3 Zn12 1_555 1_555
C1_4 C2_4 1_555 1_555
C2_4 H1_4 1_555 1_555
C3_4 C2_4 1_555 1_555
C4_4 C3_4 1_555 1_555
H2_4 C4_4 1_555 1_555
C5_4 C4_4 1_555 1_555
H3_4 C5_4 1_555 1_555
C6_4 C1_4 1_555 1_555
C7_4 C6_4 1_555 1_555
C8_4 C7_4 1_555 1_555
H4_4 C8_4 1_555 1_555
C9_4 C8_4 1_555 1_555
H5_4 C9_4 1_555 1_555
C10_4 C9_4 1_555 1_555
C11_4 C10_4 1_555 1_555
H6_4 C11_4 1_555 1_555
C12_4 C7_4 1_555 1_555
C13_4 C3_4 1_555 1_555
C14_4 C10_4 1_555 1_555
C16_4 H7_4 1_555 1_555
C17_4 C16_4 1_555 1_555
C18_4 C17_4 1_555 1_555
H8_4 C18_4 1_555 1_555
C27_4 C17_4 1_555 1_555
C29_4 C30_4 1_555 1_555
C30_4 H13_4 1_555 1_555
C31_4 C30_4 1_555 1_555
C32_4 C31_4 1_555 1_555
H14_4 C32_4 1_555 1_555
C33_4 C32_4 1_555 1_555
H15_4 C33_4 1_555 1_555
C34_4 C29_4 1_555 1_555
C35_4 C34_4 1_555 1_555
C36_4 C35_4 1_555 1_555
H16_4 C36_4 1_555 1_555
C37_4 C36_4 1_555 1_555
H17_4 C37_4 1_555 1_555
C38_4 C37_4 1_555 1_555
C39_4 C38_4 1_555 1_555
H18_4 C39_4 1_555 1_555
C40_4 C35_4 1_555 1_555
C41_4 C31_4 1_555 1_555
C42_4 C38_4 1_555 1_555
C43_4 C44_4 1_555 1_555
C44_4 H19_4 1_555 1_555
C45_4 C44_4 1_555 1_555
C46_4 C45_4 1_555 1_555
H20_4 C46_4 1_555 1_555
C47_4 C46_4 1_555 1_555
H21_4 C47_4 1_555 1_555
C48_4 C43_4 1_555 1_555
C55_4 C45_4 1_555 1_555
C57_4 C58_4 1_555 1_555
C58_4 H25_4 1_555 1_555
C59_4 C58_4 1_555 1_555
C60_4 C59_4 1_555 1_555
H26_4 C60_4 1_555 1_555
C61_4 C60_4 1_555 1_555
H27_4 C61_4 1_555 1_555
C62_4 C57_4 1_555 1_555
C63_4 C62_4 1_555 1_555
C64_4 C63_4 1_555 1_555
H28_4 C64_4 1_555 1_555
C65_4 C64_4 1_555 1_555
H29_4 C65_4 1_555 1_555
C66_4 C65_4 1_555 1_555
C67_4 C66_4 1_555 1_555
H30_4 C67_4 1_555 1_555
C68_4 C63_4 1_555 1_555
C69_4 C59_4 1_555 1_555
C70_4 C66_4 1_555 1_555
H34_4 C78_4 1_555 1_555
N1_4 C1_4 1_555 1_555
H43_4 N1_4 1_555 1_555
N3_4 C29_4 1_555 1_555
H45_4 N3_4 1_555 1_555
N5_4 C57_4 1_555 1_555
H47_4 N5_4 1_555 1_555
O1_4 C13_4 1_555 1_555
O2_4 C13_4 1_555 1_555
O31_2 C14_4 1_555 1_555
O32_2 C14_4 1_555 1_555
O5_4 C27_4 1_555 1_555
O6_4 C27_4 1_555 1_555
O9_4 C41_4 1_555 1_555
O10_4 C41_4 1_555 1_555
O11_2 C42_4 1_555 1_555
O12_2 C42_4 1_555 1_555
O13_4 C55_4 1_555 1_555
O14_4 C55_4 1_555 1_555
O17_4 C69_4 1_555 1_555
O18_4 C69_4 1_555 1_555
O19_4 C70_4 1_555 1_555
O20_4 C70_4 1_555 1_555
O26_4 Zn1_4 1_555 1_555
O28_4 H49_4 1_555 1_555
H50_4 O28_4 1_555 1_555
O29_4 H51_4 1_555 1_555
H52_4 O29_4 1_555 1_555
Zn1_4 O1_4 1_555 1_555
Zn2_4 O2_4 1_555 1_555
Zn9_2 O6_4 1_555 1_555
Zn10_2 O14_4 1_555 1_555
Zn15_2 O19_4 1_555 1_555
O38_2 Zn15_2 1_555 1_555
Zn13_2 O11_2 1_555 1_555
Zn16_2 O12_2 1_555 1_555
C5_4 C6_4 1_555 1_555
C11_4 C12_4 1_555 1_555
C12_4 N1_4 1_555 1_555
C33_4 C34_4 1_555 1_555
C39_4 C40_4 1_555 1_555
C40_4 N3_4 1_555 1_555
C47_4 C48_4 1_555 1_555
C61_4 C62_4 1_555 1_555
C67_4 C68_4 1_555 1_555
C68_4 N5_4 1_555 1_555
O5_4 Zn2_4 1_555 1_555
O9_4 Zn1_4 1_555 1_555
O10_4 Zn9_2 1_555 1_555
O13_4 Zn2_4 1_555 1_555
O17_4 Zn1_4 1_555 1_555
O18_4 Zn10_2 1_555 1_555
O26_4 Zn2_4 1_555 1_555
O26_4 Zn9_2 1_555 1_555
O26_4 Zn10_2 1_555 1_555
O28_4 Zn1_4 1_555 1_555
O29_4 Zn1_4 1_555 1_555
H35_4 C79_4 1_555 1_555
H9_4 C19_4 1_555 1_555
C20_4 C15_4 1_555 1_555
C21_4 C20_4 1_555 1_555
C22_4 C21_4 1_555 1_555
H10_4 C22_4 1_555 1_555
C23_4 C22_4 1_555 1_555
H11_4 C23_4 1_555 1_555
C24_4 C23_4 1_555 1_555
C25_4 C24_4 1_555 1_555
H12_4 C25_4 1_555 1_555
C26_4 C21_4 1_555 1_555
C28_4 C24_4 1_555 1_555
C50_4 C49_4 1_555 1_555
C51_4 C50_4 1_555 1_555
H23_4 C51_4 1_555 1_555
C52_4 C51_4 1_555 1_555
C53_4 C52_4 1_555 1_555
H24_4 C53_4 1_555 1_555
C54_4 C49_4 1_555 1_555
C56_4 C52_4 1_555 1_555
N2_4 C15_4 1_555 1_555
H44_4 N2_4 1_555 1_555
H46_4 N4_4 1_555 1_555
O7_2 C28_4 1_555 1_555
O8_2 C28_4 1_555 1_555
O38_2 C56_4 1_555 1_555
Zn13_2 O7_2 1_555 1_555
Zn17_2 O8_2 1_555 1_555
C19_4 C20_4 1_555 1_555
C25_4 C26_4 1_555 1_555
C26_4 N2_4 1_555 1_555
C53_4 C54_4 1_555 1_555
C54_4 N4_4 1_555 1_555
C71_4 C72_4 1_555 1_555
C72_4 H31_4 1_555 1_555
C73_4 C72_4 1_555 1_555
C74_4 C73_4 1_555 1_555
H32_4 C74_4 1_555 1_555
C75_4 C74_4 1_555 1_555
C76_4 C71_4 1_555 1_555
C77_4 C76_4 1_555 1_555
C82_4 C77_4 1_555 1_555
C83_4 C73_4 1_555 1_555
C85_4 H37_4 1_555 1_555
H38_4 C85_4 1_555 1_555
H39_4 C85_4 1_555 1_555
C86_4 H40_4 1_555 1_555
H41_4 C86_4 1_555 1_555
H42_4 C86_4 1_555 1_555
N6_4 C71_4 1_555 1_555
H48_4 N6_4 1_555 1_555
O21_4 C83_4 1_555 1_555
O22_4 C83_4 1_555 1_555
O25_4 S1_4 1_555 1_555
O27_4 Zn13_2 1_555 1_555
O30_4 H53_4 1_555 1_555
H54_4 O30_4 1_555 1_555
S1_4 C85_4 1_555 1_555
Zn13_2 O25_4 1_555 1_555
Zn17_2 O22_4 1_555 1_555
O37_2 Zn17_2 1_555 1_555
C75_4 C76_4 1_555 1_555
C81_4 C82_4 1_555 1_555
C82_4 N6_4 1_555 1_555
C86_4 S1_4 1_555 1_555
O21_4 Zn16_2 1_555 1_555
O25_4 Zn17_2 1_555 1_555
O27_4 Zn16_2 1_555 1_555
O27_4 Zn17_2 1_555 1_555
O30_4 Zn13_2 1_555 1_555
C84_4 C80_4 1_555 1_555
O40_2 C84_4 1_555 1_555

#END
