
###############################################################################
#
# This file contains modified crystal structure data generated from the
# MOF subset of the Cambridge Structural Database (CSD) v543 
# hosted by the Cambridge Crystallographic Data Centre (CCDC).
#
# This work is licensed under the Creative Commons
# Attribution-NonCommercial-ShareAlike 4.0 International License.
# To view a copy of this license, visit
# http://creativecommons.org/licenses/by-nc-sa/4.0/
# or send a letter to
# Creative Commons, PO Box 1866, Mountain View, CA 94042, USA.
#
# CIF created using the CSD Python API on 29 September 2022
# The structure has been converted into the P1 space group
# The structure has a 3D framework
# The original CSD entry AROQAB is in the monoclinic crystal system
# The framework has been calculated to contain at least 10.0% void space
# The void calculation uses a probe of radius 1.32A, grid spacing 0.4
# The framework is charged, counterions have been retained in the structure
#
###############################################################################

data_AROQAB
_chemical_formula_moiety         '(C176 H152 K6 N16 O8 2-)n'
_symmetry_cell_setting           triclinic
_symmetry_space_group_name_H-M   'P 1'
_symmetry_Int_Tables_number      1
_space_group_name_Hall           'P 1'
loop_
_symmetry_equiv_pos_site_id
_symmetry_equiv_pos_as_xyz
1 x,y,z
_cell_length_a                   21.6589(4)
_cell_length_b                   15.1951(3)
_cell_length_c                   13.7325(2)
_cell_angle_alpha                90
_cell_angle_beta                 107.7860(10)
_cell_angle_gamma                90
_cell_volume                     4303.48
loop_
_atom_site_label
_atom_site_type_symbol
_atom_site_fract_x
_atom_site_fract_y
_atom_site_fract_z
H1 H 0.0155 0.0497 0.7637
C30 C 0.1067(2) 0.5632(4) 0.0122(3)
C34 C 0.0370(3) 0.8399(3) 0.0256(3)
C37 C 0.1476(3) 0.7905(5) 0.0875(5)
H20 H 0.1021 0.6019 0.0658
H22 H 0.1160 0.5039 0.0389
C40 C 0.0908(3) 0.8108(4) 0.1060(4)
H29 H 0.1833 0.7705 0.1411
H32 H 0.0876 0.8054 0.1724
O2 O 0.24495(12) 0.58563(18) 0.90241(19)
C1 C 0.22788(16) 0.4238(3) 0.7540(3)
C2 C 0.2777(2) 0.3657(3) 0.7596(3)
K2 K 0.03703(4) 0.69080(5) 0.73417(5)
N3 N 0.14308(13) 0.5672(2) 0.7858(2)
C11 C 0.0067(2) 0.7118(4) 0.4821(3)
C14 C 0.1023(2) 0.8301(3) 0.9128(3)
C15 C 0.03835(17) 0.5063(3) 0.8413(3)
C16 C 0.04523(19) 0.5632(3) 0.9254(3)
C21 C 0.17479(18) 0.7047(3) 0.6666(3)
C22 C 0.0322(2) 0.8753(4) 0.5126(4)
C24 C 0.04327(18) 0.8495(3) 0.9293(3)
C27 C 0.13851(18) 0.4818(3) 0.8189(3)
C28 C 0.20012(17) 0.6081(3) 0.8251(3)
H3 H 0.0423 0.7060 0.4569
C29 C 0.1527(3) 0.7991(4) 0.9924(4)
H6 H 0.1074 0.8381 0.8478
N4 N 0.08921(16) 0.4501(2) 0.8399(3)
C32 C 0.21012(17) 0.6895(2) 0.7695(3)
H10 H 0.1415 0.6661 0.6316
C33 C 0.1899(2) 0.7775(3) 0.6177(4)
H11 H 0.0631 0.8626 0.4762
H12 H 0.0553 0.8933 0.5820
H13 H 0.0036 0.9223 0.4781
C36 C 0.19195(17) 0.4185(3) 0.8222(3)
H19 H 0.1917 0.7835 0.9805
H21 H 0.1420 0.5839 0.9885
C38 C 0.2587(2) 0.7478(3) 0.8180(3)
H26 H 0.1671 0.7870 0.5484
C39 C 0.2373(3) 0.8364(4) 0.6672(4)
C41 C 0.2064(2) 0.3522(3) 0.8945(4)
C42 C 0.2717(3) 0.8200(3) 0.7676(5)
H30 H 0.2832 0.7379 0.8865
H31 H 0.2460 0.8864 0.6333
H33 H 0.2180 0.4677 0.7034
C43 C 0.2563(3) 0.2935(4) 0.9005(4)
H34 H 0.1820 0.3469 0.9403
H35 H 0.3047 0.8591 0.8024
H36 H 0.3015 0.3700 0.7130
C44 C 0.2924(2) 0.3012(3) 0.8336(4)
H37 H 0.2656 0.2486 0.9499
H38 H 0.3270 0.2624 0.8386
K4 K 0.35764(4) 0.52028(7) 0.90323(6)
C5 C 0.92455(18) 0.0060(3) 0.6856(3)
C9 C 0.9721(2) 0.0675(3) 0.7362(3)
C10 C 0.8615(2) 0.0350(3) 0.6454(3)
C25 C 0.9551(3) 0.1534(4) 0.7454(4)
C26 C 0.8445(3) 0.1212(4) 0.6566(5)
H17 H 0.9874 0.1941 0.7787
C35 C 0.8922(4) 0.1812(4) 0.7073(5)
H18 H 0.8010 0.1392 0.6302
H28 H 0.8813 0.2400 0.7151
K3 K 0.85764(4) 0.02028(7) 0.90323(6)
O3 O 0.93934(13) 0.08567(19) 0.36835(19)
C45 C 0.72788(16) 0.0762(3) 0.2540(3)
C46 C 0.7777(2) 0.1343(3) 0.2596(3)
K1 K 0.85764(4) 0.97972(7) 0.40323(6)
N1 N 0.92188(14) 0.8853(2) 0.5789(2)
O1 O 0.93934(13) 0.91433(19) 0.86835(19)
C3 C 0.94389(15) 0.9140(2) 0.6707(3)
C4 C 0.94019(17) 0.8006(2) 0.5538(2)
N2 N 0.98821(13) 0.8689(2) 0.7488(2)
C6 C 0.99287(19) 0.7940(3) 0.5151(3)
C7 C 0.90172(18) 0.7269(3) 0.5575(3)
C8 C 0.98526(16) 0.8817(2) 0.8440(3)
C12 C 0.9700(3) 0.6394(3) 0.4853(3)
C13 C 0.9177(2) 0.6466(3) 0.5226(3)
C17 C 0.9915(2) 0.6129(3) 0.9259(3)
C18 C 0.9337(2) 0.6082(3) 0.8490(4)
C19 C 0.9275(2) 0.5500(3) 0.7697(4)
C20 C 0.97901(18) 0.4986(3) 0.7642(3)
C23 C 0.8464(2) 0.7349(3) 0.5996(3)
H2 H 0.8293 0.9951 0.6097
H4 H 0.9802 0.5847 0.4622
H5 H 0.8925 0.5966 0.5244
H7 H 0.9949 0.6511 0.9811
H8 H 0.8988 0.6443 0.8504
H9 H 0.8874 0.5450 0.7183
C31 C 0.9725(3) 0.4352(3) 0.6772(4)
H14 H 0.8178 0.7817 0.5644
H15 H 0.8627 0.7484 0.6721
H16 H 0.8227 0.6798 0.5900
H23 H 0.9989 0.4552 0.6359
H24 H 0.9275 0.4323 0.6353
H25 H 0.9868 0.3772 0.7044
O4 O 0.74495(12) 0.91437(18) 0.40241(19)
O2_2 O 0.24495(12) 0.41437(18) 0.40241(19)
C1_2 C 0.22788(16) 0.5762(3) 0.2540(3)
C2_2 C 0.2777(2) 0.6343(3) 0.2596(3)
K2_2 K 0.03703(4) 0.30920(5) 0.23417(5)
N3_2 N 0.14308(13) 0.4328(2) 0.2858(2)
C14_2 C 0.1023(2) 0.1699(3) 0.4128(3)
C15_2 C 0.03835(17) 0.4937(3) 0.3413(3)
C16_2 C 0.04523(19) 0.4368(3) 0.4254(3)
C21_2 C 0.17479(18) 0.2953(3) 0.1666(3)
C22_2 C 0.0322(2) 0.1247(4) 0.0126(4)
C24_2 C 0.04327(18) 0.1505(3) 0.4293(3)
C27_2 C 0.13851(18) 0.5182(3) 0.3189(3)
C28_2 C 0.20012(17) 0.3919(3) 0.3251(3)
C29_2 C 0.1527(3) 0.2009(4) 0.4924(4)
H6_2 H 0.1074 0.1619 0.3478
N4_2 N 0.08921(16) 0.5499(2) 0.3399(3)
C30_2 C 0.1067(2) 0.4368(4) 0.5122(3)
C32_2 C 0.21012(17) 0.3105(2) 0.2695(3)
H10_2 H 0.1415 0.3339 0.1316
C33_2 C 0.1899(2) 0.2225(3) 0.1177(4)
H12_2 H 0.0553 0.1067 0.0820
C34_2 C 0.0370(3) 0.1601(3) 0.5256(3)
C36_2 C 0.19195(17) 0.5815(3) 0.3222(3)
C37_2 C 0.1476(3) 0.2095(5) 0.5875(5)
H19_2 H 0.1917 0.2165 0.4805
H20_2 H 0.1021 0.3981 0.5658
H21_2 H 0.1420 0.4161 0.4885
H22_2 H 0.1160 0.4961 0.5389
C38_2 C 0.2587(2) 0.2522(3) 0.3180(3)
H26_2 H 0.1671 0.2130 0.0484
C39_2 C 0.2373(3) 0.1636(4) 0.1672(4)
C40_2 C 0.0908(3) 0.1892(4) 0.6060(4)
C41_2 C 0.2064(2) 0.6478(3) 0.3945(4)
H29_2 H 0.1833 0.2295 0.6411
C42_2 C 0.2717(3) 0.1800(3) 0.2676(5)
H30_2 H 0.2832 0.2621 0.3865
H31_2 H 0.2460 0.1136 0.1333
H32_2 H 0.0876 0.1946 0.6724
H33_2 H 0.2180 0.5323 0.2034
C43_2 C 0.2563(3) 0.7065(4) 0.4005(4)
H34_2 H 0.1820 0.6531 0.4403
H35_2 H 0.3047 0.1409 0.3024
H36_2 H 0.3015 0.6300 0.2130
C44_2 C 0.2924(2) 0.6988(3) 0.3336(4)
H37_2 H 0.2656 0.7514 0.4499
H38_2 H 0.3270 0.7376 0.3386
K4_2 K 0.35764(4) 0.47972(7) 0.40323(6)
N1_2 N 0.92188(14) 0.1147(2) 0.0789(2)
C3_2 C 0.94389(15) 0.0860(2) 0.1707(3)
C4_2 C 0.94019(17) 0.1994(2) 0.0538(2)
N2_2 N 0.98821(13) 0.1311(2) 0.2488(2)
C6_2 C 0.99287(19) 0.2060(3) 0.0151(3)
C7_2 C 0.90172(18) 0.2731(3) 0.0575(3)
C8_2 C 0.98526(16) 0.1183(2) 0.3440(3)
C13_2 C 0.9177(2) 0.3534(3) 0.0226(3)
C17_2 C 0.9915(2) 0.3871(3) 0.4259(3)
C18_2 C 0.9337(2) 0.3918(3) 0.3490(4)
C19_2 C 0.9275(2) 0.4500(3) 0.2697(4)
C20_2 C 0.97901(18) 0.5014(3) 0.2642(3)
C23_2 C 0.8464(2) 0.2651(3) 0.0996(3)
H2_2 H 0.8293 0.0049 0.1097
H5_2 H 0.8925 0.4034 0.0244
H7_2 H 0.9949 0.3489 0.4811
H8_2 H 0.8988 0.3557 0.3504
H9_2 H 0.8874 0.4550 0.2183
C31_2 C 0.9725(3) 0.5648(3) 0.1772(4)
H14_2 H 0.8178 0.2183 0.0644
H15_2 H 0.8627 0.2516 0.1721
H16_2 H 0.8227 0.3202 0.0900
H23_2 H 0.9989 0.5448 0.1359
H24_2 H 0.9275 0.5677 0.1353
H25_2 H 0.9868 0.6228 0.2044
H27 H 0.9975 0.1475 0.5375
C12_2 C 0.9700(3) 0.3606(3) 0.9853(3)
H4_2 H 0.9802 0.4153 0.9622
O4_2 O 0.74495(12) 0.08563(18) 0.90241(19)
C5_2 C 0.92455(18) 0.9940(3) 0.1856(3)
C9_2 C 0.9721(2) 0.9325(3) 0.2362(3)
C10_2 C 0.8615(2) 0.9650(3) 0.1454(3)
C25_2 C 0.9551(3) 0.8466(4) 0.2454(4)
C26_2 C 0.8445(3) 0.8788(4) 0.1566(5)
H17_2 H 0.9874 0.8059 0.2787
C35_2 C 0.8922(4) 0.8188(4) 0.2073(5)
H18_2 H 0.8010 0.8608 0.1302
H28_2 H 0.8813 0.7600 0.2151
C45_2 C 0.72788(16) 0.9238(3) 0.7540(3)
C46_2 C 0.7777(2) 0.8657(3) 0.7596(3)
N1_3 N 0.42188(14) 0.3853(2) 0.5789(2)
O1_2 O 0.43934(13) 0.41433(19) 0.86835(19)
C3_3 C 0.44389(15) 0.4140(2) 0.6707(3)
C4_3 C 0.44019(17) 0.3006(2) 0.5538(2)
N2_3 N 0.48821(13) 0.3689(2) 0.7488(2)
C5_3 C 0.42455(18) 0.5060(3) 0.6856(3)
K2_3 K 0.53703(4) 0.19080(5) 0.73417(5)
C6_3 C 0.49287(19) 0.2940(3) 0.5151(3)
C7_3 C 0.40172(18) 0.2269(3) 0.5575(3)
C8_3 C 0.48526(16) 0.3817(2) 0.8440(3)
C9_3 C 0.4721(2) 0.5675(3) 0.7362(3)
C10_3 C 0.3615(2) 0.5350(3) 0.6454(3)
N3_3 N 0.64308(13) 0.0672(2) 0.7858(2)
C11_2 C 0.5067(2) 0.2118(4) 0.4821(3)
C12_3 C 0.4700(3) 0.1394(3) 0.4853(3)
C13_3 C 0.4177(2) 0.1466(3) 0.5226(3)
C14_3 C 0.6023(2) 0.3301(3) 0.9128(3)
C15_3 C 0.53835(17) 0.0063(3) 0.8413(3)
C16_3 C 0.54523(19) 0.0632(3) 0.9254(3)
C17_3 C 0.4915(2) 0.1129(3) 0.9259(3)
C18_3 C 0.4337(2) 0.1082(3) 0.8490(4)
C19_3 C 0.4275(2) 0.0500(3) 0.7697(4)
C21_3 C 0.67479(18) 0.2047(3) 0.6666(3)
C22_3 C 0.5322(2) 0.3753(4) 0.5126(4)
C23_3 C 0.3464(2) 0.2349(3) 0.5996(3)
C24_3 C 0.54327(18) 0.3495(3) 0.9293(3)
H1_2 H 0.5155 0.5497 0.7637
C25_3 C 0.4551(3) 0.6534(4) 0.7454(4)
C26_3 C 0.3445(3) 0.6212(4) 0.6566(5)
H2_3 H 0.3293 0.4951 0.6097
C28_3 C 0.70012(17) 0.1081(3) 0.8251(3)
H3_2 H 0.5423 0.2060 0.4569
H4_3 H 0.4802 0.0847 0.4622
H5_3 H 0.3925 0.0966 0.5244
C29_3 C 0.6527(3) 0.2991(4) 0.9924(4)
H6_3 H 0.6074 0.3381 0.8478
H7_3 H 0.4949 0.1511 0.9811
H8_3 H 0.3988 0.1443 0.8504
H9_3 H 0.3874 0.0450 0.7183
C32_3 C 0.71012(17) 0.1895(2) 0.7695(3)
H10_3 H 0.6415 0.1661 0.6316
C33_3 C 0.6899(2) 0.2775(3) 0.6177(4)
H11_2 H 0.5631 0.3626 0.4762
H12_3 H 0.5553 0.3933 0.5820
H13_2 H 0.5036 0.4223 0.4781
H14_3 H 0.3178 0.2817 0.5644
H15_3 H 0.3627 0.2484 0.6721
H16_3 H 0.3227 0.1798 0.5900
H17_3 H 0.4874 0.6941 0.7787
C35_3 C 0.3922(4) 0.6812(4) 0.7073(5)
H18_3 H 0.3010 0.6392 0.6302
H19_3 H 0.6917 0.2835 0.9805
H21_3 H 0.6420 0.0839 0.9885
C38_3 C 0.7587(2) 0.2478(3) 0.8180(3)
H26_3 H 0.6671 0.2870 0.5484
C39_3 C 0.7373(3) 0.3364(4) 0.6672(4)
H28_3 H 0.3813 0.7400 0.7151
C42_3 C 0.7717(3) 0.3200(3) 0.7676(5)
H30_3 H 0.7832 0.2379 0.8865
H31_3 H 0.7460 0.3864 0.6333
H35_3 H 0.8047 0.3591 0.8024
O3_2 O 0.43934(13) 0.58567(19) 0.36835(19)
C20_3 C 0.47901(18) 0.9986(3) 0.7642(3)
C27_3 C 0.63851(18) 0.9818(3) 0.8189(3)
N4_3 N 0.58921(16) 0.9501(2) 0.8399(3)
C31_3 C 0.4725(3) 0.9352(3) 0.6772(4)
C36_3 C 0.69195(17) 0.9185(3) 0.8222(3)
H23_3 H 0.4989 0.9552 0.6359
H24_3 H 0.4275 0.9323 0.6353
H25_3 H 0.4868 0.8772 0.7044
C41_3 C 0.7064(2) 0.8522(3) 0.8945(4)
H33_3 H 0.7180 0.9677 0.7034
C43_3 C 0.7563(3) 0.7935(4) 0.9005(4)
H34_3 H 0.6820 0.8469 0.9403
H36_3 H 0.8015 0.8700 0.7130
C44_3 C 0.7924(2) 0.8012(3) 0.8336(4)
H37_3 H 0.7656 0.7486 0.9499
H38_3 H 0.8270 0.7624 0.8386
C20_4 C 0.47901(18) 0.0014(3) 0.2642(3)
C27_4 C 0.63851(18) 0.0182(3) 0.3189(3)
N4_4 N 0.58921(16) 0.0499(2) 0.3399(3)
C31_4 C 0.4725(3) 0.0648(3) 0.1772(4)
C36_4 C 0.69195(17) 0.0815(3) 0.3222(3)
H23_4 H 0.4989 0.0448 0.1359
H24_4 H 0.4275 0.0677 0.1353
H25_4 H 0.4868 0.1228 0.2044
C41_4 C 0.7064(2) 0.1478(3) 0.3945(4)
H33_4 H 0.7180 0.0323 0.2034
C43_4 C 0.7563(3) 0.2065(4) 0.4005(4)
H34_4 H 0.6820 0.1531 0.4403
H36_4 H 0.8015 0.1300 0.2130
C44_4 C 0.7924(2) 0.1988(3) 0.3336(4)
H37_4 H 0.7656 0.2514 0.4499
H38_4 H 0.8270 0.2376 0.3386
N1_4 N 0.42188(14) 0.6147(2) 0.0789(2)
C3_4 C 0.44389(15) 0.5860(2) 0.1707(3)
C4_4 C 0.44019(17) 0.6994(2) 0.0538(2)
N2_4 N 0.48821(13) 0.6311(2) 0.2488(2)
C5_4 C 0.42455(18) 0.4940(3) 0.1856(3)
K2_4 K 0.53703(4) 0.80920(5) 0.23417(5)
C6_4 C 0.49287(19) 0.7060(3) 0.0151(3)
C7_4 C 0.40172(18) 0.7731(3) 0.0575(3)
C8_4 C 0.48526(16) 0.6183(2) 0.3440(3)
C9_4 C 0.4721(2) 0.4325(3) 0.2362(3)
C10_4 C 0.3615(2) 0.4650(3) 0.1454(3)
N3_4 N 0.64308(13) 0.9328(2) 0.2858(2)
C13_4 C 0.4177(2) 0.8534(3) 0.0226(3)
C14_4 C 0.6023(2) 0.6699(3) 0.4128(3)
C15_4 C 0.53835(17) 0.9937(3) 0.3413(3)
C16_4 C 0.54523(19) 0.9368(3) 0.4254(3)
C17_4 C 0.4915(2) 0.8871(3) 0.4259(3)
C18_4 C 0.4337(2) 0.8918(3) 0.3490(4)
C19_4 C 0.4275(2) 0.9500(3) 0.2697(4)
C21_4 C 0.67479(18) 0.7953(3) 0.1666(3)
C22_4 C 0.5322(2) 0.6247(4) 0.0126(4)
C23_4 C 0.3464(2) 0.7651(3) 0.0996(3)
C24_4 C 0.54327(18) 0.6505(3) 0.4293(3)
H1_3 H 0.5155 0.4503 0.2637
C25_4 C 0.4551(3) 0.3466(4) 0.2454(4)
C26_4 C 0.3445(3) 0.3788(4) 0.1566(5)
H2_4 H 0.3293 0.5049 0.1097
C28_4 C 0.70012(17) 0.8919(3) 0.3251(3)
H5_4 H 0.3925 0.9034 0.0244
C29_4 C 0.6527(3) 0.7009(4) 0.4924(4)
H6_4 H 0.6074 0.6619 0.3478
C30_3 C 0.6067(2) 0.9368(4) 0.5122(3)
H7_4 H 0.4949 0.8489 0.4811
H8_4 H 0.3988 0.8557 0.3504
H9_4 H 0.3874 0.9550 0.2183
C32_4 C 0.71012(17) 0.8105(2) 0.2695(3)
H10_4 H 0.6415 0.8339 0.1316
C33_4 C 0.6899(2) 0.7225(3) 0.1177(4)
H12_4 H 0.5553 0.6067 0.0820
H14_4 H 0.3178 0.7183 0.0644
H15_4 H 0.3627 0.7516 0.1721
H16_4 H 0.3227 0.8202 0.0900
C34_3 C 0.5370(3) 0.6601(3) 0.5256(3)
H17_4 H 0.4874 0.3059 0.2787
C35_4 C 0.3922(4) 0.3188(4) 0.2073(5)
H18_4 H 0.3010 0.3608 0.1302
C37_3 C 0.6476(3) 0.7095(5) 0.5875(5)
H19_4 H 0.6917 0.7165 0.4805
H20_3 H 0.6021 0.8981 0.5658
H21_4 H 0.6420 0.9161 0.4885
H22_3 H 0.6160 0.9961 0.5389
C38_4 C 0.7587(2) 0.7522(3) 0.3180(3)
H26_4 H 0.6671 0.7130 0.0484
C39_4 C 0.7373(3) 0.6636(4) 0.1672(4)
H27_2 H 0.4975 0.6475 0.5375
C40_3 C 0.5908(3) 0.6892(4) 0.6060(4)
H28_4 H 0.3813 0.2600 0.2151
H29_3 H 0.6833 0.7295 0.6411
C42_4 C 0.7717(3) 0.6800(3) 0.2676(5)
H30_4 H 0.7832 0.7621 0.3865
H31_4 H 0.7460 0.6136 0.1333
H32_3 H 0.5876 0.6946 0.6724
H35_4 H 0.8047 0.6409 0.3024
C11_3 C 0.5067(2) 0.7882(4) 0.9821(3)
C12_4 C 0.4700(3) 0.8606(3) 0.9853(3)
H3_3 H 0.5423 0.7940 0.9569
H4_4 H 0.4802 0.9153 0.9622
H11_3 H 0.5631 0.6374 0.9762
H13_3 H 0.5036 0.5777 0.9781
H27_3 H 0.9975 0.8525 0.0375
C11_4 C 0.0067(2) 0.2882(4) 0.9821(3)
H3_4 H 0.0423 0.2940 0.9569
H11_4 H 0.0631 0.1374 0.9762
H13_4 H 0.0036 0.0777 0.9781
H1_4 H 0.0155 0.9503 0.2637
C30_4 C 0.6067(2) 0.0632(4) 0.0122(3)
C34_4 C 0.5370(3) 0.3399(3) 0.0256(3)
C37_4 C 0.6476(3) 0.2905(5) 0.0875(5)
H20_4 H 0.6021 0.1019 0.0658
H22_4 H 0.6160 0.0039 0.0389
H27_4 H 0.4975 0.3525 0.0375
C40_4 C 0.5908(3) 0.3108(4) 0.1060(4)
H29_4 H 0.6833 0.2705 0.1411
H32_4 H 0.5876 0.3054 0.1724
loop_
_geom_bond_atom_site_label_1
_geom_bond_atom_site_label_2
_geom_bond_site_symmetry_1
_geom_bond_site_symmetry_2
H20 C30 1_555 1_555
H22 C30 1_555 1_555
C40 C34 1_555 1_555
H29 C37 1_555 1_555
H32 C40 1_555 1_555
C37 C40 1_555 1_555
O2 C28 1_555 1_555
C1 C2 1_555 1_555
C2 H36 1_555 1_555
N3 K2 1_555 1_555
C11 K2 1_555 1_555
C14 K2 1_555 1_555
C15 K2 1_555 1_555
C16 K2 1_555 1_555
C21 K2 1_555 1_555
C27 N3 1_555 1_555
C28 N3 1_555 1_555
H3 C11 1_555 1_555
C29 C14 1_555 1_555
H6 C14 1_555 1_555
N4 C15 1_555 1_555
C32 C21 1_555 1_555
H10 C21 1_555 1_555
C33 C21 1_555 1_555
H11 C22 1_555 1_555
H12 C22 1_555 1_555
H13 C22 1_555 1_555
C36 C1 1_555 1_555
H19 C29 1_555 1_555
C38 C32 1_555 1_555
H26 C33 1_555 1_555
C39 C33 1_555 1_555
C41 C36 1_555 1_555
C42 C38 1_555 1_555
H30 C38 1_555 1_555
H31 C39 1_555 1_555
H33 C1 1_555 1_555
C43 C41 1_555 1_555
H34 C41 1_555 1_555
H35 C42 1_555 1_555
C44 C2 1_555 1_555
H37 C43 1_555 1_555
H38 C44 1_555 1_555
K4 O2 1_555 1_555
C1 K4 1_555 1_555
C2 K4 1_555 1_555
C14 C24 1_555 1_555
C15 C16 1_555 1_555
C27 N4 1_555 1_555
C27 C36 1_555 1_555
C28 C32 1_555 1_555
C39 C42 1_555 1_555
C43 C44 1_555 1_555
C9 C5 1_555 1_555
C10 C5 1_555 1_555
C25 C9 1_555 1_555
C26 C10 1_555 1_555
H17 C25 1_555 1_555
C35 C25 1_555 1_555
H18 C26 1_555 1_555
H28 C35 1_555 1_555
C26 C35 1_555 1_555
C45 C46 1_555 1_555
K1 N1 1_555 1_555
N1 C3 1_555 1_555
O1 C8 1_555 1_555
C3 N2 1_555 1_555
C4 N1 1_555 1_555
C6 C4 1_555 1_555
C7 C4 1_555 1_555
C8 N2 1_555 1_555
C23 C7 1_555 1_555
H4 C12 1_555 1_555
H5 C13 1_555 1_555
H7 C17 1_555 1_555
H8 C18 1_555 1_555
H9 C19 1_555 1_555
C31 C20 1_555 1_555
H14 C23 1_555 1_555
H15 C23 1_555 1_555
H16 C23 1_555 1_555
H23 C31 1_555 1_555
H24 C31 1_555 1_555
H25 C31 1_555 1_555
O4 K1 1_555 1_555
C7 C13 1_555 1_555
C12 C13 1_555 1_555
C17 C18 1_555 1_555
C18 C19 1_555 1_555
C19 C20 1_555 1_555
O2_2 C28_2 1_555 1_555
C1_2 C2_2 1_555 1_555
C2_2 H36_2 1_555 1_555
N3_2 K2_2 1_555 1_555
C14_2 K2_2 1_555 1_555
C15_2 K2_2 1_555 1_555
C16_2 K2_2 1_555 1_555
C21_2 K2_2 1_555 1_555
C27_2 N3_2 1_555 1_555
C28_2 N3_2 1_555 1_555
C29_2 C14_2 1_555 1_555
H6_2 C14_2 1_555 1_555
N4_2 C15_2 1_555 1_555
C30_2 C16_2 1_555 1_555
C32_2 C21_2 1_555 1_555
H10_2 C21_2 1_555 1_555
C33_2 C21_2 1_555 1_555
H12_2 C22_2 1_555 1_555
C34_2 C24_2 1_555 1_555
C36_2 C1_2 1_555 1_555
C37_2 C29_2 1_555 1_555
H19_2 C29_2 1_555 1_555
H20_2 C30_2 1_555 1_555
H21_2 C30_2 1_555 1_555
H22_2 C30_2 1_555 1_555
C38_2 C32_2 1_555 1_555
H26_2 C33_2 1_555 1_555
C39_2 C33_2 1_555 1_555
C40_2 C34_2 1_555 1_555
C41_2 C36_2 1_555 1_555
H29_2 C37_2 1_555 1_555
C42_2 C38_2 1_555 1_555
H30_2 C38_2 1_555 1_555
H31_2 C39_2 1_555 1_555
H32_2 C40_2 1_555 1_555
H33_2 C1_2 1_555 1_555
C43_2 C41_2 1_555 1_555
H34_2 C41_2 1_555 1_555
H35_2 C42_2 1_555 1_555
C44_2 C2_2 1_555 1_555
H37_2 C43_2 1_555 1_555
H38_2 C44_2 1_555 1_555
K4_2 O2_2 1_555 1_555
C1_2 K4_2 1_555 1_555
C2_2 K4_2 1_555 1_555
C14_2 C24_2 1_555 1_555
C15_2 C16_2 1_555 1_555
C27_2 N4_2 1_555 1_555
C27_2 C36_2 1_555 1_555
C28_2 C32_2 1_555 1_555
C37_2 C40_2 1_555 1_555
C39_2 C42_2 1_555 1_555
C43_2 C44_2 1_555 1_555
N1_2 C3_2 1_555 1_555
O3 C8_2 1_555 1_555
C3_2 N2_2 1_555 1_555
C4_2 N1_2 1_555 1_555
C6_2 C4_2 1_555 1_555
C7_2 C4_2 1_555 1_555
C8_2 N2_2 1_555 1_555
C23_2 C7_2 1_555 1_555
H5_2 C13_2 1_555 1_555
H7_2 C17_2 1_555 1_555
H8_2 C18_2 1_555 1_555
H9_2 C19_2 1_555 1_555
C31_2 C20_2 1_555 1_555
H14_2 C23_2 1_555 1_555
H15_2 C23_2 1_555 1_555
H16_2 C23_2 1_555 1_555
H23_2 C31_2 1_555 1_555
H24_2 C31_2 1_555 1_555
H25_2 C31_2 1_555 1_555
C7_2 C13_2 1_555 1_555
C17_2 C18_2 1_555 1_555
C18_2 C19_2 1_555 1_555
C19_2 C20_2 1_555 1_555
H4_2 C12_2 1_555 1_555
O4_2 K3 1_555 1_555
C9_2 C5_2 1_555 1_555
C10_2 C5_2 1_555 1_555
C25_2 C9_2 1_555 1_555
C26_2 C10_2 1_555 1_555
H17_2 C25_2 1_555 1_555
C35_2 C25_2 1_555 1_555
H18_2 C26_2 1_555 1_555
H28_2 C35_2 1_555 1_555
C26_2 C35_2 1_555 1_555
C45_2 C46_2 1_555 1_555
K4_2 N1_3 1_555 1_555
N1_3 C3_3 1_555 1_555
O1_2 C8_3 1_555 1_555
O4_2 C28_3 1_555 1_555
C3_3 N2_3 1_555 1_555
C4_3 N1_3 1_555 1_555
N2_3 K2_3 1_555 1_555
C5_3 C3_3 1_555 1_555
K2_3 C4_3 1_555 1_555
C6_3 C4_3 1_555 1_555
C7_3 C4_3 1_555 1_555
C8_3 N2_3 1_555 1_555
C9_3 C5_3 1_555 1_555
C10_3 C5_3 1_555 1_555
N3_3 K2_3 1_555 1_555
C11_2 K2_3 1_555 1_555
C12_3 K2_3 1_555 1_555
C13_3 K2_3 1_555 1_555
C14_3 K2_3 1_555 1_555
C15_3 K2_3 1_555 1_555
C16_3 K2_3 1_555 1_555
C17_3 K2_3 1_555 1_555
C18_3 K2_3 1_555 1_555
C19_3 K2_3 1_555 1_555
C21_3 K2_3 1_555 1_555
C22_3 C6_3 1_555 1_555
C23_3 C7_3 1_555 1_555
C24_3 C8_3 1_555 1_555
H1_2 C9_3 1_555 1_555
C25_3 C9_3 1_555 1_555
C26_3 C10_3 1_555 1_555
H2_3 C10_3 1_555 1_555
C28_3 N3_3 1_555 1_555
H3_2 C11_2 1_555 1_555
H4_3 C12_3 1_555 1_555
H5_3 C13_3 1_555 1_555
C29_3 C14_3 1_555 1_555
H6_3 C14_3 1_555 1_555
H7_3 C17_3 1_555 1_555
H8_3 C18_3 1_555 1_555
H9_3 C19_3 1_555 1_555
C32_3 C21_3 1_555 1_555
H10_3 C21_3 1_555 1_555
C33_3 C21_3 1_555 1_555
H11_2 C22_3 1_555 1_555
H12_3 C22_3 1_555 1_555
H13_2 C22_3 1_555 1_555
H14_3 C23_3 1_555 1_555
H15_3 C23_3 1_555 1_555
H16_3 C23_3 1_555 1_555
H17_3 C25_3 1_555 1_555
C35_3 C25_3 1_555 1_555
H18_3 C26_3 1_555 1_555
H19_3 C29_3 1_555 1_555
C38_3 C32_3 1_555 1_555
H26_3 C33_3 1_555 1_555
C39_3 C33_3 1_555 1_555
H28_3 C35_3 1_555 1_555
C42_3 C38_3 1_555 1_555
H30_3 C38_3 1_555 1_555
H31_3 C39_3 1_555 1_555
H35_3 C42_3 1_555 1_555
K4 O1_2 1_555 1_555
O3_2 K4_2 1_555 1_555
K2_3 C6_3 1_555 1_555
K2_3 C7_3 1_555 1_555
C6_3 C11_2 1_555 1_555
C7_3 C13_3 1_555 1_555
C11_2 C12_3 1_555 1_555
C12_3 C13_3 1_555 1_555
C14_3 C24_3 1_555 1_555
C15_3 C16_3 1_555 1_555
C16_3 C17_3 1_555 1_555
C17_3 C18_3 1_555 1_555
C18_3 C19_3 1_555 1_555
C26_3 C35_3 1_555 1_555
C28_3 C32_3 1_555 1_555
C39_3 C42_3 1_555 1_555
C46_2 H36_3 1_555 1_555
C31_3 C20_3 1_555 1_555
C36_3 C45_2 1_555 1_555
H23_3 C31_3 1_555 1_555
H24_3 C31_3 1_555 1_555
H25_3 C31_3 1_555 1_555
C41_3 C36_3 1_555 1_555
H33_3 C45_2 1_555 1_555
C43_3 C41_3 1_555 1_555
H34_3 C41_3 1_555 1_555
C44_3 C46_2 1_555 1_555
H37_3 C43_3 1_555 1_555
H38_3 C44_3 1_555 1_555
C27_3 N4_3 1_555 1_555
C27_3 C36_3 1_555 1_555
C43_3 C44_3 1_555 1_555
C46 H36_4 1_555 1_555
C31_4 C20_4 1_555 1_555
C36_4 C45 1_555 1_555
H23_4 C31_4 1_555 1_555
H24_4 C31_4 1_555 1_555
H25_4 C31_4 1_555 1_555
C41_4 C36_4 1_555 1_555
H33_4 C45 1_555 1_555
C43_4 C41_4 1_555 1_555
H34_4 C41_4 1_555 1_555
C44_4 C46 1_555 1_555
H37_4 C43_4 1_555 1_555
H38_4 C44_4 1_555 1_555
C27_4 N4_4 1_555 1_555
C27_4 C36_4 1_555 1_555
C43_4 C44_4 1_555 1_555
N1_4 C3_4 1_555 1_555
O3_2 C8_4 1_555 1_555
O4 C28_4 1_555 1_555
C3_4 N2_4 1_555 1_555
C4_4 N1_4 1_555 1_555
N2_4 K2_4 1_555 1_555
C5_4 C3_4 1_555 1_555
K2_4 C4_4 1_555 1_555
C6_4 C4_4 1_555 1_555
C7_4 C4_4 1_555 1_555
C8_4 N2_4 1_555 1_555
C9_4 C5_4 1_555 1_555
C10_4 C5_4 1_555 1_555
N3_4 K2_4 1_555 1_555
C13_4 K2_4 1_555 1_555
C14_4 K2_4 1_555 1_555
C15_4 K2_4 1_555 1_555
C16_4 K2_4 1_555 1_555
C17_4 K2_4 1_555 1_555
C18_4 K2_4 1_555 1_555
C19_4 K2_4 1_555 1_555
C21_4 K2_4 1_555 1_555
C22_4 C6_4 1_555 1_555
C23_4 C7_4 1_555 1_555
C24_4 C8_4 1_555 1_555
H1_3 C9_4 1_555 1_555
C25_4 C9_4 1_555 1_555
C26_4 C10_4 1_555 1_555
H2_4 C10_4 1_555 1_555
C28_4 N3_4 1_555 1_555
H5_4 C13_4 1_555 1_555
C29_4 C14_4 1_555 1_555
H6_4 C14_4 1_555 1_555
C30_3 C16_4 1_555 1_555
H7_4 C17_4 1_555 1_555
H8_4 C18_4 1_555 1_555
H9_4 C19_4 1_555 1_555
C32_4 C21_4 1_555 1_555
H10_4 C21_4 1_555 1_555
C33_4 C21_4 1_555 1_555
H12_4 C22_4 1_555 1_555
H14_4 C23_4 1_555 1_555
H15_4 C23_4 1_555 1_555
H16_4 C23_4 1_555 1_555
C34_3 C24_4 1_555 1_555
H17_4 C25_4 1_555 1_555
C35_4 C25_4 1_555 1_555
H18_4 C26_4 1_555 1_555
C37_3 C29_4 1_555 1_555
H19_4 C29_4 1_555 1_555
H20_3 C30_3 1_555 1_555
H21_4 C30_3 1_555 1_555
H22_3 C30_3 1_555 1_555
C38_4 C32_4 1_555 1_555
H26_4 C33_4 1_555 1_555
C39_4 C33_4 1_555 1_555
H27_2 C34_3 1_555 1_555
C40_3 C34_3 1_555 1_555
H28_4 C35_4 1_555 1_555
H29_3 C37_3 1_555 1_555
C42_4 C38_4 1_555 1_555
H30_4 C38_4 1_555 1_555
H31_4 C39_4 1_555 1_555
H32_3 C40_3 1_555 1_555
H35_4 C42_4 1_555 1_555
K2_4 C6_4 1_555 1_555
K2_4 C7_4 1_555 1_555
C7_4 C13_4 1_555 1_555
C14_4 C24_4 1_555 1_555
C15_4 C16_4 1_555 1_555
C16_4 C17_4 1_555 1_555
C17_4 C18_4 1_555 1_555
C18_4 C19_4 1_555 1_555
C26_4 C35_4 1_555 1_555
C28_4 C32_4 1_555 1_555
C37_3 C40_3 1_555 1_555
C39_4 C42_4 1_555 1_555
H3_3 C11_3 1_555 1_555
H4_4 C12_4 1_555 1_555
C11_3 C12_4 1_555 1_555
H3_4 C11_4 1_555 1_555
H20_4 C30_4 1_555 1_555
H22_4 C30_4 1_555 1_555
H27_4 C34_4 1_555 1_555
C40_4 C34_4 1_555 1_555
H29_4 C37_4 1_555 1_555
H32_4 C40_4 1_555 1_555
C37_4 C40_4 1_555 1_555

#END
