
###############################################################################
#
# This file contains modified crystal structure data generated from the
# MOF subset of the Cambridge Structural Database (CSD) v543 
# hosted by the Cambridge Crystallographic Data Centre (CCDC).
#
# This work is licensed under the Creative Commons
# Attribution-NonCommercial-ShareAlike 4.0 International License.
# To view a copy of this license, visit
# http://creativecommons.org/licenses/by-nc-sa/4.0/
# or send a letter to
# Creative Commons, PO Box 1866, Mountain View, CA 94042, USA.
#
# CIF created using the CSD Python API on 29 September 2022
# The structure has been converted into the P1 space group
# The structure has a 3D framework
# The original CSD entry ARUCIB is in the monoclinic crystal system
# The framework has been calculated to contain at least 10.0% void space
# The void calculation uses a probe of radius 1.32A, grid spacing 0.4
#
###############################################################################

data_ARUCIB
_chemical_formula_moiety         '(C256 H176 Co4 N32 O48)n'
_symmetry_cell_setting           triclinic
_symmetry_space_group_name_H-M   'P 1'
_symmetry_Int_Tables_number      1
_space_group_name_Hall           'P 1'
loop_
_symmetry_equiv_pos_site_id
_symmetry_equiv_pos_as_xyz
1 x,y,z
_cell_length_a                   17.0207(11)
_cell_length_b                   10.7350(6)
_cell_length_c                   39.399(3)
_cell_angle_alpha                90
_cell_angle_beta                 100.719(4)
_cell_angle_gamma                90
_cell_volume                     7073.26
loop_
_atom_site_label
_atom_site_type_symbol
_atom_site_fract_x
_atom_site_fract_y
_atom_site_fract_z
Co1 Co 0.37204(4) 0.21034(7) 0.53117(2)
C1 C 0.4005(4) 0.4228(6) 0.48199(16)
H1 H 0.3677 0.4650 0.4946
C2 C 0.4282(4) 0.4870(6) 0.45621(16)
H2 H 0.4149 0.5704 0.4522
C3 C 0.4757(3) 0.4270(6) 0.43647(14)
C4 C 0.4961(4) 0.3047(6) 0.44474(15)
H3 H 0.5292 0.2608 0.4327
C5 C 0.4666(4) 0.2492(6) 0.47114(16)
H4 H 0.4815 0.1671 0.4764
C6 C 0.5353(3) 0.4483(6) 0.38380(14)
C7 C 0.5573(3) 0.5409(6) 0.35878(14)
C8 C 0.5430(4) 0.6687(6) 0.35980(16)
H5 H 0.5181 0.7012 0.3769
C9 C 0.5656(4) 0.7476(6) 0.33549(15)
H6 H 0.5560 0.8327 0.3364
C10 C 0.6025(4) 0.7000(6) 0.30986(15)
C11 C 0.6177(4) 0.5748(6) 0.30888(16)
H7 H 0.6429 0.5429 0.2917
C12 C 0.5958(4) 0.4957(6) 0.33310(15)
H8 H 0.6070 0.4111 0.3323
C13 C 0.6581(4) 0.7503(6) 0.26006(16)
C14 C 0.7345(4) 0.7905(7) 0.25973(16)
H9 H 0.7612 0.8396 0.2777
C15 C 0.7715(4) 0.7580(7) 0.23268(17)
H10 H 0.8230 0.7858 0.2323
C16 C 0.7316(4) 0.6832(6) 0.20585(15)
C17 C 0.6546(4) 0.6466(7) 0.20621(16)
H11 H 0.6273 0.5989 0.1881
C18 C 0.6167(4) 0.6798(7) 0.23334(18)
H12 H 0.5644 0.6548 0.2334
C19 C 0.7793(4) 0.6485(6) 0.17839(15)
C20 C 0.7789(4) 0.5064(6) 0.12883(14)
C21 C 0.8443(4) 0.5504(6) 0.11673(15)
H13 H 0.8718 0.6203 0.1265
C22 C 0.8685(4) 0.4870(6) 0.08928(16)
H14 H 0.9131 0.5170 0.0814
C23 C 0.7682(4) 0.3479(7) 0.08566(17)
H15 H 0.7414 0.2778 0.0755
C24 C 0.7392(4) 0.4051(7) 0.11223(17)
H16 H 0.6930 0.3754 0.1189
C25 C 0.2501(3) 0.0884(6) 0.46905(14)
N1 N 0.4180(3) 0.3036(4) 0.48999(12)
N2 N 0.5024(3) 0.4953(5) 0.41020(12)
H21 H 0.4974 0.5750 0.4109
N3 N 0.7471(3) 0.5559(5) 0.15645(12)
H22 H 0.7027 0.5246 0.1598
N4 N 0.8320(3) 0.3869(5) 0.07370(12)
O1 O 0.5452(3) 0.3372(4) 0.37999(11)
O2 O 0.6218(3) 0.7879(4) 0.28722(12)
O3 O 0.8412(3) 0.6993(4) 0.17658(12)
O4 O 0.2885(2) 0.1180(4) 0.49836(10)
O5 O 0.1820(2) 0.1335(4) 0.45586(10)
Co3 Co 0.12796(4) 0.28966(7) 0.46883(2)
Co4 Co 0.87204(4) 0.28966(7) 0.03117(2)
N5 N 0.3320(3) 0.1131(5) 0.57370(12)
O8 O 0.3180(2) 0.3665(4) 0.54414(10)
O9 O 0.4710(2) 0.0839(4) 0.53415(9)
O10 O 0.4892(2) 0.2528(4) 0.56563(10)
C26 C 0.2845(3) 0.9935(6) 0.44834(14)
C27 C 0.3639(3) 0.9599(5) 0.45693(14)
H17 H 0.3960 0.9950 0.4763
C28 C 0.3966(3) 0.8739(5) 0.43691(14)
C29 C 0.3475(4) 0.8163(7) 0.40928(17)
H18 H 0.3686 0.7570 0.3963
C30 C 0.2672(4) 0.8470(7) 0.40107(18)
H19 H 0.2339 0.8070 0.3829
C31 C 0.2367(4) 0.9379(7) 0.42010(17)
H20 H 0.1835 0.9618 0.4138
C32 C 0.4839(3) 0.8453(6) 0.44625(14)
O6 O 0.5290(2) 0.9161(4) 0.46585(9)
O7 O 0.5108(2) 0.7472(4) 0.43437(10)
Co2 Co 0.62796(4) 0.78966(7) 0.46883(2)
C1_2 C 0.5995(4) 0.4228(6) 0.01801(16)
H1_2 H 0.6323 0.4650 0.0054
C2_2 C 0.5718(4) 0.4870(6) 0.04379(16)
H2_2 H 0.5851 0.5704 0.0478
C3_2 C 0.5243(3) 0.4270(6) 0.06353(14)
C4_2 C 0.5039(4) 0.3047(6) 0.05526(15)
H3_2 H 0.4708 0.2608 0.0673
C5_2 C 0.5334(4) 0.2492(6) 0.02886(16)
H4_2 H 0.5185 0.1671 0.0236
C6_2 C 0.4647(3) 0.4483(6) 0.11620(14)
C7_2 C 0.4427(3) 0.5409(6) 0.14122(14)
C8_2 C 0.4570(4) 0.6687(6) 0.14020(16)
H5_2 H 0.4819 0.7012 0.1231
C9_2 C 0.4344(4) 0.7476(6) 0.16451(15)
H6_2 H 0.4440 0.8327 0.1636
C10_2 C 0.3975(4) 0.7000(6) 0.19014(15)
C11_2 C 0.3823(4) 0.5748(6) 0.19112(16)
H7_2 H 0.3571 0.5429 0.2083
C12_2 C 0.4042(4) 0.4957(6) 0.16690(15)
H8_2 H 0.3930 0.4111 0.1677
C13_2 C 0.3419(4) 0.7503(6) 0.23994(16)
C14_2 C 0.2655(4) 0.7905(7) 0.24027(16)
H9_2 H 0.2388 0.8396 0.2223
C15_2 C 0.2285(4) 0.7580(7) 0.26732(17)
H10_2 H 0.1770 0.7858 0.2677
C16_2 C 0.2684(4) 0.6832(6) 0.29415(15)
C17_2 C 0.3454(4) 0.6466(7) 0.29379(16)
H11_2 H 0.3727 0.5989 0.3119
C18_2 C 0.3833(4) 0.6798(7) 0.26666(18)
H12_2 H 0.4356 0.6548 0.2666
C19_2 C 0.2207(4) 0.6485(6) 0.32161(15)
C20_2 C 0.2211(4) 0.5064(6) 0.37117(14)
C21_2 C 0.1557(4) 0.5504(6) 0.38327(15)
H13_2 H 0.1282 0.6203 0.3735
C22_2 C 0.1315(4) 0.4870(6) 0.41072(16)
H14_2 H 0.0869 0.5170 0.4186
C23_2 C 0.2318(4) 0.3479(7) 0.41434(17)
H15_2 H 0.2586 0.2778 0.4245
C24_2 C 0.2608(4) 0.4051(7) 0.38777(17)
H16_2 H 0.3070 0.3754 0.3811
C25_2 C 0.7499(3) 0.0884(6) 0.03095(14)
N1_2 N 0.5820(3) 0.3036(4) 0.01001(12)
N2_2 N 0.4976(3) 0.4953(5) 0.08980(12)
H21_2 H 0.5026 0.5750 0.0891
N3_2 N 0.2529(3) 0.5559(5) 0.34355(12)
H22_2 H 0.2973 0.5246 0.3402
N4_2 N 0.1680(3) 0.3869(5) 0.42630(12)
O1_2 O 0.4548(3) 0.3372(4) 0.12001(11)
O2_2 O 0.3782(3) 0.7879(4) 0.21278(12)
O3_2 O 0.1588(3) 0.6993(4) 0.32342(12)
O4_2 O 0.7115(2) 0.1180(4) 0.00164(10)
O5_2 O 0.8180(2) 0.1335(4) 0.04414(10)
Co1_2 Co 0.62796(4) 0.21034(7) 0.96883(2)
N5_2 N 0.6680(3) 0.1131(5) 0.92630(12)
O8_2 O 0.6820(2) 0.3665(4) 0.95586(10)
O9_2 O 0.5290(2) 0.0839(4) 0.96585(9)
O10_2 O 0.5108(2) 0.2528(4) 0.93437(10)
C26_2 C 0.7155(3) 0.9935(6) 0.05166(14)
C27_2 C 0.6361(3) 0.9599(5) 0.04307(14)
H17_2 H 0.6040 0.9950 0.0237
C28_2 C 0.6034(3) 0.8739(5) 0.06309(14)
C29_2 C 0.6525(4) 0.8163(7) 0.09072(17)
H18_2 H 0.6314 0.7570 0.1037
C30_2 C 0.7328(4) 0.8470(7) 0.09893(18)
H19_2 H 0.7661 0.8070 0.1171
C31_2 C 0.7633(4) 0.9379(7) 0.07990(17)
H20_2 H 0.8165 0.9618 0.0862
C32_2 C 0.5161(3) 0.8453(6) 0.05375(14)
O6_2 O 0.4710(2) 0.9161(4) 0.03415(9)
O7_2 O 0.4892(2) 0.7472(4) 0.06563(10)
Co2_2 Co 0.37204(4) 0.78966(7) 0.03117(2)
H3_3 H 0.0292 0.7608 0.4327
C6_3 C 0.0353(3) 0.9483(6) 0.38380(14)
C12_3 C 0.0958(4) 0.9957(6) 0.33310(15)
H8_3 H 0.1070 0.9111 0.3323
C22_3 C 0.3685(4) 0.9870(6) 0.08928(16)
C23_3 C 0.2682(4) 0.8479(7) 0.08566(17)
H15_3 H 0.2414 0.7778 0.0755
C24_3 C 0.2392(4) 0.9051(7) 0.11223(17)
H16_3 H 0.1930 0.8754 0.1189
N2_3 N 0.0024(3) 0.9953(5) 0.41020(12)
N4_3 N 0.3320(3) 0.8869(5) 0.07370(12)
O1_3 O 0.0452(3) 0.8372(4) 0.37999(11)
O6_3 O 0.0290(2) 0.4161(4) 0.46585(9)
O7_3 O 0.0108(2) 0.2472(4) 0.43437(10)
Co1_3 Co 0.87204(4) 0.71034(7) 0.53117(2)
C1_3 C 0.9005(4) 0.9228(6) 0.48199(16)
H1_3 H 0.8677 0.9650 0.4946
C2_3 C 0.9282(4) 0.9870(6) 0.45621(16)
C3_3 C 0.9757(3) 0.9270(6) 0.43647(14)
C4_3 C 0.9961(4) 0.8047(6) 0.44474(15)
C5_3 C 0.9666(4) 0.7492(6) 0.47114(16)
H4_3 H 0.9815 0.6671 0.4764
C25_3 C 0.7501(3) 0.5884(6) 0.46905(14)
C26_3 C 0.7845(3) 0.4935(6) 0.44834(14)
C27_3 C 0.8639(3) 0.4599(5) 0.45693(14)
H17_3 H 0.8960 0.4950 0.4763
C28_3 C 0.8966(3) 0.3739(5) 0.43691(14)
C29_3 C 0.8475(4) 0.3163(7) 0.40928(17)
H18_3 H 0.8686 0.2570 0.3963
C30_3 C 0.7672(4) 0.3470(7) 0.40107(18)
H19_3 H 0.7339 0.3070 0.3829
C31_3 C 0.7367(4) 0.4379(7) 0.42010(17)
H20_3 H 0.6835 0.4618 0.4138
C32_3 C 0.9839(3) 0.3453(6) 0.44625(14)
N1_3 N 0.9180(3) 0.8036(4) 0.48999(12)
O4_3 O 0.7885(2) 0.6180(4) 0.49836(10)
O5_3 O 0.6820(2) 0.6335(4) 0.45586(10)
N5_3 N 0.8320(3) 0.6131(5) 0.57370(12)
O8_3 O 0.8180(2) 0.8665(4) 0.54414(10)
O9_3 O 0.9710(2) 0.5839(4) 0.53415(9)
O10_3 O 0.9892(2) 0.7528(4) 0.56563(10)
C1_4 C 0.0995(4) 0.9228(6) 0.01801(16)
H1_4 H 0.1323 0.9650 0.0054
C2_4 C 0.0718(4) 0.9870(6) 0.04379(16)
C3_4 C 0.0243(3) 0.9270(6) 0.06353(14)
C4_4 C 0.0039(4) 0.8047(6) 0.05526(15)
C5_4 C 0.0334(4) 0.7492(6) 0.02886(16)
H4_4 H 0.0185 0.6671 0.0236
C25_4 C 0.2499(3) 0.5884(6) 0.03095(14)
C26_4 C 0.2155(3) 0.4935(6) 0.05166(14)
C27_4 C 0.1361(3) 0.4599(5) 0.04307(14)
H17_4 H 0.1040 0.4950 0.0237
C28_4 C 0.1034(3) 0.3739(5) 0.06309(14)
C29_4 C 0.1525(4) 0.3163(7) 0.09072(17)
H18_4 H 0.1314 0.2570 0.1037
C30_4 C 0.2328(4) 0.3470(7) 0.09893(18)
H19_4 H 0.2661 0.3070 0.1171
C31_4 C 0.2633(4) 0.4379(7) 0.07990(17)
H20_4 H 0.3165 0.4618 0.0862
C32_4 C 0.0161(3) 0.3453(6) 0.05375(14)
N1_4 N 0.0820(3) 0.8036(4) 0.01001(12)
O4_4 O 0.2115(2) 0.6180(4) 0.00164(10)
O5_4 O 0.3180(2) 0.6335(4) 0.04414(10)
Co1_4 Co 0.12796(4) 0.71034(7) 0.96883(2)
N5_4 N 0.1680(3) 0.6131(5) 0.92630(12)
O8_4 O 0.1820(2) 0.8665(4) 0.95586(10)
O9_4 O 0.0290(2) 0.5839(4) 0.96585(9)
O10_4 O 0.0108(2) 0.7528(4) 0.93437(10)
H3_4 H 0.9708 0.7608 0.0673
C6_4 C 0.9647(3) 0.9483(6) 0.11620(14)
C12_4 C 0.9042(4) 0.9957(6) 0.16690(15)
H8_4 H 0.8930 0.9111 0.1677
C22_4 C 0.6315(4) 0.9870(6) 0.41072(16)
C23_4 C 0.7318(4) 0.8479(7) 0.41434(17)
H15_4 H 0.7586 0.7778 0.4245
C24_4 C 0.7608(4) 0.9051(7) 0.38777(17)
H16_4 H 0.8070 0.8754 0.3811
N2_4 N 0.9976(3) 0.9953(5) 0.08980(12)
N4_4 N 0.6680(3) 0.8869(5) 0.42630(12)
O1_4 O 0.9548(3) 0.8372(4) 0.12001(11)
O6_4 O 0.9710(2) 0.4161(4) 0.03415(9)
O7_4 O 0.9892(2) 0.2472(4) 0.06563(10)
C26_5 C 0.7155(3) 0.0065(6) 0.55166(14)
C27_5 C 0.6361(3) 0.0401(5) 0.54307(14)
H17_5 H 0.6040 0.0050 0.5237
C28_5 C 0.6034(3) 0.1261(5) 0.56309(14)
C29_5 C 0.6525(4) 0.1837(7) 0.59072(17)
H18_5 H 0.6314 0.2430 0.6037
C30_5 C 0.7328(4) 0.1530(7) 0.59893(18)
H19_5 H 0.7661 0.1930 0.6171
C31_5 C 0.7633(4) 0.0621(7) 0.57990(17)
H20_5 H 0.8165 0.0382 0.5862
C32_5 C 0.5161(3) 0.1547(6) 0.55375(14)
C1_5 C 0.5995(4) 0.5772(6) 0.51801(16)
H1_5 H 0.6323 0.5350 0.5054
C2_5 C 0.5718(4) 0.5130(6) 0.54379(16)
H2_3 H 0.5851 0.4296 0.5478
C3_5 C 0.5243(3) 0.5730(6) 0.56353(14)
C4_5 C 0.5039(4) 0.6953(6) 0.55526(15)
H3_5 H 0.4708 0.7392 0.5673
C5_5 C 0.5334(4) 0.7508(6) 0.52886(16)
H4_5 H 0.5185 0.8329 0.5236
C6_5 C 0.4647(3) 0.5517(6) 0.61620(14)
C7_3 C 0.4427(3) 0.4591(6) 0.64122(14)
C8_3 C 0.4570(4) 0.3313(6) 0.64020(16)
H5_3 H 0.4819 0.2988 0.6231
C9_3 C 0.4344(4) 0.2524(6) 0.66451(15)
H6_3 H 0.4440 0.1673 0.6636
C10_3 C 0.3975(4) 0.3000(6) 0.69014(15)
C11_3 C 0.3823(4) 0.4252(6) 0.69112(16)
H7_3 H 0.3571 0.4571 0.7083
C12_5 C 0.4042(4) 0.5043(6) 0.66690(15)
H8_5 H 0.3930 0.5889 0.6677
C13_3 C 0.3419(4) 0.2497(6) 0.73994(16)
C14_3 C 0.2655(4) 0.2095(7) 0.74027(16)
H9_3 H 0.2388 0.1604 0.7223
C15_3 C 0.2285(4) 0.2420(7) 0.76732(17)
H10_3 H 0.1770 0.2142 0.7677
C16_3 C 0.2684(4) 0.3168(6) 0.79415(15)
C17_3 C 0.3454(4) 0.3534(7) 0.79379(16)
H11_3 H 0.3727 0.4011 0.8119
C18_3 C 0.3833(4) 0.3202(7) 0.76666(18)
H12_3 H 0.4356 0.3452 0.7666
C19_3 C 0.2207(4) 0.3515(6) 0.82161(15)
C20_3 C 0.2211(4) 0.4936(6) 0.87117(14)
C21_3 C 0.1557(4) 0.4496(6) 0.88327(15)
H13_3 H 0.1282 0.3797 0.8735
C22_5 C 0.1315(4) 0.5130(6) 0.91072(16)
H14_3 H 0.0869 0.4830 0.9186
C23_5 C 0.2318(4) 0.6521(7) 0.91434(17)
H15_5 H 0.2586 0.7222 0.9245
C24_5 C 0.2608(4) 0.5949(7) 0.88777(17)
H16_5 H 0.3070 0.6246 0.8811
C25_5 C 0.7499(3) 0.9116(6) 0.53095(14)
N1_5 N 0.5820(3) 0.6964(4) 0.51001(12)
N2_5 N 0.4976(3) 0.5047(5) 0.58980(12)
H21_3 H 0.5026 0.4250 0.5891
N3_3 N 0.2529(3) 0.4441(5) 0.84355(12)
H22_3 H 0.2973 0.4754 0.8402
O1_5 O 0.4548(3) 0.6628(4) 0.62001(11)
O2_3 O 0.3782(3) 0.2121(4) 0.71278(12)
O3_3 O 0.1588(3) 0.3007(4) 0.82342(12)
O4_5 O 0.7115(2) 0.8820(4) 0.50164(10)
C26_6 C 0.2845(3) 0.0065(6) 0.94834(14)
C27_6 C 0.3639(3) 0.0401(5) 0.95693(14)
H17_6 H 0.3960 0.0050 0.9763
C28_6 C 0.3966(3) 0.1261(5) 0.93691(14)
C29_6 C 0.3475(4) 0.1837(7) 0.90928(17)
H18_6 H 0.3686 0.2430 0.8963
C30_6 C 0.2672(4) 0.1530(7) 0.90107(18)
H19_6 H 0.2339 0.1930 0.8829
C31_6 C 0.2367(4) 0.0621(7) 0.92010(17)
H20_6 H 0.1835 0.0382 0.9138
C32_6 C 0.4839(3) 0.1547(6) 0.94625(14)
C1_6 C 0.4005(4) 0.5772(6) 0.98199(16)
H1_6 H 0.3677 0.5350 0.9946
C2_6 C 0.4282(4) 0.5130(6) 0.95621(16)
H2_4 H 0.4149 0.4296 0.9522
C3_6 C 0.4757(3) 0.5730(6) 0.93647(14)
C4_6 C 0.4961(4) 0.6953(6) 0.94474(15)
H3_6 H 0.5292 0.7392 0.9327
C5_6 C 0.4666(4) 0.7508(6) 0.97114(16)
H4_6 H 0.4815 0.8329 0.9764
C6_6 C 0.5353(3) 0.5517(6) 0.88380(14)
C7_4 C 0.5573(3) 0.4591(6) 0.85878(14)
C8_4 C 0.5430(4) 0.3313(6) 0.85980(16)
H5_4 H 0.5181 0.2988 0.8769
C9_4 C 0.5656(4) 0.2524(6) 0.83549(15)
H6_4 H 0.5560 0.1673 0.8364
C10_4 C 0.6025(4) 0.3000(6) 0.80986(15)
C11_4 C 0.6177(4) 0.4252(6) 0.80888(16)
H7_4 H 0.6429 0.4571 0.7917
C12_6 C 0.5958(4) 0.5043(6) 0.83310(15)
H8_6 H 0.6070 0.5889 0.8323
C13_4 C 0.6581(4) 0.2497(6) 0.76006(16)
C14_4 C 0.7345(4) 0.2095(7) 0.75973(16)
H9_4 H 0.7612 0.1604 0.7777
C15_4 C 0.7715(4) 0.2420(7) 0.73268(17)
H10_4 H 0.8230 0.2142 0.7323
C16_4 C 0.7316(4) 0.3168(6) 0.70585(15)
C17_4 C 0.6546(4) 0.3534(7) 0.70621(16)
H11_4 H 0.6273 0.4011 0.6881
C18_4 C 0.6167(4) 0.3202(7) 0.73334(18)
H12_4 H 0.5644 0.3452 0.7334
C19_4 C 0.7793(4) 0.3515(6) 0.67839(15)
C20_4 C 0.7789(4) 0.4936(6) 0.62883(14)
C21_4 C 0.8443(4) 0.4496(6) 0.61673(15)
H13_4 H 0.8718 0.3797 0.6265
C22_6 C 0.8685(4) 0.5130(6) 0.58928(16)
H14_4 H 0.9131 0.4830 0.5814
C23_6 C 0.7682(4) 0.6521(7) 0.58566(17)
H15_6 H 0.7414 0.7222 0.5755
C24_6 C 0.7392(4) 0.5949(7) 0.61223(17)
H16_6 H 0.6930 0.6246 0.6189
C25_6 C 0.2501(3) 0.9116(6) 0.96905(14)
N1_6 N 0.4180(3) 0.6964(4) 0.98999(12)
N2_6 N 0.5024(3) 0.5047(5) 0.91020(12)
H21_4 H 0.4974 0.4250 0.9109
N3_4 N 0.7471(3) 0.4441(5) 0.65645(12)
H22_4 H 0.7027 0.4754 0.6598
O1_6 O 0.5452(3) 0.6628(4) 0.87999(11)
O2_4 O 0.6218(3) 0.2121(4) 0.78722(12)
O3_4 O 0.8412(3) 0.3007(4) 0.67658(12)
O4_6 O 0.2885(2) 0.8820(4) 0.99836(10)
C1_7 C 0.0995(4) 0.0772(6) 0.51801(16)
H1_7 H 0.1323 0.0350 0.5054
C2_7 C 0.0718(4) 0.0130(6) 0.54379(16)
C3_7 C 0.0243(3) 0.0730(6) 0.56353(14)
C4_7 C 0.0039(4) 0.1953(6) 0.55526(15)
C5_7 C 0.0334(4) 0.2508(6) 0.52886(16)
H4_7 H 0.0185 0.3329 0.5236
C25_7 C 0.2499(3) 0.4116(6) 0.53095(14)
C26_7 C 0.2155(3) 0.5065(6) 0.55166(14)
C27_7 C 0.1361(3) 0.5401(5) 0.54307(14)
H17_7 H 0.1040 0.5050 0.5237
C28_7 C 0.1034(3) 0.6261(5) 0.56309(14)
C29_7 C 0.1525(4) 0.6837(7) 0.59072(17)
H18_7 H 0.1314 0.7430 0.6037
C30_7 C 0.2328(4) 0.6530(7) 0.59893(18)
H19_7 H 0.2661 0.6930 0.6171
C31_7 C 0.2633(4) 0.5621(7) 0.57990(17)
H20_7 H 0.3165 0.5382 0.5862
C32_7 C 0.0161(3) 0.6547(6) 0.55375(14)
N1_7 N 0.0820(3) 0.1964(4) 0.51001(12)
O4_7 O 0.2115(2) 0.3820(4) 0.50164(10)
H3_7 H 0.9708 0.2392 0.5673
C6_7 C 0.9647(3) 0.0517(6) 0.61620(14)
C12_7 C 0.9042(4) 0.0043(6) 0.66690(15)
H8_7 H 0.8930 0.0889 0.6677
C22_7 C 0.6315(4) 0.0130(6) 0.91072(16)
C23_7 C 0.7318(4) 0.1521(7) 0.91434(17)
H15_7 H 0.7586 0.2222 0.9245
C24_7 C 0.7608(4) 0.0949(7) 0.88777(17)
H16_7 H 0.8070 0.1246 0.8811
N2_7 N 0.9976(3) 0.0047(5) 0.58980(12)
O1_7 O 0.9548(3) 0.1628(4) 0.62001(11)
H3_8 H 0.0292 0.2392 0.9327
C6_8 C 0.0353(3) 0.0517(6) 0.88380(14)
C12_8 C 0.0958(4) 0.0043(6) 0.83310(15)
H8_8 H 0.1070 0.0889 0.8323
C22_8 C 0.3685(4) 0.0130(6) 0.58928(16)
C23_8 C 0.2682(4) 0.1521(7) 0.58566(17)
H15_8 H 0.2414 0.2222 0.5755
C24_8 C 0.2392(4) 0.0949(7) 0.61223(17)
H16_8 H 0.1930 0.1246 0.6189
N2_8 N 0.0024(3) 0.0047(5) 0.91020(12)
O1_8 O 0.0452(3) 0.1628(4) 0.87999(11)
C1_8 C 0.9005(4) 0.0772(6) 0.98199(16)
H1_8 H 0.8677 0.0350 0.9946
C2_8 C 0.9282(4) 0.0130(6) 0.95621(16)
C3_8 C 0.9757(3) 0.0730(6) 0.93647(14)
C4_8 C 0.9961(4) 0.1953(6) 0.94474(15)
C5_8 C 0.9666(4) 0.2508(6) 0.97114(16)
H4_8 H 0.9815 0.3329 0.9764
C25_8 C 0.7501(3) 0.4116(6) 0.96905(14)
C26_8 C 0.7845(3) 0.5065(6) 0.94834(14)
C27_8 C 0.8639(3) 0.5401(5) 0.95693(14)
H17_8 H 0.8960 0.5050 0.9763
C28_8 C 0.8966(3) 0.6261(5) 0.93691(14)
C29_8 C 0.8475(4) 0.6837(7) 0.90928(17)
H18_8 H 0.8686 0.7430 0.8963
C30_8 C 0.7672(4) 0.6530(7) 0.90107(18)
H19_8 H 0.7339 0.6930 0.8829
C31_8 C 0.7367(4) 0.5621(7) 0.92010(17)
H20_8 H 0.6835 0.5382 0.9138
C32_8 C 0.9839(3) 0.6547(6) 0.94625(14)
N1_8 N 0.9180(3) 0.1964(4) 0.98999(12)
O4_8 O 0.7885(2) 0.3820(4) 0.99836(10)
C7_5 C 0.0573(3) 0.0409(6) 0.35878(14)
C8_5 C 0.0430(4) 0.1687(6) 0.35980(16)
H5_5 H 0.0181 0.2012 0.3769
C9_5 C 0.0656(4) 0.2476(6) 0.33549(15)
H6_5 H 0.0560 0.3327 0.3364
C10_5 C 0.1025(4) 0.2000(6) 0.30986(15)
C11_5 C 0.1177(4) 0.0748(6) 0.30888(16)
H7_5 H 0.1429 0.0429 0.2917
C13_5 C 0.1581(4) 0.2503(6) 0.26006(16)
C14_5 C 0.2345(4) 0.2905(7) 0.25973(16)
H9_5 H 0.2612 0.3396 0.2777
C15_5 C 0.2715(4) 0.2580(7) 0.23268(17)
H10_5 H 0.3230 0.2858 0.2323
C16_5 C 0.2316(4) 0.1832(6) 0.20585(15)
C17_5 C 0.1546(4) 0.1466(7) 0.20621(16)
H11_5 H 0.1273 0.0989 0.1881
C18_5 C 0.1167(4) 0.1798(7) 0.23334(18)
H12_5 H 0.0644 0.1548 0.2334
C19_5 C 0.2793(4) 0.1485(6) 0.17839(15)
C20_5 C 0.2789(4) 0.0064(6) 0.12883(14)
C21_5 C 0.3443(4) 0.0504(6) 0.11673(15)
H13_5 H 0.3718 0.1203 0.1265
H14_5 H 0.4131 0.0170 0.0814
N3_5 N 0.2471(3) 0.0559(5) 0.15645(12)
H22_5 H 0.2027 0.0246 0.1598
O2_5 O 0.1218(3) 0.2879(4) 0.28722(12)
O3_5 O 0.3412(3) 0.1993(4) 0.17658(12)
H2_5 H 0.9149 0.0704 0.4522
H21_5 H 0.9974 0.0750 0.4109
H2_6 H 0.0851 0.0704 0.0478
H21_6 H 0.0026 0.0750 0.0891
C7_6 C 0.9427(3) 0.0409(6) 0.14122(14)
C8_6 C 0.9570(4) 0.1687(6) 0.14020(16)
H5_6 H 0.9819 0.2012 0.1231
C9_6 C 0.9344(4) 0.2476(6) 0.16451(15)
H6_6 H 0.9440 0.3327 0.1636
C10_6 C 0.8975(4) 0.2000(6) 0.19014(15)
C11_6 C 0.8823(4) 0.0748(6) 0.19112(16)
H7_6 H 0.8571 0.0429 0.2083
C13_6 C 0.8419(4) 0.2503(6) 0.23994(16)
C14_6 C 0.7655(4) 0.2905(7) 0.24027(16)
H9_6 H 0.7388 0.3396 0.2223
C15_6 C 0.7285(4) 0.2580(7) 0.26732(17)
H10_6 H 0.6770 0.2858 0.2677
C16_6 C 0.7684(4) 0.1832(6) 0.29415(15)
C17_6 C 0.8454(4) 0.1466(7) 0.29379(16)
H11_6 H 0.8727 0.0989 0.3119
C18_6 C 0.8833(4) 0.1798(7) 0.26666(18)
H12_6 H 0.9356 0.1548 0.2666
C19_6 C 0.7207(4) 0.1485(6) 0.32161(15)
C20_6 C 0.7211(4) 0.0064(6) 0.37117(14)
C21_6 C 0.6557(4) 0.0504(6) 0.38327(15)
H13_6 H 0.6282 0.1203 0.3735
H14_6 H 0.5869 0.0170 0.4186
N3_6 N 0.7529(3) 0.0559(5) 0.34355(12)
H22_6 H 0.7973 0.0246 0.3402
O2_6 O 0.8782(3) 0.2879(4) 0.21278(12)
O3_6 O 0.6588(3) 0.1993(4) 0.32342(12)
H2_7 H 0.0851 0.9296 0.5478
H21_7 H 0.0026 0.9250 0.5891
C7_7 C 0.9427(3) 0.9591(6) 0.64122(14)
C8_7 C 0.9570(4) 0.8313(6) 0.64020(16)
H5_7 H 0.9819 0.7988 0.6231
C9_7 C 0.9344(4) 0.7524(6) 0.66451(15)
H6_7 H 0.9440 0.6673 0.6636
C10_7 C 0.8975(4) 0.8000(6) 0.69014(15)
C11_7 C 0.8823(4) 0.9252(6) 0.69112(16)
H7_7 H 0.8571 0.9571 0.7083
C13_7 C 0.8419(4) 0.7497(6) 0.73994(16)
C14_7 C 0.7655(4) 0.7095(7) 0.74027(16)
H9_7 H 0.7388 0.6604 0.7223
C15_7 C 0.7285(4) 0.7420(7) 0.76732(17)
H10_7 H 0.6770 0.7142 0.7677
C16_7 C 0.7684(4) 0.8168(6) 0.79415(15)
C17_7 C 0.8454(4) 0.8534(7) 0.79379(16)
H11_7 H 0.8727 0.9011 0.8119
C18_7 C 0.8833(4) 0.8202(7) 0.76666(18)
H12_7 H 0.9356 0.8452 0.7666
C19_7 C 0.7207(4) 0.8515(6) 0.82161(15)
C20_7 C 0.7211(4) 0.9936(6) 0.87117(14)
C21_7 C 0.6557(4) 0.9496(6) 0.88327(15)
H13_7 H 0.6282 0.8797 0.8735
H14_7 H 0.5869 0.9830 0.9186
N3_7 N 0.7529(3) 0.9441(5) 0.84355(12)
H22_7 H 0.7973 0.9754 0.8402
O2_7 O 0.8782(3) 0.7121(4) 0.71278(12)
O3_7 O 0.6588(3) 0.8007(4) 0.82342(12)
C7_8 C 0.0573(3) 0.9591(6) 0.85878(14)
C8_8 C 0.0430(4) 0.8313(6) 0.85980(16)
H5_8 H 0.0181 0.7988 0.8769
C9_8 C 0.0656(4) 0.7524(6) 0.83549(15)
H6_8 H 0.0560 0.6673 0.8364
C10_8 C 0.1025(4) 0.8000(6) 0.80986(15)
C11_8 C 0.1177(4) 0.9252(6) 0.80888(16)
H7_8 H 0.1429 0.9571 0.7917
C13_8 C 0.1581(4) 0.7497(6) 0.76006(16)
C14_8 C 0.2345(4) 0.7095(7) 0.75973(16)
H9_8 H 0.2612 0.6604 0.7777
C15_8 C 0.2715(4) 0.7420(7) 0.73268(17)
H10_8 H 0.3230 0.7142 0.7323
C16_8 C 0.2316(4) 0.8168(6) 0.70585(15)
C17_8 C 0.1546(4) 0.8534(7) 0.70621(16)
H11_8 H 0.1273 0.9011 0.6881
C18_8 C 0.1167(4) 0.8202(7) 0.73334(18)
H12_8 H 0.0644 0.8452 0.7334
C19_8 C 0.2793(4) 0.8515(6) 0.67839(15)
C20_8 C 0.2789(4) 0.9936(6) 0.62883(14)
C21_8 C 0.3443(4) 0.9496(6) 0.61673(15)
H13_8 H 0.3718 0.8797 0.6265
H14_8 H 0.4131 0.9830 0.5814
N3_8 N 0.2471(3) 0.9441(5) 0.65645(12)
H22_8 H 0.2027 0.9754 0.6598
O2_8 O 0.1218(3) 0.7121(4) 0.78722(12)
O3_8 O 0.3412(3) 0.8007(4) 0.67658(12)
H2_8 H 0.9149 0.9296 0.9522
H21_8 H 0.9974 0.9250 0.9109
loop_
_geom_bond_atom_site_label_1
_geom_bond_atom_site_label_2
_geom_bond_site_symmetry_1
_geom_bond_site_symmetry_2
Co1 N1 1_555 1_555
C1 H1 1_555 1_555
C2 C1 1_555 1_555
H2 C2 1_555 1_555
C3 C2 1_555 1_555
C4 C3 1_555 1_555
H3 C4 1_555 1_555
C5 C4 1_555 1_555
H4 C5 1_555 1_555
C6 C7 1_555 1_555
C7 C8 1_555 1_555
C8 H5 1_555 1_555
C9 C8 1_555 1_555
H6 C9 1_555 1_555
C10 C9 1_555 1_555
C11 C10 1_555 1_555
H7 C11 1_555 1_555
C12 C7 1_555 1_555
H8 C12 1_555 1_555
C13 C14 1_555 1_555
C14 H9 1_555 1_555
C15 C14 1_555 1_555
H10 C15 1_555 1_555
C16 C15 1_555 1_555
C17 C16 1_555 1_555
H11 C17 1_555 1_555
C18 C13 1_555 1_555
H12 C18 1_555 1_555
C19 C16 1_555 1_555
C20 C21 1_555 1_555
C21 H13 1_555 1_555
C22 C21 1_555 1_555
H14 C22 1_555 1_555
C23 H15 1_555 1_555
C24 C20 1_555 1_555
H16 C24 1_555 1_555
N1 C1 1_555 1_555
N2 C3 1_555 1_555
H21 N2 1_555 1_555
N3 C19 1_555 1_555
H22 N3 1_555 1_555
N4 C22 1_555 1_555
O1 C6 1_555 1_555
O2 C10 1_555 1_555
O3 C19 1_555 1_555
O4 Co1 1_555 1_555
O5 C25 1_555 1_555
Co3 O5 1_555 1_555
Co4 N4 1_555 1_555
N5 Co1 1_555 1_555
O8 Co1 1_555 1_555
O9 Co1 1_555 1_555
O10 Co1 1_555 1_555
C5 N1 1_555 1_555
C6 N2 1_555 1_555
C11 C12 1_555 1_555
C13 O2 1_555 1_555
C17 C18 1_555 1_555
C20 N3 1_555 1_555
C23 C24 1_555 1_555
C23 N4 1_555 1_555
C25 O4 1_555 1_555
C26 C27 1_555 1_555
C27 H17 1_555 1_555
C28 C27 1_555 1_555
C29 C28 1_555 1_555
H18 C29 1_555 1_555
C30 C29 1_555 1_555
H19 C30 1_555 1_555
C31 C26 1_555 1_555
H20 C31 1_555 1_555
C32 C28 1_555 1_555
O6 C32 1_555 1_555
O7 C32 1_555 1_555
Co2 O6 1_555 1_555
C30 C31 1_555 1_555
O7 Co2 1_555 1_555
C1_2 H1_2 1_555 1_555
C2_2 C1_2 1_555 1_555
H2_2 C2_2 1_555 1_555
C3_2 C2_2 1_555 1_555
C4_2 C3_2 1_555 1_555
H3_2 C4_2 1_555 1_555
C5_2 C4_2 1_555 1_555
H4_2 C5_2 1_555 1_555
C6_2 C7_2 1_555 1_555
C7_2 C8_2 1_555 1_555
C8_2 H5_2 1_555 1_555
C9_2 C8_2 1_555 1_555
H6_2 C9_2 1_555 1_555
C10_2 C9_2 1_555 1_555
C11_2 C10_2 1_555 1_555
H7_2 C11_2 1_555 1_555
C12_2 C7_2 1_555 1_555
H8_2 C12_2 1_555 1_555
C13_2 C14_2 1_555 1_555
C14_2 H9_2 1_555 1_555
C15_2 C14_2 1_555 1_555
H10_2 C15_2 1_555 1_555
C16_2 C15_2 1_555 1_555
C17_2 C16_2 1_555 1_555
H11_2 C17_2 1_555 1_555
C18_2 C13_2 1_555 1_555
H12_2 C18_2 1_555 1_555
C19_2 C16_2 1_555 1_555
C20_2 C21_2 1_555 1_555
C21_2 H13_2 1_555 1_555
C22_2 C21_2 1_555 1_555
H14_2 C22_2 1_555 1_555
C23_2 H15_2 1_555 1_555
C24_2 C20_2 1_555 1_555
H16_2 C24_2 1_555 1_555
N1_2 C1_2 1_555 1_555
N2_2 C3_2 1_555 1_555
H21_2 N2_2 1_555 1_555
N3_2 C19_2 1_555 1_555
H22_2 N3_2 1_555 1_555
N4_2 C22_2 1_555 1_555
O1_2 C6_2 1_555 1_555
O2_2 C10_2 1_555 1_555
O3_2 C19_2 1_555 1_555
O5_2 C25_2 1_555 1_555
Co4 O5_2 1_555 1_555
Co3 N4_2 1_555 1_555
C5_2 N1_2 1_555 1_555
C6_2 N2_2 1_555 1_555
C11_2 C12_2 1_555 1_555
C13_2 O2_2 1_555 1_555
C17_2 C18_2 1_555 1_555
C20_2 N3_2 1_555 1_555
C23_2 C24_2 1_555 1_555
C23_2 N4_2 1_555 1_555
C25_2 O4_2 1_555 1_555
N5_2 Co1_2 1_555 1_555
O8_2 Co1_2 1_555 1_555
O9_2 Co1_2 1_555 1_555
O10_2 Co1_2 1_555 1_555
C26_2 C27_2 1_555 1_555
C27_2 H17_2 1_555 1_555
C28_2 C27_2 1_555 1_555
C29_2 C28_2 1_555 1_555
H18_2 C29_2 1_555 1_555
C30_2 C29_2 1_555 1_555
H19_2 C30_2 1_555 1_555
C31_2 C26_2 1_555 1_555
H20_2 C31_2 1_555 1_555
C32_2 C28_2 1_555 1_555
O6_2 C32_2 1_555 1_555
O7_2 C32_2 1_555 1_555
Co2_2 O6_2 1_555 1_555
C30_2 C31_2 1_555 1_555
O7_2 Co2_2 1_555 1_555
H8_3 C12_3 1_555 1_555
C23_3 H15_3 1_555 1_555
H16_3 C24_3 1_555 1_555
N4_3 C22_3 1_555 1_555
O1_3 C6_3 1_555 1_555
Co3 O6_3 1_555 1_555
Co2_2 N4_3 1_555 1_555
C6_3 N2_3 1_555 1_555
C23_3 C24_3 1_555 1_555
C23_3 N4_3 1_555 1_555
O7_3 Co3 1_555 1_555
Co1_3 N1_3 1_555 1_555
C1_3 H1_3 1_555 1_555
C2_3 C1_3 1_555 1_555
C3_3 C2_3 1_555 1_555
C4_3 C3_3 1_555 1_555
C5_3 C4_3 1_555 1_555
H4_3 C5_3 1_555 1_555
C25_3 C26_3 1_555 1_555
C26_3 C27_3 1_555 1_555
C27_3 H17_3 1_555 1_555
C28_3 C27_3 1_555 1_555
C29_3 C28_3 1_555 1_555
H18_3 C29_3 1_555 1_555
C30_3 C29_3 1_555 1_555
H19_3 C30_3 1_555 1_555
C31_3 C26_3 1_555 1_555
H20_3 C31_3 1_555 1_555
C32_3 C28_3 1_555 1_555
N1_3 C1_3 1_555 1_555
O4_3 Co1_3 1_555 1_555
O5_3 C25_3 1_555 1_555
Co2 O5_3 1_555 1_555
N5_3 Co1_3 1_555 1_555
O8_3 Co1_3 1_555 1_555
O9_3 Co1_3 1_555 1_555
O10_3 Co1_3 1_555 1_555
C5_3 N1_3 1_555 1_555
C25_3 O4_3 1_555 1_555
C30_3 C31_3 1_555 1_555
C1_4 H1_4 1_555 1_555
C2_4 C1_4 1_555 1_555
C3_4 C2_4 1_555 1_555
C4_4 C3_4 1_555 1_555
C5_4 C4_4 1_555 1_555
H4_4 C5_4 1_555 1_555
C25_4 C26_4 1_555 1_555
C26_4 C27_4 1_555 1_555
C27_4 H17_4 1_555 1_555
C28_4 C27_4 1_555 1_555
C29_4 C28_4 1_555 1_555
H18_4 C29_4 1_555 1_555
C30_4 C29_4 1_555 1_555
H19_4 C30_4 1_555 1_555
C31_4 C26_4 1_555 1_555
H20_4 C31_4 1_555 1_555
C32_4 C28_4 1_555 1_555
N1_4 C1_4 1_555 1_555
O5_4 C25_4 1_555 1_555
Co2_2 O5_4 1_555 1_555
C5_4 N1_4 1_555 1_555
C25_4 O4_4 1_555 1_555
C30_4 C31_4 1_555 1_555
N5_4 Co1_4 1_555 1_555
O8_4 Co1_4 1_555 1_555
O9_4 Co1_4 1_555 1_555
O10_4 Co1_4 1_555 1_555
H8_4 C12_4 1_555 1_555
C23_4 H15_4 1_555 1_555
H16_4 C24_4 1_555 1_555
N4_4 C22_4 1_555 1_555
O1_4 C6_4 1_555 1_555
Co4 O6_4 1_555 1_555
Co2 N4_4 1_555 1_555
C6_4 N2_4 1_555 1_555
C23_4 C24_4 1_555 1_555
C23_4 N4_4 1_555 1_555
O7_4 Co4 1_555 1_555
C26_5 C27_5 1_555 1_555
C27_5 H17_5 1_555 1_555
C28_5 C27_5 1_555 1_555
C29_5 C28_5 1_555 1_555
H18_5 C29_5 1_555 1_555
C30_5 C29_5 1_555 1_555
H19_5 C30_5 1_555 1_555
C31_5 C26_5 1_555 1_555
H20_5 C31_5 1_555 1_555
C32_5 C28_5 1_555 1_555
O9 C32_5 1_555 1_555
O10 C32_5 1_555 1_555
C30_5 C31_5 1_555 1_555
Co2 N1_5 1_555 1_555
C1_5 H1_5 1_555 1_555
C2_5 C1_5 1_555 1_555
H2_3 C2_5 1_555 1_555
C3_5 C2_5 1_555 1_555
C4_5 C3_5 1_555 1_555
H3_5 C4_5 1_555 1_555
C5_5 C4_5 1_555 1_555
H4_5 C5_5 1_555 1_555
C6_5 C7_3 1_555 1_555
C7_3 C8_3 1_555 1_555
C8_3 H5_3 1_555 1_555
C9_3 C8_3 1_555 1_555
H6_3 C9_3 1_555 1_555
C10_3 C9_3 1_555 1_555
C11_3 C10_3 1_555 1_555
H7_3 C11_3 1_555 1_555
C12_5 C7_3 1_555 1_555
H8_5 C12_5 1_555 1_555
C13_3 C14_3 1_555 1_555
C14_3 H9_3 1_555 1_555
C15_3 C14_3 1_555 1_555
H10_3 C15_3 1_555 1_555
C16_3 C15_3 1_555 1_555
C17_3 C16_3 1_555 1_555
H11_3 C17_3 1_555 1_555
C18_3 C13_3 1_555 1_555
H12_3 C18_3 1_555 1_555
C19_3 C16_3 1_555 1_555
C20_3 C21_3 1_555 1_555
C21_3 H13_3 1_555 1_555
C22_5 C21_3 1_555 1_555
H14_3 C22_5 1_555 1_555
C23_5 H15_5 1_555 1_555
C24_5 C20_3 1_555 1_555
H16_5 C24_5 1_555 1_555
N1_5 C1_5 1_555 1_555
N2_5 C3_5 1_555 1_555
H21_3 N2_5 1_555 1_555
N3_3 C19_3 1_555 1_555
H22_3 N3_3 1_555 1_555
N5_4 C22_5 1_555 1_555
O1_5 C6_5 1_555 1_555
O2_3 C10_3 1_555 1_555
O3_3 C19_3 1_555 1_555
O4_5 Co2 1_555 1_555
O8_3 C25_5 1_555 1_555
C5_5 N1_5 1_555 1_555
C6_5 N2_5 1_555 1_555
C11_3 C12_5 1_555 1_555
C13_3 O2_3 1_555 1_555
C17_3 C18_3 1_555 1_555
C20_3 N3_3 1_555 1_555
C23_5 C24_5 1_555 1_555
C23_5 N5_4 1_555 1_555
C25_5 O4_5 1_555 1_555
C26_6 C27_6 1_555 1_555
C27_6 H17_6 1_555 1_555
C28_6 C27_6 1_555 1_555
C29_6 C28_6 1_555 1_555
H18_6 C29_6 1_555 1_555
C30_6 C29_6 1_555 1_555
H19_6 C30_6 1_555 1_555
C31_6 C26_6 1_555 1_555
H20_6 C31_6 1_555 1_555
C32_6 C28_6 1_555 1_555
O9_2 C32_6 1_555 1_555
O10_2 C32_6 1_555 1_555
C30_6 C31_6 1_555 1_555
C1_6 H1_6 1_555 1_555
C2_6 C1_6 1_555 1_555
H2_4 C2_6 1_555 1_555
C3_6 C2_6 1_555 1_555
C4_6 C3_6 1_555 1_555
H3_6 C4_6 1_555 1_555
C5_6 C4_6 1_555 1_555
H4_6 C5_6 1_555 1_555
C6_6 C7_4 1_555 1_555
C7_4 C8_4 1_555 1_555
C8_4 H5_4 1_555 1_555
C9_4 C8_4 1_555 1_555
H6_4 C9_4 1_555 1_555
C10_4 C9_4 1_555 1_555
C11_4 C10_4 1_555 1_555
H7_4 C11_4 1_555 1_555
C12_6 C7_4 1_555 1_555
H8_6 C12_6 1_555 1_555
C13_4 C14_4 1_555 1_555
C14_4 H9_4 1_555 1_555
C15_4 C14_4 1_555 1_555
H10_4 C15_4 1_555 1_555
C16_4 C15_4 1_555 1_555
C17_4 C16_4 1_555 1_555
H11_4 C17_4 1_555 1_555
C18_4 C13_4 1_555 1_555
H12_4 C18_4 1_555 1_555
C19_4 C16_4 1_555 1_555
C20_4 C21_4 1_555 1_555
C21_4 H13_4 1_555 1_555
C22_6 C21_4 1_555 1_555
H14_4 C22_6 1_555 1_555
C23_6 H15_6 1_555 1_555
C24_6 C20_4 1_555 1_555
H16_6 C24_6 1_555 1_555
N1_6 C1_6 1_555 1_555
N2_6 C3_6 1_555 1_555
H21_4 N2_6 1_555 1_555
N3_4 C19_4 1_555 1_555
H22_4 N3_4 1_555 1_555
N5_3 C22_6 1_555 1_555
O1_6 C6_6 1_555 1_555
O2_4 C10_4 1_555 1_555
O3_4 C19_4 1_555 1_555
O8_4 C25_6 1_555 1_555
C5_6 N1_6 1_555 1_555
C6_6 N2_6 1_555 1_555
C11_4 C12_6 1_555 1_555
C13_4 O2_4 1_555 1_555
C17_4 C18_4 1_555 1_555
C20_4 N3_4 1_555 1_555
C23_6 C24_6 1_555 1_555
C23_6 N5_3 1_555 1_555
C25_6 O4_6 1_555 1_555
Co3 N1_7 1_555 1_555
C1_7 H1_7 1_555 1_555
C2_7 C1_7 1_555 1_555
C3_7 C2_7 1_555 1_555
C4_7 C3_7 1_555 1_555
C5_7 C4_7 1_555 1_555
H4_7 C5_7 1_555 1_555
C25_7 C26_7 1_555 1_555
C26_7 C27_7 1_555 1_555
C27_7 H17_7 1_555 1_555
C28_7 C27_7 1_555 1_555
C29_7 C28_7 1_555 1_555
H18_7 C29_7 1_555 1_555
C30_7 C29_7 1_555 1_555
H19_7 C30_7 1_555 1_555
C31_7 C26_7 1_555 1_555
H20_7 C31_7 1_555 1_555
C32_7 C28_7 1_555 1_555
N1_7 C1_7 1_555 1_555
O4_7 Co3 1_555 1_555
O8 C25_7 1_555 1_555
C5_7 N1_7 1_555 1_555
C25_7 O4_7 1_555 1_555
C30_7 C31_7 1_555 1_555
H8_7 C12_7 1_555 1_555
C23_7 H15_7 1_555 1_555
H16_7 C24_7 1_555 1_555
N5_2 C22_7 1_555 1_555
O1_7 C6_7 1_555 1_555
C6_7 N2_7 1_555 1_555
C23_7 C24_7 1_555 1_555
C23_7 N5_2 1_555 1_555
H8_8 C12_8 1_555 1_555
C23_8 H15_8 1_555 1_555
H16_8 C24_8 1_555 1_555
N5 C22_8 1_555 1_555
O1_8 C6_8 1_555 1_555
C6_8 N2_8 1_555 1_555
C23_8 C24_8 1_555 1_555
C23_8 N5 1_555 1_555
C1_8 H1_8 1_555 1_555
C2_8 C1_8 1_555 1_555
C3_8 C2_8 1_555 1_555
C4_8 C3_8 1_555 1_555
C5_8 C4_8 1_555 1_555
H4_8 C5_8 1_555 1_555
C25_8 C26_8 1_555 1_555
C26_8 C27_8 1_555 1_555
C27_8 H17_8 1_555 1_555
C28_8 C27_8 1_555 1_555
C29_8 C28_8 1_555 1_555
H18_8 C29_8 1_555 1_555
C30_8 C29_8 1_555 1_555
H19_8 C30_8 1_555 1_555
C31_8 C26_8 1_555 1_555
H20_8 C31_8 1_555 1_555
C32_8 C28_8 1_555 1_555
N1_8 C1_8 1_555 1_555
O8_2 C25_8 1_555 1_555
C5_8 N1_8 1_555 1_555
C25_8 O4_8 1_555 1_555
C30_8 C31_8 1_555 1_555
C7_5 C8_5 1_555 1_555
C8_5 H5_5 1_555 1_555
C9_5 C8_5 1_555 1_555
H6_5 C9_5 1_555 1_555
C10_5 C9_5 1_555 1_555
C11_5 C10_5 1_555 1_555
H7_5 C11_5 1_555 1_555
C13_5 C14_5 1_555 1_555
C14_5 H9_5 1_555 1_555
C15_5 C14_5 1_555 1_555
H10_5 C15_5 1_555 1_555
C16_5 C15_5 1_555 1_555
C17_5 C16_5 1_555 1_555
H11_5 C17_5 1_555 1_555
C18_5 C13_5 1_555 1_555
H12_5 C18_5 1_555 1_555
C19_5 C16_5 1_555 1_555
C20_5 C21_5 1_555 1_555
C21_5 H13_5 1_555 1_555
N3_5 C19_5 1_555 1_555
H22_5 N3_5 1_555 1_555
O2_5 C10_5 1_555 1_555
O3_5 C19_5 1_555 1_555
C13_5 O2_5 1_555 1_555
C17_5 C18_5 1_555 1_555
C20_5 N3_5 1_555 1_555
C7_6 C8_6 1_555 1_555
C8_6 H5_6 1_555 1_555
C9_6 C8_6 1_555 1_555
H6_6 C9_6 1_555 1_555
C10_6 C9_6 1_555 1_555
C11_6 C10_6 1_555 1_555
H7_6 C11_6 1_555 1_555
C13_6 C14_6 1_555 1_555
C14_6 H9_6 1_555 1_555
C15_6 C14_6 1_555 1_555
H10_6 C15_6 1_555 1_555
C16_6 C15_6 1_555 1_555
C17_6 C16_6 1_555 1_555
H11_6 C17_6 1_555 1_555
C18_6 C13_6 1_555 1_555
H12_6 C18_6 1_555 1_555
C19_6 C16_6 1_555 1_555
C20_6 C21_6 1_555 1_555
C21_6 H13_6 1_555 1_555
N3_6 C19_6 1_555 1_555
H22_6 N3_6 1_555 1_555
O2_6 C10_6 1_555 1_555
O3_6 C19_6 1_555 1_555
C13_6 O2_6 1_555 1_555
C17_6 C18_6 1_555 1_555
C20_6 N3_6 1_555 1_555
C7_7 C8_7 1_555 1_555
C8_7 H5_7 1_555 1_555
C9_7 C8_7 1_555 1_555
H6_7 C9_7 1_555 1_555
C10_7 C9_7 1_555 1_555
C11_7 C10_7 1_555 1_555
H7_7 C11_7 1_555 1_555
C13_7 C14_7 1_555 1_555
C14_7 H9_7 1_555 1_555
C15_7 C14_7 1_555 1_555
H10_7 C15_7 1_555 1_555
C16_7 C15_7 1_555 1_555
C17_7 C16_7 1_555 1_555
H11_7 C17_7 1_555 1_555
C18_7 C13_7 1_555 1_555
H12_7 C18_7 1_555 1_555
C19_7 C16_7 1_555 1_555
C20_7 C21_7 1_555 1_555
C21_7 H13_7 1_555 1_555
N3_7 C19_7 1_555 1_555
H22_7 N3_7 1_555 1_555
O2_7 C10_7 1_555 1_555
O3_7 C19_7 1_555 1_555
C13_7 O2_7 1_555 1_555
C17_7 C18_7 1_555 1_555
C20_7 N3_7 1_555 1_555
C7_8 C8_8 1_555 1_555
C8_8 H5_8 1_555 1_555
C9_8 C8_8 1_555 1_555
H6_8 C9_8 1_555 1_555
C10_8 C9_8 1_555 1_555
C11_8 C10_8 1_555 1_555
H7_8 C11_8 1_555 1_555
C13_8 C14_8 1_555 1_555
C14_8 H9_8 1_555 1_555
C15_8 C14_8 1_555 1_555
H10_8 C15_8 1_555 1_555
C16_8 C15_8 1_555 1_555
C17_8 C16_8 1_555 1_555
H11_8 C17_8 1_555 1_555
C18_8 C13_8 1_555 1_555
H12_8 C18_8 1_555 1_555
C19_8 C16_8 1_555 1_555
C20_8 C21_8 1_555 1_555
C21_8 H13_8 1_555 1_555
N3_8 C19_8 1_555 1_555
H22_8 N3_8 1_555 1_555
O2_8 C10_8 1_555 1_555
O3_8 C19_8 1_555 1_555
C13_8 O2_8 1_555 1_555
C17_8 C18_8 1_555 1_555
C20_8 N3_8 1_555 1_555

#END
