
###############################################################################
#
# This file contains modified crystal structure data generated from the
# MOF subset of the Cambridge Structural Database (CSD) v543 
# hosted by the Cambridge Crystallographic Data Centre (CCDC).
#
# This work is licensed under the Creative Commons
# Attribution-NonCommercial-ShareAlike 4.0 International License.
# To view a copy of this license, visit
# http://creativecommons.org/licenses/by-nc-sa/4.0/
# or send a letter to
# Creative Commons, PO Box 1866, Mountain View, CA 94042, USA.
#
# CIF created using the CSD Python API on 29 September 2022
# The structure has been converted into the P1 space group
# The structure has a 3D framework
# The original CSD entry ARUCUN is in the triclinic crystal system
# The framework has been calculated to contain at least 10.0% void space
# The void calculation uses a probe of radius 1.32A, grid spacing 0.4
# H atom positions have been added when not included in the experimental data
#
###############################################################################

data_ARUCUN
_chemical_formula_moiety         '(C64 H44 Co2 N8 O14)n'
_symmetry_cell_setting           triclinic
_symmetry_space_group_name_H-M   'P 1'
_symmetry_Int_Tables_number      1
_space_group_name_Hall           'P 1'
loop_
_symmetry_equiv_pos_site_id
_symmetry_equiv_pos_as_xyz
1 x,y,z
_cell_length_a                   10.142(9)
_cell_length_b                   13.222(12)
_cell_length_c                   14.872(14)
_cell_angle_alpha                109.018(12)
_cell_angle_beta                 101.882(12)
_cell_angle_gamma                98.999(12)
_cell_volume                     1790.39
loop_
_atom_site_label
_atom_site_type_symbol
_atom_site_fract_x
_atom_site_fract_y
_atom_site_fract_z
_atom_site_U_iso_or_equiv
_atom_site_thermal_displace_type
C22 C 0.4930(8) 0.2715(6) 0.0156(6) 0.0535 Uani
H14 H 0.5790 0.2995 0.0091 0.0640 Uiso
C23 C 0.3173(7) 0.2971(6) 0.0828(6) 0.0508 Uani
H15 H 0.2743 0.3427 0.1229 0.0610 Uiso
C24 C 0.2511(8) 0.1876(7) 0.0347(6) 0.0601 Uani
H16 H 0.1674 0.1606 0.0449 0.0730 Uiso
N4 N 0.4392(6) 0.3417(5) 0.0754(4) 0.0383 Uani
Co4 Co 0.53003(8) 0.51470(7) 0.14843(6) 0.0299 Uani
C1 C 0.7433(7) 0.7368(6) 0.2610(5) 0.0466 Uani
H1 H 0.8058 0.6932 0.2478 0.0560 Uiso
C2 C 0.7963(7) 0.8466(6) 0.3166(5) 0.0511 Uani
H2 H 0.8918 0.8758 0.3402 0.0610 Uiso
C3 C 0.7058(7) 0.9137(6) 0.3371(5) 0.0430 Uani
C4 C 0.5649(8) 0.8633(6) 0.3000(6) 0.0541 Uani
H3 H 0.4997 0.9047 0.3117 0.0650 Uiso
C5 C 0.5232(7) 0.7540(6) 0.2468(6) 0.0489 Uani
H4 H 0.4282 0.7224 0.2240 0.0580 Uiso
C25 C 0.5154(7) 0.5067(5) 0.3119(5) 0.0347 Uani
C26 C 0.5076(7) 0.5026(6) 0.4087(4) 0.0350 Uani
C27 C 0.6127(8) 0.4800(7) 0.4668(6) 0.0572 Uani
H17 H 0.6903 0.4666 0.4453 0.0690 Uiso
C28 C 0.3956(7) 0.5232(7) 0.4423(5) 0.0553 Uani
H18 H 0.3237 0.5395 0.4037 0.0660 Uiso
C30 C 0.1077(7) 0.5205(5) 0.0819(5) 0.0349 Uani
H20 H 0.1802 0.5341 0.1373 0.0420 Uiso
N1 N 0.6078(6) 0.6879(4) 0.2244(4) 0.0378 Uani
O4 O 0.6215(5) 0.4938(4) 0.2831(3) 0.0459 Uani
O5 O 0.4131(5) 0.5218(4) 0.2577(3) 0.0392 Uani
O6 O 0.3752(4) 0.5444(4) 0.0605(3) 0.0363 Uani
C33 C 0.4846(7) 0.4933(5) 0.6881(5) 0.0347 Uani
C34 C 0.4924(7) 0.4974(6) 0.5913(4) 0.0350 Uani
C35 C 0.3873(8) 0.5200(7) 0.5332(6) 0.0572 Uani
H21 H 0.3097 0.5334 0.5547 0.0690 Uiso
C36 C 0.6044(7) 0.4768(7) 0.5577(5) 0.0553 Uani
H22 H 0.6763 0.4605 0.5963 0.0660 Uiso
O8 O 0.3785(5) 0.5062(4) 0.7169(3) 0.0459 Uani
O9 O 0.5869(5) 0.4782(4) 0.7423(3) 0.0392 Uani
Co7 Co 0.46997(8) 0.48530(7) 0.85157(6) 0.0299 Uani
O18 O 0.7036(4) 0.5117(4) 0.1028(3) 0.0339 Uani
C31 C 0.1342(6) 0.5036(5) 0.9919(4) 0.0301 Uani
C32 C 0.2798(6) 0.5120(5) 0.9825(5) 0.0302 Uani
O7 O 0.2964(4) 0.4883(4) 0.8972(3) 0.0339 Uani
C37 C 0.0245(6) 0.4823(5) 0.9089(4) 0.0323 Uani
H23 H 0.0411 0.4701 0.8475 0.0390 Uiso
C29 C 0.9755(6) 0.5177(5) 0.0911(4) 0.0323 Uani
H19 H 0.9589 0.5299 0.1525 0.0390 Uiso
C39 C 0.8658(6) 0.4964(5) 0.0081(4) 0.0301 Uani
C40 C 0.7202(6) 0.4880(5) 0.0175(5) 0.0302 Uani
C38 C 0.8923(7) 0.4795(5) 0.9181(5) 0.0349 Uani
H24 H 0.8198 0.4659 0.8627 0.0420 Uiso
O10 O 0.6248(4) 0.4556(4) 0.9395(3) 0.0363 Uani
C41 C 0.2567(7) 0.2632(6) 0.7390(5) 0.0466 Uani
H25 H 0.1942 0.3068 0.7522 0.0560 Uiso
C42 C 0.2037(7) 0.1534(6) 0.6834(5) 0.0511 Uani
H26 H 0.1082 0.1242 0.6598 0.0610 Uiso
C43 C 0.2942(7) 0.0863(6) 0.6629(5) 0.0430 Uani
C44 C 0.4351(8) 0.1367(6) 0.7000(6) 0.0541 Uani
H27 H 0.5003 0.0953 0.6883 0.0650 Uiso
C45 C 0.4768(7) 0.2460(6) 0.7532(6) 0.0489 Uani
H28 H 0.5718 0.2776 0.7760 0.0580 Uiso
N5 N 0.3922(6) 0.3121(4) 0.7756(4) 0.0378 Uani
N10 N 0.5608(6) 0.6583(5) 0.9246(4) 0.0383 Uani
C62 C 0.5070(8) 0.7285(6) 0.9844(6) 0.0535 Uani
H38 H 0.4210 0.7005 0.9909 0.0640 Uiso
C63 C 0.6827(7) 0.7029(6) 0.9172(6) 0.0508 Uani
H39 H 0.7257 0.6573 0.8771 0.0610 Uiso
C64 C 0.7489(8) 0.8124(7) 0.9653(6) 0.0601 Uani
H40 H 0.8326 0.8394 0.9551 0.0730 Uiso
C20 C 0.3068(7) 0.1179(6) 0.9720(5) 0.0422 Uani
C21 C 0.4341(9) 0.1634(6) 0.9636(6) 0.0609 Uani
H13 H 0.4783 0.1201 0.9227 0.0730 Uiso
N3 N 0.2327(7) 0.0096(5) 0.9215(5) 0.0557 Uani
H5 H 0.0312 0.2876 0.4579 0.0700 Uiso
H6 H 0.0496 0.4605 0.5681 0.0610 Uiso
C13 C 0.0012(7) 0.6099(6) 0.7314(5) 0.0362 Uani
C14 C 0.1422(7) 0.6217(6) 0.7457(5) 0.0415 Uani
H9 H 0.1797 0.5604 0.7308 0.0490 Uiso
C15 C 0.2254(7) 0.7259(6) 0.7822(5) 0.0469 Uani
H10 H 0.3200 0.7347 0.7884 0.0560 Uiso
C16 C 0.1735(8) 0.8185(6) 0.8101(5) 0.0464 Uani
C17 C 0.0296(8) 0.8033(6) 0.7937(6) 0.0520 Uani
C19 C 0.2727(8) 0.9290(6) 0.8532(6) 0.0550 Uani
O3 O 0.3815(6) 0.9439(5) 0.8331(5) 0.0784 Uani
H43 H 0.141064 0.986935 0.935508 . .
C6 C 0.8756(8) 0.0943(6) 0.4249(6) 0.0545 Uani
C7 C 0.9782(8) 0.2962(6) 0.5028(6) 0.0583 Uani
C8 C 0.9912(8) 0.3995(6) 0.5691(5) 0.0509 Uani
C9 C 0.9159(7) 0.4113(6) 0.6375(5) 0.0387 Uani
C10 C 0.8301(8) 0.3211(6) 0.6390(5) 0.0466 Uani
H7 H 0.7812 0.3294 0.6864 0.0560 Uiso
C11 C 0.8166(8) 0.2191(6) 0.5708(6) 0.0514 Uani
H8 H 0.7572 0.1587 0.5721 0.0620 Uiso
C12 C 0.8884(7) 0.2030(6) 0.5001(5) 0.0435 Uani
H11 H 0.9914 0.8641 0.8094 0.0620 Uiso
C18 C 0.9458(7) 0.7002(6) 0.7549(5) 0.0442 Uani
H12 H 0.8503 0.6906 0.7441 0.0530 Uiso
N2 N 0.7445(6) 0.0253(5) 0.3964(5) 0.0544 Uani
O1 O 0.9691(6) 0.0680(5) 0.3908(5) 0.0852 Uani
O2 O 0.9086(4) 0.5104(4) 0.7033(3) 0.0402 Uani
H44 H 0.669489 0.0593128 0.421086 . .
C46 C 0.1244(8) 0.9057(6) 0.5751(6) 0.0545 Uani
C47 C 0.0218(8) 0.7038(6) 0.4972(6) 0.0583 Uani
C48 C 0.0088(8) 0.6005(6) 0.4309(5) 0.0509 Uani
C49 C 0.0841(7) 0.5887(6) 0.3625(5) 0.0387 Uani
C50 C 0.1699(8) 0.6789(6) 0.3610(5) 0.0466 Uani
H31 H 0.2188 0.6706 0.3136 0.0560 Uiso
C51 C 0.1834(8) 0.7809(6) 0.4292(6) 0.0514 Uani
H32 H 0.2428 0.8413 0.4279 0.0620 Uiso
C52 C 0.1116(7) 0.7970(6) 0.4999(5) 0.0435 Uani
H35 H 0.0086 0.1359 0.1906 0.0620 Uiso
C58 C 0.0542(7) 0.2998(6) 0.2451(5) 0.0442 Uani
H36 H 0.1497 0.3094 0.2559 0.0530 Uiso
N6 N 0.2555(6) 0.9747(5) 0.6036(5) 0.0544 Uani
O12 O 0.0309(6) 0.9320(5) 0.6092(5) 0.0852 Uani
O13 O 0.0914(4) 0.4896(4) 0.2967(3) 0.0402 Uani
H41 H 0.330511 0.940687 0.578914 . .
H29 H 0.9688 0.7124 0.5421 0.0700 Uiso
H30 H 0.9504 0.5395 0.4319 0.0610 Uiso
C53 C 0.9988(7) 0.3901(6) 0.2686(5) 0.0362 Uani
C54 C 0.8578(7) 0.3783(6) 0.2543(5) 0.0415 Uani
H33 H 0.8203 0.4396 0.2692 0.0490 Uiso
C55 C 0.7746(7) 0.2741(6) 0.2178(5) 0.0469 Uani
H34 H 0.6800 0.2653 0.2116 0.0560 Uiso
C56 C 0.8265(8) 0.1815(6) 0.1899(5) 0.0464 Uani
C57 C 0.9704(8) 0.1967(6) 0.2063(6) 0.0520 Uani
C59 C 0.7273(8) 0.0710(6) 0.1468(6) 0.0550 Uani
O14 O 0.6185(6) 0.0561(5) 0.1669(5) 0.0784 Uani
H42 H 0.858936 0.0130646 0.0644919 . .
C60 C 0.6932(7) 0.8821(6) 0.0280(5) 0.0422 Uani
C61 C 0.5659(9) 0.8366(6) 0.0364(6) 0.0609 Uani
H37 H 0.5217 0.8799 0.0773 0.0730 Uiso
N7 N 0.7673(7) 0.9904(5) 0.0785(5) 0.0557 Uani
loop_
_atom_site_aniso_label
_atom_site_aniso_U_11
_atom_site_aniso_U_22
_atom_site_aniso_U_33
_atom_site_aniso_U_23
_atom_site_aniso_U_13
_atom_site_aniso_U_12
C22 0.049 0.039 0.078 0.015 0.044 0.005
C23 0.038 0.037 0.068 0.001 0.029 0.004
C24 0.036 0.061 0.077 0.008 0.037 0.004
N4 0.034 0.041 0.041 0.013 0.016 0.009
Co4 0.0194 0.0409 0.0308 0.0111 0.0136 0.0071
C1 0.032 0.036 0.061 0.003 0.015 0.008
C2 0.028 0.05 0.057 -0.002 0.013 0.004
C3 0.036 0.037 0.047 0.005 0.014 0.003
C4 0.036 0.05 0.065 0.006 0.014 0.012
C5 0.025 0.043 0.061 -0.001 0.011 0.004
C25 0.028 0.04 0.036 0.013 0.013 0.005
C26 0.029 0.047 0.028 0.011 0.012 0.007
C27 0.037 0.098 0.062 0.041 0.034 0.035
C28 0.035 0.108 0.048 0.047 0.019 0.038
C30 0.025 0.049 0.028 0.011 0.009 0.006
N1 0.033 0.04 0.042 0.011 0.019 0.011
O4 0.035 0.079 0.038 0.026 0.024 0.026
O5 0.032 0.057 0.039 0.023 0.017 0.019
O6 0.016 0.057 0.034 0.014 0.008 0.008
C33 0.028 0.04 0.036 0.013 0.013 0.005
C34 0.029 0.047 0.028 0.011 0.012 0.007
C35 0.037 0.098 0.062 0.041 0.034 0.035
C36 0.035 0.108 0.048 0.047 0.019 0.038
O8 0.035 0.079 0.038 0.026 0.024 0.026
O9 0.032 0.057 0.039 0.023 0.017 0.019
Co7 0.0194 0.0409 0.0308 0.0111 0.0136 0.0071
O18 0.024 0.047 0.031 0.01 0.0162 0.008
C31 0.023 0.04 0.032 0.015 0.012 0.011
C32 0.025 0.026 0.041 0.01 0.016 0.006
O7 0.024 0.047 0.031 0.01 0.0162 0.008
C37 0.025 0.051 0.025 0.015 0.014 0.009
C29 0.025 0.051 0.025 0.015 0.014 0.009
C39 0.023 0.04 0.032 0.015 0.012 0.011
C40 0.025 0.026 0.041 0.01 0.016 0.006
C38 0.025 0.049 0.028 0.011 0.009 0.006
O10 0.016 0.057 0.034 0.014 0.008 0.008
C41 0.032 0.036 0.061 0.003 0.015 0.008
C42 0.028 0.05 0.057 -0.002 0.013 0.004
C43 0.036 0.037 0.047 0.005 0.014 0.003
C44 0.036 0.05 0.065 0.006 0.014 0.012
C45 0.025 0.043 0.061 -0.001 0.011 0.004
N5 0.033 0.04 0.042 0.011 0.019 0.011
N10 0.034 0.041 0.041 0.013 0.016 0.009
C62 0.049 0.039 0.078 0.015 0.044 0.005
C63 0.038 0.037 0.068 0.001 0.029 0.004
C64 0.036 0.061 0.077 0.008 0.037 0.004
C20 0.04 0.034 0.05 0.008 0.023 0.004
C21 0.063 0.035 0.086 0.006 0.056 0.004
N3 0.057 0.032 0.071 0.004 0.032 0.005
C13 0.034 0.035 0.035 0.007 0.009 0.009
C14 0.032 0.03 0.054 0.004 0.011 0.01
C15 0.033 0.046 0.057 0.008 0.021 0.009
C16 0.047 0.031 0.054 0.009 0.017 0
C17 0.047 0.043 0.064 0.009 0.021 0.021
C19 0.05 0.042 0.068 0.009 0.029 0.005
O3 0.071 0.05 0.102 -0.002 0.06 -0.002
C6 0.048 0.043 0.064 0.007 0.021 0.008
C7 0.05 0.048 0.064 0.002 0.029 -0.001
C8 0.045 0.038 0.061 0.005 0.027 -0.002
C9 0.026 0.037 0.044 0.008 0.005 0.004
C10 0.051 0.044 0.042 0.01 0.023 0.003
C11 0.051 0.039 0.058 0.013 0.017 0.002
C12 0.041 0.031 0.047 0.003 0.011 0.003
C18 0.031 0.041 0.052 0.005 0.013 0.009
N2 0.037 0.036 0.069 -0.004 0.014 0.002
O1 0.06 0.048 0.125 -0.011 0.059 -0.001
O2 0.029 0.033 0.047 0.001 0.012 0.003
C46 0.048 0.043 0.064 0.007 0.021 0.008
C47 0.05 0.048 0.064 0.002 0.029 -0.001
C48 0.045 0.038 0.061 0.005 0.027 -0.002
C49 0.026 0.037 0.044 0.008 0.005 0.004
C50 0.051 0.044 0.042 0.01 0.023 0.003
C51 0.051 0.039 0.058 0.013 0.017 0.002
C52 0.041 0.031 0.047 0.003 0.011 0.003
C58 0.031 0.041 0.052 0.005 0.013 0.009
N6 0.037 0.036 0.069 -0.004 0.014 0.002
O12 0.06 0.048 0.125 -0.011 0.059 -0.001
O13 0.029 0.033 0.047 0.001 0.012 0.003
C53 0.034 0.035 0.035 0.007 0.009 0.009
C54 0.032 0.03 0.054 0.004 0.011 0.01
C55 0.033 0.046 0.057 0.008 0.021 0.009
C56 0.047 0.031 0.054 0.009 0.017 0
C57 0.047 0.043 0.064 0.009 0.021 0.021
C59 0.05 0.042 0.068 0.009 0.029 0.005
O14 0.071 0.05 0.102 -0.002 0.06 -0.002
C60 0.04 0.034 0.05 0.008 0.023 0.004
C61 0.063 0.035 0.086 0.006 0.056 0.004
N7 0.057 0.032 0.071 0.004 0.032 0.005
loop_
_geom_bond_atom_site_label_1
_geom_bond_atom_site_label_2
_geom_bond_site_symmetry_1
_geom_bond_site_symmetry_2
H14 C22 1_555 1_555
C23 H15 1_555 1_555
H16 C24 1_555 1_555
N4 C22 1_555 1_555
Co4 N4 1_555 1_555
C23 C24 1_555 1_555
C23 N4 1_555 1_555
Co4 N1 1_555 1_555
C1 H1 1_555 1_555
C2 C1 1_555 1_555
H2 C2 1_555 1_555
C3 C2 1_555 1_555
C4 C3 1_555 1_555
H3 C4 1_555 1_555
C5 C4 1_555 1_555
H4 C5 1_555 1_555
C25 C26 1_555 1_555
C26 C27 1_555 1_555
C27 H17 1_555 1_555
C28 C26 1_555 1_555
H18 C28 1_555 1_555
H20 C30 1_555 1_555
N1 C1 1_555 1_555
O4 Co4 1_555 1_555
O5 Co4 1_555 1_555
O6 Co4 1_555 1_555
C33 C34 1_555 1_555
C34 C35 1_555 1_555
C35 C28 1_555 1_555
H21 C35 1_555 1_555
C36 C27 1_555 1_555
H22 C36 1_555 1_555
O8 C33 1_555 1_555
O9 C33 1_555 1_555
Co7 O8 1_555 1_555
O18 Co4 1_555 1_555
C5 N1 1_555 1_555
C25 O4 1_555 1_555
C25 O5 1_555 1_555
C34 C36 1_555 1_555
O9 Co7 1_555 1_555
C32 C31 1_555 1_555
O7 C32 1_555 1_555
C37 C31 1_555 1_555
H23 C37 1_555 1_555
Co7 O7 1_555 1_555
C29 H19 1_555 1_555
C39 C29 1_555 1_555
C40 C39 1_555 1_555
O18 C40 1_555 1_555
H24 C38 1_555 1_555
Co7 O10 1_555 1_555
C41 H25 1_555 1_555
C42 C41 1_555 1_555
H26 C42 1_555 1_555
C43 C42 1_555 1_555
C44 C43 1_555 1_555
H27 C44 1_555 1_555
C45 C44 1_555 1_555
H28 C45 1_555 1_555
N5 Co7 1_555 1_555
N10 Co7 1_555 1_555
C41 N5 1_555 1_555
C45 N5 1_555 1_555
H38 C62 1_555 1_555
C63 H39 1_555 1_555
H40 C64 1_555 1_555
N10 C62 1_555 1_555
C63 C64 1_555 1_555
C63 N10 1_555 1_555
C20 C21 1_555 1_555
C21 H13 1_555 1_555
C20 N3 1_555 1_555
C13 C14 1_555 1_555
C14 H9 1_555 1_555
C15 C14 1_555 1_555
H10 C15 1_555 1_555
C16 C15 1_555 1_555
C17 C16 1_555 1_555
C19 C16 1_555 1_555
O3 C19 1_555 1_555
C6 C12 1_555 1_555
C8 C7 1_555 1_555
C9 C8 1_555 1_555
C10 C9 1_555 1_555
H7 C10 1_555 1_555
C11 C10 1_555 1_555
H8 C11 1_555 1_555
C12 C7 1_555 1_555
H12 C18 1_555 1_555
O1 C6 1_555 1_555
O2 C9 1_555 1_555
C6 N2 1_555 1_555
C11 C12 1_555 1_555
N2 H44 1_555 1_555
C46 C52 1_555 1_555
C48 C47 1_555 1_555
C49 C48 1_555 1_555
C50 C49 1_555 1_555
H31 C50 1_555 1_555
C51 C50 1_555 1_555
H32 C51 1_555 1_555
C52 C47 1_555 1_555
H36 C58 1_555 1_555
O12 C46 1_555 1_555
O13 C49 1_555 1_555
C46 N6 1_555 1_555
C51 C52 1_555 1_555
N6 H41 1_555 1_555
C53 C54 1_555 1_555
C54 H33 1_555 1_555
C55 C54 1_555 1_555
H34 C55 1_555 1_555
C56 C55 1_555 1_555
C57 C56 1_555 1_555
C59 C56 1_555 1_555
O14 C59 1_555 1_555
C60 C61 1_555 1_555
C61 H37 1_555 1_555
C60 N7 1_555 1_555

#END
