
###############################################################################
#
# This file contains modified crystal structure data generated from the
# MOF subset of the Cambridge Structural Database (CSD) v543 
# hosted by the Cambridge Crystallographic Data Centre (CCDC).
#
# This work is licensed under the Creative Commons
# Attribution-NonCommercial-ShareAlike 4.0 International License.
# To view a copy of this license, visit
# http://creativecommons.org/licenses/by-nc-sa/4.0/
# or send a letter to
# Creative Commons, PO Box 1866, Mountain View, CA 94042, USA.
#
# CIF created using the CSD Python API on 29 September 2022
# The structure has been converted into the P1 space group
# The structure has a 3D framework
# The original CSD entry ARUDAU is in the triclinic crystal system
# The framework has been calculated to contain at least 10.0% void space
# The void calculation uses a probe of radius 1.32A, grid spacing 0.4
# H atom positions have been added when not included in the experimental data
#
###############################################################################

data_ARUDAU
_chemical_formula_moiety         '(C64 H44 Co2 N8 O14)n'
_symmetry_cell_setting           triclinic
_symmetry_space_group_name_H-M   'P 1'
_symmetry_Int_Tables_number      1
_space_group_name_Hall           'P 1'
loop_
_symmetry_equiv_pos_site_id
_symmetry_equiv_pos_as_xyz
1 x,y,z
_cell_length_a                   10.119(2)
_cell_length_b                   13.671(3)
_cell_length_c                   15.009(3)
_cell_angle_alpha                111.271(3)
_cell_angle_beta                 101.926(3)
_cell_angle_gamma                99.461(3)
_cell_volume                     1826.7
loop_
_atom_site_label
_atom_site_type_symbol
_atom_site_fract_x
_atom_site_fract_y
_atom_site_fract_z
C22 C 0.4749(10) 0.2739(6) 0.0016(6)
C23 C 0.3320(9) 0.2899(6) 0.0973(7)
H15 H 0.3000 0.3327 0.1479
C24 C 0.2685(9) 0.1813(6) 0.0519(7)
H16 H 0.1977 0.1519 0.0729
N4 N 0.4358(5) 0.3390(4) 0.0749(4)
Co4 Co 0.53041(7) 0.51156(6) 0.15017(5)
C1 C 0.7493(7) 0.7348(5) 0.2650(5)
H1 H 0.8121 0.6927 0.2514
C2 C 0.8039(7) 0.8456(5) 0.3220(6)
H2 H 0.9000 0.8766 0.3458
C3 C 0.7106(7) 0.9088(5) 0.3424(5)
C4 C 0.5677(8) 0.8577(6) 0.3036(6)
H3 H 0.5022 0.8977 0.3148
C5 C 0.5256(7) 0.7467(5) 0.2484(5)
H4 H 0.4300 0.7134 0.2238
C25 C 0.5167(6) 0.5079(5) 0.3131(4)
C26 C 0.5094(6) 0.5041(5) 0.4104(4)
C27 C 0.6150(6) 0.4824(6) 0.4677(5)
H17 H 0.6928 0.4701 0.4460
C28 C 0.6071(6) 0.4787(6) 0.5565(5)
H18 H 0.6800 0.4646 0.5949
N1 N 0.6123(5) 0.6842(4) 0.2281(4)
O4 O 0.6236(4) 0.4955(4) 0.2855(3)
O5 O 0.4152(4) 0.5244(4) 0.2612(3)
O6 O 0.3774(4) 0.5365(3) 0.0588(3)
C33 C 0.4833(6) 0.4921(5) 0.6869(4)
C34 C 0.4906(6) 0.4959(5) 0.5896(4)
C35 C 0.3850(6) 0.5176(6) 0.5323(5)
H21 H 0.3072 0.5299 0.5540
C36 C 0.3929(6) 0.5213(6) 0.4435(5)
H22 H 0.3200 0.5354 0.4051
O8 O 0.3764(4) 0.5045(4) 0.7145(3)
O9 O 0.5848(4) 0.4756(4) 0.7388(3)
C37 C 0.1082(6) 0.5119(5) 0.0804(4)
H23 H 0.1802 0.5206 0.1346
Co7 Co 0.46959(7) 0.48844(6) 0.84983(5)
O18 O 0.7045(4) 0.5063(3) 0.1036(3)
C30 C 0.0261(6) 0.4913(5) 0.9113(4)
H20 H 0.0432 0.4861 0.8515
C31 C 0.1354(6) 0.5022(4) 0.9899(4)
C32 C 0.2799(6) 0.5102(4) 0.9815(4)
O7 O 0.2955(4) 0.4937(3) 0.8964(3)
C38 C 0.9739(6) 0.5087(5) 0.0887(4)
H24 H 0.9568 0.5139 0.1485
C39 C 0.8646(6) 0.4978(4) 0.0101(4)
C40 C 0.7201(6) 0.4898(4) 0.0185(4)
C29 C 0.8918(6) 0.4881(5) 0.9196(4)
H19 H 0.8198 0.4794 0.8654
O10 O 0.6226(4) 0.4635(3) 0.9412(3)
C41 C 0.2507(7) 0.2652(5) 0.7350(5)
H25 H 0.1879 0.3073 0.7486
C42 C 0.1961(7) 0.1544(5) 0.6780(6)
H26 H 0.1000 0.1234 0.6542
C43 C 0.2894(7) 0.0912(5) 0.6576(5)
C44 C 0.4323(8) 0.1423(6) 0.6964(6)
H27 H 0.4978 0.1023 0.6852
C45 C 0.4744(7) 0.2533(5) 0.7516(5)
H28 H 0.5700 0.2866 0.7762
N5 N 0.3877(5) 0.3158(4) 0.7719(4)
N10 N 0.5642(5) 0.6610(4) 0.9251(4)
C62 C 0.5251(10) 0.7261(6) 0.9984(6)
C63 C 0.6680(9) 0.7101(6) 0.9027(7)
H39 H 0.7000 0.6673 0.8521
C64 C 0.7315(9) 0.8187(6) 0.9481(7)
H40 H 0.8023 0.8481 0.9271
C20 C 0.3093(7) 0.1152(5) 0.9750(5)
C21 C 0.4155(11) 0.1659(6) 0.9507(7)
H13 H 0.4472 0.1256 0.8988
H14 H 0.5485 0.3046 0.9837
N3 N 0.2380(6) 0.0056(4) 0.9265(5)
H5 H 0.0218 0.2821 0.4503
H6 H 0.0409 0.4557 0.5618
C13 C 0.0026(6) 0.6084(5) 0.7310(4)
C14 C 0.1453(6) 0.6227(5) 0.7465(5)
H9 H 0.1832 0.5632 0.7316
C15 C 0.2300(7) 0.7267(5) 0.7843(6)
H10 H 0.3255 0.7372 0.7921
C16 C 0.1750(7) 0.8166(5) 0.8112(5)
C17 C 0.0322(7) 0.7999(5) 0.7954(6)
C19 C 0.2740(8) 0.9268(5) 0.8545(6)
O3 O 0.3800(7) 0.9434(4) 0.8299(5)
H41 H 0.151885 0.981321 0.945676
C6 C 0.8773(8) 0.0912(6) 0.4264(6)
C7 C 0.8914(8) 0.2029(5) 0.5015(5)
C8 C 0.9741(8) 0.2924(6) 0.4983(6)
C9 C 0.9864(7) 0.3960(5) 0.5650(5)
C10 C 0.9173(6) 0.4106(5) 0.6366(4)
C11 C 0.8380(7) 0.3227(5) 0.6418(5)
H7 H 0.7928 0.3333 0.6913
C12 C 0.8244(8) 0.2194(5) 0.5749(5)
H8 H 0.7698 0.1603 0.5789
H11 H 0.9945 0.8595 0.8126
C18 C 0.9447(7) 0.6966(5) 0.7547(5)
H12 H 0.8485 0.6859 0.7432
N2 N 0.7501(6) 0.0206(5) 0.4014(5)
O1 O 0.9709(7) 0.0671(4) 0.3904(5)
O2 O 0.9088(4) 0.5086(3) 0.7016(3)
H42 H 0.675908 0.0528344 0.42867
C46 C 0.1227(8) 0.9088(6) 0.5736(6)
C47 C 0.1086(8) 0.7971(5) 0.4985(5)
C48 C 0.0259(8) 0.7076(6) 0.5017(6)
C49 C 0.0136(7) 0.6040(5) 0.4350(5)
C50 C 0.0827(6) 0.5894(5) 0.3634(4)
C51 C 0.1620(7) 0.6773(5) 0.3582(5)
H31 H 0.2072 0.6667 0.3087
C52 C 0.1756(8) 0.7806(5) 0.4251(5)
H32 H 0.2302 0.8397 0.4211
H35 H 0.0055 0.1405 0.1874
C58 C 0.0553(7) 0.3034(5) 0.2453(5)
H36 H 0.1515 0.3141 0.2568
N6 N 0.2499(6) 0.9794(5) 0.5986(5)
O12 O 0.0291(7) 0.9329(4) 0.6096(5)
O13 O 0.0912(4) 0.4914(3) 0.2984(3)
H43 H 0.324092 0.947166 0.57133
H29 H 0.9782 0.7179 0.5497
H30 H 0.9591 0.5443 0.4382
C53 C 0.9974(6) 0.3916(5) 0.2690(4)
C54 C 0.8547(6) 0.3773(5) 0.2535(5)
H33 H 0.8168 0.4368 0.2684
C55 C 0.7700(7) 0.2733(5) 0.2157(6)
H34 H 0.6745 0.2628 0.2079
C56 C 0.8250(7) 0.1834(5) 0.1888(5)
C57 C 0.9678(7) 0.2001(5) 0.2046(6)
C59 C 0.7260(8) 0.0732(5) 0.1455(6)
O14 O 0.6200(7) 0.0566(4) 0.1701(5)
H44 H 0.848115 0.0186794 0.0543237
C60 C 0.6907(7) 0.8848(5) 0.0250(5)
C61 C 0.5845(11) 0.8341(6) 0.0493(7)
H37 H 0.5528 0.8744 0.1012
H38 H 0.4515 0.6954 0.0163
N7 N 0.7620(6) 0.9944(4) 0.0735(5)
loop_
_geom_bond_atom_site_label_1
_geom_bond_atom_site_label_2
_geom_bond_site_symmetry_1
_geom_bond_site_symmetry_2
C23 H15 1_555 1_555
H16 C24 1_555 1_555
N4 C22 1_555 1_555
Co4 N4 1_555 1_555
C23 C24 1_555 1_555
C23 N4 1_555 1_555
Co4 N1 1_555 1_555
C1 H1 1_555 1_555
C2 C1 1_555 1_555
H2 C2 1_555 1_555
C3 C2 1_555 1_555
C4 C3 1_555 1_555
H3 C4 1_555 1_555
C5 C4 1_555 1_555
H4 C5 1_555 1_555
C25 C26 1_555 1_555
C26 C27 1_555 1_555
C27 H17 1_555 1_555
C28 C27 1_555 1_555
H18 C28 1_555 1_555
N1 C1 1_555 1_555
O4 Co4 1_555 1_555
O5 Co4 1_555 1_555
O6 Co4 1_555 1_555
C33 C34 1_555 1_555
C34 C28 1_555 1_555
C35 C34 1_555 1_555
H21 C35 1_555 1_555
C36 C26 1_555 1_555
H22 C36 1_555 1_555
O8 C33 1_555 1_555
O9 C33 1_555 1_555
H23 C37 1_555 1_555
Co7 O8 1_555 1_555
O18 Co4 1_555 1_555
C5 N1 1_555 1_555
C25 O4 1_555 1_555
C25 O5 1_555 1_555
C35 C36 1_555 1_555
O9 Co7 1_555 1_555
H20 C30 1_555 1_555
C31 C30 1_555 1_555
C32 C31 1_555 1_555
O7 C32 1_555 1_555
Co7 O7 1_555 1_555
H24 C38 1_555 1_555
C40 C39 1_555 1_555
O18 C40 1_555 1_555
C38 C39 1_555 1_555
C29 H19 1_555 1_555
Co7 O10 1_555 1_555
C41 H25 1_555 1_555
C42 C41 1_555 1_555
H26 C42 1_555 1_555
C43 C42 1_555 1_555
C44 C43 1_555 1_555
H27 C44 1_555 1_555
C45 C44 1_555 1_555
H28 C45 1_555 1_555
N5 Co7 1_555 1_555
N10 Co7 1_555 1_555
C41 N5 1_555 1_555
C45 N5 1_555 1_555
C63 H39 1_555 1_555
H40 C64 1_555 1_555
N10 C62 1_555 1_555
C63 C64 1_555 1_555
C63 N10 1_555 1_555
C20 C21 1_555 1_555
C21 H13 1_555 1_555
C20 N3 1_555 1_555
C13 C14 1_555 1_555
C14 H9 1_555 1_555
C15 C14 1_555 1_555
H10 C15 1_555 1_555
C16 C15 1_555 1_555
C17 C16 1_555 1_555
C19 C16 1_555 1_555
O3 C19 1_555 1_555
C6 C7 1_555 1_555
C7 C8 1_555 1_555
C9 C8 1_555 1_555
C10 C9 1_555 1_555
C11 C10 1_555 1_555
H7 C11 1_555 1_555
C12 C7 1_555 1_555
H8 C12 1_555 1_555
H12 C18 1_555 1_555
O1 C6 1_555 1_555
O2 C10 1_555 1_555
C6 N2 1_555 1_555
C11 C12 1_555 1_555
N2 H42 1_555 1_555
C46 C47 1_555 1_555
C47 C48 1_555 1_555
C49 C48 1_555 1_555
C50 C49 1_555 1_555
C51 C50 1_555 1_555
H31 C51 1_555 1_555
C52 C47 1_555 1_555
H32 C52 1_555 1_555
H36 C58 1_555 1_555
O12 C46 1_555 1_555
O13 C50 1_555 1_555
C46 N6 1_555 1_555
C51 C52 1_555 1_555
N6 H43 1_555 1_555
C53 C54 1_555 1_555
C54 H33 1_555 1_555
C55 C54 1_555 1_555
H34 C55 1_555 1_555
C56 C55 1_555 1_555
C57 C56 1_555 1_555
C59 C56 1_555 1_555
O14 C59 1_555 1_555
C60 C61 1_555 1_555
C61 H37 1_555 1_555
C60 N7 1_555 1_555

#END
