
###############################################################################
#
# This file contains modified crystal structure data generated from the
# MOF subset of the Cambridge Structural Database (CSD) v543 
# hosted by the Cambridge Crystallographic Data Centre (CCDC).
#
# This work is licensed under the Creative Commons
# Attribution-NonCommercial-ShareAlike 4.0 International License.
# To view a copy of this license, visit
# http://creativecommons.org/licenses/by-nc-sa/4.0/
# or send a letter to
# Creative Commons, PO Box 1866, Mountain View, CA 94042, USA.
#
# CIF created using the CSD Python API on 29 September 2022
# The structure has been converted into the P1 space group
# The structure has a 3D framework
# The original CSD entry ASACON is in the orthorhombic crystal system
# The framework has been calculated to contain at least 10.0% void space
# The void calculation uses a probe of radius 1.32A, grid spacing 0.4
#
###############################################################################

data_ASACON
_chemical_formula_moiety         '(C80 H16 O68 Zn9)n'
_symmetry_cell_setting           triclinic
_symmetry_space_group_name_H-M   'P 1'
_symmetry_Int_Tables_number      1
_space_group_name_Hall           'P 1'
loop_
_symmetry_equiv_pos_site_id
_symmetry_equiv_pos_as_xyz
1 x,y,z
_cell_length_a                   15.987(2)
_cell_length_b                   12.056(3)
_cell_length_c                   15.383(3)
_cell_angle_alpha                90
_cell_angle_beta                 90
_cell_angle_gamma                90
_cell_volume                     2964.91
loop_
_atom_site_label
_atom_site_type_symbol
_atom_site_fract_x
_atom_site_fract_y
_atom_site_fract_z
Zn7 Zn 0.2500 0.0000 0.18636(10)
H3 H 0.4125 0.0330 0.5743
H4 H 0.3440 0.0277 0.4448
O18 O 0.0502(4) 0.1276(5) 0.1414(4)
O19 O 0.5502(4) 0.1276(5) 0.8586(4)
Zn1 Zn 0.15894(9) 0.7500 0.2500
Zn3 Zn 0.05233(7) 0.97494(9) 0.18676(7)
C3 C 0.0063(6) 0.8829(7) 0.3454(6)
C10 C 0.0024(6) 0.6745(7) 0.4476(6)
O2 O 0.0610(4) 0.8135(6) 0.3329(4)
O3 O 0.0695(5) 0.6577(7) 0.4839(4)
O9 O 0.1566(3) 0.6094(5) 0.3272(3)
Zn5 Zn 0.65894(9) 0.7500 0.7500
Zn6 Zn 0.2500 0.5000 0.31364(10)
Zn7_2 Zn 0.2500 1.0000 0.18636(10)
Zn8 Zn 0.55233(7) 0.97494(9) 0.81324(7)
Zn9 Zn 0.05233(7) 0.52506(9) 0.31324(7)
Zn11 Zn 0.55233(7) 0.52506(9) 0.68676(7)
Zn12 Zn 0.44767(7) 0.47494(9) 0.31324(7)
C11 C 0.4111(6) 0.9672(7) 0.5429(6)
C12 C 0.4532(5) 0.8736(7) 0.5750(6)
C13 C 0.5063(6) 0.8829(7) 0.6546(6)
C14 C 0.4512(5) 0.7731(6) 0.5267(6)
C15 C 0.3992(6) 0.7692(7) 0.4502(6)
C16 C 0.3888(6) 0.6576(7) 0.4062(6)
C17 C 0.3599(5) 0.8634(7) 0.4201(5)
C18 C 0.3063(6) 0.8661(7) 0.3405(5)
C19 C 0.3682(6) 0.9633(7) 0.4666(6)
C20 C 0.5024(6) 0.6745(7) 0.5524(6)
O10 O 0.4888(4) 0.9629(6) 0.7053(4)
O11 O 0.5610(4) 0.8135(6) 0.6671(4)
O12 O 0.0610(4) 0.6865(6) 0.1671(4)
O13 O 0.5695(5) 0.6577(7) 0.5161(4)
O14 O 0.4720(4) 0.6128(5) 0.6120(5)
O16 O 0.4720(4) 0.8872(5) 0.8880(5)
O17 O 0.4498(4) 0.6276(5) 0.3586(4)
O20 O 0.3237(4) 0.6051(5) 0.4176(4)
O21 O 0.2419(4) 0.8053(6) 0.3428(4)
O22 O 0.2419(4) 0.6947(6) 0.1572(4)
O23 O 0.3266(4) 0.9302(6) 0.2803(4)
O25 O 0.1566(3) 0.8906(5) 0.1728(3)
O28 O 0.6566(3) 0.8906(5) 0.8272(3)
Zn2 Zn 0.7500 -0.0000 0.81364(10)
H1 H 0.9125 0.0330 0.4257
H2 H 0.8440 0.0277 0.5552
O24 O 0.6734(4) 0.0698(6) 0.7197(4)
O26 O 0.8434(3) 0.1094(5) 0.8272(3)
Zn2_2 Zn 0.7500 1.0000 0.81364(10)
C1 C 0.9111(6) 0.9672(7) 0.4571(6)
C2 C 0.9532(5) 0.8736(7) 0.4250(6)
C4 C 0.9512(5) 0.7731(6) 0.4733(6)
C5 C 0.8992(6) 0.7692(7) 0.5498(6)
C6 C 0.8888(6) 0.6576(7) 0.5938(6)
C7 C 0.8599(5) 0.8634(7) 0.5799(5)
C8 C 0.8063(6) 0.8661(7) 0.6595(5)
C9 C 0.8682(6) 0.9633(7) 0.5334(6)
O1 O 0.9888(4) 0.9629(6) 0.2947(4)
O4 O 0.9720(4) 0.6128(5) 0.3880(5)
O5 O 0.9498(4) 0.6276(5) 0.6414(4)
O6 O 0.8237(4) 0.6051(5) 0.5824(4)
O7 O 0.7419(4) 0.8053(6) 0.6572(4)
O8 O 0.8266(4) 0.9302(6) 0.7197(4)
Zn10 Zn 0.94767(7) 0.47494(9) 0.68676(7)
O15 O 0.9720(4) 0.8872(5) 0.1120(5)
Zn1_2 Zn 0.34106(9) 0.2500 0.2500
Zn3_2 Zn 0.44767(7) 0.02506(9) 0.18676(7)
C1_2 C 0.5889(6) 0.0328(7) 0.4571(6)
C2_2 C 0.5468(5) 0.1264(7) 0.4250(6)
C3_2 C 0.4937(6) 0.1171(7) 0.3454(6)
C4_2 C 0.5488(5) 0.2269(6) 0.4733(6)
C5_2 C 0.6008(6) 0.2308(7) 0.5498(6)
C6_2 C 0.6112(6) 0.3424(7) 0.5938(6)
C7_2 C 0.6401(5) 0.1366(7) 0.5799(5)
C8_2 C 0.6937(6) 0.1339(7) 0.6595(5)
C9_2 C 0.6318(6) 0.0367(7) 0.5334(6)
C10_2 C 0.4976(6) 0.3255(7) 0.4476(6)
O1_2 O 0.5112(4) 0.0371(6) 0.2947(4)
O2_2 O 0.4390(4) 0.1865(6) 0.3329(4)
O3_2 O 0.4305(5) 0.3423(7) 0.4839(4)
O4_2 O 0.5280(4) 0.3872(5) 0.3880(5)
O5_2 O 0.5502(4) 0.3724(5) 0.6414(4)
O6_2 O 0.6763(4) 0.3949(5) 0.5824(4)
O7_2 O 0.7581(4) 0.1947(6) 0.6572(4)
O9_2 O 0.3434(3) 0.3906(5) 0.3272(3)
Zn4 Zn 0.84106(9) 0.2500 0.7500
C11_2 C 0.0889(6) 0.0328(7) 0.5429(6)
C12_2 C 0.0468(5) 0.1264(7) 0.5750(6)
C14_2 C 0.0488(5) 0.2269(6) 0.5267(6)
C15_2 C 0.1008(6) 0.2308(7) 0.4502(6)
C16_2 C 0.1112(6) 0.3424(7) 0.4062(6)
C17_2 C 0.1401(5) 0.1366(7) 0.4201(5)
C18_2 C 0.1937(6) 0.1339(7) 0.3405(5)
C19_2 C 0.1318(6) 0.0367(7) 0.4666(6)
O10_2 O 0.0112(4) 0.0371(6) 0.7053(4)
O12_2 O 0.4390(4) 0.3135(6) 0.1671(4)
O14_2 O 0.0280(4) 0.3872(5) 0.6120(5)
O15_2 O 0.5280(4) 0.1128(5) 0.1120(5)
O16_2 O 0.0280(4) 0.1128(5) 0.8880(5)
O17_2 O 0.0502(4) 0.3724(5) 0.3586(4)
O20_2 O 0.1763(4) 0.3949(5) 0.4176(4)
O21_2 O 0.2581(4) 0.1947(6) 0.3428(4)
O22_2 O 0.2581(4) 0.3053(6) 0.1572(4)
O23_2 O 0.1734(4) 0.0698(6) 0.2803(4)
O25_2 O 0.3434(3) 0.1094(5) 0.1728(3)
H1_2 H 0.5875 0.9670 0.4257
H2_2 H 0.6560 0.9723 0.5552
H3_2 H 0.0875 0.9670 0.5743
H4_2 H 0.1560 0.9723 0.4448
O18_2 O 0.4498(4) 0.8724(5) 0.1414(4)
Zn8_2 Zn 0.94767(7) 0.02506(9) 0.81324(7)
C13_2 C 0.9937(6) 0.1171(7) 0.6546(6)
C20_2 C 0.9976(6) 0.3255(7) 0.5524(6)
O11_2 O 0.9390(4) 0.1865(6) 0.6671(4)
O13_2 O 0.9305(5) 0.3423(7) 0.5161(4)
O19_2 O 0.9498(4) 0.8724(5) 0.8586(4)
C3_3 C 0.0063(6) 0.6171(7) 0.1546(6)
C10_3 C 0.0024(6) 0.8255(7) 0.0524(6)
O3_3 O 0.0695(5) 0.8423(7) 0.0161(4)
C15_3 C 0.3992(6) 0.7308(7) 0.0498(6)
C16_3 C 0.3888(6) 0.8424(7) 0.0938(6)
C17_3 C 0.3599(5) 0.6366(7) 0.0799(5)
C18_3 C 0.3063(6) 0.6339(7) 0.1595(5)
C19_3 C 0.3682(6) 0.5367(7) 0.0334(6)
H4_3 H 0.3440 0.4723 0.0552
O20_3 O 0.3237(4) 0.8949(5) 0.0824(4)
O23_3 O 0.3266(4) 0.5698(6) 0.2197(4)
C11_3 C 0.4111(6) 0.5328(7) 0.9571(6)
H3_3 H 0.4125 0.4670 0.9257
C12_3 C 0.4532(5) 0.6264(7) 0.9250(6)
C13_3 C 0.5063(6) 0.6171(7) 0.8454(6)
C14_3 C 0.4512(5) 0.7269(6) 0.9733(6)
C20_3 C 0.5024(6) 0.8255(7) 0.9476(6)
O10_3 O 0.4888(4) 0.5371(6) 0.7947(4)
O11_3 O 0.5610(4) 0.6865(6) 0.8329(4)
O13_3 O 0.5695(5) 0.8423(7) 0.9839(4)
O28_2 O 0.6566(3) 0.6094(5) 0.6728(3)
C1_3 C 0.9111(6) 0.5328(7) 0.0429(6)
H1_3 H 0.9125 0.4670 0.0743
C2_3 C 0.9532(5) 0.6264(7) 0.0750(6)
C4_3 C 0.9512(5) 0.7269(6) 0.0267(6)
O1_3 O 0.9888(4) 0.5371(6) 0.2053(4)
Zn2_3 Zn 0.7500 0.5000 0.68636(10)
C5_3 C 0.8992(6) 0.7308(7) 0.9502(6)
C6_3 C 0.8888(6) 0.8424(7) 0.9062(6)
C7_3 C 0.8599(5) 0.6366(7) 0.9201(5)
C8_3 C 0.8063(6) 0.6339(7) 0.8405(5)
C9_3 C 0.8682(6) 0.5367(7) 0.9666(6)
H2_3 H 0.8440 0.4723 0.9448
O6_3 O 0.8237(4) 0.8949(5) 0.9176(4)
O7_3 O 0.7419(4) 0.6947(6) 0.8428(4)
O8_2 O 0.8266(4) 0.5698(6) 0.7803(4)
O24_2 O 0.6734(4) 0.4302(6) 0.7803(4)
O26_2 O 0.8434(3) 0.3906(5) 0.6728(3)
C1_4 C 0.5889(6) 0.4672(7) 0.0429(6)
H1_4 H 0.5875 0.5330 0.0743
C2_4 C 0.5468(5) 0.3736(7) 0.0750(6)
C3_4 C 0.4937(6) 0.3829(7) 0.1546(6)
C4_4 C 0.5488(5) 0.2731(6) 0.0267(6)
C10_4 C 0.4976(6) 0.1745(7) 0.0524(6)
O1_4 O 0.5112(4) 0.4629(6) 0.2053(4)
O3_4 O 0.4305(5) 0.1577(7) 0.0161(4)
C15_4 C 0.1008(6) 0.2692(7) 0.0498(6)
C16_4 C 0.1112(6) 0.1576(7) 0.0938(6)
C17_4 C 0.1401(5) 0.3634(7) 0.0799(5)
C18_4 C 0.1937(6) 0.3661(7) 0.1595(5)
C19_4 C 0.1318(6) 0.4633(7) 0.0334(6)
H4_4 H 0.1560 0.5277 0.0552
O20_4 O 0.1763(4) 0.1051(5) 0.0824(4)
O23_4 O 0.1734(4) 0.4302(6) 0.2197(4)
C5_4 C 0.6008(6) 0.2692(7) 0.9502(6)
C6_4 C 0.6112(6) 0.1576(7) 0.9062(6)
C7_4 C 0.6401(5) 0.3634(7) 0.9201(5)
C8_4 C 0.6937(6) 0.3661(7) 0.8405(5)
C9_4 C 0.6318(6) 0.4633(7) 0.9666(6)
H2_4 H 0.6560 0.5277 0.9448
O6_4 O 0.6763(4) 0.1051(5) 0.9176(4)
O7_4 O 0.7581(4) 0.3053(6) 0.8428(4)
C11_4 C 0.0889(6) 0.4672(7) 0.9571(6)
H3_4 H 0.0875 0.5330 0.9257
C12_4 C 0.0468(5) 0.3736(7) 0.9250(6)
C14_4 C 0.0488(5) 0.2731(6) 0.9733(6)
O10_4 O 0.0112(4) 0.4629(6) 0.7947(4)
C13_4 C 0.9937(6) 0.3829(7) 0.8454(6)
C20_4 C 0.9976(6) 0.1745(7) 0.9476(6)
O11_4 O 0.9390(4) 0.3135(6) 0.8329(4)
O13_4 O 0.9305(5) 0.1577(7) 0.9839(4)
loop_
_geom_bond_atom_site_label_1
_geom_bond_atom_site_label_2
_geom_bond_site_symmetry_1
_geom_bond_site_symmetry_2
Zn1 O2 1_555 1_555
O2 C3 1_555 1_555
O3 C10 1_555 1_555
O9 Zn1 1_555 1_555
Zn5 O11 1_555 1_555
Zn6 O9 1_555 1_555
Zn7_2 O23 1_555 1_555
Zn8 O10 1_555 1_555
Zn11 O14 1_555 1_555
Zn12 O17 1_555 1_555
C12 C11 1_555 1_555
C13 C12 1_555 1_555
C14 C12 1_555 1_555
C15 C14 1_555 1_555
C16 C15 1_555 1_555
C17 C15 1_555 1_555
C18 C17 1_555 1_555
C19 C11 1_555 1_555
C20 C14 1_555 1_555
O10 C13 1_555 1_555
O11 C13 1_555 1_555
O12 Zn1 1_555 1_555
O13 C20 1_555 1_555
O14 C20 1_555 1_555
O16 Zn8 1_555 1_555
O17 C16 1_555 1_555
O20 C16 1_555 1_555
O21 Zn1 1_555 1_555
O22 Zn1 1_555 1_555
O23 C18 1_555 1_555
O25 Zn1 1_555 1_555
O28 Zn5 1_555 1_555
Zn3 O25 1_555 1_555
O9 Zn9 1_555 1_555
Zn7_2 O25 1_555 1_555
Zn8 O28 1_555 1_555
C17 C19 1_555 1_555
C18 O21 1_555 1_555
O24 Zn2 1_555 1_555
O26 Zn2 1_555 1_555
Zn2_2 O8 1_555 1_555
C2 C1 1_555 1_555
C4 C2 1_555 1_555
C5 C4 1_555 1_555
C6 C5 1_555 1_555
C7 C5 1_555 1_555
C8 C7 1_555 1_555
C9 C1 1_555 1_555
O5 C6 1_555 1_555
O6 C6 1_555 1_555
O7 C8 1_555 1_555
O8 C8 1_555 1_555
Zn5 O7 1_555 1_555
Zn10 O5 1_555 1_555
O28 Zn2_2 1_555 1_555
C7 C9 1_555 1_555
Zn1_2 O2_2 1_555 1_555
Zn3_2 O1_2 1_555 1_555
C2_2 C1_2 1_555 1_555
C3_2 C2_2 1_555 1_555
C4_2 C2_2 1_555 1_555
C5_2 C4_2 1_555 1_555
C6_2 C5_2 1_555 1_555
C7_2 C5_2 1_555 1_555
C8_2 C7_2 1_555 1_555
C9_2 C1_2 1_555 1_555
C10_2 C4_2 1_555 1_555
O1_2 C3_2 1_555 1_555
O2_2 C3_2 1_555 1_555
O3_2 C10_2 1_555 1_555
O4_2 C10_2 1_555 1_555
O5_2 C6_2 1_555 1_555
O6_2 C6_2 1_555 1_555
O7_2 C8_2 1_555 1_555
O24 C8_2 1_555 1_555
O9_2 Zn1_2 1_555 1_555
Zn4 O7_2 1_555 1_555
Zn6 O9_2 1_555 1_555
Zn7 O23_2 1_555 1_555
Zn12 O4_2 1_555 1_555
Zn11 O5_2 1_555 1_555
Zn9 O17_2 1_555 1_555
C12_2 C11_2 1_555 1_555
C14_2 C12_2 1_555 1_555
C15_2 C14_2 1_555 1_555
C16_2 C15_2 1_555 1_555
C17_2 C15_2 1_555 1_555
C18_2 C17_2 1_555 1_555
C19_2 C11_2 1_555 1_555
O12_2 Zn1_2 1_555 1_555
O15_2 Zn3_2 1_555 1_555
O17_2 C16_2 1_555 1_555
O20_2 C16_2 1_555 1_555
O21_2 Zn1_2 1_555 1_555
O22_2 Zn1_2 1_555 1_555
O23_2 C18_2 1_555 1_555
O25_2 Zn1_2 1_555 1_555
Zn3_2 O25_2 1_555 1_555
C7_2 C9_2 1_555 1_555
O9_2 Zn12 1_555 1_555
Zn4 O26 1_555 1_555
Zn7 O25_2 1_555 1_555
C17_2 C19_2 1_555 1_555
C18_2 O21_2 1_555 1_555
Zn4 O11_2 1_555 1_555
O11_2 C13_2 1_555 1_555
O13_2 C20_2 1_555 1_555
Zn8_2 O26 1_555 1_555
O12 C3_3 1_555 1_555
O3_3 C10_3 1_555 1_555
Zn6 O23_3 1_555 1_555
C16_3 C15_3 1_555 1_555
C17_3 C15_3 1_555 1_555
C18_3 C17_3 1_555 1_555
H4_3 C19_3 1_555 1_555
O18_2 C16_3 1_555 1_555
O20_3 C16_3 1_555 1_555
O23_3 C18_3 1_555 1_555
C17_3 C19_3 1_555 1_555
C18_3 O22 1_555 1_555
Zn5 O11_3 1_555 1_555
Zn11 O10_3 1_555 1_555
C11_3 H3_3 1_555 1_555
C12_3 C11_3 1_555 1_555
C13_3 C12_3 1_555 1_555
C14_3 C12_3 1_555 1_555
C20_3 C14_3 1_555 1_555
O10_3 C13_3 1_555 1_555
O11_3 C13_3 1_555 1_555
O13_3 C20_3 1_555 1_555
O16 C20_3 1_555 1_555
O28_2 Zn5 1_555 1_555
Zn11 O28_2 1_555 1_555
C1_3 H1_3 1_555 1_555
C2_3 C1_3 1_555 1_555
C4_3 C2_3 1_555 1_555
Zn2_3 O8_2 1_555 1_555
C6_3 C5_3 1_555 1_555
C7_3 C5_3 1_555 1_555
C8_3 C7_3 1_555 1_555
H2_3 C9_3 1_555 1_555
O19_2 C6_3 1_555 1_555
O6_3 C6_3 1_555 1_555
O7_3 C8_3 1_555 1_555
O8_2 C8_3 1_555 1_555
Zn5 O7_3 1_555 1_555
O24_2 Zn2_3 1_555 1_555
O26_2 Zn2_3 1_555 1_555
O28_2 Zn2_3 1_555 1_555
C7_3 C9_3 1_555 1_555
Zn12 O1_4 1_555 1_555
C1_4 H1_4 1_555 1_555
C2_4 C1_4 1_555 1_555
C3_4 C2_4 1_555 1_555
C4_4 C2_4 1_555 1_555
C10_4 C4_4 1_555 1_555
O1_4 C3_4 1_555 1_555
O12_2 C3_4 1_555 1_555
O3_4 C10_4 1_555 1_555
O15_2 C10_4 1_555 1_555
Zn6 O23_4 1_555 1_555
C16_4 C15_4 1_555 1_555
C17_4 C15_4 1_555 1_555
C18_4 C17_4 1_555 1_555
H4_4 C19_4 1_555 1_555
O18 C16_4 1_555 1_555
O20_4 C16_4 1_555 1_555
O23_4 C18_4 1_555 1_555
C17_4 C19_4 1_555 1_555
C18_4 O22_2 1_555 1_555
C6_4 C5_4 1_555 1_555
C7_4 C5_4 1_555 1_555
C8_4 C7_4 1_555 1_555
H2_4 C9_4 1_555 1_555
O19 C6_4 1_555 1_555
O6_4 C6_4 1_555 1_555
O7_4 C8_4 1_555 1_555
O24_2 C8_4 1_555 1_555
Zn4 O7_4 1_555 1_555
C11_4 H3_4 1_555 1_555
C12_4 C11_4 1_555 1_555
C14_4 C12_4 1_555 1_555
C7_4 C9_4 1_555 1_555
Zn4 O26_2 1_555 1_555
Zn4 O11_4 1_555 1_555
O11_4 C13_4 1_555 1_555
O13_4 C20_4 1_555 1_555
Zn10 O26_2 1_555 1_555

#END
