
###############################################################################
#
# This file contains modified crystal structure data generated from the
# MOF subset of the Cambridge Structural Database (CSD) v543 
# hosted by the Cambridge Crystallographic Data Centre (CCDC).
#
# This work is licensed under the Creative Commons
# Attribution-NonCommercial-ShareAlike 4.0 International License.
# To view a copy of this license, visit
# http://creativecommons.org/licenses/by-nc-sa/4.0/
# or send a letter to
# Creative Commons, PO Box 1866, Mountain View, CA 94042, USA.
#
# CIF created using the CSD Python API on 29 September 2022
# The structure has been converted into the P1 space group
# The structure has a 3D framework
# The original CSD entry ASAHEJ is in the triclinic crystal system
# The framework has been calculated to contain at least 10.0% void space
# The void calculation uses a probe of radius 1.32A, grid spacing 0.4
#
###############################################################################

data_ASAHEJ
_chemical_formula_moiety         '(C48 H64 N12 O66 U12)n'
_symmetry_cell_setting           triclinic
_symmetry_space_group_name_H-M   'P 1'
_symmetry_Int_Tables_number      1
_space_group_name_Hall           'P 1'
loop_
_symmetry_equiv_pos_site_id
_symmetry_equiv_pos_as_xyz
1 x,y,z
_cell_length_a                   8.4603(2)
_cell_length_b                   16.8439(3)
_cell_length_c                   22.1605(5)
_cell_angle_alpha                78.795(1)
_cell_angle_beta                 89.894(1)
_cell_angle_gamma                82.174(1)
_cell_volume                     3067.94
loop_
_atom_site_label
_atom_site_type_symbol
_atom_site_fract_x
_atom_site_fract_y
_atom_site_fract_z
U4 U 0.46248(11) 0.09602(6) 0.24260(5)
O3 O 0.1029(18) 0.2078(9) 0.2572(6)
O4 O 0.2919(16) 0.2207(10) 0.1895(7)
O5 O 0.1465(18) 0.8080(10) 0.1865(8)
O8 O 0.0564(12) 0.5114(9) 0.2352(5)
O21 O 0.021(2) 0.0435(12) 0.3301(9)
O23 O 0.419(2) 0.1061(13) 0.3167(9)
O24 O 0.509(3) 0.0884(14) 0.1666(10)
O30 O 0.217(3) 0.0526(15) 0.2359(12)
H2 H 0.2070 0.0685 0.1976
C10 C 0.1663(19) 0.2490(9) 0.2124(8)
C11 C 0.084(2) 0.3321(9) 0.1820(8)
H13 H 0.1618 0.3713 0.1738
H14 H 0.0335 0.3291 0.1423
H16 H 0.0078 0.3622 0.2643
C13 C 0.034(2) 0.7712(12) 0.2072(9)
H17 H 0.0963 0.6633 0.1772
U15 U 0.26052(10) 0.90929(5) 0.23220(5)
O75 O 0.598(2) 0.2112(11) 0.2451(7)
O81 O 0.724(2) 0.0405(13) 0.2659(10)
O25 O 0.209(2) 0.8743(12) 0.3078(9)
O26 O 0.321(2) 0.9387(12) 0.1551(9)
O32 O 0.4877(19) 0.9487(10) 0.2773(8)
H4 H 0.4729 0.9408 0.3154
U19 U 0.76415(10) 0.90134(5) 0.26562(4)
O79 O 0.4511(17) 0.7914(9) 0.2438(6)
U1 U 0.0000 0.5000 0.0000
U3 U 0.96327(10) 0.09226(5) 0.25492(5)
O1 O 0.1023(17) 0.5589(10) 0.0837(8)
O2 O 0.2660(17) 0.4634(8) 0.0516(6)
O6 O 0.9516(19) 0.7883(10) 0.2511(7)
O7 O 0.6845(17) 0.3865(8) 0.1528(6)
O9 O 0.6197(16) 0.6626(7) 0.1316(6)
O13 O 0.8040(18) 0.1902(11) 0.3071(8)
O14 O 0.6475(18) 0.7782(10) 0.3108(7)
O16 O 0.2065(19) 0.3379(8) 0.3669(6)
O17 O 0.5609(12) 0.4947(9) 0.2627(5)
O18 O 0.1243(15) 0.6136(7) 0.3475(6)
O22 O 0.909(2) 0.1402(12) 0.1800(9)
H1 H 0.7192 0.0364 0.3043
N1 N 0.6461(8) 0.5255(7) 0.1407(4)
C1 C 0.7337(11) 0.4493(5) 0.1626(4)
N2 N 0.8761(10) 0.4433(5) 0.1954(4)
C2 C 0.9309(8) 0.5134(6) 0.2064(3)
N3 N 0.8433(12) 0.5896(5) 0.1845(4)
C3 C 0.7009(11) 0.5957(5) 0.1517(4)
N4 N 0.1595(9) 0.4760(7) 0.3586(4)
C4 C 0.2504(12) 0.4054(5) 0.3473(4)
N5 N 0.3896(11) 0.4107(5) 0.3142(4)
C5 C 0.4379(8) 0.4865(7) 0.2924(3)
N6 N 0.3469(12) 0.5570(5) 0.3037(4)
C6 C 0.2077(11) 0.5518(5) 0.3368(4)
C7 C 0.2374(15) 0.5172(10) 0.0836(8)
C8 C 0.3662(16) 0.5325(16) 0.1244(8)
H9 H 0.3792 0.4892 0.1620
H10 H 0.3359 0.5856 0.1370
C9 C 0.5213(15) 0.5331(14) 0.0910(6)
H11 H 0.5405 0.4866 0.0694
H12 H 0.5210 0.5847 0.0607
C12 C 0.958(2) 0.3602(8) 0.2244(8)
H15 H 0.8789 0.3213 0.2321
C14 C 0.998(3) 0.7025(14) 0.1777(11)
H18 H 0.9600 0.7241 0.1347
C15 C 0.872(2) 0.6599(10) 0.2135(9)
H19 H 0.9084 0.6398 0.2569
H20 H 0.7723 0.6984 0.2127
C18 C 0.0383(15) 0.4700(14) 0.4080(6)
H23 H 0.0320 0.5173 0.4287
H24 H 0.0653 0.4191 0.4391
C19 C 0.671(2) 0.2283(12) 0.2889(9)
C20 C 0.601(2) 0.2950(12) 0.3211(9)
H25 H 0.6800 0.3323 0.3242
H26 H 0.5701 0.2713 0.3632
C21 C 0.456(2) 0.3413(11) 0.2844(9)
H27 H 0.4859 0.3625 0.2417
H28 H 0.3747 0.3046 0.2831
C22 C 0.536(2) 0.7501(9) 0.2885(8)
C23 C 0.501(3) 0.6660(10) 0.3181(8)
H29 H 0.6010 0.6270 0.3241
H30 H 0.4535 0.6673 0.3588
C24 C 0.387(2) 0.6397(8) 0.2767(8)
H31 H 0.2878 0.6795 0.2705
H32 H 0.4350 0.6389 0.2360
O27 O 0.704(2) 0.9066(11) 0.1892(8)
O28 O 0.831(2) 0.8884(12) 0.3421(9)
O31 O 0.985(2) 0.9613(11) 0.2202(9)
H3 H 0.9656 0.9729 0.1821
U1_2 U 0.0000 0.5000 1.0000
O33 O 0.151(2) 0.3695(10) 0.9851(8)
H5 H 0.1361 0.3642 0.9487
H6 H 0.2488 0.3694 0.9917
O68 O 0.0976(19) 0.5656(10) 0.9424(7)
U1_3 U 1.0000 0.5000 0.0000
U2 U 0.5000 0.5000 0.5000
O10 O 0.6341(18) 0.4414(10) 0.4169(8)
O11 O 0.7473(18) 0.5360(9) 0.4482(7)
O19 O 0.9024(19) 0.4344(10) 0.0576(7)
O20 O 0.6296(18) 0.4338(10) 0.5570(7)
O34 O 0.584(2) 0.6286(11) 0.5191(8)
H7 H 0.5669 0.6329 0.5557
H8 H 0.6824 0.6276 0.5126
C16 C 0.7457(17) 0.4834(12) 0.4155(9)
C17 C 0.8833(16) 0.4697(16) 0.3748(8)
H21 H 0.8720 0.5133 0.3373
H22 H 0.8836 0.4166 0.3619
O44 O 0.3659(18) 0.5586(10) 0.5831(8)
O45 O 0.2527(18) 0.4640(9) 0.5518(7)
O53 O 0.3704(18) 0.5662(10) 0.4430(7)
O66 O 0.416(2) 0.3714(11) 0.4809(8)
H37 H 0.4331 0.3671 0.4443
H38 H 0.3176 0.3724 0.4874
C40 C 0.2543(17) 0.5166(12) 0.5845(9)
C41 C 0.1167(16) 0.5303(16) 0.6252(8)
H51 H 0.1280 0.4867 0.6627
H52 H 0.1164 0.5834 0.6381
O67 O 0.849(2) 0.6305(10) 0.0149(8)
H63 H 0.8639 0.6358 0.0513
H64 H 0.7512 0.6306 0.0083
U1_4 U 1.0000 0.5000 1.0000
O69 O 0.8977(17) 0.4411(10) 0.9163(8)
O70 O 0.7340(17) 0.5366(8) 0.9484(6)
U10 U 0.23585(10) 0.09866(5) 0.73438(4)
O60 O 0.296(2) 0.0934(11) 0.8108(8)
O61 O 0.169(2) 0.1116(12) 0.6579(9)
O64 O 0.015(2) 0.0387(11) 0.7798(9)
H35 H 0.0344 0.0271 0.8179
O74 O 0.0484(19) 0.2117(10) 0.7489(7)
O78 O 0.3525(18) 0.2218(10) 0.6892(7)
O84 O 0.5123(19) 0.0513(10) 0.7227(8)
U7 U 0.03673(10) 0.90774(5) 0.74508(5)
O41 O 0.3155(17) 0.6135(8) 0.8472(6)
O43 O 0.3803(16) 0.3374(7) 0.8684(6)
O46 O 0.402(2) 0.7888(11) 0.7549(7)
O47 O 0.1960(18) 0.8098(11) 0.6929(8)
O49 O 0.5489(17) 0.2086(9) 0.7562(6)
O50 O 0.7935(19) 0.6621(8) 0.6331(6)
O51 O 0.4391(12) 0.5053(9) 0.7373(5)
O52 O 0.8757(15) 0.3864(7) 0.6525(6)
O55 O 0.091(2) 0.8598(12) 0.8200(9)
O62 O 0.276(2) 0.9595(13) 0.7341(10)
H33 H 0.2808 0.9636 0.6957
N7 N 0.3539(8) 0.4745(7) 0.8593(4)
C25 C 0.2663(11) 0.5507(5) 0.8374(4)
N8 N 0.1239(10) 0.5567(5) 0.8046(4)
C26 C 0.0691(8) 0.4866(6) 0.7936(3)
N9 N 0.1567(12) 0.4104(5) 0.8155(4)
C27 C 0.2991(11) 0.4043(5) 0.8483(4)
N10 N 0.8405(9) 0.5240(7) 0.6414(4)
C28 C 0.7496(12) 0.5946(5) 0.6527(4)
N11 N 0.6104(11) 0.5893(5) 0.6858(4)
C29 C 0.5621(8) 0.5135(7) 0.7076(3)
N12 N 0.6531(12) 0.4430(5) 0.6963(4)
C30 C 0.7923(11) 0.4482(5) 0.6632(4)
C31 C 0.7626(15) 0.4828(10) 0.9164(8)
C32 C 0.6338(16) 0.4675(16) 0.8756(8)
H39 H 0.6208 0.5108 0.8380
H40 H 0.6641 0.4144 0.8630
C33 C 0.4787(15) 0.4669(14) 0.9090(6)
H41 H 0.4595 0.5134 0.9306
H42 H 0.4790 0.4153 0.9393
C36 C 0.042(2) 0.6398(8) 0.7756(8)
H45 H 0.1211 0.6787 0.7679
C38 C 0.002(3) 0.2975(14) 0.8223(11)
H48 H 0.0400 0.2759 0.8653
C39 C 0.128(2) 0.3401(10) 0.7865(9)
H49 H 0.0916 0.3602 0.7431
H50 H 0.2277 0.3016 0.7873
C42 C 0.9617(15) 0.5300(14) 0.5920(6)
H53 H 0.9680 0.4827 0.5713
H54 H 0.9347 0.5809 0.5609
C43 C 0.329(2) 0.7717(12) 0.7111(9)
C44 C 0.399(2) 0.7050(12) 0.6789(9)
H55 H 0.3200 0.6677 0.6758
H56 H 0.4299 0.7287 0.6368
C45 C 0.544(2) 0.6587(11) 0.7156(9)
H57 H 0.5141 0.6375 0.7583
H58 H 0.6253 0.6954 0.7169
C46 C 0.464(2) 0.2499(9) 0.7115(8)
C47 C 0.499(3) 0.3340(10) 0.6819(8)
H59 H 0.3990 0.3730 0.6759
H60 H 0.5465 0.3327 0.6412
C48 C 0.613(2) 0.3603(8) 0.7233(8)
H61 H 0.7122 0.3205 0.7295
H62 H 0.5650 0.3611 0.7640
U13 U 0.53752(11) 0.90398(6) 0.75740(5)
U17 U 0.73948(10) 0.09071(5) 0.76780(5)
O58 O 0.791(2) 0.1257(12) 0.6922(9)
O59 O 0.679(2) 0.0613(12) 0.8449(9)
H36 H 0.5271 0.0592 0.6846
O72 O 0.8535(18) 0.1920(10) 0.8135(8)
O37 O 0.8971(18) 0.7922(9) 0.7428(6)
O38 O 0.7081(16) 0.7793(10) 0.8105(7)
O42 O 0.9436(12) 0.4886(9) 0.7648(5)
O54 O 0.979(2) 0.9565(12) 0.6699(9)
O56 O 0.581(2) 0.8939(13) 0.6833(9)
O57 O 0.491(3) 0.9116(14) 0.8334(10)
O63 O 0.783(3) 0.9474(15) 0.7641(12)
H34 H 0.7930 0.9315 0.8024
C34 C 0.8337(19) 0.7510(9) 0.7876(8)
C35 C 0.916(2) 0.6679(9) 0.8180(8)
H43 H 0.8382 0.6287 0.8262
H44 H 0.9665 0.6709 0.8577
H46 H 0.9922 0.6378 0.7357
C37 C 0.966(2) 0.2288(12) 0.7928(9)
H47 H 0.9037 0.3367 0.8228
loop_
_geom_bond_atom_site_label_1
_geom_bond_atom_site_label_2
_geom_bond_site_symmetry_1
_geom_bond_site_symmetry_2
U4 O4 1_555 1_555
O3 C10 1_555 1_555
O4 C10 1_555 1_555
O5 C13 1_555 1_555
O23 U4 1_555 1_555
O24 U4 1_555 1_555
H2 O30 1_555 1_555
C10 C11 1_555 1_555
C11 H13 1_555 1_555
H14 C11 1_555 1_555
U15 O5 1_555 1_555
O75 U4 1_555 1_555
O81 U4 1_555 1_555
U4 O30 1_555 1_555
U15 O25 1_555 1_555
O26 U15 1_555 1_555
H4 O32 1_555 1_555
U19 O32 1_555 1_555
O79 U15 1_555 1_555
U15 O32 1_555 1_555
U1 O1 1_555 1_555
O1 C7 1_555 1_555
O2 U1 1_555 1_555
O7 C1 1_555 1_555
O9 C3 1_555 1_555
O75 C19 1_555 1_555
O13 U3 1_555 1_555
O14 C22 1_555 1_555
O79 C22 1_555 1_555
O16 C4 1_555 1_555
O17 C5 1_555 1_555
O18 C6 1_555 1_555
O22 U3 1_555 1_555
O81 U3 1_555 1_555
H1 O81 1_555 1_555
N1 C1 1_555 1_555
C1 N2 1_555 1_555
N2 C2 1_555 1_555
C2 N3 1_555 1_555
N3 C3 1_555 1_555
C3 N1 1_555 1_555
N4 C4 1_555 1_555
C4 N5 1_555 1_555
N5 C5 1_555 1_555
C5 N6 1_555 1_555
N6 C6 1_555 1_555
C6 N4 1_555 1_555
C7 O2 1_555 1_555
C8 C7 1_555 1_555
H9 C8 1_555 1_555
H10 C8 1_555 1_555
C9 N1 1_555 1_555
H11 C9 1_555 1_555
H12 C9 1_555 1_555
C12 N2 1_555 1_555
H15 C12 1_555 1_555
H18 C14 1_555 1_555
C15 N3 1_555 1_555
H19 C15 1_555 1_555
H20 C15 1_555 1_555
C18 N4 1_555 1_555
H23 C18 1_555 1_555
H24 C18 1_555 1_555
C19 O13 1_555 1_555
C20 C19 1_555 1_555
H25 C20 1_555 1_555
H26 C20 1_555 1_555
C21 N5 1_555 1_555
H27 C21 1_555 1_555
H28 C21 1_555 1_555
C22 C23 1_555 1_555
C23 H29 1_555 1_555
H30 C23 1_555 1_555
C24 N6 1_555 1_555
H31 C24 1_555 1_555
H32 C24 1_555 1_555
U19 O6 1_555 1_555
O14 U19 1_555 1_555
C8 C9 1_555 1_555
C14 C15 1_555 1_555
C20 C21 1_555 1_555
C23 C24 1_555 1_555
U19 O27 1_555 1_555
O28 U19 1_555 1_555
H3 O31 1_555 1_555
U19 O31 1_555 1_555
O33 U1_2 1_555 1_555
H5 O33 1_555 1_555
H6 O33 1_555 1_555
O68 U1_2 1_555 1_555
U2 O10 1_555 1_555
O10 C16 1_555 1_555
O11 U2 1_555 1_555
O19 U1_3 1_555 1_555
O20 U2 1_555 1_555
O34 U2 1_555 1_555
H7 O34 1_555 1_555
H8 O34 1_555 1_555
C16 O11 1_555 1_555
C17 C16 1_555 1_555
H21 C17 1_555 1_555
H22 C17 1_555 1_555
O44 U2 1_555 1_555
O45 U2 1_555 1_555
O53 U2 1_555 1_555
O66 U2 1_555 1_555
H37 O66 1_555 1_555
H38 O66 1_555 1_555
C40 O44 1_555 1_555
C41 C40 1_555 1_555
H51 C41 1_555 1_555
H52 C41 1_555 1_555
O67 U1_3 1_555 1_555
H63 O67 1_555 1_555
H64 O67 1_555 1_555
O45 C40 1_555 1_555
O69 U1_4 1_555 1_555
O70 U1_4 1_555 1_555
U10 O60 1_555 1_555
O61 U10 1_555 1_555
H35 O64 1_555 1_555
O74 U10 1_555 1_555
O78 U10 1_555 1_555
O84 U10 1_555 1_555
U10 O64 1_555 1_555
O69 C31 1_555 1_555
O70 C31 1_555 1_555
O41 C25 1_555 1_555
O43 C27 1_555 1_555
O46 C43 1_555 1_555
O47 U7 1_555 1_555
O78 C46 1_555 1_555
O49 C46 1_555 1_555
O50 C28 1_555 1_555
O51 C29 1_555 1_555
O52 C30 1_555 1_555
O55 U7 1_555 1_555
O62 U7 1_555 1_555
H33 O62 1_555 1_555
N7 C25 1_555 1_555
C25 N8 1_555 1_555
N8 C26 1_555 1_555
C26 N9 1_555 1_555
N9 C27 1_555 1_555
C27 N7 1_555 1_555
N10 C28 1_555 1_555
C28 N11 1_555 1_555
N11 C29 1_555 1_555
C29 N12 1_555 1_555
N12 C30 1_555 1_555
C30 N10 1_555 1_555
C31 C32 1_555 1_555
C32 H39 1_555 1_555
H40 C32 1_555 1_555
C33 N7 1_555 1_555
H41 C33 1_555 1_555
H42 C33 1_555 1_555
C36 N8 1_555 1_555
H45 C36 1_555 1_555
H48 C38 1_555 1_555
C39 N9 1_555 1_555
H49 C39 1_555 1_555
H50 C39 1_555 1_555
C42 N10 1_555 1_555
H53 C42 1_555 1_555
H54 C42 1_555 1_555
C43 O47 1_555 1_555
C44 C43 1_555 1_555
H55 C44 1_555 1_555
H56 C44 1_555 1_555
C45 N11 1_555 1_555
H57 C45 1_555 1_555
H58 C45 1_555 1_555
C46 C47 1_555 1_555
C47 H59 1_555 1_555
H60 C47 1_555 1_555
C48 N12 1_555 1_555
H61 C48 1_555 1_555
H62 C48 1_555 1_555
U13 O46 1_555 1_555
U17 O49 1_555 1_555
O62 U13 1_555 1_555
C32 C33 1_555 1_555
C38 C39 1_555 1_555
C44 C45 1_555 1_555
C47 C48 1_555 1_555
U17 O58 1_555 1_555
O59 U17 1_555 1_555
H36 O84 1_555 1_555
O72 U17 1_555 1_555
U17 O84 1_555 1_555
U13 O38 1_555 1_555
O37 C34 1_555 1_555
O38 C34 1_555 1_555
O72 C37 1_555 1_555
O56 U13 1_555 1_555
O57 U13 1_555 1_555
H34 O63 1_555 1_555
C34 C35 1_555 1_555
C35 H43 1_555 1_555
H44 C35 1_555 1_555
U13 O63 1_555 1_555

#END
