
###############################################################################
#
# This file contains modified crystal structure data generated from the
# MOF subset of the Cambridge Structural Database (CSD) v543 
# hosted by the Cambridge Crystallographic Data Centre (CCDC).
#
# This work is licensed under the Creative Commons
# Attribution-NonCommercial-ShareAlike 4.0 International License.
# To view a copy of this license, visit
# http://creativecommons.org/licenses/by-nc-sa/4.0/
# or send a letter to
# Creative Commons, PO Box 1866, Mountain View, CA 94042, USA.
#
# CIF created using the CSD Python API on 29 September 2022
# The structure has been converted into the P1 space group
# The structure has a 3D framework
# The original CSD entry ASAMUE is in the orthorhombic crystal system
# The framework has been calculated to contain at least 10.0% void space
# The void calculation uses a probe of radius 1.32A, grid spacing 0.4
# H atom positions have been added when not included in the experimental data
#
###############################################################################

data_ASAMUE
_chemical_formula_moiety         '(C192 H240 N48 O181 Th24)n'
_symmetry_cell_setting           triclinic
_symmetry_space_group_name_H-M   'P 1'
_symmetry_Int_Tables_number      1
_space_group_name_Hall           'P 1'
loop_
_symmetry_equiv_pos_site_id
_symmetry_equiv_pos_as_xyz
1 x,y,z
_cell_length_a                   17.0105(2)
_cell_length_b                   21.9594(3)
_cell_length_c                   24.8081(3)
_cell_angle_alpha                90
_cell_angle_beta                 90
_cell_angle_gamma                90
_cell_volume                     9266.83
loop_
_atom_site_label
_atom_site_type_symbol
_atom_site_fract_x
_atom_site_fract_y
_atom_site_fract_z
Th6 Th 0.430877(14) 0.901998(11) 0.054773(10)
Th1 Th 0.430877(14) 0.598002(11) 0.554773(10)
Th2 Th 0.453001(15) 0.548193(11) 0.398895(10)
Th3 Th 0.645432(15) 0.562405(11) 0.494949(10)
O1 O 0.4469(4) 0.5962(3) 0.6527(2)
O2 O 0.5079(4) 0.5113(3) 0.6796(2)
O3 O 0.3621(4) 0.8273(3) 0.9960(3)
O4 O 0.3775(4) 0.8556(3) 0.9079(2)
O5 O 0.6580(3) 0.8789(3) 0.9131(2)
O6 O 0.5536(3) 0.8830(3) 0.8581(2)
O7 O 0.3513(4) 0.6566(3) 0.8328(3)
O8 O 0.5184(3) 0.7691(2) 0.9361(2)
O9 O 0.6000(5) 0.6926(4) 0.7760(3)
O10 O 0.2950(3) 0.5833(3) 0.5835(2)
O11 O 0.2488(3) 0.4966(2) 0.5497(2)
O12 O 0.3235(3) 0.5147(3) 0.3702(2)
O13 O 0.2594(3) 0.4597(2) 0.4309(2)
O14 O 0.0157(3) 0.8106(2) 0.4368(2)
O15 O 0.1363(3) 0.8337(3) 0.4663(2)
O16 O 0.0958(3) 0.4484(2) 0.4875(2)
O17 O 0.0771(4) 0.6044(3) 0.3677(3)
O18 O 0.0504(3) 0.6388(3) 0.5479(2)
O19 O 0.5142(3) 0.6065(2) 0.4730(2)
O20 O 0.3823(5) 0.5389(3) 0.4812(3)
O21 O 0.5809(5) 0.5068(4) 0.4216(4)
O22 O 0.5584(5) 0.5554(4) 0.5708(4)
O23 O 0.3642(4) 0.6903(3) 0.6086(3)
O24 O 0.4113(4) 0.5968(3) 0.3064(3)
O25 O 0.7763(4) 0.6214(3) 0.4866(3)
N1 N 0.4739(6) 0.6782(4) 0.8015(3)
N2 N 0.4344(5) 0.7106(3) 0.8865(3)
N3 N 0.5623(5) 0.7281(3) 0.8574(3)
N4 N 0.0875(4) 0.5453(3) 0.5196(3)
N5 N 0.0969(4) 0.5260(3) 0.4269(3)
N6 N 0.0614(4) 0.6233(3) 0.4574(3)
C1 C 0.4783(6) 0.5620(4) 0.6877(3)
C2 C 0.4785(7) 0.5861(4) 0.7445(4)
H1 H 0.4412 0.5620 0.7666
H2 H 0.5316 0.5809 0.7601
C3 C 0.4558(7) 0.6521(5) 0.7471(4)
H3 H 0.4850 0.6751 0.7191
H4 H 0.3989 0.6564 0.7396
C4 C 0.4153(6) 0.6805(4) 0.8398(4)
C5 C 0.3753(6) 0.7094(4) 0.9299(4)
H5 H 0.4026 0.7120 0.9651
H6 H 0.3471 0.6700 0.9287
C6 C 0.3157(6) 0.7608(4) 0.9262(4)
H7 H 0.2972 0.7651 0.8886
H8 H 0.2697 0.7516 0.9493
C7 C 0.3540(5) 0.8193(4) 0.9446(4)
C8 C 0.5050(6) 0.7384(3) 0.8958(3)
C9 C 0.6436(6) 0.7510(4) 0.8679(4)
H9 H 0.6823 0.7207 0.8548
H10 H 0.6514 0.7561 0.9072
C10 C 0.6574(5) 0.8120(4) 0.8395(3)
H11 H 0.7145 0.8196 0.8361
H12 H 0.6344 0.8107 0.8029
C11 C 0.6197(5) 0.8626(3) 0.8717(3)
C12 C 0.5485(7) 0.6986(5) 0.8095(4)
C13 C 0.2415(4) 0.5436(3) 0.5765(3)
C14 C 0.1634(5) 0.5557(4) 0.6038(3)
H13 H 0.1661 0.5412 0.6415
H14 H 0.1541 0.6002 0.6047
C15 C 0.0949(4) 0.5253(4) 0.5761(3)
H15 H 0.1022 0.4806 0.5771
H16 H 0.0458 0.5350 0.5957
C16 C 0.0943(4) 0.5030(3) 0.4781(3)
C17 C 0.1120(4) 0.4844(3) 0.3811(3)
H17 H 0.0695 0.4891 0.3542
H18 H 0.1110 0.4418 0.3943
C18 C 0.1904(4) 0.4966(4) 0.3543(3)
H19 H 0.1952 0.4688 0.3230
H20 H 0.1894 0.5387 0.3400
C19 C 0.2628(5) 0.4899(3) 0.3879(3)
C20 C 0.0793(5) 0.5861(4) 0.4134(3)
C21 C 0.0370(5) 0.6875(3) 0.4468(3)
H22 H 0.0139 0.6905 0.4103
C22 C 0.1066(4) 0.7296(3) 0.4511(3)
H23 H 0.1425 0.7218 0.4205
H24 H 0.1355 0.7204 0.4848
C23 C 0.0833(4) 0.7970(3) 0.4511(3)
C24 C 0.0653(4) 0.6052(3) 0.5106(3)
Th5 Th 0.569123(14) 0.401998(11) 0.445227(10)
Th7 Th 0.546999(15) 0.451807(11) 0.601105(10)
Th8 Th 0.453001(15) 0.951807(11) 0.898895(10)
Th9 Th 0.145432(15) 0.937595(11) 0.505051(10)
Th10 Th 0.354568(15) 0.437595(11) 0.505051(10)
Th11 Th 0.645432(15) 0.937595(11) 0.994949(10)
O26 O 0.4921(4) 0.4887(3) 0.3204(2)
O27 O 0.3621(4) 0.6727(3) 0.4960(3)
O28 O 0.3775(4) 0.6444(3) 0.4079(2)
O29 O 0.6580(3) 0.6211(3) 0.4131(2)
O30 O 0.5536(3) 0.6170(3) 0.3581(2)
O31 O 0.7512(3) 0.5034(2) 0.4503(2)
O32 O 0.7406(3) 0.5403(2) 0.5691(2)
O33 O 0.5157(3) 0.6894(2) 0.5632(2)
O34 O 0.6363(3) 0.6663(3) 0.5337(2)
O35 O 0.6177(5) 0.4611(3) 0.5188(3)
O36 O 0.4191(5) 0.4932(4) 0.5784(4)
O37 O 0.4416(5) 0.4446(4) 0.4292(4)
H25 H 0.774832 0.657722 0.510422
H26 H 0.820519 0.594575 0.49751
H27 H 0.362391 0.620837 0.311382
H28 H 0.453894 0.623925 0.293257
H29 H 0.405248 0.713047 0.628714
H30 H 0.337863 0.718088 0.582696
H21 H 0.9963 0.6998 0.4732
Th4 Th 0.930877(14) 0.901998(11) 0.445227(10)
Th1_2 Th 0.069123(14) 0.401998(11) 0.054773(10)
O1_2 O 0.0531(4) 0.4038(3) 0.1527(2)
O3_2 O 0.1379(4) 0.1727(3) 0.4960(3)
O4_2 O 0.1225(4) 0.1444(3) 0.4079(2)
O7_2 O 0.1487(4) 0.3434(3) 0.3328(3)
O10_2 O 0.2050(3) 0.4167(3) 0.0835(2)
O11_2 O 0.2512(3) 0.5034(2) 0.0497(2)
O18_2 O 0.4496(3) 0.3612(3) 0.0479(2)
O23_2 O 0.1358(4) 0.3097(3) 0.1086(3)
N1_2 N 0.0261(6) 0.3218(4) 0.3015(3)
N2_2 N 0.0656(5) 0.2894(3) 0.3865(3)
N4_2 N 0.4125(4) 0.4547(3) 0.0196(3)
C1_2 C 0.0217(6) 0.4380(4) 0.1877(3)
C2_2 C 0.0215(7) 0.4139(4) 0.2445(4)
H1_2 H 0.0588 0.4380 0.2666
C3_2 C 0.0442(7) 0.3479(5) 0.2471(4)
H3_2 H 0.0150 0.3249 0.2191
H4_2 H 0.1011 0.3436 0.2396
C4_2 C 0.0847(6) 0.3195(4) 0.3398(4)
C5_2 C 0.1247(6) 0.2906(4) 0.4299(4)
H5_2 H 0.0974 0.2880 0.4651
H6_2 H 0.1529 0.3300 0.4287
C6_2 C 0.1843(6) 0.2392(4) 0.4262(4)
H7_2 H 0.2028 0.2349 0.3886
H8_2 H 0.2303 0.2484 0.4493
C7_2 C 0.1460(5) 0.1807(4) 0.4446(4)
C13_2 C 0.2585(4) 0.4564(3) 0.0765(3)
C14_2 C 0.3366(5) 0.4443(4) 0.1038(3)
H13_2 H 0.3339 0.4588 0.1415
H14_2 H 0.3459 0.3998 0.1047
C15_2 C 0.4051(4) 0.4747(4) 0.0761(3)
H15_2 H 0.3978 0.5194 0.0771
H16_2 H 0.4542 0.4650 0.0957
C24_2 C 0.4347(4) 0.3948(3) 0.0106(3)
Th6_2 Th 0.069123(14) 0.098002(11) 0.554773(10)
Th8_2 Th 0.046999(15) 0.048193(11) 0.398895(10)
Th9_2 Th 0.354568(15) 0.062405(11) 0.005051(10)
Th10_2 Th 0.145432(15) 0.562405(11) 0.005051(10)
O36_2 O 0.0809(5) 0.5068(4) 0.0784(4)
H29_2 H 0.094752 0.286953 0.128714
H30_2 H 0.162137 0.281912 0.0826958
Th2_2 Th 0.046999(15) 0.451807(11) 0.898895(10)
O12_2 O 0.1765(3) 0.4853(3) 0.8702(2)
O13_2 O 0.2406(3) 0.5403(2) 0.9309(2)
O14_2 O 0.4843(3) 0.1894(2) 0.9368(2)
O15_2 O 0.3637(3) 0.1663(3) 0.9663(2)
O16_2 O 0.4042(3) 0.5516(2) 0.9875(2)
O17_2 O 0.4229(4) 0.3956(3) 0.8677(3)
O20_2 O 0.1177(5) 0.4611(3) 0.9812(3)
O24_2 O 0.0887(4) 0.4032(3) 0.8064(3)
N5_2 N 0.4031(4) 0.4740(3) 0.9269(3)
N6_2 N 0.4386(4) 0.3767(3) 0.9574(3)
C16_2 C 0.4057(4) 0.4970(3) 0.9781(3)
C17_2 C 0.3880(4) 0.5156(3) 0.8811(3)
H17_2 H 0.4305 0.5109 0.8542
H18_2 H 0.3890 0.5582 0.8943
C18_2 C 0.3096(4) 0.5034(4) 0.8543(3)
H19_2 H 0.3048 0.5312 0.8230
H20_2 H 0.3106 0.4613 0.8400
C19_2 C 0.2372(5) 0.5101(3) 0.8879(3)
C20_2 C 0.4207(5) 0.4139(4) 0.9134(3)
C21_2 C 0.4630(5) 0.3125(3) 0.9468(3)
H21_2 H 0.5037 0.3002 0.9732
H22_2 H 0.4861 0.3095 0.9103
C22_2 C 0.3934(4) 0.2704(3) 0.9511(3)
H23_2 H 0.3575 0.2782 0.9205
H24_2 H 0.3645 0.2796 0.9848
C23_2 C 0.4167(4) 0.2030(3) 0.9511(3)
Th4_2 Th 0.569123(14) 0.098002(11) 0.945227(10)
O26_2 O 0.0079(4) 0.5113(3) 0.8204(2)
O27_2 O 0.1379(4) 0.3273(3) 0.9960(3)
O28_2 O 0.1225(4) 0.3556(3) 0.9079(2)
O37_2 O 0.0584(5) 0.5554(4) 0.9292(4)
H27_2 H 0.137609 0.379163 0.811382
H28_2 H 0.0461062 0.376075 0.793257
O2_2 O 0.9921(4) 0.4887(3) 0.1796(2)
O5_2 O 0.8420(3) 0.1211(3) 0.4131(2)
O6_2 O 0.9464(3) 0.1170(3) 0.3581(2)
O8_2 O 0.9816(3) 0.2309(2) 0.4361(2)
O9_2 O 0.9000(5) 0.3074(4) 0.2760(3)
O22_2 O 0.9416(5) 0.4446(4) 0.0708(4)
N3_2 N 0.9377(5) 0.2719(3) 0.3574(3)
H2_2 H 0.9684 0.4191 0.2601
C8_2 C 0.9950(6) 0.2616(3) 0.3958(3)
C9_2 C 0.8564(6) 0.2490(4) 0.3679(4)
H9_2 H 0.8177 0.2793 0.3548
H10_2 H 0.8486 0.2439 0.4072
C10_2 C 0.8426(5) 0.1880(4) 0.3395(3)
H11_2 H 0.7855 0.1804 0.3361
H12_2 H 0.8656 0.1893 0.3029
C11_2 C 0.8803(5) 0.1374(3) 0.3717(3)
C12_2 C 0.9515(7) 0.3014(5) 0.3095(4)
Th7_2 Th 0.953001(15) 0.548193(11) 0.101105(10)
Th11_2 Th 0.854568(15) 0.062405(11) 0.494949(10)
O32_2 O 0.7594(3) 0.4597(2) 0.0691(2)
O33_2 O 0.9843(3) 0.3106(2) 0.0632(2)
O34_2 O 0.8637(3) 0.3337(3) 0.0337(2)
O35_2 O 0.8823(5) 0.5389(3) 0.0188(3)
H25_2 H 0.725168 0.342278 0.0104216
Th3_2 Th 0.854568(15) 0.437595(11) 0.994949(10)
O19_2 O 0.9858(3) 0.3935(2) 0.9730(2)
O21_2 O 0.9191(5) 0.4932(4) 0.9216(4)
O25_2 O 0.7237(4) 0.3786(3) 0.9866(3)
Th5_2 Th 0.930877(14) 0.598002(11) 0.945227(10)
O29_2 O 0.8420(3) 0.3789(3) 0.9131(2)
O30_2 O 0.9464(3) 0.3830(3) 0.8581(2)
O31_2 O 0.7488(3) 0.4966(2) 0.9503(2)
H26_2 H 0.679481 0.405425 0.99751
H21_3 H 0.0037 0.1998 0.0268
Th2_3 Th 0.546999(15) 0.048193(11) 0.101105(10)
O12_3 O 0.6765(3) 0.0147(3) 0.1298(2)
O17_3 O 0.9229(4) 0.1044(3) 0.1323(3)
O19_3 O 0.4858(3) 0.1065(2) 0.0270(2)
O20_3 O 0.6177(5) 0.0389(3) 0.0188(3)
O21_3 O 0.4191(5) 0.0068(4) 0.0784(4)
O24_3 O 0.5887(4) 0.0968(3) 0.1936(3)
O25_3 O 0.2237(4) 0.1214(3) 0.0134(3)
N5_3 N 0.9031(4) 0.0260(3) 0.0731(3)
N6_3 N 0.9386(4) 0.1233(3) 0.0426(3)
C16_3 C 0.9057(4) 0.0030(3) 0.0219(3)
H20_3 H 0.8106 0.0387 0.1600
C20_3 C 0.9207(5) 0.0861(4) 0.0866(3)
C21_3 C 0.9630(5) 0.1875(3) 0.0532(3)
H22_3 H 0.9861 0.1905 0.0897
C22_3 C 0.8934(4) 0.2296(3) 0.0489(3)
H23_3 H 0.8575 0.2218 0.0795
H24_3 H 0.8645 0.2204 0.0152
C23_3 C 0.9167(4) 0.2970(3) 0.0489(3)
O27_3 O 0.6379(4) 0.1727(3) 0.0040(3)
O28_3 O 0.6225(4) 0.1444(3) 0.0921(2)
O29_3 O 0.3420(3) 0.1211(3) 0.0869(2)
O30_3 O 0.4464(3) 0.1170(3) 0.1419(2)
O31_3 O 0.2488(3) 0.0034(2) 0.0497(2)
H26_3 H 0.179481 0.0945748 0.00248994
H27_3 H 0.637609 0.120837 0.188618
H28_3 H 0.546106 0.123925 0.206743
O1_3 O 0.5531(4) 0.0962(3) 0.8473(2)
O2_3 O 0.4921(4) 0.0113(3) 0.8204(2)
O3_3 O 0.6379(4) 0.3273(3) 0.5040(3)
O4_3 O 0.6225(4) 0.3556(3) 0.5921(2)
O5_3 O 0.3420(3) 0.3789(3) 0.5869(2)
O6_3 O 0.4464(3) 0.3830(3) 0.6419(2)
O7_3 O 0.6487(4) 0.1566(3) 0.6672(3)
O8_3 O 0.4816(3) 0.2691(2) 0.5639(2)
O9_3 O 0.4000(5) 0.1926(4) 0.7240(3)
O10_3 O 0.7050(3) 0.0833(3) 0.9165(2)
O18_3 O 0.9496(3) 0.1388(3) 0.9521(2)
O22_3 O 0.4416(5) 0.0554(4) 0.9292(4)
O23_3 O 0.6358(4) 0.1903(3) 0.8914(3)
N1_3 N 0.5261(6) 0.1782(4) 0.6985(3)
N2_3 N 0.5656(5) 0.2106(3) 0.6135(3)
N3_3 N 0.4377(5) 0.2281(3) 0.6426(3)
N4_3 N 0.9125(4) 0.0453(3) 0.9804(3)
C1_3 C 0.5217(6) 0.0620(4) 0.8123(3)
C2_3 C 0.5215(7) 0.0861(4) 0.7555(4)
H1_3 H 0.5588 0.0620 0.7334
H2_3 H 0.4684 0.0809 0.7399
C3_3 C 0.5442(7) 0.1521(5) 0.7529(4)
H3_3 H 0.5150 0.1751 0.7809
H4_3 H 0.6011 0.1564 0.7604
C4_3 C 0.5847(6) 0.1805(4) 0.6602(4)
C5_3 C 0.6247(6) 0.2094(4) 0.5701(4)
H5_3 H 0.5974 0.2120 0.5349
H6_3 H 0.6529 0.1700 0.5713
C6_3 C 0.6843(6) 0.2608(4) 0.5738(4)
H7_3 H 0.7028 0.2651 0.6114
H8_3 H 0.7303 0.2516 0.5507
C7_3 C 0.6460(5) 0.3193(4) 0.5554(4)
C8_3 C 0.4950(6) 0.2384(3) 0.6042(3)
C9_3 C 0.3564(6) 0.2510(4) 0.6321(4)
H9_3 H 0.3177 0.2207 0.6452
H10_3 H 0.3486 0.2561 0.5928
C10_3 C 0.3426(5) 0.3120(4) 0.6605(3)
H11_3 H 0.2855 0.3196 0.6639
H12_3 H 0.3656 0.3107 0.6971
C11_3 C 0.3803(5) 0.3626(3) 0.6283(3)
C12_3 C 0.4515(7) 0.1986(5) 0.6905(4)
C13_3 C 0.7585(4) 0.0436(3) 0.9235(3)
C14_3 C 0.8366(5) 0.0557(4) 0.8962(3)
H13_3 H 0.8339 0.0412 0.8585
H14_3 H 0.8459 0.1002 0.8953
C15_3 C 0.9051(4) 0.0253(4) 0.9239(3)
H16_3 H 0.9542 0.0350 0.9043
C24_3 C 0.9347(4) 0.1052(3) 0.9894(3)
O32_3 O 0.2594(3) 0.0403(2) 0.9309(2)
H25_3 H 0.225168 0.157722 0.989578
H29_3 H 0.594752 0.213047 0.871286
H30_3 H 0.662137 0.218088 0.917304
O13_3 O 0.7406(3) 0.9597(2) 0.0691(2)
O16_3 O 0.9042(3) 0.9484(2) 0.0125(2)
C17_3 C 0.8880(4) 0.9844(3) 0.1189(3)
H17_3 H 0.9305 0.9891 0.1458
H18_3 H 0.8890 0.9418 0.1057
C18_3 C 0.8096(4) 0.9966(4) 0.1457(3)
H19_3 H 0.8048 0.9688 0.1770
C19_3 C 0.7372(5) 0.9899(3) 0.1121(3)
O26_3 O 0.5079(4) 0.9887(3) 0.1796(2)
O37_3 O 0.5584(5) 0.9446(4) 0.0708(4)
O11_3 O 0.7512(3) 0.9966(2) 0.9503(2)
H15_3 H 0.8978 0.9806 0.9229
O35_3 O 0.3823(5) 0.9611(3) 0.9812(3)
O36_3 O 0.5809(5) 0.9932(4) 0.9216(4)
O35_4 O 0.1177(5) 0.0389(3) 0.4812(3)
O2_4 O 0.0079(4) 0.9887(3) 0.3204(2)
O5_4 O 0.1580(3) 0.6211(3) 0.0869(2)
O6_4 O 0.0536(3) 0.6170(3) 0.1419(2)
O8_4 O 0.0184(3) 0.7309(2) 0.0639(2)
O9_4 O 0.1000(5) 0.8074(4) 0.2240(3)
O19_4 O 0.0142(3) 0.8935(2) 0.5270(2)
O21_4 O 0.0809(5) 0.9932(4) 0.5784(4)
O22_4 O 0.0584(5) 0.9446(4) 0.4292(4)
O25_4 O 0.2763(4) 0.8786(3) 0.5134(3)
N3_4 N 0.0623(5) 0.7719(3) 0.1426(3)
H2_4 H 0.0316 0.9191 0.2399
C8_4 C 0.0050(6) 0.7616(3) 0.1042(3)
C9_4 C 0.1436(6) 0.7490(4) 0.1321(4)
H9_4 H 0.1823 0.7793 0.1452
H10_4 H 0.1514 0.7439 0.0928
C10_4 C 0.1574(5) 0.6880(4) 0.1605(3)
H11_4 H 0.2145 0.6804 0.1639
H12_4 H 0.1344 0.6893 0.1971
C11_4 C 0.1197(5) 0.6374(3) 0.1283(3)
C12_4 C 0.0485(7) 0.8014(5) 0.1905(4)
O29_4 O 0.1580(3) 0.8789(3) 0.5869(2)
O30_4 O 0.0536(3) 0.8830(3) 0.6419(2)
O31_4 O 0.2512(3) 0.9966(2) 0.5497(2)
O32_4 O 0.2406(3) 0.9597(2) 0.4309(2)
H25_4 H 0.274832 0.842278 0.489578
H26_4 H 0.320519 0.905425 0.50249
O11_4 O 0.7488(3) 0.0034(2) 0.4503(2)
O13_4 O 0.7594(3) 0.0403(2) 0.5691(2)
O16_4 O 0.5958(3) 0.0516(2) 0.5125(2)
H15_4 H 0.6022 0.0194 0.4229
C17_4 C 0.6120(4) 0.0156(3) 0.6189(3)
H17_4 H 0.5695 0.0109 0.6458
H18_4 H 0.6110 0.0582 0.6057
C18_4 C 0.6904(4) 0.0034(4) 0.6457(3)
H19_4 H 0.6952 0.0312 0.6770
C19_4 C 0.7628(5) 0.0101(3) 0.6121(3)
O26_4 O 0.9921(4) 0.0113(3) 0.6796(2)
O36_4 O 0.9191(5) 0.0068(4) 0.4216(4)
O37_4 O 0.9416(5) 0.0554(4) 0.5708(4)
Th2_4 Th 0.953001(15) 0.951807(11) 0.601105(10)
O1_4 O 0.9469(4) 0.9038(3) 0.3473(2)
O3_4 O 0.8621(4) 0.6727(3) 0.0040(3)
O4_4 O 0.8775(4) 0.6444(3) 0.0921(2)
O7_4 O 0.8513(4) 0.8434(3) 0.1672(3)
O10_4 O 0.7950(3) 0.9167(3) 0.4165(2)
O12_4 O 0.8235(3) 0.9853(3) 0.6298(2)
O17_4 O 0.5771(4) 0.8956(3) 0.6323(3)
O18_4 O 0.5504(3) 0.8612(3) 0.4521(2)
O20_4 O 0.8823(5) 0.9611(3) 0.5188(3)
O23_4 O 0.8642(4) 0.8097(3) 0.3914(3)
O24_4 O 0.9113(4) 0.9032(3) 0.6936(3)
N1_4 N 0.9739(6) 0.8218(4) 0.1985(3)
N2_4 N 0.9344(5) 0.7894(3) 0.1135(3)
N4_4 N 0.5875(4) 0.9547(3) 0.4804(3)
N5_4 N 0.5969(4) 0.9740(3) 0.5731(3)
N6_4 N 0.5614(4) 0.8767(3) 0.5426(3)
C1_4 C 0.9783(6) 0.9380(4) 0.3123(3)
C2_4 C 0.9785(7) 0.9139(4) 0.2555(4)
H1_4 H 0.9412 0.9380 0.2334
C3_4 C 0.9558(7) 0.8479(5) 0.2529(4)
H3_4 H 0.9850 0.8249 0.2809
H4_4 H 0.8989 0.8436 0.2604
C4_4 C 0.9153(6) 0.8195(4) 0.1602(4)
C5_4 C 0.8753(6) 0.7906(4) 0.0701(4)
H5_4 H 0.9026 0.7880 0.0349
H6_4 H 0.8471 0.8300 0.0713
C6_4 C 0.8157(6) 0.7392(4) 0.0738(4)
H7_4 H 0.7972 0.7349 0.1114
H8_4 H 0.7697 0.7484 0.0507
C7_4 C 0.8540(5) 0.6807(4) 0.0554(4)
C13_4 C 0.7415(4) 0.9564(3) 0.4235(3)
C14_4 C 0.6634(5) 0.9443(4) 0.3962(3)
H13_4 H 0.6661 0.9588 0.3585
H14_4 H 0.6541 0.8998 0.3953
C15_4 C 0.5949(4) 0.9747(4) 0.4239(3)
H16_4 H 0.5458 0.9650 0.4043
C16_4 C 0.5943(4) 0.9970(3) 0.5219(3)
H20_4 H 0.6894 0.9613 0.6600
C20_4 C 0.5793(5) 0.9139(4) 0.5866(3)
C21_4 C 0.5370(5) 0.8125(3) 0.5532(3)
H21_4 H 0.4963 0.8002 0.5268
H22_4 H 0.5139 0.8095 0.5897
C22_4 C 0.6066(4) 0.7704(3) 0.5489(3)
H23_4 H 0.6425 0.7782 0.5795
H24_4 H 0.6355 0.7796 0.5152
C23_4 C 0.5833(4) 0.7030(3) 0.5489(3)
C24_4 C 0.5653(4) 0.8948(3) 0.4894(3)
O27_4 O 0.8621(4) 0.8273(3) 0.5040(3)
O28_4 O 0.8775(4) 0.8556(3) 0.5921(2)
H27_4 H 0.862391 0.879163 0.688618
H28_4 H 0.953894 0.876075 0.706743
H29_4 H 0.905248 0.786953 0.371286
H30_4 H 0.837863 0.781912 0.417304
H21_5 H 0.0037 0.3002 0.5268
O1_5 O 0.5531(4) 0.4038(3) 0.3473(2)
O7_5 O 0.6487(4) 0.3434(3) 0.1672(3)
O8_5 O 0.4816(3) 0.2309(2) 0.0639(2)
O9_5 O 0.4000(5) 0.3074(4) 0.2240(3)
O10_5 O 0.7050(3) 0.4167(3) 0.4165(2)
O12_5 O 0.6765(3) 0.4853(3) 0.6298(2)
O14_3 O 0.9843(3) 0.1894(2) 0.5632(2)
O15_3 O 0.8637(3) 0.1663(3) 0.5337(2)
O16_5 O 0.9042(3) 0.5516(2) 0.5125(2)
O17_5 O 0.9229(4) 0.3956(3) 0.6323(3)
O18_5 O 0.9496(3) 0.3612(3) 0.4521(2)
O19_5 O 0.4858(3) 0.3935(2) 0.5270(2)
O23_5 O 0.6358(4) 0.3097(3) 0.3914(3)
O24_5 O 0.5887(4) 0.4032(3) 0.6936(3)
O25_5 O 0.2237(4) 0.3786(3) 0.5134(3)
N1_5 N 0.5261(6) 0.3218(4) 0.1985(3)
N2_5 N 0.5656(5) 0.2894(3) 0.1135(3)
N3_5 N 0.4377(5) 0.2719(3) 0.1426(3)
N4_5 N 0.9125(4) 0.4547(3) 0.4804(3)
N5_5 N 0.9031(4) 0.4740(3) 0.5731(3)
N6_5 N 0.9386(4) 0.3767(3) 0.5426(3)
C1_5 C 0.5217(6) 0.4380(4) 0.3123(3)
C2_5 C 0.5215(7) 0.4139(4) 0.2555(4)
H1_5 H 0.5588 0.4380 0.2334
H2_5 H 0.4684 0.4191 0.2399
C3_5 C 0.5442(7) 0.3479(5) 0.2529(4)
H3_5 H 0.5150 0.3249 0.2809
H4_5 H 0.6011 0.3436 0.2604
C4_5 C 0.5847(6) 0.3195(4) 0.1602(4)
C5_5 C 0.6247(6) 0.2906(4) 0.0701(4)
H5_5 H 0.5974 0.2880 0.0349
H6_5 H 0.6529 0.3300 0.0713
C6_5 C 0.6843(6) 0.2392(4) 0.0738(4)
H7_5 H 0.7028 0.2349 0.1114
H8_5 H 0.7303 0.2484 0.0507
C7_5 C 0.6460(5) 0.1807(4) 0.0554(4)
C8_5 C 0.4950(6) 0.2616(3) 0.1042(3)
C9_5 C 0.3564(6) 0.2490(4) 0.1321(4)
H9_5 H 0.3177 0.2793 0.1452
H10_5 H 0.3486 0.2439 0.0928
C10_5 C 0.3426(5) 0.1880(4) 0.1605(3)
H11_5 H 0.2855 0.1804 0.1639
H12_5 H 0.3656 0.1893 0.1971
C11_5 C 0.3803(5) 0.1374(3) 0.1283(3)
C12_5 C 0.4515(7) 0.3014(5) 0.1905(4)
C13_5 C 0.7585(4) 0.4564(3) 0.4235(3)
C14_5 C 0.8366(5) 0.4443(4) 0.3962(3)
H13_5 H 0.8339 0.4588 0.3585
H14_5 H 0.8459 0.3998 0.3953
C15_5 C 0.9051(4) 0.4747(4) 0.4239(3)
H15_5 H 0.8978 0.5194 0.4229
H16_5 H 0.9542 0.4650 0.4043
C16_5 C 0.9057(4) 0.4970(3) 0.5219(3)
C17_5 C 0.8880(4) 0.5156(3) 0.6189(3)
H17_5 H 0.9305 0.5109 0.6458
H18_5 H 0.8890 0.5582 0.6057
C18_5 C 0.8096(4) 0.5034(4) 0.6457(3)
H19_5 H 0.8048 0.5312 0.6770
H20_5 H 0.8106 0.4613 0.6600
C19_5 C 0.7372(5) 0.5101(3) 0.6121(3)
C20_5 C 0.9207(5) 0.4139(4) 0.5866(3)
C21_5 C 0.9630(5) 0.3125(3) 0.5532(3)
H22_5 H 0.9861 0.3095 0.5897
C22_5 C 0.8934(4) 0.2704(3) 0.5489(3)
H23_5 H 0.8575 0.2782 0.5795
H24_5 H 0.8645 0.2796 0.5152
C23_5 C 0.9167(4) 0.2030(3) 0.5489(3)
C24_5 C 0.9347(4) 0.3948(3) 0.4894(3)
O33_3 O 0.4843(3) 0.3106(2) 0.4368(2)
O34_3 O 0.3637(3) 0.3337(3) 0.4663(2)
H25_5 H 0.225168 0.342278 0.489578
H26_5 H 0.179481 0.405425 0.50249
H27_5 H 0.637609 0.379163 0.688618
H28_5 H 0.546106 0.376075 0.706743
H29_5 H 0.594752 0.286953 0.371286
H30_5 H 0.662137 0.281912 0.417304
O19_6 O 0.0142(3) 0.6065(2) 0.0270(2)
O25_6 O 0.2763(4) 0.6214(3) 0.0134(3)
H26_6 H 0.320519 0.594575 0.00248994
O8_6 O 0.0184(3) 0.7691(2) 0.5639(2)
O9_6 O 0.1000(5) 0.6926(4) 0.7240(3)
N3_6 N 0.0623(5) 0.7281(3) 0.6426(3)
H2_6 H 0.0316 0.5809 0.7399
C8_6 C 0.0050(6) 0.7384(3) 0.6042(3)
C9_6 C 0.1436(6) 0.7510(4) 0.6321(4)
H9_6 H 0.1823 0.7207 0.6452
H10_6 H 0.1514 0.7561 0.5928
C10_6 C 0.1574(5) 0.8120(4) 0.6605(3)
H11_6 H 0.2145 0.8196 0.6639
H12_6 H 0.1344 0.8107 0.6971
C11_6 C 0.1197(5) 0.8626(3) 0.6283(3)
C12_6 C 0.0485(7) 0.6986(5) 0.6905(4)
O33_4 O 0.0157(3) 0.6894(2) 0.9368(2)
O34_4 O 0.1363(3) 0.6663(3) 0.9663(2)
H25_6 H 0.274832 0.657722 0.989578
O12_6 O 0.8235(3) 0.5147(3) 0.1298(2)
O14_4 O 0.5157(3) 0.8106(2) 0.0632(2)
O15_4 O 0.6363(3) 0.8337(3) 0.0337(2)
O16_6 O 0.5958(3) 0.4484(2) 0.0125(2)
O17_6 O 0.5771(4) 0.6044(3) 0.1323(3)
O24_6 O 0.9113(4) 0.5968(3) 0.1936(3)
N5_6 N 0.5969(4) 0.5260(3) 0.0731(3)
N6_6 N 0.5614(4) 0.6233(3) 0.0426(3)
C16_6 C 0.5943(4) 0.5030(3) 0.0219(3)
C17_6 C 0.6120(4) 0.4844(3) 0.1189(3)
H17_6 H 0.5695 0.4891 0.1458
H18_6 H 0.6110 0.4418 0.1057
C18_6 C 0.6904(4) 0.4966(4) 0.1457(3)
H19_6 H 0.6952 0.4688 0.1770
H20_6 H 0.6894 0.5387 0.1600
C19_6 C 0.7628(5) 0.4899(3) 0.1121(3)
C20_6 C 0.5793(5) 0.5861(4) 0.0866(3)
C21_6 C 0.5370(5) 0.6875(3) 0.0532(3)
H21_6 H 0.4963 0.6998 0.0268
H22_6 H 0.5139 0.6905 0.0897
C22_6 C 0.6066(4) 0.7296(3) 0.0489(3)
H23_6 H 0.6425 0.7218 0.0795
H24_6 H 0.6355 0.7204 0.0152
C23_6 C 0.5833(4) 0.7970(3) 0.0489(3)
H27_6 H 0.862391 0.620837 0.188618
H28_6 H 0.953894 0.623925 0.206743
O1_6 O 0.9469(4) 0.5962(3) 0.8473(2)
O7_6 O 0.8513(4) 0.6566(3) 0.6672(3)
O10_6 O 0.7950(3) 0.5833(3) 0.9165(2)
O18_6 O 0.5504(3) 0.6388(3) 0.9521(2)
O23_6 O 0.8642(4) 0.6903(3) 0.8914(3)
N1_6 N 0.9739(6) 0.6782(4) 0.6985(3)
N2_6 N 0.9344(5) 0.7106(3) 0.6135(3)
N4_6 N 0.5875(4) 0.5453(3) 0.9804(3)
C1_6 C 0.9783(6) 0.5620(4) 0.8123(3)
C2_6 C 0.9785(7) 0.5861(4) 0.7555(4)
H1_6 H 0.9412 0.5620 0.7334
C3_6 C 0.9558(7) 0.6521(5) 0.7529(4)
H3_6 H 0.9850 0.6751 0.7809
H4_6 H 0.8989 0.6564 0.7604
C4_6 C 0.9153(6) 0.6805(4) 0.6602(4)
C5_6 C 0.8753(6) 0.7094(4) 0.5701(4)
H5_6 H 0.9026 0.7120 0.5349
H6_6 H 0.8471 0.6700 0.5713
C6_6 C 0.8157(6) 0.7608(4) 0.5738(4)
H7_6 H 0.7972 0.7651 0.6114
H8_6 H 0.7697 0.7516 0.5507
C7_6 C 0.8540(5) 0.8193(4) 0.5554(4)
C13_6 C 0.7415(4) 0.5436(3) 0.9235(3)
C14_6 C 0.6634(5) 0.5557(4) 0.8962(3)
H13_6 H 0.6661 0.5412 0.8585
H14_6 H 0.6541 0.6002 0.8953
C15_6 C 0.5949(4) 0.5253(4) 0.9239(3)
H15_6 H 0.6022 0.4806 0.9229
H16_6 H 0.5458 0.5350 0.9043
C24_6 C 0.5653(4) 0.6052(3) 0.9894(3)
H29_6 H 0.905248 0.713047 0.871286
H30_6 H 0.837863 0.718088 0.917304
H15_7 H 0.1022 0.0194 0.0771
O16_7 O 0.0958(3) 0.0516(2) 0.9875(2)
C17_7 C 0.1120(4) 0.0156(3) 0.8811(3)
H17_7 H 0.0695 0.0109 0.8542
H18_7 H 0.1110 0.0582 0.8943
C18_7 C 0.1904(4) 0.0034(4) 0.8543(3)
H19_7 H 0.1952 0.0312 0.8230
C19_7 C 0.2628(5) 0.0101(3) 0.8879(3)
O1_7 O 0.4469(4) 0.9038(3) 0.1527(2)
O7_7 O 0.3513(4) 0.8434(3) 0.3328(3)
O8_7 O 0.5184(3) 0.7309(2) 0.4361(2)
O9_7 O 0.6000(5) 0.8074(4) 0.2760(3)
O10_7 O 0.2950(3) 0.9167(3) 0.0835(2)
O18_7 O 0.0504(3) 0.8612(3) 0.0479(2)
O23_7 O 0.3642(4) 0.8097(3) 0.1086(3)
N1_7 N 0.4739(6) 0.8218(4) 0.3015(3)
N2_7 N 0.4344(5) 0.7894(3) 0.3865(3)
N3_7 N 0.5623(5) 0.7719(3) 0.3574(3)
N4_7 N 0.0875(4) 0.9547(3) 0.0196(3)
C1_7 C 0.4783(6) 0.9380(4) 0.1877(3)
C2_7 C 0.4785(7) 0.9139(4) 0.2445(4)
H1_7 H 0.4412 0.9380 0.2666
H2_7 H 0.5316 0.9191 0.2601
C3_7 C 0.4558(7) 0.8479(5) 0.2471(4)
H3_7 H 0.4850 0.8249 0.2191
H4_7 H 0.3989 0.8436 0.2396
C4_7 C 0.4153(6) 0.8195(4) 0.3398(4)
C5_7 C 0.3753(6) 0.7906(4) 0.4299(4)
H5_7 H 0.4026 0.7880 0.4651
H6_7 H 0.3471 0.8300 0.4287
C6_7 C 0.3157(6) 0.7392(4) 0.4262(4)
H7_7 H 0.2972 0.7349 0.3886
H8_7 H 0.2697 0.7484 0.4493
C7_7 C 0.3540(5) 0.6807(4) 0.4446(4)
C8_7 C 0.5050(6) 0.7616(3) 0.3958(3)
C9_7 C 0.6436(6) 0.7490(4) 0.3679(4)
H9_7 H 0.6823 0.7793 0.3548
H10_7 H 0.6514 0.7439 0.4072
C10_7 C 0.6574(5) 0.6880(4) 0.3395(3)
H11_7 H 0.7145 0.6804 0.3361
H12_7 H 0.6344 0.6893 0.3029
C11_7 C 0.6197(5) 0.6374(3) 0.3717(3)
C12_7 C 0.5485(7) 0.8014(5) 0.3095(4)
C13_7 C 0.2415(4) 0.9564(3) 0.0765(3)
C14_7 C 0.1634(5) 0.9443(4) 0.1038(3)
H13_7 H 0.1661 0.9588 0.1415
H14_7 H 0.1541 0.8998 0.1047
C15_7 C 0.0949(4) 0.9747(4) 0.0761(3)
H16_7 H 0.0458 0.9650 0.0957
C24_7 C 0.0653(4) 0.8948(3) 0.0106(3)
H25_7 H 0.774832 0.842278 0.0104216
H29_7 H 0.405248 0.786953 0.128714
H30_7 H 0.337863 0.781912 0.0826958
O12_7 O 0.3235(3) 0.9853(3) 0.8702(2)
O17_7 O 0.0771(4) 0.8956(3) 0.8677(3)
O19_7 O 0.5142(3) 0.8935(2) 0.9730(2)
O24_7 O 0.4113(4) 0.9032(3) 0.8064(3)
O25_7 O 0.7763(4) 0.8786(3) 0.9866(3)
N5_7 N 0.0969(4) 0.9740(3) 0.9269(3)
N6_7 N 0.0614(4) 0.8767(3) 0.9574(3)
C16_7 C 0.0943(4) 0.9970(3) 0.9781(3)
H20_7 H 0.1894 0.9613 0.8400
C20_7 C 0.0793(5) 0.9139(4) 0.9134(3)
C21_7 C 0.0370(5) 0.8125(3) 0.9468(3)
H22_7 H 0.0139 0.8095 0.9103
C22_7 C 0.1066(4) 0.7704(3) 0.9511(3)
H23_7 H 0.1425 0.7782 0.9205
H24_7 H 0.1355 0.7796 0.9848
C23_7 C 0.0833(4) 0.7030(3) 0.9511(3)
H26_7 H 0.820519 0.905425 0.99751
H27_7 H 0.362391 0.879163 0.811382
H28_7 H 0.453894 0.876075 0.793257
H21_7 H 0.9963 0.8002 0.9732
O1_8 O 0.0531(4) 0.0962(3) 0.6527(2)
O7_8 O 0.1487(4) 0.1566(3) 0.8328(3)
O10_8 O 0.2050(3) 0.0833(3) 0.5835(2)
O12_8 O 0.1765(3) 0.0147(3) 0.3702(2)
O17_8 O 0.4229(4) 0.1044(3) 0.3677(3)
O18_8 O 0.4496(3) 0.1388(3) 0.5479(2)
O23_8 O 0.1358(4) 0.1903(3) 0.6086(3)
O24_8 O 0.0887(4) 0.0968(3) 0.3064(3)
N1_8 N 0.0261(6) 0.1782(4) 0.8015(3)
N2_8 N 0.0656(5) 0.2106(3) 0.8865(3)
N4_8 N 0.4125(4) 0.0453(3) 0.5196(3)
N5_8 N 0.4031(4) 0.0260(3) 0.4269(3)
N6_8 N 0.4386(4) 0.1233(3) 0.4574(3)
C1_8 C 0.0217(6) 0.0620(4) 0.6877(3)
C2_8 C 0.0215(7) 0.0861(4) 0.7445(4)
H1_8 H 0.0588 0.0620 0.7666
C3_8 C 0.0442(7) 0.1521(5) 0.7471(4)
H3_8 H 0.0150 0.1751 0.7191
H4_8 H 0.1011 0.1564 0.7396
C4_8 C 0.0847(6) 0.1805(4) 0.8398(4)
C5_8 C 0.1247(6) 0.2094(4) 0.9299(4)
H5_8 H 0.0974 0.2120 0.9651
H6_8 H 0.1529 0.1700 0.9287
C6_8 C 0.1843(6) 0.2608(4) 0.9262(4)
H7_8 H 0.2028 0.2651 0.8886
H8_8 H 0.2303 0.2516 0.9493
C7_8 C 0.1460(5) 0.3193(4) 0.9446(4)
C13_8 C 0.2585(4) 0.0436(3) 0.5765(3)
C14_8 C 0.3366(5) 0.0557(4) 0.6038(3)
H13_8 H 0.3339 0.0412 0.6415
H14_8 H 0.3459 0.1002 0.6047
C15_8 C 0.4051(4) 0.0253(4) 0.5761(3)
H16_8 H 0.4542 0.0350 0.5957
C16_8 C 0.4057(4) 0.0030(3) 0.4781(3)
H20_8 H 0.3106 0.0387 0.3400
C20_8 C 0.4207(5) 0.0861(4) 0.4134(3)
C21_8 C 0.4630(5) 0.1875(3) 0.4468(3)
H21_8 H 0.5037 0.1998 0.4732
H22_8 H 0.4861 0.1905 0.4103
C22_8 C 0.3934(4) 0.2296(3) 0.4511(3)
H23_8 H 0.3575 0.2218 0.4205
H24_8 H 0.3645 0.2204 0.4848
C23_8 C 0.4167(4) 0.2970(3) 0.4511(3)
C24_8 C 0.4347(4) 0.1052(3) 0.5106(3)
H27_8 H 0.137609 0.120837 0.311382
H28_8 H 0.0461062 0.123925 0.293257
H29_8 H 0.094752 0.213047 0.628714
H30_8 H 0.162137 0.218088 0.582696
O16_8 O 0.4042(3) 0.9484(2) 0.4875(2)
H15_8 H 0.3978 0.9806 0.5771
C17_8 C 0.3880(4) 0.9844(3) 0.3811(3)
H17_8 H 0.4305 0.9891 0.3542
H18_8 H 0.3890 0.9418 0.3943
C18_8 C 0.3096(4) 0.9966(4) 0.3543(3)
H19_8 H 0.3048 0.9688 0.3230
C19_8 C 0.2372(5) 0.9899(3) 0.3879(3)
O8_8 O 0.9816(3) 0.2691(2) 0.9361(2)
O9_8 O 0.9000(5) 0.1926(4) 0.7760(3)
O19_8 O 0.9858(3) 0.1065(2) 0.4730(2)
O25_8 O 0.7237(4) 0.1214(3) 0.4866(3)
N3_8 N 0.9377(5) 0.2281(3) 0.8574(3)
H2_8 H 0.9684 0.0809 0.7601
C8_8 C 0.9950(6) 0.2384(3) 0.8958(3)
C9_8 C 0.8564(6) 0.2510(4) 0.8679(4)
H9_8 H 0.8177 0.2207 0.8548
H10_8 H 0.8486 0.2561 0.9072
C10_8 C 0.8426(5) 0.3120(4) 0.8395(3)
H11_8 H 0.7855 0.3196 0.8361
H12_8 H 0.8656 0.3107 0.8029
C11_8 C 0.8803(5) 0.3626(3) 0.8717(3)
C12_8 C 0.9515(7) 0.1986(5) 0.8095(4)
H25_8 H 0.725168 0.157722 0.510422
H26_8 H 0.679481 0.0945748 0.49751
loop_
_geom_bond_atom_site_label_1
_geom_bond_atom_site_label_2
_geom_bond_site_symmetry_1
_geom_bond_site_symmetry_2
Th1 O1 1_555 1_555
Th2 O12 1_555 1_555
Th3 O19 1_555 1_555
O1 C1 1_555 1_555
O2 C1 1_555 1_555
O3 C7 1_555 1_555
O4 C7 1_555 1_555
O5 C11 1_555 1_555
O6 C11 1_555 1_555
O7 C4 1_555 1_555
O8 C8 1_555 1_555
O9 C12 1_555 1_555
O10 Th1 1_555 1_555
O11 C13 1_555 1_555
O12 C19 1_555 1_555
O13 C19 1_555 1_555
O14 C23 1_555 1_555
O15 C23 1_555 1_555
O16 C16 1_555 1_555
O17 C20 1_555 1_555
O18 C24 1_555 1_555
O19 Th1 1_555 1_555
O20 Th1 1_555 1_555
O21 Th2 1_555 1_555
O22 Th1 1_555 1_555
O23 Th1 1_555 1_555
O24 Th2 1_555 1_555
O25 Th3 1_555 1_555
N1 C3 1_555 1_555
N2 C4 1_555 1_555
N3 C8 1_555 1_555
N4 C15 1_555 1_555
N5 C16 1_555 1_555
N6 C20 1_555 1_555
C1 C2 1_555 1_555
C2 H1 1_555 1_555
H2 C2 1_555 1_555
C3 C2 1_555 1_555
H3 C3 1_555 1_555
H4 C3 1_555 1_555
C4 N1 1_555 1_555
C5 N2 1_555 1_555
H5 C5 1_555 1_555
H6 C5 1_555 1_555
C6 C5 1_555 1_555
H7 C6 1_555 1_555
H8 C6 1_555 1_555
C7 C6 1_555 1_555
C8 N2 1_555 1_555
C9 N3 1_555 1_555
H9 C9 1_555 1_555
H10 C9 1_555 1_555
C10 C9 1_555 1_555
H11 C10 1_555 1_555
H12 C10 1_555 1_555
C11 C10 1_555 1_555
C12 N1 1_555 1_555
C13 O10 1_555 1_555
C14 C13 1_555 1_555
H13 C14 1_555 1_555
H14 C14 1_555 1_555
C15 C14 1_555 1_555
H15 C15 1_555 1_555
H16 C15 1_555 1_555
C16 N4 1_555 1_555
C17 N5 1_555 1_555
H17 C17 1_555 1_555
H18 C17 1_555 1_555
C18 C17 1_555 1_555
H19 C18 1_555 1_555
H20 C18 1_555 1_555
C19 C18 1_555 1_555
C20 N5 1_555 1_555
C21 N6 1_555 1_555
H22 C21 1_555 1_555
C22 C21 1_555 1_555
H23 C22 1_555 1_555
H24 C22 1_555 1_555
C23 C22 1_555 1_555
C24 N4 1_555 1_555
Th5 O21 1_555 1_555
Th7 O2 1_555 1_555
Th8 O4 1_555 1_555
Th9 O15 1_555 1_555
Th10 O11 1_555 1_555
Th11 O5 1_555 1_555
O26 Th2 1_555 1_555
O27 Th1 1_555 1_555
O28 Th2 1_555 1_555
O29 Th3 1_555 1_555
O30 Th2 1_555 1_555
O31 Th3 1_555 1_555
O32 Th3 1_555 1_555
O33 Th1 1_555 1_555
O34 Th3 1_555 1_555
O35 Th3 1_555 1_555
O36 Th1 1_555 1_555
O37 Th2 1_555 1_555
Th2 O19 1_555 1_555
Th2 O20 1_555 1_555
Th3 O21 1_555 1_555
Th3 O22 1_555 1_555
O6 Th8 1_555 1_555
O13 Th10 1_555 1_555
O20 Th10 1_555 1_555
O22 Th7 1_555 1_555
N3 C12 1_555 1_555
N6 C24 1_555 1_555
Th5 O35 1_555 1_555
Th5 O37 1_555 1_555
Th7 O35 1_555 1_555
Th7 O36 1_555 1_555
Th10 O36 1_555 1_555
Th10 O37 1_555 1_555
O25 H25 1_555 1_555
O25 H26 1_555 1_555
O24 H27 1_555 1_555
O24 H28 1_555 1_555
O23 H29 1_555 1_555
O23 H30 1_555 1_555
Th1_2 O1_2 1_555 1_555
O1_2 C1_2 1_555 1_555
O3_2 C7_2 1_555 1_555
O4_2 C7_2 1_555 1_555
O7_2 C4_2 1_555 1_555
O10_2 Th1_2 1_555 1_555
O11_2 C13_2 1_555 1_555
O18_2 C24_2 1_555 1_555
O23_2 Th1_2 1_555 1_555
N1_2 C3_2 1_555 1_555
N2_2 C4_2 1_555 1_555
N4_2 C15_2 1_555 1_555
C1_2 C2_2 1_555 1_555
C2_2 H1_2 1_555 1_555
C3_2 C2_2 1_555 1_555
H3_2 C3_2 1_555 1_555
H4_2 C3_2 1_555 1_555
C4_2 N1_2 1_555 1_555
C5_2 N2_2 1_555 1_555
H5_2 C5_2 1_555 1_555
H6_2 C5_2 1_555 1_555
C6_2 C5_2 1_555 1_555
H7_2 C6_2 1_555 1_555
H8_2 C6_2 1_555 1_555
C7_2 C6_2 1_555 1_555
C13_2 O10_2 1_555 1_555
C14_2 C13_2 1_555 1_555
H13_2 C14_2 1_555 1_555
H14_2 C14_2 1_555 1_555
C15_2 C14_2 1_555 1_555
H15_2 C15_2 1_555 1_555
H16_2 C15_2 1_555 1_555
C24_2 N4_2 1_555 1_555
Th6_2 O3_2 1_555 1_555
Th8_2 O4_2 1_555 1_555
Th10_2 O11_2 1_555 1_555
O36_2 Th1_2 1_555 1_555
Th10_2 O36_2 1_555 1_555
O23_2 H29_2 1_555 1_555
O23_2 H30_2 1_555 1_555
Th2_2 O12_2 1_555 1_555
O12_2 C19_2 1_555 1_555
O13_2 C19_2 1_555 1_555
O14_2 C23_2 1_555 1_555
O15_2 C23_2 1_555 1_555
O16_2 C16_2 1_555 1_555
O17_2 C20_2 1_555 1_555
O24_2 Th2_2 1_555 1_555
N5_2 C16_2 1_555 1_555
N6_2 C20_2 1_555 1_555
C17_2 N5_2 1_555 1_555
H17_2 C17_2 1_555 1_555
H18_2 C17_2 1_555 1_555
C18_2 C17_2 1_555 1_555
H19_2 C18_2 1_555 1_555
H20_2 C18_2 1_555 1_555
C19_2 C18_2 1_555 1_555
C20_2 N5_2 1_555 1_555
C21_2 N6_2 1_555 1_555
H21_2 C21_2 1_555 1_555
H22_2 C21_2 1_555 1_555
C22_2 C21_2 1_555 1_555
H23_2 C22_2 1_555 1_555
H24_2 C22_2 1_555 1_555
C23_2 C22_2 1_555 1_555
Th4_2 O14_2 1_555 1_555
O26_2 Th2_2 1_555 1_555
O28_2 Th2_2 1_555 1_555
O37_2 Th2_2 1_555 1_555
Th2_2 O20_2 1_555 1_555
O24_2 H27_2 1_555 1_555
O24_2 H28_2 1_555 1_555
O5_2 C11_2 1_555 1_555
O6_2 C11_2 1_555 1_555
O8_2 C8_2 1_555 1_555
O9_2 C12_2 1_555 1_555
N3_2 C8_2 1_555 1_555
C9_2 N3_2 1_555 1_555
H9_2 C9_2 1_555 1_555
H10_2 C9_2 1_555 1_555
C10_2 C9_2 1_555 1_555
H11_2 C10_2 1_555 1_555
H12_2 C10_2 1_555 1_555
C11_2 C10_2 1_555 1_555
Th7_2 O2_2 1_555 1_555
Th11_2 O5_2 1_555 1_555
O22_2 Th7_2 1_555 1_555
N3_2 C12_2 1_555 1_555
Th7_2 O35_2 1_555 1_555
Th3_2 O19_2 1_555 1_555
O25_2 Th3_2 1_555 1_555
Th5_2 O21_2 1_555 1_555
O29_2 Th3_2 1_555 1_555
O31_2 Th3_2 1_555 1_555
Th3_2 O21_2 1_555 1_555
O25_2 H26_2 1_555 1_555
Th2_3 O12_3 1_555 1_555
Th9_2 O19_3 1_555 1_555
O33_2 C23_3 1_555 1_555
O34_2 C23_3 1_555 1_555
O17_3 C20_3 1_555 1_555
O21_3 Th2_3 1_555 1_555
O24_3 Th2_3 1_555 1_555
O25_3 Th9_2 1_555 1_555
N5_3 C16_3 1_555 1_555
N6_3 C20_3 1_555 1_555
C20_3 N5_3 1_555 1_555
C21_3 N6_3 1_555 1_555
H22_3 C21_3 1_555 1_555
C22_3 C21_3 1_555 1_555
H23_3 C22_3 1_555 1_555
H24_3 C22_3 1_555 1_555
C23_3 C22_3 1_555 1_555
O28_3 Th2_3 1_555 1_555
O29_3 Th9_2 1_555 1_555
O30_3 Th2_3 1_555 1_555
O31_3 Th9_2 1_555 1_555
Th2_3 O19_3 1_555 1_555
Th2_3 O20_3 1_555 1_555
Th9_2 O21_3 1_555 1_555
O25_3 H26_3 1_555 1_555
O24_3 H27_3 1_555 1_555
O24_3 H28_3 1_555 1_555
Th4_2 O1_3 1_555 1_555
O1_3 C1_3 1_555 1_555
O2_3 C1_3 1_555 1_555
O3_3 C7_3 1_555 1_555
O4_3 C7_3 1_555 1_555
O5_3 C11_3 1_555 1_555
O6_3 C11_3 1_555 1_555
O7_3 C4_3 1_555 1_555
O8_3 C8_3 1_555 1_555
O9_3 C12_3 1_555 1_555
O10_3 Th4_2 1_555 1_555
O18_3 C24_3 1_555 1_555
O22_3 Th4_2 1_555 1_555
O23_3 Th4_2 1_555 1_555
N1_3 C3_3 1_555 1_555
N2_3 C4_3 1_555 1_555
N3_3 C8_3 1_555 1_555
N4_3 C15_3 1_555 1_555
C1_3 C2_3 1_555 1_555
C2_3 H1_3 1_555 1_555
H2_3 C2_3 1_555 1_555
C3_3 C2_3 1_555 1_555
H3_3 C3_3 1_555 1_555
H4_3 C3_3 1_555 1_555
C4_3 N1_3 1_555 1_555
C5_3 N2_3 1_555 1_555
H5_3 C5_3 1_555 1_555
H6_3 C5_3 1_555 1_555
C6_3 C5_3 1_555 1_555
H7_3 C6_3 1_555 1_555
H8_3 C6_3 1_555 1_555
C7_3 C6_3 1_555 1_555
C8_3 N2_3 1_555 1_555
C9_3 N3_3 1_555 1_555
H9_3 C9_3 1_555 1_555
H10_3 C9_3 1_555 1_555
C10_3 C9_3 1_555 1_555
H11_3 C10_3 1_555 1_555
H12_3 C10_3 1_555 1_555
C11_3 C10_3 1_555 1_555
C12_3 N1_3 1_555 1_555
C13_3 O10_3 1_555 1_555
C14_3 C13_3 1_555 1_555
H13_3 C14_3 1_555 1_555
H14_3 C14_3 1_555 1_555
C15_3 C14_3 1_555 1_555
H16_3 C15_3 1_555 1_555
C24_3 N4_3 1_555 1_555
Th5 O3_3 1_555 1_555
Th7 O4_3 1_555 1_555
Th10 O5_3 1_555 1_555
O6_3 Th7 1_555 1_555
N3_3 C12_3 1_555 1_555
O23_3 H29_3 1_555 1_555
O23_3 H30_3 1_555 1_555
O13_3 C19_3 1_555 1_555
H17_3 C17_3 1_555 1_555
H18_3 C17_3 1_555 1_555
C18_3 C17_3 1_555 1_555
H19_3 C18_3 1_555 1_555
C19_3 C18_3 1_555 1_555
Th6 O37_3 1_555 1_555
Th11 O11_3 1_555 1_555
Th8 O35_3 1_555 1_555
Th8 O36_3 1_555 1_555
Th11 O36_3 1_555 1_555
Th6_2 O35_4 1_555 1_555
Th8_2 O35_4 1_555 1_555
Th9 O19_4 1_555 1_555
O5_4 C11_4 1_555 1_555
O6_4 C11_4 1_555 1_555
O8_4 C8_4 1_555 1_555
O9_4 C12_4 1_555 1_555
O25_4 Th9 1_555 1_555
N3_4 C8_4 1_555 1_555
C9_4 N3_4 1_555 1_555
H9_4 C9_4 1_555 1_555
H10_4 C9_4 1_555 1_555
C10_4 C9_4 1_555 1_555
H11_4 C10_4 1_555 1_555
H12_4 C10_4 1_555 1_555
C11_4 C10_4 1_555 1_555
Th10_2 O5_4 1_555 1_555
O29_4 Th9 1_555 1_555
O31_4 Th9 1_555 1_555
O32_4 Th9 1_555 1_555
Th9 O21_4 1_555 1_555
Th9 O22_4 1_555 1_555
N3_4 C12_4 1_555 1_555
O25_4 H25_4 1_555 1_555
O25_4 H26_4 1_555 1_555
O13_4 C19_4 1_555 1_555
H17_4 C17_4 1_555 1_555
H18_4 C17_4 1_555 1_555
C18_4 C17_4 1_555 1_555
H19_4 C18_4 1_555 1_555
C19_4 C18_4 1_555 1_555
Th11_2 O11_4 1_555 1_555
O13_4 Th11_2 1_555 1_555
Th11_2 O36_4 1_555 1_555
Th11_2 O37_4 1_555 1_555
Th4 O1_4 1_555 1_555
Th2_4 O12_4 1_555 1_555
O1_4 C1_4 1_555 1_555
O3_4 C7_4 1_555 1_555
O4_4 C7_4 1_555 1_555
O7_4 C4_4 1_555 1_555
O10_4 Th4 1_555 1_555
O33 C23_4 1_555 1_555
O34 C23_4 1_555 1_555
O17_4 C20_4 1_555 1_555
O18_4 C24_4 1_555 1_555
O20_4 Th4 1_555 1_555
O23_4 Th4 1_555 1_555
O24_4 Th2_4 1_555 1_555
N1_4 C3_4 1_555 1_555
N2_4 C4_4 1_555 1_555
N4_4 C15_4 1_555 1_555
N5_4 C16_4 1_555 1_555
N6_4 C20_4 1_555 1_555
C1_4 C2_4 1_555 1_555
C2_4 H1_4 1_555 1_555
C3_4 C2_4 1_555 1_555
H3_4 C3_4 1_555 1_555
H4_4 C3_4 1_555 1_555
C4_4 N1_4 1_555 1_555
C5_4 N2_4 1_555 1_555
H5_4 C5_4 1_555 1_555
H6_4 C5_4 1_555 1_555
C6_4 C5_4 1_555 1_555
H7_4 C6_4 1_555 1_555
H8_4 C6_4 1_555 1_555
C7_4 C6_4 1_555 1_555
C13_4 O10_4 1_555 1_555
C14_4 C13_4 1_555 1_555
H13_4 C14_4 1_555 1_555
H14_4 C14_4 1_555 1_555
C15_4 C14_4 1_555 1_555
H16_4 C15_4 1_555 1_555
C16_4 N4_4 1_555 1_555
C20_4 N5_4 1_555 1_555
C21_4 N6_4 1_555 1_555
H21_4 C21_4 1_555 1_555
H22_4 C21_4 1_555 1_555
C22_4 C21_4 1_555 1_555
H23_4 C22_4 1_555 1_555
H24_4 C22_4 1_555 1_555
C23_4 C22_4 1_555 1_555
C24_4 N4_4 1_555 1_555
Th7_2 O4_4 1_555 1_555
O27_4 Th4 1_555 1_555
O28_4 Th2_4 1_555 1_555
Th2_4 O20_4 1_555 1_555
N6_4 C24_4 1_555 1_555
O24_4 H27_4 1_555 1_555
O24_4 H28_4 1_555 1_555
O23_4 H29_4 1_555 1_555
O23_4 H30_4 1_555 1_555
Th5 O1_5 1_555 1_555
Th7 O12_5 1_555 1_555
Th10 O19_5 1_555 1_555
O1_5 C1_5 1_555 1_555
O26 C1_5 1_555 1_555
O27_3 C7_5 1_555 1_555
O28_3 C7_5 1_555 1_555
O29_3 C11_5 1_555 1_555
O30_3 C11_5 1_555 1_555
O7_5 C4_5 1_555 1_555
O8_5 C8_5 1_555 1_555
O9_5 C12_5 1_555 1_555
O10_5 Th5 1_555 1_555
O31 C13_5 1_555 1_555
O12_5 C19_5 1_555 1_555
O32 C19_5 1_555 1_555
O14_3 C23_5 1_555 1_555
O15_3 C23_5 1_555 1_555
O16_5 C16_5 1_555 1_555
O17_5 C20_5 1_555 1_555
O18_5 C24_5 1_555 1_555
O19_5 Th5 1_555 1_555
O23_5 Th5 1_555 1_555
O24_5 Th7 1_555 1_555
O25_5 Th10 1_555 1_555
N1_5 C3_5 1_555 1_555
N2_5 C4_5 1_555 1_555
N3_5 C8_5 1_555 1_555
N4_5 C15_5 1_555 1_555
N5_5 C16_5 1_555 1_555
N6_5 C20_5 1_555 1_555
C1_5 C2_5 1_555 1_555
C2_5 H1_5 1_555 1_555
H2_5 C2_5 1_555 1_555
C3_5 C2_5 1_555 1_555
H3_5 C3_5 1_555 1_555
H4_5 C3_5 1_555 1_555
C4_5 N1_5 1_555 1_555
C5_5 N2_5 1_555 1_555
H5_5 C5_5 1_555 1_555
H6_5 C5_5 1_555 1_555
C6_5 C5_5 1_555 1_555
H7_5 C6_5 1_555 1_555
H8_5 C6_5 1_555 1_555
C7_5 C6_5 1_555 1_555
C8_5 N2_5 1_555 1_555
C9_5 N3_5 1_555 1_555
H9_5 C9_5 1_555 1_555
H10_5 C9_5 1_555 1_555
C10_5 C9_5 1_555 1_555
H11_5 C10_5 1_555 1_555
H12_5 C10_5 1_555 1_555
C11_5 C10_5 1_555 1_555
C12_5 N1_5 1_555 1_555
C13_5 O10_5 1_555 1_555
C14_5 C13_5 1_555 1_555
H13_5 C14_5 1_555 1_555
H14_5 C14_5 1_555 1_555
C15_5 C14_5 1_555 1_555
H15_5 C15_5 1_555 1_555
H16_5 C15_5 1_555 1_555
C16_5 N4_5 1_555 1_555
C17_5 N5_5 1_555 1_555
H17_5 C17_5 1_555 1_555
H18_5 C17_5 1_555 1_555
C18_5 C17_5 1_555 1_555
H19_5 C18_5 1_555 1_555
H20_5 C18_5 1_555 1_555
C19_5 C18_5 1_555 1_555
C20_5 N5_5 1_555 1_555
C21_5 N6_5 1_555 1_555
H22_5 C21_5 1_555 1_555
C22_5 C21_5 1_555 1_555
H23_5 C22_5 1_555 1_555
H24_5 C22_5 1_555 1_555
C23_5 C22_5 1_555 1_555
C24_5 N4_5 1_555 1_555
Th11_2 O15_3 1_555 1_555
O33_3 Th5 1_555 1_555
O34_3 Th10 1_555 1_555
Th7 O19_5 1_555 1_555
N3_5 C12_5 1_555 1_555
N6_5 C24_5 1_555 1_555
O25_5 H25_5 1_555 1_555
O25_5 H26_5 1_555 1_555
O24_5 H27_5 1_555 1_555
O24_5 H28_5 1_555 1_555
O23_5 H29_5 1_555 1_555
O23_5 H30_5 1_555 1_555
Th10_2 O19_6 1_555 1_555
O25_6 Th10_2 1_555 1_555
O25_6 H26_6 1_555 1_555
O29_4 C11_6 1_555 1_555
O30_4 C11_6 1_555 1_555
O8_6 C8_6 1_555 1_555
O9_6 C12_6 1_555 1_555
N3_6 C8_6 1_555 1_555
C9_6 N3_6 1_555 1_555
H9_6 C9_6 1_555 1_555
H10_6 C9_6 1_555 1_555
C10_6 C9_6 1_555 1_555
H11_6 C10_6 1_555 1_555
H12_6 C10_6 1_555 1_555
C11_6 C10_6 1_555 1_555
N3_6 C12_6 1_555 1_555
Th7_2 O12_6 1_555 1_555
O12_6 C19_6 1_555 1_555
O32_2 C19_6 1_555 1_555
O14_4 C23_6 1_555 1_555
O15_4 C23_6 1_555 1_555
O16_6 C16_6 1_555 1_555
O17_6 C20_6 1_555 1_555
O24_6 Th7_2 1_555 1_555
N5_6 C16_6 1_555 1_555
N6_6 C20_6 1_555 1_555
C17_6 N5_6 1_555 1_555
H17_6 C17_6 1_555 1_555
H18_6 C17_6 1_555 1_555
C18_6 C17_6 1_555 1_555
H19_6 C18_6 1_555 1_555
H20_6 C18_6 1_555 1_555
C19_6 C18_6 1_555 1_555
C20_6 N5_6 1_555 1_555
C21_6 N6_6 1_555 1_555
H21_6 C21_6 1_555 1_555
H22_6 C21_6 1_555 1_555
C22_6 C21_6 1_555 1_555
H23_6 C22_6 1_555 1_555
H24_6 C22_6 1_555 1_555
C23_6 C22_6 1_555 1_555
Th6 O14_4 1_555 1_555
O24_6 H27_6 1_555 1_555
O24_6 H28_6 1_555 1_555
Th5_2 O1_6 1_555 1_555
O1_6 C1_6 1_555 1_555
O27_4 C7_6 1_555 1_555
O28_4 C7_6 1_555 1_555
O7_6 C4_6 1_555 1_555
O10_6 Th5_2 1_555 1_555
O31_2 C13_6 1_555 1_555
O18_6 C24_6 1_555 1_555
O23_6 Th5_2 1_555 1_555
N1_6 C3_6 1_555 1_555
N2_6 C4_6 1_555 1_555
N4_6 C15_6 1_555 1_555
C1_6 C2_6 1_555 1_555
C2_6 H1_6 1_555 1_555
C3_6 C2_6 1_555 1_555
H3_6 C3_6 1_555 1_555
H4_6 C3_6 1_555 1_555
C4_6 N1_6 1_555 1_555
C5_6 N2_6 1_555 1_555
H5_6 C5_6 1_555 1_555
H6_6 C5_6 1_555 1_555
C6_6 C5_6 1_555 1_555
H7_6 C6_6 1_555 1_555
H8_6 C6_6 1_555 1_555
C7_6 C6_6 1_555 1_555
C13_6 O10_6 1_555 1_555
C14_6 C13_6 1_555 1_555
H13_6 C14_6 1_555 1_555
H14_6 C14_6 1_555 1_555
C15_6 C14_6 1_555 1_555
H15_6 C15_6 1_555 1_555
H16_6 C15_6 1_555 1_555
C24_6 N4_6 1_555 1_555
O23_6 H29_6 1_555 1_555
O23_6 H30_6 1_555 1_555
O32_3 C19_7 1_555 1_555
H17_7 C17_7 1_555 1_555
H18_7 C17_7 1_555 1_555
C18_7 C17_7 1_555 1_555
H19_7 C18_7 1_555 1_555
C19_7 C18_7 1_555 1_555
Th6 O1_7 1_555 1_555
O1_7 C1_7 1_555 1_555
O26_3 C1_7 1_555 1_555
O27 C7_7 1_555 1_555
O28 C7_7 1_555 1_555
O29 C11_7 1_555 1_555
O30 C11_7 1_555 1_555
O7_7 C4_7 1_555 1_555
O8_7 C8_7 1_555 1_555
O9_7 C12_7 1_555 1_555
O10_7 Th6 1_555 1_555
O18_7 C24_7 1_555 1_555
O23_7 Th6 1_555 1_555
N1_7 C3_7 1_555 1_555
N2_7 C4_7 1_555 1_555
N3_7 C8_7 1_555 1_555
N4_7 C15_7 1_555 1_555
C1_7 C2_7 1_555 1_555
C2_7 H1_7 1_555 1_555
H2_7 C2_7 1_555 1_555
C3_7 C2_7 1_555 1_555
H3_7 C3_7 1_555 1_555
H4_7 C3_7 1_555 1_555
C4_7 N1_7 1_555 1_555
C5_7 N2_7 1_555 1_555
H5_7 C5_7 1_555 1_555
H6_7 C5_7 1_555 1_555
C6_7 C5_7 1_555 1_555
H7_7 C6_7 1_555 1_555
H8_7 C6_7 1_555 1_555
C7_7 C6_7 1_555 1_555
C8_7 N2_7 1_555 1_555
C9_7 N3_7 1_555 1_555
H9_7 C9_7 1_555 1_555
H10_7 C9_7 1_555 1_555
C10_7 C9_7 1_555 1_555
H11_7 C10_7 1_555 1_555
H12_7 C10_7 1_555 1_555
C11_7 C10_7 1_555 1_555
C12_7 N1_7 1_555 1_555
C13_7 O10_7 1_555 1_555
C14_7 C13_7 1_555 1_555
H13_7 C14_7 1_555 1_555
H14_7 C14_7 1_555 1_555
C15_7 C14_7 1_555 1_555
H16_7 C15_7 1_555 1_555
C24_7 N4_7 1_555 1_555
N3_7 C12_7 1_555 1_555
O23_7 H29_7 1_555 1_555
O23_7 H30_7 1_555 1_555
Th8 O12_7 1_555 1_555
Th11 O19_7 1_555 1_555
O33_4 C23_7 1_555 1_555
O34_4 C23_7 1_555 1_555
O17_7 C20_7 1_555 1_555
O24_7 Th8 1_555 1_555
O25_7 Th11 1_555 1_555
N5_7 C16_7 1_555 1_555
N6_7 C20_7 1_555 1_555
C20_7 N5_7 1_555 1_555
C21_7 N6_7 1_555 1_555
H22_7 C21_7 1_555 1_555
C22_7 C21_7 1_555 1_555
H23_7 C22_7 1_555 1_555
H24_7 C22_7 1_555 1_555
C23_7 C22_7 1_555 1_555
Th8 O19_7 1_555 1_555
O25_7 H26_7 1_555 1_555
O24_7 H27_7 1_555 1_555
O24_7 H28_7 1_555 1_555
Th6_2 O1_8 1_555 1_555
Th8_2 O12_8 1_555 1_555
O1_8 C1_8 1_555 1_555
O27_2 C7_8 1_555 1_555
O28_2 C7_8 1_555 1_555
O7_8 C4_8 1_555 1_555
O10_8 Th6_2 1_555 1_555
O33_3 C23_8 1_555 1_555
O34_3 C23_8 1_555 1_555
O17_8 C20_8 1_555 1_555
O18_8 C24_8 1_555 1_555
O23_8 Th6_2 1_555 1_555
O24_8 Th8_2 1_555 1_555
N1_8 C3_8 1_555 1_555
N2_8 C4_8 1_555 1_555
N4_8 C15_8 1_555 1_555
N5_8 C16_8 1_555 1_555
N6_8 C20_8 1_555 1_555
C1_8 C2_8 1_555 1_555
C2_8 H1_8 1_555 1_555
C3_8 C2_8 1_555 1_555
H3_8 C3_8 1_555 1_555
H4_8 C3_8 1_555 1_555
C4_8 N1_8 1_555 1_555
C5_8 N2_8 1_555 1_555
H5_8 C5_8 1_555 1_555
H6_8 C5_8 1_555 1_555
C6_8 C5_8 1_555 1_555
H7_8 C6_8 1_555 1_555
H8_8 C6_8 1_555 1_555
C7_8 C6_8 1_555 1_555
C13_8 O10_8 1_555 1_555
C14_8 C13_8 1_555 1_555
H13_8 C14_8 1_555 1_555
H14_8 C14_8 1_555 1_555
C15_8 C14_8 1_555 1_555
H16_8 C15_8 1_555 1_555
C16_8 N4_8 1_555 1_555
C20_8 N5_8 1_555 1_555
C21_8 N6_8 1_555 1_555
H21_8 C21_8 1_555 1_555
H22_8 C21_8 1_555 1_555
C22_8 C21_8 1_555 1_555
H23_8 C22_8 1_555 1_555
H24_8 C22_8 1_555 1_555
C23_8 C22_8 1_555 1_555
C24_8 N4_8 1_555 1_555
N6_8 C24_8 1_555 1_555
O24_8 H27_8 1_555 1_555
O24_8 H28_8 1_555 1_555
O23_8 H29_8 1_555 1_555
O23_8 H30_8 1_555 1_555
O32_4 C19_8 1_555 1_555
H17_8 C17_8 1_555 1_555
H18_8 C17_8 1_555 1_555
C18_8 C17_8 1_555 1_555
H19_8 C18_8 1_555 1_555
C19_8 C18_8 1_555 1_555
Th11_2 O19_8 1_555 1_555
O29_2 C11_8 1_555 1_555
O30_2 C11_8 1_555 1_555
O8_8 C8_8 1_555 1_555
O9_8 C12_8 1_555 1_555
O25_8 Th11_2 1_555 1_555
N3_8 C8_8 1_555 1_555
C9_8 N3_8 1_555 1_555
H9_8 C9_8 1_555 1_555
H10_8 C9_8 1_555 1_555
C10_8 C9_8 1_555 1_555
H11_8 C10_8 1_555 1_555
H12_8 C10_8 1_555 1_555
C11_8 C10_8 1_555 1_555
N3_8 C12_8 1_555 1_555
O25_8 H25_8 1_555 1_555
O25_8 H26_8 1_555 1_555

#END
