
###############################################################################
#
# This file contains modified crystal structure data generated from the
# MOF subset of the Cambridge Structural Database (CSD) v543 
# hosted by the Cambridge Crystallographic Data Centre (CCDC).
#
# This work is licensed under the Creative Commons
# Attribution-NonCommercial-ShareAlike 4.0 International License.
# To view a copy of this license, visit
# http://creativecommons.org/licenses/by-nc-sa/4.0/
# or send a letter to
# Creative Commons, PO Box 1866, Mountain View, CA 94042, USA.
#
# CIF created using the CSD Python API on 29 September 2022
# The structure has been converted into the P1 space group
# The structure has a 3D framework
# The original CSD entry ASINAT is in the triclinic crystal system
# The framework has been calculated to contain at least 10.0% void space
# The void calculation uses a probe of radius 1.32A, grid spacing 0.4
#
###############################################################################

data_ASINAT
_chemical_formula_moiety         '(C186 H132 N18 O26 Zn4)n'
_symmetry_cell_setting           triclinic
_symmetry_space_group_name_H-M   'P 1'
_symmetry_Int_Tables_number      1
_space_group_name_Hall           'P 1'
loop_
_symmetry_equiv_pos_site_id
_symmetry_equiv_pos_as_xyz
1 x,y,z
_cell_length_a                   21.007(4)
_cell_length_b                   21.099(4)
_cell_length_c                   21.240(4)
_cell_angle_alpha                63.477(3)
_cell_angle_beta                 63.691(2)
_cell_angle_gamma                84.660(3)
_cell_volume                     7486.03
loop_
_atom_site_label
_atom_site_type_symbol
_atom_site_fract_x
_atom_site_fract_y
_atom_site_fract_z
N2 N 0.0493(2) 0.0181(2) 0.3594(2)
C51 C 0.0308(3) 0.0257(4) 0.3030(4)
H34 H 0.0301 0.0717 0.2675
Zn10 Zn 0.08608(3) 0.10995(3) 0.35064(4)
Zn1 Zn 0.03820(3) 0.43734(3) 0.33950(3)
N1 N 0.0223(2) 0.7759(2) 0.3588(3)
C1 C 0.0109(3) 0.6708(3) 0.3335(3)
N4 N 0.0701(2) 0.7551(2) 0.3918(2)
H1 H 0.0878 0.7849 0.3990
H2 H 0.0817 0.7126 0.4047
C5 C 0.0156(2) 0.9005(3) 0.3480(3)
N6 N 0.0316(2) 0.5382(2) 0.3349(3)
C13 C 0.0257(3) 0.6163(3) 0.3900(3)
H5 H 0.0299 0.6231 0.4283
C15 C 0.0341(3) 0.5506(3) 0.3885(3)
H6 H 0.0419 0.5134 0.4283
C18 C 0.0483(3) 0.9533(3) 0.4078(3)
H7 H 0.0590 0.9466 0.4482
C28 C 0.0172(3) 0.5903(3) 0.2810(4)
H14 H 0.0143 0.5817 0.2430
C30 C 0.0132(3) 0.9695(3) 0.2951(3)
H16 H 0.0000 0.9769 0.2561
C39 C 0.0327(3) 0.8930(3) 0.4046(3)
H23 H 0.0340 0.8479 0.4411
C45 C 0.0064(3) 0.6568(3) 0.2780(3)
O14 O 0.09951(19) 0.4742(2) 0.2172(2)
O16 O 0.06935(17) 0.3577(2) 0.2879(2)
O17 O 0.10961(17) 0.4158(2) 0.3827(2)
C9 C 0.1015(3) 0.4122(3) 0.2231(3)
C14 C 0.2233(3) 0.3877(3) 0.0111(3)
C33 C 0.2302(3) 0.4505(3) 0.0129(3)
C34 C 0.1438(3) 0.4040(4) 0.1487(3)
C38 C 0.1757(3) 0.3299(3) 0.0806(3)
H22 H 0.1704 0.2862 0.0814
C46 C 0.1358(3) 0.3389(3) 0.1494(3)
H29 H 0.1040 0.3009 0.1955
C50 C 0.1906(3) 0.4629(3) 0.0778(3)
H33 H 0.1945 0.5077 0.0750
Zn7 Zn 0.10117(3) 0.27385(3) 0.35989(4)
O2 O 0.09721(18) 0.29558(19) 0.4428(2)
O3 O 0.93414(18) 0.4281(2) 0.3563(2)
O5 O 0.94781(19) 0.3862(2) 0.4640(2)
C2 C 0.2214(2) 0.3641(3) 0.5615(3)
N3 N 0.9639(2) 0.8477(2) 0.2965(3)
C3 C 0.9976(3) 0.7429(3) 0.3294(3)
N5 N 0.3756(2) 0.3698(3) 0.7225(3)
C4 C 0.1497(2) 0.3591(3) 0.4799(3)
C6 C 0.6814(3) 0.3836(3) 0.5625(3)
C7 C 0.2032(3) 0.4265(3) 0.5153(3)
H3 H 0.2142 0.4698 0.5124
C8 C 0.2621(3) 0.3655(3) 0.6025(3)
C10 C 0.9998(3) 0.8404(3) 0.3360(3)
C11 C 0.2028(2) 0.3004(3) 0.5658(3)
H4 H 0.2155 0.2585 0.5961
N7 N 0.9644(2) 0.7843(3) 0.2920(3)
C12 C 0.9083(3) 0.4031(3) 0.4297(4)
C16 C 0.6010(3) 0.3786(3) 0.6076(3)
C17 C 0.3381(3) 0.3704(3) 0.6809(3)
C19 C 0.5628(2) 0.3339(3) 0.6842(3)
H8 H 0.5867 0.3040 0.7117
C20 C 0.7125(3) 0.4035(3) 0.4812(3)
H9 H 0.6832 0.4130 0.4565
C21 C 0.1677(3) 0.4244(3) 0.4726(3)
H10 H 0.1568 0.4662 0.4402
C22 C 0.1160(3) 0.3572(3) 0.4312(3)
C23 C 0.4899(3) 0.4218(3) 0.6064(3)
H11 H 0.4655 0.4519 0.5795
C24 C 0.2649(3) 0.3792(3) 0.9393(3)
C25 C 0.3408(3) 0.3716(3) 0.7962(3)
C26 C 0.7977(3) 0.3712(3) 0.5579(3)
H12 H 0.8260 0.3586 0.5841
C27 C 0.7233(3) 0.3672(3) 0.5999(3)
H13 H 0.7025 0.3532 0.6537
C29 C 0.7859(3) 0.4093(3) 0.4375(3)
H15 H 0.8064 0.4227 0.3839
H16_2 H 1.0000 0.9769 0.2561
C31 C 0.3567(3) 0.3277(3) 0.6422(3)
H17 H 0.3942 0.3005 0.6421
C32 C 0.3710(3) 0.4085(4) 0.8180(4)
H18 H 0.4171 0.4327 0.7836
H19 H 0.2639 0.4875 0.9675
C35 C 0.2841(3) 0.4115(3) 0.6784(3)
H20 H 0.2727 0.4407 0.7032
C36 C 0.4536(3) 0.3761(4) 0.6832(3)
C37 C 0.4894(3) 0.3302(3) 0.7242(3)
H21 H 0.4644 0.2979 0.7772
C40 C 0.8288(3) 0.3940(3) 0.4775(3)
C41 C 0.1665(3) 0.2964(3) 0.5274(3)
H24 H 0.1535 0.2525 0.5330
C42 C 0.2341(3) 0.3399(3) 0.9192(3)
H25 H 0.1880 0.3157 0.9536
C43 C 0.3178(3) 0.3263(3) 0.6033(3)
H26 H 0.3302 0.2980 0.5774
C44 C 0.3358(3) 0.4107(3) 0.8882(3)
H27 H 0.3592 0.4336 0.9022
H28 H 0.9961 0.6920 0.2389
C47 C 0.5632(3) 0.4244(4) 0.5668(3)
H30 H 0.5880 0.4561 0.5136
C48 C 0.2462(3) 0.4101(3) 0.6395(3)
H31 H 0.2100 0.4389 0.6378
C49 C 0.2721(3) 0.3366(3) 0.8478(3)
H32 H 0.2508 0.3106 0.8349
O11 O 0.20432(17) 0.3181(2) 0.2782(2)
N9 N 0.3015(2) 0.3340(3) 0.1657(3)
C76 C 0.2420(3) 0.2968(4) 0.2298(3)
H46 H 0.2278 0.2519 0.2387
C92 C 0.3289(4) 0.4048(4) 0.1467(5)
H60 H 0.2935 0.4365 0.1421
H61 H 0.3719 0.4229 0.0977
H62 H 0.3391 0.4014 0.1878
C93 C 0.3427(3) 0.3073(5) 0.1081(4)
H63 H 0.3784 0.2809 0.1213
H64 H 0.3656 0.3469 0.0564
H65 H 0.3111 0.2766 0.1088
O18 O 0.13731(17) 0.1773(2) 0.3756(2)
O19 O 0.10791(18) 0.0610(2) 0.4487(2)
O20 O 0.1371(2) 0.1588(2) 0.2326(2)
C71 C 0.1979(3) 0.1427(3) 0.0938(4)
H43 H 0.1497 0.1490 0.1130
C73 C 0.2339(3) 0.1341(3) 0.1390(3)
C78 C 0.2310(3) 0.1419(4) 0.0244(3)
O13 O 0.2206(3) 0.1037(3) 0.2654(3)
C85 C 0.3041(3) 0.1229(4) 0.1072(4)
H54 H 0.3302 0.1159 0.1350
C86 C 0.1974(3) 0.1330(4) 0.2167(4)
C87 C 0.3370(3) 0.1218(4) 0.0360(4)
H55 H 0.3849 0.1146 0.0165
O7 O 0.99876(17) 0.2303(2) 0.4143(2)
O12 O 0.99368(18) 0.1484(2) 0.3756(2)
C52 C 0.1382(3) 0.1178(3) 0.4327(3)
C53 C 0.7356(3) 0.1597(3) 0.5311(3)
C54 C 0.1774(3) 0.1195(3) 0.4759(3)
N8 N 0.4289(2) 0.1214(3) 0.6963(3)
C55 C 0.8859(3) 0.1761(3) 0.4536(3)
C56 C 0.2661(3) 0.1770(3) 0.4808(3)
H35 H 0.2992 0.2165 0.4581
C57 C 0.9645(3) 0.1859(3) 0.4115(3)
C58 C 0.3013(3) 0.1309(3) 0.9922(3)
C59 C 0.7713(3) 0.1105(3) 0.5069(4)
H36 H 0.7453 0.0714 0.5159
C60 C 0.7771(3) 0.2184(3) 0.5156(4)
H37 H 0.7544 0.2529 0.5306
C61 C 0.3066(3) 0.1588(4) 0.8624(4)
H38 H 0.2659 0.1815 0.8745
C62 C 0.3020(3) 0.1194(3) 0.5899(3)
C63 C 0.2577(3) 0.1210(3) 0.5503(3)
C64 C 0.8456(3) 0.1185(3) 0.4691(3)
H39 H 0.8686 0.0842 0.4539
C65 C 0.6559(3) 0.1522(3) 0.5716(3)
C66 C 0.4272(3) 0.0916(4) 0.8238(3)
H40 H 0.4667 0.0671 0.8125
C67 C 0.5476(3) 0.1792(3) 0.6542(4)
H41 H 0.5254 0.2040 0.6834
C68 C 0.5400(3) 0.0979(3) 0.6075(4)
H42 H 0.5136 0.0680 0.6036
C69 C 0.5063(3) 0.1323(4) 0.6529(3)
C70 C 0.3358(3) 0.1288(3) 0.9158(3)
C72 C 0.2047(3) 0.0611(3) 0.5874(3)
H44 H 0.1959 0.0233 0.6363
C74 C 0.6130(3) 0.1085(3) 0.5682(3)
H45 H 0.6354 0.0852 0.5373
C75 C 0.3870(3) 0.1208(4) 0.6604(3)
C77 C 0.2279(3) 0.1768(3) 0.4438(3)
H47 H 0.2356 0.2158 0.3961
H48 H 0.2052 0.1490 0.9962
C79 C 0.3687(3) 0.1590(3) 0.5480(3)
H49 H 0.3865 0.1860 0.4937
C80 C 0.3958(3) 0.0976(4) 0.8921(3)
H50 H 0.4172 0.0787 0.9256
C81 C 0.3378(3) 0.1549(4) 0.7922(3)
H51 H 0.3172 0.1741 0.7578
C82 C 0.1665(3) 0.0616(3) 0.5474(3)
H52 H 0.1332 0.0225 0.5691
C83 C 0.3979(3) 0.1233(4) 0.7723(3)
C84 C 0.4097(3) 0.1607(3) 0.5822(3)
H53 H 0.4537 0.1895 0.5514
C88 C 0.8503(3) 0.2254(3) 0.4788(3)
H56 H 0.8766 0.2639 0.4705
C89 C 0.3210(3) 0.0768(4) 0.7081(4)
H57 H 0.3059 0.0471 0.7616
C90 C 0.2785(3) 0.0801(4) 0.6701(4)
H58 H 0.2328 0.0546 0.7008
C91 C 0.6187(3) 0.1886(3) 0.6139(3)
H59 H 0.6446 0.2216 0.6145
O7_2 O 0.00124(17) 0.7697(2) 0.5857(2)
O8 O 0.86269(17) 0.8227(2) 0.6244(2)
O9 O 0.89209(18) 0.9390(2) 0.5513(2)
O12_2 O 0.00632(18) 0.8516(2) 0.6244(2)
C52_2 C 0.8618(3) 0.8822(3) 0.5673(3)
C53_2 C 0.2644(3) 0.8403(3) 0.4689(3)
C54_2 C 0.8226(3) 0.8805(3) 0.5241(3)
N8_2 N 0.5711(2) 0.8786(3) 0.3037(3)
C55_2 C 0.1141(3) 0.8239(3) 0.5464(3)
C56_2 C 0.7339(3) 0.8230(3) 0.5192(3)
H35_2 H 0.7008 0.7835 0.5419
C57_2 C 0.0355(3) 0.8141(3) 0.5885(3)
C58_2 C 0.6987(3) 0.8691(3) 0.0078(3)
C59_2 C 0.2287(3) 0.8895(3) 0.4931(4)
H36_2 H 0.2547 0.9286 0.4841
C60_2 C 0.2229(3) 0.7816(3) 0.4844(4)
H37_2 H 0.2456 0.7471 0.4694
C61_2 C 0.6934(3) 0.8412(4) 0.1376(4)
H38_2 H 0.7341 0.8185 0.1255
C62_2 C 0.6980(3) 0.8806(3) 0.4101(3)
C63_2 C 0.7423(3) 0.8790(3) 0.4497(3)
C64_2 C 0.1544(3) 0.8815(3) 0.5309(3)
H39_2 H 0.1314 0.9158 0.5461
C65_2 C 0.3441(3) 0.8478(3) 0.4284(3)
C66_2 C 0.5728(3) 0.9084(4) 0.1762(3)
H40_2 H 0.5333 0.9329 0.1875
C67_2 C 0.4524(3) 0.8208(3) 0.3458(4)
H41_2 H 0.4746 0.7960 0.3166
C68_2 C 0.4600(3) 0.9021(3) 0.3925(4)
H42_2 H 0.4864 0.9320 0.3964
C69_2 C 0.4937(3) 0.8677(4) 0.3471(3)
C70_2 C 0.6642(3) 0.8712(3) 0.0842(3)
C72_2 C 0.7953(3) 0.9389(3) 0.4126(3)
H44_2 H 0.8041 0.9767 0.3637
C74_2 C 0.3870(3) 0.8915(3) 0.4318(3)
H45_2 H 0.3646 0.9148 0.4627
C75_2 C 0.6130(3) 0.8792(4) 0.3396(3)
C77_2 C 0.7721(3) 0.8232(3) 0.5562(3)
H47_2 H 0.7644 0.7842 0.6039
H48_2 H 0.7948 0.8510 0.0038
C79_2 C 0.6313(3) 0.8410(3) 0.4520(3)
H49_2 H 0.6135 0.8140 0.5063
C80_2 C 0.6042(3) 0.9024(4) 0.1079(3)
H50_2 H 0.5828 0.9213 0.0744
C81_2 C 0.6622(3) 0.8451(4) 0.2078(3)
H51_2 H 0.6828 0.8259 0.2422
C82_2 C 0.8335(3) 0.9384(3) 0.4526(3)
H52_2 H 0.8668 0.9775 0.4309
C83_2 C 0.6021(3) 0.8767(4) 0.2277(3)
C84_2 C 0.5903(3) 0.8393(3) 0.4178(3)
H53_2 H 0.5463 0.8105 0.4486
C88_2 C 0.1497(3) 0.7746(3) 0.5212(3)
H56_2 H 0.1234 0.7361 0.5295
C89_2 C 0.6790(3) 0.9232(4) 0.2919(4)
H57_2 H 0.6941 0.9529 0.2384
C90_2 C 0.7215(3) 0.9199(4) 0.3299(4)
H58_2 H 0.7672 0.9454 0.2992
C91_2 C 0.3813(3) 0.8114(3) 0.3861(3)
H59_2 H 0.3554 0.7784 0.3855
Zn6 Zn 0.89883(3) 0.72615(3) 0.64011(4)
Zn8 Zn 0.91392(3) 0.89005(3) 0.64936(4)
O10 O 0.8629(2) 0.8412(2) 0.7674(2)
C71_2 C 0.8021(3) 0.8573(3) 0.9062(4)
H43_2 H 0.8503 0.8510 0.8870
C73_2 C 0.7661(3) 0.8659(3) 0.8610(3)
C78_2 C 0.7690(3) 0.8581(4) 0.9756(3)
O13_2 O 0.7794(3) 0.8963(3) 0.7346(3)
C85_2 C 0.6959(3) 0.8771(4) 0.8928(4)
H54_2 H 0.6698 0.8841 0.8650
C86_2 C 0.8026(3) 0.8670(4) 0.7833(4)
C87_2 C 0.6630(3) 0.8782(4) 0.9640(4)
H55_2 H 0.6151 0.8854 0.9835
O2_2 O 0.90279(18) 0.70442(19) 0.5572(2)
O3_2 O 0.06586(18) 0.5719(2) 0.6437(2)
O5_2 O 0.05219(19) 0.6138(2) 0.5360(2)
O6 O 0.89039(17) 0.5842(2) 0.6173(2)
C2_2 C 0.7786(2) 0.6359(3) 0.4385(3)
N3_2 N 0.0361(2) 0.1523(2) 0.7035(3)
C3_2 C 0.0024(3) 0.2571(3) 0.6706(3)
N5_2 N 0.6244(2) 0.6302(3) 0.2775(3)
C4_2 C 0.8503(2) 0.6409(3) 0.5201(3)
C6_2 C 0.3186(3) 0.6164(3) 0.4375(3)
C7_2 C 0.7968(3) 0.5735(3) 0.4847(3)
H3_2 H 0.7858 0.5302 0.4876
C8_2 C 0.7379(3) 0.6345(3) 0.3975(3)
C10_2 C 0.0002(3) 0.1596(3) 0.6640(3)
C11_2 C 0.7972(2) 0.6996(3) 0.4342(3)
H4_2 H 0.7845 0.7415 0.4039
N7_2 N 0.0356(2) 0.2157(3) 0.7080(3)
C12_2 C 0.0917(3) 0.5969(3) 0.5703(4)
C16_2 C 0.3990(3) 0.6214(3) 0.3924(3)
C17_2 C 0.6619(3) 0.6296(3) 0.3191(3)
C19_2 C 0.4372(2) 0.6661(3) 0.3158(3)
H8_2 H 0.4133 0.6960 0.2883
C20_2 C 0.2875(3) 0.5965(3) 0.5188(3)
H9_2 H 0.3168 0.5870 0.5435
C21_2 C 0.8323(3) 0.5756(3) 0.5274(3)
H10_2 H 0.8432 0.5338 0.5598
C22_2 C 0.8840(3) 0.6428(3) 0.5688(3)
C23_2 C 0.5101(3) 0.5782(3) 0.3936(3)
H11_2 H 0.5345 0.5481 0.4205
C24_2 C 0.7351(3) 0.6208(3) 0.0607(3)
C25_2 C 0.6592(3) 0.6284(3) 0.2038(3)
C26_2 C 0.2023(3) 0.6288(3) 0.4421(3)
H12_2 H 0.1740 0.6414 0.4159
C27_2 C 0.2767(3) 0.6328(3) 0.4001(3)
H13_2 H 0.2975 0.6468 0.3463
C29_2 C 0.2141(3) 0.5907(3) 0.5625(3)
H15_2 H 0.1936 0.5773 0.6161
H16_3 H 0.0000 0.0231 0.7439
C31_2 C 0.6433(3) 0.6723(3) 0.3578(3)
H17_2 H 0.6058 0.6995 0.3579
C32_2 C 0.6290(3) 0.5915(4) 0.1820(4)
H18_2 H 0.5829 0.5673 0.2164
H19_2 H 0.7361 0.5125 0.0325
C35_2 C 0.7159(3) 0.5885(3) 0.3216(3)
H20_2 H 0.7273 0.5593 0.2968
C36_2 C 0.5464(3) 0.6239(4) 0.3168(3)
C37_2 C 0.5106(3) 0.6698(3) 0.2758(3)
H21_2 H 0.5356 0.7021 0.2228
C40_2 C 0.1712(3) 0.6060(3) 0.5225(3)
C41_2 C 0.8335(3) 0.7036(3) 0.4726(3)
H24_2 H 0.8465 0.7475 0.4670
C42_2 C 0.7659(3) 0.6601(3) 0.0808(3)
H25_2 H 0.8120 0.6843 0.0464
C43_2 C 0.6822(3) 0.6737(3) 0.3967(3)
H26_2 H 0.6698 0.7020 0.4226
C44_2 C 0.6642(3) 0.5893(3) 0.1118(3)
H27_2 H 0.6408 0.5664 0.0978
H28_2 H 0.0039 0.3080 0.7611
C47_2 C 0.4368(3) 0.5756(4) 0.4332(3)
H30_2 H 0.4120 0.5439 0.4864
C48_2 C 0.7538(3) 0.5899(3) 0.3605(3)
H31_2 H 0.7900 0.5611 0.3622
C49_2 C 0.7279(3) 0.6634(3) 0.1522(3)
H32_2 H 0.7492 0.6894 0.1651
O11_2 O 0.79568(17) 0.6819(2) 0.7218(2)
N9_2 N 0.6985(2) 0.6660(3) 0.8343(3)
C76_2 C 0.7580(3) 0.7032(4) 0.7702(3)
H46_2 H 0.7722 0.7481 0.7613
C92_2 C 0.6711(4) 0.5952(4) 0.8533(5)
H60_2 H 0.7065 0.5635 0.8579
H61_2 H 0.6281 0.5771 0.9023
H62_2 H 0.6609 0.5986 0.8122
C93_2 C 0.6573(3) 0.6927(5) 0.8919(4)
H63_2 H 0.6216 0.7191 0.8787
H64_2 H 0.6344 0.6531 0.9436
H65_2 H 0.6889 0.7234 0.8912
Zn4 Zn 0.96180(3) 0.56266(3) 0.66050(3)
O15 O 0.93065(17) 0.6423(2) 0.7121(2)
N10 N 0.9507(2) 0.9819(2) 0.6406(2)
O1 O 0.90049(19) 0.5258(2) 0.7828(2)
C9_2 C 0.8985(3) 0.5878(3) 0.7769(3)
C14_2 C 0.7767(3) 0.6123(3) 0.9889(3)
C33_2 C 0.7698(3) 0.5495(3) 0.9871(3)
C34_2 C 0.8562(3) 0.5960(4) 0.8513(3)
C38_2 C 0.8243(3) 0.6701(3) 0.9194(3)
H22_2 H 0.8296 0.7138 0.9186
C46_2 C 0.8642(3) 0.6611(3) 0.8506(3)
H29_2 H 0.8960 0.6991 0.8045
C50_2 C 0.8094(3) 0.5371(3) 0.9222(3)
H33_2 H 0.8055 0.4923 0.9250
N1_2 N 0.9777(2) 0.2241(2) 0.6412(3)
C1_2 C 0.9891(3) 0.3292(3) 0.6665(3)
N4_2 N 0.9299(2) 0.2449(2) 0.6082(2)
H1_2 H 0.9122 0.2151 0.6010
H2_2 H 0.9183 0.2874 0.5953
C5_2 C 0.9844(2) 0.0995(3) 0.6520(3)
N6_2 N 0.9684(2) 0.4618(2) 0.6651(3)
C13_2 C 0.9743(3) 0.3837(3) 0.6100(3)
H5_2 H 0.9701 0.3769 0.5717
C15_2 C 0.9659(3) 0.4494(3) 0.6115(3)
H6_2 H 0.9581 0.4866 0.5717
C18_2 C 0.9517(3) 0.0467(3) 0.5922(3)
H7_2 H 0.9410 0.0534 0.5518
C28_2 C 0.9828(3) 0.4097(3) 0.7190(4)
H14_2 H 0.9857 0.4183 0.7570
C30_2 C 0.9868(3) 0.0305(3) 0.7049(3)
H16_4 H 1.0000 0.0231 0.7439
C39_2 C 0.9673(3) 0.1070(3) 0.5954(3)
H23_2 H 0.9660 0.1521 0.5589
C45_2 C 0.9936(3) 0.3432(3) 0.7220(3)
C51_2 C 0.9692(3) 0.9743(4) 0.6970(4)
H34_2 H 0.9699 0.9283 0.7325
loop_
_geom_bond_atom_site_label_1
_geom_bond_atom_site_label_2
_geom_bond_site_symmetry_1
_geom_bond_site_symmetry_2
C51 N2 1_555 1_555
H34 C51 1_555 1_555
Zn10 N2 1_555 1_555
N4 N1 1_555 1_555
H1 N4 1_555 1_555
H2 N4 1_555 1_555
N6 Zn1 1_555 1_555
C13 C1 1_555 1_555
H5 C13 1_555 1_555
C15 N6 1_555 1_555
H6 C15 1_555 1_555
C18 H7 1_555 1_555
C28 N6 1_555 1_555
H14 C28 1_555 1_555
C30 C5 1_555 1_555
H16 C30 1_555 1_555
C39 C5 1_555 1_555
H23 C39 1_555 1_555
C45 C1 1_555 1_555
O14 Zn1 1_555 1_555
O16 Zn1 1_555 1_555
O17 Zn1 1_555 1_555
C13 C15 1_555 1_555
C18 C39 1_555 1_555
C28 C45 1_555 1_555
O14 C9 1_555 1_555
O16 C9 1_555 1_555
C9 C34 1_555 1_555
C33 C14 1_555 1_555
C34 C46 1_555 1_555
C38 C14 1_555 1_555
H22 C38 1_555 1_555
C46 C38 1_555 1_555
H29 C46 1_555 1_555
C50 C33 1_555 1_555
H33 C50 1_555 1_555
Zn7 O16 1_555 1_555
C34 C50 1_555 1_555
O2 C22 1_555 1_555
O3 C12 1_555 1_555
O17 C22 1_555 1_555
C2 C7 1_555 1_555
N3 C10 1_555 1_555
C3 N7 1_555 1_555
N5 C17 1_555 1_555
C4 C21 1_555 1_555
C6 C16 1_555 1_555
C7 H3 1_555 1_555
C8 C2 1_555 1_555
C11 C2 1_555 1_555
H4 C11 1_555 1_555
N7 N3 1_555 1_555
C12 O5 1_555 1_555
C16 C19 1_555 1_555
C17 C31 1_555 1_555
C19 H8 1_555 1_555
C20 C6 1_555 1_555
H9 C20 1_555 1_555
C21 C7 1_555 1_555
H10 C21 1_555 1_555
C22 C4 1_555 1_555
C23 H11 1_555 1_555
C24 C42 1_555 1_555
C25 N5 1_555 1_555
C26 H12 1_555 1_555
C27 C6 1_555 1_555
H13 C27 1_555 1_555
C29 C20 1_555 1_555
H15 C29 1_555 1_555
C31 H17 1_555 1_555
C32 C25 1_555 1_555
H18 C32 1_555 1_555
C35 C17 1_555 1_555
H20 C35 1_555 1_555
C36 N5 1_555 1_555
C37 C19 1_555 1_555
H21 C37 1_555 1_555
C40 C12 1_555 1_555
C41 C4 1_555 1_555
H24 C41 1_555 1_555
C42 H25 1_555 1_555
C43 C8 1_555 1_555
H26 C43 1_555 1_555
C44 C24 1_555 1_555
H27 C44 1_555 1_555
C47 C16 1_555 1_555
H30 C47 1_555 1_555
C48 C8 1_555 1_555
H31 C48 1_555 1_555
C49 C25 1_555 1_555
H32 C49 1_555 1_555
Zn7 O2 1_555 1_555
O11 Zn7 1_555 1_555
N9 C76 1_555 1_555
C76 O11 1_555 1_555
H46 C76 1_555 1_555
C92 N9 1_555 1_555
H60 C92 1_555 1_555
H61 C92 1_555 1_555
H62 C92 1_555 1_555
C93 N9 1_555 1_555
H63 C93 1_555 1_555
H64 C93 1_555 1_555
H65 C93 1_555 1_555
O18 Zn7 1_555 1_555
O19 Zn10 1_555 1_555
O20 Zn10 1_555 1_555
C11 C41 1_555 1_555
C23 C36 1_555 1_555
C23 C47 1_555 1_555
C26 C27 1_555 1_555
C26 C40 1_555 1_555
C29 C40 1_555 1_555
C31 C43 1_555 1_555
C32 C44 1_555 1_555
C35 C48 1_555 1_555
C36 C37 1_555 1_555
C42 C49 1_555 1_555
Zn10 O18 1_555 1_555
O20 C86 1_555 1_555
C71 H43 1_555 1_555
C73 C71 1_555 1_555
O13 C86 1_555 1_555
C85 C73 1_555 1_555
H54 C85 1_555 1_555
C86 C73 1_555 1_555
H55 C87 1_555 1_555
C71 C78 1_555 1_555
C85 C87 1_555 1_555
O18 C52 1_555 1_555
O19 C52 1_555 1_555
O12 C57 1_555 1_555
C52 C54 1_555 1_555
C53 C59 1_555 1_555
C54 C77 1_555 1_555
N8 C69 1_555 1_555
C55 C57 1_555 1_555
C56 H35 1_555 1_555
C57 O7 1_555 1_555
C58 C70 1_555 1_555
C59 H36 1_555 1_555
C60 C53 1_555 1_555
H37 C60 1_555 1_555
C61 H38 1_555 1_555
C62 C63 1_555 1_555
C63 C56 1_555 1_555
C64 C55 1_555 1_555
H39 C64 1_555 1_555
C65 C53 1_555 1_555
C66 H40 1_555 1_555
C67 H41 1_555 1_555
C68 H42 1_555 1_555
C69 C67 1_555 1_555
C70 C61 1_555 1_555
C72 C63 1_555 1_555
H44 C72 1_555 1_555
C74 C65 1_555 1_555
H45 C74 1_555 1_555
C75 N8 1_555 1_555
C77 C56 1_555 1_555
H47 C77 1_555 1_555
C79 C62 1_555 1_555
H49 C79 1_555 1_555
C80 C66 1_555 1_555
H50 C80 1_555 1_555
C81 C61 1_555 1_555
H51 C81 1_555 1_555
C82 C54 1_555 1_555
H52 C82 1_555 1_555
C83 N8 1_555 1_555
C84 C75 1_555 1_555
H53 C84 1_555 1_555
C88 C55 1_555 1_555
H56 C88 1_555 1_555
C89 C75 1_555 1_555
H57 C89 1_555 1_555
C90 C62 1_555 1_555
H58 C90 1_555 1_555
C91 C65 1_555 1_555
H59 C91 1_555 1_555
C59 C64 1_555 1_555
C60 C88 1_555 1_555
C66 C83 1_555 1_555
C67 C91 1_555 1_555
C68 C69 1_555 1_555
C68 C74 1_555 1_555
C70 C80 1_555 1_555
C72 C82 1_555 1_555
C79 C84 1_555 1_555
C81 C83 1_555 1_555
C89 C90 1_555 1_555
O8 C52_2 1_555 1_555
O9 C52_2 1_555 1_555
O12_2 C57_2 1_555 1_555
C52_2 C54_2 1_555 1_555
C53_2 C59_2 1_555 1_555
C54_2 C77_2 1_555 1_555
N8_2 C69_2 1_555 1_555
C55_2 C57_2 1_555 1_555
C56_2 H35_2 1_555 1_555
C57_2 O7_2 1_555 1_555
C58_2 C70_2 1_555 1_555
C59_2 H36_2 1_555 1_555
C60_2 C53_2 1_555 1_555
H37_2 C60_2 1_555 1_555
C61_2 H38_2 1_555 1_555
C62_2 C63_2 1_555 1_555
C63_2 C56_2 1_555 1_555
C64_2 C55_2 1_555 1_555
H39_2 C64_2 1_555 1_555
C65_2 C53_2 1_555 1_555
C66_2 H40_2 1_555 1_555
C67_2 H41_2 1_555 1_555
C68_2 H42_2 1_555 1_555
C69_2 C67_2 1_555 1_555
C70_2 C61_2 1_555 1_555
C72_2 C63_2 1_555 1_555
H44_2 C72_2 1_555 1_555
C74_2 C65_2 1_555 1_555
H45_2 C74_2 1_555 1_555
C75_2 N8_2 1_555 1_555
C77_2 C56_2 1_555 1_555
H47_2 C77_2 1_555 1_555
C79_2 C62_2 1_555 1_555
H49_2 C79_2 1_555 1_555
C80_2 C66_2 1_555 1_555
H50_2 C80_2 1_555 1_555
C81_2 C61_2 1_555 1_555
H51_2 C81_2 1_555 1_555
C82_2 C54_2 1_555 1_555
H52_2 C82_2 1_555 1_555
C83_2 N8_2 1_555 1_555
C84_2 C75_2 1_555 1_555
H53_2 C84_2 1_555 1_555
C88_2 C55_2 1_555 1_555
H56_2 C88_2 1_555 1_555
C89_2 C75_2 1_555 1_555
H57_2 C89_2 1_555 1_555
C90_2 C62_2 1_555 1_555
H58_2 C90_2 1_555 1_555
C91_2 C65_2 1_555 1_555
H59_2 C91_2 1_555 1_555
Zn6 O8 1_555 1_555
Zn8 O8 1_555 1_555
O9 Zn8 1_555 1_555
C59_2 C64_2 1_555 1_555
C60_2 C88_2 1_555 1_555
C66_2 C83_2 1_555 1_555
C67_2 C91_2 1_555 1_555
C68_2 C69_2 1_555 1_555
C68_2 C74_2 1_555 1_555
C70_2 C80_2 1_555 1_555
C72_2 C82_2 1_555 1_555
C79_2 C84_2 1_555 1_555
C81_2 C83_2 1_555 1_555
C89_2 C90_2 1_555 1_555
O10 C86_2 1_555 1_555
C71_2 H43_2 1_555 1_555
C73_2 C71_2 1_555 1_555
O13_2 C86_2 1_555 1_555
C85_2 C73_2 1_555 1_555
H54_2 C85_2 1_555 1_555
C86_2 C73_2 1_555 1_555
H55_2 C87_2 1_555 1_555
Zn8 O10 1_555 1_555
C71_2 C78_2 1_555 1_555
C85_2 C87_2 1_555 1_555
O2_2 C22_2 1_555 1_555
O3_2 C12_2 1_555 1_555
O6 C22_2 1_555 1_555
C2_2 C7_2 1_555 1_555
N3_2 C10_2 1_555 1_555
C3_2 N7_2 1_555 1_555
N5_2 C17_2 1_555 1_555
C4_2 C21_2 1_555 1_555
C6_2 C16_2 1_555 1_555
C7_2 H3_2 1_555 1_555
C8_2 C2_2 1_555 1_555
C11_2 C2_2 1_555 1_555
H4_2 C11_2 1_555 1_555
N7_2 N3_2 1_555 1_555
C12_2 O5_2 1_555 1_555
C16_2 C19_2 1_555 1_555
C17_2 C31_2 1_555 1_555
C19_2 H8_2 1_555 1_555
C20_2 C6_2 1_555 1_555
H9_2 C20_2 1_555 1_555
C21_2 C7_2 1_555 1_555
H10_2 C21_2 1_555 1_555
C22_2 C4_2 1_555 1_555
C23_2 H11_2 1_555 1_555
C24_2 C42_2 1_555 1_555
C25_2 N5_2 1_555 1_555
C26_2 H12_2 1_555 1_555
C27_2 C6_2 1_555 1_555
H13_2 C27_2 1_555 1_555
C29_2 C20_2 1_555 1_555
H15_2 C29_2 1_555 1_555
C31_2 H17_2 1_555 1_555
C32_2 C25_2 1_555 1_555
H18_2 C32_2 1_555 1_555
C35_2 C17_2 1_555 1_555
H20_2 C35_2 1_555 1_555
C36_2 N5_2 1_555 1_555
C37_2 C19_2 1_555 1_555
H21_2 C37_2 1_555 1_555
C40_2 C12_2 1_555 1_555
C41_2 C4_2 1_555 1_555
H24_2 C41_2 1_555 1_555
C42_2 H25_2 1_555 1_555
C43_2 C8_2 1_555 1_555
H26_2 C43_2 1_555 1_555
C44_2 C24_2 1_555 1_555
H27_2 C44_2 1_555 1_555
C47_2 C16_2 1_555 1_555
H30_2 C47_2 1_555 1_555
C48_2 C8_2 1_555 1_555
H31_2 C48_2 1_555 1_555
C49_2 C25_2 1_555 1_555
H32_2 C49_2 1_555 1_555
Zn6 O2_2 1_555 1_555
O11_2 Zn6 1_555 1_555
N9_2 C76_2 1_555 1_555
C76_2 O11_2 1_555 1_555
H46_2 C76_2 1_555 1_555
C92_2 N9_2 1_555 1_555
H60_2 C92_2 1_555 1_555
H61_2 C92_2 1_555 1_555
H62_2 C92_2 1_555 1_555
C93_2 N9_2 1_555 1_555
H63_2 C93_2 1_555 1_555
H64_2 C93_2 1_555 1_555
H65_2 C93_2 1_555 1_555
Zn4 O6 1_555 1_555
O15 Zn6 1_555 1_555
N10 Zn8 1_555 1_555
C11_2 C41_2 1_555 1_555
C23_2 C36_2 1_555 1_555
C23_2 C47_2 1_555 1_555
C26_2 C27_2 1_555 1_555
C26_2 C40_2 1_555 1_555
C29_2 C40_2 1_555 1_555
C31_2 C43_2 1_555 1_555
C32_2 C44_2 1_555 1_555
C35_2 C48_2 1_555 1_555
C36_2 C37_2 1_555 1_555
C42_2 C49_2 1_555 1_555
Zn4 O15 1_555 1_555
O1 C9_2 1_555 1_555
O15 C9_2 1_555 1_555
C9_2 C34_2 1_555 1_555
C33_2 C14_2 1_555 1_555
C34_2 C46_2 1_555 1_555
C38_2 C14_2 1_555 1_555
H22_2 C38_2 1_555 1_555
C46_2 C38_2 1_555 1_555
H29_2 C46_2 1_555 1_555
C50_2 C33_2 1_555 1_555
H33_2 C50_2 1_555 1_555
Zn4 O1 1_555 1_555
C34_2 C50_2 1_555 1_555
N4_2 N1_2 1_555 1_555
H1_2 N4_2 1_555 1_555
H2_2 N4_2 1_555 1_555
N6_2 Zn4 1_555 1_555
C13_2 C1_2 1_555 1_555
H5_2 C13_2 1_555 1_555
C15_2 N6_2 1_555 1_555
H6_2 C15_2 1_555 1_555
C18_2 H7_2 1_555 1_555
C28_2 N6_2 1_555 1_555
H14_2 C28_2 1_555 1_555
C30_2 C5_2 1_555 1_555
H16_4 C30_2 1_555 1_555
C39_2 C5_2 1_555 1_555
H23_2 C39_2 1_555 1_555
C45_2 C1_2 1_555 1_555
C13_2 C15_2 1_555 1_555
C18_2 C39_2 1_555 1_555
C28_2 C45_2 1_555 1_555
C51_2 N10 1_555 1_555
H34_2 C51_2 1_555 1_555

#END
