
###############################################################################
#
# This file contains modified crystal structure data generated from the
# MOF subset of the Cambridge Structural Database (CSD) v543 
# hosted by the Cambridge Crystallographic Data Centre (CCDC).
#
# This work is licensed under the Creative Commons
# Attribution-NonCommercial-ShareAlike 4.0 International License.
# To view a copy of this license, visit
# http://creativecommons.org/licenses/by-nc-sa/4.0/
# or send a letter to
# Creative Commons, PO Box 1866, Mountain View, CA 94042, USA.
#
# CIF created using the CSD Python API on 29 September 2022
# The structure has been converted into the P1 space group
# The structure has a 3D framework
# The original CSD entry ASINIB is in the orthorhombic crystal system
# The framework has been calculated to contain at least 10.0% void space
# The void calculation uses a probe of radius 1.32A, grid spacing 0.4
#
###############################################################################

data_ASINIB
_chemical_formula_moiety         '(C1492 H1040 Cu48 N144 O204)n'
_symmetry_cell_setting           triclinic
_symmetry_space_group_name_H-M   'P 1'
_symmetry_Int_Tables_number      1
_space_group_name_Hall           'P 1'
loop_
_symmetry_equiv_pos_site_id
_symmetry_equiv_pos_as_xyz
1 x,y,z
_cell_length_a                   75.033(11)
_cell_length_b                   29.380(4)
_cell_length_c                   29.569(4)
_cell_angle_alpha                90
_cell_angle_beta                 90
_cell_angle_gamma                90
_cell_volume                     65184
loop_
_atom_site_label
_atom_site_type_symbol
_atom_site_fract_x
_atom_site_fract_y
_atom_site_fract_z
C2 C 0.0674(2) 0.3544(5) 0.1156(8)
H2 H 0.0612 0.3461 0.0888
C4 C 0.0777 0.4124 0.1693
H4 H 0.0777 0.4446 0.1607
H5 H 0.0885 0.3978 0.1579
H6 H 0.0773 0.4098 0.2023
C6 C 0.0470 0.3805 0.1745
H8 H 0.0505 0.3863 0.2059
H9 H 0.0432 0.3488 0.1713
H10 H 0.0372 0.4008 0.1660
C17 C 0.05049(11) 0.2141(4) 0.1862(4)
H16 H 0.0591 0.1948 0.1726
C19 C 0.03793(10) 0.2501(3) 0.0638(4)
C20 C 0.03016(10) 0.2751(3) 0.0982(3)
H17 H 0.0370 0.2869 0.1225
C25 C 0.02015(12) 0.2342(4) 0.2089(4)
C31 C 0.02866(11) 0.2336(3) 0.0290(4)
H24 H 0.0344 0.2169 0.0056
C32 C 0.03147(11) 0.2022(3) 0.1860(3)
H25 H 0.0270 0.1755 0.1718
C39 C 0.07546(11) 0.2687(4) 0.2030(3)
C40 C 0.00138(11) 0.2649(3) 0.0603(4)
H29 H 0.0993 0.0972 0.0134
C43 C 0.04455(13) 0.2788(4) 0.2321(5)
H30 H 0.0490 0.3026 0.2506
C44 C 0.05818(11) 0.2399(3) 0.0639(4)
C50 C 0.00002(11) 0.2221(4) 0.2118(4)
C62 C 0.02619(13) 0.2689(4) 0.2309(4)
H39 H 0.0181 0.2882 0.2465
H52 H 0.0020 0.1553 0.1975
C82 C 0.00958(11) 0.2421(3) 0.0279(4)
H54 H 0.0028 0.2309 0.0032
C83 C 0.05539(11) 0.2540(4) 0.2068(3)
C93 C 0.01215(11) 0.2821(3) 0.0958(4)
H63 H 0.0066 0.2993 0.1191
N2 N 0.06066(17) 0.3879(4) 0.1481(7)
O4 O 0.08519(7) 0.2454(2) 0.1770(3)
O6 O 0.07962(7) 0.2985(2) 0.2298(3)
O7 O 0.08334(11) 0.3365(3) 0.1277(3)
O11 O 0.06620(7) 0.2544(2) 0.0969(3)
O13 O 0.06371(7) 0.2172(2) 0.0344(3)
Cu1 Cu 0.086945(12) 0.19067(3) 0.0340(2)
Cu2 Cu 0.104459(12) 0.31361(3) 0.2361(2)
Cu3 Cu 0.093002(12) 0.27168(3) 0.11606(19)
N10 N 0.0982 0.3673 0.2696
O14 O 0.12425(8) 0.2768(2) 0.2571(3)
O15 O 0.10494(7) 0.2263(2) 0.0050(3)
O16 O 0.09815(9) 0.2870(2) 0.0478(3)
O17 O 0.10787(7) 0.2133(2) 0.1133(3)
O18 O 0.09471(7) 0.1523(2) 0.0835(3)
O19 O 0.11728(8) 0.2986(2) 0.1365(3)
O20 O 0.11600(7) 0.3493(2) 0.1908(3)
O21 O 0.10255(9) 0.2654(2) 0.3071(3)
C18 C 0.0867 0.9514 0.8110
C38 C 0.07987(13) 0.9906(3) 0.8362(4)
C65 C 0.1047 0.9444 0.8035
H42 H 0.1138 0.9635 0.8158
C72 C 0.0756 0.9169 0.7960
H47 H 0.0632 0.9233 0.7992
C76 C 0.1086 0.9047 0.7748
H50 H 0.1195 0.9053 0.7583
C78 C 0.0792 0.8740 0.7771
H51 H 0.0704 0.8521 0.7700
N5 N 0.09993(9) 0.9894(2) 0.9024(3)
H64 H 0.1047 0.9630 0.8954
N6 N 0.0982 0.8673 0.7696
Cu6 Cu 0.104459(12) 0.81361(3) 0.7361(2)
C1 C 0.92972(13) 0.1271(3) 0.1283(4)
H1 H 0.9331 0.1203 0.0980
C3 C 0.86523(12) 0.4076(3) 0.2359(3)
H3 H 0.8572 0.3952 0.2575
C5 C 0.93940(13) 0.1580(3) 0.1530(4)
H7 H 0.9488 0.1741 0.1386
C7 C 0.91992(13) 0.2060(4) 0.0297(4)
H11 H 0.9296 0.1930 0.0461
C10 C 0.91699(11) 0.3101(3) 0.0893(4)
C11 C 0.85578(12) 0.4834(4) 0.2650(4)
C12 C 0.87956(11) 0.4667(3) 0.2084(3)
H14 H 0.8824 0.4983 0.2095
C13 C 0.91636(12) 0.2488(4) 0.0352(4)
C14 C 0.94574(12) 0.2770(4) 0.0618(4)
C16 C 0.92234(12) 0.3497(4) 0.1019(4)
H15 H 0.9333 0.3601 0.0899
C21 C 0.88717(9) 0.3411(3) 0.3958(4)
H18 H 0.8836 0.3341 0.4258
C22 C 0.90105(13) 0.2943(3) 0.1102(4)
H19 H 0.8969 0.2643 0.1042
C23 C 0.87436(11) 0.3769(3) 0.2079(3)
H20 H 0.8719 0.3452 0.2087
C24 C 0.88897(12) 0.4417(3) 0.1798(4)
H21 H 0.8971 0.4558 0.1596
C27 C 0.86695(10) 0.4529(3) 0.2349(3)
C29 C 0.89811(11) 0.3117(3) 0.3697(4)
H23 H 0.9017 0.2831 0.3816
C30 C 0.90338(11) 0.3244(4) 0.3276(3)
C33 C 0.91468(13) 0.2903(4) 0.2995(4)
C34 C 0.93599(14) 0.1667(4) 0.1981(4)
C35 C 0.89832(12) 0.3618(4) 0.3091(4)
H26 H 0.9015 0.3690 0.2788
C37 C 0.91357(12) 0.3780(3) 0.1309(4)
H28 H 0.9188 0.4066 0.1379
C42 C 0.88025(11) 0.0226(3) 0.0690(3)
C45 C 0.90338(12) 0.0757(3) 0.1180(4)
C47 C 0.93504(12) 0.2300(3) 0.2490(4)
C48 C 0.91176(13) 0.2819(4) 0.2549(4)
H31 H 0.9022 0.2974 0.2407
C53 C 0.96371(12) 0.2061(4) 0.2181(4)
C55 C 0.89218(13) 0.3208(4) 0.1376(4)
H34 H 0.8814 0.3093 0.1502
C57 C 0.91566(12) 0.1067(3) 0.1466(4)
C58 C 0.93805(13) 0.2369(4) 0.2908(5)
H35 H 0.9479 0.2211 0.3034
C59 C 0.92094(15) 0.2550(4) 0.2310(4)
H36 H 0.9181 0.2517 0.1999
C60 C 0.97339(11) 0.2720(4) 0.1008(4)
H37 H 0.9797 0.2730 0.1286
C61 C 0.91009(13) 0.1779(3) 0.0003(4)
C63 C 0.90065(12) 0.2693(3) 0.0103(4)
H40 H 0.8980 0.3009 0.0118
C66 C 0.97237(12) 0.2713(4) 0.0219(4)
C67 C 0.88797(13) 0.3914(4) 0.3348(4)
H44 H 0.8850 0.4205 0.3230
C68 C 0.92887(12) 0.2640(4) 0.3191(4)
H45 H 0.9316 0.2656 0.3504
C69 C 0.89762(13) 0.3670(3) 0.1504(4)
C70 C 0.98221(12) 0.2680(3) 0.0638(4)
C71 C 0.98850(12) 0.2578(3) 0.2194(4)
H46 H 0.9930 0.2878 0.2225
C73 C 0.88506(13) 0.0714(3) 0.1305(4)
H48 H 0.8803 0.0871 0.1559
C74 C 0.87100(11) 0.4133(3) 0.4016(4)
C75 C 0.92198(14) 0.1426(4) 0.2179(4)
H49 H 0.9194 0.1470 0.2491
C77 C 0.88223(11) 0.3798(3) 0.3749(3)
C79 C 0.88689(11) 0.3944(3) 0.1795(3)
C80 C 0.99397(13) 0.1794(4) 0.2041(5)
C81 C 0.89854(13) 0.0286(3) 0.0565(4)
H53 H 0.9032 0.0133 0.0308
C84 C 0.95421(12) 0.2752(4) 0.1014(4)
H55 H 0.9478 0.2759 0.1292
C85 C 0.91199(13) 0.1135(4) 0.1938(4)
H56 H 0.9025 0.0974 0.2079
C86 C 0.95412(13) 0.2739(4) 0.0234(4)
C88 C 0.97440(13) 0.1716(4) 0.2063(4)
H58 H 0.9696 0.1425 0.1995
C90 C 0.90945(12) 0.0568(3) 0.0821(4)
H60 H 0.9214 0.0622 0.0729
C91 C 0.87471(12) 0.0442(3) 0.1046(4)
H61 H 0.8626 0.0407 0.1130
C92 C 0.97028(12) 0.2500(4) 0.2226(4)
H62 H 0.9624 0.2747 0.2278
N8 N 0.92593(9) 0.2831(3) 0.0602(4)
N9 N 0.94519(10) 0.1993(3) 0.2229(4)
O2 O 0.85494(7) 0.5237(2) 0.2550(3)
O3 O 0.84815(9) 0.4630(2) 0.2978(3)
O9 O 0.86728(8) 0.4514(2) 0.3865(3)
O10 O 0.86600(7) 0.4007(2) 0.4408(3)
Cu5 Cu 0.836945(12) 0.55933(3) 0.2840(2)
Cu8 Cu 0.854459(12) 0.43639(3) 0.4861(2)
Cu10 Cu 0.843002(12) 0.47832(3) 0.36606(19)
C8 C 0.87164(10) 0.0917(3) 0.9314(3)
H12 H 0.8700 0.0605 0.9389
C9 C 0.86600(11) 0.1543(3) 0.8845(3)
H13 H 0.8598 0.1670 0.8594
C15 C 0.85537(11) 0.0785(3) 0.8625(3)
C26 C 0.87596(11) 0.1823(3) 0.9127(4)
H22 H 0.8772 0.2137 0.9056
C28 C 0.89471(13) 0.1932(4) 0.9799(4)
C46 C 0.86503(11) 0.1066(3) 0.8930(3)
C52 C 0.88407(11) 0.1648(3) 0.9511(4)
H38 H 0.9141 0.1479 0.9944
C64 C 0.89103(12) 0.2408(4) 0.9868(4)
H41 H 0.8806 0.2527 0.9728
H43 H 0.9785 0.2717 0.9937
H57 H 0.9475 0.2734 0.9960
C89 C 0.88079(12) 0.1187(3) 0.9611(3)
H59 H 0.8850 0.1062 0.9887
O5 O 0.85787(7) 0.0367(2) 0.8633(3)
O8 O 0.84471(7) 0.0977(2) 0.8335(3)
Cu4 Cu 0.836945(12) 0.05933(3) 0.7840(2)
C87 C 0.87037(15) 0.9926(4) 0.0408(4)
O1 O 0.87425(8) 0.9732(2) 0.0071(3)
O12 O 0.85255(9) 0.9846(2) 0.0571(3)
Cu7 Cu 0.854459(12) 0.93639(3) 0.9861(2)
Cu9 Cu 0.843002(12) 0.97832(3) 0.86606(19)
C1_2 C 0.17972(13) 0.1229(3) 0.3783(4)
H1_2 H 0.1831 0.1297 0.3480
C5_2 C 0.18940(13) 0.0920(3) 0.4030(4)
H7_2 H 0.1988 0.0759 0.3886
C7_2 C 0.16992(13) 0.0440(4) 0.2797(4)
H11_2 H 0.1796 0.0570 0.2961
C8_2 C 0.12164(10) 0.1583(3) 0.1814(3)
H12_2 H 0.1200 0.1895 0.1889
C9_2 C 0.11600(11) 0.0957(3) 0.1345(3)
H13_2 H 0.1098 0.0830 0.1094
C13_2 C 0.16636(12) 0.0012(4) 0.2852(4)
C15_2 C 0.10537(11) 0.1715(3) 0.1125(3)
C17_2 C 0.30049(11) 0.0359(4) 0.4362(4)
H16_2 H 0.3091 0.0552 0.4226
C18_2 C 0.3367 0.2986 0.0610
C25_2 C 0.27015(12) 0.0158(4) 0.4589(4)
C26_2 C 0.12596(11) 0.0677(3) 0.1627(4)
H22_2 H 0.1272 0.0363 0.1556
C28_2 C 0.14471(13) 0.0568(4) 0.2299(4)
C31_2 C 0.27866(11) 0.0164(3) 0.2790(4)
H24_2 H 0.2844 0.0331 0.2556
C32_2 C 0.28147(11) 0.0478(3) 0.4360(3)
H25_2 H 0.2770 0.0745 0.4218
C34_2 C 0.18599(14) 0.0833(4) 0.4481(4)
C36 C 0.32161(10) 0.1001(3) 0.2026(3)
H27 H 0.3152 0.0722 0.2013
C38_2 C 0.32987(13) 0.2594(3) 0.0862(4)
C41 C 0.34133(10) 0.1474(3) 0.2390(3)
H29_2 H 0.3493 0.1528 0.2634
C42_2 C 0.13025(11) 0.2274(3) 0.3190(3)
C44_2 C 0.30818(11) 0.0101(3) 0.3139(4)
C45_2 C 0.15338(12) 0.1743(3) 0.3680(4)
C46_2 C 0.11503(11) 0.1434(3) 0.1430(3)
C47_2 C 0.18504(12) 0.0200(3) 0.4990(4)
C49 C 0.32912(9) 0.1733(3) 0.1699(3)
C50_2 C 0.25002(11) 0.0279(4) 0.4618(4)
C51 C 0.33962(9) 0.1783(3) 0.2077(3)
H32 H 0.3460 0.2060 0.2112
C52_2 C 0.13407(11) 0.0852(3) 0.2011(4)
C53_2 C 0.21371(12) 0.0439(4) 0.4681(4)
C54 C 0.31986(11) 0.1336(3) 0.1675(3)
H33 H 0.3122 0.1279 0.1426
C56 C 0.32766(10) 0.2018(3) 0.1329(4)
C57_2 C 0.16566(12) 0.1433(3) 0.3966(4)
C58_2 C 0.18805(13) 0.0131(4) 0.5408(5)
H35_2 H 0.1979 0.0289 0.5534
C61_2 C 0.16009(13) 0.0721(3) 0.2503(4)
H38_2 H 0.1641 0.1021 0.2444
C64_2 C 0.14103(12) 0.0092(4) 0.2368(4)
C65_2 C 0.3547 0.3056 0.0535
H42_2 H 0.3638 0.2865 0.0658
C72_2 C 0.3256 0.3331 0.0460
H47_2 H 0.3132 0.3267 0.0492
C73_2 C 0.13506(13) 0.1786(3) 0.3805(4)
H48_2 H 0.1303 0.1629 0.4059
C75_2 C 0.17198(14) 0.1074(4) 0.4679(4)
H49_2 H 0.1694 0.1030 0.4991
C76_2 C 0.3586 0.3453 0.0248
H50_2 H 0.3695 0.3447 0.0083
C78_2 C 0.3292 0.3760 0.0271
H51_2 H 0.3204 0.3979 0.0200
C80_2 C 0.24397(13) 0.0706(4) 0.4541(5)
H52_2 H 0.2520 0.0947 0.4475
C81_2 C 0.14854(13) 0.2214(3) 0.3065(4)
H53_2 H 0.1532 0.2367 0.2808
C82_2 C 0.25958(11) 0.0079(3) 0.2779(4)
H54_2 H 0.2528 0.0191 0.2532
C85_2 C 0.16199(13) 0.1365(4) 0.4438(4)
H56_2 H 0.1525 0.1526 0.4579
C87_2 C 0.12037(15) 0.2574(4) 0.2908(4)
C88_2 C 0.22440(13) 0.0784(4) 0.4563(4)
H58_2 H 0.2196 0.1075 0.4495
C89_2 C 0.13079(12) 0.1313(3) 0.2111(3)
H59_2 H 0.1350 0.1438 0.2387
C90_2 C 0.15945(12) 0.1932(3) 0.3321(4)
H60_2 H 0.1714 0.1878 0.3229
C91_2 C 0.12471(12) 0.2058(3) 0.3546(4)
H61_2 H 0.1126 0.2093 0.3630
C92_2 C 0.22028(12) 0.0000(4) 0.4726(4)
N1 N 0.33708(8) 0.2423(2) 0.1254(3)
N3 N 0.33256(8) 0.1095(2) 0.2377(3)
N4 N 0.31694(10) 0.1977(3) 0.0975(3)
N5_2 N 0.34993(9) 0.2606(2) 0.1524(3)
H64_2 H 0.3547 0.2870 0.1454
H65 H 0.3534 0.2460 0.1768
N6_2 N 0.3482 0.3827 0.0196
N7 N 0.31802(11) 0.2313(3) 0.0684(4)
N9_2 N 0.19519(10) 0.0507(3) 0.4729(4)
O4_2 O 0.33519(7) 0.0046(2) 0.4270(3)
O13_2 O 0.31371(7) 0.0328(2) 0.2844(3)
Cu1_2 Cu 0.336945(12) 0.05933(3) 0.2840(2)
O15_2 O 0.35494(7) 0.0237(2) 0.2550(3)
O17_2 O 0.35787(7) 0.0367(2) 0.3633(3)
O18_2 O 0.34471(7) 0.0977(2) 0.3335(3)
Cu6_2 Cu 0.354459(12) 0.43639(3) 0.9861(2)
C2_2 C 0.3174(2) 0.8956(5) 0.3656(8)
H2_2 H 0.3112 0.9039 0.3388
C3_2 C 0.11523(12) 0.8424(3) 0.4859(3)
H3_2 H 0.1072 0.8548 0.5075
C4_2 C 0.3277 0.8376 0.4193
H4_2 H 0.3277 0.8054 0.4107
H5_2 H 0.3385 0.8522 0.4079
H6_2 H 0.3273 0.8402 0.4523
C6_2 C 0.2970 0.8695 0.4245
H8_2 H 0.3005 0.8637 0.4559
H9_2 H 0.2932 0.9012 0.4213
H10_2 H 0.2872 0.8492 0.4160
C10_2 C 0.16699(11) 0.9399(3) 0.3393(4)
C11_2 C 0.10578(12) 0.7666(4) 0.5150(4)
C12_2 C 0.12956(11) 0.7833(3) 0.4584(3)
H14_2 H 0.1324 0.7517 0.4595
C14_2 C 0.19574(12) 0.9730(4) 0.3118(4)
C16_2 C 0.17234(12) 0.9003(4) 0.3519(4)
H15_2 H 0.1833 0.8899 0.3399
C19_2 C 0.28793(10) 0.9999(3) 0.3138(4)
C20_2 C 0.28016(10) 0.9749(3) 0.3482(3)
H17_2 H 0.2870 0.9631 0.3725
C21_2 C 0.13717(9) 0.9089(3) 0.6458(4)
H18_2 H 0.1336 0.9159 0.6758
C22_2 C 0.15105(13) 0.9557(3) 0.3602(4)
H19_2 H 0.1469 0.9857 0.3542
C23_2 C 0.12436(11) 0.8731(3) 0.4579(3)
H20_2 H 0.1219 0.9048 0.4587
C24_2 C 0.13897(12) 0.8083(3) 0.4298(4)
H21_2 H 0.1471 0.7942 0.4096
C27_2 C 0.11695(10) 0.7971(3) 0.4849(3)
C29_2 C 0.14811(11) 0.9383(3) 0.6197(4)
H23_2 H 0.1517 0.9669 0.6316
C30_2 C 0.15338(11) 0.9256(4) 0.5776(3)
C33_2 C 0.16468(13) 0.9597(4) 0.5495(4)
C35_2 C 0.14832(12) 0.8882(4) 0.5591(4)
H26_2 H 0.1515 0.8810 0.5288
C37_2 C 0.16357(12) 0.8720(3) 0.3809(4)
H28_2 H 0.1688 0.8434 0.3879
C39_2 C 0.32546(11) 0.9813(4) 0.4530(3)
C40_2 C 0.25138(11) 0.9851(3) 0.3103(4)
C43_2 C 0.29455(13) 0.9712(4) 0.4821(5)
H30_2 H 0.2990 0.9474 0.5006
C48_2 C 0.16176(13) 0.9681(4) 0.5049(4)
H31_2 H 0.1522 0.9526 0.4907
C55_2 C 0.14218(13) 0.9292(4) 0.3876(4)
H34_2 H 0.1314 0.9407 0.4002
C59_2 C 0.17094(15) 0.9950(4) 0.4810(4)
H36_2 H 0.1681 0.9983 0.4499
C60_2 C 0.22339(11) 0.9780(4) 0.3508(4)
H37_2 H 0.2297 0.9770 0.3786
C62_2 C 0.27619(13) 0.9811(4) 0.4809(4)
H39_2 H 0.2681 0.9618 0.4965
C63_2 C 0.15065(12) 0.9807(3) 0.2603(4)
H40_2 H 0.1480 0.9491 0.2618
H41_2 H 0.1306 0.9973 0.2228
C66_2 C 0.22237(12) 0.9787(4) 0.2719(4)
H43_2 H 0.2285 0.9783 0.2437
C67_2 C 0.13797(13) 0.8586(4) 0.5848(4)
H44_2 H 0.1350 0.8295 0.5730
C68_2 C 0.17887(12) 0.9860(4) 0.5691(4)
H45_2 H 0.1816 0.9844 0.6004
C69_2 C 0.14762(13) 0.8830(3) 0.4004(4)
C70_2 C 0.23221(12) 0.9820(3) 0.3138(4)
C71_2 C 0.23850(12) 0.9922(3) 0.4694(4)
H46_2 H 0.2430 0.9622 0.4725
C74_2 C 0.12100(11) 0.8367(3) 0.6516(4)
C77_2 C 0.13223(11) 0.8702(3) 0.6249(3)
C79_2 C 0.13689(11) 0.8556(3) 0.4295(3)
C83_2 C 0.30539(11) 0.9960(4) 0.4568(3)
C84_2 C 0.20421(12) 0.9748(4) 0.3514(4)
H55_2 H 0.1978 0.9741 0.3792
C86_2 C 0.20412(13) 0.9761(4) 0.2734(4)
H57_2 H 0.1975 0.9766 0.2460
C92_3 C 0.22028(12) 1.0000(4) 0.4726(4)
H62_2 H 0.2124 0.9753 0.4778
C93_2 C 0.26215(11) 0.9679(3) 0.3458(4)
H63_2 H 0.2566 0.9507 0.3691
N2_2 N 0.31066(17) 0.8621(4) 0.3981(7)
N8_2 N 0.17593(9) 0.9669(3) 0.3102(4)
O2_2 O 0.10494(7) 0.7263(2) 0.5050(3)
O3_2 O 0.09815(9) 0.7870(2) 0.5478(3)
O6_2 O 0.32962(7) 0.9515(2) 0.4798(3)
O7_2 O 0.33334(11) 0.9135(3) 0.3777(3)
O9_2 O 0.11728(8) 0.7986(2) 0.6365(3)
O10_2 O 0.11600(7) 0.8493(2) 0.6908(3)
O11_2 O 0.31620(7) 0.9956(2) 0.3469(3)
Cu2_2 Cu 0.354459(12) 0.93639(3) 0.4861(2)
Cu3_2 Cu 0.343002(12) 0.97832(3) 0.36606(19)
N10_2 N 0.3482 0.8827 0.5196
O14_2 O 0.37425(8) 0.9732(2) 0.5071(3)
O16_2 O 0.34815(9) 0.9630(2) 0.2978(3)
O19_2 O 0.36728(8) 0.9514(2) 0.3865(3)
O20_2 O 0.36600(7) 0.9007(2) 0.4408(3)
O21_2 O 0.35255(9) 0.9846(2) 0.5571(3)
Cu5_2 Cu 0.086945(12) 0.69067(3) 0.5340(2)
Cu10_2 Cu 0.093002(12) 0.77168(3) 0.61606(19)
C2_3 C 0.0674(2) 0.8544(5) 0.6156(8)
H2_3 H 0.0612 0.8461 0.5888
C4_3 C 0.0777 0.9124 0.6693
H4_3 H 0.0777 0.9446 0.6607
H5_3 H 0.0885 0.8978 0.6579
H6_3 H 0.0773 0.9098 0.7023
C6_3 C 0.0470 0.8805 0.6745
H8_3 H 0.0505 0.8863 0.7059
H9_3 H 0.0432 0.8488 0.6713
H10_3 H 0.0372 0.9008 0.6660
C17_3 C 0.05049(11) 0.7141(4) 0.6862(4)
H16_3 H 0.0591 0.6948 0.6726
C18_3 C 0.0867 0.4514 0.3110
C19_3 C 0.03793(10) 0.7501(3) 0.5638(4)
C20_3 C 0.03016(10) 0.7751(3) 0.5982(3)
H17_3 H 0.0370 0.7869 0.6225
C25_3 C 0.02015(12) 0.7342(4) 0.7089(4)
C31_3 C 0.02866(11) 0.7336(3) 0.5290(4)
H24_3 H 0.0344 0.7169 0.5056
C32_3 C 0.03147(11) 0.7022(3) 0.6860(3)
H25_3 H 0.0270 0.6755 0.6718
C36_2 C 0.07161(10) 0.6499(3) 0.4526(3)
H27_2 H 0.0652 0.6778 0.4513
C38_3 C 0.07987(13) 0.4906(3) 0.3362(4)
C39_3 C 0.07546(11) 0.7687(4) 0.7030(3)
C40_3 C 0.00138(11) 0.7649(3) 0.5603(4)
C41_2 C 0.09133(10) 0.6026(3) 0.4890(3)
H29_3 H 0.0993 0.5972 0.5134
C43_3 C 0.04455(13) 0.7788(4) 0.7321(5)
H30_3 H 0.0490 0.8026 0.7506
C44_3 C 0.05818(11) 0.7399(3) 0.5639(4)
C49_2 C 0.07912(9) 0.5767(3) 0.4199(3)
C50_3 C 0.00002(11) 0.7221(4) 0.7118(4)
C51_2 C 0.08962(9) 0.5717(3) 0.4577(3)
H32_2 H 0.0960 0.5440 0.4612
C54_2 C 0.06986(11) 0.6164(3) 0.4175(3)
H33_2 H 0.0622 0.6221 0.3926
C56_2 C 0.07766(10) 0.5482(3) 0.3829(4)
C62_3 C 0.02619(13) 0.7689(4) 0.7309(4)
H39_3 H 0.0181 0.7882 0.7465
C65_3 C 0.1047 0.4444 0.3035
H42_3 H 0.1138 0.4635 0.3158
C72_3 C 0.0756 0.4169 0.2960
H47_3 H 0.0632 0.4233 0.2992
C76_3 C 0.1086 0.4047 0.2748
H50_3 H 0.1195 0.4053 0.2583
C78_3 C 0.0792 0.3740 0.2771
H51_3 H 0.0704 0.3521 0.2700
H52_3 H 0.0020 0.6553 0.6975
C82_3 C 0.00958(11) 0.7421(3) 0.5279(4)
H54_3 H 0.0028 0.7309 0.5032
C83_3 C 0.05539(11) 0.7540(4) 0.7068(3)
C93_3 C 0.01215(11) 0.7821(3) 0.5958(4)
H63_3 H 0.0066 0.7993 0.6191
N1_2 N 0.08708(8) 0.5077(2) 0.3754(3)
N2_3 N 0.06066(17) 0.8879(4) 0.6481(7)
N3_2 N 0.08256(8) 0.6405(2) 0.4877(3)
N4_2 N 0.06694(10) 0.5523(3) 0.3475(3)
N5_3 N 0.09993(9) 0.4894(2) 0.4024(3)
H64_3 H 0.1047 0.4630 0.3954
H65_2 H 0.1034 0.5040 0.4268
N7_2 N 0.06802(11) 0.5187(3) 0.3184(4)
O4_3 O 0.08519(7) 0.7454(2) 0.6770(3)
O6_3 O 0.07962(7) 0.7985(2) 0.7298(3)
O7_3 O 0.08334(11) 0.8365(3) 0.6277(3)
O11_3 O 0.06620(7) 0.7544(2) 0.5969(3)
O13_3 O 0.06371(7) 0.7172(2) 0.5344(3)
O14_3 O 0.12425(8) 0.7768(2) 0.7571(3)
O17_3 O 0.10787(7) 0.7133(2) 0.6133(3)
O18_3 O 0.09471(7) 0.6523(2) 0.5835(3)
O21_3 O 0.10255(9) 0.7654(2) 0.8071(3)
O2_3 O 0.85494(7) 0.0237(2) 0.7550(3)
C1_3 C 0.92972(13) 0.6271(3) 0.6283(4)
H1_3 H 0.9331 0.6203 0.5980
C3_3 C 0.86523(12) 0.9076(3) 0.7359(3)
H3_3 H 0.8572 0.8952 0.7575
C5_3 C 0.93940(13) 0.6580(3) 0.6530(4)
H7_3 H 0.9488 0.6741 0.6386
C7_3 C 0.91992(13) 0.7060(4) 0.5297(4)
H11_3 H 0.9296 0.6930 0.5461
C8_3 C 0.87164(10) 0.5917(3) 0.4314(3)
H12_3 H 0.8700 0.5605 0.4389
C9_3 C 0.86600(11) 0.6543(3) 0.3845(3)
H13_3 H 0.8598 0.6670 0.3594
C10_3 C 0.91699(11) 0.8101(3) 0.5893(4)
C11_3 C 0.85578(12) 0.9834(4) 0.7650(4)
C12_3 C 0.87956(11) 0.9667(3) 0.7084(3)
H14_3 H 0.8824 0.9983 0.7095
C13_3 C 0.91636(12) 0.7488(4) 0.5352(4)
C14_3 C 0.94574(12) 0.7770(4) 0.5618(4)
C15_3 C 0.85537(11) 0.5785(3) 0.3625(3)
C16_3 C 0.92234(12) 0.8497(4) 0.6019(4)
H15_3 H 0.9333 0.8601 0.5899
C21_3 C 0.88717(9) 0.8411(3) 0.8958(4)
H18_3 H 0.8836 0.8341 0.9258
C22_3 C 0.90105(13) 0.7943(3) 0.6102(4)
H19_3 H 0.8969 0.7643 0.6042
C23_3 C 0.87436(11) 0.8769(3) 0.7079(3)
H20_3 H 0.8719 0.8452 0.7087
C24_3 C 0.88897(12) 0.9417(3) 0.6798(4)
H21_3 H 0.8971 0.9558 0.6596
C26_3 C 0.87596(11) 0.6823(3) 0.4127(4)
H22_3 H 0.8772 0.7137 0.4056
C27_3 C 0.86695(10) 0.9529(3) 0.7349(3)
C28_3 C 0.89471(13) 0.6932(4) 0.4799(4)
C29_3 C 0.89811(11) 0.8117(3) 0.8697(4)
H23_3 H 0.9017 0.7831 0.8816
C30_3 C 0.90338(11) 0.8244(4) 0.8276(3)
C33_3 C 0.91468(13) 0.7903(4) 0.7995(4)
C34_3 C 0.93599(14) 0.6667(4) 0.6981(4)
C35_3 C 0.89832(12) 0.8618(4) 0.8091(4)
H26_3 H 0.9015 0.8690 0.7788
C37_3 C 0.91357(12) 0.8780(3) 0.6309(4)
H28_3 H 0.9188 0.9066 0.6379
C42_3 C 0.88025(11) 0.5226(3) 0.5690(3)
C45_3 C 0.90338(12) 0.5757(3) 0.6180(4)
C46_3 C 0.86503(11) 0.6066(3) 0.3930(3)
C47_3 C 0.93504(12) 0.7300(3) 0.7490(4)
C48_3 C 0.91176(13) 0.7819(4) 0.7549(4)
H31_3 H 0.9022 0.7974 0.7407
C52_3 C 0.88407(11) 0.6648(3) 0.4511(4)
C53_3 C 0.96371(12) 0.7061(4) 0.7181(4)
C55_3 C 0.89218(13) 0.8208(4) 0.6376(4)
H34_3 H 0.8814 0.8093 0.6502
C57_3 C 0.91566(12) 0.6067(3) 0.6466(4)
C58_3 C 0.93805(13) 0.7369(4) 0.7908(5)
H35_3 H 0.9479 0.7211 0.8034
C59_3 C 0.92094(15) 0.7550(4) 0.7310(4)
H36_3 H 0.9181 0.7517 0.6999
C60_3 C 0.97339(11) 0.7720(4) 0.6008(4)
H37_3 H 0.9797 0.7730 0.6286
C61_3 C 0.91009(13) 0.6779(3) 0.5003(4)
H38_3 H 0.9141 0.6479 0.4944
C63_3 C 0.90065(12) 0.7693(3) 0.5103(4)
H40_3 H 0.8980 0.8009 0.5118
C64_3 C 0.89103(12) 0.7408(4) 0.4868(4)
H41_3 H 0.8806 0.7527 0.4728
C66_3 C 0.97237(12) 0.7713(4) 0.5219(4)
H43_3 H 0.9785 0.7717 0.4937
C67_3 C 0.88797(13) 0.8914(4) 0.8348(4)
H44_3 H 0.8850 0.9205 0.8230
C68_3 C 0.92887(12) 0.7640(4) 0.8191(4)
H45_3 H 0.9316 0.7656 0.8504
C69_3 C 0.89762(13) 0.8670(3) 0.6504(4)
C70_3 C 0.98221(12) 0.7680(3) 0.5638(4)
C71_3 C 0.98850(12) 0.7578(3) 0.7194(4)
H46_3 H 0.9930 0.7878 0.7225
C73_3 C 0.88506(13) 0.5714(3) 0.6305(4)
H48_3 H 0.8803 0.5871 0.6559
C74_3 C 0.87100(11) 0.9133(3) 0.9016(4)
C75_3 C 0.92198(14) 0.6426(4) 0.7179(4)
H49_3 H 0.9194 0.6470 0.7491
C77_3 C 0.88223(11) 0.8798(3) 0.8749(3)
C79_3 C 0.88689(11) 0.8944(3) 0.6795(3)
C80_3 C 0.99397(13) 0.6794(4) 0.7041(5)
C81_3 C 0.89854(13) 0.5286(3) 0.5565(4)
H53_3 H 0.9032 0.5133 0.5308
C84_3 C 0.95421(12) 0.7752(4) 0.6014(4)
H55_3 H 0.9478 0.7759 0.6292
C85_3 C 0.91199(13) 0.6135(4) 0.6938(4)
H56_3 H 0.9025 0.5974 0.7079
C86_3 C 0.95412(13) 0.7739(4) 0.5234(4)
H57_3 H 0.9475 0.7734 0.4960
C87_3 C 0.87037(15) 0.4926(4) 0.5408(4)
C88_3 C 0.97440(13) 0.6716(4) 0.7063(4)
H58_3 H 0.9696 0.6425 0.6995
C89_3 C 0.88079(12) 0.6187(3) 0.4611(3)
H59_3 H 0.8850 0.6062 0.4887
C90_3 C 0.90945(12) 0.5568(3) 0.5821(4)
H60_3 H 0.9214 0.5622 0.5729
C91_3 C 0.87471(12) 0.5442(3) 0.6046(4)
H61_3 H 0.8626 0.5407 0.6130
C92_4 C 0.97028(12) 0.7500(4) 0.7226(4)
H62_3 H 0.9624 0.7747 0.7278
N8_3 N 0.92593(9) 0.7831(3) 0.5602(4)
N9_3 N 0.94519(10) 0.6993(3) 0.7229(4)
O1_2 O 0.87425(8) 0.4732(2) 0.5071(3)
O3_3 O 0.84815(9) 0.9630(2) 0.7978(3)
O5_2 O 0.85787(7) 0.5367(2) 0.3633(3)
O8_2 O 0.84471(7) 0.5977(2) 0.3335(3)
O9_3 O 0.86728(8) 0.9514(2) 0.8865(3)
O10_3 O 0.86600(7) 0.9007(2) 0.9408(3)
O12_2 O 0.85255(9) 0.4846(2) 0.5571(3)
H3_4 H 0.1072 0.3548 0.0075
C11_4 C 0.10578(12) 0.2666(4) 0.0150(4)
C21_4 C 0.13717(9) 0.4089(3) 0.1458(4)
H18_4 H 0.1336 0.4159 0.1758
C29_4 C 0.14811(11) 0.4383(3) 0.1197(4)
H23_4 H 0.1517 0.4669 0.1316
C30_4 C 0.15338(11) 0.4256(4) 0.0776(3)
C33_4 C 0.16468(13) 0.4597(4) 0.0495(4)
C35_4 C 0.14832(12) 0.3882(4) 0.0591(4)
H26_4 H 0.1515 0.3810 0.0288
H30_4 H 0.2990 0.4474 0.0006
C48_4 C 0.16176(13) 0.4681(4) 0.0049(4)
C58_4 C 0.18805(13) 0.5131(4) 0.0408(5)
H35_4 H 0.1979 0.5289 0.0534
C67_4 C 0.13797(13) 0.3586(4) 0.0848(4)
H44_4 H 0.1350 0.3295 0.0730
C68_4 C 0.17887(12) 0.4860(4) 0.0691(4)
H45_4 H 0.1816 0.4844 0.1004
C74_4 C 0.12100(11) 0.3367(3) 0.1516(4)
C77_4 C 0.13223(11) 0.3702(3) 0.1249(3)
O14_4 O 0.37425(8) 0.4732(2) 0.0071(3)
O21_4 O 0.35255(9) 0.4846(2) 0.0571(3)
C1_4 C 0.17972(13) 0.6229(3) 0.8783(4)
H1_4 H 0.1831 0.6297 0.8480
C2_4 C 0.3174(2) 0.3956(5) 0.8656(8)
H2_4 H 0.3112 0.4039 0.8388
C3_4 C 0.11523(12) 0.3424(3) 0.9859(3)
C4_4 C 0.3277 0.3376 0.9193
H4_4 H 0.3277 0.3054 0.9107
H5_4 H 0.3385 0.3522 0.9079
H6_4 H 0.3273 0.3402 0.9523
C5_4 C 0.18940(13) 0.5920(3) 0.9030(4)
H7_4 H 0.1988 0.5759 0.8886
C6_4 C 0.2970 0.3695 0.9245
H8_4 H 0.3005 0.3637 0.9559
H9_4 H 0.2932 0.4012 0.9213
H10_4 H 0.2872 0.3492 0.9160
C7_4 C 0.16992(13) 0.5440(4) 0.7797(4)
H11_4 H 0.1796 0.5570 0.7961
C8_4 C 0.12164(10) 0.6583(3) 0.6814(3)
H12_4 H 0.1200 0.6895 0.6889
C9_4 C 0.11600(11) 0.5957(3) 0.6345(3)
H13_4 H 0.1098 0.5830 0.6094
C10_4 C 0.16699(11) 0.4399(3) 0.8393(4)
C12_4 C 0.12956(11) 0.2833(3) 0.9584(3)
H14_4 H 0.1324 0.2517 0.9595
C13_4 C 0.16636(12) 0.5012(4) 0.7852(4)
C14_4 C 0.19574(12) 0.4730(4) 0.8118(4)
C15_4 C 0.10537(11) 0.6715(3) 0.6125(3)
C16_4 C 0.17234(12) 0.4003(4) 0.8519(4)
H15_4 H 0.1833 0.3899 0.8399
C17_4 C 0.30049(11) 0.5359(4) 0.9362(4)
H16_4 H 0.3091 0.5552 0.9226
C18_4 C 0.3367 0.7986 0.5610
C19_4 C 0.28793(10) 0.4999(3) 0.8138(4)
C20_4 C 0.28016(10) 0.4749(3) 0.8482(3)
H17_4 H 0.2870 0.4631 0.8725
C22_4 C 0.15105(13) 0.4557(3) 0.8602(4)
H19_4 H 0.1469 0.4857 0.8542
C23_4 C 0.12436(11) 0.3731(3) 0.9579(3)
H20_4 H 0.1219 0.4048 0.9587
C24_4 C 0.13897(12) 0.3083(3) 0.9298(4)
H21_4 H 0.1471 0.2942 0.9096
C25_4 C 0.27015(12) 0.5158(4) 0.9589(4)
C26_4 C 0.12596(11) 0.5677(3) 0.6627(4)
H22_4 H 0.1272 0.5363 0.6556
C27_4 C 0.11695(10) 0.2971(3) 0.9849(3)
C28_4 C 0.14471(13) 0.5568(4) 0.7299(4)
C31_4 C 0.27866(11) 0.5164(3) 0.7790(4)
H24_4 H 0.2844 0.5331 0.7556
C32_4 C 0.28147(11) 0.5478(3) 0.9360(3)
H25_4 H 0.2770 0.5745 0.9218
C34_4 C 0.18599(14) 0.5833(4) 0.9481(4)
C36_3 C 0.32161(10) 0.6001(3) 0.7026(3)
H27_3 H 0.3152 0.5722 0.7013
C37_4 C 0.16357(12) 0.3720(3) 0.8809(4)
H28_4 H 0.1688 0.3434 0.8879
C38_4 C 0.32987(13) 0.7594(3) 0.5862(4)
C39_4 C 0.32546(11) 0.4813(4) 0.9530(3)
C40_4 C 0.25138(11) 0.4851(3) 0.8103(4)
C41_3 C 0.34133(10) 0.6474(3) 0.7390(3)
H29_4 H 0.3493 0.6528 0.7634
C42_4 C 0.13025(11) 0.7274(3) 0.8190(3)
C43_4 C 0.29455(13) 0.4712(4) 0.9821(5)
C44_4 C 0.30818(11) 0.5101(3) 0.8139(4)
C45_4 C 0.15338(12) 0.6743(3) 0.8680(4)
C46_4 C 0.11503(11) 0.6434(3) 0.6430(3)
C47_4 C 0.18504(12) 0.5200(3) 0.9990(4)
H31_4 H 0.1522 0.4526 0.9907
C49_3 C 0.32912(9) 0.6733(3) 0.6699(3)
C50_4 C 0.25002(11) 0.5279(4) 0.9618(4)
C51_3 C 0.33962(9) 0.6783(3) 0.7077(3)
H32_3 H 0.3460 0.7060 0.7112
C52_4 C 0.13407(11) 0.5852(3) 0.7011(4)
C53_4 C 0.21371(12) 0.5439(4) 0.9681(4)
C54_3 C 0.31986(11) 0.6336(3) 0.6675(3)
H33_3 H 0.3122 0.6279 0.6426
C55_4 C 0.14218(13) 0.4292(4) 0.8876(4)
H34_4 H 0.1314 0.4407 0.9002
C56_3 C 0.32766(10) 0.7018(3) 0.6329(4)
C57_4 C 0.16566(12) 0.6433(3) 0.8966(4)
C59_4 C 0.17094(15) 0.4950(4) 0.9810(4)
H36_4 H 0.1681 0.4983 0.9499
C60_4 C 0.22339(11) 0.4780(4) 0.8508(4)
H37_4 H 0.2297 0.4770 0.8786
C61_4 C 0.16009(13) 0.5721(3) 0.7503(4)
H38_4 H 0.1641 0.6021 0.7444
C62_4 C 0.27619(13) 0.4811(4) 0.9809(4)
H39_4 H 0.2681 0.4618 0.9965
C63_4 C 0.15065(12) 0.4807(3) 0.7603(4)
H40_4 H 0.1480 0.4491 0.7618
C64_4 C 0.14103(12) 0.5092(4) 0.7368(4)
H41_4 H 0.1306 0.4973 0.7228
C65_4 C 0.3547 0.8056 0.5535
H42_4 H 0.3638 0.7865 0.5658
C66_4 C 0.22237(12) 0.4787(4) 0.7719(4)
H43_4 H 0.2285 0.4783 0.7437
C69_4 C 0.14762(13) 0.3830(3) 0.9004(4)
C70_4 C 0.23221(12) 0.4820(3) 0.8138(4)
C71_4 C 0.23850(12) 0.4922(3) 0.9694(4)
H46_4 H 0.2430 0.4622 0.9725
C72_4 C 0.3256 0.8331 0.5460
H47_4 H 0.3132 0.8267 0.5492
C73_4 C 0.13506(13) 0.6786(3) 0.8805(4)
H48_4 H 0.1303 0.6629 0.9059
C75_4 C 0.17198(14) 0.6074(4) 0.9679(4)
H49_4 H 0.1694 0.6030 0.9991
C76_4 C 0.3586 0.8453 0.5248
H50_4 H 0.3695 0.8447 0.5083
C78_4 C 0.3292 0.8760 0.5271
H51_4 H 0.3204 0.8979 0.5200
C79_4 C 0.13689(11) 0.3556(3) 0.9295(3)
C80_4 C 0.24397(13) 0.5706(4) 0.9541(5)
H52_4 H 0.2520 0.5947 0.9475
C81_4 C 0.14854(13) 0.7214(3) 0.8065(4)
H53_4 H 0.1532 0.7367 0.7808
C82_4 C 0.25958(11) 0.5079(3) 0.7779(4)
H54_4 H 0.2528 0.5191 0.7532
C83_4 C 0.30539(11) 0.4960(4) 0.9568(3)
C84_4 C 0.20421(12) 0.4748(4) 0.8514(4)
H55_4 H 0.1978 0.4741 0.8792
C85_4 C 0.16199(13) 0.6365(4) 0.9438(4)
H56_4 H 0.1525 0.6526 0.9579
C86_4 C 0.20412(13) 0.4761(4) 0.7734(4)
H57_4 H 0.1975 0.4766 0.7460
C87_4 C 0.12037(15) 0.7574(4) 0.7908(4)
C88_4 C 0.22440(13) 0.5784(4) 0.9563(4)
H58_4 H 0.2196 0.6075 0.9495
C89_4 C 0.13079(12) 0.6313(3) 0.7111(3)
H59_4 H 0.1350 0.6438 0.7387
C90_4 C 0.15945(12) 0.6932(3) 0.8321(4)
H60_4 H 0.1714 0.6878 0.8229
C91_4 C 0.12471(12) 0.7058(3) 0.8546(4)
H61_4 H 0.1126 0.7093 0.8630
C92_5 C 0.22028(12) 0.5000(4) 0.9726(4)
H62_4 H 0.2124 0.4753 0.9778
C93_4 C 0.26215(11) 0.4679(3) 0.8458(4)
H63_4 H 0.2566 0.4507 0.8691
N1_3 N 0.33708(8) 0.7423(2) 0.6254(3)
N2_4 N 0.31066(17) 0.3621(4) 0.8981(7)
N3_3 N 0.33256(8) 0.6095(2) 0.7377(3)
N4_3 N 0.31694(10) 0.6977(3) 0.5975(3)
N5_4 N 0.34993(9) 0.7606(2) 0.6524(3)
H64_4 H 0.3547 0.7870 0.6454
H65_3 H 0.3534 0.7460 0.6768
N7_3 N 0.31802(11) 0.7313(3) 0.5684(4)
N8_4 N 0.17593(9) 0.4669(3) 0.8102(4)
N9_4 N 0.19519(10) 0.5507(3) 0.9729(4)
O4_4 O 0.33519(7) 0.5046(2) 0.9270(3)
O6_4 O 0.32962(7) 0.4515(2) 0.9798(3)
O7_4 O 0.33334(11) 0.4135(3) 0.8777(3)
O11_4 O 0.31620(7) 0.4956(2) 0.8469(3)
O13_4 O 0.31371(7) 0.5328(2) 0.7844(3)
Cu1_3 Cu 0.336945(12) 0.55933(3) 0.7840(2)
Cu3_3 Cu 0.343002(12) 0.47832(3) 0.86606(19)
O15_3 O 0.35494(7) 0.5237(2) 0.7550(3)
O16_3 O 0.34815(9) 0.4630(2) 0.7978(3)
O17_4 O 0.35787(7) 0.5367(2) 0.8633(3)
O18_4 O 0.34471(7) 0.5977(2) 0.8335(3)
O19_3 O 0.36728(8) 0.4514(2) 0.8865(3)
O20_3 O 0.36600(7) 0.4007(2) 0.9408(3)
C1_5 C 0.42972(13) 0.1271(3) 0.6283(4)
H1_5 H 0.4331 0.1203 0.5980
C2_5 C 0.5674(2) 0.3544(5) 0.6156(8)
H2_5 H 0.5612 0.3461 0.5888
C3_5 C 0.36523(12) 0.4076(3) 0.7359(3)
H3_5 H 0.3572 0.3952 0.7575
C4_5 C 0.5777 0.4124 0.6693
H4_5 H 0.5777 0.4446 0.6607
H5_5 H 0.5885 0.3978 0.6579
H6_5 H 0.5773 0.4098 0.7023
C5_5 C 0.43940(13) 0.1580(3) 0.6530(4)
H7_5 H 0.4488 0.1741 0.6386
C6_5 C 0.5470 0.3805 0.6745
H8_5 H 0.5505 0.3863 0.7059
H9_5 H 0.5432 0.3488 0.6713
H10_5 H 0.5372 0.4008 0.6660
C7_5 C 0.41992(13) 0.2060(4) 0.5297(4)
H11_5 H 0.4296 0.1930 0.5461
C8_5 C 0.37164(10) 0.0917(3) 0.4314(3)
H12_5 H 0.3700 0.0605 0.4389
C9_5 C 0.36600(11) 0.1543(3) 0.3845(3)
H13_5 H 0.3598 0.1670 0.3594
C10_5 C 0.41699(11) 0.3101(3) 0.5893(4)
C11_5 C 0.35578(12) 0.4834(4) 0.7650(4)
C12_5 C 0.37956(11) 0.4667(3) 0.7084(3)
H14_5 H 0.3824 0.4983 0.7095
C13_5 C 0.41636(12) 0.2488(4) 0.5352(4)
C14_5 C 0.44574(12) 0.2770(4) 0.5618(4)
C15_5 C 0.35537(11) 0.0785(3) 0.3625(3)
C16_5 C 0.42234(12) 0.3497(4) 0.6019(4)
H15_5 H 0.4333 0.3601 0.5899
C17_5 C 0.55049(11) 0.2141(4) 0.6862(4)
H16_5 H 0.5591 0.1948 0.6726
C19_5 C 0.53793(10) 0.2501(3) 0.5638(4)
C20_5 C 0.53016(10) 0.2751(3) 0.5982(3)
H17_5 H 0.5370 0.2869 0.6225
C21_5 C 0.38717(9) 0.3411(3) 0.8958(4)
H18_5 H 0.3836 0.3341 0.9258
C22_5 C 0.40105(13) 0.2943(3) 0.6102(4)
H19_5 H 0.3969 0.2643 0.6042
C23_5 C 0.37436(11) 0.3769(3) 0.7079(3)
H20_5 H 0.3719 0.3452 0.7087
C24_5 C 0.38897(12) 0.4417(3) 0.6798(4)
H21_5 H 0.3971 0.4558 0.6596
C25_5 C 0.52015(12) 0.2342(4) 0.7089(4)
C26_5 C 0.37596(11) 0.1823(3) 0.4127(4)
H22_5 H 0.3772 0.2137 0.4056
C27_5 C 0.36695(10) 0.4529(3) 0.7349(3)
C28_5 C 0.39471(13) 0.1932(4) 0.4799(4)
C29_5 C 0.39811(11) 0.3117(3) 0.8697(4)
H23_5 H 0.4017 0.2831 0.8816
C30_5 C 0.40338(11) 0.3244(4) 0.8276(3)
C31_5 C 0.52866(11) 0.2336(3) 0.5290(4)
H24_5 H 0.5344 0.2169 0.5056
C32_5 C 0.53147(11) 0.2022(3) 0.6860(3)
H25_5 H 0.5270 0.1755 0.6718
C33_5 C 0.41468(13) 0.2903(4) 0.7995(4)
C34_5 C 0.43599(14) 0.1667(4) 0.6981(4)
C35_5 C 0.39832(12) 0.3618(4) 0.8091(4)
H26_5 H 0.4015 0.3690 0.7788
C36_4 C 0.57161(10) 0.1499(3) 0.4526(3)
H27_4 H 0.5652 0.1778 0.4513
C37_5 C 0.41357(12) 0.3780(3) 0.6309(4)
H28_5 H 0.4188 0.4066 0.6379
C39_5 C 0.57546(11) 0.2687(4) 0.7030(3)
C40_5 C 0.50138(11) 0.2649(3) 0.5603(4)
C41_4 C 0.59133(10) 0.1026(3) 0.4890(3)
H29_5 H 0.5993 0.0972 0.5134
C42_5 C 0.38025(11) 0.0226(3) 0.5690(3)
C43_5 C 0.54455(13) 0.2788(4) 0.7321(5)
H30_5 H 0.5490 0.3026 0.7506
C44_5 C 0.55818(11) 0.2399(3) 0.5639(4)
C45_5 C 0.40338(12) 0.0757(3) 0.6180(4)
C46_5 C 0.36503(11) 0.1066(3) 0.3930(3)
C47_5 C 0.43504(12) 0.2300(3) 0.7490(4)
C48_5 C 0.41176(13) 0.2819(4) 0.7549(4)
H31_5 H 0.4022 0.2974 0.7407
C49_4 C 0.57912(9) 0.0767(3) 0.4199(3)
C50_5 C 0.50002(11) 0.2221(4) 0.7118(4)
C51_4 C 0.58962(9) 0.0717(3) 0.4577(3)
H32_4 H 0.5960 0.0440 0.4612
C52_5 C 0.38407(11) 0.1648(3) 0.4511(4)
C53_5 C 0.46371(12) 0.2061(4) 0.7181(4)
C54_4 C 0.56986(11) 0.1164(3) 0.4175(3)
H33_4 H 0.5622 0.1221 0.3926
C55_5 C 0.39218(13) 0.3208(4) 0.6376(4)
H34_5 H 0.3814 0.3093 0.6502
C56_4 C 0.57766(10) 0.0482(3) 0.3829(4)
C57_5 C 0.41566(12) 0.1067(3) 0.6466(4)
C58_5 C 0.43805(13) 0.2369(4) 0.7908(5)
H35_5 H 0.4479 0.2211 0.8034
C59_5 C 0.42094(15) 0.2550(4) 0.7310(4)
H36_5 H 0.4181 0.2517 0.6999
C60_5 C 0.47339(11) 0.2720(4) 0.6008(4)
H37_5 H 0.4797 0.2730 0.6286
C61_5 C 0.41009(13) 0.1779(3) 0.5003(4)
H38_5 H 0.4141 0.1479 0.4944
C62_5 C 0.52619(13) 0.2689(4) 0.7309(4)
H39_5 H 0.5181 0.2882 0.7465
C63_5 C 0.40065(12) 0.2693(3) 0.5103(4)
H40_5 H 0.3980 0.3009 0.5118
C64_5 C 0.39103(12) 0.2408(4) 0.4868(4)
H41_5 H 0.3806 0.2527 0.4728
C66_5 C 0.47237(12) 0.2713(4) 0.5219(4)
H43_5 H 0.4785 0.2717 0.4937
C67_5 C 0.38797(13) 0.3914(4) 0.8348(4)
H44_5 H 0.3850 0.4205 0.8230
C68_5 C 0.42887(12) 0.2640(4) 0.8191(4)
H45_5 H 0.4316 0.2656 0.8504
C69_5 C 0.39762(13) 0.3670(3) 0.6504(4)
C70_5 C 0.48221(12) 0.2680(3) 0.5638(4)
C71_5 C 0.48850(12) 0.2578(3) 0.7194(4)
H46_5 H 0.4930 0.2878 0.7225
C73_5 C 0.38506(13) 0.0714(3) 0.6305(4)
H48_5 H 0.3803 0.0871 0.6559
C74_5 C 0.37100(11) 0.4133(3) 0.9016(4)
C75_5 C 0.42198(14) 0.1426(4) 0.7179(4)
H49_5 H 0.4194 0.1470 0.7491
C77_5 C 0.38223(11) 0.3798(3) 0.8749(3)
C79_5 C 0.38689(11) 0.3944(3) 0.6795(3)
C80_5 C 0.49397(13) 0.1794(4) 0.7041(5)
H52_5 H 0.5020 0.1553 0.6975
C81_5 C 0.39854(13) 0.0286(3) 0.5565(4)
H53_5 H 0.4032 0.0133 0.5308
C82_5 C 0.50958(11) 0.2421(3) 0.5279(4)
H54_5 H 0.5028 0.2309 0.5032
C83_5 C 0.55539(11) 0.2540(4) 0.7068(3)
C84_5 C 0.45421(12) 0.2752(4) 0.6014(4)
H55_5 H 0.4478 0.2759 0.6292
C85_5 C 0.41199(13) 0.1135(4) 0.6938(4)
H56_5 H 0.4025 0.0974 0.7079
C86_5 C 0.45412(13) 0.2739(4) 0.5234(4)
H57_5 H 0.4475 0.2734 0.4960
C88_5 C 0.47440(13) 0.1716(4) 0.7063(4)
H58_5 H 0.4696 0.1425 0.6995
C89_5 C 0.38079(12) 0.1187(3) 0.4611(3)
H59_5 H 0.3850 0.1062 0.4887
C90_5 C 0.40945(12) 0.0568(3) 0.5821(4)
H60_5 H 0.4214 0.0622 0.5729
C91_5 C 0.37471(12) 0.0442(3) 0.6046(4)
H61_5 H 0.3626 0.0407 0.6130
C92_6 C 0.47028(12) 0.2500(4) 0.7226(4)
H62_5 H 0.4624 0.2747 0.7278
C93_5 C 0.51215(11) 0.2821(3) 0.5958(4)
H63_5 H 0.5066 0.2993 0.6191
N1_4 N 0.58708(8) 0.0077(2) 0.3754(3)
N2_5 N 0.56066(17) 0.3879(4) 0.6481(7)
N3_4 N 0.58256(8) 0.1405(2) 0.4877(3)
N4_4 N 0.56694(10) 0.0523(3) 0.3475(3)
H65_4 H 0.6034 0.0040 0.4268
N7_4 N 0.56802(11) 0.0187(3) 0.3184(4)
N8_5 N 0.42593(9) 0.2831(3) 0.5602(4)
N9_5 N 0.44519(10) 0.1993(3) 0.7229(4)
O4_5 O 0.58519(7) 0.2454(2) 0.6770(3)
O6_5 O 0.57962(7) 0.2985(2) 0.7298(3)
O7_5 O 0.58334(11) 0.3365(3) 0.6277(3)
O11_5 O 0.56620(7) 0.2544(2) 0.5969(3)
O13_5 O 0.56371(7) 0.2172(2) 0.5344(3)
Cu1_4 Cu 0.586945(12) 0.19067(3) 0.5340(2)
Cu2_3 Cu 0.604459(12) 0.31361(3) 0.7361(2)
Cu3_4 Cu 0.593002(12) 0.27168(3) 0.61606(19)
N10_3 N 0.5982 0.3673 0.7696
O14_5 O 0.62425(8) 0.2768(2) 0.7571(3)
O15_4 O 0.60494(7) 0.2263(2) 0.5050(3)
O16_4 O 0.59815(9) 0.2870(2) 0.5478(3)
O17_5 O 0.60787(7) 0.2133(2) 0.6133(3)
O18_5 O 0.59471(7) 0.1523(2) 0.5835(3)
O19_4 O 0.61728(8) 0.2986(2) 0.6365(3)
O20_4 O 0.61600(7) 0.3493(2) 0.6908(3)
O21_5 O 0.60255(9) 0.2654(2) 0.8071(3)
C18_5 C 0.5867 0.9514 0.3110
C38_5 C 0.57987(13) 0.9906(3) 0.3362(4)
C65_5 C 0.6047 0.9444 0.3035
H42_5 H 0.6138 0.9635 0.3158
C72_5 C 0.5756 0.9169 0.2960
H47_5 H 0.5632 0.9233 0.2992
C76_5 C 0.6086 0.9047 0.2748
H50_5 H 0.6195 0.9053 0.2583
C78_5 C 0.5792 0.8740 0.2771
H51_5 H 0.5704 0.8521 0.2700
C87_5 C 0.37037(15) 0.9926(4) 0.5408(4)
N5_5 N 0.59993(9) 0.9894(2) 0.4024(3)
H64_5 H 0.6047 0.9630 0.3954
N6_3 N 0.5982 0.8673 0.2696
Cu6_3 Cu 0.604459(12) 0.81361(3) 0.2361(2)
C1_6 C 0.67972(13) 0.1229(3) 0.8783(4)
H1_6 H 0.6831 0.1297 0.8480
C5_6 C 0.68940(13) 0.0920(3) 0.9030(4)
H7_6 H 0.6988 0.0759 0.8886
C7_6 C 0.66992(13) 0.0440(4) 0.7797(4)
H11_6 H 0.6796 0.0570 0.7961
C8_6 C 0.62164(10) 0.1583(3) 0.6814(3)
H12_6 H 0.6200 0.1895 0.6889
C9_6 C 0.61600(11) 0.0957(3) 0.6345(3)
H13_6 H 0.6098 0.0830 0.6094
C13_6 C 0.66636(12) 0.0012(4) 0.7852(4)
C15_6 C 0.60537(11) 0.1715(3) 0.6125(3)
C17_6 C 0.80049(11) 0.0359(4) 0.9362(4)
H16_6 H 0.8091 0.0552 0.9226
C18_6 C 0.8367 0.2986 0.5610
C25_6 C 0.77015(12) 0.0158(4) 0.9589(4)
C26_6 C 0.62596(11) 0.0677(3) 0.6627(4)
H22_6 H 0.6272 0.0363 0.6556
C28_6 C 0.64471(13) 0.0568(4) 0.7299(4)
C31_6 C 0.77866(11) 0.0164(3) 0.7790(4)
H24_6 H 0.7844 0.0331 0.7556
C32_6 C 0.78147(11) 0.0478(3) 0.9360(3)
H25_6 H 0.7770 0.0745 0.9218
C34_6 C 0.68599(14) 0.0833(4) 0.9481(4)
C36_5 C 0.82161(10) 0.1001(3) 0.7026(3)
H27_5 H 0.8152 0.0722 0.7013
C38_6 C 0.82987(13) 0.2594(3) 0.5862(4)
C41_5 C 0.84133(10) 0.1474(3) 0.7390(3)
H29_6 H 0.8493 0.1528 0.7634
C42_6 C 0.63025(11) 0.2274(3) 0.8190(3)
C44_6 C 0.80818(11) 0.0101(3) 0.8139(4)
C45_6 C 0.65338(12) 0.1743(3) 0.8680(4)
C46_6 C 0.61503(11) 0.1434(3) 0.6430(3)
C47_6 C 0.68504(12) 0.0200(3) 0.9990(4)
C49_5 C 0.82912(9) 0.1733(3) 0.6699(3)
C50_6 C 0.75002(11) 0.0279(4) 0.9618(4)
C51_5 C 0.83962(9) 0.1783(3) 0.7077(3)
H32_5 H 0.8460 0.2060 0.7112
C52_6 C 0.63407(11) 0.0852(3) 0.7011(4)
C53_6 C 0.71371(12) 0.0439(4) 0.9681(4)
C54_5 C 0.81986(11) 0.1336(3) 0.6675(3)
H33_5 H 0.8122 0.1279 0.6426
C56_5 C 0.82766(10) 0.2018(3) 0.6329(4)
C57_6 C 0.66566(12) 0.1433(3) 0.8966(4)
C61_6 C 0.66009(13) 0.0721(3) 0.7503(4)
H38_6 H 0.6641 0.1021 0.7444
C64_6 C 0.64103(12) 0.0092(4) 0.7368(4)
C65_6 C 0.8547 0.3056 0.5535
H42_6 H 0.8638 0.2865 0.5658
C72_6 C 0.8256 0.3331 0.5460
H47_6 H 0.8132 0.3267 0.5492
C73_6 C 0.63506(13) 0.1786(3) 0.8805(4)
H48_6 H 0.6303 0.1629 0.9059
C75_6 C 0.67198(14) 0.1074(4) 0.9679(4)
H49_6 H 0.6694 0.1030 0.9991
C76_6 C 0.8586 0.3453 0.5248
H50_6 H 0.8695 0.3447 0.5083
C78_6 C 0.8292 0.3760 0.5271
H51_6 H 0.8204 0.3979 0.5200
C80_6 C 0.74397(13) 0.0706(4) 0.9541(5)
H52_6 H 0.7520 0.0947 0.9475
C81_6 C 0.64854(13) 0.2214(3) 0.8065(4)
H53_6 H 0.6532 0.2367 0.7808
C82_6 C 0.75958(11) 0.0079(3) 0.7779(4)
H54_6 H 0.7528 0.0191 0.7532
C85_6 C 0.66199(13) 0.1365(4) 0.9438(4)
H56_6 H 0.6525 0.1526 0.9579
C87_6 C 0.62037(15) 0.2574(4) 0.7908(4)
C88_6 C 0.72440(13) 0.0784(4) 0.9563(4)
H58_6 H 0.7196 0.1075 0.9495
C89_6 C 0.63079(12) 0.1313(3) 0.7111(3)
H59_6 H 0.6350 0.1438 0.7387
C90_6 C 0.65945(12) 0.1932(3) 0.8321(4)
H60_6 H 0.6714 0.1878 0.8229
C91_6 C 0.62471(12) 0.2058(3) 0.8546(4)
H61_6 H 0.6126 0.2093 0.8630
C92_7 C 0.72028(12) 0.0000(4) 0.9726(4)
N1_5 N 0.83708(8) 0.2423(2) 0.6254(3)
N3_5 N 0.83256(8) 0.1095(2) 0.7377(3)
N4_5 N 0.81694(10) 0.1977(3) 0.5975(3)
N5_6 N 0.84993(9) 0.2606(2) 0.6524(3)
H64_6 H 0.8547 0.2870 0.6454
H65_5 H 0.8534 0.2460 0.6768
N6_4 N 0.8482 0.3827 0.5196
N7_5 N 0.81802(11) 0.2313(3) 0.5684(4)
N9_6 N 0.69519(10) 0.0507(3) 0.9729(4)
O4_6 O 0.83519(7) 0.0046(2) 0.9270(3)
O13_6 O 0.81371(7) 0.0328(2) 0.7844(3)
H3_6 H 0.6072 0.8548 0.0075
C11_6 C 0.60578(12) 0.7666(4) 0.0150(4)
C21_6 C 0.63717(9) 0.9089(3) 0.1458(4)
H18_6 H 0.6336 0.9159 0.1758
C29_6 C 0.64811(11) 0.9383(3) 0.1197(4)
H23_6 H 0.6517 0.9669 0.1316
C30_6 C 0.65338(11) 0.9256(4) 0.0776(3)
C33_6 C 0.66468(13) 0.9597(4) 0.0495(4)
C35_6 C 0.64832(12) 0.8882(4) 0.0591(4)
H26_6 H 0.6515 0.8810 0.0288
H30_6 H 0.7990 0.9474 0.0006
C48_6 C 0.66176(13) 0.9681(4) 0.0049(4)
C67_6 C 0.63797(13) 0.8586(4) 0.0848(4)
H44_6 H 0.6350 0.8295 0.0730
C68_6 C 0.67887(12) 0.9860(4) 0.0691(4)
H45_6 H 0.6816 0.9844 0.1004
C74_6 C 0.62100(11) 0.8367(3) 0.1516(4)
C77_6 C 0.63223(11) 0.8702(3) 0.1249(3)
O2_4 O 0.60494(7) 0.7263(2) 0.0050(3)
O3_4 O 0.59815(9) 0.7870(2) 0.0478(3)
O9_4 O 0.61728(8) 0.7986(2) 0.1365(3)
O10_4 O 0.61600(7) 0.8493(2) 0.1908(3)
N10_4 N 0.8482 0.8827 0.0196
Cu5_3 Cu 0.586945(12) 0.69067(3) 0.0340(2)
Cu10_3 Cu 0.593002(12) 0.77168(3) 0.11606(19)
C2_6 C 0.8174(2) 0.8956(5) 0.8656(8)
H2_6 H 0.8112 0.9039 0.8388
C3_6 C 0.61523(12) 0.8424(3) 0.9859(3)
C4_6 C 0.8277 0.8376 0.9193
H4_6 H 0.8277 0.8054 0.9107
H5_6 H 0.8385 0.8522 0.9079
H6_6 H 0.8273 0.8402 0.9523
C6_6 C 0.7970 0.8695 0.9245
H8_6 H 0.8005 0.8637 0.9559
H9_6 H 0.7932 0.9012 0.9213
H10_6 H 0.7872 0.8492 0.9160
C10_6 C 0.66699(11) 0.9399(3) 0.8393(4)
C12_6 C 0.62956(11) 0.7833(3) 0.9584(3)
H14_6 H 0.6324 0.7517 0.9595
C14_6 C 0.69574(12) 0.9730(4) 0.8118(4)
C16_6 C 0.67234(12) 0.9003(4) 0.8519(4)
H15_6 H 0.6833 0.8899 0.8399
C19_6 C 0.78793(10) 0.9999(3) 0.8138(4)
C20_6 C 0.78016(10) 0.9749(3) 0.8482(3)
H17_6 H 0.7870 0.9631 0.8725
C22_6 C 0.65105(13) 0.9557(3) 0.8602(4)
H19_6 H 0.6469 0.9857 0.8542
C23_6 C 0.62436(11) 0.8731(3) 0.9579(3)
H20_6 H 0.6219 0.9048 0.9587
C24_6 C 0.63897(12) 0.8083(3) 0.9298(4)
H21_6 H 0.6471 0.7942 0.9096
C27_6 C 0.61695(10) 0.7971(3) 0.9849(3)
C37_6 C 0.66357(12) 0.8720(3) 0.8809(4)
H28_6 H 0.6688 0.8434 0.8879
C39_6 C 0.82546(11) 0.9813(4) 0.9530(3)
C40_6 C 0.75138(11) 0.9851(3) 0.8103(4)
C43_6 C 0.79455(13) 0.9712(4) 0.9821(5)
H31_6 H 0.6522 0.9526 0.9907
C55_6 C 0.64218(13) 0.9292(4) 0.8876(4)
H34_6 H 0.6314 0.9407 0.9002
C59_6 C 0.67094(15) 0.9950(4) 0.9810(4)
H36_6 H 0.6681 0.9983 0.9499
C60_6 C 0.72339(11) 0.9780(4) 0.8508(4)
H37_6 H 0.7297 0.9770 0.8786
C62_6 C 0.77619(13) 0.9811(4) 0.9809(4)
H39_6 H 0.7681 0.9618 0.9965
C63_6 C 0.65065(12) 0.9807(3) 0.7603(4)
H40_6 H 0.6480 0.9491 0.7618
H41_6 H 0.6306 0.9973 0.7228
C66_6 C 0.72237(12) 0.9787(4) 0.7719(4)
H43_6 H 0.7285 0.9783 0.7437
C69_6 C 0.64762(13) 0.8830(3) 0.9004(4)
C70_6 C 0.73221(12) 0.9820(3) 0.8138(4)
C71_6 C 0.73850(12) 0.9922(3) 0.9694(4)
H46_6 H 0.7430 0.9622 0.9725
C79_6 C 0.63689(11) 0.8556(3) 0.9295(3)
C83_6 C 0.80539(11) 0.9960(4) 0.9568(3)
C84_6 C 0.70421(12) 0.9748(4) 0.8514(4)
H55_6 H 0.6978 0.9741 0.8792
C86_6 C 0.70412(13) 0.9761(4) 0.7734(4)
H57_6 H 0.6975 0.9766 0.7460
C92_8 C 0.72028(12) 1.0000(4) 0.9726(4)
H62_6 H 0.7124 0.9753 0.9778
C93_6 C 0.76215(11) 0.9679(3) 0.8458(4)
H63_6 H 0.7566 0.9507 0.8691
N2_6 N 0.81066(17) 0.8621(4) 0.8981(7)
N8_6 N 0.67593(9) 0.9669(3) 0.8102(4)
O6_6 O 0.82962(7) 0.9515(2) 0.9798(3)
O7_6 O 0.83334(11) 0.9135(3) 0.8777(3)
O11_6 O 0.81620(7) 0.9956(2) 0.8469(3)
C1_7 C 0.42972(13) 0.6271(3) 0.1283(4)
H1_7 H 0.4331 0.6203 0.0980
C2_7 C 0.5674(2) 0.8544(5) 0.1156(8)
H2_7 H 0.5612 0.8461 0.0888
C3_7 C 0.36523(12) 0.9076(3) 0.2359(3)
H3_7 H 0.3572 0.8952 0.2575
C4_7 C 0.5777 0.9124 0.1693
H4_7 H 0.5777 0.9446 0.1607
H5_7 H 0.5885 0.8978 0.1579
H6_7 H 0.5773 0.9098 0.2023
C5_7 C 0.43940(13) 0.6580(3) 0.1530(4)
H7_7 H 0.4488 0.6741 0.1386
C6_7 C 0.5470 0.8805 0.1745
H8_7 H 0.5505 0.8863 0.2059
H9_7 H 0.5432 0.8488 0.1713
H10_7 H 0.5372 0.9008 0.1660
C7_7 C 0.41992(13) 0.7060(4) 0.0297(4)
H11_7 H 0.4296 0.6930 0.0461
C10_7 C 0.41699(11) 0.8101(3) 0.0893(4)
C11_7 C 0.35578(12) 0.9834(4) 0.2650(4)
C12_7 C 0.37956(11) 0.9667(3) 0.2084(3)
H14_7 H 0.3824 0.9983 0.2095
C13_7 C 0.41636(12) 0.7488(4) 0.0352(4)
C14_7 C 0.44574(12) 0.7770(4) 0.0618(4)
C16_7 C 0.42234(12) 0.8497(4) 0.1019(4)
H15_7 H 0.4333 0.8601 0.0899
C17_7 C 0.55049(11) 0.7141(4) 0.1862(4)
H16_7 H 0.5591 0.6948 0.1726
C19_7 C 0.53793(10) 0.7501(3) 0.0638(4)
C20_7 C 0.53016(10) 0.7751(3) 0.0982(3)
H17_7 H 0.5370 0.7869 0.1225
C21_7 C 0.38717(9) 0.8411(3) 0.3958(4)
H18_7 H 0.3836 0.8341 0.4258
C22_7 C 0.40105(13) 0.7943(3) 0.1102(4)
H19_7 H 0.3969 0.7643 0.1042
C23_7 C 0.37436(11) 0.8769(3) 0.2079(3)
H20_7 H 0.3719 0.8452 0.2087
C24_7 C 0.38897(12) 0.9417(3) 0.1798(4)
H21_7 H 0.3971 0.9558 0.1596
C25_7 C 0.52015(12) 0.7342(4) 0.2089(4)
C27_7 C 0.36695(10) 0.9529(3) 0.2349(3)
C29_7 C 0.39811(11) 0.8117(3) 0.3697(4)
H23_7 H 0.4017 0.7831 0.3816
C30_7 C 0.40338(11) 0.8244(4) 0.3276(3)
C31_7 C 0.52866(11) 0.7336(3) 0.0290(4)
H24_7 H 0.5344 0.7169 0.0056
C32_7 C 0.53147(11) 0.7022(3) 0.1860(3)
H25_7 H 0.5270 0.6755 0.1718
C33_7 C 0.41468(13) 0.7903(4) 0.2995(4)
C34_7 C 0.43599(14) 0.6667(4) 0.1981(4)
C35_7 C 0.39832(12) 0.8618(4) 0.3091(4)
H26_7 H 0.4015 0.8690 0.2788
C37_7 C 0.41357(12) 0.8780(3) 0.1309(4)
H28_7 H 0.4188 0.9066 0.1379
C39_7 C 0.57546(11) 0.7687(4) 0.2030(3)
C40_7 C 0.50138(11) 0.7649(3) 0.0603(4)
H29_7 H 0.5993 0.5972 0.0134
C42_7 C 0.38025(11) 0.5226(3) 0.0690(3)
C43_7 C 0.54455(13) 0.7788(4) 0.2321(5)
H30_7 H 0.5490 0.8026 0.2506
C44_7 C 0.55818(11) 0.7399(3) 0.0639(4)
C45_7 C 0.40338(12) 0.5757(3) 0.1180(4)
C47_7 C 0.43504(12) 0.7300(3) 0.2490(4)
C48_7 C 0.41176(13) 0.7819(4) 0.2549(4)
H31_7 H 0.4022 0.7974 0.2407
C50_7 C 0.50002(11) 0.7221(4) 0.2118(4)
C53_7 C 0.46371(12) 0.7061(4) 0.2181(4)
C55_7 C 0.39218(13) 0.8208(4) 0.1376(4)
H34_7 H 0.3814 0.8093 0.1502
C57_7 C 0.41566(12) 0.6067(3) 0.1466(4)
C58_6 C 0.43805(13) 0.7369(4) 0.2908(5)
H35_6 H 0.4479 0.7211 0.3034
C59_7 C 0.42094(15) 0.7550(4) 0.2310(4)
H36_7 H 0.4181 0.7517 0.1999
C60_7 C 0.47339(11) 0.7720(4) 0.1008(4)
H37_7 H 0.4797 0.7730 0.1286
C61_7 C 0.41009(13) 0.6779(3) 0.0003(4)
C62_7 C 0.52619(13) 0.7689(4) 0.2309(4)
H39_7 H 0.5181 0.7882 0.2465
C63_7 C 0.40065(12) 0.7693(3) 0.0103(4)
H40_7 H 0.3980 0.8009 0.0118
C66_7 C 0.47237(12) 0.7713(4) 0.0219(4)
C67_7 C 0.38797(13) 0.8914(4) 0.3348(4)
H44_7 H 0.3850 0.9205 0.3230
C68_7 C 0.42887(12) 0.7640(4) 0.3191(4)
H45_7 H 0.4316 0.7656 0.3504
C69_7 C 0.39762(13) 0.8670(3) 0.1504(4)
C70_7 C 0.48221(12) 0.7680(3) 0.0638(4)
C71_7 C 0.48850(12) 0.7578(3) 0.2194(4)
H46_7 H 0.4930 0.7878 0.2225
C73_7 C 0.38506(13) 0.5714(3) 0.1305(4)
H48_7 H 0.3803 0.5871 0.1559
C74_7 C 0.37100(11) 0.9133(3) 0.4016(4)
C75_7 C 0.42198(14) 0.6426(4) 0.2179(4)
H49_7 H 0.4194 0.6470 0.2491
C77_7 C 0.38223(11) 0.8798(3) 0.3749(3)
C79_7 C 0.38689(11) 0.8944(3) 0.1795(3)
C80_7 C 0.49397(13) 0.6794(4) 0.2041(5)
H52_7 H 0.5020 0.6553 0.1975
C81_7 C 0.39854(13) 0.5286(3) 0.0565(4)
H53_7 H 0.4032 0.5133 0.0308
C82_7 C 0.50958(11) 0.7421(3) 0.0279(4)
H54_7 H 0.5028 0.7309 0.0032
C83_7 C 0.55539(11) 0.7540(4) 0.2068(3)
C84_7 C 0.45421(12) 0.7752(4) 0.1014(4)
H55_7 H 0.4478 0.7759 0.1292
C85_7 C 0.41199(13) 0.6135(4) 0.1938(4)
H56_7 H 0.4025 0.5974 0.2079
C86_7 C 0.45412(13) 0.7739(4) 0.0234(4)
C87_7 C 0.37037(15) 0.4926(4) 0.0408(4)
C88_7 C 0.47440(13) 0.6716(4) 0.2063(4)
H58_7 H 0.4696 0.6425 0.1995
C90_7 C 0.40945(12) 0.5568(3) 0.0821(4)
H60_7 H 0.4214 0.5622 0.0729
C91_7 C 0.37471(12) 0.5442(3) 0.1046(4)
H61_7 H 0.3626 0.5407 0.1130
C92_9 C 0.47028(12) 0.7500(4) 0.2226(4)
H62_7 H 0.4624 0.7747 0.2278
C93_7 C 0.51215(11) 0.7821(3) 0.0958(4)
H63_7 H 0.5066 0.7993 0.1191
N2_7 N 0.56066(17) 0.8879(4) 0.1481(7)
N8_7 N 0.42593(9) 0.7831(3) 0.0602(4)
N9_7 N 0.44519(10) 0.6993(3) 0.2229(4)
O4_7 O 0.58519(7) 0.7454(2) 0.1770(3)
O6_7 O 0.57962(7) 0.7985(2) 0.2298(3)
O7_7 O 0.58334(11) 0.8365(3) 0.1277(3)
O11_7 O 0.56620(7) 0.7544(2) 0.0969(3)
O13_7 O 0.56371(7) 0.7172(2) 0.0344(3)
O14_6 O 0.62425(8) 0.7768(2) 0.2571(3)
O17_6 O 0.60787(7) 0.7133(2) 0.1133(3)
O18_6 O 0.59471(7) 0.6523(2) 0.0835(3)
O21_6 O 0.60255(9) 0.7654(2) 0.3071(3)
C8_7 C 0.37164(10) 0.5917(3) 0.9314(3)
H12_7 H 0.3700 0.5605 0.9389
C9_7 C 0.36600(11) 0.6543(3) 0.8845(3)
H13_7 H 0.3598 0.6670 0.8594
C15_7 C 0.35537(11) 0.5785(3) 0.8625(3)
C18_7 C 0.5867 0.4514 0.8110
C26_7 C 0.37596(11) 0.6823(3) 0.9127(4)
H22_7 H 0.3772 0.7137 0.9056
C28_7 C 0.39471(13) 0.6932(4) 0.9799(4)
C36_6 C 0.57161(10) 0.6499(3) 0.9526(3)
H27_6 H 0.5652 0.6778 0.9513
C38_7 C 0.57987(13) 0.4906(3) 0.8362(4)
C41_6 C 0.59133(10) 0.6026(3) 0.9890(3)
C46_7 C 0.36503(11) 0.6066(3) 0.8930(3)
C49_6 C 0.57912(9) 0.5767(3) 0.9199(3)
C51_6 C 0.58962(9) 0.5717(3) 0.9577(3)
H32_6 H 0.5960 0.5440 0.9612
C52_7 C 0.38407(11) 0.6648(3) 0.9511(4)
C54_6 C 0.56986(11) 0.6164(3) 0.9175(3)
H33_6 H 0.5622 0.6221 0.8926
C56_6 C 0.57766(10) 0.5482(3) 0.8829(4)
H38_7 H 0.4141 0.6479 0.9944
C64_7 C 0.39103(12) 0.7408(4) 0.9868(4)
H41_7 H 0.3806 0.7527 0.9728
C65_7 C 0.6047 0.4444 0.8035
H42_7 H 0.6138 0.4635 0.8158
H43_7 H 0.4785 0.7717 0.9937
C72_7 C 0.5756 0.4169 0.7960
H47_7 H 0.5632 0.4233 0.7992
C76_7 C 0.6086 0.4047 0.7748
H50_7 H 0.6195 0.4053 0.7583
C78_7 C 0.5792 0.3740 0.7771
H51_7 H 0.5704 0.3521 0.7700
H57_7 H 0.4475 0.7734 0.9960
C89_7 C 0.38079(12) 0.6187(3) 0.9611(3)
H59_7 H 0.3850 0.6062 0.9887
N1_6 N 0.58708(8) 0.5077(2) 0.8754(3)
N3_6 N 0.58256(8) 0.6405(2) 0.9877(3)
N4_6 N 0.56694(10) 0.5523(3) 0.8475(3)
N5_7 N 0.59993(9) 0.4894(2) 0.9024(3)
H64_7 H 0.6047 0.4630 0.8954
H65_6 H 0.6034 0.5040 0.9268
N7_6 N 0.56802(11) 0.5187(3) 0.8184(4)
C1_8 C 0.67972(13) 0.6229(3) 0.3783(4)
H1_8 H 0.6831 0.6297 0.3480
C2_8 C 0.8174(2) 0.3956(5) 0.3656(8)
H2_8 H 0.8112 0.4039 0.3388
C3_8 C 0.61523(12) 0.3424(3) 0.4859(3)
H3_8 H 0.6072 0.3548 0.5075
C4_8 C 0.8277 0.3376 0.4193
H4_8 H 0.8277 0.3054 0.4107
H5_8 H 0.8385 0.3522 0.4079
H6_8 H 0.8273 0.3402 0.4523
C5_8 C 0.68940(13) 0.5920(3) 0.4030(4)
H7_8 H 0.6988 0.5759 0.3886
C6_8 C 0.7970 0.3695 0.4245
H8_8 H 0.8005 0.3637 0.4559
H9_8 H 0.7932 0.4012 0.4213
H10_8 H 0.7872 0.3492 0.4160
C7_8 C 0.66992(13) 0.5440(4) 0.2797(4)
H11_8 H 0.6796 0.5570 0.2961
C8_8 C 0.62164(10) 0.6583(3) 0.1814(3)
H12_8 H 0.6200 0.6895 0.1889
C9_8 C 0.61600(11) 0.5957(3) 0.1345(3)
H13_8 H 0.6098 0.5830 0.1094
C10_8 C 0.66699(11) 0.4399(3) 0.3393(4)
C11_8 C 0.60578(12) 0.2666(4) 0.5150(4)
C12_8 C 0.62956(11) 0.2833(3) 0.4584(3)
H14_8 H 0.6324 0.2517 0.4595
C13_8 C 0.66636(12) 0.5012(4) 0.2852(4)
C14_8 C 0.69574(12) 0.4730(4) 0.3118(4)
C15_8 C 0.60537(11) 0.6715(3) 0.1125(3)
C16_8 C 0.67234(12) 0.4003(4) 0.3519(4)
H15_8 H 0.6833 0.3899 0.3399
C17_8 C 0.80049(11) 0.5359(4) 0.4362(4)
H16_8 H 0.8091 0.5552 0.4226
C18_8 C 0.8367 0.7986 0.0610
C19_8 C 0.78793(10) 0.4999(3) 0.3138(4)
C20_8 C 0.78016(10) 0.4749(3) 0.3482(3)
H17_8 H 0.7870 0.4631 0.3725
C21_8 C 0.63717(9) 0.4089(3) 0.6458(4)
H18_8 H 0.6336 0.4159 0.6758
C22_8 C 0.65105(13) 0.4557(3) 0.3602(4)
H19_8 H 0.6469 0.4857 0.3542
C23_8 C 0.62436(11) 0.3731(3) 0.4579(3)
H20_8 H 0.6219 0.4048 0.4587
C24_8 C 0.63897(12) 0.3083(3) 0.4298(4)
H21_8 H 0.6471 0.2942 0.4096
C25_8 C 0.77015(12) 0.5158(4) 0.4589(4)
C26_8 C 0.62596(11) 0.5677(3) 0.1627(4)
H22_8 H 0.6272 0.5363 0.1556
C27_8 C 0.61695(10) 0.2971(3) 0.4849(3)
C28_8 C 0.64471(13) 0.5568(4) 0.2299(4)
C29_8 C 0.64811(11) 0.4383(3) 0.6197(4)
H23_8 H 0.6517 0.4669 0.6316
C30_8 C 0.65338(11) 0.4256(4) 0.5776(3)
C31_8 C 0.77866(11) 0.5164(3) 0.2790(4)
H24_8 H 0.7844 0.5331 0.2556
C32_8 C 0.78147(11) 0.5478(3) 0.4360(3)
H25_8 H 0.7770 0.5745 0.4218
C33_8 C 0.66468(13) 0.4597(4) 0.5495(4)
C34_8 C 0.68599(14) 0.5833(4) 0.4481(4)
C35_8 C 0.64832(12) 0.3882(4) 0.5591(4)
H26_8 H 0.6515 0.3810 0.5288
C36_7 C 0.82161(10) 0.6001(3) 0.2026(3)
H27_7 H 0.8152 0.5722 0.2013
C37_8 C 0.66357(12) 0.3720(3) 0.3809(4)
H28_8 H 0.6688 0.3434 0.3879
C38_8 C 0.82987(13) 0.7594(3) 0.0862(4)
C39_8 C 0.82546(11) 0.4813(4) 0.4530(3)
C40_8 C 0.75138(11) 0.4851(3) 0.3103(4)
C41_7 C 0.84133(10) 0.6474(3) 0.2390(3)
H29_8 H 0.8493 0.6528 0.2634
C42_8 C 0.63025(11) 0.7274(3) 0.3190(3)
C43_8 C 0.79455(13) 0.4712(4) 0.4821(5)
H30_8 H 0.7990 0.4474 0.5006
C44_8 C 0.80818(11) 0.5101(3) 0.3139(4)
C45_8 C 0.65338(12) 0.6743(3) 0.3680(4)
C46_8 C 0.61503(11) 0.6434(3) 0.1430(3)
C47_8 C 0.68504(12) 0.5200(3) 0.4990(4)
C48_8 C 0.66176(13) 0.4681(4) 0.5049(4)
H31_8 H 0.6522 0.4526 0.4907
C49_7 C 0.82912(9) 0.6733(3) 0.1699(3)
C50_8 C 0.75002(11) 0.5279(4) 0.4618(4)
C51_7 C 0.83962(9) 0.6783(3) 0.2077(3)
H32_7 H 0.8460 0.7060 0.2112
C52_8 C 0.63407(11) 0.5852(3) 0.2011(4)
C53_8 C 0.71371(12) 0.5439(4) 0.4681(4)
C54_7 C 0.81986(11) 0.6336(3) 0.1675(3)
H33_7 H 0.8122 0.6279 0.1426
C55_8 C 0.64218(13) 0.4292(4) 0.3876(4)
H34_8 H 0.6314 0.4407 0.4002
C56_7 C 0.82766(10) 0.7018(3) 0.1329(4)
C57_8 C 0.66566(12) 0.6433(3) 0.3966(4)
C58_7 C 0.68805(13) 0.5131(4) 0.5408(5)
H35_7 H 0.6979 0.5289 0.5534
C59_8 C 0.67094(15) 0.4950(4) 0.4810(4)
H36_8 H 0.6681 0.4983 0.4499
C60_8 C 0.72339(11) 0.4780(4) 0.3508(4)
H37_8 H 0.7297 0.4770 0.3786
C61_8 C 0.66009(13) 0.5721(3) 0.2503(4)
H38_8 H 0.6641 0.6021 0.2444
C62_8 C 0.77619(13) 0.4811(4) 0.4809(4)
H39_8 H 0.7681 0.4618 0.4965
C63_8 C 0.65065(12) 0.4807(3) 0.2603(4)
H40_8 H 0.6480 0.4491 0.2618
C64_8 C 0.64103(12) 0.5092(4) 0.2368(4)
H41_8 H 0.6306 0.4973 0.2228
C65_8 C 0.8547 0.8056 0.0535
H42_8 H 0.8638 0.7865 0.0658
C66_8 C 0.72237(12) 0.4787(4) 0.2719(4)
H43_8 H 0.7285 0.4783 0.2437
C67_8 C 0.63797(13) 0.3586(4) 0.5848(4)
H44_8 H 0.6350 0.3295 0.5730
C68_8 C 0.67887(12) 0.4860(4) 0.5691(4)
H45_8 H 0.6816 0.4844 0.6004
C69_8 C 0.64762(13) 0.3830(3) 0.4004(4)
C70_8 C 0.73221(12) 0.4820(3) 0.3138(4)
C71_8 C 0.73850(12) 0.4922(3) 0.4694(4)
H46_8 H 0.7430 0.4622 0.4725
C72_8 C 0.8256 0.8331 0.0460
H47_8 H 0.8132 0.8267 0.0492
C73_8 C 0.63506(13) 0.6786(3) 0.3805(4)
H48_8 H 0.6303 0.6629 0.4059
C74_8 C 0.62100(11) 0.3367(3) 0.6516(4)
C75_8 C 0.67198(14) 0.6074(4) 0.4679(4)
H49_8 H 0.6694 0.6030 0.4991
C76_8 C 0.8586 0.8453 0.0248
H50_8 H 0.8695 0.8447 0.0083
C77_8 C 0.63223(11) 0.3702(3) 0.6249(3)
C78_8 C 0.8292 0.8760 0.0271
H51_8 H 0.8204 0.8979 0.0200
C79_8 C 0.63689(11) 0.3556(3) 0.4295(3)
C80_8 C 0.74397(13) 0.5706(4) 0.4541(5)
H52_8 H 0.7520 0.5947 0.4475
C81_8 C 0.64854(13) 0.7214(3) 0.3065(4)
H53_8 H 0.6532 0.7367 0.2808
C82_8 C 0.75958(11) 0.5079(3) 0.2779(4)
H54_8 H 0.7528 0.5191 0.2532
C83_8 C 0.80539(11) 0.4960(4) 0.4568(3)
C84_8 C 0.70421(12) 0.4748(4) 0.3514(4)
H55_8 H 0.6978 0.4741 0.3792
C85_8 C 0.66199(13) 0.6365(4) 0.4438(4)
H56_8 H 0.6525 0.6526 0.4579
C86_8 C 0.70412(13) 0.4761(4) 0.2734(4)
H57_8 H 0.6975 0.4766 0.2460
C87_8 C 0.62037(15) 0.7574(4) 0.2908(4)
C88_8 C 0.72440(13) 0.5784(4) 0.4563(4)
H58_8 H 0.7196 0.6075 0.4495
C89_8 C 0.63079(12) 0.6313(3) 0.2111(3)
H59_8 H 0.6350 0.6438 0.2387
C90_8 C 0.65945(12) 0.6932(3) 0.3321(4)
H60_8 H 0.6714 0.6878 0.3229
C91_8 C 0.62471(12) 0.7058(3) 0.3546(4)
H61_8 H 0.6126 0.7093 0.3630
C92_10 C 0.72028(12) 0.5000(4) 0.4726(4)
H62_8 H 0.7124 0.4753 0.4778
C93_8 C 0.76215(11) 0.4679(3) 0.3458(4)
H63_8 H 0.7566 0.4507 0.3691
N1_7 N 0.83708(8) 0.7423(2) 0.1254(3)
N2_8 N 0.81066(17) 0.3621(4) 0.3981(7)
N3_7 N 0.83256(8) 0.6095(2) 0.2377(3)
N4_7 N 0.81694(10) 0.6977(3) 0.0975(3)
N5_8 N 0.84993(9) 0.7606(2) 0.1524(3)
H64_8 H 0.8547 0.7870 0.1454
H65_7 H 0.8534 0.7460 0.1768
N7_7 N 0.81802(11) 0.7313(3) 0.0684(4)
N8_8 N 0.67593(9) 0.4669(3) 0.3102(4)
N9_8 N 0.69519(10) 0.5507(3) 0.4729(4)
O4_8 O 0.83519(7) 0.5046(2) 0.4270(3)
O6_8 O 0.82962(7) 0.4515(2) 0.4798(3)
O7_8 O 0.83334(11) 0.4135(3) 0.3777(3)
O11_8 O 0.81620(7) 0.4956(2) 0.3469(3)
O13_8 O 0.81371(7) 0.5328(2) 0.2844(3)
C36_8 C 0.07161(10) 0.1499(3) 0.9526(3)
H27_8 H 0.0652 0.1778 0.9513
C41_8 C 0.09133(10) 0.1026(3) 0.9890(3)
C49_8 C 0.07912(9) 0.0767(3) 0.9199(3)
C51_8 C 0.08962(9) 0.0717(3) 0.9577(3)
H32_8 H 0.0960 0.0440 0.9612
C54_8 C 0.06986(11) 0.1164(3) 0.9175(3)
H33_8 H 0.0622 0.1221 0.8926
C56_8 C 0.07766(10) 0.0482(3) 0.8829(4)
N1_8 N 0.08708(8) 0.0077(2) 0.8754(3)
N3_8 N 0.08256(8) 0.1405(2) 0.9877(3)
N4_8 N 0.06694(10) 0.0523(3) 0.8475(3)
H65_8 H 0.1034 0.0040 0.9268
N7_8 N 0.06802(11) 0.0187(3) 0.8184(4)
C87_9 C 0.12963(15) 0.0074(4) 0.0408(4)
O1_3 O 0.12575(8) 0.0268(2) 0.0071(3)
O12_3 O 0.14745(9) 0.0154(2) 0.0571(3)
Cu7_2 Cu 0.145541(12) 0.06361(3) 0.9861(2)
Cu9_2 Cu 0.156998(12) 0.02168(3) 0.86606(19)
C1_9 C 0.07028(13) 0.8729(3) 0.1283(4)
H1_9 H 0.0669 0.8797 0.0980
C3_9 C 0.13477(12) 0.5924(3) 0.2359(3)
H3_9 H 0.1428 0.6048 0.2575
C5_9 C 0.06060(13) 0.8420(3) 0.1530(4)
H7_9 H 0.0512 0.8259 0.1386
C7_9 C 0.08008(13) 0.7940(4) 0.0297(4)
H11_9 H 0.0704 0.8070 0.0461
C10_9 C 0.08301(11) 0.6899(3) 0.0893(4)
C11_9 C 0.14422(12) 0.5166(4) 0.2650(4)
C12_9 C 0.12044(11) 0.5333(3) 0.2084(3)
H14_9 H 0.1176 0.5017 0.2095
C13_9 C 0.08364(12) 0.7512(4) 0.0352(4)
C14_9 C 0.05426(12) 0.7230(4) 0.0618(4)
C16_9 C 0.07766(12) 0.6503(4) 0.1019(4)
H15_9 H 0.0667 0.6399 0.0899
C21_9 C 0.11283(9) 0.6589(3) 0.3958(4)
H18_9 H 0.1164 0.6659 0.4258
C22_9 C 0.09895(13) 0.7057(3) 0.1102(4)
H19_9 H 0.1031 0.7357 0.1042
C23_9 C 0.12564(11) 0.6231(3) 0.2079(3)
H20_9 H 0.1281 0.6548 0.2087
C24_9 C 0.11103(12) 0.5583(3) 0.1798(4)
H21_9 H 0.1029 0.5442 0.1596
C27_9 C 0.13305(10) 0.5471(3) 0.2349(3)
C29_9 C 0.10189(11) 0.6883(3) 0.3697(4)
H23_9 H 0.0983 0.7169 0.3816
C30_9 C 0.09662(11) 0.6756(4) 0.3276(3)
C33_9 C 0.08532(13) 0.7097(4) 0.2995(4)
C34_9 C 0.06401(14) 0.8333(4) 0.1981(4)
C35_9 C 0.10168(12) 0.6382(4) 0.3091(4)
H26_9 H 0.0985 0.6310 0.2788
C37_9 C 0.08643(12) 0.6220(3) 0.1309(4)
H28_9 H 0.0812 0.5934 0.1379
C42_9 C 0.11975(11) 0.9774(3) 0.0690(3)
C45_9 C 0.09662(12) 0.9243(3) 0.1180(4)
C47_9 C 0.06496(12) 0.7700(3) 0.2490(4)
C48_9 C 0.08824(13) 0.7181(4) 0.2549(4)
H31_9 H 0.0978 0.7026 0.2407
C53_9 C 0.03629(12) 0.7939(4) 0.2181(4)
C55_9 C 0.10782(13) 0.6792(4) 0.1376(4)
H34_9 H 0.1186 0.6907 0.1502
C57_9 C 0.08434(12) 0.8933(3) 0.1466(4)
C58_8 C 0.06195(13) 0.7631(4) 0.2908(5)
H35_8 H 0.0521 0.7789 0.3034
C59_9 C 0.07906(15) 0.7450(4) 0.2310(4)
H36_9 H 0.0819 0.7483 0.1999
C60_9 C 0.02661(11) 0.7280(4) 0.1008(4)
H37_9 H 0.0203 0.7270 0.1286
C61_9 C 0.08991(13) 0.8221(3) 0.0003(4)
C63_9 C 0.09935(12) 0.7307(3) 0.0103(4)
H40_9 H 0.1020 0.6991 0.0118
C66_9 C 0.02763(12) 0.7287(4) 0.0219(4)
C67_9 C 0.11203(13) 0.6086(4) 0.3348(4)
H44_9 H 0.1150 0.5795 0.3230
C68_9 C 0.07113(12) 0.7360(4) 0.3191(4)
H45_9 H 0.0684 0.7344 0.3504
C69_9 C 0.10238(13) 0.6330(3) 0.1504(4)
C70_9 C 0.01779(12) 0.7320(3) 0.0638(4)
C71_9 C 0.01150(12) 0.7422(3) 0.2194(4)
H46_9 H 0.0070 0.7122 0.2225
C73_9 C 0.11494(13) 0.9286(3) 0.1305(4)
H48_9 H 0.1197 0.9129 0.1559
C74_9 C 0.12900(11) 0.5867(3) 0.4016(4)
C75_9 C 0.07802(14) 0.8574(4) 0.2179(4)
H49_9 H 0.0806 0.8530 0.2491
C77_9 C 0.11777(11) 0.6202(3) 0.3749(3)
C79_9 C 0.11311(11) 0.6056(3) 0.1795(3)
C80_9 C 0.00603(13) 0.8206(4) 0.2041(5)
C81_9 C 0.10146(13) 0.9714(3) 0.0565(4)
H53_9 H 0.0968 0.9867 0.0308
C84_9 C 0.04579(12) 0.7248(4) 0.1014(4)
H55_9 H 0.0522 0.7241 0.1292
C85_9 C 0.08801(13) 0.8865(4) 0.1938(4)
H56_9 H 0.0975 0.9026 0.2079
C86_9 C 0.04588(13) 0.7261(4) 0.0234(4)
C88_9 C 0.02560(13) 0.8284(4) 0.2063(4)
H58_9 H 0.0304 0.8575 0.1995
C90_9 C 0.09055(12) 0.9432(3) 0.0821(4)
H60_9 H 0.0786 0.9378 0.0729
C91_9 C 0.12529(12) 0.9558(3) 0.1046(4)
H61_9 H 0.1374 0.9593 0.1130
C92_11 C 0.02972(12) 0.7500(4) 0.2226(4)
H62_9 H 0.0376 0.7253 0.2278
N8_9 N 0.07407(9) 0.7169(3) 0.0602(4)
N9_9 N 0.05481(10) 0.8007(3) 0.2229(4)
O2_5 O 0.14506(7) 0.4763(2) 0.2550(3)
O3_5 O 0.15185(9) 0.5370(2) 0.2978(3)
O9_5 O 0.13272(8) 0.5486(2) 0.3865(3)
O10_5 O 0.13400(7) 0.5993(2) 0.4408(3)
Cu5_4 Cu 0.163055(12) 0.44067(3) 0.2840(2)
Cu8_2 Cu 0.145541(12) 0.56361(3) 0.4861(2)
Cu10_4 Cu 0.156998(12) 0.52168(3) 0.36606(19)
C8_9 C 0.12836(10) 0.9083(3) 0.9314(3)
H12_9 H 0.1300 0.9395 0.9389
C9_9 C 0.13400(11) 0.8457(3) 0.8845(3)
H13_9 H 0.1402 0.8330 0.8594
C15_9 C 0.14463(11) 0.9215(3) 0.8625(3)
C26_9 C 0.12404(11) 0.8177(3) 0.9127(4)
H22_9 H 0.1228 0.7863 0.9056
C28_9 C 0.10529(13) 0.8068(4) 0.9799(4)
C46_9 C 0.13497(11) 0.8934(3) 0.8930(3)
C52_9 C 0.11593(11) 0.8352(3) 0.9511(4)
H38_9 H 0.0859 0.8521 0.9944
C64_9 C 0.10897(12) 0.7592(4) 0.9868(4)
H41_9 H 0.1194 0.7473 0.9728
H43_9 H 0.0215 0.7283 0.9937
H57_9 H 0.0525 0.7266 0.9960
C89_9 C 0.11921(12) 0.8813(3) 0.9611(3)
H59_9 H 0.1150 0.8938 0.9887
O5_3 O 0.14213(7) 0.9633(2) 0.8633(3)
O8_3 O 0.15529(7) 0.9023(2) 0.8335(3)
Cu4_2 Cu 0.163055(12) 0.94067(3) 0.7840(2)
C18_9 C 0.9133 0.0486 0.8110
C38_9 C 0.92013(13) 0.0094(3) 0.8362(4)
C65_9 C 0.8953 0.0556 0.8035
H42_9 H 0.8862 0.0365 0.8158
C72_9 C 0.9244 0.0831 0.7960
H47_9 H 0.9368 0.0767 0.7992
C76_9 C 0.8914 0.0953 0.7748
H50_9 H 0.8805 0.0947 0.7583
C78_9 C 0.9208 0.1260 0.7771
H51_9 H 0.9296 0.1479 0.7700
N5_9 N 0.90007(9) 0.0106(2) 0.9024(3)
H64_9 H 0.8953 0.0370 0.8954
N6_5 N 0.9018 0.1327 0.7696
Cu6_4 Cu 0.895541(12) 0.18639(3) 0.7361(2)
C2_9 C 0.9326(2) 0.6456(5) 0.1156(8)
H2_9 H 0.9388 0.6539 0.0888
C4_9 C 0.9223 0.5876 0.1693
H4_9 H 0.9223 0.5554 0.1607
H5_9 H 0.9115 0.6022 0.1579
H6_9 H 0.9227 0.5902 0.2023
C6_9 C 0.9530 0.6195 0.1745
H8_9 H 0.9495 0.6137 0.2059
H9_9 H 0.9568 0.6512 0.1713
H10_9 H 0.9628 0.5992 0.1660
C17_9 C 0.94951(11) 0.7859(4) 0.1862(4)
H16_9 H 0.9409 0.8052 0.1726
C19_9 C 0.96207(10) 0.7499(3) 0.0638(4)
C20_9 C 0.96984(10) 0.7249(3) 0.0982(3)
H17_9 H 0.9630 0.7131 0.1225
C25_9 C 0.97985(12) 0.7658(4) 0.2089(4)
C31_9 C 0.97134(11) 0.7664(3) 0.0290(4)
H24_9 H 0.9656 0.7831 0.0056
C32_9 C 0.96853(11) 0.7978(3) 0.1860(3)
H25_9 H 0.9730 0.8245 0.1718
C39_9 C 0.92454(11) 0.7313(4) 0.2030(3)
C40_9 C 0.99862(11) 0.7351(3) 0.0603(4)
H29_9 H 0.9007 0.9028 0.0134
C43_9 C 0.95545(13) 0.7212(4) 0.2321(5)
H30_9 H 0.9510 0.6974 0.2506
C44_9 C 0.94182(11) 0.7601(3) 0.0639(4)
C50_9 C 0.99998(11) 0.7779(4) 0.2118(4)
C62_9 C 0.97381(13) 0.7311(4) 0.2309(4)
H39_9 H 0.9819 0.7118 0.2465
H52_9 H 0.9980 0.8447 0.1975
C82_9 C 0.99042(11) 0.7579(3) 0.0279(4)
H54_9 H 0.9972 0.7691 0.0032
C83_9 C 0.94461(11) 0.7460(4) 0.2068(3)
C93_9 C 0.98785(11) 0.7179(3) 0.0958(4)
H63_9 H 0.9934 0.7007 0.1191
N2_9 N 0.93934(17) 0.6121(4) 0.1481(7)
O4_9 O 0.91481(7) 0.7546(2) 0.1770(3)
O6_9 O 0.92038(7) 0.7015(2) 0.2298(3)
O7_9 O 0.91666(11) 0.6635(3) 0.1277(3)
O11_9 O 0.93380(7) 0.7456(2) 0.0969(3)
O13_9 O 0.93629(7) 0.7828(2) 0.0344(3)
Cu1_5 Cu 0.913055(12) 0.80933(3) 0.0340(2)
Cu2_4 Cu 0.895541(12) 0.68639(3) 0.2361(2)
Cu3_5 Cu 0.906998(12) 0.72832(3) 0.11606(19)
N10_5 N 0.9018 0.6327 0.2696
O14_7 O 0.87575(8) 0.7232(2) 0.2571(3)
O15_5 O 0.89506(7) 0.7737(2) 0.0050(3)
O16_5 O 0.90185(9) 0.7130(2) 0.0478(3)
O17_7 O 0.89213(7) 0.7867(2) 0.1133(3)
O18_7 O 0.90529(7) 0.8477(2) 0.0835(3)
O19_5 O 0.88272(8) 0.7014(2) 0.1365(3)
O20_5 O 0.88400(7) 0.6507(2) 0.1908(3)
O21_7 O 0.89745(9) 0.7346(2) 0.3071(3)
C1_10 C 0.32028(13) 0.3771(3) 0.3783(4)
H1_10 H 0.3169 0.3703 0.3480
C2_10 C 0.1826(2) 0.6044(5) 0.3656(8)
H2_10 H 0.1888 0.5961 0.3388
C3_10 C 0.38477(12) 0.6576(3) 0.4859(3)
H3_10 H 0.3928 0.6452 0.5075
C4_10 C 0.1723 0.6624 0.4193
H4_10 H 0.1723 0.6946 0.4107
H5_10 H 0.1615 0.6478 0.4079
H6_10 H 0.1727 0.6598 0.4523
C5_10 C 0.31060(13) 0.4080(3) 0.4030(4)
H7_10 H 0.3012 0.4241 0.3886
C6_10 C 0.2030 0.6305 0.4245
H8_10 H 0.1995 0.6363 0.4559
H9_10 H 0.2068 0.5988 0.4213
H10_10 H 0.2128 0.6508 0.4160
C7_10 C 0.33008(13) 0.4560(4) 0.2797(4)
H11_10 H 0.3204 0.4430 0.2961
C8_10 C 0.37836(10) 0.3417(3) 0.1814(3)
H12_10 H 0.3800 0.3105 0.1889
C9_10 C 0.38400(11) 0.4043(3) 0.1345(3)
H13_10 H 0.3902 0.4170 0.1094
C10_10 C 0.33301(11) 0.5601(3) 0.3393(4)
C11_10 C 0.39422(12) 0.7334(4) 0.5150(4)
C12_10 C 0.37044(11) 0.7167(3) 0.4584(3)
H14_10 H 0.3676 0.7483 0.4595
C13_10 C 0.33364(12) 0.4988(4) 0.2852(4)
C14_10 C 0.30426(12) 0.5270(4) 0.3118(4)
C15_10 C 0.39463(11) 0.3285(3) 0.1125(3)
C16_10 C 0.32766(12) 0.5997(4) 0.3519(4)
H15_10 H 0.3167 0.6101 0.3399
C17_10 C 0.19951(11) 0.4641(4) 0.4362(4)
H16_10 H 0.1909 0.4448 0.4226
C18_10 C 0.1633 0.2014 0.0610
C19_10 C 0.21207(10) 0.5001(3) 0.3138(4)
C20_10 C 0.21984(10) 0.5251(3) 0.3482(3)
H17_10 H 0.2130 0.5369 0.3725
C21_10 C 0.36283(9) 0.5911(3) 0.6458(4)
H18_10 H 0.3664 0.5841 0.6758
C22_10 C 0.34895(13) 0.5443(3) 0.3602(4)
H19_10 H 0.3531 0.5143 0.3542
C23_10 C 0.37564(11) 0.6269(3) 0.4579(3)
H20_10 H 0.3781 0.5952 0.4587
C24_10 C 0.36103(12) 0.6917(3) 0.4298(4)
H21_10 H 0.3529 0.7058 0.4096
C25_10 C 0.22985(12) 0.4842(4) 0.4589(4)
C26_10 C 0.37404(11) 0.4323(3) 0.1627(4)
H22_10 H 0.3728 0.4637 0.1556
C27_10 C 0.38305(10) 0.7029(3) 0.4849(3)
C28_10 C 0.35529(13) 0.4432(4) 0.2299(4)
C29_10 C 0.35189(11) 0.5617(3) 0.6197(4)
H23_10 H 0.3483 0.5331 0.6316
C30_10 C 0.34662(11) 0.5744(4) 0.5776(3)
C31_10 C 0.22134(11) 0.4836(3) 0.2790(4)
H24_10 H 0.2156 0.4669 0.2556
C32_10 C 0.21853(11) 0.4522(3) 0.4360(3)
H25_10 H 0.2230 0.4255 0.4218
C33_10 C 0.33532(13) 0.5403(4) 0.5495(4)
C34_10 C 0.31401(14) 0.4167(4) 0.4481(4)
C35_10 C 0.35168(12) 0.6118(4) 0.5591(4)
H26_10 H 0.3485 0.6190 0.5288
C36_9 C 0.17839(10) 0.3999(3) 0.2026(3)
H27_9 H 0.1848 0.4278 0.2013
C37_10 C 0.33643(12) 0.6280(3) 0.3809(4)
H28_10 H 0.3312 0.6566 0.3879
C38_10 C 0.17013(13) 0.2406(3) 0.0862(4)
C39_10 C 0.17454(11) 0.5187(4) 0.4530(3)
C40_10 C 0.24862(11) 0.5149(3) 0.3103(4)
C41_9 C 0.15867(10) 0.3526(3) 0.2390(3)
H29_10 H 0.1507 0.3472 0.2634
C42_10 C 0.36975(11) 0.2726(3) 0.3190(3)
C43_10 C 0.20545(13) 0.5288(4) 0.4821(5)
H30_10 H 0.2010 0.5526 0.5006
C44_10 C 0.19182(11) 0.4899(3) 0.3139(4)
C45_10 C 0.34662(12) 0.3257(3) 0.3680(4)
C46_10 C 0.38497(11) 0.3566(3) 0.1430(3)
C47_10 C 0.31496(12) 0.4800(3) 0.4990(4)
C48_10 C 0.33824(13) 0.5319(4) 0.5049(4)
H31_10 H 0.3478 0.5474 0.4907
C49_9 C 0.17088(9) 0.3267(3) 0.1699(3)
C50_10 C 0.24998(11) 0.4721(4) 0.4618(4)
C51_9 C 0.16038(9) 0.3217(3) 0.2077(3)
H32_9 H 0.1540 0.2940 0.2112
C52_10 C 0.36593(11) 0.4148(3) 0.2011(4)
C53_10 C 0.28629(12) 0.4561(4) 0.4681(4)
C54_9 C 0.18014(11) 0.3664(3) 0.1675(3)
H33_9 H 0.1878 0.3721 0.1426
C55_10 C 0.35782(13) 0.5708(4) 0.3876(4)
H34_10 H 0.3686 0.5593 0.4002
C56_9 C 0.17234(10) 0.2982(3) 0.1329(4)
C57_10 C 0.33434(12) 0.3567(3) 0.3966(4)
C58_9 C 0.31195(13) 0.4869(4) 0.5408(5)
H35_9 H 0.3021 0.4711 0.5534
C59_10 C 0.32906(15) 0.5050(4) 0.4810(4)
H36_10 H 0.3319 0.5017 0.4499
C60_10 C 0.27661(11) 0.5220(4) 0.3508(4)
H37_10 H 0.2703 0.5230 0.3786
C61_10 C 0.33991(13) 0.4279(3) 0.2503(4)
H38_10 H 0.3359 0.3979 0.2444
C62_10 C 0.22381(13) 0.5189(4) 0.4809(4)
H39_10 H 0.2319 0.5382 0.4965
C63_10 C 0.34935(12) 0.5193(3) 0.2603(4)
H40_10 H 0.3520 0.5509 0.2618
C64_10 C 0.35897(12) 0.4908(4) 0.2368(4)
H41_10 H 0.3694 0.5027 0.2228
C65_10 C 0.1453 0.1944 0.0535
H42_10 H 0.1362 0.2135 0.0658
C66_10 C 0.27763(12) 0.5213(4) 0.2719(4)
H43_10 H 0.2715 0.5217 0.2437
C67_10 C 0.36203(13) 0.6414(4) 0.5848(4)
H44_10 H 0.3650 0.6705 0.5730
C68_10 C 0.32113(12) 0.5140(4) 0.5691(4)
H45_10 H 0.3184 0.5156 0.6004
C69_10 C 0.35238(13) 0.6170(3) 0.4004(4)
C70_10 C 0.26779(12) 0.5180(3) 0.3138(4)
C71_10 C 0.26150(12) 0.5078(3) 0.4694(4)
H46_10 H 0.2570 0.5378 0.4725
C72_10 C 0.1744 0.1669 0.0460
H47_10 H 0.1868 0.1733 0.0492
C73_10 C 0.36494(13) 0.3214(3) 0.3805(4)
H48_10 H 0.3697 0.3371 0.4059
C74_10 C 0.37900(11) 0.6633(3) 0.6516(4)
C75_10 C 0.32802(14) 0.3926(4) 0.4679(4)
H49_10 H 0.3306 0.3970 0.4991
C76_10 C 0.1414 0.1547 0.0248
H50_10 H 0.1305 0.1553 0.0083
C77_10 C 0.36777(11) 0.6298(3) 0.6249(3)
C78_10 C 0.1708 0.1240 0.0271
H51_10 H 0.1796 0.1021 0.0200
C79_10 C 0.36311(11) 0.6444(3) 0.4295(3)
C80_10 C 0.25603(13) 0.4294(4) 0.4541(5)
H52_10 H 0.2480 0.4053 0.4475
C81_10 C 0.35146(13) 0.2786(3) 0.3065(4)
H53_10 H 0.3468 0.2633 0.2808
C82_10 C 0.24042(11) 0.4921(3) 0.2779(4)
H54_10 H 0.2472 0.4809 0.2532
C83_10 C 0.19461(11) 0.5040(4) 0.4568(3)
C84_10 C 0.29579(12) 0.5252(4) 0.3514(4)
H55_10 H 0.3022 0.5259 0.3792
C85_10 C 0.33801(13) 0.3635(4) 0.4438(4)
H56_10 H 0.3475 0.3474 0.4579
C86_10 C 0.29588(13) 0.5239(4) 0.2734(4)
H57_10 H 0.3025 0.5234 0.2460
C87_10 C 0.37963(15) 0.2426(4) 0.2908(4)
C88_10 C 0.27560(13) 0.4216(4) 0.4563(4)
H58_10 H 0.2804 0.3925 0.4495
C89_10 C 0.36921(12) 0.3687(3) 0.2111(3)
H59_10 H 0.3650 0.3562 0.2387
C90_10 C 0.34055(12) 0.3068(3) 0.3321(4)
H60_10 H 0.3286 0.3122 0.3229
C91_10 C 0.37529(12) 0.2942(3) 0.3546(4)
H61_10 H 0.3874 0.2907 0.3630
C92_12 C 0.27972(12) 0.5000(4) 0.4726(4)
H62_10 H 0.2876 0.5247 0.4778
C93_10 C 0.23785(11) 0.5321(3) 0.3458(4)
H63_10 H 0.2434 0.5493 0.3691
N1_9 N 0.16292(8) 0.2577(2) 0.1254(3)
N2_10 N 0.18934(17) 0.6379(4) 0.3981(7)
N3_9 N 0.16744(8) 0.3905(2) 0.2377(3)
N4_9 N 0.18306(10) 0.3023(3) 0.0975(3)
N5_10 N 0.15007(9) 0.2394(2) 0.1524(3)
H64_10 H 0.1453 0.2130 0.1454
H65_9 H 0.1466 0.2540 0.1768
N6_6 N 0.1518 0.1173 0.0196
N7_9 N 0.18198(11) 0.2687(3) 0.0684(4)
N8_10 N 0.32407(9) 0.5331(3) 0.3102(4)
N9_10 N 0.30481(10) 0.4493(3) 0.4729(4)
O1_4 O 0.37575(8) 0.2232(2) 0.2571(3)
O2_6 O 0.39506(7) 0.7737(2) 0.5050(3)
O3_6 O 0.40185(9) 0.7130(2) 0.5478(3)
O4_10 O 0.16481(7) 0.4954(2) 0.4270(3)
O5_4 O 0.39213(7) 0.2867(2) 0.1133(3)
O6_10 O 0.17038(7) 0.5485(2) 0.4798(3)
O7_10 O 0.16666(11) 0.5865(3) 0.3777(3)
O8_4 O 0.40529(7) 0.3477(2) 0.0835(3)
O9_6 O 0.38272(8) 0.7014(2) 0.6365(3)
O10_6 O 0.38400(7) 0.6507(2) 0.6908(3)
O11_10 O 0.18380(7) 0.5044(2) 0.3469(3)
O12_4 O 0.39745(9) 0.2346(2) 0.3071(3)
O13_10 O 0.18629(7) 0.4672(2) 0.2844(3)
N10_6 N 0.1518 0.6173 0.5196
O14_8 O 0.12575(8) 0.5268(2) 0.5071(3)
O17_8 O 0.14213(7) 0.4633(2) 0.3633(3)
O18_8 O 0.15529(7) 0.4023(2) 0.3335(3)
O21_8 O 0.14745(9) 0.5154(2) 0.5571(3)
Cu4_3 Cu 0.413055(12) 0.30933(3) 0.0340(2)
Cu5_5 Cu 0.413055(12) 0.80933(3) 0.5340(2)
Cu7_3 Cu 0.395541(12) 0.18639(3) 0.2361(2)
Cu8_3 Cu 0.395541(12) 0.68639(3) 0.7361(2)
Cu9_3 Cu 0.406998(12) 0.22832(3) 0.11606(19)
Cu10_5 Cu 0.406998(12) 0.72832(3) 0.61606(19)
C1_11 C 0.07028(13) 0.3729(3) 0.6283(4)
H1_11 H 0.0669 0.3797 0.5980
C3_11 C 0.13477(12) 0.0924(3) 0.7359(3)
H3_11 H 0.1428 0.1048 0.7575
C5_11 C 0.06060(13) 0.3420(3) 0.6530(4)
H7_11 H 0.0512 0.3259 0.6386
C7_11 C 0.08008(13) 0.2940(4) 0.5297(4)
H11_11 H 0.0704 0.3070 0.5461
C8_11 C 0.12836(10) 0.4083(3) 0.4314(3)
H12_11 H 0.1300 0.4395 0.4389
C9_11 C 0.13400(11) 0.3457(3) 0.3845(3)
H13_11 H 0.1402 0.3330 0.3594
C10_11 C 0.08301(11) 0.1899(3) 0.5893(4)
C11_11 C 0.14422(12) 0.0166(4) 0.7650(4)
C12_11 C 0.12044(11) 0.0333(3) 0.7084(3)
H14_11 H 0.1176 0.0017 0.7095
C13_11 C 0.08364(12) 0.2512(4) 0.5352(4)
C14_11 C 0.05426(12) 0.2230(4) 0.5618(4)
C15_11 C 0.14463(11) 0.4215(3) 0.3625(3)
C16_11 C 0.07766(12) 0.1503(4) 0.6019(4)
H15_11 H 0.0667 0.1399 0.5899
C21_11 C 0.11283(9) 0.1589(3) 0.8958(4)
H18_11 H 0.1164 0.1659 0.9258
C22_11 C 0.09895(13) 0.2057(3) 0.6102(4)
H19_11 H 0.1031 0.2357 0.6042
C23_11 C 0.12564(11) 0.1231(3) 0.7079(3)
H20_11 H 0.1281 0.1548 0.7087
C24_11 C 0.11103(12) 0.0583(3) 0.6798(4)
H21_11 H 0.1029 0.0442 0.6596
C26_11 C 0.12404(11) 0.3177(3) 0.4127(4)
H22_11 H 0.1228 0.2863 0.4056
C27_11 C 0.13305(10) 0.0471(3) 0.7349(3)
C28_11 C 0.10529(13) 0.3068(4) 0.4799(4)
C29_11 C 0.10189(11) 0.1883(3) 0.8697(4)
H23_11 H 0.0983 0.2169 0.8816
C30_11 C 0.09662(11) 0.1756(4) 0.8276(3)
C33_11 C 0.08532(13) 0.2097(4) 0.7995(4)
C34_11 C 0.06401(14) 0.3333(4) 0.6981(4)
C35_11 C 0.10168(12) 0.1382(4) 0.8091(4)
H26_11 H 0.0985 0.1310 0.7788
C37_11 C 0.08643(12) 0.1220(3) 0.6309(4)
H28_11 H 0.0812 0.0934 0.6379
C42_11 C 0.11975(11) 0.4774(3) 0.5690(3)
C45_11 C 0.09662(12) 0.4243(3) 0.6180(4)
C46_11 C 0.13497(11) 0.3934(3) 0.3930(3)
C47_11 C 0.06496(12) 0.2700(3) 0.7490(4)
C48_11 C 0.08824(13) 0.2181(4) 0.7549(4)
H31_11 H 0.0978 0.2026 0.7407
C52_11 C 0.11593(11) 0.3352(3) 0.4511(4)
C53_11 C 0.03629(12) 0.2939(4) 0.7181(4)
C55_11 C 0.10782(13) 0.1792(4) 0.6376(4)
H34_11 H 0.1186 0.1907 0.6502
C57_11 C 0.08434(12) 0.3933(3) 0.6466(4)
C58_10 C 0.06195(13) 0.2631(4) 0.7908(5)
H35_10 H 0.0521 0.2789 0.8034
C59_11 C 0.07906(15) 0.2450(4) 0.7310(4)
H36_11 H 0.0819 0.2483 0.6999
C60_11 C 0.02661(11) 0.2280(4) 0.6008(4)
H37_11 H 0.0203 0.2270 0.6286
C61_11 C 0.08991(13) 0.3221(3) 0.5003(4)
H38_11 H 0.0859 0.3521 0.4944
C63_11 C 0.09935(12) 0.2307(3) 0.5103(4)
H40_11 H 0.1020 0.1991 0.5118
C64_11 C 0.10897(12) 0.2592(4) 0.4868(4)
H41_11 H 0.1194 0.2473 0.4728
C66_11 C 0.02763(12) 0.2287(4) 0.5219(4)
H43_11 H 0.0215 0.2283 0.4937
C67_11 C 0.11203(13) 0.1086(4) 0.8348(4)
H44_11 H 0.1150 0.0795 0.8230
C68_11 C 0.07113(12) 0.2360(4) 0.8191(4)
H45_11 H 0.0684 0.2344 0.8504
C69_11 C 0.10238(13) 0.1330(3) 0.6504(4)
C70_11 C 0.01779(12) 0.2320(3) 0.5638(4)
C71_11 C 0.01150(12) 0.2422(3) 0.7194(4)
H46_11 H 0.0070 0.2122 0.7225
C73_11 C 0.11494(13) 0.4286(3) 0.6305(4)
H48_11 H 0.1197 0.4129 0.6559
C74_11 C 0.12900(11) 0.0867(3) 0.9016(4)
C75_11 C 0.07802(14) 0.3574(4) 0.7179(4)
H49_11 H 0.0806 0.3530 0.7491
C77_11 C 0.11777(11) 0.1202(3) 0.8749(3)
C79_11 C 0.11311(11) 0.1056(3) 0.6795(3)
C80_11 C 0.00603(13) 0.3206(4) 0.7041(5)
C81_11 C 0.10146(13) 0.4714(3) 0.5565(4)
H53_11 H 0.0968 0.4867 0.5308
C84_11 C 0.04579(12) 0.2248(4) 0.6014(4)
H55_11 H 0.0522 0.2241 0.6292
C85_11 C 0.08801(13) 0.3865(4) 0.6938(4)
H56_11 H 0.0975 0.4026 0.7079
C86_11 C 0.04588(13) 0.2261(4) 0.5234(4)
H57_11 H 0.0525 0.2266 0.4960
C87_11 C 0.12963(15) 0.5074(4) 0.5408(4)
C88_11 C 0.02560(13) 0.3284(4) 0.7063(4)
H58_11 H 0.0304 0.3575 0.6995
C89_11 C 0.11921(12) 0.3813(3) 0.4611(3)
H59_11 H 0.1150 0.3938 0.4887
C90_11 C 0.09055(12) 0.4432(3) 0.5821(4)
H60_11 H 0.0786 0.4378 0.5729
C91_11 C 0.12529(12) 0.4558(3) 0.6046(4)
H61_11 H 0.1374 0.4593 0.6130
C92_13 C 0.02972(12) 0.2500(4) 0.7226(4)
H62_11 H 0.0376 0.2253 0.7278
N8_11 N 0.07407(9) 0.2169(3) 0.5602(4)
N9_11 N 0.05481(10) 0.3007(3) 0.7229(4)
O3_7 O 0.15185(9) 0.0370(2) 0.7978(3)
O9_7 O 0.13272(8) 0.0486(2) 0.8865(3)
O10_7 O 0.13400(7) 0.0993(2) 0.9408(3)
O2_7 O 0.14506(7) 0.9763(2) 0.7550(3)
C2_11 C 0.9326(2) 0.1456(5) 0.6156(8)
H2_11 H 0.9388 0.1539 0.5888
C4_11 C 0.9223 0.0876 0.6693
H4_11 H 0.9223 0.0554 0.6607
H5_11 H 0.9115 0.1022 0.6579
H6_11 H 0.9227 0.0902 0.7023
C6_11 C 0.9530 0.1195 0.6745
H8_11 H 0.9495 0.1137 0.7059
H9_11 H 0.9568 0.1512 0.6713
H10_11 H 0.9628 0.0992 0.6660
C17_11 C 0.94951(11) 0.2859(4) 0.6862(4)
H16_11 H 0.9409 0.3052 0.6726
C18_11 C 0.9133 0.5486 0.3110
C19_11 C 0.96207(10) 0.2499(3) 0.5638(4)
C20_11 C 0.96984(10) 0.2249(3) 0.5982(3)
H17_11 H 0.9630 0.2131 0.6225
C25_11 C 0.97985(12) 0.2658(4) 0.7089(4)
C31_11 C 0.97134(11) 0.2664(3) 0.5290(4)
H24_11 H 0.9656 0.2831 0.5056
C32_11 C 0.96853(11) 0.2978(3) 0.6860(3)
H25_11 H 0.9730 0.3245 0.6718
C36_10 C 0.92839(10) 0.3501(3) 0.4526(3)
H27_10 H 0.9348 0.3222 0.4513
C38_11 C 0.92013(13) 0.5094(3) 0.3362(4)
C39_11 C 0.92454(11) 0.2313(4) 0.7030(3)
C40_11 C 0.99862(11) 0.2351(3) 0.5603(4)
C41_10 C 0.90867(10) 0.3974(3) 0.4890(3)
H29_11 H 0.9007 0.4028 0.5134
C43_11 C 0.95545(13) 0.2212(4) 0.7321(5)
H30_11 H 0.9510 0.1974 0.7506
C44_11 C 0.94182(11) 0.2601(3) 0.5639(4)
C49_10 C 0.92088(9) 0.4233(3) 0.4199(3)
C50_11 C 0.99998(11) 0.2779(4) 0.7118(4)
C51_10 C 0.91038(9) 0.4283(3) 0.4577(3)
H32_10 H 0.9040 0.4560 0.4612
C54_10 C 0.93014(11) 0.3836(3) 0.4175(3)
H33_10 H 0.9378 0.3779 0.3926
C56_10 C 0.92234(10) 0.4518(3) 0.3829(4)
C62_11 C 0.97381(13) 0.2311(4) 0.7309(4)
H39_11 H 0.9819 0.2118 0.7465
C65_11 C 0.8953 0.5556 0.3035
H42_11 H 0.8862 0.5365 0.3158
C72_11 C 0.9244 0.5831 0.2960
H47_11 H 0.9368 0.5767 0.2992
C76_11 C 0.8914 0.5953 0.2748
H50_11 H 0.8805 0.5947 0.2583
C78_11 C 0.9208 0.6260 0.2771
H51_11 H 0.9296 0.6479 0.2700
H52_11 H 0.9980 0.3447 0.6975
C82_11 C 0.99042(11) 0.2579(3) 0.5279(4)
H54_11 H 0.9972 0.2691 0.5032
C83_11 C 0.94461(11) 0.2460(4) 0.7068(3)
C93_11 C 0.98785(11) 0.2179(3) 0.5958(4)
H63_11 H 0.9934 0.2007 0.6191
N1_10 N 0.91292(8) 0.4923(2) 0.3754(3)
N2_11 N 0.93934(17) 0.1121(4) 0.6481(7)
N3_10 N 0.91744(8) 0.3595(2) 0.4877(3)
N4_10 N 0.93306(10) 0.4477(3) 0.3475(3)
N5_11 N 0.90007(9) 0.5106(2) 0.4024(3)
H64_11 H 0.8953 0.5370 0.3954
H65_10 H 0.8966 0.4960 0.4268
N7_10 N 0.93198(11) 0.4813(3) 0.3184(4)
O4_11 O 0.91481(7) 0.2546(2) 0.6770(3)
O6_11 O 0.92038(7) 0.2015(2) 0.7298(3)
O7_11 O 0.91666(11) 0.1635(3) 0.6277(3)
O11_11 O 0.93380(7) 0.2456(2) 0.5969(3)
O13_11 O 0.93629(7) 0.2828(2) 0.5344(3)
Cu1_6 Cu 0.913055(12) 0.30933(3) 0.5340(2)
Cu3_6 Cu 0.906998(12) 0.22832(3) 0.61606(19)
O14_9 O 0.87575(8) 0.2232(2) 0.7571(3)
O15_6 O 0.89506(7) 0.2737(2) 0.5050(3)
O16_6 O 0.90185(9) 0.2130(2) 0.5478(3)
O17_9 O 0.89213(7) 0.2867(2) 0.6133(3)
O18_9 O 0.90529(7) 0.3477(2) 0.5835(3)
O19_6 O 0.88272(8) 0.2014(2) 0.6365(3)
O20_6 O 0.88400(7) 0.1507(2) 0.6908(3)
O21_9 O 0.89745(9) 0.2346(2) 0.8071(3)
H3_12 H 0.3928 0.1452 0.0075
C11_12 C 0.39422(12) 0.2334(4) 0.0150(4)
C21_12 C 0.36283(9) 0.0911(3) 0.1458(4)
H18_12 H 0.3664 0.0841 0.1758
C29_12 C 0.35189(11) 0.0617(3) 0.1197(4)
H23_12 H 0.3483 0.0331 0.1316
C30_12 C 0.34662(11) 0.0744(4) 0.0776(3)
C33_12 C 0.33532(13) 0.0403(4) 0.0495(4)
C35_12 C 0.35168(12) 0.1118(4) 0.0591(4)
H26_12 H 0.3485 0.1190 0.0288
H30_12 H 0.2010 0.0526 0.0006
C48_12 C 0.33824(13) 0.0319(4) 0.0049(4)
C67_12 C 0.36203(13) 0.1414(4) 0.0848(4)
H44_12 H 0.3650 0.1705 0.0730
C68_12 C 0.32113(12) 0.0140(4) 0.0691(4)
H45_12 H 0.3184 0.0156 0.1004
C74_12 C 0.37900(11) 0.1633(3) 0.1516(4)
C77_12 C 0.36777(11) 0.1298(3) 0.1249(3)
O2_8 O 0.39506(7) 0.2737(2) 0.0050(3)
O3_8 O 0.40185(9) 0.2130(2) 0.0478(3)
O9_8 O 0.38272(8) 0.2014(2) 0.1365(3)
O10_8 O 0.38400(7) 0.1507(2) 0.1908(3)
C2_12 C 0.1826(2) 0.1044(5) 0.8656(8)
H2_12 H 0.1888 0.0961 0.8388
C3_12 C 0.38477(12) 0.1576(3) 0.9859(3)
C4_12 C 0.1723 0.1624 0.9193
H4_12 H 0.1723 0.1946 0.9107
H5_12 H 0.1615 0.1478 0.9079
H6_12 H 0.1727 0.1598 0.9523
C6_12 C 0.2030 0.1305 0.9245
H8_12 H 0.1995 0.1363 0.9559
H9_12 H 0.2068 0.0988 0.9213
H10_12 H 0.2128 0.1508 0.9160
C10_12 C 0.33301(11) 0.0601(3) 0.8393(4)
C12_12 C 0.37044(11) 0.2167(3) 0.9584(3)
H14_12 H 0.3676 0.2483 0.9595
C14_12 C 0.30426(12) 0.0270(4) 0.8118(4)
C16_12 C 0.32766(12) 0.0997(4) 0.8519(4)
H15_12 H 0.3167 0.1101 0.8399
C19_12 C 0.21207(10) 0.0001(3) 0.8138(4)
C20_12 C 0.21984(10) 0.0251(3) 0.8482(3)
H17_12 H 0.2130 0.0369 0.8725
C22_12 C 0.34895(13) 0.0443(3) 0.8602(4)
H19_12 H 0.3531 0.0143 0.8542
C23_12 C 0.37564(11) 0.1269(3) 0.9579(3)
H20_12 H 0.3781 0.0952 0.9587
C24_12 C 0.36103(12) 0.1917(3) 0.9298(4)
H21_12 H 0.3529 0.2058 0.9096
C27_12 C 0.38305(10) 0.2029(3) 0.9849(3)
C37_12 C 0.33643(12) 0.1280(3) 0.8809(4)
H28_12 H 0.3312 0.1566 0.8879
C39_12 C 0.17454(11) 0.0187(4) 0.9530(3)
C40_12 C 0.24862(11) 0.0149(3) 0.8103(4)
C43_12 C 0.20545(13) 0.0288(4) 0.9821(5)
H31_12 H 0.3478 0.0474 0.9907
C55_12 C 0.35782(13) 0.0708(4) 0.8876(4)
H34_12 H 0.3686 0.0593 0.9002
C59_12 C 0.32906(15) 0.0050(4) 0.9810(4)
H36_12 H 0.3319 0.0017 0.9499
C60_12 C 0.27661(11) 0.0220(4) 0.8508(4)
H37_12 H 0.2703 0.0230 0.8786
C62_12 C 0.22381(13) 0.0189(4) 0.9809(4)
H39_12 H 0.2319 0.0382 0.9965
C63_12 C 0.34935(12) 0.0193(3) 0.7603(4)
H40_12 H 0.3520 0.0509 0.7618
H41_12 H 0.3694 0.0027 0.7228
C66_12 C 0.27763(12) 0.0213(4) 0.7719(4)
H43_12 H 0.2715 0.0217 0.7437
C69_12 C 0.35238(13) 0.1170(3) 0.9004(4)
C70_12 C 0.26779(12) 0.0180(3) 0.8138(4)
C71_12 C 0.26150(12) 0.0078(3) 0.9694(4)
H46_12 H 0.2570 0.0378 0.9725
C79_12 C 0.36311(11) 0.1444(3) 0.9295(3)
C83_12 C 0.19461(11) 0.0040(4) 0.9568(3)
C84_12 C 0.29579(12) 0.0252(4) 0.8514(4)
H55_12 H 0.3022 0.0259 0.8792
C86_12 C 0.29588(13) 0.0239(4) 0.7734(4)
H57_12 H 0.3025 0.0234 0.7460
C92_14 C 0.27972(12) -0.0000(4) 0.9726(4)
H62_12 H 0.2876 0.0247 0.9778
C93_12 C 0.23785(11) 0.0321(3) 0.8458(4)
H63_12 H 0.2434 0.0493 0.8691
N2_12 N 0.18934(17) 0.1379(4) 0.8981(7)
N8_12 N 0.32407(9) 0.0331(3) 0.8102(4)
O6_12 O 0.17038(7) 0.0485(2) 0.9798(3)
O7_12 O 0.16666(11) 0.0865(3) 0.8777(3)
O11_12 O 0.18380(7) 0.0044(2) 0.8469(3)
C1_12 C 0.32028(13) 0.8771(3) 0.8783(4)
H1_12 H 0.3169 0.8703 0.8480
C5_12 C 0.31060(13) 0.9080(3) 0.9030(4)
H7_12 H 0.3012 0.9241 0.8886
C7_12 C 0.33008(13) 0.9560(4) 0.7797(4)
H11_12 H 0.3204 0.9430 0.7961
C8_12 C 0.37836(10) 0.8417(3) 0.6814(3)
H12_12 H 0.3800 0.8105 0.6889
C9_12 C 0.38400(11) 0.9043(3) 0.6345(3)
H13_12 H 0.3902 0.9170 0.6094
C13_12 C 0.33364(12) 0.9988(4) 0.7852(4)
C15_12 C 0.39463(11) 0.8285(3) 0.6125(3)
C17_12 C 0.19951(11) 0.9641(4) 0.9362(4)
H16_12 H 0.1909 0.9448 0.9226
C18_12 C 0.1633 0.7014 0.5610
C25_12 C 0.22985(12) 0.9842(4) 0.9589(4)
C26_12 C 0.37404(11) 0.9323(3) 0.6627(4)
H22_12 H 0.3728 0.9637 0.6556
C28_12 C 0.35529(13) 0.9432(4) 0.7299(4)
C31_12 C 0.22134(11) 0.9836(3) 0.7790(4)
H24_12 H 0.2156 0.9669 0.7556
C32_12 C 0.21853(11) 0.9522(3) 0.9360(3)
H25_12 H 0.2230 0.9255 0.9218
C34_12 C 0.31401(14) 0.9167(4) 0.9481(4)
C36_11 C 0.17839(10) 0.8999(3) 0.7026(3)
H27_11 H 0.1848 0.9278 0.7013
C38_12 C 0.17013(13) 0.7406(3) 0.5862(4)
C41_11 C 0.15867(10) 0.8526(3) 0.7390(3)
H29_12 H 0.1507 0.8472 0.7634
C42_12 C 0.36975(11) 0.7726(3) 0.8190(3)
C44_12 C 0.19182(11) 0.9899(3) 0.8139(4)
C45_12 C 0.34662(12) 0.8257(3) 0.8680(4)
C46_12 C 0.38497(11) 0.8566(3) 0.6430(3)
C47_12 C 0.31496(12) 0.9800(3) 0.9990(4)
C49_11 C 0.17088(9) 0.8267(3) 0.6699(3)
C50_12 C 0.24998(11) 0.9721(4) 0.9618(4)
C51_11 C 0.16038(9) 0.8217(3) 0.7077(3)
H32_11 H 0.1540 0.7940 0.7112
C52_12 C 0.36593(11) 0.9148(3) 0.7011(4)
C53_12 C 0.28629(12) 0.9561(4) 0.9681(4)
C54_11 C 0.18014(11) 0.8664(3) 0.6675(3)
H33_11 H 0.1878 0.8721 0.6426
C56_11 C 0.17234(10) 0.7982(3) 0.6329(4)
C57_12 C 0.33434(12) 0.8567(3) 0.8966(4)
C61_12 C 0.33991(13) 0.9279(3) 0.7503(4)
H38_12 H 0.3359 0.8979 0.7444
C64_12 C 0.35897(12) 0.9908(4) 0.7368(4)
C65_12 C 0.1453 0.6944 0.5535
H42_12 H 0.1362 0.7135 0.5658
C72_12 C 0.1744 0.6669 0.5460
H47_12 H 0.1868 0.6733 0.5492
C73_12 C 0.36494(13) 0.8214(3) 0.8805(4)
H48_12 H 0.3697 0.8371 0.9059
C75_12 C 0.32802(14) 0.8926(4) 0.9679(4)
H49_12 H 0.3306 0.8970 0.9991
C76_12 C 0.1414 0.6547 0.5248
H50_12 H 0.1305 0.6553 0.5083
C78_12 C 0.1708 0.6240 0.5271
H51_12 H 0.1796 0.6021 0.5200
C80_12 C 0.25603(13) 0.9294(4) 0.9541(5)
H52_12 H 0.2480 0.9053 0.9475
C81_12 C 0.35146(13) 0.7786(3) 0.8065(4)
H53_12 H 0.3468 0.7633 0.7808
C82_12 C 0.24042(11) 0.9921(3) 0.7779(4)
H54_12 H 0.2472 0.9809 0.7532
C85_12 C 0.33801(13) 0.8635(4) 0.9438(4)
H56_12 H 0.3475 0.8474 0.9579
C87_12 C 0.37963(15) 0.7426(4) 0.7908(4)
C88_12 C 0.27560(13) 0.9216(4) 0.9563(4)
H58_12 H 0.2804 0.8925 0.9495
C89_12 C 0.36921(12) 0.8687(3) 0.7111(3)
H59_12 H 0.3650 0.8562 0.7387
C90_12 C 0.34055(12) 0.8068(3) 0.8321(4)
H60_12 H 0.3286 0.8122 0.8229
C91_12 C 0.37529(12) 0.7942(3) 0.8546(4)
H61_12 H 0.3874 0.7907 0.8630
C92_15 C 0.27972(12) 1.0000(4) 0.9726(4)
N1_11 N 0.16292(8) 0.7577(2) 0.6254(3)
N3_11 N 0.16744(8) 0.8905(2) 0.7377(3)
N4_11 N 0.18306(10) 0.8023(3) 0.5975(3)
N5_12 N 0.15007(9) 0.7394(2) 0.6524(3)
H64_12 H 0.1453 0.7130 0.6454
H65_11 H 0.1466 0.7540 0.6768
N7_11 N 0.18198(11) 0.7687(3) 0.5684(4)
N9_12 N 0.30481(10) 0.9493(3) 0.9729(4)
O1_5 O 0.37575(8) 0.7232(2) 0.7571(3)
O4_12 O 0.16481(7) 0.9954(2) 0.9270(3)
O5_5 O 0.39213(7) 0.7867(2) 0.6133(3)
O8_5 O 0.40529(7) 0.8477(2) 0.5835(3)
O12_5 O 0.39745(9) 0.7346(2) 0.8071(3)
O13_12 O 0.18629(7) 0.9672(2) 0.7844(3)
C18_13 C 0.4133 0.0486 0.3110
C38_13 C 0.42013(13) 0.0094(3) 0.3362(4)
C65_13 C 0.3953 0.0556 0.3035
H42_13 H 0.3862 0.0365 0.3158
C72_13 C 0.4244 0.0831 0.2960
H47_13 H 0.4368 0.0767 0.2992
C76_13 C 0.3914 0.0953 0.2748
H50_13 H 0.3805 0.0947 0.2583
C78_13 C 0.4208 0.1260 0.2771
H51_13 H 0.4296 0.1479 0.2700
C87_13 C 0.62963(15) 0.0074(4) 0.5408(4)
N5_13 N 0.40007(9) 0.0106(2) 0.4024(3)
H64_13 H 0.3953 0.0370 0.3954
N6_7 N 0.4018 0.1327 0.2696
O1_6 O 0.62575(8) 0.0268(2) 0.5071(3)
O12_6 O 0.64745(9) 0.0154(2) 0.5571(3)
Cu7_4 Cu 0.645541(12) 0.06361(3) 0.4861(2)
Cu9_4 Cu 0.656998(12) 0.02168(3) 0.36606(19)
C1_13 C 0.57028(13) 0.8729(3) 0.6283(4)
H1_13 H 0.5669 0.8797 0.5980
C2_13 C 0.4326(2) 0.6456(5) 0.6156(8)
H2_13 H 0.4388 0.6539 0.5888
C3_13 C 0.63477(12) 0.5924(3) 0.7359(3)
H3_13 H 0.6428 0.6048 0.7575
C4_13 C 0.4223 0.5876 0.6693
H4_13 H 0.4223 0.5554 0.6607
H5_13 H 0.4115 0.6022 0.6579
H6_13 H 0.4227 0.5902 0.7023
C5_13 C 0.56060(13) 0.8420(3) 0.6530(4)
H7_13 H 0.5512 0.8259 0.6386
C6_13 C 0.4530 0.6195 0.6745
H8_13 H 0.4495 0.6137 0.7059
H9_13 H 0.4568 0.6512 0.6713
H10_13 H 0.4628 0.5992 0.6660
C7_13 C 0.58008(13) 0.7940(4) 0.5297(4)
H11_13 H 0.5704 0.8070 0.5461
C8_13 C 0.62836(10) 0.9083(3) 0.4314(3)
H12_13 H 0.6300 0.9395 0.4389
C9_13 C 0.63400(11) 0.8457(3) 0.3845(3)
H13_13 H 0.6402 0.8330 0.3594
C10_13 C 0.58301(11) 0.6899(3) 0.5893(4)
C11_13 C 0.64422(12) 0.5166(4) 0.7650(4)
C12_13 C 0.62044(11) 0.5333(3) 0.7084(3)
H14_13 H 0.6176 0.5017 0.7095
C13_13 C 0.58364(12) 0.7512(4) 0.5352(4)
C14_13 C 0.55426(12) 0.7230(4) 0.5618(4)
C15_13 C 0.64463(11) 0.9215(3) 0.3625(3)
C16_13 C 0.57766(12) 0.6503(4) 0.6019(4)
H15_13 H 0.5667 0.6399 0.5899
C17_13 C 0.44951(11) 0.7859(4) 0.6862(4)
H16_13 H 0.4409 0.8052 0.6726
C19_13 C 0.46207(10) 0.7499(3) 0.5638(4)
C20_13 C 0.46984(10) 0.7249(3) 0.5982(3)
H17_13 H 0.4630 0.7131 0.6225
C21_13 C 0.61283(9) 0.6589(3) 0.8958(4)
H18_13 H 0.6164 0.6659 0.9258
C22_13 C 0.59895(13) 0.7057(3) 0.6102(4)
H19_13 H 0.6031 0.7357 0.6042
C23_13 C 0.62564(11) 0.6231(3) 0.7079(3)
H20_13 H 0.6281 0.6548 0.7087
C24_13 C 0.61103(12) 0.5583(3) 0.6798(4)
H21_13 H 0.6029 0.5442 0.6596
C25_13 C 0.47985(12) 0.7658(4) 0.7089(4)
C26_13 C 0.62404(11) 0.8177(3) 0.4127(4)
H22_13 H 0.6228 0.7863 0.4056
C27_13 C 0.63305(10) 0.5471(3) 0.7349(3)
C28_13 C 0.60529(13) 0.8068(4) 0.4799(4)
C29_13 C 0.60189(11) 0.6883(3) 0.8697(4)
H23_13 H 0.5983 0.7169 0.8816
C30_13 C 0.59662(11) 0.6756(4) 0.8276(3)
C31_13 C 0.47134(11) 0.7664(3) 0.5290(4)
H24_13 H 0.4656 0.7831 0.5056
C32_13 C 0.46853(11) 0.7978(3) 0.6860(3)
H25_13 H 0.4730 0.8245 0.6718
C33_13 C 0.58532(13) 0.7097(4) 0.7995(4)
C34_13 C 0.56401(14) 0.8333(4) 0.6981(4)
C35_13 C 0.60168(12) 0.6382(4) 0.8091(4)
H26_13 H 0.5985 0.6310 0.7788
C36_12 C 0.42839(10) 0.8501(3) 0.4526(3)
H27_12 H 0.4348 0.8222 0.4513
C37_13 C 0.58643(12) 0.6220(3) 0.6309(4)
H28_13 H 0.5812 0.5934 0.6379
C39_13 C 0.42454(11) 0.7313(4) 0.7030(3)
C40_13 C 0.49862(11) 0.7351(3) 0.5603(4)
C41_12 C 0.40867(10) 0.8974(3) 0.4890(3)
H29_13 H 0.4007 0.9028 0.5134
C42_13 C 0.61975(11) 0.9774(3) 0.5690(3)
C43_13 C 0.45545(13) 0.7212(4) 0.7321(5)
H30_13 H 0.4510 0.6974 0.7506
C44_13 C 0.44182(11) 0.7601(3) 0.5639(4)
C45_13 C 0.59662(12) 0.9243(3) 0.6180(4)
C46_13 C 0.63497(11) 0.8934(3) 0.3930(3)
C47_13 C 0.56496(12) 0.7700(3) 0.7490(4)
C48_13 C 0.58824(13) 0.7181(4) 0.7549(4)
H31_13 H 0.5978 0.7026 0.7407
C49_12 C 0.42088(9) 0.9233(3) 0.4199(3)
C50_13 C 0.49998(11) 0.7779(4) 0.7118(4)
C51_12 C 0.41038(9) 0.9283(3) 0.4577(3)
H32_12 H 0.4040 0.9560 0.4612
C52_13 C 0.61593(11) 0.8352(3) 0.4511(4)
C53_13 C 0.53629(12) 0.7939(4) 0.7181(4)
C54_12 C 0.43014(11) 0.8836(3) 0.4175(3)
H33_12 H 0.4378 0.8779 0.3926
C55_13 C 0.60782(13) 0.6792(4) 0.6376(4)
H34_13 H 0.6186 0.6907 0.6502
C56_12 C 0.42234(10) 0.9518(3) 0.3829(4)
C57_13 C 0.58434(12) 0.8933(3) 0.6466(4)
C58_11 C 0.56195(13) 0.7631(4) 0.7908(5)
H35_11 H 0.5521 0.7789 0.8034
C59_13 C 0.57906(15) 0.7450(4) 0.7310(4)
H36_13 H 0.5819 0.7483 0.6999
C60_13 C 0.52661(11) 0.7280(4) 0.6008(4)
H37_13 H 0.5203 0.7270 0.6286
C61_13 C 0.58991(13) 0.8221(3) 0.5003(4)
H38_13 H 0.5859 0.8521 0.4944
C62_13 C 0.47381(13) 0.7311(4) 0.7309(4)
H39_13 H 0.4819 0.7118 0.7465
C63_13 C 0.59935(12) 0.7307(3) 0.5103(4)
H40_13 H 0.6020 0.6991 0.5118
C64_13 C 0.60897(12) 0.7592(4) 0.4868(4)
H41_13 H 0.6194 0.7473 0.4728
C66_13 C 0.52763(12) 0.7287(4) 0.5219(4)
H43_13 H 0.5215 0.7283 0.4937
C67_13 C 0.61203(13) 0.6086(4) 0.8348(4)
H44_13 H 0.6150 0.5795 0.8230
C68_13 C 0.57113(12) 0.7360(4) 0.8191(4)
H45_13 H 0.5684 0.7344 0.8504
C69_13 C 0.60238(13) 0.6330(3) 0.6504(4)
C70_13 C 0.51779(12) 0.7320(3) 0.5638(4)
C71_13 C 0.51150(12) 0.7422(3) 0.7194(4)
H46_13 H 0.5070 0.7122 0.7225
C73_13 C 0.61494(13) 0.9286(3) 0.6305(4)
H48_13 H 0.6197 0.9129 0.6559
C74_13 C 0.62900(11) 0.5867(3) 0.9016(4)
C75_13 C 0.57802(14) 0.8574(4) 0.7179(4)
H49_13 H 0.5806 0.8530 0.7491
C77_13 C 0.61777(11) 0.6202(3) 0.8749(3)
C79_13 C 0.61311(11) 0.6056(3) 0.6795(3)
C80_13 C 0.50603(13) 0.8206(4) 0.7041(5)
H52_13 H 0.4980 0.8447 0.6975
C81_13 C 0.60146(13) 0.9714(3) 0.5565(4)
H53_13 H 0.5968 0.9867 0.5308
C82_13 C 0.49042(11) 0.7579(3) 0.5279(4)
H54_13 H 0.4972 0.7691 0.5032
C83_13 C 0.44461(11) 0.7460(4) 0.7068(3)
C84_13 C 0.54579(12) 0.7248(4) 0.6014(4)
H55_13 H 0.5522 0.7241 0.6292
C85_13 C 0.58801(13) 0.8865(4) 0.6938(4)
H56_13 H 0.5975 0.9026 0.7079
C86_13 C 0.54588(13) 0.7261(4) 0.5234(4)
H57_13 H 0.5525 0.7266 0.4960
C88_13 C 0.52560(13) 0.8284(4) 0.7063(4)
H58_13 H 0.5304 0.8575 0.6995
C89_13 C 0.61921(12) 0.8813(3) 0.4611(3)
H59_13 H 0.6150 0.8938 0.4887
C90_13 C 0.59055(12) 0.9432(3) 0.5821(4)
H60_13 H 0.5786 0.9378 0.5729
C91_13 C 0.62529(12) 0.9558(3) 0.6046(4)
H61_13 H 0.6374 0.9593 0.6130
C92_16 C 0.52972(12) 0.7500(4) 0.7226(4)
H62_13 H 0.5376 0.7253 0.7278
C93_13 C 0.48785(11) 0.7179(3) 0.5958(4)
H63_13 H 0.4934 0.7007 0.6191
N1_12 N 0.41292(8) 0.9923(2) 0.3754(3)
N2_13 N 0.43934(17) 0.6121(4) 0.6481(7)
N3_12 N 0.41744(8) 0.8595(2) 0.4877(3)
N4_12 N 0.43306(10) 0.9477(3) 0.3475(3)
H65_12 H 0.3966 0.9960 0.4268
N7_12 N 0.43198(11) 0.9813(3) 0.3184(4)
N8_13 N 0.57407(9) 0.7169(3) 0.5602(4)
N9_13 N 0.55481(10) 0.8007(3) 0.7229(4)
O2_9 O 0.64506(7) 0.4763(2) 0.7550(3)
O3_9 O 0.65185(9) 0.5370(2) 0.7978(3)
O4_13 O 0.41481(7) 0.7546(2) 0.6770(3)
O5_6 O 0.64213(7) 0.9633(2) 0.3633(3)
O6_13 O 0.42038(7) 0.7015(2) 0.7298(3)
O7_13 O 0.41666(11) 0.6635(3) 0.6277(3)
O8_6 O 0.65529(7) 0.9023(2) 0.3335(3)
O9_9 O 0.63272(8) 0.5486(2) 0.8865(3)
O10_9 O 0.63400(7) 0.5993(2) 0.9408(3)
O11_13 O 0.43380(7) 0.7456(2) 0.5969(3)
O13_13 O 0.43629(7) 0.7828(2) 0.5344(3)
N10_7 N 0.4018 0.6327 0.7696
Cu4_4 Cu 0.663055(12) 0.94067(3) 0.2840(2)
Cu5_6 Cu 0.663055(12) 0.44067(3) 0.7840(2)
Cu8_4 Cu 0.645541(12) 0.56361(3) 0.9861(2)
Cu10_6 Cu 0.656998(12) 0.52168(3) 0.86606(19)
H3_14 H 0.8928 0.6452 0.0075
C11_14 C 0.89422(12) 0.7334(4) 0.0150(4)
C21_14 C 0.86283(9) 0.5911(3) 0.1458(4)
H18_14 H 0.8664 0.5841 0.1758
C29_14 C 0.85189(11) 0.5617(3) 0.1197(4)
H23_14 H 0.8483 0.5331 0.1316
C30_14 C 0.84662(11) 0.5744(4) 0.0776(3)
C33_14 C 0.83532(13) 0.5403(4) 0.0495(4)
C35_14 C 0.85168(12) 0.6118(4) 0.0591(4)
H26_14 H 0.8485 0.6190 0.0288
H30_14 H 0.7010 0.5526 0.0006
C48_14 C 0.83824(13) 0.5319(4) 0.0049(4)
C58_12 C 0.81195(13) 0.4869(4) 0.0408(5)
H35_12 H 0.8021 0.4711 0.0534
C67_14 C 0.86203(13) 0.6414(4) 0.0848(4)
H44_14 H 0.8650 0.6705 0.0730
C68_14 C 0.82113(12) 0.5140(4) 0.0691(4)
H45_14 H 0.8184 0.5156 0.1004
C74_14 C 0.87900(11) 0.6633(3) 0.1516(4)
C77_14 C 0.86777(11) 0.6298(3) 0.1249(3)
N10_8 N 0.6518 0.6173 0.0196
O14_10 O 0.62575(8) 0.5268(2) 0.0071(3)
O21_10 O 0.64745(9) 0.5154(2) 0.0571(3)
C1_14 C 0.82028(13) 0.3771(3) 0.8783(4)
H1_14 H 0.8169 0.3703 0.8480
C2_14 C 0.6826(2) 0.6044(5) 0.8656(8)
H2_14 H 0.6888 0.5961 0.8388
C3_14 C 0.88477(12) 0.6576(3) 0.9859(3)
C4_14 C 0.6723 0.6624 0.9193
H4_14 H 0.6723 0.6946 0.9107
H5_14 H 0.6615 0.6478 0.9079
H6_14 H 0.6727 0.6598 0.9523
C5_14 C 0.81060(13) 0.4080(3) 0.9030(4)
H7_14 H 0.8012 0.4241 0.8886
C6_14 C 0.7030 0.6305 0.9245
H8_14 H 0.6995 0.6363 0.9559
H9_14 H 0.7068 0.5988 0.9213
H10_14 H 0.7128 0.6508 0.9160
C7_14 C 0.83008(13) 0.4560(4) 0.7797(4)
H11_14 H 0.8204 0.4430 0.7961
C8_14 C 0.87836(10) 0.3417(3) 0.6814(3)
H12_14 H 0.8800 0.3105 0.6889
C9_14 C 0.88400(11) 0.4043(3) 0.6345(3)
H13_14 H 0.8902 0.4170 0.6094
C10_14 C 0.83301(11) 0.5601(3) 0.8393(4)
C12_14 C 0.87044(11) 0.7167(3) 0.9584(3)
H14_14 H 0.8676 0.7483 0.9595
C13_14 C 0.83364(12) 0.4988(4) 0.7852(4)
C14_14 C 0.80426(12) 0.5270(4) 0.8118(4)
C15_14 C 0.89463(11) 0.3285(3) 0.6125(3)
C16_14 C 0.82766(12) 0.5997(4) 0.8519(4)
H15_14 H 0.8167 0.6101 0.8399
C17_14 C 0.69951(11) 0.4641(4) 0.9362(4)
H16_14 H 0.6909 0.4448 0.9226
C18_14 C 0.6633 0.2014 0.5610
C19_14 C 0.71207(10) 0.5001(3) 0.8138(4)
C20_14 C 0.71984(10) 0.5251(3) 0.8482(3)
H17_14 H 0.7130 0.5369 0.8725
C22_14 C 0.84895(13) 0.5443(3) 0.8602(4)
H19_14 H 0.8531 0.5143 0.8542
C23_14 C 0.87564(11) 0.6269(3) 0.9579(3)
H20_14 H 0.8781 0.5952 0.9587
C24_14 C 0.86103(12) 0.6917(3) 0.9298(4)
H21_14 H 0.8529 0.7058 0.9096
C25_14 C 0.72985(12) 0.4842(4) 0.9589(4)
C26_14 C 0.87404(11) 0.4323(3) 0.6627(4)
H22_14 H 0.8728 0.4637 0.6556
C27_14 C 0.88305(10) 0.7029(3) 0.9849(3)
C28_14 C 0.85529(13) 0.4432(4) 0.7299(4)
C31_14 C 0.72134(11) 0.4836(3) 0.7790(4)
H24_14 H 0.7156 0.4669 0.7556
C32_14 C 0.71853(11) 0.4522(3) 0.9360(3)
H25_14 H 0.7230 0.4255 0.9218
C34_14 C 0.81401(14) 0.4167(4) 0.9481(4)
C36_13 C 0.67839(10) 0.3999(3) 0.7026(3)
H27_13 H 0.6848 0.4278 0.7013
C37_14 C 0.83643(12) 0.6280(3) 0.8809(4)
H28_14 H 0.8312 0.6566 0.8879
C38_14 C 0.67013(13) 0.2406(3) 0.5862(4)
C39_14 C 0.67454(11) 0.5187(4) 0.9530(3)
C40_14 C 0.74862(11) 0.5149(3) 0.8103(4)
C41_13 C 0.65867(10) 0.3526(3) 0.7390(3)
H29_14 H 0.6507 0.3472 0.7634
C42_14 C 0.86975(11) 0.2726(3) 0.8190(3)
C43_14 C 0.70545(13) 0.5288(4) 0.9821(5)
C44_14 C 0.69182(11) 0.4899(3) 0.8139(4)
C45_14 C 0.84662(12) 0.3257(3) 0.8680(4)
C46_14 C 0.88497(11) 0.3566(3) 0.6430(3)
C47_14 C 0.81496(12) 0.4800(3) 0.9990(4)
H31_14 H 0.8478 0.5474 0.9907
C49_13 C 0.67088(9) 0.3267(3) 0.6699(3)
C50_14 C 0.74998(11) 0.4721(4) 0.9618(4)
C51_13 C 0.66038(9) 0.3217(3) 0.7077(3)
H32_13 H 0.6540 0.2940 0.7112
C52_14 C 0.86593(11) 0.4148(3) 0.7011(4)
C53_14 C 0.78629(12) 0.4561(4) 0.9681(4)
C54_13 C 0.68014(11) 0.3664(3) 0.6675(3)
H33_13 H 0.6878 0.3721 0.6426
C55_14 C 0.85782(13) 0.5708(4) 0.8876(4)
H34_14 H 0.8686 0.5593 0.9002
C56_13 C 0.67234(10) 0.2982(3) 0.6329(4)
C57_14 C 0.83434(12) 0.3567(3) 0.8966(4)
C59_14 C 0.82906(15) 0.5050(4) 0.9810(4)
H36_14 H 0.8319 0.5017 0.9499
C60_14 C 0.77661(11) 0.5220(4) 0.8508(4)
H37_14 H 0.7703 0.5230 0.8786
C61_14 C 0.83991(13) 0.4279(3) 0.7503(4)
H38_14 H 0.8359 0.3979 0.7444
C62_14 C 0.72381(13) 0.5189(4) 0.9809(4)
H39_14 H 0.7319 0.5382 0.9965
C63_14 C 0.84935(12) 0.5193(3) 0.7603(4)
H40_14 H 0.8520 0.5509 0.7618
C64_14 C 0.85897(12) 0.4908(4) 0.7368(4)
H41_14 H 0.8694 0.5027 0.7228
C65_14 C 0.6453 0.1944 0.5535
H42_14 H 0.6362 0.2135 0.5658
C66_14 C 0.77763(12) 0.5213(4) 0.7719(4)
H43_14 H 0.7715 0.5217 0.7437
C69_14 C 0.85238(13) 0.6170(3) 0.9004(4)
C70_14 C 0.76779(12) 0.5180(3) 0.8138(4)
C71_14 C 0.76150(12) 0.5078(3) 0.9694(4)
H46_14 H 0.7570 0.5378 0.9725
C72_14 C 0.6744 0.1669 0.5460
H47_14 H 0.6868 0.1733 0.5492
C73_14 C 0.86494(13) 0.3214(3) 0.8805(4)
H48_14 H 0.8697 0.3371 0.9059
C75_14 C 0.82802(14) 0.3926(4) 0.9679(4)
H49_14 H 0.8306 0.3970 0.9991
C76_14 C 0.6414 0.1547 0.5248
H50_14 H 0.6305 0.1553 0.5083
C78_14 C 0.6708 0.1240 0.5271
H51_14 H 0.6796 0.1021 0.5200
C79_14 C 0.86311(11) 0.6444(3) 0.9295(3)
C80_14 C 0.75603(13) 0.4294(4) 0.9541(5)
H52_14 H 0.7480 0.4053 0.9475
C81_14 C 0.85146(13) 0.2786(3) 0.8065(4)
H53_14 H 0.8468 0.2633 0.7808
C82_14 C 0.74042(11) 0.4921(3) 0.7779(4)
H54_14 H 0.7472 0.4809 0.7532
C83_14 C 0.69461(11) 0.5040(4) 0.9568(3)
C84_14 C 0.79579(12) 0.5252(4) 0.8514(4)
H55_14 H 0.8022 0.5259 0.8792
C85_14 C 0.83801(13) 0.3635(4) 0.9438(4)
H56_14 H 0.8475 0.3474 0.9579
C86_14 C 0.79588(13) 0.5239(4) 0.7734(4)
H57_14 H 0.8025 0.5234 0.7460
C87_14 C 0.87963(15) 0.2426(4) 0.7908(4)
C88_14 C 0.77560(13) 0.4216(4) 0.9563(4)
H58_14 H 0.7804 0.3925 0.9495
C89_14 C 0.86921(12) 0.3687(3) 0.7111(3)
H59_14 H 0.8650 0.3562 0.7387
C90_14 C 0.84055(12) 0.3068(3) 0.8321(4)
H60_14 H 0.8286 0.3122 0.8229
C91_14 C 0.87529(12) 0.2942(3) 0.8546(4)
H61_14 H 0.8874 0.2907 0.8630
C92_17 C 0.77972(12) 0.5000(4) 0.9726(4)
H62_14 H 0.7876 0.5247 0.9778
C93_14 C 0.73785(11) 0.5321(3) 0.8458(4)
H63_14 H 0.7434 0.5493 0.8691
N1_13 N 0.66292(8) 0.2577(2) 0.6254(3)
N2_14 N 0.68934(17) 0.6379(4) 0.8981(7)
N3_13 N 0.66744(8) 0.3905(2) 0.7377(3)
N4_13 N 0.68306(10) 0.3023(3) 0.5975(3)
N5_14 N 0.65007(9) 0.2394(2) 0.6524(3)
H64_14 H 0.6453 0.2130 0.6454
H65_13 H 0.6466 0.2540 0.6768
N6_8 N 0.6518 0.1173 0.5196
N7_13 N 0.68198(11) 0.2687(3) 0.5684(4)
N8_14 N 0.82407(9) 0.5331(3) 0.8102(4)
N9_14 N 0.80481(10) 0.4493(3) 0.9729(4)
O4_14 O 0.66481(7) 0.4954(2) 0.9270(3)
O6_14 O 0.67038(7) 0.5485(2) 0.9798(3)
O7_14 O 0.66666(11) 0.5865(3) 0.8777(3)
O11_14 O 0.68380(7) 0.5044(2) 0.8469(3)
O13_14 O 0.68629(7) 0.4672(2) 0.7844(3)
O17_10 O 0.64213(7) 0.4633(2) 0.8633(3)
O18_10 O 0.65529(7) 0.4023(2) 0.8335(3)
C1_15 C 0.57028(13) 0.3729(3) 0.1283(4)
H1_15 H 0.5669 0.3797 0.0980
C2_15 C 0.4326(2) 0.1456(5) 0.1156(8)
H2_15 H 0.4388 0.1539 0.0888
C3_15 C 0.63477(12) 0.0924(3) 0.2359(3)
H3_15 H 0.6428 0.1048 0.2575
C4_15 C 0.4223 0.0876 0.1693
H4_15 H 0.4223 0.0554 0.1607
H5_15 H 0.4115 0.1022 0.1579
H6_15 H 0.4227 0.0902 0.2023
C5_15 C 0.56060(13) 0.3420(3) 0.1530(4)
H7_15 H 0.5512 0.3259 0.1386
C6_15 C 0.4530 0.1195 0.1745
H8_15 H 0.4495 0.1137 0.2059
H9_15 H 0.4568 0.1512 0.1713
H10_15 H 0.4628 0.0992 0.1660
C7_15 C 0.58008(13) 0.2940(4) 0.0297(4)
H11_15 H 0.5704 0.3070 0.0461
C10_15 C 0.58301(11) 0.1899(3) 0.0893(4)
C11_15 C 0.64422(12) 0.0166(4) 0.2650(4)
C12_15 C 0.62044(11) 0.0333(3) 0.2084(3)
H14_15 H 0.6176 0.0017 0.2095
C13_15 C 0.58364(12) 0.2512(4) 0.0352(4)
C14_15 C 0.55426(12) 0.2230(4) 0.0618(4)
C16_15 C 0.57766(12) 0.1503(4) 0.1019(4)
H15_15 H 0.5667 0.1399 0.0899
C17_15 C 0.44951(11) 0.2859(4) 0.1862(4)
H16_15 H 0.4409 0.3052 0.1726
C19_15 C 0.46207(10) 0.2499(3) 0.0638(4)
C20_15 C 0.46984(10) 0.2249(3) 0.0982(3)
H17_15 H 0.4630 0.2131 0.1225
C21_15 C 0.61283(9) 0.1589(3) 0.3958(4)
H18_15 H 0.6164 0.1659 0.4258
C22_15 C 0.59895(13) 0.2057(3) 0.1102(4)
H19_15 H 0.6031 0.2357 0.1042
C23_15 C 0.62564(11) 0.1231(3) 0.2079(3)
H20_15 H 0.6281 0.1548 0.2087
C24_15 C 0.61103(12) 0.0583(3) 0.1798(4)
H21_15 H 0.6029 0.0442 0.1596
C25_15 C 0.47985(12) 0.2658(4) 0.2089(4)
C27_15 C 0.63305(10) 0.0471(3) 0.2349(3)
C29_15 C 0.60189(11) 0.1883(3) 0.3697(4)
H23_15 H 0.5983 0.2169 0.3816
C30_15 C 0.59662(11) 0.1756(4) 0.3276(3)
C31_15 C 0.47134(11) 0.2664(3) 0.0290(4)
H24_15 H 0.4656 0.2831 0.0056
C32_15 C 0.46853(11) 0.2978(3) 0.1860(3)
H25_15 H 0.4730 0.3245 0.1718
C33_15 C 0.58532(13) 0.2097(4) 0.2995(4)
C34_15 C 0.56401(14) 0.3333(4) 0.1981(4)
C35_15 C 0.60168(12) 0.1382(4) 0.3091(4)
H26_15 H 0.5985 0.1310 0.2788
C37_15 C 0.58643(12) 0.1220(3) 0.1309(4)
H28_15 H 0.5812 0.0934 0.1379
C39_15 C 0.42454(11) 0.2313(4) 0.2030(3)
C40_15 C 0.49862(11) 0.2351(3) 0.0603(4)
H29_15 H 0.4007 0.4028 0.0134
C42_15 C 0.61975(11) 0.4774(3) 0.0690(3)
C43_15 C 0.45545(13) 0.2212(4) 0.2321(5)
H30_15 H 0.4510 0.1974 0.2506
C44_15 C 0.44182(11) 0.2601(3) 0.0639(4)
C45_15 C 0.59662(12) 0.4243(3) 0.1180(4)
C47_15 C 0.56496(12) 0.2700(3) 0.2490(4)
C48_15 C 0.58824(13) 0.2181(4) 0.2549(4)
H31_15 H 0.5978 0.2026 0.2407
C50_15 C 0.49998(11) 0.2779(4) 0.2118(4)
C53_15 C 0.53629(12) 0.2939(4) 0.2181(4)
C55_15 C 0.60782(13) 0.1792(4) 0.1376(4)
H34_15 H 0.6186 0.1907 0.1502
C57_15 C 0.58434(12) 0.3933(3) 0.1466(4)
C58_13 C 0.56195(13) 0.2631(4) 0.2908(5)
H35_13 H 0.5521 0.2789 0.3034
C59_15 C 0.57906(15) 0.2450(4) 0.2310(4)
H36_15 H 0.5819 0.2483 0.1999
C60_15 C 0.52661(11) 0.2280(4) 0.1008(4)
H37_15 H 0.5203 0.2270 0.1286
C61_15 C 0.58991(13) 0.3221(3) 0.0003(4)
C62_15 C 0.47381(13) 0.2311(4) 0.2309(4)
H39_15 H 0.4819 0.2118 0.2465
C63_15 C 0.59935(12) 0.2307(3) 0.0103(4)
H40_15 H 0.6020 0.1991 0.0118
C66_15 C 0.52763(12) 0.2287(4) 0.0219(4)
C67_15 C 0.61203(13) 0.1086(4) 0.3348(4)
H44_15 H 0.6150 0.0795 0.3230
C68_15 C 0.57113(12) 0.2360(4) 0.3191(4)
H45_15 H 0.5684 0.2344 0.3504
C69_15 C 0.60238(13) 0.1330(3) 0.1504(4)
C70_15 C 0.51779(12) 0.2320(3) 0.0638(4)
C71_15 C 0.51150(12) 0.2422(3) 0.2194(4)
H46_15 H 0.5070 0.2122 0.2225
C73_15 C 0.61494(13) 0.4286(3) 0.1305(4)
H48_15 H 0.6197 0.4129 0.1559
C74_15 C 0.62900(11) 0.0867(3) 0.4016(4)
C75_15 C 0.57802(14) 0.3574(4) 0.2179(4)
H49_15 H 0.5806 0.3530 0.2491
C77_15 C 0.61777(11) 0.1202(3) 0.3749(3)
C79_15 C 0.61311(11) 0.1056(3) 0.1795(3)
C80_15 C 0.50603(13) 0.3206(4) 0.2041(5)
H52_15 H 0.4980 0.3447 0.1975
C81_15 C 0.60146(13) 0.4714(3) 0.0565(4)
H53_15 H 0.5968 0.4867 0.0308
C82_15 C 0.49042(11) 0.2579(3) 0.0279(4)
H54_15 H 0.4972 0.2691 0.0032
C83_15 C 0.44461(11) 0.2460(4) 0.2068(3)
C84_15 C 0.54579(12) 0.2248(4) 0.1014(4)
H55_15 H 0.5522 0.2241 0.1292
C85_15 C 0.58801(13) 0.3865(4) 0.1938(4)
H56_15 H 0.5975 0.4026 0.2079
C86_15 C 0.54588(13) 0.2261(4) 0.0234(4)
C87_15 C 0.62963(15) 0.5074(4) 0.0408(4)
C88_15 C 0.52560(13) 0.3284(4) 0.2063(4)
H58_15 H 0.5304 0.3575 0.1995
C90_15 C 0.59055(12) 0.4432(3) 0.0821(4)
H60_15 H 0.5786 0.4378 0.0729
C91_15 C 0.62529(12) 0.4558(3) 0.1046(4)
H61_15 H 0.6374 0.4593 0.1130
C92_18 C 0.52972(12) 0.2500(4) 0.2226(4)
H62_15 H 0.5376 0.2253 0.2278
C93_15 C 0.48785(11) 0.2179(3) 0.0958(4)
H63_15 H 0.4934 0.2007 0.1191
N2_15 N 0.43934(17) 0.1121(4) 0.1481(7)
N8_15 N 0.57407(9) 0.2169(3) 0.0602(4)
N9_15 N 0.55481(10) 0.3007(3) 0.2229(4)
O3_10 O 0.65185(9) 0.0370(2) 0.2978(3)
O4_15 O 0.41481(7) 0.2546(2) 0.1770(3)
O6_15 O 0.42038(7) 0.2015(2) 0.2298(3)
O7_15 O 0.41666(11) 0.1635(3) 0.1277(3)
O9_10 O 0.63272(8) 0.0486(2) 0.3865(3)
O10_10 O 0.63400(7) 0.0993(2) 0.4408(3)
O11_15 O 0.43380(7) 0.2456(2) 0.0969(3)
O13_15 O 0.43629(7) 0.2828(2) 0.0344(3)
C8_15 C 0.62836(10) 0.4083(3) 0.9314(3)
H12_15 H 0.6300 0.4395 0.9389
C9_15 C 0.63400(11) 0.3457(3) 0.8845(3)
H13_15 H 0.6402 0.3330 0.8594
C15_15 C 0.64463(11) 0.4215(3) 0.8625(3)
C18_15 C 0.4133 0.5486 0.8110
C26_15 C 0.62404(11) 0.3177(3) 0.9127(4)
H22_15 H 0.6228 0.2863 0.9056
C28_15 C 0.60529(13) 0.3068(4) 0.9799(4)
C36_14 C 0.42839(10) 0.3501(3) 0.9526(3)
H27_14 H 0.4348 0.3222 0.9513
C38_15 C 0.42013(13) 0.5094(3) 0.8362(4)
C41_14 C 0.40867(10) 0.3974(3) 0.9890(3)
C46_15 C 0.63497(11) 0.3934(3) 0.8930(3)
C49_14 C 0.42088(9) 0.4233(3) 0.9199(3)
C51_14 C 0.41038(9) 0.4283(3) 0.9577(3)
H32_14 H 0.4040 0.4560 0.9612
C52_15 C 0.61593(11) 0.3352(3) 0.9511(4)
C54_14 C 0.43014(11) 0.3836(3) 0.9175(3)
H33_14 H 0.4378 0.3779 0.8926
C56_14 C 0.42234(10) 0.4518(3) 0.8829(4)
H38_15 H 0.5859 0.3521 0.9944
C64_15 C 0.60897(12) 0.2592(4) 0.9868(4)
H41_15 H 0.6194 0.2473 0.9728
C65_15 C 0.3953 0.5556 0.8035
H42_15 H 0.3862 0.5365 0.8158
H43_15 H 0.5215 0.2283 0.9937
C72_15 C 0.4244 0.5831 0.7960
H47_15 H 0.4368 0.5767 0.7992
C76_15 C 0.3914 0.5953 0.7748
H50_15 H 0.3805 0.5947 0.7583
C78_15 C 0.4208 0.6260 0.7771
H51_15 H 0.4296 0.6479 0.7700
H57_15 H 0.5525 0.2266 0.9960
C89_15 C 0.61921(12) 0.3813(3) 0.9611(3)
H59_15 H 0.6150 0.3938 0.9887
N1_14 N 0.41292(8) 0.4923(2) 0.8754(3)
N3_14 N 0.41744(8) 0.3595(2) 0.9877(3)
N4_14 N 0.43306(10) 0.4477(3) 0.8475(3)
N5_15 N 0.40007(9) 0.5106(2) 0.9024(3)
H64_15 H 0.3953 0.5370 0.8954
H65_14 H 0.3966 0.4960 0.9268
N7_14 N 0.43198(11) 0.4813(3) 0.8184(4)
O2_10 O 0.64506(7) 0.9763(2) 0.2550(3)
C2_16 C 0.6826(2) 0.1044(5) 0.3656(8)
H2_16 H 0.6888 0.0961 0.3388
C3_16 C 0.88477(12) 0.1576(3) 0.4859(3)
H3_16 H 0.8928 0.1452 0.5075
C4_16 C 0.6723 0.1624 0.4193
H4_16 H 0.6723 0.1946 0.4107
H5_16 H 0.6615 0.1478 0.4079
H6_16 H 0.6727 0.1598 0.4523
C6_16 C 0.7030 0.1305 0.4245
H8_16 H 0.6995 0.1363 0.4559
H9_16 H 0.7068 0.0988 0.4213
H10_16 H 0.7128 0.1508 0.4160
C10_16 C 0.83301(11) 0.0601(3) 0.3393(4)
C11_16 C 0.89422(12) 0.2334(4) 0.5150(4)
C12_16 C 0.87044(11) 0.2167(3) 0.4584(3)
H14_16 H 0.8676 0.2483 0.4595
C14_16 C 0.80426(12) 0.0270(4) 0.3118(4)
C16_16 C 0.82766(12) 0.0997(4) 0.3519(4)
H15_16 H 0.8167 0.1101 0.3399
C19_16 C 0.71207(10) 0.0001(3) 0.3138(4)
C20_16 C 0.71984(10) 0.0251(3) 0.3482(3)
H17_16 H 0.7130 0.0369 0.3725
C21_16 C 0.86283(9) 0.0911(3) 0.6458(4)
H18_16 H 0.8664 0.0841 0.6758
C22_16 C 0.84895(13) 0.0443(3) 0.3602(4)
H19_16 H 0.8531 0.0143 0.3542
C23_16 C 0.87564(11) 0.1269(3) 0.4579(3)
H20_16 H 0.8781 0.0952 0.4587
C24_16 C 0.86103(12) 0.1917(3) 0.4298(4)
H21_16 H 0.8529 0.2058 0.4096
C27_16 C 0.88305(10) 0.2029(3) 0.4849(3)
C29_16 C 0.85189(11) 0.0617(3) 0.6197(4)
H23_16 H 0.8483 0.0331 0.6316
C30_16 C 0.84662(11) 0.0744(4) 0.5776(3)
C33_16 C 0.83532(13) 0.0403(4) 0.5495(4)
C35_16 C 0.85168(12) 0.1118(4) 0.5591(4)
H26_16 H 0.8485 0.1190 0.5288
C37_16 C 0.83643(12) 0.1280(3) 0.3809(4)
H28_16 H 0.8312 0.1566 0.3879
C39_16 C 0.67454(11) 0.0187(4) 0.4530(3)
C40_16 C 0.74862(11) 0.0149(3) 0.3103(4)
C43_16 C 0.70545(13) 0.0288(4) 0.4821(5)
H30_16 H 0.7010 0.0526 0.5006
C48_16 C 0.83824(13) 0.0319(4) 0.5049(4)
H31_16 H 0.8478 0.0474 0.4907
C55_16 C 0.85782(13) 0.0708(4) 0.3876(4)
H34_16 H 0.8686 0.0593 0.4002
C59_16 C 0.82906(15) 0.0050(4) 0.4810(4)
H36_16 H 0.8319 0.0017 0.4499
C60_16 C 0.77661(11) 0.0220(4) 0.3508(4)
H37_16 H 0.7703 0.0230 0.3786
C62_16 C 0.72381(13) 0.0189(4) 0.4809(4)
H39_16 H 0.7319 0.0382 0.4965
C63_16 C 0.84935(12) 0.0193(3) 0.2603(4)
H40_16 H 0.8520 0.0509 0.2618
H41_16 H 0.8694 0.0027 0.2228
C66_16 C 0.77763(12) 0.0213(4) 0.2719(4)
H43_16 H 0.7715 0.0217 0.2437
C67_16 C 0.86203(13) 0.1414(4) 0.5848(4)
H44_16 H 0.8650 0.1705 0.5730
C68_16 C 0.82113(12) 0.0140(4) 0.5691(4)
H45_16 H 0.8184 0.0156 0.6004
C69_16 C 0.85238(13) 0.1170(3) 0.4004(4)
C70_16 C 0.76779(12) 0.0180(3) 0.3138(4)
C71_16 C 0.76150(12) 0.0078(3) 0.4694(4)
H46_16 H 0.7570 0.0378 0.4725
C74_16 C 0.87900(11) 0.1633(3) 0.6516(4)
C77_16 C 0.86777(11) 0.1298(3) 0.6249(3)
C79_16 C 0.86311(11) 0.1444(3) 0.4295(3)
C83_16 C 0.69461(11) 0.0040(4) 0.4568(3)
C84_16 C 0.79579(12) 0.0252(4) 0.3514(4)
H55_16 H 0.8022 0.0259 0.3792
C86_16 C 0.79588(13) 0.0239(4) 0.2734(4)
H57_16 H 0.8025 0.0234 0.2460
C92_19 C 0.77972(12) -0.0000(4) 0.4726(4)
H62_16 H 0.7876 0.0247 0.4778
C93_16 C 0.73785(11) 0.0321(3) 0.3458(4)
H63_16 H 0.7434 0.0493 0.3691
N2_16 N 0.68934(17) 0.1379(4) 0.3981(7)
N8_16 N 0.82407(9) 0.0331(3) 0.3102(4)
O6_16 O 0.67038(7) 0.0485(2) 0.4798(3)
O7_16 O 0.66666(11) 0.0865(3) 0.3777(3)
O11_16 O 0.68380(7) 0.0044(2) 0.3469(3)
C1_16 C 0.82028(13) 0.8771(3) 0.3783(4)
H1_16 H 0.8169 0.8703 0.3480
C5_16 C 0.81060(13) 0.9080(3) 0.4030(4)
H7_16 H 0.8012 0.9241 0.3886
C7_16 C 0.83008(13) 0.9560(4) 0.2797(4)
H11_16 H 0.8204 0.9430 0.2961
C8_16 C 0.87836(10) 0.8417(3) 0.1814(3)
H12_16 H 0.8800 0.8105 0.1889
C9_16 C 0.88400(11) 0.9043(3) 0.1345(3)
H13_16 H 0.8902 0.9170 0.1094
C13_16 C 0.83364(12) 0.9988(4) 0.2852(4)
C15_16 C 0.89463(11) 0.8285(3) 0.1125(3)
C17_16 C 0.69951(11) 0.9641(4) 0.4362(4)
H16_16 H 0.6909 0.9448 0.4226
C18_16 C 0.6633 0.7014 0.0610
C25_16 C 0.72985(12) 0.9842(4) 0.4589(4)
C26_16 C 0.87404(11) 0.9323(3) 0.1627(4)
H22_16 H 0.8728 0.9637 0.1556
C28_16 C 0.85529(13) 0.9432(4) 0.2299(4)
C31_16 C 0.72134(11) 0.9836(3) 0.2790(4)
H24_16 H 0.7156 0.9669 0.2556
C32_16 C 0.71853(11) 0.9522(3) 0.4360(3)
H25_16 H 0.7230 0.9255 0.4218
C34_16 C 0.81401(14) 0.9167(4) 0.4481(4)
C36_15 C 0.67839(10) 0.8999(3) 0.2026(3)
H27_15 H 0.6848 0.9278 0.2013
C38_16 C 0.67013(13) 0.7406(3) 0.0862(4)
C41_15 C 0.65867(10) 0.8526(3) 0.2390(3)
H29_16 H 0.6507 0.8472 0.2634
C42_16 C 0.86975(11) 0.7726(3) 0.3190(3)
C44_16 C 0.69182(11) 0.9899(3) 0.3139(4)
C45_16 C 0.84662(12) 0.8257(3) 0.3680(4)
C46_16 C 0.88497(11) 0.8566(3) 0.1430(3)
C47_16 C 0.81496(12) 0.9800(3) 0.4990(4)
C49_15 C 0.67088(9) 0.8267(3) 0.1699(3)
C50_16 C 0.74998(11) 0.9721(4) 0.4618(4)
C51_15 C 0.66038(9) 0.8217(3) 0.2077(3)
H32_15 H 0.6540 0.7940 0.2112
C52_16 C 0.86593(11) 0.9148(3) 0.2011(4)
C53_16 C 0.78629(12) 0.9561(4) 0.4681(4)
C54_15 C 0.68014(11) 0.8664(3) 0.1675(3)
H33_15 H 0.6878 0.8721 0.1426
C56_15 C 0.67234(10) 0.7982(3) 0.1329(4)
C57_16 C 0.83434(12) 0.8567(3) 0.3966(4)
C58_14 C 0.81195(13) 0.9869(4) 0.5408(5)
H35_14 H 0.8021 0.9711 0.5534
C61_16 C 0.83991(13) 0.9279(3) 0.2503(4)
H38_16 H 0.8359 0.8979 0.2444
C64_16 C 0.85897(12) 0.9908(4) 0.2368(4)
C65_16 C 0.6453 0.6944 0.0535
H42_16 H 0.6362 0.7135 0.0658
C72_16 C 0.6744 0.6669 0.0460
H47_16 H 0.6868 0.6733 0.0492
C73_16 C 0.86494(13) 0.8214(3) 0.3805(4)
H48_16 H 0.8697 0.8371 0.4059
C75_16 C 0.82802(14) 0.8926(4) 0.4679(4)
H49_16 H 0.8306 0.8970 0.4991
C76_16 C 0.6414 0.6547 0.0248
H50_16 H 0.6305 0.6553 0.0083
C78_16 C 0.6708 0.6240 0.0271
H51_16 H 0.6796 0.6021 0.0200
C80_16 C 0.75603(13) 0.9294(4) 0.4541(5)
H52_16 H 0.7480 0.9053 0.4475
C81_16 C 0.85146(13) 0.7786(3) 0.3065(4)
H53_16 H 0.8468 0.7633 0.2808
C82_16 C 0.74042(11) 0.9921(3) 0.2779(4)
H54_16 H 0.7472 0.9809 0.2532
C85_16 C 0.83801(13) 0.8635(4) 0.4438(4)
H56_16 H 0.8475 0.8474 0.4579
C87_16 C 0.87963(15) 0.7426(4) 0.2908(4)
C88_16 C 0.77560(13) 0.9216(4) 0.4563(4)
H58_16 H 0.7804 0.8925 0.4495
C89_16 C 0.86921(12) 0.8687(3) 0.2111(3)
H59_16 H 0.8650 0.8562 0.2387
C90_16 C 0.84055(12) 0.8068(3) 0.3321(4)
H60_16 H 0.8286 0.8122 0.3229
C91_16 C 0.87529(12) 0.7942(3) 0.3546(4)
H61_16 H 0.8874 0.7907 0.3630
C92_20 C 0.77972(12) 1.0000(4) 0.4726(4)
N1_15 N 0.66292(8) 0.7577(2) 0.1254(3)
N3_15 N 0.66744(8) 0.8905(2) 0.2377(3)
N4_15 N 0.68306(10) 0.8023(3) 0.0975(3)
N5_16 N 0.65007(9) 0.7394(2) 0.1524(3)
H64_16 H 0.6453 0.7130 0.1454
H65_15 H 0.6466 0.7540 0.1768
N7_15 N 0.68198(11) 0.7687(3) 0.0684(4)
N9_16 N 0.80481(10) 0.9493(3) 0.4729(4)
O4_16 O 0.66481(7) 0.9954(2) 0.4270(3)
O13_16 O 0.68629(7) 0.9672(2) 0.2844(3)
C36_16 C 0.92839(10) 0.8501(3) 0.9526(3)
H27_16 H 0.9348 0.8222 0.9513
C41_16 C 0.90867(10) 0.8974(3) 0.9890(3)
C49_16 C 0.92088(9) 0.9233(3) 0.9199(3)
C51_16 C 0.91038(9) 0.9283(3) 0.9577(3)
H32_16 H 0.9040 0.9560 0.9612
C54_16 C 0.93014(11) 0.8836(3) 0.9175(3)
H33_16 H 0.9378 0.8779 0.8926
C56_16 C 0.92234(10) 0.9518(3) 0.8829(4)
N1_16 N 0.91292(8) 0.9923(2) 0.8754(3)
N3_16 N 0.91744(8) 0.8595(2) 0.9877(3)
N4_16 N 0.93306(10) 0.9477(3) 0.8475(3)
H65_16 H 0.8966 0.9960 0.9268
N7_16 N 0.93198(11) 0.9813(3) 0.8184(4)
C58_15 C 0.31195(13) 0.9869(4) 0.0408(5)
H35_15 H 0.3021 0.9711 0.0534
C58_16 C 0.68805(13) 0.0131(4) 0.0408(5)
H35_16 H 0.6979 0.0289 0.0534
loop_
_geom_bond_atom_site_label_1
_geom_bond_atom_site_label_2
_geom_bond_site_symmetry_1
_geom_bond_site_symmetry_2
C2 H2 1_555 1_555
C4 H4 1_555 1_555
H5 C4 1_555 1_555
H6 C4 1_555 1_555
C6 H8 1_555 1_555
H9 C6 1_555 1_555
H10 C6 1_555 1_555
C17 H16 1_555 1_555
C19 C20 1_555 1_555
C20 H17 1_555 1_555
C25 C32 1_555 1_555
C31 C19 1_555 1_555
H24 C31 1_555 1_555
C32 C17 1_555 1_555
H25 C32 1_555 1_555
C39 C83 1_555 1_555
C43 H30 1_555 1_555
C44 C19 1_555 1_555
C50 C25 1_555 1_555
C62 C25 1_555 1_555
H39 C62 1_555 1_555
C82 C31 1_555 1_555
H54 C82 1_555 1_555
C83 C17 1_555 1_555
C93 C20 1_555 1_555
H63 C93 1_555 1_555
N2 C2 1_555 1_555
O4 C39 1_555 1_555
O6 C39 1_555 1_555
O7 C2 1_555 1_555
O11 C44 1_555 1_555
O13 C44 1_555 1_555
Cu2 O6 1_555 1_555
Cu3 O4 1_555 1_555
N10 Cu2 1_555 1_555
O14 Cu2 1_555 1_555
O15 Cu1 1_555 1_555
O16 Cu3 1_555 1_555
O17 Cu3 1_555 1_555
O18 Cu1 1_555 1_555
O19 Cu3 1_555 1_555
O20 Cu2 1_555 1_555
O21 Cu2 1_555 1_555
C4 N2 1_555 1_555
C6 N2 1_555 1_555
C40 C82 1_555 1_555
C40 C93 1_555 1_555
C43 C62 1_555 1_555
C43 C83 1_555 1_555
O7 Cu3 1_555 1_555
O11 Cu3 1_555 1_555
O13 Cu1 1_555 1_555
C18 C38 1_555 1_555
C65 C18 1_555 1_555
H42 C65 1_555 1_555
C72 C18 1_555 1_555
H47 C72 1_555 1_555
C76 C65 1_555 1_555
H50 C76 1_555 1_555
C78 C72 1_555 1_555
H51 C78 1_555 1_555
H64 N5 1_555 1_555
N6 C76 1_555 1_555
Cu6 N6 1_555 1_555
C78 N6 1_555 1_555
C1 H1 1_555 1_555
C3 H3 1_555 1_555
C5 C1 1_555 1_555
H7 C5 1_555 1_555
C7 H11 1_555 1_555
C10 C16 1_555 1_555
C11 C27 1_555 1_555
C12 H14 1_555 1_555
C13 C7 1_555 1_555
C14 C84 1_555 1_555
C16 H15 1_555 1_555
C21 H18 1_555 1_555
C22 C10 1_555 1_555
H19 C22 1_555 1_555
C23 C3 1_555 1_555
H20 C23 1_555 1_555
C24 C12 1_555 1_555
H21 C24 1_555 1_555
C27 C3 1_555 1_555
C29 C21 1_555 1_555
H23 C29 1_555 1_555
C30 C29 1_555 1_555
C33 C30 1_555 1_555
C34 C5 1_555 1_555
C35 C30 1_555 1_555
H26 C35 1_555 1_555
C37 C16 1_555 1_555
H28 C37 1_555 1_555
C42 C81 1_555 1_555
C45 C57 1_555 1_555
C47 C58 1_555 1_555
C48 C33 1_555 1_555
H31 C48 1_555 1_555
C53 C88 1_555 1_555
C55 C22 1_555 1_555
H34 C55 1_555 1_555
C57 C1 1_555 1_555
C58 H35 1_555 1_555
C59 C47 1_555 1_555
H36 C59 1_555 1_555
C60 H37 1_555 1_555
C61 C7 1_555 1_555
C63 C13 1_555 1_555
H40 C63 1_555 1_555
C67 C35 1_555 1_555
H44 C67 1_555 1_555
C68 C33 1_555 1_555
H45 C68 1_555 1_555
C69 C37 1_555 1_555
C70 C60 1_555 1_555
H46 C71 1_555 1_555
C73 C45 1_555 1_555
H48 C73 1_555 1_555
C74 C77 1_555 1_555
C75 C34 1_555 1_555
H49 C75 1_555 1_555
C77 C21 1_555 1_555
C79 C23 1_555 1_555
C81 H53 1_555 1_555
C84 C60 1_555 1_555
H55 C84 1_555 1_555
C85 C57 1_555 1_555
H56 C85 1_555 1_555
C86 C14 1_555 1_555
C88 C80 1_555 1_555
H58 C88 1_555 1_555
C90 C45 1_555 1_555
H60 C90 1_555 1_555
C91 C42 1_555 1_555
H61 C91 1_555 1_555
C92 C53 1_555 1_555
H62 C92 1_555 1_555
N8 C10 1_555 1_555
N9 C34 1_555 1_555
O2 C11 1_555 1_555
O3 C11 1_555 1_555
O9 C74 1_555 1_555
O10 C74 1_555 1_555
Cu5 O2 1_555 1_555
Cu8 O10 1_555 1_555
Cu10 O3 1_555 1_555
C12 C27 1_555 1_555
C13 N8 1_555 1_555
C14 N8 1_555 1_555
C24 C79 1_555 1_555
C47 N9 1_555 1_555
C48 C59 1_555 1_555
C53 N9 1_555 1_555
C55 C69 1_555 1_555
C58 C68 1_555 1_555
C66 C70 1_555 1_555
C66 C86 1_555 1_555
C67 C77 1_555 1_555
C69 C79 1_555 1_555
C71 C92 1_555 1_555
C73 C91 1_555 1_555
C75 C85 1_555 1_555
C81 C90 1_555 1_555
O9 Cu10 1_555 1_555
C8 H12 1_555 1_555
C9 H13 1_555 1_555
C15 C46 1_555 1_555
C26 C9 1_555 1_555
H22 C26 1_555 1_555
C28 C52 1_555 1_555
C46 C8 1_555 1_555
C52 C26 1_555 1_555
C64 C28 1_555 1_555
H41 C64 1_555 1_555
C89 C8 1_555 1_555
H59 C89 1_555 1_555
O5 C15 1_555 1_555
O8 C15 1_555 1_555
Cu4 O8 1_555 1_555
C9 C46 1_555 1_555
C52 C89 1_555 1_555
O1 C87 1_555 1_555
O12 C87 1_555 1_555
C1_2 H1_2 1_555 1_555
C5_2 C1_2 1_555 1_555
H7_2 C5_2 1_555 1_555
C7_2 H11_2 1_555 1_555
C8_2 H12_2 1_555 1_555
C9_2 H13_2 1_555 1_555
C13_2 C7_2 1_555 1_555
C15_2 C46_2 1_555 1_555
C17_2 H16_2 1_555 1_555
C18_2 C38_2 1_555 1_555
C25_2 C32_2 1_555 1_555
C26_2 C9_2 1_555 1_555
H22_2 C26_2 1_555 1_555
C28_2 C52_2 1_555 1_555
H24_2 C31_2 1_555 1_555
C32_2 C17_2 1_555 1_555
H25_2 C32_2 1_555 1_555
C34_2 C5_2 1_555 1_555
C36 H27 1_555 1_555
C38_2 N1 1_555 1_555
C41 H29_2 1_555 1_555
C42_2 C81_2 1_555 1_555
C45_2 C57_2 1_555 1_555
C46_2 C8_2 1_555 1_555
C47_2 C58_2 1_555 1_555
C49 C51 1_555 1_555
C50_2 C25_2 1_555 1_555
C51 C41 1_555 1_555
H32 C51 1_555 1_555
C52_2 C26_2 1_555 1_555
C53_2 C88_2 1_555 1_555
C54 C36 1_555 1_555
H33 C54 1_555 1_555
C56 C49 1_555 1_555
C57_2 C1_2 1_555 1_555
C58_2 H35_2 1_555 1_555
C61_2 C7_2 1_555 1_555
H38_2 C61_2 1_555 1_555
C64_2 C28_2 1_555 1_555
C65_2 C18_2 1_555 1_555
H42_2 C65_2 1_555 1_555
C72_2 C18_2 1_555 1_555
H47_2 C72_2 1_555 1_555
C73_2 C45_2 1_555 1_555
H48_2 C73_2 1_555 1_555
C75_2 C34_2 1_555 1_555
H49_2 C75_2 1_555 1_555
C76_2 C65_2 1_555 1_555
H50_2 C76_2 1_555 1_555
C78_2 C72_2 1_555 1_555
H51_2 C78_2 1_555 1_555
C80_2 C50_2 1_555 1_555
H52_2 C80_2 1_555 1_555
C81_2 H53_2 1_555 1_555
C82_2 C31_2 1_555 1_555
H54_2 C82_2 1_555 1_555
C85_2 C57_2 1_555 1_555
H56_2 C85_2 1_555 1_555
C87_2 C42_2 1_555 1_555
C88_2 C80_2 1_555 1_555
H58_2 C88_2 1_555 1_555
C89_2 C8_2 1_555 1_555
H59_2 C89_2 1_555 1_555
C90_2 C45_2 1_555 1_555
H60_2 C90_2 1_555 1_555
C91_2 C42_2 1_555 1_555
H61_2 C91_2 1_555 1_555
C92_2 C53_2 1_555 1_555
N1 C56 1_555 1_555
N3 C36 1_555 1_555
N4 C56 1_555 1_555
N5_2 N1 1_555 1_555
H64_2 N5_2 1_555 1_555
H65 N5_2 1_555 1_555
N6_2 C76_2 1_555 1_555
N7 C38_2 1_555 1_555
N9_2 C34_2 1_555 1_555
O14 C87_2 1_555 1_555
O17 C15_2 1_555 1_555
O18 C15_2 1_555 1_555
O21 C87_2 1_555 1_555
O13_2 C44_2 1_555 1_555
Cu1_2 N3 1_555 1_555
O15_2 Cu1_2 1_555 1_555
O18_2 Cu1_2 1_555 1_555
C9_2 C46_2 1_555 1_555
C28_2 C61_2 1_555 1_555
C41 N3 1_555 1_555
C47_2 N9_2 1_555 1_555
C49 C54 1_555 1_555
C52_2 C89_2 1_555 1_555
C53_2 N9_2 1_555 1_555
C73_2 C91_2 1_555 1_555
C75_2 C85_2 1_555 1_555
C78_2 N6_2 1_555 1_555
C81_2 C90_2 1_555 1_555
N4 N7 1_555 1_555
O13_2 Cu1_2 1_555 1_555
C2_2 H2_2 1_555 1_555
C3_2 H3_2 1_555 1_555
C4_2 H4_2 1_555 1_555
H5_2 C4_2 1_555 1_555
H6_2 C4_2 1_555 1_555
C6_2 H8_2 1_555 1_555
H9_2 C6_2 1_555 1_555
H10_2 C6_2 1_555 1_555
C10_2 C16_2 1_555 1_555
C11_2 C27_2 1_555 1_555
C12_2 H14_2 1_555 1_555
C14_2 C84_2 1_555 1_555
C16_2 H15_2 1_555 1_555
C19_2 C20_2 1_555 1_555
C20_2 H17_2 1_555 1_555
C21_2 H18_2 1_555 1_555
C22_2 C10_2 1_555 1_555
H19_2 C22_2 1_555 1_555
C23_2 C3_2 1_555 1_555
H20_2 C23_2 1_555 1_555
C24_2 C12_2 1_555 1_555
H21_2 C24_2 1_555 1_555
C27_2 C3_2 1_555 1_555
C29_2 C21_2 1_555 1_555
H23_2 C29_2 1_555 1_555
C30_2 C29_2 1_555 1_555
C33_2 C30_2 1_555 1_555
C35_2 C30_2 1_555 1_555
H26_2 C35_2 1_555 1_555
C37_2 C16_2 1_555 1_555
H28_2 C37_2 1_555 1_555
C39_2 C83_2 1_555 1_555
C40_2 C70_2 1_555 1_555
C43_2 H30_2 1_555 1_555
C48_2 C33_2 1_555 1_555
H31_2 C48_2 1_555 1_555
C55_2 C22_2 1_555 1_555
H34_2 C55_2 1_555 1_555
H36_2 C59_2 1_555 1_555
C60_2 H37_2 1_555 1_555
H39_2 C62_2 1_555 1_555
H40_2 C63_2 1_555 1_555
C66_2 H43_2 1_555 1_555
C67_2 C35_2 1_555 1_555
H44_2 C67_2 1_555 1_555
C68_2 C33_2 1_555 1_555
H45_2 C68_2 1_555 1_555
C69_2 C37_2 1_555 1_555
C70_2 C60_2 1_555 1_555
H46_2 C71_2 1_555 1_555
C74_2 C77_2 1_555 1_555
C77_2 C21_2 1_555 1_555
C79_2 C23_2 1_555 1_555
C84_2 C60_2 1_555 1_555
H55_2 C84_2 1_555 1_555
C86_2 C14_2 1_555 1_555
H57_2 C86_2 1_555 1_555
H62_2 C92_3 1_555 1_555
C93_2 C20_2 1_555 1_555
H63_2 C93_2 1_555 1_555
N2_2 C2_2 1_555 1_555
N8_2 C10_2 1_555 1_555
O2_2 C11_2 1_555 1_555
O3_2 C11_2 1_555 1_555
O6_2 C39_2 1_555 1_555
O7_2 C2_2 1_555 1_555
O9_2 C74_2 1_555 1_555
O10_2 C74_2 1_555 1_555
Cu2_2 O6_2 1_555 1_555
N10_2 Cu2_2 1_555 1_555
O14_2 Cu2_2 1_555 1_555
O16_2 Cu3_2 1_555 1_555
O19_2 Cu3_2 1_555 1_555
O20_2 Cu2_2 1_555 1_555
O21_2 Cu2_2 1_555 1_555
Cu5_2 O2_2 1_555 1_555
Cu6 O10_2 1_555 1_555
Cu10_2 O3_2 1_555 1_555
C4_2 N2_2 1_555 1_555
C6_2 N2_2 1_555 1_555
C12_2 C27_2 1_555 1_555
C14_2 N8_2 1_555 1_555
C24_2 C79_2 1_555 1_555
C40_2 C93_2 1_555 1_555
C43_2 C62_2 1_555 1_555
C43_2 C83_2 1_555 1_555
C48_2 C59_2 1_555 1_555
C55_2 C69_2 1_555 1_555
C66_2 C70_2 1_555 1_555
C66_2 C86_2 1_555 1_555
C67_2 C77_2 1_555 1_555
C69_2 C79_2 1_555 1_555
C71_2 C92_3 1_555 1_555
O7_2 Cu3_2 1_555 1_555
O9_2 Cu10_2 1_555 1_555
O11_2 Cu3_2 1_555 1_555
C2_3 H2_3 1_555 1_555
C4_3 H4_3 1_555 1_555
H5_3 C4_3 1_555 1_555
H6_3 C4_3 1_555 1_555
C6_3 H8_3 1_555 1_555
H9_3 C6_3 1_555 1_555
H10_3 C6_3 1_555 1_555
C17_3 H16_3 1_555 1_555
C18_3 C38_3 1_555 1_555
C19_3 C20_3 1_555 1_555
C20_3 H17_3 1_555 1_555
C25_3 C32_3 1_555 1_555
C31_3 C19_3 1_555 1_555
H24_3 C31_3 1_555 1_555
C32_3 C17_3 1_555 1_555
H25_3 C32_3 1_555 1_555
C36_2 H27_2 1_555 1_555
C38_3 N1_2 1_555 1_555
C39_3 C83_3 1_555 1_555
C41_2 H29_3 1_555 1_555
C43_3 H30_3 1_555 1_555
C44_3 C19_3 1_555 1_555
C49_2 C51_2 1_555 1_555
C50_3 C25_3 1_555 1_555
C51_2 C41_2 1_555 1_555
H32_2 C51_2 1_555 1_555
C54_2 C36_2 1_555 1_555
H33_2 C54_2 1_555 1_555
C56_2 C49_2 1_555 1_555
C62_3 C25_3 1_555 1_555
H39_3 C62_3 1_555 1_555
C65_3 C18_3 1_555 1_555
H42_3 C65_3 1_555 1_555
C72_3 C18_3 1_555 1_555
H47_3 C72_3 1_555 1_555
C76_3 C65_3 1_555 1_555
H50_3 C76_3 1_555 1_555
C78_3 C72_3 1_555 1_555
H51_3 C78_3 1_555 1_555
C82_3 C31_3 1_555 1_555
H54_3 C82_3 1_555 1_555
C83_3 C17_3 1_555 1_555
C93_3 C20_3 1_555 1_555
H63_3 C93_3 1_555 1_555
N1_2 C56_2 1_555 1_555
N2_3 C2_3 1_555 1_555
N3_2 C36_2 1_555 1_555
N4_2 C56_2 1_555 1_555
N5_3 N1_2 1_555 1_555
H64_3 N5_3 1_555 1_555
H65_2 N5_3 1_555 1_555
N10 C76_3 1_555 1_555
N7_2 C38_3 1_555 1_555
O4_3 C39_3 1_555 1_555
O6_3 C39_3 1_555 1_555
O7_3 C2_3 1_555 1_555
O11_3 C44_3 1_555 1_555
O13_3 C44_3 1_555 1_555
Cu5_2 N3_2 1_555 1_555
Cu6 O6_3 1_555 1_555
Cu10_2 O4_3 1_555 1_555
O14_3 Cu6 1_555 1_555
O17_3 Cu10_2 1_555 1_555
O18_3 Cu5_2 1_555 1_555
O21_3 Cu6 1_555 1_555
C4_3 N2_3 1_555 1_555
C6_3 N2_3 1_555 1_555
C40_3 C82_3 1_555 1_555
C40_3 C93_3 1_555 1_555
C41_2 N3_2 1_555 1_555
C43_3 C62_3 1_555 1_555
C43_3 C83_3 1_555 1_555
C49_2 C54_2 1_555 1_555
C78_3 N10 1_555 1_555
N4_2 N7_2 1_555 1_555
O7_3 Cu10_2 1_555 1_555
O11_3 Cu10_2 1_555 1_555
O13_3 Cu5_2 1_555 1_555
Cu4 O2_3 1_555 1_555
C1_3 H1_3 1_555 1_555
C3_3 H3_3 1_555 1_555
C5_3 C1_3 1_555 1_555
H7_3 C5_3 1_555 1_555
C7_3 H11_3 1_555 1_555
C8_3 H12_3 1_555 1_555
C9_3 H13_3 1_555 1_555
C10_3 C16_3 1_555 1_555
C11_3 C27_3 1_555 1_555
C12_3 H14_3 1_555 1_555
C13_3 C7_3 1_555 1_555
C14_3 C84_3 1_555 1_555
C15_3 C46_3 1_555 1_555
C16_3 H15_3 1_555 1_555
C21_3 H18_3 1_555 1_555
C22_3 C10_3 1_555 1_555
H19_3 C22_3 1_555 1_555
C23_3 C3_3 1_555 1_555
H20_3 C23_3 1_555 1_555
C24_3 C12_3 1_555 1_555
H21_3 C24_3 1_555 1_555
C26_3 C9_3 1_555 1_555
H22_3 C26_3 1_555 1_555
C27_3 C3_3 1_555 1_555
C28_3 C52_3 1_555 1_555
C29_3 C21_3 1_555 1_555
H23_3 C29_3 1_555 1_555
C30_3 C29_3 1_555 1_555
C33_3 C30_3 1_555 1_555
C34_3 C5_3 1_555 1_555
C35_3 C30_3 1_555 1_555
H26_3 C35_3 1_555 1_555
C37_3 C16_3 1_555 1_555
H28_3 C37_3 1_555 1_555
C42_3 C81_3 1_555 1_555
C45_3 C57_3 1_555 1_555
C46_3 C8_3 1_555 1_555
C47_3 C58_3 1_555 1_555
C48_3 C33_3 1_555 1_555
H31_3 C48_3 1_555 1_555
C52_3 C26_3 1_555 1_555
C53_3 C88_3 1_555 1_555
C55_3 C22_3 1_555 1_555
H34_3 C55_3 1_555 1_555
C57_3 C1_3 1_555 1_555
C58_3 H35_3 1_555 1_555
C59_3 C47_3 1_555 1_555
H36_3 C59_3 1_555 1_555
C60_3 H37_3 1_555 1_555
C61_3 C7_3 1_555 1_555
H38_3 C61_3 1_555 1_555
C63_3 C13_3 1_555 1_555
H40_3 C63_3 1_555 1_555
C64_3 C28_3 1_555 1_555
H41_3 C64_3 1_555 1_555
C66_3 H43_3 1_555 1_555
C67_3 C35_3 1_555 1_555
H44_3 C67_3 1_555 1_555
C68_3 C33_3 1_555 1_555
H45_3 C68_3 1_555 1_555
C69_3 C37_3 1_555 1_555
C70_3 C60_3 1_555 1_555
H46_3 C71_3 1_555 1_555
C73_3 C45_3 1_555 1_555
H48_3 C73_3 1_555 1_555
C74_3 C77_3 1_555 1_555
C75_3 C34_3 1_555 1_555
H49_3 C75_3 1_555 1_555
C77_3 C21_3 1_555 1_555
C79_3 C23_3 1_555 1_555
C81_3 H53_3 1_555 1_555
C84_3 C60_3 1_555 1_555
H55_3 C84_3 1_555 1_555
C85_3 C57_3 1_555 1_555
H56_3 C85_3 1_555 1_555
C86_3 C14_3 1_555 1_555
H57_3 C86_3 1_555 1_555
C87_3 C42_3 1_555 1_555
C88_3 C80_3 1_555 1_555
H58_3 C88_3 1_555 1_555
C89_3 C8_3 1_555 1_555
H59_3 C89_3 1_555 1_555
C90_3 C45_3 1_555 1_555
H60_3 C90_3 1_555 1_555
C91_3 C42_3 1_555 1_555
H61_3 C91_3 1_555 1_555
C92_4 C53_3 1_555 1_555
H62_3 C92_4 1_555 1_555
N8_3 C10_3 1_555 1_555
N9_3 C34_3 1_555 1_555
O1_2 C87_3 1_555 1_555
O3_3 C11_3 1_555 1_555
O5_2 C15_3 1_555 1_555
O8_2 C15_3 1_555 1_555
O9_3 C74_3 1_555 1_555
O10_3 C74_3 1_555 1_555
O12_2 C87_3 1_555 1_555
Cu5 O8_2 1_555 1_555
Cu8 O1_2 1_555 1_555
Cu7 O10_3 1_555 1_555
Cu10 O5_2 1_555 1_555
Cu9 O3_3 1_555 1_555
C9_3 C46_3 1_555 1_555
C12_3 C27_3 1_555 1_555
C13_3 N8_3 1_555 1_555
C14_3 N8_3 1_555 1_555
C24_3 C79_3 1_555 1_555
C28_3 C61_3 1_555 1_555
C47_3 N9_3 1_555 1_555
C48_3 C59_3 1_555 1_555
C52_3 C89_3 1_555 1_555
C53_3 N9_3 1_555 1_555
C55_3 C69_3 1_555 1_555
C58_3 C68_3 1_555 1_555
C63_3 C64_3 1_555 1_555
C66_3 C70_3 1_555 1_555
C66_3 C86_3 1_555 1_555
C67_3 C77_3 1_555 1_555
C69_3 C79_3 1_555 1_555
C71_3 C92_4 1_555 1_555
C73_3 C91_3 1_555 1_555
C75_3 C85_3 1_555 1_555
C81_3 C90_3 1_555 1_555
O9_3 Cu9 1_555 1_555
O12_2 Cu8 1_555 1_555
C21_4 H18_4 1_555 1_555
C29_4 C21_4 1_555 1_555
H23_4 C29_4 1_555 1_555
C30_4 C29_4 1_555 1_555
C33_4 C30_4 1_555 1_555
C35_4 C30_4 1_555 1_555
H26_4 C35_4 1_555 1_555
C48_4 C33_4 1_555 1_555
C58_4 H35_4 1_555 1_555
C67_4 C35_4 1_555 1_555
H44_4 C67_4 1_555 1_555
C68_4 C33_4 1_555 1_555
H45_4 C68_4 1_555 1_555
C74_4 C77_4 1_555 1_555
C77_4 C21_4 1_555 1_555
O15 C11_4 1_555 1_555
O16 C11_4 1_555 1_555
O19 C74_4 1_555 1_555
O20 C74_4 1_555 1_555
C58_4 C68_4 1_555 1_555
C67_4 C77_4 1_555 1_555
C1_4 H1_4 1_555 1_555
C2_4 H2_4 1_555 1_555
C4_4 H4_4 1_555 1_555
H5_4 C4_4 1_555 1_555
H6_4 C4_4 1_555 1_555
C5_4 C1_4 1_555 1_555
H7_4 C5_4 1_555 1_555
C6_4 H8_4 1_555 1_555
H9_4 C6_4 1_555 1_555
H10_4 C6_4 1_555 1_555
C7_4 H11_4 1_555 1_555
C8_4 H12_4 1_555 1_555
C9_4 H13_4 1_555 1_555
C10_4 C16_4 1_555 1_555
C12_4 H14_4 1_555 1_555
C13_4 C7_4 1_555 1_555
C14_4 C84_4 1_555 1_555
C15_4 C46_4 1_555 1_555
C16_4 H15_4 1_555 1_555
C17_4 H16_4 1_555 1_555
C18_4 C38_4 1_555 1_555
C19_4 C20_4 1_555 1_555
C20_4 H17_4 1_555 1_555
C22_4 C10_4 1_555 1_555
H19_4 C22_4 1_555 1_555
C23_4 C3_4 1_555 1_555
H20_4 C23_4 1_555 1_555
C24_4 C12_4 1_555 1_555
H21_4 C24_4 1_555 1_555
C25_4 C32_4 1_555 1_555
C26_4 C9_4 1_555 1_555
H22_4 C26_4 1_555 1_555
C27_4 C3_4 1_555 1_555
C28_4 C52_4 1_555 1_555
C31_4 C19_4 1_555 1_555
H24_4 C31_4 1_555 1_555
C32_4 C17_4 1_555 1_555
H25_4 C32_4 1_555 1_555
C34_4 C5_4 1_555 1_555
C36_3 H27_3 1_555 1_555
C37_4 C16_4 1_555 1_555
H28_4 C37_4 1_555 1_555
C38_4 N1_3 1_555 1_555
C39_4 C83_4 1_555 1_555
C40_4 C70_4 1_555 1_555
C41_3 H29_4 1_555 1_555
C42_4 C81_4 1_555 1_555
C44_4 C19_4 1_555 1_555
C45_4 C57_4 1_555 1_555
C46_4 C8_4 1_555 1_555
C49_3 C51_3 1_555 1_555
C50_4 C25_4 1_555 1_555
C51_3 C41_3 1_555 1_555
H32_3 C51_3 1_555 1_555
C52_4 C26_4 1_555 1_555
C53_4 C88_4 1_555 1_555
C54_3 C36_3 1_555 1_555
H33_3 C54_3 1_555 1_555
C55_4 C22_4 1_555 1_555
H34_4 C55_4 1_555 1_555
C56_3 C49_3 1_555 1_555
C57_4 C1_4 1_555 1_555
C59_4 C47_4 1_555 1_555
H36_4 C59_4 1_555 1_555
C60_4 H37_4 1_555 1_555
C61_4 C7_4 1_555 1_555
H38_4 C61_4 1_555 1_555
C62_4 C25_4 1_555 1_555
H39_4 C62_4 1_555 1_555
C63_4 C13_4 1_555 1_555
H40_4 C63_4 1_555 1_555
C64_4 C28_4 1_555 1_555
H41_4 C64_4 1_555 1_555
C65_4 C18_4 1_555 1_555
H42_4 C65_4 1_555 1_555
C66_4 H43_4 1_555 1_555
C69_4 C37_4 1_555 1_555
C70_4 C60_4 1_555 1_555
C71_4 C50_4 1_555 1_555
H46_4 C71_4 1_555 1_555
C72_4 C18_4 1_555 1_555
H47_4 C72_4 1_555 1_555
C73_4 C45_4 1_555 1_555
H48_4 C73_4 1_555 1_555
C75_4 C34_4 1_555 1_555
H49_4 C75_4 1_555 1_555
C76_4 C65_4 1_555 1_555
H50_4 C76_4 1_555 1_555
C78_4 C72_4 1_555 1_555
H51_4 C78_4 1_555 1_555
C79_4 C23_4 1_555 1_555
C80_4 C50_4 1_555 1_555
H52_4 C80_4 1_555 1_555
C81_4 H53_4 1_555 1_555
C82_4 C31_4 1_555 1_555
H54_4 C82_4 1_555 1_555
C83_4 C17_4 1_555 1_555
C84_4 C60_4 1_555 1_555
H55_4 C84_4 1_555 1_555
C85_4 C57_4 1_555 1_555
H56_4 C85_4 1_555 1_555
C86_4 C14_4 1_555 1_555
H57_4 C86_4 1_555 1_555
C87_4 C42_4 1_555 1_555
C88_4 C80_4 1_555 1_555
H58_4 C88_4 1_555 1_555
C89_4 C8_4 1_555 1_555
H59_4 C89_4 1_555 1_555
C90_4 C45_4 1_555 1_555
H60_4 C90_4 1_555 1_555
C91_4 C42_4 1_555 1_555
H61_4 C91_4 1_555 1_555
C92_5 C53_4 1_555 1_555
H62_4 C92_5 1_555 1_555
C93_4 C20_4 1_555 1_555
H63_4 C93_4 1_555 1_555
N1_3 C56_3 1_555 1_555
N2_4 C2_4 1_555 1_555
N3_3 C36_3 1_555 1_555
N4_3 C56_3 1_555 1_555
N5_4 N1_3 1_555 1_555
H64_4 N5_4 1_555 1_555
H65_3 N5_4 1_555 1_555
N10_2 C76_4 1_555 1_555
N7_3 C38_4 1_555 1_555
N8_4 C10_4 1_555 1_555
N9_4 C34_4 1_555 1_555
O14_3 C87_4 1_555 1_555
O4_4 C39_4 1_555 1_555
O17_3 C15_4 1_555 1_555
O6_4 C39_4 1_555 1_555
O7_4 C2_4 1_555 1_555
O18_3 C15_4 1_555 1_555
O11_4 C44_4 1_555 1_555
O21_3 C87_4 1_555 1_555
O13_4 C44_4 1_555 1_555
Cu1_3 N3_3 1_555 1_555
Cu6_2 O6_4 1_555 1_555
Cu3_3 O4_4 1_555 1_555
O15_3 Cu1_3 1_555 1_555
O16_3 Cu3_3 1_555 1_555
O17_4 Cu3_3 1_555 1_555
O18_4 Cu1_3 1_555 1_555
O19_3 Cu3_3 1_555 1_555
O20_3 Cu6_2 1_555 1_555
C4_4 N2_4 1_555 1_555
C6_4 N2_4 1_555 1_555
C9_4 C46_4 1_555 1_555
C12_4 C27_4 1_555 1_555
C13_4 N8_4 1_555 1_555
C14_4 N8_4 1_555 1_555
C24_4 C79_4 1_555 1_555
C28_4 C61_4 1_555 1_555
C40_4 C82_4 1_555 1_555
C40_4 C93_4 1_555 1_555
C41_3 N3_3 1_555 1_555
C43_4 C62_4 1_555 1_555
C43_4 C83_4 1_555 1_555
C47_4 N9_4 1_555 1_555
C49_3 C54_3 1_555 1_555
C52_4 C89_4 1_555 1_555
C53_4 N9_4 1_555 1_555
C55_4 C69_4 1_555 1_555
C63_4 C64_4 1_555 1_555
C66_4 C70_4 1_555 1_555
C66_4 C86_4 1_555 1_555
C69_4 C79_4 1_555 1_555
C71_4 C92_5 1_555 1_555
C73_4 C91_4 1_555 1_555
C75_4 C85_4 1_555 1_555
C78_4 N10_2 1_555 1_555
C81_4 C90_4 1_555 1_555
N4_3 N7_3 1_555 1_555
O7_4 Cu3_3 1_555 1_555
O11_4 Cu3_3 1_555 1_555
O13_4 Cu1_3 1_555 1_555
C1_5 H1_5 1_555 1_555
C2_5 H2_5 1_555 1_555
C3_5 H3_5 1_555 1_555
C4_5 H4_5 1_555 1_555
H5_5 C4_5 1_555 1_555
H6_5 C4_5 1_555 1_555
C5_5 C1_5 1_555 1_555
H7_5 C5_5 1_555 1_555
C6_5 H8_5 1_555 1_555
H9_5 C6_5 1_555 1_555
H10_5 C6_5 1_555 1_555
C7_5 H11_5 1_555 1_555
C8_5 H12_5 1_555 1_555
C9_5 H13_5 1_555 1_555
C10_5 C16_5 1_555 1_555
C11_5 C27_5 1_555 1_555
C12_5 H14_5 1_555 1_555
C13_5 C7_5 1_555 1_555
C14_5 C84_5 1_555 1_555
C15_5 C46_5 1_555 1_555
C16_5 H15_5 1_555 1_555
C17_5 H16_5 1_555 1_555
C19_5 C20_5 1_555 1_555
C20_5 H17_5 1_555 1_555
C21_5 H18_5 1_555 1_555
C22_5 C10_5 1_555 1_555
H19_5 C22_5 1_555 1_555
C23_5 C3_5 1_555 1_555
H20_5 C23_5 1_555 1_555
C24_5 C12_5 1_555 1_555
H21_5 C24_5 1_555 1_555
C25_5 C32_5 1_555 1_555
C26_5 C9_5 1_555 1_555
H22_5 C26_5 1_555 1_555
C27_5 C3_5 1_555 1_555
C28_5 C52_5 1_555 1_555
C29_5 C21_5 1_555 1_555
H23_5 C29_5 1_555 1_555
C30_5 C29_5 1_555 1_555
C31_5 C19_5 1_555 1_555
H24_5 C31_5 1_555 1_555
C32_5 C17_5 1_555 1_555
H25_5 C32_5 1_555 1_555
C33_5 C30_5 1_555 1_555
C34_5 C5_5 1_555 1_555
C35_5 C30_5 1_555 1_555
H26_5 C35_5 1_555 1_555
C36_4 H27_4 1_555 1_555
C37_5 C16_5 1_555 1_555
H28_5 C37_5 1_555 1_555
C39_5 C83_5 1_555 1_555
C40_5 C70_5 1_555 1_555
C41_4 H29_5 1_555 1_555
C42_5 C81_5 1_555 1_555
C43_5 H30_5 1_555 1_555
C44_5 C19_5 1_555 1_555
C45_5 C57_5 1_555 1_555
C46_5 C8_5 1_555 1_555
C47_5 C58_5 1_555 1_555
C48_5 C33_5 1_555 1_555
H31_5 C48_5 1_555 1_555
C49_4 C51_4 1_555 1_555
C50_5 C25_5 1_555 1_555
C51_4 C41_4 1_555 1_555
H32_4 C51_4 1_555 1_555
C52_5 C26_5 1_555 1_555
C53_5 C88_5 1_555 1_555
C54_4 C36_4 1_555 1_555
H33_4 C54_4 1_555 1_555
C55_5 C22_5 1_555 1_555
H34_5 C55_5 1_555 1_555
C56_4 C49_4 1_555 1_555
C57_5 C1_5 1_555 1_555
C58_5 H35_5 1_555 1_555
C59_5 C47_5 1_555 1_555
H36_5 C59_5 1_555 1_555
C60_5 H37_5 1_555 1_555
C61_5 C7_5 1_555 1_555
H38_5 C61_5 1_555 1_555
C62_5 C25_5 1_555 1_555
H39_5 C62_5 1_555 1_555
C63_5 C13_5 1_555 1_555
H40_5 C63_5 1_555 1_555
C64_5 C28_5 1_555 1_555
H41_5 C64_5 1_555 1_555
C66_5 H43_5 1_555 1_555
C67_5 C35_5 1_555 1_555
H44_5 C67_5 1_555 1_555
C68_5 C33_5 1_555 1_555
H45_5 C68_5 1_555 1_555
C69_5 C37_5 1_555 1_555
C70_5 C60_5 1_555 1_555
C71_5 C50_5 1_555 1_555
H46_5 C71_5 1_555 1_555
C73_5 C45_5 1_555 1_555
H48_5 C73_5 1_555 1_555
C74_5 C77_5 1_555 1_555
C75_5 C34_5 1_555 1_555
H49_5 C75_5 1_555 1_555
C77_5 C21_5 1_555 1_555
C79_5 C23_5 1_555 1_555
C80_5 C50_5 1_555 1_555
H52_5 C80_5 1_555 1_555
C81_5 H53_5 1_555 1_555
C82_5 C31_5 1_555 1_555
H54_5 C82_5 1_555 1_555
C83_5 C17_5 1_555 1_555
C84_5 C60_5 1_555 1_555
H55_5 C84_5 1_555 1_555
C85_5 C57_5 1_555 1_555
H56_5 C85_5 1_555 1_555
C86_5 C14_5 1_555 1_555
H57_5 C86_5 1_555 1_555
C88_5 C80_5 1_555 1_555
H58_5 C88_5 1_555 1_555
C89_5 C8_5 1_555 1_555
H59_5 C89_5 1_555 1_555
C90_5 C45_5 1_555 1_555
H60_5 C90_5 1_555 1_555
C91_5 C42_5 1_555 1_555
H61_5 C91_5 1_555 1_555
C92_6 C53_5 1_555 1_555
H62_5 C92_6 1_555 1_555
C93_5 C20_5 1_555 1_555
H63_5 C93_5 1_555 1_555
N1_4 C56_4 1_555 1_555
N2_5 C2_5 1_555 1_555
N3_4 C36_4 1_555 1_555
N4_4 C56_4 1_555 1_555
N8_5 C10_5 1_555 1_555
N9_5 C34_5 1_555 1_555
O15_3 C11_5 1_555 1_555
O16_3 C11_5 1_555 1_555
O4_5 C39_5 1_555 1_555
O17_2 C15_5 1_555 1_555
O6_5 C39_5 1_555 1_555
O7_5 C2_5 1_555 1_555
O18_2 C15_5 1_555 1_555
O19_3 C74_5 1_555 1_555
O20_3 C74_5 1_555 1_555
O11_5 C44_5 1_555 1_555
O13_5 C44_5 1_555 1_555
Cu1_4 N3_4 1_555 1_555
Cu2_3 O6_5 1_555 1_555
Cu3_4 O4_5 1_555 1_555
N10_3 Cu2_3 1_555 1_555
O14_5 Cu2_3 1_555 1_555
O15_4 Cu1_4 1_555 1_555
O16_4 Cu3_4 1_555 1_555
O17_5 Cu3_4 1_555 1_555
O18_5 Cu1_4 1_555 1_555
O19_4 Cu3_4 1_555 1_555
O20_4 Cu2_3 1_555 1_555
O21_5 Cu2_3 1_555 1_555
C4_5 N2_5 1_555 1_555
C6_5 N2_5 1_555 1_555
C9_5 C46_5 1_555 1_555
C12_5 C27_5 1_555 1_555
C13_5 N8_5 1_555 1_555
C14_5 N8_5 1_555 1_555
C24_5 C79_5 1_555 1_555
C28_5 C61_5 1_555 1_555
C40_5 C82_5 1_555 1_555
C40_5 C93_5 1_555 1_555
C41_4 N3_4 1_555 1_555
C43_5 C62_5 1_555 1_555
C43_5 C83_5 1_555 1_555
C47_5 N9_5 1_555 1_555
C48_5 C59_5 1_555 1_555
C49_4 C54_4 1_555 1_555
C52_5 C89_5 1_555 1_555
C53_5 N9_5 1_555 1_555
C55_5 C69_5 1_555 1_555
C58_5 C68_5 1_555 1_555
C63_5 C64_5 1_555 1_555
C66_5 C70_5 1_555 1_555
C66_5 C86_5 1_555 1_555
C67_5 C77_5 1_555 1_555
C69_5 C79_5 1_555 1_555
C71_5 C92_6 1_555 1_555
C73_5 C91_5 1_555 1_555
C75_5 C85_5 1_555 1_555
C81_5 C90_5 1_555 1_555
N4_4 N7_4 1_555 1_555
O7_5 Cu3_4 1_555 1_555
O11_5 Cu3_4 1_555 1_555
O13_5 Cu1_4 1_555 1_555
C18_5 C38_5 1_555 1_555
C65_5 C18_5 1_555 1_555
H42_5 C65_5 1_555 1_555
C72_5 C18_5 1_555 1_555
H47_5 C72_5 1_555 1_555
C76_5 C65_5 1_555 1_555
H50_5 C76_5 1_555 1_555
C78_5 C72_5 1_555 1_555
H51_5 C78_5 1_555 1_555
H64_5 N5_5 1_555 1_555
N6_3 C76_5 1_555 1_555
O14_2 C87_5 1_555 1_555
O21_2 C87_5 1_555 1_555
Cu6_3 N6_3 1_555 1_555
C78_5 N6_3 1_555 1_555
C1_6 H1_6 1_555 1_555
C5_6 C1_6 1_555 1_555
H7_6 C5_6 1_555 1_555
C7_6 H11_6 1_555 1_555
C8_6 H12_6 1_555 1_555
C9_6 H13_6 1_555 1_555
C13_6 C7_6 1_555 1_555
C15_6 C46_6 1_555 1_555
C17_6 H16_6 1_555 1_555
C18_6 C38_6 1_555 1_555
C25_6 C32_6 1_555 1_555
C26_6 C9_6 1_555 1_555
H22_6 C26_6 1_555 1_555
C28_6 C52_6 1_555 1_555
H24_6 C31_6 1_555 1_555
C32_6 C17_6 1_555 1_555
H25_6 C32_6 1_555 1_555
C34_6 C5_6 1_555 1_555
C36_5 H27_5 1_555 1_555
C38_6 N1_5 1_555 1_555
C41_5 H29_6 1_555 1_555
C42_6 C81_6 1_555 1_555
C45_6 C57_6 1_555 1_555
C46_6 C8_6 1_555 1_555
C49_5 C51_5 1_555 1_555
C50_6 C25_6 1_555 1_555
C51_5 C41_5 1_555 1_555
H32_5 C51_5 1_555 1_555
C52_6 C26_6 1_555 1_555
C53_6 C88_6 1_555 1_555
C54_5 C36_5 1_555 1_555
H33_5 C54_5 1_555 1_555
C56_5 C49_5 1_555 1_555
C57_6 C1_6 1_555 1_555
C61_6 C7_6 1_555 1_555
H38_6 C61_6 1_555 1_555
C64_6 C28_6 1_555 1_555
C65_6 C18_6 1_555 1_555
H42_6 C65_6 1_555 1_555
C72_6 C18_6 1_555 1_555
H47_6 C72_6 1_555 1_555
C73_6 C45_6 1_555 1_555
H48_6 C73_6 1_555 1_555
C75_6 C34_6 1_555 1_555
H49_6 C75_6 1_555 1_555
C76_6 C65_6 1_555 1_555
H50_6 C76_6 1_555 1_555
C78_6 C72_6 1_555 1_555
H51_6 C78_6 1_555 1_555
C80_6 C50_6 1_555 1_555
H52_6 C80_6 1_555 1_555
C81_6 H53_6 1_555 1_555
C82_6 C31_6 1_555 1_555
H54_6 C82_6 1_555 1_555
C85_6 C57_6 1_555 1_555
H56_6 C85_6 1_555 1_555
C87_6 C42_6 1_555 1_555
C88_6 C80_6 1_555 1_555
H58_6 C88_6 1_555 1_555
C89_6 C8_6 1_555 1_555
H59_6 C89_6 1_555 1_555
C90_6 C45_6 1_555 1_555
H60_6 C90_6 1_555 1_555
C91_6 C42_6 1_555 1_555
H61_6 C91_6 1_555 1_555
C92_7 C53_6 1_555 1_555
N1_5 C56_5 1_555 1_555
N3_5 C36_5 1_555 1_555
N4_5 C56_5 1_555 1_555
N5_6 N1_5 1_555 1_555
H64_6 N5_6 1_555 1_555
H65_5 N5_6 1_555 1_555
N6_4 C76_6 1_555 1_555
N7_5 C38_6 1_555 1_555
N9_6 C34_6 1_555 1_555
O14_5 C87_6 1_555 1_555
O17_5 C15_6 1_555 1_555
O18_5 C15_6 1_555 1_555
O21_5 C87_6 1_555 1_555
O13_6 C44_6 1_555 1_555
Cu4 N3_5 1_555 1_555
Cu8 N6_4 1_555 1_555
C9_6 C46_6 1_555 1_555
C28_6 C61_6 1_555 1_555
C41_5 N3_5 1_555 1_555
C47_6 N9_6 1_555 1_555
C49_5 C54_5 1_555 1_555
C52_6 C89_6 1_555 1_555
C53_6 N9_6 1_555 1_555
C73_6 C91_6 1_555 1_555
C75_6 C85_6 1_555 1_555
C78_6 N6_4 1_555 1_555
C81_6 C90_6 1_555 1_555
N4_5 N7_5 1_555 1_555
O13_6 Cu4 1_555 1_555
C21_6 H18_6 1_555 1_555
C29_6 C21_6 1_555 1_555
H23_6 C29_6 1_555 1_555
C30_6 C29_6 1_555 1_555
C33_6 C30_6 1_555 1_555
C35_6 C30_6 1_555 1_555
H26_6 C35_6 1_555 1_555
C48_6 C33_6 1_555 1_555
C67_6 C35_6 1_555 1_555
H44_6 C67_6 1_555 1_555
C68_6 C33_6 1_555 1_555
H45_6 C68_6 1_555 1_555
C74_6 C77_6 1_555 1_555
C77_6 C21_6 1_555 1_555
O2_4 C11_6 1_555 1_555
O3_4 C11_6 1_555 1_555
O9_4 C74_6 1_555 1_555
O10_4 C74_6 1_555 1_555
Cu5_3 O2_4 1_555 1_555
Cu6_3 O10_4 1_555 1_555
Cu10_3 O3_4 1_555 1_555
C67_6 C77_6 1_555 1_555
O9_4 Cu10_3 1_555 1_555
C2_6 H2_6 1_555 1_555
C4_6 H4_6 1_555 1_555
H5_6 C4_6 1_555 1_555
H6_6 C4_6 1_555 1_555
C6_6 H8_6 1_555 1_555
H9_6 C6_6 1_555 1_555
H10_6 C6_6 1_555 1_555
C10_6 C16_6 1_555 1_555
C12_6 H14_6 1_555 1_555
C14_6 C84_6 1_555 1_555
C16_6 H15_6 1_555 1_555
C19_6 C20_6 1_555 1_555
C20_6 H17_6 1_555 1_555
C22_6 C10_6 1_555 1_555
H19_6 C22_6 1_555 1_555
C23_6 C3_6 1_555 1_555
H20_6 C23_6 1_555 1_555
C24_6 C12_6 1_555 1_555
H21_6 C24_6 1_555 1_555
C27_6 C3_6 1_555 1_555
C37_6 C16_6 1_555 1_555
H28_6 C37_6 1_555 1_555
C39_6 C83_6 1_555 1_555
C40_6 C70_6 1_555 1_555
C55_6 C22_6 1_555 1_555
H34_6 C55_6 1_555 1_555
H36_6 C59_6 1_555 1_555
C60_6 H37_6 1_555 1_555
H39_6 C62_6 1_555 1_555
H40_6 C63_6 1_555 1_555
C66_6 H43_6 1_555 1_555
C69_6 C37_6 1_555 1_555
C70_6 C60_6 1_555 1_555
H46_6 C71_6 1_555 1_555
C79_6 C23_6 1_555 1_555
C84_6 C60_6 1_555 1_555
H55_6 C84_6 1_555 1_555
C86_6 C14_6 1_555 1_555
H57_6 C86_6 1_555 1_555
H62_6 C92_8 1_555 1_555
C93_6 C20_6 1_555 1_555
H63_6 C93_6 1_555 1_555
N2_6 C2_6 1_555 1_555
N8_6 C10_6 1_555 1_555
O6_6 C39_6 1_555 1_555
O7_6 C2_6 1_555 1_555
Cu7 O6_6 1_555 1_555
C4_6 N2_6 1_555 1_555
C6_6 N2_6 1_555 1_555
C12_6 C27_6 1_555 1_555
C14_6 N8_6 1_555 1_555
C24_6 C79_6 1_555 1_555
C40_6 C93_6 1_555 1_555
C43_6 C62_6 1_555 1_555
C43_6 C83_6 1_555 1_555
C55_6 C69_6 1_555 1_555
C66_6 C70_6 1_555 1_555
C66_6 C86_6 1_555 1_555
C69_6 C79_6 1_555 1_555
C71_6 C92_8 1_555 1_555
O7_6 Cu9 1_555 1_555
O11_6 Cu9 1_555 1_555
C1_7 H1_7 1_555 1_555
C2_7 H2_7 1_555 1_555
C3_7 H3_7 1_555 1_555
C4_7 H4_7 1_555 1_555
H5_7 C4_7 1_555 1_555
H6_7 C4_7 1_555 1_555
C5_7 C1_7 1_555 1_555
H7_7 C5_7 1_555 1_555
C6_7 H8_7 1_555 1_555
H9_7 C6_7 1_555 1_555
H10_7 C6_7 1_555 1_555
C7_7 H11_7 1_555 1_555
C10_7 C16_7 1_555 1_555
C11_7 C27_7 1_555 1_555
C12_7 H14_7 1_555 1_555
C13_7 C7_7 1_555 1_555
C14_7 C84_7 1_555 1_555
C16_7 H15_7 1_555 1_555
C17_7 H16_7 1_555 1_555
C19_7 C20_7 1_555 1_555
C20_7 H17_7 1_555 1_555
C21_7 H18_7 1_555 1_555
C22_7 C10_7 1_555 1_555
H19_7 C22_7 1_555 1_555
C23_7 C3_7 1_555 1_555
H20_7 C23_7 1_555 1_555
C24_7 C12_7 1_555 1_555
H21_7 C24_7 1_555 1_555
C25_7 C32_7 1_555 1_555
C27_7 C3_7 1_555 1_555
C29_7 C21_7 1_555 1_555
H23_7 C29_7 1_555 1_555
C30_7 C29_7 1_555 1_555
C31_7 C19_7 1_555 1_555
H24_7 C31_7 1_555 1_555
C32_7 C17_7 1_555 1_555
H25_7 C32_7 1_555 1_555
C33_7 C30_7 1_555 1_555
C34_7 C5_7 1_555 1_555
C35_7 C30_7 1_555 1_555
H26_7 C35_7 1_555 1_555
C37_7 C16_7 1_555 1_555
H28_7 C37_7 1_555 1_555
C39_7 C83_7 1_555 1_555
C40_7 C70_7 1_555 1_555
C42_7 C81_7 1_555 1_555
C43_7 H30_7 1_555 1_555
C44_7 C19_7 1_555 1_555
C45_7 C57_7 1_555 1_555
C47_7 C58_6 1_555 1_555
C48_7 C33_7 1_555 1_555
H31_7 C48_7 1_555 1_555
C50_7 C25_7 1_555 1_555
C53_7 C88_7 1_555 1_555
C55_7 C22_7 1_555 1_555
H34_7 C55_7 1_555 1_555
C57_7 C1_7 1_555 1_555
C58_6 H35_6 1_555 1_555
C59_7 C47_7 1_555 1_555
H36_7 C59_7 1_555 1_555
C60_7 H37_7 1_555 1_555
C61_7 C7_7 1_555 1_555
C62_7 C25_7 1_555 1_555
H39_7 C62_7 1_555 1_555
C63_7 C13_7 1_555 1_555
H40_7 C63_7 1_555 1_555
C67_7 C35_7 1_555 1_555
H44_7 C67_7 1_555 1_555
C68_7 C33_7 1_555 1_555
H45_7 C68_7 1_555 1_555
C69_7 C37_7 1_555 1_555
C70_7 C60_7 1_555 1_555
C71_7 C50_7 1_555 1_555
H46_7 C71_7 1_555 1_555
C73_7 C45_7 1_555 1_555
H48_7 C73_7 1_555 1_555
C74_7 C77_7 1_555 1_555
C75_7 C34_7 1_555 1_555
H49_7 C75_7 1_555 1_555
C77_7 C21_7 1_555 1_555
C79_7 C23_7 1_555 1_555
C80_7 C50_7 1_555 1_555
H52_7 C80_7 1_555 1_555
C81_7 H53_7 1_555 1_555
C82_7 C31_7 1_555 1_555
H54_7 C82_7 1_555 1_555
C83_7 C17_7 1_555 1_555
C84_7 C60_7 1_555 1_555
H55_7 C84_7 1_555 1_555
C85_7 C57_7 1_555 1_555
H56_7 C85_7 1_555 1_555
C86_7 C14_7 1_555 1_555
C87_7 C42_7 1_555 1_555
C88_7 C80_7 1_555 1_555
H58_7 C88_7 1_555 1_555
C90_7 C45_7 1_555 1_555
H60_7 C90_7 1_555 1_555
C91_7 C42_7 1_555 1_555
H61_7 C91_7 1_555 1_555
C92_9 C53_7 1_555 1_555
H62_7 C92_9 1_555 1_555
C93_7 C20_7 1_555 1_555
H63_7 C93_7 1_555 1_555
N2_7 C2_7 1_555 1_555
N8_7 C10_7 1_555 1_555
N9_7 C34_7 1_555 1_555
O14_4 C87_7 1_555 1_555
O16_2 C11_7 1_555 1_555
O4_7 C39_7 1_555 1_555
O6_7 C39_7 1_555 1_555
O7_7 C2_7 1_555 1_555
O19_2 C74_7 1_555 1_555
O20_2 C74_7 1_555 1_555
O11_7 C44_7 1_555 1_555
O21_4 C87_7 1_555 1_555
O13_7 C44_7 1_555 1_555
Cu6_3 O6_7 1_555 1_555
Cu10_3 O4_7 1_555 1_555
O14_6 Cu6_3 1_555 1_555
O17_6 Cu10_3 1_555 1_555
O18_6 Cu5_3 1_555 1_555
O21_6 Cu6_3 1_555 1_555
C4_7 N2_7 1_555 1_555
C6_7 N2_7 1_555 1_555
C12_7 C27_7 1_555 1_555
C13_7 N8_7 1_555 1_555
C14_7 N8_7 1_555 1_555
C24_7 C79_7 1_555 1_555
C40_7 C82_7 1_555 1_555
C40_7 C93_7 1_555 1_555
C43_7 C62_7 1_555 1_555
C43_7 C83_7 1_555 1_555
C47_7 N9_7 1_555 1_555
C48_7 C59_7 1_555 1_555
C53_7 N9_7 1_555 1_555
C55_7 C69_7 1_555 1_555
C58_6 C68_7 1_555 1_555
C66_7 C70_7 1_555 1_555
C66_7 C86_7 1_555 1_555
C67_7 C77_7 1_555 1_555
C69_7 C79_7 1_555 1_555
C71_7 C92_9 1_555 1_555
C73_7 C91_7 1_555 1_555
C75_7 C85_7 1_555 1_555
C81_7 C90_7 1_555 1_555
O7_7 Cu10_3 1_555 1_555
O11_7 Cu10_3 1_555 1_555
O13_7 Cu5_3 1_555 1_555
C8_7 H12_7 1_555 1_555
C9_7 H13_7 1_555 1_555
C15_7 C46_7 1_555 1_555
C18_7 C38_7 1_555 1_555
C26_7 C9_7 1_555 1_555
H22_7 C26_7 1_555 1_555
C28_7 C52_7 1_555 1_555
C36_6 H27_6 1_555 1_555
C38_7 N1_6 1_555 1_555
C46_7 C8_7 1_555 1_555
C49_6 C51_6 1_555 1_555
C51_6 C41_6 1_555 1_555
H32_6 C51_6 1_555 1_555
C52_7 C26_7 1_555 1_555
C54_6 C36_6 1_555 1_555
H33_6 C54_6 1_555 1_555
C56_6 C49_6 1_555 1_555
C64_7 C28_7 1_555 1_555
H41_7 C64_7 1_555 1_555
C65_7 C18_7 1_555 1_555
H42_7 C65_7 1_555 1_555
C72_7 C18_7 1_555 1_555
H47_7 C72_7 1_555 1_555
C76_7 C65_7 1_555 1_555
H50_7 C76_7 1_555 1_555
C78_7 C72_7 1_555 1_555
H51_7 C78_7 1_555 1_555
C89_7 C8_7 1_555 1_555
H59_7 C89_7 1_555 1_555
N1_6 C56_6 1_555 1_555
N3_6 C36_6 1_555 1_555
N4_6 C56_6 1_555 1_555
N5_7 N1_6 1_555 1_555
H64_7 N5_7 1_555 1_555
H65_6 N5_7 1_555 1_555
N10_3 C76_7 1_555 1_555
N7_6 C38_7 1_555 1_555
O17_4 C15_7 1_555 1_555
O18_4 C15_7 1_555 1_555
C9_7 C46_7 1_555 1_555
C41_6 N3_6 1_555 1_555
C49_6 C54_6 1_555 1_555
C52_7 C89_7 1_555 1_555
C78_7 N10_3 1_555 1_555
N4_6 N7_6 1_555 1_555
C1_8 H1_8 1_555 1_555
C2_8 H2_8 1_555 1_555
C3_8 H3_8 1_555 1_555
C4_8 H4_8 1_555 1_555
H5_8 C4_8 1_555 1_555
H6_8 C4_8 1_555 1_555
C5_8 C1_8 1_555 1_555
H7_8 C5_8 1_555 1_555
C6_8 H8_8 1_555 1_555
H9_8 C6_8 1_555 1_555
H10_8 C6_8 1_555 1_555
C7_8 H11_8 1_555 1_555
C8_8 H12_8 1_555 1_555
C9_8 H13_8 1_555 1_555
C10_8 C16_8 1_555 1_555
C11_8 C27_8 1_555 1_555
C12_8 H14_8 1_555 1_555
C13_8 C7_8 1_555 1_555
C14_8 C84_8 1_555 1_555
C15_8 C46_8 1_555 1_555
C16_8 H15_8 1_555 1_555
C17_8 H16_8 1_555 1_555
C18_8 C38_8 1_555 1_555
C19_8 C20_8 1_555 1_555
C20_8 H17_8 1_555 1_555
C21_8 H18_8 1_555 1_555
C22_8 C10_8 1_555 1_555
H19_8 C22_8 1_555 1_555
C23_8 C3_8 1_555 1_555
H20_8 C23_8 1_555 1_555
C24_8 C12_8 1_555 1_555
H21_8 C24_8 1_555 1_555
C25_8 C32_8 1_555 1_555
C26_8 C9_8 1_555 1_555
H22_8 C26_8 1_555 1_555
C27_8 C3_8 1_555 1_555
C28_8 C52_8 1_555 1_555
C29_8 C21_8 1_555 1_555
H23_8 C29_8 1_555 1_555
C30_8 C29_8 1_555 1_555
C31_8 C19_8 1_555 1_555
H24_8 C31_8 1_555 1_555
C32_8 C17_8 1_555 1_555
H25_8 C32_8 1_555 1_555
C33_8 C30_8 1_555 1_555
C34_8 C5_8 1_555 1_555
C35_8 C30_8 1_555 1_555
H26_8 C35_8 1_555 1_555
C36_7 H27_7 1_555 1_555
C37_8 C16_8 1_555 1_555
H28_8 C37_8 1_555 1_555
C38_8 N1_7 1_555 1_555
C39_8 C83_8 1_555 1_555
C40_8 C70_8 1_555 1_555
C41_7 H29_8 1_555 1_555
C42_8 C81_8 1_555 1_555
C43_8 H30_8 1_555 1_555
C44_8 C19_8 1_555 1_555
C45_8 C57_8 1_555 1_555
C46_8 C8_8 1_555 1_555
C47_8 C58_7 1_555 1_555
C48_8 C33_8 1_555 1_555
H31_8 C48_8 1_555 1_555
C49_7 C51_7 1_555 1_555
C50_8 C25_8 1_555 1_555
C51_7 C41_7 1_555 1_555
H32_7 C51_7 1_555 1_555
C52_8 C26_8 1_555 1_555
C53_8 C88_8 1_555 1_555
C54_7 C36_7 1_555 1_555
H33_7 C54_7 1_555 1_555
C55_8 C22_8 1_555 1_555
H34_8 C55_8 1_555 1_555
C56_7 C49_7 1_555 1_555
C57_8 C1_8 1_555 1_555
C58_7 H35_7 1_555 1_555
C59_8 C47_8 1_555 1_555
H36_8 C59_8 1_555 1_555
C60_8 H37_8 1_555 1_555
C61_8 C7_8 1_555 1_555
H38_8 C61_8 1_555 1_555
C62_8 C25_8 1_555 1_555
H39_8 C62_8 1_555 1_555
C63_8 C13_8 1_555 1_555
H40_8 C63_8 1_555 1_555
C64_8 C28_8 1_555 1_555
H41_8 C64_8 1_555 1_555
C65_8 C18_8 1_555 1_555
H42_8 C65_8 1_555 1_555
C66_8 H43_8 1_555 1_555
C67_8 C35_8 1_555 1_555
H44_8 C67_8 1_555 1_555
C68_8 C33_8 1_555 1_555
H45_8 C68_8 1_555 1_555
C69_8 C37_8 1_555 1_555
C70_8 C60_8 1_555 1_555
C71_8 C50_8 1_555 1_555
H46_8 C71_8 1_555 1_555
C72_8 C18_8 1_555 1_555
H47_8 C72_8 1_555 1_555
C73_8 C45_8 1_555 1_555
H48_8 C73_8 1_555 1_555
C74_8 C77_8 1_555 1_555
C75_8 C34_8 1_555 1_555
H49_8 C75_8 1_555 1_555
C76_8 C65_8 1_555 1_555
H50_8 C76_8 1_555 1_555
C77_8 C21_8 1_555 1_555
C78_8 C72_8 1_555 1_555
H51_8 C78_8 1_555 1_555
C79_8 C23_8 1_555 1_555
C80_8 C50_8 1_555 1_555
H52_8 C80_8 1_555 1_555
C81_8 H53_8 1_555 1_555
C82_8 C31_8 1_555 1_555
H54_8 C82_8 1_555 1_555
C83_8 C17_8 1_555 1_555
C84_8 C60_8 1_555 1_555
H55_8 C84_8 1_555 1_555
C85_8 C57_8 1_555 1_555
H56_8 C85_8 1_555 1_555
C86_8 C14_8 1_555 1_555
H57_8 C86_8 1_555 1_555
C87_8 C42_8 1_555 1_555
C88_8 C80_8 1_555 1_555
H58_8 C88_8 1_555 1_555
C89_8 C8_8 1_555 1_555
H59_8 C89_8 1_555 1_555
C90_8 C45_8 1_555 1_555
H60_8 C90_8 1_555 1_555
C91_8 C42_8 1_555 1_555
H61_8 C91_8 1_555 1_555
C92_10 C53_8 1_555 1_555
H62_8 C92_10 1_555 1_555
C93_8 C20_8 1_555 1_555
H63_8 C93_8 1_555 1_555
N1_7 C56_7 1_555 1_555
N2_8 C2_8 1_555 1_555
N3_7 C36_7 1_555 1_555
N4_7 C56_7 1_555 1_555
N5_8 N1_7 1_555 1_555
H64_8 N5_8 1_555 1_555
H65_7 N5_8 1_555 1_555
N10_4 C76_8 1_555 1_555
N7_7 C38_8 1_555 1_555
N8_8 C10_8 1_555 1_555
N9_8 C34_8 1_555 1_555
O14_6 C87_8 1_555 1_555
O15_4 C11_8 1_555 1_555
O16_4 C11_8 1_555 1_555
O4_8 C39_8 1_555 1_555
O17_6 C15_8 1_555 1_555
O6_8 C39_8 1_555 1_555
O7_8 C2_8 1_555 1_555
O18_6 C15_8 1_555 1_555
O19_4 C74_8 1_555 1_555
O20_4 C74_8 1_555 1_555
O11_8 C44_8 1_555 1_555
O21_6 C87_8 1_555 1_555
O13_8 C44_8 1_555 1_555
Cu5 N3_7 1_555 1_555
Cu8 O6_8 1_555 1_555
Cu10 O4_8 1_555 1_555
C4_8 N2_8 1_555 1_555
C6_8 N2_8 1_555 1_555
C9_8 C46_8 1_555 1_555
C12_8 C27_8 1_555 1_555
C13_8 N8_8 1_555 1_555
C14_8 N8_8 1_555 1_555
C24_8 C79_8 1_555 1_555
C28_8 C61_8 1_555 1_555
C40_8 C82_8 1_555 1_555
C40_8 C93_8 1_555 1_555
C41_7 N3_7 1_555 1_555
C43_8 C62_8 1_555 1_555
C43_8 C83_8 1_555 1_555
C47_8 N9_8 1_555 1_555
C48_8 C59_8 1_555 1_555
C49_7 C54_7 1_555 1_555
C52_8 C89_8 1_555 1_555
C53_8 N9_8 1_555 1_555
C55_8 C69_8 1_555 1_555
C58_7 C68_8 1_555 1_555
C63_8 C64_8 1_555 1_555
C66_8 C70_8 1_555 1_555
C66_8 C86_8 1_555 1_555
C67_8 C77_8 1_555 1_555
C69_8 C79_8 1_555 1_555
C71_8 C92_10 1_555 1_555
C73_8 C91_8 1_555 1_555
C75_8 C85_8 1_555 1_555
C78_8 N10_4 1_555 1_555
C81_8 C90_8 1_555 1_555
N4_7 N7_7 1_555 1_555
O7_8 Cu10 1_555 1_555
O11_8 Cu10 1_555 1_555
O13_8 Cu5 1_555 1_555
C36_8 H27_8 1_555 1_555
C49_8 C51_8 1_555 1_555
C51_8 C41_8 1_555 1_555
H32_8 C51_8 1_555 1_555
C54_8 C36_8 1_555 1_555
H33_8 C54_8 1_555 1_555
C56_8 C49_8 1_555 1_555
N1_8 C56_8 1_555 1_555
N3_8 C36_8 1_555 1_555
N4_8 C56_8 1_555 1_555
C41_8 N3_8 1_555 1_555
C49_8 C54_8 1_555 1_555
N4_8 N7_8 1_555 1_555
O1_3 C87_9 1_555 1_555
O12_3 C87_9 1_555 1_555
C1_9 H1_9 1_555 1_555
C3_9 H3_9 1_555 1_555
C5_9 C1_9 1_555 1_555
H7_9 C5_9 1_555 1_555
C7_9 H11_9 1_555 1_555
C10_9 C16_9 1_555 1_555
C11_9 C27_9 1_555 1_555
C12_9 H14_9 1_555 1_555
C13_9 C7_9 1_555 1_555
C14_9 C84_9 1_555 1_555
C16_9 H15_9 1_555 1_555
C21_9 H18_9 1_555 1_555
C22_9 C10_9 1_555 1_555
H19_9 C22_9 1_555 1_555
C23_9 C3_9 1_555 1_555
H20_9 C23_9 1_555 1_555
C24_9 C12_9 1_555 1_555
H21_9 C24_9 1_555 1_555
C27_9 C3_9 1_555 1_555
C29_9 C21_9 1_555 1_555
H23_9 C29_9 1_555 1_555
C30_9 C29_9 1_555 1_555
C33_9 C30_9 1_555 1_555
C34_9 C5_9 1_555 1_555
C35_9 C30_9 1_555 1_555
H26_9 C35_9 1_555 1_555
C37_9 C16_9 1_555 1_555
H28_9 C37_9 1_555 1_555
C42_9 C81_9 1_555 1_555
C45_9 C57_9 1_555 1_555
C47_9 C58_8 1_555 1_555
C48_9 C33_9 1_555 1_555
H31_9 C48_9 1_555 1_555
C53_9 C88_9 1_555 1_555
C55_9 C22_9 1_555 1_555
H34_9 C55_9 1_555 1_555
C57_9 C1_9 1_555 1_555
C58_8 H35_8 1_555 1_555
C59_9 C47_9 1_555 1_555
H36_9 C59_9 1_555 1_555
C60_9 H37_9 1_555 1_555
C61_9 C7_9 1_555 1_555
C63_9 C13_9 1_555 1_555
H40_9 C63_9 1_555 1_555
C67_9 C35_9 1_555 1_555
H44_9 C67_9 1_555 1_555
C68_9 C33_9 1_555 1_555
H45_9 C68_9 1_555 1_555
C69_9 C37_9 1_555 1_555
C70_9 C60_9 1_555 1_555
H46_9 C71_9 1_555 1_555
C73_9 C45_9 1_555 1_555
H48_9 C73_9 1_555 1_555
C74_9 C77_9 1_555 1_555
C75_9 C34_9 1_555 1_555
H49_9 C75_9 1_555 1_555
C77_9 C21_9 1_555 1_555
C79_9 C23_9 1_555 1_555
C81_9 H53_9 1_555 1_555
C84_9 C60_9 1_555 1_555
H55_9 C84_9 1_555 1_555
C85_9 C57_9 1_555 1_555
H56_9 C85_9 1_555 1_555
C86_9 C14_9 1_555 1_555
C88_9 C80_9 1_555 1_555
H58_9 C88_9 1_555 1_555
C90_9 C45_9 1_555 1_555
H60_9 C90_9 1_555 1_555
C91_9 C42_9 1_555 1_555
H61_9 C91_9 1_555 1_555
C92_11 C53_9 1_555 1_555
H62_9 C92_11 1_555 1_555
N8_9 C10_9 1_555 1_555
N9_9 C34_9 1_555 1_555
O2_5 C11_9 1_555 1_555
O3_5 C11_9 1_555 1_555
O9_5 C74_9 1_555 1_555
O10_5 C74_9 1_555 1_555
Cu5_4 O2_5 1_555 1_555
Cu8_2 O10_5 1_555 1_555
Cu10_4 O3_5 1_555 1_555
C12_9 C27_9 1_555 1_555
C13_9 N8_9 1_555 1_555
C14_9 N8_9 1_555 1_555
C24_9 C79_9 1_555 1_555
C47_9 N9_9 1_555 1_555
C48_9 C59_9 1_555 1_555
C53_9 N9_9 1_555 1_555
C55_9 C69_9 1_555 1_555
C58_8 C68_9 1_555 1_555
C66_9 C70_9 1_555 1_555
C66_9 C86_9 1_555 1_555
C67_9 C77_9 1_555 1_555
C69_9 C79_9 1_555 1_555
C71_9 C92_11 1_555 1_555
C73_9 C91_9 1_555 1_555
C75_9 C85_9 1_555 1_555
C81_9 C90_9 1_555 1_555
O9_5 Cu10_4 1_555 1_555
C8_9 H12_9 1_555 1_555
C9_9 H13_9 1_555 1_555
C15_9 C46_9 1_555 1_555
C26_9 C9_9 1_555 1_555
H22_9 C26_9 1_555 1_555
C28_9 C52_9 1_555 1_555
C46_9 C8_9 1_555 1_555
C52_9 C26_9 1_555 1_555
C64_9 C28_9 1_555 1_555
H41_9 C64_9 1_555 1_555
C89_9 C8_9 1_555 1_555
H59_9 C89_9 1_555 1_555
O5_3 C15_9 1_555 1_555
O8_3 C15_9 1_555 1_555
Cu4_2 O8_3 1_555 1_555
C9_9 C46_9 1_555 1_555
C52_9 C89_9 1_555 1_555
C18_9 C38_9 1_555 1_555
C65_9 C18_9 1_555 1_555
H42_9 C65_9 1_555 1_555
C72_9 C18_9 1_555 1_555
H47_9 C72_9 1_555 1_555
C76_9 C65_9 1_555 1_555
H50_9 C76_9 1_555 1_555
C78_9 C72_9 1_555 1_555
H51_9 C78_9 1_555 1_555
H64_9 N5_9 1_555 1_555
N6_5 C76_9 1_555 1_555
Cu6_4 N6_5 1_555 1_555
C78_9 N6_5 1_555 1_555
C2_9 H2_9 1_555 1_555
C4_9 H4_9 1_555 1_555
H5_9 C4_9 1_555 1_555
H6_9 C4_9 1_555 1_555
C6_9 H8_9 1_555 1_555
H9_9 C6_9 1_555 1_555
H10_9 C6_9 1_555 1_555
C17_9 H16_9 1_555 1_555
C19_9 C20_9 1_555 1_555
C20_9 H17_9 1_555 1_555
C25_9 C32_9 1_555 1_555
C31_9 C19_9 1_555 1_555
H24_9 C31_9 1_555 1_555
C32_9 C17_9 1_555 1_555
H25_9 C32_9 1_555 1_555
C39_9 C83_9 1_555 1_555
C43_9 H30_9 1_555 1_555
C44_9 C19_9 1_555 1_555
C50_9 C25_9 1_555 1_555
C62_9 C25_9 1_555 1_555
H39_9 C62_9 1_555 1_555
C82_9 C31_9 1_555 1_555
H54_9 C82_9 1_555 1_555
C83_9 C17_9 1_555 1_555
C93_9 C20_9 1_555 1_555
H63_9 C93_9 1_555 1_555
N2_9 C2_9 1_555 1_555
O4_9 C39_9 1_555 1_555
O6_9 C39_9 1_555 1_555
O7_9 C2_9 1_555 1_555
O11_9 C44_9 1_555 1_555
O13_9 C44_9 1_555 1_555
Cu2_4 O6_9 1_555 1_555
Cu3_5 O4_9 1_555 1_555
N10_5 Cu2_4 1_555 1_555
O14_7 Cu2_4 1_555 1_555
O15_5 Cu1_5 1_555 1_555
O16_5 Cu3_5 1_555 1_555
O17_7 Cu3_5 1_555 1_555
O18_7 Cu1_5 1_555 1_555
O19_5 Cu3_5 1_555 1_555
O20_5 Cu2_4 1_555 1_555
O21_7 Cu2_4 1_555 1_555
C4_9 N2_9 1_555 1_555
C6_9 N2_9 1_555 1_555
C40_9 C82_9 1_555 1_555
C40_9 C93_9 1_555 1_555
C43_9 C62_9 1_555 1_555
C43_9 C83_9 1_555 1_555
O7_9 Cu3_5 1_555 1_555
O11_9 Cu3_5 1_555 1_555
O13_9 Cu1_5 1_555 1_555
C1_10 H1_10 1_555 1_555
C2_10 H2_10 1_555 1_555
C3_10 H3_10 1_555 1_555
C4_10 H4_10 1_555 1_555
H5_10 C4_10 1_555 1_555
H6_10 C4_10 1_555 1_555
C5_10 C1_10 1_555 1_555
H7_10 C5_10 1_555 1_555
C6_10 H8_10 1_555 1_555
H9_10 C6_10 1_555 1_555
H10_10 C6_10 1_555 1_555
C7_10 H11_10 1_555 1_555
C8_10 H12_10 1_555 1_555
C9_10 H13_10 1_555 1_555
C10_10 C16_10 1_555 1_555
C11_10 C27_10 1_555 1_555
C12_10 H14_10 1_555 1_555
C13_10 C7_10 1_555 1_555
C14_10 C84_10 1_555 1_555
C15_10 C46_10 1_555 1_555
C16_10 H15_10 1_555 1_555
C17_10 H16_10 1_555 1_555
C18_10 C38_10 1_555 1_555
C19_10 C20_10 1_555 1_555
C20_10 H17_10 1_555 1_555
C21_10 H18_10 1_555 1_555
C22_10 C10_10 1_555 1_555
H19_10 C22_10 1_555 1_555
C23_10 C3_10 1_555 1_555
H20_10 C23_10 1_555 1_555
C24_10 C12_10 1_555 1_555
H21_10 C24_10 1_555 1_555
C25_10 C32_10 1_555 1_555
C26_10 C9_10 1_555 1_555
H22_10 C26_10 1_555 1_555
C27_10 C3_10 1_555 1_555
C28_10 C52_10 1_555 1_555
C29_10 C21_10 1_555 1_555
H23_10 C29_10 1_555 1_555
C30_10 C29_10 1_555 1_555
C31_10 C19_10 1_555 1_555
H24_10 C31_10 1_555 1_555
C32_10 C17_10 1_555 1_555
H25_10 C32_10 1_555 1_555
C33_10 C30_10 1_555 1_555
C34_10 C5_10 1_555 1_555
C35_10 C30_10 1_555 1_555
H26_10 C35_10 1_555 1_555
C36_9 H27_9 1_555 1_555
C37_10 C16_10 1_555 1_555
H28_10 C37_10 1_555 1_555
C38_10 N1_9 1_555 1_555
C39_10 C83_10 1_555 1_555
C40_10 C70_10 1_555 1_555
C41_9 H29_10 1_555 1_555
C42_10 C81_10 1_555 1_555
C43_10 H30_10 1_555 1_555
C44_10 C19_10 1_555 1_555
C45_10 C57_10 1_555 1_555
C46_10 C8_10 1_555 1_555
C47_10 C58_9 1_555 1_555
C48_10 C33_10 1_555 1_555
H31_10 C48_10 1_555 1_555
C49_9 C51_9 1_555 1_555
C50_10 C25_10 1_555 1_555
C51_9 C41_9 1_555 1_555
H32_9 C51_9 1_555 1_555
C52_10 C26_10 1_555 1_555
C53_10 C88_10 1_555 1_555
C54_9 C36_9 1_555 1_555
H33_9 C54_9 1_555 1_555
C55_10 C22_10 1_555 1_555
H34_10 C55_10 1_555 1_555
C56_9 C49_9 1_555 1_555
C57_10 C1_10 1_555 1_555
C58_9 H35_9 1_555 1_555
C59_10 C47_10 1_555 1_555
H36_10 C59_10 1_555 1_555
C60_10 H37_10 1_555 1_555
C61_10 C7_10 1_555 1_555
H38_10 C61_10 1_555 1_555
C62_10 C25_10 1_555 1_555
H39_10 C62_10 1_555 1_555
C63_10 C13_10 1_555 1_555
H40_10 C63_10 1_555 1_555
C64_10 C28_10 1_555 1_555
H41_10 C64_10 1_555 1_555
C65_10 C18_10 1_555 1_555
H42_10 C65_10 1_555 1_555
C66_10 H43_10 1_555 1_555
C67_10 C35_10 1_555 1_555
H44_10 C67_10 1_555 1_555
C68_10 C33_10 1_555 1_555
H45_10 C68_10 1_555 1_555
C69_10 C37_10 1_555 1_555
C70_10 C60_10 1_555 1_555
C71_10 C50_10 1_555 1_555
H46_10 C71_10 1_555 1_555
C72_10 C18_10 1_555 1_555
H47_10 C72_10 1_555 1_555
C73_10 C45_10 1_555 1_555
H48_10 C73_10 1_555 1_555
C74_10 C77_10 1_555 1_555
C75_10 C34_10 1_555 1_555
H49_10 C75_10 1_555 1_555
C76_10 C65_10 1_555 1_555
H50_10 C76_10 1_555 1_555
C77_10 C21_10 1_555 1_555
C78_10 C72_10 1_555 1_555
H51_10 C78_10 1_555 1_555
C79_10 C23_10 1_555 1_555
C80_10 C50_10 1_555 1_555
H52_10 C80_10 1_555 1_555
C81_10 H53_10 1_555 1_555
C82_10 C31_10 1_555 1_555
H54_10 C82_10 1_555 1_555
C83_10 C17_10 1_555 1_555
C84_10 C60_10 1_555 1_555
H55_10 C84_10 1_555 1_555
C85_10 C57_10 1_555 1_555
H56_10 C85_10 1_555 1_555
C86_10 C14_10 1_555 1_555
H57_10 C86_10 1_555 1_555
C87_10 C42_10 1_555 1_555
C88_10 C80_10 1_555 1_555
H58_10 C88_10 1_555 1_555
C89_10 C8_10 1_555 1_555
H59_10 C89_10 1_555 1_555
C90_10 C45_10 1_555 1_555
H60_10 C90_10 1_555 1_555
C91_10 C42_10 1_555 1_555
H61_10 C91_10 1_555 1_555
C92_12 C53_10 1_555 1_555
H62_10 C92_12 1_555 1_555
C93_10 C20_10 1_555 1_555
H63_10 C93_10 1_555 1_555
N1_9 C56_9 1_555 1_555
N2_10 C2_10 1_555 1_555
N3_9 C36_9 1_555 1_555
N4_9 C56_9 1_555 1_555
N5_10 N1_9 1_555 1_555
H64_10 N5_10 1_555 1_555
H65_9 N5_10 1_555 1_555
N6_6 C76_10 1_555 1_555
N7_9 C38_10 1_555 1_555
N8_10 C10_10 1_555 1_555
N9_10 C34_10 1_555 1_555
O1_4 C87_10 1_555 1_555
O2_6 C11_10 1_555 1_555
O3_6 C11_10 1_555 1_555
O4_10 C39_10 1_555 1_555
O5_4 C15_10 1_555 1_555
O6_10 C39_10 1_555 1_555
O7_10 C2_10 1_555 1_555
O8_4 C15_10 1_555 1_555
O9_6 C74_10 1_555 1_555
O10_6 C74_10 1_555 1_555
O11_10 C44_10 1_555 1_555
O12_4 C87_10 1_555 1_555
O13_10 C44_10 1_555 1_555
Cu5_4 N3_9 1_555 1_555
Cu8_2 O6_10 1_555 1_555
Cu10_4 O4_10 1_555 1_555
N10_6 Cu8_2 1_555 1_555
O14_8 Cu8_2 1_555 1_555
O17_8 Cu10_4 1_555 1_555
O18_8 Cu5_4 1_555 1_555
O21_8 Cu8_2 1_555 1_555
Cu4_3 O8_4 1_555 1_555
Cu5_5 O2_6 1_555 1_555
Cu7_3 O1_4 1_555 1_555
Cu8_3 O10_6 1_555 1_555
Cu9_3 O5_4 1_555 1_555
Cu10_5 O3_6 1_555 1_555
C4_10 N2_10 1_555 1_555
C6_10 N2_10 1_555 1_555
C9_10 C46_10 1_555 1_555
C12_10 C27_10 1_555 1_555
C13_10 N8_10 1_555 1_555
C14_10 N8_10 1_555 1_555
C24_10 C79_10 1_555 1_555
C28_10 C61_10 1_555 1_555
C40_10 C82_10 1_555 1_555
C40_10 C93_10 1_555 1_555
C41_9 N3_9 1_555 1_555
C43_10 C62_10 1_555 1_555
C43_10 C83_10 1_555 1_555
C47_10 N9_10 1_555 1_555
C48_10 C59_10 1_555 1_555
C49_9 C54_9 1_555 1_555
C52_10 C89_10 1_555 1_555
C53_10 N9_10 1_555 1_555
C55_10 C69_10 1_555 1_555
C58_9 C68_10 1_555 1_555
C63_10 C64_10 1_555 1_555
C66_10 C70_10 1_555 1_555
C66_10 C86_10 1_555 1_555
C67_10 C77_10 1_555 1_555
C69_10 C79_10 1_555 1_555
C71_10 C92_12 1_555 1_555
C73_10 C91_10 1_555 1_555
C75_10 C85_10 1_555 1_555
C78_10 N6_6 1_555 1_555
C81_10 C90_10 1_555 1_555
N4_9 N7_9 1_555 1_555
O7_10 Cu10_4 1_555 1_555
O9_6 Cu10_5 1_555 1_555
O11_10 Cu10_4 1_555 1_555
O12_4 Cu7_3 1_555 1_555
O13_10 Cu5_4 1_555 1_555
C1_11 H1_11 1_555 1_555
C3_11 H3_11 1_555 1_555
C5_11 C1_11 1_555 1_555
H7_11 C5_11 1_555 1_555
C7_11 H11_11 1_555 1_555
C8_11 H12_11 1_555 1_555
C9_11 H13_11 1_555 1_555
C10_11 C16_11 1_555 1_555
C11_11 C27_11 1_555 1_555
C12_11 H14_11 1_555 1_555
C13_11 C7_11 1_555 1_555
C14_11 C84_11 1_555 1_555
C15_11 C46_11 1_555 1_555
C16_11 H15_11 1_555 1_555
C21_11 H18_11 1_555 1_555
C22_11 C10_11 1_555 1_555
H19_11 C22_11 1_555 1_555
C23_11 C3_11 1_555 1_555
H20_11 C23_11 1_555 1_555
C24_11 C12_11 1_555 1_555
H21_11 C24_11 1_555 1_555
C26_11 C9_11 1_555 1_555
H22_11 C26_11 1_555 1_555
C27_11 C3_11 1_555 1_555
C28_11 C52_11 1_555 1_555
C29_11 C21_11 1_555 1_555
H23_11 C29_11 1_555 1_555
C30_11 C29_11 1_555 1_555
C33_11 C30_11 1_555 1_555
C34_11 C5_11 1_555 1_555
C35_11 C30_11 1_555 1_555
H26_11 C35_11 1_555 1_555
C37_11 C16_11 1_555 1_555
H28_11 C37_11 1_555 1_555
C42_11 C81_11 1_555 1_555
C45_11 C57_11 1_555 1_555
C46_11 C8_11 1_555 1_555
C47_11 C58_10 1_555 1_555
C48_11 C33_11 1_555 1_555
H31_11 C48_11 1_555 1_555
C52_11 C26_11 1_555 1_555
C53_11 C88_11 1_555 1_555
C55_11 C22_11 1_555 1_555
H34_11 C55_11 1_555 1_555
C57_11 C1_11 1_555 1_555
C58_10 H35_10 1_555 1_555
C59_11 C47_11 1_555 1_555
H36_11 C59_11 1_555 1_555
C60_11 H37_11 1_555 1_555
C61_11 C7_11 1_555 1_555
H38_11 C61_11 1_555 1_555
C63_11 C13_11 1_555 1_555
H40_11 C63_11 1_555 1_555
C64_11 C28_11 1_555 1_555
H41_11 C64_11 1_555 1_555
C66_11 H43_11 1_555 1_555
C67_11 C35_11 1_555 1_555
H44_11 C67_11 1_555 1_555
C68_11 C33_11 1_555 1_555
H45_11 C68_11 1_555 1_555
C69_11 C37_11 1_555 1_555
C70_11 C60_11 1_555 1_555
H46_11 C71_11 1_555 1_555
C73_11 C45_11 1_555 1_555
H48_11 C73_11 1_555 1_555
C74_11 C77_11 1_555 1_555
C75_11 C34_11 1_555 1_555
H49_11 C75_11 1_555 1_555
C77_11 C21_11 1_555 1_555
C79_11 C23_11 1_555 1_555
C81_11 H53_11 1_555 1_555
C84_11 C60_11 1_555 1_555
H55_11 C84_11 1_555 1_555
C85_11 C57_11 1_555 1_555
H56_11 C85_11 1_555 1_555
C86_11 C14_11 1_555 1_555
H57_11 C86_11 1_555 1_555
C87_11 C42_11 1_555 1_555
C88_11 C80_11 1_555 1_555
H58_11 C88_11 1_555 1_555
C89_11 C8_11 1_555 1_555
H59_11 C89_11 1_555 1_555
C90_11 C45_11 1_555 1_555
H60_11 C90_11 1_555 1_555
C91_11 C42_11 1_555 1_555
H61_11 C91_11 1_555 1_555
C92_13 C53_11 1_555 1_555
H62_11 C92_13 1_555 1_555
N8_11 C10_11 1_555 1_555
N9_11 C34_11 1_555 1_555
O14_8 C87_11 1_555 1_555
O3_7 C11_11 1_555 1_555
O17_8 C15_11 1_555 1_555
O18_8 C15_11 1_555 1_555
O9_7 C74_11 1_555 1_555
O10_7 C74_11 1_555 1_555
O21_8 C87_11 1_555 1_555
Cu7_2 O10_7 1_555 1_555
Cu9_2 O3_7 1_555 1_555
C9_11 C46_11 1_555 1_555
C12_11 C27_11 1_555 1_555
C13_11 N8_11 1_555 1_555
C14_11 N8_11 1_555 1_555
C24_11 C79_11 1_555 1_555
C28_11 C61_11 1_555 1_555
C47_11 N9_11 1_555 1_555
C48_11 C59_11 1_555 1_555
C52_11 C89_11 1_555 1_555
C53_11 N9_11 1_555 1_555
C55_11 C69_11 1_555 1_555
C58_10 C68_11 1_555 1_555
C63_11 C64_11 1_555 1_555
C66_11 C70_11 1_555 1_555
C66_11 C86_11 1_555 1_555
C67_11 C77_11 1_555 1_555
C69_11 C79_11 1_555 1_555
C71_11 C92_13 1_555 1_555
C73_11 C91_11 1_555 1_555
C75_11 C85_11 1_555 1_555
C81_11 C90_11 1_555 1_555
O9_7 Cu9_2 1_555 1_555
Cu4_2 O2_7 1_555 1_555
C2_11 H2_11 1_555 1_555
C4_11 H4_11 1_555 1_555
H5_11 C4_11 1_555 1_555
H6_11 C4_11 1_555 1_555
C6_11 H8_11 1_555 1_555
H9_11 C6_11 1_555 1_555
H10_11 C6_11 1_555 1_555
C17_11 H16_11 1_555 1_555
C18_11 C38_11 1_555 1_555
C19_11 C20_11 1_555 1_555
C20_11 H17_11 1_555 1_555
C25_11 C32_11 1_555 1_555
C31_11 C19_11 1_555 1_555
H24_11 C31_11 1_555 1_555
C32_11 C17_11 1_555 1_555
H25_11 C32_11 1_555 1_555
C36_10 H27_10 1_555 1_555
C38_11 N1_10 1_555 1_555
C39_11 C83_11 1_555 1_555
C41_10 H29_11 1_555 1_555
C43_11 H30_11 1_555 1_555
C44_11 C19_11 1_555 1_555
C49_10 C51_10 1_555 1_555
C50_11 C25_11 1_555 1_555
C51_10 C41_10 1_555 1_555
H32_10 C51_10 1_555 1_555
C54_10 C36_10 1_555 1_555
H33_10 C54_10 1_555 1_555
C56_10 C49_10 1_555 1_555
C62_11 C25_11 1_555 1_555
H39_11 C62_11 1_555 1_555
C65_11 C18_11 1_555 1_555
H42_11 C65_11 1_555 1_555
C72_11 C18_11 1_555 1_555
H47_11 C72_11 1_555 1_555
C76_11 C65_11 1_555 1_555
H50_11 C76_11 1_555 1_555
C78_11 C72_11 1_555 1_555
H51_11 C78_11 1_555 1_555
C82_11 C31_11 1_555 1_555
H54_11 C82_11 1_555 1_555
C83_11 C17_11 1_555 1_555
C93_11 C20_11 1_555 1_555
H63_11 C93_11 1_555 1_555
N1_10 C56_10 1_555 1_555
N2_11 C2_11 1_555 1_555
N3_10 C36_10 1_555 1_555
N4_10 C56_10 1_555 1_555
N5_11 N1_10 1_555 1_555
H64_11 N5_11 1_555 1_555
H65_10 N5_11 1_555 1_555
N10_5 C76_11 1_555 1_555
N7_10 C38_11 1_555 1_555
O4_11 C39_11 1_555 1_555
O6_11 C39_11 1_555 1_555
O7_11 C2_11 1_555 1_555
O11_11 C44_11 1_555 1_555
O13_11 C44_11 1_555 1_555
Cu1_6 N3_10 1_555 1_555
Cu6_4 O6_11 1_555 1_555
Cu3_6 O4_11 1_555 1_555
O14_9 Cu6_4 1_555 1_555
O15_6 Cu1_6 1_555 1_555
O16_6 Cu3_6 1_555 1_555
O17_9 Cu3_6 1_555 1_555
O18_9 Cu1_6 1_555 1_555
O19_6 Cu3_6 1_555 1_555
O20_6 Cu6_4 1_555 1_555
O21_9 Cu6_4 1_555 1_555
C4_11 N2_11 1_555 1_555
C6_11 N2_11 1_555 1_555
C40_11 C82_11 1_555 1_555
C40_11 C93_11 1_555 1_555
C41_10 N3_10 1_555 1_555
C43_11 C62_11 1_555 1_555
C43_11 C83_11 1_555 1_555
C49_10 C54_10 1_555 1_555
C78_11 N10_5 1_555 1_555
N4_10 N7_10 1_555 1_555
O7_11 Cu3_6 1_555 1_555
O11_11 Cu3_6 1_555 1_555
O13_11 Cu1_6 1_555 1_555
C21_12 H18_12 1_555 1_555
C29_12 C21_12 1_555 1_555
H23_12 C29_12 1_555 1_555
C30_12 C29_12 1_555 1_555
C33_12 C30_12 1_555 1_555
C35_12 C30_12 1_555 1_555
H26_12 C35_12 1_555 1_555
C48_12 C33_12 1_555 1_555
C67_12 C35_12 1_555 1_555
H44_12 C67_12 1_555 1_555
C68_12 C33_12 1_555 1_555
H45_12 C68_12 1_555 1_555
C74_12 C77_12 1_555 1_555
C77_12 C21_12 1_555 1_555
O2_8 C11_12 1_555 1_555
O3_8 C11_12 1_555 1_555
O9_8 C74_12 1_555 1_555
O10_8 C74_12 1_555 1_555
Cu4_3 O2_8 1_555 1_555
Cu7_3 O10_8 1_555 1_555
Cu9_3 O3_8 1_555 1_555
C67_12 C77_12 1_555 1_555
O9_8 Cu9_3 1_555 1_555
C2_12 H2_12 1_555 1_555
C4_12 H4_12 1_555 1_555
H5_12 C4_12 1_555 1_555
H6_12 C4_12 1_555 1_555
C6_12 H8_12 1_555 1_555
H9_12 C6_12 1_555 1_555
H10_12 C6_12 1_555 1_555
C10_12 C16_12 1_555 1_555
C12_12 H14_12 1_555 1_555
C14_12 C84_12 1_555 1_555
C16_12 H15_12 1_555 1_555
C19_12 C20_12 1_555 1_555
C20_12 H17_12 1_555 1_555
C22_12 C10_12 1_555 1_555
H19_12 C22_12 1_555 1_555
C23_12 C3_12 1_555 1_555
H20_12 C23_12 1_555 1_555
C24_12 C12_12 1_555 1_555
H21_12 C24_12 1_555 1_555
C27_12 C3_12 1_555 1_555
C37_12 C16_12 1_555 1_555
H28_12 C37_12 1_555 1_555
C39_12 C83_12 1_555 1_555
C40_12 C70_12 1_555 1_555
C55_12 C22_12 1_555 1_555
H34_12 C55_12 1_555 1_555
H36_12 C59_12 1_555 1_555
C60_12 H37_12 1_555 1_555
H39_12 C62_12 1_555 1_555
H40_12 C63_12 1_555 1_555
C66_12 H43_12 1_555 1_555
C69_12 C37_12 1_555 1_555
C70_12 C60_12 1_555 1_555
H46_12 C71_12 1_555 1_555
C79_12 C23_12 1_555 1_555
C84_12 C60_12 1_555 1_555
H55_12 C84_12 1_555 1_555
C86_12 C14_12 1_555 1_555
H57_12 C86_12 1_555 1_555
H62_12 C92_14 1_555 1_555
C93_12 C20_12 1_555 1_555
H63_12 C93_12 1_555 1_555
N2_12 C2_12 1_555 1_555
N8_12 C10_12 1_555 1_555
O6_12 C39_12 1_555 1_555
O7_12 C2_12 1_555 1_555
Cu7_2 O6_12 1_555 1_555
C4_12 N2_12 1_555 1_555
C6_12 N2_12 1_555 1_555
C12_12 C27_12 1_555 1_555
C14_12 N8_12 1_555 1_555
C24_12 C79_12 1_555 1_555
C40_12 C93_12 1_555 1_555
C43_12 C62_12 1_555 1_555
C43_12 C83_12 1_555 1_555
C55_12 C69_12 1_555 1_555
C66_12 C70_12 1_555 1_555
C66_12 C86_12 1_555 1_555
C69_12 C79_12 1_555 1_555
C71_12 C92_14 1_555 1_555
O7_12 Cu9_2 1_555 1_555
O11_12 Cu9_2 1_555 1_555
C1_12 H1_12 1_555 1_555
C5_12 C1_12 1_555 1_555
H7_12 C5_12 1_555 1_555
C7_12 H11_12 1_555 1_555
C8_12 H12_12 1_555 1_555
C9_12 H13_12 1_555 1_555
C13_12 C7_12 1_555 1_555
C15_12 C46_12 1_555 1_555
C17_12 H16_12 1_555 1_555
C18_12 C38_12 1_555 1_555
C25_12 C32_12 1_555 1_555
C26_12 C9_12 1_555 1_555
H22_12 C26_12 1_555 1_555
C28_12 C52_12 1_555 1_555
H24_12 C31_12 1_555 1_555
C32_12 C17_12 1_555 1_555
H25_12 C32_12 1_555 1_555
C34_12 C5_12 1_555 1_555
C36_11 H27_11 1_555 1_555
C38_12 N1_11 1_555 1_555
C41_11 H29_12 1_555 1_555
C42_12 C81_12 1_555 1_555
C45_12 C57_12 1_555 1_555
C46_12 C8_12 1_555 1_555
C49_11 C51_11 1_555 1_555
C50_12 C25_12 1_555 1_555
C51_11 C41_11 1_555 1_555
H32_11 C51_11 1_555 1_555
C52_12 C26_12 1_555 1_555
C53_12 C88_12 1_555 1_555
C54_11 C36_11 1_555 1_555
H33_11 C54_11 1_555 1_555
C56_11 C49_11 1_555 1_555
C57_12 C1_12 1_555 1_555
C61_12 C7_12 1_555 1_555
H38_12 C61_12 1_555 1_555
C64_12 C28_12 1_555 1_555
C65_12 C18_12 1_555 1_555
H42_12 C65_12 1_555 1_555
C72_12 C18_12 1_555 1_555
H47_12 C72_12 1_555 1_555
C73_12 C45_12 1_555 1_555
H48_12 C73_12 1_555 1_555
C75_12 C34_12 1_555 1_555
H49_12 C75_12 1_555 1_555
C76_12 C65_12 1_555 1_555
H50_12 C76_12 1_555 1_555
C78_12 C72_12 1_555 1_555
H51_12 C78_12 1_555 1_555
C80_12 C50_12 1_555 1_555
H52_12 C80_12 1_555 1_555
C81_12 H53_12 1_555 1_555
C82_12 C31_12 1_555 1_555
H54_12 C82_12 1_555 1_555
C85_12 C57_12 1_555 1_555
H56_12 C85_12 1_555 1_555
C87_12 C42_12 1_555 1_555
C88_12 C80_12 1_555 1_555
H58_12 C88_12 1_555 1_555
C89_12 C8_12 1_555 1_555
H59_12 C89_12 1_555 1_555
C90_12 C45_12 1_555 1_555
H60_12 C90_12 1_555 1_555
C91_12 C42_12 1_555 1_555
H61_12 C91_12 1_555 1_555
C92_15 C53_12 1_555 1_555
N1_11 C56_11 1_555 1_555
N3_11 C36_11 1_555 1_555
N4_11 C56_11 1_555 1_555
N5_12 N1_11 1_555 1_555
H64_12 N5_12 1_555 1_555
H65_11 N5_12 1_555 1_555
N10_6 C76_12 1_555 1_555
N7_11 C38_12 1_555 1_555
N9_12 C34_12 1_555 1_555
O1_5 C87_12 1_555 1_555
O5_5 C15_12 1_555 1_555
O8_5 C15_12 1_555 1_555
O12_5 C87_12 1_555 1_555
O13_12 C44_12 1_555 1_555
Cu4_2 N3_11 1_555 1_555
Cu5_5 O8_5 1_555 1_555
Cu8_3 O1_5 1_555 1_555
Cu10_5 O5_5 1_555 1_555
C9_12 C46_12 1_555 1_555
C28_12 C61_12 1_555 1_555
C41_11 N3_11 1_555 1_555
C47_12 N9_12 1_555 1_555
C49_11 C54_11 1_555 1_555
C52_12 C89_12 1_555 1_555
C53_12 N9_12 1_555 1_555
C73_12 C91_12 1_555 1_555
C75_12 C85_12 1_555 1_555
C78_12 N10_6 1_555 1_555
C81_12 C90_12 1_555 1_555
N4_11 N7_11 1_555 1_555
O12_5 Cu8_3 1_555 1_555
O13_12 Cu4_2 1_555 1_555
C18_13 C38_13 1_555 1_555
C65_13 C18_13 1_555 1_555
H42_13 C65_13 1_555 1_555
C72_13 C18_13 1_555 1_555
H47_13 C72_13 1_555 1_555
C76_13 C65_13 1_555 1_555
H50_13 C76_13 1_555 1_555
C78_13 C72_13 1_555 1_555
H51_13 C78_13 1_555 1_555
H64_13 N5_13 1_555 1_555
N6_7 C76_13 1_555 1_555
O1_6 C87_13 1_555 1_555
O12_6 C87_13 1_555 1_555
Cu7_3 N6_7 1_555 1_555
Cu7_4 O1_6 1_555 1_555
C78_13 N6_7 1_555 1_555
O12_6 Cu7_4 1_555 1_555
C1_13 H1_13 1_555 1_555
C2_13 H2_13 1_555 1_555
C3_13 H3_13 1_555 1_555
C4_13 H4_13 1_555 1_555
H5_13 C4_13 1_555 1_555
H6_13 C4_13 1_555 1_555
C5_13 C1_13 1_555 1_555
H7_13 C5_13 1_555 1_555
C6_13 H8_13 1_555 1_555
H9_13 C6_13 1_555 1_555
H10_13 C6_13 1_555 1_555
C7_13 H11_13 1_555 1_555
C8_13 H12_13 1_555 1_555
C9_13 H13_13 1_555 1_555
C10_13 C16_13 1_555 1_555
C11_13 C27_13 1_555 1_555
C12_13 H14_13 1_555 1_555
C13_13 C7_13 1_555 1_555
C14_13 C84_13 1_555 1_555
C15_13 C46_13 1_555 1_555
C16_13 H15_13 1_555 1_555
C17_13 H16_13 1_555 1_555
C19_13 C20_13 1_555 1_555
C20_13 H17_13 1_555 1_555
C21_13 H18_13 1_555 1_555
C22_13 C10_13 1_555 1_555
H19_13 C22_13 1_555 1_555
C23_13 C3_13 1_555 1_555
H20_13 C23_13 1_555 1_555
C24_13 C12_13 1_555 1_555
H21_13 C24_13 1_555 1_555
C25_13 C32_13 1_555 1_555
C26_13 C9_13 1_555 1_555
H22_13 C26_13 1_555 1_555
C27_13 C3_13 1_555 1_555
C28_13 C52_13 1_555 1_555
C29_13 C21_13 1_555 1_555
H23_13 C29_13 1_555 1_555
C30_13 C29_13 1_555 1_555
C31_13 C19_13 1_555 1_555
H24_13 C31_13 1_555 1_555
C32_13 C17_13 1_555 1_555
H25_13 C32_13 1_555 1_555
C33_13 C30_13 1_555 1_555
C34_13 C5_13 1_555 1_555
C35_13 C30_13 1_555 1_555
H26_13 C35_13 1_555 1_555
C36_12 H27_12 1_555 1_555
C37_13 C16_13 1_555 1_555
H28_13 C37_13 1_555 1_555
C39_13 C83_13 1_555 1_555
C40_13 C70_13 1_555 1_555
C41_12 H29_13 1_555 1_555
C42_13 C81_13 1_555 1_555
C43_13 H30_13 1_555 1_555
C44_13 C19_13 1_555 1_555
C45_13 C57_13 1_555 1_555
C46_13 C8_13 1_555 1_555
C47_13 C58_11 1_555 1_555
C48_13 C33_13 1_555 1_555
H31_13 C48_13 1_555 1_555
C49_12 C51_12 1_555 1_555
C50_13 C25_13 1_555 1_555
C51_12 C41_12 1_555 1_555
H32_12 C51_12 1_555 1_555
C52_13 C26_13 1_555 1_555
C53_13 C88_13 1_555 1_555
C54_12 C36_12 1_555 1_555
H33_12 C54_12 1_555 1_555
C55_13 C22_13 1_555 1_555
H34_13 C55_13 1_555 1_555
C56_12 C49_12 1_555 1_555
C57_13 C1_13 1_555 1_555
C58_11 H35_11 1_555 1_555
C59_13 C47_13 1_555 1_555
H36_13 C59_13 1_555 1_555
C60_13 H37_13 1_555 1_555
C61_13 C7_13 1_555 1_555
H38_13 C61_13 1_555 1_555
C62_13 C25_13 1_555 1_555
H39_13 C62_13 1_555 1_555
C63_13 C13_13 1_555 1_555
H40_13 C63_13 1_555 1_555
C64_13 C28_13 1_555 1_555
H41_13 C64_13 1_555 1_555
C66_13 H43_13 1_555 1_555
C67_13 C35_13 1_555 1_555
H44_13 C67_13 1_555 1_555
C68_13 C33_13 1_555 1_555
H45_13 C68_13 1_555 1_555
C69_13 C37_13 1_555 1_555
C70_13 C60_13 1_555 1_555
C71_13 C50_13 1_555 1_555
H46_13 C71_13 1_555 1_555
C73_13 C45_13 1_555 1_555
H48_13 C73_13 1_555 1_555
C74_13 C77_13 1_555 1_555
C75_13 C34_13 1_555 1_555
H49_13 C75_13 1_555 1_555
C77_13 C21_13 1_555 1_555
C79_13 C23_13 1_555 1_555
C80_13 C50_13 1_555 1_555
H52_13 C80_13 1_555 1_555
C81_13 H53_13 1_555 1_555
C82_13 C31_13 1_555 1_555
H54_13 C82_13 1_555 1_555
C83_13 C17_13 1_555 1_555
C84_13 C60_13 1_555 1_555
H55_13 C84_13 1_555 1_555
C85_13 C57_13 1_555 1_555
H56_13 C85_13 1_555 1_555
C86_13 C14_13 1_555 1_555
H57_13 C86_13 1_555 1_555
C88_13 C80_13 1_555 1_555
H58_13 C88_13 1_555 1_555
C89_13 C8_13 1_555 1_555
H59_13 C89_13 1_555 1_555
C90_13 C45_13 1_555 1_555
H60_13 C90_13 1_555 1_555
C91_13 C42_13 1_555 1_555
H61_13 C91_13 1_555 1_555
C92_16 C53_13 1_555 1_555
H62_13 C92_16 1_555 1_555
C93_13 C20_13 1_555 1_555
H63_13 C93_13 1_555 1_555
N1_12 C56_12 1_555 1_555
N2_13 C2_13 1_555 1_555
N3_12 C36_12 1_555 1_555
N4_12 C56_12 1_555 1_555
N8_13 C10_13 1_555 1_555
N9_13 C34_13 1_555 1_555
O2_9 C11_13 1_555 1_555
O3_9 C11_13 1_555 1_555
O4_13 C39_13 1_555 1_555
O5_6 C15_13 1_555 1_555
O6_13 C39_13 1_555 1_555
O7_13 C2_13 1_555 1_555
O8_6 C15_13 1_555 1_555
O9_9 C74_13 1_555 1_555
O10_9 C74_13 1_555 1_555
O11_13 C44_13 1_555 1_555
O13_13 C44_13 1_555 1_555
Cu5_5 N3_12 1_555 1_555
Cu8_3 O6_13 1_555 1_555
Cu10_5 O4_13 1_555 1_555
N10_7 Cu8_3 1_555 1_555
Cu4_4 O8_6 1_555 1_555
Cu5_6 O2_9 1_555 1_555
Cu8_4 O10_9 1_555 1_555
Cu10_6 O3_9 1_555 1_555
C4_13 N2_13 1_555 1_555
C6_13 N2_13 1_555 1_555
C9_13 C46_13 1_555 1_555
C12_13 C27_13 1_555 1_555
C13_13 N8_13 1_555 1_555
C14_13 N8_13 1_555 1_555
C24_13 C79_13 1_555 1_555
C28_13 C61_13 1_555 1_555
C40_13 C82_13 1_555 1_555
C40_13 C93_13 1_555 1_555
C41_12 N3_12 1_555 1_555
C43_13 C62_13 1_555 1_555
C43_13 C83_13 1_555 1_555
C47_13 N9_13 1_555 1_555
C48_13 C59_13 1_555 1_555
C49_12 C54_12 1_555 1_555
C52_13 C89_13 1_555 1_555
C53_13 N9_13 1_555 1_555
C55_13 C69_13 1_555 1_555
C58_11 C68_13 1_555 1_555
C63_13 C64_13 1_555 1_555
C66_13 C70_13 1_555 1_555
C66_13 C86_13 1_555 1_555
C67_13 C77_13 1_555 1_555
C69_13 C79_13 1_555 1_555
C71_13 C92_16 1_555 1_555
C73_13 C91_13 1_555 1_555
C75_13 C85_13 1_555 1_555
C81_13 C90_13 1_555 1_555
N4_12 N7_12 1_555 1_555
O7_13 Cu10_5 1_555 1_555
O9_9 Cu10_6 1_555 1_555
O11_13 Cu10_5 1_555 1_555
O13_13 Cu5_5 1_555 1_555
C21_14 H18_14 1_555 1_555
C29_14 C21_14 1_555 1_555
H23_14 C29_14 1_555 1_555
C30_14 C29_14 1_555 1_555
C33_14 C30_14 1_555 1_555
C35_14 C30_14 1_555 1_555
H26_14 C35_14 1_555 1_555
C48_14 C33_14 1_555 1_555
C58_12 H35_12 1_555 1_555
C67_14 C35_14 1_555 1_555
H44_14 C67_14 1_555 1_555
C68_14 C33_14 1_555 1_555
H45_14 C68_14 1_555 1_555
C74_14 C77_14 1_555 1_555
C77_14 C21_14 1_555 1_555
O15_5 C11_14 1_555 1_555
O16_5 C11_14 1_555 1_555
O19_5 C74_14 1_555 1_555
O20_5 C74_14 1_555 1_555
C58_12 C68_14 1_555 1_555
C67_14 C77_14 1_555 1_555
C1_14 H1_14 1_555 1_555
C2_14 H2_14 1_555 1_555
C4_14 H4_14 1_555 1_555
H5_14 C4_14 1_555 1_555
H6_14 C4_14 1_555 1_555
C5_14 C1_14 1_555 1_555
H7_14 C5_14 1_555 1_555
C6_14 H8_14 1_555 1_555
H9_14 C6_14 1_555 1_555
H10_14 C6_14 1_555 1_555
C7_14 H11_14 1_555 1_555
C8_14 H12_14 1_555 1_555
C9_14 H13_14 1_555 1_555
C10_14 C16_14 1_555 1_555
C12_14 H14_14 1_555 1_555
C13_14 C7_14 1_555 1_555
C14_14 C84_14 1_555 1_555
C15_14 C46_14 1_555 1_555
C16_14 H15_14 1_555 1_555
C17_14 H16_14 1_555 1_555
C18_14 C38_14 1_555 1_555
C19_14 C20_14 1_555 1_555
C20_14 H17_14 1_555 1_555
C22_14 C10_14 1_555 1_555
H19_14 C22_14 1_555 1_555
C23_14 C3_14 1_555 1_555
H20_14 C23_14 1_555 1_555
C24_14 C12_14 1_555 1_555
H21_14 C24_14 1_555 1_555
C25_14 C32_14 1_555 1_555
C26_14 C9_14 1_555 1_555
H22_14 C26_14 1_555 1_555
C27_14 C3_14 1_555 1_555
C28_14 C52_14 1_555 1_555
C31_14 C19_14 1_555 1_555
H24_14 C31_14 1_555 1_555
C32_14 C17_14 1_555 1_555
H25_14 C32_14 1_555 1_555
C34_14 C5_14 1_555 1_555
C36_13 H27_13 1_555 1_555
C37_14 C16_14 1_555 1_555
H28_14 C37_14 1_555 1_555
C38_14 N1_13 1_555 1_555
C39_14 C83_14 1_555 1_555
C40_14 C70_14 1_555 1_555
C41_13 H29_14 1_555 1_555
C42_14 C81_14 1_555 1_555
C44_14 C19_14 1_555 1_555
C45_14 C57_14 1_555 1_555
C46_14 C8_14 1_555 1_555
C49_13 C51_13 1_555 1_555
C50_14 C25_14 1_555 1_555
C51_13 C41_13 1_555 1_555
H32_13 C51_13 1_555 1_555
C52_14 C26_14 1_555 1_555
C53_14 C88_14 1_555 1_555
C54_13 C36_13 1_555 1_555
H33_13 C54_13 1_555 1_555
C55_14 C22_14 1_555 1_555
H34_14 C55_14 1_555 1_555
C56_13 C49_13 1_555 1_555
C57_14 C1_14 1_555 1_555
C59_14 C47_14 1_555 1_555
H36_14 C59_14 1_555 1_555
C60_14 H37_14 1_555 1_555
C61_14 C7_14 1_555 1_555
H38_14 C61_14 1_555 1_555
C62_14 C25_14 1_555 1_555
H39_14 C62_14 1_555 1_555
C63_14 C13_14 1_555 1_555
H40_14 C63_14 1_555 1_555
C64_14 C28_14 1_555 1_555
H41_14 C64_14 1_555 1_555
C65_14 C18_14 1_555 1_555
H42_14 C65_14 1_555 1_555
C66_14 H43_14 1_555 1_555
C69_14 C37_14 1_555 1_555
C70_14 C60_14 1_555 1_555
C71_14 C50_14 1_555 1_555
H46_14 C71_14 1_555 1_555
C72_14 C18_14 1_555 1_555
H47_14 C72_14 1_555 1_555
C73_14 C45_14 1_555 1_555
H48_14 C73_14 1_555 1_555
C75_14 C34_14 1_555 1_555
H49_14 C75_14 1_555 1_555
C76_14 C65_14 1_555 1_555
H50_14 C76_14 1_555 1_555
C78_14 C72_14 1_555 1_555
H51_14 C78_14 1_555 1_555
C79_14 C23_14 1_555 1_555
C80_14 C50_14 1_555 1_555
H52_14 C80_14 1_555 1_555
C81_14 H53_14 1_555 1_555
C82_14 C31_14 1_555 1_555
H54_14 C82_14 1_555 1_555
C83_14 C17_14 1_555 1_555
C84_14 C60_14 1_555 1_555
H55_14 C84_14 1_555 1_555
C85_14 C57_14 1_555 1_555
H56_14 C85_14 1_555 1_555
C86_14 C14_14 1_555 1_555
H57_14 C86_14 1_555 1_555
C87_14 C42_14 1_555 1_555
C88_14 C80_14 1_555 1_555
H58_14 C88_14 1_555 1_555
C89_14 C8_14 1_555 1_555
H59_14 C89_14 1_555 1_555
C90_14 C45_14 1_555 1_555
H60_14 C90_14 1_555 1_555
C91_14 C42_14 1_555 1_555
H61_14 C91_14 1_555 1_555
C92_17 C53_14 1_555 1_555
H62_14 C92_17 1_555 1_555
C93_14 C20_14 1_555 1_555
H63_14 C93_14 1_555 1_555
N1_13 C56_13 1_555 1_555
N2_14 C2_14 1_555 1_555
N3_13 C36_13 1_555 1_555
N4_13 C56_13 1_555 1_555
N5_14 N1_13 1_555 1_555
H64_14 N5_14 1_555 1_555
H65_13 N5_14 1_555 1_555
N6_8 C76_14 1_555 1_555
N7_13 C38_14 1_555 1_555
N8_14 C10_14 1_555 1_555
N9_14 C34_14 1_555 1_555
O14_9 C87_14 1_555 1_555
O4_14 C39_14 1_555 1_555
O17_9 C15_14 1_555 1_555
O6_14 C39_14 1_555 1_555
O7_14 C2_14 1_555 1_555
O18_9 C15_14 1_555 1_555
O11_14 C44_14 1_555 1_555
O21_9 C87_14 1_555 1_555
O13_14 C44_14 1_555 1_555
Cu5_6 N3_13 1_555 1_555
Cu8_4 O6_14 1_555 1_555
Cu10_6 O4_14 1_555 1_555
O17_10 Cu10_6 1_555 1_555
O18_10 Cu5_6 1_555 1_555
Cu7_4 N6_8 1_555 1_555
C4_14 N2_14 1_555 1_555
C6_14 N2_14 1_555 1_555
C9_14 C46_14 1_555 1_555
C12_14 C27_14 1_555 1_555
C13_14 N8_14 1_555 1_555
C14_14 N8_14 1_555 1_555
C24_14 C79_14 1_555 1_555
C28_14 C61_14 1_555 1_555
C40_14 C82_14 1_555 1_555
C40_14 C93_14 1_555 1_555
C41_13 N3_13 1_555 1_555
C43_14 C62_14 1_555 1_555
C43_14 C83_14 1_555 1_555
C47_14 N9_14 1_555 1_555
C49_13 C54_13 1_555 1_555
C52_14 C89_14 1_555 1_555
C53_14 N9_14 1_555 1_555
C55_14 C69_14 1_555 1_555
C63_14 C64_14 1_555 1_555
C66_14 C70_14 1_555 1_555
C66_14 C86_14 1_555 1_555
C69_14 C79_14 1_555 1_555
C71_14 C92_17 1_555 1_555
C73_14 C91_14 1_555 1_555
C75_14 C85_14 1_555 1_555
C78_14 N6_8 1_555 1_555
C81_14 C90_14 1_555 1_555
N4_13 N7_13 1_555 1_555
O7_14 Cu10_6 1_555 1_555
O11_14 Cu10_6 1_555 1_555
O13_14 Cu5_6 1_555 1_555
C1_15 H1_15 1_555 1_555
C2_15 H2_15 1_555 1_555
C3_15 H3_15 1_555 1_555
C4_15 H4_15 1_555 1_555
H5_15 C4_15 1_555 1_555
H6_15 C4_15 1_555 1_555
C5_15 C1_15 1_555 1_555
H7_15 C5_15 1_555 1_555
C6_15 H8_15 1_555 1_555
H9_15 C6_15 1_555 1_555
H10_15 C6_15 1_555 1_555
C7_15 H11_15 1_555 1_555
C10_15 C16_15 1_555 1_555
C11_15 C27_15 1_555 1_555
C12_15 H14_15 1_555 1_555
C13_15 C7_15 1_555 1_555
C14_15 C84_15 1_555 1_555
C16_15 H15_15 1_555 1_555
C17_15 H16_15 1_555 1_555
C19_15 C20_15 1_555 1_555
C20_15 H17_15 1_555 1_555
C21_15 H18_15 1_555 1_555
C22_15 C10_15 1_555 1_555
H19_15 C22_15 1_555 1_555
C23_15 C3_15 1_555 1_555
H20_15 C23_15 1_555 1_555
C24_15 C12_15 1_555 1_555
H21_15 C24_15 1_555 1_555
C25_15 C32_15 1_555 1_555
C27_15 C3_15 1_555 1_555
C29_15 C21_15 1_555 1_555
H23_15 C29_15 1_555 1_555
C30_15 C29_15 1_555 1_555
C31_15 C19_15 1_555 1_555
H24_15 C31_15 1_555 1_555
C32_15 C17_15 1_555 1_555
H25_15 C32_15 1_555 1_555
C33_15 C30_15 1_555 1_555
C34_15 C5_15 1_555 1_555
C35_15 C30_15 1_555 1_555
H26_15 C35_15 1_555 1_555
C37_15 C16_15 1_555 1_555
H28_15 C37_15 1_555 1_555
C39_15 C83_15 1_555 1_555
C40_15 C70_15 1_555 1_555
C42_15 C81_15 1_555 1_555
C43_15 H30_15 1_555 1_555
C44_15 C19_15 1_555 1_555
C45_15 C57_15 1_555 1_555
C47_15 C58_13 1_555 1_555
C48_15 C33_15 1_555 1_555
H31_15 C48_15 1_555 1_555
C50_15 C25_15 1_555 1_555
C53_15 C88_15 1_555 1_555
C55_15 C22_15 1_555 1_555
H34_15 C55_15 1_555 1_555
C57_15 C1_15 1_555 1_555
C58_13 H35_13 1_555 1_555
C59_15 C47_15 1_555 1_555
H36_15 C59_15 1_555 1_555
C60_15 H37_15 1_555 1_555
C61_15 C7_15 1_555 1_555
C62_15 C25_15 1_555 1_555
H39_15 C62_15 1_555 1_555
C63_15 C13_15 1_555 1_555
H40_15 C63_15 1_555 1_555
C67_15 C35_15 1_555 1_555
H44_15 C67_15 1_555 1_555
C68_15 C33_15 1_555 1_555
H45_15 C68_15 1_555 1_555
C69_15 C37_15 1_555 1_555
C70_15 C60_15 1_555 1_555
C71_15 C50_15 1_555 1_555
H46_15 C71_15 1_555 1_555
C73_15 C45_15 1_555 1_555
H48_15 C73_15 1_555 1_555
C74_15 C77_15 1_555 1_555
C75_15 C34_15 1_555 1_555
H49_15 C75_15 1_555 1_555
C77_15 C21_15 1_555 1_555
C79_15 C23_15 1_555 1_555
C80_15 C50_15 1_555 1_555
H52_15 C80_15 1_555 1_555
C81_15 H53_15 1_555 1_555
C82_15 C31_15 1_555 1_555
H54_15 C82_15 1_555 1_555
C83_15 C17_15 1_555 1_555
C84_15 C60_15 1_555 1_555
H55_15 C84_15 1_555 1_555
C85_15 C57_15 1_555 1_555
H56_15 C85_15 1_555 1_555
C86_15 C14_15 1_555 1_555
C87_15 C42_15 1_555 1_555
C88_15 C80_15 1_555 1_555
H58_15 C88_15 1_555 1_555
C90_15 C45_15 1_555 1_555
H60_15 C90_15 1_555 1_555
C91_15 C42_15 1_555 1_555
H61_15 C91_15 1_555 1_555
C92_18 C53_15 1_555 1_555
H62_15 C92_18 1_555 1_555
C93_15 C20_15 1_555 1_555
H63_15 C93_15 1_555 1_555
N2_15 C2_15 1_555 1_555
N8_15 C10_15 1_555 1_555
N9_15 C34_15 1_555 1_555
O14_10 C87_15 1_555 1_555
O3_10 C11_15 1_555 1_555
O4_15 C39_15 1_555 1_555
O6_15 C39_15 1_555 1_555
O7_15 C2_15 1_555 1_555
O9_10 C74_15 1_555 1_555
O10_10 C74_15 1_555 1_555
O11_15 C44_15 1_555 1_555
O21_10 C87_15 1_555 1_555
O13_15 C44_15 1_555 1_555
Cu7_3 O6_15 1_555 1_555
Cu9_3 O4_15 1_555 1_555
Cu7_4 O10_10 1_555 1_555
Cu9_4 O3_10 1_555 1_555
C4_15 N2_15 1_555 1_555
C6_15 N2_15 1_555 1_555
C12_15 C27_15 1_555 1_555
C13_15 N8_15 1_555 1_555
C14_15 N8_15 1_555 1_555
C24_15 C79_15 1_555 1_555
C40_15 C82_15 1_555 1_555
C40_15 C93_15 1_555 1_555
C43_15 C62_15 1_555 1_555
C43_15 C83_15 1_555 1_555
C47_15 N9_15 1_555 1_555
C48_15 C59_15 1_555 1_555
C53_15 N9_15 1_555 1_555
C55_15 C69_15 1_555 1_555
C58_13 C68_15 1_555 1_555
C66_15 C70_15 1_555 1_555
C66_15 C86_15 1_555 1_555
C67_15 C77_15 1_555 1_555
C69_15 C79_15 1_555 1_555
C71_15 C92_18 1_555 1_555
C73_15 C91_15 1_555 1_555
C75_15 C85_15 1_555 1_555
C81_15 C90_15 1_555 1_555
O7_15 Cu9_3 1_555 1_555
O9_10 Cu9_4 1_555 1_555
O11_15 Cu9_3 1_555 1_555
O13_15 Cu4_3 1_555 1_555
C8_15 H12_15 1_555 1_555
C9_15 H13_15 1_555 1_555
C15_15 C46_15 1_555 1_555
C18_15 C38_15 1_555 1_555
C26_15 C9_15 1_555 1_555
H22_15 C26_15 1_555 1_555
C28_15 C52_15 1_555 1_555
C36_14 H27_14 1_555 1_555
C38_15 N1_14 1_555 1_555
C46_15 C8_15 1_555 1_555
C49_14 C51_14 1_555 1_555
C51_14 C41_14 1_555 1_555
H32_14 C51_14 1_555 1_555
C52_15 C26_15 1_555 1_555
C54_14 C36_14 1_555 1_555
H33_14 C54_14 1_555 1_555
C56_14 C49_14 1_555 1_555
C64_15 C28_15 1_555 1_555
H41_15 C64_15 1_555 1_555
C65_15 C18_15 1_555 1_555
H42_15 C65_15 1_555 1_555
C72_15 C18_15 1_555 1_555
H47_15 C72_15 1_555 1_555
C76_15 C65_15 1_555 1_555
H50_15 C76_15 1_555 1_555
C78_15 C72_15 1_555 1_555
H51_15 C78_15 1_555 1_555
C89_15 C8_15 1_555 1_555
H59_15 C89_15 1_555 1_555
N1_14 C56_14 1_555 1_555
N3_14 C36_14 1_555 1_555
N4_14 C56_14 1_555 1_555
N5_15 N1_14 1_555 1_555
H64_15 N5_15 1_555 1_555
H65_14 N5_15 1_555 1_555
N10_7 C76_15 1_555 1_555
N7_14 C38_15 1_555 1_555
O17_10 C15_15 1_555 1_555
O18_10 C15_15 1_555 1_555
C9_15 C46_15 1_555 1_555
C41_14 N3_14 1_555 1_555
C49_14 C54_14 1_555 1_555
C52_15 C89_15 1_555 1_555
C78_15 N10_7 1_555 1_555
N4_14 N7_14 1_555 1_555
Cu4_4 O2_10 1_555 1_555
C2_16 H2_16 1_555 1_555
C3_16 H3_16 1_555 1_555
C4_16 H4_16 1_555 1_555
H5_16 C4_16 1_555 1_555
H6_16 C4_16 1_555 1_555
C6_16 H8_16 1_555 1_555
H9_16 C6_16 1_555 1_555
H10_16 C6_16 1_555 1_555
C10_16 C16_16 1_555 1_555
C11_16 C27_16 1_555 1_555
C12_16 H14_16 1_555 1_555
C14_16 C84_16 1_555 1_555
C16_16 H15_16 1_555 1_555
C19_16 C20_16 1_555 1_555
C20_16 H17_16 1_555 1_555
C21_16 H18_16 1_555 1_555
C22_16 C10_16 1_555 1_555
H19_16 C22_16 1_555 1_555
C23_16 C3_16 1_555 1_555
H20_16 C23_16 1_555 1_555
C24_16 C12_16 1_555 1_555
H21_16 C24_16 1_555 1_555
C27_16 C3_16 1_555 1_555
C29_16 C21_16 1_555 1_555
H23_16 C29_16 1_555 1_555
C30_16 C29_16 1_555 1_555
C33_16 C30_16 1_555 1_555
C35_16 C30_16 1_555 1_555
H26_16 C35_16 1_555 1_555
C37_16 C16_16 1_555 1_555
H28_16 C37_16 1_555 1_555
C39_16 C83_16 1_555 1_555
C40_16 C70_16 1_555 1_555
C43_16 H30_16 1_555 1_555
C48_16 C33_16 1_555 1_555
H31_16 C48_16 1_555 1_555
C55_16 C22_16 1_555 1_555
H34_16 C55_16 1_555 1_555
H36_16 C59_16 1_555 1_555
C60_16 H37_16 1_555 1_555
H39_16 C62_16 1_555 1_555
H40_16 C63_16 1_555 1_555
C66_16 H43_16 1_555 1_555
C67_16 C35_16 1_555 1_555
H44_16 C67_16 1_555 1_555
C68_16 C33_16 1_555 1_555
H45_16 C68_16 1_555 1_555
C69_16 C37_16 1_555 1_555
C70_16 C60_16 1_555 1_555
H46_16 C71_16 1_555 1_555
C74_16 C77_16 1_555 1_555
C77_16 C21_16 1_555 1_555
C79_16 C23_16 1_555 1_555
C84_16 C60_16 1_555 1_555
H55_16 C84_16 1_555 1_555
C86_16 C14_16 1_555 1_555
H57_16 C86_16 1_555 1_555
H62_16 C92_19 1_555 1_555
C93_16 C20_16 1_555 1_555
H63_16 C93_16 1_555 1_555
N2_16 C2_16 1_555 1_555
N8_16 C10_16 1_555 1_555
O15_6 C11_16 1_555 1_555
O16_6 C11_16 1_555 1_555
O6_16 C39_16 1_555 1_555
O7_16 C2_16 1_555 1_555
O19_6 C74_16 1_555 1_555
O20_6 C74_16 1_555 1_555
Cu7_4 O6_16 1_555 1_555
C4_16 N2_16 1_555 1_555
C6_16 N2_16 1_555 1_555
C12_16 C27_16 1_555 1_555
C14_16 N8_16 1_555 1_555
C24_16 C79_16 1_555 1_555
C40_16 C93_16 1_555 1_555
C43_16 C62_16 1_555 1_555
C43_16 C83_16 1_555 1_555
C48_16 C59_16 1_555 1_555
C55_16 C69_16 1_555 1_555
C66_16 C70_16 1_555 1_555
C66_16 C86_16 1_555 1_555
C67_16 C77_16 1_555 1_555
C69_16 C79_16 1_555 1_555
C71_16 C92_19 1_555 1_555
O7_16 Cu9_4 1_555 1_555
O11_16 Cu9_4 1_555 1_555
C1_16 H1_16 1_555 1_555
C5_16 C1_16 1_555 1_555
H7_16 C5_16 1_555 1_555
C7_16 H11_16 1_555 1_555
C8_16 H12_16 1_555 1_555
C9_16 H13_16 1_555 1_555
C13_16 C7_16 1_555 1_555
C15_16 C46_16 1_555 1_555
C17_16 H16_16 1_555 1_555
C18_16 C38_16 1_555 1_555
C25_16 C32_16 1_555 1_555
C26_16 C9_16 1_555 1_555
H22_16 C26_16 1_555 1_555
C28_16 C52_16 1_555 1_555
H24_16 C31_16 1_555 1_555
C32_16 C17_16 1_555 1_555
H25_16 C32_16 1_555 1_555
C34_16 C5_16 1_555 1_555
C36_15 H27_15 1_555 1_555
C38_16 N1_15 1_555 1_555
C41_15 H29_16 1_555 1_555
C42_16 C81_16 1_555 1_555
C45_16 C57_16 1_555 1_555
C46_16 C8_16 1_555 1_555
C47_16 C58_14 1_555 1_555
C49_15 C51_15 1_555 1_555
C50_16 C25_16 1_555 1_555
C51_15 C41_15 1_555 1_555
H32_15 C51_15 1_555 1_555
C52_16 C26_16 1_555 1_555
C53_16 C88_16 1_555 1_555
C54_15 C36_15 1_555 1_555
H33_15 C54_15 1_555 1_555
C56_15 C49_15 1_555 1_555
C57_16 C1_16 1_555 1_555
C58_14 H35_14 1_555 1_555
C61_16 C7_16 1_555 1_555
H38_16 C61_16 1_555 1_555
C64_16 C28_16 1_555 1_555
C65_16 C18_16 1_555 1_555
H42_16 C65_16 1_555 1_555
C72_16 C18_16 1_555 1_555
H47_16 C72_16 1_555 1_555
C73_16 C45_16 1_555 1_555
H48_16 C73_16 1_555 1_555
C75_16 C34_16 1_555 1_555
H49_16 C75_16 1_555 1_555
C76_16 C65_16 1_555 1_555
H50_16 C76_16 1_555 1_555
C78_16 C72_16 1_555 1_555
H51_16 C78_16 1_555 1_555
C80_16 C50_16 1_555 1_555
H52_16 C80_16 1_555 1_555
C81_16 H53_16 1_555 1_555
C82_16 C31_16 1_555 1_555
H54_16 C82_16 1_555 1_555
C85_16 C57_16 1_555 1_555
H56_16 C85_16 1_555 1_555
C87_16 C42_16 1_555 1_555
C88_16 C80_16 1_555 1_555
H58_16 C88_16 1_555 1_555
C89_16 C8_16 1_555 1_555
H59_16 C89_16 1_555 1_555
C90_16 C45_16 1_555 1_555
H60_16 C90_16 1_555 1_555
C91_16 C42_16 1_555 1_555
H61_16 C91_16 1_555 1_555
C92_20 C53_16 1_555 1_555
N1_15 C56_15 1_555 1_555
N3_15 C36_15 1_555 1_555
N4_15 C56_15 1_555 1_555
N5_16 N1_15 1_555 1_555
H64_16 N5_16 1_555 1_555
H65_15 N5_16 1_555 1_555
N10_8 C76_16 1_555 1_555
N7_15 C38_16 1_555 1_555
N9_16 C34_16 1_555 1_555
O14_7 C87_16 1_555 1_555
O17_7 C15_16 1_555 1_555
O18_7 C15_16 1_555 1_555
O21_7 C87_16 1_555 1_555
O13_16 C44_16 1_555 1_555
Cu4_4 N3_15 1_555 1_555
C9_16 C46_16 1_555 1_555
C28_16 C61_16 1_555 1_555
C41_15 N3_15 1_555 1_555
C47_16 N9_16 1_555 1_555
C49_15 C54_15 1_555 1_555
C52_16 C89_16 1_555 1_555
C53_16 N9_16 1_555 1_555
C73_16 C91_16 1_555 1_555
C75_16 C85_16 1_555 1_555
C78_16 N10_8 1_555 1_555
C81_16 C90_16 1_555 1_555
N4_15 N7_15 1_555 1_555
O13_16 Cu4_4 1_555 1_555
C36_16 H27_16 1_555 1_555
C49_16 C51_16 1_555 1_555
C51_16 C41_16 1_555 1_555
H32_16 C51_16 1_555 1_555
C54_16 C36_16 1_555 1_555
H33_16 C54_16 1_555 1_555
C56_16 C49_16 1_555 1_555
N1_16 C56_16 1_555 1_555
N3_16 C36_16 1_555 1_555
N4_16 C56_16 1_555 1_555
C41_16 N3_16 1_555 1_555
C49_16 C54_16 1_555 1_555
N4_16 N7_16 1_555 1_555
C58_15 H35_15 1_555 1_555
C58_16 H35_16 1_555 1_555

#END
