
###############################################################################
#
# This file contains modified crystal structure data generated from the
# MOF subset of the Cambridge Structural Database (CSD) v543 
# hosted by the Cambridge Crystallographic Data Centre (CCDC).
#
# This work is licensed under the Creative Commons
# Attribution-NonCommercial-ShareAlike 4.0 International License.
# To view a copy of this license, visit
# http://creativecommons.org/licenses/by-nc-sa/4.0/
# or send a letter to
# Creative Commons, PO Box 1866, Mountain View, CA 94042, USA.
#
# CIF created using the CSD Python API on 29 September 2022
# The structure has been converted into the P1 space group
# The structure has a 3D framework
# The original CSD entry ASINEX is in the orthorhombic crystal system
# The framework has been calculated to contain at least 10.0% void space
# The void calculation uses a probe of radius 1.32A, grid spacing 0.4
#
###############################################################################

data_ASINEX
_chemical_formula_moiety         '(C1492 H1044 N144 O202 Zn48)n'
_symmetry_cell_setting           triclinic
_symmetry_space_group_name_H-M   'P 1'
_symmetry_Int_Tables_number      1
_space_group_name_Hall           'P 1'
loop_
_symmetry_equiv_pos_site_id
_symmetry_equiv_pos_as_xyz
1 x,y,z
_cell_length_a                   74.910(16)
_cell_length_b                   29.614(6)
_cell_length_c                   29.755(11)
_cell_angle_alpha                90
_cell_angle_beta                 90
_cell_angle_gamma                90
_cell_volume                     66008
loop_
_atom_site_label
_atom_site_type_symbol
_atom_site_fract_x
_atom_site_fract_y
_atom_site_fract_z
C3 C 0.14418(11) 0.5600(3) 0.3834(6)
C5 C 0.20398(11) 0.4766(3) 0.5056(6)
H4 H 0.1977 0.4765 0.5333
C8 C 0.16596(10) 0.5020(3) 0.4380(6)
C9 C 0.22262(10) 0.4794(3) 0.5030(6)
H5 H 0.2291 0.4798 0.5305
C10 C 0.15926(11) 0.5750(3) 0.4058(6)
H6 H 0.1630 0.6054 0.4022
C12 C 0.09194(8) 0.1031(2) 0.6411(6)
H8 H 0.1000 0.0984 0.6653
C13 C 0.10531(8) 0.6723(2) 0.2631(6)
C14 C 0.11445(8) 0.6423(2) 0.2962(6)
C15 C 0.12135(8) 0.6588(3) 0.3355(6)
H9 H 0.1195 0.6896 0.3429
C16 C 0.13068(11) 0.6323(3) 0.3639(6)
H10 H 0.1351 0.6451 0.3910
C17 C 0.13405(10) 0.5871(3) 0.3550(6)
C18 C 0.12559(12) 0.5694(3) 0.3164(6)
H11 H 0.1266 0.5381 0.3100
C19 C 0.11583(9) 0.5968(2) 0.2874(6)
H12 H 0.1102 0.5842 0.2617
C20 C 0.07903(8) 0.0779(2) 0.5724(6)
C21 C 0.09031(9) 0.0715(2) 0.6105(6)
H13 H 0.0967 0.0440 0.6138
C22 C 0.16915(11) 0.5458(4) 0.4339(6)
H14 H 0.1787 0.5583 0.4510
C23 C 0.06980(8) 0.1172(2) 0.5698(6)
H15 H 0.0622 0.1235 0.5451
C24 C 0.15047(11) 0.4829(3) 0.4139(6)
H16 H 0.1476 0.4516 0.4150
C25 C 0.14078(12) 0.5119(4) 0.3906(6)
H17 H 0.1303 0.5000 0.3768
C26 C 0.30874(10) 0.5112(3) 0.4663(6)
C27 C 0.28813(9) 0.5010(2) 0.4652(6)
C28 C 0.27799(9) 0.5169(3) 0.4293(6)
H18 H 0.2835 0.5333 0.4056
C29 C 0.25991(10) 0.5086(3) 0.4285(6)
H19 H 0.2530 0.5179 0.4033
C30 C 0.25151(10) 0.4866(3) 0.4646(6)
C31 C 0.26231(9) 0.4716(3) 0.4993(6)
H20 H 0.2567 0.4573 0.5242
C32 C 0.27990(8) 0.4758(2) 0.5000(6)
H21 H 0.2868 0.4623 0.5232
C33 C 0.23200(10) 0.4814(3) 0.4646(6)
C34 C 0.22173(11) 0.4807(3) 0.4244(6)
H22 H 0.2274 0.4822 0.3959
C35 C 0.20393(12) 0.4780(4) 0.4273(6)
H23 H 0.1973 0.4789 0.4001
C36 C 0.19530(10) 0.4742(3) 0.4642(6)
C37 C 0.07203(8) 0.1487(2) 0.6056(6)
H24 H 0.0655 0.1762 0.6049
C38 C 0.07769(9) 0.0464(3) 0.5349(6)
C39 C 0.10548(9) 0.2687(2) 0.6673(6)
C40 C 0.11675(9) 0.2992(2) 0.6374(6)
C41 C 0.12946(10) 0.2826(3) 0.6087(6)
H25 H 0.1318 0.2510 0.6075
C42 C 0.13856(11) 0.3110(3) 0.5825(6)
H26 H 0.1470 0.2981 0.5624
C43 C 0.13691(9) 0.3561(3) 0.5817(6)
C44 C 0.12348(11) 0.3734(2) 0.6109(6)
H27 H 0.1210 0.4049 0.6114
C45 C 0.11429(10) 0.3448(3) 0.6380(6)
H28 H 0.1058 0.3570 0.6583
C46 C 0.14754(10) 0.3855(3) 0.5531(6)
C47 C 0.16425(10) 0.3739(3) 0.5343(6)
H29 H 0.1695 0.3458 0.5423
C48 C 0.17276(10) 0.4003(3) 0.5064(6)
H30 H 0.1836 0.3898 0.4937
C49 C 0.16673(9) 0.4431(3) 0.4945(6)
C50 C 0.15070(10) 0.4575(3) 0.5134(6)
H31 H 0.1463 0.4869 0.5067
C51 C 0.14095(11) 0.4292(3) 0.5422(6)
H32 H 0.1299 0.4393 0.5544
C52 C 0.0695 0.3512 0.7603
H33 H 0.0667 0.3431 0.7302
C53 C 0.0659(3) 0.3966(7) 0.8243(8)
H34 H 0.0778 0.3829 0.8271
H35 H 0.0585 0.3872 0.8497
H36 H 0.0671 0.4295 0.8242
C54 C 0.0418(4) 0.3923(16) 0.7635(18)
H37 H 0.0411 0.3750 0.7354
H38 H 0.0412 0.4246 0.7568
H39 H 0.0319 0.3838 0.7832
N1 N 0.17605(8) 0.4701(3) 0.4639(6)
N2 N 0.08294(6) 0.14108(17) 0.6398(5)
N3 N 0.08697(7) 0.00857(18) 0.5270(6)
N4 N 0.06775(9) 0.0165(2) 0.4721(6)
N5 N 0.06621(9) 0.0513(2) 0.5013(6)
H40 H 0.1034 0.0020 0.5797
N8 N 0.05823(15) 0.3827(3) 0.7851(7)
O1 O 0.09452(6) 0.65327(16) 0.2355(5)
O2 O 0.10817(6) 0.71348(14) 0.2650(5)
O3 O 0.09775(7) 0.28696(18) 0.6998(5)
O4 O 0.10563(6) 0.22745(16) 0.6574(5)
O5 O 0.31377(6) 0.53271(17) 0.4357(6)
O6 O 0.31670(6) 0.49660(19) 0.4990(5)
O7 O 0.08297(11) 0.3351(2) 0.7797(6)
Zn1 Zn 0.087334(9) 0.19071(2) 0.6855(5)
Zn2 Zn 0.093027(9) 0.27147(3) 0.7679(5)
O14 O 0.09452(6) 0.15327(16) 0.7355(5)
O15 O 0.10817(6) 0.21348(14) 0.7650(5)
O16 O 0.06377(6) 0.21729(17) 0.6857(6)
O17 O 0.06670(6) 0.25340(19) 0.7490(5)
Zn4 Zn 0.087334(9) 0.69071(2) 0.1855(5)
Zn5 Zn 0.337334(9) 0.55929(2) 0.4355(5)
Zn7 Zn 0.093027(9) 0.77147(3) 0.2679(5)
Zn9 Zn 0.343027(9) 0.47853(3) 0.5179(5)
O18 O 0.08551(6) 0.24567(19) 0.8303(5)
O20 O 0.11776(7) 0.29896(17) 0.7872(6)
C1 C 0.0752(2) 0.9149(6) 0.4562(7)
H1 H 0.0632 0.9184 0.4660
C2 C 0.10807(13) 0.9043(3) 0.4288(6)
H2 H 0.1200 0.9015 0.4185
C4 C 0.0796(2) 0.8728(6) 0.4346(7)
H3 H 0.0714 0.8489 0.4296
C6 C 0.08692(14) 0.9514(3) 0.4641(6)
C7 C 0.08029(11) 0.9917(3) 0.4884(6)
C11 C 0.10346(14) 0.9465(3) 0.4510(6)
H7 H 0.1121 0.9695 0.4558
N6 N 0.10035(7) 0.9891(2) 0.5543(6)
H41 H 0.1056 0.9639 0.5458
N7 N 0.09799(10) 0.8715(3) 0.4218(6)
C55 C 0.12087(9) 0.3371(3) 0.8036(6)
C56 C 0.13223(9) 0.3694(2) 0.7773(6)
C57 C 0.13804(10) 0.3567(3) 0.7350(6)
H42 H 0.1349 0.3281 0.7228
C58 C 0.14878(10) 0.3870(3) 0.7104(6)
H43 H 0.1528 0.3791 0.6811
C59 C 0.15353(10) 0.4281(3) 0.7285(6)
C60 C 0.14833(9) 0.4401(3) 0.7709(6)
H44 H 0.1523 0.4678 0.7836
C61 C 0.13693(9) 0.4110(2) 0.7961(6)
H45 H 0.1327 0.4196 0.8249
C62 C 0.16456(9) 0.4610(3) 0.7016(6)
C63 C 0.16129(10) 0.4666(3) 0.6547(6)
H46 H 0.1522 0.4496 0.6401
C64 C 0.17122(10) 0.4962(3) 0.6315(6)
H47 H 0.1690 0.5006 0.6004
C65 C 0.18462(9) 0.5205(3) 0.6524(6)
C66 C 0.18843(11) 0.5147(3) 0.6966(7)
H48 H 0.1981 0.5308 0.7095
C67 C 0.17868(9) 0.4863(3) 0.7230(6)
H49 H 0.1811 0.4833 0.7542
C68 C 0.11905(13) 0.7606(3) 0.4432(6)
C69 C 0.13077(9) 0.7299(2) 0.4711(6)
C70 C 0.14728(10) 0.7233(3) 0.4579(6)
H50 H 0.1515 0.7366 0.4309
C71 C 0.15908(9) 0.6953(3) 0.4855(6)
H51 H 0.1712 0.6920 0.4771
C72 C 0.15321(9) 0.6749(2) 0.5211(6)
C73 C 0.13487(11) 0.6805(3) 0.5344(6)
H52 H 0.1303 0.6664 0.5607
C74 C 0.12423(10) 0.7071(3) 0.5075(6)
H53 H 0.1119 0.7098 0.5145
C75 C 0.16540(10) 0.6442(3) 0.5490(6)
C76 C 0.17929(10) 0.6234(3) 0.5316(6)
H54 H 0.1827 0.6310 0.5018
C77 C 0.18929(10) 0.5907(3) 0.5541(6)
H55 H 0.1980 0.5729 0.5389
C78 C 0.18601(10) 0.5856(3) 0.5987(6)
C79 C 0.17163(13) 0.6097(4) 0.6198(6)
H56 H 0.1692 0.6046 0.6507
C80 C 0.16187(11) 0.6384(4) 0.5975(6)
H57 H 0.1527 0.6550 0.6120
C81 C 0.32510(9) 0.4831(3) 0.6055(6)
C82 C 0.30561(9) 0.4965(3) 0.6083(6)
C83 C 0.29394(11) 0.4682(3) 0.6309(6)
H58 H 0.2981 0.4416 0.6453
C84 C 0.27588(10) 0.4797(3) 0.6319(6)
H59 H 0.2677 0.4604 0.6470
C85 C 0.26979(10) 0.5173(3) 0.6122(6)
C86 C 0.28120(9) 0.5462(2) 0.5898(6)
H60 H 0.2766 0.5726 0.5758
C87 C 0.30027(10) 0.5362(3) 0.5877(6)
H61 H 0.3085 0.5557 0.5731
C88 C 0.25016(11) 0.5284(3) 0.6139(6)
C89 C 0.23813(11) 0.4926(3) 0.6221(6)
H62 H 0.2425 0.4628 0.6264
C90 C 0.22017(10) 0.5007(3) 0.6240(6)
H63 H 0.2121 0.4764 0.6285
C91 C 0.21373(10) 0.5448(3) 0.6193(6)
C92 C 0.22505(11) 0.5789(4) 0.6117(7)
H64 H 0.2205 0.6087 0.6087
C93 C 0.24397(11) 0.5715(3) 0.6081(6)
H65 H 0.2519 0.5957 0.6018
N9 N 0.19508(8) 0.5539(3) 0.6252(6)
O8 O 0.33551(6) 0.50433(19) 0.5803(5)
O9 O 0.32948(6) 0.4506(2) 0.6308(6)
O11 O 0.11601(7) 0.35083(18) 0.8410(6)
O12 O 0.12407(6) 0.77708(16) 0.4090(5)
O13 O 0.10249(6) 0.7683(2) 0.4606(6)
Zn3 Zn 0.104480(9) 0.81473(3) 0.3877(5)
O19 O 0.07948(6) 0.7994(2) 0.3808(6)
O21 O 0.11601(7) 0.85083(18) 0.3410(6)
Zn10 Zn 0.354480(9) 0.43527(3) 0.6377(5)
Zn11 Zn 0.104480(9) 0.31473(3) 0.8877(5)
C55_2 C 0.37087(9) 0.9129(3) 0.0536(6)
C56_2 C 0.38223(9) 0.8806(2) 0.0273(6)
C60_2 C 0.39833(9) 0.8099(3) 0.0209(6)
H44_2 H 0.4023 0.7822 0.0336
C61_2 C 0.38693(9) 0.8390(2) 0.0461(6)
H45_2 H 0.3827 0.8304 0.0749
H49_2 H 0.4311 0.7667 0.0042
O10 O 0.36776(7) 0.95104(17) 0.0372(6)
O11_2 O 0.36601(7) 0.89917(18) 0.0910(6)
O15_2 O 0.35817(6) 0.03652(14) 0.0150(5)
Zn6 Zn 0.343027(9) 0.97853(3) 0.0179(5)
O18_2 O 0.33551(6) 0.00433(19) 0.0803(5)
Zn11_2 Zn 0.354480(9) 0.93527(3) 0.1377(5)
C1_2 C 0.3252(2) 0.3351(6) 0.7062(7)
H1_2 H 0.3132 0.3316 0.7160
C2_2 C 0.35807(13) 0.3457(3) 0.6788(6)
H2_2 H 0.3700 0.3485 0.6685
C4_2 C 0.3296(2) 0.3772(6) 0.6846(7)
H3_2 H 0.3214 0.4011 0.6796
C6_2 C 0.33692(14) 0.2986(3) 0.7141(6)
C7_2 C 0.33029(11) 0.2583(3) 0.7384(6)
C11_2 C 0.35346(14) 0.3035(3) 0.7010(6)
H7_2 H 0.3621 0.2805 0.7058
C12_2 C 0.34194(8) 0.1469(2) 0.8911(6)
H8_2 H 0.3500 0.1516 0.9153
C20_2 C 0.32903(8) 0.1721(2) 0.8224(6)
C21_2 C 0.34031(9) 0.1785(2) 0.8605(6)
H13_2 H 0.3467 0.2060 0.8638
C23_2 C 0.31980(8) 0.1328(2) 0.8198(6)
H15_2 H 0.3122 0.1265 0.7951
C37_2 C 0.32203(8) 0.1013(2) 0.8556(6)
H24_2 H 0.3155 0.0738 0.8549
C38_2 C 0.32769(9) 0.2036(3) 0.7849(6)
N2_2 N 0.33294(6) 0.10892(17) 0.8898(5)
N3_2 N 0.33697(7) 0.24143(18) 0.7770(6)
N4_2 N 0.31775(9) 0.2335(2) 0.7221(6)
N5_2 N 0.31621(9) 0.1987(2) 0.7513(6)
N6_2 N 0.35035(7) 0.2609(2) 0.8043(6)
H40_2 H 0.3534 0.2480 0.8297
H41_2 H 0.3556 0.2861 0.7958
N7_2 N 0.34799(10) 0.3785(3) 0.6718(6)
O4_2 O 0.35563(6) 0.02255(16) 0.9074(5)
Zn1_2 Zn 0.337334(9) 0.05929(2) 0.9355(5)
C57_2 C 0.38804(10) 0.8933(3) 0.9850(6)
H42_2 H 0.3849 0.9219 0.9728
C58_2 C 0.39878(10) 0.8630(3) 0.9604(6)
H43_2 H 0.4028 0.8709 0.9311
C59_2 C 0.40353(10) 0.8219(3) 0.9785(6)
C62_2 C 0.41456(9) 0.7890(3) 0.9516(6)
C63_2 C 0.41129(10) 0.7834(3) 0.9047(6)
H46_2 H 0.4022 0.8004 0.8901
C64_2 C 0.42122(10) 0.7538(3) 0.8815(6)
H47_2 H 0.4190 0.7494 0.8504
C65_2 C 0.43462(9) 0.7295(3) 0.9024(6)
C66_2 C 0.43843(11) 0.7353(3) 0.9466(7)
H48_2 H 0.4481 0.7192 0.9595
C67_2 C 0.42868(9) 0.7637(3) 0.9730(6)
C68_2 C 0.36905(13) 0.4894(3) 0.6932(6)
C69_2 C 0.38077(9) 0.5201(2) 0.7211(6)
C70_2 C 0.39728(10) 0.5267(3) 0.7079(6)
H50_2 H 0.4015 0.5134 0.6809
C71_2 C 0.40908(9) 0.5547(3) 0.7355(6)
H51_2 H 0.4212 0.5580 0.7271
C72_2 C 0.40321(9) 0.5751(2) 0.7711(6)
C73_2 C 0.38487(11) 0.5695(3) 0.7844(6)
H52_2 H 0.3803 0.5836 0.8107
C74_2 C 0.37423(10) 0.5429(3) 0.7575(6)
H53_2 H 0.3619 0.5402 0.7645
C75_2 C 0.41540(10) 0.6058(3) 0.7990(6)
C76_2 C 0.42929(10) 0.6266(3) 0.7816(6)
H54_2 H 0.4327 0.6190 0.7518
C77_2 C 0.43929(10) 0.6593(3) 0.8041(6)
H55_2 H 0.4480 0.6771 0.7889
C78_2 C 0.43601(10) 0.6644(3) 0.8487(6)
C79_2 C 0.42163(13) 0.6403(4) 0.8698(6)
H56_2 H 0.4192 0.6454 0.9007
C80_2 C 0.41187(11) 0.6116(4) 0.8475(6)
H57_2 H 0.4027 0.5950 0.8620
C81_2 C 0.57510(9) 0.7669(3) 0.8555(6)
C82_2 C 0.55561(9) 0.7535(3) 0.8583(6)
C83_2 C 0.54394(11) 0.7818(3) 0.8809(6)
H58_2 H 0.5481 0.8084 0.8953
C84_2 C 0.52588(10) 0.7703(3) 0.8819(6)
H59_2 H 0.5177 0.7896 0.8970
C85_2 C 0.51979(10) 0.7327(3) 0.8622(6)
C86_2 C 0.53120(9) 0.7038(2) 0.8398(6)
H60_2 H 0.5266 0.6774 0.8258
C87_2 C 0.55027(10) 0.7138(3) 0.8377(6)
H61_2 H 0.5585 0.6943 0.8231
C88_2 C 0.50016(11) 0.7216(3) 0.8639(6)
C89_2 C 0.48813(11) 0.7574(3) 0.8721(6)
H62_2 H 0.4925 0.7872 0.8764
C90_2 C 0.47017(10) 0.7493(3) 0.8740(6)
H63_2 H 0.4621 0.7736 0.8785
C91_2 C 0.46373(10) 0.7052(3) 0.8693(6)
C92_2 C 0.47505(11) 0.6711(4) 0.8617(7)
H64_2 H 0.4705 0.6413 0.8587
C93_2 C 0.49397(11) 0.6785(3) 0.8581(6)
H65_2 H 0.5019 0.6543 0.8518
N9_2 N 0.44508(8) 0.6961(3) 0.8752(6)
O8_2 O 0.58551(6) 0.74567(19) 0.8303(5)
O9_2 O 0.57948(6) 0.7994(2) 0.8808(6)
O12_2 O 0.37407(6) 0.47292(16) 0.6590(5)
O13_2 O 0.35249(6) 0.4817(2) 0.7106(6)
O14_2 O 0.34452(6) 0.09673(16) 0.9855(5)
O16_2 O 0.31377(6) 0.03271(17) 0.9357(6)
Zn8 Zn 0.593027(9) 0.77147(3) 0.7679(5)
O21_2 O 0.36601(7) 0.39917(18) 0.5910(6)
Zn10_2 Zn 0.604480(9) 0.81473(3) 0.8877(5)
C52_2 C 0.3195 0.8988 0.0103
C53_2 C 0.3159(3) 0.8534(7) 0.0743(8)
H34_2 H 0.3278 0.8671 0.0771
H35_2 H 0.3085 0.8628 0.0997
H36_2 H 0.3171 0.8205 0.0742
C54_2 C 0.2918(4) 0.8577(16) 0.0135(18)
H38_2 H 0.2912 0.8254 0.0068
H39_2 H 0.2819 0.8662 0.0332
N8_2 N 0.30823(15) 0.8673(3) 0.0351(7)
O7_2 O 0.33297(11) 0.9149(2) 0.0297(6)
C3_2 C 0.39418(11) 0.6900(3) 0.6334(6)
C5_2 C 0.45398(11) 0.7734(3) 0.7556(6)
H4_2 H 0.4477 0.7735 0.7833
C8_2 C 0.41596(10) 0.7480(3) 0.6880(6)
C9_2 C 0.47262(10) 0.7706(3) 0.7530(6)
H5_2 H 0.4791 0.7702 0.7805
C10_2 C 0.40926(11) 0.6750(3) 0.6558(6)
H6_2 H 0.4130 0.6446 0.6522
C13_2 C 0.35531(8) 0.5777(2) 0.5131(6)
C14_2 C 0.36445(8) 0.6077(2) 0.5462(6)
C15_2 C 0.37135(8) 0.5912(3) 0.5855(6)
H9_2 H 0.3695 0.5604 0.5929
C16_2 C 0.38068(11) 0.6177(3) 0.6139(6)
H10_2 H 0.3851 0.6049 0.6410
C17_2 C 0.38405(10) 0.6629(3) 0.6050(6)
C18_2 C 0.37559(12) 0.6806(3) 0.5664(6)
H11_2 H 0.3766 0.7119 0.5600
C19_2 C 0.36583(9) 0.6532(2) 0.5374(6)
H12_2 H 0.3602 0.6658 0.5117
C22_2 C 0.41915(11) 0.7042(4) 0.6839(6)
H14_2 H 0.4287 0.6917 0.7010
C24_2 C 0.40047(11) 0.7671(3) 0.6639(6)
H16_2 H 0.3976 0.7984 0.6650
C25_2 C 0.39078(12) 0.7381(4) 0.6406(6)
H17_2 H 0.3803 0.7500 0.6268
C26_2 C 0.55874(10) 0.7388(3) 0.7163(6)
C27_2 C 0.53813(9) 0.7490(2) 0.7152(6)
C28_2 C 0.52799(9) 0.7331(3) 0.6793(6)
H18_2 H 0.5335 0.7167 0.6556
C29_2 C 0.50991(10) 0.7414(3) 0.6785(6)
H19_2 H 0.5030 0.7321 0.6533
C30_2 C 0.50151(10) 0.7634(3) 0.7146(6)
C31_2 C 0.51231(9) 0.7784(3) 0.7493(6)
H20_2 H 0.5067 0.7927 0.7742
C32_2 C 0.52990(8) 0.7742(2) 0.7500(6)
H21_2 H 0.5368 0.7877 0.7732
C33_2 C 0.48200(10) 0.7686(3) 0.7146(6)
C34_2 C 0.47173(11) 0.7693(3) 0.6744(6)
H22_2 H 0.4774 0.7678 0.6459
C35_2 C 0.45393(12) 0.7720(4) 0.6773(6)
H23_2 H 0.4473 0.7711 0.6501
C36_2 C 0.44530(10) 0.7758(3) 0.7142(6)
C39_2 C 0.35548(9) 0.9813(2) 0.9173(6)
C40_2 C 0.36675(9) 0.9508(2) 0.8874(6)
C41_2 C 0.37946(10) 0.9674(3) 0.8587(6)
H25_2 H 0.3818 0.9990 0.8575
C42_2 C 0.38856(11) 0.9390(3) 0.8325(6)
H26_2 H 0.3970 0.9519 0.8124
C43_2 C 0.38691(9) 0.8939(3) 0.8317(6)
C44_2 C 0.37348(11) 0.8766(2) 0.8609(6)
H27_2 H 0.3710 0.8451 0.8614
C45_2 C 0.36429(10) 0.9052(3) 0.8880(6)
H28_2 H 0.3558 0.8930 0.9083
C46_2 C 0.39754(10) 0.8645(3) 0.8031(6)
C47_2 C 0.41425(10) 0.8761(3) 0.7843(6)
H29_2 H 0.4195 0.9042 0.7923
C48_2 C 0.42276(10) 0.8497(3) 0.7564(6)
H30_2 H 0.4336 0.8602 0.7437
C49_2 C 0.41673(9) 0.8069(3) 0.7445(6)
C50_2 C 0.40070(10) 0.7925(3) 0.7634(6)
H31_2 H 0.3963 0.7631 0.7567
C51_2 C 0.39095(11) 0.8208(3) 0.7922(6)
H32_2 H 0.3799 0.8107 0.8044
H33_2 H 0.3167 0.9069 0.9802
H37_2 H 0.2911 0.8750 0.9854
N1_2 N 0.42605(8) 0.7799(3) 0.7139(6)
O1_2 O 0.34452(6) 0.59673(16) 0.4855(5)
O2_2 O 0.35817(6) 0.53652(14) 0.5150(5)
O3_2 O 0.34775(7) 0.96304(18) 0.9498(5)
O5_2 O 0.56377(6) 0.71729(17) 0.6857(6)
O6_2 O 0.56670(6) 0.75340(19) 0.7490(5)
O17_2 O 0.31670(6) 0.99660(19) 0.9990(5)
Zn5_2 Zn 0.587334(9) 0.69071(2) 0.6855(5)
C3_3 C 0.14418(11) 0.0600(3) 0.8834(6)
C8_3 C 0.16596(10) 0.0020(3) 0.9380(6)
C10_3 C 0.15926(11) 0.0750(3) 0.9058(6)
H6_3 H 0.1630 0.1054 0.9022
C13_3 C 0.10531(8) 0.1723(2) 0.7631(6)
C14_3 C 0.11445(8) 0.1423(2) 0.7962(6)
C15_3 C 0.12135(8) 0.1588(3) 0.8355(6)
H9_3 H 0.1195 0.1896 0.8429
C16_3 C 0.13068(11) 0.1323(3) 0.8639(6)
H10_3 H 0.1351 0.1451 0.8910
C17_3 C 0.13405(10) 0.0871(3) 0.8550(6)
C18_3 C 0.12559(12) 0.0694(3) 0.8164(6)
H11_3 H 0.1266 0.0381 0.8100
C19_3 C 0.11583(9) 0.0968(2) 0.7874(6)
H12_3 H 0.1102 0.0842 0.7617
C22_3 C 0.16915(11) 0.0458(4) 0.9339(6)
H14_3 H 0.1787 0.0583 0.9510
C25_3 C 0.14078(12) 0.0119(4) 0.8906(6)
H17_3 H 0.1303 0.0000 0.8768
C26_3 C 0.30874(10) 0.0112(3) 0.9663(6)
C27_3 C 0.28813(9) 0.0010(2) 0.9652(6)
C28_3 C 0.27799(9) 0.0169(3) 0.9293(6)
H18_3 H 0.2835 0.0333 0.9056
C29_3 C 0.25991(10) 0.0086(3) 0.9285(6)
H19_3 H 0.2530 0.0179 0.9033
C5_3 C 0.20398(11) 0.9766(3) 0.0056(6)
H4_3 H 0.1977 0.9765 0.0333
C9_3 C 0.22262(10) 0.9794(3) 0.0030(6)
H5_3 H 0.2291 0.9798 0.0305
C12_3 C 0.09194(8) 0.6031(2) 0.1411(6)
H8_3 H 0.1000 0.5984 0.1653
C20_3 C 0.07903(8) 0.5779(2) 0.0724(6)
C21_3 C 0.09031(9) 0.5715(2) 0.1105(6)
H13_3 H 0.0967 0.5440 0.1138
C23_3 C 0.06980(8) 0.6172(2) 0.0698(6)
H15_3 H 0.0622 0.6235 0.0451
H20_3 H 0.2567 0.9573 0.0242
C32_3 C 0.27990(8) 0.9758(2) -0.0000(6)
H21_3 H 0.2868 0.9623 0.0232
C37_3 C 0.07203(8) 0.6487(2) 0.1056(6)
H24_3 H 0.0655 0.6762 0.1049
C38_3 C 0.07769(9) 0.5464(3) 0.0349(6)
C39_3 C 0.10548(9) 0.7687(2) 0.1673(6)
C40_3 C 0.11675(9) 0.7992(2) 0.1374(6)
C41_3 C 0.12946(10) 0.7826(3) 0.1087(6)
H25_3 H 0.1318 0.7510 0.1075
C42_3 C 0.13856(11) 0.8110(3) 0.0825(6)
H26_3 H 0.1470 0.7981 0.0624
C43_3 C 0.13691(9) 0.8561(3) 0.0817(6)
C44_3 C 0.12348(11) 0.8734(2) 0.1109(6)
H27_3 H 0.1210 0.9049 0.1114
C45_3 C 0.11429(10) 0.8448(3) 0.1380(6)
H28_3 H 0.1058 0.8570 0.1583
C46_3 C 0.14754(10) 0.8855(3) 0.0531(6)
C47_3 C 0.16425(10) 0.8739(3) 0.0343(6)
H29_3 H 0.1695 0.8458 0.0423
C48_3 C 0.17276(10) 0.9003(3) 0.0064(6)
C50_3 C 0.15070(10) 0.9575(3) 0.0134(6)
H31_3 H 0.1463 0.9869 0.0067
C51_3 C 0.14095(11) 0.9292(3) 0.0422(6)
H32_3 H 0.1299 0.9393 0.0544
C52_3 C 0.0695 0.8512 0.2603
H33_3 H 0.0667 0.8431 0.2302
C53_3 C 0.0659(3) 0.8966(7) 0.3243(8)
H34_3 H 0.0778 0.8829 0.3271
H35_3 H 0.0585 0.8872 0.3497
H36_3 H 0.0671 0.9295 0.3242
C54_3 C 0.0418(4) 0.8923(16) 0.2635(18)
H37_3 H 0.0411 0.8750 0.2354
H38_3 H 0.0412 0.9246 0.2568
H39_3 H 0.0319 0.8838 0.2832
N2_3 N 0.08294(6) 0.64108(17) 0.1398(5)
N3_3 N 0.08697(7) 0.50857(18) 0.0270(6)
N5_3 N 0.06621(9) 0.5513(2) 0.0013(6)
N6_3 N 0.10035(7) 0.4891(2) 0.0543(6)
H40_3 H 0.1034 0.5020 0.0797
H41_3 H 0.1056 0.4639 0.0458
N8_3 N 0.05823(15) 0.8827(3) 0.2851(7)
O3_3 O 0.09775(7) 0.78696(18) 0.1998(5)
O4_3 O 0.10563(6) 0.72745(16) 0.1574(5)
O7_3 O 0.08297(11) 0.8351(2) 0.2797(6)
H47_3 H 0.1690 0.0006 0.1004
C65_3 C 0.18462(9) 0.0205(3) 0.1524(6)
C66_3 C 0.18843(11) 0.0147(3) 0.1966(7)
H48_3 H 0.1981 0.0308 0.2095
C72_3 C 0.15321(9) 0.1749(2) 0.0211(6)
C73_3 C 0.13487(11) 0.1805(3) 0.0344(6)
H52_3 H 0.1303 0.1664 0.0607
C74_3 C 0.12423(10) 0.2071(3) 0.0075(6)
H53_3 H 0.1119 0.2098 0.0145
C75_3 C 0.16540(10) 0.1442(3) 0.0490(6)
C76_3 C 0.17929(10) 0.1234(3) 0.0316(6)
H54_3 H 0.1827 0.1310 0.0018
C77_3 C 0.18929(10) 0.0907(3) 0.0541(6)
H55_3 H 0.1980 0.0729 0.0389
C78_3 C 0.18601(10) 0.0856(3) 0.0987(6)
C79_3 C 0.17163(13) 0.1097(4) 0.1198(6)
H56_3 H 0.1692 0.1046 0.1507
C80_3 C 0.16187(11) 0.1384(4) 0.0975(6)
H57_3 H 0.1527 0.1550 0.1120
C85_3 C 0.26979(10) 0.0173(3) 0.1122(6)
C86_3 C 0.28120(9) 0.0462(2) 0.0898(6)
H60_3 H 0.2766 0.0726 0.0758
C87_3 C 0.30027(10) 0.0362(3) 0.0877(6)
H61_3 H 0.3085 0.0557 0.0731
C88_3 C 0.25016(11) 0.0284(3) 0.1139(6)
C90_3 C 0.22017(10) 0.0007(3) 0.1240(6)
C91_3 C 0.21373(10) 0.0448(3) 0.1193(6)
C92_3 C 0.22505(11) 0.0789(4) 0.1117(7)
H64_3 H 0.2205 0.1087 0.1087
C93_3 C 0.24397(11) 0.0715(3) 0.1081(6)
H65_3 H 0.2519 0.0957 0.1018
N9_3 N 0.19508(8) 0.0539(3) 0.1252(6)
O16_3 O 0.06377(6) 0.71729(17) 0.1857(6)
O17_3 O 0.06670(6) 0.75340(19) 0.2490(5)
O18_3 O 0.08551(6) 0.74567(19) 0.3303(5)
O20_2 O 0.11776(7) 0.79896(17) 0.2872(6)
C1_3 C 0.0752(2) 0.4149(6) 0.9562(7)
H1_3 H 0.0632 0.4184 0.9660
C2_3 C 0.10807(13) 0.4043(3) 0.9288(6)
H2_3 H 0.1200 0.4015 0.9185
C4_3 C 0.0796(2) 0.3728(6) 0.9346(7)
H3_3 H 0.0714 0.3489 0.9296
C6_3 C 0.08692(14) 0.4514(3) 0.9641(6)
C7_3 C 0.08029(11) 0.4917(3) 0.9884(6)
C11_3 C 0.10346(14) 0.4465(3) 0.9510(6)
H7_3 H 0.1121 0.4695 0.9558
C24_3 C 0.15047(11) 0.9829(3) 0.9139(6)
H16_3 H 0.1476 0.9516 0.9150
H17_4 H 0.1303 1.0000 0.8768
C30_3 C 0.25151(10) 0.9866(3) 0.9646(6)
C31_3 C 0.26231(9) 0.9716(3) 0.9993(6)
C32_4 C 0.27990(8) 0.9758(2) 1.0000(6)
C33_3 C 0.23200(10) 0.9814(3) 0.9646(6)
C34_3 C 0.22173(11) 0.9807(3) 0.9244(6)
H22_3 H 0.2274 0.9822 0.8959
C35_3 C 0.20393(12) 0.9780(4) 0.9273(6)
H23_3 H 0.1973 0.9789 0.9001
C36_3 C 0.19530(10) 0.9742(3) 0.9642(6)
H30_3 H 0.1836 0.8898 0.9937
C49_3 C 0.16673(9) 0.9431(3) 0.9945(6)
N1_3 N 0.17605(8) 0.9701(3) 0.9639(6)
N4_3 N 0.06775(9) 0.5165(2) 0.9721(6)
N7_3 N 0.09799(10) 0.3715(3) 0.9218(6)
C68_3 C 0.11905(13) 0.2606(3) 0.9432(6)
C69_3 C 0.13077(9) 0.2299(2) 0.9711(6)
C70_3 C 0.14728(10) 0.2233(3) 0.9579(6)
H50_3 H 0.1515 0.2366 0.9309
C71_3 C 0.15908(9) 0.1953(3) 0.9855(6)
H51_3 H 0.1712 0.1920 0.9771
O12_3 O 0.12407(6) 0.27708(16) 0.9090(5)
O13_3 O 0.10249(6) 0.2683(2) 0.9606(6)
O19_2 O 0.07948(6) 0.2994(2) 0.8808(6)
C55_3 C 0.12087(9) 0.8371(3) 0.3036(6)
C56_3 C 0.13223(9) 0.8694(2) 0.2773(6)
C57_3 C 0.13804(10) 0.8567(3) 0.2350(6)
H42_3 H 0.1349 0.8281 0.2228
C58_3 C 0.14878(10) 0.8870(3) 0.2104(6)
H43_3 H 0.1528 0.8791 0.1811
C59_3 C 0.15353(10) 0.9281(3) 0.2285(6)
C60_3 C 0.14833(9) 0.9401(3) 0.2709(6)
H44_3 H 0.1523 0.9678 0.2836
C61_3 C 0.13693(9) 0.9110(2) 0.2961(6)
H45_3 H 0.1327 0.9196 0.3249
C62_3 C 0.16456(9) 0.9610(3) 0.2016(6)
C63_3 C 0.16129(10) 0.9666(3) 0.1547(6)
H46_3 H 0.1522 0.9496 0.1401
C64_3 C 0.17122(10) 0.9962(3) 0.1315(6)
C67_3 C 0.17868(9) 0.9863(3) 0.2230(6)
H49_3 H 0.1811 0.9833 0.2542
C81_3 C 0.32510(9) 0.9831(3) 0.1055(6)
C82_3 C 0.30561(9) 0.9965(3) 0.1083(6)
C83_3 C 0.29394(11) 0.9682(3) 0.1309(6)
H58_3 H 0.2981 0.9416 0.1453
C84_3 C 0.27588(10) 0.9797(3) 0.1319(6)
H59_3 H 0.2677 0.9604 0.1470
C89_3 C 0.23813(11) 0.9926(3) 0.1221(6)
H62_3 H 0.2425 0.9628 0.1264
H63_3 H 0.2121 0.9764 0.1285
O9_3 O 0.32948(6) 0.9506(2) 0.1308(6)
C55_4 C 0.37087(9) 0.4129(3) 0.5536(6)
C56_4 C 0.38223(9) 0.3806(2) 0.5273(6)
C57_4 C 0.38804(10) 0.3933(3) 0.4850(6)
H42_4 H 0.3849 0.4219 0.4728
C58_4 C 0.39878(10) 0.3630(3) 0.4604(6)
H43_4 H 0.4028 0.3709 0.4311
C59_4 C 0.40353(10) 0.3219(3) 0.4785(6)
C60_4 C 0.39833(9) 0.3099(3) 0.5209(6)
H44_4 H 0.4023 0.2822 0.5336
C61_4 C 0.38693(9) 0.3390(2) 0.5461(6)
H45_4 H 0.3827 0.3304 0.5749
C62_4 C 0.41456(9) 0.2890(3) 0.4516(6)
C63_4 C 0.41129(10) 0.2834(3) 0.4047(6)
H46_4 H 0.4022 0.3004 0.3901
C64_4 C 0.42122(10) 0.2538(3) 0.3815(6)
H47_4 H 0.4190 0.2494 0.3504
C65_4 C 0.43462(9) 0.2295(3) 0.4024(6)
C66_4 C 0.43843(11) 0.2353(3) 0.4466(7)
H48_4 H 0.4481 0.2192 0.4595
C67_4 C 0.42868(9) 0.2637(3) 0.4730(6)
H49_4 H 0.4311 0.2667 0.5042
C69_4 C 0.38077(9) 0.0201(2) 0.2211(6)
C70_4 C 0.39728(10) 0.0267(3) 0.2079(6)
H50_4 H 0.4015 0.0134 0.1809
C71_4 C 0.40908(9) 0.0547(3) 0.2355(6)
H51_4 H 0.4212 0.0580 0.2271
C72_4 C 0.40321(9) 0.0751(2) 0.2711(6)
C73_4 C 0.38487(11) 0.0695(3) 0.2844(6)
H52_4 H 0.3803 0.0836 0.3107
C74_4 C 0.37423(10) 0.0429(3) 0.2575(6)
H53_4 H 0.3619 0.0402 0.2645
C75_4 C 0.41540(10) 0.1058(3) 0.2990(6)
C76_4 C 0.42929(10) 0.1266(3) 0.2816(6)
H54_4 H 0.4327 0.1190 0.2518
C77_4 C 0.43929(10) 0.1593(3) 0.3041(6)
H55_4 H 0.4480 0.1771 0.2889
C78_4 C 0.43601(10) 0.1644(3) 0.3487(6)
C79_4 C 0.42163(13) 0.1403(4) 0.3698(6)
H56_4 H 0.4192 0.1454 0.4007
C80_4 C 0.41187(11) 0.1116(4) 0.3475(6)
H57_4 H 0.4027 0.0950 0.3620
C81_4 C 0.57510(9) 0.2669(3) 0.3555(6)
C82_4 C 0.55561(9) 0.2535(3) 0.3583(6)
C83_4 C 0.54394(11) 0.2818(3) 0.3809(6)
H58_4 H 0.5481 0.3084 0.3953
C84_4 C 0.52588(10) 0.2703(3) 0.3819(6)
H59_4 H 0.5177 0.2896 0.3970
C85_4 C 0.51979(10) 0.2327(3) 0.3622(6)
C86_4 C 0.53120(9) 0.2038(2) 0.3398(6)
H60_4 H 0.5266 0.1774 0.3258
C87_4 C 0.55027(10) 0.2138(3) 0.3377(6)
H61_4 H 0.5585 0.1943 0.3231
C88_4 C 0.50016(11) 0.2216(3) 0.3639(6)
C89_4 C 0.48813(11) 0.2574(3) 0.3721(6)
H62_4 H 0.4925 0.2872 0.3764
C90_4 C 0.47017(10) 0.2493(3) 0.3740(6)
H63_4 H 0.4621 0.2736 0.3785
C91_4 C 0.46373(10) 0.2052(3) 0.3693(6)
C92_4 C 0.47505(11) 0.1711(4) 0.3617(7)
H64_4 H 0.4705 0.1413 0.3587
C93_4 C 0.49397(11) 0.1785(3) 0.3581(6)
H65_4 H 0.5019 0.1543 0.3518
N9_4 N 0.44508(8) 0.1961(3) 0.3752(6)
O8_3 O 0.58551(6) 0.24567(19) 0.3303(5)
O9_4 O 0.57948(6) 0.2994(2) 0.3808(6)
O10_2 O 0.36776(7) 0.45104(17) 0.5372(6)
Zn8_2 Zn 0.593027(9) 0.27147(3) 0.2679(5)
Zn10_3 Zn 0.604480(9) 0.31473(3) 0.3877(5)
C1_4 C 0.3252(2) 0.8351(6) 0.2062(7)
H1_4 H 0.3132 0.8316 0.2160
C2_4 C 0.35807(13) 0.8457(3) 0.1788(6)
H2_4 H 0.3700 0.8485 0.1685
C3_4 C 0.39418(11) 0.1900(3) 0.1334(6)
C4_4 C 0.3296(2) 0.8772(6) 0.1846(7)
H3_4 H 0.3214 0.9011 0.1796
C5_4 C 0.45398(11) 0.2734(3) 0.2556(6)
H4_4 H 0.4477 0.2735 0.2833
C6_4 C 0.33692(14) 0.7986(3) 0.2141(6)
C7_4 C 0.33029(11) 0.7583(3) 0.2384(6)
C8_4 C 0.41596(10) 0.2480(3) 0.1880(6)
C9_4 C 0.47262(10) 0.2706(3) 0.2530(6)
H5_4 H 0.4791 0.2702 0.2805
C10_4 C 0.40926(11) 0.1750(3) 0.1558(6)
H6_4 H 0.4130 0.1446 0.1522
C11_4 C 0.35346(14) 0.8035(3) 0.2010(6)
H7_4 H 0.3621 0.7805 0.2058
C12_4 C 0.34194(8) 0.6469(2) 0.3911(6)
H8_4 H 0.3500 0.6516 0.4153
C13_4 C 0.35531(8) 0.0777(2) 0.0131(6)
C14_4 C 0.36445(8) 0.1077(2) 0.0462(6)
C15_4 C 0.37135(8) 0.0912(3) 0.0855(6)
H9_4 H 0.3695 0.0604 0.0929
C16_4 C 0.38068(11) 0.1177(3) 0.1139(6)
H10_4 H 0.3851 0.1049 0.1410
C17_4 C 0.38405(10) 0.1629(3) 0.1050(6)
C18_4 C 0.37559(12) 0.1806(3) 0.0664(6)
H11_4 H 0.3766 0.2119 0.0600
C19_4 C 0.36583(9) 0.1532(2) 0.0374(6)
H12_4 H 0.3602 0.1658 0.0117
C20_4 C 0.32903(8) 0.6721(2) 0.3224(6)
C21_4 C 0.34031(9) 0.6785(2) 0.3605(6)
H13_4 H 0.3467 0.7060 0.3638
C22_4 C 0.41915(11) 0.2042(4) 0.1839(6)
H14_4 H 0.4287 0.1917 0.2010
C23_4 C 0.31980(8) 0.6328(2) 0.3198(6)
H15_4 H 0.3122 0.6265 0.2951
C24_4 C 0.40047(11) 0.2671(3) 0.1639(6)
H16_4 H 0.3976 0.2984 0.1650
C25_4 C 0.39078(12) 0.2381(4) 0.1406(6)
H17_5 H 0.3803 0.2500 0.1268
C26_4 C 0.55874(10) 0.2388(3) 0.2163(6)
C27_4 C 0.53813(9) 0.2490(2) 0.2152(6)
C28_4 C 0.52799(9) 0.2331(3) 0.1793(6)
H18_4 H 0.5335 0.2167 0.1556
C29_4 C 0.50991(10) 0.2414(3) 0.1785(6)
H19_4 H 0.5030 0.2321 0.1533
C30_4 C 0.50151(10) 0.2634(3) 0.2146(6)
C31_4 C 0.51231(9) 0.2784(3) 0.2493(6)
H20_4 H 0.5067 0.2927 0.2742
C32_5 C 0.52990(8) 0.2742(2) 0.2500(6)
H21_4 H 0.5368 0.2877 0.2732
C33_4 C 0.48200(10) 0.2686(3) 0.2146(6)
C34_4 C 0.47173(11) 0.2693(3) 0.1744(6)
H22_4 H 0.4774 0.2678 0.1459
C35_4 C 0.45393(12) 0.2720(4) 0.1773(6)
H23_4 H 0.4473 0.2711 0.1501
C36_4 C 0.44530(10) 0.2758(3) 0.2142(6)
C37_4 C 0.32203(8) 0.6013(2) 0.3556(6)
H24_4 H 0.3155 0.5738 0.3549
C38_4 C 0.32769(9) 0.7036(3) 0.2849(6)
C39_4 C 0.35548(9) 0.4813(2) 0.4173(6)
C40_4 C 0.36675(9) 0.4508(2) 0.3874(6)
C41_4 C 0.37946(10) 0.4674(3) 0.3587(6)
H25_4 H 0.3818 0.4990 0.3575
C42_4 C 0.38856(11) 0.4390(3) 0.3325(6)
H26_4 H 0.3970 0.4519 0.3124
C43_4 C 0.38691(9) 0.3939(3) 0.3317(6)
C44_4 C 0.37348(11) 0.3766(2) 0.3609(6)
H27_4 H 0.3710 0.3451 0.3614
C45_4 C 0.36429(10) 0.4052(3) 0.3880(6)
H28_4 H 0.3558 0.3930 0.4083
C46_4 C 0.39754(10) 0.3645(3) 0.3031(6)
C47_4 C 0.41425(10) 0.3761(3) 0.2843(6)
H29_4 H 0.4195 0.4042 0.2923
C48_4 C 0.42276(10) 0.3497(3) 0.2564(6)
H30_4 H 0.4336 0.3602 0.2437
C49_4 C 0.41673(9) 0.3069(3) 0.2445(6)
C50_4 C 0.40070(10) 0.2925(3) 0.2634(6)
H31_4 H 0.3963 0.2631 0.2567
C51_4 C 0.39095(11) 0.3208(3) 0.2922(6)
H32_4 H 0.3799 0.3107 0.3044
C52_4 C 0.3195 0.3988 0.5103
H33_4 H 0.3167 0.4069 0.4802
C53_4 C 0.3159(3) 0.3534(7) 0.5743(8)
H34_4 H 0.3278 0.3671 0.5771
H35_4 H 0.3085 0.3628 0.5997
H36_4 H 0.3171 0.3205 0.5742
C54_4 C 0.2918(4) 0.3577(16) 0.5135(18)
H37_4 H 0.2911 0.3750 0.4854
H38_4 H 0.2912 0.3254 0.5068
H39_4 H 0.2819 0.3662 0.5332
N1_4 N 0.42605(8) 0.2799(3) 0.2139(6)
N2_4 N 0.33294(6) 0.60892(17) 0.3898(5)
N3_4 N 0.33697(7) 0.74143(18) 0.2770(6)
N4_4 N 0.31775(9) 0.7335(2) 0.2221(6)
N5_4 N 0.31621(9) 0.6987(2) 0.2513(6)
N6_4 N 0.35035(7) 0.7609(2) 0.3043(6)
H40_4 H 0.3534 0.7480 0.3297
H41_4 H 0.3556 0.7861 0.2958
N7_4 N 0.34799(10) 0.8785(3) 0.1718(6)
N8_4 N 0.30823(15) 0.3673(3) 0.5351(7)
O3_4 O 0.34775(7) 0.46304(18) 0.4498(5)
O4_4 O 0.35563(6) 0.52255(16) 0.4074(5)
O5_3 O 0.56377(6) 0.21729(17) 0.1857(6)
O6_3 O 0.56670(6) 0.25340(19) 0.2490(5)
O7_4 O 0.33297(11) 0.4149(2) 0.5297(6)
C68_4 C 0.36905(13) 0.9894(3) 0.1932(6)
O12_4 O 0.37407(6) 0.97292(16) 0.1590(5)
O13_4 O 0.35249(6) 0.9817(2) 0.2106(6)
Zn5_3 Zn 0.587334(9) 0.19071(2) 0.1855(5)
C5_5 C 0.70398(11) 0.4766(3) 0.0056(6)
H4_5 H 0.6977 0.4765 0.0333
C9_5 C 0.72262(10) 0.4794(3) 0.0030(6)
H5_5 H 0.7291 0.4798 0.0305
C12_5 C 0.59194(8) 0.1031(2) 0.1411(6)
H8_5 H 0.6000 0.0984 0.1653
C20_5 C 0.57903(8) 0.0779(2) 0.0724(6)
C21_5 C 0.59031(9) 0.0715(2) 0.1105(6)
H13_5 H 0.5967 0.0440 0.1138
C23_5 C 0.56980(8) 0.1172(2) 0.0698(6)
H15_5 H 0.5622 0.1235 0.0451
H20_5 H 0.7567 0.4573 0.0242
C32_6 C 0.77990(8) 0.4758(2) -0.0000(6)
H21_5 H 0.7868 0.4623 0.0232
C37_5 C 0.57203(8) 0.1487(2) 0.1056(6)
H24_5 H 0.5655 0.1762 0.1049
C38_5 C 0.57769(9) 0.0464(3) 0.0349(6)
C39_5 C 0.60548(9) 0.2687(2) 0.1673(6)
C40_5 C 0.61675(9) 0.2992(2) 0.1374(6)
C41_5 C 0.62946(10) 0.2826(3) 0.1087(6)
H25_5 H 0.6318 0.2510 0.1075
C42_5 C 0.63856(11) 0.3110(3) 0.0825(6)
H26_5 H 0.6470 0.2981 0.0624
C43_5 C 0.63691(9) 0.3561(3) 0.0817(6)
C44_5 C 0.62348(11) 0.3734(2) 0.1109(6)
H27_5 H 0.6210 0.4049 0.1114
C45_5 C 0.61429(10) 0.3448(3) 0.1380(6)
H28_5 H 0.6058 0.3570 0.1583
C46_5 C 0.64754(10) 0.3855(3) 0.0531(6)
C47_5 C 0.66425(10) 0.3739(3) 0.0343(6)
H29_5 H 0.6695 0.3458 0.0423
C48_5 C 0.67276(10) 0.4003(3) 0.0064(6)
C50_5 C 0.65070(10) 0.4575(3) 0.0134(6)
H31_5 H 0.6463 0.4869 0.0067
C51_5 C 0.64095(11) 0.4292(3) 0.0422(6)
H32_5 H 0.6299 0.4393 0.0544
C52_5 C 0.5695 0.3512 0.2603
H33_5 H 0.5667 0.3431 0.2302
C53_5 C 0.5659(3) 0.3966(7) 0.3243(8)
H34_5 H 0.5778 0.3829 0.3271
H35_5 H 0.5585 0.3872 0.3497
H36_5 H 0.5671 0.4295 0.3242
C54_5 C 0.5418(4) 0.3923(16) 0.2635(18)
H37_5 H 0.5411 0.3750 0.2354
H38_5 H 0.5412 0.4246 0.2568
H39_5 H 0.5319 0.3838 0.2832
N2_5 N 0.58294(6) 0.14108(17) 0.1398(5)
N3_5 N 0.58697(7) 0.00857(18) 0.0270(6)
N5_5 N 0.56621(9) 0.0513(2) 0.0013(6)
H40_5 H 0.6034 0.0020 0.0797
N8_5 N 0.55823(15) 0.3827(3) 0.2851(7)
O3_5 O 0.59775(7) 0.28696(18) 0.1998(5)
O4_5 O 0.60563(6) 0.22745(16) 0.1574(5)
O7_5 O 0.58297(11) 0.3351(2) 0.2797(6)
O14_3 O 0.59452(6) 0.15327(16) 0.2355(5)
O15_3 O 0.60817(6) 0.21348(14) 0.2650(5)
Zn9_2 Zn 0.843027(9) 0.47853(3) 0.0179(5)
O20_3 O 0.61776(7) 0.29896(17) 0.2872(6)
C3_5 C 0.64418(11) 0.5600(3) 0.8834(6)
C8_5 C 0.66596(10) 0.5020(3) 0.9380(6)
C10_5 C 0.65926(11) 0.5750(3) 0.9058(6)
H6_5 H 0.6630 0.6054 0.9022
C13_5 C 0.60531(8) 0.6723(2) 0.7631(6)
C14_5 C 0.61445(8) 0.6423(2) 0.7962(6)
C15_5 C 0.62135(8) 0.6588(3) 0.8355(6)
H9_5 H 0.6195 0.6896 0.8429
C16_5 C 0.63068(11) 0.6323(3) 0.8639(6)
H10_5 H 0.6351 0.6451 0.8910
C17_5 C 0.63405(10) 0.5871(3) 0.8550(6)
C18_5 C 0.62559(12) 0.5694(3) 0.8164(6)
H11_5 H 0.6266 0.5381 0.8100
C19_5 C 0.61583(9) 0.5968(2) 0.7874(6)
H12_5 H 0.6102 0.5842 0.7617
C22_5 C 0.66915(11) 0.5458(4) 0.9339(6)
H14_5 H 0.6787 0.5583 0.9510
C24_5 C 0.65047(11) 0.4829(3) 0.9139(6)
H16_5 H 0.6476 0.4516 0.9150
C25_5 C 0.64078(12) 0.5119(4) 0.8906(6)
H17_6 H 0.6303 0.5000 0.8768
C26_5 C 0.80874(10) 0.5112(3) 0.9663(6)
C27_5 C 0.78813(9) 0.5010(2) 0.9652(6)
C28_5 C 0.77799(9) 0.5169(3) 0.9293(6)
H18_5 H 0.7835 0.5333 0.9056
C29_5 C 0.75991(10) 0.5086(3) 0.9285(6)
H19_5 H 0.7530 0.5179 0.9033
C30_5 C 0.75151(10) 0.4866(3) 0.9646(6)
C31_5 C 0.76231(9) 0.4716(3) 0.9993(6)
C32_7 C 0.77990(8) 0.4758(2) 1.0000(6)
C33_5 C 0.73200(10) 0.4814(3) 0.9646(6)
C34_5 C 0.72173(11) 0.4807(3) 0.9244(6)
H22_5 H 0.7274 0.4822 0.8959
C35_5 C 0.70393(12) 0.4780(4) 0.9273(6)
H23_5 H 0.6973 0.4789 0.9001
C36_5 C 0.69530(10) 0.4742(3) 0.9642(6)
H30_5 H 0.6836 0.3898 0.9937
C49_5 C 0.66673(9) 0.4431(3) 0.9945(6)
N1_5 N 0.67605(8) 0.4701(3) 0.9639(6)
N4_5 N 0.56775(9) 0.0165(2) 0.9721(6)
O1_3 O 0.59452(6) 0.65327(16) 0.7355(5)
O2_3 O 0.60817(6) 0.71348(14) 0.7650(5)
O5_4 O 0.81377(6) 0.53271(17) 0.9357(6)
O6_4 O 0.81670(6) 0.49660(19) 0.9990(5)
Zn5_4 Zn 0.837334(9) 0.55929(2) 0.9355(5)
N6_5 N 0.60035(7) 0.9891(2) 0.0543(6)
H41_5 H 0.6056 0.9639 0.0458
C55_5 C 0.62087(9) 0.3371(3) 0.3036(6)
C56_5 C 0.63223(9) 0.3694(2) 0.2773(6)
C57_5 C 0.63804(10) 0.3567(3) 0.2350(6)
H42_5 H 0.6349 0.3281 0.2228
C58_5 C 0.64878(10) 0.3870(3) 0.2104(6)
H43_5 H 0.6528 0.3791 0.1811
C59_5 C 0.65353(10) 0.4281(3) 0.2285(6)
C60_5 C 0.64833(9) 0.4401(3) 0.2709(6)
H44_5 H 0.6523 0.4678 0.2836
C61_5 C 0.63693(9) 0.4110(2) 0.2961(6)
H45_5 H 0.6327 0.4196 0.3249
C62_5 C 0.66456(9) 0.4610(3) 0.2016(6)
C63_5 C 0.66129(10) 0.4666(3) 0.1547(6)
H46_5 H 0.6522 0.4496 0.1401
C64_5 C 0.67122(10) 0.4962(3) 0.1315(6)
H47_5 H 0.6690 0.5006 0.1004
C65_5 C 0.68462(9) 0.5205(3) 0.1524(6)
C66_5 C 0.68843(11) 0.5147(3) 0.1966(7)
H48_5 H 0.6981 0.5308 0.2095
C67_5 C 0.67868(9) 0.4863(3) 0.2230(6)
H49_5 H 0.6811 0.4833 0.2542
C72_5 C 0.65321(9) 0.6749(2) 0.0211(6)
C73_5 C 0.63487(11) 0.6805(3) 0.0344(6)
H52_5 H 0.6303 0.6664 0.0607
C74_5 C 0.62423(10) 0.7071(3) 0.0075(6)
H53_5 H 0.6119 0.7098 0.0145
C75_5 C 0.66540(10) 0.6442(3) 0.0490(6)
C76_5 C 0.67929(10) 0.6234(3) 0.0316(6)
H54_5 H 0.6827 0.6310 0.0018
C77_5 C 0.68929(10) 0.5907(3) 0.0541(6)
H55_5 H 0.6980 0.5729 0.0389
C78_5 C 0.68601(10) 0.5856(3) 0.0987(6)
C79_5 C 0.67163(13) 0.6097(4) 0.1198(6)
H56_5 H 0.6692 0.6046 0.1507
C80_5 C 0.66187(11) 0.6384(4) 0.0975(6)
H57_5 H 0.6527 0.6550 0.1120
C81_5 C 0.82510(9) 0.4831(3) 0.1055(6)
C82_5 C 0.80561(9) 0.4965(3) 0.1083(6)
C83_5 C 0.79394(11) 0.4682(3) 0.1309(6)
H58_5 H 0.7981 0.4416 0.1453
C84_5 C 0.77588(10) 0.4797(3) 0.1319(6)
H59_5 H 0.7677 0.4604 0.1470
C85_5 C 0.76979(10) 0.5173(3) 0.1122(6)
C86_5 C 0.78120(9) 0.5462(2) 0.0898(6)
H60_5 H 0.7766 0.5726 0.0758
C87_5 C 0.80027(10) 0.5362(3) 0.0877(6)
H61_5 H 0.8085 0.5557 0.0731
C88_5 C 0.75016(11) 0.5284(3) 0.1139(6)
C89_5 C 0.73813(11) 0.4926(3) 0.1221(6)
H62_5 H 0.7425 0.4628 0.1264
C90_5 C 0.72017(10) 0.5007(3) 0.1240(6)
H63_5 H 0.7121 0.4764 0.1285
C91_5 C 0.71373(10) 0.5448(3) 0.1193(6)
C92_5 C 0.72505(11) 0.5789(4) 0.1117(7)
H64_5 H 0.7205 0.6087 0.1087
C93_5 C 0.74397(11) 0.5715(3) 0.1081(6)
H65_5 H 0.7519 0.5957 0.1018
N9_5 N 0.69508(8) 0.5539(3) 0.1252(6)
O8_4 O 0.83551(6) 0.50433(19) 0.0803(5)
O9_5 O 0.82948(6) 0.4506(2) 0.1308(6)
O11_3 O 0.61601(7) 0.35083(18) 0.3410(6)
Zn10_4 Zn 0.854480(9) 0.43527(3) 0.1377(5)
C1_5 C 0.5752(2) 0.9149(6) 0.9562(7)
H1_5 H 0.5632 0.9184 0.9660
C2_5 C 0.60807(13) 0.9043(3) 0.9288(6)
H2_5 H 0.6200 0.9015 0.9185
C4_5 C 0.5796(2) 0.8728(6) 0.9346(7)
H3_5 H 0.5714 0.8489 0.9296
C6_5 C 0.58692(14) 0.9514(3) 0.9641(6)
C7_5 C 0.58029(11) 0.9917(3) 0.9884(6)
C11_5 C 0.60346(14) 0.9465(3) 0.9510(6)
H7_5 H 0.6121 0.9695 0.9558
N7_5 N 0.59799(10) 0.8715(3) 0.9218(6)
C68_5 C 0.61905(13) 0.7606(3) 0.9432(6)
C69_5 C 0.63077(9) 0.7299(2) 0.9711(6)
C70_5 C 0.64728(10) 0.7233(3) 0.9579(6)
H50_5 H 0.6515 0.7366 0.9309
C71_5 C 0.65908(9) 0.6953(3) 0.9855(6)
H51_5 H 0.6712 0.6920 0.9771
O12_5 O 0.62407(6) 0.77708(16) 0.9090(5)
O13_5 O 0.60249(6) 0.7683(2) 0.9606(6)
O21_3 O 0.61601(7) 0.85083(18) 0.8410(6)
C81_6 C 0.07510(9) 0.7669(3) 0.3555(6)
C82_6 C 0.05561(9) 0.7535(3) 0.3583(6)
C83_6 C 0.04394(11) 0.7818(3) 0.3809(6)
H58_6 H 0.0481 0.8084 0.3953
C84_6 C 0.02588(10) 0.7703(3) 0.3819(6)
H59_6 H 0.0177 0.7896 0.3970
C85_6 C 0.01979(10) 0.7327(3) 0.3622(6)
C86_6 C 0.03120(9) 0.7038(2) 0.3398(6)
H60_6 H 0.0266 0.6774 0.3258
C87_6 C 0.05027(10) 0.7138(3) 0.3377(6)
H61_6 H 0.0585 0.6943 0.3231
C88_6 C 0.00016(11) 0.7216(3) 0.3639(6)
H65_6 H 0.0019 0.6543 0.3518
C26_6 C 0.05874(10) 0.7388(3) 0.2163(6)
C27_6 C 0.03813(9) 0.7490(2) 0.2152(6)
C28_6 C 0.02799(9) 0.7331(3) 0.1793(6)
H18_6 H 0.0335 0.7167 0.1556
C29_6 C 0.00991(10) 0.7414(3) 0.1785(6)
H19_6 H 0.0030 0.7321 0.1533
C30_6 C 0.00151(10) 0.7634(3) 0.2146(6)
C31_6 C 0.01231(9) 0.7784(3) 0.2493(6)
H20_6 H 0.0067 0.7927 0.2742
C32_8 C 0.02990(8) 0.7742(2) 0.2500(6)
H21_6 H 0.0368 0.7877 0.2732
C1_6 C 0.8252(2) 0.3351(6) 0.2062(7)
H1_6 H 0.8132 0.3316 0.2160
C2_6 C 0.85807(13) 0.3457(3) 0.1788(6)
H2_6 H 0.8700 0.3485 0.1685
C4_6 C 0.8296(2) 0.3772(6) 0.1846(7)
H3_6 H 0.8214 0.4011 0.1796
C6_6 C 0.83692(14) 0.2986(3) 0.2141(6)
C7_6 C 0.83029(11) 0.2583(3) 0.2384(6)
C11_6 C 0.85346(14) 0.3035(3) 0.2010(6)
H7_6 H 0.8621 0.2805 0.2058
C12_6 C 0.84194(8) 0.1469(2) 0.3911(6)
H8_6 H 0.8500 0.1516 0.4153
C20_6 C 0.82903(8) 0.1721(2) 0.3224(6)
C21_6 C 0.84031(9) 0.1785(2) 0.3605(6)
H13_6 H 0.8467 0.2060 0.3638
C23_6 C 0.81980(8) 0.1328(2) 0.3198(6)
H15_6 H 0.8122 0.1265 0.2951
C37_6 C 0.82203(8) 0.1013(2) 0.3556(6)
H24_6 H 0.8155 0.0738 0.3549
C38_6 C 0.82769(9) 0.2036(3) 0.2849(6)
N2_6 N 0.83294(6) 0.10892(17) 0.3898(5)
N3_6 N 0.83697(7) 0.24143(18) 0.2770(6)
N4_6 N 0.81775(9) 0.2335(2) 0.2221(6)
N5_6 N 0.81621(9) 0.1987(2) 0.2513(6)
N6_6 N 0.85035(7) 0.2609(2) 0.3043(6)
H40_6 H 0.8534 0.2480 0.3297
H41_6 H 0.8556 0.2861 0.2958
N7_6 N 0.84799(10) 0.3785(3) 0.1718(6)
O4_6 O 0.85563(6) 0.02255(16) 0.4074(5)
Zn1_3 Zn 0.837334(9) 0.05929(2) 0.4355(5)
C55_6 C 0.87087(9) 0.9129(3) 0.5536(6)
C56_6 C 0.88223(9) 0.8806(2) 0.5273(6)
C57_6 C 0.88804(10) 0.8933(3) 0.4850(6)
H42_6 H 0.8849 0.9219 0.4728
C58_6 C 0.89878(10) 0.8630(3) 0.4604(6)
H43_6 H 0.9028 0.8709 0.4311
C59_6 C 0.90353(10) 0.8219(3) 0.4785(6)
C60_6 C 0.89833(9) 0.8099(3) 0.5209(6)
H44_6 H 0.9023 0.7822 0.5336
C61_6 C 0.88693(9) 0.8390(2) 0.5461(6)
H45_6 H 0.8827 0.8304 0.5749
C62_6 C 0.91456(9) 0.7890(3) 0.4516(6)
C63_6 C 0.91129(10) 0.7834(3) 0.4047(6)
H46_6 H 0.9022 0.8004 0.3901
C64_6 C 0.92122(10) 0.7538(3) 0.3815(6)
H47_6 H 0.9190 0.7494 0.3504
C65_6 C 0.93462(9) 0.7295(3) 0.4024(6)
C66_6 C 0.93843(11) 0.7353(3) 0.4466(7)
H48_6 H 0.9481 0.7192 0.4595
C67_6 C 0.92868(9) 0.7637(3) 0.4730(6)
H49_6 H 0.9311 0.7667 0.5042
C68_6 C 0.86905(13) 0.4894(3) 0.1932(6)
C69_6 C 0.88077(9) 0.5201(2) 0.2211(6)
C70_6 C 0.89728(10) 0.5267(3) 0.2079(6)
H50_6 H 0.9015 0.5134 0.1809
C71_6 C 0.90908(9) 0.5547(3) 0.2355(6)
H51_6 H 0.9212 0.5580 0.2271
C72_6 C 0.90321(9) 0.5751(2) 0.2711(6)
C73_6 C 0.88487(11) 0.5695(3) 0.2844(6)
H52_6 H 0.8803 0.5836 0.3107
C74_6 C 0.87423(10) 0.5429(3) 0.2575(6)
H53_6 H 0.8619 0.5402 0.2645
C75_6 C 0.91540(10) 0.6058(3) 0.2990(6)
C76_6 C 0.92929(10) 0.6266(3) 0.2816(6)
H54_6 H 0.9327 0.6190 0.2518
C77_6 C 0.93929(10) 0.6593(3) 0.3041(6)
H55_6 H 0.9480 0.6771 0.2889
C78_6 C 0.93601(10) 0.6644(3) 0.3487(6)
C79_6 C 0.92163(13) 0.6403(4) 0.3698(6)
H56_6 H 0.9192 0.6454 0.4007
C80_6 C 0.91187(11) 0.6116(4) 0.3475(6)
H57_6 H 0.9027 0.5950 0.3620
C89_6 C 0.98813(11) 0.7574(3) 0.3721(6)
H62_6 H 0.9925 0.7872 0.3764
C90_6 C 0.97017(10) 0.7493(3) 0.3740(6)
H63_6 H 0.9621 0.7736 0.3785
C91_6 C 0.96373(10) 0.7052(3) 0.3693(6)
C92_6 C 0.97505(11) 0.6711(4) 0.3617(7)
H64_6 H 0.9705 0.6413 0.3587
C93_6 C 0.99397(11) 0.6785(3) 0.3581(6)
N9_6 N 0.94508(8) 0.6961(3) 0.3752(6)
O10_3 O 0.86776(7) 0.95104(17) 0.5372(6)
O11_4 O 0.86601(7) 0.89917(18) 0.5910(6)
O12_6 O 0.87407(6) 0.47292(16) 0.1590(5)
O13_6 O 0.85249(6) 0.4817(2) 0.2106(6)
O14_4 O 0.84452(6) 0.09673(16) 0.4855(5)
O15_4 O 0.85817(6) 0.03652(14) 0.5150(5)
O16_4 O 0.81377(6) 0.03271(17) 0.4357(6)
Zn6_2 Zn 0.843027(9) 0.97853(3) 0.5179(5)
O18_4 O 0.83551(6) 0.00433(19) 0.5803(5)
O21_4 O 0.86601(7) 0.39917(18) 0.0910(6)
Zn11_3 Zn 0.854480(9) 0.93527(3) 0.6377(5)
C3_6 C 0.89418(11) 0.6900(3) 0.1334(6)
C5_6 C 0.95398(11) 0.7734(3) 0.2556(6)
H4_6 H 0.9477 0.7735 0.2833
C8_6 C 0.91596(10) 0.7480(3) 0.1880(6)
C9_6 C 0.97262(10) 0.7706(3) 0.2530(6)
H5_6 H 0.9791 0.7702 0.2805
C10_6 C 0.90926(11) 0.6750(3) 0.1558(6)
H6_6 H 0.9130 0.6446 0.1522
C13_6 C 0.85531(8) 0.5777(2) 0.0131(6)
C14_6 C 0.86445(8) 0.6077(2) 0.0462(6)
C15_6 C 0.87135(8) 0.5912(3) 0.0855(6)
H9_6 H 0.8695 0.5604 0.0929
C16_6 C 0.88068(11) 0.6177(3) 0.1139(6)
H10_6 H 0.8851 0.6049 0.1410
C17_6 C 0.88405(10) 0.6629(3) 0.1050(6)
C18_6 C 0.87559(12) 0.6806(3) 0.0664(6)
H11_6 H 0.8766 0.7119 0.0600
C19_6 C 0.86583(9) 0.6532(2) 0.0374(6)
H12_6 H 0.8602 0.6658 0.0117
C22_6 C 0.91915(11) 0.7042(4) 0.1839(6)
H14_6 H 0.9287 0.6917 0.2010
C24_6 C 0.90047(11) 0.7671(3) 0.1639(6)
H16_6 H 0.8976 0.7984 0.1650
C25_6 C 0.89078(12) 0.7381(4) 0.1406(6)
H17_7 H 0.8803 0.7500 0.1268
C33_6 C 0.98200(10) 0.7686(3) 0.2146(6)
C34_6 C 0.97173(11) 0.7693(3) 0.1744(6)
H22_6 H 0.9774 0.7678 0.1459
C35_6 C 0.95393(12) 0.7720(4) 0.1773(6)
H23_6 H 0.9473 0.7711 0.1501
C36_6 C 0.94530(10) 0.7758(3) 0.2142(6)
C39_6 C 0.85548(9) 0.9813(2) 0.4173(6)
C40_6 C 0.86675(9) 0.9508(2) 0.3874(6)
C41_6 C 0.87946(10) 0.9674(3) 0.3587(6)
H25_6 H 0.8818 0.9990 0.3575
C42_6 C 0.88856(11) 0.9390(3) 0.3325(6)
H26_6 H 0.8970 0.9519 0.3124
C43_6 C 0.88691(9) 0.8939(3) 0.3317(6)
C44_6 C 0.87348(11) 0.8766(2) 0.3609(6)
H27_6 H 0.8710 0.8451 0.3614
C45_6 C 0.86429(10) 0.9052(3) 0.3880(6)
H28_6 H 0.8558 0.8930 0.4083
C46_6 C 0.89754(10) 0.8645(3) 0.3031(6)
C47_6 C 0.91425(10) 0.8761(3) 0.2843(6)
H29_6 H 0.9195 0.9042 0.2923
C48_6 C 0.92276(10) 0.8497(3) 0.2564(6)
H30_6 H 0.9336 0.8602 0.2437
C49_6 C 0.91673(9) 0.8069(3) 0.2445(6)
C50_6 C 0.90070(10) 0.7925(3) 0.2634(6)
H31_6 H 0.8963 0.7631 0.2567
C51_6 C 0.89095(11) 0.8208(3) 0.2922(6)
H32_6 H 0.8799 0.8107 0.3044
C52_6 C 0.8195 0.8988 0.5103
H33_6 H 0.8167 0.9069 0.4802
C53_6 C 0.8159(3) 0.8534(7) 0.5743(8)
H34_6 H 0.8278 0.8671 0.5771
H35_6 H 0.8085 0.8628 0.5997
H36_6 H 0.8171 0.8205 0.5742
C54_6 C 0.7918(4) 0.8577(16) 0.5135(18)
H37_6 H 0.7911 0.8750 0.4854
H38_6 H 0.7912 0.8254 0.5068
H39_6 H 0.7819 0.8662 0.5332
N1_6 N 0.92605(8) 0.7799(3) 0.2139(6)
N8_6 N 0.80823(15) 0.8673(3) 0.5351(7)
O2_4 O 0.85817(6) 0.53652(14) 0.0150(5)
O3_6 O 0.84775(7) 0.96304(18) 0.4498(5)
O7_6 O 0.83297(11) 0.9149(2) 0.5297(6)
O17_4 O 0.81670(6) 0.99660(19) 0.4990(5)
O1_4 O 0.84452(6) 0.59673(16) 0.9855(5)
C3_7 C 0.64418(11) 0.0600(3) 0.3834(6)
C8_7 C 0.66596(10) 0.0020(3) 0.4380(6)
C10_7 C 0.65926(11) 0.0750(3) 0.4058(6)
H6_7 H 0.6630 0.1054 0.4022
C13_7 C 0.60531(8) 0.1723(2) 0.2631(6)
C14_7 C 0.61445(8) 0.1423(2) 0.2962(6)
C15_7 C 0.62135(8) 0.1588(3) 0.3355(6)
H9_7 H 0.6195 0.1896 0.3429
C16_7 C 0.63068(11) 0.1323(3) 0.3639(6)
H10_7 H 0.6351 0.1451 0.3910
C17_7 C 0.63405(10) 0.0871(3) 0.3550(6)
C18_7 C 0.62559(12) 0.0694(3) 0.3164(6)
H11_7 H 0.6266 0.0381 0.3100
C19_7 C 0.61583(9) 0.0968(2) 0.2874(6)
H12_7 H 0.6102 0.0842 0.2617
C22_7 C 0.66915(11) 0.0458(4) 0.4339(6)
H14_7 H 0.6787 0.0583 0.4510
C25_7 C 0.64078(12) 0.0119(4) 0.3906(6)
H17_8 H 0.6303 0.0000 0.3768
C26_7 C 0.80874(10) 0.0112(3) 0.4663(6)
C27_7 C 0.78813(9) 0.0010(2) 0.4652(6)
C28_7 C 0.77799(9) 0.0169(3) 0.4293(6)
H18_7 H 0.7835 0.0333 0.4056
C29_7 C 0.75991(10) 0.0086(3) 0.4285(6)
H19_7 H 0.7530 0.0179 0.4033
C1_7 C 0.5752(2) 0.4149(6) 0.4562(7)
H1_7 H 0.5632 0.4184 0.4660
C2_7 C 0.60807(13) 0.4043(3) 0.4288(6)
H2_7 H 0.6200 0.4015 0.4185
C4_7 C 0.5796(2) 0.3728(6) 0.4346(7)
H3_7 H 0.5714 0.3489 0.4296
C5_7 C 0.70398(11) 0.9766(3) 0.5056(6)
H4_7 H 0.6977 0.9765 0.5333
C6_7 C 0.58692(14) 0.4514(3) 0.4641(6)
C7_7 C 0.58029(11) 0.4917(3) 0.4884(6)
C9_7 C 0.72262(10) 0.9794(3) 0.5030(6)
H5_7 H 0.7291 0.9798 0.5305
C11_7 C 0.60346(14) 0.4465(3) 0.4510(6)
H7_7 H 0.6121 0.4695 0.4558
C12_7 C 0.59194(8) 0.6031(2) 0.6411(6)
H8_7 H 0.6000 0.5984 0.6653
C20_7 C 0.57903(8) 0.5779(2) 0.5724(6)
C21_7 C 0.59031(9) 0.5715(2) 0.6105(6)
H13_7 H 0.5967 0.5440 0.6138
C23_7 C 0.56980(8) 0.6172(2) 0.5698(6)
H15_7 H 0.5622 0.6235 0.5451
C24_7 C 0.65047(11) 0.9829(3) 0.4139(6)
H16_7 H 0.6476 0.9516 0.4150
H17_9 H 0.6303 1.0000 0.3768
C30_7 C 0.75151(10) 0.9866(3) 0.4646(6)
C31_7 C 0.76231(9) 0.9716(3) 0.4993(6)
H20_7 H 0.7567 0.9573 0.5242
C32_9 C 0.77990(8) 0.9758(2) 0.5000(6)
H21_7 H 0.7868 0.9623 0.5232
C33_7 C 0.73200(10) 0.9814(3) 0.4646(6)
C34_7 C 0.72173(11) 0.9807(3) 0.4244(6)
H22_7 H 0.7274 0.9822 0.3959
C35_7 C 0.70393(12) 0.9780(4) 0.4273(6)
H23_7 H 0.6973 0.9789 0.4001
C36_7 C 0.69530(10) 0.9742(3) 0.4642(6)
C37_7 C 0.57203(8) 0.6487(2) 0.6056(6)
H24_7 H 0.5655 0.6762 0.6049
C38_7 C 0.57769(9) 0.5464(3) 0.5349(6)
C39_7 C 0.60548(9) 0.7687(2) 0.6673(6)
C40_7 C 0.61675(9) 0.7992(2) 0.6374(6)
C41_7 C 0.62946(10) 0.7826(3) 0.6087(6)
H25_7 H 0.6318 0.7510 0.6075
C42_7 C 0.63856(11) 0.8110(3) 0.5825(6)
H26_7 H 0.6470 0.7981 0.5624
C43_7 C 0.63691(9) 0.8561(3) 0.5817(6)
C44_7 C 0.62348(11) 0.8734(2) 0.6109(6)
H27_7 H 0.6210 0.9049 0.6114
C45_7 C 0.61429(10) 0.8448(3) 0.6380(6)
H28_7 H 0.6058 0.8570 0.6583
C46_7 C 0.64754(10) 0.8855(3) 0.5531(6)
C47_7 C 0.66425(10) 0.8739(3) 0.5343(6)
H29_7 H 0.6695 0.8458 0.5423
C48_7 C 0.67276(10) 0.9003(3) 0.5064(6)
H30_7 H 0.6836 0.8898 0.4937
C49_7 C 0.66673(9) 0.9431(3) 0.4945(6)
C50_7 C 0.65070(10) 0.9575(3) 0.5134(6)
H31_7 H 0.6463 0.9869 0.5067
C51_7 C 0.64095(11) 0.9292(3) 0.5422(6)
H32_7 H 0.6299 0.9393 0.5544
C52_7 C 0.5695 0.8512 0.7603
H33_7 H 0.5667 0.8431 0.7302
C53_7 C 0.5659(3) 0.8966(7) 0.8243(8)
H34_7 H 0.5778 0.8829 0.8271
H35_7 H 0.5585 0.8872 0.8497
H36_7 H 0.5671 0.9295 0.8242
C54_7 C 0.5418(4) 0.8923(16) 0.7635(18)
H37_7 H 0.5411 0.8750 0.7354
H38_7 H 0.5412 0.9246 0.7568
H39_7 H 0.5319 0.8838 0.7832
N1_7 N 0.67605(8) 0.9701(3) 0.4639(6)
N2_7 N 0.58294(6) 0.64108(17) 0.6398(5)
N3_7 N 0.58697(7) 0.50857(18) 0.5270(6)
N4_7 N 0.56775(9) 0.5165(2) 0.4721(6)
N5_7 N 0.56621(9) 0.5513(2) 0.5013(6)
N6_7 N 0.60035(7) 0.4891(2) 0.5543(6)
H40_7 H 0.6034 0.5020 0.5797
H41_7 H 0.6056 0.4639 0.5458
N7_7 N 0.59799(10) 0.3715(3) 0.4218(6)
N8_7 N 0.55823(15) 0.8827(3) 0.7851(7)
O3_7 O 0.59775(7) 0.78696(18) 0.6998(5)
O4_7 O 0.60563(6) 0.72745(16) 0.6574(5)
O7_7 O 0.58297(11) 0.8351(2) 0.7797(6)
H47_7 H 0.6690 0.0006 0.6004
C65_7 C 0.68462(9) 0.0205(3) 0.6524(6)
C66_7 C 0.68843(11) 0.0147(3) 0.6966(7)
H48_7 H 0.6981 0.0308 0.7095
C68_7 C 0.61905(13) 0.2606(3) 0.4432(6)
C69_7 C 0.63077(9) 0.2299(2) 0.4711(6)
C70_7 C 0.64728(10) 0.2233(3) 0.4579(6)
H50_7 H 0.6515 0.2366 0.4309
C71_7 C 0.65908(9) 0.1953(3) 0.4855(6)
H51_7 H 0.6712 0.1920 0.4771
C72_7 C 0.65321(9) 0.1749(2) 0.5211(6)
C73_7 C 0.63487(11) 0.1805(3) 0.5344(6)
H52_7 H 0.6303 0.1664 0.5607
C74_7 C 0.62423(10) 0.2071(3) 0.5075(6)
H53_7 H 0.6119 0.2098 0.5145
C75_7 C 0.66540(10) 0.1442(3) 0.5490(6)
C76_7 C 0.67929(10) 0.1234(3) 0.5316(6)
H54_7 H 0.6827 0.1310 0.5018
C77_7 C 0.68929(10) 0.0907(3) 0.5541(6)
H55_7 H 0.6980 0.0729 0.5389
C78_7 C 0.68601(10) 0.0856(3) 0.5987(6)
C79_7 C 0.67163(13) 0.1097(4) 0.6198(6)
H56_7 H 0.6692 0.1046 0.6507
C80_7 C 0.66187(11) 0.1384(4) 0.5975(6)
H57_7 H 0.6527 0.1550 0.6120
C85_7 C 0.76979(10) 0.0173(3) 0.6122(6)
C86_7 C 0.78120(9) 0.0462(2) 0.5898(6)
H60_7 H 0.7766 0.0726 0.5758
C87_7 C 0.80027(10) 0.0362(3) 0.5877(6)
H61_7 H 0.8085 0.0557 0.5731
C88_7 C 0.75016(11) 0.0284(3) 0.6139(6)
C90_7 C 0.72017(10) 0.0007(3) 0.6240(6)
C91_7 C 0.71373(10) 0.0448(3) 0.6193(6)
C92_7 C 0.72505(11) 0.0789(4) 0.6117(7)
H64_7 H 0.7205 0.1087 0.6087
C93_7 C 0.74397(11) 0.0715(3) 0.6081(6)
H65_7 H 0.7519 0.0957 0.6018
N9_7 N 0.69508(8) 0.0539(3) 0.6252(6)
O12_7 O 0.62407(6) 0.27708(16) 0.4090(5)
O13_7 O 0.60249(6) 0.2683(2) 0.4606(6)
O20_4 O 0.61776(7) 0.79896(17) 0.7872(6)
C55_7 C 0.62087(9) 0.8371(3) 0.8036(6)
C56_7 C 0.63223(9) 0.8694(2) 0.7773(6)
C57_7 C 0.63804(10) 0.8567(3) 0.7350(6)
H42_7 H 0.6349 0.8281 0.7228
C58_7 C 0.64878(10) 0.8870(3) 0.7104(6)
H43_7 H 0.6528 0.8791 0.6811
C59_7 C 0.65353(10) 0.9281(3) 0.7285(6)
C60_7 C 0.64833(9) 0.9401(3) 0.7709(6)
H44_7 H 0.6523 0.9678 0.7836
C61_7 C 0.63693(9) 0.9110(2) 0.7961(6)
H45_7 H 0.6327 0.9196 0.8249
C62_7 C 0.66456(9) 0.9610(3) 0.7016(6)
C63_7 C 0.66129(10) 0.9666(3) 0.6547(6)
H46_7 H 0.6522 0.9496 0.6401
C64_7 C 0.67122(10) 0.9962(3) 0.6315(6)
C67_7 C 0.67868(9) 0.9863(3) 0.7230(6)
H49_7 H 0.6811 0.9833 0.7542
C81_7 C 0.82510(9) 0.9831(3) 0.6055(6)
C82_7 C 0.80561(9) 0.9965(3) 0.6083(6)
C83_7 C 0.79394(11) 0.9682(3) 0.6309(6)
H58_7 H 0.7981 0.9416 0.6453
C84_7 C 0.77588(10) 0.9797(3) 0.6319(6)
H59_7 H 0.7677 0.9604 0.6470
C89_7 C 0.73813(11) 0.9926(3) 0.6221(6)
H62_7 H 0.7425 0.9628 0.6264
H63_7 H 0.7121 0.9764 0.6285
O9_6 O 0.82948(6) 0.9506(2) 0.6308(6)
C81_8 C 0.07510(9) 0.2669(3) 0.8555(6)
C82_8 C 0.05561(9) 0.2535(3) 0.8583(6)
C83_8 C 0.04394(11) 0.2818(3) 0.8809(6)
H58_8 H 0.0481 0.3084 0.8953
C84_8 C 0.02588(10) 0.2703(3) 0.8819(6)
H59_8 H 0.0177 0.2896 0.8970
C85_8 C 0.01979(10) 0.2327(3) 0.8622(6)
C86_8 C 0.03120(9) 0.2038(2) 0.8398(6)
H60_8 H 0.0266 0.1774 0.8258
C87_8 C 0.05027(10) 0.2138(3) 0.8377(6)
H61_8 H 0.0585 0.1943 0.8231
C88_8 C 0.00016(11) 0.2216(3) 0.8639(6)
H65_8 H 0.0019 0.1543 0.8518
C26_8 C 0.05874(10) 0.2388(3) 0.7163(6)
C27_8 C 0.03813(9) 0.2490(2) 0.7152(6)
C28_8 C 0.02799(9) 0.2331(3) 0.6793(6)
H18_8 H 0.0335 0.2167 0.6556
C29_8 C 0.00991(10) 0.2414(3) 0.6785(6)
H19_8 H 0.0030 0.2321 0.6533
C30_8 C 0.00151(10) 0.2634(3) 0.7146(6)
C31_8 C 0.01231(9) 0.2784(3) 0.7493(6)
H20_8 H 0.0067 0.2927 0.7742
C32_10 C 0.02990(8) 0.2742(2) 0.7500(6)
H21_8 H 0.0368 0.2877 0.7732
C55_8 C 0.87087(9) 0.4129(3) 0.0536(6)
C56_8 C 0.88223(9) 0.3806(2) 0.0273(6)
C60_8 C 0.89833(9) 0.3099(3) 0.0209(6)
H44_8 H 0.9023 0.2822 0.0336
C61_8 C 0.88693(9) 0.3390(2) 0.0461(6)
H45_8 H 0.8827 0.3304 0.0749
H49_8 H 0.9311 0.2667 0.0042
O10_4 O 0.86776(7) 0.45104(17) 0.0372(6)
C52_8 C 0.8195 0.3988 0.0103
C53_8 C 0.8159(3) 0.3534(7) 0.0743(8)
H34_8 H 0.8278 0.3671 0.0771
H35_8 H 0.8085 0.3628 0.0997
H36_8 H 0.8171 0.3205 0.0742
C54_8 C 0.7918(4) 0.3577(16) 0.0135(18)
H38_8 H 0.7912 0.3254 0.0068
H39_8 H 0.7819 0.3662 0.0332
N8_8 N 0.80823(15) 0.3673(3) 0.0351(7)
O7_8 O 0.83297(11) 0.4149(2) 0.0297(6)
C1_8 C 0.8252(2) 0.8351(6) 0.7062(7)
H1_8 H 0.8132 0.8316 0.7160
C2_8 C 0.85807(13) 0.8457(3) 0.6788(6)
H2_8 H 0.8700 0.8485 0.6685
C3_8 C 0.89418(11) 0.1900(3) 0.6334(6)
C4_8 C 0.8296(2) 0.8772(6) 0.6846(7)
H3_8 H 0.8214 0.9011 0.6796
C5_8 C 0.95398(11) 0.2734(3) 0.7556(6)
H4_8 H 0.9477 0.2735 0.7833
C6_8 C 0.83692(14) 0.7986(3) 0.7141(6)
C7_8 C 0.83029(11) 0.7583(3) 0.7384(6)
C8_8 C 0.91596(10) 0.2480(3) 0.6880(6)
C9_8 C 0.97262(10) 0.2706(3) 0.7530(6)
H5_8 H 0.9791 0.2702 0.7805
C10_8 C 0.90926(11) 0.1750(3) 0.6558(6)
H6_8 H 0.9130 0.1446 0.6522
C11_8 C 0.85346(14) 0.8035(3) 0.7010(6)
H7_8 H 0.8621 0.7805 0.7058
C12_8 C 0.84194(8) 0.6469(2) 0.8911(6)
H8_8 H 0.8500 0.6516 0.9153
C13_8 C 0.85531(8) 0.0777(2) 0.5131(6)
C14_8 C 0.86445(8) 0.1077(2) 0.5462(6)
C15_8 C 0.87135(8) 0.0912(3) 0.5855(6)
H9_8 H 0.8695 0.0604 0.5929
C16_8 C 0.88068(11) 0.1177(3) 0.6139(6)
H10_8 H 0.8851 0.1049 0.6410
C17_8 C 0.88405(10) 0.1629(3) 0.6050(6)
C18_8 C 0.87559(12) 0.1806(3) 0.5664(6)
H11_8 H 0.8766 0.2119 0.5600
C19_8 C 0.86583(9) 0.1532(2) 0.5374(6)
H12_8 H 0.8602 0.1658 0.5117
C20_8 C 0.82903(8) 0.6721(2) 0.8224(6)
C21_8 C 0.84031(9) 0.6785(2) 0.8605(6)
H13_8 H 0.8467 0.7060 0.8638
C22_8 C 0.91915(11) 0.2042(4) 0.6839(6)
H14_8 H 0.9287 0.1917 0.7010
C23_8 C 0.81980(8) 0.6328(2) 0.8198(6)
H15_8 H 0.8122 0.6265 0.7951
C24_8 C 0.90047(11) 0.2671(3) 0.6639(6)
H16_8 H 0.8976 0.2984 0.6650
C25_8 C 0.89078(12) 0.2381(4) 0.6406(6)
H17_10 H 0.8803 0.2500 0.6268
C33_8 C 0.98200(10) 0.2686(3) 0.7146(6)
C34_8 C 0.97173(11) 0.2693(3) 0.6744(6)
H22_8 H 0.9774 0.2678 0.6459
C35_8 C 0.95393(12) 0.2720(4) 0.6773(6)
H23_8 H 0.9473 0.2711 0.6501
C36_8 C 0.94530(10) 0.2758(3) 0.7142(6)
C37_8 C 0.82203(8) 0.6013(2) 0.8556(6)
H24_8 H 0.8155 0.5738 0.8549
C38_8 C 0.82769(9) 0.7036(3) 0.7849(6)
C39_8 C 0.85548(9) 0.4813(2) 0.9173(6)
C40_8 C 0.86675(9) 0.4508(2) 0.8874(6)
C41_8 C 0.87946(10) 0.4674(3) 0.8587(6)
H25_8 H 0.8818 0.4990 0.8575
C42_8 C 0.88856(11) 0.4390(3) 0.8325(6)
H26_8 H 0.8970 0.4519 0.8124
C43_8 C 0.88691(9) 0.3939(3) 0.8317(6)
C44_8 C 0.87348(11) 0.3766(2) 0.8609(6)
H27_8 H 0.8710 0.3451 0.8614
C45_8 C 0.86429(10) 0.4052(3) 0.8880(6)
H28_8 H 0.8558 0.3930 0.9083
C46_8 C 0.89754(10) 0.3645(3) 0.8031(6)
C47_8 C 0.91425(10) 0.3761(3) 0.7843(6)
H29_8 H 0.9195 0.4042 0.7923
C48_8 C 0.92276(10) 0.3497(3) 0.7564(6)
H30_8 H 0.9336 0.3602 0.7437
C49_8 C 0.91673(9) 0.3069(3) 0.7445(6)
C50_8 C 0.90070(10) 0.2925(3) 0.7634(6)
H31_8 H 0.8963 0.2631 0.7567
C51_8 C 0.89095(11) 0.3208(3) 0.7922(6)
H32_8 H 0.8799 0.3107 0.8044
H33_8 H 0.8167 0.4069 0.9802
H37_8 H 0.7911 0.3750 0.9854
N1_8 N 0.92605(8) 0.2799(3) 0.7139(6)
N2_8 N 0.83294(6) 0.60892(17) 0.8898(5)
N3_8 N 0.83697(7) 0.74143(18) 0.7770(6)
N4_8 N 0.81775(9) 0.7335(2) 0.7221(6)
N5_8 N 0.81621(9) 0.6987(2) 0.7513(6)
N6_8 N 0.85035(7) 0.7609(2) 0.8043(6)
H40_8 H 0.8534 0.7480 0.8297
H41_8 H 0.8556 0.7861 0.7958
N7_8 N 0.84799(10) 0.8785(3) 0.6718(6)
O3_8 O 0.84775(7) 0.46304(18) 0.9498(5)
O4_8 O 0.85563(6) 0.52255(16) 0.9074(5)
C68_8 C 0.86905(13) 0.9894(3) 0.6932(6)
O12_8 O 0.87407(6) 0.97292(16) 0.6590(5)
O13_8 O 0.85249(6) 0.9817(2) 0.7106(6)
C1_9 C 0.9248(2) 0.0851(6) 0.4562(7)
H1_9 H 0.9368 0.0816 0.4660
C2_9 C 0.89193(13) 0.0957(3) 0.4288(6)
H2_9 H 0.8800 0.0985 0.4185
C4_9 C 0.9204(2) 0.1272(6) 0.4346(7)
H3_9 H 0.9286 0.1511 0.4296
C6_9 C 0.91308(14) 0.0486(3) 0.4641(6)
C7_9 C 0.91971(11) 0.0083(3) 0.4884(6)
C11_9 C 0.89654(14) 0.0535(3) 0.4510(6)
H7_9 H 0.8879 0.0305 0.4558
N6_9 N 0.89965(7) 0.0109(2) 0.5543(6)
H41_9 H 0.8944 0.0361 0.5458
N7_9 N 0.90201(10) 0.1285(3) 0.4218(6)
C55_9 C 0.87913(9) 0.6629(3) 0.8036(6)
C56_9 C 0.86777(9) 0.6306(2) 0.7773(6)
C57_8 C 0.86196(10) 0.6433(3) 0.7350(6)
H42_8 H 0.8651 0.6719 0.7228
C58_8 C 0.85122(10) 0.6130(3) 0.7104(6)
H43_8 H 0.8472 0.6209 0.6811
C59_8 C 0.84647(10) 0.5719(3) 0.7285(6)
C60_9 C 0.85167(9) 0.5599(3) 0.7709(6)
H44_9 H 0.8477 0.5322 0.7836
C61_9 C 0.86307(9) 0.5890(2) 0.7961(6)
H45_9 H 0.8673 0.5804 0.8249
C62_8 C 0.83544(9) 0.5390(3) 0.7016(6)
C63_8 C 0.83871(10) 0.5334(3) 0.6547(6)
H46_8 H 0.8478 0.5504 0.6401
C64_8 C 0.82878(10) 0.5038(3) 0.6315(6)
H47_8 H 0.8310 0.4994 0.6004
C65_8 C 0.81538(9) 0.4795(3) 0.6524(6)
C66_8 C 0.81157(11) 0.4853(3) 0.6966(7)
H48_8 H 0.8019 0.4692 0.7095
C67_8 C 0.82132(9) 0.5137(3) 0.7230(6)
H49_9 H 0.8189 0.5167 0.7542
C68_9 C 0.88095(13) 0.2394(3) 0.4432(6)
C69_8 C 0.86923(9) 0.2701(2) 0.4711(6)
C70_8 C 0.85272(10) 0.2767(3) 0.4579(6)
H50_8 H 0.8485 0.2634 0.4309
C71_8 C 0.84092(9) 0.3047(3) 0.4855(6)
H51_8 H 0.8288 0.3080 0.4771
C72_8 C 0.84679(9) 0.3251(2) 0.5211(6)
C73_8 C 0.86513(11) 0.3195(3) 0.5344(6)
H52_8 H 0.8697 0.3336 0.5607
C74_8 C 0.87577(10) 0.2929(3) 0.5075(6)
H53_8 H 0.8881 0.2902 0.5145
C75_8 C 0.83460(10) 0.3558(3) 0.5490(6)
C76_8 C 0.82071(10) 0.3766(3) 0.5316(6)
H54_8 H 0.8173 0.3690 0.5018
C77_8 C 0.81071(10) 0.4093(3) 0.5541(6)
H55_8 H 0.8020 0.4271 0.5389
C78_8 C 0.81399(10) 0.4144(3) 0.5987(6)
C79_8 C 0.82837(13) 0.3903(4) 0.6198(6)
H56_8 H 0.8308 0.3954 0.6507
C80_8 C 0.83813(11) 0.3616(4) 0.5975(6)
H57_8 H 0.8473 0.3450 0.6120
C81_9 C 0.67490(9) 0.5169(3) 0.6055(6)
C82_9 C 0.69439(9) 0.5035(3) 0.6083(6)
C83_9 C 0.70606(11) 0.5318(3) 0.6309(6)
H58_9 H 0.7019 0.5584 0.6453
C84_9 C 0.72412(10) 0.5203(3) 0.6319(6)
H59_9 H 0.7323 0.5396 0.6470
C85_9 C 0.73021(10) 0.4827(3) 0.6122(6)
C86_9 C 0.71880(9) 0.4538(2) 0.5898(6)
H60_9 H 0.7234 0.4274 0.5758
C87_9 C 0.69973(10) 0.4638(3) 0.5877(6)
H61_9 H 0.6915 0.4443 0.5731
C88_9 C 0.74984(11) 0.4716(3) 0.6139(6)
C89_8 C 0.76187(11) 0.5074(3) 0.6221(6)
H62_8 H 0.7575 0.5372 0.6264
C90_8 C 0.77983(10) 0.4993(3) 0.6240(6)
H63_8 H 0.7879 0.5236 0.6285
C91_8 C 0.78627(10) 0.4552(3) 0.6193(6)
C92_8 C 0.77495(11) 0.4211(4) 0.6117(7)
H64_8 H 0.7795 0.3913 0.6087
C93_8 C 0.75603(11) 0.4285(3) 0.6081(6)
H65_9 H 0.7481 0.4043 0.6018
N9_8 N 0.80492(8) 0.4461(3) 0.6252(6)
O8_5 O 0.66449(6) 0.49567(19) 0.5803(5)
O9_7 O 0.67052(6) 0.5494(2) 0.6308(6)
O10_5 O 0.88224(7) 0.70104(17) 0.7872(6)
O11_5 O 0.88399(7) 0.64917(18) 0.8410(6)
O12_9 O 0.87593(6) 0.22292(16) 0.4090(5)
O13_9 O 0.89751(6) 0.2317(2) 0.4606(6)
Zn3_2 Zn 0.895520(9) 0.18527(3) 0.3877(5)
Zn6_3 Zn 0.906973(9) 0.72853(3) 0.7679(5)
Zn8_3 Zn 0.656973(9) 0.52147(3) 0.5179(5)
O19_3 O 0.92052(6) 0.2006(2) 0.3808(6)
O21_5 O 0.88399(7) 0.14917(18) 0.3410(6)
Zn10_5 Zn 0.645520(9) 0.56473(3) 0.6377(5)
Zn11_4 Zn 0.895520(9) 0.68527(3) 0.8877(5)
C3_9 C 0.85582(11) 0.4400(3) 0.3834(6)
C5_9 C 0.79602(11) 0.5234(3) 0.5056(6)
H4_9 H 0.8023 0.5235 0.5333
C8_9 C 0.83404(10) 0.4980(3) 0.4380(6)
C9_9 C 0.77738(10) 0.5206(3) 0.5030(6)
H5_9 H 0.7709 0.5202 0.5305
C10_9 C 0.84074(11) 0.4250(3) 0.4058(6)
H6_9 H 0.8370 0.3946 0.4022
C12_9 C 0.90806(8) 0.8969(2) 0.6411(6)
H8_9 H 0.9000 0.9016 0.6653
C13_9 C 0.89469(8) 0.3277(2) 0.2631(6)
C14_9 C 0.88555(8) 0.3577(2) 0.2962(6)
C15_9 C 0.87865(8) 0.3412(3) 0.3355(6)
H9_9 H 0.8805 0.3104 0.3429
C16_9 C 0.86932(11) 0.3677(3) 0.3639(6)
H10_9 H 0.8649 0.3549 0.3910
C17_9 C 0.86595(10) 0.4129(3) 0.3550(6)
C18_9 C 0.87441(12) 0.4306(3) 0.3164(6)
H11_9 H 0.8734 0.4619 0.3100
C19_9 C 0.88417(9) 0.4032(2) 0.2874(6)
H12_9 H 0.8898 0.4158 0.2617
C20_9 C 0.92097(8) 0.9221(2) 0.5724(6)
C21_9 C 0.90969(9) 0.9285(2) 0.6105(6)
H13_9 H 0.9033 0.9560 0.6138
C22_9 C 0.83085(11) 0.4542(4) 0.4339(6)
H14_9 H 0.8213 0.4417 0.4510
C23_9 C 0.93020(8) 0.8828(2) 0.5698(6)
H15_9 H 0.9378 0.8765 0.5451
C24_9 C 0.84953(11) 0.5171(3) 0.4139(6)
H16_9 H 0.8524 0.5484 0.4150
C25_9 C 0.85922(12) 0.4881(4) 0.3906(6)
H17_11 H 0.8697 0.5000 0.3768
C26_9 C 0.69126(10) 0.4888(3) 0.4663(6)
C27_9 C 0.71187(9) 0.4990(2) 0.4652(6)
C28_9 C 0.72201(9) 0.4831(3) 0.4293(6)
H18_9 H 0.7165 0.4667 0.4056
C29_9 C 0.74009(10) 0.4914(3) 0.4285(6)
H19_9 H 0.7470 0.4821 0.4033
C30_9 C 0.74849(10) 0.5134(3) 0.4646(6)
C31_9 C 0.73769(9) 0.5284(3) 0.4993(6)
H20_9 H 0.7433 0.5427 0.5242
C32_11 C 0.72010(8) 0.5242(2) 0.5000(6)
H21_9 H 0.7132 0.5377 0.5232
C33_9 C 0.76800(10) 0.5186(3) 0.4646(6)
C34_9 C 0.77827(11) 0.5193(3) 0.4244(6)
H22_9 H 0.7726 0.5178 0.3959
C35_9 C 0.79607(12) 0.5220(4) 0.4273(6)
H23_9 H 0.8027 0.5211 0.4001
C36_9 C 0.80470(10) 0.5258(3) 0.4642(6)
C37_9 C 0.92797(8) 0.8513(2) 0.6056(6)
H24_9 H 0.9345 0.8238 0.6049
C38_9 C 0.92231(9) 0.9536(3) 0.5349(6)
C39_9 C 0.89452(9) 0.7313(2) 0.6673(6)
C40_9 C 0.88325(9) 0.7008(2) 0.6374(6)
C41_9 C 0.87054(10) 0.7174(3) 0.6087(6)
H25_9 H 0.8682 0.7490 0.6075
C42_9 C 0.86144(11) 0.6890(3) 0.5825(6)
H26_9 H 0.8530 0.7019 0.5624
C43_9 C 0.86309(9) 0.6439(3) 0.5817(6)
C44_9 C 0.87652(11) 0.6266(2) 0.6109(6)
H27_9 H 0.8790 0.5951 0.6114
C45_9 C 0.88571(10) 0.6552(3) 0.6380(6)
H28_9 H 0.8942 0.6430 0.6583
C46_9 C 0.85246(10) 0.6145(3) 0.5531(6)
C47_9 C 0.83575(10) 0.6261(3) 0.5343(6)
H29_9 H 0.8305 0.6542 0.5423
C48_9 C 0.82724(10) 0.5997(3) 0.5064(6)
H30_9 H 0.8164 0.6102 0.4937
C49_9 C 0.83327(9) 0.5569(3) 0.4945(6)
C50_9 C 0.84930(10) 0.5425(3) 0.5134(6)
H31_9 H 0.8537 0.5131 0.5067
C51_9 C 0.85905(11) 0.5708(3) 0.5422(6)
H32_9 H 0.8701 0.5607 0.5544
C52_9 C 0.9305 0.6488 0.7603
H33_9 H 0.9333 0.6569 0.7302
C53_9 C 0.9341(3) 0.6034(7) 0.8243(8)
H34_9 H 0.9222 0.6171 0.8271
H35_9 H 0.9415 0.6128 0.8497
H36_9 H 0.9329 0.5705 0.8242
C54_9 C 0.9582(4) 0.6077(16) 0.7635(18)
H37_9 H 0.9589 0.6250 0.7354
H38_9 H 0.9588 0.5754 0.7568
H39_9 H 0.9681 0.6162 0.7832
N1_9 N 0.82395(8) 0.5299(3) 0.4639(6)
N2_9 N 0.91706(6) 0.85892(17) 0.6398(5)
N3_9 N 0.91303(7) 0.99143(18) 0.5270(6)
N4_9 N 0.93225(9) 0.9835(2) 0.4721(6)
N5_9 N 0.93379(9) 0.9487(2) 0.5013(6)
H40_9 H 0.8966 0.9980 0.5797
N8_9 N 0.94177(15) 0.6173(3) 0.7851(7)
O1_5 O 0.90548(6) 0.34673(16) 0.2355(5)
O2_5 O 0.89183(6) 0.28652(14) 0.2650(5)
O3_9 O 0.90225(7) 0.71304(18) 0.6998(5)
O4_9 O 0.89437(6) 0.77255(16) 0.6574(5)
O5_5 O 0.68623(6) 0.46729(17) 0.4357(6)
O6_5 O 0.68330(6) 0.50340(19) 0.4990(5)
O7_9 O 0.91703(11) 0.6649(2) 0.7797(6)
Zn1_4 Zn 0.912666(9) 0.80929(2) 0.6855(5)
O14_5 O 0.90548(6) 0.84673(16) 0.7355(5)
O15_5 O 0.89183(6) 0.78652(14) 0.7650(5)
O16_5 O 0.93623(6) 0.78271(17) 0.6857(6)
O17_5 O 0.93330(6) 0.74660(19) 0.7490(5)
Zn4_2 Zn 0.912666(9) 0.30929(2) 0.1855(5)
Zn5_5 Zn 0.662666(9) 0.44071(2) 0.4355(5)
Zn7_2 Zn 0.906973(9) 0.22853(3) 0.2679(5)
O18_5 O 0.91449(6) 0.75433(19) 0.8303(5)
Zn7_3 Zn 0.156973(9) 0.02147(3) 0.5179(5)
C52_10 C 0.1805 0.6012 0.0103
C53_10 C 0.1841(3) 0.6466(7) 0.0743(8)
H34_10 H 0.1722 0.6329 0.0771
H35_10 H 0.1915 0.6372 0.0997
H36_10 H 0.1829 0.6795 0.0742
C54_10 C 0.2082(4) 0.6423(16) 0.0135(18)
H38_10 H 0.2088 0.6746 0.0068
H39_10 H 0.2181 0.6338 0.0332
N8_10 N 0.19177(15) 0.6327(3) 0.0351(7)
O7_10 O 0.16703(11) 0.5851(2) 0.0297(6)
Zn2_2 Zn 0.156973(9) 0.52147(3) 0.0179(5)
O15_6 O 0.14183(6) 0.46348(14) 0.0150(5)
O18_6 O 0.16449(6) 0.49567(19) 0.0803(5)
O20_5 O 0.13224(7) 0.54896(17) 0.0372(6)
C1_10 C 0.1748(2) 0.1649(6) 0.7062(7)
H1_10 H 0.1868 0.1684 0.7160
C2_10 C 0.14193(13) 0.1543(3) 0.6788(6)
H2_10 H 0.1300 0.1515 0.6685
C3_10 C 0.10582(11) 0.8100(3) 0.6334(6)
C4_10 C 0.1704(2) 0.1228(6) 0.6846(7)
H3_10 H 0.1786 0.0989 0.6796
C5_10 C 0.04602(11) 0.7266(3) 0.7556(6)
H4_10 H 0.0523 0.7265 0.7833
C6_10 C 0.16308(14) 0.2014(3) 0.7141(6)
C7_10 C 0.16971(11) 0.2417(3) 0.7384(6)
C8_10 C 0.08404(10) 0.7520(3) 0.6880(6)
C9_10 C 0.02738(10) 0.7294(3) 0.7530(6)
H5_10 H 0.0209 0.7298 0.7805
C10_10 C 0.09074(11) 0.8250(3) 0.6558(6)
H6_10 H 0.0870 0.8554 0.6522
C11_10 C 0.14654(14) 0.1965(3) 0.7010(6)
H7_10 H 0.1379 0.2195 0.7058
C12_10 C 0.15806(8) 0.3531(2) 0.8911(6)
H8_10 H 0.1500 0.3484 0.9153
C13_10 C 0.14469(8) 0.9223(2) 0.5131(6)
C14_10 C 0.13555(8) 0.8923(2) 0.5462(6)
C15_10 C 0.12865(8) 0.9088(3) 0.5855(6)
H9_10 H 0.1305 0.9396 0.5929
C16_10 C 0.11932(11) 0.8823(3) 0.6139(6)
H10_10 H 0.1149 0.8951 0.6410
C17_10 C 0.11595(10) 0.8371(3) 0.6050(6)
C18_10 C 0.12441(12) 0.8194(3) 0.5664(6)
H11_10 H 0.1234 0.7881 0.5600
C19_10 C 0.13417(9) 0.8468(2) 0.5374(6)
H12_10 H 0.1398 0.8342 0.5117
C20_10 C 0.17097(8) 0.3279(2) 0.8224(6)
C21_10 C 0.15969(9) 0.3215(2) 0.8605(6)
H13_10 H 0.1533 0.2940 0.8638
C22_10 C 0.08085(11) 0.7958(4) 0.6839(6)
H14_10 H 0.0713 0.8083 0.7010
C23_10 C 0.18020(8) 0.3672(2) 0.8198(6)
H15_10 H 0.1878 0.3735 0.7951
C24_10 C 0.09953(11) 0.7329(3) 0.6639(6)
H16_10 H 0.1024 0.7016 0.6650
C25_10 C 0.10922(12) 0.7619(4) 0.6406(6)
H17_12 H 0.1197 0.7500 0.6268
C33_10 C 0.01800(10) 0.7314(3) 0.7146(6)
C34_10 C 0.02827(11) 0.7307(3) 0.6744(6)
H22_10 H 0.0226 0.7322 0.6459
C35_10 C 0.04607(12) 0.7280(4) 0.6773(6)
H23_10 H 0.0527 0.7289 0.6501
C36_10 C 0.05470(10) 0.7242(3) 0.7142(6)
C37_10 C 0.17797(8) 0.3987(2) 0.8556(6)
H24_10 H 0.1845 0.4262 0.8549
C38_10 C 0.17231(9) 0.2964(3) 0.7849(6)
C39_10 C 0.14452(9) 0.5187(2) 0.9173(6)
C40_10 C 0.13325(9) 0.5492(2) 0.8874(6)
C41_10 C 0.12054(10) 0.5326(3) 0.8587(6)
H25_10 H 0.1182 0.5010 0.8575
C42_10 C 0.11144(11) 0.5610(3) 0.8325(6)
H26_10 H 0.1030 0.5481 0.8124
C43_10 C 0.11309(9) 0.6061(3) 0.8317(6)
C44_10 C 0.12652(11) 0.6234(2) 0.8609(6)
H27_10 H 0.1290 0.6549 0.8614
C45_10 C 0.13571(10) 0.5948(3) 0.8880(6)
H28_10 H 0.1442 0.6070 0.9083
C46_10 C 0.10246(10) 0.6355(3) 0.8031(6)
C47_10 C 0.08575(10) 0.6239(3) 0.7843(6)
H29_10 H 0.0805 0.5958 0.7923
C48_10 C 0.07724(10) 0.6503(3) 0.7564(6)
H30_10 H 0.0664 0.6398 0.7437
C49_10 C 0.08327(9) 0.6931(3) 0.7445(6)
C50_10 C 0.09930(10) 0.7075(3) 0.7634(6)
H31_10 H 0.1037 0.7369 0.7567
C51_10 C 0.10905(11) 0.6792(3) 0.7922(6)
H32_10 H 0.1201 0.6893 0.8044
H33_10 H 0.1833 0.5931 0.9802
H37_10 H 0.2089 0.6250 0.9854
N1_10 N 0.07395(8) 0.7201(3) 0.7139(6)
N2_10 N 0.16706(6) 0.39108(17) 0.8898(5)
N3_10 N 0.16303(7) 0.25857(18) 0.7770(6)
N4_10 N 0.18225(9) 0.2665(2) 0.7221(6)
N5_10 N 0.18379(9) 0.3013(2) 0.7513(6)
N6_10 N 0.14965(7) 0.2391(2) 0.8043(6)
H40_10 H 0.1466 0.2520 0.8297
H41_10 H 0.1444 0.2139 0.7958
N7_10 N 0.15201(10) 0.1215(3) 0.6718(6)
O1_6 O 0.15548(6) 0.90327(16) 0.4855(5)
O2_6 O 0.14183(6) 0.96348(14) 0.5150(5)
O3_10 O 0.15225(7) 0.53696(18) 0.9498(5)
O4_10 O 0.14437(6) 0.47745(16) 0.9074(5)
Zn1_5 Zn 0.162666(9) 0.44071(2) 0.9355(5)
C68_10 C 0.13095(13) 0.0106(3) 0.6932(6)
O12_10 O 0.12593(6) 0.02708(16) 0.6590(5)
O13_10 O 0.14751(6) 0.0183(2) 0.7106(6)
Zn3_3 Zn 0.145520(9) 0.06473(3) 0.6377(5)
O14_6 O 0.15548(6) 0.40327(16) 0.9855(5)
O16_6 O 0.18623(6) 0.46729(17) 0.9357(6)
O17_6 O 0.18330(6) 0.50340(19) 0.9990(5)
Zn4_3 Zn 0.162666(9) 0.94071(2) 0.4355(5)
O19_4 O 0.17052(6) 0.0494(2) 0.6308(6)
O21_6 O 0.13399(7) 0.10083(18) 0.5910(6)
C55_10 C 0.12913(9) 0.5871(3) 0.0536(6)
C56_10 C 0.11777(9) 0.6194(2) 0.0273(6)
C60_10 C 0.10167(9) 0.6901(3) 0.0209(6)
H44_10 H 0.0977 0.7178 0.0336
C61_10 C 0.11307(9) 0.6610(2) 0.0461(6)
H45_10 H 0.1173 0.6696 0.0749
H49_10 H 0.0689 0.7333 0.0042
O11_6 O 0.13399(7) 0.60083(18) 0.0910(6)
Zn11_5 Zn 0.145520(9) 0.56473(3) 0.1377(5)
C26_10 C 0.94126(10) 0.7612(3) 0.7163(6)
C27_10 C 0.96187(9) 0.7510(2) 0.7152(6)
C28_10 C 0.97201(9) 0.7669(3) 0.6793(6)
H18_10 H 0.9665 0.7833 0.6556
C29_10 C 0.99009(10) 0.7586(3) 0.6785(6)
H19_10 H 0.9970 0.7679 0.6533
C30_10 C 0.99849(10) 0.7366(3) 0.7146(6)
C31_10 C 0.98769(9) 0.7216(3) 0.7493(6)
H20_10 H 0.9933 0.7073 0.7742
C32_12 C 0.97010(8) 0.7258(2) 0.7500(6)
H21_10 H 0.9632 0.7123 0.7732
C81_10 C 0.92490(9) 0.7331(3) 0.8555(6)
C82_10 C 0.94439(9) 0.7465(3) 0.8583(6)
C83_10 C 0.95606(11) 0.7182(3) 0.8809(6)
H58_10 H 0.9519 0.6916 0.8953
C84_10 C 0.97412(10) 0.7297(3) 0.8819(6)
H59_10 H 0.9823 0.7104 0.8970
C85_10 C 0.98021(10) 0.7673(3) 0.8622(6)
C86_10 C 0.96880(9) 0.7962(2) 0.8398(6)
H60_10 H 0.9734 0.8226 0.8258
C87_10 C 0.94973(10) 0.7862(3) 0.8377(6)
H61_10 H 0.9415 0.8057 0.8231
C88_10 C 0.99984(11) 0.7784(3) 0.8639(6)
H65_10 H 0.9981 0.8457 0.8518
O9_8 O 0.92052(6) 0.7006(2) 0.8808(6)
C55_11 C 0.87913(9) 0.1629(3) 0.3036(6)
C56_11 C 0.86777(9) 0.1306(2) 0.2773(6)
C57_9 C 0.86196(10) 0.1433(3) 0.2350(6)
H42_9 H 0.8651 0.1719 0.2228
C58_9 C 0.85122(10) 0.1130(3) 0.2104(6)
H43_9 H 0.8472 0.1209 0.1811
C59_9 C 0.84647(10) 0.0719(3) 0.2285(6)
C60_11 C 0.85167(9) 0.0599(3) 0.2709(6)
H44_11 H 0.8477 0.0322 0.2836
C61_11 C 0.86307(9) 0.0890(2) 0.2961(6)
H45_11 H 0.8673 0.0804 0.3249
C62_9 C 0.83544(9) 0.0390(3) 0.2016(6)
C63_9 C 0.83871(10) 0.0334(3) 0.1547(6)
H46_9 H 0.8478 0.0504 0.1401
C64_9 C 0.82878(10) 0.0038(3) 0.1315(6)
C67_9 C 0.82132(9) 0.0137(3) 0.2230(6)
H49_11 H 0.8189 0.0167 0.2542
C81_11 C 0.67490(9) 0.0169(3) 0.1055(6)
C82_11 C 0.69439(9) 0.0035(3) 0.1083(6)
C83_11 C 0.70606(11) 0.0318(3) 0.1309(6)
H58_11 H 0.7019 0.0584 0.1453
C84_11 C 0.72412(10) 0.0203(3) 0.1319(6)
H59_11 H 0.7323 0.0396 0.1470
C89_9 C 0.76187(11) 0.0074(3) 0.1221(6)
H62_9 H 0.7575 0.0372 0.1264
H63_9 H 0.7879 0.0236 0.1285
O9_9 O 0.67052(6) 0.0494(2) 0.1308(6)
O10_6 O 0.88224(7) 0.20104(17) 0.2872(6)
Zn8_4 Zn 0.656973(9) 0.02147(3) 0.0179(5)
Zn10_6 Zn 0.645520(9) 0.06473(3) 0.1377(5)
C5_11 C 0.79602(11) 0.0234(3) 0.0056(6)
H4_11 H 0.8023 0.0235 0.0333
C9_11 C 0.77738(10) 0.0206(3) 0.0030(6)
H5_11 H 0.7709 0.0202 0.0305
C12_11 C 0.90806(8) 0.3969(2) 0.1411(6)
H8_11 H 0.9000 0.4016 0.1653
C20_11 C 0.92097(8) 0.4221(2) 0.0724(6)
C21_11 C 0.90969(9) 0.4285(2) 0.1105(6)
H13_11 H 0.9033 0.4560 0.1138
C23_11 C 0.93020(8) 0.3828(2) 0.0698(6)
H15_11 H 0.9378 0.3765 0.0451
H20_11 H 0.7433 0.0427 0.0242
C32_13 C 0.72010(8) 0.0242(2) -0.0000(6)
H21_11 H 0.7132 0.0377 0.0232
C37_11 C 0.92797(8) 0.3513(2) 0.1056(6)
H24_11 H 0.9345 0.3238 0.1049
C38_11 C 0.92231(9) 0.4536(3) 0.0349(6)
C39_11 C 0.89452(9) 0.2313(2) 0.1673(6)
C40_11 C 0.88325(9) 0.2008(2) 0.1374(6)
C41_11 C 0.87054(10) 0.2174(3) 0.1087(6)
H25_11 H 0.8682 0.2490 0.1075
C42_11 C 0.86144(11) 0.1890(3) 0.0825(6)
H26_11 H 0.8530 0.2019 0.0624
C43_11 C 0.86309(9) 0.1439(3) 0.0817(6)
C44_11 C 0.87652(11) 0.1266(2) 0.1109(6)
H27_11 H 0.8790 0.0951 0.1114
C45_11 C 0.88571(10) 0.1552(3) 0.1380(6)
H28_11 H 0.8942 0.1430 0.1583
C46_11 C 0.85246(10) 0.1145(3) 0.0531(6)
C47_11 C 0.83575(10) 0.1261(3) 0.0343(6)
H29_11 H 0.8305 0.1542 0.0423
C48_11 C 0.82724(10) 0.0997(3) 0.0064(6)
C50_11 C 0.84930(10) 0.0425(3) 0.0134(6)
H31_11 H 0.8537 0.0131 0.0067
C51_11 C 0.85905(11) 0.0708(3) 0.0422(6)
H32_11 H 0.8701 0.0607 0.0544
C52_11 C 0.9305 0.1488 0.2603
H33_11 H 0.9333 0.1569 0.2302
C53_11 C 0.9341(3) 0.1034(7) 0.3243(8)
H34_11 H 0.9222 0.1171 0.3271
H35_11 H 0.9415 0.1128 0.3497
H36_11 H 0.9329 0.0705 0.3242
C54_11 C 0.9582(4) 0.1077(16) 0.2635(18)
H37_11 H 0.9589 0.1250 0.2354
H38_11 H 0.9588 0.0754 0.2568
H39_11 H 0.9681 0.1162 0.2832
N2_11 N 0.91706(6) 0.35892(17) 0.1398(5)
N3_11 N 0.91303(7) 0.49143(18) 0.0270(6)
N5_11 N 0.93379(9) 0.4487(2) 0.0013(6)
N6_11 N 0.89965(7) 0.5109(2) 0.0543(6)
H40_11 H 0.8966 0.4980 0.0797
H41_11 H 0.8944 0.5361 0.0458
N8_11 N 0.94177(15) 0.1173(3) 0.2851(7)
O3_11 O 0.90225(7) 0.21304(18) 0.1998(5)
O4_11 O 0.89437(6) 0.27255(16) 0.1574(5)
O7_11 O 0.91703(11) 0.1649(2) 0.2797(6)
H47_9 H 0.8310 0.9994 0.1004
C65_9 C 0.81538(9) 0.9795(3) 0.1524(6)
C66_9 C 0.81157(11) 0.9853(3) 0.1966(7)
H48_9 H 0.8019 0.9692 0.2095
C72_9 C 0.84679(9) 0.8251(2) 0.0211(6)
C73_9 C 0.86513(11) 0.8195(3) 0.0344(6)
H52_9 H 0.8697 0.8336 0.0607
C74_9 C 0.87577(10) 0.7929(3) 0.0075(6)
H53_9 H 0.8881 0.7902 0.0145
C75_9 C 0.83460(10) 0.8558(3) 0.0490(6)
C76_9 C 0.82071(10) 0.8766(3) 0.0316(6)
H54_9 H 0.8173 0.8690 0.0018
C77_9 C 0.81071(10) 0.9093(3) 0.0541(6)
H55_9 H 0.8020 0.9271 0.0389
C78_9 C 0.81399(10) 0.9144(3) 0.0987(6)
C79_9 C 0.82837(13) 0.8903(4) 0.1198(6)
H56_9 H 0.8308 0.8954 0.1507
C80_9 C 0.83813(11) 0.8616(4) 0.0975(6)
H57_9 H 0.8473 0.8450 0.1120
C85_11 C 0.73021(10) 0.9827(3) 0.1122(6)
C86_11 C 0.71880(9) 0.9538(2) 0.0898(6)
H60_11 H 0.7234 0.9274 0.0758
C87_11 C 0.69973(10) 0.9638(3) 0.0877(6)
H61_11 H 0.6915 0.9443 0.0731
C88_11 C 0.74984(11) 0.9716(3) 0.1139(6)
C90_9 C 0.77983(10) 0.9993(3) 0.1240(6)
C91_9 C 0.78627(10) 0.9552(3) 0.1193(6)
C92_9 C 0.77495(11) 0.9211(4) 0.1117(7)
H64_9 H 0.7795 0.8913 0.1087
C93_9 C 0.75603(11) 0.9285(3) 0.1081(6)
H65_11 H 0.7481 0.9043 0.1018
N9_9 N 0.80492(8) 0.9461(3) 0.1252(6)
O8_6 O 0.66449(6) 0.99567(19) 0.0803(5)
O16_7 O 0.93623(6) 0.28271(17) 0.1857(6)
O17_7 O 0.93330(6) 0.24660(19) 0.2490(5)
O18_7 O 0.91449(6) 0.25433(19) 0.3303(5)
C1_11 C 0.9248(2) 0.5851(6) 0.9562(7)
H1_11 H 0.9368 0.5816 0.9660
C2_11 C 0.89193(13) 0.5957(3) 0.9288(6)
H2_11 H 0.8800 0.5985 0.9185
C4_11 C 0.9204(2) 0.6272(6) 0.9346(7)
H3_11 H 0.9286 0.6511 0.9296
C6_11 C 0.91308(14) 0.5486(3) 0.9641(6)
C7_11 C 0.91971(11) 0.5083(3) 0.9884(6)
C11_11 C 0.89654(14) 0.5535(3) 0.9510(6)
H7_11 H 0.8879 0.5305 0.9558
C24_11 C 0.84953(11) 0.0171(3) 0.9139(6)
H16_11 H 0.8524 0.0484 0.9150
H17_13 H 0.8697 0.0000 0.8768
C30_11 C 0.74849(10) 0.0134(3) 0.9646(6)
C31_11 C 0.73769(9) 0.0284(3) 0.9993(6)
C32_14 C 0.72010(8) 0.0242(2) 1.0000(6)
C33_11 C 0.76800(10) 0.0186(3) 0.9646(6)
C34_11 C 0.77827(11) 0.0193(3) 0.9244(6)
H22_11 H 0.7726 0.0178 0.8959
C35_11 C 0.79607(12) 0.0220(4) 0.9273(6)
H23_11 H 0.8027 0.0211 0.9001
C36_11 C 0.80470(10) 0.0258(3) 0.9642(6)
H30_11 H 0.8164 0.1102 0.9937
C49_11 C 0.83327(9) 0.0569(3) 0.9945(6)
N1_11 N 0.82395(8) 0.0299(3) 0.9639(6)
N4_11 N 0.93225(9) 0.4835(2) 0.9721(6)
N7_11 N 0.90201(10) 0.6285(3) 0.9218(6)
O6_6 O 0.68330(6) 0.00340(19) 0.9990(5)
C68_11 C 0.88095(13) 0.7394(3) 0.9432(6)
C69_9 C 0.86923(9) 0.7701(2) 0.9711(6)
C70_9 C 0.85272(10) 0.7767(3) 0.9579(6)
H50_9 H 0.8485 0.7634 0.9309
C71_9 C 0.84092(9) 0.8047(3) 0.9855(6)
H51_9 H 0.8288 0.8080 0.9771
O12_11 O 0.87593(6) 0.72292(16) 0.9090(5)
O13_11 O 0.89751(6) 0.7317(2) 0.9606(6)
C3_11 C 0.85582(11) 0.9400(3) 0.8834(6)
C8_11 C 0.83404(10) 0.9980(3) 0.9380(6)
C10_11 C 0.84074(11) 0.9250(3) 0.9058(6)
H6_11 H 0.8370 0.8946 0.9022
C13_11 C 0.89469(8) 0.8277(2) 0.7631(6)
C14_11 C 0.88555(8) 0.8577(2) 0.7962(6)
C15_11 C 0.87865(8) 0.8412(3) 0.8355(6)
H9_11 H 0.8805 0.8104 0.8429
C16_11 C 0.86932(11) 0.8677(3) 0.8639(6)
H10_11 H 0.8649 0.8549 0.8910
C17_11 C 0.86595(10) 0.9129(3) 0.8550(6)
C18_11 C 0.87441(12) 0.9306(3) 0.8164(6)
H11_11 H 0.8734 0.9619 0.8100
C19_11 C 0.88417(9) 0.9032(2) 0.7874(6)
H12_11 H 0.8898 0.9158 0.7617
C22_11 C 0.83085(11) 0.9542(4) 0.9339(6)
H14_11 H 0.8213 0.9417 0.9510
C25_11 C 0.85922(12) 0.9881(4) 0.8906(6)
H17_14 H 0.8697 1.0000 0.8768
C26_11 C 0.69126(10) 0.9888(3) 0.9663(6)
C27_11 C 0.71187(9) 0.9990(2) 0.9652(6)
C28_11 C 0.72201(9) 0.9831(3) 0.9293(6)
H18_11 H 0.7165 0.9667 0.9056
C29_11 C 0.74009(10) 0.9914(3) 0.9285(6)
H19_11 H 0.7470 0.9821 0.9033
O5_6 O 0.68623(6) 0.96729(17) 0.9357(6)
Zn5_6 Zn 0.662666(9) 0.94071(2) 0.9355(5)
C3_12 C 0.10582(11) 0.3100(3) 0.1334(6)
C5_12 C 0.04602(11) 0.2266(3) 0.2556(6)
H4_12 H 0.0523 0.2265 0.2833
C8_12 C 0.08404(10) 0.2520(3) 0.1880(6)
C9_12 C 0.02738(10) 0.2294(3) 0.2530(6)
H5_12 H 0.0209 0.2298 0.2805
C10_12 C 0.09074(11) 0.3250(3) 0.1558(6)
H6_12 H 0.0870 0.3554 0.1522
C13_12 C 0.14469(8) 0.4223(2) 0.0131(6)
C14_12 C 0.13555(8) 0.3923(2) 0.0462(6)
C15_12 C 0.12865(8) 0.4088(3) 0.0855(6)
H9_12 H 0.1305 0.4396 0.0929
C16_12 C 0.11932(11) 0.3823(3) 0.1139(6)
H10_12 H 0.1149 0.3951 0.1410
C17_12 C 0.11595(10) 0.3371(3) 0.1050(6)
C18_12 C 0.12441(12) 0.3194(3) 0.0664(6)
H11_12 H 0.1234 0.2881 0.0600
C19_12 C 0.13417(9) 0.3468(2) 0.0374(6)
H12_12 H 0.1398 0.3342 0.0117
C22_12 C 0.08085(11) 0.2958(4) 0.1839(6)
H14_12 H 0.0713 0.3083 0.2010
C24_12 C 0.09953(11) 0.2329(3) 0.1639(6)
H16_12 H 0.1024 0.2016 0.1650
C25_12 C 0.10922(12) 0.2619(4) 0.1406(6)
H17_15 H 0.1197 0.2500 0.1268
C33_12 C 0.01800(10) 0.2314(3) 0.2146(6)
C34_12 C 0.02827(11) 0.2307(3) 0.1744(6)
H22_12 H 0.0226 0.2322 0.1459
C35_12 C 0.04607(12) 0.2280(4) 0.1773(6)
H23_12 H 0.0527 0.2289 0.1501
C36_12 C 0.05470(10) 0.2242(3) 0.2142(6)
C39_12 C 0.14452(9) 0.0187(2) 0.4173(6)
C40_12 C 0.13325(9) 0.0492(2) 0.3874(6)
C41_12 C 0.12054(10) 0.0326(3) 0.3587(6)
H25_12 H 0.1182 0.0010 0.3575
C42_12 C 0.11144(11) 0.0610(3) 0.3325(6)
H26_12 H 0.1030 0.0481 0.3124
C43_12 C 0.11309(9) 0.1061(3) 0.3317(6)
C44_12 C 0.12652(11) 0.1234(2) 0.3609(6)
H27_12 H 0.1290 0.1549 0.3614
C45_12 C 0.13571(10) 0.0948(3) 0.3880(6)
H28_12 H 0.1442 0.1070 0.4083
C46_12 C 0.10246(10) 0.1355(3) 0.3031(6)
C47_12 C 0.08575(10) 0.1239(3) 0.2843(6)
H29_12 H 0.0805 0.0958 0.2923
C48_12 C 0.07724(10) 0.1503(3) 0.2564(6)
H30_12 H 0.0664 0.1398 0.2437
C49_12 C 0.08327(9) 0.1931(3) 0.2445(6)
C50_12 C 0.09930(10) 0.2075(3) 0.2634(6)
H31_12 H 0.1037 0.2369 0.2567
C51_12 C 0.10905(11) 0.1792(3) 0.2922(6)
H32_12 H 0.1201 0.1893 0.3044
C52_12 C 0.1805 0.1012 0.5103
H33_12 H 0.1833 0.0931 0.4802
C53_12 C 0.1841(3) 0.1466(7) 0.5743(8)
H34_12 H 0.1722 0.1329 0.5771
H35_12 H 0.1915 0.1372 0.5997
H36_12 H 0.1829 0.1795 0.5742
C54_12 C 0.2082(4) 0.1423(16) 0.5135(18)
H37_12 H 0.2089 0.1250 0.4854
H38_12 H 0.2088 0.1746 0.5068
H39_12 H 0.2181 0.1338 0.5332
N1_12 N 0.07395(8) 0.2201(3) 0.2139(6)
N8_12 N 0.19177(15) 0.1327(3) 0.5351(7)
O3_12 O 0.15225(7) 0.03696(18) 0.4498(5)
O7_12 O 0.16703(11) 0.0851(2) 0.5297(6)
O17_8 O 0.18330(6) 0.00340(19) 0.4990(5)
O20_6 O 0.13224(7) 0.04896(17) 0.5372(6)
C1_12 C 0.1748(2) 0.6649(6) 0.2062(7)
H1_12 H 0.1868 0.6684 0.2160
C2_12 C 0.14193(13) 0.6543(3) 0.1788(6)
H2_12 H 0.1300 0.6515 0.1685
C4_12 C 0.1704(2) 0.6228(6) 0.1846(7)
H3_12 H 0.1786 0.5989 0.1796
C6_12 C 0.16308(14) 0.7014(3) 0.2141(6)
C7_12 C 0.16971(11) 0.7417(3) 0.2384(6)
C11_12 C 0.14654(14) 0.6965(3) 0.2010(6)
H7_12 H 0.1379 0.7195 0.2058
C12_12 C 0.15806(8) 0.8531(2) 0.3911(6)
H8_12 H 0.1500 0.8484 0.4153
C20_12 C 0.17097(8) 0.8279(2) 0.3224(6)
C21_12 C 0.15969(9) 0.8215(2) 0.3605(6)
H13_12 H 0.1533 0.7940 0.3638
C23_12 C 0.18020(8) 0.8672(2) 0.3198(6)
H15_12 H 0.1878 0.8735 0.2951
C37_12 C 0.17797(8) 0.8987(2) 0.3556(6)
H24_12 H 0.1845 0.9262 0.3549
C38_12 C 0.17231(9) 0.7964(3) 0.2849(6)
N2_12 N 0.16706(6) 0.89108(17) 0.3898(5)
N3_12 N 0.16303(7) 0.75857(18) 0.2770(6)
N4_12 N 0.18225(9) 0.7665(2) 0.2221(6)
N5_12 N 0.18379(9) 0.8013(2) 0.2513(6)
N6_12 N 0.14965(7) 0.7391(2) 0.3043(6)
H40_12 H 0.1466 0.7520 0.3297
H41_12 H 0.1444 0.7139 0.2958
N7_12 N 0.15201(10) 0.6215(3) 0.1718(6)
O4_12 O 0.14437(6) 0.97745(16) 0.4074(5)
C55_12 C 0.12913(9) 0.0871(3) 0.5536(6)
C56_12 C 0.11777(9) 0.1194(2) 0.5273(6)
C57_10 C 0.11196(10) 0.1067(3) 0.4850(6)
H42_10 H 0.1151 0.0781 0.4728
C58_10 C 0.10122(10) 0.1370(3) 0.4604(6)
H43_10 H 0.0972 0.1291 0.4311
C59_10 C 0.09647(10) 0.1781(3) 0.4785(6)
C60_12 C 0.10167(9) 0.1901(3) 0.5209(6)
H44_12 H 0.0977 0.2178 0.5336
C61_12 C 0.11307(9) 0.1610(2) 0.5461(6)
H45_12 H 0.1173 0.1696 0.5749
C62_10 C 0.08544(9) 0.2110(3) 0.4516(6)
C63_10 C 0.08871(10) 0.2166(3) 0.4047(6)
H46_10 H 0.0978 0.1996 0.3901
C64_10 C 0.07878(10) 0.2462(3) 0.3815(6)
H47_10 H 0.0810 0.2506 0.3504
C65_10 C 0.06538(9) 0.2705(3) 0.4024(6)
C66_10 C 0.06157(11) 0.2647(3) 0.4466(7)
H48_10 H 0.0519 0.2808 0.4595
C67_10 C 0.07132(9) 0.2363(3) 0.4730(6)
H49_12 H 0.0689 0.2333 0.5042
C68_12 C 0.13095(13) 0.5106(3) 0.1932(6)
C69_10 C 0.11923(9) 0.4799(2) 0.2211(6)
C70_10 C 0.10272(10) 0.4733(3) 0.2079(6)
H50_10 H 0.0985 0.4866 0.1809
C71_10 C 0.09092(9) 0.4453(3) 0.2355(6)
H51_10 H 0.0788 0.4420 0.2271
C72_10 C 0.09679(9) 0.4249(2) 0.2711(6)
C73_10 C 0.11513(11) 0.4305(3) 0.2844(6)
H52_10 H 0.1197 0.4164 0.3107
C74_10 C 0.12577(10) 0.4571(3) 0.2575(6)
H53_10 H 0.1381 0.4598 0.2645
C75_10 C 0.08460(10) 0.3942(3) 0.2990(6)
C76_10 C 0.07071(10) 0.3734(3) 0.2816(6)
H54_10 H 0.0673 0.3810 0.2518
C77_10 C 0.06071(10) 0.3407(3) 0.3041(6)
H55_10 H 0.0520 0.3229 0.2889
C78_10 C 0.06399(10) 0.3356(3) 0.3487(6)
C79_10 C 0.07837(13) 0.3597(4) 0.3698(6)
H56_10 H 0.0808 0.3546 0.4007
C80_10 C 0.08813(11) 0.3884(4) 0.3475(6)
H57_10 H 0.0973 0.4050 0.3620
C89_10 C 0.01187(11) 0.2426(3) 0.3721(6)
H62_10 H 0.0075 0.2128 0.3764
C90_10 C 0.02983(10) 0.2507(3) 0.3740(6)
H63_10 H 0.0379 0.2264 0.3785
C91_10 C 0.03627(10) 0.2948(3) 0.3693(6)
C92_10 C 0.02495(11) 0.3289(4) 0.3617(7)
H64_10 H 0.0295 0.3587 0.3587
C93_10 C 0.00603(11) 0.3215(3) 0.3581(6)
N9_10 N 0.05492(8) 0.3039(3) 0.3752(6)
O12_12 O 0.12593(6) 0.52708(16) 0.1590(5)
O13_12 O 0.14751(6) 0.5183(2) 0.2106(6)
O16_8 O 0.18623(6) 0.96729(17) 0.4357(6)
O18_8 O 0.16449(6) 0.99567(19) 0.5803(5)
O19_5 O 0.17052(6) 0.5494(2) 0.1308(6)
C26_12 C 0.94126(10) 0.2612(3) 0.2163(6)
C27_12 C 0.96187(9) 0.2510(2) 0.2152(6)
C28_12 C 0.97201(9) 0.2669(3) 0.1793(6)
H18_12 H 0.9665 0.2833 0.1556
C29_12 C 0.99009(10) 0.2586(3) 0.1785(6)
H19_12 H 0.9970 0.2679 0.1533
C30_12 C 0.99849(10) 0.2366(3) 0.2146(6)
C31_12 C 0.98769(9) 0.2216(3) 0.2493(6)
H20_12 H 0.9933 0.2073 0.2742
C32_15 C 0.97010(8) 0.2258(2) 0.2500(6)
H21_12 H 0.9632 0.2123 0.2732
C81_12 C 0.92490(9) 0.2331(3) 0.3555(6)
C82_12 C 0.94439(9) 0.2465(3) 0.3583(6)
C83_12 C 0.95606(11) 0.2182(3) 0.3809(6)
H58_12 H 0.9519 0.1916 0.3953
C84_12 C 0.97412(10) 0.2297(3) 0.3819(6)
H59_12 H 0.9823 0.2104 0.3970
C85_12 C 0.98021(10) 0.2673(3) 0.3622(6)
C86_12 C 0.96880(9) 0.2962(2) 0.3398(6)
H60_12 H 0.9734 0.3226 0.3258
C87_12 C 0.94973(10) 0.2862(3) 0.3377(6)
H61_12 H 0.9415 0.3057 0.3231
C88_12 C 0.99984(11) 0.2784(3) 0.3639(6)
H65_12 H 0.9981 0.3457 0.3518
N6_13 N 0.39965(7) 0.0109(2) 0.0543(6)
H41_13 H 0.3944 0.0361 0.0458
C55_13 C 0.37913(9) 0.6629(3) 0.3036(6)
C56_13 C 0.36777(9) 0.6306(2) 0.2773(6)
C57_11 C 0.36196(10) 0.6433(3) 0.2350(6)
H42_11 H 0.3651 0.6719 0.2228
C58_11 C 0.35122(10) 0.6130(3) 0.2104(6)
H43_11 H 0.3472 0.6209 0.1811
C59_11 C 0.34647(10) 0.5719(3) 0.2285(6)
C60_13 C 0.35167(9) 0.5599(3) 0.2709(6)
H44_13 H 0.3477 0.5322 0.2836
C61_13 C 0.36307(9) 0.5890(2) 0.2961(6)
H45_13 H 0.3673 0.5804 0.3249
C62_11 C 0.33544(9) 0.5390(3) 0.2016(6)
C63_11 C 0.33871(10) 0.5334(3) 0.1547(6)
H46_11 H 0.3478 0.5504 0.1401
C64_11 C 0.32878(10) 0.5038(3) 0.1315(6)
H47_11 H 0.3310 0.4994 0.1004
C65_11 C 0.31538(9) 0.4795(3) 0.1524(6)
C66_11 C 0.31157(11) 0.4853(3) 0.1966(7)
H48_11 H 0.3019 0.4692 0.2095
C67_11 C 0.32132(9) 0.5137(3) 0.2230(6)
H49_13 H 0.3189 0.5167 0.2542
C72_11 C 0.34679(9) 0.3251(2) 0.0211(6)
C73_11 C 0.36513(11) 0.3195(3) 0.0344(6)
H52_11 H 0.3697 0.3336 0.0607
C74_11 C 0.37577(10) 0.2929(3) 0.0075(6)
H53_11 H 0.3881 0.2902 0.0145
C75_11 C 0.33460(10) 0.3558(3) 0.0490(6)
C76_11 C 0.32071(10) 0.3766(3) 0.0316(6)
H54_11 H 0.3173 0.3690 0.0018
C77_11 C 0.31071(10) 0.4093(3) 0.0541(6)
H55_11 H 0.3020 0.4271 0.0389
C78_11 C 0.31399(10) 0.4144(3) 0.0987(6)
C79_11 C 0.32837(13) 0.3903(4) 0.1198(6)
H56_11 H 0.3308 0.3954 0.1507
C80_11 C 0.33813(11) 0.3616(4) 0.0975(6)
H57_11 H 0.3473 0.3450 0.1120
C81_13 C 0.17490(9) 0.5169(3) 0.1055(6)
C82_13 C 0.19439(9) 0.5035(3) 0.1083(6)
C83_13 C 0.20606(11) 0.5318(3) 0.1309(6)
H58_13 H 0.2019 0.5584 0.1453
C84_13 C 0.22412(10) 0.5203(3) 0.1319(6)
H59_13 H 0.2323 0.5396 0.1470
C85_13 C 0.23021(10) 0.4827(3) 0.1122(6)
C86_13 C 0.21880(9) 0.4538(2) 0.0898(6)
H60_13 H 0.2234 0.4274 0.0758
C87_13 C 0.19973(10) 0.4638(3) 0.0877(6)
H61_13 H 0.1915 0.4443 0.0731
C88_13 C 0.24984(11) 0.4716(3) 0.1139(6)
C89_11 C 0.26187(11) 0.5074(3) 0.1221(6)
H62_11 H 0.2575 0.5372 0.1264
C90_11 C 0.27983(10) 0.4993(3) 0.1240(6)
H63_11 H 0.2879 0.5236 0.1285
C91_11 C 0.28627(10) 0.4552(3) 0.1193(6)
C92_11 C 0.27495(11) 0.4211(4) 0.1117(7)
H64_11 H 0.2795 0.3913 0.1087
C93_11 C 0.25603(11) 0.4285(3) 0.1081(6)
H65_13 H 0.2481 0.4043 0.1018
N9_11 N 0.30492(8) 0.4461(3) 0.1252(6)
O10_7 O 0.38224(7) 0.70104(17) 0.2872(6)
O11_7 O 0.38399(7) 0.64917(18) 0.3410(6)
Zn6_4 Zn 0.406973(9) 0.72853(3) 0.2679(5)
Zn11_6 Zn 0.395520(9) 0.68527(3) 0.3877(5)
C1_13 C 0.4248(2) 0.0851(6) 0.9562(7)
H1_13 H 0.4368 0.0816 0.9660
C2_13 C 0.39193(13) 0.0957(3) 0.9288(6)
H2_13 H 0.3800 0.0985 0.9185
C4_13 C 0.4204(2) 0.1272(6) 0.9346(7)
H3_13 H 0.4286 0.1511 0.9296
C6_13 C 0.41308(14) 0.0486(3) 0.9641(6)
C7_13 C 0.41971(11) 0.0083(3) 0.9884(6)
C11_13 C 0.39654(14) 0.0535(3) 0.9510(6)
H7_13 H 0.3879 0.0305 0.9558
N7_13 N 0.40201(10) 0.1285(3) 0.9218(6)
C68_13 C 0.38095(13) 0.2394(3) 0.9432(6)
C69_11 C 0.36923(9) 0.2701(2) 0.9711(6)
C70_11 C 0.35272(10) 0.2767(3) 0.9579(6)
H50_11 H 0.3485 0.2634 0.9309
C71_11 C 0.34092(9) 0.3047(3) 0.9855(6)
H51_11 H 0.3288 0.3080 0.9771
O12_13 O 0.37593(6) 0.22292(16) 0.9090(5)
O13_13 O 0.39751(6) 0.2317(2) 0.9606(6)
Zn3_4 Zn 0.395520(9) 0.18527(3) 0.8877(5)
O19_6 O 0.42052(6) 0.2006(2) 0.8808(6)
O21_7 O 0.38399(7) 0.14917(18) 0.8410(6)
C5_13 C 0.29602(11) 0.5234(3) 0.0056(6)
H4_13 H 0.3023 0.5235 0.0333
C9_13 C 0.27738(10) 0.5206(3) 0.0030(6)
H5_13 H 0.2709 0.5202 0.0305
C12_13 C 0.40806(8) 0.8969(2) 0.1411(6)
H8_13 H 0.4000 0.9016 0.1653
C20_13 C 0.42097(8) 0.9221(2) 0.0724(6)
C21_13 C 0.40969(9) 0.9285(2) 0.1105(6)
H13_13 H 0.4033 0.9560 0.1138
C23_13 C 0.43020(8) 0.8828(2) 0.0698(6)
H15_13 H 0.4378 0.8765 0.0451
H20_13 H 0.2433 0.5427 0.0242
C32_16 C 0.22010(8) 0.5242(2) -0.0000(6)
H21_13 H 0.2132 0.5377 0.0232
C37_13 C 0.42797(8) 0.8513(2) 0.1056(6)
H24_13 H 0.4345 0.8238 0.1049
C38_13 C 0.42231(9) 0.9536(3) 0.0349(6)
C39_13 C 0.39452(9) 0.7313(2) 0.1673(6)
C40_13 C 0.38325(9) 0.7008(2) 0.1374(6)
C41_13 C 0.37054(10) 0.7174(3) 0.1087(6)
H25_13 H 0.3682 0.7490 0.1075
C42_13 C 0.36144(11) 0.6890(3) 0.0825(6)
H26_13 H 0.3530 0.7019 0.0624
C43_13 C 0.36309(9) 0.6439(3) 0.0817(6)
C44_13 C 0.37652(11) 0.6266(2) 0.1109(6)
H27_13 H 0.3790 0.5951 0.1114
C45_13 C 0.38571(10) 0.6552(3) 0.1380(6)
H28_13 H 0.3942 0.6430 0.1583
C46_13 C 0.35246(10) 0.6145(3) 0.0531(6)
C47_13 C 0.33575(10) 0.6261(3) 0.0343(6)
H29_13 H 0.3305 0.6542 0.0423
C48_13 C 0.32724(10) 0.5997(3) 0.0064(6)
C50_13 C 0.34930(10) 0.5425(3) 0.0134(6)
H31_13 H 0.3537 0.5131 0.0067
C51_13 C 0.35905(11) 0.5708(3) 0.0422(6)
H32_13 H 0.3701 0.5607 0.0544
C52_13 C 0.4305 0.6488 0.2603
H33_13 H 0.4333 0.6569 0.2302
C53_13 C 0.4341(3) 0.6034(7) 0.3243(8)
H34_13 H 0.4222 0.6171 0.3271
H35_13 H 0.4415 0.6128 0.3497
H36_13 H 0.4329 0.5705 0.3242
C54_13 C 0.4582(4) 0.6077(16) 0.2635(18)
H37_13 H 0.4589 0.6250 0.2354
H38_13 H 0.4588 0.5754 0.2568
H39_13 H 0.4681 0.6162 0.2832
N2_13 N 0.41706(6) 0.85892(17) 0.1398(5)
N3_13 N 0.41303(7) 0.99143(18) 0.0270(6)
N5_13 N 0.43379(9) 0.9487(2) 0.0013(6)
H40_13 H 0.3966 0.9980 0.0797
N8_13 N 0.44177(15) 0.6173(3) 0.2851(7)
O3_13 O 0.40225(7) 0.71304(18) 0.1998(5)
O4_13 O 0.39437(6) 0.77255(16) 0.1574(5)
O7_13 O 0.41703(11) 0.6649(2) 0.2797(6)
Zn1_6 Zn 0.412666(9) 0.80929(2) 0.1855(5)
O14_7 O 0.40548(6) 0.84673(16) 0.2355(5)
O15_7 O 0.39183(6) 0.78652(14) 0.2650(5)
O16_9 O 0.43623(6) 0.78271(17) 0.1857(6)
O17_9 O 0.43330(6) 0.74660(19) 0.2490(5)
O18_9 O 0.41449(6) 0.75433(19) 0.3303(5)
C3_13 C 0.35582(11) 0.4400(3) 0.8834(6)
C8_13 C 0.33404(10) 0.4980(3) 0.9380(6)
C10_13 C 0.34074(11) 0.4250(3) 0.9058(6)
H6_13 H 0.3370 0.3946 0.9022
C13_13 C 0.39469(8) 0.3277(2) 0.7631(6)
C14_13 C 0.38555(8) 0.3577(2) 0.7962(6)
C15_13 C 0.37865(8) 0.3412(3) 0.8355(6)
H9_13 H 0.3805 0.3104 0.8429
C16_13 C 0.36932(11) 0.3677(3) 0.8639(6)
H10_13 H 0.3649 0.3549 0.8910
C17_13 C 0.36595(10) 0.4129(3) 0.8550(6)
C18_13 C 0.37441(12) 0.4306(3) 0.8164(6)
H11_13 H 0.3734 0.4619 0.8100
C19_13 C 0.38417(9) 0.4032(2) 0.7874(6)
H12_13 H 0.3898 0.4158 0.7617
C22_13 C 0.33085(11) 0.4542(4) 0.9339(6)
H14_13 H 0.3213 0.4417 0.9510
C24_13 C 0.34953(11) 0.5171(3) 0.9139(6)
H16_13 H 0.3524 0.5484 0.9150
C25_13 C 0.35922(12) 0.4881(4) 0.8906(6)
H17_16 H 0.3697 0.5000 0.8768
C26_13 C 0.19126(10) 0.4888(3) 0.9663(6)
C27_13 C 0.21187(9) 0.4990(2) 0.9652(6)
C28_13 C 0.22201(9) 0.4831(3) 0.9293(6)
H18_13 H 0.2165 0.4667 0.9056
C29_13 C 0.24009(10) 0.4914(3) 0.9285(6)
H19_13 H 0.2470 0.4821 0.9033
C30_13 C 0.24849(10) 0.5134(3) 0.9646(6)
C31_13 C 0.23769(9) 0.5284(3) 0.9993(6)
C32_17 C 0.22010(8) 0.5242(2) 1.0000(6)
C33_13 C 0.26800(10) 0.5186(3) 0.9646(6)
C34_13 C 0.27827(11) 0.5193(3) 0.9244(6)
H22_13 H 0.2726 0.5178 0.8959
C35_13 C 0.29607(12) 0.5220(4) 0.9273(6)
H23_13 H 0.3027 0.5211 0.9001
C36_13 C 0.30470(10) 0.5258(3) 0.9642(6)
H30_13 H 0.3164 0.6102 0.9937
C49_13 C 0.33327(9) 0.5569(3) 0.9945(6)
N1_13 N 0.32395(8) 0.5299(3) 0.9639(6)
N4_13 N 0.43225(9) 0.9835(2) 0.9721(6)
O1_7 O 0.40548(6) 0.34673(16) 0.7355(5)
O2_7 O 0.39183(6) 0.28652(14) 0.7650(5)
Zn4_4 Zn 0.412666(9) 0.30929(2) 0.6855(5)
Zn7_4 Zn 0.406973(9) 0.22853(3) 0.7679(5)
C1_14 C 0.6748(2) 0.1649(6) 0.2062(7)
H1_14 H 0.6868 0.1684 0.2160
C2_14 C 0.64193(13) 0.1543(3) 0.1788(6)
H2_14 H 0.6300 0.1515 0.1685
C3_14 C 0.60582(11) 0.8100(3) 0.1334(6)
C4_14 C 0.6704(2) 0.1228(6) 0.1846(7)
H3_14 H 0.6786 0.0989 0.1796
C5_14 C 0.54602(11) 0.7266(3) 0.2556(6)
H4_14 H 0.5523 0.7265 0.2833
C6_14 C 0.66308(14) 0.2014(3) 0.2141(6)
C7_14 C 0.66971(11) 0.2417(3) 0.2384(6)
C8_14 C 0.58404(10) 0.7520(3) 0.1880(6)
C9_14 C 0.52738(10) 0.7294(3) 0.2530(6)
H5_14 H 0.5209 0.7298 0.2805
C10_14 C 0.59074(11) 0.8250(3) 0.1558(6)
H6_14 H 0.5870 0.8554 0.1522
C11_14 C 0.64654(14) 0.1965(3) 0.2010(6)
H7_14 H 0.6379 0.2195 0.2058
C12_14 C 0.65806(8) 0.3531(2) 0.3911(6)
H8_14 H 0.6500 0.3484 0.4153
C13_14 C 0.64469(8) 0.9223(2) 0.0131(6)
C14_14 C 0.63555(8) 0.8923(2) 0.0462(6)
C15_14 C 0.62865(8) 0.9088(3) 0.0855(6)
H9_14 H 0.6305 0.9396 0.0929
C16_14 C 0.61932(11) 0.8823(3) 0.1139(6)
H10_14 H 0.6149 0.8951 0.1410
C17_14 C 0.61595(10) 0.8371(3) 0.1050(6)
C18_14 C 0.62441(12) 0.8194(3) 0.0664(6)
H11_14 H 0.6234 0.7881 0.0600
C19_14 C 0.63417(9) 0.8468(2) 0.0374(6)
H12_14 H 0.6398 0.8342 0.0117
C20_14 C 0.67097(8) 0.3279(2) 0.3224(6)
C21_14 C 0.65969(9) 0.3215(2) 0.3605(6)
H13_14 H 0.6533 0.2940 0.3638
C22_14 C 0.58085(11) 0.7958(4) 0.1839(6)
H14_14 H 0.5713 0.8083 0.2010
C23_14 C 0.68020(8) 0.3672(2) 0.3198(6)
H15_14 H 0.6878 0.3735 0.2951
C24_14 C 0.59953(11) 0.7329(3) 0.1639(6)
H16_14 H 0.6024 0.7016 0.1650
C25_14 C 0.60922(12) 0.7619(4) 0.1406(6)
H17_17 H 0.6197 0.7500 0.1268
C26_14 C 0.44126(10) 0.7612(3) 0.2163(6)
C27_14 C 0.46187(9) 0.7510(2) 0.2152(6)
C28_14 C 0.47201(9) 0.7669(3) 0.1793(6)
H18_14 H 0.4665 0.7833 0.1556
C29_14 C 0.49009(10) 0.7586(3) 0.1785(6)
H19_14 H 0.4970 0.7679 0.1533
C30_14 C 0.49849(10) 0.7366(3) 0.2146(6)
C31_14 C 0.48769(9) 0.7216(3) 0.2493(6)
H20_14 H 0.4933 0.7073 0.2742
C32_18 C 0.47010(8) 0.7258(2) 0.2500(6)
H21_14 H 0.4632 0.7123 0.2732
C33_14 C 0.51800(10) 0.7314(3) 0.2146(6)
C34_14 C 0.52827(11) 0.7307(3) 0.1744(6)
H22_14 H 0.5226 0.7322 0.1459
C35_14 C 0.54607(12) 0.7280(4) 0.1773(6)
H23_14 H 0.5527 0.7289 0.1501
C36_14 C 0.55470(10) 0.7242(3) 0.2142(6)
C37_14 C 0.67797(8) 0.3987(2) 0.3556(6)
H24_14 H 0.6845 0.4262 0.3549
C38_14 C 0.67231(9) 0.2964(3) 0.2849(6)
C39_14 C 0.64452(9) 0.5187(2) 0.4173(6)
C40_14 C 0.63325(9) 0.5492(2) 0.3874(6)
C41_14 C 0.62054(10) 0.5326(3) 0.3587(6)
H25_14 H 0.6182 0.5010 0.3575
C42_14 C 0.61144(11) 0.5610(3) 0.3325(6)
H26_14 H 0.6030 0.5481 0.3124
C43_14 C 0.61309(9) 0.6061(3) 0.3317(6)
C44_14 C 0.62652(11) 0.6234(2) 0.3609(6)
H27_14 H 0.6290 0.6549 0.3614
C45_14 C 0.63571(10) 0.5948(3) 0.3880(6)
H28_14 H 0.6442 0.6070 0.4083
C46_14 C 0.60246(10) 0.6355(3) 0.3031(6)
C47_14 C 0.58575(10) 0.6239(3) 0.2843(6)
H29_14 H 0.5805 0.5958 0.2923
C48_14 C 0.57724(10) 0.6503(3) 0.2564(6)
H30_14 H 0.5664 0.6398 0.2437
C49_14 C 0.58327(9) 0.6931(3) 0.2445(6)
C50_14 C 0.59930(10) 0.7075(3) 0.2634(6)
H31_14 H 0.6037 0.7369 0.2567
C51_14 C 0.60905(11) 0.6792(3) 0.2922(6)
H32_14 H 0.6201 0.6893 0.3044
C52_14 C 0.6805 0.6012 0.5103
H33_14 H 0.6833 0.5931 0.4802
C53_14 C 0.6841(3) 0.6466(7) 0.5743(8)
H34_14 H 0.6722 0.6329 0.5771
H35_14 H 0.6915 0.6372 0.5997
H36_14 H 0.6829 0.6795 0.5742
C54_14 C 0.7082(4) 0.6423(16) 0.5135(18)
H37_14 H 0.7089 0.6250 0.4854
H38_14 H 0.7088 0.6746 0.5068
H39_14 H 0.7181 0.6338 0.5332
N1_14 N 0.57395(8) 0.7201(3) 0.2139(6)
N2_14 N 0.66706(6) 0.39108(17) 0.3898(5)
N3_14 N 0.66303(7) 0.25857(18) 0.2770(6)
N4_14 N 0.68225(9) 0.2665(2) 0.2221(6)
N5_14 N 0.68379(9) 0.3013(2) 0.2513(6)
N6_14 N 0.64965(7) 0.2391(2) 0.3043(6)
H40_14 H 0.6466 0.2520 0.3297
H41_14 H 0.6444 0.2139 0.2958
N7_14 N 0.65201(10) 0.1215(3) 0.1718(6)
N8_14 N 0.69177(15) 0.6327(3) 0.5351(7)
O2_8 O 0.64183(6) 0.96348(14) 0.0150(5)
O3_14 O 0.65225(7) 0.53696(18) 0.4498(5)
O4_14 O 0.64437(6) 0.47745(16) 0.4074(5)
O7_14 O 0.66703(11) 0.5851(2) 0.5297(6)
C68_14 C 0.63095(13) 0.0106(3) 0.1932(6)
O12_14 O 0.62593(6) 0.02708(16) 0.1590(5)
O13_14 O 0.64751(6) 0.0183(2) 0.2106(6)
O14_8 O 0.65548(6) 0.40327(16) 0.4855(5)
O15_8 O 0.64183(6) 0.46348(14) 0.5150(5)
O20_7 O 0.63224(7) 0.54896(17) 0.5372(6)
O21_8 O 0.63399(7) 0.10083(18) 0.0910(6)
O1_8 O 0.65548(6) 0.90327(16) 0.9855(5)
C55_14 C 0.62913(9) 0.5871(3) 0.5536(6)
C56_14 C 0.61777(9) 0.6194(2) 0.5273(6)
C57_12 C 0.61196(10) 0.6067(3) 0.4850(6)
H42_12 H 0.6151 0.5781 0.4728
C58_12 C 0.60122(10) 0.6370(3) 0.4604(6)
H43_12 H 0.5972 0.6291 0.4311
C59_12 C 0.59647(10) 0.6781(3) 0.4785(6)
C60_14 C 0.60167(9) 0.6901(3) 0.5209(6)
H44_14 H 0.5977 0.7178 0.5336
C61_14 C 0.61307(9) 0.6610(2) 0.5461(6)
H45_14 H 0.6173 0.6696 0.5749
C62_12 C 0.58544(9) 0.7110(3) 0.4516(6)
C63_12 C 0.58871(10) 0.7166(3) 0.4047(6)
H46_12 H 0.5978 0.6996 0.3901
C64_12 C 0.57878(10) 0.7462(3) 0.3815(6)
H47_12 H 0.5810 0.7506 0.3504
C65_12 C 0.56538(9) 0.7705(3) 0.4024(6)
C66_12 C 0.56157(11) 0.7647(3) 0.4466(7)
H48_12 H 0.5519 0.7808 0.4595
C67_12 C 0.57132(9) 0.7363(3) 0.4730(6)
H49_14 H 0.5689 0.7333 0.5042
C69_12 C 0.61923(9) 0.9799(2) 0.2211(6)
C70_12 C 0.60272(10) 0.9733(3) 0.2079(6)
H50_12 H 0.5985 0.9866 0.1809
C71_12 C 0.59092(9) 0.9453(3) 0.2355(6)
H51_12 H 0.5788 0.9420 0.2271
C72_12 C 0.59679(9) 0.9249(2) 0.2711(6)
C73_12 C 0.61513(11) 0.9305(3) 0.2844(6)
H52_12 H 0.6197 0.9164 0.3107
C74_12 C 0.62577(10) 0.9571(3) 0.2575(6)
H53_12 H 0.6381 0.9598 0.2645
C75_12 C 0.58460(10) 0.8942(3) 0.2990(6)
C76_12 C 0.57071(10) 0.8734(3) 0.2816(6)
H54_12 H 0.5673 0.8810 0.2518
C77_12 C 0.56071(10) 0.8407(3) 0.3041(6)
H55_12 H 0.5520 0.8229 0.2889
C78_12 C 0.56399(10) 0.8356(3) 0.3487(6)
C79_12 C 0.57837(13) 0.8597(4) 0.3698(6)
H56_12 H 0.5808 0.8546 0.4007
C80_12 C 0.58813(11) 0.8884(4) 0.3475(6)
H57_12 H 0.5973 0.9050 0.3620
C81_14 C 0.42490(9) 0.7331(3) 0.3555(6)
C82_14 C 0.44439(9) 0.7465(3) 0.3583(6)
C83_14 C 0.45606(11) 0.7182(3) 0.3809(6)
H58_14 H 0.4519 0.6916 0.3953
C84_14 C 0.47412(10) 0.7297(3) 0.3819(6)
H59_14 H 0.4823 0.7104 0.3970
C85_14 C 0.48021(10) 0.7673(3) 0.3622(6)
C86_14 C 0.46880(9) 0.7962(2) 0.3398(6)
H60_14 H 0.4734 0.8226 0.3258
C87_14 C 0.44973(10) 0.7862(3) 0.3377(6)
H61_14 H 0.4415 0.8057 0.3231
C88_14 C 0.49984(11) 0.7784(3) 0.3639(6)
C89_12 C 0.51187(11) 0.7426(3) 0.3721(6)
H62_12 H 0.5075 0.7128 0.3764
C90_12 C 0.52983(10) 0.7507(3) 0.3740(6)
H63_12 H 0.5379 0.7264 0.3785
C91_12 C 0.53627(10) 0.7948(3) 0.3693(6)
C92_12 C 0.52495(11) 0.8289(4) 0.3617(7)
H64_12 H 0.5295 0.8587 0.3587
C93_12 C 0.50603(11) 0.8215(3) 0.3581(6)
H65_14 H 0.4981 0.8457 0.3518
N9_12 N 0.55492(8) 0.8039(3) 0.3752(6)
O9_10 O 0.42052(6) 0.7006(2) 0.3808(6)
O11_8 O 0.63399(7) 0.60083(18) 0.5910(6)
C55_15 C 0.37913(9) 0.1629(3) 0.8036(6)
C56_15 C 0.36777(9) 0.1306(2) 0.7773(6)
C57_13 C 0.36196(10) 0.1433(3) 0.7350(6)
H42_13 H 0.3651 0.1719 0.7228
C58_13 C 0.35122(10) 0.1130(3) 0.7104(6)
H43_13 H 0.3472 0.1209 0.6811
C59_13 C 0.34647(10) 0.0719(3) 0.7285(6)
C60_15 C 0.35167(9) 0.0599(3) 0.7709(6)
H44_15 H 0.3477 0.0322 0.7836
C61_15 C 0.36307(9) 0.0890(2) 0.7961(6)
H45_15 H 0.3673 0.0804 0.8249
C62_13 C 0.33544(9) 0.0390(3) 0.7016(6)
C63_13 C 0.33871(10) 0.0334(3) 0.6547(6)
H46_13 H 0.3478 0.0504 0.6401
C64_13 C 0.32878(10) 0.0038(3) 0.6315(6)
C67_13 C 0.32132(9) 0.0137(3) 0.7230(6)
H49_15 H 0.3189 0.0167 0.7542
C81_15 C 0.17490(9) 0.0169(3) 0.6055(6)
C82_15 C 0.19439(9) 0.0035(3) 0.6083(6)
C83_15 C 0.20606(11) 0.0318(3) 0.6309(6)
H58_15 H 0.2019 0.0584 0.6453
C84_15 C 0.22412(10) 0.0203(3) 0.6319(6)
H59_15 H 0.2323 0.0396 0.6470
C89_13 C 0.26187(11) 0.0074(3) 0.6221(6)
H62_13 H 0.2575 0.0372 0.6264
H63_13 H 0.2879 0.0236 0.6285
O10_8 O 0.38224(7) 0.20104(17) 0.7872(6)
C1_15 C 0.4248(2) 0.5851(6) 0.4562(7)
H1_15 H 0.4368 0.5816 0.4660
C2_15 C 0.39193(13) 0.5957(3) 0.4288(6)
H2_15 H 0.3800 0.5985 0.4185
C4_15 C 0.4204(2) 0.6272(6) 0.4346(7)
H3_15 H 0.4286 0.6511 0.4296
C5_15 C 0.29602(11) 0.0234(3) 0.5056(6)
H4_15 H 0.3023 0.0235 0.5333
C6_15 C 0.41308(14) 0.5486(3) 0.4641(6)
C7_15 C 0.41971(11) 0.5083(3) 0.4884(6)
C9_15 C 0.27738(10) 0.0206(3) 0.5030(6)
H5_15 H 0.2709 0.0202 0.5305
C11_15 C 0.39654(14) 0.5535(3) 0.4510(6)
H7_15 H 0.3879 0.5305 0.4558
C12_15 C 0.40806(8) 0.3969(2) 0.6411(6)
H8_15 H 0.4000 0.4016 0.6653
C20_15 C 0.42097(8) 0.4221(2) 0.5724(6)
C21_15 C 0.40969(9) 0.4285(2) 0.6105(6)
H13_15 H 0.4033 0.4560 0.6138
C23_15 C 0.43020(8) 0.3828(2) 0.5698(6)
H15_15 H 0.4378 0.3765 0.5451
C24_15 C 0.34953(11) 0.0171(3) 0.4139(6)
H16_15 H 0.3524 0.0484 0.4150
H17_18 H 0.3697 0.0000 0.3768
C30_15 C 0.24849(10) 0.0134(3) 0.4646(6)
C31_15 C 0.23769(9) 0.0284(3) 0.4993(6)
H20_15 H 0.2433 0.0427 0.5242
C32_19 C 0.22010(8) 0.0242(2) 0.5000(6)
H21_15 H 0.2132 0.0377 0.5232
C33_15 C 0.26800(10) 0.0186(3) 0.4646(6)
C34_15 C 0.27827(11) 0.0193(3) 0.4244(6)
H22_15 H 0.2726 0.0178 0.3959
C35_15 C 0.29607(12) 0.0220(4) 0.4273(6)
H23_15 H 0.3027 0.0211 0.4001
C36_15 C 0.30470(10) 0.0258(3) 0.4642(6)
C37_15 C 0.42797(8) 0.3513(2) 0.6056(6)
H24_15 H 0.4345 0.3238 0.6049
C38_15 C 0.42231(9) 0.4536(3) 0.5349(6)
C39_15 C 0.39452(9) 0.2313(2) 0.6673(6)
C40_15 C 0.38325(9) 0.2008(2) 0.6374(6)
C41_15 C 0.37054(10) 0.2174(3) 0.6087(6)
H25_15 H 0.3682 0.2490 0.6075
C42_15 C 0.36144(11) 0.1890(3) 0.5825(6)
H26_15 H 0.3530 0.2019 0.5624
C43_15 C 0.36309(9) 0.1439(3) 0.5817(6)
C44_15 C 0.37652(11) 0.1266(2) 0.6109(6)
H27_15 H 0.3790 0.0951 0.6114
C45_15 C 0.38571(10) 0.1552(3) 0.6380(6)
H28_15 H 0.3942 0.1430 0.6583
C46_15 C 0.35246(10) 0.1145(3) 0.5531(6)
C47_15 C 0.33575(10) 0.1261(3) 0.5343(6)
H29_15 H 0.3305 0.1542 0.5423
C48_15 C 0.32724(10) 0.0997(3) 0.5064(6)
H30_15 H 0.3164 0.1102 0.4937
C49_15 C 0.33327(9) 0.0569(3) 0.4945(6)
C50_15 C 0.34930(10) 0.0425(3) 0.5134(6)
H31_15 H 0.3537 0.0131 0.5067
C51_15 C 0.35905(11) 0.0708(3) 0.5422(6)
H32_15 H 0.3701 0.0607 0.5544
C52_15 C 0.4305 0.1488 0.7603
H33_15 H 0.4333 0.1569 0.7302
C53_15 C 0.4341(3) 0.1034(7) 0.8243(8)
H34_15 H 0.4222 0.1171 0.8271
H35_15 H 0.4415 0.1128 0.8497
H36_15 H 0.4329 0.0705 0.8242
C54_15 C 0.4582(4) 0.1077(16) 0.7635(18)
H37_15 H 0.4589 0.1250 0.7354
H38_15 H 0.4588 0.0754 0.7568
H39_15 H 0.4681 0.1162 0.7832
N1_15 N 0.32395(8) 0.0299(3) 0.4639(6)
N2_15 N 0.41706(6) 0.35892(17) 0.6398(5)
N3_15 N 0.41303(7) 0.49143(18) 0.5270(6)
N4_15 N 0.43225(9) 0.4835(2) 0.4721(6)
N5_15 N 0.43379(9) 0.4487(2) 0.5013(6)
N6_15 N 0.39965(7) 0.5109(2) 0.5543(6)
H40_15 H 0.3966 0.4980 0.5797
H41_15 H 0.3944 0.5361 0.5458
N7_15 N 0.40201(10) 0.6285(3) 0.4218(6)
N8_15 N 0.44177(15) 0.1173(3) 0.7851(7)
O3_15 O 0.40225(7) 0.21304(18) 0.6998(5)
O4_15 O 0.39437(6) 0.27255(16) 0.6574(5)
O7_15 O 0.41703(11) 0.1649(2) 0.7797(6)
H47_13 H 0.3310 0.9994 0.6004
C65_13 C 0.31538(9) 0.9795(3) 0.6524(6)
C66_13 C 0.31157(11) 0.9853(3) 0.6966(7)
H48_13 H 0.3019 0.9692 0.7095
C68_15 C 0.38095(13) 0.7394(3) 0.4432(6)
C69_13 C 0.36923(9) 0.7701(2) 0.4711(6)
C70_13 C 0.35272(10) 0.7767(3) 0.4579(6)
H50_13 H 0.3485 0.7634 0.4309
C71_13 C 0.34092(9) 0.8047(3) 0.4855(6)
H51_13 H 0.3288 0.8080 0.4771
C72_13 C 0.34679(9) 0.8251(2) 0.5211(6)
C73_13 C 0.36513(11) 0.8195(3) 0.5344(6)
H52_13 H 0.3697 0.8336 0.5607
C74_13 C 0.37577(10) 0.7929(3) 0.5075(6)
H53_13 H 0.3881 0.7902 0.5145
C75_13 C 0.33460(10) 0.8558(3) 0.5490(6)
C76_13 C 0.32071(10) 0.8766(3) 0.5316(6)
H54_13 H 0.3173 0.8690 0.5018
C77_13 C 0.31071(10) 0.9093(3) 0.5541(6)
H55_13 H 0.3020 0.9271 0.5389
C78_13 C 0.31399(10) 0.9144(3) 0.5987(6)
C79_13 C 0.32837(13) 0.8903(4) 0.6198(6)
H56_13 H 0.3308 0.8954 0.6507
C80_13 C 0.33813(11) 0.8616(4) 0.5975(6)
H57_13 H 0.3473 0.8450 0.6120
C85_15 C 0.23021(10) 0.9827(3) 0.6122(6)
C86_15 C 0.21880(9) 0.9538(2) 0.5898(6)
H60_15 H 0.2234 0.9274 0.5758
C87_15 C 0.19973(10) 0.9638(3) 0.5877(6)
H61_15 H 0.1915 0.9443 0.5731
C88_15 C 0.24984(11) 0.9716(3) 0.6139(6)
C90_13 C 0.27983(10) 0.9993(3) 0.6240(6)
C91_13 C 0.28627(10) 0.9552(3) 0.6193(6)
C92_13 C 0.27495(11) 0.9211(4) 0.6117(7)
H64_13 H 0.2795 0.8913 0.6087
C93_13 C 0.25603(11) 0.9285(3) 0.6081(6)
H65_15 H 0.2481 0.9043 0.6018
N9_13 N 0.30492(8) 0.9461(3) 0.6252(6)
O12_15 O 0.37593(6) 0.72292(16) 0.4090(5)
O13_15 O 0.39751(6) 0.7317(2) 0.4606(6)
O16_10 O 0.43623(6) 0.28271(17) 0.6857(6)
O17_10 O 0.43330(6) 0.24660(19) 0.7490(5)
O18_10 O 0.41449(6) 0.25433(19) 0.8303(5)
C3_15 C 0.35582(11) 0.9400(3) 0.3834(6)
C8_15 C 0.33404(10) 0.9980(3) 0.4380(6)
C10_15 C 0.34074(11) 0.9250(3) 0.4058(6)
H6_15 H 0.3370 0.8946 0.4022
C13_15 C 0.39469(8) 0.8277(2) 0.2631(6)
C14_15 C 0.38555(8) 0.8577(2) 0.2962(6)
C15_15 C 0.37865(8) 0.8412(3) 0.3355(6)
H9_15 H 0.3805 0.8104 0.3429
C16_15 C 0.36932(11) 0.8677(3) 0.3639(6)
H10_15 H 0.3649 0.8549 0.3910
C17_15 C 0.36595(10) 0.9129(3) 0.3550(6)
C18_15 C 0.37441(12) 0.9306(3) 0.3164(6)
H11_15 H 0.3734 0.9619 0.3100
C19_15 C 0.38417(9) 0.9032(2) 0.2874(6)
H12_15 H 0.3898 0.9158 0.2617
C22_15 C 0.33085(11) 0.9542(4) 0.4339(6)
H14_15 H 0.3213 0.9417 0.4510
C25_15 C 0.35922(12) 0.9881(4) 0.3906(6)
H17_19 H 0.3697 1.0000 0.3768
C26_15 C 0.19126(10) 0.9888(3) 0.4663(6)
C27_15 C 0.21187(9) 0.9990(2) 0.4652(6)
C28_15 C 0.22201(9) 0.9831(3) 0.4293(6)
H18_15 H 0.2165 0.9667 0.4056
C29_15 C 0.24009(10) 0.9914(3) 0.4285(6)
H19_15 H 0.2470 0.9821 0.4033
C52_16 C 0.6805 0.1012 0.0103
C53_16 C 0.6841(3) 0.1466(7) 0.0743(8)
H34_16 H 0.6722 0.1329 0.0771
H35_16 H 0.6915 0.1372 0.0997
H36_16 H 0.6829 0.1795 0.0742
C54_16 C 0.7082(4) 0.1423(16) 0.0135(18)
H38_16 H 0.7088 0.1746 0.0068
H39_16 H 0.7181 0.1338 0.0332
N8_16 N 0.69177(15) 0.1327(3) 0.0351(7)
O7_16 O 0.66703(11) 0.0851(2) 0.0297(6)
O20_8 O 0.63224(7) 0.04896(17) 0.0372(6)
C3_16 C 0.60582(11) 0.3100(3) 0.6334(6)
C5_16 C 0.54602(11) 0.2266(3) 0.7556(6)
H4_16 H 0.5523 0.2265 0.7833
C8_16 C 0.58404(10) 0.2520(3) 0.6880(6)
C9_16 C 0.52738(10) 0.2294(3) 0.7530(6)
H5_16 H 0.5209 0.2298 0.7805
C10_16 C 0.59074(11) 0.3250(3) 0.6558(6)
H6_16 H 0.5870 0.3554 0.6522
C13_16 C 0.64469(8) 0.4223(2) 0.5131(6)
C14_16 C 0.63555(8) 0.3923(2) 0.5462(6)
C15_16 C 0.62865(8) 0.4088(3) 0.5855(6)
H9_16 H 0.6305 0.4396 0.5929
C16_16 C 0.61932(11) 0.3823(3) 0.6139(6)
H10_16 H 0.6149 0.3951 0.6410
C17_16 C 0.61595(10) 0.3371(3) 0.6050(6)
C18_16 C 0.62441(12) 0.3194(3) 0.5664(6)
H11_16 H 0.6234 0.2881 0.5600
C19_16 C 0.63417(9) 0.3468(2) 0.5374(6)
H12_16 H 0.6398 0.3342 0.5117
C22_16 C 0.58085(11) 0.2958(4) 0.6839(6)
H14_16 H 0.5713 0.3083 0.7010
C24_16 C 0.59953(11) 0.2329(3) 0.6639(6)
H16_16 H 0.6024 0.2016 0.6650
C25_16 C 0.60922(12) 0.2619(4) 0.6406(6)
H17_20 H 0.6197 0.2500 0.6268
C26_16 C 0.44126(10) 0.2612(3) 0.7163(6)
C27_16 C 0.46187(9) 0.2510(2) 0.7152(6)
C28_16 C 0.47201(9) 0.2669(3) 0.6793(6)
H18_16 H 0.4665 0.2833 0.6556
C29_16 C 0.49009(10) 0.2586(3) 0.6785(6)
H19_16 H 0.4970 0.2679 0.6533
C30_16 C 0.49849(10) 0.2366(3) 0.7146(6)
C31_16 C 0.48769(9) 0.2216(3) 0.7493(6)
H20_16 H 0.4933 0.2073 0.7742
C32_20 C 0.47010(8) 0.2258(2) 0.7500(6)
H21_16 H 0.4632 0.2123 0.7732
C33_16 C 0.51800(10) 0.2314(3) 0.7146(6)
C34_16 C 0.52827(11) 0.2307(3) 0.6744(6)
H22_16 H 0.5226 0.2322 0.6459
C35_16 C 0.54607(12) 0.2280(4) 0.6773(6)
H23_16 H 0.5527 0.2289 0.6501
C36_16 C 0.55470(10) 0.2242(3) 0.7142(6)
C39_16 C 0.64452(9) 0.0187(2) 0.9173(6)
C40_16 C 0.63325(9) 0.0492(2) 0.8874(6)
C41_16 C 0.62054(10) 0.0326(3) 0.8587(6)
H25_16 H 0.6182 0.0010 0.8575
C42_16 C 0.61144(11) 0.0610(3) 0.8325(6)
H26_16 H 0.6030 0.0481 0.8124
C43_16 C 0.61309(9) 0.1061(3) 0.8317(6)
C44_16 C 0.62652(11) 0.1234(2) 0.8609(6)
H27_16 H 0.6290 0.1549 0.8614
C45_16 C 0.63571(10) 0.0948(3) 0.8880(6)
H28_16 H 0.6442 0.1070 0.9083
C46_16 C 0.60246(10) 0.1355(3) 0.8031(6)
C47_16 C 0.58575(10) 0.1239(3) 0.7843(6)
H29_16 H 0.5805 0.0958 0.7923
C48_16 C 0.57724(10) 0.1503(3) 0.7564(6)
H30_16 H 0.5664 0.1398 0.7437
C49_16 C 0.58327(9) 0.1931(3) 0.7445(6)
C50_16 C 0.59930(10) 0.2075(3) 0.7634(6)
H31_16 H 0.6037 0.2369 0.7567
C51_16 C 0.60905(11) 0.1792(3) 0.7922(6)
H32_16 H 0.6201 0.1893 0.8044
H33_16 H 0.6833 0.0931 0.9802
H37_16 H 0.7089 0.1250 0.9854
N1_16 N 0.57395(8) 0.2201(3) 0.7139(6)
O3_16 O 0.65225(7) 0.03696(18) 0.9498(5)
C55_16 C 0.62913(9) 0.0871(3) 0.0536(6)
C56_16 C 0.61777(9) 0.1194(2) 0.0273(6)
C60_16 C 0.60167(9) 0.1901(3) 0.0209(6)
H44_16 H 0.5977 0.2178 0.0336
C61_16 C 0.61307(9) 0.1610(2) 0.0461(6)
H45_16 H 0.6173 0.1696 0.0749
H49_16 H 0.5689 0.2333 0.0042
C1_16 C 0.6748(2) 0.6649(6) 0.7062(7)
H1_16 H 0.6868 0.6684 0.7160
C2_16 C 0.64193(13) 0.6543(3) 0.6788(6)
H2_16 H 0.6300 0.6515 0.6685
C4_16 C 0.6704(2) 0.6228(6) 0.6846(7)
H3_16 H 0.6786 0.5989 0.6796
C6_16 C 0.66308(14) 0.7014(3) 0.7141(6)
C7_16 C 0.66971(11) 0.7417(3) 0.7384(6)
C11_16 C 0.64654(14) 0.6965(3) 0.7010(6)
H7_16 H 0.6379 0.7195 0.7058
C12_16 C 0.65806(8) 0.8531(2) 0.8911(6)
H8_16 H 0.6500 0.8484 0.9153
C20_16 C 0.67097(8) 0.8279(2) 0.8224(6)
C21_16 C 0.65969(9) 0.8215(2) 0.8605(6)
H13_16 H 0.6533 0.7940 0.8638
C23_16 C 0.68020(8) 0.8672(2) 0.8198(6)
H15_16 H 0.6878 0.8735 0.7951
C37_16 C 0.67797(8) 0.8987(2) 0.8556(6)
H24_16 H 0.6845 0.9262 0.8549
C38_16 C 0.67231(9) 0.7964(3) 0.7849(6)
N2_16 N 0.66706(6) 0.89108(17) 0.8898(5)
N3_16 N 0.66303(7) 0.75857(18) 0.7770(6)
N4_16 N 0.68225(9) 0.7665(2) 0.7221(6)
N5_16 N 0.68379(9) 0.8013(2) 0.7513(6)
N6_16 N 0.64965(7) 0.7391(2) 0.8043(6)
H40_16 H 0.6466 0.7520 0.8297
H41_16 H 0.6444 0.7139 0.7958
N7_16 N 0.65201(10) 0.6215(3) 0.6718(6)
O4_16 O 0.64437(6) 0.97745(16) 0.9074(5)
C57_14 C 0.61196(10) 0.1067(3) 0.9850(6)
H42_14 H 0.6151 0.0781 0.9728
C58_14 C 0.60122(10) 0.1370(3) 0.9604(6)
H43_14 H 0.5972 0.1291 0.9311
C59_14 C 0.59647(10) 0.1781(3) 0.9785(6)
C62_14 C 0.58544(9) 0.2110(3) 0.9516(6)
C63_14 C 0.58871(10) 0.2166(3) 0.9047(6)
H46_14 H 0.5978 0.1996 0.8901
C64_14 C 0.57878(10) 0.2462(3) 0.8815(6)
H47_14 H 0.5810 0.2506 0.8504
C65_14 C 0.56538(9) 0.2705(3) 0.9024(6)
C66_14 C 0.56157(11) 0.2647(3) 0.9466(7)
H48_14 H 0.5519 0.2808 0.9595
C67_14 C 0.57132(9) 0.2363(3) 0.9730(6)
C68_16 C 0.63095(13) 0.5106(3) 0.6932(6)
C69_14 C 0.61923(9) 0.4799(2) 0.7211(6)
C70_14 C 0.60272(10) 0.4733(3) 0.7079(6)
H50_14 H 0.5985 0.4866 0.6809
C71_14 C 0.59092(9) 0.4453(3) 0.7355(6)
H51_14 H 0.5788 0.4420 0.7271
C72_14 C 0.59679(9) 0.4249(2) 0.7711(6)
C73_14 C 0.61513(11) 0.4305(3) 0.7844(6)
H52_14 H 0.6197 0.4164 0.8107
C74_14 C 0.62577(10) 0.4571(3) 0.7575(6)
H53_14 H 0.6381 0.4598 0.7645
C75_14 C 0.58460(10) 0.3942(3) 0.7990(6)
C76_14 C 0.57071(10) 0.3734(3) 0.7816(6)
H54_14 H 0.5673 0.3810 0.7518
C77_14 C 0.56071(10) 0.3407(3) 0.8041(6)
H55_14 H 0.5520 0.3229 0.7889
C78_14 C 0.56399(10) 0.3356(3) 0.8487(6)
C79_14 C 0.57837(13) 0.3597(4) 0.8698(6)
H56_14 H 0.5808 0.3546 0.9007
C80_14 C 0.58813(11) 0.3884(4) 0.8475(6)
H57_14 H 0.5973 0.4050 0.8620
C81_16 C 0.42490(9) 0.2331(3) 0.8555(6)
C82_16 C 0.44439(9) 0.2465(3) 0.8583(6)
C83_16 C 0.45606(11) 0.2182(3) 0.8809(6)
H58_16 H 0.4519 0.1916 0.8953
C84_16 C 0.47412(10) 0.2297(3) 0.8819(6)
H59_16 H 0.4823 0.2104 0.8970
C85_16 C 0.48021(10) 0.2673(3) 0.8622(6)
C86_16 C 0.46880(9) 0.2962(2) 0.8398(6)
H60_16 H 0.4734 0.3226 0.8258
C87_16 C 0.44973(10) 0.2862(3) 0.8377(6)
H61_16 H 0.4415 0.3057 0.8231
C88_16 C 0.49984(11) 0.2784(3) 0.8639(6)
C89_14 C 0.51187(11) 0.2426(3) 0.8721(6)
H62_14 H 0.5075 0.2128 0.8764
C90_14 C 0.52983(10) 0.2507(3) 0.8740(6)
H63_14 H 0.5379 0.2264 0.8785
C91_14 C 0.53627(10) 0.2948(3) 0.8693(6)
C92_14 C 0.52495(11) 0.3289(4) 0.8617(7)
H64_14 H 0.5295 0.3587 0.8587
C93_14 C 0.50603(11) 0.3215(3) 0.8581(6)
H65_16 H 0.4981 0.3457 0.8518
N9_14 N 0.55492(8) 0.3039(3) 0.8752(6)
O12_16 O 0.62593(6) 0.52708(16) 0.6590(5)
O13_16 O 0.64751(6) 0.5183(2) 0.7106(6)
C57_15 C 0.11196(10) 0.6067(3) 0.9850(6)
H42_15 H 0.1151 0.5781 0.9728
C58_15 C 0.10122(10) 0.6370(3) 0.9604(6)
H43_15 H 0.0972 0.6291 0.9311
C59_15 C 0.09647(10) 0.6781(3) 0.9785(6)
C62_15 C 0.08544(9) 0.7110(3) 0.9516(6)
C63_15 C 0.08871(10) 0.7166(3) 0.9047(6)
H46_15 H 0.0978 0.6996 0.8901
C64_15 C 0.07878(10) 0.7462(3) 0.8815(6)
H47_15 H 0.0810 0.7506 0.8504
C65_15 C 0.06538(9) 0.7705(3) 0.9024(6)
C66_15 C 0.06157(11) 0.7647(3) 0.9466(7)
H48_15 H 0.0519 0.7808 0.9595
C67_15 C 0.07132(9) 0.7363(3) 0.9730(6)
C69_15 C 0.11923(9) 0.9799(2) 0.7211(6)
C70_15 C 0.10272(10) 0.9733(3) 0.7079(6)
H50_15 H 0.0985 0.9866 0.6809
C71_15 C 0.09092(9) 0.9453(3) 0.7355(6)
H51_15 H 0.0788 0.9420 0.7271
C72_15 C 0.09679(9) 0.9249(2) 0.7711(6)
C73_15 C 0.11513(11) 0.9305(3) 0.7844(6)
H52_15 H 0.1197 0.9164 0.8107
C74_15 C 0.12577(10) 0.9571(3) 0.7575(6)
H53_15 H 0.1381 0.9598 0.7645
C75_15 C 0.08460(10) 0.8942(3) 0.7990(6)
C76_15 C 0.07071(10) 0.8734(3) 0.7816(6)
H54_15 H 0.0673 0.8810 0.7518
C77_15 C 0.06071(10) 0.8407(3) 0.8041(6)
H55_15 H 0.0520 0.8229 0.7889
C78_15 C 0.06399(10) 0.8356(3) 0.8487(6)
C79_15 C 0.07837(13) 0.8597(4) 0.8698(6)
H56_15 H 0.0808 0.8546 0.9007
C80_15 C 0.08813(11) 0.8884(4) 0.8475(6)
H57_15 H 0.0973 0.9050 0.8620
C89_15 C 0.01187(11) 0.7426(3) 0.8721(6)
H62_15 H 0.0075 0.7128 0.8764
C90_15 C 0.02983(10) 0.7507(3) 0.8740(6)
H63_15 H 0.0379 0.7264 0.8785
C91_15 C 0.03627(10) 0.7948(3) 0.8693(6)
C92_15 C 0.02495(11) 0.8289(4) 0.8617(7)
H64_15 H 0.0295 0.8587 0.8587
C93_15 C 0.00603(11) 0.8215(3) 0.8581(6)
N9_15 N 0.05492(8) 0.8039(3) 0.8752(6)
C57_16 C 0.88804(10) 0.3933(3) 0.9850(6)
H42_16 H 0.8849 0.4219 0.9728
C58_16 C 0.89878(10) 0.3630(3) 0.9604(6)
H43_16 H 0.9028 0.3709 0.9311
C59_16 C 0.90353(10) 0.3219(3) 0.9785(6)
C62_16 C 0.91456(9) 0.2890(3) 0.9516(6)
C63_16 C 0.91129(10) 0.2834(3) 0.9047(6)
H46_16 H 0.9022 0.3004 0.8901
C64_16 C 0.92122(10) 0.2538(3) 0.8815(6)
H47_16 H 0.9190 0.2494 0.8504
C65_16 C 0.93462(9) 0.2295(3) 0.9024(6)
C66_16 C 0.93843(11) 0.2353(3) 0.9466(7)
H48_16 H 0.9481 0.2192 0.9595
C67_16 C 0.92868(9) 0.2637(3) 0.9730(6)
C69_16 C 0.88077(9) 0.0201(2) 0.7211(6)
C70_16 C 0.89728(10) 0.0267(3) 0.7079(6)
H50_16 H 0.9015 0.0134 0.6809
C71_16 C 0.90908(9) 0.0547(3) 0.7355(6)
H51_16 H 0.9212 0.0580 0.7271
C72_16 C 0.90321(9) 0.0751(2) 0.7711(6)
C73_16 C 0.88487(11) 0.0695(3) 0.7844(6)
H52_16 H 0.8803 0.0836 0.8107
C74_16 C 0.87423(10) 0.0429(3) 0.7575(6)
H53_16 H 0.8619 0.0402 0.7645
C75_16 C 0.91540(10) 0.1058(3) 0.7990(6)
C76_16 C 0.92929(10) 0.1266(3) 0.7816(6)
H54_16 H 0.9327 0.1190 0.7518
C77_16 C 0.93929(10) 0.1593(3) 0.8041(6)
H55_16 H 0.9480 0.1771 0.7889
C78_16 C 0.93601(10) 0.1644(3) 0.8487(6)
C79_16 C 0.92163(13) 0.1403(4) 0.8698(6)
H56_16 H 0.9192 0.1454 0.9007
C80_16 C 0.91187(11) 0.1116(4) 0.8475(6)
H57_16 H 0.9027 0.0950 0.8620
C89_16 C 0.98813(11) 0.2574(3) 0.8721(6)
H62_16 H 0.9925 0.2872 0.8764
C90_16 C 0.97017(10) 0.2493(3) 0.8740(6)
H63_16 H 0.9621 0.2736 0.8785
C91_16 C 0.96373(10) 0.2052(3) 0.8693(6)
C92_16 C 0.97505(11) 0.1711(4) 0.8617(7)
H64_16 H 0.9705 0.1413 0.8587
C93_16 C 0.99397(11) 0.1785(3) 0.8581(6)
N9_16 N 0.94508(8) 0.1961(3) 0.8752(6)
loop_
_geom_bond_atom_site_label_1
_geom_bond_atom_site_label_2
_geom_bond_site_symmetry_1
_geom_bond_site_symmetry_2
C3 C10 1_555 1_555
C5 H4 1_555 1_555
C8 C22 1_555 1_555
C9 C5 1_555 1_555
H5 C9 1_555 1_555
C10 H6 1_555 1_555
C12 H8 1_555 1_555
C13 C14 1_555 1_555
C14 C15 1_555 1_555
C15 H9 1_555 1_555
C16 C15 1_555 1_555
H10 C16 1_555 1_555
C17 C3 1_555 1_555
C18 C17 1_555 1_555
H11 C18 1_555 1_555
C19 C14 1_555 1_555
H12 C19 1_555 1_555
C20 C21 1_555 1_555
C21 C12 1_555 1_555
H13 C21 1_555 1_555
C22 C10 1_555 1_555
H14 C22 1_555 1_555
C23 C20 1_555 1_555
H15 C23 1_555 1_555
C24 C8 1_555 1_555
H16 C24 1_555 1_555
C25 C3 1_555 1_555
H17 C25 1_555 1_555
C26 C27 1_555 1_555
C27 C28 1_555 1_555
C28 H18 1_555 1_555
C29 C28 1_555 1_555
H19 C29 1_555 1_555
C30 C29 1_555 1_555
C31 C30 1_555 1_555
H20 C31 1_555 1_555
C32 C27 1_555 1_555
H21 C32 1_555 1_555
C33 C9 1_555 1_555
C34 C33 1_555 1_555
H22 C34 1_555 1_555
C35 C34 1_555 1_555
H23 C35 1_555 1_555
C36 C5 1_555 1_555
C37 C23 1_555 1_555
H24 C37 1_555 1_555
C38 C20 1_555 1_555
C39 C40 1_555 1_555
C40 C41 1_555 1_555
C41 H25 1_555 1_555
C42 C41 1_555 1_555
H26 C42 1_555 1_555
C43 C42 1_555 1_555
C44 C43 1_555 1_555
H27 C44 1_555 1_555
C45 C40 1_555 1_555
H28 C45 1_555 1_555
C46 C43 1_555 1_555
C47 C46 1_555 1_555
H29 C47 1_555 1_555
C48 C47 1_555 1_555
H30 C48 1_555 1_555
C49 C48 1_555 1_555
C50 C49 1_555 1_555
H31 C50 1_555 1_555
C51 C46 1_555 1_555
H32 C51 1_555 1_555
C52 H33 1_555 1_555
C53 H34 1_555 1_555
H35 C53 1_555 1_555
H36 C53 1_555 1_555
C54 H37 1_555 1_555
H38 C54 1_555 1_555
H39 C54 1_555 1_555
N1 C8 1_555 1_555
N2 C12 1_555 1_555
N5 C38 1_555 1_555
N8 C52 1_555 1_555
O1 C13 1_555 1_555
O2 C13 1_555 1_555
O3 C39 1_555 1_555
O4 C39 1_555 1_555
O5 C26 1_555 1_555
O6 C26 1_555 1_555
O7 C52 1_555 1_555
Zn1 N2 1_555 1_555
Zn2 O3 1_555 1_555
O14 Zn1 1_555 1_555
O15 Zn2 1_555 1_555
O16 Zn1 1_555 1_555
O17 Zn2 1_555 1_555
Zn4 O1 1_555 1_555
Zn5 O5 1_555 1_555
Zn7 O2 1_555 1_555
Zn9 O6 1_555 1_555
O18 Zn2 1_555 1_555
O20 Zn2 1_555 1_555
C16 C17 1_555 1_555
C18 C19 1_555 1_555
C24 C25 1_555 1_555
C30 C33 1_555 1_555
C31 C32 1_555 1_555
C35 C36 1_555 1_555
C36 N1 1_555 1_555
C37 N2 1_555 1_555
C38 N3 1_555 1_555
C44 C45 1_555 1_555
C49 N1 1_555 1_555
C50 C51 1_555 1_555
C53 N8 1_555 1_555
C54 N8 1_555 1_555
N4 N5 1_555 1_555
O4 Zn1 1_555 1_555
O7 Zn2 1_555 1_555
C1 H1 1_555 1_555
C2 H2 1_555 1_555
C4 C1 1_555 1_555
H3 C4 1_555 1_555
C6 C1 1_555 1_555
C7 C6 1_555 1_555
C11 C2 1_555 1_555
H7 C11 1_555 1_555
H41 N6 1_555 1_555
N7 C2 1_555 1_555
C55 C56 1_555 1_555
C56 C57 1_555 1_555
C57 H42 1_555 1_555
C58 C57 1_555 1_555
H43 C58 1_555 1_555
C59 C58 1_555 1_555
C60 C59 1_555 1_555
H44 C60 1_555 1_555
C61 C56 1_555 1_555
H45 C61 1_555 1_555
C62 C59 1_555 1_555
C63 C62 1_555 1_555
H46 C63 1_555 1_555
C64 C63 1_555 1_555
H47 C64 1_555 1_555
C65 C64 1_555 1_555
C66 C65 1_555 1_555
H48 C66 1_555 1_555
C67 C62 1_555 1_555
H49 C67 1_555 1_555
C68 C69 1_555 1_555
C69 C70 1_555 1_555
C70 H50 1_555 1_555
C71 C70 1_555 1_555
H51 C71 1_555 1_555
C72 C71 1_555 1_555
C73 C72 1_555 1_555
H52 C73 1_555 1_555
C74 C69 1_555 1_555
H53 C74 1_555 1_555
C75 C72 1_555 1_555
C76 C75 1_555 1_555
H54 C76 1_555 1_555
C77 C76 1_555 1_555
H55 C77 1_555 1_555
C78 C77 1_555 1_555
C79 C78 1_555 1_555
H56 C79 1_555 1_555
C80 C75 1_555 1_555
H57 C80 1_555 1_555
C81 C82 1_555 1_555
C82 C83 1_555 1_555
C83 H58 1_555 1_555
C84 C83 1_555 1_555
H59 C84 1_555 1_555
C85 C84 1_555 1_555
C86 C85 1_555 1_555
H60 C86 1_555 1_555
C87 C82 1_555 1_555
H61 C87 1_555 1_555
C88 C85 1_555 1_555
C89 C88 1_555 1_555
H62 C89 1_555 1_555
C90 C89 1_555 1_555
H63 C90 1_555 1_555
C91 C90 1_555 1_555
C92 C91 1_555 1_555
H64 C92 1_555 1_555
C93 C88 1_555 1_555
H65 C93 1_555 1_555
N9 C65 1_555 1_555
O8 C81 1_555 1_555
O9 C81 1_555 1_555
O20 C55 1_555 1_555
O11 C55 1_555 1_555
O12 C68 1_555 1_555
O13 C68 1_555 1_555
Zn3 N7 1_555 1_555
Zn9 O8 1_555 1_555
O19 Zn3 1_555 1_555
O21 Zn3 1_555 1_555
Zn10 O9 1_555 1_555
Zn11 O11 1_555 1_555
C4 N7 1_555 1_555
C6 C11 1_555 1_555
C60 C61 1_555 1_555
C66 C67 1_555 1_555
C73 C74 1_555 1_555
C78 N9 1_555 1_555
C79 C80 1_555 1_555
C86 C87 1_555 1_555
C91 N9 1_555 1_555
C92 C93 1_555 1_555
O12 Zn3 1_555 1_555
O13 Zn3 1_555 1_555
C55_2 C56_2 1_555 1_555
H44_2 C60_2 1_555 1_555
C61_2 C56_2 1_555 1_555
H45_2 C61_2 1_555 1_555
O10 C55_2 1_555 1_555
O11_2 C55_2 1_555 1_555
Zn6 O10 1_555 1_555
Zn11_2 O11_2 1_555 1_555
C60_2 C61_2 1_555 1_555
C1_2 H1_2 1_555 1_555
C2_2 H2_2 1_555 1_555
C4_2 C1_2 1_555 1_555
H3_2 C4_2 1_555 1_555
C6_2 C1_2 1_555 1_555
C7_2 C6_2 1_555 1_555
C11_2 C2_2 1_555 1_555
H7_2 C11_2 1_555 1_555
C12_2 H8_2 1_555 1_555
C20_2 C21_2 1_555 1_555
C21_2 C12_2 1_555 1_555
H13_2 C21_2 1_555 1_555
C23_2 C20_2 1_555 1_555
H15_2 C23_2 1_555 1_555
C37_2 C23_2 1_555 1_555
H24_2 C37_2 1_555 1_555
C38_2 C20_2 1_555 1_555
N2_2 C12_2 1_555 1_555
N3_2 C7_2 1_555 1_555
N4_2 C7_2 1_555 1_555
N5_2 C38_2 1_555 1_555
N6_2 N3_2 1_555 1_555
H40_2 N6_2 1_555 1_555
H41_2 N6_2 1_555 1_555
N7_2 C2_2 1_555 1_555
Zn1_2 N2_2 1_555 1_555
C57_2 H42_2 1_555 1_555
C58_2 C57_2 1_555 1_555
H43_2 C58_2 1_555 1_555
C59_2 C58_2 1_555 1_555
C62_2 C59_2 1_555 1_555
C63_2 C62_2 1_555 1_555
H46_2 C63_2 1_555 1_555
C64_2 C63_2 1_555 1_555
H47_2 C64_2 1_555 1_555
C65_2 C64_2 1_555 1_555
C66_2 C65_2 1_555 1_555
H48_2 C66_2 1_555 1_555
C67_2 C62_2 1_555 1_555
C68_2 C69_2 1_555 1_555
C69_2 C70_2 1_555 1_555
C70_2 H50_2 1_555 1_555
C71_2 C70_2 1_555 1_555
H51_2 C71_2 1_555 1_555
C72_2 C71_2 1_555 1_555
C73_2 C72_2 1_555 1_555
H52_2 C73_2 1_555 1_555
C74_2 C69_2 1_555 1_555
H53_2 C74_2 1_555 1_555
C75_2 C72_2 1_555 1_555
C76_2 C75_2 1_555 1_555
H54_2 C76_2 1_555 1_555
C77_2 C76_2 1_555 1_555
H55_2 C77_2 1_555 1_555
C78_2 C77_2 1_555 1_555
C79_2 C78_2 1_555 1_555
H56_2 C79_2 1_555 1_555
C80_2 C75_2 1_555 1_555
H57_2 C80_2 1_555 1_555
C81_2 C82_2 1_555 1_555
C82_2 C83_2 1_555 1_555
C83_2 H58_2 1_555 1_555
C84_2 C83_2 1_555 1_555
H59_2 C84_2 1_555 1_555
C85_2 C84_2 1_555 1_555
C86_2 C85_2 1_555 1_555
H60_2 C86_2 1_555 1_555
C87_2 C82_2 1_555 1_555
H61_2 C87_2 1_555 1_555
C88_2 C85_2 1_555 1_555
C89_2 C88_2 1_555 1_555
H62_2 C89_2 1_555 1_555
C90_2 C89_2 1_555 1_555
H63_2 C90_2 1_555 1_555
C91_2 C90_2 1_555 1_555
C92_2 C91_2 1_555 1_555
H64_2 C92_2 1_555 1_555
C93_2 C88_2 1_555 1_555
H65_2 C93_2 1_555 1_555
N9_2 C65_2 1_555 1_555
O8_2 C81_2 1_555 1_555
O9_2 C81_2 1_555 1_555
O12_2 C68_2 1_555 1_555
O13_2 C68_2 1_555 1_555
Zn10 N7_2 1_555 1_555
O14_2 Zn1_2 1_555 1_555
O16_2 Zn1_2 1_555 1_555
Zn8 O8_2 1_555 1_555
O21_2 Zn10 1_555 1_555
Zn10_2 O9_2 1_555 1_555
C4_2 N7_2 1_555 1_555
C6_2 C11_2 1_555 1_555
C37_2 N2_2 1_555 1_555
C38_2 N3_2 1_555 1_555
N4_2 N5_2 1_555 1_555
O4_2 Zn1_2 1_555 1_555
C66_2 C67_2 1_555 1_555
C73_2 C74_2 1_555 1_555
C78_2 N9_2 1_555 1_555
C79_2 C80_2 1_555 1_555
C86_2 C87_2 1_555 1_555
C91_2 N9_2 1_555 1_555
C92_2 C93_2 1_555 1_555
O12_2 Zn10 1_555 1_555
O13_2 Zn10 1_555 1_555
C53_2 H34_2 1_555 1_555
H35_2 C53_2 1_555 1_555
H36_2 C53_2 1_555 1_555
H38_2 C54_2 1_555 1_555
H39_2 C54_2 1_555 1_555
N8_2 C52_2 1_555 1_555
O7_2 C52_2 1_555 1_555
C53_2 N8_2 1_555 1_555
C54_2 N8_2 1_555 1_555
O7_2 Zn6 1_555 1_555
C3_2 C10_2 1_555 1_555
C5_2 H4_2 1_555 1_555
C8_2 C22_2 1_555 1_555
C9_2 C5_2 1_555 1_555
H5_2 C9_2 1_555 1_555
C10_2 H6_2 1_555 1_555
C13_2 C14_2 1_555 1_555
C14_2 C15_2 1_555 1_555
C15_2 H9_2 1_555 1_555
C16_2 C15_2 1_555 1_555
H10_2 C16_2 1_555 1_555
C17_2 C3_2 1_555 1_555
C18_2 C17_2 1_555 1_555
H11_2 C18_2 1_555 1_555
C19_2 C14_2 1_555 1_555
H12_2 C19_2 1_555 1_555
C22_2 C10_2 1_555 1_555
H14_2 C22_2 1_555 1_555
C24_2 C8_2 1_555 1_555
H16_2 C24_2 1_555 1_555
C25_2 C3_2 1_555 1_555
H17_2 C25_2 1_555 1_555
C26_2 C27_2 1_555 1_555
C27_2 C28_2 1_555 1_555
C28_2 H18_2 1_555 1_555
C29_2 C28_2 1_555 1_555
H19_2 C29_2 1_555 1_555
C30_2 C29_2 1_555 1_555
C31_2 C30_2 1_555 1_555
H20_2 C31_2 1_555 1_555
C32_2 C27_2 1_555 1_555
H21_2 C32_2 1_555 1_555
C33_2 C9_2 1_555 1_555
C34_2 C33_2 1_555 1_555
H22_2 C34_2 1_555 1_555
C35_2 C34_2 1_555 1_555
H23_2 C35_2 1_555 1_555
C36_2 C5_2 1_555 1_555
C39_2 C40_2 1_555 1_555
C40_2 C41_2 1_555 1_555
C41_2 H25_2 1_555 1_555
C42_2 C41_2 1_555 1_555
H26_2 C42_2 1_555 1_555
C43_2 C42_2 1_555 1_555
C44_2 C43_2 1_555 1_555
H27_2 C44_2 1_555 1_555
C45_2 C40_2 1_555 1_555
H28_2 C45_2 1_555 1_555
C46_2 C43_2 1_555 1_555
C47_2 C46_2 1_555 1_555
H29_2 C47_2 1_555 1_555
C48_2 C47_2 1_555 1_555
H30_2 C48_2 1_555 1_555
C49_2 C48_2 1_555 1_555
C50_2 C49_2 1_555 1_555
H31_2 C50_2 1_555 1_555
C51_2 C46_2 1_555 1_555
H32_2 C51_2 1_555 1_555
N1_2 C8_2 1_555 1_555
O1_2 C13_2 1_555 1_555
O2_2 C13_2 1_555 1_555
O3_2 C39_2 1_555 1_555
O5_2 C26_2 1_555 1_555
O6_2 C26_2 1_555 1_555
Zn5 O1_2 1_555 1_555
Zn5_2 O5_2 1_555 1_555
Zn9 O2_2 1_555 1_555
Zn8 O6_2 1_555 1_555
C16_2 C17_2 1_555 1_555
C18_2 C19_2 1_555 1_555
C24_2 C25_2 1_555 1_555
C30_2 C33_2 1_555 1_555
C31_2 C32_2 1_555 1_555
C35_2 C36_2 1_555 1_555
C36_2 N1_2 1_555 1_555
C44_2 C45_2 1_555 1_555
C49_2 N1_2 1_555 1_555
C50_2 C51_2 1_555 1_555
C3_3 C10_3 1_555 1_555
C8_3 C22_3 1_555 1_555
C10_3 H6_3 1_555 1_555
C13_3 C14_3 1_555 1_555
C14_3 C15_3 1_555 1_555
C15_3 H9_3 1_555 1_555
C16_3 C15_3 1_555 1_555
H10_3 C16_3 1_555 1_555
C17_3 C3_3 1_555 1_555
C18_3 C17_3 1_555 1_555
H11_3 C18_3 1_555 1_555
C19_3 C14_3 1_555 1_555
H12_3 C19_3 1_555 1_555
C22_3 C10_3 1_555 1_555
H14_3 C22_3 1_555 1_555
C25_3 C3_3 1_555 1_555
H17_3 C25_3 1_555 1_555
C26_3 C27_3 1_555 1_555
C27_3 C28_3 1_555 1_555
C28_3 H18_3 1_555 1_555
C29_3 C28_3 1_555 1_555
H19_3 C29_3 1_555 1_555
O14 C13_3 1_555 1_555
O15 C13_3 1_555 1_555
O16_2 C26_3 1_555 1_555
C16_3 C17_3 1_555 1_555
C18_3 C19_3 1_555 1_555
C5_3 H4_3 1_555 1_555
C9_3 C5_3 1_555 1_555
H5_3 C9_3 1_555 1_555
C12_3 H8_3 1_555 1_555
C20_3 C21_3 1_555 1_555
C21_3 C12_3 1_555 1_555
H13_3 C21_3 1_555 1_555
C23_3 C20_3 1_555 1_555
H15_3 C23_3 1_555 1_555
H21_3 C32_3 1_555 1_555
C37_3 C23_3 1_555 1_555
H24_3 C37_3 1_555 1_555
C38_3 C20_3 1_555 1_555
C39_3 C40_3 1_555 1_555
C40_3 C41_3 1_555 1_555
C41_3 H25_3 1_555 1_555
C42_3 C41_3 1_555 1_555
H26_3 C42_3 1_555 1_555
C43_3 C42_3 1_555 1_555
C44_3 C43_3 1_555 1_555
H27_3 C44_3 1_555 1_555
C45_3 C40_3 1_555 1_555
H28_3 C45_3 1_555 1_555
C46_3 C43_3 1_555 1_555
C47_3 C46_3 1_555 1_555
H29_3 C47_3 1_555 1_555
C48_3 C47_3 1_555 1_555
H31_3 C50_3 1_555 1_555
C51_3 C46_3 1_555 1_555
H32_3 C51_3 1_555 1_555
C52_3 H33_3 1_555 1_555
C53_3 H34_3 1_555 1_555
H35_3 C53_3 1_555 1_555
H36_3 C53_3 1_555 1_555
C54_3 H37_3 1_555 1_555
H38_3 C54_3 1_555 1_555
H39_3 C54_3 1_555 1_555
N2_3 C12_3 1_555 1_555
N5_3 C38_3 1_555 1_555
N6_3 N3_3 1_555 1_555
H40_3 N6_3 1_555 1_555
H41_3 N6_3 1_555 1_555
N8_3 C52_3 1_555 1_555
O3_3 C39_3 1_555 1_555
O4_3 C39_3 1_555 1_555
O7_3 C52_3 1_555 1_555
Zn4 N2_3 1_555 1_555
Zn7 O3_3 1_555 1_555
C66_3 C65_3 1_555 1_555
H48_3 C66_3 1_555 1_555
C73_3 C72_3 1_555 1_555
H52_3 C73_3 1_555 1_555
H53_3 C74_3 1_555 1_555
C75_3 C72_3 1_555 1_555
C76_3 C75_3 1_555 1_555
H54_3 C76_3 1_555 1_555
C77_3 C76_3 1_555 1_555
H55_3 C77_3 1_555 1_555
C78_3 C77_3 1_555 1_555
C79_3 C78_3 1_555 1_555
H56_3 C79_3 1_555 1_555
C80_3 C75_3 1_555 1_555
H57_3 C80_3 1_555 1_555
C86_3 C85_3 1_555 1_555
H60_3 C86_3 1_555 1_555
H61_3 C87_3 1_555 1_555
C88_3 C85_3 1_555 1_555
C91_3 C90_3 1_555 1_555
C92_3 C91_3 1_555 1_555
H64_3 C92_3 1_555 1_555
C93_3 C88_3 1_555 1_555
H65_3 C93_3 1_555 1_555
N9_3 C65_3 1_555 1_555
O16_3 Zn4 1_555 1_555
O17_3 Zn7 1_555 1_555
O18_3 Zn7 1_555 1_555
O20_2 Zn7 1_555 1_555
C37_3 N2_3 1_555 1_555
C38_3 N3_3 1_555 1_555
C44_3 C45_3 1_555 1_555
C50_3 C51_3 1_555 1_555
C53_3 N8_3 1_555 1_555
C54_3 N8_3 1_555 1_555
O4_3 Zn4 1_555 1_555
O7_3 Zn7 1_555 1_555
C73_3 C74_3 1_555 1_555
C78_3 N9_3 1_555 1_555
C79_3 C80_3 1_555 1_555
C86_3 C87_3 1_555 1_555
C91_3 N9_3 1_555 1_555
C92_3 C93_3 1_555 1_555
C1_3 H1_3 1_555 1_555
C2_3 H2_3 1_555 1_555
C4_3 C1_3 1_555 1_555
H3_3 C4_3 1_555 1_555
C6_3 C1_3 1_555 1_555
C7_3 C6_3 1_555 1_555
C11_3 C2_3 1_555 1_555
H7_3 C11_3 1_555 1_555
H16_3 C24_3 1_555 1_555
C31_3 C30_3 1_555 1_555
C34_3 C33_3 1_555 1_555
H22_3 C34_3 1_555 1_555
C35_3 C34_3 1_555 1_555
H23_3 C35_3 1_555 1_555
N4_3 C7_3 1_555 1_555
N7_3 C2_3 1_555 1_555
C68_3 C69_3 1_555 1_555
C69_3 C70_3 1_555 1_555
C70_3 H50_3 1_555 1_555
C71_3 C70_3 1_555 1_555
H51_3 C71_3 1_555 1_555
O12_3 C68_3 1_555 1_555
O13_3 C68_3 1_555 1_555
Zn11 N7_3 1_555 1_555
O19_2 Zn11 1_555 1_555
C4_3 N7_3 1_555 1_555
C6_3 C11_3 1_555 1_555
C30_3 C33_3 1_555 1_555
C31_3 C32_4 1_555 1_555
C35_3 C36_3 1_555 1_555
C36_3 N1_3 1_555 1_555
C49_3 N1_3 1_555 1_555
O12_3 Zn11 1_555 1_555
O13_3 Zn11 1_555 1_555
C55_3 C56_3 1_555 1_555
C56_3 C57_3 1_555 1_555
C57_3 H42_3 1_555 1_555
C58_3 C57_3 1_555 1_555
H43_3 C58_3 1_555 1_555
C59_3 C58_3 1_555 1_555
C60_3 C59_3 1_555 1_555
H44_3 C60_3 1_555 1_555
C61_3 C56_3 1_555 1_555
H45_3 C61_3 1_555 1_555
C62_3 C59_3 1_555 1_555
C63_3 C62_3 1_555 1_555
H46_3 C63_3 1_555 1_555
C64_3 C63_3 1_555 1_555
C67_3 C62_3 1_555 1_555
H49_3 C67_3 1_555 1_555
C81_3 C82_3 1_555 1_555
C82_3 C83_3 1_555 1_555
C83_3 H58_3 1_555 1_555
C84_3 C83_3 1_555 1_555
H59_3 C84_3 1_555 1_555
H62_3 C89_3 1_555 1_555
O9_3 C81_3 1_555 1_555
O20_2 C55_3 1_555 1_555
O21 C55_3 1_555 1_555
Zn11_2 O9_3 1_555 1_555
C60_3 C61_3 1_555 1_555
C55_4 C56_4 1_555 1_555
C56_4 C57_4 1_555 1_555
C57_4 H42_4 1_555 1_555
C58_4 C57_4 1_555 1_555
H43_4 C58_4 1_555 1_555
C59_4 C58_4 1_555 1_555
C60_4 C59_4 1_555 1_555
H44_4 C60_4 1_555 1_555
C61_4 C56_4 1_555 1_555
H45_4 C61_4 1_555 1_555
C62_4 C59_4 1_555 1_555
C63_4 C62_4 1_555 1_555
H46_4 C63_4 1_555 1_555
C64_4 C63_4 1_555 1_555
H47_4 C64_4 1_555 1_555
C65_4 C64_4 1_555 1_555
C66_4 C65_4 1_555 1_555
H48_4 C66_4 1_555 1_555
C67_4 C62_4 1_555 1_555
H49_4 C67_4 1_555 1_555
C69_4 C70_4 1_555 1_555
C70_4 H50_4 1_555 1_555
C71_4 C70_4 1_555 1_555
H51_4 C71_4 1_555 1_555
C72_4 C71_4 1_555 1_555
C73_4 C72_4 1_555 1_555
H52_4 C73_4 1_555 1_555
C74_4 C69_4 1_555 1_555
H53_4 C74_4 1_555 1_555
C75_4 C72_4 1_555 1_555
C76_4 C75_4 1_555 1_555
H54_4 C76_4 1_555 1_555
C77_4 C76_4 1_555 1_555
H55_4 C77_4 1_555 1_555
C78_4 C77_4 1_555 1_555
C79_4 C78_4 1_555 1_555
H56_4 C79_4 1_555 1_555
C80_4 C75_4 1_555 1_555
H57_4 C80_4 1_555 1_555
C81_4 C82_4 1_555 1_555
C82_4 C83_4 1_555 1_555
C83_4 H58_4 1_555 1_555
C84_4 C83_4 1_555 1_555
H59_4 C84_4 1_555 1_555
C85_4 C84_4 1_555 1_555
C86_4 C85_4 1_555 1_555
H60_4 C86_4 1_555 1_555
C87_4 C82_4 1_555 1_555
H61_4 C87_4 1_555 1_555
C88_4 C85_4 1_555 1_555
C89_4 C88_4 1_555 1_555
H62_4 C89_4 1_555 1_555
C90_4 C89_4 1_555 1_555
H63_4 C90_4 1_555 1_555
C91_4 C90_4 1_555 1_555
C92_4 C91_4 1_555 1_555
H64_4 C92_4 1_555 1_555
C93_4 C88_4 1_555 1_555
H65_4 C93_4 1_555 1_555
N9_4 C65_4 1_555 1_555
O8_3 C81_4 1_555 1_555
O9_4 C81_4 1_555 1_555
O10_2 C55_4 1_555 1_555
O21_2 C55_4 1_555 1_555
Zn9 O10_2 1_555 1_555
Zn8_2 O8_3 1_555 1_555
Zn10_3 O9_4 1_555 1_555
C60_4 C61_4 1_555 1_555
C66_4 C67_4 1_555 1_555
C73_4 C74_4 1_555 1_555
C78_4 N9_4 1_555 1_555
C79_4 C80_4 1_555 1_555
C86_4 C87_4 1_555 1_555
C91_4 N9_4 1_555 1_555
C92_4 C93_4 1_555 1_555
C1_4 H1_4 1_555 1_555
C2_4 H2_4 1_555 1_555
C3_4 C10_4 1_555 1_555
C4_4 C1_4 1_555 1_555
H3_4 C4_4 1_555 1_555
C5_4 H4_4 1_555 1_555
C6_4 C1_4 1_555 1_555
C7_4 C6_4 1_555 1_555
C8_4 C22_4 1_555 1_555
C9_4 C5_4 1_555 1_555
H5_4 C9_4 1_555 1_555
C10_4 H6_4 1_555 1_555
C11_4 C2_4 1_555 1_555
H7_4 C11_4 1_555 1_555
C12_4 H8_4 1_555 1_555
C13_4 C14_4 1_555 1_555
C14_4 C15_4 1_555 1_555
C15_4 H9_4 1_555 1_555
C16_4 C15_4 1_555 1_555
H10_4 C16_4 1_555 1_555
C17_4 C3_4 1_555 1_555
C18_4 C17_4 1_555 1_555
H11_4 C18_4 1_555 1_555
C19_4 C14_4 1_555 1_555
H12_4 C19_4 1_555 1_555
C20_4 C21_4 1_555 1_555
C21_4 C12_4 1_555 1_555
H13_4 C21_4 1_555 1_555
C22_4 C10_4 1_555 1_555
H14_4 C22_4 1_555 1_555
C23_4 C20_4 1_555 1_555
H15_4 C23_4 1_555 1_555
C24_4 C8_4 1_555 1_555
H16_4 C24_4 1_555 1_555
C25_4 C3_4 1_555 1_555
H17_5 C25_4 1_555 1_555
C26_4 C27_4 1_555 1_555
C27_4 C28_4 1_555 1_555
C28_4 H18_4 1_555 1_555
C29_4 C28_4 1_555 1_555
H19_4 C29_4 1_555 1_555
C30_4 C29_4 1_555 1_555
C31_4 C30_4 1_555 1_555
H20_4 C31_4 1_555 1_555
C32_5 C27_4 1_555 1_555
H21_4 C32_5 1_555 1_555
C33_4 C9_4 1_555 1_555
C34_4 C33_4 1_555 1_555
H22_4 C34_4 1_555 1_555
C35_4 C34_4 1_555 1_555
H23_4 C35_4 1_555 1_555
C36_4 C5_4 1_555 1_555
C37_4 C23_4 1_555 1_555
H24_4 C37_4 1_555 1_555
C38_4 C20_4 1_555 1_555
C39_4 C40_4 1_555 1_555
C40_4 C41_4 1_555 1_555
C41_4 H25_4 1_555 1_555
C42_4 C41_4 1_555 1_555
H26_4 C42_4 1_555 1_555
C43_4 C42_4 1_555 1_555
C44_4 C43_4 1_555 1_555
H27_4 C44_4 1_555 1_555
C45_4 C40_4 1_555 1_555
H28_4 C45_4 1_555 1_555
C46_4 C43_4 1_555 1_555
C47_4 C46_4 1_555 1_555
H29_4 C47_4 1_555 1_555
C48_4 C47_4 1_555 1_555
H30_4 C48_4 1_555 1_555
C49_4 C48_4 1_555 1_555
C50_4 C49_4 1_555 1_555
H31_4 C50_4 1_555 1_555
C51_4 C46_4 1_555 1_555
H32_4 C51_4 1_555 1_555
C52_4 H33_4 1_555 1_555
C53_4 H34_4 1_555 1_555
H35_4 C53_4 1_555 1_555
H36_4 C53_4 1_555 1_555
C54_4 H37_4 1_555 1_555
H38_4 C54_4 1_555 1_555
H39_4 C54_4 1_555 1_555
N1_4 C8_4 1_555 1_555
N2_4 C12_4 1_555 1_555
N3_4 C7_4 1_555 1_555
N4_4 C7_4 1_555 1_555
N5_4 C38_4 1_555 1_555
N6_4 N3_4 1_555 1_555
H40_4 N6_4 1_555 1_555
H41_4 N6_4 1_555 1_555
N7_4 C2_4 1_555 1_555
N8_4 C52_4 1_555 1_555
O15_2 C13_4 1_555 1_555
O3_4 C39_4 1_555 1_555
O4_4 C39_4 1_555 1_555
O5_3 C26_4 1_555 1_555
O6_3 C26_4 1_555 1_555
O7_4 C52_4 1_555 1_555
Zn5 N2_4 1_555 1_555
Zn9 O3_4 1_555 1_555
O12_4 C68_4 1_555 1_555
O13_4 C68_4 1_555 1_555
Zn11_2 N7_4 1_555 1_555
Zn5_3 O5_3 1_555 1_555
Zn8_2 O6_3 1_555 1_555
C4_4 N7_4 1_555 1_555
C6_4 C11_4 1_555 1_555
C16_4 C17_4 1_555 1_555
C18_4 C19_4 1_555 1_555
C24_4 C25_4 1_555 1_555
C30_4 C33_4 1_555 1_555
C31_4 C32_5 1_555 1_555
C35_4 C36_4 1_555 1_555
C36_4 N1_4 1_555 1_555
C37_4 N2_4 1_555 1_555
C38_4 N3_4 1_555 1_555
C44_4 C45_4 1_555 1_555
C49_4 N1_4 1_555 1_555
C50_4 C51_4 1_555 1_555
C53_4 N8_4 1_555 1_555
C54_4 N8_4 1_555 1_555
N4_4 N5_4 1_555 1_555
O4_4 Zn5 1_555 1_555
O7_4 Zn9 1_555 1_555
O12_4 Zn11_2 1_555 1_555
O13_4 Zn11_2 1_555 1_555
C5_5 H4_5 1_555 1_555
C9_5 C5_5 1_555 1_555
H5_5 C9_5 1_555 1_555
C12_5 H8_5 1_555 1_555
C20_5 C21_5 1_555 1_555
C21_5 C12_5 1_555 1_555
H13_5 C21_5 1_555 1_555
C23_5 C20_5 1_555 1_555
H15_5 C23_5 1_555 1_555
H21_5 C32_6 1_555 1_555
C37_5 C23_5 1_555 1_555
H24_5 C37_5 1_555 1_555
C38_5 C20_5 1_555 1_555
C39_5 C40_5 1_555 1_555
C40_5 C41_5 1_555 1_555
C41_5 H25_5 1_555 1_555
C42_5 C41_5 1_555 1_555
H26_5 C42_5 1_555 1_555
C43_5 C42_5 1_555 1_555
C44_5 C43_5 1_555 1_555
H27_5 C44_5 1_555 1_555
C45_5 C40_5 1_555 1_555
H28_5 C45_5 1_555 1_555
C46_5 C43_5 1_555 1_555
C47_5 C46_5 1_555 1_555
H29_5 C47_5 1_555 1_555
C48_5 C47_5 1_555 1_555
H31_5 C50_5 1_555 1_555
C51_5 C46_5 1_555 1_555
H32_5 C51_5 1_555 1_555
C52_5 H33_5 1_555 1_555
C53_5 H34_5 1_555 1_555
H35_5 C53_5 1_555 1_555
H36_5 C53_5 1_555 1_555
C54_5 H37_5 1_555 1_555
H38_5 C54_5 1_555 1_555
H39_5 C54_5 1_555 1_555
N2_5 C12_5 1_555 1_555
N5_5 C38_5 1_555 1_555
N8_5 C52_5 1_555 1_555
O3_5 C39_5 1_555 1_555
O4_5 C39_5 1_555 1_555
O7_5 C52_5 1_555 1_555
Zn5_3 N2_5 1_555 1_555
Zn8_2 O3_5 1_555 1_555
O14_3 Zn5_3 1_555 1_555
O15_3 Zn8_2 1_555 1_555
O20_3 Zn8_2 1_555 1_555
C37_5 N2_5 1_555 1_555
C38_5 N3_5 1_555 1_555
C44_5 C45_5 1_555 1_555
C50_5 C51_5 1_555 1_555
C53_5 N8_5 1_555 1_555
C54_5 N8_5 1_555 1_555
O4_5 Zn5_3 1_555 1_555
O7_5 Zn8_2 1_555 1_555
C3_5 C10_5 1_555 1_555
C8_5 C22_5 1_555 1_555
C10_5 H6_5 1_555 1_555
C13_5 C14_5 1_555 1_555
C14_5 C15_5 1_555 1_555
C15_5 H9_5 1_555 1_555
C16_5 C15_5 1_555 1_555
H10_5 C16_5 1_555 1_555
C17_5 C3_5 1_555 1_555
C18_5 C17_5 1_555 1_555
H11_5 C18_5 1_555 1_555
C19_5 C14_5 1_555 1_555
H12_5 C19_5 1_555 1_555
C22_5 C10_5 1_555 1_555
H14_5 C22_5 1_555 1_555
C24_5 C8_5 1_555 1_555
H16_5 C24_5 1_555 1_555
C25_5 C3_5 1_555 1_555
H17_6 C25_5 1_555 1_555
C26_5 C27_5 1_555 1_555
C27_5 C28_5 1_555 1_555
C28_5 H18_5 1_555 1_555
C29_5 C28_5 1_555 1_555
H19_5 C29_5 1_555 1_555
C30_5 C29_5 1_555 1_555
C31_5 C30_5 1_555 1_555
C32_7 C27_5 1_555 1_555
C34_5 C33_5 1_555 1_555
H22_5 C34_5 1_555 1_555
C35_5 C34_5 1_555 1_555
H23_5 C35_5 1_555 1_555
N1_5 C8_5 1_555 1_555
O1_3 C13_5 1_555 1_555
O2_3 C13_5 1_555 1_555
O5_4 C26_5 1_555 1_555
O6_4 C26_5 1_555 1_555
Zn5_2 O1_3 1_555 1_555
Zn5_4 O5_4 1_555 1_555
Zn8 O2_3 1_555 1_555
C16_5 C17_5 1_555 1_555
C18_5 C19_5 1_555 1_555
C24_5 C25_5 1_555 1_555
C30_5 C33_5 1_555 1_555
C31_5 C32_7 1_555 1_555
C35_5 C36_5 1_555 1_555
C36_5 N1_5 1_555 1_555
C49_5 N1_5 1_555 1_555
H41_5 N6_5 1_555 1_555
C55_5 C56_5 1_555 1_555
C56_5 C57_5 1_555 1_555
C57_5 H42_5 1_555 1_555
C58_5 C57_5 1_555 1_555
H43_5 C58_5 1_555 1_555
C59_5 C58_5 1_555 1_555
C60_5 C59_5 1_555 1_555
H44_5 C60_5 1_555 1_555
C61_5 C56_5 1_555 1_555
H45_5 C61_5 1_555 1_555
C62_5 C59_5 1_555 1_555
C63_5 C62_5 1_555 1_555
H46_5 C63_5 1_555 1_555
C64_5 C63_5 1_555 1_555
H47_5 C64_5 1_555 1_555
C65_5 C64_5 1_555 1_555
C66_5 C65_5 1_555 1_555
H48_5 C66_5 1_555 1_555
C67_5 C62_5 1_555 1_555
H49_5 C67_5 1_555 1_555
C73_5 C72_5 1_555 1_555
H52_5 C73_5 1_555 1_555
H53_5 C74_5 1_555 1_555
C75_5 C72_5 1_555 1_555
C76_5 C75_5 1_555 1_555
H54_5 C76_5 1_555 1_555
C77_5 C76_5 1_555 1_555
H55_5 C77_5 1_555 1_555
C78_5 C77_5 1_555 1_555
C79_5 C78_5 1_555 1_555
H56_5 C79_5 1_555 1_555
C80_5 C75_5 1_555 1_555
H57_5 C80_5 1_555 1_555
C81_5 C82_5 1_555 1_555
C82_5 C83_5 1_555 1_555
C83_5 H58_5 1_555 1_555
C84_5 C83_5 1_555 1_555
H59_5 C84_5 1_555 1_555
C85_5 C84_5 1_555 1_555
C86_5 C85_5 1_555 1_555
H60_5 C86_5 1_555 1_555
C87_5 C82_5 1_555 1_555
H61_5 C87_5 1_555 1_555
C88_5 C85_5 1_555 1_555
C89_5 C88_5 1_555 1_555
H62_5 C89_5 1_555 1_555
C90_5 C89_5 1_555 1_555
H63_5 C90_5 1_555 1_555
C91_5 C90_5 1_555 1_555
C92_5 C91_5 1_555 1_555
H64_5 C92_5 1_555 1_555
C93_5 C88_5 1_555 1_555
H65_5 C93_5 1_555 1_555
N9_5 C65_5 1_555 1_555
O8_4 C81_5 1_555 1_555
O9_5 C81_5 1_555 1_555
O20_3 C55_5 1_555 1_555
O11_3 C55_5 1_555 1_555
Zn9_2 O8_4 1_555 1_555
Zn10_4 O9_5 1_555 1_555
Zn10_3 O11_3 1_555 1_555
C60_5 C61_5 1_555 1_555
C66_5 C67_5 1_555 1_555
C73_5 C74_5 1_555 1_555
C78_5 N9_5 1_555 1_555
C79_5 C80_5 1_555 1_555
C86_5 C87_5 1_555 1_555
C91_5 N9_5 1_555 1_555
C92_5 C93_5 1_555 1_555
C1_5 H1_5 1_555 1_555
C2_5 H2_5 1_555 1_555
C4_5 C1_5 1_555 1_555
H3_5 C4_5 1_555 1_555
C6_5 C1_5 1_555 1_555
C7_5 C6_5 1_555 1_555
C11_5 C2_5 1_555 1_555
H7_5 C11_5 1_555 1_555
N7_5 C2_5 1_555 1_555
C68_5 C69_5 1_555 1_555
C69_5 C70_5 1_555 1_555
C70_5 H50_5 1_555 1_555
C71_5 C70_5 1_555 1_555
H51_5 C71_5 1_555 1_555
O12_5 C68_5 1_555 1_555
O13_5 C68_5 1_555 1_555
Zn10_2 N7_5 1_555 1_555
O21_3 Zn10_2 1_555 1_555
C4_5 N7_5 1_555 1_555
C6_5 C11_5 1_555 1_555
O12_5 Zn10_2 1_555 1_555
O13_5 Zn10_2 1_555 1_555
C81_6 C82_6 1_555 1_555
C82_6 C83_6 1_555 1_555
C83_6 H58_6 1_555 1_555
C84_6 C83_6 1_555 1_555
H59_6 C84_6 1_555 1_555
C85_6 C84_6 1_555 1_555
C86_6 C85_6 1_555 1_555
H60_6 C86_6 1_555 1_555
C87_6 C82_6 1_555 1_555
H61_6 C87_6 1_555 1_555
C88_6 C85_6 1_555 1_555
O18_3 C81_6 1_555 1_555
O19 C81_6 1_555 1_555
C86_6 C87_6 1_555 1_555
C26_6 C27_6 1_555 1_555
C27_6 C28_6 1_555 1_555
C28_6 H18_6 1_555 1_555
C29_6 C28_6 1_555 1_555
H19_6 C29_6 1_555 1_555
C30_6 C29_6 1_555 1_555
C31_6 C30_6 1_555 1_555
H20_6 C31_6 1_555 1_555
C32_8 C27_6 1_555 1_555
H21_6 C32_8 1_555 1_555
O16_3 C26_6 1_555 1_555
O17_3 C26_6 1_555 1_555
C31_6 C32_8 1_555 1_555
C1_6 H1_6 1_555 1_555
C2_6 H2_6 1_555 1_555
C4_6 C1_6 1_555 1_555
H3_6 C4_6 1_555 1_555
C6_6 C1_6 1_555 1_555
C7_6 C6_6 1_555 1_555
C11_6 C2_6 1_555 1_555
H7_6 C11_6 1_555 1_555
C12_6 H8_6 1_555 1_555
C20_6 C21_6 1_555 1_555
C21_6 C12_6 1_555 1_555
H13_6 C21_6 1_555 1_555
C23_6 C20_6 1_555 1_555
H15_6 C23_6 1_555 1_555
C37_6 C23_6 1_555 1_555
H24_6 C37_6 1_555 1_555
C38_6 C20_6 1_555 1_555
N2_6 C12_6 1_555 1_555
N3_6 C7_6 1_555 1_555
N4_6 C7_6 1_555 1_555
N5_6 C38_6 1_555 1_555
N6_6 N3_6 1_555 1_555
H40_6 N6_6 1_555 1_555
H41_6 N6_6 1_555 1_555
N7_6 C2_6 1_555 1_555
Zn1_3 N2_6 1_555 1_555
C55_6 C56_6 1_555 1_555
C56_6 C57_6 1_555 1_555
C57_6 H42_6 1_555 1_555
C58_6 C57_6 1_555 1_555
H43_6 C58_6 1_555 1_555
C59_6 C58_6 1_555 1_555
C60_6 C59_6 1_555 1_555
H44_6 C60_6 1_555 1_555
C61_6 C56_6 1_555 1_555
H45_6 C61_6 1_555 1_555
C62_6 C59_6 1_555 1_555
C63_6 C62_6 1_555 1_555
H46_6 C63_6 1_555 1_555
C64_6 C63_6 1_555 1_555
H47_6 C64_6 1_555 1_555
C65_6 C64_6 1_555 1_555
C66_6 C65_6 1_555 1_555
H48_6 C66_6 1_555 1_555
C67_6 C62_6 1_555 1_555
H49_6 C67_6 1_555 1_555
C68_6 C69_6 1_555 1_555
C69_6 C70_6 1_555 1_555
C70_6 H50_6 1_555 1_555
C71_6 C70_6 1_555 1_555
H51_6 C71_6 1_555 1_555
C72_6 C71_6 1_555 1_555
C73_6 C72_6 1_555 1_555
H52_6 C73_6 1_555 1_555
C74_6 C69_6 1_555 1_555
H53_6 C74_6 1_555 1_555
C75_6 C72_6 1_555 1_555
C76_6 C75_6 1_555 1_555
H54_6 C76_6 1_555 1_555
C77_6 C76_6 1_555 1_555
H55_6 C77_6 1_555 1_555
C78_6 C77_6 1_555 1_555
C79_6 C78_6 1_555 1_555
H56_6 C79_6 1_555 1_555
C80_6 C75_6 1_555 1_555
H57_6 C80_6 1_555 1_555
H62_6 C89_6 1_555 1_555
C90_6 C89_6 1_555 1_555
H63_6 C90_6 1_555 1_555
C91_6 C90_6 1_555 1_555
C92_6 C91_6 1_555 1_555
H64_6 C92_6 1_555 1_555
N9_6 C65_6 1_555 1_555
O10_3 C55_6 1_555 1_555
O11_4 C55_6 1_555 1_555
O12_6 C68_6 1_555 1_555
O13_6 C68_6 1_555 1_555
Zn10_4 N7_6 1_555 1_555
O14_4 Zn1_3 1_555 1_555
O16_4 Zn1_3 1_555 1_555
Zn6_2 O10_3 1_555 1_555
O21_4 Zn10_4 1_555 1_555
Zn11_3 O11_4 1_555 1_555
C4_6 N7_6 1_555 1_555
C6_6 C11_6 1_555 1_555
C37_6 N2_6 1_555 1_555
C38_6 N3_6 1_555 1_555
N4_6 N5_6 1_555 1_555
O4_6 Zn1_3 1_555 1_555
C60_6 C61_6 1_555 1_555
C66_6 C67_6 1_555 1_555
C73_6 C74_6 1_555 1_555
C78_6 N9_6 1_555 1_555
C79_6 C80_6 1_555 1_555
C91_6 N9_6 1_555 1_555
C92_6 C93_6 1_555 1_555
O12_6 Zn10_4 1_555 1_555
O13_6 Zn10_4 1_555 1_555
C3_6 C10_6 1_555 1_555
C5_6 H4_6 1_555 1_555
C8_6 C22_6 1_555 1_555
C9_6 C5_6 1_555 1_555
H5_6 C9_6 1_555 1_555
C10_6 H6_6 1_555 1_555
C13_6 C14_6 1_555 1_555
C14_6 C15_6 1_555 1_555
C15_6 H9_6 1_555 1_555
C16_6 C15_6 1_555 1_555
H10_6 C16_6 1_555 1_555
C17_6 C3_6 1_555 1_555
C18_6 C17_6 1_555 1_555
H11_6 C18_6 1_555 1_555
C19_6 C14_6 1_555 1_555
H12_6 C19_6 1_555 1_555
C22_6 C10_6 1_555 1_555
H14_6 C22_6 1_555 1_555
C24_6 C8_6 1_555 1_555
H16_6 C24_6 1_555 1_555
C25_6 C3_6 1_555 1_555
H17_7 C25_6 1_555 1_555
C33_6 C9_6 1_555 1_555
C34_6 C33_6 1_555 1_555
H22_6 C34_6 1_555 1_555
C35_6 C34_6 1_555 1_555
H23_6 C35_6 1_555 1_555
C36_6 C5_6 1_555 1_555
C39_6 C40_6 1_555 1_555
C40_6 C41_6 1_555 1_555
C41_6 H25_6 1_555 1_555
C42_6 C41_6 1_555 1_555
H26_6 C42_6 1_555 1_555
C43_6 C42_6 1_555 1_555
C44_6 C43_6 1_555 1_555
H27_6 C44_6 1_555 1_555
C45_6 C40_6 1_555 1_555
H28_6 C45_6 1_555 1_555
C46_6 C43_6 1_555 1_555
C47_6 C46_6 1_555 1_555
H29_6 C47_6 1_555 1_555
C48_6 C47_6 1_555 1_555
H30_6 C48_6 1_555 1_555
C49_6 C48_6 1_555 1_555
C50_6 C49_6 1_555 1_555
H31_6 C50_6 1_555 1_555
C51_6 C46_6 1_555 1_555
H32_6 C51_6 1_555 1_555
C52_6 H33_6 1_555 1_555
C53_6 H34_6 1_555 1_555
H35_6 C53_6 1_555 1_555
H36_6 C53_6 1_555 1_555
C54_6 H37_6 1_555 1_555
H38_6 C54_6 1_555 1_555
H39_6 C54_6 1_555 1_555
N1_6 C8_6 1_555 1_555
N8_6 C52_6 1_555 1_555
O2_4 C13_6 1_555 1_555
O3_6 C39_6 1_555 1_555
O7_6 C52_6 1_555 1_555
Zn6_2 O3_6 1_555 1_555
O17_4 Zn6_2 1_555 1_555
Zn9_2 O2_4 1_555 1_555
C16_6 C17_6 1_555 1_555
C18_6 C19_6 1_555 1_555
C24_6 C25_6 1_555 1_555
C35_6 C36_6 1_555 1_555
C36_6 N1_6 1_555 1_555
C44_6 C45_6 1_555 1_555
C49_6 N1_6 1_555 1_555
C50_6 C51_6 1_555 1_555
C53_6 N8_6 1_555 1_555
C54_6 N8_6 1_555 1_555
O7_6 Zn6_2 1_555 1_555
Zn5_4 O1_4 1_555 1_555
C3_7 C10_7 1_555 1_555
C8_7 C22_7 1_555 1_555
C10_7 H6_7 1_555 1_555
C13_7 C14_7 1_555 1_555
C14_7 C15_7 1_555 1_555
C15_7 H9_7 1_555 1_555
C16_7 C15_7 1_555 1_555
H10_7 C16_7 1_555 1_555
C17_7 C3_7 1_555 1_555
C18_7 C17_7 1_555 1_555
H11_7 C18_7 1_555 1_555
C19_7 C14_7 1_555 1_555
H12_7 C19_7 1_555 1_555
C22_7 C10_7 1_555 1_555
H14_7 C22_7 1_555 1_555
C25_7 C3_7 1_555 1_555
H17_8 C25_7 1_555 1_555
C26_7 C27_7 1_555 1_555
C27_7 C28_7 1_555 1_555
C28_7 H18_7 1_555 1_555
C29_7 C28_7 1_555 1_555
H19_7 C29_7 1_555 1_555
O14_3 C13_7 1_555 1_555
O15_3 C13_7 1_555 1_555
O16_4 C26_7 1_555 1_555
C16_7 C17_7 1_555 1_555
C18_7 C19_7 1_555 1_555
C1_7 H1_7 1_555 1_555
C2_7 H2_7 1_555 1_555
C4_7 C1_7 1_555 1_555
H3_7 C4_7 1_555 1_555
C5_7 H4_7 1_555 1_555
C6_7 C1_7 1_555 1_555
C7_7 C6_7 1_555 1_555
C9_7 C5_7 1_555 1_555
H5_7 C9_7 1_555 1_555
C11_7 C2_7 1_555 1_555
H7_7 C11_7 1_555 1_555
C12_7 H8_7 1_555 1_555
C20_7 C21_7 1_555 1_555
C21_7 C12_7 1_555 1_555
H13_7 C21_7 1_555 1_555
C23_7 C20_7 1_555 1_555
H15_7 C23_7 1_555 1_555
H16_7 C24_7 1_555 1_555
C31_7 C30_7 1_555 1_555
H20_7 C31_7 1_555 1_555
H21_7 C32_9 1_555 1_555
C33_7 C9_7 1_555 1_555
C34_7 C33_7 1_555 1_555
H22_7 C34_7 1_555 1_555
C35_7 C34_7 1_555 1_555
H23_7 C35_7 1_555 1_555
C36_7 C5_7 1_555 1_555
C37_7 C23_7 1_555 1_555
H24_7 C37_7 1_555 1_555
C38_7 C20_7 1_555 1_555
C39_7 C40_7 1_555 1_555
C40_7 C41_7 1_555 1_555
C41_7 H25_7 1_555 1_555
C42_7 C41_7 1_555 1_555
H26_7 C42_7 1_555 1_555
C43_7 C42_7 1_555 1_555
C44_7 C43_7 1_555 1_555
H27_7 C44_7 1_555 1_555
C45_7 C40_7 1_555 1_555
H28_7 C45_7 1_555 1_555
C46_7 C43_7 1_555 1_555
C47_7 C46_7 1_555 1_555
H29_7 C47_7 1_555 1_555
C48_7 C47_7 1_555 1_555
H30_7 C48_7 1_555 1_555
C49_7 C48_7 1_555 1_555
C50_7 C49_7 1_555 1_555
H31_7 C50_7 1_555 1_555
C51_7 C46_7 1_555 1_555
H32_7 C51_7 1_555 1_555
C52_7 H33_7 1_555 1_555
C53_7 H34_7 1_555 1_555
H35_7 C53_7 1_555 1_555
H36_7 C53_7 1_555 1_555
C54_7 H37_7 1_555 1_555
H38_7 C54_7 1_555 1_555
H39_7 C54_7 1_555 1_555
N2_7 C12_7 1_555 1_555
N3_7 C7_7 1_555 1_555
N4_7 C7_7 1_555 1_555
N5_7 C38_7 1_555 1_555
N6_7 N3_7 1_555 1_555
H40_7 N6_7 1_555 1_555
H41_7 N6_7 1_555 1_555
N7_7 C2_7 1_555 1_555
N8_7 C52_7 1_555 1_555
O3_7 C39_7 1_555 1_555
O4_7 C39_7 1_555 1_555
O7_7 C52_7 1_555 1_555
Zn5_2 N2_7 1_555 1_555
Zn8 O3_7 1_555 1_555
C66_7 C65_7 1_555 1_555
H48_7 C66_7 1_555 1_555
C68_7 C69_7 1_555 1_555
C69_7 C70_7 1_555 1_555
C70_7 H50_7 1_555 1_555
C71_7 C70_7 1_555 1_555
H51_7 C71_7 1_555 1_555
C72_7 C71_7 1_555 1_555
C73_7 C72_7 1_555 1_555
H52_7 C73_7 1_555 1_555
C74_7 C69_7 1_555 1_555
H53_7 C74_7 1_555 1_555
C75_7 C72_7 1_555 1_555
C76_7 C75_7 1_555 1_555
H54_7 C76_7 1_555 1_555
C77_7 C76_7 1_555 1_555
H55_7 C77_7 1_555 1_555
C78_7 C77_7 1_555 1_555
C79_7 C78_7 1_555 1_555
H56_7 C79_7 1_555 1_555
C80_7 C75_7 1_555 1_555
H57_7 C80_7 1_555 1_555
C86_7 C85_7 1_555 1_555
H60_7 C86_7 1_555 1_555
H61_7 C87_7 1_555 1_555
C88_7 C85_7 1_555 1_555
C91_7 C90_7 1_555 1_555
C92_7 C91_7 1_555 1_555
H64_7 C92_7 1_555 1_555
C93_7 C88_7 1_555 1_555
H65_7 C93_7 1_555 1_555
N9_7 C65_7 1_555 1_555
O12_7 C68_7 1_555 1_555
O13_7 C68_7 1_555 1_555
Zn10_3 N7_7 1_555 1_555
O20_4 Zn8 1_555 1_555
C4_7 N7_7 1_555 1_555
C6_7 C11_7 1_555 1_555
C30_7 C33_7 1_555 1_555
C31_7 C32_9 1_555 1_555
C35_7 C36_7 1_555 1_555
C36_7 N1_7 1_555 1_555
C37_7 N2_7 1_555 1_555
C38_7 N3_7 1_555 1_555
C44_7 C45_7 1_555 1_555
C49_7 N1_7 1_555 1_555
C50_7 C51_7 1_555 1_555
C53_7 N8_7 1_555 1_555
C54_7 N8_7 1_555 1_555
N4_7 N5_7 1_555 1_555
O4_7 Zn5_2 1_555 1_555
O7_7 Zn8 1_555 1_555
C73_7 C74_7 1_555 1_555
C78_7 N9_7 1_555 1_555
C79_7 C80_7 1_555 1_555
C86_7 C87_7 1_555 1_555
C91_7 N9_7 1_555 1_555
C92_7 C93_7 1_555 1_555
O12_7 Zn10_3 1_555 1_555
O13_7 Zn10_3 1_555 1_555
C55_7 C56_7 1_555 1_555
C56_7 C57_7 1_555 1_555
C57_7 H42_7 1_555 1_555
C58_7 C57_7 1_555 1_555
H43_7 C58_7 1_555 1_555
C59_7 C58_7 1_555 1_555
C60_7 C59_7 1_555 1_555
H44_7 C60_7 1_555 1_555
C61_7 C56_7 1_555 1_555
H45_7 C61_7 1_555 1_555
C62_7 C59_7 1_555 1_555
C63_7 C62_7 1_555 1_555
H46_7 C63_7 1_555 1_555
C64_7 C63_7 1_555 1_555
C67_7 C62_7 1_555 1_555
H49_7 C67_7 1_555 1_555
C81_7 C82_7 1_555 1_555
C82_7 C83_7 1_555 1_555
C83_7 H58_7 1_555 1_555
C84_7 C83_7 1_555 1_555
H59_7 C84_7 1_555 1_555
H62_7 C89_7 1_555 1_555
O9_6 C81_7 1_555 1_555
O20_4 C55_7 1_555 1_555
O21_3 C55_7 1_555 1_555
Zn11_3 O9_6 1_555 1_555
C60_7 C61_7 1_555 1_555
C81_8 C82_8 1_555 1_555
C82_8 C83_8 1_555 1_555
C83_8 H58_8 1_555 1_555
C84_8 C83_8 1_555 1_555
H59_8 C84_8 1_555 1_555
C85_8 C84_8 1_555 1_555
C86_8 C85_8 1_555 1_555
H60_8 C86_8 1_555 1_555
C87_8 C82_8 1_555 1_555
H61_8 C87_8 1_555 1_555
C88_8 C85_8 1_555 1_555
O18 C81_8 1_555 1_555
O19_2 C81_8 1_555 1_555
C86_8 C87_8 1_555 1_555
C26_8 C27_8 1_555 1_555
C27_8 C28_8 1_555 1_555
C28_8 H18_8 1_555 1_555
C29_8 C28_8 1_555 1_555
H19_8 C29_8 1_555 1_555
C30_8 C29_8 1_555 1_555
C31_8 C30_8 1_555 1_555
H20_8 C31_8 1_555 1_555
C32_10 C27_8 1_555 1_555
H21_8 C32_10 1_555 1_555
O16 C26_8 1_555 1_555
O17 C26_8 1_555 1_555
C31_8 C32_10 1_555 1_555
C55_8 C56_8 1_555 1_555
H44_8 C60_8 1_555 1_555
C61_8 C56_8 1_555 1_555
H45_8 C61_8 1_555 1_555
O10_4 C55_8 1_555 1_555
O21_4 C55_8 1_555 1_555
Zn9_2 O10_4 1_555 1_555
C60_8 C61_8 1_555 1_555
C53_8 H34_8 1_555 1_555
H35_8 C53_8 1_555 1_555
H36_8 C53_8 1_555 1_555
H38_8 C54_8 1_555 1_555
H39_8 C54_8 1_555 1_555
N8_8 C52_8 1_555 1_555
O7_8 C52_8 1_555 1_555
C53_8 N8_8 1_555 1_555
C54_8 N8_8 1_555 1_555
O7_8 Zn9_2 1_555 1_555
C1_8 H1_8 1_555 1_555
C2_8 H2_8 1_555 1_555
C3_8 C10_8 1_555 1_555
C4_8 C1_8 1_555 1_555
H3_8 C4_8 1_555 1_555
C5_8 H4_8 1_555 1_555
C6_8 C1_8 1_555 1_555
C7_8 C6_8 1_555 1_555
C8_8 C22_8 1_555 1_555
C9_8 C5_8 1_555 1_555
H5_8 C9_8 1_555 1_555
C10_8 H6_8 1_555 1_555
C11_8 C2_8 1_555 1_555
H7_8 C11_8 1_555 1_555
C12_8 H8_8 1_555 1_555
C13_8 C14_8 1_555 1_555
C14_8 C15_8 1_555 1_555
C15_8 H9_8 1_555 1_555
C16_8 C15_8 1_555 1_555
H10_8 C16_8 1_555 1_555
C17_8 C3_8 1_555 1_555
C18_8 C17_8 1_555 1_555
H11_8 C18_8 1_555 1_555
C19_8 C14_8 1_555 1_555
H12_8 C19_8 1_555 1_555
C20_8 C21_8 1_555 1_555
C21_8 C12_8 1_555 1_555
H13_8 C21_8 1_555 1_555
C22_8 C10_8 1_555 1_555
H14_8 C22_8 1_555 1_555
C23_8 C20_8 1_555 1_555
H15_8 C23_8 1_555 1_555
C24_8 C8_8 1_555 1_555
H16_8 C24_8 1_555 1_555
C25_8 C3_8 1_555 1_555
H17_10 C25_8 1_555 1_555
C33_8 C9_8 1_555 1_555
C34_8 C33_8 1_555 1_555
H22_8 C34_8 1_555 1_555
C35_8 C34_8 1_555 1_555
H23_8 C35_8 1_555 1_555
C36_8 C5_8 1_555 1_555
C37_8 C23_8 1_555 1_555
H24_8 C37_8 1_555 1_555
C38_8 C20_8 1_555 1_555
C39_8 C40_8 1_555 1_555
C40_8 C41_8 1_555 1_555
C41_8 H25_8 1_555 1_555
C42_8 C41_8 1_555 1_555
H26_8 C42_8 1_555 1_555
C43_8 C42_8 1_555 1_555
C44_8 C43_8 1_555 1_555
H27_8 C44_8 1_555 1_555
C45_8 C40_8 1_555 1_555
H28_8 C45_8 1_555 1_555
C46_8 C43_8 1_555 1_555
C47_8 C46_8 1_555 1_555
H29_8 C47_8 1_555 1_555
C48_8 C47_8 1_555 1_555
H30_8 C48_8 1_555 1_555
C49_8 C48_8 1_555 1_555
C50_8 C49_8 1_555 1_555
H31_8 C50_8 1_555 1_555
C51_8 C46_8 1_555 1_555
H32_8 C51_8 1_555 1_555
N1_8 C8_8 1_555 1_555
N2_8 C12_8 1_555 1_555
N3_8 C7_8 1_555 1_555
N4_8 C7_8 1_555 1_555
N5_8 C38_8 1_555 1_555
N6_8 N3_8 1_555 1_555
H40_8 N6_8 1_555 1_555
H41_8 N6_8 1_555 1_555
N7_8 C2_8 1_555 1_555
O14_4 C13_8 1_555 1_555
O15_4 C13_8 1_555 1_555
O3_8 C39_8 1_555 1_555
O4_8 C39_8 1_555 1_555
Zn5_4 N2_8 1_555 1_555
O12_8 C68_8 1_555 1_555
O13_8 C68_8 1_555 1_555
Zn11_3 N7_8 1_555 1_555
C4_8 N7_8 1_555 1_555
C6_8 C11_8 1_555 1_555
C16_8 C17_8 1_555 1_555
C18_8 C19_8 1_555 1_555
C24_8 C25_8 1_555 1_555
C35_8 C36_8 1_555 1_555
C36_8 N1_8 1_555 1_555
C37_8 N2_8 1_555 1_555
C38_8 N3_8 1_555 1_555
C44_8 C45_8 1_555 1_555
C49_8 N1_8 1_555 1_555
C50_8 C51_8 1_555 1_555
N4_8 N5_8 1_555 1_555
O4_8 Zn5_4 1_555 1_555
O12_8 Zn11_3 1_555 1_555
O13_8 Zn11_3 1_555 1_555
C1_9 H1_9 1_555 1_555
C2_9 H2_9 1_555 1_555
C4_9 C1_9 1_555 1_555
H3_9 C4_9 1_555 1_555
C6_9 C1_9 1_555 1_555
C7_9 C6_9 1_555 1_555
C11_9 C2_9 1_555 1_555
H7_9 C11_9 1_555 1_555
H41_9 N6_9 1_555 1_555
N7_9 C2_9 1_555 1_555
C55_9 C56_9 1_555 1_555
C56_9 C57_8 1_555 1_555
C57_8 H42_8 1_555 1_555
C58_8 C57_8 1_555 1_555
H43_8 C58_8 1_555 1_555
C59_8 C58_8 1_555 1_555
C60_9 C59_8 1_555 1_555
H44_9 C60_9 1_555 1_555
C61_9 C56_9 1_555 1_555
H45_9 C61_9 1_555 1_555
C62_8 C59_8 1_555 1_555
C63_8 C62_8 1_555 1_555
H46_8 C63_8 1_555 1_555
C64_8 C63_8 1_555 1_555
H47_8 C64_8 1_555 1_555
C65_8 C64_8 1_555 1_555
C66_8 C65_8 1_555 1_555
H48_8 C66_8 1_555 1_555
C67_8 C62_8 1_555 1_555
H49_9 C67_8 1_555 1_555
C68_9 C69_8 1_555 1_555
C69_8 C70_8 1_555 1_555
C70_8 H50_8 1_555 1_555
C71_8 C70_8 1_555 1_555
H51_8 C71_8 1_555 1_555
C72_8 C71_8 1_555 1_555
C73_8 C72_8 1_555 1_555
H52_8 C73_8 1_555 1_555
C74_8 C69_8 1_555 1_555
H53_8 C74_8 1_555 1_555
C75_8 C72_8 1_555 1_555
C76_8 C75_8 1_555 1_555
H54_8 C76_8 1_555 1_555
C77_8 C76_8 1_555 1_555
H55_8 C77_8 1_555 1_555
C78_8 C77_8 1_555 1_555
C79_8 C78_8 1_555 1_555
H56_8 C79_8 1_555 1_555
C80_8 C75_8 1_555 1_555
H57_8 C80_8 1_555 1_555
C81_9 C82_9 1_555 1_555
C82_9 C83_9 1_555 1_555
C83_9 H58_9 1_555 1_555
C84_9 C83_9 1_555 1_555
H59_9 C84_9 1_555 1_555
C85_9 C84_9 1_555 1_555
C86_9 C85_9 1_555 1_555
H60_9 C86_9 1_555 1_555
C87_9 C82_9 1_555 1_555
H61_9 C87_9 1_555 1_555
C88_9 C85_9 1_555 1_555
C89_8 C88_9 1_555 1_555
H62_8 C89_8 1_555 1_555
C90_8 C89_8 1_555 1_555
H63_8 C90_8 1_555 1_555
C91_8 C90_8 1_555 1_555
C92_8 C91_8 1_555 1_555
H64_8 C92_8 1_555 1_555
C93_8 C88_9 1_555 1_555
H65_9 C93_8 1_555 1_555
N9_8 C65_8 1_555 1_555
O8_5 C81_9 1_555 1_555
O9_7 C81_9 1_555 1_555
O10_5 C55_9 1_555 1_555
O11_5 C55_9 1_555 1_555
O12_9 C68_9 1_555 1_555
O13_9 C68_9 1_555 1_555
Zn3_2 N7_9 1_555 1_555
Zn6_3 O10_5 1_555 1_555
Zn8_3 O8_5 1_555 1_555
O19_3 Zn3_2 1_555 1_555
O21_5 Zn3_2 1_555 1_555
Zn10_5 O9_7 1_555 1_555
Zn11_4 O11_5 1_555 1_555
C4_9 N7_9 1_555 1_555
C6_9 C11_9 1_555 1_555
C60_9 C61_9 1_555 1_555
C66_8 C67_8 1_555 1_555
C73_8 C74_8 1_555 1_555
C78_8 N9_8 1_555 1_555
C79_8 C80_8 1_555 1_555
C86_9 C87_9 1_555 1_555
C91_8 N9_8 1_555 1_555
C92_8 C93_8 1_555 1_555
O12_9 Zn3_2 1_555 1_555
O13_9 Zn3_2 1_555 1_555
C3_9 C10_9 1_555 1_555
C5_9 H4_9 1_555 1_555
C8_9 C22_9 1_555 1_555
C9_9 C5_9 1_555 1_555
H5_9 C9_9 1_555 1_555
C10_9 H6_9 1_555 1_555
C12_9 H8_9 1_555 1_555
C13_9 C14_9 1_555 1_555
C14_9 C15_9 1_555 1_555
C15_9 H9_9 1_555 1_555
C16_9 C15_9 1_555 1_555
H10_9 C16_9 1_555 1_555
C17_9 C3_9 1_555 1_555
C18_9 C17_9 1_555 1_555
H11_9 C18_9 1_555 1_555
C19_9 C14_9 1_555 1_555
H12_9 C19_9 1_555 1_555
C20_9 C21_9 1_555 1_555
C21_9 C12_9 1_555 1_555
H13_9 C21_9 1_555 1_555
C22_9 C10_9 1_555 1_555
H14_9 C22_9 1_555 1_555
C23_9 C20_9 1_555 1_555
H15_9 C23_9 1_555 1_555
C24_9 C8_9 1_555 1_555
H16_9 C24_9 1_555 1_555
C25_9 C3_9 1_555 1_555
H17_11 C25_9 1_555 1_555
C26_9 C27_9 1_555 1_555
C27_9 C28_9 1_555 1_555
C28_9 H18_9 1_555 1_555
C29_9 C28_9 1_555 1_555
H19_9 C29_9 1_555 1_555
C30_9 C29_9 1_555 1_555
C31_9 C30_9 1_555 1_555
H20_9 C31_9 1_555 1_555
C32_11 C27_9 1_555 1_555
H21_9 C32_11 1_555 1_555
C33_9 C9_9 1_555 1_555
C34_9 C33_9 1_555 1_555
H22_9 C34_9 1_555 1_555
C35_9 C34_9 1_555 1_555
H23_9 C35_9 1_555 1_555
C36_9 C5_9 1_555 1_555
C37_9 C23_9 1_555 1_555
H24_9 C37_9 1_555 1_555
C38_9 C20_9 1_555 1_555
C39_9 C40_9 1_555 1_555
C40_9 C41_9 1_555 1_555
C41_9 H25_9 1_555 1_555
C42_9 C41_9 1_555 1_555
H26_9 C42_9 1_555 1_555
C43_9 C42_9 1_555 1_555
C44_9 C43_9 1_555 1_555
H27_9 C44_9 1_555 1_555
C45_9 C40_9 1_555 1_555
H28_9 C45_9 1_555 1_555
C46_9 C43_9 1_555 1_555
C47_9 C46_9 1_555 1_555
H29_9 C47_9 1_555 1_555
C48_9 C47_9 1_555 1_555
H30_9 C48_9 1_555 1_555
C49_9 C48_9 1_555 1_555
C50_9 C49_9 1_555 1_555
H31_9 C50_9 1_555 1_555
C51_9 C46_9 1_555 1_555
H32_9 C51_9 1_555 1_555
C52_9 H33_9 1_555 1_555
C53_9 H34_9 1_555 1_555
H35_9 C53_9 1_555 1_555
H36_9 C53_9 1_555 1_555
C54_9 H37_9 1_555 1_555
H38_9 C54_9 1_555 1_555
H39_9 C54_9 1_555 1_555
N1_9 C8_9 1_555 1_555
N2_9 C12_9 1_555 1_555
N5_9 C38_9 1_555 1_555
N8_9 C52_9 1_555 1_555
O1_5 C13_9 1_555 1_555
O2_5 C13_9 1_555 1_555
O3_9 C39_9 1_555 1_555
O4_9 C39_9 1_555 1_555
O5_5 C26_9 1_555 1_555
O6_5 C26_9 1_555 1_555
O7_9 C52_9 1_555 1_555
Zn1_4 N2_9 1_555 1_555
Zn6_3 O3_9 1_555 1_555
O14_5 Zn1_4 1_555 1_555
O15_5 Zn6_3 1_555 1_555
O16_5 Zn1_4 1_555 1_555
O17_5 Zn6_3 1_555 1_555
Zn4_2 O1_5 1_555 1_555
Zn5_5 O5_5 1_555 1_555
Zn7_2 O2_5 1_555 1_555
Zn8_3 O6_5 1_555 1_555
O18_5 Zn6_3 1_555 1_555
C16_9 C17_9 1_555 1_555
C18_9 C19_9 1_555 1_555
C24_9 C25_9 1_555 1_555
C30_9 C33_9 1_555 1_555
C31_9 C32_11 1_555 1_555
C35_9 C36_9 1_555 1_555
C36_9 N1_9 1_555 1_555
C37_9 N2_9 1_555 1_555
C38_9 N3_9 1_555 1_555
C44_9 C45_9 1_555 1_555
C49_9 N1_9 1_555 1_555
C50_9 C51_9 1_555 1_555
C53_9 N8_9 1_555 1_555
C54_9 N8_9 1_555 1_555
N4_9 N5_9 1_555 1_555
O4_9 Zn1_4 1_555 1_555
O7_9 Zn6_3 1_555 1_555
C53_10 H34_10 1_555 1_555
H35_10 C53_10 1_555 1_555
H36_10 C53_10 1_555 1_555
H38_10 C54_10 1_555 1_555
H39_10 C54_10 1_555 1_555
N8_10 C52_10 1_555 1_555
O7_10 C52_10 1_555 1_555
O15_6 Zn2_2 1_555 1_555
O18_6 Zn2_2 1_555 1_555
O20_5 Zn2_2 1_555 1_555
C53_10 N8_10 1_555 1_555
C54_10 N8_10 1_555 1_555
O7_10 Zn2_2 1_555 1_555
C1_10 H1_10 1_555 1_555
C2_10 H2_10 1_555 1_555
C3_10 C10_10 1_555 1_555
C4_10 C1_10 1_555 1_555
H3_10 C4_10 1_555 1_555
C5_10 H4_10 1_555 1_555
C6_10 C1_10 1_555 1_555
C7_10 C6_10 1_555 1_555
C8_10 C22_10 1_555 1_555
C9_10 C5_10 1_555 1_555
H5_10 C9_10 1_555 1_555
C10_10 H6_10 1_555 1_555
C11_10 C2_10 1_555 1_555
H7_10 C11_10 1_555 1_555
C12_10 H8_10 1_555 1_555
C13_10 C14_10 1_555 1_555
C14_10 C15_10 1_555 1_555
C15_10 H9_10 1_555 1_555
C16_10 C15_10 1_555 1_555
H10_10 C16_10 1_555 1_555
C17_10 C3_10 1_555 1_555
C18_10 C17_10 1_555 1_555
H11_10 C18_10 1_555 1_555
C19_10 C14_10 1_555 1_555
H12_10 C19_10 1_555 1_555
C20_10 C21_10 1_555 1_555
C21_10 C12_10 1_555 1_555
H13_10 C21_10 1_555 1_555
C22_10 C10_10 1_555 1_555
H14_10 C22_10 1_555 1_555
C23_10 C20_10 1_555 1_555
H15_10 C23_10 1_555 1_555
C24_10 C8_10 1_555 1_555
H16_10 C24_10 1_555 1_555
C25_10 C3_10 1_555 1_555
H17_12 C25_10 1_555 1_555
C33_10 C9_10 1_555 1_555
C34_10 C33_10 1_555 1_555
H22_10 C34_10 1_555 1_555
C35_10 C34_10 1_555 1_555
H23_10 C35_10 1_555 1_555
C36_10 C5_10 1_555 1_555
C37_10 C23_10 1_555 1_555
H24_10 C37_10 1_555 1_555
C38_10 C20_10 1_555 1_555
C39_10 C40_10 1_555 1_555
C40_10 C41_10 1_555 1_555
C41_10 H25_10 1_555 1_555
C42_10 C41_10 1_555 1_555
H26_10 C42_10 1_555 1_555
C43_10 C42_10 1_555 1_555
C44_10 C43_10 1_555 1_555
H27_10 C44_10 1_555 1_555
C45_10 C40_10 1_555 1_555
H28_10 C45_10 1_555 1_555
C46_10 C43_10 1_555 1_555
C47_10 C46_10 1_555 1_555
H29_10 C47_10 1_555 1_555
C48_10 C47_10 1_555 1_555
H30_10 C48_10 1_555 1_555
C49_10 C48_10 1_555 1_555
C50_10 C49_10 1_555 1_555
H31_10 C50_10 1_555 1_555
C51_10 C46_10 1_555 1_555
H32_10 C51_10 1_555 1_555
N1_10 C8_10 1_555 1_555
N2_10 C12_10 1_555 1_555
N3_10 C7_10 1_555 1_555
N4_10 C7_10 1_555 1_555
N5_10 C38_10 1_555 1_555
N6_10 N3_10 1_555 1_555
H40_10 N6_10 1_555 1_555
H41_10 N6_10 1_555 1_555
N7_10 C2_10 1_555 1_555
O1_6 C13_10 1_555 1_555
O2_6 C13_10 1_555 1_555
O3_10 C39_10 1_555 1_555
O4_10 C39_10 1_555 1_555
Zn1_5 N2_10 1_555 1_555
O12_10 C68_10 1_555 1_555
O13_10 C68_10 1_555 1_555
Zn3_3 N7_10 1_555 1_555
O14_6 Zn1_5 1_555 1_555
O16_6 Zn1_5 1_555 1_555
Zn4_3 O1_6 1_555 1_555
O19_4 Zn3_3 1_555 1_555
O21_6 Zn3_3 1_555 1_555
C4_10 N7_10 1_555 1_555
C6_10 C11_10 1_555 1_555
C16_10 C17_10 1_555 1_555
C18_10 C19_10 1_555 1_555
C24_10 C25_10 1_555 1_555
C35_10 C36_10 1_555 1_555
C36_10 N1_10 1_555 1_555
C37_10 N2_10 1_555 1_555
C38_10 N3_10 1_555 1_555
C44_10 C45_10 1_555 1_555
C49_10 N1_10 1_555 1_555
C50_10 C51_10 1_555 1_555
N4_10 N5_10 1_555 1_555
O4_10 Zn1_5 1_555 1_555
O12_10 Zn3_3 1_555 1_555
O13_10 Zn3_3 1_555 1_555
C55_10 C56_10 1_555 1_555
H44_10 C60_10 1_555 1_555
C61_10 C56_10 1_555 1_555
H45_10 C61_10 1_555 1_555
O20_5 C55_10 1_555 1_555
O11_6 C55_10 1_555 1_555
Zn11_5 O11_6 1_555 1_555
C60_10 C61_10 1_555 1_555
C26_10 C27_10 1_555 1_555
C27_10 C28_10 1_555 1_555
C28_10 H18_10 1_555 1_555
C29_10 C28_10 1_555 1_555
H19_10 C29_10 1_555 1_555
C30_10 C29_10 1_555 1_555
C31_10 C30_10 1_555 1_555
H20_10 C31_10 1_555 1_555
C32_12 C27_10 1_555 1_555
H21_10 C32_12 1_555 1_555
O16_5 C26_10 1_555 1_555
O17_5 C26_10 1_555 1_555
C31_10 C32_12 1_555 1_555
C81_10 C82_10 1_555 1_555
C82_10 C83_10 1_555 1_555
C83_10 H58_10 1_555 1_555
C84_10 C83_10 1_555 1_555
H59_10 C84_10 1_555 1_555
C85_10 C84_10 1_555 1_555
C86_10 C85_10 1_555 1_555
H60_10 C86_10 1_555 1_555
C87_10 C82_10 1_555 1_555
H61_10 C87_10 1_555 1_555
C88_10 C85_10 1_555 1_555
O18_5 C81_10 1_555 1_555
O9_8 C81_10 1_555 1_555
Zn11_4 O9_8 1_555 1_555
C86_10 C87_10 1_555 1_555
C55_11 C56_11 1_555 1_555
C56_11 C57_9 1_555 1_555
C57_9 H42_9 1_555 1_555
C58_9 C57_9 1_555 1_555
H43_9 C58_9 1_555 1_555
C59_9 C58_9 1_555 1_555
C60_11 C59_9 1_555 1_555
H44_11 C60_11 1_555 1_555
C61_11 C56_11 1_555 1_555
H45_11 C61_11 1_555 1_555
C62_9 C59_9 1_555 1_555
C63_9 C62_9 1_555 1_555
H46_9 C63_9 1_555 1_555
C64_9 C63_9 1_555 1_555
C67_9 C62_9 1_555 1_555
H49_11 C67_9 1_555 1_555
C81_11 C82_11 1_555 1_555
C82_11 C83_11 1_555 1_555
C83_11 H58_11 1_555 1_555
C84_11 C83_11 1_555 1_555
H59_11 C84_11 1_555 1_555
H62_9 C89_9 1_555 1_555
O9_9 C81_11 1_555 1_555
O10_6 C55_11 1_555 1_555
O21_5 C55_11 1_555 1_555
Zn7_2 O10_6 1_555 1_555
Zn10_6 O9_9 1_555 1_555
C60_11 C61_11 1_555 1_555
C5_11 H4_11 1_555 1_555
C9_11 C5_11 1_555 1_555
H5_11 C9_11 1_555 1_555
C12_11 H8_11 1_555 1_555
C20_11 C21_11 1_555 1_555
C21_11 C12_11 1_555 1_555
H13_11 C21_11 1_555 1_555
C23_11 C20_11 1_555 1_555
H15_11 C23_11 1_555 1_555
H21_11 C32_13 1_555 1_555
C37_11 C23_11 1_555 1_555
H24_11 C37_11 1_555 1_555
C38_11 C20_11 1_555 1_555
C39_11 C40_11 1_555 1_555
C40_11 C41_11 1_555 1_555
C41_11 H25_11 1_555 1_555
C42_11 C41_11 1_555 1_555
H26_11 C42_11 1_555 1_555
C43_11 C42_11 1_555 1_555
C44_11 C43_11 1_555 1_555
H27_11 C44_11 1_555 1_555
C45_11 C40_11 1_555 1_555
H28_11 C45_11 1_555 1_555
C46_11 C43_11 1_555 1_555
C47_11 C46_11 1_555 1_555
H29_11 C47_11 1_555 1_555
C48_11 C47_11 1_555 1_555
H31_11 C50_11 1_555 1_555
C51_11 C46_11 1_555 1_555
H32_11 C51_11 1_555 1_555
C52_11 H33_11 1_555 1_555
C53_11 H34_11 1_555 1_555
H35_11 C53_11 1_555 1_555
H36_11 C53_11 1_555 1_555
C54_11 H37_11 1_555 1_555
H38_11 C54_11 1_555 1_555
H39_11 C54_11 1_555 1_555
N2_11 C12_11 1_555 1_555
N5_11 C38_11 1_555 1_555
N6_11 N3_11 1_555 1_555
H40_11 N6_11 1_555 1_555
H41_11 N6_11 1_555 1_555
N8_11 C52_11 1_555 1_555
O3_11 C39_11 1_555 1_555
O4_11 C39_11 1_555 1_555
O7_11 C52_11 1_555 1_555
Zn4_2 N2_11 1_555 1_555
Zn7_2 O3_11 1_555 1_555
C66_9 C65_9 1_555 1_555
H48_9 C66_9 1_555 1_555
C73_9 C72_9 1_555 1_555
H52_9 C73_9 1_555 1_555
H53_9 C74_9 1_555 1_555
C75_9 C72_9 1_555 1_555
C76_9 C75_9 1_555 1_555
H54_9 C76_9 1_555 1_555
C77_9 C76_9 1_555 1_555
H55_9 C77_9 1_555 1_555
C78_9 C77_9 1_555 1_555
C79_9 C78_9 1_555 1_555
H56_9 C79_9 1_555 1_555
C80_9 C75_9 1_555 1_555
H57_9 C80_9 1_555 1_555
C86_11 C85_11 1_555 1_555
H60_11 C86_11 1_555 1_555
H61_11 C87_11 1_555 1_555
C88_11 C85_11 1_555 1_555
C91_9 C90_9 1_555 1_555
C92_9 C91_9 1_555 1_555
H64_9 C92_9 1_555 1_555
C93_9 C88_11 1_555 1_555
H65_11 C93_9 1_555 1_555
N9_9 C65_9 1_555 1_555
O16_7 Zn4_2 1_555 1_555
O17_7 Zn7_2 1_555 1_555
O18_7 Zn7_2 1_555 1_555
C37_11 N2_11 1_555 1_555
C38_11 N3_11 1_555 1_555
C44_11 C45_11 1_555 1_555
C50_11 C51_11 1_555 1_555
C53_11 N8_11 1_555 1_555
C54_11 N8_11 1_555 1_555
O4_11 Zn4_2 1_555 1_555
O7_11 Zn7_2 1_555 1_555
C73_9 C74_9 1_555 1_555
C78_9 N9_9 1_555 1_555
C79_9 C80_9 1_555 1_555
C86_11 C87_11 1_555 1_555
C91_9 N9_9 1_555 1_555
C92_9 C93_9 1_555 1_555
C1_11 H1_11 1_555 1_555
C2_11 H2_11 1_555 1_555
C4_11 C1_11 1_555 1_555
H3_11 C4_11 1_555 1_555
C6_11 C1_11 1_555 1_555
C7_11 C6_11 1_555 1_555
C11_11 C2_11 1_555 1_555
H7_11 C11_11 1_555 1_555
H16_11 C24_11 1_555 1_555
C31_11 C30_11 1_555 1_555
C34_11 C33_11 1_555 1_555
H22_11 C34_11 1_555 1_555
C35_11 C34_11 1_555 1_555
H23_11 C35_11 1_555 1_555
N4_11 C7_11 1_555 1_555
N7_11 C2_11 1_555 1_555
C68_11 C69_9 1_555 1_555
C69_9 C70_9 1_555 1_555
C70_9 H50_9 1_555 1_555
C71_9 C70_9 1_555 1_555
H51_9 C71_9 1_555 1_555
O12_11 C68_11 1_555 1_555
O13_11 C68_11 1_555 1_555
Zn11_4 N7_11 1_555 1_555
C4_11 N7_11 1_555 1_555
C6_11 C11_11 1_555 1_555
C30_11 C33_11 1_555 1_555
C31_11 C32_14 1_555 1_555
C35_11 C36_11 1_555 1_555
C36_11 N1_11 1_555 1_555
C49_11 N1_11 1_555 1_555
O12_11 Zn11_4 1_555 1_555
O13_11 Zn11_4 1_555 1_555
C3_11 C10_11 1_555 1_555
C8_11 C22_11 1_555 1_555
C10_11 H6_11 1_555 1_555
C13_11 C14_11 1_555 1_555
C14_11 C15_11 1_555 1_555
C15_11 H9_11 1_555 1_555
C16_11 C15_11 1_555 1_555
H10_11 C16_11 1_555 1_555
C17_11 C3_11 1_555 1_555
C18_11 C17_11 1_555 1_555
H11_11 C18_11 1_555 1_555
C19_11 C14_11 1_555 1_555
H12_11 C19_11 1_555 1_555
C22_11 C10_11 1_555 1_555
H14_11 C22_11 1_555 1_555
C25_11 C3_11 1_555 1_555
H17_14 C25_11 1_555 1_555
C26_11 C27_11 1_555 1_555
C27_11 C28_11 1_555 1_555
C28_11 H18_11 1_555 1_555
C29_11 C28_11 1_555 1_555
H19_11 C29_11 1_555 1_555
O14_5 C13_11 1_555 1_555
O15_5 C13_11 1_555 1_555
O5_6 C26_11 1_555 1_555
Zn5_6 O5_6 1_555 1_555
C16_11 C17_11 1_555 1_555
C18_11 C19_11 1_555 1_555
C3_12 C10_12 1_555 1_555
C5_12 H4_12 1_555 1_555
C8_12 C22_12 1_555 1_555
C9_12 C5_12 1_555 1_555
H5_12 C9_12 1_555 1_555
C10_12 H6_12 1_555 1_555
C13_12 C14_12 1_555 1_555
C14_12 C15_12 1_555 1_555
C15_12 H9_12 1_555 1_555
C16_12 C15_12 1_555 1_555
H10_12 C16_12 1_555 1_555
C17_12 C3_12 1_555 1_555
C18_12 C17_12 1_555 1_555
H11_12 C18_12 1_555 1_555
C19_12 C14_12 1_555 1_555
H12_12 C19_12 1_555 1_555
C22_12 C10_12 1_555 1_555
H14_12 C22_12 1_555 1_555
C24_12 C8_12 1_555 1_555
H16_12 C24_12 1_555 1_555
C25_12 C3_12 1_555 1_555
H17_15 C25_12 1_555 1_555
C33_12 C9_12 1_555 1_555
C34_12 C33_12 1_555 1_555
H22_12 C34_12 1_555 1_555
C35_12 C34_12 1_555 1_555
H23_12 C35_12 1_555 1_555
C36_12 C5_12 1_555 1_555
C39_12 C40_12 1_555 1_555
C40_12 C41_12 1_555 1_555
C41_12 H25_12 1_555 1_555
C42_12 C41_12 1_555 1_555
H26_12 C42_12 1_555 1_555
C43_12 C42_12 1_555 1_555
C44_12 C43_12 1_555 1_555
H27_12 C44_12 1_555 1_555
C45_12 C40_12 1_555 1_555
H28_12 C45_12 1_555 1_555
C46_12 C43_12 1_555 1_555
C47_12 C46_12 1_555 1_555
H29_12 C47_12 1_555 1_555
C48_12 C47_12 1_555 1_555
H30_12 C48_12 1_555 1_555
C49_12 C48_12 1_555 1_555
C50_12 C49_12 1_555 1_555
H31_12 C50_12 1_555 1_555
C51_12 C46_12 1_555 1_555
H32_12 C51_12 1_555 1_555
C52_12 H33_12 1_555 1_555
C53_12 H34_12 1_555 1_555
H35_12 C53_12 1_555 1_555
H36_12 C53_12 1_555 1_555
C54_12 H37_12 1_555 1_555
H38_12 C54_12 1_555 1_555
H39_12 C54_12 1_555 1_555
N1_12 C8_12 1_555 1_555
N8_12 C52_12 1_555 1_555
O15_6 C13_12 1_555 1_555
O3_12 C39_12 1_555 1_555
O7_12 C52_12 1_555 1_555
Zn7_3 O3_12 1_555 1_555
O17_8 Zn7_3 1_555 1_555
O20_6 Zn7_3 1_555 1_555
C16_12 C17_12 1_555 1_555
C18_12 C19_12 1_555 1_555
C24_12 C25_12 1_555 1_555
C35_12 C36_12 1_555 1_555
C36_12 N1_12 1_555 1_555
C44_12 C45_12 1_555 1_555
C49_12 N1_12 1_555 1_555
C50_12 C51_12 1_555 1_555
C53_12 N8_12 1_555 1_555
C54_12 N8_12 1_555 1_555
O7_12 Zn7_3 1_555 1_555
C1_12 H1_12 1_555 1_555
C2_12 H2_12 1_555 1_555
C4_12 C1_12 1_555 1_555
H3_12 C4_12 1_555 1_555
C6_12 C1_12 1_555 1_555
C7_12 C6_12 1_555 1_555
C11_12 C2_12 1_555 1_555
H7_12 C11_12 1_555 1_555
C12_12 H8_12 1_555 1_555
C20_12 C21_12 1_555 1_555
C21_12 C12_12 1_555 1_555
H13_12 C21_12 1_555 1_555
C23_12 C20_12 1_555 1_555
H15_12 C23_12 1_555 1_555
C37_12 C23_12 1_555 1_555
H24_12 C37_12 1_555 1_555
C38_12 C20_12 1_555 1_555
N2_12 C12_12 1_555 1_555
N3_12 C7_12 1_555 1_555
N4_12 C7_12 1_555 1_555
N5_12 C38_12 1_555 1_555
N6_12 N3_12 1_555 1_555
H40_12 N6_12 1_555 1_555
H41_12 N6_12 1_555 1_555
N7_12 C2_12 1_555 1_555
Zn4_3 N2_12 1_555 1_555
C55_12 C56_12 1_555 1_555
C56_12 C57_10 1_555 1_555
C57_10 H42_10 1_555 1_555
C58_10 C57_10 1_555 1_555
H43_10 C58_10 1_555 1_555
C59_10 C58_10 1_555 1_555
C60_12 C59_10 1_555 1_555
H44_12 C60_12 1_555 1_555
C61_12 C56_12 1_555 1_555
H45_12 C61_12 1_555 1_555
C62_10 C59_10 1_555 1_555
C63_10 C62_10 1_555 1_555
H46_10 C63_10 1_555 1_555
C64_10 C63_10 1_555 1_555
H47_10 C64_10 1_555 1_555
C65_10 C64_10 1_555 1_555
C66_10 C65_10 1_555 1_555
H48_10 C66_10 1_555 1_555
C67_10 C62_10 1_555 1_555
H49_12 C67_10 1_555 1_555
C68_12 C69_10 1_555 1_555
C69_10 C70_10 1_555 1_555
C70_10 H50_10 1_555 1_555
C71_10 C70_10 1_555 1_555
H51_10 C71_10 1_555 1_555
C72_10 C71_10 1_555 1_555
C73_10 C72_10 1_555 1_555
H52_10 C73_10 1_555 1_555
C74_10 C69_10 1_555 1_555
H53_10 C74_10 1_555 1_555
C75_10 C72_10 1_555 1_555
C76_10 C75_10 1_555 1_555
H54_10 C76_10 1_555 1_555
C77_10 C76_10 1_555 1_555
H55_10 C77_10 1_555 1_555
C78_10 C77_10 1_555 1_555
C79_10 C78_10 1_555 1_555
H56_10 C79_10 1_555 1_555
C80_10 C75_10 1_555 1_555
H57_10 C80_10 1_555 1_555
H62_10 C89_10 1_555 1_555
C90_10 C89_10 1_555 1_555
H63_10 C90_10 1_555 1_555
C91_10 C90_10 1_555 1_555
C92_10 C91_10 1_555 1_555
H64_10 C92_10 1_555 1_555
N9_10 C65_10 1_555 1_555
O20_6 C55_12 1_555 1_555
O21_6 C55_12 1_555 1_555
O12_12 C68_12 1_555 1_555
O13_12 C68_12 1_555 1_555
Zn11_5 N7_12 1_555 1_555
O16_8 Zn4_3 1_555 1_555
O19_5 Zn11_5 1_555 1_555
C4_12 N7_12 1_555 1_555
C6_12 C11_12 1_555 1_555
C37_12 N2_12 1_555 1_555
C38_12 N3_12 1_555 1_555
N4_12 N5_12 1_555 1_555
O4_12 Zn4_3 1_555 1_555
C60_12 C61_12 1_555 1_555
C66_10 C67_10 1_555 1_555
C73_10 C74_10 1_555 1_555
C78_10 N9_10 1_555 1_555
C79_10 C80_10 1_555 1_555
C91_10 N9_10 1_555 1_555
C92_10 C93_10 1_555 1_555
O12_12 Zn11_5 1_555 1_555
O13_12 Zn11_5 1_555 1_555
C26_12 C27_12 1_555 1_555
C27_12 C28_12 1_555 1_555
C28_12 H18_12 1_555 1_555
C29_12 C28_12 1_555 1_555
H19_12 C29_12 1_555 1_555
C30_12 C29_12 1_555 1_555
C31_12 C30_12 1_555 1_555
H20_12 C31_12 1_555 1_555
C32_15 C27_12 1_555 1_555
H21_12 C32_15 1_555 1_555
O16_7 C26_12 1_555 1_555
O17_7 C26_12 1_555 1_555
C31_12 C32_15 1_555 1_555
C81_12 C82_12 1_555 1_555
C82_12 C83_12 1_555 1_555
C83_12 H58_12 1_555 1_555
C84_12 C83_12 1_555 1_555
H59_12 C84_12 1_555 1_555
C85_12 C84_12 1_555 1_555
C86_12 C85_12 1_555 1_555
H60_12 C86_12 1_555 1_555
C87_12 C82_12 1_555 1_555
H61_12 C87_12 1_555 1_555
C88_12 C85_12 1_555 1_555
O18_7 C81_12 1_555 1_555
O19_3 C81_12 1_555 1_555
C86_12 C87_12 1_555 1_555
H41_13 N6_13 1_555 1_555
C55_13 C56_13 1_555 1_555
C56_13 C57_11 1_555 1_555
C57_11 H42_11 1_555 1_555
C58_11 C57_11 1_555 1_555
H43_11 C58_11 1_555 1_555
C59_11 C58_11 1_555 1_555
C60_13 C59_11 1_555 1_555
H44_13 C60_13 1_555 1_555
C61_13 C56_13 1_555 1_555
H45_13 C61_13 1_555 1_555
C62_11 C59_11 1_555 1_555
C63_11 C62_11 1_555 1_555
H46_11 C63_11 1_555 1_555
C64_11 C63_11 1_555 1_555
H47_11 C64_11 1_555 1_555
C65_11 C64_11 1_555 1_555
C66_11 C65_11 1_555 1_555
H48_11 C66_11 1_555 1_555
C67_11 C62_11 1_555 1_555
H49_13 C67_11 1_555 1_555
C73_11 C72_11 1_555 1_555
H52_11 C73_11 1_555 1_555
H53_11 C74_11 1_555 1_555
C75_11 C72_11 1_555 1_555
C76_11 C75_11 1_555 1_555
H54_11 C76_11 1_555 1_555
C77_11 C76_11 1_555 1_555
H55_11 C77_11 1_555 1_555
C78_11 C77_11 1_555 1_555
C79_11 C78_11 1_555 1_555
H56_11 C79_11 1_555 1_555
C80_11 C75_11 1_555 1_555
H57_11 C80_11 1_555 1_555
C81_13 C82_13 1_555 1_555
C82_13 C83_13 1_555 1_555
C83_13 H58_13 1_555 1_555
C84_13 C83_13 1_555 1_555
H59_13 C84_13 1_555 1_555
C85_13 C84_13 1_555 1_555
C86_13 C85_13 1_555 1_555
H60_13 C86_13 1_555 1_555
C87_13 C82_13 1_555 1_555
H61_13 C87_13 1_555 1_555
C88_13 C85_13 1_555 1_555
C89_11 C88_13 1_555 1_555
H62_11 C89_11 1_555 1_555
C90_11 C89_11 1_555 1_555
H63_11 C90_11 1_555 1_555
C91_11 C90_11 1_555 1_555
C92_11 C91_11 1_555 1_555
H64_11 C92_11 1_555 1_555
C93_11 C88_13 1_555 1_555
H65_13 C93_11 1_555 1_555
N9_11 C65_11 1_555 1_555
O18_6 C81_13 1_555 1_555
O19_5 C81_13 1_555 1_555
O10_7 C55_13 1_555 1_555
O11_7 C55_13 1_555 1_555
Zn6_4 O10_7 1_555 1_555
Zn11_6 O11_7 1_555 1_555
C60_13 C61_13 1_555 1_555
C66_11 C67_11 1_555 1_555
C73_11 C74_11 1_555 1_555
C78_11 N9_11 1_555 1_555
C79_11 C80_11 1_555 1_555
C86_13 C87_13 1_555 1_555
C91_11 N9_11 1_555 1_555
C92_11 C93_11 1_555 1_555
C1_13 H1_13 1_555 1_555
C2_13 H2_13 1_555 1_555
C4_13 C1_13 1_555 1_555
H3_13 C4_13 1_555 1_555
C6_13 C1_13 1_555 1_555
C7_13 C6_13 1_555 1_555
C11_13 C2_13 1_555 1_555
H7_13 C11_13 1_555 1_555
N7_13 C2_13 1_555 1_555
C68_13 C69_11 1_555 1_555
C69_11 C70_11 1_555 1_555
C70_11 H50_11 1_555 1_555
C71_11 C70_11 1_555 1_555
H51_11 C71_11 1_555 1_555
O12_13 C68_13 1_555 1_555
O13_13 C68_13 1_555 1_555
Zn3_4 N7_13 1_555 1_555
O19_6 Zn3_4 1_555 1_555
O21_7 Zn3_4 1_555 1_555
C4_13 N7_13 1_555 1_555
C6_13 C11_13 1_555 1_555
O12_13 Zn3_4 1_555 1_555
O13_13 Zn3_4 1_555 1_555
C5_13 H4_13 1_555 1_555
C9_13 C5_13 1_555 1_555
H5_13 C9_13 1_555 1_555
C12_13 H8_13 1_555 1_555
C20_13 C21_13 1_555 1_555
C21_13 C12_13 1_555 1_555
H13_13 C21_13 1_555 1_555
C23_13 C20_13 1_555 1_555
H15_13 C23_13 1_555 1_555
H21_13 C32_16 1_555 1_555
C37_13 C23_13 1_555 1_555
H24_13 C37_13 1_555 1_555
C38_13 C20_13 1_555 1_555
C39_13 C40_13 1_555 1_555
C40_13 C41_13 1_555 1_555
C41_13 H25_13 1_555 1_555
C42_13 C41_13 1_555 1_555
H26_13 C42_13 1_555 1_555
C43_13 C42_13 1_555 1_555
C44_13 C43_13 1_555 1_555
H27_13 C44_13 1_555 1_555
C45_13 C40_13 1_555 1_555
H28_13 C45_13 1_555 1_555
C46_13 C43_13 1_555 1_555
C47_13 C46_13 1_555 1_555
H29_13 C47_13 1_555 1_555
C48_13 C47_13 1_555 1_555
H31_13 C50_13 1_555 1_555
C51_13 C46_13 1_555 1_555
H32_13 C51_13 1_555 1_555
C52_13 H33_13 1_555 1_555
C53_13 H34_13 1_555 1_555
H35_13 C53_13 1_555 1_555
H36_13 C53_13 1_555 1_555
C54_13 H37_13 1_555 1_555
H38_13 C54_13 1_555 1_555
H39_13 C54_13 1_555 1_555
N2_13 C12_13 1_555 1_555
N5_13 C38_13 1_555 1_555
N8_13 C52_13 1_555 1_555
O3_13 C39_13 1_555 1_555
O4_13 C39_13 1_555 1_555
O7_13 C52_13 1_555 1_555
Zn1_6 N2_13 1_555 1_555
Zn6_4 O3_13 1_555 1_555
O14_7 Zn1_6 1_555 1_555
O15_7 Zn6_4 1_555 1_555
O16_9 Zn1_6 1_555 1_555
O17_9 Zn6_4 1_555 1_555
O18_9 Zn6_4 1_555 1_555
C37_13 N2_13 1_555 1_555
C38_13 N3_13 1_555 1_555
C44_13 C45_13 1_555 1_555
C50_13 C51_13 1_555 1_555
C53_13 N8_13 1_555 1_555
C54_13 N8_13 1_555 1_555
O4_13 Zn1_6 1_555 1_555
O7_13 Zn6_4 1_555 1_555
C3_13 C10_13 1_555 1_555
C8_13 C22_13 1_555 1_555
C10_13 H6_13 1_555 1_555
C13_13 C14_13 1_555 1_555
C14_13 C15_13 1_555 1_555
C15_13 H9_13 1_555 1_555
C16_13 C15_13 1_555 1_555
H10_13 C16_13 1_555 1_555
C17_13 C3_13 1_555 1_555
C18_13 C17_13 1_555 1_555
H11_13 C18_13 1_555 1_555
C19_13 C14_13 1_555 1_555
H12_13 C19_13 1_555 1_555
C22_13 C10_13 1_555 1_555
H14_13 C22_13 1_555 1_555
C24_13 C8_13 1_555 1_555
H16_13 C24_13 1_555 1_555
C25_13 C3_13 1_555 1_555
H17_16 C25_13 1_555 1_555
C26_13 C27_13 1_555 1_555
C27_13 C28_13 1_555 1_555
C28_13 H18_13 1_555 1_555
C29_13 C28_13 1_555 1_555
H19_13 C29_13 1_555 1_555
C30_13 C29_13 1_555 1_555
C31_13 C30_13 1_555 1_555
C32_17 C27_13 1_555 1_555
C34_13 C33_13 1_555 1_555
H22_13 C34_13 1_555 1_555
C35_13 C34_13 1_555 1_555
H23_13 C35_13 1_555 1_555
N1_13 C8_13 1_555 1_555
O1_7 C13_13 1_555 1_555
O2_7 C13_13 1_555 1_555
O16_6 C26_13 1_555 1_555
O17_6 C26_13 1_555 1_555
Zn4_4 O1_7 1_555 1_555
Zn7_4 O2_7 1_555 1_555
C16_13 C17_13 1_555 1_555
C18_13 C19_13 1_555 1_555
C24_13 C25_13 1_555 1_555
C30_13 C33_13 1_555 1_555
C31_13 C32_17 1_555 1_555
C35_13 C36_13 1_555 1_555
C36_13 N1_13 1_555 1_555
C49_13 N1_13 1_555 1_555
C1_14 H1_14 1_555 1_555
C2_14 H2_14 1_555 1_555
C3_14 C10_14 1_555 1_555
C4_14 C1_14 1_555 1_555
H3_14 C4_14 1_555 1_555
C5_14 H4_14 1_555 1_555
C6_14 C1_14 1_555 1_555
C7_14 C6_14 1_555 1_555
C8_14 C22_14 1_555 1_555
C9_14 C5_14 1_555 1_555
H5_14 C9_14 1_555 1_555
C10_14 H6_14 1_555 1_555
C11_14 C2_14 1_555 1_555
H7_14 C11_14 1_555 1_555
C12_14 H8_14 1_555 1_555
C13_14 C14_14 1_555 1_555
C14_14 C15_14 1_555 1_555
C15_14 H9_14 1_555 1_555
C16_14 C15_14 1_555 1_555
H10_14 C16_14 1_555 1_555
C17_14 C3_14 1_555 1_555
C18_14 C17_14 1_555 1_555
H11_14 C18_14 1_555 1_555
C19_14 C14_14 1_555 1_555
H12_14 C19_14 1_555 1_555
C20_14 C21_14 1_555 1_555
C21_14 C12_14 1_555 1_555
H13_14 C21_14 1_555 1_555
C22_14 C10_14 1_555 1_555
H14_14 C22_14 1_555 1_555
C23_14 C20_14 1_555 1_555
H15_14 C23_14 1_555 1_555
C24_14 C8_14 1_555 1_555
H16_14 C24_14 1_555 1_555
C25_14 C3_14 1_555 1_555
H17_17 C25_14 1_555 1_555
C26_14 C27_14 1_555 1_555
C27_14 C28_14 1_555 1_555
C28_14 H18_14 1_555 1_555
C29_14 C28_14 1_555 1_555
H19_14 C29_14 1_555 1_555
C30_14 C29_14 1_555 1_555
C31_14 C30_14 1_555 1_555
H20_14 C31_14 1_555 1_555
C32_18 C27_14 1_555 1_555
H21_14 C32_18 1_555 1_555
C33_14 C9_14 1_555 1_555
C34_14 C33_14 1_555 1_555
H22_14 C34_14 1_555 1_555
C35_14 C34_14 1_555 1_555
H23_14 C35_14 1_555 1_555
C36_14 C5_14 1_555 1_555
C37_14 C23_14 1_555 1_555
H24_14 C37_14 1_555 1_555
C38_14 C20_14 1_555 1_555
C39_14 C40_14 1_555 1_555
C40_14 C41_14 1_555 1_555
C41_14 H25_14 1_555 1_555
C42_14 C41_14 1_555 1_555
H26_14 C42_14 1_555 1_555
C43_14 C42_14 1_555 1_555
C44_14 C43_14 1_555 1_555
H27_14 C44_14 1_555 1_555
C45_14 C40_14 1_555 1_555
H28_14 C45_14 1_555 1_555
C46_14 C43_14 1_555 1_555
C47_14 C46_14 1_555 1_555
H29_14 C47_14 1_555 1_555
C48_14 C47_14 1_555 1_555
H30_14 C48_14 1_555 1_555
C49_14 C48_14 1_555 1_555
C50_14 C49_14 1_555 1_555
H31_14 C50_14 1_555 1_555
C51_14 C46_14 1_555 1_555
H32_14 C51_14 1_555 1_555
C52_14 H33_14 1_555 1_555
C53_14 H34_14 1_555 1_555
H35_14 C53_14 1_555 1_555
H36_14 C53_14 1_555 1_555
C54_14 H37_14 1_555 1_555
H38_14 C54_14 1_555 1_555
H39_14 C54_14 1_555 1_555
N1_14 C8_14 1_555 1_555
N2_14 C12_14 1_555 1_555
N3_14 C7_14 1_555 1_555
N4_14 C7_14 1_555 1_555
N5_14 C38_14 1_555 1_555
N6_14 N3_14 1_555 1_555
H40_14 N6_14 1_555 1_555
H41_14 N6_14 1_555 1_555
N7_14 C2_14 1_555 1_555
N8_14 C52_14 1_555 1_555
O2_8 C13_14 1_555 1_555
O3_14 C39_14 1_555 1_555
O4_14 C39_14 1_555 1_555
O16_9 C26_14 1_555 1_555
O17_9 C26_14 1_555 1_555
O7_14 C52_14 1_555 1_555
Zn5_5 N2_14 1_555 1_555
Zn8_3 O3_14 1_555 1_555
O12_14 C68_14 1_555 1_555
O13_14 C68_14 1_555 1_555
Zn10_6 N7_14 1_555 1_555
O14_8 Zn5_5 1_555 1_555
O15_8 Zn8_3 1_555 1_555
O20_7 Zn8_3 1_555 1_555
O21_8 Zn10_6 1_555 1_555
C4_14 N7_14 1_555 1_555
C6_14 C11_14 1_555 1_555
C16_14 C17_14 1_555 1_555
C18_14 C19_14 1_555 1_555
C24_14 C25_14 1_555 1_555
C30_14 C33_14 1_555 1_555
C31_14 C32_18 1_555 1_555
C35_14 C36_14 1_555 1_555
C36_14 N1_14 1_555 1_555
C37_14 N2_14 1_555 1_555
C38_14 N3_14 1_555 1_555
C44_14 C45_14 1_555 1_555
C49_14 N1_14 1_555 1_555
C50_14 C51_14 1_555 1_555
C53_14 N8_14 1_555 1_555
C54_14 N8_14 1_555 1_555
N4_14 N5_14 1_555 1_555
O4_14 Zn5_5 1_555 1_555
O7_14 Zn8_3 1_555 1_555
O12_14 Zn10_6 1_555 1_555
O13_14 Zn10_6 1_555 1_555
Zn5_6 O1_8 1_555 1_555
C55_14 C56_14 1_555 1_555
C56_14 C57_12 1_555 1_555
C57_12 H42_12 1_555 1_555
C58_12 C57_12 1_555 1_555
H43_12 C58_12 1_555 1_555
C59_12 C58_12 1_555 1_555
C60_14 C59_12 1_555 1_555
H44_14 C60_14 1_555 1_555
C61_14 C56_14 1_555 1_555
H45_14 C61_14 1_555 1_555
C62_12 C59_12 1_555 1_555
C63_12 C62_12 1_555 1_555
H46_12 C63_12 1_555 1_555
C64_12 C63_12 1_555 1_555
H47_12 C64_12 1_555 1_555
C65_12 C64_12 1_555 1_555
C66_12 C65_12 1_555 1_555
H48_12 C66_12 1_555 1_555
C67_12 C62_12 1_555 1_555
H49_14 C67_12 1_555 1_555
C69_12 C70_12 1_555 1_555
C70_12 H50_12 1_555 1_555
C71_12 C70_12 1_555 1_555
H51_12 C71_12 1_555 1_555
C72_12 C71_12 1_555 1_555
C73_12 C72_12 1_555 1_555
H52_12 C73_12 1_555 1_555
C74_12 C69_12 1_555 1_555
H53_12 C74_12 1_555 1_555
C75_12 C72_12 1_555 1_555
C76_12 C75_12 1_555 1_555
H54_12 C76_12 1_555 1_555
C77_12 C76_12 1_555 1_555
H55_12 C77_12 1_555 1_555
C78_12 C77_12 1_555 1_555
C79_12 C78_12 1_555 1_555
H56_12 C79_12 1_555 1_555
C80_12 C75_12 1_555 1_555
H57_12 C80_12 1_555 1_555
C81_14 C82_14 1_555 1_555
C82_14 C83_14 1_555 1_555
C83_14 H58_14 1_555 1_555
C84_14 C83_14 1_555 1_555
H59_14 C84_14 1_555 1_555
C85_14 C84_14 1_555 1_555
C86_14 C85_14 1_555 1_555
H60_14 C86_14 1_555 1_555
C87_14 C82_14 1_555 1_555
H61_14 C87_14 1_555 1_555
C88_14 C85_14 1_555 1_555
C89_12 C88_14 1_555 1_555
H62_12 C89_12 1_555 1_555
C90_12 C89_12 1_555 1_555
H63_12 C90_12 1_555 1_555
C91_12 C90_12 1_555 1_555
C92_12 C91_12 1_555 1_555
H64_12 C92_12 1_555 1_555
C93_12 C88_14 1_555 1_555
H65_14 C93_12 1_555 1_555
N9_12 C65_12 1_555 1_555
O18_9 C81_14 1_555 1_555
O9_10 C81_14 1_555 1_555
O20_7 C55_14 1_555 1_555
O11_8 C55_14 1_555 1_555
Zn11_6 O9_10 1_555 1_555
Zn10_5 O11_8 1_555 1_555
C60_14 C61_14 1_555 1_555
C66_12 C67_12 1_555 1_555
C73_12 C74_12 1_555 1_555
C78_12 N9_12 1_555 1_555
C79_12 C80_12 1_555 1_555
C86_14 C87_14 1_555 1_555
C91_12 N9_12 1_555 1_555
C92_12 C93_12 1_555 1_555
C55_15 C56_15 1_555 1_555
C56_15 C57_13 1_555 1_555
C57_13 H42_13 1_555 1_555
C58_13 C57_13 1_555 1_555
H43_13 C58_13 1_555 1_555
C59_13 C58_13 1_555 1_555
C60_15 C59_13 1_555 1_555
H44_15 C60_15 1_555 1_555
C61_15 C56_15 1_555 1_555
H45_15 C61_15 1_555 1_555
C62_13 C59_13 1_555 1_555
C63_13 C62_13 1_555 1_555
H46_13 C63_13 1_555 1_555
C64_13 C63_13 1_555 1_555
C67_13 C62_13 1_555 1_555
H49_15 C67_13 1_555 1_555
C81_15 C82_15 1_555 1_555
C82_15 C83_15 1_555 1_555
C83_15 H58_15 1_555 1_555
C84_15 C83_15 1_555 1_555
H59_15 C84_15 1_555 1_555
H62_13 C89_13 1_555 1_555
O19_4 C81_15 1_555 1_555
O10_8 C55_15 1_555 1_555
O21_7 C55_15 1_555 1_555
Zn7_4 O10_8 1_555 1_555
C60_15 C61_15 1_555 1_555
C1_15 H1_15 1_555 1_555
C2_15 H2_15 1_555 1_555
C4_15 C1_15 1_555 1_555
H3_15 C4_15 1_555 1_555
C5_15 H4_15 1_555 1_555
C6_15 C1_15 1_555 1_555
C7_15 C6_15 1_555 1_555
C9_15 C5_15 1_555 1_555
H5_15 C9_15 1_555 1_555
C11_15 C2_15 1_555 1_555
H7_15 C11_15 1_555 1_555
C12_15 H8_15 1_555 1_555
C20_15 C21_15 1_555 1_555
C21_15 C12_15 1_555 1_555
H13_15 C21_15 1_555 1_555
C23_15 C20_15 1_555 1_555
H15_15 C23_15 1_555 1_555
H16_15 C24_15 1_555 1_555
C31_15 C30_15 1_555 1_555
H20_15 C31_15 1_555 1_555
H21_15 C32_19 1_555 1_555
C33_15 C9_15 1_555 1_555
C34_15 C33_15 1_555 1_555
H22_15 C34_15 1_555 1_555
C35_15 C34_15 1_555 1_555
H23_15 C35_15 1_555 1_555
C36_15 C5_15 1_555 1_555
C37_15 C23_15 1_555 1_555
H24_15 C37_15 1_555 1_555
C38_15 C20_15 1_555 1_555
C39_15 C40_15 1_555 1_555
C40_15 C41_15 1_555 1_555
C41_15 H25_15 1_555 1_555
C42_15 C41_15 1_555 1_555
H26_15 C42_15 1_555 1_555
C43_15 C42_15 1_555 1_555
C44_15 C43_15 1_555 1_555
H27_15 C44_15 1_555 1_555
C45_15 C40_15 1_555 1_555
H28_15 C45_15 1_555 1_555
C46_15 C43_15 1_555 1_555
C47_15 C46_15 1_555 1_555
H29_15 C47_15 1_555 1_555
C48_15 C47_15 1_555 1_555
H30_15 C48_15 1_555 1_555
C49_15 C48_15 1_555 1_555
C50_15 C49_15 1_555 1_555
H31_15 C50_15 1_555 1_555
C51_15 C46_15 1_555 1_555
H32_15 C51_15 1_555 1_555
C52_15 H33_15 1_555 1_555
C53_15 H34_15 1_555 1_555
H35_15 C53_15 1_555 1_555
H36_15 C53_15 1_555 1_555
C54_15 H37_15 1_555 1_555
H38_15 C54_15 1_555 1_555
H39_15 C54_15 1_555 1_555
N2_15 C12_15 1_555 1_555
N3_15 C7_15 1_555 1_555
N4_15 C7_15 1_555 1_555
N5_15 C38_15 1_555 1_555
N6_15 N3_15 1_555 1_555
H40_15 N6_15 1_555 1_555
H41_15 N6_15 1_555 1_555
N7_15 C2_15 1_555 1_555
N8_15 C52_15 1_555 1_555
O3_15 C39_15 1_555 1_555
O4_15 C39_15 1_555 1_555
O7_15 C52_15 1_555 1_555
Zn4_4 N2_15 1_555 1_555
Zn7_4 O3_15 1_555 1_555
C66_13 C65_13 1_555 1_555
H48_13 C66_13 1_555 1_555
C68_15 C69_13 1_555 1_555
C69_13 C70_13 1_555 1_555
C70_13 H50_13 1_555 1_555
C71_13 C70_13 1_555 1_555
H51_13 C71_13 1_555 1_555
C72_13 C71_13 1_555 1_555
C73_13 C72_13 1_555 1_555
H52_13 C73_13 1_555 1_555
C74_13 C69_13 1_555 1_555
H53_13 C74_13 1_555 1_555
C75_13 C72_13 1_555 1_555
C76_13 C75_13 1_555 1_555
H54_13 C76_13 1_555 1_555
C77_13 C76_13 1_555 1_555
H55_13 C77_13 1_555 1_555
C78_13 C77_13 1_555 1_555
C79_13 C78_13 1_555 1_555
H56_13 C79_13 1_555 1_555
C80_13 C75_13 1_555 1_555
H57_13 C80_13 1_555 1_555
C86_15 C85_15 1_555 1_555
H60_15 C86_15 1_555 1_555
H61_15 C87_15 1_555 1_555
C88_15 C85_15 1_555 1_555
C91_13 C90_13 1_555 1_555
C92_13 C91_13 1_555 1_555
H64_13 C92_13 1_555 1_555
C93_13 C88_15 1_555 1_555
H65_15 C93_13 1_555 1_555
N9_13 C65_13 1_555 1_555
O12_15 C68_15 1_555 1_555
O13_15 C68_15 1_555 1_555
Zn11_6 N7_15 1_555 1_555
O16_10 Zn4_4 1_555 1_555
O17_10 Zn7_4 1_555 1_555
O18_10 Zn7_4 1_555 1_555
C4_15 N7_15 1_555 1_555
C6_15 C11_15 1_555 1_555
C30_15 C33_15 1_555 1_555
C31_15 C32_19 1_555 1_555
C35_15 C36_15 1_555 1_555
C36_15 N1_15 1_555 1_555
C37_15 N2_15 1_555 1_555
C38_15 N3_15 1_555 1_555
C44_15 C45_15 1_555 1_555
C49_15 N1_15 1_555 1_555
C50_15 C51_15 1_555 1_555
C53_15 N8_15 1_555 1_555
C54_15 N8_15 1_555 1_555
N4_15 N5_15 1_555 1_555
O4_15 Zn4_4 1_555 1_555
O7_15 Zn7_4 1_555 1_555
C73_13 C74_13 1_555 1_555
C78_13 N9_13 1_555 1_555
C79_13 C80_13 1_555 1_555
C86_15 C87_15 1_555 1_555
C91_13 N9_13 1_555 1_555
C92_13 C93_13 1_555 1_555
O12_15 Zn11_6 1_555 1_555
O13_15 Zn11_6 1_555 1_555
C3_15 C10_15 1_555 1_555
C8_15 C22_15 1_555 1_555
C10_15 H6_15 1_555 1_555
C13_15 C14_15 1_555 1_555
C14_15 C15_15 1_555 1_555
C15_15 H9_15 1_555 1_555
C16_15 C15_15 1_555 1_555
H10_15 C16_15 1_555 1_555
C17_15 C3_15 1_555 1_555
C18_15 C17_15 1_555 1_555
H11_15 C18_15 1_555 1_555
C19_15 C14_15 1_555 1_555
H12_15 C19_15 1_555 1_555
C22_15 C10_15 1_555 1_555
H14_15 C22_15 1_555 1_555
C25_15 C3_15 1_555 1_555
H17_19 C25_15 1_555 1_555
C26_15 C27_15 1_555 1_555
C27_15 C28_15 1_555 1_555
C28_15 H18_15 1_555 1_555
C29_15 C28_15 1_555 1_555
H19_15 C29_15 1_555 1_555
O14_7 C13_15 1_555 1_555
O15_7 C13_15 1_555 1_555
O16_8 C26_15 1_555 1_555
C16_15 C17_15 1_555 1_555
C18_15 C19_15 1_555 1_555
C53_16 H34_16 1_555 1_555
H35_16 C53_16 1_555 1_555
H36_16 C53_16 1_555 1_555
H38_16 C54_16 1_555 1_555
H39_16 C54_16 1_555 1_555
N8_16 C52_16 1_555 1_555
O7_16 C52_16 1_555 1_555
O20_8 Zn8_4 1_555 1_555
C53_16 N8_16 1_555 1_555
C54_16 N8_16 1_555 1_555
O7_16 Zn8_4 1_555 1_555
C3_16 C10_16 1_555 1_555
C5_16 H4_16 1_555 1_555
C8_16 C22_16 1_555 1_555
C9_16 C5_16 1_555 1_555
H5_16 C9_16 1_555 1_555
C10_16 H6_16 1_555 1_555
C13_16 C14_16 1_555 1_555
C14_16 C15_16 1_555 1_555
C15_16 H9_16 1_555 1_555
C16_16 C15_16 1_555 1_555
H10_16 C16_16 1_555 1_555
C17_16 C3_16 1_555 1_555
C18_16 C17_16 1_555 1_555
H11_16 C18_16 1_555 1_555
C19_16 C14_16 1_555 1_555
H12_16 C19_16 1_555 1_555
C22_16 C10_16 1_555 1_555
H14_16 C22_16 1_555 1_555
C24_16 C8_16 1_555 1_555
H16_16 C24_16 1_555 1_555
C25_16 C3_16 1_555 1_555
H17_20 C25_16 1_555 1_555
C26_16 C27_16 1_555 1_555
C27_16 C28_16 1_555 1_555
C28_16 H18_16 1_555 1_555
C29_16 C28_16 1_555 1_555
H19_16 C29_16 1_555 1_555
C30_16 C29_16 1_555 1_555
C31_16 C30_16 1_555 1_555
H20_16 C31_16 1_555 1_555
C32_20 C27_16 1_555 1_555
H21_16 C32_20 1_555 1_555
C33_16 C9_16 1_555 1_555
C34_16 C33_16 1_555 1_555
H22_16 C34_16 1_555 1_555
C35_16 C34_16 1_555 1_555
H23_16 C35_16 1_555 1_555
C36_16 C5_16 1_555 1_555
C39_16 C40_16 1_555 1_555
C40_16 C41_16 1_555 1_555
C41_16 H25_16 1_555 1_555
C42_16 C41_16 1_555 1_555
H26_16 C42_16 1_555 1_555
C43_16 C42_16 1_555 1_555
C44_16 C43_16 1_555 1_555
H27_16 C44_16 1_555 1_555
C45_16 C40_16 1_555 1_555
H28_16 C45_16 1_555 1_555
C46_16 C43_16 1_555 1_555
C47_16 C46_16 1_555 1_555
H29_16 C47_16 1_555 1_555
C48_16 C47_16 1_555 1_555
H30_16 C48_16 1_555 1_555
C49_16 C48_16 1_555 1_555
C50_16 C49_16 1_555 1_555
H31_16 C50_16 1_555 1_555
C51_16 C46_16 1_555 1_555
H32_16 C51_16 1_555 1_555
N1_16 C8_16 1_555 1_555
O14_8 C13_16 1_555 1_555
O15_8 C13_16 1_555 1_555
O3_16 C39_16 1_555 1_555
O16_10 C26_16 1_555 1_555
O17_10 C26_16 1_555 1_555
C16_16 C17_16 1_555 1_555
C18_16 C19_16 1_555 1_555
C24_16 C25_16 1_555 1_555
C30_16 C33_16 1_555 1_555
C31_16 C32_20 1_555 1_555
C35_16 C36_16 1_555 1_555
C36_16 N1_16 1_555 1_555
C44_16 C45_16 1_555 1_555
C49_16 N1_16 1_555 1_555
C50_16 C51_16 1_555 1_555
C55_16 C56_16 1_555 1_555
H44_16 C60_16 1_555 1_555
C61_16 C56_16 1_555 1_555
H45_16 C61_16 1_555 1_555
O20_8 C55_16 1_555 1_555
O21_8 C55_16 1_555 1_555
C60_16 C61_16 1_555 1_555
C1_16 H1_16 1_555 1_555
C2_16 H2_16 1_555 1_555
C4_16 C1_16 1_555 1_555
H3_16 C4_16 1_555 1_555
C6_16 C1_16 1_555 1_555
C7_16 C6_16 1_555 1_555
C11_16 C2_16 1_555 1_555
H7_16 C11_16 1_555 1_555
C12_16 H8_16 1_555 1_555
C20_16 C21_16 1_555 1_555
C21_16 C12_16 1_555 1_555
H13_16 C21_16 1_555 1_555
C23_16 C20_16 1_555 1_555
H15_16 C23_16 1_555 1_555
C37_16 C23_16 1_555 1_555
H24_16 C37_16 1_555 1_555
C38_16 C20_16 1_555 1_555
N2_16 C12_16 1_555 1_555
N3_16 C7_16 1_555 1_555
N4_16 C7_16 1_555 1_555
N5_16 C38_16 1_555 1_555
N6_16 N3_16 1_555 1_555
H40_16 N6_16 1_555 1_555
H41_16 N6_16 1_555 1_555
N7_16 C2_16 1_555 1_555
Zn5_6 N2_16 1_555 1_555
C57_14 H42_14 1_555 1_555
C58_14 C57_14 1_555 1_555
H43_14 C58_14 1_555 1_555
C59_14 C58_14 1_555 1_555
C62_14 C59_14 1_555 1_555
C63_14 C62_14 1_555 1_555
H46_14 C63_14 1_555 1_555
C64_14 C63_14 1_555 1_555
H47_14 C64_14 1_555 1_555
C65_14 C64_14 1_555 1_555
C66_14 C65_14 1_555 1_555
H48_14 C66_14 1_555 1_555
C67_14 C62_14 1_555 1_555
C68_16 C69_14 1_555 1_555
C69_14 C70_14 1_555 1_555
C70_14 H50_14 1_555 1_555
C71_14 C70_14 1_555 1_555
H51_14 C71_14 1_555 1_555
C72_14 C71_14 1_555 1_555
C73_14 C72_14 1_555 1_555
H52_14 C73_14 1_555 1_555
C74_14 C69_14 1_555 1_555
H53_14 C74_14 1_555 1_555
C75_14 C72_14 1_555 1_555
C76_14 C75_14 1_555 1_555
H54_14 C76_14 1_555 1_555
C77_14 C76_14 1_555 1_555
H55_14 C77_14 1_555 1_555
C78_14 C77_14 1_555 1_555
C79_14 C78_14 1_555 1_555
H56_14 C79_14 1_555 1_555
C80_14 C75_14 1_555 1_555
H57_14 C80_14 1_555 1_555
C81_16 C82_16 1_555 1_555
C82_16 C83_16 1_555 1_555
C83_16 H58_16 1_555 1_555
C84_16 C83_16 1_555 1_555
H59_16 C84_16 1_555 1_555
C85_16 C84_16 1_555 1_555
C86_16 C85_16 1_555 1_555
H60_16 C86_16 1_555 1_555
C87_16 C82_16 1_555 1_555
H61_16 C87_16 1_555 1_555
C88_16 C85_16 1_555 1_555
C89_14 C88_16 1_555 1_555
H62_14 C89_14 1_555 1_555
C90_14 C89_14 1_555 1_555
H63_14 C90_14 1_555 1_555
C91_14 C90_14 1_555 1_555
C92_14 C91_14 1_555 1_555
H64_14 C92_14 1_555 1_555
C93_14 C88_16 1_555 1_555
H65_16 C93_14 1_555 1_555
N9_14 C65_14 1_555 1_555
O18_10 C81_16 1_555 1_555
O19_6 C81_16 1_555 1_555
O12_16 C68_16 1_555 1_555
O13_16 C68_16 1_555 1_555
Zn10_5 N7_16 1_555 1_555
C4_16 N7_16 1_555 1_555
C6_16 C11_16 1_555 1_555
C37_16 N2_16 1_555 1_555
C38_16 N3_16 1_555 1_555
N4_16 N5_16 1_555 1_555
O4_16 Zn5_6 1_555 1_555
C66_14 C67_14 1_555 1_555
C73_14 C74_14 1_555 1_555
C78_14 N9_14 1_555 1_555
C79_14 C80_14 1_555 1_555
C86_16 C87_16 1_555 1_555
C91_14 N9_14 1_555 1_555
C92_14 C93_14 1_555 1_555
O12_16 Zn10_5 1_555 1_555
O13_16 Zn10_5 1_555 1_555
C57_15 H42_15 1_555 1_555
C58_15 C57_15 1_555 1_555
H43_15 C58_15 1_555 1_555
C59_15 C58_15 1_555 1_555
C62_15 C59_15 1_555 1_555
C63_15 C62_15 1_555 1_555
H46_15 C63_15 1_555 1_555
C64_15 C63_15 1_555 1_555
H47_15 C64_15 1_555 1_555
C65_15 C64_15 1_555 1_555
C66_15 C65_15 1_555 1_555
H48_15 C66_15 1_555 1_555
C67_15 C62_15 1_555 1_555
C69_15 C70_15 1_555 1_555
C70_15 H50_15 1_555 1_555
C71_15 C70_15 1_555 1_555
H51_15 C71_15 1_555 1_555
C72_15 C71_15 1_555 1_555
C73_15 C72_15 1_555 1_555
H52_15 C73_15 1_555 1_555
C74_15 C69_15 1_555 1_555
H53_15 C74_15 1_555 1_555
C75_15 C72_15 1_555 1_555
C76_15 C75_15 1_555 1_555
H54_15 C76_15 1_555 1_555
C77_15 C76_15 1_555 1_555
H55_15 C77_15 1_555 1_555
C78_15 C77_15 1_555 1_555
C79_15 C78_15 1_555 1_555
H56_15 C79_15 1_555 1_555
C80_15 C75_15 1_555 1_555
H57_15 C80_15 1_555 1_555
H62_15 C89_15 1_555 1_555
C90_15 C89_15 1_555 1_555
H63_15 C90_15 1_555 1_555
C91_15 C90_15 1_555 1_555
C92_15 C91_15 1_555 1_555
H64_15 C92_15 1_555 1_555
N9_15 C65_15 1_555 1_555
C66_15 C67_15 1_555 1_555
C73_15 C74_15 1_555 1_555
C78_15 N9_15 1_555 1_555
C79_15 C80_15 1_555 1_555
C91_15 N9_15 1_555 1_555
C92_15 C93_15 1_555 1_555
C57_16 H42_16 1_555 1_555
C58_16 C57_16 1_555 1_555
H43_16 C58_16 1_555 1_555
C59_16 C58_16 1_555 1_555
C62_16 C59_16 1_555 1_555
C63_16 C62_16 1_555 1_555
H46_16 C63_16 1_555 1_555
C64_16 C63_16 1_555 1_555
H47_16 C64_16 1_555 1_555
C65_16 C64_16 1_555 1_555
C66_16 C65_16 1_555 1_555
H48_16 C66_16 1_555 1_555
C67_16 C62_16 1_555 1_555
C69_16 C70_16 1_555 1_555
C70_16 H50_16 1_555 1_555
C71_16 C70_16 1_555 1_555
H51_16 C71_16 1_555 1_555
C72_16 C71_16 1_555 1_555
C73_16 C72_16 1_555 1_555
H52_16 C73_16 1_555 1_555
C74_16 C69_16 1_555 1_555
H53_16 C74_16 1_555 1_555
C75_16 C72_16 1_555 1_555
C76_16 C75_16 1_555 1_555
H54_16 C76_16 1_555 1_555
C77_16 C76_16 1_555 1_555
H55_16 C77_16 1_555 1_555
C78_16 C77_16 1_555 1_555
C79_16 C78_16 1_555 1_555
H56_16 C79_16 1_555 1_555
C80_16 C75_16 1_555 1_555
H57_16 C80_16 1_555 1_555
H62_16 C89_16 1_555 1_555
C90_16 C89_16 1_555 1_555
H63_16 C90_16 1_555 1_555
C91_16 C90_16 1_555 1_555
C92_16 C91_16 1_555 1_555
H64_16 C92_16 1_555 1_555
N9_16 C65_16 1_555 1_555
C66_16 C67_16 1_555 1_555
C73_16 C74_16 1_555 1_555
C78_16 N9_16 1_555 1_555
C79_16 C80_16 1_555 1_555
C91_16 N9_16 1_555 1_555
C92_16 C93_16 1_555 1_555

#END
