
###############################################################################
#
# This file contains modified crystal structure data generated from the
# MOF subset of the Cambridge Structural Database (CSD) v543 
# hosted by the Cambridge Crystallographic Data Centre (CCDC).
#
# This work is licensed under the Creative Commons
# Attribution-NonCommercial-ShareAlike 4.0 International License.
# To view a copy of this license, visit
# http://creativecommons.org/licenses/by-nc-sa/4.0/
# or send a letter to
# Creative Commons, PO Box 1866, Mountain View, CA 94042, USA.
#
# CIF created using the CSD Python API on 29 September 2022
# The structure has been converted into the P1 space group
# The structure has a 3D framework
# The original CSD entry ASIQEA is in the tetragonal crystal system
# The framework has been calculated to contain at least 10.0% void space
# The void calculation uses a probe of radius 1.32A, grid spacing 0.4
# The framework is charged, counterions have been retained in the structure
#
###############################################################################

data_ASIQEA
_chemical_formula_moiety         '(C104 H72 Cu7 N32 O16 6+)n'
_symmetry_cell_setting           triclinic
_symmetry_space_group_name_H-M   'P 1'
_symmetry_Int_Tables_number      1
_space_group_name_Hall           'P 1'
loop_
_symmetry_equiv_pos_site_id
_symmetry_equiv_pos_as_xyz
1 x,y,z
_cell_length_a                   18.001(5)
_cell_length_b                   18.001(5)
_cell_length_c                   12.946(5)
_cell_angle_alpha                90
_cell_angle_beta                 90
_cell_angle_gamma                90
_cell_volume                     4194.97
loop_
_atom_site_label
_atom_site_type_symbol
_atom_site_fract_x
_atom_site_fract_y
_atom_site_fract_z
Cu3 Cu 0.5000 0.0000 0.0000
Cu4 Cu -0.0000 0.5000 0.0000
Cu1 Cu -0.0000 1.0000 0.5000
N5 N 0.4426(2) 0.9563(2) 0.6925(3)
N6 N 0.4860(2) 0.9888(2) 0.8461(3)
N7 N 0.0871(2) 0.9339(2) 0.5258(3)
N8 N 0.2015(2) 0.8935(2) 0.5440(3)
C14 C 0.3987(2) 0.9222(2) 0.6145(3)
C15 C 0.1579(3) 0.9528(3) 0.5291(4)
C16 C 0.3924(3) 0.8488(3) 0.4604(4)
C17 C 0.3212(2) 0.9272(3) 0.6175(4)
H11 H 0.2974 0.9535 0.6697
C18 C 0.2812(2) 0.8920(2) 0.5411(4)
C19 C 0.4314(3) 0.9562(3) 0.7954(4)
H12 H 0.3899 0.9355 0.8272
O3 O 0.5003(3) 0.8012(3) 0.3721(5)
C21 C 0.4338(2) 0.8824(3) 0.5376(4)
H14 H 0.4853 0.8782 0.5375
C22 C 0.3149(3) 0.8538(3) 0.4626(4)
H15 H 0.2866 0.8314 0.4112
C23 C 0.5099(3) 0.9916(3) 0.6763(4)
H16 H 0.5330 0.9999 0.6131
C24 C 0.0857(3) 0.8585(3) 0.5408(5)
H17 H 0.0430 0.8295 0.5431
O4 O 0.3902(3) 0.7655(4) 0.3191(5)
C25 C 0.1553(3) 0.8328(3) 0.5516(6)
H18 H 0.1694 0.7837 0.5622
C26 C 0.4282(3) 0.8039(3) 0.3765(5)
Cu3_2 Cu 0.5000 1.0000 1.0000
N10 N 0.0112(2) 0.9860(2) 0.3461(3)
C34 C 0.0116(3) 0.9647(3) 0.7299(4)
H21 H 0.0370 0.9205 0.7179
N14 N 0.0661(2) 0.5871(2) 0.0258(3)
C40 C 0.0438(3) 0.9314(3) 0.2954(4)
N18 N 0.1065(2) 0.7015(2) 0.0440(3)
C42 C 0.0472(3) 0.6579(3) 0.0291(4)
C43 C 0.1080(2) 0.7812(2) 0.0411(4)
C44 C 0.1672(3) 0.6553(3) 0.0516(6)
C45 C 0.1415(3) 0.5857(3) 0.0408(5)
C46 C 0.0778(2) 0.8987(2) 0.1145(3)
C47 C 0.0728(3) 0.8212(2) 0.1175(4)
C49 C 0.1176(3) 0.9338(2) 0.0376(4)
N19 N 0.0437(2) 0.9426(2) 0.1925(3)
H29 H 0.1218 0.9853 0.0375
H31 H 0.2163 0.6694 0.0622
H34 H 0.0645 0.8899 0.3272
H35 H 0.0465 0.7974 0.1697
H36 H 0.1705 0.5430 0.0431
Cu1_2 Cu 1.0000 0.0000 0.5000
N1 N 0.5574(2) 0.0437(2) 0.3075(3)
N2 N 0.5140(2) 0.0112(2) 0.1539(3)
N3 N 0.9129(2) 0.0661(2) 0.4742(3)
N4 N 0.7985(2) 0.1065(2) 0.4560(3)
C1 C 0.6013(2) 0.0778(2) 0.3855(3)
C2 C 0.8421(3) 0.0472(3) 0.4709(4)
C3 C 0.6076(3) 0.1512(3) 0.5396(4)
C4 C 0.6788(2) 0.0728(3) 0.3825(4)
H2 H 0.7026 0.0465 0.3303
C5 C 0.7188(2) 0.1080(2) 0.4589(4)
C6 C 0.5686(3) 0.0438(3) 0.2046(4)
H3 H 0.6101 0.0645 0.1728
O1 O 0.4997(3) 0.1988(3) 0.6279(5)
C8 C 0.5662(2) 0.1176(3) 0.4624(4)
H5 H 0.5147 0.1218 0.4625
C9 C 0.6851(3) 0.1462(3) 0.5374(4)
H6 H 0.7134 0.1686 0.5888
C10 C 0.4901(3) 0.0084(3) 0.3237(4)
H7 H 0.4670 0.0001 0.3869
C11 C 0.9143(3) 0.1415(3) 0.4592(5)
H8 H 0.9570 0.1705 0.4569
O2 O 0.6098(3) 0.2345(4) 0.6809(5)
C12 C 0.8447(3) 0.1672(3) 0.4484(6)
H9 H 0.8306 0.2163 0.4378
C13 C 0.5718(3) 0.1961(3) 0.6235(5)
N9 N 0.9888(2) 0.0140(2) 0.6539(3)
N11 N 0.9563(2) 0.0574(2) 0.8075(3)
C27 C 0.9562(3) 0.0686(3) 0.7046(4)
Cu4_2 Cu 1.0000 0.5000 1.0000
N12 N 0.8935(2) 0.2985(2) 0.9560(3)
C28 C 0.8920(2) 0.2188(2) 0.9589(4)
C29 C 0.8328(3) 0.3447(3) 0.9484(6)
N13 N 0.9339(2) 0.4129(2) 0.9742(3)
C30 C 0.9222(2) 0.1013(2) 0.8855(3)
C31 C 0.9272(3) 0.1788(2) 0.8825(4)
C32 C 0.9528(3) 0.3421(3) 0.9709(4)
C33 C 0.8824(3) 0.0662(2) 0.9624(4)
C38 C 0.8585(3) 0.4143(3) 0.9592(5)
H20 H 0.9535 0.2026 0.8303
H22 H 0.8782 0.0147 0.9625
H24 H 0.9355 0.1101 0.6728
H26 H 0.7837 0.3306 0.9378
H27 H 0.8295 0.4570 0.9569
C41 C 0.9884(3) 0.0353(3) 0.2701(4)
H33 H 0.9630 0.0795 0.2821
O1_2 O 0.0003(3) 0.3012(3) 0.6279(5)
C7 C 0.0353(3) 0.5116(3) 0.2299(4)
H4 H 0.0795 0.5370 0.2179
C10_2 C 0.0099(3) 0.4916(3) 0.3237(4)
H7_2 H 0.0330 0.4999 0.3869
C35 C 0.6512(3) 0.3924(3) 0.0396(4)
C36 C 0.6462(3) 0.3149(3) 0.0374(4)
O5 O 0.6988(3) 0.5003(3) 0.1279(5)
C39 C 0.6961(3) 0.4282(3) 0.1235(5)
H25 H 0.6686 0.2866 0.0888
O6 O 0.7345(4) 0.3902(3) 0.1809(5)
C48 C 0.3488(3) 0.6076(3) 0.9604(4)
O7 O 0.3012(3) 0.4997(3) 0.8721(5)
C51 C 0.3039(3) 0.5718(3) 0.8765(5)
C52 C 0.3538(3) 0.6851(3) 0.9626(4)
H32 H 0.3314 0.7134 0.9112
O8 O 0.2655(4) 0.6098(3) 0.8191(5)
O3_2 O 0.9997(3) 0.6988(3) 0.3721(5)
C20 C 0.9647(3) 0.4884(3) 0.7701(4)
H13 H 0.9205 0.4630 0.7821
C23_2 C 0.9901(3) 0.5084(3) 0.6763(4)
H16_2 H 0.9670 0.5001 0.6131
Cu1_3 Cu 0.0000 0.0000 0.5000
H10 H 0.1753 0.0011 0.5219
C20_2 C 0.5353(3) 0.0116(3) 0.7701(4)
H13_2 H 0.5795 0.0370 0.7821
Cu3_3 Cu 0.5000 0.0000 1.0000
Cu4_3 Cu 0.0000 0.5000 1.0000
H19 H 0.0011 0.3247 0.9781
C50 C 0.0084(3) 0.0099(3) 0.1763(4)
H30 H 0.0001 0.0330 0.1131
Cu3_4 Cu 0.5000 1.0000 0.0000
N15 N 0.0140(2) 0.5112(2) 0.8461(3)
C48_2 C 0.1512(3) 0.8924(3) 0.9604(4)
C51_2 C 0.1961(3) 0.9282(3) 0.8765(5)
C52_2 C 0.1462(3) 0.8149(3) 0.9626(4)
H32_2 H 0.1686 0.7866 0.9112
O8_2 O 0.2345(4) 0.8902(3) 0.8191(5)
Cu4_4 Cu 1.0000 0.5000 0.0000
C35_2 C 0.8488(3) 0.1076(3) 0.0396(4)
C36_2 C 0.8538(3) 0.1851(3) 0.0374(4)
C39_2 C 0.8039(3) 0.0718(3) 0.1235(5)
H25_2 H 0.8314 0.2134 0.0888
O6_2 O 0.7655(4) 0.1098(3) 0.1809(5)
Cu1_4 Cu 1.0000 1.0000 0.5000
H1 H 0.8247 0.9989 0.4781
C7_2 C 0.4647(3) 0.9884(3) 0.2299(4)
H4_2 H 0.4205 0.9630 0.2179
C37 C 0.9916(3) 0.9901(3) 0.8237(4)
H23 H 0.9999 0.9670 0.8869
N17 N 0.9860(2) 0.4888(2) 0.1539(3)
H28 H 0.9989 0.6753 0.0219
N16 N 0.5661(2) 0.0871(2) 0.9742(3)
Cu1_5 Cu 0.5000 0.5000 0.5000
N1_2 N 0.9426(2) 0.4563(2) 0.3075(3)
N3_2 N 0.5871(2) 0.4339(2) 0.4742(3)
N4_2 N 0.7015(2) 0.3935(2) 0.4560(3)
C1_2 C 0.8987(2) 0.4222(2) 0.3855(3)
C2_2 C 0.6579(3) 0.4528(3) 0.4709(4)
H1_2 H 0.6753 0.5011 0.4781
C3_2 C 0.8924(3) 0.3488(3) 0.5396(4)
C4_2 C 0.8212(2) 0.4272(3) 0.3825(4)
H2_2 H 0.7974 0.4535 0.3303
C5_2 C 0.7812(2) 0.3920(2) 0.4589(4)
C6_2 C 0.9314(3) 0.4562(3) 0.2046(4)
H3_2 H 0.8899 0.4355 0.1728
C8_2 C 0.9338(2) 0.3824(3) 0.4624(4)
H5_2 H 0.9853 0.3782 0.4625
C9_2 C 0.8149(3) 0.3538(3) 0.5374(4)
H6_2 H 0.7866 0.3314 0.5888
C11_2 C 0.5857(3) 0.3585(3) 0.4592(5)
H8_2 H 0.5430 0.3295 0.4569
O2_2 O 0.8902(3) 0.2655(4) 0.6809(5)
C12_2 C 0.6553(3) 0.3328(3) 0.4484(6)
H9_2 H 0.6694 0.2837 0.4378
C13_2 C 0.9282(3) 0.3039(3) 0.6235(5)
N5_2 N 0.0574(2) 0.5437(2) 0.6925(3)
N7_2 N 0.4129(2) 0.5661(2) 0.5258(3)
N8_2 N 0.2985(2) 0.6065(2) 0.5440(3)
C14_2 C 0.1013(2) 0.5778(2) 0.6145(3)
C15_2 C 0.3421(3) 0.5472(3) 0.5291(4)
H10_2 H 0.3247 0.4989 0.5219
C16_2 C 0.1076(3) 0.6512(3) 0.4604(4)
C17_2 C 0.1788(2) 0.5728(3) 0.6175(4)
H11_2 H 0.2026 0.5465 0.6697
C18_2 C 0.2188(2) 0.6080(2) 0.5411(4)
C19_2 C 0.0686(3) 0.5438(3) 0.7954(4)
H12_2 H 0.1101 0.5645 0.8272
C21_2 C 0.0662(2) 0.6176(3) 0.5376(4)
H14_2 H 0.0147 0.6218 0.5375
C22_2 C 0.1851(3) 0.6462(3) 0.4626(4)
H15_2 H 0.2134 0.6686 0.4112
C24_2 C 0.4143(3) 0.6415(3) 0.5408(5)
H17_2 H 0.4570 0.6705 0.5431
O4_2 O 0.1098(3) 0.7345(4) 0.3191(5)
C25_2 C 0.3447(3) 0.6672(3) 0.5516(6)
H18_2 H 0.3306 0.7163 0.5622
C26_2 C 0.0718(3) 0.6961(3) 0.3765(5)
N9_2 N 0.5112(2) 0.4860(2) 0.6539(3)
N10_2 N 0.4888(2) 0.5140(2) 0.3461(3)
N11_2 N 0.5437(2) 0.4426(2) 0.8075(3)
C27_2 C 0.5438(3) 0.4314(3) 0.7046(4)
N12_2 N 0.6065(2) 0.2015(2) 0.9560(3)
C28_2 C 0.6080(2) 0.2812(2) 0.9589(4)
C29_2 C 0.6672(3) 0.1553(3) 0.9484(6)
C30_2 C 0.5778(2) 0.3987(2) 0.8855(3)
C31_2 C 0.5728(3) 0.3212(2) 0.8825(4)
C32_2 C 0.5472(3) 0.1579(3) 0.9709(4)
C33_2 C 0.6176(3) 0.4338(2) 0.9624(4)
H19_2 H 0.4989 0.1753 0.9781
C34_2 C 0.4884(3) 0.5353(3) 0.7299(4)
C37_2 C 0.5084(3) 0.5099(3) 0.8237(4)
C38_2 C 0.6415(3) 0.0857(3) 0.9592(5)
H20_2 H 0.5465 0.2974 0.8303
H21_2 H 0.4630 0.5795 0.7179
H22_2 H 0.6218 0.4853 0.9625
H23_2 H 0.5001 0.5330 0.8869
H24_2 H 0.5645 0.3899 0.6728
H26_2 H 0.7163 0.1694 0.9378
H27_2 H 0.6705 0.0430 0.9569
N14_2 N 0.4339(2) 0.9129(2) 0.0258(3)
C40_2 C 0.4562(3) 0.5686(3) 0.2954(4)
C41_2 C 0.5116(3) 0.4647(3) 0.2701(4)
N18_2 N 0.3935(2) 0.7985(2) 0.0440(3)
C42_2 C 0.4528(3) 0.8421(3) 0.0291(4)
C43_2 C 0.3920(2) 0.7188(2) 0.0411(4)
C44_2 C 0.3328(3) 0.8447(3) 0.0516(6)
C45_2 C 0.3585(3) 0.9143(3) 0.0408(5)
C46_2 C 0.4222(2) 0.6013(2) 0.1145(3)
C47_2 C 0.4272(3) 0.6788(2) 0.1175(4)
H28_2 H 0.5011 0.8247 0.0219
C49_2 C 0.3824(3) 0.5662(2) 0.0376(4)
N19_2 N 0.4563(2) 0.5574(2) 0.1925(3)
C50_2 C 0.4916(3) 0.4901(3) 0.1763(4)
H29_2 H 0.3782 0.5147 0.0375
H30_2 H 0.4999 0.4670 0.1131
H31_2 H 0.2837 0.8306 0.0622
H33_2 H 0.5370 0.4205 0.2821
H34_2 H 0.4355 0.6101 0.3272
H35_2 H 0.4535 0.7026 0.1697
H36_2 H 0.3295 0.9570 0.0431
O7_2 O 0.1988(3) 0.0003(3) 0.8721(5)
O5_2 O 0.8012(3) 0.9997(3) 0.1279(5)
loop_
_geom_bond_atom_site_label_1
_geom_bond_atom_site_label_2
_geom_bond_site_symmetry_1
_geom_bond_site_symmetry_2
N5 C14 1_555 1_555
N6 C19 1_555 1_555
N7 Cu1 1_555 1_555
N8 C15 1_555 1_555
C14 C17 1_555 1_555
C15 N7 1_555 1_555
C16 C21 1_555 1_555
C17 H11 1_555 1_555
C18 N8 1_555 1_555
C19 N5 1_555 1_555
H12 C19 1_555 1_555
O3 C26 1_555 1_555
C21 C14 1_555 1_555
H14 C21 1_555 1_555
C22 C16 1_555 1_555
H15 C22 1_555 1_555
C23 N5 1_555 1_555
H16 C23 1_555 1_555
C24 N7 1_555 1_555
H17 C24 1_555 1_555
O4 C26 1_555 1_555
C25 N8 1_555 1_555
H18 C25 1_555 1_555
C26 C16 1_555 1_555
Cu3_2 N6 1_555 1_555
N10 Cu1 1_555 1_555
H21 C34 1_555 1_555
Cu4 N14 1_555 1_555
N14 C42 1_555 1_555
C40 N10 1_555 1_555
N18 C42 1_555 1_555
C43 N18 1_555 1_555
C44 N18 1_555 1_555
C45 N14 1_555 1_555
C46 C47 1_555 1_555
C47 C43 1_555 1_555
C49 C46 1_555 1_555
N19 C40 1_555 1_555
H29 C49 1_555 1_555
H31 C44 1_555 1_555
H34 C40 1_555 1_555
H35 C47 1_555 1_555
H36 C45 1_555 1_555
C17 C18 1_555 1_555
C18 C22 1_555 1_555
C24 C25 1_555 1_555
C44 C45 1_555 1_555
C46 N19 1_555 1_555
Cu1_2 N3 1_555 1_555
N1 C1 1_555 1_555
N2 C6 1_555 1_555
N3 C2 1_555 1_555
N4 C2 1_555 1_555
C1 C4 1_555 1_555
C3 C8 1_555 1_555
C4 H2 1_555 1_555
C5 N4 1_555 1_555
C6 N1 1_555 1_555
H3 C6 1_555 1_555
O1 C13 1_555 1_555
C8 C1 1_555 1_555
H5 C8 1_555 1_555
C9 C3 1_555 1_555
H6 C9 1_555 1_555
C10 N1 1_555 1_555
H7 C10 1_555 1_555
C11 N3 1_555 1_555
H8 C11 1_555 1_555
O2 C13 1_555 1_555
C12 N4 1_555 1_555
H9 C12 1_555 1_555
C13 C3 1_555 1_555
Cu3 N2 1_555 1_555
N9 Cu1_2 1_555 1_555
N11 C27 1_555 1_555
C27 N9 1_555 1_555
Cu4_2 N13 1_555 1_555
N12 C28 1_555 1_555
C28 C31 1_555 1_555
C29 N12 1_555 1_555
N13 C32 1_555 1_555
C30 N11 1_555 1_555
C31 C30 1_555 1_555
C32 N12 1_555 1_555
C33 C30 1_555 1_555
C38 C29 1_555 1_555
H20 C31 1_555 1_555
H22 C33 1_555 1_555
H24 C27 1_555 1_555
H26 C29 1_555 1_555
H27 C38 1_555 1_555
H33 C41 1_555 1_555
C4 C5 1_555 1_555
C5 C9 1_555 1_555
C11 C12 1_555 1_555
N13 C38 1_555 1_555
H4 C7 1_555 1_555
H7_2 C10_2 1_555 1_555
C7 C10_2 1_555 1_555
O5 C39 1_555 1_555
C39 C35 1_555 1_555
H25 C36 1_555 1_555
O6 C39 1_555 1_555
C35 C36 1_555 1_555
O7 C51 1_555 1_555
C51 C48 1_555 1_555
H32 C52 1_555 1_555
O8 C51 1_555 1_555
C48 C52 1_555 1_555
H13 C20 1_555 1_555
H16_2 C23_2 1_555 1_555
C20 C23_2 1_555 1_555
H13_2 C20_2 1_555 1_555
H30 C50 1_555 1_555
N15 Cu4_3 1_555 1_555
C51_2 C48_2 1_555 1_555
H32_2 C52_2 1_555 1_555
O8_2 C51_2 1_555 1_555
C48_2 C52_2 1_555 1_555
C39_2 C35_2 1_555 1_555
H25_2 C36_2 1_555 1_555
O6_2 C39_2 1_555 1_555
C35_2 C36_2 1_555 1_555
H4_2 C7_2 1_555 1_555
H23 C37 1_555 1_555
N17 Cu4_4 1_555 1_555
N16 Cu3_3 1_555 1_555
Cu1_5 N3_2 1_555 1_555
N1_2 C1_2 1_555 1_555
N17 C6_2 1_555 1_555
N3_2 C2_2 1_555 1_555
N4_2 C2_2 1_555 1_555
C1_2 C4_2 1_555 1_555
C2_2 H1_2 1_555 1_555
C3_2 C8_2 1_555 1_555
C4_2 H2_2 1_555 1_555
C5_2 N4_2 1_555 1_555
C6_2 N1_2 1_555 1_555
H3_2 C6_2 1_555 1_555
C8_2 C1_2 1_555 1_555
H5_2 C8_2 1_555 1_555
C9_2 C3_2 1_555 1_555
H6_2 C9_2 1_555 1_555
C11_2 N3_2 1_555 1_555
H8_2 C11_2 1_555 1_555
O2_2 C13_2 1_555 1_555
C12_2 N4_2 1_555 1_555
H9_2 C12_2 1_555 1_555
C13_2 C3_2 1_555 1_555
N5_2 C14_2 1_555 1_555
N15 C19_2 1_555 1_555
N7_2 Cu1_5 1_555 1_555
N8_2 C15_2 1_555 1_555
C14_2 C17_2 1_555 1_555
C15_2 N7_2 1_555 1_555
H10_2 C15_2 1_555 1_555
C16_2 C21_2 1_555 1_555
C17_2 H11_2 1_555 1_555
C18_2 N8_2 1_555 1_555
C19_2 N5_2 1_555 1_555
H12_2 C19_2 1_555 1_555
C21_2 C14_2 1_555 1_555
H14_2 C21_2 1_555 1_555
C22_2 C16_2 1_555 1_555
H15_2 C22_2 1_555 1_555
C24_2 N7_2 1_555 1_555
H17_2 C24_2 1_555 1_555
O4_2 C26_2 1_555 1_555
C25_2 N8_2 1_555 1_555
H18_2 C25_2 1_555 1_555
C26_2 C16_2 1_555 1_555
N9_2 Cu1_5 1_555 1_555
N10_2 Cu1_5 1_555 1_555
N11_2 C27_2 1_555 1_555
C27_2 N9_2 1_555 1_555
N12_2 C28_2 1_555 1_555
C28_2 C31_2 1_555 1_555
C29_2 N12_2 1_555 1_555
N16 C32_2 1_555 1_555
C30_2 N11_2 1_555 1_555
C31_2 C30_2 1_555 1_555
C32_2 N12_2 1_555 1_555
C33_2 C30_2 1_555 1_555
H19_2 C32_2 1_555 1_555
C34_2 N9_2 1_555 1_555
C37_2 N11_2 1_555 1_555
C38_2 C29_2 1_555 1_555
H20_2 C31_2 1_555 1_555
H21_2 C34_2 1_555 1_555
H22_2 C33_2 1_555 1_555
H23_2 C37_2 1_555 1_555
H24_2 C27_2 1_555 1_555
H26_2 C29_2 1_555 1_555
H27_2 C38_2 1_555 1_555
Cu3_4 N14_2 1_555 1_555
N14_2 C42_2 1_555 1_555
C40_2 N10_2 1_555 1_555
C41_2 N10_2 1_555 1_555
N18_2 C42_2 1_555 1_555
C42_2 H28_2 1_555 1_555
C43_2 N18_2 1_555 1_555
C44_2 N18_2 1_555 1_555
C45_2 N14_2 1_555 1_555
C46_2 C47_2 1_555 1_555
C47_2 C43_2 1_555 1_555
C49_2 C46_2 1_555 1_555
N19_2 C40_2 1_555 1_555
C50_2 C41_2 1_555 1_555
H29_2 C49_2 1_555 1_555
H30_2 C50_2 1_555 1_555
H31_2 C44_2 1_555 1_555
H33_2 C41_2 1_555 1_555
H34_2 C40_2 1_555 1_555
H35_2 C47_2 1_555 1_555
H36_2 C45_2 1_555 1_555
C4_2 C5_2 1_555 1_555
C5_2 C9_2 1_555 1_555
C11_2 C12_2 1_555 1_555
C17_2 C18_2 1_555 1_555
C18_2 C22_2 1_555 1_555
C24_2 C25_2 1_555 1_555
N16 C38_2 1_555 1_555
C34_2 C37_2 1_555 1_555
C44_2 C45_2 1_555 1_555
C46_2 N19_2 1_555 1_555
N19_2 C50_2 1_555 1_555

#END
