
###############################################################################
#
# This file contains modified crystal structure data generated from the
# MOF subset of the Cambridge Structural Database (CSD) v543 
# hosted by the Cambridge Crystallographic Data Centre (CCDC).
#
# This work is licensed under the Creative Commons
# Attribution-NonCommercial-ShareAlike 4.0 International License.
# To view a copy of this license, visit
# http://creativecommons.org/licenses/by-nc-sa/4.0/
# or send a letter to
# Creative Commons, PO Box 1866, Mountain View, CA 94042, USA.
#
# CIF created using the CSD Python API on 29 September 2022
# The structure has been converted into the P1 space group
# The structure has a 3D framework
# The original CSD entry ASOLUS is in the monoclinic crystal system
# The framework has been calculated to contain at least 10.0% void space
# The void calculation uses a probe of radius 1.32A, grid spacing 0.4
# The framework is charged, counterions have been retained in the structure
#
###############################################################################

data_ASOLUS
_chemical_formula_moiety         '(C48 H88 La8 N8 O77 Se4)n'
_symmetry_cell_setting           triclinic
_symmetry_space_group_name_H-M   'P 1'
_symmetry_Int_Tables_number      1
_space_group_name_Hall           'P 1'
loop_
_symmetry_equiv_pos_site_id
_symmetry_equiv_pos_as_xyz
1 x,y,z
_cell_length_a                   12.2383(7)
_cell_length_b                   15.5094(9)
_cell_length_c                   15.0961(9)
_cell_angle_alpha                90
_cell_angle_beta                 95.537(2)
_cell_angle_gamma                90
_cell_volume                     2852
loop_
_atom_site_label
_atom_site_type_symbol
_atom_site_fract_x
_atom_site_fract_y
_atom_site_fract_z
O4 O 0.12954(14) 0.06837(10) 0.25356(12)
O9 O 0.11256(14) 0.03138(10) 0.57275(11)
O13 O 0.30324(14) 0.09204(10) 0.22544(12)
C1 C 0.22482(18) 0.04422(13) 0.24354(15)
C5 C 0.06247(18) 0.00776(13) 0.50084(15)
H4 H 0.032(2) 0.021(2) 0.102(2)
La5 La 0.015529(10) 0.044185(7) 0.714073(8)
La6 La 0.493951(10) 0.030581(7) 0.214583(8)
O5 O 0.17558(14) 0.89918(10) 0.27663(12)
O8 O 0.10483(14) 0.99546(11) 0.42880(11)
O14 O 0.34590(14) 0.92354(11) 0.24316(13)
O15 O 0.00342(14) 0.66949(10) 0.19317(11)
C2 C 0.25199(19) 0.94725(14) 0.25563(15)
La9 La 0.006049(10) 0.530581(7) 0.285417(8)
Se1 Se 0.769802(18) 0.134296(13) 0.303288(14)
O3 O 0.89337(14) 0.10159(10) 0.28412(12)
O12 O 0.68563(14) 0.05325(11) 0.27905(12)
O17 O 0.60712(14) 0.00943(11) 0.08430(11)
O19 O 0.76782(15) 0.16131(11) 0.40799(11)
O20 O 0.73549(15) 0.21742(11) 0.24043(12)
C6 C 0.56377(18) 0.00146(13) 0.00687(15)
O21 O 0.89517(14) 0.00454(11) 0.57120(11)
O24 O 0.38650(14) 0.00352(11) 0.06262(11)
O48 O 0.49658(14) 0.16949(10) 0.30683(11)
O50 O 0.50026(15) 0.17088(10) 0.12823(11)
O25 O 0.19974(16) 0.10337(13) 0.77003(15)
O26 O 0.01969(17) 0.00257(13) 0.87824(12)
O30 O 0.00196(14) 0.18663(10) 0.80748(11)
O31 O 0.03066(15) 0.18778(10) 0.63197(11)
O32 O 0.49287(16) 0.01812(12) 0.61995(12)
O33 O 0.43521(15) 0.12229(11) 0.79360(12)
O38 O 0.00026(15) 0.32912(10) 0.62823(11)
C11 C 0.00406(18) 0.25868(13) 0.76971(15)
C12 C 0.01284(18) 0.25841(13) 0.66857(15)
H9 H 0.2616(18) 0.082(2) 0.773(2)
H10 H 0.221(3) 0.1524(14) 0.777(2)
H11 H 0.065(2) 0.018(2) 0.9187(18)
H13 H 0.448(2) 0.002(2) 0.5811(18)
H14 H 0.544(2) 0.035(2) 0.594(2)
H15 H 0.430(3) 0.1464(19) 0.8424(14)
H16 H 0.457(3) 0.1631(16) 0.7647(19)
O46 O 0.65410(14) 0.07646(11) 0.75684(13)
La1 La 0.984471(10) 0.955815(7) 0.285927(8)
O1 O 0.80026(16) 0.89663(13) 0.22997(15)
O2 O 0.98031(17) 0.99743(13) 0.12176(12)
O6 O 0.99804(14) 0.81337(10) 0.19252(11)
O7 O 0.96934(15) 0.81222(10) 0.36803(11)
O10 O 0.50713(16) 0.98188(12) 0.38005(12)
O11 O 0.56479(15) 0.87771(11) 0.20640(12)
O16 O 0.99974(15) 0.67088(10) 0.37177(11)
C3 C 0.99594(18) 0.74132(13) 0.23029(15)
C4 C 0.98716(18) 0.74159(13) 0.33143(15)
H1 H 0.7384(18) 0.918(2) 0.227(2)
H2 H 0.779(3) 0.8476(14) 0.223(2)
H3 H 0.935(2) 0.982(2) 0.0813(18)
H5 H 0.552(2) 0.998(2) 0.4189(18)
H6 H 0.456(2) 0.965(2) 0.406(2)
H7 H 0.570(3) 0.8536(19) 0.1576(14)
H8 H 0.543(3) 0.8369(16) 0.2353(19)
O22 O 0.88744(14) 0.96862(10) 0.42725(11)
C7 C 0.93753(18) 0.99224(13) 0.49916(15)
O18 O 0.61350(14) 0.99648(11) 0.93738(11)
O23 O 0.39288(14) 0.99057(11) 0.91570(11)
C8 C 0.43623(18) 0.99854(13) 0.99313(15)
La4 La 0.506049(10) 0.969419(7) 0.785417(8)
Se2 Se 0.230198(18) 0.865704(13) 0.696712(14)
O27 O 0.10663(14) 0.89841(10) 0.71588(12)
O34 O 0.31437(14) 0.94675(11) 0.72095(12)
O39 O 0.23218(15) 0.83869(11) 0.59201(11)
O40 O 0.26451(15) 0.78258(11) 0.75957(12)
O44 O 0.69676(14) 0.90796(10) 0.77456(12)
O47 O 0.50342(14) 0.83051(10) 0.69317(11)
O49 O 0.49974(15) 0.82912(10) 0.87177(11)
O29 O 0.82442(14) 0.10082(10) 0.72337(12)
O37 O 0.99658(14) 0.33051(10) 0.80683(11)
C10 C 0.74801(19) 0.05275(14) 0.74437(15)
La8 La 0.993951(10) 0.469419(7) 0.714583(8)
O28 O 0.87046(14) 0.93163(10) 0.74644(12)
C9 C 0.77518(18) 0.95578(13) 0.75646(15)
H12 H 0.968(2) 0.979(2) 0.898(2)
H6_2 H 0.044(2) 0.465(2) 0.094(2)
O23_2 O 0.10712(14) 0.49057(11) 0.58430(11)
O24_2 O 0.11350(14) 0.50352(11) 0.43738(11)
C8_2 C 0.06377(18) 0.49854(13) 0.50687(15)
La3 La 0.484471(10) 0.544185(7) 0.785927(8)
Se2_2 Se 0.269802(18) 0.365704(13) 0.803288(14)
O25_2 O 0.30026(16) 0.60337(13) 0.72997(15)
O26_2 O 0.48031(17) 0.50257(13) 0.62176(12)
O27_2 O 0.39337(14) 0.39841(10) 0.78412(12)
O28_2 O 0.62954(14) 0.43163(10) 0.75356(12)
O29_2 O 0.67558(14) 0.60082(10) 0.77663(12)
O30_2 O 0.49804(14) 0.68663(10) 0.69252(11)
O31_2 O 0.46934(15) 0.68778(10) 0.86803(11)
O32_2 O 0.00713(16) 0.51812(12) 0.88005(12)
O33_2 O 0.06479(15) 0.62229(11) 0.70640(12)
O34_2 O 0.18563(14) 0.44675(11) 0.77905(12)
O35 O 0.80324(14) 0.40796(10) 0.72544(12)
O36 O 0.84590(14) 0.57646(11) 0.74316(13)
O39_2 O 0.26782(15) 0.33869(11) 0.90799(11)
O40_2 O 0.23549(15) 0.28258(11) 0.74043(12)
C9_2 C 0.72482(18) 0.45578(13) 0.74354(15)
C10_2 C 0.75199(19) 0.55275(14) 0.75563(15)
C11_2 C 0.49594(18) 0.75868(13) 0.73029(15)
C12_2 C 0.48716(18) 0.75841(13) 0.83143(15)
H9_2 H 0.2384(18) 0.582(2) 0.727(2)
H10_2 H 0.279(3) 0.6524(14) 0.723(2)
H11_2 H 0.435(2) 0.518(2) 0.5813(18)
H12_2 H 0.532(2) 0.479(2) 0.602(2)
H13_2 H 0.052(2) 0.502(2) 0.9189(18)
H15_2 H 0.070(3) 0.6464(19) 0.6576(14)
H16_2 H 0.043(3) 0.6631(16) 0.7353(19)
O41 O 0.60483(14) 0.50454(11) 0.92880(11)
O42 O 0.38744(14) 0.53138(10) 0.92725(11)
O43 O 0.19676(14) 0.59204(10) 0.27456(12)
O45 O 0.15410(14) 0.42354(11) 0.25684(13)
La1_2 La 0.515529(10) 0.455815(7) 0.214073(8)
Se1_2 Se 0.730198(18) 0.634296(13) 0.196712(14)
O1_2 O 0.69974(16) 0.39663(13) 0.27003(15)
O2_2 O 0.51969(17) 0.49743(13) 0.37824(12)
O3_2 O 0.60663(14) 0.60159(10) 0.21588(12)
O4_2 O 0.37046(14) 0.56837(10) 0.24644(12)
O5_2 O 0.32442(14) 0.39918(10) 0.22337(12)
O6_2 O 0.50196(14) 0.31337(10) 0.30748(11)
O7_2 O 0.53066(15) 0.31222(10) 0.13197(11)
O8_2 O 0.39517(14) 0.49546(11) 0.07120(11)
O10_2 O 0.99287(16) 0.48188(12) 0.11995(12)
O11_2 O 0.93521(15) 0.37771(11) 0.29360(12)
O12_2 O 0.81437(14) 0.55325(11) 0.22095(12)
O17_2 O 0.89288(14) 0.50943(11) 0.41570(11)
O18_2 O 0.88650(14) 0.49648(11) 0.56262(11)
O19_2 O 0.73218(15) 0.66131(11) 0.09201(11)
O20_2 O 0.76451(15) 0.71742(11) 0.25957(12)
C1_2 C 0.27518(18) 0.54422(13) 0.25646(15)
C2_2 C 0.24801(19) 0.44725(14) 0.24437(15)
C3_2 C 0.50406(18) 0.24132(13) 0.26971(15)
C4_2 C 0.51284(18) 0.24159(13) 0.16857(15)
C6_2 C 0.93623(18) 0.50146(13) 0.49313(15)
H1_2 H 0.7616(18) 0.418(2) 0.273(2)
H2_2 H 0.721(3) 0.3476(14) 0.277(2)
H3_2 H 0.565(2) 0.482(2) 0.4187(18)
H4_2 H 0.468(2) 0.521(2) 0.398(2)
H5_2 H 0.948(2) 0.498(2) 0.0811(18)
H7_2 H 0.930(3) 0.3536(19) 0.3424(14)
H8_2 H 0.957(3) 0.3369(16) 0.2647(19)
O22_2 O 0.61256(14) 0.46862(10) 0.07275(11)
C7_2 C 0.56247(18) 0.49224(13) 0.00084(15)
H14_2 H 0.956(2) 0.535(2) 0.906(2)
C5_2 C 0.43753(18) 0.50776(13) 0.99916(15)
N1 N 0.20594(18) 0.22482(14) 0.52509(14)
N2 N 0.37120(18) 0.25768(12) 0.44555(14)
C13 C 0.1829(2) 0.20244(17) 0.42826(17)
C14 C 0.2750(2) 0.24111(16) 0.37945(17)
C15 C 0.3471(2) 0.33281(16) 0.50309(18)
C16 C 0.2318(2) 0.31940(16) 0.53283(18)
C17 C 0.3021(2) 0.17363(15) 0.56538(16)
C18 C 0.3928(2) 0.17977(15) 0.50291(17)
H17 H 0.1472(15) 0.2124(13) 0.5529(13)
H18 H 0.1131 0.2277 0.4042
H19 H 0.1794 0.1398 0.4196
H20 H 0.2503 0.2951 0.3495
H21 H 0.3004 0.2003 0.3361
H22 H 0.4298(15) 0.2699(13) 0.4167(13)
H23 H 0.3496 0.3857 0.4682
H24 H 0.4022 0.3347 0.5566
H25 H 0.1775 0.3518 0.4937
H26 H 0.2313 0.3379 0.5957
H27 H 0.3267 0.1980 0.6240
H28 H 0.2826 0.1138 0.5750
H29 H 0.4646 0.1866 0.5390
H30 H 0.3940 0.1293 0.4635
N2_2 N 0.12880(18) 0.75768(12) 0.05445(14)
C13_2 C 0.3171(2) 0.70244(17) 0.07174(17)
C14_2 C 0.2250(2) 0.74111(16) 0.12055(17)
H18_2 H 0.3869 0.7277 0.0958
H19_2 H 0.3206 0.6398 0.0804
H20_2 H 0.2497 0.7951 0.1505
H21_2 H 0.1996 0.7003 0.1639
H22_2 H 0.0702(15) 0.7699(13) 0.0833(13)
H23_2 H 0.1504 0.8857 0.0318
H25_2 H 0.3225 0.8518 0.0063
H30_2 H 0.1060 0.6293 0.0365
N1_2 N 0.29406(18) 0.72482(14) 0.97491(14)
C15_2 C 0.1529(2) 0.83281(16) 0.99691(18)
C16_2 C 0.2682(2) 0.81940(16) 0.96717(18)
C17_2 C 0.1979(2) 0.67363(15) 0.93462(16)
C18_2 C 0.1072(2) 0.67977(15) 0.99709(17)
H17_2 H 0.3528(15) 0.7124(13) 0.9471(13)
H24_2 H 0.0978 0.8347 0.9434
H26_2 H 0.2687 0.8379 0.9043
H27_2 H 0.1733 0.6980 0.8760
H28_2 H 0.2174 0.6138 0.9250
H29_2 H 0.0354 0.6866 0.9610
N1_3 N 0.79406(18) 0.77518(14) 0.47491(14)
N2_3 N 0.62880(18) 0.74232(12) 0.55445(14)
C13_3 C 0.8171(2) 0.79756(17) 0.57174(17)
C14_3 C 0.7250(2) 0.75889(16) 0.62055(17)
C15_3 C 0.6529(2) 0.66719(16) 0.49691(18)
C16_3 C 0.7682(2) 0.68060(16) 0.46717(18)
C17_3 C 0.6979(2) 0.82637(15) 0.43462(16)
C18_3 C 0.6072(2) 0.82023(15) 0.49709(17)
H17_3 H 0.8528(15) 0.7876(13) 0.4471(13)
H18_3 H 0.8869 0.7723 0.5958
H19_3 H 0.8206 0.8602 0.5804
H20_3 H 0.7497 0.7049 0.6505
H21_3 H 0.6996 0.7997 0.6639
H22_3 H 0.5702(15) 0.7301(13) 0.5833(13)
H23_3 H 0.6504 0.6143 0.5318
H24_3 H 0.5978 0.6653 0.4434
H25_3 H 0.8225 0.6482 0.5063
H26_3 H 0.7687 0.6621 0.4043
H27_3 H 0.6733 0.8020 0.3760
H28_3 H 0.7174 0.8862 0.4250
H29_3 H 0.5354 0.8134 0.4610
H30_3 H 0.6060 0.8707 0.5365
N1_4 N 0.70594(18) 0.27518(14) 0.02509(14)
C15_4 C 0.8471(2) 0.16719(16) 0.00309(18)
C16_4 C 0.7318(2) 0.18060(16) 0.03283(18)
C17_4 C 0.8021(2) 0.32637(15) 0.06538(16)
C18_4 C 0.8928(2) 0.32023(15) 0.00291(17)
H17_4 H 0.6472(15) 0.2876(13) 0.0529(13)
H24_4 H 0.9022 0.1653 0.0566
H26_4 H 0.7313 0.1621 0.0957
H27_4 H 0.8267 0.3020 0.1240
H28_4 H 0.7826 0.3862 0.0750
H29_4 H 0.9646 0.3134 0.0390
N2_4 N 0.87120(18) 0.24232(12) 0.94555(14)
C13_4 C 0.6829(2) 0.29756(17) 0.92826(17)
C14_4 C 0.7750(2) 0.25889(16) 0.87945(17)
H18_4 H 0.6131 0.2723 0.9042
H19_4 H 0.6794 0.3602 0.9196
H20_4 H 0.7503 0.2049 0.8495
H21_4 H 0.8004 0.2997 0.8361
H22_4 H 0.9298(15) 0.2301(13) 0.9167(13)
H23_4 H 0.8496 0.1143 0.9682
H25_4 H 0.6775 0.1482 0.9937
H30_4 H 0.8940 0.3707 0.9635
loop_
_geom_bond_atom_site_label_1
_geom_bond_atom_site_label_2
_geom_bond_site_symmetry_1
_geom_bond_site_symmetry_2
O9 C5 1_555 1_555
O13 C1 1_555 1_555
C1 O4 1_555 1_555
La5 O9 1_555 1_555
La6 O13 1_555 1_555
O14 C2 1_555 1_555
C2 O5 1_555 1_555
La9 O15 1_555 1_555
Se1 O3 1_555 1_555
O12 La6 1_555 1_555
O17 La6 1_555 1_555
O19 Se1 1_555 1_555
O20 Se1 1_555 1_555
C6 O17 1_555 1_555
O24 La6 1_555 1_555
O48 La6 1_555 1_555
O50 La6 1_555 1_555
Se1 O12 1_555 1_555
La5 O25 1_555 1_555
O25 H9 1_555 1_555
O26 La5 1_555 1_555
O30 La5 1_555 1_555
O31 La5 1_555 1_555
O38 C12 1_555 1_555
C11 O30 1_555 1_555
C12 O31 1_555 1_555
H10 O25 1_555 1_555
H11 O26 1_555 1_555
H13 O32 1_555 1_555
H14 O32 1_555 1_555
H15 O33 1_555 1_555
H16 O33 1_555 1_555
C11 C12 1_555 1_555
La1 O1 1_555 1_555
O1 H1 1_555 1_555
O2 La1 1_555 1_555
O6 La1 1_555 1_555
O7 La1 1_555 1_555
O10 H5 1_555 1_555
O16 C4 1_555 1_555
C3 O6 1_555 1_555
C4 O7 1_555 1_555
H2 O1 1_555 1_555
H3 O2 1_555 1_555
H6 O10 1_555 1_555
H7 O11 1_555 1_555
H8 O11 1_555 1_555
O22 La1 1_555 1_555
C3 C4 1_555 1_555
O22 C7 1_555 1_555
O23 C8 1_555 1_555
La4 O18 1_555 1_555
Se2 O27 1_555 1_555
O34 La4 1_555 1_555
O39 Se2 1_555 1_555
O40 Se2 1_555 1_555
O44 La4 1_555 1_555
O47 La4 1_555 1_555
O49 La4 1_555 1_555
O23 La4 1_555 1_555
Se2 O34 1_555 1_555
O46 C10 1_555 1_555
C10 O29 1_555 1_555
La8 O37 1_555 1_555
O44 C9 1_555 1_555
C9 O28 1_555 1_555
O23_2 C8_2 1_555 1_555
O24_2 La9 1_555 1_555
La3 O25_2 1_555 1_555
Se2_2 O27_2 1_555 1_555
O25_2 H9_2 1_555 1_555
O26_2 La3 1_555 1_555
O27_2 La3 1_555 1_555
O28_2 La3 1_555 1_555
O29_2 La3 1_555 1_555
O30_2 La3 1_555 1_555
O31_2 La3 1_555 1_555
O35 C9_2 1_555 1_555
O36 C10_2 1_555 1_555
O47 C11_2 1_555 1_555
O49 C12_2 1_555 1_555
O39_2 Se2_2 1_555 1_555
O40_2 Se2_2 1_555 1_555
C9_2 O28_2 1_555 1_555
C10_2 O29_2 1_555 1_555
C11_2 O30_2 1_555 1_555
C12_2 O31_2 1_555 1_555
H10_2 O25_2 1_555 1_555
H11_2 O26_2 1_555 1_555
H12_2 O26_2 1_555 1_555
H13_2 O32_2 1_555 1_555
H15_2 O33_2 1_555 1_555
H16_2 O33_2 1_555 1_555
La8 O35 1_555 1_555
O41 La3 1_555 1_555
O42 La3 1_555 1_555
O43 La9 1_555 1_555
O45 La9 1_555 1_555
O24_2 C8_2 1_555 1_555
Se2_2 O34_2 1_555 1_555
O36 La8 1_555 1_555
C9_2 C10_2 1_555 1_555
C11_2 C12_2 1_555 1_555
La1_2 O1_2 1_555 1_555
Se1_2 O3_2 1_555 1_555
O1_2 H1_2 1_555 1_555
O2_2 La1_2 1_555 1_555
O3_2 La1_2 1_555 1_555
O4_2 La1_2 1_555 1_555
O5_2 La1_2 1_555 1_555
O6_2 La1_2 1_555 1_555
O7_2 La1_2 1_555 1_555
O8_2 La1_2 1_555 1_555
O10_2 H5_2 1_555 1_555
O43 C1_2 1_555 1_555
O45 C2_2 1_555 1_555
O48 C3_2 1_555 1_555
O50 C4_2 1_555 1_555
O18_2 C6_2 1_555 1_555
O19_2 Se1_2 1_555 1_555
O20_2 Se1_2 1_555 1_555
C1_2 O4_2 1_555 1_555
C2_2 O5_2 1_555 1_555
C3_2 O6_2 1_555 1_555
C4_2 O7_2 1_555 1_555
C6_2 O17_2 1_555 1_555
H2_2 O1_2 1_555 1_555
H3_2 O2_2 1_555 1_555
H4_2 O2_2 1_555 1_555
H7_2 O11_2 1_555 1_555
H8_2 O11_2 1_555 1_555
O22_2 La1_2 1_555 1_555
La8 O18_2 1_555 1_555
Se1_2 O12_2 1_555 1_555
C1_2 C2_2 1_555 1_555
C3_2 C4_2 1_555 1_555
O22_2 C7_2 1_555 1_555
O42 C5_2 1_555 1_555
N1 C13 1_555 1_555
N2 C14 1_555 1_555
C13 C14 1_555 1_555
C14 H20 1_555 1_555
C15 N2 1_555 1_555
C16 N1 1_555 1_555
C17 N1 1_555 1_555
C18 N2 1_555 1_555
H17 N1 1_555 1_555
H18 C13 1_555 1_555
H19 C13 1_555 1_555
H21 C14 1_555 1_555
H22 N2 1_555 1_555
H23 C15 1_555 1_555
H24 C15 1_555 1_555
H25 C16 1_555 1_555
H26 C16 1_555 1_555
H27 C17 1_555 1_555
H28 C17 1_555 1_555
H29 C18 1_555 1_555
H30 C18 1_555 1_555
C15 C16 1_555 1_555
C17 C18 1_555 1_555
N2_2 C14_2 1_555 1_555
C13_2 C14_2 1_555 1_555
C14_2 H20_2 1_555 1_555
H18_2 C13_2 1_555 1_555
H19_2 C13_2 1_555 1_555
H21_2 C14_2 1_555 1_555
H22_2 N2_2 1_555 1_555
C16_2 N1_2 1_555 1_555
C17_2 N1_2 1_555 1_555
H17_2 N1_2 1_555 1_555
H24_2 C15_2 1_555 1_555
H26_2 C16_2 1_555 1_555
H27_2 C17_2 1_555 1_555
H28_2 C17_2 1_555 1_555
H29_2 C18_2 1_555 1_555
C15_2 C16_2 1_555 1_555
C17_2 C18_2 1_555 1_555
N1_3 C13_3 1_555 1_555
N2_3 C14_3 1_555 1_555
C13_3 C14_3 1_555 1_555
C14_3 H20_3 1_555 1_555
C15_3 N2_3 1_555 1_555
C16_3 N1_3 1_555 1_555
C17_3 N1_3 1_555 1_555
C18_3 N2_3 1_555 1_555
H17_3 N1_3 1_555 1_555
H18_3 C13_3 1_555 1_555
H19_3 C13_3 1_555 1_555
H21_3 C14_3 1_555 1_555
H22_3 N2_3 1_555 1_555
H23_3 C15_3 1_555 1_555
H24_3 C15_3 1_555 1_555
H25_3 C16_3 1_555 1_555
H26_3 C16_3 1_555 1_555
H27_3 C17_3 1_555 1_555
H28_3 C17_3 1_555 1_555
H29_3 C18_3 1_555 1_555
H30_3 C18_3 1_555 1_555
C15_3 C16_3 1_555 1_555
C17_3 C18_3 1_555 1_555
C16_4 N1_4 1_555 1_555
C17_4 N1_4 1_555 1_555
H17_4 N1_4 1_555 1_555
H24_4 C15_4 1_555 1_555
H26_4 C16_4 1_555 1_555
H27_4 C17_4 1_555 1_555
H28_4 C17_4 1_555 1_555
H29_4 C18_4 1_555 1_555
C15_4 C16_4 1_555 1_555
C17_4 C18_4 1_555 1_555
N2_4 C14_4 1_555 1_555
C13_4 C14_4 1_555 1_555
C14_4 H20_4 1_555 1_555
H18_4 C13_4 1_555 1_555
H19_4 C13_4 1_555 1_555
H21_4 C14_4 1_555 1_555
H22_4 N2_4 1_555 1_555

#END
