
###############################################################################
#
# This file contains modified crystal structure data generated from the
# MOF subset of the Cambridge Structural Database (CSD) v543 
# hosted by the Cambridge Crystallographic Data Centre (CCDC).
#
# This work is licensed under the Creative Commons
# Attribution-NonCommercial-ShareAlike 4.0 International License.
# To view a copy of this license, visit
# http://creativecommons.org/licenses/by-nc-sa/4.0/
# or send a letter to
# Creative Commons, PO Box 1866, Mountain View, CA 94042, USA.
#
# CIF created using the CSD Python API on 29 September 2022
# The structure has been converted into the P1 space group
# The structure has a 3D framework
# The original CSD entry ASOMAZ is in the monoclinic crystal system
# The framework has been calculated to contain at least 10.0% void space
# The void calculation uses a probe of radius 1.32A, grid spacing 0.4
# The framework is charged, counterions have been retained in the structure
#
###############################################################################

data_ASOMAZ
_chemical_formula_moiety         '(C14 H4 Er4 O32 Se4 2-)n'
_symmetry_cell_setting           triclinic
_symmetry_space_group_name_H-M   'P 1'
_symmetry_Int_Tables_number      1
_space_group_name_Hall           'P 1'
loop_
_symmetry_equiv_pos_site_id
_symmetry_equiv_pos_as_xyz
1 x,y,z
_cell_length_a                   11.59880(3)
_cell_length_b                   16.10460(4)
_cell_length_c                   8.61010(3)
_cell_angle_alpha                90
_cell_angle_beta                 128.020(4)
_cell_angle_gamma                90
_cell_volume                     1267.02
loop_
_atom_site_label
_atom_site_type_symbol
_atom_site_fract_x
_atom_site_fract_y
_atom_site_fract_z
Er1 Er 0.25966(15) 0.308909(10) 0.2342(3)
O1 O 0.3467(8) 0.4300(3) 0.4413(10)
O2 O 0.1769(9) 0.4314(3) 0.0493(10)
O3 O 0.4527(8) 0.3509(4) 0.2333(11)
O4 O 0.3697(12) 0.1932(3) 0.2040(16)
O5 O 0.6405(10) 0.3078(3) 0.2423(17)
O6 O 0.5640(7) 0.1503(4) 0.2288(10)
C1 C 0.3140(11) 0.5000 0.3624(15)
C2 C 0.2165(11) 0.5000 0.1350(15)
C3 C 0.5294(12) 0.2966(6) 0.2318(16)
C4 C 0.4819(12) 0.2060(6) 0.2200(15)
O10 O 0.3467(8) 0.5700(3) 0.4413(10)
O11 O 0.1769(9) 0.5686(3) 0.0493(10)
Er2 Er 0.25966(15) 0.691091(10) 0.2342(3)
O12 O 0.4527(8) 0.6491(4) 0.2333(11)
O13 O 0.3697(12) 0.8068(3) 0.2040(16)
O14 O 0.6405(10) 0.6922(3) 0.2423(17)
O15 O 0.5640(7) 0.8497(4) 0.2288(10)
C5 C 0.5294(12) 0.7034(6) 0.2318(16)
C6 C 0.4819(12) 0.7940(6) 0.2200(15)
Er4 Er 0.75966(15) 0.808909(10) 0.2342(3)
Er6 Er 0.75966(15) 0.191091(10) 0.2342(3)
O19 O 0.1405(10) 0.8078(3) 0.2423(17)
O20 O 0.1405(10) 0.1922(3) 0.2423(17)
O21 O 0.0640(7) 0.6503(4) 0.2288(10)
O22 O 0.0640(7) 0.3497(4) 0.2288(10)
O23 O 0.4209(6) 0.7409(3) 0.5484(8)
O24 O 0.4209(6) 0.2591(3) 0.5484(8)
O7 O 0.9209(6) 0.2409(3) 0.5484(8)
O9 O 0.8536(12) 0.1786(7) 0.7702(17)
H1 H 0.8618 0.1246 0.8238
O16 O 0.9209(6) 0.7591(3) 0.5484(8)
O18 O 0.8536(12) 0.8214(7) 0.7702(17)
H2 H 0.8618 0.8754 0.8238
C5_2 C 0.0294(12) 0.2034(6) 0.2318(16)
C3_2 C 0.0294(12) 0.7966(6) 0.2318(16)
C1_2 C 0.8140(11) 0.0000 0.3624(15)
C2_2 C 0.7165(11) 0.0000 0.1350(15)
O10_2 O 0.8467(8) 0.0700(3) 0.4413(10)
O11_2 O 0.6769(9) 0.0686(3) 0.0493(10)
O12_2 O 0.9527(8) 0.1491(4) 0.2333(11)
O13_2 O 0.8697(12) 0.3068(3) 0.2040(16)
C6_2 C 0.9819(12) 0.2940(6) 0.2200(15)
Se2 Se 0.50357(19) 0.30525(6) 0.7696(3)
O17 O 0.6000(10) 0.2203(4) 0.9099(9)
O18_2 O 0.3536(12) 0.3214(7) 0.7702(17)
H2_2 H 0.3618 0.3754 0.8238
O1_2 O 0.8467(8) 0.9300(3) 0.4413(10)
O2_2 O 0.6769(9) 0.9314(3) 0.0493(10)
O3_2 O 0.9527(8) 0.8509(4) 0.2333(11)
O4_2 O 0.8697(12) 0.6932(3) 0.2040(16)
C1_3 C 0.8140(11) 1.0000 0.3624(15)
C2_3 C 0.7165(11) 1.0000 0.1350(15)
C4_2 C 0.9819(12) 0.7060(6) 0.2200(15)
Se1 Se 0.50357(19) 0.69475(6) 0.7696(3)
O8 O 0.6000(10) 0.7797(4) 0.9099(9)
O9_2 O 0.3536(12) 0.6786(7) 0.7702(17)
H1_2 H 0.3618 0.6246 0.8238
Se1_2 Se 0.00357(19) 0.19475(6) 0.7696(3)
O8_2 O 0.1000(10) 0.2797(4) 0.9099(9)
Se2_2 Se 0.00357(19) 0.80525(6) 0.7696(3)
O17_2 O 0.1000(10) 0.7203(4) 0.9099(9)
loop_
_geom_bond_atom_site_label_1
_geom_bond_atom_site_label_2
_geom_bond_site_symmetry_1
_geom_bond_site_symmetry_2
Er1 O1 1_555 1_555
O1 C1 1_555 1_555
O2 Er1 1_555 1_555
O3 Er1 1_555 1_555
O4 Er1 1_555 1_555
O5 C3 1_555 1_555
O6 C4 1_555 1_555
C1 C2 1_555 1_555
C2 O2 1_555 1_555
C3 O3 1_555 1_555
C4 O4 1_555 1_555
O10 C1 1_555 1_555
O11 C2 1_555 1_555
Er2 O10 1_555 1_555
O12 Er2 1_555 1_555
O13 Er2 1_555 1_555
O14 C5 1_555 1_555
O15 C6 1_555 1_555
C5 O12 1_555 1_555
C6 O13 1_555 1_555
Er4 O14 1_555 1_555
Er6 O5 1_555 1_555
O19 Er2 1_555 1_555
O20 Er1 1_555 1_555
O21 Er2 1_555 1_555
O22 Er1 1_555 1_555
O23 Er2 1_555 1_555
O24 Er1 1_555 1_555
O6 Er6 1_555 1_555
C3 C4 1_555 1_555
O11 Er2 1_555 1_555
O15 Er4 1_555 1_555
C5 C6 1_555 1_555
O7 Er6 1_555 1_555
H1 O9 1_555 1_555
O16 Er4 1_555 1_555
H2 O18 1_555 1_555
O20 C5_2 1_555 1_555
O19 C3_2 1_555 1_555
C1_2 C2_2 1_555 1_555
O10_2 C1_2 1_555 1_555
O11_2 C2_2 1_555 1_555
Er6 O10_2 1_555 1_555
O12_2 Er6 1_555 1_555
O13_2 Er6 1_555 1_555
C6_2 O13_2 1_555 1_555
O11_2 Er6 1_555 1_555
Se2 O24 1_555 1_555
O18_2 Se2 1_555 1_555
H2_2 O18_2 1_555 1_555
Se2 O17 1_555 1_555
Er4 O1_2 1_555 1_555
O1_2 C1_3 1_555 1_555
O2_2 Er4 1_555 1_555
O3_2 Er4 1_555 1_555
O4_2 Er4 1_555 1_555
C1_3 C2_3 1_555 1_555
C2_3 O2_2 1_555 1_555
C4_2 O4_2 1_555 1_555
Se1 O23 1_555 1_555
O9_2 Se1 1_555 1_555
H1_2 O9_2 1_555 1_555
Se1 O8 1_555 1_555
Se1_2 O8_2 1_555 1_555
Se2_2 O17_2 1_555 1_555

#END
