
###############################################################################
#
# This file contains modified crystal structure data generated from the
# MOF subset of the Cambridge Structural Database (CSD) v543 
# hosted by the Cambridge Crystallographic Data Centre (CCDC).
#
# This work is licensed under the Creative Commons
# Attribution-NonCommercial-ShareAlike 4.0 International License.
# To view a copy of this license, visit
# http://creativecommons.org/licenses/by-nc-sa/4.0/
# or send a letter to
# Creative Commons, PO Box 1866, Mountain View, CA 94042, USA.
#
# CIF created using the CSD Python API on 29 September 2022
# The structure has been converted into the P1 space group
# The structure has a 3D framework
# The original CSD entry ASOYOY is in the tetragonal crystal system
# The original CSD entry ASOYOY is in a Sohncke space group
# The framework has been calculated to contain at least 10.0% void space
# The void calculation uses a probe of radius 1.32A, grid spacing 0.4
#
###############################################################################

data_ASOYOY
_chemical_formula_moiety         '(C464 H320 Cd16 N96 O64)n'
_symmetry_cell_setting           triclinic
_symmetry_space_group_name_H-M   'P 1'
_symmetry_Int_Tables_number      1
_space_group_name_Hall           'P 1'
loop_
_symmetry_equiv_pos_site_id
_symmetry_equiv_pos_as_xyz
1 x,y,z
_cell_length_a                   22.261(3)
_cell_length_b                   22.261(3)
_cell_length_c                   32.920(7)
_cell_angle_alpha                90
_cell_angle_beta                 90
_cell_angle_gamma                90
_cell_volume                     16313.6
loop_
_atom_site_label
_atom_site_type_symbol
_atom_site_fract_x
_atom_site_fract_y
_atom_site_fract_z
N5 N 0.2566(2) 0.3873(2) 0.14521(17)
N6 N 0.1994(2) 0.3906(2) 0.20053(16)
N7 N 0.0256(2) 0.3920(3) 0.28872(18)
N8 N 0.1994(2) 0.2692(3) 0.32176(18)
N9 N 0.2685(2) 0.2075(3) 0.34555(17)
C19 C 0.1983(3) 0.3325(3) 0.26126(19)
H12 H 0.2365 0.3185 0.2549
C20 C 0.0859(3) 0.3731(4) 0.28142(19)
C21 C 0.1139(3) 0.3321(3) 0.3059(2)
H13 H 0.0948 0.3175 0.3290
C23 C 0.1134(3) 0.3943(3) 0.2462(2)
H15 H 0.0942 0.4224 0.2297
C24 C 0.1702(2) 0.3725(3) 0.23605(18)
C25 C 0.1700(3) 0.3129(4) 0.2962(2)
C37 C 0.0438(3) 0.2292(3) 0.1048(2)
H21 H 0.0557 0.1928 0.0936
C38 C 0.2325(3) 0.4454(3) 0.1502(2)
H22 H 0.2401 0.4777 0.1331
C39 C 0.2337(3) 0.3563(3) 0.1756(2)
H23 H 0.2404 0.3155 0.1795
C41 C 0.2564(3) 0.2510(3) 0.3208(2)
H25 H 0.2850 0.2681 0.3038
C43 C 0.1981(3) 0.4475(3) 0.1823(2)
H27 H 0.1767 0.4807 0.1914
C44 C 0.0633(3) 0.3109(4) 0.1489(2)
H28 H 0.0885 0.3301 0.1673
C45 C 0.0804(3) 0.2571(4) 0.1317(3)
H29 H 0.1171 0.2399 0.1386
C46 C 0.0106(3) 0.3355(3) 0.13925(19)
C47 C 0.0014(4) 0.4060(6) 0.3255(3)
H31 H 0.0221 0.4126 0.3496
C51 C 0.2155(5) 0.1940(5) 0.3625(3)
H35 H 0.2095 0.1636 0.3814
C52 C 0.1724(5) 0.2306(6) 0.3484(4)
H36 H 0.1319 0.2298 0.3554
Cd4 Cd 0.336913(18) 0.36036(2) 0.104864(13)
Cd6 Cd 0.36036(2) 0.163087(18) 0.354864(13)
Cd1 Cd 0.835899(16) 0.385535(18) 0.252449(12)
O1 O 0.8749(2) 0.4173(2) 0.19016(13)
O2 O 0.8856(2) 0.3190(2) 0.18769(13)
O3 O 0.97486(19) 0.20676(18) 0.03006(13)
O4 O 0.89703(18) 0.20737(19) 0.07266(14)
O5 O 0.2954(2) 0.3836(2) 0.03860(15)
O6 O 0.3240(2) 0.4610(2) 0.07435(16)
N1 N 0.4248(2) 0.3457(3) 0.07339(18)
N2 N 0.5236(2) 0.3328(4) 0.06757(18)
N3 N 0.7465(2) 0.3828(2) 0.21344(13)
N4 N 0.6901(2) 0.3645(2) 0.15955(15)
N10 N 0.9281(2) 0.4006(3) 0.28020(17)
C2 C 0.3005(3) 0.4390(3) 0.0431(2)
C3 C 0.2788(3) 0.4811(3) 0.0099(2)
H2 H 0.3531 0.5336 0.0128
C8 C 0.6990(2) 0.2939(3) 0.1029(2)
H5 H 0.7380 0.2845 0.1108
C9 C 0.7114(3) 0.4317(3) 0.2051(2)
H6 H 0.7116 0.4673 0.2199
C10 C 0.6737(3) 0.2661(4) 0.0692(2)
N11 N 0.7095(2) 0.2234(3) 0.04703(17)
C11 C 0.6664(2) 0.3352(3) 0.12476(19)
C12 C 0.6765(3) 0.4208(3) 0.1723(2)
H7 H 0.6486 0.4469 0.1608
C13 C 0.7316(2) 0.3428(3) 0.1852(2)
H8 H 0.7481 0.3045 0.1833
C14 C 0.6075(3) 0.3499(4) 0.1120(2)
H9 H 0.5854 0.3791 0.1256
C15 C 0.5838(3) 0.3206(4) 0.0793(2)
C16 C 0.6171(3) 0.2772(5) 0.0583(3)
H10 H 0.5998 0.2563 0.0368
C17 C 0.4781(3) 0.3425(4) 0.0915(2)
H11 H 0.4826 0.3469 0.1195
C18 C 0.9518(3) 0.2208(2) 0.0638(2)
C22 C 0.9793(3) 0.3866(3) 0.26426(19)
H14 H 0.9830 0.3737 0.2375
C26 C 0.1773(2) 0.4317(3) 0.00490(19)
C27 C 0.1656(3) 0.4289(3) 0.0463(2)
H16 H 0.1876 0.4539 0.0634
C28 C 0.8269(3) 0.4031(3) 0.1092(2)
H17 H 0.8027 0.4241 0.1273
C29 C 0.8769(3) 0.3716(2) 0.12466(17)
C30 C 0.8810(3) 0.3674(3) 0.17100(19)
C31 C 0.8127(3) 0.4044(3) 0.0700(2)
H18 H 0.7785 0.4241 0.0607
C32 C 0.9892(2) 0.2538(2) 0.09370(16)
C33 C 0.9151(2) 0.3414(2) 0.09814(18)
C34 C 0.9021(3) 0.3447(3) 0.05653(18)
H19 H 0.9279 0.3265 0.0380
C35 C 0.9716(2) 0.3086(2) 0.11095(17)
C36 C 0.8526(4) 0.3737(3) 0.0427(2)
H20 H 0.8444 0.3738 0.0150
C40 C 0.1237(4) 0.3918(5) 0.0635(3)
H24 H 0.1177 0.3908 0.0915
C42 C 0.0902(4) 0.3554(4) 0.0371(3)
H26 H 0.0616 0.3291 0.0475
H30 H 0.9994 0.3714 0.1515
C48 C 0.5011(4) 0.3286(8) 0.0289(3)
H32 H 0.5214 0.3201 0.0049
C49 C 0.4379(4) 0.3405(7) 0.0349(3)
H33 H 0.4101 0.3440 0.0139
C50 C 0.9416(4) 0.4084(5) 0.3200(3)
H34 H 0.9136 0.4145 0.3406
N12 N 0.7872(2) 0.1786(3) 0.01968(15)
C55 C 0.7702(3) 0.2227(3) 0.0430(2)
H37 H 0.7961 0.2501 0.0552
C57 C 0.7385(3) 0.1471(4) 0.0096(3)
C58 C 0.6895(3) 0.1760(5) 0.0243(3)
H40 H 0.6496 0.1656 0.0197
Cd3 Cd 0.885535(18) 0.164101(16) 0.002449(12)
O9 O 0.79324(18) 0.47486(19) 0.28006(13)
O10 O 0.79263(19) 0.39703(18) 0.32266(14)
N14 N 0.2925(3) 0.2685(2) 0.09555(17)
N15 N 0.8214(3) 0.2872(2) 0.26968(15)
O11 O 0.3806(2) 0.2981(2) 0.16954(15)
O12 O 0.3927(2) 0.3932(3) 0.16171(16)
C1 C 0.2237(3) 0.4755(3) 0.99123(18)
C4 C 0.2099(3) 0.5169(3) 0.9614(2)
H1 H 0.1740 0.5132 0.9472
C5 C 0.3161(4) 0.5297(4) 0.9999(3)
C6 C 0.2990(5) 0.5727(4) 0.9710(3)
H3 H 0.3228 0.6060 0.9656
C7 C 0.2487(5) 0.5642(4) 0.9520(3)
H4 H 0.2380 0.5906 0.9314
C53 C 0.1432(3) 0.3961(3) 0.9789(2)
C54 C 0.1529(4) 0.3916(3) 0.9336(2)
C56 C 0.0997(3) 0.3583(3) 0.9947(3)
H38 H 0.0766 0.3347 0.9774
H39 H 0.7381 0.1113 0.9950
O7 O 0.2019(2) 0.3806(2) 0.91954(15)
O8 O 0.1068(3) 0.3927(2) 0.91171(16)
Cd5 Cd 0.13964(2) 0.336913(18) 0.854864(13)
Cd1_2 Cd 0.614465(18) 0.335899(16) 0.502449(12)
O1_2 O 0.5827(2) 0.3749(2) 0.44016(13)
O2_2 O 0.6810(2) 0.3856(2) 0.43769(13)
N2_2 N 0.6672(4) 0.0236(2) 0.31757(18)
N3_2 N 0.6172(2) 0.2465(2) 0.46344(13)
N4_2 N 0.6355(2) 0.1901(2) 0.40955(15)
N5_2 N 0.6127(2) 0.7566(2) 0.39521(17)
N6_2 N 0.6094(2) 0.6994(2) 0.45053(16)
N7_2 N 0.6080(3) 0.5256(2) 0.53872(18)
N8_2 N 0.7308(3) 0.6994(2) 0.57176(18)
N9_2 N 0.7925(3) 0.7685(2) 0.59555(17)
N10_2 N 0.5994(3) 0.4281(2) 0.53020(17)
C8_2 C 0.7061(3) 0.1990(2) 0.3529(2)
H5_2 H 0.7155 0.2380 0.3608
C9_2 C 0.5683(3) 0.2114(3) 0.4551(2)
H6_2 H 0.5327 0.2116 0.4699
C10_2 C 0.7339(4) 0.1737(3) 0.3192(2)
N11_2 N 0.7766(3) 0.2095(2) 0.29703(17)
C11_2 C 0.6648(3) 0.1664(2) 0.37476(19)
C12_2 C 0.5792(3) 0.1765(3) 0.4223(2)
H7_2 H 0.5531 0.1486 0.4108
C13_2 C 0.6572(3) 0.2316(2) 0.4352(2)
H8_2 H 0.6955 0.2481 0.4333
C14_2 C 0.6501(4) 0.1075(3) 0.3620(2)
H9_2 H 0.6209 0.0854 0.3756
C15_2 C 0.6794(4) 0.0838(3) 0.3293(2)
C16_2 C 0.7228(5) 0.1171(3) 0.3083(3)
H10_2 H 0.7437 0.0998 0.2868
C18_2 C 0.7792(2) 0.4518(3) 0.3138(2)
C19_2 C 0.6675(3) 0.6983(3) 0.51126(19)
H12_2 H 0.6815 0.7365 0.5049
C20_2 C 0.6269(4) 0.5859(3) 0.53142(19)
C21_2 C 0.6679(3) 0.6139(3) 0.5559(2)
H13_2 H 0.6825 0.5948 0.5790
C22_2 C 0.6134(3) 0.4793(3) 0.51426(19)
H14_2 H 0.6263 0.4830 0.4875
C23_2 C 0.6057(3) 0.6134(3) 0.4962(2)
H15_2 H 0.5776 0.5942 0.4797
C24_2 C 0.6275(3) 0.6702(2) 0.48605(18)
C25_2 C 0.6871(4) 0.6700(3) 0.5462(2)
C28_2 C 0.5969(3) 0.3269(3) 0.3592(2)
H17_2 H 0.5759 0.3027 0.3773
C29_2 C 0.6284(2) 0.3769(3) 0.37466(17)
C30_2 C 0.6326(3) 0.3810(3) 0.42100(19)
C31_2 C 0.5956(3) 0.3127(3) 0.3200(2)
H18_2 H 0.5759 0.2785 0.3107
C32_2 C 0.7462(2) 0.4892(2) 0.34370(16)
C33_2 C 0.6586(2) 0.4151(2) 0.34814(18)
C34_2 C 0.6553(3) 0.4021(3) 0.30653(18)
H19_2 H 0.6735 0.4279 0.2880
C35_2 C 0.6914(2) 0.4716(2) 0.36095(17)
C36_2 C 0.6263(3) 0.3526(4) 0.2927(2)
H20_2 H 0.6262 0.3444 0.2650
C37_2 C 0.7708(3) 0.5438(3) 0.3548(2)
H21_2 H 0.8072 0.5557 0.3436
C38_2 C 0.5546(3) 0.7325(3) 0.4002(2)
H22_2 H 0.5223 0.7401 0.3831
C39_2 C 0.6437(3) 0.7337(3) 0.4256(2)
H23_2 H 0.6845 0.7404 0.4295
C41_2 C 0.7490(3) 0.7564(3) 0.5708(2)
H25_2 H 0.7319 0.7850 0.5538
C43_2 C 0.5525(3) 0.6981(3) 0.4323(2)
H27_2 H 0.5193 0.6767 0.4414
C44_2 C 0.6891(4) 0.5633(3) 0.3989(2)
H28_2 H 0.6699 0.5885 0.4173
C45_2 C 0.7429(4) 0.5804(3) 0.3817(3)
H29_2 H 0.7601 0.6171 0.3886
C46_2 C 0.6645(3) 0.5106(3) 0.38925(19)
H30_2 H 0.6286 0.4994 0.4015
C47_2 C 0.5940(6) 0.5014(4) 0.5755(3)
H31_2 H 0.5874 0.5221 0.5996
C48_2 C 0.6714(8) 0.0011(4) 0.2789(3)
H32_2 H 0.6799 0.0214 0.2549
C50_2 C 0.5916(5) 0.4416(4) 0.5700(3)
H34_2 H 0.5855 0.4136 0.5906
C51_2 C 0.8060(5) 0.7155(5) 0.6125(3)
H35_2 H 0.8364 0.7095 0.6314
C52_2 C 0.7694(6) 0.6724(5) 0.5984(4)
H36_2 H 0.7702 0.6319 0.6054
C55_2 C 0.7773(3) 0.2702(3) 0.2930(2)
H37_2 H 0.7499 0.2961 0.3052
C57_2 C 0.8529(4) 0.2385(3) 0.2596(3)
H39_2 H 0.8887 0.2381 0.2450
C58_2 C 0.8240(5) 0.1895(3) 0.2743(3)
H40_2 H 0.8344 0.1496 0.2697
Cd4_2 Cd 0.63964(2) 0.836913(18) 0.354864(13)
Cd6_2 Cd 0.836913(18) 0.86036(2) 0.604864(13)
O9_2 O 0.52514(19) 0.29324(18) 0.53006(13)
O10_2 O 0.60297(18) 0.29263(19) 0.57266(14)
N15_2 N 0.7128(2) 0.3214(3) 0.51968(15)
O5_2 O 0.6164(2) 0.7954(2) 0.28860(15)
O6_2 O 0.5390(2) 0.8240(2) 0.32435(16)
N1_2 N 0.6543(3) 0.9248(2) 0.32339(18)
C1_2 C 0.5245(3) 0.7237(3) 0.24123(18)
C2_2 C 0.5610(3) 0.8005(3) 0.2931(2)
C3_2 C 0.5189(3) 0.7788(3) 0.2599(2)
C4_2 C 0.4831(3) 0.7099(3) 0.2114(2)
H1_2 H 0.4868 0.6740 0.1972
C5_2 C 0.4703(4) 0.8161(4) 0.2499(3)
H2_2 H 0.4664 0.8531 0.2628
C6_2 C 0.4273(4) 0.7990(5) 0.2210(3)
H3_2 H 0.3940 0.8228 0.2156
C7_2 C 0.4358(4) 0.7487(5) 0.2020(3)
H4_2 H 0.4094 0.7380 0.1814
C17_2 C 0.6575(4) 0.9781(3) 0.3415(2)
H11_2 H 0.6531 0.9826 0.3695
C26_2 C 0.5683(3) 0.6773(2) 0.25490(19)
C27_2 C 0.5711(3) 0.6656(3) 0.2963(2)
H16_2 H 0.5461 0.6876 0.3134
C40_2 C 0.6082(5) 0.6237(4) 0.3135(3)
H24_2 H 0.6092 0.6177 0.3415
C42_2 C 0.6446(4) 0.5902(4) 0.2871(3)
H26_2 H 0.6709 0.5616 0.2975
C49_2 C 0.6595(7) 0.9379(4) 0.2849(3)
H33_2 H 0.6560 0.9101 0.2639
C53_2 C 0.6039(3) 0.6432(3) 0.2289(2)
C54_2 C 0.6084(3) 0.6529(4) 0.1836(2)
C56_2 C 0.6417(3) 0.5997(3) 0.2447(3)
H38_2 H 0.6653 0.5766 0.2274
O7_2 O 0.6194(2) 0.7019(2) 0.16954(15)
O8_2 O 0.6073(2) 0.6068(3) 0.16171(16)
Cd5_2 Cd 0.663087(18) 0.63964(2) 0.104864(13)
N14_2 N 0.7315(2) 0.7925(3) 0.34555(17)
O11_2 O 0.7019(2) 0.8806(2) 0.41954(15)
O12_2 O 0.6068(3) 0.8927(2) 0.41171(16)
Cd2 Cd 0.163087(18) 0.13964(2) 0.604864(13)
O5_3 O 0.2046(2) 0.1164(2) 0.53860(15)
O6_3 O 0.1760(2) 0.0390(2) 0.57435(16)
N1_3 N 0.0752(2) 0.1543(3) 0.57339(18)
C1_3 C 0.2763(3) 0.0245(3) 0.49123(18)
C2_3 C 0.1995(3) 0.0610(3) 0.5431(2)
C3_3 C 0.2212(3) 0.0189(3) 0.5099(2)
C17_3 C 0.0219(3) 0.1575(4) 0.5915(2)
H11_3 H 0.0174 0.1531 0.6195
C26_3 C 0.3227(2) 0.0683(3) 0.50490(19)
C27_3 C 0.3344(3) 0.0711(3) 0.5463(2)
H16_3 H 0.3124 0.0461 0.5634
C40_3 C 0.3763(4) 0.1082(5) 0.5635(3)
H24_3 H 0.3823 0.1092 0.5915
C42_3 C 0.4098(4) 0.1446(4) 0.5371(3)
H26_3 H 0.4384 0.1709 0.5475
C49_3 C 0.0621(4) 0.1595(7) 0.5349(3)
H33_3 H 0.0899 0.1560 0.5139
C53_3 C 0.3568(3) 0.1039(3) 0.4789(2)
C54_3 C 0.3471(4) 0.1084(3) 0.4336(2)
C56_3 C 0.4003(3) 0.1417(3) 0.4947(3)
H38_3 H 0.4234 0.1653 0.4774
O7_3 O 0.2981(2) 0.1194(2) 0.41954(15)
O8_3 O 0.3932(3) 0.1073(2) 0.41171(16)
N13 N 0.2434(2) 0.1127(2) 0.64521(17)
N14_3 N 0.2075(3) 0.2315(2) 0.59555(17)
O11_3 O 0.1194(2) 0.2019(2) 0.66954(15)
O12_3 O 0.1073(2) 0.1068(3) 0.66171(16)
Cd1_3 Cd 0.664101(16) 0.114465(18) 0.752449(12)
O1_3 O 0.6251(2) 0.0827(2) 0.69016(13)
O2_3 O 0.6144(2) 0.1810(2) 0.68769(13)
N2_3 N 0.9764(2) 0.1672(4) 0.56757(18)
N3_3 N 0.7535(2) 0.1172(2) 0.71344(13)
N4_3 N 0.8099(2) 0.1355(2) 0.65955(15)
N6_3 N 0.3006(2) 0.1094(2) 0.70053(16)
N7_3 N 0.4744(2) 0.1080(3) 0.78872(18)
N8_3 N 0.3006(2) 0.2308(3) 0.82176(18)
N9_3 N 0.2315(2) 0.2925(3) 0.84555(17)
N10_3 N 0.5719(2) 0.0994(3) 0.78020(17)
C8_3 C 0.8010(2) 0.2061(3) 0.6029(2)
H5_3 H 0.7620 0.2155 0.6108
C9_3 C 0.7886(3) 0.0683(3) 0.7051(2)
H6_3 H 0.7884 0.0327 0.7199
C10_3 C 0.8263(3) 0.2339(4) 0.5692(2)
N11_3 N 0.7905(2) 0.2766(3) 0.54703(17)
C11_3 C 0.8336(2) 0.1648(3) 0.62476(19)
C12_3 C 0.8235(3) 0.0792(3) 0.6723(2)
H7_3 H 0.8514 0.0531 0.6608
C13_3 C 0.7684(2) 0.1572(3) 0.6852(2)
H8_3 H 0.7519 0.1955 0.6833
C14_3 C 0.8925(3) 0.1501(4) 0.6120(2)
H9_3 H 0.9146 0.1209 0.6256
C15_3 C 0.9162(3) 0.1794(4) 0.5793(2)
C16_3 C 0.8829(3) 0.2228(5) 0.5583(3)
H10_3 H 0.9002 0.2437 0.5368
C18_3 C 0.5482(3) 0.2792(2) 0.5638(2)
C19_3 C 0.3017(3) 0.1675(3) 0.76126(19)
H12_3 H 0.2635 0.1815 0.7549
C20_3 C 0.4141(3) 0.1269(4) 0.78142(19)
C21_3 C 0.3861(3) 0.1679(3) 0.8059(2)
H13_3 H 0.4052 0.1825 0.8290
C22_3 C 0.5207(3) 0.1134(3) 0.76426(19)
H14_3 H 0.5170 0.1263 0.7375
C23_3 C 0.3866(3) 0.1057(3) 0.7462(2)
H15_3 H 0.4058 0.0776 0.7297
C24_3 C 0.3298(2) 0.1275(3) 0.73605(18)
C25_3 C 0.3300(3) 0.1871(4) 0.7962(2)
C28_3 C 0.6731(3) 0.0969(3) 0.6092(2)
H17_3 H 0.6973 0.0759 0.6273
C29_3 C 0.6231(3) 0.1284(2) 0.62466(17)
C30_3 C 0.6190(3) 0.1326(3) 0.67100(19)
C31_3 C 0.6873(3) 0.0956(3) 0.5700(2)
H18_3 H 0.7215 0.0759 0.5607
C32_3 C 0.5108(2) 0.2462(2) 0.59370(16)
C33_3 C 0.5849(2) 0.1586(2) 0.59814(18)
C34_3 C 0.5979(3) 0.1553(3) 0.55653(18)
H19_3 H 0.5721 0.1735 0.5380
C35_3 C 0.5284(2) 0.1914(2) 0.61095(17)
C36_3 C 0.6474(4) 0.1263(3) 0.5427(2)
H20_3 H 0.6556 0.1262 0.5150
C37_3 C 0.4562(3) 0.2708(3) 0.6048(2)
H21_3 H 0.4443 0.3072 0.5936
C38_3 C 0.2675(3) 0.0546(3) 0.6502(2)
H22_3 H 0.2599 0.0223 0.6331
C39_3 C 0.2663(3) 0.1437(3) 0.6756(2)
H23_3 H 0.2596 0.1845 0.6795
C41_3 C 0.2436(3) 0.2490(3) 0.8208(2)
H25_3 H 0.2150 0.2319 0.8038
C43_3 C 0.3019(3) 0.0525(3) 0.6823(2)
H27_3 H 0.3233 0.0193 0.6914
C44_3 C 0.4367(3) 0.1891(4) 0.6489(2)
H28_3 H 0.4115 0.1699 0.6673
C45_3 C 0.4196(3) 0.2429(4) 0.6317(3)
H29_3 H 0.3829 0.2601 0.6386
C46_3 C 0.4894(3) 0.1645(3) 0.63925(19)
H30_3 H 0.5006 0.1286 0.6515
C47_3 C 0.4986(4) 0.0940(6) 0.8255(3)
H31_3 H 0.4779 0.0874 0.8496
C48_3 C 0.9989(4) 0.1714(8) 0.5289(3)
H32_3 H 0.9786 0.1799 0.5049
C50_3 C 0.5584(4) 0.0916(5) 0.8200(3)
H34_3 H 0.5864 0.0855 0.8406
C51_3 C 0.2845(5) 0.3060(5) 0.8625(3)
H35_3 H 0.2905 0.3364 0.8814
C52_3 C 0.3276(5) 0.2694(6) 0.8484(4)
H36_3 H 0.3681 0.2702 0.8554
C55_3 C 0.7298(3) 0.2773(3) 0.5430(2)
H37_3 H 0.7039 0.2499 0.5552
C57_3 C 0.7615(3) 0.3529(4) 0.5096(3)
H39_3 H 0.7619 0.3887 0.4950
C58_3 C 0.8105(3) 0.3240(5) 0.5243(3)
H40_3 H 0.8504 0.3344 0.5197
O9_3 O 0.70676(18) 0.02514(19) 0.78006(13)
O10_3 O 0.70737(19) 0.10297(18) 0.82266(14)
N15_3 N 0.6786(3) 0.2128(2) 0.76968(15)
N10_4 N 0.9006(3) 0.0719(2) 0.03020(17)
C22_4 C 0.8866(3) 0.0207(3) 0.01426(19)
C50_4 C 0.9084(5) 0.0584(4) 0.0700(3)
H34_4 H 0.9145 0.0864 0.0906
Cd2_2 Cd 0.86036(2) 0.663087(18) 0.854864(13)
O1_4 O 0.9173(2) 0.1251(2) 0.94016(13)
O2_4 O 0.8190(2) 0.1144(2) 0.93769(13)
O5_4 O 0.8836(2) 0.7046(2) 0.78860(15)
O6_4 O 0.9610(2) 0.6760(2) 0.82435(16)
N1_4 N 0.8457(3) 0.5752(2) 0.82339(18)
N2_4 N 0.8328(4) 0.4764(2) 0.81757(18)
N3_4 N 0.8828(2) 0.2535(2) 0.96344(13)
N4_4 N 0.8645(2) 0.3099(2) 0.90955(15)
C1_4 C 0.9755(3) 0.7763(3) 0.74123(18)
C2_4 C 0.9390(3) 0.6995(3) 0.7931(2)
C3_4 C 0.9811(3) 0.7212(3) 0.7599(2)
C8_4 C 0.7939(3) 0.3010(2) 0.8529(2)
H5_4 H 0.7845 0.2620 0.8608
C9_4 C 0.9317(3) 0.2886(3) 0.9551(2)
H6_4 H 0.9673 0.2884 0.9699
C10_4 C 0.7661(4) 0.3263(3) 0.8192(2)
N11_4 N 0.7234(3) 0.2905(2) 0.79703(17)
C11_4 C 0.8352(3) 0.3336(2) 0.87476(19)
C12_4 C 0.9208(3) 0.3235(3) 0.9223(2)
H7_4 H 0.9469 0.3514 0.9108
C13_4 C 0.8428(3) 0.2684(2) 0.9352(2)
H8_4 H 0.8045 0.2519 0.9333
C14_4 C 0.8499(4) 0.3925(3) 0.8620(2)
H9_4 H 0.8791 0.4146 0.8756
C15_4 C 0.8206(4) 0.4162(3) 0.8293(2)
C16_4 C 0.7772(5) 0.3829(3) 0.8083(3)
H10_4 H 0.7563 0.4002 0.7868
C17_4 C 0.8425(4) 0.5219(3) 0.8415(2)
H11_4 H 0.8469 0.5174 0.8695
C18_4 C 0.7208(2) 0.0482(3) 0.8138(2)
H14_4 H 0.8737 0.0170 0.9875
C26_4 C 0.9317(3) 0.8227(2) 0.75490(19)
C27_4 C 0.9289(3) 0.8344(3) 0.7963(2)
H16_4 H 0.9539 0.8124 0.8134
C28_4 C 0.9031(3) 0.1731(3) 0.8592(2)
H17_4 H 0.9241 0.1973 0.8773
C29_4 C 0.8716(2) 0.1231(3) 0.87466(17)
C30_4 C 0.8674(3) 0.1190(3) 0.92100(19)
C31_4 C 0.9044(3) 0.1873(3) 0.8200(2)
H18_4 H 0.9241 0.2215 0.8107
C32_4 C 0.7538(2) 0.0108(2) 0.84370(16)
C33_4 C 0.8414(2) 0.0849(2) 0.84814(18)
C34_4 C 0.8447(3) 0.0979(3) 0.80653(18)
H19_4 H 0.8265 0.0721 0.7880
C35_4 C 0.8086(2) 0.0284(2) 0.86095(17)
C36_4 C 0.8737(3) 0.1474(4) 0.7927(2)
H20_4 H 0.8738 0.1556 0.7650
C40_4 C 0.8918(5) 0.8763(4) 0.8135(3)
H24_4 H 0.8908 0.8823 0.8415
C42_4 C 0.8554(4) 0.9098(4) 0.7871(3)
H26_4 H 0.8291 0.9384 0.7975
H30_4 H 0.8714 0.0006 0.9015
C48_4 C 0.8286(8) 0.4989(4) 0.7789(3)
H32_4 H 0.8201 0.4786 0.7549
C49_4 C 0.8405(7) 0.5621(4) 0.7849(3)
H33_4 H 0.8440 0.5899 0.7639
C53_4 C 0.8961(3) 0.8568(3) 0.7289(2)
C54_4 C 0.8916(3) 0.8471(4) 0.6836(2)
C55_4 C 0.7227(3) 0.2298(3) 0.7930(2)
H37_4 H 0.7501 0.2039 0.8052
C56_4 C 0.8583(3) 0.9003(3) 0.7447(3)
H38_4 H 0.8347 0.9234 0.7274
C57_4 C 0.6471(4) 0.2615(3) 0.7596(3)
H39_4 H 0.6113 0.2619 0.7450
C58_4 C 0.6760(5) 0.3105(3) 0.7743(3)
H40_4 H 0.6656 0.3504 0.7697
O7_4 O 0.8806(2) 0.7981(2) 0.66954(15)
O8_4 O 0.8927(2) 0.8932(3) 0.66171(16)
N13_2 N 0.8873(2) 0.7434(2) 0.89521(17)
N14_4 N 0.7685(2) 0.7075(3) 0.84555(17)
O11_4 O 0.7981(2) 0.6194(2) 0.91954(15)
O12_4 O 0.8932(3) 0.6073(2) 0.91171(16)
N7_4 N 0.8920(3) 0.9744(2) 0.03872(18)
N8_4 N 0.7692(3) 0.8006(2) 0.07176(18)
N9_4 N 0.7075(3) 0.7315(2) 0.09555(17)
C19_4 C 0.8325(3) 0.8017(3) 0.01126(19)
H12_4 H 0.8185 0.7635 0.0049
C20_4 C 0.8731(4) 0.9141(3) 0.03142(19)
C21_4 C 0.8321(3) 0.8861(3) 0.0559(2)
H13_4 H 0.8175 0.9052 0.0790
C25_4 C 0.8129(4) 0.8300(3) 0.0462(2)
C41_4 C 0.7510(3) 0.7436(3) 0.0708(2)
H25_4 H 0.7681 0.7150 0.0538
C47_4 C 0.9060(6) 0.9986(4) 0.0755(3)
H31_4 H 0.9126 0.9779 0.0996
C51_4 C 0.6940(5) 0.7845(5) 0.1125(3)
H35_4 H 0.6636 0.7905 0.1314
C52_4 C 0.7306(6) 0.8276(5) 0.0984(4)
H36_4 H 0.7298 0.8681 0.1054
N6_4 N 0.8906(2) 0.8006(2) 0.95053(16)
C23_4 C 0.8943(3) 0.8866(3) 0.9962(2)
H15_4 H 0.9224 0.9058 0.9797
C24_4 C 0.8725(3) 0.8298(2) 0.98605(18)
C37_4 C 0.7292(3) 0.9562(3) 0.8548(2)
H21_4 H 0.6928 0.9443 0.8436
C38_4 C 0.9454(3) 0.7675(3) 0.9002(2)
H22_4 H 0.9777 0.7599 0.8831
C39_4 C 0.8563(3) 0.7663(3) 0.9256(2)
H23_4 H 0.8155 0.7596 0.9295
C43_4 C 0.9475(3) 0.8019(3) 0.9323(2)
H27_4 H 0.9807 0.8233 0.9414
C44_4 C 0.8109(4) 0.9367(3) 0.8989(2)
H28_4 H 0.8301 0.9115 0.9173
C45_4 C 0.7571(4) 0.9196(3) 0.8817(3)
H29_4 H 0.7399 0.8829 0.8886
C46_4 C 0.8355(3) 0.9894(3) 0.88925(19)
Cd1_4 Cd 0.335899(16) 0.885535(18) 0.752449(12)
O1_5 O 0.3749(2) 0.9173(2) 0.69016(13)
O2_5 O 0.3856(2) 0.8190(2) 0.68769(13)
O3_2 O 0.47486(19) 0.70676(18) 0.53006(13)
O4_2 O 0.39703(18) 0.70737(19) 0.57266(14)
N2_5 N 0.0236(2) 0.8328(4) 0.56757(18)
N3_5 N 0.2465(2) 0.8828(2) 0.71344(13)
N4_5 N 0.1901(2) 0.8645(2) 0.65955(15)
N5_3 N 0.7566(2) 0.8873(2) 0.64521(17)
N6_5 N 0.6994(2) 0.8906(2) 0.70053(16)
N7_5 N 0.5256(2) 0.8920(3) 0.78872(18)
N8_5 N 0.6994(2) 0.7692(3) 0.82176(18)
N10_5 N 0.4281(2) 0.9006(3) 0.78020(17)
C8_5 C 0.1990(2) 0.7939(3) 0.6029(2)
H5_5 H 0.2380 0.7845 0.6108
C9_5 C 0.2114(3) 0.9317(3) 0.7051(2)
H6_5 H 0.2116 0.9673 0.7199
C10_5 C 0.1737(3) 0.7661(4) 0.5692(2)
N11_5 N 0.2095(2) 0.7234(3) 0.54703(17)
C11_5 C 0.1664(2) 0.8352(3) 0.62476(19)
C12_5 C 0.1765(3) 0.9208(3) 0.6723(2)
H7_5 H 0.1486 0.9469 0.6608
C13_5 C 0.2316(2) 0.8428(3) 0.6852(2)
H8_5 H 0.2481 0.8045 0.6833
C14_5 C 0.1075(3) 0.8499(4) 0.6120(2)
H9_5 H 0.0854 0.8791 0.6256
C15_5 C 0.0838(3) 0.8206(4) 0.5793(2)
C16_5 C 0.1171(3) 0.7772(5) 0.5583(3)
H10_5 H 0.0998 0.7563 0.5368
C18_5 C 0.4518(3) 0.7208(2) 0.5638(2)
C19_5 C 0.6983(3) 0.8325(3) 0.76126(19)
H12_5 H 0.7365 0.8185 0.7549
C20_5 C 0.5859(3) 0.8731(4) 0.78142(19)
C21_5 C 0.6139(3) 0.8321(3) 0.8059(2)
H13_5 H 0.5948 0.8175 0.8290
C22_5 C 0.4793(3) 0.8866(3) 0.76426(19)
H14_5 H 0.4830 0.8737 0.7375
C23_5 C 0.6134(3) 0.8943(3) 0.7462(2)
H15_5 H 0.5942 0.9224 0.7297
C24_5 C 0.6702(2) 0.8725(3) 0.73605(18)
C25_5 C 0.6700(3) 0.8129(4) 0.7962(2)
C28_5 C 0.3269(3) 0.9031(3) 0.6092(2)
H17_5 H 0.3027 0.9241 0.6273
C29_5 C 0.3769(3) 0.8716(2) 0.62466(17)
C30_5 C 0.3810(3) 0.8674(3) 0.67100(19)
C31_5 C 0.3127(3) 0.9044(3) 0.5700(2)
H18_5 H 0.2785 0.9241 0.5607
C32_5 C 0.4892(2) 0.7538(2) 0.59370(16)
C33_5 C 0.4151(2) 0.8414(2) 0.59814(18)
C34_5 C 0.4021(3) 0.8447(3) 0.55653(18)
H19_5 H 0.4279 0.8265 0.5380
C35_5 C 0.4716(2) 0.8086(2) 0.61095(17)
C36_5 C 0.3526(4) 0.8737(3) 0.5427(2)
H20_5 H 0.3444 0.8738 0.5150
C37_5 C 0.5438(3) 0.7292(3) 0.6048(2)
H21_5 H 0.5557 0.6928 0.5936
C38_5 C 0.7325(3) 0.9454(3) 0.6502(2)
H22_5 H 0.7401 0.9777 0.6331
C39_5 C 0.7337(3) 0.8563(3) 0.6756(2)
H23_5 H 0.7404 0.8155 0.6795
C41_5 C 0.7564(3) 0.7510(3) 0.8208(2)
H25_5 H 0.7850 0.7681 0.8038
C43_5 C 0.6981(3) 0.9475(3) 0.6823(2)
H27_5 H 0.6767 0.9807 0.6914
C44_5 C 0.5633(3) 0.8109(4) 0.6489(2)
H28_5 H 0.5885 0.8301 0.6673
C45_5 C 0.5804(3) 0.7571(4) 0.6317(3)
H29_5 H 0.6171 0.7399 0.6386
C46_5 C 0.5106(3) 0.8355(3) 0.63925(19)
H30_5 H 0.4994 0.8714 0.6515
C47_5 C 0.5014(4) 0.9060(6) 0.8255(3)
H31_5 H 0.5221 0.9126 0.8496
C48_5 C 0.0011(4) 0.8286(8) 0.5289(3)
H32_5 H 0.0214 0.8201 0.5049
C50_5 C 0.4416(4) 0.9084(5) 0.8200(3)
H34_5 H 0.4136 0.9145 0.8406
C51_5 C 0.7155(5) 0.6940(5) 0.8625(3)
H35_5 H 0.7095 0.6636 0.8814
C52_5 C 0.6724(5) 0.7306(6) 0.8484(4)
H36_5 H 0.6319 0.7298 0.8554
N12_2 N 0.2872(2) 0.6786(3) 0.51968(15)
C55_5 C 0.2702(3) 0.7227(3) 0.5430(2)
H37_5 H 0.2961 0.7501 0.5552
C57_5 C 0.2385(3) 0.6471(4) 0.5096(3)
H39_5 H 0.2381 0.6113 0.4950
C58_5 C 0.1895(3) 0.6760(5) 0.5243(3)
H40_5 H 0.1496 0.6656 0.5197
Cd3_2 Cd 0.385535(18) 0.664101(16) 0.502449(12)
O9_4 O 0.29324(18) 0.97486(19) 0.78006(13)
O10_4 O 0.29263(19) 0.89703(18) 0.82266(14)
N15_4 N 0.3214(3) 0.7872(2) 0.76968(15)
O5_5 O 0.7954(2) 0.8836(2) 0.53860(15)
O6_5 O 0.8240(2) 0.9610(2) 0.57435(16)
N1_5 N 0.9248(2) 0.8457(3) 0.57339(18)
C1_5 C 0.7237(3) 0.9755(3) 0.49123(18)
C2_5 C 0.8005(3) 0.9390(3) 0.5431(2)
C3_5 C 0.7788(3) 0.9811(3) 0.5099(2)
C17_5 C 0.9781(3) 0.8425(4) 0.5915(2)
H11_5 H 0.9826 0.8469 0.6195
C26_5 C 0.6773(2) 0.9317(3) 0.50490(19)
C27_5 C 0.6656(3) 0.9289(3) 0.5463(2)
H16_5 H 0.6876 0.9539 0.5634
C40_5 C 0.6237(4) 0.8918(5) 0.5635(3)
H24_5 H 0.6177 0.8908 0.5915
C42_5 C 0.5902(4) 0.8554(4) 0.5371(3)
H26_5 H 0.5616 0.8291 0.5475
C49_5 C 0.9379(4) 0.8405(7) 0.5349(3)
H33_5 H 0.9101 0.8440 0.5139
C53_5 C 0.6432(3) 0.8961(3) 0.4789(2)
C54_5 C 0.6529(4) 0.8916(3) 0.4336(2)
C56_5 C 0.5997(3) 0.8583(3) 0.4947(3)
H38_5 H 0.5766 0.8347 0.4774
N7_6 N 0.1080(3) 0.0256(2) 0.03872(18)
N8_6 N 0.2308(3) 0.1994(2) 0.07176(18)
C19_6 C 0.1675(3) 0.1983(3) 0.01126(19)
H12_6 H 0.1815 0.2365 0.0049
C20_6 C 0.1269(4) 0.0859(3) 0.03142(19)
C21_6 C 0.1679(3) 0.1139(3) 0.0559(2)
H13_6 H 0.1825 0.0948 0.0790
C25_6 C 0.1871(4) 0.1700(3) 0.0462(2)
C41_6 C 0.2490(3) 0.2564(3) 0.0708(2)
H25_6 H 0.2319 0.2850 0.0538
C47_6 C 0.0940(6) 0.0014(4) 0.0755(3)
H31_6 H 0.0874 0.0221 0.0996
C51_6 C 0.3060(5) 0.2155(5) 0.1125(3)
H35_6 H 0.3364 0.2095 0.1314
C52_6 C 0.2694(6) 0.1724(5) 0.0984(4)
H36_6 H 0.2702 0.1319 0.1054
N5_4 N 0.1127(2) 0.2566(2) 0.89521(17)
N6_6 N 0.1094(2) 0.1994(2) 0.95053(16)
C23_6 C 0.1057(3) 0.1134(3) 0.9962(2)
H15_6 H 0.0776 0.0942 0.9797
C24_6 C 0.1275(3) 0.1702(2) 0.98605(18)
C37_6 C 0.2708(3) 0.0438(3) 0.8548(2)
H21_6 H 0.3072 0.0557 0.8436
C38_6 C 0.0546(3) 0.2325(3) 0.9002(2)
H22_6 H 0.0223 0.2401 0.8831
C39_6 C 0.1437(3) 0.2337(3) 0.9256(2)
H23_6 H 0.1845 0.2404 0.9295
C43_6 C 0.0525(3) 0.1981(3) 0.9323(2)
H27_6 H 0.0193 0.1767 0.9414
C44_6 C 0.1891(4) 0.0633(3) 0.8989(2)
H28_6 H 0.1699 0.0885 0.9173
C45_6 C 0.2429(4) 0.0804(3) 0.8817(3)
H29_6 H 0.2601 0.1171 0.8886
C46_6 C 0.1645(3) 0.0106(3) 0.88925(19)
Cd1_5 Cd 0.114465(18) 0.835899(16) 0.002449(12)
N10_6 N 0.0994(3) 0.9281(2) 0.03020(17)
C22_6 C 0.1134(3) 0.9793(3) 0.01426(19)
C50_6 C 0.0916(5) 0.9416(4) 0.0700(3)
H34_6 H 0.0855 0.9136 0.0906
O9_5 O 0.02514(19) 0.79324(18) 0.03006(13)
O10_5 O 0.10297(18) 0.79263(19) 0.07266(14)
N15_5 N 0.2128(2) 0.8214(3) 0.01968(15)
O1_6 O 0.0827(2) 0.8749(2) 0.94016(13)
O2_6 O 0.1810(2) 0.8856(2) 0.93769(13)
O5_6 O 0.1164(2) 0.2954(2) 0.78860(15)
O6_6 O 0.0390(2) 0.3240(2) 0.82435(16)
N1_6 N 0.1543(3) 0.4248(2) 0.82339(18)
N2_6 N 0.1672(4) 0.5236(2) 0.81757(18)
N3_6 N 0.1172(2) 0.7465(2) 0.96344(13)
N4_6 N 0.1355(2) 0.6901(2) 0.90955(15)
C1_6 C 0.0245(3) 0.2237(3) 0.74123(18)
C2_6 C 0.0610(3) 0.3005(3) 0.7931(2)
C3_6 C 0.0189(3) 0.2788(3) 0.7599(2)
C8_6 C 0.2061(3) 0.6990(2) 0.8529(2)
H5_6 H 0.2155 0.7380 0.8608
C9_6 C 0.0683(3) 0.7114(3) 0.9551(2)
H6_6 H 0.0327 0.7116 0.9699
C10_6 C 0.2339(4) 0.6737(3) 0.8192(2)
N11_6 N 0.2766(3) 0.7095(2) 0.79703(17)
C11_6 C 0.1648(3) 0.6664(2) 0.87476(19)
C12_6 C 0.0792(3) 0.6765(3) 0.9223(2)
H7_6 H 0.0531 0.6486 0.9108
C13_6 C 0.1572(3) 0.7316(2) 0.9352(2)
H8_6 H 0.1955 0.7481 0.9333
C14_6 C 0.1501(4) 0.6075(3) 0.8620(2)
H9_6 H 0.1209 0.5854 0.8756
C15_6 C 0.1794(4) 0.5838(3) 0.8293(2)
C16_6 C 0.2228(5) 0.6171(3) 0.8083(3)
H10_6 H 0.2437 0.5998 0.7868
C17_6 C 0.1575(4) 0.4781(3) 0.8415(2)
H11_6 H 0.1531 0.4826 0.8695
C18_6 C 0.2792(2) 0.9518(3) 0.8138(2)
H14_6 H 0.1263 0.9830 0.9875
C26_6 C 0.0683(3) 0.1773(2) 0.75490(19)
C27_6 C 0.0711(3) 0.1656(3) 0.7963(2)
H16_6 H 0.0461 0.1876 0.8134
C28_6 C 0.0969(3) 0.8269(3) 0.8592(2)
H17_6 H 0.0759 0.8027 0.8773
C29_6 C 0.1284(2) 0.8769(3) 0.87466(17)
C30_6 C 0.1326(3) 0.8810(3) 0.92100(19)
C31_6 C 0.0956(3) 0.8127(3) 0.8200(2)
H18_6 H 0.0759 0.7785 0.8107
C32_6 C 0.2462(2) 0.9892(2) 0.84370(16)
C33_6 C 0.1586(2) 0.9151(2) 0.84814(18)
C34_6 C 0.1553(3) 0.9021(3) 0.80653(18)
H19_6 H 0.1735 0.9279 0.7880
C35_6 C 0.1914(2) 0.9716(2) 0.86095(17)
C36_6 C 0.1263(3) 0.8526(4) 0.7927(2)
H20_6 H 0.1262 0.8444 0.7650
C40_6 C 0.1082(5) 0.1237(4) 0.8135(3)
H24_6 H 0.1092 0.1177 0.8415
C42_6 C 0.1446(4) 0.0902(4) 0.7871(3)
H26_6 H 0.1709 0.0616 0.7975
H30_6 H 0.1286 0.9994 0.9015
C48_6 C 0.1714(8) 0.5011(4) 0.7789(3)
H32_6 H 0.1799 0.5214 0.7549
C49_6 C 0.1595(7) 0.4379(4) 0.7849(3)
H33_6 H 0.1560 0.4101 0.7639
C53_6 C 0.1039(3) 0.1432(3) 0.7289(2)
C54_6 C 0.1084(3) 0.1529(4) 0.6836(2)
C55_6 C 0.2773(3) 0.7702(3) 0.7930(2)
H37_6 H 0.2499 0.7961 0.8052
C56_6 C 0.1417(3) 0.0997(3) 0.7447(3)
H38_6 H 0.1653 0.0766 0.7274
C57_6 C 0.3529(4) 0.7385(3) 0.7596(3)
H39_6 H 0.3887 0.7381 0.7450
C58_6 C 0.3240(5) 0.6895(3) 0.7743(3)
H40_6 H 0.3344 0.6496 0.7697
Cd1_6 Cd 0.164101(16) 0.614465(18) 0.252449(12)
O1_7 O 0.1251(2) 0.5827(2) 0.19016(13)
O2_7 O 0.1144(2) 0.6810(2) 0.18769(13)
O5_7 O 0.7046(2) 0.6164(2) 0.03860(15)
O6_7 O 0.6760(2) 0.5390(2) 0.07435(16)
N1_7 N 0.5752(2) 0.6543(3) 0.07339(18)
N2_7 N 0.4764(2) 0.6672(4) 0.06757(18)
N3_7 N 0.2535(2) 0.6172(2) 0.21344(13)
N4_7 N 0.3099(2) 0.6355(2) 0.15955(15)
N10_7 N 0.0719(2) 0.5994(3) 0.28020(17)
C2_7 C 0.6995(3) 0.5610(3) 0.0431(2)
C3_7 C 0.7212(3) 0.5189(3) 0.0099(2)
H2_3 H 0.6469 0.4664 0.0128
C8_7 C 0.3010(2) 0.7061(3) 0.1029(2)
H5_7 H 0.2620 0.7155 0.1108
C9_7 C 0.2886(3) 0.5683(3) 0.2051(2)
H6_7 H 0.2884 0.5327 0.2199
C10_7 C 0.3263(3) 0.7339(4) 0.0692(2)
N11_7 N 0.2905(2) 0.7766(3) 0.04703(17)
C11_7 C 0.3336(2) 0.6648(3) 0.12476(19)
C12_7 C 0.3235(3) 0.5792(3) 0.1723(2)
H7_7 H 0.3514 0.5531 0.1608
C13_7 C 0.2684(2) 0.6572(3) 0.1852(2)
H8_7 H 0.2519 0.6955 0.1833
C14_7 C 0.3925(3) 0.6501(4) 0.1120(2)
H9_7 H 0.4146 0.6209 0.1256
C15_7 C 0.4162(3) 0.6794(4) 0.0793(2)
C16_7 C 0.3829(3) 0.7228(5) 0.0583(3)
H10_7 H 0.4002 0.7437 0.0368
C17_7 C 0.5219(3) 0.6575(4) 0.0915(2)
H11_7 H 0.5174 0.6531 0.1195
C18_7 C 0.0482(3) 0.7792(2) 0.0638(2)
C22_7 C 0.0207(3) 0.6134(3) 0.26426(19)
H14_7 H 0.0170 0.6263 0.2375
C26_7 C 0.8227(2) 0.5683(3) 0.00490(19)
C27_7 C 0.8344(3) 0.5711(3) 0.0463(2)
H16_7 H 0.8124 0.5461 0.0634
C28_7 C 0.1731(3) 0.5969(3) 0.1092(2)
H17_7 H 0.1973 0.5759 0.1273
C29_7 C 0.1231(3) 0.6284(2) 0.12466(17)
C30_7 C 0.1190(3) 0.6326(3) 0.17100(19)
C31_7 C 0.1873(3) 0.5956(3) 0.0700(2)
H18_7 H 0.2215 0.5759 0.0607
C32_7 C 0.0108(2) 0.7462(2) 0.09370(16)
C33_7 C 0.0849(2) 0.6586(2) 0.09814(18)
C34_7 C 0.0979(3) 0.6553(3) 0.05653(18)
H19_7 H 0.0721 0.6735 0.0380
C35_7 C 0.0284(2) 0.6914(2) 0.11095(17)
C36_7 C 0.1474(4) 0.6263(3) 0.0427(2)
H20_7 H 0.1556 0.6262 0.0150
C40_7 C 0.8763(4) 0.6082(5) 0.0635(3)
H24_7 H 0.8823 0.6092 0.0915
C42_7 C 0.9098(4) 0.6446(4) 0.0371(3)
H26_7 H 0.9384 0.6709 0.0475
H30_7 H 0.0006 0.6286 0.1515
C48_7 C 0.4989(4) 0.6714(8) 0.0289(3)
H32_7 H 0.4786 0.6799 0.0049
C49_7 C 0.5621(4) 0.6595(7) 0.0349(3)
H33_7 H 0.5899 0.6560 0.0139
C50_7 C 0.0584(4) 0.5916(5) 0.3200(3)
H34_7 H 0.0864 0.5855 0.3406
C55_7 C 0.2298(3) 0.7773(3) 0.0430(2)
H37_7 H 0.2039 0.7499 0.0552
C57_7 C 0.2615(3) 0.8529(4) 0.0096(3)
C58_7 C 0.3105(3) 0.8240(5) 0.0243(3)
H40_7 H 0.3504 0.8344 0.0197
O9_6 O 0.20676(18) 0.52514(19) 0.28006(13)
O10_6 O 0.20737(19) 0.60297(18) 0.32266(14)
N13_3 N 0.7434(2) 0.6127(2) 0.14521(17)
N15_6 N 0.1786(3) 0.7128(2) 0.26968(15)
C1_7 C 0.7763(3) 0.5245(3) 0.99123(18)
C4_3 C 0.7901(3) 0.4831(3) 0.9614(2)
H1_3 H 0.8260 0.4868 0.9472
C5_3 C 0.6839(4) 0.4703(4) 0.9999(3)
C6_3 C 0.7010(5) 0.4273(4) 0.9710(3)
H3_3 H 0.6772 0.3940 0.9656
C7_3 C 0.7513(5) 0.4358(4) 0.9520(3)
H4_3 H 0.7620 0.4094 0.9314
C53_7 C 0.8568(3) 0.6039(3) 0.9789(2)
C54_7 C 0.8471(4) 0.6084(3) 0.9336(2)
C56_7 C 0.9003(3) 0.6417(3) 0.9947(3)
H38_7 H 0.9234 0.6653 0.9774
H39_7 H 0.2619 0.8887 0.9950
N6_7 N 0.8006(2) 0.6094(2) 0.20053(16)
N7_7 N 0.9744(2) 0.6080(3) 0.28872(18)
N8_7 N 0.8006(2) 0.7308(3) 0.32176(18)
C19_7 C 0.8017(3) 0.6675(3) 0.26126(19)
H12_7 H 0.7635 0.6815 0.2549
C20_7 C 0.9141(3) 0.6269(4) 0.28142(19)
C21_7 C 0.8861(3) 0.6679(3) 0.3059(2)
H13_7 H 0.9052 0.6825 0.3290
C23_7 C 0.8866(3) 0.6057(3) 0.2462(2)
H15_7 H 0.9058 0.5776 0.2297
C24_7 C 0.8298(2) 0.6275(3) 0.23605(18)
C25_7 C 0.8300(3) 0.6871(4) 0.2962(2)
C37_7 C 0.9562(3) 0.7708(3) 0.1048(2)
H21_7 H 0.9443 0.8072 0.0936
C38_7 C 0.7675(3) 0.5546(3) 0.1502(2)
H22_7 H 0.7599 0.5223 0.1331
C39_7 C 0.7663(3) 0.6437(3) 0.1756(2)
H23_7 H 0.7596 0.6845 0.1795
C41_7 C 0.7436(3) 0.7490(3) 0.3208(2)
H25_7 H 0.7150 0.7319 0.3038
C43_7 C 0.8019(3) 0.5525(3) 0.1823(2)
H27_7 H 0.8233 0.5193 0.1914
C44_7 C 0.9367(3) 0.6891(4) 0.1489(2)
H28_7 H 0.9115 0.6699 0.1673
C45_7 C 0.9196(3) 0.7429(4) 0.1317(3)
H29_7 H 0.8829 0.7601 0.1386
C46_7 C 0.9894(3) 0.6645(3) 0.13925(19)
C47_7 C 0.9986(4) 0.5940(6) 0.3255(3)
H31_7 H 0.9779 0.5874 0.3496
C51_7 C 0.7845(5) 0.8060(5) 0.3625(3)
H35_7 H 0.7905 0.8364 0.3814
C52_7 C 0.8276(5) 0.7694(6) 0.3484(4)
H36_7 H 0.8681 0.7702 0.3554
O5_8 O 0.3836(2) 0.2046(2) 0.28860(15)
O6_8 O 0.4610(2) 0.1760(2) 0.32435(16)
N1_8 N 0.3457(3) 0.0752(2) 0.32339(18)
C1_8 C 0.4755(3) 0.2763(3) 0.24123(18)
C2_8 C 0.4390(3) 0.1995(3) 0.2931(2)
C3_8 C 0.4811(3) 0.2212(3) 0.2599(2)
C4_4 C 0.5169(3) 0.2901(3) 0.2114(2)
H1_4 H 0.5132 0.3260 0.1972
C5_4 C 0.5297(4) 0.1839(4) 0.2499(3)
H2_4 H 0.5336 0.1469 0.2628
C6_4 C 0.5727(4) 0.2010(5) 0.2210(3)
H3_4 H 0.6060 0.1772 0.2156
C7_4 C 0.5642(4) 0.2513(5) 0.2020(3)
H4_4 H 0.5906 0.2620 0.1814
C17_8 C 0.3425(4) 0.0219(3) 0.3415(2)
H11_8 H 0.3469 0.0174 0.3695
C26_8 C 0.4317(3) 0.3227(2) 0.25490(19)
C27_8 C 0.4289(3) 0.3344(3) 0.2963(2)
H16_8 H 0.4539 0.3124 0.3134
C40_8 C 0.3918(5) 0.3763(4) 0.3135(3)
H24_8 H 0.3908 0.3823 0.3415
C42_8 C 0.3554(4) 0.4098(4) 0.2871(3)
H26_8 H 0.3291 0.4384 0.2975
C49_8 C 0.3405(7) 0.0621(4) 0.2849(3)
H33_8 H 0.3440 0.0899 0.2639
C53_8 C 0.3961(3) 0.3568(3) 0.2289(2)
C54_8 C 0.3916(3) 0.3471(4) 0.1836(2)
C56_8 C 0.3583(3) 0.4003(3) 0.2447(3)
H38_8 H 0.3347 0.4234 0.2274
N13_4 N 0.3873(2) 0.2434(2) 0.39521(17)
O1_8 O 0.4173(2) 0.6251(2) 0.44016(13)
O2_8 O 0.3190(2) 0.6144(2) 0.43769(13)
N2_8 N 0.3328(4) 0.9764(2) 0.31757(18)
N3_8 N 0.3828(2) 0.7535(2) 0.46344(13)
N4_8 N 0.3645(2) 0.8099(2) 0.40955(15)
N6_8 N 0.3906(2) 0.3006(2) 0.45053(16)
N7_8 N 0.3920(3) 0.4744(2) 0.53872(18)
N8_8 N 0.2692(3) 0.3006(2) 0.57176(18)
N10_8 N 0.4006(3) 0.5719(2) 0.53020(17)
C8_8 C 0.2939(3) 0.8010(2) 0.3529(2)
H5_8 H 0.2845 0.7620 0.3608
C9_8 C 0.4317(3) 0.7886(3) 0.4551(2)
H6_8 H 0.4673 0.7884 0.4699
C10_8 C 0.2661(4) 0.8263(3) 0.3192(2)
N11_8 N 0.2234(3) 0.7905(2) 0.29703(17)
C11_8 C 0.3352(3) 0.8336(2) 0.37476(19)
C12_8 C 0.4208(3) 0.8235(3) 0.4223(2)
H7_8 H 0.4469 0.8514 0.4108
C13_8 C 0.3428(3) 0.7684(2) 0.4352(2)
H8_8 H 0.3045 0.7519 0.4333
C14_8 C 0.3499(4) 0.8925(3) 0.3620(2)
H9_8 H 0.3791 0.9146 0.3756
C15_8 C 0.3206(4) 0.9162(3) 0.3293(2)
C16_8 C 0.2772(5) 0.8829(3) 0.3083(3)
H10_8 H 0.2563 0.9002 0.2868
C18_8 C 0.2208(2) 0.5482(3) 0.3138(2)
C19_8 C 0.3325(3) 0.3017(3) 0.51126(19)
H12_8 H 0.3185 0.2635 0.5049
C20_8 C 0.3731(4) 0.4141(3) 0.53142(19)
C21_8 C 0.3321(3) 0.3861(3) 0.5559(2)
H13_8 H 0.3175 0.4052 0.5790
C22_8 C 0.3866(3) 0.5207(3) 0.51426(19)
H14_8 H 0.3737 0.5170 0.4875
C23_8 C 0.3943(3) 0.3866(3) 0.4962(2)
H15_8 H 0.4224 0.4058 0.4797
C24_8 C 0.3725(3) 0.3298(2) 0.48605(18)
C25_8 C 0.3129(4) 0.3300(3) 0.5462(2)
C28_8 C 0.4031(3) 0.6731(3) 0.3592(2)
H17_8 H 0.4241 0.6973 0.3773
C29_8 C 0.3716(2) 0.6231(3) 0.37466(17)
C30_8 C 0.3674(3) 0.6190(3) 0.42100(19)
C31_8 C 0.4044(3) 0.6873(3) 0.3200(2)
H18_8 H 0.4241 0.7215 0.3107
C32_8 C 0.2538(2) 0.5108(2) 0.34370(16)
C33_8 C 0.3414(2) 0.5849(2) 0.34814(18)
C34_8 C 0.3447(3) 0.5979(3) 0.30653(18)
H19_8 H 0.3265 0.5721 0.2880
C35_8 C 0.3086(2) 0.5284(2) 0.36095(17)
C36_8 C 0.3737(3) 0.6474(4) 0.2927(2)
H20_8 H 0.3738 0.6556 0.2650
C37_8 C 0.2292(3) 0.4562(3) 0.3548(2)
H21_8 H 0.1928 0.4443 0.3436
C38_8 C 0.4454(3) 0.2675(3) 0.4002(2)
H22_8 H 0.4777 0.2599 0.3831
C39_8 C 0.3563(3) 0.2663(3) 0.4256(2)
H23_8 H 0.3155 0.2596 0.4295
C41_8 C 0.2510(3) 0.2436(3) 0.5708(2)
H25_8 H 0.2681 0.2150 0.5538
C43_8 C 0.4475(3) 0.3019(3) 0.4323(2)
H27_8 H 0.4807 0.3233 0.4414
C44_8 C 0.3109(4) 0.4367(3) 0.3989(2)
H28_8 H 0.3301 0.4115 0.4173
C45_8 C 0.2571(4) 0.4196(3) 0.3817(3)
H29_8 H 0.2399 0.3829 0.3886
C46_8 C 0.3355(3) 0.4894(3) 0.38925(19)
H30_8 H 0.3714 0.5006 0.4015
C47_8 C 0.4060(6) 0.4986(4) 0.5755(3)
H31_8 H 0.4126 0.4779 0.5996
C48_8 C 0.3286(8) 0.9989(4) 0.2789(3)
H32_8 H 0.3201 0.9786 0.2549
C50_8 C 0.4084(5) 0.5584(4) 0.5700(3)
H34_8 H 0.4145 0.5864 0.5906
C51_8 C 0.1940(5) 0.2845(5) 0.6125(3)
H35_8 H 0.1636 0.2905 0.6314
C52_8 C 0.2306(6) 0.3276(5) 0.5984(4)
H36_8 H 0.2298 0.3681 0.6054
C55_8 C 0.2227(3) 0.7298(3) 0.2930(2)
H37_8 H 0.2501 0.7039 0.3052
C57_8 C 0.1471(4) 0.7615(3) 0.2596(3)
H39_8 H 0.1113 0.7619 0.2450
C58_8 C 0.1760(5) 0.8105(3) 0.2743(3)
H40_8 H 0.1656 0.8504 0.2697
C4_5 C 0.2901(3) 0.9831(3) 0.4614(2)
H1_5 H 0.3260 0.9868 0.4472
C5_5 C 0.1839(4) 0.9703(4) 0.4999(3)
H2_5 H 0.1469 0.9664 0.5128
C6_5 C 0.2010(5) 0.9273(4) 0.4710(3)
H3_5 H 0.1772 0.8940 0.4656
C7_5 C 0.2513(5) 0.9358(4) 0.4520(3)
H4_5 H 0.2620 0.9094 0.4314
C4_6 C 0.0169(3) 0.7901(3) 0.7114(2)
H1_6 H 0.0132 0.8260 0.6972
C5_6 C 0.0297(4) 0.6839(4) 0.7499(3)
H2_6 H 0.0336 0.6469 0.7628
C6_6 C 0.0727(4) 0.7010(5) 0.7210(3)
H3_6 H 0.1060 0.6772 0.7156
C7_6 C 0.0642(4) 0.7513(5) 0.7020(3)
H4_6 H 0.0906 0.7620 0.6814
C4_7 C 0.7099(3) 0.0169(3) 0.4614(2)
H1_7 H 0.6740 0.0132 0.4472
C5_7 C 0.8161(4) 0.0297(4) 0.4999(3)
H2_7 H 0.8531 0.0336 0.5128
C6_7 C 0.7990(5) 0.0727(4) 0.4710(3)
H3_7 H 0.8228 0.1060 0.4656
C7_7 C 0.7487(5) 0.0642(4) 0.4520(3)
H4_7 H 0.7380 0.0906 0.4314
C4_8 C 0.9831(3) 0.2099(3) 0.7114(2)
H1_8 H 0.9868 0.1740 0.6972
C5_8 C 0.9703(4) 0.3161(4) 0.7499(3)
H2_8 H 0.9664 0.3531 0.7628
C6_8 C 0.9273(4) 0.2990(5) 0.7210(3)
H3_8 H 0.8940 0.3228 0.7156
C7_8 C 0.9358(4) 0.2487(5) 0.7020(3)
H4_8 H 0.9094 0.2380 0.6814
loop_
_geom_bond_atom_site_label_1
_geom_bond_atom_site_label_2
_geom_bond_site_symmetry_1
_geom_bond_site_symmetry_2
N5 C38 1_555 1_555
N6 C24 1_555 1_555
N7 C20 1_555 1_555
N8 C25 1_555 1_555
N9 C41 1_555 1_555
C19 H12 1_555 1_555
C20 C21 1_555 1_555
C21 H13 1_555 1_555
C23 C20 1_555 1_555
H15 C23 1_555 1_555
C24 C19 1_555 1_555
C25 C19 1_555 1_555
H21 C37 1_555 1_555
C38 H22 1_555 1_555
C39 N5 1_555 1_555
H23 C39 1_555 1_555
C41 N8 1_555 1_555
H25 C41 1_555 1_555
C43 N6 1_555 1_555
H27 C43 1_555 1_555
C44 H28 1_555 1_555
C45 C37 1_555 1_555
H29 C45 1_555 1_555
C47 N7 1_555 1_555
H31 C47 1_555 1_555
C51 N9 1_555 1_555
H35 C51 1_555 1_555
C52 N8 1_555 1_555
H36 C52 1_555 1_555
Cd4 N5 1_555 1_555
Cd6 N9 1_555 1_555
N6 C39 1_555 1_555
C21 C25 1_555 1_555
C23 C24 1_555 1_555
C38 C43 1_555 1_555
C44 C45 1_555 1_555
C44 C46 1_555 1_555
C51 C52 1_555 1_555
Cd1 O1 1_555 1_555
Cd4 O5 1_555 1_555
O1 C30 1_555 1_555
O2 C30 1_555 1_555
O3 C18 1_555 1_555
O4 C18 1_555 1_555
O5 C2 1_555 1_555
O6 Cd4 1_555 1_555
N1 Cd4 1_555 1_555
N2 C15 1_555 1_555
N3 Cd1 1_555 1_555
N4 C11 1_555 1_555
N10 Cd1 1_555 1_555
C2 O6 1_555 1_555
C3 C2 1_555 1_555
C8 H5 1_555 1_555
C9 N3 1_555 1_555
H6 C9 1_555 1_555
C10 C8 1_555 1_555
N11 C10 1_555 1_555
C11 C8 1_555 1_555
C12 N4 1_555 1_555
H7 C12 1_555 1_555
C13 N3 1_555 1_555
H8 C13 1_555 1_555
C14 C11 1_555 1_555
H9 C14 1_555 1_555
C15 C14 1_555 1_555
C16 C10 1_555 1_555
H10 C16 1_555 1_555
C17 N1 1_555 1_555
H11 C17 1_555 1_555
C18 C32 1_555 1_555
H14 C22 1_555 1_555
C27 C26 1_555 1_555
H16 C27 1_555 1_555
C28 H17 1_555 1_555
C29 C28 1_555 1_555
C30 C29 1_555 1_555
C31 C28 1_555 1_555
H18 C31 1_555 1_555
C32 C35 1_555 1_555
C33 C29 1_555 1_555
C34 C33 1_555 1_555
H19 C34 1_555 1_555
C35 C33 1_555 1_555
C36 C31 1_555 1_555
H20 C36 1_555 1_555
C40 C27 1_555 1_555
H24 C40 1_555 1_555
C42 C40 1_555 1_555
H26 C42 1_555 1_555
C48 N2 1_555 1_555
H32 C48 1_555 1_555
C49 N1 1_555 1_555
H33 C49 1_555 1_555
C50 N10 1_555 1_555
H34 C50 1_555 1_555
N12 C55 1_555 1_555
C55 N11 1_555 1_555
H37 C55 1_555 1_555
C57 N12 1_555 1_555
C58 N11 1_555 1_555
H40 C58 1_555 1_555
Cd3 O3 1_555 1_555
O9 Cd1 1_555 1_555
O10 Cd1 1_555 1_555
N14 Cd4 1_555 1_555
N15 Cd1 1_555 1_555
O11 Cd4 1_555 1_555
O12 Cd4 1_555 1_555
O4 Cd3 1_555 1_555
N2 C17 1_555 1_555
N4 C13 1_555 1_555
N10 C22 1_555 1_555
C9 C12 1_555 1_555
C15 C16 1_555 1_555
C34 C36 1_555 1_555
C48 C49 1_555 1_555
N12 Cd3 1_555 1_555
C57 C58 1_555 1_555
C4 C1 1_555 1_555
H1 C4 1_555 1_555
C6 C5 1_555 1_555
H3 C6 1_555 1_555
C7 C4 1_555 1_555
H4 C7 1_555 1_555
C54 C53 1_555 1_555
H38 C56 1_555 1_555
O7 C54 1_555 1_555
O8 C54 1_555 1_555
Cd5 O7 1_555 1_555
C6 C7 1_555 1_555
C53 C56 1_555 1_555
O8 Cd5 1_555 1_555
Cd1_2 O1_2 1_555 1_555
O1_2 C30_2 1_555 1_555
O2_2 C30_2 1_555 1_555
O9 C18_2 1_555 1_555
O10 C18_2 1_555 1_555
N2_2 C15_2 1_555 1_555
N3_2 Cd1_2 1_555 1_555
N4_2 C11_2 1_555 1_555
N5_2 C38_2 1_555 1_555
N6_2 C24_2 1_555 1_555
N7_2 C20_2 1_555 1_555
N8_2 C25_2 1_555 1_555
N9_2 C41_2 1_555 1_555
N10_2 Cd1_2 1_555 1_555
C8_2 H5_2 1_555 1_555
C9_2 N3_2 1_555 1_555
H6_2 C9_2 1_555 1_555
C10_2 C8_2 1_555 1_555
N11_2 C10_2 1_555 1_555
C11_2 C8_2 1_555 1_555
C12_2 N4_2 1_555 1_555
H7_2 C12_2 1_555 1_555
C13_2 N3_2 1_555 1_555
H8_2 C13_2 1_555 1_555
C14_2 C11_2 1_555 1_555
H9_2 C14_2 1_555 1_555
C15_2 C14_2 1_555 1_555
C16_2 C10_2 1_555 1_555
H10_2 C16_2 1_555 1_555
C18_2 C32_2 1_555 1_555
C19_2 H12_2 1_555 1_555
C20_2 C21_2 1_555 1_555
C21_2 H13_2 1_555 1_555
C22_2 N7_2 1_555 1_555
H14_2 C22_2 1_555 1_555
C23_2 C20_2 1_555 1_555
H15_2 C23_2 1_555 1_555
C24_2 C19_2 1_555 1_555
C25_2 C19_2 1_555 1_555
C28_2 H17_2 1_555 1_555
C29_2 C28_2 1_555 1_555
C30_2 C29_2 1_555 1_555
C31_2 C28_2 1_555 1_555
H18_2 C31_2 1_555 1_555
C32_2 C35_2 1_555 1_555
C33_2 C29_2 1_555 1_555
C34_2 C33_2 1_555 1_555
H19_2 C34_2 1_555 1_555
C35_2 C33_2 1_555 1_555
C36_2 C31_2 1_555 1_555
H20_2 C36_2 1_555 1_555
C37_2 C32_2 1_555 1_555
H21_2 C37_2 1_555 1_555
C38_2 H22_2 1_555 1_555
C39_2 N5_2 1_555 1_555
H23_2 C39_2 1_555 1_555
C41_2 N8_2 1_555 1_555
H25_2 C41_2 1_555 1_555
C43_2 N6_2 1_555 1_555
H27_2 C43_2 1_555 1_555
C44_2 H28_2 1_555 1_555
C45_2 C37_2 1_555 1_555
H29_2 C45_2 1_555 1_555
C46_2 C35_2 1_555 1_555
H30_2 C46_2 1_555 1_555
C47_2 N7_2 1_555 1_555
H31_2 C47_2 1_555 1_555
C48_2 N2_2 1_555 1_555
H32_2 C48_2 1_555 1_555
C50_2 N10_2 1_555 1_555
H34_2 C50_2 1_555 1_555
C51_2 N9_2 1_555 1_555
H35_2 C51_2 1_555 1_555
C52_2 N8_2 1_555 1_555
H36_2 C52_2 1_555 1_555
N15 C55_2 1_555 1_555
C55_2 N11_2 1_555 1_555
H37_2 C55_2 1_555 1_555
C57_2 N15 1_555 1_555
H39_2 C57_2 1_555 1_555
C58_2 N11_2 1_555 1_555
H40_2 C58_2 1_555 1_555
Cd4_2 N5_2 1_555 1_555
Cd6_2 N9_2 1_555 1_555
O9_2 Cd1_2 1_555 1_555
O10_2 Cd1_2 1_555 1_555
N15_2 Cd1_2 1_555 1_555
N4_2 C13_2 1_555 1_555
N6_2 C39_2 1_555 1_555
N10_2 C22_2 1_555 1_555
C9_2 C12_2 1_555 1_555
C15_2 C16_2 1_555 1_555
C21_2 C25_2 1_555 1_555
C23_2 C24_2 1_555 1_555
C34_2 C36_2 1_555 1_555
C38_2 C43_2 1_555 1_555
C44_2 C45_2 1_555 1_555
C44_2 C46_2 1_555 1_555
C47_2 C50_2 1_555 1_555
C51_2 C52_2 1_555 1_555
C57_2 C58_2 1_555 1_555
Cd4_2 O5_2 1_555 1_555
O5_2 C2_2 1_555 1_555
O6_2 Cd4_2 1_555 1_555
N1_2 Cd4_2 1_555 1_555
C1_2 C3_2 1_555 1_555
C2_2 O6_2 1_555 1_555
C3_2 C2_2 1_555 1_555
C4_2 C1_2 1_555 1_555
H1_2 C4_2 1_555 1_555
C5_2 C3_2 1_555 1_555
H2_2 C5_2 1_555 1_555
C6_2 C5_2 1_555 1_555
H3_2 C6_2 1_555 1_555
C7_2 C4_2 1_555 1_555
H4_2 C7_2 1_555 1_555
C17_2 N1_2 1_555 1_555
H11_2 C17_2 1_555 1_555
C26_2 C1_2 1_555 1_555
C27_2 C26_2 1_555 1_555
H16_2 C27_2 1_555 1_555
C40_2 C27_2 1_555 1_555
H24_2 C40_2 1_555 1_555
C42_2 C40_2 1_555 1_555
H26_2 C42_2 1_555 1_555
C49_2 N1_2 1_555 1_555
H33_2 C49_2 1_555 1_555
C53_2 C26_2 1_555 1_555
C54_2 C53_2 1_555 1_555
C56_2 C42_2 1_555 1_555
H38_2 C56_2 1_555 1_555
O7_2 C54_2 1_555 1_555
O8_2 C54_2 1_555 1_555
Cd5_2 O7_2 1_555 1_555
N14_2 Cd4_2 1_555 1_555
O11_2 Cd4_2 1_555 1_555
O12_2 Cd4_2 1_555 1_555
C6_2 C7_2 1_555 1_555
C53_2 C56_2 1_555 1_555
O8_2 Cd5_2 1_555 1_555
Cd2 O5_3 1_555 1_555
O5_3 C2_3 1_555 1_555
O6_3 Cd2 1_555 1_555
N1_3 Cd2 1_555 1_555
C1_3 C3_3 1_555 1_555
C2_3 O6_3 1_555 1_555
C3_3 C2_3 1_555 1_555
C17_3 N1_3 1_555 1_555
H11_3 C17_3 1_555 1_555
C26_3 C1_3 1_555 1_555
C27_3 C26_3 1_555 1_555
H16_3 C27_3 1_555 1_555
C40_3 C27_3 1_555 1_555
H24_3 C40_3 1_555 1_555
C42_3 C40_3 1_555 1_555
H26_3 C42_3 1_555 1_555
C49_3 N1_3 1_555 1_555
H33_3 C49_3 1_555 1_555
C53_3 C26_3 1_555 1_555
C54_3 C53_3 1_555 1_555
C56_3 C42_3 1_555 1_555
H38_3 C56_3 1_555 1_555
O7_3 C54_3 1_555 1_555
O8_3 C54_3 1_555 1_555
Cd6 O7_3 1_555 1_555
N13 Cd2 1_555 1_555
N14_3 Cd2 1_555 1_555
O11_3 Cd2 1_555 1_555
O12_3 Cd2 1_555 1_555
C53_3 C56_3 1_555 1_555
O8_3 Cd6 1_555 1_555
Cd1_3 O1_3 1_555 1_555
O1_3 C30_3 1_555 1_555
O2_3 C30_3 1_555 1_555
O9_2 C18_3 1_555 1_555
O10_2 C18_3 1_555 1_555
N2_3 C15_3 1_555 1_555
N3_3 Cd1_3 1_555 1_555
N4_3 C11_3 1_555 1_555
N13 C38_3 1_555 1_555
N6_3 C24_3 1_555 1_555
N7_3 C20_3 1_555 1_555
N8_3 C25_3 1_555 1_555
N9_3 C41_3 1_555 1_555
N10_3 Cd1_3 1_555 1_555
C8_3 H5_3 1_555 1_555
C9_3 N3_3 1_555 1_555
H6_3 C9_3 1_555 1_555
C10_3 C8_3 1_555 1_555
N11_3 C10_3 1_555 1_555
C11_3 C8_3 1_555 1_555
C12_3 N4_3 1_555 1_555
H7_3 C12_3 1_555 1_555
C13_3 N3_3 1_555 1_555
H8_3 C13_3 1_555 1_555
C14_3 C11_3 1_555 1_555
H9_3 C14_3 1_555 1_555
C15_3 C14_3 1_555 1_555
C16_3 C10_3 1_555 1_555
H10_3 C16_3 1_555 1_555
C18_3 C32_3 1_555 1_555
C19_3 H12_3 1_555 1_555
C20_3 C21_3 1_555 1_555
C21_3 H13_3 1_555 1_555
C22_3 N7_3 1_555 1_555
H14_3 C22_3 1_555 1_555
C23_3 C20_3 1_555 1_555
H15_3 C23_3 1_555 1_555
C24_3 C19_3 1_555 1_555
C25_3 C19_3 1_555 1_555
C28_3 H17_3 1_555 1_555
C29_3 C28_3 1_555 1_555
C30_3 C29_3 1_555 1_555
C31_3 C28_3 1_555 1_555
H18_3 C31_3 1_555 1_555
C32_3 C35_3 1_555 1_555
C33_3 C29_3 1_555 1_555
C34_3 C33_3 1_555 1_555
H19_3 C34_3 1_555 1_555
C35_3 C33_3 1_555 1_555
C36_3 C31_3 1_555 1_555
H20_3 C36_3 1_555 1_555
C37_3 C32_3 1_555 1_555
H21_3 C37_3 1_555 1_555
C38_3 H22_3 1_555 1_555
C39_3 N13 1_555 1_555
H23_3 C39_3 1_555 1_555
C41_3 N8_3 1_555 1_555
H25_3 C41_3 1_555 1_555
C43_3 N6_3 1_555 1_555
H27_3 C43_3 1_555 1_555
C44_3 H28_3 1_555 1_555
C45_3 C37_3 1_555 1_555
H29_3 C45_3 1_555 1_555
C46_3 C35_3 1_555 1_555
H30_3 C46_3 1_555 1_555
C47_3 N7_3 1_555 1_555
H31_3 C47_3 1_555 1_555
C48_3 N2_3 1_555 1_555
H32_3 C48_3 1_555 1_555
C50_3 N10_3 1_555 1_555
H34_3 C50_3 1_555 1_555
C51_3 N9_3 1_555 1_555
H35_3 C51_3 1_555 1_555
C52_3 N8_3 1_555 1_555
H36_3 C52_3 1_555 1_555
N15_2 C55_3 1_555 1_555
C55_3 N11_3 1_555 1_555
H37_3 C55_3 1_555 1_555
C57_3 N15_2 1_555 1_555
H39_3 C57_3 1_555 1_555
C58_3 N11_3 1_555 1_555
H40_3 C58_3 1_555 1_555
Cd5 N9_3 1_555 1_555
O9_3 Cd1_3 1_555 1_555
O10_3 Cd1_3 1_555 1_555
N15_3 Cd1_3 1_555 1_555
N4_3 C13_3 1_555 1_555
N6_3 C39_3 1_555 1_555
N10_3 C22_3 1_555 1_555
C9_3 C12_3 1_555 1_555
C15_3 C16_3 1_555 1_555
C21_3 C25_3 1_555 1_555
C23_3 C24_3 1_555 1_555
C34_3 C36_3 1_555 1_555
C38_3 C43_3 1_555 1_555
C44_3 C45_3 1_555 1_555
C44_3 C46_3 1_555 1_555
C47_3 C50_3 1_555 1_555
C51_3 C52_3 1_555 1_555
C57_3 C58_3 1_555 1_555
N10_4 Cd3 1_555 1_555
C50_4 N10_4 1_555 1_555
H34_4 C50_4 1_555 1_555
N10_4 C22_4 1_555 1_555
Cd2_2 O5_4 1_555 1_555
O1_4 C30_4 1_555 1_555
O2_4 C30_4 1_555 1_555
O9_3 C18_4 1_555 1_555
O10_3 C18_4 1_555 1_555
O5_4 C2_4 1_555 1_555
O6_4 Cd2_2 1_555 1_555
N1_4 Cd2_2 1_555 1_555
N2_4 C15_4 1_555 1_555
N4_4 C11_4 1_555 1_555
C1_4 C3_4 1_555 1_555
C2_4 O6_4 1_555 1_555
C3_4 C2_4 1_555 1_555
C8_4 H5_4 1_555 1_555
C9_4 N3_4 1_555 1_555
H6_4 C9_4 1_555 1_555
C10_4 C8_4 1_555 1_555
N11_4 C10_4 1_555 1_555
C11_4 C8_4 1_555 1_555
C12_4 N4_4 1_555 1_555
H7_4 C12_4 1_555 1_555
C13_4 N3_4 1_555 1_555
H8_4 C13_4 1_555 1_555
C14_4 C11_4 1_555 1_555
H9_4 C14_4 1_555 1_555
C15_4 C14_4 1_555 1_555
C16_4 C10_4 1_555 1_555
H10_4 C16_4 1_555 1_555
C17_4 N1_4 1_555 1_555
H11_4 C17_4 1_555 1_555
C18_4 C32_4 1_555 1_555
C26_4 C1_4 1_555 1_555
C27_4 C26_4 1_555 1_555
H16_4 C27_4 1_555 1_555
C28_4 H17_4 1_555 1_555
C29_4 C28_4 1_555 1_555
C30_4 C29_4 1_555 1_555
C31_4 C28_4 1_555 1_555
H18_4 C31_4 1_555 1_555
C32_4 C35_4 1_555 1_555
C33_4 C29_4 1_555 1_555
C34_4 C33_4 1_555 1_555
H19_4 C34_4 1_555 1_555
C35_4 C33_4 1_555 1_555
C36_4 C31_4 1_555 1_555
H20_4 C36_4 1_555 1_555
C40_4 C27_4 1_555 1_555
H24_4 C40_4 1_555 1_555
C42_4 C40_4 1_555 1_555
H26_4 C42_4 1_555 1_555
C48_4 N2_4 1_555 1_555
H32_4 C48_4 1_555 1_555
C49_4 N1_4 1_555 1_555
H33_4 C49_4 1_555 1_555
N15_3 C55_4 1_555 1_555
C53_4 C26_4 1_555 1_555
C54_4 C53_4 1_555 1_555
C55_4 N11_4 1_555 1_555
H37_4 C55_4 1_555 1_555
C56_4 C42_4 1_555 1_555
H38_4 C56_4 1_555 1_555
C57_4 N15_3 1_555 1_555
H39_4 C57_4 1_555 1_555
C58_4 N11_4 1_555 1_555
H40_4 C58_4 1_555 1_555
O7_4 C54_4 1_555 1_555
O8_4 C54_4 1_555 1_555
Cd6_2 O7_4 1_555 1_555
N13_2 Cd2_2 1_555 1_555
N14_4 Cd2_2 1_555 1_555
O11_4 Cd2_2 1_555 1_555
O12_4 Cd2_2 1_555 1_555
N2_4 C17_4 1_555 1_555
N4_4 C13_4 1_555 1_555
C9_4 C12_4 1_555 1_555
C15_4 C16_4 1_555 1_555
C34_4 C36_4 1_555 1_555
C48_4 C49_4 1_555 1_555
C53_4 C56_4 1_555 1_555
C57_4 C58_4 1_555 1_555
O8_4 Cd6_2 1_555 1_555
N7_4 C20_4 1_555 1_555
N8_4 C25_4 1_555 1_555
N9_4 C41_4 1_555 1_555
C19_4 H12_4 1_555 1_555
C20_4 C21_4 1_555 1_555
C21_4 H13_4 1_555 1_555
C25_4 C19_4 1_555 1_555
C41_4 N8_4 1_555 1_555
H25_4 C41_4 1_555 1_555
C47_4 N7_4 1_555 1_555
H31_4 C47_4 1_555 1_555
C51_4 N9_4 1_555 1_555
H35_4 C51_4 1_555 1_555
C52_4 N8_4 1_555 1_555
H36_4 C52_4 1_555 1_555
Cd5_2 N9_4 1_555 1_555
C21_4 C25_4 1_555 1_555
C51_4 C52_4 1_555 1_555
N13_2 C38_4 1_555 1_555
N6_4 C24_4 1_555 1_555
H15_4 C23_4 1_555 1_555
H21_4 C37_4 1_555 1_555
C38_4 H22_4 1_555 1_555
C39_4 N13_2 1_555 1_555
H23_4 C39_4 1_555 1_555
C43_4 N6_4 1_555 1_555
H27_4 C43_4 1_555 1_555
C44_4 H28_4 1_555 1_555
C45_4 C37_4 1_555 1_555
H29_4 C45_4 1_555 1_555
N6_4 C39_4 1_555 1_555
C23_4 C24_4 1_555 1_555
C38_4 C43_4 1_555 1_555
C44_4 C45_4 1_555 1_555
C44_4 C46_4 1_555 1_555
Cd1_4 O1_5 1_555 1_555
O1_5 C30_5 1_555 1_555
O2_5 C30_5 1_555 1_555
O3_2 C18_5 1_555 1_555
O4_2 C18_5 1_555 1_555
N2_5 C15_5 1_555 1_555
N3_5 Cd1_4 1_555 1_555
N4_5 C11_5 1_555 1_555
N5_3 C38_5 1_555 1_555
N6_5 C24_5 1_555 1_555
N7_5 C20_5 1_555 1_555
N8_5 C25_5 1_555 1_555
N14_4 C41_5 1_555 1_555
N10_5 Cd1_4 1_555 1_555
C8_5 H5_5 1_555 1_555
C9_5 N3_5 1_555 1_555
H6_5 C9_5 1_555 1_555
C10_5 C8_5 1_555 1_555
N11_5 C10_5 1_555 1_555
C11_5 C8_5 1_555 1_555
C12_5 N4_5 1_555 1_555
H7_5 C12_5 1_555 1_555
C13_5 N3_5 1_555 1_555
H8_5 C13_5 1_555 1_555
C14_5 C11_5 1_555 1_555
H9_5 C14_5 1_555 1_555
C15_5 C14_5 1_555 1_555
C16_5 C10_5 1_555 1_555
H10_5 C16_5 1_555 1_555
C18_5 C32_5 1_555 1_555
C19_5 H12_5 1_555 1_555
C20_5 C21_5 1_555 1_555
C21_5 H13_5 1_555 1_555
C22_5 N7_5 1_555 1_555
H14_5 C22_5 1_555 1_555
C23_5 C20_5 1_555 1_555
H15_5 C23_5 1_555 1_555
C24_5 C19_5 1_555 1_555
C25_5 C19_5 1_555 1_555
C28_5 H17_5 1_555 1_555
C29_5 C28_5 1_555 1_555
C30_5 C29_5 1_555 1_555
C31_5 C28_5 1_555 1_555
H18_5 C31_5 1_555 1_555
C32_5 C35_5 1_555 1_555
C33_5 C29_5 1_555 1_555
C34_5 C33_5 1_555 1_555
H19_5 C34_5 1_555 1_555
C35_5 C33_5 1_555 1_555
C36_5 C31_5 1_555 1_555
H20_5 C36_5 1_555 1_555
C37_5 C32_5 1_555 1_555
H21_5 C37_5 1_555 1_555
C38_5 H22_5 1_555 1_555
C39_5 N5_3 1_555 1_555
H23_5 C39_5 1_555 1_555
C41_5 N8_5 1_555 1_555
H25_5 C41_5 1_555 1_555
C43_5 N6_5 1_555 1_555
H27_5 C43_5 1_555 1_555
C44_5 H28_5 1_555 1_555
C45_5 C37_5 1_555 1_555
H29_5 C45_5 1_555 1_555
C46_5 C35_5 1_555 1_555
H30_5 C46_5 1_555 1_555
C47_5 N7_5 1_555 1_555
H31_5 C47_5 1_555 1_555
C48_5 N2_5 1_555 1_555
H32_5 C48_5 1_555 1_555
C50_5 N10_5 1_555 1_555
H34_5 C50_5 1_555 1_555
C51_5 N14_4 1_555 1_555
H35_5 C51_5 1_555 1_555
C52_5 N8_5 1_555 1_555
H36_5 C52_5 1_555 1_555
N12_2 C55_5 1_555 1_555
C55_5 N11_5 1_555 1_555
H37_5 C55_5 1_555 1_555
C57_5 N12_2 1_555 1_555
H39_5 C57_5 1_555 1_555
C58_5 N11_5 1_555 1_555
H40_5 C58_5 1_555 1_555
Cd3_2 O3_2 1_555 1_555
Cd6_2 N5_3 1_555 1_555
O9_4 Cd1_4 1_555 1_555
O10_4 Cd1_4 1_555 1_555
N15_4 Cd1_4 1_555 1_555
O4_2 Cd3_2 1_555 1_555
N4_5 C13_5 1_555 1_555
N6_5 C39_5 1_555 1_555
N10_5 C22_5 1_555 1_555
C9_5 C12_5 1_555 1_555
C15_5 C16_5 1_555 1_555
C21_5 C25_5 1_555 1_555
C23_5 C24_5 1_555 1_555
C34_5 C36_5 1_555 1_555
C38_5 C43_5 1_555 1_555
C44_5 C45_5 1_555 1_555
C44_5 C46_5 1_555 1_555
C47_5 C50_5 1_555 1_555
C51_5 C52_5 1_555 1_555
N12_2 Cd3_2 1_555 1_555
C57_5 C58_5 1_555 1_555
Cd6_2 O5_5 1_555 1_555
O5_5 C2_5 1_555 1_555
O6_5 Cd6_2 1_555 1_555
N1_5 Cd6_2 1_555 1_555
C1_5 C3_5 1_555 1_555
C2_5 O6_5 1_555 1_555
C3_5 C2_5 1_555 1_555
C17_5 N1_5 1_555 1_555
H11_5 C17_5 1_555 1_555
C26_5 C1_5 1_555 1_555
C27_5 C26_5 1_555 1_555
H16_5 C27_5 1_555 1_555
C40_5 C27_5 1_555 1_555
H24_5 C40_5 1_555 1_555
C42_5 C40_5 1_555 1_555
H26_5 C42_5 1_555 1_555
C49_5 N1_5 1_555 1_555
H33_5 C49_5 1_555 1_555
C53_5 C26_5 1_555 1_555
C54_5 C53_5 1_555 1_555
C56_5 C42_5 1_555 1_555
H38_5 C56_5 1_555 1_555
O11_2 C54_5 1_555 1_555
O12_2 C54_5 1_555 1_555
C53_5 C56_5 1_555 1_555
N7_6 C20_6 1_555 1_555
N8_6 C25_6 1_555 1_555
N14 C41_6 1_555 1_555
C19_6 H12_6 1_555 1_555
C20_6 C21_6 1_555 1_555
C21_6 H13_6 1_555 1_555
C25_6 C19_6 1_555 1_555
C41_6 N8_6 1_555 1_555
H25_6 C41_6 1_555 1_555
C47_6 N7_6 1_555 1_555
H31_6 C47_6 1_555 1_555
C51_6 N14 1_555 1_555
H35_6 C51_6 1_555 1_555
C52_6 N8_6 1_555 1_555
H36_6 C52_6 1_555 1_555
C21_6 C25_6 1_555 1_555
C51_6 C52_6 1_555 1_555
N5_4 C38_6 1_555 1_555
N6_6 C24_6 1_555 1_555
H15_6 C23_6 1_555 1_555
H21_6 C37_6 1_555 1_555
C38_6 H22_6 1_555 1_555
C39_6 N5_4 1_555 1_555
H23_6 C39_6 1_555 1_555
C43_6 N6_6 1_555 1_555
H27_6 C43_6 1_555 1_555
C44_6 H28_6 1_555 1_555
C45_6 C37_6 1_555 1_555
H29_6 C45_6 1_555 1_555
Cd5 N5_4 1_555 1_555
N6_6 C39_6 1_555 1_555
C23_6 C24_6 1_555 1_555
C38_6 C43_6 1_555 1_555
C44_6 C45_6 1_555 1_555
C44_6 C46_6 1_555 1_555
N10_6 Cd1_5 1_555 1_555
C50_6 N10_6 1_555 1_555
H34_6 C50_6 1_555 1_555
O9_5 Cd1_5 1_555 1_555
O10_5 Cd1_5 1_555 1_555
N15_5 Cd1_5 1_555 1_555
N10_6 C22_6 1_555 1_555
Cd5 O5_6 1_555 1_555
O1_6 C30_6 1_555 1_555
O2_6 C30_6 1_555 1_555
O9_4 C18_6 1_555 1_555
O10_4 C18_6 1_555 1_555
O5_6 C2_6 1_555 1_555
O6_6 Cd5 1_555 1_555
N1_6 Cd5 1_555 1_555
N2_6 C15_6 1_555 1_555
N4_6 C11_6 1_555 1_555
C1_6 C3_6 1_555 1_555
C2_6 O6_6 1_555 1_555
C3_6 C2_6 1_555 1_555
C8_6 H5_6 1_555 1_555
C9_6 N3_6 1_555 1_555
H6_6 C9_6 1_555 1_555
C10_6 C8_6 1_555 1_555
N11_6 C10_6 1_555 1_555
C11_6 C8_6 1_555 1_555
C12_6 N4_6 1_555 1_555
H7_6 C12_6 1_555 1_555
C13_6 N3_6 1_555 1_555
H8_6 C13_6 1_555 1_555
C14_6 C11_6 1_555 1_555
H9_6 C14_6 1_555 1_555
C15_6 C14_6 1_555 1_555
C16_6 C10_6 1_555 1_555
H10_6 C16_6 1_555 1_555
C17_6 N1_6 1_555 1_555
H11_6 C17_6 1_555 1_555
C18_6 C32_6 1_555 1_555
C26_6 C1_6 1_555 1_555
C27_6 C26_6 1_555 1_555
H16_6 C27_6 1_555 1_555
C28_6 H17_6 1_555 1_555
C29_6 C28_6 1_555 1_555
C30_6 C29_6 1_555 1_555
C31_6 C28_6 1_555 1_555
H18_6 C31_6 1_555 1_555
C32_6 C35_6 1_555 1_555
C33_6 C29_6 1_555 1_555
C34_6 C33_6 1_555 1_555
H19_6 C34_6 1_555 1_555
C35_6 C33_6 1_555 1_555
C36_6 C31_6 1_555 1_555
H20_6 C36_6 1_555 1_555
C40_6 C27_6 1_555 1_555
H24_6 C40_6 1_555 1_555
C42_6 C40_6 1_555 1_555
H26_6 C42_6 1_555 1_555
C48_6 N2_6 1_555 1_555
H32_6 C48_6 1_555 1_555
C49_6 N1_6 1_555 1_555
H33_6 C49_6 1_555 1_555
N15_4 C55_6 1_555 1_555
C53_6 C26_6 1_555 1_555
C54_6 C53_6 1_555 1_555
C55_6 N11_6 1_555 1_555
H37_6 C55_6 1_555 1_555
C56_6 C42_6 1_555 1_555
H38_6 C56_6 1_555 1_555
C57_6 N15_4 1_555 1_555
H39_6 C57_6 1_555 1_555
C58_6 N11_6 1_555 1_555
H40_6 C58_6 1_555 1_555
O11_3 C54_6 1_555 1_555
O12_3 C54_6 1_555 1_555
N2_6 C17_6 1_555 1_555
N4_6 C13_6 1_555 1_555
C9_6 C12_6 1_555 1_555
C15_6 C16_6 1_555 1_555
C34_6 C36_6 1_555 1_555
C48_6 C49_6 1_555 1_555
C53_6 C56_6 1_555 1_555
C57_6 C58_6 1_555 1_555
Cd1_6 O1_7 1_555 1_555
Cd5_2 O5_7 1_555 1_555
O1_7 C30_7 1_555 1_555
O2_7 C30_7 1_555 1_555
O9_5 C18_7 1_555 1_555
O10_5 C18_7 1_555 1_555
O5_7 C2_7 1_555 1_555
O6_7 Cd5_2 1_555 1_555
N1_7 Cd5_2 1_555 1_555
N2_7 C15_7 1_555 1_555
N3_7 Cd1_6 1_555 1_555
N4_7 C11_7 1_555 1_555
N10_7 Cd1_6 1_555 1_555
C2_7 O6_7 1_555 1_555
C3_7 C2_7 1_555 1_555
C8_7 H5_7 1_555 1_555
C9_7 N3_7 1_555 1_555
H6_7 C9_7 1_555 1_555
C10_7 C8_7 1_555 1_555
N11_7 C10_7 1_555 1_555
C11_7 C8_7 1_555 1_555
C12_7 N4_7 1_555 1_555
H7_7 C12_7 1_555 1_555
C13_7 N3_7 1_555 1_555
H8_7 C13_7 1_555 1_555
C14_7 C11_7 1_555 1_555
H9_7 C14_7 1_555 1_555
C15_7 C14_7 1_555 1_555
C16_7 C10_7 1_555 1_555
H10_7 C16_7 1_555 1_555
C17_7 N1_7 1_555 1_555
H11_7 C17_7 1_555 1_555
C18_7 C32_7 1_555 1_555
H14_7 C22_7 1_555 1_555
C27_7 C26_7 1_555 1_555
H16_7 C27_7 1_555 1_555
C28_7 H17_7 1_555 1_555
C29_7 C28_7 1_555 1_555
C30_7 C29_7 1_555 1_555
C31_7 C28_7 1_555 1_555
H18_7 C31_7 1_555 1_555
C32_7 C35_7 1_555 1_555
C33_7 C29_7 1_555 1_555
C34_7 C33_7 1_555 1_555
H19_7 C34_7 1_555 1_555
C35_7 C33_7 1_555 1_555
C36_7 C31_7 1_555 1_555
H20_7 C36_7 1_555 1_555
C40_7 C27_7 1_555 1_555
H24_7 C40_7 1_555 1_555
C42_7 C40_7 1_555 1_555
H26_7 C42_7 1_555 1_555
C48_7 N2_7 1_555 1_555
H32_7 C48_7 1_555 1_555
C49_7 N1_7 1_555 1_555
H33_7 C49_7 1_555 1_555
C50_7 N10_7 1_555 1_555
H34_7 C50_7 1_555 1_555
N15_5 C55_7 1_555 1_555
C55_7 N11_7 1_555 1_555
H37_7 C55_7 1_555 1_555
C57_7 N15_5 1_555 1_555
C58_7 N11_7 1_555 1_555
H40_7 C58_7 1_555 1_555
O9_6 Cd1_6 1_555 1_555
O10_6 Cd1_6 1_555 1_555
N13_3 Cd5_2 1_555 1_555
N15_6 Cd1_6 1_555 1_555
N2_7 C17_7 1_555 1_555
N4_7 C13_7 1_555 1_555
N10_7 C22_7 1_555 1_555
C9_7 C12_7 1_555 1_555
C15_7 C16_7 1_555 1_555
C34_7 C36_7 1_555 1_555
C48_7 C49_7 1_555 1_555
C57_7 C58_7 1_555 1_555
C4_3 C1_7 1_555 1_555
H1_3 C4_3 1_555 1_555
C6_3 C5_3 1_555 1_555
H3_3 C6_3 1_555 1_555
C7_3 C4_3 1_555 1_555
H4_3 C7_3 1_555 1_555
C54_7 C53_7 1_555 1_555
H38_7 C56_7 1_555 1_555
O11_4 C54_7 1_555 1_555
O12_4 C54_7 1_555 1_555
C6_3 C7_3 1_555 1_555
C53_7 C56_7 1_555 1_555
N13_3 C38_7 1_555 1_555
N6_7 C24_7 1_555 1_555
N7_7 C20_7 1_555 1_555
N8_7 C25_7 1_555 1_555
N14_2 C41_7 1_555 1_555
C19_7 H12_7 1_555 1_555
C20_7 C21_7 1_555 1_555
C21_7 H13_7 1_555 1_555
C23_7 C20_7 1_555 1_555
H15_7 C23_7 1_555 1_555
C24_7 C19_7 1_555 1_555
C25_7 C19_7 1_555 1_555
H21_7 C37_7 1_555 1_555
C38_7 H22_7 1_555 1_555
C39_7 N13_3 1_555 1_555
H23_7 C39_7 1_555 1_555
C41_7 N8_7 1_555 1_555
H25_7 C41_7 1_555 1_555
C43_7 N6_7 1_555 1_555
H27_7 C43_7 1_555 1_555
C44_7 H28_7 1_555 1_555
C45_7 C37_7 1_555 1_555
H29_7 C45_7 1_555 1_555
C47_7 N7_7 1_555 1_555
H31_7 C47_7 1_555 1_555
C51_7 N14_2 1_555 1_555
H35_7 C51_7 1_555 1_555
C52_7 N8_7 1_555 1_555
H36_7 C52_7 1_555 1_555
N6_7 C39_7 1_555 1_555
C21_7 C25_7 1_555 1_555
C23_7 C24_7 1_555 1_555
C38_7 C43_7 1_555 1_555
C44_7 C45_7 1_555 1_555
C44_7 C46_7 1_555 1_555
C51_7 C52_7 1_555 1_555
Cd6 O5_8 1_555 1_555
O5_8 C2_8 1_555 1_555
O6_8 Cd6 1_555 1_555
N1_8 Cd6 1_555 1_555
C1_8 C3_8 1_555 1_555
C2_8 O6_8 1_555 1_555
C3_8 C2_8 1_555 1_555
C4_4 C1_8 1_555 1_555
H1_4 C4_4 1_555 1_555
C5_4 C3_8 1_555 1_555
H2_4 C5_4 1_555 1_555
C6_4 C5_4 1_555 1_555
H3_4 C6_4 1_555 1_555
C7_4 C4_4 1_555 1_555
H4_4 C7_4 1_555 1_555
C17_8 N1_8 1_555 1_555
H11_8 C17_8 1_555 1_555
C26_8 C1_8 1_555 1_555
C27_8 C26_8 1_555 1_555
H16_8 C27_8 1_555 1_555
C40_8 C27_8 1_555 1_555
H24_8 C40_8 1_555 1_555
C42_8 C40_8 1_555 1_555
H26_8 C42_8 1_555 1_555
C49_8 N1_8 1_555 1_555
H33_8 C49_8 1_555 1_555
C53_8 C26_8 1_555 1_555
C54_8 C53_8 1_555 1_555
C56_8 C42_8 1_555 1_555
H38_8 C56_8 1_555 1_555
O11 C54_8 1_555 1_555
O12 C54_8 1_555 1_555
N13_4 Cd6 1_555 1_555
C6_4 C7_4 1_555 1_555
C53_8 C56_8 1_555 1_555
Cd3_2 O1_8 1_555 1_555
O1_8 C30_8 1_555 1_555
O2_8 C30_8 1_555 1_555
O9_6 C18_8 1_555 1_555
O10_6 C18_8 1_555 1_555
N2_8 C15_8 1_555 1_555
N3_8 Cd3_2 1_555 1_555
N4_8 C11_8 1_555 1_555
N13_4 C38_8 1_555 1_555
N6_8 C24_8 1_555 1_555
N7_8 C20_8 1_555 1_555
N8_8 C25_8 1_555 1_555
N14_3 C41_8 1_555 1_555
N10_8 Cd3_2 1_555 1_555
C8_8 H5_8 1_555 1_555
C9_8 N3_8 1_555 1_555
H6_8 C9_8 1_555 1_555
C10_8 C8_8 1_555 1_555
N11_8 C10_8 1_555 1_555
C11_8 C8_8 1_555 1_555
C12_8 N4_8 1_555 1_555
H7_8 C12_8 1_555 1_555
C13_8 N3_8 1_555 1_555
H8_8 C13_8 1_555 1_555
C14_8 C11_8 1_555 1_555
H9_8 C14_8 1_555 1_555
C15_8 C14_8 1_555 1_555
C16_8 C10_8 1_555 1_555
H10_8 C16_8 1_555 1_555
C18_8 C32_8 1_555 1_555
C19_8 H12_8 1_555 1_555
C20_8 C21_8 1_555 1_555
C21_8 H13_8 1_555 1_555
C22_8 N7_8 1_555 1_555
H14_8 C22_8 1_555 1_555
C23_8 C20_8 1_555 1_555
H15_8 C23_8 1_555 1_555
C24_8 C19_8 1_555 1_555
C25_8 C19_8 1_555 1_555
C28_8 H17_8 1_555 1_555
C29_8 C28_8 1_555 1_555
C30_8 C29_8 1_555 1_555
C31_8 C28_8 1_555 1_555
H18_8 C31_8 1_555 1_555
C32_8 C35_8 1_555 1_555
C33_8 C29_8 1_555 1_555
C34_8 C33_8 1_555 1_555
H19_8 C34_8 1_555 1_555
C35_8 C33_8 1_555 1_555
C36_8 C31_8 1_555 1_555
H20_8 C36_8 1_555 1_555
C37_8 C32_8 1_555 1_555
H21_8 C37_8 1_555 1_555
C38_8 H22_8 1_555 1_555
C39_8 N13_4 1_555 1_555
H23_8 C39_8 1_555 1_555
C41_8 N8_8 1_555 1_555
H25_8 C41_8 1_555 1_555
C43_8 N6_8 1_555 1_555
H27_8 C43_8 1_555 1_555
C44_8 H28_8 1_555 1_555
C45_8 C37_8 1_555 1_555
H29_8 C45_8 1_555 1_555
C46_8 C35_8 1_555 1_555
H30_8 C46_8 1_555 1_555
C47_8 N7_8 1_555 1_555
H31_8 C47_8 1_555 1_555
C48_8 N2_8 1_555 1_555
H32_8 C48_8 1_555 1_555
C50_8 N10_8 1_555 1_555
H34_8 C50_8 1_555 1_555
C51_8 N14_3 1_555 1_555
H35_8 C51_8 1_555 1_555
C52_8 N8_8 1_555 1_555
H36_8 C52_8 1_555 1_555
N15_6 C55_8 1_555 1_555
C55_8 N11_8 1_555 1_555
H37_8 C55_8 1_555 1_555
C57_8 N15_6 1_555 1_555
H39_8 C57_8 1_555 1_555
C58_8 N11_8 1_555 1_555
H40_8 C58_8 1_555 1_555
N4_8 C13_8 1_555 1_555
N6_8 C39_8 1_555 1_555
N10_8 C22_8 1_555 1_555
C9_8 C12_8 1_555 1_555
C15_8 C16_8 1_555 1_555
C21_8 C25_8 1_555 1_555
C23_8 C24_8 1_555 1_555
C34_8 C36_8 1_555 1_555
C38_8 C43_8 1_555 1_555
C44_8 C45_8 1_555 1_555
C44_8 C46_8 1_555 1_555
C47_8 C50_8 1_555 1_555
C51_8 C52_8 1_555 1_555
C57_8 C58_8 1_555 1_555
H1_5 C4_5 1_555 1_555
H2_5 C5_5 1_555 1_555
C6_5 C5_5 1_555 1_555
H3_5 C6_5 1_555 1_555
C7_5 C4_5 1_555 1_555
H4_5 C7_5 1_555 1_555
C6_5 C7_5 1_555 1_555
H1_6 C4_6 1_555 1_555
H2_6 C5_6 1_555 1_555
C6_6 C5_6 1_555 1_555
H3_6 C6_6 1_555 1_555
C7_6 C4_6 1_555 1_555
H4_6 C7_6 1_555 1_555
C6_6 C7_6 1_555 1_555
H1_7 C4_7 1_555 1_555
H2_7 C5_7 1_555 1_555
C6_7 C5_7 1_555 1_555
H3_7 C6_7 1_555 1_555
C7_7 C4_7 1_555 1_555
H4_7 C7_7 1_555 1_555
C6_7 C7_7 1_555 1_555
H1_8 C4_8 1_555 1_555
H2_8 C5_8 1_555 1_555
C6_8 C5_8 1_555 1_555
H3_8 C6_8 1_555 1_555
C7_8 C4_8 1_555 1_555
H4_8 C7_8 1_555 1_555
C6_8 C7_8 1_555 1_555

#END
