
###############################################################################
#
# This file contains modified crystal structure data generated from the
# MOF subset of the Cambridge Structural Database (CSD) v543 
# hosted by the Cambridge Crystallographic Data Centre (CCDC).
#
# This work is licensed under the Creative Commons
# Attribution-NonCommercial-ShareAlike 4.0 International License.
# To view a copy of this license, visit
# http://creativecommons.org/licenses/by-nc-sa/4.0/
# or send a letter to
# Creative Commons, PO Box 1866, Mountain View, CA 94042, USA.
#
# CIF created using the CSD Python API on 29 September 2022
# The structure has been converted into the P1 space group
# The structure has a 3D framework
# The original CSD entry ASUBIB is in the triclinic crystal system
# The framework has been calculated to contain at least 10.0% void space
# The void calculation uses a probe of radius 1.32A, grid spacing 0.4
#
###############################################################################

data_ASUBIB
_chemical_formula_moiety         '(C56 H48 Eu4 N8 O28)n'
_symmetry_cell_setting           triclinic
_symmetry_space_group_name_H-M   'P 1'
_symmetry_Int_Tables_number      1
_space_group_name_Hall           'P 1'
loop_
_symmetry_equiv_pos_site_id
_symmetry_equiv_pos_as_xyz
1 x,y,z
_cell_length_a                   10.944(2)
_cell_length_b                   11.129(2)
_cell_length_c                   15.998(3)
_cell_angle_alpha                75.57(3)
_cell_angle_beta                 82.96(3)
_cell_angle_gamma                75.56(3)
_cell_volume                     1823.61
loop_
_atom_site_label
_atom_site_type_symbol
_atom_site_fract_x
_atom_site_fract_y
_atom_site_fract_z
_atom_site_U_iso_or_equiv
_atom_site_thermal_displace_type
C1 C 0.0935(10) 0.0746(10) 0.0652(7) 0.0115 Uani
O6 O 0.5714(7) 0.0200(8) 0.1037(5) 0.0196 Uani
C2 C 0.5144(11) 0.0233(11) 0.1748(8) 0.0171 Uani
C3 C 0.3740(10) 0.0625(11) 0.1831(7) 0.0149 Uani
C4 C 0.3026(11) 0.0598(11) 0.1192(7) 0.0143 Uani
H1 H 0.3408 0.0426 0.0670 0.0170 Uiso
Eu1 Eu 0.41255(5) 0.16000(5) 0.62672(3) 0.0098 Uani
O9 O 0.0683(7) 0.0952(8) 0.7493(5) 0.0175 Uani
O10 O 0.3617(7) 0.1944(7) 0.4756(4) 0.0136 Uani
H4 H 0.3751 0.1229 0.4619 0.0210 Uiso
H5 H 0.2844 0.2321 0.4702 0.0210 Uiso
O11 O 0.4171(8) 0.3751(8) 0.5546(5) 0.0204 Uani
H6 H 0.4402 0.3785 0.5015 0.0300 Uiso
H7 H 0.3436 0.4225 0.5589 0.0300 Uiso
N1 N 0.0198(9) 0.1544(10) 0.3698(6) 0.0176 Uani
N2 N 0.1364(8) 0.1390(10) 0.3558(6) 0.0188 Uani
C14 C 0.0103(10) 0.1553(11) 0.6038(7) 0.0137 Uani
O16 O 0.2034(7) 0.1661(9) 0.6468(5) 0.0195 Uani
C15 C 0.1828(10) 0.1219(12) 0.2713(7) 0.0183 Uani
C16 C 0.1135(11) 0.1107(12) 0.2084(7) 0.0166 Uani
H11 H 0.0262 0.1222 0.2176 0.0200 Uiso
C17 C 0.0596(10) 0.1580(11) 0.5211(7) 0.0150 Uani
H12 H 0.1445 0.1583 0.5064 0.0180 Uiso
C18 C 0.1002(10) 0.1389(11) 0.6727(7) 0.0149 Uani
C22 C 0.1704(10) 0.0836(11) 0.1344(7) 0.0159 Uani
C23 C 0.3145(10) 0.0960(11) 0.2599(7) 0.0172 Uani
H15 H 0.3625 0.1007 0.3026 0.0200 Uiso
O33 O 0.3596(7) 0.2866(8) 0.7270(5) 0.0163 Uani
O36 O 0.4261(7) 0.0040(7) 0.7565(5) 0.0142 Uani
O39 O 0.1475(7) 0.0697(7) 0.9923(5) 0.0124 Uani
O41 O 0.2264(7) 0.2020(7) 0.8262(5) 0.0138 Uani
O45 O 0.6108(7) 0.1174(8) 0.5418(5) 0.0187 Uani
O47 O 0.6202(7) 0.1832(8) 0.6582(5) 0.0163 Uani
Eu18 Eu 0.79232(4) 0.00519(5) 0.13357(3) 0.0088 Uani
O2 O 0.5739(7) 0.9960(7) 0.2435(5) 0.0142 Uani
C5 C 0.2772(10) 0.2909(11) 0.7874(7) 0.0124 Uani
C6 C 0.2351(11) 0.4141(12) 0.8165(7) 0.0176 Uani
C7 C 0.2777(10) 0.5219(11) 0.7724(7) 0.0173 Uani
H2 H 0.3327 0.5184 0.7234 0.0210 Uiso
Eu2 Eu 0.20768(4) 0.99481(5) 0.86643(3) 0.0088 Uani
O12 O 0.2448(8) 0.8472(8) 0.7843(5) 0.0200 Uani
O13 O 0.4200(7) 0.9558(8) 0.5984(5) 0.0179 Uani
H8 H 0.4338 0.8985 0.6447 0.0270 Uiso
H9 H 0.3498 0.9569 0.5803 0.0270 Uiso
O14 O 0.3579(9) 0.7460(8) 0.6899(6) 0.0266 Uani
C11 C 0.2853(11) 0.7476(11) 0.7553(7) 0.0136 Uani
O15 O 0.2791(8) 0.8048(8) 0.9722(5) 0.0251 Uani
C12 C 0.1563(12) 0.6378(12) 0.8734(7) 0.0207 Uani
H10 H 0.1302 0.7123 0.8936 0.0250 Uiso
C13 C 0.2404(10) 0.6320(11) 0.7998(7) 0.0164 Uani
N3 N 0.0268(12) 0.5454(11) 0.9855(8) 0.0326 Uani
C20 C 0.1537(11) 0.4168(11) 0.8879(7) 0.0179 Uani
H14 H 0.1259 0.3444 0.9177 0.0220 Uiso
C24 C 0.1135(12) 0.5293(12) 0.9151(8) 0.0248 Uani
O38 O 0.0205(7) 0.9263(7) 0.9155(4) 0.0101 Uani
O44 O 0.4286(7) 0.9800(8) 0.8963(5) 0.0196 Uani
Eu10 Eu 0.58745(5) 0.84000(5) 0.37328(3) 0.0098 Uani
O25 O 0.3892(7) 0.8826(8) 0.4582(5) 0.0187 Uani
O26 O 0.3798(7) 0.8168(8) 0.3418(5) 0.0163 Uani
C41 C 0.3293(10) 0.8429(11) 0.4104(7) 0.0157 Uani
C42 C 0.1959(10) 0.8371(11) 0.4363(7) 0.0144 Uani
C43 C 0.1493(11) 0.8361(11) 0.5202(7) 0.0159 Uani
H29 H 0.2029 0.8331 0.5619 0.0190 Uiso
C49 C 0.1175(11) 0.8406(11) 0.3752(7) 0.0172 Uani
H38 H 0.1501 0.8403 0.3187 0.0200 Uiso
C50 C 0.0224(10) 0.8397(11) 0.5424(7) 0.0136 Uani
O3 O 0.9795(7) 0.0737(7) 0.0845(4) 0.0101 Uani
C8 C 0.6707(10) 0.1571(11) 0.5896(7) 0.0157 Uani
C9 C 0.8041(10) 0.1629(11) 0.5637(7) 0.0144 Uani
C10 C 0.8507(11) 0.1639(11) 0.4798(7) 0.0159 Uani
H3 H 0.7971 0.1669 0.4381 0.0190 Uiso
C19 C 0.8825(11) 0.1594(11) 0.6248(7) 0.0172 Uani
H13 H 0.8499 0.1597 0.6813 0.0200 Uiso
C21 C 0.9776(10) 0.1603(11) 0.4576(7) 0.0136 Uani
O17 O 0.6404(7) 0.7134(8) 0.2730(5) 0.0163 Uani
O18 O 0.7736(7) 0.7980(7) 0.1738(5) 0.0138 Uani
C29 C 0.7228(10) 0.7091(11) 0.2126(7) 0.0124 Uani
C30 C 0.7649(11) 0.5859(12) 0.1835(7) 0.0176 Uani
C31 C 0.7223(10) 0.4781(11) 0.2276(7) 0.0173 Uani
H25 H 0.6673 0.4816 0.2766 0.0210 Uiso
O19 O 0.7552(8) 0.1528(8) 0.2157(5) 0.0200 Uani
O20 O 0.6421(9) 0.2540(8) 0.3101(6) 0.0266 Uani
C32 C 0.7147(11) 0.2524(11) 0.2447(7) 0.0136 Uani
C33 C 0.8437(12) 0.3622(12) 0.1266(7) 0.0207 Uani
H26 H 0.8698 0.2877 0.1064 0.0250 Uiso
C34 C 0.7596(10) 0.3680(11) 0.2002(7) 0.0164 Uani
N5 N 0.9732(12) 0.4546(11) 0.0145(8) 0.0326 Uani
C35 C 0.8463(11) 0.5832(11) 0.1121(7) 0.0179 Uani
H27 H 0.8741 0.6556 0.0823 0.0220 Uiso
C36 C 0.8865(12) 0.4707(12) 0.0849(8) 0.0248 Uani
O30 O 0.5800(7) 0.0442(8) 0.4016(5) 0.0179 Uani
H34 H 0.5662 0.1015 0.3553 0.0270 Uiso
H35 H 0.6502 0.0431 0.4197 0.0270 Uiso
O31 O 0.7209(8) 0.1952(8) 0.0278(5) 0.0251 Uani
O23 O 0.8525(7) 0.9303(7) 0.0077(5) 0.0124 Uani
C37 C 0.9065(10) 0.9254(10) 0.9348(7) 0.0115 Uani
C38 C 0.4856(11) 0.9767(11) 0.8252(8) 0.0171 Uani
C39 C 0.6260(10) 0.9375(11) 0.8169(7) 0.0149 Uani
C40 C 0.6974(11) 0.9402(11) 0.8808(7) 0.0143 Uani
H28 H 0.6592 0.9574 0.9330 0.0170 Uiso
O27 O 0.9317(7) 0.9048(8) 0.2507(5) 0.0175 Uani
O28 O 0.6383(7) 0.8056(7) 0.5244(4) 0.0136 Uani
H30 H 0.6249 0.8771 0.5381 0.0210 Uiso
H31 H 0.7156 0.7679 0.5298 0.0210 Uiso
O29 O 0.5829(8) 0.6249(8) 0.4454(5) 0.0204 Uani
H32 H 0.5598 0.6215 0.4985 0.0300 Uiso
H33 H 0.6564 0.5775 0.4411 0.0300 Uiso
N6 N 0.9802(9) 0.8456(10) 0.6302(6) 0.0176 Uani
N7 N 0.8636(8) 0.8610(10) 0.6442(6) 0.0188 Uani
C44 C 0.9897(10) 0.8447(11) 0.3962(7) 0.0137 Uani
O32 O 0.7966(7) 0.8339(9) 0.3532(5) 0.0195 Uani
C45 C 0.8172(10) 0.8781(12) 0.7287(7) 0.0183 Uani
C46 C 0.8865(11) 0.8893(12) 0.7916(7) 0.0166 Uani
H36 H 0.9738 0.8778 0.7824 0.0200 Uiso
C47 C 0.9404(10) 0.8420(11) 0.4789(7) 0.0150 Uani
H37 H 0.8555 0.8417 0.4936 0.0180 Uiso
C48 C 0.8998(10) 0.8611(11) 0.3273(7) 0.0149 Uani
C51 C 0.8296(10) 0.9164(11) 0.8656(7) 0.0159 Uani
C52 C 0.6855(10) 0.9040(11) 0.7401(7) 0.0172 Uani
H39 H 0.6375 0.8993 0.6974 0.0200 Uiso
C25 C 0.1471(16) 0.7619(17) 0.1059(11) 0.0502 Uani
H16 H 0.0958 0.8471 0.0972 0.0750 Uiso
H17 H 0.1601 0.7287 0.1664 0.0750 Uiso
H18 H 0.1052 0.7091 0.0859 0.0750 Uiso
N4 N 0.3751(14) 0.7203(14) 0.0990(9) 0.0502 Uani
C26 C 0.2724(17) 0.7633(17) 0.0562(11) 0.0502 Uani
C27 C 0.4991(16) 0.7296(17) 0.0497(11) 0.0502 Uani
H19 H 0.5122 0.6824 0.0054 0.0750 Uiso
H20 H 0.5661 0.6950 0.0884 0.0750 Uiso
H21 H 0.4985 0.8173 0.0237 0.0750 Uiso
C28 C 0.3694(16) 0.7008(17) 0.1882(10) 0.0502 Uani
H22 H 0.3316 0.7799 0.2046 0.0750 Uiso
H23 H 0.4533 0.6693 0.2080 0.0750 Uiso
H24 H 0.3193 0.6397 0.2138 0.0750 Uiso
C53 C 0.8529(16) 0.2381(17) 0.8941(11) 0.0502 Uani
H40 H 0.9042 0.1529 0.9028 0.0750 Uiso
H41 H 0.8399 0.2713 0.8336 0.0750 Uiso
H42 H 0.8948 0.2909 0.9141 0.0750 Uiso
N8 N 0.6249(14) 0.2797(14) 0.9010(9) 0.0502 Uani
C54 C 0.7276(17) 0.2367(17) 0.9438(11) 0.0502 Uani
C55 C 0.5009(16) 0.2704(17) 0.9503(11) 0.0502 Uani
H43 H 0.4878 0.3176 0.9946 0.0750 Uiso
H44 H 0.4339 0.3050 0.9116 0.0750 Uiso
H45 H 0.5015 0.1827 0.9763 0.0750 Uiso
C56 C 0.6306(16) 0.2992(17) 0.8118(10) 0.0502 Uani
H46 H 0.6684 0.2201 0.7954 0.0750 Uiso
H47 H 0.5467 0.3307 0.7920 0.0750 Uiso
H48 H 0.6807 0.3603 0.7862 0.0750 Uiso
loop_
_atom_site_aniso_label
_atom_site_aniso_U_11
_atom_site_aniso_U_22
_atom_site_aniso_U_33
_atom_site_aniso_U_23
_atom_site_aniso_U_13
_atom_site_aniso_U_12
C1 0.015 0.011 0.012 -0.005 0.001 -0.008
O6 0.014 0.032 0.012 -0.002 0.002 -0.008
C2 0.01 0.012 0.032 -0.009 0.004 -0.006
C3 0.006 0.02 0.018 -0.001 0.005 -0.008
C4 0.023 0.015 0.006 -0.003 0.002 -0.007
Eu1 0.006 0.0154 0.0096 -0.0053 0.0031 -0.0047
O9 0.012 0.029 0.012 -0.005 0.005 -0.008
O10 0.011 0.017 0.014 -0.004 -0.007 -0.002
O11 0.032 0.015 0.018 -0.009 0.004 -0.01
N1 0.015 0.027 0.015 -0.007 0.003 -0.012
N2 0.009 0.033 0.016 -0.009 -0.001 -0.004
C14 0.011 0.022 0.015 -0.01 -0.002 -0.01
O16 0.007 0.041 0.018 -0.018 0.001 -0.009
C15 0.004 0.034 0.017 -0.007 0.005 -0.006
C16 0.014 0.023 0.014 -0.003 0.002 -0.009
C17 0.011 0.017 0.016 -0.003 0.001 -0.003
C18 0.011 0.013 0.018 -0.004 0.002 0.001
C22 0.013 0.012 0.024 -0.002 0 -0.008
C23 0.015 0.023 0.012 -0.003 -0.002 -0.002
O33 0.02 0.016 0.016 -0.009 0.01 -0.01
O36 0.013 0.018 0.013 -0.002 -0.004 -0.006
O39 0.012 0.015 0.013 -0.008 0.005 -0.006
O41 0.017 0.015 0.011 -0.005 0.004 -0.007
O45 0.012 0.035 0.014 -0.014 0.002 -0.007
O47 0.012 0.026 0.015 -0.01 0.004 -0.009
Eu18 0.0066 0.0122 0.0088 -0.0033 0.0017 -0.0043
O2 0.013 0.018 0.013 -0.002 -0.004 -0.006
C5 0.011 0.019 0.009 -0.007 0 -0.003
C6 0.018 0.023 0.01 0 0.003 -0.007
C7 0.014 0.025 0.018 -0.013 0.006 -0.009
Eu2 0.0066 0.0122 0.0088 -0.0033 0.0017 -0.0043
O12 0.021 0.022 0.019 -0.007 0.007 -0.01
O13 0.013 0.029 0.015 -0.005 0.001 -0.012
O14 0.037 0.012 0.032 -0.013 0.025 -0.013
C11 0.02 0.01 0.016 -0.008 0.001 -0.009
O15 0.031 0.017 0.02 0.011 -0.006 -0.005
C12 0.028 0.015 0.017 -0.003 0.006 -0.005
C13 0.014 0.013 0.02 -0.003 0.012 -0.006
N3 0.04 0.019 0.042 -0.017 0.03 -0.018
C20 0.028 0.011 0.016 -0.006 0.011 -0.01
C24 0.03 0.016 0.029 -0.012 0.02 -0.01
O38 0.008 0.018 0.007 -0.003 0.002 -0.009
O44 0.014 0.032 0.012 -0.002 0.002 -0.008
Eu10 0.006 0.0154 0.0096 -0.0053 0.0031 -0.0047
O25 0.012 0.035 0.014 -0.014 0.002 -0.007
O26 0.012 0.026 0.015 -0.01 0.004 -0.009
C41 0.011 0.018 0.021 -0.004 0.003 -0.011
C42 0.005 0.017 0.022 -0.009 0.002 -0.001
C43 0.017 0.021 0.013 -0.008 -0.008 -0.003
C49 0.014 0.02 0.017 -0.007 0.003 -0.002
C50 0.015 0.018 0.012 -0.007 0.002 -0.009
O3 0.008 0.018 0.007 -0.003 0.002 -0.009
C8 0.011 0.018 0.021 -0.004 0.003 -0.011
C9 0.005 0.017 0.022 -0.009 0.002 -0.001
C10 0.017 0.021 0.013 -0.008 -0.008 -0.003
C19 0.014 0.02 0.017 -0.007 0.003 -0.002
C21 0.015 0.018 0.012 -0.007 0.002 -0.009
O17 0.02 0.016 0.016 -0.009 0.01 -0.01
O18 0.017 0.015 0.011 -0.005 0.004 -0.007
C29 0.011 0.019 0.009 -0.007 0 -0.003
C30 0.018 0.023 0.01 0 0.003 -0.007
C31 0.014 0.025 0.018 -0.013 0.006 -0.009
O19 0.021 0.022 0.019 -0.007 0.007 -0.01
O20 0.037 0.012 0.032 -0.013 0.025 -0.013
C32 0.02 0.01 0.016 -0.008 0.001 -0.009
C33 0.028 0.015 0.017 -0.003 0.006 -0.005
C34 0.014 0.013 0.02 -0.003 0.012 -0.006
N5 0.04 0.019 0.042 -0.017 0.03 -0.018
C35 0.028 0.011 0.016 -0.006 0.011 -0.01
C36 0.03 0.016 0.029 -0.012 0.02 -0.01
O30 0.013 0.029 0.015 -0.005 0.001 -0.012
O31 0.031 0.017 0.02 0.011 -0.006 -0.005
O23 0.012 0.015 0.013 -0.008 0.005 -0.006
C37 0.015 0.011 0.012 -0.005 0.001 -0.008
C38 0.01 0.012 0.032 -0.009 0.004 -0.006
C39 0.006 0.02 0.018 -0.001 0.005 -0.008
C40 0.023 0.015 0.006 -0.003 0.002 -0.007
O27 0.012 0.029 0.012 -0.005 0.005 -0.008
O28 0.011 0.017 0.014 -0.004 -0.007 -0.002
O29 0.032 0.015 0.018 -0.009 0.004 -0.01
N6 0.015 0.027 0.015 -0.007 0.003 -0.012
N7 0.009 0.033 0.016 -0.009 -0.001 -0.004
C44 0.011 0.022 0.015 -0.01 -0.002 -0.01
O32 0.007 0.041 0.018 -0.018 0.001 -0.009
C45 0.004 0.034 0.017 -0.007 0.005 -0.006
C46 0.014 0.023 0.014 -0.003 0.002 -0.009
C47 0.011 0.017 0.016 -0.003 0.001 -0.003
C48 0.011 0.013 0.018 -0.004 0.002 0.001
C51 0.013 0.012 0.024 -0.002 0 -0.008
C52 0.015 0.023 0.012 -0.003 -0.002 -0.002
C25 0.05 0.05 0.05 -0.011 -0.003 -0.011
N4 0.05 0.05 0.05 -0.011 -0.003 -0.011
C26 0.05 0.05 0.05 -0.011 -0.003 -0.011
C27 0.05 0.05 0.05 -0.011 -0.003 -0.011
C28 0.05 0.05 0.05 -0.011 -0.003 -0.011
C53 0.05 0.05 0.05 -0.011 -0.003 -0.011
N8 0.05 0.05 0.05 -0.011 -0.003 -0.011
C54 0.05 0.05 0.05 -0.011 -0.003 -0.011
C55 0.05 0.05 0.05 -0.011 -0.003 -0.011
C56 0.05 0.05 0.05 -0.011 -0.003 -0.011
loop_
_geom_bond_atom_site_label_1
_geom_bond_atom_site_label_2
_geom_bond_site_symmetry_1
_geom_bond_site_symmetry_2
C1 C22 1_555 1_555
O6 C2 1_555 1_555
C2 C3 1_555 1_555
C3 C4 1_555 1_555
C4 H1 1_555 1_555
Eu1 O10 1_555 1_555
O9 C18 1_555 1_555
O10 H4 1_555 1_555
H5 O10 1_555 1_555
O11 Eu1 1_555 1_555
H6 O11 1_555 1_555
H7 O11 1_555 1_555
N1 N2 1_555 1_555
N2 C15 1_555 1_555
C14 C17 1_555 1_555
O16 Eu1 1_555 1_555
C15 C16 1_555 1_555
C16 H11 1_555 1_555
C17 H12 1_555 1_555
C18 C14 1_555 1_555
C22 C4 1_555 1_555
C23 C3 1_555 1_555
H15 C23 1_555 1_555
O33 Eu1 1_555 1_555
O36 Eu1 1_555 1_555
O45 Eu1 1_555 1_555
O47 Eu1 1_555 1_555
O6 Eu18 1_555 1_555
O16 C18 1_555 1_555
C15 C23 1_555 1_555
C16 C22 1_555 1_555
O33 C5 1_555 1_555
O41 C5 1_555 1_555
C5 C6 1_555 1_555
C6 C7 1_555 1_555
C7 H2 1_555 1_555
O12 Eu2 1_555 1_555
H8 O13 1_555 1_555
H9 O13 1_555 1_555
O14 C11 1_555 1_555
C11 O12 1_555 1_555
O15 Eu2 1_555 1_555
C12 H10 1_555 1_555
C13 C7 1_555 1_555
N3 C24 1_555 1_555
C20 C6 1_555 1_555
H14 C20 1_555 1_555
C24 C12 1_555 1_555
O38 Eu2 1_555 1_555
O44 Eu2 1_555 1_555
Eu10 O2 1_555 1_555
C11 C13 1_555 1_555
C12 C13 1_555 1_555
C20 C24 1_555 1_555
O25 C41 1_555 1_555
O26 C41 1_555 1_555
C41 C42 1_555 1_555
C42 C43 1_555 1_555
C43 H29 1_555 1_555
C49 C42 1_555 1_555
H38 C49 1_555 1_555
C50 C43 1_555 1_555
Eu10 O25 1_555 1_555
O26 Eu10 1_555 1_555
O45 C8 1_555 1_555
O47 C8 1_555 1_555
C8 C9 1_555 1_555
C9 C10 1_555 1_555
C10 H3 1_555 1_555
C19 C9 1_555 1_555
H13 C19 1_555 1_555
C21 C10 1_555 1_555
Eu18 O3 1_555 1_555
O17 C29 1_555 1_555
O18 C29 1_555 1_555
C29 C30 1_555 1_555
C30 C31 1_555 1_555
C31 H25 1_555 1_555
O19 C32 1_555 1_555
O20 C32 1_555 1_555
C32 C34 1_555 1_555
C33 H26 1_555 1_555
C34 C31 1_555 1_555
C35 C30 1_555 1_555
H27 C35 1_555 1_555
C36 C33 1_555 1_555
Eu18 O19 1_555 1_555
H34 O30 1_555 1_555
H35 O30 1_555 1_555
O31 Eu18 1_555 1_555
Eu10 O17 1_555 1_555
C33 C34 1_555 1_555
N5 C36 1_555 1_555
C35 C36 1_555 1_555
C37 C51 1_555 1_555
O44 C38 1_555 1_555
C38 C39 1_555 1_555
C39 C40 1_555 1_555
C40 H28 1_555 1_555
Eu10 O28 1_555 1_555
O28 H30 1_555 1_555
H31 O28 1_555 1_555
O29 Eu10 1_555 1_555
H32 O29 1_555 1_555
H33 O29 1_555 1_555
N6 N7 1_555 1_555
N7 C45 1_555 1_555
C44 C47 1_555 1_555
O32 Eu10 1_555 1_555
C45 C46 1_555 1_555
C46 H36 1_555 1_555
C47 H37 1_555 1_555
C48 O27 1_555 1_555
C51 C40 1_555 1_555
C52 C39 1_555 1_555
H39 C52 1_555 1_555
C44 C48 1_555 1_555
O32 C48 1_555 1_555
C45 C52 1_555 1_555
C46 C51 1_555 1_555
C25 H16 1_555 1_555
H17 C25 1_555 1_555
H18 C25 1_555 1_555
N4 C26 1_555 1_555
C27 N4 1_555 1_555
H19 C27 1_555 1_555
H20 C27 1_555 1_555
H21 C27 1_555 1_555
C28 N4 1_555 1_555
H22 C28 1_555 1_555
H23 C28 1_555 1_555
H24 C28 1_555 1_555
C25 C26 1_555 1_555
C53 H40 1_555 1_555
H41 C53 1_555 1_555
H42 C53 1_555 1_555
N8 C54 1_555 1_555
C55 N8 1_555 1_555
H43 C55 1_555 1_555
H44 C55 1_555 1_555
H45 C55 1_555 1_555
C56 N8 1_555 1_555
H46 C56 1_555 1_555
H47 C56 1_555 1_555
H48 C56 1_555 1_555
C53 C54 1_555 1_555

#END
