
###############################################################################
#
# This file contains modified crystal structure data generated from the
# MOF subset of the Cambridge Structural Database (CSD) v543 
# hosted by the Cambridge Crystallographic Data Centre (CCDC).
#
# This work is licensed under the Creative Commons
# Attribution-NonCommercial-ShareAlike 4.0 International License.
# To view a copy of this license, visit
# http://creativecommons.org/licenses/by-nc-sa/4.0/
# or send a letter to
# Creative Commons, PO Box 1866, Mountain View, CA 94042, USA.
#
# CIF created using the CSD Python API on 29 September 2022
# The structure has been converted into the P1 space group
# The structure has a 3D framework
# The original CSD entry ASUGIH is in the monoclinic crystal system
# The framework has been calculated to contain at least 10.0% void space
# The void calculation uses a probe of radius 1.32A, grid spacing 0.4
#
###############################################################################

data_ASUGIH
_chemical_formula_moiety         '(C168 H120 N48 Ni14 O56)n'
_symmetry_cell_setting           triclinic
_symmetry_space_group_name_H-M   'P 1'
_symmetry_Int_Tables_number      1
_space_group_name_Hall           'P 1'
loop_
_symmetry_equiv_pos_site_id
_symmetry_equiv_pos_as_xyz
1 x,y,z
_cell_length_a                   9.87079(13)
_cell_length_b                   30.4338(4)
_cell_length_c                   16.92775(17)
_cell_angle_alpha                90
_cell_angle_beta                 91.2934(11)
_cell_angle_gamma                90
_cell_volume                     5083.9
loop_
_atom_site_label
_atom_site_type_symbol
_atom_site_fract_x
_atom_site_fract_y
_atom_site_fract_z
H29 H 0.025438 0.577073 0.581967
Ni5 Ni -0.000000 0.61036(2) 0.750000
N2 N 0.3949(3) 0.42340(9) 0.90320(15)
H3 H 0.421867 0.397286 0.915216
H4 H 0.316492 0.421969 0.879983
N3 N 0.3851(2) 0.44832(7) 0.97255(13)
N6 N 0.0878(2) 0.56611(6) 0.82489(12)
H8 H 0.778791 0.341797 0.994974
H9 H 0.629094 0.396798 0.957051
C16 C 0.3076(3) 0.48459(8) 0.98667(16)
C17 C 0.2305(3) 0.51072(8) 0.92815(15)
C18 C 0.2715(3) 0.51643(9) 0.85089(17)
H12 H 0.348834 0.501423 0.832177
C19 C 0.1984(3) 0.54415(9) 0.80182(16)
H13 H 0.227535 0.547970 0.749147
C20 C 0.0511(3) 0.56127(9) 0.90031(16)
C21 C 0.1195(3) 0.53448(10) 0.95297(16)
O2 O 0.00754(15) 0.66299(5) 0.84220(8)
Ni3 Ni 0.64606(4) 0.78529(2) 0.36760(2)
O8 O 0.16860(15) 0.62222(5) 0.68762(9)
O10 O 0.18708(16) 0.71293(5) 0.75259(9)
O11 O 0.3394(3) 0.76505(9) 0.73424(12)
O12 O 0.57097(15) 0.77289(5) 0.47926(9)
O13 O 0.49014(16) 0.73700(5) 0.37612(9)
O14 O 0.77616(16) 0.73277(5) 0.38486(9)
H16 H 0.825467 0.729535 0.344390
H17 H 0.832770 0.738586 0.422379
N7 N 0.78838(19) 0.83257(6) 0.39780(11)
C22 C 0.1176(2) 0.65493(7) 0.65195(13)
C23 C 0.2105(2) 0.68022(8) 0.59937(13)
C24 C 0.2876(2) 0.71575(8) 0.62893(13)
C25 C 0.2705(3) 0.73294(8) 0.71153(14)
C26 C 0.3813(2) 0.73523(8) 0.57944(14)
H20 H 0.435102 0.759047 0.598423
C27 C 0.3970(2) 0.72013(7) 0.50221(13)
C28 C 0.4912(2) 0.74400(7) 0.44967(13)
C29 C 0.3186(2) 0.68567(8) 0.47366(14)
H21 H 0.328020 0.675794 0.420823
C30 C 0.2258(2) 0.66554(8) 0.52276(15)
H22 H 0.172760 0.641609 0.503538
C31 C 0.7867(3) 0.85140(9) 0.46855(15)
H23 H 0.721209 0.841797 0.505026
C32 C 0.8756(3) 0.88431(9) 0.49165(16)
H24 H 0.870906 0.896798 0.542949
C33 C 0.9714(2) 0.89888(8) 0.43935(14)
C34 C 0.9763(3) 0.87837(9) 0.36622(15)
C35 C 0.8838(3) 0.84582(9) 0.34801(14)
H26 H 0.887880 0.832095 0.297715
Ni6 Ni 0.14606(4) 0.71471(2) 0.86760(2)
O16 O 0.50754(15) 0.83701(5) 0.34220(8)
O17 O 0.68708(16) 0.78707(5) 0.25259(9)
Ni2 Ni 0.35394(4) 0.78529(2) 0.13240(2)
O5 O 0.42903(15) 0.77289(5) 0.02074(9)
O6 O 0.50986(16) 0.73700(5) 0.12388(9)
O7 O 0.22384(16) 0.73277(5) 0.11514(9)
H1 H 0.174533 0.729535 0.155610
H2 H 0.167230 0.738586 0.077621
N1 N 0.21162(19) 0.83257(6) 0.10220(11)
C7 C 0.5088(2) 0.74400(7) 0.05033(13)
C8 C 0.6814(2) 0.68567(8) 0.02634(14)
H6 H 0.671980 0.675794 0.079177
C10 C 0.2133(3) 0.85140(9) 0.03145(15)
C11 C 0.1244(3) 0.88431(9) 0.00835(16)
C12 C 0.0286(2) 0.89888(8) 0.06065(14)
C13 C 0.0237(3) 0.87837(9) 0.13378(15)
C14 C 0.1162(3) 0.84582(9) 0.15199(14)
H11 H 0.112120 0.832095 0.202285
O15 O 0.49246(15) 0.83701(5) 0.15780(8)
O18 O 0.31292(16) 0.78707(5) 0.24741(9)
O5_2 O 0.07097(15) 0.72711(5) 0.97926(9)
O7_2 O 0.27616(16) 0.76723(5) 0.88486(9)
H1_2 H 0.325467 0.770465 0.844390
H2_2 H 0.332770 0.761414 0.922379
N1_2 N 0.28838(19) 0.66743(6) 0.89780(11)
N4 N 0.6050(3) 0.53696(8) 0.90041(14)
N5 N 0.6874(3) 0.50622(8) 0.93764(14)
C10_2 C 0.2867(3) 0.64860(9) 0.96855(15)
C11_2 C 0.3756(3) 0.61569(9) 0.99165(16)
C12_2 C 0.4714(2) 0.60112(8) 0.93935(14)
C13_2 C 0.4763(3) 0.62163(9) 0.86622(15)
H10 H 0.542533 0.613325 0.829216
C14_2 C 0.3838(3) 0.65418(9) 0.84801(14)
H11_2 H 0.387880 0.667905 0.797715
C15 C 0.5635(3) 0.56402(8) 0.95554(15)
H15 H 0.909116 0.467734 0.993975
Ni1 Ni 0.500000 0.88964(2) 0.250000
O1 O 0.66860(15) 0.87778(5) 0.18762(9)
O4 O 0.8394(3) 0.73495(9) 0.23424(12)
C1 C 0.6176(2) 0.84507(7) 0.15195(13)
C2 C 0.7105(2) 0.81978(8) 0.09937(13)
C3 C 0.7876(2) 0.78425(8) 0.12893(13)
C4 C 0.7705(3) 0.76706(8) 0.21153(14)
C5 C 0.8813(2) 0.76477(8) 0.07944(14)
H5 H 0.935102 0.740953 0.098423
C6 C 0.8970(2) 0.77987(7) 0.00221(13)
C9 C 0.7258(2) 0.83446(8) 0.02276(15)
H7 H 0.672760 0.858391 0.003538
O8_2 O 0.33140(15) 0.87778(5) 0.31238(9)
O11_2 O 0.1606(3) 0.73495(9) 0.26576(12)
O13_2 O 0.00986(16) 0.76300(5) 0.62388(9)
C22_2 C 0.3824(2) 0.84507(7) 0.34805(13)
C23_2 C 0.2895(2) 0.81978(8) 0.40063(13)
C24_2 C 0.2124(2) 0.78425(8) 0.37107(13)
C25_2 C 0.2295(3) 0.76706(8) 0.28847(14)
C26_2 C 0.1187(2) 0.76477(8) 0.42056(14)
H20_2 H 0.064898 0.740953 0.401577
C27_2 C 0.1030(2) 0.77987(7) 0.49779(13)
C28_2 C 0.0088(2) 0.75600(7) 0.55033(13)
C29_2 C 0.1814(2) 0.81433(8) 0.52634(14)
H21_2 H 0.171980 0.824206 0.579177
C30_2 C 0.2742(2) 0.83446(8) 0.47724(15)
H22_2 H 0.327240 0.858391 0.496462
N13 N 0.4122(2) 0.93389(6) 0.17511(12)
N14 N 0.5878(2) 0.93389(6) 0.32489(12)
C17_2 C 0.2695(3) 0.98928(8) 0.07185(15)
C18_2 C 0.2285(3) 0.98357(9) 0.14911(17)
H12_2 H 0.151166 0.998577 0.167823
C19_2 C 0.3016(3) 0.95585(9) 0.19818(16)
H13_2 H 0.272465 0.952030 0.250853
C20_2 C 0.4489(3) 0.93873(9) 0.09969(16)
H14 H 0.525438 0.922927 0.081967
C21_2 C 0.3805(3) 0.96552(10) 0.04703(16)
C38 C 0.7305(3) 0.98928(8) 0.42815(15)
C39 C 0.7715(3) 0.98357(9) 0.35089(17)
H27 H 0.848834 0.998577 0.332177
C40 C 0.6984(3) 0.95585(9) 0.30182(16)
H28 H 0.727535 0.952030 0.249147
C41 C 0.5511(3) 0.93873(9) 0.40031(16)
H29_2 H 0.474562 0.922927 0.418033
C42 C 0.6195(3) 0.96552(10) 0.45297(16)
H30 H 0.590884 0.967734 0.506025
Ni3_2 Ni 0.14606(4) 0.28529(2) 0.36760(2)
O12_2 O 0.07097(15) 0.27289(5) 0.47926(9)
O14_2 O 0.27616(16) 0.23277(5) 0.38486(9)
H16_2 H 0.325467 0.229535 0.344390
H17_2 H 0.332770 0.238586 0.422379
N7_2 N 0.28838(19) 0.33257(6) 0.39780(11)
N8 N 0.6051(3) 0.42340(9) 0.59680(15)
H18 H 0.578133 0.397286 0.584784
H19 H 0.683508 0.421969 0.620017
N9 N 0.6149(2) 0.44832(7) 0.52745(13)
N10 N 0.6050(3) 0.46304(8) 0.40041(14)
N11 N 0.6874(3) 0.49378(8) 0.43764(14)
N12 N 0.9122(2) 0.56611(6) 0.67511(12)
C31_2 C 0.2867(3) 0.35140(9) 0.46855(15)
H23_2 H 0.221209 0.341797 0.505026
C32_2 C 0.3756(3) 0.38431(9) 0.49165(16)
H24_2 H 0.370906 0.396798 0.542949
C33_2 C 0.4714(2) 0.39888(8) 0.43935(14)
C34_2 C 0.4763(3) 0.37837(9) 0.36622(15)
H25 H 0.542533 0.386675 0.329216
C35_2 C 0.3838(3) 0.34582(9) 0.34801(14)
H26_2 H 0.387880 0.332095 0.297715
C36 C 0.5635(3) 0.43598(8) 0.45554(15)
C37 C 0.6924(3) 0.48459(8) 0.51333(16)
C38_2 C 0.7695(3) 0.51072(8) 0.57185(15)
C39_2 C 0.7285(3) 0.51643(9) 0.64911(17)
H27_2 H 0.651166 0.501423 0.667823
C40_2 C 0.8016(3) 0.54415(9) 0.69818(16)
H28_2 H 0.772465 0.547970 0.750853
C41_2 C 0.9489(3) 0.56127(9) 0.59969(16)
C42_2 C 0.8805(3) 0.53448(10) 0.54703(16)
H30_2 H 0.909116 0.532266 0.493975
Ni5_2 Ni 1.000000 0.61036(2) 0.750000
O16_2 O 0.00754(15) 0.33701(5) 0.34220(8)
O17_2 O 0.18708(16) 0.28707(5) 0.25259(9)
H14_2 H 0.974562 0.577073 0.918033
O1_2 O 0.83140(15) 0.62222(5) 0.81238(9)
O3 O 0.81292(16) 0.71293(5) 0.74741(9)
O4_2 O 0.6606(3) 0.76505(9) 0.76576(12)
C1_2 C 0.8824(2) 0.65493(7) 0.84805(13)
C2_2 C 0.7895(2) 0.68022(8) 0.90063(13)
C3_2 C 0.7124(2) 0.71575(8) 0.87107(13)
C4_2 C 0.7295(3) 0.73294(8) 0.78847(14)
C5_2 C 0.6187(2) 0.73523(8) 0.92056(14)
H5_2 H 0.564898 0.759047 0.901577
C6_2 C 0.6030(2) 0.72013(7) 0.99779(13)
C9_2 C 0.7742(2) 0.66554(8) 0.97724(15)
H7_2 H 0.827240 0.641609 0.996462
H8_2 H 0.278791 0.841797 0.994974
H9_2 H 0.129094 0.896798 0.957051
O9 O 0.99246(15) 0.66299(5) 0.65780(8)
Ni7 Ni 0.85394(4) 0.71471(2) 0.63240(2)
H14_3 H 0.025438 0.422927 0.081967
Ni4 Ni 0.000000 0.38964(2) 0.250000
O12_3 O 0.92903(15) 0.72711(5) 0.52074(9)
O14_3 O 0.72384(16) 0.76723(5) 0.61514(9)
H16_3 H 0.674533 0.770465 0.655610
H17_3 H 0.667230 0.761414 0.577621
N7_3 N 0.71162(19) 0.66743(6) 0.60220(11)
N8_2 N 0.3949(3) 0.57660(9) 0.40320(15)
H18_2 H 0.421867 0.602714 0.415216
H19_2 H 0.316492 0.578031 0.379983
N9_2 N 0.3851(2) 0.55168(7) 0.47255(13)
N10_2 N 0.3950(3) 0.53696(8) 0.59959(14)
N11_2 N 0.3126(3) 0.50622(8) 0.56236(14)
N12_2 N 0.0878(2) 0.43389(6) 0.32489(12)
C31_3 C 0.7133(3) 0.64860(9) 0.53145(15)
H23_3 H 0.778791 0.658203 0.494974
C32_3 C 0.6244(3) 0.61569(9) 0.50835(16)
H24_3 H 0.629094 0.603202 0.457051
C33_3 C 0.5286(2) 0.60112(8) 0.56065(14)
C34_3 C 0.5237(3) 0.62163(9) 0.63378(15)
H25_2 H 0.457467 0.613325 0.670784
C35_3 C 0.6162(3) 0.65418(9) 0.65199(14)
H26_3 H 0.612120 0.667905 0.702285
C36_2 C 0.4365(3) 0.56402(8) 0.54446(15)
C37_2 C 0.3076(3) 0.51541(8) 0.48667(16)
C38_3 C 0.2305(3) 0.48928(8) 0.42815(15)
C39_3 C 0.2715(3) 0.48357(9) 0.35089(17)
H27_3 H 0.348834 0.498577 0.332177
C40_3 C 0.1984(3) 0.45585(9) 0.30182(16)
H28_3 H 0.227535 0.452030 0.249147
C41_3 C 0.0511(3) 0.43873(9) 0.40031(16)
C42_3 C 0.1195(3) 0.46552(10) 0.45297(16)
H30_3 H 0.090884 0.467734 0.506025
O1_3 O 0.16860(15) 0.37778(5) 0.18762(9)
O4_3 O 0.3394(3) 0.23495(9) 0.23424(12)
C1_3 C 0.1176(2) 0.34507(7) 0.15195(13)
C2_3 C 0.2105(2) 0.31978(8) 0.09937(13)
C3_3 C 0.2876(2) 0.28425(8) 0.12893(13)
C4_3 C 0.2705(3) 0.26706(8) 0.21153(14)
C5_3 C 0.3813(2) 0.26477(8) 0.07944(14)
H5_3 H 0.435102 0.240953 0.098423
C6_3 C 0.3970(2) 0.27987(7) 0.00221(13)
C9_3 C 0.2258(2) 0.33446(8) 0.02276(15)
H7_3 H 0.172760 0.358391 0.003538
H8_3 H 0.721209 0.158203 0.005026
H9_3 H 0.870906 0.103202 0.042949
O6_2 O 0.00986(16) 0.23700(5) 0.12388(9)
C7_2 C 0.0088(2) 0.24400(7) 0.05033(13)
C8_2 C 0.1814(2) 0.18567(8) 0.02634(14)
H6_2 H 0.171980 0.175794 0.079177
Ni1_2 Ni 0.500000 0.11036(2) 0.750000
O1_4 O 0.33140(15) 0.12222(5) 0.81238(9)
O2_2 O 0.50754(15) 0.16299(5) 0.84220(8)
O3_2 O 0.31292(16) 0.21293(5) 0.74741(9)
O4_4 O 0.1606(3) 0.26505(9) 0.76576(12)
C1_4 C 0.3824(2) 0.15493(7) 0.84805(13)
C2_4 C 0.2895(2) 0.18022(8) 0.90063(13)
C3_4 C 0.2124(2) 0.21575(8) 0.87107(13)
C4_4 C 0.2295(3) 0.23294(8) 0.78847(14)
C5_4 C 0.1187(2) 0.23523(8) 0.92056(14)
H5_4 H 0.064898 0.259047 0.901577
C6_4 C 0.1030(2) 0.22013(7) 0.99779(13)
C9_4 C 0.2742(2) 0.16554(8) 0.97724(15)
H7_4 H 0.327240 0.141609 0.996462
O8_3 O 0.66860(15) 0.12222(5) 0.68762(9)
O9_2 O 0.49246(15) 0.16299(5) 0.65780(8)
O10_2 O 0.68708(16) 0.21293(5) 0.75259(9)
O11_3 O 0.8394(3) 0.26505(9) 0.73424(12)
O13_3 O 0.99014(16) 0.23700(5) 0.37612(9)
C22_3 C 0.6176(2) 0.15493(7) 0.65195(13)
C23_3 C 0.7105(2) 0.18022(8) 0.59937(13)
C24_3 C 0.7876(2) 0.21575(8) 0.62893(13)
C25_3 C 0.7705(3) 0.23294(8) 0.71153(14)
C26_3 C 0.8813(2) 0.23523(8) 0.57944(14)
H20_3 H 0.935102 0.259047 0.598423
C27_3 C 0.8970(2) 0.22013(7) 0.50221(13)
C28_3 C 0.9912(2) 0.24400(7) 0.44967(13)
C29_3 C 0.8186(2) 0.18567(8) 0.47366(14)
H21_3 H 0.828020 0.175794 0.420823
C30_3 C 0.7258(2) 0.16554(8) 0.52276(15)
H22_3 H 0.672760 0.141609 0.503538
Ni6_2 Ni 0.64606(4) 0.21471(2) 0.86760(2)
Ni7_2 Ni 0.35394(4) 0.21471(2) 0.63240(2)
N13_2 N 0.5878(2) 0.06611(6) 0.82489(12)
N14_2 N 0.4122(2) 0.06611(6) 0.67511(12)
Ni2_2 Ni 0.85394(4) 0.28529(2) 0.13240(2)
O5_3 O 0.92903(15) 0.27289(5) 0.02074(9)
O7_3 O 0.72384(16) 0.23277(5) 0.11514(9)
H1_3 H 0.674533 0.229535 0.155610
H2_3 H 0.667230 0.238586 0.077621
N1_3 N 0.71162(19) 0.33257(6) 0.10220(11)
N4_2 N 0.3950(3) 0.46304(8) 0.09959(14)
N5_2 N 0.3126(3) 0.49378(8) 0.06236(14)
C10_3 C 0.7133(3) 0.35140(9) 0.03145(15)
C11_3 C 0.6244(3) 0.38431(9) 0.00835(16)
C12_3 C 0.5286(2) 0.39888(8) 0.06065(14)
C13_3 C 0.5237(3) 0.37837(9) 0.13378(15)
H10_2 H 0.457467 0.386675 0.170784
C14_3 C 0.6162(3) 0.34582(9) 0.15199(14)
H11_3 H 0.612120 0.332095 0.202285
C15_2 C 0.4365(3) 0.43598(8) 0.04446(15)
H15_2 H 0.090884 0.532266 0.006025
O15_2 O 0.99246(15) 0.33701(5) 0.15780(8)
O18_2 O 0.81292(16) 0.28707(5) 0.24741(9)
C38_4 C 0.2695(3) 0.01072(8) 0.57185(15)
C39_4 C 0.2285(3) 0.01643(9) 0.64911(17)
H27_4 H 0.151166 0.001423 0.667823
C40_4 C 0.3016(3) 0.04415(9) 0.69818(16)
H28_4 H 0.272465 0.047970 0.750853
C41_4 C 0.4489(3) 0.06127(9) 0.59969(16)
H29_3 H 0.525438 0.077073 0.581967
C42_4 C 0.3805(3) 0.03448(10) 0.54703(16)
H30_4 H 0.409116 0.032266 0.493975
C17_3 C 0.7305(3) 0.01072(8) 0.92815(15)
C18_3 C 0.7715(3) 0.01643(9) 0.85089(17)
H12_3 H 0.848834 0.001423 0.832177
C19_3 C 0.6984(3) 0.04415(9) 0.80182(16)
H13_3 H 0.727535 0.047970 0.749147
C20_3 C 0.5511(3) 0.06127(9) 0.90031(16)
H14_4 H 0.474562 0.077073 0.918033
C21_3 C 0.6195(3) 0.03448(10) 0.95297(16)
N2_2 N 0.6051(3) 0.57660(9) 0.09680(15)
H3_2 H 0.578133 0.602714 0.084784
H4_2 H 0.683508 0.578031 0.120017
N3_2 N 0.6149(2) 0.55168(7) 0.02745(13)
N6_2 N 0.9122(2) 0.43389(6) 0.17511(12)
H8_4 H 0.221209 0.658203 0.005026
H9_4 H 0.370906 0.603202 0.042949
C16_2 C 0.6924(3) 0.51541(8) 0.01333(16)
C17_4 C 0.7695(3) 0.48928(8) 0.07185(15)
C18_4 C 0.7285(3) 0.48357(9) 0.14911(17)
H12_4 H 0.651166 0.498577 0.167823
C19_4 C 0.8016(3) 0.45585(9) 0.19818(16)
H13_4 H 0.772465 0.452030 0.250853
C20_4 C 0.9489(3) 0.43873(9) 0.09969(16)
C21_4 C 0.8805(3) 0.46552(10) 0.04703(16)
Ni4_2 Ni 1.000000 0.38964(2) 0.250000
H29_4 H 0.974562 0.422927 0.418033
O5_4 O 0.57097(15) 0.22711(5) 0.97926(9)
O6_3 O 0.49014(16) 0.26300(5) 0.87612(9)
O7_4 O 0.77616(16) 0.26723(5) 0.88486(9)
H1_4 H 0.825467 0.270465 0.844390
H2_4 H 0.832770 0.261414 0.922379
N1_4 N 0.78838(19) 0.16743(6) 0.89780(11)
C7_3 C 0.4912(2) 0.25600(7) 0.94967(13)
C8_3 C 0.3186(2) 0.31433(8) 0.97366(14)
H6_3 H 0.328020 0.324206 0.920823
C10_4 C 0.7867(3) 0.14860(9) 0.96855(15)
C11_4 C 0.8756(3) 0.11569(9) 0.99165(16)
C12_4 C 0.9714(2) 0.10112(8) 0.93935(14)
C13_4 C 0.9763(3) 0.12163(9) 0.86622(15)
C14_4 C 0.8838(3) 0.15418(9) 0.84801(14)
H11_4 H 0.887880 0.167905 0.797715
O8_4 O 0.83140(15) 0.37778(5) 0.31238(9)
O11_4 O 0.6606(3) 0.23495(9) 0.26576(12)
O12_4 O 0.42903(15) 0.22711(5) 0.52074(9)
O13_4 O 0.50986(16) 0.26300(5) 0.62388(9)
O14_4 O 0.22384(16) 0.26723(5) 0.61514(9)
H16_4 H 0.174533 0.270465 0.655610
H17_4 H 0.167230 0.261414 0.577621
N7_4 N 0.21162(19) 0.16743(6) 0.60220(11)
C22_4 C 0.8824(2) 0.34507(7) 0.34805(13)
C23_4 C 0.7895(2) 0.31978(8) 0.40063(13)
C24_4 C 0.7124(2) 0.28425(8) 0.37107(13)
C25_4 C 0.7295(3) 0.26706(8) 0.28847(14)
C26_4 C 0.6187(2) 0.26477(8) 0.42056(14)
H20_4 H 0.564898 0.240953 0.401577
C27_4 C 0.6030(2) 0.27987(7) 0.49779(13)
C28_4 C 0.5088(2) 0.25600(7) 0.55033(13)
C29_4 C 0.6814(2) 0.31433(8) 0.52634(14)
H21_4 H 0.671980 0.324206 0.579177
C30_4 C 0.7742(2) 0.33446(8) 0.47724(15)
H22_4 H 0.827240 0.358391 0.496462
C31_4 C 0.2133(3) 0.14860(9) 0.53145(15)
H23_4 H 0.278791 0.158203 0.494974
C32_4 C 0.1244(3) 0.11569(9) 0.50835(16)
H24_4 H 0.129094 0.103202 0.457051
C33_4 C 0.0286(2) 0.10112(8) 0.56065(14)
C34_4 C 0.0237(3) 0.12163(9) 0.63378(15)
C35_4 C 0.1162(3) 0.15418(9) 0.65199(14)
H26_4 H 0.112120 0.167905 0.702285
N8_3 N 0.1051(3) 0.92340(9) 0.59680(15)
H18_3 H 0.078133 0.897286 0.584784
H19_3 H 0.183508 0.921969 0.620017
N9_3 N 0.1149(2) 0.94832(7) 0.52745(13)
N10_3 N 0.1050(3) 0.96304(8) 0.40041(14)
N11_3 N 0.1874(3) 0.99378(8) 0.43764(14)
H25_3 H 0.042533 0.886675 0.329216
C36_3 C 0.0635(3) 0.93598(8) 0.45554(15)
C37_3 C 0.1924(3) 0.98459(8) 0.51333(16)
H15_3 H 0.590884 0.032266 0.006025
N4_3 N 0.8950(3) 0.96304(8) 0.09959(14)
N5_3 N 0.8126(3) 0.99378(8) 0.06236(14)
H10_3 H 0.957467 0.886675 0.170784
C15_3 C 0.9365(3) 0.93598(8) 0.04446(15)
N2_3 N 0.8949(3) 0.92340(9) 0.90320(15)
H3_3 H 0.921867 0.897286 0.915216
H4_3 H 0.816492 0.921969 0.879983
N3_3 N 0.8851(2) 0.94832(7) 0.97255(13)
C16_3 C 0.8076(3) 0.98459(8) 0.98667(16)
O6_4 O 0.99014(16) 0.76300(5) 0.87612(9)
C7_4 C 0.9912(2) 0.75600(7) 0.94967(13)
C8_4 C 0.8186(2) 0.81433(8) 0.97366(14)
H6_4 H 0.828020 0.824206 0.920823
N2_4 N 0.1051(3) 0.07660(9) 0.09680(15)
H3_4 H 0.078133 0.102714 0.084784
H4_4 H 0.183508 0.078031 0.120017
N3_4 N 0.1149(2) 0.05168(7) 0.02745(13)
C16_4 C 0.1924(3) 0.01541(8) 0.01333(16)
N4_4 N 0.1050(3) 0.03696(8) 0.90041(14)
N5_4 N 0.1874(3) 0.00622(8) 0.93764(14)
H10_4 H 0.042533 0.113325 0.829216
C15_4 C 0.0635(3) 0.06402(8) 0.95554(15)
H15_4 H 0.409116 0.967734 0.993975
N8_4 N 0.8949(3) 0.07660(9) 0.40320(15)
H18_4 H 0.921867 0.102714 0.415216
H19_4 H 0.816492 0.078031 0.379983
N9_4 N 0.8851(2) 0.05168(7) 0.47255(13)
N10_4 N 0.8950(3) 0.03696(8) 0.59959(14)
N11_4 N 0.8126(3) 0.00622(8) 0.56236(14)
H25_4 H 0.957467 0.113325 0.670784
C36_4 C 0.9365(3) 0.06402(8) 0.54446(15)
C37_4 C 0.8076(3) 0.01541(8) 0.48667(16)
loop_
_geom_bond_atom_site_label_1
_geom_bond_atom_site_label_2
_geom_bond_site_symmetry_1
_geom_bond_site_symmetry_2
N2 H3 1_555 1_555
H4 N2 1_555 1_555
N3 N2 1_555 1_555
N6 C19 1_555 1_555
C16 N3 1_555 1_555
C17 C16 1_555 1_555
C18 C17 1_555 1_555
H12 C18 1_555 1_555
C19 C18 1_555 1_555
H13 C19 1_555 1_555
C20 N6 1_555 1_555
C21 C17 1_555 1_555
Ni5 N6 1_555 1_555
C20 C21 1_555 1_555
O2 Ni5 1_555 1_555
Ni3 O12 1_555 1_555
O8 Ni5 1_555 1_555
O10 C25 1_555 1_555
O11 C25 1_555 1_555
O12 C28 1_555 1_555
O13 Ni3 1_555 1_555
O14 Ni3 1_555 1_555
H16 O14 1_555 1_555
H17 O14 1_555 1_555
N7 Ni3 1_555 1_555
C22 O8 1_555 1_555
C23 C22 1_555 1_555
C24 C23 1_555 1_555
C25 C24 1_555 1_555
C26 C24 1_555 1_555
H20 C26 1_555 1_555
C27 C26 1_555 1_555
C28 O13 1_555 1_555
C29 C27 1_555 1_555
H21 C29 1_555 1_555
C30 C23 1_555 1_555
H22 C30 1_555 1_555
C31 N7 1_555 1_555
H23 C31 1_555 1_555
C32 C31 1_555 1_555
H24 C32 1_555 1_555
C33 C32 1_555 1_555
C34 C33 1_555 1_555
C35 N7 1_555 1_555
H26 C35 1_555 1_555
Ni6 O2 1_555 1_555
O16 Ni3 1_555 1_555
O17 Ni3 1_555 1_555
O10 Ni6 1_555 1_555
C27 C28 1_555 1_555
C29 C30 1_555 1_555
C34 C35 1_555 1_555
Ni2 O5 1_555 1_555
O5 C7 1_555 1_555
O6 Ni2 1_555 1_555
O7 Ni2 1_555 1_555
H1 O7 1_555 1_555
H2 O7 1_555 1_555
N1 Ni2 1_555 1_555
C7 O6 1_555 1_555
H6 C8 1_555 1_555
C10 N1 1_555 1_555
C11 C10 1_555 1_555
C12 C11 1_555 1_555
C13 C12 1_555 1_555
C14 N1 1_555 1_555
H11 C14 1_555 1_555
O15 Ni2 1_555 1_555
O18 Ni2 1_555 1_555
C13 C14 1_555 1_555
Ni6 O5_2 1_555 1_555
O7_2 Ni6 1_555 1_555
H1_2 O7_2 1_555 1_555
H2_2 O7_2 1_555 1_555
N1_2 Ni6 1_555 1_555
N4 N5 1_555 1_555
C10_2 N1_2 1_555 1_555
C11_2 C10_2 1_555 1_555
C12_2 C11_2 1_555 1_555
C13_2 C12_2 1_555 1_555
H10 C13_2 1_555 1_555
C14_2 N1_2 1_555 1_555
H11_2 C14_2 1_555 1_555
N4 C15 1_555 1_555
C12_2 C15 1_555 1_555
C13_2 C14_2 1_555 1_555
Ni1 O1 1_555 1_555
O1 C1 1_555 1_555
O15 Ni1 1_555 1_555
O17 C4 1_555 1_555
O4 C4 1_555 1_555
C1 O15 1_555 1_555
C2 C1 1_555 1_555
C3 C2 1_555 1_555
C4 C3 1_555 1_555
C5 C3 1_555 1_555
H5 C5 1_555 1_555
C6 C5 1_555 1_555
C9 C2 1_555 1_555
H7 C9 1_555 1_555
O8_2 Ni1 1_555 1_555
O16 Ni1 1_555 1_555
O18 C25_2 1_555 1_555
O11_2 C25_2 1_555 1_555
C22_2 O8_2 1_555 1_555
C23_2 C22_2 1_555 1_555
C24_2 C23_2 1_555 1_555
C25_2 C24_2 1_555 1_555
C26_2 C24_2 1_555 1_555
H20_2 C26_2 1_555 1_555
C27_2 C26_2 1_555 1_555
C28_2 O13_2 1_555 1_555
C29_2 C27_2 1_555 1_555
H21_2 C29_2 1_555 1_555
C30_2 C23_2 1_555 1_555
H22_2 C30_2 1_555 1_555
N13 Ni1 1_555 1_555
N14 Ni1 1_555 1_555
O16 C22_2 1_555 1_555
C27_2 C28_2 1_555 1_555
C29_2 C30_2 1_555 1_555
N13 C19_2 1_555 1_555
C18_2 C17_2 1_555 1_555
H12_2 C18_2 1_555 1_555
C19_2 C18_2 1_555 1_555
H13_2 C19_2 1_555 1_555
C20_2 N13 1_555 1_555
H14 C20_2 1_555 1_555
C21_2 C17_2 1_555 1_555
C20_2 C21_2 1_555 1_555
N14 C40 1_555 1_555
C39 C38 1_555 1_555
H27 C39 1_555 1_555
C40 C39 1_555 1_555
H28 C40 1_555 1_555
C41 N14 1_555 1_555
H29_2 C41 1_555 1_555
C42 C38 1_555 1_555
H30 C42 1_555 1_555
C41 C42 1_555 1_555
Ni3_2 O12_2 1_555 1_555
O14_2 Ni3_2 1_555 1_555
H16_2 O14_2 1_555 1_555
H17_2 O14_2 1_555 1_555
N7_2 Ni3_2 1_555 1_555
N8 H18 1_555 1_555
H19 N8 1_555 1_555
N9 N8 1_555 1_555
N10 N11 1_555 1_555
N11 C37 1_555 1_555
N12 C40_2 1_555 1_555
C31_2 N7_2 1_555 1_555
H23_2 C31_2 1_555 1_555
C32_2 C31_2 1_555 1_555
H24_2 C32_2 1_555 1_555
C33_2 C32_2 1_555 1_555
C34_2 C33_2 1_555 1_555
H25 C34_2 1_555 1_555
C35_2 N7_2 1_555 1_555
H26_2 C35_2 1_555 1_555
C36 N9 1_555 1_555
C37 N9 1_555 1_555
C38_2 C37 1_555 1_555
C39_2 C38_2 1_555 1_555
H27_2 C39_2 1_555 1_555
C40_2 C39_2 1_555 1_555
H28_2 C40_2 1_555 1_555
C41_2 N12 1_555 1_555
C42_2 C38_2 1_555 1_555
H30_2 C42_2 1_555 1_555
Ni5_2 N12 1_555 1_555
O16_2 Ni3_2 1_555 1_555
O17_2 Ni3_2 1_555 1_555
N10 C36 1_555 1_555
C33_2 C36 1_555 1_555
C34_2 C35_2 1_555 1_555
C41_2 C42_2 1_555 1_555
Ni5_2 O1_2 1_555 1_555
O1_2 C1_2 1_555 1_555
O3 C4_2 1_555 1_555
O4_2 C4_2 1_555 1_555
C2_2 C1_2 1_555 1_555
C3_2 C2_2 1_555 1_555
C4_2 C3_2 1_555 1_555
C5_2 C3_2 1_555 1_555
H5_2 C5_2 1_555 1_555
C6_2 C5_2 1_555 1_555
C9_2 C2_2 1_555 1_555
H7_2 C9_2 1_555 1_555
O9 Ni5_2 1_555 1_555
Ni7 O3 1_555 1_555
O9 Ni7 1_555 1_555
Ni7 O12_3 1_555 1_555
O14_3 Ni7 1_555 1_555
H16_3 O14_3 1_555 1_555
H17_3 O14_3 1_555 1_555
N7_3 Ni7 1_555 1_555
N8_2 H18_2 1_555 1_555
H19_2 N8_2 1_555 1_555
N9_2 N8_2 1_555 1_555
N10_2 N11_2 1_555 1_555
N11_2 C37_2 1_555 1_555
N12_2 C40_3 1_555 1_555
C31_3 N7_3 1_555 1_555
H23_3 C31_3 1_555 1_555
C32_3 C31_3 1_555 1_555
H24_3 C32_3 1_555 1_555
C33_3 C32_3 1_555 1_555
C34_3 C33_3 1_555 1_555
H25_2 C34_3 1_555 1_555
C35_3 N7_3 1_555 1_555
H26_3 C35_3 1_555 1_555
C36_2 N9_2 1_555 1_555
C37_2 N9_2 1_555 1_555
C38_3 C37_2 1_555 1_555
C39_3 C38_3 1_555 1_555
H27_3 C39_3 1_555 1_555
C40_3 C39_3 1_555 1_555
H28_3 C40_3 1_555 1_555
C41_3 N12_2 1_555 1_555
C42_3 C38_3 1_555 1_555
H30_3 C42_3 1_555 1_555
Ni4 N12_2 1_555 1_555
N10_2 C36_2 1_555 1_555
C33_3 C36_2 1_555 1_555
C34_3 C35_3 1_555 1_555
C41_3 C42_3 1_555 1_555
Ni4 O1_3 1_555 1_555
O1_3 C1_3 1_555 1_555
O17_2 C4_3 1_555 1_555
O4_3 C4_3 1_555 1_555
C2_3 C1_3 1_555 1_555
C3_3 C2_3 1_555 1_555
C4_3 C3_3 1_555 1_555
C5_3 C3_3 1_555 1_555
H5_3 C5_3 1_555 1_555
C6_3 C5_3 1_555 1_555
C9_3 C2_3 1_555 1_555
H7_3 C9_3 1_555 1_555
O16_2 Ni4 1_555 1_555
C7_2 O6_2 1_555 1_555
H6_2 C8_2 1_555 1_555
Ni1_2 O1_4 1_555 1_555
O1_4 C1_4 1_555 1_555
O2_2 Ni1_2 1_555 1_555
O3_2 C4_4 1_555 1_555
O4_4 C4_4 1_555 1_555
C1_4 O2_2 1_555 1_555
C2_4 C1_4 1_555 1_555
C3_4 C2_4 1_555 1_555
C4_4 C3_4 1_555 1_555
C5_4 C3_4 1_555 1_555
H5_4 C5_4 1_555 1_555
C6_4 C5_4 1_555 1_555
C9_4 C2_4 1_555 1_555
H7_4 C9_4 1_555 1_555
O8_3 Ni1_2 1_555 1_555
O9_2 Ni1_2 1_555 1_555
O10_2 C25_3 1_555 1_555
O11_3 C25_3 1_555 1_555
C22_3 O8_3 1_555 1_555
C23_3 C22_3 1_555 1_555
C24_3 C23_3 1_555 1_555
C25_3 C24_3 1_555 1_555
C26_3 C24_3 1_555 1_555
H20_3 C26_3 1_555 1_555
C27_3 C26_3 1_555 1_555
C28_3 O13_3 1_555 1_555
C29_3 C27_3 1_555 1_555
H21_3 C29_3 1_555 1_555
C30_3 C23_3 1_555 1_555
H22_3 C30_3 1_555 1_555
Ni6_2 O2_2 1_555 1_555
Ni7_2 O3_2 1_555 1_555
N13_2 Ni1_2 1_555 1_555
N14_2 Ni1_2 1_555 1_555
O9_2 C22_3 1_555 1_555
O9_2 Ni7_2 1_555 1_555
O10_2 Ni6_2 1_555 1_555
C27_3 C28_3 1_555 1_555
C29_3 C30_3 1_555 1_555
Ni2_2 O5_3 1_555 1_555
O7_3 Ni2_2 1_555 1_555
H1_3 O7_3 1_555 1_555
H2_3 O7_3 1_555 1_555
N1_3 Ni2_2 1_555 1_555
N4_2 N5_2 1_555 1_555
C10_3 N1_3 1_555 1_555
C11_3 C10_3 1_555 1_555
C12_3 C11_3 1_555 1_555
C13_3 C12_3 1_555 1_555
H10_2 C13_3 1_555 1_555
C14_3 N1_3 1_555 1_555
H11_3 C14_3 1_555 1_555
O15_2 Ni2_2 1_555 1_555
O18_2 Ni2_2 1_555 1_555
N4_2 C15_2 1_555 1_555
C12_3 C15_2 1_555 1_555
C13_3 C14_3 1_555 1_555
N14_2 C40_4 1_555 1_555
C39_4 C38_4 1_555 1_555
H27_4 C39_4 1_555 1_555
C40_4 C39_4 1_555 1_555
H28_4 C40_4 1_555 1_555
C41_4 N14_2 1_555 1_555
H29_3 C41_4 1_555 1_555
C42_4 C38_4 1_555 1_555
H30_4 C42_4 1_555 1_555
C41_4 C42_4 1_555 1_555
N13_2 C19_3 1_555 1_555
C18_3 C17_3 1_555 1_555
H12_3 C18_3 1_555 1_555
C19_3 C18_3 1_555 1_555
H13_3 C19_3 1_555 1_555
C20_3 N13_2 1_555 1_555
H14_4 C20_3 1_555 1_555
C21_3 C17_3 1_555 1_555
C20_3 C21_3 1_555 1_555
N2_2 H3_2 1_555 1_555
H4_2 N2_2 1_555 1_555
N3_2 N2_2 1_555 1_555
N6_2 C19_4 1_555 1_555
C16_2 N3_2 1_555 1_555
C17_4 C16_2 1_555 1_555
C18_4 C17_4 1_555 1_555
H12_4 C18_4 1_555 1_555
C19_4 C18_4 1_555 1_555
H13_4 C19_4 1_555 1_555
C20_4 N6_2 1_555 1_555
C21_4 C17_4 1_555 1_555
Ni4_2 N6_2 1_555 1_555
C20_4 C21_4 1_555 1_555
Ni6_2 O5_4 1_555 1_555
O5_4 C7_3 1_555 1_555
O6_3 Ni6_2 1_555 1_555
O7_4 Ni6_2 1_555 1_555
H1_4 O7_4 1_555 1_555
H2_4 O7_4 1_555 1_555
N1_4 Ni6_2 1_555 1_555
C7_3 O6_3 1_555 1_555
H6_3 C8_3 1_555 1_555
C10_4 N1_4 1_555 1_555
C11_4 C10_4 1_555 1_555
C12_4 C11_4 1_555 1_555
C13_4 C12_4 1_555 1_555
C14_4 N1_4 1_555 1_555
H11_4 C14_4 1_555 1_555
C13_4 C14_4 1_555 1_555
O15_2 Ni4_2 1_555 1_555
Ni7_2 O12_4 1_555 1_555
O8_4 Ni4_2 1_555 1_555
O18_2 C25_4 1_555 1_555
O11_4 C25_4 1_555 1_555
O12_4 C28_4 1_555 1_555
O13_4 Ni7_2 1_555 1_555
O14_4 Ni7_2 1_555 1_555
H16_4 O14_4 1_555 1_555
H17_4 O14_4 1_555 1_555
N7_4 Ni7_2 1_555 1_555
C22_4 O8_4 1_555 1_555
C23_4 C22_4 1_555 1_555
C24_4 C23_4 1_555 1_555
C25_4 C24_4 1_555 1_555
C26_4 C24_4 1_555 1_555
H20_4 C26_4 1_555 1_555
C27_4 C26_4 1_555 1_555
C28_4 O13_4 1_555 1_555
C29_4 C27_4 1_555 1_555
H21_4 C29_4 1_555 1_555
C30_4 C23_4 1_555 1_555
H22_4 C30_4 1_555 1_555
C31_4 N7_4 1_555 1_555
H23_4 C31_4 1_555 1_555
C32_4 C31_4 1_555 1_555
H24_4 C32_4 1_555 1_555
C33_4 C32_4 1_555 1_555
C34_4 C33_4 1_555 1_555
C35_4 N7_4 1_555 1_555
H26_4 C35_4 1_555 1_555
C27_4 C28_4 1_555 1_555
C29_4 C30_4 1_555 1_555
C34_4 C35_4 1_555 1_555
N8_3 H18_3 1_555 1_555
H19_3 N8_3 1_555 1_555
N9_3 N8_3 1_555 1_555
N10_3 N11_3 1_555 1_555
N11_3 C37_3 1_555 1_555
C36_3 N9_3 1_555 1_555
C37_3 N9_3 1_555 1_555
N10_3 C36_3 1_555 1_555
N4_3 N5_3 1_555 1_555
N4_3 C15_3 1_555 1_555
N2_3 H3_3 1_555 1_555
H4_3 N2_3 1_555 1_555
N3_3 N2_3 1_555 1_555
C16_3 N3_3 1_555 1_555
C7_4 O6_4 1_555 1_555
H6_4 C8_4 1_555 1_555
N2_4 H3_4 1_555 1_555
H4_4 N2_4 1_555 1_555
N3_4 N2_4 1_555 1_555
C16_4 N3_4 1_555 1_555
N4_4 N5_4 1_555 1_555
N4_4 C15_4 1_555 1_555
N8_4 H18_4 1_555 1_555
H19_4 N8_4 1_555 1_555
N9_4 N8_4 1_555 1_555
N10_4 N11_4 1_555 1_555
N11_4 C37_4 1_555 1_555
C36_4 N9_4 1_555 1_555
C37_4 N9_4 1_555 1_555
N10_4 C36_4 1_555 1_555

#END
