
###############################################################################
#
# This file contains modified crystal structure data generated from the
# MOF subset of the Cambridge Structural Database (CSD) v543 
# hosted by the Cambridge Crystallographic Data Centre (CCDC).
#
# This work is licensed under the Creative Commons
# Attribution-NonCommercial-ShareAlike 4.0 International License.
# To view a copy of this license, visit
# http://creativecommons.org/licenses/by-nc-sa/4.0/
# or send a letter to
# Creative Commons, PO Box 1866, Mountain View, CA 94042, USA.
#
# CIF created using the CSD Python API on 29 September 2022
# The structure has been converted into the P1 space group
# The structure has a 3D framework
# The original CSD entry ASUJIJ is in the monoclinic crystal system
# The framework has been calculated to contain at least 10.0% void space
# The void calculation uses a probe of radius 1.32A, grid spacing 0.4
# The framework is charged, counterions have been retained in the structure
#
###############################################################################

data_ASUJIJ
_chemical_formula_moiety         '(C96 H56 N40 O32 Zn8)n'
_symmetry_cell_setting           triclinic
_symmetry_space_group_name_H-M   'P 1'
_symmetry_Int_Tables_number      1
_space_group_name_Hall           'P 1'
loop_
_symmetry_equiv_pos_site_id
_symmetry_equiv_pos_as_xyz
1 x,y,z
_cell_length_a                   19.377(5)
_cell_length_b                   16.277(4)
_cell_length_c                   10.720(3)
_cell_angle_alpha                90
_cell_angle_beta                 101.384(5)
_cell_angle_gamma                90
_cell_volume                     3314.56
loop_
_atom_site_label
_atom_site_type_symbol
_atom_site_fract_x
_atom_site_fract_y
_atom_site_fract_z
N5 N 0.49797(17) 0.22724(18) 0.3294(3)
C6 C 0.1577(2) 0.0208(2) 0.2358(5)
H5 H 0.1606 0.0772 0.2490
N6 N 0.52224(19) 0.3042(2) 0.3564(3)
H6 H 0.0591 0.0085 0.2642
N7 N 0.5264(2) 0.3413(2) 0.2510(4)
C8 C 0.2815(2) 0.0223(2) 0.1947(4)
N8 N 0.50443(17) 0.28922(19) 0.1525(3)
C19 C 0.4042(2) 0.0224(2) 0.1901(4)
N10 N 0.40156(16) 0.10276(18) 0.1603(3)
C20 C 0.3414(2) 0.1448(2) 0.1531(5)
H11 H 0.3402 0.2007 0.1346
C21 C 0.2815(2) 0.1061(3) 0.1729(5)
H12 H 0.2407 0.1364 0.1715
C22 C 0.4640(2) 0.1441(2) 0.1269(4)
H13 H 0.4531 0.1588 0.0375
H14 H 0.5028 0.1054 0.1389
C23 C 0.48710(19) 0.2198(2) 0.2034(4)
Zn5 Zn 0.50095(2) 0.15312(2) 0.48128(4)
Zn7 Zn 0.50095(2) 0.34688(2) 0.98128(4)
Zn1 Zn 0.01063(2) 0.65856(3) 0.04794(4)
C1 C 0.02362(19) 0.7772(2) 0.2855(4)
N1 N 0.02197(17) 0.7639(2) 0.4071(3)
C2 C 0.0215(2) 0.8585(2) 0.2217(4)
N2 N 0.0229(2) 0.6818(2) 0.4232(4)
C3 C 0.1459(2) 0.8550(3) 0.1989(6)
H3 H 0.1418 0.7986 0.1862
N3 N 0.0240(2) 0.6463(2) 0.3149(4)
C4 C 0.2077(2) 0.8939(3) 0.1911(5)
H4 H 0.2454 0.8632 0.1745
N4 N 0.02418(17) 0.7052(2) 0.2254(3)
C5 C 0.2152(2) 0.9783(2) 0.2073(4)
C7 C 0.0969(2) 0.9796(2) 0.2445(4)
C9 C 0.3453(2) 0.9812(2) 0.2075(4)
H7 H 0.3481 0.9256 0.2279
N9 N 0.09130(17) 0.89763(19) 0.2247(3)
H10 H 0.4467 0.9944 0.1989
Zn4 Zn 0.01063(2) 0.84144(3) 0.54794(4)
O10 O 0.08056(14) 0.57541(18) 0.0347(3)
N11 N 0.02197(17) 0.7361(2) 0.9071(3)
Zn2 Zn 0.49905(2) 0.65312(2) 0.01872(4)
H1 H 0.9931 0.8955 0.2617
H2 H 0.9980 0.8521 0.1336
O1 O 0.91905(14) 0.61012(18) 0.0512(3)
O3 O 0.64463(15) 0.69669(17) 0.0088(3)
O4 O 0.58185(14) 0.58570(17) 0.0328(3)
O6 O 0.59506(14) 0.39477(17) 0.0213(3)
C18 C 0.63595(19) 0.6217(2) 0.0067(4)
N12 N 0.50203(17) 0.72724(18) 0.1706(3)
C10 C 0.79958(19) 0.4613(2) 0.9342(4)
C11 C 0.7322(2) 0.4307(2) 0.9315(4)
H8 H 0.7234 0.3751 0.9167
O2 O 0.89974(17) 0.5908(2) 0.8434(3)
C12 C 0.67758(19) 0.4821(2) 0.9508(4)
C13 C 0.69165(19) 0.5652(2) 0.9769(4)
C14 C 0.75897(19) 0.5962(2) 0.9762(4)
H9 H 0.7678 0.6519 0.9902
O5 O 0.56201(15) 0.45716(19) 0.8356(3)
C15 C 0.81274(19) 0.5449(2) 0.9548(4)
C16 C 0.8569(2) 0.4017(2) 0.9209(4)
O7 O 0.84199(19) 0.3343(2) 0.8732(5)
C17 C 0.6054(2) 0.4442(2) 0.9341(4)
O8 O 0.91944(14) 0.42459(18) 0.9653(3)
C24 C 0.8834(2) 0.5833(2) 0.9483(4)
Zn3 Zn 0.98937(2) 0.34144(3) 0.95206(4)
N13 N 0.49557(17) 0.71078(19) 0.8475(3)
O9 O 0.40494(14) 0.60523(17) 0.9787(3)
H1_2 H 0.0069 0.3955 0.2383
H2_2 H 0.0020 0.3521 0.3664
O1_2 O 0.08095(14) 0.11012(18) 0.4488(3)
O2_2 O 0.10026(17) 0.0908(2) 0.6566(3)
O3_2 O 0.35537(15) 0.19669(17) 0.4912(3)
C13_2 C 0.30835(19) 0.0652(2) 0.5231(4)
O4_2 O 0.41815(14) 0.08570(17) 0.4672(3)
C14_2 C 0.24103(19) 0.0962(2) 0.5238(4)
H9_2 H 0.2322 0.1519 0.5098
C15_2 C 0.18726(19) 0.0449(2) 0.5452(4)
C18_2 C 0.36405(19) 0.1217(2) 0.4933(4)
C24_2 C 0.1166(2) 0.0833(2) 0.5517(4)
N13_2 N 0.50443(17) 0.21078(19) 0.6525(3)
O9_2 O 0.59506(14) 0.10523(17) 0.5213(3)
C10_2 C 0.20042(19) 0.9613(2) 0.5658(4)
C11_2 C 0.2678(2) 0.9307(2) 0.5685(4)
H8_2 H 0.2766 0.8751 0.5833
C12_2 C 0.32242(19) 0.9821(2) 0.5492(4)
O5_2 O 0.43799(15) 0.95716(19) 0.6644(3)
O6_2 O 0.40494(14) 0.89477(17) 0.4787(3)
C16_2 C 0.1431(2) 0.9017(2) 0.5791(4)
O7_2 O 0.15801(19) 0.8343(2) 0.6268(5)
C17_2 C 0.3946(2) 0.9442(2) 0.5659(4)
O8_2 O 0.08056(14) 0.92459(18) 0.5347(3)
Zn6 Zn 0.49905(2) 0.84688(2) 0.51872(4)
Zn1_2 Zn 0.98937(2) 0.15856(3) 0.45206(4)
C1_2 C 0.97638(19) 0.2772(2) 0.2145(4)
N1_2 N 0.97803(17) 0.2639(2) 0.0929(3)
C2_2 C 0.9785(2) 0.3585(2) 0.2783(4)
N2_2 N 0.9771(2) 0.1818(2) 0.0768(4)
C3_2 C 0.8541(2) 0.3550(3) 0.3011(6)
H3_2 H 0.8582 0.2986 0.3138
N3_2 N 0.9760(2) 0.1463(2) 0.1851(4)
C4_2 C 0.7923(2) 0.3939(3) 0.3089(5)
H4_2 H 0.7546 0.3632 0.3255
N4_2 N 0.97582(17) 0.2052(2) 0.2746(3)
C5_2 C 0.7848(2) 0.4783(2) 0.2927(4)
C6_2 C 0.8423(2) 0.5208(2) 0.2642(5)
H5_2 H 0.8394 0.5772 0.2510
N6_2 N 0.47776(19) 0.8042(2) 0.1436(3)
C7_2 C 0.9031(2) 0.4796(2) 0.2555(4)
H6_2 H 0.9409 0.5085 0.2358
N7_2 N 0.4736(2) 0.8413(2) 0.2490(4)
C8_2 C 0.7185(2) 0.5223(2) 0.3053(4)
N8_2 N 0.49557(17) 0.78922(19) 0.3475(3)
C9_2 C 0.6547(2) 0.4812(2) 0.2925(4)
H7_2 H 0.6519 0.4256 0.2721
N9_2 N 0.90870(17) 0.39763(19) 0.2753(3)
C19_2 C 0.5958(2) 0.5224(2) 0.3099(4)
H10_2 H 0.5533 0.4944 0.3011
N10_2 N 0.59844(16) 0.60276(18) 0.3397(3)
C20_2 C 0.6586(2) 0.6448(2) 0.3469(5)
H11_2 H 0.6598 0.7007 0.3654
C21_2 C 0.7185(2) 0.6061(3) 0.3271(5)
H12_2 H 0.7593 0.6364 0.3285
C22_2 C 0.5360(2) 0.6441(2) 0.3731(4)
H13_2 H 0.5469 0.6588 0.4625
H14_2 H 0.4972 0.6054 0.3611
C23_2 C 0.51290(19) 0.7198(2) 0.2966(4)
N11_2 N 0.97803(17) 0.2361(2) 0.5929(3)
O10_2 O 0.91944(14) 0.07541(18) 0.4653(3)
C10_3 C 0.20042(19) 0.5387(2) 0.0658(4)
C11_3 C 0.2678(2) 0.5693(2) 0.0685(4)
H8_3 H 0.2766 0.6249 0.0833
O2_3 O 0.10026(17) 0.4092(2) 0.1566(3)
C12_3 C 0.32242(19) 0.5179(2) 0.0492(4)
C13_3 C 0.30835(19) 0.4348(2) 0.0231(4)
C14_3 C 0.24103(19) 0.4038(2) 0.0238(4)
H9_3 H 0.2322 0.3481 0.0098
O5_3 O 0.43799(15) 0.54284(19) 0.1644(3)
C15_3 C 0.18726(19) 0.4551(2) 0.0452(4)
C16_3 C 0.1431(2) 0.5983(2) 0.0791(4)
O7_3 O 0.15801(19) 0.6657(2) 0.1268(5)
C17_3 C 0.3946(2) 0.5558(2) 0.0659(4)
C24_3 C 0.1166(2) 0.4167(2) 0.0517(4)
H1_3 H 0.0069 0.1045 0.7383
H2_3 H 0.0020 0.1479 0.8664
O1_3 O 0.08095(14) 0.38988(18) 0.9488(3)
O3_3 O 0.35537(15) 0.30331(17) 0.9912(3)
O4_3 O 0.41815(14) 0.41430(17) 0.9672(3)
C18_3 C 0.36405(19) 0.3783(2) 0.9933(4)
N12_2 N 0.49797(17) 0.27276(18) 0.8294(3)
C1_3 C 0.97638(19) 0.2228(2) 0.7145(4)
C2_3 C 0.9785(2) 0.1415(2) 0.7783(4)
N2_3 N 0.9771(2) 0.3182(2) 0.5768(4)
C3_3 C 0.8541(2) 0.1450(3) 0.8011(6)
H3_3 H 0.8582 0.2014 0.8138
N3_3 N 0.9760(2) 0.3537(2) 0.6851(4)
C4_3 C 0.7923(2) 0.1061(3) 0.8089(5)
H4_3 H 0.7546 0.1368 0.8255
N4_3 N 0.97582(17) 0.2948(2) 0.7746(3)
C5_3 C 0.7848(2) 0.0217(2) 0.7927(4)
C7_3 C 0.9031(2) 0.0204(2) 0.7555(4)
C9_3 C 0.6547(2) 0.0188(2) 0.7925(4)
H7_3 H 0.6519 0.0744 0.7721
N9_3 N 0.90870(17) 0.10237(19) 0.7753(3)
H10_3 H 0.5533 0.0056 0.8011
N5_2 N 0.50203(17) 0.77276(18) 0.6706(3)
C6_3 C 0.8423(2) 0.9792(2) 0.7642(5)
H5_3 H 0.8394 0.9228 0.7510
N6_3 N 0.47776(19) 0.6958(2) 0.6436(3)
H6_3 H 0.9409 0.9915 0.7358
N7_3 N 0.4736(2) 0.6587(2) 0.7490(4)
C8_3 C 0.7185(2) 0.9777(2) 0.8053(4)
C19_3 C 0.5958(2) 0.9776(2) 0.8099(4)
N10_3 N 0.59844(16) 0.89724(18) 0.8397(3)
C20_3 C 0.6586(2) 0.8552(2) 0.8469(5)
H11_3 H 0.6598 0.7993 0.8654
C21_3 C 0.7185(2) 0.8939(3) 0.8271(5)
H12_3 H 0.7593 0.8636 0.8285
C22_3 C 0.5360(2) 0.8559(2) 0.8731(4)
H13_3 H 0.5469 0.8412 0.9625
H14_3 H 0.4972 0.8946 0.8611
C23_3 C 0.51290(19) 0.7802(2) 0.7966(4)
C1_4 C 0.02362(19) 0.7228(2) 0.7855(4)
C2_4 C 0.0215(2) 0.6415(2) 0.7217(4)
N2_4 N 0.0229(2) 0.8182(2) 0.9232(4)
C3_4 C 0.1459(2) 0.6450(3) 0.6989(6)
H3_4 H 0.1418 0.7014 0.6862
N3_4 N 0.0240(2) 0.8537(2) 0.8149(4)
C4_4 C 0.2077(2) 0.6061(3) 0.6911(5)
H4_4 H 0.2454 0.6368 0.6745
N4_4 N 0.02418(17) 0.7948(2) 0.7254(3)
C5_4 C 0.2152(2) 0.5217(2) 0.7073(4)
C6_4 C 0.1577(2) 0.4792(2) 0.7358(5)
H5_4 H 0.1606 0.4228 0.7490
N6_4 N 0.52224(19) 0.1958(2) 0.8564(3)
C7_4 C 0.0969(2) 0.5204(2) 0.7445(4)
H6_4 H 0.0591 0.4915 0.7642
N7_4 N 0.5264(2) 0.1587(2) 0.7510(4)
C8_4 C 0.2815(2) 0.4777(2) 0.6947(4)
C9_4 C 0.3453(2) 0.5188(2) 0.7075(4)
H7_4 H 0.3481 0.5744 0.7279
N9_4 N 0.09130(17) 0.60237(19) 0.7247(3)
C19_4 C 0.4042(2) 0.4776(2) 0.6901(4)
H10_4 H 0.4467 0.5056 0.6989
N10_4 N 0.40156(16) 0.39724(18) 0.6603(3)
C20_4 C 0.3414(2) 0.3552(2) 0.6531(5)
H11_4 H 0.3402 0.2993 0.6346
C21_4 C 0.2815(2) 0.3939(3) 0.6729(5)
H12_4 H 0.2407 0.3636 0.6715
C22_4 C 0.4640(2) 0.3559(2) 0.6269(4)
H13_4 H 0.4531 0.3412 0.5375
H14_4 H 0.5028 0.3946 0.6389
C23_4 C 0.48710(19) 0.2802(2) 0.7034(4)
C10_4 C 0.79958(19) 0.0387(2) 0.4342(4)
C11_4 C 0.7322(2) 0.0693(2) 0.4315(4)
H8_4 H 0.7234 0.1249 0.4167
C12_4 C 0.67758(19) 0.0179(2) 0.4508(4)
O5_4 O 0.56201(15) 0.04284(19) 0.3356(3)
C16_4 C 0.8569(2) 0.0983(2) 0.4209(4)
O7_4 O 0.84199(19) 0.1657(2) 0.3732(5)
C17_4 C 0.6054(2) 0.0558(2) 0.4341(4)
H1_4 H 0.9931 0.6045 0.7617
H2_4 H 0.9980 0.6479 0.6336
O1_4 O 0.91905(14) 0.88988(18) 0.5512(3)
O2_4 O 0.89974(17) 0.9092(2) 0.3434(3)
O3_4 O 0.64463(15) 0.80331(17) 0.5088(3)
C13_4 C 0.69165(19) 0.9348(2) 0.4769(4)
O4_4 O 0.58185(14) 0.91430(17) 0.5328(3)
C14_4 C 0.75897(19) 0.9038(2) 0.4762(4)
H9_4 H 0.7678 0.8481 0.4902
C15_4 C 0.81274(19) 0.9551(2) 0.4548(4)
C18_4 C 0.63595(19) 0.8783(2) 0.5067(4)
C24_4 C 0.8834(2) 0.9167(2) 0.4483(4)
loop_
_geom_bond_atom_site_label_1
_geom_bond_atom_site_label_2
_geom_bond_site_symmetry_1
_geom_bond_site_symmetry_2
N5 N6 1_555 1_555
H5 C6 1_555 1_555
N6 N7 1_555 1_555
N7 N8 1_555 1_555
N8 C23 1_555 1_555
N10 C19 1_555 1_555
C20 N10 1_555 1_555
H11 C20 1_555 1_555
C21 C8 1_555 1_555
H12 C21 1_555 1_555
C22 N10 1_555 1_555
H13 C22 1_555 1_555
H14 C22 1_555 1_555
C23 N5 1_555 1_555
Zn5 N5 1_555 1_555
C20 C21 1_555 1_555
C22 C23 1_555 1_555
Zn1 N4 1_555 1_555
C1 N1 1_555 1_555
N1 N2 1_555 1_555
C2 C1 1_555 1_555
N2 N3 1_555 1_555
C3 H3 1_555 1_555
N3 N4 1_555 1_555
C4 C3 1_555 1_555
H4 C4 1_555 1_555
N4 C1 1_555 1_555
C5 C4 1_555 1_555
H7 C9 1_555 1_555
N9 C2 1_555 1_555
Zn4 N1 1_555 1_555
O10 Zn1 1_555 1_555
C3 N9 1_555 1_555
C7 N9 1_555 1_555
Zn2 O4 1_555 1_555
O3 C18 1_555 1_555
O4 C18 1_555 1_555
N12 Zn2 1_555 1_555
C10 C11 1_555 1_555
C11 H8 1_555 1_555
O2 C24 1_555 1_555
C12 C11 1_555 1_555
C13 C12 1_555 1_555
C14 C13 1_555 1_555
H9 C14 1_555 1_555
O5 C17 1_555 1_555
C15 C10 1_555 1_555
C16 C10 1_555 1_555
O7 C16 1_555 1_555
C17 C12 1_555 1_555
O8 C16 1_555 1_555
Zn3 O8 1_555 1_555
C14 C15 1_555 1_555
C15 C24 1_555 1_555
Zn5 O4_2 1_555 1_555
O2_2 C24_2 1_555 1_555
O3_2 C18_2 1_555 1_555
O4_2 C18_2 1_555 1_555
C14_2 C13_2 1_555 1_555
H9_2 C14_2 1_555 1_555
C18_2 C13_2 1_555 1_555
C24_2 O1_2 1_555 1_555
N13_2 Zn5 1_555 1_555
O9_2 Zn5 1_555 1_555
C14_2 C15_2 1_555 1_555
C15_2 C24_2 1_555 1_555
C10_2 C11_2 1_555 1_555
C11_2 H8_2 1_555 1_555
C12_2 C11_2 1_555 1_555
O5_2 C17_2 1_555 1_555
O6_2 C17_2 1_555 1_555
C16_2 C10_2 1_555 1_555
O7_2 C16_2 1_555 1_555
C17_2 C12_2 1_555 1_555
O8_2 C16_2 1_555 1_555
Zn4 O8_2 1_555 1_555
Zn6 O6_2 1_555 1_555
Zn1_2 N4_2 1_555 1_555
C1_2 N1_2 1_555 1_555
N1_2 N2_2 1_555 1_555
C2_2 C1_2 1_555 1_555
N2_2 N3_2 1_555 1_555
C3_2 H3_2 1_555 1_555
N3_2 N4_2 1_555 1_555
C4_2 C3_2 1_555 1_555
H4_2 C4_2 1_555 1_555
N4_2 C1_2 1_555 1_555
C5_2 C4_2 1_555 1_555
N12 N6_2 1_555 1_555
C6_2 C5_2 1_555 1_555
H5_2 C6_2 1_555 1_555
N6_2 N7_2 1_555 1_555
C7_2 C6_2 1_555 1_555
H6_2 C7_2 1_555 1_555
N7_2 N8_2 1_555 1_555
C8_2 C5_2 1_555 1_555
N8_2 C23_2 1_555 1_555
C9_2 C8_2 1_555 1_555
H7_2 C9_2 1_555 1_555
N9_2 C2_2 1_555 1_555
C19_2 C9_2 1_555 1_555
H10_2 C19_2 1_555 1_555
N10_2 C19_2 1_555 1_555
C20_2 N10_2 1_555 1_555
H11_2 C20_2 1_555 1_555
C21_2 C8_2 1_555 1_555
H12_2 C21_2 1_555 1_555
C22_2 N10_2 1_555 1_555
H13_2 C22_2 1_555 1_555
H14_2 C22_2 1_555 1_555
C23_2 N12 1_555 1_555
Zn6 N8_2 1_555 1_555
N11_2 Zn1_2 1_555 1_555
O10_2 Zn1_2 1_555 1_555
C3_2 N9_2 1_555 1_555
C7_2 N9_2 1_555 1_555
C20_2 C21_2 1_555 1_555
C22_2 C23_2 1_555 1_555
C10_3 C11_3 1_555 1_555
C11_3 H8_3 1_555 1_555
O2_3 C24_3 1_555 1_555
C12_3 C11_3 1_555 1_555
C13_3 C12_3 1_555 1_555
C14_3 C13_3 1_555 1_555
H9_3 C14_3 1_555 1_555
O5_3 C17_3 1_555 1_555
C15_3 C10_3 1_555 1_555
C16_3 C10_3 1_555 1_555
O7_3 C16_3 1_555 1_555
C17_3 C12_3 1_555 1_555
O10 C16_3 1_555 1_555
C14_3 C15_3 1_555 1_555
C15_3 C24_3 1_555 1_555
Zn7 O4_3 1_555 1_555
O3_3 C18_3 1_555 1_555
O4_3 C18_3 1_555 1_555
N12_2 Zn7 1_555 1_555
Zn3 N4_3 1_555 1_555
C1_3 N11_2 1_555 1_555
N11_2 N2_3 1_555 1_555
C2_3 C1_3 1_555 1_555
N2_3 N3_3 1_555 1_555
C3_3 H3_3 1_555 1_555
N3_3 N4_3 1_555 1_555
C4_3 C3_3 1_555 1_555
H4_3 C4_3 1_555 1_555
N4_3 C1_3 1_555 1_555
C5_3 C4_3 1_555 1_555
H7_3 C9_3 1_555 1_555
N9_3 C2_3 1_555 1_555
C3_3 N9_3 1_555 1_555
C7_3 N9_3 1_555 1_555
N5_2 N6_3 1_555 1_555
H5_3 C6_3 1_555 1_555
N6_3 N7_3 1_555 1_555
N7_3 N13 1_555 1_555
N13 C23_3 1_555 1_555
N10_3 C19_3 1_555 1_555
C20_3 N10_3 1_555 1_555
H11_3 C20_3 1_555 1_555
C21_3 C8_3 1_555 1_555
H12_3 C21_3 1_555 1_555
C22_3 N10_3 1_555 1_555
H13_3 C22_3 1_555 1_555
H14_3 C22_3 1_555 1_555
C23_3 N5_2 1_555 1_555
Zn6 N5_2 1_555 1_555
C20_3 C21_3 1_555 1_555
C22_3 C23_3 1_555 1_555
Zn4 N4_4 1_555 1_555
C1_4 N11 1_555 1_555
N11 N2_4 1_555 1_555
C2_4 C1_4 1_555 1_555
N2_4 N3_4 1_555 1_555
C3_4 H3_4 1_555 1_555
N3_4 N4_4 1_555 1_555
C4_4 C3_4 1_555 1_555
H4_4 C4_4 1_555 1_555
N4_4 C1_4 1_555 1_555
C5_4 C4_4 1_555 1_555
N12_2 N6_4 1_555 1_555
C6_4 C5_4 1_555 1_555
H5_4 C6_4 1_555 1_555
N6_4 N7_4 1_555 1_555
C7_4 C6_4 1_555 1_555
H6_4 C7_4 1_555 1_555
N7_4 N13_2 1_555 1_555
C8_4 C5_4 1_555 1_555
N13_2 C23_4 1_555 1_555
C9_4 C8_4 1_555 1_555
H7_4 C9_4 1_555 1_555
N9_4 C2_4 1_555 1_555
C19_4 C9_4 1_555 1_555
H10_4 C19_4 1_555 1_555
N10_4 C19_4 1_555 1_555
C20_4 N10_4 1_555 1_555
H11_4 C20_4 1_555 1_555
C21_4 C8_4 1_555 1_555
H12_4 C21_4 1_555 1_555
C22_4 N10_4 1_555 1_555
H13_4 C22_4 1_555 1_555
H14_4 C22_4 1_555 1_555
C23_4 N12_2 1_555 1_555
C3_4 N9_4 1_555 1_555
C7_4 N9_4 1_555 1_555
C20_4 C21_4 1_555 1_555
C22_4 C23_4 1_555 1_555
C10_4 C11_4 1_555 1_555
C11_4 H8_4 1_555 1_555
C12_4 C11_4 1_555 1_555
O5_4 C17_4 1_555 1_555
O9_2 C17_4 1_555 1_555
C16_4 C10_4 1_555 1_555
O7_4 C16_4 1_555 1_555
C17_4 C12_4 1_555 1_555
O10_2 C16_4 1_555 1_555
Zn6 O4_4 1_555 1_555
O2_4 C24_4 1_555 1_555
O3_4 C18_4 1_555 1_555
O4_4 C18_4 1_555 1_555
C14_4 C13_4 1_555 1_555
H9_4 C14_4 1_555 1_555
C18_4 C13_4 1_555 1_555
C24_4 O1_4 1_555 1_555
C14_4 C15_4 1_555 1_555
C15_4 C24_4 1_555 1_555

#END
