
###############################################################################
#
# This file contains modified crystal structure data generated from the
# MOF subset of the Cambridge Structural Database (CSD) v543 
# hosted by the Cambridge Crystallographic Data Centre (CCDC).
#
# This work is licensed under the Creative Commons
# Attribution-NonCommercial-ShareAlike 4.0 International License.
# To view a copy of this license, visit
# http://creativecommons.org/licenses/by-nc-sa/4.0/
# or send a letter to
# Creative Commons, PO Box 1866, Mountain View, CA 94042, USA.
#
# CIF created using the CSD Python API on 29 September 2022
# The structure has been converted into the P1 space group
# The structure has a 3D framework
# The original CSD entry ASUWUI is in the triclinic crystal system
# The framework has been calculated to contain at least 10.0% void space
# The void calculation uses a probe of radius 1.32A, grid spacing 0.4
#
###############################################################################

data_ASUWUI
_chemical_formula_moiety         '(C152 H100 N24 O26 Zn8)n'
_symmetry_cell_setting           triclinic
_symmetry_space_group_name_H-M   'P 1'
_symmetry_Int_Tables_number      1
_space_group_name_Hall           'P 1'
loop_
_symmetry_equiv_pos_site_id
_symmetry_equiv_pos_as_xyz
1 x,y,z
_cell_length_a                   14.9953(12)
_cell_length_b                   17.5335(17)
_cell_length_c                   20.2381(11)
_cell_angle_alpha                115.225(7)
_cell_angle_beta                 92.329(5)
_cell_angle_gamma                105.606(8)
_cell_volume                     4561.92
loop_
_atom_site_label
_atom_site_type_symbol
_atom_site_fract_x
_atom_site_fract_y
_atom_site_fract_z
O2 O 0.6952(3) 0.5131(3) 0.2789(2)
O4 O 0.5571(3) 0.4958(2) 0.3159(2)
N7 N 0.4140(3) 0.0444(3) 0.1001(2)
C2 C 0.6333(4) 0.2337(4) 0.1805(4)
H3 H 0.6800 0.2066 0.1731
C8 C 0.6130(4) 0.4655(4) 0.2788(4)
C14 C 0.5710(4) 0.0342(4) 0.0955(3)
H11 H 0.6355 0.0628 0.1050
C21 C 0.6567(4) 0.3268(4) 0.2209(4)
H16 H 0.7193 0.3612 0.2411
C26 C 0.5891(4) 0.3670(4) 0.2308(3)
C27 C 0.5072(4) 0.0840(3) 0.1139(3)
C30 C 0.5392(4) 0.1829(4) 0.1517(3)
C40 C 0.4722(4) 0.2265(4) 0.1604(3)
H29 H 0.4095 0.1932 0.1396
C51 C 0.4962(4) 0.3166(4) 0.1986(4)
H35 H 0.4502 0.3443 0.2031
H36 H 0.2495 0.0325 0.1000
Zn6 Zn 0.73128(4) 0.63995(4) 0.34736(4)
Zn2 Zn 0.79710(5) 0.70182(4) 0.94255(4)
O1 O 0.6401(3) 0.4316(3) 0.5802(2)
O5 O 0.7527(3) 0.5810(3) 0.9291(3)
O7 O 0.5487(3) 0.4242(3) 0.4880(2)
N3 N 0.4640(3) 0.1147(3) 0.7835(3)
N5 N 0.8159(3) 0.7140(3) 0.7399(3)
N8 N 0.7505(3) 0.6323(3) 0.7153(3)
N10 N 0.7182(3) 0.7822(3) 0.9916(3)
N12 N 0.7909(3) 0.6892(3) 0.8372(3)
H4 H 0.6075 0.6903 0.9920
O10 O 0.6093(4) 0.5634(3) 0.8850(4)
C5 C 0.5395(4) 0.2907(4) 0.4934(3)
C6 C 0.4716(4) 0.1053(3) 0.4405(3)
C9 C 0.4103(4) 0.1520(4) 0.4379(3)
H7 H 0.3465 0.1221 0.4191
C10 C 0.5666(4) 0.1514(3) 0.4703(3)
H8 H 0.6083 0.1210 0.4712
C12 C 0.5910(4) 0.0173(4) 0.7599(3)
C13 C 0.4454(4) 0.2432(4) 0.4636(3)
H10 H 0.4044 0.2736 0.4607
H12 H 0.7712 0.0560 0.7435
C17 C 0.4348(4) 0.0080(3) 0.4129(3)
C18 C 0.7372(4) 0.6202(4) 0.7745(3)
H13 H 0.6953 0.5693 0.7731
C22 C 0.5578(4) 0.1562(4) 0.8024(3)
C25 C 0.5891(4) 0.2547(4) 0.8338(3)
C29 C 0.5775(4) 0.3892(4) 0.5217(3)
C32 C 0.6236(4) 0.1095(4) 0.7928(3)
H21 H 0.6878 0.1401 0.8083
C33 C 0.8380(4) 0.7433(4) 0.8107(3)
H22 H 0.8831 0.7977 0.8410
C42 C 0.6797(4) 0.3031(4) 0.8363(4)
H30 H 0.7234 0.2736 0.8194
C44 C 0.4333(4) 0.0257(4) 0.7541(4)
C48 C 0.5238(4) 0.2994(4) 0.8551(4)
H32 H 0.4620 0.2684 0.8533
H33 H 0.1035 0.7348 0.9930
C50 C 0.5985(4) 0.2438(4) 0.4989(3)
H34 H 0.6609 0.2748 0.5222
C54 C 0.7066(4) 0.3928(4) 0.8628(5)
H38 H 0.7691 0.4236 0.8663
C55 C 0.5516(5) 0.3924(4) 0.8798(4)
H39 H 0.5073 0.4221 0.8928
C60 C 0.6433(5) 0.4391(4) 0.8847(4)
C62 C 0.6700(5) 0.5335(5) 0.9035(5)
C68 C 0.2723(4) 0.0213(3) 0.7036(4)
H45 H 0.2999 0.0742 0.7014
H46 H 0.1379 0.0081 0.6698
Zn9 Zn 0.85808(5) 0.77813(4) 0.67850(4)
Zn10 Zn 0.68762(5) 0.55697(4) 0.60739(4)
O17 O 0.9292(3) 0.7410(4) 0.9863(3)
O3 O 0.5669(3) 0.5960(2) 0.6306(2)
H1 H 0.5446 0.6049 0.5949
H2 H 0.5807 0.6455 0.6718
N1 N 0.6419(3) 0.7082(3) 0.3448(3)
N2 N 0.7218(3) 0.6212(3) 0.5453(3)
N4 N 0.7799(3) 0.8627(3) 0.7130(3)
N6 N 0.3412(3) 0.9721(3) 0.4043(3)
N9 N 0.7922(3) 0.7009(3) 0.5715(3)
N11 N 0.7436(3) 0.6518(3) 0.4521(3)
C1 C 0.5205(4) 0.8100(4) 0.3622(3)
C4 C 0.5529(4) 0.6719(4) 0.3138(4)
H5 H 0.5298 0.6104 0.2860
C7 C 0.4906(4) 0.7204(4) 0.3200(4)
H6 H 0.4286 0.6912 0.2952
C11 C 0.4937(4) 0.9554(3) 0.3968(3)
H9 H 0.5581 0.9812 0.4018
C15 C 0.7490(4) 0.9984(4) 0.7382(3)
C19 C 0.3611(4) 0.8281(4) 0.3619(3)
H14 H 0.3338 0.7671 0.3436
C20 C 0.8076(4) 0.9468(4) 0.7230(3)
H15 H 0.8694 0.9715 0.7197
C24 C 0.4567(4) 0.8644(3) 0.3734(3)
O12 O 0.8285(4) 0.5304(4) 0.5866(4)
H17 H 0.8816 0.5655 0.5727
H18 H 0.8481 0.4821 0.5901
C28 C 0.4935(4) 0.9749(4) 0.7412(3)
H19 H 0.4693 0.9133 0.7204
C34 C 0.6130(4) 0.8479(4) 0.3982(4)
H23 H 0.6361 0.9087 0.4295
C35 C 0.6906(4) 0.8298(4) 0.7198(3)
H24 H 0.6693 0.7716 0.7132
C36 C 0.6295(4) 0.8790(4) 0.7364(3)
H25 H 0.5689 0.8536 0.7416
C37 C 0.6949(4) 0.5953(4) 0.4749(3)
H26 H 0.6470 0.5431 0.4442
C38 C 0.8027(4) 0.7166(4) 0.5143(3)
H27 H 0.8461 0.7671 0.5164
C41 C 0.6562(4) 0.9646(4) 0.7455(3)
C46 C 0.3039(4) 0.8840(4) 0.3780(3)
C53 C 0.6721(4) 0.7967(4) 0.3884(4)
H37 H 0.7344 0.8242 0.4126
C64 C 0.1341(2) 0.9025(4) 0.6880(4)
C65 C 0.1900(3) 0.8630(3) 0.7103(3)
H43 H 0.1624 0.8101 0.7125
C66 C 0.2871(3) 0.9027(3) 0.7292(3)
H44 H 0.3245 0.8763 0.7441
C67 C 0.3282(2) 0.9818(3) 0.7259(3)
C69 C 0.1753(4) 0.9816(4) 0.6847(4)
C70 C 0.0296(6) 0.8645(7) 0.6767(7)
C71 C 0.0552(3) 0.8757(3) 0.4038(4)
H47 H 0.0233 0.9151 0.4292
C72 C 0.1517(3) 0.9068(2) 0.4072(4)
H48 H 0.1844 0.9670 0.4349
C73 C 0.1993(2) 0.8478(3) 0.3693(3)
C74 C 0.1504(3) 0.7578(2) 0.3280(3)
H49 H 0.1822 0.7184 0.3026
C75 C 0.0539(3) 0.7267(2) 0.3245(3)
H50 H 0.0211 0.6664 0.2969
C76 C 0.0063(2) 0.7856(3) 0.3625(4)
O18 O 0.8585(3) 0.6739(4) 0.3269(3)
O19 O 0.9927(4) 0.8064(5) 0.6924(4)
O9 O 0.9379(4) 0.8602(4) 0.9766(3)
C63 C 0.9736(5) 0.8147(5) 0.9934(5)
O11 O 0.8724(3) 0.8065(4) 0.4160(3)
C58 C 0.9033(5) 0.7516(5) 0.3631(5)
O14 O 0.9751(5) 0.8867(5) 0.6412(5)
C3 C 0.6297(5) 0.7497(4) 0.0020(4)
C16 C 0.5355(4) 0.9421(4) 0.0632(3)
C23 C 0.2755(4) 0.9182(4) 0.0559(3)
C31 C 0.7460(5) 0.8677(4) 0.0080(4)
H20 H 0.8069 0.8926 0.0030
C39 C 0.4390(4) 0.9026(4) 0.0506(3)
H28 H 0.4134 0.8411 0.0302
C43 C 0.3804(4) 0.9562(4) 0.0690(3)
C45 C 0.0797(4) 0.8530(5) 0.0222(4)
C47 C 0.5716(5) 0.8013(4) 0.0269(4)
H31 H 0.5118 0.7762 0.0337
C49 C 0.1338(5) 0.7953(5) 0.0109(5)
C52 C 0.2204(5) 0.9714(5) 0.0736(4)
C56 C 0.2304(5) 0.8270(4) 0.0257(4)
H40 H 0.2653 0.7881 0.0158
C57 C 0.6910(4) 0.9217(4) 0.0320(4)
H41 H 0.7145 0.9810 0.0417
C59 C 0.6005(4) 0.8885(4) 0.0417(3)
C61 C 0.1249(5) 0.9405(5) 0.0548(5)
H42 H 0.0910 0.9803 0.0647
O8 O 0.1415(3) 0.3261(4) 0.6731(3)
O11_2 O 0.1276(3) 0.1935(4) 0.5840(3)
C58_2 C 0.0967(5) 0.2484(5) 0.6369(5)
O13 O 0.0073(4) 0.1936(5) 0.3076(4)
O14_2 O 0.0249(5) 0.1133(5) 0.3588(5)
Zn5 Zn 0.26872(4) 0.36005(4) 0.65264(4)
Zn8 Zn 0.14192(5) 0.22187(4) 0.32150(4)
O6 O 0.0708(3) 0.2590(4) 0.0137(3)
O9_2 O 0.0621(4) 0.1398(4) 0.0234(3)
C63_2 C 0.0264(5) 0.1853(5) 0.0066(5)
Zn7 Zn 0.20290(5) 0.29818(4) 0.05745(4)
Zn4 Zn 0.31238(5) 0.44303(4) 0.39261(4)
O3_2 O 0.4331(3) 0.4040(2) 0.3694(2)
H1_2 H 0.4554 0.3951 0.4051
H2_2 H 0.4193 0.3545 0.3282
N1_2 N 0.3581(3) 0.2918(3) 0.6552(3)
N2_2 N 0.2782(3) 0.3788(3) 0.4547(3)
N4_2 N 0.2201(3) 0.1373(3) 0.2870(3)
N6_2 N 0.6588(3) 0.0279(3) 0.5957(3)
N9_2 N 0.2078(3) 0.2991(3) 0.4285(3)
N11_2 N 0.2564(3) 0.3482(3) 0.5479(3)
C1_2 C 0.4795(4) 0.1900(4) 0.6378(3)
C4_2 C 0.4471(4) 0.3281(4) 0.6862(4)
H5_2 H 0.4702 0.3896 0.7140
C7_2 C 0.5094(4) 0.2796(4) 0.6800(4)
H6_2 H 0.5714 0.3088 0.7048
C11_2 C 0.5063(4) 0.0446(3) 0.6032(3)
H9_2 H 0.4419 0.0188 0.5982
C15_2 C 0.2510(4) 0.0016(4) 0.2618(3)
C19_2 C 0.6389(4) 0.1719(4) 0.6381(3)
H14_2 H 0.6662 0.2329 0.6564
C20_2 C 0.1924(4) 0.0532(4) 0.2770(3)
H15_2 H 0.1306 0.0285 0.2803
C24_2 C 0.5433(4) 0.1356(3) 0.6266(3)
O12_2 O 0.1715(4) 0.4696(4) 0.4134(4)
H17_2 H 0.1184 0.4345 0.4273
H18_2 H 0.1519 0.5179 0.4099
C28_2 C 0.5065(4) 0.0251(4) 0.2588(3)
H19_2 H 0.5307 0.0867 0.2796
C34_2 C 0.3870(4) 0.1521(4) 0.6018(4)
H23_2 H 0.3639 0.0913 0.5705
C35_2 C 0.3094(4) 0.1702(4) 0.2802(3)
H24_2 H 0.3307 0.2284 0.2868
C36_2 C 0.3705(4) 0.1210(4) 0.2636(3)
H25_2 H 0.4311 0.1464 0.2584
C37_2 C 0.3051(4) 0.4047(4) 0.5251(3)
H26_2 H 0.3530 0.4569 0.5558
C38_2 C 0.1973(4) 0.2834(4) 0.4857(3)
H27_2 H 0.1539 0.2329 0.4836
C41_2 C 0.3438(4) 0.0354(4) 0.2545(3)
C46_2 C 0.6961(4) 0.1160(4) 0.6220(3)
C53_2 C 0.3279(4) 0.2033(4) 0.6116(4)
H37_2 H 0.2656 0.1758 0.5874
C64_2 C 0.8659(2) 0.0975(4) 0.3120(4)
C65_2 C 0.8100(3) 0.1370(3) 0.2897(3)
H43_2 H 0.8376 0.1899 0.2875
C66_2 C 0.7129(3) 0.0973(3) 0.2708(3)
H44_2 H 0.6755 0.1237 0.2559
C67_2 C 0.6718(2) 0.0182(3) 0.2741(3)
C69_2 C 0.8247(4) 0.0184(4) 0.3153(4)
C70_2 C 0.9704(6) 0.1355(7) 0.3233(7)
C71_2 C 0.9448(3) 0.1243(3) 0.5962(4)
H47_2 H 0.9767 0.0849 0.5708
C72_2 C 0.8483(3) 0.0932(2) 0.5928(4)
H48_2 H 0.8156 0.0330 0.5651
C73_2 C 0.8007(2) 0.1522(3) 0.6307(3)
C74_2 C 0.8496(3) 0.2422(2) 0.6720(3)
H49_2 H 0.8178 0.2816 0.6974
C75_2 C 0.9461(3) 0.2733(2) 0.6755(3)
H50_2 H 0.9789 0.3336 0.7031
C76_2 C 0.9937(2) 0.2144(3) 0.6375(4)
O15 O 0.3599(3) 0.5684(3) 0.4198(2)
O16 O 0.3048(3) 0.4869(3) 0.7211(2)
N13 N 0.1841(3) 0.2860(3) 0.2601(3)
N14 N 0.2495(3) 0.3677(3) 0.2847(3)
O5_2 O 0.2473(3) 0.4190(3) 0.0709(3)
O7_2 O 0.4513(3) 0.5758(3) 0.5120(2)
N3_2 N 0.5360(3) 0.8853(3) 0.2165(3)
N10_2 N 0.2818(3) 0.2178(3) 0.0084(3)
N12_2 N 0.2091(3) 0.3108(3) 0.1628(3)
H4_2 H 0.3925 0.3097 0.0080
O10_2 O 0.3907(4) 0.4366(3) 0.1150(4)
C5_2 C 0.4605(4) 0.7093(4) 0.5066(3)
C6_2 C 0.5284(4) 0.8947(3) 0.5595(3)
C9_2 C 0.5897(4) 0.8480(4) 0.5621(3)
H7_2 H 0.6535 0.8779 0.5809
C10_2 C 0.4334(4) 0.8486(3) 0.5297(3)
H8_2 H 0.3917 0.8790 0.5288
C12_2 C 0.4090(4) 0.9827(4) 0.2401(3)
C13_2 C 0.5546(4) 0.7568(4) 0.5364(3)
H10_2 H 0.5956 0.7264 0.5393
H12_2 H 0.2288 0.9440 0.2565
C17_2 C 0.5652(4) 0.9920(3) 0.5871(3)
C18_2 C 0.2628(4) 0.3798(4) 0.2255(3)
H13_2 H 0.3047 0.4307 0.2269
C22_2 C 0.4422(4) 0.8438(4) 0.1976(3)
C25_2 C 0.4109(4) 0.7453(4) 0.1662(3)
C29_2 C 0.4225(4) 0.6108(4) 0.4783(3)
C32_2 C 0.3764(4) 0.8905(4) 0.2072(3)
H21_2 H 0.3122 0.8599 0.1917
C33_2 C 0.1620(4) 0.2567(4) 0.1893(3)
H22_2 H 0.1169 0.2023 0.1590
C42_2 C 0.3203(4) 0.6969(4) 0.1637(4)
H30_2 H 0.2766 0.7264 0.1806
C44_2 C 0.5667(4) 0.9743(4) 0.2459(4)
C48_2 C 0.4762(4) 0.7006(4) 0.1449(4)
H32_2 H 0.5380 0.7316 0.1467
H33_2 H 0.8965 0.2652 0.0070
C50_2 C 0.4015(4) 0.7562(4) 0.5011(3)
H34_2 H 0.3391 0.7252 0.4778
C54_2 C 0.2934(4) 0.6072(4) 0.1372(5)
H38_2 H 0.2309 0.5764 0.1337
C55_2 C 0.4484(5) 0.6076(4) 0.1202(4)
H39_2 H 0.4927 0.5779 0.1072
C60_2 C 0.3567(5) 0.5609(4) 0.1153(4)
C62_2 C 0.3300(5) 0.4665(5) 0.0965(5)
C68_2 C 0.7277(4) 0.9787(3) 0.2964(4)
H45_2 H 0.7001 0.9258 0.2986
H46_2 H 0.8621 0.9919 0.3302
O4_2 O 0.4429(3) 0.5042(2) 0.6841(2)
N7_2 N 0.5860(3) 0.9556(3) 0.8999(2)
C2_2 C 0.3667(4) 0.7663(4) 0.8195(4)
H3_2 H 0.3200 0.7934 0.8269
C8_2 C 0.3870(4) 0.5345(4) 0.7212(4)
C14_2 C 0.4290(4) 0.9658(4) 0.9045(3)
H11_2 H 0.3645 0.9372 0.8950
C21_2 C 0.3433(4) 0.6732(4) 0.7791(4)
H16_2 H 0.2807 0.6388 0.7589
C26_2 C 0.4109(4) 0.6330(4) 0.7692(3)
C27_2 C 0.4928(4) 0.9160(3) 0.8861(3)
C30_2 C 0.4608(4) 0.8171(4) 0.8483(3)
C40_2 C 0.5278(4) 0.7735(4) 0.8396(3)
H29_2 H 0.5905 0.8068 0.8604
C51_2 C 0.5038(4) 0.6834(4) 0.8014(4)
H35_2 H 0.5498 0.6557 0.7969
H36_2 H 0.7505 0.9675 0.9000
C3_2 C 0.3703(5) 0.2503(4) 0.9980(4)
C16_2 C 0.4645(4) 0.0579(4) 0.9368(3)
C23_2 C 0.7245(4) 0.0818(4) 0.9441(3)
C31_2 C 0.2540(5) 0.1323(4) 0.9920(4)
H20_2 H 0.1931 0.1074 0.9970
C39_2 C 0.5610(4) 0.0974(4) 0.9494(3)
H28_2 H 0.5866 0.1589 0.9698
C43_2 C 0.6196(4) 0.0438(4) 0.9310(3)
C45_2 C 0.9203(4) 0.1470(5) 0.9778(4)
C47_2 C 0.4284(5) 0.1987(4) 0.9731(4)
H31_2 H 0.4882 0.2238 0.9663
C49_2 C 0.8662(5) 0.2047(5) 0.9891(5)
C52_2 C 0.7796(5) 0.0286(5) 0.9264(4)
C56_2 C 0.7696(5) 0.1730(4) 0.9743(4)
H40_2 H 0.7347 0.2119 0.9842
C57_2 C 0.3090(4) 0.0783(4) 0.9680(4)
H41_2 H 0.2855 0.0190 0.9583
C59_2 C 0.3995(4) 0.1115(4) 0.9583(3)
C61_2 C 0.8751(5) 0.0595(5) 0.9452(5)
H42_2 H 0.9090 0.0197 0.9353
loop_
_geom_bond_atom_site_label_1
_geom_bond_atom_site_label_2
_geom_bond_site_symmetry_1
_geom_bond_site_symmetry_2
O2 C8 1_555 1_555
O4 C8 1_555 1_555
N7 C27 1_555 1_555
C2 H3 1_555 1_555
C8 C26 1_555 1_555
C14 H11 1_555 1_555
C21 C2 1_555 1_555
H16 C21 1_555 1_555
C26 C21 1_555 1_555
C27 C14 1_555 1_555
C30 C2 1_555 1_555
C40 C30 1_555 1_555
H29 C40 1_555 1_555
C51 C26 1_555 1_555
H35 C51 1_555 1_555
Zn6 O2 1_555 1_555
C27 C30 1_555 1_555
C40 C51 1_555 1_555
Zn2 O5 1_555 1_555
O1 C29 1_555 1_555
O5 C62 1_555 1_555
O7 C29 1_555 1_555
N3 C22 1_555 1_555
N5 N8 1_555 1_555
N8 C18 1_555 1_555
N10 Zn2 1_555 1_555
N12 Zn2 1_555 1_555
O10 C62 1_555 1_555
C5 C13 1_555 1_555
C6 C9 1_555 1_555
C9 H7 1_555 1_555
C10 C6 1_555 1_555
H8 C10 1_555 1_555
C13 C9 1_555 1_555
H10 C13 1_555 1_555
C17 C6 1_555 1_555
C18 N12 1_555 1_555
H13 C18 1_555 1_555
C22 C25 1_555 1_555
C25 C42 1_555 1_555
C29 C5 1_555 1_555
C32 C12 1_555 1_555
H21 C32 1_555 1_555
C33 N5 1_555 1_555
H22 C33 1_555 1_555
C42 H30 1_555 1_555
C44 N3 1_555 1_555
C48 C25 1_555 1_555
H32 C48 1_555 1_555
C50 C5 1_555 1_555
H34 C50 1_555 1_555
C54 C42 1_555 1_555
H38 C54 1_555 1_555
C55 C48 1_555 1_555
H39 C55 1_555 1_555
C60 C54 1_555 1_555
C62 C60 1_555 1_555
H45 C68 1_555 1_555
Zn9 N5 1_555 1_555
Zn10 O1 1_555 1_555
O17 Zn2 1_555 1_555
N8 Zn10 1_555 1_555
N12 C33 1_555 1_555
C10 C50 1_555 1_555
C22 C32 1_555 1_555
C55 C60 1_555 1_555
Zn6 N1 1_555 1_555
Zn9 N4 1_555 1_555
Zn10 O3 1_555 1_555
O3 H1 1_555 1_555
H2 O3 1_555 1_555
N1 C4 1_555 1_555
N2 Zn10 1_555 1_555
N4 C20 1_555 1_555
N9 Zn9 1_555 1_555
N11 Zn6 1_555 1_555
C1 C7 1_555 1_555
C4 H5 1_555 1_555
C7 C4 1_555 1_555
H6 C7 1_555 1_555
C11 H9 1_555 1_555
C19 H14 1_555 1_555
C20 C15 1_555 1_555
H15 C20 1_555 1_555
C24 C1 1_555 1_555
O12 Zn10 1_555 1_555
H17 O12 1_555 1_555
H18 O12 1_555 1_555
C28 H19 1_555 1_555
C34 C1 1_555 1_555
H23 C34 1_555 1_555
C35 N4 1_555 1_555
H24 C35 1_555 1_555
C36 C35 1_555 1_555
H25 C36 1_555 1_555
C37 N2 1_555 1_555
H26 C37 1_555 1_555
C38 N9 1_555 1_555
H27 C38 1_555 1_555
C46 N6 1_555 1_555
C53 N1 1_555 1_555
H37 C53 1_555 1_555
C64 C65 1_555 1_555
C65 H43 1_555 1_555
C66 C65 1_555 1_555
H44 C66 1_555 1_555
C69 C64 1_555 1_555
C70 C64 1_555 1_555
C71 H47 1_555 1_555
C72 C71 1_555 1_555
H48 C72 1_555 1_555
C73 C46 1_555 1_555
C74 C73 1_555 1_555
H49 C74 1_555 1_555
C75 C74 1_555 1_555
H50 C75 1_555 1_555
C76 C71 1_555 1_555
O18 Zn6 1_555 1_555
O19 Zn9 1_555 1_555
N2 N9 1_555 1_555
N11 C37 1_555 1_555
N11 C38 1_555 1_555
C11 C24 1_555 1_555
C15 C41 1_555 1_555
C19 C24 1_555 1_555
C19 C46 1_555 1_555
C34 C53 1_555 1_555
C36 C41 1_555 1_555
C66 C67 1_555 1_555
C72 C73 1_555 1_555
C75 C76 1_555 1_555
O17 C63 1_555 1_555
O9 C63 1_555 1_555
O18 C58 1_555 1_555
O11 C58 1_555 1_555
C23 C43 1_555 1_555
H20 C31 1_555 1_555
C39 C16 1_555 1_555
H28 C39 1_555 1_555
C45 C49 1_555 1_555
C47 C3 1_555 1_555
H31 C47 1_555 1_555
C52 C23 1_555 1_555
C56 C23 1_555 1_555
H40 C56 1_555 1_555
C57 C31 1_555 1_555
H41 C57 1_555 1_555
C59 C16 1_555 1_555
C61 C45 1_555 1_555
H42 C61 1_555 1_555
C39 C43 1_555 1_555
C47 C59 1_555 1_555
C49 C56 1_555 1_555
C52 C61 1_555 1_555
C57 C59 1_555 1_555
O8 C58_2 1_555 1_555
O11_2 C58_2 1_555 1_555
Zn5 O8 1_555 1_555
Zn8 O13 1_555 1_555
O6 C63_2 1_555 1_555
O9_2 C63_2 1_555 1_555
Zn7 O6 1_555 1_555
Zn5 N1_2 1_555 1_555
Zn8 N4_2 1_555 1_555
Zn4 O3_2 1_555 1_555
O3_2 H1_2 1_555 1_555
H2_2 O3_2 1_555 1_555
N1_2 C4_2 1_555 1_555
N2_2 Zn4 1_555 1_555
N4_2 C20_2 1_555 1_555
N9_2 Zn8 1_555 1_555
N11_2 Zn5 1_555 1_555
C1_2 C7_2 1_555 1_555
C4_2 H5_2 1_555 1_555
C7_2 C4_2 1_555 1_555
H6_2 C7_2 1_555 1_555
C11_2 H9_2 1_555 1_555
C19_2 H14_2 1_555 1_555
C20_2 C15_2 1_555 1_555
H15_2 C20_2 1_555 1_555
C24_2 C1_2 1_555 1_555
O12_2 Zn4 1_555 1_555
H17_2 O12_2 1_555 1_555
H18_2 O12_2 1_555 1_555
C28_2 H19_2 1_555 1_555
C34_2 C1_2 1_555 1_555
H23_2 C34_2 1_555 1_555
C35_2 N4_2 1_555 1_555
H24_2 C35_2 1_555 1_555
C36_2 C35_2 1_555 1_555
H25_2 C36_2 1_555 1_555
C37_2 N2_2 1_555 1_555
H26_2 C37_2 1_555 1_555
C38_2 N9_2 1_555 1_555
H27_2 C38_2 1_555 1_555
C46_2 N6_2 1_555 1_555
C53_2 N1_2 1_555 1_555
H37_2 C53_2 1_555 1_555
C64_2 C65_2 1_555 1_555
C65_2 H43_2 1_555 1_555
C66_2 C65_2 1_555 1_555
H44_2 C66_2 1_555 1_555
C69_2 C64_2 1_555 1_555
C70_2 C64_2 1_555 1_555
C71_2 H47_2 1_555 1_555
C72_2 C71_2 1_555 1_555
H48_2 C72_2 1_555 1_555
C73_2 C46_2 1_555 1_555
C74_2 C73_2 1_555 1_555
H49_2 C74_2 1_555 1_555
C75_2 C74_2 1_555 1_555
H50_2 C75_2 1_555 1_555
C76_2 C71_2 1_555 1_555
O15 Zn4 1_555 1_555
O16 Zn5 1_555 1_555
N13 Zn8 1_555 1_555
N14 Zn4 1_555 1_555
N2_2 N9_2 1_555 1_555
N11_2 C37_2 1_555 1_555
N11_2 C38_2 1_555 1_555
C11_2 C24_2 1_555 1_555
C15_2 C41_2 1_555 1_555
C19_2 C24_2 1_555 1_555
C19_2 C46_2 1_555 1_555
C34_2 C53_2 1_555 1_555
C36_2 C41_2 1_555 1_555
C66_2 C67_2 1_555 1_555
C72_2 C73_2 1_555 1_555
C75_2 C76_2 1_555 1_555
N13 N14 1_555 1_555
Zn7 O5_2 1_555 1_555
O15 C29_2 1_555 1_555
O5_2 C62_2 1_555 1_555
O7_2 C29_2 1_555 1_555
N3_2 C22_2 1_555 1_555
N14 C18_2 1_555 1_555
N10_2 Zn7 1_555 1_555
N12_2 Zn7 1_555 1_555
O10_2 C62_2 1_555 1_555
C5_2 C13_2 1_555 1_555
C6_2 C9_2 1_555 1_555
C9_2 H7_2 1_555 1_555
C10_2 C6_2 1_555 1_555
H8_2 C10_2 1_555 1_555
C13_2 C9_2 1_555 1_555
H10_2 C13_2 1_555 1_555
C17_2 C6_2 1_555 1_555
C18_2 N12_2 1_555 1_555
H13_2 C18_2 1_555 1_555
C22_2 C25_2 1_555 1_555
C25_2 C42_2 1_555 1_555
C29_2 C5_2 1_555 1_555
C32_2 C12_2 1_555 1_555
H21_2 C32_2 1_555 1_555
C33_2 N13 1_555 1_555
H22_2 C33_2 1_555 1_555
C42_2 H30_2 1_555 1_555
C44_2 N3_2 1_555 1_555
C48_2 C25_2 1_555 1_555
H32_2 C48_2 1_555 1_555
C50_2 C5_2 1_555 1_555
H34_2 C50_2 1_555 1_555
C54_2 C42_2 1_555 1_555
H38_2 C54_2 1_555 1_555
C55_2 C48_2 1_555 1_555
H39_2 C55_2 1_555 1_555
C60_2 C54_2 1_555 1_555
C62_2 C60_2 1_555 1_555
H45_2 C68_2 1_555 1_555
N12_2 C33_2 1_555 1_555
C10_2 C50_2 1_555 1_555
C22_2 C32_2 1_555 1_555
C55_2 C60_2 1_555 1_555
O16 C8_2 1_555 1_555
O4_2 C8_2 1_555 1_555
N7_2 C27_2 1_555 1_555
C2_2 H3_2 1_555 1_555
C8_2 C26_2 1_555 1_555
C14_2 H11_2 1_555 1_555
C21_2 C2_2 1_555 1_555
H16_2 C21_2 1_555 1_555
C26_2 C21_2 1_555 1_555
C27_2 C14_2 1_555 1_555
C30_2 C2_2 1_555 1_555
C40_2 C30_2 1_555 1_555
H29_2 C40_2 1_555 1_555
C51_2 C26_2 1_555 1_555
H35_2 C51_2 1_555 1_555
C27_2 C30_2 1_555 1_555
C40_2 C51_2 1_555 1_555
C23_2 C43_2 1_555 1_555
H20_2 C31_2 1_555 1_555
C39_2 C16_2 1_555 1_555
H28_2 C39_2 1_555 1_555
C45_2 C49_2 1_555 1_555
C47_2 C3_2 1_555 1_555
H31_2 C47_2 1_555 1_555
C52_2 C23_2 1_555 1_555
C56_2 C23_2 1_555 1_555
H40_2 C56_2 1_555 1_555
C57_2 C31_2 1_555 1_555
H41_2 C57_2 1_555 1_555
C59_2 C16_2 1_555 1_555
C61_2 C45_2 1_555 1_555
H42_2 C61_2 1_555 1_555
C39_2 C43_2 1_555 1_555
C47_2 C59_2 1_555 1_555
C49_2 C56_2 1_555 1_555
C52_2 C61_2 1_555 1_555
C57_2 C59_2 1_555 1_555

#END
