
###############################################################################
#
# This file contains modified crystal structure data generated from the
# MOF subset of the Cambridge Structural Database (CSD) v543 
# hosted by the Cambridge Crystallographic Data Centre (CCDC).
#
# This work is licensed under the Creative Commons
# Attribution-NonCommercial-ShareAlike 4.0 International License.
# To view a copy of this license, visit
# http://creativecommons.org/licenses/by-nc-sa/4.0/
# or send a letter to
# Creative Commons, PO Box 1866, Mountain View, CA 94042, USA.
#
# CIF created using the CSD Python API on 29 September 2022
# The structure has been converted into the P1 space group
# The structure has a 3D framework
# The original CSD entry ATAHUA is in the orthorhombic crystal system
# The original CSD entry ATAHUA is in a Sohncke space group
# The framework has been calculated to contain at least 10.0% void space
# The void calculation uses a probe of radius 1.32A, grid spacing 0.4
#
###############################################################################

data_ATAHUA
_chemical_formula_moiety         '(C280 H192 Cd12 N32 O48)n'
_symmetry_cell_setting           triclinic
_symmetry_space_group_name_H-M   'P 1'
_symmetry_Int_Tables_number      1
_space_group_name_Hall           'P 1'
loop_
_symmetry_equiv_pos_site_id
_symmetry_equiv_pos_as_xyz
1 x,y,z
_cell_length_a                   11.6274(18)
_cell_length_b                   19.663(4)
_cell_length_c                   32.678(6)
_cell_angle_alpha                90
_cell_angle_beta                 90
_cell_angle_gamma                90
_cell_volume                     7471.16
loop_
_atom_site_label
_atom_site_type_symbol
_atom_site_fract_x
_atom_site_fract_y
_atom_site_fract_z
C54 C 0.0083(13) 0.5773(6) 0.4531(3)
H36 H 0.0396 0.5744 0.4270
C55 C 0.0235(15) 0.6360(5) 0.4762(4)
H37 H 0.0651 0.6723 0.4656
Cd2 Cd 0.03569(10) 0.80645(5) 0.59527(4)
O10 O 0.053(2) 0.7499(7) 0.5282(5)
N9 N 0.2065(14) 0.7887(9) 0.6252(5)
N10 N 0.0969(12) 0.3550(8) 0.3464(3)
N11 N 0.0806(10) 0.2878(6) 0.4493(4)
N12 N 0.0873(15) 0.9050(7) 0.5610(5)
C3 C 0.0038(15) 0.6151(9) 0.0254(5)
H1 H 0.0591 0.5820 0.0305
C21 C 0.0123(14) 0.6759(7) 0.0480(5)
H12 H 0.0673 0.6829 0.0683
Cd4 Cd 0.02593(10) 0.84194(5) 0.09827(3)
C7 C 0.5636(19) 0.4113(15) 0.7710(9)
C8 C 0.9213(11) 0.3592(6) 0.7006(4)
C9 C 0.6732(12) 0.5940(8) 0.7002(4)
C12 C 0.4452(8) 0.4044(6) 0.8356(4)
H6 H 0.5015 0.4293 0.8491
C13 C 0.3455(9) 0.3855(6) 0.8560(3)
H7 H 0.3351 0.3977 0.8833
C14 C 0.2612(7) 0.3482(6) 0.8358(3)
C15 C 0.2767(9) 0.3300(7) 0.7951(4)
H8 H 0.2204 0.3050 0.7816
C16 C 0.3765(10) 0.3489(8) 0.7746(3)
H9 H 0.3868 0.3367 0.7474
C17 C 0.4607(8) 0.3862(7) 0.7948(3)
C19 C 0.8561(13) 0.5735(8) 0.6755(5)
H11 H 0.8737 0.5341 0.6582
C22 C 0.9744(15) 0.4618(9) 0.8067(5)
H13 H 0.9956 0.4205 0.7950
H15 H 0.9511 0.3381 0.6226
C33 C 0.3015(17) 0.7796(14) 0.6050(8)
H22 H 0.3055 0.8018 0.5799
C34 C 0.4014(17) 0.7404(14) 0.6156(7)
H23 H 0.4571 0.7265 0.5970
C35 C 0.4044(17) 0.7253(9) 0.6580(5)
C36 C 0.3083(17) 0.7428(12) 0.6832(6)
H24 H 0.3105 0.7314 0.7108
C37 C 0.2146(15) 0.7750(9) 0.6685(6)
H25 H 0.1558 0.7882 0.6861
C40 C 0.9713(8) 0.6526(5) 0.7211(4)
H27 H 0.9149 0.6857 0.7179
C41 C 0.9622(7) 0.5912(5) 0.7002(3)
C46 C 0.5665(16) 0.5945(12) 0.7219(6)
H31 H 0.5540 0.5672 0.7447
C48 C 0.4992(14) 0.6819(11) 0.6738(5)
C49 C 0.4854(14) 0.6365(9) 0.7075(5)
H33 H 0.4143 0.6360 0.7205
C56 C 0.1479(15) 0.3317(9) 0.8585(7)
C64 C 0.8030(13) 0.6266(10) 0.6498(5)
H43 H 0.7947 0.6109 0.6218
H44 H 0.8490 0.6677 0.6499
C66 C 0.6045(16) 0.6840(11) 0.6551(5)
H46 H 0.6202 0.7143 0.6340
C68 C 0.9205(15) 0.5814(9) 0.8407(6)
H47 H 0.8990 0.6226 0.8525
C69 C 0.8504(16) 0.5517(9) 0.8094(5)
H48 H 0.7854 0.5744 0.8000
Cd3 Cd 0.76444(9) 0.45339(6) 0.74018(4)
N4 N 0.7630(11) 0.5531(7) 0.7061(4)
N6 N 0.6854(11) 0.6393(8) 0.6691(4)
N7 N 0.8780(12) 0.4935(7) 0.7944(4)
O1 O 0.1448(11) 0.3491(8) 0.8952(4)
O2 O 0.0729(11) 0.3033(7) 0.8399(5)
O4 O 0.5929(15) 0.3830(11) 0.7423(6)
O5 O 0.8517(11) 0.4068(8) 0.6816(4)
O6 O 0.8901(11) 0.3611(7) 0.7376(4)
O7 O 0.6204(12) 0.4527(10) 0.7850(6)
C44 C 0.001(3) 0.2014(12) 0.9570(8)
C50 C 0.0233(16) 0.1404(5) 0.9847(4)
C51 C 0.0854(16) 0.0861(7) 0.9688(4)
H34 H 0.1168 0.0891 0.9426
C52 C 0.1007(13) 0.0274(6) 0.9919(4)
O9 O 0.019(2) 0.1993(8) 0.9215(5)
C1 C 0.0600(11) 0.9608(8) 0.0580(6)
C2 C 0.0867(15) 0.0336(9) 0.5232(5)
C4 C 0.1993(14) 0.4275(8) 0.2997(5)
H2 H 0.2110 0.4710 0.2894
C6 C 0.153(2) 0.3084(11) 0.3301(7)
H4 H 0.1392 0.2647 0.3400
C7_2 C 0.9364(19) 0.5887(15) 0.2710(9)
C8_2 C 0.5787(11) 0.6408(6) 0.2006(4)
C9_2 C 0.8268(12) 0.4060(8) 0.2002(4)
C10 C 0.0716(12) 0.2259(8) 0.4631(4)
C11 C 0.1470(13) 0.1495(8) 0.5126(4)
H5 H 0.2012 0.1431 0.5332
H6_2 H 0.9985 0.5707 0.3491
C18 C 0.1224(17) 0.4183(9) 0.3317(5)
H10 H 0.0873 0.4561 0.3434
C19_2 C 0.6439(13) 0.4265(8) 0.1755(5)
H11_2 H 0.6263 0.4659 0.1582
C20 C 0.2588(12) 0.3738(8) 0.2829(5)
C22_2 C 0.5256(15) 0.5382(9) 0.3067(5)
H13_2 H 0.5044 0.5795 0.2950
C23 C 0.3088(9) 0.7353(6) 0.1475(4)
C24 C 0.3963(11) 0.7112(7) 0.1224(3)
H14 H 0.3918 0.7173 0.0942
C25 C 0.4904(10) 0.6780(7) 0.1394(3)
H15_2 H 0.5489 0.6619 0.1226
C26 C 0.4970(9) 0.6689(6) 0.1815(3)
C27 C 0.4095(11) 0.6930(8) 0.2066(3)
H16 H 0.4139 0.6869 0.2348
C28 C 0.3154(9) 0.7262(8) 0.1896(3)
H17 H 0.2568 0.7423 0.2064
C29 C 0.0795(14) 0.0997(8) 0.5040(4)
C30 C 0.2360(16) 0.3142(10) 0.2976(6)
H18 H 0.2728 0.2758 0.2874
C31 C 0.2230(16) 0.2720(10) 0.5003(6)
H19 H 0.2212 0.2873 0.5285
H20 H 0.3017 0.2621 0.4926
C32 C 0.4595(15) 0.5097(7) 0.3362(5)
H21 H 0.3947 0.5334 0.3449
C38 C 0.3509(7) 0.3850(5) 0.2513(3)
C39 C 0.4353(9) 0.3355(4) 0.2466(4)
H26 H 0.4292 0.2944 0.2606
C40_2 C 0.5287(8) 0.3474(5) 0.2211(4)
H27_2 H 0.5851 0.3143 0.2179
C41_2 C 0.5378(7) 0.4088(5) 0.2002(3)
C42 C 0.4535(9) 0.4583(5) 0.2049(3)
H28 H 0.4596 0.4993 0.1910
C43 C 0.3601(8) 0.4464(5) 0.2305(3)
H29 H 0.3037 0.4795 0.2336
C46_2 C 0.9335(16) 0.4055(12) 0.2219(6)
H31_2 H 0.9460 0.4328 0.2447
C47 C 0.1464(13) 0.0205(8) 0.5596(5)
H32 H 0.1915 0.0541 0.5715
C58 C 0.4005(9) 0.3475(4) 0.3882(3)
H39 H 0.4468 0.3209 0.3714
C59 C 0.4027(8) 0.4180(5) 0.3847(3)
C60 C 0.3334(10) 0.4577(3) 0.4098(3)
H40 H 0.3349 0.5048 0.4074
C61 C 0.2620(9) 0.4269(4) 0.4385(3)
H41 H 0.2157 0.4535 0.4553
C62 C 0.2599(9) 0.3565(4) 0.4420(3)
C63 C 0.3291(11) 0.3168(3) 0.4169(4)
H42 H 0.3277 0.2697 0.4192
C64_2 C 0.6970(13) 0.3734(10) 0.1498(5)
H43_2 H 0.7053 0.3891 0.1218
H44_2 H 0.6510 0.3323 0.1499
C65 C 0.1709(16) 0.3213(9) 0.4731(5)
H45 H 0.1352 0.3570 0.4897
C66_2 C 0.8955(16) 0.3160(11) 0.1551(5)
H46_2 H 0.8798 0.2857 0.1340
C67 C 0.4814(14) 0.4504(7) 0.3533(5)
C68_2 C 0.5795(15) 0.4186(9) 0.3407(6)
H47_2 H 0.6010 0.3774 0.3525
C69_2 C 0.6496(16) 0.4483(9) 0.3094(5)
H48_2 H 0.7146 0.4256 0.3000
Cd3_2 Cd 0.73556(9) 0.54661(6) 0.24018(4)
N4_2 N 0.7370(11) 0.4469(7) 0.2061(4)
N5 N 0.1442(11) 0.2103(6) 0.4937(4)
N6_2 N 0.8146(11) 0.3607(8) 0.1691(4)
N7_2 N 0.6220(12) 0.5065(7) 0.2944(4)
O3 O 0.0281(14) 0.9583(7) 0.0914(4)
O4_2 O 0.9071(15) 0.6170(11) 0.2423(6)
O5_2 O 0.6483(11) 0.5932(8) 0.1816(4)
O6_2 O 0.6099(11) 0.6389(7) 0.2376(4)
O7_2 O 0.8796(12) 0.5473(10) 0.2850(6)
O8 O 0.0954(11) 0.9075(6) 0.0399(4)
C70 C 0.2146(15) 0.7656(10) 0.1299(5)
O11 O 0.2034(11) 0.7815(8) 0.0940(4)
O12 O 0.1234(12) 0.7775(9) 0.1484(4)
C5 C 0.1375(13) 0.9558(9) 0.5781(5)
H3 H 0.1695 0.9497 0.6039
C45 C 0.033(3) 0.9755(9) 0.5042(8)
H30 H 0.0021 0.9781 0.4780
C57 C 0.031(3) 0.9148(10) 0.5268(7)
H38 H 0.0145 0.3793 0.9831
C1_2 C 0.9400(11) 0.4608(8) 0.4420(6)
C7_3 C 0.0636(19) 0.0887(15) 0.2290(9)
C8_3 C 0.4213(11) 0.1408(6) 0.2994(4)
H6_3 H 0.0015 0.0707 0.1509
C22_3 C 0.4744(15) 0.0382(9) 0.1933(5)
H13_3 H 0.4956 0.0795 0.2050
C23_2 C 0.6912(9) 0.2353(6) 0.3525(4)
C24_2 C 0.6037(11) 0.2112(7) 0.3776(3)
H14_2 H 0.6082 0.2173 0.4058
C25_2 C 0.5096(10) 0.1780(7) 0.3606(3)
H15_3 H 0.4511 0.1619 0.3774
C26_2 C 0.5030(9) 0.1689(6) 0.3185(3)
C27_2 C 0.5905(11) 0.1930(8) 0.2934(3)
H16_2 H 0.5861 0.1869 0.2652
C28_2 C 0.6846(9) 0.2262(8) 0.3104(3)
H17_2 H 0.7432 0.2423 0.2936
C32_2 C 0.5405(15) 0.0097(7) 0.1638(5)
H21_2 H 0.6053 0.0334 0.1551
C44_2 C 0.999(3) 0.7014(12) 0.5430(8)
C50_2 C 0.9767(16) 0.6404(5) 0.5153(4)
C51_2 C 0.9146(16) 0.5861(7) 0.5312(4)
H34_2 H 0.8832 0.5891 0.5574
C52_2 C 0.8993(13) 0.5274(6) 0.5081(4)
H35 H 0.8578 0.4911 0.5188
C53 C 0.9462(12) 0.5230(5) 0.4691(3)
H40_2 H 0.6651 0.0048 0.0926
Cd1 Cd 0.97407(10) 0.34194(5) 0.40173(3)
Cd3_3 Cd 0.26444(9) 0.04661(6) 0.25982(4)
N7_3 N 0.3780(12) 0.0065(7) 0.2056(4)
O3_2 O 0.9719(14) 0.4583(7) 0.4086(4)
O4_3 O 0.0929(15) 0.1170(11) 0.2577(6)
O5_3 O 0.3517(11) 0.0932(8) 0.3184(4)
O6_3 O 0.3901(11) 0.1389(7) 0.2624(4)
O7_3 O 0.1204(12) 0.0473(10) 0.2150(6)
O8_2 O 0.9046(11) 0.4075(6) 0.4601(4)
O9_2 O 0.981(2) 0.6993(8) 0.5785(5)
C70_2 C 0.7854(15) 0.2656(10) 0.3701(5)
O11_2 O 0.7966(11) 0.2815(8) 0.4060(4)
O12_2 O 0.8766(12) 0.2775(9) 0.3516(4)
O13 O 0.8552(11) 0.8491(8) 0.6048(4)
O14 O 0.9271(11) 0.8033(7) 0.6601(5)
C4_2 C 0.8007(14) 0.9275(8) 0.2003(5)
H2_2 H 0.7890 0.9710 0.2106
C6_2 C 0.847(2) 0.8084(11) 0.1699(7)
H4_2 H 0.8608 0.7647 0.1600
C9_3 C 0.1732(12) 0.9060(8) 0.2998(4)
C10_2 C 0.9284(12) 0.7259(8) 0.0369(4)
C18_2 C 0.8776(17) 0.9183(9) 0.1683(5)
H10_2 H 0.9127 0.9561 0.1566
C19_3 C 0.3561(13) 0.9265(8) 0.3245(5)
H11_3 H 0.3737 0.9659 0.3418
C20_2 C 0.7412(12) 0.8738(8) 0.2171(5)
C30_2 C 0.7640(16) 0.8142(10) 0.2024(6)
H18_2 H 0.7272 0.7758 0.2126
H20_2 H 0.6983 0.7621 0.0074
C38_2 C 0.6491(7) 0.8850(5) 0.2487(3)
C39_2 C 0.5647(9) 0.8355(4) 0.2534(4)
H26_2 H 0.5708 0.7944 0.2394
C40_3 C 0.4713(8) 0.8474(5) 0.2789(4)
H27_3 H 0.4149 0.8143 0.2821
C41_3 C 0.4622(7) 0.9088(5) 0.2998(3)
C42_2 C 0.5465(9) 0.9583(5) 0.2951(3)
H28_2 H 0.5404 0.9993 0.3090
C43_2 C 0.6399(8) 0.9464(5) 0.2695(3)
H29_2 H 0.6963 0.9795 0.2664
H30_2 H 0.9979 0.4781 0.0220
C46_3 C 0.0665(16) 0.9055(12) 0.2781(6)
H31_3 H 0.0540 0.9328 0.2553
C58_2 C 0.5995(9) 0.8475(4) 0.1118(3)
H39_2 H 0.5532 0.8209 0.1286
C59_2 C 0.5973(8) 0.9180(5) 0.1153(3)
C60_2 C 0.6666(10) 0.9577(3) 0.0902(3)
C61_2 C 0.7380(9) 0.9269(4) 0.0615(3)
H41_2 H 0.7843 0.9535 0.0447
C62_2 C 0.7401(9) 0.8565(4) 0.0580(3)
C63_2 C 0.6709(11) 0.8168(3) 0.0831(4)
H42_2 H 0.6723 0.7697 0.0808
C64_3 C 0.3030(13) 0.8734(10) 0.3502(5)
H43_3 H 0.2947 0.8891 0.3782
H44_3 H 0.3490 0.8323 0.3501
C65_2 C 0.8291(16) 0.8213(9) 0.0269(5)
H45_2 H 0.8648 0.8570 0.0103
C66_3 C 0.1045(16) 0.8160(11) 0.3449(5)
H46_3 H 0.1202 0.7857 0.3660
C67_2 C 0.5186(14) 0.9504(7) 0.1467(5)
C68_3 C 0.4205(15) 0.9186(9) 0.1593(6)
H47_3 H 0.3990 0.8774 0.1475
C69_3 C 0.3504(16) 0.9483(9) 0.1906(5)
H48_3 H 0.2854 0.9256 0.2000
N2 N 0.9031(12) 0.8550(8) 0.1536(3)
N3 N 0.9194(10) 0.7878(6) 0.0507(4)
N4_3 N 0.2630(11) 0.9469(7) 0.2939(4)
N5_2 N 0.8558(11) 0.7103(6) 0.0063(4)
N6_3 N 0.1854(11) 0.8607(8) 0.3309(4)
C7_4 C 0.4364(19) 0.9113(15) 0.7290(9)
C8_4 C 0.0787(11) 0.8592(6) 0.7994(4)
C12_2 C 0.5548(8) 0.9044(6) 0.6644(4)
H6_4 H 0.4985 0.9293 0.6509
C13_2 C 0.6545(9) 0.8855(6) 0.6440(3)
H7_2 H 0.6649 0.8977 0.6167
C14_2 C 0.7388(7) 0.8482(6) 0.6642(3)
C15_2 C 0.7233(9) 0.8300(7) 0.7049(4)
H8_2 H 0.7796 0.8050 0.7184
C16_2 C 0.6235(10) 0.8489(8) 0.7254(3)
H9_2 H 0.6132 0.8367 0.7526
C17_2 C 0.5393(8) 0.8862(7) 0.7052(3)
C22_4 C 0.0256(15) 0.9618(9) 0.6933(5)
H13_4 H 0.0044 0.9205 0.7050
H15_4 H 0.0489 0.8381 0.8774
C56_2 C 0.8521(15) 0.8317(9) 0.6415(7)
Cd3_4 Cd 0.23556(9) 0.95339(6) 0.75982(4)
N7_4 N 0.1220(12) 0.9935(7) 0.7056(4)
O4_4 O 0.4071(15) 0.8830(11) 0.7577(6)
O5_4 O 0.1483(11) 0.9068(8) 0.8184(4)
O6_4 O 0.1099(11) 0.8611(7) 0.7624(4)
O7_4 O 0.3796(12) 0.9527(10) 0.7150(6)
C3_2 C 0.9962(15) 0.1151(9) 0.4746(5)
H1_2 H 0.9409 0.0820 0.4695
C21_2 C 0.9877(14) 0.1759(7) 0.4520(5)
H12_2 H 0.9327 0.1829 0.4317
C2_2 C 0.9133(15) 0.5336(9) 0.9768(5)
C5_2 C 0.8625(13) 0.4558(9) 0.9219(5)
H3_2 H 0.8305 0.4497 0.8961
C11_2 C 0.8530(13) 0.6495(8) 0.9874(4)
H5_2 H 0.7988 0.6431 0.9668
C29_2 C 0.9205(14) 0.5997(8) 0.9960(4)
C31_2 C 0.7770(16) 0.7720(10) 0.9997(6)
H19_2 H 0.7788 0.7873 0.9715
C45_2 C 0.967(3) 0.4755(9) 0.9958(8)
C47_2 C 0.8536(13) 0.5205(8) 0.9404(5)
H32_2 H 0.8085 0.5541 0.9285
C57_2 C 0.969(3) 0.4148(10) 0.9732(7)
N8 N 0.9127(15) 0.4050(7) 0.9390(5)
Cd7 Cd 0.96431(10) 0.30645(5) 0.90473(4)
C9_4 C 0.3268(12) 0.0940(8) 0.7998(4)
C19_4 C 0.1439(13) 0.0735(8) 0.8245(5)
H11_4 H 0.1263 0.0341 0.8418
C33_2 C 0.6985(17) 0.2796(14) 0.8950(8)
H22_2 H 0.6945 0.3018 0.9201
C34_2 C 0.5986(17) 0.2404(14) 0.8844(7)
H23_2 H 0.5429 0.2265 0.9030
C35_2 C 0.5956(17) 0.2253(9) 0.8420(5)
C36_2 C 0.6917(17) 0.2428(12) 0.8168(6)
H24_2 H 0.6895 0.2314 0.7892
C37_2 C 0.7854(15) 0.2750(9) 0.8315(6)
H25_2 H 0.8442 0.2882 0.8139
N1 N 0.7935(14) 0.2887(9) 0.8748(5)
C40_4 C 0.0287(8) 0.1526(5) 0.7789(4)
H27_4 H 0.0851 0.1857 0.7821
C41_4 C 0.0378(7) 0.0912(5) 0.7998(3)
C46_4 C 0.4335(16) 0.0945(12) 0.7781(6)
H31_4 H 0.4460 0.0672 0.7553
C48_2 C 0.5008(14) 0.1819(11) 0.8262(5)
C49_2 C 0.5146(14) 0.1365(9) 0.7925(5)
H33_2 H 0.5857 0.1360 0.7795
C64_4 C 0.1970(13) 0.1266(10) 0.8502(5)
H43_4 H 0.2053 0.1109 0.8782
H44_4 H 0.1510 0.1677 0.8501
C66_4 C 0.3955(16) 0.1840(11) 0.8449(5)
H46_4 H 0.3798 0.2143 0.8660
C68_4 C 0.0795(15) 0.0814(9) 0.6593(6)
H47_4 H 0.1010 0.1226 0.6475
C69_4 C 0.1496(16) 0.0517(9) 0.6906(5)
H48_4 H 0.2146 0.0744 0.7000
N4_4 N 0.2370(11) 0.0531(7) 0.7939(4)
N6_4 N 0.3146(11) 0.1393(8) 0.8309(4)
O10_2 O 0.947(2) 0.2499(7) 0.9718(5)
C12_3 C 0.9452(8) 0.0956(6) 0.1644(4)
C13_3 C 0.8455(9) 0.1145(6) 0.1440(3)
H7_3 H 0.8351 0.1023 0.1167
C14_3 C 0.7612(7) 0.1518(6) 0.1642(3)
C15_3 C 0.7767(9) 0.1700(7) 0.2049(4)
H8_3 H 0.7204 0.1950 0.2184
C16_3 C 0.8765(10) 0.1511(8) 0.2254(3)
H9_3 H 0.8868 0.1633 0.2526
C17_3 C 0.9607(8) 0.1138(7) 0.2052(3)
C56_3 C 0.6479(15) 0.1683(9) 0.1415(7)
O1_2 O 0.6448(11) 0.1509(8) 0.1048(4)
O2_2 O 0.5729(11) 0.1967(7) 0.1601(5)
Cd5 Cd 0.46431(10) 0.19355(5) 0.09527(4)
C33_3 C 0.8015(17) 0.7204(14) 0.3950(8)
H22_3 H 0.8055 0.6982 0.4201
C34_3 C 0.9014(17) 0.7596(14) 0.3844(7)
H23_3 H 0.9571 0.7735 0.4030
C35_3 C 0.9044(17) 0.7747(9) 0.3420(5)
C36_3 C 0.8083(17) 0.7572(12) 0.3168(6)
H24_3 H 0.8105 0.7686 0.2892
C37_3 C 0.7146(15) 0.7250(9) 0.3315(6)
H25_3 H 0.6558 0.7118 0.3139
N1_2 N 0.7065(14) 0.7113(9) 0.3748(5)
C48_3 C 0.9992(14) 0.8181(11) 0.3262(5)
C49_3 C 0.9854(14) 0.8635(9) 0.2925(5)
H33_3 H 0.9143 0.8640 0.2795
Cd6 Cd 0.53569(10) 0.69355(5) 0.40473(4)
C2_3 C 0.5867(15) 0.4664(9) 0.4768(5)
C3_3 C 0.4962(15) 0.3849(9) 0.5254(5)
H1_3 H 0.4409 0.4180 0.5305
C4_3 C 0.6993(14) 0.0725(8) 0.7003(5)
H2_3 H 0.7110 0.0290 0.7106
C5_3 C 0.6375(13) 0.5442(9) 0.4219(5)
H3_3 H 0.6695 0.5503 0.3961
C6_3 C 0.653(2) 0.1916(11) 0.6699(7)
H4_3 H 0.6392 0.2353 0.6600
C10_3 C 0.5716(12) 0.2741(8) 0.5369(4)
C11_3 C 0.6470(13) 0.3505(8) 0.4874(4)
H5_3 H 0.7012 0.3569 0.4668
C18_3 C 0.6224(17) 0.0817(9) 0.6683(5)
H10_3 H 0.5873 0.0439 0.6566
C20_3 C 0.7588(12) 0.1262(8) 0.7171(5)
C21_3 C 0.4877(14) 0.3241(7) 0.5480(5)
H12_3 H 0.4327 0.3171 0.5683
C29_3 C 0.5795(14) 0.4003(8) 0.4960(4)
C30_3 C 0.7360(16) 0.1858(10) 0.7024(6)
H18_3 H 0.7728 0.2242 0.7126
C31_3 C 0.7230(16) 0.2280(10) 0.4997(6)
H19_3 H 0.7212 0.2127 0.4715
H20_3 H 0.8017 0.2379 0.5074
C38_3 C 0.8509(7) 0.1150(5) 0.7487(3)
C39_3 C 0.9353(9) 0.1645(4) 0.7534(4)
H26_3 H 0.9292 0.2056 0.7394
C42_3 C 0.9535(9) 0.0417(5) 0.7951(3)
H28_3 H 0.9596 0.0007 0.8090
C43_3 C 0.8601(8) 0.0536(5) 0.7695(3)
H29_3 H 0.8037 0.0205 0.7664
C45_3 C 0.533(3) 0.5245(9) 0.4958(8)
H30_3 H 0.5021 0.5219 0.5220
C47_3 C 0.6464(13) 0.4795(8) 0.4404(5)
H32_3 H 0.6915 0.4459 0.4285
C57_3 C 0.531(3) 0.5852(10) 0.4732(7)
H38_2 H 0.4855 0.6207 0.4831
C58_3 C 0.9005(9) 0.1525(4) 0.6118(3)
H39_3 H 0.9468 0.1791 0.6286
C59_3 C 0.9027(8) 0.0820(5) 0.6153(3)
C60_3 C 0.8334(10) 0.0423(3) 0.5902(3)
C61_3 C 0.7620(9) 0.0731(4) 0.5615(3)
H41_3 H 0.7157 0.0465 0.5447
C62_3 C 0.7599(9) 0.1435(4) 0.5580(3)
C63_3 C 0.8291(11) 0.1832(3) 0.5831(4)
H42_3 H 0.8277 0.2303 0.5808
C65_3 C 0.6709(16) 0.1787(9) 0.5269(5)
H45_3 H 0.6352 0.1430 0.5103
C67_3 C 0.9814(14) 0.0496(7) 0.6467(5)
N2_2 N 0.5969(12) 0.1450(8) 0.6536(3)
N3_2 N 0.5806(10) 0.2122(6) 0.5507(4)
N5_3 N 0.6442(11) 0.2897(6) 0.5063(4)
N8_2 N 0.5873(15) 0.5950(7) 0.4390(5)
Cd4_2 Cd 0.47407(10) 0.15806(5) 0.59827(3)
C44_3 C 0.501(3) 0.2986(12) 0.0430(8)
C50_3 C 0.5233(16) 0.3596(5) 0.0153(4)
C51_3 C 0.5854(16) 0.4139(7) 0.0312(4)
H34_3 H 0.6168 0.4109 0.0574
C52_3 C 0.6007(13) 0.4726(6) 0.0081(4)
H35_2 H 0.6422 0.5089 0.0188
O9_3 O 0.519(2) 0.3007(8) 0.0785(5)
O10_3 O 0.447(2) 0.2501(7) 0.0282(5)
N9_2 N 0.2935(14) 0.2113(9) 0.1252(5)
N12_2 N 0.4127(15) 0.0950(7) 0.0610(5)
C1_3 C 0.5600(11) 0.5392(8) 0.9420(6)
C23_3 C 0.8088(9) 0.7647(6) 0.8525(4)
C24_3 C 0.8963(11) 0.7888(7) 0.8776(3)
H14_3 H 0.8918 0.7827 0.9058
C25_3 C 0.9904(10) 0.8220(7) 0.8606(3)
C26_3 C 0.9970(9) 0.8311(6) 0.8185(3)
C27_3 C 0.9095(11) 0.8070(8) 0.7934(3)
H16_3 H 0.9139 0.8131 0.7652
C28_3 C 0.8154(9) 0.7738(8) 0.8104(3)
H17_3 H 0.7568 0.7577 0.7936
C32_3 C 0.9595(15) 0.9903(7) 0.6638(5)
H21_3 H 0.8947 0.9666 0.6551
C53_2 C 0.5538(12) 0.4770(5) 0.9691(3)
C54_2 C 0.4917(13) 0.4227(6) 0.9531(3)
H36_2 H 0.4604 0.4256 0.9270
C55_2 C 0.4765(15) 0.3640(5) 0.9762(4)
H37_2 H 0.4349 0.3277 0.9656
H40_3 H 0.8349 0.9952 0.5926
Cd1_2 Cd 0.52593(10) 0.65806(5) 0.90173(3)
O3_3 O 0.5281(14) 0.5417(7) 0.9086(4)
O8_3 O 0.5954(11) 0.5925(6) 0.9601(4)
C70_3 C 0.7146(15) 0.7344(10) 0.8701(5)
O11_3 O 0.7034(11) 0.7185(8) 0.9060(4)
O12_3 O 0.6234(12) 0.7225(9) 0.8516(4)
N10_2 N 0.4031(12) 0.6450(8) 0.8464(3)
N11_2 N 0.4194(10) 0.7122(6) 0.9493(4)
C5_4 C 0.3625(13) 0.0442(9) 0.0781(5)
H3_4 H 0.3305 0.0503 0.1039
C45_4 C 0.467(3) 0.0245(9) 0.0042(8)
C57_4 C 0.469(3) 0.0852(10) 0.0268(7)
H38_3 H 0.5145 0.1207 0.0169
C1_4 C 0.4400(11) 0.0392(8) 0.5580(6)
C3_4 C 0.5038(15) 0.8849(9) 0.9746(5)
H1_4 H 0.5591 0.9180 0.9695
C4_4 C 0.3007(14) 0.5725(8) 0.7997(5)
H2_4 H 0.2890 0.5290 0.7894
C6_4 C 0.347(2) 0.6916(11) 0.8301(7)
H4_4 H 0.3608 0.7353 0.8400
C10_4 C 0.4284(12) 0.7741(8) 0.9631(4)
C18_4 C 0.3776(17) 0.5817(9) 0.8317(5)
H10_4 H 0.4127 0.5439 0.8434
C20_4 C 0.2412(12) 0.6262(8) 0.7829(5)
C21_4 C 0.5123(14) 0.8241(7) 0.9520(5)
H12_4 H 0.5673 0.8171 0.9317
C23_4 C 0.1912(9) 0.2647(6) 0.6475(4)
C24_4 C 0.1037(11) 0.2888(7) 0.6224(3)
H14_4 H 0.1082 0.2827 0.5942
C25_4 C 0.0096(10) 0.3220(7) 0.6394(3)
C26_4 C 0.0030(9) 0.3311(6) 0.6815(3)
C27_4 C 0.0905(11) 0.3070(8) 0.7066(3)
H16_4 H 0.0861 0.3131 0.7348
C28_4 C 0.1846(9) 0.2738(8) 0.6896(3)
H17_4 H 0.2432 0.2577 0.7064
C30_4 C 0.2640(16) 0.6858(10) 0.7976(6)
H18_4 H 0.2272 0.7242 0.7874
H20_4 H 0.1983 0.7379 0.9926
C32_4 C 0.0405(15) 0.4903(7) 0.8362(5)
H21_4 H 0.1053 0.4666 0.8449
C38_4 C 0.1491(7) 0.6150(5) 0.7513(3)
C39_4 C 0.0647(9) 0.6645(4) 0.7466(4)
H26_4 H 0.0708 0.7056 0.7606
C42_4 C 0.0465(9) 0.5417(5) 0.7049(3)
H28_4 H 0.0404 0.5007 0.6910
C43_4 C 0.1399(8) 0.5536(5) 0.7305(3)
H29_4 H 0.1963 0.5205 0.7336
H35_3 H 0.3578 0.0089 0.4812
C58_4 C 0.0995(9) 0.6525(4) 0.8882(3)
H39_4 H 0.0532 0.6791 0.8714
C59_4 C 0.0973(8) 0.5820(5) 0.8847(3)
C60_4 C 0.1666(10) 0.5423(3) 0.9098(3)
H40_4 H 0.1651 0.4952 0.9074
C61_4 C 0.2380(9) 0.5731(4) 0.9385(3)
H41_4 H 0.2843 0.5465 0.9553
C62_4 C 0.2401(9) 0.6435(4) 0.9420(3)
C63_4 C 0.1709(11) 0.6832(3) 0.9169(4)
H42_4 H 0.1723 0.7303 0.9192
C65_4 C 0.3291(16) 0.6787(9) 0.9731(5)
H45_4 H 0.3648 0.6430 0.9897
C67_4 C 0.0186(14) 0.5496(7) 0.8533(5)
N5_4 N 0.3558(11) 0.7897(6) 0.9937(4)
O3_4 O 0.4719(14) 0.0417(7) 0.5914(4)
O8_4 O 0.4046(11) 0.0925(6) 0.5399(4)
C70_4 C 0.2854(15) 0.2344(10) 0.6299(5)
O11_4 O 0.2966(11) 0.2185(8) 0.5940(4)
O12_4 O 0.3766(12) 0.2225(9) 0.6484(4)
C44_4 C 0.499(3) 0.7986(12) 0.4570(8)
C50_4 C 0.4767(16) 0.8596(5) 0.4847(4)
C51_4 C 0.4146(16) 0.9139(7) 0.4688(4)
H34_4 H 0.3832 0.9109 0.4426
C52_4 C 0.3993(13) 0.9726(6) 0.4919(4)
C53_3 C 0.4462(12) 0.9770(5) 0.5309(3)
C54_3 C 0.5083(13) 0.9227(6) 0.5469(3)
H36_3 H 0.5396 0.9256 0.5730
C55_3 C 0.5235(15) 0.8640(5) 0.5238(4)
H37_3 H 0.5651 0.8277 0.5344
O9_4 O 0.481(2) 0.8007(8) 0.4215(5)
O10_4 O 0.553(2) 0.7501(7) 0.4718(5)
O13_2 O 0.3552(11) 0.6509(8) 0.3952(4)
O14_2 O 0.4271(11) 0.6967(7) 0.3399(5)
C12_4 C 0.0548(8) 0.5956(6) 0.3356(4)
C13_4 C 0.1545(9) 0.6145(6) 0.3560(3)
H7_4 H 0.1649 0.6023 0.3833
C14_4 C 0.2388(7) 0.6518(6) 0.3358(3)
C15_4 C 0.2233(9) 0.6700(7) 0.2951(4)
H8_4 H 0.2796 0.6950 0.2816
C16_4 C 0.1235(10) 0.6511(8) 0.2746(3)
H9_4 H 0.1132 0.6633 0.2474
C17_4 C 0.0393(8) 0.6138(7) 0.2948(3)
C33_4 C 0.1985(17) 0.2204(14) 0.1050(8)
H22_4 H 0.1945 0.1982 0.0799
C34_4 C 0.0986(17) 0.2596(14) 0.1156(7)
H23_4 H 0.0429 0.2735 0.0970
C35_4 C 0.0956(17) 0.2747(9) 0.1580(5)
C36_4 C 0.1917(17) 0.2572(12) 0.1832(6)
H24_4 H 0.1895 0.2686 0.2108
C37_4 C 0.2854(15) 0.2250(9) 0.1685(6)
H25_4 H 0.3442 0.2118 0.1861
C48_4 C 0.0008(14) 0.3181(11) 0.1738(5)
C49_4 C 0.0146(14) 0.3635(9) 0.2075(5)
H33_4 H 0.0857 0.3640 0.2205
C56_4 C 0.3521(15) 0.6683(9) 0.3585(7)
H30_4 H 0.4979 0.0219 0.9780
C2_4 C 0.4133(15) 0.9664(9) 0.0232(5)
C11_4 C 0.3530(13) 0.8505(8) 0.0126(4)
H5_4 H 0.2988 0.8569 0.0332
C29_4 C 0.4205(14) 0.9003(8) 0.0040(4)
C31_4 C 0.2770(16) 0.7280(10) 0.0003(6)
H19_4 H 0.2788 0.7127 0.0285
C47_4 C 0.3536(13) 0.9795(8) 0.0596(5)
H32_4 H 0.3085 0.9459 0.0715
C53_4 C 0.0538(12) 0.0230(5) 0.0309(3)
H35_4 H 0.1422 0.9911 0.9812
C54_4 C 0.9917(13) 0.0773(6) 0.0469(3)
H36_4 H 0.9604 0.0744 0.0730
C55_4 C 0.9765(15) 0.1360(5) 0.0238(4)
H37_4 H 0.9349 0.1723 0.0344
H38_4 H 0.9855 0.8793 0.5169
loop_
_geom_bond_atom_site_label_1
_geom_bond_atom_site_label_2
_geom_bond_site_symmetry_1
_geom_bond_site_symmetry_2
H36 C54 1_555 1_555
H37 C55 1_555 1_555
N9 Cd2 1_555 1_555
N12 Cd2 1_555 1_555
C54 C55 1_555 1_555
Cd2 O10 1_555 1_555
C3 H1 1_555 1_555
C21 C3 1_555 1_555
H12 C21 1_555 1_555
C7 C17 1_555 1_555
C9 C46 1_555 1_555
C12 H6 1_555 1_555
C13 C12 1_555 1_555
H7 C13 1_555 1_555
C14 C13 1_555 1_555
C15 C14 1_555 1_555
H8 C15 1_555 1_555
C16 C15 1_555 1_555
H9 C16 1_555 1_555
C17 C12 1_555 1_555
C19 H11 1_555 1_555
C22 H13 1_555 1_555
C33 H22 1_555 1_555
C34 C33 1_555 1_555
H23 C34 1_555 1_555
C35 C34 1_555 1_555
C36 C35 1_555 1_555
H24 C36 1_555 1_555
C37 C36 1_555 1_555
H25 C37 1_555 1_555
N9 C33 1_555 1_555
H27 C40 1_555 1_555
C41 C19 1_555 1_555
C46 H31 1_555 1_555
C48 C35 1_555 1_555
C49 C46 1_555 1_555
H33 C49 1_555 1_555
C56 C14 1_555 1_555
C64 C19 1_555 1_555
H43 C64 1_555 1_555
H44 C64 1_555 1_555
C66 C48 1_555 1_555
H46 C66 1_555 1_555
H47 C68 1_555 1_555
C69 C68 1_555 1_555
H48 C69 1_555 1_555
Cd3 N4 1_555 1_555
N4 C9 1_555 1_555
N6 C9 1_555 1_555
N7 C22 1_555 1_555
O1 C56 1_555 1_555
O2 C56 1_555 1_555
O4 C7 1_555 1_555
O5 C8 1_555 1_555
O6 C8 1_555 1_555
O7 C7 1_555 1_555
C16 C17 1_555 1_555
C19 N4 1_555 1_555
C37 N9 1_555 1_555
C40 C41 1_555 1_555
C48 C49 1_555 1_555
C64 N6 1_555 1_555
C66 N6 1_555 1_555
C69 N7 1_555 1_555
Cd3 N7 1_555 1_555
Cd3 O4 1_555 1_555
Cd3 O5 1_555 1_555
Cd3 O6 1_555 1_555
Cd3 O7 1_555 1_555
C44 C50 1_555 1_555
C50 C51 1_555 1_555
C51 H34 1_555 1_555
C52 C51 1_555 1_555
O9 C44 1_555 1_555
C2 C29 1_555 1_555
C4 H2 1_555 1_555
C6 H4 1_555 1_555
C8_2 C26 1_555 1_555
C9_2 C46_2 1_555 1_555
C11 H5 1_555 1_555
C18 C4 1_555 1_555
H10 C18 1_555 1_555
C19_2 H11_2 1_555 1_555
C20 C4 1_555 1_555
C22_2 H13_2 1_555 1_555
C23 C24 1_555 1_555
C24 H14 1_555 1_555
C25 C24 1_555 1_555
H15_2 C25 1_555 1_555
C26 C25 1_555 1_555
C27 C26 1_555 1_555
H16 C27 1_555 1_555
C28 C23 1_555 1_555
H17 C28 1_555 1_555
C30 C6 1_555 1_555
H18 C30 1_555 1_555
C31 H19 1_555 1_555
H20 C31 1_555 1_555
C32 C22_2 1_555 1_555
H21 C32 1_555 1_555
C38 C20 1_555 1_555
C39 C38 1_555 1_555
H26 C39 1_555 1_555
C40_2 C39 1_555 1_555
H27_2 C40_2 1_555 1_555
C41_2 C19_2 1_555 1_555
C42 C41_2 1_555 1_555
H28 C42 1_555 1_555
C43 C38 1_555 1_555
H29 C43 1_555 1_555
C46_2 H31_2 1_555 1_555
C47 C2 1_555 1_555
H32 C47 1_555 1_555
C58 H39 1_555 1_555
C59 C58 1_555 1_555
C60 C59 1_555 1_555
H40 C60 1_555 1_555
C61 C60 1_555 1_555
H41 C61 1_555 1_555
C62 C61 1_555 1_555
C63 C58 1_555 1_555
H42 C63 1_555 1_555
C64_2 C19_2 1_555 1_555
H43_2 C64_2 1_555 1_555
H44_2 C64_2 1_555 1_555
C65 C31 1_555 1_555
H45 C65 1_555 1_555
H46_2 C66_2 1_555 1_555
C67 C32 1_555 1_555
C68_2 C67 1_555 1_555
H47_2 C68_2 1_555 1_555
C69_2 C68_2 1_555 1_555
H48_2 C69_2 1_555 1_555
Cd4 O3 1_555 1_555
Cd3_2 N4_2 1_555 1_555
N10 C6 1_555 1_555
N11 C10 1_555 1_555
N4_2 C9_2 1_555 1_555
N5 C10 1_555 1_555
N6_2 C9_2 1_555 1_555
N7_2 C22_2 1_555 1_555
O3 C1 1_555 1_555
O4_2 C7_2 1_555 1_555
O5_2 C8_2 1_555 1_555
O6_2 C8_2 1_555 1_555
O7_2 C7_2 1_555 1_555
O8 C1 1_555 1_555
C70 C23 1_555 1_555
O11 Cd4 1_555 1_555
O12 Cd4 1_555 1_555
C11 C29 1_555 1_555
C11 N5 1_555 1_555
C18 N10 1_555 1_555
C19_2 N4_2 1_555 1_555
C20 C30 1_555 1_555
C27 C28 1_555 1_555
C31 N5 1_555 1_555
C40_2 C41_2 1_555 1_555
C42 C43 1_555 1_555
C59 C67 1_555 1_555
C62 C63 1_555 1_555
C62 C65 1_555 1_555
C64_2 N6_2 1_555 1_555
C65 N11 1_555 1_555
C66_2 N6_2 1_555 1_555
C69_2 N7_2 1_555 1_555
Cd4 O8 1_555 1_555
Cd3_2 N7_2 1_555 1_555
Cd3_2 O4_2 1_555 1_555
Cd3_2 O5_2 1_555 1_555
Cd3_2 O6_2 1_555 1_555
Cd3_2 O7_2 1_555 1_555
C70 O11 1_555 1_555
C70 O12 1_555 1_555
C5 H3 1_555 1_555
H30 C45 1_555 1_555
C57 C45 1_555 1_555
N12 C5 1_555 1_555
C57 N12 1_555 1_555
C1_2 C53 1_555 1_555
C8_3 C26_2 1_555 1_555
C22_3 H13_3 1_555 1_555
C23_2 C24_2 1_555 1_555
C24_2 H14_2 1_555 1_555
C25_2 C24_2 1_555 1_555
H15_3 C25_2 1_555 1_555
C26_2 C25_2 1_555 1_555
C27_2 C26_2 1_555 1_555
H16_2 C27_2 1_555 1_555
C28_2 C23_2 1_555 1_555
H17_2 C28_2 1_555 1_555
C32_2 C22_3 1_555 1_555
H21_2 C32_2 1_555 1_555
C44_2 C50_2 1_555 1_555
C50_2 C51_2 1_555 1_555
C51_2 H34_2 1_555 1_555
C52_2 C51_2 1_555 1_555
H35 C52_2 1_555 1_555
C53 C52_2 1_555 1_555
Cd1 O3_2 1_555 1_555
N7_3 C22_3 1_555 1_555
O3_2 C1_2 1_555 1_555
O4_3 C7_3 1_555 1_555
O5_3 C8_3 1_555 1_555
O6_3 C8_3 1_555 1_555
O7_3 C7_3 1_555 1_555
O8_2 C1_2 1_555 1_555
O9_2 C44_2 1_555 1_555
C70_2 C23_2 1_555 1_555
O11_2 Cd1 1_555 1_555
O12_2 Cd1 1_555 1_555
C27_2 C28_2 1_555 1_555
Cd1 O8_2 1_555 1_555
Cd3_3 N7_3 1_555 1_555
Cd3_3 O4_3 1_555 1_555
Cd3_3 O5_3 1_555 1_555
Cd3_3 O6_3 1_555 1_555
Cd3_3 O7_3 1_555 1_555
C70_2 O11_2 1_555 1_555
C70_2 O12_2 1_555 1_555
C4_2 H2_2 1_555 1_555
C6_2 H4_2 1_555 1_555
C9_3 C46_3 1_555 1_555
C18_2 C4_2 1_555 1_555
H10_2 C18_2 1_555 1_555
C19_3 H11_3 1_555 1_555
C20_2 C4_2 1_555 1_555
C30_2 C6_2 1_555 1_555
H18_2 C30_2 1_555 1_555
C38_2 C20_2 1_555 1_555
C39_2 C38_2 1_555 1_555
H26_2 C39_2 1_555 1_555
C40_3 C39_2 1_555 1_555
H27_3 C40_3 1_555 1_555
C41_3 C19_3 1_555 1_555
C42_2 C41_3 1_555 1_555
H28_2 C42_2 1_555 1_555
C43_2 C38_2 1_555 1_555
H29_2 C43_2 1_555 1_555
C46_3 H31_3 1_555 1_555
C58_2 H39_2 1_555 1_555
C59_2 C58_2 1_555 1_555
C60_2 C59_2 1_555 1_555
C61_2 C60_2 1_555 1_555
H41_2 C61_2 1_555 1_555
C62_2 C61_2 1_555 1_555
C63_2 C58_2 1_555 1_555
H42_2 C63_2 1_555 1_555
C64_3 C19_3 1_555 1_555
H43_3 C64_3 1_555 1_555
H44_3 C64_3 1_555 1_555
H45_2 C65_2 1_555 1_555
H46_3 C66_3 1_555 1_555
C68_3 C67_2 1_555 1_555
H47_3 C68_3 1_555 1_555
C69_3 C68_3 1_555 1_555
H48_3 C69_3 1_555 1_555
N2 C6_2 1_555 1_555
N3 C10_2 1_555 1_555
N4_3 C9_3 1_555 1_555
N5_2 C10_2 1_555 1_555
N6_3 C9_3 1_555 1_555
C18_2 N2 1_555 1_555
C19_3 N4_3 1_555 1_555
C20_2 C30_2 1_555 1_555
C40_3 C41_3 1_555 1_555
C42_2 C43_2 1_555 1_555
C59_2 C67_2 1_555 1_555
C62_2 C63_2 1_555 1_555
C62_2 C65_2 1_555 1_555
C64_3 N6_3 1_555 1_555
C65_2 N3 1_555 1_555
C66_3 N6_3 1_555 1_555
C7_4 C17_2 1_555 1_555
C12_2 H6_4 1_555 1_555
C13_2 C12_2 1_555 1_555
H7_2 C13_2 1_555 1_555
C14_2 C13_2 1_555 1_555
C15_2 C14_2 1_555 1_555
H8_2 C15_2 1_555 1_555
C16_2 C15_2 1_555 1_555
H9_2 C16_2 1_555 1_555
C17_2 C12_2 1_555 1_555
C22_4 H13_4 1_555 1_555
C56_2 C14_2 1_555 1_555
N7_4 C22_4 1_555 1_555
O13 C56_2 1_555 1_555
O14 C56_2 1_555 1_555
O4_4 C7_4 1_555 1_555
O5_4 C8_4 1_555 1_555
O6_4 C8_4 1_555 1_555
O7_4 C7_4 1_555 1_555
C16_2 C17_2 1_555 1_555
Cd3_4 N7_4 1_555 1_555
Cd3_4 O4_4 1_555 1_555
Cd3_4 O5_4 1_555 1_555
Cd3_4 O6_4 1_555 1_555
Cd3_4 O7_4 1_555 1_555
C3_2 H1_2 1_555 1_555
C21_2 C3_2 1_555 1_555
H12_2 C21_2 1_555 1_555
C2_2 C29_2 1_555 1_555
C5_2 H3_2 1_555 1_555
C11_2 H5_2 1_555 1_555
C31_2 H19_2 1_555 1_555
C45_2 C2_2 1_555 1_555
C47_2 C2_2 1_555 1_555
H32_2 C47_2 1_555 1_555
C57_2 C45_2 1_555 1_555
N8 C5_2 1_555 1_555
Cd7 N8 1_555 1_555
C5_2 C47_2 1_555 1_555
C11_2 C29_2 1_555 1_555
C57_2 N8 1_555 1_555
C9_4 C46_4 1_555 1_555
C19_4 H11_4 1_555 1_555
C33_2 H22_2 1_555 1_555
C34_2 C33_2 1_555 1_555
H23_2 C34_2 1_555 1_555
C35_2 C34_2 1_555 1_555
C36_2 C35_2 1_555 1_555
H24_2 C36_2 1_555 1_555
C37_2 C36_2 1_555 1_555
H25_2 C37_2 1_555 1_555
N1 C33_2 1_555 1_555
H27_4 C40_4 1_555 1_555
C41_4 C19_4 1_555 1_555
C46_4 H31_4 1_555 1_555
C48_2 C35_2 1_555 1_555
C49_2 C46_4 1_555 1_555
H33_2 C49_2 1_555 1_555
C64_4 C19_4 1_555 1_555
H43_4 C64_4 1_555 1_555
H44_4 C64_4 1_555 1_555
C66_4 C48_2 1_555 1_555
H46_4 C66_4 1_555 1_555
H47_4 C68_4 1_555 1_555
C69_4 C68_4 1_555 1_555
H48_4 C69_4 1_555 1_555
N4_4 C9_4 1_555 1_555
N6_4 C9_4 1_555 1_555
Cd7 N1 1_555 1_555
C19_4 N4_4 1_555 1_555
C37_2 N1 1_555 1_555
C40_4 C41_4 1_555 1_555
C48_2 C49_2 1_555 1_555
C64_4 N6_4 1_555 1_555
C66_4 N6_4 1_555 1_555
Cd7 O10_2 1_555 1_555
C13_3 C12_3 1_555 1_555
H7_3 C13_3 1_555 1_555
C14_3 C13_3 1_555 1_555
C15_3 C14_3 1_555 1_555
H8_3 C15_3 1_555 1_555
C16_3 C15_3 1_555 1_555
H9_3 C16_3 1_555 1_555
C17_3 C12_3 1_555 1_555
C56_3 C14_3 1_555 1_555
O1_2 C56_3 1_555 1_555
O2_2 C56_3 1_555 1_555
Cd5 O1_2 1_555 1_555
C16_3 C17_3 1_555 1_555
O2_2 Cd5 1_555 1_555
C33_3 H22_3 1_555 1_555
C34_3 C33_3 1_555 1_555
H23_3 C34_3 1_555 1_555
C35_3 C34_3 1_555 1_555
C36_3 C35_3 1_555 1_555
H24_3 C36_3 1_555 1_555
C37_3 C36_3 1_555 1_555
H25_3 C37_3 1_555 1_555
N1_2 C33_3 1_555 1_555
C48_3 C35_3 1_555 1_555
H33_3 C49_3 1_555 1_555
Cd6 N1_2 1_555 1_555
C37_3 N1_2 1_555 1_555
C48_3 C49_3 1_555 1_555
C2_3 C29_3 1_555 1_555
C3_3 H1_3 1_555 1_555
C4_3 H2_3 1_555 1_555
C5_3 H3_3 1_555 1_555
C6_3 H4_3 1_555 1_555
C10_3 C21_3 1_555 1_555
C11_3 H5_3 1_555 1_555
C18_3 C4_3 1_555 1_555
H10_3 C18_3 1_555 1_555
C20_3 C4_3 1_555 1_555
C21_3 C3_3 1_555 1_555
H12_3 C21_3 1_555 1_555
C29_3 C3_3 1_555 1_555
C30_3 C6_3 1_555 1_555
H18_3 C30_3 1_555 1_555
C31_3 H19_3 1_555 1_555
H20_3 C31_3 1_555 1_555
C38_3 C20_3 1_555 1_555
C39_3 C38_3 1_555 1_555
H26_3 C39_3 1_555 1_555
H28_3 C42_3 1_555 1_555
C43_3 C38_3 1_555 1_555
H29_3 C43_3 1_555 1_555
C45_3 C2_3 1_555 1_555
H30_3 C45_3 1_555 1_555
C47_3 C2_3 1_555 1_555
H32_3 C47_3 1_555 1_555
C57_3 C45_3 1_555 1_555
H38_2 C57_3 1_555 1_555
C58_3 H39_3 1_555 1_555
C59_3 C58_3 1_555 1_555
C60_3 C59_3 1_555 1_555
C61_3 C60_3 1_555 1_555
H41_3 C61_3 1_555 1_555
C62_3 C61_3 1_555 1_555
C63_3 C58_3 1_555 1_555
H42_3 C63_3 1_555 1_555
C65_3 C31_3 1_555 1_555
H45_3 C65_3 1_555 1_555
N2_2 C6_3 1_555 1_555
N3_2 C10_3 1_555 1_555
N5_3 C10_3 1_555 1_555
N8_2 C5_3 1_555 1_555
Cd4_2 N2_2 1_555 1_555
Cd6 N8_2 1_555 1_555
C5_3 C47_3 1_555 1_555
C11_3 C29_3 1_555 1_555
C11_3 N5_3 1_555 1_555
C18_3 N2_2 1_555 1_555
C20_3 C30_3 1_555 1_555
C31_3 N5_3 1_555 1_555
C42_3 C43_3 1_555 1_555
C57_3 N8_2 1_555 1_555
C59_3 C67_3 1_555 1_555
C62_3 C63_3 1_555 1_555
C62_3 C65_3 1_555 1_555
C65_3 N3_2 1_555 1_555
N3_2 Cd4_2 1_555 1_555
C44_3 C50_3 1_555 1_555
C50_3 C51_3 1_555 1_555
C51_3 H34_3 1_555 1_555
C52_3 C51_3 1_555 1_555
H35_2 C52_3 1_555 1_555
Cd5 O9_3 1_555 1_555
O9_3 C44_3 1_555 1_555
O10_3 C44_3 1_555 1_555
N9_2 Cd5 1_555 1_555
N12_2 Cd5 1_555 1_555
Cd5 O10_3 1_555 1_555
C1_3 C53_2 1_555 1_555
C23_3 C24_3 1_555 1_555
C24_3 H14_3 1_555 1_555
C25_3 C24_3 1_555 1_555
C26_3 C25_3 1_555 1_555
C27_3 C26_3 1_555 1_555
H16_3 C27_3 1_555 1_555
C28_3 C23_3 1_555 1_555
H17_3 C28_3 1_555 1_555
H21_3 C32_3 1_555 1_555
C54_2 C53_2 1_555 1_555
H36_2 C54_2 1_555 1_555
H37_2 C55_2 1_555 1_555
Cd1_2 O3_3 1_555 1_555
O3_3 C1_3 1_555 1_555
O8_3 C1_3 1_555 1_555
C70_3 C23_3 1_555 1_555
O11_3 Cd1_2 1_555 1_555
O12_3 Cd1_2 1_555 1_555
N10_2 Cd1_2 1_555 1_555
N11_2 Cd1_2 1_555 1_555
C27_3 C28_3 1_555 1_555
C54_2 C55_2 1_555 1_555
Cd1_2 O8_3 1_555 1_555
C70_3 O11_3 1_555 1_555
C70_3 O12_3 1_555 1_555
C5_4 H3_4 1_555 1_555
C57_4 C45_4 1_555 1_555
H38_3 C57_4 1_555 1_555
N12_2 C5_4 1_555 1_555
C57_4 N12_2 1_555 1_555
C3_4 H1_4 1_555 1_555
C4_4 H2_4 1_555 1_555
C6_4 H4_4 1_555 1_555
C10_4 C21_4 1_555 1_555
C18_4 C4_4 1_555 1_555
H10_4 C18_4 1_555 1_555
C20_4 C4_4 1_555 1_555
C21_4 C3_4 1_555 1_555
H12_4 C21_4 1_555 1_555
C23_4 C24_4 1_555 1_555
C24_4 H14_4 1_555 1_555
C25_4 C24_4 1_555 1_555
C26_4 C25_4 1_555 1_555
C27_4 C26_4 1_555 1_555
H16_4 C27_4 1_555 1_555
C28_4 C23_4 1_555 1_555
H17_4 C28_4 1_555 1_555
C30_4 C6_4 1_555 1_555
H18_4 C30_4 1_555 1_555
H21_4 C32_4 1_555 1_555
C38_4 C20_4 1_555 1_555
C39_4 C38_4 1_555 1_555
H26_4 C39_4 1_555 1_555
H28_4 C42_4 1_555 1_555
C43_4 C38_4 1_555 1_555
H29_4 C43_4 1_555 1_555
C58_4 H39_4 1_555 1_555
C59_4 C58_4 1_555 1_555
C60_4 C59_4 1_555 1_555
H40_4 C60_4 1_555 1_555
C61_4 C60_4 1_555 1_555
H41_4 C61_4 1_555 1_555
C62_4 C61_4 1_555 1_555
C63_4 C58_4 1_555 1_555
H42_4 C63_4 1_555 1_555
H45_4 C65_4 1_555 1_555
C67_4 C32_4 1_555 1_555
Cd4_2 O3_4 1_555 1_555
N10_2 C6_4 1_555 1_555
N11_2 C10_4 1_555 1_555
N5_4 C10_4 1_555 1_555
O3_4 C1_4 1_555 1_555
O8_4 C1_4 1_555 1_555
C70_4 C23_4 1_555 1_555
O11_4 Cd4_2 1_555 1_555
O12_4 Cd4_2 1_555 1_555
C18_4 N10_2 1_555 1_555
C20_4 C30_4 1_555 1_555
C27_4 C28_4 1_555 1_555
C42_4 C43_4 1_555 1_555
C59_4 C67_4 1_555 1_555
C62_4 C63_4 1_555 1_555
C62_4 C65_4 1_555 1_555
C65_4 N11_2 1_555 1_555
Cd4_2 O8_4 1_555 1_555
C70_4 O11_4 1_555 1_555
C70_4 O12_4 1_555 1_555
C44_4 C50_4 1_555 1_555
C50_4 C51_4 1_555 1_555
C51_4 H34_4 1_555 1_555
C52_4 C51_4 1_555 1_555
C53_3 C52_4 1_555 1_555
C54_3 C53_3 1_555 1_555
H36_3 C54_3 1_555 1_555
C55_3 C50_4 1_555 1_555
H37_3 C55_3 1_555 1_555
Cd6 O9_4 1_555 1_555
O9_4 C44_4 1_555 1_555
O10_4 C44_4 1_555 1_555
O13_2 Cd6 1_555 1_555
O14_2 Cd6 1_555 1_555
C54_3 C55_3 1_555 1_555
Cd6 O10_4 1_555 1_555
C13_4 C12_4 1_555 1_555
H7_4 C13_4 1_555 1_555
C14_4 C13_4 1_555 1_555
C15_4 C14_4 1_555 1_555
H8_4 C15_4 1_555 1_555
C16_4 C15_4 1_555 1_555
H9_4 C16_4 1_555 1_555
C17_4 C12_4 1_555 1_555
C33_4 H22_4 1_555 1_555
C34_4 C33_4 1_555 1_555
H23_4 C34_4 1_555 1_555
C35_4 C34_4 1_555 1_555
C36_4 C35_4 1_555 1_555
H24_4 C36_4 1_555 1_555
C37_4 C36_4 1_555 1_555
H25_4 C37_4 1_555 1_555
N9_2 C33_4 1_555 1_555
C48_4 C35_4 1_555 1_555
H33_4 C49_4 1_555 1_555
C56_4 C14_4 1_555 1_555
O13_2 C56_4 1_555 1_555
O14_2 C56_4 1_555 1_555
C16_4 C17_4 1_555 1_555
C37_4 N9_2 1_555 1_555
C48_4 C49_4 1_555 1_555
C2_4 C29_4 1_555 1_555
C11_4 H5_4 1_555 1_555
C31_4 H19_4 1_555 1_555
C47_4 C2_4 1_555 1_555
H32_4 C47_4 1_555 1_555
C11_4 C29_4 1_555 1_555
H36_4 C54_4 1_555 1_555
H37_4 C55_4 1_555 1_555
C54_4 C55_4 1_555 1_555

#END
