
###############################################################################
#
# This file contains modified crystal structure data generated from the
# MOF subset of the Cambridge Structural Database (CSD) v543 
# hosted by the Cambridge Crystallographic Data Centre (CCDC).
#
# This work is licensed under the Creative Commons
# Attribution-NonCommercial-ShareAlike 4.0 International License.
# To view a copy of this license, visit
# http://creativecommons.org/licenses/by-nc-sa/4.0/
# or send a letter to
# Creative Commons, PO Box 1866, Mountain View, CA 94042, USA.
#
# CIF created using the CSD Python API on 29 September 2022
# The structure has been converted into the P1 space group
# The structure has a 3D framework
# The original CSD entry ATAJAI is in the monoclinic crystal system
# The original CSD entry ATAJAI is in a Sohncke space group
# The framework has been calculated to contain at least 10.0% void space
# The void calculation uses a probe of radius 1.32A, grid spacing 0.4
#
###############################################################################

data_ATAJAI
_chemical_formula_moiety         '(C280 H192 N32 O48 Zn12)n'
_symmetry_cell_setting           triclinic
_symmetry_space_group_name_H-M   'P 1'
_symmetry_Int_Tables_number      1
_space_group_name_Hall           'P 1'
loop_
_symmetry_equiv_pos_site_id
_symmetry_equiv_pos_as_xyz
1 x,y,z
_cell_length_a                   21.719(3)
_cell_length_b                   19.469(2)
_cell_length_c                   20.835(2)
_cell_angle_alpha                90
_cell_angle_beta                 108.856(2)
_cell_angle_gamma                90
_cell_volume                     8337.22
loop_
_atom_site_label
_atom_site_type_symbol
_atom_site_fract_x
_atom_site_fract_y
_atom_site_fract_z
C37 C 0.2609(4) 0.0559(3) 0.4526(3)
H25 H 0.2665 0.0528 0.4103
C39 C 0.2568(3) 0.0019(3) 0.5550(3)
C40 C 0.2443(4) 0.0652(4) 0.5791(3)
H27 H 0.2388 0.0683 0.6214
C41 C 0.2402(4) 0.1239(3) 0.5399(3)
H28 H 0.2318 0.1662 0.5560
C42 C 0.2485(4) 0.1192(3) 0.4767(3)
O11 O 0.2425(5) 0.2341(5) 0.4490(4)
C70 C 0.2474(7) 0.1800(7) 0.4260(7)
O12 O 0.2377(5) 0.1656(5) 0.3655(5)
Zn15 Zn 0.24195(4) 0.30339(5) 0.37521(4)
C48 C 0.1059(5) 0.2653(7) 0.3219(5)
H33 H 0.1145 0.2515 0.3667
N6 N 0.1544(3) 0.2952(5) 0.3038(3)
C49 C 0.1391(4) 0.3176(6) 0.2418(4)
H34 H 0.1698 0.3431 0.2296
C50 C 0.0793(5) 0.3054(8) 0.1933(4)
H35 H 0.0722 0.3193 0.1488
C51 C 0.0311(4) 0.2734(6) 0.2097(4)
C52 C 0.0446(5) 0.2547(7) 0.2763(5)
H36 H 0.0123 0.2350 0.2907
Zn3 Zn 0.25805(4) 0.80339(5) 0.62479(4)
H17 H 0.0065 0.7070 0.7525
O7 O 0.2514(4) 0.8853(4) 0.5710(4)
O8 O 0.2680(6) 0.9456(4) 0.6617(4)
C35 C 0.2549(5) 0.9378(7) 0.5980(5)
C38 C 0.2651(4) 0.9972(3) 0.4918(3)
H26 H 0.2734 0.9549 0.4757
C43 C 0.0753(5) 0.8444(7) 0.6501(8)
H29 H 0.0469 0.8816 0.6403
C44 C 0.1347(5) 0.8497(7) 0.6403(9)
H30 H 0.1444 0.8890 0.6201
N5 N 0.1802(3) 0.7978(5) 0.6598(4)
C45 C 0.1638(4) 0.7463(7) 0.6887(5)
H31 H 0.1949 0.7123 0.7054
C46 C 0.1046(4) 0.7366(7) 0.6973(5)
H32 H 0.0971 0.6972 0.7189
C47 C 0.0573(4) 0.7839(6) 0.6746(6)
N18 N 0.3456(3) 0.7952(5) 0.6962(3)
O27 O 0.2575(5) 0.7341(5) 0.5510(4)
C34 C 0.9835(4) 0.2270(8) 0.5565(4)
H23 H 0.9710 0.2234 0.5951
O13 O 0.8423(2) 0.2393(3) 0.3672(2)
C71 C 0.9001(3) 0.2303(6) 0.3680(4)
C72 C 0.9509(3) 0.2292(6) 0.4362(3)
O14 O 0.9149(3) 0.2184(7) 0.3176(3)
C73 C 0.9360(3) 0.2298(9) 0.4938(4)
H49 H 0.8925 0.2322 0.4914
Zn4 Zn 0.76284(3) 0.22598(4) 0.28969(3)
N10 N 0.7021(2) 0.2638(3) 0.3359(3)
N12 N 0.6212(2) 0.2991(4) 0.3739(3)
O17 O 0.7657(3) 0.1298(3) 0.2652(3)
C81 C 0.7629(4) 0.5565(4) 0.2292(3)
C82 C 0.7128(4) 0.1100(4) 0.2183(4)
C84 C 0.5586(4) 0.3055(5) 0.3737(4)
H55 H 0.5497 0.3321 0.4067
C85 C 0.8161(4) 0.5611(4) 0.2076(4)
H56 H 0.8501 0.5298 0.2223
C86 C 0.6397(3) 0.2583(4) 0.3282(3)
C88 C 0.5897(3) 0.2219(5) 0.2815(3)
H58 H 0.5992 0.1918 0.2513
C90 C 0.80972(17) 0.4655(3) 0.3188(3)
H60 H 0.8512 0.4821 0.3243
C91 C 0.7558(2) 0.4966(2) 0.2729(2)
C92 C 0.69372(19) 0.4717(3) 0.2648(3)
H61 H 0.6576 0.4926 0.2341
C93 C 0.68565(16) 0.4156(3) 0.3025(3)
H62 H 0.6441 0.3989 0.2971
C94 C 0.7396(2) 0.3844(2) 0.3484(2)
C95 C 0.80165(17) 0.4094(2) 0.3566(2)
H63 H 0.8378 0.3885 0.3873
C99 C 0.66306(18) 0.0070(2) 0.1496(2)
H66 H 0.6234 0.0300 0.1379
C100 C 0.7186(2) 0.0375(2) 0.1936(2)
C101 C 0.77784(19) 0.0031(3) 0.2110(2)
H67 H 0.8150 0.0235 0.2404
C103 C 0.5265(3) 0.2304(6) 0.2800(4)
H69 H 0.4935 0.2070 0.2475
C105 C 0.7301(3) 0.3197(4) 0.3861(3)
H70 H 0.7717 0.3050 0.4186
O19 O 0.6652(3) 0.1451(3) 0.1938(3)
C106 C 0.5101(4) 0.2741(5) 0.3269(5)
C107 C 0.6793(3) 0.3303(4) 0.4226(3)
H71 H 0.6918 0.3068 0.4659
H72 H 0.6727 0.3787 0.4295
C108 C 0.7153(4) 0.6063(4) 0.2068(5)
H73 H 0.6792 0.6066 0.2217
O21 O 0.2486(4) 0.3853(4) 0.4290(4)
O22 O 0.2320(6) 0.4456(4) 0.3383(4)
C109 C 0.2451(5) 0.4378(7) 0.4020(5)
C111 C 0.2391(4) 0.5559(3) 0.5474(3)
H75 H 0.2335 0.5528 0.5897
C112 C 0.2349(4) 0.4972(3) 0.5082(3)
H76 H 0.2266 0.4549 0.5243
C113 C 0.2432(3) 0.5019(3) 0.4450(3)
C114 C 0.2557(4) 0.5652(4) 0.4209(3)
H77 H 0.2612 0.5683 0.3786
C115 C 0.2598(4) 0.6239(3) 0.4601(3)
H78 H 0.2682 0.6662 0.4440
C116 C 0.2515(4) 0.6192(3) 0.5233(3)
C117 C 0.4247(5) 0.3444(7) 0.3499(8)
H79 H 0.4531 0.3816 0.3597
C118 C 0.3653(5) 0.3497(7) 0.3597(9)
H80 H 0.3556 0.3890 0.3799
N13 N 0.3198(3) 0.2978(5) 0.3402(4)
C119 C 0.3362(4) 0.2463(7) 0.3113(5)
H81 H 0.3051 0.2123 0.2946
C120 C 0.3954(4) 0.2366(7) 0.3027(5)
H82 H 0.4029 0.1972 0.2811
C121 C 0.4427(4) 0.2839(6) 0.3254(6)
C136 C 0.8180(4) 0.6135(5) 0.1632(4)
H93 H 0.8543 0.6164 0.1490
C139 C 0.7222(4) 0.6540(5) 0.1633(5)
H96 H 0.6891 0.6863 0.1480
N16 N 0.7720(3) 0.6591(3) 0.1400(3)
C140 C 0.2526(7) 0.6800(7) 0.5740(7)
O24 O 0.2623(5) 0.6656(5) 0.6345(5)
Zn11 Zn 0.77210(3) 0.72754(5) 0.06536(4)
N20 N 0.7594(2) 0.2897(3) 0.2094(3)
O15 O 0.8480(2) 0.7121(4) 0.0372(3)
O16 O 0.9245(3) 0.7115(6) 0.1332(3)
C75 C 0.9547(3) 0.7077(5) 0.0342(3)
C76 C 0.9057(3) 0.7090(5) 0.0732(4)
C68 C 0.9798(4) 0.7099(8) 0.9321(4)
H47 H 0.9654 0.7137 0.8850
C78 C 0.9345(3) 0.7068(6) 0.9656(4)
H52 H 0.8904 0.7041 0.9412
C79 C 0.7290(5) 0.8376(5) 0.1119(4)
O18 O 0.6816(3) 0.8000(3) 0.1015(3)
C96 C 0.7815(2) 0.9383(3) 0.1845(3)
H64 H 0.8212 0.9154 0.1962
C97 C 0.7260(3) 0.9078(2) 0.1405(3)
C98 C 0.6668(2) 0.9422(3) 0.1231(2)
H65 H 0.6296 0.9218 0.0936
O20 O 0.7792(4) 0.8216(4) 0.1014(4)
C127 C 0.7468(4) 0.3929(4) 0.1120(3)
C128 C 0.7912(2) 0.4719(2) 0.0408(3)
H87 H 0.8287 0.4453 0.0517
C129 C 0.7404(2) 0.4531(2) 0.0642(2)
C130 C 0.68435(19) 0.4928(3) 0.0480(3)
H88 H 0.6504 0.4803 0.0637
C131 C 0.67899(19) 0.5514(3) 0.0085(3)
C133 C 0.7858(2) 0.5305(3) 0.0013(3)
C134 C 0.8104(3) 0.3240(4) 0.2049(4)
H91 H 0.8511 0.3132 0.2352
C135 C 0.7016(4) 0.3056(5) 0.1623(4)
H92 H 0.6648 0.2818 0.1633
C137 C 0.8067(3) 0.3754(4) 0.1574(4)
H94 H 0.8441 0.3977 0.1562
C138 C 0.6946(4) 0.3540(5) 0.1142(4)
H95 H 0.6539 0.3611 0.0821
N9 N 0.7079(2) 0.6974(3) 0.9769(3)
N11 N 0.6267(3) 0.6878(3) 0.8781(3)
C80 C 0.6520(3) 0.7210(4) 0.9386(3)
C83 C 0.6714(4) 0.6318(4) 0.8718(4)
H53 H 0.6892 0.6408 0.8355
H54 H 0.6498 0.5875 0.8645
C87 C 0.7244(3) 0.6362(4) 0.9427(3)
H57 H 0.7665 0.6445 0.9362
C89 C 0.5567(4) 0.7914(6) 0.9041(4)
H59 H 0.5311 0.8257 0.9134
C102 C 0.5695(3) 0.7032(4) 0.8317(4)
H68 H 0.5548 0.6776 0.7920
C104 C 0.5326(3) 0.7555(5) 0.8419(4)
C110 C 0.6150(4) 0.7783(5) 0.9505(4)
H74 H 0.6310 0.8054 0.9891
C122 C 0.3941(5) 0.7653(7) 0.6781(5)
H83 H 0.3855 0.7515 0.6333
C123 C 0.3609(4) 0.8176(6) 0.7582(4)
H84 H 0.3302 0.8431 0.7704
C124 C 0.4207(5) 0.8054(8) 0.8067(4)
H85 H 0.4278 0.8193 0.8512
C125 C 0.4689(4) 0.7734(6) 0.7903(4)
C126 C 0.4554(5) 0.7547(7) 0.7237(5)
H86 H 0.4877 0.7350 0.7093
H89 H 0.6415 0.5781 0.9977
C132 C 0.7297(2) 0.5703(2) 0.9851(2)
H90 H 0.8198 0.5431 0.9857
C4 C 0.7371(4) 0.0565(4) 0.7708(3)
C9 C 0.6839(4) 0.0611(4) 0.7924(4)
H4 H 0.6499 0.0298 0.7777
C32 C 0.7847(4) 0.1063(4) 0.7932(5)
H21 H 0.8208 0.1066 0.7783
C62 C 0.6820(4) 0.1135(5) 0.8368(4)
H43 H 0.6457 0.1164 0.8510
C65 C 0.7778(4) 0.1540(5) 0.8367(5)
H46 H 0.8109 0.1863 0.8520
N8 N 0.7280(3) 0.1591(3) 0.8600(3)
C81_2 C 0.2629(4) 0.0565(4) 0.2292(3)
C85_2 C 0.3161(4) 0.0611(4) 0.2076(4)
H56_2 H 0.3501 0.0298 0.2223
C108_2 C 0.2153(4) 0.1063(4) 0.2068(5)
H73_2 H 0.1792 0.1066 0.2217
C136_2 C 0.3180(4) 0.1135(5) 0.1632(4)
H93_2 H 0.3543 0.1164 0.1490
C139_2 C 0.2222(4) 0.1540(5) 0.1633(5)
H96_2 H 0.1891 0.1863 0.1480
N16_2 N 0.2720(3) 0.1591(3) 0.1400(3)
Zn9 Zn 0.72790(3) 0.22754(5) 0.93464(4)
Zn11_2 Zn 0.27210(3) 0.22754(5) 0.06536(4)
N1 N 0.7921(2) 0.1974(3) 0.0231(3)
N3 N 0.8733(3) 0.1878(3) 0.1219(3)
C2 C 0.8480(3) 0.2210(4) 0.0614(3)
C7 C 0.8286(4) 0.1318(4) 0.1282(4)
H1 H 0.8108 0.1408 0.1645
H2 H 0.8502 0.0875 0.1355
C11 C 0.7756(3) 0.1362(4) 0.0573(3)
H5 H 0.7335 0.1445 0.0638
C13 C 0.9433(4) 0.2914(6) 0.0959(4)
H7 H 0.9689 0.3257 0.0866
C26 C 0.9305(3) 0.2032(4) 0.1683(4)
H16 H 0.9452 0.1776 0.2080
C28 C 0.9674(3) 0.2555(5) 0.1581(4)
C36 C 0.8850(4) 0.2783(5) 0.0495(4)
H24 H 0.8690 0.3054 0.0109
H39 H 0.8585 0.0781 0.0023
C58 C 0.7703(2) 0.0703(2) 0.0149(2)
H40 H 0.6802 0.0431 0.0143
C69 C 0.5655(3) 0.2068(6) 0.0344(4)
H48 H 0.6096 0.2041 0.0588
O15_2 O 0.3480(2) 0.2121(4) 0.0372(3)
O16_2 O 0.4245(3) 0.2115(6) 0.1332(3)
C75_2 C 0.4547(3) 0.2077(5) 0.0342(3)
C76_2 C 0.4057(3) 0.2090(5) 0.0732(4)
C77 C 0.5202(4) 0.2099(8) 0.0679(4)
H51 H 0.5346 0.2137 0.1150
Zn1 Zn 0.73716(3) 0.72598(4) 0.71031(3)
O1 O 0.6577(2) 0.7393(3) 0.6328(2)
C1 C 0.7710(5) 0.3376(5) 0.8881(4)
N2 N 0.7979(2) 0.7638(3) 0.6641(3)
N4 N 0.8788(2) 0.7991(4) 0.6261(3)
O2 O 0.7343(3) 0.6298(3) 0.7348(3)
C3 C 0.5999(3) 0.7303(6) 0.6320(4)
O3 O 0.8184(3) 0.3000(3) 0.8985(3)
C5 C 0.5491(3) 0.7292(6) 0.5638(3)
C6 C 0.7872(4) 0.6100(4) 0.7817(4)
C8 C 0.9414(4) 0.8055(5) 0.6263(4)
H3 H 0.9503 0.8321 0.5933
C10 C 0.8603(3) 0.7583(4) 0.6718(3)
O4 O 0.5851(3) 0.7184(7) 0.6824(3)
C12 C 0.9103(3) 0.7219(5) 0.7185(3)
H6 H 0.9008 0.6918 0.7487
C14 C 0.69028(17) 0.9655(3) 0.6812(3)
H8 H 0.6488 0.9821 0.6757
C15 C 0.7442(2) 0.9966(2) 0.7271(2)
C16 C 0.80628(19) 0.9717(3) 0.7352(3)
H9 H 0.8424 0.9926 0.7659
C17 C 0.81435(16) 0.9156(3) 0.6975(3)
H10 H 0.8559 0.8989 0.7029
C18 C 0.7604(2) 0.8844(2) 0.6516(2)
C19 C 0.69835(17) 0.9094(2) 0.6434(2)
H11 H 0.6622 0.8885 0.6127
C20 C 0.7185(2) 0.4383(3) 0.8155(3)
H12 H 0.6788 0.4154 0.8038
C21 C 0.7740(3) 0.4078(2) 0.8595(3)
C22 C 0.8332(2) 0.4422(3) 0.8769(2)
H13 H 0.8704 0.4218 0.9064
C23 C 0.83694(18) 0.5070(2) 0.8504(2)
H14 H 0.8766 0.5300 0.8621
C24 C 0.7814(2) 0.5375(2) 0.8064(2)
C25 C 0.72216(19) 0.5031(3) 0.7890(2)
H15 H 0.6850 0.5235 0.7596
C27 C 0.9735(3) 0.7304(6) 0.7200(4)
C29 C 0.7699(3) 0.8197(4) 0.6139(3)
H18 H 0.7283 0.8050 0.5814
O5 O 0.8348(3) 0.6451(3) 0.8062(3)
C30 C 0.9899(4) 0.7741(5) 0.6731(5)
C31 C 0.8207(3) 0.8303(4) 0.5774(3)
H19 H 0.8082 0.8068 0.5341
H20 H 0.8273 0.8787 0.5705
O6 O 0.7208(4) 0.3216(4) 0.8986(4)
C33 C 0.5640(3) 0.7298(9) 0.5062(4)
H22 H 0.6075 0.7322 0.5086
C34_2 C 0.4835(4) 0.7270(8) 0.5565(4)
H23_2 H 0.4710 0.7234 0.5951
C57 C 0.82101(19) 0.0514(3) 0.9915(3)
C59 C 0.7142(2) 0.0305(3) 0.9987(3)
O9 O 0.6520(2) 0.2121(4) 0.9628(3)
O10 O 0.5755(3) 0.2115(6) 0.8668(3)
C66 C 0.5453(3) 0.2077(5) 0.9658(3)
C67 C 0.5943(3) 0.2090(5) 0.9268(4)
C68_2 C 0.4798(4) 0.2099(8) 0.9321(4)
H47_2 H 0.4654 0.2137 0.8850
O13_2 O 0.3423(2) 0.7393(3) 0.3672(2)
C71_2 C 0.4001(3) 0.7303(6) 0.3680(4)
C72_2 C 0.4509(3) 0.7292(6) 0.4362(3)
O14_2 O 0.4149(3) 0.7184(7) 0.3176(3)
C73_2 C 0.4360(3) 0.7298(9) 0.4938(4)
H49_2 H 0.3925 0.7322 0.4914
C74 C 0.5165(4) 0.7270(8) 0.4435(4)
H50 H 0.5290 0.7234 0.4049
C78_2 C 0.4345(3) 0.2068(6) 0.9656(4)
H52_2 H 0.3904 0.2041 0.9412
Zn4_2 Zn 0.26284(3) 0.72598(4) 0.28969(3)
C79_2 C 0.2290(5) 0.3376(5) 0.1119(4)
N10_2 N 0.2021(2) 0.7638(3) 0.3359(3)
N12_2 N 0.1212(2) 0.7991(4) 0.3739(3)
O17_2 O 0.2657(3) 0.6298(3) 0.2652(3)
O18_2 O 0.1816(3) 0.3000(3) 0.1015(3)
C82_2 C 0.2128(4) 0.6100(4) 0.2183(4)
C84_2 C 0.0586(4) 0.8055(5) 0.3737(4)
H55_2 H 0.0497 0.8321 0.4067
C86_2 C 0.1397(3) 0.7583(4) 0.3282(3)
C88_2 C 0.0897(3) 0.7219(5) 0.2815(3)
H58_2 H 0.0992 0.6918 0.2513
C90_2 C 0.30972(17) 0.9655(3) 0.3188(3)
H60_2 H 0.3512 0.9821 0.3243
C91_2 C 0.2558(2) 0.9966(2) 0.2729(2)
C92_2 C 0.19372(19) 0.9717(3) 0.2648(3)
H61_2 H 0.1576 0.9926 0.2341
C93_2 C 0.18565(16) 0.9156(3) 0.3025(3)
H62_2 H 0.1441 0.8989 0.2971
C94_2 C 0.2396(2) 0.8844(2) 0.3484(2)
C95_2 C 0.30165(17) 0.9094(2) 0.3566(2)
H63_2 H 0.3378 0.8885 0.3873
C96_2 C 0.2815(2) 0.4383(3) 0.1845(3)
H64_2 H 0.3212 0.4154 0.1962
C97_2 C 0.2260(3) 0.4078(2) 0.1405(3)
C98_2 C 0.1668(2) 0.4422(3) 0.1231(2)
H65_2 H 0.1296 0.4218 0.0936
C99_2 C 0.16306(18) 0.5070(2) 0.1496(2)
H66_2 H 0.1234 0.5300 0.1379
C100_2 C 0.2186(2) 0.5375(2) 0.1936(2)
C101_2 C 0.27784(19) 0.5031(3) 0.2110(2)
H67_2 H 0.3150 0.5235 0.2404
C103_2 C 0.0265(3) 0.7304(6) 0.2800(4)
C105_2 C 0.2301(3) 0.8197(4) 0.3861(3)
H70_2 H 0.2717 0.8050 0.4186
O19_2 O 0.1652(3) 0.6451(3) 0.1938(3)
C106_2 C 0.0101(4) 0.7741(5) 0.3269(5)
C107_2 C 0.1793(3) 0.8303(4) 0.4226(3)
H71_2 H 0.1918 0.8068 0.4659
H72_2 H 0.1727 0.8787 0.4295
O20_2 O 0.2792(4) 0.3216(4) 0.1014(4)
C131_2 C 0.17899(19) 0.0514(3) 0.0085(3)
C133_2 C 0.2858(2) 0.0305(3) 0.0013(3)
N19 N 0.7406(2) 0.7897(3) 0.7906(3)
N20_2 N 0.2594(2) 0.7897(3) 0.2094(3)
N9_2 N 0.2079(2) 0.1974(3) 0.9769(3)
N11_2 N 0.1267(3) 0.1878(3) 0.8781(3)
C80_2 C 0.1520(3) 0.2210(4) 0.9386(3)
C83_2 C 0.1714(4) 0.1318(4) 0.8718(4)
H53_2 H 0.1892 0.1408 0.8355
H54_2 H 0.1498 0.0875 0.8645
C87_2 C 0.2244(3) 0.1362(4) 0.9427(3)
H57_2 H 0.2665 0.1445 0.9362
C89_2 C 0.0567(4) 0.2914(6) 0.9041(4)
H59_2 H 0.0311 0.3257 0.9134
C102_2 C 0.0695(3) 0.2032(4) 0.8317(4)
H68_2 H 0.0548 0.1776 0.7920
C104_2 C 0.0326(3) 0.2555(5) 0.8419(4)
C110_2 C 0.1150(4) 0.2783(5) 0.9505(4)
H74_2 H 0.1310 0.3054 0.9891
H89_2 H 0.1415 0.0781 0.9977
C132_2 C 0.2297(2) 0.0703(2) 0.9851(2)
H90_2 H 0.3198 0.0431 0.9857
C53 C 0.7532(4) 0.8929(4) 0.8880(3)
C54 C 0.7088(2) 0.9719(2) 0.9592(3)
H37 H 0.6713 0.9453 0.9483
C55 C 0.7596(2) 0.9531(2) 0.9358(2)
C56 C 0.81565(19) 0.9928(3) 0.9520(3)
H38 H 0.8496 0.9803 0.9363
C60 C 0.6896(3) 0.8240(4) 0.7951(4)
H41 H 0.6489 0.8132 0.7648
C61 C 0.7984(4) 0.8056(5) 0.8377(4)
H42 H 0.8352 0.7818 0.8367
C63 C 0.6933(3) 0.8754(4) 0.8426(4)
H44 H 0.6559 0.8977 0.8438
C64 C 0.8054(4) 0.8540(5) 0.8858(4)
H45 H 0.8461 0.8611 0.9179
C127_2 C 0.2468(4) 0.8929(4) 0.1120(3)
C128_2 C 0.2912(2) 0.9719(2) 0.0408(3)
H87_2 H 0.3287 0.9453 0.0517
C129_2 C 0.2404(2) 0.9531(2) 0.0642(2)
C130_2 C 0.18435(19) 0.9928(3) 0.0480(3)
H88_2 H 0.1504 0.9803 0.0637
C134_2 C 0.3104(3) 0.8240(4) 0.2049(4)
H91_2 H 0.3511 0.8132 0.2352
C135_2 C 0.2016(4) 0.8056(5) 0.1623(4)
H92_2 H 0.1648 0.7818 0.1633
C137_2 C 0.3067(3) 0.8754(4) 0.1574(4)
H94_2 H 0.3441 0.8977 0.1562
C138_2 C 0.1946(4) 0.8540(5) 0.1142(4)
H95_2 H 0.1539 0.8611 0.0821
C111_2 C 0.7391(4) 0.0559(3) 0.5474(3)
H75_2 H 0.7335 0.0528 0.5897
C113_2 C 0.7432(3) 0.0019(3) 0.4450(3)
C114_2 C 0.7557(4) 0.0652(4) 0.4209(3)
H77_2 H 0.7612 0.0683 0.3786
C115_2 C 0.7598(4) 0.1239(3) 0.4601(3)
H78_2 H 0.7682 0.1662 0.4440
C116_2 C 0.7515(4) 0.1192(3) 0.5233(3)
O23 O 0.7575(5) 0.2341(5) 0.5510(4)
C140_2 C 0.7526(7) 0.1800(7) 0.5740(7)
O24_2 O 0.7623(5) 0.1656(5) 0.6345(5)
Zn13 Zn 0.75805(4) 0.30339(5) 0.62479(4)
Zn6 Zn 0.74195(4) 0.80339(5) 0.37521(4)
H69_2 H 0.9935 0.7070 0.2475
O21_2 O 0.7486(4) 0.8853(4) 0.4290(4)
O22_2 O 0.7320(6) 0.9456(4) 0.3383(4)
C109_2 C 0.7451(5) 0.9378(7) 0.4020(5)
C112_2 C 0.7349(4) 0.9972(3) 0.5082(3)
H76_2 H 0.7266 0.9549 0.5243
C117_2 C 0.9247(5) 0.8444(7) 0.3499(8)
H79_2 H 0.9531 0.8816 0.3597
C118_2 C 0.8653(5) 0.8497(7) 0.3597(9)
H80_2 H 0.8556 0.8890 0.3799
N13_2 N 0.8198(3) 0.7978(5) 0.3402(4)
C119_2 C 0.8362(4) 0.7463(7) 0.3113(5)
H81_2 H 0.8051 0.7123 0.2946
C120_2 C 0.8954(4) 0.7366(7) 0.3027(5)
H82_2 H 0.9029 0.6972 0.2811
C121_2 C 0.9427(4) 0.7839(6) 0.3254(6)
N17 N 0.6544(3) 0.7952(5) 0.3038(3)
O26 O 0.7425(5) 0.7341(5) 0.4490(4)
C122_2 C 0.8941(5) 0.2653(7) 0.6781(5)
H83_2 H 0.8855 0.2515 0.6333
N14 N 0.8456(3) 0.2952(5) 0.6962(3)
C123_2 C 0.8609(4) 0.3176(6) 0.7582(4)
H84_2 H 0.8302 0.3431 0.7704
C124_2 C 0.9207(5) 0.3054(8) 0.8067(4)
H85_2 H 0.9278 0.3193 0.8512
C125_2 C 0.9689(4) 0.2734(6) 0.7903(4)
C126_2 C 0.9554(5) 0.2547(7) 0.7237(5)
H86_2 H 0.9877 0.2350 0.7093
Zn1_2 Zn 0.23716(3) 0.22598(4) 0.71031(3)
O1_2 O 0.1577(2) 0.2393(3) 0.6328(2)
N2_2 N 0.2979(2) 0.2638(3) 0.6641(3)
N4_2 N 0.3788(2) 0.2991(4) 0.6261(3)
O2_2 O 0.2343(3) 0.1298(3) 0.7348(3)
C3_2 C 0.0999(3) 0.2303(6) 0.6320(4)
C4_2 C 0.2371(4) 0.5565(4) 0.7708(3)
C5_2 C 0.0491(3) 0.2292(6) 0.5638(3)
C6_2 C 0.2872(4) 0.1100(4) 0.7817(4)
C8_2 C 0.4414(4) 0.3055(5) 0.6263(4)
H3_2 H 0.4503 0.3321 0.5933
C9_2 C 0.1839(4) 0.5611(4) 0.7924(4)
H4_2 H 0.1499 0.5298 0.7777
C10_2 C 0.3603(3) 0.2583(4) 0.6718(3)
O4_2 O 0.0851(3) 0.2184(7) 0.6824(3)
C12_2 C 0.4103(3) 0.2219(5) 0.7185(3)
H6_2 H 0.4008 0.1918 0.7487
C14_2 C 0.19028(17) 0.4655(3) 0.6812(3)
H8_2 H 0.1488 0.4821 0.6757
C15_2 C 0.2442(2) 0.4966(2) 0.7271(2)
C16_2 C 0.30628(19) 0.4717(3) 0.7352(3)
H9_2 H 0.3424 0.4926 0.7659
C17_2 C 0.31435(16) 0.4156(3) 0.6975(3)
H10_2 H 0.3559 0.3989 0.7029
C18_2 C 0.2604(2) 0.3844(2) 0.6516(2)
C19_2 C 0.19835(17) 0.4094(2) 0.6434(2)
H11_2 H 0.1622 0.3885 0.6127
C23_2 C 0.33694(18) 0.0070(2) 0.8504(2)
H14_2 H 0.3766 0.0300 0.8621
C24_2 C 0.2814(2) 0.0375(2) 0.8064(2)
C25_2 C 0.22216(19) 0.0031(3) 0.7890(2)
H15_2 H 0.1850 0.0235 0.7596
C27_2 C 0.4735(3) 0.2304(6) 0.7200(4)
H17_2 H 0.5065 0.2070 0.7525
C29_2 C 0.2699(3) 0.3197(4) 0.6139(3)
H18_2 H 0.2283 0.3050 0.5814
O5_2 O 0.3348(3) 0.1451(3) 0.8062(3)
C30_2 C 0.4899(4) 0.2741(5) 0.6731(5)
C31_2 C 0.3207(3) 0.3303(4) 0.5774(3)
H19_2 H 0.3082 0.3068 0.5341
H20_2 H 0.3273 0.3787 0.5705
C32_2 C 0.2847(4) 0.6063(4) 0.7932(5)
H21_2 H 0.3208 0.6066 0.7783
O7_2 O 0.7514(4) 0.3853(4) 0.5710(4)
C33_2 C 0.0640(3) 0.2298(9) 0.5062(4)
H22_2 H 0.1075 0.2322 0.5086
O8_2 O 0.7680(6) 0.4456(4) 0.6617(4)
C35_2 C 0.7549(5) 0.4378(7) 0.5980(5)
C37_2 C 0.7609(4) 0.5559(3) 0.4526(3)
H25_2 H 0.7665 0.5528 0.4103
C38_2 C 0.7651(4) 0.4972(3) 0.4918(3)
H26_2 H 0.7734 0.4549 0.4757
C39_2 C 0.7568(3) 0.5019(3) 0.5550(3)
C40_2 C 0.7443(4) 0.5652(4) 0.5791(3)
H27_2 H 0.7388 0.5683 0.6214
C41_2 C 0.7402(4) 0.6239(3) 0.5399(3)
H28_2 H 0.7318 0.6662 0.5560
C42_2 C 0.7485(4) 0.6192(3) 0.4767(3)
C43_2 C 0.5753(5) 0.3444(7) 0.6501(8)
H29_2 H 0.5469 0.3816 0.6403
C44_2 C 0.6347(5) 0.3497(7) 0.6403(9)
H30_2 H 0.6444 0.3890 0.6201
N5_2 N 0.6802(3) 0.2978(5) 0.6598(4)
C45_2 C 0.6638(4) 0.2463(7) 0.6887(5)
H31_2 H 0.6949 0.2123 0.7054
C46_2 C 0.6046(4) 0.2366(7) 0.6973(5)
H32_2 H 0.5971 0.1972 0.7189
C47_2 C 0.5573(4) 0.2839(6) 0.6746(6)
C62_2 C 0.1820(4) 0.6135(5) 0.8368(4)
H43_2 H 0.1457 0.6164 0.8510
C65_2 C 0.2778(4) 0.6540(5) 0.8367(5)
H46_2 H 0.3109 0.6863 0.8520
N8_2 N 0.2280(3) 0.6591(3) 0.8600(3)
C70_2 C 0.7474(7) 0.6800(7) 0.4260(7)
O12_2 O 0.7377(5) 0.6656(5) 0.3655(5)
C74_2 C 0.0165(4) 0.2270(8) 0.4435(4)
H50_2 H 0.0290 0.2234 0.4049
Zn9_2 Zn 0.22790(3) 0.72754(5) 0.93464(4)
N19_2 N 0.2406(2) 0.2897(3) 0.7906(3)
N1_2 N 0.2921(2) 0.6974(3) 0.0231(3)
N3_2 N 0.3733(3) 0.6878(3) 0.1219(3)
C2_2 C 0.3480(3) 0.7210(4) 0.0614(3)
C7_2 C 0.3286(4) 0.6318(4) 0.1282(4)
H1_2 H 0.3108 0.6408 0.1645
H2_2 H 0.3502 0.5875 0.1355
C11_2 C 0.2756(3) 0.6362(4) 0.0573(3)
H5_2 H 0.2335 0.6445 0.0638
C13_2 C 0.4433(4) 0.7914(6) 0.0959(4)
H7_2 H 0.4689 0.8257 0.0866
C26_2 C 0.4305(3) 0.7032(4) 0.1683(4)
H16_2 H 0.4452 0.6776 0.2080
C28_2 C 0.4674(3) 0.7555(5) 0.1581(4)
C36_2 C 0.3850(4) 0.7783(5) 0.0495(4)
H24_2 H 0.3690 0.8054 0.0109
C48_2 C 0.6059(5) 0.7653(7) 0.3219(5)
H33_2 H 0.6145 0.7515 0.3667
C49_2 C 0.6391(4) 0.8176(6) 0.2418(4)
H34_2 H 0.6698 0.8431 0.2296
C50_2 C 0.5793(5) 0.8054(8) 0.1933(4)
H35_2 H 0.5722 0.8193 0.1488
C51_2 C 0.5311(4) 0.7734(6) 0.2097(4)
C52_2 C 0.5446(5) 0.7547(7) 0.2763(5)
H36_2 H 0.5123 0.7350 0.2907
H39_2 H 0.3585 0.5781 0.0023
C58_2 C 0.2703(2) 0.5703(2) 0.0149(2)
H40_2 H 0.1802 0.5431 0.0143
C69_2 C 0.0655(3) 0.7068(6) 0.0344(4)
H48_2 H 0.1096 0.7041 0.0588
C77_2 C 0.0202(4) 0.7099(8) 0.0679(4)
H51_2 H 0.0346 0.7137 0.1150
C1_2 C 0.2710(5) 0.8376(5) 0.8881(4)
O3_2 O 0.3184(3) 0.8000(3) 0.8985(3)
C20_2 C 0.2185(2) 0.9383(3) 0.8155(3)
H12_2 H 0.1788 0.9154 0.8038
C21_2 C 0.2740(3) 0.9078(2) 0.8595(3)
C22_2 C 0.3332(2) 0.9422(3) 0.8769(2)
H13_2 H 0.3704 0.9218 0.9064
O6_2 O 0.2208(4) 0.8216(4) 0.8986(4)
C53_2 C 0.2532(4) 0.3929(4) 0.8880(3)
C54_2 C 0.2088(2) 0.4719(2) 0.9592(3)
H37_2 H 0.1713 0.4453 0.9483
C55_2 C 0.2596(2) 0.4531(2) 0.9358(2)
C56_2 C 0.31565(19) 0.4928(3) 0.9520(3)
H38_2 H 0.3496 0.4803 0.9363
C57_2 C 0.32101(19) 0.5514(3) 0.9915(3)
C59_2 C 0.2142(2) 0.5305(3) 0.9987(3)
C60_2 C 0.1896(3) 0.3240(4) 0.7951(4)
H41_2 H 0.1489 0.3132 0.7648
C61_2 C 0.2984(4) 0.3056(5) 0.8377(4)
H42_2 H 0.3352 0.2818 0.8367
C63_2 C 0.1933(3) 0.3754(4) 0.8426(4)
H44_2 H 0.1559 0.3977 0.8438
C64_2 C 0.3054(4) 0.3540(5) 0.8858(4)
H45_2 H 0.3461 0.3611 0.9179
O9_2 O 0.1520(2) 0.7121(4) 0.9628(3)
O10_2 O 0.0755(3) 0.7115(6) 0.8668(3)
C66_2 C 0.0453(3) 0.7077(5) 0.9658(3)
C67_2 C 0.0943(3) 0.7090(5) 0.9268(4)
loop_
_geom_bond_atom_site_label_1
_geom_bond_atom_site_label_2
_geom_bond_site_symmetry_1
_geom_bond_site_symmetry_2
C37 H25 1_555 1_555
C40 C39 1_555 1_555
H27 C40 1_555 1_555
C41 C40 1_555 1_555
H28 C41 1_555 1_555
C42 C37 1_555 1_555
O11 C70 1_555 1_555
C70 C42 1_555 1_555
O12 C70 1_555 1_555
Zn15 O11 1_555 1_555
C41 C42 1_555 1_555
C48 H33 1_555 1_555
N6 C48 1_555 1_555
C49 N6 1_555 1_555
H34 C49 1_555 1_555
C50 C49 1_555 1_555
H35 C50 1_555 1_555
C52 C48 1_555 1_555
H36 C52 1_555 1_555
Zn15 N6 1_555 1_555
C50 C51 1_555 1_555
C51 C52 1_555 1_555
Zn3 O7 1_555 1_555
O7 C35 1_555 1_555
O8 C35 1_555 1_555
H26 C38 1_555 1_555
C43 H29 1_555 1_555
C44 C43 1_555 1_555
H30 C44 1_555 1_555
N5 Zn3 1_555 1_555
C45 N5 1_555 1_555
H31 C45 1_555 1_555
C46 C45 1_555 1_555
H32 C46 1_555 1_555
N18 Zn3 1_555 1_555
O27 Zn3 1_555 1_555
C43 C47 1_555 1_555
C44 N5 1_555 1_555
C46 C47 1_555 1_555
H23 C34 1_555 1_555
O13 C71 1_555 1_555
C71 C72 1_555 1_555
C72 C73 1_555 1_555
O14 C71 1_555 1_555
C73 C34 1_555 1_555
H49 C73 1_555 1_555
Zn4 O13 1_555 1_555
Zn15 O21 1_555 1_555
N10 Zn4 1_555 1_555
N12 C84 1_555 1_555
O17 Zn4 1_555 1_555
C81 C85 1_555 1_555
C82 O17 1_555 1_555
C84 H55 1_555 1_555
C85 H56 1_555 1_555
C86 N10 1_555 1_555
C88 C86 1_555 1_555
H58 C88 1_555 1_555
C90 H60 1_555 1_555
C91 C81 1_555 1_555
C92 C91 1_555 1_555
H61 C92 1_555 1_555
C93 C92 1_555 1_555
H62 C93 1_555 1_555
C94 C93 1_555 1_555
C95 C90 1_555 1_555
H63 C95 1_555 1_555
H66 C99 1_555 1_555
C100 C82 1_555 1_555
H67 C101 1_555 1_555
C103 C88 1_555 1_555
H69 C103 1_555 1_555
C105 N10 1_555 1_555
H70 C105 1_555 1_555
O19 C82 1_555 1_555
C106 C84 1_555 1_555
C107 N12 1_555 1_555
H71 C107 1_555 1_555
H72 C107 1_555 1_555
C108 C81 1_555 1_555
H73 C108 1_555 1_555
O21 C109 1_555 1_555
O22 C109 1_555 1_555
C109 C113 1_555 1_555
C111 H75 1_555 1_555
C112 C111 1_555 1_555
H76 C112 1_555 1_555
C113 C112 1_555 1_555
C114 C113 1_555 1_555
H77 C114 1_555 1_555
C115 C114 1_555 1_555
H78 C115 1_555 1_555
C116 C111 1_555 1_555
C117 H79 1_555 1_555
C118 C117 1_555 1_555
H80 C118 1_555 1_555
N13 Zn15 1_555 1_555
C119 N13 1_555 1_555
H81 C119 1_555 1_555
C120 C119 1_555 1_555
H82 C120 1_555 1_555
C121 C106 1_555 1_555
C136 C85 1_555 1_555
H93 C136 1_555 1_555
C139 C108 1_555 1_555
H96 C139 1_555 1_555
N16 C136 1_555 1_555
O27 C140 1_555 1_555
C140 C116 1_555 1_555
O24 C140 1_555 1_555
Zn11 N16 1_555 1_555
N20 Zn4 1_555 1_555
N12 C86 1_555 1_555
C90 C91 1_555 1_555
C94 C95 1_555 1_555
C94 C105 1_555 1_555
C99 C100 1_555 1_555
C100 C101 1_555 1_555
C103 C106 1_555 1_555
C105 C107 1_555 1_555
C115 C116 1_555 1_555
C117 C121 1_555 1_555
C118 N13 1_555 1_555
C120 C121 1_555 1_555
C139 N16 1_555 1_555
O15 C76 1_555 1_555
O16 C76 1_555 1_555
C75 C76 1_555 1_555
Zn11 O15 1_555 1_555
H47 C68 1_555 1_555
C78 C68 1_555 1_555
H52 C78 1_555 1_555
C79 O18 1_555 1_555
C96 H64 1_555 1_555
C97 C79 1_555 1_555
C98 C97 1_555 1_555
H65 C98 1_555 1_555
O20 Zn11 1_555 1_555
C127 C129 1_555 1_555
C128 H87 1_555 1_555
C129 C128 1_555 1_555
C130 C129 1_555 1_555
H88 C130 1_555 1_555
C131 C130 1_555 1_555
C133 C128 1_555 1_555
C134 H91 1_555 1_555
C135 H92 1_555 1_555
C137 C127 1_555 1_555
H94 C137 1_555 1_555
C138 C127 1_555 1_555
H95 C138 1_555 1_555
N20 C134 1_555 1_555
C79 O20 1_555 1_555
C96 C97 1_555 1_555
C134 C137 1_555 1_555
C135 C138 1_555 1_555
C135 N20 1_555 1_555
N9 C80 1_555 1_555
N11 C80 1_555 1_555
C80 C110 1_555 1_555
C83 N11 1_555 1_555
H53 C83 1_555 1_555
H54 C83 1_555 1_555
C87 N9 1_555 1_555
H57 C87 1_555 1_555
C89 H59 1_555 1_555
C102 N11 1_555 1_555
H68 C102 1_555 1_555
C104 C89 1_555 1_555
C110 C89 1_555 1_555
H74 C110 1_555 1_555
C122 H83 1_555 1_555
N18 C122 1_555 1_555
C123 N18 1_555 1_555
H84 C123 1_555 1_555
C124 C123 1_555 1_555
H85 C124 1_555 1_555
C125 C104 1_555 1_555
C126 C122 1_555 1_555
H86 C126 1_555 1_555
C132 C87 1_555 1_555
C83 C87 1_555 1_555
C102 C104 1_555 1_555
C124 C125 1_555 1_555
C125 C126 1_555 1_555
C4 C9 1_555 1_555
C9 H4 1_555 1_555
C32 C4 1_555 1_555
H21 C32 1_555 1_555
C62 C9 1_555 1_555
H43 C62 1_555 1_555
C65 C32 1_555 1_555
H46 C65 1_555 1_555
N8 C62 1_555 1_555
C81_2 C85_2 1_555 1_555
C85_2 H56_2 1_555 1_555
C108_2 C81_2 1_555 1_555
H73_2 C108_2 1_555 1_555
C136_2 C85_2 1_555 1_555
H93_2 C136_2 1_555 1_555
C139_2 C108_2 1_555 1_555
H96_2 C139_2 1_555 1_555
N16_2 C136_2 1_555 1_555
Zn9 N8 1_555 1_555
Zn11_2 N16_2 1_555 1_555
C65 N8 1_555 1_555
C139_2 N16_2 1_555 1_555
N1 C2 1_555 1_555
N3 C2 1_555 1_555
C2 C36 1_555 1_555
C7 N3 1_555 1_555
H1 C7 1_555 1_555
H2 C7 1_555 1_555
C11 N1 1_555 1_555
H5 C11 1_555 1_555
C13 H7 1_555 1_555
C26 N3 1_555 1_555
H16 C26 1_555 1_555
C28 C13 1_555 1_555
C36 C13 1_555 1_555
H24 C36 1_555 1_555
C58 C11 1_555 1_555
H48 C69 1_555 1_555
O15_2 C76_2 1_555 1_555
O16_2 C76_2 1_555 1_555
C75_2 C76_2 1_555 1_555
C77 C69 1_555 1_555
H51 C77 1_555 1_555
Zn11_2 O15_2 1_555 1_555
C7 C11 1_555 1_555
C26 C28 1_555 1_555
C75_2 C77 1_555 1_555
Zn1 O1 1_555 1_555
O1 C3 1_555 1_555
C1 O3 1_555 1_555
N2 Zn1 1_555 1_555
N4 C8 1_555 1_555
O2 Zn1 1_555 1_555
C3 C5 1_555 1_555
C5 C33 1_555 1_555
C6 O2 1_555 1_555
C8 H3 1_555 1_555
C10 N2 1_555 1_555
O4 C3 1_555 1_555
C12 C10 1_555 1_555
H6 C12 1_555 1_555
C14 H8 1_555 1_555
C16 C15 1_555 1_555
H9 C16 1_555 1_555
C17 C16 1_555 1_555
H10 C17 1_555 1_555
C18 C17 1_555 1_555
C19 C14 1_555 1_555
H11 C19 1_555 1_555
C20 H12 1_555 1_555
C21 C1 1_555 1_555
C22 C21 1_555 1_555
H13 C22 1_555 1_555
C23 C22 1_555 1_555
H14 C23 1_555 1_555
C24 C6 1_555 1_555
C25 C20 1_555 1_555
H15 C25 1_555 1_555
C27 C12 1_555 1_555
C29 N2 1_555 1_555
H18 C29 1_555 1_555
O5 C6 1_555 1_555
C30 C8 1_555 1_555
C31 N4 1_555 1_555
H19 C31 1_555 1_555
H20 C31 1_555 1_555
O6 Zn9 1_555 1_555
C33 H22 1_555 1_555
C34_2 C5 1_555 1_555
H23_2 C34_2 1_555 1_555
O9 Zn9 1_555 1_555
O10 C67 1_555 1_555
C66 C67 1_555 1_555
C67 O9 1_555 1_555
C68_2 C66 1_555 1_555
H47_2 C68_2 1_555 1_555
O13_2 C71_2 1_555 1_555
C71_2 C72_2 1_555 1_555
C72_2 C73_2 1_555 1_555
O14_2 C71_2 1_555 1_555
C73_2 C34_2 1_555 1_555
H49_2 C73_2 1_555 1_555
C74 C33 1_555 1_555
H50 C74 1_555 1_555
C78_2 C68_2 1_555 1_555
H52_2 C78_2 1_555 1_555
Zn4_2 O13_2 1_555 1_555
C79_2 O18_2 1_555 1_555
N10_2 Zn4_2 1_555 1_555
N12_2 C84_2 1_555 1_555
O17_2 Zn4_2 1_555 1_555
C82_2 O17_2 1_555 1_555
C84_2 H55_2 1_555 1_555
C86_2 N10_2 1_555 1_555
C88_2 C86_2 1_555 1_555
H58_2 C88_2 1_555 1_555
C90_2 H60_2 1_555 1_555
C92_2 C91_2 1_555 1_555
H61_2 C92_2 1_555 1_555
C93_2 C92_2 1_555 1_555
H62_2 C93_2 1_555 1_555
C94_2 C93_2 1_555 1_555
C95_2 C90_2 1_555 1_555
H63_2 C95_2 1_555 1_555
C96_2 H64_2 1_555 1_555
C97_2 C79_2 1_555 1_555
C98_2 C97_2 1_555 1_555
H65_2 C98_2 1_555 1_555
C99_2 C98_2 1_555 1_555
H66_2 C99_2 1_555 1_555
C100_2 C82_2 1_555 1_555
C101_2 C96_2 1_555 1_555
H67_2 C101_2 1_555 1_555
C103_2 C88_2 1_555 1_555
C105_2 N10_2 1_555 1_555
H70_2 C105_2 1_555 1_555
O19_2 C82_2 1_555 1_555
C106_2 C84_2 1_555 1_555
C107_2 N12_2 1_555 1_555
H71_2 C107_2 1_555 1_555
H72_2 C107_2 1_555 1_555
O20_2 Zn11_2 1_555 1_555
N19 Zn1 1_555 1_555
N20_2 Zn4_2 1_555 1_555
C1 O6 1_555 1_555
N4 C10 1_555 1_555
C14 C15 1_555 1_555
C18 C19 1_555 1_555
C18 C29 1_555 1_555
C20 C21 1_555 1_555
C23 C24 1_555 1_555
C24 C25 1_555 1_555
C27 C30 1_555 1_555
C29 C31 1_555 1_555
C72_2 C74 1_555 1_555
C79_2 O20_2 1_555 1_555
N12_2 C86_2 1_555 1_555
C90_2 C91_2 1_555 1_555
C94_2 C95_2 1_555 1_555
C94_2 C105_2 1_555 1_555
C96_2 C97_2 1_555 1_555
C99_2 C100_2 1_555 1_555
C100_2 C101_2 1_555 1_555
C103_2 C106_2 1_555 1_555
C105_2 C107_2 1_555 1_555
N9_2 C80_2 1_555 1_555
N11_2 C80_2 1_555 1_555
C80_2 C110_2 1_555 1_555
C83_2 N11_2 1_555 1_555
H53_2 C83_2 1_555 1_555
H54_2 C83_2 1_555 1_555
C87_2 N9_2 1_555 1_555
H57_2 C87_2 1_555 1_555
C89_2 H59_2 1_555 1_555
C102_2 N11_2 1_555 1_555
H68_2 C102_2 1_555 1_555
C104_2 C89_2 1_555 1_555
C110_2 C89_2 1_555 1_555
H74_2 C110_2 1_555 1_555
C132_2 C87_2 1_555 1_555
C83_2 C87_2 1_555 1_555
C102_2 C104_2 1_555 1_555
C53 C55 1_555 1_555
C54 H37 1_555 1_555
C55 C54 1_555 1_555
C56 C55 1_555 1_555
H38 C56 1_555 1_555
C60 H41 1_555 1_555
C61 H42 1_555 1_555
C63 C53 1_555 1_555
H44 C63 1_555 1_555
C64 C53 1_555 1_555
H45 C64 1_555 1_555
N19 C60 1_555 1_555
C127_2 C129_2 1_555 1_555
C128_2 H87_2 1_555 1_555
C129_2 C128_2 1_555 1_555
C130_2 C129_2 1_555 1_555
H88_2 C130_2 1_555 1_555
C134_2 H91_2 1_555 1_555
C135_2 H92_2 1_555 1_555
C137_2 C127_2 1_555 1_555
H94_2 C137_2 1_555 1_555
C138_2 C127_2 1_555 1_555
H95_2 C138_2 1_555 1_555
N20_2 C134_2 1_555 1_555
C60 C63 1_555 1_555
C61 C64 1_555 1_555
C61 N19 1_555 1_555
C134_2 C137_2 1_555 1_555
C135_2 C138_2 1_555 1_555
C135_2 N20_2 1_555 1_555
C111_2 H75_2 1_555 1_555
C114_2 C113_2 1_555 1_555
H77_2 C114_2 1_555 1_555
C115_2 C114_2 1_555 1_555
H78_2 C115_2 1_555 1_555
C116_2 C111_2 1_555 1_555
O23 C140_2 1_555 1_555
C140_2 C116_2 1_555 1_555
O24_2 C140_2 1_555 1_555
Zn13 O23 1_555 1_555
C115_2 C116_2 1_555 1_555
Zn6 O21_2 1_555 1_555
O21_2 C109_2 1_555 1_555
O22_2 C109_2 1_555 1_555
H76_2 C112_2 1_555 1_555
C117_2 H79_2 1_555 1_555
C118_2 C117_2 1_555 1_555
H80_2 C118_2 1_555 1_555
N13_2 Zn6 1_555 1_555
C119_2 N13_2 1_555 1_555
H81_2 C119_2 1_555 1_555
C120_2 C119_2 1_555 1_555
H82_2 C120_2 1_555 1_555
N17 Zn6 1_555 1_555
O26 Zn6 1_555 1_555
C117_2 C121_2 1_555 1_555
C118_2 N13_2 1_555 1_555
C120_2 C121_2 1_555 1_555
C122_2 H83_2 1_555 1_555
N14 C122_2 1_555 1_555
C123_2 N14 1_555 1_555
H84_2 C123_2 1_555 1_555
C124_2 C123_2 1_555 1_555
H85_2 C124_2 1_555 1_555
C126_2 C122_2 1_555 1_555
H86_2 C126_2 1_555 1_555
Zn13 N14 1_555 1_555
C124_2 C125_2 1_555 1_555
C125_2 C126_2 1_555 1_555
Zn1_2 O1_2 1_555 1_555
Zn13 O7_2 1_555 1_555
O1_2 C3_2 1_555 1_555
N2_2 Zn1_2 1_555 1_555
N4_2 C8_2 1_555 1_555
O2_2 Zn1_2 1_555 1_555
C3_2 C5_2 1_555 1_555
C4_2 C9_2 1_555 1_555
C5_2 C33_2 1_555 1_555
C6_2 O2_2 1_555 1_555
C8_2 H3_2 1_555 1_555
C9_2 H4_2 1_555 1_555
C10_2 N2_2 1_555 1_555
O4_2 C3_2 1_555 1_555
C12_2 C10_2 1_555 1_555
H6_2 C12_2 1_555 1_555
C14_2 H8_2 1_555 1_555
C15_2 C4_2 1_555 1_555
C16_2 C15_2 1_555 1_555
H9_2 C16_2 1_555 1_555
C17_2 C16_2 1_555 1_555
H10_2 C17_2 1_555 1_555
C18_2 C17_2 1_555 1_555
C19_2 C14_2 1_555 1_555
H11_2 C19_2 1_555 1_555
H14_2 C23_2 1_555 1_555
C24_2 C6_2 1_555 1_555
H15_2 C25_2 1_555 1_555
C27_2 C12_2 1_555 1_555
H17_2 C27_2 1_555 1_555
C29_2 N2_2 1_555 1_555
H18_2 C29_2 1_555 1_555
O5_2 C6_2 1_555 1_555
C30_2 C8_2 1_555 1_555
C31_2 N4_2 1_555 1_555
H19_2 C31_2 1_555 1_555
H20_2 C31_2 1_555 1_555
C32_2 C4_2 1_555 1_555
H21_2 C32_2 1_555 1_555
O7_2 C35_2 1_555 1_555
C33_2 H22_2 1_555 1_555
O8_2 C35_2 1_555 1_555
C35_2 C39_2 1_555 1_555
C37_2 H25_2 1_555 1_555
C38_2 C37_2 1_555 1_555
H26_2 C38_2 1_555 1_555
C39_2 C38_2 1_555 1_555
C40_2 C39_2 1_555 1_555
H27_2 C40_2 1_555 1_555
C41_2 C40_2 1_555 1_555
H28_2 C41_2 1_555 1_555
C42_2 C37_2 1_555 1_555
C43_2 H29_2 1_555 1_555
C44_2 C43_2 1_555 1_555
H30_2 C44_2 1_555 1_555
N5_2 Zn13 1_555 1_555
C45_2 N5_2 1_555 1_555
H31_2 C45_2 1_555 1_555
C46_2 C45_2 1_555 1_555
H32_2 C46_2 1_555 1_555
C47_2 C30_2 1_555 1_555
C62_2 C9_2 1_555 1_555
H43_2 C62_2 1_555 1_555
C65_2 C32_2 1_555 1_555
H46_2 C65_2 1_555 1_555
N8_2 C62_2 1_555 1_555
O26 C70_2 1_555 1_555
C70_2 C42_2 1_555 1_555
O12_2 C70_2 1_555 1_555
C74_2 C33_2 1_555 1_555
H50_2 C74_2 1_555 1_555
Zn9_2 N8_2 1_555 1_555
N19_2 Zn1_2 1_555 1_555
N4_2 C10_2 1_555 1_555
C14_2 C15_2 1_555 1_555
C18_2 C19_2 1_555 1_555
C18_2 C29_2 1_555 1_555
C23_2 C24_2 1_555 1_555
C24_2 C25_2 1_555 1_555
C27_2 C30_2 1_555 1_555
C29_2 C31_2 1_555 1_555
C41_2 C42_2 1_555 1_555
C43_2 C47_2 1_555 1_555
C44_2 N5_2 1_555 1_555
C46_2 C47_2 1_555 1_555
C65_2 N8_2 1_555 1_555
N1_2 C2_2 1_555 1_555
N3_2 C2_2 1_555 1_555
C2_2 C36_2 1_555 1_555
C7_2 N3_2 1_555 1_555
H1_2 C7_2 1_555 1_555
H2_2 C7_2 1_555 1_555
C11_2 N1_2 1_555 1_555
H5_2 C11_2 1_555 1_555
C13_2 H7_2 1_555 1_555
C26_2 N3_2 1_555 1_555
H16_2 C26_2 1_555 1_555
C28_2 C13_2 1_555 1_555
C36_2 C13_2 1_555 1_555
H24_2 C36_2 1_555 1_555
C48_2 H33_2 1_555 1_555
N17 C48_2 1_555 1_555
C49_2 N17 1_555 1_555
H34_2 C49_2 1_555 1_555
C50_2 C49_2 1_555 1_555
H35_2 C50_2 1_555 1_555
C51_2 C28_2 1_555 1_555
C52_2 C48_2 1_555 1_555
H36_2 C52_2 1_555 1_555
C58_2 C11_2 1_555 1_555
H48_2 C69_2 1_555 1_555
C77_2 C69_2 1_555 1_555
H51_2 C77_2 1_555 1_555
C7_2 C11_2 1_555 1_555
C26_2 C28_2 1_555 1_555
C50_2 C51_2 1_555 1_555
C51_2 C52_2 1_555 1_555
C1_2 O3_2 1_555 1_555
C20_2 H12_2 1_555 1_555
C21_2 C1_2 1_555 1_555
C22_2 C21_2 1_555 1_555
H13_2 C22_2 1_555 1_555
O6_2 Zn9_2 1_555 1_555
C53_2 C55_2 1_555 1_555
C54_2 H37_2 1_555 1_555
C55_2 C54_2 1_555 1_555
C56_2 C55_2 1_555 1_555
H38_2 C56_2 1_555 1_555
C57_2 C56_2 1_555 1_555
C59_2 C54_2 1_555 1_555
C60_2 H41_2 1_555 1_555
C61_2 H42_2 1_555 1_555
C63_2 C53_2 1_555 1_555
H44_2 C63_2 1_555 1_555
C64_2 C53_2 1_555 1_555
H45_2 C64_2 1_555 1_555
N19_2 C60_2 1_555 1_555
O9_2 Zn9_2 1_555 1_555
O10_2 C67_2 1_555 1_555
C66_2 C67_2 1_555 1_555
C67_2 O9_2 1_555 1_555
C1_2 O6_2 1_555 1_555
C20_2 C21_2 1_555 1_555
C60_2 C63_2 1_555 1_555
C61_2 C64_2 1_555 1_555
C61_2 N19_2 1_555 1_555

#END
