
###############################################################################
#
# This file contains modified crystal structure data generated from the
# MOF subset of the Cambridge Structural Database (CSD) v543 
# hosted by the Cambridge Crystallographic Data Centre (CCDC).
#
# This work is licensed under the Creative Commons
# Attribution-NonCommercial-ShareAlike 4.0 International License.
# To view a copy of this license, visit
# http://creativecommons.org/licenses/by-nc-sa/4.0/
# or send a letter to
# Creative Commons, PO Box 1866, Mountain View, CA 94042, USA.
#
# CIF created using the CSD Python API on 29 September 2022
# The structure has been converted into the P1 space group
# The structure has a 3D framework
# The original CSD entry ATEBEI is in the monoclinic crystal system
# The framework has been calculated to contain at least 10.0% void space
# The void calculation uses a probe of radius 1.32A, grid spacing 0.4
#
###############################################################################

data_ATEBEI
_chemical_formula_moiety         '(C196 H116 N16 O44 Yb8)n'
_symmetry_cell_setting           triclinic
_symmetry_space_group_name_H-M   'P 1'
_symmetry_Int_Tables_number      1
_space_group_name_Hall           'P 1'
loop_
_symmetry_equiv_pos_site_id
_symmetry_equiv_pos_as_xyz
1 x,y,z
_cell_length_a                   19.279(3)
_cell_length_b                   10.4970(12)
_cell_length_c                   23.688(3)
_cell_angle_alpha                90
_cell_angle_beta                 102.654(2)
_cell_angle_gamma                90
_cell_volume                     4677.34
loop_
_atom_site_label
_atom_site_type_symbol
_atom_site_fract_x
_atom_site_fract_y
_atom_site_fract_z
H13 H 0.0000 0.0094 0.2500
Yb3 Yb 0.616141(15) 0.03241(3) 0.085073(12)
H13_2 H 1.0000 0.0094 0.2500
Yb4 Yb 0.383859(15) 0.03241(3) 0.414927(12)
O1 O 0.7256(3) 0.0930(6) 0.0593(2)
O2 O 0.5842(3) 0.0453(5) 0.1761(3)
O3 O 0.7035(3) 0.1660(6) 0.1402(2)
O4 O 0.9196(3) 0.3798(6) 0.0011(2)
O5 O 0.5473(3) 0.1970(6) 0.1128(2)
C1 C 0.5000 0.1542(12) 0.2500
H1 H 0.5000 0.0656 0.2500
C2 C 0.8162(4) 0.2166(7) 0.1222(3)
C3 C 0.9541(4) 0.3773(7) 0.0523(3)
C4 C 0.7450(4) 0.1565(8) 0.1060(3)
C5 C 0.5540(4) 0.1504(8) 0.1630(3)
C7 C 0.5238(4) 0.2220(8) 0.2069(3)
C8 C 0.9178(4) 0.3187(8) 0.0972(3)
C9 C 0.9461(4) 0.3326(10) 0.1552(3)
H2 H 0.9900 0.3727 0.1664
C11 C 0.8509(4) 0.2592(8) 0.0801(3)
H3 H 0.8302 0.2485 0.0410
C12 C 0.8450(5) 0.2366(10) 0.1798(3)
H4 H 0.8194 0.2145 0.2073
C14 C 0.5250(7) 0.3535(10) 0.2064(4)
H6 H 0.5418 0.3973 0.1780
C22 C 0.9139(5) 0.2912(11) 0.1975(4)
H12 H 0.9360 0.2982 0.2364
C23 C 0.5000 0.4208(13) 0.2500
H13_3 H 0.5000 0.5094 0.2500
O7 O 0.4158(3) 0.0453(5) 0.3239(3)
O8 O 0.4527(3) 0.1970(6) 0.3872(2)
C26 C 0.4460(4) 0.1504(8) 0.3370(3)
C27 C 0.4762(4) 0.2220(8) 0.2931(3)
C28 C 0.4750(7) 0.3535(10) 0.2936(4)
H16 H 0.4582 0.3973 0.3220
O9 O 0.2744(3) 0.0930(6) 0.4407(2)
O10 O 0.2965(3) 0.1660(6) 0.3598(2)
O11 O 0.0804(3) 0.3798(6) 0.4989(2)
C29 C 0.1838(4) 0.2166(7) 0.3778(3)
C30 C 0.0459(4) 0.3773(7) 0.4477(3)
C31 C 0.2550(4) 0.1565(8) 0.3940(3)
C33 C 0.0822(4) 0.3187(8) 0.4028(3)
C34 C 0.0539(4) 0.3326(10) 0.3448(3)
H17 H 0.0100 0.3727 0.3336
C36 C 0.1491(4) 0.2592(8) 0.4199(3)
H18 H 0.1698 0.2485 0.4590
C37 C 0.1550(5) 0.2366(10) 0.3202(3)
H19 H 0.1806 0.2145 0.2927
C46 C 0.0861(5) 0.2912(11) 0.3025(4)
H26 H 0.0640 0.2982 0.2636
Yb6 Yb 0.116141(15) 0.46759(3) 0.585073(12)
O14 O 0.4196(3) 0.1202(6) 0.5011(2)
Yb5 Yb 0.883859(15) 0.46759(3) 0.914927(12)
O13 O 0.5804(3) 0.1202(6) 0.9989(2)
C1_2 C 0.0000 0.3458(12) 0.7500
H1_2 H -0.0000 0.4344 0.7500
C23_2 C 0.0000 0.0792(13) 0.7500
O7_2 O 0.0842(3) 0.4547(5) 0.6761(3)
O8_2 O 0.0473(3) 0.3030(6) 0.6128(2)
C26_2 C 0.0540(4) 0.3496(8) 0.6630(3)
C27_2 C 0.0238(4) 0.2780(8) 0.7069(3)
C28_2 C 0.0250(7) 0.1465(10) 0.7064(4)
H16_2 H 0.0418 0.1027 0.6780
O9_2 O 0.2256(3) 0.4070(6) 0.5593(2)
O10_2 O 0.2035(3) 0.3340(6) 0.6402(2)
O12 O 0.5140(3) 0.0780(7) 0.5708(2)
N3 N 0.1370(3) 0.6622(7) 0.5308(3)
N4 N 0.1987(4) 0.6218(7) 0.6437(3)
C29_2 C 0.3162(4) 0.2834(7) 0.6222(3)
C30_2 C 0.4541(4) 0.1227(7) 0.5523(3)
C31_2 C 0.2450(4) 0.3435(8) 0.6060(3)
C32 C 0.2188(4) 0.7257(9) 0.6189(4)
C33_2 C 0.4178(4) 0.1813(8) 0.5972(3)
C34_2 C 0.4461(4) 0.1674(10) 0.6552(3)
H17_2 H 0.4900 0.1273 0.6664
C35 C 0.1843(4) 0.7511(9) 0.5586(3)
C36_2 C 0.3509(4) 0.2408(8) 0.5801(3)
H18_2 H 0.3302 0.2515 0.5410
C37_2 C 0.3450(5) 0.2634(10) 0.6798(3)
H19_2 H 0.3194 0.2855 0.7073
C38 C 0.1043(5) 0.6844(9) 0.4767(4)
H20 H 0.0719 0.6249 0.4575
C39 C 0.2674(5) 0.8155(10) 0.6482(4)
C40 C 0.2019(5) 0.8600(10) 0.5306(4)
C41 C 0.1640(5) 0.8795(10) 0.4730(5)
H21 H 0.1725 0.9525 0.4533
C42 C 0.2817(5) 0.6833(11) 0.7320(4)
H22 H 0.3038 0.6639 0.7700
C43 C 0.2301(6) 0.6047(11) 0.6985(4)
H23 H 0.2165 0.5334 0.7167
C44 C 0.2972(6) 0.7891(11) 0.7051(5)
H24 H 0.3295 0.8469 0.7260
C45 C 0.1171(6) 0.7960(10) 0.4471(4)
H25 H 0.0922 0.8102 0.4093
C46_2 C 0.4139(5) 0.2088(11) 0.6975(4)
H26_2 H 0.4360 0.2018 0.7364
C47 C 0.2518(9) 0.9493(11) 0.5637(6)
C48 C 0.2841(6) 0.9268(11) 0.6167(5)
H28 H 0.3190 0.9832 0.6352
O16 O 0.0140(3) 0.5780(7) 0.5708(2)
C13 C 0.8957(5) 0.6844(9) 0.0233(4)
H5 H 0.9281 0.6249 0.0425
C17 C 0.8360(5) 0.8795(10) 0.0270(5)
H7 H 0.8275 0.9525 0.0467
C21 C 0.8829(6) 0.7960(10) 0.0529(4)
H11 H 0.9078 0.8102 0.0907
O1_2 O 0.7744(3) 0.4070(6) 0.9407(2)
O2_2 O 0.9158(3) 0.4547(5) 0.8239(3)
O3_2 O 0.7965(3) 0.3340(6) 0.8598(2)
O5_2 O 0.9527(3) 0.3030(6) 0.8872(2)
O6 O 0.4860(3) 0.0780(7) 0.9292(2)
N1 N 0.8630(3) 0.6622(7) 0.9692(3)
N2 N 0.8013(4) 0.6218(7) 0.8563(3)
C1_3 C 1.0000 0.3458(12) 0.7500
H1_3 H 1.0000 0.4344 0.7500
C2_2 C 0.6838(4) 0.2834(7) 0.8778(3)
C3_2 C 0.5459(4) 0.1227(7) 0.9477(3)
C4_2 C 0.7550(4) 0.3435(8) 0.8940(3)
C5_2 C 0.9460(4) 0.3496(8) 0.8370(3)
C6 C 0.7812(4) 0.7257(9) 0.8811(4)
C7_2 C 0.9762(4) 0.2780(8) 0.7931(3)
C8_2 C 0.5822(4) 0.1813(8) 0.9028(3)
C9_2 C 0.5539(4) 0.1674(10) 0.8448(3)
H2_2 H 0.5100 0.1273 0.8336
C10 C 0.8157(4) 0.7511(9) 0.9414(3)
C11_2 C 0.6491(4) 0.2408(8) 0.9199(3)
H3_2 H 0.6698 0.2515 0.9590
C12_2 C 0.6550(5) 0.2634(10) 0.8202(3)
H4_2 H 0.6806 0.2855 0.7927
C14_2 C 0.9750(7) 0.1465(10) 0.7936(4)
H6_2 H 0.9582 0.1027 0.8220
C15 C 0.7326(5) 0.8155(10) 0.8518(4)
C16 C 0.7981(5) 0.8600(10) 0.9694(4)
C18 C 0.7183(5) 0.6833(11) 0.7680(4)
H8 H 0.6962 0.6639 0.7300
C19 C 0.7699(6) 0.6047(11) 0.8015(4)
H9 H 0.7835 0.5334 0.7833
C20 C 0.7028(6) 0.7891(11) 0.7949(5)
H10 H 0.6705 0.8469 0.7740
C22_2 C 0.5861(5) 0.2088(11) 0.8025(4)
H12_2 H 0.5640 0.2018 0.7636
C23_3 C 1.0000 0.0792(13) 0.7500
C24 C 0.7482(9) 0.9493(11) 0.9363(6)
C25 C 0.7159(6) 0.9268(11) 0.8833(5)
H15 H 0.6810 0.9832 0.8648
O15 O 0.9860(3) 0.5780(7) 0.9292(2)
N1_2 N 0.3630(3) 0.1622(7) 0.9692(3)
N2_2 N 0.3013(4) 0.1218(7) 0.8563(3)
C6_2 C 0.2812(4) 0.2257(9) 0.8811(4)
C10_2 C 0.3157(4) 0.2511(9) 0.9414(3)
C15_2 C 0.2326(5) 0.3155(10) 0.8518(4)
C16_2 C 0.2981(5) 0.3600(10) 0.9694(4)
C18_2 C 0.2183(5) 0.1833(11) 0.7680(4)
H8_2 H 0.1962 0.1639 0.7300
C19_2 C 0.2699(6) 0.1047(11) 0.8015(4)
H9_2 H 0.2835 0.0334 0.7833
C20_2 C 0.2028(6) 0.2891(11) 0.7949(5)
H10_2 H 0.1705 0.3469 0.7740
C24_2 C 0.2482(9) 0.4493(11) 0.9363(6)
H14 H 0.2391 0.5251 0.9536
C25_2 C 0.2159(6) 0.4268(11) 0.8833(5)
H15_2 H 0.1810 0.4832 0.8648
N3_2 N 0.6370(3) 0.1622(7) 0.5308(3)
N4_2 N 0.6987(4) 0.1218(7) 0.6437(3)
C32_2 C 0.7188(4) 0.2257(9) 0.6189(4)
C35_2 C 0.6843(4) 0.2511(9) 0.5586(3)
C38_2 C 0.6043(5) 0.1844(9) 0.4767(4)
H20_2 H 0.5719 0.1249 0.4575
C39_2 C 0.7674(5) 0.3155(10) 0.6482(4)
C40_2 C 0.7019(5) 0.3600(10) 0.5306(4)
C41_2 C 0.6640(5) 0.3795(10) 0.4730(5)
H21_2 H 0.6725 0.4525 0.4533
C42_2 C 0.7817(5) 0.1833(11) 0.7320(4)
H22_2 H 0.8038 0.1639 0.7700
C43_2 C 0.7301(6) 0.1047(11) 0.6985(4)
H23_2 H 0.7165 0.0334 0.7167
C44_2 C 0.7972(6) 0.2891(11) 0.7051(5)
H24_2 H 0.8295 0.3469 0.7260
C45_2 C 0.6171(6) 0.2960(10) 0.4471(4)
H25_2 H 0.5922 0.3102 0.4093
C47_2 C 0.7518(9) 0.4493(11) 0.5637(6)
H27 H 0.7609 0.5251 0.5464
C48_2 C 0.7841(6) 0.4268(11) 0.6167(5)
H28_2 H 0.8190 0.4832 0.6352
Yb1 Yb 0.116141(15) 0.53241(3) 0.085073(12)
O1_3 O 0.2256(3) 0.5930(6) 0.0593(2)
O2_3 O 0.0842(3) 0.5453(5) 0.1761(3)
O3_3 O 0.2035(3) 0.6660(6) 0.1402(2)
O4_2 O 0.4196(3) 0.8798(6) 0.0011(2)
O5_3 O 0.0473(3) 0.6970(6) 0.1128(2)
O6_2 O 0.5140(3) 0.9220(7) 0.0708(2)
N1_3 N 0.1370(3) 0.3378(7) 0.0308(3)
N2_3 N 0.1987(4) 0.3782(7) 0.1437(3)
C1_4 C 0.0000 0.6542(12) 0.2500
H1_4 H 0.0000 0.5656 0.2500
C2_3 C 0.3162(4) 0.7166(7) 0.1222(3)
C3_3 C 0.4541(4) 0.8773(7) 0.0523(3)
C4_3 C 0.2450(4) 0.6565(8) 0.1060(3)
C5_3 C 0.0540(4) 0.6504(8) 0.1630(3)
C6_3 C 0.2188(4) 0.2743(9) 0.1189(4)
C7_3 C 0.0238(4) 0.7220(8) 0.2069(3)
C8_3 C 0.4178(4) 0.8187(8) 0.0972(3)
C9_3 C 0.4461(4) 0.8326(10) 0.1552(3)
H2_3 H 0.4900 0.8727 0.1664
C10_3 C 0.1843(4) 0.2489(9) 0.0586(3)
C11_3 C 0.3509(4) 0.7592(8) 0.0801(3)
H3_3 H 0.3302 0.7485 0.0410
C12_3 C 0.3450(5) 0.7366(10) 0.1798(3)
H4_3 H 0.3194 0.7145 0.2073
C14_3 C 0.0250(7) 0.8535(10) 0.2064(4)
H6_3 H 0.0418 0.8973 0.1780
C15_3 C 0.2674(5) 0.1845(10) 0.1482(4)
C16_3 C 0.2019(5) 0.1400(10) 0.0306(4)
C18_3 C 0.2817(5) 0.3167(11) 0.2320(4)
H8_3 H 0.3038 0.3361 0.2700
C19_3 C 0.2301(6) 0.3953(11) 0.1985(4)
H9_3 H 0.2165 0.4666 0.2167
C20_3 C 0.2972(6) 0.2109(11) 0.2051(5)
H10_3 H 0.3295 0.1531 0.2260
C22_3 C 0.4139(5) 0.7912(11) 0.1975(4)
H12_3 H 0.4360 0.7982 0.2364
C23_4 C 0.0000 0.9208(13) 0.2500
C24_3 C 0.2518(9) 0.0507(11) 0.0637(6)
C25_3 C 0.2841(6) 0.0732(11) 0.1167(5)
H15_3 H 0.3190 0.0168 0.1352
O15_2 O 0.0140(3) 0.4220(7) 0.0708(2)
C13_2 C 0.1043(5) 0.3156(9) 0.9767(4)
H5_2 H 0.0719 0.3751 0.9575
C17_2 C 0.1640(5) 0.1205(10) 0.9730(5)
H7_2 H 0.1725 0.0475 0.9533
C21_2 C 0.1171(6) 0.2040(10) 0.9471(4)
H11_2 H 0.0922 0.1898 0.9093
Yb5_2 Yb 0.383859(15) 0.96759(3) 0.914927(12)
O13_2 O 0.0804(3) 0.6202(6) 0.9989(2)
C1_5 C 1.0000 0.6542(12) 0.2500
H1_5 H 1.0000 0.5656 0.2500
C23_5 C 1.0000 0.9208(13) 0.2500
O7_3 O 0.9158(3) 0.5453(5) 0.3239(3)
O8_3 O 0.9527(3) 0.6970(6) 0.3872(2)
C26_3 C 0.9460(4) 0.6504(8) 0.3370(3)
C27_3 C 0.9762(4) 0.7220(8) 0.2931(3)
C28_3 C 0.9750(7) 0.8535(10) 0.2936(4)
H16_3 H 0.9582 0.8973 0.3220
Yb2 Yb 0.883859(15) 0.53241(3) 0.414927(12)
O9_3 O 0.7744(3) 0.5930(6) 0.4407(2)
O10_3 O 0.7965(3) 0.6660(6) 0.3598(2)
O11_2 O 0.5804(3) 0.8798(6) 0.4989(2)
O12_2 O 0.4860(3) 0.9220(7) 0.4292(2)
N3_3 N 0.8630(3) 0.3378(7) 0.4692(3)
N4_3 N 0.8013(4) 0.3782(7) 0.3563(3)
C29_3 C 0.6838(4) 0.7166(7) 0.3778(3)
C30_3 C 0.5459(4) 0.8773(7) 0.4477(3)
C31_3 C 0.7550(4) 0.6565(8) 0.3940(3)
C32_3 C 0.7812(4) 0.2743(9) 0.3811(4)
C33_3 C 0.5822(4) 0.8187(8) 0.4028(3)
C34_3 C 0.5539(4) 0.8326(10) 0.3448(3)
H17_3 H 0.5100 0.8727 0.3336
C35_3 C 0.8157(4) 0.2489(9) 0.4414(3)
C36_3 C 0.6491(4) 0.7592(8) 0.4199(3)
H18_3 H 0.6698 0.7485 0.4590
C37_3 C 0.6550(5) 0.7366(10) 0.3202(3)
H19_3 H 0.6806 0.7145 0.2927
C38_3 C 0.8957(5) 0.3156(9) 0.5233(4)
H20_3 H 0.9281 0.3751 0.5425
C39_3 C 0.7326(5) 0.1845(10) 0.3518(4)
C40_3 C 0.7981(5) 0.1400(10) 0.4694(4)
C41_3 C 0.8360(5) 0.1205(10) 0.5270(5)
H21_3 H 0.8275 0.0475 0.5467
C42_3 C 0.7183(5) 0.3167(11) 0.2680(4)
H22_3 H 0.6962 0.3361 0.2300
C43_3 C 0.7699(6) 0.3953(11) 0.3015(4)
H23_3 H 0.7835 0.4666 0.2833
C44_3 C 0.7028(6) 0.2109(11) 0.2949(5)
H24_3 H 0.6705 0.1531 0.2740
C45_3 C 0.8829(6) 0.2040(10) 0.5529(4)
H25_3 H 0.9078 0.1898 0.5907
C46_3 C 0.5861(5) 0.7912(11) 0.3025(4)
H26_3 H 0.5640 0.7982 0.2636
C47_3 C 0.7482(9) 0.0507(11) 0.4363(6)
C48_3 C 0.7159(6) 0.0732(11) 0.3833(5)
H28_3 H 0.6810 0.0168 0.3648
Yb6_2 Yb 0.616141(15) 0.96759(3) 0.585073(12)
O14_2 O 0.9196(3) 0.6202(6) 0.5011(2)
O16_2 O 0.9860(3) 0.4220(7) 0.4292(2)
N1_4 N 0.6370(3) 0.8378(7) 0.0308(3)
N2_4 N 0.6987(4) 0.8782(7) 0.1437(3)
C6_4 C 0.7188(4) 0.7743(9) 0.1189(4)
C10_4 C 0.6843(4) 0.7489(9) 0.0586(3)
C15_4 C 0.7674(5) 0.6845(10) 0.1482(4)
C16_4 C 0.7019(5) 0.6400(10) 0.0306(4)
C18_4 C 0.7817(5) 0.8167(11) 0.2320(4)
H8_4 H 0.8038 0.8361 0.2700
C19_4 C 0.7301(6) 0.8953(11) 0.1985(4)
H9_4 H 0.7165 0.9666 0.2167
C20_4 C 0.7972(6) 0.7109(11) 0.2051(5)
H10_4 H 0.8295 0.6531 0.2260
C24_4 C 0.7518(9) 0.5507(11) 0.0637(6)
H14_2 H 0.7609 0.4749 0.0464
C25_4 C 0.7841(6) 0.5732(11) 0.1167(5)
H15_4 H 0.8190 0.5168 0.1352
N3_4 N 0.3630(3) 0.8378(7) 0.4692(3)
N4_4 N 0.3013(4) 0.8782(7) 0.3563(3)
C32_4 C 0.2812(4) 0.7743(9) 0.3811(4)
C35_4 C 0.3157(4) 0.7489(9) 0.4414(3)
C38_4 C 0.3957(5) 0.8156(9) 0.5233(4)
H20_4 H 0.4281 0.8751 0.5425
C39_4 C 0.2326(5) 0.6845(10) 0.3518(4)
C40_4 C 0.2981(5) 0.6400(10) 0.4694(4)
C41_4 C 0.3360(5) 0.6205(10) 0.5270(5)
H21_4 H 0.3275 0.5475 0.5467
C42_4 C 0.2183(5) 0.8167(11) 0.2680(4)
H22_4 H 0.1962 0.8361 0.2300
C43_4 C 0.2699(6) 0.8953(11) 0.3015(4)
H23_4 H 0.2835 0.9666 0.2833
C44_4 C 0.2028(6) 0.7109(11) 0.2949(5)
H24_4 H 0.1705 0.6531 0.2740
C45_4 C 0.3829(6) 0.7040(10) 0.5529(4)
H25_4 H 0.4078 0.6898 0.5907
C47_4 C 0.2482(9) 0.5507(11) 0.4363(6)
H27_2 H 0.2391 0.4749 0.4536
C48_4 C 0.2159(6) 0.5732(11) 0.3833(5)
H28_4 H 0.1810 0.5168 0.3648
H13_4 H 0.0000 0.9906 0.7500
H13_5 H 1.0000 0.9906 0.7500
O1_4 O 0.2744(3) 0.9070(6) 0.9407(2)
O2_4 O 0.4158(3) 0.9547(5) 0.8239(3)
O3_4 O 0.2965(3) 0.8340(6) 0.8598(2)
O5_4 O 0.4527(3) 0.8030(6) 0.8872(2)
C1_6 C 0.5000 0.8458(12) 0.7500
H1_6 H 0.5000 0.9344 0.7500
C2_4 C 0.1838(4) 0.7834(7) 0.8778(3)
C3_4 C 0.0459(4) 0.6227(7) 0.9477(3)
C4_4 C 0.2550(4) 0.8435(8) 0.8940(3)
C5_4 C 0.4460(4) 0.8496(8) 0.8370(3)
C7_4 C 0.4762(4) 0.7780(8) 0.7931(3)
C8_4 C 0.0822(4) 0.6813(8) 0.9028(3)
C9_4 C 0.0539(4) 0.6674(10) 0.8448(3)
H2_4 H 0.0100 0.6273 0.8336
C11_4 C 0.1491(4) 0.7408(8) 0.9199(3)
H3_4 H 0.1698 0.7515 0.9590
C12_4 C 0.1550(5) 0.7634(10) 0.8202(3)
H4_4 H 0.1806 0.7855 0.7927
C14_4 C 0.4750(7) 0.6465(10) 0.7936(4)
H6_4 H 0.4582 0.6027 0.8220
C22_4 C 0.0861(5) 0.7088(11) 0.8025(4)
H12_4 H 0.0640 0.7018 0.7636
C23_6 C 0.5000 0.5792(13) 0.7500
H13_6 H 0.5000 0.4906 0.7500
O7_4 O 0.5842(3) 0.9547(5) 0.6761(3)
O8_4 O 0.5473(3) 0.8030(6) 0.6128(2)
C26_4 C 0.5540(4) 0.8496(8) 0.6630(3)
C27_4 C 0.5238(4) 0.7780(8) 0.7069(3)
C28_4 C 0.5250(7) 0.6465(10) 0.7064(4)
H16_4 H 0.5418 0.6027 0.6780
O9_4 O 0.7256(3) 0.9070(6) 0.5593(2)
O10_4 O 0.7035(3) 0.8340(6) 0.6402(2)
C29_4 C 0.8162(4) 0.7834(7) 0.6222(3)
C30_4 C 0.9541(4) 0.6227(7) 0.5523(3)
C31_4 C 0.7450(4) 0.8435(8) 0.6060(3)
C33_4 C 0.9178(4) 0.6813(8) 0.5972(3)
C34_4 C 0.9461(4) 0.6674(10) 0.6552(3)
H17_4 H 0.9900 0.6273 0.6664
C36_4 C 0.8509(4) 0.7408(8) 0.5801(3)
H18_4 H 0.8302 0.7515 0.5410
C37_4 C 0.8450(5) 0.7634(10) 0.6798(3)
H19_4 H 0.8194 0.7855 0.7073
C46_4 C 0.9139(5) 0.7088(11) 0.6975(4)
H26_4 H 0.9360 0.7018 0.7364
H14_3 H 0.2609 0.9749 0.0464
H27_3 H 0.7391 0.9749 0.4536
C13_3 C 0.6043(5) 0.8156(9) 0.9767(4)
H5_3 H 0.5719 0.8751 0.9575
C17_3 C 0.6640(5) 0.6205(10) 0.9730(5)
H7_3 H 0.6725 0.5475 0.9533
C21_3 C 0.6171(6) 0.7040(10) 0.9471(4)
H11_3 H 0.5922 0.6898 0.9093
H27_4 H 0.2609 0.0251 0.5464
H14_4 H 0.7391 0.0251 0.9536
C13_4 C 0.3957(5) 0.1844(9) 0.0233(4)
H5_4 H 0.4281 0.1249 0.0425
C17_4 C 0.3360(5) 0.3795(10) 0.0270(5)
H7_4 H 0.3275 0.4525 0.0467
C21_4 C 0.3829(6) 0.2960(10) 0.0529(4)
H11_4 H 0.4078 0.3102 0.0907
loop_
_geom_bond_atom_site_label_1
_geom_bond_atom_site_label_2
_geom_bond_site_symmetry_1
_geom_bond_site_symmetry_2
Yb3 O1 1_555 1_555
O1 C4 1_555 1_555
O2 Yb3 1_555 1_555
O3 Yb3 1_555 1_555
O4 C3 1_555 1_555
O5 Yb3 1_555 1_555
C1 H1 1_555 1_555
C2 C4 1_555 1_555
C3 C8 1_555 1_555
C4 O3 1_555 1_555
C5 O2 1_555 1_555
C7 C1 1_555 1_555
C8 C9 1_555 1_555
C9 H2 1_555 1_555
C11 C2 1_555 1_555
H3 C11 1_555 1_555
C12 C2 1_555 1_555
H4 C12 1_555 1_555
C14 C7 1_555 1_555
H6 C14 1_555 1_555
C22 C9 1_555 1_555
H12 C22 1_555 1_555
C23 C14 1_555 1_555
H13_3 C23 1_555 1_555
O7 C26 1_555 1_555
O8 C26 1_555 1_555
C26 C27 1_555 1_555
C27 C1 1_555 1_555
C28 C23 1_555 1_555
H16 C28 1_555 1_555
Yb4 O7 1_555 1_555
O9 Yb4 1_555 1_555
O10 Yb4 1_555 1_555
O11 C30 1_555 1_555
C29 C31 1_555 1_555
C30 C33 1_555 1_555
C31 O9 1_555 1_555
C33 C34 1_555 1_555
C34 H17 1_555 1_555
C36 C29 1_555 1_555
H18 C36 1_555 1_555
C37 C29 1_555 1_555
H19 C37 1_555 1_555
C46 C34 1_555 1_555
H26 C46 1_555 1_555
Yb6 O11 1_555 1_555
O14 Yb4 1_555 1_555
O5 C5 1_555 1_555
C5 C7 1_555 1_555
C8 C11 1_555 1_555
C12 C22 1_555 1_555
O8 Yb4 1_555 1_555
C27 C28 1_555 1_555
O10 C31 1_555 1_555
C33 C36 1_555 1_555
C37 C46 1_555 1_555
C1_2 H1_2 1_555 1_555
O7_2 C26_2 1_555 1_555
O8_2 C26_2 1_555 1_555
C26_2 C27_2 1_555 1_555
C27_2 C1_2 1_555 1_555
C28_2 C23_2 1_555 1_555
H16_2 C28_2 1_555 1_555
Yb6 O7_2 1_555 1_555
O9_2 Yb6 1_555 1_555
O10_2 Yb6 1_555 1_555
O14 C30_2 1_555 1_555
O12 C30_2 1_555 1_555
N3 Yb6 1_555 1_555
N4 Yb6 1_555 1_555
C29_2 C31_2 1_555 1_555
C30_2 C33_2 1_555 1_555
C31_2 O9_2 1_555 1_555
C32 N4 1_555 1_555
C33_2 C34_2 1_555 1_555
C34_2 H17_2 1_555 1_555
C35 N3 1_555 1_555
C36_2 C29_2 1_555 1_555
H18_2 C36_2 1_555 1_555
C37_2 C29_2 1_555 1_555
H19_2 C37_2 1_555 1_555
C38 N3 1_555 1_555
H20 C38 1_555 1_555
C39 C32 1_555 1_555
C40 C35 1_555 1_555
C41 C40 1_555 1_555
H21 C41 1_555 1_555
C42 H22 1_555 1_555
C43 N4 1_555 1_555
H23 C43 1_555 1_555
C44 C39 1_555 1_555
H24 C44 1_555 1_555
C45 C38 1_555 1_555
H25 C45 1_555 1_555
C46_2 C34_2 1_555 1_555
H26_2 C46_2 1_555 1_555
C47 C40 1_555 1_555
C48 C39 1_555 1_555
H28 C48 1_555 1_555
O16 Yb6 1_555 1_555
O8_2 Yb6 1_555 1_555
C27_2 C28_2 1_555 1_555
O10_2 C31_2 1_555 1_555
C32 C35 1_555 1_555
C33_2 C36_2 1_555 1_555
C37_2 C46_2 1_555 1_555
C41 C45 1_555 1_555
C42 C43 1_555 1_555
C42 C44 1_555 1_555
C47 C48 1_555 1_555
H5 C13 1_555 1_555
H7 C17 1_555 1_555
C21 C13 1_555 1_555
H11 C21 1_555 1_555
C17 C21 1_555 1_555
Yb5 O1_2 1_555 1_555
O1_2 C4_2 1_555 1_555
O2_2 Yb5 1_555 1_555
O3_2 Yb5 1_555 1_555
O13 C3_2 1_555 1_555
O5_2 Yb5 1_555 1_555
O6 C3_2 1_555 1_555
N1 Yb5 1_555 1_555
N2 Yb5 1_555 1_555
C1_3 H1_3 1_555 1_555
C2_2 C4_2 1_555 1_555
C3_2 C8_2 1_555 1_555
C4_2 O3_2 1_555 1_555
C5_2 O2_2 1_555 1_555
C6 N2 1_555 1_555
C7_2 C1_3 1_555 1_555
C8_2 C9_2 1_555 1_555
C9_2 H2_2 1_555 1_555
C10 N1 1_555 1_555
C11_2 C2_2 1_555 1_555
H3_2 C11_2 1_555 1_555
C12_2 C2_2 1_555 1_555
H4_2 C12_2 1_555 1_555
C14_2 C7_2 1_555 1_555
H6_2 C14_2 1_555 1_555
C15 C6 1_555 1_555
C16 C10 1_555 1_555
C18 H8 1_555 1_555
C19 N2 1_555 1_555
H9 C19 1_555 1_555
C20 C15 1_555 1_555
H10 C20 1_555 1_555
C22_2 C9_2 1_555 1_555
H12_2 C22_2 1_555 1_555
C23_3 C14_2 1_555 1_555
C24 C16 1_555 1_555
C25 C15 1_555 1_555
H15 C25 1_555 1_555
O15 Yb5 1_555 1_555
O5_2 C5_2 1_555 1_555
C5_2 C7_2 1_555 1_555
C6 C10 1_555 1_555
C8_2 C11_2 1_555 1_555
C12_2 C22_2 1_555 1_555
C18 C19 1_555 1_555
C18 C20 1_555 1_555
C24 C25 1_555 1_555
C6_2 N2_2 1_555 1_555
C10_2 N1_2 1_555 1_555
C15_2 C6_2 1_555 1_555
C16_2 C10_2 1_555 1_555
C18_2 H8_2 1_555 1_555
C19_2 N2_2 1_555 1_555
H9_2 C19_2 1_555 1_555
C20_2 C15_2 1_555 1_555
H10_2 C20_2 1_555 1_555
C24_2 C16_2 1_555 1_555
H14 C24_2 1_555 1_555
C25_2 C15_2 1_555 1_555
H15_2 C25_2 1_555 1_555
C32_2 N4_2 1_555 1_555
C35_2 N3_2 1_555 1_555
C38_2 N3_2 1_555 1_555
H20_2 C38_2 1_555 1_555
C39_2 C32_2 1_555 1_555
C40_2 C35_2 1_555 1_555
C41_2 C40_2 1_555 1_555
H21_2 C41_2 1_555 1_555
C42_2 H22_2 1_555 1_555
C43_2 N4_2 1_555 1_555
H23_2 C43_2 1_555 1_555
C44_2 C39_2 1_555 1_555
H24_2 C44_2 1_555 1_555
C45_2 C38_2 1_555 1_555
H25_2 C45_2 1_555 1_555
C47_2 C40_2 1_555 1_555
H27 C47_2 1_555 1_555
C48_2 C39_2 1_555 1_555
H28_2 C48_2 1_555 1_555
C6_2 C10_2 1_555 1_555
C18_2 C19_2 1_555 1_555
C18_2 C20_2 1_555 1_555
C24_2 C25_2 1_555 1_555
C32_2 C35_2 1_555 1_555
C41_2 C45_2 1_555 1_555
C42_2 C43_2 1_555 1_555
C42_2 C44_2 1_555 1_555
C47_2 C48_2 1_555 1_555
Yb1 O1_3 1_555 1_555
O1_3 C4_3 1_555 1_555
O2_3 Yb1 1_555 1_555
O3_3 Yb1 1_555 1_555
O4_2 C3_3 1_555 1_555
O5_3 Yb1 1_555 1_555
O6_2 C3_3 1_555 1_555
N1_3 Yb1 1_555 1_555
N2_3 Yb1 1_555 1_555
C1_4 H1_4 1_555 1_555
C2_3 C4_3 1_555 1_555
C3_3 C8_3 1_555 1_555
C4_3 O3_3 1_555 1_555
C5_3 O2_3 1_555 1_555
C6_3 N2_3 1_555 1_555
C7_3 C1_4 1_555 1_555
C8_3 C9_3 1_555 1_555
C9_3 H2_3 1_555 1_555
C10_3 N1_3 1_555 1_555
C11_3 C2_3 1_555 1_555
H3_3 C11_3 1_555 1_555
C12_3 C2_3 1_555 1_555
H4_3 C12_3 1_555 1_555
C14_3 C7_3 1_555 1_555
H6_3 C14_3 1_555 1_555
C15_3 C6_3 1_555 1_555
C16_3 C10_3 1_555 1_555
C18_3 H8_3 1_555 1_555
C19_3 N2_3 1_555 1_555
H9_3 C19_3 1_555 1_555
C20_3 C15_3 1_555 1_555
H10_3 C20_3 1_555 1_555
C22_3 C9_3 1_555 1_555
H12_3 C22_3 1_555 1_555
C23_4 C14_3 1_555 1_555
C24_3 C16_3 1_555 1_555
C25_3 C15_3 1_555 1_555
H15_3 C25_3 1_555 1_555
O15_2 Yb1 1_555 1_555
O5_3 C5_3 1_555 1_555
C5_3 C7_3 1_555 1_555
C6_3 C10_3 1_555 1_555
C8_3 C11_3 1_555 1_555
C12_3 C22_3 1_555 1_555
C18_3 C19_3 1_555 1_555
C18_3 C20_3 1_555 1_555
C24_3 C25_3 1_555 1_555
H5_2 C13_2 1_555 1_555
H7_2 C17_2 1_555 1_555
C21_2 C13_2 1_555 1_555
H11_2 C21_2 1_555 1_555
C17_2 C21_2 1_555 1_555
C1_5 H1_5 1_555 1_555
O7_3 C26_3 1_555 1_555
O8_3 C26_3 1_555 1_555
C26_3 C27_3 1_555 1_555
C27_3 C1_5 1_555 1_555
C28_3 C23_5 1_555 1_555
H16_3 C28_3 1_555 1_555
Yb2 O7_3 1_555 1_555
O9_3 Yb2 1_555 1_555
O10_3 Yb2 1_555 1_555
O11_2 C30_3 1_555 1_555
O12_2 C30_3 1_555 1_555
N3_3 Yb2 1_555 1_555
N4_3 Yb2 1_555 1_555
C29_3 C31_3 1_555 1_555
C30_3 C33_3 1_555 1_555
C31_3 O9_3 1_555 1_555
C32_3 N4_3 1_555 1_555
C33_3 C34_3 1_555 1_555
C34_3 H17_3 1_555 1_555
C35_3 N3_3 1_555 1_555
C36_3 C29_3 1_555 1_555
H18_3 C36_3 1_555 1_555
C37_3 C29_3 1_555 1_555
H19_3 C37_3 1_555 1_555
C38_3 N3_3 1_555 1_555
H20_3 C38_3 1_555 1_555
C39_3 C32_3 1_555 1_555
C40_3 C35_3 1_555 1_555
C41_3 C40_3 1_555 1_555
H21_3 C41_3 1_555 1_555
C42_3 H22_3 1_555 1_555
C43_3 N4_3 1_555 1_555
H23_3 C43_3 1_555 1_555
C44_3 C39_3 1_555 1_555
H24_3 C44_3 1_555 1_555
C45_3 C38_3 1_555 1_555
H25_3 C45_3 1_555 1_555
C46_3 C34_3 1_555 1_555
H26_3 C46_3 1_555 1_555
C47_3 C40_3 1_555 1_555
C48_3 C39_3 1_555 1_555
H28_3 C48_3 1_555 1_555
Yb6_2 O11_2 1_555 1_555
O14_2 Yb2 1_555 1_555
O16_2 Yb2 1_555 1_555
O8_3 Yb2 1_555 1_555
C27_3 C28_3 1_555 1_555
O10_3 C31_3 1_555 1_555
C32_3 C35_3 1_555 1_555
C33_3 C36_3 1_555 1_555
C37_3 C46_3 1_555 1_555
C41_3 C45_3 1_555 1_555
C42_3 C43_3 1_555 1_555
C42_3 C44_3 1_555 1_555
C47_3 C48_3 1_555 1_555
C6_4 N2_4 1_555 1_555
C10_4 N1_4 1_555 1_555
C15_4 C6_4 1_555 1_555
C16_4 C10_4 1_555 1_555
C18_4 H8_4 1_555 1_555
C19_4 N2_4 1_555 1_555
H9_4 C19_4 1_555 1_555
C20_4 C15_4 1_555 1_555
H10_4 C20_4 1_555 1_555
C24_4 C16_4 1_555 1_555
H14_2 C24_4 1_555 1_555
C25_4 C15_4 1_555 1_555
H15_4 C25_4 1_555 1_555
C32_4 N4_4 1_555 1_555
C35_4 N3_4 1_555 1_555
C38_4 N3_4 1_555 1_555
H20_4 C38_4 1_555 1_555
C39_4 C32_4 1_555 1_555
C40_4 C35_4 1_555 1_555
C41_4 C40_4 1_555 1_555
H21_4 C41_4 1_555 1_555
C42_4 H22_4 1_555 1_555
C43_4 N4_4 1_555 1_555
H23_4 C43_4 1_555 1_555
C44_4 C39_4 1_555 1_555
H24_4 C44_4 1_555 1_555
C45_4 C38_4 1_555 1_555
H25_4 C45_4 1_555 1_555
C47_4 C40_4 1_555 1_555
H27_2 C47_4 1_555 1_555
C48_4 C39_4 1_555 1_555
H28_4 C48_4 1_555 1_555
C6_4 C10_4 1_555 1_555
C18_4 C19_4 1_555 1_555
C18_4 C20_4 1_555 1_555
C24_4 C25_4 1_555 1_555
C32_4 C35_4 1_555 1_555
C41_4 C45_4 1_555 1_555
C42_4 C43_4 1_555 1_555
C42_4 C44_4 1_555 1_555
C47_4 C48_4 1_555 1_555
Yb5_2 O1_4 1_555 1_555
O1_4 C4_4 1_555 1_555
O2_4 Yb5_2 1_555 1_555
O3_4 Yb5_2 1_555 1_555
O13_2 C3_4 1_555 1_555
O5_4 Yb5_2 1_555 1_555
C1_6 H1_6 1_555 1_555
C2_4 C4_4 1_555 1_555
C3_4 C8_4 1_555 1_555
C4_4 O3_4 1_555 1_555
C5_4 O2_4 1_555 1_555
C7_4 C1_6 1_555 1_555
C8_4 C9_4 1_555 1_555
C9_4 H2_4 1_555 1_555
C11_4 C2_4 1_555 1_555
H3_4 C11_4 1_555 1_555
C12_4 C2_4 1_555 1_555
H4_4 C12_4 1_555 1_555
C14_4 C7_4 1_555 1_555
H6_4 C14_4 1_555 1_555
C22_4 C9_4 1_555 1_555
H12_4 C22_4 1_555 1_555
C23_6 C14_4 1_555 1_555
H13_6 C23_6 1_555 1_555
O7_4 C26_4 1_555 1_555
O8_4 C26_4 1_555 1_555
C26_4 C27_4 1_555 1_555
C27_4 C1_6 1_555 1_555
C28_4 C23_6 1_555 1_555
H16_4 C28_4 1_555 1_555
Yb6_2 O7_4 1_555 1_555
O9_4 Yb6_2 1_555 1_555
O10_4 Yb6_2 1_555 1_555
O14_2 C30_4 1_555 1_555
C29_4 C31_4 1_555 1_555
C30_4 C33_4 1_555 1_555
C31_4 O9_4 1_555 1_555
C33_4 C34_4 1_555 1_555
C34_4 H17_4 1_555 1_555
C36_4 C29_4 1_555 1_555
H18_4 C36_4 1_555 1_555
C37_4 C29_4 1_555 1_555
H19_4 C37_4 1_555 1_555
C46_4 C34_4 1_555 1_555
H26_4 C46_4 1_555 1_555
O5_4 C5_4 1_555 1_555
C5_4 C7_4 1_555 1_555
C8_4 C11_4 1_555 1_555
C12_4 C22_4 1_555 1_555
O8_4 Yb6_2 1_555 1_555
C27_4 C28_4 1_555 1_555
O10_4 C31_4 1_555 1_555
C33_4 C36_4 1_555 1_555
C37_4 C46_4 1_555 1_555
H5_3 C13_3 1_555 1_555
H7_3 C17_3 1_555 1_555
C21_3 C13_3 1_555 1_555
H11_3 C21_3 1_555 1_555
C17_3 C21_3 1_555 1_555
H5_4 C13_4 1_555 1_555
H7_4 C17_4 1_555 1_555
C21_4 C13_4 1_555 1_555
H11_4 C21_4 1_555 1_555
C17_4 C21_4 1_555 1_555

#END
