
###############################################################################
#
# This file contains modified crystal structure data generated from the
# MOF subset of the Cambridge Structural Database (CSD) v543 
# hosted by the Cambridge Crystallographic Data Centre (CCDC).
#
# This work is licensed under the Creative Commons
# Attribution-NonCommercial-ShareAlike 4.0 International License.
# To view a copy of this license, visit
# http://creativecommons.org/licenses/by-nc-sa/4.0/
# or send a letter to
# Creative Commons, PO Box 1866, Mountain View, CA 94042, USA.
#
# CIF created using the CSD Python API on 29 September 2022
# The structure has been converted into the P1 space group
# The structure has a 3D framework
# The original CSD entry ATEYUV is in the orthorhombic crystal system
# The framework has been calculated to contain at least 10.0% void space
# The void calculation uses a probe of radius 1.32A, grid spacing 0.4
# The framework is charged, counterions have been retained in the structure
#
###############################################################################

data_ATEYUV
_chemical_formula_moiety         '(C640 H464 Ho28 O182 2+)n'
_symmetry_cell_setting           triclinic
_symmetry_space_group_name_H-M   'P 1'
_symmetry_Int_Tables_number      1
_space_group_name_Hall           'P 1'
loop_
_symmetry_equiv_pos_site_id
_symmetry_equiv_pos_as_xyz
1 x,y,z
_cell_length_a                   16.3257(5)
_cell_length_b                   59.1677(13)
_cell_length_c                   32.1508(7)
_cell_angle_alpha                90
_cell_angle_beta                 90
_cell_angle_gamma                90
_cell_volume                     31056.2
loop_
_atom_site_label
_atom_site_type_symbol
_atom_site_fract_x
_atom_site_fract_y
_atom_site_fract_z
Ho1 Ho 0.0000 0.099868(3) 0.7500
O1 O 0.00813(18) 0.13063(4) 0.70539(7)
O3 O 0.1983(3) 0.13789(5) 0.33620(10)
O4 O 0.22657(19) 0.16994(4) 0.30754(7)
O5 O 0.1199(2) 0.09533(6) 0.71876(8)
O6 O 0.2272(3) 0.11614(9) 0.70764(13)
O7 O 0.3137(2) 0.10509(6) 0.30768(9)
O8 O 0.43109(19) 0.08760(5) 0.30751(7)
O9 O 0.0000 0.05797(7) 0.7500
H1 H 0.0419 0.0530 0.7388
C1 C 0.0098(2) 0.23760(5) 0.51569(7)
C3 C 0.0171(2) 0.20097(5) 0.55231(8)
C4 C 0.0516(2) 0.19124(5) 0.51742(8)
H9 H 0.0663 0.1761 0.5179
C5 C 0.0648(2) 0.20401(5) 0.48123(8)
C6 C 0.0429(2) 0.22737(5) 0.48114(8)
H10 H 0.0513 0.2359 0.4572
C7 C 0.0025(2) 0.18716(5) 0.58932(9)
C11 C 0.0419(2) 0.15701(6) 0.63621(10)
H13 H 0.0798 0.1460 0.6439
C12 C 0.0568(2) 0.17062(6) 0.60226(10)
H14 H 0.1052 0.1686 0.5875
C14 C 0.0995(2) 0.19273(5) 0.44393(9)
C15 C 0.0964(4) 0.16985(7) 0.43857(13)
H15 H 0.0717 0.1611 0.4590
C16 C 0.1288(4) 0.15907(7) 0.40374(15)
H16 H 0.1246 0.1435 0.4011
C17 C 0.1655(2) 0.17108(6) 0.37441(10)
C18 C 0.1684(3) 0.19325(7) 0.37873(12)
H17 H 0.1939 0.2018 0.3582
C19 C 0.1343(3) 0.20434(7) 0.41324(11)
H18 H 0.1361 0.2200 0.4147
C20 C 0.2002(3) 0.15947(7) 0.33677(12)
C21 C 0.2530(2) 0.01299(6) 0.51398(8)
C22 C 0.2337(2) 0.02572(6) 0.54871(8)
H19 H 0.2171 0.0184 0.5729
C23 C 0.2385(2) 0.04971(6) 0.54857(9)
C24 C 0.2614(2) 0.06070(6) 0.51216(9)
H20 H 0.2652 0.0764 0.5115
C25 C 0.2783(3) 0.04823(6) 0.47700(8)
C26 C 0.2754(3) 0.02479(6) 0.47830(8)
H21 H 0.2890 0.0167 0.4545
C27 C 0.2207(3) 0.06290(6) 0.58635(9)
C28 C 0.2676(3) 0.08180(8) 0.59707(12)
H22 H 0.3098 0.0862 0.5794
C29 C 0.2540(3) 0.09400(8) 0.63247(13)
H23 H 0.2866 0.1064 0.6386
C30 C 0.1924(3) 0.08784(8) 0.65869(10)
C31 C 0.1425(3) 0.06989(7) 0.64784(10)
H24 H 0.0975 0.0664 0.6644
C32 C 0.1584(3) 0.05711(6) 0.61269(9)
H25 H 0.1265 0.0445 0.6069
C33 C 0.1805(4) 0.10151(10) 0.69859(12)
C34 C 0.3030(3) 0.06024(6) 0.43788(9)
C35 C 0.3667(3) 0.05203(6) 0.41405(9)
H26 H 0.3956 0.0393 0.4228
C36 C 0.3874(3) 0.06235(6) 0.37798(9)
H27 H 0.4308 0.0568 0.3623
C37 C 0.3444(2) 0.08122(6) 0.36406(9)
C38 C 0.2811(3) 0.08973(6) 0.38759(11)
H28 H 0.2516 0.1023 0.3785
C39 C 0.2620(3) 0.07940(6) 0.42484(10)
H29 H 0.2208 0.0854 0.4414
C40 C 0.3653(4) 0.09257(7) 0.32311(11)
O14 O 0.1115(2) 0.35360(5) 0.71318(9)
C42 C 0.00228(19) 0.27561(5) 0.55114(8)
H30 H 0.0238 0.2688 0.5748
C48 C 0.0671(3) 0.31027(6) 0.61245(10)
H33 H 0.1045 0.2991 0.6052
C49 C 0.0834(2) 0.32390(6) 0.64636(10)
H34 H 0.1317 0.3221 0.6613
C50 C 0.0273(2) 0.34035(5) 0.65808(10)
C53 C 0.0440(3) 0.35571(7) 0.69531(11)
Ho3 Ho 0.261375(11) 0.134265(3) 0.270514(4)
O21 O 0.3059(3) 0.16608(8) 0.22339(9)
H53 H 0.3548 0.1690 0.2250
H54 H 0.2941 0.1623 0.1988
O22 O 0.1470(2) 0.14918(9) 0.23360(11)
H55 H 0.1072 0.1413 0.2411
H56 H 0.1393 0.1634 0.2388
O23 O 0.1616(4) 0.10475(9) 0.27211(19)
H57 H 0.1673 0.0967 0.2939
H58 H 0.1153 0.1103 0.2712
Ho5 Ho 0.0000 0.400132(3) 0.7500
Ho7 Ho 0.5000 0.099868(3) 0.2500
Ho8 Ho 0.238625(11) 0.134265(3) 0.770514(4)
Ho10 Ho 0.238625(11) 0.365735(3) 0.729486(4)
O25 O 0.3885(2) 0.14640(5) 0.28682(9)
O30 O 0.2728(3) 0.11614(9) 0.20764(13)
O33 O 0.06891(19) 0.08760(5) 0.80751(7)
O17 O 0.3801(2) 0.90467(6) 0.71876(8)
O18 O 0.2728(3) 0.88386(9) 0.70764(13)
O19 O 0.1863(2) 0.89491(6) 0.30768(9)
O20 O 0.06891(19) 0.91240(5) 0.30751(7)
C61 C 0.2470(2) 0.98701(6) 0.51398(8)
C62 C 0.2663(2) 0.97428(6) 0.54871(8)
H41 H 0.2829 0.9816 0.5729
C63 C 0.2615(2) 0.95029(6) 0.54857(9)
C64 C 0.2386(2) 0.93930(6) 0.51216(9)
H42 H 0.2348 0.9236 0.5115
C65 C 0.2217(3) 0.95177(6) 0.47700(8)
C66 C 0.2246(3) 0.97521(6) 0.47830(8)
H43 H 0.2110 0.9833 0.4545
C67 C 0.2793(3) 0.93710(6) 0.58635(9)
C68 C 0.2324(3) 0.91820(8) 0.59707(12)
H44 H 0.1902 0.9138 0.5794
C69 C 0.2460(3) 0.90600(8) 0.63247(13)
H45 H 0.2134 0.8936 0.6386
C70 C 0.3076(3) 0.91216(8) 0.65869(10)
C71 C 0.3575(3) 0.93011(7) 0.64784(10)
H46 H 0.4025 0.9336 0.6644
C72 C 0.3416(3) 0.94289(6) 0.61269(9)
H47 H 0.3735 0.9555 0.6069
C73 C 0.3195(4) 0.89849(10) 0.69859(12)
C74 C 0.1970(3) 0.93976(6) 0.43788(9)
C75 C 0.1333(3) 0.94797(6) 0.41405(9)
H48 H 0.1044 0.9607 0.4228
C76 C 0.1126(3) 0.93765(6) 0.37798(9)
H49 H 0.0692 0.9432 0.3623
C77 C 0.1556(2) 0.91878(6) 0.36406(9)
C78 C 0.2189(3) 0.91027(6) 0.38759(11)
H50 H 0.2484 0.8977 0.3785
C79 C 0.2380(3) 0.92060(6) 0.42484(10)
H51 H 0.2792 0.9146 0.4414
C80 C 0.1347(4) 0.90743(7) 0.32311(11)
Ho4 Ho 0.5000 0.900132(3) 0.7500
Ho6 Ho 0.0000 0.900132(3) 0.2500
Ho9 Ho 0.261375(11) 0.865735(3) 0.770514(4)
Ho11 Ho 0.238625(11) 0.865735(3) 0.270514(4)
Ho1_2 Ho 1.0000 0.099868(3) 0.7500
Ho2 Ho 0.761375(11) 0.134265(3) 0.729486(4)
O2 O 0.8885(2) 0.14640(5) 0.71318(9)
O9_2 O 1.0000 0.05797(7) 0.7500
O10 O 0.8059(3) 0.16608(8) 0.77661(9)
H2 H 0.8548 0.1690 0.7750
H3 H 0.7941 0.1623 0.8012
O11 O 0.6470(2) 0.14918(9) 0.76640(11)
H4 H 0.6072 0.1413 0.7589
H5 H 0.6393 0.1634 0.7612
O12 O 0.6616(4) 0.10475(9) 0.72789(19)
H6 H 0.6673 0.0967 0.7061
H7 H 0.6153 0.1103 0.7288
C2 C 0.99772(19) 0.22439(5) 0.55114(8)
H8 H 0.9762 0.2312 0.5748
C8 C 0.9329(3) 0.18973(6) 0.61245(10)
H11 H 0.8955 0.2009 0.6052
C9 C 0.9166(2) 0.17610(6) 0.64636(10)
H12 H 0.8683 0.1779 0.6613
C10 C 0.9727(2) 0.15965(5) 0.65808(10)
C13 C 0.9560(3) 0.14429(7) 0.69531(11)
O13 O 0.99187(18) 0.36937(4) 0.70539(7)
O15 O 0.8017(3) 0.36211(5) 0.33620(10)
O16 O 0.77343(19) 0.33006(4) 0.30754(7)
C41 C 0.9902(2) 0.26240(5) 0.51569(7)
C43 C 0.9829(2) 0.29903(5) 0.55231(8)
C44 C 0.9484(2) 0.30876(5) 0.51742(8)
H31 H 0.9337 0.3239 0.5179
C45 C 0.9352(2) 0.29599(5) 0.48123(8)
C46 C 0.9571(2) 0.27263(5) 0.48114(8)
H32 H 0.9487 0.2641 0.4572
C47 C 0.9975(2) 0.31284(5) 0.58932(9)
C51 C 0.9581(2) 0.34299(6) 0.63621(10)
H35 H 0.9202 0.3540 0.6439
C52 C 0.9432(2) 0.32938(6) 0.60226(10)
H36 H 0.8948 0.3314 0.5875
C54 C 0.9005(2) 0.30727(5) 0.44393(9)
C55 C 0.9036(4) 0.33015(7) 0.43857(13)
H37 H 0.9283 0.3389 0.4590
C56 C 0.8712(4) 0.34093(7) 0.40374(15)
H38 H 0.8754 0.3565 0.4011
C57 C 0.8345(2) 0.32892(6) 0.37441(10)
C58 C 0.8316(3) 0.30675(7) 0.37873(12)
H39 H 0.8061 0.2982 0.3582
C59 C 0.8657(3) 0.29566(7) 0.41324(11)
H40 H 0.8639 0.2800 0.4147
C60 C 0.7998(3) 0.34053(7) 0.33677(12)
H52 H 0.9581 0.0530 0.7612
Ho5_2 Ho 1.0000 0.400132(3) 0.7500
Ho12 Ho 0.738625(11) 0.365735(3) 0.270514(4)
O24 O 0.99187(18) 0.13063(4) 0.79461(7)
O26 O 0.6983(3) 0.13789(5) 0.66380(10)
O27 O 0.72657(19) 0.16994(4) 0.69246(7)
O28 O 0.8801(2) 0.09533(6) 0.78124(8)
O29 O 0.7728(3) 0.11614(9) 0.79236(13)
O31 O 0.8137(2) 0.10509(6) 0.69232(9)
O32 O 0.93109(19) 0.08760(5) 0.69249(7)
Ho6_2 Ho 1.0000 0.900132(3) 0.2500
Ho2_2 Ho 0.738625(11) 0.865735(3) 0.729486(4)
O1_2 O 0.49187(18) 0.86937(4) 0.70539(7)
O2_2 O 0.6115(2) 0.85360(5) 0.71318(9)
O3_2 O 0.3017(3) 0.86211(5) 0.33620(10)
O4_2 O 0.27343(19) 0.83006(4) 0.30754(7)
O9_3 O 0.5000 0.94203(7) 0.7500
H1_2 H 0.4581 0.9470 0.7388
O10_2 O 0.6941(3) 0.83392(8) 0.77661(9)
H2_2 H 0.6452 0.8310 0.7750
H3_2 H 0.7059 0.8377 0.8012
O11_2 O 0.8530(2) 0.85082(9) 0.76640(11)
H4_2 H 0.8928 0.8587 0.7589
H5_2 H 0.8607 0.8366 0.7612
O12_2 O 0.8384(4) 0.89525(9) 0.72789(19)
H6_2 H 0.8327 0.9033 0.7061
H7_2 H 0.8847 0.8897 0.7288
C1_2 C 0.4902(2) 0.76240(5) 0.51569(7)
C2_2 C 0.50228(19) 0.77561(5) 0.55114(8)
H8_2 H 0.5238 0.7688 0.5748
C3_2 C 0.4829(2) 0.79903(5) 0.55231(8)
C4_2 C 0.4484(2) 0.80876(5) 0.51742(8)
H9_2 H 0.4337 0.8239 0.5179
C5_2 C 0.4352(2) 0.79599(5) 0.48123(8)
C6_2 C 0.4571(2) 0.77263(5) 0.48114(8)
H10_2 H 0.4487 0.7641 0.4572
C7_2 C 0.4975(2) 0.81284(5) 0.58932(9)
C8_2 C 0.5671(3) 0.81027(6) 0.61245(10)
H11_2 H 0.6045 0.7991 0.6052
C9_2 C 0.5834(2) 0.82390(6) 0.64636(10)
H12_2 H 0.6317 0.8221 0.6613
C10_2 C 0.5273(2) 0.84035(5) 0.65808(10)
C11_2 C 0.4581(2) 0.84299(6) 0.63621(10)
H13_2 H 0.4202 0.8540 0.6439
C12_2 C 0.4432(2) 0.82938(6) 0.60226(10)
H14_2 H 0.3948 0.8314 0.5875
C13_2 C 0.5440(3) 0.85571(7) 0.69531(11)
C14_2 C 0.4005(2) 0.80727(5) 0.44393(9)
C15_2 C 0.4036(4) 0.83015(7) 0.43857(13)
H15_2 H 0.4283 0.8389 0.4590
C16_2 C 0.3712(4) 0.84093(7) 0.40374(15)
H16_2 H 0.3754 0.8565 0.4011
C17_2 C 0.3345(2) 0.82892(6) 0.37441(10)
C18_2 C 0.3316(3) 0.80675(7) 0.37873(12)
H17_2 H 0.3061 0.7982 0.3582
C19_2 C 0.3657(3) 0.79566(7) 0.41324(11)
H18_2 H 0.3639 0.7800 0.4147
C20_2 C 0.2998(3) 0.84053(7) 0.33677(12)
O13_2 O 0.50813(18) 0.63063(4) 0.70539(7)
O14_2 O 0.3885(2) 0.64640(5) 0.71318(9)
O15_2 O 0.6983(3) 0.63789(5) 0.33620(10)
O16_2 O 0.72657(19) 0.66994(4) 0.30754(7)
C41_2 C 0.5098(2) 0.73760(5) 0.51569(7)
C42_2 C 0.49772(19) 0.72439(5) 0.55114(8)
H30_2 H 0.4762 0.7312 0.5748
C43_2 C 0.5171(2) 0.70097(5) 0.55231(8)
C44_2 C 0.5516(2) 0.69124(5) 0.51742(8)
H31_2 H 0.5663 0.6761 0.5179
C45_2 C 0.5648(2) 0.70401(5) 0.48123(8)
C46_2 C 0.5429(2) 0.72737(5) 0.48114(8)
H32_2 H 0.5513 0.7359 0.4572
C47_2 C 0.5025(2) 0.68716(5) 0.58932(9)
C48_2 C 0.4329(3) 0.68973(6) 0.61245(10)
H33_2 H 0.3955 0.7009 0.6052
C49_2 C 0.4166(2) 0.67610(6) 0.64636(10)
H34_2 H 0.3683 0.6779 0.6613
C50_2 C 0.4727(2) 0.65965(5) 0.65808(10)
C51_2 C 0.5419(2) 0.65701(6) 0.63621(10)
H35_2 H 0.5798 0.6460 0.6439
C52_2 C 0.5568(2) 0.67062(6) 0.60226(10)
H36_2 H 0.6052 0.6686 0.5875
C53_2 C 0.4560(3) 0.64429(7) 0.69531(11)
C54_2 C 0.5995(2) 0.69273(5) 0.44393(9)
C55_2 C 0.5964(4) 0.66985(7) 0.43857(13)
H37_2 H 0.5717 0.6611 0.4590
C56_2 C 0.6288(4) 0.65907(7) 0.40374(15)
H38_2 H 0.6246 0.6435 0.4011
C57_2 C 0.6655(2) 0.67108(6) 0.37441(10)
C58_2 C 0.6684(3) 0.69325(7) 0.37873(12)
H39_2 H 0.6939 0.7018 0.3582
C59_2 C 0.6343(3) 0.70434(7) 0.41324(11)
H40_2 H 0.6361 0.7200 0.4147
C60_2 C 0.7002(3) 0.65947(7) 0.33677(12)
H52_2 H 0.5419 0.9470 0.7612
O21_2 O 0.1941(3) 0.83392(8) 0.22339(9)
H53_2 H 0.1452 0.8310 0.2250
H54_2 H 0.2059 0.8377 0.1988
O22_2 O 0.3530(2) 0.85082(9) 0.23360(11)
H55_2 H 0.3928 0.8587 0.2411
H56_2 H 0.3607 0.8366 0.2388
O23_2 O 0.3384(4) 0.89525(9) 0.27211(19)
H57_2 H 0.3327 0.9033 0.2939
H58_2 H 0.3847 0.8897 0.2712
Ho5_3 Ho 0.5000 0.599868(3) 0.7500
Ho10_2 Ho 0.261375(11) 0.634265(3) 0.729486(4)
Ho12_2 Ho 0.761375(11) 0.634265(3) 0.270514(4)
O24_2 O 0.50813(18) 0.86937(4) 0.79461(7)
O25_2 O 0.1115(2) 0.85360(5) 0.28682(9)
O26_2 O 0.8017(3) 0.86211(5) 0.66380(10)
O27_2 O 0.77343(19) 0.83006(4) 0.69246(7)
O28_2 O 0.6199(2) 0.90467(6) 0.78124(8)
O29_2 O 0.7272(3) 0.88386(9) 0.79236(13)
O30_2 O 0.2272(3) 0.88386(9) 0.20764(13)
O31_2 O 0.6863(2) 0.89491(6) 0.69232(9)
O32_2 O 0.56891(19) 0.91240(5) 0.69249(7)
O33_2 O 0.43109(19) 0.91240(5) 0.80751(7)
O15_3 O 0.1983(3) 0.36211(5) 0.16380(10)
O16_3 O 0.22657(19) 0.33006(4) 0.19246(7)
C45_3 C 0.0648(2) 0.29599(5) 0.01877(8)
C46_3 C 0.0429(2) 0.27263(5) 0.01886(8)
H32_3 H 0.0513 0.2641 0.0428
C54_3 C 0.0995(2) 0.30727(5) 0.05607(9)
C55_3 C 0.0964(4) 0.33015(7) 0.06143(13)
H37_3 H 0.0717 0.3389 0.0410
C56_3 C 0.1288(4) 0.34093(7) 0.09626(15)
H38_3 H 0.1246 0.3565 0.0989
C57_3 C 0.1655(2) 0.32892(6) 0.12559(10)
C58_3 C 0.1684(3) 0.30675(7) 0.12127(12)
H39_3 H 0.1939 0.2982 0.1418
C59_3 C 0.1343(3) 0.29566(7) 0.08676(11)
H40_3 H 0.1361 0.2800 0.0853
C60_3 C 0.2002(3) 0.34053(7) 0.16323(12)
Ho12_3 Ho 0.261375(11) 0.365735(3) 0.229486(4)
O2_3 O 0.1115(2) 0.14640(5) 0.78682(9)
O10_3 O 0.1941(3) 0.16608(8) 0.72339(9)
H2_3 H 0.1452 0.1690 0.7250
H3_3 H 0.2059 0.1623 0.6988
O11_3 O 0.3530(2) 0.14918(9) 0.73360(11)
H4_3 H 0.3928 0.1413 0.7411
H5_3 H 0.3607 0.1634 0.7388
O12_3 O 0.3384(4) 0.10475(9) 0.77211(19)
H6_3 H 0.3327 0.0967 0.7939
H7_3 H 0.3847 0.1103 0.7712
C2_3 C 0.00228(19) 0.22439(5) 0.94886(8)
H8_3 H 0.0238 0.2312 0.9252
C8_3 C 0.0671(3) 0.18973(6) 0.88755(10)
H11_3 H 0.1045 0.2009 0.8948
C9_3 C 0.0834(2) 0.17610(6) 0.85364(10)
H12_3 H 0.1317 0.1779 0.8387
C10_3 C 0.0273(2) 0.15965(5) 0.84192(10)
C13_3 C 0.0440(3) 0.14429(7) 0.80469(11)
O13_3 O 0.00813(18) 0.36937(4) 0.79461(7)
C41_3 C 0.0098(2) 0.26240(5) 0.98431(7)
C43_3 C 0.0171(2) 0.29903(5) 0.94769(8)
C44_3 C 0.0516(2) 0.30876(5) 0.98258(8)
H31_3 H 0.0663 0.3239 0.9821
C47_3 C 0.0025(2) 0.31284(5) 0.91068(9)
C51_3 C 0.0419(2) 0.34299(6) 0.86379(10)
H35_3 H 0.0798 0.3540 0.8561
C52_3 C 0.0568(2) 0.32938(6) 0.89774(10)
H36_3 H 0.1052 0.3314 0.9125
O26_3 O 0.3017(3) 0.13789(5) 0.83620(10)
O27_3 O 0.27343(19) 0.16994(4) 0.80754(7)
O31_3 O 0.1863(2) 0.10509(6) 0.80768(9)
O3_3 O 0.8017(3) 0.13789(5) 0.16380(10)
O4_3 O 0.77343(19) 0.16994(4) 0.19246(7)
O7_2 O 0.6863(2) 0.10509(6) 0.19232(9)
O8_2 O 0.56891(19) 0.08760(5) 0.19249(7)
C5_3 C 0.9352(2) 0.20401(5) 0.01877(8)
C6_3 C 0.9571(2) 0.22737(5) 0.01886(8)
H10_3 H 0.9487 0.2359 0.0428
C14_3 C 0.9005(2) 0.19273(5) 0.05607(9)
C15_3 C 0.9036(4) 0.16985(7) 0.06143(13)
H15_3 H 0.9283 0.1611 0.0410
C16_3 C 0.8712(4) 0.15907(7) 0.09626(15)
H16_3 H 0.8754 0.1435 0.0989
C17_3 C 0.8345(2) 0.17108(6) 0.12559(10)
C18_3 C 0.8316(3) 0.19325(7) 0.12127(12)
H17_3 H 0.8061 0.2018 0.1418
C19_3 C 0.8657(3) 0.20434(7) 0.08676(11)
H18_3 H 0.8639 0.2200 0.0853
C20_3 C 0.7998(3) 0.15947(7) 0.16323(12)
C25_2 C 0.7217(3) 0.04823(6) 0.02300(8)
C26_2 C 0.7246(3) 0.02479(6) 0.02170(8)
H21_2 H 0.7110 0.0167 0.0455
C34_2 C 0.6970(3) 0.06024(6) 0.06212(9)
C35_2 C 0.6333(3) 0.05203(6) 0.08595(9)
H26_2 H 0.6044 0.0393 0.0772
C36_2 C 0.6126(3) 0.06235(6) 0.12202(9)
H27_2 H 0.5692 0.0568 0.1377
C37_2 C 0.6556(2) 0.08122(6) 0.13594(9)
C38_2 C 0.7189(3) 0.08973(6) 0.11241(11)
H28_2 H 0.7484 0.1023 0.1215
C39_2 C 0.7380(3) 0.07940(6) 0.07516(10)
H29_2 H 0.7792 0.0854 0.0586
C40_2 C 0.6347(4) 0.09257(7) 0.17689(11)
Ho3_2 Ho 0.738625(11) 0.134265(3) 0.229486(4)
O21_3 O 0.6941(3) 0.16608(8) 0.27661(9)
H53_3 H 0.6452 0.1690 0.2750
H54_3 H 0.7059 0.1623 0.3012
O22_3 O 0.8530(2) 0.14918(9) 0.26640(11)
H55_3 H 0.8928 0.1413 0.2589
H56_3 H 0.8607 0.1634 0.2612
O23_3 O 0.8384(4) 0.10475(9) 0.22789(19)
H57_3 H 0.8327 0.0967 0.2061
H58_3 H 0.8847 0.1103 0.2288
O25_3 O 0.6115(2) 0.14640(5) 0.21318(9)
O30_3 O 0.7272(3) 0.11614(9) 0.29236(13)
C1_3 C 0.9902(2) 0.23760(5) 0.98431(7)
C3_3 C 0.9829(2) 0.20097(5) 0.94769(8)
C4_3 C 0.9484(2) 0.19124(5) 0.98258(8)
H9_3 H 0.9337 0.1761 0.9821
C7_3 C 0.9975(2) 0.18716(5) 0.91068(9)
C11_3 C 0.9581(2) 0.15701(6) 0.86379(10)
H13_3 H 0.9202 0.1460 0.8561
C12_3 C 0.9432(2) 0.17062(6) 0.89774(10)
H14_3 H 0.8948 0.1686 0.9125
C21_2 C 0.7470(2) 0.01299(6) 0.98602(8)
C22_2 C 0.7663(2) 0.02572(6) 0.95129(8)
H19_2 H 0.7829 0.0184 0.9271
C23_2 C 0.7615(2) 0.04971(6) 0.95143(9)
C24_2 C 0.7386(2) 0.06070(6) 0.98784(9)
H20_2 H 0.7348 0.0764 0.9885
C27_2 C 0.7793(3) 0.06290(6) 0.91365(9)
C28_2 C 0.7324(3) 0.08180(8) 0.90293(12)
H22_2 H 0.6902 0.0862 0.9206
C29_2 C 0.7460(3) 0.09400(8) 0.86753(13)
H23_2 H 0.7134 0.1064 0.8614
C30_2 C 0.8076(3) 0.08784(8) 0.84131(10)
C31_2 C 0.8575(3) 0.06989(7) 0.85216(10)
H24_2 H 0.9025 0.0664 0.8356
C32_2 C 0.8416(3) 0.05711(6) 0.88731(9)
H25_2 H 0.8735 0.0445 0.8931
C33_2 C 0.8195(4) 0.10151(10) 0.80141(12)
O14_3 O 0.8885(2) 0.35360(5) 0.78682(9)
C42_3 C 0.99772(19) 0.27561(5) 0.94886(8)
H30_3 H 0.9762 0.2688 0.9252
C48_3 C 0.9329(3) 0.31027(6) 0.88755(10)
H33_3 H 0.8955 0.2991 0.8948
C49_3 C 0.9166(2) 0.32390(6) 0.85364(10)
H34_3 H 0.8683 0.3221 0.8387
C50_3 C 0.9727(2) 0.34035(5) 0.84192(10)
C53_3 C 0.9560(3) 0.35571(7) 0.80469(11)
Ho10_3 Ho 0.761375(11) 0.365735(3) 0.770514(4)
O19_2 O 0.8137(2) 0.89491(6) 0.19232(9)
O20_2 O 0.93109(19) 0.91240(5) 0.19249(7)
C65_2 C 0.7783(3) 0.95177(6) 0.02300(8)
C66_2 C 0.7754(3) 0.97521(6) 0.02170(8)
H43_2 H 0.7890 0.9833 0.0455
C74_2 C 0.8030(3) 0.93976(6) 0.06212(9)
C75_2 C 0.8667(3) 0.94797(6) 0.08595(9)
H48_2 H 0.8956 0.9607 0.0772
C76_2 C 0.8874(3) 0.93765(6) 0.12202(9)
H49_2 H 0.9308 0.9432 0.1377
C77_2 C 0.8444(2) 0.91878(6) 0.13594(9)
C78_2 C 0.7811(3) 0.91027(6) 0.11241(11)
H50_2 H 0.7516 0.8977 0.1215
C79_2 C 0.7620(3) 0.92060(6) 0.07516(10)
H51_2 H 0.7208 0.9146 0.0586
C80_2 C 0.8653(4) 0.90743(7) 0.17689(11)
Ho11_2 Ho 0.761375(11) 0.865735(3) 0.229486(4)
C61_2 C 0.7530(2) 0.98701(6) 0.98602(8)
C62_2 C 0.7337(2) 0.97428(6) 0.95129(8)
H41_2 H 0.7171 0.9816 0.9271
C63_2 C 0.7385(2) 0.95029(6) 0.95143(9)
C64_2 C 0.7614(2) 0.93930(6) 0.98784(9)
H42_2 H 0.7652 0.9236 0.9885
C67_2 C 0.7207(3) 0.93710(6) 0.91365(9)
C68_2 C 0.7676(3) 0.91820(8) 0.90293(12)
H44_2 H 0.8098 0.9138 0.9206
C69_2 C 0.7540(3) 0.90600(8) 0.86753(13)
H45_2 H 0.7866 0.8936 0.8614
C70_2 C 0.6924(3) 0.91216(8) 0.84131(10)
C71_2 C 0.6425(3) 0.93011(7) 0.85216(10)
H46_2 H 0.5975 0.9336 0.8356
C72_2 C 0.6584(3) 0.94289(6) 0.88731(9)
H47_2 H 0.6265 0.9555 0.8931
C73_2 C 0.6805(4) 0.89849(10) 0.80141(12)
O3_4 O 0.6983(3) 0.86211(5) 0.16380(10)
O4_4 O 0.72657(19) 0.83006(4) 0.19246(7)
C5_4 C 0.5648(2) 0.79599(5) 0.01877(8)
C6_4 C 0.5429(2) 0.77263(5) 0.01886(8)
H10_4 H 0.5513 0.7641 0.0428
C14_4 C 0.5995(2) 0.80727(5) 0.05607(9)
C15_4 C 0.5964(4) 0.83015(7) 0.06143(13)
H15_4 H 0.5717 0.8389 0.0410
C16_4 C 0.6288(4) 0.84093(7) 0.09626(15)
H16_4 H 0.6246 0.8565 0.0989
C17_4 C 0.6655(2) 0.82892(6) 0.12559(10)
C18_4 C 0.6684(3) 0.80675(7) 0.12127(12)
H17_4 H 0.6939 0.7982 0.1418
C19_4 C 0.6343(3) 0.79566(7) 0.08676(11)
H18_4 H 0.6361 0.7800 0.0853
C20_4 C 0.7002(3) 0.84053(7) 0.16323(12)
O15_4 O 0.3017(3) 0.63789(5) 0.16380(10)
O16_4 O 0.27343(19) 0.66994(4) 0.19246(7)
C45_4 C 0.4352(2) 0.70401(5) 0.01877(8)
C46_4 C 0.4571(2) 0.72737(5) 0.01886(8)
H32_4 H 0.4487 0.7359 0.0428
C54_4 C 0.4005(2) 0.69273(5) 0.05607(9)
C55_4 C 0.4036(4) 0.66985(7) 0.06143(13)
H37_4 H 0.4283 0.6611 0.0410
C56_4 C 0.3712(4) 0.65907(7) 0.09626(15)
H38_4 H 0.3754 0.6435 0.0989
C57_4 C 0.3345(2) 0.67108(6) 0.12559(10)
C58_4 C 0.3316(3) 0.69325(7) 0.12127(12)
H39_4 H 0.3061 0.7018 0.1418
C59_4 C 0.3657(3) 0.70434(7) 0.08676(11)
H40_4 H 0.3639 0.7200 0.0853
C60_4 C 0.2998(3) 0.65947(7) 0.16323(12)
O21_4 O 0.8059(3) 0.83392(8) 0.27661(9)
H53_4 H 0.8548 0.8310 0.2750
H54_4 H 0.7941 0.8377 0.3012
O22_4 O 0.6470(2) 0.85082(9) 0.26640(11)
H55_4 H 0.6072 0.8587 0.2589
H56_4 H 0.6393 0.8366 0.2612
O23_4 O 0.6616(4) 0.89525(9) 0.22789(19)
H57_4 H 0.6673 0.9033 0.2061
H58_4 H 0.6153 0.8897 0.2288
Ho12_4 Ho 0.238625(11) 0.634265(3) 0.229486(4)
O25_4 O 0.8885(2) 0.85360(5) 0.21318(9)
O30_4 O 0.7728(3) 0.88386(9) 0.29236(13)
O2_4 O 0.3885(2) 0.85360(5) 0.78682(9)
O10_4 O 0.3059(3) 0.83392(8) 0.72339(9)
H2_4 H 0.3548 0.8310 0.7250
H3_4 H 0.2941 0.8377 0.6988
O11_4 O 0.1470(2) 0.85082(9) 0.73360(11)
H4_4 H 0.1072 0.8587 0.7411
H5_4 H 0.1393 0.8366 0.7388
O12_4 O 0.1616(4) 0.89525(9) 0.77211(19)
H6_4 H 0.1673 0.9033 0.7939
H7_4 H 0.1153 0.8897 0.7712
C1_4 C 0.5098(2) 0.76240(5) 0.98431(7)
C2_4 C 0.49772(19) 0.77561(5) 0.94886(8)
H8_4 H 0.4762 0.7688 0.9252
C3_4 C 0.5171(2) 0.79903(5) 0.94769(8)
C4_4 C 0.5516(2) 0.80876(5) 0.98258(8)
H9_4 H 0.5663 0.8239 0.9821
C7_4 C 0.5025(2) 0.81284(5) 0.91068(9)
C8_4 C 0.4329(3) 0.81027(6) 0.88755(10)
H11_4 H 0.3955 0.7991 0.8948
C9_4 C 0.4166(2) 0.82390(6) 0.85364(10)
H12_4 H 0.3683 0.8221 0.8387
C10_4 C 0.4727(2) 0.84035(5) 0.84192(10)
C11_4 C 0.5419(2) 0.84299(6) 0.86379(10)
H13_4 H 0.5798 0.8540 0.8561
C12_4 C 0.5568(2) 0.82938(6) 0.89774(10)
H14_4 H 0.6052 0.8314 0.9125
C13_4 C 0.4560(3) 0.85571(7) 0.80469(11)
O13_4 O 0.49187(18) 0.63063(4) 0.79461(7)
O14_4 O 0.6115(2) 0.64640(5) 0.78682(9)
C41_4 C 0.4902(2) 0.73760(5) 0.98431(7)
C42_4 C 0.50228(19) 0.72439(5) 0.94886(8)
H30_4 H 0.5238 0.7312 0.9252
C43_4 C 0.4829(2) 0.70097(5) 0.94769(8)
C44_4 C 0.4484(2) 0.69124(5) 0.98258(8)
H31_4 H 0.4337 0.6761 0.9821
C47_4 C 0.4975(2) 0.68716(5) 0.91068(9)
C48_4 C 0.5671(3) 0.68973(6) 0.88755(10)
H33_4 H 0.6045 0.7009 0.8948
C49_4 C 0.5834(2) 0.67610(6) 0.85364(10)
H34_4 H 0.6317 0.6779 0.8387
C50_4 C 0.5273(2) 0.65965(5) 0.84192(10)
C51_4 C 0.4581(2) 0.65701(6) 0.86379(10)
H35_4 H 0.4202 0.6460 0.8561
C52_4 C 0.4432(2) 0.67062(6) 0.89774(10)
H36_4 H 0.3948 0.6686 0.9125
C53_4 C 0.5440(3) 0.64429(7) 0.80469(11)
Ho10_4 Ho 0.738625(11) 0.634265(3) 0.770514(4)
O26_4 O 0.1983(3) 0.86211(5) 0.83620(10)
O27_4 O 0.22657(19) 0.83006(4) 0.80754(7)
O31_4 O 0.3137(2) 0.89491(6) 0.80768(9)
Ho7_2 Ho -0.0000 0.599868(3) 0.2500
O5_2 O 0.6199(2) 0.59533(6) 0.71876(8)
O6_2 O 0.7272(3) 0.61614(9) 0.70764(13)
O7_3 O 0.8137(2) 0.60509(6) 0.30768(9)
O8_3 O 0.93109(19) 0.58760(5) 0.30751(7)
O9_4 O 0.5000 0.55797(7) 0.7500
H1_3 H 0.5419 0.5530 0.7388
O10_5 O 0.3059(3) 0.66608(8) 0.77661(9)
H2_5 H 0.3548 0.6690 0.7750
H3_5 H 0.2941 0.6623 0.8012
O11_5 O 0.1470(2) 0.64918(9) 0.76640(11)
H4_5 H 0.1072 0.6413 0.7589
H5_5 H 0.1393 0.6634 0.7612
O12_5 O 0.1616(4) 0.60475(9) 0.72789(19)
H6_5 H 0.1673 0.5967 0.7061
H7_5 H 0.1153 0.6103 0.7288
C21_3 C 0.7530(2) 0.51299(6) 0.51398(8)
C22_3 C 0.7337(2) 0.52572(6) 0.54871(8)
H19_3 H 0.7171 0.5184 0.5729
C23_3 C 0.7385(2) 0.54971(6) 0.54857(9)
C24_3 C 0.7614(2) 0.56070(6) 0.51216(9)
H20_3 H 0.7652 0.5764 0.5115
C25_3 C 0.7783(3) 0.54823(6) 0.47700(8)
C26_3 C 0.7754(3) 0.52479(6) 0.47830(8)
H21_3 H 0.7890 0.5167 0.4545
C27_3 C 0.7207(3) 0.56290(6) 0.58635(9)
C28_3 C 0.7676(3) 0.58180(8) 0.59707(12)
H22_3 H 0.8098 0.5862 0.5794
C29_3 C 0.7540(3) 0.59400(8) 0.63247(13)
H23_3 H 0.7866 0.6064 0.6386
C30_3 C 0.6924(3) 0.58784(8) 0.65869(10)
C31_3 C 0.6425(3) 0.56989(7) 0.64784(10)
H24_3 H 0.5975 0.5664 0.6644
C32_3 C 0.6584(3) 0.55711(6) 0.61269(9)
H25_3 H 0.6265 0.5445 0.6069
C33_3 C 0.6805(4) 0.60151(10) 0.69859(12)
C34_3 C 0.8030(3) 0.56024(6) 0.43788(9)
C35_3 C 0.8667(3) 0.55203(6) 0.41405(9)
H26_3 H 0.8956 0.5393 0.4228
C36_3 C 0.8874(3) 0.56235(6) 0.37798(9)
H27_3 H 0.9308 0.5568 0.3623
C37_3 C 0.8444(2) 0.58122(6) 0.36406(9)
C38_3 C 0.7811(3) 0.58973(6) 0.38759(11)
H28_3 H 0.7516 0.6023 0.3785
C39_3 C 0.7620(3) 0.57940(6) 0.42484(10)
H29_3 H 0.7208 0.5854 0.4414
C40_3 C 0.8653(4) 0.59257(7) 0.32311(11)
O17_2 O 0.8801(2) 0.40467(6) 0.71876(8)
O18_2 O 0.7728(3) 0.38386(9) 0.70764(13)
O19_3 O 0.6863(2) 0.39491(6) 0.30768(9)
O20_3 O 0.56891(19) 0.41240(5) 0.30751(7)
C61_3 C 0.7470(2) 0.48701(6) 0.51398(8)
C62_3 C 0.7663(2) 0.47428(6) 0.54871(8)
H41_3 H 0.7829 0.4816 0.5729
C63_3 C 0.7615(2) 0.45029(6) 0.54857(9)
C64_3 C 0.7386(2) 0.43930(6) 0.51216(9)
H42_3 H 0.7348 0.4236 0.5115
C65_3 C 0.7217(3) 0.45177(6) 0.47700(8)
C66_3 C 0.7246(3) 0.47521(6) 0.47830(8)
H43_3 H 0.7110 0.4833 0.4545
C67_3 C 0.7793(3) 0.43710(6) 0.58635(9)
C68_3 C 0.7324(3) 0.41820(8) 0.59707(12)
H44_3 H 0.6902 0.4138 0.5794
C69_3 C 0.7460(3) 0.40600(8) 0.63247(13)
H45_3 H 0.7134 0.3936 0.6386
C70_3 C 0.8076(3) 0.41216(8) 0.65869(10)
C71_3 C 0.8575(3) 0.43011(7) 0.64784(10)
H46_3 H 0.9025 0.4336 0.6644
C72_3 C 0.8416(3) 0.44289(6) 0.61269(9)
H47_3 H 0.8735 0.4555 0.6069
C73_3 C 0.8195(4) 0.39849(10) 0.69859(12)
C74_3 C 0.6970(3) 0.43976(6) 0.43788(9)
C75_3 C 0.6333(3) 0.44797(6) 0.41405(9)
H48_3 H 0.6044 0.4607 0.4228
C76_3 C 0.6126(3) 0.43765(6) 0.37798(9)
H49_3 H 0.5692 0.4432 0.3623
C77_3 C 0.6556(2) 0.41878(6) 0.36406(9)
C78_3 C 0.7189(3) 0.41027(6) 0.38759(11)
H50_3 H 0.7484 0.3977 0.3785
C79_3 C 0.7380(3) 0.42060(6) 0.42484(10)
H51_3 H 0.7792 0.4146 0.4414
C80_3 C 0.6347(4) 0.40743(7) 0.32311(11)
H52_3 H 0.4581 0.5530 0.7612
O21_5 O 0.8059(3) 0.66608(8) 0.22339(9)
H53_5 H 0.8548 0.6690 0.2250
H54_5 H 0.7941 0.6623 0.1988
O22_5 O 0.6470(2) 0.64918(9) 0.23360(11)
H55_5 H 0.6072 0.6413 0.2411
H56_5 H 0.6393 0.6634 0.2388
O23_5 O 0.6616(4) 0.60475(9) 0.27211(19)
H57_5 H 0.6673 0.5967 0.2939
H58_5 H 0.6153 0.6103 0.2712
Ho6_3 Ho 0.5000 0.400132(3) 0.2500
Ho7_3 Ho 1.0000 0.599868(3) 0.2500
O25_5 O 0.8885(2) 0.64640(5) 0.28682(9)
O26_5 O 0.1983(3) 0.63789(5) 0.66380(10)
O27_5 O 0.22657(19) 0.66994(4) 0.69246(7)
O28_3 O 0.3801(2) 0.59533(6) 0.78124(8)
O29_3 O 0.2728(3) 0.61614(9) 0.79236(13)
O30_5 O 0.7728(3) 0.61614(9) 0.20764(13)
O31_5 O 0.3137(2) 0.60509(6) 0.69232(9)
O32_3 O 0.43109(19) 0.58760(5) 0.69249(7)
O33_3 O 0.56891(19) 0.58760(5) 0.80751(7)
O9_5 O 0.0000 0.44203(7) 0.7500
O10_6 O 0.1941(3) 0.33392(8) 0.77661(9)
H2_6 H 0.1452 0.3310 0.7750
H3_6 H 0.2059 0.3377 0.8012
O11_6 O 0.3530(2) 0.35082(9) 0.76640(11)
H4_6 H 0.3928 0.3587 0.7589
H5_6 H 0.3607 0.3366 0.7612
O12_6 O 0.3384(4) 0.39525(9) 0.72789(19)
H6_6 H 0.3327 0.4033 0.7061
H7_6 H 0.3847 0.3897 0.7288
H52_4 H 0.0419 0.4470 0.7612
O26_6 O 0.3017(3) 0.36211(5) 0.66380(10)
O27_6 O 0.27343(19) 0.33006(4) 0.69246(7)
O28_4 O 0.1199(2) 0.40467(6) 0.78124(8)
O29_4 O 0.2272(3) 0.38386(9) 0.79236(13)
O31_6 O 0.1863(2) 0.39491(6) 0.69232(9)
O32_4 O 0.06891(19) 0.41240(5) 0.69249(7)
O9_6 O 1.0000 0.44203(7) 0.7500
H1_4 H 0.9581 0.4470 0.7388
O21_6 O 0.6941(3) 0.33392(8) 0.22339(9)
H53_6 H 0.6452 0.3310 0.2250
H54_6 H 0.7059 0.3377 0.1988
O22_6 O 0.8530(2) 0.35082(9) 0.23360(11)
H55_6 H 0.8928 0.3587 0.2411
H56_6 H 0.8607 0.3366 0.2388
O23_6 O 0.8384(4) 0.39525(9) 0.27211(19)
H57_6 H 0.8327 0.4033 0.2939
H58_6 H 0.8847 0.3897 0.2712
O25_6 O 0.6115(2) 0.35360(5) 0.28682(9)
O30_6 O 0.7272(3) 0.38386(9) 0.20764(13)
O33_4 O 0.93109(19) 0.41240(5) 0.80751(7)
O7_4 O 0.1863(2) 0.60509(6) 0.19232(9)
O8_4 O 0.06891(19) 0.58760(5) 0.19249(7)
C25_4 C 0.2217(3) 0.54823(6) 0.02300(8)
C26_4 C 0.2246(3) 0.52479(6) 0.02170(8)
H21_4 H 0.2110 0.5167 0.0455
C34_4 C 0.1970(3) 0.56024(6) 0.06212(9)
C35_4 C 0.1333(3) 0.55203(6) 0.08595(9)
H26_4 H 0.1044 0.5393 0.0772
C36_4 C 0.1126(3) 0.56235(6) 0.12202(9)
H27_4 H 0.0692 0.5568 0.1377
C37_4 C 0.1556(2) 0.58122(6) 0.13594(9)
C38_4 C 0.2189(3) 0.58973(6) 0.11241(11)
H28_4 H 0.2484 0.6023 0.1215
C39_4 C 0.2380(3) 0.57940(6) 0.07516(10)
H29_4 H 0.2792 0.5854 0.0586
C40_4 C 0.1347(4) 0.59257(7) 0.17689(11)
O19_4 O 0.3137(2) 0.39491(6) 0.19232(9)
O20_4 O 0.43109(19) 0.41240(5) 0.19249(7)
C65_4 C 0.2783(3) 0.45177(6) 0.02300(8)
C66_4 C 0.2754(3) 0.47521(6) 0.02170(8)
H43_4 H 0.2890 0.4833 0.0455
C74_4 C 0.3030(3) 0.43976(6) 0.06212(9)
C75_4 C 0.3667(3) 0.44797(6) 0.08595(9)
H48_4 H 0.3956 0.4607 0.0772
C76_4 C 0.3874(3) 0.43765(6) 0.12202(9)
H49_4 H 0.4308 0.4432 0.1377
C77_4 C 0.3444(2) 0.41878(6) 0.13594(9)
C78_4 C 0.2811(3) 0.41027(6) 0.11241(11)
H50_4 H 0.2516 0.3977 0.1215
C79_4 C 0.2620(3) 0.42060(6) 0.07516(10)
H51_4 H 0.2208 0.4146 0.0586
C80_4 C 0.3653(4) 0.40743(7) 0.17689(11)
O21_7 O 0.1941(3) 0.66608(8) 0.27661(9)
H53_7 H 0.1452 0.6690 0.2750
H54_7 H 0.2059 0.6623 0.3012
O22_7 O 0.3530(2) 0.64918(9) 0.26640(11)
H55_7 H 0.3928 0.6413 0.2589
H56_7 H 0.3607 0.6634 0.2612
O23_7 O 0.3384(4) 0.60475(9) 0.22789(19)
H57_7 H 0.3327 0.5967 0.2061
H58_7 H 0.3847 0.6103 0.2288
O25_7 O 0.1115(2) 0.64640(5) 0.21318(9)
O30_7 O 0.2272(3) 0.61614(9) 0.29236(13)
O10_7 O 0.6941(3) 0.66608(8) 0.72339(9)
H2_7 H 0.6452 0.6690 0.7250
H3_7 H 0.7059 0.6623 0.6988
O11_7 O 0.8530(2) 0.64918(9) 0.73360(11)
H4_7 H 0.8928 0.6413 0.7411
H5_7 H 0.8607 0.6634 0.7388
O12_7 O 0.8384(4) 0.60475(9) 0.77211(19)
H6_7 H 0.8327 0.5967 0.7939
H7_7 H 0.8847 0.6103 0.7712
C21_4 C 0.2470(2) 0.51299(6) 0.98602(8)
C22_4 C 0.2663(2) 0.52572(6) 0.95129(8)
H19_4 H 0.2829 0.5184 0.9271
C23_4 C 0.2615(2) 0.54971(6) 0.95143(9)
C24_4 C 0.2386(2) 0.56070(6) 0.98784(9)
H20_4 H 0.2348 0.5764 0.9885
C27_4 C 0.2793(3) 0.56290(6) 0.91365(9)
C28_4 C 0.2324(3) 0.58180(8) 0.90293(12)
H22_4 H 0.1902 0.5862 0.9206
C29_4 C 0.2460(3) 0.59400(8) 0.86753(13)
H23_4 H 0.2134 0.6064 0.8614
C30_4 C 0.3076(3) 0.58784(8) 0.84131(10)
C31_4 C 0.3575(3) 0.56989(7) 0.85216(10)
H24_4 H 0.4025 0.5664 0.8356
C32_4 C 0.3416(3) 0.55711(6) 0.88731(9)
H25_4 H 0.3735 0.5445 0.8931
C33_4 C 0.3195(4) 0.60151(10) 0.80141(12)
C61_4 C 0.2530(2) 0.48701(6) 0.98602(8)
C62_4 C 0.2337(2) 0.47428(6) 0.95129(8)
H41_4 H 0.2171 0.4816 0.9271
C63_4 C 0.2385(2) 0.45029(6) 0.95143(9)
C64_4 C 0.2614(2) 0.43930(6) 0.98784(9)
H42_4 H 0.2652 0.4236 0.9885
C67_4 C 0.2207(3) 0.43710(6) 0.91365(9)
C68_4 C 0.2676(3) 0.41820(8) 0.90293(12)
H44_4 H 0.3098 0.4138 0.9206
C69_4 C 0.2540(3) 0.40600(8) 0.86753(13)
H45_4 H 0.2866 0.3936 0.8614
C70_4 C 0.1924(3) 0.41216(8) 0.84131(10)
C71_4 C 0.1425(3) 0.43011(7) 0.85216(10)
H46_4 H 0.0975 0.4336 0.8356
C72_4 C 0.1584(3) 0.44289(6) 0.88731(9)
H47_4 H 0.1265 0.4555 0.8931
C73_4 C 0.1805(4) 0.39849(10) 0.80141(12)
O26_7 O 0.8017(3) 0.63789(5) 0.83620(10)
O27_7 O 0.77343(19) 0.66994(4) 0.80754(7)
O31_7 O 0.6863(2) 0.60509(6) 0.80768(9)
O21_8 O 0.3059(3) 0.33392(8) 0.27661(9)
H53_8 H 0.3548 0.3310 0.2750
H54_8 H 0.2941 0.3377 0.3012
O22_8 O 0.1470(2) 0.35082(9) 0.26640(11)
H55_8 H 0.1072 0.3587 0.2589
H56_8 H 0.1393 0.3366 0.2612
O23_8 O 0.1616(4) 0.39525(9) 0.22789(19)
H57_8 H 0.1673 0.4033 0.2061
H58_8 H 0.1153 0.3897 0.2288
O25_8 O 0.3885(2) 0.35360(5) 0.21318(9)
O30_8 O 0.2728(3) 0.38386(9) 0.29236(13)
O10_8 O 0.8059(3) 0.33392(8) 0.72339(9)
H2_8 H 0.8548 0.3310 0.7250
H3_8 H 0.7941 0.3377 0.6988
O11_8 O 0.6470(2) 0.35082(9) 0.73360(11)
H4_8 H 0.6072 0.3587 0.7411
H5_8 H 0.6393 0.3366 0.7388
O12_8 O 0.6616(4) 0.39525(9) 0.77211(19)
H6_8 H 0.6673 0.4033 0.7939
H7_8 H 0.6153 0.3897 0.7712
O26_8 O 0.6983(3) 0.36211(5) 0.83620(10)
O27_8 O 0.72657(19) 0.33006(4) 0.80754(7)
O31_8 O 0.8137(2) 0.39491(6) 0.80768(9)
O9_7 O -0.0000 0.94203(7) 0.2500
C2_5 C 0.00228(19) 0.77561(5) 0.44886(8)
H8_5 H 0.0238 0.7688 0.4252
C8_5 C 0.0671(3) 0.81027(6) 0.38755(10)
H11_5 H 0.1045 0.7991 0.3948
C9_5 C 0.0834(2) 0.82390(6) 0.35364(10)
H12_5 H 0.1317 0.8221 0.3387
C10_5 C 0.0273(2) 0.84035(5) 0.34192(10)
C13_5 C 0.0440(3) 0.85571(7) 0.30469(11)
O13_5 O 0.00813(18) 0.63063(4) 0.29461(7)
C41_5 C 0.0098(2) 0.73760(5) 0.48431(7)
C43_5 C 0.0171(2) 0.70097(5) 0.44769(8)
C44_5 C 0.0516(2) 0.69124(5) 0.48258(8)
H31_5 H 0.0663 0.6761 0.4821
C45_5 C 0.0648(2) 0.70401(5) 0.51877(8)
C46_5 C 0.0429(2) 0.72737(5) 0.51886(8)
H32_5 H 0.0513 0.7359 0.5428
C47_5 C 0.0025(2) 0.68716(5) 0.41068(9)
C51_5 C 0.0419(2) 0.65701(6) 0.36379(10)
H35_5 H 0.0798 0.6460 0.3561
C52_5 C 0.0568(2) 0.67062(6) 0.39774(10)
H36_5 H 0.1052 0.6686 0.4125
C54_5 C 0.0995(2) 0.69273(5) 0.55607(9)
C55_5 C 0.0964(4) 0.66985(7) 0.56143(13)
H37_5 H 0.0717 0.6611 0.5410
C56_5 C 0.1288(4) 0.65907(7) 0.59626(15)
H38_5 H 0.1246 0.6435 0.5989
C57_5 C 0.1655(2) 0.67108(6) 0.62559(10)
C58_5 C 0.1684(3) 0.69325(7) 0.62127(12)
H39_5 H 0.1939 0.7018 0.6418
C59_5 C 0.1343(3) 0.70434(7) 0.58676(11)
H40_5 H 0.1361 0.7200 0.5853
C60_5 C 0.2002(3) 0.65947(7) 0.66323(12)
H52_5 H 0.0419 0.9470 0.2388
O24_3 O 0.00813(18) 0.86937(4) 0.20539(7)
O28_5 O 0.1199(2) 0.90467(6) 0.21876(8)
O17_3 O 0.6199(2) 0.09533(6) 0.28124(8)
C61_5 C 0.7530(2) 0.01299(6) 0.48602(8)
C62_5 C 0.7337(2) 0.02572(6) 0.45129(8)
H41_5 H 0.7171 0.0184 0.4271
C63_5 C 0.7385(2) 0.04971(6) 0.45143(9)
C64_5 C 0.7614(2) 0.06070(6) 0.48784(9)
H42_5 H 0.7652 0.0764 0.4885
C65_5 C 0.7783(3) 0.04823(6) 0.52300(8)
C66_5 C 0.7754(3) 0.02479(6) 0.52170(8)
H43_5 H 0.7890 0.0167 0.5455
C67_5 C 0.7207(3) 0.06290(6) 0.41365(9)
C68_5 C 0.7676(3) 0.08180(8) 0.40293(12)
H44_5 H 0.8098 0.0862 0.4206
C69_5 C 0.7540(3) 0.09400(8) 0.36753(13)
H45_5 H 0.7866 0.1064 0.3614
C70_5 C 0.6924(3) 0.08784(8) 0.34131(10)
C71_5 C 0.6425(3) 0.06989(7) 0.35216(10)
H46_5 H 0.5975 0.0664 0.3356
C72_5 C 0.6584(3) 0.05711(6) 0.38731(9)
H47_5 H 0.6265 0.0445 0.3931
C73_5 C 0.6805(4) 0.10151(10) 0.30141(12)
C74_5 C 0.8030(3) 0.06024(6) 0.56212(9)
C75_5 C 0.8667(3) 0.05203(6) 0.58595(9)
H48_5 H 0.8956 0.0393 0.5772
C76_5 C 0.8874(3) 0.06235(6) 0.62202(9)
H49_5 H 0.9308 0.0568 0.6377
C77_5 C 0.8444(2) 0.08122(6) 0.63594(9)
C78_5 C 0.7811(3) 0.08973(6) 0.61241(11)
H50_5 H 0.7516 0.1023 0.6215
C79_5 C 0.7620(3) 0.07940(6) 0.57516(10)
H51_5 H 0.7208 0.0854 0.5586
C80_5 C 0.8653(4) 0.09257(7) 0.67689(11)
O1_3 O 0.99187(18) 0.86937(4) 0.29461(7)
O5_3 O 0.8801(2) 0.90467(6) 0.28124(8)
O9_8 O 1.0000 0.94203(7) 0.2500
H1_5 H 0.9581 0.9470 0.2612
C1_5 C 0.9902(2) 0.76240(5) 0.48431(7)
C3_5 C 0.9829(2) 0.79903(5) 0.44769(8)
C4_5 C 0.9484(2) 0.80876(5) 0.48258(8)
H9_5 H 0.9337 0.8239 0.4821
C5_5 C 0.9352(2) 0.79599(5) 0.51877(8)
C6_5 C 0.9571(2) 0.77263(5) 0.51886(8)
H10_5 H 0.9487 0.7641 0.5428
C7_5 C 0.9975(2) 0.81284(5) 0.41068(9)
C11_5 C 0.9581(2) 0.84299(6) 0.36379(10)
H13_5 H 0.9202 0.8540 0.3561
C12_5 C 0.9432(2) 0.82938(6) 0.39774(10)
H14_5 H 0.8948 0.8314 0.4125
C14_5 C 0.9005(2) 0.80727(5) 0.55607(9)
C15_5 C 0.9036(4) 0.83015(7) 0.56143(13)
H15_5 H 0.9283 0.8389 0.5410
C16_5 C 0.8712(4) 0.84093(7) 0.59626(15)
H16_5 H 0.8754 0.8565 0.5989
C17_5 C 0.8345(2) 0.82892(6) 0.62559(10)
C18_5 C 0.8316(3) 0.80675(7) 0.62127(12)
H17_5 H 0.8061 0.7982 0.6418
C19_5 C 0.8657(3) 0.79566(7) 0.58676(11)
H18_5 H 0.8639 0.7800 0.5853
C20_5 C 0.7998(3) 0.84053(7) 0.66323(12)
C21_5 C 0.7470(2) 0.98701(6) 0.48602(8)
C22_5 C 0.7663(2) 0.97428(6) 0.45129(8)
H19_5 H 0.7829 0.9816 0.4271
C23_5 C 0.7615(2) 0.95029(6) 0.45143(9)
C24_5 C 0.7386(2) 0.93930(6) 0.48784(9)
H20_5 H 0.7348 0.9236 0.4885
C25_5 C 0.7217(3) 0.95177(6) 0.52300(8)
C26_5 C 0.7246(3) 0.97521(6) 0.52170(8)
H21_5 H 0.7110 0.9833 0.5455
C27_5 C 0.7793(3) 0.93710(6) 0.41365(9)
C28_5 C 0.7324(3) 0.91820(8) 0.40293(12)
H22_5 H 0.6902 0.9138 0.4206
C29_5 C 0.7460(3) 0.90600(8) 0.36753(13)
H23_5 H 0.7134 0.8936 0.3614
C30_5 C 0.8076(3) 0.91216(8) 0.34131(10)
C31_5 C 0.8575(3) 0.93011(7) 0.35216(10)
H24_5 H 0.9025 0.9336 0.3356
C32_5 C 0.8416(3) 0.94289(6) 0.38731(9)
H25_5 H 0.8735 0.9555 0.3931
C33_5 C 0.8195(4) 0.89849(10) 0.30141(12)
C34_5 C 0.6970(3) 0.93976(6) 0.56212(9)
C35_5 C 0.6333(3) 0.94797(6) 0.58595(9)
H26_5 H 0.6044 0.9607 0.5772
C36_5 C 0.6126(3) 0.93765(6) 0.62202(9)
H27_5 H 0.5692 0.9432 0.6377
C37_5 C 0.6556(2) 0.91878(6) 0.63594(9)
C38_5 C 0.7189(3) 0.91027(6) 0.61241(11)
H28_5 H 0.7484 0.8977 0.6215
C39_5 C 0.7380(3) 0.92060(6) 0.57516(10)
H29_5 H 0.7792 0.9146 0.5586
C40_5 C 0.6347(4) 0.90743(7) 0.67689(11)
C42_5 C 0.99772(19) 0.72439(5) 0.44886(8)
H30_5 H 0.9762 0.7312 0.4252
C48_5 C 0.9329(3) 0.68973(6) 0.38755(10)
H33_5 H 0.8955 0.7009 0.3948
C49_5 C 0.9166(2) 0.67610(6) 0.35364(10)
H34_5 H 0.8683 0.6779 0.3387
C50_5 C 0.9727(2) 0.65965(5) 0.34192(10)
C53_5 C 0.9560(3) 0.64429(7) 0.30469(11)
O1_4 O 0.50813(18) 0.13063(4) 0.29461(7)
O9_9 O 0.5000 0.05797(7) 0.2500
H1_6 H 0.5419 0.0530 0.2612
C1_6 C 0.5098(2) 0.23760(5) 0.48431(7)
C2_6 C 0.49772(19) 0.22439(5) 0.44886(8)
H8_6 H 0.4762 0.2312 0.4252
C3_6 C 0.5171(2) 0.20097(5) 0.44769(8)
C4_6 C 0.5516(2) 0.19124(5) 0.48258(8)
H9_6 H 0.5663 0.1761 0.4821
C5_6 C 0.5648(2) 0.20401(5) 0.51877(8)
C6_6 C 0.5429(2) 0.22737(5) 0.51886(8)
H10_6 H 0.5513 0.2359 0.5428
C7_6 C 0.5025(2) 0.18716(5) 0.41068(9)
C8_6 C 0.4329(3) 0.18973(6) 0.38755(10)
H11_6 H 0.3955 0.2009 0.3948
C9_6 C 0.4166(2) 0.17610(6) 0.35364(10)
H12_6 H 0.3683 0.1779 0.3387
C10_6 C 0.4727(2) 0.15965(5) 0.34192(10)
C11_6 C 0.5419(2) 0.15701(6) 0.36379(10)
H13_6 H 0.5798 0.1460 0.3561
C12_6 C 0.5568(2) 0.17062(6) 0.39774(10)
H14_6 H 0.6052 0.1686 0.4125
C13_6 C 0.4560(3) 0.14429(7) 0.30469(11)
C14_6 C 0.5995(2) 0.19273(5) 0.55607(9)
C15_6 C 0.5964(4) 0.16985(7) 0.56143(13)
H15_6 H 0.5717 0.1611 0.5410
C16_6 C 0.6288(4) 0.15907(7) 0.59626(15)
H16_6 H 0.6246 0.1435 0.5989
C17_6 C 0.6655(2) 0.17108(6) 0.62559(10)
C18_6 C 0.6684(3) 0.19325(7) 0.62127(12)
H17_6 H 0.6939 0.2018 0.6418
C19_6 C 0.6343(3) 0.20434(7) 0.58676(11)
H18_6 H 0.6361 0.2200 0.5853
C20_6 C 0.7002(3) 0.15947(7) 0.66323(12)
O13_6 O 0.49187(18) 0.36937(4) 0.29461(7)
C41_6 C 0.4902(2) 0.26240(5) 0.48431(7)
C42_6 C 0.50228(19) 0.27561(5) 0.44886(8)
H30_6 H 0.5238 0.2688 0.4252
C43_6 C 0.4829(2) 0.29903(5) 0.44769(8)
C44_6 C 0.4484(2) 0.30876(5) 0.48258(8)
H31_6 H 0.4337 0.3239 0.4821
C45_6 C 0.4352(2) 0.29599(5) 0.51877(8)
C46_6 C 0.4571(2) 0.27263(5) 0.51886(8)
H32_6 H 0.4487 0.2641 0.5428
C47_6 C 0.4975(2) 0.31284(5) 0.41068(9)
C48_6 C 0.5671(3) 0.31027(6) 0.38755(10)
H33_6 H 0.6045 0.2991 0.3948
C49_6 C 0.5834(2) 0.32390(6) 0.35364(10)
H34_6 H 0.6317 0.3221 0.3387
C50_6 C 0.5273(2) 0.34035(5) 0.34192(10)
C51_6 C 0.4581(2) 0.34299(6) 0.36379(10)
H35_6 H 0.4202 0.3540 0.3561
C52_6 C 0.4432(2) 0.32938(6) 0.39774(10)
H36_6 H 0.3948 0.3314 0.4125
C53_6 C 0.5440(3) 0.35571(7) 0.30469(11)
C54_6 C 0.4005(2) 0.30727(5) 0.55607(9)
C55_6 C 0.4036(4) 0.33015(7) 0.56143(13)
H37_6 H 0.4283 0.3389 0.5410
C56_6 C 0.3712(4) 0.34093(7) 0.59626(15)
H38_6 H 0.3754 0.3565 0.5989
C57_6 C 0.3345(2) 0.32892(6) 0.62559(10)
C58_6 C 0.3316(3) 0.30675(7) 0.62127(12)
H39_6 H 0.3061 0.2982 0.6418
C59_6 C 0.3657(3) 0.29566(7) 0.58676(11)
H40_6 H 0.3639 0.2800 0.5853
C60_6 C 0.2998(3) 0.34053(7) 0.66323(12)
H52_6 H 0.4581 0.0530 0.2388
O24_4 O 0.49187(18) 0.13063(4) 0.20539(7)
O28_6 O 0.3801(2) 0.09533(6) 0.21876(8)
C61_6 C 0.2470(2) 0.01299(6) 0.01398(8)
C62_6 C 0.2663(2) 0.02572(6) 0.04871(8)
H41_6 H 0.2829 0.0184 0.0729
C63_6 C 0.2615(2) 0.04971(6) 0.04857(9)
C64_6 C 0.2386(2) 0.06070(6) 0.01216(9)
H42_6 H 0.2348 0.0764 0.0115
C67_6 C 0.2793(3) 0.06290(6) 0.08635(9)
C68_6 C 0.2324(3) 0.08180(8) 0.09707(12)
H44_6 H 0.1902 0.0862 0.0794
C69_6 C 0.2460(3) 0.09400(8) 0.13247(13)
H45_6 H 0.2134 0.1064 0.1386
C70_6 C 0.3076(3) 0.08784(8) 0.15869(10)
C71_6 C 0.3575(3) 0.06989(7) 0.14784(10)
H46_6 H 0.4025 0.0664 0.1644
C72_6 C 0.3416(3) 0.05711(6) 0.11269(9)
H47_6 H 0.3735 0.0445 0.1069
C73_6 C 0.3195(4) 0.10151(10) 0.19859(12)
C65_6 C 0.2217(3) 0.04823(6) 0.97700(8)
C66_6 C 0.2246(3) 0.02479(6) 0.97830(8)
H43_6 H 0.2110 0.0167 0.9545
C74_6 C 0.1970(3) 0.06024(6) 0.93788(9)
C75_6 C 0.1333(3) 0.05203(6) 0.91405(9)
H48_6 H 0.1044 0.0393 0.9228
C76_6 C 0.1126(3) 0.06235(6) 0.87798(9)
H49_6 H 0.0692 0.0568 0.8623
C77_6 C 0.1556(2) 0.08122(6) 0.86406(9)
C78_6 C 0.2189(3) 0.08973(6) 0.88759(11)
H50_6 H 0.2484 0.1023 0.8785
C79_6 C 0.2380(3) 0.07940(6) 0.92484(10)
H51_6 H 0.2792 0.0854 0.9414
C80_6 C 0.1347(4) 0.09257(7) 0.82311(11)
C1_7 C 0.0098(2) 0.76240(5) 0.01569(7)
C3_7 C 0.0171(2) 0.79903(5) 0.05231(8)
C4_7 C 0.0516(2) 0.80876(5) 0.01742(8)
H9_7 H 0.0663 0.8239 0.0179
C7_7 C 0.0025(2) 0.81284(5) 0.08932(9)
C11_7 C 0.0419(2) 0.84299(6) 0.13621(10)
H13_7 H 0.0798 0.8540 0.1439
C12_7 C 0.0568(2) 0.82938(6) 0.10226(10)
H14_7 H 0.1052 0.8314 0.0875
C21_6 C 0.2530(2) 0.98701(6) 0.01398(8)
C22_6 C 0.2337(2) 0.97428(6) 0.04871(8)
H19_6 H 0.2171 0.9816 0.0729
C23_6 C 0.2385(2) 0.95029(6) 0.04857(9)
C24_6 C 0.2614(2) 0.93930(6) 0.01216(9)
H20_6 H 0.2652 0.9236 0.0115
C27_6 C 0.2207(3) 0.93710(6) 0.08635(9)
C28_6 C 0.2676(3) 0.91820(8) 0.09707(12)
H22_6 H 0.3098 0.9138 0.0794
C29_6 C 0.2540(3) 0.90600(8) 0.13247(13)
H23_6 H 0.2866 0.8936 0.1386
C30_6 C 0.1924(3) 0.91216(8) 0.15869(10)
C31_6 C 0.1425(3) 0.93011(7) 0.14784(10)
H24_6 H 0.0975 0.9336 0.1644
C32_6 C 0.1584(3) 0.94289(6) 0.11269(9)
H25_6 H 0.1265 0.9555 0.1069
C33_6 C 0.1805(4) 0.89849(10) 0.19859(12)
C42_7 C 0.00228(19) 0.72439(5) 0.05114(8)
H30_7 H 0.0238 0.7312 0.0748
C48_7 C 0.0671(3) 0.68973(6) 0.11245(10)
H33_7 H 0.1045 0.7009 0.1052
C49_7 C 0.0834(2) 0.67610(6) 0.14636(10)
H34_7 H 0.1317 0.6779 0.1613
C50_7 C 0.0273(2) 0.65965(5) 0.15808(10)
C53_7 C 0.0440(3) 0.64429(7) 0.19531(11)
C5_7 C 0.0648(2) 0.79599(5) 0.98123(8)
C6_7 C 0.0429(2) 0.77263(5) 0.98114(8)
H10_7 H 0.0513 0.7641 0.9572
C14_7 C 0.0995(2) 0.80727(5) 0.94393(9)
C15_7 C 0.0964(4) 0.83015(7) 0.93857(13)
H15_7 H 0.0717 0.8389 0.9590
C16_7 C 0.1288(4) 0.84093(7) 0.90374(15)
H16_7 H 0.1246 0.8565 0.9011
C17_7 C 0.1655(2) 0.82892(6) 0.87441(10)
C18_7 C 0.1684(3) 0.80675(7) 0.87873(12)
H17_7 H 0.1939 0.7982 0.8582
C19_7 C 0.1343(3) 0.79566(7) 0.91324(11)
H18_7 H 0.1361 0.7800 0.9147
C20_7 C 0.2002(3) 0.84053(7) 0.83677(12)
C25_6 C 0.2783(3) 0.95177(6) 0.97700(8)
C26_6 C 0.2754(3) 0.97521(6) 0.97830(8)
H21_6 H 0.2890 0.9833 0.9545
C34_6 C 0.3030(3) 0.93976(6) 0.93788(9)
C35_6 C 0.3667(3) 0.94797(6) 0.91405(9)
H26_6 H 0.3956 0.9607 0.9228
C36_6 C 0.3874(3) 0.93765(6) 0.87798(9)
H27_6 H 0.4308 0.9432 0.8623
C37_6 C 0.3444(2) 0.91878(6) 0.86406(9)
C38_6 C 0.2811(3) 0.91027(6) 0.88759(11)
H28_6 H 0.2516 0.8977 0.8785
C39_6 C 0.2620(3) 0.92060(6) 0.92484(10)
H29_6 H 0.2208 0.9146 0.9414
C40_6 C 0.3653(4) 0.90743(7) 0.82311(11)
C2_7 C 0.99772(19) 0.77561(5) 0.05114(8)
H8_7 H 0.9762 0.7688 0.0748
C8_7 C 0.9329(3) 0.81027(6) 0.11245(10)
H11_7 H 0.8955 0.7991 0.1052
C9_7 C 0.9166(2) 0.82390(6) 0.14636(10)
H12_7 H 0.8683 0.8221 0.1613
C10_7 C 0.9727(2) 0.84035(5) 0.15808(10)
C13_7 C 0.9560(3) 0.85571(7) 0.19531(11)
O13_7 O 0.99187(18) 0.63063(4) 0.20539(7)
C41_7 C 0.9902(2) 0.73760(5) 0.01569(7)
C43_7 C 0.9829(2) 0.70097(5) 0.05231(8)
C44_7 C 0.9484(2) 0.69124(5) 0.01742(8)
H31_7 H 0.9337 0.6761 0.0179
C47_7 C 0.9975(2) 0.68716(5) 0.08932(9)
C51_7 C 0.9581(2) 0.65701(6) 0.13621(10)
H35_7 H 0.9202 0.6460 0.1439
C52_7 C 0.9432(2) 0.67062(6) 0.10226(10)
H36_7 H 0.8948 0.6686 0.0875
C45_7 C 0.9352(2) 0.70401(5) 0.98123(8)
C46_7 C 0.9571(2) 0.72737(5) 0.98114(8)
H32_7 H 0.9487 0.7359 0.9572
C54_7 C 0.9005(2) 0.69273(5) 0.94393(9)
C55_7 C 0.9036(4) 0.66985(7) 0.93857(13)
H37_7 H 0.9283 0.6611 0.9590
C56_7 C 0.8712(4) 0.65907(7) 0.90374(15)
H38_7 H 0.8754 0.6435 0.9011
C57_7 C 0.8345(2) 0.67108(6) 0.87441(10)
C58_7 C 0.8316(3) 0.69325(7) 0.87873(12)
H39_7 H 0.8061 0.7018 0.8582
C59_7 C 0.8657(3) 0.70434(7) 0.91324(11)
H40_7 H 0.8639 0.7200 0.9147
C60_7 C 0.7998(3) 0.65947(7) 0.83677(12)
C1_8 C 0.4902(2) 0.23760(5) 0.01569(7)
C2_8 C 0.50228(19) 0.22439(5) 0.05114(8)
H8_8 H 0.5238 0.2312 0.0748
C3_8 C 0.4829(2) 0.20097(5) 0.05231(8)
C4_8 C 0.4484(2) 0.19124(5) 0.01742(8)
H9_8 H 0.4337 0.1761 0.0179
C7_8 C 0.4975(2) 0.18716(5) 0.08932(9)
C8_8 C 0.5671(3) 0.18973(6) 0.11245(10)
H11_8 H 0.6045 0.2009 0.1052
C9_8 C 0.5834(2) 0.17610(6) 0.14636(10)
H12_8 H 0.6317 0.1779 0.1613
C10_8 C 0.5273(2) 0.15965(5) 0.15808(10)
C11_8 C 0.4581(2) 0.15701(6) 0.13621(10)
H13_8 H 0.4202 0.1460 0.1439
C12_8 C 0.4432(2) 0.17062(6) 0.10226(10)
H14_8 H 0.3948 0.1686 0.0875
C13_8 C 0.5440(3) 0.14429(7) 0.19531(11)
O13_8 O 0.50813(18) 0.36937(4) 0.20539(7)
C41_8 C 0.5098(2) 0.26240(5) 0.01569(7)
C42_8 C 0.49772(19) 0.27561(5) 0.05114(8)
H30_8 H 0.4762 0.2688 0.0748
C43_8 C 0.5171(2) 0.29903(5) 0.05231(8)
C44_8 C 0.5516(2) 0.30876(5) 0.01742(8)
H31_8 H 0.5663 0.3239 0.0179
C47_8 C 0.5025(2) 0.31284(5) 0.08932(9)
C48_8 C 0.4329(3) 0.31027(6) 0.11245(10)
H33_8 H 0.3955 0.2991 0.1052
C49_8 C 0.4166(2) 0.32390(6) 0.14636(10)
H34_8 H 0.3683 0.3221 0.1613
C50_8 C 0.4727(2) 0.34035(5) 0.15808(10)
C51_8 C 0.5419(2) 0.34299(6) 0.13621(10)
H35_8 H 0.5798 0.3540 0.1439
C52_8 C 0.5568(2) 0.32938(6) 0.10226(10)
H36_8 H 0.6052 0.3314 0.0875
C53_8 C 0.4560(3) 0.35571(7) 0.19531(11)
C5_8 C 0.4352(2) 0.20401(5) 0.98123(8)
C6_8 C 0.4571(2) 0.22737(5) 0.98114(8)
H10_8 H 0.4487 0.2359 0.9572
C14_8 C 0.4005(2) 0.19273(5) 0.94393(9)
C15_8 C 0.4036(4) 0.16985(7) 0.93857(13)
H15_8 H 0.4283 0.1611 0.9590
C16_8 C 0.3712(4) 0.15907(7) 0.90374(15)
H16_8 H 0.3754 0.1435 0.9011
C17_8 C 0.3345(2) 0.17108(6) 0.87441(10)
C18_8 C 0.3316(3) 0.19325(7) 0.87873(12)
H17_8 H 0.3061 0.2018 0.8582
C19_8 C 0.3657(3) 0.20434(7) 0.91324(11)
H18_8 H 0.3639 0.2200 0.9147
C20_8 C 0.2998(3) 0.15947(7) 0.83677(12)
C45_8 C 0.5648(2) 0.29599(5) 0.98123(8)
C46_8 C 0.5429(2) 0.27263(5) 0.98114(8)
H32_8 H 0.5513 0.2641 0.9572
C54_8 C 0.5995(2) 0.30727(5) 0.94393(9)
C55_8 C 0.5964(4) 0.33015(7) 0.93857(13)
H37_8 H 0.5717 0.3389 0.9590
C56_8 C 0.6288(4) 0.34093(7) 0.90374(15)
H38_8 H 0.6246 0.3565 0.9011
C57_8 C 0.6655(2) 0.32892(6) 0.87441(10)
C58_8 C 0.6684(3) 0.30675(7) 0.87873(12)
H39_8 H 0.6939 0.2982 0.8582
C59_8 C 0.6343(3) 0.29566(7) 0.91324(11)
H40_8 H 0.6361 0.2800 0.9147
C60_8 C 0.7002(3) 0.34053(7) 0.83677(12)
O5_4 O 0.3801(2) 0.40467(6) 0.28124(8)
O9_10 O 0.5000 0.44203(7) 0.2500
H1_7 H 0.4581 0.4470 0.2612
C21_7 C 0.2470(2) 0.48701(6) 0.48602(8)
C22_7 C 0.2663(2) 0.47428(6) 0.45129(8)
H19_7 H 0.2829 0.4816 0.4271
C23_7 C 0.2615(2) 0.45029(6) 0.45143(9)
C24_7 C 0.2386(2) 0.43930(6) 0.48784(9)
H20_7 H 0.2348 0.4236 0.4885
C25_7 C 0.2217(3) 0.45177(6) 0.52300(8)
C26_7 C 0.2246(3) 0.47521(6) 0.52170(8)
H21_7 H 0.2110 0.4833 0.5455
C27_7 C 0.2793(3) 0.43710(6) 0.41365(9)
C28_7 C 0.2324(3) 0.41820(8) 0.40293(12)
H22_7 H 0.1902 0.4138 0.4206
C29_7 C 0.2460(3) 0.40600(8) 0.36753(13)
H23_7 H 0.2134 0.3936 0.3614
C30_7 C 0.3076(3) 0.41216(8) 0.34131(10)
C31_7 C 0.3575(3) 0.43011(7) 0.35216(10)
H24_7 H 0.4025 0.4336 0.3356
C32_7 C 0.3416(3) 0.44289(6) 0.38731(9)
H25_7 H 0.3735 0.4555 0.3931
C33_7 C 0.3195(4) 0.39849(10) 0.30141(12)
C34_7 C 0.1970(3) 0.43976(6) 0.56212(9)
C35_7 C 0.1333(3) 0.44797(6) 0.58595(9)
H26_7 H 0.1044 0.4607 0.5772
C36_7 C 0.1126(3) 0.43765(6) 0.62202(9)
H27_7 H 0.0692 0.4432 0.6377
C37_7 C 0.1556(2) 0.41878(6) 0.63594(9)
C38_7 C 0.2189(3) 0.41027(6) 0.61241(11)
H28_7 H 0.2484 0.3977 0.6215
C39_7 C 0.2380(3) 0.42060(6) 0.57516(10)
H29_7 H 0.2792 0.4146 0.5586
C40_7 C 0.1347(4) 0.40743(7) 0.67689(11)
O17_4 O 0.1199(2) 0.59533(6) 0.28124(8)
C61_7 C 0.2530(2) 0.51299(6) 0.48602(8)
C62_7 C 0.2337(2) 0.52572(6) 0.45129(8)
H41_7 H 0.2171 0.5184 0.4271
C63_7 C 0.2385(2) 0.54971(6) 0.45143(9)
C64_7 C 0.2614(2) 0.56070(6) 0.48784(9)
H42_7 H 0.2652 0.5764 0.4885
C65_7 C 0.2783(3) 0.54823(6) 0.52300(8)
C66_7 C 0.2754(3) 0.52479(6) 0.52170(8)
H43_7 H 0.2890 0.5167 0.5455
C67_7 C 0.2207(3) 0.56290(6) 0.41365(9)
C68_7 C 0.2676(3) 0.58180(8) 0.40293(12)
H44_7 H 0.3098 0.5862 0.4206
C69_7 C 0.2540(3) 0.59400(8) 0.36753(13)
H45_7 H 0.2866 0.6064 0.3614
C70_7 C 0.1924(3) 0.58784(8) 0.34131(10)
C71_7 C 0.1425(3) 0.56989(7) 0.35216(10)
H46_7 H 0.0975 0.5664 0.3356
C72_7 C 0.1584(3) 0.55711(6) 0.38731(9)
H47_7 H 0.1265 0.5445 0.3931
C73_7 C 0.1805(4) 0.60151(10) 0.30141(12)
C74_7 C 0.3030(3) 0.56024(6) 0.56212(9)
C75_7 C 0.3667(3) 0.55203(6) 0.58595(9)
H48_7 H 0.3956 0.5393 0.5772
C76_7 C 0.3874(3) 0.56235(6) 0.62202(9)
H49_7 H 0.4308 0.5568 0.6377
C77_7 C 0.3444(2) 0.58122(6) 0.63594(9)
C78_7 C 0.2811(3) 0.58973(6) 0.61241(11)
H50_7 H 0.2516 0.6023 0.6215
C79_7 C 0.2620(3) 0.57940(6) 0.57516(10)
H51_7 H 0.2208 0.5854 0.5586
C80_7 C 0.3653(4) 0.59257(7) 0.67689(11)
H52_7 H 0.5419 0.4470 0.2388
O28_7 O 0.6199(2) 0.40467(6) 0.21876(8)
O9_11 O 0.0000 0.55797(7) 0.2500
H1_8 H 0.0419 0.5530 0.2612
O9_12 O 1.0000 0.55797(7) 0.2500
H52_8 H 0.9581 0.5530 0.2388
O28_8 O 0.8801(2) 0.59533(6) 0.21876(8)
C21_8 C 0.7530(2) 0.48701(6) 0.01398(8)
C22_8 C 0.7337(2) 0.47428(6) 0.04871(8)
H19_8 H 0.7171 0.4816 0.0729
C23_8 C 0.7385(2) 0.45029(6) 0.04857(9)
C24_8 C 0.7614(2) 0.43930(6) 0.01216(9)
H20_8 H 0.7652 0.4236 0.0115
C27_8 C 0.7207(3) 0.43710(6) 0.08635(9)
C28_8 C 0.7676(3) 0.41820(8) 0.09707(12)
H22_8 H 0.8098 0.4138 0.0794
C29_8 C 0.7540(3) 0.40600(8) 0.13247(13)
H23_8 H 0.7866 0.3936 0.1386
C30_8 C 0.6924(3) 0.41216(8) 0.15869(10)
C31_8 C 0.6425(3) 0.43011(7) 0.14784(10)
H24_8 H 0.5975 0.4336 0.1644
C32_8 C 0.6584(3) 0.44289(6) 0.11269(9)
H25_8 H 0.6265 0.4555 0.1069
C33_8 C 0.6805(4) 0.39849(10) 0.19859(12)
C61_8 C 0.7470(2) 0.51299(6) 0.01398(8)
C62_8 C 0.7663(2) 0.52572(6) 0.04871(8)
H41_8 H 0.7829 0.5184 0.0729
C63_8 C 0.7615(2) 0.54971(6) 0.04857(9)
C64_8 C 0.7386(2) 0.56070(6) 0.01216(9)
H42_8 H 0.7348 0.5764 0.0115
C67_8 C 0.7793(3) 0.56290(6) 0.08635(9)
C68_8 C 0.7324(3) 0.58180(8) 0.09707(12)
H44_8 H 0.6902 0.5862 0.0794
C69_8 C 0.7460(3) 0.59400(8) 0.13247(13)
H45_8 H 0.7134 0.6064 0.1386
C70_8 C 0.8076(3) 0.58784(8) 0.15869(10)
C71_8 C 0.8575(3) 0.56989(7) 0.14784(10)
H46_8 H 0.9025 0.5664 0.1644
C72_8 C 0.8416(3) 0.55711(6) 0.11269(9)
H47_8 H 0.8735 0.5445 0.1069
C73_8 C 0.8195(4) 0.60151(10) 0.19859(12)
C25_8 C 0.7783(3) 0.45177(6) 0.97700(8)
C26_8 C 0.7754(3) 0.47521(6) 0.97830(8)
H21_8 H 0.7890 0.4833 0.9545
C34_8 C 0.8030(3) 0.43976(6) 0.93788(9)
C35_8 C 0.8667(3) 0.44797(6) 0.91405(9)
H26_8 H 0.8956 0.4607 0.9228
C36_8 C 0.8874(3) 0.43765(6) 0.87798(9)
H27_8 H 0.9308 0.4432 0.8623
C37_8 C 0.8444(2) 0.41878(6) 0.86406(9)
C38_8 C 0.7811(3) 0.41027(6) 0.88759(11)
H28_8 H 0.7516 0.3977 0.8785
C39_8 C 0.7620(3) 0.42060(6) 0.92484(10)
H29_8 H 0.7208 0.4146 0.9414
C40_8 C 0.8653(4) 0.40743(7) 0.82311(11)
C65_8 C 0.7217(3) 0.54823(6) 0.97700(8)
C66_8 C 0.7246(3) 0.52479(6) 0.97830(8)
H43_8 H 0.7110 0.5167 0.9545
C74_8 C 0.6970(3) 0.56024(6) 0.93788(9)
C75_8 C 0.6333(3) 0.55203(6) 0.91405(9)
H48_8 H 0.6044 0.5393 0.9228
C76_8 C 0.6126(3) 0.56235(6) 0.87798(9)
H49_8 H 0.5692 0.5568 0.8623
C77_8 C 0.6556(2) 0.58122(6) 0.86406(9)
C78_8 C 0.7189(3) 0.58973(6) 0.88759(11)
H50_8 H 0.7484 0.6023 0.8785
C79_8 C 0.7380(3) 0.57940(6) 0.92484(10)
H51_8 H 0.7792 0.5854 0.9414
C80_8 C 0.6347(4) 0.59257(7) 0.82311(11)
loop_
_geom_bond_atom_site_label_1
_geom_bond_atom_site_label_2
_geom_bond_site_symmetry_1
_geom_bond_site_symmetry_2
Ho1 O1 1_555 1_555
O3 C20 1_555 1_555
O4 C20 1_555 1_555
O5 Ho1 1_555 1_555
O6 C33 1_555 1_555
O7 C40 1_555 1_555
O8 C40 1_555 1_555
O9 Ho1 1_555 1_555
H1 O9 1_555 1_555
C4 C3 1_555 1_555
H9 C4 1_555 1_555
C5 C4 1_555 1_555
C6 C1 1_555 1_555
H10 C6 1_555 1_555
C7 C3 1_555 1_555
H13 C11 1_555 1_555
C12 C7 1_555 1_555
H14 C12 1_555 1_555
C14 C5 1_555 1_555
C15 C14 1_555 1_555
H15 C15 1_555 1_555
C16 C15 1_555 1_555
H16 C16 1_555 1_555
C17 C16 1_555 1_555
C18 C17 1_555 1_555
H17 C18 1_555 1_555
C19 C14 1_555 1_555
H18 C19 1_555 1_555
C20 C17 1_555 1_555
C21 C22 1_555 1_555
C22 H19 1_555 1_555
C23 C22 1_555 1_555
C24 C23 1_555 1_555
H20 C24 1_555 1_555
C25 C24 1_555 1_555
C26 C21 1_555 1_555
H21 C26 1_555 1_555
C27 C23 1_555 1_555
C28 C27 1_555 1_555
H22 C28 1_555 1_555
C29 C28 1_555 1_555
H23 C29 1_555 1_555
C30 C29 1_555 1_555
C31 C30 1_555 1_555
H24 C31 1_555 1_555
C32 C27 1_555 1_555
H25 C32 1_555 1_555
C33 O5 1_555 1_555
C34 C25 1_555 1_555
C35 C34 1_555 1_555
H26 C35 1_555 1_555
C36 C35 1_555 1_555
H27 C36 1_555 1_555
C37 C36 1_555 1_555
C38 C37 1_555 1_555
H28 C38 1_555 1_555
C39 C34 1_555 1_555
H29 C39 1_555 1_555
C40 C37 1_555 1_555
O14 C53 1_555 1_555
H30 C42 1_555 1_555
H33 C48 1_555 1_555
C49 C48 1_555 1_555
H34 C49 1_555 1_555
C50 C49 1_555 1_555
C53 C50 1_555 1_555
Ho3 O3 1_555 1_555
O21 Ho3 1_555 1_555
H53 O21 1_555 1_555
H54 O21 1_555 1_555
O22 Ho3 1_555 1_555
H55 O22 1_555 1_555
H56 O22 1_555 1_555
O23 Ho3 1_555 1_555
H57 O23 1_555 1_555
H58 O23 1_555 1_555
Ho7 O8 1_555 1_555
Ho8 O6 1_555 1_555
Ho10 O14 1_555 1_555
O25 Ho3 1_555 1_555
O30 Ho3 1_555 1_555
O33 Ho1 1_555 1_555
O4 Ho3 1_555 1_555
O7 Ho3 1_555 1_555
C5 C6 1_555 1_555
C11 C12 1_555 1_555
C18 C19 1_555 1_555
C25 C26 1_555 1_555
C30 C33 1_555 1_555
C31 C32 1_555 1_555
C38 C39 1_555 1_555
O17 C73 1_555 1_555
O18 C73 1_555 1_555
O19 C80 1_555 1_555
O20 C80 1_555 1_555
C62 C61 1_555 1_555
H41 C62 1_555 1_555
C63 C62 1_555 1_555
C64 C63 1_555 1_555
H42 C64 1_555 1_555
C65 C64 1_555 1_555
C66 C61 1_555 1_555
H43 C66 1_555 1_555
C67 C63 1_555 1_555
C68 C67 1_555 1_555
H44 C68 1_555 1_555
C69 C68 1_555 1_555
H45 C69 1_555 1_555
C70 C69 1_555 1_555
C71 C70 1_555 1_555
H46 C71 1_555 1_555
C72 C67 1_555 1_555
H47 C72 1_555 1_555
C73 C70 1_555 1_555
C74 C65 1_555 1_555
C75 C74 1_555 1_555
H48 C75 1_555 1_555
C76 C75 1_555 1_555
H49 C76 1_555 1_555
C77 C76 1_555 1_555
C78 C77 1_555 1_555
H50 C78 1_555 1_555
C79 C74 1_555 1_555
H51 C79 1_555 1_555
C80 C77 1_555 1_555
Ho4 O17 1_555 1_555
Ho6 O20 1_555 1_555
Ho9 O18 1_555 1_555
Ho11 O19 1_555 1_555
C65 C66 1_555 1_555
C71 C72 1_555 1_555
C78 C79 1_555 1_555
Ho2 O2 1_555 1_555
O2 C13 1_555 1_555
O9_2 Ho1_2 1_555 1_555
O10 Ho2 1_555 1_555
H2 O10 1_555 1_555
H3 O10 1_555 1_555
O11 Ho2 1_555 1_555
H4 O11 1_555 1_555
H5 O11 1_555 1_555
O12 Ho2 1_555 1_555
H6 O12 1_555 1_555
H7 O12 1_555 1_555
C2 H8 1_555 1_555
H11 C8 1_555 1_555
C9 C8 1_555 1_555
H12 C9 1_555 1_555
C10 C9 1_555 1_555
C13 C10 1_555 1_555
O15 C60 1_555 1_555
O16 C60 1_555 1_555
C44 C43 1_555 1_555
H31 C44 1_555 1_555
C45 C44 1_555 1_555
C46 C41 1_555 1_555
H32 C46 1_555 1_555
C47 C43 1_555 1_555
H35 C51 1_555 1_555
C52 C47 1_555 1_555
H36 C52 1_555 1_555
C54 C45 1_555 1_555
C55 C54 1_555 1_555
H37 C55 1_555 1_555
C56 C55 1_555 1_555
H38 C56 1_555 1_555
C57 C56 1_555 1_555
C58 C57 1_555 1_555
H39 C58 1_555 1_555
C59 C54 1_555 1_555
H40 C59 1_555 1_555
C60 C57 1_555 1_555
H52 O9_2 1_555 1_555
Ho5_2 O13 1_555 1_555
Ho12 O15 1_555 1_555
O24 Ho1_2 1_555 1_555
O26 Ho2 1_555 1_555
O27 Ho2 1_555 1_555
O28 Ho1_2 1_555 1_555
O29 Ho2 1_555 1_555
O31 Ho2 1_555 1_555
O32 Ho1_2 1_555 1_555
O16 Ho12 1_555 1_555
C45 C46 1_555 1_555
C51 C52 1_555 1_555
C58 C59 1_555 1_555
Ho4 O1_2 1_555 1_555
Ho2_2 O2_2 1_555 1_555
O1_2 C13_2 1_555 1_555
O2_2 C13_2 1_555 1_555
O3_2 C20_2 1_555 1_555
O4_2 C20_2 1_555 1_555
O9_3 Ho4 1_555 1_555
H1_2 O9_3 1_555 1_555
O10_2 Ho2_2 1_555 1_555
H2_2 O10_2 1_555 1_555
H3_2 O10_2 1_555 1_555
O11_2 Ho2_2 1_555 1_555
H4_2 O11_2 1_555 1_555
H5_2 O11_2 1_555 1_555
O12_2 Ho2_2 1_555 1_555
H6_2 O12_2 1_555 1_555
H7_2 O12_2 1_555 1_555
C1_2 C2_2 1_555 1_555
C2_2 H8_2 1_555 1_555
C3_2 C2_2 1_555 1_555
C4_2 C3_2 1_555 1_555
H9_2 C4_2 1_555 1_555
C5_2 C4_2 1_555 1_555
C6_2 C1_2 1_555 1_555
H10_2 C6_2 1_555 1_555
C7_2 C3_2 1_555 1_555
C8_2 C7_2 1_555 1_555
H11_2 C8_2 1_555 1_555
C9_2 C8_2 1_555 1_555
H12_2 C9_2 1_555 1_555
C10_2 C9_2 1_555 1_555
C11_2 C10_2 1_555 1_555
H13_2 C11_2 1_555 1_555
C12_2 C7_2 1_555 1_555
H14_2 C12_2 1_555 1_555
C13_2 C10_2 1_555 1_555
C14_2 C5_2 1_555 1_555
C15_2 C14_2 1_555 1_555
H15_2 C15_2 1_555 1_555
C16_2 C15_2 1_555 1_555
H16_2 C16_2 1_555 1_555
C17_2 C16_2 1_555 1_555
C18_2 C17_2 1_555 1_555
H17_2 C18_2 1_555 1_555
C19_2 C14_2 1_555 1_555
H18_2 C19_2 1_555 1_555
C20_2 C17_2 1_555 1_555
O13_2 C53_2 1_555 1_555
O14_2 C53_2 1_555 1_555
O15_2 C60_2 1_555 1_555
O16_2 C60_2 1_555 1_555
C41_2 C1_2 1_555 1_555
C42_2 C41_2 1_555 1_555
H30_2 C42_2 1_555 1_555
C43_2 C42_2 1_555 1_555
C44_2 C43_2 1_555 1_555
H31_2 C44_2 1_555 1_555
C45_2 C44_2 1_555 1_555
C46_2 C41_2 1_555 1_555
H32_2 C46_2 1_555 1_555
C47_2 C43_2 1_555 1_555
C48_2 C47_2 1_555 1_555
H33_2 C48_2 1_555 1_555
C49_2 C48_2 1_555 1_555
H34_2 C49_2 1_555 1_555
C50_2 C49_2 1_555 1_555
C51_2 C50_2 1_555 1_555
H35_2 C51_2 1_555 1_555
C52_2 C47_2 1_555 1_555
H36_2 C52_2 1_555 1_555
C53_2 C50_2 1_555 1_555
C54_2 C45_2 1_555 1_555
C55_2 C54_2 1_555 1_555
H37_2 C55_2 1_555 1_555
C56_2 C55_2 1_555 1_555
H38_2 C56_2 1_555 1_555
C57_2 C56_2 1_555 1_555
C58_2 C57_2 1_555 1_555
H39_2 C58_2 1_555 1_555
C59_2 C54_2 1_555 1_555
H40_2 C59_2 1_555 1_555
C60_2 C57_2 1_555 1_555
H52_2 O9_3 1_555 1_555
Ho11 O3_2 1_555 1_555
O21_2 Ho11 1_555 1_555
H53_2 O21_2 1_555 1_555
H54_2 O21_2 1_555 1_555
O22_2 Ho11 1_555 1_555
H55_2 O22_2 1_555 1_555
H56_2 O22_2 1_555 1_555
O23_2 Ho11 1_555 1_555
H57_2 O23_2 1_555 1_555
H58_2 O23_2 1_555 1_555
Ho5_3 O13_2 1_555 1_555
Ho10_2 O14_2 1_555 1_555
Ho12_2 O15_2 1_555 1_555
O24_2 Ho4 1_555 1_555
O25_2 Ho11 1_555 1_555
O26_2 Ho2_2 1_555 1_555
O27_2 Ho2_2 1_555 1_555
O28_2 Ho4 1_555 1_555
O29_2 Ho2_2 1_555 1_555
O30_2 Ho11 1_555 1_555
O31_2 Ho2_2 1_555 1_555
O32_2 Ho4 1_555 1_555
O33_2 Ho4 1_555 1_555
O4_2 Ho11 1_555 1_555
C5_2 C6_2 1_555 1_555
C11_2 C12_2 1_555 1_555
C18_2 C19_2 1_555 1_555
O16_2 Ho12_2 1_555 1_555
C45_2 C46_2 1_555 1_555
C51_2 C52_2 1_555 1_555
C58_2 C59_2 1_555 1_555
O15_3 C60_3 1_555 1_555
O16_3 C60_3 1_555 1_555
H32_3 C46_3 1_555 1_555
C54_3 C45_3 1_555 1_555
C55_3 C54_3 1_555 1_555
H37_3 C55_3 1_555 1_555
C56_3 C55_3 1_555 1_555
H38_3 C56_3 1_555 1_555
C57_3 C56_3 1_555 1_555
C58_3 C57_3 1_555 1_555
H39_3 C58_3 1_555 1_555
C59_3 C54_3 1_555 1_555
H40_3 C59_3 1_555 1_555
C60_3 C57_3 1_555 1_555
Ho12_3 O15_3 1_555 1_555
O16_3 Ho12_3 1_555 1_555
C45_3 C46_3 1_555 1_555
C58_3 C59_3 1_555 1_555
Ho8 O2_3 1_555 1_555
O2_3 C13_3 1_555 1_555
O10_3 Ho8 1_555 1_555
H2_3 O10_3 1_555 1_555
H3_3 O10_3 1_555 1_555
O11_3 Ho8 1_555 1_555
H4_3 O11_3 1_555 1_555
H5_3 O11_3 1_555 1_555
O12_3 Ho8 1_555 1_555
H6_3 O12_3 1_555 1_555
H7_3 O12_3 1_555 1_555
C2_3 H8_3 1_555 1_555
H11_3 C8_3 1_555 1_555
C9_3 C8_3 1_555 1_555
H12_3 C9_3 1_555 1_555
C10_3 C9_3 1_555 1_555
C13_3 C10_3 1_555 1_555
C44_3 C43_3 1_555 1_555
H31_3 C44_3 1_555 1_555
C47_3 C43_3 1_555 1_555
H35_3 C51_3 1_555 1_555
C52_3 C47_3 1_555 1_555
H36_3 C52_3 1_555 1_555
Ho5 O13_3 1_555 1_555
O26_3 Ho8 1_555 1_555
O27_3 Ho8 1_555 1_555
O31_3 Ho8 1_555 1_555
C51_3 C52_3 1_555 1_555
O3_3 C20_3 1_555 1_555
O4_3 C20_3 1_555 1_555
O7_2 C40_2 1_555 1_555
O8_2 C40_2 1_555 1_555
H10_3 C6_3 1_555 1_555
C14_3 C5_3 1_555 1_555
C15_3 C14_3 1_555 1_555
H15_3 C15_3 1_555 1_555
C16_3 C15_3 1_555 1_555
H16_3 C16_3 1_555 1_555
C17_3 C16_3 1_555 1_555
C18_3 C17_3 1_555 1_555
H17_3 C18_3 1_555 1_555
C19_3 C14_3 1_555 1_555
H18_3 C19_3 1_555 1_555
C20_3 C17_3 1_555 1_555
H21_2 C26_2 1_555 1_555
C34_2 C25_2 1_555 1_555
C35_2 C34_2 1_555 1_555
H26_2 C35_2 1_555 1_555
C36_2 C35_2 1_555 1_555
H27_2 C36_2 1_555 1_555
C37_2 C36_2 1_555 1_555
C38_2 C37_2 1_555 1_555
H28_2 C38_2 1_555 1_555
C39_2 C34_2 1_555 1_555
H29_2 C39_2 1_555 1_555
C40_2 C37_2 1_555 1_555
Ho3_2 O3_3 1_555 1_555
O21_3 Ho3_2 1_555 1_555
H53_3 O21_3 1_555 1_555
H54_3 O21_3 1_555 1_555
O22_3 Ho3_2 1_555 1_555
H55_3 O22_3 1_555 1_555
H56_3 O22_3 1_555 1_555
O23_3 Ho3_2 1_555 1_555
H57_3 O23_3 1_555 1_555
H58_3 O23_3 1_555 1_555
Ho7 O8_2 1_555 1_555
O25_3 Ho3_2 1_555 1_555
O30_3 Ho3_2 1_555 1_555
O4_3 Ho3_2 1_555 1_555
O7_2 Ho3_2 1_555 1_555
C5_3 C6_3 1_555 1_555
C18_3 C19_3 1_555 1_555
C25_2 C26_2 1_555 1_555
C38_2 C39_2 1_555 1_555
O29 C33_2 1_555 1_555
C4_3 C3_3 1_555 1_555
H9_3 C4_3 1_555 1_555
C7_3 C3_3 1_555 1_555
H13_3 C11_3 1_555 1_555
C12_3 C7_3 1_555 1_555
H14_3 C12_3 1_555 1_555
C21_2 C22_2 1_555 1_555
C22_2 H19_2 1_555 1_555
C23_2 C22_2 1_555 1_555
C24_2 C23_2 1_555 1_555
H20_2 C24_2 1_555 1_555
C27_2 C23_2 1_555 1_555
C28_2 C27_2 1_555 1_555
H22_2 C28_2 1_555 1_555
C29_2 C28_2 1_555 1_555
H23_2 C29_2 1_555 1_555
C30_2 C29_2 1_555 1_555
C31_2 C30_2 1_555 1_555
H24_2 C31_2 1_555 1_555
C32_2 C27_2 1_555 1_555
H25_2 C32_2 1_555 1_555
C33_2 O28 1_555 1_555
O14_3 C53_3 1_555 1_555
H30_3 C42_3 1_555 1_555
H33_3 C48_3 1_555 1_555
C49_3 C48_3 1_555 1_555
H34_3 C49_3 1_555 1_555
C50_3 C49_3 1_555 1_555
C53_3 C50_3 1_555 1_555
Ho10_3 O14_3 1_555 1_555
C11_3 C12_3 1_555 1_555
C30_2 C33_2 1_555 1_555
C31_2 C32_2 1_555 1_555
O19_2 C80_2 1_555 1_555
O20_2 C80_2 1_555 1_555
H43_2 C66_2 1_555 1_555
C74_2 C65_2 1_555 1_555
C75_2 C74_2 1_555 1_555
H48_2 C75_2 1_555 1_555
C76_2 C75_2 1_555 1_555
H49_2 C76_2 1_555 1_555
C77_2 C76_2 1_555 1_555
C78_2 C77_2 1_555 1_555
H50_2 C78_2 1_555 1_555
C79_2 C74_2 1_555 1_555
H51_2 C79_2 1_555 1_555
C80_2 C77_2 1_555 1_555
Ho6_2 O20_2 1_555 1_555
Ho11_2 O19_2 1_555 1_555
C65_2 C66_2 1_555 1_555
C78_2 C79_2 1_555 1_555
O28_2 C73_2 1_555 1_555
O29_2 C73_2 1_555 1_555
C62_2 C61_2 1_555 1_555
H41_2 C62_2 1_555 1_555
C63_2 C62_2 1_555 1_555
C64_2 C63_2 1_555 1_555
H42_2 C64_2 1_555 1_555
C67_2 C63_2 1_555 1_555
C68_2 C67_2 1_555 1_555
H44_2 C68_2 1_555 1_555
C69_2 C68_2 1_555 1_555
H45_2 C69_2 1_555 1_555
C70_2 C69_2 1_555 1_555
C71_2 C70_2 1_555 1_555
H46_2 C71_2 1_555 1_555
C72_2 C67_2 1_555 1_555
H47_2 C72_2 1_555 1_555
C73_2 C70_2 1_555 1_555
C71_2 C72_2 1_555 1_555
O3_4 C20_4 1_555 1_555
O4_4 C20_4 1_555 1_555
H10_4 C6_4 1_555 1_555
C14_4 C5_4 1_555 1_555
C15_4 C14_4 1_555 1_555
H15_4 C15_4 1_555 1_555
C16_4 C15_4 1_555 1_555
H16_4 C16_4 1_555 1_555
C17_4 C16_4 1_555 1_555
C18_4 C17_4 1_555 1_555
H17_4 C18_4 1_555 1_555
C19_4 C14_4 1_555 1_555
H18_4 C19_4 1_555 1_555
C20_4 C17_4 1_555 1_555
O15_4 C60_4 1_555 1_555
O16_4 C60_4 1_555 1_555
H32_4 C46_4 1_555 1_555
C54_4 C45_4 1_555 1_555
C55_4 C54_4 1_555 1_555
H37_4 C55_4 1_555 1_555
C56_4 C55_4 1_555 1_555
H38_4 C56_4 1_555 1_555
C57_4 C56_4 1_555 1_555
C58_4 C57_4 1_555 1_555
H39_4 C58_4 1_555 1_555
C59_4 C54_4 1_555 1_555
H40_4 C59_4 1_555 1_555
C60_4 C57_4 1_555 1_555
Ho11_2 O3_4 1_555 1_555
O21_4 Ho11_2 1_555 1_555
H53_4 O21_4 1_555 1_555
H54_4 O21_4 1_555 1_555
O22_4 Ho11_2 1_555 1_555
H55_4 O22_4 1_555 1_555
H56_4 O22_4 1_555 1_555
O23_4 Ho11_2 1_555 1_555
H57_4 O23_4 1_555 1_555
H58_4 O23_4 1_555 1_555
Ho12_4 O15_4 1_555 1_555
O25_4 Ho11_2 1_555 1_555
O30_4 Ho11_2 1_555 1_555
O4_4 Ho11_2 1_555 1_555
C5_4 C6_4 1_555 1_555
C18_4 C19_4 1_555 1_555
O16_4 Ho12_4 1_555 1_555
C45_4 C46_4 1_555 1_555
C58_4 C59_4 1_555 1_555
Ho9 O2_4 1_555 1_555
O24_2 C13_4 1_555 1_555
O2_4 C13_4 1_555 1_555
O10_4 Ho9 1_555 1_555
H2_4 O10_4 1_555 1_555
H3_4 O10_4 1_555 1_555
O11_4 Ho9 1_555 1_555
H4_4 O11_4 1_555 1_555
H5_4 O11_4 1_555 1_555
O12_4 Ho9 1_555 1_555
H6_4 O12_4 1_555 1_555
H7_4 O12_4 1_555 1_555
C1_4 C2_4 1_555 1_555
C2_4 H8_4 1_555 1_555
C3_4 C2_4 1_555 1_555
C4_4 C3_4 1_555 1_555
H9_4 C4_4 1_555 1_555
C7_4 C3_4 1_555 1_555
C8_4 C7_4 1_555 1_555
H11_4 C8_4 1_555 1_555
C9_4 C8_4 1_555 1_555
H12_4 C9_4 1_555 1_555
C10_4 C9_4 1_555 1_555
C11_4 C10_4 1_555 1_555
H13_4 C11_4 1_555 1_555
C12_4 C7_4 1_555 1_555
H14_4 C12_4 1_555 1_555
C13_4 C10_4 1_555 1_555
O13_4 C53_4 1_555 1_555
O14_4 C53_4 1_555 1_555
C41_4 C1_4 1_555 1_555
C42_4 C41_4 1_555 1_555
H30_4 C42_4 1_555 1_555
C43_4 C42_4 1_555 1_555
C44_4 C43_4 1_555 1_555
H31_4 C44_4 1_555 1_555
C47_4 C43_4 1_555 1_555
C48_4 C47_4 1_555 1_555
H33_4 C48_4 1_555 1_555
C49_4 C48_4 1_555 1_555
H34_4 C49_4 1_555 1_555
C50_4 C49_4 1_555 1_555
C51_4 C50_4 1_555 1_555
H35_4 C51_4 1_555 1_555
C52_4 C47_4 1_555 1_555
H36_4 C52_4 1_555 1_555
C53_4 C50_4 1_555 1_555
Ho5_3 O13_4 1_555 1_555
Ho10_4 O14_4 1_555 1_555
O26_4 Ho9 1_555 1_555
O27_4 Ho9 1_555 1_555
O31_4 Ho9 1_555 1_555
C11_4 C12_4 1_555 1_555
C51_4 C52_4 1_555 1_555
O5_2 Ho5_3 1_555 1_555
O6_2 C33_3 1_555 1_555
O7_3 C40_3 1_555 1_555
O8_3 C40_3 1_555 1_555
O9_4 Ho5_3 1_555 1_555
H1_3 O9_4 1_555 1_555
O10_5 Ho10_2 1_555 1_555
H2_5 O10_5 1_555 1_555
H3_5 O10_5 1_555 1_555
O11_5 Ho10_2 1_555 1_555
H4_5 O11_5 1_555 1_555
H5_5 O11_5 1_555 1_555
O12_5 Ho10_2 1_555 1_555
H6_5 O12_5 1_555 1_555
H7_5 O12_5 1_555 1_555
C21_3 C22_3 1_555 1_555
C22_3 H19_3 1_555 1_555
C23_3 C22_3 1_555 1_555
C24_3 C23_3 1_555 1_555
H20_3 C24_3 1_555 1_555
C25_3 C24_3 1_555 1_555
C26_3 C21_3 1_555 1_555
H21_3 C26_3 1_555 1_555
C27_3 C23_3 1_555 1_555
C28_3 C27_3 1_555 1_555
H22_3 C28_3 1_555 1_555
C29_3 C28_3 1_555 1_555
H23_3 C29_3 1_555 1_555
C30_3 C29_3 1_555 1_555
C31_3 C30_3 1_555 1_555
H24_3 C31_3 1_555 1_555
C32_3 C27_3 1_555 1_555
H25_3 C32_3 1_555 1_555
C33_3 O5_2 1_555 1_555
C34_3 C25_3 1_555 1_555
C35_3 C34_3 1_555 1_555
H26_3 C35_3 1_555 1_555
C36_3 C35_3 1_555 1_555
H27_3 C36_3 1_555 1_555
C37_3 C36_3 1_555 1_555
C38_3 C37_3 1_555 1_555
H28_3 C38_3 1_555 1_555
C39_3 C34_3 1_555 1_555
H29_3 C39_3 1_555 1_555
C40_3 C37_3 1_555 1_555
O17_2 C73_3 1_555 1_555
O18_2 C73_3 1_555 1_555
O19_3 C80_3 1_555 1_555
O20_3 C80_3 1_555 1_555
C61_3 C21_3 1_555 1_555
C62_3 C61_3 1_555 1_555
H41_3 C62_3 1_555 1_555
C63_3 C62_3 1_555 1_555
C64_3 C63_3 1_555 1_555
H42_3 C64_3 1_555 1_555
C65_3 C64_3 1_555 1_555
C66_3 C61_3 1_555 1_555
H43_3 C66_3 1_555 1_555
C67_3 C63_3 1_555 1_555
C68_3 C67_3 1_555 1_555
H44_3 C68_3 1_555 1_555
C69_3 C68_3 1_555 1_555
H45_3 C69_3 1_555 1_555
C70_3 C69_3 1_555 1_555
C71_3 C70_3 1_555 1_555
H46_3 C71_3 1_555 1_555
C72_3 C67_3 1_555 1_555
H47_3 C72_3 1_555 1_555
C73_3 C70_3 1_555 1_555
C74_3 C65_3 1_555 1_555
C75_3 C74_3 1_555 1_555
H48_3 C75_3 1_555 1_555
C76_3 C75_3 1_555 1_555
H49_3 C76_3 1_555 1_555
C77_3 C76_3 1_555 1_555
C78_3 C77_3 1_555 1_555
H50_3 C78_3 1_555 1_555
C79_3 C74_3 1_555 1_555
H51_3 C79_3 1_555 1_555
C80_3 C77_3 1_555 1_555
H52_3 O9_4 1_555 1_555
O21_5 Ho12_2 1_555 1_555
H53_5 O21_5 1_555 1_555
H54_5 O21_5 1_555 1_555
O22_5 Ho12_2 1_555 1_555
H55_5 O22_5 1_555 1_555
H56_5 O22_5 1_555 1_555
O23_5 Ho12_2 1_555 1_555
H57_5 O23_5 1_555 1_555
H58_5 O23_5 1_555 1_555
Ho5_2 O17_2 1_555 1_555
Ho6_3 O20_3 1_555 1_555
Ho7_3 O8_3 1_555 1_555
Ho10_4 O6_2 1_555 1_555
Ho10_3 O18_2 1_555 1_555
Ho12 O19_3 1_555 1_555
O25_5 Ho12_2 1_555 1_555
O26_5 Ho10_2 1_555 1_555
O27_5 Ho10_2 1_555 1_555
O28_3 Ho5_3 1_555 1_555
O29_3 Ho10_2 1_555 1_555
O30_5 Ho12_2 1_555 1_555
O31_5 Ho10_2 1_555 1_555
O32_3 Ho5_3 1_555 1_555
O33_3 Ho5_3 1_555 1_555
O7_3 Ho12_2 1_555 1_555
C25_3 C26_3 1_555 1_555
C30_3 C33_3 1_555 1_555
C31_3 C32_3 1_555 1_555
C38_3 C39_3 1_555 1_555
C65_3 C66_3 1_555 1_555
C71_3 C72_3 1_555 1_555
C78_3 C79_3 1_555 1_555
O9_5 Ho5 1_555 1_555
O10_6 Ho10 1_555 1_555
H2_6 O10_6 1_555 1_555
H3_6 O10_6 1_555 1_555
O11_6 Ho10 1_555 1_555
H4_6 O11_6 1_555 1_555
H5_6 O11_6 1_555 1_555
O12_6 Ho10 1_555 1_555
H6_6 O12_6 1_555 1_555
H7_6 O12_6 1_555 1_555
H52_4 O9_5 1_555 1_555
O26_6 Ho10 1_555 1_555
O27_6 Ho10 1_555 1_555
O28_4 Ho5 1_555 1_555
O29_4 Ho10 1_555 1_555
O31_6 Ho10 1_555 1_555
O32_4 Ho5 1_555 1_555
O9_6 Ho5_2 1_555 1_555
H1_4 O9_6 1_555 1_555
O21_6 Ho12 1_555 1_555
H53_6 O21_6 1_555 1_555
H54_6 O21_6 1_555 1_555
O22_6 Ho12 1_555 1_555
H55_6 O22_6 1_555 1_555
H56_6 O22_6 1_555 1_555
O23_6 Ho12 1_555 1_555
H57_6 O23_6 1_555 1_555
H58_6 O23_6 1_555 1_555
O25_6 Ho12 1_555 1_555
O30_6 Ho12 1_555 1_555
O33_4 Ho5_2 1_555 1_555
O7_4 C40_4 1_555 1_555
O8_4 C40_4 1_555 1_555
H21_4 C26_4 1_555 1_555
C34_4 C25_4 1_555 1_555
C35_4 C34_4 1_555 1_555
H26_4 C35_4 1_555 1_555
C36_4 C35_4 1_555 1_555
H27_4 C36_4 1_555 1_555
C37_4 C36_4 1_555 1_555
C38_4 C37_4 1_555 1_555
H28_4 C38_4 1_555 1_555
C39_4 C34_4 1_555 1_555
H29_4 C39_4 1_555 1_555
C40_4 C37_4 1_555 1_555
O19_4 C80_4 1_555 1_555
O20_4 C80_4 1_555 1_555
H43_4 C66_4 1_555 1_555
C74_4 C65_4 1_555 1_555
C75_4 C74_4 1_555 1_555
H48_4 C75_4 1_555 1_555
C76_4 C75_4 1_555 1_555
H49_4 C76_4 1_555 1_555
C77_4 C76_4 1_555 1_555
C78_4 C77_4 1_555 1_555
H50_4 C78_4 1_555 1_555
C79_4 C74_4 1_555 1_555
H51_4 C79_4 1_555 1_555
C80_4 C77_4 1_555 1_555
O21_7 Ho12_4 1_555 1_555
H53_7 O21_7 1_555 1_555
H54_7 O21_7 1_555 1_555
O22_7 Ho12_4 1_555 1_555
H55_7 O22_7 1_555 1_555
H56_7 O22_7 1_555 1_555
O23_7 Ho12_4 1_555 1_555
H57_7 O23_7 1_555 1_555
H58_7 O23_7 1_555 1_555
Ho6_3 O20_4 1_555 1_555
Ho7_2 O8_4 1_555 1_555
Ho12_3 O19_4 1_555 1_555
O25_7 Ho12_4 1_555 1_555
O30_7 Ho12_4 1_555 1_555
O7_4 Ho12_4 1_555 1_555
C25_4 C26_4 1_555 1_555
C38_4 C39_4 1_555 1_555
C65_4 C66_4 1_555 1_555
C78_4 C79_4 1_555 1_555
O29_3 C33_4 1_555 1_555
O10_7 Ho10_4 1_555 1_555
H2_7 O10_7 1_555 1_555
H3_7 O10_7 1_555 1_555
O11_7 Ho10_4 1_555 1_555
H4_7 O11_7 1_555 1_555
H5_7 O11_7 1_555 1_555
O12_7 Ho10_4 1_555 1_555
H6_7 O12_7 1_555 1_555
H7_7 O12_7 1_555 1_555
C21_4 C22_4 1_555 1_555
C22_4 H19_4 1_555 1_555
C23_4 C22_4 1_555 1_555
C24_4 C23_4 1_555 1_555
H20_4 C24_4 1_555 1_555
C27_4 C23_4 1_555 1_555
C28_4 C27_4 1_555 1_555
H22_4 C28_4 1_555 1_555
C29_4 C28_4 1_555 1_555
H23_4 C29_4 1_555 1_555
C30_4 C29_4 1_555 1_555
C31_4 C30_4 1_555 1_555
H24_4 C31_4 1_555 1_555
C32_4 C27_4 1_555 1_555
H25_4 C32_4 1_555 1_555
C33_4 O28_3 1_555 1_555
O28_4 C73_4 1_555 1_555
O29_4 C73_4 1_555 1_555
C61_4 C21_4 1_555 1_555
C62_4 C61_4 1_555 1_555
H41_4 C62_4 1_555 1_555
C63_4 C62_4 1_555 1_555
C64_4 C63_4 1_555 1_555
H42_4 C64_4 1_555 1_555
C67_4 C63_4 1_555 1_555
C68_4 C67_4 1_555 1_555
H44_4 C68_4 1_555 1_555
C69_4 C68_4 1_555 1_555
H45_4 C69_4 1_555 1_555
C70_4 C69_4 1_555 1_555
C71_4 C70_4 1_555 1_555
H46_4 C71_4 1_555 1_555
C72_4 C67_4 1_555 1_555
H47_4 C72_4 1_555 1_555
C73_4 C70_4 1_555 1_555
O26_7 Ho10_4 1_555 1_555
O27_7 Ho10_4 1_555 1_555
O31_7 Ho10_4 1_555 1_555
C30_4 C33_4 1_555 1_555
C31_4 C32_4 1_555 1_555
C71_4 C72_4 1_555 1_555
O21_8 Ho12_3 1_555 1_555
H53_8 O21_8 1_555 1_555
H54_8 O21_8 1_555 1_555
O22_8 Ho12_3 1_555 1_555
H55_8 O22_8 1_555 1_555
H56_8 O22_8 1_555 1_555
O23_8 Ho12_3 1_555 1_555
H57_8 O23_8 1_555 1_555
H58_8 O23_8 1_555 1_555
O25_8 Ho12_3 1_555 1_555
O30_8 Ho12_3 1_555 1_555
O10_8 Ho10_3 1_555 1_555
H2_8 O10_8 1_555 1_555
H3_8 O10_8 1_555 1_555
O11_8 Ho10_3 1_555 1_555
H4_8 O11_8 1_555 1_555
H5_8 O11_8 1_555 1_555
O12_8 Ho10_3 1_555 1_555
H6_8 O12_8 1_555 1_555
H7_8 O12_8 1_555 1_555
O26_8 Ho10_3 1_555 1_555
O27_8 Ho10_3 1_555 1_555
O31_8 Ho10_3 1_555 1_555
O25_2 C13_5 1_555 1_555
O9_7 Ho6 1_555 1_555
C2_5 H8_5 1_555 1_555
H11_5 C8_5 1_555 1_555
C9_5 C8_5 1_555 1_555
H12_5 C9_5 1_555 1_555
C10_5 C9_5 1_555 1_555
C13_5 C10_5 1_555 1_555
O26_5 C60_5 1_555 1_555
O27_5 C60_5 1_555 1_555
C44_5 C43_5 1_555 1_555
H31_5 C44_5 1_555 1_555
C45_5 C44_5 1_555 1_555
C46_5 C41_5 1_555 1_555
H32_5 C46_5 1_555 1_555
C47_5 C43_5 1_555 1_555
H35_5 C51_5 1_555 1_555
C52_5 C47_5 1_555 1_555
H36_5 C52_5 1_555 1_555
C54_5 C45_5 1_555 1_555
C55_5 C54_5 1_555 1_555
H37_5 C55_5 1_555 1_555
C56_5 C55_5 1_555 1_555
H38_5 C56_5 1_555 1_555
C57_5 C56_5 1_555 1_555
C58_5 C57_5 1_555 1_555
H39_5 C58_5 1_555 1_555
C59_5 C54_5 1_555 1_555
H40_5 C59_5 1_555 1_555
C60_5 C57_5 1_555 1_555
H52_5 O9_7 1_555 1_555
Ho7_2 O13_5 1_555 1_555
O24_3 Ho6 1_555 1_555
O28_5 Ho6 1_555 1_555
C45_5 C46_5 1_555 1_555
C51_5 C52_5 1_555 1_555
C58_5 C59_5 1_555 1_555
O17_3 C73_5 1_555 1_555
O30_3 C73_5 1_555 1_555
O31 C80_5 1_555 1_555
O32 C80_5 1_555 1_555
C62_5 C61_5 1_555 1_555
H41_5 C62_5 1_555 1_555
C63_5 C62_5 1_555 1_555
C64_5 C63_5 1_555 1_555
H42_5 C64_5 1_555 1_555
C65_5 C64_5 1_555 1_555
C66_5 C61_5 1_555 1_555
H43_5 C66_5 1_555 1_555
C67_5 C63_5 1_555 1_555
C68_5 C67_5 1_555 1_555
H44_5 C68_5 1_555 1_555
C69_5 C68_5 1_555 1_555
H45_5 C69_5 1_555 1_555
C70_5 C69_5 1_555 1_555
C71_5 C70_5 1_555 1_555
H46_5 C71_5 1_555 1_555
C72_5 C67_5 1_555 1_555
H47_5 C72_5 1_555 1_555
C73_5 C70_5 1_555 1_555
C74_5 C65_5 1_555 1_555
C75_5 C74_5 1_555 1_555
H48_5 C75_5 1_555 1_555
C76_5 C75_5 1_555 1_555
H49_5 C76_5 1_555 1_555
C77_5 C76_5 1_555 1_555
C78_5 C77_5 1_555 1_555
H50_5 C78_5 1_555 1_555
C79_5 C74_5 1_555 1_555
H51_5 C79_5 1_555 1_555
C80_5 C77_5 1_555 1_555
Ho7 O17_3 1_555 1_555
C65_5 C66_5 1_555 1_555
C71_5 C72_5 1_555 1_555
C78_5 C79_5 1_555 1_555
Ho6_2 O1_3 1_555 1_555
O26_2 C20_5 1_555 1_555
O27_2 C20_5 1_555 1_555
O5_3 Ho6_2 1_555 1_555
O30_4 C33_5 1_555 1_555
O31_2 C40_5 1_555 1_555
O32_2 C40_5 1_555 1_555
O9_8 Ho6_2 1_555 1_555
H1_5 O9_8 1_555 1_555
C4_5 C3_5 1_555 1_555
H9_5 C4_5 1_555 1_555
C5_5 C4_5 1_555 1_555
C6_5 C1_5 1_555 1_555
H10_5 C6_5 1_555 1_555
C7_5 C3_5 1_555 1_555
H13_5 C11_5 1_555 1_555
C12_5 C7_5 1_555 1_555
H14_5 C12_5 1_555 1_555
C14_5 C5_5 1_555 1_555
C15_5 C14_5 1_555 1_555
H15_5 C15_5 1_555 1_555
C16_5 C15_5 1_555 1_555
H16_5 C16_5 1_555 1_555
C17_5 C16_5 1_555 1_555
C18_5 C17_5 1_555 1_555
H17_5 C18_5 1_555 1_555
C19_5 C14_5 1_555 1_555
H18_5 C19_5 1_555 1_555
C20_5 C17_5 1_555 1_555
C21_5 C22_5 1_555 1_555
C22_5 H19_5 1_555 1_555
C23_5 C22_5 1_555 1_555
C24_5 C23_5 1_555 1_555
H20_5 C24_5 1_555 1_555
C25_5 C24_5 1_555 1_555
C26_5 C21_5 1_555 1_555
H21_5 C26_5 1_555 1_555
C27_5 C23_5 1_555 1_555
C28_5 C27_5 1_555 1_555
H22_5 C28_5 1_555 1_555
C29_5 C28_5 1_555 1_555
H23_5 C29_5 1_555 1_555
C30_5 C29_5 1_555 1_555
C31_5 C30_5 1_555 1_555
H24_5 C31_5 1_555 1_555
C32_5 C27_5 1_555 1_555
H25_5 C32_5 1_555 1_555
C33_5 O5_3 1_555 1_555
C34_5 C25_5 1_555 1_555
C35_5 C34_5 1_555 1_555
H26_5 C35_5 1_555 1_555
C36_5 C35_5 1_555 1_555
H27_5 C36_5 1_555 1_555
C37_5 C36_5 1_555 1_555
C38_5 C37_5 1_555 1_555
H28_5 C38_5 1_555 1_555
C39_5 C34_5 1_555 1_555
H29_5 C39_5 1_555 1_555
C40_5 C37_5 1_555 1_555
O25_5 C53_5 1_555 1_555
H30_5 C42_5 1_555 1_555
H33_5 C48_5 1_555 1_555
C49_5 C48_5 1_555 1_555
H34_5 C49_5 1_555 1_555
C50_5 C49_5 1_555 1_555
C53_5 C50_5 1_555 1_555
C5_5 C6_5 1_555 1_555
C11_5 C12_5 1_555 1_555
C18_5 C19_5 1_555 1_555
C25_5 C26_5 1_555 1_555
C30_5 C33_5 1_555 1_555
C31_5 C32_5 1_555 1_555
C38_5 C39_5 1_555 1_555
Ho7 O1_4 1_555 1_555
O1_4 C13_6 1_555 1_555
O25 C13_6 1_555 1_555
O26 C20_6 1_555 1_555
O27 C20_6 1_555 1_555
O9_9 Ho7 1_555 1_555
H1_6 O9_9 1_555 1_555
C1_6 C2_6 1_555 1_555
C2_6 H8_6 1_555 1_555
C3_6 C2_6 1_555 1_555
C4_6 C3_6 1_555 1_555
H9_6 C4_6 1_555 1_555
C5_6 C4_6 1_555 1_555
C6_6 C1_6 1_555 1_555
H10_6 C6_6 1_555 1_555
C7_6 C3_6 1_555 1_555
C8_6 C7_6 1_555 1_555
H11_6 C8_6 1_555 1_555
C9_6 C8_6 1_555 1_555
H12_6 C9_6 1_555 1_555
C10_6 C9_6 1_555 1_555
C11_6 C10_6 1_555 1_555
H13_6 C11_6 1_555 1_555
C12_6 C7_6 1_555 1_555
H14_6 C12_6 1_555 1_555
C13_6 C10_6 1_555 1_555
C14_6 C5_6 1_555 1_555
C15_6 C14_6 1_555 1_555
H15_6 C15_6 1_555 1_555
C16_6 C15_6 1_555 1_555
H16_6 C16_6 1_555 1_555
C17_6 C16_6 1_555 1_555
C18_6 C17_6 1_555 1_555
H17_6 C18_6 1_555 1_555
C19_6 C14_6 1_555 1_555
H18_6 C19_6 1_555 1_555
C20_6 C17_6 1_555 1_555
O13_6 C53_6 1_555 1_555
O25_6 C53_6 1_555 1_555
O26_6 C60_6 1_555 1_555
O27_6 C60_6 1_555 1_555
C41_6 C1_6 1_555 1_555
C42_6 C41_6 1_555 1_555
H30_6 C42_6 1_555 1_555
C43_6 C42_6 1_555 1_555
C44_6 C43_6 1_555 1_555
H31_6 C44_6 1_555 1_555
C45_6 C44_6 1_555 1_555
C46_6 C41_6 1_555 1_555
H32_6 C46_6 1_555 1_555
C47_6 C43_6 1_555 1_555
C48_6 C47_6 1_555 1_555
H33_6 C48_6 1_555 1_555
C49_6 C48_6 1_555 1_555
H34_6 C49_6 1_555 1_555
C50_6 C49_6 1_555 1_555
C51_6 C50_6 1_555 1_555
H35_6 C51_6 1_555 1_555
C52_6 C47_6 1_555 1_555
H36_6 C52_6 1_555 1_555
C53_6 C50_6 1_555 1_555
C54_6 C45_6 1_555 1_555
C55_6 C54_6 1_555 1_555
H37_6 C55_6 1_555 1_555
C56_6 C55_6 1_555 1_555
H38_6 C56_6 1_555 1_555
C57_6 C56_6 1_555 1_555
C58_6 C57_6 1_555 1_555
H39_6 C58_6 1_555 1_555
C59_6 C54_6 1_555 1_555
H40_6 C59_6 1_555 1_555
C60_6 C57_6 1_555 1_555
H52_6 O9_9 1_555 1_555
Ho6_3 O13_6 1_555 1_555
O24_4 Ho7 1_555 1_555
O28_6 Ho7 1_555 1_555
C5_6 C6_6 1_555 1_555
C11_6 C12_6 1_555 1_555
C18_6 C19_6 1_555 1_555
C45_6 C46_6 1_555 1_555
C51_6 C52_6 1_555 1_555
C58_6 C59_6 1_555 1_555
O28_6 C73_6 1_555 1_555
O30 C73_6 1_555 1_555
C62_6 C61_6 1_555 1_555
H41_6 C62_6 1_555 1_555
C63_6 C62_6 1_555 1_555
C64_6 C63_6 1_555 1_555
H42_6 C64_6 1_555 1_555
C67_6 C63_6 1_555 1_555
C68_6 C67_6 1_555 1_555
H44_6 C68_6 1_555 1_555
C69_6 C68_6 1_555 1_555
H45_6 C69_6 1_555 1_555
C70_6 C69_6 1_555 1_555
C71_6 C70_6 1_555 1_555
H46_6 C71_6 1_555 1_555
C72_6 C67_6 1_555 1_555
H47_6 C72_6 1_555 1_555
C73_6 C70_6 1_555 1_555
C71_6 C72_6 1_555 1_555
O31_3 C80_6 1_555 1_555
O33 C80_6 1_555 1_555
H43_6 C66_6 1_555 1_555
C74_6 C65_6 1_555 1_555
C75_6 C74_6 1_555 1_555
H48_6 C75_6 1_555 1_555
C76_6 C75_6 1_555 1_555
H49_6 C76_6 1_555 1_555
C77_6 C76_6 1_555 1_555
C78_6 C77_6 1_555 1_555
H50_6 C78_6 1_555 1_555
C79_6 C74_6 1_555 1_555
H51_6 C79_6 1_555 1_555
C80_6 C77_6 1_555 1_555
C65_6 C66_6 1_555 1_555
C78_6 C79_6 1_555 1_555
O30_2 C33_6 1_555 1_555
C4_7 C3_7 1_555 1_555
H9_7 C4_7 1_555 1_555
C7_7 C3_7 1_555 1_555
H13_7 C11_7 1_555 1_555
C12_7 C7_7 1_555 1_555
H14_7 C12_7 1_555 1_555
C21_6 C22_6 1_555 1_555
C22_6 H19_6 1_555 1_555
C23_6 C22_6 1_555 1_555
C24_6 C23_6 1_555 1_555
H20_6 C24_6 1_555 1_555
C27_6 C23_6 1_555 1_555
C28_6 C27_6 1_555 1_555
H22_6 C28_6 1_555 1_555
C29_6 C28_6 1_555 1_555
H23_6 C29_6 1_555 1_555
C30_6 C29_6 1_555 1_555
C31_6 C30_6 1_555 1_555
H24_6 C31_6 1_555 1_555
C32_6 C27_6 1_555 1_555
H25_6 C32_6 1_555 1_555
C33_6 O28_5 1_555 1_555
O25_7 C53_7 1_555 1_555
H30_7 C42_7 1_555 1_555
H33_7 C48_7 1_555 1_555
C49_7 C48_7 1_555 1_555
H34_7 C49_7 1_555 1_555
C50_7 C49_7 1_555 1_555
C53_7 C50_7 1_555 1_555
C11_7 C12_7 1_555 1_555
C30_6 C33_6 1_555 1_555
C31_6 C32_6 1_555 1_555
O26_4 C20_7 1_555 1_555
O27_4 C20_7 1_555 1_555
O31_4 C40_6 1_555 1_555
O33_2 C40_6 1_555 1_555
H10_7 C6_7 1_555 1_555
C14_7 C5_7 1_555 1_555
C15_7 C14_7 1_555 1_555
H15_7 C15_7 1_555 1_555
C16_7 C15_7 1_555 1_555
H16_7 C16_7 1_555 1_555
C17_7 C16_7 1_555 1_555
C18_7 C17_7 1_555 1_555
H17_7 C18_7 1_555 1_555
C19_7 C14_7 1_555 1_555
H18_7 C19_7 1_555 1_555
C20_7 C17_7 1_555 1_555
H21_6 C26_6 1_555 1_555
C34_6 C25_6 1_555 1_555
C35_6 C34_6 1_555 1_555
H26_6 C35_6 1_555 1_555
C36_6 C35_6 1_555 1_555
H27_6 C36_6 1_555 1_555
C37_6 C36_6 1_555 1_555
C38_6 C37_6 1_555 1_555
H28_6 C38_6 1_555 1_555
C39_6 C34_6 1_555 1_555
H29_6 C39_6 1_555 1_555
C40_6 C37_6 1_555 1_555
C5_7 C6_7 1_555 1_555
C18_7 C19_7 1_555 1_555
C25_6 C26_6 1_555 1_555
C38_6 C39_6 1_555 1_555
O25_4 C13_7 1_555 1_555
C2_7 H8_7 1_555 1_555
H11_7 C8_7 1_555 1_555
C9_7 C8_7 1_555 1_555
H12_7 C9_7 1_555 1_555
C10_7 C9_7 1_555 1_555
C13_7 C10_7 1_555 1_555
C44_7 C43_7 1_555 1_555
H31_7 C44_7 1_555 1_555
C47_7 C43_7 1_555 1_555
H35_7 C51_7 1_555 1_555
C52_7 C47_7 1_555 1_555
H36_7 C52_7 1_555 1_555
Ho7_3 O13_7 1_555 1_555
C51_7 C52_7 1_555 1_555
O26_7 C60_7 1_555 1_555
O27_7 C60_7 1_555 1_555
H32_7 C46_7 1_555 1_555
C54_7 C45_7 1_555 1_555
C55_7 C54_7 1_555 1_555
H37_7 C55_7 1_555 1_555
C56_7 C55_7 1_555 1_555
H38_7 C56_7 1_555 1_555
C57_7 C56_7 1_555 1_555
C58_7 C57_7 1_555 1_555
H39_7 C58_7 1_555 1_555
C59_7 C54_7 1_555 1_555
H40_7 C59_7 1_555 1_555
C60_7 C57_7 1_555 1_555
C45_7 C46_7 1_555 1_555
C58_7 C59_7 1_555 1_555
O24_4 C13_8 1_555 1_555
O25_3 C13_8 1_555 1_555
C1_8 C2_8 1_555 1_555
C2_8 H8_8 1_555 1_555
C3_8 C2_8 1_555 1_555
C4_8 C3_8 1_555 1_555
H9_8 C4_8 1_555 1_555
C7_8 C3_8 1_555 1_555
C8_8 C7_8 1_555 1_555
H11_8 C8_8 1_555 1_555
C9_8 C8_8 1_555 1_555
H12_8 C9_8 1_555 1_555
C10_8 C9_8 1_555 1_555
C11_8 C10_8 1_555 1_555
H13_8 C11_8 1_555 1_555
C12_8 C7_8 1_555 1_555
H14_8 C12_8 1_555 1_555
C13_8 C10_8 1_555 1_555
O13_8 C53_8 1_555 1_555
O25_8 C53_8 1_555 1_555
C41_8 C1_8 1_555 1_555
C42_8 C41_8 1_555 1_555
H30_8 C42_8 1_555 1_555
C43_8 C42_8 1_555 1_555
C44_8 C43_8 1_555 1_555
H31_8 C44_8 1_555 1_555
C47_8 C43_8 1_555 1_555
C48_8 C47_8 1_555 1_555
H33_8 C48_8 1_555 1_555
C49_8 C48_8 1_555 1_555
H34_8 C49_8 1_555 1_555
C50_8 C49_8 1_555 1_555
C51_8 C50_8 1_555 1_555
H35_8 C51_8 1_555 1_555
C52_8 C47_8 1_555 1_555
H36_8 C52_8 1_555 1_555
C53_8 C50_8 1_555 1_555
Ho6_3 O13_8 1_555 1_555
C11_8 C12_8 1_555 1_555
C51_8 C52_8 1_555 1_555
O26_3 C20_8 1_555 1_555
O27_3 C20_8 1_555 1_555
H10_8 C6_8 1_555 1_555
C14_8 C5_8 1_555 1_555
C15_8 C14_8 1_555 1_555
H15_8 C15_8 1_555 1_555
C16_8 C15_8 1_555 1_555
H16_8 C16_8 1_555 1_555
C17_8 C16_8 1_555 1_555
C18_8 C17_8 1_555 1_555
H17_8 C18_8 1_555 1_555
C19_8 C14_8 1_555 1_555
H18_8 C19_8 1_555 1_555
C20_8 C17_8 1_555 1_555
O26_8 C60_8 1_555 1_555
O27_8 C60_8 1_555 1_555
H32_8 C46_8 1_555 1_555
C54_8 C45_8 1_555 1_555
C55_8 C54_8 1_555 1_555
H37_8 C55_8 1_555 1_555
C56_8 C55_8 1_555 1_555
H38_8 C56_8 1_555 1_555
C57_8 C56_8 1_555 1_555
C58_8 C57_8 1_555 1_555
H39_8 C58_8 1_555 1_555
C59_8 C54_8 1_555 1_555
H40_8 C59_8 1_555 1_555
C60_8 C57_8 1_555 1_555
C5_8 C6_8 1_555 1_555
C18_8 C19_8 1_555 1_555
C45_8 C46_8 1_555 1_555
C58_8 C59_8 1_555 1_555
O5_4 Ho6_3 1_555 1_555
O30_8 C33_7 1_555 1_555
O31_6 C40_7 1_555 1_555
O32_4 C40_7 1_555 1_555
O9_10 Ho6_3 1_555 1_555
H1_7 O9_10 1_555 1_555
C21_7 C22_7 1_555 1_555
C22_7 H19_7 1_555 1_555
C23_7 C22_7 1_555 1_555
C24_7 C23_7 1_555 1_555
H20_7 C24_7 1_555 1_555
C25_7 C24_7 1_555 1_555
C26_7 C21_7 1_555 1_555
H21_7 C26_7 1_555 1_555
C27_7 C23_7 1_555 1_555
C28_7 C27_7 1_555 1_555
H22_7 C28_7 1_555 1_555
C29_7 C28_7 1_555 1_555
H23_7 C29_7 1_555 1_555
C30_7 C29_7 1_555 1_555
C31_7 C30_7 1_555 1_555
H24_7 C31_7 1_555 1_555
C32_7 C27_7 1_555 1_555
H25_7 C32_7 1_555 1_555
C33_7 O5_4 1_555 1_555
C34_7 C25_7 1_555 1_555
C35_7 C34_7 1_555 1_555
H26_7 C35_7 1_555 1_555
C36_7 C35_7 1_555 1_555
H27_7 C36_7 1_555 1_555
C37_7 C36_7 1_555 1_555
C38_7 C37_7 1_555 1_555
H28_7 C38_7 1_555 1_555
C39_7 C34_7 1_555 1_555
H29_7 C39_7 1_555 1_555
C40_7 C37_7 1_555 1_555
O17_4 C73_7 1_555 1_555
O30_7 C73_7 1_555 1_555
O31_5 C80_7 1_555 1_555
O32_3 C80_7 1_555 1_555
C61_7 C21_7 1_555 1_555
C62_7 C61_7 1_555 1_555
H41_7 C62_7 1_555 1_555
C63_7 C62_7 1_555 1_555
C64_7 C63_7 1_555 1_555
H42_7 C64_7 1_555 1_555
C65_7 C64_7 1_555 1_555
C66_7 C61_7 1_555 1_555
H43_7 C66_7 1_555 1_555
C67_7 C63_7 1_555 1_555
C68_7 C67_7 1_555 1_555
H44_7 C68_7 1_555 1_555
C69_7 C68_7 1_555 1_555
H45_7 C69_7 1_555 1_555
C70_7 C69_7 1_555 1_555
C71_7 C70_7 1_555 1_555
H46_7 C71_7 1_555 1_555
C72_7 C67_7 1_555 1_555
H47_7 C72_7 1_555 1_555
C73_7 C70_7 1_555 1_555
C74_7 C65_7 1_555 1_555
C75_7 C74_7 1_555 1_555
H48_7 C75_7 1_555 1_555
C76_7 C75_7 1_555 1_555
H49_7 C76_7 1_555 1_555
C77_7 C76_7 1_555 1_555
C78_7 C77_7 1_555 1_555
H50_7 C78_7 1_555 1_555
C79_7 C74_7 1_555 1_555
H51_7 C79_7 1_555 1_555
C80_7 C77_7 1_555 1_555
H52_7 O9_10 1_555 1_555
Ho7_2 O17_4 1_555 1_555
O28_7 Ho6_3 1_555 1_555
C25_7 C26_7 1_555 1_555
C30_7 C33_7 1_555 1_555
C31_7 C32_7 1_555 1_555
C38_7 C39_7 1_555 1_555
C65_7 C66_7 1_555 1_555
C71_7 C72_7 1_555 1_555
C78_7 C79_7 1_555 1_555
O9_11 Ho7_2 1_555 1_555
H1_8 O9_11 1_555 1_555
O9_12 Ho7_3 1_555 1_555
H52_8 O9_12 1_555 1_555
O28_8 Ho7_3 1_555 1_555
O30_6 C33_8 1_555 1_555
C21_8 C22_8 1_555 1_555
C22_8 H19_8 1_555 1_555
C23_8 C22_8 1_555 1_555
C24_8 C23_8 1_555 1_555
H20_8 C24_8 1_555 1_555
C27_8 C23_8 1_555 1_555
C28_8 C27_8 1_555 1_555
H22_8 C28_8 1_555 1_555
C29_8 C28_8 1_555 1_555
H23_8 C29_8 1_555 1_555
C30_8 C29_8 1_555 1_555
C31_8 C30_8 1_555 1_555
H24_8 C31_8 1_555 1_555
C32_8 C27_8 1_555 1_555
H25_8 C32_8 1_555 1_555
C33_8 O28_7 1_555 1_555
O28_8 C73_8 1_555 1_555
O30_5 C73_8 1_555 1_555
C61_8 C21_8 1_555 1_555
C62_8 C61_8 1_555 1_555
H41_8 C62_8 1_555 1_555
C63_8 C62_8 1_555 1_555
C64_8 C63_8 1_555 1_555
H42_8 C64_8 1_555 1_555
C67_8 C63_8 1_555 1_555
C68_8 C67_8 1_555 1_555
H44_8 C68_8 1_555 1_555
C69_8 C68_8 1_555 1_555
H45_8 C69_8 1_555 1_555
C70_8 C69_8 1_555 1_555
C71_8 C70_8 1_555 1_555
H46_8 C71_8 1_555 1_555
C72_8 C67_8 1_555 1_555
H47_8 C72_8 1_555 1_555
C73_8 C70_8 1_555 1_555
C30_8 C33_8 1_555 1_555
C31_8 C32_8 1_555 1_555
C71_8 C72_8 1_555 1_555
O31_8 C40_8 1_555 1_555
O33_4 C40_8 1_555 1_555
H21_8 C26_8 1_555 1_555
C34_8 C25_8 1_555 1_555
C35_8 C34_8 1_555 1_555
H26_8 C35_8 1_555 1_555
C36_8 C35_8 1_555 1_555
H27_8 C36_8 1_555 1_555
C37_8 C36_8 1_555 1_555
C38_8 C37_8 1_555 1_555
H28_8 C38_8 1_555 1_555
C39_8 C34_8 1_555 1_555
H29_8 C39_8 1_555 1_555
C40_8 C37_8 1_555 1_555
O31_7 C80_8 1_555 1_555
O33_3 C80_8 1_555 1_555
H43_8 C66_8 1_555 1_555
C74_8 C65_8 1_555 1_555
C75_8 C74_8 1_555 1_555
H48_8 C75_8 1_555 1_555
C76_8 C75_8 1_555 1_555
H49_8 C76_8 1_555 1_555
C77_8 C76_8 1_555 1_555
C78_8 C77_8 1_555 1_555
H50_8 C78_8 1_555 1_555
C79_8 C74_8 1_555 1_555
H51_8 C79_8 1_555 1_555
C80_8 C77_8 1_555 1_555
C25_8 C26_8 1_555 1_555
C38_8 C39_8 1_555 1_555
C65_8 C66_8 1_555 1_555
C78_8 C79_8 1_555 1_555

#END
