
###############################################################################
#
# This file contains modified crystal structure data generated from the
# MOF subset of the Cambridge Structural Database (CSD) v543 
# hosted by the Cambridge Crystallographic Data Centre (CCDC).
#
# This work is licensed under the Creative Commons
# Attribution-NonCommercial-ShareAlike 4.0 International License.
# To view a copy of this license, visit
# http://creativecommons.org/licenses/by-nc-sa/4.0/
# or send a letter to
# Creative Commons, PO Box 1866, Mountain View, CA 94042, USA.
#
# CIF created using the CSD Python API on 29 September 2022
# The structure has been converted into the P1 space group
# The structure has a 3D framework
# The original CSD entry ATEYED is in the monoclinic crystal system
# The framework has been calculated to contain at least 10.0% void space
# The void calculation uses a probe of radius 1.32A, grid spacing 0.4
# The framework is charged, counterions have been retained in the structure
# H atom positions have been added when not included in the experimental data
# Generated hydrogen atom positions removed from atoms on special positions
#
###############################################################################

data_ATEYED
_chemical_formula_moiety         '(C224 H288 Co12 N64 O48 S8 8+)n'
_symmetry_cell_setting           triclinic
_symmetry_space_group_name_H-M   'P 1'
_symmetry_Int_Tables_number      1
_space_group_name_Hall           'P 1'
loop_
_symmetry_equiv_pos_site_id
_symmetry_equiv_pos_as_xyz
1 x,y,z
_cell_length_a                   28.132(5)
_cell_length_b                   12.615(2)
_cell_length_c                   24.746(4)
_cell_angle_alpha                90
_cell_angle_beta                 120.026(3)
_cell_angle_gamma                90
_cell_volume                     7603.43
loop_
_atom_site_label
_atom_site_type_symbol
_atom_site_fract_x
_atom_site_fract_y
_atom_site_fract_z
Co2 Co 0.0000 0.02710(5) 0.2500
C1 C 0.07261(17) 0.1807(3) 0.3629(2)
H1 H 0.1053 0.1609 0.3649
C2 C 0.06857(18) 0.2478(3) 0.4023(2)
H2 H 0.0973 0.2828 0.4358
H4 H 0.0062 0.2789 0.4592
C7 C 0.0426(2) 0.4717(3) 0.4690(2)
H7 H 0.0704 0.4295 0.4988
C8 C 0.0475(2) 0.5803(4) 0.4734(3)
H8 H 0.0788 0.6105 0.5063
C9 C 0.0796(3) 0.8790(4) 0.3621(3)
H9 H 0.1097 0.8979 0.3581
C11 C 0.0826(4) 0.8184(5) 0.4083(3)
H11 H 0.1137 0.7873 0.4410
C12 C 0.0126(4) 0.7636(4) 0.4383(4)
H13 H 0.0387 0.7808 0.4814
C13 C 0.0076(3) 0.6439(4) 0.4308(3)
N1 N 0.02171(13) 0.1455(2) 0.31926(14)
N2 N 0.01434(14) 0.2546(2) 0.38387(16)
N3 N 0.02742(18) 0.9089(3) 0.32215(19)
N4 N 0.0308(3) 0.8125(3) 0.3971(2)
O1 O 0.08304(13) 0.0260(2) 0.26519(15)
C17 C 0.01245(16) 0.1921(3) 0.16593(18)
H17 H 0.0503 0.1825 0.1875
C18 C 0.0104(2) 0.3071(3) 0.0829(2)
H19 H 0.0493 0.2903 0.1039
C19 C 0.0441(3) 0.4895(5) 0.1228(2)
H20 H 0.0756 0.4599 0.1558
C20 C 0.00363(19) 0.4250(3) 0.07954(19)
C24 C 0.0017(3) 0.8675(4) 0.1550(3)
H24 H 0.0395 0.8753 0.1724
H26 H 0.0227 0.7930 0.0716
C28 C 0.0381(3) 0.5993(5) 0.1171(3)
H28 H 0.0657 0.6426 0.1464
H57 H 0.109172 0.00636925 0.309185
H58 H 0.0855735 0.973544 0.236816
H59 H 0.0994971 0.0975824 0.278582
H60 H 0.105487 0.973539 0.298131
Co2_2 Co 1.0000 0.02710(5) 0.2500
C3 C 0.98755(16) 0.1921(3) 0.33407(18)
H3 H 0.9497 0.1825 0.3125
C4 C 0.9896(2) 0.3071(3) 0.4171(2)
H5 H 0.9507 0.2903 0.3961
C5 C 0.9559(3) 0.4895(5) 0.3772(2)
H6 H 0.9244 0.4599 0.3442
C6 C 0.99637(19) 0.4250(3) 0.42046(19)
C10 C 0.9983(3) 0.8675(4) 0.3450(3)
H10 H 0.9605 0.8753 0.3276
H12 H 0.9773 0.7930 0.4284
C14 C 0.9619(3) 0.5993(5) 0.3829(3)
H14 H 0.9343 0.6426 0.3536
C15 C 0.92739(17) 0.1807(3) 0.1371(2)
H15 H 0.8947 0.1609 0.1351
C16 C 0.93143(18) 0.2478(3) 0.0977(2)
H16 H 0.9027 0.2828 0.0642
H18 H 0.9938 0.2789 0.0408
C21 C 0.9574(2) 0.4717(3) 0.0310(2)
H21 H 0.9296 0.4295 0.0012
C22 C 0.9525(2) 0.5803(4) 0.0266(3)
C23 C 0.9204(3) 0.8790(4) 0.1379(3)
H23 H 0.8903 0.8979 0.1419
C25 C 0.9174(4) 0.8184(5) 0.0917(3)
H25 H 0.8863 0.7873 0.0590
C26 C 0.9874(4) 0.7636(4) 0.0617(4)
H27 H 0.9613 0.7808 0.0186
C27 C 0.9924(3) 0.6439(4) 0.0692(3)
N5 N 0.97829(13) 0.1455(2) 0.18074(14)
N6 N 0.98566(14) 0.2546(2) 0.11613(16)
N7 N 0.97258(18) 0.9089(3) 0.17785(19)
N8 N 0.9692(3) 0.8125(3) 0.1029(2)
O2 O 0.91696(13) 0.0260(2) 0.23481(15)
H59_2 H 0.900503 0.0975824 0.221418
H60_2 H 0.894513 0.973539 0.201869
H57_2 H 0.890828 0.00636925 0.190815
H58_2 H 0.914427 0.973544 0.263184
H22 H 0.9212 0.6105 0.9937
C8_2 C 0.5475(2) 0.0803(4) 0.4734(3)
H8_2 H 0.5788 0.1105 0.5063
C9_2 C 0.5796(3) 0.3790(4) 0.3621(3)
H9_2 H 0.6097 0.3979 0.3581
C10_2 C 0.4983(3) 0.3675(4) 0.3450(3)
H10_2 H 0.4605 0.3753 0.3276
C11_2 C 0.5826(4) 0.3184(5) 0.4083(3)
H11_2 H 0.6137 0.2873 0.4410
C12_2 C 0.5126(4) 0.2636(4) 0.4383(4)
H12_2 H 0.4773 0.2930 0.4284
H13_2 H 0.5387 0.2808 0.4814
C13_2 C 0.5076(3) 0.1439(4) 0.4308(3)
C14_2 C 0.4619(3) 0.0993(5) 0.3829(3)
H14_2 H 0.4343 0.1426 0.3536
N3_2 N 0.52742(18) 0.4089(3) 0.32215(19)
N4_2 N 0.5308(3) 0.3125(3) 0.3971(2)
C22_2 C 0.4525(2) 0.0803(4) 0.0266(3)
C23_2 C 0.4204(3) 0.3790(4) 0.1379(3)
H23_2 H 0.3903 0.3979 0.1419
C24_2 C 0.5017(3) 0.3675(4) 0.1550(3)
H24_2 H 0.5395 0.3753 0.1724
C25_2 C 0.4174(4) 0.3184(5) 0.0917(3)
H25_2 H 0.3863 0.2873 0.0590
C26_2 C 0.4874(4) 0.2636(4) 0.0617(4)
H26_2 H 0.5227 0.2930 0.0716
H27_2 H 0.4613 0.2808 0.0186
C27_2 C 0.4924(3) 0.1439(4) 0.0692(3)
C28_2 C 0.5381(3) 0.0993(5) 0.1171(3)
H28_2 H 0.5657 0.1426 0.1464
N7_2 N 0.47258(18) 0.4089(3) 0.17785(19)
N8_2 N 0.4692(3) 0.3125(3) 0.1029(2)
Co2_3 Co 0.5000 0.52710(5) 0.2500
C1_2 C 0.57261(17) 0.6807(3) 0.3629(2)
H1_2 H 0.6053 0.6609 0.3649
C2_2 C 0.56857(18) 0.7478(3) 0.4023(2)
H2_2 H 0.5973 0.7828 0.4358
C3_2 C 0.48755(16) 0.6921(3) 0.33407(18)
H3_2 H 0.4497 0.6825 0.3125
C4_2 C 0.4896(2) 0.8071(3) 0.4171(2)
H4_2 H 0.5062 0.7789 0.4592
H5_2 H 0.4507 0.7903 0.3961
C5_2 C 0.4559(3) 0.9895(5) 0.3772(2)
H6_2 H 0.4244 0.9599 0.3442
C6_2 C 0.49637(19) 0.9250(3) 0.42046(19)
C7_2 C 0.5426(2) 0.9717(3) 0.4690(2)
H7_2 H 0.5704 0.9295 0.4988
N1_2 N 0.52171(13) 0.6455(2) 0.31926(14)
N2_2 N 0.51434(14) 0.7546(2) 0.38387(16)
O1_2 O 0.58304(13) 0.5260(2) 0.26519(15)
C15_2 C 0.42739(17) 0.6807(3) 0.1371(2)
H15_2 H 0.3947 0.6609 0.1351
C16_2 C 0.43143(18) 0.7478(3) 0.0977(2)
H16_2 H 0.4027 0.7828 0.0642
C17_2 C 0.51245(16) 0.6921(3) 0.16593(18)
H17_2 H 0.5503 0.6825 0.1875
C18_2 C 0.5104(2) 0.8071(3) 0.0829(2)
H18_2 H 0.4938 0.7789 0.0408
H19_2 H 0.5493 0.7903 0.1039
C19_2 C 0.5441(3) 0.9895(5) 0.1228(2)
H20_2 H 0.5756 0.9599 0.1558
C20_2 C 0.50363(19) 0.9250(3) 0.07954(19)
C21_2 C 0.4574(2) 0.9717(3) 0.0310(2)
H21_2 H 0.4296 0.9295 0.0012
N5_2 N 0.47829(13) 0.6455(2) 0.18074(14)
N6_2 N 0.48566(14) 0.7546(2) 0.11613(16)
O2_2 O 0.41696(13) 0.5260(2) 0.23481(15)
H22_2 H 0.4212 0.1105 0.9937
N10 N 0.02742(18) 0.0911(3) 0.82215(19)
H60_3 H 0.105487 0.0264611 0.798131
C3_3 C 0.01245(16) 0.8079(3) 0.66593(18)
H3_3 H 0.0503 0.8175 0.6875
C4_3 C 0.0104(2) 0.6929(3) 0.5829(2)
H5_3 H 0.0493 0.7097 0.6039
C5_3 C 0.0441(3) 0.5105(5) 0.6228(2)
H6_3 H 0.0756 0.5401 0.6558
C6_3 C 0.00363(19) 0.5750(3) 0.57954(19)
C10_3 C 0.0017(3) 0.1325(4) 0.6550(3)
H10_3 H 0.0395 0.1247 0.6724
H12_3 H 0.0227 0.2070 0.5716
C14_3 C 0.0381(3) 0.4007(5) 0.6171(3)
H14_3 H 0.0657 0.3574 0.6464
Co1 Co 0.0000 0.97290(5) 0.7500
C15_3 C 0.07261(17) 0.8193(3) 0.8629(2)
H15_3 H 0.1053 0.8391 0.8649
C16_3 C 0.06857(18) 0.7522(3) 0.9023(2)
H16_3 H 0.0973 0.7172 0.9358
H18_3 H 0.0062 0.7211 0.9592
C21_3 C 0.0426(2) 0.5283(3) 0.9690(2)
H21_3 H 0.0704 0.5705 0.9988
C22_3 C 0.0475(2) 0.4197(4) 0.9734(3)
C23_3 C 0.0796(3) 0.1210(4) 0.8621(3)
H23_3 H 0.1097 0.1021 0.8581
C25_3 C 0.0826(4) 0.1816(5) 0.9083(3)
H25_3 H 0.1137 0.2127 0.9410
C26_3 C 0.0126(4) 0.2364(4) 0.9383(4)
H27_3 H 0.0387 0.2192 0.9814
C27_3 C 0.0076(3) 0.3561(4) 0.9308(3)
N5_3 N 0.02171(13) 0.8545(2) 0.81926(14)
N6_3 N 0.01434(14) 0.7454(2) 0.88387(16)
N8_3 N 0.0308(3) 0.1875(3) 0.8971(2)
O2_3 O 0.08304(13) 0.9740(2) 0.76519(15)
H59_3 H 0.0994971 0.902418 0.778582
H58_3 H 0.0855735 0.0264562 0.736816
H57_3 H 0.109172 0.993631 0.809185
H22_3 H 0.0788 0.3895 0.0063
N9 N 0.97258(18) 0.0911(3) 0.67785(19)
H58_4 H 0.914427 0.0264562 0.763184
C1_3 C 0.92739(17) 0.8193(3) 0.6371(2)
H1_3 H 0.8947 0.8391 0.6351
C2_3 C 0.93143(18) 0.7522(3) 0.5977(2)
H2_3 H 0.9027 0.7172 0.5642
H4_3 H 0.9938 0.7211 0.5408
C7_3 C 0.9574(2) 0.5283(3) 0.5310(2)
H7_3 H 0.9296 0.5705 0.5012
C8_3 C 0.9525(2) 0.4197(4) 0.5266(3)
H8_3 H 0.9212 0.3895 0.4937
C9_3 C 0.9204(3) 0.1210(4) 0.6379(3)
H9_3 H 0.8903 0.1021 0.6419
C11_3 C 0.9174(4) 0.1816(5) 0.5917(3)
H11_3 H 0.8863 0.2127 0.5590
C12_3 C 0.9874(4) 0.2364(4) 0.5617(4)
H13_3 H 0.9613 0.2192 0.5186
C13_3 C 0.9924(3) 0.3561(4) 0.5692(3)
N1_3 N 0.97829(13) 0.8545(2) 0.68074(14)
N2_3 N 0.98566(14) 0.7454(2) 0.61613(16)
N4_3 N 0.9692(3) 0.1875(3) 0.6029(2)
O1_3 O 0.91696(13) 0.9740(2) 0.73481(15)
Co1_2 Co 1.0000 0.97290(5) 0.7500
C17_3 C 0.98755(16) 0.8079(3) 0.83407(18)
H17_3 H 0.9497 0.8175 0.8125
C18_3 C 0.9896(2) 0.6929(3) 0.9171(2)
H19_3 H 0.9507 0.7097 0.8961
C19_3 C 0.9559(3) 0.5105(5) 0.8772(2)
H20_3 H 0.9244 0.5401 0.8442
C20_3 C 0.99637(19) 0.5750(3) 0.92046(19)
C24_3 C 0.9983(3) 0.1325(4) 0.8450(3)
H24_3 H 0.9605 0.1247 0.8276
H26_3 H 0.9773 0.2070 0.9284
C28_3 C 0.9619(3) 0.4007(5) 0.8829(3)
H28_3 H 0.9343 0.3574 0.8536
H57_4 H 0.890828 0.993631 0.690815
H60_4 H 0.894513 0.0264611 0.701869
H59_4 H 0.900503 0.902418 0.721418
C1_4 C 0.42739(17) 0.3193(3) 0.6371(2)
H1_4 H 0.3947 0.3391 0.6351
C2_4 C 0.43143(18) 0.2522(3) 0.5977(2)
H2_4 H 0.4027 0.2172 0.5642
C3_4 C 0.51245(16) 0.3079(3) 0.66593(18)
H3_4 H 0.5503 0.3175 0.6875
C4_4 C 0.5104(2) 0.1929(3) 0.5829(2)
H4_4 H 0.4938 0.2211 0.5408
H5_4 H 0.5493 0.2097 0.6039
C5_4 C 0.5441(3) 0.0105(5) 0.6228(2)
H6_4 H 0.5756 0.0401 0.6558
C6_4 C 0.50363(19) 0.0750(3) 0.57954(19)
C7_4 C 0.4574(2) 0.0283(3) 0.5310(2)
H7_4 H 0.4296 0.0705 0.5012
N1_4 N 0.47829(13) 0.3545(2) 0.68074(14)
N2_4 N 0.48566(14) 0.2454(2) 0.61613(16)
O1_4 O 0.41696(13) 0.4740(2) 0.73481(15)
Co1_3 Co 0.5000 0.47290(5) 0.7500
C15_4 C 0.57261(17) 0.3193(3) 0.8629(2)
H15_4 H 0.6053 0.3391 0.8649
C16_4 C 0.56857(18) 0.2522(3) 0.9023(2)
H16_4 H 0.5973 0.2172 0.9358
C17_4 C 0.48755(16) 0.3079(3) 0.83407(18)
H17_4 H 0.4497 0.3175 0.8125
C18_4 C 0.4896(2) 0.1929(3) 0.9171(2)
H18_4 H 0.5062 0.2211 0.9592
H19_4 H 0.4507 0.2097 0.8961
C19_4 C 0.4559(3) 0.0105(5) 0.8772(2)
H20_4 H 0.4244 0.0401 0.8442
C20_4 C 0.49637(19) 0.0750(3) 0.92046(19)
C21_4 C 0.5426(2) 0.0283(3) 0.9690(2)
H21_4 H 0.5704 0.0705 0.9988
N5_4 N 0.52171(13) 0.3545(2) 0.81926(14)
N6_4 N 0.51434(14) 0.2454(2) 0.88387(16)
O2_4 O 0.58304(13) 0.4740(2) 0.76519(15)
N9_2 N 0.47258(18) 0.5911(3) 0.67785(19)
N10_2 N 0.52742(18) 0.5911(3) 0.82215(19)
C8_4 C 0.4525(2) 0.9197(4) 0.5266(3)
H8_4 H 0.4212 0.8895 0.4937
C9_4 C 0.4204(3) 0.6210(4) 0.6379(3)
H9_4 H 0.3903 0.6021 0.6419
C10_4 C 0.5017(3) 0.6325(4) 0.6550(3)
H10_4 H 0.5395 0.6247 0.6724
C11_4 C 0.4174(4) 0.6816(5) 0.5917(3)
H11_4 H 0.3863 0.7127 0.5590
C12_4 C 0.4874(4) 0.7364(4) 0.5617(4)
H12_4 H 0.5227 0.7070 0.5716
H13_4 H 0.4613 0.7192 0.5186
C13_4 C 0.4924(3) 0.8561(4) 0.5692(3)
C14_4 C 0.5381(3) 0.9007(5) 0.6171(3)
H14_4 H 0.5657 0.8574 0.6464
N4_4 N 0.4692(3) 0.6875(3) 0.6029(2)
C22_4 C 0.5475(2) 0.9197(4) 0.9734(3)
C23_4 C 0.5796(3) 0.6210(4) 0.8621(3)
H23_4 H 0.6097 0.6021 0.8581
C24_4 C 0.4983(3) 0.6325(4) 0.8450(3)
H24_4 H 0.4605 0.6247 0.8276
C25_4 C 0.5826(4) 0.6816(5) 0.9083(3)
H25_4 H 0.6137 0.7127 0.9410
C26_4 C 0.5126(4) 0.7364(4) 0.9383(4)
H26_4 H 0.4773 0.7070 0.9284
H27_4 H 0.5387 0.7192 0.9814
C27_4 C 0.5076(3) 0.8561(4) 0.9308(3)
C28_4 C 0.4619(3) 0.9007(5) 0.8829(3)
H28_4 H 0.4343 0.8574 0.8536
N8_4 N 0.5308(3) 0.6875(3) 0.8971(2)
H22_4 H 0.5788 0.8895 0.0063
C29 C 0.32665(15) 0.3983(3) 0.4785(2)
H29 H 0.3223 0.4503 0.5023
C30 C 0.32122(18) 0.2536(4) 0.4322(2)
H30 H 0.3120 0.1845 0.4176
C31 C 0.3525(2) 0.3192(4) 0.4200(2)
H31 H 0.3686 0.3041 0.3960
C32 C 0.38162(17) 0.5098(3) 0.4455(2)
H32 H 0.3734 0.5662 0.4663
H33 H 0.3656 0.5293 0.4019
C33 C 0.44295(16) 0.5018(3) 0.4739(2)
C34 C 0.47668(17) 0.4681(3) 0.5348(2)
H34 H 0.4611 0.4459 0.5583
C35 C 0.46695(17) 0.5332(3) 0.4390(2)
H35 H 0.4449 0.5551 0.3978
C36 C 0.17325(19) 0.4521(4) 0.4644(2)
H36 H 0.1782 0.4594 0.5043
C37 C 0.17910(17) 0.3940(4) 0.3876(2)
H37 H 0.1885 0.3530 0.3632
C38 C 0.1413(2) 0.5155(4) 0.4153(2)
H38 H 0.1206 0.5731 0.4150
C39 C 0.1180(2) 0.5217(6) 0.3030(2)
H39 H 0.1274 0.4796 0.2768
H40 H 0.1307 0.5935 0.3040
C40 C 0.0280(2) 0.4270(4) 0.2626(2)
H41 H 0.0468 0.3630 0.2711
C41 C 0.0568(2) 0.5220(4) 0.2755(2)
C42 C 0.0282(2) 0.6157(4) 0.2630(2)
H42 H 0.0470 0.6797 0.2720
N11 N 0.30506(13) 0.3036(3) 0.46918(15)
N12 N 0.35578(13) 0.4119(3) 0.44972(17)
N13 N 0.19691(13) 0.3765(3) 0.44689(16)
N14 N 0.14582(16) 0.4778(3) 0.36673(18)
O3 O 0.28681(12) 0.3569(3) 0.57983(14)
Co3 Co 0.2500 0.2500 0.5000
C43 C 0.53305(17) 0.4668(3) 0.5610(2)
C44 C 0.55705(16) 0.4982(3) 0.5261(2)
C45 C 0.61838(17) 0.4902(3) 0.5545(2)
H43 H 0.6266 0.4338 0.5337
H44 H 0.6344 0.4707 0.5981
N15 N 0.64422(13) 0.5881(3) 0.55028(17)
C46 C 0.67335(15) 0.6017(3) 0.5215(2)
H45 H 0.6777 0.5497 0.4977
N16 N 0.69494(13) 0.6964(3) 0.53082(15)
C47 C 0.67878(18) 0.7464(4) 0.5678(2)
H46 H 0.6880 0.8155 0.5824
C48 C 0.6475(2) 0.6808(4) 0.5800(2)
H47 H 0.6314 0.6959 0.6040
C49 C 0.52332(17) 0.5319(3) 0.4652(2)
H48 H 0.5389 0.5541 0.4417
H49 H 0.5551 0.4449 0.6022
O4 O 0.21319(12) 0.1431(3) 0.42017(14)
N19 N 0.19494(13) 0.1964(3) 0.53082(15)
N20 N 0.30309(13) 0.1235(3) 0.55311(16)
Co4 Co 0.7500 0.7500 0.5000
C50 C 0.9720(2) 0.4270(4) 0.2374(2)
H50 H 0.9532 0.3630 0.2289
C51 C 0.9432(2) 0.5220(4) 0.2245(2)
C52 C 0.8820(2) 0.5217(6) 0.1970(2)
H51 H 0.8726 0.4796 0.2232
H52 H 0.8693 0.5935 0.1960
N17 N 0.85418(16) 0.4778(3) 0.13327(18)
C53 C 0.82090(17) 0.3940(4) 0.1124(2)
H53 H 0.8115 0.3530 0.1368
N18 N 0.80309(13) 0.3765(3) 0.05311(16)
C54 C 0.82675(19) 0.4521(4) 0.0356(2)
C55 C 0.8587(2) 0.5155(4) 0.0847(2)
H55 H 0.8794 0.5731 0.0850
C56 C 0.9718(2) 0.6157(4) 0.2370(2)
H56 H 0.9530 0.6797 0.2280
Co5 Co 0.7500 0.2500 0.0000
H54 H 0.8218 0.4594 0.9957
Co5_2 Co 0.7500 0.2500 1.0000
N15_2 N 0.14422(13) 0.0881(3) 0.55028(17)
C46_2 C 0.17335(15) 0.1017(3) 0.5215(2)
H45_2 H 0.1777 0.0497 0.4977
C47_2 C 0.17878(18) 0.2464(4) 0.5678(2)
H46_2 H 0.1880 0.3155 0.5824
C48_2 C 0.1475(2) 0.1808(4) 0.5800(2)
H47_2 H 0.1314 0.1959 0.6040
C49_2 C 0.02332(17) 0.0319(3) 0.4652(2)
H48_2 H 0.0389 0.0541 0.4417
C29_2 C 0.82665(15) 0.8983(3) 0.4785(2)
H29_2 H 0.8223 0.9503 0.5023
C30_2 C 0.82122(18) 0.7536(4) 0.4322(2)
H30_2 H 0.8120 0.6845 0.4176
C31_2 C 0.8525(2) 0.8192(4) 0.4200(2)
H31_2 H 0.8686 0.8041 0.3960
C34_2 C 0.97668(17) 0.9681(3) 0.5348(2)
H34_2 H 0.9611 0.9459 0.5583
C36_2 C 0.67325(19) 0.9521(4) 0.4644(2)
H36_2 H 0.6782 0.9594 0.5043
C37_2 C 0.67910(17) 0.8940(4) 0.3876(2)
H37_2 H 0.6885 0.8530 0.3632
H39_2 H 0.6274 0.9796 0.2768
C40_2 C 0.5280(2) 0.9270(4) 0.2626(2)
H41_2 H 0.5468 0.8630 0.2711
N11_2 N 0.80506(13) 0.8036(3) 0.46918(15)
N12_2 N 0.85578(13) 0.9119(3) 0.44972(17)
N13_2 N 0.69691(13) 0.8765(3) 0.44689(16)
N14_2 N 0.64582(16) 0.9778(3) 0.36673(18)
O3_2 O 0.78681(12) 0.8569(3) 0.57983(14)
C50_2 C 0.4720(2) 0.9270(4) 0.2374(2)
H50_2 H 0.4532 0.8630 0.2289
H51_2 H 0.3726 0.9796 0.2232
N17_2 N 0.35418(16) 0.9778(3) 0.13327(18)
C53_2 C 0.32090(17) 0.8940(4) 0.1124(2)
H53_2 H 0.3115 0.8530 0.1368
N18_2 N 0.30309(13) 0.8765(3) 0.05311(16)
C54_2 C 0.32675(19) 0.9521(4) 0.0356(2)
O4_2 O 0.71319(12) 0.6431(3) 0.42017(14)
N20_2 N 0.80309(13) 0.6235(3) 0.55311(16)
Co5_3 Co 0.2500 0.7500 0.0000
H54_2 H 0.3218 0.9594 0.9957
Co5_4 Co 0.2500 0.7500 1.0000
C29_3 C 0.67335(15) 0.3983(3) 0.0215(2)
C30_3 C 0.67878(18) 0.2536(4) 0.0678(2)
H30_3 H 0.6880 0.1845 0.0824
C31_3 C 0.6475(2) 0.3192(4) 0.0800(2)
H31_3 H 0.6314 0.3041 0.1040
C32_2 C 0.61838(17) 0.5098(3) 0.0545(2)
H32_2 H 0.6266 0.5662 0.0337
H33_2 H 0.6344 0.5293 0.0981
C33_2 C 0.55705(16) 0.5018(3) 0.0261(2)
C35_2 C 0.53305(17) 0.5332(3) 0.0610(2)
H35_2 H 0.5551 0.5551 0.1022
N11_3 N 0.69494(13) 0.3036(3) 0.03082(15)
N12_3 N 0.64422(13) 0.4119(3) 0.05028(17)
H45_3 H 0.3223 0.5497 0.0023
C49_3 C 0.47668(17) 0.5319(3) 0.0348(2)
H48_3 H 0.4611 0.5541 0.0583
O4_3 O 0.78681(12) 0.1431(3) 0.07983(14)
H29_3 H 0.6777 0.4503 0.9977
C34_3 C 0.52332(17) 0.4681(3) 0.9652(2)
H34_3 H 0.5389 0.4459 0.9417
O3_3 O 0.71319(12) 0.3569(3) 0.92017(14)
C43_2 C 0.46695(17) 0.4668(3) 0.9390(2)
C44_2 C 0.44295(16) 0.4982(3) 0.9739(2)
C45_2 C 0.38162(17) 0.4902(3) 0.9455(2)
H43_2 H 0.3734 0.4338 0.9663
H44_2 H 0.3656 0.4707 0.9019
N15_3 N 0.35578(13) 0.5881(3) 0.94972(17)
C46_3 C 0.32665(15) 0.6017(3) 0.9785(2)
N16_2 N 0.30506(13) 0.6964(3) 0.96918(15)
C47_3 C 0.32122(18) 0.7464(4) 0.9322(2)
H46_3 H 0.3120 0.8155 0.9176
C48_3 C 0.3525(2) 0.6808(4) 0.9200(2)
H47_3 H 0.3686 0.6959 0.8960
H49_2 H 0.4449 0.4449 0.8978
N19_2 N 0.80506(13) 0.1964(3) 0.96918(15)
N20_3 N 0.69691(13) 0.1235(3) 0.94689(16)
C29_4 C 0.17335(15) 0.8983(3) 0.0215(2)
C30_4 C 0.17878(18) 0.7536(4) 0.0678(2)
H30_4 H 0.1880 0.6845 0.0824
C31_4 C 0.1475(2) 0.8192(4) 0.0800(2)
H31_4 H 0.1314 0.8041 0.1040
N11_4 N 0.19494(13) 0.8036(3) 0.03082(15)
N12_4 N 0.14422(13) 0.9119(3) 0.05028(17)
O4_4 O 0.28681(12) 0.6431(3) 0.07983(14)
H29_4 H 0.1777 0.9503 0.9977
C34_4 C 0.02332(17) 0.9681(3) 0.9652(2)
H34_4 H 0.0389 0.9459 0.9417
O3_4 O 0.21319(12) 0.8569(3) 0.92017(14)
N20_4 N 0.19691(13) 0.6235(3) 0.94689(16)
H45_4 H 0.8223 0.0497 0.0023
C49_4 C 0.97668(17) 0.0319(3) 0.0348(2)
H48_4 H 0.9611 0.0541 0.0583
N15_4 N 0.85578(13) 0.0881(3) 0.94972(17)
C46_4 C 0.82665(15) 0.1017(3) 0.9785(2)
C47_4 C 0.82122(18) 0.2464(4) 0.9322(2)
H46_4 H 0.8120 0.3155 0.9176
C48_4 C 0.8525(2) 0.1808(4) 0.9200(2)
H47_4 H 0.8686 0.1959 0.8960
H54_3 H 0.1782 0.5406 0.0043
C50_3 C 0.0280(2) 0.5730(4) 0.7626(2)
H50_3 H 0.0468 0.6370 0.7711
C51_2 C 0.0568(2) 0.4780(4) 0.7755(2)
C52_2 C 0.1180(2) 0.4783(6) 0.8030(2)
H51_3 H 0.1274 0.5204 0.7768
H52_2 H 0.1307 0.4065 0.8040
N17_3 N 0.14582(16) 0.5222(3) 0.86673(18)
C53_3 C 0.17910(17) 0.6060(4) 0.8876(2)
H53_3 H 0.1885 0.6470 0.8632
C54_3 C 0.17325(19) 0.5479(4) 0.9644(2)
C55_2 C 0.1413(2) 0.4845(4) 0.9153(2)
H55_2 H 0.1206 0.4269 0.9150
C56_2 C 0.0282(2) 0.3843(4) 0.7630(2)
H56_2 H 0.0470 0.3203 0.7720
C36_3 C 0.82675(19) 0.5479(4) 0.5356(2)
H36_3 H 0.8218 0.5406 0.4957
C37_3 C 0.82090(17) 0.6060(4) 0.6124(2)
H37_3 H 0.8115 0.6470 0.6368
C38_2 C 0.8587(2) 0.4845(4) 0.5847(2)
H38_2 H 0.8794 0.4269 0.5850
C39_2 C 0.8820(2) 0.4783(6) 0.6970(2)
H39_3 H 0.8726 0.5204 0.7232
H40_2 H 0.8693 0.4065 0.6960
C40_3 C 0.9720(2) 0.5730(4) 0.7374(2)
H41_3 H 0.9532 0.6370 0.7289
C41_2 C 0.9432(2) 0.4780(4) 0.7245(2)
C42_2 C 0.9718(2) 0.3843(4) 0.7370(2)
H42_2 H 0.9530 0.3203 0.7280
N14_3 N 0.85418(16) 0.5222(3) 0.63327(18)
H54_4 H 0.6782 0.0406 0.0043
C36_4 C 0.32675(19) 0.0479(4) 0.5356(2)
H36_4 H 0.3218 0.0406 0.4957
C37_4 C 0.32090(17) 0.1060(4) 0.6124(2)
H37_4 H 0.3115 0.1470 0.6368
H39_4 H 0.3726 0.0204 0.7232
C40_4 C 0.4720(2) 0.0730(4) 0.7374(2)
H41_4 H 0.4532 0.1370 0.7289
N14_4 N 0.35418(16) 0.0222(3) 0.63327(18)
C50_4 C 0.5280(2) 0.0730(4) 0.7626(2)
H50_4 H 0.5468 0.1370 0.7711
H51_4 H 0.6274 0.0204 0.7768
N17_4 N 0.64582(16) 0.0222(3) 0.86673(18)
C53_4 C 0.67910(17) 0.1060(4) 0.8876(2)
H53_4 H 0.6885 0.1470 0.8632
C54_4 C 0.67325(19) 0.0479(4) 0.9644(2)
C43_3 C 0.03305(17) 0.9668(3) 0.5610(2)
C44_3 C 0.05705(16) 0.9982(3) 0.5261(2)
C45_3 C 0.11838(17) 0.9902(3) 0.5545(2)
H43_3 H 0.1266 0.9338 0.5337
H44_3 H 0.1344 0.9707 0.5981
H49_3 H 0.0551 0.9449 0.6022
C43_4 C 0.96695(17) 0.9668(3) 0.9390(2)
C44_4 C 0.94295(16) 0.9982(3) 0.9739(2)
C45_4 C 0.88162(17) 0.9902(3) 0.9455(2)
H43_4 H 0.8734 0.9338 0.9663
H44_4 H 0.8656 0.9707 0.9019
H49_4 H 0.9449 0.9449 0.8978
C38_3 C 0.3587(2) 0.9845(4) 0.5847(2)
H38_3 H 0.3794 0.9269 0.5850
C39_3 C 0.3820(2) 0.9783(6) 0.6970(2)
H40_3 H 0.3693 0.9065 0.6960
C41_3 C 0.4432(2) 0.9780(4) 0.7245(2)
C42_3 C 0.4718(2) 0.8843(4) 0.7370(2)
H42_3 H 0.4530 0.8203 0.7280
C51_3 C 0.5568(2) 0.9780(4) 0.7755(2)
C52_3 C 0.6180(2) 0.9783(6) 0.8030(2)
H52_3 H 0.6307 0.9065 0.8040
C55_3 C 0.6413(2) 0.9845(4) 0.9153(2)
H55_3 H 0.6206 0.9269 0.9150
C56_3 C 0.5282(2) 0.8843(4) 0.7630(2)
H56_3 H 0.5470 0.8203 0.7720
C32_3 C 0.88162(17) 0.0098(3) 0.4455(2)
H32_3 H 0.8734 0.0662 0.4663
H33_3 H 0.8656 0.0293 0.4019
C33_3 C 0.94295(16) 0.0018(3) 0.4739(2)
C35_3 C 0.96695(17) 0.0332(3) 0.4390(2)
H35_3 H 0.9449 0.0551 0.3978
C38_4 C 0.6413(2) 0.0155(4) 0.4153(2)
H38_4 H 0.6206 0.0731 0.4150
C39_4 C 0.6180(2) 0.0217(6) 0.3030(2)
H40_4 H 0.6307 0.0935 0.3040
C41_4 C 0.5568(2) 0.0220(4) 0.2755(2)
C42_4 C 0.5282(2) 0.1157(4) 0.2630(2)
H42_4 H 0.5470 0.1797 0.2720
C51_4 C 0.4432(2) 0.0220(4) 0.2245(2)
C52_4 C 0.3820(2) 0.0217(6) 0.1970(2)
H52_4 H 0.3693 0.0935 0.1960
C55_4 C 0.3587(2) 0.0155(4) 0.0847(2)
H55_4 H 0.3794 0.0731 0.0850
C56_4 C 0.4718(2) 0.1157(4) 0.2370(2)
H56_4 H 0.4530 0.1797 0.2280
C32_4 C 0.11838(17) 0.0098(3) 0.0545(2)
H32_4 H 0.1266 0.0662 0.0337
H33_4 H 0.1344 0.0293 0.0981
C33_4 C 0.05705(16) 0.0018(3) 0.0261(2)
C35_4 C 0.03305(17) 0.0332(3) 0.0610(2)
H35_4 H 0.0551 0.0551 0.1022
O5 O 0.2074(4) 0.0747(6) 0.2600(4)
O6 O 0.2223(2) 0.2578(6) 0.2707(3)
O7 O 0.14028(19) 0.1853(6) 0.1900(2)
O8 O 0.15771(16) 0.1822(4) 0.29326(18)
S1 S 0.18157(6) 0.18044(16) 0.25277(7)
O5_2 O 0.7074(4) 0.5747(6) 0.2600(4)
O6_2 O 0.7223(2) 0.7578(6) 0.2707(3)
O7_2 O 0.64028(19) 0.6853(6) 0.1900(2)
O8_2 O 0.65771(16) 0.6822(4) 0.29326(18)
S1_2 S 0.68157(6) 0.68044(16) 0.25277(7)
O5_3 O 0.7926(4) 0.0747(6) 0.2400(4)
O6_3 O 0.7777(2) 0.2578(6) 0.2293(3)
O7_3 O 0.85972(19) 0.1853(6) 0.3100(2)
O8_3 O 0.84229(16) 0.1822(4) 0.20674(18)
S1_3 S 0.81843(6) 0.18044(16) 0.24723(7)
O5_4 O 0.2926(4) 0.5747(6) 0.2400(4)
O6_4 O 0.2777(2) 0.7578(6) 0.2293(3)
O7_4 O 0.35972(19) 0.6853(6) 0.3100(2)
O8_4 O 0.34229(16) 0.6822(4) 0.20674(18)
S1_4 S 0.31843(6) 0.68044(16) 0.24723(7)
O5_5 O 0.7926(4) 0.9253(6) 0.7400(4)
O6_5 O 0.7777(2) 0.7422(6) 0.7293(3)
O7_5 O 0.85972(19) 0.8147(6) 0.8100(2)
O8_5 O 0.84229(16) 0.8178(4) 0.70674(18)
S1_5 S 0.81843(6) 0.81956(16) 0.74723(7)
O5_6 O 0.2926(4) 0.4253(6) 0.7400(4)
O6_6 O 0.2777(2) 0.2422(6) 0.7293(3)
O7_6 O 0.35972(19) 0.3147(6) 0.8100(2)
O8_6 O 0.34229(16) 0.3178(4) 0.70674(18)
S1_6 S 0.31843(6) 0.31956(16) 0.74723(7)
O5_7 O 0.2074(4) 0.9253(6) 0.7600(4)
O6_7 O 0.2223(2) 0.7422(6) 0.7707(3)
O7_7 O 0.14028(19) 0.8147(6) 0.6900(2)
O8_7 O 0.15771(16) 0.8178(4) 0.79326(18)
S1_7 S 0.18157(6) 0.81956(16) 0.75277(7)
O5_8 O 0.7074(4) 0.4253(6) 0.7600(4)
O6_8 O 0.7223(2) 0.2422(6) 0.7707(3)
O7_8 O 0.64028(19) 0.3147(6) 0.6900(2)
O8_8 O 0.65771(16) 0.3178(4) 0.79326(18)
S1_8 S 0.68157(6) 0.31956(16) 0.75277(7)
loop_
_geom_bond_atom_site_label_1
_geom_bond_atom_site_label_2
_geom_bond_site_symmetry_1
_geom_bond_site_symmetry_2
C1 H1 1_555 1_555
C2 C1 1_555 1_555
H2 C2 1_555 1_555
H7 C7 1_555 1_555
C8 C7 1_555 1_555
H8 C8 1_555 1_555
C9 H9 1_555 1_555
C11 C9 1_555 1_555
H11 C11 1_555 1_555
H13 C12 1_555 1_555
C13 C8 1_555 1_555
N1 C1 1_555 1_555
N2 C2 1_555 1_555
N3 C9 1_555 1_555
O1 Co2 1_555 1_555
Co2 N1 1_555 1_555
C17 H17 1_555 1_555
H19 C18 1_555 1_555
C19 H20 1_555 1_555
C20 C18 1_555 1_555
C24 H24 1_555 1_555
C28 C19 1_555 1_555
H28 C28 1_555 1_555
C11 N4 1_555 1_555
C12 C13 1_555 1_555
C12 N4 1_555 1_555
C19 C20 1_555 1_555
O1 H57 1_555 1_555
O1 H59 1_555 1_555
C3 H3 1_555 1_555
H5 C4 1_555 1_555
C5 H6 1_555 1_555
C6 C4 1_555 1_555
C10 H10 1_555 1_555
C14 C5 1_555 1_555
H14 C14 1_555 1_555
C15 H15 1_555 1_555
C16 C15 1_555 1_555
H16 C16 1_555 1_555
H21 C21 1_555 1_555
C22 C21 1_555 1_555
C23 H23 1_555 1_555
C25 C23 1_555 1_555
H25 C25 1_555 1_555
H27 C26 1_555 1_555
C27 C22 1_555 1_555
N5 Co2_2 1_555 1_555
N6 C16 1_555 1_555
N7 C23 1_555 1_555
O2 Co2_2 1_555 1_555
C5 C6 1_555 1_555
C15 N5 1_555 1_555
C25 N8 1_555 1_555
C26 C27 1_555 1_555
C26 N8 1_555 1_555
O2 H59_2 1_555 1_555
O2 H57_2 1_555 1_555
H8_2 C8_2 1_555 1_555
C9_2 H9_2 1_555 1_555
C10_2 H10_2 1_555 1_555
C11_2 C9_2 1_555 1_555
H11_2 C11_2 1_555 1_555
C12_2 H12_2 1_555 1_555
H13_2 C12_2 1_555 1_555
C13_2 C8_2 1_555 1_555
H14_2 C14_2 1_555 1_555
N3_2 C9_2 1_555 1_555
N4_2 C10_2 1_555 1_555
C23_2 H23_2 1_555 1_555
C24_2 H24_2 1_555 1_555
C25_2 C23_2 1_555 1_555
H25_2 C25_2 1_555 1_555
C26_2 H26_2 1_555 1_555
H27_2 C26_2 1_555 1_555
C27_2 C22_2 1_555 1_555
H28_2 C28_2 1_555 1_555
N7_2 C23_2 1_555 1_555
N8_2 C24_2 1_555 1_555
Co2_3 N3_2 1_555 1_555
C10_2 N3_2 1_555 1_555
C11_2 N4_2 1_555 1_555
C12_2 C13_2 1_555 1_555
C12_2 N4_2 1_555 1_555
C13_2 C14_2 1_555 1_555
C24_2 N7_2 1_555 1_555
C25_2 N8_2 1_555 1_555
C26_2 C27_2 1_555 1_555
C26_2 N8_2 1_555 1_555
C27_2 C28_2 1_555 1_555
N7_2 Co2_3 1_555 1_555
C1_2 H1_2 1_555 1_555
C2_2 C1_2 1_555 1_555
H2_2 C2_2 1_555 1_555
C3_2 H3_2 1_555 1_555
C4_2 H4_2 1_555 1_555
H5_2 C4_2 1_555 1_555
C5_2 H6_2 1_555 1_555
C6_2 C4_2 1_555 1_555
C7_2 C6_2 1_555 1_555
H7_2 C7_2 1_555 1_555
N1_2 C1_2 1_555 1_555
N2_2 C2_2 1_555 1_555
O1_2 Co2_3 1_555 1_555
Co2_3 N1_2 1_555 1_555
C15_2 H15_2 1_555 1_555
C16_2 C15_2 1_555 1_555
H16_2 C16_2 1_555 1_555
C17_2 H17_2 1_555 1_555
C18_2 H18_2 1_555 1_555
H19_2 C18_2 1_555 1_555
C19_2 H20_2 1_555 1_555
C20_2 C18_2 1_555 1_555
C21_2 C20_2 1_555 1_555
H21_2 C21_2 1_555 1_555
N5_2 Co2_3 1_555 1_555
N6_2 C16_2 1_555 1_555
O2_2 Co2_3 1_555 1_555
C3_2 N1_2 1_555 1_555
C3_2 N2_2 1_555 1_555
C4_2 N2_2 1_555 1_555
C5_2 C6_2 1_555 1_555
C15_2 N5_2 1_555 1_555
C17_2 N5_2 1_555 1_555
C17_2 N6_2 1_555 1_555
C18_2 N6_2 1_555 1_555
C19_2 C20_2 1_555 1_555
C3_3 H3_3 1_555 1_555
H5_3 C4_3 1_555 1_555
C5_3 H6_3 1_555 1_555
C6_3 C4_3 1_555 1_555
C10_3 H10_3 1_555 1_555
C14_3 C5_3 1_555 1_555
H14_3 C14_3 1_555 1_555
C15_3 H15_3 1_555 1_555
C16_3 C15_3 1_555 1_555
H16_3 C16_3 1_555 1_555
H21_3 C21_3 1_555 1_555
C22_3 C21_3 1_555 1_555
C23_3 H23_3 1_555 1_555
C25_3 C23_3 1_555 1_555
H25_3 C25_3 1_555 1_555
H27_3 C26_3 1_555 1_555
C27_3 C22_3 1_555 1_555
N5_3 Co1 1_555 1_555
N6_3 C16_3 1_555 1_555
N10 C23_3 1_555 1_555
O2_3 Co1 1_555 1_555
C5_3 C6_3 1_555 1_555
C15_3 N5_3 1_555 1_555
C25_3 N8_3 1_555 1_555
C26_3 C27_3 1_555 1_555
C26_3 N8_3 1_555 1_555
O2_3 H59_3 1_555 1_555
O2_3 H57_3 1_555 1_555
C1_3 H1_3 1_555 1_555
C2_3 C1_3 1_555 1_555
H2_3 C2_3 1_555 1_555
H7_3 C7_3 1_555 1_555
C8_3 C7_3 1_555 1_555
H8_3 C8_3 1_555 1_555
C9_3 H9_3 1_555 1_555
C11_3 C9_3 1_555 1_555
H11_3 C11_3 1_555 1_555
H13_3 C12_3 1_555 1_555
C13_3 C8_3 1_555 1_555
N1_3 C1_3 1_555 1_555
N2_3 C2_3 1_555 1_555
N9 C9_3 1_555 1_555
O1_3 Co1_2 1_555 1_555
Co1_2 N1_3 1_555 1_555
C17_3 H17_3 1_555 1_555
H19_3 C18_3 1_555 1_555
C19_3 H20_3 1_555 1_555
C20_3 C18_3 1_555 1_555
C24_3 H24_3 1_555 1_555
C28_3 C19_3 1_555 1_555
H28_3 C28_3 1_555 1_555
C11_3 N4_3 1_555 1_555
C12_3 C13_3 1_555 1_555
C12_3 N4_3 1_555 1_555
C19_3 C20_3 1_555 1_555
O1_3 H57_4 1_555 1_555
O1_3 H59_4 1_555 1_555
C1_4 H1_4 1_555 1_555
C2_4 C1_4 1_555 1_555
H2_4 C2_4 1_555 1_555
C3_4 H3_4 1_555 1_555
C4_4 H4_4 1_555 1_555
H5_4 C4_4 1_555 1_555
C5_4 H6_4 1_555 1_555
C6_4 C4_4 1_555 1_555
C7_4 C6_4 1_555 1_555
H7_4 C7_4 1_555 1_555
N1_4 C1_4 1_555 1_555
N2_4 C2_4 1_555 1_555
O1_4 Co1_3 1_555 1_555
Co1_3 N1_4 1_555 1_555
C15_4 H15_4 1_555 1_555
C16_4 C15_4 1_555 1_555
H16_4 C16_4 1_555 1_555
C17_4 H17_4 1_555 1_555
C18_4 H18_4 1_555 1_555
H19_4 C18_4 1_555 1_555
C19_4 H20_4 1_555 1_555
C20_4 C18_4 1_555 1_555
C21_4 C20_4 1_555 1_555
H21_4 C21_4 1_555 1_555
N5_4 Co1_3 1_555 1_555
N6_4 C16_4 1_555 1_555
O2_4 Co1_3 1_555 1_555
N9_2 Co1_3 1_555 1_555
N10_2 Co1_3 1_555 1_555
C3_4 N1_4 1_555 1_555
C3_4 N2_4 1_555 1_555
C4_4 N2_4 1_555 1_555
C5_4 C6_4 1_555 1_555
C15_4 N5_4 1_555 1_555
C17_4 N5_4 1_555 1_555
C17_4 N6_4 1_555 1_555
C18_4 N6_4 1_555 1_555
C19_4 C20_4 1_555 1_555
H8_4 C8_4 1_555 1_555
C9_4 H9_4 1_555 1_555
C10_4 H10_4 1_555 1_555
C11_4 C9_4 1_555 1_555
H11_4 C11_4 1_555 1_555
C12_4 H12_4 1_555 1_555
H13_4 C12_4 1_555 1_555
C13_4 C8_4 1_555 1_555
H14_4 C14_4 1_555 1_555
N9_2 C9_4 1_555 1_555
N4_4 C10_4 1_555 1_555
C23_4 H23_4 1_555 1_555
C24_4 H24_4 1_555 1_555
C25_4 C23_4 1_555 1_555
H25_4 C25_4 1_555 1_555
C26_4 H26_4 1_555 1_555
H27_4 C26_4 1_555 1_555
C27_4 C22_4 1_555 1_555
H28_4 C28_4 1_555 1_555
N10_2 C23_4 1_555 1_555
N8_4 C24_4 1_555 1_555
C10_4 N9_2 1_555 1_555
C11_4 N4_4 1_555 1_555
C12_4 C13_4 1_555 1_555
C12_4 N4_4 1_555 1_555
C13_4 C14_4 1_555 1_555
C24_4 N10_2 1_555 1_555
C25_4 N8_4 1_555 1_555
C26_4 C27_4 1_555 1_555
C26_4 N8_4 1_555 1_555
C27_4 C28_4 1_555 1_555
C29 H29 1_555 1_555
C30 H30 1_555 1_555
C31 C30 1_555 1_555
H31 C31 1_555 1_555
C32 H32 1_555 1_555
H33 C32 1_555 1_555
C33 C32 1_555 1_555
C34 C33 1_555 1_555
H34 C34 1_555 1_555
C35 C33 1_555 1_555
H35 C35 1_555 1_555
C36 H36 1_555 1_555
C37 H37 1_555 1_555
C38 C36 1_555 1_555
H38 C38 1_555 1_555
C39 H39 1_555 1_555
H40 C39 1_555 1_555
C40 H41 1_555 1_555
C41 C39 1_555 1_555
C42 C41 1_555 1_555
H42 C42 1_555 1_555
N11 C29 1_555 1_555
N12 C29 1_555 1_555
N13 C36 1_555 1_555
N14 C37 1_555 1_555
O3 Co3 1_555 1_555
Co3 N11 1_555 1_555
C43 C34 1_555 1_555
C44 C43 1_555 1_555
C45 C44 1_555 1_555
H43 C45 1_555 1_555
H44 C45 1_555 1_555
N15 C45 1_555 1_555
C46 N15 1_555 1_555
H45 C46 1_555 1_555
N16 C46 1_555 1_555
C47 N16 1_555 1_555
H46 C47 1_555 1_555
C48 N15 1_555 1_555
H47 C48 1_555 1_555
C49 C35 1_555 1_555
H48 C49 1_555 1_555
H49 C43 1_555 1_555
O4 Co3 1_555 1_555
N19 Co3 1_555 1_555
N20 Co3 1_555 1_555
Co4 N16 1_555 1_555
C30 N11 1_555 1_555
C31 N12 1_555 1_555
C32 N12 1_555 1_555
C37 N13 1_555 1_555
C38 N14 1_555 1_555
C39 N14 1_555 1_555
C40 C41 1_555 1_555
N13 Co3 1_555 1_555
C44 C49 1_555 1_555
C47 C48 1_555 1_555
H50 C50 1_555 1_555
C51 C50 1_555 1_555
C52 C51 1_555 1_555
H51 C52 1_555 1_555
H52 C52 1_555 1_555
N17 C52 1_555 1_555
C53 N17 1_555 1_555
H53 C53 1_555 1_555
N18 C53 1_555 1_555
C54 N18 1_555 1_555
C55 N17 1_555 1_555
H55 C55 1_555 1_555
H56 C56 1_555 1_555
Co5 N18 1_555 1_555
C51 C56 1_555 1_555
C54 C55 1_555 1_555
C46_2 N15_2 1_555 1_555
H45_2 C46_2 1_555 1_555
N19 C46_2 1_555 1_555
C47_2 N19 1_555 1_555
H46_2 C47_2 1_555 1_555
C48_2 N15_2 1_555 1_555
H47_2 C48_2 1_555 1_555
H48_2 C49_2 1_555 1_555
C47_2 C48_2 1_555 1_555
C29_2 H29_2 1_555 1_555
C30_2 H30_2 1_555 1_555
C31_2 C30_2 1_555 1_555
H31_2 C31_2 1_555 1_555
H34_2 C34_2 1_555 1_555
C36_2 H36_2 1_555 1_555
C37_2 H37_2 1_555 1_555
C40_2 H41_2 1_555 1_555
N11_2 C29_2 1_555 1_555
N12_2 C29_2 1_555 1_555
N13_2 C36_2 1_555 1_555
N14_2 C37_2 1_555 1_555
O3_2 Co4 1_555 1_555
Co4 N11_2 1_555 1_555
C50_2 C40_2 1_555 1_555
H50_2 C50_2 1_555 1_555
C53_2 N17_2 1_555 1_555
H53_2 C53_2 1_555 1_555
N18_2 C53_2 1_555 1_555
C54_2 N18_2 1_555 1_555
O4_2 Co4 1_555 1_555
N20_2 Co4 1_555 1_555
Co5_3 N18_2 1_555 1_555
C30_2 N11_2 1_555 1_555
C31_2 N12_2 1_555 1_555
C37_2 N13_2 1_555 1_555
N13_2 Co4 1_555 1_555
C30_3 H30_3 1_555 1_555
C31_3 C30_3 1_555 1_555
H31_3 C31_3 1_555 1_555
C32_2 H32_2 1_555 1_555
H33_2 C32_2 1_555 1_555
C33_2 C32_2 1_555 1_555
C35_2 C33_2 1_555 1_555
H35_2 C35_2 1_555 1_555
N11_3 C29_3 1_555 1_555
N12_3 C29_3 1_555 1_555
Co5 N11_3 1_555 1_555
C49_3 C35_2 1_555 1_555
H48_3 C49_3 1_555 1_555
O4_3 Co5 1_555 1_555
C30_3 N11_3 1_555 1_555
C31_3 N12_3 1_555 1_555
C32_2 N12_3 1_555 1_555
H34_3 C34_3 1_555 1_555
O3_3 Co5_2 1_555 1_555
C43_2 C34_3 1_555 1_555
C44_2 C43_2 1_555 1_555
C45_2 C44_2 1_555 1_555
H43_2 C45_2 1_555 1_555
H44_2 C45_2 1_555 1_555
N15_3 C45_2 1_555 1_555
C46_3 N15_3 1_555 1_555
N16_2 C46_3 1_555 1_555
C47_3 N16_2 1_555 1_555
H46_3 C47_3 1_555 1_555
C48_3 N15_3 1_555 1_555
H47_3 C48_3 1_555 1_555
H49_2 C43_2 1_555 1_555
N19_2 Co5_2 1_555 1_555
N20_3 Co5_2 1_555 1_555
Co5_4 N16_2 1_555 1_555
C47_3 C48_3 1_555 1_555
C30_4 H30_4 1_555 1_555
C31_4 C30_4 1_555 1_555
H31_4 C31_4 1_555 1_555
N11_4 C29_4 1_555 1_555
N12_4 C29_4 1_555 1_555
Co5_3 N11_4 1_555 1_555
O4_4 Co5_3 1_555 1_555
C30_4 N11_4 1_555 1_555
C31_4 N12_4 1_555 1_555
H34_4 C34_4 1_555 1_555
O3_4 Co5_4 1_555 1_555
N20_4 Co5_4 1_555 1_555
H48_4 C49_4 1_555 1_555
C46_4 N15_4 1_555 1_555
N19_2 C46_4 1_555 1_555
C47_4 N19_2 1_555 1_555
H46_4 C47_4 1_555 1_555
C48_4 N15_4 1_555 1_555
H47_4 C48_4 1_555 1_555
C47_4 C48_4 1_555 1_555
H50_3 C50_3 1_555 1_555
C51_2 C50_3 1_555 1_555
C52_2 C51_2 1_555 1_555
H51_3 C52_2 1_555 1_555
H52_2 C52_2 1_555 1_555
N17_3 C52_2 1_555 1_555
C53_3 N17_3 1_555 1_555
H53_3 C53_3 1_555 1_555
N20_4 C53_3 1_555 1_555
C54_3 N20_4 1_555 1_555
C55_2 N17_3 1_555 1_555
H55_2 C55_2 1_555 1_555
H56_2 C56_2 1_555 1_555
C51_2 C56_2 1_555 1_555
C54_3 C55_2 1_555 1_555
C36_3 H36_3 1_555 1_555
C37_3 H37_3 1_555 1_555
C38_2 C36_3 1_555 1_555
H38_2 C38_2 1_555 1_555
C39_2 H39_3 1_555 1_555
H40_2 C39_2 1_555 1_555
C40_3 H41_3 1_555 1_555
C41_2 C39_2 1_555 1_555
C42_2 C41_2 1_555 1_555
H42_2 C42_2 1_555 1_555
N20_2 C36_3 1_555 1_555
N14_3 C37_3 1_555 1_555
C37_3 N20_2 1_555 1_555
C38_2 N14_3 1_555 1_555
C39_2 N14_3 1_555 1_555
C40_3 C41_2 1_555 1_555
C36_4 H36_4 1_555 1_555
C37_4 H37_4 1_555 1_555
C40_4 H41_4 1_555 1_555
N20 C36_4 1_555 1_555
N14_4 C37_4 1_555 1_555
C50_4 C40_4 1_555 1_555
H50_4 C50_4 1_555 1_555
C53_4 N17_4 1_555 1_555
H53_4 C53_4 1_555 1_555
N20_3 C53_4 1_555 1_555
C54_4 N20_3 1_555 1_555
C37_4 N20 1_555 1_555
C44_3 C43_3 1_555 1_555
C45_3 C44_3 1_555 1_555
H43_3 C45_3 1_555 1_555
H44_3 C45_3 1_555 1_555
H49_3 C43_3 1_555 1_555
C44_4 C43_4 1_555 1_555
C45_4 C44_4 1_555 1_555
H43_4 C45_4 1_555 1_555
H44_4 C45_4 1_555 1_555
H49_4 C43_4 1_555 1_555
H38_3 C38_3 1_555 1_555
H40_3 C39_3 1_555 1_555
C41_3 C39_3 1_555 1_555
C42_3 C41_3 1_555 1_555
H42_3 C42_3 1_555 1_555
C52_3 C51_3 1_555 1_555
H52_3 C52_3 1_555 1_555
H55_3 C55_3 1_555 1_555
C56_3 C42_3 1_555 1_555
H56_3 C56_3 1_555 1_555
C51_3 C56_3 1_555 1_555
C32_3 H32_3 1_555 1_555
H33_3 C32_3 1_555 1_555
C33_3 C32_3 1_555 1_555
C35_3 C33_3 1_555 1_555
H35_3 C35_3 1_555 1_555
H38_4 C38_4 1_555 1_555
H40_4 C39_4 1_555 1_555
C41_4 C39_4 1_555 1_555
C42_4 C41_4 1_555 1_555
H42_4 C42_4 1_555 1_555
C52_4 C51_4 1_555 1_555
H52_4 C52_4 1_555 1_555
H55_4 C55_4 1_555 1_555
C56_4 C42_4 1_555 1_555
H56_4 C56_4 1_555 1_555
C51_4 C56_4 1_555 1_555
C32_4 H32_4 1_555 1_555
H33_4 C32_4 1_555 1_555
C33_4 C32_4 1_555 1_555
C35_4 C33_4 1_555 1_555
H35_4 C35_4 1_555 1_555
O5 S1 1_555 1_555
O6 S1 1_555 1_555
O7 S1 1_555 1_555
O8 S1 1_555 1_555
O5_2 S1_2 1_555 1_555
O6_2 S1_2 1_555 1_555
O7_2 S1_2 1_555 1_555
O8_2 S1_2 1_555 1_555
O5_3 S1_3 1_555 1_555
O6_3 S1_3 1_555 1_555
O7_3 S1_3 1_555 1_555
O8_3 S1_3 1_555 1_555
O5_4 S1_4 1_555 1_555
O6_4 S1_4 1_555 1_555
O7_4 S1_4 1_555 1_555
O8_4 S1_4 1_555 1_555
O5_5 S1_5 1_555 1_555
O6_5 S1_5 1_555 1_555
O7_5 S1_5 1_555 1_555
O8_5 S1_5 1_555 1_555
O5_6 S1_6 1_555 1_555
O6_6 S1_6 1_555 1_555
O7_6 S1_6 1_555 1_555
O8_6 S1_6 1_555 1_555
O5_7 S1_7 1_555 1_555
O6_7 S1_7 1_555 1_555
O7_7 S1_7 1_555 1_555
O8_7 S1_7 1_555 1_555
O5_8 S1_8 1_555 1_555
O6_8 S1_8 1_555 1_555
O7_8 S1_8 1_555 1_555
O8_8 S1_8 1_555 1_555

#END
