
###############################################################################
#
# This file contains modified crystal structure data generated from the
# MOF subset of the Cambridge Structural Database (CSD) v543 
# hosted by the Cambridge Crystallographic Data Centre (CCDC).
#
# This work is licensed under the Creative Commons
# Attribution-NonCommercial-ShareAlike 4.0 International License.
# To view a copy of this license, visit
# http://creativecommons.org/licenses/by-nc-sa/4.0/
# or send a letter to
# Creative Commons, PO Box 1866, Mountain View, CA 94042, USA.
#
# CIF created using the CSD Python API on 29 September 2022
# The structure has been converted into the P1 space group
# The structure has a 3D framework
# The original CSD entry ATEYOP is in the orthorhombic crystal system
# The framework has been calculated to contain at least 10.0% void space
# The void calculation uses a probe of radius 1.32A, grid spacing 0.4
# The framework is charged, counterions have been retained in the structure
#
###############################################################################

data_ATEYOP
_chemical_formula_moiety         '(C640 H464 Gd28 O182 2+)n'
_symmetry_cell_setting           triclinic
_symmetry_space_group_name_H-M   'P 1'
_symmetry_Int_Tables_number      1
_space_group_name_Hall           'P 1'
loop_
_symmetry_equiv_pos_site_id
_symmetry_equiv_pos_as_xyz
1 x,y,z
_cell_length_a                   17.0192(2)
_cell_length_b                   57.8205(7)
_cell_length_c                   32.3846(3)
_cell_angle_alpha                90
_cell_angle_beta                 90
_cell_angle_gamma                90
_cell_volume                     31868.3
loop_
_atom_site_label
_atom_site_type_symbol
_atom_site_fract_x
_atom_site_fract_y
_atom_site_fract_z
Gd1 Gd 0.0000 0.099522(9) 0.7500
O1 O 0.0042(3) 0.13001(8) 0.70492(12)
O3 O 0.1964(4) 0.13789(10) 0.33364(19)
O4 O 0.2322(4) 0.17022(9) 0.30871(15)
O5 O 0.1147(4) 0.09485(11) 0.71863(14)
O6 O 0.2100(5) 0.11795(15) 0.7054(2)
O7 O 0.3242(4) 0.10700(11) 0.30910(15)
O8 O 0.4316(3) 0.08646(8) 0.30702(13)
O9 O 0.0000 0.05697(14) 0.7500
H1 H 0.0419 0.0520 0.7388
C1 C 0.0106(4) 0.23761(9) 0.51359(15)
C3 C 0.0177(4) 0.20094(9) 0.55021(15)
C4 C 0.0516(4) 0.19083(10) 0.51682(16)
H9 H 0.0667 0.1754 0.5179
C5 C 0.0639(4) 0.20400(11) 0.47970(16)
C6 C 0.0440(4) 0.22737(9) 0.47997(15)
H10 H 0.0537 0.2362 0.4566
C7 C 0.0012(4) 0.18696(10) 0.58821(17)
C11 C 0.0397(5) 0.15695(11) 0.6366(2)
H13 H 0.0757 0.1459 0.6453
C12 C 0.0544(5) 0.16981(12) 0.60154(19)
H14 H 0.1000 0.1671 0.5865
C14 C 0.1003(4) 0.19250(11) 0.44284(18)
C15 C 0.0951(6) 0.16965(14) 0.4363(2)
H15 H 0.0684 0.1606 0.4554
C16 C 0.1290(6) 0.15892(13) 0.4012(2)
H16 H 0.1241 0.1430 0.3976
C17 C 0.1664(4) 0.17097(13) 0.37415(18)
C18 C 0.1685(6) 0.19347(14) 0.3797(2)
H17 H 0.1931 0.2025 0.3598
C19 C 0.1364(6) 0.20412(12) 0.4132(2)
H18 H 0.1400 0.2201 0.4153
C20 C 0.2028(5) 0.15949(15) 0.3363(2)
C21 C 0.2512(4) 0.01308(10) 0.51348(15)
C22 C 0.2328(4) 0.02595(11) 0.54822(15)
H19 H 0.2188 0.0183 0.5724
C23 C 0.2348(4) 0.05007(11) 0.54796(17)
C24 C 0.2575(4) 0.06115(11) 0.51162(15)
H20 H 0.2597 0.0772 0.5109
C25 C 0.2767(4) 0.04870(11) 0.47652(16)
C26 C 0.2753(4) 0.02488(11) 0.47794(15)
H21 H 0.2907 0.0165 0.4548
C27 C 0.2157(5) 0.06349(12) 0.58579(17)
C28 C 0.2605(5) 0.08271(14) 0.5961(2)
H22 H 0.3019 0.0870 0.5790
C29 C 0.2453(5) 0.09538(15) 0.6304(2)
H23 H 0.2751 0.1084 0.6365
C30 C 0.1843(5) 0.08857(15) 0.6566(2)
C31 C 0.1411(5) 0.07047(15) 0.6465(2)
H24 H 0.0990 0.0664 0.6634
C32 C 0.1566(4) 0.05733(12) 0.61165(18)
H25 H 0.1265 0.0443 0.6060
C33 C 0.1699(7) 0.1019(2) 0.6971(2)
C34 C 0.3018(4) 0.06061(11) 0.43739(17)
C35 C 0.3639(5) 0.05189(11) 0.41456(17)
H26 H 0.3902 0.0387 0.4235
C36 C 0.3868(5) 0.06284(12) 0.37834(17)
H27 H 0.4295 0.0573 0.3634
C37 C 0.3461(4) 0.08210(11) 0.36435(17)
C38 C 0.2849(4) 0.09049(11) 0.38698(19)
H28 H 0.2574 0.1034 0.3777
C39 C 0.2628(4) 0.07987(11) 0.42429(18)
H29 H 0.2219 0.0859 0.4399
C40 C 0.3698(6) 0.09269(13) 0.3228(2)
O14 O 0.1079(3) 0.35140(8) 0.71427(15)
C42 C 0.0021(4) 0.27594(9) 0.54978(15)
H30 H 0.0239 0.2692 0.5732
C48 C 0.0663(5) 0.30990(11) 0.6117(2)
H33 H 0.1023 0.2986 0.6040
C49 C 0.0811(5) 0.32334(12) 0.6465(2)
H34 H 0.1273 0.3212 0.6615
C50 C 0.0281(4) 0.33953(10) 0.65872(19)
C53 C 0.0445(5) 0.35541(13) 0.6962(2)
Gd3 Gd 0.26830(2) 0.135759(6) 0.269423(10)
O21 O 0.2996(5) 0.16978(14) 0.22301(15)
H53 H 0.3484 0.1727 0.2246
H54 H 0.2877 0.1660 0.1984
O22 O 0.1527(4) 0.14988(15) 0.23143(19)
H55 H 0.1129 0.1420 0.2389
H56 H 0.1451 0.1641 0.2366
O23 O 0.1818(5) 0.10151(14) 0.2670(3)
H57 H 0.1874 0.0935 0.2888
H58 H 0.1355 0.1070 0.2661
Gd5 Gd 0.0000 0.400478(9) 0.7500
Gd7 Gd 0.5000 0.099522(9) 0.2500
Gd8 Gd 0.23170(2) 0.135759(6) 0.769423(10)
Gd10 Gd 0.23170(2) 0.364241(6) 0.730577(10)
O25 O 0.3921(3) 0.14860(8) 0.28573(15)
O30 O 0.2900(5) 0.11795(15) 0.2054(2)
O33 O 0.0684(3) 0.08646(8) 0.80702(13)
O17 O 0.3853(4) 0.90515(11) 0.71863(14)
O18 O 0.2900(5) 0.88205(15) 0.7054(2)
O19 O 0.1758(4) 0.89300(11) 0.30910(15)
O20 O 0.0684(3) 0.91354(8) 0.30702(13)
C61 C 0.2488(4) 0.98692(10) 0.51348(15)
C62 C 0.2672(4) 0.97405(11) 0.54822(15)
H41 H 0.2812 0.9817 0.5724
C63 C 0.2652(4) 0.94993(11) 0.54796(17)
C64 C 0.2425(4) 0.93885(11) 0.51162(15)
H42 H 0.2403 0.9228 0.5109
C65 C 0.2233(4) 0.95130(11) 0.47652(16)
C66 C 0.2247(4) 0.97512(11) 0.47794(15)
H43 H 0.2093 0.9835 0.4548
C67 C 0.2843(5) 0.93651(12) 0.58579(17)
C68 C 0.2395(5) 0.91729(14) 0.5961(2)
H44 H 0.1981 0.9130 0.5790
C69 C 0.2547(5) 0.90462(15) 0.6304(2)
H45 H 0.2249 0.8916 0.6365
C70 C 0.3157(5) 0.91143(15) 0.6566(2)
C71 C 0.3589(5) 0.92953(15) 0.6465(2)
H46 H 0.4010 0.9336 0.6634
C72 C 0.3434(4) 0.94267(12) 0.61165(18)
H47 H 0.3735 0.9557 0.6060
C73 C 0.3301(7) 0.8981(2) 0.6971(2)
C74 C 0.1982(4) 0.93939(11) 0.43739(17)
C75 C 0.1361(5) 0.94811(11) 0.41456(17)
H48 H 0.1098 0.9613 0.4235
C76 C 0.1132(5) 0.93716(12) 0.37834(17)
H49 H 0.0705 0.9427 0.3634
C77 C 0.1539(4) 0.91790(11) 0.36435(17)
C78 C 0.2151(4) 0.90951(11) 0.38698(19)
H50 H 0.2426 0.8966 0.3777
C79 C 0.2372(4) 0.92013(11) 0.42429(18)
H51 H 0.2781 0.9141 0.4399
C80 C 0.1302(6) 0.90731(13) 0.3228(2)
Gd4 Gd 0.5000 0.900478(9) 0.7500
Gd6 Gd 0.0000 0.900478(9) 0.2500
Gd9 Gd 0.26830(2) 0.864241(6) 0.769423(10)
Gd11 Gd 0.23170(2) 0.864241(6) 0.269423(10)
Gd1_2 Gd 1.0000 0.099522(9) 0.7500
Gd2 Gd 0.76830(2) 0.135759(6) 0.730577(10)
O2 O 0.8921(3) 0.14860(8) 0.71427(15)
O9_2 O 1.0000 0.05697(14) 0.7500
O10 O 0.7996(5) 0.16978(14) 0.77699(15)
H2 H 0.8484 0.1727 0.7754
H3 H 0.7877 0.1660 0.8016
O11 O 0.6527(4) 0.14988(15) 0.76857(19)
H4 H 0.6129 0.1420 0.7611
H5 H 0.6451 0.1641 0.7634
O12 O 0.6818(5) 0.10151(14) 0.7330(3)
H6 H 0.6874 0.0935 0.7112
H7 H 0.6355 0.1070 0.7339
C2 C 0.9979(4) 0.22406(9) 0.54978(15)
H8 H 0.9761 0.2308 0.5732
C8 C 0.9337(5) 0.19010(11) 0.6117(2)
H11 H 0.8977 0.2014 0.6040
C9 C 0.9189(5) 0.17666(12) 0.6465(2)
H12 H 0.8727 0.1788 0.6615
C10 C 0.9719(4) 0.16047(10) 0.65872(19)
C13 C 0.9555(5) 0.14459(13) 0.6962(2)
O13 O 0.9958(3) 0.36999(8) 0.70492(12)
O15 O 0.8036(4) 0.36211(10) 0.33364(19)
O16 O 0.7678(4) 0.32978(9) 0.30871(15)
C41 C 0.9894(4) 0.26239(9) 0.51359(15)
C43 C 0.9823(4) 0.29906(9) 0.55021(15)
C44 C 0.9484(4) 0.30917(10) 0.51682(16)
H31 H 0.9333 0.3246 0.5179
C45 C 0.9361(4) 0.29600(11) 0.47970(16)
C46 C 0.9560(4) 0.27263(9) 0.47997(15)
H32 H 0.9463 0.2638 0.4566
C47 C 0.9988(4) 0.31304(10) 0.58821(17)
C51 C 0.9603(5) 0.34305(11) 0.6366(2)
H35 H 0.9243 0.3541 0.6453
C52 C 0.9456(5) 0.33019(12) 0.60154(19)
H36 H 0.9000 0.3329 0.5865
C54 C 0.8997(4) 0.30750(11) 0.44284(18)
C55 C 0.9049(6) 0.33035(14) 0.4363(2)
H37 H 0.9316 0.3394 0.4554
C56 C 0.8710(6) 0.34108(13) 0.4012(2)
H38 H 0.8759 0.3570 0.3976
C57 C 0.8336(4) 0.32903(13) 0.37415(18)
C58 C 0.8315(6) 0.30653(14) 0.3797(2)
H39 H 0.8069 0.2975 0.3598
C59 C 0.8636(6) 0.29588(12) 0.4132(2)
H40 H 0.8600 0.2799 0.4153
C60 C 0.7972(5) 0.34051(15) 0.3363(2)
H52 H 0.9581 0.0520 0.7612
Gd5_2 Gd 1.0000 0.400478(9) 0.7500
Gd12 Gd 0.73170(2) 0.364241(6) 0.269423(10)
O24 O 0.9958(3) 0.13001(8) 0.79508(12)
O26 O 0.6964(4) 0.13789(10) 0.66636(19)
O27 O 0.7322(4) 0.17022(9) 0.69129(15)
O28 O 0.8853(4) 0.09485(11) 0.78137(14)
O29 O 0.7900(5) 0.11795(15) 0.7946(2)
O31 O 0.8242(4) 0.10700(11) 0.69090(15)
O32 O 0.9316(3) 0.08646(8) 0.69298(13)
Gd6_2 Gd 1.0000 0.900478(9) 0.2500
Gd2_2 Gd 0.73170(2) 0.864241(6) 0.730577(10)
O1_2 O 0.4958(3) 0.86999(8) 0.70492(12)
O2_2 O 0.6079(3) 0.85140(8) 0.71427(15)
O3_2 O 0.3036(4) 0.86211(10) 0.33364(19)
O4_2 O 0.2678(4) 0.82978(9) 0.30871(15)
O9_3 O 0.5000 0.94303(14) 0.7500
H1_2 H 0.4581 0.9480 0.7388
O10_2 O 0.7004(5) 0.83022(14) 0.77699(15)
H2_2 H 0.6516 0.8273 0.7754
H3_2 H 0.7123 0.8340 0.8016
O11_2 O 0.8473(4) 0.85012(15) 0.76857(19)
H4_2 H 0.8871 0.8580 0.7611
H5_2 H 0.8549 0.8359 0.7634
O12_2 O 0.8182(5) 0.89849(14) 0.7330(3)
H6_2 H 0.8126 0.9065 0.7112
H7_2 H 0.8645 0.8930 0.7339
C1_2 C 0.4894(4) 0.76239(9) 0.51359(15)
C2_2 C 0.5021(4) 0.77594(9) 0.54978(15)
H8_2 H 0.5239 0.7692 0.5732
C3_2 C 0.4823(4) 0.79906(9) 0.55021(15)
C4_2 C 0.4484(4) 0.80917(10) 0.51682(16)
H9_2 H 0.4333 0.8246 0.5179
C5_2 C 0.4361(4) 0.79600(11) 0.47970(16)
C6_2 C 0.4560(4) 0.77263(9) 0.47997(15)
H10_2 H 0.4463 0.7638 0.4566
C7_2 C 0.4988(4) 0.81304(10) 0.58821(17)
C8_2 C 0.5663(5) 0.80990(11) 0.6117(2)
H11_2 H 0.6023 0.7986 0.6040
C9_2 C 0.5811(5) 0.82334(12) 0.6465(2)
H12_2 H 0.6273 0.8212 0.6615
C10_2 C 0.5281(4) 0.83953(10) 0.65872(19)
C11_2 C 0.4603(5) 0.84305(11) 0.6366(2)
H13_2 H 0.4243 0.8541 0.6453
C12_2 C 0.4456(5) 0.83019(12) 0.60154(19)
H14_2 H 0.4000 0.8329 0.5865
C13_2 C 0.5445(5) 0.85541(13) 0.6962(2)
C14_2 C 0.3997(4) 0.80750(11) 0.44284(18)
C15_2 C 0.4049(6) 0.83035(14) 0.4363(2)
H15_2 H 0.4316 0.8394 0.4554
C16_2 C 0.3710(6) 0.84108(13) 0.4012(2)
H16_2 H 0.3759 0.8570 0.3976
C17_2 C 0.3336(4) 0.82903(13) 0.37415(18)
C18_2 C 0.3315(6) 0.80653(14) 0.3797(2)
H17_2 H 0.3069 0.7975 0.3598
C19_2 C 0.3636(6) 0.79588(12) 0.4132(2)
H18_2 H 0.3600 0.7799 0.4153
C20_2 C 0.2972(5) 0.84051(15) 0.3363(2)
O13_2 O 0.5042(3) 0.63001(8) 0.70492(12)
O14_2 O 0.3921(3) 0.64860(8) 0.71427(15)
O15_2 O 0.6964(4) 0.63789(10) 0.33364(19)
O16_2 O 0.7322(4) 0.67022(9) 0.30871(15)
C41_2 C 0.5106(4) 0.73761(9) 0.51359(15)
C42_2 C 0.4979(4) 0.72406(9) 0.54978(15)
H30_2 H 0.4761 0.7308 0.5732
C43_2 C 0.5177(4) 0.70094(9) 0.55021(15)
C44_2 C 0.5516(4) 0.69083(10) 0.51682(16)
H31_2 H 0.5667 0.6754 0.5179
C45_2 C 0.5639(4) 0.70400(11) 0.47970(16)
C46_2 C 0.5440(4) 0.72737(9) 0.47997(15)
H32_2 H 0.5537 0.7362 0.4566
C47_2 C 0.5012(4) 0.68696(10) 0.58821(17)
C48_2 C 0.4337(5) 0.69010(11) 0.6117(2)
H33_2 H 0.3977 0.7014 0.6040
C49_2 C 0.4189(5) 0.67666(12) 0.6465(2)
H34_2 H 0.3727 0.6788 0.6615
C50_2 C 0.4719(4) 0.66047(10) 0.65872(19)
C51_2 C 0.5397(5) 0.65695(11) 0.6366(2)
H35_2 H 0.5757 0.6459 0.6453
C52_2 C 0.5544(5) 0.66981(12) 0.60154(19)
H36_2 H 0.6000 0.6671 0.5865
C53_2 C 0.4555(5) 0.64459(13) 0.6962(2)
C54_2 C 0.6003(4) 0.69250(11) 0.44284(18)
C55_2 C 0.5951(6) 0.66965(14) 0.4363(2)
H37_2 H 0.5684 0.6606 0.4554
C56_2 C 0.6290(6) 0.65892(13) 0.4012(2)
H38_2 H 0.6241 0.6430 0.3976
C57_2 C 0.6664(4) 0.67097(13) 0.37415(18)
C58_2 C 0.6685(6) 0.69347(14) 0.3797(2)
H39_2 H 0.6931 0.7025 0.3598
C59_2 C 0.6364(6) 0.70412(12) 0.4132(2)
H40_2 H 0.6400 0.7201 0.4153
C60_2 C 0.7028(5) 0.65949(15) 0.3363(2)
H52_2 H 0.5419 0.9480 0.7612
O21_2 O 0.2004(5) 0.83022(14) 0.22301(15)
H53_2 H 0.1516 0.8273 0.2246
H54_2 H 0.2123 0.8340 0.1984
O22_2 O 0.3473(4) 0.85012(15) 0.23143(19)
H55_2 H 0.3871 0.8580 0.2389
H56_2 H 0.3549 0.8359 0.2366
O23_2 O 0.3182(5) 0.89849(14) 0.2670(3)
H57_2 H 0.3126 0.9065 0.2888
H58_2 H 0.3645 0.8930 0.2661
Gd5_3 Gd 0.5000 0.599522(9) 0.7500
Gd10_2 Gd 0.26830(2) 0.635759(6) 0.730577(10)
Gd12_2 Gd 0.76830(2) 0.635759(6) 0.269423(10)
O24_2 O 0.5042(3) 0.86999(8) 0.79508(12)
O25_2 O 0.1079(3) 0.85140(8) 0.28573(15)
O26_2 O 0.8036(4) 0.86211(10) 0.66636(19)
O27_2 O 0.7678(4) 0.82978(9) 0.69129(15)
O28_2 O 0.6147(4) 0.90515(11) 0.78137(14)
O29_2 O 0.7100(5) 0.88205(15) 0.7946(2)
O30_2 O 0.2100(5) 0.88205(15) 0.2054(2)
O31_2 O 0.6758(4) 0.89300(11) 0.69090(15)
O32_2 O 0.5684(3) 0.91354(8) 0.69298(13)
O33_2 O 0.4316(3) 0.91354(8) 0.80702(13)
O15_3 O 0.1964(4) 0.36211(10) 0.16636(19)
O16_3 O 0.2322(4) 0.32978(9) 0.19129(15)
C45_3 C 0.0639(4) 0.29600(11) 0.02030(16)
C46_3 C 0.0440(4) 0.27263(9) 0.02003(15)
H32_3 H 0.0537 0.2638 0.0434
C54_3 C 0.1003(4) 0.30750(11) 0.05716(18)
C55_3 C 0.0951(6) 0.33035(14) 0.0637(2)
H37_3 H 0.0684 0.3394 0.0446
C56_3 C 0.1290(6) 0.34108(13) 0.0988(2)
H38_3 H 0.1241 0.3570 0.1024
C57_3 C 0.1664(4) 0.32903(13) 0.12585(18)
C58_3 C 0.1685(6) 0.30653(14) 0.1203(2)
H39_3 H 0.1931 0.2975 0.1402
C59_3 C 0.1364(6) 0.29588(12) 0.0868(2)
H40_3 H 0.1400 0.2799 0.0847
C60_3 C 0.2028(5) 0.34051(15) 0.1637(2)
Gd12_3 Gd 0.26830(2) 0.364241(6) 0.230577(10)
O2_3 O 0.1079(3) 0.14860(8) 0.78573(15)
O10_3 O 0.2004(5) 0.16978(14) 0.72301(15)
H2_3 H 0.1516 0.1727 0.7246
H3_3 H 0.2123 0.1660 0.6984
O11_3 O 0.3473(4) 0.14988(15) 0.73143(19)
H4_3 H 0.3871 0.1420 0.7389
H5_3 H 0.3549 0.1641 0.7366
O12_3 O 0.3182(5) 0.10151(14) 0.7670(3)
H6_3 H 0.3126 0.0935 0.7888
H7_3 H 0.3645 0.1070 0.7661
C2_3 C 0.0021(4) 0.22406(9) 0.95022(15)
H8_3 H 0.0239 0.2308 0.9268
C8_3 C 0.0663(5) 0.19010(11) 0.8883(2)
H11_3 H 0.1023 0.2014 0.8960
C9_3 C 0.0811(5) 0.17666(12) 0.8535(2)
H12_3 H 0.1273 0.1788 0.8385
C10_3 C 0.0281(4) 0.16047(10) 0.84128(19)
C13_3 C 0.0445(5) 0.14459(13) 0.8038(2)
O13_3 O 0.0042(3) 0.36999(8) 0.79508(12)
C41_3 C 0.0106(4) 0.26239(9) 0.98641(15)
C43_3 C 0.0177(4) 0.29906(9) 0.94979(15)
C44_3 C 0.0516(4) 0.30917(10) 0.98318(16)
H31_3 H 0.0667 0.3246 0.9821
C47_3 C 0.0012(4) 0.31304(10) 0.91179(17)
C51_3 C 0.0397(5) 0.34305(11) 0.8634(2)
H35_3 H 0.0757 0.3541 0.8547
C52_3 C 0.0544(5) 0.33019(12) 0.89846(19)
H36_3 H 0.1000 0.3329 0.9135
O26_3 O 0.3036(4) 0.13789(10) 0.83364(19)
O27_3 O 0.2678(4) 0.17022(9) 0.80871(15)
O31_3 O 0.1758(4) 0.10700(11) 0.80910(15)
O3_3 O 0.8036(4) 0.13789(10) 0.16636(19)
O4_3 O 0.7678(4) 0.17022(9) 0.19129(15)
O7_2 O 0.6758(4) 0.10700(11) 0.19090(15)
O8_2 O 0.5684(3) 0.08646(8) 0.19298(13)
C5_3 C 0.9361(4) 0.20400(11) 0.02030(16)
C6_3 C 0.9560(4) 0.22737(9) 0.02003(15)
H10_3 H 0.9463 0.2362 0.0434
C14_3 C 0.8997(4) 0.19250(11) 0.05716(18)
C15_3 C 0.9049(6) 0.16965(14) 0.0637(2)
H15_3 H 0.9316 0.1606 0.0446
C16_3 C 0.8710(6) 0.15892(13) 0.0988(2)
H16_3 H 0.8759 0.1430 0.1024
C17_3 C 0.8336(4) 0.17097(13) 0.12585(18)
C18_3 C 0.8315(6) 0.19347(14) 0.1203(2)
H17_3 H 0.8069 0.2025 0.1402
C19_3 C 0.8636(6) 0.20412(12) 0.0868(2)
H18_3 H 0.8600 0.2201 0.0847
C20_3 C 0.7972(5) 0.15949(15) 0.1637(2)
C25_2 C 0.7233(4) 0.04870(11) 0.02348(16)
C26_2 C 0.7247(4) 0.02488(11) 0.02206(15)
H21_2 H 0.7093 0.0165 0.0452
C34_2 C 0.6982(4) 0.06061(11) 0.06261(17)
C35_2 C 0.6361(5) 0.05189(11) 0.08544(17)
H26_2 H 0.6098 0.0387 0.0765
C36_2 C 0.6132(5) 0.06284(12) 0.12166(17)
H27_2 H 0.5705 0.0573 0.1366
C37_2 C 0.6539(4) 0.08210(11) 0.13565(17)
C38_2 C 0.7151(4) 0.09049(11) 0.11302(19)
H28_2 H 0.7426 0.1034 0.1223
C39_2 C 0.7372(4) 0.07987(11) 0.07571(18)
H29_2 H 0.7781 0.0859 0.0601
C40_2 C 0.6302(6) 0.09269(13) 0.1772(2)
Gd3_2 Gd 0.73170(2) 0.135759(6) 0.230577(10)
O21_3 O 0.7004(5) 0.16978(14) 0.27699(15)
H53_3 H 0.6516 0.1727 0.2754
H54_3 H 0.7123 0.1660 0.3016
O22_3 O 0.8473(4) 0.14988(15) 0.26857(19)
H55_3 H 0.8871 0.1420 0.2611
H56_3 H 0.8549 0.1641 0.2634
O23_3 O 0.8182(5) 0.10151(14) 0.2330(3)
H57_3 H 0.8126 0.0935 0.2112
H58_3 H 0.8645 0.1070 0.2339
O25_3 O 0.6079(3) 0.14860(8) 0.21427(15)
O30_3 O 0.7100(5) 0.11795(15) 0.2946(2)
C1_3 C 0.9894(4) 0.23761(9) 0.98641(15)
C3_3 C 0.9823(4) 0.20094(9) 0.94979(15)
C4_3 C 0.9484(4) 0.19083(10) 0.98318(16)
H9_3 H 0.9333 0.1754 0.9821
C7_3 C 0.9988(4) 0.18696(10) 0.91179(17)
C11_3 C 0.9603(5) 0.15695(11) 0.8634(2)
H13_3 H 0.9243 0.1459 0.8547
C12_3 C 0.9456(5) 0.16981(12) 0.89846(19)
H14_3 H 0.9000 0.1671 0.9135
C21_2 C 0.7488(4) 0.01308(10) 0.98652(15)
C22_2 C 0.7672(4) 0.02595(11) 0.95178(15)
H19_2 H 0.7812 0.0183 0.9276
C23_2 C 0.7652(4) 0.05007(11) 0.95204(17)
C24_2 C 0.7425(4) 0.06115(11) 0.98838(15)
H20_2 H 0.7403 0.0772 0.9891
C27_2 C 0.7843(5) 0.06349(12) 0.91421(17)
C28_2 C 0.7395(5) 0.08271(14) 0.9039(2)
H22_2 H 0.6981 0.0870 0.9210
C29_2 C 0.7547(5) 0.09538(15) 0.8696(2)
H23_2 H 0.7249 0.1084 0.8635
C30_2 C 0.8157(5) 0.08857(15) 0.8434(2)
C31_2 C 0.8589(5) 0.07047(15) 0.8535(2)
H24_2 H 0.9010 0.0664 0.8366
C32_2 C 0.8434(4) 0.05733(12) 0.88835(18)
H25_2 H 0.8735 0.0443 0.8940
C33_2 C 0.8301(7) 0.1019(2) 0.8029(2)
O14_3 O 0.8921(3) 0.35140(8) 0.78573(15)
C42_3 C 0.9979(4) 0.27594(9) 0.95022(15)
H30_3 H 0.9761 0.2692 0.9268
C48_3 C 0.9337(5) 0.30990(11) 0.8883(2)
H33_3 H 0.8977 0.2986 0.8960
C49_3 C 0.9189(5) 0.32334(12) 0.8535(2)
H34_3 H 0.8727 0.3212 0.8385
C50_3 C 0.9719(4) 0.33953(10) 0.84128(19)
C53_3 C 0.9555(5) 0.35541(13) 0.8038(2)
Gd10_3 Gd 0.76830(2) 0.364241(6) 0.769423(10)
O19_2 O 0.8242(4) 0.89300(11) 0.19090(15)
O20_2 O 0.9316(3) 0.91354(8) 0.19298(13)
C65_2 C 0.7767(4) 0.95130(11) 0.02348(16)
C66_2 C 0.7753(4) 0.97512(11) 0.02206(15)
H43_2 H 0.7907 0.9835 0.0452
C74_2 C 0.8018(4) 0.93939(11) 0.06261(17)
C75_2 C 0.8639(5) 0.94811(11) 0.08544(17)
H48_2 H 0.8902 0.9613 0.0765
C76_2 C 0.8868(5) 0.93716(12) 0.12166(17)
H49_2 H 0.9295 0.9427 0.1366
C77_2 C 0.8461(4) 0.91790(11) 0.13565(17)
C78_2 C 0.7849(4) 0.90951(11) 0.11302(19)
H50_2 H 0.7574 0.8966 0.1223
C79_2 C 0.7628(4) 0.92013(11) 0.07571(18)
H51_2 H 0.7219 0.9141 0.0601
C80_2 C 0.8698(6) 0.90731(13) 0.1772(2)
Gd11_2 Gd 0.76830(2) 0.864241(6) 0.230577(10)
C61_2 C 0.7512(4) 0.98692(10) 0.98652(15)
C62_2 C 0.7328(4) 0.97405(11) 0.95178(15)
H41_2 H 0.7188 0.9817 0.9276
C63_2 C 0.7348(4) 0.94993(11) 0.95204(17)
C64_2 C 0.7575(4) 0.93885(11) 0.98838(15)
H42_2 H 0.7597 0.9228 0.9891
C67_2 C 0.7157(5) 0.93651(12) 0.91421(17)
C68_2 C 0.7605(5) 0.91729(14) 0.9039(2)
H44_2 H 0.8019 0.9130 0.9210
C69_2 C 0.7453(5) 0.90462(15) 0.8696(2)
H45_2 H 0.7751 0.8916 0.8635
C70_2 C 0.6843(5) 0.91143(15) 0.8434(2)
C71_2 C 0.6411(5) 0.92953(15) 0.8535(2)
H46_2 H 0.5990 0.9336 0.8366
C72_2 C 0.6566(4) 0.94267(12) 0.88835(18)
H47_2 H 0.6265 0.9557 0.8940
C73_2 C 0.6699(7) 0.8981(2) 0.8029(2)
O3_4 O 0.6964(4) 0.86211(10) 0.16636(19)
O4_4 O 0.7322(4) 0.82978(9) 0.19129(15)
C5_4 C 0.5639(4) 0.79600(11) 0.02030(16)
C6_4 C 0.5440(4) 0.77263(9) 0.02003(15)
H10_4 H 0.5537 0.7638 0.0434
C14_4 C 0.6003(4) 0.80750(11) 0.05716(18)
C15_4 C 0.5951(6) 0.83035(14) 0.0637(2)
H15_4 H 0.5684 0.8394 0.0446
C16_4 C 0.6290(6) 0.84108(13) 0.0988(2)
H16_4 H 0.6241 0.8570 0.1024
C17_4 C 0.6664(4) 0.82903(13) 0.12585(18)
C18_4 C 0.6685(6) 0.80653(14) 0.1203(2)
H17_4 H 0.6931 0.7975 0.1402
C19_4 C 0.6364(6) 0.79588(12) 0.0868(2)
H18_4 H 0.6400 0.7799 0.0847
C20_4 C 0.7028(5) 0.84051(15) 0.1637(2)
O15_4 O 0.3036(4) 0.63789(10) 0.16636(19)
O16_4 O 0.2678(4) 0.67022(9) 0.19129(15)
C45_4 C 0.4361(4) 0.70400(11) 0.02030(16)
C46_4 C 0.4560(4) 0.72737(9) 0.02003(15)
H32_4 H 0.4463 0.7362 0.0434
C54_4 C 0.3997(4) 0.69250(11) 0.05716(18)
C55_4 C 0.4049(6) 0.66965(14) 0.0637(2)
H37_4 H 0.4316 0.6606 0.0446
C56_4 C 0.3710(6) 0.65892(13) 0.0988(2)
H38_4 H 0.3759 0.6430 0.1024
C57_4 C 0.3336(4) 0.67097(13) 0.12585(18)
C58_4 C 0.3315(6) 0.69347(14) 0.1203(2)
H39_4 H 0.3069 0.7025 0.1402
C59_4 C 0.3636(6) 0.70412(12) 0.0868(2)
H40_4 H 0.3600 0.7201 0.0847
C60_4 C 0.2972(5) 0.65949(15) 0.1637(2)
O21_4 O 0.7996(5) 0.83022(14) 0.27699(15)
H53_4 H 0.8484 0.8273 0.2754
H54_4 H 0.7877 0.8340 0.3016
O22_4 O 0.6527(4) 0.85012(15) 0.26857(19)
H55_4 H 0.6129 0.8580 0.2611
H56_4 H 0.6451 0.8359 0.2634
O23_4 O 0.6818(5) 0.89849(14) 0.2330(3)
H57_4 H 0.6874 0.9065 0.2112
H58_4 H 0.6355 0.8930 0.2339
Gd12_4 Gd 0.23170(2) 0.635759(6) 0.230577(10)
O25_4 O 0.8921(3) 0.85140(8) 0.21427(15)
O30_4 O 0.7900(5) 0.88205(15) 0.2946(2)
O2_4 O 0.3921(3) 0.85140(8) 0.78573(15)
O10_4 O 0.2996(5) 0.83022(14) 0.72301(15)
H2_4 H 0.3484 0.8273 0.7246
H3_4 H 0.2877 0.8340 0.6984
O11_4 O 0.1527(4) 0.85012(15) 0.73143(19)
H4_4 H 0.1129 0.8580 0.7389
H5_4 H 0.1451 0.8359 0.7366
O12_4 O 0.1818(5) 0.89849(14) 0.7670(3)
H6_4 H 0.1874 0.9065 0.7888
H7_4 H 0.1355 0.8930 0.7661
C1_4 C 0.5106(4) 0.76239(9) 0.98641(15)
C2_4 C 0.4979(4) 0.77594(9) 0.95022(15)
H8_4 H 0.4761 0.7692 0.9268
C3_4 C 0.5177(4) 0.79906(9) 0.94979(15)
C4_4 C 0.5516(4) 0.80917(10) 0.98318(16)
H9_4 H 0.5667 0.8246 0.9821
C7_4 C 0.5012(4) 0.81304(10) 0.91179(17)
C8_4 C 0.4337(5) 0.80990(11) 0.8883(2)
H11_4 H 0.3977 0.7986 0.8960
C9_4 C 0.4189(5) 0.82334(12) 0.8535(2)
H12_4 H 0.3727 0.8212 0.8385
C10_4 C 0.4719(4) 0.83953(10) 0.84128(19)
C11_4 C 0.5397(5) 0.84305(11) 0.8634(2)
H13_4 H 0.5757 0.8541 0.8547
C12_4 C 0.5544(5) 0.83019(12) 0.89846(19)
H14_4 H 0.6000 0.8329 0.9135
C13_4 C 0.4555(5) 0.85541(13) 0.8038(2)
O13_4 O 0.4958(3) 0.63001(8) 0.79508(12)
O14_4 O 0.6079(3) 0.64860(8) 0.78573(15)
C41_4 C 0.4894(4) 0.73761(9) 0.98641(15)
C42_4 C 0.5021(4) 0.72406(9) 0.95022(15)
H30_4 H 0.5239 0.7308 0.9268
C43_4 C 0.4823(4) 0.70094(9) 0.94979(15)
C44_4 C 0.4484(4) 0.69083(10) 0.98318(16)
H31_4 H 0.4333 0.6754 0.9821
C47_4 C 0.4988(4) 0.68696(10) 0.91179(17)
C48_4 C 0.5663(5) 0.69010(11) 0.8883(2)
H33_4 H 0.6023 0.7014 0.8960
C49_4 C 0.5811(5) 0.67666(12) 0.8535(2)
H34_4 H 0.6273 0.6788 0.8385
C50_4 C 0.5281(4) 0.66047(10) 0.84128(19)
C51_4 C 0.4603(5) 0.65695(11) 0.8634(2)
H35_4 H 0.4243 0.6459 0.8547
C52_4 C 0.4456(5) 0.66981(12) 0.89846(19)
H36_4 H 0.4000 0.6671 0.9135
C53_4 C 0.5445(5) 0.64459(13) 0.8038(2)
Gd10_4 Gd 0.73170(2) 0.635759(6) 0.769423(10)
O26_4 O 0.1964(4) 0.86211(10) 0.83364(19)
O27_4 O 0.2322(4) 0.82978(9) 0.80871(15)
O31_4 O 0.3242(4) 0.89300(11) 0.80910(15)
Gd7_2 Gd -0.0000 0.599522(9) 0.2500
O5_2 O 0.6147(4) 0.59485(11) 0.71863(14)
O6_2 O 0.7100(5) 0.61795(15) 0.7054(2)
O7_3 O 0.8242(4) 0.60700(11) 0.30910(15)
O8_3 O 0.9316(3) 0.58646(8) 0.30702(13)
O9_4 O 0.5000 0.55697(14) 0.7500
H1_3 H 0.5419 0.5520 0.7388
O10_5 O 0.2996(5) 0.66978(14) 0.77699(15)
H2_5 H 0.3484 0.6727 0.7754
H3_5 H 0.2877 0.6660 0.8016
O11_5 O 0.1527(4) 0.64988(15) 0.76857(19)
H4_5 H 0.1129 0.6420 0.7611
H5_5 H 0.1451 0.6641 0.7634
O12_5 O 0.1818(5) 0.60151(14) 0.7330(3)
H6_5 H 0.1874 0.5935 0.7112
H7_5 H 0.1355 0.6070 0.7339
C21_3 C 0.7512(4) 0.51308(10) 0.51348(15)
C22_3 C 0.7328(4) 0.52595(11) 0.54822(15)
H19_3 H 0.7188 0.5183 0.5724
C23_3 C 0.7348(4) 0.55007(11) 0.54796(17)
C24_3 C 0.7575(4) 0.56115(11) 0.51162(15)
H20_3 H 0.7597 0.5772 0.5109
C25_3 C 0.7767(4) 0.54870(11) 0.47652(16)
C26_3 C 0.7753(4) 0.52488(11) 0.47794(15)
H21_3 H 0.7907 0.5165 0.4548
C27_3 C 0.7157(5) 0.56349(12) 0.58579(17)
C28_3 C 0.7605(5) 0.58271(14) 0.5961(2)
H22_3 H 0.8019 0.5870 0.5790
C29_3 C 0.7453(5) 0.59538(15) 0.6304(2)
H23_3 H 0.7751 0.6084 0.6365
C30_3 C 0.6843(5) 0.58857(15) 0.6566(2)
C31_3 C 0.6411(5) 0.57047(15) 0.6465(2)
H24_3 H 0.5990 0.5664 0.6634
C32_3 C 0.6566(4) 0.55733(12) 0.61165(18)
H25_3 H 0.6265 0.5443 0.6060
C33_3 C 0.6699(7) 0.6019(2) 0.6971(2)
C34_3 C 0.8018(4) 0.56061(11) 0.43739(17)
C35_3 C 0.8639(5) 0.55189(11) 0.41456(17)
H26_3 H 0.8902 0.5387 0.4235
C36_3 C 0.8868(5) 0.56284(12) 0.37834(17)
H27_3 H 0.9295 0.5573 0.3634
C37_3 C 0.8461(4) 0.58210(11) 0.36435(17)
C38_3 C 0.7849(4) 0.59049(11) 0.38698(19)
H28_3 H 0.7574 0.6034 0.3777
C39_3 C 0.7628(4) 0.57987(11) 0.42429(18)
H29_3 H 0.7219 0.5859 0.4399
C40_3 C 0.8698(6) 0.59269(13) 0.3228(2)
O17_2 O 0.8853(4) 0.40515(11) 0.71863(14)
O18_2 O 0.7900(5) 0.38205(15) 0.7054(2)
O19_3 O 0.6758(4) 0.39300(11) 0.30910(15)
O20_3 O 0.5684(3) 0.41354(8) 0.30702(13)
C61_3 C 0.7488(4) 0.48692(10) 0.51348(15)
C62_3 C 0.7672(4) 0.47405(11) 0.54822(15)
H41_3 H 0.7812 0.4817 0.5724
C63_3 C 0.7652(4) 0.44993(11) 0.54796(17)
C64_3 C 0.7425(4) 0.43885(11) 0.51162(15)
H42_3 H 0.7403 0.4228 0.5109
C65_3 C 0.7233(4) 0.45130(11) 0.47652(16)
C66_3 C 0.7247(4) 0.47512(11) 0.47794(15)
H43_3 H 0.7093 0.4835 0.4548
C67_3 C 0.7843(5) 0.43651(12) 0.58579(17)
C68_3 C 0.7395(5) 0.41729(14) 0.5961(2)
H44_3 H 0.6981 0.4130 0.5790
C69_3 C 0.7547(5) 0.40462(15) 0.6304(2)
H45_3 H 0.7249 0.3916 0.6365
C70_3 C 0.8157(5) 0.41143(15) 0.6566(2)
C71_3 C 0.8589(5) 0.42953(15) 0.6465(2)
H46_3 H 0.9010 0.4336 0.6634
C72_3 C 0.8434(4) 0.44267(12) 0.61165(18)
H47_3 H 0.8735 0.4557 0.6060
C73_3 C 0.8301(7) 0.3981(2) 0.6971(2)
C74_3 C 0.6982(4) 0.43939(11) 0.43739(17)
C75_3 C 0.6361(5) 0.44811(11) 0.41456(17)
H48_3 H 0.6098 0.4613 0.4235
C76_3 C 0.6132(5) 0.43716(12) 0.37834(17)
H49_3 H 0.5705 0.4427 0.3634
C77_3 C 0.6539(4) 0.41790(11) 0.36435(17)
C78_3 C 0.7151(4) 0.40951(11) 0.38698(19)
H50_3 H 0.7426 0.3966 0.3777
C79_3 C 0.7372(4) 0.42013(11) 0.42429(18)
H51_3 H 0.7781 0.4141 0.4399
C80_3 C 0.6302(6) 0.40731(13) 0.3228(2)
H52_3 H 0.4581 0.5520 0.7612
O21_5 O 0.7996(5) 0.66978(14) 0.22301(15)
H53_5 H 0.8484 0.6727 0.2246
H54_5 H 0.7877 0.6660 0.1984
O22_5 O 0.6527(4) 0.64988(15) 0.23143(19)
H55_5 H 0.6129 0.6420 0.2389
H56_5 H 0.6451 0.6641 0.2366
O23_5 O 0.6818(5) 0.60151(14) 0.2670(3)
H57_5 H 0.6874 0.5935 0.2888
H58_5 H 0.6355 0.6070 0.2661
Gd6_3 Gd 0.5000 0.400478(9) 0.2500
Gd7_3 Gd 1.0000 0.599522(9) 0.2500
O25_5 O 0.8921(3) 0.64860(8) 0.28573(15)
O26_5 O 0.1964(4) 0.63789(10) 0.66636(19)
O27_5 O 0.2322(4) 0.67022(9) 0.69129(15)
O28_3 O 0.3853(4) 0.59485(11) 0.78137(14)
O29_3 O 0.2900(5) 0.61795(15) 0.7946(2)
O30_5 O 0.7900(5) 0.61795(15) 0.2054(2)
O31_5 O 0.3242(4) 0.60700(11) 0.69090(15)
O32_3 O 0.4316(3) 0.58646(8) 0.69298(13)
O33_3 O 0.5684(3) 0.58646(8) 0.80702(13)
O9_5 O -0.0000 0.44303(14) 0.7500
O10_6 O 0.2004(5) 0.33022(14) 0.77699(15)
H2_6 H 0.1516 0.3273 0.7754
H3_6 H 0.2123 0.3340 0.8016
O11_6 O 0.3473(4) 0.35012(15) 0.76857(19)
H4_6 H 0.3871 0.3580 0.7611
H5_6 H 0.3549 0.3359 0.7634
O12_6 O 0.3182(5) 0.39849(14) 0.7330(3)
H6_6 H 0.3126 0.4065 0.7112
H7_6 H 0.3645 0.3930 0.7339
H52_4 H 0.0419 0.4480 0.7612
O26_6 O 0.3036(4) 0.36211(10) 0.66636(19)
O27_6 O 0.2678(4) 0.32978(9) 0.69129(15)
O28_4 O 0.1147(4) 0.40515(11) 0.78137(14)
O29_4 O 0.2100(5) 0.38205(15) 0.7946(2)
O31_6 O 0.1758(4) 0.39300(11) 0.69090(15)
O32_4 O 0.0684(3) 0.41354(8) 0.69298(13)
O9_6 O 1.0000 0.44303(14) 0.7500
H1_4 H 0.9581 0.4480 0.7388
O21_6 O 0.7004(5) 0.33022(14) 0.22301(15)
H53_6 H 0.6516 0.3273 0.2246
H54_6 H 0.7123 0.3340 0.1984
O22_6 O 0.8473(4) 0.35012(15) 0.23143(19)
H55_6 H 0.8871 0.3580 0.2389
H56_6 H 0.8549 0.3359 0.2366
O23_6 O 0.8182(5) 0.39849(14) 0.2670(3)
H57_6 H 0.8126 0.4065 0.2888
H58_6 H 0.8645 0.3930 0.2661
O25_6 O 0.6079(3) 0.35140(8) 0.28573(15)
O30_6 O 0.7100(5) 0.38205(15) 0.2054(2)
O33_4 O 0.9316(3) 0.41354(8) 0.80702(13)
O7_4 O 0.1758(4) 0.60700(11) 0.19090(15)
O8_4 O 0.0684(3) 0.58646(8) 0.19298(13)
C25_4 C 0.2233(4) 0.54870(11) 0.02348(16)
C26_4 C 0.2247(4) 0.52488(11) 0.02206(15)
H21_4 H 0.2093 0.5165 0.0452
C34_4 C 0.1982(4) 0.56061(11) 0.06261(17)
C35_4 C 0.1361(5) 0.55189(11) 0.08544(17)
H26_4 H 0.1098 0.5387 0.0765
C36_4 C 0.1132(5) 0.56284(12) 0.12166(17)
H27_4 H 0.0705 0.5573 0.1366
C37_4 C 0.1539(4) 0.58210(11) 0.13565(17)
C38_4 C 0.2151(4) 0.59049(11) 0.11302(19)
H28_4 H 0.2426 0.6034 0.1223
C39_4 C 0.2372(4) 0.57987(11) 0.07571(18)
H29_4 H 0.2781 0.5859 0.0601
C40_4 C 0.1302(6) 0.59269(13) 0.1772(2)
O19_4 O 0.3242(4) 0.39300(11) 0.19090(15)
O20_4 O 0.4316(3) 0.41354(8) 0.19298(13)
C65_4 C 0.2767(4) 0.45130(11) 0.02348(16)
C66_4 C 0.2753(4) 0.47512(11) 0.02206(15)
H43_4 H 0.2907 0.4835 0.0452
C74_4 C 0.3018(4) 0.43939(11) 0.06261(17)
C75_4 C 0.3639(5) 0.44811(11) 0.08544(17)
H48_4 H 0.3902 0.4613 0.0765
C76_4 C 0.3868(5) 0.43716(12) 0.12166(17)
H49_4 H 0.4295 0.4427 0.1366
C77_4 C 0.3461(4) 0.41790(11) 0.13565(17)
C78_4 C 0.2849(4) 0.40951(11) 0.11302(19)
H50_4 H 0.2574 0.3966 0.1223
C79_4 C 0.2628(4) 0.42013(11) 0.07571(18)
H51_4 H 0.2219 0.4141 0.0601
C80_4 C 0.3698(6) 0.40731(13) 0.1772(2)
O21_7 O 0.2004(5) 0.66978(14) 0.27699(15)
H53_7 H 0.1516 0.6727 0.2754
H54_7 H 0.2123 0.6660 0.3016
O22_7 O 0.3473(4) 0.64988(15) 0.26857(19)
H55_7 H 0.3871 0.6420 0.2611
H56_7 H 0.3549 0.6641 0.2634
O23_7 O 0.3182(5) 0.60151(14) 0.2330(3)
H57_7 H 0.3126 0.5935 0.2112
H58_7 H 0.3645 0.6070 0.2339
O25_7 O 0.1079(3) 0.64860(8) 0.21427(15)
O30_7 O 0.2100(5) 0.61795(15) 0.2946(2)
O10_7 O 0.7004(5) 0.66978(14) 0.72301(15)
H2_7 H 0.6516 0.6727 0.7246
H3_7 H 0.7123 0.6660 0.6984
O11_7 O 0.8473(4) 0.64988(15) 0.73143(19)
H4_7 H 0.8871 0.6420 0.7389
H5_7 H 0.8549 0.6641 0.7366
O12_7 O 0.8182(5) 0.60151(14) 0.7670(3)
H6_7 H 0.8126 0.5935 0.7888
H7_7 H 0.8645 0.6070 0.7661
C21_4 C 0.2488(4) 0.51308(10) 0.98652(15)
C22_4 C 0.2672(4) 0.52595(11) 0.95178(15)
H19_4 H 0.2812 0.5183 0.9276
C23_4 C 0.2652(4) 0.55007(11) 0.95204(17)
C24_4 C 0.2425(4) 0.56115(11) 0.98838(15)
H20_4 H 0.2403 0.5772 0.9891
C27_4 C 0.2843(5) 0.56349(12) 0.91421(17)
C28_4 C 0.2395(5) 0.58271(14) 0.9039(2)
H22_4 H 0.1981 0.5870 0.9210
C29_4 C 0.2547(5) 0.59538(15) 0.8696(2)
H23_4 H 0.2249 0.6084 0.8635
C30_4 C 0.3157(5) 0.58857(15) 0.8434(2)
C31_4 C 0.3589(5) 0.57047(15) 0.8535(2)
H24_4 H 0.4010 0.5664 0.8366
C32_4 C 0.3434(4) 0.55733(12) 0.88835(18)
H25_4 H 0.3735 0.5443 0.8940
C33_4 C 0.3301(7) 0.6019(2) 0.8029(2)
C61_4 C 0.2512(4) 0.48692(10) 0.98652(15)
C62_4 C 0.2328(4) 0.47405(11) 0.95178(15)
H41_4 H 0.2188 0.4817 0.9276
C63_4 C 0.2348(4) 0.44993(11) 0.95204(17)
C64_4 C 0.2575(4) 0.43885(11) 0.98838(15)
H42_4 H 0.2597 0.4228 0.9891
C67_4 C 0.2157(5) 0.43651(12) 0.91421(17)
C68_4 C 0.2605(5) 0.41729(14) 0.9039(2)
H44_4 H 0.3019 0.4130 0.9210
C69_4 C 0.2453(5) 0.40462(15) 0.8696(2)
H45_4 H 0.2751 0.3916 0.8635
C70_4 C 0.1843(5) 0.41143(15) 0.8434(2)
C71_4 C 0.1411(5) 0.42953(15) 0.8535(2)
H46_4 H 0.0990 0.4336 0.8366
C72_4 C 0.1566(4) 0.44267(12) 0.88835(18)
H47_4 H 0.1265 0.4557 0.8940
C73_4 C 0.1699(7) 0.3981(2) 0.8029(2)
O26_7 O 0.8036(4) 0.63789(10) 0.83364(19)
O27_7 O 0.7678(4) 0.67022(9) 0.80871(15)
O31_7 O 0.6758(4) 0.60700(11) 0.80910(15)
O21_8 O 0.2996(5) 0.33022(14) 0.27699(15)
H53_8 H 0.3484 0.3273 0.2754
H54_8 H 0.2877 0.3340 0.3016
O22_8 O 0.1527(4) 0.35012(15) 0.26857(19)
H55_8 H 0.1129 0.3580 0.2611
H56_8 H 0.1451 0.3359 0.2634
O23_8 O 0.1818(5) 0.39849(14) 0.2330(3)
H57_8 H 0.1874 0.4065 0.2112
H58_8 H 0.1355 0.3930 0.2339
O25_8 O 0.3921(3) 0.35140(8) 0.21427(15)
O30_8 O 0.2900(5) 0.38205(15) 0.2946(2)
O10_8 O 0.7996(5) 0.33022(14) 0.72301(15)
H2_8 H 0.8484 0.3273 0.7246
H3_8 H 0.7877 0.3340 0.6984
O11_8 O 0.6527(4) 0.35012(15) 0.73143(19)
H4_8 H 0.6129 0.3580 0.7389
H5_8 H 0.6451 0.3359 0.7366
O12_8 O 0.6818(5) 0.39849(14) 0.7670(3)
H6_8 H 0.6874 0.4065 0.7888
H7_8 H 0.6355 0.3930 0.7661
O26_8 O 0.6964(4) 0.36211(10) 0.83364(19)
O27_8 O 0.7322(4) 0.32978(9) 0.80871(15)
O31_8 O 0.8242(4) 0.39300(11) 0.80910(15)
O9_7 O -0.0000 0.94303(14) 0.2500
C2_5 C 0.0021(4) 0.77594(9) 0.45022(15)
H8_5 H 0.0239 0.7692 0.4268
C8_5 C 0.0663(5) 0.80990(11) 0.3883(2)
H11_5 H 0.1023 0.7986 0.3960
C9_5 C 0.0811(5) 0.82334(12) 0.3535(2)
H12_5 H 0.1273 0.8212 0.3385
C10_5 C 0.0281(4) 0.83953(10) 0.34128(19)
C13_5 C 0.0445(5) 0.85541(13) 0.3038(2)
O13_5 O 0.0042(3) 0.63001(8) 0.29508(12)
C41_5 C 0.0106(4) 0.73761(9) 0.48641(15)
C43_5 C 0.0177(4) 0.70094(9) 0.44979(15)
C44_5 C 0.0516(4) 0.69083(10) 0.48318(16)
H31_5 H 0.0667 0.6754 0.4821
C45_5 C 0.0639(4) 0.70400(11) 0.52030(16)
C46_5 C 0.0440(4) 0.72737(9) 0.52003(15)
H32_5 H 0.0537 0.7362 0.5434
C47_5 C 0.0012(4) 0.68696(10) 0.41179(17)
C51_5 C 0.0397(5) 0.65695(11) 0.3634(2)
H35_5 H 0.0757 0.6459 0.3547
C52_5 C 0.0544(5) 0.66981(12) 0.39846(19)
H36_5 H 0.1000 0.6671 0.4135
C54_5 C 0.1003(4) 0.69250(11) 0.55716(18)
C55_5 C 0.0951(6) 0.66965(14) 0.5637(2)
H37_5 H 0.0684 0.6606 0.5446
C56_5 C 0.1290(6) 0.65892(13) 0.5988(2)
H38_5 H 0.1241 0.6430 0.6024
C57_5 C 0.1664(4) 0.67097(13) 0.62585(18)
C58_5 C 0.1685(6) 0.69347(14) 0.6203(2)
H39_5 H 0.1931 0.7025 0.6402
C59_5 C 0.1364(6) 0.70412(12) 0.5868(2)
H40_5 H 0.1400 0.7201 0.5847
C60_5 C 0.2028(5) 0.65949(15) 0.6637(2)
H52_5 H 0.0419 0.9480 0.2388
O24_3 O 0.0042(3) 0.86999(8) 0.20492(12)
O28_5 O 0.1147(4) 0.90515(11) 0.21863(14)
O17_3 O 0.6147(4) 0.09485(11) 0.28137(14)
C61_5 C 0.7512(4) 0.01308(10) 0.48652(15)
C62_5 C 0.7328(4) 0.02595(11) 0.45178(15)
H41_5 H 0.7188 0.0183 0.4276
C63_5 C 0.7348(4) 0.05007(11) 0.45204(17)
C64_5 C 0.7575(4) 0.06115(11) 0.48838(15)
H42_5 H 0.7597 0.0772 0.4891
C65_5 C 0.7767(4) 0.04870(11) 0.52348(16)
C66_5 C 0.7753(4) 0.02488(11) 0.52206(15)
H43_5 H 0.7907 0.0165 0.5452
C67_5 C 0.7157(5) 0.06349(12) 0.41421(17)
C68_5 C 0.7605(5) 0.08271(14) 0.4039(2)
H44_5 H 0.8019 0.0870 0.4210
C69_5 C 0.7453(5) 0.09538(15) 0.3696(2)
H45_5 H 0.7751 0.1084 0.3635
C70_5 C 0.6843(5) 0.08857(15) 0.3434(2)
C71_5 C 0.6411(5) 0.07047(15) 0.3535(2)
H46_5 H 0.5990 0.0664 0.3366
C72_5 C 0.6566(4) 0.05733(12) 0.38835(18)
H47_5 H 0.6265 0.0443 0.3940
C73_5 C 0.6699(7) 0.1019(2) 0.3029(2)
C74_5 C 0.8018(4) 0.06061(11) 0.56261(17)
C75_5 C 0.8639(5) 0.05189(11) 0.58544(17)
H48_5 H 0.8902 0.0387 0.5765
C76_5 C 0.8868(5) 0.06284(12) 0.62166(17)
H49_5 H 0.9295 0.0573 0.6366
C77_5 C 0.8461(4) 0.08210(11) 0.63565(17)
C78_5 C 0.7849(4) 0.09049(11) 0.61302(19)
H50_5 H 0.7574 0.1034 0.6223
C79_5 C 0.7628(4) 0.07987(11) 0.57571(18)
H51_5 H 0.7219 0.0859 0.5601
C80_5 C 0.8698(6) 0.09269(13) 0.6772(2)
O1_3 O 0.9958(3) 0.86999(8) 0.29508(12)
O5_3 O 0.8853(4) 0.90515(11) 0.28137(14)
O9_8 O 1.0000 0.94303(14) 0.2500
H1_5 H 0.9581 0.9480 0.2612
C1_5 C 0.9894(4) 0.76239(9) 0.48641(15)
C3_5 C 0.9823(4) 0.79906(9) 0.44979(15)
C4_5 C 0.9484(4) 0.80917(10) 0.48318(16)
H9_5 H 0.9333 0.8246 0.4821
C5_5 C 0.9361(4) 0.79600(11) 0.52030(16)
C6_5 C 0.9560(4) 0.77263(9) 0.52003(15)
H10_5 H 0.9463 0.7638 0.5434
C7_5 C 0.9988(4) 0.81304(10) 0.41179(17)
C11_5 C 0.9603(5) 0.84305(11) 0.3634(2)
H13_5 H 0.9243 0.8541 0.3547
C12_5 C 0.9456(5) 0.83019(12) 0.39846(19)
H14_5 H 0.9000 0.8329 0.4135
C14_5 C 0.8997(4) 0.80750(11) 0.55716(18)
C15_5 C 0.9049(6) 0.83035(14) 0.5637(2)
H15_5 H 0.9316 0.8394 0.5446
C16_5 C 0.8710(6) 0.84108(13) 0.5988(2)
H16_5 H 0.8759 0.8570 0.6024
C17_5 C 0.8336(4) 0.82903(13) 0.62585(18)
C18_5 C 0.8315(6) 0.80653(14) 0.6203(2)
H17_5 H 0.8069 0.7975 0.6402
C19_5 C 0.8636(6) 0.79588(12) 0.5868(2)
H18_5 H 0.8600 0.7799 0.5847
C20_5 C 0.7972(5) 0.84051(15) 0.6637(2)
C21_5 C 0.7488(4) 0.98692(10) 0.48652(15)
C22_5 C 0.7672(4) 0.97405(11) 0.45178(15)
H19_5 H 0.7812 0.9817 0.4276
C23_5 C 0.7652(4) 0.94993(11) 0.45204(17)
C24_5 C 0.7425(4) 0.93885(11) 0.48838(15)
H20_5 H 0.7403 0.9228 0.4891
C25_5 C 0.7233(4) 0.95130(11) 0.52348(16)
C26_5 C 0.7247(4) 0.97512(11) 0.52206(15)
H21_5 H 0.7093 0.9835 0.5452
C27_5 C 0.7843(5) 0.93651(12) 0.41421(17)
C28_5 C 0.7395(5) 0.91729(14) 0.4039(2)
H22_5 H 0.6981 0.9130 0.4210
C29_5 C 0.7547(5) 0.90462(15) 0.3696(2)
H23_5 H 0.7249 0.8916 0.3635
C30_5 C 0.8157(5) 0.91143(15) 0.3434(2)
C31_5 C 0.8589(5) 0.92953(15) 0.3535(2)
H24_5 H 0.9010 0.9336 0.3366
C32_5 C 0.8434(4) 0.94267(12) 0.38835(18)
H25_5 H 0.8735 0.9557 0.3940
C33_5 C 0.8301(7) 0.8981(2) 0.3029(2)
C34_5 C 0.6982(4) 0.93939(11) 0.56261(17)
C35_5 C 0.6361(5) 0.94811(11) 0.58544(17)
H26_5 H 0.6098 0.9613 0.5765
C36_5 C 0.6132(5) 0.93716(12) 0.62166(17)
H27_5 H 0.5705 0.9427 0.6366
C37_5 C 0.6539(4) 0.91790(11) 0.63565(17)
C38_5 C 0.7151(4) 0.90951(11) 0.61302(19)
H28_5 H 0.7426 0.8966 0.6223
C39_5 C 0.7372(4) 0.92013(11) 0.57571(18)
H29_5 H 0.7781 0.9141 0.5601
C40_5 C 0.6302(6) 0.90731(13) 0.6772(2)
C42_5 C 0.9979(4) 0.72406(9) 0.45022(15)
H30_5 H 0.9761 0.7308 0.4268
C48_5 C 0.9337(5) 0.69010(11) 0.3883(2)
H33_5 H 0.8977 0.7014 0.3960
C49_5 C 0.9189(5) 0.67666(12) 0.3535(2)
H34_5 H 0.8727 0.6788 0.3385
C50_5 C 0.9719(4) 0.66047(10) 0.34128(19)
C53_5 C 0.9555(5) 0.64459(13) 0.3038(2)
O1_4 O 0.5042(3) 0.13001(8) 0.29508(12)
O9_9 O 0.5000 0.05697(14) 0.2500
H1_6 H 0.5419 0.0520 0.2612
C1_6 C 0.5106(4) 0.23761(9) 0.48641(15)
C2_6 C 0.4979(4) 0.22406(9) 0.45022(15)
H8_6 H 0.4761 0.2308 0.4268
C3_6 C 0.5177(4) 0.20094(9) 0.44979(15)
C4_6 C 0.5516(4) 0.19083(10) 0.48318(16)
H9_6 H 0.5667 0.1754 0.4821
C5_6 C 0.5639(4) 0.20400(11) 0.52030(16)
C6_6 C 0.5440(4) 0.22737(9) 0.52003(15)
H10_6 H 0.5537 0.2362 0.5434
C7_6 C 0.5012(4) 0.18696(10) 0.41179(17)
C8_6 C 0.4337(5) 0.19010(11) 0.3883(2)
H11_6 H 0.3977 0.2014 0.3960
C9_6 C 0.4189(5) 0.17666(12) 0.3535(2)
H12_6 H 0.3727 0.1788 0.3385
C10_6 C 0.4719(4) 0.16047(10) 0.34128(19)
C11_6 C 0.5397(5) 0.15695(11) 0.3634(2)
H13_6 H 0.5757 0.1459 0.3547
C12_6 C 0.5544(5) 0.16981(12) 0.39846(19)
H14_6 H 0.6000 0.1671 0.4135
C13_6 C 0.4555(5) 0.14459(13) 0.3038(2)
C14_6 C 0.6003(4) 0.19250(11) 0.55716(18)
C15_6 C 0.5951(6) 0.16965(14) 0.5637(2)
H15_6 H 0.5684 0.1606 0.5446
C16_6 C 0.6290(6) 0.15892(13) 0.5988(2)
H16_6 H 0.6241 0.1430 0.6024
C17_6 C 0.6664(4) 0.17097(13) 0.62585(18)
C18_6 C 0.6685(6) 0.19347(14) 0.6203(2)
H17_6 H 0.6931 0.2025 0.6402
C19_6 C 0.6364(6) 0.20412(12) 0.5868(2)
H18_6 H 0.6400 0.2201 0.5847
C20_6 C 0.7028(5) 0.15949(15) 0.6637(2)
O13_6 O 0.4958(3) 0.36999(8) 0.29508(12)
C41_6 C 0.4894(4) 0.26239(9) 0.48641(15)
C42_6 C 0.5021(4) 0.27594(9) 0.45022(15)
H30_6 H 0.5239 0.2692 0.4268
C43_6 C 0.4823(4) 0.29906(9) 0.44979(15)
C44_6 C 0.4484(4) 0.30917(10) 0.48318(16)
H31_6 H 0.4333 0.3246 0.4821
C45_6 C 0.4361(4) 0.29600(11) 0.52030(16)
C46_6 C 0.4560(4) 0.27263(9) 0.52003(15)
H32_6 H 0.4463 0.2638 0.5434
C47_6 C 0.4988(4) 0.31304(10) 0.41179(17)
C48_6 C 0.5663(5) 0.30990(11) 0.3883(2)
H33_6 H 0.6023 0.2986 0.3960
C49_6 C 0.5811(5) 0.32334(12) 0.3535(2)
H34_6 H 0.6273 0.3212 0.3385
C50_6 C 0.5281(4) 0.33953(10) 0.34128(19)
C51_6 C 0.4603(5) 0.34305(11) 0.3634(2)
H35_6 H 0.4243 0.3541 0.3547
C52_6 C 0.4456(5) 0.33019(12) 0.39846(19)
H36_6 H 0.4000 0.3329 0.4135
C53_6 C 0.5445(5) 0.35541(13) 0.3038(2)
C54_6 C 0.3997(4) 0.30750(11) 0.55716(18)
C55_6 C 0.4049(6) 0.33035(14) 0.5637(2)
H37_6 H 0.4316 0.3394 0.5446
C56_6 C 0.3710(6) 0.34108(13) 0.5988(2)
H38_6 H 0.3759 0.3570 0.6024
C57_6 C 0.3336(4) 0.32903(13) 0.62585(18)
C58_6 C 0.3315(6) 0.30653(14) 0.6203(2)
H39_6 H 0.3069 0.2975 0.6402
C59_6 C 0.3636(6) 0.29588(12) 0.5868(2)
H40_6 H 0.3600 0.2799 0.5847
C60_6 C 0.2972(5) 0.34051(15) 0.6637(2)
H52_6 H 0.4581 0.0520 0.2388
O24_4 O 0.4958(3) 0.13001(8) 0.20492(12)
O28_6 O 0.3853(4) 0.09485(11) 0.21863(14)
C61_6 C 0.2488(4) 0.01308(10) 0.01348(15)
C62_6 C 0.2672(4) 0.02595(11) 0.04822(15)
H41_6 H 0.2812 0.0183 0.0724
C63_6 C 0.2652(4) 0.05007(11) 0.04796(17)
C64_6 C 0.2425(4) 0.06115(11) 0.01162(15)
H42_6 H 0.2403 0.0772 0.0109
C67_6 C 0.2843(5) 0.06349(12) 0.08579(17)
C68_6 C 0.2395(5) 0.08271(14) 0.0961(2)
H44_6 H 0.1981 0.0870 0.0790
C69_6 C 0.2547(5) 0.09538(15) 0.1304(2)
H45_6 H 0.2249 0.1084 0.1365
C70_6 C 0.3157(5) 0.08857(15) 0.1566(2)
C71_6 C 0.3589(5) 0.07047(15) 0.1465(2)
H46_6 H 0.4010 0.0664 0.1634
C72_6 C 0.3434(4) 0.05733(12) 0.11165(18)
H47_6 H 0.3735 0.0443 0.1060
C73_6 C 0.3301(7) 0.1019(2) 0.1971(2)
C65_6 C 0.2233(4) 0.04870(11) 0.97652(16)
C66_6 C 0.2247(4) 0.02488(11) 0.97794(15)
H43_6 H 0.2093 0.0165 0.9548
C74_6 C 0.1982(4) 0.06061(11) 0.93739(17)
C75_6 C 0.1361(5) 0.05189(11) 0.91456(17)
H48_6 H 0.1098 0.0387 0.9235
C76_6 C 0.1132(5) 0.06284(12) 0.87834(17)
H49_6 H 0.0705 0.0573 0.8634
C77_6 C 0.1539(4) 0.08210(11) 0.86435(17)
C78_6 C 0.2151(4) 0.09049(11) 0.88698(19)
H50_6 H 0.2426 0.1034 0.8777
C79_6 C 0.2372(4) 0.07987(11) 0.92429(18)
H51_6 H 0.2781 0.0859 0.9399
C80_6 C 0.1302(6) 0.09269(13) 0.8228(2)
C1_7 C 0.0106(4) 0.76239(9) 0.01359(15)
C3_7 C 0.0177(4) 0.79906(9) 0.05021(15)
C4_7 C 0.0516(4) 0.80917(10) 0.01682(16)
H9_7 H 0.0667 0.8246 0.0179
C7_7 C 0.0012(4) 0.81304(10) 0.08821(17)
C11_7 C 0.0397(5) 0.84305(11) 0.1366(2)
H13_7 H 0.0757 0.8541 0.1453
C12_7 C 0.0544(5) 0.83019(12) 0.10154(19)
H14_7 H 0.1000 0.8329 0.0865
C21_6 C 0.2512(4) 0.98692(10) 0.01348(15)
C22_6 C 0.2328(4) 0.97405(11) 0.04822(15)
H19_6 H 0.2188 0.9817 0.0724
C23_6 C 0.2348(4) 0.94993(11) 0.04796(17)
C24_6 C 0.2575(4) 0.93885(11) 0.01162(15)
H20_6 H 0.2597 0.9228 0.0109
C27_6 C 0.2157(5) 0.93651(12) 0.08579(17)
C28_6 C 0.2605(5) 0.91729(14) 0.0961(2)
H22_6 H 0.3019 0.9130 0.0790
C29_6 C 0.2453(5) 0.90462(15) 0.1304(2)
H23_6 H 0.2751 0.8916 0.1365
C30_6 C 0.1843(5) 0.91143(15) 0.1566(2)
C31_6 C 0.1411(5) 0.92953(15) 0.1465(2)
H24_6 H 0.0990 0.9336 0.1634
C32_6 C 0.1566(4) 0.94267(12) 0.11165(18)
H25_6 H 0.1265 0.9557 0.1060
C33_6 C 0.1699(7) 0.8981(2) 0.1971(2)
C42_7 C 0.0021(4) 0.72406(9) 0.04978(15)
H30_7 H 0.0239 0.7308 0.0732
C48_7 C 0.0663(5) 0.69010(11) 0.1117(2)
H33_7 H 0.1023 0.7014 0.1040
C49_7 C 0.0811(5) 0.67666(12) 0.1465(2)
H34_7 H 0.1273 0.6788 0.1615
C50_7 C 0.0281(4) 0.66047(10) 0.15872(19)
C53_7 C 0.0445(5) 0.64459(13) 0.1962(2)
C5_7 C 0.0639(4) 0.79600(11) 0.97970(16)
C6_7 C 0.0440(4) 0.77263(9) 0.97997(15)
H10_7 H 0.0537 0.7638 0.9566
C14_7 C 0.1003(4) 0.80750(11) 0.94284(18)
C15_7 C 0.0951(6) 0.83035(14) 0.9363(2)
H15_7 H 0.0684 0.8394 0.9554
C16_7 C 0.1290(6) 0.84108(13) 0.9012(2)
H16_7 H 0.1241 0.8570 0.8976
C17_7 C 0.1664(4) 0.82903(13) 0.87415(18)
C18_7 C 0.1685(6) 0.80653(14) 0.8797(2)
H17_7 H 0.1931 0.7975 0.8598
C19_7 C 0.1364(6) 0.79588(12) 0.9132(2)
H18_7 H 0.1400 0.7799 0.9153
C20_7 C 0.2028(5) 0.84051(15) 0.8363(2)
C25_6 C 0.2767(4) 0.95130(11) 0.97652(16)
C26_6 C 0.2753(4) 0.97512(11) 0.97794(15)
H21_6 H 0.2907 0.9835 0.9548
C34_6 C 0.3018(4) 0.93939(11) 0.93739(17)
C35_6 C 0.3639(5) 0.94811(11) 0.91456(17)
H26_6 H 0.3902 0.9613 0.9235
C36_6 C 0.3868(5) 0.93716(12) 0.87834(17)
H27_6 H 0.4295 0.9427 0.8634
C37_6 C 0.3461(4) 0.91790(11) 0.86435(17)
C38_6 C 0.2849(4) 0.90951(11) 0.88698(19)
H28_6 H 0.2574 0.8966 0.8777
C39_6 C 0.2628(4) 0.92013(11) 0.92429(18)
H29_6 H 0.2219 0.9141 0.9399
C40_6 C 0.3698(6) 0.90731(13) 0.8228(2)
C2_7 C 0.9979(4) 0.77594(9) 0.04978(15)
H8_7 H 0.9761 0.7692 0.0732
C8_7 C 0.9337(5) 0.80990(11) 0.1117(2)
H11_7 H 0.8977 0.7986 0.1040
C9_7 C 0.9189(5) 0.82334(12) 0.1465(2)
H12_7 H 0.8727 0.8212 0.1615
C10_7 C 0.9719(4) 0.83953(10) 0.15872(19)
C13_7 C 0.9555(5) 0.85541(13) 0.1962(2)
O13_7 O 0.9958(3) 0.63001(8) 0.20492(12)
C41_7 C 0.9894(4) 0.73761(9) 0.01359(15)
C43_7 C 0.9823(4) 0.70094(9) 0.05021(15)
C44_7 C 0.9484(4) 0.69083(10) 0.01682(16)
H31_7 H 0.9333 0.6754 0.0179
C47_7 C 0.9988(4) 0.68696(10) 0.08821(17)
C51_7 C 0.9603(5) 0.65695(11) 0.1366(2)
H35_7 H 0.9243 0.6459 0.1453
C52_7 C 0.9456(5) 0.66981(12) 0.10154(19)
H36_7 H 0.9000 0.6671 0.0865
C45_7 C 0.9361(4) 0.70400(11) 0.97970(16)
C46_7 C 0.9560(4) 0.72737(9) 0.97997(15)
H32_7 H 0.9463 0.7362 0.9566
C54_7 C 0.8997(4) 0.69250(11) 0.94284(18)
C55_7 C 0.9049(6) 0.66965(14) 0.9363(2)
H37_7 H 0.9316 0.6606 0.9554
C56_7 C 0.8710(6) 0.65892(13) 0.9012(2)
H38_7 H 0.8759 0.6430 0.8976
C57_7 C 0.8336(4) 0.67097(13) 0.87415(18)
C58_7 C 0.8315(6) 0.69347(14) 0.8797(2)
H39_7 H 0.8069 0.7025 0.8598
C59_7 C 0.8636(6) 0.70412(12) 0.9132(2)
H40_7 H 0.8600 0.7201 0.9153
C60_7 C 0.7972(5) 0.65949(15) 0.8363(2)
C1_8 C 0.4894(4) 0.23761(9) 0.01359(15)
C2_8 C 0.5021(4) 0.22406(9) 0.04978(15)
H8_8 H 0.5239 0.2308 0.0732
C3_8 C 0.4823(4) 0.20094(9) 0.05021(15)
C4_8 C 0.4484(4) 0.19083(10) 0.01682(16)
H9_8 H 0.4333 0.1754 0.0179
C7_8 C 0.4988(4) 0.18696(10) 0.08821(17)
C8_8 C 0.5663(5) 0.19010(11) 0.1117(2)
H11_8 H 0.6023 0.2014 0.1040
C9_8 C 0.5811(5) 0.17666(12) 0.1465(2)
H12_8 H 0.6273 0.1788 0.1615
C10_8 C 0.5281(4) 0.16047(10) 0.15872(19)
C11_8 C 0.4603(5) 0.15695(11) 0.1366(2)
H13_8 H 0.4243 0.1459 0.1453
C12_8 C 0.4456(5) 0.16981(12) 0.10154(19)
H14_8 H 0.4000 0.1671 0.0865
C13_8 C 0.5445(5) 0.14459(13) 0.1962(2)
O13_8 O 0.5042(3) 0.36999(8) 0.20492(12)
C41_8 C 0.5106(4) 0.26239(9) 0.01359(15)
C42_8 C 0.4979(4) 0.27594(9) 0.04978(15)
H30_8 H 0.4761 0.2692 0.0732
C43_8 C 0.5177(4) 0.29906(9) 0.05021(15)
C44_8 C 0.5516(4) 0.30917(10) 0.01682(16)
H31_8 H 0.5667 0.3246 0.0179
C47_8 C 0.5012(4) 0.31304(10) 0.08821(17)
C48_8 C 0.4337(5) 0.30990(11) 0.1117(2)
H33_8 H 0.3977 0.2986 0.1040
C49_8 C 0.4189(5) 0.32334(12) 0.1465(2)
H34_8 H 0.3727 0.3212 0.1615
C50_8 C 0.4719(4) 0.33953(10) 0.15872(19)
C51_8 C 0.5397(5) 0.34305(11) 0.1366(2)
H35_8 H 0.5757 0.3541 0.1453
C52_8 C 0.5544(5) 0.33019(12) 0.10154(19)
H36_8 H 0.6000 0.3329 0.0865
C53_8 C 0.4555(5) 0.35541(13) 0.1962(2)
C5_8 C 0.4361(4) 0.20400(11) 0.97970(16)
C6_8 C 0.4560(4) 0.22737(9) 0.97997(15)
H10_8 H 0.4463 0.2362 0.9566
C14_8 C 0.3997(4) 0.19250(11) 0.94284(18)
C15_8 C 0.4049(6) 0.16965(14) 0.9363(2)
H15_8 H 0.4316 0.1606 0.9554
C16_8 C 0.3710(6) 0.15892(13) 0.9012(2)
H16_8 H 0.3759 0.1430 0.8976
C17_8 C 0.3336(4) 0.17097(13) 0.87415(18)
C18_8 C 0.3315(6) 0.19347(14) 0.8797(2)
H17_8 H 0.3069 0.2025 0.8598
C19_8 C 0.3636(6) 0.20412(12) 0.9132(2)
H18_8 H 0.3600 0.2201 0.9153
C20_8 C 0.2972(5) 0.15949(15) 0.8363(2)
C45_8 C 0.5639(4) 0.29600(11) 0.97970(16)
C46_8 C 0.5440(4) 0.27263(9) 0.97997(15)
H32_8 H 0.5537 0.2638 0.9566
C54_8 C 0.6003(4) 0.30750(11) 0.94284(18)
C55_8 C 0.5951(6) 0.33035(14) 0.9363(2)
H37_8 H 0.5684 0.3394 0.9554
C56_8 C 0.6290(6) 0.34108(13) 0.9012(2)
H38_8 H 0.6241 0.3570 0.8976
C57_8 C 0.6664(4) 0.32903(13) 0.87415(18)
C58_8 C 0.6685(6) 0.30653(14) 0.8797(2)
H39_8 H 0.6931 0.2975 0.8598
C59_8 C 0.6364(6) 0.29588(12) 0.9132(2)
H40_8 H 0.6400 0.2799 0.9153
C60_8 C 0.7028(5) 0.34051(15) 0.8363(2)
O5_4 O 0.3853(4) 0.40515(11) 0.28137(14)
O9_10 O 0.5000 0.44303(14) 0.2500
H1_7 H 0.4581 0.4480 0.2612
C21_7 C 0.2488(4) 0.48692(10) 0.48652(15)
C22_7 C 0.2672(4) 0.47405(11) 0.45178(15)
H19_7 H 0.2812 0.4817 0.4276
C23_7 C 0.2652(4) 0.44993(11) 0.45204(17)
C24_7 C 0.2425(4) 0.43885(11) 0.48838(15)
H20_7 H 0.2403 0.4228 0.4891
C25_7 C 0.2233(4) 0.45130(11) 0.52348(16)
C26_7 C 0.2247(4) 0.47512(11) 0.52206(15)
H21_7 H 0.2093 0.4835 0.5452
C27_7 C 0.2843(5) 0.43651(12) 0.41421(17)
C28_7 C 0.2395(5) 0.41729(14) 0.4039(2)
H22_7 H 0.1981 0.4130 0.4210
C29_7 C 0.2547(5) 0.40462(15) 0.3696(2)
H23_7 H 0.2249 0.3916 0.3635
C30_7 C 0.3157(5) 0.41143(15) 0.3434(2)
C31_7 C 0.3589(5) 0.42953(15) 0.3535(2)
H24_7 H 0.4010 0.4336 0.3366
C32_7 C 0.3434(4) 0.44267(12) 0.38835(18)
H25_7 H 0.3735 0.4557 0.3940
C33_7 C 0.3301(7) 0.3981(2) 0.3029(2)
C34_7 C 0.1982(4) 0.43939(11) 0.56261(17)
C35_7 C 0.1361(5) 0.44811(11) 0.58544(17)
H26_7 H 0.1098 0.4613 0.5765
C36_7 C 0.1132(5) 0.43716(12) 0.62166(17)
H27_7 H 0.0705 0.4427 0.6366
C37_7 C 0.1539(4) 0.41790(11) 0.63565(17)
C38_7 C 0.2151(4) 0.40951(11) 0.61302(19)
H28_7 H 0.2426 0.3966 0.6223
C39_7 C 0.2372(4) 0.42013(11) 0.57571(18)
H29_7 H 0.2781 0.4141 0.5601
C40_7 C 0.1302(6) 0.40731(13) 0.6772(2)
O17_4 O 0.1147(4) 0.59485(11) 0.28137(14)
C61_7 C 0.2512(4) 0.51308(10) 0.48652(15)
C62_7 C 0.2328(4) 0.52595(11) 0.45178(15)
H41_7 H 0.2188 0.5183 0.4276
C63_7 C 0.2348(4) 0.55007(11) 0.45204(17)
C64_7 C 0.2575(4) 0.56115(11) 0.48838(15)
H42_7 H 0.2597 0.5772 0.4891
C65_7 C 0.2767(4) 0.54870(11) 0.52348(16)
C66_7 C 0.2753(4) 0.52488(11) 0.52206(15)
H43_7 H 0.2907 0.5165 0.5452
C67_7 C 0.2157(5) 0.56349(12) 0.41421(17)
C68_7 C 0.2605(5) 0.58271(14) 0.4039(2)
H44_7 H 0.3019 0.5870 0.4210
C69_7 C 0.2453(5) 0.59538(15) 0.3696(2)
H45_7 H 0.2751 0.6084 0.3635
C70_7 C 0.1843(5) 0.58857(15) 0.3434(2)
C71_7 C 0.1411(5) 0.57047(15) 0.3535(2)
H46_7 H 0.0990 0.5664 0.3366
C72_7 C 0.1566(4) 0.55733(12) 0.38835(18)
H47_7 H 0.1265 0.5443 0.3940
C73_7 C 0.1699(7) 0.6019(2) 0.3029(2)
C74_7 C 0.3018(4) 0.56061(11) 0.56261(17)
C75_7 C 0.3639(5) 0.55189(11) 0.58544(17)
H48_7 H 0.3902 0.5387 0.5765
C76_7 C 0.3868(5) 0.56284(12) 0.62166(17)
H49_7 H 0.4295 0.5573 0.6366
C77_7 C 0.3461(4) 0.58210(11) 0.63565(17)
C78_7 C 0.2849(4) 0.59049(11) 0.61302(19)
H50_7 H 0.2574 0.6034 0.6223
C79_7 C 0.2628(4) 0.57987(11) 0.57571(18)
H51_7 H 0.2219 0.5859 0.5601
C80_7 C 0.3698(6) 0.59269(13) 0.6772(2)
H52_7 H 0.5419 0.4480 0.2388
O28_7 O 0.6147(4) 0.40515(11) 0.21863(14)
O9_11 O 0.0000 0.55697(14) 0.2500
H1_8 H 0.0419 0.5520 0.2612
O9_12 O 1.0000 0.55697(14) 0.2500
H52_8 H 0.9581 0.5520 0.2388
O28_8 O 0.8853(4) 0.59485(11) 0.21863(14)
C21_8 C 0.7512(4) 0.48692(10) 0.01348(15)
C22_8 C 0.7328(4) 0.47405(11) 0.04822(15)
H19_8 H 0.7188 0.4817 0.0724
C23_8 C 0.7348(4) 0.44993(11) 0.04796(17)
C24_8 C 0.7575(4) 0.43885(11) 0.01162(15)
H20_8 H 0.7597 0.4228 0.0109
C27_8 C 0.7157(5) 0.43651(12) 0.08579(17)
C28_8 C 0.7605(5) 0.41729(14) 0.0961(2)
H22_8 H 0.8019 0.4130 0.0790
C29_8 C 0.7453(5) 0.40462(15) 0.1304(2)
H23_8 H 0.7751 0.3916 0.1365
C30_8 C 0.6843(5) 0.41143(15) 0.1566(2)
C31_8 C 0.6411(5) 0.42953(15) 0.1465(2)
H24_8 H 0.5990 0.4336 0.1634
C32_8 C 0.6566(4) 0.44267(12) 0.11165(18)
H25_8 H 0.6265 0.4557 0.1060
C33_8 C 0.6699(7) 0.3981(2) 0.1971(2)
C61_8 C 0.7488(4) 0.51308(10) 0.01348(15)
C62_8 C 0.7672(4) 0.52595(11) 0.04822(15)
H41_8 H 0.7812 0.5183 0.0724
C63_8 C 0.7652(4) 0.55007(11) 0.04796(17)
C64_8 C 0.7425(4) 0.56115(11) 0.01162(15)
H42_8 H 0.7403 0.5772 0.0109
C67_8 C 0.7843(5) 0.56349(12) 0.08579(17)
C68_8 C 0.7395(5) 0.58271(14) 0.0961(2)
H44_8 H 0.6981 0.5870 0.0790
C69_8 C 0.7547(5) 0.59538(15) 0.1304(2)
H45_8 H 0.7249 0.6084 0.1365
C70_8 C 0.8157(5) 0.58857(15) 0.1566(2)
C71_8 C 0.8589(5) 0.57047(15) 0.1465(2)
H46_8 H 0.9010 0.5664 0.1634
C72_8 C 0.8434(4) 0.55733(12) 0.11165(18)
H47_8 H 0.8735 0.5443 0.1060
C73_8 C 0.8301(7) 0.6019(2) 0.1971(2)
C25_8 C 0.7767(4) 0.45130(11) 0.97652(16)
C26_8 C 0.7753(4) 0.47512(11) 0.97794(15)
H21_8 H 0.7907 0.4835 0.9548
C34_8 C 0.8018(4) 0.43939(11) 0.93739(17)
C35_8 C 0.8639(5) 0.44811(11) 0.91456(17)
H26_8 H 0.8902 0.4613 0.9235
C36_8 C 0.8868(5) 0.43716(12) 0.87834(17)
H27_8 H 0.9295 0.4427 0.8634
C37_8 C 0.8461(4) 0.41790(11) 0.86435(17)
C38_8 C 0.7849(4) 0.40951(11) 0.88698(19)
H28_8 H 0.7574 0.3966 0.8777
C39_8 C 0.7628(4) 0.42013(11) 0.92429(18)
H29_8 H 0.7219 0.4141 0.9399
C40_8 C 0.8698(6) 0.40731(13) 0.8228(2)
C65_8 C 0.7233(4) 0.54870(11) 0.97652(16)
C66_8 C 0.7247(4) 0.52488(11) 0.97794(15)
H43_8 H 0.7093 0.5165 0.9548
C74_8 C 0.6982(4) 0.56061(11) 0.93739(17)
C75_8 C 0.6361(5) 0.55189(11) 0.91456(17)
H48_8 H 0.6098 0.5387 0.9235
C76_8 C 0.6132(5) 0.56284(12) 0.87834(17)
H49_8 H 0.5705 0.5573 0.8634
C77_8 C 0.6539(4) 0.58210(11) 0.86435(17)
C78_8 C 0.7151(4) 0.59049(11) 0.88698(19)
H50_8 H 0.7426 0.6034 0.8777
C79_8 C 0.7372(4) 0.57987(11) 0.92429(18)
H51_8 H 0.7781 0.5859 0.9399
C80_8 C 0.6302(6) 0.59269(13) 0.8228(2)
loop_
_geom_bond_atom_site_label_1
_geom_bond_atom_site_label_2
_geom_bond_site_symmetry_1
_geom_bond_site_symmetry_2
Gd1 O1 1_555 1_555
O3 C20 1_555 1_555
O4 C20 1_555 1_555
O5 Gd1 1_555 1_555
O6 C33 1_555 1_555
O7 C40 1_555 1_555
O8 C40 1_555 1_555
O9 Gd1 1_555 1_555
H1 O9 1_555 1_555
C4 C3 1_555 1_555
H9 C4 1_555 1_555
C5 C4 1_555 1_555
C6 C1 1_555 1_555
H10 C6 1_555 1_555
C7 C3 1_555 1_555
H13 C11 1_555 1_555
C12 C7 1_555 1_555
H14 C12 1_555 1_555
C14 C5 1_555 1_555
C15 C14 1_555 1_555
H15 C15 1_555 1_555
C16 C15 1_555 1_555
H16 C16 1_555 1_555
C17 C16 1_555 1_555
C18 C17 1_555 1_555
H17 C18 1_555 1_555
C19 C14 1_555 1_555
H18 C19 1_555 1_555
C20 C17 1_555 1_555
C21 C22 1_555 1_555
C22 H19 1_555 1_555
C23 C22 1_555 1_555
C24 C23 1_555 1_555
H20 C24 1_555 1_555
C25 C24 1_555 1_555
C26 C21 1_555 1_555
H21 C26 1_555 1_555
C27 C23 1_555 1_555
C28 C27 1_555 1_555
H22 C28 1_555 1_555
C29 C28 1_555 1_555
H23 C29 1_555 1_555
C30 C29 1_555 1_555
C31 C30 1_555 1_555
H24 C31 1_555 1_555
C32 C27 1_555 1_555
H25 C32 1_555 1_555
C33 O5 1_555 1_555
C34 C25 1_555 1_555
C35 C34 1_555 1_555
H26 C35 1_555 1_555
C36 C35 1_555 1_555
H27 C36 1_555 1_555
C37 C36 1_555 1_555
C38 C37 1_555 1_555
H28 C38 1_555 1_555
C39 C34 1_555 1_555
H29 C39 1_555 1_555
C40 C37 1_555 1_555
O14 C53 1_555 1_555
H30 C42 1_555 1_555
H33 C48 1_555 1_555
C49 C48 1_555 1_555
H34 C49 1_555 1_555
C50 C49 1_555 1_555
C53 C50 1_555 1_555
Gd3 O3 1_555 1_555
O21 Gd3 1_555 1_555
H53 O21 1_555 1_555
H54 O21 1_555 1_555
O22 Gd3 1_555 1_555
H55 O22 1_555 1_555
H56 O22 1_555 1_555
O23 Gd3 1_555 1_555
H57 O23 1_555 1_555
H58 O23 1_555 1_555
Gd7 O8 1_555 1_555
Gd8 O6 1_555 1_555
Gd10 O14 1_555 1_555
O25 Gd3 1_555 1_555
O30 Gd3 1_555 1_555
O33 Gd1 1_555 1_555
O4 Gd3 1_555 1_555
O7 Gd3 1_555 1_555
C5 C6 1_555 1_555
C11 C12 1_555 1_555
C18 C19 1_555 1_555
C25 C26 1_555 1_555
C30 C33 1_555 1_555
C31 C32 1_555 1_555
C38 C39 1_555 1_555
O17 C73 1_555 1_555
O18 C73 1_555 1_555
O19 C80 1_555 1_555
O20 C80 1_555 1_555
C62 C61 1_555 1_555
H41 C62 1_555 1_555
C63 C62 1_555 1_555
C64 C63 1_555 1_555
H42 C64 1_555 1_555
C65 C64 1_555 1_555
C66 C61 1_555 1_555
H43 C66 1_555 1_555
C67 C63 1_555 1_555
C68 C67 1_555 1_555
H44 C68 1_555 1_555
C69 C68 1_555 1_555
H45 C69 1_555 1_555
C70 C69 1_555 1_555
C71 C70 1_555 1_555
H46 C71 1_555 1_555
C72 C67 1_555 1_555
H47 C72 1_555 1_555
C73 C70 1_555 1_555
C74 C65 1_555 1_555
C75 C74 1_555 1_555
H48 C75 1_555 1_555
C76 C75 1_555 1_555
H49 C76 1_555 1_555
C77 C76 1_555 1_555
C78 C77 1_555 1_555
H50 C78 1_555 1_555
C79 C74 1_555 1_555
H51 C79 1_555 1_555
C80 C77 1_555 1_555
Gd4 O17 1_555 1_555
Gd6 O20 1_555 1_555
Gd9 O18 1_555 1_555
Gd11 O19 1_555 1_555
C65 C66 1_555 1_555
C71 C72 1_555 1_555
C78 C79 1_555 1_555
Gd2 O2 1_555 1_555
O2 C13 1_555 1_555
O9_2 Gd1_2 1_555 1_555
O10 Gd2 1_555 1_555
H2 O10 1_555 1_555
H3 O10 1_555 1_555
O11 Gd2 1_555 1_555
H4 O11 1_555 1_555
H5 O11 1_555 1_555
O12 Gd2 1_555 1_555
H6 O12 1_555 1_555
H7 O12 1_555 1_555
C2 H8 1_555 1_555
H11 C8 1_555 1_555
C9 C8 1_555 1_555
H12 C9 1_555 1_555
C10 C9 1_555 1_555
C13 C10 1_555 1_555
O15 C60 1_555 1_555
O16 C60 1_555 1_555
C44 C43 1_555 1_555
H31 C44 1_555 1_555
C45 C44 1_555 1_555
C46 C41 1_555 1_555
H32 C46 1_555 1_555
C47 C43 1_555 1_555
H35 C51 1_555 1_555
C52 C47 1_555 1_555
H36 C52 1_555 1_555
C54 C45 1_555 1_555
C55 C54 1_555 1_555
H37 C55 1_555 1_555
C56 C55 1_555 1_555
H38 C56 1_555 1_555
C57 C56 1_555 1_555
C58 C57 1_555 1_555
H39 C58 1_555 1_555
C59 C54 1_555 1_555
H40 C59 1_555 1_555
C60 C57 1_555 1_555
H52 O9_2 1_555 1_555
Gd5_2 O13 1_555 1_555
Gd12 O15 1_555 1_555
O24 Gd1_2 1_555 1_555
O26 Gd2 1_555 1_555
O27 Gd2 1_555 1_555
O28 Gd1_2 1_555 1_555
O29 Gd2 1_555 1_555
O31 Gd2 1_555 1_555
O32 Gd1_2 1_555 1_555
O16 Gd12 1_555 1_555
C45 C46 1_555 1_555
C51 C52 1_555 1_555
C58 C59 1_555 1_555
Gd4 O1_2 1_555 1_555
Gd2_2 O2_2 1_555 1_555
O1_2 C13_2 1_555 1_555
O2_2 C13_2 1_555 1_555
O3_2 C20_2 1_555 1_555
O4_2 C20_2 1_555 1_555
O9_3 Gd4 1_555 1_555
H1_2 O9_3 1_555 1_555
O10_2 Gd2_2 1_555 1_555
H2_2 O10_2 1_555 1_555
H3_2 O10_2 1_555 1_555
O11_2 Gd2_2 1_555 1_555
H4_2 O11_2 1_555 1_555
H5_2 O11_2 1_555 1_555
O12_2 Gd2_2 1_555 1_555
H6_2 O12_2 1_555 1_555
H7_2 O12_2 1_555 1_555
C1_2 C2_2 1_555 1_555
C2_2 H8_2 1_555 1_555
C3_2 C2_2 1_555 1_555
C4_2 C3_2 1_555 1_555
H9_2 C4_2 1_555 1_555
C5_2 C4_2 1_555 1_555
C6_2 C1_2 1_555 1_555
H10_2 C6_2 1_555 1_555
C7_2 C3_2 1_555 1_555
C8_2 C7_2 1_555 1_555
H11_2 C8_2 1_555 1_555
C9_2 C8_2 1_555 1_555
H12_2 C9_2 1_555 1_555
C10_2 C9_2 1_555 1_555
C11_2 C10_2 1_555 1_555
H13_2 C11_2 1_555 1_555
C12_2 C7_2 1_555 1_555
H14_2 C12_2 1_555 1_555
C13_2 C10_2 1_555 1_555
C14_2 C5_2 1_555 1_555
C15_2 C14_2 1_555 1_555
H15_2 C15_2 1_555 1_555
C16_2 C15_2 1_555 1_555
H16_2 C16_2 1_555 1_555
C17_2 C16_2 1_555 1_555
C18_2 C17_2 1_555 1_555
H17_2 C18_2 1_555 1_555
C19_2 C14_2 1_555 1_555
H18_2 C19_2 1_555 1_555
C20_2 C17_2 1_555 1_555
O13_2 C53_2 1_555 1_555
O14_2 C53_2 1_555 1_555
O15_2 C60_2 1_555 1_555
O16_2 C60_2 1_555 1_555
C41_2 C1_2 1_555 1_555
C42_2 C41_2 1_555 1_555
H30_2 C42_2 1_555 1_555
C43_2 C42_2 1_555 1_555
C44_2 C43_2 1_555 1_555
H31_2 C44_2 1_555 1_555
C45_2 C44_2 1_555 1_555
C46_2 C41_2 1_555 1_555
H32_2 C46_2 1_555 1_555
C47_2 C43_2 1_555 1_555
C48_2 C47_2 1_555 1_555
H33_2 C48_2 1_555 1_555
C49_2 C48_2 1_555 1_555
H34_2 C49_2 1_555 1_555
C50_2 C49_2 1_555 1_555
C51_2 C50_2 1_555 1_555
H35_2 C51_2 1_555 1_555
C52_2 C47_2 1_555 1_555
H36_2 C52_2 1_555 1_555
C53_2 C50_2 1_555 1_555
C54_2 C45_2 1_555 1_555
C55_2 C54_2 1_555 1_555
H37_2 C55_2 1_555 1_555
C56_2 C55_2 1_555 1_555
H38_2 C56_2 1_555 1_555
C57_2 C56_2 1_555 1_555
C58_2 C57_2 1_555 1_555
H39_2 C58_2 1_555 1_555
C59_2 C54_2 1_555 1_555
H40_2 C59_2 1_555 1_555
C60_2 C57_2 1_555 1_555
H52_2 O9_3 1_555 1_555
Gd11 O3_2 1_555 1_555
O21_2 Gd11 1_555 1_555
H53_2 O21_2 1_555 1_555
H54_2 O21_2 1_555 1_555
O22_2 Gd11 1_555 1_555
H55_2 O22_2 1_555 1_555
H56_2 O22_2 1_555 1_555
O23_2 Gd11 1_555 1_555
H57_2 O23_2 1_555 1_555
H58_2 O23_2 1_555 1_555
Gd5_3 O13_2 1_555 1_555
Gd10_2 O14_2 1_555 1_555
Gd12_2 O15_2 1_555 1_555
O24_2 Gd4 1_555 1_555
O25_2 Gd11 1_555 1_555
O26_2 Gd2_2 1_555 1_555
O27_2 Gd2_2 1_555 1_555
O28_2 Gd4 1_555 1_555
O29_2 Gd2_2 1_555 1_555
O30_2 Gd11 1_555 1_555
O31_2 Gd2_2 1_555 1_555
O32_2 Gd4 1_555 1_555
O33_2 Gd4 1_555 1_555
O4_2 Gd11 1_555 1_555
C5_2 C6_2 1_555 1_555
C11_2 C12_2 1_555 1_555
C18_2 C19_2 1_555 1_555
O16_2 Gd12_2 1_555 1_555
C45_2 C46_2 1_555 1_555
C51_2 C52_2 1_555 1_555
C58_2 C59_2 1_555 1_555
O15_3 C60_3 1_555 1_555
O16_3 C60_3 1_555 1_555
H32_3 C46_3 1_555 1_555
C54_3 C45_3 1_555 1_555
C55_3 C54_3 1_555 1_555
H37_3 C55_3 1_555 1_555
C56_3 C55_3 1_555 1_555
H38_3 C56_3 1_555 1_555
C57_3 C56_3 1_555 1_555
C58_3 C57_3 1_555 1_555
H39_3 C58_3 1_555 1_555
C59_3 C54_3 1_555 1_555
H40_3 C59_3 1_555 1_555
C60_3 C57_3 1_555 1_555
Gd12_3 O15_3 1_555 1_555
O16_3 Gd12_3 1_555 1_555
C45_3 C46_3 1_555 1_555
C58_3 C59_3 1_555 1_555
Gd8 O2_3 1_555 1_555
O2_3 C13_3 1_555 1_555
O10_3 Gd8 1_555 1_555
H2_3 O10_3 1_555 1_555
H3_3 O10_3 1_555 1_555
O11_3 Gd8 1_555 1_555
H4_3 O11_3 1_555 1_555
H5_3 O11_3 1_555 1_555
O12_3 Gd8 1_555 1_555
H6_3 O12_3 1_555 1_555
H7_3 O12_3 1_555 1_555
C2_3 H8_3 1_555 1_555
H11_3 C8_3 1_555 1_555
C9_3 C8_3 1_555 1_555
H12_3 C9_3 1_555 1_555
C10_3 C9_3 1_555 1_555
C13_3 C10_3 1_555 1_555
C44_3 C43_3 1_555 1_555
H31_3 C44_3 1_555 1_555
C47_3 C43_3 1_555 1_555
H35_3 C51_3 1_555 1_555
C52_3 C47_3 1_555 1_555
H36_3 C52_3 1_555 1_555
Gd5 O13_3 1_555 1_555
O26_3 Gd8 1_555 1_555
O27_3 Gd8 1_555 1_555
O31_3 Gd8 1_555 1_555
C51_3 C52_3 1_555 1_555
O3_3 C20_3 1_555 1_555
O4_3 C20_3 1_555 1_555
O7_2 C40_2 1_555 1_555
O8_2 C40_2 1_555 1_555
H10_3 C6_3 1_555 1_555
C14_3 C5_3 1_555 1_555
C15_3 C14_3 1_555 1_555
H15_3 C15_3 1_555 1_555
C16_3 C15_3 1_555 1_555
H16_3 C16_3 1_555 1_555
C17_3 C16_3 1_555 1_555
C18_3 C17_3 1_555 1_555
H17_3 C18_3 1_555 1_555
C19_3 C14_3 1_555 1_555
H18_3 C19_3 1_555 1_555
C20_3 C17_3 1_555 1_555
H21_2 C26_2 1_555 1_555
C34_2 C25_2 1_555 1_555
C35_2 C34_2 1_555 1_555
H26_2 C35_2 1_555 1_555
C36_2 C35_2 1_555 1_555
H27_2 C36_2 1_555 1_555
C37_2 C36_2 1_555 1_555
C38_2 C37_2 1_555 1_555
H28_2 C38_2 1_555 1_555
C39_2 C34_2 1_555 1_555
H29_2 C39_2 1_555 1_555
C40_2 C37_2 1_555 1_555
Gd3_2 O3_3 1_555 1_555
O21_3 Gd3_2 1_555 1_555
H53_3 O21_3 1_555 1_555
H54_3 O21_3 1_555 1_555
O22_3 Gd3_2 1_555 1_555
H55_3 O22_3 1_555 1_555
H56_3 O22_3 1_555 1_555
O23_3 Gd3_2 1_555 1_555
H57_3 O23_3 1_555 1_555
H58_3 O23_3 1_555 1_555
Gd7 O8_2 1_555 1_555
O25_3 Gd3_2 1_555 1_555
O30_3 Gd3_2 1_555 1_555
O4_3 Gd3_2 1_555 1_555
O7_2 Gd3_2 1_555 1_555
C5_3 C6_3 1_555 1_555
C18_3 C19_3 1_555 1_555
C25_2 C26_2 1_555 1_555
C38_2 C39_2 1_555 1_555
O29 C33_2 1_555 1_555
C4_3 C3_3 1_555 1_555
H9_3 C4_3 1_555 1_555
C7_3 C3_3 1_555 1_555
H13_3 C11_3 1_555 1_555
C12_3 C7_3 1_555 1_555
H14_3 C12_3 1_555 1_555
C21_2 C22_2 1_555 1_555
C22_2 H19_2 1_555 1_555
C23_2 C22_2 1_555 1_555
C24_2 C23_2 1_555 1_555
H20_2 C24_2 1_555 1_555
C27_2 C23_2 1_555 1_555
C28_2 C27_2 1_555 1_555
H22_2 C28_2 1_555 1_555
C29_2 C28_2 1_555 1_555
H23_2 C29_2 1_555 1_555
C30_2 C29_2 1_555 1_555
C31_2 C30_2 1_555 1_555
H24_2 C31_2 1_555 1_555
C32_2 C27_2 1_555 1_555
H25_2 C32_2 1_555 1_555
C33_2 O28 1_555 1_555
O14_3 C53_3 1_555 1_555
H30_3 C42_3 1_555 1_555
H33_3 C48_3 1_555 1_555
C49_3 C48_3 1_555 1_555
H34_3 C49_3 1_555 1_555
C50_3 C49_3 1_555 1_555
C53_3 C50_3 1_555 1_555
Gd10_3 O14_3 1_555 1_555
C11_3 C12_3 1_555 1_555
C30_2 C33_2 1_555 1_555
C31_2 C32_2 1_555 1_555
O19_2 C80_2 1_555 1_555
O20_2 C80_2 1_555 1_555
H43_2 C66_2 1_555 1_555
C74_2 C65_2 1_555 1_555
C75_2 C74_2 1_555 1_555
H48_2 C75_2 1_555 1_555
C76_2 C75_2 1_555 1_555
H49_2 C76_2 1_555 1_555
C77_2 C76_2 1_555 1_555
C78_2 C77_2 1_555 1_555
H50_2 C78_2 1_555 1_555
C79_2 C74_2 1_555 1_555
H51_2 C79_2 1_555 1_555
C80_2 C77_2 1_555 1_555
Gd6_2 O20_2 1_555 1_555
Gd11_2 O19_2 1_555 1_555
C65_2 C66_2 1_555 1_555
C78_2 C79_2 1_555 1_555
O28_2 C73_2 1_555 1_555
O29_2 C73_2 1_555 1_555
C62_2 C61_2 1_555 1_555
H41_2 C62_2 1_555 1_555
C63_2 C62_2 1_555 1_555
C64_2 C63_2 1_555 1_555
H42_2 C64_2 1_555 1_555
C67_2 C63_2 1_555 1_555
C68_2 C67_2 1_555 1_555
H44_2 C68_2 1_555 1_555
C69_2 C68_2 1_555 1_555
H45_2 C69_2 1_555 1_555
C70_2 C69_2 1_555 1_555
C71_2 C70_2 1_555 1_555
H46_2 C71_2 1_555 1_555
C72_2 C67_2 1_555 1_555
H47_2 C72_2 1_555 1_555
C73_2 C70_2 1_555 1_555
C71_2 C72_2 1_555 1_555
O3_4 C20_4 1_555 1_555
O4_4 C20_4 1_555 1_555
H10_4 C6_4 1_555 1_555
C14_4 C5_4 1_555 1_555
C15_4 C14_4 1_555 1_555
H15_4 C15_4 1_555 1_555
C16_4 C15_4 1_555 1_555
H16_4 C16_4 1_555 1_555
C17_4 C16_4 1_555 1_555
C18_4 C17_4 1_555 1_555
H17_4 C18_4 1_555 1_555
C19_4 C14_4 1_555 1_555
H18_4 C19_4 1_555 1_555
C20_4 C17_4 1_555 1_555
O15_4 C60_4 1_555 1_555
O16_4 C60_4 1_555 1_555
H32_4 C46_4 1_555 1_555
C54_4 C45_4 1_555 1_555
C55_4 C54_4 1_555 1_555
H37_4 C55_4 1_555 1_555
C56_4 C55_4 1_555 1_555
H38_4 C56_4 1_555 1_555
C57_4 C56_4 1_555 1_555
C58_4 C57_4 1_555 1_555
H39_4 C58_4 1_555 1_555
C59_4 C54_4 1_555 1_555
H40_4 C59_4 1_555 1_555
C60_4 C57_4 1_555 1_555
Gd11_2 O3_4 1_555 1_555
O21_4 Gd11_2 1_555 1_555
H53_4 O21_4 1_555 1_555
H54_4 O21_4 1_555 1_555
O22_4 Gd11_2 1_555 1_555
H55_4 O22_4 1_555 1_555
H56_4 O22_4 1_555 1_555
O23_4 Gd11_2 1_555 1_555
H57_4 O23_4 1_555 1_555
H58_4 O23_4 1_555 1_555
Gd12_4 O15_4 1_555 1_555
O25_4 Gd11_2 1_555 1_555
O30_4 Gd11_2 1_555 1_555
O4_4 Gd11_2 1_555 1_555
C5_4 C6_4 1_555 1_555
C18_4 C19_4 1_555 1_555
O16_4 Gd12_4 1_555 1_555
C45_4 C46_4 1_555 1_555
C58_4 C59_4 1_555 1_555
Gd9 O2_4 1_555 1_555
O24_2 C13_4 1_555 1_555
O2_4 C13_4 1_555 1_555
O10_4 Gd9 1_555 1_555
H2_4 O10_4 1_555 1_555
H3_4 O10_4 1_555 1_555
O11_4 Gd9 1_555 1_555
H4_4 O11_4 1_555 1_555
H5_4 O11_4 1_555 1_555
O12_4 Gd9 1_555 1_555
H6_4 O12_4 1_555 1_555
H7_4 O12_4 1_555 1_555
C1_4 C2_4 1_555 1_555
C2_4 H8_4 1_555 1_555
C3_4 C2_4 1_555 1_555
C4_4 C3_4 1_555 1_555
H9_4 C4_4 1_555 1_555
C7_4 C3_4 1_555 1_555
C8_4 C7_4 1_555 1_555
H11_4 C8_4 1_555 1_555
C9_4 C8_4 1_555 1_555
H12_4 C9_4 1_555 1_555
C10_4 C9_4 1_555 1_555
C11_4 C10_4 1_555 1_555
H13_4 C11_4 1_555 1_555
C12_4 C7_4 1_555 1_555
H14_4 C12_4 1_555 1_555
C13_4 C10_4 1_555 1_555
O13_4 C53_4 1_555 1_555
O14_4 C53_4 1_555 1_555
C41_4 C1_4 1_555 1_555
C42_4 C41_4 1_555 1_555
H30_4 C42_4 1_555 1_555
C43_4 C42_4 1_555 1_555
C44_4 C43_4 1_555 1_555
H31_4 C44_4 1_555 1_555
C47_4 C43_4 1_555 1_555
C48_4 C47_4 1_555 1_555
H33_4 C48_4 1_555 1_555
C49_4 C48_4 1_555 1_555
H34_4 C49_4 1_555 1_555
C50_4 C49_4 1_555 1_555
C51_4 C50_4 1_555 1_555
H35_4 C51_4 1_555 1_555
C52_4 C47_4 1_555 1_555
H36_4 C52_4 1_555 1_555
C53_4 C50_4 1_555 1_555
Gd5_3 O13_4 1_555 1_555
Gd10_4 O14_4 1_555 1_555
O26_4 Gd9 1_555 1_555
O27_4 Gd9 1_555 1_555
O31_4 Gd9 1_555 1_555
C11_4 C12_4 1_555 1_555
C51_4 C52_4 1_555 1_555
O5_2 Gd5_3 1_555 1_555
O6_2 C33_3 1_555 1_555
O7_3 C40_3 1_555 1_555
O8_3 C40_3 1_555 1_555
O9_4 Gd5_3 1_555 1_555
H1_3 O9_4 1_555 1_555
O10_5 Gd10_2 1_555 1_555
H2_5 O10_5 1_555 1_555
H3_5 O10_5 1_555 1_555
O11_5 Gd10_2 1_555 1_555
H4_5 O11_5 1_555 1_555
H5_5 O11_5 1_555 1_555
O12_5 Gd10_2 1_555 1_555
H6_5 O12_5 1_555 1_555
H7_5 O12_5 1_555 1_555
C21_3 C22_3 1_555 1_555
C22_3 H19_3 1_555 1_555
C23_3 C22_3 1_555 1_555
C24_3 C23_3 1_555 1_555
H20_3 C24_3 1_555 1_555
C25_3 C24_3 1_555 1_555
C26_3 C21_3 1_555 1_555
H21_3 C26_3 1_555 1_555
C27_3 C23_3 1_555 1_555
C28_3 C27_3 1_555 1_555
H22_3 C28_3 1_555 1_555
C29_3 C28_3 1_555 1_555
H23_3 C29_3 1_555 1_555
C30_3 C29_3 1_555 1_555
C31_3 C30_3 1_555 1_555
H24_3 C31_3 1_555 1_555
C32_3 C27_3 1_555 1_555
H25_3 C32_3 1_555 1_555
C33_3 O5_2 1_555 1_555
C34_3 C25_3 1_555 1_555
C35_3 C34_3 1_555 1_555
H26_3 C35_3 1_555 1_555
C36_3 C35_3 1_555 1_555
H27_3 C36_3 1_555 1_555
C37_3 C36_3 1_555 1_555
C38_3 C37_3 1_555 1_555
H28_3 C38_3 1_555 1_555
C39_3 C34_3 1_555 1_555
H29_3 C39_3 1_555 1_555
C40_3 C37_3 1_555 1_555
O17_2 C73_3 1_555 1_555
O18_2 C73_3 1_555 1_555
O19_3 C80_3 1_555 1_555
O20_3 C80_3 1_555 1_555
C61_3 C21_3 1_555 1_555
C62_3 C61_3 1_555 1_555
H41_3 C62_3 1_555 1_555
C63_3 C62_3 1_555 1_555
C64_3 C63_3 1_555 1_555
H42_3 C64_3 1_555 1_555
C65_3 C64_3 1_555 1_555
C66_3 C61_3 1_555 1_555
H43_3 C66_3 1_555 1_555
C67_3 C63_3 1_555 1_555
C68_3 C67_3 1_555 1_555
H44_3 C68_3 1_555 1_555
C69_3 C68_3 1_555 1_555
H45_3 C69_3 1_555 1_555
C70_3 C69_3 1_555 1_555
C71_3 C70_3 1_555 1_555
H46_3 C71_3 1_555 1_555
C72_3 C67_3 1_555 1_555
H47_3 C72_3 1_555 1_555
C73_3 C70_3 1_555 1_555
C74_3 C65_3 1_555 1_555
C75_3 C74_3 1_555 1_555
H48_3 C75_3 1_555 1_555
C76_3 C75_3 1_555 1_555
H49_3 C76_3 1_555 1_555
C77_3 C76_3 1_555 1_555
C78_3 C77_3 1_555 1_555
H50_3 C78_3 1_555 1_555
C79_3 C74_3 1_555 1_555
H51_3 C79_3 1_555 1_555
C80_3 C77_3 1_555 1_555
H52_3 O9_4 1_555 1_555
O21_5 Gd12_2 1_555 1_555
H53_5 O21_5 1_555 1_555
H54_5 O21_5 1_555 1_555
O22_5 Gd12_2 1_555 1_555
H55_5 O22_5 1_555 1_555
H56_5 O22_5 1_555 1_555
O23_5 Gd12_2 1_555 1_555
H57_5 O23_5 1_555 1_555
H58_5 O23_5 1_555 1_555
Gd5_2 O17_2 1_555 1_555
Gd6_3 O20_3 1_555 1_555
Gd7_3 O8_3 1_555 1_555
Gd10_4 O6_2 1_555 1_555
Gd10_3 O18_2 1_555 1_555
Gd12 O19_3 1_555 1_555
O25_5 Gd12_2 1_555 1_555
O26_5 Gd10_2 1_555 1_555
O27_5 Gd10_2 1_555 1_555
O28_3 Gd5_3 1_555 1_555
O29_3 Gd10_2 1_555 1_555
O30_5 Gd12_2 1_555 1_555
O31_5 Gd10_2 1_555 1_555
O32_3 Gd5_3 1_555 1_555
O33_3 Gd5_3 1_555 1_555
O7_3 Gd12_2 1_555 1_555
C25_3 C26_3 1_555 1_555
C30_3 C33_3 1_555 1_555
C31_3 C32_3 1_555 1_555
C38_3 C39_3 1_555 1_555
C65_3 C66_3 1_555 1_555
C71_3 C72_3 1_555 1_555
C78_3 C79_3 1_555 1_555
O9_5 Gd5 1_555 1_555
O10_6 Gd10 1_555 1_555
H2_6 O10_6 1_555 1_555
H3_6 O10_6 1_555 1_555
O11_6 Gd10 1_555 1_555
H4_6 O11_6 1_555 1_555
H5_6 O11_6 1_555 1_555
O12_6 Gd10 1_555 1_555
H6_6 O12_6 1_555 1_555
H7_6 O12_6 1_555 1_555
H52_4 O9_5 1_555 1_555
O26_6 Gd10 1_555 1_555
O27_6 Gd10 1_555 1_555
O28_4 Gd5 1_555 1_555
O29_4 Gd10 1_555 1_555
O31_6 Gd10 1_555 1_555
O32_4 Gd5 1_555 1_555
O9_6 Gd5_2 1_555 1_555
H1_4 O9_6 1_555 1_555
O21_6 Gd12 1_555 1_555
H53_6 O21_6 1_555 1_555
H54_6 O21_6 1_555 1_555
O22_6 Gd12 1_555 1_555
H55_6 O22_6 1_555 1_555
H56_6 O22_6 1_555 1_555
O23_6 Gd12 1_555 1_555
H57_6 O23_6 1_555 1_555
H58_6 O23_6 1_555 1_555
O25_6 Gd12 1_555 1_555
O30_6 Gd12 1_555 1_555
O33_4 Gd5_2 1_555 1_555
O7_4 C40_4 1_555 1_555
O8_4 C40_4 1_555 1_555
H21_4 C26_4 1_555 1_555
C34_4 C25_4 1_555 1_555
C35_4 C34_4 1_555 1_555
H26_4 C35_4 1_555 1_555
C36_4 C35_4 1_555 1_555
H27_4 C36_4 1_555 1_555
C37_4 C36_4 1_555 1_555
C38_4 C37_4 1_555 1_555
H28_4 C38_4 1_555 1_555
C39_4 C34_4 1_555 1_555
H29_4 C39_4 1_555 1_555
C40_4 C37_4 1_555 1_555
O19_4 C80_4 1_555 1_555
O20_4 C80_4 1_555 1_555
H43_4 C66_4 1_555 1_555
C74_4 C65_4 1_555 1_555
C75_4 C74_4 1_555 1_555
H48_4 C75_4 1_555 1_555
C76_4 C75_4 1_555 1_555
H49_4 C76_4 1_555 1_555
C77_4 C76_4 1_555 1_555
C78_4 C77_4 1_555 1_555
H50_4 C78_4 1_555 1_555
C79_4 C74_4 1_555 1_555
H51_4 C79_4 1_555 1_555
C80_4 C77_4 1_555 1_555
O21_7 Gd12_4 1_555 1_555
H53_7 O21_7 1_555 1_555
H54_7 O21_7 1_555 1_555
O22_7 Gd12_4 1_555 1_555
H55_7 O22_7 1_555 1_555
H56_7 O22_7 1_555 1_555
O23_7 Gd12_4 1_555 1_555
H57_7 O23_7 1_555 1_555
H58_7 O23_7 1_555 1_555
Gd6_3 O20_4 1_555 1_555
Gd7_2 O8_4 1_555 1_555
Gd12_3 O19_4 1_555 1_555
O25_7 Gd12_4 1_555 1_555
O30_7 Gd12_4 1_555 1_555
O7_4 Gd12_4 1_555 1_555
C25_4 C26_4 1_555 1_555
C38_4 C39_4 1_555 1_555
C65_4 C66_4 1_555 1_555
C78_4 C79_4 1_555 1_555
O29_3 C33_4 1_555 1_555
O10_7 Gd10_4 1_555 1_555
H2_7 O10_7 1_555 1_555
H3_7 O10_7 1_555 1_555
O11_7 Gd10_4 1_555 1_555
H4_7 O11_7 1_555 1_555
H5_7 O11_7 1_555 1_555
O12_7 Gd10_4 1_555 1_555
H6_7 O12_7 1_555 1_555
H7_7 O12_7 1_555 1_555
C21_4 C22_4 1_555 1_555
C22_4 H19_4 1_555 1_555
C23_4 C22_4 1_555 1_555
C24_4 C23_4 1_555 1_555
H20_4 C24_4 1_555 1_555
C27_4 C23_4 1_555 1_555
C28_4 C27_4 1_555 1_555
H22_4 C28_4 1_555 1_555
C29_4 C28_4 1_555 1_555
H23_4 C29_4 1_555 1_555
C30_4 C29_4 1_555 1_555
C31_4 C30_4 1_555 1_555
H24_4 C31_4 1_555 1_555
C32_4 C27_4 1_555 1_555
H25_4 C32_4 1_555 1_555
C33_4 O28_3 1_555 1_555
O28_4 C73_4 1_555 1_555
O29_4 C73_4 1_555 1_555
C61_4 C21_4 1_555 1_555
C62_4 C61_4 1_555 1_555
H41_4 C62_4 1_555 1_555
C63_4 C62_4 1_555 1_555
C64_4 C63_4 1_555 1_555
H42_4 C64_4 1_555 1_555
C67_4 C63_4 1_555 1_555
C68_4 C67_4 1_555 1_555
H44_4 C68_4 1_555 1_555
C69_4 C68_4 1_555 1_555
H45_4 C69_4 1_555 1_555
C70_4 C69_4 1_555 1_555
C71_4 C70_4 1_555 1_555
H46_4 C71_4 1_555 1_555
C72_4 C67_4 1_555 1_555
H47_4 C72_4 1_555 1_555
C73_4 C70_4 1_555 1_555
O26_7 Gd10_4 1_555 1_555
O27_7 Gd10_4 1_555 1_555
O31_7 Gd10_4 1_555 1_555
C30_4 C33_4 1_555 1_555
C31_4 C32_4 1_555 1_555
C71_4 C72_4 1_555 1_555
O21_8 Gd12_3 1_555 1_555
H53_8 O21_8 1_555 1_555
H54_8 O21_8 1_555 1_555
O22_8 Gd12_3 1_555 1_555
H55_8 O22_8 1_555 1_555
H56_8 O22_8 1_555 1_555
O23_8 Gd12_3 1_555 1_555
H57_8 O23_8 1_555 1_555
H58_8 O23_8 1_555 1_555
O25_8 Gd12_3 1_555 1_555
O30_8 Gd12_3 1_555 1_555
O10_8 Gd10_3 1_555 1_555
H2_8 O10_8 1_555 1_555
H3_8 O10_8 1_555 1_555
O11_8 Gd10_3 1_555 1_555
H4_8 O11_8 1_555 1_555
H5_8 O11_8 1_555 1_555
O12_8 Gd10_3 1_555 1_555
H6_8 O12_8 1_555 1_555
H7_8 O12_8 1_555 1_555
O26_8 Gd10_3 1_555 1_555
O27_8 Gd10_3 1_555 1_555
O31_8 Gd10_3 1_555 1_555
O25_2 C13_5 1_555 1_555
O9_7 Gd6 1_555 1_555
C2_5 H8_5 1_555 1_555
H11_5 C8_5 1_555 1_555
C9_5 C8_5 1_555 1_555
H12_5 C9_5 1_555 1_555
C10_5 C9_5 1_555 1_555
C13_5 C10_5 1_555 1_555
O26_5 C60_5 1_555 1_555
O27_5 C60_5 1_555 1_555
C44_5 C43_5 1_555 1_555
H31_5 C44_5 1_555 1_555
C45_5 C44_5 1_555 1_555
C46_5 C41_5 1_555 1_555
H32_5 C46_5 1_555 1_555
C47_5 C43_5 1_555 1_555
H35_5 C51_5 1_555 1_555
C52_5 C47_5 1_555 1_555
H36_5 C52_5 1_555 1_555
C54_5 C45_5 1_555 1_555
C55_5 C54_5 1_555 1_555
H37_5 C55_5 1_555 1_555
C56_5 C55_5 1_555 1_555
H38_5 C56_5 1_555 1_555
C57_5 C56_5 1_555 1_555
C58_5 C57_5 1_555 1_555
H39_5 C58_5 1_555 1_555
C59_5 C54_5 1_555 1_555
H40_5 C59_5 1_555 1_555
C60_5 C57_5 1_555 1_555
H52_5 O9_7 1_555 1_555
Gd7_2 O13_5 1_555 1_555
O24_3 Gd6 1_555 1_555
O28_5 Gd6 1_555 1_555
C45_5 C46_5 1_555 1_555
C51_5 C52_5 1_555 1_555
C58_5 C59_5 1_555 1_555
O17_3 C73_5 1_555 1_555
O30_3 C73_5 1_555 1_555
O31 C80_5 1_555 1_555
O32 C80_5 1_555 1_555
C62_5 C61_5 1_555 1_555
H41_5 C62_5 1_555 1_555
C63_5 C62_5 1_555 1_555
C64_5 C63_5 1_555 1_555
H42_5 C64_5 1_555 1_555
C65_5 C64_5 1_555 1_555
C66_5 C61_5 1_555 1_555
H43_5 C66_5 1_555 1_555
C67_5 C63_5 1_555 1_555
C68_5 C67_5 1_555 1_555
H44_5 C68_5 1_555 1_555
C69_5 C68_5 1_555 1_555
H45_5 C69_5 1_555 1_555
C70_5 C69_5 1_555 1_555
C71_5 C70_5 1_555 1_555
H46_5 C71_5 1_555 1_555
C72_5 C67_5 1_555 1_555
H47_5 C72_5 1_555 1_555
C73_5 C70_5 1_555 1_555
C74_5 C65_5 1_555 1_555
C75_5 C74_5 1_555 1_555
H48_5 C75_5 1_555 1_555
C76_5 C75_5 1_555 1_555
H49_5 C76_5 1_555 1_555
C77_5 C76_5 1_555 1_555
C78_5 C77_5 1_555 1_555
H50_5 C78_5 1_555 1_555
C79_5 C74_5 1_555 1_555
H51_5 C79_5 1_555 1_555
C80_5 C77_5 1_555 1_555
Gd7 O17_3 1_555 1_555
C65_5 C66_5 1_555 1_555
C71_5 C72_5 1_555 1_555
C78_5 C79_5 1_555 1_555
Gd6_2 O1_3 1_555 1_555
O26_2 C20_5 1_555 1_555
O27_2 C20_5 1_555 1_555
O5_3 Gd6_2 1_555 1_555
O30_4 C33_5 1_555 1_555
O31_2 C40_5 1_555 1_555
O32_2 C40_5 1_555 1_555
O9_8 Gd6_2 1_555 1_555
H1_5 O9_8 1_555 1_555
C4_5 C3_5 1_555 1_555
H9_5 C4_5 1_555 1_555
C5_5 C4_5 1_555 1_555
C6_5 C1_5 1_555 1_555
H10_5 C6_5 1_555 1_555
C7_5 C3_5 1_555 1_555
H13_5 C11_5 1_555 1_555
C12_5 C7_5 1_555 1_555
H14_5 C12_5 1_555 1_555
C14_5 C5_5 1_555 1_555
C15_5 C14_5 1_555 1_555
H15_5 C15_5 1_555 1_555
C16_5 C15_5 1_555 1_555
H16_5 C16_5 1_555 1_555
C17_5 C16_5 1_555 1_555
C18_5 C17_5 1_555 1_555
H17_5 C18_5 1_555 1_555
C19_5 C14_5 1_555 1_555
H18_5 C19_5 1_555 1_555
C20_5 C17_5 1_555 1_555
C21_5 C22_5 1_555 1_555
C22_5 H19_5 1_555 1_555
C23_5 C22_5 1_555 1_555
C24_5 C23_5 1_555 1_555
H20_5 C24_5 1_555 1_555
C25_5 C24_5 1_555 1_555
C26_5 C21_5 1_555 1_555
H21_5 C26_5 1_555 1_555
C27_5 C23_5 1_555 1_555
C28_5 C27_5 1_555 1_555
H22_5 C28_5 1_555 1_555
C29_5 C28_5 1_555 1_555
H23_5 C29_5 1_555 1_555
C30_5 C29_5 1_555 1_555
C31_5 C30_5 1_555 1_555
H24_5 C31_5 1_555 1_555
C32_5 C27_5 1_555 1_555
H25_5 C32_5 1_555 1_555
C33_5 O5_3 1_555 1_555
C34_5 C25_5 1_555 1_555
C35_5 C34_5 1_555 1_555
H26_5 C35_5 1_555 1_555
C36_5 C35_5 1_555 1_555
H27_5 C36_5 1_555 1_555
C37_5 C36_5 1_555 1_555
C38_5 C37_5 1_555 1_555
H28_5 C38_5 1_555 1_555
C39_5 C34_5 1_555 1_555
H29_5 C39_5 1_555 1_555
C40_5 C37_5 1_555 1_555
O25_5 C53_5 1_555 1_555
H30_5 C42_5 1_555 1_555
H33_5 C48_5 1_555 1_555
C49_5 C48_5 1_555 1_555
H34_5 C49_5 1_555 1_555
C50_5 C49_5 1_555 1_555
C53_5 C50_5 1_555 1_555
C5_5 C6_5 1_555 1_555
C11_5 C12_5 1_555 1_555
C18_5 C19_5 1_555 1_555
C25_5 C26_5 1_555 1_555
C30_5 C33_5 1_555 1_555
C31_5 C32_5 1_555 1_555
C38_5 C39_5 1_555 1_555
Gd7 O1_4 1_555 1_555
O1_4 C13_6 1_555 1_555
O25 C13_6 1_555 1_555
O26 C20_6 1_555 1_555
O27 C20_6 1_555 1_555
O9_9 Gd7 1_555 1_555
H1_6 O9_9 1_555 1_555
C1_6 C2_6 1_555 1_555
C2_6 H8_6 1_555 1_555
C3_6 C2_6 1_555 1_555
C4_6 C3_6 1_555 1_555
H9_6 C4_6 1_555 1_555
C5_6 C4_6 1_555 1_555
C6_6 C1_6 1_555 1_555
H10_6 C6_6 1_555 1_555
C7_6 C3_6 1_555 1_555
C8_6 C7_6 1_555 1_555
H11_6 C8_6 1_555 1_555
C9_6 C8_6 1_555 1_555
H12_6 C9_6 1_555 1_555
C10_6 C9_6 1_555 1_555
C11_6 C10_6 1_555 1_555
H13_6 C11_6 1_555 1_555
C12_6 C7_6 1_555 1_555
H14_6 C12_6 1_555 1_555
C13_6 C10_6 1_555 1_555
C14_6 C5_6 1_555 1_555
C15_6 C14_6 1_555 1_555
H15_6 C15_6 1_555 1_555
C16_6 C15_6 1_555 1_555
H16_6 C16_6 1_555 1_555
C17_6 C16_6 1_555 1_555
C18_6 C17_6 1_555 1_555
H17_6 C18_6 1_555 1_555
C19_6 C14_6 1_555 1_555
H18_6 C19_6 1_555 1_555
C20_6 C17_6 1_555 1_555
O13_6 C53_6 1_555 1_555
O25_6 C53_6 1_555 1_555
O26_6 C60_6 1_555 1_555
O27_6 C60_6 1_555 1_555
C41_6 C1_6 1_555 1_555
C42_6 C41_6 1_555 1_555
H30_6 C42_6 1_555 1_555
C43_6 C42_6 1_555 1_555
C44_6 C43_6 1_555 1_555
H31_6 C44_6 1_555 1_555
C45_6 C44_6 1_555 1_555
C46_6 C41_6 1_555 1_555
H32_6 C46_6 1_555 1_555
C47_6 C43_6 1_555 1_555
C48_6 C47_6 1_555 1_555
H33_6 C48_6 1_555 1_555
C49_6 C48_6 1_555 1_555
H34_6 C49_6 1_555 1_555
C50_6 C49_6 1_555 1_555
C51_6 C50_6 1_555 1_555
H35_6 C51_6 1_555 1_555
C52_6 C47_6 1_555 1_555
H36_6 C52_6 1_555 1_555
C53_6 C50_6 1_555 1_555
C54_6 C45_6 1_555 1_555
C55_6 C54_6 1_555 1_555
H37_6 C55_6 1_555 1_555
C56_6 C55_6 1_555 1_555
H38_6 C56_6 1_555 1_555
C57_6 C56_6 1_555 1_555
C58_6 C57_6 1_555 1_555
H39_6 C58_6 1_555 1_555
C59_6 C54_6 1_555 1_555
H40_6 C59_6 1_555 1_555
C60_6 C57_6 1_555 1_555
H52_6 O9_9 1_555 1_555
Gd6_3 O13_6 1_555 1_555
O24_4 Gd7 1_555 1_555
O28_6 Gd7 1_555 1_555
C5_6 C6_6 1_555 1_555
C11_6 C12_6 1_555 1_555
C18_6 C19_6 1_555 1_555
C45_6 C46_6 1_555 1_555
C51_6 C52_6 1_555 1_555
C58_6 C59_6 1_555 1_555
O28_6 C73_6 1_555 1_555
O30 C73_6 1_555 1_555
C62_6 C61_6 1_555 1_555
H41_6 C62_6 1_555 1_555
C63_6 C62_6 1_555 1_555
C64_6 C63_6 1_555 1_555
H42_6 C64_6 1_555 1_555
C67_6 C63_6 1_555 1_555
C68_6 C67_6 1_555 1_555
H44_6 C68_6 1_555 1_555
C69_6 C68_6 1_555 1_555
H45_6 C69_6 1_555 1_555
C70_6 C69_6 1_555 1_555
C71_6 C70_6 1_555 1_555
H46_6 C71_6 1_555 1_555
C72_6 C67_6 1_555 1_555
H47_6 C72_6 1_555 1_555
C73_6 C70_6 1_555 1_555
C71_6 C72_6 1_555 1_555
O31_3 C80_6 1_555 1_555
O33 C80_6 1_555 1_555
H43_6 C66_6 1_555 1_555
C74_6 C65_6 1_555 1_555
C75_6 C74_6 1_555 1_555
H48_6 C75_6 1_555 1_555
C76_6 C75_6 1_555 1_555
H49_6 C76_6 1_555 1_555
C77_6 C76_6 1_555 1_555
C78_6 C77_6 1_555 1_555
H50_6 C78_6 1_555 1_555
C79_6 C74_6 1_555 1_555
H51_6 C79_6 1_555 1_555
C80_6 C77_6 1_555 1_555
C65_6 C66_6 1_555 1_555
C78_6 C79_6 1_555 1_555
O30_2 C33_6 1_555 1_555
C4_7 C3_7 1_555 1_555
H9_7 C4_7 1_555 1_555
C7_7 C3_7 1_555 1_555
H13_7 C11_7 1_555 1_555
C12_7 C7_7 1_555 1_555
H14_7 C12_7 1_555 1_555
C21_6 C22_6 1_555 1_555
C22_6 H19_6 1_555 1_555
C23_6 C22_6 1_555 1_555
C24_6 C23_6 1_555 1_555
H20_6 C24_6 1_555 1_555
C27_6 C23_6 1_555 1_555
C28_6 C27_6 1_555 1_555
H22_6 C28_6 1_555 1_555
C29_6 C28_6 1_555 1_555
H23_6 C29_6 1_555 1_555
C30_6 C29_6 1_555 1_555
C31_6 C30_6 1_555 1_555
H24_6 C31_6 1_555 1_555
C32_6 C27_6 1_555 1_555
H25_6 C32_6 1_555 1_555
C33_6 O28_5 1_555 1_555
O25_7 C53_7 1_555 1_555
H30_7 C42_7 1_555 1_555
H33_7 C48_7 1_555 1_555
C49_7 C48_7 1_555 1_555
H34_7 C49_7 1_555 1_555
C50_7 C49_7 1_555 1_555
C53_7 C50_7 1_555 1_555
C11_7 C12_7 1_555 1_555
C30_6 C33_6 1_555 1_555
C31_6 C32_6 1_555 1_555
O26_4 C20_7 1_555 1_555
O27_4 C20_7 1_555 1_555
O31_4 C40_6 1_555 1_555
O33_2 C40_6 1_555 1_555
H10_7 C6_7 1_555 1_555
C14_7 C5_7 1_555 1_555
C15_7 C14_7 1_555 1_555
H15_7 C15_7 1_555 1_555
C16_7 C15_7 1_555 1_555
H16_7 C16_7 1_555 1_555
C17_7 C16_7 1_555 1_555
C18_7 C17_7 1_555 1_555
H17_7 C18_7 1_555 1_555
C19_7 C14_7 1_555 1_555
H18_7 C19_7 1_555 1_555
C20_7 C17_7 1_555 1_555
H21_6 C26_6 1_555 1_555
C34_6 C25_6 1_555 1_555
C35_6 C34_6 1_555 1_555
H26_6 C35_6 1_555 1_555
C36_6 C35_6 1_555 1_555
H27_6 C36_6 1_555 1_555
C37_6 C36_6 1_555 1_555
C38_6 C37_6 1_555 1_555
H28_6 C38_6 1_555 1_555
C39_6 C34_6 1_555 1_555
H29_6 C39_6 1_555 1_555
C40_6 C37_6 1_555 1_555
C5_7 C6_7 1_555 1_555
C18_7 C19_7 1_555 1_555
C25_6 C26_6 1_555 1_555
C38_6 C39_6 1_555 1_555
O25_4 C13_7 1_555 1_555
C2_7 H8_7 1_555 1_555
H11_7 C8_7 1_555 1_555
C9_7 C8_7 1_555 1_555
H12_7 C9_7 1_555 1_555
C10_7 C9_7 1_555 1_555
C13_7 C10_7 1_555 1_555
C44_7 C43_7 1_555 1_555
H31_7 C44_7 1_555 1_555
C47_7 C43_7 1_555 1_555
H35_7 C51_7 1_555 1_555
C52_7 C47_7 1_555 1_555
H36_7 C52_7 1_555 1_555
Gd7_3 O13_7 1_555 1_555
C51_7 C52_7 1_555 1_555
O26_7 C60_7 1_555 1_555
O27_7 C60_7 1_555 1_555
H32_7 C46_7 1_555 1_555
C54_7 C45_7 1_555 1_555
C55_7 C54_7 1_555 1_555
H37_7 C55_7 1_555 1_555
C56_7 C55_7 1_555 1_555
H38_7 C56_7 1_555 1_555
C57_7 C56_7 1_555 1_555
C58_7 C57_7 1_555 1_555
H39_7 C58_7 1_555 1_555
C59_7 C54_7 1_555 1_555
H40_7 C59_7 1_555 1_555
C60_7 C57_7 1_555 1_555
C45_7 C46_7 1_555 1_555
C58_7 C59_7 1_555 1_555
O24_4 C13_8 1_555 1_555
O25_3 C13_8 1_555 1_555
C1_8 C2_8 1_555 1_555
C2_8 H8_8 1_555 1_555
C3_8 C2_8 1_555 1_555
C4_8 C3_8 1_555 1_555
H9_8 C4_8 1_555 1_555
C7_8 C3_8 1_555 1_555
C8_8 C7_8 1_555 1_555
H11_8 C8_8 1_555 1_555
C9_8 C8_8 1_555 1_555
H12_8 C9_8 1_555 1_555
C10_8 C9_8 1_555 1_555
C11_8 C10_8 1_555 1_555
H13_8 C11_8 1_555 1_555
C12_8 C7_8 1_555 1_555
H14_8 C12_8 1_555 1_555
C13_8 C10_8 1_555 1_555
O13_8 C53_8 1_555 1_555
O25_8 C53_8 1_555 1_555
C41_8 C1_8 1_555 1_555
C42_8 C41_8 1_555 1_555
H30_8 C42_8 1_555 1_555
C43_8 C42_8 1_555 1_555
C44_8 C43_8 1_555 1_555
H31_8 C44_8 1_555 1_555
C47_8 C43_8 1_555 1_555
C48_8 C47_8 1_555 1_555
H33_8 C48_8 1_555 1_555
C49_8 C48_8 1_555 1_555
H34_8 C49_8 1_555 1_555
C50_8 C49_8 1_555 1_555
C51_8 C50_8 1_555 1_555
H35_8 C51_8 1_555 1_555
C52_8 C47_8 1_555 1_555
H36_8 C52_8 1_555 1_555
C53_8 C50_8 1_555 1_555
Gd6_3 O13_8 1_555 1_555
C11_8 C12_8 1_555 1_555
C51_8 C52_8 1_555 1_555
O26_3 C20_8 1_555 1_555
O27_3 C20_8 1_555 1_555
H10_8 C6_8 1_555 1_555
C14_8 C5_8 1_555 1_555
C15_8 C14_8 1_555 1_555
H15_8 C15_8 1_555 1_555
C16_8 C15_8 1_555 1_555
H16_8 C16_8 1_555 1_555
C17_8 C16_8 1_555 1_555
C18_8 C17_8 1_555 1_555
H17_8 C18_8 1_555 1_555
C19_8 C14_8 1_555 1_555
H18_8 C19_8 1_555 1_555
C20_8 C17_8 1_555 1_555
O26_8 C60_8 1_555 1_555
O27_8 C60_8 1_555 1_555
H32_8 C46_8 1_555 1_555
C54_8 C45_8 1_555 1_555
C55_8 C54_8 1_555 1_555
H37_8 C55_8 1_555 1_555
C56_8 C55_8 1_555 1_555
H38_8 C56_8 1_555 1_555
C57_8 C56_8 1_555 1_555
C58_8 C57_8 1_555 1_555
H39_8 C58_8 1_555 1_555
C59_8 C54_8 1_555 1_555
H40_8 C59_8 1_555 1_555
C60_8 C57_8 1_555 1_555
C5_8 C6_8 1_555 1_555
C18_8 C19_8 1_555 1_555
C45_8 C46_8 1_555 1_555
C58_8 C59_8 1_555 1_555
O5_4 Gd6_3 1_555 1_555
O30_8 C33_7 1_555 1_555
O31_6 C40_7 1_555 1_555
O32_4 C40_7 1_555 1_555
O9_10 Gd6_3 1_555 1_555
H1_7 O9_10 1_555 1_555
C21_7 C22_7 1_555 1_555
C22_7 H19_7 1_555 1_555
C23_7 C22_7 1_555 1_555
C24_7 C23_7 1_555 1_555
H20_7 C24_7 1_555 1_555
C25_7 C24_7 1_555 1_555
C26_7 C21_7 1_555 1_555
H21_7 C26_7 1_555 1_555
C27_7 C23_7 1_555 1_555
C28_7 C27_7 1_555 1_555
H22_7 C28_7 1_555 1_555
C29_7 C28_7 1_555 1_555
H23_7 C29_7 1_555 1_555
C30_7 C29_7 1_555 1_555
C31_7 C30_7 1_555 1_555
H24_7 C31_7 1_555 1_555
C32_7 C27_7 1_555 1_555
H25_7 C32_7 1_555 1_555
C33_7 O5_4 1_555 1_555
C34_7 C25_7 1_555 1_555
C35_7 C34_7 1_555 1_555
H26_7 C35_7 1_555 1_555
C36_7 C35_7 1_555 1_555
H27_7 C36_7 1_555 1_555
C37_7 C36_7 1_555 1_555
C38_7 C37_7 1_555 1_555
H28_7 C38_7 1_555 1_555
C39_7 C34_7 1_555 1_555
H29_7 C39_7 1_555 1_555
C40_7 C37_7 1_555 1_555
O17_4 C73_7 1_555 1_555
O30_7 C73_7 1_555 1_555
O31_5 C80_7 1_555 1_555
O32_3 C80_7 1_555 1_555
C61_7 C21_7 1_555 1_555
C62_7 C61_7 1_555 1_555
H41_7 C62_7 1_555 1_555
C63_7 C62_7 1_555 1_555
C64_7 C63_7 1_555 1_555
H42_7 C64_7 1_555 1_555
C65_7 C64_7 1_555 1_555
C66_7 C61_7 1_555 1_555
H43_7 C66_7 1_555 1_555
C67_7 C63_7 1_555 1_555
C68_7 C67_7 1_555 1_555
H44_7 C68_7 1_555 1_555
C69_7 C68_7 1_555 1_555
H45_7 C69_7 1_555 1_555
C70_7 C69_7 1_555 1_555
C71_7 C70_7 1_555 1_555
H46_7 C71_7 1_555 1_555
C72_7 C67_7 1_555 1_555
H47_7 C72_7 1_555 1_555
C73_7 C70_7 1_555 1_555
C74_7 C65_7 1_555 1_555
C75_7 C74_7 1_555 1_555
H48_7 C75_7 1_555 1_555
C76_7 C75_7 1_555 1_555
H49_7 C76_7 1_555 1_555
C77_7 C76_7 1_555 1_555
C78_7 C77_7 1_555 1_555
H50_7 C78_7 1_555 1_555
C79_7 C74_7 1_555 1_555
H51_7 C79_7 1_555 1_555
C80_7 C77_7 1_555 1_555
H52_7 O9_10 1_555 1_555
Gd7_2 O17_4 1_555 1_555
O28_7 Gd6_3 1_555 1_555
C25_7 C26_7 1_555 1_555
C30_7 C33_7 1_555 1_555
C31_7 C32_7 1_555 1_555
C38_7 C39_7 1_555 1_555
C65_7 C66_7 1_555 1_555
C71_7 C72_7 1_555 1_555
C78_7 C79_7 1_555 1_555
O9_11 Gd7_2 1_555 1_555
H1_8 O9_11 1_555 1_555
O9_12 Gd7_3 1_555 1_555
H52_8 O9_12 1_555 1_555
O28_8 Gd7_3 1_555 1_555
O30_6 C33_8 1_555 1_555
C21_8 C22_8 1_555 1_555
C22_8 H19_8 1_555 1_555
C23_8 C22_8 1_555 1_555
C24_8 C23_8 1_555 1_555
H20_8 C24_8 1_555 1_555
C27_8 C23_8 1_555 1_555
C28_8 C27_8 1_555 1_555
H22_8 C28_8 1_555 1_555
C29_8 C28_8 1_555 1_555
H23_8 C29_8 1_555 1_555
C30_8 C29_8 1_555 1_555
C31_8 C30_8 1_555 1_555
H24_8 C31_8 1_555 1_555
C32_8 C27_8 1_555 1_555
H25_8 C32_8 1_555 1_555
C33_8 O28_7 1_555 1_555
O28_8 C73_8 1_555 1_555
O30_5 C73_8 1_555 1_555
C61_8 C21_8 1_555 1_555
C62_8 C61_8 1_555 1_555
H41_8 C62_8 1_555 1_555
C63_8 C62_8 1_555 1_555
C64_8 C63_8 1_555 1_555
H42_8 C64_8 1_555 1_555
C67_8 C63_8 1_555 1_555
C68_8 C67_8 1_555 1_555
H44_8 C68_8 1_555 1_555
C69_8 C68_8 1_555 1_555
H45_8 C69_8 1_555 1_555
C70_8 C69_8 1_555 1_555
C71_8 C70_8 1_555 1_555
H46_8 C71_8 1_555 1_555
C72_8 C67_8 1_555 1_555
H47_8 C72_8 1_555 1_555
C73_8 C70_8 1_555 1_555
C30_8 C33_8 1_555 1_555
C31_8 C32_8 1_555 1_555
C71_8 C72_8 1_555 1_555
O31_8 C40_8 1_555 1_555
O33_4 C40_8 1_555 1_555
H21_8 C26_8 1_555 1_555
C34_8 C25_8 1_555 1_555
C35_8 C34_8 1_555 1_555
H26_8 C35_8 1_555 1_555
C36_8 C35_8 1_555 1_555
H27_8 C36_8 1_555 1_555
C37_8 C36_8 1_555 1_555
C38_8 C37_8 1_555 1_555
H28_8 C38_8 1_555 1_555
C39_8 C34_8 1_555 1_555
H29_8 C39_8 1_555 1_555
C40_8 C37_8 1_555 1_555
O31_7 C80_8 1_555 1_555
O33_3 C80_8 1_555 1_555
H43_8 C66_8 1_555 1_555
C74_8 C65_8 1_555 1_555
C75_8 C74_8 1_555 1_555
H48_8 C75_8 1_555 1_555
C76_8 C75_8 1_555 1_555
H49_8 C76_8 1_555 1_555
C77_8 C76_8 1_555 1_555
C78_8 C77_8 1_555 1_555
H50_8 C78_8 1_555 1_555
C79_8 C74_8 1_555 1_555
H51_8 C79_8 1_555 1_555
C80_8 C77_8 1_555 1_555
C25_8 C26_8 1_555 1_555
C38_8 C39_8 1_555 1_555
C65_8 C66_8 1_555 1_555
C78_8 C79_8 1_555 1_555

#END
