
###############################################################################
#
# This file contains modified crystal structure data generated from the
# MOF subset of the Cambridge Structural Database (CSD) v543 
# hosted by the Cambridge Crystallographic Data Centre (CCDC).
#
# This work is licensed under the Creative Commons
# Attribution-NonCommercial-ShareAlike 4.0 International License.
# To view a copy of this license, visit
# http://creativecommons.org/licenses/by-nc-sa/4.0/
# or send a letter to
# Creative Commons, PO Box 1866, Mountain View, CA 94042, USA.
#
# CIF created using the CSD Python API on 29 September 2022
# The structure has been converted into the P1 space group
# The structure has a 3D framework
# The original CSD entry ATEZAC is in the monoclinic crystal system
# The framework has been calculated to contain at least 10.0% void space
# The void calculation uses a probe of radius 1.32A, grid spacing 0.4
# The framework is charged, counterions have been retained in the structure
#
###############################################################################

data_ATEZAC
_chemical_formula_moiety         '(C320 H200 Er14 O78 7+)n'
_symmetry_cell_setting           triclinic
_symmetry_space_group_name_H-M   'P 1'
_symmetry_Int_Tables_number      1
_space_group_name_Hall           'P 1'
loop_
_symmetry_equiv_pos_site_id
_symmetry_equiv_pos_as_xyz
1 x,y,z
_cell_length_a                   32.318(3)
_cell_length_b                   29.354(3)
_cell_length_c                   18.5232(17)
_cell_angle_alpha                90
_cell_angle_beta                 104.277(2)
_cell_angle_gamma                90
_cell_volume                     17029.5
loop_
_atom_site_label
_atom_site_type_symbol
_atom_site_fract_x
_atom_site_fract_y
_atom_site_fract_z
Er1 Er 0.0000 0.306181(9) 0.2500
Er2 Er 0.014358(6) 0.228319(8) 0.046227(15)
O1 O 0.03692(12) 0.20545(13) 0.1636(3)
O2 O 0.04525(11) 0.24637(13) 0.2678(3)
O3 O 0.46091(12) 0.18313(17) 0.6361(3)
O4 O 0.45224(12) 0.23387(16) 0.5460(3)
O9 O 0.0000 0.3874(3) 0.2500
H1 H 0.0247 0.3967 0.2596
C1 C 0.24582(13) 0.03994(14) 0.3985(3)
C2 C 0.20855(13) 0.06385(15) 0.3672(3)
H4 H 0.1837 0.0479 0.3457
C3 C 0.20785(13) 0.11092(15) 0.3674(3)
C4 C 0.24458(14) 0.13549(17) 0.4021(3)
H5 H 0.2441 0.1672 0.4025
C5 C 0.28184(14) 0.11221(17) 0.4360(3)
C6 C 0.28194(14) 0.06445(16) 0.4333(3)
H6 H 0.3069 0.0488 0.4554
C7 C 0.16767(13) 0.13716(15) 0.3297(3)
C8 C 0.15455(16) 0.17325(18) 0.3664(3)
H7 H 0.1706 0.1810 0.4137
C9 C 0.11854(16) 0.19800(17) 0.3351(4)
H8 H 0.1104 0.2222 0.3610
C10 C 0.09444(14) 0.18650(14) 0.2646(3)
C11 C 0.10664(16) 0.15034(18) 0.2272(3)
H9 H 0.0908 0.1429 0.1796
C12 C 0.14241(15) 0.12505(16) 0.2603(3)
H10 H 0.1496 0.0997 0.2358
C13 C 0.05575(16) 0.21519(19) 0.2296(4)
C14 C 0.32140(14) 0.13725(17) 0.4725(4)
C15 C 0.34757(17) 0.1202(2) 0.5381(4)
H11 H 0.3395 0.0941 0.5595
C16 C 0.38538(16) 0.1416(2) 0.5717(4)
H12 H 0.4025 0.1299 0.6156
C17 C 0.39784(14) 0.1803(2) 0.5405(3)
C18 C 0.37149(16) 0.19813(19) 0.4771(3)
H13 H 0.3792 0.2248 0.4568
C19 C 0.33358(15) 0.17684(18) 0.4432(4)
H14 H 0.3161 0.1893 0.4002
C20 C 0.43986(16) 0.2019(3) 0.5766(4)
O19 O 0.03578(16) 0.17040(17) 0.4555(3)
H27 H 0.0495 0.1758 0.4246
H28 H 0.0231 0.1449 0.4443
Er7 Er 0.5000 0.193819(9) 0.7500
Er13 Er 0.514358(6) 0.271681(8) 0.546227(15)
O20 O 0.03909(12) 0.31687(17) 0.3639(3)
O22 O 0.04776(12) 0.26613(16) 0.4540(3)
O25 O 0.08177(16) 0.22194(16) 0.0188(4)
O27 O 0.04683(14) 0.16012(16) 0.0155(4)
O29 O 0.04740(12) 0.29307(13) 0.0911(3)
O31 O 0.05388(11) 0.32973(14) 0.1972(2)
O5 O 0.08177(16) 0.77806(16) 0.5188(4)
O6 O 0.04683(14) 0.83988(16) 0.5155(4)
O7 O 0.45260(12) 0.79307(13) 0.4089(3)
O8 O 0.44612(11) 0.82973(14) 0.3028(2)
C21 C 0.24737(13) 0.98985(15) 0.4023(3)
C22 C 0.28265(14) 0.96645(16) 0.3933(3)
H15 H 0.3048 0.9826 0.3812
C23 C 0.28630(15) 0.91832(16) 0.4021(3)
C24 C 0.25279(15) 0.89496(16) 0.4188(3)
H16 H 0.2545 0.8635 0.4245
C25 C 0.21633(15) 0.91777(16) 0.4273(4)
C26 C 0.21416(14) 0.96490(16) 0.4193(3)
H17 H 0.1900 0.9802 0.4254
C27 C 0.18148(16) 0.89259(16) 0.4500(4)
C28 C 0.11430(17) 0.8460(2) 0.4881(4)
C29 C 0.07927(18) 0.8191(2) 0.5081(4)
C30 C 0.32459(15) 0.89410(16) 0.3911(3)
C31 C 0.34066(16) 0.85552(16) 0.4352(3)
H18 H 0.3268 0.8453 0.4706
C32 C 0.37638(16) 0.83300(16) 0.4264(4)
H19 H 0.3870 0.8082 0.4567
C33 C 0.39677(14) 0.84713(16) 0.3723(3)
C34 C 0.38048(16) 0.88396(17) 0.3275(3)
H20 H 0.3930 0.8928 0.2895
C35 C 0.34592(16) 0.90734(17) 0.3391(3)
H21 H 0.3366 0.9332 0.3106
C36 C 0.43473(16) 0.82094(18) 0.3595(4)
C37 C 0.1140(3) 0.8864(3) 0.4779(9)
H22 H 0.0910 0.9031 0.4855
C38 C 0.1817(4) 0.8506(5) 0.4547(7)
H23 H 0.1997 0.8330 0.4338
C39 C 0.1515(4) 0.8284(5) 0.4957(7)
H24 H 0.1597 0.8028 0.5254
C40 C 0.1463(3) 0.9098(2) 0.4554(9)
H25 H 0.1416 0.9405 0.4433
Er5 Er 0.5000 0.806181(9) 0.2500
Er9 Er 0.485642(6) 0.728319(8) 0.453773(15)
Er11 Er 0.014358(6) 0.771681(8) 0.546227(15)
Er1_2 Er 1.0000 0.306181(9) 0.2500
O9_2 O 1.0000 0.3874(3) 0.2500
O10 O 0.96422(16) 0.17040(17) 0.0445(3)
H2 H 0.9505 0.1758 0.0754
H3 H 0.9769 0.1449 0.0557
H26 H 0.9753 0.3967 0.2404
Er3 Er 0.985642(6) 0.228319(8) 0.453773(15)
O11 O 0.96308(12) 0.20545(13) 0.3364(3)
O12 O 0.95475(11) 0.24637(13) 0.2322(3)
C41 C 0.75418(13) 0.03994(14) 0.1015(3)
C42 C 0.79145(13) 0.06385(15) 0.1328(3)
H29 H 0.8163 0.0479 0.1543
C43 C 0.79215(13) 0.11092(15) 0.1326(3)
C44 C 0.75542(14) 0.13549(17) 0.0979(3)
H30 H 0.7559 0.1672 0.0975
C45 C 0.71816(14) 0.11221(17) 0.0640(3)
C46 C 0.71806(14) 0.06445(16) 0.0667(3)
H31 H 0.6931 0.0488 0.0446
C47 C 0.83233(13) 0.13716(15) 0.1703(3)
C48 C 0.84545(16) 0.17325(18) 0.1336(3)
H32 H 0.8294 0.1810 0.0863
C49 C 0.88146(16) 0.19800(17) 0.1649(4)
H33 H 0.8896 0.2222 0.1390
C50 C 0.90556(14) 0.18650(14) 0.2354(3)
C51 C 0.89336(16) 0.15034(18) 0.2728(3)
H34 H 0.9092 0.1429 0.3204
C52 C 0.85759(15) 0.12505(16) 0.2397(3)
H35 H 0.8504 0.0997 0.2642
C53 C 0.94425(16) 0.21519(19) 0.2704(4)
C54 C 0.67860(14) 0.13725(17) 0.0275(4)
C58 C 0.62851(16) 0.19813(19) 0.0229(3)
H38 H 0.6208 0.2248 0.0432
C59 C 0.66642(15) 0.17684(18) 0.0568(4)
H39 H 0.6839 0.1893 0.0998
O21 O 0.96091(12) 0.31687(17) 0.1361(3)
O23 O 0.95224(12) 0.26613(16) 0.0460(3)
O24 O 0.91823(16) 0.22194(16) 0.4812(4)
O26 O 0.95317(14) 0.16012(16) 0.4845(4)
O28 O 0.95260(12) 0.29307(13) 0.4089(3)
O30 O 0.94612(11) 0.32973(14) 0.3028(2)
O13 O 0.53909(12) 0.18313(17) 0.8639(3)
O14 O 0.54776(12) 0.23387(16) 0.9540(3)
C55 C 0.65243(17) 0.1202(2) 0.9619(4)
H36 H 0.6605 0.0941 0.9405
C56 C 0.61462(16) 0.1416(2) 0.9283(4)
H37 H 0.5975 0.1299 0.8844
C57 C 0.60216(14) 0.1803(2) 0.9595(3)
C60 C 0.56014(16) 0.2019(3) 0.9234(4)
Er12 Er 0.485642(6) 0.271681(8) 0.953773(15)
O17 O 0.54740(12) 0.79307(13) 0.0911(3)
O18 O 0.55388(11) 0.82973(14) 0.1972(2)
C61 C 0.75263(13) 0.98985(15) 0.0977(3)
C62 C 0.71735(14) 0.96645(16) 0.1067(3)
H40 H 0.6952 0.9826 0.1188
C63 C 0.71370(15) 0.91832(16) 0.0979(3)
C64 C 0.74721(15) 0.89496(16) 0.0812(3)
H41 H 0.7455 0.8635 0.0755
C65 C 0.78367(15) 0.91777(16) 0.0727(4)
C66 C 0.78584(14) 0.96490(16) 0.0807(3)
H42 H 0.8100 0.9802 0.0746
C67 C 0.81852(16) 0.89259(16) 0.0500(4)
C68 C 0.88570(17) 0.8460(2) 0.0119(4)
C70 C 0.67541(15) 0.89410(16) 0.1089(3)
C71 C 0.65934(16) 0.85552(16) 0.0648(3)
H43 H 0.6732 0.8453 0.0294
C72 C 0.62362(16) 0.83300(16) 0.0736(4)
H44 H 0.6130 0.8082 0.0433
C73 C 0.60323(14) 0.84713(16) 0.1277(3)
C74 C 0.61952(16) 0.88396(17) 0.1725(3)
H45 H 0.6070 0.8928 0.2105
C75 C 0.65408(16) 0.90734(17) 0.1609(3)
H46 H 0.6634 0.9332 0.1894
C76 C 0.56527(16) 0.82094(18) 0.1405(4)
C77 C 0.8860(3) 0.8864(3) 0.0221(9)
H47 H 0.9090 0.9031 0.0145
C78 C 0.8183(4) 0.8506(5) 0.0453(7)
H48 H 0.8003 0.8330 0.0662
C79 C 0.8485(4) 0.8284(5) 0.0043(7)
C80 C 0.8537(3) 0.9098(2) 0.0446(9)
H50 H 0.8584 0.9405 0.0567
Er8 Er 0.514358(6) 0.728319(8) 0.046227(15)
O15 O 0.91823(16) 0.77806(16) 0.9812(4)
O16 O 0.95317(14) 0.83988(16) 0.9845(4)
C69 C 0.92073(18) 0.8191(2) 0.9919(4)
H49 H 0.8403 0.8028 0.9746
Er10 Er 0.985642(6) 0.771681(8) 0.953773(15)
Er7_2 Er 0.0000 0.693819(9) 0.7500
O1_2 O 0.53692(12) 0.70545(13) 0.1636(3)
O2_2 O 0.54525(11) 0.74637(13) 0.2678(3)
O3_2 O 0.96091(12) 0.68313(17) 0.6361(3)
O4_2 O 0.95224(12) 0.73387(16) 0.5460(3)
O5_2 O 0.58177(16) 0.27806(16) 0.5188(4)
O6_2 O 0.54683(14) 0.33988(16) 0.5155(4)
O9_3 O 0.5000 0.8874(3) 0.2500
H1_2 H 0.5247 0.8967 0.2596
O10_2 O 0.46422(16) 0.67040(17) 0.0445(3)
H2_2 H 0.4505 0.6758 0.0754
H3_2 H 0.4769 0.6449 0.0557
C1_2 C 0.74582(13) 0.53994(14) 0.3985(3)
C2_2 C 0.70855(13) 0.56385(15) 0.3672(3)
H4_2 H 0.6837 0.5479 0.3457
C3_2 C 0.70785(13) 0.61092(15) 0.3674(3)
C4_2 C 0.74458(14) 0.63549(17) 0.4021(3)
H5_2 H 0.7441 0.6672 0.4025
C5_2 C 0.78184(14) 0.61221(17) 0.4360(3)
C6_2 C 0.78194(14) 0.56445(16) 0.4333(3)
H6_2 H 0.8069 0.5488 0.4554
C7_2 C 0.66767(13) 0.63716(15) 0.3297(3)
C8_2 C 0.65455(16) 0.67325(18) 0.3664(3)
H7_2 H 0.6706 0.6810 0.4137
C9_2 C 0.61854(16) 0.69800(17) 0.3351(4)
H8_2 H 0.6104 0.7222 0.3610
C10_2 C 0.59444(14) 0.68650(14) 0.2646(3)
C11_2 C 0.60664(16) 0.65034(18) 0.2272(3)
H9_2 H 0.5908 0.6429 0.1796
C12_2 C 0.64241(15) 0.62505(16) 0.2603(3)
H10_2 H 0.6496 0.5997 0.2358
C13_2 C 0.55575(16) 0.71519(19) 0.2296(4)
C14_2 C 0.82140(14) 0.63725(17) 0.4725(4)
C15_2 C 0.84757(17) 0.6202(2) 0.5381(4)
H11_2 H 0.8395 0.5941 0.5595
C16_2 C 0.88538(16) 0.6416(2) 0.5717(4)
H12_2 H 0.9025 0.6299 0.6156
C17_2 C 0.89784(14) 0.6803(2) 0.5405(3)
C18_2 C 0.87149(16) 0.69813(19) 0.4771(3)
H13_2 H 0.8792 0.7248 0.4568
C19_2 C 0.83358(15) 0.67684(18) 0.4432(4)
H14_2 H 0.8161 0.6893 0.4002
C20_2 C 0.93986(16) 0.7019(3) 0.5766(4)
C21_2 C 0.74737(13) 0.48985(15) 0.4023(3)
C22_2 C 0.78265(14) 0.46645(16) 0.3933(3)
H15_2 H 0.8048 0.4826 0.3812
C23_2 C 0.78630(15) 0.41832(16) 0.4021(3)
C24_2 C 0.75279(15) 0.39496(16) 0.4188(3)
H16_2 H 0.7545 0.3635 0.4245
C25_2 C 0.71633(15) 0.41777(16) 0.4273(4)
C26_2 C 0.71416(14) 0.46490(16) 0.4193(3)
H17_2 H 0.6900 0.4802 0.4254
C27_2 C 0.68148(16) 0.39259(16) 0.4500(4)
C28_2 C 0.61430(17) 0.3460(2) 0.4881(4)
C29_2 C 0.57927(18) 0.3191(2) 0.5081(4)
C30_2 C 0.82459(15) 0.39410(16) 0.3911(3)
C31_2 C 0.84066(16) 0.35552(16) 0.4352(3)
H18_2 H 0.8268 0.3453 0.4706
C32_2 C 0.87638(16) 0.33300(16) 0.4264(4)
H19_2 H 0.8870 0.3082 0.4567
C33_2 C 0.89677(14) 0.34713(16) 0.3723(3)
C34_2 C 0.88048(16) 0.38396(17) 0.3275(3)
H20_2 H 0.8930 0.3928 0.2895
C35_2 C 0.84592(16) 0.40734(17) 0.3391(3)
H21_2 H 0.8366 0.4332 0.3106
C36_2 C 0.93473(16) 0.32094(18) 0.3595(4)
C37_2 C 0.6140(3) 0.3864(3) 0.4779(9)
H22_2 H 0.5910 0.4031 0.4855
C38_2 C 0.6817(4) 0.3506(5) 0.4547(7)
H23_2 H 0.6997 0.3330 0.4338
C39_2 C 0.6515(4) 0.3284(5) 0.4957(7)
H24_2 H 0.6597 0.3028 0.5254
C40_2 C 0.6463(3) 0.4098(2) 0.4554(9)
H25_2 H 0.6416 0.4405 0.4433
H26_2 H 0.4753 0.8967 0.2404
O11_2 O 0.46308(12) 0.70545(13) 0.3364(3)
O12_2 O 0.45475(11) 0.74637(13) 0.2322(3)
O19_2 O 0.53578(16) 0.67040(17) 0.4555(3)
H27_2 H 0.5495 0.6758 0.4246
H28_2 H 0.5231 0.6449 0.4443
C41_2 C 0.25418(13) 0.53994(14) 0.1015(3)
C42_2 C 0.29145(13) 0.56385(15) 0.1328(3)
H29_2 H 0.3163 0.5479 0.1543
C43_2 C 0.29215(13) 0.61092(15) 0.1326(3)
C44_2 C 0.25542(14) 0.63549(17) 0.0979(3)
H30_2 H 0.2559 0.6672 0.0975
C45_2 C 0.21816(14) 0.61221(17) 0.0640(3)
C46_2 C 0.21806(14) 0.56445(16) 0.0667(3)
H31_2 H 0.1931 0.5488 0.0446
C47_2 C 0.33233(13) 0.63716(15) 0.1703(3)
C48_2 C 0.34545(16) 0.67325(18) 0.1336(3)
H32_2 H 0.3294 0.6810 0.0863
C49_2 C 0.38146(16) 0.69800(17) 0.1649(4)
H33_2 H 0.3896 0.7222 0.1390
C50_2 C 0.40556(14) 0.68650(14) 0.2354(3)
C51_2 C 0.39336(16) 0.65034(18) 0.2728(3)
H34_2 H 0.4092 0.6429 0.3204
C52_2 C 0.35759(15) 0.62505(16) 0.2397(3)
H35_2 H 0.3504 0.5997 0.2642
C53_2 C 0.44425(16) 0.71519(19) 0.2704(4)
C54_2 C 0.17860(14) 0.63725(17) 0.0275(4)
C58_2 C 0.12851(16) 0.69813(19) 0.0229(3)
H38_2 H 0.1208 0.7248 0.0432
C59_2 C 0.16642(15) 0.67684(18) 0.0568(4)
H39_2 H 0.1839 0.6893 0.0998
C61_2 C 0.25263(13) 0.48985(15) 0.0977(3)
C62_2 C 0.21735(14) 0.46645(16) 0.1067(3)
H40_2 H 0.1952 0.4826 0.1188
C63_2 C 0.21370(15) 0.41832(16) 0.0979(3)
C64_2 C 0.24721(15) 0.39496(16) 0.0812(3)
H41_2 H 0.2455 0.3635 0.0755
C65_2 C 0.28367(15) 0.41777(16) 0.0727(4)
C66_2 C 0.28584(14) 0.46490(16) 0.0807(3)
H42_2 H 0.3100 0.4802 0.0746
C67_2 C 0.31852(16) 0.39259(16) 0.0500(4)
C68_2 C 0.38570(17) 0.3460(2) 0.0119(4)
C70_2 C 0.17541(15) 0.39410(16) 0.1089(3)
C71_2 C 0.15934(16) 0.35552(16) 0.0648(3)
H43_2 H 0.1732 0.3453 0.0294
C72_2 C 0.12362(16) 0.33300(16) 0.0736(4)
H44_2 H 0.1130 0.3082 0.0433
C73_2 C 0.10323(14) 0.34713(16) 0.1277(3)
C74_2 C 0.11952(16) 0.38396(17) 0.1725(3)
H45_2 H 0.1070 0.3928 0.2105
C75_2 C 0.15408(16) 0.40734(17) 0.1609(3)
H46_2 H 0.1634 0.4332 0.1894
C76_2 C 0.06527(16) 0.32094(18) 0.1405(4)
C77_2 C 0.3860(3) 0.3864(3) 0.0221(9)
H47_2 H 0.4090 0.4031 0.0145
C78_2 C 0.3183(4) 0.3506(5) 0.0453(7)
H48_2 H 0.3003 0.3330 0.0662
C79_2 C 0.3485(4) 0.3284(5) 0.0043(7)
C80_2 C 0.3537(3) 0.4098(2) 0.0446(9)
H50_2 H 0.3584 0.4405 0.0567
Er7_3 Er 1.0000 0.693819(9) 0.7500
O20_2 O 0.53909(12) 0.81687(17) 0.3639(3)
O21_2 O 0.46091(12) 0.81687(17) 0.1361(3)
O22_2 O 0.54776(12) 0.76613(16) 0.4540(3)
O23_2 O 0.45224(12) 0.76613(16) 0.0460(3)
O24_2 O 0.41823(16) 0.72194(16) 0.4812(4)
O25_2 O 0.58177(16) 0.72194(16) 0.0188(4)
O26_2 O 0.45317(14) 0.66012(16) 0.4845(4)
O27_2 O 0.54683(14) 0.66012(16) 0.0155(4)
O13_2 O 0.03909(12) 0.68313(17) 0.8639(3)
O14_2 O 0.04776(12) 0.73387(16) 0.9540(3)
O15_2 O 0.41823(16) 0.27806(16) 0.9812(4)
O16_2 O 0.45317(14) 0.33988(16) 0.9845(4)
C55_2 C 0.15243(17) 0.6202(2) 0.9619(4)
H36_2 H 0.1605 0.5941 0.9405
C56_2 C 0.11462(16) 0.6416(2) 0.9283(4)
H37_2 H 0.0975 0.6299 0.8844
C57_2 C 0.10216(14) 0.6803(2) 0.9595(3)
C60_2 C 0.06014(16) 0.7019(3) 0.9234(4)
C69_2 C 0.42073(18) 0.3191(2) 0.9919(4)
H49_2 H 0.3403 0.3028 0.9746
C69_3 C 0.07927(18) 0.1809(2) 0.0081(4)
H49_3 H 0.1597 0.1972 0.0254
O17_2 O 0.45260(12) 0.20693(13) 0.9089(3)
O18_2 O 0.44612(11) 0.17027(14) 0.8028(2)
C61_3 C 0.24737(13) 0.01015(15) 0.9023(3)
C62_3 C 0.28265(14) 0.03355(16) 0.8933(3)
H40_3 H 0.3048 0.0174 0.8812
C63_3 C 0.28630(15) 0.08168(16) 0.9021(3)
C64_3 C 0.25279(15) 0.10504(16) 0.9188(3)
H41_3 H 0.2545 0.1365 0.9245
C65_3 C 0.21633(15) 0.08223(16) 0.9273(4)
C66_3 C 0.21416(14) 0.03510(16) 0.9193(3)
H42_3 H 0.1900 0.0198 0.9254
C67_3 C 0.18148(16) 0.10741(16) 0.9500(4)
C68_3 C 0.11430(17) 0.1540(2) 0.9881(4)
C70_3 C 0.32459(15) 0.10590(16) 0.8911(3)
C71_3 C 0.34066(16) 0.14448(16) 0.9352(3)
H43_3 H 0.3268 0.1547 0.9706
C72_3 C 0.37638(16) 0.16700(16) 0.9264(4)
H44_3 H 0.3870 0.1918 0.9567
C73_3 C 0.39677(14) 0.15287(16) 0.8723(3)
C74_3 C 0.38048(16) 0.11604(17) 0.8275(3)
H45_3 H 0.3930 0.1072 0.7895
C75_3 C 0.34592(16) 0.09266(17) 0.8391(3)
H46_3 H 0.3366 0.0668 0.8106
C76_3 C 0.43473(16) 0.17906(18) 0.8595(4)
C77_3 C 0.1140(3) 0.1136(3) 0.9779(9)
H47_3 H 0.0910 0.0969 0.9855
C78_3 C 0.1817(4) 0.1494(5) 0.9547(7)
H48_3 H 0.1997 0.1670 0.9338
C79_3 C 0.1515(4) 0.1716(5) 0.9957(7)
C80_3 C 0.1463(3) 0.0902(2) 0.9554(9)
H50_3 H 0.1416 0.0595 0.9433
C55_3 C 0.34757(17) 0.8798(2) 0.0381(4)
H36_3 H 0.3395 0.9059 0.0595
C56_3 C 0.38538(16) 0.8584(2) 0.0717(4)
H37_3 H 0.4025 0.8701 0.1156
C57_3 C 0.39784(14) 0.8197(2) 0.0405(3)
C60_3 C 0.43986(16) 0.7981(3) 0.0766(4)
O9_4 O 0.0000 0.6126(3) 0.7500
O10_3 O 0.03578(16) 0.82960(17) 0.9555(3)
H2_3 H 0.0495 0.8242 0.9246
H3_3 H 0.0231 0.8551 0.9443
H26_3 H 0.0247 0.6033 0.7596
O11_3 O 0.03692(12) 0.79455(13) 0.6636(3)
O12_3 O 0.04525(11) 0.75363(13) 0.7678(3)
C41_3 C 0.24582(13) 0.96006(14) 0.8985(3)
C42_3 C 0.20855(13) 0.93615(15) 0.8672(3)
H29_3 H 0.1837 0.9521 0.8457
C43_3 C 0.20785(13) 0.88908(15) 0.8674(3)
C44_3 C 0.24458(14) 0.86451(17) 0.9021(3)
H30_3 H 0.2441 0.8328 0.9025
C45_3 C 0.28184(14) 0.88779(17) 0.9360(3)
C46_3 C 0.28194(14) 0.93555(16) 0.9333(3)
H31_3 H 0.3069 0.9512 0.9554
C47_3 C 0.16767(13) 0.86284(15) 0.8297(3)
C48_3 C 0.15455(16) 0.82675(18) 0.8664(3)
H32_3 H 0.1706 0.8190 0.9137
C49_3 C 0.11854(16) 0.80200(17) 0.8351(4)
H33_3 H 0.1104 0.7778 0.8610
C50_3 C 0.09444(14) 0.81350(14) 0.7646(3)
C51_3 C 0.10664(16) 0.84966(18) 0.7272(3)
H34_3 H 0.0908 0.8571 0.6796
C52_3 C 0.14241(15) 0.87495(16) 0.7603(3)
H35_3 H 0.1496 0.9003 0.7358
C53_3 C 0.05575(16) 0.78481(19) 0.7296(4)
C54_3 C 0.32140(14) 0.86275(17) 0.9725(4)
C58_3 C 0.37149(16) 0.80187(19) 0.9771(3)
H38_3 H 0.3792 0.7752 0.9568
C59_3 C 0.33358(15) 0.82316(18) 0.9432(4)
H39_3 H 0.3161 0.8107 0.9002
O28_2 O 0.04740(12) 0.70693(13) 0.5911(3)
O30_2 O 0.05388(11) 0.67027(14) 0.6972(2)
O7_2 O 0.54740(12) 0.20693(13) 0.5911(3)
O8_2 O 0.55388(11) 0.17027(14) 0.6972(2)
C21_3 C 0.75263(13) 0.01015(15) 0.5977(3)
C22_3 C 0.71735(14) 0.03355(16) 0.6067(3)
H15_3 H 0.6952 0.0174 0.6188
C23_3 C 0.71370(15) 0.08168(16) 0.5979(3)
C24_3 C 0.74721(15) 0.10504(16) 0.5812(3)
H16_3 H 0.7455 0.1365 0.5755
C25_3 C 0.78367(15) 0.08223(16) 0.5727(4)
C26_3 C 0.78584(14) 0.03510(16) 0.5807(3)
H17_3 H 0.8100 0.0198 0.5746
C27_3 C 0.81852(16) 0.10741(16) 0.5500(4)
C28_3 C 0.88570(17) 0.1540(2) 0.5119(4)
C29_3 C 0.92073(18) 0.1809(2) 0.4919(4)
C30_3 C 0.67541(15) 0.10590(16) 0.6089(3)
C31_3 C 0.65934(16) 0.14448(16) 0.5648(3)
H18_3 H 0.6732 0.1547 0.5294
C32_3 C 0.62362(16) 0.16700(16) 0.5736(4)
H19_3 H 0.6130 0.1918 0.5433
C33_3 C 0.60323(14) 0.15287(16) 0.6277(3)
C34_3 C 0.61952(16) 0.11604(17) 0.6725(3)
H20_3 H 0.6070 0.1072 0.7105
C35_3 C 0.65408(16) 0.09266(17) 0.6609(3)
H21_3 H 0.6634 0.0668 0.6894
C36_3 C 0.56527(16) 0.17906(18) 0.6405(4)
C37_3 C 0.8860(3) 0.1136(3) 0.5221(9)
H22_3 H 0.9090 0.0969 0.5145
C38_3 C 0.8183(4) 0.1494(5) 0.5453(7)
H23_3 H 0.8003 0.1670 0.5662
C39_3 C 0.8485(4) 0.1716(5) 0.5043(7)
H24_3 H 0.8403 0.1972 0.4746
C40_3 C 0.8537(3) 0.0902(2) 0.5446(9)
H25_3 H 0.8584 0.0595 0.5567
O1_3 O 0.96308(12) 0.79455(13) 0.8364(3)
O2_3 O 0.95475(11) 0.75363(13) 0.7322(3)
O9_5 O 1.0000 0.6126(3) 0.7500
H1_3 H 0.9753 0.6033 0.7404
C1_3 C 0.75418(13) 0.96006(14) 0.6015(3)
C2_3 C 0.79145(13) 0.93615(15) 0.6328(3)
H4_3 H 0.8163 0.9521 0.6543
C3_3 C 0.79215(13) 0.88908(15) 0.6326(3)
C4_3 C 0.75542(14) 0.86451(17) 0.5979(3)
H5_3 H 0.7559 0.8328 0.5975
C5_3 C 0.71816(14) 0.88779(17) 0.5640(3)
C6_3 C 0.71806(14) 0.93555(16) 0.5667(3)
H6_3 H 0.6931 0.9512 0.5446
C7_3 C 0.83233(13) 0.86284(15) 0.6703(3)
C8_3 C 0.84545(16) 0.82675(18) 0.6336(3)
H7_3 H 0.8294 0.8190 0.5863
C9_3 C 0.88146(16) 0.80200(17) 0.6649(4)
H8_3 H 0.8896 0.7778 0.6390
C10_3 C 0.90556(14) 0.81350(14) 0.7354(3)
C11_3 C 0.89336(16) 0.84966(18) 0.7728(3)
H9_3 H 0.9092 0.8571 0.8204
C12_3 C 0.85759(15) 0.87495(16) 0.7397(3)
H10_3 H 0.8504 0.9003 0.7642
C13_3 C 0.94425(16) 0.78481(19) 0.7704(4)
C14_3 C 0.67860(14) 0.86275(17) 0.5275(4)
C15_3 C 0.65243(17) 0.8798(2) 0.4619(4)
H11_3 H 0.6605 0.9059 0.4405
C16_3 C 0.61462(16) 0.8584(2) 0.4283(4)
H12_3 H 0.5975 0.8701 0.3844
C17_3 C 0.60216(14) 0.8197(2) 0.4595(3)
C18_3 C 0.62851(16) 0.80187(19) 0.5229(3)
H13_3 H 0.6208 0.7752 0.5432
C19_3 C 0.66642(15) 0.82316(18) 0.5568(4)
H14_3 H 0.6839 0.8107 0.5998
C20_3 C 0.56014(16) 0.7981(3) 0.4234(4)
O19_3 O 0.96422(16) 0.82960(17) 0.5445(3)
H27_3 H 0.9505 0.8242 0.5754
H28_3 H 0.9769 0.8551 0.5557
O29_2 O 0.95260(12) 0.70693(13) 0.9089(3)
O31_2 O 0.94612(11) 0.67027(14) 0.8028(2)
C55_4 C 0.84757(17) 0.3798(2) 0.0381(4)
H36_4 H 0.8395 0.4059 0.0595
C56_4 C 0.88538(16) 0.3584(2) 0.0717(4)
H37_4 H 0.9025 0.3701 0.1156
C57_4 C 0.89784(14) 0.3197(2) 0.0405(3)
C60_4 C 0.93986(16) 0.2981(3) 0.0766(4)
C69_4 C 0.57927(18) 0.6809(2) 0.0081(4)
H49_4 H 0.6597 0.6972 0.0254
O1_4 O 0.46308(12) 0.29455(13) 0.8364(3)
O2_4 O 0.45475(11) 0.25363(13) 0.7322(3)
O9_6 O 0.5000 0.1126(3) 0.7500
H1_4 H 0.4753 0.1033 0.7404
O10_4 O 0.53578(16) 0.32960(17) 0.9555(3)
H2_4 H 0.5495 0.3242 0.9246
H3_4 H 0.5231 0.3551 0.9443
C1_4 C 0.25418(13) 0.46006(14) 0.6015(3)
C2_4 C 0.29145(13) 0.43615(15) 0.6328(3)
H4_4 H 0.3163 0.4521 0.6543
C3_4 C 0.29215(13) 0.38908(15) 0.6326(3)
C4_4 C 0.25542(14) 0.36451(17) 0.5979(3)
H5_4 H 0.2559 0.3328 0.5975
C5_4 C 0.21816(14) 0.38779(17) 0.5640(3)
C6_4 C 0.21806(14) 0.43555(16) 0.5667(3)
H6_4 H 0.1931 0.4512 0.5446
C7_4 C 0.33233(13) 0.36284(15) 0.6703(3)
C8_4 C 0.34545(16) 0.32675(18) 0.6336(3)
H7_4 H 0.3294 0.3190 0.5863
C9_4 C 0.38146(16) 0.30200(17) 0.6649(4)
H8_4 H 0.3896 0.2778 0.6390
C10_4 C 0.40556(14) 0.31350(14) 0.7354(3)
C11_4 C 0.39336(16) 0.34966(18) 0.7728(3)
H9_4 H 0.4092 0.3571 0.8204
C12_4 C 0.35759(15) 0.37495(16) 0.7397(3)
H10_4 H 0.3504 0.4003 0.7642
C13_4 C 0.44425(16) 0.28481(19) 0.7704(4)
C14_4 C 0.17860(14) 0.36275(17) 0.5275(4)
C15_4 C 0.15243(17) 0.3798(2) 0.4619(4)
H11_4 H 0.1605 0.4059 0.4405
C16_4 C 0.11462(16) 0.3584(2) 0.4283(4)
H12_4 H 0.0975 0.3701 0.3844
C17_4 C 0.10216(14) 0.3197(2) 0.4595(3)
C18_4 C 0.12851(16) 0.30187(19) 0.5229(3)
H13_4 H 0.1208 0.2752 0.5432
C19_4 C 0.16642(15) 0.32316(18) 0.5568(4)
H14_4 H 0.1839 0.3107 0.5998
C20_4 C 0.06014(16) 0.2981(3) 0.4234(4)
C21_4 C 0.25263(13) 0.51015(15) 0.5977(3)
C22_4 C 0.21735(14) 0.53355(16) 0.6067(3)
H15_4 H 0.1952 0.5174 0.6188
C23_4 C 0.21370(15) 0.58168(16) 0.5979(3)
C24_4 C 0.24721(15) 0.60504(16) 0.5812(3)
H16_4 H 0.2455 0.6365 0.5755
C25_4 C 0.28367(15) 0.58223(16) 0.5727(4)
C26_4 C 0.28584(14) 0.53510(16) 0.5807(3)
H17_4 H 0.3100 0.5198 0.5746
C27_4 C 0.31852(16) 0.60741(16) 0.5500(4)
C28_4 C 0.38570(17) 0.6540(2) 0.5119(4)
C29_4 C 0.42073(18) 0.6809(2) 0.4919(4)
C30_4 C 0.17541(15) 0.60590(16) 0.6089(3)
C31_4 C 0.15934(16) 0.64448(16) 0.5648(3)
H18_4 H 0.1732 0.6547 0.5294
C32_4 C 0.12362(16) 0.66700(16) 0.5736(4)
H19_4 H 0.1130 0.6918 0.5433
C33_4 C 0.10323(14) 0.65287(16) 0.6277(3)
C34_4 C 0.11952(16) 0.61604(17) 0.6725(3)
H20_4 H 0.1070 0.6072 0.7105
C35_4 C 0.15408(16) 0.59266(17) 0.6609(3)
H21_4 H 0.1634 0.5668 0.6894
C36_4 C 0.06527(16) 0.67906(18) 0.6405(4)
C37_4 C 0.3860(3) 0.6136(3) 0.5221(9)
H22_4 H 0.4090 0.5969 0.5145
C38_4 C 0.3183(4) 0.6494(5) 0.5453(7)
H23_4 H 0.3003 0.6670 0.5662
C39_4 C 0.3485(4) 0.6716(5) 0.5043(7)
H24_4 H 0.3403 0.6972 0.4746
C40_4 C 0.3537(3) 0.5902(2) 0.5446(9)
H25_4 H 0.3584 0.5595 0.5567
H26_4 H 0.5247 0.1033 0.7596
O11_4 O 0.53692(12) 0.29455(13) 0.6636(3)
O12_4 O 0.54525(11) 0.25363(13) 0.7678(3)
O19_4 O 0.46422(16) 0.32960(17) 0.5445(3)
H27_4 H 0.4505 0.3242 0.5754
H28_4 H 0.4769 0.3551 0.5557
C41_4 C 0.74582(13) 0.46006(14) 0.8985(3)
C42_4 C 0.70855(13) 0.43615(15) 0.8672(3)
H29_4 H 0.6837 0.4521 0.8457
C43_4 C 0.70785(13) 0.38908(15) 0.8674(3)
C44_4 C 0.74458(14) 0.36451(17) 0.9021(3)
H30_4 H 0.7441 0.3328 0.9025
C45_4 C 0.78184(14) 0.38779(17) 0.9360(3)
C46_4 C 0.78194(14) 0.43555(16) 0.9333(3)
H31_4 H 0.8069 0.4512 0.9554
C47_4 C 0.66767(13) 0.36284(15) 0.8297(3)
C48_4 C 0.65455(16) 0.32675(18) 0.8664(3)
H32_4 H 0.6706 0.3190 0.9137
C49_4 C 0.61854(16) 0.30200(17) 0.8351(4)
H33_4 H 0.6104 0.2778 0.8610
C50_4 C 0.59444(14) 0.31350(14) 0.7646(3)
C51_4 C 0.60664(16) 0.34966(18) 0.7272(3)
H34_4 H 0.5908 0.3571 0.6796
C52_4 C 0.64241(15) 0.37495(16) 0.7603(3)
H35_4 H 0.6496 0.4003 0.7358
C53_4 C 0.55575(16) 0.28481(19) 0.7296(4)
C54_4 C 0.82140(14) 0.36275(17) 0.9725(4)
C58_4 C 0.87149(16) 0.30187(19) 0.9771(3)
H38_4 H 0.8792 0.2752 0.9568
C59_4 C 0.83358(15) 0.32316(18) 0.9432(4)
H39_4 H 0.8161 0.3107 0.9002
C61_4 C 0.74737(13) 0.51015(15) 0.9023(3)
C62_4 C 0.78265(14) 0.53355(16) 0.8933(3)
H40_4 H 0.8048 0.5174 0.8812
C63_4 C 0.78630(15) 0.58168(16) 0.9021(3)
C64_4 C 0.75279(15) 0.60504(16) 0.9188(3)
H41_4 H 0.7545 0.6365 0.9245
C65_4 C 0.71633(15) 0.58223(16) 0.9273(4)
C66_4 C 0.71416(14) 0.53510(16) 0.9193(3)
H42_4 H 0.6900 0.5198 0.9254
C67_4 C 0.68148(16) 0.60741(16) 0.9500(4)
C68_4 C 0.61430(17) 0.6540(2) 0.9881(4)
C70_4 C 0.82459(15) 0.60590(16) 0.8911(3)
C71_4 C 0.84066(16) 0.64448(16) 0.9352(3)
H43_4 H 0.8268 0.6547 0.9706
C72_4 C 0.87638(16) 0.66700(16) 0.9264(4)
H44_4 H 0.8870 0.6918 0.9567
C73_4 C 0.89677(14) 0.65287(16) 0.8723(3)
C74_4 C 0.88048(16) 0.61604(17) 0.8275(3)
H45_4 H 0.8930 0.6072 0.7895
C75_4 C 0.84592(16) 0.59266(17) 0.8391(3)
H46_4 H 0.8366 0.5668 0.8106
C76_4 C 0.93473(16) 0.67906(18) 0.8595(4)
C77_4 C 0.6140(3) 0.6136(3) 0.9779(9)
H47_4 H 0.5910 0.5969 0.9855
C78_4 C 0.6817(4) 0.6494(5) 0.9547(7)
H48_4 H 0.6997 0.6670 0.9338
C79_4 C 0.6515(4) 0.6716(5) 0.9957(7)
C80_4 C 0.6463(3) 0.5902(2) 0.9554(9)
H50_4 H 0.6416 0.5595 0.9433
loop_
_geom_bond_atom_site_label_1
_geom_bond_atom_site_label_2
_geom_bond_site_symmetry_1
_geom_bond_site_symmetry_2
Er1 O2 1_555 1_555
Er2 O1 1_555 1_555
O1 C13 1_555 1_555
O2 C13 1_555 1_555
O3 C20 1_555 1_555
O4 C20 1_555 1_555
O9 Er1 1_555 1_555
H1 O9 1_555 1_555
C1 C2 1_555 1_555
C2 H4 1_555 1_555
C3 C2 1_555 1_555
C4 C3 1_555 1_555
H5 C4 1_555 1_555
C5 C4 1_555 1_555
C6 C1 1_555 1_555
H6 C6 1_555 1_555
C7 C3 1_555 1_555
C8 C7 1_555 1_555
H7 C8 1_555 1_555
C9 C8 1_555 1_555
H8 C9 1_555 1_555
C10 C9 1_555 1_555
C11 C10 1_555 1_555
H9 C11 1_555 1_555
C12 C7 1_555 1_555
H10 C12 1_555 1_555
C13 C10 1_555 1_555
C14 C5 1_555 1_555
C15 C14 1_555 1_555
H11 C15 1_555 1_555
C16 C15 1_555 1_555
H12 C16 1_555 1_555
C17 C16 1_555 1_555
C18 C17 1_555 1_555
H13 C18 1_555 1_555
C19 C14 1_555 1_555
H14 C19 1_555 1_555
C20 C17 1_555 1_555
H27 O19 1_555 1_555
H28 O19 1_555 1_555
Er7 O3 1_555 1_555
Er13 O4 1_555 1_555
O20 Er1 1_555 1_555
O25 Er2 1_555 1_555
O27 Er2 1_555 1_555
O29 Er2 1_555 1_555
O31 Er1 1_555 1_555
C5 C6 1_555 1_555
C11 C12 1_555 1_555
C18 C19 1_555 1_555
O5 C29 1_555 1_555
O6 C29 1_555 1_555
O7 C36 1_555 1_555
O8 C36 1_555 1_555
C22 C21 1_555 1_555
H15 C22 1_555 1_555
C23 C22 1_555 1_555
C24 C23 1_555 1_555
H16 C24 1_555 1_555
C25 C24 1_555 1_555
C26 C21 1_555 1_555
H17 C26 1_555 1_555
C27 C25 1_555 1_555
C28 C29 1_555 1_555
C30 C23 1_555 1_555
C31 C30 1_555 1_555
H18 C31 1_555 1_555
C32 C31 1_555 1_555
H19 C32 1_555 1_555
C33 C32 1_555 1_555
C34 C33 1_555 1_555
H20 C34 1_555 1_555
C35 C30 1_555 1_555
H21 C35 1_555 1_555
C36 C33 1_555 1_555
C37 C28 1_555 1_555
H22 C37 1_555 1_555
C38 C27 1_555 1_555
H23 C38 1_555 1_555
C39 C28 1_555 1_555
H24 C39 1_555 1_555
C40 C27 1_555 1_555
H25 C40 1_555 1_555
Er5 O8 1_555 1_555
Er9 O7 1_555 1_555
Er11 O5 1_555 1_555
O6 Er11 1_555 1_555
C25 C26 1_555 1_555
C34 C35 1_555 1_555
C37 C40 1_555 1_555
C38 C39 1_555 1_555
O9_2 Er1_2 1_555 1_555
H2 O10 1_555 1_555
H3 O10 1_555 1_555
H26 O9_2 1_555 1_555
Er3 O11 1_555 1_555
O11 C53 1_555 1_555
O12 Er1_2 1_555 1_555
C41 C42 1_555 1_555
C42 H29 1_555 1_555
C43 C42 1_555 1_555
C44 C43 1_555 1_555
H30 C44 1_555 1_555
C45 C44 1_555 1_555
C46 C41 1_555 1_555
H31 C46 1_555 1_555
C47 C43 1_555 1_555
C48 C47 1_555 1_555
H32 C48 1_555 1_555
C49 C48 1_555 1_555
H33 C49 1_555 1_555
C50 C49 1_555 1_555
C51 C50 1_555 1_555
H34 C51 1_555 1_555
C52 C47 1_555 1_555
H35 C52 1_555 1_555
C53 O12 1_555 1_555
C54 C45 1_555 1_555
H38 C58 1_555 1_555
C59 C54 1_555 1_555
H39 C59 1_555 1_555
O21 Er1_2 1_555 1_555
O24 Er3 1_555 1_555
O26 Er3 1_555 1_555
O28 Er3 1_555 1_555
O30 Er1_2 1_555 1_555
C45 C46 1_555 1_555
C50 C53 1_555 1_555
C51 C52 1_555 1_555
C58 C59 1_555 1_555
O13 C60 1_555 1_555
O14 C60 1_555 1_555
H36 C55 1_555 1_555
C56 C55 1_555 1_555
H37 C56 1_555 1_555
C57 C56 1_555 1_555
C60 C57 1_555 1_555
Er7 O13 1_555 1_555
Er12 O14 1_555 1_555
O17 C76 1_555 1_555
O18 C76 1_555 1_555
C62 C61 1_555 1_555
H40 C62 1_555 1_555
C63 C62 1_555 1_555
C64 C63 1_555 1_555
H41 C64 1_555 1_555
C65 C64 1_555 1_555
C66 C61 1_555 1_555
H42 C66 1_555 1_555
C67 C65 1_555 1_555
C70 C63 1_555 1_555
C71 C70 1_555 1_555
H43 C71 1_555 1_555
C72 C71 1_555 1_555
H44 C72 1_555 1_555
C73 C72 1_555 1_555
C74 C73 1_555 1_555
H45 C74 1_555 1_555
C75 C70 1_555 1_555
H46 C75 1_555 1_555
C76 C73 1_555 1_555
C77 C68 1_555 1_555
H47 C77 1_555 1_555
C78 C67 1_555 1_555
H48 C78 1_555 1_555
C79 C68 1_555 1_555
C80 C67 1_555 1_555
H50 C80 1_555 1_555
Er5 O18 1_555 1_555
Er8 O17 1_555 1_555
C65 C66 1_555 1_555
C74 C75 1_555 1_555
C77 C80 1_555 1_555
C78 C79 1_555 1_555
O15 C69 1_555 1_555
O16 C69 1_555 1_555
Er10 O15 1_555 1_555
O16 Er10 1_555 1_555
Er5 O2_2 1_555 1_555
Er8 O1_2 1_555 1_555
O1_2 C13_2 1_555 1_555
O2_2 C13_2 1_555 1_555
O3_2 C20_2 1_555 1_555
O4_2 C20_2 1_555 1_555
O5_2 C29_2 1_555 1_555
O6_2 C29_2 1_555 1_555
O28 C36_2 1_555 1_555
O30 C36_2 1_555 1_555
O9_3 Er5 1_555 1_555
H1_2 O9_3 1_555 1_555
O10_2 Er8 1_555 1_555
H2_2 O10_2 1_555 1_555
H3_2 O10_2 1_555 1_555
C1_2 C2_2 1_555 1_555
C2_2 H4_2 1_555 1_555
C3_2 C2_2 1_555 1_555
C4_2 C3_2 1_555 1_555
H5_2 C4_2 1_555 1_555
C5_2 C4_2 1_555 1_555
C6_2 C1_2 1_555 1_555
H6_2 C6_2 1_555 1_555
C7_2 C3_2 1_555 1_555
C8_2 C7_2 1_555 1_555
H7_2 C8_2 1_555 1_555
C9_2 C8_2 1_555 1_555
H8_2 C9_2 1_555 1_555
C10_2 C9_2 1_555 1_555
C11_2 C10_2 1_555 1_555
H9_2 C11_2 1_555 1_555
C12_2 C7_2 1_555 1_555
H10_2 C12_2 1_555 1_555
C13_2 C10_2 1_555 1_555
C14_2 C5_2 1_555 1_555
C15_2 C14_2 1_555 1_555
H11_2 C15_2 1_555 1_555
C16_2 C15_2 1_555 1_555
H12_2 C16_2 1_555 1_555
C17_2 C16_2 1_555 1_555
C18_2 C17_2 1_555 1_555
H13_2 C18_2 1_555 1_555
C19_2 C14_2 1_555 1_555
H14_2 C19_2 1_555 1_555
C20_2 C17_2 1_555 1_555
C21_2 C1_2 1_555 1_555
C22_2 C21_2 1_555 1_555
H15_2 C22_2 1_555 1_555
C23_2 C22_2 1_555 1_555
C24_2 C23_2 1_555 1_555
H16_2 C24_2 1_555 1_555
C25_2 C24_2 1_555 1_555
C26_2 C21_2 1_555 1_555
H17_2 C26_2 1_555 1_555
C27_2 C25_2 1_555 1_555
C28_2 C29_2 1_555 1_555
C30_2 C23_2 1_555 1_555
C31_2 C30_2 1_555 1_555
H18_2 C31_2 1_555 1_555
C32_2 C31_2 1_555 1_555
H19_2 C32_2 1_555 1_555
C33_2 C32_2 1_555 1_555
C34_2 C33_2 1_555 1_555
H20_2 C34_2 1_555 1_555
C35_2 C30_2 1_555 1_555
H21_2 C35_2 1_555 1_555
C36_2 C33_2 1_555 1_555
C37_2 C28_2 1_555 1_555
H22_2 C37_2 1_555 1_555
C38_2 C27_2 1_555 1_555
H23_2 C38_2 1_555 1_555
C39_2 C28_2 1_555 1_555
H24_2 C39_2 1_555 1_555
C40_2 C27_2 1_555 1_555
H25_2 C40_2 1_555 1_555
H26_2 O9_3 1_555 1_555
Er9 O11_2 1_555 1_555
O11_2 C53_2 1_555 1_555
O12_2 Er5 1_555 1_555
O29 C76_2 1_555 1_555
O31 C76_2 1_555 1_555
O19_2 Er9 1_555 1_555
H27_2 O19_2 1_555 1_555
H28_2 O19_2 1_555 1_555
C41_2 C42_2 1_555 1_555
C42_2 H29_2 1_555 1_555
C43_2 C42_2 1_555 1_555
C44_2 C43_2 1_555 1_555
H30_2 C44_2 1_555 1_555
C45_2 C44_2 1_555 1_555
C46_2 C41_2 1_555 1_555
H31_2 C46_2 1_555 1_555
C47_2 C43_2 1_555 1_555
C48_2 C47_2 1_555 1_555
H32_2 C48_2 1_555 1_555
C49_2 C48_2 1_555 1_555
H33_2 C49_2 1_555 1_555
C50_2 C49_2 1_555 1_555
C51_2 C50_2 1_555 1_555
H34_2 C51_2 1_555 1_555
C52_2 C47_2 1_555 1_555
H35_2 C52_2 1_555 1_555
C53_2 O12_2 1_555 1_555
C54_2 C45_2 1_555 1_555
H38_2 C58_2 1_555 1_555
C59_2 C54_2 1_555 1_555
H39_2 C59_2 1_555 1_555
C61_2 C41_2 1_555 1_555
C62_2 C61_2 1_555 1_555
H40_2 C62_2 1_555 1_555
C63_2 C62_2 1_555 1_555
C64_2 C63_2 1_555 1_555
H41_2 C64_2 1_555 1_555
C65_2 C64_2 1_555 1_555
C66_2 C61_2 1_555 1_555
H42_2 C66_2 1_555 1_555
C67_2 C65_2 1_555 1_555
C70_2 C63_2 1_555 1_555
C71_2 C70_2 1_555 1_555
H43_2 C71_2 1_555 1_555
C72_2 C71_2 1_555 1_555
H44_2 C72_2 1_555 1_555
C73_2 C72_2 1_555 1_555
C74_2 C73_2 1_555 1_555
H45_2 C74_2 1_555 1_555
C75_2 C70_2 1_555 1_555
H46_2 C75_2 1_555 1_555
C76_2 C73_2 1_555 1_555
C77_2 C68_2 1_555 1_555
H47_2 C77_2 1_555 1_555
C78_2 C67_2 1_555 1_555
H48_2 C78_2 1_555 1_555
C79_2 C68_2 1_555 1_555
C80_2 C67_2 1_555 1_555
H50_2 C80_2 1_555 1_555
Er7_3 O3_2 1_555 1_555
Er13 O5_2 1_555 1_555
O20_2 Er5 1_555 1_555
O21_2 Er5 1_555 1_555
O22_2 Er9 1_555 1_555
O23_2 Er8 1_555 1_555
O24_2 Er9 1_555 1_555
O25_2 Er8 1_555 1_555
O26_2 Er9 1_555 1_555
O27_2 Er8 1_555 1_555
O6_2 Er13 1_555 1_555
C5_2 C6_2 1_555 1_555
C11_2 C12_2 1_555 1_555
C18_2 C19_2 1_555 1_555
C25_2 C26_2 1_555 1_555
C34_2 C35_2 1_555 1_555
C37_2 C40_2 1_555 1_555
C38_2 C39_2 1_555 1_555
C45_2 C46_2 1_555 1_555
C50_2 C53_2 1_555 1_555
C51_2 C52_2 1_555 1_555
C58_2 C59_2 1_555 1_555
C65_2 C66_2 1_555 1_555
C74_2 C75_2 1_555 1_555
C77_2 C80_2 1_555 1_555
C78_2 C79_2 1_555 1_555
O13_2 C60_2 1_555 1_555
O14_2 C60_2 1_555 1_555
O15_2 C69_2 1_555 1_555
O16_2 C69_2 1_555 1_555
H36_2 C55_2 1_555 1_555
C56_2 C55_2 1_555 1_555
H37_2 C56_2 1_555 1_555
C57_2 C56_2 1_555 1_555
C60_2 C57_2 1_555 1_555
Er7_2 O13_2 1_555 1_555
Er12 O15_2 1_555 1_555
O16_2 Er12 1_555 1_555
O25 C69_3 1_555 1_555
O27 C69_3 1_555 1_555
O17_2 C76_3 1_555 1_555
O18_2 C76_3 1_555 1_555
C62_3 C61_3 1_555 1_555
H40_3 C62_3 1_555 1_555
C63_3 C62_3 1_555 1_555
C64_3 C63_3 1_555 1_555
H41_3 C64_3 1_555 1_555
C65_3 C64_3 1_555 1_555
C66_3 C61_3 1_555 1_555
H42_3 C66_3 1_555 1_555
C67_3 C65_3 1_555 1_555
C70_3 C63_3 1_555 1_555
C71_3 C70_3 1_555 1_555
H43_3 C71_3 1_555 1_555
C72_3 C71_3 1_555 1_555
H44_3 C72_3 1_555 1_555
C73_3 C72_3 1_555 1_555
C74_3 C73_3 1_555 1_555
H45_3 C74_3 1_555 1_555
C75_3 C70_3 1_555 1_555
H46_3 C75_3 1_555 1_555
C76_3 C73_3 1_555 1_555
C77_3 C68_3 1_555 1_555
H47_3 C77_3 1_555 1_555
C78_3 C67_3 1_555 1_555
H48_3 C78_3 1_555 1_555
C79_3 C68_3 1_555 1_555
C80_3 C67_3 1_555 1_555
H50_3 C80_3 1_555 1_555
Er7 O18_2 1_555 1_555
Er12 O17_2 1_555 1_555
C65_3 C66_3 1_555 1_555
C74_3 C75_3 1_555 1_555
C77_3 C80_3 1_555 1_555
C78_3 C79_3 1_555 1_555
O21_2 C60_3 1_555 1_555
O23_2 C60_3 1_555 1_555
H36_3 C55_3 1_555 1_555
C56_3 C55_3 1_555 1_555
H37_3 C56_3 1_555 1_555
C57_3 C56_3 1_555 1_555
C60_3 C57_3 1_555 1_555
O9_4 Er7_2 1_555 1_555
H2_3 O10_3 1_555 1_555
H3_3 O10_3 1_555 1_555
H26_3 O9_4 1_555 1_555
Er11 O11_3 1_555 1_555
O11_3 C53_3 1_555 1_555
O12_3 Er7_2 1_555 1_555
C41_3 C42_3 1_555 1_555
C42_3 H29_3 1_555 1_555
C43_3 C42_3 1_555 1_555
C44_3 C43_3 1_555 1_555
H30_3 C44_3 1_555 1_555
C45_3 C44_3 1_555 1_555
C46_3 C41_3 1_555 1_555
H31_3 C46_3 1_555 1_555
C47_3 C43_3 1_555 1_555
C48_3 C47_3 1_555 1_555
H32_3 C48_3 1_555 1_555
C49_3 C48_3 1_555 1_555
H33_3 C49_3 1_555 1_555
C50_3 C49_3 1_555 1_555
C51_3 C50_3 1_555 1_555
H34_3 C51_3 1_555 1_555
C52_3 C47_3 1_555 1_555
H35_3 C52_3 1_555 1_555
C53_3 O12_3 1_555 1_555
C54_3 C45_3 1_555 1_555
H38_3 C58_3 1_555 1_555
C59_3 C54_3 1_555 1_555
H39_3 C59_3 1_555 1_555
O28_2 Er11 1_555 1_555
O30_2 Er7_2 1_555 1_555
C45_3 C46_3 1_555 1_555
C50_3 C53_3 1_555 1_555
C51_3 C52_3 1_555 1_555
C58_3 C59_3 1_555 1_555
O24 C29_3 1_555 1_555
O26 C29_3 1_555 1_555
O7_2 C36_3 1_555 1_555
O8_2 C36_3 1_555 1_555
C22_3 C21_3 1_555 1_555
H15_3 C22_3 1_555 1_555
C23_3 C22_3 1_555 1_555
C24_3 C23_3 1_555 1_555
H16_3 C24_3 1_555 1_555
C25_3 C24_3 1_555 1_555
C26_3 C21_3 1_555 1_555
H17_3 C26_3 1_555 1_555
C27_3 C25_3 1_555 1_555
C28_3 C29_3 1_555 1_555
C30_3 C23_3 1_555 1_555
C31_3 C30_3 1_555 1_555
H18_3 C31_3 1_555 1_555
C32_3 C31_3 1_555 1_555
H19_3 C32_3 1_555 1_555
C33_3 C32_3 1_555 1_555
C34_3 C33_3 1_555 1_555
H20_3 C34_3 1_555 1_555
C35_3 C30_3 1_555 1_555
H21_3 C35_3 1_555 1_555
C36_3 C33_3 1_555 1_555
C37_3 C28_3 1_555 1_555
H22_3 C37_3 1_555 1_555
C38_3 C27_3 1_555 1_555
H23_3 C38_3 1_555 1_555
C39_3 C28_3 1_555 1_555
H24_3 C39_3 1_555 1_555
C40_3 C27_3 1_555 1_555
H25_3 C40_3 1_555 1_555
Er7 O8_2 1_555 1_555
Er13 O7_2 1_555 1_555
C25_3 C26_3 1_555 1_555
C34_3 C35_3 1_555 1_555
C37_3 C40_3 1_555 1_555
C38_3 C39_3 1_555 1_555
Er7_3 O2_3 1_555 1_555
Er10 O1_3 1_555 1_555
O1_3 C13_3 1_555 1_555
O2_3 C13_3 1_555 1_555
O20_2 C20_3 1_555 1_555
O22_2 C20_3 1_555 1_555
O9_5 Er7_3 1_555 1_555
H1_3 O9_5 1_555 1_555
C1_3 C2_3 1_555 1_555
C2_3 H4_3 1_555 1_555
C3_3 C2_3 1_555 1_555
C4_3 C3_3 1_555 1_555
H5_3 C4_3 1_555 1_555
C5_3 C4_3 1_555 1_555
C6_3 C1_3 1_555 1_555
H6_3 C6_3 1_555 1_555
C7_3 C3_3 1_555 1_555
C8_3 C7_3 1_555 1_555
H7_3 C8_3 1_555 1_555
C9_3 C8_3 1_555 1_555
H8_3 C9_3 1_555 1_555
C10_3 C9_3 1_555 1_555
C11_3 C10_3 1_555 1_555
H9_3 C11_3 1_555 1_555
C12_3 C7_3 1_555 1_555
H10_3 C12_3 1_555 1_555
C13_3 C10_3 1_555 1_555
C14_3 C5_3 1_555 1_555
C15_3 C14_3 1_555 1_555
H11_3 C15_3 1_555 1_555
C16_3 C15_3 1_555 1_555
H12_3 C16_3 1_555 1_555
C17_3 C16_3 1_555 1_555
C18_3 C17_3 1_555 1_555
H13_3 C18_3 1_555 1_555
C19_3 C14_3 1_555 1_555
H14_3 C19_3 1_555 1_555
C20_3 C17_3 1_555 1_555
H27_3 O19_3 1_555 1_555
H28_3 O19_3 1_555 1_555
O29_2 Er10 1_555 1_555
O31_2 Er7_3 1_555 1_555
C5_3 C6_3 1_555 1_555
C11_3 C12_3 1_555 1_555
C18_3 C19_3 1_555 1_555
O21 C60_4 1_555 1_555
O23 C60_4 1_555 1_555
O25_2 C69_4 1_555 1_555
O27_2 C69_4 1_555 1_555
H36_4 C55_4 1_555 1_555
C56_4 C55_4 1_555 1_555
H37_4 C56_4 1_555 1_555
C57_4 C56_4 1_555 1_555
C60_4 C57_4 1_555 1_555
Er7 O2_4 1_555 1_555
Er12 O1_4 1_555 1_555
O1_4 C13_4 1_555 1_555
O2_4 C13_4 1_555 1_555
O20 C20_4 1_555 1_555
O22 C20_4 1_555 1_555
O24_2 C29_4 1_555 1_555
O26_2 C29_4 1_555 1_555
O28_2 C36_4 1_555 1_555
O30_2 C36_4 1_555 1_555
O9_6 Er7 1_555 1_555
H1_4 O9_6 1_555 1_555
O10_4 Er12 1_555 1_555
H2_4 O10_4 1_555 1_555
H3_4 O10_4 1_555 1_555
C1_4 C2_4 1_555 1_555
C2_4 H4_4 1_555 1_555
C3_4 C2_4 1_555 1_555
C4_4 C3_4 1_555 1_555
H5_4 C4_4 1_555 1_555
C5_4 C4_4 1_555 1_555
C6_4 C1_4 1_555 1_555
H6_4 C6_4 1_555 1_555
C7_4 C3_4 1_555 1_555
C8_4 C7_4 1_555 1_555
H7_4 C8_4 1_555 1_555
C9_4 C8_4 1_555 1_555
H8_4 C9_4 1_555 1_555
C10_4 C9_4 1_555 1_555
C11_4 C10_4 1_555 1_555
H9_4 C11_4 1_555 1_555
C12_4 C7_4 1_555 1_555
H10_4 C12_4 1_555 1_555
C13_4 C10_4 1_555 1_555
C14_4 C5_4 1_555 1_555
C15_4 C14_4 1_555 1_555
H11_4 C15_4 1_555 1_555
C16_4 C15_4 1_555 1_555
H12_4 C16_4 1_555 1_555
C17_4 C16_4 1_555 1_555
C18_4 C17_4 1_555 1_555
H13_4 C18_4 1_555 1_555
C19_4 C14_4 1_555 1_555
H14_4 C19_4 1_555 1_555
C20_4 C17_4 1_555 1_555
C21_4 C1_4 1_555 1_555
C22_4 C21_4 1_555 1_555
H15_4 C22_4 1_555 1_555
C23_4 C22_4 1_555 1_555
C24_4 C23_4 1_555 1_555
H16_4 C24_4 1_555 1_555
C25_4 C24_4 1_555 1_555
C26_4 C21_4 1_555 1_555
H17_4 C26_4 1_555 1_555
C27_4 C25_4 1_555 1_555
C28_4 C29_4 1_555 1_555
C30_4 C23_4 1_555 1_555
C31_4 C30_4 1_555 1_555
H18_4 C31_4 1_555 1_555
C32_4 C31_4 1_555 1_555
H19_4 C32_4 1_555 1_555
C33_4 C32_4 1_555 1_555
C34_4 C33_4 1_555 1_555
H20_4 C34_4 1_555 1_555
C35_4 C30_4 1_555 1_555
H21_4 C35_4 1_555 1_555
C36_4 C33_4 1_555 1_555
C37_4 C28_4 1_555 1_555
H22_4 C37_4 1_555 1_555
C38_4 C27_4 1_555 1_555
H23_4 C38_4 1_555 1_555
C39_4 C28_4 1_555 1_555
H24_4 C39_4 1_555 1_555
C40_4 C27_4 1_555 1_555
H25_4 C40_4 1_555 1_555
H26_4 O9_6 1_555 1_555
Er13 O11_4 1_555 1_555
O11_4 C53_4 1_555 1_555
O12_4 Er7 1_555 1_555
O29_2 C76_4 1_555 1_555
O31_2 C76_4 1_555 1_555
O19_4 Er13 1_555 1_555
H27_4 O19_4 1_555 1_555
H28_4 O19_4 1_555 1_555
C41_4 C42_4 1_555 1_555
C42_4 H29_4 1_555 1_555
C43_4 C42_4 1_555 1_555
C44_4 C43_4 1_555 1_555
H30_4 C44_4 1_555 1_555
C45_4 C44_4 1_555 1_555
C46_4 C41_4 1_555 1_555
H31_4 C46_4 1_555 1_555
C47_4 C43_4 1_555 1_555
C48_4 C47_4 1_555 1_555
H32_4 C48_4 1_555 1_555
C49_4 C48_4 1_555 1_555
H33_4 C49_4 1_555 1_555
C50_4 C49_4 1_555 1_555
C51_4 C50_4 1_555 1_555
H34_4 C51_4 1_555 1_555
C52_4 C47_4 1_555 1_555
H35_4 C52_4 1_555 1_555
C53_4 O12_4 1_555 1_555
C54_4 C45_4 1_555 1_555
H38_4 C58_4 1_555 1_555
C59_4 C54_4 1_555 1_555
H39_4 C59_4 1_555 1_555
C61_4 C41_4 1_555 1_555
C62_4 C61_4 1_555 1_555
H40_4 C62_4 1_555 1_555
C63_4 C62_4 1_555 1_555
C64_4 C63_4 1_555 1_555
H41_4 C64_4 1_555 1_555
C65_4 C64_4 1_555 1_555
C66_4 C61_4 1_555 1_555
H42_4 C66_4 1_555 1_555
C67_4 C65_4 1_555 1_555
C70_4 C63_4 1_555 1_555
C71_4 C70_4 1_555 1_555
H43_4 C71_4 1_555 1_555
C72_4 C71_4 1_555 1_555
H44_4 C72_4 1_555 1_555
C73_4 C72_4 1_555 1_555
C74_4 C73_4 1_555 1_555
H45_4 C74_4 1_555 1_555
C75_4 C70_4 1_555 1_555
H46_4 C75_4 1_555 1_555
C76_4 C73_4 1_555 1_555
C77_4 C68_4 1_555 1_555
H47_4 C77_4 1_555 1_555
C78_4 C67_4 1_555 1_555
H48_4 C78_4 1_555 1_555
C79_4 C68_4 1_555 1_555
C80_4 C67_4 1_555 1_555
H50_4 C80_4 1_555 1_555
C5_4 C6_4 1_555 1_555
C11_4 C12_4 1_555 1_555
C18_4 C19_4 1_555 1_555
C25_4 C26_4 1_555 1_555
C34_4 C35_4 1_555 1_555
C37_4 C40_4 1_555 1_555
C38_4 C39_4 1_555 1_555
C45_4 C46_4 1_555 1_555
C50_4 C53_4 1_555 1_555
C51_4 C52_4 1_555 1_555
C58_4 C59_4 1_555 1_555
C65_4 C66_4 1_555 1_555
C74_4 C75_4 1_555 1_555
C77_4 C80_4 1_555 1_555
C78_4 C79_4 1_555 1_555

#END
