
###############################################################################
#
# This file contains modified crystal structure data generated from the
# MOF subset of the Cambridge Structural Database (CSD) v543 
# hosted by the Cambridge Crystallographic Data Centre (CCDC).
#
# This work is licensed under the Creative Commons
# Attribution-NonCommercial-ShareAlike 4.0 International License.
# To view a copy of this license, visit
# http://creativecommons.org/licenses/by-nc-sa/4.0/
# or send a letter to
# Creative Commons, PO Box 1866, Mountain View, CA 94042, USA.
#
# CIF created using the CSD Python API on 29 September 2022
# The structure has been converted into the P1 space group
# The structure has a 3D framework
# The original CSD entry ATIBUA is in the monoclinic crystal system
# The framework has been calculated to contain at least 10.0% void space
# The void calculation uses a probe of radius 1.32A, grid spacing 0.4
#
###############################################################################

data_ATIBUA
_chemical_formula_moiety         '(C24 H24 Mn20 O48)n'
_symmetry_cell_setting           triclinic
_symmetry_space_group_name_H-M   'P 1'
_symmetry_Int_Tables_number      1
_space_group_name_Hall           'P 1'
loop_
_symmetry_equiv_pos_site_id
_symmetry_equiv_pos_as_xyz
1 x,y,z
_cell_length_a                   11.519(2)
_cell_length_b                   10.0050(15)
_cell_length_c                   18.685(4)
_cell_angle_alpha                90
_cell_angle_beta                 126.821(3)
_cell_angle_gamma                90
_cell_volume                     1723.82
loop_
_atom_site_label
_atom_site_type_symbol
_atom_site_fract_x
_atom_site_fract_y
_atom_site_fract_z
Mn9 Mn -0.0000 0.0000 0.0000
Mn9_2 Mn -0.0000 0.0000 1.0000
Mn9_3 Mn -0.0000 1.0000 0.0000
Mn12 Mn -0.0000 0.5000 0.5000
Mn9_4 Mn 0.0000 1.0000 1.0000
Mn1 Mn 0.37537(4) 0.08589(4) 0.13161(2)
Mn3 Mn 0.5000 0.0000 0.0000
O1 O 0.43287(19) 0.20852(17) 0.24635(11)
O2 O 0.5519(2) 0.07714(17) 0.36771(12)
O3 O 0.59702(19) 0.00500(16) 0.21985(12)
O5 O 0.45699(19) 0.26608(16) 0.10953(11)
O6 O 0.4880(2) 0.21473(18) 0.00554(12)
O11 O 0.15817(19) 0.16495(16) 0.05777(12)
O12 O 0.19351(19) 0.38365(16) 0.09015(12)
C1 C 0.4920(3) 0.1831(3) 0.32820(18)
C3 C 0.4790(3) 0.2945(3) 0.05232(18)
C6 C 0.1163(3) 0.2856(3) 0.04842(18)
H1 H 0.496(3) 0.254(3) 0.364(2)
H3 H 0.494(3) 0.389(3) 0.0457(19)
H6 H 0.014(3) 0.299(3) 0.0045(17)
O18 O 0.8827(2) 0.11568(18) 0.03452(13)
C9 C 0.7711(3) 0.1081(3) 0.02888(19)
H9 H 0.762(3) 0.163(3) 0.065(2)
Mn7 Mn 0.42097(4) 0.40287(4) 0.18515(3)
Mn9_5 Mn 1.0000 0.0000 0.0000
Mn3_2 Mn 0.5000 0.0000 1.0000
O14 O 0.3163(2) 0.00206(18) 0.85956(12)
C7 C 0.3017(3) 0.0079(3) 0.78884(18)
H7 H 0.207(3) 0.026(3) 0.7355(19)
O17 O 0.66398(19) 0.03015(17) 0.97749(12)
Mn6 Mn 0.42097(4) 0.09713(4) 0.68515(3)
Mn9_6 Mn 1.0000 0.0000 1.0000
O29 O 0.65193(19) 0.07764(17) 0.80305(12)
O31 O 0.43287(19) 0.29148(17) 0.74635(11)
O33 O 0.45699(19) 0.23392(16) 0.60953(11)
O34 O 0.19351(19) 0.11635(16) 0.59015(12)
Mn2 Mn 0.57903(4) 0.90287(4) 0.31485(3)
Mn3_3 Mn 0.5000 1.0000 0.0000
O4 O 0.6837(2) 0.99794(18) 0.14044(12)
O7 O 0.34807(19) 0.92236(17) 0.19695(12)
O8 O 0.11000(19) 0.89449(18) 0.12572(13)
O9 O 0.33602(19) 0.96985(17) 0.02251(12)
C2 C 0.6983(3) 0.9921(3) 0.21116(18)
C4 C 0.2373(3) 0.8716(3) 0.18659(19)
H2 H 0.793(3) 0.974(3) 0.2645(19)
H4 H 0.258(3) 0.805(3) 0.231(2)
O19 O 0.56713(19) 0.70852(17) 0.25365(11)
O20 O 0.4481(2) 0.57714(17) 0.13229(12)
C10 C 0.5080(3) 0.6831(3) 0.17180(18)
H10 H 0.504(3) 0.754(3) 0.136(2)
O21 O 0.84183(19) 0.66495(16) 0.44223(12)
O22 O 0.80649(19) 0.88365(16) 0.40985(12)
C11 C 0.8837(3) 0.7856(3) 0.45158(18)
H11 H 0.986(3) 0.799(3) 0.4955(17)
O25 O 0.54301(19) 0.76608(16) 0.39047(11)
Mn9_7 Mn 1.0000 1.0000 0.0000
Mn10 Mn 0.62463(4) 0.58589(4) 0.36839(2)
Mn12_2 Mn 1.0000 0.5000 0.5000
Mn3_4 Mn 0.5000 1.0000 1.0000
O10 O 0.1173(2) 0.88432(18) 0.96548(13)
C5 C 0.2289(3) 0.8919(3) 0.97112(19)
H5 H 0.238(3) 0.837(3) 0.935(2)
O13 O 0.40298(19) 0.99500(16) 0.78015(12)
O15 O 0.54301(19) 0.73392(16) 0.89047(11)
O16 O 0.5120(2) 0.78527(18) 0.99446(12)
C8 C 0.5210(3) 0.7055(3) 0.94768(18)
H8 H 0.506(3) 0.611(3) 0.9543(19)
Mn5 Mn 0.62463(4) 0.91411(4) 0.86839(2)
Mn8 Mn 0.57903(4) 0.59713(4) 0.81485(3)
Mn9_8 Mn 1.0000 1.0000 1.0000
O28 O 0.56713(19) 0.79148(17) 0.75365(11)
O30 O 0.84183(19) 0.83505(16) 0.94223(12)
O32 O 0.4481(2) 0.92286(17) 0.63229(12)
O24 O 0.89000(19) 0.10551(18) 0.87428(13)
C12 C 0.7627(3) 0.1284(3) 0.81341(19)
H12 H 0.742(3) 0.195(3) 0.769(2)
Mn1_2 Mn 0.37537(4) 0.41411(4) 0.63161(2)
Mn3_5 Mn 0.5000 0.5000 0.5000
O2_2 O 0.5519(2) 0.42286(17) 0.86771(12)
O3_2 O 0.59702(19) 0.49500(16) 0.71985(12)
O4_2 O 0.6837(2) 0.50206(18) 0.64044(12)
O6_2 O 0.4880(2) 0.28527(18) 0.50554(12)
O7_2 O 0.34807(19) 0.57764(17) 0.69695(12)
O8_2 O 0.11000(19) 0.60551(18) 0.62572(13)
O9_2 O 0.33602(19) 0.53015(17) 0.52251(12)
O10_2 O 0.1173(2) 0.61568(18) 0.46548(13)
O11_2 O 0.15817(19) 0.33505(16) 0.55777(12)
C1_2 C 0.4920(3) 0.3169(3) 0.82820(18)
C2_2 C 0.6983(3) 0.5079(3) 0.71116(18)
C3_2 C 0.4790(3) 0.2055(3) 0.55232(18)
C4_2 C 0.2373(3) 0.6284(3) 0.68659(19)
C5_2 C 0.2289(3) 0.6081(3) 0.47112(19)
C6_2 C 0.1163(3) 0.2144(3) 0.54842(18)
H1_2 H 0.496(3) 0.246(3) 0.864(2)
H2_2 H 0.793(3) 0.526(3) 0.7645(19)
H3_2 H 0.494(3) 0.111(3) 0.5457(19)
H4_2 H 0.258(3) 0.695(3) 0.731(2)
H5_2 H 0.238(3) 0.663(3) 0.435(2)
H6_2 H 0.014(3) 0.201(3) 0.5045(17)
O13_2 O 0.40298(19) 0.50500(16) 0.28015(12)
O14_2 O 0.3163(2) 0.49794(18) 0.35956(12)
C7_2 C 0.3017(3) 0.4921(3) 0.28884(18)
H7_2 H 0.207(3) 0.474(3) 0.2355(19)
O16_2 O 0.5120(2) 0.71473(18) 0.49446(12)
C8_2 C 0.5210(3) 0.7945(3) 0.44768(18)
H8_2 H 0.506(3) 0.889(3) 0.4543(19)
O17_2 O 0.66398(19) 0.46985(17) 0.47749(12)
O18_2 O 0.8827(2) 0.38432(18) 0.53452(13)
C9_2 C 0.7711(3) 0.3919(3) 0.52888(19)
H9_2 H 0.762(3) 0.337(3) 0.565(2)
C10_2 C 0.5080(3) 0.8169(3) 0.67180(18)
H10_2 H 0.504(3) 0.746(3) 0.636(2)
O22_2 O 0.80649(19) 0.61635(16) 0.90985(12)
C11_2 C 0.8837(3) 0.7144(3) 0.95158(18)
H11_2 H 0.986(3) 0.701(3) 0.9955(17)
O29_2 O 0.65193(19) 0.42236(17) 0.30305(12)
O24_2 O 0.89000(19) 0.39449(18) 0.37428(13)
C12_2 C 0.7627(3) 0.3716(3) 0.31341(19)
H12_2 H 0.742(3) 0.305(3) 0.269(2)
loop_
_geom_bond_atom_site_label_1
_geom_bond_atom_site_label_2
_geom_bond_site_symmetry_1
_geom_bond_site_symmetry_2
Mn1 O1 1_555 1_555
O1 C1 1_555 1_555
O2 C1 1_555 1_555
O3 Mn1 1_555 1_555
O5 Mn1 1_555 1_555
O6 Mn3 1_555 1_555
O11 Mn1 1_555 1_555
O12 C6 1_555 1_555
C1 H1 1_555 1_555
C3 O5 1_555 1_555
C6 O11 1_555 1_555
H3 C3 1_555 1_555
H6 C6 1_555 1_555
O18 C9 1_555 1_555
H9 C9 1_555 1_555
Mn7 O1 1_555 1_555
Mn9_5 O18 1_555 1_555
Mn9 O11 1_555 1_555
O5 Mn7 1_555 1_555
O6 C3 1_555 1_555
O12 Mn7 1_555 1_555
O14 Mn3_2 1_555 1_555
C7 O14 1_555 1_555
H7 C7 1_555 1_555
O17 Mn3_2 1_555 1_555
O31 Mn6 1_555 1_555
O33 Mn6 1_555 1_555
O34 Mn6 1_555 1_555
Mn6 O29 1_555 1_555
Mn3_3 O4 1_555 1_555
Mn9_3 O8 1_555 1_555
O4 C2 1_555 1_555
O8 C4 1_555 1_555
C4 O7 1_555 1_555
H2 C2 1_555 1_555
H4 C4 1_555 1_555
O19 Mn2 1_555 1_555
O20 C10 1_555 1_555
C10 O19 1_555 1_555
H10 C10 1_555 1_555
O21 C11 1_555 1_555
O22 Mn2 1_555 1_555
C11 O22 1_555 1_555
H11 C11 1_555 1_555
O25 Mn2 1_555 1_555
Mn10 O19 1_555 1_555
Mn7 O20 1_555 1_555
Mn12_2 O21 1_555 1_555
Mn2 O7 1_555 1_555
Mn3_3 O9 1_555 1_555
O21 Mn10 1_555 1_555
O25 Mn10 1_555 1_555
O10 Mn9_4 1_555 1_555
H5 C5 1_555 1_555
O15 C8 1_555 1_555
O16 Mn3_4 1_555 1_555
C8 O16 1_555 1_555
H8 C8 1_555 1_555
Mn5 O13 1_555 1_555
Mn8 O15 1_555 1_555
O28 Mn5 1_555 1_555
O30 Mn5 1_555 1_555
O10 C5 1_555 1_555
O15 Mn5 1_555 1_555
Mn8 O28 1_555 1_555
Mn9_8 O30 1_555 1_555
O29 C12 1_555 1_555
O24 Mn9_6 1_555 1_555
C12 O24 1_555 1_555
H12 C12 1_555 1_555
Mn1_2 O31 1_555 1_555
Mn8 O2_2 1_555 1_555
Mn3_5 O4_2 1_555 1_555
Mn12 O8_2 1_555 1_555
O31 C1_2 1_555 1_555
O2_2 C1_2 1_555 1_555
O3_2 Mn1_2 1_555 1_555
O4_2 C2_2 1_555 1_555
O33 Mn1_2 1_555 1_555
O6_2 Mn3_5 1_555 1_555
O7_2 Mn1_2 1_555 1_555
O8_2 C4_2 1_555 1_555
O9_2 Mn1_2 1_555 1_555
O10_2 Mn12 1_555 1_555
O11_2 Mn1_2 1_555 1_555
O34 C6_2 1_555 1_555
C1_2 H1_2 1_555 1_555
C2_2 O3_2 1_555 1_555
C3_2 O33 1_555 1_555
C4_2 O7_2 1_555 1_555
C5_2 O9_2 1_555 1_555
C6_2 O11_2 1_555 1_555
H2_2 C2_2 1_555 1_555
H3_2 C3_2 1_555 1_555
H4_2 C4_2 1_555 1_555
H5_2 C5_2 1_555 1_555
H6_2 C6_2 1_555 1_555
O13_2 C7_2 1_555 1_555
O14_2 Mn3_5 1_555 1_555
C7_2 O14_2 1_555 1_555
H7_2 C7_2 1_555 1_555
O25 C8_2 1_555 1_555
O16_2 Mn3_5 1_555 1_555
C8_2 O16_2 1_555 1_555
H8_2 C8_2 1_555 1_555
O17_2 Mn3_5 1_555 1_555
O18_2 C9_2 1_555 1_555
C9_2 O17_2 1_555 1_555
H9_2 C9_2 1_555 1_555
Mn10 O13_2 1_555 1_555
Mn7 O13_2 1_555 1_555
O32 C10_2 1_555 1_555
C10_2 O28 1_555 1_555
H10_2 C10_2 1_555 1_555
O30 C11_2 1_555 1_555
O22_2 Mn8 1_555 1_555
C11_2 O22_2 1_555 1_555
H11_2 C11_2 1_555 1_555
Mn12_2 O18_2 1_555 1_555
O29_2 Mn10 1_555 1_555
Mn8 O3_2 1_555 1_555
Mn8 O7_2 1_555 1_555
Mn3_5 O9_2 1_555 1_555
Mn12 O11_2 1_555 1_555
O6_2 C3_2 1_555 1_555
O10_2 C5_2 1_555 1_555
O17_2 Mn10 1_555 1_555
Mn7 O29_2 1_555 1_555
O29_2 C12_2 1_555 1_555
O24_2 Mn12_2 1_555 1_555
C12_2 O24_2 1_555 1_555
H12_2 C12_2 1_555 1_555

#END
