
###############################################################################
#
# This file contains modified crystal structure data generated from the
# MOF subset of the Cambridge Structural Database (CSD) v543 
# hosted by the Cambridge Crystallographic Data Centre (CCDC).
#
# This work is licensed under the Creative Commons
# Attribution-NonCommercial-ShareAlike 4.0 International License.
# To view a copy of this license, visit
# http://creativecommons.org/licenses/by-nc-sa/4.0/
# or send a letter to
# Creative Commons, PO Box 1866, Mountain View, CA 94042, USA.
#
# CIF created using the CSD Python API on 29 September 2022
# The structure has been converted into the P1 space group
# The structure has a 3D framework
# The original CSD entry ATIBAG is in the monoclinic crystal system
# The framework has been calculated to contain at least 10.0% void space
# The void calculation uses a probe of radius 1.32A, grid spacing 0.4
#
###############################################################################

data_ATIBAG
_chemical_formula_moiety         '(C24 H24 Mn20 O48)n'
_symmetry_cell_setting           triclinic
_symmetry_space_group_name_H-M   'P 1'
_symmetry_Int_Tables_number      1
_space_group_name_Hall           'P 1'
loop_
_symmetry_equiv_pos_site_id
_symmetry_equiv_pos_as_xyz
1 x,y,z
_cell_length_a                   11.6495(11)
_cell_length_b                   10.1279(11)
_cell_length_c                   18.6135(15)
_cell_angle_alpha                90
_cell_angle_beta                 127.056(3)
_cell_angle_gamma                90
_cell_volume                     1752.6
loop_
_atom_site_label
_atom_site_type_symbol
_atom_site_fract_x
_atom_site_fract_y
_atom_site_fract_z
Mn9 Mn 0.0000 0.0000 0.0000
Mn9_2 Mn 0.0000 0.0000 1.0000
Mn9_3 Mn 0.0000 1.0000 0.0000
Mn12 Mn 0.0000 0.5000 0.5000
Mn9_4 Mn 0.0000 1.0000 1.0000
Mn1 Mn 0.37432(3) 0.08441(3) 0.131153(19)
Mn3 Mn 0.5000 0.0000 0.0000
O1 O 0.43917(16) 0.20728(14) 0.24728(9)
O2 O 0.55274(19) 0.07452(16) 0.36767(10)
O3 O 0.59193(16) 0.00050(14) 0.21930(10)
O4 O 0.68006(18) 0.00373(18) 0.14175(11)
O5 O 0.45245(16) 0.26268(15) 0.10609(9)
O6 O 0.48175(19) 0.21092(17) 0.00144(10)
O11 O 0.15904(16) 0.16232(15) 0.05982(10)
O12 O 0.19788(17) 0.37827(16) 0.09046(10)
C1 C 0.4980(3) 0.1814(2) 0.32915(14)
H1 H 0.5007 0.2506 0.3646
C3 C 0.4753(3) 0.2907(2) 0.04908(15)
H3 H 0.4886 0.3812 0.0426
C6 C 0.1194(3) 0.2816(2) 0.05222(15)
H6 H 0.0188 0.2979 0.0130
O18 O 0.88379(19) 0.10695(17) 0.03739(12)
C9 C 0.7746(3) 0.1017(2) 0.03191(15)
H9 H 0.7701 0.1576 0.0712
Mn7 Mn 0.42447(3) 0.39971(3) 0.18492(2)
Mn9_5 Mn 1.0000 0.0000 0.0000
Mn3_2 Mn 0.5000 0.0000 1.0000
C7 C 0.3075(3) 0.0073(2) 0.78850(15)
H7 H 0.2135 0.0234 0.7350
O17 O 0.66531(16) 0.02882(15) 0.97885(9)
Mn6 Mn 0.42447(3) 0.10029(3) 0.68492(2)
Mn9_6 Mn 1.0000 0.0000 1.0000
O29 O 0.65409(16) 0.07601(15) 0.80253(9)
O31 O 0.43917(16) 0.29272(14) 0.74728(9)
O33 O 0.45245(16) 0.23732(15) 0.60609(9)
O34 O 0.19788(17) 0.12173(16) 0.59046(10)
Mn2 Mn 0.57553(3) 0.89971(3) 0.31508(2)
Mn3_3 Mn 0.5000 1.0000 0.0000
O7 O 0.34591(16) 0.92399(15) 0.19747(9)
O8 O 0.11091(19) 0.89276(19) 0.12488(11)
O9 O 0.33469(16) 0.97118(15) 0.02115(9)
C2 C 0.6925(3) 0.9927(2) 0.21150(15)
H2 H 0.7865 0.9766 0.2650
C4 C 0.2377(3) 0.8726(3) 0.18717(15)
H4 H 0.2568 0.8123 0.2323
O19 O 0.56083(16) 0.70728(14) 0.25272(9)
O20 O 0.44726(19) 0.57452(16) 0.13233(10)
C10 C 0.5020(3) 0.6814(2) 0.17085(14)
H10 H 0.4993 0.7506 0.1354
O21 O 0.84096(16) 0.66232(15) 0.44018(10)
O22 O 0.80212(17) 0.87827(16) 0.40954(10)
C11 C 0.8806(3) 0.7816(2) 0.44778(15)
H11 H 0.9812 0.7979 0.4870
O25 O 0.54755(16) 0.76268(15) 0.39391(9)
Mn9_7 Mn 1.0000 1.0000 0.0000
Mn10 Mn 0.62568(3) 0.58441(3) 0.368847(19)
Mn12_2 Mn 1.0000 0.5000 0.5000
Mn3_4 Mn 0.5000 1.0000 1.0000
O10 O 0.11621(19) 0.89305(17) 0.96261(12)
C5 C 0.2254(3) 0.8983(2) 0.96809(15)
H5 H 0.2299 0.8424 0.9288
O13 O 0.40807(16) 0.99950(14) 0.78070(10)
O14 O 0.31994(18) 0.99627(18) 0.85825(11)
O15 O 0.54755(16) 0.73732(15) 0.89391(9)
O16 O 0.51825(19) 0.78908(17) 0.99856(10)
C8 C 0.5247(3) 0.7093(2) 0.95092(15)
H8 H 0.5114 0.6188 0.9574
Mn5 Mn 0.62568(3) 0.91559(3) 0.868847(19)
Mn8 Mn 0.57553(3) 0.60029(3) 0.81508(2)
Mn9_8 Mn 1.0000 1.0000 1.0000
O28 O 0.56083(16) 0.79272(14) 0.75272(9)
O30 O 0.84096(16) 0.83768(15) 0.94018(10)
O32 O 0.44726(19) 0.92548(16) 0.63233(10)
O24 O 0.88909(19) 0.10724(19) 0.87512(11)
C12 C 0.7623(3) 0.1274(3) 0.81283(15)
H12 H 0.7432 0.1877 0.7677
O23 O 0.34591(16) 0.57601(15) 0.69747(9)
O24_2 O 0.11091(19) 0.60724(19) 0.62488(11)
C12_2 C 0.2377(3) 0.6274(3) 0.68717(15)
H12_2 H 0.2568 0.6877 0.7323
O26 O 0.11621(19) 0.60695(17) 0.46261(12)
O27 O 0.15904(16) 0.33768(15) 0.55982(10)
Mn13 Mn 0.37432(3) 0.41559(3) 0.631153(19)
Mn3_5 Mn 0.5000 0.5000 0.5000
O3_2 O 0.40807(16) 0.50050(14) 0.28070(10)
O4_2 O 0.31994(18) 0.50373(18) 0.35825(11)
O6_2 O 0.51825(19) 0.71092(17) 0.49856(10)
O7_2 O 0.65409(16) 0.42399(15) 0.30253(9)
O8_2 O 0.88909(19) 0.39276(19) 0.37512(11)
O9_2 O 0.66531(16) 0.47118(15) 0.47885(9)
O10_2 O 0.88379(19) 0.39305(17) 0.53739(12)
C2_2 C 0.3075(3) 0.4927(2) 0.28850(15)
H2_2 H 0.2135 0.4766 0.2350
C3_2 C 0.5247(3) 0.7907(2) 0.45092(15)
H3_2 H 0.5114 0.8812 0.4574
C4_2 C 0.7623(3) 0.3726(3) 0.31283(15)
H4_2 H 0.7432 0.3123 0.2677
C5_2 C 0.7746(3) 0.3983(2) 0.53191(15)
H5_2 H 0.7701 0.3424 0.5712
O13_2 O 0.59193(16) 0.49950(14) 0.71930(10)
O14_2 O 0.68006(18) 0.49627(18) 0.64175(11)
C7_2 C 0.6925(3) 0.5073(2) 0.71150(15)
H7_2 H 0.7865 0.5234 0.7650
O16_2 O 0.48175(19) 0.28908(17) 0.50144(10)
C8_2 C 0.4753(3) 0.2093(2) 0.54908(15)
H8_2 H 0.4886 0.1188 0.5426
O17_2 O 0.33469(16) 0.52882(15) 0.52115(9)
C9_2 C 0.2254(3) 0.6017(2) 0.46809(15)
H9_2 H 0.2299 0.6576 0.4288
O32_2 O 0.55274(19) 0.42548(16) 0.86767(10)
O34_2 O 0.80212(17) 0.62173(16) 0.90954(10)
C10_2 C 0.4980(3) 0.3186(2) 0.82915(14)
H10_2 H 0.5007 0.2494 0.8646
C11_2 C 0.1194(3) 0.2184(2) 0.55222(15)
H11_2 H 0.0188 0.2021 0.5130
C1_2 C 0.5020(3) 0.8186(2) 0.67085(14)
H1_2 H 0.4993 0.7494 0.6354
C6_2 C 0.8806(3) 0.7184(2) 0.94778(15)
H6_2 H 0.9812 0.7021 0.9870
loop_
_geom_bond_atom_site_label_1
_geom_bond_atom_site_label_2
_geom_bond_site_symmetry_1
_geom_bond_site_symmetry_2
Mn1 O1 1_555 1_555
Mn3 O4 1_555 1_555
O1 C1 1_555 1_555
O2 C1 1_555 1_555
O3 Mn1 1_555 1_555
O5 Mn1 1_555 1_555
O6 Mn3 1_555 1_555
O11 Mn1 1_555 1_555
O12 C6 1_555 1_555
C1 H1 1_555 1_555
C3 O5 1_555 1_555
H3 C3 1_555 1_555
C6 O11 1_555 1_555
H6 C6 1_555 1_555
O18 C9 1_555 1_555
H9 C9 1_555 1_555
Mn7 O1 1_555 1_555
Mn9_5 O18 1_555 1_555
Mn9 O11 1_555 1_555
O5 Mn7 1_555 1_555
O6 C3 1_555 1_555
O12 Mn7 1_555 1_555
H7 C7 1_555 1_555
O17 Mn3_2 1_555 1_555
O31 Mn6 1_555 1_555
O33 Mn6 1_555 1_555
O34 Mn6 1_555 1_555
Mn6 O29 1_555 1_555
Mn9_3 O8 1_555 1_555
O8 C4 1_555 1_555
H2 C2 1_555 1_555
C4 O7 1_555 1_555
H4 C4 1_555 1_555
O19 Mn2 1_555 1_555
O20 C10 1_555 1_555
C10 O19 1_555 1_555
H10 C10 1_555 1_555
O21 C11 1_555 1_555
O22 Mn2 1_555 1_555
C11 O22 1_555 1_555
H11 C11 1_555 1_555
O25 Mn2 1_555 1_555
Mn10 O19 1_555 1_555
Mn7 O20 1_555 1_555
Mn12_2 O21 1_555 1_555
Mn2 O7 1_555 1_555
Mn3_3 O9 1_555 1_555
O21 Mn10 1_555 1_555
O25 Mn10 1_555 1_555
O10 Mn9_4 1_555 1_555
H5 C5 1_555 1_555
O14 Mn3_4 1_555 1_555
O15 C8 1_555 1_555
O16 Mn3_4 1_555 1_555
C8 O16 1_555 1_555
H8 C8 1_555 1_555
Mn5 O13 1_555 1_555
Mn8 O15 1_555 1_555
O28 Mn5 1_555 1_555
O30 Mn5 1_555 1_555
O10 C5 1_555 1_555
O15 Mn5 1_555 1_555
Mn8 O28 1_555 1_555
Mn9_8 O30 1_555 1_555
O29 C12 1_555 1_555
O24 Mn9_6 1_555 1_555
C12 O24 1_555 1_555
H12 C12 1_555 1_555
O23 C12_2 1_555 1_555
O24_2 Mn12 1_555 1_555
C12_2 O24_2 1_555 1_555
H12_2 C12_2 1_555 1_555
O26 Mn12 1_555 1_555
O27 Mn12 1_555 1_555
Mn13 O23 1_555 1_555
Mn8 O23 1_555 1_555
O27 Mn13 1_555 1_555
Mn3_5 O4_2 1_555 1_555
Mn12_2 O8_2 1_555 1_555
O3_2 Mn10 1_555 1_555
O4_2 C2_2 1_555 1_555
O6_2 Mn3_5 1_555 1_555
O7_2 Mn10 1_555 1_555
O8_2 C4_2 1_555 1_555
O9_2 Mn10 1_555 1_555
O10_2 Mn12_2 1_555 1_555
C2_2 O3_2 1_555 1_555
H2_2 C2_2 1_555 1_555
C3_2 O25 1_555 1_555
H3_2 C3_2 1_555 1_555
C4_2 O7_2 1_555 1_555
H4_2 C4_2 1_555 1_555
C5_2 O9_2 1_555 1_555
H5_2 C5_2 1_555 1_555
O13_2 C7_2 1_555 1_555
O14_2 Mn3_5 1_555 1_555
C7_2 O14_2 1_555 1_555
H7_2 C7_2 1_555 1_555
O33 C8_2 1_555 1_555
O16_2 Mn3_5 1_555 1_555
C8_2 O16_2 1_555 1_555
H8_2 C8_2 1_555 1_555
O17_2 Mn3_5 1_555 1_555
O26 C9_2 1_555 1_555
C9_2 O17_2 1_555 1_555
H9_2 C9_2 1_555 1_555
Mn13 O13_2 1_555 1_555
Mn8 O13_2 1_555 1_555
O31 Mn13 1_555 1_555
O32_2 Mn8 1_555 1_555
O34_2 Mn8 1_555 1_555
Mn7 O3_2 1_555 1_555
Mn7 O7_2 1_555 1_555
Mn3_5 O9_2 1_555 1_555
O6_2 C3_2 1_555 1_555
O10_2 C5_2 1_555 1_555
O33 Mn13 1_555 1_555
O17_2 Mn13 1_555 1_555
O32_2 C10_2 1_555 1_555
C10_2 O31 1_555 1_555
H10_2 C10_2 1_555 1_555
O27 C11_2 1_555 1_555
C11_2 O34 1_555 1_555
H11_2 C11_2 1_555 1_555
O28 C1_2 1_555 1_555
O32 C1_2 1_555 1_555
O34_2 C6_2 1_555 1_555
C1_2 H1_2 1_555 1_555
C6_2 O30 1_555 1_555
H6_2 C6_2 1_555 1_555

#END
