
###############################################################################
#
# This file contains modified crystal structure data generated from the
# MOF subset of the Cambridge Structural Database (CSD) v543 
# hosted by the Cambridge Crystallographic Data Centre (CCDC).
#
# This work is licensed under the Creative Commons
# Attribution-NonCommercial-ShareAlike 4.0 International License.
# To view a copy of this license, visit
# http://creativecommons.org/licenses/by-nc-sa/4.0/
# or send a letter to
# Creative Commons, PO Box 1866, Mountain View, CA 94042, USA.
#
# CIF created using the CSD Python API on 29 September 2022
# The structure has been converted into the P1 space group
# The structure has a 3D framework
# The original CSD entry ATIBOU02 is in the monoclinic crystal system
# The framework has been calculated to contain at least 10.0% void space
# The void calculation uses a probe of radius 1.32A, grid spacing 0.4
#
###############################################################################

data_ATIBOU02
_chemical_formula_moiety         '(C24 H24 Mn15 O47)n'
_symmetry_cell_setting           triclinic
_symmetry_space_group_name_H-M   'P 1'
_symmetry_Int_Tables_number      1
_space_group_name_Hall           'P 1'
loop_
_symmetry_equiv_pos_site_id
_symmetry_equiv_pos_as_xyz
1 x,y,z
_cell_length_a                   11.6976(3)
_cell_length_b                   10.2455(3)
_cell_length_c                   15.1724(4)
_cell_angle_alpha                90
_cell_angle_beta                 91.621(2)
_cell_angle_gamma                90
_cell_volume                     1817.65
loop_
_atom_site_label
_atom_site_type_symbol
_atom_site_fract_x
_atom_site_fract_y
_atom_site_fract_z
Mn4 Mn 0.0000 0.5000 0.0000
O9 O 0.0028(2) 0.6243(3) 0.11486(17)
O25 O 0.1553(2) 0.4043(3) 0.04257(18)
Mn4_2 Mn 0.0000 0.5000 1.0000
O33 O 0.09556(19) 0.6552(2) 0.93272(14)
Mn13 Mn 0.5000 0.0000 0.5000
Mn1 Mn 0.75606(4) 0.42390(5) 0.13133(3)
Mn2 Mn 0.73955(4) 0.61325(5) 0.30894(3)
Mn3 Mn 0.5000 0.5000 0.0000
Mn4_3 Mn 1.0000 0.5000 0.0000
O1 O 0.68624(19) 0.5293(2) 0.02062(15)
O5 O 0.6265(2) 0.5128(2) 0.21479(15)
O6 O 0.4622(2) 0.5074(3) 0.13880(16)
O7 O 0.8078(2) 0.4406(2) 0.36515(15)
O8 O 0.8034(2) 0.3057(2) 0.25008(13)
O10 O 0.85003(19) 0.5846(2) 0.19392(15)
O11 O 0.59556(19) 0.8448(2) 0.43272(14)
O12 O 0.6000(2) 0.6348(2) 0.39525(16)
C3 C 0.5192(3) 0.5223(4) 0.2059(2)
H3 H 0.4796 0.5431 0.2563
C4 C 0.8222(3) 0.3327(4) 0.3305(2)
H4 H 0.8492 0.2656 0.3667
C5 C 0.9410(3) 0.6442(4) 0.1766(2)
H5 H 0.9633 0.7106 0.2152
C6 C 0.5586(3) 0.7297(4) 0.4331(2)
H6 H 0.4933 0.7143 0.4652
O15 O 0.5225(2) 0.2923(3) 0.00748(17)
O16 O 0.6564(2) 0.2453(2) 0.10966(14)
C7 C 0.2588(3) 0.4043(4) 0.0345(2)
H7 H 0.3013 0.3506 0.0724
C8 C 0.5768(3) 0.2154(4) 0.0553(2)
H8 H 0.5574 0.1276 0.0509
Mn7 Mn 0.74394(4) 0.92390(5) 0.36867(3)
Mn9 Mn 0.76045(4) 0.11325(5) 0.19106(3)
Mn13_2 Mn 0.5000 1.0000 0.5000
O27 O 0.8436(2) 0.7453(2) 0.39034(14)
O28 O 0.6966(2) 0.8057(2) 0.24992(13)
O31 O 0.90444(19) 0.3448(2) 0.06728(14)
Mn3_2 Mn 0.5000 0.5000 1.0000
Mn4_4 Mn 1.0000 0.5000 1.0000
O2 O 0.8447(2) 0.5957(3) 0.95743(18)
O3 O 0.4775(2) 0.7077(3) 0.99252(17)
O4 O 0.3436(2) 0.7547(2) 0.89034(14)
C1 C 0.7412(3) 0.5957(4) 0.9655(2)
H1 H 0.6987 0.6494 0.9276
C2 C 0.4232(3) 0.7846(4) 0.9447(2)
H2 H 0.4426 0.8724 0.9491
Mn5 Mn 0.24394(4) 0.57610(5) 0.86867(3)
Mn6 Mn 0.26045(4) 0.38675(5) 0.69106(3)
O13 O 0.31376(19) 0.4707(2) 0.97938(15)
O17 O 0.3735(2) 0.4872(2) 0.78521(15)
O18 O 0.5378(2) 0.4926(3) 0.86120(16)
O19 O 0.1922(2) 0.5594(2) 0.63485(15)
O20 O 0.1966(2) 0.6943(2) 0.74992(13)
O22 O 0.14997(19) 0.4154(2) 0.80608(15)
O23 O 0.40444(19) 0.1552(2) 0.56728(14)
O24 O 0.4000(2) 0.3652(2) 0.60475(16)
C9 C 0.4808(3) 0.4777(4) 0.7941(2)
H9 H 0.5204 0.4569 0.7437
C10 C 0.1778(3) 0.6673(4) 0.6695(2)
H10 H 0.1508 0.7344 0.6333
C11 C 0.0590(3) 0.3558(4) 0.8234(2)
H11 H 0.0367 0.2894 0.7848
C12 C 0.4414(3) 0.2703(4) 0.5669(2)
H12 H 0.5067 0.2857 0.5348
Mn8 Mn 0.25606(4) 0.07610(5) 0.63133(3)
Mn10 Mn 0.23955(4) 0.88675(5) 0.80894(3)
O26 O 0.1564(2) 0.2547(2) 0.60966(14)
O29 O 0.3034(2) 0.1943(2) 0.75008(13)
O30 O 0.9972(2) 0.3757(3) 0.88514(17)
Mn3_3 Mn -0.0000 0.0000 0.5000
O3_2 O 0.0225(2) 0.2077(3) 0.50748(17)
O6_2 O 0.0378(2) 0.0074(3) 0.36120(16)
C2_2 C 0.0768(3) 0.2846(4) 0.5553(2)
H2_2 H 0.0574 0.3724 0.5509
H3_2 H 0.0204 0.0431 0.2437
H6_2 H 0.0067 0.2143 0.0348
O19_2 O 0.3078(2) 0.0594(2) 0.86515(15)
C10_2 C 0.3222(3) 0.1673(4) 0.8305(2)
H10_2 H 0.3492 0.2344 0.8667
Mn3_4 Mn -0.0000 1.0000 0.5000
O13_2 O 0.18624(19) 0.9707(2) 0.52062(15)
O14 O 0.3447(2) 0.9043(3) 0.45743(18)
O17_2 O 0.1265(2) 0.9872(2) 0.71479(15)
O21 O 0.5028(2) 0.8757(3) 0.61486(17)
O22_2 O 0.35003(19) 0.9154(2) 0.69392(15)
O24_2 O 0.1000(2) 0.8652(2) 0.89525(16)
C7_2 C 0.2412(3) 0.9043(4) 0.4655(2)
H7_2 H 0.1987 0.8506 0.4276
C9_2 C 0.0192(3) 0.9777(4) 0.7059(2)
C11_2 C 0.4410(3) 0.8558(4) 0.6766(2)
H11_2 H 0.4633 0.7894 0.7152
C12_2 C 0.0586(3) 0.7703(4) 0.9331(2)
Mn3_5 Mn 1.0000 0.0000 0.5000
O1_2 O 0.81376(19) 0.0293(2) 0.47938(15)
O2_2 O 0.6553(2) 0.0957(3) 0.54257(18)
O5_2 O 0.8735(2) 0.0128(2) 0.28521(15)
O9_2 O 0.4972(2) 0.1243(3) 0.38514(17)
O10_2 O 0.64997(19) 0.0846(2) 0.30608(15)
O12_2 O 0.9000(2) 0.1348(2) 0.10475(16)
C1_2 C 0.7588(3) 0.0957(4) 0.5345(2)
H1_2 H 0.8013 0.1494 0.5724
C3_2 C 0.9808(3) 0.0223(4) 0.2941(2)
C5_2 C 0.5590(3) 0.1442(4) 0.3234(2)
H5_2 H 0.5367 0.2106 0.2848
C6_2 C 0.9414(3) 0.2297(4) 0.0669(2)
Mn3_6 Mn 1.0000 1.0000 0.5000
O7_2 O 0.6922(2) 0.9406(2) 0.13485(15)
C4_2 C 0.6778(3) 0.8327(4) 0.1695(2)
H4_2 H 0.6508 0.7656 0.1333
O15_2 O 0.9775(2) 0.7923(3) 0.49252(17)
O18_2 O 0.9622(2) 0.9926(3) 0.63880(16)
C8_2 C 0.9232(3) 0.7154(4) 0.4447(2)
H8_2 H 0.9426 0.6276 0.4491
H9_2 H 0.9796 0.9569 0.7563
H12_2 H 0.9933 0.7857 0.9652
loop_
_geom_bond_atom_site_label_1
_geom_bond_atom_site_label_2
_geom_bond_site_symmetry_1
_geom_bond_site_symmetry_2
O9 Mn4 1_555 1_555
O25 Mn4 1_555 1_555
O33 Mn4_2 1_555 1_555
Mn1 O1 1_555 1_555
Mn2 O5 1_555 1_555
Mn3 O1 1_555 1_555
O5 Mn1 1_555 1_555
O6 Mn3 1_555 1_555
O7 Mn2 1_555 1_555
O8 Mn1 1_555 1_555
O10 Mn1 1_555 1_555
O11 C6 1_555 1_555
O12 Mn2 1_555 1_555
C3 O5 1_555 1_555
H3 C3 1_555 1_555
C4 O7 1_555 1_555
H4 C4 1_555 1_555
H5 C5 1_555 1_555
C6 O12 1_555 1_555
H6 C6 1_555 1_555
O25 C7 1_555 1_555
O15 Mn3 1_555 1_555
O16 Mn1 1_555 1_555
H7 C7 1_555 1_555
C8 O15 1_555 1_555
H8 C8 1_555 1_555
Mn7 O11 1_555 1_555
Mn9 O8 1_555 1_555
Mn13_2 O11 1_555 1_555
O27 Mn2 1_555 1_555
O28 Mn2 1_555 1_555
O31 Mn1 1_555 1_555
Mn2 O10 1_555 1_555
Mn4_3 O31 1_555 1_555
O6 C3 1_555 1_555
O8 C4 1_555 1_555
O10 C5 1_555 1_555
O16 C8 1_555 1_555
O16 Mn9 1_555 1_555
Mn7 O27 1_555 1_555
Mn7 O28 1_555 1_555
Mn4_4 O2 1_555 1_555
O2 C1 1_555 1_555
O3 Mn3_2 1_555 1_555
O4 C2 1_555 1_555
C1 H1 1_555 1_555
C2 O3 1_555 1_555
H2 C2 1_555 1_555
Mn5 O4 1_555 1_555
Mn6 O17 1_555 1_555
O13 Mn3_2 1_555 1_555
O17 Mn5 1_555 1_555
O18 Mn3_2 1_555 1_555
O19 Mn6 1_555 1_555
O20 Mn5 1_555 1_555
O22 Mn5 1_555 1_555
O23 C12 1_555 1_555
O24 Mn6 1_555 1_555
C9 O17 1_555 1_555
H9 C9 1_555 1_555
C10 O19 1_555 1_555
H10 C10 1_555 1_555
C11 O22 1_555 1_555
H11 C11 1_555 1_555
C12 O24 1_555 1_555
H12 C12 1_555 1_555
Mn8 O23 1_555 1_555
Mn10 O4 1_555 1_555
Mn13 O23 1_555 1_555
O26 Mn6 1_555 1_555
O29 Mn6 1_555 1_555
O30 Mn4_4 1_555 1_555
O33 Mn5 1_555 1_555
Mn5 O13 1_555 1_555
Mn6 O22 1_555 1_555
O18 C9 1_555 1_555
O20 C10 1_555 1_555
O20 Mn10 1_555 1_555
Mn8 O26 1_555 1_555
Mn8 O29 1_555 1_555
O3_2 Mn3_3 1_555 1_555
O26 C2_2 1_555 1_555
O6_2 Mn3_3 1_555 1_555
C2_2 O3_2 1_555 1_555
H2_2 C2_2 1_555 1_555
C10_2 O19_2 1_555 1_555
H10_2 C10_2 1_555 1_555
O29 C10_2 1_555 1_555
Mn10 O17_2 1_555 1_555
O13_2 Mn3_4 1_555 1_555
O14 C7_2 1_555 1_555
O21 C11_2 1_555 1_555
O33 C12_2 1_555 1_555
O24_2 Mn10 1_555 1_555
C7_2 O13_2 1_555 1_555
H7_2 C7_2 1_555 1_555
C9_2 O17_2 1_555 1_555
C11_2 O22_2 1_555 1_555
H11_2 C11_2 1_555 1_555
C12_2 O24_2 1_555 1_555
Mn13_2 O14 1_555 1_555
Mn10 O22_2 1_555 1_555
O21 Mn13_2 1_555 1_555
Mn9 O5_2 1_555 1_555
Mn3_5 O1_2 1_555 1_555
Mn13 O2_2 1_555 1_555
O1_2 C1_2 1_555 1_555
O2_2 C1_2 1_555 1_555
O9_2 Mn13 1_555 1_555
O31 C6_2 1_555 1_555
O12_2 Mn9 1_555 1_555
C1_2 H1_2 1_555 1_555
C3_2 O5_2 1_555 1_555
C5_2 O9_2 1_555 1_555
H5_2 C5_2 1_555 1_555
C6_2 O12_2 1_555 1_555
Mn9 O10_2 1_555 1_555
O10_2 C5_2 1_555 1_555
C4_2 O7_2 1_555 1_555
H4_2 C4_2 1_555 1_555
O15_2 Mn3_6 1_555 1_555
O18_2 Mn3_6 1_555 1_555
C8_2 O15_2 1_555 1_555
H8_2 C8_2 1_555 1_555
O28 C4_2 1_555 1_555
O27 C8_2 1_555 1_555

#END
