
###############################################################################
#
# This file contains modified crystal structure data generated from the
# MOF subset of the Cambridge Structural Database (CSD) v543 
# hosted by the Cambridge Crystallographic Data Centre (CCDC).
#
# This work is licensed under the Creative Commons
# Attribution-NonCommercial-ShareAlike 4.0 International License.
# To view a copy of this license, visit
# http://creativecommons.org/licenses/by-nc-sa/4.0/
# or send a letter to
# Creative Commons, PO Box 1866, Mountain View, CA 94042, USA.
#
# CIF created using the CSD Python API on 29 September 2022
# The structure has been converted into the P1 space group
# The structure has a 3D framework
# The original CSD entry ATIBOU is in the monoclinic crystal system
# The framework has been calculated to contain at least 10.0% void space
# The void calculation uses a probe of radius 1.32A, grid spacing 0.4
#
###############################################################################

data_ATIBOU
_chemical_formula_moiety         '(C24 H24 Mn20 O48)n'
_symmetry_cell_setting           triclinic
_symmetry_space_group_name_H-M   'P 1'
_symmetry_Int_Tables_number      1
_space_group_name_Hall           'P 1'
loop_
_symmetry_equiv_pos_site_id
_symmetry_equiv_pos_as_xyz
1 x,y,z
_cell_length_a                   11.7047(18)
_cell_length_b                   10.0946(13)
_cell_length_c                   18.556(3)
_cell_angle_alpha                90
_cell_angle_beta                 127.585(2)
_cell_angle_gamma                90
_cell_volume                     1737.42
loop_
_atom_site_label
_atom_site_type_symbol
_atom_site_fract_x
_atom_site_fract_y
_atom_site_fract_z
Mn9 Mn 0.0000 0.0000 0.0000
Mn9_2 Mn -0.0000 0.0000 1.0000
Mn9_3 Mn 0.0000 1.0000 0.0000
Mn12 Mn 0.0000 0.5000 0.5000
Mn9_4 Mn -0.0000 1.0000 1.0000
Mn1 Mn 0.37408(4) 0.08529(3) 0.13052(2)
Mn3 Mn 0.5000 0.0000 0.0000
O1 O 0.44342(16) 0.20932(15) 0.24833(9)
O2 O 0.56645(17) 0.08003(15) 0.37196(9)
O3 O 0.59248(17) 0.00295(15) 0.21952(9)
O4 O 0.68230(18) 0.00583(16) 0.14271(10)
O5 O 0.44488(17) 0.26508(15) 0.10202(9)
O11 O 0.15893(17) 0.16216(15) 0.06360(9)
O12 O 0.19321(17) 0.38001(15) 0.09305(10)
C1 C 0.5115(3) 0.1868(2) 0.33272(14)
C3 C 0.4645(3) 0.2921(2) 0.04268(14)
C6 C 0.1161(3) 0.2803(2) 0.05771(14)
H1 H 0.516(3) 0.260(2) 0.3676(15)
H3 H 0.478(2) 0.389(2) 0.0376(14)
H6 H 0.011(3) 0.294(3) 0.0219(16)
O18 O 0.88751(17) 0.10265(16) 0.04207(10)
C9 C 0.7758(3) 0.1028(2) 0.03422(15)
H9 H 0.768(3) 0.161(2) 0.0712(15)
Mn7 Mn 0.42216(4) 0.40195(3) 0.18289(2)
Mn9_5 Mn 1.0000 0.0000 0.0000
Mn3_2 Mn 0.5000 0.0000 1.0000
O6 O 0.47115(18) 0.21121(16) 0.99607(9)
C7 C 0.3060(3) 0.0051(2) 0.78696(16)
H7 H 0.213(3) 0.026(3) 0.7308(17)
O17 O 0.66498(17) 0.02925(15) 0.97928(9)
Mn6 Mn 0.42216(4) 0.09805(3) 0.68289(2)
Mn9_6 Mn 1.0000 0.0000 1.0000
O29 O 0.65138(16) 0.07350(15) 0.80055(9)
O31 O 0.44342(16) 0.29068(15) 0.74833(9)
O33 O 0.44488(17) 0.23492(15) 0.60202(9)
O34 O 0.19321(17) 0.11999(15) 0.59305(10)
Mn2 Mn 0.57784(4) 0.90195(3) 0.31711(2)
Mn3_3 Mn 0.5000 1.0000 0.0000
O7 O 0.34862(16) 0.92650(15) 0.19945(9)
O8 O 0.11428(17) 0.88011(16) 0.12075(10)
O9 O 0.33502(17) 0.97075(15) 0.02072(9)
C2 C 0.6940(3) 0.9949(2) 0.21304(16)
C4 C 0.2419(3) 0.8649(2) 0.18581(15)
H2 H 0.787(3) 0.974(3) 0.2692(17)
H4 H 0.269(3) 0.799(3) 0.2344(15)
O16 O 0.52885(18) 0.78879(16) 0.00393(9)
O19 O 0.55658(16) 0.70932(15) 0.25167(9)
O20 O 0.43355(17) 0.58003(15) 0.12804(9)
C10 C 0.4885(3) 0.6868(2) 0.16728(14)
H10 H 0.484(3) 0.760(2) 0.1324(15)
O21 O 0.84107(17) 0.66216(15) 0.43640(9)
O22 O 0.80679(17) 0.88001(15) 0.40695(10)
C11 C 0.8839(3) 0.7803(2) 0.44229(14)
H11 H 0.989(3) 0.794(3) 0.4781(16)
O25 O 0.55512(17) 0.76508(15) 0.39798(9)
Mn9_7 Mn 1.0000 1.0000 0.0000
Mn10 Mn 0.62592(4) 0.58529(3) 0.36948(2)
Mn12_2 Mn 1.0000 0.5000 0.5000
Mn3_4 Mn 0.5000 1.0000 1.0000
O10 O 0.11249(17) 0.89735(16) 0.95793(10)
C5 C 0.2242(3) 0.8972(2) 0.96578(15)
H5 H 0.232(3) 0.839(2) 0.9288(15)
O13 O 0.40752(17) 0.99705(15) 0.78048(9)
O14 O 0.31770(18) 0.99417(16) 0.85729(10)
O15 O 0.55512(17) 0.73492(15) 0.89798(9)
C8 C 0.5355(3) 0.7079(2) 0.95732(14)
H8 H 0.522(2) 0.611(2) 0.9624(14)
Mn5 Mn 0.62592(4) 0.91471(3) 0.86948(2)
Mn8 Mn 0.57784(4) 0.59805(3) 0.81711(2)
Mn9_8 Mn 1.0000 1.0000 1.0000
O28 O 0.55658(16) 0.79068(15) 0.75167(9)
O30 O 0.84107(17) 0.83784(15) 0.93640(9)
O32 O 0.43355(17) 0.91997(15) 0.62804(9)
O24 O 0.88572(17) 0.11989(16) 0.87925(10)
C12 C 0.7581(3) 0.1351(2) 0.81419(15)
H12 H 0.731(3) 0.201(3) 0.7656(15)
O23 O 0.34862(16) 0.57350(15) 0.69945(9)
O24_2 O 0.11428(17) 0.61989(16) 0.62075(10)
C12_2 C 0.2419(3) 0.6351(2) 0.68581(15)
H12_2 H 0.269(3) 0.701(3) 0.7344(15)
O26 O 0.11249(17) 0.60265(16) 0.45793(10)
O27 O 0.15893(17) 0.33784(15) 0.56360(9)
Mn13 Mn 0.37408(4) 0.41471(3) 0.63052(2)
Mn3_5 Mn 0.5000 0.5000 0.5000
O3_2 O 0.40752(17) 0.50295(15) 0.28048(9)
O4_2 O 0.31770(18) 0.50583(16) 0.35729(10)
O6_2 O 0.52885(18) 0.71121(16) 0.50393(9)
O7_2 O 0.65138(16) 0.42650(15) 0.30055(9)
O8_2 O 0.88572(17) 0.38011(16) 0.37925(10)
O9_2 O 0.66498(17) 0.47075(15) 0.47928(9)
O10_2 O 0.88751(17) 0.39735(16) 0.54207(10)
C2_2 C 0.3060(3) 0.4949(2) 0.28696(16)
C3_2 C 0.5355(3) 0.7921(2) 0.45732(14)
C4_2 C 0.7581(3) 0.3649(2) 0.31419(15)
C5_2 C 0.7758(3) 0.3972(2) 0.53422(15)
H2_2 H 0.213(3) 0.474(3) 0.2308(17)
H3_2 H 0.522(2) 0.889(2) 0.4624(14)
H4_2 H 0.731(3) 0.299(3) 0.2656(15)
H5_2 H 0.768(3) 0.339(2) 0.5712(15)
O13_2 O 0.59248(17) 0.49705(15) 0.71952(9)
O14_2 O 0.68230(18) 0.49417(16) 0.64271(10)
C7_2 C 0.6940(3) 0.5051(2) 0.71304(16)
H7_2 H 0.787(3) 0.526(3) 0.7692(17)
O16_2 O 0.47115(18) 0.28879(16) 0.49607(9)
C8_2 C 0.4645(3) 0.2079(2) 0.54268(14)
H8_2 H 0.478(2) 0.111(2) 0.5376(14)
O17_2 O 0.33502(17) 0.52925(15) 0.52072(9)
C9_2 C 0.2242(3) 0.6028(2) 0.46578(15)
H9_2 H 0.232(3) 0.661(2) 0.4288(15)
O32_2 O 0.56645(17) 0.41997(15) 0.87196(9)
O34_2 O 0.80679(17) 0.61999(15) 0.90695(10)
C10_2 C 0.5115(3) 0.3132(2) 0.83272(14)
H10_2 H 0.516(3) 0.240(2) 0.8676(15)
C11_2 C 0.1161(3) 0.2197(2) 0.55771(14)
H11_2 H 0.011(3) 0.206(3) 0.5219(16)
C1_2 C 0.4885(3) 0.8132(2) 0.66728(14)
C6_2 C 0.8839(3) 0.7197(2) 0.94229(14)
H1_2 H 0.484(3) 0.740(2) 0.6324(15)
H6_2 H 0.989(3) 0.706(3) 0.9781(16)
loop_
_geom_bond_atom_site_label_1
_geom_bond_atom_site_label_2
_geom_bond_site_symmetry_1
_geom_bond_site_symmetry_2
Mn1 O1 1_555 1_555
Mn3 O4 1_555 1_555
O1 C1 1_555 1_555
O2 C1 1_555 1_555
O3 Mn1 1_555 1_555
O5 Mn1 1_555 1_555
O11 Mn1 1_555 1_555
O12 C6 1_555 1_555
C1 H1 1_555 1_555
C3 O5 1_555 1_555
C6 O11 1_555 1_555
H3 C3 1_555 1_555
H6 C6 1_555 1_555
O18 C9 1_555 1_555
H9 C9 1_555 1_555
Mn7 O1 1_555 1_555
Mn9_5 O18 1_555 1_555
Mn9 O11 1_555 1_555
O5 Mn7 1_555 1_555
O12 Mn7 1_555 1_555
O6 Mn3_2 1_555 1_555
H7 C7 1_555 1_555
O17 Mn3_2 1_555 1_555
O31 Mn6 1_555 1_555
O33 Mn6 1_555 1_555
O34 Mn6 1_555 1_555
Mn6 O29 1_555 1_555
Mn9_3 O8 1_555 1_555
O8 C4 1_555 1_555
C4 O7 1_555 1_555
H2 C2 1_555 1_555
H4 C4 1_555 1_555
O16 Mn3_3 1_555 1_555
O19 Mn2 1_555 1_555
O20 C10 1_555 1_555
C10 O19 1_555 1_555
H10 C10 1_555 1_555
O21 C11 1_555 1_555
O22 Mn2 1_555 1_555
C11 O22 1_555 1_555
H11 C11 1_555 1_555
O25 Mn2 1_555 1_555
Mn10 O19 1_555 1_555
Mn7 O20 1_555 1_555
Mn12_2 O21 1_555 1_555
Mn2 O7 1_555 1_555
Mn3_3 O9 1_555 1_555
O21 Mn10 1_555 1_555
O25 Mn10 1_555 1_555
O10 Mn9_4 1_555 1_555
H5 C5 1_555 1_555
O14 Mn3_4 1_555 1_555
O15 C8 1_555 1_555
H8 C8 1_555 1_555
Mn5 O13 1_555 1_555
Mn8 O15 1_555 1_555
O28 Mn5 1_555 1_555
O30 Mn5 1_555 1_555
O10 C5 1_555 1_555
O15 Mn5 1_555 1_555
Mn8 O28 1_555 1_555
Mn9_8 O30 1_555 1_555
O29 C12 1_555 1_555
O24 Mn9_6 1_555 1_555
C12 O24 1_555 1_555
H12 C12 1_555 1_555
O23 C12_2 1_555 1_555
O24_2 Mn12 1_555 1_555
C12_2 O24_2 1_555 1_555
H12_2 C12_2 1_555 1_555
O26 Mn12 1_555 1_555
O27 Mn12 1_555 1_555
Mn13 O23 1_555 1_555
Mn8 O23 1_555 1_555
O27 Mn13 1_555 1_555
Mn3_5 O4_2 1_555 1_555
Mn12_2 O8_2 1_555 1_555
O3_2 Mn10 1_555 1_555
O4_2 C2_2 1_555 1_555
O6_2 Mn3_5 1_555 1_555
O7_2 Mn10 1_555 1_555
O8_2 C4_2 1_555 1_555
O9_2 Mn10 1_555 1_555
O10_2 Mn12_2 1_555 1_555
C2_2 O3_2 1_555 1_555
C3_2 O25 1_555 1_555
C4_2 O7_2 1_555 1_555
C5_2 O9_2 1_555 1_555
H2_2 C2_2 1_555 1_555
H3_2 C3_2 1_555 1_555
H4_2 C4_2 1_555 1_555
H5_2 C5_2 1_555 1_555
O13_2 C7_2 1_555 1_555
O14_2 Mn3_5 1_555 1_555
C7_2 O14_2 1_555 1_555
H7_2 C7_2 1_555 1_555
O33 C8_2 1_555 1_555
O16_2 Mn3_5 1_555 1_555
C8_2 O16_2 1_555 1_555
H8_2 C8_2 1_555 1_555
O17_2 Mn3_5 1_555 1_555
O26 C9_2 1_555 1_555
C9_2 O17_2 1_555 1_555
H9_2 C9_2 1_555 1_555
Mn13 O13_2 1_555 1_555
Mn8 O13_2 1_555 1_555
O31 Mn13 1_555 1_555
O32_2 Mn8 1_555 1_555
O34_2 Mn8 1_555 1_555
Mn7 O3_2 1_555 1_555
Mn7 O7_2 1_555 1_555
Mn3_5 O9_2 1_555 1_555
O6_2 C3_2 1_555 1_555
O10_2 C5_2 1_555 1_555
O33 Mn13 1_555 1_555
O17_2 Mn13 1_555 1_555
O32_2 C10_2 1_555 1_555
C10_2 O31 1_555 1_555
H10_2 C10_2 1_555 1_555
O27 C11_2 1_555 1_555
C11_2 O34 1_555 1_555
H11_2 C11_2 1_555 1_555
O28 C1_2 1_555 1_555
O32 C1_2 1_555 1_555
O34_2 C6_2 1_555 1_555
C1_2 H1_2 1_555 1_555
C6_2 O30 1_555 1_555
H6_2 C6_2 1_555 1_555

#END
