
###############################################################################
#
# This file contains modified crystal structure data generated from the
# MOF subset of the Cambridge Structural Database (CSD) v543 
# hosted by the Cambridge Crystallographic Data Centre (CCDC).
#
# This work is licensed under the Creative Commons
# Attribution-NonCommercial-ShareAlike 4.0 International License.
# To view a copy of this license, visit
# http://creativecommons.org/licenses/by-nc-sa/4.0/
# or send a letter to
# Creative Commons, PO Box 1866, Mountain View, CA 94042, USA.
#
# CIF created using the CSD Python API on 29 September 2022
# The structure has been converted into the P1 space group
# The structure has a 3D framework
# The original CSD entry ATICAH is in the monoclinic crystal system
# The framework has been calculated to contain at least 10.0% void space
# The void calculation uses a probe of radius 1.32A, grid spacing 0.4
#
###############################################################################

data_ATICAH
_chemical_formula_moiety         '(C24 H24 Mn21 O48)n'
_symmetry_cell_setting           triclinic
_symmetry_space_group_name_H-M   'P 1'
_symmetry_Int_Tables_number      1
_space_group_name_Hall           'P 1'
loop_
_symmetry_equiv_pos_site_id
_symmetry_equiv_pos_as_xyz
1 x,y,z
_cell_length_a                   11.6548(16)
_cell_length_b                   10.1617(11)
_cell_length_c                   19.042(3)
_cell_angle_alpha                90
_cell_angle_beta                 126.580(2)
_cell_angle_gamma                90
_cell_volume                     1810.98
loop_
_atom_site_label
_atom_site_type_symbol
_atom_site_fract_x
_atom_site_fract_y
_atom_site_fract_z
Mn9 Mn 0.0000 0.0000 0.0000
Mn9_2 Mn 0.0000 0.0000 1.0000
Mn9_3 Mn 0.0000 1.0000 0.0000
Mn12 Mn -0.0000 0.5000 0.5000
Mn9_4 Mn 0.0000 1.0000 1.0000
Mn1 Mn 0.37661(3) 0.07793(3) 0.131843(19)
Mn3 Mn 0.5000 0.0000 0.0000
O1 O 0.43763(15) 0.19632(14) 0.24736(8)
O2 O 0.54695(16) 0.05971(16) 0.36237(9)
O5 O 0.46238(15) 0.25679(15) 0.11468(8)
O6 O 0.50735(16) 0.21043(16) 0.01824(9)
O11 O 0.16324(14) 0.15603(15) 0.06634(9)
O12 O 0.20337(15) 0.37013(15) 0.10165(9)
C1 C 0.4958(2) 0.1681(2) 0.32724(13)
C3 C 0.4996(2) 0.2867(2) 0.06556(14)
C6 C 0.1243(2) 0.2740(2) 0.06362(13)
H1 H 0.496(2) 0.245(2) 0.3632(13)
H3 H 0.532(3) 0.379(3) 0.0709(16)
H6 H 0.022(3) 0.288(3) 0.0289(15)
O18 O 0.88987(16) 0.09620(16) 0.04377(9)
C9 C 0.7786(2) 0.0898(2) 0.03756(14)
H9 H 0.772(2) 0.142(2) 0.0796(14)
Mn7 Mn 0.42988(3) 0.38957(3) 0.191446(19)
Mn9_5 Mn 1.0000 0.0000 0.0000
Mn3_2 Mn 0.5000 0.0000 1.0000
O13 O 0.40953(15) 0.00774(14) 0.78372(9)
O14 O 0.32601(16) 0.01977(16) 0.86279(9)
C7 C 0.3113(2) 0.0252(2) 0.79304(14)
H7 H 0.211(3) 0.047(3) 0.7380(17)
O17 O 0.66753(15) 0.02258(15) 0.98093(9)
Mn6 Mn 0.42988(3) 0.11043(3) 0.691446(19)
Mn9_6 Mn 1.0000 0.0000 1.0000
O29 O 0.65506(15) 0.08754(15) 0.80848(9)
O31 O 0.43763(15) 0.30368(14) 0.74736(8)
O33 O 0.46238(15) 0.24321(15) 0.61468(8)
O34 O 0.20337(15) 0.12987(15) 0.60165(9)
Mn2 Mn 0.57012(3) 0.88957(3) 0.308554(19)
Mn3_3 Mn 0.5000 1.0000 0.0000
O3 O 0.59047(15) 0.99226(14) 0.21628(9)
O4 O 0.67399(16) 0.98023(16) 0.13721(9)
O7 O 0.34494(15) 0.91246(15) 0.19152(9)
O8 O 0.11030(15) 0.87096(16) 0.11176(9)
O9 O 0.33247(15) 0.97742(15) 0.01907(9)
C2 C 0.6887(2) 0.9748(2) 0.20696(14)
C4 C 0.2362(2) 0.8489(2) 0.17336(14)
H2 H 0.789(3) 0.953(3) 0.2620(17)
H4 H 0.257(3) 0.776(3) 0.2123(14)
O19 O 0.56237(15) 0.69632(14) 0.25264(8)
O20 O 0.45305(16) 0.55971(16) 0.13763(9)
C10 C 0.5042(2) 0.6681(2) 0.17276(13)
H10 H 0.504(2) 0.745(2) 0.1368(13)
O21 O 0.83676(14) 0.65603(15) 0.43366(9)
O22 O 0.79663(15) 0.87013(15) 0.39835(9)
C11 C 0.8757(2) 0.7740(2) 0.43638(13)
H11 H 0.978(3) 0.788(3) 0.4711(15)
O25 O 0.53762(15) 0.75679(15) 0.38532(8)
Mn9_7 Mn 1.0000 1.0000 0.0000
Mn10 Mn 0.62339(3) 0.57793(3) 0.368157(19)
Mn12_2 Mn 1.0000 0.5000 0.5000
Mn3_4 Mn 0.5000 1.0000 1.0000
O10 O 0.11013(16) 0.90380(16) 0.95623(9)
C5 C 0.2214(2) 0.9102(2) 0.96244(14)
H5 H 0.228(2) 0.858(2) 0.9204(14)
O15 O 0.53762(15) 0.74321(15) 0.88532(8)
O16 O 0.49265(16) 0.78957(16) 0.98176(9)
C8 C 0.5004(2) 0.7133(2) 0.93444(14)
H8 H 0.468(3) 0.621(3) 0.9291(16)
Mn5 Mn 0.62339(3) 0.92207(3) 0.868157(19)
Mn8 Mn 0.57012(3) 0.61043(3) 0.808554(19)
Mn9_8 Mn 1.0000 1.0000 1.0000
O28 O 0.56237(15) 0.80368(14) 0.75264(8)
O30 O 0.83676(14) 0.84397(15) 0.93366(9)
O32 O 0.45305(16) 0.94029(16) 0.63763(9)
O24 O 0.88970(15) 0.12904(16) 0.88824(9)
C12 C 0.7638(2) 0.1511(2) 0.82664(14)
H12 H 0.743(3) 0.224(3) 0.7877(14)
O23 O 0.34494(15) 0.58754(15) 0.69152(9)
O24_2 O 0.11030(15) 0.62904(16) 0.61176(9)
C12_2 C 0.2362(2) 0.6511(2) 0.67336(14)
H12_2 H 0.257(3) 0.724(3) 0.7123(14)
O26 O 0.11013(16) 0.59620(16) 0.45623(9)
O27 O 0.16324(14) 0.34397(15) 0.56634(9)
Mn13 Mn 0.37661(3) 0.42207(3) 0.631843(19)
Mn3_5 Mn 0.5000 0.5000 0.5000
O3_2 O 0.40953(15) 0.49226(14) 0.28372(9)
O4_2 O 0.32601(16) 0.48023(16) 0.36279(9)
O6_2 O 0.49265(16) 0.71043(16) 0.48176(9)
O7_2 O 0.65506(15) 0.41246(15) 0.30848(9)
O8_2 O 0.88970(15) 0.37096(16) 0.38824(9)
O9_2 O 0.66753(15) 0.47742(15) 0.48093(9)
O10_2 O 0.88987(16) 0.40380(16) 0.54377(9)
C2_2 C 0.3113(2) 0.4748(2) 0.29304(14)
C3_2 C 0.5004(2) 0.7867(2) 0.43444(14)
C4_2 C 0.7638(2) 0.3489(2) 0.32664(14)
C5_2 C 0.7786(2) 0.4102(2) 0.53756(14)
H2_2 H 0.211(3) 0.453(3) 0.2380(17)
H3_2 H 0.468(3) 0.879(3) 0.4291(16)
H4_2 H 0.743(3) 0.276(3) 0.2877(14)
H5_2 H 0.772(2) 0.358(2) 0.5796(14)
O13_2 O 0.59047(15) 0.50774(14) 0.71628(9)
O14_2 O 0.67399(16) 0.51977(16) 0.63721(9)
C7_2 C 0.6887(2) 0.5252(2) 0.70696(14)
H7_2 H 0.789(3) 0.547(3) 0.7620(17)
O16_2 O 0.50735(16) 0.28957(16) 0.51824(9)
C8_2 C 0.4996(2) 0.2133(2) 0.56556(14)
H8_2 H 0.532(3) 0.121(3) 0.5709(16)
O17_2 O 0.33247(15) 0.52258(15) 0.51907(9)
C9_2 C 0.2214(2) 0.5898(2) 0.46244(14)
H9_2 H 0.228(2) 0.642(2) 0.4204(14)
O32_2 O 0.54695(16) 0.44029(16) 0.86237(9)
O34_2 O 0.79663(15) 0.62987(15) 0.89835(9)
C10_2 C 0.4958(2) 0.3319(2) 0.82724(13)
H10_2 H 0.496(2) 0.255(2) 0.8632(13)
C11_2 C 0.1243(2) 0.2260(2) 0.56362(13)
H11_2 H 0.022(3) 0.212(3) 0.5289(15)
C1_2 C 0.5042(2) 0.8319(2) 0.67276(13)
C6_2 C 0.8757(2) 0.7260(2) 0.93638(13)
H1_2 H 0.504(2) 0.755(2) 0.6368(13)
H6_2 H 0.978(3) 0.712(3) 0.9711(15)
loop_
_geom_bond_atom_site_label_1
_geom_bond_atom_site_label_2
_geom_bond_site_symmetry_1
_geom_bond_site_symmetry_2
Mn1 O1 1_555 1_555
O1 C1 1_555 1_555
O2 C1 1_555 1_555
O5 Mn1 1_555 1_555
O6 Mn3 1_555 1_555
O11 Mn1 1_555 1_555
O12 C6 1_555 1_555
C1 H1 1_555 1_555
C3 O5 1_555 1_555
C6 O11 1_555 1_555
H3 C3 1_555 1_555
H6 C6 1_555 1_555
O18 C9 1_555 1_555
H9 C9 1_555 1_555
Mn7 O1 1_555 1_555
Mn9_5 O18 1_555 1_555
Mn9 O11 1_555 1_555
O5 Mn7 1_555 1_555
O6 C3 1_555 1_555
O12 Mn7 1_555 1_555
O13 C7 1_555 1_555
O14 Mn3_2 1_555 1_555
C7 O14 1_555 1_555
H7 C7 1_555 1_555
O17 Mn3_2 1_555 1_555
Mn6 O13 1_555 1_555
O31 Mn6 1_555 1_555
O33 Mn6 1_555 1_555
O34 Mn6 1_555 1_555
Mn6 O29 1_555 1_555
Mn3_3 O4 1_555 1_555
Mn9_3 O8 1_555 1_555
O4 C2 1_555 1_555
O8 C4 1_555 1_555
C2 O3 1_555 1_555
C4 O7 1_555 1_555
H2 C2 1_555 1_555
H4 C4 1_555 1_555
O19 Mn2 1_555 1_555
O20 C10 1_555 1_555
C10 O19 1_555 1_555
H10 C10 1_555 1_555
O21 C11 1_555 1_555
O22 Mn2 1_555 1_555
C11 O22 1_555 1_555
H11 C11 1_555 1_555
O25 Mn2 1_555 1_555
Mn10 O19 1_555 1_555
Mn7 O20 1_555 1_555
Mn12_2 O21 1_555 1_555
Mn2 O3 1_555 1_555
Mn2 O7 1_555 1_555
Mn3_3 O9 1_555 1_555
O21 Mn10 1_555 1_555
O25 Mn10 1_555 1_555
O10 Mn9_4 1_555 1_555
H5 C5 1_555 1_555
O15 C8 1_555 1_555
O16 Mn3_4 1_555 1_555
C8 O16 1_555 1_555
H8 C8 1_555 1_555
Mn8 O15 1_555 1_555
O28 Mn5 1_555 1_555
O30 Mn5 1_555 1_555
O10 C5 1_555 1_555
O15 Mn5 1_555 1_555
Mn8 O28 1_555 1_555
Mn9_8 O30 1_555 1_555
O29 C12 1_555 1_555
O24 Mn9_6 1_555 1_555
C12 O24 1_555 1_555
H12 C12 1_555 1_555
O23 C12_2 1_555 1_555
O24_2 Mn12 1_555 1_555
C12_2 O24_2 1_555 1_555
H12_2 C12_2 1_555 1_555
O26 Mn12 1_555 1_555
O27 Mn12 1_555 1_555
Mn13 O23 1_555 1_555
Mn8 O23 1_555 1_555
O27 Mn13 1_555 1_555
Mn3_5 O4_2 1_555 1_555
Mn12_2 O8_2 1_555 1_555
O3_2 Mn10 1_555 1_555
O4_2 C2_2 1_555 1_555
O6_2 Mn3_5 1_555 1_555
O7_2 Mn10 1_555 1_555
O8_2 C4_2 1_555 1_555
O9_2 Mn10 1_555 1_555
O10_2 Mn12_2 1_555 1_555
C2_2 O3_2 1_555 1_555
C3_2 O25 1_555 1_555
C4_2 O7_2 1_555 1_555
C5_2 O9_2 1_555 1_555
H2_2 C2_2 1_555 1_555
H3_2 C3_2 1_555 1_555
H4_2 C4_2 1_555 1_555
H5_2 C5_2 1_555 1_555
O13_2 C7_2 1_555 1_555
O14_2 Mn3_5 1_555 1_555
C7_2 O14_2 1_555 1_555
H7_2 C7_2 1_555 1_555
O33 C8_2 1_555 1_555
O16_2 Mn3_5 1_555 1_555
C8_2 O16_2 1_555 1_555
H8_2 C8_2 1_555 1_555
O17_2 Mn3_5 1_555 1_555
O26 C9_2 1_555 1_555
C9_2 O17_2 1_555 1_555
H9_2 C9_2 1_555 1_555
Mn13 O13_2 1_555 1_555
Mn8 O13_2 1_555 1_555
O31 Mn13 1_555 1_555
O32_2 Mn8 1_555 1_555
O34_2 Mn8 1_555 1_555
Mn7 O3_2 1_555 1_555
Mn7 O7_2 1_555 1_555
Mn3_5 O9_2 1_555 1_555
O6_2 C3_2 1_555 1_555
O10_2 C5_2 1_555 1_555
O33 Mn13 1_555 1_555
O17_2 Mn13 1_555 1_555
O32_2 C10_2 1_555 1_555
C10_2 O31 1_555 1_555
H10_2 C10_2 1_555 1_555
O27 C11_2 1_555 1_555
C11_2 O34 1_555 1_555
H11_2 C11_2 1_555 1_555
O28 C1_2 1_555 1_555
O32 C1_2 1_555 1_555
O34_2 C6_2 1_555 1_555
C1_2 H1_2 1_555 1_555
C6_2 O30 1_555 1_555
H6_2 C6_2 1_555 1_555

#END
