
###############################################################################
#
# This file contains modified crystal structure data generated from the
# MOF subset of the Cambridge Structural Database (CSD) v543 
# hosted by the Cambridge Crystallographic Data Centre (CCDC).
#
# This work is licensed under the Creative Commons
# Attribution-NonCommercial-ShareAlike 4.0 International License.
# To view a copy of this license, visit
# http://creativecommons.org/licenses/by-nc-sa/4.0/
# or send a letter to
# Creative Commons, PO Box 1866, Mountain View, CA 94042, USA.
#
# CIF created using the CSD Python API on 29 September 2022
# The structure has been converted into the P1 space group
# The structure has a 3D framework
# The original CSD entry ATICEL is in the monoclinic crystal system
# The framework has been calculated to contain at least 10.0% void space
# The void calculation uses a probe of radius 1.32A, grid spacing 0.4
#
###############################################################################

data_ATICEL
_chemical_formula_moiety         '(C24 H24 Mn21 O48)n'
_symmetry_cell_setting           triclinic
_symmetry_space_group_name_H-M   'P 1'
_symmetry_Int_Tables_number      1
_space_group_name_Hall           'P 1'
loop_
_symmetry_equiv_pos_site_id
_symmetry_equiv_pos_as_xyz
1 x,y,z
_cell_length_a                   11.8341(16)
_cell_length_b                   10.1956(11)
_cell_length_c                   18.848(3)
_cell_angle_alpha                90
_cell_angle_beta                 127.905(2)
_cell_angle_gamma                90
_cell_volume                     1794.35
loop_
_atom_site_label
_atom_site_type_symbol
_atom_site_fract_x
_atom_site_fract_y
_atom_site_fract_z
Mn9 Mn 0.0000 0.0000 0.0000
Mn9_2 Mn -0.0000 0.0000 1.0000
Mn9_3 Mn 0.0000 1.0000 0.0000
Mn12 Mn -0.0000 0.5000 0.5000
Mn9_4 Mn -0.0000 1.0000 1.0000
Mn1 Mn 0.37622(7) 0.08303(6) 0.13012(4)
Mn3 Mn 0.5000 0.0000 0.0000
O1 O 0.4508(3) 0.2032(3) 0.2491(2)
O2 O 0.5610(4) 0.0690(3) 0.3684(2)
O5 O 0.4504(4) 0.2619(3) 0.1066(2)
O6 O 0.4893(4) 0.2107(3) 0.0078(2)
O11 O 0.1612(3) 0.1564(3) 0.0654(2)
O12 O 0.1982(3) 0.3708(3) 0.0984(2)
C1 C 0.5123(5) 0.1779(5) 0.3316(3)
C3 C 0.4747(5) 0.2901(5) 0.0509(3)
C6 C 0.1200(5) 0.2738(5) 0.0617(3)
H1 H 0.540(7) 0.257(6) 0.378(4)
H3 H 0.489(6) 0.386(5) 0.048(3)
H6 H 0.008(7) 0.283(6) 0.028(4)
O18 O 0.8845(4) 0.0966(3) 0.0378(2)
C9 C 0.7797(5) 0.0910(4) 0.0368(3)
H9 H 0.784(6) 0.149(5) 0.087(4)
Mn7 Mn 0.42301(7) 0.39545(6) 0.18582(5)
Mn9_5 Mn 1.0000 0.0000 0.0000
Mn3_2 Mn 0.5000 0.0000 1.0000
O13 O 0.4109(3) 0.0069(3) 0.7829(2)
O14 O 0.3237(4) 0.0033(3) 0.8591(2)
C7 C 0.3106(5) 0.0172(4) 0.7899(3)
H7 H 0.207(7) 0.041(6) 0.729(4)
O17 O 0.6652(3) 0.0247(3) 0.9805(2)
Mn6 Mn 0.42301(7) 0.10455(6) 0.68582(5)
Mn9_6 Mn 1.0000 0.0000 1.0000
O29 O 0.6546(3) 0.0767(3) 0.8044(2)
O31 O 0.4508(3) 0.2968(3) 0.7491(2)
O33 O 0.4504(4) 0.2381(3) 0.6066(2)
O34 O 0.1982(3) 0.1292(3) 0.5984(2)
Mn2 Mn 0.57699(7) 0.89545(6) 0.31418(5)
Mn3_3 Mn 0.5000 1.0000 0.0000
O3 O 0.5891(3) 0.9931(3) 0.2171(2)
O4 O 0.6763(4) 0.9967(3) 0.1409(2)
O7 O 0.3454(3) 0.9233(3) 0.1956(2)
O8 O 0.1138(4) 0.8767(3) 0.1199(2)
O9 O 0.3348(3) 0.9753(3) 0.0195(2)
C2 C 0.6894(5) 0.9828(4) 0.2101(3)
C4 C 0.2431(5) 0.8582(5) 0.1818(3)
H2 H 0.793(7) 0.959(6) 0.271(4)
H4 H 0.277(7) 0.779(6) 0.229(4)
O19 O 0.5492(3) 0.7032(3) 0.2509(2)
O20 O 0.4390(4) 0.5690(3) 0.1316(2)
C10 C 0.4877(5) 0.6779(5) 0.1684(3)
H10 H 0.460(7) 0.757(6) 0.122(4)
O21 O 0.8388(3) 0.6564(3) 0.4346(2)
O22 O 0.8018(3) 0.8708(3) 0.4016(2)
C11 C 0.8800(5) 0.7738(5) 0.4383(3)
H11 H 0.992(7) 0.783(6) 0.472(4)
O25 O 0.5496(4) 0.7619(3) 0.3934(2)
Mn9_7 Mn 1.0000 1.0000 0.0000
Mn10 Mn 0.62378(7) 0.58303(6) 0.36988(4)
Mn12_2 Mn 1.0000 0.5000 0.5000
Mn3_4 Mn 0.5000 1.0000 1.0000
O10 O 0.1155(4) 0.9034(3) 0.9622(2)
C5 C 0.2203(5) 0.9090(4) 0.9632(3)
H5 H 0.216(6) 0.851(5) 0.913(4)
O15 O 0.5496(4) 0.7381(3) 0.8934(2)
O16 O 0.5107(4) 0.7893(3) 0.9922(2)
C8 C 0.5253(5) 0.7099(5) 0.9491(3)
H8 H 0.511(6) 0.614(5) 0.952(3)
Mn5 Mn 0.62378(7) 0.91697(6) 0.86988(4)
Mn8 Mn 0.57699(7) 0.60455(6) 0.81418(5)
Mn9_8 Mn 1.0000 1.0000 1.0000
O28 O 0.5492(3) 0.7968(3) 0.7509(2)
O30 O 0.8388(3) 0.8436(3) 0.9346(2)
O32 O 0.4390(4) 0.9310(3) 0.6316(2)
O24 O 0.8862(4) 0.1233(3) 0.8801(2)
C12 C 0.7569(5) 0.1418(5) 0.8182(3)
H12 H 0.723(7) 0.221(6) 0.771(4)
Mn1_2 Mn 0.37622(7) 0.41697(6) 0.63012(4)
Mn3_5 Mn 0.5000 0.5000 0.5000
O2_2 O 0.5610(4) 0.4310(3) 0.8684(2)
O3_2 O 0.5891(3) 0.5069(3) 0.7171(2)
O4_2 O 0.6763(4) 0.5033(3) 0.6409(2)
O6_2 O 0.4893(4) 0.2893(3) 0.5078(2)
O7_2 O 0.3454(3) 0.5767(3) 0.6956(2)
O8_2 O 0.1138(4) 0.6233(3) 0.6199(2)
O9_2 O 0.3348(3) 0.5247(3) 0.5195(2)
O10_2 O 0.1155(4) 0.5966(3) 0.4622(2)
O11_2 O 0.1612(3) 0.3436(3) 0.5654(2)
C1_2 C 0.5123(5) 0.3221(5) 0.8316(3)
C2_2 C 0.6894(5) 0.5172(4) 0.7101(3)
C3_2 C 0.4747(5) 0.2099(5) 0.5509(3)
C4_2 C 0.2431(5) 0.6418(5) 0.6818(3)
C5_2 C 0.2203(5) 0.5910(4) 0.4632(3)
C6_2 C 0.1200(5) 0.2262(5) 0.5617(3)
H1_2 H 0.540(7) 0.243(6) 0.878(4)
H2_2 H 0.793(7) 0.541(6) 0.771(4)
H3_2 H 0.489(6) 0.114(5) 0.548(3)
H4_2 H 0.277(7) 0.721(6) 0.729(4)
H5_2 H 0.216(6) 0.649(5) 0.413(4)
H6_2 H 0.008(7) 0.217(6) 0.528(4)
O13_2 O 0.4109(3) 0.4931(3) 0.2829(2)
O14_2 O 0.3237(4) 0.4967(3) 0.3591(2)
C7_2 C 0.3106(5) 0.4828(4) 0.2899(3)
H7_2 H 0.207(7) 0.459(6) 0.229(4)
O16_2 O 0.5107(4) 0.7107(3) 0.4922(2)
C8_2 C 0.5253(5) 0.7901(5) 0.4491(3)
H8_2 H 0.511(6) 0.886(5) 0.452(3)
O17_2 O 0.6652(3) 0.4753(3) 0.4805(2)
O18_2 O 0.8845(4) 0.4034(3) 0.5378(2)
C9_2 C 0.7797(5) 0.4090(4) 0.5368(3)
H9_2 H 0.784(6) 0.351(5) 0.587(4)
C10_2 C 0.4877(5) 0.8221(5) 0.6684(3)
H10_2 H 0.460(7) 0.743(6) 0.622(4)
O22_2 O 0.8018(3) 0.6292(3) 0.9016(2)
C11_2 C 0.8800(5) 0.7262(5) 0.9383(3)
H11_2 H 0.992(7) 0.717(6) 0.972(4)
O29_2 O 0.6546(3) 0.4233(3) 0.3044(2)
O24_2 O 0.8862(4) 0.3767(3) 0.3801(2)
C12_2 C 0.7569(5) 0.3582(5) 0.3182(3)
H12_2 H 0.723(7) 0.279(6) 0.271(4)
loop_
_geom_bond_atom_site_label_1
_geom_bond_atom_site_label_2
_geom_bond_site_symmetry_1
_geom_bond_site_symmetry_2
Mn1 O1 1_555 1_555
O1 C1 1_555 1_555
O2 C1 1_555 1_555
O5 Mn1 1_555 1_555
O6 Mn3 1_555 1_555
O11 Mn1 1_555 1_555
O12 C6 1_555 1_555
C1 H1 1_555 1_555
C3 O5 1_555 1_555
C6 O11 1_555 1_555
H3 C3 1_555 1_555
H6 C6 1_555 1_555
O18 C9 1_555 1_555
H9 C9 1_555 1_555
Mn7 O1 1_555 1_555
Mn9_5 O18 1_555 1_555
Mn9 O11 1_555 1_555
O5 Mn7 1_555 1_555
O6 C3 1_555 1_555
O12 Mn7 1_555 1_555
O13 C7 1_555 1_555
O14 Mn3_2 1_555 1_555
C7 O14 1_555 1_555
H7 C7 1_555 1_555
O17 Mn3_2 1_555 1_555
Mn6 O13 1_555 1_555
O31 Mn6 1_555 1_555
O33 Mn6 1_555 1_555
O34 Mn6 1_555 1_555
Mn6 O29 1_555 1_555
Mn3_3 O4 1_555 1_555
Mn9_3 O8 1_555 1_555
O4 C2 1_555 1_555
O8 C4 1_555 1_555
C2 O3 1_555 1_555
C4 O7 1_555 1_555
H2 C2 1_555 1_555
H4 C4 1_555 1_555
O19 Mn2 1_555 1_555
O20 C10 1_555 1_555
C10 O19 1_555 1_555
H10 C10 1_555 1_555
O21 C11 1_555 1_555
O22 Mn2 1_555 1_555
C11 O22 1_555 1_555
H11 C11 1_555 1_555
O25 Mn2 1_555 1_555
Mn10 O19 1_555 1_555
Mn7 O20 1_555 1_555
Mn12_2 O21 1_555 1_555
Mn2 O3 1_555 1_555
Mn2 O7 1_555 1_555
Mn3_3 O9 1_555 1_555
O21 Mn10 1_555 1_555
O25 Mn10 1_555 1_555
O10 Mn9_4 1_555 1_555
H5 C5 1_555 1_555
O15 C8 1_555 1_555
O16 Mn3_4 1_555 1_555
C8 O16 1_555 1_555
H8 C8 1_555 1_555
Mn8 O15 1_555 1_555
O28 Mn5 1_555 1_555
O30 Mn5 1_555 1_555
O10 C5 1_555 1_555
O15 Mn5 1_555 1_555
Mn8 O28 1_555 1_555
Mn9_8 O30 1_555 1_555
O29 C12 1_555 1_555
O24 Mn9_6 1_555 1_555
C12 O24 1_555 1_555
H12 C12 1_555 1_555
Mn1_2 O31 1_555 1_555
Mn8 O2_2 1_555 1_555
Mn3_5 O4_2 1_555 1_555
Mn12 O8_2 1_555 1_555
O31 C1_2 1_555 1_555
O2_2 C1_2 1_555 1_555
O3_2 Mn1_2 1_555 1_555
O4_2 C2_2 1_555 1_555
O33 Mn1_2 1_555 1_555
O6_2 Mn3_5 1_555 1_555
O7_2 Mn1_2 1_555 1_555
O8_2 C4_2 1_555 1_555
O9_2 Mn1_2 1_555 1_555
O10_2 Mn12 1_555 1_555
O11_2 Mn1_2 1_555 1_555
O34 C6_2 1_555 1_555
C1_2 H1_2 1_555 1_555
C2_2 O3_2 1_555 1_555
C3_2 O33 1_555 1_555
C4_2 O7_2 1_555 1_555
C5_2 O9_2 1_555 1_555
C6_2 O11_2 1_555 1_555
H2_2 C2_2 1_555 1_555
H3_2 C3_2 1_555 1_555
H4_2 C4_2 1_555 1_555
H5_2 C5_2 1_555 1_555
H6_2 C6_2 1_555 1_555
O13_2 C7_2 1_555 1_555
O14_2 Mn3_5 1_555 1_555
C7_2 O14_2 1_555 1_555
H7_2 C7_2 1_555 1_555
O25 C8_2 1_555 1_555
O16_2 Mn3_5 1_555 1_555
C8_2 O16_2 1_555 1_555
H8_2 C8_2 1_555 1_555
O17_2 Mn3_5 1_555 1_555
O18_2 C9_2 1_555 1_555
C9_2 O17_2 1_555 1_555
H9_2 C9_2 1_555 1_555
Mn10 O13_2 1_555 1_555
Mn7 O13_2 1_555 1_555
O32 C10_2 1_555 1_555
C10_2 O28 1_555 1_555
H10_2 C10_2 1_555 1_555
O30 C11_2 1_555 1_555
O22_2 Mn8 1_555 1_555
C11_2 O22_2 1_555 1_555
H11_2 C11_2 1_555 1_555
Mn12_2 O18_2 1_555 1_555
O29_2 Mn10 1_555 1_555
Mn8 O3_2 1_555 1_555
Mn8 O7_2 1_555 1_555
Mn3_5 O9_2 1_555 1_555
Mn12 O11_2 1_555 1_555
O6_2 C3_2 1_555 1_555
O10_2 C5_2 1_555 1_555
O17_2 Mn10 1_555 1_555
Mn7 O29_2 1_555 1_555
O29_2 C12_2 1_555 1_555
O24_2 Mn12_2 1_555 1_555
C12_2 O24_2 1_555 1_555
H12_2 C12_2 1_555 1_555

#END
