
###############################################################################
#
# This file contains modified crystal structure data generated from the
# MOF subset of the Cambridge Structural Database (CSD) v543 
# hosted by the Cambridge Crystallographic Data Centre (CCDC).
#
# This work is licensed under the Creative Commons
# Attribution-NonCommercial-ShareAlike 4.0 International License.
# To view a copy of this license, visit
# http://creativecommons.org/licenses/by-nc-sa/4.0/
# or send a letter to
# Creative Commons, PO Box 1866, Mountain View, CA 94042, USA.
#
# CIF created using the CSD Python API on 29 September 2022
# The structure has been converted into the P1 space group
# The structure has a 3D framework
# The original CSD entry ATIXUX is in the orthorhombic crystal system
# The framework has been calculated to contain at least 10.0% void space
# The void calculation uses a probe of radius 1.32A, grid spacing 0.4
# The framework is charged, counterions have been retained in the structure
#
###############################################################################

data_ATIXUX
_chemical_formula_moiety         '(C140 H48 Cd2 O68 4-)n'
_symmetry_cell_setting           triclinic
_symmetry_space_group_name_H-M   'P 1'
_symmetry_Int_Tables_number      1
_space_group_name_Hall           'P 1'
loop_
_symmetry_equiv_pos_site_id
_symmetry_equiv_pos_as_xyz
1 x,y,z
_cell_length_a                   8.1040(3)
_cell_length_b                   27.0656(10)
_cell_length_c                   20.4233(8)
_cell_angle_alpha                90
_cell_angle_beta                 90
_cell_angle_gamma                90
_cell_volume                     4479.64
loop_
_atom_site_label
_atom_site_type_symbol
_atom_site_fract_x
_atom_site_fract_y
_atom_site_fract_z
Cd3 Cd 0.0000 0.2500 0.2500
Cd7 Cd 0.0000 0.2500 0.04930(3)
O9 O 0.0656(7) 0.81916(16) 0.0023(2)
O18 O 0.0375(6) 0.3013(2) 0.1461(2)
Cd2 Cd -0.0000 0.7500 0.95070(3)
O14 O 0.2633(5) 0.72297(14) 0.93423(19)
O24 O 0.0375(6) 0.8013(2) 0.8539(2)
Cd1 Cd 0.5000 0.7500 0.2500
O1 O 0.9344(7) 0.68084(16) 0.0023(2)
O2 O 0.7633(5) 0.72297(14) 0.06577(19)
O3 O 0.4625(6) 0.6987(2) 0.1461(2)
O4 O 0.6779(6) 0.68967(17) 0.2108(2)
C1 C 0.7178(9) 0.5465(2) 0.0544(3)
C2 C 0.7798(9) 0.5913(2) 0.0335(3)
C3 C 0.7471(8) 0.6351(2) 0.0674(3)
C4 C 0.6477(8) 0.6331(2) 0.1223(3)
C5 C 0.5856(13) 0.5879(3) 0.1434(3)
H2 H 0.5179 0.5867 0.1801
C6 C 0.6237(10) 0.5449(3) 0.1102(4)
H3 H 0.5853 0.5147 0.1257
C7 C 0.8188(8) 0.6831(2) 0.0436(3)
C8 C 0.5971(9) 0.6778(2) 0.1620(3)
C9 C 0.7500 0.5000 0.0170(5)
Cd3_2 Cd 1.0000 0.2500 0.2500
Cd6 Cd 0.5000 0.7500 0.04930(3)
Cd7_2 Cd 1.0000 0.2500 0.04930(3)
Cd8 Cd 0.0000 0.7500 0.54930(3)
Cd9 Cd 0.5000 0.7500 0.45070(3)
Cd10 Cd 0.0000 0.2500 0.45070(3)
Cd11 Cd 0.5000 0.2500 0.54930(3)
O6 O 0.5656(7) 0.31916(16) 0.0023(2)
O7 O 0.0656(7) 0.68084(16) 0.4977(2)
O8 O 0.4344(7) 0.31916(16) 0.4977(2)
O10 O 0.4344(7) 0.18084(16) 0.0023(2)
O11 O 0.7367(5) 0.27703(14) 0.06577(19)
O12 O 0.2367(5) 0.72297(14) 0.43423(19)
O13 O 0.2633(5) 0.27703(14) 0.43423(19)
O19 O 0.5375(6) 0.6987(2) 0.3539(2)
O21 O 0.5375(6) 0.8013(2) 0.1461(2)
O22 O 0.4625(6) 0.8013(2) 0.3539(2)
O27 O 0.8221(6) 0.31033(17) 0.2108(2)
O28 O 0.3221(6) 0.68967(17) 0.2892(2)
O29 O 0.1779(6) 0.31033(17) 0.2892(2)
O30 O 0.3221(6) 0.81033(17) 0.2108(2)
O31 O 0.6779(6) 0.81033(17) 0.2892(2)
O32 O 0.2500 0.5000 0.5427(4)
C10 C 0.7822(9) 0.4535(2) 0.0544(3)
C11 C 0.2822(9) 0.5465(2) 0.4456(3)
C12 C 0.2178(9) 0.4535(2) 0.4456(3)
C13 C 0.7202(9) 0.4087(2) 0.0335(3)
C14 C 0.2202(9) 0.5913(2) 0.4665(3)
C15 C 0.2798(9) 0.4087(2) 0.4665(3)
H5 H 0.1552 0.5923 0.5040
H6 H 0.3448 0.4077 0.5040
C16 C 0.7529(8) 0.3649(2) 0.0674(3)
C17 C 0.2529(8) 0.6351(2) 0.4326(3)
C18 C 0.2471(8) 0.3649(2) 0.4326(3)
C19 C 0.8523(8) 0.3669(2) 0.1223(3)
C20 C 0.3523(8) 0.6331(2) 0.3777(3)
C21 C 0.1477(8) 0.3669(2) 0.3777(3)
C22 C 0.9144(13) 0.4121(3) 0.1434(3)
C23 C 0.4144(13) 0.5879(3) 0.3566(3)
C24 C 0.0856(13) 0.4121(3) 0.3566(3)
H7 H 0.9821 0.4133 0.1801
H8 H 0.4821 0.5867 0.3199
H9 H 0.0179 0.4133 0.3199
C25 C 0.8763(10) 0.4551(3) 0.1102(4)
C26 C 0.3763(10) 0.5449(3) 0.3898(4)
C27 C 0.1237(10) 0.4551(3) 0.3898(4)
H10 H 0.9147 0.4853 0.1257
H11 H 0.4147 0.5147 0.3743
H12 H 0.0853 0.4853 0.3743
C28 C 0.6812(8) 0.3169(2) 0.0436(3)
C29 C 0.1812(8) 0.6831(2) 0.4564(3)
C30 C 0.3188(8) 0.3169(2) 0.4564(3)
C31 C 0.9029(9) 0.3222(2) 0.1620(3)
C32 C 0.4029(9) 0.6778(2) 0.3380(3)
C33 C 0.0971(9) 0.3222(2) 0.3380(3)
C34 C 0.2500 0.5000 0.4830(5)
Cd2_2 Cd 1.0000 0.7500 0.95070(3)
O5 O 0.7500 0.5000 0.9573(4)
H1 H 0.8448 0.5923 0.9960
Cd5 Cd 0.5000 0.2500 0.95070(3)
O15 O 0.7367(5) 0.77703(14) 0.93423(19)
O16 O 0.2367(5) 0.27703(14) 0.93423(19)
O17 O 0.7633(5) 0.22297(14) 0.93423(19)
O23 O 0.9625(6) 0.6987(2) 0.8539(2)
O25 O 0.5375(6) 0.3013(2) 0.8539(2)
O26 O 0.4625(6) 0.1987(2) 0.8539(2)
H4 H 0.6552 0.4077 0.9960
Cd8_2 Cd 1.0000 0.7500 0.54930(3)
Cd10_2 Cd 1.0000 0.2500 0.45070(3)
O20 O 0.9625(6) 0.3013(2) 0.3539(2)
O22_2 O 0.0375(6) 0.1987(2) 0.3539(2)
O30_2 O 0.1779(6) 0.18967(17) 0.2108(2)
O21_2 O 0.9625(6) 0.1987(2) 0.1461(2)
O31_2 O 0.8221(6) 0.18967(17) 0.2892(2)
O10_2 O 0.5656(7) 0.18084(16) 0.4977(2)
O15_2 O 0.2633(5) 0.77703(14) 0.56577(19)
O16_2 O 0.7633(5) 0.27703(14) 0.56577(19)
O17_2 O 0.2367(5) 0.22297(14) 0.56577(19)
O23_2 O 0.0375(6) 0.6987(2) 0.6461(2)
O25_2 O 0.4625(6) 0.3013(2) 0.6461(2)
O26_2 O 0.5375(6) 0.1987(2) 0.6461(2)
O9_2 O 0.9344(7) 0.81916(16) 0.4977(2)
O14_2 O 0.7367(5) 0.72297(14) 0.56577(19)
O24_2 O 0.9625(6) 0.8013(2) 0.6461(2)
O2_2 O 0.2633(5) 0.22297(14) 0.06577(19)
C1_2 C 0.2178(9) 0.0465(2) 0.0544(3)
C2_2 C 0.2798(9) 0.0913(2) 0.0335(3)
C3_2 C 0.2471(8) 0.1351(2) 0.0674(3)
C4_2 C 0.1477(8) 0.1331(2) 0.1223(3)
C5_2 C 0.0856(13) 0.0879(3) 0.1434(3)
H2_2 H 0.0179 0.0867 0.1801
C6_2 C 0.1237(10) 0.0449(3) 0.1102(4)
H3_2 H 0.0853 0.0147 0.1257
C7_2 C 0.3188(8) 0.1831(2) 0.0436(3)
C8_2 C 0.0971(9) 0.1778(2) 0.1620(3)
C9_2 C 0.2500 -0.0000 0.0170(5)
O5_2 O 0.2500 -0.0000 0.9573(4)
H1_2 H 0.3448 0.0923 0.9960
C9_3 C 0.2500 1.0000 0.0170(5)
O11_2 O 0.2367(5) 0.77703(14) 0.06577(19)
C10_2 C 0.2822(9) 0.9535(2) 0.0544(3)
C13_2 C 0.2202(9) 0.9087(2) 0.0335(3)
C16_2 C 0.2529(8) 0.8649(2) 0.0674(3)
C19_2 C 0.3523(8) 0.8669(2) 0.1223(3)
C22_2 C 0.4144(13) 0.9121(3) 0.1434(3)
H7_2 H 0.4821 0.9133 0.1801
C25_2 C 0.3763(10) 0.9551(3) 0.1102(4)
H10_2 H 0.4147 0.9853 0.1257
C28_2 C 0.1812(8) 0.8169(2) 0.0436(3)
C31_2 C 0.4029(9) 0.8222(2) 0.1620(3)
O5_3 O 0.2500 1.0000 0.9573(4)
H4_2 H 0.1552 0.9077 0.9960
O12_2 O 0.7367(5) 0.22297(14) 0.43423(19)
O32_2 O 0.7500 -0.0000 0.5427(4)
C11_2 C 0.7822(9) 0.0465(2) 0.4456(3)
C14_2 C 0.7202(9) 0.0913(2) 0.4665(3)
H5_2 H 0.6552 0.0923 0.5040
C17_2 C 0.7529(8) 0.1351(2) 0.4326(3)
C20_2 C 0.8523(8) 0.1331(2) 0.3777(3)
C23_2 C 0.9144(13) 0.0879(3) 0.3566(3)
H8_2 H 0.9821 0.0867 0.3199
C26_2 C 0.8763(10) 0.0449(3) 0.3898(4)
H11_2 H 0.9147 0.0147 0.3743
C29_2 C 0.6812(8) 0.1831(2) 0.4564(3)
C32_2 C 0.9029(9) 0.1778(2) 0.3380(3)
C34_2 C 0.7500 0.0000 0.4830(5)
O13_2 O 0.7633(5) 0.77703(14) 0.43423(19)
O32_3 O 0.7500 1.0000 0.5427(4)
C12_2 C 0.7178(9) 0.9535(2) 0.4456(3)
C15_2 C 0.7798(9) 0.9087(2) 0.4665(3)
H6_2 H 0.8448 0.9077 0.5040
C18_2 C 0.7471(8) 0.8649(2) 0.4326(3)
C21_2 C 0.6477(8) 0.8669(2) 0.3777(3)
C24_2 C 0.5856(13) 0.9121(3) 0.3566(3)
H9_2 H 0.5179 0.9133 0.3199
C27_2 C 0.6237(10) 0.9551(3) 0.3898(4)
H12_2 H 0.5853 0.9853 0.3743
C30_2 C 0.8188(8) 0.8169(2) 0.4564(3)
C33_2 C 0.5971(9) 0.8222(2) 0.3380(3)
C34_3 C 0.7500 1.0000 0.4830(5)
Cd4 Cd 0.0000 0.7500 0.7500
O5_4 O 0.2500 0.5000 0.0427(4)
H1_3 H 0.1552 0.4077 0.0040
H4_3 H 0.3448 0.5923 0.0040
Cd1_2 Cd 0.5000 0.2500 0.7500
O1_2 O 0.0656(7) 0.31916(16) 0.9977(2)
O4_2 O 0.3221(6) 0.31033(17) 0.7892(2)
C1_3 C 0.2822(9) 0.4535(2) 0.9456(3)
C2_3 C 0.2202(9) 0.4087(2) 0.9665(3)
C3_3 C 0.2529(8) 0.3649(2) 0.9326(3)
C4_3 C 0.3523(8) 0.3669(2) 0.8777(3)
C5_3 C 0.4144(13) 0.4121(3) 0.8566(3)
H2_3 H 0.4821 0.4133 0.8199
C6_3 C 0.3763(10) 0.4551(3) 0.8898(4)
H3_3 H 0.4147 0.4853 0.8743
C7_3 C 0.1812(8) 0.3169(2) 0.9564(3)
C8_3 C 0.4029(9) 0.3222(2) 0.8380(3)
C9_4 C 0.2500 0.5000 0.9830(5)
Cd4_2 Cd 1.0000 0.7500 0.7500
O6_2 O 0.4344(7) 0.68084(16) 0.9977(2)
O7_2 O 0.9344(7) 0.31916(16) 0.5023(2)
O8_2 O 0.5656(7) 0.68084(16) 0.5023(2)
O10_3 O 0.5656(7) 0.81916(16) 0.9977(2)
O27_2 O 0.1779(6) 0.68967(17) 0.7892(2)
O28_2 O 0.6779(6) 0.31033(17) 0.7108(2)
O29_2 O 0.8221(6) 0.68967(17) 0.7108(2)
O30_3 O 0.6779(6) 0.18967(17) 0.7892(2)
O31_3 O 0.3221(6) 0.18967(17) 0.7108(2)
O32_4 O 0.7500 0.5000 0.4573(4)
C10_3 C 0.2178(9) 0.5465(2) 0.9456(3)
C11_3 C 0.7178(9) 0.4535(2) 0.5544(3)
C12_3 C 0.7822(9) 0.5465(2) 0.5544(3)
C13_3 C 0.2798(9) 0.5913(2) 0.9665(3)
C14_3 C 0.7798(9) 0.4087(2) 0.5335(3)
C15_3 C 0.7202(9) 0.5913(2) 0.5335(3)
H5_3 H 0.8448 0.4077 0.4960
H6_3 H 0.6552 0.5923 0.4960
C16_3 C 0.2471(8) 0.6351(2) 0.9326(3)
C17_3 C 0.7471(8) 0.3649(2) 0.5674(3)
C18_3 C 0.7529(8) 0.6351(2) 0.5674(3)
C19_3 C 0.1477(8) 0.6331(2) 0.8777(3)
C20_3 C 0.6477(8) 0.3669(2) 0.6223(3)
C21_3 C 0.8523(8) 0.6331(2) 0.6223(3)
C22_3 C 0.0856(13) 0.5879(3) 0.8566(3)
C23_3 C 0.5856(13) 0.4121(3) 0.6434(3)
C24_3 C 0.9144(13) 0.5879(3) 0.6434(3)
H7_3 H 0.0179 0.5867 0.8199
H8_3 H 0.5179 0.4133 0.6801
H9_3 H 0.9821 0.5867 0.6801
C25_3 C 0.1237(10) 0.5449(3) 0.8898(4)
C26_3 C 0.6237(10) 0.4551(3) 0.6102(4)
C27_3 C 0.8763(10) 0.5449(3) 0.6102(4)
H10_3 H 0.0853 0.5147 0.8743
H11_3 H 0.5853 0.4853 0.6257
H12_3 H 0.9147 0.5147 0.6257
C28_3 C 0.3188(8) 0.6831(2) 0.9564(3)
C29_3 C 0.8188(8) 0.3169(2) 0.5436(3)
C30_3 C 0.6812(8) 0.6831(2) 0.5436(3)
C31_3 C 0.0971(9) 0.6778(2) 0.8380(3)
C32_3 C 0.5971(9) 0.3222(2) 0.6620(3)
C33_3 C 0.9029(9) 0.6778(2) 0.6620(3)
C34_4 C 0.7500 0.5000 0.5170(5)
O9_3 O 0.9344(7) 0.18084(16) 0.9977(2)
O31_4 O 0.1779(6) 0.81033(17) 0.7108(2)
O30_4 O 0.8221(6) 0.81033(17) 0.7892(2)
O9_4 O 0.0656(7) 0.18084(16) 0.5023(2)
O10_4 O 0.4344(7) 0.81916(16) 0.5023(2)
O32_5 O 0.2500 -0.0000 0.4573(4)
C12_4 C 0.2822(9) 0.0465(2) 0.5544(3)
C15_4 C 0.2202(9) 0.0913(2) 0.5335(3)
H6_4 H 0.1552 0.0923 0.4960
C18_4 C 0.2529(8) 0.1351(2) 0.5674(3)
C21_4 C 0.3523(8) 0.1331(2) 0.6223(3)
C24_4 C 0.4144(13) 0.0879(3) 0.6434(3)
H9_4 H 0.4821 0.0867 0.6801
C27_4 C 0.3763(10) 0.0449(3) 0.6102(4)
H12_4 H 0.4147 0.0147 0.6257
C30_4 C 0.1812(8) 0.1831(2) 0.5436(3)
C33_4 C 0.4029(9) 0.1778(2) 0.6620(3)
C34_5 C 0.2500 -0.0000 0.5170(5)
O32_6 O 0.2500 1.0000 0.4573(4)
C11_4 C 0.2178(9) 0.9535(2) 0.5544(3)
C14_4 C 0.2798(9) 0.9087(2) 0.5335(3)
H5_4 H 0.3448 0.9077 0.4960
C17_4 C 0.2471(8) 0.8649(2) 0.5674(3)
C20_4 C 0.1477(8) 0.8669(2) 0.6223(3)
C23_4 C 0.0856(13) 0.9121(3) 0.6434(3)
H8_4 H 0.0179 0.9133 0.6801
C26_4 C 0.1237(10) 0.9551(3) 0.6102(4)
H11_4 H 0.0853 0.9853 0.6257
C29_4 C 0.3188(8) 0.8169(2) 0.5436(3)
C32_4 C 0.0971(9) 0.8222(2) 0.6620(3)
C34_6 C 0.2500 1.0000 0.5170(5)
O5_5 O 0.7500 0.0000 0.0427(4)
H4_4 H 0.8448 0.0923 0.0040
C9_5 C 0.7500 -0.0000 0.9830(5)
C10_4 C 0.7178(9) 0.0465(2) 0.9456(3)
C13_4 C 0.7798(9) 0.0913(2) 0.9665(3)
C16_4 C 0.7471(8) 0.1351(2) 0.9326(3)
C19_4 C 0.6477(8) 0.1331(2) 0.8777(3)
C22_4 C 0.5856(13) 0.0879(3) 0.8566(3)
H7_4 H 0.5179 0.0867 0.8199
C25_4 C 0.6237(10) 0.0449(3) 0.8898(4)
H10_4 H 0.5853 0.0147 0.8743
C28_4 C 0.8188(8) 0.1831(2) 0.9564(3)
C31_4 C 0.5971(9) 0.1778(2) 0.8380(3)
O5_6 O 0.7500 1.0000 0.0427(4)
H1_4 H 0.6552 0.9077 0.0040
C1_4 C 0.7822(9) 0.9535(2) 0.9456(3)
C2_4 C 0.7202(9) 0.9087(2) 0.9665(3)
C3_4 C 0.7529(8) 0.8649(2) 0.9326(3)
C4_4 C 0.8523(8) 0.8669(2) 0.8777(3)
C5_4 C 0.9144(13) 0.9121(3) 0.8566(3)
H2_4 H 0.9821 0.9133 0.8199
C6_4 C 0.8763(10) 0.9551(3) 0.8898(4)
H3_4 H 0.9147 0.9853 0.8743
C7_4 C 0.6812(8) 0.8169(2) 0.9564(3)
C8_4 C 0.9029(9) 0.8222(2) 0.8380(3)
C9_6 C 0.7500 1.0000 0.9830(5)
loop_
_geom_bond_atom_site_label_1
_geom_bond_atom_site_label_2
_geom_bond_site_symmetry_1
_geom_bond_site_symmetry_2
Cd3 O18 1_555 1_555
O18 Cd7 1_555 1_555
O14 Cd2 1_555 1_555
O24 Cd2 1_555 1_555
Cd1 O3 1_555 1_555
O1 C7 1_555 1_555
O2 C7 1_555 1_555
O3 C8 1_555 1_555
O4 Cd1 1_555 1_555
C1 C2 1_555 1_555
C3 C2 1_555 1_555
C4 C3 1_555 1_555
C5 C4 1_555 1_555
H2 C5 1_555 1_555
C6 C1 1_555 1_555
H3 C6 1_555 1_555
C7 C3 1_555 1_555
C8 O4 1_555 1_555
C9 C1 1_555 1_555
Cd6 O2 1_555 1_555
Cd7_2 O11 1_555 1_555
Cd8 O7 1_555 1_555
Cd9 O12 1_555 1_555
Cd10 O13 1_555 1_555
Cd11 O8 1_555 1_555
O6 C28 1_555 1_555
O7 C29 1_555 1_555
O8 C30 1_555 1_555
O11 C28 1_555 1_555
O12 C29 1_555 1_555
O13 C30 1_555 1_555
O19 Cd1 1_555 1_555
O21 Cd1 1_555 1_555
O22 Cd1 1_555 1_555
O27 Cd3_2 1_555 1_555
O28 Cd1 1_555 1_555
O29 Cd3 1_555 1_555
O30 Cd1 1_555 1_555
O31 Cd1 1_555 1_555
O32 C34 1_555 1_555
C10 C9 1_555 1_555
C11 C14 1_555 1_555
C12 C15 1_555 1_555
C13 C10 1_555 1_555
C14 H5 1_555 1_555
C15 H6 1_555 1_555
C16 C13 1_555 1_555
C17 C14 1_555 1_555
C18 C15 1_555 1_555
C19 C16 1_555 1_555
C20 C17 1_555 1_555
C21 C18 1_555 1_555
C22 C19 1_555 1_555
C23 C20 1_555 1_555
C24 C21 1_555 1_555
H7 C22 1_555 1_555
H8 C23 1_555 1_555
H9 C24 1_555 1_555
C25 C10 1_555 1_555
C26 C11 1_555 1_555
C27 C12 1_555 1_555
H10 C25 1_555 1_555
H11 C26 1_555 1_555
H12 C27 1_555 1_555
C28 C16 1_555 1_555
C29 C17 1_555 1_555
C30 C18 1_555 1_555
C32 O19 1_555 1_555
C34 C11 1_555 1_555
O3 Cd6 1_555 1_555
C4 C8 1_555 1_555
C5 C6 1_555 1_555
Cd6 O21 1_555 1_555
Cd9 O19 1_555 1_555
Cd9 O22 1_555 1_555
O27 C31 1_555 1_555
O28 C32 1_555 1_555
O29 C33 1_555 1_555
C12 C34 1_555 1_555
C19 C31 1_555 1_555
C20 C32 1_555 1_555
C21 C33 1_555 1_555
C22 C25 1_555 1_555
C23 C26 1_555 1_555
C24 C27 1_555 1_555
O15 Cd2_2 1_555 1_555
O16 Cd5 1_555 1_555
O17 Cd5 1_555 1_555
O23 Cd2_2 1_555 1_555
O25 Cd5 1_555 1_555
O26 Cd5 1_555 1_555
Cd3_2 O20 1_555 1_555
O20 Cd10_2 1_555 1_555
O22_2 Cd3 1_555 1_555
O30_2 Cd3 1_555 1_555
Cd10 O22_2 1_555 1_555
O21_2 Cd3_2 1_555 1_555
O31_2 Cd3_2 1_555 1_555
Cd7_2 O21_2 1_555 1_555
O10_2 Cd11 1_555 1_555
O15_2 Cd8 1_555 1_555
O16_2 Cd11 1_555 1_555
O17_2 Cd11 1_555 1_555
O23_2 Cd8 1_555 1_555
O25_2 Cd11 1_555 1_555
O26_2 Cd11 1_555 1_555
O9_2 Cd8_2 1_555 1_555
O14_2 Cd8_2 1_555 1_555
O24_2 Cd8_2 1_555 1_555
O10 C7_2 1_555 1_555
O2_2 C7_2 1_555 1_555
C1_2 C2_2 1_555 1_555
C3_2 C2_2 1_555 1_555
C4_2 C3_2 1_555 1_555
C5_2 C4_2 1_555 1_555
H2_2 C5_2 1_555 1_555
C6_2 C1_2 1_555 1_555
H3_2 C6_2 1_555 1_555
C7_2 C3_2 1_555 1_555
C8_2 O30_2 1_555 1_555
C9_2 C1_2 1_555 1_555
Cd7 O2_2 1_555 1_555
C4_2 C8_2 1_555 1_555
C5_2 C6_2 1_555 1_555
Cd6 O11_2 1_555 1_555
O9 C28_2 1_555 1_555
O11_2 C28_2 1_555 1_555
C10_2 C9_3 1_555 1_555
C13_2 C10_2 1_555 1_555
C16_2 C13_2 1_555 1_555
C19_2 C16_2 1_555 1_555
C22_2 C19_2 1_555 1_555
H7_2 C22_2 1_555 1_555
C25_2 C10_2 1_555 1_555
H10_2 C25_2 1_555 1_555
C28_2 C16_2 1_555 1_555
C31_2 O21 1_555 1_555
O30 C31_2 1_555 1_555
C19_2 C31_2 1_555 1_555
C22_2 C25_2 1_555 1_555
Cd10_2 O12_2 1_555 1_555
O10_2 C29_2 1_555 1_555
O12_2 C29_2 1_555 1_555
O32_2 C34_2 1_555 1_555
C11_2 C14_2 1_555 1_555
C14_2 H5_2 1_555 1_555
C17_2 C14_2 1_555 1_555
C20_2 C17_2 1_555 1_555
C23_2 C20_2 1_555 1_555
H8_2 C23_2 1_555 1_555
C26_2 C11_2 1_555 1_555
H11_2 C26_2 1_555 1_555
C29_2 C17_2 1_555 1_555
C34_2 C11_2 1_555 1_555
O31_2 C32_2 1_555 1_555
C20_2 C32_2 1_555 1_555
C23_2 C26_2 1_555 1_555
Cd9 O13_2 1_555 1_555
O9_2 C30_2 1_555 1_555
O13_2 C30_2 1_555 1_555
O32_3 C34_3 1_555 1_555
C12_2 C15_2 1_555 1_555
C15_2 H6_2 1_555 1_555
C18_2 C15_2 1_555 1_555
C21_2 C18_2 1_555 1_555
C24_2 C21_2 1_555 1_555
H9_2 C24_2 1_555 1_555
C27_2 C12_2 1_555 1_555
H12_2 C27_2 1_555 1_555
C30_2 C18_2 1_555 1_555
C33_2 O22 1_555 1_555
O31 C33_2 1_555 1_555
C12_2 C34_3 1_555 1_555
C21_2 C33_2 1_555 1_555
C24_2 C27_2 1_555 1_555
Cd4 O23_2 1_555 1_555
Cd1_2 O25 1_555 1_555
O1_2 C7_3 1_555 1_555
O16 C7_3 1_555 1_555
O25 C8_3 1_555 1_555
O4_2 Cd1_2 1_555 1_555
C1_3 C2_3 1_555 1_555
C3_3 C2_3 1_555 1_555
C4_3 C3_3 1_555 1_555
C5_3 C4_3 1_555 1_555
H2_3 C5_3 1_555 1_555
C6_3 C1_3 1_555 1_555
H3_3 C6_3 1_555 1_555
C7_3 C3_3 1_555 1_555
C8_3 O4_2 1_555 1_555
C9_4 C1_3 1_555 1_555
Cd10_2 O7_2 1_555 1_555
Cd9 O8_2 1_555 1_555
O6_2 C28_3 1_555 1_555
O7_2 C29_3 1_555 1_555
O8_2 C30_3 1_555 1_555
O14 C28_3 1_555 1_555
O16_2 C29_3 1_555 1_555
O14_2 C30_3 1_555 1_555
O25_2 Cd1_2 1_555 1_555
O26 Cd1_2 1_555 1_555
O26_2 Cd1_2 1_555 1_555
O27_2 Cd4 1_555 1_555
O28_2 Cd1_2 1_555 1_555
O29_2 Cd4_2 1_555 1_555
O30_3 Cd1_2 1_555 1_555
O31_3 Cd1_2 1_555 1_555
O32_4 C34_4 1_555 1_555
C10_3 C9_4 1_555 1_555
C11_3 C14_3 1_555 1_555
C12_3 C15_3 1_555 1_555
C13_3 C10_3 1_555 1_555
C14_3 H5_3 1_555 1_555
C15_3 H6_3 1_555 1_555
C16_3 C13_3 1_555 1_555
C17_3 C14_3 1_555 1_555
C18_3 C15_3 1_555 1_555
C19_3 C16_3 1_555 1_555
C20_3 C17_3 1_555 1_555
C21_3 C18_3 1_555 1_555
C22_3 C19_3 1_555 1_555
C23_3 C20_3 1_555 1_555
C24_3 C21_3 1_555 1_555
H7_3 C22_3 1_555 1_555
H8_3 C23_3 1_555 1_555
H9_3 C24_3 1_555 1_555
C25_3 C10_3 1_555 1_555
C26_3 C11_3 1_555 1_555
C27_3 C12_3 1_555 1_555
H10_3 C25_3 1_555 1_555
H11_3 C26_3 1_555 1_555
H12_3 C27_3 1_555 1_555
C28_3 C16_3 1_555 1_555
C29_3 C17_3 1_555 1_555
C30_3 C18_3 1_555 1_555
C32_3 O25_2 1_555 1_555
C34_4 C11_3 1_555 1_555
C4_3 C8_3 1_555 1_555
C5_3 C6_3 1_555 1_555
O27_2 C31_3 1_555 1_555
O28_2 C32_3 1_555 1_555
O29_2 C33_3 1_555 1_555
C12_3 C34_4 1_555 1_555
C19_3 C31_3 1_555 1_555
C20_3 C32_3 1_555 1_555
C21_3 C33_3 1_555 1_555
C22_3 C25_3 1_555 1_555
C23_3 C26_3 1_555 1_555
C24_3 C27_3 1_555 1_555
Cd4_2 O23 1_555 1_555
O24 Cd4 1_555 1_555
O31_4 Cd4 1_555 1_555
O24_2 Cd4_2 1_555 1_555
O30_4 Cd4_2 1_555 1_555
O9_4 Cd10 1_555 1_555
O10_4 Cd9 1_555 1_555
O9_4 C30_4 1_555 1_555
O17_2 C30_4 1_555 1_555
O32_5 C34_5 1_555 1_555
C12_4 C15_4 1_555 1_555
C15_4 H6_4 1_555 1_555
C18_4 C15_4 1_555 1_555
C21_4 C18_4 1_555 1_555
C24_4 C21_4 1_555 1_555
H9_4 C24_4 1_555 1_555
C27_4 C12_4 1_555 1_555
H12_4 C27_4 1_555 1_555
C30_4 C18_4 1_555 1_555
C33_4 O26_2 1_555 1_555
O31_3 C33_4 1_555 1_555
C12_4 C34_5 1_555 1_555
C21_4 C33_4 1_555 1_555
C24_4 C27_4 1_555 1_555
O10_4 C29_4 1_555 1_555
O15_2 C29_4 1_555 1_555
O32_6 C34_6 1_555 1_555
C11_4 C14_4 1_555 1_555
C14_4 H5_4 1_555 1_555
C17_4 C14_4 1_555 1_555
C20_4 C17_4 1_555 1_555
C23_4 C20_4 1_555 1_555
H8_4 C23_4 1_555 1_555
C26_4 C11_4 1_555 1_555
H11_4 C26_4 1_555 1_555
C29_4 C17_4 1_555 1_555
C34_6 C11_4 1_555 1_555
O31_4 C32_4 1_555 1_555
C20_4 C32_4 1_555 1_555
C23_4 C26_4 1_555 1_555
O9_3 C28_4 1_555 1_555
O17 C28_4 1_555 1_555
C10_4 C9_5 1_555 1_555
C13_4 C10_4 1_555 1_555
C16_4 C13_4 1_555 1_555
C19_4 C16_4 1_555 1_555
C22_4 C19_4 1_555 1_555
H7_4 C22_4 1_555 1_555
C25_4 C10_4 1_555 1_555
H10_4 C25_4 1_555 1_555
C28_4 C16_4 1_555 1_555
C31_4 O26 1_555 1_555
O30_3 C31_4 1_555 1_555
C19_4 C31_4 1_555 1_555
C22_4 C25_4 1_555 1_555
O10_3 C7_4 1_555 1_555
O15 C7_4 1_555 1_555
C1_4 C2_4 1_555 1_555
C3_4 C2_4 1_555 1_555
C4_4 C3_4 1_555 1_555
C5_4 C4_4 1_555 1_555
H2_4 C5_4 1_555 1_555
C6_4 C1_4 1_555 1_555
H3_4 C6_4 1_555 1_555
C7_4 C3_4 1_555 1_555
C8_4 O30_4 1_555 1_555
C9_6 C1_4 1_555 1_555
C4_4 C8_4 1_555 1_555
C5_4 C6_4 1_555 1_555

#END
