
###############################################################################
#
# This file contains modified crystal structure data generated from the
# MOF subset of the Cambridge Structural Database (CSD) v543 
# hosted by the Cambridge Crystallographic Data Centre (CCDC).
#
# This work is licensed under the Creative Commons
# Attribution-NonCommercial-ShareAlike 4.0 International License.
# To view a copy of this license, visit
# http://creativecommons.org/licenses/by-nc-sa/4.0/
# or send a letter to
# Creative Commons, PO Box 1866, Mountain View, CA 94042, USA.
#
# CIF created using the CSD Python API on 29 September 2022
# The structure has been converted into the P1 space group
# The structure has a 3D framework
# The original CSD entry ATOBOC is in the monoclinic crystal system
# The framework has been calculated to contain at least 10.0% void space
# The void calculation uses a probe of radius 1.32A, grid spacing 0.4
#
###############################################################################

data_ATOBOC
_chemical_formula_moiety         '(C200 H136 Cd8 N40 O39)n'
_symmetry_cell_setting           triclinic
_symmetry_space_group_name_H-M   'P 1'
_symmetry_Int_Tables_number      1
_space_group_name_Hall           'P 1'
loop_
_symmetry_equiv_pos_site_id
_symmetry_equiv_pos_as_xyz
1 x,y,z
_cell_length_a                   28.928(8)
_cell_length_b                   12.354(3)
_cell_length_c                   16.349(4)
_cell_angle_alpha                90
_cell_angle_beta                 114.571(7)
_cell_angle_gamma                90
_cell_volume                     5313.67
loop_
_atom_site_label
_atom_site_type_symbol
_atom_site_fract_x
_atom_site_fract_y
_atom_site_fract_z
C1 C 0.12484(19) 0.3588(4) 0.1945(3)
H1 H 0.1491 0.3278 0.1762
C2 C 0.06406(18) 0.4565(4) 0.1991(3)
H2 H 0.0375 0.5084 0.1830
C3 C 0.08113(18) 0.3964(4) 0.2749(4)
H3 H 0.0689 0.3965 0.3205
C4 C 0.15036(18) 0.2578(4) 0.3376(3)
C5 C 0.22519(18) 0.1663(4) 0.3981(3)
C6 C 0.2110(2) 0.1126(4) 0.4585(4)
H4 H 0.2331 0.0617 0.4999
C7 C 0.1638(2) 0.1355(5) 0.4566(4)
H5 H 0.1528 0.1001 0.4970
C8 C 0.1330(2) 0.2096(4) 0.3961(4)
H6 H 0.1006 0.2274 0.3942
C9 C 0.2957(2) 0.2175(5) 0.3578(4)
H7 H 0.2806 0.2788 0.3214
C10 C 0.3092(2) 0.0754(4) 0.4445(4)
H8 H 0.3039 0.0196 0.4796
C25 C 0.3429(2) 0.1777(5) 0.3787(4)
H17 H 0.3668 0.2069 0.3587
Cd1 Cd 0.071961(13) 0.49153(3) 0.00782(2)
N1 N 0.09080(14) 0.4319(3) 0.1481(3)
N2 N 0.12056(15) 0.3339(3) 0.2720(3)
N3 N 0.19581(15) 0.2374(3) 0.3381(3)
N4 N 0.27430(15) 0.1517(3) 0.3996(3)
N5 N 0.35112(16) 0.0878(3) 0.4336(3)
O1 O 0.00958(13) 0.6172(3) 0.0225(2)
N6 N 0.14888(16) 0.5878(3) 0.0664(3)
Cd3 Cd 0.428039(13) 0.99153(3) 0.49218(2)
C18 C 0.8921(2) 0.1146(4) 0.7802(4)
C19 C 0.8547(2) 0.1188(5) 0.6938(4)
H13 H 0.8263 0.0712 0.6753
C20 C 0.8591(2) 0.1937(5) 0.6341(4)
H14 H 0.8338 0.1965 0.5741
C21 C 0.9002(2) 0.2651(4) 0.6613(4)
C22 C 0.9366(2) 0.2595(4) 0.7494(4)
H15 H 0.9647 0.3080 0.7691
C23 C 0.9327(2) 0.1841(4) 0.8091(4)
H16 H 0.9578 0.1807 0.8692
C24 C 0.9050(2) 0.3468(4) 0.5975(4)
O3 O 0.88678(16) 0.0425(3) 0.8414(3)
O4 O 0.94341(14) 0.4043(3) 0.6234(2)
O5 O 0.86993(16) 0.3525(3) 0.5184(3)
Cd2 Cd 0.928039(13) 0.49153(3) 0.49218(2)
C12 C 0.98217(18) 0.7765(4) 0.9328(3)
C13 C 0.9530(2) 0.8127(4) 0.9764(4)
C14 C 0.9220(2) 0.9018(4) 0.9458(4)
H10 H 0.9023 0.9263 0.9764
C15 C 0.9200(2) 0.9557(4) 0.8694(4)
C16 C 0.9492(2) 0.9233(4) 0.8258(4)
H11 H 0.9480 0.9618 0.7746
C17 C 0.98088(19) 0.8328(4) 0.8578(3)
Cd4 Cd 0.928039(13) 0.50847(3) 0.99218(2)
O6 O 0.99042(13) 0.3828(3) 0.9775(2)
C12_2 C 0.01783(18) 0.7765(4) 0.5672(3)
C13_2 C 0.0470(2) 0.8127(4) 0.5236(4)
H9 H 0.0456 0.7754 0.4719
C14_2 C 0.0780(2) 0.9018(4) 0.5542(4)
H10_2 H 0.0977 0.9263 0.5236
C15_2 C 0.0800(2) 0.9557(4) 0.6306(4)
C16_2 C 0.0508(2) 0.9233(4) 0.6742(4)
H11_2 H 0.0520 0.9618 0.7254
C17_2 C 0.01912(19) 0.8328(4) 0.6422(3)
Cd4_2 Cd 0.071961(13) 0.50847(3) 0.50782(2)
O6_2 O 0.00958(13) 0.3828(3) 0.5225(2)
C1_2 C 0.87516(19) 0.3588(4) 0.3055(3)
H1_2 H 0.8509 0.3278 0.3238
C2_2 C 0.93594(18) 0.4565(4) 0.3009(3)
H2_2 H 0.9625 0.5084 0.3170
C3_2 C 0.91887(18) 0.3964(4) 0.2251(4)
H3_2 H 0.9311 0.3965 0.1795
C4_2 C 0.84964(18) 0.2578(4) 0.1624(3)
C5_2 C 0.77481(18) 0.1663(4) 0.1019(3)
C6_2 C 0.7890(2) 0.1126(4) 0.0415(4)
H4_2 H 0.7669 0.0617 0.0001
C7_2 C 0.8362(2) 0.1355(5) 0.0434(4)
H5_2 H 0.8472 0.1001 0.0030
C8_2 C 0.8670(2) 0.2096(4) 0.1039(4)
H6_2 H 0.8994 0.2274 0.1058
C9_2 C 0.7043(2) 0.2175(5) 0.1422(4)
H7_2 H 0.7194 0.2788 0.1786
C10_2 C 0.6908(2) 0.0754(4) 0.0555(4)
H8_2 H 0.6961 0.0196 0.0204
C11 C 0.98555(18) 0.6769(4) 0.5365(3)
H12 H 0.9986 0.8097 0.6716
C25_2 C 0.6571(2) 0.1777(5) 0.1213(4)
H17_2 H 0.6332 0.2069 0.1413
N1_2 N 0.90920(14) 0.4319(3) 0.3519(3)
N2_2 N 0.87944(15) 0.3339(3) 0.2280(3)
N3_2 N 0.80419(15) 0.2374(3) 0.1619(3)
N4_2 N 0.72570(15) 0.1517(3) 0.1004(3)
N5_2 N 0.64888(16) 0.0878(3) 0.0664(3)
O1_2 O 0.99042(13) 0.6172(3) 0.4775(2)
O2 O 0.95522(12) 0.6548(3) 0.5715(2)
N6_2 N 0.85112(16) 0.5878(3) 0.4336(3)
Cd3_2 Cd 0.571961(13) 0.99153(3) 0.00782(2)
H2_3 H 0.5375 0.0084 0.1830
H9_2 H 0.4544 0.2754 0.0281
O1_3 O 0.50958(13) 0.1172(3) 0.0225(2)
C11_2 C 0.51445(18) 0.1769(4) 0.9635(3)
C12_3 C 0.48217(18) 0.2765(4) 0.9328(3)
C13_3 C 0.4530(2) 0.3127(4) 0.9764(4)
C14_3 C 0.4220(2) 0.4018(4) 0.9458(4)
H10_3 H 0.4023 0.4263 0.9764
C15_3 C 0.4200(2) 0.4557(4) 0.8694(4)
C16_3 C 0.4492(2) 0.4233(4) 0.8258(4)
H11_3 H 0.4480 0.4618 0.7746
C17_3 C 0.48088(19) 0.3328(4) 0.8578(3)
H12_2 H 0.5014 0.3097 0.8284
C18_2 C 0.3921(2) 0.6146(4) 0.7802(4)
C19_2 C 0.3547(2) 0.6188(5) 0.6938(4)
H13_2 H 0.3263 0.5712 0.6753
C20_2 C 0.3591(2) 0.6937(5) 0.6341(4)
H14_2 H 0.3338 0.6965 0.5741
C21_2 C 0.4002(2) 0.7651(4) 0.6613(4)
C22_2 C 0.4366(2) 0.7595(4) 0.7494(4)
H15_2 H 0.4647 0.8080 0.7691
C23_2 C 0.4327(2) 0.6841(4) 0.8091(4)
H16_2 H 0.4578 0.6807 0.8692
C24_2 C 0.4050(2) 0.8468(4) 0.5975(4)
O2_2 O 0.54478(12) 0.1548(3) 0.9285(2)
O3_2 O 0.38678(16) 0.5425(3) 0.8414(3)
O4_2 O 0.44341(14) 0.9043(3) 0.6234(2)
O5_2 O 0.36993(16) 0.8525(3) 0.5184(3)
Cd4_3 Cd 0.428039(13) 0.00847(3) 0.99218(2)
C1_3 C 0.62484(19) 0.8588(4) 0.1945(3)
H1_3 H 0.6491 0.8278 0.1762
C2_3 C 0.56406(18) 0.9565(4) 0.1991(3)
C3_3 C 0.58113(18) 0.8964(4) 0.2749(4)
H3_3 H 0.5689 0.8965 0.3205
C4_3 C 0.65036(18) 0.7578(4) 0.3376(3)
C5_3 C 0.72519(18) 0.6663(4) 0.3981(3)
C6_3 C 0.7110(2) 0.6126(4) 0.4585(4)
H4_3 H 0.7331 0.5617 0.4999
C7_3 C 0.6638(2) 0.6355(5) 0.4566(4)
H5_3 H 0.6528 0.6001 0.4970
C8_3 C 0.6330(2) 0.7096(4) 0.3961(4)
H6_3 H 0.6006 0.7274 0.3942
C9_3 C 0.7957(2) 0.7175(5) 0.3578(4)
H7_3 H 0.7806 0.7788 0.3214
C10_3 C 0.8092(2) 0.5754(4) 0.4445(4)
H8_3 H 0.8039 0.5196 0.4796
C25_3 C 0.8429(2) 0.6777(5) 0.3787(4)
H17_3 H 0.8668 0.7069 0.3587
N1_3 N 0.59080(14) 0.9319(3) 0.1481(3)
N2_3 N 0.62056(15) 0.8339(3) 0.2720(3)
N3_3 N 0.69581(15) 0.7374(3) 0.3381(3)
N4_3 N 0.77430(15) 0.6517(3) 0.3996(3)
O6_3 O 0.49042(13) 0.8828(3) 0.9775(2)
O7 O 0.55659(14) 0.9043(3) 0.8766(2)
O8 O 0.63007(16) 0.8525(3) 0.9816(3)
H2_4 H 0.4625 0.0084 0.3170
C11_3 C 0.48555(18) 0.1769(4) 0.5365(3)
C12_4 C 0.51783(18) 0.2765(4) 0.5672(3)
C13_4 C 0.5470(2) 0.3127(4) 0.5236(4)
H9_3 H 0.5456 0.2754 0.4719
C14_4 C 0.5780(2) 0.4018(4) 0.5542(4)
H10_4 H 0.5977 0.4263 0.5236
C15_4 C 0.5800(2) 0.4557(4) 0.6306(4)
C16_4 C 0.5508(2) 0.4233(4) 0.6742(4)
H11_4 H 0.5520 0.4618 0.7254
C17_4 C 0.51912(19) 0.3328(4) 0.6422(3)
H12_3 H 0.4986 0.3097 0.6716
C18_3 C 0.6079(2) 0.6146(4) 0.7198(4)
C19_3 C 0.6453(2) 0.6188(5) 0.8062(4)
H13_3 H 0.6737 0.5712 0.8247
C20_3 C 0.6409(2) 0.6937(5) 0.8659(4)
H14_3 H 0.6662 0.6965 0.9259
C21_3 C 0.5998(2) 0.7651(4) 0.8387(4)
C22_3 C 0.5634(2) 0.7595(4) 0.7506(4)
H15_3 H 0.5353 0.8080 0.7309
C23_3 C 0.5673(2) 0.6841(4) 0.6909(4)
H16_3 H 0.5422 0.6807 0.6308
C24_3 C 0.5950(2) 0.8468(4) 0.9025(4)
O1_4 O 0.49042(13) 0.1172(3) 0.4775(2)
O2_3 O 0.45522(12) 0.1548(3) 0.5715(2)
O3_3 O 0.61322(16) 0.5425(3) 0.6586(3)
Cd4_4 Cd 0.571961(13) 0.00847(3) 0.50782(2)
C1_4 C 0.37516(19) 0.8588(4) 0.3055(3)
H1_4 H 0.3509 0.8278 0.3238
C2_4 C 0.43594(18) 0.9565(4) 0.3009(3)
C3_4 C 0.41887(18) 0.8964(4) 0.2251(4)
H3_4 H 0.4311 0.8965 0.1795
C4_4 C 0.34964(18) 0.7578(4) 0.1624(3)
C5_4 C 0.27481(18) 0.6663(4) 0.1019(3)
C6_4 C 0.2890(2) 0.6126(4) 0.0415(4)
H4_4 H 0.2669 0.5617 0.0001
C7_4 C 0.3362(2) 0.6355(5) 0.0434(4)
H5_4 H 0.3472 0.6001 0.0030
C8_4 C 0.3670(2) 0.7096(4) 0.1039(4)
H6_4 H 0.3994 0.7274 0.1058
C9_4 C 0.2043(2) 0.7175(5) 0.1422(4)
H7_4 H 0.2194 0.7788 0.1786
C10_4 C 0.1908(2) 0.5754(4) 0.0555(4)
H8_4 H 0.1961 0.5196 0.0204
C25_4 C 0.1571(2) 0.6777(5) 0.1213(4)
H17_4 H 0.1332 0.7069 0.1413
N1_4 N 0.40920(14) 0.9319(3) 0.3519(3)
N2_4 N 0.37944(15) 0.8339(3) 0.2280(3)
N3_4 N 0.30419(15) 0.7374(3) 0.1619(3)
N4_4 N 0.22570(15) 0.6517(3) 0.1004(3)
O6_4 O 0.50958(13) 0.8828(3) 0.5225(2)
C12_5 C 0.01783(18) 0.2235(4) 0.0672(3)
C13_5 C 0.0470(2) 0.1873(4) 0.0236(4)
C14_5 C 0.0780(2) 0.0982(4) 0.0542(4)
H10_5 H 0.0977 0.0737 0.0236
C15_5 C 0.0800(2) 0.0443(4) 0.1306(4)
C16_5 C 0.0508(2) 0.0767(4) 0.1742(4)
H11_5 H 0.0520 0.0382 0.2254
C17_5 C 0.01912(19) 0.1672(4) 0.1422(3)
C18_4 C 0.1079(2) 0.8854(4) 0.2198(4)
C19_4 C 0.1453(2) 0.8812(5) 0.3062(4)
H13_4 H 0.1737 0.9288 0.3247
C20_4 C 0.1409(2) 0.8063(5) 0.3659(4)
H14_4 H 0.1662 0.8035 0.4259
C21_4 C 0.0998(2) 0.7349(4) 0.3387(4)
C22_4 C 0.0634(2) 0.7405(4) 0.2506(4)
H15_4 H 0.0353 0.6920 0.2309
C23_4 C 0.0673(2) 0.8159(4) 0.1909(4)
H16_4 H 0.0422 0.8193 0.1308
C24_4 C 0.0950(2) 0.6532(4) 0.4025(4)
O3_4 O 0.11322(16) 0.9575(3) 0.1586(3)
O4_3 O 0.05659(14) 0.5957(3) 0.3766(2)
O5_3 O 0.13007(16) 0.6475(3) 0.4816(3)
C1_5 C 0.87516(19) 0.6412(4) 0.8055(3)
H1_5 H 0.8509 0.6722 0.8238
C2_5 C 0.93594(18) 0.5435(4) 0.8009(3)
H2_5 H 0.9625 0.4916 0.8170
C3_5 C 0.91887(18) 0.6036(4) 0.7251(4)
H3_5 H 0.9311 0.6035 0.6795
C4_5 C 0.84964(18) 0.7422(4) 0.6624(3)
C5_5 C 0.77481(18) 0.8337(4) 0.6019(3)
C6_5 C 0.7890(2) 0.8874(4) 0.5415(4)
H4_5 H 0.7669 0.9383 0.5001
C7_5 C 0.8362(2) 0.8645(5) 0.5434(4)
H5_5 H 0.8472 0.8999 0.5030
C8_5 C 0.8670(2) 0.7904(4) 0.6039(4)
H6_5 H 0.8994 0.7726 0.6058
C9_5 C 0.7043(2) 0.7825(5) 0.6422(4)
H7_5 H 0.7194 0.7212 0.6786
C10_5 C 0.6908(2) 0.9246(4) 0.5555(4)
H8_5 H 0.6961 0.9804 0.5204
C25_5 C 0.6571(2) 0.8223(5) 0.6213(4)
H17_5 H 0.6332 0.7931 0.6413
N1_5 N 0.90920(14) 0.5681(3) 0.8519(3)
N2_5 N 0.87944(15) 0.6661(3) 0.7280(3)
N3_5 N 0.80419(15) 0.7626(3) 0.6619(3)
N4_5 N 0.72570(15) 0.8483(3) 0.6004(3)
N5_3 N 0.64888(16) 0.9122(3) 0.5664(3)
N6_3 N 0.85112(16) 0.4122(3) 0.9336(3)
C1_6 C 0.12484(19) 0.6412(4) 0.6945(3)
H1_6 H 0.1491 0.6722 0.6762
C2_6 C 0.06406(18) 0.5435(4) 0.6991(3)
H2_6 H 0.0375 0.4916 0.6830
C3_6 C 0.08113(18) 0.6036(4) 0.7749(4)
H3_6 H 0.0689 0.6035 0.8205
C4_6 C 0.15036(18) 0.7422(4) 0.8376(3)
C5_6 C 0.22519(18) 0.8337(4) 0.8981(3)
C6_6 C 0.2110(2) 0.8874(4) 0.9585(4)
H4_6 H 0.2331 0.9383 0.9999
C7_6 C 0.1638(2) 0.8645(5) 0.9566(4)
H5_6 H 0.1528 0.8999 0.9970
C8_6 C 0.1330(2) 0.7904(4) 0.8961(4)
H6_6 H 0.1006 0.7726 0.8942
C9_6 C 0.2957(2) 0.7825(5) 0.8578(4)
H7_6 H 0.2806 0.7212 0.8214
C10_6 C 0.3092(2) 0.9246(4) 0.9445(4)
H8_6 H 0.3039 0.9804 0.9796
C11_4 C 0.01445(18) 0.3231(4) 0.4635(3)
H12_4 H 0.0014 0.1903 0.3284
C25_6 C 0.3429(2) 0.8223(5) 0.8787(4)
H17_6 H 0.3668 0.7931 0.8587
N1_6 N 0.09080(14) 0.5681(3) 0.6481(3)
N2_6 N 0.12056(15) 0.6661(3) 0.7720(3)
N3_6 N 0.19581(15) 0.7626(3) 0.8381(3)
N4_6 N 0.27430(15) 0.8483(3) 0.8996(3)
N5_4 N 0.35112(16) 0.9122(3) 0.9336(3)
O2_4 O 0.04478(12) 0.3452(3) 0.4285(2)
N6_4 N 0.14888(16) 0.4122(3) 0.5664(3)
C12_6 C 0.98217(18) 0.2235(4) 0.4328(3)
C13_6 C 0.9530(2) 0.1873(4) 0.4764(4)
H9_4 H 0.9544 0.2246 0.5281
C14_6 C 0.9220(2) 0.0982(4) 0.4458(4)
H10_6 H 0.9023 0.0737 0.4764
C15_6 C 0.9200(2) 0.0443(4) 0.3694(4)
C16_6 C 0.9492(2) 0.0767(4) 0.3258(4)
H11_6 H 0.9480 0.0382 0.2746
C17_6 C 0.98088(19) 0.1672(4) 0.3578(3)
O7_2 O 0.44341(14) 0.0957(3) 0.1234(2)
O8_2 O 0.36993(16) 0.1475(3) 0.0184(3)
C1_7 C 0.37516(19) 0.1412(4) 0.8055(3)
H1_7 H 0.3509 0.1722 0.8238
C2_7 C 0.43594(18) 0.0435(4) 0.8009(3)
C3_7 C 0.41887(18) 0.1036(4) 0.7251(4)
H3_7 H 0.4311 0.1035 0.6795
C4_7 C 0.34964(18) 0.2422(4) 0.6624(3)
C5_7 C 0.27481(18) 0.3337(4) 0.6019(3)
C6_7 C 0.2890(2) 0.3874(4) 0.5415(4)
H4_7 H 0.2669 0.4383 0.5001
C7_7 C 0.3362(2) 0.3645(5) 0.5434(4)
H5_7 H 0.3472 0.3999 0.5030
C8_7 C 0.3670(2) 0.2904(4) 0.6039(4)
H6_7 H 0.3994 0.2726 0.6058
C9_7 C 0.2043(2) 0.2825(5) 0.6422(4)
H7_7 H 0.2194 0.2212 0.6786
C10_7 C 0.1908(2) 0.4246(4) 0.5555(4)
H8_7 H 0.1961 0.4804 0.5204
C25_7 C 0.1571(2) 0.3223(5) 0.6213(4)
H17_7 H 0.1332 0.2931 0.6413
N1_7 N 0.40920(14) 0.0681(3) 0.8519(3)
N2_7 N 0.37944(15) 0.1661(3) 0.7280(3)
N3_7 N 0.30419(15) 0.2626(3) 0.6619(3)
N4_7 N 0.22570(15) 0.3483(3) 0.6004(3)
C11_5 C 0.48555(18) 0.8231(4) 0.0365(3)
C12_7 C 0.51783(18) 0.7235(4) 0.0672(3)
C13_7 C 0.5470(2) 0.6873(4) 0.0236(4)
C14_7 C 0.5780(2) 0.5982(4) 0.0542(4)
H10_7 H 0.5977 0.5737 0.0236
C15_7 C 0.5800(2) 0.5443(4) 0.1306(4)
C16_7 C 0.5508(2) 0.5767(4) 0.1742(4)
H11_7 H 0.5520 0.5382 0.2254
C17_7 C 0.51912(19) 0.6672(4) 0.1422(3)
H12_5 H 0.4986 0.6903 0.1716
C18_5 C 0.6079(2) 0.3854(4) 0.2198(4)
C19_5 C 0.6453(2) 0.3812(5) 0.3062(4)
H13_5 H 0.6737 0.4288 0.3247
C20_5 C 0.6409(2) 0.3063(5) 0.3659(4)
H14_5 H 0.6662 0.3035 0.4259
C21_5 C 0.5998(2) 0.2349(4) 0.3387(4)
C22_5 C 0.5634(2) 0.2405(4) 0.2506(4)
H15_5 H 0.5353 0.1920 0.2309
C23_5 C 0.5673(2) 0.3159(4) 0.1909(4)
H16_5 H 0.5422 0.3193 0.1308
C24_5 C 0.5950(2) 0.1532(4) 0.4025(4)
O2_5 O 0.45522(12) 0.8452(3) 0.0715(2)
O3_5 O 0.61322(16) 0.4575(3) 0.1586(3)
O4_4 O 0.55659(14) 0.0957(3) 0.3766(2)
O5_4 O 0.63007(16) 0.1475(3) 0.4816(3)
H2_7 H 0.4625 0.9916 0.8170
H9_5 H 0.5456 0.7246 0.9719
C1_8 C 0.62484(19) 0.1412(4) 0.6945(3)
H1_8 H 0.6491 0.1722 0.6762
C2_8 C 0.56406(18) 0.0435(4) 0.6991(3)
C3_8 C 0.58113(18) 0.1036(4) 0.7749(4)
H3_8 H 0.5689 0.1035 0.8205
C4_8 C 0.65036(18) 0.2422(4) 0.8376(3)
C5_8 C 0.72519(18) 0.3337(4) 0.8981(3)
C6_8 C 0.7110(2) 0.3874(4) 0.9585(4)
H4_8 H 0.7331 0.4383 0.9999
C7_8 C 0.6638(2) 0.3645(5) 0.9566(4)
H5_8 H 0.6528 0.3999 0.9970
C8_8 C 0.6330(2) 0.2904(4) 0.8961(4)
H6_8 H 0.6006 0.2726 0.8942
C9_8 C 0.7957(2) 0.2825(5) 0.8578(4)
H7_8 H 0.7806 0.2212 0.8214
C10_8 C 0.8092(2) 0.4246(4) 0.9445(4)
H8_8 H 0.8039 0.4804 0.9796
C25_8 C 0.8429(2) 0.3223(5) 0.8787(4)
H17_8 H 0.8668 0.2931 0.8587
N1_8 N 0.59080(14) 0.0681(3) 0.6481(3)
N2_8 N 0.62056(15) 0.1661(3) 0.7720(3)
N3_8 N 0.69581(15) 0.2626(3) 0.8381(3)
N4_8 N 0.77430(15) 0.3483(3) 0.8996(3)
H2_8 H 0.5375 0.9916 0.6830
C11_6 C 0.51445(18) 0.8231(4) 0.4635(3)
C12_8 C 0.48217(18) 0.7235(4) 0.4328(3)
C13_8 C 0.4530(2) 0.6873(4) 0.4764(4)
H9_6 H 0.4544 0.7246 0.5281
C14_8 C 0.4220(2) 0.5982(4) 0.4458(4)
H10_8 H 0.4023 0.5737 0.4764
C15_8 C 0.4200(2) 0.5443(4) 0.3694(4)
C16_8 C 0.4492(2) 0.5767(4) 0.3258(4)
H11_8 H 0.4480 0.5382 0.2746
C17_8 C 0.48088(19) 0.6672(4) 0.3578(3)
H12_6 H 0.5014 0.6903 0.3284
C18_6 C 0.3921(2) 0.3854(4) 0.2802(4)
C19_6 C 0.3547(2) 0.3812(5) 0.1938(4)
H13_6 H 0.3263 0.4288 0.1753
C20_6 C 0.3591(2) 0.3063(5) 0.1341(4)
H14_6 H 0.3338 0.3035 0.0741
C21_6 C 0.4002(2) 0.2349(4) 0.1613(4)
C22_6 C 0.4366(2) 0.2405(4) 0.2494(4)
H15_6 H 0.4647 0.1920 0.2691
C23_6 C 0.4327(2) 0.3159(4) 0.3091(4)
H16_6 H 0.4578 0.3193 0.3692
C24_6 C 0.4050(2) 0.1532(4) 0.0975(4)
O2_6 O 0.54478(12) 0.8452(3) 0.4285(2)
O3_6 O 0.38678(16) 0.4575(3) 0.3414(3)
C11_7 C 0.01445(18) 0.6769(4) 0.9635(3)
H12_7 H 0.0014 0.8097 0.8284
O2_7 O 0.04478(12) 0.6548(3) 0.9285(2)
O7_3 O 0.05659(14) 0.4043(3) 0.8766(2)
O8_3 O 0.13007(16) 0.3525(3) 0.9816(3)
C18_7 C 0.1079(2) 0.1146(4) 0.7198(4)
C19_7 C 0.1453(2) 0.1188(5) 0.8062(4)
H13_7 H 0.1737 0.0712 0.8247
C20_7 C 0.1409(2) 0.1937(5) 0.8659(4)
H14_7 H 0.1662 0.1965 0.9259
C21_7 C 0.0998(2) 0.2651(4) 0.8387(4)
C22_7 C 0.0634(2) 0.2595(4) 0.7506(4)
H15_7 H 0.0353 0.3080 0.7309
C23_7 C 0.0673(2) 0.1841(4) 0.6909(4)
H16_7 H 0.0422 0.1807 0.6308
C24_7 C 0.0950(2) 0.3468(4) 0.9025(4)
O3_7 O 0.11322(16) 0.0425(3) 0.6586(3)
H9_7 H 0.9544 0.7754 0.0281
H9_8 H 0.0456 0.2246 0.9719
C11_8 C 0.98555(18) 0.3231(4) 0.0365(3)
H12_8 H 0.9986 0.1903 0.1716
O2_8 O 0.95522(12) 0.3452(3) 0.0715(2)
O7_4 O 0.94341(14) 0.5957(3) 0.1234(2)
O8_4 O 0.86993(16) 0.6475(3) 0.0184(3)
C18_8 C 0.8921(2) 0.8854(4) 0.2802(4)
C19_8 C 0.8547(2) 0.8812(5) 0.1938(4)
H13_8 H 0.8263 0.9288 0.1753
C20_8 C 0.8591(2) 0.8063(5) 0.1341(4)
H14_8 H 0.8338 0.8035 0.0741
C21_8 C 0.9002(2) 0.7349(4) 0.1613(4)
C22_8 C 0.9366(2) 0.7405(4) 0.2494(4)
H15_8 H 0.9647 0.6920 0.2691
C23_8 C 0.9327(2) 0.8159(4) 0.3091(4)
H16_8 H 0.9578 0.8193 0.3692
C24_8 C 0.9050(2) 0.6532(4) 0.0975(4)
O3_8 O 0.88678(16) 0.9575(3) 0.3414(3)
loop_
_geom_bond_atom_site_label_1
_geom_bond_atom_site_label_2
_geom_bond_site_symmetry_1
_geom_bond_site_symmetry_2
C1 H1 1_555 1_555
C2 H2 1_555 1_555
C3 C2 1_555 1_555
H3 C3 1_555 1_555
C4 C8 1_555 1_555
C5 C6 1_555 1_555
C6 H4 1_555 1_555
C7 C6 1_555 1_555
H5 C7 1_555 1_555
C8 C7 1_555 1_555
H6 C8 1_555 1_555
C9 H7 1_555 1_555
C10 H8 1_555 1_555
C25 C9 1_555 1_555
H17 C25 1_555 1_555
Cd1 N1 1_555 1_555
N1 C1 1_555 1_555
N2 C1 1_555 1_555
N3 C4 1_555 1_555
N4 C5 1_555 1_555
N5 C10 1_555 1_555
N6 Cd1 1_555 1_555
C2 N1 1_555 1_555
C3 N2 1_555 1_555
C4 N2 1_555 1_555
C5 N3 1_555 1_555
C9 N4 1_555 1_555
C10 N4 1_555 1_555
C25 N5 1_555 1_555
Cd1 O1 1_555 1_555
C18 C19 1_555 1_555
C19 H13 1_555 1_555
C20 C19 1_555 1_555
H14 C20 1_555 1_555
C21 C20 1_555 1_555
C22 C21 1_555 1_555
H15 C22 1_555 1_555
C23 C18 1_555 1_555
H16 C23 1_555 1_555
C24 C21 1_555 1_555
O4 C24 1_555 1_555
O5 C24 1_555 1_555
Cd2 O4 1_555 1_555
C18 O3 1_555 1_555
C22 C23 1_555 1_555
O5 Cd2 1_555 1_555
C12 C13 1_555 1_555
C14 C13 1_555 1_555
H10 C14 1_555 1_555
C15 C14 1_555 1_555
C16 C15 1_555 1_555
H11 C16 1_555 1_555
C17 C12 1_555 1_555
C16 C17 1_555 1_555
Cd4 O6 1_555 1_555
C12_2 C13_2 1_555 1_555
C13_2 H9 1_555 1_555
C14_2 C13_2 1_555 1_555
H10_2 C14_2 1_555 1_555
C15_2 C14_2 1_555 1_555
C16_2 C15_2 1_555 1_555
H11_2 C16_2 1_555 1_555
C17_2 C12_2 1_555 1_555
C16_2 C17_2 1_555 1_555
Cd4_2 O6_2 1_555 1_555
C1_2 H1_2 1_555 1_555
C2_2 H2_2 1_555 1_555
C3_2 C2_2 1_555 1_555
H3_2 C3_2 1_555 1_555
C4_2 C8_2 1_555 1_555
C5_2 C6_2 1_555 1_555
C6_2 H4_2 1_555 1_555
C7_2 C6_2 1_555 1_555
H5_2 C7_2 1_555 1_555
C8_2 C7_2 1_555 1_555
H6_2 C8_2 1_555 1_555
C9_2 H7_2 1_555 1_555
C10_2 H8_2 1_555 1_555
C25_2 C9_2 1_555 1_555
H17_2 C25_2 1_555 1_555
Cd2 N1_2 1_555 1_555
N1_2 C1_2 1_555 1_555
N2_2 C1_2 1_555 1_555
N3_2 C4_2 1_555 1_555
N4_2 C5_2 1_555 1_555
N5_2 C10_2 1_555 1_555
O1_2 C11 1_555 1_555
O2 C11 1_555 1_555
N6_2 Cd2 1_555 1_555
C2_2 N1_2 1_555 1_555
C3_2 N2_2 1_555 1_555
C4_2 N2_2 1_555 1_555
C5_2 N3_2 1_555 1_555
C9_2 N4_2 1_555 1_555
C10_2 N4_2 1_555 1_555
C25_2 N5_2 1_555 1_555
Cd2 O1_2 1_555 1_555
Cd2 O2 1_555 1_555
C11_2 C12_3 1_555 1_555
C12_3 C13_3 1_555 1_555
C14_3 C13_3 1_555 1_555
H10_3 C14_3 1_555 1_555
C15_3 C14_3 1_555 1_555
C16_3 C15_3 1_555 1_555
H11_3 C16_3 1_555 1_555
C17_3 C12_3 1_555 1_555
H12_2 C17_3 1_555 1_555
C18_2 C19_2 1_555 1_555
C19_2 H13_2 1_555 1_555
C20_2 C19_2 1_555 1_555
H14_2 C20_2 1_555 1_555
C21_2 C20_2 1_555 1_555
C22_2 C21_2 1_555 1_555
H15_2 C22_2 1_555 1_555
C23_2 C18_2 1_555 1_555
H16_2 C23_2 1_555 1_555
C24_2 C21_2 1_555 1_555
O2_2 C11_2 1_555 1_555
O3_2 C15_3 1_555 1_555
O4_2 C24_2 1_555 1_555
O5_2 C24_2 1_555 1_555
Cd3 O4_2 1_555 1_555
C16_3 C17_3 1_555 1_555
C18_2 O3_2 1_555 1_555
C22_2 C23_2 1_555 1_555
O5_2 Cd3 1_555 1_555
C1_3 H1_3 1_555 1_555
C3_3 C2_3 1_555 1_555
H3_3 C3_3 1_555 1_555
C4_3 C8_3 1_555 1_555
C5_3 C6_3 1_555 1_555
C6_3 H4_3 1_555 1_555
C7_3 C6_3 1_555 1_555
H5_3 C7_3 1_555 1_555
C8_3 C7_3 1_555 1_555
H6_3 C8_3 1_555 1_555
C9_3 H7_3 1_555 1_555
C10_3 H8_3 1_555 1_555
C25_3 C9_3 1_555 1_555
H17_3 C25_3 1_555 1_555
Cd3_2 N1_3 1_555 1_555
N1_3 C1_3 1_555 1_555
N2_3 C1_3 1_555 1_555
N3_3 C4_3 1_555 1_555
N4_3 C5_3 1_555 1_555
N6_2 C10_3 1_555 1_555
C2_3 N1_3 1_555 1_555
C3_3 N2_3 1_555 1_555
C4_3 N2_3 1_555 1_555
C5_3 N3_3 1_555 1_555
C9_3 N4_3 1_555 1_555
C10_3 N4_3 1_555 1_555
C25_3 N6_2 1_555 1_555
C11_3 C12_4 1_555 1_555
C12_4 C13_4 1_555 1_555
C13_4 H9_3 1_555 1_555
C14_4 C13_4 1_555 1_555
H10_4 C14_4 1_555 1_555
C15_4 C14_4 1_555 1_555
C16_4 C15_4 1_555 1_555
H11_4 C16_4 1_555 1_555
C17_4 C12_4 1_555 1_555
H12_3 C17_4 1_555 1_555
C18_3 C19_3 1_555 1_555
C19_3 H13_3 1_555 1_555
C20_3 C19_3 1_555 1_555
H14_3 C20_3 1_555 1_555
C21_3 C20_3 1_555 1_555
C22_3 C21_3 1_555 1_555
H15_3 C22_3 1_555 1_555
C23_3 C18_3 1_555 1_555
H16_3 C23_3 1_555 1_555
C24_3 C21_3 1_555 1_555
O1_4 C11_3 1_555 1_555
O2_3 C11_3 1_555 1_555
O3_3 C15_4 1_555 1_555
O7 C24_3 1_555 1_555
O8 C24_3 1_555 1_555
Cd4_4 O1_4 1_555 1_555
C16_4 C17_4 1_555 1_555
C18_3 O3_3 1_555 1_555
C22_3 C23_3 1_555 1_555
C1_4 H1_4 1_555 1_555
C3_4 C2_4 1_555 1_555
H3_4 C3_4 1_555 1_555
C4_4 C8_4 1_555 1_555
C5_4 C6_4 1_555 1_555
C6_4 H4_4 1_555 1_555
C7_4 C6_4 1_555 1_555
H5_4 C7_4 1_555 1_555
C8_4 C7_4 1_555 1_555
H6_4 C8_4 1_555 1_555
C9_4 H7_4 1_555 1_555
C10_4 H8_4 1_555 1_555
C25_4 C9_4 1_555 1_555
H17_4 C25_4 1_555 1_555
Cd3 N1_4 1_555 1_555
N1_4 C1_4 1_555 1_555
N2_4 C1_4 1_555 1_555
N3_4 C4_4 1_555 1_555
N4_4 C5_4 1_555 1_555
N6 C10_4 1_555 1_555
O6_4 Cd3 1_555 1_555
C2_4 N1_4 1_555 1_555
C3_4 N2_4 1_555 1_555
C4_4 N2_4 1_555 1_555
C5_4 N3_4 1_555 1_555
C9_4 N4_4 1_555 1_555
C10_4 N4_4 1_555 1_555
C25_4 N6 1_555 1_555
C12_5 C13_5 1_555 1_555
C14_5 C13_5 1_555 1_555
H10_5 C14_5 1_555 1_555
C15_5 C14_5 1_555 1_555
C16_5 C15_5 1_555 1_555
H11_5 C16_5 1_555 1_555
C17_5 C12_5 1_555 1_555
C16_5 C17_5 1_555 1_555
C18_4 C19_4 1_555 1_555
C19_4 H13_4 1_555 1_555
C20_4 C19_4 1_555 1_555
H14_4 C20_4 1_555 1_555
C21_4 C20_4 1_555 1_555
C22_4 C21_4 1_555 1_555
H15_4 C22_4 1_555 1_555
C23_4 C18_4 1_555 1_555
H16_4 C23_4 1_555 1_555
C24_4 C21_4 1_555 1_555
O4_3 C24_4 1_555 1_555
O5_3 C24_4 1_555 1_555
Cd4_2 O4_3 1_555 1_555
C18_4 O3_4 1_555 1_555
C22_4 C23_4 1_555 1_555
O5_3 Cd4_2 1_555 1_555
C1_5 H1_5 1_555 1_555
C2_5 H2_5 1_555 1_555
C3_5 C2_5 1_555 1_555
H3_5 C3_5 1_555 1_555
C4_5 C8_5 1_555 1_555
C5_5 C6_5 1_555 1_555
C6_5 H4_5 1_555 1_555
C7_5 C6_5 1_555 1_555
H5_5 C7_5 1_555 1_555
C8_5 C7_5 1_555 1_555
H6_5 C8_5 1_555 1_555
C9_5 H7_5 1_555 1_555
C10_5 H8_5 1_555 1_555
C25_5 C9_5 1_555 1_555
H17_5 C25_5 1_555 1_555
Cd4 N1_5 1_555 1_555
N1_5 C1_5 1_555 1_555
N2_5 C1_5 1_555 1_555
N3_5 C4_5 1_555 1_555
N4_5 C5_5 1_555 1_555
N5_3 C10_5 1_555 1_555
N6_3 Cd4 1_555 1_555
C2_5 N1_5 1_555 1_555
C3_5 N2_5 1_555 1_555
C4_5 N2_5 1_555 1_555
C5_5 N3_5 1_555 1_555
C9_5 N4_5 1_555 1_555
C10_5 N4_5 1_555 1_555
C25_5 N5_3 1_555 1_555
C1_6 H1_6 1_555 1_555
C2_6 H2_6 1_555 1_555
C3_6 C2_6 1_555 1_555
H3_6 C3_6 1_555 1_555
C4_6 C8_6 1_555 1_555
C5_6 C6_6 1_555 1_555
C6_6 H4_6 1_555 1_555
C7_6 C6_6 1_555 1_555
H5_6 C7_6 1_555 1_555
C8_6 C7_6 1_555 1_555
H6_6 C8_6 1_555 1_555
C9_6 H7_6 1_555 1_555
C10_6 H8_6 1_555 1_555
C25_6 C9_6 1_555 1_555
H17_6 C25_6 1_555 1_555
Cd4_2 N1_6 1_555 1_555
N1_6 C1_6 1_555 1_555
N2_6 C1_6 1_555 1_555
N3_6 C4_6 1_555 1_555
N4_6 C5_6 1_555 1_555
N5_4 C10_6 1_555 1_555
O6_2 C11_4 1_555 1_555
O2_4 C11_4 1_555 1_555
N6_4 Cd4_2 1_555 1_555
C2_6 N1_6 1_555 1_555
C3_6 N2_6 1_555 1_555
C4_6 N2_6 1_555 1_555
C5_6 N3_6 1_555 1_555
C9_6 N4_6 1_555 1_555
C10_6 N4_6 1_555 1_555
C25_6 N5_4 1_555 1_555
Cd4_2 O2_4 1_555 1_555
C12_6 C13_6 1_555 1_555
C13_6 H9_4 1_555 1_555
C14_6 C13_6 1_555 1_555
H10_6 C14_6 1_555 1_555
C15_6 C14_6 1_555 1_555
C16_6 C15_6 1_555 1_555
H11_6 C16_6 1_555 1_555
C17_6 C12_6 1_555 1_555
C16_6 C17_6 1_555 1_555
C1_7 H1_7 1_555 1_555
C3_7 C2_7 1_555 1_555
H3_7 C3_7 1_555 1_555
C4_7 C8_7 1_555 1_555
C5_7 C6_7 1_555 1_555
C6_7 H4_7 1_555 1_555
C7_7 C6_7 1_555 1_555
H5_7 C7_7 1_555 1_555
C8_7 C7_7 1_555 1_555
H6_7 C8_7 1_555 1_555
C9_7 H7_7 1_555 1_555
C10_7 H8_7 1_555 1_555
C25_7 C9_7 1_555 1_555
H17_7 C25_7 1_555 1_555
Cd4_3 N1_7 1_555 1_555
N1_7 C1_7 1_555 1_555
N2_7 C1_7 1_555 1_555
N3_7 C4_7 1_555 1_555
N4_7 C5_7 1_555 1_555
N6_4 C10_7 1_555 1_555
C2_7 N1_7 1_555 1_555
C3_7 N2_7 1_555 1_555
C4_7 N2_7 1_555 1_555
C5_7 N3_7 1_555 1_555
C9_7 N4_7 1_555 1_555
C10_7 N4_7 1_555 1_555
C25_7 N6_4 1_555 1_555
C11_5 C12_7 1_555 1_555
C12_7 C13_7 1_555 1_555
C14_7 C13_7 1_555 1_555
H10_7 C14_7 1_555 1_555
C15_7 C14_7 1_555 1_555
C16_7 C15_7 1_555 1_555
H11_7 C16_7 1_555 1_555
C17_7 C12_7 1_555 1_555
H12_5 C17_7 1_555 1_555
C18_5 C19_5 1_555 1_555
C19_5 H13_5 1_555 1_555
C20_5 C19_5 1_555 1_555
H14_5 C20_5 1_555 1_555
C21_5 C20_5 1_555 1_555
C22_5 C21_5 1_555 1_555
H15_5 C22_5 1_555 1_555
C23_5 C18_5 1_555 1_555
H16_5 C23_5 1_555 1_555
C24_5 C21_5 1_555 1_555
O2_5 C11_5 1_555 1_555
O3_5 C15_7 1_555 1_555
O4_4 C24_5 1_555 1_555
O5_4 C24_5 1_555 1_555
Cd4_4 O4_4 1_555 1_555
C16_7 C17_7 1_555 1_555
C18_5 O3_5 1_555 1_555
C22_5 C23_5 1_555 1_555
O5_4 Cd4_4 1_555 1_555
C1_8 H1_8 1_555 1_555
C3_8 C2_8 1_555 1_555
H3_8 C3_8 1_555 1_555
C4_8 C8_8 1_555 1_555
C5_8 C6_8 1_555 1_555
C6_8 H4_8 1_555 1_555
C7_8 C6_8 1_555 1_555
H5_8 C7_8 1_555 1_555
C8_8 C7_8 1_555 1_555
H6_8 C8_8 1_555 1_555
C9_8 H7_8 1_555 1_555
C10_8 H8_8 1_555 1_555
C25_8 C9_8 1_555 1_555
H17_8 C25_8 1_555 1_555
Cd4_4 N1_8 1_555 1_555
N1_8 C1_8 1_555 1_555
N2_8 C1_8 1_555 1_555
N3_8 C4_8 1_555 1_555
N4_8 C5_8 1_555 1_555
N6_3 C10_8 1_555 1_555
C2_8 N1_8 1_555 1_555
C3_8 N2_8 1_555 1_555
C4_8 N2_8 1_555 1_555
C5_8 N3_8 1_555 1_555
C9_8 N4_8 1_555 1_555
C10_8 N4_8 1_555 1_555
C25_8 N6_3 1_555 1_555
C11_6 C12_8 1_555 1_555
C12_8 C13_8 1_555 1_555
C13_8 H9_6 1_555 1_555
C14_8 C13_8 1_555 1_555
H10_8 C14_8 1_555 1_555
C15_8 C14_8 1_555 1_555
C16_8 C15_8 1_555 1_555
H11_8 C16_8 1_555 1_555
C17_8 C12_8 1_555 1_555
H12_6 C17_8 1_555 1_555
C18_6 C19_6 1_555 1_555
C19_6 H13_6 1_555 1_555
C20_6 C19_6 1_555 1_555
H14_6 C20_6 1_555 1_555
C21_6 C20_6 1_555 1_555
C22_6 C21_6 1_555 1_555
H15_6 C22_6 1_555 1_555
C23_6 C18_6 1_555 1_555
H16_6 C23_6 1_555 1_555
C24_6 C21_6 1_555 1_555
O6_4 C11_6 1_555 1_555
O2_6 C11_6 1_555 1_555
O3_6 C15_8 1_555 1_555
O7_2 C24_6 1_555 1_555
O8_2 C24_6 1_555 1_555
C16_8 C17_8 1_555 1_555
C18_6 O3_6 1_555 1_555
C22_6 C23_6 1_555 1_555
O2_7 C11_7 1_555 1_555
C18_7 C19_7 1_555 1_555
C19_7 H13_7 1_555 1_555
C20_7 C19_7 1_555 1_555
H14_7 C20_7 1_555 1_555
C21_7 C20_7 1_555 1_555
C22_7 C21_7 1_555 1_555
H15_7 C22_7 1_555 1_555
C23_7 C18_7 1_555 1_555
H16_7 C23_7 1_555 1_555
C24_7 C21_7 1_555 1_555
O7_3 C24_7 1_555 1_555
O8_3 C24_7 1_555 1_555
C18_7 O3_7 1_555 1_555
C22_7 C23_7 1_555 1_555
O2_8 C11_8 1_555 1_555
C18_8 C19_8 1_555 1_555
C19_8 H13_8 1_555 1_555
C20_8 C19_8 1_555 1_555
H14_8 C20_8 1_555 1_555
C21_8 C20_8 1_555 1_555
C22_8 C21_8 1_555 1_555
H15_8 C22_8 1_555 1_555
C23_8 C18_8 1_555 1_555
H16_8 C23_8 1_555 1_555
C24_8 C21_8 1_555 1_555
O7_4 C24_8 1_555 1_555
O8_4 C24_8 1_555 1_555
C18_8 O3_8 1_555 1_555
C22_8 C23_8 1_555 1_555

#END
