
###############################################################################
#
# This file contains modified crystal structure data generated from the
# MOF subset of the Cambridge Structural Database (CSD) v543 
# hosted by the Cambridge Crystallographic Data Centre (CCDC).
#
# This work is licensed under the Creative Commons
# Attribution-NonCommercial-ShareAlike 4.0 International License.
# To view a copy of this license, visit
# http://creativecommons.org/licenses/by-nc-sa/4.0/
# or send a letter to
# Creative Commons, PO Box 1866, Mountain View, CA 94042, USA.
#
# CIF created using the CSD Python API on 29 September 2022
# The structure has been converted into the P1 space group
# The structure has a 3D framework
# The original CSD entry ATOBIW is in the monoclinic crystal system
# The framework has been calculated to contain at least 10.0% void space
# The void calculation uses a probe of radius 1.32A, grid spacing 0.4
#
###############################################################################

data_ATOBIW
_chemical_formula_moiety         '(C200 H136 N40 O40 Zn8)n'
_symmetry_cell_setting           triclinic
_symmetry_space_group_name_H-M   'P 1'
_symmetry_Int_Tables_number      1
_space_group_name_Hall           'P 1'
loop_
_symmetry_equiv_pos_site_id
_symmetry_equiv_pos_as_xyz
1 x,y,z
_cell_length_a                   26.932(5)
_cell_length_b                   10.850(5)
_cell_length_c                   21.795(5)
_cell_angle_alpha                90
_cell_angle_beta                 92.825(5)
_cell_angle_gamma                90
_cell_volume                     6361.03
loop_
_atom_site_label
_atom_site_type_symbol
_atom_site_fract_x
_atom_site_fract_y
_atom_site_fract_z
C12 C 0.32723(10) 0.0863(2) 0.18599(11)
C13 C 0.37862(10) 0.0985(2) 0.16341(12)
C14 C 0.41273(10) 0.0046(2) 0.17427(12)
C15 C 0.45944(10) 0.0089(3) 0.15038(12)
C16 C 0.47137(10) 0.1091(3) 0.11535(13)
C17 C 0.43839(10) 0.2043(3) 0.10504(13)
H12 H 0.4473 0.2720 0.0818
C18 C 0.39220(10) 0.1995(3) 0.12905(13)
H13 H 0.3700 0.2642 0.1222
C19 C 0.55240(10) 0.0283(3) 0.09804(13)
C24 C 0.57926(10) 0.0271(3) 0.15393(12)
H17 H 0.5721 0.0828 0.1847
O2 O 0.29727(7) 0.17604(16) 0.17561(8)
O3 O 0.51604(7) 0.1186(2) 0.08659(10)
Zn1 Zn 0.232087(11) 0.11549(3) 0.198161(12)
N6 N 0.22417(8) 0.09942(19) 0.28927(9)
O6 O 0.18448(6) 0.25072(15) 0.18174(8)
C1 C 0.20444(10) 0.9319(2) 0.10093(11)
H1 H 0.2138 0.9849 0.0701
C2 C 0.18856(10) 0.8569(2) 0.18928(12)
H2 H 0.1854 0.8501 0.2315
C3 C 0.17720(11) 0.7681(3) 0.14800(12)
H3 H 0.1647 0.6901 0.1559
C4 C 0.18150(10) 0.7567(2) 0.03309(11)
C5 C 0.16267(12) 0.6395(2) 0.02857(12)
H4 H 0.1533 0.5960 0.0629
H10 H 0.4041 0.9374 0.1980
H11 H 0.4822 0.9456 0.1579
C20 C 0.56230(10) 0.9474(3) 0.05165(13)
H14 H 0.5433 0.9489 0.0148
C21 C 0.60061(10) 0.8642(2) 0.06036(12)
H15 H 0.6081 0.8108 0.0287
C22 C 0.62830(9) 0.8591(2) 0.11615(12)
C23 C 0.61715(9) 0.9412(2) 0.16303(12)
H16 H 0.6352 0.9382 0.2005
C25 C 0.66927(10) 0.7679(2) 0.12612(12)
N1 N 0.20558(8) 0.95954(19) 0.15955(9)
N2 N 0.18778(8) 0.81578(19) 0.09156(9)
O1 O 0.31468(6) 0.98942(16) 0.21117(8)
O4 O 0.68448(6) 0.75072(15) 0.18174(8)
O5 O 0.68665(8) 0.71352(19) 0.08178(8)
Zn2 Zn 0.732087(11) 0.61549(3) 0.198161(12)
C19_2 C 0.05240(10) 0.5283(3) 0.09804(13)
C20_2 C 0.06230(10) 0.4474(3) 0.05165(13)
H14_2 H 0.0433 0.4489 0.0148
C21_2 C 0.10061(10) 0.3642(2) 0.06036(12)
H15_2 H 0.1081 0.3108 0.0287
C22_2 C 0.12830(9) 0.3591(2) 0.11615(12)
C23_2 C 0.11715(9) 0.4412(2) 0.16303(12)
H16_2 H 0.1352 0.4382 0.2005
C24_2 C 0.07926(10) 0.5271(3) 0.15393(12)
H17_2 H 0.0721 0.5828 0.1847
C25_2 C 0.16927(10) 0.2679(2) 0.12612(12)
O3_2 O 0.01604(7) 0.6186(2) 0.08659(10)
O5_2 O 0.18665(8) 0.21352(19) 0.08178(8)
C1_2 C 0.70444(10) 0.4319(2) 0.10093(11)
H1_2 H 0.7138 0.4849 0.0701
C2_2 C 0.68856(10) 0.3569(2) 0.18928(12)
H2_2 H 0.6854 0.3501 0.2315
C3_2 C 0.67720(11) 0.2681(3) 0.14800(12)
H3_2 H 0.6647 0.1901 0.1559
C4_2 C 0.68150(10) 0.2567(2) 0.03309(11)
C5_2 C 0.66267(12) 0.1395(2) 0.02857(12)
H4_2 H 0.6533 0.0960 0.0629
C12_2 C 0.82723(10) 0.5863(2) 0.18599(11)
C13_2 C 0.87862(10) 0.5985(2) 0.16341(12)
C14_2 C 0.91273(10) 0.5046(2) 0.17427(12)
H10_2 H 0.9041 0.4374 0.1980
C15_2 C 0.95944(10) 0.5089(3) 0.15038(12)
H11_2 H 0.9822 0.4456 0.1579
C16_2 C 0.97137(10) 0.6091(3) 0.11535(13)
C17_2 C 0.93839(10) 0.7043(3) 0.10504(13)
H12_2 H 0.9473 0.7720 0.0818
C18_2 C 0.89220(10) 0.6995(3) 0.12905(13)
H13_2 H 0.8700 0.7642 0.1222
N1_2 N 0.70558(8) 0.45954(19) 0.15955(9)
N2_2 N 0.68778(8) 0.31578(19) 0.09156(9)
O1_2 O 0.81468(6) 0.48942(16) 0.21117(8)
O2_2 O 0.79727(7) 0.67604(16) 0.17561(8)
N6_2 N 0.72417(8) 0.59942(19) 0.28927(9)
C6 C 0.65830(13) 0.0894(3) 0.97050(13)
H5 H 0.6458 0.0100 0.9651
C7 C 0.67222(12) 0.1559(3) 0.92027(12)
H6 H 0.6695 0.1235 0.8808
C8 C 0.69047(10) 0.2734(2) 0.93159(11)
C9 C 0.70498(9) 0.3147(2) 0.82209(11)
H7 H 0.6918 0.2413 0.8064
C10 C 0.72837(10) 0.4616(2) 0.88657(12)
H8 H 0.7343 0.5078 0.9221
C11 C 0.73917(10) 0.4938(2) 0.82934(11)
H9 H 0.7543 0.5670 0.8183
N3 N 0.69573(8) 0.32442(19) 0.98642(9)
N4 N 0.70668(8) 0.34630(19) 0.88234(9)
N5 N 0.72417(8) 0.40058(19) 0.78927(9)
Zn3 Zn 0.732087(11) 0.38451(3) 0.698161(12)
C1_3 C 0.20444(10) 0.0681(2) 0.60093(11)
H1_3 H 0.2138 0.0151 0.5701
C2_3 C 0.18856(10) 0.1431(2) 0.68928(12)
H2_3 H 0.1854 0.1499 0.7315
C3_3 C 0.17720(11) 0.2319(3) 0.64800(12)
H3_3 H 0.1647 0.3099 0.6559
C4_3 C 0.18150(10) 0.2433(2) 0.53309(11)
C5_3 C 0.16267(12) 0.3605(2) 0.52857(12)
H4_3 H 0.1533 0.4040 0.5629
C6_2 C 0.15830(13) 0.4106(3) 0.47050(13)
H5_2 H 0.1458 0.4900 0.4651
C7_2 C 0.17222(12) 0.3441(3) 0.42027(12)
H6_2 H 0.1695 0.3765 0.3808
C8_2 C 0.19047(10) 0.2266(2) 0.43159(11)
C9_2 C 0.20498(9) 0.1853(2) 0.32209(11)
H7_2 H 0.1918 0.2587 0.3064
C10_2 C 0.22837(10) 0.0384(2) 0.38657(12)
C11_2 C 0.23917(10) 0.0062(2) 0.32934(11)
H10_3 H 0.4041 0.0626 0.6980
H11_3 H 0.4822 0.0544 0.6579
C20_3 C 0.56230(10) 0.0526(3) 0.55165(13)
H14_3 H 0.5433 0.0511 0.5148
C21_3 C 0.60061(10) 0.1358(2) 0.56036(12)
H15_3 H 0.6081 0.1892 0.5287
C22_3 C 0.62830(9) 0.1409(2) 0.61615(12)
C23_3 C 0.61715(9) 0.0588(2) 0.66303(12)
H16_3 H 0.6352 0.0618 0.7005
C25_3 C 0.66927(10) 0.2321(2) 0.62612(12)
N1_3 N 0.20558(8) 0.04046(19) 0.65955(9)
N2_3 N 0.18778(8) 0.18422(19) 0.59156(9)
N3_2 N 0.19573(8) 0.17558(19) 0.48642(9)
N4_2 N 0.20668(8) 0.15370(19) 0.38234(9)
O1_3 O 0.31468(6) 0.01058(16) 0.71117(8)
O4_2 O 0.68448(6) 0.24928(15) 0.68174(8)
O5_3 O 0.68665(8) 0.28648(19) 0.58178(8)
C1_4 C 0.70444(10) 0.5681(2) 0.60093(11)
H1_4 H 0.7138 0.5151 0.5701
C2_4 C 0.68856(10) 0.6431(2) 0.68928(12)
H2_4 H 0.6854 0.6499 0.7315
C3_4 C 0.67720(11) 0.7319(3) 0.64800(12)
H3_4 H 0.6647 0.8099 0.6559
C4_4 C 0.68150(10) 0.7433(2) 0.53309(11)
C5_4 C 0.66267(12) 0.8605(2) 0.52857(12)
H4_4 H 0.6533 0.9040 0.5629
C6_3 C 0.65830(13) 0.9106(3) 0.47050(13)
H5_3 H 0.6458 0.9900 0.4651
C7_3 C 0.67222(12) 0.8441(3) 0.42027(12)
H6_3 H 0.6695 0.8765 0.3808
C8_3 C 0.69047(10) 0.7266(2) 0.43159(11)
C9_3 C 0.70498(9) 0.6853(2) 0.32209(11)
H7_3 H 0.6918 0.7587 0.3064
C10_3 C 0.72837(10) 0.5384(2) 0.38657(12)
H8_2 H 0.7343 0.4922 0.4221
C11_3 C 0.73917(10) 0.5062(2) 0.32934(11)
H9_2 H 0.7543 0.4330 0.3183
C12_3 C 0.82723(10) 0.4137(2) 0.68599(11)
C13_3 C 0.87862(10) 0.4015(2) 0.66341(12)
C14_3 C 0.91273(10) 0.4954(2) 0.67427(12)
H10_4 H 0.9041 0.5626 0.6980
C15_3 C 0.95944(10) 0.4911(3) 0.65038(12)
H11_4 H 0.9822 0.5544 0.6579
C16_3 C 0.97137(10) 0.3909(3) 0.61535(13)
C17_3 C 0.93839(10) 0.2957(3) 0.60504(13)
H12_3 H 0.9473 0.2280 0.5818
C18_3 C 0.89220(10) 0.3005(3) 0.62905(13)
H13_3 H 0.8700 0.2358 0.6222
N1_4 N 0.70558(8) 0.54046(19) 0.65955(9)
N2_4 N 0.68778(8) 0.68422(19) 0.59156(9)
N3_3 N 0.69573(8) 0.67558(19) 0.48642(9)
N4_3 N 0.70668(8) 0.65370(19) 0.38234(9)
O1_4 O 0.81468(6) 0.51058(16) 0.71117(8)
O2_3 O 0.79727(7) 0.32396(16) 0.67561(8)
H8_3 H 0.2343 0.0078 0.9221
H9_3 H 0.2543 0.0670 0.8183
C6_4 C 0.15830(13) 0.5894(3) 0.97050(13)
H5_4 H 0.1458 0.5100 0.9651
C7_4 C 0.17222(12) 0.6559(3) 0.92027(12)
H6_4 H 0.1695 0.6235 0.8808
C8_4 C 0.19047(10) 0.7734(2) 0.93159(11)
C9_4 C 0.20498(9) 0.8147(2) 0.82209(11)
H7_4 H 0.1918 0.7413 0.8064
C10_4 C 0.22837(10) 0.9616(2) 0.88657(12)
C11_4 C 0.23917(10) 0.9938(2) 0.82934(11)
N3_4 N 0.19573(8) 0.82442(19) 0.98642(9)
N4_4 N 0.20668(8) 0.84630(19) 0.88234(9)
N5_2 N 0.22417(8) 0.90058(19) 0.78927(9)
Zn3_2 Zn 0.232087(11) 0.88451(3) 0.698161(12)
H8_4 H 0.2343 0.9922 0.4221
H9_4 H 0.2543 0.9330 0.3183
C12_4 C 0.32723(10) 0.9137(2) 0.68599(11)
C13_4 C 0.37862(10) 0.9015(2) 0.66341(12)
C14_4 C 0.41273(10) 0.9954(2) 0.67427(12)
C15_4 C 0.45944(10) 0.9911(3) 0.65038(12)
C16_4 C 0.47137(10) 0.8909(3) 0.61535(13)
C17_4 C 0.43839(10) 0.7957(3) 0.60504(13)
H12_4 H 0.4473 0.7280 0.5818
C18_4 C 0.39220(10) 0.8005(3) 0.62905(13)
H13_4 H 0.3700 0.7358 0.6222
C19_3 C 0.55240(10) 0.9717(3) 0.59804(13)
C24_3 C 0.57926(10) 0.9729(3) 0.65393(12)
H17_3 H 0.5721 0.9172 0.6847
O2_4 O 0.29727(7) 0.82396(16) 0.67561(8)
O3_3 O 0.51604(7) 0.8814(2) 0.58659(10)
O6_2 O 0.18448(6) 0.74928(15) 0.68174(8)
C19_4 C 0.05240(10) 0.4717(3) 0.59804(13)
C20_4 C 0.06230(10) 0.5526(3) 0.55165(13)
H14_4 H 0.0433 0.5511 0.5148
C21_4 C 0.10061(10) 0.6358(2) 0.56036(12)
H15_4 H 0.1081 0.6892 0.5287
C22_4 C 0.12830(9) 0.6409(2) 0.61615(12)
C23_4 C 0.11715(9) 0.5588(2) 0.66303(12)
H16_4 H 0.1352 0.5618 0.7005
C24_4 C 0.07926(10) 0.4729(3) 0.65393(12)
H17_4 H 0.0721 0.4172 0.6847
C25_4 C 0.16927(10) 0.7321(2) 0.62612(12)
O3_4 O 0.01604(7) 0.3814(2) 0.58659(10)
O5_4 O 0.18665(8) 0.78648(19) 0.58178(8)
H8_5 H 0.7657 0.0078 0.5779
H9_5 H 0.7457 0.0670 0.6817
C12_5 C 0.67277(10) 0.0863(2) 0.31401(11)
C13_5 C 0.62138(10) 0.0985(2) 0.33659(12)
C14_5 C 0.58727(10) 0.0046(2) 0.32573(12)
C15_5 C 0.54056(10) 0.0089(3) 0.34962(12)
C16_5 C 0.52863(10) 0.1091(3) 0.38465(13)
C17_5 C 0.56161(10) 0.2043(3) 0.39496(13)
H12_5 H 0.5527 0.2720 0.4182
C18_5 C 0.60780(10) 0.1995(3) 0.37095(13)
H13_5 H 0.6300 0.2642 0.3778
C19_5 C 0.44760(10) 0.0283(3) 0.40196(13)
C24_5 C 0.42074(10) 0.0271(3) 0.34607(12)
H17_5 H 0.4279 0.0828 0.3153
O2_5 O 0.70273(7) 0.17604(16) 0.32439(8)
O3_5 O 0.48396(7) 0.1186(2) 0.41341(10)
Zn1_2 Zn 0.767913(11) 0.11549(3) 0.301839(12)
N6_3 N 0.77583(8) 0.09942(19) 0.21073(9)
O6_3 O 0.81552(6) 0.25072(15) 0.31826(8)
C19_6 C 0.94760(10) 0.5283(3) 0.40196(13)
C20_5 C 0.93770(10) 0.4474(3) 0.44835(13)
H14_5 H 0.9567 0.4489 0.4852
C21_5 C 0.89939(10) 0.3642(2) 0.43964(12)
H15_5 H 0.8919 0.3108 0.4713
C22_5 C 0.87170(9) 0.3591(2) 0.38385(12)
C23_5 C 0.88285(9) 0.4412(2) 0.33697(12)
H16_5 H 0.8648 0.4382 0.2995
C24_6 C 0.92074(10) 0.5271(3) 0.34607(12)
H17_6 H 0.9279 0.5828 0.3153
C25_5 C 0.83073(10) 0.2679(2) 0.37388(12)
O3_6 O 0.98396(7) 0.6186(2) 0.41341(10)
O5_5 O 0.81335(8) 0.21352(19) 0.41822(8)
C6_5 C 0.84170(13) 0.4106(3) 0.02950(13)
H5_5 H 0.8542 0.4900 0.0349
C7_5 C 0.82778(12) 0.3441(3) 0.07973(12)
H6_5 H 0.8305 0.3765 0.1192
C8_5 C 0.80953(10) 0.2266(2) 0.06841(11)
C9_5 C 0.79502(9) 0.1853(2) 0.17791(11)
H7_5 H 0.8082 0.2587 0.1936
C10_5 C 0.77163(10) 0.0384(2) 0.11343(12)
C11_5 C 0.76083(10) 0.0062(2) 0.17066(11)
N3_5 N 0.80427(8) 0.17558(19) 0.01358(9)
N4_5 N 0.79332(8) 0.15370(19) 0.11766(9)
C1_5 C 0.79556(10) 0.9319(2) 0.39907(11)
H1_5 H 0.7862 0.9849 0.4299
C2_5 C 0.81144(10) 0.8569(2) 0.31072(12)
H2_5 H 0.8146 0.8501 0.2685
C3_5 C 0.82280(11) 0.7681(3) 0.35200(12)
H3_5 H 0.8353 0.6901 0.3441
C4_5 C 0.81850(10) 0.7567(2) 0.46691(11)
C5_5 C 0.83733(12) 0.6395(2) 0.47143(12)
H4_5 H 0.8467 0.5960 0.4371
C6_6 C 0.84170(13) 0.5894(3) 0.52950(13)
H5_6 H 0.8542 0.5100 0.5349
C7_6 C 0.82778(12) 0.6559(3) 0.57973(12)
H6_6 H 0.8305 0.6235 0.6192
C8_6 C 0.80953(10) 0.7734(2) 0.56841(11)
C9_6 C 0.79502(9) 0.8147(2) 0.67791(11)
H7_6 H 0.8082 0.7413 0.6936
C10_6 C 0.77163(10) 0.9616(2) 0.61343(12)
C11_6 C 0.76083(10) 0.9938(2) 0.67066(11)
H10_5 H 0.5959 0.9374 0.3020
H11_5 H 0.5178 0.9456 0.3421
C20_6 C 0.43770(10) 0.9474(3) 0.44835(13)
H14_6 H 0.4567 0.9489 0.4852
C21_6 C 0.39939(10) 0.8642(2) 0.43964(12)
H15_6 H 0.3919 0.8108 0.4713
C22_6 C 0.37170(9) 0.8591(2) 0.38385(12)
C23_6 C 0.38285(9) 0.9412(2) 0.33697(12)
H16_6 H 0.3648 0.9382 0.2995
C25_6 C 0.33073(10) 0.7679(2) 0.37388(12)
N1_5 N 0.79442(8) 0.95954(19) 0.34045(9)
N2_5 N 0.81222(8) 0.81578(19) 0.40844(9)
N3_6 N 0.80427(8) 0.82442(19) 0.51358(9)
N4_6 N 0.79332(8) 0.84630(19) 0.61766(9)
N5_3 N 0.77583(8) 0.90058(19) 0.71073(9)
O1_5 O 0.68532(6) 0.98942(16) 0.28883(8)
O4_3 O 0.31552(6) 0.75072(15) 0.31826(8)
O5_6 O 0.31335(8) 0.71352(19) 0.41822(8)
Zn2_2 Zn 0.267913(11) 0.61549(3) 0.301839(12)
Zn3_3 Zn 0.767913(11) 0.88451(3) 0.801839(12)
C1_6 C 0.29556(10) 0.4319(2) 0.39907(11)
H1_6 H 0.2862 0.4849 0.4299
C2_6 C 0.31144(10) 0.3569(2) 0.31072(12)
H2_6 H 0.3146 0.3501 0.2685
C3_6 C 0.32280(11) 0.2681(3) 0.35200(12)
H3_6 H 0.3353 0.1901 0.3441
C4_6 C 0.31850(10) 0.2567(2) 0.46691(11)
C5_6 C 0.33733(12) 0.1395(2) 0.47143(12)
H4_6 H 0.3467 0.0960 0.4371
C6_7 C 0.34170(13) 0.0894(3) 0.52950(13)
H5_7 H 0.3542 0.0100 0.5349
C7_7 C 0.32778(12) 0.1559(3) 0.57973(12)
H6_7 H 0.3305 0.1235 0.6192
C8_7 C 0.30953(10) 0.2734(2) 0.56841(11)
C9_7 C 0.29502(9) 0.3147(2) 0.67791(11)
H7_7 H 0.3082 0.2413 0.6936
C10_7 C 0.27163(10) 0.4616(2) 0.61343(12)
H8_6 H 0.2657 0.5078 0.5779
C11_7 C 0.26083(10) 0.4938(2) 0.67066(11)
H9_6 H 0.2457 0.5670 0.6817
C12_6 C 0.17277(10) 0.5863(2) 0.31401(11)
C13_6 C 0.12138(10) 0.5985(2) 0.33659(12)
C14_6 C 0.08727(10) 0.5046(2) 0.32573(12)
H10_6 H 0.0959 0.4374 0.3020
C15_6 C 0.04056(10) 0.5089(3) 0.34962(12)
H11_6 H 0.0178 0.4456 0.3421
C16_6 C 0.02863(10) 0.6091(3) 0.38465(13)
C17_6 C 0.06161(10) 0.7043(3) 0.39496(13)
H12_6 H 0.0527 0.7720 0.4182
C18_6 C 0.10780(10) 0.6995(3) 0.37095(13)
H13_6 H 0.1300 0.7642 0.3778
N1_6 N 0.29442(8) 0.45954(19) 0.34045(9)
N2_6 N 0.31222(8) 0.31578(19) 0.40844(9)
N3_7 N 0.30427(8) 0.32442(19) 0.51358(9)
N4_7 N 0.29332(8) 0.34630(19) 0.61766(9)
N5_4 N 0.27583(8) 0.40058(19) 0.71073(9)
O1_6 O 0.18532(6) 0.48942(16) 0.28883(8)
O2_6 O 0.20273(7) 0.67604(16) 0.32439(8)
N6_4 N 0.27583(8) 0.59942(19) 0.21073(9)
Zn3_4 Zn 0.267913(11) 0.38451(3) 0.801839(12)
C1_7 C 0.79556(10) 0.0681(2) 0.89907(11)
H1_7 H 0.7862 0.0151 0.9299
C2_7 C 0.81144(10) 0.1431(2) 0.81072(12)
H2_7 H 0.8146 0.1499 0.7685
C3_7 C 0.82280(11) 0.2319(3) 0.85200(12)
H3_7 H 0.8353 0.3099 0.8441
C4_7 C 0.81850(10) 0.2433(2) 0.96691(11)
C5_7 C 0.83733(12) 0.3605(2) 0.97143(12)
H4_7 H 0.8467 0.4040 0.9371
H10_7 H 0.5959 0.0626 0.8020
H11_7 H 0.5178 0.0544 0.8421
C20_7 C 0.43770(10) 0.0526(3) 0.94835(13)
H14_7 H 0.4567 0.0511 0.9852
C21_7 C 0.39939(10) 0.1358(2) 0.93964(12)
H15_7 H 0.3919 0.1892 0.9713
C22_7 C 0.37170(9) 0.1409(2) 0.88385(12)
C23_7 C 0.38285(9) 0.0588(2) 0.83697(12)
H16_7 H 0.3648 0.0618 0.7995
C25_7 C 0.33073(10) 0.2321(2) 0.87388(12)
N1_7 N 0.79442(8) 0.04046(19) 0.84045(9)
N2_7 N 0.81222(8) 0.18422(19) 0.90844(9)
O1_7 O 0.68532(6) 0.01058(16) 0.78883(8)
O4_4 O 0.31552(6) 0.24928(15) 0.81826(8)
O5_7 O 0.31335(8) 0.28648(19) 0.91822(8)
C12_7 C 0.67277(10) 0.9137(2) 0.81401(11)
C13_7 C 0.62138(10) 0.9015(2) 0.83659(12)
C14_7 C 0.58727(10) 0.9954(2) 0.82573(12)
C15_7 C 0.54056(10) 0.9911(3) 0.84962(12)
C16_7 C 0.52863(10) 0.8909(3) 0.88465(13)
C17_7 C 0.56161(10) 0.7957(3) 0.89496(13)
H12_7 H 0.5527 0.7280 0.9182
C18_7 C 0.60780(10) 0.8005(3) 0.87095(13)
H13_7 H 0.6300 0.7358 0.8778
C19_7 C 0.44760(10) 0.9717(3) 0.90196(13)
C24_7 C 0.42074(10) 0.9729(3) 0.84607(12)
H17_7 H 0.4279 0.9172 0.8153
O2_7 O 0.70273(7) 0.82396(16) 0.82439(8)
O3_7 O 0.48396(7) 0.8814(2) 0.91341(10)
O6_4 O 0.81552(6) 0.74928(15) 0.81826(8)
C6_8 C 0.34170(13) 0.9106(3) 0.02950(13)
H5_8 H 0.3542 0.9900 0.0349
C7_8 C 0.32778(12) 0.8441(3) 0.07973(12)
H6_8 H 0.3305 0.8765 0.1192
C8_8 C 0.30953(10) 0.7266(2) 0.06841(11)
C9_8 C 0.29502(9) 0.6853(2) 0.17791(11)
H7_8 H 0.3082 0.7587 0.1936
C10_8 C 0.27163(10) 0.5384(2) 0.11343(12)
H8_7 H 0.2657 0.4922 0.0779
C11_8 C 0.26083(10) 0.5062(2) 0.17066(11)
H9_7 H 0.2457 0.4330 0.1817
N3_8 N 0.30427(8) 0.67558(19) 0.01358(9)
N4_8 N 0.29332(8) 0.65370(19) 0.11766(9)
C1_8 C 0.29556(10) 0.5681(2) 0.89907(11)
H1_8 H 0.2862 0.5151 0.9299
C2_8 C 0.31144(10) 0.6431(2) 0.81072(12)
H2_8 H 0.3146 0.6499 0.7685
C3_8 C 0.32280(11) 0.7319(3) 0.85200(12)
H3_8 H 0.3353 0.8099 0.8441
C4_8 C 0.31850(10) 0.7433(2) 0.96691(11)
C5_8 C 0.33733(12) 0.8605(2) 0.97143(12)
H4_8 H 0.3467 0.9040 0.9371
C12_8 C 0.17277(10) 0.4137(2) 0.81401(11)
C13_8 C 0.12138(10) 0.4015(2) 0.83659(12)
C14_8 C 0.08727(10) 0.4954(2) 0.82573(12)
H10_8 H 0.0959 0.5626 0.8020
C15_8 C 0.04056(10) 0.4911(3) 0.84962(12)
H11_8 H 0.0178 0.5544 0.8421
C16_8 C 0.02863(10) 0.3909(3) 0.88465(13)
C17_8 C 0.06161(10) 0.2957(3) 0.89496(13)
H12_8 H 0.0527 0.2280 0.9182
C18_8 C 0.10780(10) 0.3005(3) 0.87095(13)
H13_8 H 0.1300 0.2358 0.8778
N1_8 N 0.29442(8) 0.54046(19) 0.84045(9)
N2_8 N 0.31222(8) 0.68422(19) 0.90844(9)
O1_8 O 0.18532(6) 0.51058(16) 0.78883(8)
O2_8 O 0.20273(7) 0.32396(16) 0.82439(8)
C19_8 C 0.94760(10) 0.4717(3) 0.90196(13)
C20_8 C 0.93770(10) 0.5526(3) 0.94835(13)
H14_8 H 0.9567 0.5511 0.9852
C21_8 C 0.89939(10) 0.6358(2) 0.93964(12)
H15_8 H 0.8919 0.6892 0.9713
C22_8 C 0.87170(9) 0.6409(2) 0.88385(12)
C23_8 C 0.88285(9) 0.5588(2) 0.83697(12)
H16_8 H 0.8648 0.5618 0.7995
C24_8 C 0.92074(10) 0.4729(3) 0.84607(12)
H17_8 H 0.9279 0.4172 0.8153
C25_8 C 0.83073(10) 0.7321(2) 0.87388(12)
O3_8 O 0.98396(7) 0.3814(2) 0.91341(10)
O5_8 O 0.81335(8) 0.78648(19) 0.91822(8)
H8_8 H 0.7657 0.9922 0.0779
H9_8 H 0.7457 0.9330 0.1817
loop_
_geom_bond_atom_site_label_1
_geom_bond_atom_site_label_2
_geom_bond_site_symmetry_1
_geom_bond_site_symmetry_2
C12 C13 1_555 1_555
C13 C14 1_555 1_555
C15 C14 1_555 1_555
C16 C15 1_555 1_555
C17 C16 1_555 1_555
H12 C17 1_555 1_555
C18 C13 1_555 1_555
H13 C18 1_555 1_555
C24 C19 1_555 1_555
H17 C24 1_555 1_555
O2 C12 1_555 1_555
O3 C16 1_555 1_555
N6 Zn1 1_555 1_555
O6 Zn1 1_555 1_555
C17 C18 1_555 1_555
C19 O3 1_555 1_555
O2 Zn1 1_555 1_555
C1 H1 1_555 1_555
C2 H2 1_555 1_555
C3 C2 1_555 1_555
H3 C3 1_555 1_555
C4 C5 1_555 1_555
C5 H4 1_555 1_555
C20 H14 1_555 1_555
C21 C20 1_555 1_555
H15 C21 1_555 1_555
C22 C21 1_555 1_555
C23 C22 1_555 1_555
H16 C23 1_555 1_555
C25 C22 1_555 1_555
N1 C1 1_555 1_555
N2 C1 1_555 1_555
O4 C25 1_555 1_555
O5 C25 1_555 1_555
Zn2 O4 1_555 1_555
C2 N1 1_555 1_555
C3 N2 1_555 1_555
C4 N2 1_555 1_555
C19_2 C20_2 1_555 1_555
C20_2 H14_2 1_555 1_555
C21_2 C20_2 1_555 1_555
H15_2 C21_2 1_555 1_555
C22_2 C21_2 1_555 1_555
C23_2 C22_2 1_555 1_555
H16_2 C23_2 1_555 1_555
C24_2 C19_2 1_555 1_555
H17_2 C24_2 1_555 1_555
C25_2 C22_2 1_555 1_555
O6 C25_2 1_555 1_555
O5_2 C25_2 1_555 1_555
C19_2 O3_2 1_555 1_555
C23_2 C24_2 1_555 1_555
C1_2 H1_2 1_555 1_555
C2_2 H2_2 1_555 1_555
C3_2 C2_2 1_555 1_555
H3_2 C3_2 1_555 1_555
C4_2 C5_2 1_555 1_555
C5_2 H4_2 1_555 1_555
C12_2 C13_2 1_555 1_555
C13_2 C14_2 1_555 1_555
C14_2 H10_2 1_555 1_555
C15_2 C14_2 1_555 1_555
H11_2 C15_2 1_555 1_555
C16_2 C15_2 1_555 1_555
C17_2 C16_2 1_555 1_555
H12_2 C17_2 1_555 1_555
C18_2 C13_2 1_555 1_555
H13_2 C18_2 1_555 1_555
N1_2 C1_2 1_555 1_555
N2_2 C1_2 1_555 1_555
O1_2 C12_2 1_555 1_555
O2_2 C12_2 1_555 1_555
Zn2 N1_2 1_555 1_555
N6_2 Zn2 1_555 1_555
C2_2 N1_2 1_555 1_555
C3_2 N2_2 1_555 1_555
C4_2 N2_2 1_555 1_555
C17_2 C18_2 1_555 1_555
O2_2 Zn2 1_555 1_555
H5 C6 1_555 1_555
C7 C6 1_555 1_555
H6 C7 1_555 1_555
C8 C7 1_555 1_555
C9 H7 1_555 1_555
C10 H8 1_555 1_555
C11 C10 1_555 1_555
H9 C11 1_555 1_555
N4 C8 1_555 1_555
N5 C9 1_555 1_555
Zn3 N5 1_555 1_555
C8 N3 1_555 1_555
C9 N4 1_555 1_555
C10 N4 1_555 1_555
C11 N5 1_555 1_555
C1_3 H1_3 1_555 1_555
C2_3 H2_3 1_555 1_555
C3_3 C2_3 1_555 1_555
H3_3 C3_3 1_555 1_555
C4_3 C5_3 1_555 1_555
C5_3 H4_3 1_555 1_555
C6_2 C5_3 1_555 1_555
H5_2 C6_2 1_555 1_555
C7_2 C6_2 1_555 1_555
H6_2 C7_2 1_555 1_555
C8_2 C7_2 1_555 1_555
C9_2 H7_2 1_555 1_555
C11_2 C10_2 1_555 1_555
C20_3 H14_3 1_555 1_555
C21_3 C20_3 1_555 1_555
H15_3 C21_3 1_555 1_555
C22_3 C21_3 1_555 1_555
C23_3 C22_3 1_555 1_555
H16_3 C23_3 1_555 1_555
C25_3 C22_3 1_555 1_555
N1_3 C1_3 1_555 1_555
N2_3 C1_3 1_555 1_555
N3_2 C4_3 1_555 1_555
N4_2 C8_2 1_555 1_555
N6 C9_2 1_555 1_555
O4_2 C25_3 1_555 1_555
O5_3 C25_3 1_555 1_555
Zn3 O4_2 1_555 1_555
C2_3 N1_3 1_555 1_555
C3_3 N2_3 1_555 1_555
C4_3 N2_3 1_555 1_555
C8_2 N3_2 1_555 1_555
C9_2 N4_2 1_555 1_555
C10_2 N4_2 1_555 1_555
C11_2 N6 1_555 1_555
C1_4 H1_4 1_555 1_555
C2_4 H2_4 1_555 1_555
C3_4 C2_4 1_555 1_555
H3_4 C3_4 1_555 1_555
C4_4 C5_4 1_555 1_555
C5_4 H4_4 1_555 1_555
C6_3 C5_4 1_555 1_555
H5_3 C6_3 1_555 1_555
C7_3 C6_3 1_555 1_555
H6_3 C7_3 1_555 1_555
C8_3 C7_3 1_555 1_555
C9_3 H7_3 1_555 1_555
C10_3 H8_2 1_555 1_555
C11_3 C10_3 1_555 1_555
H9_2 C11_3 1_555 1_555
C12_3 C13_3 1_555 1_555
C13_3 C14_3 1_555 1_555
C14_3 H10_4 1_555 1_555
C15_3 C14_3 1_555 1_555
H11_4 C15_3 1_555 1_555
C16_3 C15_3 1_555 1_555
C17_3 C16_3 1_555 1_555
H12_3 C17_3 1_555 1_555
C18_3 C13_3 1_555 1_555
H13_3 C18_3 1_555 1_555
N1_4 C1_4 1_555 1_555
N2_4 C1_4 1_555 1_555
N3_3 C4_4 1_555 1_555
N4_3 C8_3 1_555 1_555
N6_2 C9_3 1_555 1_555
O1_4 C12_3 1_555 1_555
O2_3 C12_3 1_555 1_555
Zn3 N1_4 1_555 1_555
C2_4 N1_4 1_555 1_555
C3_4 N2_4 1_555 1_555
C4_4 N2_4 1_555 1_555
C8_3 N3_3 1_555 1_555
C9_3 N4_3 1_555 1_555
C10_3 N4_3 1_555 1_555
C11_3 N6_2 1_555 1_555
C17_3 C18_3 1_555 1_555
O2_3 Zn3 1_555 1_555
H5_4 C6_4 1_555 1_555
C7_4 C6_4 1_555 1_555
H6_4 C7_4 1_555 1_555
C8_4 C7_4 1_555 1_555
C9_4 H7_4 1_555 1_555
C11_4 C10_4 1_555 1_555
N4_4 C8_4 1_555 1_555
N5_2 C9_4 1_555 1_555
Zn3_2 N5_2 1_555 1_555
C8_4 N3_4 1_555 1_555
C9_4 N4_4 1_555 1_555
C10_4 N4_4 1_555 1_555
C11_4 N5_2 1_555 1_555
C12_4 C13_4 1_555 1_555
C13_4 C14_4 1_555 1_555
C15_4 C14_4 1_555 1_555
C16_4 C15_4 1_555 1_555
C17_4 C16_4 1_555 1_555
H12_4 C17_4 1_555 1_555
C18_4 C13_4 1_555 1_555
H13_4 C18_4 1_555 1_555
C24_3 C19_3 1_555 1_555
H17_3 C24_3 1_555 1_555
O2_4 C12_4 1_555 1_555
O3_3 C16_4 1_555 1_555
O6_2 Zn3_2 1_555 1_555
C17_4 C18_4 1_555 1_555
C19_3 O3_3 1_555 1_555
O2_4 Zn3_2 1_555 1_555
C19_4 C20_4 1_555 1_555
C20_4 H14_4 1_555 1_555
C21_4 C20_4 1_555 1_555
H15_4 C21_4 1_555 1_555
C22_4 C21_4 1_555 1_555
C23_4 C22_4 1_555 1_555
H16_4 C23_4 1_555 1_555
C24_4 C19_4 1_555 1_555
H17_4 C24_4 1_555 1_555
C25_4 C22_4 1_555 1_555
O6_2 C25_4 1_555 1_555
O5_4 C25_4 1_555 1_555
C19_4 O3_4 1_555 1_555
C23_4 C24_4 1_555 1_555
C12_5 C13_5 1_555 1_555
C13_5 C14_5 1_555 1_555
C15_5 C14_5 1_555 1_555
C16_5 C15_5 1_555 1_555
C17_5 C16_5 1_555 1_555
H12_5 C17_5 1_555 1_555
C18_5 C13_5 1_555 1_555
H13_5 C18_5 1_555 1_555
C24_5 C19_5 1_555 1_555
H17_5 C24_5 1_555 1_555
O2_5 C12_5 1_555 1_555
O3_5 C16_5 1_555 1_555
N6_3 Zn1_2 1_555 1_555
O6_3 Zn1_2 1_555 1_555
C17_5 C18_5 1_555 1_555
C19_5 O3_5 1_555 1_555
O2_5 Zn1_2 1_555 1_555
C19_6 C20_5 1_555 1_555
C20_5 H14_5 1_555 1_555
C21_5 C20_5 1_555 1_555
H15_5 C21_5 1_555 1_555
C22_5 C21_5 1_555 1_555
C23_5 C22_5 1_555 1_555
H16_5 C23_5 1_555 1_555
C24_6 C19_6 1_555 1_555
H17_6 C24_6 1_555 1_555
C25_5 C22_5 1_555 1_555
O6_3 C25_5 1_555 1_555
O5_5 C25_5 1_555 1_555
C19_6 O3_6 1_555 1_555
C23_5 C24_6 1_555 1_555
H5_5 C6_5 1_555 1_555
C7_5 C6_5 1_555 1_555
H6_5 C7_5 1_555 1_555
C8_5 C7_5 1_555 1_555
C9_5 H7_5 1_555 1_555
C11_5 C10_5 1_555 1_555
N4_5 C8_5 1_555 1_555
N6_3 C9_5 1_555 1_555
C8_5 N3_5 1_555 1_555
C9_5 N4_5 1_555 1_555
C10_5 N4_5 1_555 1_555
C11_5 N6_3 1_555 1_555
C1_5 H1_5 1_555 1_555
C2_5 H2_5 1_555 1_555
C3_5 C2_5 1_555 1_555
H3_5 C3_5 1_555 1_555
C4_5 C5_5 1_555 1_555
C5_5 H4_5 1_555 1_555
C6_6 C5_5 1_555 1_555
H5_6 C6_6 1_555 1_555
C7_6 C6_6 1_555 1_555
H6_6 C7_6 1_555 1_555
C8_6 C7_6 1_555 1_555
C9_6 H7_6 1_555 1_555
C11_6 C10_6 1_555 1_555
C20_6 H14_6 1_555 1_555
C21_6 C20_6 1_555 1_555
H15_6 C21_6 1_555 1_555
C22_6 C21_6 1_555 1_555
C23_6 C22_6 1_555 1_555
H16_6 C23_6 1_555 1_555
C25_6 C22_6 1_555 1_555
N1_5 C1_5 1_555 1_555
N2_5 C1_5 1_555 1_555
N3_6 C4_5 1_555 1_555
N4_6 C8_6 1_555 1_555
N5_3 C9_6 1_555 1_555
O4_3 C25_6 1_555 1_555
O5_6 C25_6 1_555 1_555
Zn2_2 O4_3 1_555 1_555
Zn3_3 N5_3 1_555 1_555
C2_5 N1_5 1_555 1_555
C3_5 N2_5 1_555 1_555
C4_5 N2_5 1_555 1_555
C8_6 N3_6 1_555 1_555
C9_6 N4_6 1_555 1_555
C10_6 N4_6 1_555 1_555
C11_6 N5_3 1_555 1_555
C1_6 H1_6 1_555 1_555
C2_6 H2_6 1_555 1_555
C3_6 C2_6 1_555 1_555
H3_6 C3_6 1_555 1_555
C4_6 C5_6 1_555 1_555
C5_6 H4_6 1_555 1_555
C6_7 C5_6 1_555 1_555
H5_7 C6_7 1_555 1_555
C7_7 C6_7 1_555 1_555
H6_7 C7_7 1_555 1_555
C8_7 C7_7 1_555 1_555
C9_7 H7_7 1_555 1_555
C10_7 H8_6 1_555 1_555
C11_7 C10_7 1_555 1_555
H9_6 C11_7 1_555 1_555
C12_6 C13_6 1_555 1_555
C13_6 C14_6 1_555 1_555
C14_6 H10_6 1_555 1_555
C15_6 C14_6 1_555 1_555
H11_6 C15_6 1_555 1_555
C16_6 C15_6 1_555 1_555
C17_6 C16_6 1_555 1_555
H12_6 C17_6 1_555 1_555
C18_6 C13_6 1_555 1_555
H13_6 C18_6 1_555 1_555
N1_6 C1_6 1_555 1_555
N2_6 C1_6 1_555 1_555
N3_7 C4_6 1_555 1_555
N4_7 C8_7 1_555 1_555
N5_4 C9_7 1_555 1_555
O1_6 C12_6 1_555 1_555
O2_6 C12_6 1_555 1_555
Zn2_2 N1_6 1_555 1_555
N6_4 Zn2_2 1_555 1_555
Zn3_4 N5_4 1_555 1_555
C2_6 N1_6 1_555 1_555
C3_6 N2_6 1_555 1_555
C4_6 N2_6 1_555 1_555
C8_7 N3_7 1_555 1_555
C9_7 N4_7 1_555 1_555
C10_7 N4_7 1_555 1_555
C11_7 N5_4 1_555 1_555
C17_6 C18_6 1_555 1_555
O2_6 Zn2_2 1_555 1_555
C1_7 H1_7 1_555 1_555
C2_7 H2_7 1_555 1_555
C3_7 C2_7 1_555 1_555
H3_7 C3_7 1_555 1_555
C4_7 C5_7 1_555 1_555
C5_7 H4_7 1_555 1_555
C20_7 H14_7 1_555 1_555
C21_7 C20_7 1_555 1_555
H15_7 C21_7 1_555 1_555
C22_7 C21_7 1_555 1_555
C23_7 C22_7 1_555 1_555
H16_7 C23_7 1_555 1_555
C25_7 C22_7 1_555 1_555
N1_7 C1_7 1_555 1_555
N2_7 C1_7 1_555 1_555
O4_4 C25_7 1_555 1_555
O5_7 C25_7 1_555 1_555
Zn3_4 O4_4 1_555 1_555
C2_7 N1_7 1_555 1_555
C3_7 N2_7 1_555 1_555
C4_7 N2_7 1_555 1_555
C12_7 C13_7 1_555 1_555
C13_7 C14_7 1_555 1_555
C15_7 C14_7 1_555 1_555
C16_7 C15_7 1_555 1_555
C17_7 C16_7 1_555 1_555
H12_7 C17_7 1_555 1_555
C18_7 C13_7 1_555 1_555
H13_7 C18_7 1_555 1_555
C24_7 C19_7 1_555 1_555
H17_7 C24_7 1_555 1_555
O2_7 C12_7 1_555 1_555
O3_7 C16_7 1_555 1_555
O6_4 Zn3_3 1_555 1_555
C17_7 C18_7 1_555 1_555
C19_7 O3_7 1_555 1_555
O2_7 Zn3_3 1_555 1_555
H5_8 C6_8 1_555 1_555
C7_8 C6_8 1_555 1_555
H6_8 C7_8 1_555 1_555
C8_8 C7_8 1_555 1_555
C9_8 H7_8 1_555 1_555
C10_8 H8_7 1_555 1_555
C11_8 C10_8 1_555 1_555
H9_7 C11_8 1_555 1_555
N4_8 C8_8 1_555 1_555
N6_4 C9_8 1_555 1_555
C8_8 N3_8 1_555 1_555
C9_8 N4_8 1_555 1_555
C10_8 N4_8 1_555 1_555
C11_8 N6_4 1_555 1_555
C1_8 H1_8 1_555 1_555
C2_8 H2_8 1_555 1_555
C3_8 C2_8 1_555 1_555
H3_8 C3_8 1_555 1_555
C4_8 C5_8 1_555 1_555
C5_8 H4_8 1_555 1_555
C12_8 C13_8 1_555 1_555
C13_8 C14_8 1_555 1_555
C14_8 H10_8 1_555 1_555
C15_8 C14_8 1_555 1_555
H11_8 C15_8 1_555 1_555
C16_8 C15_8 1_555 1_555
C17_8 C16_8 1_555 1_555
H12_8 C17_8 1_555 1_555
C18_8 C13_8 1_555 1_555
H13_8 C18_8 1_555 1_555
N1_8 C1_8 1_555 1_555
N2_8 C1_8 1_555 1_555
O1_8 C12_8 1_555 1_555
O2_8 C12_8 1_555 1_555
Zn3_4 N1_8 1_555 1_555
C2_8 N1_8 1_555 1_555
C3_8 N2_8 1_555 1_555
C4_8 N2_8 1_555 1_555
C17_8 C18_8 1_555 1_555
O2_8 Zn3_4 1_555 1_555
C19_8 C20_8 1_555 1_555
C20_8 H14_8 1_555 1_555
C21_8 C20_8 1_555 1_555
H15_8 C21_8 1_555 1_555
C22_8 C21_8 1_555 1_555
C23_8 C22_8 1_555 1_555
H16_8 C23_8 1_555 1_555
C24_8 C19_8 1_555 1_555
H17_8 C24_8 1_555 1_555
C25_8 C22_8 1_555 1_555
O6_4 C25_8 1_555 1_555
O5_8 C25_8 1_555 1_555
C19_8 O3_8 1_555 1_555
C23_8 C24_8 1_555 1_555

#END
