
###############################################################################
#
# This file contains modified crystal structure data generated from the
# MOF subset of the Cambridge Structural Database (CSD) v543 
# hosted by the Cambridge Crystallographic Data Centre (CCDC).
#
# This work is licensed under the Creative Commons
# Attribution-NonCommercial-ShareAlike 4.0 International License.
# To view a copy of this license, visit
# http://creativecommons.org/licenses/by-nc-sa/4.0/
# or send a letter to
# Creative Commons, PO Box 1866, Mountain View, CA 94042, USA.
#
# CIF created using the CSD Python API on 29 September 2022
# The structure has been converted into the P1 space group
# The structure has a 3D framework
# The original CSD entry ATOWIQ is in the monoclinic crystal system
# The framework has been calculated to contain at least 10.0% void space
# The void calculation uses a probe of radius 1.32A, grid spacing 0.4
#
###############################################################################

data_ATOWIQ
_chemical_formula_moiety         '(C80 H64 N14 O32 Zn6)n'
_symmetry_cell_setting           triclinic
_symmetry_space_group_name_H-M   'P 1'
_symmetry_Int_Tables_number      1
_space_group_name_Hall           'P 1'
loop_
_symmetry_equiv_pos_site_id
_symmetry_equiv_pos_as_xyz
1 x,y,z
_cell_length_a                   21.222(19)
_cell_length_b                   17.716(16)
_cell_length_c                   14.376(13)
_cell_angle_alpha                90
_cell_angle_beta                 127.821(9)
_cell_angle_gamma                90
_cell_volume                     4269.52
loop_
_atom_site_label
_atom_site_type_symbol
_atom_site_fract_x
_atom_site_fract_y
_atom_site_fract_z
Zn2 Zn 0.48066(6) 0.5000 0.08497(9)
N3 N 0.4722(5) 0.5000 0.2177(7)
O8 O 0.5678(4) 0.4201(3) 0.1491(5)
O9 O 0.5678(4) 0.5799(3) 0.1491(5)
Zn1 Zn -0.0000 0.10439(6) 0.5000
N1 N 0.0278(5) -0.0000 0.7823(7)
N2 N 0.0130(3) 0.0380(3) 0.6241(5)
O1 O 0.4002(4) 0.4223(4) 0.9718(5)
O2 O 0.4322(4) 0.4201(3) 0.8509(5)
O3 O 0.0903(4) 0.1730(4) 0.5924(6)
O4 O 0.1483(9) 0.1374(10) 0.5232(15)
H1 H 0.1658 0.0917 0.5410
C1 C 0.3917(5) 0.3992(4) 0.8825(7)
C2 C 0.3269(5) 0.3413(5) 0.8067(7)
C3 C 0.2740(6) 0.3225(7) 0.8245(9)
H2 H 0.2765 0.3458 0.8847
C4 C 0.2152(6) 0.2688(7) 0.7544(9)
H3 H 0.1810 0.2551 0.7715
C5 C 0.2066(6) 0.2364(6) 0.6638(8)
C6 C 0.2649(8) 0.2510(9) 0.6511(12)
H4 H 0.2653 0.2237 0.5963
C7 C 0.3217(7) 0.3047(8) 0.7173(10)
H5 H 0.3573 0.3168 0.7022
C8 C 0.1416(7) 0.1801(7) 0.5851(10)
C9 C 0.0229(4) 0.0598(4) 0.7210(6)
C10 C 0.0281(7) 0.1395(5) 0.7569(9)
H7 H 0.0296 0.1412 0.8250
H8 H 0.0757 0.1621 0.7755
Zn4 Zn 0.01934(6) 0.0000 0.91503(9)
Zn5 Zn 0.51934(6) 0.5000 0.91503(9)
O6 O 0.4002(4) 0.5777(4) 0.9718(5)
N1_2 N 0.0278(5) 1.0000 0.7823(7)
Zn3 Zn -0.0000 0.89561(6) 0.5000
Zn4_2 Zn 0.01934(6) 1.0000 0.91503(9)
N4 N 0.0130(3) 0.9620(3) 0.6241(5)
C19 C 0.0229(4) 0.9402(4) 0.7210(6)
C20 C 0.0281(7) 0.8605(5) 0.7569(9)
H15 H 0.0296 0.8588 0.8250
H16 H 0.0757 0.8379 0.7755
Zn1_2 Zn 1.0000 0.10439(6) 0.5000
H6 H 0.9824 0.1668 0.6936
N5 N 0.9870(3) 0.0380(3) 0.3759(5)
O5 O 0.5998(4) 0.4223(4) 0.0282(5)
O10 O 0.9097(4) 0.1730(4) 0.4076(6)
O11 O 0.8517(9) 0.1374(10) 0.4768(15)
H9 H 0.8342 0.0917 0.4590
C11 C 0.6083(5) 0.3992(4) 0.1175(7)
C12 C 0.6731(5) 0.3413(5) 0.1933(7)
C13 C 0.7260(6) 0.3225(7) 0.1755(9)
H10 H 0.7235 0.3458 0.1153
C14 C 0.7848(6) 0.2688(7) 0.2456(9)
H11 H 0.8190 0.2551 0.2285
C15 C 0.7934(6) 0.2364(6) 0.3362(8)
C16 C 0.7351(8) 0.2510(9) 0.3489(12)
H12 H 0.7347 0.2237 0.4037
C17 C 0.6783(7) 0.3047(8) 0.2827(10)
H13 H 0.6427 0.3168 0.2978
C18 C 0.8584(7) 0.1801(7) 0.4149(10)
Zn3_2 Zn 1.0000 0.89561(6) 0.5000
H14 H 0.9824 0.8332 0.6936
H6_2 H 0.0176 0.1668 0.3064
H14_2 H 0.0176 0.8332 0.3064
N1_3 N 0.9722(5) 0.0000 0.2177(7)
C9_2 C 0.9771(4) 0.0598(4) 0.2790(6)
C10_2 C 0.9719(7) 0.1395(5) 0.2431(9)
H7_2 H 0.9704 0.1412 0.1750
H8_2 H 0.9243 0.1621 0.2245
Zn4_3 Zn 0.98066(6) -0.0000 0.08497(9)
O6_2 O 0.5998(4) 0.5777(4) 0.0282(5)
N3_2 N 0.5278(5) 0.5000 0.7823(7)
O9_2 O 0.4322(4) 0.5799(3) 0.8509(5)
N1_4 N 0.9722(5) 1.0000 0.2177(7)
Zn4_4 Zn 0.98066(6) 1.0000 0.08497(9)
N4_2 N 0.9870(3) 0.9620(3) 0.3759(5)
C19_2 C 0.9771(4) 0.9402(4) 0.2790(6)
C20_2 C 0.9719(7) 0.8605(5) 0.2431(9)
H15_2 H 0.9704 0.8588 0.1750
H16_2 H 0.9243 0.8379 0.2245
O9_3 O 0.0678(4) 0.0799(3) 0.1491(5)
O8_2 O 0.0678(4) 0.9201(3) 0.1491(5)
O6_3 O 0.9002(4) 0.0777(4) 0.9718(5)
Zn1_3 Zn 0.5000 0.60439(6) 0.5000
N2_2 N 0.5130(3) 0.5380(3) 0.6241(5)
O1_2 O 0.9002(4) 0.9223(4) 0.9718(5)
O2_2 O 0.9322(4) 0.9201(3) 0.8509(5)
O3_2 O 0.5903(4) 0.6730(4) 0.5924(6)
O4_2 O 0.6483(9) 0.6374(10) 0.5232(15)
H1_2 H 0.6658 0.5917 0.5410
C1_2 C 0.8917(5) 0.8992(4) 0.8825(7)
C2_2 C 0.8269(5) 0.8413(5) 0.8067(7)
C3_2 C 0.7740(6) 0.8225(7) 0.8245(9)
H2_2 H 0.7765 0.8458 0.8847
C4_2 C 0.7152(6) 0.7688(7) 0.7544(9)
H3_2 H 0.6810 0.7551 0.7715
C5_2 C 0.7066(6) 0.7364(6) 0.6638(8)
C6_2 C 0.7649(8) 0.7510(9) 0.6511(12)
H4_2 H 0.7653 0.7237 0.5963
C7_2 C 0.8217(7) 0.8047(8) 0.7173(10)
H5_2 H 0.8573 0.8168 0.7022
C8_2 C 0.6416(7) 0.6801(7) 0.5851(10)
C9_3 C 0.5229(4) 0.5598(4) 0.7210(6)
C10_3 C 0.5281(7) 0.6395(5) 0.7569(9)
H6_3 H 0.4824 0.6668 0.6936
H7_3 H 0.5296 0.6412 0.8250
H8_3 H 0.5757 0.6621 0.7755
Zn3_3 Zn 0.5000 0.39561(6) 0.5000
N4_3 N 0.5130(3) 0.4620(3) 0.6241(5)
N5_2 N 0.4870(3) 0.5380(3) 0.3759(5)
O5_2 O 0.0998(4) 0.9223(4) 0.0282(5)
O10_2 O 0.4097(4) 0.6730(4) 0.4076(6)
O11_2 O 0.3517(9) 0.6374(10) 0.4768(15)
H9_2 H 0.3342 0.5917 0.4590
C11_2 C 0.1083(5) 0.8992(4) 0.1175(7)
C12_2 C 0.1731(5) 0.8413(5) 0.1933(7)
C13_2 C 0.2260(6) 0.8225(7) 0.1755(9)
H10_2 H 0.2235 0.8458 0.1153
C14_2 C 0.2848(6) 0.7688(7) 0.2456(9)
H11_2 H 0.3190 0.7551 0.2285
C15_2 C 0.2934(6) 0.7364(6) 0.3362(8)
C16_2 C 0.2351(8) 0.7510(9) 0.3489(12)
H12_2 H 0.2347 0.7237 0.4037
C17_2 C 0.1783(7) 0.8047(8) 0.2827(10)
H13_2 H 0.1427 0.8168 0.2978
C18_2 C 0.3584(7) 0.6801(7) 0.4149(10)
C19_3 C 0.5229(4) 0.4402(4) 0.7210(6)
C20_3 C 0.5281(7) 0.3605(5) 0.7569(9)
H14_3 H 0.4824 0.3332 0.6936
H15_3 H 0.5296 0.3588 0.8250
H16_3 H 0.5757 0.3379 0.7755
O6_4 O 0.0998(4) 0.0777(4) 0.0282(5)
C9_4 C 0.4771(4) 0.5598(4) 0.2790(6)
C10_4 C 0.4719(7) 0.6395(5) 0.2431(9)
H6_4 H 0.5176 0.6668 0.3064
H7_4 H 0.4704 0.6412 0.1750
H8_4 H 0.4243 0.6621 0.2245
N4_4 N 0.4870(3) 0.4620(3) 0.3759(5)
C19_4 C 0.4771(4) 0.4402(4) 0.2790(6)
C20_4 C 0.4719(7) 0.3605(5) 0.2431(9)
H14_4 H 0.5176 0.3332 0.3064
H15_4 H 0.4704 0.3588 0.1750
H16_4 H 0.4243 0.3379 0.2245
O9_4 O 0.9322(4) 0.0799(3) 0.8509(5)
O10_3 O 0.0903(4) 0.8270(4) 0.5924(6)
O11_3 O 0.1483(9) 0.8626(10) 0.5232(15)
H9_3 H 0.1658 0.9083 0.5410
C11_3 C 0.3917(5) 0.6008(4) 0.8825(7)
C12_3 C 0.3269(5) 0.6587(5) 0.8067(7)
C13_3 C 0.2740(6) 0.6775(7) 0.8245(9)
H10_3 H 0.2765 0.6542 0.8847
C14_3 C 0.2152(6) 0.7312(7) 0.7544(9)
H11_3 H 0.1810 0.7449 0.7715
C15_3 C 0.2066(6) 0.7636(6) 0.6638(8)
C16_3 C 0.2649(8) 0.7490(9) 0.6511(12)
H12_3 H 0.2653 0.7763 0.5963
C17_3 C 0.3217(7) 0.6953(8) 0.7173(10)
H13_3 H 0.3573 0.6832 0.7022
C18_3 C 0.1416(7) 0.8199(7) 0.5851(10)
O3_3 O 0.9097(4) 0.8270(4) 0.4076(6)
O4_3 O 0.8517(9) 0.8626(10) 0.4768(15)
H1_3 H 0.8342 0.9083 0.4590
C1_3 C 0.6083(5) 0.6008(4) 0.1175(7)
C2_3 C 0.6731(5) 0.6587(5) 0.1933(7)
C3_3 C 0.7260(6) 0.6775(7) 0.1755(9)
H2_3 H 0.7235 0.6542 0.1153
C4_3 C 0.7848(6) 0.7312(7) 0.2456(9)
H3_3 H 0.8190 0.7449 0.2285
C5_3 C 0.7934(6) 0.7636(6) 0.3362(8)
C6_3 C 0.7351(8) 0.7490(9) 0.3489(12)
H4_3 H 0.7347 0.7763 0.4037
C7_3 C 0.6783(7) 0.6953(8) 0.2827(10)
H5_3 H 0.6427 0.6832 0.2978
C8_3 C 0.8584(7) 0.8199(7) 0.4149(10)
O3_4 O 0.4097(4) 0.3270(4) 0.4076(6)
O4_4 O 0.3517(9) 0.3626(10) 0.4768(15)
H1_4 H 0.3342 0.4083 0.4590
C1_4 C 0.1083(5) 0.1008(4) 0.1175(7)
C2_4 C 0.1731(5) 0.1587(5) 0.1933(7)
C3_4 C 0.2260(6) 0.1775(7) 0.1755(9)
H2_4 H 0.2235 0.1542 0.1153
C4_4 C 0.2848(6) 0.2312(7) 0.2456(9)
H3_4 H 0.3190 0.2449 0.2285
C5_4 C 0.2934(6) 0.2636(6) 0.3362(8)
C6_4 C 0.2351(8) 0.2490(9) 0.3489(12)
H4_4 H 0.2347 0.2763 0.4037
C7_4 C 0.1783(7) 0.1953(8) 0.2827(10)
H5_4 H 0.1427 0.1832 0.2978
C8_4 C 0.3584(7) 0.3199(7) 0.4149(10)
O10_4 O 0.5903(4) 0.3270(4) 0.5924(6)
O11_4 O 0.6483(9) 0.3626(10) 0.5232(15)
H9_4 H 0.6658 0.4083 0.5410
C11_4 C 0.8917(5) 0.1008(4) 0.8825(7)
C12_4 C 0.8269(5) 0.1587(5) 0.8067(7)
C13_4 C 0.7740(6) 0.1775(7) 0.8245(9)
H10_4 H 0.7765 0.1542 0.8847
C14_4 C 0.7152(6) 0.2312(7) 0.7544(9)
H11_4 H 0.6810 0.2449 0.7715
C15_4 C 0.7066(6) 0.2636(6) 0.6638(8)
C16_4 C 0.7649(8) 0.2490(9) 0.6511(12)
H12_4 H 0.7653 0.2763 0.5963
C17_4 C 0.8217(7) 0.1953(8) 0.7173(10)
H13_4 H 0.8573 0.1832 0.7022
C18_4 C 0.6416(7) 0.3199(7) 0.5851(10)
loop_
_geom_bond_atom_site_label_1
_geom_bond_atom_site_label_2
_geom_bond_site_symmetry_1
_geom_bond_site_symmetry_2
N3 Zn2 1_555 1_555
O8 Zn2 1_555 1_555
O9 Zn2 1_555 1_555
Zn1 N2 1_555 1_555
N1 C9 1_555 1_555
N2 C9 1_555 1_555
O1 C1 1_555 1_555
O2 C1 1_555 1_555
O3 Zn1 1_555 1_555
O4 H1 1_555 1_555
C1 C2 1_555 1_555
C2 C3 1_555 1_555
C3 H2 1_555 1_555
C4 C3 1_555 1_555
H3 C4 1_555 1_555
C5 C4 1_555 1_555
C6 C5 1_555 1_555
H4 C6 1_555 1_555
C7 C2 1_555 1_555
H5 C7 1_555 1_555
C8 O3 1_555 1_555
C9 C10 1_555 1_555
H7 C10 1_555 1_555
H8 C10 1_555 1_555
Zn4 N1 1_555 1_555
Zn5 O2 1_555 1_555
O4 C8 1_555 1_555
C5 C8 1_555 1_555
C6 C7 1_555 1_555
Zn3 N4 1_555 1_555
Zn4_2 N1_2 1_555 1_555
C19 N1_2 1_555 1_555
C20 C19 1_555 1_555
H15 C20 1_555 1_555
H16 C20 1_555 1_555
N4 C19 1_555 1_555
N5 Zn1_2 1_555 1_555
O5 C11 1_555 1_555
O8 C11 1_555 1_555
O10 Zn1_2 1_555 1_555
O11 H9 1_555 1_555
C11 C12 1_555 1_555
C12 C13 1_555 1_555
C13 H10 1_555 1_555
C14 C13 1_555 1_555
H11 C14 1_555 1_555
C15 C14 1_555 1_555
C16 C15 1_555 1_555
H12 C16 1_555 1_555
C17 C12 1_555 1_555
H13 C17 1_555 1_555
C18 O10 1_555 1_555
O11 C18 1_555 1_555
C15 C18 1_555 1_555
C16 C17 1_555 1_555
N1_3 C9_2 1_555 1_555
N5 C9_2 1_555 1_555
C9_2 C10_2 1_555 1_555
H7_2 C10_2 1_555 1_555
H8_2 C10_2 1_555 1_555
Zn4_3 N1_3 1_555 1_555
N3_2 Zn5 1_555 1_555
O9_2 Zn5 1_555 1_555
Zn3_2 N4_2 1_555 1_555
Zn4_4 N1_4 1_555 1_555
C19_2 N1_4 1_555 1_555
C20_2 C19_2 1_555 1_555
H15_2 C20_2 1_555 1_555
H16_2 C20_2 1_555 1_555
N4_2 C19_2 1_555 1_555
Zn1_3 N2_2 1_555 1_555
N3_2 C9_3 1_555 1_555
N2_2 C9_3 1_555 1_555
O1_2 C1_2 1_555 1_555
O2_2 C1_2 1_555 1_555
O3_2 Zn1_3 1_555 1_555
O4_2 H1_2 1_555 1_555
C1_2 C2_2 1_555 1_555
C2_2 C3_2 1_555 1_555
C3_2 H2_2 1_555 1_555
C4_2 C3_2 1_555 1_555
H3_2 C4_2 1_555 1_555
C5_2 C4_2 1_555 1_555
C6_2 C5_2 1_555 1_555
H4_2 C6_2 1_555 1_555
C7_2 C2_2 1_555 1_555
H5_2 C7_2 1_555 1_555
C8_2 O3_2 1_555 1_555
C9_3 C10_3 1_555 1_555
C10_3 H6_3 1_555 1_555
H7_3 C10_3 1_555 1_555
H8_3 C10_3 1_555 1_555
Zn3_3 N4_3 1_555 1_555
N4_3 N2_2 1_555 1_555
N5_2 Zn1_3 1_555 1_555
O5_2 C11_2 1_555 1_555
O8_2 C11_2 1_555 1_555
O10_2 Zn1_3 1_555 1_555
O11_2 H9_2 1_555 1_555
C11_2 C12_2 1_555 1_555
C12_2 C13_2 1_555 1_555
C13_2 H10_2 1_555 1_555
C14_2 C13_2 1_555 1_555
H11_2 C14_2 1_555 1_555
C15_2 C14_2 1_555 1_555
C16_2 C15_2 1_555 1_555
H12_2 C16_2 1_555 1_555
C17_2 C12_2 1_555 1_555
H13_2 C17_2 1_555 1_555
C18_2 O10_2 1_555 1_555
C19_3 N3_2 1_555 1_555
C20_3 C19_3 1_555 1_555
H14_3 C20_3 1_555 1_555
H15_3 C20_3 1_555 1_555
H16_3 C20_3 1_555 1_555
O4_2 C8_2 1_555 1_555
C5_2 C8_2 1_555 1_555
C6_2 C7_2 1_555 1_555
N4_3 C19_3 1_555 1_555
O11_2 C18_2 1_555 1_555
C15_2 C18_2 1_555 1_555
C16_2 C17_2 1_555 1_555
N3 C9_4 1_555 1_555
N5_2 C9_4 1_555 1_555
C9_4 C10_4 1_555 1_555
C10_4 H6_4 1_555 1_555
H7_4 C10_4 1_555 1_555
H8_4 C10_4 1_555 1_555
Zn3_3 N4_4 1_555 1_555
N4_4 N5_2 1_555 1_555
C19_4 N3 1_555 1_555
C20_4 C19_4 1_555 1_555
H14_4 C20_4 1_555 1_555
H15_4 C20_4 1_555 1_555
H16_4 C20_4 1_555 1_555
N4_4 C19_4 1_555 1_555
O6 C11_3 1_555 1_555
O9_2 C11_3 1_555 1_555
O10_3 Zn3 1_555 1_555
O11_3 H9_3 1_555 1_555
C11_3 C12_3 1_555 1_555
C12_3 C13_3 1_555 1_555
C13_3 H10_3 1_555 1_555
C14_3 C13_3 1_555 1_555
H11_3 C14_3 1_555 1_555
C15_3 C14_3 1_555 1_555
C16_3 C15_3 1_555 1_555
H12_3 C16_3 1_555 1_555
C17_3 C12_3 1_555 1_555
H13_3 C17_3 1_555 1_555
C18_3 O10_3 1_555 1_555
O11_3 C18_3 1_555 1_555
C15_3 C18_3 1_555 1_555
C16_3 C17_3 1_555 1_555
O6_2 C1_3 1_555 1_555
O9 C1_3 1_555 1_555
O3_3 Zn3_2 1_555 1_555
O4_3 H1_3 1_555 1_555
C1_3 C2_3 1_555 1_555
C2_3 C3_3 1_555 1_555
C3_3 H2_3 1_555 1_555
C4_3 C3_3 1_555 1_555
H3_3 C4_3 1_555 1_555
C5_3 C4_3 1_555 1_555
C6_3 C5_3 1_555 1_555
H4_3 C6_3 1_555 1_555
C7_3 C2_3 1_555 1_555
H5_3 C7_3 1_555 1_555
C8_3 O3_3 1_555 1_555
O4_3 C8_3 1_555 1_555
C5_3 C8_3 1_555 1_555
C6_3 C7_3 1_555 1_555
O6_4 C1_4 1_555 1_555
O9_3 C1_4 1_555 1_555
O3_4 Zn3_3 1_555 1_555
O4_4 H1_4 1_555 1_555
C1_4 C2_4 1_555 1_555
C2_4 C3_4 1_555 1_555
C3_4 H2_4 1_555 1_555
C4_4 C3_4 1_555 1_555
H3_4 C4_4 1_555 1_555
C5_4 C4_4 1_555 1_555
C6_4 C5_4 1_555 1_555
H4_4 C6_4 1_555 1_555
C7_4 C2_4 1_555 1_555
H5_4 C7_4 1_555 1_555
C8_4 O3_4 1_555 1_555
O6_3 C11_4 1_555 1_555
O9_4 C11_4 1_555 1_555
O10_4 Zn3_3 1_555 1_555
O11_4 H9_4 1_555 1_555
C11_4 C12_4 1_555 1_555
C12_4 C13_4 1_555 1_555
C13_4 H10_4 1_555 1_555
C14_4 C13_4 1_555 1_555
H11_4 C14_4 1_555 1_555
C15_4 C14_4 1_555 1_555
C16_4 C15_4 1_555 1_555
H12_4 C16_4 1_555 1_555
C17_4 C12_4 1_555 1_555
H13_4 C17_4 1_555 1_555
C18_4 O10_4 1_555 1_555
O4_4 C8_4 1_555 1_555
C5_4 C8_4 1_555 1_555
C6_4 C7_4 1_555 1_555
O11_4 C18_4 1_555 1_555
C15_4 C18_4 1_555 1_555
C16_4 C17_4 1_555 1_555

#END
