
###############################################################################
#
# This file contains modified crystal structure data generated from the
# MOF subset of the Cambridge Structural Database (CSD) v543 
# hosted by the Cambridge Crystallographic Data Centre (CCDC).
#
# This work is licensed under the Creative Commons
# Attribution-NonCommercial-ShareAlike 4.0 International License.
# To view a copy of this license, visit
# http://creativecommons.org/licenses/by-nc-sa/4.0/
# or send a letter to
# Creative Commons, PO Box 1866, Mountain View, CA 94042, USA.
#
# CIF created using the CSD Python API on 29 September 2022
# The structure has been converted into the P1 space group
# The structure has a 3D framework
# The original CSD entry ATOXEN is in the triclinic crystal system
# The framework has been calculated to contain at least 10.0% void space
# The void calculation uses a probe of radius 1.32A, grid spacing 0.4
#
###############################################################################

data_ATOXEN
_chemical_formula_moiety         '(C56 H40 N4 O16 Zn4)n'
_symmetry_cell_setting           triclinic
_symmetry_space_group_name_H-M   'P 1'
_symmetry_Int_Tables_number      1
_space_group_name_Hall           'P 1'
loop_
_symmetry_equiv_pos_site_id
_symmetry_equiv_pos_as_xyz
1 x,y,z
_cell_length_a                   10.925(2)
_cell_length_b                   10.946(2)
_cell_length_c                   13.972(3)
_cell_angle_alpha                95.20(3)
_cell_angle_beta                 99.23(3)
_cell_angle_gamma                99.89(3)
_cell_volume                     1612.66
loop_
_atom_site_label
_atom_site_type_symbol
_atom_site_fract_x
_atom_site_fract_y
_atom_site_fract_z
C10 C 0.0643(7) 0.3083(7) 0.2311(6)
C11 C 0.1558(8) 0.3304(9) 0.3146(7)
H5 H 0.1359 0.3535 0.3751
C12 C 0.2797(7) 0.3171(9) 0.3066(6)
H6 H 0.3406 0.3277 0.3629
C13 C 0.3126(7) 0.2890(8) 0.2179(6)
C14 C 0.2206(8) 0.2732(9) 0.1351(7)
H7 H 0.2419 0.2569 0.0740
C15 C 0.0962(7) 0.2813(9) 0.1420(6)
H8 H 0.0347 0.2683 0.0858
C16 C 0.4470(7) 0.2830(7) 0.2101(7)
O7 O 0.5254(5) 0.2994(6) 0.2888(4)
O8 O 0.4713(5) 0.2624(6) 0.1256(4)
Zn4 Zn 0.65791(8) 0.27732(9) 0.11319(6)
Zn7 Zn 0.71813(8) 0.31806(9) 0.33016(6)
C1 C 0.6749(8) 0.0606(8) 0.2122(8)
O1 O 0.6979(6) 0.1306(6) 0.2936(5)
O2 O 0.6478(5) 0.0936(5) 0.1283(4)
C2 C 0.6810(8) 0.9220(8) 0.2143(6)
C3 C 0.7122(8) 0.8802(8) 0.3038(6)
H1 H 0.7283 0.9345 0.3615
C4 C 0.7189(8) 0.7506(9) 0.3054(6)
H2 H 0.7400 0.7208 0.3649
C5 C 0.6952(7) 0.6710(8) 0.2219(6)
C6 C 0.6603(7) 0.7146(8) 0.1326(6)
H3 H 0.6400 0.6599 0.0751
C7 C 0.6560(8) 0.8410(8) 0.1303(6)
H4 H 0.6358 0.8705 0.0705
C8 C 0.6993(7) 0.5344(9) 0.2272(7)
C9 C 0.9290(8) 0.3146(8) 0.2406(7)
O3 O 0.6750(5) 0.4644(6) 0.1462(5)
O4 O 0.7297(5) 0.4984(5) 0.3083(4)
O5 O 0.9036(5) 0.3288(6) 0.3251(4)
O6 O 0.8519(5) 0.2998(6) 0.1615(5)
C17 C 0.6528(8) 0.1695(9) 0.9091(6)
H9 H 0.6360 0.0940 0.9346
C18 C 0.6646(9) 0.1671(9) 0.8111(6)
C19 C 0.6921(8) 0.2789(9) 0.7740(6)
C20 C 0.7057(12) 0.3864(10) 0.8354(7)
H10 H 0.7246 0.4636 0.8130
C21 C 0.6912(10) 0.3796(9) 0.9317(7)
H11 H 0.7011 0.4540 0.9724
C22 C 0.7061(9) 0.2853(8) 0.6706(6)
C23 C 0.5983(10) 0.2624(13) 0.6003(8)
H12 H 0.5198 0.2394 0.6180
C24 C 0.6059(9) 0.2733(12) 0.5026(7)
H13 H 0.5330 0.2531 0.4553
C25 C 0.8176(8) 0.3327(9) 0.5430(6)
H14 H 0.8947 0.3559 0.5233
C26 C 0.8192(8) 0.3224(9) 0.6425(7)
C27 C 0.6497(11) 0.0382(10) 0.7498(8)
H15 H 0.5679 0.0180 0.7088
H17 H 0.7138 0.0415 0.7100
C28 C 0.9441(9) 0.3529(12) 0.7127(8)
H18 H 0.9332 0.3959 0.7728
H20 H 0.9731 0.2770 0.7252
N1 N 0.6649(7) 0.2761(7) 0.9682(5)
N2 N 0.7168(6) 0.3124(7) 0.4765(5)
H19 H 0.0051 0.4052 0.6844
H16 H 0.6583 0.9754 0.7928
H16_2 H 0.3417 0.0246 0.2072
C17_2 C 0.3472(8) 0.8305(9) 0.0909(6)
H9_2 H 0.3640 0.9060 0.0654
C18_2 C 0.3354(9) 0.8329(9) 0.1889(6)
C19_2 C 0.3079(8) 0.7211(9) 0.2260(6)
C20_2 C 0.2943(12) 0.6136(10) 0.1646(7)
H10_2 H 0.2754 0.5364 0.1870
C21_2 C 0.3088(10) 0.6204(9) 0.0683(7)
H11_2 H 0.2989 0.5460 0.0276
C22_2 C 0.2939(9) 0.7147(8) 0.3294(6)
C23_2 C 0.4017(10) 0.7376(13) 0.3997(8)
H12_2 H 0.4802 0.7606 0.3820
C24_2 C 0.3941(9) 0.7267(12) 0.4974(7)
H13_2 H 0.4670 0.7469 0.5447
C25_2 C 0.1824(8) 0.6673(9) 0.4570(6)
H14_2 H 0.1053 0.6441 0.4767
C26_2 C 0.1808(8) 0.6776(9) 0.3575(7)
C27_2 C 0.3503(11) 0.9618(10) 0.2502(8)
H15_2 H 0.4321 0.9820 0.2912
H17_2 H 0.2862 0.9585 0.2900
C28_2 C 0.0559(9) 0.6471(12) 0.2873(8)
H18_2 H 0.0668 0.6041 0.2272
H20_2 H 0.0269 0.7230 0.2748
N1_2 N 0.3351(7) 0.7239(7) 0.0318(5)
N2_2 N 0.2832(6) 0.6876(7) 0.5235(5)
Zn2 Zn 0.28187(8) 0.68194(9) 0.66984(6)
O9 O 0.3021(6) 0.8694(6) 0.7064(5)
O11 O 0.2703(5) 0.5016(5) 0.6917(4)
O12 O 0.0964(5) 0.6712(6) 0.6749(4)
O13 O 0.4746(5) 0.7006(6) 0.7112(4)
C2_2 C 0.3190(8) 0.0780(8) 0.7857(6)
C3_2 C 0.2878(8) 0.1198(8) 0.6962(6)
H1_2 H 0.2717 0.0655 0.6385
C4_2 C 0.2811(8) 0.2494(9) 0.6946(6)
H2_2 H 0.2600 0.2792 0.6351
C5_2 C 0.3048(7) 0.3290(8) 0.7781(6)
C6_2 C 0.3397(7) 0.2854(8) 0.8674(6)
H3_2 H 0.3600 0.3401 0.9249
C7_2 C 0.3440(8) 0.1590(8) 0.8697(6)
H4_2 H 0.3642 0.1295 0.9295
C8_2 C 0.3007(7) 0.4656(9) 0.7728(7)
C9_2 C 0.0710(8) 0.6854(8) 0.7594(7)
O3_2 O 0.3250(5) 0.5356(6) 0.8538(5)
O6_2 O 0.1481(5) 0.7002(6) 0.8385(5)
Zn1 Zn 0.34209(8) 0.72268(9) 0.88681(6)
O10 O 0.3522(5) 0.9064(5) 0.8717(4)
O14 O 0.5287(5) 0.7376(6) 0.8744(4)
C1_2 C 0.3251(8) 0.9394(8) 0.7878(8)
C10_2 C 0.9357(7) 0.6917(7) 0.7689(6)
C11_2 C 0.8442(8) 0.6696(9) 0.6854(7)
H5_2 H 0.8641 0.6465 0.6249
C12_2 C 0.7203(7) 0.6829(9) 0.6934(6)
H6_2 H 0.6594 0.6723 0.6371
C13_2 C 0.6874(7) 0.7110(8) 0.7821(6)
C14_2 C 0.7794(8) 0.7268(9) 0.8649(7)
H7_2 H 0.7581 0.7431 0.9260
C15_2 C 0.9038(7) 0.7187(9) 0.8580(6)
H8_2 H 0.9653 0.7317 0.9142
C16_2 C 0.5530(7) 0.7170(7) 0.7899(7)
H19_2 H 0.9949 0.5948 0.3156
loop_
_geom_bond_atom_site_label_1
_geom_bond_atom_site_label_2
_geom_bond_site_symmetry_1
_geom_bond_site_symmetry_2
C10 C11 1_555 1_555
C11 H5 1_555 1_555
C12 C11 1_555 1_555
H6 C12 1_555 1_555
C13 C12 1_555 1_555
C14 C13 1_555 1_555
H7 C14 1_555 1_555
C15 C10 1_555 1_555
H8 C15 1_555 1_555
C16 C13 1_555 1_555
O7 C16 1_555 1_555
O8 C16 1_555 1_555
Zn4 O8 1_555 1_555
Zn7 O7 1_555 1_555
C14 C15 1_555 1_555
O1 C1 1_555 1_555
O2 C1 1_555 1_555
Zn4 O2 1_555 1_555
Zn7 O1 1_555 1_555
C2 C3 1_555 1_555
C3 H1 1_555 1_555
C4 C3 1_555 1_555
H2 C4 1_555 1_555
C5 C4 1_555 1_555
C6 C5 1_555 1_555
H3 C6 1_555 1_555
C7 C2 1_555 1_555
H4 C7 1_555 1_555
C8 C5 1_555 1_555
O3 C8 1_555 1_555
O4 C8 1_555 1_555
O5 C9 1_555 1_555
O6 C9 1_555 1_555
Zn7 O4 1_555 1_555
C6 C7 1_555 1_555
O3 Zn4 1_555 1_555
O5 Zn7 1_555 1_555
O6 Zn4 1_555 1_555
C17 H9 1_555 1_555
C18 C17 1_555 1_555
C19 C18 1_555 1_555
C20 C19 1_555 1_555
H10 C20 1_555 1_555
C21 C20 1_555 1_555
H11 C21 1_555 1_555
C22 C19 1_555 1_555
C23 C22 1_555 1_555
H12 C23 1_555 1_555
C24 C23 1_555 1_555
H13 C24 1_555 1_555
C25 H14 1_555 1_555
C26 C22 1_555 1_555
C27 C18 1_555 1_555
H15 C27 1_555 1_555
H17 C27 1_555 1_555
C28 C26 1_555 1_555
H18 C28 1_555 1_555
H20 C28 1_555 1_555
N1 C17 1_555 1_555
N2 C24 1_555 1_555
Zn7 N2 1_555 1_555
C21 N1 1_555 1_555
C25 C26 1_555 1_555
C25 N2 1_555 1_555
C17_2 H9_2 1_555 1_555
C18_2 C17_2 1_555 1_555
C19_2 C18_2 1_555 1_555
C20_2 C19_2 1_555 1_555
H10_2 C20_2 1_555 1_555
C21_2 C20_2 1_555 1_555
H11_2 C21_2 1_555 1_555
C22_2 C19_2 1_555 1_555
C23_2 C22_2 1_555 1_555
H12_2 C23_2 1_555 1_555
C24_2 C23_2 1_555 1_555
H13_2 C24_2 1_555 1_555
C25_2 H14_2 1_555 1_555
C26_2 C22_2 1_555 1_555
C27_2 C18_2 1_555 1_555
H15_2 C27_2 1_555 1_555
H17_2 C27_2 1_555 1_555
C28_2 C26_2 1_555 1_555
H18_2 C28_2 1_555 1_555
H20_2 C28_2 1_555 1_555
N1_2 C17_2 1_555 1_555
N2_2 C24_2 1_555 1_555
Zn2 N2_2 1_555 1_555
O9 Zn2 1_555 1_555
O11 Zn2 1_555 1_555
O12 Zn2 1_555 1_555
O13 Zn2 1_555 1_555
C21_2 N1_2 1_555 1_555
C25_2 C26_2 1_555 1_555
C25_2 N2_2 1_555 1_555
C2_2 C3_2 1_555 1_555
C3_2 H1_2 1_555 1_555
C4_2 C3_2 1_555 1_555
H2_2 C4_2 1_555 1_555
C5_2 C4_2 1_555 1_555
C6_2 C5_2 1_555 1_555
H3_2 C6_2 1_555 1_555
C7_2 C2_2 1_555 1_555
H4_2 C7_2 1_555 1_555
C8_2 C5_2 1_555 1_555
O3_2 C8_2 1_555 1_555
O11 C8_2 1_555 1_555
O12 C9_2 1_555 1_555
O6_2 C9_2 1_555 1_555
O10 Zn1 1_555 1_555
O14 Zn1 1_555 1_555
C6_2 C7_2 1_555 1_555
O3_2 Zn1 1_555 1_555
O6_2 Zn1 1_555 1_555
O9 C1_2 1_555 1_555
O10 C1_2 1_555 1_555
C10_2 C11_2 1_555 1_555
C11_2 H5_2 1_555 1_555
C12_2 C11_2 1_555 1_555
H6_2 C12_2 1_555 1_555
C13_2 C12_2 1_555 1_555
C14_2 C13_2 1_555 1_555
H7_2 C14_2 1_555 1_555
C15_2 C10_2 1_555 1_555
H8_2 C15_2 1_555 1_555
C16_2 C13_2 1_555 1_555
O13 C16_2 1_555 1_555
O14 C16_2 1_555 1_555
C14_2 C15_2 1_555 1_555

#END
