
###############################################################################
#
# This file contains modified crystal structure data generated from the
# MOF subset of the Cambridge Structural Database (CSD) v543 
# hosted by the Cambridge Crystallographic Data Centre (CCDC).
#
# This work is licensed under the Creative Commons
# Attribution-NonCommercial-ShareAlike 4.0 International License.
# To view a copy of this license, visit
# http://creativecommons.org/licenses/by-nc-sa/4.0/
# or send a letter to
# Creative Commons, PO Box 1866, Mountain View, CA 94042, USA.
#
# CIF created using the CSD Python API on 29 September 2022
# The structure has been converted into the P1 space group
# The structure has a 3D framework
# The original CSD entry ATURIS is in the orthorhombic crystal system
# The original CSD entry ATURIS is in a Sohncke space group
# The framework has been calculated to contain at least 10.0% void space
# The void calculation uses a probe of radius 1.32A, grid spacing 0.4
# The framework is charged, counterions have been retained in the structure
#
###############################################################################

data_ATURIS
_chemical_formula_moiety         '(C108 H52 In4 N4 O32 4-)n'
_symmetry_cell_setting           triclinic
_symmetry_space_group_name_H-M   'P 1'
_symmetry_Int_Tables_number      1
_space_group_name_Hall           'P 1'
loop_
_symmetry_equiv_pos_site_id
_symmetry_equiv_pos_as_xyz
1 x,y,z
_cell_length_a                   14.488(3)
_cell_length_b                   17.472(4)
_cell_length_c                   28.032(6)
_cell_angle_alpha                90
_cell_angle_beta                 90
_cell_angle_gamma                90
_cell_volume                     7095.86
loop_
_atom_site_label
_atom_site_type_symbol
_atom_site_fract_x
_atom_site_fract_y
_atom_site_fract_z
In1 In 0.575248(9) 0.632977(9) 0.200364(5)
O1 O 0.03656(10) 0.37461(10) 0.64449(5)
O2 O 0.45804(10) 0.61212(8) 0.25310(5)
C1 C 0.42262(16) 0.48901(12) 0.28513(7)
C2 C 0.07650(17) 0.48008(13) 0.47847(7)
O4 O 0.54387(11) 0.51520(9) 0.23029(6)
C5 C 0.01862(15) 0.43976(14) 0.56961(8)
N1 N 0.03823(13) 0.53218(13) 0.40177(7)
O5 O 0.36062(11) 0.23451(9) 0.33678(6)
C6 C 0.41135(15) 0.27905(13) 0.31339(8)
C7 C 0.47719(15) 0.54334(12) 0.25471(8)
O8 O 0.47416(11) 0.25378(9) 0.28700(5)
C10 C 0.20846(15) 0.49470(14) 0.36230(8)
C12 C 0.34591(15) 0.51612(14) 0.30969(7)
H3 H 0.3289 0.5672 0.3065
C13 C 0.32007(15) 0.39196(13) 0.34219(8)
H4 H 0.2870 0.3598 0.3624
C14 C 0.14066(16) 0.53094(14) 0.33455(9)
H5 H 0.1521 0.5438 0.3029
C15 C 0.18933(15) 0.47707(14) 0.40936(8)
H6 H 0.2328 0.4522 0.4282
C16 C 0.13379(17) 0.43782(17) 0.50800(9)
H7 H 0.1921 0.4235 0.4974
C18 C 0.05515(15) 0.54723(14) 0.35578(8)
C19 C 0.29481(15) 0.46865(13) 0.33859(8)
C20 C 0.10352(16) 0.49746(15) 0.42789(8)
C21 C 0.10429(17) 0.41670(18) 0.55359(9)
H8 H 0.1422 0.3872 0.5731
C22 C 0.44543(14) 0.41240(13) 0.28792(7)
H9 H 0.4957 0.3940 0.2708
C24 C 0.39409(14) 0.36222(14) 0.31604(7)
H13 H 0.0229 0.5388 0.2637
In4 In 0.424752(9) 0.132977(9) 0.299636(5)
O9 O 0.46344(10) 0.62539(10) 0.14449(5)
O10 O 0.72532(10) 0.59575(10) 0.20582(6)
O11 O 0.63938(11) 0.73451(9) 0.16322(6)
O12 O 0.66301(11) 0.65531(10) 0.26668(6)
O13 O 0.59590(11) 0.56894(10) 0.13036(5)
O14 O 0.52584(11) 0.75378(9) 0.21300(5)
C3 C 0.97713(17) 0.57515(17) 0.32672(8)
C4 C 0.82341(16) 0.62717(17) 0.32242(8)
H1 H 0.7733 0.6499 0.3376
O7 O 0.90410(11) 0.43106(10) 0.63036(5)
C8 C 0.73166(15) 0.62243(14) 0.24767(8)
C9 C 0.98576(16) 0.41462(13) 0.61708(8)
C11 C 0.90230(16) 0.61041(17) 0.34838(9)
H2 H 0.9051 0.6229 0.3806
C17 C 0.81817(17) 0.61063(16) 0.27432(9)
C23 C 0.99397(18) 0.50481(18) 0.49562(9)
H10 H 0.9565 0.5353 0.4765
C25 C 0.96476(19) 0.48528(16) 0.54122(9)
H11 H 0.9084 0.5032 0.5525
C26 C 0.89255(19) 0.57595(19) 0.25312(9)
H12 H 0.8898 0.5629 0.2210
C27 C 0.97219(18) 0.5601(2) 0.27914(9)
In3 In 0.924752(9) 0.367023(9) 0.700364(5)
C5_2 C 0.48138(15) 0.56024(14) 0.06961(8)
C9_2 C 0.51424(16) 0.58538(13) 0.11708(8)
C16_2 C 0.36621(17) 0.56218(17) 0.00800(9)
C21_2 C 0.39571(17) 0.58330(18) 0.05359(9)
H8_2 H 0.3578 0.6128 0.0731
C25_2 C 0.53524(19) 0.51472(16) 0.04122(9)
H11_2 H 0.5916 0.4968 0.0525
O2_2 O 0.04196(10) 0.38788(8) 0.75310(5)
C1_2 C 0.07738(16) 0.51099(12) 0.78513(7)
C2_2 C 0.42350(17) 0.51992(13) 0.97847(7)
C3_2 C 0.52287(17) 0.42485(17) 0.82672(8)
O3 O 0.77468(10) 0.40425(10) 0.70582(6)
C4_2 C 0.67659(16) 0.37283(17) 0.82242(8)
H1_2 H 0.7267 0.3501 0.8376
N1_2 N 0.46177(13) 0.46782(13) 0.90177(7)
O5_2 O 0.13938(11) 0.76549(9) 0.83678(6)
O6 O 0.83699(11) 0.34469(10) 0.76668(6)
C6_2 C 0.08865(15) 0.72095(13) 0.81339(8)
C7_2 C 0.02281(15) 0.45666(12) 0.75471(8)
C8_2 C 0.76834(15) 0.37757(14) 0.74767(8)
O8_2 O 0.02584(11) 0.74622(9) 0.78700(5)
C10_2 C 0.29154(15) 0.50530(14) 0.86230(8)
C11_2 C 0.59770(16) 0.38959(17) 0.84838(9)
H2_2 H 0.5949 0.3771 0.8806
C12_2 C 0.15409(15) 0.48388(14) 0.80969(7)
H3_2 H 0.1711 0.4328 0.8065
C13_2 C 0.17993(15) 0.60804(13) 0.84219(8)
H4_2 H 0.2130 0.6402 0.8624
C14_2 C 0.35934(16) 0.46906(14) 0.83455(9)
H5_2 H 0.3479 0.4562 0.8029
C15_2 C 0.31067(15) 0.52293(14) 0.90936(8)
H6_2 H 0.2672 0.5478 0.9282
H7_2 H 0.3079 0.5765 0.9974
C17_2 C 0.68183(17) 0.38937(16) 0.77432(9)
C18_2 C 0.44485(15) 0.45277(14) 0.85578(8)
C19_2 C 0.20519(15) 0.53135(13) 0.83859(8)
C20_2 C 0.39648(16) 0.50254(15) 0.92789(8)
C22_2 C 0.05457(14) 0.58760(13) 0.78792(7)
H9_2 H 0.0043 0.6060 0.7708
C23_2 C 0.50603(18) 0.49519(18) 0.99562(9)
H10_2 H 0.5435 0.4647 0.9765
C24_2 C 0.10591(14) 0.63778(14) 0.81604(7)
C26_2 C 0.60745(19) 0.42405(19) 0.75312(9)
H12_2 H 0.6102 0.4371 0.7210
C27_2 C 0.52781(18) 0.4399(2) 0.77914(9)
H13_2 H 0.4771 0.4612 0.7637
In4_2 In 0.075248(9) 0.867023(9) 0.799636(5)
O4_2 O 0.95613(11) 0.48480(9) 0.73029(6)
O11_2 O 0.86062(11) 0.26549(9) 0.66322(6)
O14_2 O 0.97416(11) 0.24622(9) 0.71300(5)
C3_3 C 0.02287(17) 0.07515(17) 0.17328(8)
O3_2 O 0.27468(10) 0.09575(10) 0.29418(6)
C4_3 C 0.17659(16) 0.12717(17) 0.17758(8)
H1_3 H 0.2267 0.1499 0.1624
O6_2 O 0.33699(11) 0.15531(10) 0.23332(6)
C8_3 C 0.26834(15) 0.12243(14) 0.25233(8)
C11_3 C 0.09770(16) 0.11041(17) 0.15162(9)
H2_3 H 0.0949 0.1229 0.1194
C17_3 C 0.18183(17) 0.11063(16) 0.22568(9)
C23_3 C 0.00603(18) 0.00481(18) 0.00438(9)
H10_3 H 0.0435 0.0353 0.0235
C26_3 C 0.10745(19) 0.07595(19) 0.24688(9)
H12_3 H 0.1102 0.0629 0.2790
C27_3 C 0.02781(18) 0.0601(2) 0.22086(9)
O7_2 O 0.09590(11) 0.93106(10) 0.86964(5)
C9_3 C 0.01424(16) 0.91462(13) 0.88292(8)
C25_3 C 0.03524(19) 0.98528(16) 0.95878(9)
O2_3 O 0.54196(10) 0.11212(8) 0.24690(5)
O4_3 O 0.45613(11) 0.01520(9) 0.26971(6)
N1_3 N 0.96177(13) 0.03218(13) 0.09823(7)
C7_3 C 0.52281(15) 0.04334(12) 0.24529(8)
C12_3 C 0.65409(15) 0.01612(14) 0.19031(7)
H3_3 H 0.6711 0.0672 0.1935
C14_3 C 0.85934(16) 0.03094(14) 0.16545(9)
H5_3 H 0.8479 0.0438 0.1971
C18_3 C 0.94485(15) 0.04723(14) 0.14422(8)
H13_3 H 0.9771 0.0388 0.2363
O9_2 O 0.53656(10) 0.12539(10) 0.35551(5)
O13_2 O 0.40410(11) 0.06894(10) 0.36964(5)
C1_3 C 0.57738(16) 0.98901(12) 0.21487(7)
C2_3 C 0.92350(17) 0.98008(13) 0.02153(7)
C6_3 C 0.58865(15) 0.77905(13) 0.18661(8)
C10_3 C 0.79154(15) 0.99470(14) 0.13770(8)
C13_3 C 0.67993(15) 0.89196(13) 0.15781(8)
H4_3 H 0.7130 0.8598 0.1376
C15_3 C 0.81067(15) 0.97707(14) 0.09064(8)
H6_3 H 0.7672 0.9522 0.0718
H7_3 H 0.8079 0.9235 0.0026
C19_3 C 0.70519(15) 0.96865(13) 0.16141(8)
C20_3 C 0.89648(16) 0.99746(15) 0.07211(8)
C22_3 C 0.55457(14) 0.91240(13) 0.21208(7)
H9_3 H 0.5043 0.8940 0.2292
C24_3 C 0.60591(14) 0.86222(14) 0.18396(7)
O1_2 O 0.96344(10) 0.87461(10) 0.85551(5)
C5_3 C 0.98138(15) 0.93976(14) 0.93039(8)
C16_3 C 0.86621(17) 0.93782(17) 0.99200(9)
C21_3 C 0.89571(17) 0.91670(18) 0.94641(9)
H8_3 H 0.8578 0.8872 0.9269
O4_4 O 0.04387(11) 0.98480(9) 0.76971(6)
O10_2 O 0.22532(10) 0.90425(10) 0.79418(6)
O12_2 O 0.16301(11) 0.84469(10) 0.73332(6)
C1_4 C 0.92262(16) 0.01099(12) 0.71487(7)
C2_4 C 0.57650(17) 0.01992(13) 0.52153(7)
C5_4 C 0.51862(15) 0.06024(14) 0.43039(8)
C6_4 C 0.91135(15) 0.22095(13) 0.68661(8)
C9_4 C 0.48576(16) 0.08538(13) 0.38292(8)
C10_4 C 0.70846(15) 0.00530(14) 0.63770(8)
C13_4 C 0.82007(15) 0.10804(13) 0.65781(8)
H4_4 H 0.7870 0.1402 0.6376
C15_4 C 0.68933(15) 0.02293(14) 0.59064(8)
H6_4 H 0.7328 0.0478 0.5718
C16_4 C 0.63379(17) 0.06218(17) 0.49200(9)
H7_4 H 0.6921 0.0765 0.5026
C19_4 C 0.79481(15) 0.03135(13) 0.66141(8)
C20_4 C 0.60352(16) 0.00254(15) 0.57211(8)
C21_4 C 0.60429(17) 0.08330(18) 0.44641(9)
H8_4 H 0.6422 0.1128 0.4269
C22_4 C 0.94543(14) 0.08760(13) 0.71208(7)
H9_4 H 0.9957 0.1060 0.7292
C24_4 C 0.89409(14) 0.13778(14) 0.68396(7)
C25_4 C 0.46476(19) 0.01472(16) 0.45878(9)
O2_4 O 0.95804(10) 0.88788(8) 0.74690(5)
C3_4 C 0.47713(17) 0.92485(17) 0.67328(8)
C4_4 C 0.32341(16) 0.87283(17) 0.67758(8)
H1_4 H 0.2733 0.8501 0.6624
N1_4 N 0.53823(13) 0.96782(13) 0.59823(7)
C7_4 C 0.97719(15) 0.95666(12) 0.74529(8)
C8_4 C 0.23166(15) 0.87757(14) 0.75233(8)
C11_4 C 0.40230(16) 0.88959(17) 0.65162(9)
H2_4 H 0.4051 0.8771 0.6194
C12_4 C 0.84591(15) 0.98388(14) 0.69031(7)
H3_4 H 0.8289 0.9328 0.6935
C14_4 C 0.64066(16) 0.96906(14) 0.66545(9)
H5_4 H 0.6521 0.9562 0.6971
C17_4 C 0.31817(17) 0.88937(16) 0.72568(9)
C18_4 C 0.55515(15) 0.95277(14) 0.64422(8)
C23_4 C 0.49397(18) 0.99519(18) 0.50438(9)
H10_4 H 0.4565 0.9647 0.5235
H11_3 H 0.4084 0.9968 0.4475
C26_4 C 0.39255(19) 0.92405(19) 0.74688(9)
H12_4 H 0.3898 0.9371 0.7790
C27_4 C 0.47219(18) 0.9399(2) 0.72086(9)
H13_4 H 0.5229 0.9612 0.7363
H11_4 H 0.0916 0.0032 0.9475
loop_
_geom_bond_atom_site_label_1
_geom_bond_atom_site_label_2
_geom_bond_site_symmetry_1
_geom_bond_site_symmetry_2
In1 O2 1_555 1_555
O2 C7 1_555 1_555
C1 C7 1_555 1_555
C2 C16 1_555 1_555
O4 In1 1_555 1_555
N1 C18 1_555 1_555
O5 C6 1_555 1_555
C6 O8 1_555 1_555
C7 O4 1_555 1_555
O8 In4 1_555 1_555
C10 C14 1_555 1_555
C12 C1 1_555 1_555
H3 C12 1_555 1_555
C13 H4 1_555 1_555
C14 H5 1_555 1_555
C15 C10 1_555 1_555
H6 C15 1_555 1_555
C16 H7 1_555 1_555
C19 C10 1_555 1_555
C20 C2 1_555 1_555
C21 C5 1_555 1_555
H8 C21 1_555 1_555
C22 C1 1_555 1_555
H9 C22 1_555 1_555
C24 C6 1_555 1_555
In4 O5 1_555 1_555
O9 In1 1_555 1_555
O10 In1 1_555 1_555
O11 In1 1_555 1_555
O12 In1 1_555 1_555
O13 In1 1_555 1_555
O14 In1 1_555 1_555
N1 C20 1_555 1_555
C12 C19 1_555 1_555
C13 C19 1_555 1_555
C13 C24 1_555 1_555
C14 C18 1_555 1_555
C15 C20 1_555 1_555
C16 C21 1_555 1_555
C22 C24 1_555 1_555
C3 C11 1_555 1_555
O10 C8 1_555 1_555
C4 H1 1_555 1_555
O12 C8 1_555 1_555
O7 C9 1_555 1_555
C8 C17 1_555 1_555
C11 C4 1_555 1_555
H2 C11 1_555 1_555
C17 C4 1_555 1_555
H10 C23 1_555 1_555
H11 C25 1_555 1_555
C26 C17 1_555 1_555
H12 C26 1_555 1_555
C27 C3 1_555 1_555
O7 In3 1_555 1_555
C23 C25 1_555 1_555
C26 C27 1_555 1_555
O9 C9_2 1_555 1_555
C5_2 C9_2 1_555 1_555
O13 C9_2 1_555 1_555
C21_2 C5_2 1_555 1_555
H8_2 C21_2 1_555 1_555
C25_2 C5_2 1_555 1_555
H11_2 C25_2 1_555 1_555
C16_2 C21_2 1_555 1_555
O2_2 C7_2 1_555 1_555
C1_2 C7_2 1_555 1_555
C3_2 C11_2 1_555 1_555
O3 C8_2 1_555 1_555
C4_2 H1_2 1_555 1_555
N1_2 C18_2 1_555 1_555
O5_2 C6_2 1_555 1_555
O6 C8_2 1_555 1_555
C6_2 O8_2 1_555 1_555
C8_2 C17_2 1_555 1_555
O8_2 In4_2 1_555 1_555
C10_2 C14_2 1_555 1_555
C11_2 C4_2 1_555 1_555
H2_2 C11_2 1_555 1_555
C12_2 C1_2 1_555 1_555
H3_2 C12_2 1_555 1_555
C13_2 H4_2 1_555 1_555
C14_2 H5_2 1_555 1_555
C15_2 C10_2 1_555 1_555
H6_2 C15_2 1_555 1_555
C17_2 C4_2 1_555 1_555
C18_2 C3_2 1_555 1_555
C19_2 C10_2 1_555 1_555
C20_2 C2_2 1_555 1_555
C22_2 C1_2 1_555 1_555
H9_2 C22_2 1_555 1_555
C23_2 C2_2 1_555 1_555
H10_2 C23_2 1_555 1_555
C24_2 C6_2 1_555 1_555
C26_2 C17_2 1_555 1_555
H12_2 C26_2 1_555 1_555
C27_2 C3_2 1_555 1_555
H13_2 C27_2 1_555 1_555
In3 O3 1_555 1_555
In4_2 O5_2 1_555 1_555
N1_2 C20_2 1_555 1_555
O6 In3 1_555 1_555
C12_2 C19_2 1_555 1_555
C13_2 C19_2 1_555 1_555
C13_2 C24_2 1_555 1_555
C14_2 C18_2 1_555 1_555
C15_2 C20_2 1_555 1_555
C22_2 C24_2 1_555 1_555
C26_2 C27_2 1_555 1_555
O4_2 In3 1_555 1_555
O11_2 In3 1_555 1_555
O14_2 In3 1_555 1_555
C3_3 C11_3 1_555 1_555
O3_2 C8_3 1_555 1_555
C4_3 H1_3 1_555 1_555
O6_2 C8_3 1_555 1_555
C8_3 C17_3 1_555 1_555
C11_3 C4_3 1_555 1_555
H2_3 C11_3 1_555 1_555
C17_3 C4_3 1_555 1_555
H10_3 C23_3 1_555 1_555
C26_3 C17_3 1_555 1_555
H12_3 C26_3 1_555 1_555
C27_3 C3_3 1_555 1_555
In4 O3_2 1_555 1_555
O6_2 In4 1_555 1_555
C26_3 C27_3 1_555 1_555
O7_2 C9_3 1_555 1_555
O7_2 In4_2 1_555 1_555
In4 O2_3 1_555 1_555
O2_3 C7_3 1_555 1_555
O4_3 In4 1_555 1_555
N1_3 C18_3 1_555 1_555
C7_3 O4_3 1_555 1_555
H3_3 C12_3 1_555 1_555
C14_3 H5_3 1_555 1_555
O9_2 In4 1_555 1_555
O13_2 In4 1_555 1_555
C14_3 C18_3 1_555 1_555
O11 C6_3 1_555 1_555
C6_3 O14 1_555 1_555
C13_3 H4_3 1_555 1_555
C15_3 C10_3 1_555 1_555
H6_3 C15_3 1_555 1_555
C19_3 C10_3 1_555 1_555
C20_3 C2_3 1_555 1_555
C22_3 C1_3 1_555 1_555
H9_3 C22_3 1_555 1_555
C24_3 C6_3 1_555 1_555
C13_3 C19_3 1_555 1_555
C13_3 C24_3 1_555 1_555
C15_3 C20_3 1_555 1_555
C22_3 C24_3 1_555 1_555
C21_3 C5_3 1_555 1_555
H8_3 C21_3 1_555 1_555
C16_3 C21_3 1_555 1_555
O4_4 In4_2 1_555 1_555
O10_2 In4_2 1_555 1_555
O12_2 In4_2 1_555 1_555
O9_2 C9_4 1_555 1_555
C2_4 C16_4 1_555 1_555
C5_4 C9_4 1_555 1_555
O11_2 C6_4 1_555 1_555
O13_2 C9_4 1_555 1_555
C6_4 O14_2 1_555 1_555
C13_4 H4_4 1_555 1_555
C15_4 C10_4 1_555 1_555
H6_4 C15_4 1_555 1_555
C16_4 H7_4 1_555 1_555
C19_4 C10_4 1_555 1_555
C20_4 C2_4 1_555 1_555
C21_4 C5_4 1_555 1_555
H8_4 C21_4 1_555 1_555
C22_4 C1_4 1_555 1_555
H9_4 C22_4 1_555 1_555
C24_4 C6_4 1_555 1_555
C25_4 C5_4 1_555 1_555
C13_4 C19_4 1_555 1_555
C13_4 C24_4 1_555 1_555
C15_4 C20_4 1_555 1_555
C16_4 C21_4 1_555 1_555
C22_4 C24_4 1_555 1_555
O2_4 C7_4 1_555 1_555
C3_4 C11_4 1_555 1_555
O10_2 C8_4 1_555 1_555
C4_4 H1_4 1_555 1_555
N1_4 C18_4 1_555 1_555
O12_2 C8_4 1_555 1_555
C8_4 C17_4 1_555 1_555
C11_4 C4_4 1_555 1_555
H2_4 C11_4 1_555 1_555
H3_4 C12_4 1_555 1_555
C14_4 H5_4 1_555 1_555
C17_4 C4_4 1_555 1_555
C18_4 C3_4 1_555 1_555
H10_4 C23_4 1_555 1_555
C26_4 C17_4 1_555 1_555
H12_4 C26_4 1_555 1_555
C27_4 C3_4 1_555 1_555
H13_4 C27_4 1_555 1_555
C14_4 C18_4 1_555 1_555
C26_4 C27_4 1_555 1_555

#END
