
###############################################################################
#
# This file contains modified crystal structure data generated from the
# MOF subset of the Cambridge Structural Database (CSD) v543 
# hosted by the Cambridge Crystallographic Data Centre (CCDC).
#
# This work is licensed under the Creative Commons
# Attribution-NonCommercial-ShareAlike 4.0 International License.
# To view a copy of this license, visit
# http://creativecommons.org/licenses/by-nc-sa/4.0/
# or send a letter to
# Creative Commons, PO Box 1866, Mountain View, CA 94042, USA.
#
# CIF created using the CSD Python API on 29 September 2022
# The structure has been converted into the P1 space group
# The structure has a 3D framework
# The original CSD entry ATUXOE is in the triclinic crystal system
# The framework has been calculated to contain at least 10.0% void space
# The void calculation uses a probe of radius 1.32A, grid spacing 0.4
# The framework is charged, counterions have been retained in the structure
# H atom positions have been added when not included in the experimental data
#
###############################################################################

data_ATUXOE
_chemical_formula_moiety         '(C64 H32 Eu4 K4 O40)n'
_symmetry_cell_setting           triclinic
_symmetry_space_group_name_H-M   'P 1'
_symmetry_Int_Tables_number      1
_space_group_name_Hall           'P 1'
loop_
_symmetry_equiv_pos_site_id
_symmetry_equiv_pos_as_xyz
1 x,y,z
_cell_length_a                   11.072(3)
_cell_length_b                   12.676(4)
_cell_length_c                   16.022(5)
_cell_angle_alpha                100.291(10)
_cell_angle_beta                 105.884(9)
_cell_angle_gamma                95.927(9)
_cell_volume                     2100.33
loop_
_atom_site_label
_atom_site_type_symbol
_atom_site_fract_x
_atom_site_fract_y
_atom_site_fract_z
Eu3 Eu 0.00183(5) 0.75874(5) 0.38251(4)
O1 O 0.0889(8) 0.1205(7) 0.1003(6)
O4 O 0.0069(8) 0.2977(7) 0.4746(6)
O5 O 0.0119(9) 0.1233(7) 0.4795(6)
C1 C 0.0606(11) 0.1411(11) 0.1795(8)
C2 C 0.0464(12) 0.0562(11) 0.2198(8)
C3 C 0.0318(11) 0.0757(10) 0.3043(9)
C4 C 0.0284(11) 0.1775(10) 0.3471(8)
C5 C 0.0365(12) 0.2636(10) 0.3044(9)
H2 H 0.0293 0.3327 0.3322
C6 C 0.0553(12) 0.2475(10) 0.2194(9)
H3 H 0.0638 0.3049 0.1914
C8 C 0.0133(11) 0.2017(11) 0.4384(8)
C9 C 0.0262(11) 0.1621(10) 0.0286(8)
O8 O 0.2307(7) 0.2768(8) 0.8733(6)
O9 O 0.0550(8) 0.2835(8) 0.7701(6)
C13 C 0.0348(12) 0.2273(11) 0.8992(8)
C14 C 0.0958(12) 0.1941(10) 0.9773(8)
H6 H 0.1832 0.1941 0.9935
C16 C 0.1127(11) 0.2639(9) 0.8429(8)
Eu7 Eu 0.44208(5) 0.25877(5) 0.87204(4)
Eu9 Eu 0.55792(5) 0.74123(5) 0.12796(4)
O3 O 0.1123(9) 0.9367(7) 0.3762(6)
O10 O 0.6357(8) 0.6156(7) 0.6099(6)
O11 O 0.4038(8) 0.4376(7) 0.8285(6)
O12 O 0.6039(8) 0.4176(7) 0.8701(7)
O13 O 0.5361(8) 0.6236(7) 0.9827(6)
O14 O 0.5774(8) 0.7986(7) 0.9911(5)
O15 O 0.2208(8) 0.7768(8) 0.4877(6)
O16 O 0.2022(8) 0.7246(8) 0.3462(6)
O17 O 0.7856(8) 0.7120(8) 0.3644(6)
O18 O 0.6272(7) 0.7767(7) 0.2837(5)
H1 H 0.0466 0.9858 0.1908
C7 C 0.0166(12) 0.9750(10) 0.3409(8)
C17 C 0.6083(11) 0.6400(11) 0.6906(8)
C18 C 0.5745(11) 0.5536(10) 0.7246(8)
H7 H 0.5642 0.4830 0.6921
C19 C 0.5558(11) 0.5724(10) 0.8079(9)
C20 C 0.5698(11) 0.6795(10) 0.8566(8)
C21 C 0.6037(12) 0.7645(10) 0.8197(9)
H8 H 0.6158 0.8352 0.8523
C22 C 0.6205(12) 0.7484(11) 0.7357(8)
H9 H 0.6388 0.8064 0.7105
C23 C 0.5243(13) 0.4724(10) 0.8397(10)
C24 C 0.5603(12) 0.7004(11) 0.9472(9)
C25 C 0.5799(11) 0.6609(10) 0.5409(8)
C26 C 0.4576(11) 0.6849(11) 0.5233(8)
H10 H 0.4119 0.6773 0.5633
C27 C 0.4025(10) 0.7201(10) 0.4465(9)
C28 C 0.4723(12) 0.7363(10) 0.3888(8)
H11 H 0.4359 0.7609 0.3378
C29 C 0.5963(10) 0.7160(9) 0.4072(7)
C30 C 0.6507(11) 0.6764(9) 0.4822(8)
H12 H 0.7330 0.6603 0.4933
C31 C 0.2681(12) 0.7419(12) 0.4278(10)
C32 C 0.6756(10) 0.7380(9) 0.3475(8)
H13 H 0.00631684 0.538641 0.293673
H14 H 0.0586932 0.543197 0.399399
C10 C 0.8973(11) 0.1668(9) 0.0081(8)
H4 H 0.8522 0.1498 0.0464
Eu5 Eu 0.99817(5) 0.24126(5) 0.61749(4)
O27 O 0.4639(8) 0.3764(7) 0.0173(6)
O28 O 0.4226(8) 0.2014(7) 0.0089(5)
O6 O 0.6253(8) 0.1814(8) 0.8295(6)
O7 O 0.6531(9) 0.2438(9) 0.9715(6)
O20 O 0.3338(12) 0.0698(8) 0.8198(7)
C11 C 0.8354(11) 0.1972(10) 0.9301(9)
C12 C 0.9047(11) 0.2274(10) 0.8744(9)
H5 H 0.8641 0.2471 0.8218
C15 C 0.6954(11) 0.2054(10) 0.9086(9)
O30 O 0.3728(7) 0.2233(7) 0.7163(5)
H15 H 0.382714 0.0233434 0.855626
H16 H 0.246894 0.0651436 0.826343
O2 O 0.9045(8) 0.9245(7) 0.3296(6)
O19 O 0.9920(11) 0.5633(7) 0.3521(7)
O21 O 0.9931(8) 0.7023(7) 0.5254(6)
O22 O 0.9881(9) 0.8767(7) 0.5205(6)
O24 O 0.9450(8) 0.7165(8) 0.2299(6)
O2_2 O 0.0955(8) 0.0755(7) 0.6704(6)
O19_2 O 0.0080(11) 0.4367(7) 0.6479(7)
O29 O 0.2144(8) 0.2880(8) 0.6356(6)
O6_2 O 0.3747(8) 0.8186(8) 0.1705(6)
O7_2 O 0.3469(9) 0.7562(9) 0.0285(6)
O20_2 O 0.6662(12) 0.9302(8) 0.1802(7)
C11_2 C 0.1646(11) 0.8028(10) 0.0699(9)
C12_2 C 0.0953(11) 0.7726(10) 0.1256(9)
H5_2 H 0.1359 0.7529 0.1782
C15_2 C 0.3046(11) 0.7946(10) 0.0914(9)
O23 O 0.7693(7) 0.7232(8) 0.1267(6)
O25 O 0.5962(8) 0.5624(7) 0.1715(6)
O26 O 0.3961(8) 0.5824(7) 0.1299(7)
H15_2 H 0.617286 0.976657 0.144374
H16_2 H 0.753106 0.934856 0.173657
C10_2 C 0.1027(11) 0.8332(9) 0.9919(8)
H4_2 H 0.1478 0.8502 0.9536
O3_2 O 0.8877(9) 0.0633(7) 0.6238(6)
O10_2 O 0.3643(8) 0.3844(7) 0.3901(6)
O15_2 O 0.7792(8) 0.2232(8) 0.5123(6)
O16_2 O 0.7978(8) 0.2754(8) 0.6538(6)
H1_2 H 0.9534 0.0142 0.8092
C7_2 C 0.9834(12) 0.0250(10) 0.6591(8)
C17_2 C 0.3917(11) 0.3600(11) 0.3094(8)
C18_2 C 0.4255(11) 0.4464(10) 0.2754(8)
H7_2 H 0.4358 0.5170 0.3079
C19_2 C 0.4442(11) 0.4276(10) 0.1921(9)
C20_2 C 0.4302(11) 0.3205(10) 0.1434(8)
C21_2 C 0.3963(12) 0.2355(10) 0.1803(9)
H8_2 H 0.3842 0.1648 0.1477
C22_2 C 0.3795(12) 0.2516(11) 0.2643(8)
H9_2 H 0.3612 0.1936 0.2895
C23_2 C 0.4757(13) 0.5276(10) 0.1603(10)
C24_2 C 0.4397(12) 0.2996(11) 0.0528(9)
C25_2 C 0.4201(11) 0.3391(10) 0.4591(8)
C26_2 C 0.5424(11) 0.3151(11) 0.4767(8)
H10_2 H 0.5881 0.3227 0.4367
C27_2 C 0.5975(10) 0.2799(10) 0.5535(9)
C28_2 C 0.5277(12) 0.2637(10) 0.6112(8)
H11_2 H 0.5641 0.2391 0.6622
C29_2 C 0.4037(10) 0.2840(9) 0.5928(7)
C30_2 C 0.3493(11) 0.3236(9) 0.5178(8)
H12_2 H 0.2670 0.3397 0.5067
C31_2 C 0.7319(12) 0.2581(12) 0.5722(10)
C32_2 C 0.3244(10) 0.2620(9) 0.6525(8)
H13_2 H 0.993683 0.461359 0.706327
H14_2 H 0.941307 0.456803 0.600601
C13_2 C 0.9652(12) 0.7727(11) 0.1008(8)
C14_2 C 0.9042(12) 0.8059(10) 0.0227(8)
H6_2 H 0.8168 0.8059 0.0065
C16_2 C 0.8873(11) 0.7361(9) 0.1571(8)
O1_2 O 0.9111(8) 0.8795(7) 0.8997(6)
C1_2 C 0.9394(11) 0.8589(11) 0.8205(8)
C2_2 C 0.9536(12) 0.9438(11) 0.7802(8)
C3_2 C 0.9682(11) 0.9243(10) 0.6957(9)
C4_2 C 0.9716(11) 0.8225(10) 0.6529(8)
C5_2 C 0.9635(12) 0.7364(10) 0.6956(9)
H2_2 H 0.9707 0.6673 0.6678
C6_2 C 0.9447(12) 0.7525(10) 0.7806(9)
H3_2 H 0.9362 0.6951 0.8086
C8_2 C 0.9867(11) 0.7983(11) 0.5616(8)
C9_2 C 0.9738(11) 0.8379(10) 0.9714(8)
K1 K 0.2316(3) 0.0090(3) 0.5578(2)
K1_2 K 0.7684(3) 0.9910(3) 0.4422(2)
K2 K 0.7177(3) 0.4780(3) 0.0551(2)
K2_2 K 0.2823(3) 0.5220(3) 0.9449(2)
loop_
_geom_bond_atom_site_label_1
_geom_bond_atom_site_label_2
_geom_bond_site_symmetry_1
_geom_bond_site_symmetry_2
O1 C1 1_555 1_555
O4 C8 1_555 1_555
O5 C8 1_555 1_555
C1 C2 1_555 1_555
C3 C2 1_555 1_555
C4 C3 1_555 1_555
C5 C4 1_555 1_555
H2 C5 1_555 1_555
C6 C1 1_555 1_555
H3 C6 1_555 1_555
C8 C4 1_555 1_555
C9 O1 1_555 1_555
C5 C6 1_555 1_555
O8 C16 1_555 1_555
O9 C16 1_555 1_555
H6 C14 1_555 1_555
C16 C13 1_555 1_555
Eu7 O8 1_555 1_555
C13 C14 1_555 1_555
O3 Eu3 1_555 1_555
O10 C17 1_555 1_555
O11 C23 1_555 1_555
O12 C23 1_555 1_555
O13 C24 1_555 1_555
O14 C24 1_555 1_555
O15 Eu3 1_555 1_555
O16 Eu3 1_555 1_555
O17 C32 1_555 1_555
O18 C32 1_555 1_555
C7 O3 1_555 1_555
C17 C18 1_555 1_555
C18 H7 1_555 1_555
C19 C18 1_555 1_555
C20 C19 1_555 1_555
C21 C20 1_555 1_555
H8 C21 1_555 1_555
C22 C17 1_555 1_555
H9 C22 1_555 1_555
C23 C19 1_555 1_555
C24 C20 1_555 1_555
C25 O10 1_555 1_555
C26 C25 1_555 1_555
H10 C26 1_555 1_555
C27 C26 1_555 1_555
C28 C27 1_555 1_555
H11 C28 1_555 1_555
C29 C28 1_555 1_555
C30 C25 1_555 1_555
H12 C30 1_555 1_555
C31 O15 1_555 1_555
C32 C29 1_555 1_555
Eu7 O11 1_555 1_555
Eu9 O18 1_555 1_555
O12 Eu7 1_555 1_555
O16 C31 1_555 1_555
C21 C22 1_555 1_555
C27 C31 1_555 1_555
C29 C30 1_555 1_555
H4 C10 1_555 1_555
Eu7 O6 1_555 1_555
O6 C15 1_555 1_555
O7 Eu7 1_555 1_555
O20 Eu7 1_555 1_555
C12 C11 1_555 1_555
H5 C12 1_555 1_555
C15 O7 1_555 1_555
O30 Eu7 1_555 1_555
C11 C15 1_555 1_555
O20 H15 1_555 1_555
O20 H16 1_555 1_555
Eu9 O6_2 1_555 1_555
O6_2 C15_2 1_555 1_555
O7_2 Eu9 1_555 1_555
O20_2 Eu9 1_555 1_555
C12_2 C11_2 1_555 1_555
H5_2 C12_2 1_555 1_555
C15_2 O7_2 1_555 1_555
O23 Eu9 1_555 1_555
O25 Eu9 1_555 1_555
O26 Eu9 1_555 1_555
C11_2 C15_2 1_555 1_555
O20_2 H15_2 1_555 1_555
O20_2 H16_2 1_555 1_555
H4_2 C10_2 1_555 1_555
O3_2 Eu5 1_555 1_555
O10_2 C17_2 1_555 1_555
O25 C23_2 1_555 1_555
O26 C23_2 1_555 1_555
O27 C24_2 1_555 1_555
O28 C24_2 1_555 1_555
O15_2 Eu5 1_555 1_555
O16_2 Eu5 1_555 1_555
O29 C32_2 1_555 1_555
O30 C32_2 1_555 1_555
C7_2 O3_2 1_555 1_555
C17_2 C18_2 1_555 1_555
C18_2 H7_2 1_555 1_555
C19_2 C18_2 1_555 1_555
C20_2 C19_2 1_555 1_555
C21_2 C20_2 1_555 1_555
H8_2 C21_2 1_555 1_555
C22_2 C17_2 1_555 1_555
H9_2 C22_2 1_555 1_555
C23_2 C19_2 1_555 1_555
C24_2 C20_2 1_555 1_555
C25_2 O10_2 1_555 1_555
C26_2 C25_2 1_555 1_555
H10_2 C26_2 1_555 1_555
C27_2 C26_2 1_555 1_555
C28_2 C27_2 1_555 1_555
H11_2 C28_2 1_555 1_555
C29_2 C28_2 1_555 1_555
C30_2 C25_2 1_555 1_555
H12_2 C30_2 1_555 1_555
C31_2 O15_2 1_555 1_555
C32_2 C29_2 1_555 1_555
O16_2 C31_2 1_555 1_555
C21_2 C22_2 1_555 1_555
C27_2 C31_2 1_555 1_555
C29_2 C30_2 1_555 1_555
O23 C16_2 1_555 1_555
O24 C16_2 1_555 1_555
H6_2 C14_2 1_555 1_555
C16_2 C13_2 1_555 1_555
C13_2 C14_2 1_555 1_555
O1_2 C1_2 1_555 1_555
O21 C8_2 1_555 1_555
O22 C8_2 1_555 1_555
C1_2 C2_2 1_555 1_555
C3_2 C2_2 1_555 1_555
C4_2 C3_2 1_555 1_555
C5_2 C4_2 1_555 1_555
H2_2 C5_2 1_555 1_555
C6_2 C1_2 1_555 1_555
H3_2 C6_2 1_555 1_555
C8_2 C4_2 1_555 1_555
C9_2 O1_2 1_555 1_555
C5_2 C6_2 1_555 1_555

#END
