
###############################################################################
#
# This file contains modified crystal structure data generated from the
# MOF subset of the Cambridge Structural Database (CSD) v543 
# hosted by the Cambridge Crystallographic Data Centre (CCDC).
#
# This work is licensed under the Creative Commons
# Attribution-NonCommercial-ShareAlike 4.0 International License.
# To view a copy of this license, visit
# http://creativecommons.org/licenses/by-nc-sa/4.0/
# or send a letter to
# Creative Commons, PO Box 1866, Mountain View, CA 94042, USA.
#
# CIF created using the CSD Python API on 29 September 2022
# The structure has been converted into the P1 space group
# The structure has a 3D framework
# The original CSD entry ATUYAR is in the triclinic crystal system
# The framework has been calculated to contain at least 10.0% void space
# The void calculation uses a probe of radius 1.32A, grid spacing 0.4
# The framework is charged, counterions have been retained in the structure
# H atom positions have been added when not included in the experimental data
#
###############################################################################

data_ATUYAR
_chemical_formula_moiety         '(C64 H32 Gd4 K4 O40)n'
_symmetry_cell_setting           triclinic
_symmetry_space_group_name_H-M   'P 1'
_symmetry_Int_Tables_number      1
_space_group_name_Hall           'P 1'
loop_
_symmetry_equiv_pos_site_id
_symmetry_equiv_pos_as_xyz
1 x,y,z
_cell_length_a                   11.003(12)
_cell_length_b                   12.486(14)
_cell_length_c                   15.925(17)
_cell_angle_alpha                100.091(12)
_cell_angle_beta                 106.028(13)
_cell_angle_gamma                95.762(13)
_cell_volume                     2044.51
loop_
_atom_site_label
_atom_site_type_symbol
_atom_site_fract_x
_atom_site_fract_y
_atom_site_fract_z
Gd1 Gd 0.05985(4) 0.24120(4) 0.62837(2)
O3 O 0.0956(6) 0.0613(5) 0.6717(4)
O19 O 0.1696(9) 0.4298(6) 0.6813(5)
O21 O 0.0378(6) 0.1223(5) 0.4846(4)
O22 O 0.0804(6) 0.2997(5) 0.4918(4)
O24 O 0.1297(6) 0.2787(5) 0.7826(4)
O30 O 0.2707(6) 0.2232(6) 0.6270(4)
H13 H 0.21221 0.443464 0.746714
H14 H 0.234856 0.442119 0.650171
Gd2 Gd 0.49636(4) 0.74142(4) 0.11713(2)
O6 O 0.2980(7) 0.7766(7) 0.1542(4)
O7 O 0.2765(6) 0.7231(6) 0.0123(4)
O20 O 0.5057(9) 0.9392(7) 0.1500(5)
C11 C 0.0933(8) 0.7770(8) 0.0521(6)
C12 C 0.0255(9) 0.7643(8) 0.1121(5)
H5 H 0.0631 0.7412 0.1644
C15 C 0.2299(9) 0.7581(9) 0.0740(6)
O23 O 0.7119(6) 0.7910(6) 0.1349(4)
O25 O 0.5949(7) 0.5764(6) 0.1703(4)
O26 O 0.3858(6) 0.5642(6) 0.1233(4)
O29 O 0.5530(6) 0.7858(6) 0.2702(4)
H15 H 0.503131 0.963915 0.212159
H16 H 0.5864 0.975197 0.143651
C10 C 0.0414(9) 0.8159(9) 0.9751(6)
H4 H 0.0881 0.8251 0.9356
O27 O 0.5119(7) 0.6246(5) 0.9805(4)
O28 O 0.5049(7) 0.7971(6) 0.9754(4)
O2 O 0.8937(7) 0.0835(6) 0.6284(4)
O10 O 0.4112(6) 0.3788(6) 0.3994(4)
O13 O 0.4881(7) 0.3754(5) 0.0195(4)
O14 O 0.4951(7) 0.2029(6) 0.0246(4)
O15 O 0.8780(6) 0.3212(6) 0.6700(4)
O16 O 0.8490(6) 0.2567(7) 0.5290(4)
O17 O 0.4470(6) 0.2142(6) 0.7298(4)
H1 H 0.9314 0.0167 0.8076
C7 C 0.9782(10) 0.0294(8) 0.6593(5)
C17 C 0.4412(9) 0.3577(8) 0.3210(5)
C18 C 0.4528(9) 0.4440(8) 0.2804(5)
H7 H 0.4511 0.5152 0.3090
C19 C 0.4676(10) 0.4232(8) 0.1945(6)
C20 C 0.4754(9) 0.3214(8) 0.1534(5)
C21 C 0.4611(10) 0.2331(9) 0.1942(6)
H8 H 0.4620 0.1622 0.1645
C22 C 0.4455(11) 0.2499(9) 0.2787(6)
H9 H 0.4382 0.1914 0.3068
C23 C 0.4856(9) 0.5263(8) 0.1596(5)
C24 C 0.4889(9) 0.2988(8) 0.0615(6)
C25 C 0.4768(9) 0.3377(8) 0.4707(6)
C26 C 0.6066(9) 0.3356(8) 0.4925(6)
H10 H 0.6538 0.3572 0.4563
C27 C 0.6650(9) 0.3008(9) 0.5692(6)
C28 C 0.5962(8) 0.2723(7) 0.6244(5)
H11 H 0.6373 0.2522 0.6774
C29 C 0.4662(9) 0.2736(8) 0.6008(5)
C30 C 0.4066(8) 0.3073(7) 0.5246(5)
H12 H 0.3191 0.3097 0.5092
C31 C 0.8050(9) 0.2948(8) 0.5911(6)
C32 C 0.3860(9) 0.2341(7) 0.6559(5)
Gd9 Gd 0.50364(4) 0.25858(4) 0.88287(2)
O9 O 0.8703(6) 0.7213(5) 0.2174(4)
C13 C 0.9005(9) 0.7864(8) 0.0930(5)
C14 C 0.8471(8) 0.8253(8) 0.0165(5)
H6 H 0.7639 0.8411 0.0040
C16 C 0.8214(9) 0.7655(8) 0.1530(5)
Gd5 Gd 0.94015(4) 0.75880(4) 0.37163(2)
O1 O 0.8615(6) 0.8862(6) 0.8884(4)
O4 O 0.9622(6) 0.8777(5) 0.5154(4)
O5 O 0.9196(6) 0.7003(5) 0.5082(4)
C1 C 0.8921(8) 0.8620(9) 0.8103(5)
C2 C 0.9228(10) 0.9449(9) 0.7759(6)
C3 C 0.9433(10) 0.9257(9) 0.6902(6)
C4 C 0.9284(8) 0.8205(8) 0.6432(5)
C5 C 0.8952(10) 0.7337(9) 0.6802(6)
H2 H 0.8846 0.6617 0.6484
C6 C 0.8776(10) 0.7527(9) 0.7638(6)
H3 H 0.8567 0.6943 0.7889
C8 C 0.9392(8) 0.7984(8) 0.5512(5)
C9 C 0.9185(9) 0.8403(8) 0.9594(5)
O1_2 O 0.1385(6) 0.1138(6) 0.1116(4)
C1_2 C 0.1079(8) 0.1380(9) 0.1897(5)
C2_2 C 0.0772(10) 0.0551(9) 0.2241(6)
C3_2 C 0.0567(10) 0.0743(9) 0.3098(6)
C4_2 C 0.0716(8) 0.1795(8) 0.3568(5)
C5_2 C 0.1048(10) 0.2663(9) 0.3198(6)
H2_2 H 0.1154 0.3383 0.3516
C6_2 C 0.1224(10) 0.2473(9) 0.2362(6)
H3_2 H 0.1433 0.3057 0.2111
C8_2 C 0.0608(8) 0.2016(8) 0.4488(5)
C9_2 C 0.0815(9) 0.1597(8) 0.0406(5)
O8 O 0.2881(6) 0.2090(6) 0.8651(4)
C13_2 C 0.0995(9) 0.2136(8) 0.9070(5)
C14_2 C 0.1529(8) 0.1747(8) 0.9835(5)
H6_2 H 0.2361 0.1589 0.9960
C16_2 C 0.1786(9) 0.2345(8) 0.8470(5)
O2_2 O 0.1063(7) 0.9165(6) 0.3716(4)
O10_2 O 0.5888(6) 0.6212(6) 0.6006(4)
O11 O 0.4051(7) 0.4236(6) 0.8297(4)
O12 O 0.6142(6) 0.4358(6) 0.8767(4)
O15_2 O 0.1220(6) 0.6788(6) 0.3300(4)
O16_2 O 0.1510(6) 0.7433(7) 0.4710(4)
O18 O 0.7293(6) 0.7768(6) 0.3730(4)
H1_2 H 0.0686 0.9833 0.1924
C7_2 C 0.0218(10) 0.9706(8) 0.3407(5)
C17_2 C 0.5588(9) 0.6423(8) 0.6790(5)
C18_2 C 0.5472(9) 0.5560(8) 0.7196(5)
H7_2 H 0.5489 0.4848 0.6910
C19_2 C 0.5324(10) 0.5768(8) 0.8055(6)
C20_2 C 0.5246(9) 0.6786(8) 0.8466(5)
C21_2 C 0.5389(10) 0.7669(9) 0.8058(6)
H8_2 H 0.5380 0.8378 0.8355
C22_2 C 0.5545(11) 0.7501(9) 0.7213(6)
H9_2 H 0.5618 0.8086 0.6932
C23_2 C 0.5144(9) 0.4737(8) 0.8404(5)
C24_2 C 0.5111(9) 0.7012(8) 0.9385(6)
C25_2 C 0.5232(9) 0.6623(8) 0.5293(6)
C26_2 C 0.3934(9) 0.6644(8) 0.5075(6)
H10_2 H 0.3462 0.6428 0.5437
C27_2 C 0.3350(9) 0.6992(9) 0.4308(6)
C28_2 C 0.4038(8) 0.7277(7) 0.3756(5)
H11_2 H 0.3627 0.7478 0.3226
C29_2 C 0.5338(9) 0.7264(8) 0.3992(5)
C30_2 C 0.5934(8) 0.6927(7) 0.4754(5)
H12_2 H 0.6809 0.6903 0.4908
C31_2 C 0.1950(9) 0.7052(8) 0.4089(6)
C32_2 C 0.6140(9) 0.7659(7) 0.3441(5)
C10_2 C 0.9586(9) 0.1841(9) 0.0249(6)
H4_2 H 0.9119 0.1749 0.0644
O6_2 O 0.7020(7) 0.2234(7) 0.8458(4)
O7_2 O 0.7235(6) 0.2769(6) 0.9877(4)
O20_2 O 0.4943(9) 0.0608(7) 0.8500(5)
C11_2 C 0.9067(8) 0.2230(8) 0.9479(6)
C12_2 C 0.9745(9) 0.2357(8) 0.8879(5)
H5_2 H 0.9369 0.2588 0.8356
C15_2 C 0.7701(9) 0.2419(9) 0.9260(6)
H15_2 H 0.496869 0.0360848 0.787841
H16_2 H 0.4136 0.0248031 0.856349
O3_2 O 0.9044(6) 0.9387(5) 0.3283(4)
O19_2 O 0.8304(9) 0.5702(6) 0.3187(5)
H13_2 H 0.78779 0.556536 0.253286
H14_2 H 0.765144 0.557881 0.349829
K1 K 0.7817(2) 0.0242(2) 0.44486(15)
K1_2 K 0.2183(2) 0.9758(2) 0.55514(15)
K2 K 0.2688(3) 0.4904(2) 0.94218(16)
K2_2 K 0.7312(3) 0.5096(2) 0.05782(16)
loop_
_geom_bond_atom_site_label_1
_geom_bond_atom_site_label_2
_geom_bond_site_symmetry_1
_geom_bond_site_symmetry_2
O3 Gd1 1_555 1_555
O19 Gd1 1_555 1_555
O21 Gd1 1_555 1_555
O22 Gd1 1_555 1_555
O24 Gd1 1_555 1_555
O30 Gd1 1_555 1_555
O19 H13 1_555 1_555
O19 H14 1_555 1_555
Gd2 O6 1_555 1_555
O6 C15 1_555 1_555
O7 Gd2 1_555 1_555
O20 Gd2 1_555 1_555
C12 C11 1_555 1_555
H5 C12 1_555 1_555
C15 O7 1_555 1_555
O23 Gd2 1_555 1_555
O25 Gd2 1_555 1_555
O26 Gd2 1_555 1_555
O29 Gd2 1_555 1_555
C11 C15 1_555 1_555
O20 H15 1_555 1_555
O20 H16 1_555 1_555
H4 C10 1_555 1_555
O2 C7 1_555 1_555
O10 C17 1_555 1_555
O25 C23 1_555 1_555
O26 C23 1_555 1_555
O13 C24 1_555 1_555
O14 C24 1_555 1_555
O17 C32 1_555 1_555
O30 C32 1_555 1_555
C17 C18 1_555 1_555
C18 H7 1_555 1_555
C19 C18 1_555 1_555
C20 C19 1_555 1_555
C21 C20 1_555 1_555
H8 C21 1_555 1_555
C22 C17 1_555 1_555
H9 C22 1_555 1_555
C23 C19 1_555 1_555
C24 C20 1_555 1_555
C25 O10 1_555 1_555
C26 C25 1_555 1_555
H10 C26 1_555 1_555
C27 C26 1_555 1_555
C28 C27 1_555 1_555
H11 C28 1_555 1_555
C29 C28 1_555 1_555
C30 C25 1_555 1_555
H12 C30 1_555 1_555
C31 O15 1_555 1_555
C32 C29 1_555 1_555
Gd9 O17 1_555 1_555
O16 C31 1_555 1_555
C21 C22 1_555 1_555
C27 C31 1_555 1_555
C29 C30 1_555 1_555
O23 C16 1_555 1_555
O9 C16 1_555 1_555
H6 C14 1_555 1_555
C16 C13 1_555 1_555
Gd5 O9 1_555 1_555
C13 C14 1_555 1_555
O1 C1 1_555 1_555
O4 C8 1_555 1_555
O5 C8 1_555 1_555
C1 C2 1_555 1_555
C3 C2 1_555 1_555
C4 C3 1_555 1_555
C5 C4 1_555 1_555
H2 C5 1_555 1_555
C6 C1 1_555 1_555
H3 C6 1_555 1_555
C8 C4 1_555 1_555
C9 O1 1_555 1_555
Gd5 O4 1_555 1_555
O5 Gd5 1_555 1_555
C5 C6 1_555 1_555
O1_2 C1_2 1_555 1_555
O21 C8_2 1_555 1_555
O22 C8_2 1_555 1_555
C1_2 C2_2 1_555 1_555
C3_2 C2_2 1_555 1_555
C4_2 C3_2 1_555 1_555
C5_2 C4_2 1_555 1_555
H2_2 C5_2 1_555 1_555
C6_2 C1_2 1_555 1_555
H3_2 C6_2 1_555 1_555
C8_2 C4_2 1_555 1_555
C9_2 O1_2 1_555 1_555
C5_2 C6_2 1_555 1_555
O8 C16_2 1_555 1_555
O24 C16_2 1_555 1_555
H6_2 C14_2 1_555 1_555
C16_2 C13_2 1_555 1_555
Gd9 O8 1_555 1_555
C13_2 C14_2 1_555 1_555
O2_2 C7_2 1_555 1_555
O10_2 C17_2 1_555 1_555
O11 C23_2 1_555 1_555
O12 C23_2 1_555 1_555
O27 C24_2 1_555 1_555
O28 C24_2 1_555 1_555
O29 C32_2 1_555 1_555
O18 C32_2 1_555 1_555
C17_2 C18_2 1_555 1_555
C18_2 H7_2 1_555 1_555
C19_2 C18_2 1_555 1_555
C20_2 C19_2 1_555 1_555
C21_2 C20_2 1_555 1_555
H8_2 C21_2 1_555 1_555
C22_2 C17_2 1_555 1_555
H9_2 C22_2 1_555 1_555
C23_2 C19_2 1_555 1_555
C24_2 C20_2 1_555 1_555
C25_2 O10_2 1_555 1_555
C26_2 C25_2 1_555 1_555
H10_2 C26_2 1_555 1_555
C27_2 C26_2 1_555 1_555
C28_2 C27_2 1_555 1_555
H11_2 C28_2 1_555 1_555
C29_2 C28_2 1_555 1_555
C30_2 C25_2 1_555 1_555
H12_2 C30_2 1_555 1_555
C31_2 O15_2 1_555 1_555
C32_2 C29_2 1_555 1_555
Gd5 O18 1_555 1_555
Gd9 O11 1_555 1_555
O12 Gd9 1_555 1_555
O16_2 C31_2 1_555 1_555
C21_2 C22_2 1_555 1_555
C27_2 C31_2 1_555 1_555
C29_2 C30_2 1_555 1_555
H4_2 C10_2 1_555 1_555
Gd9 O6_2 1_555 1_555
O6_2 C15_2 1_555 1_555
O7_2 Gd9 1_555 1_555
O20_2 Gd9 1_555 1_555
C12_2 C11_2 1_555 1_555
H5_2 C12_2 1_555 1_555
C15_2 O7_2 1_555 1_555
C11_2 C15_2 1_555 1_555
O20_2 H15_2 1_555 1_555
O20_2 H16_2 1_555 1_555
O3_2 Gd5 1_555 1_555
O19_2 Gd5 1_555 1_555
O19_2 H13_2 1_555 1_555
O19_2 H14_2 1_555 1_555

#END
