
###############################################################################
#
# This file contains modified crystal structure data generated from the
# MOF subset of the Cambridge Structural Database (CSD) v543 
# hosted by the Cambridge Crystallographic Data Centre (CCDC).
#
# This work is licensed under the Creative Commons
# Attribution-NonCommercial-ShareAlike 4.0 International License.
# To view a copy of this license, visit
# http://creativecommons.org/licenses/by-nc-sa/4.0/
# or send a letter to
# Creative Commons, PO Box 1866, Mountain View, CA 94042, USA.
#
# CIF created using the CSD Python API on 29 September 2022
# The structure has been converted into the P1 space group
# The structure has a 3D framework
# The original CSD entry AVAKAL02 is in the cubic crystal system
# The framework has been calculated to contain at least 10.0% void space
# The void calculation uses a probe of radius 1.32A, grid spacing 0.4
# H atom positions have been added when not included in the experimental data
# Generated hydrogen atom positions removed from atoms on special positions
#
###############################################################################

data_AVAKAL02
_chemical_formula_moiety         '(C312 H288 Cu24 N8 O72)n'
_symmetry_cell_setting           triclinic
_symmetry_space_group_name_H-M   'P 1'
_symmetry_Int_Tables_number      1
_space_group_name_Hall           'P 1'
loop_
_symmetry_equiv_pos_site_id
_symmetry_equiv_pos_as_xyz
1 x,y,z
_cell_length_a                   35.490(4)
_cell_length_b                   35.490(4)
_cell_length_c                   35.490(4)
_cell_angle_alpha                90
_cell_angle_beta                 90
_cell_angle_gamma                90
_cell_volume                     44701.1
loop_
_atom_site_label
_atom_site_type_symbol
_atom_site_fract_x
_atom_site_fract_y
_atom_site_fract_z
Cu6 Cu 0.0000 0.78721(4) 0.5000
Cu7 Cu 0.0000 0.71279(4) 0.5000
Cu1 Cu 0.5000 0.0000 0.21279(4)
N1 N 0.2500 0.2500 0.2500
O1 O 0.5000 0.0000 0.14745(18)
O2 O 0.46254(17) 0.03746(18) 0.21922(16)
C1 C 0.4492(2) 0.0508(2) 0.2500
C2 C 0.4210(3) 0.0790(3) 0.2500
C3 C 0.4067(3) 0.0951(3) 0.2181(2)
H1 H 0.4157 0.0872 0.1948
C4 C 0.3770(3) 0.1251(3) 0.2191(3)
H2 H 0.3694 0.1345 0.1959
C5 C 0.3596(4) 0.1404(4) 0.2500
C6 C 0.3313(3) 0.1687(3) 0.2500
C7 C 0.3198(3) 0.1785(3) 0.2141(3)
H3 H 0.3293 0.1685 0.1919
C8 C 0.2932(3) 0.2044(3) 0.2164(2)
H4 H 0.2826 0.2128 0.1940
C9 C 0.27945(17) 0.22055(17) 0.2500
O3 O 0.21922(16) 0.46254(17) 0.03746(18)
C10 C 0.2500 0.4492(2) 0.0508(2)
C11 C 0.2500 0.4210(3) 0.0790(3)
C12 C 0.2181(2) 0.4067(3) 0.0951(3)
H5 H 0.1948 0.4157 0.0872
C13 C 0.2191(3) 0.3770(3) 0.1251(3)
H6 H 0.1959 0.3694 0.1345
C14 C 0.2500 0.3596(4) 0.1404(4)
C15 C 0.2500 0.3313(3) 0.1687(3)
C16 C 0.2141(3) 0.3198(3) 0.1785(3)
H7 H 0.1919 0.3293 0.1685
C17 C 0.2164(2) 0.2932(3) 0.2044(3)
H8 H 0.1940 0.2826 0.2128
C18 C 0.2500 0.27945(17) 0.22055(17)
O4 O 0.03746(18) 0.21922(16) 0.46254(17)
C19 C 0.0508(2) 0.2500 0.4492(2)
C20 C 0.0790(3) 0.2500 0.4210(3)
C21 C 0.0951(3) 0.2181(2) 0.4067(3)
H9 H 0.0872 0.1948 0.4157
C22 C 0.1251(3) 0.2191(3) 0.3770(3)
H10 H 0.1345 0.1959 0.3694
C23 C 0.1404(4) 0.2500 0.3596(4)
C24 C 0.1687(3) 0.2500 0.3313(3)
C25 C 0.1785(3) 0.2141(3) 0.3198(3)
H11 H 0.1685 0.1919 0.3293
C26 C 0.2044(3) 0.2164(2) 0.2932(3)
H12 H 0.2128 0.1940 0.2826
C27 C 0.22055(17) 0.2500 0.27945(17)
O5 O 0.46254(18) 0.03746(17) 0.28078(16)
C28 C 0.4049(3) 0.0933(3) 0.2819(2)
H13 H 0.4128 0.0843 0.3052
C29 C 0.3749(3) 0.1230(3) 0.2809(3)
H14 H 0.3655 0.1306 0.3041
C30 C 0.3215(3) 0.1802(3) 0.2859(3)
H15 H 0.3315 0.1707 0.3081
C31 C 0.2956(3) 0.2068(3) 0.2836(2)
H16 H 0.2872 0.2174 0.3060
O6 O 0.03746(17) 0.28078(16) 0.46254(18)
C32 C 0.0933(3) 0.2819(2) 0.4049(3)
H17 H 0.0843 0.3052 0.4128
C33 C 0.1230(3) 0.2809(3) 0.3749(3)
H18 H 0.1306 0.3041 0.3655
C34 C 0.1802(3) 0.2859(3) 0.3215(3)
H19 H 0.1707 0.3081 0.3315
C35 C 0.2068(3) 0.2836(2) 0.2956(3)
H20 H 0.2174 0.3060 0.2872
O7 O 0.28078(16) 0.46254(18) 0.03746(17)
C36 C 0.2819(2) 0.4049(3) 0.0933(3)
H21 H 0.3052 0.4128 0.0843
C37 C 0.2809(3) 0.3749(3) 0.1230(3)
H22 H 0.3041 0.3655 0.1306
C38 C 0.2859(3) 0.3215(3) 0.1802(3)
H23 H 0.3081 0.3315 0.1707
C39 C 0.2836(2) 0.2956(3) 0.2068(3)
H24 H 0.3060 0.2872 0.2174
Cu2 Cu 0.5000 0.0000 0.28721(4)
O14 O 0.5000 0.0000 0.35255(18)
Cu3 Cu 0.21279(4) 0.5000 0.0000
O15 O 0.14745(18) 0.5000 0.0000
Cu5 Cu 0.0000 0.21279(4) 0.5000
Cu8 Cu 0.0000 0.28721(4) 0.5000
Cu10 Cu 0.28721(4) 0.5000 0.0000
O18 O 0.53746(17) 0.03746(18) 0.21922(16)
O20 O 0.21922(16) 0.53746(17) 0.03746(18)
O22 O 0.53746(18) 0.03746(17) 0.28078(16)
Cu3_2 Cu 0.21279(4) 0.5000 1.0000
O15_2 O 0.14745(18) 0.5000 1.0000
Cu10_2 Cu 0.28721(4) 0.5000 1.0000
O16 O 0.21922(16) 0.53746(17) 0.96254(18)
O19 O 0.21922(16) 0.46254(17) 0.96254(18)
Cu1_2 Cu 0.5000 1.0000 0.21279(4)
O1_2 O 0.5000 1.0000 0.14745(18)
N2 N 0.7500 0.7500 0.2500
O8 O 0.53746(17) 0.96254(18) 0.21922(16)
C40 C 0.5508(2) 0.9492(2) 0.2500
C41 C 0.5790(3) 0.9210(3) 0.2500
C42 C 0.5933(3) 0.9049(3) 0.2181(2)
H25 H 0.5843 0.9128 0.1948
C43 C 0.6230(3) 0.8749(3) 0.2191(3)
H26 H 0.6306 0.8655 0.1959
C44 C 0.6404(4) 0.8596(4) 0.2500
C45 C 0.6687(3) 0.8313(3) 0.2500
C46 C 0.6802(3) 0.8215(3) 0.2141(3)
H27 H 0.6707 0.8315 0.1919
C47 C 0.7068(3) 0.7956(3) 0.2164(2)
H28 H 0.7174 0.7872 0.1940
C48 C 0.72055(17) 0.77945(17) 0.2500
O9 O 0.78078(16) 0.53746(17) 0.03746(18)
C49 C 0.7500 0.5508(2) 0.0508(2)
C50 C 0.7500 0.5790(3) 0.0790(3)
C51 C 0.7819(2) 0.5933(3) 0.0951(3)
H29 H 0.8052 0.5843 0.0872
C52 C 0.7809(3) 0.6230(3) 0.1251(3)
H30 H 0.8041 0.6306 0.1345
C53 C 0.7500 0.6404(4) 0.1404(4)
C54 C 0.7500 0.6687(3) 0.1687(3)
C55 C 0.7859(3) 0.6802(3) 0.1785(3)
H31 H 0.8081 0.6707 0.1685
C56 C 0.7836(2) 0.7068(3) 0.2044(3)
H32 H 0.8060 0.7174 0.2128
C57 C 0.7500 0.72055(17) 0.22055(17)
O10 O 0.96254(18) 0.78078(16) 0.46254(17)
C58 C 0.9492(2) 0.7500 0.4492(2)
C59 C 0.9210(3) 0.7500 0.4210(3)
C60 C 0.9049(3) 0.7819(2) 0.4067(3)
H33 H 0.9128 0.8052 0.4157
C61 C 0.8749(3) 0.7809(3) 0.3770(3)
H34 H 0.8655 0.8041 0.3694
C62 C 0.8596(4) 0.7500 0.3596(4)
C63 C 0.8313(3) 0.7500 0.3313(3)
C64 C 0.8215(3) 0.7859(3) 0.3198(3)
H35 H 0.8315 0.8081 0.3293
C65 C 0.7956(3) 0.7836(2) 0.2932(3)
H36 H 0.7872 0.8060 0.2826
C66 C 0.77945(17) 0.7500 0.27945(17)
O11 O 0.53746(18) 0.96254(17) 0.28078(16)
C67 C 0.5951(3) 0.9067(3) 0.2819(2)
H37 H 0.5872 0.9157 0.3052
C68 C 0.6251(3) 0.8770(3) 0.2809(3)
H38 H 0.6345 0.8694 0.3041
C69 C 0.6785(3) 0.8198(3) 0.2859(3)
H39 H 0.6685 0.8293 0.3081
C70 C 0.7044(3) 0.7932(3) 0.2836(2)
H40 H 0.7128 0.7826 0.3060
O12 O 0.96254(17) 0.71922(16) 0.46254(18)
C71 C 0.9067(3) 0.7181(2) 0.4049(3)
H41 H 0.9157 0.6948 0.4128
C72 C 0.8770(3) 0.7191(3) 0.3749(3)
H42 H 0.8694 0.6959 0.3655
C73 C 0.8198(3) 0.7141(3) 0.3215(3)
H43 H 0.8293 0.6919 0.3315
C74 C 0.7932(3) 0.7164(2) 0.2956(3)
H44 H 0.7826 0.6940 0.2872
O13 O 0.71922(16) 0.53746(18) 0.03746(17)
C75 C 0.7181(2) 0.5951(3) 0.0933(3)
H45 H 0.6948 0.5872 0.0843
C76 C 0.7191(3) 0.6251(3) 0.1230(3)
H46 H 0.6959 0.6345 0.1306
C77 C 0.7141(3) 0.6785(3) 0.1802(3)
H47 H 0.6919 0.6685 0.1707
C78 C 0.7164(2) 0.7044(3) 0.2068(3)
H48 H 0.6940 0.7128 0.2174
Cu2_2 Cu 0.5000 1.0000 0.28721(4)
O14_2 O 0.5000 1.0000 0.35255(18)
Cu4 Cu 0.78721(4) 0.5000 0.0000
Cu6_2 Cu 1.0000 0.78721(4) 0.5000
Cu7_2 Cu 1.0000 0.71279(4) 0.5000
Cu9 Cu 0.71279(4) 0.5000 0.0000
O17 O 0.46254(17) 0.96254(18) 0.21922(16)
O21 O 0.46254(18) 0.96254(17) 0.28078(16)
Cu4_2 Cu 0.78721(4) 0.5000 1.0000
Cu9_2 Cu 0.71279(4) 0.5000 1.0000
Cu5_2 Cu 1.0000 0.21279(4) 0.5000
Cu8_2 Cu 1.0000 0.28721(4) 0.5000
O15_3 O 0.85255(18) 0.5000 0.0000
O20_2 O 0.78078(16) 0.46254(17) 0.03746(18)
O15_4 O 0.85255(18) 0.5000 1.0000
O16_2 O 0.78078(16) 0.46254(17) 0.96254(18)
O19_2 O 0.78078(16) 0.53746(17) 0.96254(18)
Cu1_3 Cu 0.5000 0.0000 0.78721(4)
N1_2 N 0.7500 0.2500 0.7500
O1_3 O 0.5000 0.0000 0.85255(18)
O2_2 O 0.53746(17) 0.03746(18) 0.78078(16)
C1_2 C 0.5508(2) 0.0508(2) 0.7500
C2_2 C 0.5790(3) 0.0790(3) 0.7500
C3_2 C 0.5933(3) 0.0951(3) 0.7819(2)
H1_2 H 0.5843 0.0872 0.8052
C4_2 C 0.6230(3) 0.1251(3) 0.7809(3)
H2_2 H 0.6306 0.1345 0.8041
C5_2 C 0.6404(4) 0.1404(4) 0.7500
C6_2 C 0.6687(3) 0.1687(3) 0.7500
C7_2 C 0.6802(3) 0.1785(3) 0.7859(3)
H3_2 H 0.6707 0.1685 0.8081
C8_2 C 0.7068(3) 0.2044(3) 0.7836(2)
H4_2 H 0.7174 0.2128 0.8060
C9_2 C 0.72055(17) 0.22055(17) 0.7500
C10_2 C 0.7500 0.4492(2) 0.9492(2)
C11_2 C 0.7500 0.4210(3) 0.9210(3)
C12_2 C 0.7819(2) 0.4067(3) 0.9049(3)
H5_2 H 0.8052 0.4157 0.9128
C13_2 C 0.7809(3) 0.3770(3) 0.8749(3)
H6_2 H 0.8041 0.3694 0.8655
C14_2 C 0.7500 0.3596(4) 0.8596(4)
C15_2 C 0.7500 0.3313(3) 0.8313(3)
C16_2 C 0.7859(3) 0.3198(3) 0.8215(3)
H7_2 H 0.8081 0.3293 0.8315
C17_2 C 0.7836(2) 0.2932(3) 0.7956(3)
H8_2 H 0.8060 0.2826 0.7872
C18_2 C 0.7500 0.27945(17) 0.77945(17)
O4_2 O 0.96254(18) 0.21922(16) 0.53746(17)
C19_2 C 0.9492(2) 0.2500 0.5508(2)
C20_2 C 0.9210(3) 0.2500 0.5790(3)
C21_2 C 0.9049(3) 0.2181(2) 0.5933(3)
H9_2 H 0.9128 0.1948 0.5843
C22_2 C 0.8749(3) 0.2191(3) 0.6230(3)
H10_2 H 0.8655 0.1959 0.6306
C23_2 C 0.8596(4) 0.2500 0.6404(4)
C24_2 C 0.8313(3) 0.2500 0.6687(3)
C25_2 C 0.8215(3) 0.2141(3) 0.6802(3)
H11_2 H 0.8315 0.1919 0.6707
C26_2 C 0.7956(3) 0.2164(2) 0.7068(3)
H12_2 H 0.7872 0.1940 0.7174
C27_2 C 0.77945(17) 0.2500 0.72055(17)
O5_2 O 0.53746(18) 0.03746(17) 0.71922(16)
C28_2 C 0.5951(3) 0.0933(3) 0.7181(2)
H13_2 H 0.5872 0.0843 0.6948
C29_2 C 0.6251(3) 0.1230(3) 0.7191(3)
H14_2 H 0.6345 0.1306 0.6959
C30_2 C 0.6785(3) 0.1802(3) 0.7141(3)
H15_2 H 0.6685 0.1707 0.6919
C31_2 C 0.7044(3) 0.2068(3) 0.7164(2)
H16_2 H 0.7128 0.2174 0.6940
O6_2 O 0.96254(17) 0.28078(16) 0.53746(18)
C32_2 C 0.9067(3) 0.2819(2) 0.5951(3)
H17_2 H 0.9157 0.3052 0.5872
C33_2 C 0.8770(3) 0.2809(3) 0.6251(3)
H18_2 H 0.8694 0.3041 0.6345
C34_2 C 0.8198(3) 0.2859(3) 0.6785(3)
H19_2 H 0.8293 0.3081 0.6685
C35_2 C 0.7932(3) 0.2836(2) 0.7044(3)
H20_2 H 0.7826 0.3060 0.7128
O7_2 O 0.71922(16) 0.46254(18) 0.96254(17)
C36_2 C 0.7181(2) 0.4049(3) 0.9067(3)
H21_2 H 0.6948 0.4128 0.9157
C37_2 C 0.7191(3) 0.3749(3) 0.8770(3)
H22_2 H 0.6959 0.3655 0.8694
C38_2 C 0.7141(3) 0.3215(3) 0.8198(3)
H23_2 H 0.6919 0.3315 0.8293
C39_2 C 0.7164(2) 0.2956(3) 0.7932(3)
H24_2 H 0.6940 0.2872 0.7826
Cu2_3 Cu 0.5000 0.0000 0.71279(4)
O14_3 O 0.5000 0.0000 0.64745(18)
O18_2 O 0.46254(17) 0.03746(18) 0.78078(16)
O22_2 O 0.46254(18) 0.03746(17) 0.71922(16)
Cu1_4 Cu 0.5000 1.0000 0.78721(4)
O1_4 O 0.5000 1.0000 0.85255(18)
N2_2 N 0.2500 0.7500 0.7500
O8_2 O 0.46254(17) 0.96254(18) 0.78078(16)
C40_2 C 0.4492(2) 0.9492(2) 0.7500
C41_2 C 0.4210(3) 0.9210(3) 0.7500
C42_2 C 0.4067(3) 0.9049(3) 0.7819(2)
H25_2 H 0.4157 0.9128 0.8052
C43_2 C 0.3770(3) 0.8749(3) 0.7809(3)
H26_2 H 0.3694 0.8655 0.8041
C44_2 C 0.3596(4) 0.8596(4) 0.7500
C45_2 C 0.3313(3) 0.8313(3) 0.7500
C46_2 C 0.3198(3) 0.8215(3) 0.7859(3)
H27_2 H 0.3293 0.8315 0.8081
C47_2 C 0.2932(3) 0.7956(3) 0.7836(2)
H28_2 H 0.2826 0.7872 0.8060
C48_2 C 0.27945(17) 0.77945(17) 0.7500
C49_2 C 0.2500 0.5508(2) 0.9492(2)
C50_2 C 0.2500 0.5790(3) 0.9210(3)
C51_2 C 0.2181(2) 0.5933(3) 0.9049(3)
H29_2 H 0.1948 0.5843 0.9128
C52_2 C 0.2191(3) 0.6230(3) 0.8749(3)
H30_2 H 0.1959 0.6306 0.8655
C53_2 C 0.2500 0.6404(4) 0.8596(4)
C54_2 C 0.2500 0.6687(3) 0.8313(3)
C55_2 C 0.2141(3) 0.6802(3) 0.8215(3)
H31_2 H 0.1919 0.6707 0.8315
C56_2 C 0.2164(2) 0.7068(3) 0.7956(3)
H32_2 H 0.1940 0.7174 0.7872
C57_2 C 0.2500 0.72055(17) 0.77945(17)
O10_2 O 0.03746(18) 0.78078(16) 0.53746(17)
C58_2 C 0.0508(2) 0.7500 0.5508(2)
C59_2 C 0.0790(3) 0.7500 0.5790(3)
C60_2 C 0.0951(3) 0.7819(2) 0.5933(3)
H33_2 H 0.0872 0.8052 0.5843
C61_2 C 0.1251(3) 0.7809(3) 0.6230(3)
H34_2 H 0.1345 0.8041 0.6306
C62_2 C 0.1404(4) 0.7500 0.6404(4)
C63_2 C 0.1687(3) 0.7500 0.6687(3)
C64_2 C 0.1785(3) 0.7859(3) 0.6802(3)
H35_2 H 0.1685 0.8081 0.6707
C65_2 C 0.2044(3) 0.7836(2) 0.7068(3)
H36_2 H 0.2128 0.8060 0.7174
C66_2 C 0.22055(17) 0.7500 0.72055(17)
O11_2 O 0.46254(18) 0.96254(17) 0.71922(16)
C67_2 C 0.4049(3) 0.9067(3) 0.7181(2)
H37_2 H 0.4128 0.9157 0.6948
C68_2 C 0.3749(3) 0.8770(3) 0.7191(3)
H38_2 H 0.3655 0.8694 0.6959
C69_2 C 0.3215(3) 0.8198(3) 0.7141(3)
H39_2 H 0.3315 0.8293 0.6919
C70_2 C 0.2956(3) 0.7932(3) 0.7164(2)
H40_2 H 0.2872 0.7826 0.6940
O12_2 O 0.03746(17) 0.71922(16) 0.53746(18)
C71_2 C 0.0933(3) 0.7181(2) 0.5951(3)
H41_2 H 0.0843 0.6948 0.5872
C72_2 C 0.1230(3) 0.7191(3) 0.6251(3)
H42_2 H 0.1306 0.6959 0.6345
C73_2 C 0.1802(3) 0.7141(3) 0.6785(3)
H43_2 H 0.1707 0.6919 0.6685
C74_2 C 0.2068(3) 0.7164(2) 0.7044(3)
H44_2 H 0.2174 0.6940 0.7128
O13_2 O 0.28078(16) 0.53746(18) 0.96254(17)
C75_2 C 0.2819(2) 0.5951(3) 0.9067(3)
H45_2 H 0.3052 0.5872 0.9157
C76_2 C 0.2809(3) 0.6251(3) 0.8770(3)
H46_2 H 0.3041 0.6345 0.8694
C77_2 C 0.2859(3) 0.6785(3) 0.8198(3)
H47_2 H 0.3081 0.6685 0.8293
C78_2 C 0.2836(2) 0.7044(3) 0.7932(3)
H48_2 H 0.3060 0.7128 0.7826
Cu2_4 Cu 0.5000 1.0000 0.71279(4)
O14_4 O 0.5000 1.0000 0.64745(18)
O17_2 O 0.53746(17) 0.96254(18) 0.78078(16)
O21_2 O 0.53746(18) 0.96254(17) 0.71922(16)
O14_5 O 0.35255(18) 0.5000 0.0000
O15_5 O 0.0000 0.14745(18) 0.5000
O20_3 O 0.03746(18) 0.21922(16) 0.53746(17)
O22_3 O 0.28078(16) 0.53746(18) 0.03746(17)
O14_6 O 0.35255(18) 0.5000 1.0000
O21_3 O 0.28078(16) 0.46254(18) 0.96254(17)
O15_6 O 1.0000 0.14745(18) 0.5000
O19_3 O 0.96254(18) 0.21922(16) 0.46254(17)
O15_7 O -0.0000 0.85255(18) 0.5000
O20_4 O 0.03746(18) 0.78078(16) 0.46254(17)
O15_8 O 1.0000 0.85255(18) 0.5000
O19_4 O 0.96254(18) 0.78078(16) 0.53746(17)
O14_7 O 0.64745(18) 0.5000 0.0000
O22_4 O 0.71922(16) 0.46254(18) 0.03746(17)
O14_8 O 0.64745(18) 0.5000 1.0000
O21_4 O 0.71922(16) 0.53746(18) 0.96254(17)
O14_9 O 0.0000 0.35255(18) 0.5000
O22_5 O 0.03746(17) 0.28078(16) 0.53746(18)
O14_10 O 1.0000 0.35255(18) 0.5000
O21_5 O 0.96254(17) 0.28078(16) 0.46254(18)
O14_11 O 0.0000 0.64745(18) 0.5000
O22_6 O 0.03746(17) 0.71922(16) 0.46254(18)
O14_12 O 1.0000 0.64745(18) 0.5000
O21_6 O 0.96254(17) 0.71922(16) 0.53746(18)
N2_3 N 0.2500 0.2500 0.7500
C40_3 C 0.4492(2) 0.0508(2) 0.7500
C41_3 C 0.4210(3) 0.0790(3) 0.7500
C42_3 C 0.4067(3) 0.0951(3) 0.7819(2)
H25_3 H 0.4157 0.0872 0.8052
C43_3 C 0.3770(3) 0.1251(3) 0.7809(3)
H26_3 H 0.3694 0.1345 0.8041
C44_3 C 0.3596(4) 0.1404(4) 0.7500
C45_3 C 0.3313(3) 0.1687(3) 0.7500
C46_3 C 0.3198(3) 0.1785(3) 0.7859(3)
H27_3 H 0.3293 0.1685 0.8081
C47_3 C 0.2932(3) 0.2044(3) 0.7836(2)
H28_3 H 0.2826 0.2128 0.8060
C48_3 C 0.27945(17) 0.22055(17) 0.7500
C49_3 C 0.2500 0.4492(2) 0.9492(2)
C50_3 C 0.2500 0.4210(3) 0.9210(3)
C51_3 C 0.2181(2) 0.4067(3) 0.9049(3)
H29_3 H 0.1948 0.4157 0.9128
C52_3 C 0.2191(3) 0.3770(3) 0.8749(3)
H30_3 H 0.1959 0.3694 0.8655
C53_3 C 0.2500 0.3596(4) 0.8596(4)
C54_3 C 0.2500 0.3313(3) 0.8313(3)
C55_3 C 0.2141(3) 0.3198(3) 0.8215(3)
H31_3 H 0.1919 0.3293 0.8315
C56_3 C 0.2164(2) 0.2932(3) 0.7956(3)
H32_3 H 0.1940 0.2826 0.7872
C57_3 C 0.2500 0.27945(17) 0.77945(17)
C58_3 C 0.0508(2) 0.2500 0.5508(2)
C59_3 C 0.0790(3) 0.2500 0.5790(3)
C60_3 C 0.0951(3) 0.2181(2) 0.5933(3)
H33_3 H 0.0872 0.1948 0.5843
C61_3 C 0.1251(3) 0.2191(3) 0.6230(3)
H34_3 H 0.1345 0.1959 0.6306
C62_3 C 0.1404(4) 0.2500 0.6404(4)
C63_3 C 0.1687(3) 0.2500 0.6687(3)
C64_3 C 0.1785(3) 0.2141(3) 0.6802(3)
H35_3 H 0.1685 0.1919 0.6707
C65_3 C 0.2044(3) 0.2164(2) 0.7068(3)
H36_3 H 0.2128 0.1940 0.7174
C66_3 C 0.22055(17) 0.2500 0.72055(17)
C67_3 C 0.4049(3) 0.0933(3) 0.7181(2)
H37_3 H 0.4128 0.0843 0.6948
C68_3 C 0.3749(3) 0.1230(3) 0.7191(3)
H38_3 H 0.3655 0.1306 0.6959
C69_3 C 0.3215(3) 0.1802(3) 0.7141(3)
H39_3 H 0.3315 0.1707 0.6919
C70_3 C 0.2956(3) 0.2068(3) 0.7164(2)
H40_3 H 0.2872 0.2174 0.6940
C71_3 C 0.0933(3) 0.2819(2) 0.5951(3)
H41_3 H 0.0843 0.3052 0.5872
C72_3 C 0.1230(3) 0.2809(3) 0.6251(3)
H42_3 H 0.1306 0.3041 0.6345
C73_3 C 0.1802(3) 0.2859(3) 0.6785(3)
H43_3 H 0.1707 0.3081 0.6685
C74_3 C 0.2068(3) 0.2836(2) 0.7044(3)
H44_3 H 0.2174 0.3060 0.7128
C75_3 C 0.2819(2) 0.4049(3) 0.9067(3)
H45_3 H 0.3052 0.4128 0.9157
C76_3 C 0.2809(3) 0.3749(3) 0.8770(3)
H46_3 H 0.3041 0.3655 0.8694
C77_3 C 0.2859(3) 0.3215(3) 0.8198(3)
H47_3 H 0.3081 0.3315 0.8293
C78_3 C 0.2836(2) 0.2956(3) 0.7932(3)
H48_3 H 0.3060 0.2872 0.7826
N1_3 N 0.7500 0.7500 0.7500
C1_3 C 0.5508(2) 0.9492(2) 0.7500
C2_3 C 0.5790(3) 0.9210(3) 0.7500
C3_3 C 0.5933(3) 0.9049(3) 0.7819(2)
H1_3 H 0.5843 0.9128 0.8052
C4_3 C 0.6230(3) 0.8749(3) 0.7809(3)
H2_3 H 0.6306 0.8655 0.8041
C5_3 C 0.6404(4) 0.8596(4) 0.7500
C6_3 C 0.6687(3) 0.8313(3) 0.7500
C7_3 C 0.6802(3) 0.8215(3) 0.7859(3)
H3_3 H 0.6707 0.8315 0.8081
C8_3 C 0.7068(3) 0.7956(3) 0.7836(2)
H4_3 H 0.7174 0.7872 0.8060
C9_3 C 0.72055(17) 0.77945(17) 0.7500
C10_3 C 0.7500 0.5508(2) 0.9492(2)
C11_3 C 0.7500 0.5790(3) 0.9210(3)
C12_3 C 0.7819(2) 0.5933(3) 0.9049(3)
H5_3 H 0.8052 0.5843 0.9128
C13_3 C 0.7809(3) 0.6230(3) 0.8749(3)
H6_3 H 0.8041 0.6306 0.8655
C14_3 C 0.7500 0.6404(4) 0.8596(4)
C15_3 C 0.7500 0.6687(3) 0.8313(3)
C16_3 C 0.7859(3) 0.6802(3) 0.8215(3)
H7_3 H 0.8081 0.6707 0.8315
C17_3 C 0.7836(2) 0.7068(3) 0.7956(3)
H8_3 H 0.8060 0.7174 0.7872
C18_3 C 0.7500 0.72055(17) 0.77945(17)
C19_3 C 0.9492(2) 0.7500 0.5508(2)
C20_3 C 0.9210(3) 0.7500 0.5790(3)
C21_3 C 0.9049(3) 0.7819(2) 0.5933(3)
H9_3 H 0.9128 0.8052 0.5843
C22_3 C 0.8749(3) 0.7809(3) 0.6230(3)
H10_3 H 0.8655 0.8041 0.6306
C23_3 C 0.8596(4) 0.7500 0.6404(4)
C24_3 C 0.8313(3) 0.7500 0.6687(3)
C25_3 C 0.8215(3) 0.7859(3) 0.6802(3)
H11_3 H 0.8315 0.8081 0.6707
C26_3 C 0.7956(3) 0.7836(2) 0.7068(3)
H12_3 H 0.7872 0.8060 0.7174
C27_3 C 0.77945(17) 0.7500 0.72055(17)
C28_3 C 0.5951(3) 0.9067(3) 0.7181(2)
H13_3 H 0.5872 0.9157 0.6948
C29_3 C 0.6251(3) 0.8770(3) 0.7191(3)
H14_3 H 0.6345 0.8694 0.6959
C30_3 C 0.6785(3) 0.8198(3) 0.7141(3)
H15_3 H 0.6685 0.8293 0.6919
C31_3 C 0.7044(3) 0.7932(3) 0.7164(2)
H16_3 H 0.7128 0.7826 0.6940
C32_3 C 0.9067(3) 0.7181(2) 0.5951(3)
H17_3 H 0.9157 0.6948 0.5872
C33_3 C 0.8770(3) 0.7191(3) 0.6251(3)
H18_3 H 0.8694 0.6959 0.6345
C34_3 C 0.8198(3) 0.7141(3) 0.6785(3)
H19_3 H 0.8293 0.6919 0.6685
C35_3 C 0.7932(3) 0.7164(2) 0.7044(3)
H20_3 H 0.7826 0.6940 0.7128
C36_3 C 0.7181(2) 0.5951(3) 0.9067(3)
H21_3 H 0.6948 0.5872 0.9157
C37_3 C 0.7191(3) 0.6251(3) 0.8770(3)
H22_3 H 0.6959 0.6345 0.8694
C38_3 C 0.7141(3) 0.6785(3) 0.8198(3)
H23_3 H 0.6919 0.6685 0.8293
C39_3 C 0.7164(2) 0.7044(3) 0.7932(3)
H24_3 H 0.6940 0.7128 0.7826
N2_4 N 0.7500 0.2500 0.2500
C40_4 C 0.5508(2) 0.0508(2) 0.2500
C41_4 C 0.5790(3) 0.0790(3) 0.2500
C42_4 C 0.5933(3) 0.0951(3) 0.2181(2)
H25_4 H 0.5843 0.0872 0.1948
C43_4 C 0.6230(3) 0.1251(3) 0.2191(3)
H26_4 H 0.6306 0.1345 0.1959
C44_4 C 0.6404(4) 0.1404(4) 0.2500
C45_4 C 0.6687(3) 0.1687(3) 0.2500
C46_4 C 0.6802(3) 0.1785(3) 0.2141(3)
H27_4 H 0.6707 0.1685 0.1919
C47_4 C 0.7068(3) 0.2044(3) 0.2164(2)
H28_4 H 0.7174 0.2128 0.1940
C48_4 C 0.72055(17) 0.22055(17) 0.2500
C49_4 C 0.7500 0.4492(2) 0.0508(2)
C50_4 C 0.7500 0.4210(3) 0.0790(3)
C51_4 C 0.7819(2) 0.4067(3) 0.0951(3)
H29_4 H 0.8052 0.4157 0.0872
C52_4 C 0.7809(3) 0.3770(3) 0.1251(3)
H30_4 H 0.8041 0.3694 0.1345
C53_4 C 0.7500 0.3596(4) 0.1404(4)
C54_4 C 0.7500 0.3313(3) 0.1687(3)
C55_4 C 0.7859(3) 0.3198(3) 0.1785(3)
H31_4 H 0.8081 0.3293 0.1685
C56_4 C 0.7836(2) 0.2932(3) 0.2044(3)
H32_4 H 0.8060 0.2826 0.2128
C57_4 C 0.7500 0.27945(17) 0.22055(17)
C58_4 C 0.9492(2) 0.2500 0.4492(2)
C59_4 C 0.9210(3) 0.2500 0.4210(3)
C60_4 C 0.9049(3) 0.2181(2) 0.4067(3)
H33_4 H 0.9128 0.1948 0.4157
C61_4 C 0.8749(3) 0.2191(3) 0.3770(3)
H34_4 H 0.8655 0.1959 0.3694
C62_4 C 0.8596(4) 0.2500 0.3596(4)
C63_4 C 0.8313(3) 0.2500 0.3313(3)
C64_4 C 0.8215(3) 0.2141(3) 0.3198(3)
H35_4 H 0.8315 0.1919 0.3293
C65_4 C 0.7956(3) 0.2164(2) 0.2932(3)
H36_4 H 0.7872 0.1940 0.2826
C66_4 C 0.77945(17) 0.2500 0.27945(17)
C67_4 C 0.5951(3) 0.0933(3) 0.2819(2)
H37_4 H 0.5872 0.0843 0.3052
C68_4 C 0.6251(3) 0.1230(3) 0.2809(3)
H38_4 H 0.6345 0.1306 0.3041
C69_4 C 0.6785(3) 0.1802(3) 0.2859(3)
H39_4 H 0.6685 0.1707 0.3081
C70_4 C 0.7044(3) 0.2068(3) 0.2836(2)
H40_4 H 0.7128 0.2174 0.3060
C71_4 C 0.9067(3) 0.2819(2) 0.4049(3)
H41_4 H 0.9157 0.3052 0.4128
C72_4 C 0.8770(3) 0.2809(3) 0.3749(3)
H42_4 H 0.8694 0.3041 0.3655
C73_4 C 0.8198(3) 0.2859(3) 0.3215(3)
H43_4 H 0.8293 0.3081 0.3315
C74_4 C 0.7932(3) 0.2836(2) 0.2956(3)
H44_4 H 0.7826 0.3060 0.2872
C75_4 C 0.7181(2) 0.4049(3) 0.0933(3)
H45_4 H 0.6948 0.4128 0.0843
C76_4 C 0.7191(3) 0.3749(3) 0.1230(3)
H46_4 H 0.6959 0.3655 0.1306
C77_4 C 0.7141(3) 0.3215(3) 0.1802(3)
H47_4 H 0.6919 0.3315 0.1707
C78_4 C 0.7164(2) 0.2956(3) 0.2068(3)
H48_4 H 0.6940 0.2872 0.2174
N1_4 N 0.2500 0.7500 0.2500
C1_4 C 0.4492(2) 0.9492(2) 0.2500
C2_4 C 0.4210(3) 0.9210(3) 0.2500
C3_4 C 0.4067(3) 0.9049(3) 0.2181(2)
H1_4 H 0.4157 0.9128 0.1948
C4_4 C 0.3770(3) 0.8749(3) 0.2191(3)
H2_4 H 0.3694 0.8655 0.1959
C5_4 C 0.3596(4) 0.8596(4) 0.2500
C6_4 C 0.3313(3) 0.8313(3) 0.2500
C7_4 C 0.3198(3) 0.8215(3) 0.2141(3)
H3_4 H 0.3293 0.8315 0.1919
C8_4 C 0.2932(3) 0.7956(3) 0.2164(2)
H4_4 H 0.2826 0.7872 0.1940
C9_4 C 0.27945(17) 0.77945(17) 0.2500
C10_4 C 0.2500 0.5508(2) 0.0508(2)
C11_4 C 0.2500 0.5790(3) 0.0790(3)
C12_4 C 0.2181(2) 0.5933(3) 0.0951(3)
H5_4 H 0.1948 0.5843 0.0872
C13_4 C 0.2191(3) 0.6230(3) 0.1251(3)
H6_4 H 0.1959 0.6306 0.1345
C14_4 C 0.2500 0.6404(4) 0.1404(4)
C15_4 C 0.2500 0.6687(3) 0.1687(3)
C16_4 C 0.2141(3) 0.6802(3) 0.1785(3)
H7_4 H 0.1919 0.6707 0.1685
C17_4 C 0.2164(2) 0.7068(3) 0.2044(3)
H8_4 H 0.1940 0.7174 0.2128
C18_4 C 0.2500 0.72055(17) 0.22055(17)
C19_4 C 0.0508(2) 0.7500 0.4492(2)
C20_4 C 0.0790(3) 0.7500 0.4210(3)
C21_4 C 0.0951(3) 0.7819(2) 0.4067(3)
H9_4 H 0.0872 0.8052 0.4157
C22_4 C 0.1251(3) 0.7809(3) 0.3770(3)
H10_4 H 0.1345 0.8041 0.3694
C23_4 C 0.1404(4) 0.7500 0.3596(4)
C24_4 C 0.1687(3) 0.7500 0.3313(3)
C25_4 C 0.1785(3) 0.7859(3) 0.3198(3)
H11_4 H 0.1685 0.8081 0.3293
C26_4 C 0.2044(3) 0.7836(2) 0.2932(3)
H12_4 H 0.2128 0.8060 0.2826
C27_4 C 0.22055(17) 0.7500 0.27945(17)
C28_4 C 0.4049(3) 0.9067(3) 0.2819(2)
H13_4 H 0.4128 0.9157 0.3052
C29_4 C 0.3749(3) 0.8770(3) 0.2809(3)
H14_4 H 0.3655 0.8694 0.3041
C30_4 C 0.3215(3) 0.8198(3) 0.2859(3)
H15_4 H 0.3315 0.8293 0.3081
C31_4 C 0.2956(3) 0.7932(3) 0.2836(2)
H16_4 H 0.2872 0.7826 0.3060
C32_4 C 0.0933(3) 0.7181(2) 0.4049(3)
H17_4 H 0.0843 0.6948 0.4128
C33_4 C 0.1230(3) 0.7191(3) 0.3749(3)
H18_4 H 0.1306 0.6959 0.3655
C34_4 C 0.1802(3) 0.7141(3) 0.3215(3)
H19_4 H 0.1707 0.6919 0.3315
C35_4 C 0.2068(3) 0.7164(2) 0.2956(3)
H20_4 H 0.2174 0.6940 0.2872
C36_4 C 0.2819(2) 0.5951(3) 0.0933(3)
H21_4 H 0.3052 0.5872 0.0843
C37_4 C 0.2809(3) 0.6251(3) 0.1230(3)
H22_4 H 0.3041 0.6345 0.1306
C38_4 C 0.2859(3) 0.6785(3) 0.1802(3)
H23_4 H 0.3081 0.6685 0.1707
C39_4 C 0.2836(2) 0.7044(3) 0.2068(3)
H24_4 H 0.3060 0.7128 0.2174
loop_
_geom_bond_atom_site_label_1
_geom_bond_atom_site_label_2
_geom_bond_site_symmetry_1
_geom_bond_site_symmetry_2
Cu6 Cu7 1_555 1_555
Cu1 O1 1_555 1_555
N1 C9 1_555 1_555
O2 Cu1 1_555 1_555
C1 O2 1_555 1_555
C2 C1 1_555 1_555
C3 C2 1_555 1_555
H1 C3 1_555 1_555
C4 C3 1_555 1_555
H2 C4 1_555 1_555
C5 C4 1_555 1_555
C6 C5 1_555 1_555
C7 C6 1_555 1_555
H3 C7 1_555 1_555
C8 C7 1_555 1_555
H4 C8 1_555 1_555
C9 C8 1_555 1_555
O3 C10 1_555 1_555
C10 C11 1_555 1_555
C11 C12 1_555 1_555
C12 H5 1_555 1_555
C13 C12 1_555 1_555
H6 C13 1_555 1_555
C14 C13 1_555 1_555
C15 C14 1_555 1_555
C16 C15 1_555 1_555
H7 C16 1_555 1_555
C17 C16 1_555 1_555
H8 C17 1_555 1_555
C18 N1 1_555 1_555
O4 C19 1_555 1_555
C19 C20 1_555 1_555
C20 C21 1_555 1_555
C21 H9 1_555 1_555
C22 C21 1_555 1_555
H10 C22 1_555 1_555
C23 C22 1_555 1_555
C24 C23 1_555 1_555
C25 C24 1_555 1_555
H11 C25 1_555 1_555
C26 C25 1_555 1_555
H12 C26 1_555 1_555
C27 N1 1_555 1_555
O5 C1 1_555 1_555
C28 C2 1_555 1_555
H13 C28 1_555 1_555
C29 C5 1_555 1_555
H14 C29 1_555 1_555
C30 C6 1_555 1_555
H15 C30 1_555 1_555
C31 C9 1_555 1_555
H16 C31 1_555 1_555
O6 C19 1_555 1_555
C32 C20 1_555 1_555
H17 C32 1_555 1_555
C33 C23 1_555 1_555
H18 C33 1_555 1_555
C34 C24 1_555 1_555
H19 C34 1_555 1_555
C35 C27 1_555 1_555
H20 C35 1_555 1_555
O7 C10 1_555 1_555
C36 C11 1_555 1_555
H21 C36 1_555 1_555
C37 C14 1_555 1_555
H22 C37 1_555 1_555
C38 C15 1_555 1_555
H23 C38 1_555 1_555
C39 C18 1_555 1_555
H24 C39 1_555 1_555
Cu2 Cu1 1_555 1_555
O14 Cu2 1_555 1_555
Cu3 O3 1_555 1_555
O15 Cu3 1_555 1_555
Cu5 O4 1_555 1_555
Cu8 O6 1_555 1_555
Cu10 O7 1_555 1_555
O18 Cu1 1_555 1_555
O20 Cu3 1_555 1_555
O22 Cu2 1_555 1_555
C17 C18 1_555 1_555
C26 C27 1_555 1_555
O5 Cu2 1_555 1_555
C28 C29 1_555 1_555
C30 C31 1_555 1_555
C32 C33 1_555 1_555
C34 C35 1_555 1_555
C36 C37 1_555 1_555
C38 C39 1_555 1_555
Cu3 Cu10 1_555 1_555
Cu5 Cu8 1_555 1_555
O15_2 Cu3_2 1_555 1_555
O16 Cu3_2 1_555 1_555
O19 Cu3_2 1_555 1_555
Cu3_2 Cu10_2 1_555 1_555
Cu1_2 O1_2 1_555 1_555
N2 C48 1_555 1_555
O8 Cu1_2 1_555 1_555
C40 O8 1_555 1_555
C41 C40 1_555 1_555
C42 C41 1_555 1_555
H25 C42 1_555 1_555
C43 C42 1_555 1_555
H26 C43 1_555 1_555
C44 C43 1_555 1_555
C45 C44 1_555 1_555
C46 C45 1_555 1_555
H27 C46 1_555 1_555
C47 C46 1_555 1_555
H28 C47 1_555 1_555
C48 C47 1_555 1_555
O9 C49 1_555 1_555
C49 C50 1_555 1_555
C50 C51 1_555 1_555
C51 H29 1_555 1_555
C52 C51 1_555 1_555
H30 C52 1_555 1_555
C53 C52 1_555 1_555
C54 C53 1_555 1_555
C55 C54 1_555 1_555
H31 C55 1_555 1_555
C56 C55 1_555 1_555
H32 C56 1_555 1_555
C57 N2 1_555 1_555
O10 C58 1_555 1_555
C58 C59 1_555 1_555
C59 C60 1_555 1_555
C60 H33 1_555 1_555
C61 C60 1_555 1_555
H34 C61 1_555 1_555
C62 C61 1_555 1_555
C63 C62 1_555 1_555
C64 C63 1_555 1_555
H35 C64 1_555 1_555
C65 C64 1_555 1_555
H36 C65 1_555 1_555
C66 N2 1_555 1_555
O11 C40 1_555 1_555
C67 C41 1_555 1_555
H37 C67 1_555 1_555
C68 C44 1_555 1_555
H38 C68 1_555 1_555
C69 C45 1_555 1_555
H39 C69 1_555 1_555
C70 C48 1_555 1_555
H40 C70 1_555 1_555
O12 C58 1_555 1_555
C71 C59 1_555 1_555
H41 C71 1_555 1_555
C72 C62 1_555 1_555
H42 C72 1_555 1_555
C73 C63 1_555 1_555
H43 C73 1_555 1_555
C74 C66 1_555 1_555
H44 C74 1_555 1_555
O13 C49 1_555 1_555
C75 C50 1_555 1_555
H45 C75 1_555 1_555
C76 C53 1_555 1_555
H46 C76 1_555 1_555
C77 C54 1_555 1_555
H47 C77 1_555 1_555
C78 C57 1_555 1_555
H48 C78 1_555 1_555
Cu2_2 Cu1_2 1_555 1_555
O14_2 Cu2_2 1_555 1_555
Cu4 O9 1_555 1_555
Cu6_2 O10 1_555 1_555
Cu7_2 O12 1_555 1_555
Cu9 O13 1_555 1_555
O17 Cu1_2 1_555 1_555
O21 Cu2_2 1_555 1_555
C56 C57 1_555 1_555
C65 C66 1_555 1_555
O11 Cu2_2 1_555 1_555
C67 C68 1_555 1_555
C69 C70 1_555 1_555
C71 C72 1_555 1_555
C73 C74 1_555 1_555
C75 C76 1_555 1_555
C77 C78 1_555 1_555
Cu4 Cu9 1_555 1_555
Cu6_2 Cu7_2 1_555 1_555
Cu4_2 Cu9_2 1_555 1_555
Cu5_2 Cu8_2 1_555 1_555
O15_3 Cu4 1_555 1_555
O20_2 Cu4 1_555 1_555
O15_4 Cu4_2 1_555 1_555
O16_2 Cu4_2 1_555 1_555
O19_2 Cu4_2 1_555 1_555
Cu1_3 O1_3 1_555 1_555
N1_2 C9_2 1_555 1_555
O2_2 Cu1_3 1_555 1_555
C1_2 O2_2 1_555 1_555
C2_2 C1_2 1_555 1_555
C3_2 C2_2 1_555 1_555
H1_2 C3_2 1_555 1_555
C4_2 C3_2 1_555 1_555
H2_2 C4_2 1_555 1_555
C5_2 C4_2 1_555 1_555
C6_2 C5_2 1_555 1_555
C7_2 C6_2 1_555 1_555
H3_2 C7_2 1_555 1_555
C8_2 C7_2 1_555 1_555
H4_2 C8_2 1_555 1_555
C9_2 C8_2 1_555 1_555
O16_2 C10_2 1_555 1_555
C10_2 C11_2 1_555 1_555
C11_2 C12_2 1_555 1_555
C12_2 H5_2 1_555 1_555
C13_2 C12_2 1_555 1_555
H6_2 C13_2 1_555 1_555
C14_2 C13_2 1_555 1_555
C15_2 C14_2 1_555 1_555
C16_2 C15_2 1_555 1_555
H7_2 C16_2 1_555 1_555
C17_2 C16_2 1_555 1_555
H8_2 C17_2 1_555 1_555
C18_2 N1_2 1_555 1_555
O4_2 C19_2 1_555 1_555
C19_2 C20_2 1_555 1_555
C20_2 C21_2 1_555 1_555
C21_2 H9_2 1_555 1_555
C22_2 C21_2 1_555 1_555
H10_2 C22_2 1_555 1_555
C23_2 C22_2 1_555 1_555
C24_2 C23_2 1_555 1_555
C25_2 C24_2 1_555 1_555
H11_2 C25_2 1_555 1_555
C26_2 C25_2 1_555 1_555
H12_2 C26_2 1_555 1_555
C27_2 N1_2 1_555 1_555
O5_2 C1_2 1_555 1_555
C28_2 C2_2 1_555 1_555
H13_2 C28_2 1_555 1_555
C29_2 C5_2 1_555 1_555
H14_2 C29_2 1_555 1_555
C30_2 C6_2 1_555 1_555
H15_2 C30_2 1_555 1_555
C31_2 C9_2 1_555 1_555
H16_2 C31_2 1_555 1_555
O6_2 C19_2 1_555 1_555
C32_2 C20_2 1_555 1_555
H17_2 C32_2 1_555 1_555
C33_2 C23_2 1_555 1_555
H18_2 C33_2 1_555 1_555
C34_2 C24_2 1_555 1_555
H19_2 C34_2 1_555 1_555
C35_2 C27_2 1_555 1_555
H20_2 C35_2 1_555 1_555
O7_2 C10_2 1_555 1_555
C36_2 C11_2 1_555 1_555
H21_2 C36_2 1_555 1_555
C37_2 C14_2 1_555 1_555
H22_2 C37_2 1_555 1_555
C38_2 C15_2 1_555 1_555
H23_2 C38_2 1_555 1_555
C39_2 C18_2 1_555 1_555
H24_2 C39_2 1_555 1_555
Cu2_3 Cu1_3 1_555 1_555
O14_3 Cu2_3 1_555 1_555
Cu5_2 O4_2 1_555 1_555
Cu8_2 O6_2 1_555 1_555
Cu9_2 O7_2 1_555 1_555
O18_2 Cu1_3 1_555 1_555
O22_2 Cu2_3 1_555 1_555
C17_2 C18_2 1_555 1_555
C26_2 C27_2 1_555 1_555
O5_2 Cu2_3 1_555 1_555
C28_2 C29_2 1_555 1_555
C30_2 C31_2 1_555 1_555
C32_2 C33_2 1_555 1_555
C34_2 C35_2 1_555 1_555
C36_2 C37_2 1_555 1_555
C38_2 C39_2 1_555 1_555
Cu1_4 O1_4 1_555 1_555
N2_2 C48_2 1_555 1_555
O8_2 Cu1_4 1_555 1_555
C40_2 O8_2 1_555 1_555
C41_2 C40_2 1_555 1_555
C42_2 C41_2 1_555 1_555
H25_2 C42_2 1_555 1_555
C43_2 C42_2 1_555 1_555
H26_2 C43_2 1_555 1_555
C44_2 C43_2 1_555 1_555
C45_2 C44_2 1_555 1_555
C46_2 C45_2 1_555 1_555
H27_2 C46_2 1_555 1_555
C47_2 C46_2 1_555 1_555
H28_2 C47_2 1_555 1_555
C48_2 C47_2 1_555 1_555
O16 C49_2 1_555 1_555
C49_2 C50_2 1_555 1_555
C50_2 C51_2 1_555 1_555
C51_2 H29_2 1_555 1_555
C52_2 C51_2 1_555 1_555
H30_2 C52_2 1_555 1_555
C53_2 C52_2 1_555 1_555
C54_2 C53_2 1_555 1_555
C55_2 C54_2 1_555 1_555
H31_2 C55_2 1_555 1_555
C56_2 C55_2 1_555 1_555
H32_2 C56_2 1_555 1_555
C57_2 N2_2 1_555 1_555
O10_2 C58_2 1_555 1_555
C58_2 C59_2 1_555 1_555
C59_2 C60_2 1_555 1_555
C60_2 H33_2 1_555 1_555
C61_2 C60_2 1_555 1_555
H34_2 C61_2 1_555 1_555
C62_2 C61_2 1_555 1_555
C63_2 C62_2 1_555 1_555
C64_2 C63_2 1_555 1_555
H35_2 C64_2 1_555 1_555
C65_2 C64_2 1_555 1_555
H36_2 C65_2 1_555 1_555
C66_2 N2_2 1_555 1_555
O11_2 C40_2 1_555 1_555
C67_2 C41_2 1_555 1_555
H37_2 C67_2 1_555 1_555
C68_2 C44_2 1_555 1_555
H38_2 C68_2 1_555 1_555
C69_2 C45_2 1_555 1_555
H39_2 C69_2 1_555 1_555
C70_2 C48_2 1_555 1_555
H40_2 C70_2 1_555 1_555
O12_2 C58_2 1_555 1_555
C71_2 C59_2 1_555 1_555
H41_2 C71_2 1_555 1_555
C72_2 C62_2 1_555 1_555
H42_2 C72_2 1_555 1_555
C73_2 C63_2 1_555 1_555
H43_2 C73_2 1_555 1_555
C74_2 C66_2 1_555 1_555
H44_2 C74_2 1_555 1_555
O13_2 C49_2 1_555 1_555
C75_2 C50_2 1_555 1_555
H45_2 C75_2 1_555 1_555
C76_2 C53_2 1_555 1_555
H46_2 C76_2 1_555 1_555
C77_2 C54_2 1_555 1_555
H47_2 C77_2 1_555 1_555
C78_2 C57_2 1_555 1_555
H48_2 C78_2 1_555 1_555
Cu2_4 Cu1_4 1_555 1_555
O14_4 Cu2_4 1_555 1_555
Cu6 O10_2 1_555 1_555
Cu7 O12_2 1_555 1_555
Cu10_2 O13_2 1_555 1_555
O17_2 Cu1_4 1_555 1_555
O21_2 Cu2_4 1_555 1_555
C56_2 C57_2 1_555 1_555
C65_2 C66_2 1_555 1_555
O11_2 Cu2_4 1_555 1_555
C67_2 C68_2 1_555 1_555
C69_2 C70_2 1_555 1_555
C71_2 C72_2 1_555 1_555
C73_2 C74_2 1_555 1_555
C75_2 C76_2 1_555 1_555
C77_2 C78_2 1_555 1_555
O14_5 Cu10 1_555 1_555
O15_5 Cu5 1_555 1_555
O20_3 Cu5 1_555 1_555
O22_3 Cu10 1_555 1_555
O14_6 Cu10_2 1_555 1_555
O21_3 Cu10_2 1_555 1_555
O15_6 Cu5_2 1_555 1_555
O19_3 Cu5_2 1_555 1_555
O15_7 Cu6 1_555 1_555
O20_4 Cu6 1_555 1_555
O15_8 Cu6_2 1_555 1_555
O19_4 Cu6_2 1_555 1_555
O14_7 Cu9 1_555 1_555
O22_4 Cu9 1_555 1_555
O14_8 Cu9_2 1_555 1_555
O21_4 Cu9_2 1_555 1_555
O14_9 Cu8 1_555 1_555
O22_5 Cu8 1_555 1_555
O14_10 Cu8_2 1_555 1_555
O21_5 Cu8_2 1_555 1_555
O14_11 Cu7 1_555 1_555
O22_6 Cu7 1_555 1_555
O14_12 Cu7_2 1_555 1_555
O21_6 Cu7_2 1_555 1_555
N2_3 C48_3 1_555 1_555
C40_3 O18_2 1_555 1_555
C41_3 C40_3 1_555 1_555
C42_3 C41_3 1_555 1_555
H25_3 C42_3 1_555 1_555
C43_3 C42_3 1_555 1_555
H26_3 C43_3 1_555 1_555
C44_3 C43_3 1_555 1_555
C45_3 C44_3 1_555 1_555
C46_3 C45_3 1_555 1_555
H27_3 C46_3 1_555 1_555
C47_3 C46_3 1_555 1_555
H28_3 C47_3 1_555 1_555
C48_3 C47_3 1_555 1_555
O19 C49_3 1_555 1_555
C49_3 C50_3 1_555 1_555
C50_3 C51_3 1_555 1_555
C51_3 H29_3 1_555 1_555
C52_3 C51_3 1_555 1_555
H30_3 C52_3 1_555 1_555
C53_3 C52_3 1_555 1_555
C54_3 C53_3 1_555 1_555
C55_3 C54_3 1_555 1_555
H31_3 C55_3 1_555 1_555
C56_3 C55_3 1_555 1_555
H32_3 C56_3 1_555 1_555
C57_3 N2_3 1_555 1_555
O20_3 C58_3 1_555 1_555
C58_3 C59_3 1_555 1_555
C59_3 C60_3 1_555 1_555
C60_3 H33_3 1_555 1_555
C61_3 C60_3 1_555 1_555
H34_3 C61_3 1_555 1_555
C62_3 C61_3 1_555 1_555
C63_3 C62_3 1_555 1_555
C64_3 C63_3 1_555 1_555
H35_3 C64_3 1_555 1_555
C65_3 C64_3 1_555 1_555
H36_3 C65_3 1_555 1_555
C66_3 N2_3 1_555 1_555
O22_2 C40_3 1_555 1_555
C67_3 C41_3 1_555 1_555
H37_3 C67_3 1_555 1_555
C68_3 C44_3 1_555 1_555
H38_3 C68_3 1_555 1_555
C69_3 C45_3 1_555 1_555
H39_3 C69_3 1_555 1_555
C70_3 C48_3 1_555 1_555
H40_3 C70_3 1_555 1_555
O22_5 C58_3 1_555 1_555
C71_3 C59_3 1_555 1_555
H41_3 C71_3 1_555 1_555
C72_3 C62_3 1_555 1_555
H42_3 C72_3 1_555 1_555
C73_3 C63_3 1_555 1_555
H43_3 C73_3 1_555 1_555
C74_3 C66_3 1_555 1_555
H44_3 C74_3 1_555 1_555
O21_3 C49_3 1_555 1_555
C75_3 C50_3 1_555 1_555
H45_3 C75_3 1_555 1_555
C76_3 C53_3 1_555 1_555
H46_3 C76_3 1_555 1_555
C77_3 C54_3 1_555 1_555
H47_3 C77_3 1_555 1_555
C78_3 C57_3 1_555 1_555
H48_3 C78_3 1_555 1_555
C56_3 C57_3 1_555 1_555
C65_3 C66_3 1_555 1_555
C67_3 C68_3 1_555 1_555
C69_3 C70_3 1_555 1_555
C71_3 C72_3 1_555 1_555
C73_3 C74_3 1_555 1_555
C75_3 C76_3 1_555 1_555
C77_3 C78_3 1_555 1_555
N1_3 C9_3 1_555 1_555
C1_3 O17_2 1_555 1_555
C2_3 C1_3 1_555 1_555
C3_3 C2_3 1_555 1_555
H1_3 C3_3 1_555 1_555
C4_3 C3_3 1_555 1_555
H2_3 C4_3 1_555 1_555
C5_3 C4_3 1_555 1_555
C6_3 C5_3 1_555 1_555
C7_3 C6_3 1_555 1_555
H3_3 C7_3 1_555 1_555
C8_3 C7_3 1_555 1_555
H4_3 C8_3 1_555 1_555
C9_3 C8_3 1_555 1_555
O19_2 C10_3 1_555 1_555
C10_3 C11_3 1_555 1_555
C11_3 C12_3 1_555 1_555
C12_3 H5_3 1_555 1_555
C13_3 C12_3 1_555 1_555
H6_3 C13_3 1_555 1_555
C14_3 C13_3 1_555 1_555
C15_3 C14_3 1_555 1_555
C16_3 C15_3 1_555 1_555
H7_3 C16_3 1_555 1_555
C17_3 C16_3 1_555 1_555
H8_3 C17_3 1_555 1_555
C18_3 N1_3 1_555 1_555
O19_4 C19_3 1_555 1_555
C19_3 C20_3 1_555 1_555
C20_3 C21_3 1_555 1_555
C21_3 H9_3 1_555 1_555
C22_3 C21_3 1_555 1_555
H10_3 C22_3 1_555 1_555
C23_3 C22_3 1_555 1_555
C24_3 C23_3 1_555 1_555
C25_3 C24_3 1_555 1_555
H11_3 C25_3 1_555 1_555
C26_3 C25_3 1_555 1_555
H12_3 C26_3 1_555 1_555
C27_3 N1_3 1_555 1_555
O21_2 C1_3 1_555 1_555
C28_3 C2_3 1_555 1_555
H13_3 C28_3 1_555 1_555
C29_3 C5_3 1_555 1_555
H14_3 C29_3 1_555 1_555
C30_3 C6_3 1_555 1_555
H15_3 C30_3 1_555 1_555
C31_3 C9_3 1_555 1_555
H16_3 C31_3 1_555 1_555
O21_6 C19_3 1_555 1_555
C32_3 C20_3 1_555 1_555
H17_3 C32_3 1_555 1_555
C33_3 C23_3 1_555 1_555
H18_3 C33_3 1_555 1_555
C34_3 C24_3 1_555 1_555
H19_3 C34_3 1_555 1_555
C35_3 C27_3 1_555 1_555
H20_3 C35_3 1_555 1_555
O21_4 C10_3 1_555 1_555
C36_3 C11_3 1_555 1_555
H21_3 C36_3 1_555 1_555
C37_3 C14_3 1_555 1_555
H22_3 C37_3 1_555 1_555
C38_3 C15_3 1_555 1_555
H23_3 C38_3 1_555 1_555
C39_3 C18_3 1_555 1_555
H24_3 C39_3 1_555 1_555
C17_3 C18_3 1_555 1_555
C26_3 C27_3 1_555 1_555
C28_3 C29_3 1_555 1_555
C30_3 C31_3 1_555 1_555
C32_3 C33_3 1_555 1_555
C34_3 C35_3 1_555 1_555
C36_3 C37_3 1_555 1_555
C38_3 C39_3 1_555 1_555
N2_4 C48_4 1_555 1_555
C40_4 O18 1_555 1_555
C41_4 C40_4 1_555 1_555
C42_4 C41_4 1_555 1_555
H25_4 C42_4 1_555 1_555
C43_4 C42_4 1_555 1_555
H26_4 C43_4 1_555 1_555
C44_4 C43_4 1_555 1_555
C45_4 C44_4 1_555 1_555
C46_4 C45_4 1_555 1_555
H27_4 C46_4 1_555 1_555
C47_4 C46_4 1_555 1_555
H28_4 C47_4 1_555 1_555
C48_4 C47_4 1_555 1_555
O20_2 C49_4 1_555 1_555
C49_4 C50_4 1_555 1_555
C50_4 C51_4 1_555 1_555
C51_4 H29_4 1_555 1_555
C52_4 C51_4 1_555 1_555
H30_4 C52_4 1_555 1_555
C53_4 C52_4 1_555 1_555
C54_4 C53_4 1_555 1_555
C55_4 C54_4 1_555 1_555
H31_4 C55_4 1_555 1_555
C56_4 C55_4 1_555 1_555
H32_4 C56_4 1_555 1_555
C57_4 N2_4 1_555 1_555
O19_3 C58_4 1_555 1_555
C58_4 C59_4 1_555 1_555
C59_4 C60_4 1_555 1_555
C60_4 H33_4 1_555 1_555
C61_4 C60_4 1_555 1_555
H34_4 C61_4 1_555 1_555
C62_4 C61_4 1_555 1_555
C63_4 C62_4 1_555 1_555
C64_4 C63_4 1_555 1_555
H35_4 C64_4 1_555 1_555
C65_4 C64_4 1_555 1_555
H36_4 C65_4 1_555 1_555
C66_4 N2_4 1_555 1_555
O22 C40_4 1_555 1_555
C67_4 C41_4 1_555 1_555
H37_4 C67_4 1_555 1_555
C68_4 C44_4 1_555 1_555
H38_4 C68_4 1_555 1_555
C69_4 C45_4 1_555 1_555
H39_4 C69_4 1_555 1_555
C70_4 C48_4 1_555 1_555
H40_4 C70_4 1_555 1_555
O21_5 C58_4 1_555 1_555
C71_4 C59_4 1_555 1_555
H41_4 C71_4 1_555 1_555
C72_4 C62_4 1_555 1_555
H42_4 C72_4 1_555 1_555
C73_4 C63_4 1_555 1_555
H43_4 C73_4 1_555 1_555
C74_4 C66_4 1_555 1_555
H44_4 C74_4 1_555 1_555
O22_4 C49_4 1_555 1_555
C75_4 C50_4 1_555 1_555
H45_4 C75_4 1_555 1_555
C76_4 C53_4 1_555 1_555
H46_4 C76_4 1_555 1_555
C77_4 C54_4 1_555 1_555
H47_4 C77_4 1_555 1_555
C78_4 C57_4 1_555 1_555
H48_4 C78_4 1_555 1_555
C56_4 C57_4 1_555 1_555
C65_4 C66_4 1_555 1_555
C67_4 C68_4 1_555 1_555
C69_4 C70_4 1_555 1_555
C71_4 C72_4 1_555 1_555
C73_4 C74_4 1_555 1_555
C75_4 C76_4 1_555 1_555
C77_4 C78_4 1_555 1_555
N1_4 C9_4 1_555 1_555
C1_4 O17 1_555 1_555
C2_4 C1_4 1_555 1_555
C3_4 C2_4 1_555 1_555
H1_4 C3_4 1_555 1_555
C4_4 C3_4 1_555 1_555
H2_4 C4_4 1_555 1_555
C5_4 C4_4 1_555 1_555
C6_4 C5_4 1_555 1_555
C7_4 C6_4 1_555 1_555
H3_4 C7_4 1_555 1_555
C8_4 C7_4 1_555 1_555
H4_4 C8_4 1_555 1_555
C9_4 C8_4 1_555 1_555
O20 C10_4 1_555 1_555
C10_4 C11_4 1_555 1_555
C11_4 C12_4 1_555 1_555
C12_4 H5_4 1_555 1_555
C13_4 C12_4 1_555 1_555
H6_4 C13_4 1_555 1_555
C14_4 C13_4 1_555 1_555
C15_4 C14_4 1_555 1_555
C16_4 C15_4 1_555 1_555
H7_4 C16_4 1_555 1_555
C17_4 C16_4 1_555 1_555
H8_4 C17_4 1_555 1_555
C18_4 N1_4 1_555 1_555
O20_4 C19_4 1_555 1_555
C19_4 C20_4 1_555 1_555
C20_4 C21_4 1_555 1_555
C21_4 H9_4 1_555 1_555
C22_4 C21_4 1_555 1_555
H10_4 C22_4 1_555 1_555
C23_4 C22_4 1_555 1_555
C24_4 C23_4 1_555 1_555
C25_4 C24_4 1_555 1_555
H11_4 C25_4 1_555 1_555
C26_4 C25_4 1_555 1_555
H12_4 C26_4 1_555 1_555
C27_4 N1_4 1_555 1_555
O21 C1_4 1_555 1_555
C28_4 C2_4 1_555 1_555
H13_4 C28_4 1_555 1_555
C29_4 C5_4 1_555 1_555
H14_4 C29_4 1_555 1_555
C30_4 C6_4 1_555 1_555
H15_4 C30_4 1_555 1_555
C31_4 C9_4 1_555 1_555
H16_4 C31_4 1_555 1_555
O22_6 C19_4 1_555 1_555
C32_4 C20_4 1_555 1_555
H17_4 C32_4 1_555 1_555
C33_4 C23_4 1_555 1_555
H18_4 C33_4 1_555 1_555
C34_4 C24_4 1_555 1_555
H19_4 C34_4 1_555 1_555
C35_4 C27_4 1_555 1_555
H20_4 C35_4 1_555 1_555
O22_3 C10_4 1_555 1_555
C36_4 C11_4 1_555 1_555
H21_4 C36_4 1_555 1_555
C37_4 C14_4 1_555 1_555
H22_4 C37_4 1_555 1_555
C38_4 C15_4 1_555 1_555
H23_4 C38_4 1_555 1_555
C39_4 C18_4 1_555 1_555
H24_4 C39_4 1_555 1_555
C17_4 C18_4 1_555 1_555
C26_4 C27_4 1_555 1_555
C28_4 C29_4 1_555 1_555
C30_4 C31_4 1_555 1_555
C32_4 C33_4 1_555 1_555
C34_4 C35_4 1_555 1_555
C36_4 C37_4 1_555 1_555
C38_4 C39_4 1_555 1_555

#END
