
###############################################################################
#
# This file contains modified crystal structure data generated from the
# MOF subset of the Cambridge Structural Database (CSD) v543 
# hosted by the Cambridge Crystallographic Data Centre (CCDC).
#
# This work is licensed under the Creative Commons
# Attribution-NonCommercial-ShareAlike 4.0 International License.
# To view a copy of this license, visit
# http://creativecommons.org/licenses/by-nc-sa/4.0/
# or send a letter to
# Creative Commons, PO Box 1866, Mountain View, CA 94042, USA.
#
# CIF created using the CSD Python API on 29 September 2022
# The structure has been converted into the P1 space group
# The structure has a 3D framework
# The original CSD entry AVAKEP02 is in the cubic crystal system
# The framework has been calculated to contain at least 10.0% void space
# The void calculation uses a probe of radius 1.32A, grid spacing 0.4
# H atom positions have been added when not included in the experimental data
# Generated hydrogen atom positions removed from atoms on special positions
#
###############################################################################

data_AVAKEP02
_chemical_formula_moiety         '(C384 H384 Cu24 N8 O72)n'
_symmetry_cell_setting           triclinic
_symmetry_space_group_name_H-M   'P 1'
_symmetry_Int_Tables_number      1
_space_group_name_Hall           'P 1'
loop_
_symmetry_equiv_pos_site_id
_symmetry_equiv_pos_as_xyz
1 x,y,z
_cell_length_a                   35.400(4)
_cell_length_b                   35.400(4)
_cell_length_c                   35.400(4)
_cell_angle_alpha                90
_cell_angle_beta                 90
_cell_angle_gamma                90
_cell_volume                     44361.9
loop_
_atom_site_label
_atom_site_type_symbol
_atom_site_fract_x
_atom_site_fract_y
_atom_site_fract_z
Cu3 Cu 0.21228(6) 0.0000 0.5000
O15 O 0.1507(3) 0.0000 0.5000
Cu9 Cu 0.28772(6) 0.0000 0.5000
O16 O 0.21842(18) 0.03940(15) 0.46079(14)
O20 O 0.21842(18) 0.03940(15) 0.53921(14)
Cu5 Cu 0.5000 0.78772(6) 0.0000
Cu8 Cu 0.5000 0.71228(6) 0.0000
Cu1 Cu -0.0000 0.5000 0.78772(6)
O1 O 0.03940(15) 0.53921(14) 0.78158(18)
O2 O -0.0000 0.5000 0.8493(3)
N1 N 0.2500 0.7500 0.7500
C1 C 0.0505(2) 0.5505(2) 0.7500
C2 C 0.0802(2) 0.5802(2) 0.7500
C3 C 0.0958(2) 0.5922(2) 0.7838(3)
H1 H 0.0876 0.5821 0.8066
C4 C 0.1240(2) 0.6193(2) 0.7831(3)
H2 H 0.1351 0.6266 0.8058
C5 C 0.1360(2) 0.6360(2) 0.7500
C6 C 0.1655(2) 0.6655(2) 0.7500
C7 C 0.1926(3) 0.6671(3) 0.7779(3)
H3 H 0.1929 0.6493 0.7972
C8 C 0.2198(3) 0.6960(3) 0.7768(3)
C9 C 0.2235(3) 0.7235(3) 0.7500
C10 C 0.2500 0.6936(3) 0.8064(3)
C11 C 0.2695(4) 0.6522(4) 0.8062(4)
H4 H 0.2503 0.6332 0.8077
H5 H 0.2836 0.6490 0.7833
H6 H 0.2862 0.6500 0.8275
O3 O 0.21842(18) 0.96060(15) 0.53921(14)
C12 C 0.2500 0.9495(2) 0.5505(2)
C13 C 0.2500 0.9198(2) 0.5802(2)
C14 C 0.2162(3) 0.9042(2) 0.5922(2)
H7 H 0.1934 0.9124 0.5821
C15 C 0.2169(3) 0.8760(2) 0.6193(2)
H8 H 0.1942 0.8649 0.6266
C16 C 0.2500 0.8640(2) 0.6360(2)
C17 C 0.2500 0.8345(2) 0.6655(2)
C18 C 0.2221(3) 0.8074(3) 0.6671(3)
H9 H 0.2028 0.8071 0.6493
C19 C 0.2232(3) 0.7802(3) 0.6960(3)
C20 C 0.2500 0.7765(3) 0.7235(3)
C21 C 0.1936(3) 0.7500 0.6936(3)
C22 C 0.1938(4) 0.7305(4) 0.6522(4)
H10 H 0.1923 0.7497 0.6332
H11 H 0.2167 0.7164 0.6490
H12 H 0.1725 0.7138 0.6500
O4 O 0.46079(14) 0.78158(18) 0.96060(15)
C23 C 0.4495(2) 0.7500 0.9495(2)
C24 C 0.4198(2) 0.7500 0.9198(2)
C25 C 0.4078(2) 0.7838(3) 0.9042(2)
H13 H 0.4179 0.8066 0.9124
C26 C 0.3807(2) 0.7831(3) 0.8760(2)
H14 H 0.3734 0.8058 0.8649
C27 C 0.3640(2) 0.7500 0.8640(2)
C28 C 0.3345(2) 0.7500 0.8345(2)
C29 C 0.3329(3) 0.7779(3) 0.8074(3)
H15 H 0.3507 0.7972 0.8071
C30 C 0.3040(3) 0.7768(3) 0.7802(3)
C31 C 0.2765(3) 0.7500 0.7765(3)
C32 C 0.3064(3) 0.8064(3) 0.7500
C33 C 0.3478(4) 0.8062(4) 0.7305(4)
H16 H 0.3668 0.8077 0.7497
H17 H 0.3510 0.7833 0.7164
H18 H 0.3500 0.8275 0.7138
O5 O 0.03921(14) 0.53940(15) 0.71842(18)
C34 C 0.0922(2) 0.5958(2) 0.7162(3)
H19 H 0.0821 0.5876 0.6934
C35 C 0.1193(2) 0.6240(2) 0.7169(3)
H20 H 0.1266 0.6351 0.6942
C36 C 0.1671(3) 0.6926(3) 0.7221(3)
H21 H 0.1493 0.6929 0.7028
C37 C 0.1960(3) 0.7198(3) 0.7232(3)
C38 C 0.1522(4) 0.7695(4) 0.6938(4)
H22 H 0.1332 0.7503 0.6923
H23 H 0.1490 0.7836 0.7167
H24 H 0.1500 0.7862 0.6725
O6 O 0.46060(15) 0.71842(18) 0.96079(14)
C39 C 0.4042(2) 0.7162(3) 0.9078(2)
H25 H 0.4124 0.6934 0.9179
C40 C 0.3760(2) 0.7169(3) 0.8807(2)
H26 H 0.3649 0.6942 0.8734
C41 C 0.3074(3) 0.7221(3) 0.8329(3)
H27 H 0.3071 0.7028 0.8507
C42 C 0.2802(3) 0.7232(3) 0.8040(3)
C43 C 0.2305(4) 0.6938(4) 0.8478(4)
H28 H 0.2497 0.6923 0.8668
H29 H 0.2164 0.7167 0.8510
H30 H 0.2138 0.6725 0.8500
O7 O 0.28158(18) 0.96079(14) 0.53940(15)
C44 C 0.2838(3) 0.9078(2) 0.5958(2)
H31 H 0.3066 0.9179 0.5876
C45 C 0.2831(3) 0.8807(2) 0.6240(2)
H32 H 0.3058 0.8734 0.6351
C46 C 0.2779(3) 0.8329(3) 0.6926(3)
H33 H 0.2972 0.8507 0.6929
C47 C 0.2768(3) 0.8040(3) 0.7198(3)
C48 C 0.3062(4) 0.8478(4) 0.7695(4)
H34 H 0.3077 0.8668 0.7503
H35 H 0.2833 0.8510 0.7836
H36 H 0.3275 0.8500 0.7862
Cu2 Cu -0.0000 0.5000 0.71228(6)
O14 O 0.0000 0.5000 0.6507(3)
Cu3_2 Cu 0.21228(6) 1.0000 0.5000
O15_2 O 0.1507(3) 1.0000 0.5000
Cu5_2 Cu 0.5000 0.78772(6) 1.0000
Cu8_2 Cu 0.5000 0.71228(6) 1.0000
Cu9_2 Cu 0.28772(6) 1.0000 0.5000
O17 O 0.03940(15) 0.46079(14) 0.78158(18)
O19 O 0.21842(18) 0.96060(15) 0.46079(14)
O22 O 0.03921(14) 0.46060(15) 0.71842(18)
Cu6 Cu 0.5000 0.21228(6) 0.0000
Cu7 Cu 0.5000 0.28772(6) 0.0000
Cu1_2 Cu 1.0000 0.5000 0.78772(6)
O2_2 O 1.0000 0.5000 0.8493(3)
O8 O 0.96060(15) 0.46079(14) 0.78158(18)
N2 N 0.7500 0.2500 0.7500
C49 C 0.9495(2) 0.4495(2) 0.7500
C50 C 0.9198(2) 0.4198(2) 0.7500
C51 C 0.9042(2) 0.4078(2) 0.7838(3)
H37 H 0.9124 0.4179 0.8066
C52 C 0.8760(2) 0.3807(2) 0.7831(3)
H38 H 0.8649 0.3734 0.8058
C53 C 0.8640(2) 0.3640(2) 0.7500
C54 C 0.8345(2) 0.3345(2) 0.7500
C55 C 0.8074(3) 0.3329(3) 0.7779(3)
H39 H 0.8071 0.3507 0.7972
C56 C 0.7802(3) 0.3040(3) 0.7768(3)
C57 C 0.7765(3) 0.2765(3) 0.7500
C58 C 0.7500 0.3064(3) 0.8064(3)
C59 C 0.7305(4) 0.3478(4) 0.8062(4)
H40 H 0.7497 0.3668 0.8077
H41 H 0.7164 0.3510 0.7833
H42 H 0.7138 0.3500 0.8275
O9 O 0.78158(18) 0.03940(15) 0.53921(14)
C60 C 0.7500 0.0505(2) 0.5505(2)
C61 C 0.7500 0.0802(2) 0.5802(2)
C62 C 0.7838(3) 0.0958(2) 0.5922(2)
H43 H 0.8066 0.0876 0.5821
C63 C 0.7831(3) 0.1240(2) 0.6193(2)
H44 H 0.8058 0.1351 0.6266
C64 C 0.7500 0.1360(2) 0.6360(2)
C65 C 0.7500 0.1655(2) 0.6655(2)
C66 C 0.7779(3) 0.1926(3) 0.6671(3)
H45 H 0.7972 0.1929 0.6493
C67 C 0.7768(3) 0.2198(3) 0.6960(3)
C68 C 0.7500 0.2235(3) 0.7235(3)
C69 C 0.8064(3) 0.2500 0.6936(3)
C70 C 0.8062(4) 0.2695(4) 0.6522(4)
H46 H 0.8077 0.2503 0.6332
H47 H 0.7833 0.2836 0.6490
H48 H 0.8275 0.2862 0.6500
O10 O 0.53921(14) 0.21842(18) 0.96060(15)
C71 C 0.5505(2) 0.2500 0.9495(2)
C72 C 0.5802(2) 0.2500 0.9198(2)
C73 C 0.5922(2) 0.2162(3) 0.9042(2)
H49 H 0.5821 0.1934 0.9124
C74 C 0.6193(2) 0.2169(3) 0.8760(2)
H50 H 0.6266 0.1942 0.8649
C75 C 0.6360(2) 0.2500 0.8640(2)
C76 C 0.6655(2) 0.2500 0.8345(2)
C77 C 0.6671(3) 0.2221(3) 0.8074(3)
H51 H 0.6493 0.2028 0.8071
C78 C 0.6960(3) 0.2232(3) 0.7802(3)
C79 C 0.7235(3) 0.2500 0.7765(3)
C80 C 0.6936(3) 0.1936(3) 0.7500
C81 C 0.6522(4) 0.1938(4) 0.7305(4)
H52 H 0.6332 0.1923 0.7497
H53 H 0.6490 0.2167 0.7164
H54 H 0.6500 0.1725 0.7138
O11 O 0.96079(14) 0.46060(15) 0.71842(18)
C82 C 0.9078(2) 0.4042(2) 0.7162(3)
H55 H 0.9179 0.4124 0.6934
C83 C 0.8807(2) 0.3760(2) 0.7169(3)
H56 H 0.8734 0.3649 0.6942
C84 C 0.8329(3) 0.3074(3) 0.7221(3)
H57 H 0.8507 0.3071 0.7028
C85 C 0.8040(3) 0.2802(3) 0.7232(3)
C86 C 0.8478(4) 0.2305(4) 0.6938(4)
H58 H 0.8668 0.2497 0.6923
H59 H 0.8510 0.2164 0.7167
H60 H 0.8500 0.2138 0.6725
O12 O 0.53940(15) 0.28158(18) 0.96079(14)
C87 C 0.5958(2) 0.2838(3) 0.9078(2)
H61 H 0.5876 0.3066 0.9179
C88 C 0.6240(2) 0.2831(3) 0.8807(2)
H62 H 0.6351 0.3058 0.8734
C89 C 0.6926(3) 0.2779(3) 0.8329(3)
H63 H 0.6929 0.2972 0.8507
C90 C 0.7198(3) 0.2768(3) 0.8040(3)
C91 C 0.7695(4) 0.3062(4) 0.8478(4)
H64 H 0.7503 0.3077 0.8668
H65 H 0.7836 0.2833 0.8510
H66 H 0.7862 0.3275 0.8500
O13 O 0.71842(18) 0.03921(14) 0.53940(15)
C92 C 0.7162(3) 0.0922(2) 0.5958(2)
H67 H 0.6934 0.0821 0.5876
C93 C 0.7169(3) 0.1193(2) 0.6240(2)
H68 H 0.6942 0.1266 0.6351
C94 C 0.7221(3) 0.1671(3) 0.6926(3)
H69 H 0.7028 0.1493 0.6929
C95 C 0.7232(3) 0.1960(3) 0.7198(3)
C96 C 0.6938(4) 0.1522(4) 0.7695(4)
H70 H 0.6923 0.1332 0.7503
H71 H 0.7167 0.1490 0.7836
H72 H 0.6725 0.1500 0.7862
Cu2_2 Cu 1.0000 0.5000 0.71228(6)
O14_2 O 1.0000 0.5000 0.6507(3)
Cu4 Cu 0.78772(6) 0.0000 0.5000
Cu6_2 Cu 0.5000 0.21228(6) 1.0000
Cu7_2 Cu 0.5000 0.28772(6) 1.0000
Cu10 Cu 0.71228(6) 0.0000 0.5000
O18 O 0.96060(15) 0.53921(14) 0.78158(18)
O21 O 0.96079(14) 0.53940(15) 0.71842(18)
Cu4_2 Cu 0.78772(6) 1.0000 0.5000
Cu10_2 Cu 0.71228(6) 1.0000 0.5000
O15_3 O 0.8493(3) 0.0000 0.5000
O19_2 O 0.78158(18) 0.03940(15) 0.46079(14)
O15_4 O 0.8493(3) 1.0000 0.5000
O16_2 O 0.78158(18) 0.96060(15) 0.46079(14)
O20_2 O 0.78158(18) 0.96060(15) 0.53921(14)
Cu1_3 Cu 0.0000 0.5000 0.21228(6)
O2_3 O 0.0000 0.5000 0.1507(3)
O8_2 O 0.03940(15) 0.46079(14) 0.21842(18)
N2_2 N 0.2500 0.2500 0.2500
C49_2 C 0.0505(2) 0.4495(2) 0.2500
C50_2 C 0.0802(2) 0.4198(2) 0.2500
C51_2 C 0.0958(2) 0.4078(2) 0.2162(3)
H37_2 H 0.0876 0.4179 0.1934
C52_2 C 0.1240(2) 0.3807(2) 0.2169(3)
H38_2 H 0.1351 0.3734 0.1942
C53_2 C 0.1360(2) 0.3640(2) 0.2500
C54_2 C 0.1655(2) 0.3345(2) 0.2500
C55_2 C 0.1926(3) 0.3329(3) 0.2221(3)
H39_2 H 0.1929 0.3507 0.2028
C56_2 C 0.2198(3) 0.3040(3) 0.2232(3)
C57_2 C 0.2235(3) 0.2765(3) 0.2500
C58_2 C 0.2500 0.3064(3) 0.1936(3)
C59_2 C 0.2695(4) 0.3478(4) 0.1938(4)
H40_2 H 0.2503 0.3668 0.1923
H41_2 H 0.2836 0.3510 0.2167
H42_2 H 0.2862 0.3500 0.1725
C60_2 C 0.2500 0.0505(2) 0.4495(2)
C61_2 C 0.2500 0.0802(2) 0.4198(2)
C62_2 C 0.2162(3) 0.0958(2) 0.4078(2)
H43_2 H 0.1934 0.0876 0.4179
C63_2 C 0.2169(3) 0.1240(2) 0.3807(2)
H44_2 H 0.1942 0.1351 0.3734
C64_2 C 0.2500 0.1360(2) 0.3640(2)
C65_2 C 0.2500 0.1655(2) 0.3345(2)
C66_2 C 0.2221(3) 0.1926(3) 0.3329(3)
H45_2 H 0.2028 0.1929 0.3507
C67_2 C 0.2232(3) 0.2198(3) 0.3040(3)
C68_2 C 0.2500 0.2235(3) 0.2765(3)
C69_2 C 0.1936(3) 0.2500 0.3064(3)
C70_2 C 0.1938(4) 0.2695(4) 0.3478(4)
H46_2 H 0.1923 0.2503 0.3668
H47_2 H 0.2167 0.2836 0.3510
H48_2 H 0.1725 0.2862 0.3500
O10_2 O 0.46079(14) 0.21842(18) 0.03940(15)
C71_2 C 0.4495(2) 0.2500 0.0505(2)
C72_2 C 0.4198(2) 0.2500 0.0802(2)
C73_2 C 0.4078(2) 0.2162(3) 0.0958(2)
H49_2 H 0.4179 0.1934 0.0876
C74_2 C 0.3807(2) 0.2169(3) 0.1240(2)
H50_2 H 0.3734 0.1942 0.1351
C75_2 C 0.3640(2) 0.2500 0.1360(2)
C76_2 C 0.3345(2) 0.2500 0.1655(2)
C77_2 C 0.3329(3) 0.2221(3) 0.1926(3)
H51_2 H 0.3507 0.2028 0.1929
C78_2 C 0.3040(3) 0.2232(3) 0.2198(3)
C79_2 C 0.2765(3) 0.2500 0.2235(3)
C80_2 C 0.3064(3) 0.1936(3) 0.2500
C81_2 C 0.3478(4) 0.1938(4) 0.2695(4)
H52_2 H 0.3668 0.1923 0.2503
H53_2 H 0.3510 0.2167 0.2836
H54_2 H 0.3500 0.1725 0.2862
O11_2 O 0.03921(14) 0.46060(15) 0.28158(18)
C82_2 C 0.0922(2) 0.4042(2) 0.2838(3)
H55_2 H 0.0821 0.4124 0.3066
C83_2 C 0.1193(2) 0.3760(2) 0.2831(3)
H56_2 H 0.1266 0.3649 0.3058
C84_2 C 0.1671(3) 0.3074(3) 0.2779(3)
H57_2 H 0.1493 0.3071 0.2972
C85_2 C 0.1960(3) 0.2802(3) 0.2768(3)
C86_2 C 0.1522(4) 0.2305(4) 0.3062(4)
H58_2 H 0.1332 0.2497 0.3077
H59_2 H 0.1490 0.2164 0.2833
H60_2 H 0.1500 0.2138 0.3275
O12_2 O 0.46060(15) 0.28158(18) 0.03921(14)
C87_2 C 0.4042(2) 0.2838(3) 0.0922(2)
H61_2 H 0.4124 0.3066 0.0821
C88_2 C 0.3760(2) 0.2831(3) 0.1193(2)
H62_2 H 0.3649 0.3058 0.1266
C89_2 C 0.3074(3) 0.2779(3) 0.1671(3)
H63_2 H 0.3071 0.2972 0.1493
C90_2 C 0.2802(3) 0.2768(3) 0.1960(3)
C91_2 C 0.2305(4) 0.3062(4) 0.1522(4)
H64_2 H 0.2497 0.3077 0.1332
H65_2 H 0.2164 0.2833 0.1490
H66_2 H 0.2138 0.3275 0.1500
O13_2 O 0.28158(18) 0.03921(14) 0.46060(15)
C92_2 C 0.2838(3) 0.0922(2) 0.4042(2)
H67_2 H 0.3066 0.0821 0.4124
C93_2 C 0.2831(3) 0.1193(2) 0.3760(2)
H68_2 H 0.3058 0.1266 0.3649
C94_2 C 0.2779(3) 0.1671(3) 0.3074(3)
H69_2 H 0.2972 0.1493 0.3071
C95_2 C 0.2768(3) 0.1960(3) 0.2802(3)
C96_2 C 0.3062(4) 0.1522(4) 0.2305(4)
H70_2 H 0.3077 0.1332 0.2497
H71_2 H 0.2833 0.1490 0.2164
H72_2 H 0.3275 0.1500 0.2138
Cu2_3 Cu 0.0000 0.5000 0.28772(6)
O14_3 O -0.0000 0.5000 0.3493(3)
O18_2 O 0.03940(15) 0.53921(14) 0.21842(18)
O21_2 O 0.03921(14) 0.53940(15) 0.28158(18)
Cu1_4 Cu 1.0000 0.5000 0.21228(6)
O1_2 O 0.96060(15) 0.53921(14) 0.21842(18)
O2_4 O 1.0000 0.5000 0.1507(3)
N1_2 N 0.7500 0.7500 0.2500
C1_2 C 0.9495(2) 0.5505(2) 0.2500
C2_2 C 0.9198(2) 0.5802(2) 0.2500
C3_2 C 0.9042(2) 0.5922(2) 0.2162(3)
H1_2 H 0.9124 0.5821 0.1934
C4_2 C 0.8760(2) 0.6193(2) 0.2169(3)
H2_2 H 0.8649 0.6266 0.1942
C5_2 C 0.8640(2) 0.6360(2) 0.2500
C6_2 C 0.8345(2) 0.6655(2) 0.2500
C7_2 C 0.8074(3) 0.6671(3) 0.2221(3)
H3_2 H 0.8071 0.6493 0.2028
C8_2 C 0.7802(3) 0.6960(3) 0.2232(3)
C9_2 C 0.7765(3) 0.7235(3) 0.2500
C10_2 C 0.7500 0.6936(3) 0.1936(3)
C11_2 C 0.7305(4) 0.6522(4) 0.1938(4)
H4_2 H 0.7497 0.6332 0.1923
H5_2 H 0.7164 0.6490 0.2167
H6_2 H 0.7138 0.6500 0.1725
C12_2 C 0.7500 0.9495(2) 0.4495(2)
C13_2 C 0.7500 0.9198(2) 0.4198(2)
C14_2 C 0.7838(3) 0.9042(2) 0.4078(2)
H7_2 H 0.8066 0.9124 0.4179
C15_2 C 0.7831(3) 0.8760(2) 0.3807(2)
H8_2 H 0.8058 0.8649 0.3734
C16_2 C 0.7500 0.8640(2) 0.3640(2)
C17_2 C 0.7500 0.8345(2) 0.3345(2)
C18_2 C 0.7779(3) 0.8074(3) 0.3329(3)
H9_2 H 0.7972 0.8071 0.3507
C19_2 C 0.7768(3) 0.7802(3) 0.3040(3)
C20_2 C 0.7500 0.7765(3) 0.2765(3)
C21_2 C 0.8064(3) 0.7500 0.3064(3)
C22_2 C 0.8062(4) 0.7305(4) 0.3478(4)
H10_2 H 0.8077 0.7497 0.3668
H11_2 H 0.7833 0.7164 0.3510
H12_2 H 0.8275 0.7138 0.3500
O4_2 O 0.53921(14) 0.78158(18) 0.03940(15)
C23_2 C 0.5505(2) 0.7500 0.0505(2)
C24_2 C 0.5802(2) 0.7500 0.0802(2)
C25_2 C 0.5922(2) 0.7838(3) 0.0958(2)
H13_2 H 0.5821 0.8066 0.0876
C26_2 C 0.6193(2) 0.7831(3) 0.1240(2)
H14_2 H 0.6266 0.8058 0.1351
C27_2 C 0.6360(2) 0.7500 0.1360(2)
C28_2 C 0.6655(2) 0.7500 0.1655(2)
C29_2 C 0.6671(3) 0.7779(3) 0.1926(3)
H15_2 H 0.6493 0.7972 0.1929
C30_2 C 0.6960(3) 0.7768(3) 0.2198(3)
C31_2 C 0.7235(3) 0.7500 0.2235(3)
C32_2 C 0.6936(3) 0.8064(3) 0.2500
C33_2 C 0.6522(4) 0.8062(4) 0.2695(4)
H16_2 H 0.6332 0.8077 0.2503
H17_2 H 0.6490 0.7833 0.2836
H18_2 H 0.6500 0.8275 0.2862
O5_2 O 0.96079(14) 0.53940(15) 0.28158(18)
C34_2 C 0.9078(2) 0.5958(2) 0.2838(3)
H19_2 H 0.9179 0.5876 0.3066
C35_2 C 0.8807(2) 0.6240(2) 0.2831(3)
H20_2 H 0.8734 0.6351 0.3058
C36_2 C 0.8329(3) 0.6926(3) 0.2779(3)
H21_2 H 0.8507 0.6929 0.2972
C37_2 C 0.8040(3) 0.7198(3) 0.2768(3)
C38_2 C 0.8478(4) 0.7695(4) 0.3062(4)
H22_2 H 0.8668 0.7503 0.3077
H23_2 H 0.8510 0.7836 0.2833
H24_2 H 0.8500 0.7862 0.3275
O6_2 O 0.53940(15) 0.71842(18) 0.03921(14)
C39_2 C 0.5958(2) 0.7162(3) 0.0922(2)
H25_2 H 0.5876 0.6934 0.0821
C40_2 C 0.6240(2) 0.7169(3) 0.1193(2)
H26_2 H 0.6351 0.6942 0.1266
C41_2 C 0.6926(3) 0.7221(3) 0.1671(3)
H27_2 H 0.6929 0.7028 0.1493
C42_2 C 0.7198(3) 0.7232(3) 0.1960(3)
C43_2 C 0.7695(4) 0.6938(4) 0.1522(4)
H28_2 H 0.7503 0.6923 0.1332
H29_2 H 0.7836 0.7167 0.1490
H30_2 H 0.7862 0.6725 0.1500
O7_2 O 0.71842(18) 0.96079(14) 0.46060(15)
C44_2 C 0.7162(3) 0.9078(2) 0.4042(2)
H31_2 H 0.6934 0.9179 0.4124
C45_2 C 0.7169(3) 0.8807(2) 0.3760(2)
H32_2 H 0.6942 0.8734 0.3649
C46_2 C 0.7221(3) 0.8329(3) 0.3074(3)
H33_2 H 0.7028 0.8507 0.3071
C47_2 C 0.7232(3) 0.8040(3) 0.2802(3)
C48_2 C 0.6938(4) 0.8478(4) 0.2305(4)
H34_2 H 0.6923 0.8668 0.2497
H35_2 H 0.7167 0.8510 0.2164
H36_2 H 0.6725 0.8500 0.2138
Cu2_4 Cu 1.0000 0.5000 0.28772(6)
O14_4 O 1.0000 0.5000 0.3493(3)
O17_2 O 0.96060(15) 0.46079(14) 0.21842(18)
O22_2 O 0.96079(14) 0.46060(15) 0.28158(18)
O15_5 O 0.5000 0.1507(3) 0.0000
O20_3 O 0.53921(14) 0.21842(18) 0.03940(15)
O14_5 O 0.6507(3) 0.0000 0.5000
O15_6 O 0.5000 0.1507(3) 1.0000
O19_3 O 0.46079(14) 0.21842(18) 0.96060(15)
O22_3 O 0.71842(18) 0.03921(14) 0.46060(15)
O14_6 O 0.6507(3) 1.0000 0.5000
O21_3 O 0.71842(18) 0.96079(14) 0.53940(15)
O15_7 O 0.5000 0.8493(3) 0.0000
O19_4 O 0.46079(14) 0.78158(18) 0.03940(15)
O15_8 O 0.5000 0.8493(3) 1.0000
O20_4 O 0.53921(14) 0.78158(18) 0.96060(15)
O14_7 O 0.3493(3) 0.0000 0.5000
O21_4 O 0.28158(18) 0.03921(14) 0.53940(15)
O14_8 O 0.3493(3) 1.0000 0.5000
O22_4 O 0.28158(18) 0.96079(14) 0.46060(15)
O14_9 O 0.5000 0.6507(3) 0.0000
O22_5 O 0.46060(15) 0.71842(18) 0.03921(14)
O14_10 O 0.5000 0.6507(3) 1.0000
O21_5 O 0.53940(15) 0.71842(18) 0.96079(14)
O14_11 O 0.5000 0.3493(3) -0.0000
O21_6 O 0.53940(15) 0.28158(18) 0.03921(14)
O14_12 O 0.5000 0.3493(3) 1.0000
O22_6 O 0.46060(15) 0.28158(18) 0.96079(14)
N2_3 N 0.2500 0.7500 0.2500
C49_3 C 0.0505(2) 0.5505(2) 0.2500
C50_3 C 0.0802(2) 0.5802(2) 0.2500
C51_3 C 0.0958(2) 0.5922(2) 0.2162(3)
H37_3 H 0.0876 0.5821 0.1934
C52_3 C 0.1240(2) 0.6193(2) 0.2169(3)
H38_3 H 0.1351 0.6266 0.1942
C53_3 C 0.1360(2) 0.6360(2) 0.2500
C54_3 C 0.1655(2) 0.6655(2) 0.2500
C55_3 C 0.1926(3) 0.6671(3) 0.2221(3)
H39_3 H 0.1929 0.6493 0.2028
C56_3 C 0.2198(3) 0.6960(3) 0.2232(3)
C57_3 C 0.2235(3) 0.7235(3) 0.2500
C58_3 C 0.2500 0.6936(3) 0.1936(3)
C59_3 C 0.2695(4) 0.6522(4) 0.1938(4)
H40_3 H 0.2503 0.6332 0.1923
H41_3 H 0.2836 0.6490 0.2167
H42_3 H 0.2862 0.6500 0.1725
C60_3 C 0.2500 0.9495(2) 0.4495(2)
C61_3 C 0.2500 0.9198(2) 0.4198(2)
C62_3 C 0.2162(3) 0.9042(2) 0.4078(2)
H43_3 H 0.1934 0.9124 0.4179
C63_3 C 0.2169(3) 0.8760(2) 0.3807(2)
H44_3 H 0.1942 0.8649 0.3734
C64_3 C 0.2500 0.8640(2) 0.3640(2)
C65_3 C 0.2500 0.8345(2) 0.3345(2)
C66_3 C 0.2221(3) 0.8074(3) 0.3329(3)
H45_3 H 0.2028 0.8071 0.3507
C67_3 C 0.2232(3) 0.7802(3) 0.3040(3)
C68_3 C 0.2500 0.7765(3) 0.2765(3)
C69_3 C 0.1936(3) 0.7500 0.3064(3)
C70_3 C 0.1938(4) 0.7305(4) 0.3478(4)
H46_3 H 0.1923 0.7497 0.3668
H47_3 H 0.2167 0.7164 0.3510
H48_3 H 0.1725 0.7138 0.3500
C71_3 C 0.4495(2) 0.7500 0.0505(2)
C72_3 C 0.4198(2) 0.7500 0.0802(2)
C73_3 C 0.4078(2) 0.7838(3) 0.0958(2)
H49_3 H 0.4179 0.8066 0.0876
C74_3 C 0.3807(2) 0.7831(3) 0.1240(2)
H50_3 H 0.3734 0.8058 0.1351
C75_3 C 0.3640(2) 0.7500 0.1360(2)
C76_3 C 0.3345(2) 0.7500 0.1655(2)
C77_3 C 0.3329(3) 0.7779(3) 0.1926(3)
H51_3 H 0.3507 0.7972 0.1929
C78_3 C 0.3040(3) 0.7768(3) 0.2198(3)
C79_3 C 0.2765(3) 0.7500 0.2235(3)
C80_3 C 0.3064(3) 0.8064(3) 0.2500
C81_3 C 0.3478(4) 0.8062(4) 0.2695(4)
H52_3 H 0.3668 0.8077 0.2503
H53_3 H 0.3510 0.7833 0.2836
H54_3 H 0.3500 0.8275 0.2862
C82_3 C 0.0922(2) 0.5958(2) 0.2838(3)
H55_3 H 0.0821 0.5876 0.3066
C83_3 C 0.1193(2) 0.6240(2) 0.2831(3)
H56_3 H 0.1266 0.6351 0.3058
C84_3 C 0.1671(3) 0.6926(3) 0.2779(3)
H57_3 H 0.1493 0.6929 0.2972
C85_3 C 0.1960(3) 0.7198(3) 0.2768(3)
C86_3 C 0.1522(4) 0.7695(4) 0.3062(4)
H58_3 H 0.1332 0.7503 0.3077
H59_3 H 0.1490 0.7836 0.2833
H60_3 H 0.1500 0.7862 0.3275
C87_3 C 0.4042(2) 0.7162(3) 0.0922(2)
H61_3 H 0.4124 0.6934 0.0821
C88_3 C 0.3760(2) 0.7169(3) 0.1193(2)
H62_3 H 0.3649 0.6942 0.1266
C89_3 C 0.3074(3) 0.7221(3) 0.1671(3)
H63_3 H 0.3071 0.7028 0.1493
C90_3 C 0.2802(3) 0.7232(3) 0.1960(3)
C91_3 C 0.2305(4) 0.6938(4) 0.1522(4)
H64_3 H 0.2497 0.6923 0.1332
H65_3 H 0.2164 0.7167 0.1490
H66_3 H 0.2138 0.6725 0.1500
C92_3 C 0.2838(3) 0.9078(2) 0.4042(2)
H67_3 H 0.3066 0.9179 0.4124
C93_3 C 0.2831(3) 0.8807(2) 0.3760(2)
H68_3 H 0.3058 0.8734 0.3649
C94_3 C 0.2779(3) 0.8329(3) 0.3074(3)
H69_3 H 0.2972 0.8507 0.3071
C95_3 C 0.2768(3) 0.8040(3) 0.2802(3)
C96_3 C 0.3062(4) 0.8478(4) 0.2305(4)
H70_3 H 0.3077 0.8668 0.2497
H71_3 H 0.2833 0.8510 0.2164
H72_3 H 0.3275 0.8500 0.2138
N1_3 N 0.7500 0.2500 0.2500
C1_3 C 0.9495(2) 0.4495(2) 0.2500
C2_3 C 0.9198(2) 0.4198(2) 0.2500
C3_3 C 0.9042(2) 0.4078(2) 0.2162(3)
H1_3 H 0.9124 0.4179 0.1934
C4_3 C 0.8760(2) 0.3807(2) 0.2169(3)
H2_3 H 0.8649 0.3734 0.1942
C5_3 C 0.8640(2) 0.3640(2) 0.2500
C6_3 C 0.8345(2) 0.3345(2) 0.2500
C7_3 C 0.8074(3) 0.3329(3) 0.2221(3)
H3_3 H 0.8071 0.3507 0.2028
C8_3 C 0.7802(3) 0.3040(3) 0.2232(3)
C9_3 C 0.7765(3) 0.2765(3) 0.2500
C10_3 C 0.7500 0.3064(3) 0.1936(3)
C11_3 C 0.7305(4) 0.3478(4) 0.1938(4)
H4_3 H 0.7497 0.3668 0.1923
H5_3 H 0.7164 0.3510 0.2167
H6_3 H 0.7138 0.3500 0.1725
C12_3 C 0.7500 0.0505(2) 0.4495(2)
C13_3 C 0.7500 0.0802(2) 0.4198(2)
C14_3 C 0.7838(3) 0.0958(2) 0.4078(2)
H7_3 H 0.8066 0.0876 0.4179
C15_3 C 0.7831(3) 0.1240(2) 0.3807(2)
H8_3 H 0.8058 0.1351 0.3734
C16_3 C 0.7500 0.1360(2) 0.3640(2)
C17_3 C 0.7500 0.1655(2) 0.3345(2)
C18_3 C 0.7779(3) 0.1926(3) 0.3329(3)
H9_3 H 0.7972 0.1929 0.3507
C19_3 C 0.7768(3) 0.2198(3) 0.3040(3)
C20_3 C 0.7500 0.2235(3) 0.2765(3)
C21_3 C 0.8064(3) 0.2500 0.3064(3)
C22_3 C 0.8062(4) 0.2695(4) 0.3478(4)
H10_3 H 0.8077 0.2503 0.3668
H11_3 H 0.7833 0.2836 0.3510
H12_3 H 0.8275 0.2862 0.3500
C23_3 C 0.5505(2) 0.2500 0.0505(2)
C24_3 C 0.5802(2) 0.2500 0.0802(2)
C25_3 C 0.5922(2) 0.2162(3) 0.0958(2)
H13_3 H 0.5821 0.1934 0.0876
C26_3 C 0.6193(2) 0.2169(3) 0.1240(2)
H14_3 H 0.6266 0.1942 0.1351
C27_3 C 0.6360(2) 0.2500 0.1360(2)
C28_3 C 0.6655(2) 0.2500 0.1655(2)
C29_3 C 0.6671(3) 0.2221(3) 0.1926(3)
H15_3 H 0.6493 0.2028 0.1929
C30_3 C 0.6960(3) 0.2232(3) 0.2198(3)
C31_3 C 0.7235(3) 0.2500 0.2235(3)
C32_3 C 0.6936(3) 0.1936(3) 0.2500
C33_3 C 0.6522(4) 0.1938(4) 0.2695(4)
H16_3 H 0.6332 0.1923 0.2503
H17_3 H 0.6490 0.2167 0.2836
H18_3 H 0.6500 0.1725 0.2862
C34_3 C 0.9078(2) 0.4042(2) 0.2838(3)
H19_3 H 0.9179 0.4124 0.3066
C35_3 C 0.8807(2) 0.3760(2) 0.2831(3)
H20_3 H 0.8734 0.3649 0.3058
C36_3 C 0.8329(3) 0.3074(3) 0.2779(3)
H21_3 H 0.8507 0.3071 0.2972
C37_3 C 0.8040(3) 0.2802(3) 0.2768(3)
C38_3 C 0.8478(4) 0.2305(4) 0.3062(4)
H22_3 H 0.8668 0.2497 0.3077
H23_3 H 0.8510 0.2164 0.2833
H24_3 H 0.8500 0.2138 0.3275
C39_3 C 0.5958(2) 0.2838(3) 0.0922(2)
H25_3 H 0.5876 0.3066 0.0821
C40_3 C 0.6240(2) 0.2831(3) 0.1193(2)
H26_3 H 0.6351 0.3058 0.1266
C41_3 C 0.6926(3) 0.2779(3) 0.1671(3)
H27_3 H 0.6929 0.2972 0.1493
C42_3 C 0.7198(3) 0.2768(3) 0.1960(3)
C43_3 C 0.7695(4) 0.3062(4) 0.1522(4)
H28_3 H 0.7503 0.3077 0.1332
H29_3 H 0.7836 0.2833 0.1490
H30_3 H 0.7862 0.3275 0.1500
C44_3 C 0.7162(3) 0.0922(2) 0.4042(2)
H31_3 H 0.6934 0.0821 0.4124
C45_3 C 0.7169(3) 0.1193(2) 0.3760(2)
H32_3 H 0.6942 0.1266 0.3649
C46_3 C 0.7221(3) 0.1671(3) 0.3074(3)
H33_3 H 0.7028 0.1493 0.3071
C47_3 C 0.7232(3) 0.1960(3) 0.2802(3)
C48_3 C 0.6938(4) 0.1522(4) 0.2305(4)
H34_3 H 0.6923 0.1332 0.2497
H35_3 H 0.7167 0.1490 0.2164
H36_3 H 0.6725 0.1500 0.2138
N1_4 N 0.2500 0.2500 0.7500
C1_4 C 0.0505(2) 0.4495(2) 0.7500
C2_4 C 0.0802(2) 0.4198(2) 0.7500
C3_4 C 0.0958(2) 0.4078(2) 0.7838(3)
H1_4 H 0.0876 0.4179 0.8066
C4_4 C 0.1240(2) 0.3807(2) 0.7831(3)
H2_4 H 0.1351 0.3734 0.8058
C5_4 C 0.1360(2) 0.3640(2) 0.7500
C6_4 C 0.1655(2) 0.3345(2) 0.7500
C7_4 C 0.1926(3) 0.3329(3) 0.7779(3)
H3_4 H 0.1929 0.3507 0.7972
C8_4 C 0.2198(3) 0.3040(3) 0.7768(3)
C9_4 C 0.2235(3) 0.2765(3) 0.7500
C10_4 C 0.2500 0.3064(3) 0.8064(3)
C11_4 C 0.2695(4) 0.3478(4) 0.8062(4)
H4_4 H 0.2503 0.3668 0.8077
H5_4 H 0.2836 0.3510 0.7833
H6_4 H 0.2862 0.3500 0.8275
C12_4 C 0.2500 0.0505(2) 0.5505(2)
C13_4 C 0.2500 0.0802(2) 0.5802(2)
C14_4 C 0.2162(3) 0.0958(2) 0.5922(2)
H7_4 H 0.1934 0.0876 0.5821
C15_4 C 0.2169(3) 0.1240(2) 0.6193(2)
H8_4 H 0.1942 0.1351 0.6266
C16_4 C 0.2500 0.1360(2) 0.6360(2)
C17_4 C 0.2500 0.1655(2) 0.6655(2)
C18_4 C 0.2221(3) 0.1926(3) 0.6671(3)
H9_4 H 0.2028 0.1929 0.6493
C19_4 C 0.2232(3) 0.2198(3) 0.6960(3)
C20_4 C 0.2500 0.2235(3) 0.7235(3)
C21_4 C 0.1936(3) 0.2500 0.6936(3)
C22_4 C 0.1938(4) 0.2695(4) 0.6522(4)
H10_4 H 0.1923 0.2503 0.6332
H11_4 H 0.2167 0.2836 0.6490
H12_4 H 0.1725 0.2862 0.6500
C23_4 C 0.4495(2) 0.2500 0.9495(2)
C24_4 C 0.4198(2) 0.2500 0.9198(2)
C25_4 C 0.4078(2) 0.2162(3) 0.9042(2)
H13_4 H 0.4179 0.1934 0.9124
C26_4 C 0.3807(2) 0.2169(3) 0.8760(2)
H14_4 H 0.3734 0.1942 0.8649
C27_4 C 0.3640(2) 0.2500 0.8640(2)
C28_4 C 0.3345(2) 0.2500 0.8345(2)
C29_4 C 0.3329(3) 0.2221(3) 0.8074(3)
H15_4 H 0.3507 0.2028 0.8071
C30_4 C 0.3040(3) 0.2232(3) 0.7802(3)
C31_4 C 0.2765(3) 0.2500 0.7765(3)
C32_4 C 0.3064(3) 0.1936(3) 0.7500
C33_4 C 0.3478(4) 0.1938(4) 0.7305(4)
H16_4 H 0.3668 0.1923 0.7497
H17_4 H 0.3510 0.2167 0.7164
H18_4 H 0.3500 0.1725 0.7138
C34_4 C 0.0922(2) 0.4042(2) 0.7162(3)
H19_4 H 0.0821 0.4124 0.6934
C35_4 C 0.1193(2) 0.3760(2) 0.7169(3)
H20_4 H 0.1266 0.3649 0.6942
C36_4 C 0.1671(3) 0.3074(3) 0.7221(3)
H21_4 H 0.1493 0.3071 0.7028
C37_4 C 0.1960(3) 0.2802(3) 0.7232(3)
C38_4 C 0.1522(4) 0.2305(4) 0.6938(4)
H22_4 H 0.1332 0.2497 0.6923
H23_4 H 0.1490 0.2164 0.7167
H24_4 H 0.1500 0.2138 0.6725
C39_4 C 0.4042(2) 0.2838(3) 0.9078(2)
H25_4 H 0.4124 0.3066 0.9179
C40_4 C 0.3760(2) 0.2831(3) 0.8807(2)
H26_4 H 0.3649 0.3058 0.8734
C41_4 C 0.3074(3) 0.2779(3) 0.8329(3)
H27_4 H 0.3071 0.2972 0.8507
C42_4 C 0.2802(3) 0.2768(3) 0.8040(3)
C43_4 C 0.2305(4) 0.3062(4) 0.8478(4)
H28_4 H 0.2497 0.3077 0.8668
H29_4 H 0.2164 0.2833 0.8510
H30_4 H 0.2138 0.3275 0.8500
C44_4 C 0.2838(3) 0.0922(2) 0.5958(2)
H31_4 H 0.3066 0.0821 0.5876
C45_4 C 0.2831(3) 0.1193(2) 0.6240(2)
H32_4 H 0.3058 0.1266 0.6351
C46_4 C 0.2779(3) 0.1671(3) 0.6926(3)
H33_4 H 0.2972 0.1493 0.6929
C47_4 C 0.2768(3) 0.1960(3) 0.7198(3)
C48_4 C 0.3062(4) 0.1522(4) 0.7695(4)
H34_4 H 0.3077 0.1332 0.7503
H35_4 H 0.2833 0.1490 0.7836
H36_4 H 0.3275 0.1500 0.7862
N2_4 N 0.7500 0.7500 0.7500
C49_4 C 0.9495(2) 0.5505(2) 0.7500
C50_4 C 0.9198(2) 0.5802(2) 0.7500
C51_4 C 0.9042(2) 0.5922(2) 0.7838(3)
H37_4 H 0.9124 0.5821 0.8066
C52_4 C 0.8760(2) 0.6193(2) 0.7831(3)
H38_4 H 0.8649 0.6266 0.8058
C53_4 C 0.8640(2) 0.6360(2) 0.7500
C54_4 C 0.8345(2) 0.6655(2) 0.7500
C55_4 C 0.8074(3) 0.6671(3) 0.7779(3)
H39_4 H 0.8071 0.6493 0.7972
C56_4 C 0.7802(3) 0.6960(3) 0.7768(3)
C57_4 C 0.7765(3) 0.7235(3) 0.7500
C58_4 C 0.7500 0.6936(3) 0.8064(3)
C59_4 C 0.7305(4) 0.6522(4) 0.8062(4)
H40_4 H 0.7497 0.6332 0.8077
H41_4 H 0.7164 0.6490 0.7833
H42_4 H 0.7138 0.6500 0.8275
C60_4 C 0.7500 0.9495(2) 0.5505(2)
C61_4 C 0.7500 0.9198(2) 0.5802(2)
C62_4 C 0.7838(3) 0.9042(2) 0.5922(2)
H43_4 H 0.8066 0.9124 0.5821
C63_4 C 0.7831(3) 0.8760(2) 0.6193(2)
H44_4 H 0.8058 0.8649 0.6266
C64_4 C 0.7500 0.8640(2) 0.6360(2)
C65_4 C 0.7500 0.8345(2) 0.6655(2)
C66_4 C 0.7779(3) 0.8074(3) 0.6671(3)
H45_4 H 0.7972 0.8071 0.6493
C67_4 C 0.7768(3) 0.7802(3) 0.6960(3)
C68_4 C 0.7500 0.7765(3) 0.7235(3)
C69_4 C 0.8064(3) 0.7500 0.6936(3)
C70_4 C 0.8062(4) 0.7305(4) 0.6522(4)
H46_4 H 0.8077 0.7497 0.6332
H47_4 H 0.7833 0.7164 0.6490
H48_4 H 0.8275 0.7138 0.6500
C71_4 C 0.5505(2) 0.7500 0.9495(2)
C72_4 C 0.5802(2) 0.7500 0.9198(2)
C73_4 C 0.5922(2) 0.7838(3) 0.9042(2)
H49_4 H 0.5821 0.8066 0.9124
C74_4 C 0.6193(2) 0.7831(3) 0.8760(2)
H50_4 H 0.6266 0.8058 0.8649
C75_4 C 0.6360(2) 0.7500 0.8640(2)
C76_4 C 0.6655(2) 0.7500 0.8345(2)
C77_4 C 0.6671(3) 0.7779(3) 0.8074(3)
H51_4 H 0.6493 0.7972 0.8071
C78_4 C 0.6960(3) 0.7768(3) 0.7802(3)
C79_4 C 0.7235(3) 0.7500 0.7765(3)
C80_4 C 0.6936(3) 0.8064(3) 0.7500
C81_4 C 0.6522(4) 0.8062(4) 0.7305(4)
H52_4 H 0.6332 0.8077 0.7497
H53_4 H 0.6490 0.7833 0.7164
H54_4 H 0.6500 0.8275 0.7138
C82_4 C 0.9078(2) 0.5958(2) 0.7162(3)
H55_4 H 0.9179 0.5876 0.6934
C83_4 C 0.8807(2) 0.6240(2) 0.7169(3)
H56_4 H 0.8734 0.6351 0.6942
C84_4 C 0.8329(3) 0.6926(3) 0.7221(3)
H57_4 H 0.8507 0.6929 0.7028
C85_4 C 0.8040(3) 0.7198(3) 0.7232(3)
C86_4 C 0.8478(4) 0.7695(4) 0.6938(4)
H58_4 H 0.8668 0.7503 0.6923
H59_4 H 0.8510 0.7836 0.7167
H60_4 H 0.8500 0.7862 0.6725
C87_4 C 0.5958(2) 0.7162(3) 0.9078(2)
H61_4 H 0.5876 0.6934 0.9179
C88_4 C 0.6240(2) 0.7169(3) 0.8807(2)
H62_4 H 0.6351 0.6942 0.8734
C89_4 C 0.6926(3) 0.7221(3) 0.8329(3)
H63_4 H 0.6929 0.7028 0.8507
C90_4 C 0.7198(3) 0.7232(3) 0.8040(3)
C91_4 C 0.7695(4) 0.6938(4) 0.8478(4)
H64_4 H 0.7503 0.6923 0.8668
H65_4 H 0.7836 0.7167 0.8510
H66_4 H 0.7862 0.6725 0.8500
C92_4 C 0.7162(3) 0.9078(2) 0.5958(2)
H67_4 H 0.6934 0.9179 0.5876
C93_4 C 0.7169(3) 0.8807(2) 0.6240(2)
H68_4 H 0.6942 0.8734 0.6351
C94_4 C 0.7221(3) 0.8329(3) 0.6926(3)
H69_4 H 0.7028 0.8507 0.6929
C95_4 C 0.7232(3) 0.8040(3) 0.7198(3)
C96_4 C 0.6938(4) 0.8478(4) 0.7695(4)
H70_4 H 0.6923 0.8668 0.7503
H71_4 H 0.7167 0.8510 0.7836
H72_4 H 0.6725 0.8500 0.7862
loop_
_geom_bond_atom_site_label_1
_geom_bond_atom_site_label_2
_geom_bond_site_symmetry_1
_geom_bond_site_symmetry_2
O15 Cu3 1_555 1_555
O16 Cu3 1_555 1_555
O20 Cu3 1_555 1_555
Cu3 Cu9 1_555 1_555
Cu5 Cu8 1_555 1_555
Cu1 O1 1_555 1_555
O1 C1 1_555 1_555
O2 Cu1 1_555 1_555
N1 C9 1_555 1_555
C1 C2 1_555 1_555
C2 C3 1_555 1_555
C3 H1 1_555 1_555
C4 C3 1_555 1_555
H2 C4 1_555 1_555
C5 C4 1_555 1_555
C6 C5 1_555 1_555
C7 C6 1_555 1_555
H3 C7 1_555 1_555
C8 C7 1_555 1_555
C9 C8 1_555 1_555
C10 C8 1_555 1_555
C11 C10 1_555 1_555
H4 C11 1_555 1_555
H5 C11 1_555 1_555
H6 C11 1_555 1_555
O3 C12 1_555 1_555
C12 C13 1_555 1_555
C13 C14 1_555 1_555
C14 H7 1_555 1_555
C15 C14 1_555 1_555
H8 C15 1_555 1_555
C16 C15 1_555 1_555
C17 C16 1_555 1_555
C18 C17 1_555 1_555
H9 C18 1_555 1_555
C19 C18 1_555 1_555
C20 N1 1_555 1_555
C21 C19 1_555 1_555
C22 C21 1_555 1_555
H10 C22 1_555 1_555
H11 C22 1_555 1_555
H12 C22 1_555 1_555
O4 C23 1_555 1_555
C23 C24 1_555 1_555
C24 C25 1_555 1_555
C25 H13 1_555 1_555
C26 C25 1_555 1_555
H14 C26 1_555 1_555
C27 C26 1_555 1_555
C28 C27 1_555 1_555
C29 C28 1_555 1_555
H15 C29 1_555 1_555
C30 C29 1_555 1_555
C31 N1 1_555 1_555
C32 C30 1_555 1_555
C33 C32 1_555 1_555
H16 C33 1_555 1_555
H17 C33 1_555 1_555
H18 C33 1_555 1_555
O5 C1 1_555 1_555
C34 C2 1_555 1_555
H19 C34 1_555 1_555
C35 C5 1_555 1_555
H20 C35 1_555 1_555
C36 C6 1_555 1_555
H21 C36 1_555 1_555
C37 C9 1_555 1_555
C38 C21 1_555 1_555
H22 C38 1_555 1_555
H23 C38 1_555 1_555
H24 C38 1_555 1_555
O6 C23 1_555 1_555
C39 C24 1_555 1_555
H25 C39 1_555 1_555
C40 C27 1_555 1_555
H26 C40 1_555 1_555
C41 C28 1_555 1_555
H27 C41 1_555 1_555
C42 C10 1_555 1_555
C43 C10 1_555 1_555
H28 C43 1_555 1_555
H29 C43 1_555 1_555
H30 C43 1_555 1_555
O7 C12 1_555 1_555
C44 C13 1_555 1_555
H31 C44 1_555 1_555
C45 C16 1_555 1_555
H32 C45 1_555 1_555
C46 C17 1_555 1_555
H33 C46 1_555 1_555
C47 C20 1_555 1_555
C48 C32 1_555 1_555
H34 C48 1_555 1_555
H35 C48 1_555 1_555
H36 C48 1_555 1_555
Cu2 Cu1 1_555 1_555
O14 Cu2 1_555 1_555
Cu3_2 O3 1_555 1_555
O15_2 Cu3_2 1_555 1_555
Cu5_2 O4 1_555 1_555
Cu8_2 O6 1_555 1_555
Cu9_2 O7 1_555 1_555
O17 Cu1 1_555 1_555
O19 Cu3_2 1_555 1_555
O22 Cu2 1_555 1_555
C19 C20 1_555 1_555
C21 C37 1_555 1_555
C30 C31 1_555 1_555
C31 C42 1_555 1_555
C32 C47 1_555 1_555
O5 Cu2 1_555 1_555
C34 C35 1_555 1_555
C36 C37 1_555 1_555
C39 C40 1_555 1_555
C41 C42 1_555 1_555
C44 C45 1_555 1_555
C46 C47 1_555 1_555
Cu3_2 Cu9_2 1_555 1_555
Cu5_2 Cu8_2 1_555 1_555
Cu6 Cu7 1_555 1_555
O2_2 Cu1_2 1_555 1_555
O8 Cu1_2 1_555 1_555
N2 C57 1_555 1_555
C49 O8 1_555 1_555
C50 C49 1_555 1_555
C51 C50 1_555 1_555
H37 C51 1_555 1_555
C52 C51 1_555 1_555
H38 C52 1_555 1_555
C53 C52 1_555 1_555
C54 C53 1_555 1_555
C55 C54 1_555 1_555
H39 C55 1_555 1_555
C56 C55 1_555 1_555
C57 C56 1_555 1_555
C58 C56 1_555 1_555
C59 C58 1_555 1_555
H40 C59 1_555 1_555
H41 C59 1_555 1_555
H42 C59 1_555 1_555
O9 C60 1_555 1_555
C60 C61 1_555 1_555
C61 C62 1_555 1_555
C62 H43 1_555 1_555
C63 C62 1_555 1_555
H44 C63 1_555 1_555
C64 C63 1_555 1_555
C65 C64 1_555 1_555
C66 C65 1_555 1_555
H45 C66 1_555 1_555
C67 C66 1_555 1_555
C68 N2 1_555 1_555
C69 C67 1_555 1_555
C70 C69 1_555 1_555
H46 C70 1_555 1_555
H47 C70 1_555 1_555
H48 C70 1_555 1_555
O10 C71 1_555 1_555
C71 C72 1_555 1_555
C72 C73 1_555 1_555
C73 H49 1_555 1_555
C74 C73 1_555 1_555
H50 C74 1_555 1_555
C75 C74 1_555 1_555
C76 C75 1_555 1_555
C77 C76 1_555 1_555
H51 C77 1_555 1_555
C78 C77 1_555 1_555
C79 N2 1_555 1_555
C80 C78 1_555 1_555
C81 C80 1_555 1_555
H52 C81 1_555 1_555
H53 C81 1_555 1_555
H54 C81 1_555 1_555
O11 C49 1_555 1_555
C82 C50 1_555 1_555
H55 C82 1_555 1_555
C83 C53 1_555 1_555
H56 C83 1_555 1_555
C84 C54 1_555 1_555
H57 C84 1_555 1_555
C85 C57 1_555 1_555
C86 C69 1_555 1_555
H58 C86 1_555 1_555
H59 C86 1_555 1_555
H60 C86 1_555 1_555
O12 C71 1_555 1_555
C87 C72 1_555 1_555
H61 C87 1_555 1_555
C88 C75 1_555 1_555
H62 C88 1_555 1_555
C89 C76 1_555 1_555
H63 C89 1_555 1_555
C90 C58 1_555 1_555
C91 C58 1_555 1_555
H64 C91 1_555 1_555
H65 C91 1_555 1_555
H66 C91 1_555 1_555
O13 C60 1_555 1_555
C92 C61 1_555 1_555
H67 C92 1_555 1_555
C93 C64 1_555 1_555
H68 C93 1_555 1_555
C94 C65 1_555 1_555
H69 C94 1_555 1_555
C95 C68 1_555 1_555
C96 C80 1_555 1_555
H70 C96 1_555 1_555
H71 C96 1_555 1_555
H72 C96 1_555 1_555
Cu2_2 Cu1_2 1_555 1_555
O14_2 Cu2_2 1_555 1_555
Cu4 O9 1_555 1_555
Cu6_2 O10 1_555 1_555
Cu7_2 O12 1_555 1_555
Cu10 O13 1_555 1_555
O18 Cu1_2 1_555 1_555
O21 Cu2_2 1_555 1_555
C67 C68 1_555 1_555
C69 C85 1_555 1_555
C78 C79 1_555 1_555
C79 C90 1_555 1_555
C80 C95 1_555 1_555
O11 Cu2_2 1_555 1_555
C82 C83 1_555 1_555
C84 C85 1_555 1_555
C87 C88 1_555 1_555
C89 C90 1_555 1_555
C92 C93 1_555 1_555
C94 C95 1_555 1_555
Cu4 Cu10 1_555 1_555
Cu6_2 Cu7_2 1_555 1_555
Cu4_2 Cu10_2 1_555 1_555
O15_3 Cu4 1_555 1_555
O19_2 Cu4 1_555 1_555
O15_4 Cu4_2 1_555 1_555
O16_2 Cu4_2 1_555 1_555
O20_2 Cu4_2 1_555 1_555
O2_3 Cu1_3 1_555 1_555
O8_2 Cu1_3 1_555 1_555
N2_2 C57_2 1_555 1_555
C49_2 O8_2 1_555 1_555
C50_2 C49_2 1_555 1_555
C51_2 C50_2 1_555 1_555
H37_2 C51_2 1_555 1_555
C52_2 C51_2 1_555 1_555
H38_2 C52_2 1_555 1_555
C53_2 C52_2 1_555 1_555
C54_2 C53_2 1_555 1_555
C55_2 C54_2 1_555 1_555
H39_2 C55_2 1_555 1_555
C56_2 C55_2 1_555 1_555
C57_2 C56_2 1_555 1_555
C58_2 C56_2 1_555 1_555
C59_2 C58_2 1_555 1_555
H40_2 C59_2 1_555 1_555
H41_2 C59_2 1_555 1_555
H42_2 C59_2 1_555 1_555
O16 C60_2 1_555 1_555
C60_2 C61_2 1_555 1_555
C61_2 C62_2 1_555 1_555
C62_2 H43_2 1_555 1_555
C63_2 C62_2 1_555 1_555
H44_2 C63_2 1_555 1_555
C64_2 C63_2 1_555 1_555
C65_2 C64_2 1_555 1_555
C66_2 C65_2 1_555 1_555
H45_2 C66_2 1_555 1_555
C67_2 C66_2 1_555 1_555
C68_2 N2_2 1_555 1_555
C69_2 C67_2 1_555 1_555
C70_2 C69_2 1_555 1_555
H46_2 C70_2 1_555 1_555
H47_2 C70_2 1_555 1_555
H48_2 C70_2 1_555 1_555
O10_2 C71_2 1_555 1_555
C71_2 C72_2 1_555 1_555
C72_2 C73_2 1_555 1_555
C73_2 H49_2 1_555 1_555
C74_2 C73_2 1_555 1_555
H50_2 C74_2 1_555 1_555
C75_2 C74_2 1_555 1_555
C76_2 C75_2 1_555 1_555
C77_2 C76_2 1_555 1_555
H51_2 C77_2 1_555 1_555
C78_2 C77_2 1_555 1_555
C79_2 N2_2 1_555 1_555
C80_2 C78_2 1_555 1_555
C81_2 C80_2 1_555 1_555
H52_2 C81_2 1_555 1_555
H53_2 C81_2 1_555 1_555
H54_2 C81_2 1_555 1_555
O11_2 C49_2 1_555 1_555
C82_2 C50_2 1_555 1_555
H55_2 C82_2 1_555 1_555
C83_2 C53_2 1_555 1_555
H56_2 C83_2 1_555 1_555
C84_2 C54_2 1_555 1_555
H57_2 C84_2 1_555 1_555
C85_2 C57_2 1_555 1_555
C86_2 C69_2 1_555 1_555
H58_2 C86_2 1_555 1_555
H59_2 C86_2 1_555 1_555
H60_2 C86_2 1_555 1_555
O12_2 C71_2 1_555 1_555
C87_2 C72_2 1_555 1_555
H61_2 C87_2 1_555 1_555
C88_2 C75_2 1_555 1_555
H62_2 C88_2 1_555 1_555
C89_2 C76_2 1_555 1_555
H63_2 C89_2 1_555 1_555
C90_2 C58_2 1_555 1_555
C91_2 C58_2 1_555 1_555
H64_2 C91_2 1_555 1_555
H65_2 C91_2 1_555 1_555
H66_2 C91_2 1_555 1_555
O13_2 C60_2 1_555 1_555
C92_2 C61_2 1_555 1_555
H67_2 C92_2 1_555 1_555
C93_2 C64_2 1_555 1_555
H68_2 C93_2 1_555 1_555
C94_2 C65_2 1_555 1_555
H69_2 C94_2 1_555 1_555
C95_2 C68_2 1_555 1_555
C96_2 C80_2 1_555 1_555
H70_2 C96_2 1_555 1_555
H71_2 C96_2 1_555 1_555
H72_2 C96_2 1_555 1_555
Cu2_3 Cu1_3 1_555 1_555
O14_3 Cu2_3 1_555 1_555
Cu6 O10_2 1_555 1_555
Cu7 O12_2 1_555 1_555
Cu9 O13_2 1_555 1_555
O18_2 Cu1_3 1_555 1_555
O21_2 Cu2_3 1_555 1_555
C67_2 C68_2 1_555 1_555
C69_2 C85_2 1_555 1_555
C78_2 C79_2 1_555 1_555
C79_2 C90_2 1_555 1_555
C80_2 C95_2 1_555 1_555
O11_2 Cu2_3 1_555 1_555
C82_2 C83_2 1_555 1_555
C84_2 C85_2 1_555 1_555
C87_2 C88_2 1_555 1_555
C89_2 C90_2 1_555 1_555
C92_2 C93_2 1_555 1_555
C94_2 C95_2 1_555 1_555
Cu1_4 O1_2 1_555 1_555
O1_2 C1_2 1_555 1_555
O2_4 Cu1_4 1_555 1_555
N1_2 C9_2 1_555 1_555
C1_2 C2_2 1_555 1_555
C2_2 C3_2 1_555 1_555
C3_2 H1_2 1_555 1_555
C4_2 C3_2 1_555 1_555
H2_2 C4_2 1_555 1_555
C5_2 C4_2 1_555 1_555
C6_2 C5_2 1_555 1_555
C7_2 C6_2 1_555 1_555
H3_2 C7_2 1_555 1_555
C8_2 C7_2 1_555 1_555
C9_2 C8_2 1_555 1_555
C10_2 C8_2 1_555 1_555
C11_2 C10_2 1_555 1_555
H4_2 C11_2 1_555 1_555
H5_2 C11_2 1_555 1_555
H6_2 C11_2 1_555 1_555
O16_2 C12_2 1_555 1_555
C12_2 C13_2 1_555 1_555
C13_2 C14_2 1_555 1_555
C14_2 H7_2 1_555 1_555
C15_2 C14_2 1_555 1_555
H8_2 C15_2 1_555 1_555
C16_2 C15_2 1_555 1_555
C17_2 C16_2 1_555 1_555
C18_2 C17_2 1_555 1_555
H9_2 C18_2 1_555 1_555
C19_2 C18_2 1_555 1_555
C20_2 N1_2 1_555 1_555
C21_2 C19_2 1_555 1_555
C22_2 C21_2 1_555 1_555
H10_2 C22_2 1_555 1_555
H11_2 C22_2 1_555 1_555
H12_2 C22_2 1_555 1_555
O4_2 C23_2 1_555 1_555
C23_2 C24_2 1_555 1_555
C24_2 C25_2 1_555 1_555
C25_2 H13_2 1_555 1_555
C26_2 C25_2 1_555 1_555
H14_2 C26_2 1_555 1_555
C27_2 C26_2 1_555 1_555
C28_2 C27_2 1_555 1_555
C29_2 C28_2 1_555 1_555
H15_2 C29_2 1_555 1_555
C30_2 C29_2 1_555 1_555
C31_2 N1_2 1_555 1_555
C32_2 C30_2 1_555 1_555
C33_2 C32_2 1_555 1_555
H16_2 C33_2 1_555 1_555
H17_2 C33_2 1_555 1_555
H18_2 C33_2 1_555 1_555
O5_2 C1_2 1_555 1_555
C34_2 C2_2 1_555 1_555
H19_2 C34_2 1_555 1_555
C35_2 C5_2 1_555 1_555
H20_2 C35_2 1_555 1_555
C36_2 C6_2 1_555 1_555
H21_2 C36_2 1_555 1_555
C37_2 C9_2 1_555 1_555
C38_2 C21_2 1_555 1_555
H22_2 C38_2 1_555 1_555
H23_2 C38_2 1_555 1_555
H24_2 C38_2 1_555 1_555
O6_2 C23_2 1_555 1_555
C39_2 C24_2 1_555 1_555
H25_2 C39_2 1_555 1_555
C40_2 C27_2 1_555 1_555
H26_2 C40_2 1_555 1_555
C41_2 C28_2 1_555 1_555
H27_2 C41_2 1_555 1_555
C42_2 C10_2 1_555 1_555
C43_2 C10_2 1_555 1_555
H28_2 C43_2 1_555 1_555
H29_2 C43_2 1_555 1_555
H30_2 C43_2 1_555 1_555
O7_2 C12_2 1_555 1_555
C44_2 C13_2 1_555 1_555
H31_2 C44_2 1_555 1_555
C45_2 C16_2 1_555 1_555
H32_2 C45_2 1_555 1_555
C46_2 C17_2 1_555 1_555
H33_2 C46_2 1_555 1_555
C47_2 C20_2 1_555 1_555
C48_2 C32_2 1_555 1_555
H34_2 C48_2 1_555 1_555
H35_2 C48_2 1_555 1_555
H36_2 C48_2 1_555 1_555
Cu2_4 Cu1_4 1_555 1_555
O14_4 Cu2_4 1_555 1_555
Cu5 O4_2 1_555 1_555
Cu8 O6_2 1_555 1_555
Cu10_2 O7_2 1_555 1_555
O17_2 Cu1_4 1_555 1_555
O22_2 Cu2_4 1_555 1_555
C19_2 C20_2 1_555 1_555
C21_2 C37_2 1_555 1_555
C30_2 C31_2 1_555 1_555
C31_2 C42_2 1_555 1_555
C32_2 C47_2 1_555 1_555
O5_2 Cu2_4 1_555 1_555
C34_2 C35_2 1_555 1_555
C36_2 C37_2 1_555 1_555
C39_2 C40_2 1_555 1_555
C41_2 C42_2 1_555 1_555
C44_2 C45_2 1_555 1_555
C46_2 C47_2 1_555 1_555
O15_5 Cu6 1_555 1_555
O20_3 Cu6 1_555 1_555
O14_5 Cu10 1_555 1_555
O15_6 Cu6_2 1_555 1_555
O19_3 Cu6_2 1_555 1_555
O22_3 Cu10 1_555 1_555
O14_6 Cu10_2 1_555 1_555
O21_3 Cu10_2 1_555 1_555
O15_7 Cu5 1_555 1_555
O19_4 Cu5 1_555 1_555
O15_8 Cu5_2 1_555 1_555
O20_4 Cu5_2 1_555 1_555
O14_7 Cu9 1_555 1_555
O21_4 Cu9 1_555 1_555
O14_8 Cu9_2 1_555 1_555
O22_4 Cu9_2 1_555 1_555
O14_9 Cu8 1_555 1_555
O22_5 Cu8 1_555 1_555
O14_10 Cu8_2 1_555 1_555
O21_5 Cu8_2 1_555 1_555
O14_11 Cu7 1_555 1_555
O21_6 Cu7 1_555 1_555
O14_12 Cu7_2 1_555 1_555
O22_6 Cu7_2 1_555 1_555
N2_3 C57_3 1_555 1_555
C49_3 O18_2 1_555 1_555
C50_3 C49_3 1_555 1_555
C51_3 C50_3 1_555 1_555
H37_3 C51_3 1_555 1_555
C52_3 C51_3 1_555 1_555
H38_3 C52_3 1_555 1_555
C53_3 C52_3 1_555 1_555
C54_3 C53_3 1_555 1_555
C55_3 C54_3 1_555 1_555
H39_3 C55_3 1_555 1_555
C56_3 C55_3 1_555 1_555
C57_3 C56_3 1_555 1_555
C58_3 C56_3 1_555 1_555
C59_3 C58_3 1_555 1_555
H40_3 C59_3 1_555 1_555
H41_3 C59_3 1_555 1_555
H42_3 C59_3 1_555 1_555
O19 C60_3 1_555 1_555
C60_3 C61_3 1_555 1_555
C61_3 C62_3 1_555 1_555
C62_3 H43_3 1_555 1_555
C63_3 C62_3 1_555 1_555
H44_3 C63_3 1_555 1_555
C64_3 C63_3 1_555 1_555
C65_3 C64_3 1_555 1_555
C66_3 C65_3 1_555 1_555
H45_3 C66_3 1_555 1_555
C67_3 C66_3 1_555 1_555
C68_3 N2_3 1_555 1_555
C69_3 C67_3 1_555 1_555
C70_3 C69_3 1_555 1_555
H46_3 C70_3 1_555 1_555
H47_3 C70_3 1_555 1_555
H48_3 C70_3 1_555 1_555
O19_4 C71_3 1_555 1_555
C71_3 C72_3 1_555 1_555
C72_3 C73_3 1_555 1_555
C73_3 H49_3 1_555 1_555
C74_3 C73_3 1_555 1_555
H50_3 C74_3 1_555 1_555
C75_3 C74_3 1_555 1_555
C76_3 C75_3 1_555 1_555
C77_3 C76_3 1_555 1_555
H51_3 C77_3 1_555 1_555
C78_3 C77_3 1_555 1_555
C79_3 N2_3 1_555 1_555
C80_3 C78_3 1_555 1_555
C81_3 C80_3 1_555 1_555
H52_3 C81_3 1_555 1_555
H53_3 C81_3 1_555 1_555
H54_3 C81_3 1_555 1_555
O21_2 C49_3 1_555 1_555
C82_3 C50_3 1_555 1_555
H55_3 C82_3 1_555 1_555
C83_3 C53_3 1_555 1_555
H56_3 C83_3 1_555 1_555
C84_3 C54_3 1_555 1_555
H57_3 C84_3 1_555 1_555
C85_3 C57_3 1_555 1_555
C86_3 C69_3 1_555 1_555
H58_3 C86_3 1_555 1_555
H59_3 C86_3 1_555 1_555
H60_3 C86_3 1_555 1_555
O22_5 C71_3 1_555 1_555
C87_3 C72_3 1_555 1_555
H61_3 C87_3 1_555 1_555
C88_3 C75_3 1_555 1_555
H62_3 C88_3 1_555 1_555
C89_3 C76_3 1_555 1_555
H63_3 C89_3 1_555 1_555
C90_3 C58_3 1_555 1_555
C91_3 C58_3 1_555 1_555
H64_3 C91_3 1_555 1_555
H65_3 C91_3 1_555 1_555
H66_3 C91_3 1_555 1_555
O22_4 C60_3 1_555 1_555
C92_3 C61_3 1_555 1_555
H67_3 C92_3 1_555 1_555
C93_3 C64_3 1_555 1_555
H68_3 C93_3 1_555 1_555
C94_3 C65_3 1_555 1_555
H69_3 C94_3 1_555 1_555
C95_3 C68_3 1_555 1_555
C96_3 C80_3 1_555 1_555
H70_3 C96_3 1_555 1_555
H71_3 C96_3 1_555 1_555
H72_3 C96_3 1_555 1_555
C67_3 C68_3 1_555 1_555
C69_3 C85_3 1_555 1_555
C78_3 C79_3 1_555 1_555
C79_3 C90_3 1_555 1_555
C80_3 C95_3 1_555 1_555
C82_3 C83_3 1_555 1_555
C84_3 C85_3 1_555 1_555
C87_3 C88_3 1_555 1_555
C89_3 C90_3 1_555 1_555
C92_3 C93_3 1_555 1_555
C94_3 C95_3 1_555 1_555
O17_2 C1_3 1_555 1_555
N1_3 C9_3 1_555 1_555
C1_3 C2_3 1_555 1_555
C2_3 C3_3 1_555 1_555
C3_3 H1_3 1_555 1_555
C4_3 C3_3 1_555 1_555
H2_3 C4_3 1_555 1_555
C5_3 C4_3 1_555 1_555
C6_3 C5_3 1_555 1_555
C7_3 C6_3 1_555 1_555
H3_3 C7_3 1_555 1_555
C8_3 C7_3 1_555 1_555
C9_3 C8_3 1_555 1_555
C10_3 C8_3 1_555 1_555
C11_3 C10_3 1_555 1_555
H4_3 C11_3 1_555 1_555
H5_3 C11_3 1_555 1_555
H6_3 C11_3 1_555 1_555
O19_2 C12_3 1_555 1_555
C12_3 C13_3 1_555 1_555
C13_3 C14_3 1_555 1_555
C14_3 H7_3 1_555 1_555
C15_3 C14_3 1_555 1_555
H8_3 C15_3 1_555 1_555
C16_3 C15_3 1_555 1_555
C17_3 C16_3 1_555 1_555
C18_3 C17_3 1_555 1_555
H9_3 C18_3 1_555 1_555
C19_3 C18_3 1_555 1_555
C20_3 N1_3 1_555 1_555
C21_3 C19_3 1_555 1_555
C22_3 C21_3 1_555 1_555
H10_3 C22_3 1_555 1_555
H11_3 C22_3 1_555 1_555
H12_3 C22_3 1_555 1_555
O20_3 C23_3 1_555 1_555
C23_3 C24_3 1_555 1_555
C24_3 C25_3 1_555 1_555
C25_3 H13_3 1_555 1_555
C26_3 C25_3 1_555 1_555
H14_3 C26_3 1_555 1_555
C27_3 C26_3 1_555 1_555
C28_3 C27_3 1_555 1_555
C29_3 C28_3 1_555 1_555
H15_3 C29_3 1_555 1_555
C30_3 C29_3 1_555 1_555
C31_3 N1_3 1_555 1_555
C32_3 C30_3 1_555 1_555
C33_3 C32_3 1_555 1_555
H16_3 C33_3 1_555 1_555
H17_3 C33_3 1_555 1_555
H18_3 C33_3 1_555 1_555
O22_2 C1_3 1_555 1_555
C34_3 C2_3 1_555 1_555
H19_3 C34_3 1_555 1_555
C35_3 C5_3 1_555 1_555
H20_3 C35_3 1_555 1_555
C36_3 C6_3 1_555 1_555
H21_3 C36_3 1_555 1_555
C37_3 C9_3 1_555 1_555
C38_3 C21_3 1_555 1_555
H22_3 C38_3 1_555 1_555
H23_3 C38_3 1_555 1_555
H24_3 C38_3 1_555 1_555
O21_6 C23_3 1_555 1_555
C39_3 C24_3 1_555 1_555
H25_3 C39_3 1_555 1_555
C40_3 C27_3 1_555 1_555
H26_3 C40_3 1_555 1_555
C41_3 C28_3 1_555 1_555
H27_3 C41_3 1_555 1_555
C42_3 C10_3 1_555 1_555
C43_3 C10_3 1_555 1_555
H28_3 C43_3 1_555 1_555
H29_3 C43_3 1_555 1_555
H30_3 C43_3 1_555 1_555
O22_3 C12_3 1_555 1_555
C44_3 C13_3 1_555 1_555
H31_3 C44_3 1_555 1_555
C45_3 C16_3 1_555 1_555
H32_3 C45_3 1_555 1_555
C46_3 C17_3 1_555 1_555
H33_3 C46_3 1_555 1_555
C47_3 C20_3 1_555 1_555
C48_3 C32_3 1_555 1_555
H34_3 C48_3 1_555 1_555
H35_3 C48_3 1_555 1_555
H36_3 C48_3 1_555 1_555
C19_3 C20_3 1_555 1_555
C21_3 C37_3 1_555 1_555
C30_3 C31_3 1_555 1_555
C31_3 C42_3 1_555 1_555
C32_3 C47_3 1_555 1_555
C34_3 C35_3 1_555 1_555
C36_3 C37_3 1_555 1_555
C39_3 C40_3 1_555 1_555
C41_3 C42_3 1_555 1_555
C44_3 C45_3 1_555 1_555
C46_3 C47_3 1_555 1_555
O17 C1_4 1_555 1_555
N1_4 C9_4 1_555 1_555
C1_4 C2_4 1_555 1_555
C2_4 C3_4 1_555 1_555
C3_4 H1_4 1_555 1_555
C4_4 C3_4 1_555 1_555
H2_4 C4_4 1_555 1_555
C5_4 C4_4 1_555 1_555
C6_4 C5_4 1_555 1_555
C7_4 C6_4 1_555 1_555
H3_4 C7_4 1_555 1_555
C8_4 C7_4 1_555 1_555
C9_4 C8_4 1_555 1_555
C10_4 C8_4 1_555 1_555
C11_4 C10_4 1_555 1_555
H4_4 C11_4 1_555 1_555
H5_4 C11_4 1_555 1_555
H6_4 C11_4 1_555 1_555
O20 C12_4 1_555 1_555
C12_4 C13_4 1_555 1_555
C13_4 C14_4 1_555 1_555
C14_4 H7_4 1_555 1_555
C15_4 C14_4 1_555 1_555
H8_4 C15_4 1_555 1_555
C16_4 C15_4 1_555 1_555
C17_4 C16_4 1_555 1_555
C18_4 C17_4 1_555 1_555
H9_4 C18_4 1_555 1_555
C19_4 C18_4 1_555 1_555
C20_4 N1_4 1_555 1_555
C21_4 C19_4 1_555 1_555
C22_4 C21_4 1_555 1_555
H10_4 C22_4 1_555 1_555
H11_4 C22_4 1_555 1_555
H12_4 C22_4 1_555 1_555
O19_3 C23_4 1_555 1_555
C23_4 C24_4 1_555 1_555
C24_4 C25_4 1_555 1_555
C25_4 H13_4 1_555 1_555
C26_4 C25_4 1_555 1_555
H14_4 C26_4 1_555 1_555
C27_4 C26_4 1_555 1_555
C28_4 C27_4 1_555 1_555
C29_4 C28_4 1_555 1_555
H15_4 C29_4 1_555 1_555
C30_4 C29_4 1_555 1_555
C31_4 N1_4 1_555 1_555
C32_4 C30_4 1_555 1_555
C33_4 C32_4 1_555 1_555
H16_4 C33_4 1_555 1_555
H17_4 C33_4 1_555 1_555
H18_4 C33_4 1_555 1_555
O22 C1_4 1_555 1_555
C34_4 C2_4 1_555 1_555
H19_4 C34_4 1_555 1_555
C35_4 C5_4 1_555 1_555
H20_4 C35_4 1_555 1_555
C36_4 C6_4 1_555 1_555
H21_4 C36_4 1_555 1_555
C37_4 C9_4 1_555 1_555
C38_4 C21_4 1_555 1_555
H22_4 C38_4 1_555 1_555
H23_4 C38_4 1_555 1_555
H24_4 C38_4 1_555 1_555
O22_6 C23_4 1_555 1_555
C39_4 C24_4 1_555 1_555
H25_4 C39_4 1_555 1_555
C40_4 C27_4 1_555 1_555
H26_4 C40_4 1_555 1_555
C41_4 C28_4 1_555 1_555
H27_4 C41_4 1_555 1_555
C42_4 C10_4 1_555 1_555
C43_4 C10_4 1_555 1_555
H28_4 C43_4 1_555 1_555
H29_4 C43_4 1_555 1_555
H30_4 C43_4 1_555 1_555
O21_4 C12_4 1_555 1_555
C44_4 C13_4 1_555 1_555
H31_4 C44_4 1_555 1_555
C45_4 C16_4 1_555 1_555
H32_4 C45_4 1_555 1_555
C46_4 C17_4 1_555 1_555
H33_4 C46_4 1_555 1_555
C47_4 C20_4 1_555 1_555
C48_4 C32_4 1_555 1_555
H34_4 C48_4 1_555 1_555
H35_4 C48_4 1_555 1_555
H36_4 C48_4 1_555 1_555
C19_4 C20_4 1_555 1_555
C21_4 C37_4 1_555 1_555
C30_4 C31_4 1_555 1_555
C31_4 C42_4 1_555 1_555
C32_4 C47_4 1_555 1_555
C34_4 C35_4 1_555 1_555
C36_4 C37_4 1_555 1_555
C39_4 C40_4 1_555 1_555
C41_4 C42_4 1_555 1_555
C44_4 C45_4 1_555 1_555
C46_4 C47_4 1_555 1_555
N2_4 C57_4 1_555 1_555
C49_4 O18 1_555 1_555
C50_4 C49_4 1_555 1_555
C51_4 C50_4 1_555 1_555
H37_4 C51_4 1_555 1_555
C52_4 C51_4 1_555 1_555
H38_4 C52_4 1_555 1_555
C53_4 C52_4 1_555 1_555
C54_4 C53_4 1_555 1_555
C55_4 C54_4 1_555 1_555
H39_4 C55_4 1_555 1_555
C56_4 C55_4 1_555 1_555
C57_4 C56_4 1_555 1_555
C58_4 C56_4 1_555 1_555
C59_4 C58_4 1_555 1_555
H40_4 C59_4 1_555 1_555
H41_4 C59_4 1_555 1_555
H42_4 C59_4 1_555 1_555
O20_2 C60_4 1_555 1_555
C60_4 C61_4 1_555 1_555
C61_4 C62_4 1_555 1_555
C62_4 H43_4 1_555 1_555
C63_4 C62_4 1_555 1_555
H44_4 C63_4 1_555 1_555
C64_4 C63_4 1_555 1_555
C65_4 C64_4 1_555 1_555
C66_4 C65_4 1_555 1_555
H45_4 C66_4 1_555 1_555
C67_4 C66_4 1_555 1_555
C68_4 N2_4 1_555 1_555
C69_4 C67_4 1_555 1_555
C70_4 C69_4 1_555 1_555
H46_4 C70_4 1_555 1_555
H47_4 C70_4 1_555 1_555
H48_4 C70_4 1_555 1_555
O20_4 C71_4 1_555 1_555
C71_4 C72_4 1_555 1_555
C72_4 C73_4 1_555 1_555
C73_4 H49_4 1_555 1_555
C74_4 C73_4 1_555 1_555
H50_4 C74_4 1_555 1_555
C75_4 C74_4 1_555 1_555
C76_4 C75_4 1_555 1_555
C77_4 C76_4 1_555 1_555
H51_4 C77_4 1_555 1_555
C78_4 C77_4 1_555 1_555
C79_4 N2_4 1_555 1_555
C80_4 C78_4 1_555 1_555
C81_4 C80_4 1_555 1_555
H52_4 C81_4 1_555 1_555
H53_4 C81_4 1_555 1_555
H54_4 C81_4 1_555 1_555
O21 C49_4 1_555 1_555
C82_4 C50_4 1_555 1_555
H55_4 C82_4 1_555 1_555
C83_4 C53_4 1_555 1_555
H56_4 C83_4 1_555 1_555
C84_4 C54_4 1_555 1_555
H57_4 C84_4 1_555 1_555
C85_4 C57_4 1_555 1_555
C86_4 C69_4 1_555 1_555
H58_4 C86_4 1_555 1_555
H59_4 C86_4 1_555 1_555
H60_4 C86_4 1_555 1_555
O21_5 C71_4 1_555 1_555
C87_4 C72_4 1_555 1_555
H61_4 C87_4 1_555 1_555
C88_4 C75_4 1_555 1_555
H62_4 C88_4 1_555 1_555
C89_4 C76_4 1_555 1_555
H63_4 C89_4 1_555 1_555
C90_4 C58_4 1_555 1_555
C91_4 C58_4 1_555 1_555
H64_4 C91_4 1_555 1_555
H65_4 C91_4 1_555 1_555
H66_4 C91_4 1_555 1_555
O21_3 C60_4 1_555 1_555
C92_4 C61_4 1_555 1_555
H67_4 C92_4 1_555 1_555
C93_4 C64_4 1_555 1_555
H68_4 C93_4 1_555 1_555
C94_4 C65_4 1_555 1_555
H69_4 C94_4 1_555 1_555
C95_4 C68_4 1_555 1_555
C96_4 C80_4 1_555 1_555
H70_4 C96_4 1_555 1_555
H71_4 C96_4 1_555 1_555
H72_4 C96_4 1_555 1_555
C67_4 C68_4 1_555 1_555
C69_4 C85_4 1_555 1_555
C78_4 C79_4 1_555 1_555
C79_4 C90_4 1_555 1_555
C80_4 C95_4 1_555 1_555
C82_4 C83_4 1_555 1_555
C84_4 C85_4 1_555 1_555
C87_4 C88_4 1_555 1_555
C89_4 C90_4 1_555 1_555
C92_4 C93_4 1_555 1_555
C94_4 C95_4 1_555 1_555

#END
