
###############################################################################
#
# This file contains modified crystal structure data generated from the
# MOF subset of the Cambridge Structural Database (CSD) v543 
# hosted by the Cambridge Crystallographic Data Centre (CCDC).
#
# This work is licensed under the Creative Commons
# Attribution-NonCommercial-ShareAlike 4.0 International License.
# To view a copy of this license, visit
# http://creativecommons.org/licenses/by-nc-sa/4.0/
# or send a letter to
# Creative Commons, PO Box 1866, Mountain View, CA 94042, USA.
#
# CIF created using the CSD Python API on 29 September 2022
# The structure has been converted into the P1 space group
# The structure has a 3D framework
# The original CSD entry AVASUM is in the monoclinic crystal system
# The framework has been calculated to contain at least 10.0% void space
# The void calculation uses a probe of radius 1.32A, grid spacing 0.4
#
###############################################################################

data_AVASUM
_chemical_formula_moiety         '(C160 H136 Co7 N16 O36)n'
_symmetry_cell_setting           triclinic
_symmetry_space_group_name_H-M   'P 1'
_symmetry_Int_Tables_number      1
_space_group_name_Hall           'P 1'
loop_
_symmetry_equiv_pos_site_id
_symmetry_equiv_pos_as_xyz
1 x,y,z
_cell_length_a                   21.211(7)
_cell_length_b                   8.718(3)
_cell_length_c                   22.820(9)
_cell_angle_alpha                90
_cell_angle_beta                 101.394(8)
_cell_angle_gamma                90
_cell_volume                     4136.65
loop_
_atom_site_label
_atom_site_type_symbol
_atom_site_fract_x
_atom_site_fract_y
_atom_site_fract_z
H15 H 0.2912 0.0113 0.0109
C20 C 0.2291(2) 0.1913(5) 0.0124(2)
H16 H 0.2359 0.2012 0.0555
C37 C 0.3496(2) 0.6438(5) 0.00357(19)
C38 C 0.3887(3) 0.5902(6) 0.0604(2)
H28 H 0.4239 0.6596 0.0729
H29 H 0.3626 0.5864 0.0902
H30 H 0.4051 0.4896 0.0550
C39 C 0.2544(2) 0.4712(5) 0.0038(2)
H31 H 0.2627 0.4811 0.0469
H34 H 0.3159 0.2884 0.0039
H13 H 0.0949 0.0104 0.9450
C19 C 0.2456(2) 0.0288(5) 0.9962(2)
H14 H 0.2373 0.0189 0.9531
H17 H 0.1841 0.2116 0.9961
Co5 Co 0.44750(2) 0.89059(6) 0.98469(2)
Co7 Co 0.05250(2) 0.39059(6) 0.51531(2)
O11 O 0.00696(13) 0.3260(3) 0.58145(11)
N3 N 0.36727(14) 0.7543(3) 0.97046(13)
N5 N 0.29093(16) 0.5892(4) 0.97904(17)
C35 C 0.3168(2) 0.7677(5) 0.92157(19)
H26 H 0.3153 0.8358 0.8900
C36 C 0.2703(2) 0.6664(5) 0.9272(2)
H27 H 0.2315 0.6522 0.9006
H32 H 0.2088 0.4887 0.9891
C40 C 0.2709(2) 0.3087(5) 0.9876(2)
H33 H 0.2641 0.2988 0.9445
Co1 Co 0.05250(2) 0.60941(6) 0.01531(2)
O1 O 0.09596(14) 0.4398(3) 0.07162(12)
O2 O 0.01530(13) 0.2729(3) 0.04268(11)
N1 N 0.13273(14) 0.7457(3) 0.02954(13)
N2 N 0.20907(16) 0.9108(4) 0.02096(17)
C1 C 0.0680(2) 0.3140(5) 0.07425(17)
C2 C 0.10023(18) 0.1996(5) 0.12047(16)
C3 C 0.1470(2) 0.2478(6) 0.16835(18)
H1 H 0.1609 0.3492 0.1708
C4 C 0.1729(2) 0.1430(7) 0.2127(2)
H2 H 0.2033 0.1743 0.2456
C7 C 0.08147(19) 0.0467(5) 0.11632(18)
H4 H 0.0503 0.0142 0.0842
C15 C 0.1832(2) 0.7323(5) 0.07843(19)
H9 H 0.1847 0.6642 0.1100
C16 C 0.2297(2) 0.8336(5) 0.0728(2)
H10 H 0.2685 0.8478 0.0994
O12 O 0.00696(13) 0.6740(3) 0.08145(11)
O3 O 0.07473(13) 0.5096(3) 0.44465(11)
O5 O 0.18299(14) 0.8901(5) 0.25195(16)
C5 C 0.1528(2) 0.9920(7) 0.2071(2)
C6 C 0.1089(2) 0.9420(6) 0.1597(2)
H3 H 0.0972 0.8391 0.1563
C8 C 0.1452(2) 0.8254(6) 0.2888(2)
C9 C 0.1692(3) 0.6993(8) 0.3193(3)
H5 H 0.2079 0.6581 0.3136
C10 C 0.1367(2) 0.6314(6) 0.3587(3)
H6 H 0.1539 0.5448 0.3798
C11 C 0.07943(18) 0.6889(5) 0.36764(17)
C12 C 0.05543(19) 0.8152(5) 0.33470(16)
H7 H 0.0161 0.8555 0.3393
C13 C 0.0878(2) 0.8834(5) 0.29530(17)
H8 H 0.0706 0.9686 0.2733
C14 C 0.04627(19) 0.6181(5) 0.41353(16)
Co6 Co 0.94750(2) 0.60941(6) 0.48469(2)
O8 O 0.92527(13) 0.4904(3) 0.55535(11)
O14 O 0.81701(14) 0.1099(5) 0.74805(16)
C25 C 0.8472(2) 0.0080(7) 0.7929(2)
C26 C 0.8911(2) 0.0580(6) 0.8403(2)
H20 H 0.9028 0.1609 0.8437
C28 C 0.8548(2) 0.1746(6) 0.7112(2)
C29 C 0.8308(3) 0.3007(8) 0.6807(3)
H22 H 0.7921 0.3419 0.6864
C30 C 0.8633(2) 0.3686(6) 0.6413(3)
H23 H 0.8461 0.4552 0.6202
C31 C 0.92057(18) 0.3111(5) 0.63236(17)
C32 C 0.94457(19) 0.1848(5) 0.66530(16)
H24 H 0.9839 0.1445 0.6607
C33 C 0.9122(2) 0.1166(5) 0.70470(17)
H25 H 0.9294 0.0314 0.7267
C34 C 0.95373(19) 0.3819(5) 0.58647(16)
Co2 Co 0.94750(2) 0.39059(6) 0.98469(2)
O6 O 0.90404(14) 0.5602(3) 0.92838(12)
O7 O 0.98470(13) 0.7271(3) 0.95732(11)
O13 O 0.99304(13) 0.3260(3) 0.91855(11)
N4 N 0.86727(14) 0.2543(3) 0.97046(13)
C21 C 0.9320(2) 0.6860(5) 0.92575(17)
C22 C 0.89977(18) 0.8004(5) 0.87953(16)
C23 C 0.8530(2) 0.7522(6) 0.83165(18)
H18 H 0.8391 0.6508 0.8292
C24 C 0.8271(2) 0.8570(7) 0.7873(2)
H19 H 0.7967 0.8257 0.7544
C27 C 0.91853(19) 0.9533(5) 0.88368(18)
H21 H 0.9497 0.9858 0.9158
O4 O 0.99304(13) 0.6740(3) 0.41855(11)
O6_2 O 0.09596(14) 0.5602(3) 0.57162(12)
O7_2 O 0.01530(13) 0.7271(3) 0.54268(11)
N4_2 N 0.13273(14) 0.2543(3) 0.52954(13)
C21_2 C 0.0680(2) 0.6860(5) 0.57425(17)
C22_2 C 0.10023(18) 0.8004(5) 0.62047(16)
C23_2 C 0.1470(2) 0.7522(6) 0.66835(18)
H18_2 H 0.1609 0.6508 0.6708
C24_2 C 0.1729(2) 0.8570(7) 0.7127(2)
H19_2 H 0.2033 0.8257 0.7456
C27_2 C 0.08147(19) 0.9533(5) 0.61632(18)
H21_2 H 0.0503 0.9858 0.5842
H13_2 H 0.9051 0.0104 0.5550
C19_2 C 0.7544(2) 0.0288(5) 0.5038(2)
H14_2 H 0.7627 0.0189 0.5469
H15_2 H 0.7088 0.0113 0.4891
C20_2 C 0.7709(2) 0.1913(5) 0.4876(2)
H16_2 H 0.7641 0.2012 0.4445
H17_2 H 0.8159 0.2116 0.5039
Co5_2 Co 0.55250(2) 0.89059(6) 0.51531(2)
N3_2 N 0.63273(14) 0.7543(3) 0.52954(13)
N5_2 N 0.70907(16) 0.5892(4) 0.52096(17)
C35_2 C 0.6832(2) 0.7677(5) 0.57843(19)
H26_2 H 0.6847 0.8358 0.6100
C36_2 C 0.7297(2) 0.6664(5) 0.5728(2)
H27_2 H 0.7685 0.6522 0.5994
C37_2 C 0.6504(2) 0.6438(5) 0.49643(19)
C38_2 C 0.6113(3) 0.5902(6) 0.4396(2)
H28_2 H 0.5761 0.6596 0.4271
H29_2 H 0.6374 0.5864 0.4098
H30_2 H 0.5949 0.4896 0.4450
C39_2 C 0.7456(2) 0.4712(5) 0.4962(2)
H31_2 H 0.7373 0.4811 0.4531
H32_2 H 0.7912 0.4887 0.5109
C40_2 C 0.7291(2) 0.3087(5) 0.5124(2)
H33_2 H 0.7359 0.2988 0.5555
H34_2 H 0.6841 0.2884 0.4961
O1_2 O 0.90404(14) 0.4398(3) 0.42838(12)
O2_2 O 0.98470(13) 0.2729(3) 0.45732(11)
N1_2 N 0.86727(14) 0.7457(3) 0.47046(13)
N2_2 N 0.79093(16) 0.9108(4) 0.47904(17)
C1_2 C 0.9320(2) 0.3140(5) 0.42575(17)
C2_2 C 0.89977(18) 0.1996(5) 0.37953(16)
C3_2 C 0.8530(2) 0.2478(6) 0.33165(18)
H1_2 H 0.8391 0.3492 0.3292
C4_2 C 0.8271(2) 0.1430(7) 0.2873(2)
H2_2 H 0.7967 0.1743 0.2544
C7_2 C 0.91853(19) 0.0467(5) 0.38368(18)
H4_2 H 0.9497 0.0142 0.4158
C15_2 C 0.8168(2) 0.7323(5) 0.42157(19)
H9_2 H 0.8153 0.6642 0.3900
C16_2 C 0.7703(2) 0.8336(5) 0.4272(2)
H10_2 H 0.7315 0.8478 0.4006
C17 C 0.8496(2) 0.8562(5) 0.50357(19)
C18 C 0.8887(3) 0.9098(6) 0.5604(2)
H11 H 0.9239 0.8404 0.5729
H12 H 0.8626 0.9136 0.5902
Co6_2 Co 0.44750(2) 0.10941(6) 0.48469(2)
N5_3 N 0.79093(16) 0.0892(4) 0.97904(17)
C35_3 C 0.8168(2) 0.2677(5) 0.92157(19)
H26_3 H 0.8153 0.3358 0.8900
C36_3 C 0.7703(2) 0.1664(5) 0.9272(2)
H27_3 H 0.7315 0.1522 0.9006
Co1_2 Co 0.55250(2) 0.10941(6) 0.01531(2)
N1_3 N 0.63273(14) 0.2457(3) 0.02954(13)
N2_3 N 0.70907(16) 0.4108(4) 0.02096(17)
C15_3 C 0.6832(2) 0.2323(5) 0.07843(19)
H9_3 H 0.6847 0.1642 0.1100
C16_3 C 0.7297(2) 0.3336(5) 0.0728(2)
H10_3 H 0.7685 0.3478 0.0994
H15_3 H 0.7912 0.5113 0.0109
C20_3 C 0.7291(2) 0.6913(5) 0.0124(2)
H16_3 H 0.7359 0.7012 0.0555
O10 O 0.42527(13) 0.0096(3) 0.05535(11)
O12_2 O 0.50696(13) 0.1740(3) 0.08145(11)
H30_3 H 0.9051 0.9896 0.0550
C39_3 C 0.7544(2) 0.9712(5) 0.0038(2)
H31_3 H 0.7627 0.9811 0.0469
H34_3 H 0.8159 0.7884 0.0039
C17_2 C 0.6504(2) 0.3562(5) 0.99643(19)
C18_2 C 0.6113(3) 0.4098(6) 0.9396(2)
H11_2 H 0.5761 0.3404 0.9271
H12_2 H 0.6374 0.4136 0.9098
H13_3 H 0.5949 0.5104 0.9450
C19_3 C 0.7456(2) 0.5288(5) 0.9962(2)
H14_3 H 0.7373 0.5189 0.9531
H17_3 H 0.6841 0.7116 0.9961
O6_3 O 0.40404(14) 0.0602(3) 0.92838(12)
O7_3 O 0.48470(13) 0.2271(3) 0.95732(11)
O8_2 O 0.42527(13) 0.9904(3) 0.55535(11)
O11_2 O 0.50696(13) 0.8260(3) 0.58145(11)
O14_2 O 0.31701(14) 0.6099(5) 0.74805(16)
C21_3 C 0.4320(2) 0.1860(5) 0.92575(17)
C22_3 C 0.39977(18) 0.3004(5) 0.87953(16)
C23_3 C 0.3530(2) 0.2522(6) 0.83165(18)
H18_3 H 0.3391 0.1508 0.8292
C24_3 C 0.3271(2) 0.3570(7) 0.7873(2)
H19_3 H 0.2967 0.3257 0.7544
C25_2 C 0.3472(2) 0.5080(7) 0.7929(2)
C26_2 C 0.3911(2) 0.5580(6) 0.8403(2)
H20_2 H 0.4028 0.6609 0.8437
C27_3 C 0.41853(19) 0.4533(5) 0.88368(18)
H21_3 H 0.4497 0.4858 0.9158
C28_2 C 0.3548(2) 0.6746(6) 0.7112(2)
C29_2 C 0.3308(3) 0.8007(8) 0.6807(3)
H22_2 H 0.2921 0.8419 0.6864
C30_2 C 0.3633(2) 0.8686(6) 0.6413(3)
H23_2 H 0.3461 0.9552 0.6202
C31_2 C 0.42057(18) 0.8111(5) 0.63236(17)
C32_2 C 0.44457(19) 0.6848(5) 0.66530(16)
H24_2 H 0.4839 0.6445 0.6607
C33_2 C 0.4122(2) 0.6166(5) 0.70470(17)
H25_2 H 0.4294 0.5314 0.7267
C34_2 C 0.45373(19) 0.8819(5) 0.58647(16)
H32_3 H 0.7088 0.9887 0.9891
C40_3 C 0.7709(2) 0.8087(5) 0.9876(2)
H33_3 H 0.7641 0.7988 0.9445
O1_3 O 0.59596(14) 0.9398(3) 0.07162(12)
O2_3 O 0.51530(13) 0.7729(3) 0.04268(11)
O3_2 O 0.57473(13) 0.0096(3) 0.44465(11)
O4_2 O 0.49304(13) 0.1740(3) 0.41855(11)
O5_2 O 0.68299(14) 0.3901(5) 0.25195(16)
C1_3 C 0.5680(2) 0.8140(5) 0.07425(17)
C2_3 C 0.60023(18) 0.6996(5) 0.12047(16)
C3_3 C 0.6470(2) 0.7478(6) 0.16835(18)
H1_3 H 0.6609 0.8492 0.1708
C4_3 C 0.6729(2) 0.6430(7) 0.2127(2)
H2_3 H 0.7033 0.6743 0.2456
C5_2 C 0.6528(2) 0.4920(7) 0.2071(2)
C6_2 C 0.6089(2) 0.4420(6) 0.1597(2)
H3_2 H 0.5972 0.3391 0.1563
C7_3 C 0.58147(19) 0.5467(5) 0.11632(18)
H4_3 H 0.5503 0.5142 0.0842
C8_2 C 0.6452(2) 0.3254(6) 0.2888(2)
C9_2 C 0.6692(3) 0.1993(8) 0.3193(3)
H5_2 H 0.7079 0.1581 0.3136
C10_2 C 0.6367(2) 0.1314(6) 0.3587(3)
H6_2 H 0.6539 0.0448 0.3798
C11_2 C 0.57943(18) 0.1889(5) 0.36764(17)
C12_2 C 0.55543(19) 0.3152(5) 0.33470(16)
H7_2 H 0.5161 0.3555 0.3393
C13_2 C 0.5878(2) 0.3834(5) 0.29530(17)
H8_2 H 0.5706 0.4686 0.2733
C14_2 C 0.54627(19) 0.1181(5) 0.41353(16)
O9 O 0.57473(13) 0.9904(3) 0.94465(11)
O13_2 O 0.49304(13) 0.8260(3) 0.91855(11)
N5_4 N 0.20907(16) 0.0892(4) 0.52096(17)
C35_4 C 0.1832(2) 0.2677(5) 0.57843(19)
H26_4 H 0.1847 0.3358 0.6100
C36_4 C 0.2297(2) 0.1664(5) 0.5728(2)
H27_4 H 0.2685 0.1522 0.5994
C37_3 C 0.1504(2) 0.1438(5) 0.49643(19)
C38_3 C 0.1113(3) 0.0902(6) 0.4396(2)
H28_3 H 0.0761 0.1596 0.4271
H29_3 H 0.1374 0.0864 0.4098
N1_4 N 0.36727(14) 0.2457(3) 0.47046(13)
N2_4 N 0.29093(16) 0.4108(4) 0.47904(17)
C15_4 C 0.3168(2) 0.2323(5) 0.42157(19)
H9_4 H 0.3153 0.1642 0.3900
C16_4 C 0.2703(2) 0.3336(5) 0.4272(2)
H10_4 H 0.2315 0.3478 0.4006
C17_3 C 0.3496(2) 0.3562(5) 0.50357(19)
C18_3 C 0.3887(3) 0.4098(6) 0.5604(2)
H11_3 H 0.4239 0.3404 0.5729
H12_3 H 0.3626 0.4136 0.5902
H13_4 H 0.4051 0.5104 0.5550
C19_4 C 0.2544(2) 0.5288(5) 0.5038(2)
H14_4 H 0.2627 0.5189 0.5469
H15_4 H 0.2088 0.5113 0.4891
C20_4 C 0.2709(2) 0.6913(5) 0.4876(2)
H16_4 H 0.2641 0.7012 0.4445
H17_4 H 0.3159 0.7116 0.5039
O6_4 O 0.59596(14) 0.0602(3) 0.57162(12)
O7_4 O 0.51530(13) 0.2271(3) 0.54268(11)
O14_3 O 0.68299(14) 0.6099(5) 0.75195(16)
C21_4 C 0.5680(2) 0.1860(5) 0.57425(17)
C22_4 C 0.60023(18) 0.3004(5) 0.62047(16)
C23_4 C 0.6470(2) 0.2522(6) 0.66835(18)
H18_4 H 0.6609 0.1508 0.6708
C24_4 C 0.6729(2) 0.3570(7) 0.7127(2)
H19_4 H 0.7033 0.3257 0.7456
C25_3 C 0.6528(2) 0.5080(7) 0.7071(2)
C26_3 C 0.6089(2) 0.5580(6) 0.6597(2)
H20_3 H 0.5972 0.6609 0.6563
C27_4 C 0.58147(19) 0.4533(5) 0.61632(18)
H21_4 H 0.5503 0.4858 0.5842
C28_3 C 0.6452(2) 0.6746(6) 0.7888(2)
C29_3 C 0.6692(3) 0.8007(8) 0.8193(3)
H22_3 H 0.7079 0.8419 0.8136
C30_3 C 0.6367(2) 0.8686(6) 0.8587(3)
H23_3 H 0.6539 0.9552 0.8798
C31_3 C 0.57943(18) 0.8111(5) 0.86764(17)
C32_3 C 0.55543(19) 0.6848(5) 0.83470(16)
H24_3 H 0.5161 0.6445 0.8393
C33_3 C 0.5878(2) 0.6166(5) 0.79530(17)
H25_3 H 0.5706 0.5314 0.7733
C34_3 C 0.54627(19) 0.8819(5) 0.91353(16)
H30_4 H 0.0949 0.9896 0.4450
C39_4 C 0.2456(2) 0.9712(5) 0.4962(2)
H31_4 H 0.2373 0.9811 0.4531
H32_4 H 0.2912 0.9887 0.5109
C40_4 C 0.2291(2) 0.8087(5) 0.5124(2)
H33_4 H 0.2359 0.7988 0.5555
H34_4 H 0.1841 0.7884 0.4961
O1_4 O 0.40404(14) 0.9398(3) 0.42838(12)
O2_4 O 0.48470(13) 0.7729(3) 0.45732(11)
O5_3 O 0.31701(14) 0.3901(5) 0.24805(16)
C1_4 C 0.4320(2) 0.8140(5) 0.42575(17)
C2_4 C 0.39977(18) 0.6996(5) 0.37953(16)
C3_4 C 0.3530(2) 0.7478(6) 0.33165(18)
H1_4 H 0.3391 0.8492 0.3292
C4_4 C 0.3271(2) 0.6430(7) 0.2873(2)
H2_4 H 0.2967 0.6743 0.2544
C5_3 C 0.3472(2) 0.4920(7) 0.2929(2)
C6_3 C 0.3911(2) 0.4420(6) 0.3403(2)
H3_3 H 0.4028 0.3391 0.3437
C7_4 C 0.41853(19) 0.5467(5) 0.38368(18)
H4_4 H 0.4497 0.5142 0.4158
C8_3 C 0.3548(2) 0.3254(6) 0.2112(2)
C9_3 C 0.3308(3) 0.1993(8) 0.1807(3)
H5_3 H 0.2921 0.1581 0.1864
C10_3 C 0.3633(2) 0.1314(6) 0.1413(3)
H6_3 H 0.3461 0.0448 0.1202
C11_3 C 0.42057(18) 0.1889(5) 0.13236(17)
C12_3 C 0.44457(19) 0.3152(5) 0.16530(16)
H7_3 H 0.4839 0.3555 0.1607
C13_3 C 0.4122(2) 0.3834(5) 0.20470(17)
H8_3 H 0.4294 0.4686 0.2267
C14_3 C 0.45373(19) 0.1181(5) 0.08647(16)
C17_4 C 0.1504(2) 0.8562(5) 0.99643(19)
C18_4 C 0.1113(3) 0.9098(6) 0.9396(2)
H11_4 H 0.0761 0.8404 0.9271
H12_4 H 0.1374 0.9136 0.9098
O9_2 O 0.07473(13) 0.4904(3) 0.94465(11)
O14_4 O 0.18299(14) 0.1099(5) 0.75195(16)
C25_4 C 0.1528(2) 0.0080(7) 0.7071(2)
C26_4 C 0.1089(2) 0.0580(6) 0.6597(2)
H20_4 H 0.0972 0.1609 0.6563
C28_4 C 0.1452(2) 0.1746(6) 0.7888(2)
C29_4 C 0.1692(3) 0.3007(8) 0.8193(3)
H22_4 H 0.2079 0.3419 0.8136
C30_4 C 0.1367(2) 0.3686(6) 0.8587(3)
H23_4 H 0.1539 0.4552 0.8798
C31_4 C 0.07943(18) 0.3111(5) 0.86764(17)
C32_4 C 0.05543(19) 0.1848(5) 0.83470(16)
H24_4 H 0.0161 0.1445 0.8393
C33_4 C 0.0878(2) 0.1166(5) 0.79530(17)
H25_4 H 0.0706 0.0314 0.7733
C34_4 C 0.04627(19) 0.3819(5) 0.91353(16)
O10_2 O 0.92527(13) 0.5096(3) 0.05535(11)
O5_4 O 0.81701(14) 0.8901(5) 0.24805(16)
C5_4 C 0.8472(2) 0.9920(7) 0.2929(2)
C6_4 C 0.8911(2) 0.9420(6) 0.3403(2)
H3_4 H 0.9028 0.8391 0.3437
C8_4 C 0.8548(2) 0.8254(6) 0.2112(2)
C9_4 C 0.8308(3) 0.6993(8) 0.1807(3)
H5_4 H 0.7921 0.6581 0.1864
C10_4 C 0.8633(2) 0.6314(6) 0.1413(3)
H6_4 H 0.8461 0.5448 0.1202
C11_4 C 0.92057(18) 0.6889(5) 0.13236(17)
C12_4 C 0.94457(19) 0.8152(5) 0.16530(16)
H7_4 H 0.9839 0.8555 0.1607
C13_4 C 0.9122(2) 0.8834(5) 0.20470(17)
H8_4 H 0.9294 0.9686 0.2267
C14_4 C 0.95373(19) 0.6181(5) 0.08647(16)
C37_4 C 0.8496(2) 0.1438(5) 0.00357(19)
C38_4 C 0.8887(3) 0.0902(6) 0.0604(2)
H28_4 H 0.9239 0.1596 0.0729
H29_4 H 0.8626 0.0864 0.0902
loop_
_geom_bond_atom_site_label_1
_geom_bond_atom_site_label_2
_geom_bond_site_symmetry_1
_geom_bond_site_symmetry_2
H16 C20 1_555 1_555
C38 C37 1_555 1_555
H28 C38 1_555 1_555
H29 C38 1_555 1_555
H30 C38 1_555 1_555
H31 C39 1_555 1_555
H14 C19 1_555 1_555
Co5 N3 1_555 1_555
Co7 O11 1_555 1_555
N3 C35 1_555 1_555
N5 C36 1_555 1_555
C35 H26 1_555 1_555
C36 C35 1_555 1_555
H27 C36 1_555 1_555
H33 C40 1_555 1_555
Co1 O1 1_555 1_555
O1 C1 1_555 1_555
O2 C1 1_555 1_555
N1 Co1 1_555 1_555
N2 C16 1_555 1_555
C1 C2 1_555 1_555
C2 C3 1_555 1_555
C3 H1 1_555 1_555
C4 C3 1_555 1_555
H2 C4 1_555 1_555
C7 C2 1_555 1_555
H4 C7 1_555 1_555
C15 N1 1_555 1_555
H9 C15 1_555 1_555
C16 C15 1_555 1_555
H10 C16 1_555 1_555
O12 Co1 1_555 1_555
O3 C14 1_555 1_555
O5 C5 1_555 1_555
C6 C5 1_555 1_555
H3 C6 1_555 1_555
C8 O5 1_555 1_555
C9 C8 1_555 1_555
H5 C9 1_555 1_555
C10 C9 1_555 1_555
H6 C10 1_555 1_555
C11 C10 1_555 1_555
C12 C11 1_555 1_555
H7 C12 1_555 1_555
C13 C8 1_555 1_555
H8 C13 1_555 1_555
C14 C11 1_555 1_555
Co7 O3 1_555 1_555
C12 C13 1_555 1_555
Co6 O8 1_555 1_555
O8 C34 1_555 1_555
O14 C25 1_555 1_555
C26 C25 1_555 1_555
H20 C26 1_555 1_555
C28 O14 1_555 1_555
C29 C28 1_555 1_555
H22 C29 1_555 1_555
C30 C29 1_555 1_555
H23 C30 1_555 1_555
C31 C30 1_555 1_555
C32 C31 1_555 1_555
H24 C32 1_555 1_555
C33 C28 1_555 1_555
H25 C33 1_555 1_555
C34 C31 1_555 1_555
C32 C33 1_555 1_555
O6 Co2 1_555 1_555
O13 Co2 1_555 1_555
N4 Co2 1_555 1_555
C21 O6 1_555 1_555
C22 C21 1_555 1_555
C23 C22 1_555 1_555
H18 C23 1_555 1_555
C24 C23 1_555 1_555
H19 C24 1_555 1_555
C27 C22 1_555 1_555
H21 C27 1_555 1_555
O7 C21 1_555 1_555
Co6 O4 1_555 1_555
O6_2 Co7 1_555 1_555
N4_2 Co7 1_555 1_555
C21_2 O6_2 1_555 1_555
C22_2 C21_2 1_555 1_555
C23_2 C22_2 1_555 1_555
H18_2 C23_2 1_555 1_555
C24_2 C23_2 1_555 1_555
H19_2 C24_2 1_555 1_555
C27_2 C22_2 1_555 1_555
H21_2 C27_2 1_555 1_555
O7_2 C21_2 1_555 1_555
H14_2 C19_2 1_555 1_555
H15_2 C19_2 1_555 1_555
C20_2 C19_2 1_555 1_555
H16_2 C20_2 1_555 1_555
H17_2 C20_2 1_555 1_555
Co5_2 N3_2 1_555 1_555
N3_2 C35_2 1_555 1_555
N5_2 C36_2 1_555 1_555
C35_2 H26_2 1_555 1_555
C36_2 C35_2 1_555 1_555
H27_2 C36_2 1_555 1_555
C37_2 N3_2 1_555 1_555
C38_2 C37_2 1_555 1_555
H28_2 C38_2 1_555 1_555
H29_2 C38_2 1_555 1_555
H30_2 C38_2 1_555 1_555
C39_2 N5_2 1_555 1_555
H31_2 C39_2 1_555 1_555
H32_2 C39_2 1_555 1_555
C40_2 C20_2 1_555 1_555
H33_2 C40_2 1_555 1_555
H34_2 C40_2 1_555 1_555
N5_2 C37_2 1_555 1_555
C39_2 C40_2 1_555 1_555
Co6 O1_2 1_555 1_555
O1_2 C1_2 1_555 1_555
O2_2 C1_2 1_555 1_555
N1_2 Co6 1_555 1_555
N2_2 C16_2 1_555 1_555
C1_2 C2_2 1_555 1_555
C2_2 C3_2 1_555 1_555
C3_2 H1_2 1_555 1_555
C4_2 C3_2 1_555 1_555
H2_2 C4_2 1_555 1_555
C7_2 C2_2 1_555 1_555
H4_2 C7_2 1_555 1_555
C15_2 N1_2 1_555 1_555
H9_2 C15_2 1_555 1_555
C16_2 C15_2 1_555 1_555
H10_2 C16_2 1_555 1_555
C17 N1_2 1_555 1_555
C18 C17 1_555 1_555
H11 C18 1_555 1_555
H12 C18 1_555 1_555
N2_2 C17 1_555 1_555
N4 C35_3 1_555 1_555
N5_3 C36_3 1_555 1_555
C35_3 H26_3 1_555 1_555
C36_3 C35_3 1_555 1_555
H27_3 C36_3 1_555 1_555
N1_3 Co1_2 1_555 1_555
N2_3 C16_3 1_555 1_555
C15_3 N1_3 1_555 1_555
H9_3 C15_3 1_555 1_555
C16_3 C15_3 1_555 1_555
H10_3 C16_3 1_555 1_555
H16_3 C20_3 1_555 1_555
O12_2 Co1_2 1_555 1_555
H31_3 C39_3 1_555 1_555
C18_2 C17_2 1_555 1_555
H11_2 C18_2 1_555 1_555
H12_2 C18_2 1_555 1_555
H13_3 C18_2 1_555 1_555
H14_3 C19_3 1_555 1_555
Co5_2 O11_2 1_555 1_555
O8_2 C34_2 1_555 1_555
O11_2 C34_2 1_555 1_555
O14_2 C25_2 1_555 1_555
C21_3 O6_3 1_555 1_555
C22_3 C21_3 1_555 1_555
C23_3 C22_3 1_555 1_555
H18_3 C23_3 1_555 1_555
C24_3 C23_3 1_555 1_555
H19_3 C24_3 1_555 1_555
C25_2 C24_3 1_555 1_555
C26_2 C25_2 1_555 1_555
H20_2 C26_2 1_555 1_555
C27_3 C22_3 1_555 1_555
H21_3 C27_3 1_555 1_555
C28_2 O14_2 1_555 1_555
C29_2 C28_2 1_555 1_555
H22_2 C29_2 1_555 1_555
C30_2 C29_2 1_555 1_555
H23_2 C30_2 1_555 1_555
C31_2 C30_2 1_555 1_555
C32_2 C31_2 1_555 1_555
H24_2 C32_2 1_555 1_555
C33_2 C28_2 1_555 1_555
H25_2 C33_2 1_555 1_555
C34_2 C31_2 1_555 1_555
H33_3 C40_3 1_555 1_555
O7_3 C21_3 1_555 1_555
C26_2 C27_3 1_555 1_555
C32_2 C33_2 1_555 1_555
O1_3 C1_3 1_555 1_555
O2_3 C1_3 1_555 1_555
O3_2 C14_2 1_555 1_555
O4_2 C14_2 1_555 1_555
O5_2 C5_2 1_555 1_555
C1_3 C2_3 1_555 1_555
C2_3 C3_3 1_555 1_555
C3_3 H1_3 1_555 1_555
C4_3 C3_3 1_555 1_555
H2_3 C4_3 1_555 1_555
C5_2 C4_3 1_555 1_555
C6_2 C5_2 1_555 1_555
H3_2 C6_2 1_555 1_555
C7_3 C2_3 1_555 1_555
H4_3 C7_3 1_555 1_555
C8_2 O5_2 1_555 1_555
C9_2 C8_2 1_555 1_555
H5_2 C9_2 1_555 1_555
C10_2 C9_2 1_555 1_555
H6_2 C10_2 1_555 1_555
C11_2 C10_2 1_555 1_555
C12_2 C11_2 1_555 1_555
H7_2 C12_2 1_555 1_555
C13_2 C8_2 1_555 1_555
H8_2 C13_2 1_555 1_555
C14_2 C11_2 1_555 1_555
Co6_2 O4_2 1_555 1_555
C6_2 C7_3 1_555 1_555
C12_2 C13_2 1_555 1_555
O13_2 Co5 1_555 1_555
N4_2 C35_4 1_555 1_555
N5_4 C36_4 1_555 1_555
C35_4 H26_4 1_555 1_555
C36_4 C35_4 1_555 1_555
H27_4 C36_4 1_555 1_555
C37_3 N4_2 1_555 1_555
C38_3 C37_3 1_555 1_555
H28_3 C38_3 1_555 1_555
H29_3 C38_3 1_555 1_555
N5_4 C37_3 1_555 1_555
N1_4 Co6_2 1_555 1_555
N2_4 C16_4 1_555 1_555
C15_4 N1_4 1_555 1_555
H9_4 C15_4 1_555 1_555
C16_4 C15_4 1_555 1_555
H10_4 C16_4 1_555 1_555
C17_3 N1_4 1_555 1_555
C18_3 C17_3 1_555 1_555
H11_3 C18_3 1_555 1_555
H12_3 C18_3 1_555 1_555
H13_4 C18_3 1_555 1_555
C19_4 N2_4 1_555 1_555
H14_4 C19_4 1_555 1_555
H15_4 C19_4 1_555 1_555
C20_4 C19_4 1_555 1_555
H16_4 C20_4 1_555 1_555
H17_4 C20_4 1_555 1_555
O7_4 Co6_2 1_555 1_555
O9 C34_3 1_555 1_555
O13_2 C34_3 1_555 1_555
O14_3 C25_3 1_555 1_555
C21_4 O6_4 1_555 1_555
C22_4 C21_4 1_555 1_555
C23_4 C22_4 1_555 1_555
H18_4 C23_4 1_555 1_555
C24_4 C23_4 1_555 1_555
H19_4 C24_4 1_555 1_555
C25_3 C24_4 1_555 1_555
C26_3 C25_3 1_555 1_555
H20_3 C26_3 1_555 1_555
C27_4 C22_4 1_555 1_555
H21_4 C27_4 1_555 1_555
C28_3 O14_3 1_555 1_555
C29_3 C28_3 1_555 1_555
H22_3 C29_3 1_555 1_555
C30_3 C29_3 1_555 1_555
H23_3 C30_3 1_555 1_555
C31_3 C30_3 1_555 1_555
C32_3 C31_3 1_555 1_555
H24_3 C32_3 1_555 1_555
C33_3 C28_3 1_555 1_555
H25_3 C33_3 1_555 1_555
C34_3 C31_3 1_555 1_555
H31_4 C39_4 1_555 1_555
H32_4 C39_4 1_555 1_555
C40_4 C20_4 1_555 1_555
H33_4 C40_4 1_555 1_555
H34_4 C40_4 1_555 1_555
N2_4 C17_3 1_555 1_555
O7_4 C21_4 1_555 1_555
C26_3 C27_4 1_555 1_555
C32_3 C33_3 1_555 1_555
C39_4 C40_4 1_555 1_555
O1_4 C1_4 1_555 1_555
O2_4 C1_4 1_555 1_555
O10 C14_3 1_555 1_555
O12_2 C14_3 1_555 1_555
O5_3 C5_3 1_555 1_555
C1_4 C2_4 1_555 1_555
C2_4 C3_4 1_555 1_555
C3_4 H1_4 1_555 1_555
C4_4 C3_4 1_555 1_555
H2_4 C4_4 1_555 1_555
C5_3 C4_4 1_555 1_555
C6_3 C5_3 1_555 1_555
H3_3 C6_3 1_555 1_555
C7_4 C2_4 1_555 1_555
H4_4 C7_4 1_555 1_555
C8_3 O5_3 1_555 1_555
C9_3 C8_3 1_555 1_555
H5_3 C9_3 1_555 1_555
C10_3 C9_3 1_555 1_555
H6_3 C10_3 1_555 1_555
C11_3 C10_3 1_555 1_555
C12_3 C11_3 1_555 1_555
H7_3 C12_3 1_555 1_555
C13_3 C8_3 1_555 1_555
H8_3 C13_3 1_555 1_555
C14_3 C11_3 1_555 1_555
Co5_2 O2_4 1_555 1_555
C6_3 C7_4 1_555 1_555
C12_3 C13_3 1_555 1_555
C18_4 C17_4 1_555 1_555
H11_4 C18_4 1_555 1_555
H12_4 C18_4 1_555 1_555
O9_2 C34_4 1_555 1_555
O14_4 C25_4 1_555 1_555
C26_4 C25_4 1_555 1_555
H20_4 C26_4 1_555 1_555
C28_4 O14_4 1_555 1_555
C29_4 C28_4 1_555 1_555
H22_4 C29_4 1_555 1_555
C30_4 C29_4 1_555 1_555
H23_4 C30_4 1_555 1_555
C31_4 C30_4 1_555 1_555
C32_4 C31_4 1_555 1_555
H24_4 C32_4 1_555 1_555
C33_4 C28_4 1_555 1_555
H25_4 C33_4 1_555 1_555
C34_4 C31_4 1_555 1_555
C32_4 C33_4 1_555 1_555
O10_2 C14_4 1_555 1_555
O5_4 C5_4 1_555 1_555
C6_4 C5_4 1_555 1_555
H3_4 C6_4 1_555 1_555
C8_4 O5_4 1_555 1_555
C9_4 C8_4 1_555 1_555
H5_4 C9_4 1_555 1_555
C10_4 C9_4 1_555 1_555
H6_4 C10_4 1_555 1_555
C11_4 C10_4 1_555 1_555
C12_4 C11_4 1_555 1_555
H7_4 C12_4 1_555 1_555
C13_4 C8_4 1_555 1_555
H8_4 C13_4 1_555 1_555
C14_4 C11_4 1_555 1_555
C12_4 C13_4 1_555 1_555
C38_4 C37_4 1_555 1_555
H28_4 C38_4 1_555 1_555
H29_4 C38_4 1_555 1_555

#END
