
###############################################################################
#
# This file contains modified crystal structure data generated from the
# MOF subset of the Cambridge Structural Database (CSD) v543 
# hosted by the Cambridge Crystallographic Data Centre (CCDC).
#
# This work is licensed under the Creative Commons
# Attribution-NonCommercial-ShareAlike 4.0 International License.
# To view a copy of this license, visit
# http://creativecommons.org/licenses/by-nc-sa/4.0/
# or send a letter to
# Creative Commons, PO Box 1866, Mountain View, CA 94042, USA.
#
# CIF created using the CSD Python API on 29 September 2022
# The structure has been converted into the P1 space group
# The structure has a 3D framework
# The original CSD entry AVEBUB is in the orthorhombic crystal system
# The framework has been calculated to contain at least 10.0% void space
# The void calculation uses a probe of radius 1.32A, grid spacing 0.4
# The framework is charged, counterions have been retained in the structure
#
###############################################################################

data_AVEBUB
_chemical_formula_moiety         '(C168 H96 Cd8 O56 P8 8-)n'
_symmetry_cell_setting           triclinic
_symmetry_space_group_name_H-M   'P 1'
_symmetry_Int_Tables_number      1
_space_group_name_Hall           'P 1'
loop_
_symmetry_equiv_pos_site_id
_symmetry_equiv_pos_as_xyz
1 x,y,z
_cell_length_a                   23.728(3)
_cell_length_b                   13.165(2)
_cell_length_c                   30.085(6)
_cell_angle_alpha                90
_cell_angle_beta                 90
_cell_angle_gamma                90
_cell_volume                     9397.93
loop_
_atom_site_label
_atom_site_type_symbol
_atom_site_fract_x
_atom_site_fract_y
_atom_site_fract_z
Cd1 Cd 0.59616(2) 0.71043(2) 0.37694(2)
P1 P 0.55859(3) 0.44501(7) 0.36780(2)
O1 O 0.55834(9) 0.55708(18) 0.36403(7)
O2 O 0.80672(10) 0.1891(2) 0.36638(9)
O3 O 0.83587(9) 0.3384(2) 0.38922(8)
O4 O 0.46262(10) 0.2608(2) 0.56326(7)
O5 O 0.39147(10) 0.3616(2) 0.54691(8)
O6 O 0.46576(12) 0.3058(2) 0.16487(8)
O7 O 0.40547(11) 0.2208(3) 0.20458(10)
C1 C 0.73817(14) 0.3189(3) 0.37478(9)
C2 C 0.52448(12) 0.3902(3) 0.32023(9)
C3 C 0.79711(15) 0.2781(3) 0.37696(10)
C4 C 0.52192(12) 0.4017(3) 0.41668(9)
C5 C 0.62862(13) 0.3927(3) 0.37000(9)
C6 C 0.44630(15) 0.2786(3) 0.20152(12)
C7 C 0.43781(14) 0.3210(3) 0.53730(11)
C8 C 0.46581(13) 0.3466(3) 0.49411(10)
C9 C 0.47328(13) 0.3183(3) 0.24363(11)
C10 C 0.72565(15) 0.4142(3) 0.38998(14)
H1 H 0.7541 0.4544 0.4019
C11 C 0.69540(14) 0.2586(3) 0.35855(14)
H2 H 0.7032 0.1923 0.3497
C12 C 0.67068(15) 0.4520(3) 0.38777(14)
H3 H 0.6626 0.5169 0.3982
C13 C 0.64104(15) 0.2956(3) 0.35533(15)
H4 H 0.6128 0.2552 0.3433
C14 C 0.53928(18) 0.3200(3) 0.44074(13)
H5 H 0.5703 0.2828 0.4312
C15 C 0.47637(15) 0.4573(3) 0.43159(12)
H6 H 0.4645 0.5141 0.4158
C16 C 0.51113(18) 0.2914(3) 0.47952(13)
H7 H 0.5231 0.2348 0.4954
C17 C 0.44836(15) 0.4290(4) 0.46974(12)
H8 H 0.4172 0.4661 0.4791
C18 C 0.4854(2) 0.3174(4) 0.32195(13)
H9 H 0.4750 0.2906 0.3493
C19 C 0.4598(2) 0.2807(4) 0.28322(14)
H10 H 0.4330 0.2294 0.2852
C20 C 0.5349(2) 0.4341(5) 0.28037(19)
H11 H 0.5585 0.4904 0.2786
C21 C 0.5101(2) 0.3949(5) 0.2418(2)
H12 H 0.5195 0.4227 0.2144
Cd2 Cd 0.40384(2) 0.21043(2) 0.12306(2)
Cd3 Cd 0.40384(2) 0.28957(2) 0.62306(2)
Cd4 Cd 0.90384(2) 0.21043(2) 0.37694(2)
O8 O 0.69328(10) 0.6891(2) 0.36638(9)
O9 O 0.66413(9) 0.8384(2) 0.38922(8)
O10 O 0.53738(10) 0.7392(2) 0.43674(7)
O11 O 0.60853(10) 0.6384(2) 0.45309(8)
O12 O 0.53424(12) 0.8058(2) 0.33513(8)
O13 O 0.59453(11) 0.7208(3) 0.29542(10)
O4_2 O 0.03738(10) 0.7392(2) 0.06326(7)
O5_2 O 0.10853(10) 0.6384(2) 0.04691(8)
C7_2 C 0.06219(14) 0.6790(3) 0.03730(11)
Cd3_2 Cd 0.09616(2) 0.71043(2) 0.12306(2)
O6_2 O 0.03424(12) 0.6942(2) 0.66487(8)
O7_2 O 0.09453(11) 0.7792(3) 0.70458(10)
C6_2 C 0.05370(15) 0.7214(3) 0.70152(12)
C8_2 C 0.03419(13) 0.6534(3) 0.99411(10)
C9_2 C 0.02672(13) 0.6817(3) 0.74363(11)
C15_2 C 0.02363(15) 0.5427(3) 0.93159(12)
H6_2 H 0.0355 0.4859 0.9158
C17_2 C 0.05164(15) 0.5710(4) 0.96974(12)
H8_2 H 0.0828 0.5339 0.9791
C18_2 C 0.0146(2) 0.6826(4) 0.82195(13)
H9_2 H 0.0250 0.7094 0.8493
C19_2 C 0.0402(2) 0.7193(4) 0.78322(14)
H10_2 H 0.0670 0.7706 0.7852
Cd2_2 Cd 0.09616(2) 0.78957(2) 0.62306(2)
Cd1_2 Cd 0.90384(2) 0.28957(2) 0.87694(2)
P1_2 P 0.94141(3) 0.55499(7) 0.86780(2)
O1_2 O 0.94166(9) 0.44292(18) 0.86403(7)
O2_2 O 0.69328(10) 0.8109(2) 0.86638(9)
O3_2 O 0.66413(9) 0.6616(2) 0.88922(8)
C1_2 C 0.76183(14) 0.6811(3) 0.87478(9)
C2_2 C 0.97552(12) 0.6098(3) 0.82023(9)
C3_2 C 0.70289(15) 0.7219(3) 0.87696(10)
C4_2 C 0.97808(12) 0.5983(3) 0.91668(9)
C5_2 C 0.87138(13) 0.6073(3) 0.87000(9)
C10_2 C 0.77435(15) 0.5858(3) 0.88998(14)
H1_2 H 0.7459 0.5456 0.9019
C11_2 C 0.80460(14) 0.7414(3) 0.85855(14)
H2_2 H 0.7968 0.8077 0.8497
C12_2 C 0.82932(15) 0.5480(3) 0.88777(14)
H3_2 H 0.8374 0.4831 0.8982
C13_2 C 0.85896(15) 0.7044(3) 0.85533(15)
H4_2 H 0.8872 0.7448 0.8433
C14_2 C 0.96072(18) 0.6800(3) 0.94074(13)
H5_2 H 0.9297 0.7172 0.9312
C16_2 C 0.98887(18) 0.7086(3) 0.97952(13)
H7_2 H 0.9769 0.7652 0.9954
C20_2 C 0.9651(2) 0.5659(5) 0.78037(19)
H11_2 H 0.9415 0.5096 0.7786
C21_2 C 0.9899(2) 0.6051(5) 0.7418(2)
H12_2 H 0.9805 0.5773 0.7144
Cd4_2 Cd 0.59616(2) 0.78957(2) 0.87694(2)
O8_2 O 0.80672(10) 0.3109(2) 0.86638(9)
O9_2 O 0.83587(9) 0.1616(2) 0.88922(8)
O10_2 O 0.96262(10) 0.2608(2) 0.93674(7)
O11_2 O 0.89147(10) 0.3616(2) 0.95309(8)
O12_2 O 0.96576(12) 0.1942(2) 0.83513(8)
O13_2 O 0.90547(11) 0.2792(3) 0.79542(10)
O1_3 O 0.44166(9) 0.05708(18) 0.13597(7)
H3_3 H 0.3374 0.0169 0.1018
H6_3 H 0.5355 0.0141 0.0842
O8_3 O 0.30672(10) 0.1891(2) 0.13362(9)
O9_3 O 0.33587(9) 0.3384(2) 0.11078(8)
O10_3 O 0.46262(10) 0.2392(2) 0.06326(7)
O11_3 O 0.39147(10) 0.1384(2) 0.04691(8)
P1_3 P 0.44141(3) 0.94501(7) 0.13220(2)
O2_3 O 0.19328(10) 0.6891(2) 0.13362(9)
O3_3 O 0.16413(9) 0.8384(2) 0.11078(8)
C1_3 C 0.26183(14) 0.8189(3) 0.12522(9)
C2_3 C 0.47552(12) 0.8902(3) 0.17977(9)
C3_3 C 0.20289(15) 0.7781(3) 0.12304(10)
C4_3 C 0.47808(12) 0.9017(3) 0.08332(9)
C5_3 C 0.37138(13) 0.8927(3) 0.13000(9)
C6_3 C 0.55370(15) 0.7786(3) 0.29848(12)
C8_3 C 0.53419(13) 0.8466(3) 0.00589(10)
C9_3 C 0.52672(13) 0.8183(3) 0.25637(11)
C10_3 C 0.27435(15) 0.9142(3) 0.11002(14)
H1_3 H 0.2459 0.9544 0.0981
C11_3 C 0.30460(14) 0.7586(3) 0.14145(14)
H2_3 H 0.2968 0.6923 0.1503
C12_3 C 0.32932(15) 0.9520(3) 0.11223(14)
C13_3 C 0.35896(15) 0.7956(3) 0.14467(15)
H4_3 H 0.3872 0.7552 0.1567
C14_3 C 0.46072(18) 0.8200(3) 0.05926(13)
H5_3 H 0.4297 0.7828 0.0688
C15_3 C 0.52363(15) 0.9573(3) 0.06841(12)
C16_3 C 0.48887(18) 0.7914(3) 0.02048(13)
H7_3 H 0.4769 0.7348 0.0046
C17_3 C 0.55164(15) 0.9290(4) 0.03026(12)
H8_3 H 0.5828 0.9661 0.0209
C18_3 C 0.5146(2) 0.8174(4) 0.17805(13)
H9_3 H 0.5250 0.7906 0.1507
C19_3 C 0.5402(2) 0.7807(4) 0.21678(14)
H10_3 H 0.5670 0.7294 0.2148
C20_3 C 0.4651(2) 0.9341(5) 0.21963(19)
H11_3 H 0.4415 0.9904 0.2214
C21_3 C 0.4899(2) 0.8949(5) 0.2582(2)
H12_3 H 0.4805 0.9227 0.2856
O4_3 O 0.53738(10) 0.7608(2) 0.93674(7)
O5_3 O 0.60853(10) 0.8616(2) 0.95309(8)
C7_3 C 0.56219(14) 0.8210(3) 0.96270(11)
P1_4 P 0.05859(3) 0.05499(7) 0.63220(2)
O2_4 O 0.30672(10) 0.3109(2) 0.63362(9)
O3_4 O 0.33587(9) 0.1616(2) 0.61078(8)
C1_4 C 0.23817(14) 0.1811(3) 0.62522(9)
C2_4 C 0.02448(12) 0.1098(3) 0.67977(9)
C3_4 C 0.29711(15) 0.2219(3) 0.62304(10)
C4_4 C 0.02192(12) 0.0983(3) 0.58332(9)
C5_4 C 0.12862(13) 0.1073(3) 0.63000(9)
C10_4 C 0.22565(15) 0.0858(3) 0.61002(14)
H1_4 H 0.2541 0.0456 0.5981
C11_4 C 0.19540(14) 0.2414(3) 0.64145(14)
H2_4 H 0.2032 0.3077 0.6503
C12_4 C 0.17068(15) 0.0480(3) 0.61223(14)
C13_4 C 0.14104(15) 0.2044(3) 0.64467(15)
H4_4 H 0.1128 0.2448 0.6567
C14_4 C 0.03928(18) 0.1800(3) 0.55926(13)
H5_4 H 0.0703 0.2172 0.5688
C16_4 C 0.01113(18) 0.2086(3) 0.52048(13)
H7_4 H 0.0231 0.2652 0.5046
C20_4 C 0.0349(2) 0.0659(5) 0.71963(19)
H11_4 H 0.0585 0.0096 0.7214
C21_4 C 0.0101(2) 0.1051(5) 0.7582(2)
H12_4 H 0.0195 0.0773 0.7856
O1_4 O 0.05834(9) 0.94292(18) 0.63597(7)
H3_4 H 0.1626 0.9831 0.6018
O8_4 O 0.19328(10) 0.8109(2) 0.63362(9)
O9_4 O 0.16413(9) 0.6616(2) 0.61078(8)
O10_4 O 0.03738(10) 0.7608(2) 0.56326(7)
O11_4 O 0.10853(10) 0.8616(2) 0.54691(8)
O4_4 O 0.96262(10) 0.2392(2) 0.43674(7)
O5_4 O 0.89147(10) 0.1384(2) 0.45309(8)
C6_4 C 0.94630(15) 0.2214(3) 0.79848(12)
C7_4 C 0.93781(14) 0.1790(3) 0.46270(11)
C8_4 C 0.96581(13) 0.1534(3) 0.50589(10)
C9_4 C 0.97328(13) 0.1817(3) 0.75637(11)
C15_4 C 0.97637(15) 0.0427(3) 0.56841(12)
C17_4 C 0.94836(15) 0.0710(4) 0.53026(12)
H8_4 H 0.9172 0.0339 0.5209
C18_4 C 0.9854(2) 0.1826(4) 0.67805(13)
H9_4 H 0.9750 0.2094 0.6507
C19_4 C 0.9598(2) 0.2193(4) 0.71678(14)
H10_4 H 0.9330 0.2706 0.7148
P1_5 P 0.44141(3) 0.55499(7) 0.63220(2)
O1_5 O 0.44166(9) 0.44292(18) 0.63597(7)
O6_3 O 0.53424(12) 0.6942(2) 0.83513(8)
O7_3 O 0.59453(11) 0.7792(3) 0.79542(10)
C1_5 C 0.26183(14) 0.6811(3) 0.62522(9)
C2_5 C 0.47552(12) 0.6098(3) 0.67977(9)
C3_5 C 0.20289(15) 0.7219(3) 0.62304(10)
C4_5 C 0.47808(12) 0.5983(3) 0.58332(9)
C5_5 C 0.37138(13) 0.6073(3) 0.63000(9)
C6_5 C 0.55370(15) 0.7214(3) 0.79848(12)
C7_5 C 0.56219(14) 0.6790(3) 0.46270(11)
C8_5 C 0.53419(13) 0.6534(3) 0.50589(10)
C9_5 C 0.52672(13) 0.6817(3) 0.75637(11)
C10_5 C 0.27435(15) 0.5858(3) 0.61002(14)
H1_5 H 0.2459 0.5456 0.5981
C11_5 C 0.30460(14) 0.7414(3) 0.64145(14)
H2_5 H 0.2968 0.8077 0.6503
C12_5 C 0.32932(15) 0.5480(3) 0.61223(14)
H3_5 H 0.3374 0.4831 0.6018
C13_5 C 0.35896(15) 0.7044(3) 0.64467(15)
H4_5 H 0.3872 0.7448 0.6567
C14_5 C 0.46072(18) 0.6800(3) 0.55926(13)
H5_5 H 0.4297 0.7172 0.5688
C15_5 C 0.52363(15) 0.5427(3) 0.56841(12)
H6_4 H 0.5355 0.4859 0.5842
C16_5 C 0.48887(18) 0.7086(3) 0.52048(13)
H7_5 H 0.4769 0.7652 0.5046
C17_5 C 0.55164(15) 0.5710(4) 0.53026(12)
H8_5 H 0.5828 0.5339 0.5209
C18_5 C 0.5146(2) 0.6826(4) 0.67805(13)
H9_5 H 0.5250 0.7094 0.6507
C19_5 C 0.5402(2) 0.7193(4) 0.71678(14)
H10_5 H 0.5670 0.7706 0.7148
C20_5 C 0.4651(2) 0.5659(5) 0.71963(19)
H11_5 H 0.4415 0.5096 0.7214
C21_5 C 0.4899(2) 0.6051(5) 0.7582(2)
H12_5 H 0.4805 0.5773 0.7856
O12_3 O 0.46576(12) 0.1942(2) 0.66487(8)
O13_3 O 0.40547(11) 0.2792(3) 0.70458(10)
P1_6 P 0.05859(3) 0.44501(7) 0.13220(2)
O1_6 O 0.05834(9) 0.55708(18) 0.13597(7)
C1_6 C 0.23817(14) 0.3189(3) 0.12522(9)
C2_6 C 0.02448(12) 0.3902(3) 0.17977(9)
C3_6 C 0.29711(15) 0.2781(3) 0.12304(10)
C4_6 C 0.02192(12) 0.4017(3) 0.08332(9)
C5_6 C 0.12862(13) 0.3927(3) 0.13000(9)
C10_6 C 0.22565(15) 0.4142(3) 0.11002(14)
H1_6 H 0.2541 0.4544 0.0981
C11_6 C 0.19540(14) 0.2586(3) 0.14145(14)
H2_6 H 0.2032 0.1923 0.1503
C12_6 C 0.17068(15) 0.4520(3) 0.11223(14)
H3_6 H 0.1626 0.5169 0.1018
C13_6 C 0.14104(15) 0.2956(3) 0.14467(15)
H4_6 H 0.1128 0.2552 0.1567
C14_6 C 0.03928(18) 0.3200(3) 0.05926(13)
H5_6 H 0.0703 0.2828 0.0688
C16_6 C 0.01113(18) 0.2914(3) 0.02048(13)
H7_6 H 0.0231 0.2348 0.0046
C20_6 C 0.0349(2) 0.4341(5) 0.21963(19)
H11_6 H 0.0585 0.4904 0.2214
C21_6 C 0.0101(2) 0.3949(5) 0.2582(2)
H12_6 H 0.0195 0.4227 0.2856
O12_4 O 0.03424(12) 0.8058(2) 0.16487(8)
O13_4 O 0.09453(11) 0.7208(3) 0.20458(10)
O6_4 O 0.96576(12) 0.3058(2) 0.33513(8)
O7_4 O 0.90547(11) 0.2208(3) 0.29542(10)
C6_6 C 0.94630(15) 0.2786(3) 0.29848(12)
C8_6 C 0.96581(13) 0.3466(3) 0.00589(10)
C9_6 C 0.97328(13) 0.3183(3) 0.25637(11)
C15_6 C 0.97637(15) 0.4573(3) 0.06841(12)
H6_5 H 0.9645 0.5141 0.0842
C17_6 C 0.94836(15) 0.4290(4) 0.03026(12)
H8_6 H 0.9172 0.4661 0.0209
C18_6 C 0.9854(2) 0.3174(4) 0.17805(13)
H9_6 H 0.9750 0.2906 0.1507
C19_6 C 0.9598(2) 0.2807(4) 0.21678(14)
H10_6 H 0.9330 0.2294 0.2148
C7_6 C 0.93781(14) 0.3210(3) 0.96270(11)
C7_7 C 0.43781(14) 0.1790(3) 0.03730(11)
P1_7 P 0.55859(3) 0.05499(7) 0.86780(2)
C1_7 C 0.73817(14) 0.1811(3) 0.87478(9)
C2_7 C 0.52448(12) 0.1098(3) 0.82023(9)
C3_7 C 0.79711(15) 0.2219(3) 0.87696(10)
C4_7 C 0.52192(12) 0.0983(3) 0.91668(9)
C5_7 C 0.62862(13) 0.1073(3) 0.87000(9)
C6_7 C 0.44630(15) 0.2214(3) 0.70152(12)
C8_7 C 0.46581(13) 0.1534(3) 0.99411(10)
C9_7 C 0.47328(13) 0.1817(3) 0.74363(11)
C10_7 C 0.72565(15) 0.0858(3) 0.88998(14)
H1_7 H 0.7541 0.0456 0.9019
C11_7 C 0.69540(14) 0.2414(3) 0.85855(14)
H2_7 H 0.7032 0.3077 0.8497
C12_7 C 0.67068(15) 0.0480(3) 0.88777(14)
C13_7 C 0.64104(15) 0.2044(3) 0.85533(15)
H4_7 H 0.6128 0.2448 0.8433
C14_7 C 0.53928(18) 0.1800(3) 0.94074(13)
H5_7 H 0.5703 0.2172 0.9312
C15_7 C 0.47637(15) 0.0427(3) 0.93159(12)
C16_7 C 0.51113(18) 0.2086(3) 0.97952(13)
H7_7 H 0.5231 0.2652 0.9954
C17_7 C 0.44836(15) 0.0710(4) 0.96974(12)
H8_7 H 0.4172 0.0339 0.9791
C18_7 C 0.4854(2) 0.1826(4) 0.82195(13)
H9_7 H 0.4750 0.2094 0.8493
C19_7 C 0.4598(2) 0.2193(4) 0.78322(14)
H10_7 H 0.4330 0.2706 0.7852
C20_7 C 0.5349(2) 0.0659(5) 0.78037(19)
H11_7 H 0.5585 0.0096 0.7786
C21_7 C 0.5101(2) 0.1051(5) 0.7418(2)
H12_7 H 0.5195 0.0773 0.7144
O1_7 O 0.55834(9) 0.94292(18) 0.86403(7)
H3_7 H 0.6626 0.9831 0.8982
H6_6 H 0.4645 0.9859 0.9158
C6_8 C 0.05370(15) 0.7786(3) 0.20152(12)
C7_8 C 0.06219(14) 0.8210(3) 0.53730(11)
C8_8 C 0.03419(13) 0.8466(3) 0.49411(10)
C9_8 C 0.02672(13) 0.8183(3) 0.24363(11)
C15_8 C 0.02363(15) 0.9573(3) 0.43159(12)
C17_8 C 0.05164(15) 0.9290(4) 0.46974(12)
H8_8 H 0.0828 0.9661 0.4791
C18_8 C 0.0146(2) 0.8174(4) 0.32195(13)
H9_8 H 0.0250 0.7906 0.3493
C19_8 C 0.0402(2) 0.7807(4) 0.28322(14)
H10_8 H 0.0670 0.7294 0.2852
O1_8 O 0.94166(9) 0.05708(18) 0.36403(7)
H3_8 H 0.8374 0.0169 0.3982
P1_8 P 0.94141(3) 0.94501(7) 0.36780(2)
C1_8 C 0.76183(14) 0.8189(3) 0.37478(9)
C2_8 C 0.97552(12) 0.8902(3) 0.32023(9)
C3_8 C 0.70289(15) 0.7781(3) 0.37696(10)
C4_8 C 0.97808(12) 0.9017(3) 0.41668(9)
C5_8 C 0.87138(13) 0.8927(3) 0.37000(9)
C10_8 C 0.77435(15) 0.9142(3) 0.38998(14)
H1_8 H 0.7459 0.9544 0.4019
C11_8 C 0.80460(14) 0.7586(3) 0.35855(14)
H2_8 H 0.7968 0.6923 0.3497
C12_8 C 0.82932(15) 0.9520(3) 0.38777(14)
C13_8 C 0.85896(15) 0.7956(3) 0.35533(15)
H4_8 H 0.8872 0.7552 0.3433
C14_8 C 0.96072(18) 0.8200(3) 0.44074(13)
H5_8 H 0.9297 0.7828 0.4312
C16_8 C 0.98887(18) 0.7914(3) 0.47952(13)
H7_8 H 0.9769 0.7348 0.4954
C20_8 C 0.9651(2) 0.9341(5) 0.28037(19)
H11_8 H 0.9415 0.9904 0.2786
C21_8 C 0.9899(2) 0.8949(5) 0.2418(2)
H12_8 H 0.9805 0.9227 0.2144
H6_7 H 0.9645 0.9859 0.5842
H6_8 H 0.0355 0.0141 0.4158
loop_
_geom_bond_atom_site_label_1
_geom_bond_atom_site_label_2
_geom_bond_site_symmetry_1
_geom_bond_site_symmetry_2
Cd1 O1 1_555 1_555
P1 O1 1_555 1_555
O2 C3 1_555 1_555
O3 C3 1_555 1_555
O4 C7 1_555 1_555
O5 C7 1_555 1_555
O6 C6 1_555 1_555
O7 C6 1_555 1_555
C1 C3 1_555 1_555
C2 P1 1_555 1_555
C4 P1 1_555 1_555
C5 P1 1_555 1_555
C6 C9 1_555 1_555
C7 C8 1_555 1_555
C8 C16 1_555 1_555
C9 C19 1_555 1_555
C10 C1 1_555 1_555
H1 C10 1_555 1_555
C11 C1 1_555 1_555
H2 C11 1_555 1_555
C12 C5 1_555 1_555
H3 C12 1_555 1_555
C13 C5 1_555 1_555
H4 C13 1_555 1_555
C14 C4 1_555 1_555
H5 C14 1_555 1_555
C15 C4 1_555 1_555
H6 C15 1_555 1_555
C16 C14 1_555 1_555
H7 C16 1_555 1_555
C17 C8 1_555 1_555
H8 C17 1_555 1_555
C18 C2 1_555 1_555
H9 C18 1_555 1_555
C19 C18 1_555 1_555
H10 C19 1_555 1_555
C20 C2 1_555 1_555
H11 C20 1_555 1_555
C21 C9 1_555 1_555
H12 C21 1_555 1_555
Cd2 O6 1_555 1_555
Cd3 O4 1_555 1_555
Cd4 O2 1_555 1_555
O8 Cd1 1_555 1_555
O9 Cd1 1_555 1_555
O10 Cd1 1_555 1_555
O11 Cd1 1_555 1_555
O12 Cd1 1_555 1_555
O13 Cd1 1_555 1_555
O3 Cd4 1_555 1_555
O5 Cd3 1_555 1_555
O7 Cd2 1_555 1_555
C10 C12 1_555 1_555
C11 C13 1_555 1_555
C15 C17 1_555 1_555
C20 C21 1_555 1_555
O4_2 C7_2 1_555 1_555
O5_2 C7_2 1_555 1_555
Cd3_2 O4_2 1_555 1_555
O5_2 Cd3_2 1_555 1_555
O6_2 C6_2 1_555 1_555
O7_2 C6_2 1_555 1_555
C6_2 C9_2 1_555 1_555
C9_2 C19_2 1_555 1_555
H6_2 C15_2 1_555 1_555
C17_2 C8_2 1_555 1_555
H8_2 C17_2 1_555 1_555
H9_2 C18_2 1_555 1_555
C19_2 C18_2 1_555 1_555
H10_2 C19_2 1_555 1_555
Cd2_2 O6_2 1_555 1_555
O7_2 Cd2_2 1_555 1_555
C15_2 C17_2 1_555 1_555
Cd1_2 O1_2 1_555 1_555
P1_2 O1_2 1_555 1_555
O2_2 C3_2 1_555 1_555
O3_2 C3_2 1_555 1_555
C1_2 C3_2 1_555 1_555
C2_2 P1_2 1_555 1_555
C4_2 P1_2 1_555 1_555
C5_2 P1_2 1_555 1_555
C10_2 C1_2 1_555 1_555
H1_2 C10_2 1_555 1_555
C11_2 C1_2 1_555 1_555
H2_2 C11_2 1_555 1_555
C12_2 C5_2 1_555 1_555
H3_2 C12_2 1_555 1_555
C13_2 C5_2 1_555 1_555
H4_2 C13_2 1_555 1_555
C14_2 C4_2 1_555 1_555
H5_2 C14_2 1_555 1_555
C16_2 C14_2 1_555 1_555
H7_2 C16_2 1_555 1_555
C20_2 C2_2 1_555 1_555
H11_2 C20_2 1_555 1_555
H12_2 C21_2 1_555 1_555
Cd4_2 O2_2 1_555 1_555
O8_2 Cd1_2 1_555 1_555
O9_2 Cd1_2 1_555 1_555
O10_2 Cd1_2 1_555 1_555
O11_2 Cd1_2 1_555 1_555
O12_2 Cd1_2 1_555 1_555
O13_2 Cd1_2 1_555 1_555
O3_2 Cd4_2 1_555 1_555
C10_2 C12_2 1_555 1_555
C11_2 C13_2 1_555 1_555
C20_2 C21_2 1_555 1_555
Cd2 O1_3 1_555 1_555
O8_3 Cd2 1_555 1_555
O9_3 Cd2 1_555 1_555
O10_3 Cd2 1_555 1_555
O11_3 Cd2 1_555 1_555
O2_3 C3_3 1_555 1_555
O3_3 C3_3 1_555 1_555
O12 C6_3 1_555 1_555
O13 C6_3 1_555 1_555
C1_3 C3_3 1_555 1_555
C2_3 P1_3 1_555 1_555
C4_3 P1_3 1_555 1_555
C5_3 P1_3 1_555 1_555
C6_3 C9_3 1_555 1_555
C8_3 C16_3 1_555 1_555
C9_3 C19_3 1_555 1_555
C10_3 C1_3 1_555 1_555
H1_3 C10_3 1_555 1_555
C11_3 C1_3 1_555 1_555
H2_3 C11_3 1_555 1_555
C12_3 C5_3 1_555 1_555
C13_3 C5_3 1_555 1_555
H4_3 C13_3 1_555 1_555
C14_3 C4_3 1_555 1_555
H5_3 C14_3 1_555 1_555
C15_3 C4_3 1_555 1_555
C16_3 C14_3 1_555 1_555
H7_3 C16_3 1_555 1_555
C17_3 C8_3 1_555 1_555
H8_3 C17_3 1_555 1_555
C18_3 C2_3 1_555 1_555
H9_3 C18_3 1_555 1_555
C19_3 C18_3 1_555 1_555
H10_3 C19_3 1_555 1_555
C20_3 C2_3 1_555 1_555
H11_3 C20_3 1_555 1_555
C21_3 C9_3 1_555 1_555
H12_3 C21_3 1_555 1_555
Cd3_2 O2_3 1_555 1_555
O3_3 Cd3_2 1_555 1_555
C10_3 C12_3 1_555 1_555
C11_3 C13_3 1_555 1_555
C15_3 C17_3 1_555 1_555
C20_3 C21_3 1_555 1_555
O4_3 C7_3 1_555 1_555
O5_3 C7_3 1_555 1_555
Cd4_2 O4_3 1_555 1_555
O5_3 Cd4_2 1_555 1_555
O2_4 C3_4 1_555 1_555
O3_4 C3_4 1_555 1_555
C1_4 C3_4 1_555 1_555
C2_4 P1_4 1_555 1_555
C4_4 P1_4 1_555 1_555
C5_4 P1_4 1_555 1_555
C10_4 C1_4 1_555 1_555
H1_4 C10_4 1_555 1_555
C11_4 C1_4 1_555 1_555
H2_4 C11_4 1_555 1_555
C12_4 C5_4 1_555 1_555
C13_4 C5_4 1_555 1_555
H4_4 C13_4 1_555 1_555
C14_4 C4_4 1_555 1_555
H5_4 C14_4 1_555 1_555
C16_4 C14_4 1_555 1_555
H7_4 C16_4 1_555 1_555
C20_4 C2_4 1_555 1_555
H11_4 C20_4 1_555 1_555
H12_4 C21_4 1_555 1_555
Cd3 O2_4 1_555 1_555
O3_4 Cd3 1_555 1_555
C10_4 C12_4 1_555 1_555
C11_4 C13_4 1_555 1_555
C20_4 C21_4 1_555 1_555
Cd2_2 O1_4 1_555 1_555
O8_4 Cd2_2 1_555 1_555
O9_4 Cd2_2 1_555 1_555
O10_4 Cd2_2 1_555 1_555
O11_4 Cd2_2 1_555 1_555
O4_4 C7_4 1_555 1_555
O5_4 C7_4 1_555 1_555
O12_2 C6_4 1_555 1_555
O13_2 C6_4 1_555 1_555
C6_4 C9_4 1_555 1_555
C7_4 C8_4 1_555 1_555
C9_4 C19_4 1_555 1_555
C17_4 C8_4 1_555 1_555
H8_4 C17_4 1_555 1_555
H9_4 C18_4 1_555 1_555
C19_4 C18_4 1_555 1_555
H10_4 C19_4 1_555 1_555
Cd4 O4_4 1_555 1_555
O5_4 Cd4 1_555 1_555
C15_4 C17_4 1_555 1_555
Cd3 O1_5 1_555 1_555
P1_5 O1_5 1_555 1_555
O8_4 C3_5 1_555 1_555
O9_4 C3_5 1_555 1_555
O10 C7_5 1_555 1_555
O11 C7_5 1_555 1_555
O6_3 C6_5 1_555 1_555
O7_3 C6_5 1_555 1_555
C1_5 C3_5 1_555 1_555
C2_5 P1_5 1_555 1_555
C4_5 P1_5 1_555 1_555
C5_5 P1_5 1_555 1_555
C6_5 C9_5 1_555 1_555
C7_5 C8_5 1_555 1_555
C8_5 C16_5 1_555 1_555
C9_5 C19_5 1_555 1_555
C10_5 C1_5 1_555 1_555
H1_5 C10_5 1_555 1_555
C11_5 C1_5 1_555 1_555
H2_5 C11_5 1_555 1_555
C12_5 C5_5 1_555 1_555
H3_5 C12_5 1_555 1_555
C13_5 C5_5 1_555 1_555
H4_5 C13_5 1_555 1_555
C14_5 C4_5 1_555 1_555
H5_5 C14_5 1_555 1_555
C15_5 C4_5 1_555 1_555
H6_4 C15_5 1_555 1_555
C16_5 C14_5 1_555 1_555
H7_5 C16_5 1_555 1_555
C17_5 C8_5 1_555 1_555
H8_5 C17_5 1_555 1_555
C18_5 C2_5 1_555 1_555
H9_5 C18_5 1_555 1_555
C19_5 C18_5 1_555 1_555
H10_5 C19_5 1_555 1_555
C20_5 C2_5 1_555 1_555
H11_5 C20_5 1_555 1_555
C21_5 C9_5 1_555 1_555
H12_5 C21_5 1_555 1_555
Cd4_2 O6_3 1_555 1_555
O12_3 Cd3 1_555 1_555
O13_3 Cd3 1_555 1_555
O7_3 Cd4_2 1_555 1_555
C10_5 C12_5 1_555 1_555
C11_5 C13_5 1_555 1_555
C15_5 C17_5 1_555 1_555
C20_5 C21_5 1_555 1_555
Cd3_2 O1_6 1_555 1_555
P1_6 O1_6 1_555 1_555
O8_3 C3_6 1_555 1_555
O9_3 C3_6 1_555 1_555
C1_6 C3_6 1_555 1_555
C2_6 P1_6 1_555 1_555
C4_6 P1_6 1_555 1_555
C5_6 P1_6 1_555 1_555
C10_6 C1_6 1_555 1_555
H1_6 C10_6 1_555 1_555
C11_6 C1_6 1_555 1_555
H2_6 C11_6 1_555 1_555
C12_6 C5_6 1_555 1_555
H3_6 C12_6 1_555 1_555
C13_6 C5_6 1_555 1_555
H4_6 C13_6 1_555 1_555
C14_6 C4_6 1_555 1_555
H5_6 C14_6 1_555 1_555
C16_6 C14_6 1_555 1_555
H7_6 C16_6 1_555 1_555
C20_6 C2_6 1_555 1_555
H11_6 C20_6 1_555 1_555
H12_6 C21_6 1_555 1_555
O12_4 Cd3_2 1_555 1_555
O13_4 Cd3_2 1_555 1_555
C10_6 C12_6 1_555 1_555
C11_6 C13_6 1_555 1_555
C20_6 C21_6 1_555 1_555
O6_4 C6_6 1_555 1_555
O7_4 C6_6 1_555 1_555
C6_6 C9_6 1_555 1_555
C9_6 C19_6 1_555 1_555
H6_5 C15_6 1_555 1_555
C17_6 C8_6 1_555 1_555
H8_6 C17_6 1_555 1_555
H9_6 C18_6 1_555 1_555
C19_6 C18_6 1_555 1_555
H10_6 C19_6 1_555 1_555
Cd4 O6_4 1_555 1_555
O7_4 Cd4 1_555 1_555
C15_6 C17_6 1_555 1_555
O10_2 C7_6 1_555 1_555
O11_2 C7_6 1_555 1_555
O10_3 C7_7 1_555 1_555
O11_3 C7_7 1_555 1_555
O8_2 C3_7 1_555 1_555
O9_2 C3_7 1_555 1_555
O12_3 C6_7 1_555 1_555
O13_3 C6_7 1_555 1_555
C1_7 C3_7 1_555 1_555
C2_7 P1_7 1_555 1_555
C4_7 P1_7 1_555 1_555
C5_7 P1_7 1_555 1_555
C6_7 C9_7 1_555 1_555
C8_7 C16_7 1_555 1_555
C9_7 C19_7 1_555 1_555
C10_7 C1_7 1_555 1_555
H1_7 C10_7 1_555 1_555
C11_7 C1_7 1_555 1_555
H2_7 C11_7 1_555 1_555
C12_7 C5_7 1_555 1_555
C13_7 C5_7 1_555 1_555
H4_7 C13_7 1_555 1_555
C14_7 C4_7 1_555 1_555
H5_7 C14_7 1_555 1_555
C15_7 C4_7 1_555 1_555
C16_7 C14_7 1_555 1_555
H7_7 C16_7 1_555 1_555
C17_7 C8_7 1_555 1_555
H8_7 C17_7 1_555 1_555
C18_7 C2_7 1_555 1_555
H9_7 C18_7 1_555 1_555
C19_7 C18_7 1_555 1_555
H10_7 C19_7 1_555 1_555
C20_7 C2_7 1_555 1_555
H11_7 C20_7 1_555 1_555
C21_7 C9_7 1_555 1_555
H12_7 C21_7 1_555 1_555
C10_7 C12_7 1_555 1_555
C11_7 C13_7 1_555 1_555
C15_7 C17_7 1_555 1_555
C20_7 C21_7 1_555 1_555
Cd4_2 O1_7 1_555 1_555
O10_4 C7_8 1_555 1_555
O11_4 C7_8 1_555 1_555
O12_4 C6_8 1_555 1_555
O13_4 C6_8 1_555 1_555
C6_8 C9_8 1_555 1_555
C7_8 C8_8 1_555 1_555
C9_8 C19_8 1_555 1_555
C17_8 C8_8 1_555 1_555
H8_8 C17_8 1_555 1_555
H9_8 C18_8 1_555 1_555
C19_8 C18_8 1_555 1_555
H10_8 C19_8 1_555 1_555
C15_8 C17_8 1_555 1_555
Cd4 O1_8 1_555 1_555
O8 C3_8 1_555 1_555
O9 C3_8 1_555 1_555
C1_8 C3_8 1_555 1_555
C2_8 P1_8 1_555 1_555
C4_8 P1_8 1_555 1_555
C5_8 P1_8 1_555 1_555
C10_8 C1_8 1_555 1_555
H1_8 C10_8 1_555 1_555
C11_8 C1_8 1_555 1_555
H2_8 C11_8 1_555 1_555
C12_8 C5_8 1_555 1_555
C13_8 C5_8 1_555 1_555
H4_8 C13_8 1_555 1_555
C14_8 C4_8 1_555 1_555
H5_8 C14_8 1_555 1_555
C16_8 C14_8 1_555 1_555
H7_8 C16_8 1_555 1_555
C20_8 C2_8 1_555 1_555
H11_8 C20_8 1_555 1_555
H12_8 C21_8 1_555 1_555
C10_8 C12_8 1_555 1_555
C11_8 C13_8 1_555 1_555
C20_8 C21_8 1_555 1_555

#END
