
###############################################################################
#
# This file contains modified crystal structure data generated from the
# MOF subset of the Cambridge Structural Database (CSD) v543 
# hosted by the Cambridge Crystallographic Data Centre (CCDC).
#
# This work is licensed under the Creative Commons
# Attribution-NonCommercial-ShareAlike 4.0 International License.
# To view a copy of this license, visit
# http://creativecommons.org/licenses/by-nc-sa/4.0/
# or send a letter to
# Creative Commons, PO Box 1866, Mountain View, CA 94042, USA.
#
# CIF created using the CSD Python API on 29 September 2022
# The structure has been converted into the P1 space group
# The structure has a 3D framework
# The original CSD entry AVEBUB01 is in the monoclinic crystal system
# The framework has been calculated to contain at least 10.0% void space
# The void calculation uses a probe of radius 1.32A, grid spacing 0.4
# The framework is charged, counterions have been retained in the structure
#
###############################################################################

data_AVEBUB01
_chemical_formula_moiety         '(C170 H96 Cd8 O52 P8 8-)n'
_symmetry_cell_setting           triclinic
_symmetry_space_group_name_H-M   'P 1'
_symmetry_Int_Tables_number      1
_space_group_name_Hall           'P 1'
loop_
_symmetry_equiv_pos_site_id
_symmetry_equiv_pos_as_xyz
1 x,y,z
_cell_length_a                   15.135(4)
_cell_length_b                   22.028(5)
_cell_length_c                   18.370(4)
_cell_angle_alpha                90
_cell_angle_beta                 101.248(4)
_cell_angle_gamma                90
_cell_volume                     6006.81
loop_
_atom_site_label
_atom_site_type_symbol
_atom_site_fract_x
_atom_site_fract_y
_atom_site_fract_z
O7 O 0.2135(3) 0.4161(2) 0.1120(2)
O8 O 0.2948(3) 0.49032(18) 0.1676(2)
C17 C 0.0526(4) 0.4792(3) 0.1202(3)
H10 H 0.0477 0.4461 0.0883
C18 C 0.1423(4) 0.5496(3) 0.1995(3)
H11 H 0.1989 0.5642 0.2215
C19 C 0.1350(4) 0.4983(3) 0.1530(3)
C20 C 0.0672(4) 0.5779(2) 0.2124(3)
H12 H 0.0731 0.6115 0.2436
C21 C 0.2198(4) 0.4664(3) 0.1428(3)
Cd4 Cd 0.37486(2) 0.40362(2) 0.14368(2)
O22 O 0.0458(3) 0.91949(19) 0.9169(2)
O11 O 0.3639(3) 0.29896(16) 0.1150(2)
O12 O 0.3901(3) 0.36104(17) 0.0280(2)
C31 C 0.3456(4) 0.2008(3) 0.0139(3)
H18 H 0.3230 0.1956 0.0571
C32 C 0.3801(3) 0.2564(3) 0.0000(3)
C35 C 0.3793(4) 0.3092(3) 0.0500(3)
O2 O 0.3656(3) 0.12850(15) 0.75958(19)
P2 P 0.37527(9) 0.10004(6) 0.83477(7)
C22 C 0.4751(3) 0.0531(2) 0.8569(3)
C23 C 0.5488(4) 0.0736(3) 0.9044(3)
H13 H 0.5459 0.1095 0.9306
C24 C 0.6291(4) 0.0410(3) 0.9139(3)
H14 H 0.6796 0.0558 0.9462
C29 C 0.3825(4) 0.1589(2) 0.9030(3)
C30 C 0.3435(4) 0.1523(3) 0.9656(3)
H17 H 0.3164 0.1159 0.9746
C32_2 C 0.3801(3) 0.2564(3) 1.0000(3)
C33 C 0.4230(4) 0.2612(3) 0.9393(3)
H19 H 0.4518 0.2971 0.9308
C34 C 0.4223(4) 0.2131(3) 0.8931(3)
H20 H 0.4504 0.2173 0.8526
C36 C 0.2795(4) 0.0565(2) 0.8460(3)
C37 C 0.2857(4) 0.0045(3) 0.8893(3)
C39 C 0.1229(4) 0.0008(3) 0.8726(3)
C40 C 0.1178(4) 0.0522(3) 0.8302(3)
H23 H 0.0614 0.0682 0.8101
C41 C 0.1945(4) 0.0813(2) 0.8162(3)
H24 H 0.1897 0.1164 0.7876
Cd5 Cd 0.37486(2) 0.09638(2) 0.64368(2)
O1 O 0.9025(2) 0.62604(15) 0.27310(17)
O3 O 0.9121(3) 0.86319(17) 0.0098(2)
O5 O 0.5339(3) 0.4094(2) 0.1844(2)
O6 O 0.4684(3) 0.4829(2) 0.1124(3)
P1 P 0.88735(9) 0.60100(6) 0.19634(7)
C1 C 0.8808(3) 0.6628(2) 0.1303(3)
C2 C 0.8606(4) 0.6537(2) 0.0549(3)
H1 H 0.8449 0.6153 0.0356
C3 C 0.8640(4) 0.7021(2) 0.0082(3)
C4 C 0.8844(4) 0.7590(2) 0.0348(3)
C5 C 0.9004(4) 0.7678(3) 0.1105(3)
H3 H 0.9120 0.8068 0.1293
C6 C 0.8995(4) 0.7210(3) 0.1578(3)
H4 H 0.9115 0.7277 0.2088
C8 C 0.7888(3) 0.5566(2) 0.1750(3)
C9 C 0.7840(4) 0.5034(3) 0.2135(3)
H5 H 0.8353 0.4886 0.2447
C10 C 0.7020(4) 0.4710(3) 0.2061(3)
H6 H 0.6993 0.4355 0.2329
C11 C 0.6269(4) 0.4922(3) 0.1595(3)
C12 C 0.6302(4) 0.5468(3) 0.1203(4)
H7 H 0.5785 0.5620 0.0900
C13 C 0.7113(4) 0.5775(3) 0.1272(3)
H8 H 0.7142 0.6127 0.0998
C14 C 0.5361(4) 0.4594(3) 0.1504(4)
C15 C 0.9813(3) 0.5577(2) 0.1799(3)
C16 C 0.9741(4) 0.5074(3) 0.1321(3)
H9 H 0.9179 0.4931 0.1088
Cd7 Cd 0.88815(2) 0.59466(2) 0.38813(2)
O16 O 0.3656(3) 0.37150(15) 0.25958(19)
Cd2 Cd 0.88815(2) 0.90534(2) 0.88813(2)
O4 O 0.8736(3) 0.80217(16) 0.9146(2)
O9 O 0.7927(3) 0.98183(18) 0.9155(2)
O10 O 0.7250(3) 0.90410(18) 0.8544(2)
H2 H 0.8520 0.6957 0.9572
C7 C 0.8908(4) 0.8111(3) 0.9833(3)
C25 C 0.6351(4) 0.9877(3) 0.8769(3)
C26 C 0.5573(4) 0.9670(3) 0.8297(3)
H15 H 0.5588 0.9303 0.8051
C27 C 0.4786(4) 0.9997(2) 0.8188(3)
H16 H 0.4280 0.9858 0.7859
C28 C 0.7217(4) 0.9553(3) 0.8825(3)
H21 H 0.3418 0.9888 0.9107
C38 C 0.2073(5) 0.9762(3) 0.9006(3)
H22 H 0.2115 0.9401 0.9274
C42 C 0.0393(5) 0.9705(3) 0.8838(3)
O15 O 0.9025(2) 0.87396(15) 0.77310(17)
O21 O 0.9640(3) 0.99408(18) 0.8595(2)
O7_2 O 0.2135(3) 0.0839(2) 0.6120(2)
O8_2 O 0.2948(3) 0.00968(18) 0.6676(2)
C17_2 C 0.0526(4) 0.0208(3) 0.6202(3)
H10_2 H 0.0477 0.0539 0.5883
C19_2 C 0.1350(4) 0.0017(3) 0.6530(3)
C21_2 C 0.2198(4) 0.0336(3) 0.6428(3)
C18_2 C 0.1423(4) 0.9504(3) 0.6995(3)
H11_2 H 0.1989 0.9358 0.7215
C20_2 C 0.0672(4) 0.9221(2) 0.7124(3)
H12_2 H 0.0731 0.8885 0.7436
O22_2 O 0.0458(3) 0.58051(19) 0.4169(2)
O5_2 O 0.5339(3) 0.0906(2) 0.6844(2)
O6_2 O 0.4684(3) 0.0171(2) 0.6124(3)
H5_2 H 0.8353 0.0114 0.7447
C10_2 C 0.7020(4) 0.0290(3) 0.7061(3)
H6_2 H 0.6993 0.0645 0.7329
C11_2 C 0.6269(4) 0.0078(3) 0.6595(3)
C14_2 C 0.5361(4) 0.0406(3) 0.6504(4)
H9_2 H 0.9179 0.0069 0.6088
O19 O 0.3639(3) 0.20104(16) 0.6150(2)
O20 O 0.3901(3) 0.13896(17) 0.5280(2)
O3_2 O 0.9121(3) 0.63681(17) 0.5098(2)
O4_2 O 0.8736(3) 0.69783(16) 0.4146(2)
O9_2 O 0.7927(3) 0.51817(18) 0.4155(2)
O10_2 O 0.7250(3) 0.59590(18) 0.3544(2)
P1_2 P 0.88735(9) 0.89900(6) 0.69634(7)
P2_2 P 0.37527(9) 0.39996(6) 0.33477(7)
C1_2 C 0.8808(3) 0.8372(2) 0.6303(3)
C2_2 C 0.8606(4) 0.8463(2) 0.5549(3)
H1_2 H 0.8449 0.8847 0.5356
C3_2 C 0.8640(4) 0.7979(2) 0.5082(3)
H2_2 H 0.8520 0.8043 0.4572
C4_2 C 0.8844(4) 0.7410(2) 0.5348(3)
C5_2 C 0.9004(4) 0.7322(3) 0.6105(3)
H3_2 H 0.9120 0.6932 0.6293
C6_2 C 0.8995(4) 0.7790(3) 0.6578(3)
H4_2 H 0.9115 0.7723 0.7088
C7_2 C 0.8908(4) 0.6889(3) 0.4833(3)
C8_2 C 0.7888(3) 0.9434(2) 0.6750(3)
C9_2 C 0.7840(4) 0.9966(3) 0.7135(3)
C12_2 C 0.6302(4) 0.9532(3) 0.6203(4)
H7_2 H 0.5785 0.9380 0.5900
C13_2 C 0.7113(4) 0.9225(3) 0.6272(3)
H8_2 H 0.7142 0.8873 0.5998
C15_2 C 0.9813(3) 0.9423(2) 0.6799(3)
C16_2 C 0.9741(4) 0.9926(3) 0.6321(3)
C22_2 C 0.4751(3) 0.4469(2) 0.3569(3)
C23_2 C 0.5488(4) 0.4264(3) 0.4044(3)
H13_2 H 0.5459 0.3905 0.4306
C24_2 C 0.6291(4) 0.4590(3) 0.4139(3)
H14_2 H 0.6796 0.4442 0.4462
C25_2 C 0.6351(4) 0.5123(3) 0.3769(3)
C26_2 C 0.5573(4) 0.5330(3) 0.3297(3)
H15_2 H 0.5588 0.5697 0.3051
C27_2 C 0.4786(4) 0.5003(2) 0.3188(3)
H16_2 H 0.4280 0.5142 0.2859
C28_2 C 0.7217(4) 0.5447(3) 0.3825(3)
C29_2 C 0.3825(4) 0.3411(2) 0.4030(3)
C30_2 C 0.3435(4) 0.3477(3) 0.4656(3)
H17_2 H 0.3164 0.3841 0.4746
C31_2 C 0.3456(4) 0.2992(3) 0.5139(3)
H18_2 H 0.3230 0.3044 0.5571
C32_3 C 0.3801(3) 0.2436(3) 0.5000(3)
C33_2 C 0.4230(4) 0.2388(3) 0.4393(3)
H19_2 H 0.4518 0.2029 0.4308
C34_2 C 0.4223(4) 0.2869(3) 0.3931(3)
H20_2 H 0.4504 0.2827 0.3526
C35_2 C 0.3793(4) 0.1908(3) 0.5500(3)
C36_2 C 0.2795(4) 0.4435(2) 0.3460(3)
C37_2 C 0.2857(4) 0.4955(3) 0.3893(3)
H21_2 H 0.3418 0.5112 0.4107
C38_2 C 0.2073(5) 0.5238(3) 0.4006(3)
H22_2 H 0.2115 0.5599 0.4274
C39_2 C 0.1229(4) 0.4992(3) 0.3726(3)
C40_2 C 0.1178(4) 0.4478(3) 0.3302(3)
H23_2 H 0.0614 0.4318 0.3101
C41_2 C 0.1945(4) 0.4187(2) 0.3162(3)
H24_2 H 0.1897 0.3836 0.2876
C42_2 C 0.0393(5) 0.5295(3) 0.3838(3)
O21_2 O 0.9640(3) 0.50592(18) 0.3595(2)
O13 O 0.0360(3) 0.49408(18) 0.6405(2)
Cd6 Cd 0.11185(2) 0.40534(2) 0.61187(2)
O1_2 O 0.0975(2) 0.12604(15) 0.22690(17)
O2_2 O 0.6344(3) 0.62850(15) 0.74042(19)
O3_3 O 0.0879(3) 0.36319(17) 0.4902(2)
O4_3 O 0.1264(3) 0.30217(16) 0.5854(2)
O9_3 O 0.2073(3) 0.48183(18) 0.5845(2)
O10_3 O 0.2750(3) 0.40410(18) 0.6456(2)
O11_2 O 0.6361(3) 0.79896(16) 0.3850(2)
O12_2 O 0.6099(3) 0.86104(17) 0.4720(2)
O14 O 0.9542(3) 0.41949(19) 0.5831(2)
P1_3 P 0.11265(9) 0.10100(6) 0.30366(7)
P2_3 P 0.62473(9) 0.60004(6) 0.66523(7)
C1_3 C 0.1192(3) 0.1628(2) 0.3697(3)
C2_3 C 0.1394(4) 0.1537(2) 0.4451(3)
H1_3 H 0.1551 0.1153 0.4644
C3_3 C 0.1360(4) 0.2021(2) 0.4918(3)
H2_3 H 0.1480 0.1957 0.5428
C4_3 C 0.1156(4) 0.2590(2) 0.4652(3)
C5_3 C 0.0996(4) 0.2678(3) 0.3895(3)
H3_3 H 0.0880 0.3068 0.3707
C6_3 C 0.1005(4) 0.2210(3) 0.3422(3)
H4_3 H 0.0885 0.2277 0.2912
C7_3 C 0.1092(4) 0.3111(3) 0.5167(3)
C8_3 C 0.2112(3) 0.0566(2) 0.3250(3)
C9_3 C 0.2160(4) 0.0034(3) 0.2865(3)
C12_3 C 0.3698(4) 0.0468(3) 0.3797(4)
H7_3 H 0.4215 0.0620 0.4100
C13_3 C 0.2887(4) 0.0775(3) 0.3728(3)
H8_3 H 0.2858 0.1127 0.4002
C15_3 C 0.0187(3) 0.0577(2) 0.3201(3)
C16_3 C 0.0259(4) 0.0074(3) 0.3679(3)
C22_3 C 0.5249(3) 0.5531(2) 0.6431(3)
C23_3 C 0.4512(4) 0.5736(3) 0.5956(3)
H13_3 H 0.4541 0.6095 0.5694
C24_3 C 0.3709(4) 0.5410(3) 0.5861(3)
H14_3 H 0.3204 0.5558 0.5538
C25_3 C 0.3649(4) 0.4877(3) 0.6231(3)
C26_3 C 0.4427(4) 0.4670(3) 0.6703(3)
H15_3 H 0.4412 0.4303 0.6949
C27_3 C 0.5214(4) 0.4997(2) 0.6812(3)
H16_3 H 0.5720 0.4858 0.7141
C28_3 C 0.2783(4) 0.4553(3) 0.6175(3)
C29_3 C 0.6175(4) 0.6589(2) 0.5970(3)
C30_3 C 0.6565(4) 0.6523(3) 0.5344(3)
H17_3 H 0.6836 0.6159 0.5254
C31_3 C 0.6544(4) 0.7008(3) 0.4861(3)
H18_3 H 0.6770 0.6956 0.4429
C32_4 C 0.6199(3) 0.7564(3) 0.5000(3)
C33_3 C 0.5770(4) 0.7612(3) 0.5607(3)
H19_3 H 0.5482 0.7971 0.5692
C34_3 C 0.5777(4) 0.7131(3) 0.6069(3)
H20_3 H 0.5496 0.7173 0.6474
C35_3 C 0.6207(4) 0.8092(3) 0.4500(3)
C36_3 C 0.7205(4) 0.5565(2) 0.6540(3)
C37_3 C 0.7143(4) 0.5045(3) 0.6107(3)
H21_3 H 0.6582 0.4888 0.5893
C38_3 C 0.7927(5) 0.4762(3) 0.5994(3)
H22_3 H 0.7885 0.4401 0.5726
C39_3 C 0.8771(4) 0.5008(3) 0.6274(3)
C40_3 C 0.8822(4) 0.5522(3) 0.6698(3)
H23_3 H 0.9386 0.5682 0.6899
C41_3 C 0.8055(4) 0.5813(2) 0.6838(3)
H24_3 H 0.8103 0.6164 0.7124
C42_3 C 0.9607(5) 0.4705(3) 0.6162(3)
Cd3 Cd 0.62514(2) 0.90362(2) 0.35632(2)
Cd5_2 Cd 0.62514(2) 0.59638(2) 0.85632(2)
Cd7_2 Cd 0.11185(2) 0.09466(2) 0.11187(2)
O15_2 O 0.0975(2) 0.37396(15) 0.72690(17)
O5_3 O 0.4661(3) 0.9094(2) 0.3156(2)
O6_3 O 0.5316(3) 0.9829(2) 0.3876(3)
H5_3 H 0.1647 0.9886 0.2553
C10_3 C 0.2980(4) 0.9710(3) 0.2939(3)
H6_3 H 0.3007 0.9355 0.2671
C11_3 C 0.3731(4) 0.9922(3) 0.3405(3)
C14_3 C 0.4639(4) 0.9594(3) 0.3496(4)
H9_3 H 0.0821 0.9931 0.3912
O16_2 O 0.6344(3) 0.87150(15) 0.24042(19)
O17 O 0.7865(3) 0.9161(2) 0.3880(2)
O18 O 0.7052(3) 0.99032(18) 0.3324(2)
C18_3 C 0.8577(4) 0.0496(3) 0.3005(3)
H11_3 H 0.8011 0.0642 0.2785
C20_3 C 0.9328(4) 0.0779(2) 0.2876(3)
H12_3 H 0.9269 0.1115 0.2564
C17_3 C 0.9474(4) 0.9792(3) 0.3798(3)
H10_3 H 0.9523 0.9461 0.4117
C19_3 C 0.8650(4) 0.9983(3) 0.3470(3)
C21_3 C 0.7802(4) 0.9664(3) 0.3572(3)
O13_2 O 0.0360(3) 0.00592(18) 0.1405(2)
O4_4 O 0.1264(3) 0.19783(16) 0.0854(2)
O9_4 O 0.2073(3) 0.01817(18) 0.0845(2)
O10_4 O 0.2750(3) 0.09590(18) 0.1456(2)
O14_2 O 0.9542(3) 0.08051(19) 0.0831(2)
H2_4 H 0.1480 0.3043 0.0428
C7_4 C 0.1092(4) 0.1889(3) 0.0167(3)
C25_4 C 0.3649(4) 0.0123(3) 0.1231(3)
C26_4 C 0.4427(4) 0.0330(3) 0.1703(3)
H15_4 H 0.4412 0.0697 0.1949
C27_4 C 0.5214(4) 0.0003(2) 0.1812(3)
H16_4 H 0.5720 0.0142 0.2141
C28_4 C 0.2783(4) 0.0447(3) 0.1175(3)
H21_4 H 0.6582 0.0112 0.0893
C38_4 C 0.7927(5) 0.0238(3) 0.0994(3)
H22_4 H 0.7885 0.0599 0.0726
C42_4 C 0.9607(5) 0.0295(3) 0.1162(3)
O3_4 O 0.0879(3) 0.13681(17) 0.9902(2)
O5_4 O 0.4661(3) 0.5906(2) 0.8156(2)
O6_4 O 0.5316(3) 0.5171(2) 0.8876(3)
P1_4 P 0.11265(9) 0.39900(6) 0.80366(7)
C1_4 C 0.1192(3) 0.3372(2) 0.8697(3)
C2_4 C 0.1394(4) 0.3463(2) 0.9451(3)
H1_4 H 0.1551 0.3847 0.9644
C3_4 C 0.1360(4) 0.2979(2) 0.9918(3)
C4_4 C 0.1156(4) 0.2410(2) 0.9652(3)
C5_4 C 0.0996(4) 0.2322(3) 0.8895(3)
H3_4 H 0.0880 0.1932 0.8707
C6_4 C 0.1005(4) 0.2790(3) 0.8422(3)
H4_4 H 0.0885 0.2723 0.7912
C8_4 C 0.2112(3) 0.4434(2) 0.8250(3)
C9_4 C 0.2160(4) 0.4966(3) 0.7865(3)
H5_4 H 0.1647 0.5114 0.7553
C10_4 C 0.2980(4) 0.5290(3) 0.7939(3)
H6_4 H 0.3007 0.5645 0.7671
C11_4 C 0.3731(4) 0.5078(3) 0.8405(3)
C12_4 C 0.3698(4) 0.4532(3) 0.8797(4)
H7_4 H 0.4215 0.4380 0.9100
C13_4 C 0.2887(4) 0.4225(3) 0.8728(3)
H8_4 H 0.2858 0.3873 0.9002
C14_4 C 0.4639(4) 0.5406(3) 0.8496(4)
C15_4 C 0.0187(3) 0.4423(2) 0.8201(3)
C16_4 C 0.0259(4) 0.4926(3) 0.8679(3)
H9_4 H 0.0821 0.5069 0.8912
O17_2 O 0.7865(3) 0.5839(2) 0.8880(2)
O18_2 O 0.7052(3) 0.50968(18) 0.8324(2)
O19_2 O 0.6361(3) 0.70104(16) 0.8850(2)
O20_2 O 0.6099(3) 0.63896(17) 0.9720(2)
P2_4 P 0.62473(9) 0.89996(6) 0.16523(7)
C22_4 C 0.5249(3) 0.9469(2) 0.1431(3)
C23_4 C 0.4512(4) 0.9264(3) 0.0956(3)
H13_4 H 0.4541 0.8905 0.0694
C24_4 C 0.3709(4) 0.9590(3) 0.0861(3)
H14_4 H 0.3204 0.9442 0.0538
C29_4 C 0.6175(4) 0.8411(2) 0.0970(3)
C30_4 C 0.6565(4) 0.8477(3) 0.0344(3)
H17_4 H 0.6836 0.8841 0.0254
C32_5 C 0.6199(3) 0.7436(3) 0.0000(3)
C33_4 C 0.5770(4) 0.7388(3) 0.0607(3)
H19_4 H 0.5482 0.7029 0.0692
C34_4 C 0.5777(4) 0.7869(3) 0.1069(3)
H20_4 H 0.5496 0.7827 0.1474
C36_4 C 0.7205(4) 0.9435(2) 0.1540(3)
C37_4 C 0.7143(4) 0.9955(3) 0.1107(3)
C39_4 C 0.8771(4) 0.9992(3) 0.1274(3)
C40_4 C 0.8822(4) 0.9478(3) 0.1698(3)
H23_4 H 0.9386 0.9318 0.1899
C41_4 C 0.8055(4) 0.9187(2) 0.1838(3)
H24_4 H 0.8103 0.8836 0.2124
C31_4 C 0.6544(4) 0.7992(3) 0.9861(3)
H18_4 H 0.6770 0.8044 0.9429
C32_6 C 0.6199(3) 0.7436(3) 1.0000(3)
C35_4 C 0.6207(4) 0.6908(3) 0.9500(3)
C17_4 C 0.9474(4) 0.5208(3) 0.8798(3)
H10_4 H 0.9523 0.5539 0.9117
C18_4 C 0.8577(4) 0.4504(3) 0.8005(3)
H11_4 H 0.8011 0.4358 0.7785
C19_4 C 0.8650(4) 0.5017(3) 0.8470(3)
C20_4 C 0.9328(4) 0.4221(2) 0.7876(3)
H12_4 H 0.9269 0.3885 0.7564
C21_4 C 0.7802(4) 0.5336(3) 0.8572(3)
loop_
_geom_bond_atom_site_label_1
_geom_bond_atom_site_label_2
_geom_bond_site_symmetry_1
_geom_bond_site_symmetry_2
O7 C21 1_555 1_555
O8 C21 1_555 1_555
H10 C17 1_555 1_555
C18 H11 1_555 1_555
C19 C17 1_555 1_555
H12 C20 1_555 1_555
C21 C19 1_555 1_555
Cd4 O7 1_555 1_555
O8 Cd4 1_555 1_555
C18 C19 1_555 1_555
C18 C20 1_555 1_555
O11 C35 1_555 1_555
O12 C35 1_555 1_555
H18 C31 1_555 1_555
C32 C31 1_555 1_555
C35 C32 1_555 1_555
Cd4 O11 1_555 1_555
O12 Cd4 1_555 1_555
O2 P2 1_555 1_555
P2 C22 1_555 1_555
C22 C23 1_555 1_555
C23 H13 1_555 1_555
C24 C23 1_555 1_555
H14 C24 1_555 1_555
C29 P2 1_555 1_555
C30 C29 1_555 1_555
H17 C30 1_555 1_555
C33 C32_2 1_555 1_555
H19 C33 1_555 1_555
C34 C29 1_555 1_555
H20 C34 1_555 1_555
C36 P2 1_555 1_555
C37 C36 1_555 1_555
C40 C39 1_555 1_555
H23 C40 1_555 1_555
C41 C36 1_555 1_555
H24 C41 1_555 1_555
Cd5 O2 1_555 1_555
C33 C34 1_555 1_555
C40 C41 1_555 1_555
Cd4 O5 1_555 1_555
O1 P1 1_555 1_555
O5 C14 1_555 1_555
O6 Cd4 1_555 1_555
P1 C1 1_555 1_555
C1 C2 1_555 1_555
C2 H1 1_555 1_555
C3 C2 1_555 1_555
C4 C3 1_555 1_555
C5 C4 1_555 1_555
H3 C5 1_555 1_555
C6 C1 1_555 1_555
H4 C6 1_555 1_555
C8 P1 1_555 1_555
C9 C8 1_555 1_555
H5 C9 1_555 1_555
C10 C9 1_555 1_555
H6 C10 1_555 1_555
C11 C10 1_555 1_555
C12 C11 1_555 1_555
H7 C12 1_555 1_555
C13 C8 1_555 1_555
H8 C13 1_555 1_555
C14 O6 1_555 1_555
C15 P1 1_555 1_555
C16 C15 1_555 1_555
H9 C16 1_555 1_555
Cd7 O1 1_555 1_555
O16 Cd4 1_555 1_555
C5 C6 1_555 1_555
C11 C14 1_555 1_555
C12 C13 1_555 1_555
O4 Cd2 1_555 1_555
O9 Cd2 1_555 1_555
O10 Cd2 1_555 1_555
O22 C42 1_555 1_555
C7 O4 1_555 1_555
C26 C25 1_555 1_555
H15 C26 1_555 1_555
H16 C27 1_555 1_555
C28 O9 1_555 1_555
H22 C38 1_555 1_555
O15 Cd2 1_555 1_555
O21 Cd2 1_555 1_555
O10 C28 1_555 1_555
C25 C28 1_555 1_555
C26 C27 1_555 1_555
O7_2 C21_2 1_555 1_555
O8_2 C21_2 1_555 1_555
H10_2 C17_2 1_555 1_555
C19_2 C17_2 1_555 1_555
C21_2 C19_2 1_555 1_555
Cd5 O7_2 1_555 1_555
O8_2 Cd5 1_555 1_555
C18_2 H11_2 1_555 1_555
H12_2 C20_2 1_555 1_555
C18_2 C20_2 1_555 1_555
Cd5 O5_2 1_555 1_555
O5_2 C14_2 1_555 1_555
O6_2 Cd5 1_555 1_555
H6_2 C10_2 1_555 1_555
C11_2 C10_2 1_555 1_555
C14_2 O6_2 1_555 1_555
O19 Cd5 1_555 1_555
O20 Cd5 1_555 1_555
C11_2 C14_2 1_555 1_555
Cd7 O3_2 1_555 1_555
O15 P1_2 1_555 1_555
O16 P2_2 1_555 1_555
O3_2 C7_2 1_555 1_555
O4_2 Cd7 1_555 1_555
O9_2 Cd7 1_555 1_555
O10_2 Cd7 1_555 1_555
O19 C35_2 1_555 1_555
O20 C35_2 1_555 1_555
O22_2 C42_2 1_555 1_555
P1_2 C1_2 1_555 1_555
P2_2 C22_2 1_555 1_555
C1_2 C2_2 1_555 1_555
C2_2 H1_2 1_555 1_555
C3_2 C2_2 1_555 1_555
H2_2 C3_2 1_555 1_555
C4_2 C3_2 1_555 1_555
C5_2 C4_2 1_555 1_555
H3_2 C5_2 1_555 1_555
C6_2 C1_2 1_555 1_555
H4_2 C6_2 1_555 1_555
C7_2 O4_2 1_555 1_555
C8_2 P1_2 1_555 1_555
C9_2 C8_2 1_555 1_555
H7_2 C12_2 1_555 1_555
C13_2 C8_2 1_555 1_555
H8_2 C13_2 1_555 1_555
C15_2 P1_2 1_555 1_555
C16_2 C15_2 1_555 1_555
C22_2 C23_2 1_555 1_555
C23_2 H13_2 1_555 1_555
C24_2 C23_2 1_555 1_555
H14_2 C24_2 1_555 1_555
C25_2 C24_2 1_555 1_555
C26_2 C25_2 1_555 1_555
H15_2 C26_2 1_555 1_555
C27_2 C22_2 1_555 1_555
H16_2 C27_2 1_555 1_555
C28_2 O9_2 1_555 1_555
C29_2 P2_2 1_555 1_555
C30_2 C29_2 1_555 1_555
H17_2 C30_2 1_555 1_555
C31_2 C30_2 1_555 1_555
H18_2 C31_2 1_555 1_555
C32_3 C31_2 1_555 1_555
C33_2 C32_3 1_555 1_555
H19_2 C33_2 1_555 1_555
C34_2 C29_2 1_555 1_555
H20_2 C34_2 1_555 1_555
C35_2 C32_3 1_555 1_555
C36_2 P2_2 1_555 1_555
C37_2 C36_2 1_555 1_555
H21_2 C37_2 1_555 1_555
C38_2 C37_2 1_555 1_555
H22_2 C38_2 1_555 1_555
C39_2 C38_2 1_555 1_555
C40_2 C39_2 1_555 1_555
H23_2 C40_2 1_555 1_555
C41_2 C36_2 1_555 1_555
H24_2 C41_2 1_555 1_555
C42_2 C39_2 1_555 1_555
O21_2 Cd7 1_555 1_555
O10_2 C28_2 1_555 1_555
C4_2 C7_2 1_555 1_555
C5_2 C6_2 1_555 1_555
C12_2 C13_2 1_555 1_555
C25_2 C28_2 1_555 1_555
C26_2 C27_2 1_555 1_555
C33_2 C34_2 1_555 1_555
C40_2 C41_2 1_555 1_555
Cd6 O13 1_555 1_555
Cd6 O3_3 1_555 1_555
O1_2 P1_3 1_555 1_555
O2_2 P2_3 1_555 1_555
O3_3 C7_3 1_555 1_555
O4_3 Cd6 1_555 1_555
O9_3 Cd6 1_555 1_555
O10_3 Cd6 1_555 1_555
O11_2 C35_3 1_555 1_555
O12_2 C35_3 1_555 1_555
O14 C42_3 1_555 1_555
P1_3 C1_3 1_555 1_555
P2_3 C22_3 1_555 1_555
C1_3 C2_3 1_555 1_555
C2_3 H1_3 1_555 1_555
C3_3 C2_3 1_555 1_555
H2_3 C3_3 1_555 1_555
C4_3 C3_3 1_555 1_555
C5_3 C4_3 1_555 1_555
H3_3 C5_3 1_555 1_555
C6_3 C1_3 1_555 1_555
H4_3 C6_3 1_555 1_555
C7_3 O4_3 1_555 1_555
C8_3 P1_3 1_555 1_555
C9_3 C8_3 1_555 1_555
H7_3 C12_3 1_555 1_555
C13_3 C8_3 1_555 1_555
H8_3 C13_3 1_555 1_555
C15_3 P1_3 1_555 1_555
C16_3 C15_3 1_555 1_555
C22_3 C23_3 1_555 1_555
C23_3 H13_3 1_555 1_555
C24_3 C23_3 1_555 1_555
H14_3 C24_3 1_555 1_555
C25_3 C24_3 1_555 1_555
C26_3 C25_3 1_555 1_555
H15_3 C26_3 1_555 1_555
C27_3 C22_3 1_555 1_555
H16_3 C27_3 1_555 1_555
C28_3 O9_3 1_555 1_555
C29_3 P2_3 1_555 1_555
C30_3 C29_3 1_555 1_555
H17_3 C30_3 1_555 1_555
C31_3 C30_3 1_555 1_555
H18_3 C31_3 1_555 1_555
C32_4 C31_3 1_555 1_555
C33_3 C32_4 1_555 1_555
H19_3 C33_3 1_555 1_555
C34_3 C29_3 1_555 1_555
H20_3 C34_3 1_555 1_555
C35_3 C32_4 1_555 1_555
C36_3 P2_3 1_555 1_555
C37_3 C36_3 1_555 1_555
H21_3 C37_3 1_555 1_555
C38_3 C37_3 1_555 1_555
H22_3 C38_3 1_555 1_555
C39_3 C38_3 1_555 1_555
C40_3 C39_3 1_555 1_555
H23_3 C40_3 1_555 1_555
C41_3 C36_3 1_555 1_555
H24_3 C41_3 1_555 1_555
C42_3 C39_3 1_555 1_555
Cd3 O11_2 1_555 1_555
Cd5_2 O2_2 1_555 1_555
Cd7_2 O1_2 1_555 1_555
O15_2 Cd6 1_555 1_555
O10_3 C28_3 1_555 1_555
O12_2 Cd3 1_555 1_555
C4_3 C7_3 1_555 1_555
C5_3 C6_3 1_555 1_555
C12_3 C13_3 1_555 1_555
C25_3 C28_3 1_555 1_555
C26_3 C27_3 1_555 1_555
C33_3 C34_3 1_555 1_555
C40_3 C41_3 1_555 1_555
Cd3 O5_3 1_555 1_555
O5_3 C14_3 1_555 1_555
O6_3 Cd3 1_555 1_555
H6_3 C10_3 1_555 1_555
C11_3 C10_3 1_555 1_555
C14_3 O6_3 1_555 1_555
O16_2 Cd3 1_555 1_555
O17 Cd3 1_555 1_555
O18 Cd3 1_555 1_555
C11_3 C14_3 1_555 1_555
C18_3 H11_3 1_555 1_555
H12_3 C20_3 1_555 1_555
C18_3 C20_3 1_555 1_555
O17 C21_3 1_555 1_555
O18 C21_3 1_555 1_555
H10_3 C17_3 1_555 1_555
C19_3 C17_3 1_555 1_555
C21_3 C19_3 1_555 1_555
Cd7_2 O13_2 1_555 1_555
O4_4 Cd7_2 1_555 1_555
O9_4 Cd7_2 1_555 1_555
O10_4 Cd7_2 1_555 1_555
O14_2 C42_4 1_555 1_555
C7_4 O4_4 1_555 1_555
C26_4 C25_4 1_555 1_555
H15_4 C26_4 1_555 1_555
H16_4 C27_4 1_555 1_555
C28_4 O9_4 1_555 1_555
H22_4 C38_4 1_555 1_555
O10_4 C28_4 1_555 1_555
C25_4 C28_4 1_555 1_555
C26_4 C27_4 1_555 1_555
Cd5_2 O5_4 1_555 1_555
O15_2 P1_4 1_555 1_555
O5_4 C14_4 1_555 1_555
O6_4 Cd5_2 1_555 1_555
P1_4 C1_4 1_555 1_555
C1_4 C2_4 1_555 1_555
C2_4 H1_4 1_555 1_555
C3_4 C2_4 1_555 1_555
C4_4 C3_4 1_555 1_555
C5_4 C4_4 1_555 1_555
H3_4 C5_4 1_555 1_555
C6_4 C1_4 1_555 1_555
H4_4 C6_4 1_555 1_555
C8_4 P1_4 1_555 1_555
C9_4 C8_4 1_555 1_555
H5_4 C9_4 1_555 1_555
C10_4 C9_4 1_555 1_555
H6_4 C10_4 1_555 1_555
C11_4 C10_4 1_555 1_555
C12_4 C11_4 1_555 1_555
H7_4 C12_4 1_555 1_555
C13_4 C8_4 1_555 1_555
H8_4 C13_4 1_555 1_555
C14_4 O6_4 1_555 1_555
C15_4 P1_4 1_555 1_555
C16_4 C15_4 1_555 1_555
H9_4 C16_4 1_555 1_555
O17_2 Cd5_2 1_555 1_555
O18_2 Cd5_2 1_555 1_555
O19_2 Cd5_2 1_555 1_555
O20_2 Cd5_2 1_555 1_555
C5_4 C6_4 1_555 1_555
C11_4 C14_4 1_555 1_555
C12_4 C13_4 1_555 1_555
O16_2 P2_4 1_555 1_555
P2_4 C22_4 1_555 1_555
C22_4 C23_4 1_555 1_555
C23_4 H13_4 1_555 1_555
C24_4 C23_4 1_555 1_555
H14_4 C24_4 1_555 1_555
C29_4 P2_4 1_555 1_555
C30_4 C29_4 1_555 1_555
H17_4 C30_4 1_555 1_555
C33_4 C32_5 1_555 1_555
H19_4 C33_4 1_555 1_555
C34_4 C29_4 1_555 1_555
H20_4 C34_4 1_555 1_555
C36_4 P2_4 1_555 1_555
C37_4 C36_4 1_555 1_555
C40_4 C39_4 1_555 1_555
H23_4 C40_4 1_555 1_555
C41_4 C36_4 1_555 1_555
H24_4 C41_4 1_555 1_555
C33_4 C34_4 1_555 1_555
C40_4 C41_4 1_555 1_555
O19_2 C35_4 1_555 1_555
O20_2 C35_4 1_555 1_555
H18_4 C31_4 1_555 1_555
C32_6 C31_4 1_555 1_555
C35_4 C32_6 1_555 1_555
O17_2 C21_4 1_555 1_555
O18_2 C21_4 1_555 1_555
H10_4 C17_4 1_555 1_555
C18_4 H11_4 1_555 1_555
C19_4 C17_4 1_555 1_555
H12_4 C20_4 1_555 1_555
C21_4 C19_4 1_555 1_555
C18_4 C19_4 1_555 1_555
C18_4 C20_4 1_555 1_555

#END
