
###############################################################################
#
# This file contains modified crystal structure data generated from the
# MOF subset of the Cambridge Structural Database (CSD) v543 
# hosted by the Cambridge Crystallographic Data Centre (CCDC).
#
# This work is licensed under the Creative Commons
# Attribution-NonCommercial-ShareAlike 4.0 International License.
# To view a copy of this license, visit
# http://creativecommons.org/licenses/by-nc-sa/4.0/
# or send a letter to
# Creative Commons, PO Box 1866, Mountain View, CA 94042, USA.
#
# CIF created using the CSD Python API on 29 September 2022
# The structure has been converted into the P1 space group
# The structure has a 3D framework
# The original CSD entry AVEHAM is in the monoclinic crystal system
# The framework has been calculated to contain at least 10.0% void space
# The void calculation uses a probe of radius 1.32A, grid spacing 0.4
#
###############################################################################

data_AVEHAM
_chemical_formula_moiety         '(C116 H84 Cu4 N8 O18)n'
_symmetry_cell_setting           triclinic
_symmetry_space_group_name_H-M   'P 1'
_symmetry_Int_Tables_number      1
_space_group_name_Hall           'P 1'
loop_
_symmetry_equiv_pos_site_id
_symmetry_equiv_pos_as_xyz
1 x,y,z
_cell_length_a                   12.656(2)
_cell_length_b                   9.2408(15)
_cell_length_c                   25.544(4)
_cell_angle_alpha                90
_cell_angle_beta                 96.158(4)
_cell_angle_gamma                90
_cell_volume                     2970.17
loop_
_atom_site_label
_atom_site_type_symbol
_atom_site_fract_x
_atom_site_fract_y
_atom_site_fract_z
C41 C 0.2632(5) 0.0017(7) 0.6529(2)
H30 H 0.2783 0.0825 0.6333
H32 H 0.3766 0.0389 0.7120
O7 O 0.1380(3) 0.0552(5) 0.55924(15)
Cu7 Cu 0.05155(6) 0.12555(7) 0.49695(2)
C21 C 0.1177(7) 0.0706(8) 0.0324(4)
H14 H 0.0571 0.0869 0.0492
O11 O 0.1380(3) 0.4448(5) 0.05924(15)
O13 O 0.0490(4) 0.6518(4) 0.06628(15)
C23 C 0.2213(8) 0.1527(10) 0.9730(4)
H16 H 0.2407 0.2219 0.9494
C24 C 0.2849(7) 0.0125(9) 0.9816(3)
N2 N 0.1419(4) 0.1738(5) 0.9984(2)
Cu1 Cu 0.05155(6) 0.37445(7) 0.99695(2)
C39 C 0.1185(5) 0.9387(7) 0.5828(2)
C40 C 0.1827(5) 0.9104(7) 0.6336(2)
C42 C 0.1596(6) 0.7934(7) 0.6643(2)
H31 H 0.1043 0.7315 0.6524
C43 C 0.3216(5) 0.9764(7) 0.7001(2)
C44 C 0.2167(6) 0.7677(8) 0.7116(2)
H33 H 0.2000 0.6882 0.7314
C45 C 0.2992(5) 0.8581(7) 0.7305(2)
C46 C 0.6759(15) 0.926(2) 0.8161(7)
H34 H 0.7474 0.9488 0.8244
C47 C 0.6402(10) 0.8727(17) 0.7665(7)
H35 H 0.6876 0.8554 0.7418
C48 C 0.6066(13) 0.945(2) 0.8522(7)
H36 H 0.6304 0.9797 0.8856
C49 C 0.5309(8) 0.8454(13) 0.7543(5)
H37 H 0.5053 0.8139 0.7208
C50 C 0.5006(10) 0.9130(14) 0.8395(4)
H38 H 0.4538 0.9250 0.8648
C51 C 0.4628(7) 0.8646(10) 0.7911(3)
C52 C 0.2979(6) 0.7772(8) 0.8208(2)
C53 C 0.2065(7) 0.8428(8) 0.8326(3)
H39 H 0.1821 0.9247 0.8139
C54 C 0.3344(6) 0.6535(8) 0.8483(2)
H40 H 0.3960 0.6071 0.8404
C55 C 0.2786(5) 0.6018(8) 0.8868(2)
H41 H 0.3026 0.5193 0.9053
C56 C 0.1503(6) 0.7899(7) 0.8715(2)
H42 H 0.0881 0.8355 0.8789
C57 C 0.1862(5) 0.6696(7) 0.8992(2)
C58 C 0.1224(5) 0.6076(7) 0.9393(2)
N4 N 0.3546(5) 0.8310(7) 0.7798(2)
O8 O 0.0490(4) 0.8482(4) 0.56628(15)
O9 O 0.1415(4) 0.4781(5) 0.95285(17)
O10 O 0.0544(3) 0.6865(5) 0.95669(15)
O3 O 0.1415(4) 0.0219(5) 0.45285(17)
N5 N 0.1419(4) 0.3262(5) 0.4984(2)
C1 C 0.1185(5) 0.5613(7) 0.0828(2)
C2 C 0.1827(5) 0.5896(7) 0.1336(2)
C3 C 0.2632(5) 0.4983(7) 0.1529(2)
H1 H 0.2783 0.4175 0.1333
C4 C 0.1596(6) 0.7066(7) 0.1643(2)
H2 H 0.1043 0.7685 0.1524
C5 C 0.3216(5) 0.5236(7) 0.2001(2)
H3 H 0.3766 0.4611 0.2120
C6 C 0.2167(6) 0.7323(8) 0.2116(2)
H4 H 0.2000 0.8118 0.2314
C7 C 0.2992(5) 0.6419(7) 0.2305(2)
C8 C 0.6759(15) 0.574(2) 0.3161(7)
H5 H 0.7474 0.5512 0.3244
C9 C 0.6402(10) 0.6273(17) 0.2665(7)
H6 H 0.6876 0.6446 0.2418
C10 C 0.6066(13) 0.555(2) 0.3522(7)
H7 H 0.6304 0.5203 0.3856
C11 C 0.5309(8) 0.6546(13) 0.2543(5)
H8 H 0.5053 0.6861 0.2208
C12 C 0.5006(10) 0.5870(14) 0.3395(4)
H9 H 0.4538 0.5750 0.3648
C13 C 0.4628(7) 0.6354(10) 0.2911(3)
C14 C 0.2979(6) 0.7228(8) 0.3208(2)
C15 C 0.2065(7) 0.6572(8) 0.3326(3)
H10 H 0.1821 0.5753 0.3139
C16 C 0.3344(6) 0.8465(8) 0.3483(2)
H11 H 0.3960 0.8929 0.3404
C17 C 0.2786(5) 0.8982(8) 0.3868(2)
H12 H 0.3026 0.9807 0.4053
C18 C 0.1503(6) 0.7101(7) 0.3715(2)
H13 H 0.0881 0.6645 0.3789
C19 C 0.1862(5) 0.8304(7) 0.3992(2)
C20 C 0.1224(5) 0.8924(7) 0.4393(2)
N1 N 0.3546(5) 0.6690(7) 0.2798(2)
O4 O 0.0544(3) 0.8135(5) 0.45669(15)
C30 C 0.1177(7) 0.4294(8) 0.5324(4)
H22 H 0.0571 0.4131 0.5492
C31 C 0.1692(8) 0.5503(9) 0.5449(4)
H23 H 0.1506 0.6118 0.5713
C32 C 0.2213(8) 0.3473(10) 0.4730(4)
H24 H 0.2407 0.2781 0.4494
C33 C 0.2849(7) 0.4875(9) 0.4816(3)
H25 H 0.3434 0.5092 0.4639
C34 C 0.2480(6) 0.5776(8) 0.5177(3)
C35 C 0.3100(7) 0.7279(9) 0.5285(3)
H26 H 0.3329 0.7365 0.5659
H27 H 0.2620 0.8074 0.5186
C36 C 0.4437(5) 0.8730(7) 0.5027(2)
C37 C 0.4124(6) 0.9945(7) 0.5266(3)
H28 H 0.3529 0.9918 0.5450
C38 C 0.5314(6) 0.8774(7) 0.4762(3)
H29 H 0.5537 0.7944 0.4599
O6 O 0.3942(4) 0.7377(6) 0.5018(2)
C22 C 0.1692(8) 0.9497(9) 0.0449(4)
H15 H 0.1506 0.8882 0.0713
C25 C 0.2480(6) 0.9224(8) 0.0177(3)
C26 C 0.3100(7) 0.7721(9) 0.0285(3)
H18 H 0.3329 0.7635 0.0659
H19 H 0.2620 0.6926 0.0186
C27 C 0.4437(5) 0.6270(7) 0.0027(2)
C28 C 0.4124(6) 0.5055(7) 0.0266(3)
H20 H 0.3529 0.5082 0.0450
O5 O 0.3942(4) 0.7623(6) 0.0018(2)
H25_2 H 0.6566 0.0092 0.0361
C38_2 C 0.4686(6) 0.3774(7) 0.0238(3)
H29_2 H 0.4463 0.2944 0.0401
H17 H 0.3434 0.9908 0.9639
C29 C 0.5314(6) 0.6226(7) 0.9762(3)
H21 H 0.5537 0.7056 0.9599
C31_2 C 0.8308(8) 0.0503(9) 0.9551(4)
H23_2 H 0.8494 0.1118 0.9287
C34_2 C 0.7520(6) 0.0776(8) 0.9823(3)
C35_2 C 0.6900(7) 0.2279(9) 0.9715(3)
H26_2 H 0.6671 0.2365 0.9341
H27_2 H 0.7380 0.3074 0.9814
C36_2 C 0.5563(5) 0.3730(7) 0.9973(2)
C37_2 C 0.5876(6) 0.4945(7) 0.9734(3)
H28_2 H 0.6471 0.4918 0.9550
O6_2 O 0.6058(4) 0.2377(6) 0.9982(2)
C32_2 C 0.7787(8) 0.8473(10) 0.0270(4)
H24_2 H 0.7593 0.7781 0.0506
C33_2 C 0.7151(7) 0.9875(9) 0.0184(3)
N3 N 0.8581(4) 0.8262(5) 0.0016(2)
Cu5 Cu 0.94845(6) 0.62555(7) 0.00305(2)
C30_2 C 0.8823(7) 0.9294(8) 0.9676(4)
H22_2 H 0.9429 0.9131 0.9508
C1_2 C 0.8815(5) 0.0613(7) 0.4172(2)
C2_2 C 0.8173(5) 0.0896(7) 0.3664(2)
C4_2 C 0.8404(6) 0.2066(7) 0.3357(2)
H2_2 H 0.8957 0.2685 0.3476
C5_2 C 0.6784(5) 0.0236(7) 0.2999(2)
C6_2 C 0.7833(6) 0.2323(8) 0.2884(2)
H4_2 H 0.8000 0.3118 0.2686
C7_2 C 0.7008(5) 0.1419(7) 0.2695(2)
C8_2 C 0.3241(15) 0.074(2) 0.1839(7)
H5_2 H 0.2526 0.0512 0.1756
C9_2 C 0.3598(10) 0.1273(17) 0.2335(7)
H6_2 H 0.3124 0.1446 0.2582
C10_2 C 0.3934(13) 0.055(2) 0.1478(7)
H7_2 H 0.3696 0.0203 0.1144
C11_2 C 0.4691(8) 0.1546(13) 0.2457(5)
H8_2 H 0.4947 0.1861 0.2792
C12_2 C 0.4994(10) 0.0870(14) 0.1605(4)
H9_2 H 0.5462 0.0750 0.1352
C13_2 C 0.5372(7) 0.1354(10) 0.2089(3)
C14_2 C 0.7021(6) 0.2228(8) 0.1792(2)
C15_2 C 0.7935(7) 0.1572(8) 0.1674(3)
H10_2 H 0.8179 0.0753 0.1861
C16_2 C 0.6656(6) 0.3465(8) 0.1517(2)
H11_2 H 0.6040 0.3929 0.1596
C17_2 C 0.7214(5) 0.3982(8) 0.1132(2)
H12_2 H 0.6974 0.4807 0.0947
C18_2 C 0.8497(6) 0.2101(7) 0.1285(2)
H13_2 H 0.9119 0.1645 0.1211
C19_2 C 0.8138(5) 0.3304(7) 0.1008(2)
C20_2 C 0.8776(5) 0.3924(7) 0.0607(2)
N1_2 N 0.6454(5) 0.1690(7) 0.2202(2)
O2 O 0.9510(4) 0.1518(4) 0.43372(15)
O3_2 O 0.8585(4) 0.5219(5) 0.04715(17)
O4_2 O 0.9456(3) 0.3135(5) 0.04331(15)
O12 O 0.8620(3) 0.5552(5) 0.94076(15)
O14 O 0.9510(4) 0.3482(4) 0.93372(15)
Cu4 Cu 0.94845(6) 0.87445(7) 0.50305(2)
C3_2 C 0.7368(5) 0.9983(7) 0.3471(2)
H1_2 H 0.7217 0.9175 0.3667
H3_2 H 0.6234 0.9611 0.2880
O1 O 0.8620(3) 0.9448(5) 0.44076(15)
C39_2 C 0.8815(5) 0.4387(7) 0.9172(2)
C40_2 C 0.8173(5) 0.4104(7) 0.8664(2)
C41_2 C 0.7368(5) 0.5017(7) 0.8471(2)
H30_2 H 0.7217 0.5825 0.8667
C42_2 C 0.8404(6) 0.2934(7) 0.8357(2)
H31_2 H 0.8957 0.2315 0.8476
C43_2 C 0.6784(5) 0.4764(7) 0.7999(2)
H32_2 H 0.6234 0.5389 0.7880
C44_2 C 0.7833(6) 0.2677(8) 0.7884(2)
H33_2 H 0.8000 0.1882 0.7686
C45_2 C 0.7008(5) 0.3581(7) 0.7695(2)
C46_2 C 0.3241(15) 0.426(2) 0.6839(7)
H34_2 H 0.2526 0.4488 0.6756
C47_2 C 0.3598(10) 0.3727(17) 0.7335(7)
H35_2 H 0.3124 0.3554 0.7582
C48_2 C 0.3934(13) 0.445(2) 0.6478(7)
H36_2 H 0.3696 0.4797 0.6144
C49_2 C 0.4691(8) 0.3454(13) 0.7457(5)
H37_2 H 0.4947 0.3139 0.7792
C50_2 C 0.4994(10) 0.4130(14) 0.6605(4)
H38_2 H 0.5462 0.4250 0.6352
C51_2 C 0.5372(7) 0.3646(10) 0.7089(3)
C52_2 C 0.7021(6) 0.2772(8) 0.6792(2)
C53_2 C 0.7935(7) 0.3428(8) 0.6674(3)
H39_2 H 0.8179 0.4247 0.6861
C54_2 C 0.6656(6) 0.1535(8) 0.6517(2)
H40_2 H 0.6040 0.1071 0.6596
C55_2 C 0.7214(5) 0.1018(8) 0.6132(2)
H41_2 H 0.6974 0.0193 0.5947
C56_2 C 0.8497(6) 0.2899(7) 0.6285(2)
H42_2 H 0.9119 0.3355 0.6211
C57_2 C 0.8138(5) 0.1696(7) 0.6008(2)
C58_2 C 0.8776(5) 0.1076(7) 0.5607(2)
N4_2 N 0.6454(5) 0.3310(7) 0.7202(2)
O10_2 O 0.9456(3) 0.1865(5) 0.54331(15)
C21_2 C 0.8823(7) 0.5706(8) 0.4676(4)
H14_2 H 0.9429 0.5869 0.4508
C22_2 C 0.8308(8) 0.4497(9) 0.4551(4)
H15_2 H 0.8494 0.3882 0.4287
C23_2 C 0.7787(8) 0.6527(10) 0.5270(4)
H16_2 H 0.7593 0.7219 0.5506
C24_2 C 0.7151(7) 0.5125(9) 0.5184(3)
H17_2 H 0.6566 0.4908 0.5361
C25_2 C 0.7520(6) 0.4224(8) 0.4823(3)
C26_2 C 0.6900(7) 0.2721(9) 0.4715(3)
H18_2 H 0.6671 0.2635 0.4341
H19_2 H 0.7380 0.1926 0.4814
C27_2 C 0.5563(5) 0.1270(7) 0.4973(2)
C28_2 C 0.5876(6) 0.0055(7) 0.4734(3)
H20_2 H 0.6471 0.0082 0.4550
C29_2 C 0.4686(6) 0.1226(7) 0.5238(3)
H21_2 H 0.4463 0.2056 0.5401
N2_2 N 0.8581(4) 0.6738(5) 0.5016(2)
O5_2 O 0.6058(4) 0.2623(6) 0.4982(2)
O9_2 O 0.8585(4) 0.9781(5) 0.54715(17)
loop_
_geom_bond_atom_site_label_1
_geom_bond_atom_site_label_2
_geom_bond_site_symmetry_1
_geom_bond_site_symmetry_2
C41 H30 1_555 1_555
Cu7 O7 1_555 1_555
C21 H14 1_555 1_555
C23 H16 1_555 1_555
C24 C23 1_555 1_555
Cu1 N2 1_555 1_555
C39 C40 1_555 1_555
C42 C40 1_555 1_555
H31 C42 1_555 1_555
C44 C42 1_555 1_555
H33 C44 1_555 1_555
C45 C43 1_555 1_555
C46 H34 1_555 1_555
C47 C46 1_555 1_555
H35 C47 1_555 1_555
C48 C46 1_555 1_555
H36 C48 1_555 1_555
C49 C47 1_555 1_555
H37 C49 1_555 1_555
C50 C48 1_555 1_555
H38 C50 1_555 1_555
C51 C49 1_555 1_555
C52 C53 1_555 1_555
C53 H39 1_555 1_555
C54 C52 1_555 1_555
H40 C54 1_555 1_555
C55 C54 1_555 1_555
H41 C55 1_555 1_555
C56 C53 1_555 1_555
H42 C56 1_555 1_555
C57 C55 1_555 1_555
C58 C57 1_555 1_555
N4 C45 1_555 1_555
O8 C39 1_555 1_555
O9 Cu1 1_555 1_555
O10 C58 1_555 1_555
C23 N2 1_555 1_555
C44 C45 1_555 1_555
C50 C51 1_555 1_555
C51 N4 1_555 1_555
C52 N4 1_555 1_555
C56 C57 1_555 1_555
C58 O9 1_555 1_555
Cu7 O3 1_555 1_555
N5 Cu7 1_555 1_555
C1 C2 1_555 1_555
C2 C3 1_555 1_555
C3 H1 1_555 1_555
C4 C2 1_555 1_555
H2 C4 1_555 1_555
C5 C3 1_555 1_555
H3 C5 1_555 1_555
C6 C4 1_555 1_555
H4 C6 1_555 1_555
C7 C5 1_555 1_555
C8 H5 1_555 1_555
C9 C8 1_555 1_555
H6 C9 1_555 1_555
C10 C8 1_555 1_555
H7 C10 1_555 1_555
C11 C9 1_555 1_555
H8 C11 1_555 1_555
C12 C10 1_555 1_555
H9 C12 1_555 1_555
C13 C11 1_555 1_555
C14 C15 1_555 1_555
C15 H10 1_555 1_555
C16 C14 1_555 1_555
H11 C16 1_555 1_555
C17 C16 1_555 1_555
H12 C17 1_555 1_555
C18 C15 1_555 1_555
H13 C18 1_555 1_555
C19 C17 1_555 1_555
C20 C19 1_555 1_555
N1 C7 1_555 1_555
O11 C1 1_555 1_555
O13 C1 1_555 1_555
O4 C20 1_555 1_555
C6 C7 1_555 1_555
C12 C13 1_555 1_555
C13 N1 1_555 1_555
C14 N1 1_555 1_555
C18 C19 1_555 1_555
C30 H22 1_555 1_555
C31 C30 1_555 1_555
H23 C31 1_555 1_555
C32 H24 1_555 1_555
C33 C32 1_555 1_555
H25 C33 1_555 1_555
C34 C31 1_555 1_555
C35 C34 1_555 1_555
H26 C35 1_555 1_555
H27 C35 1_555 1_555
C36 C37 1_555 1_555
H28 C37 1_555 1_555
H29 C38 1_555 1_555
N5 C30 1_555 1_555
O6 C35 1_555 1_555
C32 N5 1_555 1_555
C33 C34 1_555 1_555
C36 C38 1_555 1_555
C36 O6 1_555 1_555
H15 C22 1_555 1_555
C25 C22 1_555 1_555
C26 C25 1_555 1_555
H18 C26 1_555 1_555
H19 C26 1_555 1_555
C27 C28 1_555 1_555
C28 H20 1_555 1_555
O5 C26 1_555 1_555
C38_2 C28 1_555 1_555
H29_2 C38_2 1_555 1_555
C27 O5 1_555 1_555
H21 C29 1_555 1_555
H23_2 C31_2 1_555 1_555
C34_2 C31_2 1_555 1_555
C35_2 C34_2 1_555 1_555
H26_2 C35_2 1_555 1_555
H27_2 C35_2 1_555 1_555
C36_2 C37_2 1_555 1_555
C37_2 C29 1_555 1_555
H28_2 C37_2 1_555 1_555
O6_2 C35_2 1_555 1_555
C36_2 O6_2 1_555 1_555
C32_2 H24_2 1_555 1_555
C33_2 C32_2 1_555 1_555
Cu5 N3 1_555 1_555
C32_2 N3 1_555 1_555
C30_2 H22_2 1_555 1_555
C1_2 C2_2 1_555 1_555
C4_2 C2_2 1_555 1_555
H2_2 C4_2 1_555 1_555
C6_2 C4_2 1_555 1_555
H4_2 C6_2 1_555 1_555
C7_2 C5_2 1_555 1_555
C8_2 H5_2 1_555 1_555
C9_2 C8_2 1_555 1_555
H6_2 C9_2 1_555 1_555
C10_2 C8_2 1_555 1_555
H7_2 C10_2 1_555 1_555
C11_2 C9_2 1_555 1_555
H8_2 C11_2 1_555 1_555
C12_2 C10_2 1_555 1_555
H9_2 C12_2 1_555 1_555
C13_2 C11_2 1_555 1_555
C14_2 C15_2 1_555 1_555
C15_2 H10_2 1_555 1_555
C16_2 C14_2 1_555 1_555
H11_2 C16_2 1_555 1_555
C17_2 C16_2 1_555 1_555
H12_2 C17_2 1_555 1_555
C18_2 C15_2 1_555 1_555
H13_2 C18_2 1_555 1_555
C19_2 C17_2 1_555 1_555
C20_2 C19_2 1_555 1_555
N1_2 C7_2 1_555 1_555
O2 C1_2 1_555 1_555
O3_2 C20_2 1_555 1_555
O4_2 C20_2 1_555 1_555
Cu5 O3_2 1_555 1_555
C6_2 C7_2 1_555 1_555
C12_2 C13_2 1_555 1_555
C13_2 N1_2 1_555 1_555
C14_2 N1_2 1_555 1_555
C18_2 C19_2 1_555 1_555
C3_2 H1_2 1_555 1_555
Cu4 O1 1_555 1_555
C39_2 C40_2 1_555 1_555
C40_2 C41_2 1_555 1_555
C41_2 H30_2 1_555 1_555
C42_2 C40_2 1_555 1_555
H31_2 C42_2 1_555 1_555
C43_2 C41_2 1_555 1_555
H32_2 C43_2 1_555 1_555
C44_2 C42_2 1_555 1_555
H33_2 C44_2 1_555 1_555
C45_2 C43_2 1_555 1_555
C46_2 H34_2 1_555 1_555
C47_2 C46_2 1_555 1_555
H35_2 C47_2 1_555 1_555
C48_2 C46_2 1_555 1_555
H36_2 C48_2 1_555 1_555
C49_2 C47_2 1_555 1_555
H37_2 C49_2 1_555 1_555
C50_2 C48_2 1_555 1_555
H38_2 C50_2 1_555 1_555
C51_2 C49_2 1_555 1_555
C52_2 C53_2 1_555 1_555
C53_2 H39_2 1_555 1_555
C54_2 C52_2 1_555 1_555
H40_2 C54_2 1_555 1_555
C55_2 C54_2 1_555 1_555
H41_2 C55_2 1_555 1_555
C56_2 C53_2 1_555 1_555
H42_2 C56_2 1_555 1_555
C57_2 C55_2 1_555 1_555
C58_2 C57_2 1_555 1_555
N4_2 C45_2 1_555 1_555
O12 C39_2 1_555 1_555
O14 C39_2 1_555 1_555
O10_2 C58_2 1_555 1_555
C44_2 C45_2 1_555 1_555
C50_2 C51_2 1_555 1_555
C51_2 N4_2 1_555 1_555
C52_2 N4_2 1_555 1_555
C56_2 C57_2 1_555 1_555
C21_2 H14_2 1_555 1_555
C22_2 C21_2 1_555 1_555
H15_2 C22_2 1_555 1_555
C23_2 H16_2 1_555 1_555
C24_2 C23_2 1_555 1_555
H17_2 C24_2 1_555 1_555
C25_2 C22_2 1_555 1_555
C26_2 C25_2 1_555 1_555
H18_2 C26_2 1_555 1_555
H19_2 C26_2 1_555 1_555
C27_2 C28_2 1_555 1_555
C28_2 H20_2 1_555 1_555
C29_2 C27_2 1_555 1_555
H21_2 C29_2 1_555 1_555
N2_2 C21_2 1_555 1_555
O5_2 C26_2 1_555 1_555
Cu4 N2_2 1_555 1_555
O9_2 Cu4 1_555 1_555
C23_2 N2_2 1_555 1_555
C24_2 C25_2 1_555 1_555
C27_2 O5_2 1_555 1_555

#END
