
###############################################################################
#
# This file contains modified crystal structure data generated from the
# MOF subset of the Cambridge Structural Database (CSD) v543 
# hosted by the Cambridge Crystallographic Data Centre (CCDC).
#
# This work is licensed under the Creative Commons
# Attribution-NonCommercial-ShareAlike 4.0 International License.
# To view a copy of this license, visit
# http://creativecommons.org/licenses/by-nc-sa/4.0/
# or send a letter to
# Creative Commons, PO Box 1866, Mountain View, CA 94042, USA.
#
# CIF created using the CSD Python API on 29 September 2022
# The structure has been converted into the P1 space group
# The structure has a 3D framework
# The original CSD entry AVEMAQ is in the tetragonal crystal system
# The framework has been calculated to contain at least 10.0% void space
# The void calculation uses a probe of radius 1.32A, grid spacing 0.4
# H atom positions have been added when not included in the experimental data
#
###############################################################################

data_AVEMAQ
_chemical_formula_moiety         '(C120 H128 N24 Ni5 O16)n'
_symmetry_cell_setting           triclinic
_symmetry_space_group_name_H-M   'P 1'
_symmetry_Int_Tables_number      1
_space_group_name_Hall           'P 1'
loop_
_symmetry_equiv_pos_site_id
_symmetry_equiv_pos_as_xyz
1 x,y,z
_cell_length_a                   13.7327(15)
_cell_length_b                   13.7327(15)
_cell_length_c                   25.466(6)
_cell_angle_alpha                90
_cell_angle_beta                 90
_cell_angle_gamma                90
_cell_volume                     4802.56
loop_
_atom_site_label
_atom_site_type_symbol
_atom_site_fract_x
_atom_site_fract_y
_atom_site_fract_z
Ni5 Ni 0.25231(15) 0.40585(12) 0.47628(9)
N7 N 0.1888(8) 0.2824(9) 0.4581(4)
C25 C 0.0909(14) 0.2764(13) 0.4545(7)
H26 H 0.0544 0.3319 0.4615
C26 C 0.0379(13) 0.1847(17) 0.4397(9)
C27 C 0.0920(11) 0.1038(12) 0.4377(7)
C28 C 0.1981(16) 0.1032(18) 0.4415(11)
H28 H 0.2351 0.0470 0.4376
C29 C 0.2389(10) 0.1942(11) 0.4515(5)
H29 H 0.3064 0.1967 0.4542
C30 C 0.0471(14) 0.0017(15) 0.4331(6)
Ni1 Ni 0.74769(15) 0.59415(12) 0.47628(9)
O1 O 0.7048(8) 0.4670(8) 0.5024(4)
O2 O 0.6285(7) 0.3934(9) 0.5656(5)
N1 N 0.7060(13) 0.6391(10) 0.5472(5)
H1 H 0.7053 0.6990 0.5571
N2 N 0.7996(10) 0.5322(10) 0.4113(5)
N3 N 0.8112(8) 0.7176(9) 0.4581(4)
C1 C 0.6665(13) 0.4651(13) 0.5492(7)
C2 C 0.683(2) 0.560(2) 0.5799(11)
H2 H 0.7514 0.5449 0.5864
C3 C 0.662(4) 0.559(3) 0.6290(11)
H3 H 0.6723 0.4950 0.6428
H4 H 0.5955 0.5778 0.6339
H5 H 0.7038 0.6044 0.6471
C4 C 0.8621(11) 0.4529(11) 0.4156(5)
H6 H 0.8830 0.4317 0.4484
C5 C 0.8928(17) 0.4057(18) 0.3702(7)
H7 H 0.9257 0.3468 0.3734
C6 C 0.8765(11) 0.4426(13) 0.3211(8)
C7 C 0.8207(18) 0.5277(15) 0.3172(8)
H8 H 0.8064 0.5580 0.2854
C8 C 0.7881(11) 0.5631(11) 0.3664(5)
H9 H 0.7515 0.6200 0.3643
C9 C 0.9149(14) 0.3973(14) 0.2745(7)
H10 H 0.9594 0.3475 0.2806
C10 C 0.9091(14) 0.7236(13) 0.4545(7)
H11 H 0.9456 0.6681 0.4615
C11 C 0.9621(13) 0.8153(17) 0.4397(9)
C12 C 0.9080(11) 0.8962(12) 0.4377(7)
C13 C 0.8019(16) 0.8968(18) 0.4415(11)
H13 H 0.7649 0.9530 0.4376
C14 C 0.7611(10) 0.8058(11) 0.4515(5)
H14 H 0.6936 0.8033 0.4542
C15 C 0.9529(14) 0.9983(15) 0.4331(6)
Ni2 Ni 0.40585(12) 0.74769(15) 0.52372(9)
Ni3 Ni 0.59415(12) 0.25231(15) 0.52372(9)
O3 O 0.5330(8) 0.7048(8) 0.4976(4)
O4 O 0.6066(9) 0.6285(7) 0.4344(5)
O5 O 0.3715(7) 0.6066(9) 0.5656(5)
N4 N 0.3609(10) 0.7060(13) 0.4528(5)
H16 H 0.3010 0.7053 0.4429
N6 N 0.4678(10) 0.7996(10) 0.5887(5)
N8 N 0.2824(9) 0.8112(8) 0.5419(4)
C16 C 0.5349(13) 0.6665(13) 0.4508(7)
C17 C 0.440(2) 0.683(2) 0.4201(11)
H17 H 0.4551 0.7514 0.4136
C18 C 0.441(3) 0.662(4) 0.3710(11)
H18 H 0.5050 0.6723 0.3572
H19 H 0.4222 0.5955 0.3661
H20 H 0.3956 0.7038 0.3529
C19 C 0.9529(11) 0.3621(11) 0.0844(5)
H21 H 0.9317 0.3830 0.0516
C20 C 0.9057(18) 0.3928(17) 0.1298(7)
H22 H 0.8468 0.4257 0.1266
C21 C 0.9426(13) 0.3765(11) 0.1789(8)
C24 C 0.8973(14) 0.4149(14) 0.2255(7)
H25 H 0.8475 0.4594 0.2194
H31 H 0.635765 0.643875 0.535057
H32 H 0.356125 0.635765 0.464943
C25_2 C 0.2764(13) 0.9091(14) 0.5455(7)
H26_2 H 0.3319 0.9456 0.5385
C26_2 C 0.1847(17) 0.9621(13) 0.5603(9)
C27_2 C 0.1038(12) 0.9080(11) 0.5623(7)
C28_2 C 0.1032(18) 0.8019(16) 0.5585(11)
H28_2 H 0.0470 0.7649 0.5624
C29_2 C 0.1942(11) 0.7611(10) 0.5485(5)
H29_2 H 0.1967 0.6936 0.5458
C30_2 C 0.0017(15) 0.9529(14) 0.5669(6)
O1_2 O 0.4670(8) 0.2952(8) 0.4976(4)
O2_2 O 0.3934(9) 0.3715(7) 0.4344(5)
N1_2 N 0.6391(10) 0.2940(13) 0.4528(5)
H1_2 H 0.6990 0.2947 0.4429
N2_2 N 0.5322(10) 0.2004(10) 0.5887(5)
N3_2 N 0.7176(9) 0.1888(8) 0.5419(4)
C1_2 C 0.4651(13) 0.3335(13) 0.4508(7)
C2_2 C 0.560(2) 0.317(2) 0.4201(11)
H2_2 H 0.5449 0.2486 0.4136
C3_2 C 0.559(3) 0.338(4) 0.3710(11)
H3_2 H 0.4950 0.3277 0.3572
H4_2 H 0.5778 0.4045 0.3661
H5_2 H 0.6044 0.2962 0.3529
C4_2 C 0.4529(11) 0.1379(11) 0.5844(5)
H6_2 H 0.4317 0.1170 0.5516
C5_2 C 0.4057(18) 0.1072(17) 0.6298(7)
H7_2 H 0.3468 0.0743 0.6266
C6_2 C 0.4426(13) 0.1235(11) 0.6789(8)
C7_2 C 0.5277(15) 0.1793(18) 0.6828(8)
H8_2 H 0.5580 0.1936 0.7146
C8_2 C 0.5631(11) 0.2119(11) 0.6336(5)
H9_2 H 0.6200 0.2485 0.6357
C9_2 C 0.3973(14) 0.0851(14) 0.7255(7)
H10_2 H 0.3475 0.0406 0.7194
C10_2 C 0.7236(13) 0.0909(14) 0.5455(7)
H11_2 H 0.6681 0.0544 0.5385
C11_2 C 0.8153(17) 0.0379(13) 0.5603(9)
C12_2 C 0.8962(12) 0.0920(11) 0.5623(7)
C13_2 C 0.8968(18) 0.1981(16) 0.5585(11)
H13_2 H 0.9530 0.2351 0.5624
C14_2 C 0.8058(11) 0.2389(10) 0.5485(5)
H14_2 H 0.8033 0.3064 0.5458
C15_2 C 0.9983(15) 0.0471(14) 0.5669(6)
C19_2 C 0.3621(11) 0.0471(11) 0.9156(5)
H21_2 H 0.3830 0.0683 0.9484
C20_2 C 0.3928(17) 0.0943(18) 0.8702(7)
H22_2 H 0.4257 0.1532 0.8734
C21_2 C 0.3765(11) 0.0574(13) 0.8211(8)
C24_2 C 0.4149(14) 0.1027(14) 0.7745(7)
H25_2 H 0.4594 0.1525 0.7806
H31_2 H 0.643875 0.364235 0.464943
O1_3 O 0.2952(8) 0.5330(8) 0.5024(4)
N1_3 N 0.2940(13) 0.3609(10) 0.5472(5)
H1_3 H 0.2947 0.3010 0.5571
N2_3 N 0.2004(10) 0.4678(10) 0.4113(5)
C1_3 C 0.3335(13) 0.5349(13) 0.5492(7)
C2_3 C 0.317(2) 0.440(2) 0.5799(11)
H2_3 H 0.2486 0.4551 0.5864
C3_3 C 0.338(4) 0.441(3) 0.6290(11)
H3_3 H 0.3277 0.5050 0.6428
H4_3 H 0.4045 0.4222 0.6339
H5_3 H 0.2962 0.3956 0.6471
C4_3 C 0.1379(11) 0.5471(11) 0.4156(5)
H6_3 H 0.1170 0.5683 0.4484
C5_3 C 0.1072(17) 0.5943(18) 0.3702(7)
H7_3 H 0.0743 0.6532 0.3734
C6_3 C 0.1235(11) 0.5574(13) 0.3211(8)
C7_3 C 0.1793(18) 0.4723(15) 0.3172(8)
H8_3 H 0.1936 0.4420 0.2854
C8_3 C 0.2119(11) 0.4369(11) 0.3664(5)
H9_3 H 0.2485 0.3800 0.3643
C9_3 C 0.0851(14) 0.6027(14) 0.2745(7)
H10_3 H 0.0406 0.6525 0.2806
C19_3 C 0.0471(11) 0.6379(11) 0.0844(5)
H21_3 H 0.0683 0.6170 0.0516
C20_3 C 0.0943(18) 0.6072(17) 0.1298(7)
H22_3 H 0.1532 0.5743 0.1266
C21_3 C 0.0574(13) 0.6235(11) 0.1789(8)
C24_3 C 0.1027(14) 0.5851(14) 0.2255(7)
H25_3 H 0.1525 0.5406 0.2194
H31_3 H 0.364235 0.356125 0.535057
C4_4 C 0.5471(11) 0.8621(11) 0.5844(5)
H6_4 H 0.5683 0.8830 0.5516
C5_4 C 0.5943(18) 0.8928(17) 0.6298(7)
H7_4 H 0.6532 0.9257 0.6266
C6_4 C 0.5574(13) 0.8765(11) 0.6789(8)
C7_4 C 0.4723(15) 0.8207(18) 0.6828(8)
H8_4 H 0.4420 0.8064 0.7146
C8_4 C 0.4369(11) 0.7881(11) 0.6336(5)
H9_4 H 0.3800 0.7515 0.6357
C9_4 C 0.6027(14) 0.9149(14) 0.7255(7)
H10_4 H 0.6525 0.9594 0.7194
C19_4 C 0.6379(11) 0.9529(11) 0.9156(5)
H21_4 H 0.6170 0.9317 0.9484
C20_4 C 0.6072(17) 0.9057(18) 0.8702(7)
H22_4 H 0.5743 0.8468 0.8734
C21_4 C 0.6235(11) 0.9426(13) 0.8211(8)
C24_4 C 0.5851(14) 0.8973(14) 0.7745(7)
H25_4 H 0.5406 0.8475 0.7806
H12 H 0.0284 0.8158 0.4324
Ni4 Ni 0.09415(12) 0.24769(15) 0.02372(9)
N5 N 0.0322(10) 0.2996(10) 0.0887(5)
C22 C 0.0277(15) 0.3207(18) 0.1828(8)
H23 H 0.0580 0.3064 0.2146
C23 C 0.0631(11) 0.2881(11) 0.1336(5)
H24 H 0.1200 0.2515 0.1357
H30 H 0.0887 0.9466 0.4349
H15 H 0.9113 0.0534 0.4349
H27 H 0.9716 0.1842 0.4324
Ni4_2 Ni 0.90585(12) 0.75231(15) 0.02372(9)
N5_2 N 0.9678(10) 0.7004(10) 0.0887(5)
C22_2 C 0.9723(15) 0.6793(18) 0.1828(8)
H23_2 H 0.9420 0.6936 0.2146
C23_2 C 0.9369(11) 0.7119(11) 0.1336(5)
H24_2 H 0.8800 0.7485 0.1357
O5_2 O 0.1285(7) 0.1066(9) 0.0656(5)
N8_2 N 0.2176(9) 0.3112(8) 0.0419(4)
O1_4 O 0.7952(8) 0.9670(8) 0.0024(4)
O2_3 O 0.8715(7) 0.8934(9) 0.0656(5)
C1_4 C 0.8335(13) 0.9651(13) 0.0492(7)
H3_4 H 0.8277 0.9950 0.1428
C10_3 C 0.2236(13) 0.4091(14) 0.0455(7)
H11_3 H 0.1681 0.4456 0.0385
C11_3 C 0.3153(17) 0.4621(13) 0.0603(9)
H12_2 H 0.3158 0.5284 0.0676
C12_3 C 0.3962(12) 0.4080(11) 0.0623(7)
C13_3 C 0.3968(18) 0.3019(16) 0.0585(11)
H13_3 H 0.4530 0.2649 0.0624
C14_3 C 0.3058(11) 0.2611(10) 0.0485(5)
H14_3 H 0.3033 0.1936 0.0458
H15_2 H 0.5534 0.4113 0.0651
C15_3 C 0.4983(15) 0.4529(14) 0.0669(6)
O3_2 O 0.2048(8) 0.0330(8) 0.0024(4)
N7_2 N 0.7824(9) 0.6888(8) 0.0419(4)
C16_2 C 0.1665(13) 0.0349(13) 0.0492(7)
H18_2 H 0.1723 0.0050 0.1428
C25_3 C 0.7764(13) 0.5909(14) 0.0455(7)
H26_3 H 0.8319 0.5544 0.0385
C26_3 C 0.6847(17) 0.5379(13) 0.0603(9)
H27_2 H 0.6842 0.4716 0.0676
C27_3 C 0.6038(12) 0.5920(11) 0.0623(7)
C28_3 C 0.6032(18) 0.6981(16) 0.0585(11)
H28_3 H 0.5470 0.7351 0.0624
C29_3 C 0.6942(11) 0.7389(10) 0.0485(5)
H29_3 H 0.6967 0.8064 0.0458
H30_2 H 0.4466 0.5887 0.0651
C30_3 C 0.5017(15) 0.5471(14) 0.0669(6)
H15_3 H 0.0534 0.0887 0.5651
H27_3 H 0.1842 0.0284 0.5676
H12_3 H 0.8158 0.9716 0.5676
Ni4_3 Ni 0.24769(15) 0.90585(12) 0.97628(9)
N5_3 N 0.2996(10) 0.9678(10) 0.9113(5)
C22_3 C 0.3207(18) 0.9723(15) 0.8172(8)
H23_3 H 0.3064 0.9420 0.7854
C23_3 C 0.2881(11) 0.9369(11) 0.8664(5)
H24_3 H 0.2515 0.8800 0.8643
H30_3 H 0.9466 0.9113 0.5651
Ni4_4 Ni 0.75231(15) 0.09415(12) 0.97628(9)
N5_4 N 0.7004(10) 0.0322(10) 0.9113(5)
C22_4 C 0.6793(18) 0.0277(15) 0.8172(8)
H23_4 H 0.6936 0.0580 0.7854
C23_4 C 0.7119(11) 0.0631(11) 0.8664(5)
H24_4 H 0.7485 0.1200 0.8643
N3_3 N 0.6888(8) 0.2176(9) 0.9581(4)
C10_4 C 0.5909(14) 0.2236(13) 0.9545(7)
H11_4 H 0.5544 0.1681 0.9615
C11_4 C 0.5379(13) 0.3153(17) 0.9397(9)
H12_4 H 0.4716 0.3158 0.9324
C12_4 C 0.5920(11) 0.3962(12) 0.9377(7)
C13_4 C 0.6981(16) 0.3968(18) 0.9415(11)
H13_4 H 0.7351 0.4530 0.9376
C14_4 C 0.7389(10) 0.3058(11) 0.9515(5)
H14_4 H 0.8064 0.3033 0.9542
H15_4 H 0.5887 0.5534 0.9349
C15_4 C 0.5471(14) 0.4983(15) 0.9331(6)
O3_3 O 0.9670(8) 0.2048(8) 0.9976(4)
O4_2 O 0.8934(9) 0.1285(7) 0.9344(5)
N7_3 N 0.3112(8) 0.7824(9) 0.9581(4)
C16_3 C 0.9651(13) 0.1665(13) 0.9508(7)
H18_3 H 0.9950 0.1723 0.8572
C25_4 C 0.4091(14) 0.7764(13) 0.9545(7)
H26_4 H 0.4456 0.8319 0.9615
C26_4 C 0.4621(13) 0.6847(17) 0.9397(9)
H27_4 H 0.5284 0.6842 0.9324
C27_4 C 0.4080(11) 0.6038(12) 0.9377(7)
C28_4 C 0.3019(16) 0.6032(18) 0.9415(11)
H28_4 H 0.2649 0.5470 0.9376
C29_4 C 0.2611(10) 0.6942(11) 0.9515(5)
H29_4 H 0.1936 0.6967 0.9542
H30_4 H 0.4113 0.4466 0.9349
C30_4 C 0.4529(14) 0.5017(15) 0.9331(6)
O5_3 O 0.1066(9) 0.8715(7) 0.9344(5)
O3_4 O 0.0330(8) 0.7952(8) 0.9976(4)
C16_4 C 0.0349(13) 0.8335(13) 0.9508(7)
H18_4 H 0.0050 0.8277 0.8572
N4_2 N 0.1391(10) 0.2060(13) 0.9528(5)
H16_2 H 0.1990 0.2053 0.9429
C17_2 C 0.060(2) 0.183(2) 0.9201(11)
H17_2 H 0.0449 0.2514 0.9136
C18_2 C 0.059(3) 0.162(4) 0.8710(11)
H19_2 H 0.0778 0.0955 0.8661
H20_2 H 0.1044 0.2038 0.8529
H32_2 H 0.143875 0.135765 0.964943
N1_4 N 0.7940(13) 0.1391(10) 0.0472(5)
H1_4 H 0.7947 0.1990 0.0571
C2_4 C 0.817(2) 0.060(2) 0.0799(11)
H2_4 H 0.7486 0.0449 0.0864
C3_4 C 0.838(4) 0.059(3) 0.1290(11)
H4_4 H 0.9045 0.0778 0.1339
H5_4 H 0.7962 0.1044 0.1471
H31_4 H 0.864235 0.143875 0.0350568
N4_3 N 0.2060(13) 0.8609(10) 0.0472(5)
H16_3 H 0.2053 0.8010 0.0571
C17_3 C 0.183(2) 0.940(2) 0.0799(11)
H17_3 H 0.2514 0.9551 0.0864
C18_3 C 0.162(4) 0.941(3) 0.1290(11)
H19_3 H 0.0955 0.9222 0.1339
H20_3 H 0.2038 0.8956 0.1471
H32_3 H 0.135765 0.856125 0.0350568
N4_4 N 0.8609(10) 0.7940(13) 0.9528(5)
H16_4 H 0.8010 0.7947 0.9429
C17_4 C 0.940(2) 0.817(2) 0.9201(11)
H17_4 H 0.9551 0.7486 0.9136
C18_4 C 0.941(3) 0.838(4) 0.8710(11)
H19_4 H 0.9222 0.9045 0.8661
H20_4 H 0.8956 0.7962 0.8529
H32_4 H 0.856125 0.864235 0.964943
loop_
_geom_bond_atom_site_label_1
_geom_bond_atom_site_label_2
_geom_bond_site_symmetry_1
_geom_bond_site_symmetry_2
Ni5 N7 1_555 1_555
N7 C25 1_555 1_555
C25 H26 1_555 1_555
C26 C25 1_555 1_555
C27 C26 1_555 1_555
C28 C27 1_555 1_555
H28 C28 1_555 1_555
C29 N7 1_555 1_555
H29 C29 1_555 1_555
C27 C30 1_555 1_555
C28 C29 1_555 1_555
Ni1 O1 1_555 1_555
O1 C1 1_555 1_555
O2 C1 1_555 1_555
N1 Ni1 1_555 1_555
H1 N1 1_555 1_555
N2 Ni1 1_555 1_555
N3 Ni1 1_555 1_555
C1 C2 1_555 1_555
C2 N1 1_555 1_555
H2 C2 1_555 1_555
C3 C2 1_555 1_555
H3 C3 1_555 1_555
H4 C3 1_555 1_555
H5 C3 1_555 1_555
C4 N2 1_555 1_555
H6 C4 1_555 1_555
C5 C4 1_555 1_555
H7 C5 1_555 1_555
C6 C5 1_555 1_555
C7 C6 1_555 1_555
H8 C7 1_555 1_555
C8 N2 1_555 1_555
H9 C8 1_555 1_555
C9 C6 1_555 1_555
H10 C9 1_555 1_555
C10 N3 1_555 1_555
H11 C10 1_555 1_555
C11 C10 1_555 1_555
C12 C11 1_555 1_555
C13 C12 1_555 1_555
H13 C13 1_555 1_555
C14 N3 1_555 1_555
H14 C14 1_555 1_555
C15 C12 1_555 1_555
Ni2 O3 1_555 1_555
Ni3 O2 1_555 1_555
O3 C16 1_555 1_555
O4 Ni1 1_555 1_555
O5 Ni2 1_555 1_555
N4 Ni2 1_555 1_555
H16 N4 1_555 1_555
N6 Ni2 1_555 1_555
N8 Ni2 1_555 1_555
C16 O4 1_555 1_555
C17 N4 1_555 1_555
H17 C17 1_555 1_555
C18 C17 1_555 1_555
H18 C18 1_555 1_555
H19 C18 1_555 1_555
H20 C18 1_555 1_555
C19 H21 1_555 1_555
C20 C19 1_555 1_555
H22 C20 1_555 1_555
C21 C20 1_555 1_555
C24 C9 1_555 1_555
H25 C24 1_555 1_555
C7 C8 1_555 1_555
C13 C14 1_555 1_555
C16 C17 1_555 1_555
C21 C24 1_555 1_555
N1 H31 1_555 1_555
N4 H32 1_555 1_555
N8 C25_2 1_555 1_555
C25_2 H26_2 1_555 1_555
C26_2 C25_2 1_555 1_555
C27_2 C26_2 1_555 1_555
C28_2 C27_2 1_555 1_555
H28_2 C28_2 1_555 1_555
C29_2 N8 1_555 1_555
H29_2 C29_2 1_555 1_555
C27_2 C30_2 1_555 1_555
C28_2 C29_2 1_555 1_555
Ni3 O1_2 1_555 1_555
O1_2 C1_2 1_555 1_555
O2_2 C1_2 1_555 1_555
N1_2 Ni3 1_555 1_555
H1_2 N1_2 1_555 1_555
N2_2 Ni3 1_555 1_555
N3_2 Ni3 1_555 1_555
C1_2 C2_2 1_555 1_555
C2_2 N1_2 1_555 1_555
H2_2 C2_2 1_555 1_555
C3_2 C2_2 1_555 1_555
H3_2 C3_2 1_555 1_555
H4_2 C3_2 1_555 1_555
H5_2 C3_2 1_555 1_555
C4_2 N2_2 1_555 1_555
H6_2 C4_2 1_555 1_555
C5_2 C4_2 1_555 1_555
H7_2 C5_2 1_555 1_555
C6_2 C5_2 1_555 1_555
C7_2 C6_2 1_555 1_555
H8_2 C7_2 1_555 1_555
C8_2 N2_2 1_555 1_555
H9_2 C8_2 1_555 1_555
C9_2 C6_2 1_555 1_555
H10_2 C9_2 1_555 1_555
C10_2 N3_2 1_555 1_555
H11_2 C10_2 1_555 1_555
C11_2 C10_2 1_555 1_555
C12_2 C11_2 1_555 1_555
C13_2 C12_2 1_555 1_555
H13_2 C13_2 1_555 1_555
C14_2 N3_2 1_555 1_555
H14_2 C14_2 1_555 1_555
C15_2 C12_2 1_555 1_555
Ni5 O2_2 1_555 1_555
C19_2 H21_2 1_555 1_555
C20_2 C19_2 1_555 1_555
H22_2 C20_2 1_555 1_555
C21_2 C20_2 1_555 1_555
C24_2 C9_2 1_555 1_555
H25_2 C24_2 1_555 1_555
C7_2 C8_2 1_555 1_555
C13_2 C14_2 1_555 1_555
C21_2 C24_2 1_555 1_555
N1_2 H31_2 1_555 1_555
Ni5 O1_3 1_555 1_555
O1_3 C1_3 1_555 1_555
O5 C1_3 1_555 1_555
N1_3 Ni5 1_555 1_555
H1_3 N1_3 1_555 1_555
N2_3 Ni5 1_555 1_555
C1_3 C2_3 1_555 1_555
C2_3 N1_3 1_555 1_555
H2_3 C2_3 1_555 1_555
C3_3 C2_3 1_555 1_555
H3_3 C3_3 1_555 1_555
H4_3 C3_3 1_555 1_555
H5_3 C3_3 1_555 1_555
C4_3 N2_3 1_555 1_555
H6_3 C4_3 1_555 1_555
C5_3 C4_3 1_555 1_555
H7_3 C5_3 1_555 1_555
C6_3 C5_3 1_555 1_555
C7_3 C6_3 1_555 1_555
H8_3 C7_3 1_555 1_555
C8_3 N2_3 1_555 1_555
H9_3 C8_3 1_555 1_555
C9_3 C6_3 1_555 1_555
H10_3 C9_3 1_555 1_555
C19_3 H21_3 1_555 1_555
C20_3 C19_3 1_555 1_555
H22_3 C20_3 1_555 1_555
C21_3 C20_3 1_555 1_555
C24_3 C9_3 1_555 1_555
H25_3 C24_3 1_555 1_555
C7_3 C8_3 1_555 1_555
C21_3 C24_3 1_555 1_555
N1_3 H31_3 1_555 1_555
C4_4 N6 1_555 1_555
H6_4 C4_4 1_555 1_555
C5_4 C4_4 1_555 1_555
H7_4 C5_4 1_555 1_555
C6_4 C5_4 1_555 1_555
C7_4 C6_4 1_555 1_555
H8_4 C7_4 1_555 1_555
C8_4 N6 1_555 1_555
H9_4 C8_4 1_555 1_555
C9_4 C6_4 1_555 1_555
H10_4 C9_4 1_555 1_555
C19_4 H21_4 1_555 1_555
C20_4 C19_4 1_555 1_555
H22_4 C20_4 1_555 1_555
C21_4 C20_4 1_555 1_555
C24_4 C9_4 1_555 1_555
H25_4 C24_4 1_555 1_555
C7_4 C8_4 1_555 1_555
C21_4 C24_4 1_555 1_555
Ni4 N5 1_555 1_555
H23 C22 1_555 1_555
C23 N5 1_555 1_555
H24 C23 1_555 1_555
C22 C23 1_555 1_555
Ni4_2 N5_2 1_555 1_555
H23_2 C22_2 1_555 1_555
C23_2 N5_2 1_555 1_555
H24_2 C23_2 1_555 1_555
C22_2 C23_2 1_555 1_555
O5_2 Ni4 1_555 1_555
N8_2 Ni4 1_555 1_555
O1_4 C1_4 1_555 1_555
O2_3 C1_4 1_555 1_555
Ni4_2 O2_3 1_555 1_555
C10_3 N8_2 1_555 1_555
H11_3 C10_3 1_555 1_555
C11_3 C10_3 1_555 1_555
H12_2 C11_3 1_555 1_555
C12_3 C11_3 1_555 1_555
C13_3 C12_3 1_555 1_555
H13_3 C13_3 1_555 1_555
C14_3 N8_2 1_555 1_555
H14_3 C14_3 1_555 1_555
H15_2 C15_3 1_555 1_555
C15_3 C12_3 1_555 1_555
Ni4_2 N7_2 1_555 1_555
O3_2 C16_2 1_555 1_555
N7_2 C25_3 1_555 1_555
C16_2 O5_2 1_555 1_555
C25_3 H26_3 1_555 1_555
C26_3 C25_3 1_555 1_555
H27_2 C26_3 1_555 1_555
C27_3 C26_3 1_555 1_555
C28_3 C27_3 1_555 1_555
H28_3 C28_3 1_555 1_555
C29_3 N7_2 1_555 1_555
H29_3 C29_3 1_555 1_555
H30_2 C30_3 1_555 1_555
C30_3 C15_3 1_555 1_555
C13_3 C14_3 1_555 1_555
C27_3 C30_3 1_555 1_555
C28_3 C29_3 1_555 1_555
Ni4_3 N5_3 1_555 1_555
H23_3 C22_3 1_555 1_555
C23_3 N5_3 1_555 1_555
H24_3 C23_3 1_555 1_555
C22_3 C23_3 1_555 1_555
Ni4_4 N5_4 1_555 1_555
H23_4 C22_4 1_555 1_555
C23_4 N5_4 1_555 1_555
H24_4 C23_4 1_555 1_555
C22_4 C23_4 1_555 1_555
N3_3 Ni4_4 1_555 1_555
C10_4 N3_3 1_555 1_555
H11_4 C10_4 1_555 1_555
C11_4 C10_4 1_555 1_555
H12_4 C11_4 1_555 1_555
C12_4 C11_4 1_555 1_555
C13_4 C12_4 1_555 1_555
H13_4 C13_4 1_555 1_555
C14_4 N3_3 1_555 1_555
H14_4 C14_4 1_555 1_555
H15_4 C15_4 1_555 1_555
C15_4 C12_4 1_555 1_555
Ni4_3 N7_3 1_555 1_555
O3_3 C16_3 1_555 1_555
O4_2 Ni4_4 1_555 1_555
N7_3 C25_4 1_555 1_555
C16_3 O4_2 1_555 1_555
C25_4 H26_4 1_555 1_555
C26_4 C25_4 1_555 1_555
H27_4 C26_4 1_555 1_555
C27_4 C26_4 1_555 1_555
C28_4 C27_4 1_555 1_555
H28_4 C28_4 1_555 1_555
C29_4 N7_3 1_555 1_555
H29_4 C29_4 1_555 1_555
H30_4 C30_4 1_555 1_555
C30_4 C15_4 1_555 1_555
C13_4 C14_4 1_555 1_555
C27_4 C30_4 1_555 1_555
C28_4 C29_4 1_555 1_555
O5_3 Ni4_3 1_555 1_555
O3_4 C16_4 1_555 1_555
C16_4 O5_3 1_555 1_555
H16_2 N4_2 1_555 1_555
C17_2 N4_2 1_555 1_555
H17_2 C17_2 1_555 1_555
C18_2 C17_2 1_555 1_555
H19_2 C18_2 1_555 1_555
H20_2 C18_2 1_555 1_555
N4_2 H32_2 1_555 1_555
H1_4 N1_4 1_555 1_555
C2_4 N1_4 1_555 1_555
H2_4 C2_4 1_555 1_555
C3_4 C2_4 1_555 1_555
H4_4 C3_4 1_555 1_555
H5_4 C3_4 1_555 1_555
N1_4 H31_4 1_555 1_555
H16_3 N4_3 1_555 1_555
C17_3 N4_3 1_555 1_555
H17_3 C17_3 1_555 1_555
C18_3 C17_3 1_555 1_555
H19_3 C18_3 1_555 1_555
H20_3 C18_3 1_555 1_555
N4_3 H32_3 1_555 1_555
H16_4 N4_4 1_555 1_555
C17_4 N4_4 1_555 1_555
H17_4 C17_4 1_555 1_555
C18_4 C17_4 1_555 1_555
H19_4 C18_4 1_555 1_555
H20_4 C18_4 1_555 1_555
N4_4 H32_4 1_555 1_555

#END
