
###############################################################################
#
# This file contains modified crystal structure data generated from the
# MOF subset of the Cambridge Structural Database (CSD) v543 
# hosted by the Cambridge Crystallographic Data Centre (CCDC).
#
# This work is licensed under the Creative Commons
# Attribution-NonCommercial-ShareAlike 4.0 International License.
# To view a copy of this license, visit
# http://creativecommons.org/licenses/by-nc-sa/4.0/
# or send a letter to
# Creative Commons, PO Box 1866, Mountain View, CA 94042, USA.
#
# CIF created using the CSD Python API on 29 September 2022
# The structure has been converted into the P1 space group
# The structure has a 3D framework
# The original CSD entry AVEQID is in the monoclinic crystal system
# The framework has been calculated to contain at least 10.0% void space
# The void calculation uses a probe of radius 1.32A, grid spacing 0.4
# H atom positions have been added when not included in the experimental data
# Generated hydrogen atom positions removed from atoms on special positions
#
###############################################################################

data_AVEQID
_chemical_formula_moiety         '(C88 H76 N4 O44 Zn6)n'
_symmetry_cell_setting           triclinic
_symmetry_space_group_name_H-M   'P 1'
_symmetry_Int_Tables_number      1
_space_group_name_Hall           'P 1'
loop_
_symmetry_equiv_pos_site_id
_symmetry_equiv_pos_as_xyz
1 x,y,z
_cell_length_a                   12.4957(10)
_cell_length_b                   15.3163(14)
_cell_length_c                   24.254(2)
_cell_angle_alpha                90
_cell_angle_beta                 102.304(2)
_cell_angle_gamma                90
_cell_volume                     4535.3
loop_
_atom_site_label
_atom_site_type_symbol
_atom_site_fract_x
_atom_site_fract_y
_atom_site_fract_z
Zn7 Zn 0.47108(2) 0.030790(18) 0.143649(11)
C1 C 0.3660(2) 0.47770(17) 0.26012(10)
C2 C 0.32272(19) 0.40525(16) 0.22071(10)
C3 C 0.22850(19) 0.41778(16) 0.17842(11)
H1 H 0.1920 0.4711 0.1755
C4 C 0.18947(19) 0.35131(16) 0.14096(10)
C5 C 0.2460(2) 0.27389(17) 0.14511(11)
H2 H 0.2216 0.2295 0.1194
C6 C 0.3399(2) 0.26079(16) 0.18750(11)
C7 C 0.3762(2) 0.32655(16) 0.22529(11)
H3 H 0.4374 0.3177 0.2541
C8 C 0.4045(2) 0.17772(18) 0.18945(12)
C9 C 0.09056(18) 0.36728(15) 0.09489(10)
C10 C 0.08692(18) 0.44063(16) 0.06228(10)
H4 H 0.1452 0.4796 0.0706
C11 C 0.00032(19) 0.46004(15) 0.01725(10)
C14 C 0.0016(2) 0.30760(16) 0.08502(11)
N1 N 0.0043(2) 0.23393(17) 0.11780(12)
H10 H 0.0598 0.2242 0.1449
O1 O 0.45556(16) 0.46141(13) 0.29452(8)
O2 O 0.31470(15) 0.54711(12) 0.25678(9)
O3 O 0.48737(16) 0.16775(13) 0.22820(9)
O4 O 0.37003(17) 0.12233(13) 0.15150(9)
O9 O 0.3149(3) 0.67806(17) 0.17116(10)
O10 O 0.1653(3) 0.6900(3) 0.25930(19)
O11 O 0.3445(2) 0.81755(16) 0.25199(10)
Zn1 Zn 0.52892(2) 0.530790(18) 0.356351(11)
Zn2 Zn 0.34189(3) 0.67874(2) 0.261341(13)
H15 H 0.1463 0.5900 0.0220
C38 C 0.2179(2) 0.77378(16) 0.02448(10)
H16 H 0.1857 0.7568 0.0540
C39 C 0.3009(2) 0.83662(17) 0.03392(10)
C43 C 0.3372(2) 0.88023(18) 0.09084(11)
O18 O 0.38909(17) 0.95092(13) 0.08884(8)
O19 O 0.3172(2) 0.84676(16) 0.13388(9)
O23 O 0.51263(16) 0.66775(13) 0.27180(9)
O25 O 0.62997(17) 0.62233(13) 0.34850(9)
O27 O 0.3557(2) 0.69544(14) 0.34716(9)
O29 O 0.42975(18) 0.58237(15) 0.39928(9)
O32 O 0.61091(17) 0.45092(13) 0.41116(8)
Zn12 Zn 0.65811(3) 0.17874(2) 0.238659(13)
C34 C 0.08682(19) 0.60032(16) 0.99237(10)
C35 C 0.08765(19) 0.67413(15) 0.95968(10)
C37 C 0.18299(19) 0.73629(16) 0.97138(10)
C40 C 0.3491(2) 0.86125(17) 0.99009(11)
H17 H 0.4019 0.9050 0.9957
C41 C 0.3193(2) 0.82125(16) 0.93764(10)
C42 C 0.2372(2) 0.75885(16) 0.92879(10)
H18 H 0.2179 0.7315 0.8938
C44 C 0.3717(2) 0.84870(18) 0.89050(11)
H19 H 0.0494 0.8023 0.8888
O16 O 0.3557(2) 0.80456(14) 0.84716(9)
O17 O 0.42975(18) 0.91763(15) 0.89928(9)
Zn10 Zn 0.52892(2) 0.969210(18) 0.856351(11)
Zn14 Zn 0.34189(3) 0.82126(2) 0.761341(13)
C12 C 0.91318(19) 0.39968(16) 0.00763(10)
C13 C 0.91235(19) 0.32587(15) 0.04032(10)
C15 C 0.81701(19) 0.26371(16) 0.02862(10)
C18 C 0.6509(2) 0.13875(17) 0.00991(11)
H7 H 0.5981 0.0950 0.0043
C19 C 0.6807(2) 0.17875(16) 0.06236(10)
C20 C 0.7628(2) 0.24115(16) 0.07121(10)
H8 H 0.7821 0.2685 0.1062
C22 C 0.6283(2) 0.15130(18) 0.10950(11)
H9 H 0.9506 0.1977 0.1112
O5 O 0.6443(2) 0.19544(14) 0.15284(9)
O6 O 0.57025(18) 0.08237(15) 0.10072(9)
H5 H 0.8537 0.4100 0.9780
C16 C 0.7821(2) 0.22622(16) 0.97552(10)
H6 H 0.8143 0.2432 0.9460
C17 C 0.6991(2) 0.16338(17) 0.96608(10)
C21 C 0.6628(2) 0.11977(18) 0.90916(11)
O7 O 0.61091(17) 0.04908(13) 0.91116(8)
O8 O 0.6828(2) 0.15324(16) 0.86612(9)
C23 C 0.6340(2) 0.52230(17) 0.73988(10)
C24 C 0.67728(19) 0.59475(16) 0.77929(10)
C25 C 0.77150(19) 0.58222(16) 0.82158(11)
H11 H 0.8080 0.5289 0.8245
C26 C 0.81053(19) 0.64869(16) 0.85904(10)
C27 C 0.7540(2) 0.72611(17) 0.85489(11)
H12 H 0.7784 0.7705 0.8806
C28 C 0.6601(2) 0.73921(16) 0.81250(11)
C29 C 0.6238(2) 0.67345(16) 0.77471(11)
H13 H 0.5626 0.6823 0.7459
C30 C 0.5955(2) 0.82228(18) 0.81055(12)
C31 C 0.90944(18) 0.63272(15) 0.90511(10)
C32 C 0.91308(18) 0.55937(16) 0.93772(10)
H14 H 0.8548 0.5204 0.9294
C33 C 0.99968(19) 0.53996(15) 0.98275(10)
C36 C 0.9984(2) 0.69240(16) 0.91498(11)
N2 N 0.9957(2) 0.76607(17) 0.88220(12)
H20 H 0.9402 0.7758 0.8551
O12 O 0.54444(16) 0.53859(13) 0.70548(8)
O13 O 0.68530(15) 0.45289(12) 0.74322(9)
O14 O 0.51263(16) 0.83225(13) 0.77180(9)
O15 O 0.62997(17) 0.87767(13) 0.84850(9)
O20 O 0.6851(3) 0.32194(17) 0.82884(10)
O21 O 0.8347(3) 0.3100(3) 0.74070(19)
O22 O 0.6555(2) 0.18245(16) 0.74801(10)
Zn3 Zn 0.47108(2) 0.469210(18) 0.643649(11)
Zn4 Zn 0.65811(3) 0.32126(2) 0.738659(13)
O24 O 0.48737(16) 0.33225(13) 0.72820(9)
O26 O 0.37003(17) 0.37767(13) 0.65150(9)
O28 O 0.6443(2) 0.30456(14) 0.65284(9)
O30 O 0.57025(18) 0.41763(15) 0.60072(9)
O31 O 0.38909(17) 0.54908(13) 0.58884(8)
C23_2 C 0.3660(2) 0.02230(17) 0.76012(10)
C24_2 C 0.32272(19) 0.09475(16) 0.72071(10)
C25_2 C 0.22850(19) 0.08222(16) 0.67842(11)
H11_2 H 0.1920 0.0289 0.6755
C26_2 C 0.18947(19) 0.14869(16) 0.64096(10)
C27_2 C 0.2460(2) 0.22611(17) 0.64511(11)
H12_2 H 0.2216 0.2705 0.6194
C28_2 C 0.3399(2) 0.23921(16) 0.68750(11)
C29_2 C 0.3762(2) 0.17345(16) 0.72529(11)
H13_2 H 0.4374 0.1823 0.7541
C30_2 C 0.4045(2) 0.32228(18) 0.68945(12)
C31_2 C 0.09056(18) 0.13272(15) 0.59489(10)
C32_2 C 0.08692(18) 0.05937(16) 0.56228(10)
H14_2 H 0.1452 0.0204 0.5706
C33_2 C 0.00032(19) 0.03996(15) 0.51725(10)
C36_2 C 0.0016(2) 0.19240(16) 0.58502(11)
N2_2 N 0.0043(2) 0.26607(17) 0.61780(12)
H20_2 H 0.0598 0.2758 0.6449
O12_2 O 0.45556(16) 0.03859(13) 0.79452(8)
C12_2 C 0.08682(19) 0.89968(16) 0.49237(10)
H5_2 H 0.1463 0.9100 0.5220
C13_2 C 0.08765(19) 0.82587(15) 0.45968(10)
C15_2 C 0.18299(19) 0.76371(16) 0.47138(10)
C16_2 C 0.2179(2) 0.72622(16) 0.52448(10)
H6_2 H 0.1857 0.7432 0.5540
C17_2 C 0.3009(2) 0.66338(17) 0.53392(10)
C18_2 C 0.3491(2) 0.63875(17) 0.49009(11)
H7_2 H 0.4019 0.5950 0.4957
C19_2 C 0.3193(2) 0.67875(16) 0.43764(10)
C20_2 C 0.2372(2) 0.74115(16) 0.42879(10)
H8_2 H 0.2179 0.7685 0.3938
C21_2 C 0.3372(2) 0.61977(18) 0.59084(11)
C22_2 C 0.3717(2) 0.65130(18) 0.39050(11)
H9_2 H 0.0494 0.6977 0.3888
O8_2 O 0.3172(2) 0.65324(16) 0.63388(9)
O13_2 O 0.31470(15) 0.95289(12) 0.75678(9)
O20_2 O 0.3149(3) 0.82194(17) 0.67116(10)
O21_2 O 0.1653(3) 0.8100(3) 0.75930(19)
O22_2 O 0.3445(2) 0.68245(16) 0.75199(10)
O2_2 O 0.68530(15) 0.04711(12) 0.24322(9)
O9_2 O 0.6851(3) 0.17806(17) 0.32884(10)
O10_2 O 0.8347(3) 0.1900(3) 0.24070(19)
O11_2 O 0.6555(2) 0.31755(16) 0.24801(10)
C34_2 C 0.91318(19) 0.10032(16) 0.50763(10)
H15_2 H 0.8537 0.0900 0.4780
C35_2 C 0.91235(19) 0.17413(15) 0.54032(10)
C37_2 C 0.81701(19) 0.23629(16) 0.52862(10)
C38_2 C 0.7821(2) 0.27378(16) 0.47552(10)
H16_2 H 0.8143 0.2568 0.4460
C39_2 C 0.6991(2) 0.33662(17) 0.46608(10)
C40_2 C 0.6509(2) 0.36125(17) 0.50991(11)
H17_2 H 0.5981 0.4050 0.5043
C41_2 C 0.6807(2) 0.32125(16) 0.56236(10)
C42_2 C 0.7628(2) 0.25885(16) 0.57121(10)
H18_2 H 0.7821 0.2315 0.6062
C43_2 C 0.6628(2) 0.38023(18) 0.40916(11)
C44_2 C 0.6283(2) 0.34870(18) 0.60950(11)
H19_2 H 0.9506 0.3023 0.6112
O19_2 O 0.6828(2) 0.34676(16) 0.36612(9)
C1_2 C 0.6340(2) 0.97770(17) 0.23988(10)
C2_2 C 0.67728(19) 0.90525(16) 0.27929(10)
C3_2 C 0.77150(19) 0.91778(16) 0.32158(11)
H1_2 H 0.8080 0.9711 0.3245
C4_2 C 0.81053(19) 0.85131(16) 0.35904(10)
C5_2 C 0.7540(2) 0.77389(17) 0.35489(11)
H2_2 H 0.7784 0.7295 0.3806
C6_2 C 0.6601(2) 0.76079(16) 0.31250(11)
C7_2 C 0.6238(2) 0.82655(16) 0.27471(11)
H3_2 H 0.5626 0.8177 0.2459
C8_2 C 0.5955(2) 0.67772(18) 0.31055(12)
C9_2 C 0.90944(18) 0.86728(15) 0.40511(10)
C10_2 C 0.91308(18) 0.94063(16) 0.43772(10)
H4_2 H 0.8548 0.9796 0.4294
C11_2 C 0.99968(19) 0.96004(15) 0.48275(10)
C14_2 C 0.9984(2) 0.80760(16) 0.41498(11)
N1_2 N 0.9957(2) 0.73393(17) 0.38220(12)
H10_2 H 0.9402 0.7242 0.3551
O1_2 O 0.54444(16) 0.96141(13) 0.20548(8)
loop_
_geom_bond_atom_site_label_1
_geom_bond_atom_site_label_2
_geom_bond_site_symmetry_1
_geom_bond_site_symmetry_2
C1 C2 1_555 1_555
C2 C3 1_555 1_555
C3 H1 1_555 1_555
C4 C3 1_555 1_555
C5 C4 1_555 1_555
H2 C5 1_555 1_555
C6 C5 1_555 1_555
C7 C2 1_555 1_555
H3 C7 1_555 1_555
C8 C6 1_555 1_555
C9 C4 1_555 1_555
C10 C9 1_555 1_555
H4 C10 1_555 1_555
C11 C10 1_555 1_555
C14 C9 1_555 1_555
N1 C14 1_555 1_555
H10 N1 1_555 1_555
O1 C1 1_555 1_555
O2 C1 1_555 1_555
O3 C8 1_555 1_555
O4 C8 1_555 1_555
O9 Zn2 1_555 1_555
O10 Zn2 1_555 1_555
O11 Zn2 1_555 1_555
Zn1 O1 1_555 1_555
Zn2 O2 1_555 1_555
H16 C38 1_555 1_555
C39 C38 1_555 1_555
C43 C39 1_555 1_555
O18 C43 1_555 1_555
O19 C43 1_555 1_555
O23 Zn2 1_555 1_555
O25 Zn1 1_555 1_555
O27 Zn2 1_555 1_555
O29 Zn1 1_555 1_555
O32 Zn1 1_555 1_555
Zn7 O4 1_555 1_555
Zn12 O3 1_555 1_555
C6 C7 1_555 1_555
C35 C34 1_555 1_555
C37 C35 1_555 1_555
H17 C40 1_555 1_555
C41 C40 1_555 1_555
C42 C37 1_555 1_555
H18 C42 1_555 1_555
C44 C41 1_555 1_555
O16 C44 1_555 1_555
O17 C44 1_555 1_555
Zn10 O17 1_555 1_555
Zn14 O16 1_555 1_555
C41 C42 1_555 1_555
C13 C12 1_555 1_555
C15 C13 1_555 1_555
H7 C18 1_555 1_555
C19 C18 1_555 1_555
C20 C15 1_555 1_555
H8 C20 1_555 1_555
C22 C19 1_555 1_555
O5 C22 1_555 1_555
O6 C22 1_555 1_555
Zn7 O6 1_555 1_555
Zn12 O5 1_555 1_555
C19 C20 1_555 1_555
H6 C16 1_555 1_555
C17 C16 1_555 1_555
C21 C17 1_555 1_555
O7 C21 1_555 1_555
O8 C21 1_555 1_555
C23 C24 1_555 1_555
C24 C25 1_555 1_555
C25 H11 1_555 1_555
C26 C25 1_555 1_555
C27 C26 1_555 1_555
H12 C27 1_555 1_555
C28 C27 1_555 1_555
C29 C24 1_555 1_555
H13 C29 1_555 1_555
C30 C28 1_555 1_555
C31 C26 1_555 1_555
C32 C31 1_555 1_555
H14 C32 1_555 1_555
C36 C31 1_555 1_555
N2 C36 1_555 1_555
H20 N2 1_555 1_555
O12 C23 1_555 1_555
O13 C23 1_555 1_555
O14 C30 1_555 1_555
O15 C30 1_555 1_555
O20 Zn4 1_555 1_555
O21 Zn4 1_555 1_555
O22 Zn4 1_555 1_555
Zn3 O12 1_555 1_555
Zn4 O13 1_555 1_555
O24 Zn4 1_555 1_555
O26 Zn3 1_555 1_555
O28 Zn4 1_555 1_555
O30 Zn3 1_555 1_555
O31 Zn3 1_555 1_555
Zn10 O15 1_555 1_555
Zn14 O14 1_555 1_555
C28 C29 1_555 1_555
C32 C33 1_555 1_555
C23_2 C24_2 1_555 1_555
C24_2 C25_2 1_555 1_555
C25_2 H11_2 1_555 1_555
C26_2 C25_2 1_555 1_555
C27_2 C26_2 1_555 1_555
H12_2 C27_2 1_555 1_555
C28_2 C27_2 1_555 1_555
C29_2 C24_2 1_555 1_555
H13_2 C29_2 1_555 1_555
C30_2 C28_2 1_555 1_555
C31_2 C26_2 1_555 1_555
C32_2 C31_2 1_555 1_555
H14_2 C32_2 1_555 1_555
C36_2 C31_2 1_555 1_555
N2_2 C36_2 1_555 1_555
H20_2 N2_2 1_555 1_555
O12_2 C23_2 1_555 1_555
O24 C30_2 1_555 1_555
O26 C30_2 1_555 1_555
C28_2 C29_2 1_555 1_555
C32_2 C33_2 1_555 1_555
H5_2 C12_2 1_555 1_555
C13_2 C12_2 1_555 1_555
C15_2 C13_2 1_555 1_555
C16_2 C15_2 1_555 1_555
H6_2 C16_2 1_555 1_555
C17_2 C16_2 1_555 1_555
C18_2 C17_2 1_555 1_555
H7_2 C18_2 1_555 1_555
C19_2 C18_2 1_555 1_555
C20_2 C15_2 1_555 1_555
H8_2 C20_2 1_555 1_555
C21_2 C17_2 1_555 1_555
C22_2 C19_2 1_555 1_555
O27 C22_2 1_555 1_555
O29 C22_2 1_555 1_555
O31 C21_2 1_555 1_555
O8_2 C21_2 1_555 1_555
O20_2 Zn14 1_555 1_555
O21_2 Zn14 1_555 1_555
O22_2 Zn14 1_555 1_555
Zn14 O13_2 1_555 1_555
C19_2 C20_2 1_555 1_555
O9_2 Zn12 1_555 1_555
O10_2 Zn12 1_555 1_555
O11_2 Zn12 1_555 1_555
Zn12 O2_2 1_555 1_555
H15_2 C34_2 1_555 1_555
C35_2 C34_2 1_555 1_555
C37_2 C35_2 1_555 1_555
C38_2 C37_2 1_555 1_555
H16_2 C38_2 1_555 1_555
C39_2 C38_2 1_555 1_555
C40_2 C39_2 1_555 1_555
H17_2 C40_2 1_555 1_555
C41_2 C40_2 1_555 1_555
C42_2 C37_2 1_555 1_555
H18_2 C42_2 1_555 1_555
C43_2 C39_2 1_555 1_555
C44_2 C41_2 1_555 1_555
O28 C44_2 1_555 1_555
O30 C44_2 1_555 1_555
O32 C43_2 1_555 1_555
O19_2 C43_2 1_555 1_555
C41_2 C42_2 1_555 1_555
C1_2 C2_2 1_555 1_555
C2_2 C3_2 1_555 1_555
C3_2 H1_2 1_555 1_555
C4_2 C3_2 1_555 1_555
C5_2 C4_2 1_555 1_555
H2_2 C5_2 1_555 1_555
C6_2 C5_2 1_555 1_555
C7_2 C2_2 1_555 1_555
H3_2 C7_2 1_555 1_555
C8_2 C6_2 1_555 1_555
C9_2 C4_2 1_555 1_555
C10_2 C9_2 1_555 1_555
H4_2 C10_2 1_555 1_555
C11_2 C10_2 1_555 1_555
C14_2 C9_2 1_555 1_555
N1_2 C14_2 1_555 1_555
H10_2 N1_2 1_555 1_555
O1_2 C1_2 1_555 1_555
O23 C8_2 1_555 1_555
O25 C8_2 1_555 1_555
C6_2 C7_2 1_555 1_555

#END
