
###############################################################################
#
# This file contains modified crystal structure data generated from the
# MOF subset of the Cambridge Structural Database (CSD) v543 
# hosted by the Cambridge Crystallographic Data Centre (CCDC).
#
# This work is licensed under the Creative Commons
# Attribution-NonCommercial-ShareAlike 4.0 International License.
# To view a copy of this license, visit
# http://creativecommons.org/licenses/by-nc-sa/4.0/
# or send a letter to
# Creative Commons, PO Box 1866, Mountain View, CA 94042, USA.
#
# CIF created using the CSD Python API on 29 September 2022
# The structure has been converted into the P1 space group
# The structure has a 3D framework
# The original CSD entry AVEROJ is in the hexagonal crystal system
# The original CSD entry AVEROJ is in a Sohncke space group
# The framework has been calculated to contain at least 10.0% void space
# The void calculation uses a probe of radius 1.32A, grid spacing 0.4
#
###############################################################################

data_AVEROJ
_chemical_formula_moiety         '(C12 H12 Cd5 Cl5 N14)n'
_symmetry_cell_setting           triclinic
_symmetry_space_group_name_H-M   'P 1'
_symmetry_Int_Tables_number      1
_space_group_name_Hall           'P 1'
loop_
_symmetry_equiv_pos_site_id
_symmetry_equiv_pos_as_xyz
1 x,y,z
_cell_length_a                   11.4544(3)
_cell_length_b                   11.4544(3)
_cell_length_c                   11.1530(6)
_cell_angle_alpha                90
_cell_angle_beta                 90
_cell_angle_gamma                120
_cell_volume                     1267.26
loop_
_atom_site_label
_atom_site_type_symbol
_atom_site_fract_x
_atom_site_fract_y
_atom_site_fract_z
N1 N 0.0047(2) 0.50236(12) 0.9167
Cd3 Cd 0.228556(18) 0.614278(20) 0.9167
Cd2 Cd 0.614278(20) 0.385722(9) 0.0833
H2 H 0.9487 0.5726 0.0576
Cd1 Cd 0.614278(9) 0.228556(18) 0.7500
Cl1 Cl 0.44961(7) 0.22480(3) 0.9167
N2 N 0.79253(17) 0.3619(2) 0.86663(17)
C1 C 0.9203(2) 0.4070(3) 0.8403(2)
H1 H 0.9487 0.3761 0.7757
Cl2 Cl 0.77520(3) 0.22481(8) 0.5834
N3 N 0.50234(23) 0.0047(2) 0.7500
N4 N 0.79253(17) 0.43063(26) 0.96670(17)
N5 N 0.56937(26) 0.3619(2) 0.63337(17)
C2 C 0.9203(2) 0.5133(4) 0.9930(2)
Cd1_2 Cd 0.771444(18) 0.385722(20) 0.4167
N1_2 N 0.49764(12) 0.50234(23) 0.5834
N2_2 N 0.6381(2) 0.43063(26) 0.53330(17)
C1_2 C 0.5930(3) 0.5133(4) 0.5070(2)
H1_2 H 0.6239 0.5726 0.4424
Cd3_2 Cd 0.385722(20) 0.614278(27) 0.5833
Cl2_2 Cl 0.77519(8) 0.55039(9) 0.2500
N3_2 N 0.9953(2) 0.49764(30) 0.4167
N5_2 N 0.6381(2) 0.20747(33) 0.30004(17)
C2_2 C 0.4867(4) 0.4070(4) 0.6597(2)
H2_2 H 0.4274 0.3761 0.7243
N2_3 N 0.56937(26) 0.20747(17) 0.19996(17)
C1_3 C 0.4867(4) 0.0797(2) 0.1736(2)
H1_3 H 0.4274 0.0513 0.1090
N3_3 N 0.50236(30) 0.49766(23) 0.0834
C2_3 C 0.5930(4) 0.0797(2) 0.3264(2)
H2_3 H 0.6239 0.0513 0.3910
N1_3 N 0.49766(23) 0.9953(2) 0.2500
Cd3_3 Cd 0.385722(27) 0.771444(18) 0.2500
Cl1_2 Cl 0.55039(7) 0.77520(3) 0.4167
N2_4 N 0.20747(17) 0.6381(2) 0.36663(17)
C1_4 C 0.0797(2) 0.5930(3) 0.3403(2)
H1_4 H 0.0513 0.6239 0.2757
Cl2_3 Cl 0.22480(3) 0.77519(8) 0.0834
N4_2 N 0.20747(17) 0.56937(26) 0.46670(17)
N5_3 N 0.43063(26) 0.6381(2) 0.13337(17)
C2_4 C 0.0797(2) 0.4867(4) 0.4930(2)
H2_4 H 0.0513 0.4274 0.5576
N2_5 N 0.3619(2) 0.56937(26) 0.03330(17)
C1_5 C 0.4070(3) 0.4867(4) 0.0070(2)
C2_5 C 0.5133(4) 0.5930(4) 0.1597(2)
H2_5 H 0.5726 0.6239 0.2243
H1_5 H 0.3761 0.4274 0.9424
Cl2_4 Cl 0.22481(8) 0.44961(9) 0.7500
N5_4 N 0.3619(2) 0.79253(33) 0.80004(17)
N2_6 N 0.43063(26) 0.79253(17) 0.69996(17)
C1_6 C 0.5133(4) 0.9203(2) 0.6736(2)
H1_6 H 0.5726 0.9487 0.6090
C2_6 C 0.4070(4) 0.9203(2) 0.8264(2)
H2_6 H 0.3761 0.9487 0.8910
loop_
_geom_bond_atom_site_label_1
_geom_bond_atom_site_label_2
_geom_bond_site_symmetry_1
_geom_bond_site_symmetry_2
Cd3 N1 1_555 1_555
Cd1 Cl1 1_555 1_555
N2 Cd1 1_555 1_555
C1 N2 1_555 1_555
H1 C1 1_555 1_555
Cl2 Cd1 1_555 1_555
N3 Cd1 1_555 1_555
N4 N2 1_555 1_555
N5 Cd1 1_555 1_555
N4 C2 1_555 1_555
Cd1_2 Cl2 1_555 1_555
N1_2 C1_2 1_555 1_555
N2_2 Cd1_2 1_555 1_555
C1_2 N2_2 1_555 1_555
H1_2 C1_2 1_555 1_555
Cd3_2 N1_2 1_555 1_555
Cl2_2 Cd1_2 1_555 1_555
N3_2 Cd1_2 1_555 1_555
N5 N2_2 1_555 1_555
N5_2 Cd1_2 1_555 1_555
C2_2 N1_2 1_555 1_555
H2_2 C2_2 1_555 1_555
N5 C2_2 1_555 1_555
Cd2 Cl2_2 1_555 1_555
N2_3 Cd2 1_555 1_555
C1_3 N2_3 1_555 1_555
H1_3 C1_3 1_555 1_555
N3_3 Cd2 1_555 1_555
N5_2 N2_3 1_555 1_555
H2_3 C2_3 1_555 1_555
N5_2 C2_3 1_555 1_555
Cd3_3 N1_3 1_555 1_555
Cd3_3 Cl1_2 1_555 1_555
Cl1_2 Cd3_2 1_555 1_555
N2_4 Cd3_3 1_555 1_555
C1_4 N2_4 1_555 1_555
H1_4 C1_4 1_555 1_555
Cd3_2 N4_2 1_555 1_555
Cl2_3 Cd3_3 1_555 1_555
N4_2 N2_4 1_555 1_555
N5_3 Cd3_3 1_555 1_555
H2_4 C2_4 1_555 1_555
N4_2 C2_4 1_555 1_555
N3_3 C1_5 1_555 1_555
C1_5 N2_5 1_555 1_555
N5_3 N2_5 1_555 1_555
C2_5 N3_3 1_555 1_555
H2_5 C2_5 1_555 1_555
N5_3 C2_5 1_555 1_555
Cl2_4 Cd3 1_555 1_555
N5_4 Cd3 1_555 1_555
Cd3_2 Cl2_4 1_555 1_555
N2_6 Cd3_2 1_555 1_555
C1_6 N2_6 1_555 1_555
H1_6 C1_6 1_555 1_555
N5_4 N2_6 1_555 1_555
H2_6 C2_6 1_555 1_555
N5_4 C2_6 1_555 1_555

#END
