
###############################################################################
#
# This file contains modified crystal structure data generated from the
# MOF subset of the Cambridge Structural Database (CSD) v543 
# hosted by the Cambridge Crystallographic Data Centre (CCDC).
#
# This work is licensed under the Creative Commons
# Attribution-NonCommercial-ShareAlike 4.0 International License.
# To view a copy of this license, visit
# http://creativecommons.org/licenses/by-nc-sa/4.0/
# or send a letter to
# Creative Commons, PO Box 1866, Mountain View, CA 94042, USA.
#
# CIF created using the CSD Python API on 29 September 2022
# The structure has been converted into the P1 space group
# The structure has a 3D framework
# The original CSD entry AVESOL is in the monoclinic crystal system
# The framework has been calculated to contain at least 10.0% void space
# The void calculation uses a probe of radius 1.32A, grid spacing 0.4
#
###############################################################################

data_AVESOL
_chemical_formula_moiety         '(C92 H44 O40 Zn8)n'
_symmetry_cell_setting           triclinic
_symmetry_space_group_name_H-M   'P 1'
_symmetry_Int_Tables_number      1
_space_group_name_Hall           'P 1'
loop_
_symmetry_equiv_pos_site_id
_symmetry_equiv_pos_as_xyz
1 x,y,z
_cell_length_a                   16.1475(14)
_cell_length_b                   12.5160(11)
_cell_length_c                   19.8687(17)
_cell_angle_alpha                90
_cell_angle_beta                 93.3210(10)
_cell_angle_gamma                90
_cell_volume                     4008.76
loop_
_atom_site_label
_atom_site_type_symbol
_atom_site_fract_x
_atom_site_fract_y
_atom_site_fract_z
Zn1 Zn 0.14325(2) 0.56476(3) 0.21031(2)
O3 O 0.05290(17) 0.6138(2) 0.28492(17)
O4 O 0.04441(17) 0.4598(2) 0.23531(16)
O11 O 0.0660(3) 0.6290(3) 0.1261(2)
H1 H 0.0869 0.5898 0.0965
H2 H 0.0256 0.5936 0.1403
C8 C 0.0169(2) 0.5269(3) 0.2754(2)
O12 O 0.18929(17) 0.4635(2) 0.14305(16)
O14 O 0.1887(2) 0.7137(2) 0.21257(19)
O16 O 0.22974(16) 0.5170(2) 0.28206(14)
O1 O 0.70104(15) 0.01174(18) 0.41160(13)
Zn2 Zn 0.66581(2) 0.12584(3) 0.34604(2)
Zn4 Zn 0.85675(2) 0.06476(3) 0.28969(2)
O13 O 0.73383(15) 0.25219(19) 0.36859(16)
O15 O 0.64983(15) 0.0347(2) 0.26605(13)
O17 O 0.55801(14) 0.1650(2) 0.38218(14)
O18 O 0.56583(17) 0.2599(3) 0.29059(15)
O2 O 0.81071(17) 0.9635(2) 0.35695(16)
O6 O 0.8113(2) 0.2137(2) 0.28743(19)
O7 O 0.64983(15) 0.4653(2) 0.76605(13)
O8 O 0.77026(16) 0.4830(2) 0.71794(14)
O9 O 0.44199(14) 0.8350(2) 0.61782(14)
O10 O 0.43417(17) 0.7401(3) 0.70941(15)
C1 C 0.7552(2) 0.9454(3) 0.39676(18)
C2 C 0.7544(2) 0.8365(3) 0.42671(17)
C3 C 0.7951(2) 0.7547(3) 0.39656(18)
H3 H 0.8263 0.7701 0.3599
C4 C 0.7912(2) 0.6509(2) 0.41876(17)
C5 C 0.74759(19) 0.6302(3) 0.47567(17)
H4 H 0.7453 0.5606 0.4919
C6 C 0.70746(19) 0.7108(3) 0.50876(17)
C7 C 0.7098(2) 0.8139(3) 0.48323(17)
H5 H 0.6815 0.8684 0.5039
C9 C 0.7902(3) 0.2737(3) 0.3328(2)
C10 C 0.9403(2) 0.5020(3) 0.31111(18)
C11 C 0.9032(2) 0.4034(3) 0.30564(19)
H6 H 0.9259 0.3507 0.2793
C12 C 0.8313(2) 0.3820(3) 0.33958(18)
C13 C 0.7964(2) 0.4621(3) 0.37702(17)
H7 H 0.7486 0.4480 0.3994
C14 C 0.8318(2) 0.5626(2) 0.38143(17)
C15 C 0.9047(2) 0.5819(3) 0.34899(18)
H8 H 0.9298 0.6487 0.3526
C16 C 0.6954(2) 0.5042(3) 0.72314(18)
C17 C 0.4698(2) 0.7647(3) 0.6583(2)
C18 C 0.6566(2) 0.5827(3) 0.67387(17)
C19 C 0.5828(2) 0.6326(3) 0.68676(18)
H9 H 0.5550 0.6138 0.7247
C20 C 0.5502(2) 0.7103(3) 0.64324(18)
C21 C 0.5904(2) 0.7355(3) 0.58593(18)
H10 H 0.5678 0.7870 0.5565
C22 C 0.6637(2) 0.6856(3) 0.57134(17)
C23 C 0.6963(2) 0.6099(3) 0.61646(17)
H11 H 0.7461 0.5766 0.6079
Zn5 Zn 0.85675(2) 0.43524(3) 0.78969(2)
Zn7 Zn 0.33419(2) 0.87416(3) 0.65396(2)
Zn8 Zn 0.66581(2) 0.37416(3) 0.84604(2)
O1_2 O 0.29896(15) 0.51174(18) 0.08840(13)
C1_2 C 0.2448(2) 0.4454(3) 0.10324(18)
C2_2 C 0.2456(2) 0.3365(3) 0.07329(17)
C3_2 C 0.2049(2) 0.2547(3) 0.10344(18)
H3_2 H 0.1737 0.2701 0.1401
C4_2 C 0.2088(2) 0.1509(2) 0.08124(17)
C5_2 C 0.25241(19) 0.1302(3) 0.02433(17)
H4_2 H 0.2547 0.0606 0.0081
C7_2 C 0.2902(2) 0.3139(3) 0.01677(17)
C10_2 C 0.0597(2) 0.0020(3) 0.18889(18)
C14_2 C 0.1682(2) 0.0626(2) 0.11857(17)
C15_2 C 0.0953(2) 0.0819(3) 0.15101(18)
H8_2 H 0.0702 0.1487 0.1474
Zn2_2 Zn 0.33419(2) 0.62584(3) 0.15396(2)
O13_2 O 0.26617(15) 0.75219(19) 0.13141(16)
O15_2 O 0.35017(15) 0.5347(2) 0.23395(13)
O17_2 O 0.44199(14) 0.6650(2) 0.11782(14)
O18_2 O 0.43417(17) 0.7599(3) 0.20941(15)
O9_2 O 0.55801(14) 0.3350(2) 0.88218(14)
O10_2 O 0.56583(17) 0.2401(3) 0.79059(15)
C6_2 C 0.29254(19) 0.2108(3) 0.99124(17)
H5_2 H 0.3185 0.3684 0.9961
C16_2 C 0.3046(2) 0.0042(3) 0.77686(18)
C17_2 C 0.5302(2) 0.2647(3) 0.8417(2)
C18_2 C 0.3434(2) 0.0827(3) 0.82613(17)
C19_2 C 0.4172(2) 0.1326(3) 0.81324(18)
H9_2 H 0.4450 0.1138 0.7753
C20_2 C 0.4498(2) 0.2103(3) 0.85676(18)
C21_2 C 0.4096(2) 0.2355(3) 0.91407(18)
H10_2 H 0.4322 0.2870 0.9435
C22_2 C 0.3363(2) 0.1856(3) 0.92866(17)
C23_2 C 0.3037(2) 0.1099(3) 0.88354(17)
H11_2 H 0.2539 0.0766 0.8921
C9_2 C 0.2098(3) 0.7737(3) 0.1672(2)
C11_2 C 0.0968(2) 0.9034(3) 0.19436(19)
H6_2 H 0.0741 0.8507 0.2207
C12_2 C 0.1687(2) 0.8820(3) 0.16042(18)
C13_2 C 0.2036(2) 0.9621(3) 0.12298(17)
H7_2 H 0.2514 0.9480 0.1006
O7_2 O 0.35017(15) 0.9653(2) 0.73395(13)
O8_2 O 0.22974(16) 0.9830(2) 0.78206(14)
Zn5_2 Zn 0.14325(2) 0.93524(3) 0.71031(2)
O3_2 O 0.94710(17) 0.1138(2) 0.21508(17)
O11_2 O 0.9340(3) 0.1290(3) 0.3739(2)
H1_2 H 0.9131 0.0898 0.4035
H2_2 H 0.9744 0.0936 0.3597
C8_2 C 0.9831(2) 0.0269(3) 0.2246(2)
O16_2 O 0.77026(16) 0.0170(2) 0.21794(14)
O4_2 O 0.95559(17) 0.9598(2) 0.26469(16)
O2_2 O 0.18929(17) 0.0365(2) 0.64305(16)
O5 O 0.26617(15) 0.74781(19) 0.63141(16)
O6_2 O 0.1887(2) 0.7863(2) 0.71257(19)
C1_3 C 0.2448(2) 0.0546(3) 0.60324(18)
C2_3 C 0.2456(2) 0.1635(3) 0.57329(17)
C3_3 C 0.2049(2) 0.2453(3) 0.60344(18)
H3_3 H 0.1737 0.2299 0.6401
C4_3 C 0.2088(2) 0.3491(2) 0.58124(17)
C5_3 C 0.25241(19) 0.3698(3) 0.52433(17)
H4_3 H 0.2547 0.4394 0.5081
C6_3 C 0.29254(19) 0.2892(3) 0.49124(17)
C7_3 C 0.2902(2) 0.1861(3) 0.51677(17)
H5_3 H 0.3185 0.1316 0.4961
C9_3 C 0.2098(3) 0.7263(3) 0.6672(2)
C10_3 C 0.0597(2) 0.4980(3) 0.68889(18)
C11_3 C 0.0968(2) 0.5966(3) 0.69436(19)
H6_3 H 0.0741 0.6493 0.7207
C12_3 C 0.1687(2) 0.6180(3) 0.66042(18)
C13_3 C 0.2036(2) 0.5379(3) 0.62298(17)
H7_3 H 0.2514 0.5520 0.6006
C14_3 C 0.1682(2) 0.4374(2) 0.61857(17)
C15_3 C 0.0953(2) 0.4181(3) 0.65101(18)
H8_3 H 0.0702 0.3513 0.6474
C16_3 C 0.3046(2) 0.4958(3) 0.27686(18)
C17_3 C 0.5302(2) 0.2353(3) 0.3417(2)
C18_3 C 0.3434(2) 0.4173(3) 0.32613(17)
C19_3 C 0.4172(2) 0.3674(3) 0.31324(18)
H9_3 H 0.4450 0.3862 0.2753
C20_3 C 0.4498(2) 0.2897(3) 0.35676(18)
C21_3 C 0.4096(2) 0.2645(3) 0.41407(18)
H10_3 H 0.4322 0.2130 0.4435
C22_3 C 0.3363(2) 0.3144(3) 0.42866(17)
C23_3 C 0.3037(2) 0.3901(3) 0.38354(17)
H11_3 H 0.2539 0.4234 0.3921
O1_3 O 0.29896(15) 0.98826(18) 0.58840(13)
O3_3 O 0.94710(17) 0.3862(2) 0.71508(17)
O4_3 O 0.95559(17) 0.5402(2) 0.76469(16)
O11_3 O 0.9340(3) 0.3710(3) 0.8739(2)
H1_3 H 0.9131 0.4102 0.9035
H2_3 H 0.9744 0.4064 0.8597
C8_3 C 0.9831(2) 0.4731(3) 0.7246(2)
O12_2 O 0.81071(17) 0.5365(2) 0.85695(16)
O14_2 O 0.8113(2) 0.2863(2) 0.78743(19)
O4_4 O 0.04441(17) 0.0402(2) 0.73531(16)
O3_4 O 0.05290(17) 0.8862(2) 0.78492(17)
O11_4 O 0.0660(3) 0.8710(3) 0.6261(2)
H1_4 H 0.0869 0.9102 0.5965
H2_4 H 0.0256 0.9064 0.6403
C8_4 C 0.0169(2) 0.9731(3) 0.7754(2)
O5_2 O 0.73383(15) 0.24781(19) 0.86859(16)
C9_4 C 0.7902(3) 0.2263(3) 0.8328(2)
C11_4 C 0.9032(2) 0.0966(3) 0.80564(19)
H6_4 H 0.9259 0.1493 0.7793
C12_4 C 0.8313(2) 0.1180(3) 0.83958(18)
C13_4 C 0.7964(2) 0.0379(3) 0.87702(17)
H7_4 H 0.7486 0.0520 0.8994
C6_4 C 0.70746(19) 0.7892(3) 0.00876(17)
H5_4 H 0.6815 0.6316 0.0039
C16_4 C 0.6954(2) 0.9958(3) 0.22314(18)
C17_4 C 0.4698(2) 0.7353(3) 0.1583(2)
C18_4 C 0.6566(2) 0.9173(3) 0.17387(17)
C19_4 C 0.5828(2) 0.8674(3) 0.18676(18)
H9_4 H 0.5550 0.8862 0.2247
C20_4 C 0.5502(2) 0.7897(3) 0.14324(18)
C21_4 C 0.5904(2) 0.7645(3) 0.08593(18)
H10_4 H 0.5678 0.7130 0.0565
C22_4 C 0.6637(2) 0.8144(3) 0.07134(17)
C23_4 C 0.6963(2) 0.8901(3) 0.11646(17)
H11_4 H 0.7461 0.9234 0.1079
O1_4 O 0.70104(15) 0.48826(18) 0.91160(13)
C1_4 C 0.7552(2) 0.5546(3) 0.89676(18)
C2_4 C 0.7544(2) 0.6635(3) 0.92671(17)
C3_4 C 0.7951(2) 0.7453(3) 0.89656(18)
H3_4 H 0.8263 0.7299 0.8599
C4_4 C 0.7912(2) 0.8491(2) 0.91876(17)
C5_4 C 0.74759(19) 0.8698(3) 0.97567(17)
H4_4 H 0.7453 0.9394 0.9919
C7_4 C 0.7098(2) 0.6861(3) 0.98323(17)
C10_4 C 0.9403(2) 0.9980(3) 0.81111(18)
C14_4 C 0.8318(2) 0.9374(2) 0.88143(17)
C15_4 C 0.9047(2) 0.9181(3) 0.84899(18)
H8_4 H 0.9298 0.8513 0.8526
loop_
_geom_bond_atom_site_label_1
_geom_bond_atom_site_label_2
_geom_bond_site_symmetry_1
_geom_bond_site_symmetry_2
Zn1 O3 1_555 1_555
O3 C8 1_555 1_555
O4 Zn1 1_555 1_555
O11 Zn1 1_555 1_555
H1 O11 1_555 1_555
H2 O11 1_555 1_555
C8 O4 1_555 1_555
O12 Zn1 1_555 1_555
O14 Zn1 1_555 1_555
O16 Zn1 1_555 1_555
Zn2 O1 1_555 1_555
O13 Zn2 1_555 1_555
O15 Zn2 1_555 1_555
O17 Zn2 1_555 1_555
O18 Zn2 1_555 1_555
O2 C1 1_555 1_555
O13 C9 1_555 1_555
O6 C9 1_555 1_555
O7 C16 1_555 1_555
O8 C16 1_555 1_555
O9 C17 1_555 1_555
O10 C17 1_555 1_555
C1 C2 1_555 1_555
C2 C3 1_555 1_555
C3 H3 1_555 1_555
C4 C3 1_555 1_555
C5 C4 1_555 1_555
H4 C5 1_555 1_555
C6 C5 1_555 1_555
C7 C2 1_555 1_555
H5 C7 1_555 1_555
C9 C12 1_555 1_555
C11 C10 1_555 1_555
H6 C11 1_555 1_555
C12 C11 1_555 1_555
C13 C12 1_555 1_555
H7 C13 1_555 1_555
C14 C4 1_555 1_555
C15 C10 1_555 1_555
H8 C15 1_555 1_555
C16 C18 1_555 1_555
C17 C20 1_555 1_555
C18 C19 1_555 1_555
C19 H9 1_555 1_555
C20 C19 1_555 1_555
C21 C20 1_555 1_555
H10 C21 1_555 1_555
C22 C6 1_555 1_555
C23 C18 1_555 1_555
H11 C23 1_555 1_555
Zn4 O6 1_555 1_555
Zn5 O8 1_555 1_555
Zn7 O9 1_555 1_555
Zn8 O7 1_555 1_555
O10 Zn7 1_555 1_555
C6 C7 1_555 1_555
C13 C14 1_555 1_555
C14 C15 1_555 1_555
C21 C22 1_555 1_555
C22 C23 1_555 1_555
O1_2 C1_2 1_555 1_555
O12 C1_2 1_555 1_555
C1_2 C2_2 1_555 1_555
C2_2 C3_2 1_555 1_555
C3_2 H3_2 1_555 1_555
C4_2 C3_2 1_555 1_555
C5_2 C4_2 1_555 1_555
H4_2 C5_2 1_555 1_555
C7_2 C2_2 1_555 1_555
C14_2 C4_2 1_555 1_555
C15_2 C10_2 1_555 1_555
H8_2 C15_2 1_555 1_555
Zn2_2 O1_2 1_555 1_555
O13_2 Zn2_2 1_555 1_555
O15_2 Zn2_2 1_555 1_555
O17_2 Zn2_2 1_555 1_555
O18_2 Zn2_2 1_555 1_555
C14_2 C15_2 1_555 1_555
O9_2 C17_2 1_555 1_555
O10_2 C17_2 1_555 1_555
C16_2 C18_2 1_555 1_555
C17_2 C20_2 1_555 1_555
C18_2 C19_2 1_555 1_555
C19_2 H9_2 1_555 1_555
C20_2 C19_2 1_555 1_555
C21_2 C20_2 1_555 1_555
H10_2 C21_2 1_555 1_555
C22_2 C6_2 1_555 1_555
C23_2 C18_2 1_555 1_555
H11_2 C23_2 1_555 1_555
Zn8 O9_2 1_555 1_555
O10_2 Zn8 1_555 1_555
C21_2 C22_2 1_555 1_555
C22_2 C23_2 1_555 1_555
O13_2 C9_2 1_555 1_555
O14 C9_2 1_555 1_555
C9_2 C12_2 1_555 1_555
H6_2 C11_2 1_555 1_555
C12_2 C11_2 1_555 1_555
C13_2 C12_2 1_555 1_555
H7_2 C13_2 1_555 1_555
Zn5_2 O8_2 1_555 1_555
Zn7 O7_2 1_555 1_555
Zn4 O3_2 1_555 1_555
O3_2 C8_2 1_555 1_555
O11_2 Zn4 1_555 1_555
H1_2 O11_2 1_555 1_555
H2_2 O11_2 1_555 1_555
O16_2 Zn4 1_555 1_555
O2_2 C1_3 1_555 1_555
O5 C9_3 1_555 1_555
O6_2 C9_3 1_555 1_555
O15_2 C16_3 1_555 1_555
O16 C16_3 1_555 1_555
O17 C17_3 1_555 1_555
O18 C17_3 1_555 1_555
C1_3 C2_3 1_555 1_555
C2_3 C3_3 1_555 1_555
C3_3 H3_3 1_555 1_555
C4_3 C3_3 1_555 1_555
C5_3 C4_3 1_555 1_555
H4_3 C5_3 1_555 1_555
C6_3 C5_3 1_555 1_555
C7_3 C2_3 1_555 1_555
H5_3 C7_3 1_555 1_555
C9_3 C12_3 1_555 1_555
C11_3 C10_3 1_555 1_555
H6_3 C11_3 1_555 1_555
C12_3 C11_3 1_555 1_555
C13_3 C12_3 1_555 1_555
H7_3 C13_3 1_555 1_555
C14_3 C4_3 1_555 1_555
C15_3 C10_3 1_555 1_555
H8_3 C15_3 1_555 1_555
C16_3 C18_3 1_555 1_555
C17_3 C20_3 1_555 1_555
C18_3 C19_3 1_555 1_555
C19_3 H9_3 1_555 1_555
C20_3 C19_3 1_555 1_555
C21_3 C20_3 1_555 1_555
H10_3 C21_3 1_555 1_555
C22_3 C6_3 1_555 1_555
C23_3 C18_3 1_555 1_555
H11_3 C23_3 1_555 1_555
Zn5_2 O6_2 1_555 1_555
Zn7 O5 1_555 1_555
C6_3 C7_3 1_555 1_555
C13_3 C14_3 1_555 1_555
C14_3 C15_3 1_555 1_555
C21_3 C22_3 1_555 1_555
C22_3 C23_3 1_555 1_555
Zn7 O1_3 1_555 1_555
Zn5 O3_3 1_555 1_555
O3_3 C8_3 1_555 1_555
O4_3 Zn5 1_555 1_555
O11_3 Zn5 1_555 1_555
H1_3 O11_3 1_555 1_555
H2_3 O11_3 1_555 1_555
C8_3 O4_3 1_555 1_555
O12_2 Zn5 1_555 1_555
O14_2 Zn5 1_555 1_555
Zn5_2 O3_4 1_555 1_555
O3_4 C8_4 1_555 1_555
O11_4 Zn5_2 1_555 1_555
H1_4 O11_4 1_555 1_555
H2_4 O11_4 1_555 1_555
O5_2 C9_4 1_555 1_555
O14_2 C9_4 1_555 1_555
C9_4 C12_4 1_555 1_555
H6_4 C11_4 1_555 1_555
C12_4 C11_4 1_555 1_555
C13_4 C12_4 1_555 1_555
H7_4 C13_4 1_555 1_555
Zn8 O5_2 1_555 1_555
O17_2 C17_4 1_555 1_555
O18_2 C17_4 1_555 1_555
C16_4 C18_4 1_555 1_555
C17_4 C20_4 1_555 1_555
C18_4 C19_4 1_555 1_555
C19_4 H9_4 1_555 1_555
C20_4 C19_4 1_555 1_555
C21_4 C20_4 1_555 1_555
H10_4 C21_4 1_555 1_555
C22_4 C6_4 1_555 1_555
C23_4 C18_4 1_555 1_555
H11_4 C23_4 1_555 1_555
C21_4 C22_4 1_555 1_555
C22_4 C23_4 1_555 1_555
O1_4 C1_4 1_555 1_555
O12_2 C1_4 1_555 1_555
C1_4 C2_4 1_555 1_555
C2_4 C3_4 1_555 1_555
C3_4 H3_4 1_555 1_555
C4_4 C3_4 1_555 1_555
C5_4 C4_4 1_555 1_555
H4_4 C5_4 1_555 1_555
C7_4 C2_4 1_555 1_555
C14_4 C4_4 1_555 1_555
C15_4 C10_4 1_555 1_555
H8_4 C15_4 1_555 1_555
Zn8 O1_4 1_555 1_555
C14_4 C15_4 1_555 1_555

#END
