
###############################################################################
#
# This file contains modified crystal structure data generated from the
# MOF subset of the Cambridge Structural Database (CSD) v543 
# hosted by the Cambridge Crystallographic Data Centre (CCDC).
#
# This work is licensed under the Creative Commons
# Attribution-NonCommercial-ShareAlike 4.0 International License.
# To view a copy of this license, visit
# http://creativecommons.org/licenses/by-nc-sa/4.0/
# or send a letter to
# Creative Commons, PO Box 1866, Mountain View, CA 94042, USA.
#
# CIF created using the CSD Python API on 29 September 2022
# The structure has been converted into the P1 space group
# The structure has a 3D framework
# The original CSD entry AVETEC01 is in the tetragonal crystal system
# The framework has been calculated to contain at least 10.0% void space
# The void calculation uses a probe of radius 1.32A, grid spacing 0.4
# The framework is charged, counterions have been retained in the structure
#
###############################################################################

data_AVETEC01
_chemical_formula_moiety         '(C192 H64 Cd14 O86 11-)n'
_symmetry_cell_setting           triclinic
_symmetry_space_group_name_H-M   'P 1'
_symmetry_Int_Tables_number      1
_space_group_name_Hall           'P 1'
loop_
_symmetry_equiv_pos_site_id
_symmetry_equiv_pos_as_xyz
1 x,y,z
_cell_length_a                   29.3089(4)
_cell_length_b                   29.3089(4)
_cell_length_c                   9.2709(3)
_cell_angle_alpha                90
_cell_angle_beta                 90
_cell_angle_gamma                90
_cell_volume                     7963.81
loop_
_atom_site_label
_atom_site_type_symbol
_atom_site_fract_x
_atom_site_fract_y
_atom_site_fract_z
Cd1 Cd 0.0000 0.0000 0.0000
O1 O 0.0122(3) 0.0669(2) 0.0901(11)
C4 C 0.0221(3) 0.1574(3) 0.1680(9)
C6 C 0.0246(3) 0.2031(3) 0.2024(10)
H2 H 0.0449 0.1439 0.1129
C9 C 0.0669(3) 0.2292(3) 0.1591(9)
C10 C 0.1078(3) 0.2099(3) 0.1991(11)
H4 H 0.1077 0.1828 0.2512
C11 C 0.1502(3) 0.2305(3) 0.1625(11)
C12 C 0.1914(3) 0.2094(3) 0.2144(13)
O6 O 0.2278(5) 0.2088(10) 0.144(2)
C22 C 0.0669(3) 0.2708(3) 0.0909(9)
C25 C 0.0246(3) 0.2969(3) 0.0476(10)
C26 C 0.1078(3) 0.2901(3) 0.0509(11)
C30 C 0.1502(3) 0.2695(3) 0.0875(11)
C32 C 0.0221(3) 0.3426(3) 0.0820(9)
O20 O 0.1933(5) 0.1698(5) 0.263(3)
C37 C 0.1914(3) 0.2906(3) 0.0356(13)
H12 H 0.0449 0.3561 0.1371
Cd4 Cd 0.2500 0.14475(2) 0.3750
O24 O 0.2278(5) 0.2912(10) 0.106(2)
O29 O 0.0122(3) 0.4331(2) 0.1599(11)
Cd10 Cd 0.0000 0.5000 0.2500
Cd1_2 Cd 0.0000 0.0000 1.0000
H9 H 0.1077 0.3172 0.9988
O23 O 0.1933(5) 0.3302(5) 0.987(3)
Cd8 Cd 0.2500 0.35525(2) 0.8750
Cd1_3 Cd 0.0000 1.0000 0.0000
C13 C 0.0179(3) 0.9176(3) 0.1786(14)
O10 O 0.0475(5) 0.9438(3) 0.2297(17)
C14 C 0.0147(3) 0.8687(3) 0.2156(10)
C15 C 0.0495(3) 0.8480(3) 0.3002(10)
C17 C 0.0465(3) 0.8033(3) 0.3339(8)
H5 H 0.0741 0.8653 0.3322
C19 C 0.0090(3) 0.7768(3) 0.2874(9)
C20 C 0.0810(3) 0.7807(3) 0.4288(9)
H7 H 0.0067 0.7462 0.3133
O11 O 0.1103(2) 0.8053(2) 0.4860(9)
O12 O 0.0773(3) 0.7403(3) 0.4591(10)
Cd3 Cd 0.14475(2) 0.7500 0.6250
O16 O 0.1103(2) 0.6947(2) 0.7640(9)
O17 O 0.0773(3) 0.7597(3) 0.7909(10)
O18 O 0.1698(5) 0.8067(5) 0.737(3)
O19 O 0.1698(5) 0.6933(5) 0.513(3)
C42 C 0.0147(3) 0.6313(3) 0.0344(10)
C48 C 0.0179(3) 0.5824(3) 0.0714(14)
O34 O 0.0475(5) 0.5562(3) 0.0203(17)
Cd1_4 Cd -0.0000 1.0000 1.0000
O8 O 0.0669(2) 0.9878(3) 0.9099(11)
C35 C 0.0090(3) 0.7232(3) 0.9626(9)
H13 H 0.0067 0.7538 0.9367
C41 C 0.0465(3) 0.6967(3) 0.9161(8)
C46 C 0.0495(3) 0.6520(3) 0.9498(10)
C47 C 0.0810(3) 0.7193(3) 0.8212(9)
H16 H 0.0741 0.6347 0.9178
Cd1_5 Cd 1.0000 0.0000 0.0000
C1 C 0.9821(3) 0.0824(3) 0.1786(14)
O2 O 0.9525(5) 0.0562(3) 0.2297(17)
C2 C 0.9853(3) 0.1313(3) 0.2156(10)
C3 C 0.9505(3) 0.1520(3) 0.3002(10)
C5 C 0.9535(3) 0.1967(3) 0.3339(8)
H1 H 0.9259 0.1347 0.3322
C7 C 0.9910(3) 0.2232(3) 0.2874(9)
C8 C 0.9190(3) 0.2193(3) 0.4288(9)
H3 H 0.9933 0.2538 0.3133
O3 O 0.8897(2) 0.1947(2) 0.4860(9)
O4 O 0.9227(3) 0.2597(3) 0.4591(10)
Cd2 Cd 0.85525(2) 0.2500 0.6250
O5 O 0.8302(5) 0.1933(5) 0.737(3)
O13 O 0.8897(2) 0.3053(2) 0.7640(9)
O14 O 0.9227(3) 0.2403(3) 0.7909(10)
O15 O 0.8302(5) 0.3067(5) 0.513(3)
C39 C 0.9853(3) 0.3687(3) 0.0344(10)
C45 C 0.9821(3) 0.4176(3) 0.0714(14)
O30 O 0.9525(5) 0.4438(3) 0.0203(17)
Cd10_2 Cd 1.0000 0.5000 0.2500
Cd1_6 Cd 1.0000 0.0000 1.0000
O9 O 0.9331(2) 0.0122(3) 0.9099(11)
C31 C 0.9910(3) 0.2768(3) 0.9626(9)
H11 H 0.9933 0.2462 0.9367
C38 C 0.9535(3) 0.3033(3) 0.9161(8)
C43 C 0.9505(3) 0.3480(3) 0.9498(10)
C44 C 0.9190(3) 0.2807(3) 0.8212(9)
H15 H 0.9259 0.3653 0.9178
Cd1_7 Cd 1.0000 1.0000 0.0000
O7 O 0.9878(3) 0.9331(2) 0.0901(11)
C16 C 0.9779(3) 0.8426(3) 0.1680(9)
C18 C 0.9754(3) 0.7969(3) 0.2024(10)
H6 H 0.9551 0.8561 0.1129
C21 C 0.9331(3) 0.7708(3) 0.1591(9)
C23 C 0.8922(3) 0.7901(3) 0.1991(11)
C24 C 0.9331(3) 0.7292(3) 0.0909(9)
H8 H 0.8923 0.8172 0.2512
C27 C 0.8498(3) 0.7695(3) 0.1625(11)
C28 C 0.9754(3) 0.7031(3) 0.0476(10)
C29 C 0.8922(3) 0.7099(3) 0.0509(11)
C33 C 0.8086(3) 0.7906(3) 0.2144(13)
C34 C 0.8498(3) 0.7305(3) 0.0875(11)
C36 C 0.9779(3) 0.6574(3) 0.0820(9)
O21 O 0.8067(5) 0.8302(5) 0.263(3)
O22 O 0.7722(5) 0.7912(10) 0.144(2)
C40 C 0.8086(3) 0.7094(3) 0.0356(13)
H14 H 0.9551 0.6439 0.1371
Cd5 Cd 0.7500 0.85525(2) 0.3750
O26 O 0.7722(5) 0.7088(10) 0.106(2)
O33 O 0.9878(3) 0.5669(2) 0.1599(11)
Cd1_8 Cd 1.0000 1.0000 1.0000
H10 H 0.8923 0.6828 0.9988
O25 O 0.8067(5) 0.6698(5) 0.987(3)
Cd9 Cd 0.7500 0.64475(2) 0.8750
C31_2 C 0.2768(3) 0.0090(3) 0.0374(9)
H11_2 H 0.2462 0.0067 0.0633
C38_2 C 0.3033(3) 0.0465(3) 0.0839(8)
C43_2 C 0.3480(3) 0.0495(3) 0.0502(10)
C44_2 C 0.2807(3) 0.0810(3) 0.1788(9)
H15_2 H 0.3653 0.0741 0.0822
O27 O 0.3053(2) 0.1103(2) 0.2360(9)
O28 O 0.2403(3) 0.0773(3) 0.2091(10)
C1_2 C 0.0824(3) 0.0179(3) 0.8214(14)
O2_2 O 0.0562(3) 0.0475(5) 0.7703(17)
C2_2 C 0.1313(3) 0.0147(3) 0.7844(10)
C3_2 C 0.1520(3) 0.0495(3) 0.6998(10)
C5_2 C 0.1967(3) 0.0465(3) 0.6661(8)
H1_2 H 0.1347 0.0741 0.6678
C7_2 C 0.2232(3) 0.0090(3) 0.7126(9)
C8_2 C 0.2193(3) 0.0810(3) 0.5712(9)
H3_2 H 0.2538 0.0067 0.6867
O3_2 O 0.1947(2) 0.1103(2) 0.5140(9)
O4_2 O 0.2597(3) 0.0773(3) 0.5409(10)
O15_2 O 0.3067(5) 0.1698(5) 0.487(3)
C39_2 C 0.3687(3) 0.0147(3) 0.9656(10)
C45_2 C 0.4176(3) 0.0179(3) 0.9286(14)
O30_2 O 0.4438(3) 0.0475(5) 0.9797(17)
Cd10_3 Cd 0.5000 0.0000 0.7500
H9_2 H 0.3172 0.8923 0.0012
O23_2 O 0.3302(5) 0.8067(5) 0.013(3)
Cd8_2 Cd 0.35525(2) 0.7500 0.1250
C4_2 C 0.1574(3) 0.9779(3) 0.8320(9)
C6_2 C 0.2031(3) 0.9754(3) 0.7976(10)
H2_2 H 0.1439 0.9551 0.8871
C9_2 C 0.2292(3) 0.9331(3) 0.8409(9)
C10_2 C 0.2099(3) 0.8922(3) 0.8009(11)
H4_2 H 0.1828 0.8923 0.7488
C11_2 C 0.2305(3) 0.8498(3) 0.8375(11)
C12_2 C 0.2094(3) 0.8086(3) 0.7856(13)
O6_2 O 0.2088(10) 0.7722(5) 0.856(2)
C22_2 C 0.2708(3) 0.9331(3) 0.9091(9)
C25_2 C 0.2969(3) 0.9754(3) 0.9524(10)
C26_2 C 0.2901(3) 0.8922(3) 0.9491(11)
C30_2 C 0.2695(3) 0.8498(3) 0.9125(11)
C32_2 C 0.3426(3) 0.9779(3) 0.9180(9)
C37_2 C 0.2906(3) 0.8086(3) 0.9644(13)
H12_2 H 0.3561 0.9551 0.8629
O24_2 O 0.2912(10) 0.7722(5) 0.894(2)
O29_2 O 0.4331(2) 0.9878(3) 0.8401(11)
Cd10_4 Cd 0.5000 1.0000 0.7500
H10_2 H 0.6828 0.1077 0.0012
O25_2 O 0.6698(5) 0.1933(5) 0.013(3)
Cd9_2 Cd 0.64475(2) 0.2500 0.1250
C16_2 C 0.8426(3) 0.0221(3) 0.8320(9)
C18_2 C 0.7969(3) 0.0246(3) 0.7976(10)
H6_2 H 0.8561 0.0449 0.8871
C21_2 C 0.7708(3) 0.0669(3) 0.8409(9)
C23_2 C 0.7901(3) 0.1078(3) 0.8009(11)
C24_2 C 0.7292(3) 0.0669(3) 0.9091(9)
H8_2 H 0.8172 0.1077 0.7488
C27_2 C 0.7695(3) 0.1502(3) 0.8375(11)
C28_2 C 0.7031(3) 0.0246(3) 0.9524(10)
C29_2 C 0.7099(3) 0.1078(3) 0.9491(11)
C33_2 C 0.7906(3) 0.1914(3) 0.7856(13)
C34_2 C 0.7305(3) 0.1502(3) 0.9125(11)
C36_2 C 0.6574(3) 0.0221(3) 0.9180(9)
O22_2 O 0.7912(10) 0.2278(5) 0.856(2)
C40_2 C 0.7094(3) 0.1914(3) 0.9644(13)
H14_2 H 0.6439 0.0449 0.8629
O26_2 O 0.7088(10) 0.2278(5) 0.894(2)
O33_2 O 0.5669(2) 0.0122(3) 0.8401(11)
C35_2 C 0.7232(3) 0.9910(3) 0.0374(9)
H13_2 H 0.7538 0.9933 0.0633
C41_2 C 0.6967(3) 0.9535(3) 0.0839(8)
C46_2 C 0.6520(3) 0.9505(3) 0.0502(10)
C47_2 C 0.7193(3) 0.9190(3) 0.1788(9)
H16_2 H 0.6347 0.9259 0.0822
O31 O 0.6947(2) 0.8897(2) 0.2360(9)
O32 O 0.7597(3) 0.9227(3) 0.2091(10)
C13_2 C 0.9176(3) 0.9821(3) 0.8214(14)
O10_2 O 0.9438(3) 0.9525(5) 0.7703(17)
C14_2 C 0.8687(3) 0.9853(3) 0.7844(10)
C15_2 C 0.8480(3) 0.9505(3) 0.6998(10)
C17_2 C 0.8033(3) 0.9535(3) 0.6661(8)
H5_2 H 0.8653 0.9259 0.6678
C19_2 C 0.7768(3) 0.9910(3) 0.7126(9)
C20_2 C 0.7807(3) 0.9190(3) 0.5712(9)
H7_2 H 0.7462 0.9933 0.6867
O11_2 O 0.8053(2) 0.8897(2) 0.5140(9)
O12_2 O 0.7403(3) 0.9227(3) 0.5409(10)
O19_2 O 0.6933(5) 0.8302(5) 0.487(3)
C42_2 C 0.6313(3) 0.9853(3) 0.9656(10)
C48_2 C 0.5824(3) 0.9821(3) 0.9286(14)
O34_2 O 0.5562(3) 0.9525(5) 0.9797(17)
O1_2 O 0.4878(3) 0.0669(2) 0.6599(11)
C1_3 C 0.5179(3) 0.0824(3) 0.5714(14)
O2_3 O 0.5475(5) 0.0562(3) 0.5203(17)
C2_3 C 0.5147(3) 0.1313(3) 0.5344(10)
C3_3 C 0.5495(3) 0.1520(3) 0.4498(10)
C4_3 C 0.4779(3) 0.1574(3) 0.5820(9)
C5_3 C 0.5465(3) 0.1967(3) 0.4161(8)
H1_3 H 0.5741 0.1347 0.4178
C6_3 C 0.4754(3) 0.2031(3) 0.5476(10)
H2_3 H 0.4551 0.1439 0.6371
C7_3 C 0.5090(3) 0.2232(3) 0.4626(9)
C8_3 C 0.5810(3) 0.2193(3) 0.3212(9)
C9_3 C 0.4331(3) 0.2292(3) 0.5909(9)
H3_3 H 0.5067 0.2538 0.4367
O3_3 O 0.6103(2) 0.1947(2) 0.2640(9)
O4_3 O 0.5773(3) 0.2597(3) 0.2909(10)
C10_3 C 0.3922(3) 0.2099(3) 0.5509(11)
H4_3 H 0.3923 0.1828 0.4988
C11_3 C 0.3498(3) 0.2305(3) 0.5875(11)
C12_3 C 0.3086(3) 0.2094(3) 0.5356(13)
O6_3 O 0.2722(5) 0.2088(10) 0.606(2)
C22_3 C 0.4331(3) 0.2708(3) 0.6591(9)
C25_3 C 0.4754(3) 0.2969(3) 0.7024(10)
C26_3 C 0.3922(3) 0.2901(3) 0.6991(11)
O15_3 O 0.6698(5) 0.3067(5) 0.237(3)
C30_3 C 0.3498(3) 0.2695(3) 0.6625(11)
C31_3 C 0.5090(3) 0.2768(3) 0.7874(9)
C32_3 C 0.4779(3) 0.3426(3) 0.6680(9)
H9_3 H 0.3923 0.3172 0.7512
C37_3 C 0.3086(3) 0.2906(3) 0.7144(13)
H11_3 H 0.5067 0.2462 0.8133
C38_3 C 0.5465(3) 0.3033(3) 0.8339(8)
C39_3 C 0.5147(3) 0.3687(3) 0.7156(10)
H12_3 H 0.4551 0.3561 0.6129
O23_3 O 0.3067(5) 0.3302(5) 0.763(3)
O24_3 O 0.2722(5) 0.2912(10) 0.644(2)
C43_3 C 0.5495(3) 0.3480(3) 0.8002(10)
C44_3 C 0.5810(3) 0.2807(3) 0.9288(9)
C45_3 C 0.5179(3) 0.4176(3) 0.6786(14)
H15_3 H 0.5741 0.3653 0.8322
O27_2 O 0.6103(2) 0.3053(2) 0.9860(9)
O28_2 O 0.5773(3) 0.2403(3) 0.9591(10)
O29_3 O 0.4878(3) 0.4331(2) 0.5901(11)
O30_3 O 0.5475(5) 0.4438(3) 0.7297(17)
Cd10_5 Cd 0.5000 0.5000 0.5000
O7_2 O 0.5122(3) 0.9331(2) 0.6599(11)
C13_3 C 0.4821(3) 0.9176(3) 0.5714(14)
O10_3 O 0.4525(5) 0.9438(3) 0.5203(17)
C14_3 C 0.4853(3) 0.8687(3) 0.5344(10)
C15_3 C 0.4505(3) 0.8480(3) 0.4498(10)
C16_3 C 0.5221(3) 0.8426(3) 0.5820(9)
C17_3 C 0.4535(3) 0.8033(3) 0.4161(8)
H5_3 H 0.4259 0.8653 0.4178
C18_3 C 0.5246(3) 0.7969(3) 0.5476(10)
H6_3 H 0.5449 0.8561 0.6371
C19_3 C 0.4910(3) 0.7768(3) 0.4626(9)
C20_3 C 0.4190(3) 0.7807(3) 0.3212(9)
C21_3 C 0.5669(3) 0.7708(3) 0.5909(9)
H7_3 H 0.4933 0.7462 0.4367
O11_3 O 0.3897(2) 0.8053(2) 0.2640(9)
O12_3 O 0.4227(3) 0.7403(3) 0.2909(10)
C23_3 C 0.6078(3) 0.7901(3) 0.5509(11)
C24_3 C 0.5669(3) 0.7292(3) 0.6591(9)
H8_3 H 0.6077 0.8172 0.4988
C27_3 C 0.6502(3) 0.7695(3) 0.5875(11)
C28_3 C 0.5246(3) 0.7031(3) 0.7024(10)
C29_3 C 0.6078(3) 0.7099(3) 0.6991(11)
O19_3 O 0.3302(5) 0.6933(5) 0.237(3)
C33_3 C 0.6914(3) 0.7906(3) 0.5356(13)
C34_3 C 0.6502(3) 0.7305(3) 0.6625(11)
C35_3 C 0.4910(3) 0.7232(3) 0.7874(9)
C36_3 C 0.5221(3) 0.6574(3) 0.6680(9)
H10_3 H 0.6077 0.6828 0.7512
O22_3 O 0.7278(5) 0.7912(10) 0.606(2)
C40_3 C 0.6914(3) 0.7094(3) 0.7144(13)
H13_3 H 0.4933 0.7538 0.8133
C41_3 C 0.4535(3) 0.6967(3) 0.8339(8)
C42_3 C 0.4853(3) 0.6313(3) 0.7156(10)
H14_3 H 0.5449 0.6439 0.6129
O25_3 O 0.6933(5) 0.6698(5) 0.763(3)
O26_3 O 0.7278(5) 0.7088(10) 0.644(2)
C46_3 C 0.4505(3) 0.6520(3) 0.8002(10)
C47_3 C 0.4190(3) 0.7193(3) 0.9288(9)
C48_3 C 0.4821(3) 0.5824(3) 0.6786(14)
H16_3 H 0.4259 0.6347 0.8322
O31_2 O 0.3897(2) 0.6947(2) 0.9860(9)
O32_2 O 0.4227(3) 0.7597(3) 0.9591(10)
O33_3 O 0.5122(3) 0.5669(2) 0.5901(11)
O34_3 O 0.4525(5) 0.5562(3) 0.7297(17)
O8_2 O 0.5669(2) 0.4878(3) 0.4099(11)
O9_2 O 0.4331(2) 0.5122(3) 0.4099(11)
C1_4 C 0.5824(3) 0.5179(3) 0.3214(14)
O2_4 O 0.5562(3) 0.5475(5) 0.2703(17)
C2_4 C 0.6313(3) 0.5147(3) 0.2844(10)
C3_4 C 0.6520(3) 0.5495(3) 0.1998(10)
C4_4 C 0.6574(3) 0.4779(3) 0.3320(9)
C5_4 C 0.6967(3) 0.5465(3) 0.1661(8)
H1_4 H 0.6347 0.5741 0.1678
C6_4 C 0.7031(3) 0.4754(3) 0.2976(10)
H2_4 H 0.6439 0.4551 0.3871
C7_4 C 0.7232(3) 0.5090(3) 0.2126(9)
C8_4 C 0.7193(3) 0.5810(3) 0.0712(9)
C9_4 C 0.7292(3) 0.4331(3) 0.3409(9)
H3_4 H 0.7538 0.5067 0.1867
O3_4 O 0.6947(2) 0.6103(2) 0.0140(9)
O4_4 O 0.7597(3) 0.5773(3) 0.0409(10)
C10_4 C 0.7099(3) 0.3922(3) 0.3009(11)
H4_4 H 0.6828 0.3923 0.2488
C11_4 C 0.7305(3) 0.3498(3) 0.3375(11)
C12_4 C 0.7094(3) 0.3086(3) 0.2856(13)
O6_4 O 0.7088(10) 0.2722(5) 0.356(2)
C13_4 C 0.4176(3) 0.4821(3) 0.3214(14)
O10_4 O 0.4438(3) 0.4525(5) 0.2703(17)
C14_4 C 0.3687(3) 0.4853(3) 0.2844(10)
C15_4 C 0.3480(3) 0.4505(3) 0.1998(10)
C16_4 C 0.3426(3) 0.5221(3) 0.3320(9)
C17_4 C 0.3033(3) 0.4535(3) 0.1661(8)
H5_4 H 0.3653 0.4259 0.1678
C18_4 C 0.2969(3) 0.5246(3) 0.2976(10)
H6_4 H 0.3561 0.5449 0.3871
C19_4 C 0.2768(3) 0.4910(3) 0.2126(9)
C20_4 C 0.2807(3) 0.4190(3) 0.0712(9)
C21_4 C 0.2708(3) 0.5669(3) 0.3409(9)
C22_4 C 0.7708(3) 0.4331(3) 0.4091(9)
H7_4 H 0.2462 0.4933 0.1867
O11_4 O 0.3053(2) 0.3897(2) 0.0140(9)
O12_4 O 0.2403(3) 0.4227(3) 0.0409(10)
C23_4 C 0.2901(3) 0.6078(3) 0.3009(11)
C24_4 C 0.2292(3) 0.5669(3) 0.4091(9)
C25_4 C 0.7969(3) 0.4754(3) 0.4524(10)
C26_4 C 0.7901(3) 0.3922(3) 0.4491(11)
H8_4 H 0.3172 0.6077 0.2488
C27_4 C 0.2695(3) 0.6502(3) 0.3375(11)
C28_4 C 0.2031(3) 0.5246(3) 0.4524(10)
C29_4 C 0.2099(3) 0.6078(3) 0.4491(11)
C30_4 C 0.7695(3) 0.3498(3) 0.4125(11)
C31_4 C 0.7768(3) 0.5090(3) 0.5374(9)
C32_4 C 0.8426(3) 0.4779(3) 0.4180(9)
H9_4 H 0.8172 0.3923 0.5012
C33_4 C 0.2906(3) 0.6914(3) 0.2856(13)
C34_4 C 0.2305(3) 0.6502(3) 0.4125(11)
C35_4 C 0.2232(3) 0.4910(3) 0.5374(9)
C36_4 C 0.1574(3) 0.5221(3) 0.4180(9)
H10_4 H 0.1828 0.6077 0.5012
C37_4 C 0.7906(3) 0.3086(3) 0.4644(13)
H11_4 H 0.7462 0.5067 0.5633
C38_4 C 0.8033(3) 0.5465(3) 0.5839(8)
C39_4 C 0.8687(3) 0.5147(3) 0.4656(10)
H12_4 H 0.8561 0.4551 0.3629
O22_4 O 0.2912(10) 0.7278(5) 0.356(2)
C40_4 C 0.2094(3) 0.6914(3) 0.4644(13)
H13_4 H 0.2538 0.4933 0.5633
C41_4 C 0.1967(3) 0.4535(3) 0.5839(8)
C42_4 C 0.1313(3) 0.4853(3) 0.4656(10)
H14_4 H 0.1439 0.5449 0.3629
O24_4 O 0.7912(10) 0.2722(5) 0.394(2)
C43_4 C 0.8480(3) 0.5495(3) 0.5502(10)
C44_4 C 0.7807(3) 0.5810(3) 0.6788(9)
C45_4 C 0.9176(3) 0.5179(3) 0.4286(14)
O26_4 O 0.2088(10) 0.7278(5) 0.394(2)
C46_4 C 0.1520(3) 0.4505(3) 0.5502(10)
C47_4 C 0.2193(3) 0.4190(3) 0.6788(9)
C48_4 C 0.0824(3) 0.4821(3) 0.4286(14)
H15_4 H 0.8653 0.5741 0.5822
O27_3 O 0.8053(2) 0.6103(2) 0.7360(9)
O28_3 O 0.7403(3) 0.5773(3) 0.7091(10)
O29_4 O 0.9331(2) 0.4878(3) 0.3401(11)
O30_4 O 0.9438(3) 0.5475(5) 0.4797(17)
H16_4 H 0.1347 0.4259 0.5822
O31_3 O 0.1947(2) 0.3897(2) 0.7360(9)
O32_3 O 0.2597(3) 0.4227(3) 0.7091(10)
O33_4 O 0.0669(2) 0.5122(3) 0.3401(11)
O34_4 O 0.0562(3) 0.4525(5) 0.4797(17)
loop_
_geom_bond_atom_site_label_1
_geom_bond_atom_site_label_2
_geom_bond_site_symmetry_1
_geom_bond_site_symmetry_2
Cd1 O1 1_555 1_555
C6 C4 1_555 1_555
H2 C4 1_555 1_555
C9 C6 1_555 1_555
C10 C9 1_555 1_555
H4 C10 1_555 1_555
C11 C10 1_555 1_555
C12 C11 1_555 1_555
O6 C12 1_555 1_555
C22 C9 1_555 1_555
C25 C22 1_555 1_555
C26 C22 1_555 1_555
C30 C11 1_555 1_555
C32 C25 1_555 1_555
O20 C12 1_555 1_555
C37 C30 1_555 1_555
H12 C32 1_555 1_555
Cd4 O20 1_555 1_555
O24 C37 1_555 1_555
Cd10 O29 1_555 1_555
C26 C30 1_555 1_555
Cd8 O23 1_555 1_555
O10 C13 1_555 1_555
C14 C13 1_555 1_555
C15 C14 1_555 1_555
C17 C15 1_555 1_555
H5 C15 1_555 1_555
C19 C17 1_555 1_555
C20 C17 1_555 1_555
H7 C19 1_555 1_555
O11 C20 1_555 1_555
O12 C20 1_555 1_555
Cd3 O11 1_555 1_555
O16 Cd3 1_555 1_555
O17 Cd3 1_555 1_555
O18 Cd3 1_555 1_555
O19 Cd3 1_555 1_555
C48 C42 1_555 1_555
O34 C48 1_555 1_555
O12 Cd3 1_555 1_555
O8 Cd1_4 1_555 1_555
H13 C35 1_555 1_555
C41 C35 1_555 1_555
C46 C41 1_555 1_555
C47 C41 1_555 1_555
H16 C46 1_555 1_555
O16 C47 1_555 1_555
O17 C47 1_555 1_555
C1 O2 1_555 1_555
C2 C1 1_555 1_555
C3 C2 1_555 1_555
C5 C3 1_555 1_555
H1 C3 1_555 1_555
C7 C5 1_555 1_555
C8 C5 1_555 1_555
H3 C7 1_555 1_555
O3 C8 1_555 1_555
O4 C8 1_555 1_555
Cd2 O3 1_555 1_555
O5 Cd2 1_555 1_555
O13 Cd2 1_555 1_555
O14 Cd2 1_555 1_555
O15 Cd2 1_555 1_555
C45 C39 1_555 1_555
O30 C45 1_555 1_555
O4 Cd2 1_555 1_555
O9 Cd1_6 1_555 1_555
H11 C31 1_555 1_555
C38 C31 1_555 1_555
C43 C38 1_555 1_555
C44 C38 1_555 1_555
H15 C43 1_555 1_555
O13 C44 1_555 1_555
O14 C44 1_555 1_555
O7 Cd1_7 1_555 1_555
C18 C16 1_555 1_555
H6 C16 1_555 1_555
C21 C18 1_555 1_555
C23 C21 1_555 1_555
C24 C21 1_555 1_555
H8 C23 1_555 1_555
C27 C23 1_555 1_555
C28 C24 1_555 1_555
C29 C24 1_555 1_555
C33 C27 1_555 1_555
C34 C27 1_555 1_555
C36 C28 1_555 1_555
O21 C33 1_555 1_555
O22 C33 1_555 1_555
C40 C34 1_555 1_555
H14 C36 1_555 1_555
Cd5 O21 1_555 1_555
O26 C40 1_555 1_555
Cd10_2 O33 1_555 1_555
C29 C34 1_555 1_555
Cd9 O25 1_555 1_555
H11_2 C31_2 1_555 1_555
C38_2 C31_2 1_555 1_555
C43_2 C38_2 1_555 1_555
C44_2 C38_2 1_555 1_555
Cd4 O27 1_555 1_555
H15_2 C43_2 1_555 1_555
O27 C44_2 1_555 1_555
O28 C44_2 1_555 1_555
Cd4 O28 1_555 1_555
C1_2 O2_2 1_555 1_555
C2_2 C1_2 1_555 1_555
C3_2 C2_2 1_555 1_555
C5_2 C3_2 1_555 1_555
H1_2 C3_2 1_555 1_555
C7_2 C5_2 1_555 1_555
C8_2 C5_2 1_555 1_555
H3_2 C7_2 1_555 1_555
O3_2 C8_2 1_555 1_555
O4_2 C8_2 1_555 1_555
Cd4 O3_2 1_555 1_555
O15_2 Cd4 1_555 1_555
C45_2 C39_2 1_555 1_555
O30_2 C45_2 1_555 1_555
O4_2 Cd4 1_555 1_555
Cd8_2 O23_2 1_555 1_555
C6_2 C4_2 1_555 1_555
H2_2 C4_2 1_555 1_555
C9_2 C6_2 1_555 1_555
C10_2 C9_2 1_555 1_555
H4_2 C10_2 1_555 1_555
C11_2 C10_2 1_555 1_555
C12_2 C11_2 1_555 1_555
O6_2 C12_2 1_555 1_555
C22_2 C9_2 1_555 1_555
C25_2 C22_2 1_555 1_555
C26_2 C22_2 1_555 1_555
C30_2 C11_2 1_555 1_555
C32_2 C25_2 1_555 1_555
O18 C12_2 1_555 1_555
C37_2 C30_2 1_555 1_555
H12_2 C32_2 1_555 1_555
O24_2 C37_2 1_555 1_555
Cd10_4 O29_2 1_555 1_555
C26_2 C30_2 1_555 1_555
Cd9_2 O25_2 1_555 1_555
C18_2 C16_2 1_555 1_555
H6_2 C16_2 1_555 1_555
C21_2 C18_2 1_555 1_555
C23_2 C21_2 1_555 1_555
C24_2 C21_2 1_555 1_555
H8_2 C23_2 1_555 1_555
C27_2 C23_2 1_555 1_555
C28_2 C24_2 1_555 1_555
C29_2 C24_2 1_555 1_555
C33_2 C27_2 1_555 1_555
C34_2 C27_2 1_555 1_555
C36_2 C28_2 1_555 1_555
O5 C33_2 1_555 1_555
O22_2 C33_2 1_555 1_555
C40_2 C34_2 1_555 1_555
H14_2 C36_2 1_555 1_555
O26_2 C40_2 1_555 1_555
Cd10_3 O33_2 1_555 1_555
C29_2 C34_2 1_555 1_555
H13_2 C35_2 1_555 1_555
C41_2 C35_2 1_555 1_555
C46_2 C41_2 1_555 1_555
C47_2 C41_2 1_555 1_555
Cd5 O31 1_555 1_555
H16_2 C46_2 1_555 1_555
O31 C47_2 1_555 1_555
O32 C47_2 1_555 1_555
Cd5 O32 1_555 1_555
O10_2 C13_2 1_555 1_555
C14_2 C13_2 1_555 1_555
C15_2 C14_2 1_555 1_555
C17_2 C15_2 1_555 1_555
H5_2 C15_2 1_555 1_555
C19_2 C17_2 1_555 1_555
C20_2 C17_2 1_555 1_555
H7_2 C19_2 1_555 1_555
O11_2 C20_2 1_555 1_555
O12_2 C20_2 1_555 1_555
Cd5 O11_2 1_555 1_555
O19_2 Cd5 1_555 1_555
C48_2 C42_2 1_555 1_555
O34_2 C48_2 1_555 1_555
O12_2 Cd5 1_555 1_555
Cd10_3 O1_2 1_555 1_555
O1_2 C1_3 1_555 1_555
C1_3 O2_3 1_555 1_555
C2_3 C1_3 1_555 1_555
C3_3 C2_3 1_555 1_555
C4_3 C2_3 1_555 1_555
C5_3 C3_3 1_555 1_555
H1_3 C3_3 1_555 1_555
C6_3 C4_3 1_555 1_555
H2_3 C4_3 1_555 1_555
C7_3 C5_3 1_555 1_555
C8_3 C5_3 1_555 1_555
C9_3 C6_3 1_555 1_555
H3_3 C7_3 1_555 1_555
O3_3 C8_3 1_555 1_555
O4_3 C8_3 1_555 1_555
C10_3 C9_3 1_555 1_555
Cd9_2 O3_3 1_555 1_555
H4_3 C10_3 1_555 1_555
C11_3 C10_3 1_555 1_555
C12_3 C11_3 1_555 1_555
O6_3 C12_3 1_555 1_555
C22_3 C9_3 1_555 1_555
C25_3 C22_3 1_555 1_555
C26_3 C22_3 1_555 1_555
O15_3 Cd9_2 1_555 1_555
C30_3 C11_3 1_555 1_555
C31_3 C25_3 1_555 1_555
C32_3 C25_3 1_555 1_555
H9_3 C26_3 1_555 1_555
O15_2 C12_3 1_555 1_555
C37_3 C30_3 1_555 1_555
H11_3 C31_3 1_555 1_555
C38_3 C31_3 1_555 1_555
C39_3 C32_3 1_555 1_555
H12_3 C32_3 1_555 1_555
O23_3 C37_3 1_555 1_555
O24_3 C37_3 1_555 1_555
C43_3 C38_3 1_555 1_555
C44_3 C38_3 1_555 1_555
C45_3 C39_3 1_555 1_555
Cd8 O23_3 1_555 1_555
H15_3 C43_3 1_555 1_555
O27_2 C44_3 1_555 1_555
O28_2 C44_3 1_555 1_555
O29_3 C45_3 1_555 1_555
O30_3 C45_3 1_555 1_555
Cd10_5 O29_3 1_555 1_555
C6_3 C7_3 1_555 1_555
O4_3 Cd9_2 1_555 1_555
C26_3 C30_3 1_555 1_555
C39_3 C43_3 1_555 1_555
O7_2 Cd10_4 1_555 1_555
C13_3 O7_2 1_555 1_555
O10_3 C13_3 1_555 1_555
C14_3 C13_3 1_555 1_555
C15_3 C14_3 1_555 1_555
C16_3 C14_3 1_555 1_555
C17_3 C15_3 1_555 1_555
H5_3 C15_3 1_555 1_555
C18_3 C16_3 1_555 1_555
H6_3 C16_3 1_555 1_555
C19_3 C17_3 1_555 1_555
C20_3 C17_3 1_555 1_555
C21_3 C18_3 1_555 1_555
H7_3 C19_3 1_555 1_555
O11_3 C20_3 1_555 1_555
O12_3 C20_3 1_555 1_555
C23_3 C21_3 1_555 1_555
C24_3 C21_3 1_555 1_555
Cd8_2 O11_3 1_555 1_555
H8_3 C23_3 1_555 1_555
C27_3 C23_3 1_555 1_555
C28_3 C24_3 1_555 1_555
C29_3 C24_3 1_555 1_555
O19_3 Cd8_2 1_555 1_555
C33_3 C27_3 1_555 1_555
C34_3 C27_3 1_555 1_555
C35_3 C28_3 1_555 1_555
C36_3 C28_3 1_555 1_555
H10_3 C29_3 1_555 1_555
O19_2 C33_3 1_555 1_555
O22_3 C33_3 1_555 1_555
C40_3 C34_3 1_555 1_555
H13_3 C35_3 1_555 1_555
C41_3 C35_3 1_555 1_555
C42_3 C36_3 1_555 1_555
H14_3 C36_3 1_555 1_555
O25_3 C40_3 1_555 1_555
O26_3 C40_3 1_555 1_555
C46_3 C41_3 1_555 1_555
C47_3 C41_3 1_555 1_555
C48_3 C42_3 1_555 1_555
Cd9 O25_3 1_555 1_555
H16_3 C46_3 1_555 1_555
O31_2 C47_3 1_555 1_555
O32_2 C47_3 1_555 1_555
O33_3 C48_3 1_555 1_555
O34_3 C48_3 1_555 1_555
Cd10_5 O33_3 1_555 1_555
C18_3 C19_3 1_555 1_555
O12_3 Cd8_2 1_555 1_555
C29_3 C34_3 1_555 1_555
C42_3 C46_3 1_555 1_555
O8_2 Cd10_5 1_555 1_555
O9_2 Cd10_5 1_555 1_555
O8_2 C1_4 1_555 1_555
C1_4 O2_4 1_555 1_555
C2_4 C1_4 1_555 1_555
C3_4 C2_4 1_555 1_555
C4_4 C2_4 1_555 1_555
C5_4 C3_4 1_555 1_555
H1_4 C3_4 1_555 1_555
C6_4 C4_4 1_555 1_555
H2_4 C4_4 1_555 1_555
C7_4 C5_4 1_555 1_555
C8_4 C5_4 1_555 1_555
C9_4 C6_4 1_555 1_555
H3_4 C7_4 1_555 1_555
O3_4 C8_4 1_555 1_555
O4_4 C8_4 1_555 1_555
C10_4 C9_4 1_555 1_555
H4_4 C10_4 1_555 1_555
C11_4 C10_4 1_555 1_555
C12_4 C11_4 1_555 1_555
O6_4 C12_4 1_555 1_555
C13_4 O9_2 1_555 1_555
O10_4 C13_4 1_555 1_555
C14_4 C13_4 1_555 1_555
C15_4 C14_4 1_555 1_555
C16_4 C14_4 1_555 1_555
C17_4 C15_4 1_555 1_555
H5_4 C15_4 1_555 1_555
C18_4 C16_4 1_555 1_555
H6_4 C16_4 1_555 1_555
C19_4 C17_4 1_555 1_555
C20_4 C17_4 1_555 1_555
C21_4 C18_4 1_555 1_555
C22_4 C9_4 1_555 1_555
H7_4 C19_4 1_555 1_555
O11_4 C20_4 1_555 1_555
O12_4 C20_4 1_555 1_555
C23_4 C21_4 1_555 1_555
C24_4 C21_4 1_555 1_555
C25_4 C22_4 1_555 1_555
C26_4 C22_4 1_555 1_555
H8_4 C23_4 1_555 1_555
C27_4 C23_4 1_555 1_555
C28_4 C24_4 1_555 1_555
C29_4 C24_4 1_555 1_555
C30_4 C11_4 1_555 1_555
C31_4 C25_4 1_555 1_555
C32_4 C25_4 1_555 1_555
H9_4 C26_4 1_555 1_555
C33_4 C27_4 1_555 1_555
C34_4 C27_4 1_555 1_555
C35_4 C28_4 1_555 1_555
C36_4 C28_4 1_555 1_555
H10_4 C29_4 1_555 1_555
O15_3 C12_4 1_555 1_555
C37_4 C30_4 1_555 1_555
H11_4 C31_4 1_555 1_555
C38_4 C31_4 1_555 1_555
C39_4 C32_4 1_555 1_555
H12_4 C32_4 1_555 1_555
O19_3 C33_4 1_555 1_555
O22_4 C33_4 1_555 1_555
C40_4 C34_4 1_555 1_555
H13_4 C35_4 1_555 1_555
C41_4 C35_4 1_555 1_555
C42_4 C36_4 1_555 1_555
H14_4 C36_4 1_555 1_555
O15 C37_4 1_555 1_555
O24_4 C37_4 1_555 1_555
C43_4 C38_4 1_555 1_555
C44_4 C38_4 1_555 1_555
C45_4 C39_4 1_555 1_555
O19 C40_4 1_555 1_555
O26_4 C40_4 1_555 1_555
C46_4 C41_4 1_555 1_555
C47_4 C41_4 1_555 1_555
C48_4 C42_4 1_555 1_555
Cd8 O31_3 1_555 1_555
Cd9 O27_3 1_555 1_555
H15_4 C43_4 1_555 1_555
O27_3 C44_4 1_555 1_555
O28_3 C44_4 1_555 1_555
O29_4 C45_4 1_555 1_555
O30_4 C45_4 1_555 1_555
H16_4 C46_4 1_555 1_555
O31_3 C47_4 1_555 1_555
O32_3 C47_4 1_555 1_555
O33_4 C48_4 1_555 1_555
O34_4 C48_4 1_555 1_555
Cd10_2 O29_4 1_555 1_555
Cd10 O33_4 1_555 1_555
C6_4 C7_4 1_555 1_555
C18_4 C19_4 1_555 1_555
C26_4 C30_4 1_555 1_555
C29_4 C34_4 1_555 1_555
C39_4 C43_4 1_555 1_555
C42_4 C46_4 1_555 1_555
Cd8 O32_3 1_555 1_555
Cd9 O28_3 1_555 1_555

#END
