
###############################################################################
#
# This file contains modified crystal structure data generated from the
# MOF subset of the Cambridge Structural Database (CSD) v543 
# hosted by the Cambridge Crystallographic Data Centre (CCDC).
#
# This work is licensed under the Creative Commons
# Attribution-NonCommercial-ShareAlike 4.0 International License.
# To view a copy of this license, visit
# http://creativecommons.org/licenses/by-nc-sa/4.0/
# or send a letter to
# Creative Commons, PO Box 1866, Mountain View, CA 94042, USA.
#
# CIF created using the CSD Python API on 29 September 2022
# The structure has been converted into the P1 space group
# The structure has a 3D framework
# The original CSD entry AVEZIN is in the orthorhombic crystal system
# The framework has been calculated to contain at least 10.0% void space
# The void calculation uses a probe of radius 1.32A, grid spacing 0.4
#
###############################################################################

data_AVEZIN
_chemical_formula_moiety         '(C160 H96 Cd8 N48 O32)n'
_symmetry_cell_setting           triclinic
_symmetry_space_group_name_H-M   'P 1'
_symmetry_Int_Tables_number      1
_space_group_name_Hall           'P 1'
loop_
_symmetry_equiv_pos_site_id
_symmetry_equiv_pos_as_xyz
1 x,y,z
_cell_length_a                   14.1969(6)
_cell_length_b                   15.7861(7)
_cell_length_c                   21.0190(9)
_cell_angle_alpha                90
_cell_angle_beta                 90
_cell_angle_gamma                90
_cell_volume                     4710.65
loop_
_atom_site_label
_atom_site_type_symbol
_atom_site_fract_x
_atom_site_fract_y
_atom_site_fract_z
Cd1 Cd 0.10410(4) 0.20623(4) 0.18599(3)
O1 O 0.2416(5) 0.2104(6) 0.1184(3)
O2 O 0.1013(4) 0.2059(5) 0.0753(3)
C1 C 0.1893(6) 0.2086(7) 0.0705(4)
C2 C 0.2324(6) 0.2056(6) 0.0057(4)
H1 H 0.367957 0.200753 0.033290
N1 N 0.0897(5) 0.0536(5) 0.1846(3)
C9 C 0.1283(6) 0.0119(6) 0.2305(4)
H5 H 0.158372 0.039987 0.263648
C13 C 0.0465(9) 0.0174(7) 0.1365(4)
H8 H 0.020849 0.050932 0.104524
O6 O 0.0601(5) 0.2099(6) 0.3110(3)
O7 O 0.2021(5) 0.2005(5) 0.2716(3)
N7 N 0.0989(6) 0.3479(4) 0.1861(4)
C3 C 0.3294(6) 0.2036(7) 0.9976(4)
C4 C 0.3707(7) 0.2058(9) 0.9370(4)
H2 H 0.435809 0.207093 0.932153
C5 C 0.3106(6) 0.2058(6) 0.8842(4)
C6 C 0.3531(6) 0.2078(6) 0.8182(4)
O3 O 0.4399(5) 0.2099(6) 0.8110(3)
O4 O 0.2979(5) 0.2005(5) 0.7716(3)
C7 C 0.2144(6) 0.2086(7) 0.8914(4)
H3 H 0.175908 0.208998 0.855577
C8 C 0.1742(6) 0.2109(7) 0.9516(4)
H4 H 0.109298 0.215835 0.956186
Cd3 Cd 0.60410(4) 0.20623(4) 0.81401(3)
Cd4 Cd 0.39590(4) 0.20623(4) 0.68599(3)
C10 C 0.1237(7) 0.9236(6) 0.2293(5)
H6 H 0.150660 0.893446 0.262713
C11 C 0.0811(6) 0.8793(6) 0.1809(4)
C12 C 0.0385(7) 0.9314(7) 0.1325(5)
H7 H 0.005835 0.906708 0.098977
C14 C 0.0750(7) 0.7866(6) 0.1798(5)
N2 N 0.1053(7) 0.7499(6) 0.2318(5)
N3 N 0.1122(9) 0.6635(8) 0.2321(6)
C15 C 0.0794(9) 0.6210(7) 0.1825(6)
N4 N 0.0422(11) 0.6644(10) 0.1331(6)
N5 N 0.0339(7) 0.7535(6) 0.1305(5)
C16 C 0.0847(10) 0.5268(6) 0.1826(6)
C17 C 0.1297(10) 0.4908(9) 0.2320(6)
H9 H 0.158247 0.522468 0.263944
C18 C 0.1304(14) 0.4003(8) 0.2318(8)
H10 H 0.155808 0.374435 0.267662
C19 C 0.0541(13) 0.3937(12) 0.1414(9)
H11 H 0.022137 0.362916 0.110464
C20 C 0.0496(16) 0.4842(10) 0.1355(8)
H12 H 0.023177 0.510546 0.100208
O5 O 0.9399(5) 0.2099(6) 0.1890(3)
Cd1_2 Cd 0.89590(4) 0.20623(4) 0.31401(3)
O1_2 O 0.7584(5) 0.2104(6) 0.3816(3)
O2_2 O 0.8987(4) 0.2059(5) 0.4247(3)
C1_2 C 0.8107(6) 0.2086(7) 0.4295(4)
C2_2 C 0.7676(6) 0.2056(6) 0.4943(4)
C3_2 C 0.6706(6) 0.2036(7) 0.5024(4)
H1_2 H 0.632043 0.200753 0.466710
C4_2 C 0.6293(7) 0.2058(9) 0.5630(4)
H2_2 H 0.564191 0.207093 0.567847
C5_2 C 0.6894(6) 0.2058(6) 0.6158(4)
C6_2 C 0.6469(6) 0.2078(6) 0.6818(4)
O3_2 O 0.5601(5) 0.2099(6) 0.6890(3)
O4_2 O 0.7021(5) 0.2005(5) 0.7284(3)
C7_2 C 0.7856(6) 0.2086(7) 0.6086(4)
H3_2 H 0.824092 0.208998 0.644423
C8_2 C 0.8258(6) 0.2109(7) 0.5484(4)
H4_2 H 0.890702 0.215835 0.543814
N1_2 N 0.9103(5) 0.0536(5) 0.3154(3)
C9_2 C 0.8717(6) 0.0119(6) 0.2695(4)
H5_2 H 0.841628 0.039987 0.236352
C13_2 C 0.9535(9) 0.0174(7) 0.3635(4)
H8_2 H 0.979151 0.050932 0.395476
O7_2 O 0.7979(5) 0.2005(5) 0.2284(3)
N7_2 N 0.9011(6) 0.3479(4) 0.3139(4)
C10_2 C 0.8763(7) 0.9236(6) 0.2707(5)
H6_2 H 0.849340 0.893446 0.237287
C11_2 C 0.9189(6) 0.8793(6) 0.3191(4)
C12_2 C 0.9615(7) 0.9314(7) 0.3675(5)
H7_2 H 0.994165 0.906708 0.401023
C14_2 C 0.9250(7) 0.7866(6) 0.3202(5)
N2_2 N 0.8947(7) 0.7499(6) 0.2682(5)
N3_2 N 0.8878(9) 0.6635(8) 0.2679(6)
C15_2 C 0.9206(9) 0.6210(7) 0.3175(6)
N4_2 N 0.9578(11) 0.6644(10) 0.3669(6)
N5_2 N 0.9661(7) 0.7535(6) 0.3695(5)
C16_2 C 0.9153(10) 0.5268(6) 0.3174(6)
C17_2 C 0.8703(10) 0.4908(9) 0.2680(6)
H9_2 H 0.841753 0.522468 0.236056
C18_2 C 0.8696(14) 0.4003(8) 0.2682(8)
H10_2 H 0.844192 0.374435 0.232338
C19_2 C 0.9459(13) 0.3937(12) 0.3586(9)
H11_2 H 0.977863 0.362916 0.389536
C20_2 C 0.9504(16) 0.4842(10) 0.3645(8)
H12_2 H 0.976823 0.510546 0.399792
C3_3 C 0.8294(6) 0.2036(7) 0.0024(4)
C4_3 C 0.8707(7) 0.2058(9) 0.0630(4)
H2_3 H 0.935809 0.207093 0.067847
C5_3 C 0.8106(6) 0.2058(6) 0.1158(4)
C6_3 C 0.8531(6) 0.2078(6) 0.1818(4)
C7_3 C 0.7144(6) 0.2086(7) 0.1086(4)
H3_3 H 0.675908 0.208998 0.144423
C8_3 C 0.6742(6) 0.2109(7) 0.0484(4)
H4_3 H 0.609298 0.215835 0.043814
O1_3 O 0.7416(5) 0.2104(6) 0.8816(3)
O2_3 O 0.6013(4) 0.2059(5) 0.9247(3)
C1_3 C 0.6893(6) 0.2086(7) 0.9295(4)
C2_3 C 0.7324(6) 0.2056(6) 0.9943(4)
H1_3 H 0.867957 0.200753 0.966710
N1_3 N 0.5897(5) 0.0536(5) 0.8154(3)
C9_3 C 0.6283(6) 0.0119(6) 0.7695(4)
H5_3 H 0.658372 0.039987 0.736352
C13_3 C 0.5465(9) 0.0174(7) 0.8635(4)
H8_3 H 0.520849 0.050932 0.895476
N7_3 N 0.5989(6) 0.3479(4) 0.8139(4)
C10_3 C 0.6237(7) 0.9236(6) 0.7707(5)
H6_3 H 0.650660 0.893446 0.737287
C11_3 C 0.5811(6) 0.8793(6) 0.8191(4)
C12_3 C 0.5385(7) 0.9314(7) 0.8675(5)
H7_3 H 0.505835 0.906708 0.901023
C14_3 C 0.5750(7) 0.7866(6) 0.8202(5)
N2_3 N 0.6053(7) 0.7499(6) 0.7682(5)
N3_3 N 0.6122(9) 0.6635(8) 0.7679(6)
C15_3 C 0.5794(9) 0.6210(7) 0.8175(6)
N4_3 N 0.5422(11) 0.6644(10) 0.8669(6)
N5_3 N 0.5339(7) 0.7535(6) 0.8695(5)
C16_3 C 0.5847(10) 0.5268(6) 0.8174(6)
C17_3 C 0.6297(10) 0.4908(9) 0.7680(6)
H9_3 H 0.658247 0.522468 0.736056
C18_3 C 0.6304(14) 0.4003(8) 0.7682(8)
H10_3 H 0.655808 0.374435 0.732338
C19_3 C 0.5541(13) 0.3937(12) 0.8586(9)
H11_3 H 0.522137 0.362916 0.889536
C20_3 C 0.5496(16) 0.4842(10) 0.8645(8)
H12_3 H 0.523177 0.510546 0.899792
O1_4 O 0.2584(5) 0.2104(6) 0.6184(3)
O2_4 O 0.3987(4) 0.2059(5) 0.5753(3)
C1_4 C 0.3107(6) 0.2086(7) 0.5705(4)
C2_4 C 0.2676(6) 0.2056(6) 0.5057(4)
C3_4 C 0.1706(6) 0.2036(7) 0.4976(4)
H1_4 H 0.132043 0.200753 0.533290
C4_4 C 0.1293(7) 0.2058(9) 0.4370(4)
H2_4 H 0.064191 0.207093 0.432153
C5_4 C 0.1894(6) 0.2058(6) 0.3842(4)
C6_4 C 0.1469(6) 0.2078(6) 0.3182(4)
C7_4 C 0.2856(6) 0.2086(7) 0.3914(4)
H3_4 H 0.324092 0.208998 0.355577
C8_4 C 0.3258(6) 0.2109(7) 0.4516(4)
H4_4 H 0.390702 0.215835 0.456186
N1_4 N 0.4103(5) 0.0536(5) 0.6846(3)
C9_4 C 0.3717(6) 0.0119(6) 0.7305(4)
H5_4 H 0.341628 0.039987 0.763648
C13_4 C 0.4535(9) 0.0174(7) 0.6365(4)
H8_4 H 0.479151 0.050932 0.604524
N7_4 N 0.4011(6) 0.3479(4) 0.6861(4)
C10_4 C 0.3763(7) 0.9236(6) 0.7293(5)
H6_4 H 0.349340 0.893446 0.762713
C11_4 C 0.4189(6) 0.8793(6) 0.6809(4)
C12_4 C 0.4615(7) 0.9314(7) 0.6325(5)
H7_4 H 0.494165 0.906708 0.598977
C14_4 C 0.4250(7) 0.7866(6) 0.6798(5)
N2_4 N 0.3947(7) 0.7499(6) 0.7318(5)
N3_4 N 0.3878(9) 0.6635(8) 0.7321(6)
C15_4 C 0.4206(9) 0.6210(7) 0.6825(6)
N4_4 N 0.4578(11) 0.6644(10) 0.6331(6)
N5_4 N 0.4661(7) 0.7535(6) 0.6305(5)
C16_4 C 0.4153(10) 0.5268(6) 0.6826(6)
C17_4 C 0.3703(10) 0.4908(9) 0.7320(6)
H9_4 H 0.341753 0.522468 0.763944
C18_4 C 0.3696(14) 0.4003(8) 0.7318(8)
H10_4 H 0.344192 0.374435 0.767662
C19_4 C 0.4459(13) 0.3937(12) 0.6414(9)
H11_4 H 0.477863 0.362916 0.610464
C20_4 C 0.4504(16) 0.4842(10) 0.6355(8)
H12_4 H 0.476823 0.510546 0.600208
C10_5 C 0.3763(7) 0.0764(6) 0.2293(5)
H6_5 H 0.349340 0.106554 0.262713
C11_5 C 0.4189(6) 0.1207(6) 0.1809(4)
C12_5 C 0.4615(7) 0.0686(7) 0.1325(5)
H7_5 H 0.494165 0.093292 0.098977
C14_5 C 0.4250(7) 0.2134(6) 0.1798(5)
N2_5 N 0.3947(7) 0.2501(6) 0.2318(5)
N3_5 N 0.3878(9) 0.3365(8) 0.2321(6)
C15_5 C 0.4206(9) 0.3790(7) 0.1825(6)
N4_5 N 0.4578(11) 0.3356(10) 0.1331(6)
N5_5 N 0.4661(7) 0.2465(6) 0.1305(5)
C16_5 C 0.4153(10) 0.4732(6) 0.1826(6)
C17_5 C 0.3703(10) 0.5092(9) 0.2320(6)
H9_5 H 0.341753 0.477532 0.263944
C18_5 C 0.3696(14) 0.5997(8) 0.2318(8)
H10_5 H 0.344192 0.625565 0.267662
N6 N 0.4011(6) 0.6521(4) 0.1861(4)
C19_5 C 0.4459(13) 0.6063(12) 0.1414(9)
H11_5 H 0.477863 0.637084 0.110464
C20_5 C 0.4504(16) 0.5158(10) 0.1355(8)
H12_5 H 0.476823 0.489454 0.100208
Cd2 Cd 0.39590(4) 0.79377(4) 0.18599(3)
O1_5 O 0.2584(5) 0.7896(6) 0.1184(3)
O2_5 O 0.3987(4) 0.7941(5) 0.0753(3)
C1_5 C 0.3107(6) 0.7914(7) 0.0705(4)
C2_5 C 0.2676(6) 0.7944(6) 0.0057(4)
H1_5 H 0.132043 0.799247 0.033290
N1_5 N 0.4103(5) 0.9464(5) 0.1846(3)
C9_5 C 0.3717(6) 0.9881(6) 0.2305(4)
H5_5 H 0.341628 0.960013 0.263648
C13_5 C 0.4535(9) 0.9826(7) 0.1365(4)
H8_5 H 0.479151 0.949068 0.104524
O5_2 O 0.5601(5) 0.7901(6) 0.1890(3)
O6_2 O 0.4399(5) 0.7901(6) 0.3110(3)
O7_3 O 0.2979(5) 0.7995(5) 0.2716(3)
C3_5 C 0.1706(6) 0.7964(7) 0.9976(4)
C4_5 C 0.1293(7) 0.7942(9) 0.9370(4)
H2_5 H 0.064191 0.792907 0.932153
C5_5 C 0.1894(6) 0.7942(6) 0.8842(4)
C6_5 C 0.1469(6) 0.7922(6) 0.8182(4)
O3_3 O 0.0601(5) 0.7901(6) 0.8110(3)
O4_3 O 0.2021(5) 0.7995(5) 0.7716(3)
C7_5 C 0.2856(6) 0.7914(7) 0.8914(4)
H3_5 H 0.324092 0.791002 0.855577
C8_5 C 0.3258(6) 0.7891(7) 0.9516(4)
H4_5 H 0.390702 0.784165 0.956186
Cd4_2 Cd 0.10410(4) 0.79377(4) 0.68599(3)
Cd3_2 Cd 0.89590(4) 0.79377(4) 0.81401(3)
C10_6 C 0.6237(7) 0.0764(6) 0.2707(5)
H6_6 H 0.650660 0.106554 0.237287
C11_6 C 0.5811(6) 0.1207(6) 0.3191(4)
C12_6 C 0.5385(7) 0.0686(7) 0.3675(5)
H7_6 H 0.505835 0.093292 0.401023
C14_6 C 0.5750(7) 0.2134(6) 0.3202(5)
N2_6 N 0.6053(7) 0.2501(6) 0.2682(5)
N3_6 N 0.6122(9) 0.3365(8) 0.2679(6)
C15_6 C 0.5794(9) 0.3790(7) 0.3175(6)
N4_6 N 0.5422(11) 0.3356(10) 0.3669(6)
N5_6 N 0.5339(7) 0.2465(6) 0.3695(5)
C16_6 C 0.5847(10) 0.4732(6) 0.3174(6)
C17_6 C 0.6297(10) 0.5092(9) 0.2680(6)
H9_6 H 0.658247 0.477532 0.236056
C18_6 C 0.6304(14) 0.5997(8) 0.2682(8)
H10_6 H 0.655808 0.625565 0.232338
N6_2 N 0.5989(6) 0.6521(4) 0.3139(4)
C19_6 C 0.5541(13) 0.6063(12) 0.3586(9)
H11_6 H 0.522137 0.637084 0.389536
C20_6 C 0.5496(16) 0.5158(10) 0.3645(8)
H12_6 H 0.523177 0.489454 0.399792
Cd2_2 Cd 0.60410(4) 0.79377(4) 0.31401(3)
O1_6 O 0.7416(5) 0.7896(6) 0.3816(3)
O2_6 O 0.6013(4) 0.7941(5) 0.4247(3)
C1_6 C 0.6893(6) 0.7914(7) 0.4295(4)
C2_6 C 0.7324(6) 0.7944(6) 0.4943(4)
C3_6 C 0.8294(6) 0.7964(7) 0.5024(4)
H1_6 H 0.867957 0.799247 0.466710
C4_6 C 0.8707(7) 0.7942(9) 0.5630(4)
H2_6 H 0.935809 0.792907 0.567847
C5_6 C 0.8106(6) 0.7942(6) 0.6158(4)
C6_6 C 0.8531(6) 0.7922(6) 0.6818(4)
O3_4 O 0.9399(5) 0.7901(6) 0.6890(3)
O4_4 O 0.7979(5) 0.7995(5) 0.7284(3)
C7_6 C 0.7144(6) 0.7914(7) 0.6086(4)
H3_6 H 0.675908 0.791002 0.644423
C8_6 C 0.6742(6) 0.7891(7) 0.5484(4)
H4_6 H 0.609298 0.784165 0.543814
N1_6 N 0.5897(5) 0.9464(5) 0.3154(3)
C9_6 C 0.6283(6) 0.9881(6) 0.2695(4)
H5_6 H 0.658372 0.960013 0.236352
C13_6 C 0.5465(9) 0.9826(7) 0.3635(4)
H8_6 H 0.520849 0.949068 0.395476
O7_4 O 0.7021(5) 0.7995(5) 0.2284(3)
C10_7 C 0.8763(7) 0.0764(6) 0.7707(5)
H6_7 H 0.849340 0.106554 0.737287
C11_7 C 0.9189(6) 0.1207(6) 0.8191(4)
C12_7 C 0.9615(7) 0.0686(7) 0.8675(5)
H7_7 H 0.994165 0.093292 0.901023
C14_7 C 0.9250(7) 0.2134(6) 0.8202(5)
N2_7 N 0.8947(7) 0.2501(6) 0.7682(5)
N3_7 N 0.8878(9) 0.3365(8) 0.7679(6)
C15_7 C 0.9206(9) 0.3790(7) 0.8175(6)
N4_7 N 0.9578(11) 0.3356(10) 0.8669(6)
N5_7 N 0.9661(7) 0.2465(6) 0.8695(5)
C16_7 C 0.9153(10) 0.4732(6) 0.8174(6)
C17_7 C 0.8703(10) 0.5092(9) 0.7680(6)
H9_7 H 0.841753 0.477532 0.736056
C18_7 C 0.8696(14) 0.5997(8) 0.7682(8)
H10_7 H 0.844192 0.625565 0.732338
N6_3 N 0.9011(6) 0.6521(4) 0.8139(4)
C19_7 C 0.9459(13) 0.6063(12) 0.8586(9)
H11_7 H 0.977863 0.637084 0.889536
C20_7 C 0.9504(16) 0.5158(10) 0.8645(8)
H12_7 H 0.976823 0.489454 0.899792
C3_7 C 0.6706(6) 0.7964(7) 0.0024(4)
C4_7 C 0.6293(7) 0.7942(9) 0.0630(4)
H2_7 H 0.564191 0.792907 0.067847
C5_7 C 0.6894(6) 0.7942(6) 0.1158(4)
C6_7 C 0.6469(6) 0.7922(6) 0.1818(4)
C7_7 C 0.7856(6) 0.7914(7) 0.1086(4)
H3_7 H 0.824092 0.791002 0.144423
C8_7 C 0.8258(6) 0.7891(7) 0.0484(4)
H4_7 H 0.890702 0.784165 0.043814
O1_7 O 0.7584(5) 0.7896(6) 0.8816(3)
O2_7 O 0.8987(4) 0.7941(5) 0.9247(3)
C1_7 C 0.8107(6) 0.7914(7) 0.9295(4)
C2_7 C 0.7676(6) 0.7944(6) 0.9943(4)
H1_7 H 0.632043 0.799247 0.966710
N1_7 N 0.9103(5) 0.9464(5) 0.8154(3)
C9_7 C 0.8717(6) 0.9881(6) 0.7695(4)
H5_7 H 0.841628 0.960013 0.736352
C13_7 C 0.9535(9) 0.9826(7) 0.8635(4)
H8_7 H 0.979151 0.949068 0.895476
C10_8 C 0.1237(7) 0.0764(6) 0.7293(5)
H6_8 H 0.150660 0.106554 0.762713
C11_8 C 0.0811(6) 0.1207(6) 0.6809(4)
C12_8 C 0.0385(7) 0.0686(7) 0.6325(5)
H7_8 H 0.005835 0.093292 0.598977
C14_8 C 0.0750(7) 0.2134(6) 0.6798(5)
N2_8 N 0.1053(7) 0.2501(6) 0.7318(5)
N3_8 N 0.1122(9) 0.3365(8) 0.7321(6)
C15_8 C 0.0794(9) 0.3790(7) 0.6825(6)
N4_8 N 0.0422(11) 0.3356(10) 0.6331(6)
N5_8 N 0.0339(7) 0.2465(6) 0.6305(5)
C16_8 C 0.0847(10) 0.4732(6) 0.6826(6)
C17_8 C 0.1297(10) 0.5092(9) 0.7320(6)
H9_8 H 0.158247 0.477532 0.763944
C18_8 C 0.1304(14) 0.5997(8) 0.7318(8)
H10_8 H 0.155808 0.625565 0.767662
N6_4 N 0.0989(6) 0.6521(4) 0.6861(4)
C19_8 C 0.0541(13) 0.6063(12) 0.6414(9)
H11_8 H 0.022137 0.637084 0.610464
C20_8 C 0.0496(16) 0.5158(10) 0.6355(8)
H12_8 H 0.023177 0.489454 0.600208
O1_8 O 0.2416(5) 0.7896(6) 0.6184(3)
O2_8 O 0.1013(4) 0.7941(5) 0.5753(3)
C1_8 C 0.1893(6) 0.7914(7) 0.5705(4)
C2_8 C 0.2324(6) 0.7944(6) 0.5057(4)
C3_8 C 0.3294(6) 0.7964(7) 0.4976(4)
H1_8 H 0.367957 0.799247 0.533290
C4_8 C 0.3707(7) 0.7942(9) 0.4370(4)
H2_8 H 0.435809 0.792907 0.432153
C5_8 C 0.3106(6) 0.7942(6) 0.3842(4)
C6_8 C 0.3531(6) 0.7922(6) 0.3182(4)
C7_8 C 0.2144(6) 0.7914(7) 0.3914(4)
H3_8 H 0.175908 0.791002 0.355577
C8_8 C 0.1742(6) 0.7891(7) 0.4516(4)
H4_8 H 0.109298 0.784165 0.456186
N1_8 N 0.0897(5) 0.9464(5) 0.6846(3)
C9_8 C 0.1283(6) 0.9881(6) 0.7305(4)
H5_8 H 0.158372 0.960013 0.763648
C13_8 C 0.0465(9) 0.9826(7) 0.6365(4)
H8_8 H 0.020849 0.949068 0.604524
loop_
_geom_bond_atom_site_label_1
_geom_bond_atom_site_label_2
_geom_bond_site_symmetry_1
_geom_bond_site_symmetry_2
Cd1 O1 1_555 1_555
O1 C1 1_555 1_555
O2 Cd1 1_555 1_555
C1 O2 1_555 1_555
C2 C1 1_555 1_555
N1 Cd1 1_555 1_555
C9 N1 1_555 1_555
H5 C9 1_555 1_555
C13 N1 1_555 1_555
H8 C13 1_555 1_555
O6 Cd1 1_555 1_555
O7 Cd1 1_555 1_555
N7 Cd1 1_555 1_555
C4 C3 1_555 1_555
H2 C4 1_555 1_555
C5 C4 1_555 1_555
C6 C5 1_555 1_555
O3 C6 1_555 1_555
O4 C6 1_555 1_555
C7 C5 1_555 1_555
H3 C7 1_555 1_555
H4 C8 1_555 1_555
Cd3 O3 1_555 1_555
Cd4 O3 1_555 1_555
O4 Cd4 1_555 1_555
C7 C8 1_555 1_555
H6 C10 1_555 1_555
C11 C10 1_555 1_555
C12 C11 1_555 1_555
H7 C12 1_555 1_555
C14 C11 1_555 1_555
N2 C14 1_555 1_555
N3 N2 1_555 1_555
C15 N3 1_555 1_555
N4 C15 1_555 1_555
N5 C14 1_555 1_555
C16 C15 1_555 1_555
C17 C16 1_555 1_555
H9 C17 1_555 1_555
C18 C17 1_555 1_555
H10 C18 1_555 1_555
N7 C18 1_555 1_555
C19 N7 1_555 1_555
H11 C19 1_555 1_555
C20 C16 1_555 1_555
H12 C20 1_555 1_555
N4 N5 1_555 1_555
C19 C20 1_555 1_555
Cd1_2 O1_2 1_555 1_555
O1_2 C1_2 1_555 1_555
O2_2 Cd1_2 1_555 1_555
C1_2 O2_2 1_555 1_555
C2_2 C1_2 1_555 1_555
C3_2 C2_2 1_555 1_555
H1_2 C3_2 1_555 1_555
C4_2 C3_2 1_555 1_555
H2_2 C4_2 1_555 1_555
C5_2 C4_2 1_555 1_555
C6_2 C5_2 1_555 1_555
O3_2 C6_2 1_555 1_555
O4_2 C6_2 1_555 1_555
C7_2 C5_2 1_555 1_555
H3_2 C7_2 1_555 1_555
C8_2 C2_2 1_555 1_555
H4_2 C8_2 1_555 1_555
N1_2 Cd1_2 1_555 1_555
C9_2 N1_2 1_555 1_555
H5_2 C9_2 1_555 1_555
C13_2 N1_2 1_555 1_555
H8_2 C13_2 1_555 1_555
Cd4 O3_2 1_555 1_555
Cd3 O3_2 1_555 1_555
O5 Cd1_2 1_555 1_555
O7_2 Cd1_2 1_555 1_555
N7_2 Cd1_2 1_555 1_555
O4_2 Cd3 1_555 1_555
C7_2 C8_2 1_555 1_555
H6_2 C10_2 1_555 1_555
C11_2 C10_2 1_555 1_555
C12_2 C11_2 1_555 1_555
H7_2 C12_2 1_555 1_555
C14_2 C11_2 1_555 1_555
N2_2 C14_2 1_555 1_555
N3_2 N2_2 1_555 1_555
C15_2 N3_2 1_555 1_555
N4_2 C15_2 1_555 1_555
N5_2 C14_2 1_555 1_555
C16_2 C15_2 1_555 1_555
C17_2 C16_2 1_555 1_555
H9_2 C17_2 1_555 1_555
C18_2 C17_2 1_555 1_555
H10_2 C18_2 1_555 1_555
N7_2 C18_2 1_555 1_555
C19_2 N7_2 1_555 1_555
H11_2 C19_2 1_555 1_555
C20_2 C16_2 1_555 1_555
H12_2 C20_2 1_555 1_555
N4_2 N5_2 1_555 1_555
C19_2 C20_2 1_555 1_555
C4_3 C3_3 1_555 1_555
H2_3 C4_3 1_555 1_555
C5_3 C4_3 1_555 1_555
C6_3 C5_3 1_555 1_555
O5 C6_3 1_555 1_555
O7_2 C6_3 1_555 1_555
C7_3 C5_3 1_555 1_555
H3_3 C7_3 1_555 1_555
H4_3 C8_3 1_555 1_555
C7_3 C8_3 1_555 1_555
Cd3 O1_3 1_555 1_555
O1_3 C1_3 1_555 1_555
O2_3 Cd3 1_555 1_555
C1_3 O2_3 1_555 1_555
C2_3 C1_3 1_555 1_555
N1_3 Cd3 1_555 1_555
C9_3 N1_3 1_555 1_555
H5_3 C9_3 1_555 1_555
C13_3 N1_3 1_555 1_555
H8_3 C13_3 1_555 1_555
N7_3 Cd3 1_555 1_555
H6_3 C10_3 1_555 1_555
C11_3 C10_3 1_555 1_555
C12_3 C11_3 1_555 1_555
H7_3 C12_3 1_555 1_555
C14_3 C11_3 1_555 1_555
N2_3 C14_3 1_555 1_555
N3_3 N2_3 1_555 1_555
C15_3 N3_3 1_555 1_555
N4_3 C15_3 1_555 1_555
N5_3 C14_3 1_555 1_555
C16_3 C15_3 1_555 1_555
C17_3 C16_3 1_555 1_555
H9_3 C17_3 1_555 1_555
C18_3 C17_3 1_555 1_555
H10_3 C18_3 1_555 1_555
N7_3 C18_3 1_555 1_555
C19_3 N7_3 1_555 1_555
H11_3 C19_3 1_555 1_555
C20_3 C16_3 1_555 1_555
H12_3 C20_3 1_555 1_555
N4_3 N5_3 1_555 1_555
C19_3 C20_3 1_555 1_555
Cd4 O1_4 1_555 1_555
O1_4 C1_4 1_555 1_555
O2_4 Cd4 1_555 1_555
C1_4 O2_4 1_555 1_555
C2_4 C1_4 1_555 1_555
C3_4 C2_4 1_555 1_555
H1_4 C3_4 1_555 1_555
C4_4 C3_4 1_555 1_555
H2_4 C4_4 1_555 1_555
C5_4 C4_4 1_555 1_555
C6_4 C5_4 1_555 1_555
O6 C6_4 1_555 1_555
O7 C6_4 1_555 1_555
C7_4 C5_4 1_555 1_555
H3_4 C7_4 1_555 1_555
C8_4 C2_4 1_555 1_555
H4_4 C8_4 1_555 1_555
N1_4 Cd4 1_555 1_555
C9_4 N1_4 1_555 1_555
H5_4 C9_4 1_555 1_555
C13_4 N1_4 1_555 1_555
H8_4 C13_4 1_555 1_555
N7_4 Cd4 1_555 1_555
C7_4 C8_4 1_555 1_555
H6_4 C10_4 1_555 1_555
C11_4 C10_4 1_555 1_555
C12_4 C11_4 1_555 1_555
H7_4 C12_4 1_555 1_555
C14_4 C11_4 1_555 1_555
N2_4 C14_4 1_555 1_555
N3_4 N2_4 1_555 1_555
C15_4 N3_4 1_555 1_555
N4_4 C15_4 1_555 1_555
N5_4 C14_4 1_555 1_555
C16_4 C15_4 1_555 1_555
C17_4 C16_4 1_555 1_555
H9_4 C17_4 1_555 1_555
C18_4 C17_4 1_555 1_555
H10_4 C18_4 1_555 1_555
N7_4 C18_4 1_555 1_555
C19_4 N7_4 1_555 1_555
H11_4 C19_4 1_555 1_555
C20_4 C16_4 1_555 1_555
H12_4 C20_4 1_555 1_555
N4_4 N5_4 1_555 1_555
C19_4 C20_4 1_555 1_555
H6_5 C10_5 1_555 1_555
C11_5 C10_5 1_555 1_555
C12_5 C11_5 1_555 1_555
H7_5 C12_5 1_555 1_555
C14_5 C11_5 1_555 1_555
N2_5 C14_5 1_555 1_555
N3_5 N2_5 1_555 1_555
C15_5 N3_5 1_555 1_555
N4_5 C15_5 1_555 1_555
N5_5 C14_5 1_555 1_555
C16_5 C15_5 1_555 1_555
C17_5 C16_5 1_555 1_555
H9_5 C17_5 1_555 1_555
C18_5 C17_5 1_555 1_555
H10_5 C18_5 1_555 1_555
N6 C18_5 1_555 1_555
C19_5 N6 1_555 1_555
H11_5 C19_5 1_555 1_555
C20_5 C16_5 1_555 1_555
H12_5 C20_5 1_555 1_555
Cd2 N6 1_555 1_555
N4_5 N5_5 1_555 1_555
C19_5 C20_5 1_555 1_555
Cd2 O1_5 1_555 1_555
O1_5 C1_5 1_555 1_555
O2_5 Cd2 1_555 1_555
C1_5 O2_5 1_555 1_555
C2_5 C1_5 1_555 1_555
N1_5 Cd2 1_555 1_555
C9_5 N1_5 1_555 1_555
H5_5 C9_5 1_555 1_555
C13_5 N1_5 1_555 1_555
H8_5 C13_5 1_555 1_555
O5_2 Cd2 1_555 1_555
O6_2 Cd2 1_555 1_555
O7_3 Cd2 1_555 1_555
C4_5 C3_5 1_555 1_555
H2_5 C4_5 1_555 1_555
C5_5 C4_5 1_555 1_555
C6_5 C5_5 1_555 1_555
O3_3 C6_5 1_555 1_555
O4_3 C6_5 1_555 1_555
C7_5 C5_5 1_555 1_555
H3_5 C7_5 1_555 1_555
H4_5 C8_5 1_555 1_555
Cd4_2 O3_3 1_555 1_555
O4_3 Cd4_2 1_555 1_555
C7_5 C8_5 1_555 1_555
H6_6 C10_6 1_555 1_555
C11_6 C10_6 1_555 1_555
C12_6 C11_6 1_555 1_555
H7_6 C12_6 1_555 1_555
C14_6 C11_6 1_555 1_555
N2_6 C14_6 1_555 1_555
N3_6 N2_6 1_555 1_555
C15_6 N3_6 1_555 1_555
N4_6 C15_6 1_555 1_555
N5_6 C14_6 1_555 1_555
C16_6 C15_6 1_555 1_555
C17_6 C16_6 1_555 1_555
H9_6 C17_6 1_555 1_555
C18_6 C17_6 1_555 1_555
H10_6 C18_6 1_555 1_555
N6_2 C18_6 1_555 1_555
C19_6 N6_2 1_555 1_555
H11_6 C19_6 1_555 1_555
C20_6 C16_6 1_555 1_555
H12_6 C20_6 1_555 1_555
Cd2_2 N6_2 1_555 1_555
N4_6 N5_6 1_555 1_555
C19_6 C20_6 1_555 1_555
Cd2_2 O1_6 1_555 1_555
O1_6 C1_6 1_555 1_555
O2_6 Cd2_2 1_555 1_555
C1_6 O2_6 1_555 1_555
C2_6 C1_6 1_555 1_555
C3_6 C2_6 1_555 1_555
H1_6 C3_6 1_555 1_555
C4_6 C3_6 1_555 1_555
H2_6 C4_6 1_555 1_555
C5_6 C4_6 1_555 1_555
C6_6 C5_6 1_555 1_555
O3_4 C6_6 1_555 1_555
O4_4 C6_6 1_555 1_555
C7_6 C5_6 1_555 1_555
H3_6 C7_6 1_555 1_555
C8_6 C2_6 1_555 1_555
H4_6 C8_6 1_555 1_555
N1_6 Cd2_2 1_555 1_555
C9_6 N1_6 1_555 1_555
H5_6 C9_6 1_555 1_555
C13_6 N1_6 1_555 1_555
H8_6 C13_6 1_555 1_555
Cd3_2 O3_4 1_555 1_555
O6_2 Cd2_2 1_555 1_555
O5_2 Cd2_2 1_555 1_555
O7_4 Cd2_2 1_555 1_555
O4_4 Cd3_2 1_555 1_555
C7_6 C8_6 1_555 1_555
H6_7 C10_7 1_555 1_555
C11_7 C10_7 1_555 1_555
C12_7 C11_7 1_555 1_555
H7_7 C12_7 1_555 1_555
C14_7 C11_7 1_555 1_555
N2_7 C14_7 1_555 1_555
N3_7 N2_7 1_555 1_555
C15_7 N3_7 1_555 1_555
N4_7 C15_7 1_555 1_555
N5_7 C14_7 1_555 1_555
C16_7 C15_7 1_555 1_555
C17_7 C16_7 1_555 1_555
H9_7 C17_7 1_555 1_555
C18_7 C17_7 1_555 1_555
H10_7 C18_7 1_555 1_555
N6_3 C18_7 1_555 1_555
C19_7 N6_3 1_555 1_555
H11_7 C19_7 1_555 1_555
C20_7 C16_7 1_555 1_555
H12_7 C20_7 1_555 1_555
Cd3_2 N6_3 1_555 1_555
N4_7 N5_7 1_555 1_555
C19_7 C20_7 1_555 1_555
C4_7 C3_7 1_555 1_555
H2_7 C4_7 1_555 1_555
C5_7 C4_7 1_555 1_555
C6_7 C5_7 1_555 1_555
O5_2 C6_7 1_555 1_555
O7_4 C6_7 1_555 1_555
C7_7 C5_7 1_555 1_555
H3_7 C7_7 1_555 1_555
H4_7 C8_7 1_555 1_555
C7_7 C8_7 1_555 1_555
Cd3_2 O1_7 1_555 1_555
O1_7 C1_7 1_555 1_555
O2_7 Cd3_2 1_555 1_555
C1_7 O2_7 1_555 1_555
C2_7 C1_7 1_555 1_555
N1_7 Cd3_2 1_555 1_555
C9_7 N1_7 1_555 1_555
H5_7 C9_7 1_555 1_555
C13_7 N1_7 1_555 1_555
H8_7 C13_7 1_555 1_555
H6_8 C10_8 1_555 1_555
C11_8 C10_8 1_555 1_555
C12_8 C11_8 1_555 1_555
H7_8 C12_8 1_555 1_555
C14_8 C11_8 1_555 1_555
N2_8 C14_8 1_555 1_555
N3_8 N2_8 1_555 1_555
C15_8 N3_8 1_555 1_555
N4_8 C15_8 1_555 1_555
N5_8 C14_8 1_555 1_555
C16_8 C15_8 1_555 1_555
C17_8 C16_8 1_555 1_555
H9_8 C17_8 1_555 1_555
C18_8 C17_8 1_555 1_555
H10_8 C18_8 1_555 1_555
N6_4 C18_8 1_555 1_555
C19_8 N6_4 1_555 1_555
H11_8 C19_8 1_555 1_555
C20_8 C16_8 1_555 1_555
H12_8 C20_8 1_555 1_555
Cd4_2 N6_4 1_555 1_555
N4_8 N5_8 1_555 1_555
C19_8 C20_8 1_555 1_555
Cd4_2 O1_8 1_555 1_555
O1_8 C1_8 1_555 1_555
O2_8 Cd4_2 1_555 1_555
C1_8 O2_8 1_555 1_555
C2_8 C1_8 1_555 1_555
C3_8 C2_8 1_555 1_555
H1_8 C3_8 1_555 1_555
C4_8 C3_8 1_555 1_555
H2_8 C4_8 1_555 1_555
C5_8 C4_8 1_555 1_555
C6_8 C5_8 1_555 1_555
O6_2 C6_8 1_555 1_555
O7_3 C6_8 1_555 1_555
C7_8 C5_8 1_555 1_555
H3_8 C7_8 1_555 1_555
C8_8 C2_8 1_555 1_555
H4_8 C8_8 1_555 1_555
N1_8 Cd4_2 1_555 1_555
C9_8 N1_8 1_555 1_555
H5_8 C9_8 1_555 1_555
C13_8 N1_8 1_555 1_555
H8_8 C13_8 1_555 1_555
C7_8 C8_8 1_555 1_555

#END
