
###############################################################################
#
# This file contains modified crystal structure data generated from the
# MOF subset of the Cambridge Structural Database (CSD) v543 
# hosted by the Cambridge Crystallographic Data Centre (CCDC).
#
# This work is licensed under the Creative Commons
# Attribution-NonCommercial-ShareAlike 4.0 International License.
# To view a copy of this license, visit
# http://creativecommons.org/licenses/by-nc-sa/4.0/
# or send a letter to
# Creative Commons, PO Box 1866, Mountain View, CA 94042, USA.
#
# CIF created using the CSD Python API on 29 September 2022
# The structure has been converted into the P1 space group
# The structure has a 3D framework
# The original CSD entry AVIHIY is in the tetragonal crystal system
# The original CSD entry AVIHIY is in a Sohncke space group
# The framework has been calculated to contain at least 10.0% void space
# The void calculation uses a probe of radius 1.32A, grid spacing 0.4
# H atom positions have been added when not included in the experimental data
#
###############################################################################

data_AVIHIY
_chemical_formula_moiety         '(C36 H20 Ho4 O27)n'
_symmetry_cell_setting           triclinic
_symmetry_space_group_name_H-M   'P 1'
_symmetry_Int_Tables_number      1
_space_group_name_Hall           'P 1'
loop_
_symmetry_equiv_pos_site_id
_symmetry_equiv_pos_as_xyz
1 x,y,z
_cell_length_a                   10.2550(3)
_cell_length_b                   10.2550(3)
_cell_length_c                   14.4940(3)
_cell_angle_alpha                90
_cell_angle_beta                 90
_cell_angle_gamma                90
_cell_volume                     1524.26
loop_
_atom_site_label
_atom_site_type_symbol
_atom_site_fract_x
_atom_site_fract_y
_atom_site_fract_z
C2 C 0.0447(8) 0.3936(8) 0.5040(5)
H1 H 0.0756 0.4387 0.4529
C3 C 0.0844(8) 0.1827(9) 0.4199(5)
O2 O 0.0943(6) 0.2412(5) 0.3443(3)
C5 C 0.0020(9) 0.4618(7) 0.5814(6)
O3 O 0.0789(7) 0.6629(5) 0.5251(4)
O4 O 0.1082(8) 0.0652(6) 0.4296(4)
C7 C 0.0412(8) 0.2604(8) 0.5032(5)
C8 C 0.0036(9) 0.6105(7) 0.5829(6)
Ho3 Ho 0.14978(3) 0.15017(3) 0.20535(7)
Ho5 Ho 0.15017(3) 0.85022(3) 0.45535(7)
O10 O 0.0652(6) 0.8918(8) 0.6796(4)
O12 O 0.8798(8) 0.0679(6) 0.7297(4)
Ho1 Ho 0.85022(3) 0.84983(3) 0.70535(7)
O1 O 0.9339(7) 0.6643(5) 0.6408(4)
C1 C 0.9090(8) 0.1831(8) 0.7406(5)
C4 C 0.9582(8) 0.3938(8) 0.6583(5)
H2 H 0.9304 0.4393 0.7102
C6 C 0.9558(8) 0.2595(8) 0.6583(5)
C9 C 0.9978(9) 0.1917(7) 0.5797(5)
H3 H 0.9966 0.1010 0.5789
O5 O 0.9053(6) 0.2388(6) 0.8162(3)
O6 O 0.6874(7) 0.6840(7) 0.7018(11)
Ho6 Ho 0.84983(3) 0.14978(3) 0.95535(7)
O8 O 0.9057(6) 0.7588(5) 0.8443(3)
O9 O 0.6629(5) 0.9211(7) 0.7751(4)
O11 O 0.7612(6) 0.9053(6) 0.5662(3)
H4 H 0.717555 0.607597 0.738081
H5 H 0.605302 0.718204 0.728893
O1_2 O 0.0661(7) 0.3357(5) 0.1408(4)
C1_2 C 0.0910(8) 0.8169(8) 0.2406(5)
C4_2 C 0.0418(8) 0.6062(8) 0.1583(5)
H2_2 H 0.0696 0.5607 0.2102
C6_2 C 0.0442(8) 0.7405(8) 0.1583(5)
C9_2 C 0.0022(9) 0.8083(7) 0.0797(5)
H3_2 H 0.0034 0.8990 0.0789
O5_2 O 0.0947(6) 0.7612(6) 0.3162(3)
O6_2 O 0.3126(7) 0.3160(7) 0.2018(11)
O7 O 0.1202(8) 0.9321(6) 0.2297(4)
O9_2 O 0.3371(5) 0.0789(7) 0.2751(4)
O11_2 O 0.2388(6) 0.0947(6) 0.0662(3)
H4_2 H 0.282445 0.392403 0.238081
H5_2 H 0.394698 0.281796 0.228893
C2_2 C 0.9553(8) 0.6064(8) 0.0040(5)
C5_2 C 0.9980(9) 0.5382(7) 0.0814(6)
O3_2 O 0.9211(7) 0.3371(5) 0.0251(4)
C7_2 C 0.9588(8) 0.7396(8) 0.0032(5)
C8_2 C 0.9964(9) 0.3895(7) 0.0829(6)
O10_2 O 0.9348(6) 0.1082(8) 0.1796(4)
H1_2 H 0.9244 0.5613 0.9529
C3_2 C 0.9156(8) 0.8173(9) 0.9199(5)
O4_2 O 0.8918(8) 0.9348(6) 0.9296(4)
C2_3 C 0.6064(8) 0.0447(8) 0.2540(5)
H1_3 H 0.5613 0.0756 0.2029
C3_3 C 0.8173(9) 0.0844(8) 0.1699(5)
O2_2 O 0.7588(5) 0.0943(6) 0.0943(3)
C5_3 C 0.5382(7) 0.0020(9) 0.3314(6)
C7_3 C 0.7396(8) 0.0412(8) 0.2532(5)
C8_3 C 0.3895(7) 0.0036(9) 0.3329(6)
O1_3 O 0.3357(5) 0.9339(7) 0.3908(4)
C1_3 C 0.8169(8) 0.9090(8) 0.4906(5)
C4_3 C 0.6062(8) 0.9582(8) 0.4083(5)
H2_3 H 0.5607 0.9304 0.4602
C6_3 C 0.7405(8) 0.9558(8) 0.4083(5)
C9_3 C 0.8083(7) 0.9978(9) 0.3297(5)
H3_3 H 0.8990 0.9966 0.3289
O6_3 O 0.3160(7) 0.6874(7) 0.4518(11)
O7_2 O 0.9321(6) 0.8798(8) 0.4797(4)
O8_2 O 0.2412(5) 0.9057(6) 0.5943(3)
H4_3 H 0.392403 0.717555 0.488081
H5_3 H 0.281796 0.605302 0.478893
O12_2 O 0.0679(6) 0.1202(8) 0.9797(4)
O1_4 O 0.6643(5) 0.0661(7) 0.8908(4)
C1_4 C 0.1831(8) 0.0910(8) 0.9906(5)
C4_4 C 0.3938(8) 0.0418(8) 0.9083(5)
H2_4 H 0.4393 0.0696 0.9602
C6_4 C 0.2595(8) 0.0442(8) 0.9083(5)
C9_4 C 0.1917(7) 0.0022(9) 0.8297(5)
H3_4 H 0.1010 0.0034 0.8289
O6_4 O 0.6840(7) 0.3126(7) 0.9518(11)
H4_4 H 0.607597 0.282445 0.988081
H5_4 H 0.718204 0.394698 0.978893
C2_4 C 0.3936(8) 0.9553(8) 0.7540(5)
H1_4 H 0.4387 0.9244 0.7029
C3_4 C 0.1827(9) 0.9156(8) 0.6699(5)
C5_4 C 0.4618(7) 0.9980(9) 0.8314(6)
C7_4 C 0.2604(8) 0.9588(8) 0.7532(5)
C8_4 C 0.6105(7) 0.9964(9) 0.8329(6)
loop_
_geom_bond_atom_site_label_1
_geom_bond_atom_site_label_2
_geom_bond_site_symmetry_1
_geom_bond_site_symmetry_2
C2 H1 1_555 1_555
C3 O2 1_555 1_555
O2 Ho3 1_555 1_555
C5 C2 1_555 1_555
O3 C8 1_555 1_555
O4 C3 1_555 1_555
C7 C2 1_555 1_555
C8 C5 1_555 1_555
Ho5 O3 1_555 1_555
C3 C7 1_555 1_555
Ho1 O1 1_555 1_555
C1 C6 1_555 1_555
C4 H2 1_555 1_555
C6 C4 1_555 1_555
C9 C6 1_555 1_555
H3 C9 1_555 1_555
O5 C1 1_555 1_555
O6 Ho1 1_555 1_555
O12 C1 1_555 1_555
Ho6 O5 1_555 1_555
O8 Ho1 1_555 1_555
O9 Ho1 1_555 1_555
O11 Ho1 1_555 1_555
O6 H4 1_555 1_555
O6 H5 1_555 1_555
Ho3 O1_2 1_555 1_555
C1_2 C6_2 1_555 1_555
C4_2 H2_2 1_555 1_555
C6_2 C4_2 1_555 1_555
C9_2 C6_2 1_555 1_555
H3_2 C9_2 1_555 1_555
O5_2 C1_2 1_555 1_555
O6_2 Ho3 1_555 1_555
O7 C1_2 1_555 1_555
Ho5 O5_2 1_555 1_555
O9_2 Ho3 1_555 1_555
O11_2 Ho3 1_555 1_555
O6_2 H4_2 1_555 1_555
O6_2 H5_2 1_555 1_555
C5_2 C2_2 1_555 1_555
O3_2 C8_2 1_555 1_555
C7_2 C2_2 1_555 1_555
C8_2 C5_2 1_555 1_555
C3_2 O8 1_555 1_555
O4_2 C3_2 1_555 1_555
C2_3 H1_3 1_555 1_555
C3_3 O2_2 1_555 1_555
C5_3 C2_3 1_555 1_555
O9_2 C8_3 1_555 1_555
O10_2 C3_3 1_555 1_555
C7_3 C2_3 1_555 1_555
C8_3 C5_3 1_555 1_555
C3_3 C7_3 1_555 1_555
Ho5 O1_3 1_555 1_555
C1_3 C6_3 1_555 1_555
C4_3 H2_3 1_555 1_555
C6_3 C4_3 1_555 1_555
C9_3 C6_3 1_555 1_555
H3_3 C9_3 1_555 1_555
O11 C1_3 1_555 1_555
O6_3 Ho5 1_555 1_555
O7_2 C1_3 1_555 1_555
O8_2 Ho5 1_555 1_555
O6_3 H4_3 1_555 1_555
O6_3 H5_3 1_555 1_555
Ho6 O1_4 1_555 1_555
C1_4 C6_4 1_555 1_555
C4_4 H2_4 1_555 1_555
C6_4 C4_4 1_555 1_555
C9_4 C6_4 1_555 1_555
H3_4 C9_4 1_555 1_555
O6_4 Ho6 1_555 1_555
O12_2 C1_4 1_555 1_555
O6_4 H4_4 1_555 1_555
O6_4 H5_4 1_555 1_555
C2_4 H1_4 1_555 1_555
C3_4 O8_2 1_555 1_555
C5_4 C2_4 1_555 1_555
O9 C8_4 1_555 1_555
O10 C3_4 1_555 1_555
C7_4 C2_4 1_555 1_555
C8_4 C5_4 1_555 1_555
C3_4 C7_4 1_555 1_555

#END
