
###############################################################################
#
# This file contains modified crystal structure data generated from the
# MOF subset of the Cambridge Structural Database (CSD) v543 
# hosted by the Cambridge Crystallographic Data Centre (CCDC).
#
# This work is licensed under the Creative Commons
# Attribution-NonCommercial-ShareAlike 4.0 International License.
# To view a copy of this license, visit
# http://creativecommons.org/licenses/by-nc-sa/4.0/
# or send a letter to
# Creative Commons, PO Box 1866, Mountain View, CA 94042, USA.
#
# CIF created using the CSD Python API on 29 September 2022
# The structure has been converted into the P1 space group
# The structure has a 3D framework
# The original CSD entry AVIVEG is in the tetragonal crystal system
# The framework has been calculated to contain at least 10.0% void space
# The void calculation uses a probe of radius 1.32A, grid spacing 0.4
# The framework is charged, counterions have been retained in the structure
#
###############################################################################

data_AVIVEG
_chemical_formula_moiety         '(C384 H256 Ag5 B19 F46 N64 S20 14-)n'
_symmetry_cell_setting           triclinic
_symmetry_space_group_name_H-M   'P 1'
_symmetry_Int_Tables_number      1
_space_group_name_Hall           'P 1'
loop_
_symmetry_equiv_pos_site_id
_symmetry_equiv_pos_as_xyz
1 x,y,z
_cell_length_a                   22.636(5)
_cell_length_b                   22.636(5)
_cell_length_c                   35.393(5)
_cell_angle_alpha                90
_cell_angle_beta                 90
_cell_angle_gamma                90
_cell_volume                     18135
loop_
_atom_site_label
_atom_site_type_symbol
_atom_site_fract_x
_atom_site_fract_y
_atom_site_fract_z
Ag1 Ag 0.336713(10) 0.086713(10) 0.6250
N1 N 0.23512(12) 0.09194(13) 0.64049(8)
C1 C 0.21733(15) 0.12485(18) 0.66954(10)
H1 H 0.2455 0.1473 0.6822
C2 C 0.16035(15) 0.12773(19) 0.68193(10)
H2 H 0.1505 0.1517 0.7023
C3 C 0.11730(13) 0.09469(14) 0.66391(8)
C4 C 0.13478(14) 0.06016(16) 0.63380(9)
H3 H 0.1074 0.0374 0.6208
C5 C 0.19411(14) 0.05989(17) 0.62317(9)
H4 H 0.2055 0.0361 0.6030
C6 C 0.05478(13) 0.09583(13) 0.67599(8)
S1 S 0.0000 0.09223(5) 0.64206(3)
C7 C 0.03144(12) 0.10007(13) 0.71144(8)
C8 C 0.06519(13) 0.09951(13) 0.74734(8)
C9 C 0.08324(17) 0.04764(16) 0.76305(10)
H5 H 0.0766 0.0121 0.7506
C10 C 0.11162(17) 0.04834(16) 0.79782(10)
H6 H 0.1228 0.0123 0.8082
N2 N 0.12380(11) 0.09621(11) 0.81705(7)
C11 C 0.10759(18) 0.14606(15) 0.80130(10)
H7 H 0.1165 0.1812 0.8137
C12 C 0.07782(19) 0.14906(16) 0.76719(11)
H8 H 0.0663 0.1857 0.7578
N6 N 0.34621(11) 0.12620(11) 0.56705(7)
N7 N 0.37620(11) 0.09621(11) 0.68295(7)
Ag3 Ag 0.163287(10) 0.086713(10) 0.8750
N5 N 0.34194(13) 0.98512(12) 0.60951(8)
S1_2 S 1.0000 0.09223(5) 0.64206(3)
C13 C 0.94522(13) 0.09583(13) 0.67599(8)
C14 C 0.88270(13) 0.09469(14) 0.66391(8)
C15 C 0.83965(15) 0.12773(19) 0.68193(10)
C16 C 0.78267(15) 0.12485(18) 0.66954(10)
N3 N 0.76488(12) 0.09194(13) 0.64049(8)
C17 C 0.80589(14) 0.05989(17) 0.62317(9)
C18 C 0.86522(14) 0.06016(16) 0.63380(9)
H9 H 0.8926 0.0374 0.6208
H10 H 0.7945 0.0361 0.6030
H11 H 0.7545 0.1473 0.6822
H12 H 0.8495 0.1517 0.7023
C19 C 0.96856(12) 0.10007(13) 0.71144(8)
C20 C 0.93481(13) 0.09951(13) 0.74734(8)
C21 C 0.91676(17) 0.04764(16) 0.76305(10)
H13 H 0.9234 0.0121 0.7506
C22 C 0.88838(17) 0.04834(16) 0.79782(10)
H14 H 0.8772 0.0123 0.8082
N4 N 0.87620(11) 0.09621(11) 0.81705(7)
C23 C 0.89241(18) 0.14606(15) 0.80130(10)
H15 H 0.8835 0.1812 0.8137
C24 C 0.92218(19) 0.14906(16) 0.76719(11)
H16 H 0.9337 0.1857 0.7578
Ag2 Ag 0.663287(10) 0.086713(10) 0.6250
Ag4 Ag 0.836713(10) 0.086713(10) 0.8750
C1_2 C 0.37485(18) 0.96733(15) 0.58046(10)
H1_2 H 0.3973 0.9955 0.5678
C2_2 C 0.37773(19) 0.91035(15) 0.56807(10)
H2_2 H 0.4017 0.9005 0.5477
C3_2 C 0.34469(14) 0.86730(13) 0.58609(8)
C4_2 C 0.31016(16) 0.88478(14) 0.61620(9)
H3_2 H 0.2874 0.8574 0.6292
C5_2 C 0.30989(17) 0.94411(14) 0.62683(9)
H4_2 H 0.2861 0.9555 0.6470
C6_2 C 0.34583(13) 0.80478(13) 0.57401(8)
S1_3 S 0.34223(5) 0.7500 0.60794(3)
C7_2 C 0.35007(13) 0.78144(12) 0.53856(8)
C8_2 C 0.34951(13) 0.81519(13) 0.50266(8)
C9_2 C 0.29764(16) 0.83324(17) 0.48695(10)
H5_2 H 0.2621 0.8266 0.4994
C10_2 C 0.29834(16) 0.86162(17) 0.45218(10)
H6_2 H 0.2623 0.8728 0.4418
N2_2 N 0.34621(11) 0.87380(11) 0.43295(7)
C11_2 C 0.39606(15) 0.85759(18) 0.44870(10)
H7_2 H 0.4312 0.8665 0.4363
C12_2 C 0.39906(16) 0.82782(19) 0.48281(11)
H8_2 H 0.4357 0.8163 0.4922
C13_2 C 0.34583(13) 0.69522(13) 0.57401(8)
C14_2 C 0.34469(14) 0.63270(13) 0.58609(8)
C15_2 C 0.37773(19) 0.58965(15) 0.56807(10)
C16_2 C 0.37485(18) 0.53267(15) 0.58046(10)
N3_2 N 0.34194(13) 0.51488(12) 0.60951(8)
C17_2 C 0.30989(17) 0.55589(14) 0.62683(9)
C18_2 C 0.31016(16) 0.61522(14) 0.61620(9)
H9_2 H 0.2874 0.6426 0.6292
H10_2 H 0.2861 0.5445 0.6470
H11_2 H 0.3973 0.5045 0.5678
H12_2 H 0.4017 0.5995 0.5477
C19_2 C 0.35007(13) 0.71856(12) 0.53856(8)
C20_2 C 0.34951(13) 0.68481(13) 0.50266(8)
C21_2 C 0.29764(16) 0.66676(17) 0.48695(10)
H13_2 H 0.2621 0.6734 0.4994
C22_2 C 0.29834(16) 0.63838(17) 0.45218(10)
H14_2 H 0.2623 0.6272 0.4418
N4_2 N 0.34621(11) 0.62620(11) 0.43295(7)
C23_2 C 0.39606(15) 0.64241(18) 0.44870(10)
H15_2 H 0.4312 0.6335 0.4363
C24_2 C 0.39906(16) 0.67218(19) 0.48281(11)
H16_2 H 0.4357 0.6837 0.4922
Ag2_2 Ag 0.336713(10) 0.413287(10) 0.6250
Ag3_2 Ag 0.336713(10) 0.913287(10) 0.3750
Ag4_2 Ag 0.336713(10) 0.586713(10) 0.3750
N1_2 N 0.34194(13) 0.01488(12) 0.39049(8)
C1_3 C 0.37485(18) 0.03267(15) 0.41954(10)
H1_3 H 0.3973 0.0045 0.4322
C2_3 C 0.37773(19) 0.08965(15) 0.43193(10)
H2_3 H 0.4017 0.0995 0.4523
C3_3 C 0.34469(14) 0.13270(13) 0.41391(8)
C4_3 C 0.31016(16) 0.11522(14) 0.38380(9)
H3_3 H 0.2874 0.1426 0.3708
C5_3 C 0.30989(17) 0.05589(14) 0.37317(9)
H4_3 H 0.2861 0.0445 0.3530
C6_3 C 0.34583(13) 0.19522(13) 0.42599(8)
S1_4 S 0.34223(5) 0.2500 0.39206(3)
C7_3 C 0.35007(13) 0.21856(12) 0.46144(8)
C8_3 C 0.34951(13) 0.18481(13) 0.49734(8)
C9_3 C 0.29764(16) 0.16676(17) 0.51305(10)
H5_3 H 0.2621 0.1734 0.5006
C10_3 C 0.29834(16) 0.13838(17) 0.54782(10)
H6_3 H 0.2623 0.1272 0.5582
C11_3 C 0.39606(15) 0.14241(18) 0.55130(10)
H7_3 H 0.4312 0.1335 0.5637
C12_3 C 0.39906(16) 0.17218(19) 0.51719(11)
H8_3 H 0.4357 0.1837 0.5078
C13_3 C 0.34583(13) 0.30478(13) 0.42599(8)
C14_3 C 0.34469(14) 0.36730(13) 0.41391(8)
C15_3 C 0.37773(19) 0.41035(15) 0.43193(10)
C16_3 C 0.37485(18) 0.46733(15) 0.41954(10)
N3_3 N 0.34194(13) 0.48512(12) 0.39049(8)
C17_3 C 0.30989(17) 0.44411(14) 0.37317(9)
C18_3 C 0.31016(16) 0.38478(14) 0.38380(9)
H9_3 H 0.2874 0.3574 0.3708
H10_3 H 0.2861 0.4555 0.3530
H11_3 H 0.3973 0.4955 0.4322
H12_3 H 0.4017 0.4005 0.4523
C19_3 C 0.35007(13) 0.28144(12) 0.46144(8)
C20_3 C 0.34951(13) 0.31519(13) 0.49734(8)
C21_3 C 0.29764(16) 0.33324(17) 0.51305(10)
H13_3 H 0.2621 0.3266 0.5006
C22_3 C 0.29834(16) 0.36162(17) 0.54782(10)
H14_3 H 0.2623 0.3728 0.5582
N4_3 N 0.34621(11) 0.37380(11) 0.56705(7)
C23_3 C 0.39606(15) 0.35759(18) 0.55130(10)
H15_3 H 0.4312 0.3665 0.5637
C24_3 C 0.39906(16) 0.32782(19) 0.51719(11)
H16_3 H 0.4357 0.3163 0.5078
N5_2 N 0.23512(12) 0.90806(13) 0.35951(8)
N6_2 N 0.37620(11) 0.90379(11) 0.31705(7)
N5_3 N 0.26488(12) 0.09194(13) 0.85951(8)
N7_2 N 0.15379(11) 0.12620(11) 0.93295(7)
C9_4 C 0.20236(16) 0.83324(17) 0.01305(10)
H5_4 H 0.2379 0.8266 0.0006
C10_4 C 0.20166(16) 0.86162(17) 0.04782(10)
H6_4 H 0.2377 0.8728 0.0582
N2_3 N 0.15379(11) 0.87380(11) 0.06705(7)
C11_4 C 0.10394(15) 0.85759(18) 0.05130(10)
H7_4 H 0.0688 0.8665 0.0637
C12_4 C 0.10094(16) 0.82782(19) 0.01719(11)
H8_4 H 0.0643 0.8163 0.0078
C21_4 C 0.20236(16) 0.66676(17) 0.01305(10)
H13_4 H 0.2379 0.6734 0.0006
C22_4 C 0.20166(16) 0.63838(17) 0.04782(10)
H14_4 H 0.2377 0.6272 0.0582
N4_4 N 0.15379(11) 0.62620(11) 0.06705(7)
C23_4 C 0.10394(15) 0.64241(18) 0.05130(10)
H15_4 H 0.0688 0.6335 0.0637
C24_4 C 0.10094(16) 0.67218(19) 0.01719(11)
H16_4 H 0.0643 0.6837 0.0078
Ag3_3 Ag 0.163287(10) 0.913287(10) 0.1250
Ag4_3 Ag 0.163287(10) 0.586713(10) 0.1250
N1_3 N 0.15806(13) 0.98512(12) 0.89049(8)
C1_4 C 0.12515(18) 0.96733(15) 0.91954(10)
H1_4 H 0.1027 0.9955 0.9322
C2_4 C 0.12227(19) 0.91035(15) 0.93193(10)
H2_4 H 0.0983 0.9005 0.9523
C3_4 C 0.15531(14) 0.86730(13) 0.91391(8)
C4_4 C 0.18984(16) 0.88478(14) 0.88380(9)
H3_4 H 0.2126 0.8574 0.8708
C5_4 C 0.19011(17) 0.94411(14) 0.87317(9)
H4_4 H 0.2139 0.9555 0.8530
C6_4 C 0.15417(13) 0.80478(13) 0.92599(8)
S1_5 S 0.15777(5) 0.7500 0.89206(3)
C7_4 C 0.14993(13) 0.78144(12) 0.96144(8)
C8_4 C 0.15049(13) 0.81519(13) 0.99734(8)
C13_4 C 0.15417(13) 0.69522(13) 0.92599(8)
C14_4 C 0.15531(14) 0.63270(13) 0.91391(8)
C15_4 C 0.12227(19) 0.58965(15) 0.93193(10)
C16_4 C 0.12515(18) 0.53267(15) 0.91954(10)
N3_4 N 0.15806(13) 0.51488(12) 0.89049(8)
C17_4 C 0.19011(17) 0.55589(14) 0.87317(9)
C18_4 C 0.18984(16) 0.61522(14) 0.88380(9)
H9_4 H 0.2126 0.6426 0.8708
H10_4 H 0.2139 0.5445 0.8530
H11_4 H 0.1027 0.5045 0.9322
H12_4 H 0.0983 0.5995 0.9523
C19_4 C 0.14993(13) 0.71856(12) 0.96144(8)
C20_4 C 0.15049(13) 0.68481(13) 0.99734(8)
Ag2_3 Ag 0.163287(10) 0.413287(10) 0.8750
Ag1_2 Ag 0.836713(10) 0.586713(10) 0.1250
N1_4 N 0.73512(12) 0.59194(13) 0.14049(8)
C1_5 C 0.71733(15) 0.62485(18) 0.16954(10)
H1_5 H 0.7455 0.6473 0.1822
C2_5 C 0.66035(15) 0.62773(19) 0.18193(10)
H2_5 H 0.6505 0.6517 0.2023
C3_5 C 0.61730(13) 0.59469(14) 0.16391(8)
C4_5 C 0.63478(14) 0.56016(16) 0.13380(9)
H3_5 H 0.6074 0.5374 0.1208
C5_5 C 0.69411(14) 0.55989(17) 0.12317(9)
H4_5 H 0.7055 0.5361 0.1030
C6_5 C 0.55478(13) 0.59583(13) 0.17599(8)
S1_6 S 0.5000 0.59223(5) 0.14206(3)
C7_5 C 0.53144(12) 0.60007(13) 0.21144(8)
C8_5 C 0.56519(13) 0.59951(13) 0.24734(8)
C9_5 C 0.58324(17) 0.54764(16) 0.26305(10)
H5_5 H 0.5766 0.5121 0.2506
C10_5 C 0.61162(17) 0.54834(16) 0.29782(10)
H6_5 H 0.6228 0.5123 0.3082
N2_4 N 0.62380(11) 0.59621(11) 0.31705(7)
C11_5 C 0.60759(18) 0.64606(15) 0.30130(10)
H7_5 H 0.6165 0.6812 0.3137
C12_5 C 0.57782(19) 0.64906(16) 0.26719(11)
H8_5 H 0.5663 0.6857 0.2578
C13_5 C 0.44522(13) 0.59583(13) 0.17599(8)
C14_5 C 0.38270(13) 0.59469(14) 0.16391(8)
C15_5 C 0.33965(15) 0.62773(19) 0.18193(10)
C16_5 C 0.28267(15) 0.62485(18) 0.16954(10)
N3_5 N 0.26488(12) 0.59194(13) 0.14049(8)
C17_5 C 0.30589(14) 0.55989(17) 0.12317(9)
C18_5 C 0.36522(14) 0.56016(16) 0.13380(9)
H9_5 H 0.3926 0.5374 0.1208
H10_5 H 0.2945 0.5361 0.1030
H11_5 H 0.2545 0.6473 0.1822
H12_5 H 0.3495 0.6517 0.2023
C19_5 C 0.46856(12) 0.60007(13) 0.21144(8)
C20_5 C 0.43481(13) 0.59951(13) 0.24734(8)
C21_5 C 0.41676(17) 0.54764(16) 0.26305(10)
H13_5 H 0.4234 0.5121 0.2506
C22_5 C 0.38838(17) 0.54834(16) 0.29782(10)
H14_5 H 0.3772 0.5123 0.3082
N4_5 N 0.37620(11) 0.59621(11) 0.31705(7)
C23_5 C 0.39241(18) 0.64606(15) 0.30130(10)
H15_5 H 0.3835 0.6812 0.3137
C24_5 C 0.42218(19) 0.64906(16) 0.26719(11)
H16_5 H 0.4337 0.6857 0.2578
N5_4 N 0.84194(13) 0.48512(12) 0.10951(8)
N6_3 N 0.84621(11) 0.62620(11) 0.06705(7)
N7_3 N 0.87620(11) 0.59621(11) 0.18295(7)
Ag3_4 Ag 0.663287(10) 0.586713(10) 0.3750
C1_6 C 0.87485(18) 0.46733(15) 0.08046(10)
H1_6 H 0.8973 0.4955 0.0678
C2_6 C 0.87773(19) 0.41035(15) 0.06807(10)
H2_6 H 0.9017 0.4005 0.0477
C3_6 C 0.84469(14) 0.36730(13) 0.08609(8)
C4_6 C 0.81016(16) 0.38478(14) 0.11620(9)
H3_6 H 0.7874 0.3574 0.1292
C5_6 C 0.80989(17) 0.44411(14) 0.12683(9)
H4_6 H 0.7861 0.4555 0.1470
C6_6 C 0.84583(13) 0.30478(13) 0.07401(8)
S1_7 S 0.84223(5) 0.2500 0.10794(3)
C7_6 C 0.85007(13) 0.28144(12) 0.03856(8)
C8_6 C 0.84951(13) 0.31519(13) 0.00266(8)
C13_6 C 0.84583(13) 0.19522(13) 0.07401(8)
C14_6 C 0.84469(14) 0.13270(13) 0.08609(8)
C15_6 C 0.87773(19) 0.08965(15) 0.06807(10)
C16_6 C 0.87485(18) 0.03267(15) 0.08046(10)
N3_6 N 0.84194(13) 0.01488(12) 0.10951(8)
C17_6 C 0.80989(17) 0.05589(14) 0.12683(9)
C18_6 C 0.81016(16) 0.11522(14) 0.11620(9)
H9_6 H 0.7874 0.1426 0.1292
H10_6 H 0.7861 0.0445 0.1470
H11_6 H 0.8973 0.0045 0.0678
H12_6 H 0.9017 0.0995 0.0477
C19_6 C 0.85007(13) 0.21856(12) 0.03856(8)
C20_6 C 0.84951(13) 0.18481(13) 0.00266(8)
C9_6 C 0.79764(16) 0.33324(17) 0.98695(10)
H5_6 H 0.7621 0.3266 0.9994
C10_6 C 0.79834(16) 0.36162(17) 0.95218(10)
H6_6 H 0.7623 0.3728 0.9418
N2_5 N 0.84621(11) 0.37380(11) 0.93295(7)
C11_6 C 0.89606(15) 0.35759(18) 0.94870(10)
H7_6 H 0.9312 0.3665 0.9363
C12_6 C 0.89906(16) 0.32782(19) 0.98281(11)
H8_6 H 0.9357 0.3163 0.9922
C21_6 C 0.79764(16) 0.16676(17) 0.98695(10)
H13_6 H 0.7621 0.1734 0.9994
C22_6 C 0.79834(16) 0.13838(17) 0.95218(10)
H14_6 H 0.7623 0.1272 0.9418
N4_6 N 0.84621(11) 0.12620(11) 0.93295(7)
C23_6 C 0.89606(15) 0.14241(18) 0.94870(10)
H15_6 H 0.9312 0.1335 0.9363
C24_6 C 0.89906(16) 0.17218(19) 0.98281(11)
H16_6 H 0.9357 0.1837 0.9922
Ag3_5 Ag 0.836713(10) 0.413287(10) 0.8750
Ag2_4 Ag 0.836713(10) 0.913287(10) 0.1250
C9_7 C 0.79764(16) 0.66676(17) 0.01305(10)
H5_7 H 0.7621 0.6734 0.0006
C10_7 C 0.79834(16) 0.63838(17) 0.04782(10)
H6_7 H 0.7623 0.6272 0.0582
C11_7 C 0.89606(15) 0.64241(18) 0.05130(10)
H7_7 H 0.9312 0.6335 0.0637
C12_7 C 0.89906(16) 0.67218(19) 0.01719(11)
H8_7 H 0.9357 0.6837 0.0078
C21_7 C 0.79764(16) 0.83324(17) 0.01305(10)
H13_7 H 0.7621 0.8266 0.0006
C22_7 C 0.79834(16) 0.86162(17) 0.04782(10)
H14_7 H 0.7623 0.8728 0.0582
N4_7 N 0.84621(11) 0.87380(11) 0.06705(7)
C23_7 C 0.89606(15) 0.85759(18) 0.05130(10)
H15_7 H 0.9312 0.8665 0.0637
C24_7 C 0.89906(16) 0.82782(19) 0.01719(11)
H16_7 H 0.9357 0.8163 0.0078
N1_5 N 0.84194(13) 0.51488(12) 0.89049(8)
C1_7 C 0.87485(18) 0.53267(15) 0.91954(10)
H1_7 H 0.8973 0.5045 0.9322
C2_7 C 0.87773(19) 0.58965(15) 0.93193(10)
H2_7 H 0.9017 0.5995 0.9523
C3_7 C 0.84469(14) 0.63270(13) 0.91391(8)
C4_7 C 0.81016(16) 0.61522(14) 0.88380(9)
H3_7 H 0.7874 0.6426 0.8708
C5_7 C 0.80989(17) 0.55589(14) 0.87317(9)
H4_7 H 0.7861 0.5445 0.8530
C6_7 C 0.84583(13) 0.69522(13) 0.92599(8)
S1_8 S 0.84223(5) 0.7500 0.89206(3)
C7_7 C 0.85007(13) 0.71856(12) 0.96144(8)
C8_7 C 0.84951(13) 0.68481(13) 0.99734(8)
C13_7 C 0.84583(13) 0.80478(13) 0.92599(8)
C14_7 C 0.84469(14) 0.86730(13) 0.91391(8)
C15_7 C 0.87773(19) 0.91035(15) 0.93193(10)
C16_7 C 0.87485(18) 0.96733(15) 0.91954(10)
N3_7 N 0.84194(13) 0.98512(12) 0.89049(8)
C17_7 C 0.80989(17) 0.94411(14) 0.87317(9)
C18_7 C 0.81016(16) 0.88478(14) 0.88380(9)
H9_7 H 0.7874 0.8574 0.8708
H10_7 H 0.7861 0.9555 0.8530
H11_7 H 0.8973 0.9955 0.9322
H12_7 H 0.9017 0.9005 0.9523
C19_7 C 0.85007(13) 0.78144(12) 0.96144(8)
C20_7 C 0.84951(13) 0.81519(13) 0.99734(8)
N5_5 N 0.73512(12) 0.40806(13) 0.85951(8)
N6_4 N 0.87620(11) 0.40379(11) 0.81705(7)
N1_6 N 0.65806(13) 0.48512(12) 0.39049(8)
C1_8 C 0.62515(18) 0.46733(15) 0.41954(10)
H1_8 H 0.6027 0.4955 0.4322
C2_8 C 0.62227(19) 0.41035(15) 0.43193(10)
H2_8 H 0.5983 0.4005 0.4523
C3_8 C 0.65531(14) 0.36730(13) 0.41391(8)
C4_8 C 0.68984(16) 0.38478(14) 0.38380(9)
H3_8 H 0.7126 0.3574 0.3708
C5_8 C 0.69011(17) 0.44411(14) 0.37317(9)
H4_8 H 0.7139 0.4555 0.3530
C6_8 C 0.65417(13) 0.30478(13) 0.42599(8)
S1_9 S 0.65777(5) 0.2500 0.39206(3)
C7_8 C 0.64993(13) 0.28144(12) 0.46144(8)
C8_8 C 0.65049(13) 0.31519(13) 0.49734(8)
C9_8 C 0.70236(16) 0.33324(17) 0.51305(10)
H5_8 H 0.7379 0.3266 0.5006
C10_8 C 0.70166(16) 0.36162(17) 0.54782(10)
H6_8 H 0.7377 0.3728 0.5582
N2_6 N 0.65379(11) 0.37380(11) 0.56705(7)
C11_8 C 0.60394(15) 0.35759(18) 0.55130(10)
H7_8 H 0.5688 0.3665 0.5637
C12_8 C 0.60094(16) 0.32782(19) 0.51719(11)
H8_8 H 0.5643 0.3163 0.5078
C13_8 C 0.65417(13) 0.19522(13) 0.42599(8)
C14_8 C 0.65531(14) 0.13270(13) 0.41391(8)
C15_8 C 0.62227(19) 0.08965(15) 0.43193(10)
C16_8 C 0.62515(18) 0.03267(15) 0.41954(10)
N3_8 N 0.65806(13) 0.01488(12) 0.39049(8)
C17_8 C 0.69011(17) 0.05589(14) 0.37317(9)
C18_8 C 0.68984(16) 0.11522(14) 0.38380(9)
H9_8 H 0.7126 0.1426 0.3708
H10_8 H 0.7139 0.0445 0.3530
H11_8 H 0.6027 0.0045 0.4322
H12_8 H 0.5983 0.0995 0.4523
C19_8 C 0.64993(13) 0.21856(12) 0.46144(8)
C20_8 C 0.65049(13) 0.18481(13) 0.49734(8)
C21_8 C 0.70236(16) 0.16676(17) 0.51305(10)
H13_8 H 0.7379 0.1734 0.5006
C22_8 C 0.70166(16) 0.13838(17) 0.54782(10)
H14_8 H 0.7377 0.1272 0.5582
N4_8 N 0.65379(11) 0.12620(11) 0.56705(7)
C23_8 C 0.60394(15) 0.14241(18) 0.55130(10)
H15_8 H 0.5688 0.1335 0.5637
C24_8 C 0.60094(16) 0.17218(19) 0.51719(11)
H16_8 H 0.5643 0.1837 0.5078
N5_6 N 0.76488(12) 0.59194(13) 0.35951(8)
N7_4 N 0.65379(11) 0.62620(11) 0.43295(7)
Ag3_6 Ag 0.663287(10) 0.413287(10) 0.6250
Ag2_5 Ag 0.663287(10) 0.913287(10) 0.3750
S1_10 S -0.0000 0.40777(5) 0.64206(3)
C13_9 C 0.05478(13) 0.40417(13) 0.67599(8)
C14_9 C 0.11730(13) 0.40531(14) 0.66391(8)
C15_9 C 0.16035(15) 0.37227(19) 0.68193(10)
C16_9 C 0.21733(15) 0.37515(18) 0.66954(10)
N3_9 N 0.23512(12) 0.40806(13) 0.64049(8)
C17_9 C 0.19411(14) 0.44011(17) 0.62317(9)
C18_9 C 0.13478(14) 0.43984(16) 0.63380(9)
H9_9 H 0.1074 0.4626 0.6208
H10_9 H 0.2055 0.4639 0.6030
H11_9 H 0.2455 0.3527 0.6822
H12_9 H 0.1505 0.3483 0.7023
C19_9 C 0.03144(12) 0.39993(13) 0.71144(8)
C20_9 C 0.06519(13) 0.40049(13) 0.74734(8)
C21_9 C 0.08324(17) 0.45236(16) 0.76305(10)
H13_9 H 0.0766 0.4879 0.7506
C22_9 C 0.11162(17) 0.45166(16) 0.79782(10)
H14_9 H 0.1228 0.4877 0.8082
N4_9 N 0.12380(11) 0.40379(11) 0.81705(7)
C23_9 C 0.10759(18) 0.35394(15) 0.80130(10)
H15_9 H 0.1165 0.3188 0.8137
C24_9 C 0.07782(19) 0.35094(16) 0.76719(11)
H16_9 H 0.0663 0.3143 0.7578
N1_7 N 0.76488(12) 0.40806(13) 0.64049(8)
C1_9 C 0.78267(15) 0.37515(18) 0.66954(10)
H1_9 H 0.7545 0.3527 0.6822
C2_9 C 0.83965(15) 0.37227(19) 0.68193(10)
H2_9 H 0.8495 0.3483 0.7023
C3_9 C 0.88270(13) 0.40531(14) 0.66391(8)
C4_9 C 0.86522(14) 0.43984(16) 0.63380(9)
H3_9 H 0.8926 0.4626 0.6208
C5_9 C 0.80589(14) 0.44011(17) 0.62317(9)
H4_9 H 0.7945 0.4639 0.6030
C6_9 C 0.94522(13) 0.40417(13) 0.67599(8)
S1_11 S 1.0000 0.40777(5) 0.64206(3)
C7_9 C 0.96856(12) 0.39993(13) 0.71144(8)
C8_9 C 0.93481(13) 0.40049(13) 0.74734(8)
C9_9 C 0.91676(17) 0.45236(16) 0.76305(10)
H5_9 H 0.9234 0.4879 0.7506
C10_9 C 0.88838(17) 0.45166(16) 0.79782(10)
H6_9 H 0.8772 0.4877 0.8082
C11_9 C 0.89241(18) 0.35394(15) 0.80130(10)
H7_9 H 0.8835 0.3188 0.8137
C12_9 C 0.92218(19) 0.35094(16) 0.76719(11)
H8_9 H 0.9337 0.3143 0.7578
N5_7 N 0.65806(13) 0.51488(12) 0.60951(8)
N7_5 N 0.62380(11) 0.40379(11) 0.68295(7)
C1_10 C 0.21733(15) 0.87515(18) 0.33046(10)
H1_10 H 0.2455 0.8527 0.3178
C2_10 C 0.16035(15) 0.87227(19) 0.31807(10)
H2_10 H 0.1505 0.8483 0.2977
C3_10 C 0.11730(13) 0.90531(14) 0.33609(8)
C4_10 C 0.13478(14) 0.93984(16) 0.36620(9)
H3_10 H 0.1074 0.9626 0.3792
C5_10 C 0.19411(14) 0.94011(17) 0.37683(9)
H4_10 H 0.2055 0.9639 0.3970
C6_10 C 0.05478(13) 0.90417(13) 0.32401(8)
S1_12 S -0.0000 0.90777(5) 0.35794(3)
C7_10 C 0.03144(12) 0.89993(13) 0.28856(8)
C8_10 C 0.06519(13) 0.90049(13) 0.25266(8)
C9_10 C 0.08324(17) 0.95236(16) 0.23695(10)
H5_10 H 0.0766 0.9879 0.2494
C10_10 C 0.11162(17) 0.95166(16) 0.20218(10)
H6_10 H 0.1228 0.9877 0.1918
N2_7 N 0.12380(11) 0.90379(11) 0.18295(7)
C11_10 C 0.10759(18) 0.85394(15) 0.19870(10)
H7_10 H 0.1165 0.8188 0.1863
C12_10 C 0.07782(19) 0.85094(16) 0.23281(11)
H8_10 H 0.0663 0.8143 0.2422
S1_13 S 1.0000 0.90777(5) 0.35794(3)
C13_10 C 0.94522(13) 0.90417(13) 0.32401(8)
C14_10 C 0.88270(13) 0.90531(14) 0.33609(8)
C15_10 C 0.83965(15) 0.87227(19) 0.31807(10)
C16_10 C 0.78267(15) 0.87515(18) 0.33046(10)
N3_10 N 0.76488(12) 0.90806(13) 0.35951(8)
C17_10 C 0.80589(14) 0.94011(17) 0.37683(9)
C18_10 C 0.86522(14) 0.93984(16) 0.36620(9)
H9_10 H 0.8926 0.9626 0.3792
H10_10 H 0.7945 0.9639 0.3970
H11_10 H 0.7545 0.8527 0.3178
H12_10 H 0.8495 0.8483 0.2977
C19_10 C 0.96856(12) 0.89993(13) 0.28856(8)
C20_10 C 0.93481(13) 0.90049(13) 0.25266(8)
C21_10 C 0.91676(17) 0.95236(16) 0.23695(10)
H13_10 H 0.9234 0.9879 0.2494
C22_10 C 0.88838(17) 0.95166(16) 0.20218(10)
H14_10 H 0.8772 0.9877 0.1918
N4_10 N 0.87620(11) 0.90379(11) 0.18295(7)
C23_10 C 0.89241(18) 0.85394(15) 0.19870(10)
H15_10 H 0.8835 0.8188 0.1863
C24_10 C 0.92218(19) 0.85094(16) 0.23281(11)
H16_10 H 0.9337 0.8143 0.2422
S1_14 S 0.0000 0.59223(5) 0.35794(3)
C13_11 C 0.05478(13) 0.59583(13) 0.32401(8)
C14_11 C 0.11730(13) 0.59469(14) 0.33609(8)
C15_11 C 0.16035(15) 0.62773(19) 0.31807(10)
C16_11 C 0.21733(15) 0.62485(18) 0.33046(10)
N3_11 N 0.23512(12) 0.59194(13) 0.35951(8)
C17_11 C 0.19411(14) 0.55989(17) 0.37683(9)
C18_11 C 0.13478(14) 0.56016(16) 0.36620(9)
H9_11 H 0.1074 0.5374 0.3792
H10_11 H 0.2055 0.5361 0.3970
H11_11 H 0.2455 0.6473 0.3178
H12_11 H 0.1505 0.6517 0.2977
C19_11 C 0.03144(12) 0.60007(13) 0.28856(8)
C20_11 C 0.06519(13) 0.59951(13) 0.25266(8)
C21_11 C 0.08324(17) 0.54764(16) 0.23695(10)
H13_11 H 0.0766 0.5121 0.2494
C22_11 C 0.11162(17) 0.54834(16) 0.20218(10)
H14_11 H 0.1228 0.5123 0.1918
N4_11 N 0.12380(11) 0.59621(11) 0.18295(7)
C23_11 C 0.10759(18) 0.64606(15) 0.19870(10)
H15_11 H 0.1165 0.6812 0.1863
C24_11 C 0.07782(19) 0.64906(16) 0.23281(11)
H16_11 H 0.0663 0.6857 0.2422
C1_11 C 0.78267(15) 0.62485(18) 0.33046(10)
H1_11 H 0.7545 0.6473 0.3178
C2_11 C 0.83965(15) 0.62773(19) 0.31807(10)
H2_11 H 0.8495 0.6517 0.2977
C3_11 C 0.88270(13) 0.59469(14) 0.33609(8)
C4_11 C 0.86522(14) 0.56016(16) 0.36620(9)
H3_11 H 0.8926 0.5374 0.3792
C5_11 C 0.80589(14) 0.55989(17) 0.37683(9)
H4_11 H 0.7945 0.5361 0.3970
C6_11 C 0.94522(13) 0.59583(13) 0.32401(8)
S1_15 S 1.0000 0.59223(5) 0.35794(3)
C7_11 C 0.96856(12) 0.60007(13) 0.28856(8)
C8_11 C 0.93481(13) 0.59951(13) 0.25266(8)
C9_11 C 0.91676(17) 0.54764(16) 0.23695(10)
H5_11 H 0.9234 0.5121 0.2494
C10_11 C 0.88838(17) 0.54834(16) 0.20218(10)
H6_11 H 0.8772 0.5123 0.1918
C11_11 C 0.89241(18) 0.64606(15) 0.19870(10)
H7_11 H 0.8835 0.6812 0.1863
C12_11 C 0.92218(19) 0.64906(16) 0.23281(11)
H8_11 H 0.9337 0.6857 0.2422
N1_8 N 0.15806(13) 0.01488(12) 0.10951(8)
C1_12 C 0.12515(18) 0.03267(15) 0.08046(10)
H1_12 H 0.1027 0.0045 0.0678
C2_12 C 0.12227(19) 0.08965(15) 0.06807(10)
H2_12 H 0.0983 0.0995 0.0477
C3_12 C 0.15531(14) 0.13270(13) 0.08609(8)
C4_12 C 0.18984(16) 0.11522(14) 0.11620(9)
H3_12 H 0.2126 0.1426 0.1292
C5_12 C 0.19011(17) 0.05589(14) 0.12683(9)
H4_12 H 0.2139 0.0445 0.1470
C6_12 C 0.15417(13) 0.19522(13) 0.07401(8)
S1_16 S 0.15777(5) 0.2500 0.10794(3)
C7_12 C 0.14993(13) 0.21856(12) 0.03856(8)
C8_12 C 0.15049(13) 0.18481(13) 0.00266(8)
C13_12 C 0.15417(13) 0.30478(13) 0.07401(8)
C14_12 C 0.15531(14) 0.36730(13) 0.08609(8)
C15_12 C 0.12227(19) 0.41035(15) 0.06807(10)
C16_12 C 0.12515(18) 0.46733(15) 0.08046(10)
N3_12 N 0.15806(13) 0.48512(12) 0.10951(8)
C17_12 C 0.19011(17) 0.44411(14) 0.12683(9)
C18_12 C 0.18984(16) 0.38478(14) 0.11620(9)
H9_12 H 0.2126 0.3574 0.1292
H10_12 H 0.2139 0.4555 0.1470
H11_12 H 0.1027 0.4955 0.0678
H12_12 H 0.0983 0.4005 0.0477
C19_12 C 0.14993(13) 0.28144(12) 0.03856(8)
C20_12 C 0.15049(13) 0.31519(13) 0.00266(8)
C9_12 C 0.20236(16) 0.16676(17) 0.98695(10)
H5_12 H 0.2379 0.1734 0.9994
C10_12 C 0.20166(16) 0.13838(17) 0.95218(10)
H6_12 H 0.2377 0.1272 0.9418
C11_12 C 0.10394(15) 0.14241(18) 0.94870(10)
H7_12 H 0.0688 0.1335 0.9363
C12_12 C 0.10094(16) 0.17218(19) 0.98281(11)
H8_12 H 0.0643 0.1837 0.9922
C21_12 C 0.20236(16) 0.33324(17) 0.98695(10)
H13_12 H 0.2379 0.3266 0.9994
C22_12 C 0.20166(16) 0.36162(17) 0.95218(10)
H14_12 H 0.2377 0.3728 0.9418
N4_12 N 0.15379(11) 0.37380(11) 0.93295(7)
C23_12 C 0.10394(15) 0.35759(18) 0.94870(10)
H15_12 H 0.0688 0.3665 0.9363
C24_12 C 0.10094(16) 0.32782(19) 0.98281(11)
H16_12 H 0.0643 0.3163 0.9922
N5_8 N 0.26488(12) 0.90806(13) 0.14049(8)
C1_13 C 0.28267(15) 0.87515(18) 0.16954(10)
H1_13 H 0.2545 0.8527 0.1822
C2_13 C 0.33965(15) 0.87227(19) 0.18193(10)
H2_13 H 0.3495 0.8483 0.2023
C3_13 C 0.38270(13) 0.90531(14) 0.16391(8)
C4_13 C 0.36522(14) 0.93984(16) 0.13380(9)
H3_13 H 0.3926 0.9626 0.1208
C5_13 C 0.30589(14) 0.94011(17) 0.12317(9)
H4_13 H 0.2945 0.9639 0.1030
C6_13 C 0.44522(13) 0.90417(13) 0.17599(8)
S1_17 S 0.5000 0.90777(5) 0.14206(3)
C7_13 C 0.46856(12) 0.89993(13) 0.21144(8)
C8_13 C 0.43481(13) 0.90049(13) 0.24734(8)
C9_13 C 0.41676(17) 0.95236(16) 0.26305(10)
H5_13 H 0.4234 0.9879 0.2506
C10_13 C 0.38838(17) 0.95166(16) 0.29782(10)
H6_13 H 0.3772 0.9877 0.3082
C11_13 C 0.39241(18) 0.85394(15) 0.30130(10)
H7_13 H 0.3835 0.8188 0.3137
C12_13 C 0.42218(19) 0.85094(16) 0.26719(11)
H8_13 H 0.4337 0.8143 0.2578
C13_13 C 0.55478(13) 0.90417(13) 0.17599(8)
C14_13 C 0.61730(13) 0.90531(14) 0.16391(8)
C15_13 C 0.66035(15) 0.87227(19) 0.18193(10)
C16_13 C 0.71733(15) 0.87515(18) 0.16954(10)
N3_13 N 0.73512(12) 0.90806(13) 0.14049(8)
C17_13 C 0.69411(14) 0.94011(17) 0.12317(9)
C18_13 C 0.63478(14) 0.93984(16) 0.13380(9)
H9_13 H 0.6074 0.9626 0.1208
H10_13 H 0.7055 0.9639 0.1030
H11_13 H 0.7455 0.8527 0.1822
H12_13 H 0.6505 0.8483 0.2023
C19_13 C 0.53144(12) 0.89993(13) 0.21144(8)
C20_13 C 0.56519(13) 0.90049(13) 0.24734(8)
C21_13 C 0.58324(17) 0.95236(16) 0.26305(10)
H13_13 H 0.5766 0.9879 0.2506
C22_13 C 0.61162(17) 0.95166(16) 0.29782(10)
H14_13 H 0.6228 0.9877 0.3082
N4_13 N 0.62380(11) 0.90379(11) 0.31705(7)
C23_13 C 0.60759(18) 0.85394(15) 0.30130(10)
H15_13 H 0.6165 0.8188 0.3137
C24_13 C 0.57782(19) 0.85094(16) 0.26719(11)
H16_13 H 0.5663 0.8143 0.2578
C1_14 C 0.71733(15) 0.37515(18) 0.83046(10)
H1_14 H 0.7455 0.3527 0.8178
C2_14 C 0.66035(15) 0.37227(19) 0.81807(10)
H2_14 H 0.6505 0.3483 0.7977
C3_14 C 0.61730(13) 0.40531(14) 0.83609(8)
C4_14 C 0.63478(14) 0.43984(16) 0.86620(9)
H3_14 H 0.6074 0.4626 0.8792
C5_14 C 0.69411(14) 0.44011(17) 0.87683(9)
H4_14 H 0.7055 0.4639 0.8970
C6_14 C 0.55478(13) 0.40417(13) 0.82401(8)
S1_18 S 0.5000 0.40777(5) 0.85794(3)
C7_14 C 0.53144(12) 0.39993(13) 0.78856(8)
C8_14 C 0.56519(13) 0.40049(13) 0.75266(8)
C9_14 C 0.58324(17) 0.45236(16) 0.73695(10)
H5_14 H 0.5766 0.4879 0.7494
C10_14 C 0.61162(17) 0.45166(16) 0.70218(10)
H6_14 H 0.6228 0.4877 0.6918
C11_14 C 0.60759(18) 0.35394(15) 0.69870(10)
H7_14 H 0.6165 0.3188 0.6863
C12_14 C 0.57782(19) 0.35094(16) 0.73281(11)
H8_14 H 0.5663 0.3143 0.7422
C13_14 C 0.44522(13) 0.40417(13) 0.82401(8)
C14_14 C 0.38270(13) 0.40531(14) 0.83609(8)
C15_14 C 0.33965(15) 0.37227(19) 0.81807(10)
C16_14 C 0.28267(15) 0.37515(18) 0.83046(10)
N3_14 N 0.26488(12) 0.40806(13) 0.85951(8)
C17_14 C 0.30589(14) 0.44011(17) 0.87683(9)
C18_14 C 0.36522(14) 0.43984(16) 0.86620(9)
H9_14 H 0.3926 0.4626 0.8792
H10_14 H 0.2945 0.4639 0.8970
H11_14 H 0.2545 0.3527 0.8178
H12_14 H 0.3495 0.3483 0.7977
C19_14 C 0.46856(12) 0.39993(13) 0.78856(8)
C20_14 C 0.43481(13) 0.40049(13) 0.75266(8)
C21_14 C 0.41676(17) 0.45236(16) 0.73695(10)
H13_14 H 0.4234 0.4879 0.7494
C22_14 C 0.38838(17) 0.45166(16) 0.70218(10)
H14_14 H 0.3772 0.4877 0.6918
N4_14 N 0.37620(11) 0.40379(11) 0.68295(7)
C23_14 C 0.39241(18) 0.35394(15) 0.69870(10)
H15_14 H 0.3835 0.3188 0.6863
C24_14 C 0.42218(19) 0.35094(16) 0.73281(11)
H16_14 H 0.4337 0.3143 0.7422
C1_15 C 0.28267(15) 0.12485(18) 0.83046(10)
H1_15 H 0.2545 0.1473 0.8178
C2_15 C 0.33965(15) 0.12773(19) 0.81807(10)
H2_15 H 0.3495 0.1517 0.7977
C3_15 C 0.38270(13) 0.09469(14) 0.83609(8)
C4_15 C 0.36522(14) 0.06016(16) 0.86620(9)
H3_15 H 0.3926 0.0374 0.8792
C5_15 C 0.30589(14) 0.05989(17) 0.87683(9)
H4_15 H 0.2945 0.0361 0.8970
C6_15 C 0.44522(13) 0.09583(13) 0.82401(8)
S1_19 S 0.5000 0.09223(5) 0.85794(3)
C7_15 C 0.46856(12) 0.10007(13) 0.78856(8)
C8_15 C 0.43481(13) 0.09951(13) 0.75266(8)
C9_15 C 0.41676(17) 0.04764(16) 0.73695(10)
H5_15 H 0.4234 0.0121 0.7494
C10_15 C 0.38838(17) 0.04834(16) 0.70218(10)
H6_15 H 0.3772 0.0123 0.6918
C11_15 C 0.39241(18) 0.14606(15) 0.69870(10)
H7_15 H 0.3835 0.1812 0.6863
C12_15 C 0.42218(19) 0.14906(16) 0.73281(11)
H8_15 H 0.4337 0.1857 0.7422
C13_15 C 0.55478(13) 0.09583(13) 0.82401(8)
C14_15 C 0.61730(13) 0.09469(14) 0.83609(8)
C15_15 C 0.66035(15) 0.12773(19) 0.81807(10)
C16_15 C 0.71733(15) 0.12485(18) 0.83046(10)
N3_15 N 0.73512(12) 0.09194(13) 0.85951(8)
C17_15 C 0.69411(14) 0.05989(17) 0.87683(9)
C18_15 C 0.63478(14) 0.06016(16) 0.86620(9)
H9_15 H 0.6074 0.0374 0.8792
H10_15 H 0.7055 0.0361 0.8970
H11_15 H 0.7455 0.1473 0.8178
H12_15 H 0.6505 0.1517 0.7977
C19_15 C 0.53144(12) 0.10007(13) 0.78856(8)
C20_15 C 0.56519(13) 0.09951(13) 0.75266(8)
C21_15 C 0.58324(17) 0.04764(16) 0.73695(10)
H13_15 H 0.5766 0.0121 0.7494
C22_15 C 0.61162(17) 0.04834(16) 0.70218(10)
H14_15 H 0.6228 0.0123 0.6918
N4_15 N 0.62380(11) 0.09621(11) 0.68295(7)
C23_15 C 0.60759(18) 0.14606(15) 0.69870(10)
H15_15 H 0.6165 0.1812 0.6863
C24_15 C 0.57782(19) 0.14906(16) 0.73281(11)
H16_15 H 0.5663 0.1857 0.7422
C1_16 C 0.62515(18) 0.53267(15) 0.58046(10)
H1_16 H 0.6027 0.5045 0.5678
C2_16 C 0.62227(19) 0.58965(15) 0.56807(10)
H2_16 H 0.5983 0.5995 0.5477
C3_16 C 0.65531(14) 0.63270(13) 0.58609(8)
C4_16 C 0.68984(16) 0.61522(14) 0.61620(9)
H3_16 H 0.7126 0.6426 0.6292
C5_16 C 0.69011(17) 0.55589(14) 0.62683(9)
H4_16 H 0.7139 0.5445 0.6470
C6_16 C 0.65417(13) 0.69522(13) 0.57401(8)
S1_20 S 0.65777(5) 0.7500 0.60794(3)
C7_16 C 0.64993(13) 0.71856(12) 0.53856(8)
C8_16 C 0.65049(13) 0.68481(13) 0.50266(8)
C9_16 C 0.70236(16) 0.66676(17) 0.48695(10)
H5_16 H 0.7379 0.6734 0.4994
C10_16 C 0.70166(16) 0.63838(17) 0.45218(10)
H6_16 H 0.7377 0.6272 0.4418
C11_16 C 0.60394(15) 0.64241(18) 0.44870(10)
H7_16 H 0.5688 0.6335 0.4363
C12_16 C 0.60094(16) 0.67218(19) 0.48281(11)
H8_16 H 0.5643 0.6837 0.4922
C13_16 C 0.65417(13) 0.80478(13) 0.57401(8)
C14_16 C 0.65531(14) 0.86730(13) 0.58609(8)
C15_16 C 0.62227(19) 0.91035(15) 0.56807(10)
C16_16 C 0.62515(18) 0.96733(15) 0.58046(10)
N3_16 N 0.65806(13) 0.98512(12) 0.60951(8)
C17_16 C 0.69011(17) 0.94411(14) 0.62683(9)
C18_16 C 0.68984(16) 0.88478(14) 0.61620(9)
H9_16 H 0.7126 0.8574 0.6292
H10_16 H 0.7139 0.9555 0.6470
H11_16 H 0.6027 0.9955 0.5678
H12_16 H 0.5983 0.9005 0.5477
C19_16 C 0.64993(13) 0.78144(12) 0.53856(8)
C20_16 C 0.65049(13) 0.81519(13) 0.50266(8)
C21_16 C 0.70236(16) 0.83324(17) 0.48695(10)
H13_16 H 0.7379 0.8266 0.4994
C22_16 C 0.70166(16) 0.86162(17) 0.45218(10)
H14_16 H 0.7377 0.8728 0.4418
N4_16 N 0.65379(11) 0.87380(11) 0.43295(7)
C23_16 C 0.60394(15) 0.85759(18) 0.44870(10)
H15_16 H 0.5688 0.8665 0.4363
C24_16 C 0.60094(16) 0.82782(19) 0.48281(11)
H16_16 H 0.5643 0.8163 0.4922
B1 B 0.2500 0.2500 0.7500
F1 F 0.2500 0.1920(3) 0.7500
F2 F 0.2203(5) 0.2500 0.7863(3)
F3 F 0.2500 0.3080(3) 0.7500
F4 F 0.2797(5) 0.2500 0.7137(3)
B1_2 B 0.5000 -0.0000 0.5000
F1_2 F 0.4420(3) -0.0000 0.5000
F3_2 F 0.5580(3) -0.0000 0.5000
F4_2 F 0.5000 0.0297(5) 0.5363(3)
B1_3 B 0.5000 1.0000 0.5000
F1_3 F 0.4420(3) 1.0000 0.5000
F2_2 F 0.5000 0.9703(5) 0.4637(3)
F3_3 F 0.5580(3) 1.0000 0.5000
B1_4 B 0.0000 -0.0000 -0.0000
F1_4 F 0.0580(3) -0.0000 -0.0000
B1_5 B 0.0000 -0.0000 1.0000
F1_5 F 0.0580(3) -0.0000 1.0000
F4_3 F -0.0000 0.0297(5) 0.9637(3)
B1_6 B 0.0000 1.0000 -0.0000
F1_6 F 0.0580(3) 1.0000 -0.0000
F2_3 F 0.0000 0.9703(5) 0.0363(3)
B1_7 B 0.0000 1.0000 1.0000
F1_7 F 0.0580(3) 1.0000 1.0000
B1_8 B 1.0000 -0.0000 -0.0000
F3_4 F 0.9420(3) -0.0000 -0.0000
B1_9 B 1.0000 -0.0000 1.0000
F3_5 F 0.9420(3) -0.0000 1.0000
F4_4 F 1.0000 0.0297(5) 0.9637(3)
B1_10 B 1.0000 1.0000 -0.0000
F2_4 F 1.0000 0.9703(5) 0.0363(3)
F3_6 F 0.9420(3) 1.0000 -0.0000
B1_11 B 1.0000 1.0000 1.0000
F3_7 F 0.9420(3) 1.0000 1.0000
B1_12 B 0.7500 0.7500 0.2500
F1_8 F 0.7500 0.6920(3) 0.2500
F2_5 F 0.7203(5) 0.7500 0.2863(3)
F3_8 F 0.7500 0.8080(3) 0.2500
F4_5 F 0.7797(5) 0.7500 0.2137(3)
B1_13 B -0.0000 0.5000 0.0000
F3_9 F 0.0580(3) 0.5000 0.0000
F4_6 F -0.0000 0.5297(5) 0.0363(3)
B1_14 B -0.0000 0.5000 1.0000
F2_6 F -0.0000 0.4703(5) 0.9637(3)
F3_10 F 0.0580(3) 0.5000 1.0000
B1_15 B 1.0000 0.5000 0.0000
F1_9 F 0.9420(3) 0.5000 0.0000
F4_7 F 1.0000 0.5297(5) 0.0363(3)
B1_16 B 1.0000 0.5000 1.0000
F1_10 F 0.9420(3) 0.5000 1.0000
F2_7 F 1.0000 0.4703(5) 0.9637(3)
B1_17 B 0.5000 0.5000 0.5000
F1_11 F 0.5580(3) 0.5000 0.5000
F2_8 F 0.5000 0.4703(5) 0.5363(3)
F3_11 F 0.4420(3) 0.5000 0.5000
F4_8 F 0.5000 0.5297(5) 0.4637(3)
B1_18 B 0.7500 0.2500 0.7500
F1_12 F 0.7500 0.3080(3) 0.7500
F2_9 F 0.7797(5) 0.2500 0.7863(3)
F3_12 F 0.7500 0.1920(3) 0.7500
F4_9 F 0.7203(5) 0.2500 0.7137(3)
B1_19 B 0.2500 0.7500 0.2500
F1_13 F 0.2500 0.8080(3) 0.2500
F2_10 F 0.2203(5) 0.7500 0.2137(3)
F3_13 F 0.2500 0.6920(3) 0.2500
F4_10 F 0.2797(5) 0.7500 0.2863(3)
loop_
_geom_bond_atom_site_label_1
_geom_bond_atom_site_label_2
_geom_bond_site_symmetry_1
_geom_bond_site_symmetry_2
Ag1 N1 1_555 1_555
N1 C1 1_555 1_555
C1 H1 1_555 1_555
C2 C1 1_555 1_555
H2 C2 1_555 1_555
C3 C2 1_555 1_555
C4 C3 1_555 1_555
H3 C4 1_555 1_555
C5 N1 1_555 1_555
H4 C5 1_555 1_555
C6 C3 1_555 1_555
S1 C6 1_555 1_555
C7 C6 1_555 1_555
C8 C7 1_555 1_555
C9 C8 1_555 1_555
H5 C9 1_555 1_555
C10 C9 1_555 1_555
H6 C10 1_555 1_555
N2 C10 1_555 1_555
C11 N2 1_555 1_555
H7 C11 1_555 1_555
C12 C8 1_555 1_555
H8 C12 1_555 1_555
N6 Ag1 1_555 1_555
N7 Ag1 1_555 1_555
Ag3 N2 1_555 1_555
C4 C5 1_555 1_555
C11 C12 1_555 1_555
C13 S1_2 1_555 1_555
C14 C13 1_555 1_555
C15 C14 1_555 1_555
C16 C15 1_555 1_555
N3 C16 1_555 1_555
C17 N3 1_555 1_555
C18 C14 1_555 1_555
H9 C18 1_555 1_555
H10 C17 1_555 1_555
H11 C16 1_555 1_555
H12 C15 1_555 1_555
C20 C19 1_555 1_555
C21 C20 1_555 1_555
H13 C21 1_555 1_555
C22 C21 1_555 1_555
H14 C22 1_555 1_555
N4 C22 1_555 1_555
C23 N4 1_555 1_555
H15 C23 1_555 1_555
C24 C20 1_555 1_555
H16 C24 1_555 1_555
Ag2 N3 1_555 1_555
Ag4 N4 1_555 1_555
C13 C19 1_555 1_555
C17 C18 1_555 1_555
C23 C24 1_555 1_555
N5 C1_2 1_555 1_555
C1_2 H1_2 1_555 1_555
C2_2 C1_2 1_555 1_555
H2_2 C2_2 1_555 1_555
C3_2 C2_2 1_555 1_555
C4_2 C3_2 1_555 1_555
H3_2 C4_2 1_555 1_555
C5_2 N5 1_555 1_555
H4_2 C5_2 1_555 1_555
C6_2 C3_2 1_555 1_555
S1_3 C6_2 1_555 1_555
C7_2 C6_2 1_555 1_555
C8_2 C7_2 1_555 1_555
C9_2 C8_2 1_555 1_555
H5_2 C9_2 1_555 1_555
C10_2 C9_2 1_555 1_555
H6_2 C10_2 1_555 1_555
N2_2 C10_2 1_555 1_555
C11_2 N2_2 1_555 1_555
H7_2 C11_2 1_555 1_555
C12_2 C8_2 1_555 1_555
H8_2 C12_2 1_555 1_555
C13_2 S1_3 1_555 1_555
C14_2 C13_2 1_555 1_555
C15_2 C14_2 1_555 1_555
C16_2 C15_2 1_555 1_555
N3_2 C16_2 1_555 1_555
C17_2 N3_2 1_555 1_555
C18_2 C14_2 1_555 1_555
H9_2 C18_2 1_555 1_555
H10_2 C17_2 1_555 1_555
H11_2 C16_2 1_555 1_555
H12_2 C15_2 1_555 1_555
C19_2 C7_2 1_555 1_555
C20_2 C19_2 1_555 1_555
C21_2 C20_2 1_555 1_555
H13_2 C21_2 1_555 1_555
C22_2 C21_2 1_555 1_555
H14_2 C22_2 1_555 1_555
N4_2 C22_2 1_555 1_555
C23_2 N4_2 1_555 1_555
H15_2 C23_2 1_555 1_555
C24_2 C20_2 1_555 1_555
H16_2 C24_2 1_555 1_555
Ag2_2 N3_2 1_555 1_555
Ag3_2 N2_2 1_555 1_555
Ag4_2 N4_2 1_555 1_555
C4_2 C5_2 1_555 1_555
C11_2 C12_2 1_555 1_555
C13_2 C19_2 1_555 1_555
C17_2 C18_2 1_555 1_555
C23_2 C24_2 1_555 1_555
N1_2 C1_3 1_555 1_555
C1_3 H1_3 1_555 1_555
C2_3 C1_3 1_555 1_555
H2_3 C2_3 1_555 1_555
C3_3 C2_3 1_555 1_555
C4_3 C3_3 1_555 1_555
H3_3 C4_3 1_555 1_555
C5_3 N1_2 1_555 1_555
H4_3 C5_3 1_555 1_555
C6_3 C3_3 1_555 1_555
S1_4 C6_3 1_555 1_555
C7_3 C6_3 1_555 1_555
C8_3 C7_3 1_555 1_555
C9_3 C8_3 1_555 1_555
H5_3 C9_3 1_555 1_555
C10_3 C9_3 1_555 1_555
H6_3 C10_3 1_555 1_555
N6 C10_3 1_555 1_555
C11_3 N6 1_555 1_555
H7_3 C11_3 1_555 1_555
C12_3 C8_3 1_555 1_555
H8_3 C12_3 1_555 1_555
C13_3 S1_4 1_555 1_555
C14_3 C13_3 1_555 1_555
C15_3 C14_3 1_555 1_555
C16_3 C15_3 1_555 1_555
N3_3 C16_3 1_555 1_555
C17_3 N3_3 1_555 1_555
C18_3 C14_3 1_555 1_555
H9_3 C18_3 1_555 1_555
H10_3 C17_3 1_555 1_555
H11_3 C16_3 1_555 1_555
H12_3 C15_3 1_555 1_555
C19_3 C7_3 1_555 1_555
C20_3 C19_3 1_555 1_555
C21_3 C20_3 1_555 1_555
H13_3 C21_3 1_555 1_555
C22_3 C21_3 1_555 1_555
H14_3 C22_3 1_555 1_555
N4_3 C22_3 1_555 1_555
C23_3 N4_3 1_555 1_555
H15_3 C23_3 1_555 1_555
C24_3 C20_3 1_555 1_555
H16_3 C24_3 1_555 1_555
Ag4_2 N3_3 1_555 1_555
Ag2_2 N4_3 1_555 1_555
C4_3 C5_3 1_555 1_555
C11_3 C12_3 1_555 1_555
C13_3 C19_3 1_555 1_555
C17_3 C18_3 1_555 1_555
C23_3 C24_3 1_555 1_555
N5_2 Ag3_2 1_555 1_555
N6_2 Ag3_2 1_555 1_555
N5_3 Ag3 1_555 1_555
N7_2 Ag3 1_555 1_555
H5_4 C9_4 1_555 1_555
C10_4 C9_4 1_555 1_555
H6_4 C10_4 1_555 1_555
N2_3 C10_4 1_555 1_555
C11_4 N2_3 1_555 1_555
H7_4 C11_4 1_555 1_555
H8_4 C12_4 1_555 1_555
H13_4 C21_4 1_555 1_555
C22_4 C21_4 1_555 1_555
H14_4 C22_4 1_555 1_555
N4_4 C22_4 1_555 1_555
C23_4 N4_4 1_555 1_555
H15_4 C23_4 1_555 1_555
H16_4 C24_4 1_555 1_555
Ag3_3 N2_3 1_555 1_555
Ag4_3 N4_4 1_555 1_555
C11_4 C12_4 1_555 1_555
C23_4 C24_4 1_555 1_555
N1_3 C1_4 1_555 1_555
C1_4 H1_4 1_555 1_555
C2_4 C1_4 1_555 1_555
H2_4 C2_4 1_555 1_555
C3_4 C2_4 1_555 1_555
C4_4 C3_4 1_555 1_555
H3_4 C4_4 1_555 1_555
C5_4 N1_3 1_555 1_555
H4_4 C5_4 1_555 1_555
C6_4 C3_4 1_555 1_555
S1_5 C6_4 1_555 1_555
C7_4 C6_4 1_555 1_555
C8_4 C7_4 1_555 1_555
C13_4 S1_5 1_555 1_555
C14_4 C13_4 1_555 1_555
C15_4 C14_4 1_555 1_555
C16_4 C15_4 1_555 1_555
N3_4 C16_4 1_555 1_555
C17_4 N3_4 1_555 1_555
C18_4 C14_4 1_555 1_555
H9_4 C18_4 1_555 1_555
H10_4 C17_4 1_555 1_555
H11_4 C16_4 1_555 1_555
H12_4 C15_4 1_555 1_555
C19_4 C7_4 1_555 1_555
C20_4 C19_4 1_555 1_555
Ag2_3 N3_4 1_555 1_555
C4_4 C5_4 1_555 1_555
C13_4 C19_4 1_555 1_555
C17_4 C18_4 1_555 1_555
Ag1_2 N1_4 1_555 1_555
N1_4 C1_5 1_555 1_555
C1_5 H1_5 1_555 1_555
C2_5 C1_5 1_555 1_555
H2_5 C2_5 1_555 1_555
C3_5 C2_5 1_555 1_555
C4_5 C3_5 1_555 1_555
H3_5 C4_5 1_555 1_555
C5_5 N1_4 1_555 1_555
H4_5 C5_5 1_555 1_555
C6_5 C3_5 1_555 1_555
S1_6 C6_5 1_555 1_555
C7_5 C6_5 1_555 1_555
C8_5 C7_5 1_555 1_555
C9_5 C8_5 1_555 1_555
H5_5 C9_5 1_555 1_555
C10_5 C9_5 1_555 1_555
H6_5 C10_5 1_555 1_555
N2_4 C10_5 1_555 1_555
C11_5 N2_4 1_555 1_555
H7_5 C11_5 1_555 1_555
C12_5 C8_5 1_555 1_555
H8_5 C12_5 1_555 1_555
C13_5 S1_6 1_555 1_555
C14_5 C13_5 1_555 1_555
C15_5 C14_5 1_555 1_555
C16_5 C15_5 1_555 1_555
N3_5 C16_5 1_555 1_555
C17_5 N3_5 1_555 1_555
C18_5 C14_5 1_555 1_555
H9_5 C18_5 1_555 1_555
H10_5 C17_5 1_555 1_555
H11_5 C16_5 1_555 1_555
H12_5 C15_5 1_555 1_555
C19_5 C7_5 1_555 1_555
C20_5 C19_5 1_555 1_555
C21_5 C20_5 1_555 1_555
H13_5 C21_5 1_555 1_555
C22_5 C21_5 1_555 1_555
H14_5 C22_5 1_555 1_555
N4_5 C22_5 1_555 1_555
C23_5 N4_5 1_555 1_555
H15_5 C23_5 1_555 1_555
C24_5 C20_5 1_555 1_555
H16_5 C24_5 1_555 1_555
N5_4 Ag1_2 1_555 1_555
Ag4_3 N3_5 1_555 1_555
N6_3 Ag1_2 1_555 1_555
N7_3 Ag1_2 1_555 1_555
Ag3_4 N2_4 1_555 1_555
Ag4_2 N4_5 1_555 1_555
C4_5 C5_5 1_555 1_555
C11_5 C12_5 1_555 1_555
C13_5 C19_5 1_555 1_555
C17_5 C18_5 1_555 1_555
C23_5 C24_5 1_555 1_555
N5_4 C1_6 1_555 1_555
C1_6 H1_6 1_555 1_555
C2_6 C1_6 1_555 1_555
H2_6 C2_6 1_555 1_555
C3_6 C2_6 1_555 1_555
C4_6 C3_6 1_555 1_555
H3_6 C4_6 1_555 1_555
C5_6 N5_4 1_555 1_555
H4_6 C5_6 1_555 1_555
C6_6 C3_6 1_555 1_555
S1_7 C6_6 1_555 1_555
C7_6 C6_6 1_555 1_555
C8_6 C7_6 1_555 1_555
C13_6 S1_7 1_555 1_555
C14_6 C13_6 1_555 1_555
C15_6 C14_6 1_555 1_555
C16_6 C15_6 1_555 1_555
N3_6 C16_6 1_555 1_555
C17_6 N3_6 1_555 1_555
C18_6 C14_6 1_555 1_555
H9_6 C18_6 1_555 1_555
H10_6 C17_6 1_555 1_555
H11_6 C16_6 1_555 1_555
H12_6 C15_6 1_555 1_555
C19_6 C7_6 1_555 1_555
C20_6 C19_6 1_555 1_555
C4_6 C5_6 1_555 1_555
C13_6 C19_6 1_555 1_555
C17_6 C18_6 1_555 1_555
H5_6 C9_6 1_555 1_555
C10_6 C9_6 1_555 1_555
H6_6 C10_6 1_555 1_555
N2_5 C10_6 1_555 1_555
C11_6 N2_5 1_555 1_555
H7_6 C11_6 1_555 1_555
H8_6 C12_6 1_555 1_555
H13_6 C21_6 1_555 1_555
C22_6 C21_6 1_555 1_555
H14_6 C22_6 1_555 1_555
N4_6 C22_6 1_555 1_555
C23_6 N4_6 1_555 1_555
H15_6 C23_6 1_555 1_555
H16_6 C24_6 1_555 1_555
Ag3_5 N2_5 1_555 1_555
Ag4 N4_6 1_555 1_555
C11_6 C12_6 1_555 1_555
C23_6 C24_6 1_555 1_555
H5_7 C9_7 1_555 1_555
C10_7 C9_7 1_555 1_555
H6_7 C10_7 1_555 1_555
N6_3 C10_7 1_555 1_555
C11_7 N6_3 1_555 1_555
H7_7 C11_7 1_555 1_555
H8_7 C12_7 1_555 1_555
H13_7 C21_7 1_555 1_555
C22_7 C21_7 1_555 1_555
H14_7 C22_7 1_555 1_555
N4_7 C22_7 1_555 1_555
C23_7 N4_7 1_555 1_555
H15_7 C23_7 1_555 1_555
H16_7 C24_7 1_555 1_555
Ag2_4 N4_7 1_555 1_555
C11_7 C12_7 1_555 1_555
C23_7 C24_7 1_555 1_555
Ag3_5 N1_5 1_555 1_555
N1_5 C1_7 1_555 1_555
C1_7 H1_7 1_555 1_555
C2_7 C1_7 1_555 1_555
H2_7 C2_7 1_555 1_555
C3_7 C2_7 1_555 1_555
C4_7 C3_7 1_555 1_555
H3_7 C4_7 1_555 1_555
C5_7 N1_5 1_555 1_555
H4_7 C5_7 1_555 1_555
C6_7 C3_7 1_555 1_555
S1_8 C6_7 1_555 1_555
C7_7 C6_7 1_555 1_555
C8_7 C7_7 1_555 1_555
C13_7 S1_8 1_555 1_555
C14_7 C13_7 1_555 1_555
C15_7 C14_7 1_555 1_555
C16_7 C15_7 1_555 1_555
N3_7 C16_7 1_555 1_555
C17_7 N3_7 1_555 1_555
C18_7 C14_7 1_555 1_555
H9_7 C18_7 1_555 1_555
H10_7 C17_7 1_555 1_555
H11_7 C16_7 1_555 1_555
H12_7 C15_7 1_555 1_555
C19_7 C7_7 1_555 1_555
C20_7 C19_7 1_555 1_555
N5_5 Ag3_5 1_555 1_555
N6_4 Ag3_5 1_555 1_555
C4_7 C5_7 1_555 1_555
C13_7 C19_7 1_555 1_555
C17_7 C18_7 1_555 1_555
Ag3_4 N1_6 1_555 1_555
N1_6 C1_8 1_555 1_555
C1_8 H1_8 1_555 1_555
C2_8 C1_8 1_555 1_555
H2_8 C2_8 1_555 1_555
C3_8 C2_8 1_555 1_555
C4_8 C3_8 1_555 1_555
H3_8 C4_8 1_555 1_555
C5_8 N1_6 1_555 1_555
H4_8 C5_8 1_555 1_555
C6_8 C3_8 1_555 1_555
S1_9 C6_8 1_555 1_555
C7_8 C6_8 1_555 1_555
C8_8 C7_8 1_555 1_555
C9_8 C8_8 1_555 1_555
H5_8 C9_8 1_555 1_555
C10_8 C9_8 1_555 1_555
H6_8 C10_8 1_555 1_555
N2_6 C10_8 1_555 1_555
C11_8 N2_6 1_555 1_555
H7_8 C11_8 1_555 1_555
C12_8 C8_8 1_555 1_555
H8_8 C12_8 1_555 1_555
C13_8 S1_9 1_555 1_555
C14_8 C13_8 1_555 1_555
C15_8 C14_8 1_555 1_555
C16_8 C15_8 1_555 1_555
N3_8 C16_8 1_555 1_555
C17_8 N3_8 1_555 1_555
C18_8 C14_8 1_555 1_555
H9_8 C18_8 1_555 1_555
H10_8 C17_8 1_555 1_555
H11_8 C16_8 1_555 1_555
H12_8 C15_8 1_555 1_555
C19_8 C7_8 1_555 1_555
C20_8 C19_8 1_555 1_555
C21_8 C20_8 1_555 1_555
H13_8 C21_8 1_555 1_555
C22_8 C21_8 1_555 1_555
H14_8 C22_8 1_555 1_555
N4_8 C22_8 1_555 1_555
C23_8 N4_8 1_555 1_555
H15_8 C23_8 1_555 1_555
C24_8 C20_8 1_555 1_555
H16_8 C24_8 1_555 1_555
N5_6 Ag3_4 1_555 1_555
N7_4 Ag3_4 1_555 1_555
Ag3_6 N2_6 1_555 1_555
Ag2 N4_8 1_555 1_555
C4_8 C5_8 1_555 1_555
C11_8 C12_8 1_555 1_555
C13_8 C19_8 1_555 1_555
C17_8 C18_8 1_555 1_555
C23_8 C24_8 1_555 1_555
C13_9 S1_10 1_555 1_555
C14_9 C13_9 1_555 1_555
C15_9 C14_9 1_555 1_555
C16_9 C15_9 1_555 1_555
N3_9 C16_9 1_555 1_555
C17_9 N3_9 1_555 1_555
C18_9 C14_9 1_555 1_555
H9_9 C18_9 1_555 1_555
H10_9 C17_9 1_555 1_555
H11_9 C16_9 1_555 1_555
H12_9 C15_9 1_555 1_555
C20_9 C19_9 1_555 1_555
C21_9 C20_9 1_555 1_555
H13_9 C21_9 1_555 1_555
C22_9 C21_9 1_555 1_555
H14_9 C22_9 1_555 1_555
N4_9 C22_9 1_555 1_555
C23_9 N4_9 1_555 1_555
H15_9 C23_9 1_555 1_555
C24_9 C20_9 1_555 1_555
H16_9 C24_9 1_555 1_555
Ag2_2 N3_9 1_555 1_555
Ag2_3 N4_9 1_555 1_555
C13_9 C19_9 1_555 1_555
C17_9 C18_9 1_555 1_555
C23_9 C24_9 1_555 1_555
Ag3_6 N1_7 1_555 1_555
N1_7 C1_9 1_555 1_555
C1_9 H1_9 1_555 1_555
C2_9 C1_9 1_555 1_555
H2_9 C2_9 1_555 1_555
C3_9 C2_9 1_555 1_555
C4_9 C3_9 1_555 1_555
H3_9 C4_9 1_555 1_555
C5_9 N1_7 1_555 1_555
H4_9 C5_9 1_555 1_555
C6_9 C3_9 1_555 1_555
S1_11 C6_9 1_555 1_555
C7_9 C6_9 1_555 1_555
C8_9 C7_9 1_555 1_555
C9_9 C8_9 1_555 1_555
H5_9 C9_9 1_555 1_555
C10_9 C9_9 1_555 1_555
H6_9 C10_9 1_555 1_555
N6_4 C10_9 1_555 1_555
C11_9 N6_4 1_555 1_555
H7_9 C11_9 1_555 1_555
C12_9 C8_9 1_555 1_555
H8_9 C12_9 1_555 1_555
N5_7 Ag3_6 1_555 1_555
N7_5 Ag3_6 1_555 1_555
C4_9 C5_9 1_555 1_555
C11_9 C12_9 1_555 1_555
N5_2 C1_10 1_555 1_555
C1_10 H1_10 1_555 1_555
C2_10 C1_10 1_555 1_555
H2_10 C2_10 1_555 1_555
C3_10 C2_10 1_555 1_555
C4_10 C3_10 1_555 1_555
H3_10 C4_10 1_555 1_555
C5_10 N5_2 1_555 1_555
H4_10 C5_10 1_555 1_555
C6_10 C3_10 1_555 1_555
S1_12 C6_10 1_555 1_555
C7_10 C6_10 1_555 1_555
C8_10 C7_10 1_555 1_555
C9_10 C8_10 1_555 1_555
H5_10 C9_10 1_555 1_555
C10_10 C9_10 1_555 1_555
H6_10 C10_10 1_555 1_555
N2_7 C10_10 1_555 1_555
C11_10 N2_7 1_555 1_555
H7_10 C11_10 1_555 1_555
C12_10 C8_10 1_555 1_555
H8_10 C12_10 1_555 1_555
Ag3_3 N2_7 1_555 1_555
C4_10 C5_10 1_555 1_555
C11_10 C12_10 1_555 1_555
C13_10 S1_13 1_555 1_555
C14_10 C13_10 1_555 1_555
C15_10 C14_10 1_555 1_555
C16_10 C15_10 1_555 1_555
N3_10 C16_10 1_555 1_555
C17_10 N3_10 1_555 1_555
C18_10 C14_10 1_555 1_555
H9_10 C18_10 1_555 1_555
H10_10 C17_10 1_555 1_555
H11_10 C16_10 1_555 1_555
H12_10 C15_10 1_555 1_555
C20_10 C19_10 1_555 1_555
C21_10 C20_10 1_555 1_555
H13_10 C21_10 1_555 1_555
C22_10 C21_10 1_555 1_555
H14_10 C22_10 1_555 1_555
N4_10 C22_10 1_555 1_555
C23_10 N4_10 1_555 1_555
H15_10 C23_10 1_555 1_555
C24_10 C20_10 1_555 1_555
H16_10 C24_10 1_555 1_555
Ag2_5 N3_10 1_555 1_555
Ag2_4 N4_10 1_555 1_555
C13_10 C19_10 1_555 1_555
C17_10 C18_10 1_555 1_555
C23_10 C24_10 1_555 1_555
C13_11 S1_14 1_555 1_555
C14_11 C13_11 1_555 1_555
C15_11 C14_11 1_555 1_555
C16_11 C15_11 1_555 1_555
N3_11 C16_11 1_555 1_555
C17_11 N3_11 1_555 1_555
C18_11 C14_11 1_555 1_555
H9_11 C18_11 1_555 1_555
H10_11 C17_11 1_555 1_555
H11_11 C16_11 1_555 1_555
H12_11 C15_11 1_555 1_555
C20_11 C19_11 1_555 1_555
C21_11 C20_11 1_555 1_555
H13_11 C21_11 1_555 1_555
C22_11 C21_11 1_555 1_555
H14_11 C22_11 1_555 1_555
N4_11 C22_11 1_555 1_555
C23_11 N4_11 1_555 1_555
H15_11 C23_11 1_555 1_555
C24_11 C20_11 1_555 1_555
H16_11 C24_11 1_555 1_555
Ag4_2 N3_11 1_555 1_555
Ag4_3 N4_11 1_555 1_555
C13_11 C19_11 1_555 1_555
C17_11 C18_11 1_555 1_555
C23_11 C24_11 1_555 1_555
N5_6 C1_11 1_555 1_555
C1_11 H1_11 1_555 1_555
C2_11 C1_11 1_555 1_555
H2_11 C2_11 1_555 1_555
C3_11 C2_11 1_555 1_555
C4_11 C3_11 1_555 1_555
H3_11 C4_11 1_555 1_555
C5_11 N5_6 1_555 1_555
H4_11 C5_11 1_555 1_555
C6_11 C3_11 1_555 1_555
S1_15 C6_11 1_555 1_555
C7_11 C6_11 1_555 1_555
C8_11 C7_11 1_555 1_555
C9_11 C8_11 1_555 1_555
H5_11 C9_11 1_555 1_555
C10_11 C9_11 1_555 1_555
H6_11 C10_11 1_555 1_555
N7_3 C10_11 1_555 1_555
C11_11 N7_3 1_555 1_555
H7_11 C11_11 1_555 1_555
C12_11 C8_11 1_555 1_555
H8_11 C12_11 1_555 1_555
C4_11 C5_11 1_555 1_555
C11_11 C12_11 1_555 1_555
N1_8 C1_12 1_555 1_555
C1_12 H1_12 1_555 1_555
C2_12 C1_12 1_555 1_555
H2_12 C2_12 1_555 1_555
C3_12 C2_12 1_555 1_555
C4_12 C3_12 1_555 1_555
H3_12 C4_12 1_555 1_555
C5_12 N1_8 1_555 1_555
H4_12 C5_12 1_555 1_555
C6_12 C3_12 1_555 1_555
S1_16 C6_12 1_555 1_555
C7_12 C6_12 1_555 1_555
C8_12 C7_12 1_555 1_555
C13_12 S1_16 1_555 1_555
C14_12 C13_12 1_555 1_555
C15_12 C14_12 1_555 1_555
C16_12 C15_12 1_555 1_555
N3_12 C16_12 1_555 1_555
C17_12 N3_12 1_555 1_555
C18_12 C14_12 1_555 1_555
H9_12 C18_12 1_555 1_555
H10_12 C17_12 1_555 1_555
H11_12 C16_12 1_555 1_555
H12_12 C15_12 1_555 1_555
C19_12 C7_12 1_555 1_555
C20_12 C19_12 1_555 1_555
Ag4_3 N3_12 1_555 1_555
C4_12 C5_12 1_555 1_555
C13_12 C19_12 1_555 1_555
C17_12 C18_12 1_555 1_555
H5_12 C9_12 1_555 1_555
C10_12 C9_12 1_555 1_555
H6_12 C10_12 1_555 1_555
N7_2 C10_12 1_555 1_555
C11_12 N7_2 1_555 1_555
H7_12 C11_12 1_555 1_555
H8_12 C12_12 1_555 1_555
H13_12 C21_12 1_555 1_555
C22_12 C21_12 1_555 1_555
H14_12 C22_12 1_555 1_555
N4_12 C22_12 1_555 1_555
C23_12 N4_12 1_555 1_555
H15_12 C23_12 1_555 1_555
H16_12 C24_12 1_555 1_555
Ag2_3 N4_12 1_555 1_555
C11_12 C12_12 1_555 1_555
C23_12 C24_12 1_555 1_555
N5_8 Ag3_3 1_555 1_555
N5_8 C1_13 1_555 1_555
C1_13 H1_13 1_555 1_555
C2_13 C1_13 1_555 1_555
H2_13 C2_13 1_555 1_555
C3_13 C2_13 1_555 1_555
C4_13 C3_13 1_555 1_555
H3_13 C4_13 1_555 1_555
C5_13 N5_8 1_555 1_555
H4_13 C5_13 1_555 1_555
C6_13 C3_13 1_555 1_555
S1_17 C6_13 1_555 1_555
C7_13 C6_13 1_555 1_555
C8_13 C7_13 1_555 1_555
C9_13 C8_13 1_555 1_555
H5_13 C9_13 1_555 1_555
C10_13 C9_13 1_555 1_555
H6_13 C10_13 1_555 1_555
N6_2 C10_13 1_555 1_555
C11_13 N6_2 1_555 1_555
H7_13 C11_13 1_555 1_555
C12_13 C8_13 1_555 1_555
H8_13 C12_13 1_555 1_555
C13_13 S1_17 1_555 1_555
C14_13 C13_13 1_555 1_555
C15_13 C14_13 1_555 1_555
C16_13 C15_13 1_555 1_555
N3_13 C16_13 1_555 1_555
C17_13 N3_13 1_555 1_555
C18_13 C14_13 1_555 1_555
H9_13 C18_13 1_555 1_555
H10_13 C17_13 1_555 1_555
H11_13 C16_13 1_555 1_555
H12_13 C15_13 1_555 1_555
C19_13 C7_13 1_555 1_555
C20_13 C19_13 1_555 1_555
C21_13 C20_13 1_555 1_555
H13_13 C21_13 1_555 1_555
C22_13 C21_13 1_555 1_555
H14_13 C22_13 1_555 1_555
N4_13 C22_13 1_555 1_555
C23_13 N4_13 1_555 1_555
H15_13 C23_13 1_555 1_555
C24_13 C20_13 1_555 1_555
H16_13 C24_13 1_555 1_555
Ag2_4 N3_13 1_555 1_555
Ag2_5 N4_13 1_555 1_555
C4_13 C5_13 1_555 1_555
C11_13 C12_13 1_555 1_555
C13_13 C19_13 1_555 1_555
C17_13 C18_13 1_555 1_555
C23_13 C24_13 1_555 1_555
N5_5 C1_14 1_555 1_555
C1_14 H1_14 1_555 1_555
C2_14 C1_14 1_555 1_555
H2_14 C2_14 1_555 1_555
C3_14 C2_14 1_555 1_555
C4_14 C3_14 1_555 1_555
H3_14 C4_14 1_555 1_555
C5_14 N5_5 1_555 1_555
H4_14 C5_14 1_555 1_555
C6_14 C3_14 1_555 1_555
S1_18 C6_14 1_555 1_555
C7_14 C6_14 1_555 1_555
C8_14 C7_14 1_555 1_555
C9_14 C8_14 1_555 1_555
H5_14 C9_14 1_555 1_555
C10_14 C9_14 1_555 1_555
H6_14 C10_14 1_555 1_555
N7_5 C10_14 1_555 1_555
C11_14 N7_5 1_555 1_555
H7_14 C11_14 1_555 1_555
C12_14 C8_14 1_555 1_555
H8_14 C12_14 1_555 1_555
C13_14 S1_18 1_555 1_555
C14_14 C13_14 1_555 1_555
C15_14 C14_14 1_555 1_555
C16_14 C15_14 1_555 1_555
N3_14 C16_14 1_555 1_555
C17_14 N3_14 1_555 1_555
C18_14 C14_14 1_555 1_555
H9_14 C18_14 1_555 1_555
H10_14 C17_14 1_555 1_555
H11_14 C16_14 1_555 1_555
H12_14 C15_14 1_555 1_555
C19_14 C7_14 1_555 1_555
C20_14 C19_14 1_555 1_555
C21_14 C20_14 1_555 1_555
H13_14 C21_14 1_555 1_555
C22_14 C21_14 1_555 1_555
H14_14 C22_14 1_555 1_555
N4_14 C22_14 1_555 1_555
C23_14 N4_14 1_555 1_555
H15_14 C23_14 1_555 1_555
C24_14 C20_14 1_555 1_555
H16_14 C24_14 1_555 1_555
Ag2_3 N3_14 1_555 1_555
Ag2_2 N4_14 1_555 1_555
C4_14 C5_14 1_555 1_555
C11_14 C12_14 1_555 1_555
C13_14 C19_14 1_555 1_555
C17_14 C18_14 1_555 1_555
C23_14 C24_14 1_555 1_555
N5_3 C1_15 1_555 1_555
C1_15 H1_15 1_555 1_555
C2_15 C1_15 1_555 1_555
H2_15 C2_15 1_555 1_555
C3_15 C2_15 1_555 1_555
C4_15 C3_15 1_555 1_555
H3_15 C4_15 1_555 1_555
C5_15 N5_3 1_555 1_555
H4_15 C5_15 1_555 1_555
C6_15 C3_15 1_555 1_555
S1_19 C6_15 1_555 1_555
C7_15 C6_15 1_555 1_555
C8_15 C7_15 1_555 1_555
C9_15 C8_15 1_555 1_555
H5_15 C9_15 1_555 1_555
C10_15 C9_15 1_555 1_555
H6_15 C10_15 1_555 1_555
N7 C10_15 1_555 1_555
C11_15 N7 1_555 1_555
H7_15 C11_15 1_555 1_555
C12_15 C8_15 1_555 1_555
H8_15 C12_15 1_555 1_555
C13_15 S1_19 1_555 1_555
C14_15 C13_15 1_555 1_555
C15_15 C14_15 1_555 1_555
C16_15 C15_15 1_555 1_555
N3_15 C16_15 1_555 1_555
C17_15 N3_15 1_555 1_555
C18_15 C14_15 1_555 1_555
H9_15 C18_15 1_555 1_555
H10_15 C17_15 1_555 1_555
H11_15 C16_15 1_555 1_555
H12_15 C15_15 1_555 1_555
C19_15 C7_15 1_555 1_555
C20_15 C19_15 1_555 1_555
C21_15 C20_15 1_555 1_555
H13_15 C21_15 1_555 1_555
C22_15 C21_15 1_555 1_555
H14_15 C22_15 1_555 1_555
N4_15 C22_15 1_555 1_555
C23_15 N4_15 1_555 1_555
H15_15 C23_15 1_555 1_555
C24_15 C20_15 1_555 1_555
H16_15 C24_15 1_555 1_555
Ag4 N3_15 1_555 1_555
Ag2 N4_15 1_555 1_555
C4_15 C5_15 1_555 1_555
C11_15 C12_15 1_555 1_555
C13_15 C19_15 1_555 1_555
C17_15 C18_15 1_555 1_555
C23_15 C24_15 1_555 1_555
N5_7 C1_16 1_555 1_555
C1_16 H1_16 1_555 1_555
C2_16 C1_16 1_555 1_555
H2_16 C2_16 1_555 1_555
C3_16 C2_16 1_555 1_555
C4_16 C3_16 1_555 1_555
H3_16 C4_16 1_555 1_555
C5_16 N5_7 1_555 1_555
H4_16 C5_16 1_555 1_555
C6_16 C3_16 1_555 1_555
S1_20 C6_16 1_555 1_555
C7_16 C6_16 1_555 1_555
C8_16 C7_16 1_555 1_555
C9_16 C8_16 1_555 1_555
H5_16 C9_16 1_555 1_555
C10_16 C9_16 1_555 1_555
H6_16 C10_16 1_555 1_555
N7_4 C10_16 1_555 1_555
C11_16 N7_4 1_555 1_555
H7_16 C11_16 1_555 1_555
C12_16 C8_16 1_555 1_555
H8_16 C12_16 1_555 1_555
C13_16 S1_20 1_555 1_555
C14_16 C13_16 1_555 1_555
C15_16 C14_16 1_555 1_555
C16_16 C15_16 1_555 1_555
N3_16 C16_16 1_555 1_555
C17_16 N3_16 1_555 1_555
C18_16 C14_16 1_555 1_555
H9_16 C18_16 1_555 1_555
H10_16 C17_16 1_555 1_555
H11_16 C16_16 1_555 1_555
H12_16 C15_16 1_555 1_555
C19_16 C7_16 1_555 1_555
C20_16 C19_16 1_555 1_555
C21_16 C20_16 1_555 1_555
H13_16 C21_16 1_555 1_555
C22_16 C21_16 1_555 1_555
H14_16 C22_16 1_555 1_555
N4_16 C22_16 1_555 1_555
C23_16 N4_16 1_555 1_555
H15_16 C23_16 1_555 1_555
C24_16 C20_16 1_555 1_555
H16_16 C24_16 1_555 1_555
Ag2_5 N4_16 1_555 1_555
C4_16 C5_16 1_555 1_555
C11_16 C12_16 1_555 1_555
C13_16 C19_16 1_555 1_555
C17_16 C18_16 1_555 1_555
C23_16 C24_16 1_555 1_555
B1 F1 1_555 1_555
F2 B1 1_555 1_555
F3 B1 1_555 1_555
F4 B1 1_555 1_555
B1_2 F1_2 1_555 1_555
F3_2 B1_2 1_555 1_555
F4_2 B1_2 1_555 1_555
B1_3 F1_3 1_555 1_555
F2_2 B1_3 1_555 1_555
F3_3 B1_3 1_555 1_555
B1_4 F1_4 1_555 1_555
B1_5 F1_5 1_555 1_555
F4_3 B1_5 1_555 1_555
B1_6 F1_6 1_555 1_555
F2_3 B1_6 1_555 1_555
B1_7 F1_7 1_555 1_555
F3_4 B1_8 1_555 1_555
F3_5 B1_9 1_555 1_555
F4_4 B1_9 1_555 1_555
F2_4 B1_10 1_555 1_555
F3_6 B1_10 1_555 1_555
F3_7 B1_11 1_555 1_555
B1_12 F1_8 1_555 1_555
F2_5 B1_12 1_555 1_555
F3_8 B1_12 1_555 1_555
F4_5 B1_12 1_555 1_555
F3_9 B1_13 1_555 1_555
F4_6 B1_13 1_555 1_555
F2_6 B1_14 1_555 1_555
F3_10 B1_14 1_555 1_555
B1_15 F1_9 1_555 1_555
F4_7 B1_15 1_555 1_555
B1_16 F1_10 1_555 1_555
F2_7 B1_16 1_555 1_555
B1_17 F1_11 1_555 1_555
F2_8 B1_17 1_555 1_555
F3_11 B1_17 1_555 1_555
F4_8 B1_17 1_555 1_555
B1_18 F1_12 1_555 1_555
F2_9 B1_18 1_555 1_555
F3_12 B1_18 1_555 1_555
F4_9 B1_18 1_555 1_555
B1_19 F1_13 1_555 1_555
F2_10 B1_19 1_555 1_555
F3_13 B1_19 1_555 1_555
F4_10 B1_19 1_555 1_555

#END
