
###############################################################################
#
# This file contains modified crystal structure data generated from the
# MOF subset of the Cambridge Structural Database (CSD) v543 
# hosted by the Cambridge Crystallographic Data Centre (CCDC).
#
# This work is licensed under the Creative Commons
# Attribution-NonCommercial-ShareAlike 4.0 International License.
# To view a copy of this license, visit
# http://creativecommons.org/licenses/by-nc-sa/4.0/
# or send a letter to
# Creative Commons, PO Box 1866, Mountain View, CA 94042, USA.
#
# CIF created using the CSD Python API on 29 September 2022
# The structure has been converted into the P1 space group
# The structure has a 3D framework
# The original CSD entry AVIVAC is in the tetragonal crystal system
# The framework has been calculated to contain at least 10.0% void space
# The void calculation uses a probe of radius 1.32A, grid spacing 0.4
# The framework is charged, counterions have been retained in the structure
#
###############################################################################

data_AVIVAC
_chemical_formula_moiety         '(C384 H256 Ag6 B19 F46 N64 S20 13-)n'
_symmetry_cell_setting           triclinic
_symmetry_space_group_name_H-M   'P 1'
_symmetry_Int_Tables_number      1
_space_group_name_Hall           'P 1'
loop_
_symmetry_equiv_pos_site_id
_symmetry_equiv_pos_as_xyz
1 x,y,z
_cell_length_a                   22.5430(5)
_cell_length_b                   22.5430(5)
_cell_length_c                   35.5167(12)
_cell_angle_alpha                90
_cell_angle_beta                 90
_cell_angle_gamma                90
_cell_volume                     18049.1
loop_
_atom_site_label
_atom_site_type_symbol
_atom_site_fract_x
_atom_site_fract_y
_atom_site_fract_z
Ag1 Ag 0.338573(8) 0.088573(8) 0.6250
N1 N 0.23632(10) 0.09176(9) 0.64109(7)
C1 C 0.21900(12) 0.12319(14) 0.67091(8)
H1 H 0.2483 0.1441 0.6848
C2 C 0.16087(11) 0.12711(14) 0.68276(9)
H2 H 0.1506 0.1514 0.7036
C3 C 0.11773(10) 0.09512(10) 0.66383(7)
C4 C 0.13575(11) 0.06162(13) 0.63315(8)
H3 H 0.1077 0.0391 0.6192
C5 C 0.19464(11) 0.06127(14) 0.62305(7)
H4 H 0.2062 0.0379 0.6020
C6 C 0.05506(10) 0.09613(10) 0.67555(7)
S1 S 0.0000 0.09296(4) 0.64217(3)
C7 C 0.03178(10) 0.10078(10) 0.71134(7)
C8 C 0.06565(10) 0.10069(10) 0.74718(7)
C9 C 0.08374(14) 0.04801(12) 0.76310(9)
H5 H 0.0773 0.0116 0.7503
C10 C 0.11120(14) 0.04843(12) 0.79768(8)
H6 H 0.1229 0.0115 0.8083
N2 N 0.12238(9) 0.09776(9) 0.81718(6)
C11 C 0.10661(15) 0.14722(13) 0.80118(9)
H7 H 0.1159 0.1832 0.8138
C12 C 0.07743(16) 0.15108(13) 0.76721(10)
H8 H 0.0655 0.1886 0.7577
N6 N 0.34776(9) 0.12762(9) 0.56718(6)
N7 N 0.37762(9) 0.09776(9) 0.68282(6)
Ag3 Ag 0.161427(8) 0.088573(8) 0.8750
N5 N 0.34176(9) 0.98632(10) 0.60891(7)
S1_2 S 1.0000 0.09296(4) 0.64217(3)
C13 C 0.94494(10) 0.09613(10) 0.67555(7)
C14 C 0.88227(10) 0.09512(10) 0.66383(7)
C15 C 0.83913(11) 0.12711(14) 0.68276(9)
C16 C 0.78100(12) 0.12319(14) 0.67091(8)
N3 N 0.76368(10) 0.09176(9) 0.64109(7)
C17 C 0.80536(11) 0.06127(14) 0.62305(7)
C18 C 0.86425(11) 0.06162(13) 0.63315(8)
H9 H 0.8923 0.0391 0.6192
H10 H 0.7938 0.0379 0.6020
H11 H 0.7517 0.1441 0.6848
H12 H 0.8494 0.1514 0.7036
C19 C 0.96822(10) 0.10078(10) 0.71134(7)
C20 C 0.93435(10) 0.10069(10) 0.74718(7)
C21 C 0.91626(14) 0.04801(12) 0.76310(9)
H13 H 0.9227 0.0116 0.7503
C22 C 0.88880(14) 0.04843(12) 0.79768(8)
H14 H 0.8771 0.0115 0.8083
N4 N 0.87762(9) 0.09776(9) 0.81718(6)
C23 C 0.89339(15) 0.14722(13) 0.80118(9)
H15 H 0.8841 0.1832 0.8138
C24 C 0.92257(16) 0.15108(13) 0.76721(10)
H16 H 0.9345 0.1886 0.7577
Ag2 Ag 0.661427(8) 0.088573(8) 0.6250
Ag4 Ag 0.838573(8) 0.088573(8) 0.8750
N5_2 N 0.26368(10) 0.09176(9) 0.85891(7)
N7_2 N 0.15224(9) 0.12762(9) 0.93282(6)
C9_2 C 0.20199(12) 0.83374(14) 0.01310(9)
H5_2 H 0.2384 0.8273 0.0003
C10_2 C 0.20157(12) 0.86120(14) 0.04768(8)
H6_2 H 0.2385 0.8729 0.0583
N2_2 N 0.15224(9) 0.87238(9) 0.06718(6)
C11_2 C 0.10278(13) 0.85661(15) 0.05118(9)
H7_2 H 0.0668 0.8659 0.0638
C12_2 C 0.09892(13) 0.82743(16) 0.01721(10)
H8_2 H 0.0614 0.8155 0.0077
C21_2 C 0.20199(12) 0.66626(14) 0.01310(9)
H13_2 H 0.2384 0.6727 0.0003
C22_2 C 0.20157(12) 0.63880(14) 0.04768(8)
H14_2 H 0.2385 0.6271 0.0583
N4_2 N 0.15224(9) 0.62762(9) 0.06718(6)
C23_2 C 0.10278(13) 0.64339(15) 0.05118(9)
H15_2 H 0.0668 0.6341 0.0638
C24_2 C 0.09892(13) 0.67257(16) 0.01721(10)
H16_2 H 0.0614 0.6845 0.0077
Ag3_2 Ag 0.161427(8) 0.911427(8) 0.1250
Ag4_2 Ag 0.161427(8) 0.588573(8) 0.1250
N1_2 N 0.15824(9) 0.98632(10) 0.89109(7)
C1_2 C 0.12681(14) 0.96900(12) 0.92091(8)
H1_2 H 0.1059 0.9983 0.9348
C2_2 C 0.12289(14) 0.91087(11) 0.93276(9)
H2_2 H 0.0986 0.9006 0.9536
C3_2 C 0.15488(10) 0.86773(10) 0.91383(7)
C4_2 C 0.18838(13) 0.88575(11) 0.88315(8)
H3_2 H 0.2109 0.8577 0.8692
C5_2 C 0.18873(14) 0.94464(11) 0.87305(7)
H4_2 H 0.2121 0.9562 0.8520
C6_2 C 0.15387(10) 0.80506(10) 0.92555(7)
S1_3 S 0.15704(4) 0.7500 0.89217(3)
C7_2 C 0.14922(10) 0.78178(10) 0.96134(7)
C8_2 C 0.14931(10) 0.81565(10) 0.99718(7)
C13_2 C 0.15387(10) 0.69494(10) 0.92555(7)
C14_2 C 0.15488(10) 0.63227(10) 0.91383(7)
C15_2 C 0.12289(14) 0.58913(11) 0.93276(9)
C16_2 C 0.12681(14) 0.53100(12) 0.92091(8)
N3_2 N 0.15824(9) 0.51368(10) 0.89109(7)
C17_2 C 0.18873(14) 0.55536(11) 0.87305(7)
C18_2 C 0.18838(13) 0.61425(11) 0.88315(8)
H9_2 H 0.2109 0.6423 0.8692
H10_2 H 0.2121 0.5438 0.8520
H11_2 H 0.1059 0.5017 0.9348
H12_2 H 0.0986 0.5994 0.9536
C19_2 C 0.14922(10) 0.71822(10) 0.96134(7)
C20_2 C 0.14931(10) 0.68435(10) 0.99718(7)
Ag2_2 Ag 0.161427(8) 0.411427(8) 0.8750
N1_3 N 0.34176(9) 0.01368(10) 0.39109(7)
C1_3 C 0.37319(14) 0.03100(12) 0.42091(8)
H1_3 H 0.3941 0.0017 0.4348
C2_3 C 0.37711(14) 0.08913(11) 0.43276(9)
H2_3 H 0.4014 0.0994 0.4536
C3_3 C 0.34512(10) 0.13227(10) 0.41383(7)
C4_3 C 0.31162(13) 0.11425(11) 0.38315(8)
H3_3 H 0.2891 0.1423 0.3692
C5_3 C 0.31127(14) 0.05536(11) 0.37305(7)
H4_3 H 0.2879 0.0438 0.3520
C6_3 C 0.34613(10) 0.19494(10) 0.42555(7)
S1_4 S 0.34296(4) 0.2500 0.39217(3)
C7_3 C 0.35078(10) 0.21822(10) 0.46134(7)
C8_3 C 0.35069(10) 0.18435(10) 0.49718(7)
C9_3 C 0.29801(12) 0.16626(14) 0.51310(9)
H5_3 H 0.2616 0.1727 0.5003
C10_3 C 0.29843(12) 0.13880(14) 0.54768(8)
H6_3 H 0.2615 0.1271 0.5583
C11_3 C 0.39722(13) 0.14339(15) 0.55118(9)
H7_3 H 0.4332 0.1341 0.5638
C12_3 C 0.40108(13) 0.17257(16) 0.51721(10)
H8_3 H 0.4386 0.1845 0.5077
C13_3 C 0.34613(10) 0.30506(10) 0.42555(7)
C14_3 C 0.34512(10) 0.36773(10) 0.41383(7)
C15_3 C 0.37711(14) 0.41087(11) 0.43276(9)
C16_3 C 0.37319(14) 0.46900(12) 0.42091(8)
N3_3 N 0.34176(9) 0.48632(10) 0.39109(7)
C17_3 C 0.31127(14) 0.44464(11) 0.37305(7)
C18_3 C 0.31162(13) 0.38575(11) 0.38315(8)
H9_3 H 0.2891 0.3577 0.3692
H10_3 H 0.2879 0.4562 0.3520
H11_3 H 0.3941 0.4983 0.4348
H12_3 H 0.4014 0.4006 0.4536
C19_3 C 0.35078(10) 0.28178(10) 0.46134(7)
C20_3 C 0.35069(10) 0.31565(10) 0.49718(7)
C21_3 C 0.29801(12) 0.33374(14) 0.51310(9)
H13_3 H 0.2616 0.3273 0.5003
C22_3 C 0.29843(12) 0.36120(14) 0.54768(8)
H14_3 H 0.2615 0.3729 0.5583
N4_3 N 0.34776(9) 0.37238(9) 0.56718(6)
C23_3 C 0.39722(13) 0.35661(15) 0.55118(9)
H15_3 H 0.4332 0.3659 0.5638
C24_3 C 0.40108(13) 0.32743(16) 0.51721(10)
H16_3 H 0.4386 0.3155 0.5077
Ag2_3 Ag 0.338573(8) 0.588573(8) 0.3750
Ag4_3 Ag 0.338573(8) 0.411427(8) 0.6250
Ag1_2 Ag 0.338573(8) 0.911427(8) 0.3750
N5_3 N 0.23632(10) 0.90824(9) 0.35891(7)
N6_2 N 0.37762(9) 0.90224(9) 0.31718(6)
N7_3 N 0.34776(9) 0.87238(9) 0.43282(6)
C1_4 C 0.37319(14) 0.96900(12) 0.57909(8)
H1_4 H 0.3941 0.9983 0.5652
C2_4 C 0.37711(14) 0.91087(11) 0.56724(9)
H2_4 H 0.4014 0.9006 0.5464
C3_4 C 0.34512(10) 0.86773(10) 0.58617(7)
C4_4 C 0.31162(13) 0.88575(11) 0.61685(8)
H3_4 H 0.2891 0.8577 0.6308
C5_4 C 0.31127(14) 0.94464(11) 0.62695(7)
H4_4 H 0.2879 0.9562 0.6480
C6_4 C 0.34613(10) 0.80506(10) 0.57445(7)
S1_5 S 0.34296(4) 0.7500 0.60783(3)
C7_4 C 0.35078(10) 0.78178(10) 0.53866(7)
C8_4 C 0.35069(10) 0.81565(10) 0.50282(7)
C9_4 C 0.29801(12) 0.83374(14) 0.48690(9)
H5_4 H 0.2616 0.8273 0.4997
C10_4 C 0.29843(12) 0.86120(14) 0.45232(8)
H6_4 H 0.2615 0.8729 0.4417
C11_4 C 0.39722(13) 0.85661(15) 0.44882(9)
H7_4 H 0.4332 0.8659 0.4362
C12_4 C 0.40108(13) 0.82743(16) 0.48279(10)
H8_4 H 0.4386 0.8155 0.4923
C13_4 C 0.34613(10) 0.69494(10) 0.57445(7)
C14_4 C 0.34512(10) 0.63227(10) 0.58617(7)
C15_4 C 0.37711(14) 0.58913(11) 0.56724(9)
C16_4 C 0.37319(14) 0.53100(12) 0.57909(8)
N3_4 N 0.34176(9) 0.51368(10) 0.60891(7)
C17_4 C 0.31127(14) 0.55536(11) 0.62695(7)
C18_4 C 0.31162(13) 0.61425(11) 0.61685(8)
H9_4 H 0.2891 0.6423 0.6308
H10_4 H 0.2879 0.5438 0.6480
H11_4 H 0.3941 0.5017 0.5652
H12_4 H 0.4014 0.5994 0.5464
C19_4 C 0.35078(10) 0.71822(10) 0.53866(7)
C20_4 C 0.35069(10) 0.68435(10) 0.50282(7)
C21_4 C 0.29801(12) 0.66626(14) 0.48690(9)
H13_4 H 0.2616 0.6727 0.4997
C22_4 C 0.29843(12) 0.63880(14) 0.45232(8)
H14_4 H 0.2615 0.6271 0.4417
N4_4 N 0.34776(9) 0.62762(9) 0.43282(6)
C23_4 C 0.39722(13) 0.64339(15) 0.44882(9)
H15_4 H 0.4332 0.6341 0.4362
C24_4 C 0.40108(13) 0.67257(16) 0.48279(10)
H16_4 H 0.4386 0.6845 0.4923
Ag1_3 Ag 0.838573(8) 0.588573(8) 0.1250
N1_4 N 0.73632(10) 0.59176(9) 0.14109(7)
C1_5 C 0.71900(12) 0.62319(14) 0.17091(8)
H1_5 H 0.7483 0.6441 0.1848
C2_5 C 0.66087(11) 0.62711(14) 0.18276(9)
H2_5 H 0.6506 0.6514 0.2036
C3_5 C 0.61773(10) 0.59512(10) 0.16383(7)
C4_5 C 0.63575(11) 0.56162(13) 0.13315(8)
H3_5 H 0.6077 0.5391 0.1192
C5_5 C 0.69464(11) 0.56127(14) 0.12305(7)
H4_5 H 0.7062 0.5379 0.1020
C6_5 C 0.55506(10) 0.59613(10) 0.17555(7)
S1_6 S 0.5000 0.59296(4) 0.14217(3)
C7_5 C 0.53178(10) 0.60078(10) 0.21134(7)
C8_5 C 0.56565(10) 0.60069(10) 0.24718(7)
C9_5 C 0.58374(14) 0.54801(12) 0.26310(9)
H5_5 H 0.5773 0.5116 0.2503
C10_5 C 0.61120(14) 0.54843(12) 0.29768(8)
H6_5 H 0.6229 0.5115 0.3083
N2_3 N 0.62238(9) 0.59776(9) 0.31718(6)
C11_5 C 0.60661(15) 0.64722(13) 0.30118(9)
H7_5 H 0.6159 0.6832 0.3138
C12_5 C 0.57743(16) 0.65108(13) 0.26721(10)
H8_5 H 0.5655 0.6886 0.2577
C13_5 C 0.44494(10) 0.59613(10) 0.17555(7)
C14_5 C 0.38227(10) 0.59512(10) 0.16383(7)
C15_5 C 0.33913(11) 0.62711(14) 0.18276(9)
C16_5 C 0.28100(12) 0.62319(14) 0.17091(8)
N3_5 N 0.26368(10) 0.59176(9) 0.14109(7)
C17_5 C 0.30536(11) 0.56127(14) 0.12305(7)
C18_5 C 0.36425(11) 0.56162(13) 0.13315(8)
H9_5 H 0.3923 0.5391 0.1192
H10_5 H 0.2938 0.5379 0.1020
H11_5 H 0.2517 0.6441 0.1848
H12_5 H 0.3494 0.6514 0.2036
C19_5 C 0.46822(10) 0.60078(10) 0.21134(7)
C20_5 C 0.43435(10) 0.60069(10) 0.24718(7)
C21_5 C 0.41626(14) 0.54801(12) 0.26310(9)
H13_5 H 0.4227 0.5116 0.2503
C22_5 C 0.38880(14) 0.54843(12) 0.29768(8)
H14_5 H 0.3771 0.5115 0.3083
N4_5 N 0.37762(9) 0.59776(9) 0.31718(6)
C23_5 C 0.39339(15) 0.64722(13) 0.30118(9)
H15_5 H 0.3841 0.6832 0.3138
C24_5 C 0.42257(16) 0.65108(13) 0.26721(10)
H16_5 H 0.4345 0.6886 0.2577
N5_4 N 0.84176(9) 0.48632(10) 0.10891(7)
N6_3 N 0.84776(9) 0.62762(9) 0.06718(6)
N7_4 N 0.87762(9) 0.59776(9) 0.18282(6)
Ag3_3 Ag 0.661427(8) 0.588573(8) 0.3750
N1_5 N 0.65824(9) 0.48632(10) 0.39109(7)
C1_6 C 0.62681(14) 0.46900(12) 0.42091(8)
H1_6 H 0.6059 0.4983 0.4348
C2_6 C 0.62289(14) 0.41087(11) 0.43276(9)
H2_6 H 0.5986 0.4006 0.4536
C3_6 C 0.65488(10) 0.36773(10) 0.41383(7)
C4_6 C 0.68838(13) 0.38575(11) 0.38315(8)
H3_6 H 0.7109 0.3577 0.3692
C5_6 C 0.68873(14) 0.44464(11) 0.37305(7)
H4_6 H 0.7121 0.4562 0.3520
C6_6 C 0.65387(10) 0.30506(10) 0.42555(7)
S1_7 S 0.65704(4) 0.2500 0.39217(3)
C7_6 C 0.64922(10) 0.28178(10) 0.46134(7)
C8_6 C 0.64931(10) 0.31565(10) 0.49718(7)
C9_6 C 0.70199(12) 0.33374(14) 0.51310(9)
H5_6 H 0.7384 0.3273 0.5003
C10_6 C 0.70157(12) 0.36120(14) 0.54768(8)
H6_6 H 0.7385 0.3729 0.5583
N2_4 N 0.65224(9) 0.37238(9) 0.56718(6)
C11_6 C 0.60278(13) 0.35661(15) 0.55118(9)
H7_6 H 0.5668 0.3659 0.5638
C12_6 C 0.59892(13) 0.32743(16) 0.51721(10)
H8_6 H 0.5614 0.3155 0.5077
C13_6 C 0.65387(10) 0.19494(10) 0.42555(7)
C14_6 C 0.65488(10) 0.13227(10) 0.41383(7)
C15_6 C 0.62289(14) 0.08913(11) 0.43276(9)
C16_6 C 0.62681(14) 0.03100(12) 0.42091(8)
N3_6 N 0.65824(9) 0.01368(10) 0.39109(7)
C17_6 C 0.68873(14) 0.05536(11) 0.37305(7)
C18_6 C 0.68838(13) 0.11425(11) 0.38315(8)
H9_6 H 0.7109 0.1423 0.3692
H10_6 H 0.7121 0.0438 0.3520
H11_6 H 0.6059 0.0017 0.4348
H12_6 H 0.5986 0.0994 0.4536
C19_6 C 0.64922(10) 0.21822(10) 0.46134(7)
C20_6 C 0.64931(10) 0.18435(10) 0.49718(7)
C21_6 C 0.70199(12) 0.16626(14) 0.51310(9)
H13_6 H 0.7384 0.1727 0.5003
C22_6 C 0.70157(12) 0.13880(14) 0.54768(8)
H14_6 H 0.7385 0.1271 0.5583
N4_6 N 0.65224(9) 0.12762(9) 0.56718(6)
C23_6 C 0.60278(13) 0.14339(15) 0.55118(9)
H15_6 H 0.5668 0.1341 0.5638
C24_6 C 0.59892(13) 0.17257(16) 0.51721(10)
H16_6 H 0.5614 0.1845 0.5077
N5_5 N 0.76368(10) 0.59176(9) 0.35891(7)
N7_5 N 0.65224(9) 0.62762(9) 0.43282(6)
Ag3_4 Ag 0.661427(8) 0.411427(8) 0.6250
Ag2_4 Ag 0.661427(8) 0.911427(8) 0.3750
C9_7 C 0.79801(12) 0.66626(14) 0.01310(9)
H5_7 H 0.7616 0.6727 0.0003
C10_7 C 0.79843(12) 0.63880(14) 0.04768(8)
H6_7 H 0.7615 0.6271 0.0583
C11_7 C 0.89722(13) 0.64339(15) 0.05118(9)
H7_7 H 0.9332 0.6341 0.0638
C12_7 C 0.90108(13) 0.67257(16) 0.01721(10)
H8_7 H 0.9386 0.6845 0.0077
C21_7 C 0.79801(12) 0.83374(14) 0.01310(9)
H13_7 H 0.7616 0.8273 0.0003
C22_7 C 0.79843(12) 0.86120(14) 0.04768(8)
H14_7 H 0.7615 0.8729 0.0583
N4_7 N 0.84776(9) 0.87238(9) 0.06718(6)
C23_7 C 0.89722(13) 0.85661(15) 0.05118(9)
H15_7 H 0.9332 0.8659 0.0638
C24_7 C 0.90108(13) 0.82743(16) 0.01721(10)
H16_7 H 0.9386 0.8155 0.0077
Ag4_4 Ag 0.838573(8) 0.911427(8) 0.1250
Ag1_4 Ag 0.838573(8) 0.411427(8) 0.8750
N1_6 N 0.84176(9) 0.51368(10) 0.89109(7)
C1_7 C 0.87319(14) 0.53100(12) 0.92091(8)
H1_7 H 0.8941 0.5017 0.9348
C2_7 C 0.87711(14) 0.58913(11) 0.93276(9)
H2_7 H 0.9014 0.5994 0.9536
C3_7 C 0.84512(10) 0.63227(10) 0.91383(7)
C4_7 C 0.81162(13) 0.61425(11) 0.88315(8)
H3_7 H 0.7891 0.6423 0.8692
C5_7 C 0.81127(14) 0.55536(11) 0.87305(7)
H4_7 H 0.7879 0.5438 0.8520
C6_7 C 0.84613(10) 0.69494(10) 0.92555(7)
S1_8 S 0.84296(4) 0.7500 0.89217(3)
C7_7 C 0.85078(10) 0.71822(10) 0.96134(7)
C8_7 C 0.85069(10) 0.68435(10) 0.99718(7)
C13_7 C 0.84613(10) 0.80506(10) 0.92555(7)
C14_7 C 0.84512(10) 0.86773(10) 0.91383(7)
C15_7 C 0.87711(14) 0.91087(11) 0.93276(9)
C16_7 C 0.87319(14) 0.96900(12) 0.92091(8)
N3_7 N 0.84176(9) 0.98632(10) 0.89109(7)
C17_7 C 0.81127(14) 0.94464(11) 0.87305(7)
C18_7 C 0.81162(13) 0.88575(11) 0.88315(8)
H9_7 H 0.7891 0.8577 0.8692
H10_7 H 0.7879 0.9562 0.8520
H11_7 H 0.8941 0.9983 0.9348
H12_7 H 0.9014 0.9006 0.9536
C19_7 C 0.85078(10) 0.78178(10) 0.96134(7)
C20_7 C 0.85069(10) 0.81565(10) 0.99718(7)
N5_6 N 0.73632(10) 0.40824(9) 0.85891(7)
N6_4 N 0.87762(9) 0.40224(9) 0.81718(6)
N7_6 N 0.84776(9) 0.37238(9) 0.93282(6)
C1_8 C 0.87319(14) 0.46900(12) 0.07909(8)
H1_8 H 0.8941 0.4983 0.0652
C2_8 C 0.87711(14) 0.41087(11) 0.06724(9)
H2_8 H 0.9014 0.4006 0.0464
C3_8 C 0.84512(10) 0.36773(10) 0.08617(7)
C4_8 C 0.81162(13) 0.38575(11) 0.11685(8)
H3_8 H 0.7891 0.3577 0.1308
C5_8 C 0.81127(14) 0.44464(11) 0.12695(7)
H4_8 H 0.7879 0.4562 0.1480
C6_8 C 0.84613(10) 0.30506(10) 0.07445(7)
S1_9 S 0.84296(4) 0.2500 0.10783(3)
C7_8 C 0.85078(10) 0.28178(10) 0.03866(7)
C8_8 C 0.85069(10) 0.31565(10) 0.00282(7)
C13_8 C 0.84613(10) 0.19494(10) 0.07445(7)
C14_8 C 0.84512(10) 0.13227(10) 0.08617(7)
C15_8 C 0.87711(14) 0.08913(11) 0.06724(9)
C16_8 C 0.87319(14) 0.03100(12) 0.07909(8)
N3_8 N 0.84176(9) 0.01368(10) 0.10891(7)
C17_8 C 0.81127(14) 0.05536(11) 0.12695(7)
C18_8 C 0.81162(13) 0.11425(11) 0.11685(8)
H9_8 H 0.7891 0.1423 0.1308
H10_8 H 0.7879 0.0438 0.1480
H11_8 H 0.8941 0.0017 0.0652
H12_8 H 0.9014 0.0994 0.0464
C19_8 C 0.85078(10) 0.21822(10) 0.03866(7)
C20_8 C 0.85069(10) 0.18435(10) 0.00282(7)
C9_8 C 0.79801(12) 0.33374(14) 0.98690(9)
H5_8 H 0.7616 0.3273 0.9997
C10_8 C 0.79843(12) 0.36120(14) 0.95232(8)
H6_8 H 0.7615 0.3729 0.9417
C11_8 C 0.89722(13) 0.35661(15) 0.94882(9)
H7_8 H 0.9332 0.3659 0.9362
C12_8 C 0.90108(13) 0.32743(16) 0.98279(10)
H8_8 H 0.9386 0.3155 0.9923
C21_8 C 0.79801(12) 0.16626(14) 0.98690(9)
H13_8 H 0.7616 0.1727 0.9997
C22_8 C 0.79843(12) 0.13880(14) 0.95232(8)
H14_8 H 0.7615 0.1271 0.9417
N4_8 N 0.84776(9) 0.12762(9) 0.93282(6)
C23_8 C 0.89722(13) 0.14339(15) 0.94882(9)
H15_8 H 0.9332 0.1341 0.9362
C24_8 C 0.90108(13) 0.17257(16) 0.98279(10)
H16_8 H 0.9386 0.1845 0.9923
N5_7 N 0.15824(9) 0.01368(10) 0.10891(7)
N1_7 N 0.26368(10) 0.90824(9) 0.14109(7)
C1_9 C 0.28100(12) 0.87681(14) 0.17091(8)
H1_9 H 0.2517 0.8559 0.1848
C2_9 C 0.33913(11) 0.87289(14) 0.18276(9)
H2_9 H 0.3494 0.8486 0.2036
C3_9 C 0.38227(10) 0.90488(10) 0.16383(7)
C4_9 C 0.36425(11) 0.93838(13) 0.13315(8)
H3_9 H 0.3923 0.9609 0.1192
C5_9 C 0.30536(11) 0.93873(14) 0.12305(7)
H4_9 H 0.2938 0.9621 0.1020
C6_9 C 0.44494(10) 0.90387(10) 0.17555(7)
S1_10 S 0.5000 0.90704(4) 0.14217(3)
C7_9 C 0.46822(10) 0.89922(10) 0.21134(7)
C8_9 C 0.43435(10) 0.89931(10) 0.24718(7)
C9_9 C 0.41626(14) 0.95199(12) 0.26310(9)
H5_9 H 0.4227 0.9884 0.2503
C10_9 C 0.38880(14) 0.95157(12) 0.29768(8)
H6_9 H 0.3771 0.9885 0.3083
C11_9 C 0.39339(15) 0.85278(13) 0.30118(9)
H7_9 H 0.3841 0.8168 0.3138
C12_9 C 0.42257(16) 0.84892(13) 0.26721(10)
H8_9 H 0.4345 0.8114 0.2577
C13_9 C 0.55506(10) 0.90387(10) 0.17555(7)
C14_9 C 0.61773(10) 0.90488(10) 0.16383(7)
C15_9 C 0.66087(11) 0.87289(14) 0.18276(9)
C16_9 C 0.71900(12) 0.87681(14) 0.17091(8)
N3_9 N 0.73632(10) 0.90824(9) 0.14109(7)
C17_9 C 0.69464(11) 0.93873(14) 0.12305(7)
C18_9 C 0.63575(11) 0.93838(13) 0.13315(8)
H9_9 H 0.6077 0.9609 0.1192
H10_9 H 0.7062 0.9621 0.1020
H11_9 H 0.7483 0.8559 0.1848
H12_9 H 0.6506 0.8486 0.2036
C19_9 C 0.53178(10) 0.89922(10) 0.21134(7)
C20_9 C 0.56565(10) 0.89931(10) 0.24718(7)
C21_9 C 0.58374(14) 0.95199(12) 0.26310(9)
H13_9 H 0.5773 0.9884 0.2503
C22_9 C 0.61120(14) 0.95157(12) 0.29768(8)
H14_9 H 0.6229 0.9885 0.3083
N4_9 N 0.62238(9) 0.90224(9) 0.31718(6)
C23_9 C 0.60661(15) 0.85278(13) 0.30118(9)
H15_9 H 0.6159 0.8168 0.3138
C24_9 C 0.57743(16) 0.84892(13) 0.26721(10)
H16_9 H 0.5655 0.8114 0.2577
N7_7 N 0.12238(9) 0.90224(9) 0.18282(6)
C1_10 C 0.28100(12) 0.12319(14) 0.82909(8)
H1_10 H 0.2517 0.1441 0.8152
C2_10 C 0.33913(11) 0.12711(14) 0.81724(9)
H2_10 H 0.3494 0.1514 0.7964
C3_10 C 0.38227(10) 0.09512(10) 0.83617(7)
C4_10 C 0.36425(11) 0.06162(13) 0.86685(8)
H3_10 H 0.3923 0.0391 0.8808
C5_10 C 0.30536(11) 0.06127(14) 0.87695(7)
H4_10 H 0.2938 0.0379 0.8980
C6_10 C 0.44494(10) 0.09613(10) 0.82445(7)
S1_11 S 0.5000 0.09296(4) 0.85783(3)
C7_10 C 0.46822(10) 0.10078(10) 0.78866(7)
C8_10 C 0.43435(10) 0.10069(10) 0.75282(7)
C9_10 C 0.41626(14) 0.04801(12) 0.73690(9)
H5_10 H 0.4227 0.0116 0.7497
C10_10 C 0.38880(14) 0.04843(12) 0.70232(8)
H6_10 H 0.3771 0.0115 0.6917
C11_10 C 0.39339(15) 0.14722(13) 0.69882(9)
H7_10 H 0.3841 0.1832 0.6862
C12_10 C 0.42257(16) 0.15108(13) 0.73279(10)
H8_10 H 0.4345 0.1886 0.7423
C13_10 C 0.55506(10) 0.09613(10) 0.82445(7)
C14_10 C 0.61773(10) 0.09512(10) 0.83617(7)
C15_10 C 0.66087(11) 0.12711(14) 0.81724(9)
C16_10 C 0.71900(12) 0.12319(14) 0.82909(8)
N3_10 N 0.73632(10) 0.09176(9) 0.85891(7)
C17_10 C 0.69464(11) 0.06127(14) 0.87695(7)
C18_10 C 0.63575(11) 0.06162(13) 0.86685(8)
H9_10 H 0.6077 0.0391 0.8808
H10_10 H 0.7062 0.0379 0.8980
H11_10 H 0.7483 0.1441 0.8152
H12_10 H 0.6506 0.1514 0.7964
C19_10 C 0.53178(10) 0.10078(10) 0.78866(7)
C20_10 C 0.56565(10) 0.10069(10) 0.75282(7)
C21_10 C 0.58374(14) 0.04801(12) 0.73690(9)
H13_10 H 0.5773 0.0116 0.7497
C22_10 C 0.61120(14) 0.04843(12) 0.70232(8)
H14_10 H 0.6229 0.0115 0.6917
N4_10 N 0.62238(9) 0.09776(9) 0.68282(6)
C23_10 C 0.60661(15) 0.14722(13) 0.69882(9)
H15_10 H 0.6159 0.1832 0.6862
C24_10 C 0.57743(16) 0.15108(13) 0.73279(10)
H16_10 H 0.5655 0.1886 0.7423
C1_11 C 0.21900(12) 0.87681(14) 0.32909(8)
H1_11 H 0.2483 0.8559 0.3152
C2_11 C 0.16087(11) 0.87289(14) 0.31724(9)
H2_11 H 0.1506 0.8486 0.2964
C3_11 C 0.11773(10) 0.90488(10) 0.33617(7)
C4_11 C 0.13575(11) 0.93838(13) 0.36685(8)
H3_11 H 0.1077 0.9609 0.3808
C5_11 C 0.19464(11) 0.93873(14) 0.37695(7)
H4_11 H 0.2062 0.9621 0.3980
C6_11 C 0.05506(10) 0.90387(10) 0.32445(7)
S1_12 S -0.0000 0.90704(4) 0.35783(3)
C7_11 C 0.03178(10) 0.89922(10) 0.28866(7)
C8_11 C 0.06565(10) 0.89931(10) 0.25282(7)
C9_11 C 0.08374(14) 0.95199(12) 0.23690(9)
H5_11 H 0.0773 0.9884 0.2497
C10_11 C 0.11120(14) 0.95157(12) 0.20232(8)
H6_11 H 0.1229 0.9885 0.1917
C11_11 C 0.10661(15) 0.85278(13) 0.19882(9)
H7_11 H 0.1159 0.8168 0.1862
C12_11 C 0.07743(16) 0.84892(13) 0.23279(10)
H8_11 H 0.0655 0.8114 0.2423
S1_13 S 1.0000 0.90704(4) 0.35783(3)
C13_11 C 0.94494(10) 0.90387(10) 0.32445(7)
C14_11 C 0.88227(10) 0.90488(10) 0.33617(7)
C15_11 C 0.83913(11) 0.87289(14) 0.31724(9)
C16_11 C 0.78100(12) 0.87681(14) 0.32909(8)
N3_11 N 0.76368(10) 0.90824(9) 0.35891(7)
C17_11 C 0.80536(11) 0.93873(14) 0.37695(7)
C18_11 C 0.86425(11) 0.93838(13) 0.36685(8)
H9_11 H 0.8923 0.9609 0.3808
H10_11 H 0.7938 0.9621 0.3980
H11_11 H 0.7517 0.8559 0.3152
H12_11 H 0.8494 0.8486 0.2964
C19_11 C 0.96822(10) 0.89922(10) 0.28866(7)
C20_11 C 0.93435(10) 0.89931(10) 0.25282(7)
C21_11 C 0.91626(14) 0.95199(12) 0.23690(9)
H13_11 H 0.9227 0.9884 0.2497
C22_11 C 0.88880(14) 0.95157(12) 0.20232(8)
H14_11 H 0.8771 0.9885 0.1917
N4_11 N 0.87762(9) 0.90224(9) 0.18282(6)
C23_11 C 0.89339(15) 0.85278(13) 0.19882(9)
H15_11 H 0.8841 0.8168 0.1862
C24_11 C 0.92257(16) 0.84892(13) 0.23279(10)
H16_11 H 0.9345 0.8114 0.2423
C1_12 C 0.12681(14) 0.03100(12) 0.07909(8)
H1_12 H 0.1059 0.0017 0.0652
C2_12 C 0.12289(14) 0.08913(11) 0.06724(9)
H2_12 H 0.0986 0.0994 0.0464
C3_12 C 0.15488(10) 0.13227(10) 0.08617(7)
C4_12 C 0.18838(13) 0.11425(11) 0.11685(8)
H3_12 H 0.2109 0.1423 0.1308
C5_12 C 0.18873(14) 0.05536(11) 0.12695(7)
H4_12 H 0.2121 0.0438 0.1480
C6_12 C 0.15387(10) 0.19494(10) 0.07445(7)
S1_14 S 0.15704(4) 0.2500 0.10783(3)
C7_12 C 0.14922(10) 0.21822(10) 0.03866(7)
C8_12 C 0.14931(10) 0.18435(10) 0.00282(7)
C13_12 C 0.15387(10) 0.30506(10) 0.07445(7)
C14_12 C 0.15488(10) 0.36773(10) 0.08617(7)
C15_12 C 0.12289(14) 0.41087(11) 0.06724(9)
C16_12 C 0.12681(14) 0.46900(12) 0.07909(8)
N3_12 N 0.15824(9) 0.48632(10) 0.10891(7)
C17_12 C 0.18873(14) 0.44464(11) 0.12695(7)
C18_12 C 0.18838(13) 0.38575(11) 0.11685(8)
H9_12 H 0.2109 0.3577 0.1308
H10_12 H 0.2121 0.4562 0.1480
H11_12 H 0.1059 0.4983 0.0652
H12_12 H 0.0986 0.4006 0.0464
C19_12 C 0.14922(10) 0.28178(10) 0.03866(7)
C20_12 C 0.14931(10) 0.31565(10) 0.00282(7)
C9_12 C 0.20199(12) 0.16626(14) 0.98690(9)
H5_12 H 0.2384 0.1727 0.9997
C10_12 C 0.20157(12) 0.13880(14) 0.95232(8)
H6_12 H 0.2385 0.1271 0.9417
C11_12 C 0.10278(13) 0.14339(15) 0.94882(9)
H7_12 H 0.0668 0.1341 0.9362
C12_12 C 0.09892(13) 0.17257(16) 0.98279(10)
H8_12 H 0.0614 0.1845 0.9923
C21_12 C 0.20199(12) 0.33374(14) 0.98690(9)
H13_12 H 0.2384 0.3273 0.9997
C22_12 C 0.20157(12) 0.36120(14) 0.95232(8)
H14_12 H 0.2385 0.3729 0.9417
N4_12 N 0.15224(9) 0.37238(9) 0.93282(6)
C23_12 C 0.10278(13) 0.35661(15) 0.94882(9)
H15_12 H 0.0668 0.3659 0.9362
C24_12 C 0.09892(13) 0.32743(16) 0.98279(10)
H16_12 H 0.0614 0.3155 0.9923
S1_15 S -0.0000 0.40704(4) 0.64217(3)
C13_13 C 0.05506(10) 0.40387(10) 0.67555(7)
C14_13 C 0.11773(10) 0.40488(10) 0.66383(7)
C15_13 C 0.16087(11) 0.37289(14) 0.68276(9)
C16_13 C 0.21900(12) 0.37681(14) 0.67091(8)
N3_13 N 0.23632(10) 0.40824(9) 0.64109(7)
C17_13 C 0.19464(11) 0.43873(14) 0.62305(7)
C18_13 C 0.13575(11) 0.43838(13) 0.63315(8)
H9_13 H 0.1077 0.4609 0.6192
H10_13 H 0.2062 0.4621 0.6020
H11_13 H 0.2483 0.3559 0.6848
H12_13 H 0.1506 0.3486 0.7036
C19_13 C 0.03178(10) 0.39922(10) 0.71134(7)
C20_13 C 0.06565(10) 0.39931(10) 0.74718(7)
C21_13 C 0.08374(14) 0.45199(12) 0.76310(9)
H13_13 H 0.0773 0.4884 0.7503
C22_13 C 0.11120(14) 0.45157(12) 0.79768(8)
H14_13 H 0.1229 0.4885 0.8083
N4_13 N 0.12238(9) 0.40224(9) 0.81718(6)
C23_13 C 0.10661(15) 0.35278(13) 0.80118(9)
H15_13 H 0.1159 0.3168 0.8138
C24_13 C 0.07743(16) 0.34892(13) 0.76721(10)
H16_13 H 0.0655 0.3114 0.7577
N1_8 N 0.76368(10) 0.40824(9) 0.64109(7)
C1_13 C 0.78100(12) 0.37681(14) 0.67091(8)
H1_13 H 0.7517 0.3559 0.6848
C2_13 C 0.83913(11) 0.37289(14) 0.68276(9)
H2_13 H 0.8494 0.3486 0.7036
C3_13 C 0.88227(10) 0.40488(10) 0.66383(7)
C4_13 C 0.86425(11) 0.43838(13) 0.63315(8)
H3_13 H 0.8923 0.4609 0.6192
C5_13 C 0.80536(11) 0.43873(14) 0.62305(7)
H4_13 H 0.7938 0.4621 0.6020
C6_13 C 0.94494(10) 0.40387(10) 0.67555(7)
S1_16 S 1.0000 0.40704(4) 0.64217(3)
C7_13 C 0.96822(10) 0.39922(10) 0.71134(7)
C8_13 C 0.93435(10) 0.39931(10) 0.74718(7)
C9_13 C 0.91626(14) 0.45199(12) 0.76310(9)
H5_13 H 0.9227 0.4884 0.7503
C10_13 C 0.88880(14) 0.45157(12) 0.79768(8)
H6_13 H 0.8771 0.4885 0.8083
C11_13 C 0.89339(15) 0.35278(13) 0.80118(9)
H7_13 H 0.8841 0.3168 0.8138
C12_13 C 0.92257(16) 0.34892(13) 0.76721(10)
H8_13 H 0.9345 0.3114 0.7577
N5_8 N 0.65824(9) 0.51368(10) 0.60891(7)
N7_8 N 0.62238(9) 0.40224(9) 0.68282(6)
S1_17 S -0.0000 0.59296(4) 0.35783(3)
C13_14 C 0.05506(10) 0.59613(10) 0.32445(7)
C14_14 C 0.11773(10) 0.59512(10) 0.33617(7)
C15_14 C 0.16087(11) 0.62711(14) 0.31724(9)
C16_14 C 0.21900(12) 0.62319(14) 0.32909(8)
N3_14 N 0.23632(10) 0.59176(9) 0.35891(7)
C17_14 C 0.19464(11) 0.56127(14) 0.37695(7)
C18_14 C 0.13575(11) 0.56162(13) 0.36685(8)
H9_14 H 0.1077 0.5391 0.3808
H10_14 H 0.2062 0.5379 0.3980
H11_14 H 0.2483 0.6441 0.3152
H12_14 H 0.1506 0.6514 0.2964
C19_14 C 0.03178(10) 0.60078(10) 0.28866(7)
C20_14 C 0.06565(10) 0.60069(10) 0.25282(7)
C21_14 C 0.08374(14) 0.54801(12) 0.23690(9)
H13_14 H 0.0773 0.5116 0.2497
C22_14 C 0.11120(14) 0.54843(12) 0.20232(8)
H14_14 H 0.1229 0.5115 0.1917
N4_14 N 0.12238(9) 0.59776(9) 0.18282(6)
C23_14 C 0.10661(15) 0.64722(13) 0.19882(9)
H15_14 H 0.1159 0.6832 0.1862
C24_14 C 0.07743(16) 0.65108(13) 0.23279(10)
H16_14 H 0.0655 0.6886 0.2423
C1_14 C 0.78100(12) 0.62319(14) 0.32909(8)
H1_14 H 0.7517 0.6441 0.3152
C2_14 C 0.83913(11) 0.62711(14) 0.31724(9)
H2_14 H 0.8494 0.6514 0.2964
C3_14 C 0.88227(10) 0.59512(10) 0.33617(7)
C4_14 C 0.86425(11) 0.56162(13) 0.36685(8)
H3_14 H 0.8923 0.5391 0.3808
C5_14 C 0.80536(11) 0.56127(14) 0.37695(7)
H4_14 H 0.7938 0.5379 0.3980
C6_14 C 0.94494(10) 0.59613(10) 0.32445(7)
S1_18 S 1.0000 0.59296(4) 0.35783(3)
C7_14 C 0.96822(10) 0.60078(10) 0.28866(7)
C8_14 C 0.93435(10) 0.60069(10) 0.25282(7)
C9_14 C 0.91626(14) 0.54801(12) 0.23690(9)
H5_14 H 0.9227 0.5116 0.2497
C10_14 C 0.88880(14) 0.54843(12) 0.20232(8)
H6_14 H 0.8771 0.5115 0.1917
C11_14 C 0.89339(15) 0.64722(13) 0.19882(9)
H7_14 H 0.8841 0.6832 0.1862
C12_14 C 0.92257(16) 0.65108(13) 0.23279(10)
H8_14 H 0.9345 0.6886 0.2423
C1_15 C 0.71900(12) 0.37681(14) 0.82909(8)
H1_15 H 0.7483 0.3559 0.8152
C2_15 C 0.66087(11) 0.37289(14) 0.81724(9)
H2_15 H 0.6506 0.3486 0.7964
C3_15 C 0.61773(10) 0.40488(10) 0.83617(7)
C4_15 C 0.63575(11) 0.43838(13) 0.86685(8)
H3_15 H 0.6077 0.4609 0.8808
C5_15 C 0.69464(11) 0.43873(14) 0.87695(7)
H4_15 H 0.7062 0.4621 0.8980
C6_15 C 0.55506(10) 0.40387(10) 0.82445(7)
S1_19 S 0.5000 0.40704(4) 0.85783(3)
C7_15 C 0.53178(10) 0.39922(10) 0.78866(7)
C8_15 C 0.56565(10) 0.39931(10) 0.75282(7)
C9_15 C 0.58374(14) 0.45199(12) 0.73690(9)
H5_15 H 0.5773 0.4884 0.7497
C10_15 C 0.61120(14) 0.45157(12) 0.70232(8)
H6_15 H 0.6229 0.4885 0.6917
C11_15 C 0.60661(15) 0.35278(13) 0.69882(9)
H7_15 H 0.6159 0.3168 0.6862
C12_15 C 0.57743(16) 0.34892(13) 0.73279(10)
H8_15 H 0.5655 0.3114 0.7423
C13_15 C 0.44494(10) 0.40387(10) 0.82445(7)
C14_15 C 0.38227(10) 0.40488(10) 0.83617(7)
C15_15 C 0.33913(11) 0.37289(14) 0.81724(9)
C16_15 C 0.28100(12) 0.37681(14) 0.82909(8)
N3_15 N 0.26368(10) 0.40824(9) 0.85891(7)
C17_15 C 0.30536(11) 0.43873(14) 0.87695(7)
C18_15 C 0.36425(11) 0.43838(13) 0.86685(8)
H9_15 H 0.3923 0.4609 0.8808
H10_15 H 0.2938 0.4621 0.8980
H11_15 H 0.2517 0.3559 0.8152
H12_15 H 0.3494 0.3486 0.7964
C19_15 C 0.46822(10) 0.39922(10) 0.78866(7)
C20_15 C 0.43435(10) 0.39931(10) 0.75282(7)
C21_15 C 0.41626(14) 0.45199(12) 0.73690(9)
H13_15 H 0.4227 0.4884 0.7497
C22_15 C 0.38880(14) 0.45157(12) 0.70232(8)
H14_15 H 0.3771 0.4885 0.6917
N4_15 N 0.37762(9) 0.40224(9) 0.68282(6)
C23_15 C 0.39339(15) 0.35278(13) 0.69882(9)
H15_15 H 0.3841 0.3168 0.6862
C24_15 C 0.42257(16) 0.34892(13) 0.73279(10)
H16_15 H 0.4345 0.3114 0.7423
C1_16 C 0.62681(14) 0.53100(12) 0.57909(8)
H1_16 H 0.6059 0.5017 0.5652
C2_16 C 0.62289(14) 0.58913(11) 0.56724(9)
H2_16 H 0.5986 0.5994 0.5464
C3_16 C 0.65488(10) 0.63227(10) 0.58617(7)
C4_16 C 0.68838(13) 0.61425(11) 0.61685(8)
H3_16 H 0.7109 0.6423 0.6308
C5_16 C 0.68873(14) 0.55536(11) 0.62695(7)
H4_16 H 0.7121 0.5438 0.6480
C6_16 C 0.65387(10) 0.69494(10) 0.57445(7)
S1_20 S 0.65704(4) 0.7500 0.60783(3)
C7_16 C 0.64922(10) 0.71822(10) 0.53866(7)
C8_16 C 0.64931(10) 0.68435(10) 0.50282(7)
C9_16 C 0.70199(12) 0.66626(14) 0.48690(9)
H5_16 H 0.7384 0.6727 0.4997
C10_16 C 0.70157(12) 0.63880(14) 0.45232(8)
H6_16 H 0.7385 0.6271 0.4417
C11_16 C 0.60278(13) 0.64339(15) 0.44882(9)
H7_16 H 0.5668 0.6341 0.4362
C12_16 C 0.59892(13) 0.67257(16) 0.48279(10)
H8_16 H 0.5614 0.6845 0.4923
C13_16 C 0.65387(10) 0.80506(10) 0.57445(7)
C14_16 C 0.65488(10) 0.86773(10) 0.58617(7)
C15_16 C 0.62289(14) 0.91087(11) 0.56724(9)
C16_16 C 0.62681(14) 0.96900(12) 0.57909(8)
N3_16 N 0.65824(9) 0.98632(10) 0.60891(7)
C17_16 C 0.68873(14) 0.94464(11) 0.62695(7)
C18_16 C 0.68838(13) 0.88575(11) 0.61685(8)
H9_16 H 0.7109 0.8577 0.6308
H10_16 H 0.7121 0.9562 0.6480
H11_16 H 0.6059 0.9983 0.5652
H12_16 H 0.5986 0.9006 0.5464
C19_16 C 0.64922(10) 0.78178(10) 0.53866(7)
C20_16 C 0.64931(10) 0.81565(10) 0.50282(7)
C21_16 C 0.70199(12) 0.83374(14) 0.48690(9)
H13_16 H 0.7384 0.8273 0.4997
C22_16 C 0.70157(12) 0.86120(14) 0.45232(8)
H14_16 H 0.7385 0.8729 0.4417
N4_16 N 0.65224(9) 0.87238(9) 0.43282(6)
C23_16 C 0.60278(13) 0.85661(15) 0.44882(9)
H15_16 H 0.5668 0.8659 0.4362
C24_16 C 0.59892(13) 0.82743(16) 0.48279(10)
H16_16 H 0.5614 0.8155 0.4923
B1 B 0.2500 0.2500 0.7500
F1 F 0.2500 0.1910(2) 0.7500
F2 F 0.2213(3) 0.2500 0.7880(2)
F3 F 0.2500 0.3090(2) 0.7500
F4 F 0.2787(3) 0.2500 0.7120(2)
B1_2 B 0.0000 -0.0000 0.0000
F1_2 F 0.0590(2) -0.0000 0.0000
B1_3 B 0.0000 -0.0000 1.0000
F1_3 F 0.0590(2) -0.0000 1.0000
F4_2 F -0.0000 0.0287(3) 0.9620(2)
B1_4 B 0.0000 1.0000 0.0000
F1_4 F 0.0590(2) 1.0000 0.0000
F2_2 F 0.0000 0.9713(3) 0.0380(2)
B1_5 B 0.0000 1.0000 1.0000
F1_5 F 0.0590(2) 1.0000 1.0000
B1_6 B 1.0000 -0.0000 0.0000
F3_2 F 0.9410(2) -0.0000 0.0000
B1_7 B 1.0000 -0.0000 1.0000
F3_3 F 0.9410(2) -0.0000 1.0000
F4_3 F 1.0000 0.0287(3) 0.9620(2)
B1_8 B 1.0000 1.0000 0.0000
F2_3 F 1.0000 0.9713(3) 0.0380(2)
F3_4 F 0.9410(2) 1.0000 0.0000
B1_9 B 1.0000 1.0000 1.0000
F3_5 F 0.9410(2) 1.0000 1.0000
B1_10 B 0.5000 0.0000 0.5000
F1_6 F 0.4410(2) 0.0000 0.5000
F2_4 F 0.5000 0.0287(3) 0.5380(2)
F3_6 F 0.5590(2) 0.0000 0.5000
B1_11 B 0.5000 1.0000 0.5000
F1_7 F 0.4410(2) 1.0000 0.5000
F3_7 F 0.5590(2) 1.0000 0.5000
F4_4 F 0.5000 0.9713(3) 0.4620(2)
B1_12 B 0.7500 0.7500 0.2500
F1_8 F 0.7500 0.6910(2) 0.2500
F2_5 F 0.7213(3) 0.7500 0.2880(2)
F3_8 F 0.7500 0.8090(2) 0.2500
F4_5 F 0.7787(3) 0.7500 0.2120(2)
B1_13 B 0.5000 0.5000 0.5000
F1_9 F 0.5590(2) 0.5000 0.5000
F2_6 F 0.5000 0.4713(3) 0.5380(2)
F3_9 F 0.4410(2) 0.5000 0.5000
F4_6 F 0.5000 0.5287(3) 0.4620(2)
B1_14 B -0.0000 0.5000 0.0000
F2_7 F -0.0000 0.5287(3) 0.0380(2)
F3_10 F 0.0590(2) 0.5000 0.0000
B1_15 B -0.0000 0.5000 1.0000
F3_11 F 0.0590(2) 0.5000 1.0000
F4_7 F 0.0000 0.4713(3) 0.9620(2)
B1_16 B 1.0000 0.5000 0.0000
F1_10 F 0.9410(2) 0.5000 0.0000
F2_8 F 1.0000 0.5287(3) 0.0380(2)
B1_17 B 1.0000 0.5000 1.0000
F1_11 F 0.9410(2) 0.5000 1.0000
F4_8 F 1.0000 0.4713(3) 0.9620(2)
B1_18 B 0.2500 0.7500 0.2500
F1_12 F 0.2500 0.8090(2) 0.2500
F2_9 F 0.2787(3) 0.7500 0.2880(2)
F3_12 F 0.2500 0.6910(2) 0.2500
F4_9 F 0.2213(3) 0.7500 0.2120(2)
B1_19 B 0.7500 0.2500 0.7500
F1_13 F 0.7500 0.3090(2) 0.7500
F2_10 F 0.7787(3) 0.2500 0.7880(2)
F3_13 F 0.7500 0.1910(2) 0.7500
F4_10 F 0.7213(3) 0.2500 0.7120(2)
loop_
_geom_bond_atom_site_label_1
_geom_bond_atom_site_label_2
_geom_bond_site_symmetry_1
_geom_bond_site_symmetry_2
Ag1 N1 1_555 1_555
N1 C1 1_555 1_555
C1 H1 1_555 1_555
C2 C1 1_555 1_555
H2 C2 1_555 1_555
C3 C2 1_555 1_555
C4 C3 1_555 1_555
H3 C4 1_555 1_555
C5 N1 1_555 1_555
H4 C5 1_555 1_555
C6 C3 1_555 1_555
S1 C6 1_555 1_555
C7 C6 1_555 1_555
C8 C7 1_555 1_555
C9 C8 1_555 1_555
H5 C9 1_555 1_555
C10 C9 1_555 1_555
H6 C10 1_555 1_555
N2 C10 1_555 1_555
C11 N2 1_555 1_555
H7 C11 1_555 1_555
C12 C8 1_555 1_555
H8 C12 1_555 1_555
N6 Ag1 1_555 1_555
N7 Ag1 1_555 1_555
Ag3 N2 1_555 1_555
C4 C5 1_555 1_555
C11 C12 1_555 1_555
C13 S1_2 1_555 1_555
C14 C13 1_555 1_555
C15 C14 1_555 1_555
C16 C15 1_555 1_555
N3 C16 1_555 1_555
C17 N3 1_555 1_555
C18 C14 1_555 1_555
H9 C18 1_555 1_555
H10 C17 1_555 1_555
H11 C16 1_555 1_555
H12 C15 1_555 1_555
C20 C19 1_555 1_555
C21 C20 1_555 1_555
H13 C21 1_555 1_555
C22 C21 1_555 1_555
H14 C22 1_555 1_555
N4 C22 1_555 1_555
C23 N4 1_555 1_555
H15 C23 1_555 1_555
C24 C20 1_555 1_555
H16 C24 1_555 1_555
Ag2 N3 1_555 1_555
Ag4 N4 1_555 1_555
C13 C19 1_555 1_555
C17 C18 1_555 1_555
C23 C24 1_555 1_555
N5_2 Ag3 1_555 1_555
N7_2 Ag3 1_555 1_555
H5_2 C9_2 1_555 1_555
C10_2 C9_2 1_555 1_555
H6_2 C10_2 1_555 1_555
N2_2 C10_2 1_555 1_555
C11_2 N2_2 1_555 1_555
H7_2 C11_2 1_555 1_555
H8_2 C12_2 1_555 1_555
H13_2 C21_2 1_555 1_555
C22_2 C21_2 1_555 1_555
H14_2 C22_2 1_555 1_555
N4_2 C22_2 1_555 1_555
C23_2 N4_2 1_555 1_555
H15_2 C23_2 1_555 1_555
H16_2 C24_2 1_555 1_555
Ag3_2 N2_2 1_555 1_555
Ag4_2 N4_2 1_555 1_555
C11_2 C12_2 1_555 1_555
C23_2 C24_2 1_555 1_555
N1_2 C1_2 1_555 1_555
C1_2 H1_2 1_555 1_555
C2_2 C1_2 1_555 1_555
H2_2 C2_2 1_555 1_555
C3_2 C2_2 1_555 1_555
C4_2 C3_2 1_555 1_555
H3_2 C4_2 1_555 1_555
C5_2 N1_2 1_555 1_555
H4_2 C5_2 1_555 1_555
C6_2 C3_2 1_555 1_555
S1_3 C6_2 1_555 1_555
C7_2 C6_2 1_555 1_555
C8_2 C7_2 1_555 1_555
C13_2 S1_3 1_555 1_555
C14_2 C13_2 1_555 1_555
C15_2 C14_2 1_555 1_555
C16_2 C15_2 1_555 1_555
N3_2 C16_2 1_555 1_555
C17_2 N3_2 1_555 1_555
C18_2 C14_2 1_555 1_555
H9_2 C18_2 1_555 1_555
H10_2 C17_2 1_555 1_555
H11_2 C16_2 1_555 1_555
H12_2 C15_2 1_555 1_555
C19_2 C7_2 1_555 1_555
C20_2 C19_2 1_555 1_555
Ag2_2 N3_2 1_555 1_555
C4_2 C5_2 1_555 1_555
C13_2 C19_2 1_555 1_555
C17_2 C18_2 1_555 1_555
N1_3 C1_3 1_555 1_555
C1_3 H1_3 1_555 1_555
C2_3 C1_3 1_555 1_555
H2_3 C2_3 1_555 1_555
C3_3 C2_3 1_555 1_555
C4_3 C3_3 1_555 1_555
H3_3 C4_3 1_555 1_555
C5_3 N1_3 1_555 1_555
H4_3 C5_3 1_555 1_555
C6_3 C3_3 1_555 1_555
S1_4 C6_3 1_555 1_555
C7_3 C6_3 1_555 1_555
C8_3 C7_3 1_555 1_555
C9_3 C8_3 1_555 1_555
H5_3 C9_3 1_555 1_555
C10_3 C9_3 1_555 1_555
H6_3 C10_3 1_555 1_555
N6 C10_3 1_555 1_555
C11_3 N6 1_555 1_555
H7_3 C11_3 1_555 1_555
C12_3 C8_3 1_555 1_555
H8_3 C12_3 1_555 1_555
C13_3 S1_4 1_555 1_555
C14_3 C13_3 1_555 1_555
C15_3 C14_3 1_555 1_555
C16_3 C15_3 1_555 1_555
N3_3 C16_3 1_555 1_555
C17_3 N3_3 1_555 1_555
C18_3 C14_3 1_555 1_555
H9_3 C18_3 1_555 1_555
H10_3 C17_3 1_555 1_555
H11_3 C16_3 1_555 1_555
H12_3 C15_3 1_555 1_555
C19_3 C7_3 1_555 1_555
C20_3 C19_3 1_555 1_555
C21_3 C20_3 1_555 1_555
H13_3 C21_3 1_555 1_555
C22_3 C21_3 1_555 1_555
H14_3 C22_3 1_555 1_555
N4_3 C22_3 1_555 1_555
C23_3 N4_3 1_555 1_555
H15_3 C23_3 1_555 1_555
C24_3 C20_3 1_555 1_555
H16_3 C24_3 1_555 1_555
Ag2_3 N3_3 1_555 1_555
Ag4_3 N4_3 1_555 1_555
C4_3 C5_3 1_555 1_555
C11_3 C12_3 1_555 1_555
C13_3 C19_3 1_555 1_555
C17_3 C18_3 1_555 1_555
C23_3 C24_3 1_555 1_555
N5_3 Ag1_2 1_555 1_555
N6_2 Ag1_2 1_555 1_555
N7_3 Ag1_2 1_555 1_555
N5 C1_4 1_555 1_555
C1_4 H1_4 1_555 1_555
C2_4 C1_4 1_555 1_555
H2_4 C2_4 1_555 1_555
C3_4 C2_4 1_555 1_555
C4_4 C3_4 1_555 1_555
H3_4 C4_4 1_555 1_555
C5_4 N5 1_555 1_555
H4_4 C5_4 1_555 1_555
C6_4 C3_4 1_555 1_555
S1_5 C6_4 1_555 1_555
C7_4 C6_4 1_555 1_555
C8_4 C7_4 1_555 1_555
C9_4 C8_4 1_555 1_555
H5_4 C9_4 1_555 1_555
C10_4 C9_4 1_555 1_555
H6_4 C10_4 1_555 1_555
N7_3 C10_4 1_555 1_555
C11_4 N7_3 1_555 1_555
H7_4 C11_4 1_555 1_555
C12_4 C8_4 1_555 1_555
H8_4 C12_4 1_555 1_555
C13_4 S1_5 1_555 1_555
C14_4 C13_4 1_555 1_555
C15_4 C14_4 1_555 1_555
C16_4 C15_4 1_555 1_555
N3_4 C16_4 1_555 1_555
C17_4 N3_4 1_555 1_555
C18_4 C14_4 1_555 1_555
H9_4 C18_4 1_555 1_555
H10_4 C17_4 1_555 1_555
H11_4 C16_4 1_555 1_555
H12_4 C15_4 1_555 1_555
C19_4 C7_4 1_555 1_555
C20_4 C19_4 1_555 1_555
C21_4 C20_4 1_555 1_555
H13_4 C21_4 1_555 1_555
C22_4 C21_4 1_555 1_555
H14_4 C22_4 1_555 1_555
N4_4 C22_4 1_555 1_555
C23_4 N4_4 1_555 1_555
H15_4 C23_4 1_555 1_555
C24_4 C20_4 1_555 1_555
H16_4 C24_4 1_555 1_555
Ag4_3 N3_4 1_555 1_555
Ag2_3 N4_4 1_555 1_555
C4_4 C5_4 1_555 1_555
C11_4 C12_4 1_555 1_555
C13_4 C19_4 1_555 1_555
C17_4 C18_4 1_555 1_555
C23_4 C24_4 1_555 1_555
Ag1_3 N1_4 1_555 1_555
N1_4 C1_5 1_555 1_555
C1_5 H1_5 1_555 1_555
C2_5 C1_5 1_555 1_555
H2_5 C2_5 1_555 1_555
C3_5 C2_5 1_555 1_555
C4_5 C3_5 1_555 1_555
H3_5 C4_5 1_555 1_555
C5_5 N1_4 1_555 1_555
H4_5 C5_5 1_555 1_555
C6_5 C3_5 1_555 1_555
S1_6 C6_5 1_555 1_555
C7_5 C6_5 1_555 1_555
C8_5 C7_5 1_555 1_555
C9_5 C8_5 1_555 1_555
H5_5 C9_5 1_555 1_555
C10_5 C9_5 1_555 1_555
H6_5 C10_5 1_555 1_555
N2_3 C10_5 1_555 1_555
C11_5 N2_3 1_555 1_555
H7_5 C11_5 1_555 1_555
C12_5 C8_5 1_555 1_555
H8_5 C12_5 1_555 1_555
C13_5 S1_6 1_555 1_555
C14_5 C13_5 1_555 1_555
C15_5 C14_5 1_555 1_555
C16_5 C15_5 1_555 1_555
N3_5 C16_5 1_555 1_555
C17_5 N3_5 1_555 1_555
C18_5 C14_5 1_555 1_555
H9_5 C18_5 1_555 1_555
H10_5 C17_5 1_555 1_555
H11_5 C16_5 1_555 1_555
H12_5 C15_5 1_555 1_555
C19_5 C7_5 1_555 1_555
C20_5 C19_5 1_555 1_555
C21_5 C20_5 1_555 1_555
H13_5 C21_5 1_555 1_555
C22_5 C21_5 1_555 1_555
H14_5 C22_5 1_555 1_555
N4_5 C22_5 1_555 1_555
C23_5 N4_5 1_555 1_555
H15_5 C23_5 1_555 1_555
C24_5 C20_5 1_555 1_555
H16_5 C24_5 1_555 1_555
N5_4 Ag1_3 1_555 1_555
Ag4_2 N3_5 1_555 1_555
N6_3 Ag1_3 1_555 1_555
N7_4 Ag1_3 1_555 1_555
Ag3_3 N2_3 1_555 1_555
Ag2_3 N4_5 1_555 1_555
C4_5 C5_5 1_555 1_555
C11_5 C12_5 1_555 1_555
C13_5 C19_5 1_555 1_555
C17_5 C18_5 1_555 1_555
C23_5 C24_5 1_555 1_555
Ag3_3 N1_5 1_555 1_555
N1_5 C1_6 1_555 1_555
C1_6 H1_6 1_555 1_555
C2_6 C1_6 1_555 1_555
H2_6 C2_6 1_555 1_555
C3_6 C2_6 1_555 1_555
C4_6 C3_6 1_555 1_555
H3_6 C4_6 1_555 1_555
C5_6 N1_5 1_555 1_555
H4_6 C5_6 1_555 1_555
C6_6 C3_6 1_555 1_555
S1_7 C6_6 1_555 1_555
C7_6 C6_6 1_555 1_555
C8_6 C7_6 1_555 1_555
C9_6 C8_6 1_555 1_555
H5_6 C9_6 1_555 1_555
C10_6 C9_6 1_555 1_555
H6_6 C10_6 1_555 1_555
N2_4 C10_6 1_555 1_555
C11_6 N2_4 1_555 1_555
H7_6 C11_6 1_555 1_555
C12_6 C8_6 1_555 1_555
H8_6 C12_6 1_555 1_555
C13_6 S1_7 1_555 1_555
C14_6 C13_6 1_555 1_555
C15_6 C14_6 1_555 1_555
C16_6 C15_6 1_555 1_555
N3_6 C16_6 1_555 1_555
C17_6 N3_6 1_555 1_555
C18_6 C14_6 1_555 1_555
H9_6 C18_6 1_555 1_555
H10_6 C17_6 1_555 1_555
H11_6 C16_6 1_555 1_555
H12_6 C15_6 1_555 1_555
C19_6 C7_6 1_555 1_555
C20_6 C19_6 1_555 1_555
C21_6 C20_6 1_555 1_555
H13_6 C21_6 1_555 1_555
C22_6 C21_6 1_555 1_555
H14_6 C22_6 1_555 1_555
N4_6 C22_6 1_555 1_555
C23_6 N4_6 1_555 1_555
H15_6 C23_6 1_555 1_555
C24_6 C20_6 1_555 1_555
H16_6 C24_6 1_555 1_555
N5_5 Ag3_3 1_555 1_555
N7_5 Ag3_3 1_555 1_555
Ag3_4 N2_4 1_555 1_555
Ag2 N4_6 1_555 1_555
C4_6 C5_6 1_555 1_555
C11_6 C12_6 1_555 1_555
C13_6 C19_6 1_555 1_555
C17_6 C18_6 1_555 1_555
C23_6 C24_6 1_555 1_555
H5_7 C9_7 1_555 1_555
C10_7 C9_7 1_555 1_555
H6_7 C10_7 1_555 1_555
N6_3 C10_7 1_555 1_555
C11_7 N6_3 1_555 1_555
H7_7 C11_7 1_555 1_555
H8_7 C12_7 1_555 1_555
H13_7 C21_7 1_555 1_555
C22_7 C21_7 1_555 1_555
H14_7 C22_7 1_555 1_555
N4_7 C22_7 1_555 1_555
C23_7 N4_7 1_555 1_555
H15_7 C23_7 1_555 1_555
H16_7 C24_7 1_555 1_555
Ag4_4 N4_7 1_555 1_555
C11_7 C12_7 1_555 1_555
C23_7 C24_7 1_555 1_555
Ag1_4 N1_6 1_555 1_555
N1_6 C1_7 1_555 1_555
C1_7 H1_7 1_555 1_555
C2_7 C1_7 1_555 1_555
H2_7 C2_7 1_555 1_555
C3_7 C2_7 1_555 1_555
C4_7 C3_7 1_555 1_555
H3_7 C4_7 1_555 1_555
C5_7 N1_6 1_555 1_555
H4_7 C5_7 1_555 1_555
C6_7 C3_7 1_555 1_555
S1_8 C6_7 1_555 1_555
C7_7 C6_7 1_555 1_555
C8_7 C7_7 1_555 1_555
C13_7 S1_8 1_555 1_555
C14_7 C13_7 1_555 1_555
C15_7 C14_7 1_555 1_555
C16_7 C15_7 1_555 1_555
N3_7 C16_7 1_555 1_555
C17_7 N3_7 1_555 1_555
C18_7 C14_7 1_555 1_555
H9_7 C18_7 1_555 1_555
H10_7 C17_7 1_555 1_555
H11_7 C16_7 1_555 1_555
H12_7 C15_7 1_555 1_555
C19_7 C7_7 1_555 1_555
C20_7 C19_7 1_555 1_555
N5_6 Ag1_4 1_555 1_555
N6_4 Ag1_4 1_555 1_555
N7_6 Ag1_4 1_555 1_555
C4_7 C5_7 1_555 1_555
C13_7 C19_7 1_555 1_555
C17_7 C18_7 1_555 1_555
N5_4 C1_8 1_555 1_555
C1_8 H1_8 1_555 1_555
C2_8 C1_8 1_555 1_555
H2_8 C2_8 1_555 1_555
C3_8 C2_8 1_555 1_555
C4_8 C3_8 1_555 1_555
H3_8 C4_8 1_555 1_555
C5_8 N5_4 1_555 1_555
H4_8 C5_8 1_555 1_555
C6_8 C3_8 1_555 1_555
S1_9 C6_8 1_555 1_555
C7_8 C6_8 1_555 1_555
C8_8 C7_8 1_555 1_555
C13_8 S1_9 1_555 1_555
C14_8 C13_8 1_555 1_555
C15_8 C14_8 1_555 1_555
C16_8 C15_8 1_555 1_555
N3_8 C16_8 1_555 1_555
C17_8 N3_8 1_555 1_555
C18_8 C14_8 1_555 1_555
H9_8 C18_8 1_555 1_555
H10_8 C17_8 1_555 1_555
H11_8 C16_8 1_555 1_555
H12_8 C15_8 1_555 1_555
C19_8 C7_8 1_555 1_555
C20_8 C19_8 1_555 1_555
C4_8 C5_8 1_555 1_555
C13_8 C19_8 1_555 1_555
C17_8 C18_8 1_555 1_555
H5_8 C9_8 1_555 1_555
C10_8 C9_8 1_555 1_555
H6_8 C10_8 1_555 1_555
N7_6 C10_8 1_555 1_555
C11_8 N7_6 1_555 1_555
H7_8 C11_8 1_555 1_555
H8_8 C12_8 1_555 1_555
H13_8 C21_8 1_555 1_555
C22_8 C21_8 1_555 1_555
H14_8 C22_8 1_555 1_555
N4_8 C22_8 1_555 1_555
C23_8 N4_8 1_555 1_555
H15_8 C23_8 1_555 1_555
H16_8 C24_8 1_555 1_555
Ag4 N4_8 1_555 1_555
C11_8 C12_8 1_555 1_555
C23_8 C24_8 1_555 1_555
Ag3_2 N1_7 1_555 1_555
N1_7 C1_9 1_555 1_555
C1_9 H1_9 1_555 1_555
C2_9 C1_9 1_555 1_555
H2_9 C2_9 1_555 1_555
C3_9 C2_9 1_555 1_555
C4_9 C3_9 1_555 1_555
H3_9 C4_9 1_555 1_555
C5_9 N1_7 1_555 1_555
H4_9 C5_9 1_555 1_555
C6_9 C3_9 1_555 1_555
S1_10 C6_9 1_555 1_555
C7_9 C6_9 1_555 1_555
C8_9 C7_9 1_555 1_555
C9_9 C8_9 1_555 1_555
H5_9 C9_9 1_555 1_555
C10_9 C9_9 1_555 1_555
H6_9 C10_9 1_555 1_555
N6_2 C10_9 1_555 1_555
C11_9 N6_2 1_555 1_555
H7_9 C11_9 1_555 1_555
C12_9 C8_9 1_555 1_555
H8_9 C12_9 1_555 1_555
C13_9 S1_10 1_555 1_555
C14_9 C13_9 1_555 1_555
C15_9 C14_9 1_555 1_555
C16_9 C15_9 1_555 1_555
N3_9 C16_9 1_555 1_555
C17_9 N3_9 1_555 1_555
C18_9 C14_9 1_555 1_555
H9_9 C18_9 1_555 1_555
H10_9 C17_9 1_555 1_555
H11_9 C16_9 1_555 1_555
H12_9 C15_9 1_555 1_555
C19_9 C7_9 1_555 1_555
C20_9 C19_9 1_555 1_555
C21_9 C20_9 1_555 1_555
H13_9 C21_9 1_555 1_555
C22_9 C21_9 1_555 1_555
H14_9 C22_9 1_555 1_555
N4_9 C22_9 1_555 1_555
C23_9 N4_9 1_555 1_555
H15_9 C23_9 1_555 1_555
C24_9 C20_9 1_555 1_555
H16_9 C24_9 1_555 1_555
Ag4_4 N3_9 1_555 1_555
N7_7 Ag3_2 1_555 1_555
Ag2_4 N4_9 1_555 1_555
C4_9 C5_9 1_555 1_555
C11_9 C12_9 1_555 1_555
C13_9 C19_9 1_555 1_555
C17_9 C18_9 1_555 1_555
C23_9 C24_9 1_555 1_555
N5_2 C1_10 1_555 1_555
C1_10 H1_10 1_555 1_555
C2_10 C1_10 1_555 1_555
H2_10 C2_10 1_555 1_555
C3_10 C2_10 1_555 1_555
C4_10 C3_10 1_555 1_555
H3_10 C4_10 1_555 1_555
C5_10 N5_2 1_555 1_555
H4_10 C5_10 1_555 1_555
C6_10 C3_10 1_555 1_555
S1_11 C6_10 1_555 1_555
C7_10 C6_10 1_555 1_555
C8_10 C7_10 1_555 1_555
C9_10 C8_10 1_555 1_555
H5_10 C9_10 1_555 1_555
C10_10 C9_10 1_555 1_555
H6_10 C10_10 1_555 1_555
N7 C10_10 1_555 1_555
C11_10 N7 1_555 1_555
H7_10 C11_10 1_555 1_555
C12_10 C8_10 1_555 1_555
H8_10 C12_10 1_555 1_555
C13_10 S1_11 1_555 1_555
C14_10 C13_10 1_555 1_555
C15_10 C14_10 1_555 1_555
C16_10 C15_10 1_555 1_555
N3_10 C16_10 1_555 1_555
C17_10 N3_10 1_555 1_555
C18_10 C14_10 1_555 1_555
H9_10 C18_10 1_555 1_555
H10_10 C17_10 1_555 1_555
H11_10 C16_10 1_555 1_555
H12_10 C15_10 1_555 1_555
C19_10 C7_10 1_555 1_555
C20_10 C19_10 1_555 1_555
C21_10 C20_10 1_555 1_555
H13_10 C21_10 1_555 1_555
C22_10 C21_10 1_555 1_555
H14_10 C22_10 1_555 1_555
N4_10 C22_10 1_555 1_555
C23_10 N4_10 1_555 1_555
H15_10 C23_10 1_555 1_555
C24_10 C20_10 1_555 1_555
H16_10 C24_10 1_555 1_555
Ag4 N3_10 1_555 1_555
Ag2 N4_10 1_555 1_555
C4_10 C5_10 1_555 1_555
C11_10 C12_10 1_555 1_555
C13_10 C19_10 1_555 1_555
C17_10 C18_10 1_555 1_555
C23_10 C24_10 1_555 1_555
N5_3 C1_11 1_555 1_555
C1_11 H1_11 1_555 1_555
C2_11 C1_11 1_555 1_555
H2_11 C2_11 1_555 1_555
C3_11 C2_11 1_555 1_555
C4_11 C3_11 1_555 1_555
H3_11 C4_11 1_555 1_555
C5_11 N5_3 1_555 1_555
H4_11 C5_11 1_555 1_555
C6_11 C3_11 1_555 1_555
S1_12 C6_11 1_555 1_555
C7_11 C6_11 1_555 1_555
C8_11 C7_11 1_555 1_555
C9_11 C8_11 1_555 1_555
H5_11 C9_11 1_555 1_555
C10_11 C9_11 1_555 1_555
H6_11 C10_11 1_555 1_555
N7_7 C10_11 1_555 1_555
C11_11 N7_7 1_555 1_555
H7_11 C11_11 1_555 1_555
C12_11 C8_11 1_555 1_555
H8_11 C12_11 1_555 1_555
C4_11 C5_11 1_555 1_555
C11_11 C12_11 1_555 1_555
C13_11 S1_13 1_555 1_555
C14_11 C13_11 1_555 1_555
C15_11 C14_11 1_555 1_555
C16_11 C15_11 1_555 1_555
N3_11 C16_11 1_555 1_555
C17_11 N3_11 1_555 1_555
C18_11 C14_11 1_555 1_555
H9_11 C18_11 1_555 1_555
H10_11 C17_11 1_555 1_555
H11_11 C16_11 1_555 1_555
H12_11 C15_11 1_555 1_555
C20_11 C19_11 1_555 1_555
C21_11 C20_11 1_555 1_555
H13_11 C21_11 1_555 1_555
C22_11 C21_11 1_555 1_555
H14_11 C22_11 1_555 1_555
N4_11 C22_11 1_555 1_555
C23_11 N4_11 1_555 1_555
H15_11 C23_11 1_555 1_555
C24_11 C20_11 1_555 1_555
H16_11 C24_11 1_555 1_555
Ag2_4 N3_11 1_555 1_555
Ag4_4 N4_11 1_555 1_555
C13_11 C19_11 1_555 1_555
C17_11 C18_11 1_555 1_555
C23_11 C24_11 1_555 1_555
N5_7 C1_12 1_555 1_555
C1_12 H1_12 1_555 1_555
C2_12 C1_12 1_555 1_555
H2_12 C2_12 1_555 1_555
C3_12 C2_12 1_555 1_555
C4_12 C3_12 1_555 1_555
H3_12 C4_12 1_555 1_555
C5_12 N5_7 1_555 1_555
H4_12 C5_12 1_555 1_555
C6_12 C3_12 1_555 1_555
S1_14 C6_12 1_555 1_555
C7_12 C6_12 1_555 1_555
C8_12 C7_12 1_555 1_555
C13_12 S1_14 1_555 1_555
C14_12 C13_12 1_555 1_555
C15_12 C14_12 1_555 1_555
C16_12 C15_12 1_555 1_555
N3_12 C16_12 1_555 1_555
C17_12 N3_12 1_555 1_555
C18_12 C14_12 1_555 1_555
H9_12 C18_12 1_555 1_555
H10_12 C17_12 1_555 1_555
H11_12 C16_12 1_555 1_555
H12_12 C15_12 1_555 1_555
C19_12 C7_12 1_555 1_555
C20_12 C19_12 1_555 1_555
Ag4_2 N3_12 1_555 1_555
C4_12 C5_12 1_555 1_555
C13_12 C19_12 1_555 1_555
C17_12 C18_12 1_555 1_555
H5_12 C9_12 1_555 1_555
C10_12 C9_12 1_555 1_555
H6_12 C10_12 1_555 1_555
N7_2 C10_12 1_555 1_555
C11_12 N7_2 1_555 1_555
H7_12 C11_12 1_555 1_555
H8_12 C12_12 1_555 1_555
H13_12 C21_12 1_555 1_555
C22_12 C21_12 1_555 1_555
H14_12 C22_12 1_555 1_555
N4_12 C22_12 1_555 1_555
C23_12 N4_12 1_555 1_555
H15_12 C23_12 1_555 1_555
H16_12 C24_12 1_555 1_555
Ag2_2 N4_12 1_555 1_555
C11_12 C12_12 1_555 1_555
C23_12 C24_12 1_555 1_555
C13_13 S1_15 1_555 1_555
C14_13 C13_13 1_555 1_555
C15_13 C14_13 1_555 1_555
C16_13 C15_13 1_555 1_555
N3_13 C16_13 1_555 1_555
C17_13 N3_13 1_555 1_555
C18_13 C14_13 1_555 1_555
H9_13 C18_13 1_555 1_555
H10_13 C17_13 1_555 1_555
H11_13 C16_13 1_555 1_555
H12_13 C15_13 1_555 1_555
C20_13 C19_13 1_555 1_555
C21_13 C20_13 1_555 1_555
H13_13 C21_13 1_555 1_555
C22_13 C21_13 1_555 1_555
H14_13 C22_13 1_555 1_555
N4_13 C22_13 1_555 1_555
C23_13 N4_13 1_555 1_555
H15_13 C23_13 1_555 1_555
C24_13 C20_13 1_555 1_555
H16_13 C24_13 1_555 1_555
Ag4_3 N3_13 1_555 1_555
Ag2_2 N4_13 1_555 1_555
C13_13 C19_13 1_555 1_555
C17_13 C18_13 1_555 1_555
C23_13 C24_13 1_555 1_555
Ag3_4 N1_8 1_555 1_555
N1_8 C1_13 1_555 1_555
C1_13 H1_13 1_555 1_555
C2_13 C1_13 1_555 1_555
H2_13 C2_13 1_555 1_555
C3_13 C2_13 1_555 1_555
C4_13 C3_13 1_555 1_555
H3_13 C4_13 1_555 1_555
C5_13 N1_8 1_555 1_555
H4_13 C5_13 1_555 1_555
C6_13 C3_13 1_555 1_555
S1_16 C6_13 1_555 1_555
C7_13 C6_13 1_555 1_555
C8_13 C7_13 1_555 1_555
C9_13 C8_13 1_555 1_555
H5_13 C9_13 1_555 1_555
C10_13 C9_13 1_555 1_555
H6_13 C10_13 1_555 1_555
N6_4 C10_13 1_555 1_555
C11_13 N6_4 1_555 1_555
H7_13 C11_13 1_555 1_555
C12_13 C8_13 1_555 1_555
H8_13 C12_13 1_555 1_555
N5_8 Ag3_4 1_555 1_555
N7_8 Ag3_4 1_555 1_555
C4_13 C5_13 1_555 1_555
C11_13 C12_13 1_555 1_555
C13_14 S1_17 1_555 1_555
C14_14 C13_14 1_555 1_555
C15_14 C14_14 1_555 1_555
C16_14 C15_14 1_555 1_555
N3_14 C16_14 1_555 1_555
C17_14 N3_14 1_555 1_555
C18_14 C14_14 1_555 1_555
H9_14 C18_14 1_555 1_555
H10_14 C17_14 1_555 1_555
H11_14 C16_14 1_555 1_555
H12_14 C15_14 1_555 1_555
C20_14 C19_14 1_555 1_555
C21_14 C20_14 1_555 1_555
H13_14 C21_14 1_555 1_555
C22_14 C21_14 1_555 1_555
H14_14 C22_14 1_555 1_555
N4_14 C22_14 1_555 1_555
C23_14 N4_14 1_555 1_555
H15_14 C23_14 1_555 1_555
C24_14 C20_14 1_555 1_555
H16_14 C24_14 1_555 1_555
Ag2_3 N3_14 1_555 1_555
Ag4_2 N4_14 1_555 1_555
C13_14 C19_14 1_555 1_555
C17_14 C18_14 1_555 1_555
C23_14 C24_14 1_555 1_555
N5_5 C1_14 1_555 1_555
C1_14 H1_14 1_555 1_555
C2_14 C1_14 1_555 1_555
H2_14 C2_14 1_555 1_555
C3_14 C2_14 1_555 1_555
C4_14 C3_14 1_555 1_555
H3_14 C4_14 1_555 1_555
C5_14 N5_5 1_555 1_555
H4_14 C5_14 1_555 1_555
C6_14 C3_14 1_555 1_555
S1_18 C6_14 1_555 1_555
C7_14 C6_14 1_555 1_555
C8_14 C7_14 1_555 1_555
C9_14 C8_14 1_555 1_555
H5_14 C9_14 1_555 1_555
C10_14 C9_14 1_555 1_555
H6_14 C10_14 1_555 1_555
N7_4 C10_14 1_555 1_555
C11_14 N7_4 1_555 1_555
H7_14 C11_14 1_555 1_555
C12_14 C8_14 1_555 1_555
H8_14 C12_14 1_555 1_555
C4_14 C5_14 1_555 1_555
C11_14 C12_14 1_555 1_555
N5_6 C1_15 1_555 1_555
C1_15 H1_15 1_555 1_555
C2_15 C1_15 1_555 1_555
H2_15 C2_15 1_555 1_555
C3_15 C2_15 1_555 1_555
C4_15 C3_15 1_555 1_555
H3_15 C4_15 1_555 1_555
C5_15 N5_6 1_555 1_555
H4_15 C5_15 1_555 1_555
C6_15 C3_15 1_555 1_555
S1_19 C6_15 1_555 1_555
C7_15 C6_15 1_555 1_555
C8_15 C7_15 1_555 1_555
C9_15 C8_15 1_555 1_555
H5_15 C9_15 1_555 1_555
C10_15 C9_15 1_555 1_555
H6_15 C10_15 1_555 1_555
N7_8 C10_15 1_555 1_555
C11_15 N7_8 1_555 1_555
H7_15 C11_15 1_555 1_555
C12_15 C8_15 1_555 1_555
H8_15 C12_15 1_555 1_555
C13_15 S1_19 1_555 1_555
C14_15 C13_15 1_555 1_555
C15_15 C14_15 1_555 1_555
C16_15 C15_15 1_555 1_555
N3_15 C16_15 1_555 1_555
C17_15 N3_15 1_555 1_555
C18_15 C14_15 1_555 1_555
H9_15 C18_15 1_555 1_555
H10_15 C17_15 1_555 1_555
H11_15 C16_15 1_555 1_555
H12_15 C15_15 1_555 1_555
C19_15 C7_15 1_555 1_555
C20_15 C19_15 1_555 1_555
C21_15 C20_15 1_555 1_555
H13_15 C21_15 1_555 1_555
C22_15 C21_15 1_555 1_555
H14_15 C22_15 1_555 1_555
N4_15 C22_15 1_555 1_555
C23_15 N4_15 1_555 1_555
H15_15 C23_15 1_555 1_555
C24_15 C20_15 1_555 1_555
H16_15 C24_15 1_555 1_555
Ag2_2 N3_15 1_555 1_555
Ag4_3 N4_15 1_555 1_555
C4_15 C5_15 1_555 1_555
C11_15 C12_15 1_555 1_555
C13_15 C19_15 1_555 1_555
C17_15 C18_15 1_555 1_555
C23_15 C24_15 1_555 1_555
N5_8 C1_16 1_555 1_555
C1_16 H1_16 1_555 1_555
C2_16 C1_16 1_555 1_555
H2_16 C2_16 1_555 1_555
C3_16 C2_16 1_555 1_555
C4_16 C3_16 1_555 1_555
H3_16 C4_16 1_555 1_555
C5_16 N5_8 1_555 1_555
H4_16 C5_16 1_555 1_555
C6_16 C3_16 1_555 1_555
S1_20 C6_16 1_555 1_555
C7_16 C6_16 1_555 1_555
C8_16 C7_16 1_555 1_555
C9_16 C8_16 1_555 1_555
H5_16 C9_16 1_555 1_555
C10_16 C9_16 1_555 1_555
H6_16 C10_16 1_555 1_555
N7_5 C10_16 1_555 1_555
C11_16 N7_5 1_555 1_555
H7_16 C11_16 1_555 1_555
C12_16 C8_16 1_555 1_555
H8_16 C12_16 1_555 1_555
C13_16 S1_20 1_555 1_555
C14_16 C13_16 1_555 1_555
C15_16 C14_16 1_555 1_555
C16_16 C15_16 1_555 1_555
N3_16 C16_16 1_555 1_555
C17_16 N3_16 1_555 1_555
C18_16 C14_16 1_555 1_555
H9_16 C18_16 1_555 1_555
H10_16 C17_16 1_555 1_555
H11_16 C16_16 1_555 1_555
H12_16 C15_16 1_555 1_555
C19_16 C7_16 1_555 1_555
C20_16 C19_16 1_555 1_555
C21_16 C20_16 1_555 1_555
H13_16 C21_16 1_555 1_555
C22_16 C21_16 1_555 1_555
H14_16 C22_16 1_555 1_555
N4_16 C22_16 1_555 1_555
C23_16 N4_16 1_555 1_555
H15_16 C23_16 1_555 1_555
C24_16 C20_16 1_555 1_555
H16_16 C24_16 1_555 1_555
Ag2_4 N4_16 1_555 1_555
C4_16 C5_16 1_555 1_555
C11_16 C12_16 1_555 1_555
C13_16 C19_16 1_555 1_555
C17_16 C18_16 1_555 1_555
C23_16 C24_16 1_555 1_555
B1 F1 1_555 1_555
F2 B1 1_555 1_555
F3 B1 1_555 1_555
F4 B1 1_555 1_555
B1_2 F1_2 1_555 1_555
B1_3 F1_3 1_555 1_555
F4_2 B1_3 1_555 1_555
B1_4 F1_4 1_555 1_555
F2_2 B1_4 1_555 1_555
B1_5 F1_5 1_555 1_555
F3_2 B1_6 1_555 1_555
F3_3 B1_7 1_555 1_555
F4_3 B1_7 1_555 1_555
F2_3 B1_8 1_555 1_555
F3_4 B1_8 1_555 1_555
F3_5 B1_9 1_555 1_555
B1_10 F1_6 1_555 1_555
F2_4 B1_10 1_555 1_555
F3_6 B1_10 1_555 1_555
B1_11 F1_7 1_555 1_555
F3_7 B1_11 1_555 1_555
F4_4 B1_11 1_555 1_555
B1_12 F1_8 1_555 1_555
F2_5 B1_12 1_555 1_555
F3_8 B1_12 1_555 1_555
F4_5 B1_12 1_555 1_555
B1_13 F1_9 1_555 1_555
F2_6 B1_13 1_555 1_555
F3_9 B1_13 1_555 1_555
F4_6 B1_13 1_555 1_555
F2_7 B1_14 1_555 1_555
F3_10 B1_14 1_555 1_555
F3_11 B1_15 1_555 1_555
F4_7 B1_15 1_555 1_555
B1_16 F1_10 1_555 1_555
F2_8 B1_16 1_555 1_555
B1_17 F1_11 1_555 1_555
F4_8 B1_17 1_555 1_555
B1_18 F1_12 1_555 1_555
F2_9 B1_18 1_555 1_555
F3_12 B1_18 1_555 1_555
F4_9 B1_18 1_555 1_555
B1_19 F1_13 1_555 1_555
F2_10 B1_19 1_555 1_555
F3_13 B1_19 1_555 1_555
F4_10 B1_19 1_555 1_555

#END
