
###############################################################################
#
# This file contains modified crystal structure data generated from the
# MOF subset of the Cambridge Structural Database (CSD) v543 
# hosted by the Cambridge Crystallographic Data Centre (CCDC).
#
# This work is licensed under the Creative Commons
# Attribution-NonCommercial-ShareAlike 4.0 International License.
# To view a copy of this license, visit
# http://creativecommons.org/licenses/by-nc-sa/4.0/
# or send a letter to
# Creative Commons, PO Box 1866, Mountain View, CA 94042, USA.
#
# CIF created using the CSD Python API on 29 September 2022
# The structure has been converted into the P1 space group
# The structure has a 3D framework
# The original CSD entry AVIVUW is in the tetragonal crystal system
# The framework has been calculated to contain at least 10.0% void space
# The void calculation uses a probe of radius 1.32A, grid spacing 0.4
# The framework is charged, counterions have been retained in the structure
#
###############################################################################

data_AVIVUW
_chemical_formula_moiety         '(C384 H256 Ag6 F98 N64 P25 S20 19-)n'
_symmetry_cell_setting           triclinic
_symmetry_space_group_name_H-M   'P 1'
_symmetry_Int_Tables_number      1
_space_group_name_Hall           'P 1'
loop_
_symmetry_equiv_pos_site_id
_symmetry_equiv_pos_as_xyz
1 x,y,z
_cell_length_a                   22.963(5)
_cell_length_b                   22.963(5)
_cell_length_c                   34.546(14)
_cell_angle_alpha                90
_cell_angle_beta                 90
_cell_angle_gamma                90
_cell_volume                     18216.1
loop_
_atom_site_label
_atom_site_type_symbol
_atom_site_fract_x
_atom_site_fract_y
_atom_site_fract_z
P1 P -0.0000 0.2500 0.8750
F1 F 0.0694(2) 0.2500 0.87491(15)
F2 F -0.0000 0.2500 0.9215(2)
F3 F -0.0000 0.3194(2) 0.87509(15)
F4 F -0.0000 0.2500 0.8285(2)
F6 F 0.0000 0.1806(2) 0.87509(15)
P1_2 P 1.0000 0.2500 0.8750
F2_2 F 1.0000 0.2500 0.9215(2)
F3_2 F 1.0000 0.3194(2) 0.87509(15)
F4_2 F 1.0000 0.2500 0.8285(2)
F5 F 0.9306(2) 0.2500 0.87491(15)
F6_2 F 1.0000 0.1806(2) 0.87509(15)
P1_3 P 0.0000 0.7500 0.1250
F1_2 F 0.0000 0.8194(2) 0.12491(15)
F2_3 F 0.0000 0.7500 0.1715(2)
F4_3 F 0.0000 0.7500 0.0785(2)
F5_2 F 0.0000 0.6806(2) 0.12491(15)
F6_3 F 0.0694(2) 0.7500 0.12509(15)
P1_4 P 1.0000 0.7500 0.1250
F1_3 F 1.0000 0.8194(2) 0.12491(15)
F2_4 F 1.0000 0.7500 0.1715(2)
F3_3 F 0.9306(2) 0.7500 0.12509(15)
F4_4 F 1.0000 0.7500 0.0785(2)
F5_3 F 1.0000 0.6806(2) 0.12491(15)
P1_5 P 0.5000 0.2500 0.6250
F1_4 F 0.5000 0.1806(2) 0.62491(15)
F2_5 F 0.5000 0.2500 0.6715(2)
F3_4 F 0.5694(2) 0.2500 0.62509(15)
F4_5 F 0.5000 0.2500 0.5785(2)
F5_4 F 0.5000 0.3194(2) 0.62491(15)
F6_4 F 0.4306(2) 0.2500 0.62509(15)
P1_6 P 0.5000 0.7500 0.3750
F1_5 F 0.5000 0.8194(2) 0.37509(15)
F2_6 F 0.5000 0.7500 0.3285(2)
F3_5 F 0.5694(2) 0.7500 0.37491(15)
F4_6 F 0.5000 0.7500 0.4215(2)
F5_5 F 0.5000 0.6806(2) 0.37509(15)
F6_5 F 0.4306(2) 0.7500 0.37491(15)
Ag1 Ag 0.333978(13) 0.083978(13) 0.6250
N1 N 0.23307(16) 0.08930(18) 0.63810(14)
C1 C 0.2155(2) 0.1227(3) 0.66703(17)
H1 H 0.2433 0.1448 0.6800
C2 C 0.1588(2) 0.1267(3) 0.67894(17)
H2 H 0.1491 0.1510 0.6995
C3 C 0.11565(18) 0.0943(2) 0.66027(14)
C4 C 0.1343(2) 0.0603(2) 0.62941(16)
H3 H 0.1078 0.0385 0.6152
C5 C 0.1926(2) 0.0593(3) 0.62018(17)
H4 H 0.2042 0.0356 0.5997
C6 C 0.05417(17) 0.09645(19) 0.67219(14)
S1 S 0.0000 0.09255(8) 0.63801(5)
C7 C 0.03119(17) 0.10155(18) 0.70862(13)
C8 C 0.06515(17) 0.10040(19) 0.74531(13)
C9 C 0.0880(3) 0.0501(2) 0.75954(19)
H5 H 0.0846 0.0160 0.7452
C10 C 0.1156(3) 0.0487(2) 0.79415(18)
H6 H 0.1300 0.0131 0.8027
N2 N 0.12341(16) 0.09535(16) 0.81701(11)
C11 C 0.1021(2) 0.1454(2) 0.80312(16)
H7 H 0.1071 0.1791 0.8177
C12 C 0.0733(2) 0.1495(2) 0.76832(17)
H8 H 0.0590 0.1853 0.7601
Ag2 Ag 0.166022(13) 0.083978(13) 0.8750
N6 N 0.34535(16) 0.12659(16) 0.56701(11)
N7 N 0.37659(16) 0.09535(16) 0.68299(11)
N5 N 0.33930(18) 0.98307(16) 0.61190(14)
S1_2 S 1.0000 0.09255(8) 0.63801(5)
N3 N 0.76693(16) 0.08930(18) 0.63810(14)
C13 C 0.7845(2) 0.1227(3) 0.66703(17)
H9 H 0.7567 0.1448 0.6800
C14 C 0.8412(2) 0.1267(3) 0.67894(17)
H10 H 0.8509 0.1510 0.6995
C15 C 0.88435(18) 0.0943(2) 0.66027(14)
C16 C 0.8657(2) 0.0603(2) 0.62941(16)
H11 H 0.8922 0.0385 0.6152
C17 C 0.8074(2) 0.0593(3) 0.62018(17)
H12 H 0.7958 0.0356 0.5997
C18 C 0.94583(17) 0.09645(19) 0.67219(14)
C19 C 0.96881(17) 0.10155(18) 0.70862(13)
C20 C 0.93485(17) 0.10040(19) 0.74531(13)
C21 C 0.9120(3) 0.0501(2) 0.75954(19)
H13 H 0.9154 0.0160 0.7452
C22 C 0.8844(3) 0.0487(2) 0.79415(18)
H14 H 0.8700 0.0131 0.8027
C23 C 0.9267(2) 0.1495(2) 0.76832(17)
H15 H 0.9410 0.1853 0.7601
N4 N 0.87659(16) 0.09535(16) 0.81701(11)
C24 C 0.8979(2) 0.1454(2) 0.80312(16)
H16 H 0.8929 0.1791 0.8177
Ag3 Ag 0.833978(13) 0.083978(13) 0.8750
Ag4 Ag 0.666022(13) 0.083978(13) 0.6250
N5_2 N 0.26693(16) 0.08930(18) 0.86190(14)
N7_2 N 0.15465(16) 0.12659(16) 0.93299(11)
C9_2 C 0.1999(2) 0.8380(3) 0.00954(19)
C10_2 C 0.2013(2) 0.8656(3) 0.04415(18)
H6_2 H 0.2369 0.8800 0.0527
N2_2 N 0.15465(16) 0.87341(16) 0.06701(11)
C11_2 C 0.1046(2) 0.8521(2) 0.05312(16)
H7_2 H 0.0709 0.8571 0.0677
C12_2 C 0.1005(2) 0.8233(2) 0.01832(17)
H8_2 H 0.0647 0.8090 0.0101
C21_2 C 0.1999(2) 0.6620(3) 0.00954(19)
C22_2 C 0.2013(2) 0.6344(3) 0.04415(18)
H14_2 H 0.2369 0.6200 0.0527
C23_2 C 0.1005(2) 0.6767(2) 0.01832(17)
H15_2 H 0.0647 0.6910 0.0101
N4_2 N 0.15465(16) 0.62659(16) 0.06701(11)
C24_2 C 0.1046(2) 0.6479(2) 0.05312(16)
H16_2 H 0.0709 0.6429 0.0677
Ag2_2 Ag 0.166022(13) 0.916022(13) 0.1250
Ag3_2 Ag 0.166022(13) 0.583978(13) 0.1250
N1_2 N 0.16070(18) 0.98307(16) 0.88810(14)
C1_2 C 0.1273(3) 0.9655(2) 0.91703(17)
H1_2 H 0.1052 0.9933 0.9300
C2_2 C 0.1233(3) 0.9088(2) 0.92894(17)
H2_2 H 0.0990 0.8991 0.9495
C3_2 C 0.1557(2) 0.86565(18) 0.91027(14)
C4_2 C 0.1897(2) 0.8843(2) 0.87941(16)
H3_2 H 0.2115 0.8578 0.8652
C5_2 C 0.1907(3) 0.9426(2) 0.87018(17)
H4_2 H 0.2144 0.9542 0.8497
C6_2 C 0.15355(19) 0.80417(17) 0.92219(14)
S1_3 S 0.15745(8) 0.7500 0.88801(5)
C7_2 C 0.14845(18) 0.78119(17) 0.95862(13)
C8_2 C 0.14960(19) 0.81515(17) 0.99531(13)
H5_2 H 0.2340 0.8346 0.9952
N3_2 N 0.16070(18) 0.51693(16) 0.88810(14)
C13_2 C 0.1273(3) 0.5345(2) 0.91703(17)
H9_2 H 0.1052 0.5067 0.9300
C14_2 C 0.1233(3) 0.5912(2) 0.92894(17)
H10_2 H 0.0990 0.6009 0.9495
C15_2 C 0.1557(2) 0.63435(18) 0.91027(14)
C16_2 C 0.1897(2) 0.6157(2) 0.87941(16)
H11_2 H 0.2115 0.6422 0.8652
C17_2 C 0.1907(3) 0.5574(2) 0.87018(17)
H12_2 H 0.2144 0.5458 0.8497
C18_2 C 0.15355(19) 0.69583(17) 0.92219(14)
C19_2 C 0.14845(18) 0.71881(17) 0.95862(13)
C20_2 C 0.14960(19) 0.68485(17) 0.99531(13)
H13_2 H 0.2340 0.6654 0.9952
Ag4_2 Ag 0.166022(13) 0.416022(13) 0.8750
N1_3 N 0.33930(18) 0.01693(16) 0.38810(14)
C1_3 C 0.3727(3) 0.0345(2) 0.41703(17)
H1_3 H 0.3948 0.0067 0.4300
C2_3 C 0.3767(3) 0.0912(2) 0.42894(17)
H2_3 H 0.4010 0.1009 0.4495
C3_3 C 0.3443(2) 0.13435(18) 0.41027(14)
C4_3 C 0.3103(2) 0.1157(2) 0.37941(16)
H3_3 H 0.2885 0.1422 0.3652
C5_3 C 0.3093(3) 0.0574(2) 0.37018(17)
H4_3 H 0.2856 0.0458 0.3497
C6_3 C 0.34645(19) 0.19583(17) 0.42219(14)
S1_4 S 0.34255(8) 0.2500 0.38801(5)
C7_3 C 0.35155(18) 0.21881(17) 0.45862(13)
C8_3 C 0.35040(19) 0.18485(17) 0.49531(13)
C9_3 C 0.3001(2) 0.1620(3) 0.50954(19)
H5_3 H 0.2660 0.1654 0.4952
C10_3 C 0.2987(2) 0.1344(3) 0.54415(18)
H6_3 H 0.2631 0.1200 0.5527
C11_3 C 0.3954(2) 0.1479(2) 0.55312(16)
H7_3 H 0.4291 0.1429 0.5677
C12_3 C 0.3995(2) 0.1767(2) 0.51832(17)
H8_3 H 0.4353 0.1910 0.5101
N3_3 N 0.33930(18) 0.48307(16) 0.38810(14)
C13_3 C 0.3727(3) 0.4655(2) 0.41703(17)
H9_3 H 0.3948 0.4933 0.4300
C14_3 C 0.3767(3) 0.4088(2) 0.42894(17)
H10_3 H 0.4010 0.3991 0.4495
C15_3 C 0.3443(2) 0.36565(18) 0.41027(14)
C16_3 C 0.3103(2) 0.3843(2) 0.37941(16)
H11_3 H 0.2885 0.3578 0.3652
C17_3 C 0.3093(3) 0.4426(2) 0.37018(17)
H12_3 H 0.2856 0.4542 0.3497
C18_3 C 0.34645(19) 0.30417(17) 0.42219(14)
C19_3 C 0.35155(18) 0.28119(17) 0.45862(13)
C20_3 C 0.35040(19) 0.31515(17) 0.49531(13)
C21_3 C 0.3001(2) 0.3380(3) 0.50954(19)
H13_3 H 0.2660 0.3346 0.4952
C22_3 C 0.2987(2) 0.3656(3) 0.54415(18)
H14_3 H 0.2631 0.3800 0.5527
C23_3 C 0.3995(2) 0.3233(2) 0.51832(17)
H15_3 H 0.4353 0.3090 0.5101
N4_3 N 0.34535(16) 0.37341(16) 0.56701(11)
C24_3 C 0.3954(2) 0.3521(2) 0.55312(16)
H16_3 H 0.4291 0.3571 0.5677
Ag3_3 Ag 0.333978(13) 0.416022(13) 0.6250
Ag4_3 Ag 0.333978(13) 0.583978(13) 0.3750
Ag1_2 Ag 0.333978(13) 0.916022(13) 0.3750
N5_3 N 0.23307(16) 0.91070(18) 0.36190(14)
N6_2 N 0.37659(16) 0.90465(16) 0.31701(11)
N7_3 N 0.34535(16) 0.87341(16) 0.43299(11)
C1_4 C 0.3727(3) 0.9655(2) 0.58297(17)
H1_4 H 0.3948 0.9933 0.5700
C2_4 C 0.3767(3) 0.9088(2) 0.57106(17)
H2_4 H 0.4010 0.8991 0.5505
C3_4 C 0.3443(2) 0.86565(18) 0.58973(14)
C4_4 C 0.3103(2) 0.8843(2) 0.62059(16)
H3_4 H 0.2885 0.8578 0.6348
C5_4 C 0.3093(3) 0.9426(2) 0.62982(17)
H4_4 H 0.2856 0.9542 0.6503
C6_4 C 0.34645(19) 0.80417(17) 0.57781(14)
S1_5 S 0.34255(8) 0.7500 0.61199(5)
C7_4 C 0.35155(18) 0.78119(17) 0.54138(13)
C8_4 C 0.35040(19) 0.81515(17) 0.50469(13)
C9_4 C 0.3001(2) 0.8380(3) 0.49046(19)
H5_4 H 0.2660 0.8346 0.5048
C10_4 C 0.2987(2) 0.8656(3) 0.45585(18)
H6_4 H 0.2631 0.8800 0.4473
C11_4 C 0.3954(2) 0.8521(2) 0.44688(16)
H7_4 H 0.4291 0.8571 0.4323
C12_4 C 0.3995(2) 0.8233(2) 0.48168(17)
H8_4 H 0.4353 0.8090 0.4899
N3_4 N 0.33930(18) 0.51693(16) 0.61190(14)
C13_4 C 0.3727(3) 0.5345(2) 0.58297(17)
H9_4 H 0.3948 0.5067 0.5700
C14_4 C 0.3767(3) 0.5912(2) 0.57106(17)
H10_4 H 0.4010 0.6009 0.5505
C15_4 C 0.3443(2) 0.63435(18) 0.58973(14)
C16_4 C 0.3103(2) 0.6157(2) 0.62059(16)
H11_4 H 0.2885 0.6422 0.6348
C17_4 C 0.3093(3) 0.5574(2) 0.62982(17)
H12_4 H 0.2856 0.5458 0.6503
C18_4 C 0.34645(19) 0.69583(17) 0.57781(14)
C19_4 C 0.35155(18) 0.71881(17) 0.54138(13)
C20_4 C 0.35040(19) 0.68485(17) 0.50469(13)
C21_4 C 0.3001(2) 0.6620(3) 0.49046(19)
H13_4 H 0.2660 0.6654 0.5048
C22_4 C 0.2987(2) 0.6344(3) 0.45585(18)
H14_4 H 0.2631 0.6200 0.4473
C23_4 C 0.3995(2) 0.6767(2) 0.48168(17)
H15_4 H 0.4353 0.6910 0.4899
N4_4 N 0.34535(16) 0.62659(16) 0.43299(11)
C24_4 C 0.3954(2) 0.6479(2) 0.44688(16)
H16_4 H 0.4291 0.6429 0.4323
Ag1_3 Ag 0.833978(13) 0.583978(13) 0.1250
N1_4 N 0.73307(16) 0.58930(18) 0.13810(14)
C1_5 C 0.7155(2) 0.6227(3) 0.16703(17)
H1_5 H 0.7433 0.6448 0.1800
C2_5 C 0.6588(2) 0.6267(3) 0.17894(17)
H2_5 H 0.6491 0.6510 0.1995
C3_5 C 0.61565(18) 0.5943(2) 0.16027(14)
C4_5 C 0.6343(2) 0.5603(2) 0.12941(16)
H3_5 H 0.6078 0.5385 0.1152
C5_5 C 0.6926(2) 0.5593(3) 0.12018(17)
H4_5 H 0.7042 0.5356 0.0997
C6_5 C 0.55417(17) 0.59645(19) 0.17219(14)
S1_6 S 0.5000 0.59255(8) 0.13801(5)
C7_5 C 0.53119(17) 0.60155(18) 0.20862(13)
C8_5 C 0.56515(17) 0.60040(19) 0.24531(13)
C9_5 C 0.5880(3) 0.5501(2) 0.25954(19)
H5_5 H 0.5846 0.5160 0.2452
C10_5 C 0.6156(3) 0.5487(2) 0.29415(18)
H6_5 H 0.6300 0.5131 0.3027
N2_3 N 0.62341(16) 0.59535(16) 0.31701(11)
C11_5 C 0.6021(2) 0.6454(2) 0.30312(16)
H7_5 H 0.6071 0.6791 0.3177
C12_5 C 0.5733(2) 0.6495(2) 0.26832(17)
H8_5 H 0.5590 0.6853 0.2601
N3_5 N 0.26693(16) 0.58930(18) 0.13810(14)
C13_5 C 0.2845(2) 0.6227(3) 0.16703(17)
H9_5 H 0.2567 0.6448 0.1800
C14_5 C 0.3412(2) 0.6267(3) 0.17894(17)
H10_5 H 0.3509 0.6510 0.1995
C15_5 C 0.38435(18) 0.5943(2) 0.16027(14)
C16_5 C 0.3657(2) 0.5603(2) 0.12941(16)
H11_5 H 0.3922 0.5385 0.1152
C17_5 C 0.3074(2) 0.5593(3) 0.12018(17)
H12_5 H 0.2958 0.5356 0.0997
C18_5 C 0.44583(17) 0.59645(19) 0.17219(14)
C19_5 C 0.46881(17) 0.60155(18) 0.20862(13)
C20_5 C 0.43485(17) 0.60040(19) 0.24531(13)
C21_5 C 0.4120(3) 0.5501(2) 0.25954(19)
H13_5 H 0.4154 0.5160 0.2452
C22_5 C 0.3844(3) 0.5487(2) 0.29415(18)
H14_5 H 0.3700 0.5131 0.3027
C23_5 C 0.4267(2) 0.6495(2) 0.26832(17)
H15_5 H 0.4410 0.6853 0.2601
N4_5 N 0.37659(16) 0.59535(16) 0.31701(11)
C24_5 C 0.3979(2) 0.6454(2) 0.30312(16)
H16_5 H 0.3929 0.6791 0.3177
Ag2_3 Ag 0.666022(13) 0.583978(13) 0.3750
N5_4 N 0.83930(18) 0.48307(16) 0.11190(14)
N6_3 N 0.84535(16) 0.62659(16) 0.06701(11)
N7_4 N 0.87659(16) 0.59535(16) 0.18299(11)
N1_5 N 0.66070(18) 0.48307(16) 0.38810(14)
C1_6 C 0.6273(3) 0.4655(2) 0.41703(17)
H1_6 H 0.6052 0.4933 0.4300
C2_6 C 0.6233(3) 0.4088(2) 0.42894(17)
H2_6 H 0.5990 0.3991 0.4495
C3_6 C 0.6557(2) 0.36565(18) 0.41027(14)
C4_6 C 0.6897(2) 0.3843(2) 0.37941(16)
H3_6 H 0.7115 0.3578 0.3652
C5_6 C 0.6907(3) 0.4426(2) 0.37018(17)
H4_6 H 0.7144 0.4542 0.3497
C6_6 C 0.65355(19) 0.30417(17) 0.42219(14)
S1_7 S 0.65745(8) 0.2500 0.38801(5)
C7_6 C 0.64845(18) 0.28119(17) 0.45862(13)
C8_6 C 0.64960(19) 0.31515(17) 0.49531(13)
C9_6 C 0.6999(2) 0.3380(3) 0.50954(19)
H5_6 H 0.7340 0.3346 0.4952
C10_6 C 0.7013(2) 0.3656(3) 0.54415(18)
H6_6 H 0.7369 0.3800 0.5527
N2_4 N 0.65465(16) 0.37341(16) 0.56701(11)
C11_6 C 0.6046(2) 0.3521(2) 0.55312(16)
H7_6 H 0.5709 0.3571 0.5677
C12_6 C 0.6005(2) 0.3233(2) 0.51832(17)
H8_6 H 0.5647 0.3090 0.5101
N3_6 N 0.66070(18) 0.01693(16) 0.38810(14)
C13_6 C 0.6273(3) 0.0345(2) 0.41703(17)
H9_6 H 0.6052 0.0067 0.4300
C14_6 C 0.6233(3) 0.0912(2) 0.42894(17)
H10_6 H 0.5990 0.1009 0.4495
C15_6 C 0.6557(2) 0.13435(18) 0.41027(14)
C16_6 C 0.6897(2) 0.1157(2) 0.37941(16)
H11_6 H 0.7115 0.1422 0.3652
C17_6 C 0.6907(3) 0.0574(2) 0.37018(17)
H12_6 H 0.7144 0.0458 0.3497
C18_6 C 0.65355(19) 0.19583(17) 0.42219(14)
C19_6 C 0.64845(18) 0.21881(17) 0.45862(13)
C20_6 C 0.64960(19) 0.18485(17) 0.49531(13)
C21_6 C 0.6999(2) 0.1620(3) 0.50954(19)
H13_6 H 0.7340 0.1654 0.4952
C22_6 C 0.7013(2) 0.1344(3) 0.54415(18)
H14_6 H 0.7369 0.1200 0.5527
C23_6 C 0.6005(2) 0.1767(2) 0.51832(17)
H15_6 H 0.5647 0.1910 0.5101
N4_6 N 0.65465(16) 0.12659(16) 0.56701(11)
C24_6 C 0.6046(2) 0.1479(2) 0.55312(16)
H16_6 H 0.5709 0.1429 0.5677
Ag2_4 Ag 0.666022(13) 0.416022(13) 0.6250
N5_5 N 0.76693(16) 0.58930(18) 0.36190(14)
N7_5 N 0.65465(16) 0.62659(16) 0.43299(11)
Ag4_4 Ag 0.666022(13) 0.916022(13) 0.3750
C9_7 C 0.8001(2) 0.6620(3) 0.00954(19)
C10_7 C 0.7987(2) 0.6344(3) 0.04415(18)
H6_7 H 0.7631 0.6200 0.0527
C11_7 C 0.8954(2) 0.6479(2) 0.05312(16)
H7_7 H 0.9291 0.6429 0.0677
C12_7 C 0.8995(2) 0.6767(2) 0.01832(17)
H8_7 H 0.9353 0.6910 0.0101
C21_7 C 0.8001(2) 0.8380(3) 0.00954(19)
C22_7 C 0.7987(2) 0.8656(3) 0.04415(18)
H14_7 H 0.7631 0.8800 0.0527
C23_7 C 0.8995(2) 0.8233(2) 0.01832(17)
H15_7 H 0.9353 0.8090 0.0101
N4_7 N 0.84535(16) 0.87341(16) 0.06701(11)
C24_7 C 0.8954(2) 0.8521(2) 0.05312(16)
H16_7 H 0.9291 0.8571 0.0677
Ag3_4 Ag 0.833978(13) 0.916022(13) 0.1250
Ag1_4 Ag 0.833978(13) 0.416022(13) 0.8750
N1_6 N 0.83930(18) 0.51693(16) 0.88810(14)
C1_7 C 0.8727(3) 0.5345(2) 0.91703(17)
H1_7 H 0.8948 0.5067 0.9300
C2_7 C 0.8767(3) 0.5912(2) 0.92894(17)
H2_7 H 0.9010 0.6009 0.9495
C3_7 C 0.8443(2) 0.63435(18) 0.91027(14)
C4_7 C 0.8103(2) 0.6157(2) 0.87941(16)
H3_7 H 0.7885 0.6422 0.8652
C5_7 C 0.8093(3) 0.5574(2) 0.87018(17)
H4_7 H 0.7856 0.5458 0.8497
C6_7 C 0.84645(19) 0.69583(17) 0.92219(14)
S1_8 S 0.84255(8) 0.7500 0.88801(5)
C7_7 C 0.85155(18) 0.71881(17) 0.95862(13)
C8_7 C 0.85040(19) 0.68485(17) 0.99531(13)
H5_7 H 0.7660 0.6654 0.9952
N3_7 N 0.83930(18) 0.98307(16) 0.88810(14)
C13_7 C 0.8727(3) 0.9655(2) 0.91703(17)
H9_7 H 0.8948 0.9933 0.9300
C14_7 C 0.8767(3) 0.9088(2) 0.92894(17)
H10_7 H 0.9010 0.8991 0.9495
C15_7 C 0.8443(2) 0.86565(18) 0.91027(14)
C16_7 C 0.8103(2) 0.8843(2) 0.87941(16)
H11_7 H 0.7885 0.8578 0.8652
C17_7 C 0.8093(3) 0.9426(2) 0.87018(17)
H12_7 H 0.7856 0.9542 0.8497
C18_7 C 0.84645(19) 0.80417(17) 0.92219(14)
C19_7 C 0.85155(18) 0.78119(17) 0.95862(13)
C20_7 C 0.85040(19) 0.81515(17) 0.99531(13)
H13_7 H 0.7660 0.8346 0.9952
N5_6 N 0.73307(16) 0.41070(18) 0.86190(14)
N6_4 N 0.87659(16) 0.40465(16) 0.81701(11)
N7_6 N 0.84535(16) 0.37341(16) 0.93299(11)
C1_8 C 0.8727(3) 0.4655(2) 0.08297(17)
H1_8 H 0.8948 0.4933 0.0700
C2_8 C 0.8767(3) 0.4088(2) 0.07106(17)
H2_8 H 0.9010 0.3991 0.0505
C3_8 C 0.8443(2) 0.36565(18) 0.08973(14)
C4_8 C 0.8103(2) 0.3843(2) 0.12059(16)
H3_8 H 0.7885 0.3578 0.1348
C5_8 C 0.8093(3) 0.4426(2) 0.12982(17)
H4_8 H 0.7856 0.4542 0.1503
C6_8 C 0.84645(19) 0.30417(17) 0.07781(14)
S1_9 S 0.84255(8) 0.2500 0.11199(5)
C7_8 C 0.85155(18) 0.28119(17) 0.04138(13)
C8_8 C 0.85040(19) 0.31515(17) 0.00469(13)
H5_8 H 0.7660 0.3346 0.0048
N3_8 N 0.83930(18) 0.01693(16) 0.11190(14)
C13_8 C 0.8727(3) 0.0345(2) 0.08297(17)
H9_8 H 0.8948 0.0067 0.0700
C14_8 C 0.8767(3) 0.0912(2) 0.07106(17)
H10_8 H 0.9010 0.1009 0.0505
C15_8 C 0.8443(2) 0.13435(18) 0.08973(14)
C16_8 C 0.8103(2) 0.1157(2) 0.12059(16)
H11_8 H 0.7885 0.1422 0.1348
C17_8 C 0.8093(3) 0.0574(2) 0.12982(17)
H12_8 H 0.7856 0.0458 0.1503
C18_8 C 0.84645(19) 0.19583(17) 0.07781(14)
C19_8 C 0.85155(18) 0.21881(17) 0.04138(13)
C20_8 C 0.85040(19) 0.18485(17) 0.00469(13)
H13_8 H 0.7660 0.1654 0.0048
C9_8 C 0.8001(2) 0.3380(3) 0.99046(19)
C10_8 C 0.7987(2) 0.3656(3) 0.95585(18)
H6_8 H 0.7631 0.3800 0.9473
C11_8 C 0.8954(2) 0.3521(2) 0.94688(16)
H7_8 H 0.9291 0.3571 0.9323
C12_8 C 0.8995(2) 0.3233(2) 0.98168(17)
H8_8 H 0.9353 0.3090 0.9899
C21_8 C 0.8001(2) 0.1620(3) 0.99046(19)
C22_8 C 0.7987(2) 0.1344(3) 0.95585(18)
H14_8 H 0.7631 0.1200 0.9473
C23_8 C 0.8995(2) 0.1767(2) 0.98168(17)
H15_8 H 0.9353 0.1910 0.9899
N4_8 N 0.84535(16) 0.12659(16) 0.93299(11)
C24_8 C 0.8954(2) 0.1479(2) 0.94688(16)
H16_8 H 0.9291 0.1429 0.9323
N5_7 N 0.16070(18) 0.01693(16) 0.11190(14)
N1_7 N 0.26693(16) 0.91070(18) 0.13810(14)
C1_9 C 0.2845(2) 0.8773(3) 0.16703(17)
H1_9 H 0.2567 0.8552 0.1800
C2_9 C 0.3412(2) 0.8733(3) 0.17894(17)
H2_9 H 0.3509 0.8490 0.1995
C3_9 C 0.38435(18) 0.9057(2) 0.16027(14)
C4_9 C 0.3657(2) 0.9397(2) 0.12941(16)
H3_9 H 0.3922 0.9615 0.1152
C5_9 C 0.3074(2) 0.9407(3) 0.12018(17)
H4_9 H 0.2958 0.9644 0.0997
C6_9 C 0.44583(17) 0.90355(19) 0.17219(14)
S1_10 S 0.5000 0.90745(8) 0.13801(5)
C7_9 C 0.46881(17) 0.89845(18) 0.20862(13)
C8_9 C 0.43485(17) 0.89960(19) 0.24531(13)
C9_9 C 0.4120(3) 0.9499(2) 0.25954(19)
H5_9 H 0.4154 0.9840 0.2452
C10_9 C 0.3844(3) 0.9513(2) 0.29415(18)
H6_9 H 0.3700 0.9869 0.3027
C11_9 C 0.3979(2) 0.8546(2) 0.30312(16)
H7_9 H 0.3929 0.8209 0.3177
C12_9 C 0.4267(2) 0.8505(2) 0.26832(17)
H8_9 H 0.4410 0.8147 0.2601
N3_9 N 0.73307(16) 0.91070(18) 0.13810(14)
C13_9 C 0.7155(2) 0.8773(3) 0.16703(17)
H9_9 H 0.7433 0.8552 0.1800
C14_9 C 0.6588(2) 0.8733(3) 0.17894(17)
H10_9 H 0.6491 0.8490 0.1995
C15_9 C 0.61565(18) 0.9057(2) 0.16027(14)
C16_9 C 0.6343(2) 0.9397(2) 0.12941(16)
H11_9 H 0.6078 0.9615 0.1152
C17_9 C 0.6926(2) 0.9407(3) 0.12018(17)
H12_9 H 0.7042 0.9644 0.0997
C18_9 C 0.55417(17) 0.90355(19) 0.17219(14)
C19_9 C 0.53119(17) 0.89845(18) 0.20862(13)
C20_9 C 0.56515(17) 0.89960(19) 0.24531(13)
C21_9 C 0.5880(3) 0.9499(2) 0.25954(19)
H13_9 H 0.5846 0.9840 0.2452
C22_9 C 0.6156(3) 0.9513(2) 0.29415(18)
H14_9 H 0.6300 0.9869 0.3027
C23_9 C 0.5733(2) 0.8505(2) 0.26832(17)
H15_9 H 0.5590 0.8147 0.2601
N4_9 N 0.62341(16) 0.90465(16) 0.31701(11)
C24_9 C 0.6021(2) 0.8546(2) 0.30312(16)
H16_9 H 0.6071 0.8209 0.3177
N7_7 N 0.12341(16) 0.90465(16) 0.18299(11)
C1_10 C 0.2845(2) 0.1227(3) 0.83297(17)
H1_10 H 0.2567 0.1448 0.8200
C2_10 C 0.3412(2) 0.1267(3) 0.82106(17)
H2_10 H 0.3509 0.1510 0.8005
C3_10 C 0.38435(18) 0.0943(2) 0.83973(14)
C4_10 C 0.3657(2) 0.0603(2) 0.87059(16)
H3_10 H 0.3922 0.0385 0.8848
C5_10 C 0.3074(2) 0.0593(3) 0.87982(17)
H4_10 H 0.2958 0.0356 0.9003
C6_10 C 0.44583(17) 0.09645(19) 0.82781(14)
S1_11 S 0.5000 0.09255(8) 0.86199(5)
C7_10 C 0.46881(17) 0.10155(18) 0.79138(13)
C8_10 C 0.43485(17) 0.10040(19) 0.75469(13)
C9_10 C 0.4120(3) 0.0501(2) 0.74046(19)
H5_10 H 0.4154 0.0160 0.7548
C10_10 C 0.3844(3) 0.0487(2) 0.70585(18)
H6_10 H 0.3700 0.0131 0.6973
C11_10 C 0.3979(2) 0.1454(2) 0.69688(16)
H7_10 H 0.3929 0.1791 0.6823
C12_10 C 0.4267(2) 0.1495(2) 0.73168(17)
H8_10 H 0.4410 0.1853 0.7399
N3_10 N 0.73307(16) 0.08930(18) 0.86190(14)
C13_10 C 0.7155(2) 0.1227(3) 0.83297(17)
H9_10 H 0.7433 0.1448 0.8200
C14_10 C 0.6588(2) 0.1267(3) 0.82106(17)
H10_10 H 0.6491 0.1510 0.8005
C15_10 C 0.61565(18) 0.0943(2) 0.83973(14)
C16_10 C 0.6343(2) 0.0603(2) 0.87059(16)
H11_10 H 0.6078 0.0385 0.8848
C17_10 C 0.6926(2) 0.0593(3) 0.87982(17)
H12_10 H 0.7042 0.0356 0.9003
C18_10 C 0.55417(17) 0.09645(19) 0.82781(14)
C19_10 C 0.53119(17) 0.10155(18) 0.79138(13)
C20_10 C 0.56515(17) 0.10040(19) 0.75469(13)
C21_10 C 0.5880(3) 0.0501(2) 0.74046(19)
H13_10 H 0.5846 0.0160 0.7548
C22_10 C 0.6156(3) 0.0487(2) 0.70585(18)
H14_10 H 0.6300 0.0131 0.6973
C23_10 C 0.5733(2) 0.1495(2) 0.73168(17)
H15_10 H 0.5590 0.1853 0.7399
N4_10 N 0.62341(16) 0.09535(16) 0.68299(11)
C24_10 C 0.6021(2) 0.1454(2) 0.69688(16)
H16_10 H 0.6071 0.1791 0.6823
C1_11 C 0.2155(2) 0.8773(3) 0.33297(17)
H1_11 H 0.2433 0.8552 0.3200
C2_11 C 0.1588(2) 0.8733(3) 0.32106(17)
H2_11 H 0.1491 0.8490 0.3005
C3_11 C 0.11565(18) 0.9057(2) 0.33973(14)
C4_11 C 0.1343(2) 0.9397(2) 0.37059(16)
H3_11 H 0.1078 0.9615 0.3848
C5_11 C 0.1926(2) 0.9407(3) 0.37982(17)
H4_11 H 0.2042 0.9644 0.4003
C6_11 C 0.05417(17) 0.90355(19) 0.32781(14)
S1_12 S 0.0000 0.90745(8) 0.36199(5)
C7_11 C 0.03119(17) 0.89845(18) 0.29138(13)
C8_11 C 0.06515(17) 0.89960(19) 0.25469(13)
C9_11 C 0.0880(3) 0.9499(2) 0.24046(19)
H5_11 H 0.0846 0.9840 0.2548
C10_11 C 0.1156(3) 0.9513(2) 0.20585(18)
H6_11 H 0.1300 0.9869 0.1973
C11_11 C 0.1021(2) 0.8546(2) 0.19688(16)
H7_11 H 0.1071 0.8209 0.1823
C12_11 C 0.0733(2) 0.8505(2) 0.23168(17)
H8_11 H 0.0590 0.8147 0.2399
S1_13 S 1.0000 0.90745(8) 0.36199(5)
N3_11 N 0.76693(16) 0.91070(18) 0.36190(14)
C13_11 C 0.7845(2) 0.8773(3) 0.33297(17)
H9_11 H 0.7567 0.8552 0.3200
C14_11 C 0.8412(2) 0.8733(3) 0.32106(17)
H10_11 H 0.8509 0.8490 0.3005
C15_11 C 0.88435(18) 0.9057(2) 0.33973(14)
C16_11 C 0.8657(2) 0.9397(2) 0.37059(16)
H11_11 H 0.8922 0.9615 0.3848
C17_11 C 0.8074(2) 0.9407(3) 0.37982(17)
H12_11 H 0.7958 0.9644 0.4003
C18_11 C 0.94583(17) 0.90355(19) 0.32781(14)
C19_11 C 0.96881(17) 0.89845(18) 0.29138(13)
C20_11 C 0.93485(17) 0.89960(19) 0.25469(13)
C21_11 C 0.9120(3) 0.9499(2) 0.24046(19)
H13_11 H 0.9154 0.9840 0.2548
C22_11 C 0.8844(3) 0.9513(2) 0.20585(18)
H14_11 H 0.8700 0.9869 0.1973
C23_11 C 0.9267(2) 0.8505(2) 0.23168(17)
H15_11 H 0.9410 0.8147 0.2399
N4_11 N 0.87659(16) 0.90465(16) 0.18299(11)
C24_11 C 0.8979(2) 0.8546(2) 0.19688(16)
H16_11 H 0.8929 0.8209 0.1823
C1_12 C 0.1273(3) 0.0345(2) 0.08297(17)
H1_12 H 0.1052 0.0067 0.0700
C2_12 C 0.1233(3) 0.0912(2) 0.07106(17)
H2_12 H 0.0990 0.1009 0.0505
C3_12 C 0.1557(2) 0.13435(18) 0.08973(14)
C4_12 C 0.1897(2) 0.1157(2) 0.12059(16)
H3_12 H 0.2115 0.1422 0.1348
C5_12 C 0.1907(3) 0.0574(2) 0.12982(17)
H4_12 H 0.2144 0.0458 0.1503
C6_12 C 0.15355(19) 0.19583(17) 0.07781(14)
S1_14 S 0.15745(8) 0.2500 0.11199(5)
C7_12 C 0.14845(18) 0.21881(17) 0.04138(13)
C8_12 C 0.14960(19) 0.18485(17) 0.00469(13)
H5_12 H 0.2340 0.1654 0.0048
N3_12 N 0.16070(18) 0.48307(16) 0.11190(14)
C13_12 C 0.1273(3) 0.4655(2) 0.08297(17)
H9_12 H 0.1052 0.4933 0.0700
C14_12 C 0.1233(3) 0.4088(2) 0.07106(17)
H10_12 H 0.0990 0.3991 0.0505
C15_12 C 0.1557(2) 0.36565(18) 0.08973(14)
C16_12 C 0.1897(2) 0.3843(2) 0.12059(16)
H11_12 H 0.2115 0.3578 0.1348
C17_12 C 0.1907(3) 0.4426(2) 0.12982(17)
H12_12 H 0.2144 0.4542 0.1503
C18_12 C 0.15355(19) 0.30417(17) 0.07781(14)
C19_12 C 0.14845(18) 0.28119(17) 0.04138(13)
C20_12 C 0.14960(19) 0.31515(17) 0.00469(13)
H13_12 H 0.2340 0.3346 0.0048
C9_12 C 0.1999(2) 0.1620(3) 0.99046(19)
C10_12 C 0.2013(2) 0.1344(3) 0.95585(18)
H6_12 H 0.2369 0.1200 0.9473
C11_12 C 0.1046(2) 0.1479(2) 0.94688(16)
H7_12 H 0.0709 0.1429 0.9323
C12_12 C 0.1005(2) 0.1767(2) 0.98168(17)
H8_12 H 0.0647 0.1910 0.9899
C21_12 C 0.1999(2) 0.3380(3) 0.99046(19)
C22_12 C 0.2013(2) 0.3656(3) 0.95585(18)
H14_12 H 0.2369 0.3800 0.9473
C23_12 C 0.1005(2) 0.3233(2) 0.98168(17)
H15_12 H 0.0647 0.3090 0.9899
N4_12 N 0.15465(16) 0.37341(16) 0.93299(11)
C24_12 C 0.1046(2) 0.3521(2) 0.94688(16)
H16_12 H 0.0709 0.3571 0.9323
S1_15 S -0.0000 0.40745(8) 0.63801(5)
N3_13 N 0.23307(16) 0.41070(18) 0.63810(14)
C13_13 C 0.2155(2) 0.3773(3) 0.66703(17)
H9_13 H 0.2433 0.3552 0.6800
C14_13 C 0.1588(2) 0.3733(3) 0.67894(17)
H10_13 H 0.1491 0.3490 0.6995
C15_13 C 0.11565(18) 0.4057(2) 0.66027(14)
C16_13 C 0.1343(2) 0.4397(2) 0.62941(16)
H11_13 H 0.1078 0.4615 0.6152
C17_13 C 0.1926(2) 0.4407(3) 0.62018(17)
H12_13 H 0.2042 0.4644 0.5997
C18_13 C 0.05417(17) 0.40355(19) 0.67219(14)
C19_13 C 0.03119(17) 0.39845(18) 0.70862(13)
C20_13 C 0.06515(17) 0.39960(19) 0.74531(13)
C21_13 C 0.0880(3) 0.4499(2) 0.75954(19)
H13_13 H 0.0846 0.4840 0.7452
C22_13 C 0.1156(3) 0.4513(2) 0.79415(18)
H14_13 H 0.1300 0.4869 0.8027
C23_13 C 0.0733(2) 0.3505(2) 0.76832(17)
H15_13 H 0.0590 0.3147 0.7601
N4_13 N 0.12341(16) 0.40465(16) 0.81701(11)
C24_13 C 0.1021(2) 0.3546(2) 0.80312(16)
H16_13 H 0.1071 0.3209 0.8177
N1_8 N 0.76693(16) 0.41070(18) 0.63810(14)
C1_13 C 0.7845(2) 0.3773(3) 0.66703(17)
H1_13 H 0.7567 0.3552 0.6800
C2_13 C 0.8412(2) 0.3733(3) 0.67894(17)
H2_13 H 0.8509 0.3490 0.6995
C3_13 C 0.88435(18) 0.4057(2) 0.66027(14)
C4_13 C 0.8657(2) 0.4397(2) 0.62941(16)
H3_13 H 0.8922 0.4615 0.6152
C5_13 C 0.8074(2) 0.4407(3) 0.62018(17)
H4_13 H 0.7958 0.4644 0.5997
C6_13 C 0.94583(17) 0.40355(19) 0.67219(14)
S1_16 S 1.0000 0.40745(8) 0.63801(5)
C7_13 C 0.96881(17) 0.39845(18) 0.70862(13)
C8_13 C 0.93485(17) 0.39960(19) 0.74531(13)
C9_13 C 0.9120(3) 0.4499(2) 0.75954(19)
H5_13 H 0.9154 0.4840 0.7452
C10_13 C 0.8844(3) 0.4513(2) 0.79415(18)
H6_13 H 0.8700 0.4869 0.8027
C11_13 C 0.8979(2) 0.3546(2) 0.80312(16)
H7_13 H 0.8929 0.3209 0.8177
C12_13 C 0.9267(2) 0.3505(2) 0.76832(17)
H8_13 H 0.9410 0.3147 0.7601
N5_8 N 0.66070(18) 0.51693(16) 0.61190(14)
N7_8 N 0.62341(16) 0.40465(16) 0.68299(11)
S1_17 S -0.0000 0.59255(8) 0.36199(5)
N3_14 N 0.23307(16) 0.58930(18) 0.36190(14)
C13_14 C 0.2155(2) 0.6227(3) 0.33297(17)
H9_14 H 0.2433 0.6448 0.3200
C14_14 C 0.1588(2) 0.6267(3) 0.32106(17)
H10_14 H 0.1491 0.6510 0.3005
C15_14 C 0.11565(18) 0.5943(2) 0.33973(14)
C16_14 C 0.1343(2) 0.5603(2) 0.37059(16)
H11_14 H 0.1078 0.5385 0.3848
C17_14 C 0.1926(2) 0.5593(3) 0.37982(17)
H12_14 H 0.2042 0.5356 0.4003
C18_14 C 0.05417(17) 0.59645(19) 0.32781(14)
C19_14 C 0.03119(17) 0.60155(18) 0.29138(13)
C20_14 C 0.06515(17) 0.60040(19) 0.25469(13)
C21_14 C 0.0880(3) 0.5501(2) 0.24046(19)
H13_14 H 0.0846 0.5160 0.2548
C22_14 C 0.1156(3) 0.5487(2) 0.20585(18)
H14_14 H 0.1300 0.5131 0.1973
C23_14 C 0.0733(2) 0.6495(2) 0.23168(17)
H15_14 H 0.0590 0.6853 0.2399
N4_14 N 0.12341(16) 0.59535(16) 0.18299(11)
C24_14 C 0.1021(2) 0.6454(2) 0.19688(16)
H16_14 H 0.1071 0.6791 0.1823
C1_14 C 0.7845(2) 0.6227(3) 0.33297(17)
H1_14 H 0.7567 0.6448 0.3200
C2_14 C 0.8412(2) 0.6267(3) 0.32106(17)
H2_14 H 0.8509 0.6510 0.3005
C3_14 C 0.88435(18) 0.5943(2) 0.33973(14)
C4_14 C 0.8657(2) 0.5603(2) 0.37059(16)
H3_14 H 0.8922 0.5385 0.3848
C5_14 C 0.8074(2) 0.5593(3) 0.37982(17)
H4_14 H 0.7958 0.5356 0.4003
C6_14 C 0.94583(17) 0.59645(19) 0.32781(14)
S1_18 S 1.0000 0.59255(8) 0.36199(5)
C7_14 C 0.96881(17) 0.60155(18) 0.29138(13)
C8_14 C 0.93485(17) 0.60040(19) 0.25469(13)
C9_14 C 0.9120(3) 0.5501(2) 0.24046(19)
H5_14 H 0.9154 0.5160 0.2548
C10_14 C 0.8844(3) 0.5487(2) 0.20585(18)
H6_14 H 0.8700 0.5131 0.1973
C11_14 C 0.8979(2) 0.6454(2) 0.19688(16)
H7_14 H 0.8929 0.6791 0.1823
C12_14 C 0.9267(2) 0.6495(2) 0.23168(17)
H8_14 H 0.9410 0.6853 0.2399
C1_15 C 0.7155(2) 0.3773(3) 0.83297(17)
H1_15 H 0.7433 0.3552 0.8200
C2_15 C 0.6588(2) 0.3733(3) 0.82106(17)
H2_15 H 0.6491 0.3490 0.8005
C3_15 C 0.61565(18) 0.4057(2) 0.83973(14)
C4_15 C 0.6343(2) 0.4397(2) 0.87059(16)
H3_15 H 0.6078 0.4615 0.8848
C5_15 C 0.6926(2) 0.4407(3) 0.87982(17)
H4_15 H 0.7042 0.4644 0.9003
C6_15 C 0.55417(17) 0.40355(19) 0.82781(14)
S1_19 S 0.5000 0.40745(8) 0.86199(5)
C7_15 C 0.53119(17) 0.39845(18) 0.79138(13)
C8_15 C 0.56515(17) 0.39960(19) 0.75469(13)
C9_15 C 0.5880(3) 0.4499(2) 0.74046(19)
H5_15 H 0.5846 0.4840 0.7548
C10_15 C 0.6156(3) 0.4513(2) 0.70585(18)
H6_15 H 0.6300 0.4869 0.6973
C11_15 C 0.6021(2) 0.3546(2) 0.69688(16)
H7_15 H 0.6071 0.3209 0.6823
C12_15 C 0.5733(2) 0.3505(2) 0.73168(17)
H8_15 H 0.5590 0.3147 0.7399
N3_15 N 0.26693(16) 0.41070(18) 0.86190(14)
C13_15 C 0.2845(2) 0.3773(3) 0.83297(17)
H9_15 H 0.2567 0.3552 0.8200
C14_15 C 0.3412(2) 0.3733(3) 0.82106(17)
H10_15 H 0.3509 0.3490 0.8005
C15_15 C 0.38435(18) 0.4057(2) 0.83973(14)
C16_15 C 0.3657(2) 0.4397(2) 0.87059(16)
H11_15 H 0.3922 0.4615 0.8848
C17_15 C 0.3074(2) 0.4407(3) 0.87982(17)
H12_15 H 0.2958 0.4644 0.9003
C18_15 C 0.44583(17) 0.40355(19) 0.82781(14)
C19_15 C 0.46881(17) 0.39845(18) 0.79138(13)
C20_15 C 0.43485(17) 0.39960(19) 0.75469(13)
C21_15 C 0.4120(3) 0.4499(2) 0.74046(19)
H13_15 H 0.4154 0.4840 0.7548
C22_15 C 0.3844(3) 0.4513(2) 0.70585(18)
H14_15 H 0.3700 0.4869 0.6973
C23_15 C 0.4267(2) 0.3505(2) 0.73168(17)
H15_15 H 0.4410 0.3147 0.7399
N4_15 N 0.37659(16) 0.40465(16) 0.68299(11)
C24_15 C 0.3979(2) 0.3546(2) 0.69688(16)
H16_15 H 0.3929 0.3209 0.6823
C1_16 C 0.6273(3) 0.5345(2) 0.58297(17)
H1_16 H 0.6052 0.5067 0.5700
C2_16 C 0.6233(3) 0.5912(2) 0.57106(17)
H2_16 H 0.5990 0.6009 0.5505
C3_16 C 0.6557(2) 0.63435(18) 0.58973(14)
C4_16 C 0.6897(2) 0.6157(2) 0.62059(16)
H3_16 H 0.7115 0.6422 0.6348
C5_16 C 0.6907(3) 0.5574(2) 0.62982(17)
H4_16 H 0.7144 0.5458 0.6503
C6_16 C 0.65355(19) 0.69583(17) 0.57781(14)
S1_20 S 0.65745(8) 0.7500 0.61199(5)
C7_16 C 0.64845(18) 0.71881(17) 0.54138(13)
C8_16 C 0.64960(19) 0.68485(17) 0.50469(13)
C9_16 C 0.6999(2) 0.6620(3) 0.49046(19)
H5_16 H 0.7340 0.6654 0.5048
C10_16 C 0.7013(2) 0.6344(3) 0.45585(18)
H6_16 H 0.7369 0.6200 0.4473
C11_16 C 0.6046(2) 0.6479(2) 0.44688(16)
H7_16 H 0.5709 0.6429 0.4323
C12_16 C 0.6005(2) 0.6767(2) 0.48168(17)
H8_16 H 0.5647 0.6910 0.4899
N3_16 N 0.66070(18) 0.98307(16) 0.61190(14)
C13_16 C 0.6273(3) 0.9655(2) 0.58297(17)
H9_16 H 0.6052 0.9933 0.5700
C14_16 C 0.6233(3) 0.9088(2) 0.57106(17)
H10_16 H 0.5990 0.8991 0.5505
C15_16 C 0.6557(2) 0.86565(18) 0.58973(14)
C16_16 C 0.6897(2) 0.8843(2) 0.62059(16)
H11_16 H 0.7115 0.8578 0.6348
C17_16 C 0.6907(3) 0.9426(2) 0.62982(17)
H12_16 H 0.7144 0.9542 0.6503
C18_16 C 0.65355(19) 0.80417(17) 0.57781(14)
C19_16 C 0.64845(18) 0.78119(17) 0.54138(13)
C20_16 C 0.64960(19) 0.81515(17) 0.50469(13)
C21_16 C 0.6999(2) 0.8380(3) 0.49046(19)
H13_16 H 0.7340 0.8346 0.5048
C22_16 C 0.7013(2) 0.8656(3) 0.45585(18)
H14_16 H 0.7369 0.8800 0.4473
C23_16 C 0.6005(2) 0.8233(2) 0.48168(17)
H15_16 H 0.5647 0.8090 0.4899
N4_16 N 0.65465(16) 0.87341(16) 0.43299(11)
C24_16 C 0.6046(2) 0.8521(2) 0.44688(16)
H16_16 H 0.5709 0.8571 0.4323
P2 P 0.2500 0.2500 0.7500
F7 F 0.2500 0.1819(2) 0.7500
F8 F 0.2163(5) 0.2500 0.7890(3)
F9 F 0.3014(4) 0.2500 0.7790(3)
F10 F 0.2500 0.3181(2) 0.7500
F11 F 0.2837(5) 0.2500 0.7110(3)
F12 F 0.1986(4) 0.2500 0.7210(3)
P2_2 P 0.0000 0.0000 0.0000
F7_2 F 0.0681(2) 0.0000 0.0000
F9_2 F 0.0000 0.0514(4) 0.0290(3)
P2_3 P -0.0000 -0.0000 1.0000
F7_3 F 0.0681(2) -0.0000 1.0000
F11_2 F -0.0000 0.0337(5) 0.9610(3)
P2_4 P 0.0000 1.0000 0.0000
F7_4 F 0.0681(2) 1.0000 0.0000
F8_2 F 0.0000 0.9663(5) 0.0390(3)
P2_5 P -0.0000 1.0000 1.0000
F7_5 F 0.0681(2) 1.0000 1.0000
F12_2 F -0.0000 0.9486(4) 0.9710(3)
P2_6 P 1.0000 0.0000 0.0000
F9_3 F 1.0000 0.0514(4) 0.0290(3)
F10_2 F 0.9319(2) 0.0000 0.0000
P2_7 P 1.0000 -0.0000 1.0000
F10_3 F 0.9319(2) 0.0000 1.0000
F11_3 F 1.0000 0.0337(5) 0.9610(3)
P2_8 P 1.0000 1.0000 0.0000
F8_3 F 1.0000 0.9663(5) 0.0390(3)
F10_4 F 0.9319(2) 1.0000 0.0000
P2_9 P 1.0000 1.0000 1.0000
F10_5 F 0.9319(2) 1.0000 1.0000
F12_3 F 1.0000 0.9486(4) 0.9710(3)
P2_10 P 0.5000 -0.0000 0.5000
F7_6 F 0.4319(2) -0.0000 0.5000
F8_4 F 0.5000 0.0337(5) 0.5390(3)
F10_6 F 0.5681(2) -0.0000 0.5000
F12_4 F 0.5000 0.0514(4) 0.4710(3)
P2_11 P 0.5000 1.0000 0.5000
F7_7 F 0.4319(2) 1.0000 0.5000
F9_4 F 0.5000 0.9486(4) 0.5290(3)
F10_7 F 0.5681(2) 1.0000 0.5000
F11_4 F 0.5000 0.9663(5) 0.4610(3)
P2_12 P 0.7500 0.7500 0.2500
F7_8 F 0.7500 0.6819(2) 0.2500
F8_5 F 0.7163(5) 0.7500 0.2890(3)
F9_5 F 0.8014(4) 0.7500 0.2790(3)
F10_8 F 0.7500 0.8181(2) 0.2500
F11_5 F 0.7837(5) 0.7500 0.2110(3)
F12_5 F 0.6986(4) 0.7500 0.2210(3)
P2_13 P 0.5000 0.5000 0.5000
F7_9 F 0.5681(2) 0.5000 0.5000
F8_6 F 0.5000 0.4663(5) 0.5390(3)
F9_6 F 0.5000 0.5514(4) 0.5290(3)
F10_9 F 0.4319(2) 0.5000 0.5000
F11_6 F 0.5000 0.5337(5) 0.4610(3)
F12_6 F 0.5000 0.4486(4) 0.4710(3)
P2_14 P 0.0000 0.5000 0.0000
F8_7 F -0.0000 0.5337(5) 0.0390(3)
F9_7 F -0.0000 0.4486(4) 0.0290(3)
F10_10 F 0.0681(2) 0.5000 0.0000
P2_15 P -0.0000 0.5000 1.0000
F10_11 F 0.0681(2) 0.5000 1.0000
F11_7 F -0.0000 0.4663(5) 0.9610(3)
F12_7 F -0.0000 0.5514(4) 0.9710(3)
P2_16 P 1.0000 0.5000 0.0000
F7_10 F 0.9319(2) 0.5000 0.0000
F8_8 F 1.0000 0.5337(5) 0.0390(3)
F9_8 F 1.0000 0.4486(4) 0.0290(3)
P2_17 P 1.0000 0.5000 1.0000
F7_11 F 0.9319(2) 0.5000 1.0000
F11_8 F 1.0000 0.4663(5) 0.9610(3)
F12_8 F 1.0000 0.5514(4) 0.9710(3)
P2_18 P 0.2500 0.7500 0.2500
F7_12 F 0.2500 0.8181(2) 0.2500
F8_9 F 0.2837(5) 0.7500 0.2890(3)
F9_9 F 0.1986(4) 0.7500 0.2790(3)
F10_12 F 0.2500 0.6819(2) 0.2500
F11_9 F 0.2163(5) 0.7500 0.2110(3)
F12_9 F 0.3014(4) 0.7500 0.2210(3)
P2_19 P 0.7500 0.2500 0.7500
F7_13 F 0.7500 0.3181(2) 0.7500
F8_10 F 0.7837(5) 0.2500 0.7890(3)
F9_10 F 0.6986(4) 0.2500 0.7790(3)
F10_13 F 0.7500 0.1819(2) 0.7500
F11_10 F 0.7163(5) 0.2500 0.7110(3)
F12_10 F 0.8014(4) 0.2500 0.7210(3)
loop_
_geom_bond_atom_site_label_1
_geom_bond_atom_site_label_2
_geom_bond_site_symmetry_1
_geom_bond_site_symmetry_2
P1 F1 1_555 1_555
F2 P1 1_555 1_555
F3 P1 1_555 1_555
F4 P1 1_555 1_555
F6 P1 1_555 1_555
F2_2 P1_2 1_555 1_555
F3_2 P1_2 1_555 1_555
F4_2 P1_2 1_555 1_555
F5 P1_2 1_555 1_555
F6_2 P1_2 1_555 1_555
P1_3 F1_2 1_555 1_555
F2_3 P1_3 1_555 1_555
F4_3 P1_3 1_555 1_555
F5_2 P1_3 1_555 1_555
F6_3 P1_3 1_555 1_555
P1_4 F1_3 1_555 1_555
F2_4 P1_4 1_555 1_555
F3_3 P1_4 1_555 1_555
F4_4 P1_4 1_555 1_555
F5_3 P1_4 1_555 1_555
P1_5 F1_4 1_555 1_555
F2_5 P1_5 1_555 1_555
F3_4 P1_5 1_555 1_555
F4_5 P1_5 1_555 1_555
F5_4 P1_5 1_555 1_555
F6_4 P1_5 1_555 1_555
P1_6 F1_5 1_555 1_555
F2_6 P1_6 1_555 1_555
F3_5 P1_6 1_555 1_555
F4_6 P1_6 1_555 1_555
F5_5 P1_6 1_555 1_555
F6_5 P1_6 1_555 1_555
Ag1 N1 1_555 1_555
N1 C1 1_555 1_555
C1 H1 1_555 1_555
C2 C1 1_555 1_555
H2 C2 1_555 1_555
C3 C2 1_555 1_555
C4 C3 1_555 1_555
H3 C4 1_555 1_555
C5 N1 1_555 1_555
H4 C5 1_555 1_555
C6 C3 1_555 1_555
S1 C6 1_555 1_555
C7 C6 1_555 1_555
C8 C7 1_555 1_555
C9 C8 1_555 1_555
H5 C9 1_555 1_555
C10 C9 1_555 1_555
H6 C10 1_555 1_555
N2 C10 1_555 1_555
C11 N2 1_555 1_555
H7 C11 1_555 1_555
C12 C8 1_555 1_555
H8 C12 1_555 1_555
Ag2 N2 1_555 1_555
N6 Ag1 1_555 1_555
N7 Ag1 1_555 1_555
C4 C5 1_555 1_555
C11 C12 1_555 1_555
N3 C13 1_555 1_555
C13 H9 1_555 1_555
C14 C13 1_555 1_555
H10 C14 1_555 1_555
C15 C14 1_555 1_555
C16 C15 1_555 1_555
H11 C16 1_555 1_555
C17 N3 1_555 1_555
H12 C17 1_555 1_555
C18 S1_2 1_555 1_555
C20 C19 1_555 1_555
C21 C20 1_555 1_555
H13 C21 1_555 1_555
C22 C21 1_555 1_555
H14 C22 1_555 1_555
C23 C20 1_555 1_555
H15 C23 1_555 1_555
N4 C22 1_555 1_555
C24 C23 1_555 1_555
H16 C24 1_555 1_555
Ag3 N4 1_555 1_555
Ag4 N3 1_555 1_555
C15 C18 1_555 1_555
C16 C17 1_555 1_555
C18 C19 1_555 1_555
N4 C24 1_555 1_555
N5_2 Ag2 1_555 1_555
N7_2 Ag2 1_555 1_555
C10_2 C9_2 1_555 1_555
H6_2 C10_2 1_555 1_555
N2_2 C10_2 1_555 1_555
C11_2 N2_2 1_555 1_555
H7_2 C11_2 1_555 1_555
H8_2 C12_2 1_555 1_555
C22_2 C21_2 1_555 1_555
H14_2 C22_2 1_555 1_555
H15_2 C23_2 1_555 1_555
N4_2 C22_2 1_555 1_555
C24_2 C23_2 1_555 1_555
H16_2 C24_2 1_555 1_555
Ag2_2 N2_2 1_555 1_555
Ag3_2 N4_2 1_555 1_555
C11_2 C12_2 1_555 1_555
N4_2 C24_2 1_555 1_555
N1_2 C1_2 1_555 1_555
C1_2 H1_2 1_555 1_555
C2_2 C1_2 1_555 1_555
H2_2 C2_2 1_555 1_555
C3_2 C2_2 1_555 1_555
C4_2 C3_2 1_555 1_555
H3_2 C4_2 1_555 1_555
C5_2 N1_2 1_555 1_555
H4_2 C5_2 1_555 1_555
C6_2 C3_2 1_555 1_555
S1_3 C6_2 1_555 1_555
C7_2 C6_2 1_555 1_555
C8_2 C7_2 1_555 1_555
N3_2 C13_2 1_555 1_555
C13_2 H9_2 1_555 1_555
C14_2 C13_2 1_555 1_555
H10_2 C14_2 1_555 1_555
C15_2 C14_2 1_555 1_555
C16_2 C15_2 1_555 1_555
H11_2 C16_2 1_555 1_555
C17_2 N3_2 1_555 1_555
H12_2 C17_2 1_555 1_555
C18_2 S1_3 1_555 1_555
C19_2 C7_2 1_555 1_555
C20_2 C19_2 1_555 1_555
Ag4_2 N3_2 1_555 1_555
C4_2 C5_2 1_555 1_555
C15_2 C18_2 1_555 1_555
C16_2 C17_2 1_555 1_555
C18_2 C19_2 1_555 1_555
N1_3 C1_3 1_555 1_555
C1_3 H1_3 1_555 1_555
C2_3 C1_3 1_555 1_555
H2_3 C2_3 1_555 1_555
C3_3 C2_3 1_555 1_555
C4_3 C3_3 1_555 1_555
H3_3 C4_3 1_555 1_555
C5_3 N1_3 1_555 1_555
H4_3 C5_3 1_555 1_555
C6_3 C3_3 1_555 1_555
S1_4 C6_3 1_555 1_555
C7_3 C6_3 1_555 1_555
C8_3 C7_3 1_555 1_555
C9_3 C8_3 1_555 1_555
H5_3 C9_3 1_555 1_555
C10_3 C9_3 1_555 1_555
H6_3 C10_3 1_555 1_555
N6 C10_3 1_555 1_555
C11_3 N6 1_555 1_555
H7_3 C11_3 1_555 1_555
C12_3 C8_3 1_555 1_555
H8_3 C12_3 1_555 1_555
N3_3 C13_3 1_555 1_555
C13_3 H9_3 1_555 1_555
C14_3 C13_3 1_555 1_555
H10_3 C14_3 1_555 1_555
C15_3 C14_3 1_555 1_555
C16_3 C15_3 1_555 1_555
H11_3 C16_3 1_555 1_555
C17_3 N3_3 1_555 1_555
H12_3 C17_3 1_555 1_555
C18_3 S1_4 1_555 1_555
C19_3 C7_3 1_555 1_555
C20_3 C19_3 1_555 1_555
C21_3 C20_3 1_555 1_555
H13_3 C21_3 1_555 1_555
C22_3 C21_3 1_555 1_555
H14_3 C22_3 1_555 1_555
C23_3 C20_3 1_555 1_555
H15_3 C23_3 1_555 1_555
N4_3 C22_3 1_555 1_555
C24_3 C23_3 1_555 1_555
H16_3 C24_3 1_555 1_555
Ag3_3 N4_3 1_555 1_555
Ag4_3 N3_3 1_555 1_555
C4_3 C5_3 1_555 1_555
C11_3 C12_3 1_555 1_555
C15_3 C18_3 1_555 1_555
C16_3 C17_3 1_555 1_555
C18_3 C19_3 1_555 1_555
N4_3 C24_3 1_555 1_555
N5_3 Ag1_2 1_555 1_555
N6_2 Ag1_2 1_555 1_555
N7_3 Ag1_2 1_555 1_555
N5 C1_4 1_555 1_555
C1_4 H1_4 1_555 1_555
C2_4 C1_4 1_555 1_555
H2_4 C2_4 1_555 1_555
C3_4 C2_4 1_555 1_555
C4_4 C3_4 1_555 1_555
H3_4 C4_4 1_555 1_555
C5_4 N5 1_555 1_555
H4_4 C5_4 1_555 1_555
C6_4 C3_4 1_555 1_555
S1_5 C6_4 1_555 1_555
C7_4 C6_4 1_555 1_555
C8_4 C7_4 1_555 1_555
C9_4 C8_4 1_555 1_555
H5_4 C9_4 1_555 1_555
C10_4 C9_4 1_555 1_555
H6_4 C10_4 1_555 1_555
N7_3 C10_4 1_555 1_555
C11_4 N7_3 1_555 1_555
H7_4 C11_4 1_555 1_555
C12_4 C8_4 1_555 1_555
H8_4 C12_4 1_555 1_555
N3_4 C13_4 1_555 1_555
C13_4 H9_4 1_555 1_555
C14_4 C13_4 1_555 1_555
H10_4 C14_4 1_555 1_555
C15_4 C14_4 1_555 1_555
C16_4 C15_4 1_555 1_555
H11_4 C16_4 1_555 1_555
C17_4 N3_4 1_555 1_555
H12_4 C17_4 1_555 1_555
C18_4 S1_5 1_555 1_555
C19_4 C7_4 1_555 1_555
C20_4 C19_4 1_555 1_555
C21_4 C20_4 1_555 1_555
H13_4 C21_4 1_555 1_555
C22_4 C21_4 1_555 1_555
H14_4 C22_4 1_555 1_555
C23_4 C20_4 1_555 1_555
H15_4 C23_4 1_555 1_555
N4_4 C22_4 1_555 1_555
C24_4 C23_4 1_555 1_555
H16_4 C24_4 1_555 1_555
Ag4_3 N4_4 1_555 1_555
Ag3_3 N3_4 1_555 1_555
C4_4 C5_4 1_555 1_555
C11_4 C12_4 1_555 1_555
C15_4 C18_4 1_555 1_555
C16_4 C17_4 1_555 1_555
C18_4 C19_4 1_555 1_555
N4_4 C24_4 1_555 1_555
Ag1_3 N1_4 1_555 1_555
N1_4 C1_5 1_555 1_555
C1_5 H1_5 1_555 1_555
C2_5 C1_5 1_555 1_555
H2_5 C2_5 1_555 1_555
C3_5 C2_5 1_555 1_555
C4_5 C3_5 1_555 1_555
H3_5 C4_5 1_555 1_555
C5_5 N1_4 1_555 1_555
H4_5 C5_5 1_555 1_555
C6_5 C3_5 1_555 1_555
S1_6 C6_5 1_555 1_555
C7_5 C6_5 1_555 1_555
C8_5 C7_5 1_555 1_555
C9_5 C8_5 1_555 1_555
H5_5 C9_5 1_555 1_555
C10_5 C9_5 1_555 1_555
H6_5 C10_5 1_555 1_555
N2_3 C10_5 1_555 1_555
C11_5 N2_3 1_555 1_555
H7_5 C11_5 1_555 1_555
C12_5 C8_5 1_555 1_555
H8_5 C12_5 1_555 1_555
N3_5 C13_5 1_555 1_555
C13_5 H9_5 1_555 1_555
C14_5 C13_5 1_555 1_555
H10_5 C14_5 1_555 1_555
C15_5 C14_5 1_555 1_555
C16_5 C15_5 1_555 1_555
H11_5 C16_5 1_555 1_555
C17_5 N3_5 1_555 1_555
H12_5 C17_5 1_555 1_555
C18_5 S1_6 1_555 1_555
C19_5 C7_5 1_555 1_555
C20_5 C19_5 1_555 1_555
C21_5 C20_5 1_555 1_555
H13_5 C21_5 1_555 1_555
C22_5 C21_5 1_555 1_555
H14_5 C22_5 1_555 1_555
C23_5 C20_5 1_555 1_555
H15_5 C23_5 1_555 1_555
N4_5 C22_5 1_555 1_555
C24_5 C23_5 1_555 1_555
H16_5 C24_5 1_555 1_555
Ag2_3 N2_3 1_555 1_555
Ag4_3 N4_5 1_555 1_555
Ag3_2 N3_5 1_555 1_555
N5_4 Ag1_3 1_555 1_555
N6_3 Ag1_3 1_555 1_555
N7_4 Ag1_3 1_555 1_555
C4_5 C5_5 1_555 1_555
C11_5 C12_5 1_555 1_555
C15_5 C18_5 1_555 1_555
C16_5 C17_5 1_555 1_555
C18_5 C19_5 1_555 1_555
N4_5 C24_5 1_555 1_555
Ag2_3 N1_5 1_555 1_555
N1_5 C1_6 1_555 1_555
C1_6 H1_6 1_555 1_555
C2_6 C1_6 1_555 1_555
H2_6 C2_6 1_555 1_555
C3_6 C2_6 1_555 1_555
C4_6 C3_6 1_555 1_555
H3_6 C4_6 1_555 1_555
C5_6 N1_5 1_555 1_555
H4_6 C5_6 1_555 1_555
C6_6 C3_6 1_555 1_555
S1_7 C6_6 1_555 1_555
C7_6 C6_6 1_555 1_555
C8_6 C7_6 1_555 1_555
C9_6 C8_6 1_555 1_555
H5_6 C9_6 1_555 1_555
C10_6 C9_6 1_555 1_555
H6_6 C10_6 1_555 1_555
N2_4 C10_6 1_555 1_555
C11_6 N2_4 1_555 1_555
H7_6 C11_6 1_555 1_555
C12_6 C8_6 1_555 1_555
H8_6 C12_6 1_555 1_555
N3_6 C13_6 1_555 1_555
C13_6 H9_6 1_555 1_555
C14_6 C13_6 1_555 1_555
H10_6 C14_6 1_555 1_555
C15_6 C14_6 1_555 1_555
C16_6 C15_6 1_555 1_555
H11_6 C16_6 1_555 1_555
C17_6 N3_6 1_555 1_555
H12_6 C17_6 1_555 1_555
C18_6 S1_7 1_555 1_555
C19_6 C7_6 1_555 1_555
C20_6 C19_6 1_555 1_555
C21_6 C20_6 1_555 1_555
H13_6 C21_6 1_555 1_555
C22_6 C21_6 1_555 1_555
H14_6 C22_6 1_555 1_555
C23_6 C20_6 1_555 1_555
H15_6 C23_6 1_555 1_555
N4_6 C22_6 1_555 1_555
C24_6 C23_6 1_555 1_555
H16_6 C24_6 1_555 1_555
Ag2_4 N2_4 1_555 1_555
Ag4 N4_6 1_555 1_555
N5_5 Ag2_3 1_555 1_555
N7_5 Ag2_3 1_555 1_555
C4_6 C5_6 1_555 1_555
C11_6 C12_6 1_555 1_555
C15_6 C18_6 1_555 1_555
C16_6 C17_6 1_555 1_555
C18_6 C19_6 1_555 1_555
N4_6 C24_6 1_555 1_555
C10_7 C9_7 1_555 1_555
H6_7 C10_7 1_555 1_555
N6_3 C10_7 1_555 1_555
C11_7 N6_3 1_555 1_555
H7_7 C11_7 1_555 1_555
H8_7 C12_7 1_555 1_555
C22_7 C21_7 1_555 1_555
H14_7 C22_7 1_555 1_555
H15_7 C23_7 1_555 1_555
N4_7 C22_7 1_555 1_555
C24_7 C23_7 1_555 1_555
H16_7 C24_7 1_555 1_555
Ag3_4 N4_7 1_555 1_555
C11_7 C12_7 1_555 1_555
N4_7 C24_7 1_555 1_555
Ag1_4 N1_6 1_555 1_555
N1_6 C1_7 1_555 1_555
C1_7 H1_7 1_555 1_555
C2_7 C1_7 1_555 1_555
H2_7 C2_7 1_555 1_555
C3_7 C2_7 1_555 1_555
C4_7 C3_7 1_555 1_555
H3_7 C4_7 1_555 1_555
C5_7 N1_6 1_555 1_555
H4_7 C5_7 1_555 1_555
C6_7 C3_7 1_555 1_555
S1_8 C6_7 1_555 1_555
C7_7 C6_7 1_555 1_555
C8_7 C7_7 1_555 1_555
N3_7 C13_7 1_555 1_555
C13_7 H9_7 1_555 1_555
C14_7 C13_7 1_555 1_555
H10_7 C14_7 1_555 1_555
C15_7 C14_7 1_555 1_555
C16_7 C15_7 1_555 1_555
H11_7 C16_7 1_555 1_555
C17_7 N3_7 1_555 1_555
H12_7 C17_7 1_555 1_555
C18_7 S1_8 1_555 1_555
C19_7 C7_7 1_555 1_555
C20_7 C19_7 1_555 1_555
N5_6 Ag1_4 1_555 1_555
N6_4 Ag1_4 1_555 1_555
N7_6 Ag1_4 1_555 1_555
C4_7 C5_7 1_555 1_555
C15_7 C18_7 1_555 1_555
C16_7 C17_7 1_555 1_555
C18_7 C19_7 1_555 1_555
N5_4 C1_8 1_555 1_555
C1_8 H1_8 1_555 1_555
C2_8 C1_8 1_555 1_555
H2_8 C2_8 1_555 1_555
C3_8 C2_8 1_555 1_555
C4_8 C3_8 1_555 1_555
H3_8 C4_8 1_555 1_555
C5_8 N5_4 1_555 1_555
H4_8 C5_8 1_555 1_555
C6_8 C3_8 1_555 1_555
S1_9 C6_8 1_555 1_555
C7_8 C6_8 1_555 1_555
C8_8 C7_8 1_555 1_555
N3_8 C13_8 1_555 1_555
C13_8 H9_8 1_555 1_555
C14_8 C13_8 1_555 1_555
H10_8 C14_8 1_555 1_555
C15_8 C14_8 1_555 1_555
C16_8 C15_8 1_555 1_555
H11_8 C16_8 1_555 1_555
C17_8 N3_8 1_555 1_555
H12_8 C17_8 1_555 1_555
C18_8 S1_9 1_555 1_555
C19_8 C7_8 1_555 1_555
C20_8 C19_8 1_555 1_555
C4_8 C5_8 1_555 1_555
C15_8 C18_8 1_555 1_555
C16_8 C17_8 1_555 1_555
C18_8 C19_8 1_555 1_555
C10_8 C9_8 1_555 1_555
H6_8 C10_8 1_555 1_555
N7_6 C10_8 1_555 1_555
C11_8 N7_6 1_555 1_555
H7_8 C11_8 1_555 1_555
H8_8 C12_8 1_555 1_555
C22_8 C21_8 1_555 1_555
H14_8 C22_8 1_555 1_555
H15_8 C23_8 1_555 1_555
N4_8 C22_8 1_555 1_555
C24_8 C23_8 1_555 1_555
H16_8 C24_8 1_555 1_555
Ag3 N4_8 1_555 1_555
C11_8 C12_8 1_555 1_555
N4_8 C24_8 1_555 1_555
Ag2_2 N1_7 1_555 1_555
N1_7 C1_9 1_555 1_555
C1_9 H1_9 1_555 1_555
C2_9 C1_9 1_555 1_555
H2_9 C2_9 1_555 1_555
C3_9 C2_9 1_555 1_555
C4_9 C3_9 1_555 1_555
H3_9 C4_9 1_555 1_555
C5_9 N1_7 1_555 1_555
H4_9 C5_9 1_555 1_555
C6_9 C3_9 1_555 1_555
S1_10 C6_9 1_555 1_555
C7_9 C6_9 1_555 1_555
C8_9 C7_9 1_555 1_555
C9_9 C8_9 1_555 1_555
H5_9 C9_9 1_555 1_555
C10_9 C9_9 1_555 1_555
H6_9 C10_9 1_555 1_555
N6_2 C10_9 1_555 1_555
C11_9 N6_2 1_555 1_555
H7_9 C11_9 1_555 1_555
C12_9 C8_9 1_555 1_555
H8_9 C12_9 1_555 1_555
N3_9 C13_9 1_555 1_555
C13_9 H9_9 1_555 1_555
C14_9 C13_9 1_555 1_555
H10_9 C14_9 1_555 1_555
C15_9 C14_9 1_555 1_555
C16_9 C15_9 1_555 1_555
H11_9 C16_9 1_555 1_555
C17_9 N3_9 1_555 1_555
H12_9 C17_9 1_555 1_555
C18_9 S1_10 1_555 1_555
C19_9 C7_9 1_555 1_555
C20_9 C19_9 1_555 1_555
C21_9 C20_9 1_555 1_555
H13_9 C21_9 1_555 1_555
C22_9 C21_9 1_555 1_555
H14_9 C22_9 1_555 1_555
C23_9 C20_9 1_555 1_555
H15_9 C23_9 1_555 1_555
N4_9 C22_9 1_555 1_555
C24_9 C23_9 1_555 1_555
H16_9 C24_9 1_555 1_555
Ag4_4 N4_9 1_555 1_555
Ag3_4 N3_9 1_555 1_555
N7_7 Ag2_2 1_555 1_555
C4_9 C5_9 1_555 1_555
C11_9 C12_9 1_555 1_555
C15_9 C18_9 1_555 1_555
C16_9 C17_9 1_555 1_555
C18_9 C19_9 1_555 1_555
N4_9 C24_9 1_555 1_555
N5_2 C1_10 1_555 1_555
C1_10 H1_10 1_555 1_555
C2_10 C1_10 1_555 1_555
H2_10 C2_10 1_555 1_555
C3_10 C2_10 1_555 1_555
C4_10 C3_10 1_555 1_555
H3_10 C4_10 1_555 1_555
C5_10 N5_2 1_555 1_555
H4_10 C5_10 1_555 1_555
C6_10 C3_10 1_555 1_555
S1_11 C6_10 1_555 1_555
C7_10 C6_10 1_555 1_555
C8_10 C7_10 1_555 1_555
C9_10 C8_10 1_555 1_555
H5_10 C9_10 1_555 1_555
C10_10 C9_10 1_555 1_555
H6_10 C10_10 1_555 1_555
N7 C10_10 1_555 1_555
C11_10 N7 1_555 1_555
H7_10 C11_10 1_555 1_555
C12_10 C8_10 1_555 1_555
H8_10 C12_10 1_555 1_555
N3_10 C13_10 1_555 1_555
C13_10 H9_10 1_555 1_555
C14_10 C13_10 1_555 1_555
H10_10 C14_10 1_555 1_555
C15_10 C14_10 1_555 1_555
C16_10 C15_10 1_555 1_555
H11_10 C16_10 1_555 1_555
C17_10 N3_10 1_555 1_555
H12_10 C17_10 1_555 1_555
C18_10 S1_11 1_555 1_555
C19_10 C7_10 1_555 1_555
C20_10 C19_10 1_555 1_555
C21_10 C20_10 1_555 1_555
H13_10 C21_10 1_555 1_555
C22_10 C21_10 1_555 1_555
H14_10 C22_10 1_555 1_555
C23_10 C20_10 1_555 1_555
H15_10 C23_10 1_555 1_555
N4_10 C22_10 1_555 1_555
C24_10 C23_10 1_555 1_555
H16_10 C24_10 1_555 1_555
Ag4 N4_10 1_555 1_555
Ag3 N3_10 1_555 1_555
C4_10 C5_10 1_555 1_555
C11_10 C12_10 1_555 1_555
C15_10 C18_10 1_555 1_555
C16_10 C17_10 1_555 1_555
C18_10 C19_10 1_555 1_555
N4_10 C24_10 1_555 1_555
N5_3 C1_11 1_555 1_555
C1_11 H1_11 1_555 1_555
C2_11 C1_11 1_555 1_555
H2_11 C2_11 1_555 1_555
C3_11 C2_11 1_555 1_555
C4_11 C3_11 1_555 1_555
H3_11 C4_11 1_555 1_555
C5_11 N5_3 1_555 1_555
H4_11 C5_11 1_555 1_555
C6_11 C3_11 1_555 1_555
S1_12 C6_11 1_555 1_555
C7_11 C6_11 1_555 1_555
C8_11 C7_11 1_555 1_555
C9_11 C8_11 1_555 1_555
H5_11 C9_11 1_555 1_555
C10_11 C9_11 1_555 1_555
H6_11 C10_11 1_555 1_555
N7_7 C10_11 1_555 1_555
C11_11 N7_7 1_555 1_555
H7_11 C11_11 1_555 1_555
C12_11 C8_11 1_555 1_555
H8_11 C12_11 1_555 1_555
C4_11 C5_11 1_555 1_555
C11_11 C12_11 1_555 1_555
N3_11 C13_11 1_555 1_555
C13_11 H9_11 1_555 1_555
C14_11 C13_11 1_555 1_555
H10_11 C14_11 1_555 1_555
C15_11 C14_11 1_555 1_555
C16_11 C15_11 1_555 1_555
H11_11 C16_11 1_555 1_555
C17_11 N3_11 1_555 1_555
H12_11 C17_11 1_555 1_555
C18_11 S1_13 1_555 1_555
C20_11 C19_11 1_555 1_555
C21_11 C20_11 1_555 1_555
H13_11 C21_11 1_555 1_555
C22_11 C21_11 1_555 1_555
H14_11 C22_11 1_555 1_555
C23_11 C20_11 1_555 1_555
H15_11 C23_11 1_555 1_555
N4_11 C22_11 1_555 1_555
C24_11 C23_11 1_555 1_555
H16_11 C24_11 1_555 1_555
Ag3_4 N4_11 1_555 1_555
Ag4_4 N3_11 1_555 1_555
C15_11 C18_11 1_555 1_555
C16_11 C17_11 1_555 1_555
C18_11 C19_11 1_555 1_555
N4_11 C24_11 1_555 1_555
N5_7 C1_12 1_555 1_555
C1_12 H1_12 1_555 1_555
C2_12 C1_12 1_555 1_555
H2_12 C2_12 1_555 1_555
C3_12 C2_12 1_555 1_555
C4_12 C3_12 1_555 1_555
H3_12 C4_12 1_555 1_555
C5_12 N5_7 1_555 1_555
H4_12 C5_12 1_555 1_555
C6_12 C3_12 1_555 1_555
S1_14 C6_12 1_555 1_555
C7_12 C6_12 1_555 1_555
C8_12 C7_12 1_555 1_555
N3_12 C13_12 1_555 1_555
C13_12 H9_12 1_555 1_555
C14_12 C13_12 1_555 1_555
H10_12 C14_12 1_555 1_555
C15_12 C14_12 1_555 1_555
C16_12 C15_12 1_555 1_555
H11_12 C16_12 1_555 1_555
C17_12 N3_12 1_555 1_555
H12_12 C17_12 1_555 1_555
C18_12 S1_14 1_555 1_555
C19_12 C7_12 1_555 1_555
C20_12 C19_12 1_555 1_555
Ag3_2 N3_12 1_555 1_555
C4_12 C5_12 1_555 1_555
C15_12 C18_12 1_555 1_555
C16_12 C17_12 1_555 1_555
C18_12 C19_12 1_555 1_555
C10_12 C9_12 1_555 1_555
H6_12 C10_12 1_555 1_555
N7_2 C10_12 1_555 1_555
C11_12 N7_2 1_555 1_555
H7_12 C11_12 1_555 1_555
H8_12 C12_12 1_555 1_555
C22_12 C21_12 1_555 1_555
H14_12 C22_12 1_555 1_555
H15_12 C23_12 1_555 1_555
N4_12 C22_12 1_555 1_555
C24_12 C23_12 1_555 1_555
H16_12 C24_12 1_555 1_555
Ag4_2 N4_12 1_555 1_555
C11_12 C12_12 1_555 1_555
N4_12 C24_12 1_555 1_555
N3_13 C13_13 1_555 1_555
C13_13 H9_13 1_555 1_555
C14_13 C13_13 1_555 1_555
H10_13 C14_13 1_555 1_555
C15_13 C14_13 1_555 1_555
C16_13 C15_13 1_555 1_555
H11_13 C16_13 1_555 1_555
C17_13 N3_13 1_555 1_555
H12_13 C17_13 1_555 1_555
C18_13 S1_15 1_555 1_555
C20_13 C19_13 1_555 1_555
C21_13 C20_13 1_555 1_555
H13_13 C21_13 1_555 1_555
C22_13 C21_13 1_555 1_555
H14_13 C22_13 1_555 1_555
C23_13 C20_13 1_555 1_555
H15_13 C23_13 1_555 1_555
N4_13 C22_13 1_555 1_555
C24_13 C23_13 1_555 1_555
H16_13 C24_13 1_555 1_555
Ag4_2 N4_13 1_555 1_555
Ag3_3 N3_13 1_555 1_555
C15_13 C18_13 1_555 1_555
C16_13 C17_13 1_555 1_555
C18_13 C19_13 1_555 1_555
N4_13 C24_13 1_555 1_555
Ag2_4 N1_8 1_555 1_555
N1_8 C1_13 1_555 1_555
C1_13 H1_13 1_555 1_555
C2_13 C1_13 1_555 1_555
H2_13 C2_13 1_555 1_555
C3_13 C2_13 1_555 1_555
C4_13 C3_13 1_555 1_555
H3_13 C4_13 1_555 1_555
C5_13 N1_8 1_555 1_555
H4_13 C5_13 1_555 1_555
C6_13 C3_13 1_555 1_555
S1_16 C6_13 1_555 1_555
C7_13 C6_13 1_555 1_555
C8_13 C7_13 1_555 1_555
C9_13 C8_13 1_555 1_555
H5_13 C9_13 1_555 1_555
C10_13 C9_13 1_555 1_555
H6_13 C10_13 1_555 1_555
N6_4 C10_13 1_555 1_555
C11_13 N6_4 1_555 1_555
H7_13 C11_13 1_555 1_555
C12_13 C8_13 1_555 1_555
H8_13 C12_13 1_555 1_555
N5_8 Ag2_4 1_555 1_555
N7_8 Ag2_4 1_555 1_555
C4_13 C5_13 1_555 1_555
C11_13 C12_13 1_555 1_555
N3_14 C13_14 1_555 1_555
C13_14 H9_14 1_555 1_555
C14_14 C13_14 1_555 1_555
H10_14 C14_14 1_555 1_555
C15_14 C14_14 1_555 1_555
C16_14 C15_14 1_555 1_555
H11_14 C16_14 1_555 1_555
C17_14 N3_14 1_555 1_555
H12_14 C17_14 1_555 1_555
C18_14 S1_17 1_555 1_555
C20_14 C19_14 1_555 1_555
C21_14 C20_14 1_555 1_555
H13_14 C21_14 1_555 1_555
C22_14 C21_14 1_555 1_555
H14_14 C22_14 1_555 1_555
C23_14 C20_14 1_555 1_555
H15_14 C23_14 1_555 1_555
N4_14 C22_14 1_555 1_555
C24_14 C23_14 1_555 1_555
H16_14 C24_14 1_555 1_555
Ag3_2 N4_14 1_555 1_555
Ag4_3 N3_14 1_555 1_555
C15_14 C18_14 1_555 1_555
C16_14 C17_14 1_555 1_555
C18_14 C19_14 1_555 1_555
N4_14 C24_14 1_555 1_555
N5_5 C1_14 1_555 1_555
C1_14 H1_14 1_555 1_555
C2_14 C1_14 1_555 1_555
H2_14 C2_14 1_555 1_555
C3_14 C2_14 1_555 1_555
C4_14 C3_14 1_555 1_555
H3_14 C4_14 1_555 1_555
C5_14 N5_5 1_555 1_555
H4_14 C5_14 1_555 1_555
C6_14 C3_14 1_555 1_555
S1_18 C6_14 1_555 1_555
C7_14 C6_14 1_555 1_555
C8_14 C7_14 1_555 1_555
C9_14 C8_14 1_555 1_555
H5_14 C9_14 1_555 1_555
C10_14 C9_14 1_555 1_555
H6_14 C10_14 1_555 1_555
N7_4 C10_14 1_555 1_555
C11_14 N7_4 1_555 1_555
H7_14 C11_14 1_555 1_555
C12_14 C8_14 1_555 1_555
H8_14 C12_14 1_555 1_555
C4_14 C5_14 1_555 1_555
C11_14 C12_14 1_555 1_555
N5_6 C1_15 1_555 1_555
C1_15 H1_15 1_555 1_555
C2_15 C1_15 1_555 1_555
H2_15 C2_15 1_555 1_555
C3_15 C2_15 1_555 1_555
C4_15 C3_15 1_555 1_555
H3_15 C4_15 1_555 1_555
C5_15 N5_6 1_555 1_555
H4_15 C5_15 1_555 1_555
C6_15 C3_15 1_555 1_555
S1_19 C6_15 1_555 1_555
C7_15 C6_15 1_555 1_555
C8_15 C7_15 1_555 1_555
C9_15 C8_15 1_555 1_555
H5_15 C9_15 1_555 1_555
C10_15 C9_15 1_555 1_555
H6_15 C10_15 1_555 1_555
N7_8 C10_15 1_555 1_555
C11_15 N7_8 1_555 1_555
H7_15 C11_15 1_555 1_555
C12_15 C8_15 1_555 1_555
H8_15 C12_15 1_555 1_555
N3_15 C13_15 1_555 1_555
C13_15 H9_15 1_555 1_555
C14_15 C13_15 1_555 1_555
H10_15 C14_15 1_555 1_555
C15_15 C14_15 1_555 1_555
C16_15 C15_15 1_555 1_555
H11_15 C16_15 1_555 1_555
C17_15 N3_15 1_555 1_555
H12_15 C17_15 1_555 1_555
C18_15 S1_19 1_555 1_555
C19_15 C7_15 1_555 1_555
C20_15 C19_15 1_555 1_555
C21_15 C20_15 1_555 1_555
H13_15 C21_15 1_555 1_555
C22_15 C21_15 1_555 1_555
H14_15 C22_15 1_555 1_555
C23_15 C20_15 1_555 1_555
H15_15 C23_15 1_555 1_555
N4_15 C22_15 1_555 1_555
C24_15 C23_15 1_555 1_555
H16_15 C24_15 1_555 1_555
Ag3_3 N4_15 1_555 1_555
Ag4_2 N3_15 1_555 1_555
C4_15 C5_15 1_555 1_555
C11_15 C12_15 1_555 1_555
C15_15 C18_15 1_555 1_555
C16_15 C17_15 1_555 1_555
C18_15 C19_15 1_555 1_555
N4_15 C24_15 1_555 1_555
N5_8 C1_16 1_555 1_555
C1_16 H1_16 1_555 1_555
C2_16 C1_16 1_555 1_555
H2_16 C2_16 1_555 1_555
C3_16 C2_16 1_555 1_555
C4_16 C3_16 1_555 1_555
H3_16 C4_16 1_555 1_555
C5_16 N5_8 1_555 1_555
H4_16 C5_16 1_555 1_555
C6_16 C3_16 1_555 1_555
S1_20 C6_16 1_555 1_555
C7_16 C6_16 1_555 1_555
C8_16 C7_16 1_555 1_555
C9_16 C8_16 1_555 1_555
H5_16 C9_16 1_555 1_555
C10_16 C9_16 1_555 1_555
H6_16 C10_16 1_555 1_555
N7_5 C10_16 1_555 1_555
C11_16 N7_5 1_555 1_555
H7_16 C11_16 1_555 1_555
C12_16 C8_16 1_555 1_555
H8_16 C12_16 1_555 1_555
N3_16 C13_16 1_555 1_555
C13_16 H9_16 1_555 1_555
C14_16 C13_16 1_555 1_555
H10_16 C14_16 1_555 1_555
C15_16 C14_16 1_555 1_555
C16_16 C15_16 1_555 1_555
H11_16 C16_16 1_555 1_555
C17_16 N3_16 1_555 1_555
H12_16 C17_16 1_555 1_555
C18_16 S1_20 1_555 1_555
C19_16 C7_16 1_555 1_555
C20_16 C19_16 1_555 1_555
C21_16 C20_16 1_555 1_555
H13_16 C21_16 1_555 1_555
C22_16 C21_16 1_555 1_555
H14_16 C22_16 1_555 1_555
C23_16 C20_16 1_555 1_555
H15_16 C23_16 1_555 1_555
N4_16 C22_16 1_555 1_555
C24_16 C23_16 1_555 1_555
H16_16 C24_16 1_555 1_555
Ag4_4 N4_16 1_555 1_555
C4_16 C5_16 1_555 1_555
C11_16 C12_16 1_555 1_555
C15_16 C18_16 1_555 1_555
C16_16 C17_16 1_555 1_555
C18_16 C19_16 1_555 1_555
N4_16 C24_16 1_555 1_555
P2 F7 1_555 1_555
F8 P2 1_555 1_555
F9 P2 1_555 1_555
F10 P2 1_555 1_555
F11 P2 1_555 1_555
F12 P2 1_555 1_555
P2_2 F7_2 1_555 1_555
F9_2 P2_2 1_555 1_555
P2_3 F7_3 1_555 1_555
F11_2 P2_3 1_555 1_555
P2_4 F7_4 1_555 1_555
F8_2 P2_4 1_555 1_555
P2_5 F7_5 1_555 1_555
F12_2 P2_5 1_555 1_555
F9_3 P2_6 1_555 1_555
F10_2 P2_6 1_555 1_555
F10_3 P2_7 1_555 1_555
F11_3 P2_7 1_555 1_555
F8_3 P2_8 1_555 1_555
F10_4 P2_8 1_555 1_555
F10_5 P2_9 1_555 1_555
F12_3 P2_9 1_555 1_555
P2_10 F7_6 1_555 1_555
F8_4 P2_10 1_555 1_555
F10_6 P2_10 1_555 1_555
F12_4 P2_10 1_555 1_555
P2_11 F7_7 1_555 1_555
F9_4 P2_11 1_555 1_555
F10_7 P2_11 1_555 1_555
F11_4 P2_11 1_555 1_555
P2_12 F7_8 1_555 1_555
F8_5 P2_12 1_555 1_555
F9_5 P2_12 1_555 1_555
F10_8 P2_12 1_555 1_555
F11_5 P2_12 1_555 1_555
F12_5 P2_12 1_555 1_555
P2_13 F7_9 1_555 1_555
F8_6 P2_13 1_555 1_555
F9_6 P2_13 1_555 1_555
F10_9 P2_13 1_555 1_555
F11_6 P2_13 1_555 1_555
F12_6 P2_13 1_555 1_555
F8_7 P2_14 1_555 1_555
F9_7 P2_14 1_555 1_555
F10_10 P2_14 1_555 1_555
F10_11 P2_15 1_555 1_555
F11_7 P2_15 1_555 1_555
F12_7 P2_15 1_555 1_555
P2_16 F7_10 1_555 1_555
F8_8 P2_16 1_555 1_555
F9_8 P2_16 1_555 1_555
P2_17 F7_11 1_555 1_555
F11_8 P2_17 1_555 1_555
F12_8 P2_17 1_555 1_555
P2_18 F7_12 1_555 1_555
F8_9 P2_18 1_555 1_555
F9_9 P2_18 1_555 1_555
F10_12 P2_18 1_555 1_555
F11_9 P2_18 1_555 1_555
F12_9 P2_18 1_555 1_555
P2_19 F7_13 1_555 1_555
F8_10 P2_19 1_555 1_555
F9_10 P2_19 1_555 1_555
F10_13 P2_19 1_555 1_555
F11_10 P2_19 1_555 1_555
F12_10 P2_19 1_555 1_555

#END
