
###############################################################################
#
# This file contains modified crystal structure data generated from the
# MOF subset of the Cambridge Structural Database (CSD) v543 
# hosted by the Cambridge Crystallographic Data Centre (CCDC).
#
# This work is licensed under the Creative Commons
# Attribution-NonCommercial-ShareAlike 4.0 International License.
# To view a copy of this license, visit
# http://creativecommons.org/licenses/by-nc-sa/4.0/
# or send a letter to
# Creative Commons, PO Box 1866, Mountain View, CA 94042, USA.
#
# CIF created using the CSD Python API on 29 September 2022
# The structure has been converted into the P1 space group
# The structure has a 3D framework
# The original CSD entry AVIVOQ is in the tetragonal crystal system
# The framework has been calculated to contain at least 10.0% void space
# The void calculation uses a probe of radius 1.32A, grid spacing 0.4
# The framework is charged, counterions have been retained in the structure
#
###############################################################################

data_AVIVOQ
_chemical_formula_moiety         '(C384 H256 Ag5 N64 S20 5+)n'
_symmetry_cell_setting           triclinic
_symmetry_space_group_name_H-M   'P 1'
_symmetry_Int_Tables_number      1
_space_group_name_Hall           'P 1'
loop_
_symmetry_equiv_pos_site_id
_symmetry_equiv_pos_as_xyz
1 x,y,z
_cell_length_a                   23.166(5)
_cell_length_b                   23.166(5)
_cell_length_c                   34.931(5)
_cell_angle_alpha                90
_cell_angle_beta                 90
_cell_angle_gamma                90
_cell_volume                     18746.2
loop_
_atom_site_label
_atom_site_type_symbol
_atom_site_fract_x
_atom_site_fract_y
_atom_site_fract_z
Ag1 Ag 0.330503(13) 0.080503(13) 0.6250
N1 N 0.23046(15) 0.08597(16) 0.63974(11)
C1 C 0.2134(2) 0.1192(2) 0.66856(14)
H1 H 0.2411 0.1411 0.6813
C2 C 0.1567(2) 0.1232(2) 0.68069(15)
H2 H 0.1468 0.1480 0.7006
C3 C 0.11487(16) 0.09006(19) 0.66313(12)
C4 C 0.13302(19) 0.0556(2) 0.63295(13)
H3 H 0.1066 0.0326 0.6199
C5 C 0.1903(2) 0.0556(2) 0.62231(14)
H4 H 0.2012 0.0328 0.6016
C6 C 0.05376(17) 0.09157(18) 0.67541(12)
S1 S 0.0000 0.08796(7) 0.64076(5)
C7 C 0.03083(16) 0.09648(18) 0.71143(11)
C8 C 0.06440(17) 0.09457(19) 0.74782(11)
C9 C 0.0850(2) 0.0445(2) 0.76174(14)
H5 H 0.0788 0.0102 0.7486
C10 C 0.1159(2) 0.0446(2) 0.79628(15)
H6 H 0.1314 0.0098 0.8046
N2 N 0.12440(15) 0.09043(14) 0.81781(10)
C11 C 0.1036(2) 0.1380(2) 0.80423(14)
H7 H 0.1089 0.1714 0.8185
C12 C 0.0739(3) 0.1428(2) 0.76959(15)
H8 H 0.0606 0.1786 0.7614
Ag2 Ag 0.169497(13) 0.080503(13) 0.8750
N6 N 0.34043(14) 0.12560(15) 0.56781(10)
N7 N 0.37560(15) 0.09043(14) 0.68219(10)
N5 N 0.33597(16) 0.98046(15) 0.61026(11)
S1_2 S 1.0000 0.08796(7) 0.64076(5)
N3 N 0.76954(15) 0.08597(16) 0.63974(11)
C13 C 0.7866(2) 0.1192(2) 0.66856(14)
H9 H 0.7589 0.1411 0.6813
C14 C 0.8433(2) 0.1232(2) 0.68069(15)
H10 H 0.8532 0.1480 0.7006
C15 C 0.88513(16) 0.09006(19) 0.66313(12)
C16 C 0.86698(19) 0.0556(2) 0.63295(13)
H11 H 0.8934 0.0326 0.6199
C17 C 0.8097(2) 0.0556(2) 0.62231(14)
H12 H 0.7988 0.0328 0.6016
C18 C 0.94624(17) 0.09157(18) 0.67541(12)
C19 C 0.96917(16) 0.09648(18) 0.71143(11)
C20 C 0.93560(17) 0.09457(19) 0.74782(11)
C21 C 0.9150(2) 0.0445(2) 0.76174(14)
H13 H 0.9212 0.0102 0.7486
C22 C 0.8841(2) 0.0446(2) 0.79628(15)
H14 H 0.8686 0.0098 0.8046
N4 N 0.87560(15) 0.09043(14) 0.81781(10)
C23 C 0.8964(2) 0.1380(2) 0.80423(14)
H15 H 0.8911 0.1714 0.8185
C24 C 0.9261(3) 0.1428(2) 0.76959(15)
H16 H 0.9394 0.1786 0.7614
Ag3 Ag 0.669497(13) 0.080503(13) 0.6250
Ag4 Ag 0.830503(13) 0.080503(13) 0.8750
C1_2 C 0.3692(2) 0.9634(2) 0.58144(14)
H1_2 H 0.3911 0.9911 0.5687
C2_2 C 0.3732(2) 0.9067(2) 0.56931(15)
H2_2 H 0.3980 0.8968 0.5494
C3_2 C 0.34006(19) 0.86487(16) 0.58687(12)
C4_2 C 0.3056(2) 0.88302(19) 0.61705(13)
H3_2 H 0.2826 0.8566 0.6301
C5_2 C 0.3056(2) 0.9403(2) 0.62769(14)
H4_2 H 0.2828 0.9512 0.6484
C6_2 C 0.34157(18) 0.80376(17) 0.57459(12)
S1_3 S 0.33796(7) 0.7500 0.60924(5)
C7_2 C 0.34648(18) 0.78083(16) 0.53857(11)
C8_2 C 0.34457(19) 0.81440(17) 0.50218(11)
C9_2 C 0.2945(2) 0.8350(2) 0.48826(14)
H5_2 H 0.2602 0.8288 0.5014
C10_2 C 0.2946(2) 0.8659(2) 0.45372(15)
H6_2 H 0.2598 0.8814 0.4454
N2_2 N 0.34043(14) 0.87440(15) 0.43219(10)
C11_2 C 0.3880(2) 0.8536(2) 0.44577(14)
H7_2 H 0.4214 0.8589 0.4315
C12_2 C 0.3928(2) 0.8239(3) 0.48041(15)
H8_2 H 0.4286 0.8106 0.4886
N3_2 N 0.33597(16) 0.51954(15) 0.61026(11)
C13_2 C 0.3692(2) 0.5366(2) 0.58144(14)
H9_2 H 0.3911 0.5089 0.5687
C14_2 C 0.3732(2) 0.5933(2) 0.56931(15)
H10_2 H 0.3980 0.6032 0.5494
C15_2 C 0.34006(19) 0.63513(16) 0.58687(12)
C16_2 C 0.3056(2) 0.61698(19) 0.61705(13)
H11_2 H 0.2826 0.6434 0.6301
C17_2 C 0.3056(2) 0.5597(2) 0.62769(14)
H12_2 H 0.2828 0.5488 0.6484
C18_2 C 0.34157(18) 0.69624(17) 0.57459(12)
C19_2 C 0.34648(18) 0.71917(16) 0.53857(11)
C20_2 C 0.34457(19) 0.68560(17) 0.50218(11)
C21_2 C 0.2945(2) 0.6650(2) 0.48826(14)
H13_2 H 0.2602 0.6712 0.5014
C22_2 C 0.2946(2) 0.6341(2) 0.45372(15)
H14_2 H 0.2598 0.6186 0.4454
N4_2 N 0.34043(14) 0.62560(15) 0.43219(10)
C23_2 C 0.3880(2) 0.6464(2) 0.44577(14)
H15_2 H 0.4214 0.6411 0.4315
C24_2 C 0.3928(2) 0.6761(3) 0.48041(15)
H16_2 H 0.4286 0.6894 0.4886
Ag2_2 Ag 0.330503(13) 0.919497(13) 0.3750
Ag3_2 Ag 0.330503(13) 0.419497(13) 0.6250
Ag4_2 Ag 0.330503(13) 0.580503(13) 0.3750
N1_2 N 0.33597(16) 0.01954(15) 0.38974(11)
C1_3 C 0.3692(2) 0.0366(2) 0.41856(14)
H1_3 H 0.3911 0.0089 0.4313
C2_3 C 0.3732(2) 0.0933(2) 0.43069(15)
H2_3 H 0.3980 0.1032 0.4506
C3_3 C 0.34006(19) 0.13513(16) 0.41313(12)
C4_3 C 0.3056(2) 0.11698(19) 0.38295(13)
H3_3 H 0.2826 0.1434 0.3699
C5_3 C 0.3056(2) 0.0597(2) 0.37231(14)
H4_3 H 0.2828 0.0488 0.3516
C6_3 C 0.34157(18) 0.19624(17) 0.42541(12)
S1_4 S 0.33796(7) 0.2500 0.39076(5)
C7_3 C 0.34648(18) 0.21917(16) 0.46143(11)
C8_3 C 0.34457(19) 0.18560(17) 0.49782(11)
C9_3 C 0.2945(2) 0.1650(2) 0.51174(14)
H5_3 H 0.2602 0.1712 0.4986
C10_3 C 0.2946(2) 0.1341(2) 0.54628(15)
H6_3 H 0.2598 0.1186 0.5546
C11_3 C 0.3880(2) 0.1464(2) 0.55423(14)
H7_3 H 0.4214 0.1411 0.5685
C12_3 C 0.3928(2) 0.1761(3) 0.51959(15)
H8_3 H 0.4286 0.1894 0.5114
N3_3 N 0.33597(16) 0.48046(15) 0.38974(11)
C13_3 C 0.3692(2) 0.4634(2) 0.41856(14)
H9_3 H 0.3911 0.4911 0.4313
C14_3 C 0.3732(2) 0.4067(2) 0.43069(15)
H10_3 H 0.3980 0.3968 0.4506
C15_3 C 0.34006(19) 0.36487(16) 0.41313(12)
C16_3 C 0.3056(2) 0.38302(19) 0.38295(13)
H11_3 H 0.2826 0.3566 0.3699
C17_3 C 0.3056(2) 0.4403(2) 0.37231(14)
H12_3 H 0.2828 0.4512 0.3516
C18_3 C 0.34157(18) 0.30376(17) 0.42541(12)
C19_3 C 0.34648(18) 0.28083(16) 0.46143(11)
C20_3 C 0.34457(19) 0.31440(17) 0.49782(11)
C21_3 C 0.2945(2) 0.3350(2) 0.51174(14)
H13_3 H 0.2602 0.3288 0.4986
C22_3 C 0.2946(2) 0.3659(2) 0.54628(15)
H14_3 H 0.2598 0.3814 0.5546
N4_3 N 0.34043(14) 0.37440(15) 0.56781(10)
C23_3 C 0.3880(2) 0.3536(2) 0.55423(14)
H15_3 H 0.4214 0.3589 0.5685
C24_3 C 0.3928(2) 0.3239(3) 0.51959(15)
H16_3 H 0.4286 0.3106 0.5114
N5_2 N 0.23046(15) 0.91403(16) 0.36026(11)
N6_2 N 0.37560(15) 0.90957(14) 0.31781(10)
N5_3 N 0.26954(15) 0.08597(16) 0.86026(11)
N7_2 N 0.15957(14) 0.12560(15) 0.93219(10)
C9_4 C 0.2055(2) 0.8350(2) 0.01174(14)
C10_4 C 0.2054(2) 0.8659(2) 0.04628(15)
H6_4 H 0.2402 0.8814 0.0546
N2_3 N 0.15957(14) 0.87440(15) 0.06781(10)
C11_4 C 0.1120(2) 0.8536(2) 0.05423(14)
H7_4 H 0.0786 0.8589 0.0685
C12_4 C 0.1072(2) 0.8239(3) 0.01959(15)
H8_4 H 0.0714 0.8106 0.0114
C21_4 C 0.2055(2) 0.6650(2) 0.01174(14)
C22_4 C 0.2054(2) 0.6341(2) 0.04628(15)
H14_4 H 0.2402 0.6186 0.0546
N4_4 N 0.15957(14) 0.62560(15) 0.06781(10)
C23_4 C 0.1120(2) 0.6464(2) 0.05423(14)
H15_4 H 0.0786 0.6411 0.0685
C24_4 C 0.1072(2) 0.6761(3) 0.01959(15)
H16_4 H 0.0714 0.6894 0.0114
Ag2_3 Ag 0.169497(13) 0.919497(13) 0.1250
Ag4_3 Ag 0.169497(13) 0.580503(13) 0.1250
N1_3 N 0.16403(16) 0.98046(15) 0.88974(11)
C1_4 C 0.1308(2) 0.9634(2) 0.91856(14)
H1_4 H 0.1089 0.9911 0.9313
C2_4 C 0.1268(2) 0.9067(2) 0.93069(15)
H2_4 H 0.1020 0.8968 0.9506
C3_4 C 0.15994(19) 0.86487(16) 0.91313(12)
C4_4 C 0.1944(2) 0.88302(19) 0.88295(13)
H3_4 H 0.2174 0.8566 0.8699
C5_4 C 0.1944(2) 0.9403(2) 0.87231(14)
H4_4 H 0.2172 0.9512 0.8516
C6_4 C 0.15843(18) 0.80376(17) 0.92541(12)
S1_5 S 0.16204(7) 0.7500 0.89076(5)
C7_4 C 0.15352(18) 0.78083(16) 0.96143(11)
C8_4 C 0.15543(19) 0.81440(17) 0.99782(11)
H5_4 H 0.2398 0.8288 0.9986
N3_4 N 0.16403(16) 0.51954(15) 0.88974(11)
C13_4 C 0.1308(2) 0.5366(2) 0.91856(14)
H9_4 H 0.1089 0.5089 0.9313
C14_4 C 0.1268(2) 0.5933(2) 0.93069(15)
H10_4 H 0.1020 0.6032 0.9506
C15_4 C 0.15994(19) 0.63513(16) 0.91313(12)
C16_4 C 0.1944(2) 0.61698(19) 0.88295(13)
H11_4 H 0.2174 0.6434 0.8699
C17_4 C 0.1944(2) 0.5597(2) 0.87231(14)
H12_4 H 0.2172 0.5488 0.8516
C18_4 C 0.15843(18) 0.69624(17) 0.92541(12)
C19_4 C 0.15352(18) 0.71917(16) 0.96143(11)
C20_4 C 0.15543(19) 0.68560(17) 0.99782(11)
H13_4 H 0.2398 0.6712 0.9986
Ag3_3 Ag 0.169497(13) 0.419497(13) 0.8750
Ag1_2 Ag 0.830503(13) 0.580503(13) 0.1250
N1_4 N 0.73046(15) 0.58597(16) 0.13974(11)
C1_5 C 0.7134(2) 0.6192(2) 0.16856(14)
H1_5 H 0.7411 0.6411 0.1813
C2_5 C 0.6567(2) 0.6232(2) 0.18069(15)
H2_5 H 0.6468 0.6480 0.2006
C3_5 C 0.61487(16) 0.59006(19) 0.16313(12)
C4_5 C 0.63302(19) 0.5556(2) 0.13295(13)
H3_5 H 0.6066 0.5326 0.1199
C5_5 C 0.6903(2) 0.5556(2) 0.12231(14)
H4_5 H 0.7012 0.5328 0.1016
C6_5 C 0.55376(17) 0.59157(18) 0.17541(12)
S1_6 S 0.5000 0.58796(7) 0.14076(5)
C7_5 C 0.53083(16) 0.59648(18) 0.21143(11)
C8_5 C 0.56440(17) 0.59457(19) 0.24782(11)
C9_5 C 0.5850(2) 0.5445(2) 0.26174(14)
H5_5 H 0.5788 0.5102 0.2486
C10_5 C 0.6159(2) 0.5446(2) 0.29628(15)
H6_5 H 0.6314 0.5098 0.3046
N2_4 N 0.62440(15) 0.59043(14) 0.31781(10)
C11_5 C 0.6036(2) 0.6380(2) 0.30423(14)
H7_5 H 0.6089 0.6714 0.3185
C12_5 C 0.5739(3) 0.6428(2) 0.26959(15)
H8_5 H 0.5606 0.6786 0.2614
N3_5 N 0.26954(15) 0.58597(16) 0.13974(11)
C13_5 C 0.2866(2) 0.6192(2) 0.16856(14)
H9_5 H 0.2589 0.6411 0.1813
C14_5 C 0.3433(2) 0.6232(2) 0.18069(15)
H10_5 H 0.3532 0.6480 0.2006
C15_5 C 0.38513(16) 0.59006(19) 0.16313(12)
C16_5 C 0.36698(19) 0.5556(2) 0.13295(13)
H11_5 H 0.3934 0.5326 0.1199
C17_5 C 0.3097(2) 0.5556(2) 0.12231(14)
H12_5 H 0.2988 0.5328 0.1016
C18_5 C 0.44624(17) 0.59157(18) 0.17541(12)
C19_5 C 0.46917(16) 0.59648(18) 0.21143(11)
C20_5 C 0.43560(17) 0.59457(19) 0.24782(11)
C21_5 C 0.4150(2) 0.5445(2) 0.26174(14)
H13_5 H 0.4212 0.5102 0.2486
C22_5 C 0.3841(2) 0.5446(2) 0.29628(15)
H14_5 H 0.3686 0.5098 0.3046
N4_5 N 0.37560(15) 0.59043(14) 0.31781(10)
C23_5 C 0.3964(2) 0.6380(2) 0.30423(14)
H15_5 H 0.3911 0.6714 0.3185
C24_5 C 0.4261(3) 0.6428(2) 0.26959(15)
H16_5 H 0.4394 0.6786 0.2614
Ag2_4 Ag 0.669497(13) 0.580503(13) 0.3750
N5_4 N 0.83597(16) 0.48046(15) 0.11026(11)
N6_3 N 0.84043(14) 0.62560(15) 0.06781(10)
N7_3 N 0.87560(15) 0.59043(14) 0.18219(10)
C1_6 C 0.8692(2) 0.4634(2) 0.08144(14)
H1_6 H 0.8911 0.4911 0.0687
C2_6 C 0.8732(2) 0.4067(2) 0.06931(15)
H2_6 H 0.8980 0.3968 0.0494
C3_6 C 0.84006(19) 0.36487(16) 0.08687(12)
C4_6 C 0.8056(2) 0.38302(19) 0.11705(13)
H3_6 H 0.7826 0.3566 0.1301
C5_6 C 0.8056(2) 0.4403(2) 0.12769(14)
H4_6 H 0.7828 0.4512 0.1484
C6_6 C 0.84157(18) 0.30376(17) 0.07459(12)
S1_7 S 0.83796(7) 0.2500 0.10924(5)
C7_6 C 0.84648(18) 0.28083(16) 0.03857(11)
C8_6 C 0.84457(19) 0.31440(17) 0.00218(11)
H5_6 H 0.7602 0.3288 0.0014
N3_6 N 0.83597(16) 0.01954(15) 0.11026(11)
C13_6 C 0.8692(2) 0.0366(2) 0.08144(14)
H9_6 H 0.8911 0.0089 0.0687
C14_6 C 0.8732(2) 0.0933(2) 0.06931(15)
H10_6 H 0.8980 0.1032 0.0494
C15_6 C 0.84006(19) 0.13513(16) 0.08687(12)
C16_6 C 0.8056(2) 0.11698(19) 0.11705(13)
H11_6 H 0.7826 0.1434 0.1301
C17_6 C 0.8056(2) 0.0597(2) 0.12769(14)
H12_6 H 0.7828 0.0488 0.1484
C18_6 C 0.84157(18) 0.19624(17) 0.07459(12)
C19_6 C 0.84648(18) 0.21917(16) 0.03857(11)
C20_6 C 0.84457(19) 0.18560(17) 0.00218(11)
H13_6 H 0.7602 0.1712 0.0014
C9_6 C 0.7945(2) 0.3350(2) 0.98826(14)
C10_6 C 0.7946(2) 0.3659(2) 0.95372(15)
H6_6 H 0.7598 0.3814 0.9454
N2_5 N 0.84043(14) 0.37440(15) 0.93219(10)
C11_6 C 0.8880(2) 0.3536(2) 0.94577(14)
H7_6 H 0.9214 0.3589 0.9315
C12_6 C 0.8928(2) 0.3239(3) 0.98041(15)
H8_6 H 0.9286 0.3106 0.9886
C21_6 C 0.7945(2) 0.1650(2) 0.98826(14)
C22_6 C 0.7946(2) 0.1341(2) 0.95372(15)
H14_6 H 0.7598 0.1186 0.9454
N4_6 N 0.84043(14) 0.12560(15) 0.93219(10)
C23_6 C 0.8880(2) 0.1464(2) 0.94577(14)
H15_6 H 0.9214 0.1411 0.9315
C24_6 C 0.8928(2) 0.1761(3) 0.98041(15)
H16_6 H 0.9286 0.1894 0.9886
Ag2_5 Ag 0.830503(13) 0.419497(13) 0.8750
Ag3_4 Ag 0.830503(13) 0.919497(13) 0.1250
C9_7 C 0.7945(2) 0.6650(2) 0.01174(14)
C10_7 C 0.7946(2) 0.6341(2) 0.04628(15)
H6_7 H 0.7598 0.6186 0.0546
C11_7 C 0.8880(2) 0.6464(2) 0.05423(14)
H7_7 H 0.9214 0.6411 0.0685
C12_7 C 0.8928(2) 0.6761(3) 0.01959(15)
H8_7 H 0.9286 0.6894 0.0114
C21_7 C 0.7945(2) 0.8350(2) 0.01174(14)
C22_7 C 0.7946(2) 0.8659(2) 0.04628(15)
H14_7 H 0.7598 0.8814 0.0546
N4_7 N 0.84043(14) 0.87440(15) 0.06781(10)
C23_7 C 0.8880(2) 0.8536(2) 0.05423(14)
H15_7 H 0.9214 0.8589 0.0685
C24_7 C 0.8928(2) 0.8239(3) 0.01959(15)
H16_7 H 0.9286 0.8106 0.0114
N1_5 N 0.83597(16) 0.51954(15) 0.88974(11)
C1_7 C 0.8692(2) 0.5366(2) 0.91856(14)
H1_7 H 0.8911 0.5089 0.9313
C2_7 C 0.8732(2) 0.5933(2) 0.93069(15)
H2_7 H 0.8980 0.6032 0.9506
C3_7 C 0.84006(19) 0.63513(16) 0.91313(12)
C4_7 C 0.8056(2) 0.61698(19) 0.88295(13)
H3_7 H 0.7826 0.6434 0.8699
C5_7 C 0.8056(2) 0.5597(2) 0.87231(14)
H4_7 H 0.7828 0.5488 0.8516
C6_7 C 0.84157(18) 0.69624(17) 0.92541(12)
S1_8 S 0.83796(7) 0.7500 0.89076(5)
C7_7 C 0.84648(18) 0.71917(16) 0.96143(11)
C8_7 C 0.84457(19) 0.68560(17) 0.99782(11)
H5_7 H 0.7602 0.6712 0.9986
N3_7 N 0.83597(16) 0.98046(15) 0.88974(11)
C13_7 C 0.8692(2) 0.9634(2) 0.91856(14)
H9_7 H 0.8911 0.9911 0.9313
C14_7 C 0.8732(2) 0.9067(2) 0.93069(15)
H10_7 H 0.8980 0.8968 0.9506
C15_7 C 0.84006(19) 0.86487(16) 0.91313(12)
C16_7 C 0.8056(2) 0.88302(19) 0.88295(13)
H11_7 H 0.7826 0.8566 0.8699
C17_7 C 0.8056(2) 0.9403(2) 0.87231(14)
H12_7 H 0.7828 0.9512 0.8516
C18_7 C 0.84157(18) 0.80376(17) 0.92541(12)
C19_7 C 0.84648(18) 0.78083(16) 0.96143(11)
C20_7 C 0.84457(19) 0.81440(17) 0.99782(11)
H13_7 H 0.7602 0.8288 0.9986
N5_5 N 0.73046(15) 0.41403(16) 0.86026(11)
N6_4 N 0.87560(15) 0.40957(14) 0.81781(10)
N1_6 N 0.66403(16) 0.48046(15) 0.38974(11)
C1_8 C 0.6308(2) 0.4634(2) 0.41856(14)
H1_8 H 0.6089 0.4911 0.4313
C2_8 C 0.6268(2) 0.4067(2) 0.43069(15)
H2_8 H 0.6020 0.3968 0.4506
C3_8 C 0.65994(19) 0.36487(16) 0.41313(12)
C4_8 C 0.6944(2) 0.38302(19) 0.38295(13)
H3_8 H 0.7174 0.3566 0.3699
C5_8 C 0.6944(2) 0.4403(2) 0.37231(14)
H4_8 H 0.7172 0.4512 0.3516
C6_8 C 0.65843(18) 0.30376(17) 0.42541(12)
S1_9 S 0.66204(7) 0.2500 0.39076(5)
C7_8 C 0.65352(18) 0.28083(16) 0.46143(11)
C8_8 C 0.65543(19) 0.31440(17) 0.49782(11)
C9_8 C 0.7055(2) 0.3350(2) 0.51174(14)
H5_8 H 0.7398 0.3288 0.4986
C10_8 C 0.7054(2) 0.3659(2) 0.54628(15)
H6_8 H 0.7402 0.3814 0.5546
N2_6 N 0.65957(14) 0.37440(15) 0.56781(10)
C11_8 C 0.6120(2) 0.3536(2) 0.55423(14)
H7_8 H 0.5786 0.3589 0.5685
C12_8 C 0.6072(2) 0.3239(3) 0.51959(15)
H8_8 H 0.5714 0.3106 0.5114
N3_8 N 0.66403(16) 0.01954(15) 0.38974(11)
C13_8 C 0.6308(2) 0.0366(2) 0.41856(14)
H9_8 H 0.6089 0.0089 0.4313
C14_8 C 0.6268(2) 0.0933(2) 0.43069(15)
H10_8 H 0.6020 0.1032 0.4506
C15_8 C 0.65994(19) 0.13513(16) 0.41313(12)
C16_8 C 0.6944(2) 0.11698(19) 0.38295(13)
H11_8 H 0.7174 0.1434 0.3699
C17_8 C 0.6944(2) 0.0597(2) 0.37231(14)
H12_8 H 0.7172 0.0488 0.3516
C18_8 C 0.65843(18) 0.19624(17) 0.42541(12)
C19_8 C 0.65352(18) 0.21917(16) 0.46143(11)
C20_8 C 0.65543(19) 0.18560(17) 0.49782(11)
C21_8 C 0.7055(2) 0.1650(2) 0.51174(14)
H13_8 H 0.7398 0.1712 0.4986
C22_8 C 0.7054(2) 0.1341(2) 0.54628(15)
H14_8 H 0.7402 0.1186 0.5546
N4_8 N 0.65957(14) 0.12560(15) 0.56781(10)
C23_8 C 0.6120(2) 0.1464(2) 0.55423(14)
H15_8 H 0.5786 0.1411 0.5685
C24_8 C 0.6072(2) 0.1761(3) 0.51959(15)
H16_8 H 0.5714 0.1894 0.5114
Ag2_6 Ag 0.669497(13) 0.419497(13) 0.6250
N5_6 N 0.76954(15) 0.58597(16) 0.36026(11)
N7_4 N 0.65957(14) 0.62560(15) 0.43219(10)
Ag3_5 Ag 0.669497(13) 0.919497(13) 0.3750
S1_10 S -0.0000 0.41204(7) 0.64076(5)
N3_9 N 0.23046(15) 0.41403(16) 0.63974(11)
C13_9 C 0.2134(2) 0.3808(2) 0.66856(14)
H9_9 H 0.2411 0.3589 0.6813
C14_9 C 0.1567(2) 0.3768(2) 0.68069(15)
H10_9 H 0.1468 0.3520 0.7006
C15_9 C 0.11487(16) 0.40994(19) 0.66313(12)
C16_9 C 0.13302(19) 0.4444(2) 0.63295(13)
H11_9 H 0.1066 0.4674 0.6199
C17_9 C 0.1903(2) 0.4444(2) 0.62231(14)
H12_9 H 0.2012 0.4672 0.6016
C18_9 C 0.05376(17) 0.40843(18) 0.67541(12)
C19_9 C 0.03083(16) 0.40352(18) 0.71143(11)
C20_9 C 0.06440(17) 0.40543(19) 0.74782(11)
C21_9 C 0.0850(2) 0.4555(2) 0.76174(14)
H13_9 H 0.0788 0.4898 0.7486
C22_9 C 0.1159(2) 0.4554(2) 0.79628(15)
H14_9 H 0.1314 0.4902 0.8046
N4_9 N 0.12440(15) 0.40957(14) 0.81781(10)
C23_9 C 0.1036(2) 0.3620(2) 0.80423(14)
H15_9 H 0.1089 0.3286 0.8185
C24_9 C 0.0739(3) 0.3572(2) 0.76959(15)
H16_9 H 0.0606 0.3214 0.7614
N1_7 N 0.76954(15) 0.41403(16) 0.63974(11)
C1_9 C 0.7866(2) 0.3808(2) 0.66856(14)
H1_9 H 0.7589 0.3589 0.6813
C2_9 C 0.8433(2) 0.3768(2) 0.68069(15)
H2_9 H 0.8532 0.3520 0.7006
C3_9 C 0.88513(16) 0.40994(19) 0.66313(12)
C4_9 C 0.86698(19) 0.4444(2) 0.63295(13)
H3_9 H 0.8934 0.4674 0.6199
C5_9 C 0.8097(2) 0.4444(2) 0.62231(14)
H4_9 H 0.7988 0.4672 0.6016
C6_9 C 0.94624(17) 0.40843(18) 0.67541(12)
S1_11 S 1.0000 0.41204(7) 0.64076(5)
C7_9 C 0.96917(16) 0.40352(18) 0.71143(11)
C8_9 C 0.93560(17) 0.40543(19) 0.74782(11)
C9_9 C 0.9150(2) 0.4555(2) 0.76174(14)
H5_9 H 0.9212 0.4898 0.7486
C10_9 C 0.8841(2) 0.4554(2) 0.79628(15)
H6_9 H 0.8686 0.4902 0.8046
C11_9 C 0.8964(2) 0.3620(2) 0.80423(14)
H7_9 H 0.8911 0.3286 0.8185
C12_9 C 0.9261(3) 0.3572(2) 0.76959(15)
H8_9 H 0.9394 0.3214 0.7614
N5_7 N 0.66403(16) 0.51954(15) 0.61026(11)
N7_5 N 0.62440(15) 0.40957(14) 0.68219(10)
C1_10 C 0.2134(2) 0.8808(2) 0.33144(14)
H1_10 H 0.2411 0.8589 0.3187
C2_10 C 0.1567(2) 0.8768(2) 0.31931(15)
H2_10 H 0.1468 0.8520 0.2994
C3_10 C 0.11487(16) 0.90994(19) 0.33687(12)
C4_10 C 0.13302(19) 0.9444(2) 0.36705(13)
H3_10 H 0.1066 0.9674 0.3801
C5_10 C 0.1903(2) 0.9444(2) 0.37769(14)
H4_10 H 0.2012 0.9672 0.3984
C6_10 C 0.05376(17) 0.90843(18) 0.32459(12)
S1_12 S 0.0000 0.91204(7) 0.35924(5)
C7_10 C 0.03083(16) 0.90352(18) 0.28857(11)
C8_10 C 0.06440(17) 0.90543(19) 0.25218(11)
C9_10 C 0.0850(2) 0.9555(2) 0.23826(14)
H5_10 H 0.0788 0.9898 0.2514
C10_10 C 0.1159(2) 0.9554(2) 0.20372(15)
H6_10 H 0.1314 0.9902 0.1954
N2_7 N 0.12440(15) 0.90957(14) 0.18219(10)
C11_10 C 0.1036(2) 0.8620(2) 0.19577(14)
H7_10 H 0.1089 0.8286 0.1815
C12_10 C 0.0739(3) 0.8572(2) 0.23041(15)
H8_10 H 0.0606 0.8214 0.2386
S1_13 S 1.0000 0.91204(7) 0.35924(5)
N3_10 N 0.76954(15) 0.91403(16) 0.36026(11)
C13_10 C 0.7866(2) 0.8808(2) 0.33144(14)
H9_10 H 0.7589 0.8589 0.3187
C14_10 C 0.8433(2) 0.8768(2) 0.31931(15)
H10_10 H 0.8532 0.8520 0.2994
C15_10 C 0.88513(16) 0.90994(19) 0.33687(12)
C16_10 C 0.86698(19) 0.9444(2) 0.36705(13)
H11_10 H 0.8934 0.9674 0.3801
C17_10 C 0.8097(2) 0.9444(2) 0.37769(14)
H12_10 H 0.7988 0.9672 0.3984
C18_10 C 0.94624(17) 0.90843(18) 0.32459(12)
C19_10 C 0.96917(16) 0.90352(18) 0.28857(11)
C20_10 C 0.93560(17) 0.90543(19) 0.25218(11)
C21_10 C 0.9150(2) 0.9555(2) 0.23826(14)
H13_10 H 0.9212 0.9898 0.2514
C22_10 C 0.8841(2) 0.9554(2) 0.20372(15)
H14_10 H 0.8686 0.9902 0.1954
N4_10 N 0.87560(15) 0.90957(14) 0.18219(10)
C23_10 C 0.8964(2) 0.8620(2) 0.19577(14)
H15_10 H 0.8911 0.8286 0.1815
C24_10 C 0.9261(3) 0.8572(2) 0.23041(15)
H16_10 H 0.9394 0.8214 0.2386
S1_14 S -0.0000 0.58796(7) 0.35924(5)
N3_11 N 0.23046(15) 0.58597(16) 0.36026(11)
C13_11 C 0.2134(2) 0.6192(2) 0.33144(14)
H9_11 H 0.2411 0.6411 0.3187
C14_11 C 0.1567(2) 0.6232(2) 0.31931(15)
H10_11 H 0.1468 0.6480 0.2994
C15_11 C 0.11487(16) 0.59006(19) 0.33687(12)
C16_11 C 0.13302(19) 0.5556(2) 0.36705(13)
H11_11 H 0.1066 0.5326 0.3801
C17_11 C 0.1903(2) 0.5556(2) 0.37769(14)
H12_11 H 0.2012 0.5328 0.3984
C18_11 C 0.05376(17) 0.59157(18) 0.32459(12)
C19_11 C 0.03083(16) 0.59648(18) 0.28857(11)
C20_11 C 0.06440(17) 0.59457(19) 0.25218(11)
C21_11 C 0.0850(2) 0.5445(2) 0.23826(14)
H13_11 H 0.0788 0.5102 0.2514
C22_11 C 0.1159(2) 0.5446(2) 0.20372(15)
H14_11 H 0.1314 0.5098 0.1954
N4_11 N 0.12440(15) 0.59043(14) 0.18219(10)
C23_11 C 0.1036(2) 0.6380(2) 0.19577(14)
H15_11 H 0.1089 0.6714 0.1815
C24_11 C 0.0739(3) 0.6428(2) 0.23041(15)
H16_11 H 0.0606 0.6786 0.2386
C1_11 C 0.7866(2) 0.6192(2) 0.33144(14)
H1_11 H 0.7589 0.6411 0.3187
C2_11 C 0.8433(2) 0.6232(2) 0.31931(15)
H2_11 H 0.8532 0.6480 0.2994
C3_11 C 0.88513(16) 0.59006(19) 0.33687(12)
C4_11 C 0.86698(19) 0.5556(2) 0.36705(13)
H3_11 H 0.8934 0.5326 0.3801
C5_11 C 0.8097(2) 0.5556(2) 0.37769(14)
H4_11 H 0.7988 0.5328 0.3984
C6_11 C 0.94624(17) 0.59157(18) 0.32459(12)
S1_15 S 1.0000 0.58796(7) 0.35924(5)
C7_11 C 0.96917(16) 0.59648(18) 0.28857(11)
C8_11 C 0.93560(17) 0.59457(19) 0.25218(11)
C9_11 C 0.9150(2) 0.5445(2) 0.23826(14)
H5_11 H 0.9212 0.5102 0.2514
C10_11 C 0.8841(2) 0.5446(2) 0.20372(15)
H6_11 H 0.8686 0.5098 0.1954
C11_11 C 0.8964(2) 0.6380(2) 0.19577(14)
H7_11 H 0.8911 0.6714 0.1815
C12_11 C 0.9261(3) 0.6428(2) 0.23041(15)
H8_11 H 0.9394 0.6786 0.2386
N1_8 N 0.16403(16) 0.01954(15) 0.11026(11)
C1_12 C 0.1308(2) 0.0366(2) 0.08144(14)
H1_12 H 0.1089 0.0089 0.0687
C2_12 C 0.1268(2) 0.0933(2) 0.06931(15)
H2_12 H 0.1020 0.1032 0.0494
C3_12 C 0.15994(19) 0.13513(16) 0.08687(12)
C4_12 C 0.1944(2) 0.11698(19) 0.11705(13)
H3_12 H 0.2174 0.1434 0.1301
C5_12 C 0.1944(2) 0.0597(2) 0.12769(14)
H4_12 H 0.2172 0.0488 0.1484
C6_12 C 0.15843(18) 0.19624(17) 0.07459(12)
S1_16 S 0.16204(7) 0.2500 0.10924(5)
C7_12 C 0.15352(18) 0.21917(16) 0.03857(11)
C8_12 C 0.15543(19) 0.18560(17) 0.00218(11)
H5_12 H 0.2398 0.1712 0.0014
N3_12 N 0.16403(16) 0.48046(15) 0.11026(11)
C13_12 C 0.1308(2) 0.4634(2) 0.08144(14)
H9_12 H 0.1089 0.4911 0.0687
C14_12 C 0.1268(2) 0.4067(2) 0.06931(15)
H10_12 H 0.1020 0.3968 0.0494
C15_12 C 0.15994(19) 0.36487(16) 0.08687(12)
C16_12 C 0.1944(2) 0.38302(19) 0.11705(13)
H11_12 H 0.2174 0.3566 0.1301
C17_12 C 0.1944(2) 0.4403(2) 0.12769(14)
H12_12 H 0.2172 0.4512 0.1484
C18_12 C 0.15843(18) 0.30376(17) 0.07459(12)
C19_12 C 0.15352(18) 0.28083(16) 0.03857(11)
C20_12 C 0.15543(19) 0.31440(17) 0.00218(11)
H13_12 H 0.2398 0.3288 0.0014
C9_12 C 0.2055(2) 0.1650(2) 0.98826(14)
C10_12 C 0.2054(2) 0.1341(2) 0.95372(15)
H6_12 H 0.2402 0.1186 0.9454
C11_12 C 0.1120(2) 0.1464(2) 0.94577(14)
H7_12 H 0.0786 0.1411 0.9315
C12_12 C 0.1072(2) 0.1761(3) 0.98041(15)
H8_12 H 0.0714 0.1894 0.9886
C21_12 C 0.2055(2) 0.3350(2) 0.98826(14)
C22_12 C 0.2054(2) 0.3659(2) 0.95372(15)
H14_12 H 0.2402 0.3814 0.9454
N4_12 N 0.15957(14) 0.37440(15) 0.93219(10)
C23_12 C 0.1120(2) 0.3536(2) 0.94577(14)
H15_12 H 0.0786 0.3589 0.9315
C24_12 C 0.1072(2) 0.3239(3) 0.98041(15)
H16_12 H 0.0714 0.3106 0.9886
N5_8 N 0.26954(15) 0.91403(16) 0.13974(11)
C1_13 C 0.2866(2) 0.8808(2) 0.16856(14)
H1_13 H 0.2589 0.8589 0.1813
C2_13 C 0.3433(2) 0.8768(2) 0.18069(15)
H2_13 H 0.3532 0.8520 0.2006
C3_13 C 0.38513(16) 0.90994(19) 0.16313(12)
C4_13 C 0.36698(19) 0.9444(2) 0.13295(13)
H3_13 H 0.3934 0.9674 0.1199
C5_13 C 0.3097(2) 0.9444(2) 0.12231(14)
H4_13 H 0.2988 0.9672 0.1016
C6_13 C 0.44624(17) 0.90843(18) 0.17541(12)
S1_17 S 0.5000 0.91204(7) 0.14076(5)
C7_13 C 0.46917(16) 0.90352(18) 0.21143(11)
C8_13 C 0.43560(17) 0.90543(19) 0.24782(11)
C9_13 C 0.4150(2) 0.9555(2) 0.26174(14)
H5_13 H 0.4212 0.9898 0.2486
C10_13 C 0.3841(2) 0.9554(2) 0.29628(15)
H6_13 H 0.3686 0.9902 0.3046
C11_13 C 0.3964(2) 0.8620(2) 0.30423(14)
H7_13 H 0.3911 0.8286 0.3185
C12_13 C 0.4261(3) 0.8572(2) 0.26959(15)
H8_13 H 0.4394 0.8214 0.2614
N3_13 N 0.73046(15) 0.91403(16) 0.13974(11)
C13_13 C 0.7134(2) 0.8808(2) 0.16856(14)
H9_13 H 0.7411 0.8589 0.1813
C14_13 C 0.6567(2) 0.8768(2) 0.18069(15)
H10_13 H 0.6468 0.8520 0.2006
C15_13 C 0.61487(16) 0.90994(19) 0.16313(12)
C16_13 C 0.63302(19) 0.9444(2) 0.13295(13)
H11_13 H 0.6066 0.9674 0.1199
C17_13 C 0.6903(2) 0.9444(2) 0.12231(14)
H12_13 H 0.7012 0.9672 0.1016
C18_13 C 0.55376(17) 0.90843(18) 0.17541(12)
C19_13 C 0.53083(16) 0.90352(18) 0.21143(11)
C20_13 C 0.56440(17) 0.90543(19) 0.24782(11)
C21_13 C 0.5850(2) 0.9555(2) 0.26174(14)
H13_13 H 0.5788 0.9898 0.2486
C22_13 C 0.6159(2) 0.9554(2) 0.29628(15)
H14_13 H 0.6314 0.9902 0.3046
N4_13 N 0.62440(15) 0.90957(14) 0.31781(10)
C23_13 C 0.6036(2) 0.8620(2) 0.30423(14)
H15_13 H 0.6089 0.8286 0.3185
C24_13 C 0.5739(3) 0.8572(2) 0.26959(15)
H16_13 H 0.5606 0.8214 0.2614
C1_14 C 0.7134(2) 0.3808(2) 0.83144(14)
H1_14 H 0.7411 0.3589 0.8187
C2_14 C 0.6567(2) 0.3768(2) 0.81931(15)
H2_14 H 0.6468 0.3520 0.7994
C3_14 C 0.61487(16) 0.40994(19) 0.83687(12)
C4_14 C 0.63302(19) 0.4444(2) 0.86705(13)
H3_14 H 0.6066 0.4674 0.8801
C5_14 C 0.6903(2) 0.4444(2) 0.87769(14)
H4_14 H 0.7012 0.4672 0.8984
C6_14 C 0.55376(17) 0.40843(18) 0.82459(12)
S1_18 S 0.5000 0.41204(7) 0.85924(5)
C7_14 C 0.53083(16) 0.40352(18) 0.78857(11)
C8_14 C 0.56440(17) 0.40543(19) 0.75218(11)
C9_14 C 0.5850(2) 0.4555(2) 0.73826(14)
H5_14 H 0.5788 0.4898 0.7514
C10_14 C 0.6159(2) 0.4554(2) 0.70372(15)
H6_14 H 0.6314 0.4902 0.6954
C11_14 C 0.6036(2) 0.3620(2) 0.69577(14)
H7_14 H 0.6089 0.3286 0.6815
C12_14 C 0.5739(3) 0.3572(2) 0.73041(15)
H8_14 H 0.5606 0.3214 0.7386
N3_14 N 0.26954(15) 0.41403(16) 0.86026(11)
C13_14 C 0.2866(2) 0.3808(2) 0.83144(14)
H9_14 H 0.2589 0.3589 0.8187
C14_14 C 0.3433(2) 0.3768(2) 0.81931(15)
H10_14 H 0.3532 0.3520 0.7994
C15_14 C 0.38513(16) 0.40994(19) 0.83687(12)
C16_14 C 0.36698(19) 0.4444(2) 0.86705(13)
H11_14 H 0.3934 0.4674 0.8801
C17_14 C 0.3097(2) 0.4444(2) 0.87769(14)
H12_14 H 0.2988 0.4672 0.8984
C18_14 C 0.44624(17) 0.40843(18) 0.82459(12)
C19_14 C 0.46917(16) 0.40352(18) 0.78857(11)
C20_14 C 0.43560(17) 0.40543(19) 0.75218(11)
C21_14 C 0.4150(2) 0.4555(2) 0.73826(14)
H13_14 H 0.4212 0.4898 0.7514
C22_14 C 0.3841(2) 0.4554(2) 0.70372(15)
H14_14 H 0.3686 0.4902 0.6954
N4_14 N 0.37560(15) 0.40957(14) 0.68219(10)
C23_14 C 0.3964(2) 0.3620(2) 0.69577(14)
H15_14 H 0.3911 0.3286 0.6815
C24_14 C 0.4261(3) 0.3572(2) 0.73041(15)
H16_14 H 0.4394 0.3214 0.7386
C1_15 C 0.2866(2) 0.1192(2) 0.83144(14)
H1_15 H 0.2589 0.1411 0.8187
C2_15 C 0.3433(2) 0.1232(2) 0.81931(15)
H2_15 H 0.3532 0.1480 0.7994
C3_15 C 0.38513(16) 0.09006(19) 0.83687(12)
C4_15 C 0.36698(19) 0.0556(2) 0.86705(13)
H3_15 H 0.3934 0.0326 0.8801
C5_15 C 0.3097(2) 0.0556(2) 0.87769(14)
H4_15 H 0.2988 0.0328 0.8984
C6_15 C 0.44624(17) 0.09157(18) 0.82459(12)
S1_19 S 0.5000 0.08796(7) 0.85924(5)
C7_15 C 0.46917(16) 0.09648(18) 0.78857(11)
C8_15 C 0.43560(17) 0.09457(19) 0.75218(11)
C9_15 C 0.4150(2) 0.0445(2) 0.73826(14)
H5_15 H 0.4212 0.0102 0.7514
C10_15 C 0.3841(2) 0.0446(2) 0.70372(15)
H6_15 H 0.3686 0.0098 0.6954
C11_15 C 0.3964(2) 0.1380(2) 0.69577(14)
H7_15 H 0.3911 0.1714 0.6815
C12_15 C 0.4261(3) 0.1428(2) 0.73041(15)
H8_15 H 0.4394 0.1786 0.7386
N3_15 N 0.73046(15) 0.08597(16) 0.86026(11)
C13_15 C 0.7134(2) 0.1192(2) 0.83144(14)
H9_15 H 0.7411 0.1411 0.8187
C14_15 C 0.6567(2) 0.1232(2) 0.81931(15)
H10_15 H 0.6468 0.1480 0.7994
C15_15 C 0.61487(16) 0.09006(19) 0.83687(12)
C16_15 C 0.63302(19) 0.0556(2) 0.86705(13)
H11_15 H 0.6066 0.0326 0.8801
C17_15 C 0.6903(2) 0.0556(2) 0.87769(14)
H12_15 H 0.7012 0.0328 0.8984
C18_15 C 0.55376(17) 0.09157(18) 0.82459(12)
C19_15 C 0.53083(16) 0.09648(18) 0.78857(11)
C20_15 C 0.56440(17) 0.09457(19) 0.75218(11)
C21_15 C 0.5850(2) 0.0445(2) 0.73826(14)
H13_15 H 0.5788 0.0102 0.7514
C22_15 C 0.6159(2) 0.0446(2) 0.70372(15)
H14_15 H 0.6314 0.0098 0.6954
N4_15 N 0.62440(15) 0.09043(14) 0.68219(10)
C23_15 C 0.6036(2) 0.1380(2) 0.69577(14)
H15_15 H 0.6089 0.1714 0.6815
C24_15 C 0.5739(3) 0.1428(2) 0.73041(15)
H16_15 H 0.5606 0.1786 0.7386
C1_16 C 0.6308(2) 0.5366(2) 0.58144(14)
H1_16 H 0.6089 0.5089 0.5687
C2_16 C 0.6268(2) 0.5933(2) 0.56931(15)
H2_16 H 0.6020 0.6032 0.5494
C3_16 C 0.65994(19) 0.63513(16) 0.58687(12)
C4_16 C 0.6944(2) 0.61698(19) 0.61705(13)
H3_16 H 0.7174 0.6434 0.6301
C5_16 C 0.6944(2) 0.5597(2) 0.62769(14)
H4_16 H 0.7172 0.5488 0.6484
C6_16 C 0.65843(18) 0.69624(17) 0.57459(12)
S1_20 S 0.66204(7) 0.7500 0.60924(5)
C7_16 C 0.65352(18) 0.71917(16) 0.53857(11)
C8_16 C 0.65543(19) 0.68560(17) 0.50218(11)
C9_16 C 0.7055(2) 0.6650(2) 0.48826(14)
H5_16 H 0.7398 0.6712 0.5014
C10_16 C 0.7054(2) 0.6341(2) 0.45372(15)
H6_16 H 0.7402 0.6186 0.4454
C11_16 C 0.6120(2) 0.6464(2) 0.44577(14)
H7_16 H 0.5786 0.6411 0.4315
C12_16 C 0.6072(2) 0.6761(3) 0.48041(15)
H8_16 H 0.5714 0.6894 0.4886
N3_16 N 0.66403(16) 0.98046(15) 0.61026(11)
C13_16 C 0.6308(2) 0.9634(2) 0.58144(14)
H9_16 H 0.6089 0.9911 0.5687
C14_16 C 0.6268(2) 0.9067(2) 0.56931(15)
H10_16 H 0.6020 0.8968 0.5494
C15_16 C 0.65994(19) 0.86487(16) 0.58687(12)
C16_16 C 0.6944(2) 0.88302(19) 0.61705(13)
H11_16 H 0.7174 0.8566 0.6301
C17_16 C 0.6944(2) 0.9403(2) 0.62769(14)
H12_16 H 0.7172 0.9512 0.6484
C18_16 C 0.65843(18) 0.80376(17) 0.57459(12)
C19_16 C 0.65352(18) 0.78083(16) 0.53857(11)
C20_16 C 0.65543(19) 0.81440(17) 0.50218(11)
C21_16 C 0.7055(2) 0.8350(2) 0.48826(14)
H13_16 H 0.7398 0.8288 0.5014
C22_16 C 0.7054(2) 0.8659(2) 0.45372(15)
H14_16 H 0.7402 0.8814 0.4454
N4_16 N 0.65957(14) 0.87440(15) 0.43219(10)
C23_16 C 0.6120(2) 0.8536(2) 0.44577(14)
H15_16 H 0.5786 0.8589 0.4315
C24_16 C 0.6072(2) 0.8239(3) 0.48041(15)
H16_16 H 0.5714 0.8106 0.4886
loop_
_geom_bond_atom_site_label_1
_geom_bond_atom_site_label_2
_geom_bond_site_symmetry_1
_geom_bond_site_symmetry_2
Ag1 N1 1_555 1_555
N1 C1 1_555 1_555
C1 H1 1_555 1_555
C2 C1 1_555 1_555
H2 C2 1_555 1_555
C3 C2 1_555 1_555
C4 C3 1_555 1_555
H3 C4 1_555 1_555
C5 N1 1_555 1_555
H4 C5 1_555 1_555
C6 C3 1_555 1_555
S1 C6 1_555 1_555
C7 C6 1_555 1_555
C8 C7 1_555 1_555
C9 C8 1_555 1_555
H5 C9 1_555 1_555
C10 C9 1_555 1_555
H6 C10 1_555 1_555
N2 C10 1_555 1_555
C11 N2 1_555 1_555
H7 C11 1_555 1_555
C12 C8 1_555 1_555
H8 C12 1_555 1_555
Ag2 N2 1_555 1_555
N6 Ag1 1_555 1_555
N7 Ag1 1_555 1_555
C4 C5 1_555 1_555
C11 C12 1_555 1_555
N3 C13 1_555 1_555
C13 H9 1_555 1_555
C14 C13 1_555 1_555
H10 C14 1_555 1_555
C15 C14 1_555 1_555
C16 C15 1_555 1_555
H11 C16 1_555 1_555
C17 N3 1_555 1_555
H12 C17 1_555 1_555
C18 S1_2 1_555 1_555
C20 C19 1_555 1_555
C21 C20 1_555 1_555
H13 C21 1_555 1_555
C22 C21 1_555 1_555
H14 C22 1_555 1_555
N4 C22 1_555 1_555
C23 N4 1_555 1_555
H15 C23 1_555 1_555
C24 C20 1_555 1_555
H16 C24 1_555 1_555
Ag3 N3 1_555 1_555
Ag4 N4 1_555 1_555
C15 C18 1_555 1_555
C16 C17 1_555 1_555
C18 C19 1_555 1_555
C23 C24 1_555 1_555
N5 C1_2 1_555 1_555
C1_2 H1_2 1_555 1_555
C2_2 C1_2 1_555 1_555
H2_2 C2_2 1_555 1_555
C3_2 C2_2 1_555 1_555
C4_2 C3_2 1_555 1_555
H3_2 C4_2 1_555 1_555
C5_2 N5 1_555 1_555
H4_2 C5_2 1_555 1_555
C6_2 C3_2 1_555 1_555
S1_3 C6_2 1_555 1_555
C7_2 C6_2 1_555 1_555
C8_2 C7_2 1_555 1_555
C9_2 C8_2 1_555 1_555
H5_2 C9_2 1_555 1_555
C10_2 C9_2 1_555 1_555
H6_2 C10_2 1_555 1_555
N2_2 C10_2 1_555 1_555
C11_2 N2_2 1_555 1_555
H7_2 C11_2 1_555 1_555
C12_2 C8_2 1_555 1_555
H8_2 C12_2 1_555 1_555
N3_2 C13_2 1_555 1_555
C13_2 H9_2 1_555 1_555
C14_2 C13_2 1_555 1_555
H10_2 C14_2 1_555 1_555
C15_2 C14_2 1_555 1_555
C16_2 C15_2 1_555 1_555
H11_2 C16_2 1_555 1_555
C17_2 N3_2 1_555 1_555
H12_2 C17_2 1_555 1_555
C18_2 S1_3 1_555 1_555
C19_2 C7_2 1_555 1_555
C20_2 C19_2 1_555 1_555
C21_2 C20_2 1_555 1_555
H13_2 C21_2 1_555 1_555
C22_2 C21_2 1_555 1_555
H14_2 C22_2 1_555 1_555
N4_2 C22_2 1_555 1_555
C23_2 N4_2 1_555 1_555
H15_2 C23_2 1_555 1_555
C24_2 C20_2 1_555 1_555
H16_2 C24_2 1_555 1_555
Ag2_2 N2_2 1_555 1_555
Ag3_2 N3_2 1_555 1_555
Ag4_2 N4_2 1_555 1_555
C4_2 C5_2 1_555 1_555
C11_2 C12_2 1_555 1_555
C15_2 C18_2 1_555 1_555
C16_2 C17_2 1_555 1_555
C18_2 C19_2 1_555 1_555
C23_2 C24_2 1_555 1_555
N1_2 C1_3 1_555 1_555
C1_3 H1_3 1_555 1_555
C2_3 C1_3 1_555 1_555
H2_3 C2_3 1_555 1_555
C3_3 C2_3 1_555 1_555
C4_3 C3_3 1_555 1_555
H3_3 C4_3 1_555 1_555
C5_3 N1_2 1_555 1_555
H4_3 C5_3 1_555 1_555
C6_3 C3_3 1_555 1_555
S1_4 C6_3 1_555 1_555
C7_3 C6_3 1_555 1_555
C8_3 C7_3 1_555 1_555
C9_3 C8_3 1_555 1_555
H5_3 C9_3 1_555 1_555
C10_3 C9_3 1_555 1_555
H6_3 C10_3 1_555 1_555
N6 C10_3 1_555 1_555
C11_3 N6 1_555 1_555
H7_3 C11_3 1_555 1_555
C12_3 C8_3 1_555 1_555
H8_3 C12_3 1_555 1_555
N3_3 C13_3 1_555 1_555
C13_3 H9_3 1_555 1_555
C14_3 C13_3 1_555 1_555
H10_3 C14_3 1_555 1_555
C15_3 C14_3 1_555 1_555
C16_3 C15_3 1_555 1_555
H11_3 C16_3 1_555 1_555
C17_3 N3_3 1_555 1_555
H12_3 C17_3 1_555 1_555
C18_3 S1_4 1_555 1_555
C19_3 C7_3 1_555 1_555
C20_3 C19_3 1_555 1_555
C21_3 C20_3 1_555 1_555
H13_3 C21_3 1_555 1_555
C22_3 C21_3 1_555 1_555
H14_3 C22_3 1_555 1_555
N4_3 C22_3 1_555 1_555
C23_3 N4_3 1_555 1_555
H15_3 C23_3 1_555 1_555
C24_3 C20_3 1_555 1_555
H16_3 C24_3 1_555 1_555
Ag4_2 N3_3 1_555 1_555
Ag3_2 N4_3 1_555 1_555
C4_3 C5_3 1_555 1_555
C11_3 C12_3 1_555 1_555
C15_3 C18_3 1_555 1_555
C16_3 C17_3 1_555 1_555
C18_3 C19_3 1_555 1_555
C23_3 C24_3 1_555 1_555
N5_2 Ag2_2 1_555 1_555
N6_2 Ag2_2 1_555 1_555
N5_3 Ag2 1_555 1_555
N7_2 Ag2 1_555 1_555
C10_4 C9_4 1_555 1_555
H6_4 C10_4 1_555 1_555
N2_3 C10_4 1_555 1_555
C11_4 N2_3 1_555 1_555
H7_4 C11_4 1_555 1_555
H8_4 C12_4 1_555 1_555
C22_4 C21_4 1_555 1_555
H14_4 C22_4 1_555 1_555
N4_4 C22_4 1_555 1_555
C23_4 N4_4 1_555 1_555
H15_4 C23_4 1_555 1_555
H16_4 C24_4 1_555 1_555
Ag2_3 N2_3 1_555 1_555
Ag4_3 N4_4 1_555 1_555
C11_4 C12_4 1_555 1_555
C23_4 C24_4 1_555 1_555
N1_3 C1_4 1_555 1_555
C1_4 H1_4 1_555 1_555
C2_4 C1_4 1_555 1_555
H2_4 C2_4 1_555 1_555
C3_4 C2_4 1_555 1_555
C4_4 C3_4 1_555 1_555
H3_4 C4_4 1_555 1_555
C5_4 N1_3 1_555 1_555
H4_4 C5_4 1_555 1_555
C6_4 C3_4 1_555 1_555
S1_5 C6_4 1_555 1_555
C7_4 C6_4 1_555 1_555
C8_4 C7_4 1_555 1_555
N3_4 C13_4 1_555 1_555
C13_4 H9_4 1_555 1_555
C14_4 C13_4 1_555 1_555
H10_4 C14_4 1_555 1_555
C15_4 C14_4 1_555 1_555
C16_4 C15_4 1_555 1_555
H11_4 C16_4 1_555 1_555
C17_4 N3_4 1_555 1_555
H12_4 C17_4 1_555 1_555
C18_4 S1_5 1_555 1_555
C19_4 C7_4 1_555 1_555
C20_4 C19_4 1_555 1_555
Ag3_3 N3_4 1_555 1_555
C4_4 C5_4 1_555 1_555
C15_4 C18_4 1_555 1_555
C16_4 C17_4 1_555 1_555
C18_4 C19_4 1_555 1_555
Ag1_2 N1_4 1_555 1_555
N1_4 C1_5 1_555 1_555
C1_5 H1_5 1_555 1_555
C2_5 C1_5 1_555 1_555
H2_5 C2_5 1_555 1_555
C3_5 C2_5 1_555 1_555
C4_5 C3_5 1_555 1_555
H3_5 C4_5 1_555 1_555
C5_5 N1_4 1_555 1_555
H4_5 C5_5 1_555 1_555
C6_5 C3_5 1_555 1_555
S1_6 C6_5 1_555 1_555
C7_5 C6_5 1_555 1_555
C8_5 C7_5 1_555 1_555
C9_5 C8_5 1_555 1_555
H5_5 C9_5 1_555 1_555
C10_5 C9_5 1_555 1_555
H6_5 C10_5 1_555 1_555
N2_4 C10_5 1_555 1_555
C11_5 N2_4 1_555 1_555
H7_5 C11_5 1_555 1_555
C12_5 C8_5 1_555 1_555
H8_5 C12_5 1_555 1_555
N3_5 C13_5 1_555 1_555
C13_5 H9_5 1_555 1_555
C14_5 C13_5 1_555 1_555
H10_5 C14_5 1_555 1_555
C15_5 C14_5 1_555 1_555
C16_5 C15_5 1_555 1_555
H11_5 C16_5 1_555 1_555
C17_5 N3_5 1_555 1_555
H12_5 C17_5 1_555 1_555
C18_5 S1_6 1_555 1_555
C19_5 C7_5 1_555 1_555
C20_5 C19_5 1_555 1_555
C21_5 C20_5 1_555 1_555
H13_5 C21_5 1_555 1_555
C22_5 C21_5 1_555 1_555
H14_5 C22_5 1_555 1_555
N4_5 C22_5 1_555 1_555
C23_5 N4_5 1_555 1_555
H15_5 C23_5 1_555 1_555
C24_5 C20_5 1_555 1_555
H16_5 C24_5 1_555 1_555
Ag2_4 N2_4 1_555 1_555
Ag4_3 N3_5 1_555 1_555
Ag4_2 N4_5 1_555 1_555
N5_4 Ag1_2 1_555 1_555
N6_3 Ag1_2 1_555 1_555
N7_3 Ag1_2 1_555 1_555
C4_5 C5_5 1_555 1_555
C11_5 C12_5 1_555 1_555
C15_5 C18_5 1_555 1_555
C16_5 C17_5 1_555 1_555
C18_5 C19_5 1_555 1_555
C23_5 C24_5 1_555 1_555
N5_4 C1_6 1_555 1_555
C1_6 H1_6 1_555 1_555
C2_6 C1_6 1_555 1_555
H2_6 C2_6 1_555 1_555
C3_6 C2_6 1_555 1_555
C4_6 C3_6 1_555 1_555
H3_6 C4_6 1_555 1_555
C5_6 N5_4 1_555 1_555
H4_6 C5_6 1_555 1_555
C6_6 C3_6 1_555 1_555
S1_7 C6_6 1_555 1_555
C7_6 C6_6 1_555 1_555
C8_6 C7_6 1_555 1_555
N3_6 C13_6 1_555 1_555
C13_6 H9_6 1_555 1_555
C14_6 C13_6 1_555 1_555
H10_6 C14_6 1_555 1_555
C15_6 C14_6 1_555 1_555
C16_6 C15_6 1_555 1_555
H11_6 C16_6 1_555 1_555
C17_6 N3_6 1_555 1_555
H12_6 C17_6 1_555 1_555
C18_6 S1_7 1_555 1_555
C19_6 C7_6 1_555 1_555
C20_6 C19_6 1_555 1_555
C4_6 C5_6 1_555 1_555
C15_6 C18_6 1_555 1_555
C16_6 C17_6 1_555 1_555
C18_6 C19_6 1_555 1_555
C10_6 C9_6 1_555 1_555
H6_6 C10_6 1_555 1_555
N2_5 C10_6 1_555 1_555
C11_6 N2_5 1_555 1_555
H7_6 C11_6 1_555 1_555
H8_6 C12_6 1_555 1_555
C22_6 C21_6 1_555 1_555
H14_6 C22_6 1_555 1_555
N4_6 C22_6 1_555 1_555
C23_6 N4_6 1_555 1_555
H15_6 C23_6 1_555 1_555
H16_6 C24_6 1_555 1_555
Ag2_5 N2_5 1_555 1_555
Ag4 N4_6 1_555 1_555
C11_6 C12_6 1_555 1_555
C23_6 C24_6 1_555 1_555
C10_7 C9_7 1_555 1_555
H6_7 C10_7 1_555 1_555
N6_3 C10_7 1_555 1_555
C11_7 N6_3 1_555 1_555
H7_7 C11_7 1_555 1_555
H8_7 C12_7 1_555 1_555
C22_7 C21_7 1_555 1_555
H14_7 C22_7 1_555 1_555
N4_7 C22_7 1_555 1_555
C23_7 N4_7 1_555 1_555
H15_7 C23_7 1_555 1_555
H16_7 C24_7 1_555 1_555
Ag3_4 N4_7 1_555 1_555
C11_7 C12_7 1_555 1_555
C23_7 C24_7 1_555 1_555
Ag2_5 N1_5 1_555 1_555
N1_5 C1_7 1_555 1_555
C1_7 H1_7 1_555 1_555
C2_7 C1_7 1_555 1_555
H2_7 C2_7 1_555 1_555
C3_7 C2_7 1_555 1_555
C4_7 C3_7 1_555 1_555
H3_7 C4_7 1_555 1_555
C5_7 N1_5 1_555 1_555
H4_7 C5_7 1_555 1_555
C6_7 C3_7 1_555 1_555
S1_8 C6_7 1_555 1_555
C7_7 C6_7 1_555 1_555
C8_7 C7_7 1_555 1_555
N3_7 C13_7 1_555 1_555
C13_7 H9_7 1_555 1_555
C14_7 C13_7 1_555 1_555
H10_7 C14_7 1_555 1_555
C15_7 C14_7 1_555 1_555
C16_7 C15_7 1_555 1_555
H11_7 C16_7 1_555 1_555
C17_7 N3_7 1_555 1_555
H12_7 C17_7 1_555 1_555
C18_7 S1_8 1_555 1_555
C19_7 C7_7 1_555 1_555
C20_7 C19_7 1_555 1_555
N5_5 Ag2_5 1_555 1_555
N6_4 Ag2_5 1_555 1_555
C4_7 C5_7 1_555 1_555
C15_7 C18_7 1_555 1_555
C16_7 C17_7 1_555 1_555
C18_7 C19_7 1_555 1_555
Ag2_4 N1_6 1_555 1_555
N1_6 C1_8 1_555 1_555
C1_8 H1_8 1_555 1_555
C2_8 C1_8 1_555 1_555
H2_8 C2_8 1_555 1_555
C3_8 C2_8 1_555 1_555
C4_8 C3_8 1_555 1_555
H3_8 C4_8 1_555 1_555
C5_8 N1_6 1_555 1_555
H4_8 C5_8 1_555 1_555
C6_8 C3_8 1_555 1_555
S1_9 C6_8 1_555 1_555
C7_8 C6_8 1_555 1_555
C8_8 C7_8 1_555 1_555
C9_8 C8_8 1_555 1_555
H5_8 C9_8 1_555 1_555
C10_8 C9_8 1_555 1_555
H6_8 C10_8 1_555 1_555
N2_6 C10_8 1_555 1_555
C11_8 N2_6 1_555 1_555
H7_8 C11_8 1_555 1_555
C12_8 C8_8 1_555 1_555
H8_8 C12_8 1_555 1_555
N3_8 C13_8 1_555 1_555
C13_8 H9_8 1_555 1_555
C14_8 C13_8 1_555 1_555
H10_8 C14_8 1_555 1_555
C15_8 C14_8 1_555 1_555
C16_8 C15_8 1_555 1_555
H11_8 C16_8 1_555 1_555
C17_8 N3_8 1_555 1_555
H12_8 C17_8 1_555 1_555
C18_8 S1_9 1_555 1_555
C19_8 C7_8 1_555 1_555
C20_8 C19_8 1_555 1_555
C21_8 C20_8 1_555 1_555
H13_8 C21_8 1_555 1_555
C22_8 C21_8 1_555 1_555
H14_8 C22_8 1_555 1_555
N4_8 C22_8 1_555 1_555
C23_8 N4_8 1_555 1_555
H15_8 C23_8 1_555 1_555
C24_8 C20_8 1_555 1_555
H16_8 C24_8 1_555 1_555
Ag2_6 N2_6 1_555 1_555
Ag3 N4_8 1_555 1_555
N5_6 Ag2_4 1_555 1_555
N7_4 Ag2_4 1_555 1_555
C4_8 C5_8 1_555 1_555
C11_8 C12_8 1_555 1_555
C15_8 C18_8 1_555 1_555
C16_8 C17_8 1_555 1_555
C18_8 C19_8 1_555 1_555
C23_8 C24_8 1_555 1_555
N3_9 C13_9 1_555 1_555
C13_9 H9_9 1_555 1_555
C14_9 C13_9 1_555 1_555
H10_9 C14_9 1_555 1_555
C15_9 C14_9 1_555 1_555
C16_9 C15_9 1_555 1_555
H11_9 C16_9 1_555 1_555
C17_9 N3_9 1_555 1_555
H12_9 C17_9 1_555 1_555
C18_9 S1_10 1_555 1_555
C20_9 C19_9 1_555 1_555
C21_9 C20_9 1_555 1_555
H13_9 C21_9 1_555 1_555
C22_9 C21_9 1_555 1_555
H14_9 C22_9 1_555 1_555
N4_9 C22_9 1_555 1_555
C23_9 N4_9 1_555 1_555
H15_9 C23_9 1_555 1_555
C24_9 C20_9 1_555 1_555
H16_9 C24_9 1_555 1_555
Ag3_2 N3_9 1_555 1_555
Ag3_3 N4_9 1_555 1_555
C15_9 C18_9 1_555 1_555
C16_9 C17_9 1_555 1_555
C18_9 C19_9 1_555 1_555
C23_9 C24_9 1_555 1_555
Ag2_6 N1_7 1_555 1_555
N1_7 C1_9 1_555 1_555
C1_9 H1_9 1_555 1_555
C2_9 C1_9 1_555 1_555
H2_9 C2_9 1_555 1_555
C3_9 C2_9 1_555 1_555
C4_9 C3_9 1_555 1_555
H3_9 C4_9 1_555 1_555
C5_9 N1_7 1_555 1_555
H4_9 C5_9 1_555 1_555
C6_9 C3_9 1_555 1_555
S1_11 C6_9 1_555 1_555
C7_9 C6_9 1_555 1_555
C8_9 C7_9 1_555 1_555
C9_9 C8_9 1_555 1_555
H5_9 C9_9 1_555 1_555
C10_9 C9_9 1_555 1_555
H6_9 C10_9 1_555 1_555
N6_4 C10_9 1_555 1_555
C11_9 N6_4 1_555 1_555
H7_9 C11_9 1_555 1_555
C12_9 C8_9 1_555 1_555
H8_9 C12_9 1_555 1_555
N5_7 Ag2_6 1_555 1_555
N7_5 Ag2_6 1_555 1_555
C4_9 C5_9 1_555 1_555
C11_9 C12_9 1_555 1_555
N5_2 C1_10 1_555 1_555
C1_10 H1_10 1_555 1_555
C2_10 C1_10 1_555 1_555
H2_10 C2_10 1_555 1_555
C3_10 C2_10 1_555 1_555
C4_10 C3_10 1_555 1_555
H3_10 C4_10 1_555 1_555
C5_10 N5_2 1_555 1_555
H4_10 C5_10 1_555 1_555
C6_10 C3_10 1_555 1_555
S1_12 C6_10 1_555 1_555
C7_10 C6_10 1_555 1_555
C8_10 C7_10 1_555 1_555
C9_10 C8_10 1_555 1_555
H5_10 C9_10 1_555 1_555
C10_10 C9_10 1_555 1_555
H6_10 C10_10 1_555 1_555
N2_7 C10_10 1_555 1_555
C11_10 N2_7 1_555 1_555
H7_10 C11_10 1_555 1_555
C12_10 C8_10 1_555 1_555
H8_10 C12_10 1_555 1_555
Ag2_3 N2_7 1_555 1_555
C4_10 C5_10 1_555 1_555
C11_10 C12_10 1_555 1_555
N3_10 C13_10 1_555 1_555
C13_10 H9_10 1_555 1_555
C14_10 C13_10 1_555 1_555
H10_10 C14_10 1_555 1_555
C15_10 C14_10 1_555 1_555
C16_10 C15_10 1_555 1_555
H11_10 C16_10 1_555 1_555
C17_10 N3_10 1_555 1_555
H12_10 C17_10 1_555 1_555
C18_10 S1_13 1_555 1_555
C20_10 C19_10 1_555 1_555
C21_10 C20_10 1_555 1_555
H13_10 C21_10 1_555 1_555
C22_10 C21_10 1_555 1_555
H14_10 C22_10 1_555 1_555
N4_10 C22_10 1_555 1_555
C23_10 N4_10 1_555 1_555
H15_10 C23_10 1_555 1_555
C24_10 C20_10 1_555 1_555
H16_10 C24_10 1_555 1_555
Ag3_5 N3_10 1_555 1_555
Ag3_4 N4_10 1_555 1_555
C15_10 C18_10 1_555 1_555
C16_10 C17_10 1_555 1_555
C18_10 C19_10 1_555 1_555
C23_10 C24_10 1_555 1_555
N3_11 C13_11 1_555 1_555
C13_11 H9_11 1_555 1_555
C14_11 C13_11 1_555 1_555
H10_11 C14_11 1_555 1_555
C15_11 C14_11 1_555 1_555
C16_11 C15_11 1_555 1_555
H11_11 C16_11 1_555 1_555
C17_11 N3_11 1_555 1_555
H12_11 C17_11 1_555 1_555
C18_11 S1_14 1_555 1_555
C20_11 C19_11 1_555 1_555
C21_11 C20_11 1_555 1_555
H13_11 C21_11 1_555 1_555
C22_11 C21_11 1_555 1_555
H14_11 C22_11 1_555 1_555
N4_11 C22_11 1_555 1_555
C23_11 N4_11 1_555 1_555
H15_11 C23_11 1_555 1_555
C24_11 C20_11 1_555 1_555
H16_11 C24_11 1_555 1_555
Ag4_2 N3_11 1_555 1_555
Ag4_3 N4_11 1_555 1_555
C15_11 C18_11 1_555 1_555
C16_11 C17_11 1_555 1_555
C18_11 C19_11 1_555 1_555
C23_11 C24_11 1_555 1_555
N5_6 C1_11 1_555 1_555
C1_11 H1_11 1_555 1_555
C2_11 C1_11 1_555 1_555
H2_11 C2_11 1_555 1_555
C3_11 C2_11 1_555 1_555
C4_11 C3_11 1_555 1_555
H3_11 C4_11 1_555 1_555
C5_11 N5_6 1_555 1_555
H4_11 C5_11 1_555 1_555
C6_11 C3_11 1_555 1_555
S1_15 C6_11 1_555 1_555
C7_11 C6_11 1_555 1_555
C8_11 C7_11 1_555 1_555
C9_11 C8_11 1_555 1_555
H5_11 C9_11 1_555 1_555
C10_11 C9_11 1_555 1_555
H6_11 C10_11 1_555 1_555
N7_3 C10_11 1_555 1_555
C11_11 N7_3 1_555 1_555
H7_11 C11_11 1_555 1_555
C12_11 C8_11 1_555 1_555
H8_11 C12_11 1_555 1_555
C4_11 C5_11 1_555 1_555
C11_11 C12_11 1_555 1_555
N1_8 C1_12 1_555 1_555
C1_12 H1_12 1_555 1_555
C2_12 C1_12 1_555 1_555
H2_12 C2_12 1_555 1_555
C3_12 C2_12 1_555 1_555
C4_12 C3_12 1_555 1_555
H3_12 C4_12 1_555 1_555
C5_12 N1_8 1_555 1_555
H4_12 C5_12 1_555 1_555
C6_12 C3_12 1_555 1_555
S1_16 C6_12 1_555 1_555
C7_12 C6_12 1_555 1_555
C8_12 C7_12 1_555 1_555
N3_12 C13_12 1_555 1_555
C13_12 H9_12 1_555 1_555
C14_12 C13_12 1_555 1_555
H10_12 C14_12 1_555 1_555
C15_12 C14_12 1_555 1_555
C16_12 C15_12 1_555 1_555
H11_12 C16_12 1_555 1_555
C17_12 N3_12 1_555 1_555
H12_12 C17_12 1_555 1_555
C18_12 S1_16 1_555 1_555
C19_12 C7_12 1_555 1_555
C20_12 C19_12 1_555 1_555
Ag4_3 N3_12 1_555 1_555
C4_12 C5_12 1_555 1_555
C15_12 C18_12 1_555 1_555
C16_12 C17_12 1_555 1_555
C18_12 C19_12 1_555 1_555
C10_12 C9_12 1_555 1_555
H6_12 C10_12 1_555 1_555
N7_2 C10_12 1_555 1_555
C11_12 N7_2 1_555 1_555
H7_12 C11_12 1_555 1_555
H8_12 C12_12 1_555 1_555
C22_12 C21_12 1_555 1_555
H14_12 C22_12 1_555 1_555
N4_12 C22_12 1_555 1_555
C23_12 N4_12 1_555 1_555
H15_12 C23_12 1_555 1_555
H16_12 C24_12 1_555 1_555
Ag3_3 N4_12 1_555 1_555
C11_12 C12_12 1_555 1_555
C23_12 C24_12 1_555 1_555
N5_8 Ag2_3 1_555 1_555
N5_8 C1_13 1_555 1_555
C1_13 H1_13 1_555 1_555
C2_13 C1_13 1_555 1_555
H2_13 C2_13 1_555 1_555
C3_13 C2_13 1_555 1_555
C4_13 C3_13 1_555 1_555
H3_13 C4_13 1_555 1_555
C5_13 N5_8 1_555 1_555
H4_13 C5_13 1_555 1_555
C6_13 C3_13 1_555 1_555
S1_17 C6_13 1_555 1_555
C7_13 C6_13 1_555 1_555
C8_13 C7_13 1_555 1_555
C9_13 C8_13 1_555 1_555
H5_13 C9_13 1_555 1_555
C10_13 C9_13 1_555 1_555
H6_13 C10_13 1_555 1_555
N6_2 C10_13 1_555 1_555
C11_13 N6_2 1_555 1_555
H7_13 C11_13 1_555 1_555
C12_13 C8_13 1_555 1_555
H8_13 C12_13 1_555 1_555
N3_13 C13_13 1_555 1_555
C13_13 H9_13 1_555 1_555
C14_13 C13_13 1_555 1_555
H10_13 C14_13 1_555 1_555
C15_13 C14_13 1_555 1_555
C16_13 C15_13 1_555 1_555
H11_13 C16_13 1_555 1_555
C17_13 N3_13 1_555 1_555
H12_13 C17_13 1_555 1_555
C18_13 S1_17 1_555 1_555
C19_13 C7_13 1_555 1_555
C20_13 C19_13 1_555 1_555
C21_13 C20_13 1_555 1_555
H13_13 C21_13 1_555 1_555
C22_13 C21_13 1_555 1_555
H14_13 C22_13 1_555 1_555
N4_13 C22_13 1_555 1_555
C23_13 N4_13 1_555 1_555
H15_13 C23_13 1_555 1_555
C24_13 C20_13 1_555 1_555
H16_13 C24_13 1_555 1_555
Ag3_4 N3_13 1_555 1_555
Ag3_5 N4_13 1_555 1_555
C4_13 C5_13 1_555 1_555
C11_13 C12_13 1_555 1_555
C15_13 C18_13 1_555 1_555
C16_13 C17_13 1_555 1_555
C18_13 C19_13 1_555 1_555
C23_13 C24_13 1_555 1_555
N5_5 C1_14 1_555 1_555
C1_14 H1_14 1_555 1_555
C2_14 C1_14 1_555 1_555
H2_14 C2_14 1_555 1_555
C3_14 C2_14 1_555 1_555
C4_14 C3_14 1_555 1_555
H3_14 C4_14 1_555 1_555
C5_14 N5_5 1_555 1_555
H4_14 C5_14 1_555 1_555
C6_14 C3_14 1_555 1_555
S1_18 C6_14 1_555 1_555
C7_14 C6_14 1_555 1_555
C8_14 C7_14 1_555 1_555
C9_14 C8_14 1_555 1_555
H5_14 C9_14 1_555 1_555
C10_14 C9_14 1_555 1_555
H6_14 C10_14 1_555 1_555
N7_5 C10_14 1_555 1_555
C11_14 N7_5 1_555 1_555
H7_14 C11_14 1_555 1_555
C12_14 C8_14 1_555 1_555
H8_14 C12_14 1_555 1_555
N3_14 C13_14 1_555 1_555
C13_14 H9_14 1_555 1_555
C14_14 C13_14 1_555 1_555
H10_14 C14_14 1_555 1_555
C15_14 C14_14 1_555 1_555
C16_14 C15_14 1_555 1_555
H11_14 C16_14 1_555 1_555
C17_14 N3_14 1_555 1_555
H12_14 C17_14 1_555 1_555
C18_14 S1_18 1_555 1_555
C19_14 C7_14 1_555 1_555
C20_14 C19_14 1_555 1_555
C21_14 C20_14 1_555 1_555
H13_14 C21_14 1_555 1_555
C22_14 C21_14 1_555 1_555
H14_14 C22_14 1_555 1_555
N4_14 C22_14 1_555 1_555
C23_14 N4_14 1_555 1_555
H15_14 C23_14 1_555 1_555
C24_14 C20_14 1_555 1_555
H16_14 C24_14 1_555 1_555
Ag3_3 N3_14 1_555 1_555
Ag3_2 N4_14 1_555 1_555
C4_14 C5_14 1_555 1_555
C11_14 C12_14 1_555 1_555
C15_14 C18_14 1_555 1_555
C16_14 C17_14 1_555 1_555
C18_14 C19_14 1_555 1_555
C23_14 C24_14 1_555 1_555
N5_3 C1_15 1_555 1_555
C1_15 H1_15 1_555 1_555
C2_15 C1_15 1_555 1_555
H2_15 C2_15 1_555 1_555
C3_15 C2_15 1_555 1_555
C4_15 C3_15 1_555 1_555
H3_15 C4_15 1_555 1_555
C5_15 N5_3 1_555 1_555
H4_15 C5_15 1_555 1_555
C6_15 C3_15 1_555 1_555
S1_19 C6_15 1_555 1_555
C7_15 C6_15 1_555 1_555
C8_15 C7_15 1_555 1_555
C9_15 C8_15 1_555 1_555
H5_15 C9_15 1_555 1_555
C10_15 C9_15 1_555 1_555
H6_15 C10_15 1_555 1_555
N7 C10_15 1_555 1_555
C11_15 N7 1_555 1_555
H7_15 C11_15 1_555 1_555
C12_15 C8_15 1_555 1_555
H8_15 C12_15 1_555 1_555
N3_15 C13_15 1_555 1_555
C13_15 H9_15 1_555 1_555
C14_15 C13_15 1_555 1_555
H10_15 C14_15 1_555 1_555
C15_15 C14_15 1_555 1_555
C16_15 C15_15 1_555 1_555
H11_15 C16_15 1_555 1_555
C17_15 N3_15 1_555 1_555
H12_15 C17_15 1_555 1_555
C18_15 S1_19 1_555 1_555
C19_15 C7_15 1_555 1_555
C20_15 C19_15 1_555 1_555
C21_15 C20_15 1_555 1_555
H13_15 C21_15 1_555 1_555
C22_15 C21_15 1_555 1_555
H14_15 C22_15 1_555 1_555
N4_15 C22_15 1_555 1_555
C23_15 N4_15 1_555 1_555
H15_15 C23_15 1_555 1_555
C24_15 C20_15 1_555 1_555
H16_15 C24_15 1_555 1_555
Ag4 N3_15 1_555 1_555
Ag3 N4_15 1_555 1_555
C4_15 C5_15 1_555 1_555
C11_15 C12_15 1_555 1_555
C15_15 C18_15 1_555 1_555
C16_15 C17_15 1_555 1_555
C18_15 C19_15 1_555 1_555
C23_15 C24_15 1_555 1_555
N5_7 C1_16 1_555 1_555
C1_16 H1_16 1_555 1_555
C2_16 C1_16 1_555 1_555
H2_16 C2_16 1_555 1_555
C3_16 C2_16 1_555 1_555
C4_16 C3_16 1_555 1_555
H3_16 C4_16 1_555 1_555
C5_16 N5_7 1_555 1_555
H4_16 C5_16 1_555 1_555
C6_16 C3_16 1_555 1_555
S1_20 C6_16 1_555 1_555
C7_16 C6_16 1_555 1_555
C8_16 C7_16 1_555 1_555
C9_16 C8_16 1_555 1_555
H5_16 C9_16 1_555 1_555
C10_16 C9_16 1_555 1_555
H6_16 C10_16 1_555 1_555
N7_4 C10_16 1_555 1_555
C11_16 N7_4 1_555 1_555
H7_16 C11_16 1_555 1_555
C12_16 C8_16 1_555 1_555
H8_16 C12_16 1_555 1_555
N3_16 C13_16 1_555 1_555
C13_16 H9_16 1_555 1_555
C14_16 C13_16 1_555 1_555
H10_16 C14_16 1_555 1_555
C15_16 C14_16 1_555 1_555
C16_16 C15_16 1_555 1_555
H11_16 C16_16 1_555 1_555
C17_16 N3_16 1_555 1_555
H12_16 C17_16 1_555 1_555
C18_16 S1_20 1_555 1_555
C19_16 C7_16 1_555 1_555
C20_16 C19_16 1_555 1_555
C21_16 C20_16 1_555 1_555
H13_16 C21_16 1_555 1_555
C22_16 C21_16 1_555 1_555
H14_16 C22_16 1_555 1_555
N4_16 C22_16 1_555 1_555
C23_16 N4_16 1_555 1_555
H15_16 C23_16 1_555 1_555
C24_16 C20_16 1_555 1_555
H16_16 C24_16 1_555 1_555
Ag3_5 N4_16 1_555 1_555
C4_16 C5_16 1_555 1_555
C11_16 C12_16 1_555 1_555
C15_16 C18_16 1_555 1_555
C16_16 C17_16 1_555 1_555
C18_16 C19_16 1_555 1_555
C23_16 C24_16 1_555 1_555

#END
