
###############################################################################
#
# This file contains modified crystal structure data generated from the
# MOF subset of the Cambridge Structural Database (CSD) v543 
# hosted by the Cambridge Crystallographic Data Centre (CCDC).
#
# This work is licensed under the Creative Commons
# Attribution-NonCommercial-ShareAlike 4.0 International License.
# To view a copy of this license, visit
# http://creativecommons.org/licenses/by-nc-sa/4.0/
# or send a letter to
# Creative Commons, PO Box 1866, Mountain View, CA 94042, USA.
#
# CIF created using the CSD Python API on 29 September 2022
# The structure has been converted into the P1 space group
# The structure has a 3D framework
# The original CSD entry AVIVIK is in the tetragonal crystal system
# The framework has been calculated to contain at least 10.0% void space
# The void calculation uses a probe of radius 1.32A, grid spacing 0.4
# The framework is charged, counterions have been retained in the structure
#
###############################################################################

data_AVIVIK
_chemical_formula_moiety         '(C384 H256 Ag6 F194 N64 S20 Sb51 45-)n'
_symmetry_cell_setting           triclinic
_symmetry_space_group_name_H-M   'P 1'
_symmetry_Int_Tables_number      1
_space_group_name_Hall           'P 1'
loop_
_symmetry_equiv_pos_site_id
_symmetry_equiv_pos_as_xyz
1 x,y,z
_cell_length_a                   22.975(5)
_cell_length_b                   22.975(5)
_cell_length_c                   34.298(7)
_cell_angle_alpha                90
_cell_angle_beta                 90
_cell_angle_gamma                90
_cell_volume                     18104.2
loop_
_atom_site_label
_atom_site_type_symbol
_atom_site_fract_x
_atom_site_fract_y
_atom_site_fract_z
Sb1 Sb -0.0000 0.2500 0.8750
F1 F 0.0822(2) 0.2500 0.87487(17)
F2 F 0.0000 0.2500 0.9291(2)
F3 F -0.0000 0.3322(2) 0.87513(17)
F5 F -0.0000 0.1678(2) 0.87513(17)
F6 F -0.0000 0.2500 0.8209(2)
Sb1_2 Sb 1.0000 0.2500 0.8750
F2_2 F 1.0000 0.2500 0.9291(2)
F3_2 F 1.0000 0.3322(2) 0.87513(17)
F4 F 0.9178(2) 0.2500 0.87487(17)
F5_2 F 1.0000 0.1678(2) 0.87513(17)
F6_2 F 1.0000 0.2500 0.8209(2)
Sb1_3 Sb -0.0000 0.7500 0.1250
F1_2 F -0.0000 0.8322(2) 0.12487(17)
F2_3 F -0.0000 0.7500 0.1791(2)
F4_2 F -0.0000 0.6678(2) 0.12487(17)
F5_3 F 0.0822(2) 0.7500 0.12513(17)
F6_3 F -0.0000 0.7500 0.0709(2)
Sb1_4 Sb 1.0000 0.7500 0.1250
F1_3 F 1.0000 0.8322(2) 0.12487(17)
F2_4 F 1.0000 0.7500 0.1791(2)
F3_3 F 0.9178(2) 0.7500 0.12513(17)
F4_3 F 1.0000 0.6678(2) 0.12487(17)
F6_4 F 1.0000 0.7500 0.0709(2)
Sb1_5 Sb 0.5000 0.2500 0.6250
F1_4 F 0.5000 0.1678(2) 0.62487(17)
F2_5 F 0.5000 0.2500 0.6791(2)
F3_4 F 0.5822(2) 0.2500 0.62513(17)
F4_4 F 0.5000 0.3322(2) 0.62487(17)
F5_4 F 0.4178(2) 0.2500 0.62513(17)
F6_5 F 0.5000 0.2500 0.5709(2)
Sb1_6 Sb 0.5000 0.7500 0.3750
F1_5 F 0.5000 0.8322(2) 0.37513(17)
F2_6 F 0.5000 0.7500 0.3209(2)
F3_5 F 0.5822(2) 0.7500 0.37487(17)
F4_5 F 0.5000 0.6678(2) 0.37513(17)
F5_5 F 0.4178(2) 0.7500 0.37487(17)
F6_6 F 0.5000 0.7500 0.4291(2)
Sb2 Sb 0.2500 0.58339(19) 0.7500
F7 F 0.1718(13) 0.5905(10) 0.7655(8)
F8 F 0.2699(10) 0.5192(11) 0.7778(6)
F9 F 0.2615(19) 0.637(2) 0.7819(12)
F10 F 0.3282(13) 0.5905(10) 0.7345(8)
F11 F 0.2301(10) 0.5192(11) 0.7222(6)
F12 F 0.2385(19) 0.637(2) 0.7181(12)
Sb2_2 Sb 0.66661(19) 0.0000 0.0000
F8_2 F 0.7308(11) 0.0199(10) 0.0278(6)
F9_2 F 0.613(2) 0.0115(19) 0.0319(12)
Sb2_3 Sb 0.66661(19) -0.0000 1.0000
F10_2 F 0.6595(10) 0.0782(13) 0.9845(8)
Sb2_4 Sb 0.66661(19) 1.0000 0.0000
F7_2 F 0.6595(10) 0.9218(13) 0.0155(8)
Sb2_5 Sb 0.66661(19) 1.0000 1.0000
F11_2 F 0.7308(11) 0.9801(10) 0.9722(6)
F12_2 F 0.613(2) 0.9885(19) 0.9681(12)
Sb2_6 Sb 0.83339(19) -0.0000 0.5000
F7_3 F 0.8405(10) 0.0782(13) 0.5155(8)
F11_3 F 0.7692(11) 0.0199(10) 0.4722(6)
F12_3 F 0.887(2) 0.0115(19) 0.4681(12)
Sb2_7 Sb 0.83339(19) 1.0000 0.5000
F8_3 F 0.7692(11) 0.9801(10) 0.5278(6)
F9_3 F 0.887(2) 0.9885(19) 0.5319(12)
F10_3 F 0.8405(10) 0.9218(13) 0.4845(8)
Sb2_8 Sb 0.7500 0.08339(19) 0.2500
F7_4 F 0.6718(13) 0.0905(10) 0.2655(8)
F8_4 F 0.7699(10) 0.0192(11) 0.2778(6)
F9_4 F 0.7615(19) 0.137(2) 0.2819(12)
F10_4 F 0.8282(13) 0.0905(10) 0.2345(8)
F11_4 F 0.7301(10) 0.0192(11) 0.2222(6)
F12_4 F 0.7385(19) 0.137(2) 0.2181(12)
Sb2_9 Sb 0.16661(19) 0.5000 0.5000
F7_5 F 0.1595(10) 0.4218(13) 0.5155(8)
F8_5 F 0.2308(11) 0.5199(10) 0.5278(6)
F9_5 F 0.113(2) 0.5115(19) 0.5319(12)
F10_5 F 0.1595(10) 0.5782(13) 0.4845(8)
F11_5 F 0.2308(11) 0.4801(10) 0.4722(6)
F12_5 F 0.113(2) 0.4885(19) 0.4681(12)
Sb2_10 Sb 0.33339(19) 0.5000 0.0000
F7_6 F 0.3405(10) 0.5782(13) 0.0155(8)
F8_6 F 0.2692(11) 0.4801(10) 0.0278(6)
F9_6 F 0.387(2) 0.4885(19) 0.0319(12)
Sb2_11 Sb 0.33339(19) 0.5000 1.0000
F10_6 F 0.3405(10) 0.4218(13) 0.9845(8)
F11_6 F 0.2692(11) 0.5199(10) 0.9722(6)
F12_6 F 0.387(2) 0.5115(19) 0.9681(12)
Sb2_12 Sb 0.2500 0.41661(19) 0.2500
F7_7 F 0.3282(13) 0.4095(10) 0.2655(8)
F8_7 F 0.2301(10) 0.4808(11) 0.2778(6)
F9_7 F 0.2385(19) 0.363(2) 0.2819(12)
F10_7 F 0.1718(13) 0.4095(10) 0.2345(8)
F11_7 F 0.2699(10) 0.4808(11) 0.2222(6)
F12_7 F 0.2615(19) 0.363(2) 0.2181(12)
Sb2_13 Sb 0.7500 0.91661(19) 0.7500
F7_8 F 0.8282(13) 0.9095(10) 0.7655(8)
F8_8 F 0.7301(10) 0.9808(11) 0.7778(6)
F9_8 F 0.7385(19) 0.863(2) 0.7819(12)
F10_8 F 0.6718(13) 0.9095(10) 0.7345(8)
F11_8 F 0.7699(10) 0.9808(11) 0.7222(6)
F12_8 F 0.7615(19) 0.863(2) 0.7181(12)
Sb2_14 Sb 0.7500 0.41661(19) 0.2500
F7_9 F 0.8282(13) 0.4095(10) 0.2345(8)
F8_9 F 0.7301(10) 0.4808(11) 0.2222(6)
F9_9 F 0.7385(19) 0.363(2) 0.2181(12)
F10_9 F 0.6718(13) 0.4095(10) 0.2655(8)
F11_9 F 0.7699(10) 0.4808(11) 0.2778(6)
F12_9 F 0.7615(19) 0.363(2) 0.2819(12)
Sb2_15 Sb 0.33339(19) 0.0000 0.0000
F11_10 F 0.2692(11) 0.0199(10) 0.0278(6)
F12_10 F 0.387(2) 0.0115(19) 0.0319(12)
Sb2_16 Sb 0.33339(19) -0.0000 1.0000
F7_10 F 0.3405(10) 0.0782(13) 0.9845(8)
Sb2_17 Sb 0.33339(19) 1.0000 0.0000
F10_10 F 0.3405(10) 0.9218(13) 0.0155(8)
Sb2_18 Sb 0.33339(19) 1.0000 1.0000
F8_10 F 0.2692(11) 0.9801(10) 0.9722(6)
F9_10 F 0.387(2) 0.9885(19) 0.9681(12)
Sb2_19 Sb 0.16661(19) -0.0000 0.5000
F8_11 F 0.2308(11) 0.0199(10) 0.4722(6)
F9_11 F 0.113(2) 0.0115(19) 0.4681(12)
F10_11 F 0.1595(10) 0.0782(13) 0.5155(8)
Sb2_20 Sb 0.16661(19) 1.0000 0.5000
F7_11 F 0.1595(10) 0.9218(13) 0.4845(8)
F11_11 F 0.2308(11) 0.9801(10) 0.5278(6)
F12_11 F 0.113(2) 0.9885(19) 0.5319(12)
Sb2_21 Sb 0.2500 0.91661(19) 0.7500
F7_12 F 0.3282(13) 0.9095(10) 0.7345(8)
F8_12 F 0.2301(10) 0.9808(11) 0.7222(6)
F9_12 F 0.2385(19) 0.863(2) 0.7181(12)
F10_12 F 0.1718(13) 0.9095(10) 0.7655(8)
F11_12 F 0.2699(10) 0.9808(11) 0.7778(6)
F12_12 F 0.2615(19) 0.863(2) 0.7819(12)
Sb2_22 Sb 0.83339(19) 0.5000 0.5000
F7_13 F 0.8405(10) 0.5782(13) 0.4845(8)
F8_13 F 0.7692(11) 0.4801(10) 0.4722(6)
F9_13 F 0.887(2) 0.4885(19) 0.4681(12)
F10_13 F 0.8405(10) 0.4218(13) 0.5155(8)
F11_13 F 0.7692(11) 0.5199(10) 0.5278(6)
F12_13 F 0.887(2) 0.5115(19) 0.5319(12)
Sb2_23 Sb 0.66661(19) 0.5000 0.0000
F10_14 F 0.6595(10) 0.5782(13) 0.0155(8)
F11_14 F 0.7308(11) 0.4801(10) 0.0278(6)
F12_14 F 0.613(2) 0.4885(19) 0.0319(12)
Sb2_24 Sb 0.66661(19) 0.5000 1.0000
F7_14 F 0.6595(10) 0.4218(13) 0.9845(8)
F8_14 F 0.7308(11) 0.5199(10) 0.9722(6)
F9_14 F 0.613(2) 0.5115(19) 0.9681(12)
Sb2_25 Sb 0.7500 0.58339(19) 0.7500
F7_15 F 0.6718(13) 0.5905(10) 0.7345(8)
F8_15 F 0.7699(10) 0.5192(11) 0.7222(6)
F9_15 F 0.7615(19) 0.637(2) 0.7181(12)
F10_15 F 0.8282(13) 0.5905(10) 0.7655(8)
F11_15 F 0.7301(10) 0.5192(11) 0.7778(6)
F12_15 F 0.7385(19) 0.637(2) 0.7819(12)
Sb2_26 Sb 0.2500 0.08339(19) 0.2500
F7_16 F 0.1718(13) 0.0905(10) 0.2345(8)
F8_16 F 0.2699(10) 0.0192(11) 0.2222(6)
F9_16 F 0.2615(19) 0.137(2) 0.2181(12)
F10_16 F 0.3282(13) 0.0905(10) 0.2655(8)
F11_16 F 0.2301(10) 0.0192(11) 0.2778(6)
F12_16 F 0.2385(19) 0.137(2) 0.2819(12)
Ag1 Ag 0.33474(2) 0.08474(2) 0.6250
N1 N 0.2326(2) 0.0877(3) 0.63622(17)
C1 C 0.2143(3) 0.1207(4) 0.6653(2)
H1 H 0.2425 0.1436 0.6785
C2 C 0.1585(3) 0.1245(4) 0.6779(2)
H2 H 0.1486 0.1490 0.6992
C3 C 0.1158(3) 0.0917(3) 0.6589(2)
C4 C 0.1347(3) 0.0559(3) 0.6289(2)
H3 H 0.1077 0.0319 0.6155
C5 C 0.1927(3) 0.0551(3) 0.6187(2)
H4 H 0.2048 0.0301 0.5982
C6 C 0.0548(3) 0.0937(3) 0.67088(18)
S1 S -0.0000 0.08912(12) 0.63623(8)
C7 C 0.0321(3) 0.0987(3) 0.70768(19)
C8 C 0.0658(3) 0.0989(3) 0.74514(18)
C9 C 0.0888(4) 0.0490(4) 0.7586(2)
H5 H 0.0848 0.0140 0.7442
C10 C 0.1177(4) 0.0492(4) 0.7931(2)
H6 H 0.1338 0.0134 0.8018
N2 N 0.1254(2) 0.0965(2) 0.81602(15)
C11 C 0.1036(3) 0.1451(3) 0.80152(19)
H7 H 0.1087 0.1801 0.8159
C12 C 0.0738(3) 0.1478(3) 0.7668(2)
H8 H 0.0589 0.1840 0.7578
N6 N 0.3465(2) 0.1246(2) 0.56602(15)
N7 N 0.3746(2) 0.0965(2) 0.68398(15)
Ag3 Ag 0.16526(2) 0.08474(2) 0.8750
N5 N 0.3377(3) 0.9826(2) 0.61378(17)
S1_2 S 1.0000 0.08912(12) 0.63623(8)
C13 C 0.9452(3) 0.0937(3) 0.67088(18)
C14 C 0.8842(3) 0.0917(3) 0.6589(2)
C15 C 0.8415(3) 0.1245(4) 0.6779(2)
C16 C 0.7857(3) 0.1207(4) 0.6653(2)
N3 N 0.7674(2) 0.0877(3) 0.63622(17)
C17 C 0.8073(3) 0.0551(3) 0.6187(2)
C18 C 0.8653(3) 0.0559(3) 0.6289(2)
H9 H 0.8923 0.0319 0.6155
H10 H 0.7952 0.0301 0.5982
H11 H 0.7575 0.1436 0.6785
H12 H 0.8514 0.1490 0.6992
C19 C 0.9679(3) 0.0987(3) 0.70768(19)
C20 C 0.9342(3) 0.0989(3) 0.74514(18)
C21 C 0.9112(4) 0.0490(4) 0.7586(2)
H13 H 0.9152 0.0140 0.7442
C22 C 0.8823(4) 0.0492(4) 0.7931(2)
H14 H 0.8662 0.0134 0.8018
N4 N 0.8746(2) 0.0965(2) 0.81602(15)
C23 C 0.8964(3) 0.1451(3) 0.80152(19)
H15 H 0.8913 0.1801 0.8159
C24 C 0.9262(3) 0.1478(3) 0.7668(2)
H16 H 0.9411 0.1840 0.7578
Ag2 Ag 0.66526(2) 0.08474(2) 0.6250
Ag4 Ag 0.83474(2) 0.08474(2) 0.8750
N5_2 N 0.2674(2) 0.0877(3) 0.86378(17)
N7_2 N 0.1535(2) 0.1246(2) 0.93398(15)
C9_2 C 0.2010(4) 0.8388(4) 0.0086(2)
C10_2 C 0.2008(4) 0.8677(4) 0.0431(2)
H6_2 H 0.2366 0.8838 0.0518
N2_2 N 0.1535(2) 0.8754(2) 0.06602(15)
C11_2 C 0.1049(3) 0.8536(3) 0.05152(19)
H7_2 H 0.0699 0.8587 0.0659
C12_2 C 0.1022(3) 0.8238(3) 0.0168(2)
H8_2 H 0.0660 0.8089 0.0078
C21_2 C 0.2010(4) 0.6612(4) 0.0086(2)
C22_2 C 0.2008(4) 0.6323(4) 0.0431(2)
H14_2 H 0.2366 0.6162 0.0518
N4_2 N 0.1535(2) 0.6246(2) 0.06602(15)
C23_2 C 0.1049(3) 0.6464(3) 0.05152(19)
H15_2 H 0.0699 0.6413 0.0659
C24_2 C 0.1022(3) 0.6762(3) 0.0168(2)
H16_2 H 0.0660 0.6911 0.0078
Ag3_2 Ag 0.16526(2) 0.91526(2) 0.1250
Ag4_2 Ag 0.16526(2) 0.58474(2) 0.1250
N1_2 N 0.1623(3) 0.9826(2) 0.88622(17)
C1_2 C 0.1293(4) 0.9643(3) 0.9153(2)
H1_2 H 0.1064 0.9925 0.9285
C2_2 C 0.1255(4) 0.9085(3) 0.9279(2)
H2_2 H 0.1010 0.8986 0.9492
C3_2 C 0.1583(3) 0.8658(3) 0.9089(2)
C4_2 C 0.1941(3) 0.8847(3) 0.8789(2)
H3_2 H 0.2181 0.8577 0.8655
C5_2 C 0.1949(3) 0.9427(3) 0.8687(2)
H4_2 H 0.2199 0.9548 0.8482
C6_2 C 0.1563(3) 0.8048(3) 0.92088(18)
S1_3 S 0.16088(12) 0.7500 0.88623(8)
C7_2 C 0.1513(3) 0.7821(3) 0.95768(19)
C8_2 C 0.1511(3) 0.8158(3) 0.99514(18)
H5_2 H 0.2360 0.8348 0.9942
C13_2 C 0.1563(3) 0.6952(3) 0.92088(18)
C14_2 C 0.1583(3) 0.6342(3) 0.9089(2)
C15_2 C 0.1255(4) 0.5915(3) 0.9279(2)
C16_2 C 0.1293(4) 0.5357(3) 0.9153(2)
N3_2 N 0.1623(3) 0.5174(2) 0.88622(17)
C17_2 C 0.1949(3) 0.5573(3) 0.8687(2)
C18_2 C 0.1941(3) 0.6153(3) 0.8789(2)
H9_2 H 0.2181 0.6423 0.8655
H10_2 H 0.2199 0.5452 0.8482
H11_2 H 0.1064 0.5075 0.9285
H12_2 H 0.1010 0.6014 0.9492
C19_2 C 0.1513(3) 0.7179(3) 0.95768(19)
C20_2 C 0.1511(3) 0.6842(3) 0.99514(18)
H13_2 H 0.2360 0.6652 0.9942
Ag2_2 Ag 0.16526(2) 0.41526(2) 0.8750
N1_3 N 0.3377(3) 0.0174(2) 0.38622(17)
C1_3 C 0.3707(4) 0.0357(3) 0.4153(2)
H1_3 H 0.3936 0.0075 0.4285
C2_3 C 0.3745(4) 0.0915(3) 0.4279(2)
H2_3 H 0.3990 0.1014 0.4492
C3_3 C 0.3417(3) 0.1342(3) 0.4089(2)
C4_3 C 0.3059(3) 0.1153(3) 0.3789(2)
H3_3 H 0.2819 0.1423 0.3655
C5_3 C 0.3051(3) 0.0573(3) 0.3687(2)
H4_3 H 0.2801 0.0452 0.3482
C6_3 C 0.3437(3) 0.1952(3) 0.42088(18)
S1_4 S 0.33912(12) 0.2500 0.38623(8)
C7_3 C 0.3487(3) 0.2179(3) 0.45768(19)
C8_3 C 0.3489(3) 0.1842(3) 0.49514(18)
C9_3 C 0.2990(4) 0.1612(4) 0.5086(2)
H5_3 H 0.2640 0.1652 0.4942
C10_3 C 0.2992(4) 0.1323(4) 0.5431(2)
H6_3 H 0.2634 0.1162 0.5518
C11_3 C 0.3951(3) 0.1464(3) 0.55152(19)
H7_3 H 0.4301 0.1413 0.5659
C12_3 C 0.3978(3) 0.1762(3) 0.5168(2)
H8_3 H 0.4340 0.1911 0.5078
C13_3 C 0.3437(3) 0.3048(3) 0.42088(18)
C14_3 C 0.3417(3) 0.3658(3) 0.4089(2)
C15_3 C 0.3745(4) 0.4085(3) 0.4279(2)
C16_3 C 0.3707(4) 0.4643(3) 0.4153(2)
N3_3 N 0.3377(3) 0.4826(2) 0.38622(17)
C17_3 C 0.3051(3) 0.4427(3) 0.3687(2)
C18_3 C 0.3059(3) 0.3847(3) 0.3789(2)
H9_3 H 0.2819 0.3577 0.3655
H10_3 H 0.2801 0.4548 0.3482
H11_3 H 0.3936 0.4925 0.4285
H12_3 H 0.3990 0.3986 0.4492
C19_3 C 0.3487(3) 0.2821(3) 0.45768(19)
C20_3 C 0.3489(3) 0.3158(3) 0.49514(18)
C21_3 C 0.2990(4) 0.3388(4) 0.5086(2)
H13_3 H 0.2640 0.3348 0.4942
C22_3 C 0.2992(4) 0.3677(4) 0.5431(2)
H14_3 H 0.2634 0.3838 0.5518
N4_3 N 0.3465(2) 0.3754(2) 0.56602(15)
C23_3 C 0.3951(3) 0.3536(3) 0.55152(19)
H15_3 H 0.4301 0.3587 0.5659
C24_3 C 0.3978(3) 0.3238(3) 0.5168(2)
H16_3 H 0.4340 0.3089 0.5078
Ag2_3 Ag 0.33474(2) 0.58474(2) 0.3750
Ag4_3 Ag 0.33474(2) 0.41526(2) 0.6250
Ag1_2 Ag 0.33474(2) 0.91526(2) 0.3750
N5_3 N 0.2326(2) 0.9123(3) 0.36378(17)
N6_2 N 0.3746(2) 0.9035(2) 0.31602(15)
N7_3 N 0.3465(2) 0.8754(2) 0.43398(15)
C1_4 C 0.3707(4) 0.9643(3) 0.5847(2)
H1_4 H 0.3936 0.9925 0.5715
C2_4 C 0.3745(4) 0.9085(3) 0.5721(2)
H2_4 H 0.3990 0.8986 0.5508
C3_4 C 0.3417(3) 0.8658(3) 0.5911(2)
C4_4 C 0.3059(3) 0.8847(3) 0.6211(2)
H3_4 H 0.2819 0.8577 0.6345
C5_4 C 0.3051(3) 0.9427(3) 0.6313(2)
H4_4 H 0.2801 0.9548 0.6518
C6_4 C 0.3437(3) 0.8048(3) 0.57912(18)
S1_5 S 0.33912(12) 0.7500 0.61377(8)
C7_4 C 0.3487(3) 0.7821(3) 0.54232(19)
C8_4 C 0.3489(3) 0.8158(3) 0.50486(18)
C9_4 C 0.2990(4) 0.8388(4) 0.4914(2)
H5_4 H 0.2640 0.8348 0.5058
C10_4 C 0.2992(4) 0.8677(4) 0.4569(2)
H6_4 H 0.2634 0.8838 0.4482
C11_4 C 0.3951(3) 0.8536(3) 0.44848(19)
H7_4 H 0.4301 0.8587 0.4341
C12_4 C 0.3978(3) 0.8238(3) 0.4832(2)
H8_4 H 0.4340 0.8089 0.4922
C13_4 C 0.3437(3) 0.6952(3) 0.57912(18)
C14_4 C 0.3417(3) 0.6342(3) 0.5911(2)
C15_4 C 0.3745(4) 0.5915(3) 0.5721(2)
C16_4 C 0.3707(4) 0.5357(3) 0.5847(2)
N3_4 N 0.3377(3) 0.5174(2) 0.61378(17)
C17_4 C 0.3051(3) 0.5573(3) 0.6313(2)
C18_4 C 0.3059(3) 0.6153(3) 0.6211(2)
H9_4 H 0.2819 0.6423 0.6345
H10_4 H 0.2801 0.5452 0.6518
H11_4 H 0.3936 0.5075 0.5715
H12_4 H 0.3990 0.6014 0.5508
C19_4 C 0.3487(3) 0.7179(3) 0.54232(19)
C20_4 C 0.3489(3) 0.6842(3) 0.50486(18)
C21_4 C 0.2990(4) 0.6612(4) 0.4914(2)
H13_4 H 0.2640 0.6652 0.5058
C22_4 C 0.2992(4) 0.6323(4) 0.4569(2)
H14_4 H 0.2634 0.6162 0.4482
N4_4 N 0.3465(2) 0.6246(2) 0.43398(15)
C23_4 C 0.3951(3) 0.6464(3) 0.44848(19)
H15_4 H 0.4301 0.6413 0.4341
C24_4 C 0.3978(3) 0.6762(3) 0.4832(2)
H16_4 H 0.4340 0.6911 0.4922
Ag1_3 Ag 0.83474(2) 0.58474(2) 0.1250
N1_4 N 0.7326(2) 0.5877(3) 0.13622(17)
C1_5 C 0.7143(3) 0.6207(4) 0.1653(2)
H1_5 H 0.7425 0.6436 0.1785
C2_5 C 0.6585(3) 0.6245(4) 0.1779(2)
H2_5 H 0.6486 0.6490 0.1992
C3_5 C 0.6158(3) 0.5917(3) 0.1589(2)
C4_5 C 0.6347(3) 0.5559(3) 0.1289(2)
H3_5 H 0.6077 0.5319 0.1155
C5_5 C 0.6927(3) 0.5551(3) 0.1187(2)
H4_5 H 0.7048 0.5301 0.0982
C6_5 C 0.5548(3) 0.5937(3) 0.17088(18)
S1_6 S 0.5000 0.58912(12) 0.13623(8)
C7_5 C 0.5321(3) 0.5987(3) 0.20768(19)
C8_5 C 0.5658(3) 0.5989(3) 0.24514(18)
C9_5 C 0.5888(4) 0.5490(4) 0.2586(2)
H5_5 H 0.5848 0.5140 0.2442
C10_5 C 0.6177(4) 0.5492(4) 0.2931(2)
H6_5 H 0.6338 0.5134 0.3018
N2_3 N 0.6254(2) 0.5965(2) 0.31602(15)
C11_5 C 0.6036(3) 0.6451(3) 0.30152(19)
H7_5 H 0.6087 0.6801 0.3159
C12_5 C 0.5738(3) 0.6478(3) 0.2668(2)
H8_5 H 0.5589 0.6840 0.2578
C13_5 C 0.4452(3) 0.5937(3) 0.17088(18)
C14_5 C 0.3842(3) 0.5917(3) 0.1589(2)
C15_5 C 0.3415(3) 0.6245(4) 0.1779(2)
C16_5 C 0.2857(3) 0.6207(4) 0.1653(2)
N3_5 N 0.2674(2) 0.5877(3) 0.13622(17)
C17_5 C 0.3073(3) 0.5551(3) 0.1187(2)
C18_5 C 0.3653(3) 0.5559(3) 0.1289(2)
H9_5 H 0.3923 0.5319 0.1155
H10_5 H 0.2952 0.5301 0.0982
H11_5 H 0.2575 0.6436 0.1785
H12_5 H 0.3514 0.6490 0.1992
C19_5 C 0.4679(3) 0.5987(3) 0.20768(19)
C20_5 C 0.4342(3) 0.5989(3) 0.24514(18)
C21_5 C 0.4112(4) 0.5490(4) 0.2586(2)
H13_5 H 0.4152 0.5140 0.2442
C22_5 C 0.3823(4) 0.5492(4) 0.2931(2)
H14_5 H 0.3662 0.5134 0.3018
N4_5 N 0.3746(2) 0.5965(2) 0.31602(15)
C23_5 C 0.3964(3) 0.6451(3) 0.30152(19)
H15_5 H 0.3913 0.6801 0.3159
C24_5 C 0.4262(3) 0.6478(3) 0.2668(2)
H16_5 H 0.4411 0.6840 0.2578
N5_4 N 0.8377(3) 0.4826(2) 0.11378(17)
N6_3 N 0.8465(2) 0.6246(2) 0.06602(15)
N7_4 N 0.8746(2) 0.5965(2) 0.18398(15)
Ag3_3 Ag 0.66526(2) 0.58474(2) 0.3750
N1_5 N 0.6623(3) 0.4826(2) 0.38622(17)
C1_6 C 0.6293(4) 0.4643(3) 0.4153(2)
H1_6 H 0.6064 0.4925 0.4285
C2_6 C 0.6255(4) 0.4085(3) 0.4279(2)
H2_6 H 0.6010 0.3986 0.4492
C3_6 C 0.6583(3) 0.3658(3) 0.4089(2)
C4_6 C 0.6941(3) 0.3847(3) 0.3789(2)
H3_6 H 0.7181 0.3577 0.3655
C5_6 C 0.6949(3) 0.4427(3) 0.3687(2)
H4_6 H 0.7199 0.4548 0.3482
C6_6 C 0.6563(3) 0.3048(3) 0.42088(18)
S1_7 S 0.66088(12) 0.2500 0.38623(8)
C7_6 C 0.6513(3) 0.2821(3) 0.45768(19)
C8_6 C 0.6511(3) 0.3158(3) 0.49514(18)
C9_6 C 0.7010(4) 0.3388(4) 0.5086(2)
H5_6 H 0.7360 0.3348 0.4942
C10_6 C 0.7008(4) 0.3677(4) 0.5431(2)
H6_6 H 0.7366 0.3838 0.5518
N2_4 N 0.6535(2) 0.3754(2) 0.56602(15)
C11_6 C 0.6049(3) 0.3536(3) 0.55152(19)
H7_6 H 0.5699 0.3587 0.5659
C12_6 C 0.6022(3) 0.3238(3) 0.5168(2)
H8_6 H 0.5660 0.3089 0.5078
C13_6 C 0.6563(3) 0.1952(3) 0.42088(18)
C14_6 C 0.6583(3) 0.1342(3) 0.4089(2)
C15_6 C 0.6255(4) 0.0915(3) 0.4279(2)
C16_6 C 0.6293(4) 0.0357(3) 0.4153(2)
N3_6 N 0.6623(3) 0.0174(2) 0.38622(17)
C17_6 C 0.6949(3) 0.0573(3) 0.3687(2)
C18_6 C 0.6941(3) 0.1153(3) 0.3789(2)
H9_6 H 0.7181 0.1423 0.3655
H10_6 H 0.7199 0.0452 0.3482
H11_6 H 0.6064 0.0075 0.4285
H12_6 H 0.6010 0.1014 0.4492
C19_6 C 0.6513(3) 0.2179(3) 0.45768(19)
C20_6 C 0.6511(3) 0.1842(3) 0.49514(18)
C21_6 C 0.7010(4) 0.1612(4) 0.5086(2)
H13_6 H 0.7360 0.1652 0.4942
C22_6 C 0.7008(4) 0.1323(4) 0.5431(2)
H14_6 H 0.7366 0.1162 0.5518
N4_6 N 0.6535(2) 0.1246(2) 0.56602(15)
C23_6 C 0.6049(3) 0.1464(3) 0.55152(19)
H15_6 H 0.5699 0.1413 0.5659
C24_6 C 0.6022(3) 0.1762(3) 0.5168(2)
H16_6 H 0.5660 0.1911 0.5078
N5_5 N 0.7674(2) 0.5877(3) 0.36378(17)
N7_5 N 0.6535(2) 0.6246(2) 0.43398(15)
Ag3_4 Ag 0.66526(2) 0.41526(2) 0.6250
Ag2_4 Ag 0.66526(2) 0.91526(2) 0.3750
C9_7 C 0.7990(4) 0.6612(4) 0.0086(2)
C10_7 C 0.7992(4) 0.6323(4) 0.0431(2)
H6_7 H 0.7634 0.6162 0.0518
C11_7 C 0.8951(3) 0.6464(3) 0.05152(19)
H7_7 H 0.9301 0.6413 0.0659
C12_7 C 0.8978(3) 0.6762(3) 0.0168(2)
H8_7 H 0.9340 0.6911 0.0078
C21_7 C 0.7990(4) 0.8388(4) 0.0086(2)
C22_7 C 0.7992(4) 0.8677(4) 0.0431(2)
H14_7 H 0.7634 0.8838 0.0518
N4_7 N 0.8465(2) 0.8754(2) 0.06602(15)
C23_7 C 0.8951(3) 0.8536(3) 0.05152(19)
H15_7 H 0.9301 0.8587 0.0659
C24_7 C 0.8978(3) 0.8238(3) 0.0168(2)
H16_7 H 0.9340 0.8089 0.0078
Ag4_4 Ag 0.83474(2) 0.91526(2) 0.1250
Ag1_4 Ag 0.83474(2) 0.41526(2) 0.8750
N1_6 N 0.8377(3) 0.5174(2) 0.88622(17)
C1_7 C 0.8707(4) 0.5357(3) 0.9153(2)
H1_7 H 0.8936 0.5075 0.9285
C2_7 C 0.8745(4) 0.5915(3) 0.9279(2)
H2_7 H 0.8990 0.6014 0.9492
C3_7 C 0.8417(3) 0.6342(3) 0.9089(2)
C4_7 C 0.8059(3) 0.6153(3) 0.8789(2)
H3_7 H 0.7819 0.6423 0.8655
C5_7 C 0.8051(3) 0.5573(3) 0.8687(2)
H4_7 H 0.7801 0.5452 0.8482
C6_7 C 0.8437(3) 0.6952(3) 0.92088(18)
S1_8 S 0.83912(12) 0.7500 0.88623(8)
C7_7 C 0.8487(3) 0.7179(3) 0.95768(19)
C8_7 C 0.8489(3) 0.6842(3) 0.99514(18)
H5_7 H 0.7640 0.6652 0.9942
C13_7 C 0.8437(3) 0.8048(3) 0.92088(18)
C14_7 C 0.8417(3) 0.8658(3) 0.9089(2)
C15_7 C 0.8745(4) 0.9085(3) 0.9279(2)
C16_7 C 0.8707(4) 0.9643(3) 0.9153(2)
N3_7 N 0.8377(3) 0.9826(2) 0.88622(17)
C17_7 C 0.8051(3) 0.9427(3) 0.8687(2)
C18_7 C 0.8059(3) 0.8847(3) 0.8789(2)
H9_7 H 0.7819 0.8577 0.8655
H10_7 H 0.7801 0.9548 0.8482
H11_7 H 0.8936 0.9925 0.9285
H12_7 H 0.8990 0.8986 0.9492
C19_7 C 0.8487(3) 0.7821(3) 0.95768(19)
C20_7 C 0.8489(3) 0.8158(3) 0.99514(18)
H13_7 H 0.7640 0.8348 0.9942
N5_6 N 0.7326(2) 0.4123(3) 0.86378(17)
N6_4 N 0.8746(2) 0.4035(2) 0.81602(15)
N7_6 N 0.8465(2) 0.3754(2) 0.93398(15)
C1_8 C 0.8707(4) 0.4643(3) 0.0847(2)
H1_8 H 0.8936 0.4925 0.0715
C2_8 C 0.8745(4) 0.4085(3) 0.0721(2)
H2_8 H 0.8990 0.3986 0.0508
C3_8 C 0.8417(3) 0.3658(3) 0.0911(2)
C4_8 C 0.8059(3) 0.3847(3) 0.1211(2)
H3_8 H 0.7819 0.3577 0.1345
C5_8 C 0.8051(3) 0.4427(3) 0.1313(2)
H4_8 H 0.7801 0.4548 0.1518
C6_8 C 0.8437(3) 0.3048(3) 0.07912(18)
S1_9 S 0.83912(12) 0.2500 0.11377(8)
C7_8 C 0.8487(3) 0.2821(3) 0.04232(19)
C8_8 C 0.8489(3) 0.3158(3) 0.00486(18)
H5_8 H 0.7640 0.3348 0.0058
C13_8 C 0.8437(3) 0.1952(3) 0.07912(18)
C14_8 C 0.8417(3) 0.1342(3) 0.0911(2)
C15_8 C 0.8745(4) 0.0915(3) 0.0721(2)
C16_8 C 0.8707(4) 0.0357(3) 0.0847(2)
N3_8 N 0.8377(3) 0.0174(2) 0.11378(17)
C17_8 C 0.8051(3) 0.0573(3) 0.1313(2)
C18_8 C 0.8059(3) 0.1153(3) 0.1211(2)
H9_8 H 0.7819 0.1423 0.1345
H10_8 H 0.7801 0.0452 0.1518
H11_8 H 0.8936 0.0075 0.0715
H12_8 H 0.8990 0.1014 0.0508
C19_8 C 0.8487(3) 0.2179(3) 0.04232(19)
C20_8 C 0.8489(3) 0.1842(3) 0.00486(18)
H13_8 H 0.7640 0.1652 0.0058
C9_8 C 0.7990(4) 0.3388(4) 0.9914(2)
C10_8 C 0.7992(4) 0.3677(4) 0.9569(2)
H6_8 H 0.7634 0.3838 0.9482
C11_8 C 0.8951(3) 0.3536(3) 0.94848(19)
H7_8 H 0.9301 0.3587 0.9341
C12_8 C 0.8978(3) 0.3238(3) 0.9832(2)
H8_8 H 0.9340 0.3089 0.9922
C21_8 C 0.7990(4) 0.1612(4) 0.9914(2)
C22_8 C 0.7992(4) 0.1323(4) 0.9569(2)
H14_8 H 0.7634 0.1162 0.9482
N4_8 N 0.8465(2) 0.1246(2) 0.93398(15)
C23_8 C 0.8951(3) 0.1464(3) 0.94848(19)
H15_8 H 0.9301 0.1413 0.9341
C24_8 C 0.8978(3) 0.1762(3) 0.9832(2)
H16_8 H 0.9340 0.1911 0.9922
N5_7 N 0.1623(3) 0.0174(2) 0.11378(17)
N1_7 N 0.2674(2) 0.9123(3) 0.13622(17)
C1_9 C 0.2857(3) 0.8793(4) 0.1653(2)
H1_9 H 0.2575 0.8564 0.1785
C2_9 C 0.3415(3) 0.8755(4) 0.1779(2)
H2_9 H 0.3514 0.8510 0.1992
C3_9 C 0.3842(3) 0.9083(3) 0.1589(2)
C4_9 C 0.3653(3) 0.9441(3) 0.1289(2)
H3_9 H 0.3923 0.9681 0.1155
C5_9 C 0.3073(3) 0.9449(3) 0.1187(2)
H4_9 H 0.2952 0.9699 0.0982
C6_9 C 0.4452(3) 0.9063(3) 0.17088(18)
S1_10 S 0.5000 0.91088(12) 0.13623(8)
C7_9 C 0.4679(3) 0.9013(3) 0.20768(19)
C8_9 C 0.4342(3) 0.9011(3) 0.24514(18)
C9_9 C 0.4112(4) 0.9510(4) 0.2586(2)
H5_9 H 0.4152 0.9860 0.2442
C10_9 C 0.3823(4) 0.9508(4) 0.2931(2)
H6_9 H 0.3662 0.9866 0.3018
C11_9 C 0.3964(3) 0.8549(3) 0.30152(19)
H7_9 H 0.3913 0.8199 0.3159
C12_9 C 0.4262(3) 0.8522(3) 0.2668(2)
H8_9 H 0.4411 0.8160 0.2578
C13_9 C 0.5548(3) 0.9063(3) 0.17088(18)
C14_9 C 0.6158(3) 0.9083(3) 0.1589(2)
C15_9 C 0.6585(3) 0.8755(4) 0.1779(2)
C16_9 C 0.7143(3) 0.8793(4) 0.1653(2)
N3_9 N 0.7326(2) 0.9123(3) 0.13622(17)
C17_9 C 0.6927(3) 0.9449(3) 0.1187(2)
C18_9 C 0.6347(3) 0.9441(3) 0.1289(2)
H9_9 H 0.6077 0.9681 0.1155
H10_9 H 0.7048 0.9699 0.0982
H11_9 H 0.7425 0.8564 0.1785
H12_9 H 0.6486 0.8510 0.1992
C19_9 C 0.5321(3) 0.9013(3) 0.20768(19)
C20_9 C 0.5658(3) 0.9011(3) 0.24514(18)
C21_9 C 0.5888(4) 0.9510(4) 0.2586(2)
H13_9 H 0.5848 0.9860 0.2442
C22_9 C 0.6177(4) 0.9508(4) 0.2931(2)
H14_9 H 0.6338 0.9866 0.3018
N4_9 N 0.6254(2) 0.9035(2) 0.31602(15)
C23_9 C 0.6036(3) 0.8549(3) 0.30152(19)
H15_9 H 0.6087 0.8199 0.3159
C24_9 C 0.5738(3) 0.8522(3) 0.2668(2)
H16_9 H 0.5589 0.8160 0.2578
N7_7 N 0.1254(2) 0.9035(2) 0.18398(15)
C1_10 C 0.2857(3) 0.1207(4) 0.8347(2)
H1_10 H 0.2575 0.1436 0.8215
C2_10 C 0.3415(3) 0.1245(4) 0.8221(2)
H2_10 H 0.3514 0.1490 0.8008
C3_10 C 0.3842(3) 0.0917(3) 0.8411(2)
C4_10 C 0.3653(3) 0.0559(3) 0.8711(2)
H3_10 H 0.3923 0.0319 0.8845
C5_10 C 0.3073(3) 0.0551(3) 0.8813(2)
H4_10 H 0.2952 0.0301 0.9018
C6_10 C 0.4452(3) 0.0937(3) 0.82912(18)
S1_11 S 0.5000 0.08912(12) 0.86377(8)
C7_10 C 0.4679(3) 0.0987(3) 0.79232(19)
C8_10 C 0.4342(3) 0.0989(3) 0.75486(18)
C9_10 C 0.4112(4) 0.0490(4) 0.7414(2)
H5_10 H 0.4152 0.0140 0.7558
C10_10 C 0.3823(4) 0.0492(4) 0.7069(2)
H6_10 H 0.3662 0.0134 0.6982
C11_10 C 0.3964(3) 0.1451(3) 0.69848(19)
H7_10 H 0.3913 0.1801 0.6841
C12_10 C 0.4262(3) 0.1478(3) 0.7332(2)
H8_10 H 0.4411 0.1840 0.7422
C13_10 C 0.5548(3) 0.0937(3) 0.82912(18)
C14_10 C 0.6158(3) 0.0917(3) 0.8411(2)
C15_10 C 0.6585(3) 0.1245(4) 0.8221(2)
C16_10 C 0.7143(3) 0.1207(4) 0.8347(2)
N3_10 N 0.7326(2) 0.0877(3) 0.86378(17)
C17_10 C 0.6927(3) 0.0551(3) 0.8813(2)
C18_10 C 0.6347(3) 0.0559(3) 0.8711(2)
H9_10 H 0.6077 0.0319 0.8845
H10_10 H 0.7048 0.0301 0.9018
H11_10 H 0.7425 0.1436 0.8215
H12_10 H 0.6486 0.1490 0.8008
C19_10 C 0.5321(3) 0.0987(3) 0.79232(19)
C20_10 C 0.5658(3) 0.0989(3) 0.75486(18)
C21_10 C 0.5888(4) 0.0490(4) 0.7414(2)
H13_10 H 0.5848 0.0140 0.7558
C22_10 C 0.6177(4) 0.0492(4) 0.7069(2)
H14_10 H 0.6338 0.0134 0.6982
N4_10 N 0.6254(2) 0.0965(2) 0.68398(15)
C23_10 C 0.6036(3) 0.1451(3) 0.69848(19)
H15_10 H 0.6087 0.1801 0.6841
C24_10 C 0.5738(3) 0.1478(3) 0.7332(2)
H16_10 H 0.5589 0.1840 0.7422
C1_11 C 0.2143(3) 0.8793(4) 0.3347(2)
H1_11 H 0.2425 0.8564 0.3215
C2_11 C 0.1585(3) 0.8755(4) 0.3221(2)
H2_11 H 0.1486 0.8510 0.3008
C3_11 C 0.1158(3) 0.9083(3) 0.3411(2)
C4_11 C 0.1347(3) 0.9441(3) 0.3711(2)
H3_11 H 0.1077 0.9681 0.3845
C5_11 C 0.1927(3) 0.9449(3) 0.3813(2)
H4_11 H 0.2048 0.9699 0.4018
C6_11 C 0.0548(3) 0.9063(3) 0.32912(18)
S1_12 S -0.0000 0.91088(12) 0.36377(8)
C7_11 C 0.0321(3) 0.9013(3) 0.29232(19)
C8_11 C 0.0658(3) 0.9011(3) 0.25486(18)
C9_11 C 0.0888(4) 0.9510(4) 0.2414(2)
H5_11 H 0.0848 0.9860 0.2558
C10_11 C 0.1177(4) 0.9508(4) 0.2069(2)
H6_11 H 0.1338 0.9866 0.1982
C11_11 C 0.1036(3) 0.8549(3) 0.19848(19)
H7_11 H 0.1087 0.8199 0.1841
C12_11 C 0.0738(3) 0.8522(3) 0.2332(2)
H8_11 H 0.0589 0.8160 0.2422
S1_13 S 1.0000 0.91088(12) 0.36377(8)
C13_11 C 0.9452(3) 0.9063(3) 0.32912(18)
C14_11 C 0.8842(3) 0.9083(3) 0.3411(2)
C15_11 C 0.8415(3) 0.8755(4) 0.3221(2)
C16_11 C 0.7857(3) 0.8793(4) 0.3347(2)
N3_11 N 0.7674(2) 0.9123(3) 0.36378(17)
C17_11 C 0.8073(3) 0.9449(3) 0.3813(2)
C18_11 C 0.8653(3) 0.9441(3) 0.3711(2)
H9_11 H 0.8923 0.9681 0.3845
H10_11 H 0.7952 0.9699 0.4018
H11_11 H 0.7575 0.8564 0.3215
H12_11 H 0.8514 0.8510 0.3008
C19_11 C 0.9679(3) 0.9013(3) 0.29232(19)
C20_11 C 0.9342(3) 0.9011(3) 0.25486(18)
C21_11 C 0.9112(4) 0.9510(4) 0.2414(2)
H13_11 H 0.9152 0.9860 0.2558
C22_11 C 0.8823(4) 0.9508(4) 0.2069(2)
H14_11 H 0.8662 0.9866 0.1982
N4_11 N 0.8746(2) 0.9035(2) 0.18398(15)
C23_11 C 0.8964(3) 0.8549(3) 0.19848(19)
H15_11 H 0.8913 0.8199 0.1841
C24_11 C 0.9262(3) 0.8522(3) 0.2332(2)
H16_11 H 0.9411 0.8160 0.2422
C1_12 C 0.1293(4) 0.0357(3) 0.0847(2)
H1_12 H 0.1064 0.0075 0.0715
C2_12 C 0.1255(4) 0.0915(3) 0.0721(2)
H2_12 H 0.1010 0.1014 0.0508
C3_12 C 0.1583(3) 0.1342(3) 0.0911(2)
C4_12 C 0.1941(3) 0.1153(3) 0.1211(2)
H3_12 H 0.2181 0.1423 0.1345
C5_12 C 0.1949(3) 0.0573(3) 0.1313(2)
H4_12 H 0.2199 0.0452 0.1518
C6_12 C 0.1563(3) 0.1952(3) 0.07912(18)
S1_14 S 0.16088(12) 0.2500 0.11377(8)
C7_12 C 0.1513(3) 0.2179(3) 0.04232(19)
C8_12 C 0.1511(3) 0.1842(3) 0.00486(18)
H5_12 H 0.2360 0.1652 0.0058
C13_12 C 0.1563(3) 0.3048(3) 0.07912(18)
C14_12 C 0.1583(3) 0.3658(3) 0.0911(2)
C15_12 C 0.1255(4) 0.4085(3) 0.0721(2)
C16_12 C 0.1293(4) 0.4643(3) 0.0847(2)
N3_12 N 0.1623(3) 0.4826(2) 0.11378(17)
C17_12 C 0.1949(3) 0.4427(3) 0.1313(2)
C18_12 C 0.1941(3) 0.3847(3) 0.1211(2)
H9_12 H 0.2181 0.3577 0.1345
H10_12 H 0.2199 0.4548 0.1518
H11_12 H 0.1064 0.4925 0.0715
H12_12 H 0.1010 0.3986 0.0508
C19_12 C 0.1513(3) 0.2821(3) 0.04232(19)
C20_12 C 0.1511(3) 0.3158(3) 0.00486(18)
H13_12 H 0.2360 0.3348 0.0058
C9_12 C 0.2010(4) 0.1612(4) 0.9914(2)
C10_12 C 0.2008(4) 0.1323(4) 0.9569(2)
H6_12 H 0.2366 0.1162 0.9482
C11_12 C 0.1049(3) 0.1464(3) 0.94848(19)
H7_12 H 0.0699 0.1413 0.9341
C12_12 C 0.1022(3) 0.1762(3) 0.9832(2)
H8_12 H 0.0660 0.1911 0.9922
C21_12 C 0.2010(4) 0.3388(4) 0.9914(2)
C22_12 C 0.2008(4) 0.3677(4) 0.9569(2)
H14_12 H 0.2366 0.3838 0.9482
N4_12 N 0.1535(2) 0.3754(2) 0.93398(15)
C23_12 C 0.1049(3) 0.3536(3) 0.94848(19)
H15_12 H 0.0699 0.3587 0.9341
C24_12 C 0.1022(3) 0.3238(3) 0.9832(2)
H16_12 H 0.0660 0.3089 0.9922
S1_15 S 0.0000 0.41088(12) 0.63623(8)
C13_13 C 0.0548(3) 0.4063(3) 0.67088(18)
C14_13 C 0.1158(3) 0.4083(3) 0.6589(2)
C15_13 C 0.1585(3) 0.3755(4) 0.6779(2)
C16_13 C 0.2143(3) 0.3793(4) 0.6653(2)
N3_13 N 0.2326(2) 0.4123(3) 0.63622(17)
C17_13 C 0.1927(3) 0.4449(3) 0.6187(2)
C18_13 C 0.1347(3) 0.4441(3) 0.6289(2)
H9_13 H 0.1077 0.4681 0.6155
H10_13 H 0.2048 0.4699 0.5982
H11_13 H 0.2425 0.3564 0.6785
H12_13 H 0.1486 0.3510 0.6992
C19_13 C 0.0321(3) 0.4013(3) 0.70768(19)
C20_13 C 0.0658(3) 0.4011(3) 0.74514(18)
C21_13 C 0.0888(4) 0.4510(4) 0.7586(2)
H13_13 H 0.0848 0.4860 0.7442
C22_13 C 0.1177(4) 0.4508(4) 0.7931(2)
H14_13 H 0.1338 0.4866 0.8018
N4_13 N 0.1254(2) 0.4035(2) 0.81602(15)
C23_13 C 0.1036(3) 0.3549(3) 0.80152(19)
H15_13 H 0.1087 0.3199 0.8159
C24_13 C 0.0738(3) 0.3522(3) 0.7668(2)
H16_13 H 0.0589 0.3160 0.7578
N1_8 N 0.7674(2) 0.4123(3) 0.63622(17)
C1_13 C 0.7857(3) 0.3793(4) 0.6653(2)
H1_13 H 0.7575 0.3564 0.6785
C2_13 C 0.8415(3) 0.3755(4) 0.6779(2)
H2_13 H 0.8514 0.3510 0.6992
C3_13 C 0.8842(3) 0.4083(3) 0.6589(2)
C4_13 C 0.8653(3) 0.4441(3) 0.6289(2)
H3_13 H 0.8923 0.4681 0.6155
C5_13 C 0.8073(3) 0.4449(3) 0.6187(2)
H4_13 H 0.7952 0.4699 0.5982
C6_13 C 0.9452(3) 0.4063(3) 0.67088(18)
S1_16 S 1.0000 0.41088(12) 0.63623(8)
C7_13 C 0.9679(3) 0.4013(3) 0.70768(19)
C8_13 C 0.9342(3) 0.4011(3) 0.74514(18)
C9_13 C 0.9112(4) 0.4510(4) 0.7586(2)
H5_13 H 0.9152 0.4860 0.7442
C10_13 C 0.8823(4) 0.4508(4) 0.7931(2)
H6_13 H 0.8662 0.4866 0.8018
C11_13 C 0.8964(3) 0.3549(3) 0.80152(19)
H7_13 H 0.8913 0.3199 0.8159
C12_13 C 0.9262(3) 0.3522(3) 0.7668(2)
H8_13 H 0.9411 0.3160 0.7578
N5_8 N 0.6623(3) 0.5174(2) 0.61378(17)
N7_8 N 0.6254(2) 0.4035(2) 0.68398(15)
S1_17 S 0.0000 0.58912(12) 0.36377(8)
C13_14 C 0.0548(3) 0.5937(3) 0.32912(18)
C14_14 C 0.1158(3) 0.5917(3) 0.3411(2)
C15_14 C 0.1585(3) 0.6245(4) 0.3221(2)
C16_14 C 0.2143(3) 0.6207(4) 0.3347(2)
N3_14 N 0.2326(2) 0.5877(3) 0.36378(17)
C17_14 C 0.1927(3) 0.5551(3) 0.3813(2)
C18_14 C 0.1347(3) 0.5559(3) 0.3711(2)
H9_14 H 0.1077 0.5319 0.3845
H10_14 H 0.2048 0.5301 0.4018
H11_14 H 0.2425 0.6436 0.3215
H12_14 H 0.1486 0.6490 0.3008
C19_14 C 0.0321(3) 0.5987(3) 0.29232(19)
C20_14 C 0.0658(3) 0.5989(3) 0.25486(18)
C21_14 C 0.0888(4) 0.5490(4) 0.2414(2)
H13_14 H 0.0848 0.5140 0.2558
C22_14 C 0.1177(4) 0.5492(4) 0.2069(2)
H14_14 H 0.1338 0.5134 0.1982
N4_14 N 0.1254(2) 0.5965(2) 0.18398(15)
C23_14 C 0.1036(3) 0.6451(3) 0.19848(19)
H15_14 H 0.1087 0.6801 0.1841
C24_14 C 0.0738(3) 0.6478(3) 0.2332(2)
H16_14 H 0.0589 0.6840 0.2422
C1_14 C 0.7857(3) 0.6207(4) 0.3347(2)
H1_14 H 0.7575 0.6436 0.3215
C2_14 C 0.8415(3) 0.6245(4) 0.3221(2)
H2_14 H 0.8514 0.6490 0.3008
C3_14 C 0.8842(3) 0.5917(3) 0.3411(2)
C4_14 C 0.8653(3) 0.5559(3) 0.3711(2)
H3_14 H 0.8923 0.5319 0.3845
C5_14 C 0.8073(3) 0.5551(3) 0.3813(2)
H4_14 H 0.7952 0.5301 0.4018
C6_14 C 0.9452(3) 0.5937(3) 0.32912(18)
S1_18 S 1.0000 0.58912(12) 0.36377(8)
C7_14 C 0.9679(3) 0.5987(3) 0.29232(19)
C8_14 C 0.9342(3) 0.5989(3) 0.25486(18)
C9_14 C 0.9112(4) 0.5490(4) 0.2414(2)
H5_14 H 0.9152 0.5140 0.2558
C10_14 C 0.8823(4) 0.5492(4) 0.2069(2)
H6_14 H 0.8662 0.5134 0.1982
C11_14 C 0.8964(3) 0.6451(3) 0.19848(19)
H7_14 H 0.8913 0.6801 0.1841
C12_14 C 0.9262(3) 0.6478(3) 0.2332(2)
H8_14 H 0.9411 0.6840 0.2422
C1_15 C 0.7143(3) 0.3793(4) 0.8347(2)
H1_15 H 0.7425 0.3564 0.8215
C2_15 C 0.6585(3) 0.3755(4) 0.8221(2)
H2_15 H 0.6486 0.3510 0.8008
C3_15 C 0.6158(3) 0.4083(3) 0.8411(2)
C4_15 C 0.6347(3) 0.4441(3) 0.8711(2)
H3_15 H 0.6077 0.4681 0.8845
C5_15 C 0.6927(3) 0.4449(3) 0.8813(2)
H4_15 H 0.7048 0.4699 0.9018
C6_15 C 0.5548(3) 0.4063(3) 0.82912(18)
S1_19 S 0.5000 0.41088(12) 0.86377(8)
C7_15 C 0.5321(3) 0.4013(3) 0.79232(19)
C8_15 C 0.5658(3) 0.4011(3) 0.75486(18)
C9_15 C 0.5888(4) 0.4510(4) 0.7414(2)
H5_15 H 0.5848 0.4860 0.7558
C10_15 C 0.6177(4) 0.4508(4) 0.7069(2)
H6_15 H 0.6338 0.4866 0.6982
C11_15 C 0.6036(3) 0.3549(3) 0.69848(19)
H7_15 H 0.6087 0.3199 0.6841
C12_15 C 0.5738(3) 0.3522(3) 0.7332(2)
H8_15 H 0.5589 0.3160 0.7422
C13_15 C 0.4452(3) 0.4063(3) 0.82912(18)
C14_15 C 0.3842(3) 0.4083(3) 0.8411(2)
C15_15 C 0.3415(3) 0.3755(4) 0.8221(2)
C16_15 C 0.2857(3) 0.3793(4) 0.8347(2)
N3_15 N 0.2674(2) 0.4123(3) 0.86378(17)
C17_15 C 0.3073(3) 0.4449(3) 0.8813(2)
C18_15 C 0.3653(3) 0.4441(3) 0.8711(2)
H9_15 H 0.3923 0.4681 0.8845
H10_15 H 0.2952 0.4699 0.9018
H11_15 H 0.2575 0.3564 0.8215
H12_15 H 0.3514 0.3510 0.8008
C19_15 C 0.4679(3) 0.4013(3) 0.79232(19)
C20_15 C 0.4342(3) 0.4011(3) 0.75486(18)
C21_15 C 0.4112(4) 0.4510(4) 0.7414(2)
H13_15 H 0.4152 0.4860 0.7558
C22_15 C 0.3823(4) 0.4508(4) 0.7069(2)
H14_15 H 0.3662 0.4866 0.6982
N4_15 N 0.3746(2) 0.4035(2) 0.68398(15)
C23_15 C 0.3964(3) 0.3549(3) 0.69848(19)
H15_15 H 0.3913 0.3199 0.6841
C24_15 C 0.4262(3) 0.3522(3) 0.7332(2)
H16_15 H 0.4411 0.3160 0.7422
C1_16 C 0.6293(4) 0.5357(3) 0.5847(2)
H1_16 H 0.6064 0.5075 0.5715
C2_16 C 0.6255(4) 0.5915(3) 0.5721(2)
H2_16 H 0.6010 0.6014 0.5508
C3_16 C 0.6583(3) 0.6342(3) 0.5911(2)
C4_16 C 0.6941(3) 0.6153(3) 0.6211(2)
H3_16 H 0.7181 0.6423 0.6345
C5_16 C 0.6949(3) 0.5573(3) 0.6313(2)
H4_16 H 0.7199 0.5452 0.6518
C6_16 C 0.6563(3) 0.6952(3) 0.57912(18)
S1_20 S 0.66088(12) 0.7500 0.61377(8)
C7_16 C 0.6513(3) 0.7179(3) 0.54232(19)
C8_16 C 0.6511(3) 0.6842(3) 0.50486(18)
C9_16 C 0.7010(4) 0.6612(4) 0.4914(2)
H5_16 H 0.7360 0.6652 0.5058
C10_16 C 0.7008(4) 0.6323(4) 0.4569(2)
H6_16 H 0.7366 0.6162 0.4482
C11_16 C 0.6049(3) 0.6464(3) 0.44848(19)
H7_16 H 0.5699 0.6413 0.4341
C12_16 C 0.6022(3) 0.6762(3) 0.4832(2)
H8_16 H 0.5660 0.6911 0.4922
C13_16 C 0.6563(3) 0.8048(3) 0.57912(18)
C14_16 C 0.6583(3) 0.8658(3) 0.5911(2)
C15_16 C 0.6255(4) 0.9085(3) 0.5721(2)
C16_16 C 0.6293(4) 0.9643(3) 0.5847(2)
N3_16 N 0.6623(3) 0.9826(2) 0.61378(17)
C17_16 C 0.6949(3) 0.9427(3) 0.6313(2)
C18_16 C 0.6941(3) 0.8847(3) 0.6211(2)
H9_16 H 0.7181 0.8577 0.6345
H10_16 H 0.7199 0.9548 0.6518
H11_16 H 0.6064 0.9925 0.5715
H12_16 H 0.6010 0.8986 0.5508
C19_16 C 0.6513(3) 0.7821(3) 0.54232(19)
C20_16 C 0.6511(3) 0.8158(3) 0.50486(18)
C21_16 C 0.7010(4) 0.8388(4) 0.4914(2)
H13_16 H 0.7360 0.8348 0.5058
C22_16 C 0.7008(4) 0.8677(4) 0.4569(2)
H14_16 H 0.7366 0.8838 0.4482
N4_16 N 0.6535(2) 0.8754(2) 0.43398(15)
C23_16 C 0.6049(3) 0.8536(3) 0.44848(19)
H15_16 H 0.5699 0.8587 0.4341
C24_16 C 0.6022(3) 0.8238(3) 0.4832(2)
H16_16 H 0.5660 0.8089 0.4922
Sb3 Sb 0.2500 0.2500 0.7500
F13 F 0.2500 0.3309(2) 0.7500
F14 F 0.2155(4) 0.2500 0.79849(18)
F15 F 0.3216(3) 0.2500 0.7750(2)
F16 F 0.2500 0.1691(2) 0.7500
F17 F 0.2845(4) 0.2500 0.70151(18)
F18 F 0.1784(3) 0.2500 0.7250(2)
Sb3_2 Sb -0.0000 0.0000 0.0000
F15_2 F -0.0000 0.0716(3) 0.0250(2)
F16_2 F 0.0809(2) 0.0000 0.0000
Sb3_3 Sb -0.0000 0.0000 1.0000
F16_3 F 0.0809(2) 0.0000 1.0000
F17_2 F -0.0000 0.0345(4) 0.95151(18)
Sb3_4 Sb -0.0000 1.0000 0.0000
F14_2 F -0.0000 0.9655(4) 0.04849(18)
F16_4 F 0.0809(2) 1.0000 0.0000
Sb3_5 Sb -0.0000 1.0000 1.0000
F16_5 F 0.0809(2) 1.0000 1.0000
F18_2 F -0.0000 0.9284(3) 0.9750(2)
Sb3_6 Sb 1.0000 0.0000 0.0000
F13_2 F 0.9191(2) 0.0000 0.0000
F15_3 F 1.0000 0.0716(3) 0.0250(2)
Sb3_7 Sb 1.0000 0.0000 1.0000
F13_3 F 0.9191(2) 0.0000 1.0000
F17_3 F 1.0000 0.0345(4) 0.95151(18)
Sb3_8 Sb 1.0000 1.0000 0.0000
F13_4 F 0.9191(2) 1.0000 0.0000
F14_3 F 1.0000 0.9655(4) 0.04849(18)
Sb3_9 Sb 1.0000 1.0000 1.0000
F13_5 F 0.9191(2) 1.0000 1.0000
F18_3 F 1.0000 0.9284(3) 0.9750(2)
Sb3_10 Sb 0.5000 -0.0000 0.5000
F13_6 F 0.5809(2) -0.0000 0.5000
F14_4 F 0.5000 0.0345(4) 0.54849(18)
F16_6 F 0.4191(2) -0.0000 0.5000
F18_4 F 0.5000 0.0716(3) 0.4750(2)
Sb3_11 Sb 0.5000 1.0000 0.5000
F13_7 F 0.5809(2) 1.0000 0.5000
F15_4 F 0.5000 0.9284(3) 0.5250(2)
F16_7 F 0.4191(2) 1.0000 0.5000
F17_4 F 0.5000 0.9655(4) 0.45151(18)
Sb3_12 Sb 0.7500 0.7500 0.2500
F13_8 F 0.7500 0.8309(2) 0.2500
F14_5 F 0.7155(4) 0.7500 0.29849(18)
F15_5 F 0.8216(3) 0.7500 0.2750(2)
F16_8 F 0.7500 0.6691(2) 0.2500
F17_5 F 0.7845(4) 0.7500 0.20151(18)
F18_5 F 0.6784(3) 0.7500 0.2250(2)
Sb3_13 Sb 0.5000 0.5000 0.5000
F13_9 F 0.4191(2) 0.5000 0.5000
F14_6 F 0.5000 0.4655(4) 0.54849(18)
F15_6 F 0.5000 0.5716(3) 0.5250(2)
F16_9 F 0.5809(2) 0.5000 0.5000
F17_6 F 0.5000 0.5345(4) 0.45151(18)
F18_6 F 0.5000 0.4284(3) 0.4750(2)
Sb3_14 Sb 0.0000 0.5000 0.0000
F13_10 F 0.0809(2) 0.5000 0.0000
F14_7 F 0.0000 0.5345(4) 0.04849(18)
F15_7 F 0.0000 0.4284(3) 0.0250(2)
Sb3_15 Sb 0.0000 0.5000 1.0000
F13_11 F 0.0809(2) 0.5000 1.0000
F17_7 F 0.0000 0.4655(4) 0.95151(18)
F18_7 F 0.0000 0.5716(3) 0.9750(2)
Sb3_16 Sb 1.0000 0.5000 0.0000
F14_8 F 1.0000 0.5345(4) 0.04849(18)
F15_8 F 1.0000 0.4284(3) 0.0250(2)
F16_10 F 0.9191(2) 0.5000 0.0000
Sb3_17 Sb 1.0000 0.5000 1.0000
F16_11 F 0.9191(2) 0.5000 1.0000
F17_8 F 1.0000 0.4655(4) 0.95151(18)
F18_8 F 1.0000 0.5716(3) 0.9750(2)
Sb3_18 Sb 0.2500 0.7500 0.2500
F13_12 F 0.2500 0.6691(2) 0.2500
F14_9 F 0.2845(4) 0.7500 0.29849(18)
F15_9 F 0.1784(3) 0.7500 0.2750(2)
F16_12 F 0.2500 0.8309(2) 0.2500
F17_9 F 0.2155(4) 0.7500 0.20151(18)
F18_9 F 0.3216(3) 0.7500 0.2250(2)
Sb3_19 Sb 0.7500 0.2500 0.7500
F13_13 F 0.7500 0.1691(2) 0.7500
F14_10 F 0.7845(4) 0.2500 0.79849(18)
F15_10 F 0.6784(3) 0.2500 0.7750(2)
F16_13 F 0.7500 0.3309(2) 0.7500
F17_10 F 0.7155(4) 0.2500 0.70151(18)
F18_10 F 0.8216(3) 0.2500 0.7250(2)
loop_
_geom_bond_atom_site_label_1
_geom_bond_atom_site_label_2
_geom_bond_site_symmetry_1
_geom_bond_site_symmetry_2
Sb1 F1 1_555 1_555
F2 Sb1 1_555 1_555
F3 Sb1 1_555 1_555
F5 Sb1 1_555 1_555
F6 Sb1 1_555 1_555
F2_2 Sb1_2 1_555 1_555
F3_2 Sb1_2 1_555 1_555
F4 Sb1_2 1_555 1_555
F5_2 Sb1_2 1_555 1_555
F6_2 Sb1_2 1_555 1_555
Sb1_3 F1_2 1_555 1_555
F2_3 Sb1_3 1_555 1_555
F4_2 Sb1_3 1_555 1_555
F5_3 Sb1_3 1_555 1_555
F6_3 Sb1_3 1_555 1_555
Sb1_4 F1_3 1_555 1_555
F2_4 Sb1_4 1_555 1_555
F3_3 Sb1_4 1_555 1_555
F4_3 Sb1_4 1_555 1_555
F6_4 Sb1_4 1_555 1_555
Sb1_5 F1_4 1_555 1_555
F2_5 Sb1_5 1_555 1_555
F3_4 Sb1_5 1_555 1_555
F4_4 Sb1_5 1_555 1_555
F5_4 Sb1_5 1_555 1_555
F6_5 Sb1_5 1_555 1_555
Sb1_6 F1_5 1_555 1_555
F2_6 Sb1_6 1_555 1_555
F3_5 Sb1_6 1_555 1_555
F4_5 Sb1_6 1_555 1_555
F5_5 Sb1_6 1_555 1_555
F6_6 Sb1_6 1_555 1_555
Sb2 F7 1_555 1_555
F8 Sb2 1_555 1_555
F9 Sb2 1_555 1_555
F10 Sb2 1_555 1_555
F11 Sb2 1_555 1_555
F12 Sb2 1_555 1_555
F8_2 Sb2_2 1_555 1_555
F9_2 Sb2_2 1_555 1_555
F10_2 Sb2_3 1_555 1_555
Sb2_4 F7_2 1_555 1_555
F11_2 Sb2_5 1_555 1_555
F12_2 Sb2_5 1_555 1_555
Sb2_6 F7_3 1_555 1_555
F11_3 Sb2_6 1_555 1_555
F12_3 Sb2_6 1_555 1_555
F8_3 Sb2_7 1_555 1_555
F9_3 Sb2_7 1_555 1_555
F10_3 Sb2_7 1_555 1_555
Sb2_8 F7_4 1_555 1_555
F8_4 Sb2_8 1_555 1_555
F9_4 Sb2_8 1_555 1_555
F10_4 Sb2_8 1_555 1_555
F11_4 Sb2_8 1_555 1_555
F12_4 Sb2_8 1_555 1_555
Sb2_9 F7_5 1_555 1_555
F8_5 Sb2_9 1_555 1_555
F9_5 Sb2_9 1_555 1_555
F10_5 Sb2_9 1_555 1_555
F11_5 Sb2_9 1_555 1_555
F12_5 Sb2_9 1_555 1_555
Sb2_10 F7_6 1_555 1_555
F8_6 Sb2_10 1_555 1_555
F9_6 Sb2_10 1_555 1_555
F10_6 Sb2_11 1_555 1_555
F11_6 Sb2_11 1_555 1_555
F12_6 Sb2_11 1_555 1_555
Sb2_12 F7_7 1_555 1_555
F8_7 Sb2_12 1_555 1_555
F9_7 Sb2_12 1_555 1_555
F10_7 Sb2_12 1_555 1_555
F11_7 Sb2_12 1_555 1_555
F12_7 Sb2_12 1_555 1_555
Sb2_13 F7_8 1_555 1_555
F8_8 Sb2_13 1_555 1_555
F9_8 Sb2_13 1_555 1_555
F10_8 Sb2_13 1_555 1_555
F11_8 Sb2_13 1_555 1_555
F12_8 Sb2_13 1_555 1_555
Sb2_14 F7_9 1_555 1_555
F8_9 Sb2_14 1_555 1_555
F9_9 Sb2_14 1_555 1_555
F10_9 Sb2_14 1_555 1_555
F11_9 Sb2_14 1_555 1_555
F12_9 Sb2_14 1_555 1_555
F11_10 Sb2_15 1_555 1_555
F12_10 Sb2_15 1_555 1_555
Sb2_16 F7_10 1_555 1_555
F10_10 Sb2_17 1_555 1_555
F8_10 Sb2_18 1_555 1_555
F9_10 Sb2_18 1_555 1_555
F8_11 Sb2_19 1_555 1_555
F9_11 Sb2_19 1_555 1_555
F10_11 Sb2_19 1_555 1_555
Sb2_20 F7_11 1_555 1_555
F11_11 Sb2_20 1_555 1_555
F12_11 Sb2_20 1_555 1_555
Sb2_21 F7_12 1_555 1_555
F8_12 Sb2_21 1_555 1_555
F9_12 Sb2_21 1_555 1_555
F10_12 Sb2_21 1_555 1_555
F11_12 Sb2_21 1_555 1_555
F12_12 Sb2_21 1_555 1_555
Sb2_22 F7_13 1_555 1_555
F8_13 Sb2_22 1_555 1_555
F9_13 Sb2_22 1_555 1_555
F10_13 Sb2_22 1_555 1_555
F11_13 Sb2_22 1_555 1_555
F12_13 Sb2_22 1_555 1_555
F10_14 Sb2_23 1_555 1_555
F11_14 Sb2_23 1_555 1_555
F12_14 Sb2_23 1_555 1_555
Sb2_24 F7_14 1_555 1_555
F8_14 Sb2_24 1_555 1_555
F9_14 Sb2_24 1_555 1_555
Sb2_25 F7_15 1_555 1_555
F8_15 Sb2_25 1_555 1_555
F9_15 Sb2_25 1_555 1_555
F10_15 Sb2_25 1_555 1_555
F11_15 Sb2_25 1_555 1_555
F12_15 Sb2_25 1_555 1_555
Sb2_26 F7_16 1_555 1_555
F8_16 Sb2_26 1_555 1_555
F9_16 Sb2_26 1_555 1_555
F10_16 Sb2_26 1_555 1_555
F11_16 Sb2_26 1_555 1_555
F12_16 Sb2_26 1_555 1_555
Ag1 N1 1_555 1_555
N1 C1 1_555 1_555
C1 H1 1_555 1_555
C2 C1 1_555 1_555
H2 C2 1_555 1_555
C3 C2 1_555 1_555
C4 C3 1_555 1_555
H3 C4 1_555 1_555
C5 N1 1_555 1_555
H4 C5 1_555 1_555
C6 C3 1_555 1_555
S1 C6 1_555 1_555
C7 C6 1_555 1_555
C8 C7 1_555 1_555
C9 C8 1_555 1_555
H5 C9 1_555 1_555
C10 C9 1_555 1_555
H6 C10 1_555 1_555
N2 C10 1_555 1_555
C11 N2 1_555 1_555
H7 C11 1_555 1_555
C12 C8 1_555 1_555
H8 C12 1_555 1_555
N6 Ag1 1_555 1_555
N7 Ag1 1_555 1_555
Ag3 N2 1_555 1_555
C4 C5 1_555 1_555
C11 C12 1_555 1_555
C13 S1_2 1_555 1_555
C14 C13 1_555 1_555
C15 C14 1_555 1_555
C16 C15 1_555 1_555
N3 C16 1_555 1_555
C17 N3 1_555 1_555
C18 C14 1_555 1_555
H9 C18 1_555 1_555
H10 C17 1_555 1_555
H11 C16 1_555 1_555
H12 C15 1_555 1_555
C20 C19 1_555 1_555
C21 C20 1_555 1_555
H13 C21 1_555 1_555
C22 C21 1_555 1_555
H14 C22 1_555 1_555
N4 C22 1_555 1_555
C23 N4 1_555 1_555
H15 C23 1_555 1_555
C24 C20 1_555 1_555
H16 C24 1_555 1_555
Ag2 N3 1_555 1_555
Ag4 N4 1_555 1_555
C13 C19 1_555 1_555
C17 C18 1_555 1_555
C23 C24 1_555 1_555
N5_2 Ag3 1_555 1_555
N7_2 Ag3 1_555 1_555
C10_2 C9_2 1_555 1_555
H6_2 C10_2 1_555 1_555
N2_2 C10_2 1_555 1_555
C11_2 N2_2 1_555 1_555
H7_2 C11_2 1_555 1_555
H8_2 C12_2 1_555 1_555
C22_2 C21_2 1_555 1_555
H14_2 C22_2 1_555 1_555
N4_2 C22_2 1_555 1_555
C23_2 N4_2 1_555 1_555
H15_2 C23_2 1_555 1_555
H16_2 C24_2 1_555 1_555
Ag3_2 N2_2 1_555 1_555
Ag4_2 N4_2 1_555 1_555
C11_2 C12_2 1_555 1_555
C23_2 C24_2 1_555 1_555
N1_2 C1_2 1_555 1_555
C1_2 H1_2 1_555 1_555
C2_2 C1_2 1_555 1_555
H2_2 C2_2 1_555 1_555
C3_2 C2_2 1_555 1_555
C4_2 C3_2 1_555 1_555
H3_2 C4_2 1_555 1_555
C5_2 N1_2 1_555 1_555
H4_2 C5_2 1_555 1_555
C6_2 C3_2 1_555 1_555
S1_3 C6_2 1_555 1_555
C7_2 C6_2 1_555 1_555
C8_2 C7_2 1_555 1_555
C13_2 S1_3 1_555 1_555
C14_2 C13_2 1_555 1_555
C15_2 C14_2 1_555 1_555
C16_2 C15_2 1_555 1_555
N3_2 C16_2 1_555 1_555
C17_2 N3_2 1_555 1_555
C18_2 C14_2 1_555 1_555
H9_2 C18_2 1_555 1_555
H10_2 C17_2 1_555 1_555
H11_2 C16_2 1_555 1_555
H12_2 C15_2 1_555 1_555
C19_2 C7_2 1_555 1_555
C20_2 C19_2 1_555 1_555
Ag2_2 N3_2 1_555 1_555
C4_2 C5_2 1_555 1_555
C13_2 C19_2 1_555 1_555
C17_2 C18_2 1_555 1_555
N1_3 C1_3 1_555 1_555
C1_3 H1_3 1_555 1_555
C2_3 C1_3 1_555 1_555
H2_3 C2_3 1_555 1_555
C3_3 C2_3 1_555 1_555
C4_3 C3_3 1_555 1_555
H3_3 C4_3 1_555 1_555
C5_3 N1_3 1_555 1_555
H4_3 C5_3 1_555 1_555
C6_3 C3_3 1_555 1_555
S1_4 C6_3 1_555 1_555
C7_3 C6_3 1_555 1_555
C8_3 C7_3 1_555 1_555
C9_3 C8_3 1_555 1_555
H5_3 C9_3 1_555 1_555
C10_3 C9_3 1_555 1_555
H6_3 C10_3 1_555 1_555
N6 C10_3 1_555 1_555
C11_3 N6 1_555 1_555
H7_3 C11_3 1_555 1_555
C12_3 C8_3 1_555 1_555
H8_3 C12_3 1_555 1_555
C13_3 S1_4 1_555 1_555
C14_3 C13_3 1_555 1_555
C15_3 C14_3 1_555 1_555
C16_3 C15_3 1_555 1_555
N3_3 C16_3 1_555 1_555
C17_3 N3_3 1_555 1_555
C18_3 C14_3 1_555 1_555
H9_3 C18_3 1_555 1_555
H10_3 C17_3 1_555 1_555
H11_3 C16_3 1_555 1_555
H12_3 C15_3 1_555 1_555
C19_3 C7_3 1_555 1_555
C20_3 C19_3 1_555 1_555
C21_3 C20_3 1_555 1_555
H13_3 C21_3 1_555 1_555
C22_3 C21_3 1_555 1_555
H14_3 C22_3 1_555 1_555
N4_3 C22_3 1_555 1_555
C23_3 N4_3 1_555 1_555
H15_3 C23_3 1_555 1_555
C24_3 C20_3 1_555 1_555
H16_3 C24_3 1_555 1_555
Ag2_3 N3_3 1_555 1_555
Ag4_3 N4_3 1_555 1_555
C4_3 C5_3 1_555 1_555
C11_3 C12_3 1_555 1_555
C13_3 C19_3 1_555 1_555
C17_3 C18_3 1_555 1_555
C23_3 C24_3 1_555 1_555
N5_3 Ag1_2 1_555 1_555
N6_2 Ag1_2 1_555 1_555
N7_3 Ag1_2 1_555 1_555
N5 C1_4 1_555 1_555
C1_4 H1_4 1_555 1_555
C2_4 C1_4 1_555 1_555
H2_4 C2_4 1_555 1_555
C3_4 C2_4 1_555 1_555
C4_4 C3_4 1_555 1_555
H3_4 C4_4 1_555 1_555
C5_4 N5 1_555 1_555
H4_4 C5_4 1_555 1_555
C6_4 C3_4 1_555 1_555
S1_5 C6_4 1_555 1_555
C7_4 C6_4 1_555 1_555
C8_4 C7_4 1_555 1_555
C9_4 C8_4 1_555 1_555
H5_4 C9_4 1_555 1_555
C10_4 C9_4 1_555 1_555
H6_4 C10_4 1_555 1_555
N7_3 C10_4 1_555 1_555
C11_4 N7_3 1_555 1_555
H7_4 C11_4 1_555 1_555
C12_4 C8_4 1_555 1_555
H8_4 C12_4 1_555 1_555
C13_4 S1_5 1_555 1_555
C14_4 C13_4 1_555 1_555
C15_4 C14_4 1_555 1_555
C16_4 C15_4 1_555 1_555
N3_4 C16_4 1_555 1_555
C17_4 N3_4 1_555 1_555
C18_4 C14_4 1_555 1_555
H9_4 C18_4 1_555 1_555
H10_4 C17_4 1_555 1_555
H11_4 C16_4 1_555 1_555
H12_4 C15_4 1_555 1_555
C19_4 C7_4 1_555 1_555
C20_4 C19_4 1_555 1_555
C21_4 C20_4 1_555 1_555
H13_4 C21_4 1_555 1_555
C22_4 C21_4 1_555 1_555
H14_4 C22_4 1_555 1_555
N4_4 C22_4 1_555 1_555
C23_4 N4_4 1_555 1_555
H15_4 C23_4 1_555 1_555
C24_4 C20_4 1_555 1_555
H16_4 C24_4 1_555 1_555
Ag4_3 N3_4 1_555 1_555
Ag2_3 N4_4 1_555 1_555
C4_4 C5_4 1_555 1_555
C11_4 C12_4 1_555 1_555
C13_4 C19_4 1_555 1_555
C17_4 C18_4 1_555 1_555
C23_4 C24_4 1_555 1_555
Ag1_3 N1_4 1_555 1_555
N1_4 C1_5 1_555 1_555
C1_5 H1_5 1_555 1_555
C2_5 C1_5 1_555 1_555
H2_5 C2_5 1_555 1_555
C3_5 C2_5 1_555 1_555
C4_5 C3_5 1_555 1_555
H3_5 C4_5 1_555 1_555
C5_5 N1_4 1_555 1_555
H4_5 C5_5 1_555 1_555
C6_5 C3_5 1_555 1_555
S1_6 C6_5 1_555 1_555
C7_5 C6_5 1_555 1_555
C8_5 C7_5 1_555 1_555
C9_5 C8_5 1_555 1_555
H5_5 C9_5 1_555 1_555
C10_5 C9_5 1_555 1_555
H6_5 C10_5 1_555 1_555
N2_3 C10_5 1_555 1_555
C11_5 N2_3 1_555 1_555
H7_5 C11_5 1_555 1_555
C12_5 C8_5 1_555 1_555
H8_5 C12_5 1_555 1_555
C13_5 S1_6 1_555 1_555
C14_5 C13_5 1_555 1_555
C15_5 C14_5 1_555 1_555
C16_5 C15_5 1_555 1_555
N3_5 C16_5 1_555 1_555
C17_5 N3_5 1_555 1_555
C18_5 C14_5 1_555 1_555
H9_5 C18_5 1_555 1_555
H10_5 C17_5 1_555 1_555
H11_5 C16_5 1_555 1_555
H12_5 C15_5 1_555 1_555
C19_5 C7_5 1_555 1_555
C20_5 C19_5 1_555 1_555
C21_5 C20_5 1_555 1_555
H13_5 C21_5 1_555 1_555
C22_5 C21_5 1_555 1_555
H14_5 C22_5 1_555 1_555
N4_5 C22_5 1_555 1_555
C23_5 N4_5 1_555 1_555
H15_5 C23_5 1_555 1_555
C24_5 C20_5 1_555 1_555
H16_5 C24_5 1_555 1_555
N5_4 Ag1_3 1_555 1_555
N6_3 Ag1_3 1_555 1_555
N7_4 Ag1_3 1_555 1_555
Ag4_2 N3_5 1_555 1_555
Ag3_3 N2_3 1_555 1_555
Ag2_3 N4_5 1_555 1_555
C4_5 C5_5 1_555 1_555
C11_5 C12_5 1_555 1_555
C13_5 C19_5 1_555 1_555
C17_5 C18_5 1_555 1_555
C23_5 C24_5 1_555 1_555
Ag3_3 N1_5 1_555 1_555
N1_5 C1_6 1_555 1_555
C1_6 H1_6 1_555 1_555
C2_6 C1_6 1_555 1_555
H2_6 C2_6 1_555 1_555
C3_6 C2_6 1_555 1_555
C4_6 C3_6 1_555 1_555
H3_6 C4_6 1_555 1_555
C5_6 N1_5 1_555 1_555
H4_6 C5_6 1_555 1_555
C6_6 C3_6 1_555 1_555
S1_7 C6_6 1_555 1_555
C7_6 C6_6 1_555 1_555
C8_6 C7_6 1_555 1_555
C9_6 C8_6 1_555 1_555
H5_6 C9_6 1_555 1_555
C10_6 C9_6 1_555 1_555
H6_6 C10_6 1_555 1_555
N2_4 C10_6 1_555 1_555
C11_6 N2_4 1_555 1_555
H7_6 C11_6 1_555 1_555
C12_6 C8_6 1_555 1_555
H8_6 C12_6 1_555 1_555
C13_6 S1_7 1_555 1_555
C14_6 C13_6 1_555 1_555
C15_6 C14_6 1_555 1_555
C16_6 C15_6 1_555 1_555
N3_6 C16_6 1_555 1_555
C17_6 N3_6 1_555 1_555
C18_6 C14_6 1_555 1_555
H9_6 C18_6 1_555 1_555
H10_6 C17_6 1_555 1_555
H11_6 C16_6 1_555 1_555
H12_6 C15_6 1_555 1_555
C19_6 C7_6 1_555 1_555
C20_6 C19_6 1_555 1_555
C21_6 C20_6 1_555 1_555
H13_6 C21_6 1_555 1_555
C22_6 C21_6 1_555 1_555
H14_6 C22_6 1_555 1_555
N4_6 C22_6 1_555 1_555
C23_6 N4_6 1_555 1_555
H15_6 C23_6 1_555 1_555
C24_6 C20_6 1_555 1_555
H16_6 C24_6 1_555 1_555
N5_5 Ag3_3 1_555 1_555
N7_5 Ag3_3 1_555 1_555
Ag3_4 N2_4 1_555 1_555
Ag2 N4_6 1_555 1_555
C4_6 C5_6 1_555 1_555
C11_6 C12_6 1_555 1_555
C13_6 C19_6 1_555 1_555
C17_6 C18_6 1_555 1_555
C23_6 C24_6 1_555 1_555
C10_7 C9_7 1_555 1_555
H6_7 C10_7 1_555 1_555
N6_3 C10_7 1_555 1_555
C11_7 N6_3 1_555 1_555
H7_7 C11_7 1_555 1_555
H8_7 C12_7 1_555 1_555
C22_7 C21_7 1_555 1_555
H14_7 C22_7 1_555 1_555
N4_7 C22_7 1_555 1_555
C23_7 N4_7 1_555 1_555
H15_7 C23_7 1_555 1_555
H16_7 C24_7 1_555 1_555
Ag4_4 N4_7 1_555 1_555
C11_7 C12_7 1_555 1_555
C23_7 C24_7 1_555 1_555
Ag1_4 N1_6 1_555 1_555
N1_6 C1_7 1_555 1_555
C1_7 H1_7 1_555 1_555
C2_7 C1_7 1_555 1_555
H2_7 C2_7 1_555 1_555
C3_7 C2_7 1_555 1_555
C4_7 C3_7 1_555 1_555
H3_7 C4_7 1_555 1_555
C5_7 N1_6 1_555 1_555
H4_7 C5_7 1_555 1_555
C6_7 C3_7 1_555 1_555
S1_8 C6_7 1_555 1_555
C7_7 C6_7 1_555 1_555
C8_7 C7_7 1_555 1_555
C13_7 S1_8 1_555 1_555
C14_7 C13_7 1_555 1_555
C15_7 C14_7 1_555 1_555
C16_7 C15_7 1_555 1_555
N3_7 C16_7 1_555 1_555
C17_7 N3_7 1_555 1_555
C18_7 C14_7 1_555 1_555
H9_7 C18_7 1_555 1_555
H10_7 C17_7 1_555 1_555
H11_7 C16_7 1_555 1_555
H12_7 C15_7 1_555 1_555
C19_7 C7_7 1_555 1_555
C20_7 C19_7 1_555 1_555
N5_6 Ag1_4 1_555 1_555
N6_4 Ag1_4 1_555 1_555
N7_6 Ag1_4 1_555 1_555
C4_7 C5_7 1_555 1_555
C13_7 C19_7 1_555 1_555
C17_7 C18_7 1_555 1_555
N5_4 C1_8 1_555 1_555
C1_8 H1_8 1_555 1_555
C2_8 C1_8 1_555 1_555
H2_8 C2_8 1_555 1_555
C3_8 C2_8 1_555 1_555
C4_8 C3_8 1_555 1_555
H3_8 C4_8 1_555 1_555
C5_8 N5_4 1_555 1_555
H4_8 C5_8 1_555 1_555
C6_8 C3_8 1_555 1_555
S1_9 C6_8 1_555 1_555
C7_8 C6_8 1_555 1_555
C8_8 C7_8 1_555 1_555
C13_8 S1_9 1_555 1_555
C14_8 C13_8 1_555 1_555
C15_8 C14_8 1_555 1_555
C16_8 C15_8 1_555 1_555
N3_8 C16_8 1_555 1_555
C17_8 N3_8 1_555 1_555
C18_8 C14_8 1_555 1_555
H9_8 C18_8 1_555 1_555
H10_8 C17_8 1_555 1_555
H11_8 C16_8 1_555 1_555
H12_8 C15_8 1_555 1_555
C19_8 C7_8 1_555 1_555
C20_8 C19_8 1_555 1_555
C4_8 C5_8 1_555 1_555
C13_8 C19_8 1_555 1_555
C17_8 C18_8 1_555 1_555
C10_8 C9_8 1_555 1_555
H6_8 C10_8 1_555 1_555
N7_6 C10_8 1_555 1_555
C11_8 N7_6 1_555 1_555
H7_8 C11_8 1_555 1_555
H8_8 C12_8 1_555 1_555
C22_8 C21_8 1_555 1_555
H14_8 C22_8 1_555 1_555
N4_8 C22_8 1_555 1_555
C23_8 N4_8 1_555 1_555
H15_8 C23_8 1_555 1_555
H16_8 C24_8 1_555 1_555
Ag4 N4_8 1_555 1_555
C11_8 C12_8 1_555 1_555
C23_8 C24_8 1_555 1_555
Ag3_2 N1_7 1_555 1_555
N1_7 C1_9 1_555 1_555
C1_9 H1_9 1_555 1_555
C2_9 C1_9 1_555 1_555
H2_9 C2_9 1_555 1_555
C3_9 C2_9 1_555 1_555
C4_9 C3_9 1_555 1_555
H3_9 C4_9 1_555 1_555
C5_9 N1_7 1_555 1_555
H4_9 C5_9 1_555 1_555
C6_9 C3_9 1_555 1_555
S1_10 C6_9 1_555 1_555
C7_9 C6_9 1_555 1_555
C8_9 C7_9 1_555 1_555
C9_9 C8_9 1_555 1_555
H5_9 C9_9 1_555 1_555
C10_9 C9_9 1_555 1_555
H6_9 C10_9 1_555 1_555
N6_2 C10_9 1_555 1_555
C11_9 N6_2 1_555 1_555
H7_9 C11_9 1_555 1_555
C12_9 C8_9 1_555 1_555
H8_9 C12_9 1_555 1_555
C13_9 S1_10 1_555 1_555
C14_9 C13_9 1_555 1_555
C15_9 C14_9 1_555 1_555
C16_9 C15_9 1_555 1_555
N3_9 C16_9 1_555 1_555
C17_9 N3_9 1_555 1_555
C18_9 C14_9 1_555 1_555
H9_9 C18_9 1_555 1_555
H10_9 C17_9 1_555 1_555
H11_9 C16_9 1_555 1_555
H12_9 C15_9 1_555 1_555
C19_9 C7_9 1_555 1_555
C20_9 C19_9 1_555 1_555
C21_9 C20_9 1_555 1_555
H13_9 C21_9 1_555 1_555
C22_9 C21_9 1_555 1_555
H14_9 C22_9 1_555 1_555
N4_9 C22_9 1_555 1_555
C23_9 N4_9 1_555 1_555
H15_9 C23_9 1_555 1_555
C24_9 C20_9 1_555 1_555
H16_9 C24_9 1_555 1_555
N7_7 Ag3_2 1_555 1_555
Ag4_4 N3_9 1_555 1_555
Ag2_4 N4_9 1_555 1_555
C4_9 C5_9 1_555 1_555
C11_9 C12_9 1_555 1_555
C13_9 C19_9 1_555 1_555
C17_9 C18_9 1_555 1_555
C23_9 C24_9 1_555 1_555
N5_2 C1_10 1_555 1_555
C1_10 H1_10 1_555 1_555
C2_10 C1_10 1_555 1_555
H2_10 C2_10 1_555 1_555
C3_10 C2_10 1_555 1_555
C4_10 C3_10 1_555 1_555
H3_10 C4_10 1_555 1_555
C5_10 N5_2 1_555 1_555
H4_10 C5_10 1_555 1_555
C6_10 C3_10 1_555 1_555
S1_11 C6_10 1_555 1_555
C7_10 C6_10 1_555 1_555
C8_10 C7_10 1_555 1_555
C9_10 C8_10 1_555 1_555
H5_10 C9_10 1_555 1_555
C10_10 C9_10 1_555 1_555
H6_10 C10_10 1_555 1_555
N7 C10_10 1_555 1_555
C11_10 N7 1_555 1_555
H7_10 C11_10 1_555 1_555
C12_10 C8_10 1_555 1_555
H8_10 C12_10 1_555 1_555
C13_10 S1_11 1_555 1_555
C14_10 C13_10 1_555 1_555
C15_10 C14_10 1_555 1_555
C16_10 C15_10 1_555 1_555
N3_10 C16_10 1_555 1_555
C17_10 N3_10 1_555 1_555
C18_10 C14_10 1_555 1_555
H9_10 C18_10 1_555 1_555
H10_10 C17_10 1_555 1_555
H11_10 C16_10 1_555 1_555
H12_10 C15_10 1_555 1_555
C19_10 C7_10 1_555 1_555
C20_10 C19_10 1_555 1_555
C21_10 C20_10 1_555 1_555
H13_10 C21_10 1_555 1_555
C22_10 C21_10 1_555 1_555
H14_10 C22_10 1_555 1_555
N4_10 C22_10 1_555 1_555
C23_10 N4_10 1_555 1_555
H15_10 C23_10 1_555 1_555
C24_10 C20_10 1_555 1_555
H16_10 C24_10 1_555 1_555
Ag4 N3_10 1_555 1_555
Ag2 N4_10 1_555 1_555
C4_10 C5_10 1_555 1_555
C11_10 C12_10 1_555 1_555
C13_10 C19_10 1_555 1_555
C17_10 C18_10 1_555 1_555
C23_10 C24_10 1_555 1_555
N5_3 C1_11 1_555 1_555
C1_11 H1_11 1_555 1_555
C2_11 C1_11 1_555 1_555
H2_11 C2_11 1_555 1_555
C3_11 C2_11 1_555 1_555
C4_11 C3_11 1_555 1_555
H3_11 C4_11 1_555 1_555
C5_11 N5_3 1_555 1_555
H4_11 C5_11 1_555 1_555
C6_11 C3_11 1_555 1_555
S1_12 C6_11 1_555 1_555
C7_11 C6_11 1_555 1_555
C8_11 C7_11 1_555 1_555
C9_11 C8_11 1_555 1_555
H5_11 C9_11 1_555 1_555
C10_11 C9_11 1_555 1_555
H6_11 C10_11 1_555 1_555
N7_7 C10_11 1_555 1_555
C11_11 N7_7 1_555 1_555
H7_11 C11_11 1_555 1_555
C12_11 C8_11 1_555 1_555
H8_11 C12_11 1_555 1_555
C4_11 C5_11 1_555 1_555
C11_11 C12_11 1_555 1_555
C13_11 S1_13 1_555 1_555
C14_11 C13_11 1_555 1_555
C15_11 C14_11 1_555 1_555
C16_11 C15_11 1_555 1_555
N3_11 C16_11 1_555 1_555
C17_11 N3_11 1_555 1_555
C18_11 C14_11 1_555 1_555
H9_11 C18_11 1_555 1_555
H10_11 C17_11 1_555 1_555
H11_11 C16_11 1_555 1_555
H12_11 C15_11 1_555 1_555
C20_11 C19_11 1_555 1_555
C21_11 C20_11 1_555 1_555
H13_11 C21_11 1_555 1_555
C22_11 C21_11 1_555 1_555
H14_11 C22_11 1_555 1_555
N4_11 C22_11 1_555 1_555
C23_11 N4_11 1_555 1_555
H15_11 C23_11 1_555 1_555
C24_11 C20_11 1_555 1_555
H16_11 C24_11 1_555 1_555
Ag2_4 N3_11 1_555 1_555
Ag4_4 N4_11 1_555 1_555
C13_11 C19_11 1_555 1_555
C17_11 C18_11 1_555 1_555
C23_11 C24_11 1_555 1_555
N5_7 C1_12 1_555 1_555
C1_12 H1_12 1_555 1_555
C2_12 C1_12 1_555 1_555
H2_12 C2_12 1_555 1_555
C3_12 C2_12 1_555 1_555
C4_12 C3_12 1_555 1_555
H3_12 C4_12 1_555 1_555
C5_12 N5_7 1_555 1_555
H4_12 C5_12 1_555 1_555
C6_12 C3_12 1_555 1_555
S1_14 C6_12 1_555 1_555
C7_12 C6_12 1_555 1_555
C8_12 C7_12 1_555 1_555
C13_12 S1_14 1_555 1_555
C14_12 C13_12 1_555 1_555
C15_12 C14_12 1_555 1_555
C16_12 C15_12 1_555 1_555
N3_12 C16_12 1_555 1_555
C17_12 N3_12 1_555 1_555
C18_12 C14_12 1_555 1_555
H9_12 C18_12 1_555 1_555
H10_12 C17_12 1_555 1_555
H11_12 C16_12 1_555 1_555
H12_12 C15_12 1_555 1_555
C19_12 C7_12 1_555 1_555
C20_12 C19_12 1_555 1_555
Ag4_2 N3_12 1_555 1_555
C4_12 C5_12 1_555 1_555
C13_12 C19_12 1_555 1_555
C17_12 C18_12 1_555 1_555
C10_12 C9_12 1_555 1_555
H6_12 C10_12 1_555 1_555
N7_2 C10_12 1_555 1_555
C11_12 N7_2 1_555 1_555
H7_12 C11_12 1_555 1_555
H8_12 C12_12 1_555 1_555
C22_12 C21_12 1_555 1_555
H14_12 C22_12 1_555 1_555
N4_12 C22_12 1_555 1_555
C23_12 N4_12 1_555 1_555
H15_12 C23_12 1_555 1_555
H16_12 C24_12 1_555 1_555
Ag2_2 N4_12 1_555 1_555
C11_12 C12_12 1_555 1_555
C23_12 C24_12 1_555 1_555
C13_13 S1_15 1_555 1_555
C14_13 C13_13 1_555 1_555
C15_13 C14_13 1_555 1_555
C16_13 C15_13 1_555 1_555
N3_13 C16_13 1_555 1_555
C17_13 N3_13 1_555 1_555
C18_13 C14_13 1_555 1_555
H9_13 C18_13 1_555 1_555
H10_13 C17_13 1_555 1_555
H11_13 C16_13 1_555 1_555
H12_13 C15_13 1_555 1_555
C20_13 C19_13 1_555 1_555
C21_13 C20_13 1_555 1_555
H13_13 C21_13 1_555 1_555
C22_13 C21_13 1_555 1_555
H14_13 C22_13 1_555 1_555
N4_13 C22_13 1_555 1_555
C23_13 N4_13 1_555 1_555
H15_13 C23_13 1_555 1_555
C24_13 C20_13 1_555 1_555
H16_13 C24_13 1_555 1_555
Ag4_3 N3_13 1_555 1_555
Ag2_2 N4_13 1_555 1_555
C13_13 C19_13 1_555 1_555
C17_13 C18_13 1_555 1_555
C23_13 C24_13 1_555 1_555
Ag3_4 N1_8 1_555 1_555
N1_8 C1_13 1_555 1_555
C1_13 H1_13 1_555 1_555
C2_13 C1_13 1_555 1_555
H2_13 C2_13 1_555 1_555
C3_13 C2_13 1_555 1_555
C4_13 C3_13 1_555 1_555
H3_13 C4_13 1_555 1_555
C5_13 N1_8 1_555 1_555
H4_13 C5_13 1_555 1_555
C6_13 C3_13 1_555 1_555
S1_16 C6_13 1_555 1_555
C7_13 C6_13 1_555 1_555
C8_13 C7_13 1_555 1_555
C9_13 C8_13 1_555 1_555
H5_13 C9_13 1_555 1_555
C10_13 C9_13 1_555 1_555
H6_13 C10_13 1_555 1_555
N6_4 C10_13 1_555 1_555
C11_13 N6_4 1_555 1_555
H7_13 C11_13 1_555 1_555
C12_13 C8_13 1_555 1_555
H8_13 C12_13 1_555 1_555
N5_8 Ag3_4 1_555 1_555
N7_8 Ag3_4 1_555 1_555
C4_13 C5_13 1_555 1_555
C11_13 C12_13 1_555 1_555
C13_14 S1_17 1_555 1_555
C14_14 C13_14 1_555 1_555
C15_14 C14_14 1_555 1_555
C16_14 C15_14 1_555 1_555
N3_14 C16_14 1_555 1_555
C17_14 N3_14 1_555 1_555
C18_14 C14_14 1_555 1_555
H9_14 C18_14 1_555 1_555
H10_14 C17_14 1_555 1_555
H11_14 C16_14 1_555 1_555
H12_14 C15_14 1_555 1_555
C20_14 C19_14 1_555 1_555
C21_14 C20_14 1_555 1_555
H13_14 C21_14 1_555 1_555
C22_14 C21_14 1_555 1_555
H14_14 C22_14 1_555 1_555
N4_14 C22_14 1_555 1_555
C23_14 N4_14 1_555 1_555
H15_14 C23_14 1_555 1_555
C24_14 C20_14 1_555 1_555
H16_14 C24_14 1_555 1_555
Ag2_3 N3_14 1_555 1_555
Ag4_2 N4_14 1_555 1_555
C13_14 C19_14 1_555 1_555
C17_14 C18_14 1_555 1_555
C23_14 C24_14 1_555 1_555
N5_5 C1_14 1_555 1_555
C1_14 H1_14 1_555 1_555
C2_14 C1_14 1_555 1_555
H2_14 C2_14 1_555 1_555
C3_14 C2_14 1_555 1_555
C4_14 C3_14 1_555 1_555
H3_14 C4_14 1_555 1_555
C5_14 N5_5 1_555 1_555
H4_14 C5_14 1_555 1_555
C6_14 C3_14 1_555 1_555
S1_18 C6_14 1_555 1_555
C7_14 C6_14 1_555 1_555
C8_14 C7_14 1_555 1_555
C9_14 C8_14 1_555 1_555
H5_14 C9_14 1_555 1_555
C10_14 C9_14 1_555 1_555
H6_14 C10_14 1_555 1_555
N7_4 C10_14 1_555 1_555
C11_14 N7_4 1_555 1_555
H7_14 C11_14 1_555 1_555
C12_14 C8_14 1_555 1_555
H8_14 C12_14 1_555 1_555
C4_14 C5_14 1_555 1_555
C11_14 C12_14 1_555 1_555
N5_6 C1_15 1_555 1_555
C1_15 H1_15 1_555 1_555
C2_15 C1_15 1_555 1_555
H2_15 C2_15 1_555 1_555
C3_15 C2_15 1_555 1_555
C4_15 C3_15 1_555 1_555
H3_15 C4_15 1_555 1_555
C5_15 N5_6 1_555 1_555
H4_15 C5_15 1_555 1_555
C6_15 C3_15 1_555 1_555
S1_19 C6_15 1_555 1_555
C7_15 C6_15 1_555 1_555
C8_15 C7_15 1_555 1_555
C9_15 C8_15 1_555 1_555
H5_15 C9_15 1_555 1_555
C10_15 C9_15 1_555 1_555
H6_15 C10_15 1_555 1_555
N7_8 C10_15 1_555 1_555
C11_15 N7_8 1_555 1_555
H7_15 C11_15 1_555 1_555
C12_15 C8_15 1_555 1_555
H8_15 C12_15 1_555 1_555
C13_15 S1_19 1_555 1_555
C14_15 C13_15 1_555 1_555
C15_15 C14_15 1_555 1_555
C16_15 C15_15 1_555 1_555
N3_15 C16_15 1_555 1_555
C17_15 N3_15 1_555 1_555
C18_15 C14_15 1_555 1_555
H9_15 C18_15 1_555 1_555
H10_15 C17_15 1_555 1_555
H11_15 C16_15 1_555 1_555
H12_15 C15_15 1_555 1_555
C19_15 C7_15 1_555 1_555
C20_15 C19_15 1_555 1_555
C21_15 C20_15 1_555 1_555
H13_15 C21_15 1_555 1_555
C22_15 C21_15 1_555 1_555
H14_15 C22_15 1_555 1_555
N4_15 C22_15 1_555 1_555
C23_15 N4_15 1_555 1_555
H15_15 C23_15 1_555 1_555
C24_15 C20_15 1_555 1_555
H16_15 C24_15 1_555 1_555
Ag2_2 N3_15 1_555 1_555
Ag4_3 N4_15 1_555 1_555
C4_15 C5_15 1_555 1_555
C11_15 C12_15 1_555 1_555
C13_15 C19_15 1_555 1_555
C17_15 C18_15 1_555 1_555
C23_15 C24_15 1_555 1_555
N5_8 C1_16 1_555 1_555
C1_16 H1_16 1_555 1_555
C2_16 C1_16 1_555 1_555
H2_16 C2_16 1_555 1_555
C3_16 C2_16 1_555 1_555
C4_16 C3_16 1_555 1_555
H3_16 C4_16 1_555 1_555
C5_16 N5_8 1_555 1_555
H4_16 C5_16 1_555 1_555
C6_16 C3_16 1_555 1_555
S1_20 C6_16 1_555 1_555
C7_16 C6_16 1_555 1_555
C8_16 C7_16 1_555 1_555
C9_16 C8_16 1_555 1_555
H5_16 C9_16 1_555 1_555
C10_16 C9_16 1_555 1_555
H6_16 C10_16 1_555 1_555
N7_5 C10_16 1_555 1_555
C11_16 N7_5 1_555 1_555
H7_16 C11_16 1_555 1_555
C12_16 C8_16 1_555 1_555
H8_16 C12_16 1_555 1_555
C13_16 S1_20 1_555 1_555
C14_16 C13_16 1_555 1_555
C15_16 C14_16 1_555 1_555
C16_16 C15_16 1_555 1_555
N3_16 C16_16 1_555 1_555
C17_16 N3_16 1_555 1_555
C18_16 C14_16 1_555 1_555
H9_16 C18_16 1_555 1_555
H10_16 C17_16 1_555 1_555
H11_16 C16_16 1_555 1_555
H12_16 C15_16 1_555 1_555
C19_16 C7_16 1_555 1_555
C20_16 C19_16 1_555 1_555
C21_16 C20_16 1_555 1_555
H13_16 C21_16 1_555 1_555
C22_16 C21_16 1_555 1_555
H14_16 C22_16 1_555 1_555
N4_16 C22_16 1_555 1_555
C23_16 N4_16 1_555 1_555
H15_16 C23_16 1_555 1_555
C24_16 C20_16 1_555 1_555
H16_16 C24_16 1_555 1_555
Ag2_4 N4_16 1_555 1_555
C4_16 C5_16 1_555 1_555
C11_16 C12_16 1_555 1_555
C13_16 C19_16 1_555 1_555
C17_16 C18_16 1_555 1_555
C23_16 C24_16 1_555 1_555
Sb3 F13 1_555 1_555
F14 Sb3 1_555 1_555
F15 Sb3 1_555 1_555
F16 Sb3 1_555 1_555
F17 Sb3 1_555 1_555
F18 Sb3 1_555 1_555
F15_2 Sb3_2 1_555 1_555
F16_2 Sb3_2 1_555 1_555
F16_3 Sb3_3 1_555 1_555
F17_2 Sb3_3 1_555 1_555
F14_2 Sb3_4 1_555 1_555
F16_4 Sb3_4 1_555 1_555
F16_5 Sb3_5 1_555 1_555
F18_2 Sb3_5 1_555 1_555
Sb3_6 F13_2 1_555 1_555
F15_3 Sb3_6 1_555 1_555
Sb3_7 F13_3 1_555 1_555
F17_3 Sb3_7 1_555 1_555
Sb3_8 F13_4 1_555 1_555
F14_3 Sb3_8 1_555 1_555
Sb3_9 F13_5 1_555 1_555
F18_3 Sb3_9 1_555 1_555
Sb3_10 F13_6 1_555 1_555
F14_4 Sb3_10 1_555 1_555
F16_6 Sb3_10 1_555 1_555
F18_4 Sb3_10 1_555 1_555
Sb3_11 F13_7 1_555 1_555
F15_4 Sb3_11 1_555 1_555
F16_7 Sb3_11 1_555 1_555
F17_4 Sb3_11 1_555 1_555
Sb3_12 F13_8 1_555 1_555
F14_5 Sb3_12 1_555 1_555
F15_5 Sb3_12 1_555 1_555
F16_8 Sb3_12 1_555 1_555
F17_5 Sb3_12 1_555 1_555
F18_5 Sb3_12 1_555 1_555
Sb3_13 F13_9 1_555 1_555
F14_6 Sb3_13 1_555 1_555
F15_6 Sb3_13 1_555 1_555
F16_9 Sb3_13 1_555 1_555
F17_6 Sb3_13 1_555 1_555
F18_6 Sb3_13 1_555 1_555
Sb3_14 F13_10 1_555 1_555
F14_7 Sb3_14 1_555 1_555
F15_7 Sb3_14 1_555 1_555
Sb3_15 F13_11 1_555 1_555
F17_7 Sb3_15 1_555 1_555
F18_7 Sb3_15 1_555 1_555
F14_8 Sb3_16 1_555 1_555
F15_8 Sb3_16 1_555 1_555
F16_10 Sb3_16 1_555 1_555
F16_11 Sb3_17 1_555 1_555
F17_8 Sb3_17 1_555 1_555
F18_8 Sb3_17 1_555 1_555
Sb3_18 F13_12 1_555 1_555
F14_9 Sb3_18 1_555 1_555
F15_9 Sb3_18 1_555 1_555
F16_12 Sb3_18 1_555 1_555
F17_9 Sb3_18 1_555 1_555
F18_9 Sb3_18 1_555 1_555
Sb3_19 F13_13 1_555 1_555
F14_10 Sb3_19 1_555 1_555
F15_10 Sb3_19 1_555 1_555
F16_13 Sb3_19 1_555 1_555
F17_10 Sb3_19 1_555 1_555
F18_10 Sb3_19 1_555 1_555

#END
