
###############################################################################
#
# This file contains modified crystal structure data generated from the
# MOF subset of the Cambridge Structural Database (CSD) v543 
# hosted by the Cambridge Crystallographic Data Centre (CCDC).
#
# This work is licensed under the Creative Commons
# Attribution-NonCommercial-ShareAlike 4.0 International License.
# To view a copy of this license, visit
# http://creativecommons.org/licenses/by-nc-sa/4.0/
# or send a letter to
# Creative Commons, PO Box 1866, Mountain View, CA 94042, USA.
#
# CIF created using the CSD Python API on 29 September 2022
# The structure has been converted into the P1 space group
# The structure has a 3D framework
# The original CSD entry AVOMUW is in the tetragonal crystal system
# The framework has been calculated to contain at least 10.0% void space
# The void calculation uses a probe of radius 1.32A, grid spacing 0.4
#
###############################################################################

data_AVOMUW
_chemical_formula_moiety         '(C189 H128 Cu2 N16)n'
_symmetry_cell_setting           triclinic
_symmetry_space_group_name_H-M   'P 1'
_symmetry_Int_Tables_number      1
_space_group_name_Hall           'P 1'
loop_
_symmetry_equiv_pos_site_id
_symmetry_equiv_pos_as_xyz
1 x,y,z
_cell_length_a                   27.2238(4)
_cell_length_b                   27.2238(4)
_cell_length_c                   7.0136(2)
_cell_angle_alpha                90
_cell_angle_beta                 90
_cell_angle_gamma                90
_cell_volume                     5198.03
loop_
_atom_site_label
_atom_site_type_symbol
_atom_site_fract_x
_atom_site_fract_y
_atom_site_fract_z
N4 N 0.33800(10) 0.19951(11) 0.4768(4)
C35 C 0.39213(12) 0.13377(12) 0.2523(5)
C37 C 0.49461(11) 0.06043(10) 0.0249(4)
H25 H 0.529018 0.056057 0.039693
C38 C 0.35151(13) 0.15886(14) 0.1798(5)
H26 H 0.341442 0.153824 0.051567
C39 C 0.47043(11) 0.09250(10) 0.1443(5)
H27 H 0.488335 0.110404 0.237554
C40 C 0.41945(10) 0.09881(10) 0.1288(5)
C41 C 0.37658(12) 0.17514(12) 0.5474(5)
H28 H 0.385229 0.180316 0.677055
C42 C 0.32612(14) 0.19096(15) 0.2952(5)
H29 H 0.298741 0.207880 0.242846
C43 C 0.40452(12) 0.14274(12) 0.4407(5)
H30 H 0.432030 0.126762 0.496376
Cu3 Cu 0.29914(2) 0.250000 0.625000
Br1 Br 0.79567(2) 0.250000 0.125000
N1 N 0.69951(11) 0.16200(10) 0.0232(4)
C1 C 0.63377(12) 0.10787(12) 0.2477(5)
C2 C 0.500000 0.000000 0.750000
C3 C 0.53403(9) 0.02997(10) 0.6180(5)
C4 C 0.56043(10) 0.00539(11) 0.4751(4)
C5 C 0.65886(14) 0.14849(13) 0.3202(5)
H2 H 0.653824 0.158558 0.448433
C6 C 0.59250(10) 0.02957(11) 0.3557(5)
H3 H 0.610404 0.011665 0.262446
C7 C 0.59881(10) 0.08055(10) 0.3712(5)
C9 C 0.69096(15) 0.17388(14) 0.2048(5)
H5 H 0.707880 0.201259 0.257154
C10 C 0.64274(12) 0.09548(12) 0.0593(5)
H6 H 0.626762 0.067970 0.003624
C11 C 0.53986(10) 0.08065(10) 0.6295(5)
H7 H 0.521905 0.098624 0.722322
C12 C 0.57148(11) 0.10539(11) 0.5075(5)
H8 H 0.574474 0.140057 0.517638
H9 H 0.443943 0.029018 0.460307
C36 C 0.47003(10) 0.03403(9) 0.8820(5)
C44 C 0.41935(10) 0.03986(10) 0.8705(5)
H31 H 0.401376 0.021905 0.777678
C45 C 0.39461(11) 0.07148(11) 0.9925(5)
H32 H 0.359943 0.074474 0.982362
Cu6 Cu 0.750000 0.29914(2) 0.375000
Cu1 Cu 0.750000 0.20086(2) 0.875000
C8 C 0.67514(12) 0.12342(12) 0.9526(5)
H4 H 0.680316 0.114771 0.822945
Br3 Br 0.70433(2) 0.250000 0.625000
N5 N 0.80049(11) 0.16200(10) 0.7268(4)
N3 N 0.66200(10) 0.80049(11) 0.4768(4)
C24 C 0.60787(12) 0.86623(12) 0.2523(5)
C26 C 0.50539(11) 0.93957(10) 0.0249(4)
H17 H 0.470982 0.943943 0.039693
C27 C 0.64849(13) 0.84114(14) 0.1798(5)
H18 H 0.658558 0.846176 0.051567
C28 C 0.52957(11) 0.90750(10) 0.1443(5)
H19 H 0.511665 0.889596 0.237554
C29 C 0.58055(10) 0.90119(10) 0.1288(5)
C30 C 0.62342(12) 0.82486(12) 0.5474(5)
H20 H 0.614771 0.819684 0.677055
C31 C 0.67388(14) 0.80904(15) 0.2952(5)
H21 H 0.701259 0.792120 0.242846
C32 C 0.59548(12) 0.85726(12) 0.4407(5)
H22 H 0.567970 0.873238 0.496376
Cu4 Cu 0.70086(2) 0.750000 0.625000
C2_2 C 0.500000 1.000000 0.750000
H1 H 0.556057 0.970982 0.460307
N2 N 0.30049(11) 0.83800(10) 0.0232(4)
C13 C 0.36623(12) 0.89213(12) 0.2477(5)
C14 C 0.46597(9) 0.97003(10) 0.6180(5)
C15 C 0.43957(10) 0.99461(11) 0.4751(4)
C16 C 0.34114(14) 0.85151(13) 0.3202(5)
H10 H 0.346176 0.841442 0.448433
C17 C 0.40750(10) 0.97043(11) 0.3557(5)
H11 H 0.389596 0.988335 0.262446
C18 C 0.40119(10) 0.91945(10) 0.3712(5)
C20 C 0.30904(15) 0.82612(14) 0.2048(5)
H13 H 0.292120 0.798741 0.257154
C21 C 0.35726(12) 0.90452(12) 0.0593(5)
H14 H 0.373238 0.932030 0.003624
C22 C 0.46014(10) 0.91935(10) 0.6295(5)
H15 H 0.478095 0.901376 0.722322
C23 C 0.42852(11) 0.89461(11) 0.5075(5)
H16 H 0.425526 0.859943 0.517638
C25 C 0.52997(10) 0.96597(9) 0.8820(5)
C33 C 0.58065(10) 0.96014(10) 0.8705(5)
H23 H 0.598624 0.978095 0.777678
C34 C 0.60539(11) 0.92852(11) 0.9925(5)
H24 H 0.640057 0.925526 0.982362
Br2 Br 0.20433(2) 0.750000 0.125000
Cu5 Cu 0.250000 0.70086(2) 0.375000
C19 C 0.32486(12) 0.87658(12) 0.9526(5)
H12 H 0.319684 0.885229 0.822945
Cu2 Cu 0.250000 0.79914(2) 0.875000
Br4 Br 0.29567(2) 0.750000 0.625000
N6 N 0.19951(11) 0.83800(10) 0.7268(4)
Cu1_2 Cu 0.20086(2) 0.250000 0.125000
C8_2 C 0.12342(12) 0.32486(12) 0.0474(5)
H4_2 H 0.114771 0.319684 0.177055
Br3_2 Br 0.250000 0.29567(2) 0.375000
N5_2 N 0.16200(10) 0.19951(11) 0.2732(4)
Br1_2 Br 0.250000 0.20433(2) 0.875000
N1_2 N 0.16200(10) 0.30049(11) 0.9768(4)
C1_2 C 0.10787(12) 0.36623(12) 0.7523(5)
C2_3 C 0.000000 0.500000 0.250000
C3_2 C 0.02997(10) 0.46597(9) 0.3820(5)
C4_2 C 0.00539(11) 0.43957(10) 0.5249(4)
C5_2 C 0.14849(13) 0.34114(14) 0.6798(5)
H2_2 H 0.158558 0.346176 0.551567
C6_2 C 0.02957(11) 0.40750(10) 0.6443(5)
H3_2 H 0.011665 0.389596 0.737554
C7_2 C 0.08055(10) 0.40119(10) 0.6288(5)
C9_2 C 0.17388(14) 0.30904(15) 0.7952(5)
H5_2 H 0.201259 0.292120 0.742846
C10_2 C 0.09548(12) 0.35726(12) 0.9407(5)
H6_2 H 0.067970 0.373238 0.996376
C11_2 C 0.08065(10) 0.46014(10) 0.3705(5)
H7_2 H 0.098624 0.478095 0.277678
C12_2 C 0.10539(11) 0.42852(11) 0.4925(5)
H8_2 H 0.140057 0.425526 0.482362
H9_2 H 0.029018 0.556057 0.539693
C36_2 C 0.03403(9) 0.52997(10) 0.1180(5)
C44_2 C 0.03986(10) 0.58065(10) 0.1295(5)
H31_2 H 0.021905 0.598624 0.222322
C45_2 C 0.07148(11) 0.60539(11) 0.0075(5)
H32_2 H 0.074474 0.640057 0.017638
N4_2 N 0.19951(11) 0.66200(10) 0.5232(4)
C35_2 C 0.13377(12) 0.60787(12) 0.7477(5)
C37_2 C 0.06043(10) 0.50539(11) 0.9751(4)
H25_2 H 0.056057 0.470982 0.960307
C38_2 C 0.15886(14) 0.64849(13) 0.8202(5)
H26_2 H 0.153824 0.658558 0.948433
C39_2 C 0.09250(10) 0.52957(11) 0.8557(5)
H27_2 H 0.110404 0.511665 0.762446
C40_2 C 0.09881(10) 0.58055(10) 0.8712(5)
C41_2 C 0.17514(12) 0.62342(12) 0.4526(5)
H28_2 H 0.180316 0.614771 0.322945
C42_2 C 0.19096(15) 0.67388(14) 0.7048(5)
H29_2 H 0.207880 0.701259 0.757154
C43_2 C 0.14274(12) 0.59548(12) 0.5593(5)
H30_2 H 0.126762 0.567970 0.503624
C19_2 C 0.87658(12) 0.67514(12) 0.0474(5)
H12_2 H 0.885229 0.680316 0.177055
Cu2_2 Cu 0.79914(2) 0.750000 0.125000
Br4_2 Br 0.750000 0.70433(2) 0.375000
N6_2 N 0.83800(10) 0.80049(11) 0.2732(4)
C2_4 C 1.000000 0.500000 0.250000
H1_2 H 0.970982 0.443943 0.539693
N2_2 N 0.83800(10) 0.69951(11) 0.9768(4)
C13_2 C 0.89213(12) 0.63377(12) 0.7523(5)
C14_2 C 0.97003(10) 0.53403(9) 0.3820(5)
C15_2 C 0.99461(11) 0.56043(10) 0.5249(4)
C16_2 C 0.85151(13) 0.65886(14) 0.6798(5)
H10_2 H 0.841442 0.653824 0.551567
C17_2 C 0.97043(11) 0.59250(10) 0.6443(5)
H11_2 H 0.988335 0.610404 0.737554
C18_2 C 0.91945(10) 0.59881(10) 0.6288(5)
C20_2 C 0.82612(14) 0.69096(15) 0.7952(5)
H13_2 H 0.798741 0.707880 0.742846
C21_2 C 0.90452(12) 0.64274(12) 0.9407(5)
H14_2 H 0.932030 0.626762 0.996376
C22_2 C 0.91935(10) 0.53986(10) 0.3705(5)
H15_2 H 0.901376 0.521905 0.277678
C23_2 C 0.89461(11) 0.57148(11) 0.4925(5)
H16_2 H 0.859943 0.574474 0.482362
C25_2 C 0.96597(9) 0.47003(10) 0.1180(5)
C33_2 C 0.96014(10) 0.41935(10) 0.1295(5)
H23_2 H 0.978095 0.401376 0.222322
C34_2 C 0.92852(11) 0.39461(11) 0.0075(5)
H24_2 H 0.925526 0.359943 0.017638
Br2_2 Br 0.750000 0.79567(2) 0.875000
N3_2 N 0.80049(11) 0.33800(10) 0.5232(4)
C24_2 C 0.86623(12) 0.39213(12) 0.7477(5)
C26_2 C 0.93957(10) 0.49461(11) 0.9751(4)
H17_2 H 0.943943 0.529018 0.960307
C27_2 C 0.84114(14) 0.35151(13) 0.8202(5)
H18_2 H 0.846176 0.341442 0.948433
C28_2 C 0.90750(10) 0.47043(11) 0.8557(5)
H19_2 H 0.889596 0.488335 0.762446
C29_2 C 0.90119(10) 0.41945(10) 0.8712(5)
C30_2 C 0.82486(12) 0.37658(12) 0.4526(5)
H20_2 H 0.819684 0.385229 0.322945
C31_2 C 0.80904(15) 0.32612(14) 0.7048(5)
H21_2 H 0.792120 0.298741 0.757154
C32_2 C 0.85726(12) 0.40452(12) 0.5593(5)
H22_2 H 0.873238 0.432030 0.503624
C2_5 C -0.000000 0.000000 1.000000
C35_3 C 0.10787(12) 0.13377(12) 0.4977(5)
C36_3 C 0.02997(10) 0.03403(9) 0.8680(5)
C37_3 C 0.00539(11) 0.06043(10) 0.7251(4)
C38_3 C 0.14849(13) 0.15886(14) 0.5702(5)
H26_3 H 0.158558 0.153824 0.698433
C39_3 C 0.02957(11) 0.09250(10) 0.6057(5)
H27_3 H 0.011665 0.110404 0.512446
C40_3 C 0.08055(10) 0.09881(10) 0.6212(5)
C41_3 C 0.12342(12) 0.17514(12) 0.2026(5)
H28_3 H 0.114771 0.180316 0.072945
C42_3 C 0.17388(14) 0.19096(15) 0.4548(5)
H29_3 H 0.201259 0.207880 0.507154
C43_3 C 0.09548(12) 0.14274(12) 0.3093(5)
H30_3 H 0.067970 0.126762 0.253624
C44_3 C 0.08065(10) 0.03986(10) 0.8795(5)
H31_3 H 0.098624 0.021905 0.972322
C45_3 C 0.10539(11) 0.07148(11) 0.7575(5)
H32_3 H 0.140057 0.074474 0.767638
C2_6 C -0.000000 1.000000 0.000000
C13_3 C 0.13377(12) 0.89213(12) 0.5023(5)
C14_3 C 0.03403(9) 0.97003(10) 0.1320(5)
C15_3 C 0.06043(10) 0.99461(11) 0.2749(4)
C16_3 C 0.15886(14) 0.85151(13) 0.4298(5)
H10_3 H 0.153824 0.841442 0.301567
C17_3 C 0.09250(10) 0.97043(11) 0.3943(5)
H11_3 H 0.110404 0.988335 0.487554
C18_3 C 0.09881(10) 0.91945(10) 0.3788(5)
C19_3 C 0.17514(12) 0.87658(12) 0.7974(5)
H12_3 H 0.180316 0.885229 0.927055
C20_3 C 0.19096(15) 0.82612(14) 0.5452(5)
H13_3 H 0.207880 0.798741 0.492846
C21_3 C 0.14274(12) 0.90452(12) 0.6907(5)
H14_3 H 0.126762 0.932030 0.746376
C22_3 C 0.03986(10) 0.91935(10) 0.1205(5)
H15_3 H 0.021905 0.901376 0.027678
C23_3 C 0.07148(11) 0.89461(11) 0.2425(5)
H16_3 H 0.074474 0.859943 0.232362
C1_3 C 0.86623(12) 0.10787(12) 0.5023(5)
C2_7 C 1.000000 0.000000 0.000000
C3_3 C 0.96597(9) 0.02997(10) 0.1320(5)
C4_3 C 0.93957(10) 0.00539(11) 0.2749(4)
C5_3 C 0.84114(14) 0.14849(13) 0.4298(5)
H2_3 H 0.846176 0.158558 0.301567
C6_3 C 0.90750(10) 0.02957(11) 0.3943(5)
H3_3 H 0.889596 0.011665 0.487554
C7_3 C 0.90119(10) 0.08055(10) 0.3788(5)
C8_3 C 0.82486(12) 0.12342(12) 0.7974(5)
H4_3 H 0.819684 0.114771 0.927055
C9_3 C 0.80904(15) 0.17388(14) 0.5452(5)
H5_3 H 0.792120 0.201259 0.492846
C10_3 C 0.85726(12) 0.09548(12) 0.6907(5)
H6_3 H 0.873238 0.067970 0.746376
C11_3 C 0.96014(10) 0.08065(10) 0.1205(5)
H7_3 H 0.978095 0.098624 0.027678
C12_3 C 0.92852(11) 0.10539(11) 0.2425(5)
H8_3 H 0.925526 0.140057 0.232362
C2_8 C 1.000000 1.000000 1.000000
C24_3 C 0.89213(12) 0.86623(12) 0.4977(5)
C25_3 C 0.97003(10) 0.96597(9) 0.8680(5)
C26_3 C 0.99461(11) 0.93957(10) 0.7251(4)
C27_3 C 0.85151(13) 0.84114(14) 0.5702(5)
H18_3 H 0.841442 0.846176 0.698433
C28_3 C 0.97043(11) 0.90750(10) 0.6057(5)
H19_3 H 0.988335 0.889596 0.512446
C29_3 C 0.91945(10) 0.90119(10) 0.6212(5)
C30_3 C 0.87658(12) 0.82486(12) 0.2026(5)
H20_3 H 0.885229 0.819684 0.072945
C31_3 C 0.82612(14) 0.80904(15) 0.4548(5)
H21_3 H 0.798741 0.792120 0.507154
C32_3 C 0.90452(12) 0.85726(12) 0.3093(5)
H22_3 H 0.932030 0.873238 0.253624
C33_3 C 0.91935(10) 0.96014(10) 0.8795(5)
H23_3 H 0.901376 0.978095 0.972322
C34_3 C 0.89461(11) 0.92852(11) 0.7575(5)
H24_3 H 0.859943 0.925526 0.767638
N3_3 N 0.69951(11) 0.33800(10) 0.2268(4)
C24_4 C 0.63377(12) 0.39213(12) 0.0023(5)
C30_4 C 0.67514(12) 0.37658(12) 0.2974(5)
H20_4 H 0.680316 0.385229 0.427055
C31_4 C 0.69096(15) 0.32612(14) 0.0452(5)
C32_4 C 0.64274(12) 0.40452(12) 0.1907(5)
H22_4 H 0.626762 0.432030 0.246376
N4_3 N 0.30049(11) 0.66200(10) 0.2268(4)
C35_4 C 0.36623(12) 0.60787(12) 0.0023(5)
C41_4 C 0.32486(12) 0.62342(12) 0.2974(5)
H28_4 H 0.319684 0.614771 0.427055
C42_4 C 0.30904(15) 0.67388(14) 0.0452(5)
C43_4 C 0.35726(12) 0.59548(12) 0.1907(5)
H30_4 H 0.373238 0.567970 0.246376
C2_9 C 0.500000 0.500000 0.500000
C3_4 C 0.47003(10) 0.46597(9) 0.3680(5)
C4_4 C 0.49461(11) 0.43957(10) 0.2251(4)
H1_3 H 0.529018 0.443943 0.210307
C5_4 C 0.35151(13) 0.34114(14) 0.0702(5)
H2_4 H 0.341442 0.346176 0.198433
C6_4 C 0.47043(11) 0.40750(10) 0.1057(5)
H3_4 H 0.488335 0.389596 0.012446
C7_4 C 0.41945(10) 0.40119(10) 0.1212(5)
H5_4 H 0.298741 0.292120 0.007154
C11_4 C 0.41935(10) 0.46014(10) 0.3795(5)
H7_4 H 0.401376 0.478095 0.472322
C12_4 C 0.39461(11) 0.42852(11) 0.2575(5)
H8_4 H 0.359943 0.425526 0.267638
C14_4 C 0.52997(10) 0.53403(9) 0.3680(5)
C15_4 C 0.50539(11) 0.56043(10) 0.2251(4)
H9_3 H 0.470982 0.556057 0.210307
C16_4 C 0.64849(13) 0.65886(14) 0.0702(5)
H10_4 H 0.658558 0.653824 0.198433
C17_4 C 0.52957(11) 0.59250(10) 0.1057(5)
H11_4 H 0.511665 0.610404 0.012446
C18_4 C 0.58055(10) 0.59881(10) 0.1212(5)
H13_4 H 0.701259 0.707880 0.007154
C22_4 C 0.58065(10) 0.53986(10) 0.3795(5)
H15_4 H 0.598624 0.521905 0.472322
C23_4 C 0.60539(11) 0.57148(11) 0.2575(5)
H16_4 H 0.640057 0.574474 0.267638
C25_4 C 0.53403(9) 0.47003(10) 0.6320(5)
C26_4 C 0.56043(10) 0.49461(11) 0.7749(4)
H17_3 H 0.556057 0.529018 0.789693
C27_4 C 0.65886(14) 0.35151(13) 0.9298(5)
H18_4 H 0.653824 0.341442 0.801567
C28_4 C 0.59250(10) 0.47043(11) 0.8943(5)
H19_4 H 0.610404 0.488335 0.987554
C29_4 C 0.59881(10) 0.41945(10) 0.8788(5)
H21_4 H 0.707880 0.298741 0.992846
C33_4 C 0.53986(10) 0.41935(10) 0.6205(5)
H23_4 H 0.521905 0.401376 0.527678
C34_4 C 0.57148(11) 0.39461(11) 0.7425(5)
H24_4 H 0.574474 0.359943 0.732362
C36_4 C 0.46597(9) 0.52997(10) 0.6320(5)
C37_4 C 0.43957(10) 0.50539(11) 0.7749(4)
H25_3 H 0.443943 0.470982 0.789693
C38_4 C 0.34114(14) 0.64849(13) 0.9298(5)
H26_4 H 0.346176 0.658558 0.801567
C39_4 C 0.40750(10) 0.52957(11) 0.8943(5)
H27_4 H 0.389596 0.511665 0.987554
C40_4 C 0.40119(10) 0.58055(10) 0.8788(5)
H29_4 H 0.292120 0.701259 0.992846
C44_4 C 0.46014(10) 0.58065(10) 0.6205(5)
H31_4 H 0.478095 0.598624 0.527678
C45_4 C 0.42852(11) 0.60539(11) 0.7425(5)
H32_4 H 0.425526 0.640057 0.732362
N1_3 N 0.33800(10) 0.30049(11) 0.7732(4)
C1_4 C 0.39213(12) 0.36623(12) 0.9977(5)
C8_4 C 0.37658(12) 0.32486(12) 0.7026(5)
H4_4 H 0.385229 0.319684 0.572945
C9_4 C 0.32612(14) 0.30904(15) 0.9548(5)
C10_4 C 0.40452(12) 0.35726(12) 0.8093(5)
H6_4 H 0.432030 0.373238 0.753624
N2_3 N 0.66200(10) 0.69951(11) 0.7732(4)
C13_4 C 0.60787(12) 0.63377(12) 0.9977(5)
C19_4 C 0.62342(12) 0.67514(12) 0.7026(5)
H12_4 H 0.614771 0.680316 0.572945
C20_4 C 0.67388(14) 0.69096(15) 0.9548(5)
C21_4 C 0.59548(12) 0.64274(12) 0.8093(5)
H14_4 H 0.567970 0.626762 0.753624
C2_10 C -0.000000 0.000000 0.000000
H9_4 H 0.056057 0.029018 0.289693
C2_11 C -0.000000 1.000000 1.000000
H17_4 H 0.029018 0.943943 0.710307
C2_12 C 1.000000 0.000000 1.000000
H25_4 H 0.970982 0.056057 0.710307
C2_13 C 1.000000 1.000000 0.000000
H1_4 H 0.943943 0.970982 0.289693
loop_
_geom_bond_atom_site_label_1
_geom_bond_atom_site_label_2
_geom_bond_site_symmetry_1
_geom_bond_site_symmetry_2
N4 C41 1_555 1_555
C35 C38 1_555 1_555
H25 C37 1_555 1_555
C38 H26 1_555 1_555
C39 C37 1_555 1_555
H27 C39 1_555 1_555
C40 C35 1_555 1_555
C41 H28 1_555 1_555
C42 N4 1_555 1_555
H29 C42 1_555 1_555
C43 C35 1_555 1_555
H30 C43 1_555 1_555
Cu3 N4 1_555 1_555
C38 C42 1_555 1_555
C39 C40 1_555 1_555
C41 C43 1_555 1_555
C1 C5 1_555 1_555
C2 C3 1_555 1_555
C3 C4 1_555 1_555
C5 H2 1_555 1_555
C6 C4 1_555 1_555
H3 C6 1_555 1_555
C7 C1 1_555 1_555
C9 N1 1_555 1_555
H5 C9 1_555 1_555
C10 C1 1_555 1_555
H6 C10 1_555 1_555
C11 C3 1_555 1_555
H7 C11 1_555 1_555
C12 C7 1_555 1_555
H8 C12 1_555 1_555
C36 C2 1_555 1_555
C44 C36 1_555 1_555
H31 C44 1_555 1_555
H32 C45 1_555 1_555
Cu6 Br1 1_555 1_555
C5 C9 1_555 1_555
C6 C7 1_555 1_555
C11 C12 1_555 1_555
C44 C45 1_555 1_555
C8 H4 1_555 1_555
Br3 Cu1 1_555 1_555
N5 Cu1 1_555 1_555
N3 C30 1_555 1_555
C24 C27 1_555 1_555
H17 C26 1_555 1_555
C27 H18 1_555 1_555
C28 C26 1_555 1_555
H19 C28 1_555 1_555
C29 C24 1_555 1_555
C30 H20 1_555 1_555
C31 N3 1_555 1_555
H21 C31 1_555 1_555
C32 C24 1_555 1_555
H22 C32 1_555 1_555
Cu4 N3 1_555 1_555
C27 C31 1_555 1_555
C28 C29 1_555 1_555
C30 C32 1_555 1_555
C13 C16 1_555 1_555
C14 C2_2 1_555 1_555
C15 C14 1_555 1_555
C16 H10 1_555 1_555
C17 C15 1_555 1_555
H11 C17 1_555 1_555
C18 C13 1_555 1_555
C20 N2 1_555 1_555
H13 C20 1_555 1_555
C21 C13 1_555 1_555
H14 C21 1_555 1_555
C22 C14 1_555 1_555
H15 C22 1_555 1_555
C23 C18 1_555 1_555
H16 C23 1_555 1_555
C25 C2_2 1_555 1_555
C33 C25 1_555 1_555
H23 C33 1_555 1_555
H24 C34 1_555 1_555
Cu5 Br2 1_555 1_555
C16 C20 1_555 1_555
C17 C18 1_555 1_555
C22 C23 1_555 1_555
C33 C34 1_555 1_555
C19 H12 1_555 1_555
Br4 Cu2 1_555 1_555
N6 Cu2 1_555 1_555
C8_2 H4_2 1_555 1_555
Br3_2 Cu1_2 1_555 1_555
N5_2 Cu1_2 1_555 1_555
C1_2 C5_2 1_555 1_555
C2_3 C3_2 1_555 1_555
C3_2 C4_2 1_555 1_555
C5_2 H2_2 1_555 1_555
C6_2 C4_2 1_555 1_555
H3_2 C6_2 1_555 1_555
C7_2 C1_2 1_555 1_555
C9_2 N1_2 1_555 1_555
H5_2 C9_2 1_555 1_555
C10_2 C1_2 1_555 1_555
H6_2 C10_2 1_555 1_555
C11_2 C3_2 1_555 1_555
H7_2 C11_2 1_555 1_555
C12_2 C7_2 1_555 1_555
H8_2 C12_2 1_555 1_555
C36_2 C2_3 1_555 1_555
C44_2 C36_2 1_555 1_555
H31_2 C44_2 1_555 1_555
H32_2 C45_2 1_555 1_555
Cu3 Br1_2 1_555 1_555
C5_2 C9_2 1_555 1_555
C6_2 C7_2 1_555 1_555
C11_2 C12_2 1_555 1_555
C44_2 C45_2 1_555 1_555
N4_2 C41_2 1_555 1_555
C35_2 C38_2 1_555 1_555
H25_2 C37_2 1_555 1_555
C38_2 H26_2 1_555 1_555
C39_2 C37_2 1_555 1_555
H27_2 C39_2 1_555 1_555
C40_2 C35_2 1_555 1_555
C41_2 H28_2 1_555 1_555
C42_2 N4_2 1_555 1_555
H29_2 C42_2 1_555 1_555
C43_2 C35_2 1_555 1_555
H30_2 C43_2 1_555 1_555
Cu5 N4_2 1_555 1_555
C38_2 C42_2 1_555 1_555
C39_2 C40_2 1_555 1_555
C41_2 C43_2 1_555 1_555
C19_2 H12_2 1_555 1_555
Br4_2 Cu2_2 1_555 1_555
N6_2 Cu2_2 1_555 1_555
C13_2 C16_2 1_555 1_555
C14_2 C2_4 1_555 1_555
C15_2 C14_2 1_555 1_555
C16_2 H10_2 1_555 1_555
C17_2 C15_2 1_555 1_555
H11_2 C17_2 1_555 1_555
C18_2 C13_2 1_555 1_555
C20_2 N2_2 1_555 1_555
H13_2 C20_2 1_555 1_555
C21_2 C13_2 1_555 1_555
H14_2 C21_2 1_555 1_555
C22_2 C14_2 1_555 1_555
H15_2 C22_2 1_555 1_555
C23_2 C18_2 1_555 1_555
H16_2 C23_2 1_555 1_555
C25_2 C2_4 1_555 1_555
C33_2 C25_2 1_555 1_555
H23_2 C33_2 1_555 1_555
H24_2 C34_2 1_555 1_555
Cu4 Br2_2 1_555 1_555
C16_2 C20_2 1_555 1_555
C17_2 C18_2 1_555 1_555
C22_2 C23_2 1_555 1_555
C33_2 C34_2 1_555 1_555
N3_2 C30_2 1_555 1_555
C24_2 C27_2 1_555 1_555
H17_2 C26_2 1_555 1_555
C27_2 H18_2 1_555 1_555
C28_2 C26_2 1_555 1_555
H19_2 C28_2 1_555 1_555
C29_2 C24_2 1_555 1_555
C30_2 H20_2 1_555 1_555
C31_2 N3_2 1_555 1_555
H21_2 C31_2 1_555 1_555
C32_2 C24_2 1_555 1_555
H22_2 C32_2 1_555 1_555
Cu6 N3_2 1_555 1_555
C27_2 C31_2 1_555 1_555
C28_2 C29_2 1_555 1_555
C30_2 C32_2 1_555 1_555
N5_2 C41_3 1_555 1_555
C35_3 C38_3 1_555 1_555
C36_3 C2_5 1_555 1_555
C37_3 C36_3 1_555 1_555
C38_3 H26_3 1_555 1_555
C39_3 C37_3 1_555 1_555
H27_3 C39_3 1_555 1_555
C40_3 C35_3 1_555 1_555
C41_3 H28_3 1_555 1_555
C42_3 N5_2 1_555 1_555
H29_3 C42_3 1_555 1_555
C43_3 C35_3 1_555 1_555
H30_3 C43_3 1_555 1_555
C44_3 C36_3 1_555 1_555
H31_3 C44_3 1_555 1_555
C45_3 C40_3 1_555 1_555
H32_3 C45_3 1_555 1_555
C38_3 C42_3 1_555 1_555
C39_3 C40_3 1_555 1_555
C41_3 C43_3 1_555 1_555
C44_3 C45_3 1_555 1_555
N6 C19_3 1_555 1_555
C13_3 C16_3 1_555 1_555
C14_3 C2_6 1_555 1_555
C15_3 C14_3 1_555 1_555
C16_3 H10_3 1_555 1_555
C17_3 C15_3 1_555 1_555
H11_3 C17_3 1_555 1_555
C18_3 C13_3 1_555 1_555
C19_3 H12_3 1_555 1_555
C20_3 N6 1_555 1_555
H13_3 C20_3 1_555 1_555
C21_3 C13_3 1_555 1_555
H14_3 C21_3 1_555 1_555
C22_3 C14_3 1_555 1_555
H15_3 C22_3 1_555 1_555
C23_3 C18_3 1_555 1_555
H16_3 C23_3 1_555 1_555
Cu5 Br4 1_555 1_555
C16_3 C20_3 1_555 1_555
C17_3 C18_3 1_555 1_555
C19_3 C21_3 1_555 1_555
C22_3 C23_3 1_555 1_555
N5 C8_3 1_555 1_555
C1_3 C5_3 1_555 1_555
C2_7 C3_3 1_555 1_555
C3_3 C4_3 1_555 1_555
C5_3 H2_3 1_555 1_555
C6_3 C4_3 1_555 1_555
H3_3 C6_3 1_555 1_555
C7_3 C1_3 1_555 1_555
C8_3 H4_3 1_555 1_555
C9_3 N5 1_555 1_555
H5_3 C9_3 1_555 1_555
C10_3 C1_3 1_555 1_555
H6_3 C10_3 1_555 1_555
C11_3 C3_3 1_555 1_555
H7_3 C11_3 1_555 1_555
C12_3 C7_3 1_555 1_555
H8_3 C12_3 1_555 1_555
Cu6 Br3 1_555 1_555
C5_3 C9_3 1_555 1_555
C6_3 C7_3 1_555 1_555
C8_3 C10_3 1_555 1_555
C11_3 C12_3 1_555 1_555
N6_2 C30_3 1_555 1_555
C24_3 C27_3 1_555 1_555
C25_3 C2_8 1_555 1_555
C26_3 C25_3 1_555 1_555
C27_3 H18_3 1_555 1_555
C28_3 C26_3 1_555 1_555
H19_3 C28_3 1_555 1_555
C29_3 C24_3 1_555 1_555
C30_3 H20_3 1_555 1_555
C31_3 N6_2 1_555 1_555
H21_3 C31_3 1_555 1_555
C32_3 C24_3 1_555 1_555
H22_3 C32_3 1_555 1_555
C33_3 C25_3 1_555 1_555
H23_3 C33_3 1_555 1_555
C34_3 C29_3 1_555 1_555
H24_3 C34_3 1_555 1_555
C27_3 C31_3 1_555 1_555
C28_3 C29_3 1_555 1_555
C30_3 C32_3 1_555 1_555
C33_3 C34_3 1_555 1_555
N3_3 C30_4 1_555 1_555
C30_4 H20_4 1_555 1_555
C31_4 N3_3 1_555 1_555
C32_4 C24_4 1_555 1_555
H22_4 C32_4 1_555 1_555
N4_3 C41_4 1_555 1_555
C41_4 H28_4 1_555 1_555
C42_4 N4_3 1_555 1_555
C43_4 C35_4 1_555 1_555
H30_4 C43_4 1_555 1_555
Cu5 N4_3 1_555 1_555
Cu6 N3_3 1_555 1_555
C30_4 C32_4 1_555 1_555
C41_4 C43_4 1_555 1_555
C2_9 C3_4 1_555 1_555
C3_4 C4_4 1_555 1_555
C4_4 H1_3 1_555 1_555
C5_4 H2_4 1_555 1_555
C6_4 C4_4 1_555 1_555
H3_4 C6_4 1_555 1_555
C11_4 C3_4 1_555 1_555
H7_4 C11_4 1_555 1_555
C12_4 C7_4 1_555 1_555
H8_4 C12_4 1_555 1_555
C14_4 C2_9 1_555 1_555
C15_4 C14_4 1_555 1_555
H9_3 C15_4 1_555 1_555
C16_4 H10_4 1_555 1_555
C17_4 C15_4 1_555 1_555
H11_4 C17_4 1_555 1_555
C22_4 C14_4 1_555 1_555
H15_4 C22_4 1_555 1_555
C23_4 C18_4 1_555 1_555
H16_4 C23_4 1_555 1_555
C25_4 C2_9 1_555 1_555
C26_4 C25_4 1_555 1_555
H17_3 C26_4 1_555 1_555
C27_4 H18_4 1_555 1_555
C28_4 C26_4 1_555 1_555
H19_4 C28_4 1_555 1_555
C33_4 C25_4 1_555 1_555
H23_4 C33_4 1_555 1_555
C34_4 C29_4 1_555 1_555
H24_4 C34_4 1_555 1_555
C36_4 C2_9 1_555 1_555
C37_4 C36_4 1_555 1_555
H25_3 C37_4 1_555 1_555
C38_4 H26_4 1_555 1_555
C39_4 C37_4 1_555 1_555
H27_4 C39_4 1_555 1_555
C44_4 C36_4 1_555 1_555
H31_4 C44_4 1_555 1_555
C45_4 C40_4 1_555 1_555
H32_4 C45_4 1_555 1_555
C6_4 C7_4 1_555 1_555
C11_4 C12_4 1_555 1_555
C17_4 C18_4 1_555 1_555
C22_4 C23_4 1_555 1_555
C28_4 C29_4 1_555 1_555
C33_4 C34_4 1_555 1_555
C39_4 C40_4 1_555 1_555
C44_4 C45_4 1_555 1_555
Cu3 N1_3 1_555 1_555
N1_3 C8_4 1_555 1_555
C8_4 H4_4 1_555 1_555
C9_4 N1_3 1_555 1_555
C10_4 C1_4 1_555 1_555
H6_4 C10_4 1_555 1_555
N2_3 C19_4 1_555 1_555
C19_4 H12_4 1_555 1_555
C20_4 N2_3 1_555 1_555
C21_4 C13_4 1_555 1_555
H14_4 C21_4 1_555 1_555
Cu4 N2_3 1_555 1_555
Br3_2 Cu3 1_555 1_555
Br4_2 Cu4 1_555 1_555
C8_4 C10_4 1_555 1_555
C19_4 C21_4 1_555 1_555

#END
