
###############################################################################
#
# This file contains modified crystal structure data generated from the
# MOF subset of the Cambridge Structural Database (CSD) v543 
# hosted by the Cambridge Crystallographic Data Centre (CCDC).
#
# This work is licensed under the Creative Commons
# Attribution-NonCommercial-ShareAlike 4.0 International License.
# To view a copy of this license, visit
# http://creativecommons.org/licenses/by-nc-sa/4.0/
# or send a letter to
# Creative Commons, PO Box 1866, Mountain View, CA 94042, USA.
#
# CIF created using the CSD Python API on 29 September 2022
# The structure has been converted into the P1 space group
# The structure has a 3D framework
# The original CSD entry AVONUX is in the tetragonal crystal system
# The framework has been calculated to contain at least 10.0% void space
# The void calculation uses a probe of radius 1.32A, grid spacing 0.4
#
###############################################################################

data_AVONUX
_chemical_formula_moiety         '(C186 H128 Cl4 Cu6 N16)n'
_symmetry_cell_setting           triclinic
_symmetry_space_group_name_H-M   'P 1'
_symmetry_Int_Tables_number      1
_space_group_name_Hall           'P 1'
loop_
_symmetry_equiv_pos_site_id
_symmetry_equiv_pos_as_xyz
1 x,y,z
_cell_length_a                   27.1238(10)
_cell_length_b                   27.1238(10)
_cell_length_c                   6.9936(4)
_cell_angle_alpha                90
_cell_angle_beta                 90
_cell_angle_gamma                90
_cell_volume                     5145.2
loop_
_atom_site_label
_atom_site_type_symbol
_atom_site_fract_x
_atom_site_fract_y
_atom_site_fract_z
Cu3 Cu 0.29691(3) 0.750000 0.125000
Cu1 Cu 0.20309(3) 0.750000 0.625000
Cl1 Cl 0.250000 0.70762(6) 0.875000
N1 N 0.16605(16) 0.69838(17) 0.4777(7)
C1 C 0.11197(16) 0.63237(16) 0.2497(6)
C2 C 0.08379(15) 0.59811(14) 0.1266(6)
C3 C 0.03308(15) 0.59131(14) 0.1473(6)
H1 H 0.015868 0.608530 0.244950
C4 C 0.15160(19) 0.65914(19) 0.1771(7)
H2 H 0.161068 0.655257 0.047217
C8 C 0.00774(15) 0.56001(14) 0.0281(5)
C9 C 0.1771(2) 0.6913(2) 0.2936(9)
H6 H 0.203887 0.709228 0.240381
C10 C 0.1003(2) 0.6401(2) 0.4440(7)
H7 H 0.073684 0.622819 0.501741
C11 C 0.1279(2) 0.6728(2) 0.5481(8)
H8 H 0.119440 0.677581 0.678574
H13 H 0.026778 0.443967 0.045097
Cl4 Cl 0.250000 0.79238(6) 0.375000
N6 N 0.16605(16) 0.80162(17) 0.7723(7)
Cu4 Cu 0.70309(3) 0.250000 0.125000
H5 H 0.973222 0.556033 0.045097
N2 N 0.83395(16) 0.30162(17) 0.4777(7)
C13 C 0.88803(16) 0.36763(16) 0.2497(6)
C14 C 0.91621(15) 0.40189(14) 0.1266(6)
C15 C 0.96692(15) 0.40869(14) 0.1473(6)
H9 H 0.984132 0.391470 0.244950
C16 C 0.84840(19) 0.34086(19) 0.1771(7)
H10 H 0.838932 0.344743 0.047217
C20 C 0.99226(15) 0.43999(14) 0.0281(5)
C21 C 0.8229(2) 0.3087(2) 0.2936(9)
H14 H 0.796113 0.290772 0.240381
C22 C 0.8997(2) 0.3599(2) 0.4440(7)
H15 H 0.926316 0.377181 0.501741
C23 C 0.8721(2) 0.3272(2) 0.5481(8)
H16 H 0.880560 0.322419 0.678574
Cu2 Cu 0.79691(3) 0.250000 0.625000
Cl2 Cl 0.750000 0.29238(6) 0.875000
Cl3 Cl 0.750000 0.20762(6) 0.375000
N5 N 0.83395(16) 0.19838(17) 0.7723(7)
H31 H 0.573684 0.122819 0.001741
C45 C 0.6279(2) 0.1728(2) 0.0481(8)
H32 H 0.619440 0.177581 0.178574
C12 C 0.500000 0.000000 0.250000
C17 C 0.42911(17) 0.10793(16) 0.0166(6)
H11 H 0.425783 0.142573 0.031819
C18 C 0.46643(13) 0.03178(14) 0.1192(6)
C19 C 0.46075(15) 0.08212(16) 0.1363(7)
H12 H 0.478781 0.099407 0.231558
N4 N 0.66605(16) 0.19838(17) 0.9777(7)
C35 C 0.61197(16) 0.13237(16) 0.7497(6)
C36 C 0.58379(15) 0.09811(14) 0.6266(6)
C37 C 0.53308(15) 0.09131(14) 0.6473(6)
H25 H 0.515868 0.108530 0.744950
C38 C 0.65160(19) 0.15914(19) 0.6771(7)
H26 H 0.661068 0.155257 0.547217
C39 C 0.60793(16) 0.07089(17) 0.4834(6)
H27 H 0.642573 0.074217 0.468181
C40 C 0.53178(14) 0.03357(13) 0.3808(6)
C41 C 0.58212(16) 0.03925(15) 0.3637(7)
H28 H 0.599407 0.021219 0.268442
C42 C 0.50774(15) 0.06001(14) 0.5281(5)
H29 H 0.473222 0.056033 0.545097
C43 C 0.6771(2) 0.1913(2) 0.7936(9)
H30 H 0.703887 0.209228 0.740381
C44 C 0.6003(2) 0.1401(2) 0.9440(7)
H23 H 0.426316 0.877181 0.001741
C34 C 0.3721(2) 0.8272(2) 0.0481(8)
H24 H 0.380560 0.822419 0.178574
C5 C 0.57089(17) 0.89207(16) 0.0166(6)
H3 H 0.574217 0.857427 0.031819
C6 C 0.53357(13) 0.96822(14) 0.1192(6)
C7 C 0.53925(15) 0.91788(16) 0.1363(7)
H4 H 0.521219 0.900593 0.231558
C12_2 C 0.500000 1.000000 0.250000
N3 N 0.33395(16) 0.80162(17) 0.9777(7)
C24 C 0.38803(16) 0.86763(16) 0.7497(6)
C25 C 0.41621(15) 0.90189(14) 0.6266(6)
C26 C 0.46692(15) 0.90869(14) 0.6473(6)
H17 H 0.484132 0.891470 0.744950
C27 C 0.34840(19) 0.84086(19) 0.6771(7)
H18 H 0.338932 0.844743 0.547217
C28 C 0.39207(16) 0.92911(17) 0.4834(6)
H19 H 0.357427 0.925783 0.468181
C29 C 0.46822(14) 0.96643(13) 0.3808(6)
C30 C 0.41788(16) 0.96075(15) 0.3637(7)
H20 H 0.400593 0.978781 0.268442
C31 C 0.49226(15) 0.93999(14) 0.5281(5)
H21 H 0.526778 0.943967 0.545097
C32 C 0.3229(2) 0.8087(2) 0.7936(9)
H22 H 0.296113 0.790772 0.740381
C33 C 0.3997(2) 0.8599(2) 0.9440(7)
N1_2 N 0.33395(16) 0.69838(17) 0.2723(7)
C1_2 C 0.38803(16) 0.63237(16) 0.5003(6)
C2_2 C 0.41621(15) 0.59811(14) 0.6234(6)
C3_2 C 0.46692(15) 0.59131(14) 0.6027(6)
H1_2 H 0.484132 0.608530 0.505050
C4_2 C 0.34840(19) 0.65914(19) 0.5729(7)
H2_2 H 0.338932 0.655257 0.702783
C5_2 C 0.39207(16) 0.57089(17) 0.7666(6)
H3_2 H 0.357427 0.574217 0.781819
C6_2 C 0.46822(14) 0.53357(13) 0.8692(6)
C7_2 C 0.41788(16) 0.53925(15) 0.8863(7)
H4_2 H 0.400593 0.521219 0.981558
C8_2 C 0.49226(15) 0.56001(14) 0.7219(5)
H5_2 H 0.526778 0.556033 0.704903
C9_2 C 0.3229(2) 0.6913(2) 0.4564(9)
H6_2 H 0.296113 0.709228 0.509619
C10_2 C 0.3997(2) 0.6401(2) 0.3060(7)
H7_2 H 0.426316 0.622819 0.248259
C11_2 C 0.3721(2) 0.6728(2) 0.2019(8)
H8_2 H 0.380560 0.677581 0.071426
C12_3 C 0.500000 0.500000 1.000000
N2_2 N 0.66605(16) 0.30162(17) 0.2723(7)
C13_2 C 0.61197(16) 0.36763(16) 0.5003(6)
C14_2 C 0.58379(15) 0.40189(14) 0.6234(6)
C15_2 C 0.53308(15) 0.40869(14) 0.6027(6)
H9_2 H 0.515868 0.391470 0.505050
C16_2 C 0.65160(19) 0.34086(19) 0.5729(7)
H10_2 H 0.661068 0.344743 0.702783
C17_2 C 0.60793(16) 0.42911(17) 0.7666(6)
H11_2 H 0.642573 0.425783 0.781819
C18_2 C 0.53178(14) 0.46643(13) 0.8692(6)
C19_2 C 0.58212(16) 0.46075(15) 0.8863(7)
H12_2 H 0.599407 0.478781 0.981558
C20_2 C 0.50774(15) 0.43999(14) 0.7219(5)
H13_2 H 0.473222 0.443967 0.704903
C21_2 C 0.6771(2) 0.3087(2) 0.4564(9)
H14_2 H 0.703887 0.290772 0.509619
C22_2 C 0.6003(2) 0.3599(2) 0.3060(7)
H15_2 H 0.573684 0.377181 0.248259
C23_2 C 0.6279(2) 0.3272(2) 0.2019(8)
H16_2 H 0.619440 0.322419 0.071426
C32_2 C 0.1771(2) 0.8087(2) 0.9564(9)
C33_2 C 0.1003(2) 0.8599(2) 0.8060(7)
H23_2 H 0.073684 0.877181 0.748259
C34_2 C 0.1279(2) 0.8272(2) 0.7019(8)
H24_2 H 0.119440 0.822419 0.571426
C43_2 C 0.8229(2) 0.1913(2) 0.9564(9)
C44_2 C 0.8997(2) 0.1401(2) 0.8060(7)
H31_2 H 0.926316 0.122819 0.748259
C45_2 C 0.8721(2) 0.1728(2) 0.7019(8)
H32_2 H 0.880560 0.177581 0.571426
C5_3 C 0.10793(16) 0.57089(17) 0.9834(6)
H3_3 H 0.142573 0.574217 0.968181
C6_3 C 0.03178(14) 0.53357(13) 0.8808(6)
C7_3 C 0.08212(16) 0.53925(15) 0.8637(7)
H4_3 H 0.099407 0.521219 0.768442
C12_4 C -0.000000 0.500000 0.750000
N3_2 N 0.19838(17) 0.33395(16) 0.0223(7)
C24_2 C 0.13237(16) 0.38803(16) 0.2503(6)
C25_2 C 0.09811(14) 0.41621(15) 0.3734(6)
C26_2 C 0.09131(14) 0.46692(15) 0.3527(6)
H17_2 H 0.108530 0.484132 0.255050
C27_2 C 0.15914(19) 0.34840(19) 0.3229(7)
H18_2 H 0.155257 0.338932 0.452783
C28_2 C 0.07089(17) 0.39207(16) 0.5166(6)
H19_2 H 0.074217 0.357427 0.531819
C29_2 C 0.03357(13) 0.46822(14) 0.6192(6)
C30_2 C 0.03925(15) 0.41788(16) 0.6363(7)
H20_2 H 0.021219 0.400593 0.731558
C31_2 C 0.06001(14) 0.49226(15) 0.4719(5)
H21_2 H 0.056033 0.526778 0.454903
C32_3 C 0.1913(2) 0.3229(2) 0.2064(9)
H22_2 H 0.209228 0.296113 0.259619
C33_3 C 0.1401(2) 0.3997(2) 0.0560(7)
H23_3 H 0.122819 0.426316 0.998259
C34_3 C 0.1728(2) 0.3721(2) 0.9519(8)
H24_3 H 0.177581 0.380560 0.821426
Cu5 Cu 0.250000 0.29691(3) 0.875000
C12_5 C 1.000000 0.500000 0.750000
C17_3 C 0.89207(16) 0.42911(17) 0.9834(6)
H11_3 H 0.857427 0.425783 0.968181
C18_3 C 0.96822(14) 0.46643(13) 0.8808(6)
C19_3 C 0.91788(16) 0.46075(15) 0.8637(7)
H12_3 H 0.900593 0.478781 0.768442
N4_2 N 0.80162(17) 0.66605(16) 0.0223(7)
C35_2 C 0.86763(16) 0.61197(16) 0.2503(6)
C36_2 C 0.90189(14) 0.58379(15) 0.3734(6)
C37_2 C 0.90869(14) 0.53308(15) 0.3527(6)
H25_2 H 0.891470 0.515868 0.255050
C38_2 C 0.84086(19) 0.65160(19) 0.3229(7)
H26_2 H 0.844743 0.661068 0.452783
C39_2 C 0.92911(17) 0.60793(16) 0.5166(6)
H27_2 H 0.925783 0.642573 0.531819
C40_2 C 0.96643(13) 0.53178(14) 0.6192(6)
C41_2 C 0.96075(15) 0.58212(16) 0.6363(7)
H28_2 H 0.978781 0.599407 0.731558
C42_2 C 0.93999(14) 0.50774(15) 0.4719(5)
H29_2 H 0.943967 0.473222 0.454903
C43_3 C 0.8087(2) 0.6771(2) 0.2064(9)
H30_2 H 0.790772 0.703887 0.259619
C44_3 C 0.8599(2) 0.6003(2) 0.0560(7)
H31_3 H 0.877181 0.573684 0.998259
C45_3 C 0.8272(2) 0.6279(2) 0.9519(8)
H32_3 H 0.822419 0.619440 0.821426
Cu6 Cu 0.750000 0.70309(3) 0.875000
H5_3 H 0.556033 0.026778 0.954903
N2_3 N 0.30162(17) 0.16605(16) 0.5223(7)
C13_3 C 0.36763(16) 0.11197(16) 0.7503(6)
C14_3 C 0.40189(14) 0.08379(15) 0.8734(6)
C15_3 C 0.40869(14) 0.03308(15) 0.8527(6)
H9_3 H 0.391470 0.015868 0.755050
C16_3 C 0.34086(19) 0.15160(19) 0.8229(7)
H10_3 H 0.344743 0.161068 0.952783
C20_3 C 0.43999(14) 0.00774(15) 0.9719(5)
C21_3 C 0.3087(2) 0.1771(2) 0.7064(9)
H14_3 H 0.290772 0.203887 0.759619
C22_3 C 0.3599(2) 0.1003(2) 0.5560(7)
H15_3 H 0.377181 0.073684 0.498259
C23_3 C 0.3272(2) 0.1279(2) 0.4519(8)
H16_3 H 0.322419 0.119440 0.321426
Cu2_2 Cu 0.250000 0.20309(3) 0.375000
Cl2_2 Cl 0.29238(6) 0.250000 0.125000
Cl3_2 Cl 0.20762(6) 0.250000 0.625000
N5_2 N 0.19838(17) 0.16605(16) 0.2277(7)
Cu1_2 Cu 0.750000 0.79691(3) 0.375000
Cl1_2 Cl 0.70762(6) 0.750000 0.125000
N1_3 N 0.69838(17) 0.83395(16) 0.5223(7)
C1_3 C 0.63237(16) 0.88803(16) 0.7503(6)
C2_3 C 0.59811(14) 0.91621(15) 0.8734(6)
C3_3 C 0.59131(14) 0.96692(15) 0.8527(6)
H1_3 H 0.608530 0.984132 0.755050
C4_3 C 0.65914(19) 0.84840(19) 0.8229(7)
H2_3 H 0.655257 0.838932 0.952783
C8_3 C 0.56001(14) 0.99226(15) 0.9719(5)
C9_3 C 0.6913(2) 0.8229(2) 0.7064(9)
H6_3 H 0.709228 0.796113 0.759619
C10_3 C 0.6401(2) 0.8997(2) 0.5560(7)
H7_3 H 0.622819 0.926316 0.498259
C11_3 C 0.6728(2) 0.8721(2) 0.4519(8)
H8_3 H 0.677581 0.880560 0.321426
H13_3 H 0.443967 0.973222 0.954903
Cl4_2 Cl 0.79238(6) 0.750000 0.625000
N6_2 N 0.80162(17) 0.83395(16) 0.2277(7)
C12_6 C 0.500000 0.500000 0.000000
N3_3 N 0.30162(17) 0.33395(16) 0.7277(7)
C24_3 C 0.36763(16) 0.38803(16) 0.4997(6)
C25_3 C 0.40189(14) 0.41621(15) 0.3766(6)
C26_3 C 0.40869(14) 0.46692(15) 0.3973(6)
H17_3 H 0.391470 0.484132 0.494950
C27_3 C 0.34086(19) 0.34840(19) 0.4271(7)
H18_3 H 0.344743 0.338932 0.297217
C28_3 C 0.42911(17) 0.39207(16) 0.2334(6)
H19_3 H 0.425783 0.357427 0.218181
C29_3 C 0.46643(13) 0.46822(14) 0.1308(6)
C30_3 C 0.46075(15) 0.41788(16) 0.1137(7)
H20_3 H 0.478781 0.400593 0.018442
C31_3 C 0.43999(14) 0.49226(15) 0.2781(5)
H21_3 H 0.443967 0.526778 0.295097
C32_4 C 0.3087(2) 0.3229(2) 0.5436(9)
H22_3 H 0.290772 0.296113 0.490381
C33_4 C 0.3599(2) 0.3997(2) 0.6940(7)
H23_4 H 0.377181 0.426316 0.751741
C34_4 C 0.3272(2) 0.3721(2) 0.7981(8)
H24_4 H 0.322419 0.380560 0.928574
N4_3 N 0.69838(17) 0.66605(16) 0.7277(7)
C35_3 C 0.63237(16) 0.61197(16) 0.4997(6)
C36_3 C 0.59811(14) 0.58379(15) 0.3766(6)
C37_3 C 0.59131(14) 0.53308(15) 0.3973(6)
H25_3 H 0.608530 0.515868 0.494950
C38_3 C 0.65914(19) 0.65160(19) 0.4271(7)
H26_3 H 0.655257 0.661068 0.297217
C39_3 C 0.57089(17) 0.60793(16) 0.2334(6)
H27_3 H 0.574217 0.642573 0.218181
C40_3 C 0.53357(13) 0.53178(14) 0.1308(6)
C41_3 C 0.53925(15) 0.58212(16) 0.1137(7)
H28_3 H 0.521219 0.599407 0.018442
C42_3 C 0.56001(14) 0.50774(15) 0.2781(5)
H29_3 H 0.556033 0.473222 0.295097
C43_4 C 0.6913(2) 0.6771(2) 0.5436(9)
H30_3 H 0.709228 0.703887 0.490381
C44_4 C 0.6401(2) 0.6003(2) 0.6940(7)
H31_4 H 0.622819 0.573684 0.751741
C45_4 C 0.6728(2) 0.6279(2) 0.7981(8)
H32_4 H 0.677581 0.619440 0.928574
C21_4 C 0.1913(2) 0.1771(2) 0.0436(9)
C22_4 C 0.1401(2) 0.1003(2) 0.1940(7)
H15_4 H 0.122819 0.073684 0.251741
C23_4 C 0.1728(2) 0.1279(2) 0.2981(8)
H16_4 H 0.177581 0.119440 0.428574
C9_4 C 0.8087(2) 0.8229(2) 0.0436(9)
C10_4 C 0.8599(2) 0.8997(2) 0.1940(7)
H7_4 H 0.877181 0.926316 0.251741
C11_4 C 0.8272(2) 0.8721(2) 0.2981(8)
H8_4 H 0.822419 0.880560 0.428574
C12_7 C 0.000000 0.000000 0.500000
C13_4 C 0.13237(16) 0.11197(16) 0.9997(6)
C14_4 C 0.09811(14) 0.08379(15) 0.8766(6)
C15_4 C 0.09131(14) 0.03308(15) 0.8973(6)
H9_4 H 0.108530 0.015868 0.994950
C16_4 C 0.15914(19) 0.15160(19) 0.9271(7)
H10_4 H 0.155257 0.161068 0.797217
C17_4 C 0.07089(17) 0.10793(16) 0.7334(6)
H11_4 H 0.074217 0.142573 0.718181
C18_4 C 0.03357(13) 0.03178(14) 0.6308(6)
C19_4 C 0.03925(15) 0.08212(16) 0.6137(7)
H12_4 H 0.021219 0.099407 0.518442
C20_4 C 0.06001(14) 0.00774(15) 0.7781(5)
H14_4 H 0.209228 0.203887 0.990381
H29_4 H 0.026778 0.056033 0.204903
C12_8 C 0.000000 1.000000 0.500000
H13_4 H 0.056033 0.973222 0.795097
C24_4 C 0.11197(16) 0.86763(16) 0.0003(6)
C25_4 C 0.08379(15) 0.90189(14) 0.1234(6)
C26_4 C 0.03308(15) 0.90869(14) 0.1027(6)
H17_4 H 0.015868 0.891470 0.005050
C27_4 C 0.15160(19) 0.84086(19) 0.0729(7)
H18_4 H 0.161068 0.844743 0.202783
C28_4 C 0.10793(16) 0.92911(17) 0.2666(6)
H19_4 H 0.142573 0.925783 0.281819
C29_4 C 0.03178(14) 0.96643(13) 0.3692(6)
C30_4 C 0.08212(16) 0.96075(15) 0.3863(7)
H20_4 H 0.099407 0.978781 0.481558
C31_4 C 0.00774(15) 0.93999(14) 0.2219(5)
H22_4 H 0.203887 0.790772 0.009619
H5_4 H 0.943967 0.026778 0.795097
C12_9 C 1.000000 0.000000 0.500000
C35_4 C 0.88803(16) 0.13237(16) 0.0003(6)
C36_4 C 0.91621(15) 0.09811(14) 0.1234(6)
C37_4 C 0.96692(15) 0.09131(14) 0.1027(6)
H25_4 H 0.984132 0.108530 0.005050
C38_4 C 0.84840(19) 0.15914(19) 0.0729(7)
H26_4 H 0.838932 0.155257 0.202783
C39_4 C 0.89207(16) 0.07089(17) 0.2666(6)
H27_4 H 0.857427 0.074217 0.281819
C40_4 C 0.96822(14) 0.03357(13) 0.3692(6)
C41_4 C 0.91788(16) 0.03925(15) 0.3863(7)
H28_4 H 0.900593 0.021219 0.481558
C42_4 C 0.99226(15) 0.06001(14) 0.2219(5)
H30_4 H 0.796113 0.209228 0.009619
C1_4 C 0.86763(16) 0.88803(16) 0.9997(6)
C2_4 C 0.90189(14) 0.91621(15) 0.8766(6)
C3_4 C 0.90869(14) 0.96692(15) 0.8973(6)
H1_4 H 0.891470 0.984132 0.994950
C4_4 C 0.84086(19) 0.84840(19) 0.9271(7)
H2_4 H 0.844743 0.838932 0.797217
C5_4 C 0.92911(17) 0.89207(16) 0.7334(6)
H3_4 H 0.925783 0.857427 0.718181
C6_4 C 0.96643(13) 0.96822(14) 0.6308(6)
C7_4 C 0.96075(15) 0.91788(16) 0.6137(7)
H4_4 H 0.978781 0.900593 0.518442
C8_4 C 0.93999(14) 0.99226(15) 0.7781(5)
H6_4 H 0.790772 0.796113 0.990381
C12_10 C 1.000000 1.000000 0.500000
H21_4 H 0.973222 0.943967 0.204903
loop_
_geom_bond_atom_site_label_1
_geom_bond_atom_site_label_2
_geom_bond_site_symmetry_1
_geom_bond_site_symmetry_2
Cu1 Cl1 1_555 1_555
N1 Cu1 1_555 1_555
C1 C2 1_555 1_555
C2 C3 1_555 1_555
C3 H1 1_555 1_555
C4 C1 1_555 1_555
H2 C4 1_555 1_555
C8 C3 1_555 1_555
C9 N1 1_555 1_555
H6 C9 1_555 1_555
C10 C1 1_555 1_555
H7 C10 1_555 1_555
C11 N1 1_555 1_555
H8 C11 1_555 1_555
Cl4 Cu1 1_555 1_555
N6 Cu1 1_555 1_555
C4 C9 1_555 1_555
C10 C11 1_555 1_555
N2 C21 1_555 1_555
C13 C14 1_555 1_555
C14 C15 1_555 1_555
C15 H9 1_555 1_555
C16 C13 1_555 1_555
H10 C16 1_555 1_555
C20 C15 1_555 1_555
C21 C16 1_555 1_555
H14 C21 1_555 1_555
C22 C13 1_555 1_555
H15 C22 1_555 1_555
C23 N2 1_555 1_555
H16 C23 1_555 1_555
Cu2 N2 1_555 1_555
Cl2 Cu2 1_555 1_555
Cl3 Cu2 1_555 1_555
N5 Cu2 1_555 1_555
C22 C23 1_555 1_555
H32 C45 1_555 1_555
H11 C17 1_555 1_555
C18 C12 1_555 1_555
C19 C17 1_555 1_555
H12 C19 1_555 1_555
N4 C43 1_555 1_555
C35 C36 1_555 1_555
C36 C37 1_555 1_555
C37 H25 1_555 1_555
C38 C35 1_555 1_555
H26 C38 1_555 1_555
C39 C36 1_555 1_555
H27 C39 1_555 1_555
C40 C12 1_555 1_555
C41 C39 1_555 1_555
H28 C41 1_555 1_555
C42 C37 1_555 1_555
H29 C42 1_555 1_555
C43 C38 1_555 1_555
H30 C43 1_555 1_555
C44 C35 1_555 1_555
C18 C19 1_555 1_555
C40 C41 1_555 1_555
C40 C42 1_555 1_555
H24 C34 1_555 1_555
H3 C5 1_555 1_555
C6 C7 1_555 1_555
C7 C5 1_555 1_555
H4 C7 1_555 1_555
C12_2 C6 1_555 1_555
N3 C32 1_555 1_555
C24 C25 1_555 1_555
C25 C26 1_555 1_555
C26 H17 1_555 1_555
C27 C24 1_555 1_555
H18 C27 1_555 1_555
C28 C25 1_555 1_555
H19 C28 1_555 1_555
C29 C12_2 1_555 1_555
C30 C28 1_555 1_555
H20 C30 1_555 1_555
C31 C26 1_555 1_555
H21 C31 1_555 1_555
C32 C27 1_555 1_555
H22 C32 1_555 1_555
C33 C24 1_555 1_555
C29 C30 1_555 1_555
C29 C31 1_555 1_555
N1_2 Cu3 1_555 1_555
C1_2 C2_2 1_555 1_555
C2_2 C3_2 1_555 1_555
C3_2 H1_2 1_555 1_555
C4_2 C1_2 1_555 1_555
H2_2 C4_2 1_555 1_555
C5_2 C2_2 1_555 1_555
H3_2 C5_2 1_555 1_555
C6_2 C7_2 1_555 1_555
C7_2 C5_2 1_555 1_555
H4_2 C7_2 1_555 1_555
C8_2 C3_2 1_555 1_555
H5_2 C8_2 1_555 1_555
C9_2 N1_2 1_555 1_555
H6_2 C9_2 1_555 1_555
C10_2 C1_2 1_555 1_555
H7_2 C10_2 1_555 1_555
C11_2 N1_2 1_555 1_555
H8_2 C11_2 1_555 1_555
C12_3 C6_2 1_555 1_555
N2_2 C21_2 1_555 1_555
C13_2 C14_2 1_555 1_555
C14_2 C15_2 1_555 1_555
C15_2 H9_2 1_555 1_555
C16_2 C13_2 1_555 1_555
H10_2 C16_2 1_555 1_555
C17_2 C14_2 1_555 1_555
H11_2 C17_2 1_555 1_555
C18_2 C12_3 1_555 1_555
C19_2 C17_2 1_555 1_555
H12_2 C19_2 1_555 1_555
C20_2 C15_2 1_555 1_555
H13_2 C20_2 1_555 1_555
C21_2 C16_2 1_555 1_555
H14_2 C21_2 1_555 1_555
C22_2 C13_2 1_555 1_555
H15_2 C22_2 1_555 1_555
C23_2 N2_2 1_555 1_555
H16_2 C23_2 1_555 1_555
Cu4 N2_2 1_555 1_555
Cl3 Cu4 1_555 1_555
Cl4 Cu3 1_555 1_555
C4_2 C9_2 1_555 1_555
C6_2 C8_2 1_555 1_555
C10_2 C11_2 1_555 1_555
C18_2 C19_2 1_555 1_555
C18_2 C20_2 1_555 1_555
C22_2 C23_2 1_555 1_555
N6 C32_2 1_555 1_555
H23_2 C33_2 1_555 1_555
C34_2 N6 1_555 1_555
H24_2 C34_2 1_555 1_555
C33_2 C34_2 1_555 1_555
N5 C43_2 1_555 1_555
H31_2 C44_2 1_555 1_555
C45_2 N5 1_555 1_555
H32_2 C45_2 1_555 1_555
C44_2 C45_2 1_555 1_555
H3_3 C5_3 1_555 1_555
C6_3 C7_3 1_555 1_555
C7_3 C5_3 1_555 1_555
H4_3 C7_3 1_555 1_555
C12_4 C6_3 1_555 1_555
N3_2 C32_3 1_555 1_555
C24_2 C25_2 1_555 1_555
C25_2 C26_2 1_555 1_555
C26_2 H17_2 1_555 1_555
C27_2 C24_2 1_555 1_555
H18_2 C27_2 1_555 1_555
C28_2 C25_2 1_555 1_555
H19_2 C28_2 1_555 1_555
C29_2 C12_4 1_555 1_555
C30_2 C28_2 1_555 1_555
H20_2 C30_2 1_555 1_555
C31_2 C26_2 1_555 1_555
H21_2 C31_2 1_555 1_555
C32_3 C27_2 1_555 1_555
H22_2 C32_3 1_555 1_555
C33_3 C24_2 1_555 1_555
C29_2 C30_2 1_555 1_555
C29_2 C31_2 1_555 1_555
H24_3 C34_3 1_555 1_555
H11_3 C17_3 1_555 1_555
C18_3 C12_5 1_555 1_555
C19_3 C17_3 1_555 1_555
H12_3 C19_3 1_555 1_555
N4_2 C43_3 1_555 1_555
C35_2 C36_2 1_555 1_555
C36_2 C37_2 1_555 1_555
C37_2 H25_2 1_555 1_555
C38_2 C35_2 1_555 1_555
H26_2 C38_2 1_555 1_555
C39_2 C36_2 1_555 1_555
H27_2 C39_2 1_555 1_555
C40_2 C12_5 1_555 1_555
C41_2 C39_2 1_555 1_555
H28_2 C41_2 1_555 1_555
C42_2 C37_2 1_555 1_555
H29_2 C42_2 1_555 1_555
C43_3 C38_2 1_555 1_555
H30_2 C43_3 1_555 1_555
C44_3 C35_2 1_555 1_555
C18_3 C19_3 1_555 1_555
C40_2 C41_2 1_555 1_555
C40_2 C42_2 1_555 1_555
H32_3 C45_3 1_555 1_555
N2_3 C21_3 1_555 1_555
C13_3 C14_3 1_555 1_555
C14_3 C15_3 1_555 1_555
C15_3 H9_3 1_555 1_555
C16_3 C13_3 1_555 1_555
H10_3 C16_3 1_555 1_555
C20_3 C15_3 1_555 1_555
C21_3 C16_3 1_555 1_555
H14_3 C21_3 1_555 1_555
C22_3 C13_3 1_555 1_555
H15_3 C22_3 1_555 1_555
C23_3 N2_3 1_555 1_555
H16_3 C23_3 1_555 1_555
Cu2_2 N2_3 1_555 1_555
Cl2_2 Cu2_2 1_555 1_555
Cl3_2 Cu2_2 1_555 1_555
N5_2 Cu2_2 1_555 1_555
C22_3 C23_3 1_555 1_555
Cu1_2 Cl1_2 1_555 1_555
N1_3 Cu1_2 1_555 1_555
C1_3 C2_3 1_555 1_555
C2_3 C3_3 1_555 1_555
C3_3 H1_3 1_555 1_555
C4_3 C1_3 1_555 1_555
H2_3 C4_3 1_555 1_555
C8_3 C3_3 1_555 1_555
C9_3 N1_3 1_555 1_555
H6_3 C9_3 1_555 1_555
C10_3 C1_3 1_555 1_555
H7_3 C10_3 1_555 1_555
C11_3 N1_3 1_555 1_555
H8_3 C11_3 1_555 1_555
Cl4_2 Cu1_2 1_555 1_555
N6_2 Cu1_2 1_555 1_555
C4_3 C9_3 1_555 1_555
C10_3 C11_3 1_555 1_555
N3_3 C32_4 1_555 1_555
C24_3 C25_3 1_555 1_555
C25_3 C26_3 1_555 1_555
C26_3 H17_3 1_555 1_555
C27_3 C24_3 1_555 1_555
H18_3 C27_3 1_555 1_555
C28_3 C25_3 1_555 1_555
H19_3 C28_3 1_555 1_555
C29_3 C12_6 1_555 1_555
C30_3 C28_3 1_555 1_555
H20_3 C30_3 1_555 1_555
C31_3 C26_3 1_555 1_555
H21_3 C31_3 1_555 1_555
C32_4 C27_3 1_555 1_555
H22_3 C32_4 1_555 1_555
C33_4 C24_3 1_555 1_555
H23_4 C33_4 1_555 1_555
C34_4 N3_3 1_555 1_555
H24_4 C34_4 1_555 1_555
N4_3 C43_4 1_555 1_555
C35_3 C36_3 1_555 1_555
C36_3 C37_3 1_555 1_555
C37_3 H25_3 1_555 1_555
C38_3 C35_3 1_555 1_555
H26_3 C38_3 1_555 1_555
C39_3 C36_3 1_555 1_555
H27_3 C39_3 1_555 1_555
C40_3 C12_6 1_555 1_555
C41_3 C39_3 1_555 1_555
H28_3 C41_3 1_555 1_555
C42_3 C37_3 1_555 1_555
H29_3 C42_3 1_555 1_555
C43_4 C38_3 1_555 1_555
H30_3 C43_4 1_555 1_555
C44_4 C35_3 1_555 1_555
H31_4 C44_4 1_555 1_555
C45_4 N4_3 1_555 1_555
H32_4 C45_4 1_555 1_555
Cu5 N3_3 1_555 1_555
Cu6 N4_3 1_555 1_555
C29_3 C30_3 1_555 1_555
C29_3 C31_3 1_555 1_555
C33_4 C34_4 1_555 1_555
C40_3 C41_3 1_555 1_555
C40_3 C42_3 1_555 1_555
C44_4 C45_4 1_555 1_555
N5_2 C21_4 1_555 1_555
H15_4 C22_4 1_555 1_555
C23_4 N5_2 1_555 1_555
H16_4 C23_4 1_555 1_555
Cu5 Cl3_2 1_555 1_555
C22_4 C23_4 1_555 1_555
Cl4_2 Cu6 1_555 1_555
C9_4 N6_2 1_555 1_555
H7_4 C10_4 1_555 1_555
C11_4 N6_2 1_555 1_555
H8_4 C11_4 1_555 1_555
C10_4 C11_4 1_555 1_555
C13_4 C14_4 1_555 1_555
C14_4 C15_4 1_555 1_555
C15_4 H9_4 1_555 1_555
C16_4 C13_4 1_555 1_555
H10_4 C16_4 1_555 1_555
C17_4 C14_4 1_555 1_555
H11_4 C17_4 1_555 1_555
C18_4 C12_7 1_555 1_555
C19_4 C17_4 1_555 1_555
H12_4 C19_4 1_555 1_555
C20_4 C15_4 1_555 1_555
C18_4 C19_4 1_555 1_555
C18_4 C20_4 1_555 1_555
C24_4 C25_4 1_555 1_555
C25_4 C26_4 1_555 1_555
C26_4 H17_4 1_555 1_555
C27_4 C24_4 1_555 1_555
H18_4 C27_4 1_555 1_555
C28_4 C25_4 1_555 1_555
H19_4 C28_4 1_555 1_555
C29_4 C12_8 1_555 1_555
C30_4 C28_4 1_555 1_555
H20_4 C30_4 1_555 1_555
C31_4 C26_4 1_555 1_555
C29_4 C30_4 1_555 1_555
C29_4 C31_4 1_555 1_555
C35_4 C36_4 1_555 1_555
C36_4 C37_4 1_555 1_555
C37_4 H25_4 1_555 1_555
C38_4 C35_4 1_555 1_555
H26_4 C38_4 1_555 1_555
C39_4 C36_4 1_555 1_555
H27_4 C39_4 1_555 1_555
C40_4 C12_9 1_555 1_555
C41_4 C39_4 1_555 1_555
H28_4 C41_4 1_555 1_555
C42_4 C37_4 1_555 1_555
C40_4 C41_4 1_555 1_555
C40_4 C42_4 1_555 1_555
C1_4 C2_4 1_555 1_555
C2_4 C3_4 1_555 1_555
C3_4 H1_4 1_555 1_555
C4_4 C1_4 1_555 1_555
H2_4 C4_4 1_555 1_555
C5_4 C2_4 1_555 1_555
H3_4 C5_4 1_555 1_555
C6_4 C7_4 1_555 1_555
C7_4 C5_4 1_555 1_555
H4_4 C7_4 1_555 1_555
C8_4 C3_4 1_555 1_555
C12_10 C6_4 1_555 1_555
C6_4 C8_4 1_555 1_555

#END
