
###############################################################################
#
# This file contains modified crystal structure data generated from the
# MOF subset of the Cambridge Structural Database (CSD) v543 
# hosted by the Cambridge Crystallographic Data Centre (CCDC).
#
# This work is licensed under the Creative Commons
# Attribution-NonCommercial-ShareAlike 4.0 International License.
# To view a copy of this license, visit
# http://creativecommons.org/licenses/by-nc-sa/4.0/
# or send a letter to
# Creative Commons, PO Box 1866, Mountain View, CA 94042, USA.
#
# CIF created using the CSD Python API on 29 September 2022
# The structure has been converted into the P1 space group
# The structure has a 3D framework
# The original CSD entry AVOREL is in the monoclinic crystal system
# The framework has been calculated to contain at least 10.0% void space
# The void calculation uses a probe of radius 1.32A, grid spacing 0.4
# H atom positions have been added when not included in the experimental data
#
###############################################################################

data_AVOREL
_chemical_formula_moiety         '(C200 H184 N24 Ni18 O80)n'
_symmetry_cell_setting           triclinic
_symmetry_space_group_name_H-M   'P 1'
_symmetry_Int_Tables_number      1
_space_group_name_Hall           'P 1'
loop_
_symmetry_equiv_pos_site_id
_symmetry_equiv_pos_as_xyz
1 x,y,z
_cell_length_a                   17.433(5)
_cell_length_b                   15.289(5)
_cell_length_c                   23.250(7)
_cell_angle_alpha                90
_cell_angle_beta                 97.100(3)
_cell_angle_gamma                90
_cell_volume                     6149.38
loop_
_atom_site_label
_atom_site_type_symbol
_atom_site_fract_x
_atom_site_fract_y
_atom_site_fract_z
C17 C 0.0091(4) 0.2150(5) 0.1215(3)
H9 H 0.046632 0.255402 0.135745
C18 C 0.0256(4) 0.1525(4) 0.0831(3)
H10 H 0.075076 0.151389 0.072081
Ni6 Ni 0.000000 0.000000 0.000000
Ni6_2 Ni 0.000000 -0.000000 1.000000
Ni6_3 Ni 0.000000 1.000000 0.000000
Ni6_4 Ni 0.000000 1.000000 1.000000
C1 C 0.8360(4) 0.4416(4) 0.4212(3)
C2 C 0.8534(4) 0.3623(4) 0.4611(3)
H1 H 0.875296 0.366677 0.499559
C3 C 0.7554(4) 0.2706(4) 0.4138(3)
C4 C 0.7387(4) 0.2153(4) 0.3660(3)
H2 H 0.778582 0.187076 0.350299
C5 C 0.6635(4) 0.2027(4) 0.3422(3)
C6 C 0.6038(4) 0.2423(4) 0.3670(3)
H3 H 0.552831 0.232991 0.351207
C7 C 0.6199(4) 0.2958(4) 0.4154(3)
C8 C 0.6959(4) 0.3112(4) 0.4377(3)
H4 H 0.707035 0.349076 0.468872
C9 C 0.6445(5) 0.1527(5) 0.2859(3)
C10 C 0.5543(4) 0.3435(4) 0.4384(3)
C11 C 0.9122(4) 0.4331(4) 0.2127(3)
H5 H 0.931412 0.489753 0.211343
C12 C 0.9399(4) 0.3708(5) 0.1782(3)
H6 H 0.976870 0.385489 0.154197
C13 C 0.9125(4) 0.2862(4) 0.1792(3)
C14 C 0.8574(5) 0.2685(5) 0.2168(3)
H7 H 0.837035 0.212547 0.218943
C15 C 0.8341(4) 0.3347(4) 0.2501(3)
H8 H 0.798797 0.321622 0.275719
C16 C 0.9358(4) 0.2181(5) 0.1392(3)
C19 C 0.9047(4) 0.0957(5) 0.0773(3)
H11 H 0.867836 0.055410 0.061681
C20 C 0.8841(5) 0.1550(5) 0.1162(4)
H12 H 0.834751 0.153026 0.127444
C21 C 0.6675(4) 0.4975(5) 0.2257(3)
H13 H 0.696944 0.511049 0.196117
C22 C 0.5885(4) 0.4925(5) 0.2123(3)
H14 H 0.565821 0.501994 0.174419
C23 C 0.5422(4) 0.4730(4) 0.2558(3)
C24 C 0.5815(4) 0.4556(5) 0.3088(3)
H15 H 0.554417 0.439236 0.339117
C25 C 0.6607(4) 0.4619(5) 0.3180(3)
H16 H 0.685243 0.449496 0.354902
N1 N 0.8592(3) 0.4169(3) 0.2480(2)
N2 N 0.7038(3) 0.4842(3) 0.2780(2)
N3 N 0.9746(3) 0.0923(4) 0.0604(2)
O1 O 0.8324(2) 0.4292(3) 0.36843(18)
O2 O 0.8282(4) 0.5139(3) 0.4460(2)
O3 O 0.8326(2) 0.2814(3) 0.43341(18)
O4 O 0.6915(3) 0.0978(3) 0.27182(18)
O5 O 0.5801(3) 0.1679(4) 0.2593(3)
O6 O 0.4877(3) 0.3132(4) 0.4283(2)
O7 O 0.5718(2) 0.4121(3) 0.46599(18)
O8 O 0.9391(2) 0.5496(3) 0.32211(18)
H17 H 0.945478 0.588210 0.296802
H18 H 0.950625 0.562694 0.357664
O9 O 0.7917(2) 0.6166(3) 0.35267(19)
H19 H 0.818228 0.661848 0.347439
H20 H 0.804895 0.595330 0.386212
O10 O 0.4057(3) 0.4604(3) 0.44139(19)
H21 H 0.419580 0.407117 0.441744
H22 H 0.356673 0.463303 0.436974
Ni1 Ni 0.500000 0.500000 0.500000
Ni2 Ni 0.82219(5) 0.51572(5) 0.29898(3)
C26 C 0.3325(4) 0.4975(5) 0.2743(3)
H23 H 0.303056 0.511049 0.303883
C27 C 0.4115(4) 0.4925(5) 0.2877(3)
H24 H 0.434179 0.501994 0.325581
C28 C 0.4578(4) 0.4730(4) 0.2442(3)
C29 C 0.4185(4) 0.4556(5) 0.1912(3)
H25 H 0.445583 0.439236 0.160883
C30 C 0.3393(4) 0.4619(5) 0.1820(3)
H26 H 0.314757 0.449496 0.145098
N4 N 0.2962(3) 0.4842(3) 0.2220(2)
C31 C 0.1640(4) 0.4416(4) 0.0788(3)
C32 C 0.1466(4) 0.3623(4) 0.0389(3)
H27 H 0.124704 0.366677 0.000441
C33 C 0.2446(4) 0.2706(4) 0.0862(3)
C34 C 0.2613(4) 0.2153(4) 0.1340(3)
H28 H 0.221418 0.187076 0.149701
C35 C 0.3365(4) 0.2027(4) 0.1578(3)
C36 C 0.3962(4) 0.2423(4) 0.1330(3)
H29 H 0.447169 0.232991 0.148793
C37 C 0.3801(4) 0.2958(4) 0.0846(3)
C38 C 0.3041(4) 0.3112(4) 0.0623(3)
H30 H 0.292965 0.349076 0.031128
C39 C 0.3555(5) 0.1527(5) 0.2141(3)
C40 C 0.4457(4) 0.3435(4) 0.0616(3)
C41 C 0.0878(4) 0.4331(4) 0.2873(3)
H31 H 0.068588 0.489753 0.288657
C42 C 0.0601(4) 0.3708(5) 0.3218(3)
H32 H 0.023130 0.385489 0.345803
C43 C 0.0875(4) 0.2862(4) 0.3208(3)
C44 C 0.1426(5) 0.2685(5) 0.2832(3)
H33 H 0.162965 0.212547 0.281057
C45 C 0.1659(4) 0.3347(4) 0.2499(3)
H34 H 0.201203 0.321622 0.224281
C46 C 0.0642(4) 0.2181(5) 0.3608(3)
C49 C 0.0953(4) 0.0957(5) 0.4227(3)
H37 H 0.132164 0.055410 0.438319
C50 C 0.1159(5) 0.1550(5) 0.3838(4)
H38 H 0.165249 0.153026 0.372556
N5 N 0.1408(3) 0.4169(3) 0.2520(2)
N6 N 0.0254(3) 0.0923(4) 0.4396(2)
O11 O 0.1676(2) 0.4292(3) 0.13157(18)
O12 O 0.1718(4) 0.5139(3) 0.0540(2)
O13 O 0.1674(2) 0.2814(3) 0.06659(18)
O14 O 0.3085(3) 0.0978(3) 0.22818(18)
O15 O 0.4199(3) 0.1679(4) 0.2407(3)
O16 O 0.5123(3) 0.3132(4) 0.0717(2)
O17 O 0.4282(2) 0.4121(3) 0.03401(18)
O18 O 0.0609(2) 0.5496(3) 0.17789(18)
H39 H 0.054522 0.588210 0.203198
H40 H 0.049375 0.562694 0.142336
O19 O 0.2083(2) 0.6166(3) 0.14733(19)
H41 H 0.181772 0.661848 0.152561
H42 H 0.195105 0.595330 0.113788
Ni3 Ni 0.17781(5) 0.51572(5) 0.20102(3)
O20 O 0.5943(3) 0.5396(3) 0.55861(19)
H43 H 0.580420 0.592883 0.558256
H44 H 0.643327 0.536697 0.563026
N7 N 0.5254(3) 0.5923(4) 0.4396(2)
N8 N 0.4746(3) 0.4077(4) 0.5604(2)
O21 O 0.1915(3) 0.5978(3) 0.27182(18)
O22 O 0.8085(3) 0.5978(3) 0.22818(18)
O23 O 0.4282(2) 0.5879(3) 0.53401(18)
Ni4 Ni 0.500000 0.500000 0.000000
Ni5 Ni 0.000000 -0.000000 0.500000
Ni6_5 Ni 1.000000 0.000000 0.000000
Ni7 Ni 0.32219(5) 0.01572(5) 0.29898(3)
Ni8 Ni 0.67781(5) 0.01572(5) 0.20102(3)
H45 H 0.910844 0.357325 0.447547
H46 H 0.0891561 0.357325 0.0524528
Ni4_2 Ni 0.500000 0.500000 1.000000
Ni6_6 Ni 1.000000 -0.000000 1.000000
Ni5_2 Ni 0.000000 1.000000 0.500000
Ni6_7 Ni 1.000000 1.000000 0.000000
Ni6_8 Ni 1.000000 1.000000 1.000000
C47 C 0.9909(4) 0.2150(5) 0.3785(3)
H35 H 0.953368 0.255402 0.364255
C48 C 0.9744(4) 0.1525(4) 0.4169(3)
H36 H 0.924924 0.151389 0.427919
Ni5_3 Ni 1.000000 -0.000000 0.500000
Ni5_4 Ni 1.000000 1.000000 0.500000
O10_2 O 0.5943(3) 0.4604(3) 0.05861(19)
H21_2 H 0.580420 0.407117 0.058256
H22_2 H 0.643327 0.463303 0.063026
N7_2 N 0.4746(3) 0.5923(4) 0.0604(2)
O20_2 O 0.4057(3) 0.5396(3) 0.94139(19)
H43_2 H 0.419580 0.592883 0.941744
H44_2 H 0.356673 0.536697 0.936974
N8_2 N 0.5254(3) 0.4077(4) 0.9396(2)
O23_2 O 0.5718(2) 0.5879(3) 0.96599(18)
H13_2 H 0.196944 0.011049 0.196117
H14_2 H 0.065821 0.001994 0.174419
O2_2 O 0.3282(4) 0.0139(3) 0.4460(2)
O8_2 O 0.4391(2) 0.0496(3) 0.32211(18)
H17_2 H 0.445478 0.088210 0.296802
H18_2 H 0.450625 0.062694 0.357664
O9_2 O 0.2917(2) 0.1166(3) 0.35267(19)
H19_2 H 0.318228 0.161848 0.347439
H20_2 H 0.304895 0.095330 0.386212
O20_3 O 0.0943(3) 0.0396(3) 0.55861(19)
H43_3 H 0.080420 0.092883 0.558256
H44_3 H 0.143327 0.036697 0.563026
C1_2 C 0.3360(4) 0.9416(4) 0.4212(3)
C2_2 C 0.3534(4) 0.8623(4) 0.4611(3)
H1_2 H 0.375296 0.866677 0.499559
C3_2 C 0.2554(4) 0.7706(4) 0.4138(3)
C4_2 C 0.2387(4) 0.7153(4) 0.3660(3)
H2_2 H 0.278582 0.687076 0.350299
C5_2 C 0.1635(4) 0.7027(4) 0.3422(3)
C6_2 C 0.1038(4) 0.7423(4) 0.3670(3)
H3_2 H 0.052831 0.732991 0.351207
C7_2 C 0.1199(4) 0.7958(4) 0.4154(3)
C8_2 C 0.1959(4) 0.8112(4) 0.4377(3)
H4_2 H 0.207035 0.849076 0.468872
C9_2 C 0.1445(5) 0.6527(5) 0.2859(3)
C10_2 C 0.0543(4) 0.8435(4) 0.4384(3)
C11_2 C 0.4122(4) 0.9331(4) 0.2127(3)
H5_2 H 0.431412 0.989753 0.211343
C12_2 C 0.4399(4) 0.8708(5) 0.1782(3)
H6_2 H 0.476870 0.885489 0.154197
C13_2 C 0.4125(4) 0.7862(4) 0.1792(3)
C14_2 C 0.3574(5) 0.7685(5) 0.2168(3)
H7_2 H 0.337035 0.712547 0.218943
C15_2 C 0.3341(4) 0.8347(4) 0.2501(3)
H8_2 H 0.298797 0.821622 0.275719
C16_2 C 0.4358(4) 0.7181(5) 0.1392(3)
C17_2 C 0.5091(4) 0.7150(5) 0.1215(3)
H9_2 H 0.546632 0.755402 0.135745
C18_2 C 0.5256(4) 0.6525(4) 0.0831(3)
H10_2 H 0.575076 0.651389 0.072081
C19_2 C 0.4047(4) 0.5957(5) 0.0773(3)
H11_2 H 0.367836 0.555410 0.061681
C20_2 C 0.3841(5) 0.6550(5) 0.1162(4)
H12_2 H 0.334751 0.653026 0.127444
C21_2 C 0.1675(4) 0.9975(5) 0.2257(3)
C22_2 C 0.0885(4) 0.9925(5) 0.2123(3)
C23_2 C 0.0422(4) 0.9730(4) 0.2558(3)
C24_2 C 0.0815(4) 0.9556(5) 0.3088(3)
H15_2 H 0.054417 0.939236 0.339117
C25_2 C 0.1607(4) 0.9619(5) 0.3180(3)
H16_2 H 0.185243 0.949496 0.354902
N1_2 N 0.3592(3) 0.9169(3) 0.2480(2)
N2_2 N 0.2038(3) 0.9842(3) 0.2780(2)
O1_2 O 0.3324(2) 0.9292(3) 0.36843(18)
O3_2 O 0.3326(2) 0.7814(3) 0.43341(18)
O5_2 O 0.0801(3) 0.6679(4) 0.2593(3)
O7_2 O 0.0718(2) 0.9121(3) 0.46599(18)
O16_2 O 0.0123(3) 0.8132(4) 0.0717(2)
H45_2 H 0.410844 0.857325 0.447547
H23_2 H 0.803056 0.011049 0.303883
H24_2 H 0.934179 0.001994 0.325581
O12_2 O 0.6718(4) 0.0139(3) 0.0540(2)
O18_2 O 0.5609(2) 0.0496(3) 0.17789(18)
H39_2 H 0.554522 0.088210 0.203198
H40_2 H 0.549375 0.062694 0.142336
O19_2 O 0.7083(2) 0.1166(3) 0.14733(19)
H41_2 H 0.681772 0.161848 0.152561
H42_2 H 0.695105 0.095330 0.113788
O23_3 O 0.9282(2) 0.0879(3) 0.53401(18)
O6_2 O 0.9877(3) 0.8132(4) 0.4283(2)
O10_3 O 0.9057(3) 0.9604(3) 0.44139(19)
H21_3 H 0.919580 0.907117 0.441744
H22_3 H 0.856673 0.963303 0.436974
C26_2 C 0.8325(4) 0.9975(5) 0.2743(3)
C27_2 C 0.9115(4) 0.9925(5) 0.2877(3)
C28_2 C 0.9578(4) 0.9730(4) 0.2442(3)
C29_2 C 0.9185(4) 0.9556(5) 0.1912(3)
H25_2 H 0.945583 0.939236 0.160883
C30_2 C 0.8393(4) 0.9619(5) 0.1820(3)
H26_2 H 0.814757 0.949496 0.145098
N4_2 N 0.7962(3) 0.9842(3) 0.2220(2)
C31_2 C 0.6640(4) 0.9416(4) 0.0788(3)
C32_2 C 0.6466(4) 0.8623(4) 0.0389(3)
H27_2 H 0.624704 0.866677 0.000441
C33_2 C 0.7446(4) 0.7706(4) 0.0862(3)
C34_2 C 0.7613(4) 0.7153(4) 0.1340(3)
H28_2 H 0.721418 0.687076 0.149701
C35_2 C 0.8365(4) 0.7027(4) 0.1578(3)
C36_2 C 0.8962(4) 0.7423(4) 0.1330(3)
H29_2 H 0.947169 0.732991 0.148793
C37_2 C 0.8801(4) 0.7958(4) 0.0846(3)
C38_2 C 0.8041(4) 0.8112(4) 0.0623(3)
H30_2 H 0.792965 0.849076 0.031128
C39_2 C 0.8555(5) 0.6527(5) 0.2141(3)
C40_2 C 0.9457(4) 0.8435(4) 0.0616(3)
C41_2 C 0.5878(4) 0.9331(4) 0.2873(3)
H31_2 H 0.568588 0.989753 0.288657
C42_2 C 0.5601(4) 0.8708(5) 0.3218(3)
H32_2 H 0.523130 0.885489 0.345803
C43_2 C 0.5875(4) 0.7862(4) 0.3208(3)
C44_2 C 0.6426(5) 0.7685(5) 0.2832(3)
H33_2 H 0.662965 0.712547 0.281057
C45_2 C 0.6659(4) 0.8347(4) 0.2499(3)
H34_2 H 0.701203 0.821622 0.224281
C46_2 C 0.5642(4) 0.7181(5) 0.3608(3)
C47_2 C 0.4909(4) 0.7150(5) 0.3785(3)
H35_2 H 0.453368 0.755402 0.364255
C48_2 C 0.4744(4) 0.6525(4) 0.4169(3)
H36_2 H 0.424924 0.651389 0.427919
C49_2 C 0.5953(4) 0.5957(5) 0.4227(3)
H37_2 H 0.632164 0.555410 0.438319
C50_2 C 0.6159(5) 0.6550(5) 0.3838(4)
H38_2 H 0.665249 0.653026 0.372556
N5_2 N 0.6408(3) 0.9169(3) 0.2520(2)
O11_2 O 0.6676(2) 0.9292(3) 0.13157(18)
O13_2 O 0.6674(2) 0.7814(3) 0.06659(18)
O15_2 O 0.9199(3) 0.6679(4) 0.2407(3)
O17_2 O 0.9282(2) 0.9121(3) 0.03401(18)
N8_3 N 0.9746(3) 0.9077(4) 0.5604(2)
H46_2 H 0.589156 0.857325 0.0524528
O23_4 O 0.0718(2) 0.0879(3) 0.96599(18)
O10_4 O 0.0943(3) 0.9604(3) 0.05861(19)
H21_4 H 0.080420 0.907117 0.058256
H22_4 H 0.143327 0.963303 0.063026
N8_4 N 0.0254(3) 0.9077(4) 0.9396(2)
O20_4 O 0.9057(3) 0.0396(3) 0.94139(19)
H43_4 H 0.919580 0.092883 0.941744
H44_4 H 0.856673 0.036697 0.936974
C47_3 C 0.0091(4) 0.7850(5) 0.6215(3)
H35_3 H 0.046632 0.744598 0.635745
C48_3 C 0.0256(4) 0.8475(4) 0.5831(3)
H36_3 H 0.075076 0.848611 0.572081
C1_3 C 0.1640(4) 0.5584(4) 0.5788(3)
C2_3 C 0.1466(4) 0.6377(4) 0.5389(3)
H1_3 H 0.124704 0.633323 0.500441
C3_3 C 0.2446(4) 0.7294(4) 0.5862(3)
C4_3 C 0.2613(4) 0.7847(4) 0.6340(3)
H2_3 H 0.221418 0.812924 0.649701
C5_3 C 0.3365(4) 0.7973(4) 0.6578(3)
C6_3 C 0.3962(4) 0.7577(4) 0.6330(3)
H3_3 H 0.447169 0.767009 0.648793
C7_3 C 0.3801(4) 0.7042(4) 0.5846(3)
C8_3 C 0.3041(4) 0.6888(4) 0.5623(3)
H4_3 H 0.292965 0.650924 0.531128
C9_3 C 0.3555(5) 0.8473(5) 0.7141(3)
C10_3 C 0.4457(4) 0.6565(4) 0.5616(3)
C11_3 C 0.0878(4) 0.5669(4) 0.7873(3)
H5_3 H 0.068588 0.510247 0.788657
C12_3 C 0.0601(4) 0.6292(5) 0.8218(3)
H6_3 H 0.023130 0.614511 0.845803
C13_3 C 0.0875(4) 0.7138(4) 0.8208(3)
C14_3 C 0.1426(5) 0.7315(5) 0.7832(3)
H7_3 H 0.162965 0.787453 0.781057
C15_3 C 0.1659(4) 0.6653(4) 0.7499(3)
H8_3 H 0.201203 0.678378 0.724281
C16_3 C 0.0642(4) 0.7819(5) 0.8608(3)
C19_3 C 0.0953(4) 0.9043(5) 0.9227(3)
H11_3 H 0.132164 0.944590 0.938319
C20_3 C 0.1159(5) 0.8450(5) 0.8838(4)
H12_3 H 0.165249 0.846974 0.872556
C21_3 C 0.3325(4) 0.5025(5) 0.7743(3)
H13_3 H 0.303056 0.488951 0.803883
C22_3 C 0.4115(4) 0.5075(5) 0.7877(3)
H14_3 H 0.434179 0.498006 0.825581
C23_3 C 0.4578(4) 0.5270(4) 0.7442(3)
C24_3 C 0.4185(4) 0.5444(5) 0.6912(3)
H15_3 H 0.445583 0.560764 0.660883
C25_3 C 0.3393(4) 0.5381(5) 0.6820(3)
H16_3 H 0.314757 0.550504 0.645098
N1_3 N 0.1408(3) 0.5831(3) 0.7520(2)
N2_3 N 0.2962(3) 0.5158(3) 0.7220(2)
O1_3 O 0.1676(2) 0.5708(3) 0.63157(18)
O2_3 O 0.1718(4) 0.4861(3) 0.5540(2)
O3_3 O 0.1674(2) 0.7186(3) 0.56659(18)
O4_2 O 0.3085(3) 0.9022(3) 0.72818(18)
O5_3 O 0.4199(3) 0.8321(4) 0.7407(3)
O6_3 O 0.5123(3) 0.6868(4) 0.5717(2)
O8_3 O 0.0609(2) 0.4504(3) 0.67789(18)
H17_3 H 0.054522 0.411790 0.703198
H18_3 H 0.049375 0.437306 0.642336
O9_3 O 0.2083(2) 0.3834(3) 0.64733(19)
H19_3 H 0.181772 0.338152 0.652561
H20_3 H 0.195105 0.404670 0.613788
Ni2_2 Ni 0.17781(5) 0.48428(5) 0.70102(3)
C26_3 C 0.6675(4) 0.5025(5) 0.7257(3)
H23_3 H 0.696944 0.488951 0.696117
C27_3 C 0.5885(4) 0.5075(5) 0.7123(3)
H24_3 H 0.565821 0.498006 0.674419
C28_3 C 0.5422(4) 0.5270(4) 0.7558(3)
C29_3 C 0.5815(4) 0.5444(5) 0.8088(3)
H25_3 H 0.554417 0.560764 0.839117
C30_3 C 0.6607(4) 0.5381(5) 0.8180(3)
H26_3 H 0.685243 0.550504 0.854902
N4_3 N 0.7038(3) 0.5158(3) 0.7780(2)
C31_3 C 0.8360(4) 0.5584(4) 0.9212(3)
C32_3 C 0.8534(4) 0.6377(4) 0.9611(3)
H27_3 H 0.875296 0.633323 0.999559
C33_3 C 0.7554(4) 0.7294(4) 0.9138(3)
C34_3 C 0.7387(4) 0.7847(4) 0.8660(3)
H28_3 H 0.778582 0.812924 0.850299
C35_3 C 0.6635(4) 0.7973(4) 0.8422(3)
C36_3 C 0.6038(4) 0.7577(4) 0.8670(3)
H29_3 H 0.552831 0.767009 0.851207
C37_3 C 0.6199(4) 0.7042(4) 0.9154(3)
C38_3 C 0.6959(4) 0.6888(4) 0.9377(3)
H30_3 H 0.707035 0.650924 0.968872
C39_3 C 0.6445(5) 0.8473(5) 0.7859(3)
C40_3 C 0.5543(4) 0.6565(4) 0.9384(3)
C41_3 C 0.9122(4) 0.5669(4) 0.7127(3)
H31_3 H 0.931412 0.510247 0.711343
C42_3 C 0.9399(4) 0.6292(5) 0.6782(3)
H32_3 H 0.976870 0.614511 0.654197
C43_3 C 0.9125(4) 0.7138(4) 0.6792(3)
C44_3 C 0.8574(5) 0.7315(5) 0.7168(3)
H33_3 H 0.837035 0.787453 0.718943
C45_3 C 0.8341(4) 0.6653(4) 0.7501(3)
H34_3 H 0.798797 0.678378 0.775719
C46_3 C 0.9358(4) 0.7819(5) 0.6392(3)
C49_3 C 0.9047(4) 0.9043(5) 0.5773(3)
H37_3 H 0.867836 0.944590 0.561681
C50_3 C 0.8841(5) 0.8450(5) 0.6162(4)
H38_3 H 0.834751 0.846974 0.627444
N5_3 N 0.8592(3) 0.5831(3) 0.7480(2)
O11_3 O 0.8324(2) 0.5708(3) 0.86843(18)
O12_3 O 0.8282(4) 0.4861(3) 0.9460(2)
O13_3 O 0.8326(2) 0.7186(3) 0.93341(18)
O14_2 O 0.6915(3) 0.9022(3) 0.77182(18)
O15_3 O 0.5801(3) 0.8321(4) 0.7593(3)
O16_3 O 0.4877(3) 0.6868(4) 0.9283(2)
O18_3 O 0.9391(2) 0.4504(3) 0.82211(18)
H39_3 H 0.945478 0.411790 0.796802
H40_3 H 0.950625 0.437306 0.857664
O19_3 O 0.7917(2) 0.3834(3) 0.85267(19)
H41_3 H 0.818228 0.338152 0.847439
H42_3 H 0.804895 0.404670 0.886212
Ni3_2 Ni 0.82219(5) 0.48428(5) 0.79898(3)
O21_2 O 0.8085(3) 0.4022(3) 0.72818(18)
O22_2 O 0.1915(3) 0.4022(3) 0.77182(18)
Ni7_2 Ni 0.67781(5) 0.98428(5) 0.70102(3)
Ni8_2 Ni 0.32219(5) 0.98428(5) 0.79898(3)
H45_3 H 0.0891561 0.642675 0.552453
H46_3 H 0.910844 0.642675 0.947547
C17_3 C 0.9909(4) 0.7850(5) 0.8785(3)
H9_3 H 0.953368 0.744598 0.864255
C18_3 C 0.9744(4) 0.8475(4) 0.9169(3)
H10_3 H 0.924924 0.848611 0.927919
O6_4 O 0.0123(3) 0.1868(4) 0.5717(2)
C26_4 C 0.1675(4) 0.0025(5) 0.7257(3)
C27_4 C 0.0885(4) 0.0075(5) 0.7123(3)
C28_4 C 0.0422(4) 0.0270(4) 0.7558(3)
C29_4 C 0.0815(4) 0.0444(5) 0.8088(3)
H25_4 H 0.054417 0.060764 0.839117
C30_4 C 0.1607(4) 0.0381(5) 0.8180(3)
H26_4 H 0.185243 0.050504 0.854902
N4_4 N 0.2038(3) 0.0158(3) 0.7780(2)
C31_4 C 0.3360(4) 0.0584(4) 0.9212(3)
C32_4 C 0.3534(4) 0.1377(4) 0.9611(3)
H27_4 H 0.375296 0.133323 0.999559
C33_4 C 0.2554(4) 0.2294(4) 0.9138(3)
C34_4 C 0.2387(4) 0.2847(4) 0.8660(3)
H28_4 H 0.278582 0.312924 0.850299
C35_4 C 0.1635(4) 0.2973(4) 0.8422(3)
C36_4 C 0.1038(4) 0.2577(4) 0.8670(3)
H29_4 H 0.052831 0.267009 0.851207
C37_4 C 0.1199(4) 0.2042(4) 0.9154(3)
C38_4 C 0.1959(4) 0.1888(4) 0.9377(3)
H30_4 H 0.207035 0.150924 0.968872
C39_4 C 0.1445(5) 0.3473(5) 0.7859(3)
C40_4 C 0.0543(4) 0.1565(4) 0.9384(3)
C41_4 C 0.4122(4) 0.0669(4) 0.7127(3)
H31_4 H 0.431412 0.010247 0.711343
C42_4 C 0.4399(4) 0.1292(5) 0.6782(3)
H32_4 H 0.476870 0.114511 0.654197
C43_4 C 0.4125(4) 0.2138(4) 0.6792(3)
C44_4 C 0.3574(5) 0.2315(5) 0.7168(3)
H33_4 H 0.337035 0.287453 0.718943
C45_4 C 0.3341(4) 0.1653(4) 0.7501(3)
H34_4 H 0.298797 0.178378 0.775719
C46_4 C 0.4358(4) 0.2819(5) 0.6392(3)
C47_4 C 0.5091(4) 0.2850(5) 0.6215(3)
H35_4 H 0.546632 0.244598 0.635745
C48_4 C 0.5256(4) 0.3475(4) 0.5831(3)
H36_4 H 0.575076 0.348611 0.572081
C49_4 C 0.4047(4) 0.4043(5) 0.5773(3)
H37_4 H 0.367836 0.444590 0.561681
C50_4 C 0.3841(5) 0.3450(5) 0.6162(4)
H38_4 H 0.334751 0.346974 0.627444
N5_4 N 0.3592(3) 0.0831(3) 0.7480(2)
O11_4 O 0.3324(2) 0.0708(3) 0.86843(18)
O13_4 O 0.3326(2) 0.2186(3) 0.93341(18)
O15_4 O 0.0801(3) 0.3321(4) 0.7593(3)
H46_4 H 0.410844 0.142675 0.947547
H23_4 H 0.196944 0.988951 0.696117
H24_4 H 0.065821 0.998006 0.674419
O12_4 O 0.3282(4) 0.9861(3) 0.9460(2)
O18_4 O 0.4391(2) 0.9504(3) 0.82211(18)
H39_4 H 0.445478 0.911790 0.796802
H40_4 H 0.450625 0.937306 0.857664
O19_4 O 0.2917(2) 0.8834(3) 0.85267(19)
H41_4 H 0.318228 0.838152 0.847439
H42_4 H 0.304895 0.904670 0.886212
C1_4 C 0.6640(4) 0.0584(4) 0.5788(3)
C2_4 C 0.6466(4) 0.1377(4) 0.5389(3)
H1_4 H 0.624704 0.133323 0.500441
C3_4 C 0.7446(4) 0.2294(4) 0.5862(3)
C4_4 C 0.7613(4) 0.2847(4) 0.6340(3)
H2_4 H 0.721418 0.312924 0.649701
C5_4 C 0.8365(4) 0.2973(4) 0.6578(3)
C6_4 C 0.8962(4) 0.2577(4) 0.6330(3)
H3_4 H 0.947169 0.267009 0.648793
C7_4 C 0.8801(4) 0.2042(4) 0.5846(3)
C8_4 C 0.8041(4) 0.1888(4) 0.5623(3)
H4_4 H 0.792965 0.150924 0.531128
C9_4 C 0.8555(5) 0.3473(5) 0.7141(3)
C10_4 C 0.9457(4) 0.1565(4) 0.5616(3)
C11_4 C 0.5878(4) 0.0669(4) 0.7873(3)
H5_4 H 0.568588 0.010247 0.788657
C12_4 C 0.5601(4) 0.1292(5) 0.8218(3)
H6_4 H 0.523130 0.114511 0.845803
C13_4 C 0.5875(4) 0.2138(4) 0.8208(3)
C14_4 C 0.6426(5) 0.2315(5) 0.7832(3)
H7_4 H 0.662965 0.287453 0.781057
C15_4 C 0.6659(4) 0.1653(4) 0.7499(3)
H8_4 H 0.701203 0.178378 0.724281
C16_4 C 0.5642(4) 0.2819(5) 0.8608(3)
C17_4 C 0.4909(4) 0.2850(5) 0.8785(3)
H9_4 H 0.453368 0.244598 0.864255
C18_4 C 0.4744(4) 0.3475(4) 0.9169(3)
H10_4 H 0.424924 0.348611 0.927919
C19_4 C 0.5953(4) 0.4043(5) 0.9227(3)
H11_4 H 0.632164 0.444590 0.938319
C20_4 C 0.6159(5) 0.3450(5) 0.8838(4)
H12_4 H 0.665249 0.346974 0.872556
C21_4 C 0.8325(4) 0.0025(5) 0.7743(3)
C22_4 C 0.9115(4) 0.0075(5) 0.7877(3)
C23_4 C 0.9578(4) 0.0270(4) 0.7442(3)
C24_4 C 0.9185(4) 0.0444(5) 0.6912(3)
H15_4 H 0.945583 0.060764 0.660883
C25_4 C 0.8393(4) 0.0381(5) 0.6820(3)
H16_4 H 0.814757 0.050504 0.645098
N1_4 N 0.6408(3) 0.0831(3) 0.7520(2)
N2_4 N 0.7962(3) 0.0158(3) 0.7220(2)
O1_4 O 0.6676(2) 0.0708(3) 0.63157(18)
O3_4 O 0.6674(2) 0.2186(3) 0.56659(18)
O5_4 O 0.9199(3) 0.3321(4) 0.7407(3)
O16_4 O 0.9877(3) 0.1868(4) 0.9283(2)
H45_4 H 0.589156 0.142675 0.552453
H13_4 H 0.803056 0.988951 0.803883
H14_4 H 0.934179 0.998006 0.825581
O2_4 O 0.6718(4) 0.9861(3) 0.5540(2)
O8_4 O 0.5609(2) 0.9504(3) 0.67789(18)
H17_4 H 0.554522 0.911790 0.703198
H18_4 H 0.549375 0.937306 0.642336
O9_4 O 0.7083(2) 0.8834(3) 0.64733(19)
H19_4 H 0.681772 0.838152 0.652561
H20_4 H 0.695105 0.904670 0.613788
loop_
_geom_bond_atom_site_label_1
_geom_bond_atom_site_label_2
_geom_bond_site_symmetry_1
_geom_bond_site_symmetry_2
H9 C17 1_555 1_555
C18 C17 1_555 1_555
H10 C18 1_555 1_555
C1 C2 1_555 1_555
C2 H1 1_555 1_555
C3 C4 1_555 1_555
C4 H2 1_555 1_555
C5 C4 1_555 1_555
C6 C5 1_555 1_555
H3 C6 1_555 1_555
C7 C6 1_555 1_555
C8 C3 1_555 1_555
H4 C8 1_555 1_555
C9 C5 1_555 1_555
C10 C7 1_555 1_555
C11 H5 1_555 1_555
C12 C11 1_555 1_555
H6 C12 1_555 1_555
C13 C12 1_555 1_555
C14 C13 1_555 1_555
H7 C14 1_555 1_555
C15 C14 1_555 1_555
H8 C15 1_555 1_555
C16 C13 1_555 1_555
C19 H11 1_555 1_555
C20 C16 1_555 1_555
H12 C20 1_555 1_555
C21 H13 1_555 1_555
C22 C21 1_555 1_555
H14 C22 1_555 1_555
C23 C22 1_555 1_555
C24 C23 1_555 1_555
H15 C24 1_555 1_555
C25 C24 1_555 1_555
H16 C25 1_555 1_555
N1 C11 1_555 1_555
N2 C21 1_555 1_555
O1 C1 1_555 1_555
O2 C1 1_555 1_555
O3 C2 1_555 1_555
O4 C9 1_555 1_555
O5 C9 1_555 1_555
O6 C10 1_555 1_555
O7 C10 1_555 1_555
O8 H17 1_555 1_555
H18 O8 1_555 1_555
O9 H19 1_555 1_555
H20 O9 1_555 1_555
O10 H21 1_555 1_555
H22 O10 1_555 1_555
Ni1 O7 1_555 1_555
Ni2 N1 1_555 1_555
C26 H23 1_555 1_555
C27 C26 1_555 1_555
H24 C27 1_555 1_555
C28 C23 1_555 1_555
C29 C28 1_555 1_555
H25 C29 1_555 1_555
C30 C29 1_555 1_555
H26 C30 1_555 1_555
N4 C26 1_555 1_555
C31 C32 1_555 1_555
C32 H27 1_555 1_555
C33 C34 1_555 1_555
C34 H28 1_555 1_555
C35 C34 1_555 1_555
C36 C35 1_555 1_555
H29 C36 1_555 1_555
C37 C36 1_555 1_555
C38 C33 1_555 1_555
H30 C38 1_555 1_555
C39 C35 1_555 1_555
C40 C37 1_555 1_555
C41 H31 1_555 1_555
C42 C41 1_555 1_555
H32 C42 1_555 1_555
C43 C42 1_555 1_555
C44 C43 1_555 1_555
H33 C44 1_555 1_555
C45 C44 1_555 1_555
H34 C45 1_555 1_555
C46 C43 1_555 1_555
C49 H37 1_555 1_555
C50 C46 1_555 1_555
H38 C50 1_555 1_555
N5 C41 1_555 1_555
O11 C31 1_555 1_555
O12 C31 1_555 1_555
O13 C32 1_555 1_555
O14 C39 1_555 1_555
O15 C39 1_555 1_555
O16 C40 1_555 1_555
O17 C40 1_555 1_555
O18 H39 1_555 1_555
H40 O18 1_555 1_555
O19 H41 1_555 1_555
H42 O19 1_555 1_555
Ni3 N4 1_555 1_555
O20 Ni1 1_555 1_555
H43 O20 1_555 1_555
H44 O20 1_555 1_555
N7 Ni1 1_555 1_555
N8 Ni1 1_555 1_555
O21 Ni3 1_555 1_555
O22 Ni2 1_555 1_555
O23 Ni1 1_555 1_555
Ni4 O17 1_555 1_555
Ni5 N6 1_555 1_555
Ni6_5 N3 1_555 1_555
Ni7 O14 1_555 1_555
Ni8 O4 1_555 1_555
C3 O3 1_555 1_555
C7 C8 1_555 1_555
C15 N1 1_555 1_555
C19 C20 1_555 1_555
C19 N3 1_555 1_555
C25 N2 1_555 1_555
N2 Ni2 1_555 1_555
O1 Ni2 1_555 1_555
O8 Ni2 1_555 1_555
O9 Ni2 1_555 1_555
O10 Ni1 1_555 1_555
C27 C28 1_555 1_555
C30 N4 1_555 1_555
C33 O13 1_555 1_555
C37 C38 1_555 1_555
C45 N5 1_555 1_555
C49 C50 1_555 1_555
C49 N6 1_555 1_555
N5 Ni3 1_555 1_555
O11 Ni3 1_555 1_555
O18 Ni3 1_555 1_555
O19 Ni3 1_555 1_555
C2 H45 1_555 1_555
C32 H46 1_555 1_555
H35 C47 1_555 1_555
C48 C47 1_555 1_555
H36 C48 1_555 1_555
O10_2 H21_2 1_555 1_555
H22_2 O10_2 1_555 1_555
N7_2 Ni4 1_555 1_555
O10_2 Ni4 1_555 1_555
O20_2 Ni4_2 1_555 1_555
H43_2 O20_2 1_555 1_555
H44_2 O20_2 1_555 1_555
N8_2 Ni4_2 1_555 1_555
O23_2 Ni4_2 1_555 1_555
O8_2 H17_2 1_555 1_555
H18_2 O8_2 1_555 1_555
O9_2 H19_2 1_555 1_555
H20_2 O9_2 1_555 1_555
O20_3 Ni5 1_555 1_555
H43_3 O20_3 1_555 1_555
H44_3 O20_3 1_555 1_555
O8_2 Ni7 1_555 1_555
O9_2 Ni7 1_555 1_555
C1_2 C2_2 1_555 1_555
C2_2 H1_2 1_555 1_555
C3_2 C4_2 1_555 1_555
C4_2 H2_2 1_555 1_555
C5_2 C4_2 1_555 1_555
C6_2 C5_2 1_555 1_555
H3_2 C6_2 1_555 1_555
C7_2 C6_2 1_555 1_555
C8_2 C3_2 1_555 1_555
H4_2 C8_2 1_555 1_555
C9_2 C5_2 1_555 1_555
C10_2 C7_2 1_555 1_555
C11_2 H5_2 1_555 1_555
C12_2 C11_2 1_555 1_555
H6_2 C12_2 1_555 1_555
C13_2 C12_2 1_555 1_555
C14_2 C13_2 1_555 1_555
H7_2 C14_2 1_555 1_555
C15_2 C14_2 1_555 1_555
H8_2 C15_2 1_555 1_555
C16_2 C13_2 1_555 1_555
C17_2 C16_2 1_555 1_555
H9_2 C17_2 1_555 1_555
C18_2 C17_2 1_555 1_555
H10_2 C18_2 1_555 1_555
C19_2 H11_2 1_555 1_555
C20_2 C16_2 1_555 1_555
H12_2 C20_2 1_555 1_555
C22_2 C21_2 1_555 1_555
C23_2 C22_2 1_555 1_555
C24_2 C23_2 1_555 1_555
H15_2 C24_2 1_555 1_555
C25_2 C24_2 1_555 1_555
H16_2 C25_2 1_555 1_555
N1_2 C11_2 1_555 1_555
N2_2 C21_2 1_555 1_555
N7_2 C18_2 1_555 1_555
O1_2 C1_2 1_555 1_555
O3_2 C2_2 1_555 1_555
O21 C9_2 1_555 1_555
O5_2 C9_2 1_555 1_555
O7_2 C10_2 1_555 1_555
Ni5_2 O7_2 1_555 1_555
C3_2 O3_2 1_555 1_555
C7_2 C8_2 1_555 1_555
C15_2 N1_2 1_555 1_555
C19_2 C20_2 1_555 1_555
C19_2 N7_2 1_555 1_555
C25_2 N2_2 1_555 1_555
C2_2 H45_2 1_555 1_555
O18_2 H39_2 1_555 1_555
H40_2 O18_2 1_555 1_555
O19_2 H41_2 1_555 1_555
H42_2 O19_2 1_555 1_555
O23_3 Ni5_3 1_555 1_555
O18_2 Ni8 1_555 1_555
O19_2 Ni8 1_555 1_555
O10_3 H21_3 1_555 1_555
H22_3 O10_3 1_555 1_555
C27_2 C26_2 1_555 1_555
C29_2 C28_2 1_555 1_555
H25_2 C29_2 1_555 1_555
C30_2 C29_2 1_555 1_555
H26_2 C30_2 1_555 1_555
N4_2 C26_2 1_555 1_555
C31_2 C32_2 1_555 1_555
C32_2 H27_2 1_555 1_555
C33_2 C34_2 1_555 1_555
C34_2 H28_2 1_555 1_555
C35_2 C34_2 1_555 1_555
C36_2 C35_2 1_555 1_555
H29_2 C36_2 1_555 1_555
C37_2 C36_2 1_555 1_555
C38_2 C33_2 1_555 1_555
H30_2 C38_2 1_555 1_555
C39_2 C35_2 1_555 1_555
C40_2 C37_2 1_555 1_555
C41_2 H31_2 1_555 1_555
C42_2 C41_2 1_555 1_555
H32_2 C42_2 1_555 1_555
C43_2 C42_2 1_555 1_555
C44_2 C43_2 1_555 1_555
H33_2 C44_2 1_555 1_555
C45_2 C44_2 1_555 1_555
H34_2 C45_2 1_555 1_555
C46_2 C43_2 1_555 1_555
C47_2 C46_2 1_555 1_555
H35_2 C47_2 1_555 1_555
C48_2 C47_2 1_555 1_555
H36_2 C48_2 1_555 1_555
C49_2 H37_2 1_555 1_555
C50_2 C46_2 1_555 1_555
H38_2 C50_2 1_555 1_555
N5_2 C41_2 1_555 1_555
N7 C48_2 1_555 1_555
O11_2 C31_2 1_555 1_555
O13_2 C32_2 1_555 1_555
O22 C39_2 1_555 1_555
O15_2 C39_2 1_555 1_555
O17_2 C40_2 1_555 1_555
N8_3 Ni5_4 1_555 1_555
Ni6_7 O17_2 1_555 1_555
O10_3 Ni5_4 1_555 1_555
C27_2 C28_2 1_555 1_555
C30_2 N4_2 1_555 1_555
C33_2 O13_2 1_555 1_555
C37_2 C38_2 1_555 1_555
C45_2 N5_2 1_555 1_555
C49_2 C50_2 1_555 1_555
C49_2 N7 1_555 1_555
C32_2 H46_2 1_555 1_555
O23_4 Ni6_2 1_555 1_555
O10_4 H21_4 1_555 1_555
H22_4 O10_4 1_555 1_555
O10_4 Ni6_3 1_555 1_555
N8_4 Ni6_4 1_555 1_555
O20_4 Ni6_6 1_555 1_555
H43_4 O20_4 1_555 1_555
H44_4 O20_4 1_555 1_555
H35_3 C47_3 1_555 1_555
C48_3 C47_3 1_555 1_555
H36_3 C48_3 1_555 1_555
C1_3 C2_3 1_555 1_555
C2_3 H1_3 1_555 1_555
C3_3 C4_3 1_555 1_555
C4_3 H2_3 1_555 1_555
C5_3 C4_3 1_555 1_555
C6_3 C5_3 1_555 1_555
H3_3 C6_3 1_555 1_555
C7_3 C6_3 1_555 1_555
C8_3 C3_3 1_555 1_555
H4_3 C8_3 1_555 1_555
C9_3 C5_3 1_555 1_555
C10_3 C7_3 1_555 1_555
C11_3 H5_3 1_555 1_555
C12_3 C11_3 1_555 1_555
H6_3 C12_3 1_555 1_555
C13_3 C12_3 1_555 1_555
C14_3 C13_3 1_555 1_555
H7_3 C14_3 1_555 1_555
C15_3 C14_3 1_555 1_555
H8_3 C15_3 1_555 1_555
C16_3 C13_3 1_555 1_555
C19_3 H11_3 1_555 1_555
C20_3 C16_3 1_555 1_555
H12_3 C20_3 1_555 1_555
C21_3 H13_3 1_555 1_555
C22_3 C21_3 1_555 1_555
H14_3 C22_3 1_555 1_555
C23_3 C22_3 1_555 1_555
C24_3 C23_3 1_555 1_555
H15_3 C24_3 1_555 1_555
C25_3 C24_3 1_555 1_555
H16_3 C25_3 1_555 1_555
N1_3 C11_3 1_555 1_555
N2_3 C21_3 1_555 1_555
O1_3 C1_3 1_555 1_555
O2_3 C1_3 1_555 1_555
O3_3 C2_3 1_555 1_555
O4_2 C9_3 1_555 1_555
O5_3 C9_3 1_555 1_555
O6_3 C10_3 1_555 1_555
O23 C10_3 1_555 1_555
O8_3 H17_3 1_555 1_555
H18_3 O8_3 1_555 1_555
O9_3 H19_3 1_555 1_555
H20_3 O9_3 1_555 1_555
Ni2_2 N1_3 1_555 1_555
C26_3 H23_3 1_555 1_555
C27_3 C26_3 1_555 1_555
H24_3 C27_3 1_555 1_555
C28_3 C23_3 1_555 1_555
C29_3 C28_3 1_555 1_555
H25_3 C29_3 1_555 1_555
C30_3 C29_3 1_555 1_555
H26_3 C30_3 1_555 1_555
N4_3 C26_3 1_555 1_555
C31_3 C32_3 1_555 1_555
C32_3 H27_3 1_555 1_555
C33_3 C34_3 1_555 1_555
C34_3 H28_3 1_555 1_555
C35_3 C34_3 1_555 1_555
C36_3 C35_3 1_555 1_555
H29_3 C36_3 1_555 1_555
C37_3 C36_3 1_555 1_555
C38_3 C33_3 1_555 1_555
H30_3 C38_3 1_555 1_555
C39_3 C35_3 1_555 1_555
C40_3 C37_3 1_555 1_555
C41_3 H31_3 1_555 1_555
C42_3 C41_3 1_555 1_555
H32_3 C42_3 1_555 1_555
C43_3 C42_3 1_555 1_555
C44_3 C43_3 1_555 1_555
H33_3 C44_3 1_555 1_555
C45_3 C44_3 1_555 1_555
H34_3 C45_3 1_555 1_555
C46_3 C43_3 1_555 1_555
C49_3 H37_3 1_555 1_555
C50_3 C46_3 1_555 1_555
H38_3 C50_3 1_555 1_555
N5_3 C41_3 1_555 1_555
O11_3 C31_3 1_555 1_555
O12_3 C31_3 1_555 1_555
O13_3 C32_3 1_555 1_555
O14_2 C39_3 1_555 1_555
O15_3 C39_3 1_555 1_555
O16_3 C40_3 1_555 1_555
O23_2 C40_3 1_555 1_555
O18_3 H39_3 1_555 1_555
H40_3 O18_3 1_555 1_555
O19_3 H41_3 1_555 1_555
H42_3 O19_3 1_555 1_555
Ni3_2 N4_3 1_555 1_555
O21_2 Ni3_2 1_555 1_555
O22_2 Ni2_2 1_555 1_555
Ni7_2 O14_2 1_555 1_555
Ni8_2 O4_2 1_555 1_555
C3_3 O3_3 1_555 1_555
C7_3 C8_3 1_555 1_555
C15_3 N1_3 1_555 1_555
C19_3 C20_3 1_555 1_555
C19_3 N8_4 1_555 1_555
C25_3 N2_3 1_555 1_555
N2_3 Ni2_2 1_555 1_555
O1_3 Ni2_2 1_555 1_555
O8_3 Ni2_2 1_555 1_555
O9_3 Ni2_2 1_555 1_555
C27_3 C28_3 1_555 1_555
C30_3 N4_3 1_555 1_555
C33_3 O13_3 1_555 1_555
C37_3 C38_3 1_555 1_555
C45_3 N5_3 1_555 1_555
C49_3 C50_3 1_555 1_555
C49_3 N8_3 1_555 1_555
N5_3 Ni3_2 1_555 1_555
O11_3 Ni3_2 1_555 1_555
O18_3 Ni3_2 1_555 1_555
O19_3 Ni3_2 1_555 1_555
C2_3 H45_3 1_555 1_555
C32_3 H46_3 1_555 1_555
H9_3 C17_3 1_555 1_555
C18_3 C17_3 1_555 1_555
H10_3 C18_3 1_555 1_555
C27_4 C26_4 1_555 1_555
C29_4 C28_4 1_555 1_555
H25_4 C29_4 1_555 1_555
C30_4 C29_4 1_555 1_555
H26_4 C30_4 1_555 1_555
N4_4 C26_4 1_555 1_555
C31_4 C32_4 1_555 1_555
C32_4 H27_4 1_555 1_555
C33_4 C34_4 1_555 1_555
C34_4 H28_4 1_555 1_555
C35_4 C34_4 1_555 1_555
C36_4 C35_4 1_555 1_555
H29_4 C36_4 1_555 1_555
C37_4 C36_4 1_555 1_555
C38_4 C33_4 1_555 1_555
H30_4 C38_4 1_555 1_555
C39_4 C35_4 1_555 1_555
C40_4 C37_4 1_555 1_555
C41_4 H31_4 1_555 1_555
C42_4 C41_4 1_555 1_555
H32_4 C42_4 1_555 1_555
C43_4 C42_4 1_555 1_555
C44_4 C43_4 1_555 1_555
H33_4 C44_4 1_555 1_555
C45_4 C44_4 1_555 1_555
H34_4 C45_4 1_555 1_555
C46_4 C43_4 1_555 1_555
C47_4 C46_4 1_555 1_555
H35_4 C47_4 1_555 1_555
C48_4 C47_4 1_555 1_555
H36_4 C48_4 1_555 1_555
C49_4 H37_4 1_555 1_555
C50_4 C46_4 1_555 1_555
H38_4 C50_4 1_555 1_555
N5_4 C41_4 1_555 1_555
N8 C48_4 1_555 1_555
O11_4 C31_4 1_555 1_555
O13_4 C32_4 1_555 1_555
O22_2 C39_4 1_555 1_555
O15_4 C39_4 1_555 1_555
O23_4 C40_4 1_555 1_555
C27_4 C28_4 1_555 1_555
C30_4 N4_4 1_555 1_555
C33_4 O13_4 1_555 1_555
C37_4 C38_4 1_555 1_555
C45_4 N5_4 1_555 1_555
C49_4 C50_4 1_555 1_555
C49_4 N8 1_555 1_555
C32_4 H46_4 1_555 1_555
O18_4 H39_4 1_555 1_555
H40_4 O18_4 1_555 1_555
O19_4 H41_4 1_555 1_555
H42_4 O19_4 1_555 1_555
O18_4 Ni8_2 1_555 1_555
O19_4 Ni8_2 1_555 1_555
C1_4 C2_4 1_555 1_555
C2_4 H1_4 1_555 1_555
C3_4 C4_4 1_555 1_555
C4_4 H2_4 1_555 1_555
C5_4 C4_4 1_555 1_555
C6_4 C5_4 1_555 1_555
H3_4 C6_4 1_555 1_555
C7_4 C6_4 1_555 1_555
C8_4 C3_4 1_555 1_555
H4_4 C8_4 1_555 1_555
C9_4 C5_4 1_555 1_555
C10_4 C7_4 1_555 1_555
C11_4 H5_4 1_555 1_555
C12_4 C11_4 1_555 1_555
H6_4 C12_4 1_555 1_555
C13_4 C12_4 1_555 1_555
C14_4 C13_4 1_555 1_555
H7_4 C14_4 1_555 1_555
C15_4 C14_4 1_555 1_555
H8_4 C15_4 1_555 1_555
C16_4 C13_4 1_555 1_555
C17_4 C16_4 1_555 1_555
H9_4 C17_4 1_555 1_555
C18_4 C17_4 1_555 1_555
H10_4 C18_4 1_555 1_555
C19_4 H11_4 1_555 1_555
C20_4 C16_4 1_555 1_555
H12_4 C20_4 1_555 1_555
C22_4 C21_4 1_555 1_555
C23_4 C22_4 1_555 1_555
C24_4 C23_4 1_555 1_555
H15_4 C24_4 1_555 1_555
C25_4 C24_4 1_555 1_555
H16_4 C25_4 1_555 1_555
N1_4 C11_4 1_555 1_555
N2_4 C21_4 1_555 1_555
N8_2 C18_4 1_555 1_555
O1_4 C1_4 1_555 1_555
O3_4 C2_4 1_555 1_555
O21_2 C9_4 1_555 1_555
O5_4 C9_4 1_555 1_555
O23_3 C10_4 1_555 1_555
C3_4 O3_4 1_555 1_555
C7_4 C8_4 1_555 1_555
C15_4 N1_4 1_555 1_555
C19_4 C20_4 1_555 1_555
C19_4 N8_2 1_555 1_555
C25_4 N2_4 1_555 1_555
C2_4 H45_4 1_555 1_555
O8_4 H17_4 1_555 1_555
H18_4 O8_4 1_555 1_555
O9_4 H19_4 1_555 1_555
H20_4 O9_4 1_555 1_555
O8_4 Ni7_2 1_555 1_555
O9_4 Ni7_2 1_555 1_555

#END
