
###############################################################################
#
# This file contains modified crystal structure data generated from the
# MOF subset of the Cambridge Structural Database (CSD) v543 
# hosted by the Cambridge Crystallographic Data Centre (CCDC).
#
# This work is licensed under the Creative Commons
# Attribution-NonCommercial-ShareAlike 4.0 International License.
# To view a copy of this license, visit
# http://creativecommons.org/licenses/by-nc-sa/4.0/
# or send a letter to
# Creative Commons, PO Box 1866, Mountain View, CA 94042, USA.
#
# CIF created using the CSD Python API on 29 September 2022
# The structure has been converted into the P1 space group
# The structure has a 3D framework
# The original CSD entry AVUCEA is in the rhombohedral crystal system
# The framework has been calculated to contain at least 10.0% void space
# The void calculation uses a probe of radius 1.32A, grid spacing 0.4
# H atom positions have been added when not included in the experimental data
#
###############################################################################

data_AVUCEA
_chemical_formula_moiety         '(C504 H594 Co36 N18 O252)n'
_symmetry_cell_setting           triclinic
_symmetry_space_group_name_H-M   'P 1'
_symmetry_Int_Tables_number      1
_space_group_name_Hall           'P 1'
loop_
_symmetry_equiv_pos_site_id
_symmetry_equiv_pos_as_xyz
1 x,y,z
_cell_length_a                   32.8195(15)
_cell_length_b                   32.8195(15)
_cell_length_c                   19.0793(11)
_cell_angle_alpha                90
_cell_angle_beta                 90
_cell_angle_gamma                120
_cell_volume                     17797.4
loop_
_atom_site_label
_atom_site_type_symbol
_atom_site_fract_x
_atom_site_fract_y
_atom_site_fract_z
Co1 Co 0.518476(19) 0.048720(19) 0.19288(3)
O1 O 0.51989(12) 0.07242(11) 0.09391(15)
O2 O 0.5441(3) 0.14782(18) 0.1113(2)
O7 O 0.58291(10) 0.05366(12) 0.19872(15)
O8 O 0.58650(9) 0.02792(11) 0.30629(14)
O9 O 0.79429(10) 0.13876(11) 0.10284(14)
O10 O 0.72730(10) 0.12047(11) 0.05309(14)
O11 O 0.54842(17) 0.11914(13) 0.23245(19)
C7 C 0.5320(2) 0.11314(17) 0.0734(2)
C10 C 0.65729(13) 0.07728(14) 0.2481(2)
C11 C 0.67923(14) 0.09110(15) 0.1829(2)
C12 C 0.72810(14) 0.11330(14) 0.1777(2)
C13 C 0.75514(14) 0.12596(15) 0.2386(2)
C14 C 0.73350(13) 0.11440(14) 0.3041(2)
C15 C 0.68436(13) 0.08820(14) 0.30797(19)
C16 C 0.60425(14) 0.05087(14) 0.25166(19)
C17 C 0.75101(14) 0.12488(14) 0.10747(19)
C20 C 0.5881(5) 0.1455(4) 0.2723(8)
H6 H 0.6156 0.1533 0.2441
H7 H 0.5879 0.1266 0.3115
C21 C 0.5917(10) 0.1883(8) 0.2986(16)
H8 H 0.6083 0.2132 0.2653
H9 H 0.6086 0.1966 0.3423
H10 H 0.5608 0.1838 0.3059
H13 H 0.558(2) 0.191(2) 0.005(4)
H14 H 0.6609(16) 0.0847(16) 0.142(3)
H15 H 0.7883(15) 0.1428(14) 0.235(2)
H16 H 0.6697(15) 0.0798(15) 0.353(2)
C22 C 0.76162(14) 0.13270(15) 0.3698(2)
O13 O 0.74264(11) 0.11965(13) 0.42803(15)
O14 O 0.80436(9) 0.16559(11) 0.36552(14)
Co4 Co 0.803089(27) 0.185143(19) 0.47379(3)
Co7 Co 0.872413(25) 0.184047(17) 0.34092(2)
O19 O 0.45298(13) 0.04368(17) 0.23864(15)
O20 O 0.49892(11) 0.02790(14) 0.30115(14)
Co2 Co 0.482620(17) 0.021700(18) 0.67425(2)
O3 O 0.51187(11) 0.01809(10) 0.84706(15)
O4 O 0.49325(12) 0.05620(11) 0.76660(14)
O5 O 0.5925(4) 0.25651(18) 0.9166(3)
O6 O 0.5705(2) 0.23037(16) 0.8091(2)
O12 O 0.55159(12) 0.07171(14) 0.64391(18)
C1 C 0.53270(17) 0.12075(16) 0.9955(2)
C2 C 0.51966(15) 0.08399(15) 0.9486(2)
C3 C 0.52099(14) 0.09190(14) 0.8767(2)
C4 C 0.53666(17) 0.13729(16) 0.8519(2)
C5 C 0.55174(19) 0.17495(16) 0.8981(2)
C6 C 0.5490(2) 0.16630(17) 0.9697(2)
C8 C 0.5732(2) 0.22474(18) 0.8727(3)
C9 C 0.50750(14) 0.05207(14) 0.8259(2)
C18 C 0.5920(2) 0.1057(3) 0.6836(4)
H1 H 0.5812 0.1156 0.7241
H2 H 0.6107 0.1332 0.6547
C19 C 0.6209(4) 0.0868(5) 0.7067(8)
H3 H 0.6442 0.0926 0.6717
H4 H 0.6361 0.1016 0.7499
H5 H 0.6016 0.0535 0.7139
H11 H 0.5089(16) 0.0515(17) 0.972(3)
H12 H 0.5389(18) 0.1418(18) 0.809(3)
Co6 Co 0.794253(25) 0.149287(17) 0.99242(2)
O17 O 0.47209(11) 0.01114(15) 0.56383(14)
O18 O 0.45380(11) 0.05984(15) 0.61358(14)
H32 H 0.602653 0.248564 0.789069
Co5 Co 0.517380(17) 0.978300(18) 0.32575(2)
O15 O 0.48813(11) 0.98191(10) 0.15294(15)
Co3 Co 0.481524(19) 0.951280(19) 0.80712(3)
O16 O 0.41350(9) 0.97208(11) 0.69371(14)
O21 O 0.50108(11) 0.97210(14) 0.69885(14)
Co5_2 Co 0.021700(18) 0.539080(25) 0.32575(2)
O15_2 O 0.01809(10) 0.50622(15) 0.15294(15)
Co3_2 Co 0.048720(19) 0.530244(27) 0.80712(3)
O16_2 O 0.02792(11) 0.44142(14) 0.69371(14)
O21_2 O 0.02790(14) 0.52897(18) 0.69885(14)
Co1_2 Co 0.951280(19) 0.469756(27) 0.19288(3)
O1_2 O 0.92758(11) 0.44747(16) 0.09391(15)
O2_2 O 0.85218(18) 0.39628(35) 0.1113(2)
O7_2 O 0.94634(12) 0.52925(16) 0.19872(15)
O8_2 O 0.97208(11) 0.55858(14) 0.30629(14)
O9_2 O 0.86124(11) 0.65553(15) 0.10284(14)
O10_2 O 0.87953(11) 0.60683(15) 0.05309(14)
O11_2 O 0.88086(13) 0.42928(21) 0.23245(19)
C7_2 C 0.88686(17) 0.41886(26) 0.0734(2)
C10_2 C 0.92272(14) 0.58001(19) 0.2481(2)
C11_2 C 0.90890(15) 0.58813(21) 0.1829(2)
C12_2 C 0.88670(14) 0.61480(20) 0.1777(2)
C13_2 C 0.87404(15) 0.62918(21) 0.2386(2)
C14_2 C 0.88560(14) 0.61910(19) 0.3041(2)
C15_2 C 0.91180(14) 0.59616(19) 0.30797(19)
C16_2 C 0.94913(14) 0.55338(20) 0.25166(19)
C17_2 C 0.87512(14) 0.62613(20) 0.10747(19)
C20_2 C 0.8545(4) 0.4426(6) 0.2723(8)
H6_2 H 0.8467 0.4623 0.2441
H7_2 H 0.8734 0.4613 0.3115
C21_2 C 0.8117(8) 0.4034(13) 0.2986(16)
H8_2 H 0.7868 0.3951 0.2653
H9_2 H 0.8034 0.4120 0.3423
H10_2 H 0.8162 0.3770 0.3059
H13_2 H 0.809(2) 0.367(3) 0.005(4)
H14_2 H 0.9153(16) 0.5762(23) 0.142(3)
H15_2 H 0.8572(14) 0.6455(21) 0.235(2)
H16_2 H 0.9202(15) 0.5899(21) 0.353(2)
C22_2 C 0.86730(15) 0.62892(21) 0.3698(2)
O13_2 O 0.88035(13) 0.62299(17) 0.42803(15)
O14_2 O 0.83441(11) 0.63877(14) 0.36552(14)
Co4_2 Co 0.814857(19) 0.617947(33) 0.47379(3)
Co7_2 Co 0.815953(17) 0.688367(30) 0.34092(2)
O19_2 O 0.95632(17) 0.40931(21) 0.23864(15)
O20_2 O 0.97210(14) 0.47103(18) 0.30115(14)
Co2_2 Co 0.978300(18) 0.460920(25) 0.67425(2)
O3_2 O 0.98191(10) 0.49378(15) 0.84706(15)
O4_2 O 0.94380(11) 0.43705(16) 0.76660(14)
O5_2 O 0.74349(18) 0.33599(44) 0.9166(3)
O6_2 O 0.76963(16) 0.34013(26) 0.8091(2)
O12_2 O 0.92829(14) 0.47988(18) 0.64391(18)
C1_2 C 0.87925(16) 0.41195(23) 0.9955(2)
C2_2 C 0.91601(15) 0.43567(21) 0.9486(2)
C3_2 C 0.90810(14) 0.42909(20) 0.8767(2)
C4_2 C 0.86271(16) 0.39937(23) 0.8519(2)
C5_2 C 0.82505(16) 0.37679(25) 0.8981(2)
C6_2 C 0.83370(17) 0.38270(26) 0.9697(2)
C8_2 C 0.77526(18) 0.34846(27) 0.8727(3)
C9_2 C 0.94793(14) 0.45543(20) 0.8259(2)
C18_2 C 0.8943(3) 0.4863(4) 0.6836(4)
H1_2 H 0.8844 0.4656 0.7241
H2_2 H 0.8668 0.4775 0.6547
C19_2 C 0.9132(5) 0.5341(6) 0.7067(8)
H3_2 H 0.9074 0.5516 0.6717
H4_2 H 0.8984 0.5345 0.7499
H5_2 H 0.9465 0.5481 0.7139
H11_2 H 0.9485(17) 0.4574(23) 0.972(3)
H12_2 H 0.8582(18) 0.3971(25) 0.809(3)
Co6_2 Co 0.850713(17) 0.644967(30) 0.99242(2)
O17_2 O 0.98886(15) 0.46096(19) 0.56383(14)
O18_2 O 0.94016(15) 0.39397(19) 0.61358(14)
H32_2 H 0.751436 0.354089 0.789069
Co1_3 Co 0.530244(27) 0.481524(19) 0.19288(3)
O1_3 O 0.55253(16) 0.48011(12) 0.09391(15)
O2_3 O 0.60372(35) 0.4559(3) 0.1113(2)
O7_3 O 0.47075(16) 0.41709(10) 0.19872(15)
O8_3 O 0.44142(14) 0.41350(9) 0.30629(14)
O9_3 O 0.34447(15) 0.20571(10) 0.10284(14)
O10_3 O 0.39317(15) 0.27270(10) 0.05309(14)
O11_3 O 0.57072(21) 0.45158(17) 0.23245(19)
C7_3 C 0.58114(26) 0.4680(2) 0.0734(2)
C10_3 C 0.41999(19) 0.34271(13) 0.2481(2)
C11_3 C 0.41187(21) 0.32077(14) 0.1829(2)
C12_3 C 0.38520(20) 0.27190(14) 0.1777(2)
C13_3 C 0.37082(21) 0.24486(14) 0.2386(2)
C14_3 C 0.38090(19) 0.26650(13) 0.3041(2)
C15_3 C 0.40384(19) 0.31564(13) 0.30797(19)
C16_3 C 0.44662(20) 0.39575(14) 0.25166(19)
C17_3 C 0.37387(20) 0.24899(14) 0.10747(19)
C20_3 C 0.5574(6) 0.4119(5) 0.2723(8)
H6_3 H 0.5377 0.3844 0.2441
H7_3 H 0.5387 0.4121 0.3115
C21_3 C 0.5966(13) 0.4083(10) 0.2986(16)
H8_3 H 0.6049 0.3917 0.2653
H9_3 H 0.5880 0.3914 0.3423
H10_3 H 0.6230 0.4392 0.3059
H13_3 H 0.633(3) 0.442(2) 0.005(4)
H14_3 H 0.4238(23) 0.3391(16) 0.142(3)
H15_3 H 0.3545(21) 0.2117(15) 0.235(2)
H16_3 H 0.4101(21) 0.3303(15) 0.353(2)
C22_3 C 0.37108(21) 0.23838(14) 0.3698(2)
O13_3 O 0.37701(17) 0.25736(11) 0.42803(15)
O14_3 O 0.36123(14) 0.19564(9) 0.36552(14)
Co4_3 Co 0.382053(33) 0.196911(27) 0.47379(3)
Co5_3 Co 0.460920(25) 0.482620(17) 0.32575(2)
Co7_3 Co 0.311633(30) 0.127587(25) 0.34092(2)
O15_3 O 0.49378(15) 0.51187(11) 0.15294(15)
O19_3 O 0.59069(21) 0.54702(13) 0.23864(15)
O20_3 O 0.52897(18) 0.50108(11) 0.30115(14)
Co2_3 Co 0.539080(25) 0.517380(17) 0.67425(2)
O3_3 O 0.50622(15) 0.48813(11) 0.84706(15)
O4_3 O 0.56295(16) 0.50675(12) 0.76660(14)
O5_3 O 0.66401(44) 0.4075(4) 0.9166(3)
O6_3 O 0.65987(26) 0.4295(2) 0.8091(2)
O12_3 O 0.52012(18) 0.44841(12) 0.64391(18)
C1_3 C 0.58805(23) 0.46730(17) 0.9955(2)
C2_3 C 0.56433(21) 0.48034(15) 0.9486(2)
C3_3 C 0.57091(20) 0.47901(14) 0.8767(2)
C4_3 C 0.60063(23) 0.46334(17) 0.8519(2)
C5_3 C 0.62321(25) 0.44826(19) 0.8981(2)
C6_3 C 0.61730(26) 0.4510(2) 0.9697(2)
C8_3 C 0.65154(27) 0.4268(2) 0.8727(3)
C9_3 C 0.54457(20) 0.49250(14) 0.8259(2)
C18_3 C 0.5137(4) 0.4080(2) 0.6836(4)
H1_3 H 0.5344 0.4188 0.7241
H2_3 H 0.5225 0.3893 0.6547
C19_3 C 0.4659(6) 0.3791(4) 0.7067(8)
H3_3 H 0.4484 0.3558 0.6717
H4_3 H 0.4655 0.3639 0.7499
H5_3 H 0.4519 0.3984 0.7139
H11_3 H 0.5426(23) 0.4911(16) 0.972(3)
H12_3 H 0.6029(25) 0.4611(18) 0.809(3)
Co3_3 Co 0.469756(27) 0.518476(19) 0.80712(3)
Co6_3 Co 0.355033(30) 0.205747(25) 0.99242(2)
O16_3 O 0.55858(14) 0.58650(9) 0.69371(14)
O17_3 O 0.53904(19) 0.52791(11) 0.56383(14)
O18_3 O 0.60603(19) 0.54620(11) 0.61358(14)
O21_3 O 0.47103(18) 0.49892(11) 0.69885(14)
H32_3 H 0.645911 0.397347 0.789069
Co1_4 Co 0.185143(19) 0.382053(19) 0.52621(3)
Co2_4 Co 0.149287(17) 0.355033(18) 0.00758(2)
O1_4 O 0.18656(12) 0.40575(11) 0.42724(15)
O2_4 O 0.2108(3) 0.48115(18) 0.4446(2)
O3_4 O 0.17854(11) 0.35142(10) 0.18039(15)
O4_4 O 0.15992(12) 0.38953(11) 0.09993(14)
O5_4 O 0.2592(4) 0.58984(18) 0.2499(3)
O6_4 O 0.2372(2) 0.56370(16) 0.1424(2)
O7_4 O 0.24958(10) 0.38699(12) 0.53205(15)
O8_4 O 0.25317(9) 0.36125(11) 0.63962(14)
O9_4 O 0.46096(10) 0.47209(11) 0.43617(14)
O10_4 O 0.39397(10) 0.45380(11) 0.38642(14)
O11_4 O 0.21509(17) 0.45247(13) 0.56578(19)
C1_4 C 0.19937(17) 0.45408(16) 0.3288(2)
C2_4 C 0.18633(15) 0.41732(15) 0.2819(2)
C3_4 C 0.18766(14) 0.42523(14) 0.2100(2)
C4_4 C 0.20333(17) 0.47062(16) 0.1852(2)
C5_4 C 0.21841(19) 0.50828(16) 0.2314(2)
C6_4 C 0.2157(2) 0.49963(17) 0.3030(2)
C7_4 C 0.1987(2) 0.44647(17) 0.4067(2)
C8_4 C 0.2399(2) 0.55807(18) 0.2060(3)
C9_4 C 0.17417(14) 0.38540(14) 0.1592(2)
C10_4 C 0.32396(13) 0.41061(14) 0.5814(2)
C11_4 C 0.34590(14) 0.42443(15) 0.5162(2)
C12_4 C 0.39477(14) 0.44663(14) 0.5110(2)
C13_4 C 0.42181(14) 0.45929(15) 0.5719(2)
C14_4 C 0.40017(13) 0.44773(14) 0.6374(2)
C15_4 C 0.35103(13) 0.42153(14) 0.64130(19)
C16_4 C 0.27092(14) 0.38420(14) 0.58499(19)
C17_4 C 0.41768(14) 0.45821(14) 0.44080(19)
C18_4 C 0.2587(2) 0.4390(3) 0.0169(4)
H1_4 H 0.2479 0.4489 0.0574
C19_4 C 0.2876(4) 0.4201(5) 0.0400(8)
H3_4 H 0.3109 0.4259 0.0050
H4_4 H 0.3028 0.4349 0.0832
H5_4 H 0.2683 0.3868 0.0472
C20_4 C 0.2548(5) 0.4788(4) 0.6056(8)
H6_4 H 0.2823 0.4866 0.5774
H7_4 H 0.2546 0.4599 0.6448
C21_4 C 0.2584(10) 0.5216(8) 0.6319(16)
H8_4 H 0.2750 0.5465 0.5986
H9_4 H 0.2753 0.5299 0.6756
H10_4 H 0.2275 0.5171 0.6392
H11_4 H 0.1756(16) 0.3848(17) 0.305(3)
H12_4 H 0.2056(18) 0.4751(18) 0.142(3)
H13_4 H 0.225(2) 0.524(2) 0.338(4)
H14_4 H 0.3276(16) 0.4180(16) 0.475(3)
H15_4 H 0.4550(15) 0.4761(14) 0.568(2)
H16_4 H 0.3364(15) 0.4131(15) 0.686(2)
C22_4 C 0.42829(14) 0.46603(15) 0.7031(2)
O13_4 O 0.40931(11) 0.45298(13) 0.76136(15)
Co3_4 Co 0.148191(19) 0.284613(19) 0.14045(3)
Co5_4 Co 0.184047(17) 0.311633(18) 0.65908(2)
O15_4 O 0.15480(11) 0.31524(10) 0.48627(15)
O16_4 O 0.08017(9) 0.30541(11) 0.02704(14)
O19_4 O 0.11965(13) 0.37701(17) 0.57197(15)
O20_4 O 0.16559(11) 0.36123(14) 0.63448(14)
O21_4 O 0.16774(11) 0.30544(14) 0.03219(14)
H32_4 H 0.26932 0.581897 0.122403
O12_4 O 0.21826(12) 0.40504(14) 0.97724(18)
H2_4 H 0.2774 0.4665 0.9880
O17_4 O 0.13876(11) 0.34447(15) 0.89716(14)
O18_4 O 0.12047(11) 0.39317(15) 0.94691(14)
Co1_5 Co 0.617947(19) 0.803089(27) 0.52621(3)
Co2_5 Co 0.644967(18) 0.794253(25) 0.00758(2)
O1_5 O 0.59425(11) 0.78080(16) 0.42724(15)
O2_5 O 0.51885(18) 0.72961(35) 0.4446(2)
O3_5 O 0.64858(10) 0.82711(15) 0.18039(15)
O4_5 O 0.61047(11) 0.77038(16) 0.09993(14)
O5_5 O 0.41016(18) 0.66932(44) 0.2499(3)
O6_5 O 0.43630(16) 0.67346(26) 0.1424(2)
O7_5 O 0.61301(12) 0.86258(16) 0.53205(15)
O8_5 O 0.63875(11) 0.89191(14) 0.63962(14)
O9_5 O 0.52791(11) 0.98886(15) 0.43617(14)
O10_5 O 0.54620(11) 0.94016(15) 0.38642(14)
O11_5 O 0.54753(13) 0.76261(21) 0.56578(19)
C1_5 C 0.54592(16) 0.74528(23) 0.3288(2)
C2_5 C 0.58268(15) 0.76900(21) 0.2819(2)
C3_5 C 0.57477(14) 0.76242(20) 0.2100(2)
C4_5 C 0.52938(16) 0.73270(23) 0.1852(2)
C5_5 C 0.49172(16) 0.71012(25) 0.2314(2)
C6_5 C 0.50037(17) 0.71603(26) 0.3030(2)
C7_5 C 0.55353(17) 0.75219(26) 0.4067(2)
C8_5 C 0.44193(18) 0.68179(27) 0.2060(3)
C9_5 C 0.61460(14) 0.78876(20) 0.1592(2)
C10_5 C 0.58939(14) 0.91334(19) 0.5814(2)
C11_5 C 0.57557(15) 0.92146(21) 0.5162(2)
C12_5 C 0.55337(14) 0.94813(20) 0.5110(2)
C13_5 C 0.54071(15) 0.96251(21) 0.5719(2)
C14_5 C 0.55227(14) 0.95243(19) 0.6374(2)
C15_5 C 0.57847(14) 0.92949(19) 0.64130(19)
C16_5 C 0.61580(14) 0.88671(20) 0.58499(19)
C17_5 C 0.54179(14) 0.95946(20) 0.44080(19)
C18_5 C 0.5610(3) 0.8196(4) 0.0169(4)
H1_5 H 0.5511 0.7989 0.0574
C19_5 C 0.5799(5) 0.8674(6) 0.0400(8)
H3_5 H 0.5741 0.8849 0.0050
H4_5 H 0.5651 0.8678 0.0832
H5_5 H 0.6132 0.8814 0.0472
C20_5 C 0.5212(4) 0.7759(6) 0.6056(8)
H6_5 H 0.5134 0.7956 0.5774
H7_5 H 0.5401 0.7946 0.6448
C21_5 C 0.4784(8) 0.7367(13) 0.6319(16)
H8_5 H 0.4535 0.7284 0.5986
H9_5 H 0.4701 0.7453 0.6756
H10_5 H 0.4829 0.7103 0.6392
H11_5 H 0.6152(17) 0.7907(23) 0.305(3)
H12_5 H 0.5249(18) 0.7304(25) 0.142(3)
H13_5 H 0.476(2) 0.700(3) 0.338(4)
H14_5 H 0.5820(16) 0.9095(23) 0.475(3)
H15_5 H 0.5239(14) 0.9788(21) 0.568(2)
H16_5 H 0.5869(15) 0.9232(21) 0.686(2)
C22_5 C 0.53397(15) 0.96225(21) 0.7031(2)
O13_5 O 0.54702(13) 0.95632(17) 0.76136(15)
Co3_5 Co 0.715387(19) 0.863577(27) 0.14045(3)
Co5_5 Co 0.688367(18) 0.872413(25) 0.65908(2)
O15_5 O 0.68476(10) 0.83955(15) 0.48627(15)
O16_5 O 0.69459(11) 0.77475(14) 0.02704(14)
O19_5 O 0.62299(17) 0.74264(21) 0.57197(15)
O20_5 O 0.63877(14) 0.80436(18) 0.63448(14)
O21_5 O 0.69456(14) 0.86231(18) 0.03219(14)
H32_5 H 0.418103 0.687422 0.122403
O12_5 O 0.59496(14) 0.81321(18) 0.97724(18)
H2_5 H 0.5335 0.8108 0.9880
O17_5 O 0.65553(15) 0.79429(19) 0.89716(14)
O18_5 O 0.60683(15) 0.72730(19) 0.94691(14)
Co1_6 Co 0.196911(27) 0.814857(19) 0.52621(3)
Co2_6 Co 0.205747(25) 0.850713(17) 0.00758(2)
O1_6 O 0.21920(16) 0.81344(12) 0.42724(15)
O2_6 O 0.27039(35) 0.7892(3) 0.4446(2)
O3_6 O 0.17289(15) 0.82146(11) 0.18039(15)
O4_6 O 0.22962(16) 0.84008(12) 0.09993(14)
O5_6 O 0.33068(44) 0.7408(4) 0.2499(3)
O6_6 O 0.32654(26) 0.7628(2) 0.1424(2)
O7_6 O 0.13742(16) 0.75042(10) 0.53205(15)
O8_6 O 0.10809(14) 0.74683(9) 0.63962(14)
O9_6 O 0.01114(15) 0.53904(10) 0.43617(14)
O10_6 O 0.05984(15) 0.60603(10) 0.38642(14)
O11_6 O 0.23739(21) 0.78491(17) 0.56578(19)
C1_6 C 0.25472(23) 0.80063(17) 0.3288(2)
C2_6 C 0.23100(21) 0.81367(15) 0.2819(2)
C3_6 C 0.23758(20) 0.81234(14) 0.2100(2)
C4_6 C 0.26730(23) 0.79667(17) 0.1852(2)
C5_6 C 0.28988(25) 0.78159(19) 0.2314(2)
C6_6 C 0.28397(26) 0.7843(2) 0.3030(2)
C7_6 C 0.24781(26) 0.8013(2) 0.4067(2)
C8_6 C 0.31821(27) 0.7601(2) 0.2060(3)
C9_6 C 0.21124(20) 0.82583(14) 0.1592(2)
C10_6 C 0.08666(19) 0.67604(13) 0.5814(2)
C11_6 C 0.07854(21) 0.65410(14) 0.5162(2)
C12_6 C 0.05187(20) 0.60523(14) 0.5110(2)
C13_6 C 0.03749(21) 0.57819(14) 0.5719(2)
C14_6 C 0.04757(19) 0.59983(13) 0.6374(2)
C15_6 C 0.07051(19) 0.64897(13) 0.64130(19)
C16_6 C 0.11329(20) 0.72908(14) 0.58499(19)
C17_6 C 0.04054(20) 0.58232(14) 0.44080(19)
C18_6 C 0.1804(4) 0.7413(2) 0.0169(4)
H1_6 H 0.2011 0.7521 0.0574
C19_6 C 0.1326(6) 0.7124(4) 0.0400(8)
H3_6 H 0.1151 0.6891 0.0050
H4_6 H 0.1322 0.6972 0.0832
H5_6 H 0.1186 0.7317 0.0472
C20_6 C 0.2241(6) 0.7452(5) 0.6056(8)
H6_6 H 0.2044 0.7177 0.5774
H7_6 H 0.2054 0.7454 0.6448
C21_6 C 0.2633(13) 0.7416(10) 0.6319(16)
H8_6 H 0.2716 0.7250 0.5986
H9_6 H 0.2547 0.7247 0.6756
H10_6 H 0.2897 0.7725 0.6392
H11_6 H 0.2093(23) 0.8244(16) 0.305(3)
H12_6 H 0.2696(25) 0.7944(18) 0.142(3)
H13_6 H 0.300(3) 0.775(2) 0.338(4)
H14_6 H 0.0905(23) 0.6724(16) 0.475(3)
H15_6 H 0.0212(21) 0.5450(15) 0.568(2)
H16_6 H 0.0768(21) 0.6636(15) 0.686(2)
C22_6 C 0.03775(21) 0.57171(14) 0.7031(2)
O13_6 O 0.04368(17) 0.59069(11) 0.76136(15)
Co3_6 Co 0.136423(27) 0.851809(19) 0.14045(3)
Co5_6 Co 0.127587(25) 0.815953(17) 0.65908(2)
O15_6 O 0.16045(15) 0.84520(11) 0.48627(15)
O16_6 O 0.22525(14) 0.91983(9) 0.02704(14)
O19_6 O 0.25736(21) 0.88035(13) 0.57197(15)
O20_6 O 0.19564(18) 0.83441(11) 0.63448(14)
O21_6 O 0.13769(18) 0.83226(11) 0.03219(14)
H32_6 H 0.312578 0.73068 0.122403
O12_6 O 0.18679(18) 0.78174(12) 0.97724(18)
H2_6 H 0.1892 0.7226 0.9880
O17_6 O 0.20571(19) 0.86124(11) 0.89716(14)
O18_6 O 0.27270(19) 0.87953(11) 0.94691(14)
H16_7 H 0.0030(15) 0.7465(15) 0.020(2)
C22_7 C 0.09495(14) 0.79937(15) 0.0365(2)
O13_7 O 0.07597(11) 0.78632(13) 0.09470(15)
O9_7 O 0.12762(10) 0.80543(11) 0.76951(14)
O10_7 O 0.06063(10) 0.78714(11) 0.71976(14)
C11_7 C 0.01256(14) 0.75777(15) 0.8496(2)
C12_7 C 0.06143(14) 0.77997(14) 0.8444(2)
C13_7 C 0.08847(14) 0.79263(15) 0.9053(2)
C14_7 C 0.06683(13) 0.78107(14) 0.9708(2)
C15_7 C 0.01769(13) 0.75487(14) 0.97464(19)
C17_7 C 0.08434(14) 0.79155(14) 0.77414(19)
H15_7 H 0.1216(15) 0.8095(14) 0.902(2)
Co1_7 Co 0.851809(19) 0.715387(19) 0.85955(3)
O1_7 O 0.85322(12) 0.73909(11) 0.76058(15)
O2_7 O 0.8774(3) 0.81449(18) 0.7780(2)
O3_7 O 0.84520(11) 0.68476(10) 0.51373(15)
O4_7 O 0.82658(12) 0.72287(11) 0.43327(14)
O5_7 O 0.9258(4) 0.92318(18) 0.5833(3)
O6_7 O 0.9038(2) 0.89704(16) 0.4758(2)
O7_7 O 0.91624(10) 0.72033(12) 0.86539(15)
O8_7 O 0.91983(9) 0.69459(11) 0.97296(14)
O11_7 O 0.88175(17) 0.78581(13) 0.89912(19)
O12_7 O 0.88492(12) 0.73838(14) 0.31058(18)
C1_7 C 0.86603(17) 0.78742(16) 0.6622(2)
C2_7 C 0.85299(15) 0.75066(15) 0.6153(2)
C3_7 C 0.85432(14) 0.75857(14) 0.5434(2)
C4_7 C 0.86999(17) 0.80396(16) 0.5186(2)
C5_7 C 0.88507(19) 0.84162(16) 0.5648(2)
C6_7 C 0.8823(2) 0.83297(17) 0.6364(2)
C7_7 C 0.8653(2) 0.77981(17) 0.7401(2)
C8_7 C 0.9065(2) 0.89141(18) 0.5394(3)
C9_7 C 0.84083(14) 0.71874(14) 0.4926(2)
C10_7 C 0.99062(13) 0.74395(14) 0.9148(2)
C16_7 C 0.93758(14) 0.71754(14) 0.91833(19)
C18_7 C 0.9253(2) 0.7724(3) 0.3503(4)
H1_7 H 0.9145 0.7823 0.3908
H2_7 H 0.9440 0.7999 0.3214
C19_7 C 0.9542(4) 0.7535(5) 0.3734(8)
H3_7 H 0.9775 0.7593 0.3384
H4_7 H 0.9694 0.7683 0.4166
H5_7 H 0.9349 0.7202 0.3806
C20_7 C 0.9214(5) 0.8122(4) 0.9390(8)
H6_7 H 0.9489 0.8200 0.9108
H7_7 H 0.9212 0.7933 0.9782
C21_7 C 0.9250(10) 0.8550(8) 0.9653(16)
H8_7 H 0.9416 0.8799 0.9320
H10_7 H 0.8941 0.8505 0.9726
H11_7 H 0.8422(16) 0.7182(17) 0.639(3)
H12_7 H 0.8722(18) 0.8085(18) 0.476(3)
H13_7 H 0.891(2) 0.858(2) 0.672(4)
H14_7 H 0.9942(16) 0.7514(16) 0.809(3)
O15_7 O 0.82146(11) 0.64858(10) 0.81961(15)
O16_7 O 0.74683(9) 0.63875(11) 0.36038(14)
O17_7 O 0.80543(11) 0.67780(15) 0.23049(14)
O18_7 O 0.78714(11) 0.72650(15) 0.28024(14)
O19_7 O 0.78632(13) 0.71034(17) 0.90530(15)
O20_7 O 0.83226(11) 0.69456(14) 0.96781(14)
H32_7 H 0.935986 0.915231 0.455736
H9_7 H 0.1367 0.0787 0.0090
H16_8 H 0.2535(15) 0.2566(21) 0.020(2)
C22_8 C 0.20063(15) 0.29559(21) 0.0365(2)
O13_8 O 0.21368(13) 0.28966(17) 0.09470(15)
Co1_8 Co 0.284613(19) 0.136423(27) 0.85955(3)
O1_8 O 0.26091(11) 0.11414(16) 0.76058(15)
O2_8 O 0.18551(18) 0.06295(35) 0.7780(2)
O3_8 O 0.31524(10) 0.16045(15) 0.51373(15)
O4_8 O 0.27713(11) 0.10372(16) 0.43327(14)
O5_8 O 0.07682(18) 0.00266(44) 0.5833(3)
O6_8 O 0.10296(16) 0.00680(26) 0.4758(2)
O7_8 O 0.27967(12) 0.19592(16) 0.86539(15)
O8_8 O 0.30541(11) 0.22525(14) 0.97296(14)
O9_8 O 0.19457(11) 0.32220(15) 0.76951(14)
O10_8 O 0.21286(11) 0.27350(15) 0.71976(14)
O11_8 O 0.21419(13) 0.09595(21) 0.89912(19)
O12_8 O 0.26162(14) 0.14655(18) 0.31058(18)
C1_8 C 0.21258(16) 0.07862(23) 0.6622(2)
C2_8 C 0.24934(15) 0.10234(21) 0.6153(2)
C3_8 C 0.24143(14) 0.09576(20) 0.5434(2)
C4_8 C 0.19604(16) 0.06604(23) 0.5186(2)
C5_8 C 0.15838(16) 0.04346(25) 0.5648(2)
C6_8 C 0.16703(17) 0.04937(26) 0.6364(2)
C7_8 C 0.22019(17) 0.08553(26) 0.7401(2)
C8_8 C 0.10859(18) 0.01513(27) 0.5394(3)
C9_8 C 0.28126(14) 0.12210(20) 0.4926(2)
C10_8 C 0.25605(14) 0.24668(19) 0.9148(2)
C11_8 C 0.24223(15) 0.25480(21) 0.8496(2)
C12_8 C 0.22003(14) 0.28147(20) 0.8444(2)
C13_8 C 0.20737(15) 0.29585(21) 0.9053(2)
C14_8 C 0.21893(14) 0.28577(19) 0.9708(2)
C15_8 C 0.24513(14) 0.26283(19) 0.97464(19)
C16_8 C 0.28246(14) 0.22005(20) 0.91833(19)
C17_8 C 0.20845(14) 0.29280(20) 0.77414(19)
C18_8 C 0.2276(3) 0.1530(4) 0.3503(4)
H1_8 H 0.2177 0.1323 0.3908
H2_8 H 0.2001 0.1442 0.3214
C19_8 C 0.2465(5) 0.2008(6) 0.3734(8)
H3_8 H 0.2407 0.2183 0.3384
H4_8 H 0.2317 0.2012 0.4166
H5_8 H 0.2798 0.2148 0.3806
C20_8 C 0.1878(4) 0.1093(6) 0.9390(8)
H6_8 H 0.1800 0.1290 0.9108
H7_8 H 0.2067 0.1280 0.9782
C21_8 C 0.1450(8) 0.0701(13) 0.9653(16)
H8_8 H 0.1201 0.0618 0.9320
H10_8 H 0.1495 0.0437 0.9726
H11_8 H 0.2818(17) 0.1241(23) 0.639(3)
H12_8 H 0.1915(18) 0.0638(25) 0.476(3)
H13_8 H 0.142(2) 0.034(3) 0.672(4)
H14_8 H 0.2486(16) 0.2429(23) 0.809(3)
H15_8 H 0.1905(14) 0.3122(21) 0.902(2)
O15_8 O 0.35142(10) 0.17289(15) 0.81961(15)
O16_8 O 0.36125(11) 0.10809(14) 0.36038(14)
O17_8 O 0.32220(15) 0.12762(19) 0.23049(14)
O18_8 O 0.27350(15) 0.06063(19) 0.28024(14)
O19_8 O 0.28966(17) 0.07597(21) 0.90530(15)
O20_8 O 0.30544(14) 0.13769(18) 0.96781(14)
H32_8 H 0.0847693 0.0207558 0.455736
Co1_9 Co 0.863577(27) 0.148191(19) 0.85955(3)
O1_9 O 0.88586(16) 0.14678(12) 0.76058(15)
O2_9 O 0.93705(35) 0.1226(3) 0.7780(2)
O3_9 O 0.83955(15) 0.15480(11) 0.51373(15)
O4_9 O 0.89628(16) 0.17342(12) 0.43327(14)
O5_9 O 0.99734(44) 0.0742(4) 0.5833(3)
O6_9 O 0.99320(26) 0.0962(2) 0.4758(2)
O7_9 O 0.80408(16) 0.08376(10) 0.86539(15)
O8_9 O 0.77475(14) 0.08017(9) 0.97296(14)
O11_9 O 0.90405(21) 0.11825(17) 0.89912(19)
O12_9 O 0.85345(18) 0.11508(12) 0.31058(18)
C1_9 C 0.92138(23) 0.13397(17) 0.6622(2)
C2_9 C 0.89766(21) 0.14701(15) 0.6153(2)
C3_9 C 0.90424(20) 0.14568(14) 0.5434(2)
C4_9 C 0.93396(23) 0.13001(17) 0.5186(2)
C5_9 C 0.95654(25) 0.11493(19) 0.5648(2)
C6_9 C 0.95063(26) 0.1177(2) 0.6364(2)
C7_9 C 0.91447(26) 0.1347(2) 0.7401(2)
C8_9 C 0.98487(27) 0.0935(2) 0.5394(3)
C9_9 C 0.87790(20) 0.15917(14) 0.4926(2)
C10_9 C 0.75332(19) 0.00938(13) 0.9148(2)
C16_9 C 0.77995(20) 0.06242(14) 0.91833(19)
C18_9 C 0.8470(4) 0.0747(2) 0.3503(4)
H1_9 H 0.8677 0.0855 0.3908
H2_9 H 0.8558 0.0560 0.3214
C19_9 C 0.7992(6) 0.0458(4) 0.3734(8)
H3_9 H 0.7817 0.0225 0.3384
H4_9 H 0.7988 0.0306 0.4166
H5_9 H 0.7852 0.0651 0.3806
C20_9 C 0.8907(6) 0.0786(5) 0.9390(8)
H6_9 H 0.8710 0.0511 0.9108
H7_9 H 0.8720 0.0788 0.9782
C21_9 C 0.9299(13) 0.0750(10) 0.9653(16)
H8_9 H 0.9382 0.0584 0.9320
H10_9 H 0.9563 0.1059 0.9726
H11_9 H 0.8759(23) 0.1578(16) 0.639(3)
H12_9 H 0.9362(25) 0.1278(18) 0.476(3)
H13_9 H 0.966(3) 0.109(2) 0.672(4)
H14_9 H 0.7571(23) 0.0058(16) 0.809(3)
O15_9 O 0.82711(15) 0.17854(11) 0.81961(15)
O16_9 O 0.89191(14) 0.25317(9) 0.36038(14)
O17_9 O 0.87238(19) 0.19457(11) 0.23049(14)
O18_9 O 0.93937(19) 0.21286(11) 0.28024(14)
O19_9 O 0.92403(21) 0.21368(13) 0.90530(15)
O20_9 O 0.86231(18) 0.16774(11) 0.96781(14)
H32_9 H 0.979244 0.0640135 0.455736
H16_9 H 0.7434(21) 0.9970(15) 0.020(2)
C22_9 C 0.70441(21) 0.90505(14) 0.0365(2)
O13_9 O 0.71034(17) 0.92403(11) 0.09470(15)
O9_9 O 0.67780(15) 0.87238(10) 0.76951(14)
O10_9 O 0.72650(15) 0.93937(10) 0.71976(14)
C11_9 C 0.74520(21) 0.98744(14) 0.8496(2)
C12_9 C 0.71853(20) 0.93857(14) 0.8444(2)
C13_9 C 0.70415(21) 0.91153(14) 0.9053(2)
C14_9 C 0.71423(19) 0.93317(13) 0.9708(2)
C15_9 C 0.73717(19) 0.98231(13) 0.97464(19)
C17_9 C 0.70720(20) 0.91566(14) 0.77414(19)
H15_9 H 0.6878(21) 0.8784(15) 0.902(2)
O4_10 O 0.50675(12) 0.94380(11) 0.23340(14)
O5_10 O 0.4075(4) 0.74349(18) 0.0834(3)
O6_10 O 0.4295(2) 0.76963(16) 0.1909(2)
O12_10 O 0.44841(12) 0.92829(14) 0.35609(18)
C1_10 C 0.46730(17) 0.87925(16) 0.0045(2)
C2_10 C 0.48034(15) 0.91601(15) 0.0514(2)
C3_10 C 0.47901(14) 0.90810(14) 0.1233(2)
C4_10 C 0.46334(17) 0.86271(16) 0.1481(2)
C5_10 C 0.44826(19) 0.82505(16) 0.1019(2)
C6_10 C 0.4510(2) 0.83370(17) 0.0303(2)
C8_10 C 0.4268(2) 0.77526(18) 0.1273(3)
C9_10 C 0.49250(14) 0.94793(14) 0.1741(2)
C18_10 C 0.4080(2) 0.8943(3) 0.3164(4)
H1_10 H 0.4188 0.8844 0.2759
H2_10 H 0.3893 0.8668 0.3453
C19_10 C 0.3791(4) 0.9132(5) 0.2933(8)
H3_10 H 0.3558 0.9074 0.3283
H4_10 H 0.3639 0.8984 0.2501
H5_10 H 0.3984 0.9465 0.2861
H11_10 H 0.4911(16) 0.9485(17) 0.028(3)
H12_10 H 0.4611(18) 0.8582(18) 0.191(3)
H32_10 H 0.397347 0.751436 0.210931
O1_10 O 0.48011(12) 0.92758(11) 0.90609(15)
O2_10 O 0.4559(3) 0.85218(18) 0.8887(2)
O7_10 O 0.41709(10) 0.94634(12) 0.80128(15)
O11_10 O 0.45158(17) 0.88086(13) 0.76755(19)
C7_10 C 0.4680(2) 0.88686(17) 0.9266(2)
C10_10 C 0.34271(13) 0.92272(14) 0.7519(2)
C11_10 C 0.32077(14) 0.90890(15) 0.8171(2)
C12_10 C 0.27190(14) 0.88670(14) 0.8223(2)
C13_10 C 0.24486(14) 0.87404(15) 0.7614(2)
C14_10 C 0.26650(13) 0.88560(14) 0.6959(2)
C15_10 C 0.31564(13) 0.91180(14) 0.69203(19)
C16_10 C 0.39575(14) 0.94913(14) 0.74834(19)
C17_10 C 0.24899(14) 0.87512(14) 0.89253(19)
C20_10 C 0.4119(5) 0.8545(4) 0.7277(8)
H6_10 H 0.3844 0.8467 0.7559
H7_10 H 0.4121 0.8734 0.6885
C21_10 C 0.4083(10) 0.8117(8) 0.7014(16)
H8_10 H 0.3917 0.7868 0.7347
H9_8 H 0.3914 0.8034 0.6577
H10_10 H 0.4392 0.8162 0.6941
H13_10 H 0.442(2) 0.809(2) 0.995(4)
H14_10 H 0.3391(16) 0.9153(16) 0.858(3)
H15_10 H 0.2117(15) 0.8572(14) 0.765(2)
H16_10 H 0.3303(15) 0.9202(15) 0.647(2)
C22_10 C 0.23838(14) 0.86730(15) 0.6302(2)
O4_11 O 0.05620(11) 0.56295(16) 0.23340(14)
O5_11 O 0.25651(18) 0.66401(44) 0.0834(3)
O6_11 O 0.23037(16) 0.65987(26) 0.1909(2)
O12_11 O 0.07171(14) 0.52012(18) 0.35609(18)
C1_11 C 0.12075(16) 0.58805(23) 0.0045(2)
C2_11 C 0.08399(15) 0.56433(21) 0.0514(2)
C3_11 C 0.09190(14) 0.57091(20) 0.1233(2)
C4_11 C 0.13729(16) 0.60063(23) 0.1481(2)
C5_11 C 0.17495(16) 0.62321(25) 0.1019(2)
C6_11 C 0.16630(17) 0.61730(26) 0.0303(2)
C8_11 C 0.22474(18) 0.65154(27) 0.1273(3)
C9_11 C 0.05207(14) 0.54457(20) 0.1741(2)
C18_11 C 0.1057(3) 0.5137(4) 0.3164(4)
H1_11 H 0.1156 0.5344 0.2759
H2_11 H 0.1332 0.5225 0.3453
C19_11 C 0.0868(5) 0.4659(6) 0.2933(8)
H3_11 H 0.0926 0.4484 0.3283
H4_11 H 0.1016 0.4655 0.2501
H5_11 H 0.0535 0.4519 0.2861
H11_11 H 0.0515(17) 0.5426(23) 0.028(3)
H12_11 H 0.1418(18) 0.6029(25) 0.191(3)
H32_11 H 0.248564 0.645911 0.210931
O1_11 O 0.07242(11) 0.55253(16) 0.90609(15)
O2_11 O 0.14782(18) 0.60372(35) 0.8887(2)
O7_11 O 0.05366(12) 0.47075(16) 0.80128(15)
O11_11 O 0.11914(13) 0.57072(21) 0.76755(19)
C7_11 C 0.11314(17) 0.58114(26) 0.9266(2)
C10_11 C 0.07728(14) 0.41999(19) 0.7519(2)
C11_11 C 0.09110(15) 0.41187(21) 0.8171(2)
C12_11 C 0.11330(14) 0.38520(20) 0.8223(2)
C13_11 C 0.12596(15) 0.37082(21) 0.7614(2)
C14_11 C 0.11440(14) 0.38090(19) 0.6959(2)
C15_11 C 0.08820(14) 0.40384(19) 0.69203(19)
C16_11 C 0.05087(14) 0.44662(20) 0.74834(19)
C17_11 C 0.12488(14) 0.37387(20) 0.89253(19)
C20_11 C 0.1455(4) 0.5574(6) 0.7277(8)
H6_11 H 0.1533 0.5377 0.7559
H7_11 H 0.1266 0.5387 0.6885
C21_11 C 0.1883(8) 0.5966(13) 0.7014(16)
H8_11 H 0.2132 0.6049 0.7347
H9_9 H 0.1966 0.5880 0.6577
H10_11 H 0.1838 0.6230 0.6941
H13_11 H 0.191(2) 0.633(3) 0.995(4)
H14_11 H 0.0847(16) 0.4238(23) 0.858(3)
H15_11 H 0.1428(14) 0.3545(21) 0.765(2)
H16_11 H 0.0798(15) 0.4101(21) 0.647(2)
C22_11 C 0.13270(15) 0.37108(21) 0.6302(2)
O4_12 O 0.43705(16) 0.49325(12) 0.23340(14)
O5_12 O 0.33599(44) 0.5925(4) 0.0834(3)
O6_12 O 0.34013(26) 0.5705(2) 0.1909(2)
O12_12 O 0.47988(18) 0.55159(12) 0.35609(18)
C1_12 C 0.41195(23) 0.53270(17) 0.0045(2)
C2_12 C 0.43567(21) 0.51966(15) 0.0514(2)
C3_12 C 0.42909(20) 0.52099(14) 0.1233(2)
C4_12 C 0.39937(23) 0.53666(17) 0.1481(2)
C5_12 C 0.37679(25) 0.55174(19) 0.1019(2)
C6_12 C 0.38270(26) 0.5490(2) 0.0303(2)
C8_12 C 0.34846(27) 0.5732(2) 0.1273(3)
C9_12 C 0.45543(20) 0.50750(14) 0.1741(2)
C18_12 C 0.4863(4) 0.5920(2) 0.3164(4)
H1_12 H 0.4656 0.5812 0.2759
H2_12 H 0.4775 0.6107 0.3453
C19_12 C 0.5341(6) 0.6209(4) 0.2933(8)
H3_12 H 0.5516 0.6442 0.3283
H4_12 H 0.5345 0.6361 0.2501
H5_12 H 0.5481 0.6016 0.2861
H11_12 H 0.4574(23) 0.5089(16) 0.028(3)
H12_12 H 0.3971(25) 0.5389(18) 0.191(3)
H32_12 H 0.354089 0.602653 0.210931
O1_12 O 0.44747(16) 0.51989(12) 0.90609(15)
O2_12 O 0.39628(35) 0.5441(3) 0.8887(2)
O7_12 O 0.52925(16) 0.58291(10) 0.80128(15)
O11_12 O 0.42928(21) 0.54842(17) 0.76755(19)
C7_12 C 0.41886(26) 0.5320(2) 0.9266(2)
C10_12 C 0.58001(19) 0.65729(13) 0.7519(2)
C11_12 C 0.58813(21) 0.67923(14) 0.8171(2)
C12_12 C 0.61480(20) 0.72810(14) 0.8223(2)
C13_12 C 0.62918(21) 0.75514(14) 0.7614(2)
C14_12 C 0.61910(19) 0.73350(13) 0.6959(2)
C15_12 C 0.59616(19) 0.68436(13) 0.69203(19)
C16_12 C 0.55338(20) 0.60425(14) 0.74834(19)
C17_12 C 0.62613(20) 0.75101(14) 0.89253(19)
C20_12 C 0.4426(6) 0.5881(5) 0.7277(8)
H6_12 H 0.4623 0.6156 0.7559
H7_12 H 0.4613 0.5879 0.6885
C21_12 C 0.4034(13) 0.5917(10) 0.7014(16)
H8_12 H 0.3951 0.6083 0.7347
H9_10 H 0.4120 0.6086 0.6577
H10_12 H 0.3770 0.5608 0.6941
H13_12 H 0.367(3) 0.558(2) 0.995(4)
H14_12 H 0.5762(23) 0.6609(16) 0.858(3)
H15_12 H 0.6455(21) 0.7883(15) 0.765(2)
H16_12 H 0.5899(21) 0.6697(15) 0.647(2)
C22_12 C 0.62892(21) 0.76162(14) 0.6302(2)
O12_13 O 0.78174(12) 0.59496(14) 0.02276(18)
H2_13 H 0.7226 0.5335 0.0120
O1_13 O 0.81344(12) 0.59425(11) 0.57276(15)
O2_13 O 0.7892(3) 0.51885(18) 0.5554(2)
O4_13 O 0.84008(12) 0.61047(11) 0.90007(14)
O5_13 O 0.7408(4) 0.41016(18) 0.7501(3)
O6_13 O 0.7628(2) 0.43630(16) 0.8576(2)
O7_13 O 0.75042(10) 0.61301(12) 0.46795(15)
O11_13 O 0.78491(17) 0.54753(13) 0.43422(19)
C1_13 C 0.80063(17) 0.54592(16) 0.6712(2)
C2_13 C 0.81367(15) 0.58268(15) 0.7181(2)
C3_13 C 0.81234(14) 0.57477(14) 0.7900(2)
C4_13 C 0.79667(17) 0.52938(16) 0.8148(2)
C5_13 C 0.78159(19) 0.49172(16) 0.7686(2)
C6_13 C 0.7843(2) 0.50037(17) 0.6970(2)
C7_13 C 0.8013(2) 0.55353(17) 0.5933(2)
C8_13 C 0.7601(2) 0.44193(18) 0.7940(3)
C9_13 C 0.82583(14) 0.61460(14) 0.8408(2)
C10_13 C 0.67604(13) 0.58939(14) 0.4186(2)
C11_13 C 0.65410(14) 0.57557(15) 0.4838(2)
C12_13 C 0.60523(14) 0.55337(14) 0.4890(2)
C13_13 C 0.57819(14) 0.54071(15) 0.4281(2)
C14_13 C 0.59983(13) 0.55227(14) 0.3626(2)
C15_13 C 0.64897(13) 0.57847(14) 0.35870(19)
C16_13 C 0.72908(14) 0.61580(14) 0.41501(19)
C17_13 C 0.58232(14) 0.54179(14) 0.55920(19)
C18_13 C 0.7413(2) 0.5610(3) 0.9831(4)
H1_13 H 0.7521 0.5511 0.9426
C19_13 C 0.7124(4) 0.5799(5) 0.9600(8)
H3_13 H 0.6891 0.5741 0.9950
H4_13 H 0.6972 0.5651 0.9168
H5_13 H 0.7317 0.6132 0.9528
C20_13 C 0.7452(5) 0.5212(4) 0.3944(8)
H6_13 H 0.7177 0.5134 0.4226
H7_13 H 0.7454 0.5401 0.3552
C21_13 C 0.7416(10) 0.4784(8) 0.3681(16)
H8_13 H 0.7250 0.4535 0.4014
H9_11 H 0.7247 0.4701 0.3244
H10_13 H 0.7725 0.4829 0.3608
H11_13 H 0.8244(16) 0.6152(17) 0.695(3)
H12_13 H 0.7944(18) 0.5249(18) 0.858(3)
H13_13 H 0.775(2) 0.476(2) 0.662(4)
H14_13 H 0.6724(16) 0.5820(16) 0.525(3)
H15_13 H 0.5450(15) 0.5239(14) 0.432(2)
H16_13 H 0.6636(15) 0.5869(15) 0.314(2)
C22_13 C 0.57171(14) 0.53397(15) 0.2969(2)
H32_13 H 0.73068 0.418103 0.877597
O12_14 O 0.40504(14) 0.18679(18) 0.02276(18)
H2_14 H 0.4665 0.1892 0.0120
O1_14 O 0.40575(11) 0.21920(16) 0.57276(15)
O2_14 O 0.48115(18) 0.27039(35) 0.5554(2)
O4_14 O 0.38953(11) 0.22962(16) 0.90007(14)
O5_14 O 0.58984(18) 0.33068(44) 0.7501(3)
O6_14 O 0.56370(16) 0.32654(26) 0.8576(2)
O7_14 O 0.38699(12) 0.13742(16) 0.46795(15)
O11_14 O 0.45247(13) 0.23739(21) 0.43422(19)
C1_14 C 0.45408(16) 0.25472(23) 0.6712(2)
C2_14 C 0.41732(15) 0.23100(21) 0.7181(2)
C3_14 C 0.42523(14) 0.23758(20) 0.7900(2)
C4_14 C 0.47062(16) 0.26730(23) 0.8148(2)
C5_14 C 0.50828(16) 0.28988(25) 0.7686(2)
C6_14 C 0.49963(17) 0.28397(26) 0.6970(2)
C7_14 C 0.44647(17) 0.24781(26) 0.5933(2)
C8_14 C 0.55807(18) 0.31821(27) 0.7940(3)
C9_14 C 0.38540(14) 0.21124(20) 0.8408(2)
C10_14 C 0.41061(14) 0.08666(19) 0.4186(2)
C11_14 C 0.42443(15) 0.07854(21) 0.4838(2)
C12_14 C 0.44663(14) 0.05187(20) 0.4890(2)
C13_14 C 0.45929(15) 0.03749(21) 0.4281(2)
C14_14 C 0.44773(14) 0.04757(19) 0.3626(2)
C15_14 C 0.42153(14) 0.07051(19) 0.35870(19)
C16_14 C 0.38420(14) 0.11329(20) 0.41501(19)
C17_14 C 0.45821(14) 0.04054(20) 0.55920(19)
C18_14 C 0.4390(3) 0.1804(4) 0.9831(4)
H1_14 H 0.4489 0.2011 0.9426
C19_14 C 0.4201(5) 0.1326(6) 0.9600(8)
H3_14 H 0.4259 0.1151 0.9950
H4_14 H 0.4349 0.1322 0.9168
H5_14 H 0.3868 0.1186 0.9528
C20_14 C 0.4788(4) 0.2241(6) 0.3944(8)
H6_14 H 0.4866 0.2044 0.4226
H7_14 H 0.4599 0.2054 0.3552
C21_14 C 0.5216(8) 0.2633(13) 0.3681(16)
H8_14 H 0.5465 0.2716 0.4014
H9_12 H 0.5299 0.2547 0.3244
H10_14 H 0.5171 0.2897 0.3608
H11_14 H 0.3848(17) 0.2093(23) 0.695(3)
H12_14 H 0.4751(18) 0.2696(25) 0.858(3)
H13_14 H 0.524(2) 0.300(3) 0.662(4)
H14_14 H 0.4180(16) 0.0905(23) 0.525(3)
H15_14 H 0.4761(14) 0.0212(21) 0.432(2)
H16_14 H 0.4131(15) 0.0768(21) 0.314(2)
C22_14 C 0.46603(15) 0.03775(21) 0.2969(2)
H32_14 H 0.581897 0.312578 0.877597
O12_15 O 0.81321(18) 0.21826(12) 0.02276(18)
H2_15 H 0.8108 0.2774 0.0120
O1_15 O 0.78080(16) 0.18656(12) 0.57276(15)
O2_15 O 0.72961(35) 0.2108(3) 0.5554(2)
O4_15 O 0.77038(16) 0.15992(12) 0.90007(14)
O5_15 O 0.66932(44) 0.2592(4) 0.7501(3)
O6_15 O 0.67346(26) 0.2372(2) 0.8576(2)
O7_15 O 0.86258(16) 0.24958(10) 0.46795(15)
O11_15 O 0.76261(21) 0.21509(17) 0.43422(19)
C1_15 C 0.74528(23) 0.19937(17) 0.6712(2)
C2_15 C 0.76900(21) 0.18633(15) 0.7181(2)
C3_15 C 0.76242(20) 0.18766(14) 0.7900(2)
C4_15 C 0.73270(23) 0.20333(17) 0.8148(2)
C5_15 C 0.71012(25) 0.21841(19) 0.7686(2)
C6_15 C 0.71603(26) 0.2157(2) 0.6970(2)
C7_15 C 0.75219(26) 0.1987(2) 0.5933(2)
C8_15 C 0.68179(27) 0.2399(2) 0.7940(3)
C9_15 C 0.78876(20) 0.17417(14) 0.8408(2)
C10_15 C 0.91334(19) 0.32396(13) 0.4186(2)
C11_15 C 0.92146(21) 0.34590(14) 0.4838(2)
C12_15 C 0.94813(20) 0.39477(14) 0.4890(2)
C13_15 C 0.96251(21) 0.42181(14) 0.4281(2)
C14_15 C 0.95243(19) 0.40017(13) 0.3626(2)
C15_15 C 0.92949(19) 0.35103(13) 0.35870(19)
C16_15 C 0.88671(20) 0.27092(14) 0.41501(19)
C17_15 C 0.95946(20) 0.41768(14) 0.55920(19)
C18_15 C 0.8196(4) 0.2587(2) 0.9831(4)
H1_15 H 0.7989 0.2479 0.9426
C19_15 C 0.8674(6) 0.2876(4) 0.9600(8)
H3_15 H 0.8849 0.3109 0.9950
H4_15 H 0.8678 0.3028 0.9168
H5_15 H 0.8814 0.2683 0.9528
C20_15 C 0.7759(6) 0.2548(5) 0.3944(8)
H6_15 H 0.7956 0.2823 0.4226
H7_15 H 0.7946 0.2546 0.3552
C21_15 C 0.7367(13) 0.2584(10) 0.3681(16)
H8_15 H 0.7284 0.2750 0.4014
H9_13 H 0.7453 0.2753 0.3244
H10_15 H 0.7103 0.2275 0.3608
H11_15 H 0.7907(23) 0.1756(16) 0.695(3)
H12_15 H 0.7304(25) 0.2056(18) 0.858(3)
H13_15 H 0.700(3) 0.225(2) 0.662(4)
H14_15 H 0.9095(23) 0.3276(16) 0.525(3)
H15_15 H 0.9788(21) 0.4550(15) 0.432(2)
H16_15 H 0.9232(21) 0.3364(15) 0.314(2)
C22_15 C 0.96225(21) 0.42829(14) 0.2969(2)
H32_15 H 0.687422 0.26932 0.877597
O1_16 O 0.14678(12) 0.26091(11) 0.23942(15)
O2_16 O 0.1226(3) 0.18551(18) 0.2220(2)
O4_16 O 0.17342(12) 0.27713(11) 0.56673(14)
O5_16 O 0.0742(4) 0.07682(18) 0.4167(3)
O6_16 O 0.0962(2) 0.10296(16) 0.5242(2)
O7_16 O 0.08376(10) 0.27967(12) 0.13461(15)
O11_16 O 0.11825(17) 0.21419(13) 0.10088(19)
O12_16 O 0.11508(12) 0.26162(14) 0.68942(18)
C1_16 C 0.13397(17) 0.21258(16) 0.3378(2)
C2_16 C 0.14701(15) 0.24934(15) 0.3847(2)
C3_16 C 0.14568(14) 0.24143(14) 0.4566(2)
C4_16 C 0.13001(17) 0.19604(16) 0.4814(2)
C5_16 C 0.11493(19) 0.15838(16) 0.4352(2)
C6_16 C 0.1177(2) 0.16703(17) 0.3636(2)
C7_16 C 0.1347(2) 0.22019(17) 0.2599(2)
C8_16 C 0.0935(2) 0.10859(18) 0.4606(3)
C9_16 C 0.15917(14) 0.28126(14) 0.5074(2)
C10_16 C 0.00938(13) 0.25605(14) 0.0852(2)
C16_16 C 0.06242(14) 0.28246(14) 0.08167(19)
C18_16 C 0.0747(2) 0.2276(3) 0.6497(4)
H1_16 H 0.0855 0.2177 0.6092
H2_16 H 0.0560 0.2001 0.6786
C19_16 C 0.0458(4) 0.2465(5) 0.6266(8)
H3_16 H 0.0225 0.2407 0.6616
H4_16 H 0.0306 0.2317 0.5834
H5_16 H 0.0651 0.2798 0.6194
C20_16 C 0.0786(5) 0.1878(4) 0.0610(8)
H6_16 H 0.0511 0.1800 0.0892
H7_16 H 0.0788 0.2067 0.0218
C21_16 C 0.0750(10) 0.1450(8) 0.0347(16)
H8_16 H 0.0584 0.1201 0.0680
H10_16 H 0.1059 0.1495 0.0274
H11_16 H 0.1578(16) 0.2818(17) 0.361(3)
H12_16 H 0.1278(18) 0.1915(18) 0.524(3)
H13_16 H 0.109(2) 0.142(2) 0.328(4)
H14_16 H 0.0058(16) 0.2486(16) 0.191(3)
H32_16 H 0.0640135 0.0847693 0.544264
C11_16 C 0.98744(14) 0.24223(15) 0.1504(2)
C12_16 C 0.93857(14) 0.22003(14) 0.1556(2)
C13_16 C 0.91153(14) 0.20737(15) 0.0947(2)
C14_16 C 0.93317(13) 0.21893(14) 0.0292(2)
C15_16 C 0.98231(13) 0.24513(14) 0.02536(19)
C17_16 C 0.91566(14) 0.20845(14) 0.22586(19)
H15_16 H 0.8784(15) 0.1905(14) 0.098(2)
H16_16 H 0.9970(15) 0.2535(15) 0.980(2)
C22_16 C 0.90505(14) 0.20063(15) 0.9635(2)
O1_17 O 0.73909(11) 0.88586(16) 0.23942(15)
O2_17 O 0.81449(18) 0.93705(35) 0.2220(2)
O4_17 O 0.72287(11) 0.89628(16) 0.56673(14)
O5_17 O 0.92318(18) 0.99734(44) 0.4167(3)
O6_17 O 0.89704(16) 0.99320(26) 0.5242(2)
O7_17 O 0.72033(12) 0.80408(16) 0.13461(15)
O11_17 O 0.78581(13) 0.90405(21) 0.10088(19)
O12_17 O 0.73838(14) 0.85345(18) 0.68942(18)
C1_17 C 0.78742(16) 0.92138(23) 0.3378(2)
C2_17 C 0.75066(15) 0.89766(21) 0.3847(2)
C3_17 C 0.75857(14) 0.90424(20) 0.4566(2)
C4_17 C 0.80396(16) 0.93396(23) 0.4814(2)
C5_17 C 0.84162(16) 0.95654(25) 0.4352(2)
C6_17 C 0.83297(17) 0.95063(26) 0.3636(2)
C7_17 C 0.77981(17) 0.91447(26) 0.2599(2)
C8_17 C 0.89141(18) 0.98487(27) 0.4606(3)
C9_17 C 0.71874(14) 0.87790(20) 0.5074(2)
C10_17 C 0.74395(14) 0.75332(19) 0.0852(2)
C11_17 C 0.75777(15) 0.74520(21) 0.1504(2)
C12_17 C 0.77997(14) 0.71853(20) 0.1556(2)
C13_17 C 0.79263(15) 0.70415(21) 0.0947(2)
C14_17 C 0.78107(14) 0.71423(19) 0.0292(2)
C15_17 C 0.75487(14) 0.73717(19) 0.02536(19)
C16_17 C 0.71754(14) 0.77995(20) 0.08167(19)
C17_17 C 0.79155(14) 0.70720(20) 0.22586(19)
C18_17 C 0.7724(3) 0.8470(4) 0.6497(4)
H1_17 H 0.7823 0.8677 0.6092
H2_17 H 0.7999 0.8558 0.6786
C19_17 C 0.7535(5) 0.7992(6) 0.6266(8)
H3_17 H 0.7593 0.7817 0.6616
H4_17 H 0.7683 0.7988 0.5834
H5_17 H 0.7202 0.7852 0.6194
C20_17 C 0.8122(4) 0.8907(6) 0.0610(8)
H6_17 H 0.8200 0.8710 0.0892
H7_17 H 0.7933 0.8720 0.0218
C21_17 C 0.8550(8) 0.9299(13) 0.0347(16)
H8_17 H 0.8799 0.9382 0.0680
H10_17 H 0.8505 0.9563 0.0274
H11_17 H 0.7182(17) 0.8759(23) 0.361(3)
H12_17 H 0.8085(18) 0.9362(25) 0.524(3)
H13_17 H 0.858(2) 0.966(3) 0.328(4)
H14_17 H 0.7514(16) 0.7571(23) 0.191(3)
H15_17 H 0.8095(14) 0.6878(21) 0.098(2)
H32_17 H 0.915231 0.979244 0.544264
H9_14 H 0.8633 0.9213 0.9910
H16_17 H 0.7465(15) 0.7434(21) 0.980(2)
C22_17 C 0.79937(15) 0.70441(21) 0.9635(2)
C11_18 C 0.25480(21) 0.01256(14) 0.1504(2)
C12_18 C 0.28147(20) 0.06143(14) 0.1556(2)
C13_18 C 0.29585(21) 0.08847(14) 0.0947(2)
C14_18 C 0.28577(19) 0.06683(13) 0.0292(2)
C15_18 C 0.26283(19) 0.01769(13) 0.02536(19)
C17_18 C 0.29280(20) 0.08434(14) 0.22586(19)
H15_18 H 0.3122(21) 0.1216(15) 0.098(2)
H16_18 H 0.2566(21) 0.0030(15) 0.980(2)
C22_18 C 0.29559(21) 0.09495(14) 0.9635(2)
O1_18 O 0.11414(16) 0.85322(12) 0.23942(15)
O2_18 O 0.06295(35) 0.8774(3) 0.2220(2)
O4_18 O 0.10372(16) 0.82658(12) 0.56673(14)
O5_18 O 0.00266(44) 0.9258(4) 0.4167(3)
O6_18 O 0.00680(26) 0.9038(2) 0.5242(2)
O7_18 O 0.19592(16) 0.91624(10) 0.13461(15)
O11_18 O 0.09595(21) 0.88175(17) 0.10088(19)
O12_18 O 0.14655(18) 0.88492(12) 0.68942(18)
C1_18 C 0.07862(23) 0.86603(17) 0.3378(2)
C2_18 C 0.10234(21) 0.85299(15) 0.3847(2)
C3_18 C 0.09576(20) 0.85432(14) 0.4566(2)
C4_18 C 0.06604(23) 0.86999(17) 0.4814(2)
C5_18 C 0.04346(25) 0.88507(19) 0.4352(2)
C6_18 C 0.04937(26) 0.8823(2) 0.3636(2)
C7_18 C 0.08553(26) 0.8653(2) 0.2599(2)
C8_18 C 0.01513(27) 0.9065(2) 0.4606(3)
C9_18 C 0.12210(20) 0.84083(14) 0.5074(2)
C10_18 C 0.24668(19) 0.99062(13) 0.0852(2)
C16_18 C 0.22005(20) 0.93758(14) 0.08167(19)
C18_18 C 0.1530(4) 0.9253(2) 0.6497(4)
H1_18 H 0.1323 0.9145 0.6092
H2_18 H 0.1442 0.9440 0.6786
C19_18 C 0.2008(6) 0.9542(4) 0.6266(8)
H3_18 H 0.2183 0.9775 0.6616
H4_18 H 0.2012 0.9694 0.5834
H5_18 H 0.2148 0.9349 0.6194
C20_18 C 0.1093(6) 0.9214(5) 0.0610(8)
H6_18 H 0.1290 0.9489 0.0892
H7_18 H 0.1280 0.9212 0.0218
C21_18 C 0.0701(13) 0.9250(10) 0.0347(16)
H8_18 H 0.0618 0.9416 0.0680
H10_18 H 0.0437 0.8941 0.0274
H11_18 H 0.1241(23) 0.8422(16) 0.361(3)
H12_18 H 0.0638(25) 0.8722(18) 0.524(3)
H13_18 H 0.034(3) 0.891(2) 0.328(4)
H14_18 H 0.2429(23) 0.9942(16) 0.191(3)
H32_18 H 0.0207558 0.935986 0.544264
H9_15 H 0.9419 0.8633 0.0090
H9_16 H 0.9213 0.0581 0.0090
H9_17 H 0.0581 0.1367 0.9910
H9_18 H 0.0787 0.9419 0.9910
N1 N 0.3917(3) 0.0819(2) 0.6860(4)
C23 C 0.3592(6) 0.0881(7) 0.6377(8)
H17 H 0.3401 0.0973 0.6648
H18 H 0.3776 0.1131 0.6047
C24 C 0.3282(5) 0.0446(9) 0.5988(10)
H19 H 0.3426 0.0448 0.5549
H20 H 0.2985 0.0429 0.5901
H21 H 0.3231 0.0179 0.6259
C25 C 0.3691(4) 0.0440(4) 0.7357(5)
H22 H 0.3931 0.0438 0.7654
H23 H 0.3538 0.0144 0.7103
C26 C 0.3326(7) 0.0466(7) 0.7825(7)
H24 H 0.3476 0.0641 0.8241
H25 H 0.3086 0.0154 0.7951
H26 H 0.3187 0.0620 0.7575
C27 C 0.4245(9) 0.1248(7) 0.7275(16)
H27 H 0.4096 0.1439 0.7307
H28 H 0.4250 0.1141 0.7747
C28 C 0.4645(7) 0.1509(7) 0.7118(16)
H29 H 0.4840 0.1396 0.7313
H30 H 0.4743 0.1817 0.7296
H31 H 0.4674 0.1522 0.6616
H33 H 0.412204 0.0741985 0.655286
N1_2 N 0.9181(2) 0.3098(4) 0.6860(4)
C23_2 C 0.9119(7) 0.2711(9) 0.6377(8)
H17_2 H 0.9027 0.2428 0.6648
H18_2 H 0.8869 0.2645 0.6047
C24_2 C 0.9554(9) 0.2836(10) 0.5988(10)
H19_2 H 0.9552 0.2978 0.5549
H20_2 H 0.9571 0.2556 0.5901
H21_2 H 0.9821 0.3052 0.6259
C25_2 C 0.9560(4) 0.3251(6) 0.7357(5)
H22_2 H 0.9562 0.3493 0.7654
H23_2 H 0.9856 0.3394 0.7103
C26_2 C 0.9534(7) 0.2860(10) 0.7825(7)
H24_2 H 0.9359 0.2835 0.8241
H25_2 H 0.9846 0.2932 0.7951
H26_2 H 0.9380 0.2567 0.7575
C27_2 C 0.8752(7) 0.2997(11) 0.7275(16)
H27_2 H 0.8561 0.2657 0.7307
H28_2 H 0.8859 0.3109 0.7747
C28_2 C 0.8491(7) 0.3136(10) 0.7118(16)
H29_2 H 0.8604 0.3444 0.7313
H30_2 H 0.8183 0.2926 0.7296
H31_2 H 0.8478 0.3152 0.6616
H33_2 H 0.925801 0.338006 0.655286
N1_3 N 0.6902(4) 0.6083(3) 0.6860(4)
C23_3 C 0.7289(9) 0.6408(6) 0.6377(8)
H17_3 H 0.7572 0.6599 0.6648
H18_3 H 0.7355 0.6224 0.6047
C24_3 C 0.7164(10) 0.6718(5) 0.5988(10)
H19_3 H 0.7022 0.6574 0.5549
H20_3 H 0.7444 0.7015 0.5901
H21_3 H 0.6948 0.6769 0.6259
C25_3 C 0.6749(6) 0.6309(4) 0.7357(5)
H22_3 H 0.6507 0.6069 0.7654
H23_3 H 0.6606 0.6462 0.7103
C26_3 C 0.7140(10) 0.6674(7) 0.7825(7)
H24_3 H 0.7165 0.6524 0.8241
H25_3 H 0.7068 0.6914 0.7951
H26_3 H 0.7433 0.6813 0.7575
C27_3 C 0.7003(11) 0.5755(9) 0.7275(16)
H27_3 H 0.7343 0.5904 0.7307
H28_3 H 0.6891 0.5750 0.7747
C28_3 C 0.6864(10) 0.5355(7) 0.7118(16)
H29_3 H 0.6556 0.5160 0.7313
H30_3 H 0.7074 0.5257 0.7296
H31_3 H 0.6848 0.5326 0.6616
H33_3 H 0.661994 0.587796 0.655286
N1_4 N 0.0584(3) 0.4152(2) 0.0193(4)
C25_4 C 0.0358(4) 0.3773(4) 0.0690(5)
H22_4 H 0.0598 0.3771 0.0987
H23_4 H 0.0205 0.3477 0.0436
H24_4 H 0.0143 0.3974 0.1574
C27_4 C 0.0912(9) 0.4581(7) 0.0608(16)
H27_4 H 0.0763 0.4772 0.0640
H28_4 H 0.0917 0.4474 0.1080
C28_4 C 0.1312(7) 0.4842(7) 0.0451(16)
H29_4 H 0.1507 0.4729 0.0646
H30_4 H 0.1410 0.5150 0.0629
C23_4 C 0.0259(6) 0.4214(7) 0.9710(8)
H17_4 H 0.0068 0.4306 0.9981
H18_4 H 0.0443 0.4464 0.9380
H19_4 H 0.0093 0.3781 0.8882
H31_4 H 0.1341 0.4855 0.9949
H33_4 H 0.078871 0.407532 0.988619
C26_4 C 0.9993(7) 0.3799(7) 0.1158(7)
H25_4 H 0.9753 0.3487 0.1284
H26_4 H 0.9854 0.3953 0.0908
C24_4 C 0.9949(5) 0.3779(9) 0.9321(10)
H20_4 H 0.9652 0.3762 0.9234
H21_4 H 0.9898 0.3512 0.9592
N1_5 N 0.5848(2) 0.6431(4) 0.0193(4)
C25_5 C 0.6227(4) 0.6584(6) 0.0690(5)
H22_5 H 0.6229 0.6826 0.0987
H23_5 H 0.6523 0.6727 0.0436
C26_5 C 0.6201(7) 0.6193(10) 0.1158(7)
H24_5 H 0.6026 0.6168 0.1574
H25_5 H 0.6513 0.6265 0.1284
H26_5 H 0.6047 0.5900 0.0908
C27_5 C 0.5419(7) 0.6330(11) 0.0608(16)
H27_5 H 0.5228 0.5990 0.0640
H28_5 H 0.5526 0.6442 0.1080
C28_5 C 0.5158(7) 0.6469(10) 0.0451(16)
H29_5 H 0.5271 0.6777 0.0646
H30_5 H 0.4850 0.6259 0.0629
C23_5 C 0.5786(7) 0.6044(9) 0.9710(8)
H17_5 H 0.5694 0.5761 0.9981
H18_5 H 0.5536 0.5978 0.9380
C24_5 C 0.6221(9) 0.6169(10) 0.9321(10)
H19_5 H 0.6219 0.6311 0.8882
H20_5 H 0.6238 0.5889 0.9234
H21_5 H 0.6488 0.6385 0.9592
H31_5 H 0.5145 0.6485 0.9949
H33_5 H 0.592468 0.671339 0.988619
C26_6 C 0.3807(10) 0.0007(7) 0.1158(7)
H25_6 H 0.3735 0.0247 0.1284
H26_6 H 0.4100 0.0146 0.0908
C24_6 C 0.3831(10) 0.0051(5) 0.9321(10)
H20_6 H 0.4111 0.0348 0.9234
H21_6 H 0.3615 0.0102 0.9592
N1_6 N 0.3569(4) 0.9416(3) 0.0193(4)
C25_6 C 0.3416(6) 0.9642(4) 0.0690(5)
H22_6 H 0.3174 0.9402 0.0987
H23_6 H 0.3273 0.9795 0.0436
H24_6 H 0.3832 0.9857 0.1574
C27_6 C 0.3670(11) 0.9088(9) 0.0608(16)
H27_6 H 0.4010 0.9237 0.0640
H28_6 H 0.3558 0.9083 0.1080
C28_6 C 0.3531(10) 0.8688(7) 0.0451(16)
H29_6 H 0.3223 0.8493 0.0646
H30_6 H 0.3741 0.8590 0.0629
C23_6 C 0.3956(9) 0.9741(6) 0.9710(8)
H17_6 H 0.4239 0.9932 0.9981
H18_6 H 0.4022 0.9557 0.9380
H19_6 H 0.3689 0.9907 0.8882
H31_6 H 0.3515 0.8659 0.9949
H33_6 H 0.328661 0.921129 0.988619
N1_7 N 0.7250(3) 0.7486(2) 0.3527(4)
C23_7 C 0.6925(6) 0.7548(7) 0.3044(8)
H17_7 H 0.6734 0.7640 0.3315
H18_7 H 0.7109 0.7798 0.2714
C24_7 C 0.6615(5) 0.7113(9) 0.2655(10)
H19_7 H 0.6759 0.7115 0.2216
H20_7 H 0.6318 0.7096 0.2568
H21_7 H 0.6564 0.6846 0.2926
C25_7 C 0.7024(4) 0.7107(4) 0.4024(5)
H22_7 H 0.7264 0.7105 0.4321
H23_7 H 0.6871 0.6811 0.3770
C26_7 C 0.6659(7) 0.7133(7) 0.4492(7)
H24_7 H 0.6809 0.7308 0.4908
H25_7 H 0.6419 0.6821 0.4618
H26_7 H 0.6520 0.7287 0.4242
C27_7 C 0.7578(9) 0.7915(7) 0.3942(16)
H27_7 H 0.7429 0.8106 0.3974
H28_7 H 0.7583 0.7808 0.4414
C28_7 C 0.7978(7) 0.8176(7) 0.3785(16)
H29_7 H 0.8173 0.8063 0.3980
H30_7 H 0.8076 0.8484 0.3963
H31_7 H 0.8007 0.8189 0.3283
H33_7 H 0.745538 0.740865 0.321953
H22_8 H 0.2895 0.0160 0.4321
H23_8 H 0.3189 0.0061 0.3770
H29_8 H 0.1937 0.0111 0.3980
H33_8 H 0.259135 0.00467248 0.321953
N1_8 N 0.2514(2) 0.9765(4) 0.3527(4)
C23_8 C 0.2452(7) 0.9378(9) 0.3044(8)
H17_8 H 0.2360 0.9095 0.3315
H18_8 H 0.2202 0.9312 0.2714
C24_8 C 0.2887(9) 0.9503(10) 0.2655(10)
H19_8 H 0.2885 0.9645 0.2216
H20_8 H 0.2904 0.9223 0.2568
H21_8 H 0.3154 0.9719 0.2926
C25_8 C 0.2893(4) 0.9918(6) 0.4024(5)
C26_8 C 0.2867(7) 0.9527(10) 0.4492(7)
H24_8 H 0.2692 0.9502 0.4908
H25_8 H 0.3179 0.9599 0.4618
H26_8 H 0.2713 0.9234 0.4242
C27_8 C 0.2085(7) 0.9664(11) 0.3942(16)
H27_8 H 0.1894 0.9324 0.3974
H28_8 H 0.2192 0.9776 0.4414
C28_8 C 0.1824(7) 0.9803(10) 0.3785(16)
H30_8 H 0.1516 0.9593 0.3963
H31_8 H 0.1811 0.9819 0.3283
N1_9 N 0.0235(4) 0.2750(3) 0.3527(4)
C23_9 C 0.0622(9) 0.3075(6) 0.3044(8)
H17_9 H 0.0905 0.3266 0.3315
H18_9 H 0.0688 0.2891 0.2714
C24_9 C 0.0497(10) 0.3385(5) 0.2655(10)
H19_9 H 0.0355 0.3241 0.2216
H20_9 H 0.0777 0.3682 0.2568
H21_9 H 0.0281 0.3436 0.2926
C25_9 C 0.0082(6) 0.2976(4) 0.4024(5)
C26_9 C 0.0473(10) 0.3341(7) 0.4492(7)
H24_9 H 0.0498 0.3191 0.4908
H25_9 H 0.0401 0.3581 0.4618
H26_9 H 0.0766 0.3480 0.4242
C27_9 C 0.0336(11) 0.2422(9) 0.3942(16)
H27_9 H 0.0676 0.2571 0.3974
H28_9 H 0.0224 0.2417 0.4414
C28_9 C 0.0197(10) 0.2022(7) 0.3785(16)
H30_9 H 0.0407 0.1924 0.3963
H31_9 H 0.0181 0.1993 0.3283
H22_9 H 0.9840 0.2736 0.4321
H23_9 H 0.9939 0.3129 0.3770
H29_9 H 0.9889 0.1827 0.3980
H33_9 H 0.995328 0.254462 0.321953
N1_10 N 0.6083(3) 0.9181(2) 0.3140(4)
C23_10 C 0.6408(6) 0.9119(7) 0.3623(8)
H17_10 H 0.6599 0.9027 0.3352
H18_10 H 0.6224 0.8869 0.3953
C24_10 C 0.6718(5) 0.9554(9) 0.4012(10)
H19_10 H 0.6574 0.9552 0.4451
H20_10 H 0.7015 0.9571 0.4099
H21_10 H 0.6769 0.9821 0.3741
C25_10 C 0.6309(4) 0.9560(4) 0.2643(5)
H22_10 H 0.6069 0.9562 0.2346
H23_10 H 0.6462 0.9856 0.2897
C26_10 C 0.6674(7) 0.9534(7) 0.2175(7)
H24_10 H 0.6524 0.9359 0.1759
H25_10 H 0.6914 0.9846 0.2049
H26_10 H 0.6813 0.9380 0.2425
C27_10 C 0.5755(9) 0.8752(7) 0.2725(16)
H27_10 H 0.5904 0.8561 0.2693
H28_10 H 0.5750 0.8859 0.2253
C28_10 C 0.5355(7) 0.8491(7) 0.2882(16)
H29_10 H 0.5160 0.8604 0.2687
H30_10 H 0.5257 0.8183 0.2704
H31_10 H 0.5326 0.8478 0.3384
H33_10 H 0.587796 0.925801 0.344714
N1_11 N 0.0819(2) 0.6902(4) 0.3140(4)
C23_11 C 0.0881(7) 0.7289(9) 0.3623(8)
H17_11 H 0.0973 0.7572 0.3352
H18_11 H 0.1131 0.7355 0.3953
C24_11 C 0.0446(9) 0.7164(10) 0.4012(10)
H19_11 H 0.0448 0.7022 0.4451
H20_11 H 0.0429 0.7444 0.4099
H21_11 H 0.0179 0.6948 0.3741
C25_11 C 0.0440(4) 0.6749(6) 0.2643(5)
H22_11 H 0.0438 0.6507 0.2346
H23_11 H 0.0144 0.6606 0.2897
C26_11 C 0.0466(7) 0.7140(10) 0.2175(7)
H24_11 H 0.0641 0.7165 0.1759
H25_11 H 0.0154 0.7068 0.2049
H26_11 H 0.0620 0.7433 0.2425
C27_11 C 0.1248(7) 0.7003(11) 0.2725(16)
H27_11 H 0.1439 0.7343 0.2693
H28_11 H 0.1141 0.6891 0.2253
C28_11 C 0.1509(7) 0.6864(10) 0.2882(16)
H29_11 H 0.1396 0.6556 0.2687
H30_11 H 0.1817 0.7074 0.2704
H31_11 H 0.1522 0.6848 0.3384
H33_11 H 0.0741985 0.661994 0.344714
N1_12 N 0.3098(4) 0.3917(3) 0.3140(4)
C23_12 C 0.2711(9) 0.3592(6) 0.3623(8)
H17_12 H 0.2428 0.3401 0.3352
H18_12 H 0.2645 0.3776 0.3953
C24_12 C 0.2836(10) 0.3282(5) 0.4012(10)
H19_12 H 0.2978 0.3426 0.4451
H20_12 H 0.2556 0.2985 0.4099
H21_12 H 0.3052 0.3231 0.3741
C25_12 C 0.3251(6) 0.3691(4) 0.2643(5)
H22_12 H 0.3493 0.3931 0.2346
H23_12 H 0.3394 0.3538 0.2897
C26_12 C 0.2860(10) 0.3326(7) 0.2175(7)
H24_12 H 0.2835 0.3476 0.1759
H25_12 H 0.2932 0.3086 0.2049
H26_12 H 0.2567 0.3187 0.2425
C27_12 C 0.2997(11) 0.4245(9) 0.2725(16)
H27_12 H 0.2657 0.4096 0.2693
H28_12 H 0.3109 0.4250 0.2253
C28_12 C 0.3136(10) 0.4645(7) 0.2882(16)
H29_12 H 0.3444 0.4840 0.2687
H30_12 H 0.2926 0.4743 0.2704
H31_12 H 0.3152 0.4674 0.3384
H33_12 H 0.338006 0.412204 0.344714
C24_13 C 0.0051(5) 0.6221(9) 0.0679(10)
H20_13 H 0.0348 0.6238 0.0766
H21_13 H 0.0102 0.6488 0.0408
C26_13 C 0.0007(7) 0.6201(7) 0.8842(7)
H25_13 H 0.0247 0.6513 0.8716
H26_13 H 0.0146 0.6047 0.9092
C23_13 C 0.9741(6) 0.5786(7) 0.0290(8)
H17_13 H 0.9932 0.5694 0.0019
H18_13 H 0.9557 0.5536 0.0620
H19_13 H 0.9907 0.6219 0.1118
H31_13 H 0.8659 0.5145 0.0051
H33_13 H 0.921129 0.592468 0.0113805
N1_13 N 0.9416(3) 0.5848(2) 0.9807(4)
C25_13 C 0.9642(4) 0.6227(4) 0.9310(5)
H22_13 H 0.9402 0.6229 0.9013
H23_13 H 0.9795 0.6523 0.9564
H24_13 H 0.9857 0.6026 0.8426
C27_13 C 0.9088(9) 0.5419(7) 0.9392(16)
H27_13 H 0.9237 0.5228 0.9360
H28_13 H 0.9083 0.5526 0.8920
C28_13 C 0.8688(7) 0.5158(7) 0.9549(16)
H29_13 H 0.8493 0.5271 0.9354
H30_13 H 0.8590 0.4850 0.9371
C23_14 C 0.4214(7) 0.3956(9) 0.0290(8)
H17_14 H 0.4306 0.4239 0.0019
H18_14 H 0.4464 0.4022 0.0620
C24_14 C 0.3779(9) 0.3831(10) 0.0679(10)
H19_14 H 0.3781 0.3689 0.1118
H20_14 H 0.3762 0.4111 0.0766
H21_14 H 0.3512 0.3615 0.0408
H31_14 H 0.4855 0.3515 0.0051
H33_14 H 0.407532 0.328661 0.0113805
N1_14 N 0.4152(2) 0.3569(4) 0.9807(4)
C25_14 C 0.3773(4) 0.3416(6) 0.9310(5)
H22_14 H 0.3771 0.3174 0.9013
H23_14 H 0.3477 0.3273 0.9564
C26_14 C 0.3799(7) 0.3807(10) 0.8842(7)
H24_14 H 0.3974 0.3832 0.8426
H25_14 H 0.3487 0.3735 0.8716
H26_14 H 0.3953 0.4100 0.9092
C27_14 C 0.4581(7) 0.3670(11) 0.9392(16)
H27_14 H 0.4772 0.4010 0.9360
H28_14 H 0.4474 0.3558 0.8920
C28_14 C 0.4842(7) 0.3531(10) 0.9549(16)
H29_14 H 0.4729 0.3223 0.9354
H30_14 H 0.5150 0.3741 0.9371
C23_15 C 0.6044(9) 0.0259(6) 0.0290(8)
H17_15 H 0.5761 0.0068 0.0019
H18_15 H 0.5978 0.0443 0.0620
H19_15 H 0.6311 0.0093 0.1118
H31_15 H 0.6485 0.1341 0.0051
H33_15 H 0.671339 0.078871 0.0113805
N1_15 N 0.6431(4) 0.0584(3) 0.9807(4)
C25_15 C 0.6584(6) 0.0358(4) 0.9310(5)
H22_15 H 0.6826 0.0598 0.9013
H23_15 H 0.6727 0.0205 0.9564
H24_15 H 0.6168 0.0143 0.8426
C27_15 C 0.6330(11) 0.0912(9) 0.9392(16)
H27_15 H 0.5990 0.0763 0.9360
H28_15 H 0.6442 0.0917 0.8920
C28_15 C 0.6469(10) 0.1312(7) 0.9549(16)
H29_15 H 0.6777 0.1507 0.9354
H30_15 H 0.6259 0.1410 0.9371
C24_15 C 0.6169(10) 0.9949(5) 0.0679(10)
H20_15 H 0.5889 0.9652 0.0766
H21_15 H 0.6385 0.9898 0.0408
C26_15 C 0.6193(10) 0.9993(7) 0.8842(7)
H25_15 H 0.6265 0.9753 0.8716
H26_15 H 0.5900 0.9854 0.9092
N1_16 N 0.2750(3) 0.2514(2) 0.6473(4)
C23_16 C 0.3075(6) 0.2452(7) 0.6956(8)
H17_16 H 0.3266 0.2360 0.6685
H18_16 H 0.2891 0.2202 0.7286
C24_16 C 0.3385(5) 0.2887(9) 0.7345(10)
H19_16 H 0.3241 0.2885 0.7784
H20_16 H 0.3682 0.2904 0.7432
H21_16 H 0.3436 0.3154 0.7074
C25_16 C 0.2976(4) 0.2893(4) 0.5976(5)
H22_16 H 0.2736 0.2895 0.5679
H23_16 H 0.3129 0.3189 0.6230
C26_16 C 0.3341(7) 0.2867(7) 0.5508(7)
H24_16 H 0.3191 0.2692 0.5092
H25_16 H 0.3581 0.3179 0.5382
H26_16 H 0.3480 0.2713 0.5758
C27_16 C 0.2422(9) 0.2085(7) 0.6058(16)
H27_16 H 0.2571 0.1894 0.6026
H28_16 H 0.2417 0.2192 0.5586
C28_16 C 0.2022(7) 0.1824(7) 0.6215(16)
H29_16 H 0.1827 0.1937 0.6020
H30_16 H 0.1924 0.1516 0.6037
H31_16 H 0.1993 0.1811 0.6717
H33_16 H 0.254462 0.259135 0.678047
N1_17 N 0.7486(2) 0.0235(4) 0.6473(4)
C23_17 C 0.7548(7) 0.0622(9) 0.6956(8)
H17_17 H 0.7640 0.0905 0.6685
H18_17 H 0.7798 0.0688 0.7286
C24_17 C 0.7113(9) 0.0497(10) 0.7345(10)
H19_17 H 0.7115 0.0355 0.7784
H20_17 H 0.7096 0.0777 0.7432
H21_17 H 0.6846 0.0281 0.7074
C25_17 C 0.7107(4) 0.0082(6) 0.5976(5)
C26_17 C 0.7133(7) 0.0473(10) 0.5508(7)
H24_17 H 0.7308 0.0498 0.5092
H25_17 H 0.6821 0.0401 0.5382
H26_17 H 0.7287 0.0766 0.5758
C27_17 C 0.7915(7) 0.0336(11) 0.6058(16)
H27_17 H 0.8106 0.0676 0.6026
H28_17 H 0.7808 0.0224 0.5586
C28_17 C 0.8176(7) 0.0197(10) 0.6215(16)
H30_17 H 0.8484 0.0407 0.6037
H31_17 H 0.8189 0.0181 0.6717
H22_17 H 0.7105 0.9840 0.5679
H23_17 H 0.6811 0.9939 0.6230
H29_17 H 0.8063 0.9889 0.6020
H33_17 H 0.740865 0.995328 0.678047
H22_18 H 0.0160 0.7264 0.5679
H23_18 H 0.0061 0.6871 0.6230
H29_18 H 0.0111 0.8173 0.6020
H33_18 H 0.00467248 0.745538 0.678047
N1_18 N 0.9765(4) 0.7250(3) 0.6473(4)
C23_18 C 0.9378(9) 0.6925(6) 0.6956(8)
H17_18 H 0.9095 0.6734 0.6685
H18_18 H 0.9312 0.7109 0.7286
C24_18 C 0.9503(10) 0.6615(5) 0.7345(10)
H19_18 H 0.9645 0.6759 0.7784
H20_18 H 0.9223 0.6318 0.7432
H21_18 H 0.9719 0.6564 0.7074
C25_18 C 0.9918(6) 0.7024(4) 0.5976(5)
C26_18 C 0.9527(10) 0.6659(7) 0.5508(7)
H24_18 H 0.9502 0.6809 0.5092
H25_18 H 0.9599 0.6419 0.5382
H26_18 H 0.9234 0.6520 0.5758
C27_18 C 0.9664(11) 0.7578(9) 0.6058(16)
H27_18 H 0.9324 0.7429 0.6026
H28_18 H 0.9776 0.7583 0.5586
C28_18 C 0.9803(10) 0.7978(7) 0.6215(16)
H30_18 H 0.9593 0.8076 0.6037
H31_18 H 0.9819 0.8007 0.6717
loop_
_geom_bond_atom_site_label_1
_geom_bond_atom_site_label_2
_geom_bond_site_symmetry_1
_geom_bond_site_symmetry_2
Co1 O1 1_555 1_555
O1 C7 1_555 1_555
O2 C7 1_555 1_555
O7 Co1 1_555 1_555
O8 C16 1_555 1_555
O9 C17 1_555 1_555
O10 C17 1_555 1_555
O11 Co1 1_555 1_555
C10 C11 1_555 1_555
C11 C12 1_555 1_555
C12 C13 1_555 1_555
C13 C14 1_555 1_555
C14 C15 1_555 1_555
C15 C10 1_555 1_555
C16 O7 1_555 1_555
C17 C12 1_555 1_555
C20 O11 1_555 1_555
H6 C20 1_555 1_555
H7 C20 1_555 1_555
C21 C20 1_555 1_555
H8 C21 1_555 1_555
H9 C21 1_555 1_555
H10 C21 1_555 1_555
H14 C11 1_555 1_555
H15 C13 1_555 1_555
H16 C15 1_555 1_555
C22 C14 1_555 1_555
O13 C22 1_555 1_555
O14 C22 1_555 1_555
Co4 O13 1_555 1_555
Co7 O14 1_555 1_555
O19 Co1 1_555 1_555
O20 Co1 1_555 1_555
C10 C16 1_555 1_555
O14 Co4 1_555 1_555
Co2 O4 1_555 1_555
O3 C9 1_555 1_555
O4 C9 1_555 1_555
O5 C8 1_555 1_555
O6 C8 1_555 1_555
O12 Co2 1_555 1_555
C1 C2 1_555 1_555
C2 C3 1_555 1_555
C3 C4 1_555 1_555
C4 C5 1_555 1_555
C5 C6 1_555 1_555
C6 C1 1_555 1_555
C8 C5 1_555 1_555
C9 C3 1_555 1_555
C18 O12 1_555 1_555
H1 C18 1_555 1_555
H2 C18 1_555 1_555
C19 C18 1_555 1_555
H3 C19 1_555 1_555
H4 C19 1_555 1_555
H5 C19 1_555 1_555
H11 C2 1_555 1_555
H12 C4 1_555 1_555
O17 Co2 1_555 1_555
O18 Co2 1_555 1_555
O6 H32 1_555 1_555
Co3 O21 1_555 1_555
Co3_2 O21_2 1_555 1_555
Co1_2 O1_2 1_555 1_555
O1_2 C7_2 1_555 1_555
O2_2 C7_2 1_555 1_555
O7_2 Co1_2 1_555 1_555
O8_2 C16_2 1_555 1_555
O9_2 C17_2 1_555 1_555
O10_2 C17_2 1_555 1_555
O11_2 Co1_2 1_555 1_555
C10_2 C11_2 1_555 1_555
C11_2 C12_2 1_555 1_555
C12_2 C13_2 1_555 1_555
C13_2 C14_2 1_555 1_555
C14_2 C15_2 1_555 1_555
C15_2 C10_2 1_555 1_555
C16_2 O7_2 1_555 1_555
C17_2 C12_2 1_555 1_555
C20_2 O11_2 1_555 1_555
H6_2 C20_2 1_555 1_555
H7_2 C20_2 1_555 1_555
C21_2 C20_2 1_555 1_555
H8_2 C21_2 1_555 1_555
H9_2 C21_2 1_555 1_555
H10_2 C21_2 1_555 1_555
H14_2 C11_2 1_555 1_555
H15_2 C13_2 1_555 1_555
H16_2 C15_2 1_555 1_555
C22_2 C14_2 1_555 1_555
O13_2 C22_2 1_555 1_555
O14_2 C22_2 1_555 1_555
Co4_2 O13_2 1_555 1_555
Co7_2 O14_2 1_555 1_555
O19_2 Co1_2 1_555 1_555
O20_2 Co1_2 1_555 1_555
C10_2 C16_2 1_555 1_555
O14_2 Co4_2 1_555 1_555
Co2_2 O4_2 1_555 1_555
O3_2 C9_2 1_555 1_555
O4_2 C9_2 1_555 1_555
O5_2 C8_2 1_555 1_555
O6_2 C8_2 1_555 1_555
O12_2 Co2_2 1_555 1_555
C1_2 C2_2 1_555 1_555
C2_2 C3_2 1_555 1_555
C3_2 C4_2 1_555 1_555
C4_2 C5_2 1_555 1_555
C5_2 C6_2 1_555 1_555
C6_2 C1_2 1_555 1_555
C8_2 C5_2 1_555 1_555
C9_2 C3_2 1_555 1_555
C18_2 O12_2 1_555 1_555
H1_2 C18_2 1_555 1_555
H2_2 C18_2 1_555 1_555
C19_2 C18_2 1_555 1_555
H3_2 C19_2 1_555 1_555
H4_2 C19_2 1_555 1_555
H5_2 C19_2 1_555 1_555
H11_2 C2_2 1_555 1_555
H12_2 C4_2 1_555 1_555
O17_2 Co2_2 1_555 1_555
O18_2 Co2_2 1_555 1_555
O6_2 H32_2 1_555 1_555
Co1_3 O1_3 1_555 1_555
O1_3 C7_3 1_555 1_555
O2_3 C7_3 1_555 1_555
O7_3 Co1_3 1_555 1_555
O8_3 C16_3 1_555 1_555
O9_3 C17_3 1_555 1_555
O10_3 C17_3 1_555 1_555
O11_3 Co1_3 1_555 1_555
C10_3 C11_3 1_555 1_555
C11_3 C12_3 1_555 1_555
C12_3 C13_3 1_555 1_555
C13_3 C14_3 1_555 1_555
C14_3 C15_3 1_555 1_555
C15_3 C10_3 1_555 1_555
C16_3 O7_3 1_555 1_555
C17_3 C12_3 1_555 1_555
C20_3 O11_3 1_555 1_555
H6_3 C20_3 1_555 1_555
H7_3 C20_3 1_555 1_555
C21_3 C20_3 1_555 1_555
H8_3 C21_3 1_555 1_555
H9_3 C21_3 1_555 1_555
H10_3 C21_3 1_555 1_555
H14_3 C11_3 1_555 1_555
H15_3 C13_3 1_555 1_555
H16_3 C15_3 1_555 1_555
C22_3 C14_3 1_555 1_555
O13_3 C22_3 1_555 1_555
O14_3 C22_3 1_555 1_555
Co4_3 O13_3 1_555 1_555
Co5_3 O8_3 1_555 1_555
Co7_3 O14_3 1_555 1_555
O15_3 Co1_3 1_555 1_555
O19_3 Co1_3 1_555 1_555
O20_3 Co1_3 1_555 1_555
C10_3 C16_3 1_555 1_555
O14_3 Co4_3 1_555 1_555
Co5_3 O20_3 1_555 1_555
Co2_3 O4_3 1_555 1_555
O3_3 C9_3 1_555 1_555
O4_3 C9_3 1_555 1_555
O5_3 C8_3 1_555 1_555
O6_3 C8_3 1_555 1_555
O12_3 Co2_3 1_555 1_555
C1_3 C2_3 1_555 1_555
C2_3 C3_3 1_555 1_555
C3_3 C4_3 1_555 1_555
C4_3 C5_3 1_555 1_555
C5_3 C6_3 1_555 1_555
C6_3 C1_3 1_555 1_555
C8_3 C5_3 1_555 1_555
C9_3 C3_3 1_555 1_555
C18_3 O12_3 1_555 1_555
H1_3 C18_3 1_555 1_555
H2_3 C18_3 1_555 1_555
C19_3 C18_3 1_555 1_555
H3_3 C19_3 1_555 1_555
H4_3 C19_3 1_555 1_555
H5_3 C19_3 1_555 1_555
H11_3 C2_3 1_555 1_555
H12_3 C4_3 1_555 1_555
Co3_3 O3_3 1_555 1_555
O16_3 Co2_3 1_555 1_555
O17_3 Co2_3 1_555 1_555
O18_3 Co2_3 1_555 1_555
O21_3 Co2_3 1_555 1_555
Co3_3 O21_3 1_555 1_555
O6_3 H32_3 1_555 1_555
Co1_4 O1_4 1_555 1_555
Co2_4 O4_4 1_555 1_555
O1_4 C7_4 1_555 1_555
O2_4 C7_4 1_555 1_555
O3_4 C9_4 1_555 1_555
O4_4 C9_4 1_555 1_555
O5_4 C8_4 1_555 1_555
O6_4 C8_4 1_555 1_555
O7_4 Co1_4 1_555 1_555
O8_4 C16_4 1_555 1_555
O9_4 C17_4 1_555 1_555
O10_4 C17_4 1_555 1_555
O11_4 Co1_4 1_555 1_555
C1_4 C2_4 1_555 1_555
C2_4 C3_4 1_555 1_555
C3_4 C4_4 1_555 1_555
C4_4 C5_4 1_555 1_555
C5_4 C6_4 1_555 1_555
C6_4 C1_4 1_555 1_555
C7_4 C1_4 1_555 1_555
C8_4 C5_4 1_555 1_555
C9_4 C3_4 1_555 1_555
C10_4 C11_4 1_555 1_555
C11_4 C12_4 1_555 1_555
C12_4 C13_4 1_555 1_555
C13_4 C14_4 1_555 1_555
C14_4 C15_4 1_555 1_555
C15_4 C10_4 1_555 1_555
C16_4 O7_4 1_555 1_555
C17_4 C12_4 1_555 1_555
H1_4 C18_4 1_555 1_555
C19_4 C18_4 1_555 1_555
H3_4 C19_4 1_555 1_555
H4_4 C19_4 1_555 1_555
H5_4 C19_4 1_555 1_555
C20_4 O11_4 1_555 1_555
H6_4 C20_4 1_555 1_555
H7_4 C20_4 1_555 1_555
C21_4 C20_4 1_555 1_555
H8_4 C21_4 1_555 1_555
H9_4 C21_4 1_555 1_555
H10_4 C21_4 1_555 1_555
H11_4 C2_4 1_555 1_555
H12_4 C4_4 1_555 1_555
H13_4 C6_4 1_555 1_555
H14_4 C11_4 1_555 1_555
H15_4 C13_4 1_555 1_555
H16_4 C15_4 1_555 1_555
C22_4 C14_4 1_555 1_555
O13_4 C22_4 1_555 1_555
O21_3 C22_4 1_555 1_555
Co3_4 O3_4 1_555 1_555
Co3_3 O13_4 1_555 1_555
Co5_4 O8_4 1_555 1_555
Co5_3 O9_4 1_555 1_555
O15_4 Co1_4 1_555 1_555
O16_4 Co2_4 1_555 1_555
O19_4 Co1_4 1_555 1_555
O20_4 Co1_4 1_555 1_555
O21_4 Co2_4 1_555 1_555
O10_4 Co5_3 1_555 1_555
C10_4 C16_4 1_555 1_555
Co3_4 O21_4 1_555 1_555
Co5_4 O20_4 1_555 1_555
O6_4 H32_4 1_555 1_555
Co1_5 O1_5 1_555 1_555
Co2_5 O4_5 1_555 1_555
O1_5 C7_5 1_555 1_555
O2_5 C7_5 1_555 1_555
O3_5 C9_5 1_555 1_555
O4_5 C9_5 1_555 1_555
O5_5 C8_5 1_555 1_555
O6_5 C8_5 1_555 1_555
O7_5 Co1_5 1_555 1_555
O8_5 C16_5 1_555 1_555
O9_5 C17_5 1_555 1_555
O10_5 C17_5 1_555 1_555
O11_5 Co1_5 1_555 1_555
C1_5 C2_5 1_555 1_555
C2_5 C3_5 1_555 1_555
C3_5 C4_5 1_555 1_555
C4_5 C5_5 1_555 1_555
C5_5 C6_5 1_555 1_555
C6_5 C1_5 1_555 1_555
C7_5 C1_5 1_555 1_555
C8_5 C5_5 1_555 1_555
C9_5 C3_5 1_555 1_555
C10_5 C11_5 1_555 1_555
C11_5 C12_5 1_555 1_555
C12_5 C13_5 1_555 1_555
C13_5 C14_5 1_555 1_555
C14_5 C15_5 1_555 1_555
C15_5 C10_5 1_555 1_555
C16_5 O7_5 1_555 1_555
C17_5 C12_5 1_555 1_555
H1_5 C18_5 1_555 1_555
C19_5 C18_5 1_555 1_555
H3_5 C19_5 1_555 1_555
H4_5 C19_5 1_555 1_555
H5_5 C19_5 1_555 1_555
C20_5 O11_5 1_555 1_555
H6_5 C20_5 1_555 1_555
H7_5 C20_5 1_555 1_555
C21_5 C20_5 1_555 1_555
H8_5 C21_5 1_555 1_555
H9_5 C21_5 1_555 1_555
H10_5 C21_5 1_555 1_555
H11_5 C2_5 1_555 1_555
H12_5 C4_5 1_555 1_555
H13_5 C6_5 1_555 1_555
H14_5 C11_5 1_555 1_555
H15_5 C13_5 1_555 1_555
H16_5 C15_5 1_555 1_555
C22_5 C14_5 1_555 1_555
O13_5 C22_5 1_555 1_555
O21 C22_5 1_555 1_555
Co3_5 O3_5 1_555 1_555
Co3 O13_5 1_555 1_555
Co5_5 O8_5 1_555 1_555
Co5 O9_5 1_555 1_555
O15_5 Co1_5 1_555 1_555
O16_5 Co2_5 1_555 1_555
O19_5 Co1_5 1_555 1_555
O20_5 Co1_5 1_555 1_555
O21_5 Co2_5 1_555 1_555
O10_5 Co5 1_555 1_555
C10_5 C16_5 1_555 1_555
Co3_5 O21_5 1_555 1_555
Co5_5 O20_5 1_555 1_555
O6_5 H32_5 1_555 1_555
Co1_6 O1_6 1_555 1_555
Co2_6 O4_6 1_555 1_555
O1_6 C7_6 1_555 1_555
O2_6 C7_6 1_555 1_555
O3_6 C9_6 1_555 1_555
O4_6 C9_6 1_555 1_555
O5_6 C8_6 1_555 1_555
O6_6 C8_6 1_555 1_555
O7_6 Co1_6 1_555 1_555
O8_6 C16_6 1_555 1_555
O9_6 C17_6 1_555 1_555
O10_6 C17_6 1_555 1_555
O11_6 Co1_6 1_555 1_555
C1_6 C2_6 1_555 1_555
C2_6 C3_6 1_555 1_555
C3_6 C4_6 1_555 1_555
C4_6 C5_6 1_555 1_555
C5_6 C6_6 1_555 1_555
C6_6 C1_6 1_555 1_555
C7_6 C1_6 1_555 1_555
C8_6 C5_6 1_555 1_555
C9_6 C3_6 1_555 1_555
C10_6 C11_6 1_555 1_555
C11_6 C12_6 1_555 1_555
C12_6 C13_6 1_555 1_555
C13_6 C14_6 1_555 1_555
C14_6 C15_6 1_555 1_555
C15_6 C10_6 1_555 1_555
C16_6 O7_6 1_555 1_555
C17_6 C12_6 1_555 1_555
H1_6 C18_6 1_555 1_555
C19_6 C18_6 1_555 1_555
H3_6 C19_6 1_555 1_555
H4_6 C19_6 1_555 1_555
H5_6 C19_6 1_555 1_555
C20_6 O11_6 1_555 1_555
H6_6 C20_6 1_555 1_555
H7_6 C20_6 1_555 1_555
C21_6 C20_6 1_555 1_555
H8_6 C21_6 1_555 1_555
H9_6 C21_6 1_555 1_555
H10_6 C21_6 1_555 1_555
H11_6 C2_6 1_555 1_555
H12_6 C4_6 1_555 1_555
H13_6 C6_6 1_555 1_555
H14_6 C11_6 1_555 1_555
H15_6 C13_6 1_555 1_555
H16_6 C15_6 1_555 1_555
C22_6 C14_6 1_555 1_555
O13_6 C22_6 1_555 1_555
O21_2 C22_6 1_555 1_555
Co3_6 O3_6 1_555 1_555
Co3_2 O13_6 1_555 1_555
Co5_6 O8_6 1_555 1_555
Co5_2 O9_6 1_555 1_555
O15_6 Co1_6 1_555 1_555
O16_6 Co2_6 1_555 1_555
O19_6 Co1_6 1_555 1_555
O20_6 Co1_6 1_555 1_555
O21_6 Co2_6 1_555 1_555
O10_6 Co5_2 1_555 1_555
C10_6 C16_6 1_555 1_555
Co3_6 O21_6 1_555 1_555
Co5_6 O20_6 1_555 1_555
O6_6 H32_6 1_555 1_555
O13_7 C22_7 1_555 1_555
O21_6 C22_7 1_555 1_555
Co3_6 O13_7 1_555 1_555
O9_7 C17_7 1_555 1_555
O10_7 C17_7 1_555 1_555
C11_7 C12_7 1_555 1_555
C12_7 C13_7 1_555 1_555
C13_7 C14_7 1_555 1_555
C14_7 C15_7 1_555 1_555
C17_7 C12_7 1_555 1_555
H15_7 C13_7 1_555 1_555
Co5_6 O9_7 1_555 1_555
O10_7 Co5_6 1_555 1_555
Co1_7 O1_7 1_555 1_555
Co7_2 O4_7 1_555 1_555
O1_7 C7_7 1_555 1_555
O2_7 C7_7 1_555 1_555
O3_7 C9_7 1_555 1_555
O4_7 C9_7 1_555 1_555
O5_7 C8_7 1_555 1_555
O6_7 C8_7 1_555 1_555
O7_7 Co1_7 1_555 1_555
O8_7 C16_7 1_555 1_555
O11_7 Co1_7 1_555 1_555
O12_7 Co7_2 1_555 1_555
C1_7 C2_7 1_555 1_555
C2_7 C3_7 1_555 1_555
C3_7 C4_7 1_555 1_555
C4_7 C5_7 1_555 1_555
C5_7 C6_7 1_555 1_555
C6_7 C1_7 1_555 1_555
C7_7 C1_7 1_555 1_555
C8_7 C5_7 1_555 1_555
C9_7 C3_7 1_555 1_555
C16_7 O7_7 1_555 1_555
C18_7 O12_7 1_555 1_555
H1_7 C18_7 1_555 1_555
H2_7 C18_7 1_555 1_555
C19_7 C18_7 1_555 1_555
H3_7 C19_7 1_555 1_555
H4_7 C19_7 1_555 1_555
H5_7 C19_7 1_555 1_555
C20_7 O11_7 1_555 1_555
H6_7 C20_7 1_555 1_555
H7_7 C20_7 1_555 1_555
C21_7 C20_7 1_555 1_555
H8_7 C21_7 1_555 1_555
H10_7 C21_7 1_555 1_555
H11_7 C2_7 1_555 1_555
H12_7 C4_7 1_555 1_555
H13_7 C6_7 1_555 1_555
Co4_2 O3_7 1_555 1_555
Co6_2 O8_7 1_555 1_555
O15_7 Co1_7 1_555 1_555
O16_7 Co7_2 1_555 1_555
O17_7 Co7_2 1_555 1_555
O18_7 Co7_2 1_555 1_555
O19_7 Co1_7 1_555 1_555
O20_7 Co1_7 1_555 1_555
C10_7 C16_7 1_555 1_555
Co6_2 O20_7 1_555 1_555
O6_7 H32_7 1_555 1_555
O13_8 C22_8 1_555 1_555
O21_4 C22_8 1_555 1_555
Co3_4 O13_8 1_555 1_555
Co1_8 O1_8 1_555 1_555
Co7_3 O4_8 1_555 1_555
O1_8 C7_8 1_555 1_555
O2_8 C7_8 1_555 1_555
O3_8 C9_8 1_555 1_555
O4_8 C9_8 1_555 1_555
O5_8 C8_8 1_555 1_555
O6_8 C8_8 1_555 1_555
O7_8 Co1_8 1_555 1_555
O8_8 C16_8 1_555 1_555
O9_8 C17_8 1_555 1_555
O10_8 C17_8 1_555 1_555
O11_8 Co1_8 1_555 1_555
O12_8 Co7_3 1_555 1_555
C1_8 C2_8 1_555 1_555
C2_8 C3_8 1_555 1_555
C3_8 C4_8 1_555 1_555
C4_8 C5_8 1_555 1_555
C5_8 C6_8 1_555 1_555
C6_8 C1_8 1_555 1_555
C7_8 C1_8 1_555 1_555
C8_8 C5_8 1_555 1_555
C9_8 C3_8 1_555 1_555
C10_8 C11_8 1_555 1_555
C11_8 C12_8 1_555 1_555
C12_8 C13_8 1_555 1_555
C13_8 C14_8 1_555 1_555
C14_8 C15_8 1_555 1_555
C15_8 C10_8 1_555 1_555
C16_8 O7_8 1_555 1_555
C17_8 C12_8 1_555 1_555
C18_8 O12_8 1_555 1_555
H1_8 C18_8 1_555 1_555
H2_8 C18_8 1_555 1_555
C19_8 C18_8 1_555 1_555
H3_8 C19_8 1_555 1_555
H4_8 C19_8 1_555 1_555
H5_8 C19_8 1_555 1_555
C20_8 O11_8 1_555 1_555
H6_8 C20_8 1_555 1_555
H7_8 C20_8 1_555 1_555
C21_8 C20_8 1_555 1_555
H8_8 C21_8 1_555 1_555
H10_8 C21_8 1_555 1_555
H11_8 C2_8 1_555 1_555
H12_8 C4_8 1_555 1_555
H13_8 C6_8 1_555 1_555
H14_8 C11_8 1_555 1_555
H15_8 C13_8 1_555 1_555
Co4_3 O3_8 1_555 1_555
Co6_3 O8_8 1_555 1_555
Co5_4 O9_8 1_555 1_555
O15_8 Co1_8 1_555 1_555
O16_8 Co7_3 1_555 1_555
O17_8 Co7_3 1_555 1_555
O18_8 Co7_3 1_555 1_555
O19_8 Co1_8 1_555 1_555
O20_8 Co1_8 1_555 1_555
O10_8 Co5_4 1_555 1_555
C10_8 C16_8 1_555 1_555
Co6_3 O20_8 1_555 1_555
O6_8 H32_8 1_555 1_555
Co1_9 O1_9 1_555 1_555
Co7 O4_9 1_555 1_555
O1_9 C7_9 1_555 1_555
O2_9 C7_9 1_555 1_555
O3_9 C9_9 1_555 1_555
O4_9 C9_9 1_555 1_555
O5_9 C8_9 1_555 1_555
O6_9 C8_9 1_555 1_555
O7_9 Co1_9 1_555 1_555
O8_9 C16_9 1_555 1_555
O11_9 Co1_9 1_555 1_555
O12_9 Co7 1_555 1_555
C1_9 C2_9 1_555 1_555
C2_9 C3_9 1_555 1_555
C3_9 C4_9 1_555 1_555
C4_9 C5_9 1_555 1_555
C5_9 C6_9 1_555 1_555
C6_9 C1_9 1_555 1_555
C7_9 C1_9 1_555 1_555
C8_9 C5_9 1_555 1_555
C9_9 C3_9 1_555 1_555
C16_9 O7_9 1_555 1_555
C18_9 O12_9 1_555 1_555
H1_9 C18_9 1_555 1_555
H2_9 C18_9 1_555 1_555
C19_9 C18_9 1_555 1_555
H3_9 C19_9 1_555 1_555
H4_9 C19_9 1_555 1_555
H5_9 C19_9 1_555 1_555
C20_9 O11_9 1_555 1_555
H6_9 C20_9 1_555 1_555
H7_9 C20_9 1_555 1_555
C21_9 C20_9 1_555 1_555
H8_9 C21_9 1_555 1_555
H10_9 C21_9 1_555 1_555
H11_9 C2_9 1_555 1_555
H12_9 C4_9 1_555 1_555
H13_9 C6_9 1_555 1_555
Co4 O3_9 1_555 1_555
Co6 O8_9 1_555 1_555
O15_9 Co1_9 1_555 1_555
O16_9 Co7 1_555 1_555
O17_9 Co7 1_555 1_555
O18_9 Co7 1_555 1_555
O19_9 Co1_9 1_555 1_555
O20_9 Co1_9 1_555 1_555
C10_9 C16_9 1_555 1_555
Co6 O20_9 1_555 1_555
O6_9 H32_9 1_555 1_555
O13_9 C22_9 1_555 1_555
O21_5 C22_9 1_555 1_555
Co3_5 O13_9 1_555 1_555
O9_9 C17_9 1_555 1_555
O10_9 C17_9 1_555 1_555
C11_9 C12_9 1_555 1_555
C12_9 C13_9 1_555 1_555
C13_9 C14_9 1_555 1_555
C14_9 C15_9 1_555 1_555
C17_9 C12_9 1_555 1_555
H15_9 C13_9 1_555 1_555
Co5_5 O9_9 1_555 1_555
O10_9 Co5_5 1_555 1_555
Co5 O4_10 1_555 1_555
O15 C9_10 1_555 1_555
O4_10 C9_10 1_555 1_555
O5_10 C8_10 1_555 1_555
O6_10 C8_10 1_555 1_555
O12_10 Co5 1_555 1_555
C1_10 C2_10 1_555 1_555
C2_10 C3_10 1_555 1_555
C3_10 C4_10 1_555 1_555
C4_10 C5_10 1_555 1_555
C5_10 C6_10 1_555 1_555
C6_10 C1_10 1_555 1_555
C8_10 C5_10 1_555 1_555
C9_10 C3_10 1_555 1_555
C18_10 O12_10 1_555 1_555
H1_10 C18_10 1_555 1_555
H2_10 C18_10 1_555 1_555
C19_10 C18_10 1_555 1_555
H3_10 C19_10 1_555 1_555
H4_10 C19_10 1_555 1_555
H5_10 C19_10 1_555 1_555
H11_10 C2_10 1_555 1_555
H12_10 C4_10 1_555 1_555
O6_10 H32_10 1_555 1_555
Co3 O1_10 1_555 1_555
O1_10 C7_10 1_555 1_555
O2_10 C7_10 1_555 1_555
O7_10 Co3 1_555 1_555
O16 C16_10 1_555 1_555
O17_6 C17_10 1_555 1_555
O18_6 C17_10 1_555 1_555
O11_10 Co3 1_555 1_555
C10_10 C11_10 1_555 1_555
C11_10 C12_10 1_555 1_555
C12_10 C13_10 1_555 1_555
C13_10 C14_10 1_555 1_555
C14_10 C15_10 1_555 1_555
C15_10 C10_10 1_555 1_555
C16_10 O7_10 1_555 1_555
C17_10 C12_10 1_555 1_555
C20_10 O11_10 1_555 1_555
H6_10 C20_10 1_555 1_555
H7_10 C20_10 1_555 1_555
C21_10 C20_10 1_555 1_555
H8_10 C21_10 1_555 1_555
H9_8 C21_10 1_555 1_555
H10_10 C21_10 1_555 1_555
H14_10 C11_10 1_555 1_555
H15_10 C13_10 1_555 1_555
H16_10 C15_10 1_555 1_555
C22_10 C14_10 1_555 1_555
O19_6 C22_10 1_555 1_555
O20_6 C22_10 1_555 1_555
C10_10 C16_10 1_555 1_555
Co5_2 O4_11 1_555 1_555
O15_2 C9_11 1_555 1_555
O4_11 C9_11 1_555 1_555
O5_11 C8_11 1_555 1_555
O6_11 C8_11 1_555 1_555
O12_11 Co5_2 1_555 1_555
C1_11 C2_11 1_555 1_555
C2_11 C3_11 1_555 1_555
C3_11 C4_11 1_555 1_555
C4_11 C5_11 1_555 1_555
C5_11 C6_11 1_555 1_555
C6_11 C1_11 1_555 1_555
C8_11 C5_11 1_555 1_555
C9_11 C3_11 1_555 1_555
C18_11 O12_11 1_555 1_555
H1_11 C18_11 1_555 1_555
H2_11 C18_11 1_555 1_555
C19_11 C18_11 1_555 1_555
H3_11 C19_11 1_555 1_555
H4_11 C19_11 1_555 1_555
H5_11 C19_11 1_555 1_555
H11_11 C2_11 1_555 1_555
H12_11 C4_11 1_555 1_555
O6_11 H32_11 1_555 1_555
Co3_2 O1_11 1_555 1_555
O1_11 C7_11 1_555 1_555
O2_11 C7_11 1_555 1_555
O7_11 Co3_2 1_555 1_555
O16_2 C16_11 1_555 1_555
O17_4 C17_11 1_555 1_555
O18_4 C17_11 1_555 1_555
O11_11 Co3_2 1_555 1_555
C10_11 C11_11 1_555 1_555
C11_11 C12_11 1_555 1_555
C12_11 C13_11 1_555 1_555
C13_11 C14_11 1_555 1_555
C14_11 C15_11 1_555 1_555
C15_11 C10_11 1_555 1_555
C16_11 O7_11 1_555 1_555
C17_11 C12_11 1_555 1_555
C20_11 O11_11 1_555 1_555
H6_11 C20_11 1_555 1_555
H7_11 C20_11 1_555 1_555
C21_11 C20_11 1_555 1_555
H8_11 C21_11 1_555 1_555
H9_9 C21_11 1_555 1_555
H10_11 C21_11 1_555 1_555
H14_11 C11_11 1_555 1_555
H15_11 C13_11 1_555 1_555
H16_11 C15_11 1_555 1_555
C22_11 C14_11 1_555 1_555
O19_4 C22_11 1_555 1_555
O20_4 C22_11 1_555 1_555
C10_11 C16_11 1_555 1_555
Co5_3 O4_12 1_555 1_555
O15_3 C9_12 1_555 1_555
O4_12 C9_12 1_555 1_555
O5_12 C8_12 1_555 1_555
O6_12 C8_12 1_555 1_555
O12_12 Co5_3 1_555 1_555
C1_12 C2_12 1_555 1_555
C2_12 C3_12 1_555 1_555
C3_12 C4_12 1_555 1_555
C4_12 C5_12 1_555 1_555
C5_12 C6_12 1_555 1_555
C6_12 C1_12 1_555 1_555
C8_12 C5_12 1_555 1_555
C9_12 C3_12 1_555 1_555
C18_12 O12_12 1_555 1_555
H1_12 C18_12 1_555 1_555
H2_12 C18_12 1_555 1_555
C19_12 C18_12 1_555 1_555
H3_12 C19_12 1_555 1_555
H4_12 C19_12 1_555 1_555
H5_12 C19_12 1_555 1_555
H11_12 C2_12 1_555 1_555
H12_12 C4_12 1_555 1_555
O6_12 H32_12 1_555 1_555
Co3_3 O1_12 1_555 1_555
O1_12 C7_12 1_555 1_555
O2_12 C7_12 1_555 1_555
O7_12 Co3_3 1_555 1_555
O16_3 C16_12 1_555 1_555
O17_5 C17_12 1_555 1_555
O18_5 C17_12 1_555 1_555
O11_12 Co3_3 1_555 1_555
C10_12 C11_12 1_555 1_555
C11_12 C12_12 1_555 1_555
C12_12 C13_12 1_555 1_555
C13_12 C14_12 1_555 1_555
C14_12 C15_12 1_555 1_555
C15_12 C10_12 1_555 1_555
C16_12 O7_12 1_555 1_555
C17_12 C12_12 1_555 1_555
C20_12 O11_12 1_555 1_555
H6_12 C20_12 1_555 1_555
H7_12 C20_12 1_555 1_555
C21_12 C20_12 1_555 1_555
H8_12 C21_12 1_555 1_555
H9_10 C21_12 1_555 1_555
H10_12 C21_12 1_555 1_555
H14_12 C11_12 1_555 1_555
H15_12 C13_12 1_555 1_555
H16_12 C15_12 1_555 1_555
C22_12 C14_12 1_555 1_555
O19_5 C22_12 1_555 1_555
O20_5 C22_12 1_555 1_555
C10_12 C16_12 1_555 1_555
Co4_2 O1_13 1_555 1_555
Co6_2 O4_13 1_555 1_555
O1_13 C7_13 1_555 1_555
O2_13 C7_13 1_555 1_555
O15_7 C9_13 1_555 1_555
O4_13 C9_13 1_555 1_555
O5_13 C8_13 1_555 1_555
O6_13 C8_13 1_555 1_555
O7_13 Co4_2 1_555 1_555
O16_7 C16_13 1_555 1_555
O17_3 C17_13 1_555 1_555
O18_3 C17_13 1_555 1_555
O11_13 Co4_2 1_555 1_555
C1_13 C2_13 1_555 1_555
C2_13 C3_13 1_555 1_555
C3_13 C4_13 1_555 1_555
C4_13 C5_13 1_555 1_555
C5_13 C6_13 1_555 1_555
C6_13 C1_13 1_555 1_555
C7_13 C1_13 1_555 1_555
C8_13 C5_13 1_555 1_555
C9_13 C3_13 1_555 1_555
C10_13 C11_13 1_555 1_555
C11_13 C12_13 1_555 1_555
C12_13 C13_13 1_555 1_555
C13_13 C14_13 1_555 1_555
C14_13 C15_13 1_555 1_555
C15_13 C10_13 1_555 1_555
C16_13 O7_13 1_555 1_555
C17_13 C12_13 1_555 1_555
H1_13 C18_13 1_555 1_555
C19_13 C18_13 1_555 1_555
H3_13 C19_13 1_555 1_555
H4_13 C19_13 1_555 1_555
H5_13 C19_13 1_555 1_555
C20_13 O11_13 1_555 1_555
H6_13 C20_13 1_555 1_555
H7_13 C20_13 1_555 1_555
C21_13 C20_13 1_555 1_555
H8_13 C21_13 1_555 1_555
H9_11 C21_13 1_555 1_555
H10_13 C21_13 1_555 1_555
H11_13 C2_13 1_555 1_555
H12_13 C4_13 1_555 1_555
H13_13 C6_13 1_555 1_555
H14_13 C11_13 1_555 1_555
H15_13 C13_13 1_555 1_555
H16_13 C15_13 1_555 1_555
C22_13 C14_13 1_555 1_555
O19_3 C22_13 1_555 1_555
O20_3 C22_13 1_555 1_555
C10_13 C16_13 1_555 1_555
O6_13 H32_13 1_555 1_555
Co4_3 O1_14 1_555 1_555
Co6_3 O4_14 1_555 1_555
O1_14 C7_14 1_555 1_555
O2_14 C7_14 1_555 1_555
O15_8 C9_14 1_555 1_555
O4_14 C9_14 1_555 1_555
O5_14 C8_14 1_555 1_555
O6_14 C8_14 1_555 1_555
O7_14 Co4_3 1_555 1_555
O16_8 C16_14 1_555 1_555
O17 C17_14 1_555 1_555
O18 C17_14 1_555 1_555
O11_14 Co4_3 1_555 1_555
C1_14 C2_14 1_555 1_555
C2_14 C3_14 1_555 1_555
C3_14 C4_14 1_555 1_555
C4_14 C5_14 1_555 1_555
C5_14 C6_14 1_555 1_555
C6_14 C1_14 1_555 1_555
C7_14 C1_14 1_555 1_555
C8_14 C5_14 1_555 1_555
C9_14 C3_14 1_555 1_555
C10_14 C11_14 1_555 1_555
C11_14 C12_14 1_555 1_555
C12_14 C13_14 1_555 1_555
C13_14 C14_14 1_555 1_555
C14_14 C15_14 1_555 1_555
C15_14 C10_14 1_555 1_555
C16_14 O7_14 1_555 1_555
C17_14 C12_14 1_555 1_555
H1_14 C18_14 1_555 1_555
C19_14 C18_14 1_555 1_555
H3_14 C19_14 1_555 1_555
H4_14 C19_14 1_555 1_555
H5_14 C19_14 1_555 1_555
C20_14 O11_14 1_555 1_555
H6_14 C20_14 1_555 1_555
H7_14 C20_14 1_555 1_555
C21_14 C20_14 1_555 1_555
H8_14 C21_14 1_555 1_555
H9_12 C21_14 1_555 1_555
H10_14 C21_14 1_555 1_555
H11_14 C2_14 1_555 1_555
H12_14 C4_14 1_555 1_555
H13_14 C6_14 1_555 1_555
H14_14 C11_14 1_555 1_555
H15_14 C13_14 1_555 1_555
H16_14 C15_14 1_555 1_555
C22_14 C14_14 1_555 1_555
O19 C22_14 1_555 1_555
O20 C22_14 1_555 1_555
C10_14 C16_14 1_555 1_555
O6_14 H32_14 1_555 1_555
Co4 O1_15 1_555 1_555
Co6 O4_15 1_555 1_555
O1_15 C7_15 1_555 1_555
O2_15 C7_15 1_555 1_555
O15_9 C9_15 1_555 1_555
O4_15 C9_15 1_555 1_555
O5_15 C8_15 1_555 1_555
O6_15 C8_15 1_555 1_555
O7_15 Co4 1_555 1_555
O16_9 C16_15 1_555 1_555
O17_2 C17_15 1_555 1_555
O18_2 C17_15 1_555 1_555
O11_15 Co4 1_555 1_555
C1_15 C2_15 1_555 1_555
C2_15 C3_15 1_555 1_555
C3_15 C4_15 1_555 1_555
C4_15 C5_15 1_555 1_555
C5_15 C6_15 1_555 1_555
C6_15 C1_15 1_555 1_555
C7_15 C1_15 1_555 1_555
C8_15 C5_15 1_555 1_555
C9_15 C3_15 1_555 1_555
C10_15 C11_15 1_555 1_555
C11_15 C12_15 1_555 1_555
C12_15 C13_15 1_555 1_555
C13_15 C14_15 1_555 1_555
C14_15 C15_15 1_555 1_555
C15_15 C10_15 1_555 1_555
C16_15 O7_15 1_555 1_555
C17_15 C12_15 1_555 1_555
H1_15 C18_15 1_555 1_555
C19_15 C18_15 1_555 1_555
H3_15 C19_15 1_555 1_555
H4_15 C19_15 1_555 1_555
H5_15 C19_15 1_555 1_555
C20_15 O11_15 1_555 1_555
H6_15 C20_15 1_555 1_555
H7_15 C20_15 1_555 1_555
C21_15 C20_15 1_555 1_555
H8_15 C21_15 1_555 1_555
H9_13 C21_15 1_555 1_555
H10_15 C21_15 1_555 1_555
H11_15 C2_15 1_555 1_555
H12_15 C4_15 1_555 1_555
H13_15 C6_15 1_555 1_555
H14_15 C11_15 1_555 1_555
H15_15 C13_15 1_555 1_555
H16_15 C15_15 1_555 1_555
C22_15 C14_15 1_555 1_555
O19_2 C22_15 1_555 1_555
O20_2 C22_15 1_555 1_555
C10_15 C16_15 1_555 1_555
O6_15 H32_15 1_555 1_555
Co3_4 O1_16 1_555 1_555
Co5_4 O4_16 1_555 1_555
O1_16 C7_16 1_555 1_555
O2_16 C7_16 1_555 1_555
O15_4 C9_16 1_555 1_555
O4_16 C9_16 1_555 1_555
O5_16 C8_16 1_555 1_555
O6_16 C8_16 1_555 1_555
O7_16 Co3_4 1_555 1_555
O16_4 C16_16 1_555 1_555
O11_16 Co3_4 1_555 1_555
O12_16 Co5_4 1_555 1_555
C1_16 C2_16 1_555 1_555
C2_16 C3_16 1_555 1_555
C3_16 C4_16 1_555 1_555
C4_16 C5_16 1_555 1_555
C5_16 C6_16 1_555 1_555
C6_16 C1_16 1_555 1_555
C7_16 C1_16 1_555 1_555
C8_16 C5_16 1_555 1_555
C9_16 C3_16 1_555 1_555
C16_16 O7_16 1_555 1_555
C18_16 O12_16 1_555 1_555
H1_16 C18_16 1_555 1_555
H2_16 C18_16 1_555 1_555
C19_16 C18_16 1_555 1_555
H3_16 C19_16 1_555 1_555
H4_16 C19_16 1_555 1_555
H5_16 C19_16 1_555 1_555
C20_16 O11_16 1_555 1_555
H6_16 C20_16 1_555 1_555
H7_16 C20_16 1_555 1_555
C21_16 C20_16 1_555 1_555
H8_16 C21_16 1_555 1_555
H10_16 C21_16 1_555 1_555
H11_16 C2_16 1_555 1_555
H12_16 C4_16 1_555 1_555
H13_16 C6_16 1_555 1_555
C10_16 C16_16 1_555 1_555
O6_16 H32_16 1_555 1_555
O17_9 C17_16 1_555 1_555
O18_9 C17_16 1_555 1_555
C11_16 C12_16 1_555 1_555
C12_16 C13_16 1_555 1_555
C13_16 C14_16 1_555 1_555
C14_16 C15_16 1_555 1_555
C17_16 C12_16 1_555 1_555
H15_16 C13_16 1_555 1_555
O19_9 C22_16 1_555 1_555
O20_9 C22_16 1_555 1_555
Co3_5 O1_17 1_555 1_555
Co5_5 O4_17 1_555 1_555
O1_17 C7_17 1_555 1_555
O2_17 C7_17 1_555 1_555
O15_5 C9_17 1_555 1_555
O4_17 C9_17 1_555 1_555
O5_17 C8_17 1_555 1_555
O6_17 C8_17 1_555 1_555
O7_17 Co3_5 1_555 1_555
O16_5 C16_17 1_555 1_555
O17_7 C17_17 1_555 1_555
O18_7 C17_17 1_555 1_555
O11_17 Co3_5 1_555 1_555
O12_17 Co5_5 1_555 1_555
C1_17 C2_17 1_555 1_555
C2_17 C3_17 1_555 1_555
C3_17 C4_17 1_555 1_555
C4_17 C5_17 1_555 1_555
C5_17 C6_17 1_555 1_555
C6_17 C1_17 1_555 1_555
C7_17 C1_17 1_555 1_555
C8_17 C5_17 1_555 1_555
C9_17 C3_17 1_555 1_555
C10_17 C11_17 1_555 1_555
C11_17 C12_17 1_555 1_555
C12_17 C13_17 1_555 1_555
C13_17 C14_17 1_555 1_555
C14_17 C15_17 1_555 1_555
C15_17 C10_17 1_555 1_555
C16_17 O7_17 1_555 1_555
C17_17 C12_17 1_555 1_555
C18_17 O12_17 1_555 1_555
H1_17 C18_17 1_555 1_555
H2_17 C18_17 1_555 1_555
C19_17 C18_17 1_555 1_555
H3_17 C19_17 1_555 1_555
H4_17 C19_17 1_555 1_555
H5_17 C19_17 1_555 1_555
C20_17 O11_17 1_555 1_555
H6_17 C20_17 1_555 1_555
H7_17 C20_17 1_555 1_555
C21_17 C20_17 1_555 1_555
H8_17 C21_17 1_555 1_555
H10_17 C21_17 1_555 1_555
H11_17 C2_17 1_555 1_555
H12_17 C4_17 1_555 1_555
H13_17 C6_17 1_555 1_555
H14_17 C11_17 1_555 1_555
H15_17 C13_17 1_555 1_555
C10_17 C16_17 1_555 1_555
O6_17 H32_17 1_555 1_555
O19_7 C22_17 1_555 1_555
O20_7 C22_17 1_555 1_555
O17_8 C17_18 1_555 1_555
O18_8 C17_18 1_555 1_555
C11_18 C12_18 1_555 1_555
C12_18 C13_18 1_555 1_555
C13_18 C14_18 1_555 1_555
C14_18 C15_18 1_555 1_555
C17_18 C12_18 1_555 1_555
H15_18 C13_18 1_555 1_555
O19_8 C22_18 1_555 1_555
O20_8 C22_18 1_555 1_555
Co3_6 O1_18 1_555 1_555
Co5_6 O4_18 1_555 1_555
O1_18 C7_18 1_555 1_555
O2_18 C7_18 1_555 1_555
O15_6 C9_18 1_555 1_555
O4_18 C9_18 1_555 1_555
O5_18 C8_18 1_555 1_555
O6_18 C8_18 1_555 1_555
O7_18 Co3_6 1_555 1_555
O16_6 C16_18 1_555 1_555
O11_18 Co3_6 1_555 1_555
O12_18 Co5_6 1_555 1_555
C1_18 C2_18 1_555 1_555
C2_18 C3_18 1_555 1_555
C3_18 C4_18 1_555 1_555
C4_18 C5_18 1_555 1_555
C5_18 C6_18 1_555 1_555
C6_18 C1_18 1_555 1_555
C7_18 C1_18 1_555 1_555
C8_18 C5_18 1_555 1_555
C9_18 C3_18 1_555 1_555
C16_18 O7_18 1_555 1_555
C18_18 O12_18 1_555 1_555
H1_18 C18_18 1_555 1_555
H2_18 C18_18 1_555 1_555
C19_18 C18_18 1_555 1_555
H3_18 C19_18 1_555 1_555
H4_18 C19_18 1_555 1_555
H5_18 C19_18 1_555 1_555
C20_18 O11_18 1_555 1_555
H6_18 C20_18 1_555 1_555
H7_18 C20_18 1_555 1_555
C21_18 C20_18 1_555 1_555
H8_18 C21_18 1_555 1_555
H10_18 C21_18 1_555 1_555
H11_18 C2_18 1_555 1_555
H12_18 C4_18 1_555 1_555
H13_18 C6_18 1_555 1_555
C10_18 C16_18 1_555 1_555
O6_18 H32_18 1_555 1_555
N1 C23 1_555 1_555
C23 H17 1_555 1_555
H18 C23 1_555 1_555
C24 C23 1_555 1_555
H19 C24 1_555 1_555
H20 C24 1_555 1_555
H21 C24 1_555 1_555
C25 N1 1_555 1_555
H22 C25 1_555 1_555
H23 C25 1_555 1_555
C26 C25 1_555 1_555
H24 C26 1_555 1_555
H25 C26 1_555 1_555
H26 C26 1_555 1_555
C27 N1 1_555 1_555
H27 C27 1_555 1_555
H28 C27 1_555 1_555
C28 C27 1_555 1_555
H29 C28 1_555 1_555
H30 C28 1_555 1_555
H31 C28 1_555 1_555
N1 H33 1_555 1_555
N1_2 C23_2 1_555 1_555
C23_2 H17_2 1_555 1_555
H18_2 C23_2 1_555 1_555
C24_2 C23_2 1_555 1_555
H19_2 C24_2 1_555 1_555
H20_2 C24_2 1_555 1_555
H21_2 C24_2 1_555 1_555
C25_2 N1_2 1_555 1_555
H22_2 C25_2 1_555 1_555
H23_2 C25_2 1_555 1_555
C26_2 C25_2 1_555 1_555
H24_2 C26_2 1_555 1_555
H25_2 C26_2 1_555 1_555
H26_2 C26_2 1_555 1_555
C27_2 N1_2 1_555 1_555
H27_2 C27_2 1_555 1_555
H28_2 C27_2 1_555 1_555
C28_2 C27_2 1_555 1_555
H29_2 C28_2 1_555 1_555
H30_2 C28_2 1_555 1_555
H31_2 C28_2 1_555 1_555
N1_2 H33_2 1_555 1_555
N1_3 C23_3 1_555 1_555
C23_3 H17_3 1_555 1_555
H18_3 C23_3 1_555 1_555
C24_3 C23_3 1_555 1_555
H19_3 C24_3 1_555 1_555
H20_3 C24_3 1_555 1_555
H21_3 C24_3 1_555 1_555
C25_3 N1_3 1_555 1_555
H22_3 C25_3 1_555 1_555
H23_3 C25_3 1_555 1_555
C26_3 C25_3 1_555 1_555
H24_3 C26_3 1_555 1_555
H25_3 C26_3 1_555 1_555
H26_3 C26_3 1_555 1_555
C27_3 N1_3 1_555 1_555
H27_3 C27_3 1_555 1_555
H28_3 C27_3 1_555 1_555
C28_3 C27_3 1_555 1_555
H29_3 C28_3 1_555 1_555
H30_3 C28_3 1_555 1_555
H31_3 C28_3 1_555 1_555
N1_3 H33_3 1_555 1_555
C25_4 N1_4 1_555 1_555
H22_4 C25_4 1_555 1_555
H23_4 C25_4 1_555 1_555
C27_4 N1_4 1_555 1_555
H27_4 C27_4 1_555 1_555
H28_4 C27_4 1_555 1_555
C28_4 C27_4 1_555 1_555
H29_4 C28_4 1_555 1_555
H30_4 C28_4 1_555 1_555
C23_4 H17_4 1_555 1_555
H18_4 C23_4 1_555 1_555
H25_4 C26_4 1_555 1_555
H26_4 C26_4 1_555 1_555
H20_4 C24_4 1_555 1_555
H21_4 C24_4 1_555 1_555
C25_5 N1_5 1_555 1_555
H22_5 C25_5 1_555 1_555
H23_5 C25_5 1_555 1_555
C26_5 C25_5 1_555 1_555
H24_5 C26_5 1_555 1_555
H25_5 C26_5 1_555 1_555
H26_5 C26_5 1_555 1_555
C27_5 N1_5 1_555 1_555
H27_5 C27_5 1_555 1_555
H28_5 C27_5 1_555 1_555
C28_5 C27_5 1_555 1_555
H29_5 C28_5 1_555 1_555
H30_5 C28_5 1_555 1_555
C23_5 H17_5 1_555 1_555
H18_5 C23_5 1_555 1_555
C24_5 C23_5 1_555 1_555
H19_5 C24_5 1_555 1_555
H20_5 C24_5 1_555 1_555
H21_5 C24_5 1_555 1_555
H25_6 C26_6 1_555 1_555
H26_6 C26_6 1_555 1_555
H20_6 C24_6 1_555 1_555
H21_6 C24_6 1_555 1_555
C25_6 N1_6 1_555 1_555
H22_6 C25_6 1_555 1_555
H23_6 C25_6 1_555 1_555
C27_6 N1_6 1_555 1_555
H27_6 C27_6 1_555 1_555
H28_6 C27_6 1_555 1_555
C28_6 C27_6 1_555 1_555
H29_6 C28_6 1_555 1_555
H30_6 C28_6 1_555 1_555
C23_6 H17_6 1_555 1_555
H18_6 C23_6 1_555 1_555
N1_7 C23_7 1_555 1_555
C23_7 H17_7 1_555 1_555
H18_7 C23_7 1_555 1_555
C24_7 C23_7 1_555 1_555
H19_7 C24_7 1_555 1_555
H20_7 C24_7 1_555 1_555
H21_7 C24_7 1_555 1_555
C25_7 N1_7 1_555 1_555
H22_7 C25_7 1_555 1_555
H23_7 C25_7 1_555 1_555
C26_7 C25_7 1_555 1_555
H24_7 C26_7 1_555 1_555
H25_7 C26_7 1_555 1_555
H26_7 C26_7 1_555 1_555
C27_7 N1_7 1_555 1_555
H27_7 C27_7 1_555 1_555
H28_7 C27_7 1_555 1_555
C28_7 C27_7 1_555 1_555
H29_7 C28_7 1_555 1_555
H30_7 C28_7 1_555 1_555
H31_7 C28_7 1_555 1_555
N1_7 H33_7 1_555 1_555
N1_8 C23_8 1_555 1_555
C23_8 H17_8 1_555 1_555
H18_8 C23_8 1_555 1_555
C24_8 C23_8 1_555 1_555
H19_8 C24_8 1_555 1_555
H20_8 C24_8 1_555 1_555
H21_8 C24_8 1_555 1_555
C25_8 N1_8 1_555 1_555
C26_8 C25_8 1_555 1_555
H24_8 C26_8 1_555 1_555
H25_8 C26_8 1_555 1_555
H26_8 C26_8 1_555 1_555
C27_8 N1_8 1_555 1_555
H27_8 C27_8 1_555 1_555
H28_8 C27_8 1_555 1_555
C28_8 C27_8 1_555 1_555
H30_8 C28_8 1_555 1_555
H31_8 C28_8 1_555 1_555
N1_9 C23_9 1_555 1_555
C23_9 H17_9 1_555 1_555
H18_9 C23_9 1_555 1_555
C24_9 C23_9 1_555 1_555
H19_9 C24_9 1_555 1_555
H20_9 C24_9 1_555 1_555
H21_9 C24_9 1_555 1_555
C25_9 N1_9 1_555 1_555
C26_9 C25_9 1_555 1_555
H24_9 C26_9 1_555 1_555
H25_9 C26_9 1_555 1_555
H26_9 C26_9 1_555 1_555
C27_9 N1_9 1_555 1_555
H27_9 C27_9 1_555 1_555
H28_9 C27_9 1_555 1_555
C28_9 C27_9 1_555 1_555
H30_9 C28_9 1_555 1_555
H31_9 C28_9 1_555 1_555
N1_10 C23_10 1_555 1_555
C23_10 H17_10 1_555 1_555
H18_10 C23_10 1_555 1_555
C24_10 C23_10 1_555 1_555
H19_10 C24_10 1_555 1_555
H20_10 C24_10 1_555 1_555
H21_10 C24_10 1_555 1_555
C25_10 N1_10 1_555 1_555
H22_10 C25_10 1_555 1_555
H23_10 C25_10 1_555 1_555
C26_10 C25_10 1_555 1_555
H24_10 C26_10 1_555 1_555
H25_10 C26_10 1_555 1_555
H26_10 C26_10 1_555 1_555
C27_10 N1_10 1_555 1_555
H27_10 C27_10 1_555 1_555
H28_10 C27_10 1_555 1_555
C28_10 C27_10 1_555 1_555
H29_10 C28_10 1_555 1_555
H30_10 C28_10 1_555 1_555
H31_10 C28_10 1_555 1_555
N1_10 H33_10 1_555 1_555
N1_11 C23_11 1_555 1_555
C23_11 H17_11 1_555 1_555
H18_11 C23_11 1_555 1_555
C24_11 C23_11 1_555 1_555
H19_11 C24_11 1_555 1_555
H20_11 C24_11 1_555 1_555
H21_11 C24_11 1_555 1_555
C25_11 N1_11 1_555 1_555
H22_11 C25_11 1_555 1_555
H23_11 C25_11 1_555 1_555
C26_11 C25_11 1_555 1_555
H24_11 C26_11 1_555 1_555
H25_11 C26_11 1_555 1_555
H26_11 C26_11 1_555 1_555
C27_11 N1_11 1_555 1_555
H27_11 C27_11 1_555 1_555
H28_11 C27_11 1_555 1_555
C28_11 C27_11 1_555 1_555
H29_11 C28_11 1_555 1_555
H30_11 C28_11 1_555 1_555
H31_11 C28_11 1_555 1_555
N1_11 H33_11 1_555 1_555
N1_12 C23_12 1_555 1_555
C23_12 H17_12 1_555 1_555
H18_12 C23_12 1_555 1_555
C24_12 C23_12 1_555 1_555
H19_12 C24_12 1_555 1_555
H20_12 C24_12 1_555 1_555
H21_12 C24_12 1_555 1_555
C25_12 N1_12 1_555 1_555
H22_12 C25_12 1_555 1_555
H23_12 C25_12 1_555 1_555
C26_12 C25_12 1_555 1_555
H24_12 C26_12 1_555 1_555
H25_12 C26_12 1_555 1_555
H26_12 C26_12 1_555 1_555
C27_12 N1_12 1_555 1_555
H27_12 C27_12 1_555 1_555
H28_12 C27_12 1_555 1_555
C28_12 C27_12 1_555 1_555
H29_12 C28_12 1_555 1_555
H30_12 C28_12 1_555 1_555
H31_12 C28_12 1_555 1_555
N1_12 H33_12 1_555 1_555
H20_13 C24_13 1_555 1_555
H21_13 C24_13 1_555 1_555
H25_13 C26_13 1_555 1_555
H26_13 C26_13 1_555 1_555
C23_13 H17_13 1_555 1_555
H18_13 C23_13 1_555 1_555
C25_13 N1_13 1_555 1_555
H22_13 C25_13 1_555 1_555
H23_13 C25_13 1_555 1_555
C27_13 N1_13 1_555 1_555
H27_13 C27_13 1_555 1_555
H28_13 C27_13 1_555 1_555
C28_13 C27_13 1_555 1_555
H29_13 C28_13 1_555 1_555
H30_13 C28_13 1_555 1_555
C23_14 H17_14 1_555 1_555
H18_14 C23_14 1_555 1_555
C24_14 C23_14 1_555 1_555
H19_14 C24_14 1_555 1_555
H20_14 C24_14 1_555 1_555
H21_14 C24_14 1_555 1_555
C25_14 N1_14 1_555 1_555
H22_14 C25_14 1_555 1_555
H23_14 C25_14 1_555 1_555
C26_14 C25_14 1_555 1_555
H24_14 C26_14 1_555 1_555
H25_14 C26_14 1_555 1_555
H26_14 C26_14 1_555 1_555
C27_14 N1_14 1_555 1_555
H27_14 C27_14 1_555 1_555
H28_14 C27_14 1_555 1_555
C28_14 C27_14 1_555 1_555
H29_14 C28_14 1_555 1_555
H30_14 C28_14 1_555 1_555
C23_15 H17_15 1_555 1_555
H18_15 C23_15 1_555 1_555
C25_15 N1_15 1_555 1_555
H22_15 C25_15 1_555 1_555
H23_15 C25_15 1_555 1_555
C27_15 N1_15 1_555 1_555
H27_15 C27_15 1_555 1_555
H28_15 C27_15 1_555 1_555
C28_15 C27_15 1_555 1_555
H29_15 C28_15 1_555 1_555
H30_15 C28_15 1_555 1_555
H20_15 C24_15 1_555 1_555
H21_15 C24_15 1_555 1_555
H25_15 C26_15 1_555 1_555
H26_15 C26_15 1_555 1_555
N1_16 C23_16 1_555 1_555
C23_16 H17_16 1_555 1_555
H18_16 C23_16 1_555 1_555
C24_16 C23_16 1_555 1_555
H19_16 C24_16 1_555 1_555
H20_16 C24_16 1_555 1_555
H21_16 C24_16 1_555 1_555
C25_16 N1_16 1_555 1_555
H22_16 C25_16 1_555 1_555
H23_16 C25_16 1_555 1_555
C26_16 C25_16 1_555 1_555
H24_16 C26_16 1_555 1_555
H25_16 C26_16 1_555 1_555
H26_16 C26_16 1_555 1_555
C27_16 N1_16 1_555 1_555
H27_16 C27_16 1_555 1_555
H28_16 C27_16 1_555 1_555
C28_16 C27_16 1_555 1_555
H29_16 C28_16 1_555 1_555
H30_16 C28_16 1_555 1_555
H31_16 C28_16 1_555 1_555
N1_16 H33_16 1_555 1_555
N1_17 C23_17 1_555 1_555
C23_17 H17_17 1_555 1_555
H18_17 C23_17 1_555 1_555
C24_17 C23_17 1_555 1_555
H19_17 C24_17 1_555 1_555
H20_17 C24_17 1_555 1_555
H21_17 C24_17 1_555 1_555
C25_17 N1_17 1_555 1_555
C26_17 C25_17 1_555 1_555
H24_17 C26_17 1_555 1_555
H25_17 C26_17 1_555 1_555
H26_17 C26_17 1_555 1_555
C27_17 N1_17 1_555 1_555
H27_17 C27_17 1_555 1_555
H28_17 C27_17 1_555 1_555
C28_17 C27_17 1_555 1_555
H30_17 C28_17 1_555 1_555
H31_17 C28_17 1_555 1_555
N1_18 C23_18 1_555 1_555
C23_18 H17_18 1_555 1_555
H18_18 C23_18 1_555 1_555
C24_18 C23_18 1_555 1_555
H19_18 C24_18 1_555 1_555
H20_18 C24_18 1_555 1_555
H21_18 C24_18 1_555 1_555
C25_18 N1_18 1_555 1_555
C26_18 C25_18 1_555 1_555
H24_18 C26_18 1_555 1_555
H25_18 C26_18 1_555 1_555
H26_18 C26_18 1_555 1_555
C27_18 N1_18 1_555 1_555
H27_18 C27_18 1_555 1_555
H28_18 C27_18 1_555 1_555
C28_18 C27_18 1_555 1_555
H30_18 C28_18 1_555 1_555
H31_18 C28_18 1_555 1_555

#END
