
###############################################################################
#
# This file contains modified crystal structure data generated from the
# MOF subset of the Cambridge Structural Database (CSD) v543 
# hosted by the Cambridge Crystallographic Data Centre (CCDC).
#
# This work is licensed under the Creative Commons
# Attribution-NonCommercial-ShareAlike 4.0 International License.
# To view a copy of this license, visit
# http://creativecommons.org/licenses/by-nc-sa/4.0/
# or send a letter to
# Creative Commons, PO Box 1866, Mountain View, CA 94042, USA.
#
# CIF created using the CSD Python API on 29 September 2022
# The structure has been converted into the P1 space group
# The structure has a 3D framework
# The original CSD entry AVUDAX is in the monoclinic crystal system
# The framework has been calculated to contain at least 10.0% void space
# The void calculation uses a probe of radius 1.32A, grid spacing 0.4
#
###############################################################################

data_AVUDAX
_chemical_formula_moiety         '(C120 H120 Cl12 Cu12 N72)n'
_symmetry_cell_setting           triclinic
_symmetry_space_group_name_H-M   'P 1'
_symmetry_Int_Tables_number      1
_space_group_name_Hall           'P 1'
loop_
_symmetry_equiv_pos_site_id
_symmetry_equiv_pos_as_xyz
1 x,y,z
_cell_length_a                   16.764(2)
_cell_length_b                   13.2012(12)
_cell_length_c                   24.587(4)
_cell_angle_alpha                90
_cell_angle_beta                 115.502(10)
_cell_angle_gamma                90
_cell_volume                     4911.09
loop_
_atom_site_label
_atom_site_type_symbol
_atom_site_fract_x
_atom_site_fract_y
_atom_site_fract_z
Cu8 Cu -0.0000 -0.0000 0.0000
Cu8_2 Cu 0.0000 -0.0000 1.0000
N16 N 0.0009(6) 0.8842(5) 0.0548(4)
N17 N 0.0448(7) 0.7489(6) 0.1120(3)
C27 C 0.0677(8) 0.8248(8) 0.0885(5)
H26 H 0.1257 0.8366 0.0947
H27 H 0.0168 0.3205 0.1497
H30 H 0.0481 0.1900 0.0835
Cu8_3 Cu -0.0000 1.0000 0.0000
Cl6 Cl 0.1705(3) 0.0489(3) 0.08428(19)
Cu8_4 Cu 0.0000 1.0000 1.0000
Cu3 Cu 0.41003(6) 0.28924(7) 0.24844(4)
Cl4 Cl 0.3869(4) 0.1069(3) 0.1939(2)
Cl5 Cl 0.44103(18) 0.47617(16) 0.29947(10)
N20 N 0.3422(4) 0.2339(5) 0.2922(2)
N24 N 0.4735(4) 0.3244(4) 0.1977(3)
N29 N 0.5227(4) 0.2362(4) 0.3148(3)
N32 N 0.2947(4) 0.3381(5) 0.1820(2)
N33 N 0.1515(5) 0.3406(5) 0.1179(3)
N34 N 0.1919(5) 0.4315(4) 0.1171(3)
C46 C 0.2170(6) 0.2865(6) 0.1594(4)
H46 H 0.2101 0.2215 0.1714
C47 C 0.2768(6) 0.4265(5) 0.1553(3)
H47 H 0.3177 0.4783 0.1622
C48 C 0.1438(5) 0.5154(5) 0.0799(3)
H48 H 0.0891 0.5237 0.0840
H49 H 0.1783 0.5765 0.0950
C49 C 0.1218(5) 0.5052(5) 0.0142(3)
H50 H 0.1449 0.3580 0.0111
N35 N 0.0542(6) 0.9062(4) 0.9596(3)
N36 N 0.1459(6) 0.8182(6) 0.9340(4)
N37 N 0.0636(6) 0.7766(5) 0.9097(3)
N42 N 0.0436(7) 0.2373(5) 0.9078(3)
C50 C 0.1249(5) 0.4160(5) 0.9876(4)
C51 C 0.0977(5) 0.4103(5) 0.9242(4)
C52 C 0.0736(5) 0.4960(5) 0.8902(4)
H51 H 0.0586 0.4925 0.8492
C53 C 0.0711(5) 0.5889(5) 0.9164(4)
C54 C 0.0958(5) 0.5931(5) 0.9775(4)
H52 H 0.0955 0.6553 0.9952
C55 C 0.0982(7) 0.3085(5) 0.8953(4)
H53 H 0.1582 0.2829 0.9110
H54 H 0.0765 0.3169 0.8521
C56 C 0.0666(7) 0.1568(6) 0.9424(5)
H55 H 0.1242 0.1327 0.9624
C58 C 0.0458(6) 0.6827(5) 0.8770(4)
H58 H 0.0777 0.6822 0.8521
C59 C 0.1374(7) 0.8976(7) 0.9632(5)
H59 H 0.1830 0.9428 0.9840
C60 C 0.0104(6) 0.8268(7) 0.9262(4)
Cu8_5 Cu 1.0000 -0.0000 0.0000
N8 N 0.6223(5) 0.2006(4) 0.4046(3)
N9 N 0.6489(5) 0.1541(5) 0.3668(4)
H3 H 0.7245 0.0242 0.6646
C7 C 0.5484(6) 0.2483(5) 0.3737(4)
H9 H 0.5176 0.2858 0.3905
C8 C 0.5890(7) 0.1773(6) 0.3141(4)
H10 H 0.5909 0.1558 0.2786
C9 C 0.6688(5) 0.1912(5) 0.4684(3)
H11 H 0.7315 0.1997 0.4800
H12 H 0.6502 0.2453 0.4871
C10 C 0.6542(5) 0.0907(6) 0.4923(3)
C11 C 0.6979(5) 0.0712(6) 0.5523(4)
H13 H 0.7373 0.1194 0.5769
C15 C 0.5933(5) 0.0178(6) 0.4566(3)
H15 H 0.5613 0.0301 0.4156
Cu8_6 Cu 1.0000 -0.0000 1.0000
N13 N 0.9458(6) 0.0938(4) 0.0404(3)
N14 N 0.8541(6) 0.1818(6) 0.0660(4)
N15 N 0.9364(6) 0.2234(5) 0.0903(3)
N18 N 0.9564(7) 0.7627(5) 0.0922(3)
C20 C 0.8751(5) 0.5840(5) 0.0124(4)
C21 C 0.9023(5) 0.5897(5) 0.0758(4)
C22 C 0.9264(5) 0.5040(5) 0.1098(4)
H21 H 0.9414 0.5075 0.1508
C23 C 0.9289(5) 0.4111(5) 0.0836(4)
C24 C 0.9042(5) 0.4069(5) 0.0225(4)
H22 H 0.9045 0.3447 0.0048
C25 C 0.9018(7) 0.6915(5) 0.1047(4)
H23 H 0.8418 0.7171 0.0890
H24 H 0.9235 0.6831 0.1479
C26 C 0.9334(7) 0.8432(6) 0.0576(5)
H25 H 0.8758 0.8673 0.0376
C28 C 0.9542(6) 0.3173(5) 0.1230(4)
H28 H 0.9223 0.3178 0.1479
C29 C 0.8626(7) 0.1024(7) 0.0368(5)
H29 H 0.8170 0.0572 0.0160
C30 C 0.9896(6) 0.1732(7) 0.0738(4)
Cu6 Cu 0.58997(6) 0.78924(7) 0.25156(4)
Cu8_7 Cu 1.0000 1.0000 0.0000
N19 N 0.6578(4) 0.7339(5) 0.2078(2)
N21 N 0.7448(5) 0.7190(7) 0.1611(4)
N22 N 0.7134(5) 0.6269(6) 0.1678(3)
C31 C 0.7102(7) 0.7776(7) 0.1866(4)
H31 H 0.7211 0.8470 0.1901
C32 C 0.6594(5) 0.6389(6) 0.1945(3)
H32 H 0.6280 0.5874 0.2023
C33 C 0.7355(5) 0.5334(6) 0.1443(3)
H33 H 0.7245 0.4758 0.1646
H34 H 0.7982 0.5341 0.1544
C41 C 0.6979(5) 0.4288(6) 0.0523(4)
H43 H 0.7373 0.3806 0.0769
C42 C 0.6863(5) 0.5185(6) 0.0787(3)
C43 C 0.6258(6) 0.5884(6) 0.0410(4)
H44 H 0.6166 0.6483 0.0573
Cu1 Cu 0.58997(6) 0.71076(7) 0.75156(4)
Cl1 Cl 0.6131(4) 0.8931(3) 0.8061(2)
Cl2 Cl 0.55897(18) 0.52383(16) 0.70053(10)
N1 N 0.6578(4) 0.7661(5) 0.7078(2)
N2 N 0.7448(5) 0.7810(7) 0.6611(4)
N3 N 0.7134(5) 0.8731(6) 0.6678(3)
N4 N 0.5265(4) 0.8244(4) 0.3023(3)
N5 N 0.5033(5) 0.8500(5) 0.3812(3)
N6 N 0.4396(5) 0.9055(5) 0.3360(3)
N10 N 0.7053(4) 0.6619(5) 0.8180(2)
N11 N 0.8485(5) 0.6594(5) 0.8821(3)
N12 N 0.8081(5) 0.5685(4) 0.8829(3)
C1 C 0.7102(7) 0.7224(7) 0.6866(4)
H1 H 0.7211 0.6530 0.6901
C2 C 0.6594(5) 0.8611(6) 0.6945(3)
H2 H 0.6280 0.9126 0.7023
C3 C 0.7355(5) 0.9666(6) 0.6443(3)
H4 H 0.7982 0.9659 0.6544
C4 C 0.5550(5) 0.8036(6) 0.3605(3)
H5 H 0.6034 0.7631 0.3832
C5 C 0.4566(6) 0.8869(6) 0.2898(4)
H6 H 0.4236 0.9141 0.2518
C6 C 0.5146(6) 0.8516(6) 0.4425(3)
H7 H 0.4579 0.8650 0.4428
H8 H 0.5341 0.7852 0.4601
C12 C 0.6863(5) 0.9815(6) 0.5787(3)
C13 C 0.6258(6) 0.9116(6) 0.5410(4)
H14 H 0.6166 0.8517 0.5573
C14 C 0.5792(5) 0.9284(6) 0.4802(4)
C16 C 0.7830(6) 0.7135(6) 0.8406(4)
H16 H 0.7899 0.7785 0.8286
C17 C 0.7232(6) 0.5735(5) 0.8447(3)
H17 H 0.6823 0.5217 0.8378
C18 C 0.8562(5) 0.4846(5) 0.9201(3)
H18 H 0.9109 0.4763 0.9160
H19 H 0.8217 0.4235 0.9050
C19 C 0.8782(5) 0.4948(5) 0.9858(3)
H20 H 0.8551 0.6420 0.9889
Cu7 Cu 0.41003(6) 0.21076(7) 0.74844(4)
Cu8_8 Cu 1.0000 1.0000 1.0000
N23 N 0.5265(4) 0.6756(4) 0.8023(3)
N25 N 0.5033(5) 0.6500(5) 0.8812(3)
N26 N 0.4396(5) 0.5945(5) 0.8360(3)
N27 N 0.5227(4) 0.2638(4) 0.8148(3)
N28 N 0.4773(4) 0.7638(4) 0.6852(3)
N30 N 0.6223(5) 0.2994(4) 0.9046(3)
N31 N 0.6489(5) 0.3459(5) 0.8668(4)
N40 N 0.9991(6) 0.1158(5) 0.9452(4)
C34 C 0.5550(5) 0.6964(6) 0.8605(3)
H35 H 0.6034 0.7369 0.8832
C35 C 0.4566(6) 0.6131(6) 0.7898(4)
H36 H 0.4236 0.5859 0.7518
C36 C 0.5146(6) 0.6484(6) 0.9425(3)
H37 H 0.4579 0.6350 0.9428
H38 H 0.5341 0.7148 0.9601
C37 C 0.5484(6) 0.2517(5) 0.8737(4)
H39 H 0.5176 0.2142 0.8905
C38 C 0.5890(7) 0.3227(6) 0.8141(4)
H40 H 0.5909 0.3442 0.7786
C39 C 0.6688(5) 0.3088(5) 0.9684(3)
H41 H 0.7315 0.3003 0.9800
H42 H 0.6502 0.2547 0.9871
C40 C 0.6542(5) 0.4093(6) 0.9923(3)
C44 C 0.5792(5) 0.5716(6) 0.9802(4)
C45 C 0.5933(5) 0.4822(6) 0.9566(3)
H45 H 0.5613 0.4699 0.9156
Cl3 Cl 0.8295(3) 0.9511(3) 0.91572(19)
N41 N 0.9552(7) 0.2511(6) 0.8880(3)
C57 C 0.9323(8) 0.1752(8) 0.9115(5)
H56 H 0.8743 0.1634 0.9053
H57 H 0.9832 0.6795 0.8503
H60 H 0.9519 0.8100 0.9165
N5_2 N 0.4967(5) 0.3500(5) 0.1188(3)
N6_2 N 0.5604(5) 0.4055(5) 0.1640(3)
N7 N 0.4773(4) 0.7362(4) 0.1852(3)
N8_2 N 0.3777(5) 0.7006(4) 0.0954(3)
N9_2 N 0.3511(5) 0.6541(5) 0.1332(4)
C4_2 C 0.4450(5) 0.3036(6) 0.1395(3)
H5_2 H 0.3966 0.2631 0.1168
C5_2 C 0.5434(6) 0.3869(6) 0.2102(4)
H6_2 H 0.5764 0.4141 0.2482
C6_2 C 0.4854(6) 0.3516(6) 0.0575(3)
H7_2 H 0.5421 0.3650 0.0572
H8_2 H 0.4659 0.2852 0.0399
C7_2 C 0.4516(6) 0.7483(5) 0.1263(4)
H9_2 H 0.4824 0.7858 0.1095
C8_2 C 0.4110(7) 0.6773(6) 0.1859(4)
H10_2 H 0.4091 0.6558 0.2214
C9_2 C 0.3312(5) 0.6912(5) 0.0316(3)
H11_2 H 0.2685 0.6997 0.0200
H12_2 H 0.3498 0.7453 0.0129
C10_2 C 0.3458(5) 0.5907(6) 0.0077(3)
C14_2 C 0.4208(5) 0.4284(6) 0.0198(4)
C15_2 C 0.4067(5) 0.5178(6) 0.0434(3)
H15_2 H 0.4387 0.5301 0.0844
Cl1_2 Cl 0.3869(4) 0.3931(3) 0.6939(2)
Cl2_2 Cl 0.44103(18) 0.02383(16) 0.79947(10)
N1_2 N 0.3422(4) 0.2661(5) 0.7922(2)
N2_2 N 0.2552(5) 0.2810(7) 0.8389(4)
N3_2 N 0.2866(5) 0.3731(6) 0.8322(3)
N10_2 N 0.2947(4) 0.1619(5) 0.6820(2)
N11_2 N 0.1515(5) 0.1594(5) 0.6179(3)
N12_2 N 0.1919(5) 0.0685(4) 0.6171(3)
N18_2 N 0.0436(7) 0.2627(5) 0.4078(3)
C1_2 C 0.2898(7) 0.2224(7) 0.8134(4)
H1_2 H 0.2789 0.1530 0.8099
C2_2 C 0.3406(5) 0.3611(6) 0.8055(3)
H2_2 H 0.3720 0.4126 0.7977
C3_2 C 0.2645(5) 0.4666(6) 0.8557(3)
H3_2 H 0.2755 0.5242 0.8354
H4_2 H 0.2018 0.4659 0.8456
C11_2 C 0.3021(5) 0.5712(6) 0.9477(4)
H13_2 H 0.2627 0.6194 0.9231
C12_2 C 0.3137(5) 0.4815(6) 0.9213(3)
C13_2 C 0.3742(6) 0.4116(6) 0.9590(4)
H14_2 H 0.3834 0.3517 0.9427
C16_2 C 0.2170(6) 0.2135(6) 0.6594(4)
H16_2 H 0.2101 0.2785 0.6714
C17_2 C 0.2768(6) 0.0735(5) 0.6553(3)
H17_2 H 0.3177 0.0217 0.6622
C20_2 C 0.1249(5) 0.0840(5) 0.4876(4)
H20_2 H 0.1449 0.1420 0.5111
C21_2 C 0.0977(5) 0.0897(5) 0.4242(4)
C22_2 C 0.0736(5) 0.0040(5) 0.3902(4)
H21_2 H 0.0586 0.0075 0.3492
C25_2 C 0.0982(7) 0.1915(5) 0.3953(4)
H23_2 H 0.1582 0.2171 0.4110
H24_2 H 0.0765 0.1831 0.3521
C26_2 C 0.0666(7) 0.3432(6) 0.4424(5)
H25_2 H 0.1242 0.3673 0.4624
Cu8_9 Cu 0.0000 0.5000 0.5000
N21_2 N 0.2552(5) 0.2190(7) 0.3389(4)
N22_2 N 0.2866(5) 0.1269(6) 0.3322(3)
N23_2 N 0.4735(4) 0.1756(4) 0.6977(3)
N25_2 N 0.4967(5) 0.1500(5) 0.6188(3)
N26_2 N 0.5604(5) 0.0945(5) 0.6640(3)
C31_2 C 0.2898(7) 0.2776(7) 0.3134(4)
H31_2 H 0.2789 0.3470 0.3099
C32_2 C 0.3406(5) 0.1389(6) 0.3055(3)
H32_2 H 0.3720 0.0874 0.2977
C33_2 C 0.2645(5) 0.0334(6) 0.3557(3)
H34_2 H 0.2018 0.0341 0.3456
C34_2 C 0.4450(5) 0.1964(6) 0.6395(3)
H35_2 H 0.3966 0.2369 0.6168
C35_2 C 0.5434(6) 0.1131(6) 0.7102(4)
H36_2 H 0.5764 0.0859 0.7482
C36_2 C 0.4854(6) 0.1484(6) 0.5575(3)
H37_2 H 0.5421 0.1350 0.5572
H38_2 H 0.4659 0.2148 0.5399
C42_2 C 0.3137(5) 0.0185(6) 0.4213(3)
C43_2 C 0.3742(6) 0.0884(6) 0.4590(4)
H44_2 H 0.3834 0.1483 0.4427
C44_2 C 0.4208(5) 0.0716(6) 0.5198(4)
Cl3_2 Cl 0.1705(3) 0.4511(3) 0.58428(19)
N13_2 N 0.0542(6) 0.5938(4) 0.4596(3)
N14_2 N 0.1459(6) 0.6818(6) 0.4340(4)
N15_2 N 0.0636(6) 0.7234(5) 0.4097(3)
C18_2 C 0.1438(5) 0.9846(5) 0.5799(3)
H18_2 H 0.0891 0.9763 0.5840
H19_2 H 0.1783 0.9235 0.5950
C19_2 C 0.1218(5) 0.9948(5) 0.5142(3)
C23_2 C 0.0711(5) 0.9111(5) 0.4164(4)
C24_2 C 0.0958(5) 0.9069(5) 0.4775(4)
H22_2 H 0.0955 0.8447 0.4952
C28_2 C 0.0458(6) 0.8173(5) 0.3770(4)
H28_2 H 0.0777 0.8178 0.3521
C29_2 C 0.1374(7) 0.6024(7) 0.4632(5)
H29_2 H 0.1830 0.5572 0.4840
C30_2 C 0.0104(6) 0.6732(7) 0.4262(4)
N30_2 N 0.3777(5) 0.7994(4) 0.5954(3)
N31_2 N 0.3511(5) 0.8459(5) 0.6332(4)
N40_2 N 0.0009(6) 0.6158(5) 0.5548(4)
H33_2 H 0.2755 0.9758 0.3354
C37_2 C 0.4516(6) 0.7517(5) 0.6263(4)
H39_2 H 0.4824 0.7142 0.6095
C38_2 C 0.4110(7) 0.8227(6) 0.6859(4)
H40_2 H 0.4091 0.8442 0.7214
C39_2 C 0.3312(5) 0.8088(5) 0.5316(3)
H41_2 H 0.2685 0.8003 0.5200
H42_2 H 0.3498 0.7547 0.5129
C40_2 C 0.3458(5) 0.9093(6) 0.5077(3)
C41_2 C 0.3021(5) 0.9288(6) 0.4477(4)
H43_2 H 0.2627 0.8806 0.4231
C45_2 C 0.4067(5) 0.9822(6) 0.5434(3)
H45_2 H 0.4387 0.9699 0.5844
H57_2 H 0.0168 0.1795 0.6497
H60_2 H 0.0481 0.3100 0.5835
N41_2 N 0.0448(7) 0.7511(6) 0.6120(3)
C57_2 C 0.0677(8) 0.6752(8) 0.5885(5)
H56_2 H 0.1257 0.6634 0.5947
N16_2 N 0.9991(6) 0.3842(5) 0.4452(4)
N17_2 N 0.9552(7) 0.2489(6) 0.3880(3)
C27_2 C 0.9323(8) 0.3248(8) 0.4115(5)
H26_2 H 0.8743 0.3366 0.4053
Cu8_10 Cu 1.0000 0.5000 0.5000
H27_2 H 0.9832 0.8205 0.3503
H30_2 H 0.9519 0.6900 0.4165
Cl6_2 Cl 0.8295(3) 0.5489(3) 0.41572(19)
N35_2 N 0.9458(6) 0.4062(4) 0.5404(3)
N36_2 N 0.8541(6) 0.3182(6) 0.5660(4)
N37_2 N 0.9364(6) 0.2766(5) 0.5903(3)
C48_2 C 0.8562(5) 0.0154(5) 0.4201(3)
H48_2 H 0.9109 0.0237 0.4160
H49_2 H 0.8217 0.0765 0.4050
C49_2 C 0.8782(5) 0.0052(5) 0.4858(3)
C53_2 C 0.9289(5) 0.0889(5) 0.5836(4)
C54_2 C 0.9042(5) 0.0931(5) 0.5225(4)
H52_2 H 0.9045 0.1553 0.5048
C58_2 C 0.9542(6) 0.1827(5) 0.6230(4)
H58_2 H 0.9223 0.1822 0.6479
C59_2 C 0.8626(7) 0.3976(7) 0.5368(5)
H59_2 H 0.8170 0.4428 0.5160
C60_2 C 0.9896(6) 0.3268(7) 0.5738(4)
Cl4_2 Cl 0.6131(4) 0.6069(3) 0.3061(2)
Cl5_2 Cl 0.55897(18) 0.97617(16) 0.20053(10)
N32_2 N 0.7053(4) 0.8381(5) 0.3180(2)
N33_2 N 0.8485(5) 0.8406(5) 0.3821(3)
N34_2 N 0.8081(5) 0.9315(4) 0.3829(3)
N42_2 N 0.9564(7) 0.7373(5) 0.5922(3)
C46_2 C 0.7830(6) 0.7865(6) 0.3406(4)
H46_2 H 0.7899 0.7215 0.3286
C47_2 C 0.7232(6) 0.9265(5) 0.3447(3)
H47_2 H 0.6823 0.9783 0.3378
C50_2 C 0.8751(5) 0.9160(5) 0.5124(4)
H50_2 H 0.8551 0.8580 0.4889
C51_2 C 0.9023(5) 0.9103(5) 0.5758(4)
C52_2 C 0.9264(5) 0.9960(5) 0.6098(4)
H51_2 H 0.9414 0.9925 0.6508
C55_2 C 0.9018(7) 0.8085(5) 0.6047(4)
H53_2 H 0.8418 0.7829 0.5890
H54_2 H 0.9235 0.8169 0.6479
C56_2 C 0.9334(7) 0.6568(6) 0.5576(5)
H55_2 H 0.8758 0.6327 0.5376
loop_
_geom_bond_atom_site_label_1
_geom_bond_atom_site_label_2
_geom_bond_site_symmetry_1
_geom_bond_site_symmetry_2
C27 N16 1_555 1_555
H26 C27 1_555 1_555
Cu8_3 N16 1_555 1_555
Cl6 Cu8 1_555 1_555
N17 C27 1_555 1_555
Cu3 Cl4 1_555 1_555
Cl5 Cu3 1_555 1_555
N20 Cu3 1_555 1_555
N24 Cu3 1_555 1_555
N29 Cu3 1_555 1_555
N32 Cu3 1_555 1_555
N33 N34 1_555 1_555
N34 C47 1_555 1_555
C46 N32 1_555 1_555
H46 C46 1_555 1_555
C47 N32 1_555 1_555
H47 C47 1_555 1_555
C48 N34 1_555 1_555
H48 C48 1_555 1_555
H49 C48 1_555 1_555
C49 C48 1_555 1_555
N33 C46 1_555 1_555
N35 Cu8_4 1_555 1_555
N36 N37 1_555 1_555
N37 C58 1_555 1_555
N42 C55 1_555 1_555
C51 C50 1_555 1_555
C52 C51 1_555 1_555
H51 C52 1_555 1_555
C53 C52 1_555 1_555
H52 C54 1_555 1_555
C55 C51 1_555 1_555
H53 C55 1_555 1_555
H54 C55 1_555 1_555
C56 N42 1_555 1_555
H55 C56 1_555 1_555
C58 C53 1_555 1_555
H58 C58 1_555 1_555
C59 N35 1_555 1_555
H59 C59 1_555 1_555
C60 N35 1_555 1_555
N36 C59 1_555 1_555
N37 C60 1_555 1_555
C53 C54 1_555 1_555
N29 C7 1_555 1_555
N8 N9 1_555 1_555
N9 C8 1_555 1_555
C7 N8 1_555 1_555
H9 C7 1_555 1_555
C8 N29 1_555 1_555
H10 C8 1_555 1_555
C9 N8 1_555 1_555
H11 C9 1_555 1_555
H12 C9 1_555 1_555
C10 C9 1_555 1_555
C11 C10 1_555 1_555
H13 C11 1_555 1_555
C15 C10 1_555 1_555
H15 C15 1_555 1_555
N13 Cu8_5 1_555 1_555
N14 N15 1_555 1_555
N15 C28 1_555 1_555
N18 C25 1_555 1_555
C21 C20 1_555 1_555
C22 C21 1_555 1_555
H21 C22 1_555 1_555
C23 C22 1_555 1_555
H22 C24 1_555 1_555
C25 C21 1_555 1_555
H23 C25 1_555 1_555
H24 C25 1_555 1_555
C26 N18 1_555 1_555
H25 C26 1_555 1_555
C28 C23 1_555 1_555
H28 C28 1_555 1_555
C29 N13 1_555 1_555
H29 C29 1_555 1_555
C30 N13 1_555 1_555
Cu6 N19 1_555 1_555
N19 C31 1_555 1_555
N21 N22 1_555 1_555
N22 C32 1_555 1_555
C31 N21 1_555 1_555
H31 C31 1_555 1_555
C32 N19 1_555 1_555
H32 C32 1_555 1_555
C33 N22 1_555 1_555
H33 C33 1_555 1_555
H34 C33 1_555 1_555
H43 C41 1_555 1_555
C42 C33 1_555 1_555
C43 C42 1_555 1_555
H44 C43 1_555 1_555
N14 C29 1_555 1_555
N15 C30 1_555 1_555
C23 C24 1_555 1_555
C41 C42 1_555 1_555
Cu1 Cl1 1_555 1_555
Cl2 Cu1 1_555 1_555
N1 Cu1 1_555 1_555
N2 N3 1_555 1_555
N3 C2 1_555 1_555
N4 C4 1_555 1_555
N5 N6 1_555 1_555
N6 C5 1_555 1_555
N10 Cu1 1_555 1_555
N11 N12 1_555 1_555
N12 C17 1_555 1_555
C1 N1 1_555 1_555
H1 C1 1_555 1_555
C2 N1 1_555 1_555
H2 C2 1_555 1_555
C3 N3 1_555 1_555
H4 C3 1_555 1_555
C4 N5 1_555 1_555
H5 C4 1_555 1_555
C5 N4 1_555 1_555
H6 C5 1_555 1_555
C6 N5 1_555 1_555
H7 C6 1_555 1_555
H8 C6 1_555 1_555
C12 C3 1_555 1_555
C13 C12 1_555 1_555
H14 C13 1_555 1_555
C14 C6 1_555 1_555
C16 N10 1_555 1_555
H16 C16 1_555 1_555
C17 N10 1_555 1_555
H17 C17 1_555 1_555
C18 N12 1_555 1_555
H18 C18 1_555 1_555
H19 C18 1_555 1_555
C19 C18 1_555 1_555
Cu6 N4 1_555 1_555
Cu7 N27 1_555 1_555
N23 Cu1 1_555 1_555
N25 N26 1_555 1_555
N26 C35 1_555 1_555
N27 C37 1_555 1_555
N28 Cu1 1_555 1_555
N30 N31 1_555 1_555
N31 C38 1_555 1_555
N40 Cu8_6 1_555 1_555
C34 N23 1_555 1_555
H35 C34 1_555 1_555
C35 N23 1_555 1_555
H36 C35 1_555 1_555
C36 N25 1_555 1_555
H37 C36 1_555 1_555
H38 C36 1_555 1_555
C37 N30 1_555 1_555
H39 C37 1_555 1_555
C38 N27 1_555 1_555
H40 C38 1_555 1_555
C39 N30 1_555 1_555
H41 C39 1_555 1_555
H42 C39 1_555 1_555
C40 C39 1_555 1_555
C44 C36 1_555 1_555
C45 C40 1_555 1_555
H45 C45 1_555 1_555
N2 C1 1_555 1_555
N11 C16 1_555 1_555
C13 C14 1_555 1_555
N25 C34 1_555 1_555
C44 C45 1_555 1_555
Cu8_8 Cl3 1_555 1_555
C57 N40 1_555 1_555
H56 C57 1_555 1_555
N41 C57 1_555 1_555
N24 C4_2 1_555 1_555
N5_2 N6_2 1_555 1_555
N6_2 C5_2 1_555 1_555
N7 C7_2 1_555 1_555
N8_2 N9_2 1_555 1_555
N9_2 C8_2 1_555 1_555
C4_2 N5_2 1_555 1_555
H5_2 C4_2 1_555 1_555
C5_2 N24 1_555 1_555
H6_2 C5_2 1_555 1_555
C6_2 N5_2 1_555 1_555
H7_2 C6_2 1_555 1_555
H8_2 C6_2 1_555 1_555
C7_2 N8_2 1_555 1_555
H9_2 C7_2 1_555 1_555
C8_2 N7 1_555 1_555
H10_2 C8_2 1_555 1_555
C9_2 N8_2 1_555 1_555
H11_2 C9_2 1_555 1_555
H12_2 C9_2 1_555 1_555
C10_2 C9_2 1_555 1_555
C14_2 C6_2 1_555 1_555
C15_2 C10_2 1_555 1_555
H15_2 C15_2 1_555 1_555
Cu6 N7 1_555 1_555
C14_2 C15_2 1_555 1_555
Cu7 Cl1_2 1_555 1_555
Cl2_2 Cu7 1_555 1_555
N1_2 Cu7 1_555 1_555
N2_2 N3_2 1_555 1_555
N3_2 C2_2 1_555 1_555
N10_2 Cu7 1_555 1_555
N11_2 N12_2 1_555 1_555
N12_2 C17_2 1_555 1_555
N18_2 C25_2 1_555 1_555
C1_2 N1_2 1_555 1_555
H1_2 C1_2 1_555 1_555
C2_2 N1_2 1_555 1_555
H2_2 C2_2 1_555 1_555
C3_2 N3_2 1_555 1_555
H3_2 C3_2 1_555 1_555
H4_2 C3_2 1_555 1_555
H13_2 C11_2 1_555 1_555
C12_2 C3_2 1_555 1_555
C13_2 C12_2 1_555 1_555
H14_2 C13_2 1_555 1_555
C16_2 N10_2 1_555 1_555
H16_2 C16_2 1_555 1_555
C17_2 N10_2 1_555 1_555
H17_2 C17_2 1_555 1_555
H20_2 C20_2 1_555 1_555
C21_2 C20_2 1_555 1_555
C22_2 C21_2 1_555 1_555
H21_2 C22_2 1_555 1_555
C25_2 C21_2 1_555 1_555
H23_2 C25_2 1_555 1_555
H24_2 C25_2 1_555 1_555
C26_2 N18_2 1_555 1_555
H25_2 C26_2 1_555 1_555
N20 C31_2 1_555 1_555
N21_2 N22_2 1_555 1_555
N22_2 C32_2 1_555 1_555
N23_2 Cu7 1_555 1_555
N25_2 N26_2 1_555 1_555
N26_2 C35_2 1_555 1_555
C31_2 N21_2 1_555 1_555
H31_2 C31_2 1_555 1_555
C32_2 N20 1_555 1_555
H32_2 C32_2 1_555 1_555
C33_2 N22_2 1_555 1_555
H34_2 C33_2 1_555 1_555
C34_2 N23_2 1_555 1_555
H35_2 C34_2 1_555 1_555
C35_2 N23_2 1_555 1_555
H36_2 C35_2 1_555 1_555
C36_2 N25_2 1_555 1_555
H37_2 C36_2 1_555 1_555
H38_2 C36_2 1_555 1_555
C42_2 C33_2 1_555 1_555
C43_2 C42_2 1_555 1_555
H44_2 C43_2 1_555 1_555
C44_2 C36_2 1_555 1_555
N2_2 C1_2 1_555 1_555
N11_2 C16_2 1_555 1_555
C11_2 C12_2 1_555 1_555
N25_2 C34_2 1_555 1_555
C43_2 C44_2 1_555 1_555
Cu8_9 Cl3_2 1_555 1_555
N13_2 Cu8_9 1_555 1_555
N14_2 N15_2 1_555 1_555
N15_2 C28_2 1_555 1_555
H18_2 C18_2 1_555 1_555
H19_2 C18_2 1_555 1_555
C19_2 C18_2 1_555 1_555
C24_2 C19_2 1_555 1_555
H22_2 C24_2 1_555 1_555
C28_2 C23_2 1_555 1_555
H28_2 C28_2 1_555 1_555
C29_2 N13_2 1_555 1_555
H29_2 C29_2 1_555 1_555
C30_2 N13_2 1_555 1_555
N28 C37_2 1_555 1_555
N30_2 N31_2 1_555 1_555
N31_2 C38_2 1_555 1_555
N40_2 Cu8_9 1_555 1_555
C37_2 N30_2 1_555 1_555
H39_2 C37_2 1_555 1_555
C38_2 N28 1_555 1_555
H40_2 C38_2 1_555 1_555
C39_2 N30_2 1_555 1_555
H41_2 C39_2 1_555 1_555
H42_2 C39_2 1_555 1_555
C40_2 C39_2 1_555 1_555
C41_2 C40_2 1_555 1_555
H43_2 C41_2 1_555 1_555
C45_2 C40_2 1_555 1_555
H45_2 C45_2 1_555 1_555
N14_2 C29_2 1_555 1_555
N15_2 C30_2 1_555 1_555
C23_2 C24_2 1_555 1_555
C57_2 N40_2 1_555 1_555
H56_2 C57_2 1_555 1_555
N41_2 C57_2 1_555 1_555
C27_2 N16_2 1_555 1_555
H26_2 C27_2 1_555 1_555
Cu8_10 N16_2 1_555 1_555
N17_2 C27_2 1_555 1_555
Cl6_2 Cu8_10 1_555 1_555
N35_2 Cu8_10 1_555 1_555
N36_2 N37_2 1_555 1_555
N37_2 C58_2 1_555 1_555
H48_2 C48_2 1_555 1_555
H49_2 C48_2 1_555 1_555
C49_2 C48_2 1_555 1_555
C54_2 C49_2 1_555 1_555
H52_2 C54_2 1_555 1_555
C58_2 C53_2 1_555 1_555
H58_2 C58_2 1_555 1_555
C59_2 N35_2 1_555 1_555
H59_2 C59_2 1_555 1_555
C60_2 N35_2 1_555 1_555
N36_2 C59_2 1_555 1_555
N37_2 C60_2 1_555 1_555
C53_2 C54_2 1_555 1_555
Cu6 Cl4_2 1_555 1_555
Cl5_2 Cu6 1_555 1_555
N32_2 Cu6 1_555 1_555
N33_2 N34_2 1_555 1_555
N34_2 C47_2 1_555 1_555
N42_2 C55_2 1_555 1_555
C46_2 N32_2 1_555 1_555
H46_2 C46_2 1_555 1_555
C47_2 N32_2 1_555 1_555
H47_2 C47_2 1_555 1_555
H50_2 C50_2 1_555 1_555
C51_2 C50_2 1_555 1_555
C52_2 C51_2 1_555 1_555
H51_2 C52_2 1_555 1_555
C55_2 C51_2 1_555 1_555
H53_2 C55_2 1_555 1_555
H54_2 C55_2 1_555 1_555
C56_2 N42_2 1_555 1_555
H55_2 C56_2 1_555 1_555
N33_2 C46_2 1_555 1_555

#END
