
###############################################################################
#
# This file contains modified crystal structure data generated from the
# MOF subset of the Cambridge Structural Database (CSD) v543 
# hosted by the Cambridge Crystallographic Data Centre (CCDC).
#
# This work is licensed under the Creative Commons
# Attribution-NonCommercial-ShareAlike 4.0 International License.
# To view a copy of this license, visit
# http://creativecommons.org/licenses/by-nc-sa/4.0/
# or send a letter to
# Creative Commons, PO Box 1866, Mountain View, CA 94042, USA.
#
# CIF created using the CSD Python API on 29 September 2022
# The structure has been converted into the P1 space group
# The structure has a 3D framework
# The original CSD entry AVUPEP is in the cubic crystal system
# The original CSD entry AVUPEP is in a Sohncke space group
# The framework has been calculated to contain at least 10.0% void space
# The void calculation uses a probe of radius 1.32A, grid spacing 0.4
#
###############################################################################

data_AVUPEP
_chemical_formula_moiety         '(C576 H192 Fe28 O208)n'
_symmetry_cell_setting           triclinic
_symmetry_space_group_name_H-M   'P 1'
_symmetry_Int_Tables_number      1
_space_group_name_Hall           'P 1'
loop_
_symmetry_equiv_pos_site_id
_symmetry_equiv_pos_as_xyz
1 x,y,z
_cell_length_a                   32.8977
_cell_length_b                   32.8977
_cell_length_c                   32.8977
_cell_angle_alpha                90
_cell_angle_beta                 90
_cell_angle_gamma                90
_cell_volume                     35603.8
loop_
_atom_site_label
_atom_site_type_symbol
_atom_site_fract_x
_atom_site_fract_y
_atom_site_fract_z
_atom_site_U_iso_or_equiv
_atom_site_thermal_displace_type
O1 O 0.3968 0.0466 0.3350 3.8966 Uiso
C5 C 0.3918 0.0146 0.3550 0.0000 Uiso
C6 C 0.3587 0.0123 0.3800 0.0000 Uiso
O2 O 0.3354 0.0428 0.3815 0.0003 Uiso
C7 C 0.3469 0.1727 0.2169 0.0001 Uiso
O3 O 0.3255 0.0786 0.2983 0.8601 Uiso
O4 O 0.3758 0.1314 0.3144 16.2596 Uiso
H3 H 0.2845 0.0876 0.2241 0.0000 Uiso
H4 H 0.3967 0.1843 0.2557 0.0000 Uiso
C8 C 0.3071 0.1103 0.2329 16.6509 Uiso
C9 C 0.3119 0.1440 0.2083 0.0000 Uiso
C10 C 0.3699 0.1661 0.2509 0.0000 Uiso
C11 C 0.3314 0.1057 0.2720 3.3493 Uiso
C12 C 0.3604 0.1344 0.2802 26.7871 Uiso
Fe1 Fe 0.3568 0.0882 0.3480 1.5693 Uiso
O5 O 0.3909 0.1091 0.3909 0.0000 Uiso
C25 C 0.3273 0.2169 0.1531 0.0001 Uiso
O10 O 0.4214 0.2983 0.1745 0.8601 Uiso
O11 O 0.3686 0.3144 0.1242 16.2596 Uiso
H9 H 0.4124 0.2241 0.2155 0.0000 Uiso
H10 H 0.3157 0.2557 0.1033 0.0000 Uiso
C26 C 0.3897 0.2329 0.1929 16.6509 Uiso
C27 C 0.3560 0.2083 0.1881 0.0000 Uiso
C28 C 0.3339 0.2509 0.1301 0.0000 Uiso
C29 C 0.3943 0.2720 0.1686 3.3493 Uiso
C30 C 0.3656 0.2802 0.1396 26.7871 Uiso
C31 C 0.2831 0.1531 0.1727 0.0001 Uiso
O12 O 0.2017 0.1745 0.0786 0.8601 Uiso
O13 O 0.1856 0.1242 0.1314 16.2596 Uiso
H11 H 0.2759 0.2155 0.0876 0.0000 Uiso
H12 H 0.2443 0.1033 0.1843 0.0000 Uiso
C32 C 0.2671 0.1929 0.1103 16.6509 Uiso
C33 C 0.2917 0.1881 0.1440 0.0000 Uiso
C34 C 0.2491 0.1301 0.1661 0.0000 Uiso
C35 C 0.2280 0.1686 0.1057 3.3493 Uiso
C36 C 0.2198 0.1396 0.1344 26.7871 Uiso
Fe2 Fe 0.3480 0.3568 0.0882 1.5693 Uiso
Fe3 Fe 0.4118 0.1520 0.3568 1.5693 Uiso
O14 O 0.3350 0.3968 0.0466 3.8966 Uiso
O15 O 0.4534 0.1650 0.3968 3.8966 Uiso
O16 O 0.3815 0.3354 0.0428 0.0003 Uiso
O17 O 0.4572 0.1185 0.3354 0.0003 Uiso
O18 O 0.2983 0.3255 0.0786 0.8601 Uiso
O19 O 0.4214 0.2017 0.3255 0.8601 Uiso
O20 O 0.3144 0.3758 0.1314 16.2596 Uiso
O21 O 0.3144 0.1242 0.3686 16.2596 Uiso
O22 O 0.3686 0.1856 0.3758 16.2596 Uiso
Fe4 Fe 0.3480 0.1432 0.4118 1.5693 Uiso
Fe6 Fe 0.4118 0.3480 0.1432 1.5693 Uiso
Fe7 Fe 0.1432 0.0882 0.1520 1.5693 Uiso
Fe8 Fe 0.1520 0.1432 0.0882 1.5693 Uiso
O23 O 0.3909 0.3909 0.1091 0.0000 Uiso
C1 C 0.4210 0.9789 0.3545 0.0000 Uiso
C2 C 0.4154 0.9452 0.3793 0.0000 Uiso
C3 C 0.3530 0.9776 0.4075 0.0000 Uiso
C4 C 0.3803 0.9459 0.4096 0.0000 Uiso
H1 H 0.4486 0.9816 0.3363 0.0000 Uiso
H2 H 0.3313 0.9811 0.4324 0.0000 Uiso
C13 C 0.3545 0.9210 0.4789 0.0000 Uiso
C14 C 0.3793 0.9154 0.4452 0.0000 Uiso
C15 C 0.4075 0.8530 0.4776 0.0000 Uiso
C16 C 0.4096 0.8803 0.4459 0.0000 Uiso
O6 O 0.3350 0.8968 0.5466 3.8966 Uiso
C17 C 0.3550 0.8918 0.5146 0.0000 Uiso
C18 C 0.3800 0.8587 0.5123 0.0000 Uiso
O7 O 0.3815 0.8354 0.5428 0.0003 Uiso
H5 H 0.3363 0.9486 0.4816 0.0000 Uiso
H6 H 0.4324 0.8313 0.4811 0.0000 Uiso
C19 C 0.4789 0.8545 0.4210 0.0000 Uiso
C20 C 0.4452 0.8793 0.4154 0.0000 Uiso
C21 C 0.4776 0.9075 0.3530 0.0000 Uiso
C22 C 0.4459 0.9096 0.3803 0.0000 Uiso
O8 O 0.5466 0.8350 0.3968 3.8966 Uiso
C23 C 0.5146 0.8550 0.3918 0.0000 Uiso
C24 C 0.5123 0.8800 0.3587 0.0000 Uiso
O9 O 0.5428 0.8815 0.3354 0.0003 Uiso
H7 H 0.4816 0.8363 0.4486 0.0000 Uiso
H8 H 0.4811 0.9324 0.3313 0.0000 Uiso
Fe5 Fe 0.3480 0.8568 0.5882 1.5693 Uiso
Fe9 Fe 0.5882 0.8480 0.3568 1.5693 Uiso
O1_2 O 0.6650 0.6032 0.0466 3.8966 Uiso
C5_2 C 0.6450 0.6082 0.0146 0.0000 Uiso
C6_2 C 0.6200 0.6413 0.0123 0.0000 Uiso
O2_2 O 0.6185 0.6646 0.0428 0.0003 Uiso
C7_2 C 0.7831 0.6531 0.1727 0.0001 Uiso
O3_2 O 0.7017 0.6745 0.0786 0.8601 Uiso
O4_2 O 0.6856 0.6242 0.1314 16.2596 Uiso
H3_2 H 0.7759 0.7155 0.0876 0.0000 Uiso
H4_2 H 0.7443 0.6033 0.1843 0.0000 Uiso
C8_2 C 0.7671 0.6929 0.1103 16.6509 Uiso
C9_2 C 0.7917 0.6881 0.1440 0.0000 Uiso
C10_2 C 0.7491 0.6301 0.1661 0.0000 Uiso
C11_2 C 0.7280 0.6686 0.1057 3.3493 Uiso
C12_2 C 0.7198 0.6396 0.1344 26.7871 Uiso
Fe1_2 Fe 0.6520 0.6432 0.0882 1.5693 Uiso
O5_2 O 0.6091 0.6091 0.1091 0.0000 Uiso
C25_2 C 0.8469 0.6727 0.2169 0.0001 Uiso
O10_2 O 0.8255 0.5786 0.2983 0.8601 Uiso
O11_2 O 0.8758 0.6314 0.3144 16.2596 Uiso
H9_2 H 0.7845 0.5876 0.2241 0.0000 Uiso
H10_2 H 0.8967 0.6843 0.2557 0.0000 Uiso
C26_2 C 0.8071 0.6103 0.2329 16.6509 Uiso
C27_2 C 0.8119 0.6440 0.2083 0.0000 Uiso
C28_2 C 0.8699 0.6661 0.2509 0.0000 Uiso
C29_2 C 0.8314 0.6057 0.2720 3.3493 Uiso
C30_2 C 0.8604 0.6344 0.2802 26.7871 Uiso
C31_2 C 0.8273 0.7169 0.1531 0.0001 Uiso
O12_2 O 0.9214 0.7983 0.1745 0.8601 Uiso
O13_2 O 0.8686 0.8144 0.1242 16.2596 Uiso
H11_2 H 0.9124 0.7241 0.2155 0.0000 Uiso
H12_2 H 0.8157 0.7557 0.1033 0.0000 Uiso
C32_2 C 0.8897 0.7329 0.1929 16.6509 Uiso
C33_2 C 0.8560 0.7083 0.1881 0.0000 Uiso
C34_2 C 0.8339 0.7509 0.1301 0.0000 Uiso
C35_2 C 0.8943 0.7720 0.1686 3.3493 Uiso
C36_2 C 0.8656 0.7802 0.1396 26.7871 Uiso
Fe2_2 Fe 0.9118 0.6520 0.3568 1.5693 Uiso
Fe3_2 Fe 0.6432 0.5882 0.1520 1.5693 Uiso
O14_2 O 0.9534 0.6650 0.3968 3.8966 Uiso
O15_2 O 0.6032 0.5466 0.1650 3.8966 Uiso
O16_2 O 0.9572 0.6185 0.3354 0.0003 Uiso
O17_2 O 0.6646 0.5428 0.1185 0.0003 Uiso
O18_2 O 0.9214 0.7017 0.3255 0.8601 Uiso
O19_2 O 0.6745 0.5786 0.2017 0.8601 Uiso
O20_2 O 0.8686 0.6856 0.3758 16.2596 Uiso
O21_2 O 0.6314 0.6856 0.1242 16.2596 Uiso
O22_2 O 0.6242 0.6314 0.1856 16.2596 Uiso
Fe4_2 Fe 0.5882 0.6520 0.1432 1.5693 Uiso
Fe6_2 Fe 0.8568 0.5882 0.3480 1.5693 Uiso
Fe7_2 Fe 0.8480 0.8568 0.0882 1.5693 Uiso
Fe8_2 Fe 0.9118 0.8480 0.1432 1.5693 Uiso
O23_2 O 0.8909 0.6091 0.3909 0.0000 Uiso
C1_2 C 0.6455 0.5790 0.9789 0.0000 Uiso
C2_2 C 0.6207 0.5846 0.9452 0.0000 Uiso
C3_2 C 0.5925 0.6470 0.9776 0.0000 Uiso
C4_2 C 0.5904 0.6197 0.9459 0.0000 Uiso
H1_2 H 0.6637 0.5514 0.9816 0.0000 Uiso
H2_2 H 0.5676 0.6687 0.9811 0.0000 Uiso
C13_2 C 0.5211 0.6455 0.9210 0.0000 Uiso
C14_2 C 0.5548 0.6207 0.9154 0.0000 Uiso
C15_2 C 0.5224 0.5925 0.8530 0.0000 Uiso
C16_2 C 0.5541 0.5904 0.8803 0.0000 Uiso
O6_2 O 0.4534 0.6650 0.8968 3.8966 Uiso
C17_2 C 0.4854 0.6450 0.8918 0.0000 Uiso
C18_2 C 0.4877 0.6200 0.8587 0.0000 Uiso
O7_2 O 0.4572 0.6185 0.8354 0.0003 Uiso
H5_2 H 0.5184 0.6637 0.9486 0.0000 Uiso
H6_2 H 0.5189 0.5676 0.8313 0.0000 Uiso
C19_2 C 0.5790 0.5211 0.8545 0.0000 Uiso
C20_2 C 0.5846 0.5548 0.8793 0.0000 Uiso
C21_2 C 0.6470 0.5224 0.9075 0.0000 Uiso
C22_2 C 0.6197 0.5541 0.9096 0.0000 Uiso
O8_2 O 0.6032 0.4534 0.8350 3.8966 Uiso
C23_2 C 0.6082 0.4854 0.8550 0.0000 Uiso
C24_2 C 0.6413 0.4877 0.8800 0.0000 Uiso
O9_2 O 0.6646 0.4572 0.8815 0.0003 Uiso
H7_2 H 0.5514 0.5184 0.8363 0.0000 Uiso
H8_2 H 0.6687 0.5189 0.9324 0.0000 Uiso
Fe5_2 Fe 0.4118 0.6520 0.8568 1.5693 Uiso
Fe9_2 Fe 0.6432 0.4118 0.8480 1.5693 Uiso
C1_3 C 0.0211 0.6455 0.4210 0.0000 Uiso
C2_3 C 0.0548 0.6207 0.4154 0.0000 Uiso
C3_3 C 0.0224 0.5925 0.3530 0.0000 Uiso
C4_3 C 0.0541 0.5904 0.3803 0.0000 Uiso
H1_3 H 0.0184 0.6637 0.4486 0.0000 Uiso
H2_3 H 0.0189 0.5676 0.3313 0.0000 Uiso
C13_3 C 0.0790 0.5211 0.3545 0.0000 Uiso
C14_3 C 0.0846 0.5548 0.3793 0.0000 Uiso
C15_3 C 0.1470 0.5224 0.4075 0.0000 Uiso
C16_3 C 0.1197 0.5541 0.4096 0.0000 Uiso
O6_3 O 0.1032 0.4534 0.3350 3.8966 Uiso
C17_3 C 0.1082 0.4854 0.3550 0.0000 Uiso
C18_3 C 0.1413 0.4877 0.3800 0.0000 Uiso
O7_3 O 0.1646 0.4572 0.3815 0.0003 Uiso
H5_3 H 0.0514 0.5184 0.3363 0.0000 Uiso
H6_3 H 0.1687 0.5189 0.4324 0.0000 Uiso
C19_3 C 0.1455 0.5790 0.4789 0.0000 Uiso
C20_3 C 0.1207 0.5846 0.4452 0.0000 Uiso
C21_3 C 0.0925 0.6470 0.4776 0.0000 Uiso
C22_3 C 0.0904 0.6197 0.4459 0.0000 Uiso
O8_3 O 0.1650 0.6032 0.5466 3.8966 Uiso
C23_3 C 0.1450 0.6082 0.5146 0.0000 Uiso
C24_3 C 0.1200 0.6413 0.5123 0.0000 Uiso
O9_3 O 0.1185 0.6646 0.5428 0.0003 Uiso
H7_3 H 0.1637 0.5514 0.4816 0.0000 Uiso
H8_3 H 0.0676 0.6687 0.4811 0.0000 Uiso
Fe5_3 Fe 0.1432 0.4118 0.3480 1.5693 Uiso
Fe9_3 Fe 0.1520 0.6432 0.5882 1.5693 Uiso
C5_3 C 0.9854 0.6450 0.3918 0.0000 Uiso
C6_3 C 0.9877 0.6200 0.3587 0.0000 Uiso
C7_3 C 0.8273 0.7831 0.3469 0.0001 Uiso
H3_3 H 0.9124 0.7759 0.2845 0.0000 Uiso
H4_3 H 0.8157 0.7443 0.3967 0.0000 Uiso
C8_3 C 0.8897 0.7671 0.3071 16.6509 Uiso
C9_3 C 0.8560 0.7917 0.3119 0.0000 Uiso
C10_3 C 0.8339 0.7491 0.3699 0.0000 Uiso
C11_3 C 0.8943 0.7280 0.3314 3.3493 Uiso
C12_3 C 0.8656 0.7198 0.3604 26.7871 Uiso
C25_3 C 0.7831 0.8469 0.3273 0.0001 Uiso
O10_3 O 0.7017 0.8255 0.4214 0.8601 Uiso
O11_3 O 0.6856 0.8758 0.3686 16.2596 Uiso
H9_3 H 0.7759 0.7845 0.4124 0.0000 Uiso
H10_3 H 0.7443 0.8967 0.3157 0.0000 Uiso
C26_3 C 0.7671 0.8071 0.3897 16.6509 Uiso
C27_3 C 0.7917 0.8119 0.3560 0.0000 Uiso
C28_3 C 0.7491 0.8699 0.3339 0.0000 Uiso
C29_3 C 0.7280 0.8314 0.3943 3.3493 Uiso
C30_3 C 0.7198 0.8604 0.3656 26.7871 Uiso
C31_3 C 0.8469 0.8273 0.2831 0.0001 Uiso
O12_3 O 0.8255 0.9214 0.2017 0.8601 Uiso
O13_3 O 0.8758 0.8686 0.1856 16.2596 Uiso
H11_3 H 0.7845 0.9124 0.2759 0.0000 Uiso
H12_3 H 0.8967 0.8157 0.2443 0.0000 Uiso
C32_3 C 0.8071 0.8897 0.2671 16.6509 Uiso
C33_3 C 0.8119 0.8560 0.2917 0.0000 Uiso
C34_3 C 0.8699 0.8339 0.2491 0.0000 Uiso
C35_3 C 0.8314 0.8943 0.2280 3.3493 Uiso
C36_3 C 0.8604 0.8656 0.2198 26.7871 Uiso
Fe2_3 Fe 0.6432 0.9118 0.3480 1.5693 Uiso
Fe3_3 Fe 0.8480 0.6432 0.4118 1.5693 Uiso
O14_3 O 0.6032 0.9534 0.3350 3.8966 Uiso
O15_3 O 0.8350 0.6032 0.4534 3.8966 Uiso
O16_3 O 0.6646 0.9572 0.3815 0.0003 Uiso
O17_3 O 0.8815 0.6646 0.4572 0.0003 Uiso
O18_3 O 0.6745 0.9214 0.2983 0.8601 Uiso
O19_3 O 0.7983 0.6745 0.4214 0.8601 Uiso
O20_3 O 0.6242 0.8686 0.3144 16.2596 Uiso
O22_3 O 0.8144 0.6242 0.3686 16.2596 Uiso
Fe6_3 Fe 0.6520 0.8568 0.4118 1.5693 Uiso
Fe8_3 Fe 0.8568 0.9118 0.1520 1.5693 Uiso
O23_3 O 0.6091 0.8909 0.3909 0.0000 Uiso
C1_4 C 0.5790 0.0211 0.3545 0.0000 Uiso
C2_4 C 0.5846 0.0548 0.3793 0.0000 Uiso
C3_4 C 0.6470 0.0224 0.4075 0.0000 Uiso
C4_4 C 0.6197 0.0541 0.4096 0.0000 Uiso
H1_4 H 0.5514 0.0184 0.3363 0.0000 Uiso
H2_4 H 0.6687 0.0189 0.4324 0.0000 Uiso
C13_4 C 0.6455 0.0790 0.4789 0.0000 Uiso
C14_4 C 0.6207 0.0846 0.4452 0.0000 Uiso
C15_4 C 0.5925 0.1470 0.4776 0.0000 Uiso
C16_4 C 0.5904 0.1197 0.4459 0.0000 Uiso
O6_4 O 0.6650 0.1032 0.5466 3.8966 Uiso
C17_4 C 0.6450 0.1082 0.5146 0.0000 Uiso
C18_4 C 0.6200 0.1413 0.5123 0.0000 Uiso
O7_4 O 0.6185 0.1646 0.5428 0.0003 Uiso
H5_4 H 0.6637 0.0514 0.4816 0.0000 Uiso
H6_4 H 0.5676 0.1687 0.4811 0.0000 Uiso
C19_4 C 0.5211 0.1455 0.4210 0.0000 Uiso
C20_4 C 0.5548 0.1207 0.4154 0.0000 Uiso
C21_4 C 0.5224 0.0925 0.3530 0.0000 Uiso
C22_4 C 0.5541 0.0904 0.3803 0.0000 Uiso
C23_4 C 0.4854 0.1450 0.3918 0.0000 Uiso
C24_4 C 0.4877 0.1200 0.3587 0.0000 Uiso
H7_4 H 0.5184 0.1637 0.4486 0.0000 Uiso
H8_4 H 0.5189 0.0676 0.3313 0.0000 Uiso
Fe5_4 Fe 0.6520 0.1432 0.5882 1.5693 Uiso
C5_4 C 0.6082 0.9854 0.3550 0.0000 Uiso
C6_4 C 0.6413 0.9877 0.3800 0.0000 Uiso
C7_4 C 0.6531 0.8273 0.2169 0.0001 Uiso
H3_4 H 0.7155 0.9124 0.2241 0.0000 Uiso
H4_4 H 0.6033 0.8157 0.2557 0.0000 Uiso
C8_4 C 0.6929 0.8897 0.2329 16.6509 Uiso
C9_4 C 0.6881 0.8560 0.2083 0.0000 Uiso
C10_4 C 0.6301 0.8339 0.2509 0.0000 Uiso
C11_4 C 0.6686 0.8943 0.2720 3.3493 Uiso
C12_4 C 0.6396 0.8656 0.2802 26.7871 Uiso
C25_4 C 0.6727 0.7831 0.1531 0.0001 Uiso
O10_4 O 0.5786 0.7017 0.1745 0.8601 Uiso
H9_4 H 0.5876 0.7759 0.2155 0.0000 Uiso
H10_4 H 0.6843 0.7443 0.1033 0.0000 Uiso
C26_4 C 0.6103 0.7671 0.1929 16.6509 Uiso
C27_4 C 0.6440 0.7917 0.1881 0.0000 Uiso
C28_4 C 0.6661 0.7491 0.1301 0.0000 Uiso
C29_4 C 0.6057 0.7280 0.1686 3.3493 Uiso
C30_4 C 0.6344 0.7198 0.1396 26.7871 Uiso
C31_4 C 0.7169 0.8469 0.1727 0.0001 Uiso
O12_4 O 0.7983 0.8255 0.0786 0.8601 Uiso
O13_4 O 0.8144 0.8758 0.1314 16.2596 Uiso
H11_4 H 0.7241 0.7845 0.0876 0.0000 Uiso
H12_4 H 0.7557 0.8967 0.1843 0.0000 Uiso
C32_4 C 0.7329 0.8071 0.1103 16.6509 Uiso
C33_4 C 0.7083 0.8119 0.1440 0.0000 Uiso
C34_4 C 0.7509 0.8699 0.1661 0.0000 Uiso
C35_4 C 0.7720 0.8314 0.1057 3.3493 Uiso
C36_4 C 0.7802 0.8604 0.1344 26.7871 Uiso
O19_4 O 0.5786 0.7983 0.3255 0.8601 Uiso
O22_4 O 0.6314 0.8144 0.3758 16.2596 Uiso
C1_5 C 0.6455 0.4210 0.0211 0.0000 Uiso
C2_5 C 0.6207 0.4154 0.0548 0.0000 Uiso
C3_5 C 0.5925 0.3530 0.0224 0.0000 Uiso
C4_5 C 0.5904 0.3803 0.0541 0.0000 Uiso
H1_5 H 0.6637 0.4486 0.0184 0.0000 Uiso
H2_5 H 0.5676 0.3313 0.0189 0.0000 Uiso
C13_5 C 0.5211 0.3545 0.0790 0.0000 Uiso
C14_5 C 0.5548 0.3793 0.0846 0.0000 Uiso
C15_5 C 0.5224 0.4075 0.1470 0.0000 Uiso
C16_5 C 0.5541 0.4096 0.1197 0.0000 Uiso
O6_5 O 0.4534 0.3350 0.1032 3.8966 Uiso
C17_5 C 0.4854 0.3550 0.1082 0.0000 Uiso
C18_5 C 0.4877 0.3800 0.1413 0.0000 Uiso
O7_5 O 0.4572 0.3815 0.1646 0.0003 Uiso
H5_5 H 0.5184 0.3363 0.0514 0.0000 Uiso
H6_5 H 0.5189 0.4324 0.1687 0.0000 Uiso
C19_5 C 0.5790 0.4789 0.1455 0.0000 Uiso
C20_5 C 0.5846 0.4452 0.1207 0.0000 Uiso
C21_5 C 0.6470 0.4776 0.0925 0.0000 Uiso
C22_5 C 0.6197 0.4459 0.0904 0.0000 Uiso
C23_5 C 0.6082 0.5146 0.1450 0.0000 Uiso
C24_5 C 0.6413 0.5123 0.1200 0.0000 Uiso
H7_5 H 0.5514 0.4816 0.1637 0.0000 Uiso
H8_5 H 0.6687 0.4811 0.0676 0.0000 Uiso
O1_3 O 0.6650 0.3968 0.9534 3.8966 Uiso
C5_5 C 0.6450 0.3918 0.9854 0.0000 Uiso
C6_5 C 0.6200 0.3587 0.9877 0.0000 Uiso
O2_3 O 0.6185 0.3354 0.9572 0.0003 Uiso
C7_5 C 0.7831 0.3469 0.8273 0.0001 Uiso
O3_3 O 0.7017 0.3255 0.9214 0.8601 Uiso
O4_3 O 0.6856 0.3758 0.8686 16.2596 Uiso
H3_5 H 0.7759 0.2845 0.9124 0.0000 Uiso
H4_5 H 0.7443 0.3967 0.8157 0.0000 Uiso
C8_5 C 0.7671 0.3071 0.8897 16.6509 Uiso
C9_5 C 0.7917 0.3119 0.8560 0.0000 Uiso
C10_5 C 0.7491 0.3699 0.8339 0.0000 Uiso
C11_5 C 0.7280 0.3314 0.8943 3.3493 Uiso
C12_5 C 0.7198 0.3604 0.8656 26.7871 Uiso
Fe1_3 Fe 0.6520 0.3568 0.9118 1.5693 Uiso
O5_3 O 0.6091 0.3909 0.8909 0.0000 Uiso
C25_5 C 0.8469 0.3273 0.7831 0.0001 Uiso
O10_5 O 0.8255 0.4214 0.7017 0.8601 Uiso
O11_4 O 0.8758 0.3686 0.6856 16.2596 Uiso
H9_5 H 0.7845 0.4124 0.7759 0.0000 Uiso
H10_5 H 0.8967 0.3157 0.7443 0.0000 Uiso
C26_5 C 0.8071 0.3897 0.7671 16.6509 Uiso
C27_5 C 0.8119 0.3560 0.7917 0.0000 Uiso
C28_5 C 0.8699 0.3339 0.7491 0.0000 Uiso
C29_5 C 0.8314 0.3943 0.7280 3.3493 Uiso
C30_5 C 0.8604 0.3656 0.7198 26.7871 Uiso
C31_5 C 0.8273 0.2831 0.8469 0.0001 Uiso
O12_5 O 0.9214 0.2017 0.8255 0.8601 Uiso
O13_5 O 0.8686 0.1856 0.8758 16.2596 Uiso
H11_5 H 0.9124 0.2759 0.7845 0.0000 Uiso
H12_5 H 0.8157 0.2443 0.8967 0.0000 Uiso
C32_5 C 0.8897 0.2671 0.8071 16.6509 Uiso
C33_5 C 0.8560 0.2917 0.8119 0.0000 Uiso
C34_5 C 0.8339 0.2491 0.8699 0.0000 Uiso
C35_5 C 0.8943 0.2280 0.8314 3.3493 Uiso
C36_5 C 0.8656 0.2198 0.8604 26.7871 Uiso
Fe2_4 Fe 0.9118 0.3480 0.6432 1.5693 Uiso
O14_4 O 0.9534 0.3350 0.6032 3.8966 Uiso
O16_4 O 0.9572 0.3815 0.6646 0.0003 Uiso
O18_4 O 0.9214 0.2983 0.6745 0.8601 Uiso
O19_5 O 0.6745 0.4214 0.7983 0.8601 Uiso
O20_4 O 0.8686 0.3144 0.6242 16.2596 Uiso
O21_3 O 0.6314 0.3144 0.8758 16.2596 Uiso
O22_5 O 0.6242 0.3686 0.8144 16.2596 Uiso
Fe4_3 Fe 0.5882 0.3480 0.8568 1.5693 Uiso
Fe6_4 Fe 0.8568 0.4118 0.6520 1.5693 Uiso
Fe7_3 Fe 0.8480 0.1432 0.9118 1.5693 Uiso
Fe8_4 Fe 0.9118 0.1520 0.8568 1.5693 Uiso
O23_4 O 0.8909 0.3909 0.6091 0.0000 Uiso
C1_6 C 0.0211 0.3545 0.5790 0.0000 Uiso
C2_6 C 0.0548 0.3793 0.5846 0.0000 Uiso
C3_6 C 0.0224 0.4075 0.6470 0.0000 Uiso
C4_6 C 0.0541 0.4096 0.6197 0.0000 Uiso
H1_6 H 0.0184 0.3363 0.5514 0.0000 Uiso
H2_6 H 0.0189 0.4324 0.6687 0.0000 Uiso
C13_6 C 0.0790 0.4789 0.6455 0.0000 Uiso
C14_6 C 0.0846 0.4452 0.6207 0.0000 Uiso
C15_6 C 0.1470 0.4776 0.5925 0.0000 Uiso
C16_6 C 0.1197 0.4459 0.5904 0.0000 Uiso
O6_6 O 0.1032 0.5466 0.6650 3.8966 Uiso
C17_6 C 0.1082 0.5146 0.6450 0.0000 Uiso
C18_6 C 0.1413 0.5123 0.6200 0.0000 Uiso
O7_6 O 0.1646 0.5428 0.6185 0.0003 Uiso
H5_6 H 0.0514 0.4816 0.6637 0.0000 Uiso
H6_6 H 0.1687 0.4811 0.5676 0.0000 Uiso
C19_6 C 0.1455 0.4210 0.5211 0.0000 Uiso
C20_6 C 0.1207 0.4154 0.5548 0.0000 Uiso
C21_6 C 0.0925 0.3530 0.5224 0.0000 Uiso
C22_6 C 0.0904 0.3803 0.5541 0.0000 Uiso
O8_4 O 0.1650 0.3968 0.4534 3.8966 Uiso
C23_6 C 0.1450 0.3918 0.4854 0.0000 Uiso
C24_6 C 0.1200 0.3587 0.4877 0.0000 Uiso
O9_4 O 0.1185 0.3354 0.4572 0.0003 Uiso
H7_6 H 0.1637 0.4486 0.5184 0.0000 Uiso
H8_6 H 0.0676 0.3313 0.5189 0.0000 Uiso
Fe5_5 Fe 0.1432 0.5882 0.6520 1.5693 Uiso
Fe9_4 Fe 0.1520 0.3568 0.4118 1.5693 Uiso
C5_6 C 0.9854 0.3550 0.6082 0.0000 Uiso
C6_6 C 0.9877 0.3800 0.6413 0.0000 Uiso
C7_6 C 0.8273 0.2169 0.6531 0.0001 Uiso
H3_6 H 0.9124 0.2241 0.7155 0.0000 Uiso
H4_6 H 0.8157 0.2557 0.6033 0.0000 Uiso
C8_6 C 0.8897 0.2329 0.6929 16.6509 Uiso
C9_6 C 0.8560 0.2083 0.6881 0.0000 Uiso
C10_6 C 0.8339 0.2509 0.6301 0.0000 Uiso
C11_6 C 0.8943 0.2720 0.6686 3.3493 Uiso
C12_6 C 0.8656 0.2802 0.6396 26.7871 Uiso
C25_6 C 0.7831 0.1531 0.6727 0.0001 Uiso
O10_6 O 0.7017 0.1745 0.5786 0.8601 Uiso
O11_5 O 0.6856 0.1242 0.6314 16.2596 Uiso
H9_6 H 0.7759 0.2155 0.5876 0.0000 Uiso
H10_6 H 0.7443 0.1033 0.6843 0.0000 Uiso
C26_6 C 0.7671 0.1929 0.6103 16.6509 Uiso
C27_6 C 0.7917 0.1881 0.6440 0.0000 Uiso
C28_6 C 0.7491 0.1301 0.6661 0.0000 Uiso
C29_6 C 0.7280 0.1686 0.6057 3.3493 Uiso
C30_6 C 0.7198 0.1396 0.6344 26.7871 Uiso
C31_6 C 0.8469 0.1727 0.7169 0.0001 Uiso
O12_6 O 0.8255 0.0786 0.7983 0.8601 Uiso
O13_6 O 0.8758 0.1314 0.8144 16.2596 Uiso
H11_6 H 0.7845 0.0876 0.7241 0.0000 Uiso
H12_6 H 0.8967 0.1843 0.7557 0.0000 Uiso
C32_6 C 0.8071 0.1103 0.7329 16.6509 Uiso
C33_6 C 0.8119 0.1440 0.7083 0.0000 Uiso
C34_6 C 0.8699 0.1661 0.7509 0.0000 Uiso
C35_6 C 0.8314 0.1057 0.7720 3.3493 Uiso
C36_6 C 0.8604 0.1344 0.7802 26.7871 Uiso
Fe2_5 Fe 0.6432 0.0882 0.6520 1.5693 Uiso
Fe3_4 Fe 0.8480 0.3568 0.5882 1.5693 Uiso
O14_5 O 0.6032 0.0466 0.6650 3.8966 Uiso
O15_4 O 0.8350 0.3968 0.5466 3.8966 Uiso
O16_5 O 0.6646 0.0428 0.6185 0.0003 Uiso
O17_4 O 0.8815 0.3354 0.5428 0.0003 Uiso
O18_5 O 0.6745 0.0786 0.7017 0.8601 Uiso
O19_6 O 0.7983 0.3255 0.5786 0.8601 Uiso
O20_5 O 0.6242 0.1314 0.6856 16.2596 Uiso
O22_6 O 0.8144 0.3758 0.6314 16.2596 Uiso
Fe8_5 Fe 0.8568 0.0882 0.8480 1.5693 Uiso
O23_5 O 0.6091 0.1091 0.6091 0.0000 Uiso
C5_7 C 0.6082 0.0146 0.6450 0.0000 Uiso
C6_7 C 0.6413 0.0123 0.6200 0.0000 Uiso
C7_7 C 0.6531 0.1727 0.7831 0.0001 Uiso
H3_7 H 0.7155 0.0876 0.7759 0.0000 Uiso
H4_7 H 0.6033 0.1843 0.7443 0.0000 Uiso
C8_7 C 0.6929 0.1103 0.7671 16.6509 Uiso
C9_7 C 0.6881 0.1440 0.7917 0.0000 Uiso
C10_7 C 0.6301 0.1661 0.7491 0.0000 Uiso
C11_7 C 0.6686 0.1057 0.7280 3.3493 Uiso
C12_7 C 0.6396 0.1344 0.7198 26.7871 Uiso
C25_7 C 0.6727 0.2169 0.8469 0.0001 Uiso
O10_7 O 0.5786 0.2983 0.8255 0.8601 Uiso
H9_7 H 0.5876 0.2241 0.7845 0.0000 Uiso
H10_7 H 0.6843 0.2557 0.8967 0.0000 Uiso
C26_7 C 0.6103 0.2329 0.8071 16.6509 Uiso
C27_7 C 0.6440 0.2083 0.8119 0.0000 Uiso
C28_7 C 0.6661 0.2509 0.8699 0.0000 Uiso
C29_7 C 0.6057 0.2720 0.8314 3.3493 Uiso
C30_7 C 0.6344 0.2802 0.8604 26.7871 Uiso
C31_7 C 0.7169 0.1531 0.8273 0.0001 Uiso
O12_7 O 0.7983 0.1745 0.9214 0.8601 Uiso
O13_7 O 0.8144 0.1242 0.8686 16.2596 Uiso
H11_7 H 0.7241 0.2155 0.9124 0.0000 Uiso
H12_7 H 0.7557 0.1033 0.8157 0.0000 Uiso
C32_7 C 0.7329 0.1929 0.8897 16.6509 Uiso
C33_7 C 0.7083 0.1881 0.8560 0.0000 Uiso
C34_7 C 0.7509 0.1301 0.8339 0.0000 Uiso
C35_7 C 0.7720 0.1686 0.8943 3.3493 Uiso
C36_7 C 0.7802 0.1396 0.8656 26.7871 Uiso
Fe3_5 Fe 0.5882 0.1520 0.6432 1.5693 Uiso
O15_5 O 0.5466 0.1650 0.6032 3.8966 Uiso
O17_5 O 0.5428 0.1185 0.6646 0.0003 Uiso
O19_7 O 0.5786 0.2017 0.6745 0.8601 Uiso
O22_7 O 0.6314 0.1856 0.6242 16.2596 Uiso
C1_7 C 0.5790 0.9789 0.6455 0.0000 Uiso
C2_7 C 0.5846 0.9452 0.6207 0.0000 Uiso
C3_7 C 0.6470 0.9776 0.5925 0.0000 Uiso
C4_7 C 0.6197 0.9459 0.5904 0.0000 Uiso
H1_7 H 0.5514 0.9816 0.6637 0.0000 Uiso
H2_7 H 0.6687 0.9811 0.5676 0.0000 Uiso
C13_7 C 0.6455 0.9210 0.5211 0.0000 Uiso
C14_7 C 0.6207 0.9154 0.5548 0.0000 Uiso
C15_7 C 0.5925 0.8530 0.5224 0.0000 Uiso
C16_7 C 0.5904 0.8803 0.5541 0.0000 Uiso
O6_7 O 0.6650 0.8968 0.4534 3.8966 Uiso
C17_7 C 0.6450 0.8918 0.4854 0.0000 Uiso
C18_7 C 0.6200 0.8587 0.4877 0.0000 Uiso
O7_7 O 0.6185 0.8354 0.4572 0.0003 Uiso
H5_7 H 0.6637 0.9486 0.5184 0.0000 Uiso
H6_7 H 0.5676 0.8313 0.5189 0.0000 Uiso
C19_7 C 0.5211 0.8545 0.5790 0.0000 Uiso
C20_7 C 0.5548 0.8793 0.5846 0.0000 Uiso
C21_7 C 0.5224 0.9075 0.6470 0.0000 Uiso
C22_7 C 0.5541 0.9096 0.6197 0.0000 Uiso
O8_5 O 0.4534 0.8350 0.6032 3.8966 Uiso
C23_7 C 0.4854 0.8550 0.6082 0.0000 Uiso
C24_7 C 0.4877 0.8800 0.6413 0.0000 Uiso
O9_5 O 0.4572 0.8815 0.6646 0.0003 Uiso
H7_7 H 0.5184 0.8363 0.5514 0.0000 Uiso
H8_7 H 0.5189 0.9324 0.6687 0.0000 Uiso
Fe9_5 Fe 0.4118 0.8480 0.6432 1.5693 Uiso
C1_8 C 0.3545 0.5790 0.0211 0.0000 Uiso
C2_8 C 0.3793 0.5846 0.0548 0.0000 Uiso
C3_8 C 0.4075 0.6470 0.0224 0.0000 Uiso
C4_8 C 0.4096 0.6197 0.0541 0.0000 Uiso
H1_8 H 0.3363 0.5514 0.0184 0.0000 Uiso
H2_8 H 0.4324 0.6687 0.0189 0.0000 Uiso
C13_8 C 0.4789 0.6455 0.0790 0.0000 Uiso
C14_8 C 0.4452 0.6207 0.0846 0.0000 Uiso
C15_8 C 0.4776 0.5925 0.1470 0.0000 Uiso
C16_8 C 0.4459 0.5904 0.1197 0.0000 Uiso
O6_8 O 0.5466 0.6650 0.1032 3.8966 Uiso
C17_8 C 0.5146 0.6450 0.1082 0.0000 Uiso
C18_8 C 0.5123 0.6200 0.1413 0.0000 Uiso
O7_8 O 0.5428 0.6185 0.1646 0.0003 Uiso
H5_8 H 0.4816 0.6637 0.0514 0.0000 Uiso
H6_8 H 0.4811 0.5676 0.1687 0.0000 Uiso
C19_8 C 0.4210 0.5211 0.1455 0.0000 Uiso
C20_8 C 0.4154 0.5548 0.1207 0.0000 Uiso
C21_8 C 0.3530 0.5224 0.0925 0.0000 Uiso
C22_8 C 0.3803 0.5541 0.0904 0.0000 Uiso
O8_6 O 0.3968 0.4534 0.1650 3.8966 Uiso
C23_8 C 0.3918 0.4854 0.1450 0.0000 Uiso
C24_8 C 0.3587 0.4877 0.1200 0.0000 Uiso
O9_6 O 0.3354 0.4572 0.1185 0.0003 Uiso
H7_8 H 0.4486 0.5184 0.1637 0.0000 Uiso
H8_8 H 0.3313 0.5189 0.0676 0.0000 Uiso
Fe9_6 Fe 0.3568 0.4118 0.1520 1.5693 Uiso
O1_4 O 0.3350 0.6032 0.9534 3.8966 Uiso
C5_8 C 0.3550 0.6082 0.9854 0.0000 Uiso
C6_8 C 0.3800 0.6413 0.9877 0.0000 Uiso
O2_4 O 0.3815 0.6646 0.9572 0.0003 Uiso
C7_8 C 0.2169 0.6531 0.8273 0.0001 Uiso
O3_4 O 0.2983 0.6745 0.9214 0.8601 Uiso
O4_4 O 0.3144 0.6242 0.8686 16.2596 Uiso
H3_8 H 0.2241 0.7155 0.9124 0.0000 Uiso
H4_8 H 0.2557 0.6033 0.8157 0.0000 Uiso
C8_8 C 0.2329 0.6929 0.8897 16.6509 Uiso
C9_8 C 0.2083 0.6881 0.8560 0.0000 Uiso
C10_8 C 0.2509 0.6301 0.8339 0.0000 Uiso
C11_8 C 0.2720 0.6686 0.8943 3.3493 Uiso
C12_8 C 0.2802 0.6396 0.8656 26.7871 Uiso
Fe1_4 Fe 0.3480 0.6432 0.9118 1.5693 Uiso
O5_4 O 0.3909 0.6091 0.8909 0.0000 Uiso
C25_8 C 0.1531 0.6727 0.7831 0.0001 Uiso
O10_8 O 0.1745 0.5786 0.7017 0.8601 Uiso
O11_6 O 0.1242 0.6314 0.6856 16.2596 Uiso
H9_8 H 0.2155 0.5876 0.7759 0.0000 Uiso
H10_8 H 0.1033 0.6843 0.7443 0.0000 Uiso
C26_8 C 0.1929 0.6103 0.7671 16.6509 Uiso
C27_8 C 0.1881 0.6440 0.7917 0.0000 Uiso
C28_8 C 0.1301 0.6661 0.7491 0.0000 Uiso
C29_8 C 0.1686 0.6057 0.7280 3.3493 Uiso
C30_8 C 0.1396 0.6344 0.7198 26.7871 Uiso
C31_8 C 0.1727 0.7169 0.8469 0.0001 Uiso
O12_8 O 0.0786 0.7983 0.8255 0.8601 Uiso
O13_8 O 0.1314 0.8144 0.8758 16.2596 Uiso
H11_8 H 0.0876 0.7241 0.7845 0.0000 Uiso
H12_8 H 0.1843 0.7557 0.8967 0.0000 Uiso
C32_8 C 0.1103 0.7329 0.8071 16.6509 Uiso
C33_8 C 0.1440 0.7083 0.8119 0.0000 Uiso
C34_8 C 0.1661 0.7509 0.8699 0.0000 Uiso
C35_8 C 0.1057 0.7720 0.8314 3.3493 Uiso
C36_8 C 0.1344 0.7802 0.8604 26.7871 Uiso
Fe2_6 Fe 0.0882 0.6520 0.6432 1.5693 Uiso
Fe3_6 Fe 0.3568 0.5882 0.8480 1.5693 Uiso
O14_6 O 0.0466 0.6650 0.6032 3.8966 Uiso
O15_6 O 0.3968 0.5466 0.8350 3.8966 Uiso
O16_6 O 0.0428 0.6185 0.6646 0.0003 Uiso
O17_6 O 0.3354 0.5428 0.8815 0.0003 Uiso
O18_6 O 0.0786 0.7017 0.6745 0.8601 Uiso
O19_8 O 0.3255 0.5786 0.7983 0.8601 Uiso
O20_6 O 0.1314 0.6856 0.6242 16.2596 Uiso
O21_4 O 0.3686 0.6856 0.8758 16.2596 Uiso
O22_8 O 0.3758 0.6314 0.8144 16.2596 Uiso
Fe7_4 Fe 0.1520 0.8568 0.9118 1.5693 Uiso
Fe8_6 Fe 0.0882 0.8480 0.8568 1.5693 Uiso
O23_6 O 0.1091 0.6091 0.6091 0.0000 Uiso
C5_9 C 0.0146 0.6450 0.6082 0.0000 Uiso
C6_9 C 0.0123 0.6200 0.6413 0.0000 Uiso
C7_9 C 0.1727 0.7831 0.6531 0.0001 Uiso
H3_9 H 0.0876 0.7759 0.7155 0.0000 Uiso
H4_9 H 0.1843 0.7443 0.6033 0.0000 Uiso
C8_9 C 0.1103 0.7671 0.6929 16.6509 Uiso
C9_9 C 0.1440 0.7917 0.6881 0.0000 Uiso
C10_9 C 0.1661 0.7491 0.6301 0.0000 Uiso
C11_9 C 0.1057 0.7280 0.6686 3.3493 Uiso
C12_9 C 0.1344 0.7198 0.6396 26.7871 Uiso
C25_9 C 0.2169 0.8469 0.6727 0.0001 Uiso
O10_9 O 0.2983 0.8255 0.5786 0.8601 Uiso
O11_7 O 0.3144 0.8758 0.6314 16.2596 Uiso
H9_9 H 0.2241 0.7845 0.5876 0.0000 Uiso
H10_9 H 0.2557 0.8967 0.6843 0.0000 Uiso
C26_9 C 0.2329 0.8071 0.6103 16.6509 Uiso
C27_9 C 0.2083 0.8119 0.6440 0.0000 Uiso
C28_9 C 0.2509 0.8699 0.6661 0.0000 Uiso
C29_9 C 0.2720 0.8314 0.6057 3.3493 Uiso
C30_9 C 0.2802 0.8604 0.6344 26.7871 Uiso
C31_9 C 0.1531 0.8273 0.7169 0.0001 Uiso
O12_9 O 0.1745 0.9214 0.7983 0.8601 Uiso
O13_9 O 0.1242 0.8686 0.8144 16.2596 Uiso
H11_9 H 0.2155 0.9124 0.7241 0.0000 Uiso
H12_9 H 0.1033 0.8157 0.7557 0.0000 Uiso
C32_9 C 0.1929 0.8897 0.7329 16.6509 Uiso
C33_9 C 0.1881 0.8560 0.7083 0.0000 Uiso
C34_9 C 0.1301 0.8339 0.7509 0.0000 Uiso
C35_9 C 0.1686 0.8943 0.7720 3.3493 Uiso
C36_9 C 0.1396 0.8656 0.7802 26.7871 Uiso
Fe2_7 Fe 0.3568 0.9118 0.6520 1.5693 Uiso
O14_7 O 0.3968 0.9534 0.6650 3.8966 Uiso
O16_7 O 0.3354 0.9572 0.6185 0.0003 Uiso
O18_7 O 0.3255 0.9214 0.7017 0.8601 Uiso
O19_9 O 0.2017 0.6745 0.5786 0.8601 Uiso
O20_7 O 0.3758 0.8686 0.6856 16.2596 Uiso
O22_9 O 0.1856 0.6242 0.6314 16.2596 Uiso
Fe8_7 Fe 0.1432 0.9118 0.8480 1.5693 Uiso
O23_7 O 0.3909 0.8909 0.6091 0.0000 Uiso
C1_9 C 0.9789 0.6455 0.5790 0.0000 Uiso
C2_9 C 0.9452 0.6207 0.5846 0.0000 Uiso
C3_9 C 0.9776 0.5925 0.6470 0.0000 Uiso
C4_9 C 0.9459 0.5904 0.6197 0.0000 Uiso
H1_9 H 0.9816 0.6637 0.5514 0.0000 Uiso
H2_9 H 0.9811 0.5676 0.6687 0.0000 Uiso
C13_9 C 0.9210 0.5211 0.6455 0.0000 Uiso
C14_9 C 0.9154 0.5548 0.6207 0.0000 Uiso
C15_9 C 0.8530 0.5224 0.5925 0.0000 Uiso
C16_9 C 0.8803 0.5541 0.5904 0.0000 Uiso
O6_9 O 0.8968 0.4534 0.6650 3.8966 Uiso
C17_9 C 0.8918 0.4854 0.6450 0.0000 Uiso
C18_9 C 0.8587 0.4877 0.6200 0.0000 Uiso
O7_9 O 0.8354 0.4572 0.6185 0.0003 Uiso
H5_9 H 0.9486 0.5184 0.6637 0.0000 Uiso
H6_9 H 0.8313 0.5189 0.5676 0.0000 Uiso
C19_9 C 0.8545 0.5790 0.5211 0.0000 Uiso
C20_9 C 0.8793 0.5846 0.5548 0.0000 Uiso
C21_9 C 0.9075 0.6470 0.5224 0.0000 Uiso
C22_9 C 0.9096 0.6197 0.5541 0.0000 Uiso
C23_9 C 0.8550 0.6082 0.4854 0.0000 Uiso
C24_9 C 0.8800 0.6413 0.4877 0.0000 Uiso
H7_9 H 0.8363 0.5514 0.5184 0.0000 Uiso
H8_9 H 0.9324 0.6687 0.5189 0.0000 Uiso
C1_10 C 0.4210 0.0211 0.6455 0.0000 Uiso
C2_10 C 0.4154 0.0548 0.6207 0.0000 Uiso
C3_10 C 0.3530 0.0224 0.5925 0.0000 Uiso
C4_10 C 0.3803 0.0541 0.5904 0.0000 Uiso
H1_10 H 0.4486 0.0184 0.6637 0.0000 Uiso
H2_10 H 0.3313 0.0189 0.5676 0.0000 Uiso
C13_10 C 0.3545 0.0790 0.5211 0.0000 Uiso
C14_10 C 0.3793 0.0846 0.5548 0.0000 Uiso
C15_10 C 0.4075 0.1470 0.5224 0.0000 Uiso
C16_10 C 0.4096 0.1197 0.5541 0.0000 Uiso
O6_10 O 0.3350 0.1032 0.4534 3.8966 Uiso
C17_10 C 0.3550 0.1082 0.4854 0.0000 Uiso
C18_10 C 0.3800 0.1413 0.4877 0.0000 Uiso
O7_10 O 0.3815 0.1646 0.4572 0.0003 Uiso
H5_10 H 0.3363 0.0514 0.5184 0.0000 Uiso
H6_10 H 0.4324 0.1687 0.5189 0.0000 Uiso
C19_10 C 0.4789 0.1455 0.5790 0.0000 Uiso
C20_10 C 0.4452 0.1207 0.5846 0.0000 Uiso
C21_10 C 0.4776 0.0925 0.6470 0.0000 Uiso
C22_10 C 0.4459 0.0904 0.6197 0.0000 Uiso
C23_10 C 0.5146 0.1450 0.6082 0.0000 Uiso
C24_10 C 0.5123 0.1200 0.6413 0.0000 Uiso
H7_10 H 0.4816 0.1637 0.5514 0.0000 Uiso
H8_10 H 0.4811 0.0676 0.6687 0.0000 Uiso
C5_10 C 0.3918 0.9854 0.6450 0.0000 Uiso
C6_10 C 0.3587 0.9877 0.6200 0.0000 Uiso
C7_10 C 0.3469 0.8273 0.7831 0.0001 Uiso
H3_10 H 0.2845 0.9124 0.7759 0.0000 Uiso
H4_10 H 0.3967 0.8157 0.7443 0.0000 Uiso
C8_10 C 0.3071 0.8897 0.7671 16.6509 Uiso
C9_10 C 0.3119 0.8560 0.7917 0.0000 Uiso
C10_10 C 0.3699 0.8339 0.7491 0.0000 Uiso
C11_10 C 0.3314 0.8943 0.7280 3.3493 Uiso
C12_10 C 0.3604 0.8656 0.7198 26.7871 Uiso
C25_10 C 0.3273 0.7831 0.8469 0.0001 Uiso
O10_10 O 0.4214 0.7017 0.8255 0.8601 Uiso
H9_10 H 0.4124 0.7759 0.7845 0.0000 Uiso
H10_10 H 0.3157 0.7443 0.8967 0.0000 Uiso
C26_10 C 0.3897 0.7671 0.8071 16.6509 Uiso
C27_10 C 0.3560 0.7917 0.8119 0.0000 Uiso
C28_10 C 0.3339 0.7491 0.8699 0.0000 Uiso
C29_10 C 0.3943 0.7280 0.8314 3.3493 Uiso
C30_10 C 0.3656 0.7198 0.8604 26.7871 Uiso
C31_10 C 0.2831 0.8469 0.8273 0.0001 Uiso
O12_10 O 0.2017 0.8255 0.9214 0.8601 Uiso
O13_10 O 0.1856 0.8758 0.8686 16.2596 Uiso
H11_10 H 0.2759 0.7845 0.9124 0.0000 Uiso
H12_10 H 0.2443 0.8967 0.8157 0.0000 Uiso
C32_10 C 0.2671 0.8071 0.8897 16.6509 Uiso
C33_10 C 0.2917 0.8119 0.8560 0.0000 Uiso
C34_10 C 0.2491 0.8699 0.8339 0.0000 Uiso
C35_10 C 0.2280 0.8314 0.8943 3.3493 Uiso
C36_10 C 0.2198 0.8604 0.8656 26.7871 Uiso
O19_10 O 0.4214 0.7983 0.6745 0.8601 Uiso
O22_10 O 0.3686 0.8144 0.6242 16.2596 Uiso
C5_11 C 0.3550 0.3918 0.0146 0.0000 Uiso
C6_11 C 0.3800 0.3587 0.0123 0.0000 Uiso
C7_11 C 0.2169 0.3469 0.1727 0.0001 Uiso
H3_11 H 0.2241 0.2845 0.0876 0.0000 Uiso
H4_11 H 0.2557 0.3967 0.1843 0.0000 Uiso
C8_11 C 0.2329 0.3071 0.1103 16.6509 Uiso
C9_11 C 0.2083 0.3119 0.1440 0.0000 Uiso
C10_11 C 0.2509 0.3699 0.1661 0.0000 Uiso
C11_11 C 0.2720 0.3314 0.1057 3.3493 Uiso
C12_11 C 0.2802 0.3604 0.1344 26.7871 Uiso
C25_11 C 0.1531 0.3273 0.2169 0.0001 Uiso
O10_11 O 0.1745 0.4214 0.2983 0.8601 Uiso
O11_8 O 0.1242 0.3686 0.3144 16.2596 Uiso
H9_11 H 0.2155 0.4124 0.2241 0.0000 Uiso
H10_11 H 0.1033 0.3157 0.2557 0.0000 Uiso
C26_11 C 0.1929 0.3897 0.2329 16.6509 Uiso
C27_11 C 0.1881 0.3560 0.2083 0.0000 Uiso
C28_11 C 0.1301 0.3339 0.2509 0.0000 Uiso
C29_11 C 0.1686 0.3943 0.2720 3.3493 Uiso
C30_11 C 0.1396 0.3656 0.2802 26.7871 Uiso
C31_11 C 0.1727 0.2831 0.1531 0.0001 Uiso
O12_11 O 0.0786 0.2017 0.1745 0.8601 Uiso
O13_11 O 0.1314 0.1856 0.1242 16.2596 Uiso
H11_11 H 0.0876 0.2759 0.2155 0.0000 Uiso
H12_11 H 0.1843 0.2443 0.1033 0.0000 Uiso
C32_11 C 0.1103 0.2671 0.1929 16.6509 Uiso
C33_11 C 0.1440 0.2917 0.1881 0.0000 Uiso
C34_11 C 0.1661 0.2491 0.1301 0.0000 Uiso
C35_11 C 0.1057 0.2280 0.1686 3.3493 Uiso
C36_11 C 0.1344 0.2198 0.1396 26.7871 Uiso
Fe2_8 Fe 0.0882 0.3480 0.3568 1.5693 Uiso
O14_8 O 0.0466 0.3350 0.3968 3.8966 Uiso
O16_8 O 0.0428 0.3815 0.3354 0.0003 Uiso
O18_8 O 0.0786 0.2983 0.3255 0.8601 Uiso
O19_11 O 0.3255 0.4214 0.2017 0.8601 Uiso
O20_8 O 0.1314 0.3144 0.3758 16.2596 Uiso
O22_11 O 0.3758 0.3686 0.1856 16.2596 Uiso
Fe8_8 Fe 0.0882 0.1520 0.1432 1.5693 Uiso
O23_8 O 0.1091 0.3909 0.3909 0.0000 Uiso
C1_11 C 0.3545 0.4210 0.9789 0.0000 Uiso
C2_11 C 0.3793 0.4154 0.9452 0.0000 Uiso
C3_11 C 0.4075 0.3530 0.9776 0.0000 Uiso
C4_11 C 0.4096 0.3803 0.9459 0.0000 Uiso
H1_11 H 0.3363 0.4486 0.9816 0.0000 Uiso
H2_11 H 0.4324 0.3313 0.9811 0.0000 Uiso
C13_11 C 0.4789 0.3545 0.9210 0.0000 Uiso
C14_11 C 0.4452 0.3793 0.9154 0.0000 Uiso
C15_11 C 0.4776 0.4075 0.8530 0.0000 Uiso
C16_11 C 0.4459 0.4096 0.8803 0.0000 Uiso
O6_11 O 0.5466 0.3350 0.8968 3.8966 Uiso
C17_11 C 0.5146 0.3550 0.8918 0.0000 Uiso
C18_11 C 0.5123 0.3800 0.8587 0.0000 Uiso
O7_11 O 0.5428 0.3815 0.8354 0.0003 Uiso
H5_11 H 0.4816 0.3363 0.9486 0.0000 Uiso
H6_11 H 0.4811 0.4324 0.8313 0.0000 Uiso
C19_11 C 0.4210 0.4789 0.8545 0.0000 Uiso
C20_11 C 0.4154 0.4452 0.8793 0.0000 Uiso
C21_11 C 0.3530 0.4776 0.9075 0.0000 Uiso
C22_11 C 0.3803 0.4459 0.9096 0.0000 Uiso
C23_11 C 0.3918 0.5146 0.8550 0.0000 Uiso
C24_11 C 0.3587 0.5123 0.8800 0.0000 Uiso
H7_11 H 0.4486 0.4816 0.8363 0.0000 Uiso
H8_11 H 0.3313 0.4811 0.9324 0.0000 Uiso
C5_12 C 0.0146 0.3550 0.3918 0.0000 Uiso
C6_12 C 0.0123 0.3800 0.3587 0.0000 Uiso
C7_12 C 0.1727 0.2169 0.3469 0.0001 Uiso
H3_12 H 0.0876 0.2241 0.2845 0.0000 Uiso
H4_12 H 0.1843 0.2557 0.3967 0.0000 Uiso
C8_12 C 0.1103 0.2329 0.3071 16.6509 Uiso
C9_12 C 0.1440 0.2083 0.3119 0.0000 Uiso
C10_12 C 0.1661 0.2509 0.3699 0.0000 Uiso
C11_12 C 0.1057 0.2720 0.3314 3.3493 Uiso
C12_12 C 0.1344 0.2802 0.3604 26.7871 Uiso
C25_12 C 0.2169 0.1531 0.3273 0.0001 Uiso
O10_12 O 0.2983 0.1745 0.4214 0.8601 Uiso
H9_12 H 0.2241 0.2155 0.4124 0.0000 Uiso
H10_12 H 0.2557 0.1033 0.3157 0.0000 Uiso
C26_12 C 0.2329 0.1929 0.3897 16.6509 Uiso
C27_12 C 0.2083 0.1881 0.3560 0.0000 Uiso
C28_12 C 0.2509 0.1301 0.3339 0.0000 Uiso
C29_12 C 0.2720 0.1686 0.3943 3.3493 Uiso
C30_12 C 0.2802 0.1396 0.3656 26.7871 Uiso
C31_12 C 0.1531 0.1727 0.2831 0.0001 Uiso
O12_12 O 0.1745 0.0786 0.2017 0.8601 Uiso
O13_12 O 0.1242 0.1314 0.1856 16.2596 Uiso
H11_12 H 0.2155 0.0876 0.2759 0.0000 Uiso
H12_12 H 0.1033 0.1843 0.2443 0.0000 Uiso
C32_12 C 0.1929 0.1103 0.2671 16.6509 Uiso
C33_12 C 0.1881 0.1440 0.2917 0.0000 Uiso
C34_12 C 0.1301 0.1661 0.2491 0.0000 Uiso
C35_12 C 0.1686 0.1057 0.2280 3.3493 Uiso
C36_12 C 0.1396 0.1344 0.2198 26.7871 Uiso
O19_12 O 0.2017 0.3255 0.4214 0.8601 Uiso
O22_12 O 0.1856 0.3758 0.3686 16.2596 Uiso
C1_12 C 0.9789 0.3545 0.4210 0.0000 Uiso
C2_12 C 0.9452 0.3793 0.4154 0.0000 Uiso
C3_12 C 0.9776 0.4075 0.3530 0.0000 Uiso
C4_12 C 0.9459 0.4096 0.3803 0.0000 Uiso
H1_12 H 0.9816 0.3363 0.4486 0.0000 Uiso
H2_12 H 0.9811 0.4324 0.3313 0.0000 Uiso
C13_12 C 0.9210 0.4789 0.3545 0.0000 Uiso
C14_12 C 0.9154 0.4452 0.3793 0.0000 Uiso
C15_12 C 0.8530 0.4776 0.4075 0.0000 Uiso
C16_12 C 0.8803 0.4459 0.4096 0.0000 Uiso
O6_12 O 0.8968 0.5466 0.3350 3.8966 Uiso
C17_12 C 0.8918 0.5146 0.3550 0.0000 Uiso
C18_12 C 0.8587 0.5123 0.3800 0.0000 Uiso
O7_12 O 0.8354 0.5428 0.3815 0.0003 Uiso
H5_12 H 0.9486 0.4816 0.3363 0.0000 Uiso
H6_12 H 0.8313 0.4811 0.4324 0.0000 Uiso
C19_12 C 0.8545 0.4210 0.4789 0.0000 Uiso
C20_12 C 0.8793 0.4154 0.4452 0.0000 Uiso
C21_12 C 0.9075 0.3530 0.4776 0.0000 Uiso
C22_12 C 0.9096 0.3803 0.4459 0.0000 Uiso
C23_12 C 0.8550 0.3918 0.5146 0.0000 Uiso
C24_12 C 0.8800 0.3587 0.5123 0.0000 Uiso
H7_12 H 0.8363 0.4486 0.4816 0.0000 Uiso
H8_12 H 0.9324 0.3313 0.4811 0.0000 Uiso
O14_9 O 0.9534 0.1650 0.8968 3.8966 Uiso
O16_9 O 0.9572 0.1185 0.8354 0.0003 Uiso
O23_9 O 0.8909 0.1091 0.8909 0.0000 Uiso
O8_7 O 0.1650 0.1032 0.0466 3.8966 Uiso
C23_13 C 0.1450 0.1082 0.0146 0.0000 Uiso
C24_13 C 0.1200 0.1413 0.0123 0.0000 Uiso
O9_7 O 0.1185 0.1646 0.0428 0.0003 Uiso
O6_13 O 0.1032 0.9534 0.8350 3.8966 Uiso
C17_13 C 0.1082 0.9854 0.8550 0.0000 Uiso
C18_13 C 0.1413 0.9877 0.8800 0.0000 Uiso
O7_13 O 0.1646 0.9572 0.8815 0.0003 Uiso
C5_13 C 0.9854 0.1450 0.8918 0.0000 Uiso
C6_13 C 0.9877 0.1200 0.8587 0.0000 Uiso
O15_7 O 0.8350 0.1032 0.9534 3.8966 Uiso
O17_7 O 0.8815 0.1646 0.9572 0.0003 Uiso
C7_13 C 0.6531 0.3273 0.7169 0.0001 Uiso
H3_13 H 0.7155 0.4124 0.7241 0.0000 Uiso
H4_13 H 0.6033 0.3157 0.7557 0.0000 Uiso
C8_13 C 0.6929 0.3897 0.7329 16.6509 Uiso
C9_13 C 0.6881 0.3560 0.7083 0.0000 Uiso
C10_13 C 0.6301 0.3339 0.7509 0.0000 Uiso
C11_13 C 0.6686 0.3943 0.7720 3.3493 Uiso
C12_13 C 0.6396 0.3656 0.7802 26.7871 Uiso
C25_13 C 0.6727 0.2831 0.6531 0.0001 Uiso
H9_13 H 0.5876 0.2759 0.7155 0.0000 Uiso
H10_13 H 0.6843 0.2443 0.6033 0.0000 Uiso
C26_13 C 0.6103 0.2671 0.6929 16.6509 Uiso
C27_13 C 0.6440 0.2917 0.6881 0.0000 Uiso
C28_13 C 0.6661 0.2491 0.6301 0.0000 Uiso
C29_13 C 0.6057 0.2280 0.6686 3.3493 Uiso
C30_13 C 0.6344 0.2198 0.6396 26.7871 Uiso
C31_13 C 0.7169 0.3469 0.6727 0.0001 Uiso
H11_13 H 0.7241 0.2845 0.5876 0.0000 Uiso
H12_13 H 0.7557 0.3967 0.6843 0.0000 Uiso
C32_13 C 0.7329 0.3071 0.6103 16.6509 Uiso
C33_13 C 0.7083 0.3119 0.6440 0.0000 Uiso
C34_13 C 0.7509 0.3699 0.6661 0.0000 Uiso
C35_13 C 0.7720 0.3314 0.6057 3.3493 Uiso
C36_13 C 0.7802 0.3604 0.6344 26.7871 Uiso
O14_10 O 0.9534 0.8350 0.1032 3.8966 Uiso
O16_10 O 0.9572 0.8815 0.1646 0.0003 Uiso
O23_10 O 0.8909 0.8909 0.1091 0.0000 Uiso
O6_14 O 0.1032 0.0466 0.1650 3.8966 Uiso
C17_14 C 0.1082 0.0146 0.1450 0.0000 Uiso
C18_14 C 0.1413 0.0123 0.1200 0.0000 Uiso
O7_14 O 0.1646 0.0428 0.1185 0.0003 Uiso
O8_8 O 0.1650 0.8968 0.9534 3.8966 Uiso
C23_14 C 0.1450 0.8918 0.9854 0.0000 Uiso
C24_14 C 0.1200 0.8587 0.9877 0.0000 Uiso
O9_8 O 0.1185 0.8354 0.9572 0.0003 Uiso
C5_14 C 0.9854 0.8550 0.1082 0.0000 Uiso
C6_14 C 0.9877 0.8800 0.1413 0.0000 Uiso
O15_8 O 0.8350 0.8968 0.0466 3.8966 Uiso
O17_8 O 0.8815 0.8354 0.0428 0.0003 Uiso
C7_14 C 0.6531 0.6727 0.2831 0.0001 Uiso
H3_14 H 0.7155 0.5876 0.2759 0.0000 Uiso
H4_14 H 0.6033 0.6843 0.2443 0.0000 Uiso
C8_14 C 0.6929 0.6103 0.2671 16.6509 Uiso
C9_14 C 0.6881 0.6440 0.2917 0.0000 Uiso
C10_14 C 0.6301 0.6661 0.2491 0.0000 Uiso
C11_14 C 0.6686 0.6057 0.2280 3.3493 Uiso
C12_14 C 0.6396 0.6344 0.2198 26.7871 Uiso
C25_14 C 0.6727 0.7169 0.3469 0.0001 Uiso
H9_14 H 0.5876 0.7241 0.2845 0.0000 Uiso
H10_14 H 0.6843 0.7557 0.3967 0.0000 Uiso
C26_14 C 0.6103 0.7329 0.3071 16.6509 Uiso
C27_14 C 0.6440 0.7083 0.3119 0.0000 Uiso
C28_14 C 0.6661 0.7509 0.3699 0.0000 Uiso
C29_14 C 0.6057 0.7720 0.3314 3.3493 Uiso
C30_14 C 0.6344 0.7802 0.3604 26.7871 Uiso
C31_14 C 0.7169 0.6531 0.3273 0.0001 Uiso
H11_14 H 0.7241 0.7155 0.4124 0.0000 Uiso
H12_14 H 0.7557 0.6033 0.3157 0.0000 Uiso
C32_14 C 0.7329 0.6929 0.3897 16.6509 Uiso
C33_14 C 0.7083 0.6881 0.3560 0.0000 Uiso
C34_14 C 0.7509 0.6301 0.3339 0.0000 Uiso
C35_14 C 0.7720 0.6686 0.3943 3.3493 Uiso
C36_14 C 0.7802 0.6396 0.3656 26.7871 Uiso
O14_11 O 0.0466 0.1650 0.1032 3.8966 Uiso
O16_11 O 0.0428 0.1185 0.1646 0.0003 Uiso
O23_11 O 0.1091 0.1091 0.1091 0.0000 Uiso
C5_15 C 0.0146 0.1450 0.1082 0.0000 Uiso
C6_15 C 0.0123 0.1200 0.1413 0.0000 Uiso
C23_15 C 0.8550 0.1082 0.9854 0.0000 Uiso
C24_15 C 0.8800 0.1413 0.9877 0.0000 Uiso
O6_15 O 0.8968 0.9534 0.1650 3.8966 Uiso
C17_15 C 0.8918 0.9854 0.1450 0.0000 Uiso
C18_15 C 0.8587 0.9877 0.1200 0.0000 Uiso
O7_15 O 0.8354 0.9572 0.1185 0.0003 Uiso
C7_15 C 0.3469 0.3273 0.2831 0.0001 Uiso
H3_15 H 0.2845 0.4124 0.2759 0.0000 Uiso
H4_15 H 0.3967 0.3157 0.2443 0.0000 Uiso
C8_15 C 0.3071 0.3897 0.2671 16.6509 Uiso
C9_15 C 0.3119 0.3560 0.2917 0.0000 Uiso
C10_15 C 0.3699 0.3339 0.2491 0.0000 Uiso
C11_15 C 0.3314 0.3943 0.2280 3.3493 Uiso
C12_15 C 0.3604 0.3656 0.2198 26.7871 Uiso
C25_15 C 0.3273 0.2831 0.3469 0.0001 Uiso
H9_15 H 0.4124 0.2759 0.2845 0.0000 Uiso
H10_15 H 0.3157 0.2443 0.3967 0.0000 Uiso
C26_15 C 0.3897 0.2671 0.3071 16.6509 Uiso
C27_15 C 0.3560 0.2917 0.3119 0.0000 Uiso
C28_15 C 0.3339 0.2491 0.3699 0.0000 Uiso
C29_15 C 0.3943 0.2280 0.3314 3.3493 Uiso
C30_15 C 0.3656 0.2198 0.3604 26.7871 Uiso
C31_15 C 0.2831 0.3469 0.3273 0.0001 Uiso
H11_15 H 0.2759 0.2845 0.4124 0.0000 Uiso
H12_15 H 0.2443 0.3967 0.3157 0.0000 Uiso
C32_15 C 0.2671 0.3071 0.3897 16.6509 Uiso
C33_15 C 0.2917 0.3119 0.3560 0.0000 Uiso
C34_15 C 0.2491 0.3699 0.3339 0.0000 Uiso
C35_15 C 0.2280 0.3314 0.3943 3.3493 Uiso
C36_15 C 0.2198 0.3604 0.3656 26.7871 Uiso
O14_12 O 0.0466 0.8350 0.8968 3.8966 Uiso
O16_12 O 0.0428 0.8815 0.8354 0.0003 Uiso
O23_12 O 0.1091 0.8909 0.8909 0.0000 Uiso
C5_16 C 0.0146 0.8550 0.8918 0.0000 Uiso
C6_16 C 0.0123 0.8800 0.8587 0.0000 Uiso
O6_16 O 0.8968 0.0466 0.8350 3.8966 Uiso
C17_16 C 0.8918 0.0146 0.8550 0.0000 Uiso
C18_16 C 0.8587 0.0123 0.8800 0.0000 Uiso
O7_16 O 0.8354 0.0428 0.8815 0.0003 Uiso
C23_16 C 0.8550 0.8918 0.0146 0.0000 Uiso
C24_16 C 0.8800 0.8587 0.0123 0.0000 Uiso
C7_16 C 0.3469 0.6727 0.7169 0.0001 Uiso
H3_16 H 0.2845 0.5876 0.7241 0.0000 Uiso
H4_16 H 0.3967 0.6843 0.7557 0.0000 Uiso
C8_16 C 0.3071 0.6103 0.7329 16.6509 Uiso
C9_16 C 0.3119 0.6440 0.7083 0.0000 Uiso
C10_16 C 0.3699 0.6661 0.7509 0.0000 Uiso
C11_16 C 0.3314 0.6057 0.7720 3.3493 Uiso
C12_16 C 0.3604 0.6344 0.7802 26.7871 Uiso
C25_16 C 0.3273 0.7169 0.6531 0.0001 Uiso
H9_16 H 0.4124 0.7241 0.7155 0.0000 Uiso
H10_16 H 0.3157 0.7557 0.6033 0.0000 Uiso
C26_16 C 0.3897 0.7329 0.6929 16.6509 Uiso
C27_16 C 0.3560 0.7083 0.6881 0.0000 Uiso
C28_16 C 0.3339 0.7509 0.6301 0.0000 Uiso
C29_16 C 0.3943 0.7720 0.6686 3.3493 Uiso
C30_16 C 0.3656 0.7802 0.6396 26.7871 Uiso
C31_16 C 0.2831 0.6531 0.6727 0.0001 Uiso
H11_16 H 0.2759 0.7155 0.5876 0.0000 Uiso
H12_16 H 0.2443 0.6033 0.6843 0.0000 Uiso
C32_16 C 0.2671 0.6929 0.6103 16.6509 Uiso
C33_16 C 0.2917 0.6881 0.6440 0.0000 Uiso
C34_16 C 0.2491 0.6301 0.6661 0.0000 Uiso
C35_16 C 0.2280 0.6686 0.6057 3.3493 Uiso
C36_16 C 0.2198 0.6396 0.6344 26.7871 Uiso
C1_13 C 0.0211 0.1455 0.9210 0.0000 Uiso
C2_13 C 0.0548 0.1207 0.9154 0.0000 Uiso
C3_13 C 0.0224 0.0925 0.8530 0.0000 Uiso
C4_13 C 0.0541 0.0904 0.8803 0.0000 Uiso
H1_13 H 0.0184 0.1637 0.9486 0.0000 Uiso
H2_13 H 0.0189 0.0676 0.8313 0.0000 Uiso
C13_13 C 0.0790 0.0211 0.8545 0.0000 Uiso
C14_13 C 0.0846 0.0548 0.8793 0.0000 Uiso
C15_13 C 0.1470 0.0224 0.9075 0.0000 Uiso
C16_13 C 0.1197 0.0541 0.9096 0.0000 Uiso
H5_13 H 0.0514 0.0184 0.8363 0.0000 Uiso
H6_13 H 0.1687 0.0189 0.9324 0.0000 Uiso
C19_13 C 0.1455 0.0790 0.9789 0.0000 Uiso
C20_13 C 0.1207 0.0846 0.9452 0.0000 Uiso
C21_13 C 0.0925 0.1470 0.9776 0.0000 Uiso
C22_13 C 0.0904 0.1197 0.9459 0.0000 Uiso
H7_13 H 0.1637 0.0514 0.9816 0.0000 Uiso
H8_13 H 0.0676 0.1687 0.9811 0.0000 Uiso
C1_14 C 0.0211 0.8545 0.0790 0.0000 Uiso
C2_14 C 0.0548 0.8793 0.0846 0.0000 Uiso
C3_14 C 0.0224 0.9075 0.1470 0.0000 Uiso
C4_14 C 0.0541 0.9096 0.1197 0.0000 Uiso
H1_14 H 0.0184 0.8363 0.0514 0.0000 Uiso
H2_14 H 0.0189 0.9324 0.1687 0.0000 Uiso
C13_14 C 0.0790 0.9789 0.1455 0.0000 Uiso
C14_14 C 0.0846 0.9452 0.1207 0.0000 Uiso
C15_14 C 0.1470 0.9776 0.0925 0.0000 Uiso
C16_14 C 0.1197 0.9459 0.0904 0.0000 Uiso
H5_14 H 0.0514 0.9816 0.1637 0.0000 Uiso
H6_14 H 0.1687 0.9811 0.0676 0.0000 Uiso
C19_14 C 0.1455 0.9210 0.0211 0.0000 Uiso
C20_14 C 0.1207 0.9154 0.0548 0.0000 Uiso
C21_14 C 0.0925 0.8530 0.0224 0.0000 Uiso
C22_14 C 0.0904 0.8803 0.0541 0.0000 Uiso
H7_14 H 0.1637 0.9486 0.0184 0.0000 Uiso
H8_14 H 0.0676 0.8313 0.0189 0.0000 Uiso
C1_15 C 0.9789 0.1455 0.0790 0.0000 Uiso
C2_15 C 0.9452 0.1207 0.0846 0.0000 Uiso
C3_15 C 0.9776 0.0925 0.1470 0.0000 Uiso
C4_15 C 0.9459 0.0904 0.1197 0.0000 Uiso
H1_15 H 0.9816 0.1637 0.0514 0.0000 Uiso
H2_15 H 0.9811 0.0676 0.1687 0.0000 Uiso
C13_15 C 0.9210 0.0211 0.1455 0.0000 Uiso
C14_15 C 0.9154 0.0548 0.1207 0.0000 Uiso
C15_15 C 0.8530 0.0224 0.0925 0.0000 Uiso
C16_15 C 0.8803 0.0541 0.0904 0.0000 Uiso
H5_15 H 0.9486 0.0184 0.1637 0.0000 Uiso
H6_15 H 0.8313 0.0189 0.0676 0.0000 Uiso
C19_15 C 0.8545 0.0790 0.0211 0.0000 Uiso
C20_15 C 0.8793 0.0846 0.0548 0.0000 Uiso
C21_15 C 0.9075 0.1470 0.0224 0.0000 Uiso
C22_15 C 0.9096 0.1197 0.0541 0.0000 Uiso
H7_15 H 0.8363 0.0514 0.0184 0.0000 Uiso
H8_15 H 0.9324 0.1687 0.0189 0.0000 Uiso
C1_16 C 0.9789 0.8545 0.9210 0.0000 Uiso
C2_16 C 0.9452 0.8793 0.9154 0.0000 Uiso
C3_16 C 0.9776 0.9075 0.8530 0.0000 Uiso
C4_16 C 0.9459 0.9096 0.8803 0.0000 Uiso
H1_16 H 0.9816 0.8363 0.9486 0.0000 Uiso
H2_16 H 0.9811 0.9324 0.8313 0.0000 Uiso
C13_16 C 0.9210 0.9789 0.8545 0.0000 Uiso
C14_16 C 0.9154 0.9452 0.8793 0.0000 Uiso
C15_16 C 0.8530 0.9776 0.9075 0.0000 Uiso
C16_16 C 0.8803 0.9459 0.9096 0.0000 Uiso
H5_16 H 0.9486 0.9816 0.8363 0.0000 Uiso
H6_16 H 0.8313 0.9811 0.9324 0.0000 Uiso
C19_16 C 0.8545 0.9210 0.9789 0.0000 Uiso
C20_16 C 0.8793 0.9154 0.9452 0.0000 Uiso
C21_16 C 0.9075 0.8530 0.9776 0.0000 Uiso
C22_16 C 0.9096 0.8803 0.9459 0.0000 Uiso
H7_16 H 0.8363 0.9486 0.9816 0.0000 Uiso
H8_16 H 0.9324 0.8313 0.9811 0.0000 Uiso
loop_
_geom_bond_atom_site_label_1
_geom_bond_atom_site_label_2
_geom_bond_site_symmetry_1
_geom_bond_site_symmetry_2
O1 C5 1_555 1_555
O2 C6 1_555 1_555
C7 C9 1_555 1_555
O3 C11 1_555 1_555
O4 C12 1_555 1_555
H3 C8 1_555 1_555
H4 C10 1_555 1_555
C8 C9 1_555 1_555
C9 C31 1_555 1_555
C10 C7 1_555 1_555
C11 C8 1_555 1_555
C12 C10 1_555 1_555
Fe1 O1 1_555 1_555
O5 Fe1 1_555 1_555
C25 C27 1_555 1_555
O10 C29 1_555 1_555
O11 C30 1_555 1_555
H9 C26 1_555 1_555
H10 C28 1_555 1_555
C26 C27 1_555 1_555
C27 C7 1_555 1_555
C28 C25 1_555 1_555
C29 C26 1_555 1_555
C30 C28 1_555 1_555
C31 C33 1_555 1_555
O12 C35 1_555 1_555
O13 C36 1_555 1_555
H11 C32 1_555 1_555
H12 C34 1_555 1_555
C32 C33 1_555 1_555
C33 C25 1_555 1_555
C34 C31 1_555 1_555
C35 C32 1_555 1_555
C36 C34 1_555 1_555
Fe2 O11 1_555 1_555
Fe3 O4 1_555 1_555
O14 Fe2 1_555 1_555
O15 Fe3 1_555 1_555
O16 Fe2 1_555 1_555
O17 Fe3 1_555 1_555
O18 Fe2 1_555 1_555
O19 Fe3 1_555 1_555
O20 Fe2 1_555 1_555
O21 Fe1 1_555 1_555
O22 Fe3 1_555 1_555
Fe4 O5 1_555 1_555
Fe6 O10 1_555 1_555
Fe7 O13 1_555 1_555
Fe8 O12 1_555 1_555
O23 Fe2 1_555 1_555
C5 C6 1_555 1_555
O2 Fe1 1_555 1_555
O3 Fe1 1_555 1_555
O4 Fe1 1_555 1_555
C11 C12 1_555 1_555
O5 Fe3 1_555 1_555
O11 Fe6 1_555 1_555
C29 C30 1_555 1_555
O13 Fe8 1_555 1_555
C35 C36 1_555 1_555
O21 Fe4 1_555 1_555
O22 Fe4 1_555 1_555
Fe6 O23 1_555 1_555
C1 C2 1_555 1_555
C2 C4 1_555 1_555
C3 C4 1_555 1_555
C4 C14 1_555 1_555
H1 C1 1_555 1_555
H2 C3 1_555 1_555
C13 C14 1_555 1_555
C14 C16 1_555 1_555
C15 C16 1_555 1_555
C16 C20 1_555 1_555
O6 C17 1_555 1_555
C17 C13 1_555 1_555
C18 C15 1_555 1_555
O7 C18 1_555 1_555
H5 C13 1_555 1_555
H6 C15 1_555 1_555
C19 C20 1_555 1_555
C20 C22 1_555 1_555
C21 C22 1_555 1_555
C22 C2 1_555 1_555
O8 C23 1_555 1_555
C23 C19 1_555 1_555
C24 C21 1_555 1_555
O9 C24 1_555 1_555
H7 C19 1_555 1_555
H8 C21 1_555 1_555
Fe5 O6 1_555 1_555
Fe9 O8 1_555 1_555
C17 C18 1_555 1_555
O7 Fe5 1_555 1_555
C23 C24 1_555 1_555
O9 Fe9 1_555 1_555
O1_2 C5_2 1_555 1_555
O2_2 C6_2 1_555 1_555
C7_2 C9_2 1_555 1_555
O3_2 C11_2 1_555 1_555
O4_2 C12_2 1_555 1_555
H3_2 C8_2 1_555 1_555
H4_2 C10_2 1_555 1_555
C8_2 C9_2 1_555 1_555
C9_2 C31_2 1_555 1_555
C10_2 C7_2 1_555 1_555
C11_2 C8_2 1_555 1_555
C12_2 C10_2 1_555 1_555
Fe1_2 O1_2 1_555 1_555
O5_2 Fe1_2 1_555 1_555
C25_2 C27_2 1_555 1_555
O10_2 C29_2 1_555 1_555
O11_2 C30_2 1_555 1_555
H9_2 C26_2 1_555 1_555
H10_2 C28_2 1_555 1_555
C26_2 C27_2 1_555 1_555
C27_2 C7_2 1_555 1_555
C28_2 C25_2 1_555 1_555
C29_2 C26_2 1_555 1_555
C30_2 C28_2 1_555 1_555
C31_2 C33_2 1_555 1_555
O12_2 C35_2 1_555 1_555
O13_2 C36_2 1_555 1_555
H11_2 C32_2 1_555 1_555
H12_2 C34_2 1_555 1_555
C32_2 C33_2 1_555 1_555
C33_2 C25_2 1_555 1_555
C34_2 C31_2 1_555 1_555
C35_2 C32_2 1_555 1_555
C36_2 C34_2 1_555 1_555
Fe2_2 O11_2 1_555 1_555
Fe3_2 O4_2 1_555 1_555
O14_2 Fe2_2 1_555 1_555
O15_2 Fe3_2 1_555 1_555
O16_2 Fe2_2 1_555 1_555
O17_2 Fe3_2 1_555 1_555
O18_2 Fe2_2 1_555 1_555
O19_2 Fe3_2 1_555 1_555
O20_2 Fe2_2 1_555 1_555
O21_2 Fe1_2 1_555 1_555
O22_2 Fe3_2 1_555 1_555
Fe4_2 O5_2 1_555 1_555
Fe6_2 O10_2 1_555 1_555
Fe7_2 O13_2 1_555 1_555
Fe8_2 O12_2 1_555 1_555
O23_2 Fe2_2 1_555 1_555
C5_2 C6_2 1_555 1_555
O2_2 Fe1_2 1_555 1_555
O3_2 Fe1_2 1_555 1_555
O4_2 Fe1_2 1_555 1_555
C11_2 C12_2 1_555 1_555
O5_2 Fe3_2 1_555 1_555
O11_2 Fe6_2 1_555 1_555
C29_2 C30_2 1_555 1_555
O13_2 Fe8_2 1_555 1_555
C35_2 C36_2 1_555 1_555
O21_2 Fe4_2 1_555 1_555
O22_2 Fe4_2 1_555 1_555
Fe6_2 O23_2 1_555 1_555
C1_2 C2_2 1_555 1_555
C2_2 C4_2 1_555 1_555
C3_2 C4_2 1_555 1_555
C4_2 C14_2 1_555 1_555
H1_2 C1_2 1_555 1_555
H2_2 C3_2 1_555 1_555
C13_2 C14_2 1_555 1_555
C14_2 C16_2 1_555 1_555
C15_2 C16_2 1_555 1_555
C16_2 C20_2 1_555 1_555
O6_2 C17_2 1_555 1_555
C17_2 C13_2 1_555 1_555
C18_2 C15_2 1_555 1_555
O7_2 C18_2 1_555 1_555
H5_2 C13_2 1_555 1_555
H6_2 C15_2 1_555 1_555
C19_2 C20_2 1_555 1_555
C20_2 C22_2 1_555 1_555
C21_2 C22_2 1_555 1_555
C22_2 C2_2 1_555 1_555
O8_2 C23_2 1_555 1_555
C23_2 C19_2 1_555 1_555
C24_2 C21_2 1_555 1_555
O9_2 C24_2 1_555 1_555
H7_2 C19_2 1_555 1_555
H8_2 C21_2 1_555 1_555
Fe5_2 O6_2 1_555 1_555
Fe9_2 O8_2 1_555 1_555
C17_2 C18_2 1_555 1_555
O7_2 Fe5_2 1_555 1_555
C23_2 C24_2 1_555 1_555
O9_2 Fe9_2 1_555 1_555
C1_3 C2_3 1_555 1_555
C2_3 C4_3 1_555 1_555
C3_3 C4_3 1_555 1_555
C4_3 C14_3 1_555 1_555
H1_3 C1_3 1_555 1_555
H2_3 C3_3 1_555 1_555
C13_3 C14_3 1_555 1_555
C14_3 C16_3 1_555 1_555
C15_3 C16_3 1_555 1_555
C16_3 C20_3 1_555 1_555
O6_3 C17_3 1_555 1_555
C17_3 C13_3 1_555 1_555
C18_3 C15_3 1_555 1_555
O7_3 C18_3 1_555 1_555
H5_3 C13_3 1_555 1_555
H6_3 C15_3 1_555 1_555
C19_3 C20_3 1_555 1_555
C20_3 C22_3 1_555 1_555
C21_3 C22_3 1_555 1_555
C22_3 C2_3 1_555 1_555
O8_3 C23_3 1_555 1_555
C23_3 C19_3 1_555 1_555
C24_3 C21_3 1_555 1_555
O9_3 C24_3 1_555 1_555
H7_3 C19_3 1_555 1_555
H8_3 C21_3 1_555 1_555
Fe5_3 O6_3 1_555 1_555
Fe9_3 O8_3 1_555 1_555
C17_3 C18_3 1_555 1_555
O7_3 Fe5_3 1_555 1_555
C23_3 C24_3 1_555 1_555
O9_3 Fe9_3 1_555 1_555
O14_2 C5_3 1_555 1_555
O16_2 C6_3 1_555 1_555
C7_3 C9_3 1_555 1_555
O18_2 C11_3 1_555 1_555
O20_2 C12_3 1_555 1_555
H3_3 C8_3 1_555 1_555
H4_3 C10_3 1_555 1_555
C8_3 C9_3 1_555 1_555
C9_3 C31_3 1_555 1_555
C10_3 C7_3 1_555 1_555
C11_3 C8_3 1_555 1_555
C12_3 C10_3 1_555 1_555
C25_3 C27_3 1_555 1_555
O10_3 C29_3 1_555 1_555
O11_3 C30_3 1_555 1_555
H9_3 C26_3 1_555 1_555
H10_3 C28_3 1_555 1_555
C26_3 C27_3 1_555 1_555
C27_3 C7_3 1_555 1_555
C28_3 C25_3 1_555 1_555
C29_3 C26_3 1_555 1_555
C30_3 C28_3 1_555 1_555
C31_3 C33_3 1_555 1_555
O12_3 C35_3 1_555 1_555
O13_3 C36_3 1_555 1_555
H11_3 C32_3 1_555 1_555
H12_3 C34_3 1_555 1_555
C32_3 C33_3 1_555 1_555
C33_3 C25_3 1_555 1_555
C34_3 C31_3 1_555 1_555
C35_3 C32_3 1_555 1_555
C36_3 C34_3 1_555 1_555
Fe2_3 O11_3 1_555 1_555
Fe3_3 O20_2 1_555 1_555
O14_3 Fe2_3 1_555 1_555
O15_3 Fe3_3 1_555 1_555
O16_3 Fe2_3 1_555 1_555
O17_3 Fe3_3 1_555 1_555
O18_3 Fe2_3 1_555 1_555
O19_3 Fe3_3 1_555 1_555
O20_3 Fe2_3 1_555 1_555
O22_3 Fe3_3 1_555 1_555
Fe6_3 O10_3 1_555 1_555
Fe8_2 O13_3 1_555 1_555
Fe8_3 O12_3 1_555 1_555
O23_3 Fe2_3 1_555 1_555
C5_3 C6_3 1_555 1_555
C11_3 C12_3 1_555 1_555
O23_2 Fe3_3 1_555 1_555
O11_3 Fe6_3 1_555 1_555
C29_3 C30_3 1_555 1_555
O13_3 Fe8_3 1_555 1_555
C35_3 C36_3 1_555 1_555
O22_3 Fe6_2 1_555 1_555
Fe6_3 O23_3 1_555 1_555
C1_4 C2_4 1_555 1_555
C2_4 C4_4 1_555 1_555
C3_4 C4_4 1_555 1_555
C4_4 C14_4 1_555 1_555
H1_4 C1_4 1_555 1_555
H2_4 C3_4 1_555 1_555
C13_4 C14_4 1_555 1_555
C14_4 C16_4 1_555 1_555
C15_4 C16_4 1_555 1_555
C16_4 C20_4 1_555 1_555
O6_4 C17_4 1_555 1_555
C17_4 C13_4 1_555 1_555
C18_4 C15_4 1_555 1_555
O7_4 C18_4 1_555 1_555
H5_4 C13_4 1_555 1_555
H6_4 C15_4 1_555 1_555
C19_4 C20_4 1_555 1_555
C20_4 C22_4 1_555 1_555
C21_4 C22_4 1_555 1_555
C22_4 C2_4 1_555 1_555
O15 C23_4 1_555 1_555
C23_4 C19_4 1_555 1_555
C24_4 C21_4 1_555 1_555
O17 C24_4 1_555 1_555
H7_4 C19_4 1_555 1_555
H8_4 C21_4 1_555 1_555
Fe5_4 O6_4 1_555 1_555
C17_4 C18_4 1_555 1_555
O7_4 Fe5_4 1_555 1_555
C23_4 C24_4 1_555 1_555
O14_3 C5_4 1_555 1_555
O16_3 C6_4 1_555 1_555
C7_4 C9_4 1_555 1_555
O18_3 C11_4 1_555 1_555
O20_3 C12_4 1_555 1_555
H3_4 C8_4 1_555 1_555
H4_4 C10_4 1_555 1_555
C8_4 C9_4 1_555 1_555
C9_4 C31_4 1_555 1_555
C10_4 C7_4 1_555 1_555
C11_4 C8_4 1_555 1_555
C12_4 C10_4 1_555 1_555
C25_4 C27_4 1_555 1_555
O10_4 C29_4 1_555 1_555
O21_2 C30_4 1_555 1_555
H9_4 C26_4 1_555 1_555
H10_4 C28_4 1_555 1_555
C26_4 C27_4 1_555 1_555
C27_4 C7_4 1_555 1_555
C28_4 C25_4 1_555 1_555
C29_4 C26_4 1_555 1_555
C30_4 C28_4 1_555 1_555
C31_4 C33_4 1_555 1_555
O12_4 C35_4 1_555 1_555
O13_4 C36_4 1_555 1_555
H11_4 C32_4 1_555 1_555
H12_4 C34_4 1_555 1_555
C32_4 C33_4 1_555 1_555
C33_4 C25_4 1_555 1_555
C34_4 C31_4 1_555 1_555
C35_4 C32_4 1_555 1_555
C36_4 C34_4 1_555 1_555
Fe9 O20_3 1_555 1_555
O19_4 Fe9 1_555 1_555
O22_4 Fe9 1_555 1_555
Fe4_2 O10_4 1_555 1_555
Fe8_3 O13_4 1_555 1_555
Fe7_2 O12_4 1_555 1_555
C5_4 C6_4 1_555 1_555
C11_4 C12_4 1_555 1_555
O23_3 Fe9 1_555 1_555
C29_4 C30_4 1_555 1_555
O13_4 Fe7_2 1_555 1_555
C35_4 C36_4 1_555 1_555
O22_4 Fe6_3 1_555 1_555
C1_5 C2_5 1_555 1_555
C2_5 C4_5 1_555 1_555
C3_5 C4_5 1_555 1_555
C4_5 C14_5 1_555 1_555
H1_5 C1_5 1_555 1_555
H2_5 C3_5 1_555 1_555
C13_5 C14_5 1_555 1_555
C14_5 C16_5 1_555 1_555
C15_5 C16_5 1_555 1_555
C16_5 C20_5 1_555 1_555
O6_5 C17_5 1_555 1_555
C17_5 C13_5 1_555 1_555
C18_5 C15_5 1_555 1_555
O7_5 C18_5 1_555 1_555
H5_5 C13_5 1_555 1_555
H6_5 C15_5 1_555 1_555
C19_5 C20_5 1_555 1_555
C20_5 C22_5 1_555 1_555
C21_5 C22_5 1_555 1_555
C22_5 C2_5 1_555 1_555
O15_2 C23_5 1_555 1_555
C23_5 C19_5 1_555 1_555
C24_5 C21_5 1_555 1_555
O17_2 C24_5 1_555 1_555
H7_5 C19_5 1_555 1_555
H8_5 C21_5 1_555 1_555
Fe6 O6_5 1_555 1_555
C17_5 C18_5 1_555 1_555
O7_5 Fe6 1_555 1_555
C23_5 C24_5 1_555 1_555
O1_3 C5_5 1_555 1_555
O2_3 C6_5 1_555 1_555
C7_5 C9_5 1_555 1_555
O3_3 C11_5 1_555 1_555
O4_3 C12_5 1_555 1_555
H3_5 C8_5 1_555 1_555
H4_5 C10_5 1_555 1_555
C8_5 C9_5 1_555 1_555
C9_5 C31_5 1_555 1_555
C10_5 C7_5 1_555 1_555
C11_5 C8_5 1_555 1_555
C12_5 C10_5 1_555 1_555
Fe1_3 O1_3 1_555 1_555
O5_3 Fe1_3 1_555 1_555
C25_5 C27_5 1_555 1_555
O10_5 C29_5 1_555 1_555
O11_4 C30_5 1_555 1_555
H9_5 C26_5 1_555 1_555
H10_5 C28_5 1_555 1_555
C26_5 C27_5 1_555 1_555
C27_5 C7_5 1_555 1_555
C28_5 C25_5 1_555 1_555
C29_5 C26_5 1_555 1_555
C30_5 C28_5 1_555 1_555
C31_5 C33_5 1_555 1_555
O12_5 C35_5 1_555 1_555
O13_5 C36_5 1_555 1_555
H11_5 C32_5 1_555 1_555
H12_5 C34_5 1_555 1_555
C32_5 C33_5 1_555 1_555
C33_5 C25_5 1_555 1_555
C34_5 C31_5 1_555 1_555
C35_5 C32_5 1_555 1_555
C36_5 C34_5 1_555 1_555
Fe2_4 O11_4 1_555 1_555
Fe9_2 O4_3 1_555 1_555
O14_4 Fe2_4 1_555 1_555
O16_4 Fe2_4 1_555 1_555
O18_4 Fe2_4 1_555 1_555
O19_5 Fe9_2 1_555 1_555
O20_4 Fe2_4 1_555 1_555
O21_3 Fe1_3 1_555 1_555
O22_5 Fe9_2 1_555 1_555
Fe4_3 O5_3 1_555 1_555
Fe6_4 O10_5 1_555 1_555
Fe7_3 O13_5 1_555 1_555
Fe8_4 O12_5 1_555 1_555
O23_4 Fe2_4 1_555 1_555
C5_5 C6_5 1_555 1_555
O2_3 Fe1_3 1_555 1_555
O3_3 Fe1_3 1_555 1_555
O4_3 Fe1_3 1_555 1_555
C11_5 C12_5 1_555 1_555
O5_3 Fe9_2 1_555 1_555
O11_4 Fe6_4 1_555 1_555
C29_5 C30_5 1_555 1_555
O13_5 Fe8_4 1_555 1_555
C35_5 C36_5 1_555 1_555
O21_3 Fe4_3 1_555 1_555
O22_5 Fe4_3 1_555 1_555
Fe6_4 O23_4 1_555 1_555
C1_6 C2_6 1_555 1_555
C2_6 C4_6 1_555 1_555
C3_6 C4_6 1_555 1_555
C4_6 C14_6 1_555 1_555
H1_6 C1_6 1_555 1_555
H2_6 C3_6 1_555 1_555
C13_6 C14_6 1_555 1_555
C14_6 C16_6 1_555 1_555
C15_6 C16_6 1_555 1_555
C16_6 C20_6 1_555 1_555
O6_6 C17_6 1_555 1_555
C17_6 C13_6 1_555 1_555
C18_6 C15_6 1_555 1_555
O7_6 C18_6 1_555 1_555
H5_6 C13_6 1_555 1_555
H6_6 C15_6 1_555 1_555
C19_6 C20_6 1_555 1_555
C20_6 C22_6 1_555 1_555
C21_6 C22_6 1_555 1_555
C22_6 C2_6 1_555 1_555
O8_4 C23_6 1_555 1_555
C23_6 C19_6 1_555 1_555
C24_6 C21_6 1_555 1_555
O9_4 C24_6 1_555 1_555
H7_6 C19_6 1_555 1_555
H8_6 C21_6 1_555 1_555
Fe5_5 O6_6 1_555 1_555
Fe9_4 O8_4 1_555 1_555
C17_6 C18_6 1_555 1_555
O7_6 Fe5_5 1_555 1_555
C23_6 C24_6 1_555 1_555
O9_4 Fe9_4 1_555 1_555
O14_4 C5_6 1_555 1_555
O16_4 C6_6 1_555 1_555
C7_6 C9_6 1_555 1_555
O18_4 C11_6 1_555 1_555
O20_4 C12_6 1_555 1_555
H3_6 C8_6 1_555 1_555
H4_6 C10_6 1_555 1_555
C8_6 C9_6 1_555 1_555
C9_6 C31_6 1_555 1_555
C10_6 C7_6 1_555 1_555
C11_6 C8_6 1_555 1_555
C12_6 C10_6 1_555 1_555
C25_6 C27_6 1_555 1_555
O10_6 C29_6 1_555 1_555
O11_5 C30_6 1_555 1_555
H9_6 C26_6 1_555 1_555
H10_6 C28_6 1_555 1_555
C26_6 C27_6 1_555 1_555
C27_6 C7_6 1_555 1_555
C28_6 C25_6 1_555 1_555
C29_6 C26_6 1_555 1_555
C30_6 C28_6 1_555 1_555
C31_6 C33_6 1_555 1_555
O12_6 C35_6 1_555 1_555
O13_6 C36_6 1_555 1_555
H11_6 C32_6 1_555 1_555
H12_6 C34_6 1_555 1_555
C32_6 C33_6 1_555 1_555
C33_6 C25_6 1_555 1_555
C34_6 C31_6 1_555 1_555
C35_6 C32_6 1_555 1_555
C36_6 C34_6 1_555 1_555
Fe2_5 O11_5 1_555 1_555
Fe3_4 O20_4 1_555 1_555
O14_5 Fe2_5 1_555 1_555
O15_4 Fe3_4 1_555 1_555
O16_5 Fe2_5 1_555 1_555
O17_4 Fe3_4 1_555 1_555
O18_5 Fe2_5 1_555 1_555
O19_6 Fe3_4 1_555 1_555
O20_5 Fe2_5 1_555 1_555
O22_6 Fe3_4 1_555 1_555
Fe5_4 O10_6 1_555 1_555
Fe8_4 O13_6 1_555 1_555
Fe8_5 O12_6 1_555 1_555
O23_5 Fe2_5 1_555 1_555
C5_6 C6_6 1_555 1_555
C11_6 C12_6 1_555 1_555
O23_4 Fe3_4 1_555 1_555
O11_5 Fe5_4 1_555 1_555
C29_6 C30_6 1_555 1_555
O13_6 Fe8_5 1_555 1_555
C35_6 C36_6 1_555 1_555
O22_6 Fe6_4 1_555 1_555
Fe5_4 O23_5 1_555 1_555
O14_5 C5_7 1_555 1_555
O16_5 C6_7 1_555 1_555
C7_7 C9_7 1_555 1_555
O18_5 C11_7 1_555 1_555
O20_5 C12_7 1_555 1_555
H3_7 C8_7 1_555 1_555
H4_7 C10_7 1_555 1_555
C8_7 C9_7 1_555 1_555
C9_7 C31_7 1_555 1_555
C10_7 C7_7 1_555 1_555
C11_7 C8_7 1_555 1_555
C12_7 C10_7 1_555 1_555
C25_7 C27_7 1_555 1_555
O10_7 C29_7 1_555 1_555
O21_3 C30_7 1_555 1_555
H9_7 C26_7 1_555 1_555
H10_7 C28_7 1_555 1_555
C26_7 C27_7 1_555 1_555
C27_7 C7_7 1_555 1_555
C28_7 C25_7 1_555 1_555
C29_7 C26_7 1_555 1_555
C30_7 C28_7 1_555 1_555
C31_7 C33_7 1_555 1_555
O12_7 C35_7 1_555 1_555
O13_7 C36_7 1_555 1_555
H11_7 C32_7 1_555 1_555
H12_7 C34_7 1_555 1_555
C32_7 C33_7 1_555 1_555
C33_7 C25_7 1_555 1_555
C34_7 C31_7 1_555 1_555
C35_7 C32_7 1_555 1_555
C36_7 C34_7 1_555 1_555
Fe3_5 O20_5 1_555 1_555
O15_5 Fe3_5 1_555 1_555
O17_5 Fe3_5 1_555 1_555
O19_7 Fe3_5 1_555 1_555
O22_7 Fe3_5 1_555 1_555
Fe4_3 O10_7 1_555 1_555
Fe8_5 O13_7 1_555 1_555
Fe7_3 O12_7 1_555 1_555
C5_7 C6_7 1_555 1_555
C11_7 C12_7 1_555 1_555
O23_5 Fe3_5 1_555 1_555
C29_7 C30_7 1_555 1_555
O13_7 Fe7_3 1_555 1_555
C35_7 C36_7 1_555 1_555
O22_7 Fe5_4 1_555 1_555
C1_7 C2_7 1_555 1_555
C2_7 C4_7 1_555 1_555
C3_7 C4_7 1_555 1_555
C4_7 C14_7 1_555 1_555
H1_7 C1_7 1_555 1_555
H2_7 C3_7 1_555 1_555
C13_7 C14_7 1_555 1_555
C14_7 C16_7 1_555 1_555
C15_7 C16_7 1_555 1_555
C16_7 C20_7 1_555 1_555
O6_7 C17_7 1_555 1_555
C17_7 C13_7 1_555 1_555
C18_7 C15_7 1_555 1_555
O7_7 C18_7 1_555 1_555
H5_7 C13_7 1_555 1_555
H6_7 C15_7 1_555 1_555
C19_7 C20_7 1_555 1_555
C20_7 C22_7 1_555 1_555
C21_7 C22_7 1_555 1_555
C22_7 C2_7 1_555 1_555
O8_5 C23_7 1_555 1_555
C23_7 C19_7 1_555 1_555
C24_7 C21_7 1_555 1_555
O9_5 C24_7 1_555 1_555
H7_7 C19_7 1_555 1_555
H8_7 C21_7 1_555 1_555
Fe6_3 O6_7 1_555 1_555
Fe9_5 O8_5 1_555 1_555
C17_7 C18_7 1_555 1_555
O7_7 Fe6_3 1_555 1_555
C23_7 C24_7 1_555 1_555
O9_5 Fe9_5 1_555 1_555
C1_8 C2_8 1_555 1_555
C2_8 C4_8 1_555 1_555
C3_8 C4_8 1_555 1_555
C4_8 C14_8 1_555 1_555
H1_8 C1_8 1_555 1_555
H2_8 C3_8 1_555 1_555
C13_8 C14_8 1_555 1_555
C14_8 C16_8 1_555 1_555
C15_8 C16_8 1_555 1_555
C16_8 C20_8 1_555 1_555
O6_8 C17_8 1_555 1_555
C17_8 C13_8 1_555 1_555
C18_8 C15_8 1_555 1_555
O7_8 C18_8 1_555 1_555
H5_8 C13_8 1_555 1_555
H6_8 C15_8 1_555 1_555
C19_8 C20_8 1_555 1_555
C20_8 C22_8 1_555 1_555
C21_8 C22_8 1_555 1_555
C22_8 C2_8 1_555 1_555
O8_6 C23_8 1_555 1_555
C23_8 C19_8 1_555 1_555
C24_8 C21_8 1_555 1_555
O9_6 C24_8 1_555 1_555
H7_8 C19_8 1_555 1_555
H8_8 C21_8 1_555 1_555
Fe4_2 O6_8 1_555 1_555
Fe9_6 O8_6 1_555 1_555
C17_8 C18_8 1_555 1_555
O7_8 Fe4_2 1_555 1_555
C23_8 C24_8 1_555 1_555
O9_6 Fe9_6 1_555 1_555
O1_4 C5_8 1_555 1_555
O2_4 C6_8 1_555 1_555
C7_8 C9_8 1_555 1_555
O3_4 C11_8 1_555 1_555
O4_4 C12_8 1_555 1_555
H3_8 C8_8 1_555 1_555
H4_8 C10_8 1_555 1_555
C8_8 C9_8 1_555 1_555
C9_8 C31_8 1_555 1_555
C10_8 C7_8 1_555 1_555
C11_8 C8_8 1_555 1_555
C12_8 C10_8 1_555 1_555
Fe1_4 O1_4 1_555 1_555
O5_4 Fe1_4 1_555 1_555
C25_8 C27_8 1_555 1_555
O10_8 C29_8 1_555 1_555
O11_6 C30_8 1_555 1_555
H9_8 C26_8 1_555 1_555
H10_8 C28_8 1_555 1_555
C26_8 C27_8 1_555 1_555
C27_8 C7_8 1_555 1_555
C28_8 C25_8 1_555 1_555
C29_8 C26_8 1_555 1_555
C30_8 C28_8 1_555 1_555
C31_8 C33_8 1_555 1_555
O12_8 C35_8 1_555 1_555
O13_8 C36_8 1_555 1_555
H11_8 C32_8 1_555 1_555
H12_8 C34_8 1_555 1_555
C32_8 C33_8 1_555 1_555
C33_8 C25_8 1_555 1_555
C34_8 C31_8 1_555 1_555
C35_8 C32_8 1_555 1_555
C36_8 C34_8 1_555 1_555
Fe2_6 O11_6 1_555 1_555
Fe3_6 O4_4 1_555 1_555
O14_6 Fe2_6 1_555 1_555
O15_6 Fe3_6 1_555 1_555
O16_6 Fe2_6 1_555 1_555
O17_6 Fe3_6 1_555 1_555
O18_6 Fe2_6 1_555 1_555
O19_8 Fe3_6 1_555 1_555
O20_6 Fe2_6 1_555 1_555
O21_4 Fe1_4 1_555 1_555
O22_8 Fe3_6 1_555 1_555
Fe5_2 O5_4 1_555 1_555
Fe5_5 O10_8 1_555 1_555
Fe7_4 O13_8 1_555 1_555
Fe8_6 O12_8 1_555 1_555
O23_6 Fe2_6 1_555 1_555
C5_8 C6_8 1_555 1_555
O2_4 Fe1_4 1_555 1_555
O3_4 Fe1_4 1_555 1_555
O4_4 Fe1_4 1_555 1_555
C11_8 C12_8 1_555 1_555
O5_4 Fe3_6 1_555 1_555
O11_6 Fe5_5 1_555 1_555
C29_8 C30_8 1_555 1_555
O13_8 Fe8_6 1_555 1_555
C35_8 C36_8 1_555 1_555
O21_4 Fe5_2 1_555 1_555
O22_8 Fe5_2 1_555 1_555
Fe5_5 O23_6 1_555 1_555
O14_6 C5_9 1_555 1_555
O16_6 C6_9 1_555 1_555
C7_9 C9_9 1_555 1_555
O18_6 C11_9 1_555 1_555
O20_6 C12_9 1_555 1_555
H3_9 C8_9 1_555 1_555
H4_9 C10_9 1_555 1_555
C8_9 C9_9 1_555 1_555
C9_9 C31_9 1_555 1_555
C10_9 C7_9 1_555 1_555
C11_9 C8_9 1_555 1_555
C12_9 C10_9 1_555 1_555
C25_9 C27_9 1_555 1_555
O10_9 C29_9 1_555 1_555
O11_7 C30_9 1_555 1_555
H9_9 C26_9 1_555 1_555
H10_9 C28_9 1_555 1_555
C26_9 C27_9 1_555 1_555
C27_9 C7_9 1_555 1_555
C28_9 C25_9 1_555 1_555
C29_9 C26_9 1_555 1_555
C30_9 C28_9 1_555 1_555
C31_9 C33_9 1_555 1_555
O12_9 C35_9 1_555 1_555
O13_9 C36_9 1_555 1_555
H11_9 C32_9 1_555 1_555
H12_9 C34_9 1_555 1_555
C32_9 C33_9 1_555 1_555
C33_9 C25_9 1_555 1_555
C34_9 C31_9 1_555 1_555
C35_9 C32_9 1_555 1_555
C36_9 C34_9 1_555 1_555
Fe2_7 O11_7 1_555 1_555
Fe9_3 O20_6 1_555 1_555
O14_7 Fe2_7 1_555 1_555
O16_7 Fe2_7 1_555 1_555
O18_7 Fe2_7 1_555 1_555
O19_9 Fe9_3 1_555 1_555
O20_7 Fe2_7 1_555 1_555
O22_9 Fe9_3 1_555 1_555
Fe5 O10_9 1_555 1_555
Fe8_6 O13_9 1_555 1_555
Fe8_7 O12_9 1_555 1_555
O23_7 Fe2_7 1_555 1_555
C5_9 C6_9 1_555 1_555
C11_9 C12_9 1_555 1_555
O23_6 Fe9_3 1_555 1_555
O11_7 Fe5 1_555 1_555
C29_9 C30_9 1_555 1_555
O13_9 Fe8_7 1_555 1_555
C35_9 C36_9 1_555 1_555
O22_9 Fe5_5 1_555 1_555
Fe5 O23_7 1_555 1_555
C1_9 C2_9 1_555 1_555
C2_9 C4_9 1_555 1_555
C3_9 C4_9 1_555 1_555
C4_9 C14_9 1_555 1_555
H1_9 C1_9 1_555 1_555
H2_9 C3_9 1_555 1_555
C13_9 C14_9 1_555 1_555
C14_9 C16_9 1_555 1_555
C15_9 C16_9 1_555 1_555
C16_9 C20_9 1_555 1_555
O6_9 C17_9 1_555 1_555
C17_9 C13_9 1_555 1_555
C18_9 C15_9 1_555 1_555
O7_9 C18_9 1_555 1_555
H5_9 C13_9 1_555 1_555
H6_9 C15_9 1_555 1_555
C19_9 C20_9 1_555 1_555
C20_9 C22_9 1_555 1_555
C21_9 C22_9 1_555 1_555
C22_9 C2_9 1_555 1_555
O15_3 C23_9 1_555 1_555
C23_9 C19_9 1_555 1_555
C24_9 C21_9 1_555 1_555
O17_3 C24_9 1_555 1_555
H7_9 C19_9 1_555 1_555
H8_9 C21_9 1_555 1_555
Fe6_4 O6_9 1_555 1_555
C17_9 C18_9 1_555 1_555
O7_9 Fe6_4 1_555 1_555
C23_9 C24_9 1_555 1_555
C1_10 C2_10 1_555 1_555
C2_10 C4_10 1_555 1_555
C3_10 C4_10 1_555 1_555
C4_10 C14_10 1_555 1_555
H1_10 C1_10 1_555 1_555
H2_10 C3_10 1_555 1_555
C13_10 C14_10 1_555 1_555
C14_10 C16_10 1_555 1_555
C15_10 C16_10 1_555 1_555
C16_10 C20_10 1_555 1_555
O6_10 C17_10 1_555 1_555
C17_10 C13_10 1_555 1_555
C18_10 C15_10 1_555 1_555
O7_10 C18_10 1_555 1_555
H5_10 C13_10 1_555 1_555
H6_10 C15_10 1_555 1_555
C19_10 C20_10 1_555 1_555
C20_10 C22_10 1_555 1_555
C21_10 C22_10 1_555 1_555
C22_10 C2_10 1_555 1_555
O15_5 C23_10 1_555 1_555
C23_10 C19_10 1_555 1_555
C24_10 C21_10 1_555 1_555
O17_5 C24_10 1_555 1_555
H7_10 C19_10 1_555 1_555
H8_10 C21_10 1_555 1_555
Fe4 O6_10 1_555 1_555
C17_10 C18_10 1_555 1_555
O7_10 Fe4 1_555 1_555
C23_10 C24_10 1_555 1_555
O14_7 C5_10 1_555 1_555
O16_7 C6_10 1_555 1_555
C7_10 C9_10 1_555 1_555
O18_7 C11_10 1_555 1_555
O20_7 C12_10 1_555 1_555
H3_10 C8_10 1_555 1_555
H4_10 C10_10 1_555 1_555
C8_10 C9_10 1_555 1_555
C9_10 C31_10 1_555 1_555
C10_10 C7_10 1_555 1_555
C11_10 C8_10 1_555 1_555
C12_10 C10_10 1_555 1_555
C25_10 C27_10 1_555 1_555
O10_10 C29_10 1_555 1_555
O21_4 C30_10 1_555 1_555
H9_10 C26_10 1_555 1_555
H10_10 C28_10 1_555 1_555
C26_10 C27_10 1_555 1_555
C27_10 C7_10 1_555 1_555
C28_10 C25_10 1_555 1_555
C29_10 C26_10 1_555 1_555
C30_10 C28_10 1_555 1_555
C31_10 C33_10 1_555 1_555
O12_10 C35_10 1_555 1_555
O13_10 C36_10 1_555 1_555
H11_10 C32_10 1_555 1_555
H12_10 C34_10 1_555 1_555
C32_10 C33_10 1_555 1_555
C33_10 C25_10 1_555 1_555
C34_10 C31_10 1_555 1_555
C35_10 C32_10 1_555 1_555
C36_10 C34_10 1_555 1_555
Fe9_5 O20_7 1_555 1_555
O19_10 Fe9_5 1_555 1_555
O22_10 Fe9_5 1_555 1_555
Fe5_2 O10_10 1_555 1_555
Fe8_7 O13_10 1_555 1_555
Fe7_4 O12_10 1_555 1_555
C5_10 C6_10 1_555 1_555
C11_10 C12_10 1_555 1_555
O23_7 Fe9_5 1_555 1_555
C29_10 C30_10 1_555 1_555
O13_10 Fe7_4 1_555 1_555
C35_10 C36_10 1_555 1_555
O22_10 Fe5 1_555 1_555
O14 C5_11 1_555 1_555
O16 C6_11 1_555 1_555
C7_11 C9_11 1_555 1_555
O18 C11_11 1_555 1_555
O20 C12_11 1_555 1_555
H3_11 C8_11 1_555 1_555
H4_11 C10_11 1_555 1_555
C8_11 C9_11 1_555 1_555
C9_11 C31_11 1_555 1_555
C10_11 C7_11 1_555 1_555
C11_11 C8_11 1_555 1_555
C12_11 C10_11 1_555 1_555
C25_11 C27_11 1_555 1_555
O10_11 C29_11 1_555 1_555
O11_8 C30_11 1_555 1_555
H9_11 C26_11 1_555 1_555
H10_11 C28_11 1_555 1_555
C26_11 C27_11 1_555 1_555
C27_11 C7_11 1_555 1_555
C28_11 C25_11 1_555 1_555
C29_11 C26_11 1_555 1_555
C30_11 C28_11 1_555 1_555
C31_11 C33_11 1_555 1_555
O12_11 C35_11 1_555 1_555
O13_11 C36_11 1_555 1_555
H11_11 C32_11 1_555 1_555
H12_11 C34_11 1_555 1_555
C32_11 C33_11 1_555 1_555
C33_11 C25_11 1_555 1_555
C34_11 C31_11 1_555 1_555
C35_11 C32_11 1_555 1_555
C36_11 C34_11 1_555 1_555
Fe2_8 O11_8 1_555 1_555
Fe9_6 O20 1_555 1_555
O14_8 Fe2_8 1_555 1_555
O16_8 Fe2_8 1_555 1_555
O18_8 Fe2_8 1_555 1_555
O19_11 Fe9_6 1_555 1_555
O20_8 Fe2_8 1_555 1_555
O22_11 Fe9_6 1_555 1_555
Fe5_3 O10_11 1_555 1_555
Fe8 O13_11 1_555 1_555
Fe8_8 O12_11 1_555 1_555
O23_8 Fe2_8 1_555 1_555
C5_11 C6_11 1_555 1_555
C11_11 C12_11 1_555 1_555
O23 Fe9_6 1_555 1_555
O11_8 Fe5_3 1_555 1_555
C29_11 C30_11 1_555 1_555
O13_11 Fe8_8 1_555 1_555
C35_11 C36_11 1_555 1_555
O22_11 Fe6 1_555 1_555
Fe5_3 O23_8 1_555 1_555
C1_11 C2_11 1_555 1_555
C2_11 C4_11 1_555 1_555
C3_11 C4_11 1_555 1_555
C4_11 C14_11 1_555 1_555
H1_11 C1_11 1_555 1_555
H2_11 C3_11 1_555 1_555
C13_11 C14_11 1_555 1_555
C14_11 C16_11 1_555 1_555
C15_11 C16_11 1_555 1_555
C16_11 C20_11 1_555 1_555
O6_11 C17_11 1_555 1_555
C17_11 C13_11 1_555 1_555
C18_11 C15_11 1_555 1_555
O7_11 C18_11 1_555 1_555
H5_11 C13_11 1_555 1_555
H6_11 C15_11 1_555 1_555
C19_11 C20_11 1_555 1_555
C20_11 C22_11 1_555 1_555
C21_11 C22_11 1_555 1_555
C22_11 C2_11 1_555 1_555
O15_6 C23_11 1_555 1_555
C23_11 C19_11 1_555 1_555
C24_11 C21_11 1_555 1_555
O17_6 C24_11 1_555 1_555
H7_11 C19_11 1_555 1_555
H8_11 C21_11 1_555 1_555
Fe4_3 O6_11 1_555 1_555
C17_11 C18_11 1_555 1_555
O7_11 Fe4_3 1_555 1_555
C23_11 C24_11 1_555 1_555
O14_8 C5_12 1_555 1_555
O16_8 C6_12 1_555 1_555
C7_12 C9_12 1_555 1_555
O18_8 C11_12 1_555 1_555
O20_8 C12_12 1_555 1_555
H3_12 C8_12 1_555 1_555
H4_12 C10_12 1_555 1_555
C8_12 C9_12 1_555 1_555
C9_12 C31_12 1_555 1_555
C10_12 C7_12 1_555 1_555
C11_12 C8_12 1_555 1_555
C12_12 C10_12 1_555 1_555
C25_12 C27_12 1_555 1_555
O10_12 C29_12 1_555 1_555
O21 C30_12 1_555 1_555
H9_12 C26_12 1_555 1_555
H10_12 C28_12 1_555 1_555
C26_12 C27_12 1_555 1_555
C27_12 C7_12 1_555 1_555
C28_12 C25_12 1_555 1_555
C29_12 C26_12 1_555 1_555
C30_12 C28_12 1_555 1_555
C31_12 C33_12 1_555 1_555
O12_12 C35_12 1_555 1_555
O13_12 C36_12 1_555 1_555
H11_12 C32_12 1_555 1_555
H12_12 C34_12 1_555 1_555
C32_12 C33_12 1_555 1_555
C33_12 C25_12 1_555 1_555
C34_12 C31_12 1_555 1_555
C35_12 C32_12 1_555 1_555
C36_12 C34_12 1_555 1_555
Fe9_4 O20_8 1_555 1_555
O19_12 Fe9_4 1_555 1_555
O22_12 Fe9_4 1_555 1_555
Fe4 O10_12 1_555 1_555
Fe8_8 O13_12 1_555 1_555
Fe7 O12_12 1_555 1_555
C5_12 C6_12 1_555 1_555
C11_12 C12_12 1_555 1_555
O23_8 Fe9_4 1_555 1_555
C29_12 C30_12 1_555 1_555
O13_12 Fe7 1_555 1_555
C35_12 C36_12 1_555 1_555
O22_12 Fe5_3 1_555 1_555
C1_12 C2_12 1_555 1_555
C2_12 C4_12 1_555 1_555
C3_12 C4_12 1_555 1_555
C4_12 C14_12 1_555 1_555
H1_12 C1_12 1_555 1_555
H2_12 C3_12 1_555 1_555
C13_12 C14_12 1_555 1_555
C14_12 C16_12 1_555 1_555
C15_12 C16_12 1_555 1_555
C16_12 C20_12 1_555 1_555
O6_12 C17_12 1_555 1_555
C17_12 C13_12 1_555 1_555
C18_12 C15_12 1_555 1_555
O7_12 C18_12 1_555 1_555
H5_12 C13_12 1_555 1_555
H6_12 C15_12 1_555 1_555
C19_12 C20_12 1_555 1_555
C20_12 C22_12 1_555 1_555
C21_12 C22_12 1_555 1_555
C22_12 C2_12 1_555 1_555
O15_4 C23_12 1_555 1_555
C23_12 C19_12 1_555 1_555
C24_12 C21_12 1_555 1_555
O17_4 C24_12 1_555 1_555
H7_12 C19_12 1_555 1_555
H8_12 C21_12 1_555 1_555
Fe6_2 O6_12 1_555 1_555
C17_12 C18_12 1_555 1_555
O7_12 Fe6_2 1_555 1_555
C23_12 C24_12 1_555 1_555
O14_9 Fe8_4 1_555 1_555
O16_9 Fe8_4 1_555 1_555
O23_9 Fe8_4 1_555 1_555
Fe8_5 O23_9 1_555 1_555
O8_7 C23_13 1_555 1_555
O9_7 C24_13 1_555 1_555
Fe8 O8_7 1_555 1_555
C23_13 C24_13 1_555 1_555
O9_7 Fe8 1_555 1_555
O6_13 C17_13 1_555 1_555
O7_13 C18_13 1_555 1_555
Fe8_7 O6_13 1_555 1_555
C17_13 C18_13 1_555 1_555
O7_13 Fe8_7 1_555 1_555
O14_9 C5_13 1_555 1_555
O16_9 C6_13 1_555 1_555
O15_7 Fe7_3 1_555 1_555
O17_7 Fe7_3 1_555 1_555
C5_13 C6_13 1_555 1_555
O23_9 Fe7_3 1_555 1_555
C7_13 C9_13 1_555 1_555
O19_5 C11_13 1_555 1_555
O22_5 C12_13 1_555 1_555
H3_13 C8_13 1_555 1_555
H4_13 C10_13 1_555 1_555
C8_13 C9_13 1_555 1_555
C9_13 C31_13 1_555 1_555
C10_13 C7_13 1_555 1_555
C11_13 C8_13 1_555 1_555
C12_13 C10_13 1_555 1_555
C25_13 C27_13 1_555 1_555
O19_7 C29_13 1_555 1_555
O22_7 C30_13 1_555 1_555
H9_13 C26_13 1_555 1_555
H10_13 C28_13 1_555 1_555
C26_13 C27_13 1_555 1_555
C27_13 C7_13 1_555 1_555
C28_13 C25_13 1_555 1_555
C29_13 C26_13 1_555 1_555
C30_13 C28_13 1_555 1_555
C31_13 C33_13 1_555 1_555
O19_6 C35_13 1_555 1_555
O22_6 C36_13 1_555 1_555
H11_13 C32_13 1_555 1_555
H12_13 C34_13 1_555 1_555
C32_13 C33_13 1_555 1_555
C33_13 C25_13 1_555 1_555
C34_13 C31_13 1_555 1_555
C35_13 C32_13 1_555 1_555
C36_13 C34_13 1_555 1_555
C11_13 C12_13 1_555 1_555
C29_13 C30_13 1_555 1_555
C35_13 C36_13 1_555 1_555
O14_10 Fe8_2 1_555 1_555
O16_10 Fe8_2 1_555 1_555
O23_10 Fe8_2 1_555 1_555
Fe8_3 O23_10 1_555 1_555
O6_14 C17_14 1_555 1_555
O7_14 C18_14 1_555 1_555
Fe7 O6_14 1_555 1_555
C17_14 C18_14 1_555 1_555
O7_14 Fe7 1_555 1_555
O8_8 C23_14 1_555 1_555
O9_8 C24_14 1_555 1_555
Fe7_4 O8_8 1_555 1_555
C23_14 C24_14 1_555 1_555
O9_8 Fe7_4 1_555 1_555
O14_10 C5_14 1_555 1_555
O16_10 C6_14 1_555 1_555
O15_8 Fe7_2 1_555 1_555
O17_8 Fe7_2 1_555 1_555
C5_14 C6_14 1_555 1_555
O23_10 Fe7_2 1_555 1_555
C7_14 C9_14 1_555 1_555
O19_2 C11_14 1_555 1_555
O22_2 C12_14 1_555 1_555
H3_14 C8_14 1_555 1_555
H4_14 C10_14 1_555 1_555
C8_14 C9_14 1_555 1_555
C9_14 C31_14 1_555 1_555
C10_14 C7_14 1_555 1_555
C11_14 C8_14 1_555 1_555
C12_14 C10_14 1_555 1_555
C25_14 C27_14 1_555 1_555
O19_4 C29_14 1_555 1_555
O22_4 C30_14 1_555 1_555
H9_14 C26_14 1_555 1_555
H10_14 C28_14 1_555 1_555
C26_14 C27_14 1_555 1_555
C27_14 C7_14 1_555 1_555
C28_14 C25_14 1_555 1_555
C29_14 C26_14 1_555 1_555
C30_14 C28_14 1_555 1_555
C31_14 C33_14 1_555 1_555
O19_3 C35_14 1_555 1_555
O22_3 C36_14 1_555 1_555
H11_14 C32_14 1_555 1_555
H12_14 C34_14 1_555 1_555
C32_14 C33_14 1_555 1_555
C33_14 C25_14 1_555 1_555
C34_14 C31_14 1_555 1_555
C35_14 C32_14 1_555 1_555
C36_14 C34_14 1_555 1_555
C11_14 C12_14 1_555 1_555
C29_14 C30_14 1_555 1_555
C35_14 C36_14 1_555 1_555
O14_11 Fe8_8 1_555 1_555
O16_11 Fe8_8 1_555 1_555
O23_11 Fe8_8 1_555 1_555
Fe7 O23_11 1_555 1_555
O14_11 C5_15 1_555 1_555
O16_11 C6_15 1_555 1_555
C5_15 C6_15 1_555 1_555
O23_11 Fe8 1_555 1_555
O15_7 C23_15 1_555 1_555
O17_7 C24_15 1_555 1_555
C23_15 C24_15 1_555 1_555
O6_15 C17_15 1_555 1_555
O7_15 C18_15 1_555 1_555
Fe8_3 O6_15 1_555 1_555
C17_15 C18_15 1_555 1_555
O7_15 Fe8_3 1_555 1_555
C7_15 C9_15 1_555 1_555
O19_11 C11_15 1_555 1_555
O22_11 C12_15 1_555 1_555
H3_15 C8_15 1_555 1_555
H4_15 C10_15 1_555 1_555
C8_15 C9_15 1_555 1_555
C9_15 C31_15 1_555 1_555
C10_15 C7_15 1_555 1_555
C11_15 C8_15 1_555 1_555
C12_15 C10_15 1_555 1_555
C25_15 C27_15 1_555 1_555
O19 C29_15 1_555 1_555
O22 C30_15 1_555 1_555
H9_15 C26_15 1_555 1_555
H10_15 C28_15 1_555 1_555
C26_15 C27_15 1_555 1_555
C27_15 C7_15 1_555 1_555
C28_15 C25_15 1_555 1_555
C29_15 C26_15 1_555 1_555
C30_15 C28_15 1_555 1_555
C31_15 C33_15 1_555 1_555
O19_12 C35_15 1_555 1_555
O22_12 C36_15 1_555 1_555
H11_15 C32_15 1_555 1_555
H12_15 C34_15 1_555 1_555
C32_15 C33_15 1_555 1_555
C33_15 C25_15 1_555 1_555
C34_15 C31_15 1_555 1_555
C35_15 C32_15 1_555 1_555
C36_15 C34_15 1_555 1_555
C11_15 C12_15 1_555 1_555
C29_15 C30_15 1_555 1_555
C35_15 C36_15 1_555 1_555
O14_12 Fe8_6 1_555 1_555
O16_12 Fe8_6 1_555 1_555
O23_12 Fe8_6 1_555 1_555
Fe8_7 O23_12 1_555 1_555
O14_12 C5_16 1_555 1_555
O16_12 C6_16 1_555 1_555
C5_16 C6_16 1_555 1_555
O23_12 Fe7_4 1_555 1_555
O6_16 C17_16 1_555 1_555
O7_16 C18_16 1_555 1_555
Fe8_5 O6_16 1_555 1_555
C17_16 C18_16 1_555 1_555
O7_16 Fe8_5 1_555 1_555
O15_8 C23_16 1_555 1_555
O17_8 C24_16 1_555 1_555
C23_16 C24_16 1_555 1_555
C7_16 C9_16 1_555 1_555
O19_8 C11_16 1_555 1_555
O22_8 C12_16 1_555 1_555
H3_16 C8_16 1_555 1_555
H4_16 C10_16 1_555 1_555
C8_16 C9_16 1_555 1_555
C9_16 C31_16 1_555 1_555
C10_16 C7_16 1_555 1_555
C11_16 C8_16 1_555 1_555
C12_16 C10_16 1_555 1_555
C25_16 C27_16 1_555 1_555
O19_10 C29_16 1_555 1_555
O22_10 C30_16 1_555 1_555
H9_16 C26_16 1_555 1_555
H10_16 C28_16 1_555 1_555
C26_16 C27_16 1_555 1_555
C27_16 C7_16 1_555 1_555
C28_16 C25_16 1_555 1_555
C29_16 C26_16 1_555 1_555
C30_16 C28_16 1_555 1_555
C31_16 C33_16 1_555 1_555
O19_9 C35_16 1_555 1_555
O22_9 C36_16 1_555 1_555
H11_16 C32_16 1_555 1_555
H12_16 C34_16 1_555 1_555
C32_16 C33_16 1_555 1_555
C33_16 C25_16 1_555 1_555
C34_16 C31_16 1_555 1_555
C35_16 C32_16 1_555 1_555
C36_16 C34_16 1_555 1_555
C11_16 C12_16 1_555 1_555
C29_16 C30_16 1_555 1_555
C35_16 C36_16 1_555 1_555
C1_13 C2_13 1_555 1_555
C2_13 C4_13 1_555 1_555
C3_13 C4_13 1_555 1_555
C4_13 C14_13 1_555 1_555
H1_13 C1_13 1_555 1_555
H2_13 C3_13 1_555 1_555
C13_13 C14_13 1_555 1_555
C14_13 C16_13 1_555 1_555
C15_13 C16_13 1_555 1_555
C16_13 C20_13 1_555 1_555
H5_13 C13_13 1_555 1_555
H6_13 C15_13 1_555 1_555
C19_13 C20_13 1_555 1_555
C20_13 C22_13 1_555 1_555
C21_13 C22_13 1_555 1_555
C22_13 C2_13 1_555 1_555
H7_13 C19_13 1_555 1_555
H8_13 C21_13 1_555 1_555
C1_14 C2_14 1_555 1_555
C2_14 C4_14 1_555 1_555
C3_14 C4_14 1_555 1_555
C4_14 C14_14 1_555 1_555
H1_14 C1_14 1_555 1_555
H2_14 C3_14 1_555 1_555
C13_14 C14_14 1_555 1_555
C14_14 C16_14 1_555 1_555
C15_14 C16_14 1_555 1_555
C16_14 C20_14 1_555 1_555
H5_14 C13_14 1_555 1_555
H6_14 C15_14 1_555 1_555
C19_14 C20_14 1_555 1_555
C20_14 C22_14 1_555 1_555
C21_14 C22_14 1_555 1_555
C22_14 C2_14 1_555 1_555
H7_14 C19_14 1_555 1_555
H8_14 C21_14 1_555 1_555
C1_15 C2_15 1_555 1_555
C2_15 C4_15 1_555 1_555
C3_15 C4_15 1_555 1_555
C4_15 C14_15 1_555 1_555
H1_15 C1_15 1_555 1_555
H2_15 C3_15 1_555 1_555
C13_15 C14_15 1_555 1_555
C14_15 C16_15 1_555 1_555
C15_15 C16_15 1_555 1_555
C16_15 C20_15 1_555 1_555
H5_15 C13_15 1_555 1_555
H6_15 C15_15 1_555 1_555
C19_15 C20_15 1_555 1_555
C20_15 C22_15 1_555 1_555
C21_15 C22_15 1_555 1_555
C22_15 C2_15 1_555 1_555
H7_15 C19_15 1_555 1_555
H8_15 C21_15 1_555 1_555
C1_16 C2_16 1_555 1_555
C2_16 C4_16 1_555 1_555
C3_16 C4_16 1_555 1_555
C4_16 C14_16 1_555 1_555
H1_16 C1_16 1_555 1_555
H2_16 C3_16 1_555 1_555
C13_16 C14_16 1_555 1_555
C14_16 C16_16 1_555 1_555
C15_16 C16_16 1_555 1_555
C16_16 C20_16 1_555 1_555
H5_16 C13_16 1_555 1_555
H6_16 C15_16 1_555 1_555
C19_16 C20_16 1_555 1_555
C20_16 C22_16 1_555 1_555
C21_16 C22_16 1_555 1_555
C22_16 C2_16 1_555 1_555
H7_16 C19_16 1_555 1_555
H8_16 C21_16 1_555 1_555

#END
