
###############################################################################
#
# This file contains modified crystal structure data generated from the
# MOF subset of the Cambridge Structural Database (CSD) v543 
# hosted by the Cambridge Crystallographic Data Centre (CCDC).
#
# This work is licensed under the Creative Commons
# Attribution-NonCommercial-ShareAlike 4.0 International License.
# To view a copy of this license, visit
# http://creativecommons.org/licenses/by-nc-sa/4.0/
# or send a letter to
# Creative Commons, PO Box 1866, Mountain View, CA 94042, USA.
#
# CIF created using the CSD Python API on 29 September 2022
# The structure has been converted into the P1 space group
# The structure has a 3D framework
# The original CSD entry AVUYEY is in the cubic crystal system
# The original CSD entry AVUYEY is in a Sohncke space group
# The framework has been calculated to contain at least 10.0% void space
# The void calculation uses a probe of radius 1.32A, grid spacing 0.4
#
###############################################################################

data_AVUYEY
_chemical_formula_moiety         '(C240 H144 Co16 F12 N60 O40 S4)n'
_symmetry_cell_setting           triclinic
_symmetry_space_group_name_H-M   'P 1'
_symmetry_Int_Tables_number      1
_space_group_name_Hall           'P 1'
loop_
_symmetry_equiv_pos_site_id
_symmetry_equiv_pos_as_xyz
1 x,y,z
_cell_length_a                   23.6033(8)
_cell_length_b                   23.6033(8)
_cell_length_c                   23.6033(8)
_cell_angle_alpha                90
_cell_angle_beta                 90
_cell_angle_gamma                90
_cell_volume                     13149.8
loop_
_atom_site_label
_atom_site_type_symbol
_atom_site_fract_x
_atom_site_fract_y
_atom_site_fract_z
Co1 Co 0.24238(2) 0.24238(2) 0.24238(2)
Co2 Co 0.19361(2) 0.24680(2) 0.11897(2)
S1 S 0.12826(3) 0.12826(3) 0.12826(3)
F1 F 0.16433(7) 0.25593(8) 0.20145(7)
O1 O 0.24419(11) 0.31633(9) 0.12731(9)
O2 O 0.27504(10) 0.31857(10) 0.21701(10)
O3 O 0.13247(10) 0.18610(10) 0.10385(9)
N1 N 0.12901(14) 0.30388(13) 0.09208(13)
N2 N 0.35497(14) 0.58075(14) 0.06870(14)
C1 C 0.29486(16) 0.39643(15) 0.15753(16)
N4 N 0.23355(13) 0.22459(13) 0.04119(12)
C2 C 0.26867(15) 0.33936(14) 0.16876(15)
C3 C 0.36023(18) 0.47137(17) 0.17984(18)
H1 H 0.3886 0.4865 0.2040
C4 C 0.34429(17) 0.50059(16) 0.13129(18)
C5 C 0.03630(18) 0.37405(18) 0.07294(17)
C7 C 0.37473(17) 0.55354(16) 0.11406(17)
C8 C 0.1186(2) 0.34900(17) 0.12484(18)
H2 H 0.1437 0.3563 0.1554
C9 C 0.2780(2) 0.42718(19) 0.1097(2)
H3 H 0.2488 0.4127 0.0861
C10 C 0.3032(2) 0.47838(18) 0.0963(2)
H4 H 0.2922 0.4982 0.0631
C11 C 0.33456(17) 0.42006(17) 0.19296(17)
H5 H 0.3446 0.4010 0.2270
C12 C 0.07475(19) 0.38460(18) 0.11709(18)
H6 H 0.0699 0.4165 0.1412
C13 C 0.04788(19) 0.32723(18) 0.03768(19)
H7 H 0.0238 0.3190 0.0065
C14 C 0.09360(18) 0.29399(17) 0.04860(17)
H8 H 0.1008 0.2625 0.0246
C16 C 0.2785(2) 0.2520(2) 0.0218(2)
H9 H 0.2893 0.2862 0.0400
C18 C 0.2177(3) 0.1803(2) 0.0117(2)
H11 H 0.1846 0.1608 0.0235
O4 O 0.09257(10) 0.09257(10) 0.09257(10)
O5 O 0.10385(9) 0.13247(10) 0.18610(10)
O6 O 0.18610(10) 0.10385(9) 0.13247(10)
O7 O 0.68367(9) 0.62731(9) 0.25581(11)
O8 O 0.68143(10) 0.71701(10) 0.22496(10)
N6 N 0.41925(14) 0.56870(14) 0.14503(14)
C21 C 0.60357(15) 0.65753(16) 0.20514(16)
C22 C 0.66064(14) 0.66876(15) 0.23133(15)
C23 C 0.52863(17) 0.67984(18) 0.13977(18)
H13 H 0.5135 0.7040 0.1114
C24 C 0.49941(16) 0.63129(18) 0.15571(17)
C25 C 0.44646(16) 0.61406(17) 0.12527(17)
C26 C 0.57282(19) 0.6097(2) 0.2220(2)
H14 H 0.5873 0.5861 0.2512
C27 C 0.52162(18) 0.5963(2) 0.1968(2)
H15 H 0.5018 0.5631 0.2078
C28 C 0.57994(17) 0.69296(17) 0.16544(17)
H16 H 0.5990 0.7270 0.1554
N7 N 0.43130(14) 0.64503(14) 0.08075(14)
C32 C 0.36871(18) 0.65571(17) 0.00059(16)
C33 C 0.38594(17) 0.62527(17) 0.05354(16)
Co3 Co 0.11897(2) 0.19361(2) 0.24680(2)
F2 F 0.20145(7) 0.16433(7) 0.25593(8)
Co4 Co 0.24680(2) 0.11897(2) 0.19361(2)
F3 F 0.25593(8) 0.20145(7) 0.16433(7)
Co6 Co 0.75762(2) 0.74238(2) 0.25762(2)
Co9 Co 0.75320(2) 0.61897(2) 0.30639(2)
O11 O 0.12731(9) 0.24419(11) 0.31633(9)
O12 O 0.31633(9) 0.12731(9) 0.24419(11)
O13 O 0.21701(10) 0.27504(10) 0.31857(10)
O14 O 0.31857(10) 0.21701(10) 0.27504(10)
N16 N 0.09208(13) 0.12901(14) 0.30388(13)
N17 N 0.30388(13) 0.09208(13) 0.12901(14)
N18 N 0.04119(12) 0.23355(13) 0.22459(13)
N19 N 0.22459(13) 0.04119(12) 0.23355(13)
C15 C 0.29404(17) 0.18687(17) 0.94723(16)
C17 C 0.2461(2) 0.1601(2) 0.9646(2)
H10 H 0.2323 0.1279 0.9447
C19 C 0.3105(2) 0.2333(2) 0.9766(2)
H12 H 0.3440 0.2530 0.9661
N5 N 0.30427(14) 0.12071(14) 0.87092(13)
C20 C 0.32492(17) 0.16556(16) 0.89612(16)
O9 O 0.37269(9) 0.75581(11) 0.81633(9)
O10 O 0.28299(10) 0.72496(10) 0.81857(10)
C29 C 0.34247(16) 0.70514(16) 0.89643(15)
C30 C 0.33124(15) 0.73133(15) 0.83936(14)
C31 C 0.32016(18) 0.63977(18) 0.97137(17)
H17 H 0.2960 0.6114 0.9865
C34 C 0.3903(2) 0.7220(2) 0.92718(19)
H18 H 0.4139 0.7512 0.9127
C35 C 0.4037(2) 0.6968(2) 0.97838(18)
H19 H 0.4369 0.7078 0.9982
C36 C 0.30704(17) 0.66544(17) 0.92006(17)
H20 H 0.2730 0.6554 0.9010
C49 C 0.31313(17) 0.05277(16) 0.79404(17)
C51 C 0.3399(2) 0.0354(2) 0.7461(2)
H30 H 0.3721 0.0553 0.7323
C53 C 0.2667(2) 0.0234(2) 0.8105(2)
H32 H 0.2470 0.0339 0.8440
N13 N 0.37929(14) 0.12908(13) 0.80427(14)
C54 C 0.33444(16) 0.10388(16) 0.82492(17)
N14 N 0.54119(12) 0.26645(13) 0.77541(13)
C55 C 0.44723(16) 0.20596(17) 0.81313(17)
C56 C 0.5218(2) 0.2215(2) 0.7480(2)
H33 H 0.5400 0.2107 0.7138
C57 C 0.4646(2) 0.2539(2) 0.8399(2)
H34 H 0.4447 0.2677 0.8721
C58 C 0.5117(2) 0.2823(3) 0.8197(2)
H35 H 0.5235 0.3154 0.8392
C59 C 0.4766(2) 0.1895(2) 0.7667(2)
H36 H 0.4661 0.1560 0.7470
N15 N 0.37092(13) 0.19573(14) 0.87929(14)
C60 C 0.39612(16) 0.17508(17) 0.83444(16)
Co5 Co 0.25762(2) 0.75762(2) 0.74238(2)
Co8 Co 0.61897(2) 0.30639(2) 0.75320(2)
Co10 Co 0.38103(2) 0.80639(2) 0.74680(2)
N12 N 0.27541(13) 0.95881(12) 0.73355(13)
C50 C 0.2480(2) 0.9782(2) 0.7785(2)
H29 H 0.2138 0.9600 0.7893
C52 C 0.3197(2) 0.9883(2) 0.7177(3)
H31 H 0.3392 0.9765 0.6846
Co7 Co 0.25320(2) 0.88103(2) 0.69361(2)
N3 N 0.95487(15) 0.40076(14) 0.01878(15)
C6 C 0.98831(17) 0.41188(17) 0.06340(17)
N8 N 0.90792(13) 0.62901(14) 0.19612(13)
N9 N 0.98122(15) 0.45487(15) 0.09924(14)
C37 C 0.92706(17) 0.53630(18) 0.12595(18)
C38 C 0.93660(17) 0.48831(17) 0.08812(17)
C39 C 0.87516(18) 0.6186(2) 0.15100(17)
H21 H 0.8446 0.6437 0.1437
C40 C 0.88291(18) 0.57475(19) 0.11540(18)
H22 H 0.8588 0.5699 0.0835
C41 C 0.96232(19) 0.54788(19) 0.17277(18)
H23 H 0.9935 0.5238 0.1810
C42 C 0.95140(17) 0.59360(18) 0.20601(17)
H24 H 0.9754 0.6008 0.2375
N11 N 0.90076(14) 0.48122(15) 0.04513(15)
C44 C 0.91188(17) 0.43660(17) 0.01169(17)
Co11 Co 0.88103(2) 0.69361(2) 0.25320(2)
N10 N 0.80388(13) 0.40792(13) 0.87099(14)
C43 C 0.87405(18) 0.42706(17) 0.96370(18)
C45 C 0.84900(17) 0.37516(18) 0.8814(2)
H25 H 0.8563 0.3446 0.8563
C46 C 0.88460(18) 0.38291(18) 0.92525(19)
H26 H 0.9165 0.3588 0.9301
C47 C 0.82723(18) 0.46232(19) 0.95212(19)
H27 H 0.8190 0.4935 0.9762
C48 C 0.79399(17) 0.45140(17) 0.90640(18)
H28 H 0.7625 0.4754 0.8992
Co12 Co 0.74680(2) 0.38103(2) 0.80639(2)
N2_2 N 0.06870(14) 0.35497(14) 0.58075(14)
C1_2 C 0.15753(16) 0.29486(16) 0.39643(15)
C2_2 C 0.16876(15) 0.26867(15) 0.33936(14)
C3_2 C 0.17984(18) 0.36023(18) 0.47137(17)
H1_2 H 0.2040 0.3886 0.4865
C4_2 C 0.13129(18) 0.34429(17) 0.50059(16)
C5_2 C 0.07294(17) 0.03630(18) 0.37405(18)
C7_2 C 0.11406(17) 0.37473(17) 0.55354(16)
C8_2 C 0.12484(18) 0.1186(2) 0.34900(17)
H2_2 H 0.1554 0.1437 0.3563
C9_2 C 0.1097(2) 0.2780(2) 0.42718(19)
H3_2 H 0.0861 0.2488 0.4127
C10_2 C 0.0963(2) 0.3032(2) 0.47838(18)
H4_2 H 0.0631 0.2922 0.4982
C11_2 C 0.19296(17) 0.33456(17) 0.42006(17)
H5_2 H 0.2270 0.3446 0.4010
C12_2 C 0.11709(18) 0.07475(19) 0.38460(18)
H6_2 H 0.1412 0.0699 0.4165
C13_2 C 0.03768(19) 0.04788(19) 0.32723(18)
H7_2 H 0.0065 0.0238 0.3190
C14_2 C 0.04860(17) 0.09360(18) 0.29399(17)
H8_2 H 0.0246 0.1008 0.2625
C16_2 C 0.0218(2) 0.2785(2) 0.2520(2)
H9_2 H 0.0400 0.2893 0.2862
C18_2 C 0.0117(2) 0.2177(3) 0.1803(2)
H11_2 H 0.0235 0.1846 0.1608
O7_2 O 0.25581(11) 0.68367(9) 0.62731(9)
O8_2 O 0.22496(10) 0.68143(10) 0.71701(10)
N6_2 N 0.14503(14) 0.41925(14) 0.56870(14)
C21_2 C 0.20514(16) 0.60357(15) 0.65753(16)
C22_2 C 0.23133(15) 0.66064(14) 0.66876(15)
C23_2 C 0.13977(18) 0.52863(17) 0.67984(18)
H13_2 H 0.1114 0.5135 0.7040
C24_2 C 0.15571(17) 0.49941(16) 0.63129(18)
C25_2 C 0.12527(17) 0.44646(16) 0.61406(17)
C26_2 C 0.2220(2) 0.57282(19) 0.6097(2)
H14_2 H 0.2512 0.5873 0.5861
C27_2 C 0.1968(2) 0.52162(18) 0.5963(2)
H15_2 H 0.2078 0.5018 0.5631
C28_2 C 0.16544(17) 0.57994(17) 0.69296(17)
H16_2 H 0.1554 0.5990 0.7270
N7_2 N 0.08075(14) 0.43130(14) 0.64503(14)
C32_2 C 0.00059(16) 0.36871(18) 0.65571(17)
C33_2 C 0.05354(16) 0.38594(17) 0.62527(17)
Co9_2 Co 0.30639(2) 0.75320(2) 0.61897(2)
N3_2 N 0.01878(15) 0.95487(15) 0.40076(14)
C6_2 C 0.06340(17) 0.98831(17) 0.41188(17)
N8_2 N 0.19612(13) 0.90792(13) 0.62901(14)
N9_2 N 0.09924(14) 0.98122(15) 0.45487(15)
C37_2 C 0.12595(18) 0.92706(17) 0.53630(18)
C38_2 C 0.08812(17) 0.93660(17) 0.48831(17)
C39_2 C 0.15100(17) 0.87516(18) 0.6186(2)
H21_2 H 0.1437 0.8446 0.6437
C40_2 C 0.11540(18) 0.88291(18) 0.57475(19)
H22_2 H 0.0835 0.8588 0.5699
C41_2 C 0.17277(18) 0.96232(19) 0.54788(19)
H23_2 H 0.1810 0.9935 0.5238
C42_2 C 0.20601(17) 0.95140(17) 0.59360(18)
H24_2 H 0.2375 0.9754 0.6008
N11_2 N 0.04513(15) 0.90076(14) 0.48122(15)
C44_2 C 0.01169(17) 0.91188(17) 0.43660(17)
C15_2 C 0.94723(16) 0.29404(17) 0.18687(17)
C17_2 C 0.9646(2) 0.2461(2) 0.1601(2)
H10_2 H 0.9447 0.2323 0.1279
C19_2 C 0.9766(2) 0.3105(2) 0.2333(2)
H12_2 H 0.9661 0.3440 0.2530
N5_2 N 0.87092(13) 0.30427(14) 0.12071(14)
C20_2 C 0.89612(16) 0.32492(17) 0.16556(16)
O9_2 O 0.81633(9) 0.37269(9) 0.75581(11)
O10_2 O 0.81857(10) 0.28299(10) 0.72496(10)
C29_2 C 0.89643(15) 0.34247(16) 0.70514(16)
C30_2 C 0.83936(14) 0.33124(15) 0.73133(15)
C31_2 C 0.97137(17) 0.32016(18) 0.63977(18)
H17_2 H 0.9865 0.2960 0.6114
C34_2 C 0.92718(19) 0.3903(2) 0.7220(2)
H18_2 H 0.9127 0.4139 0.7512
C35_2 C 0.97838(18) 0.4037(2) 0.6968(2)
H19_2 H 0.9982 0.4369 0.7078
C36_2 C 0.92006(17) 0.30704(17) 0.66544(17)
H20_2 H 0.9010 0.2730 0.6554
C49_2 C 0.79404(17) 0.31313(17) 0.05277(16)
C51_2 C 0.7461(2) 0.3399(2) 0.0354(2)
H30_2 H 0.7323 0.3721 0.0553
C53_2 C 0.8105(2) 0.2667(2) 0.0234(2)
H32_2 H 0.8440 0.2470 0.0339
N13_2 N 0.80427(14) 0.37929(14) 0.12908(13)
C54_2 C 0.82492(17) 0.33444(16) 0.10388(16)
N14_2 N 0.77541(13) 0.54119(12) 0.26645(13)
C55_2 C 0.81313(17) 0.44723(16) 0.20596(17)
C56_2 C 0.7480(2) 0.5218(2) 0.2215(2)
H33_2 H 0.7138 0.5400 0.2107
C57_2 C 0.8399(2) 0.4646(2) 0.2539(2)
H34_2 H 0.8721 0.4447 0.2677
C58_2 C 0.8197(2) 0.5117(2) 0.2823(3)
H35_2 H 0.8392 0.5235 0.3154
C59_2 C 0.7667(2) 0.4766(2) 0.1895(2)
H36_2 H 0.7470 0.4661 0.1560
N15_2 N 0.87929(14) 0.37092(13) 0.19573(14)
C60_2 C 0.83444(16) 0.39612(16) 0.17508(17)
Co5_2 Co 0.74238(2) 0.25762(2) 0.75762(2)
N12_2 N 0.73355(13) 0.27541(13) 0.95881(12)
C50_2 C 0.7785(2) 0.2480(2) 0.9782(2)
H29_2 H 0.7893 0.2138 0.9600
C52_2 C 0.7177(3) 0.3197(2) 0.9883(2)
H31_2 H 0.6846 0.3392 0.9765
Co7_2 Co 0.69361(2) 0.25320(2) 0.88103(2)
N10_2 N 0.87099(14) 0.80388(13) 0.40792(13)
C43_2 C 0.96370(18) 0.87405(18) 0.42706(17)
C45_2 C 0.8814(2) 0.84900(17) 0.37516(18)
H25_2 H 0.8563 0.8563 0.3446
C46_2 C 0.92525(19) 0.88460(18) 0.38291(18)
H26_2 H 0.9301 0.9165 0.3588
C47_2 C 0.95212(19) 0.82723(18) 0.46232(19)
H27_2 H 0.9762 0.8190 0.4935
C48_2 C 0.90640(18) 0.79399(17) 0.45140(17)
H28_2 H 0.8992 0.7625 0.4754
Co12_2 Co 0.80639(2) 0.74680(2) 0.38103(2)
N2_3 N 0.58075(14) 0.06870(14) 0.35497(14)
C1_3 C 0.39643(15) 0.15753(16) 0.29486(16)
C2_3 C 0.33936(14) 0.16876(15) 0.26867(15)
C3_3 C 0.47137(17) 0.17984(18) 0.36023(18)
H1_3 H 0.4865 0.2040 0.3886
C4_3 C 0.50059(16) 0.13129(18) 0.34429(17)
C5_3 C 0.37405(18) 0.07294(17) 0.03630(18)
C7_3 C 0.55354(16) 0.11406(17) 0.37473(17)
C8_3 C 0.34900(17) 0.12484(18) 0.1186(2)
H2_3 H 0.3563 0.1554 0.1437
C9_3 C 0.42718(19) 0.1097(2) 0.2780(2)
H3_3 H 0.4127 0.0861 0.2488
C10_3 C 0.47838(18) 0.0963(2) 0.3032(2)
H4_3 H 0.4982 0.0631 0.2922
C11_3 C 0.42006(17) 0.19296(17) 0.33456(17)
H5_3 H 0.4010 0.2270 0.3446
C12_3 C 0.38460(18) 0.11709(18) 0.07475(19)
H6_3 H 0.4165 0.1412 0.0699
C13_3 C 0.32723(18) 0.03768(19) 0.04788(19)
H7_3 H 0.3190 0.0065 0.0238
C14_3 C 0.29399(17) 0.04860(17) 0.09360(18)
H8_3 H 0.2625 0.0246 0.1008
C16_3 C 0.2520(2) 0.0218(2) 0.2785(2)
H9_3 H 0.2862 0.0400 0.2893
C18_3 C 0.1803(2) 0.0117(2) 0.2177(3)
H11_3 H 0.1608 0.0235 0.1846
O7_3 O 0.62731(9) 0.25581(11) 0.68367(9)
O8_3 O 0.71701(10) 0.22496(10) 0.68143(10)
N6_3 N 0.56870(14) 0.14503(14) 0.41925(14)
C21_3 C 0.65753(16) 0.20514(16) 0.60357(15)
C22_3 C 0.66876(15) 0.23133(15) 0.66064(14)
C23_3 C 0.67984(18) 0.13977(18) 0.52863(17)
H13_3 H 0.7040 0.1114 0.5135
C24_3 C 0.63129(18) 0.15571(17) 0.49941(16)
C25_3 C 0.61406(17) 0.12527(17) 0.44646(16)
C26_3 C 0.6097(2) 0.2220(2) 0.57282(19)
H14_3 H 0.5861 0.2512 0.5873
C27_3 C 0.5963(2) 0.1968(2) 0.52162(18)
H15_3 H 0.5631 0.2078 0.5018
C28_3 C 0.69296(17) 0.16544(17) 0.57994(17)
H16_3 H 0.7270 0.1554 0.5990
N7_3 N 0.64503(14) 0.08075(14) 0.43130(14)
C32_3 C 0.65571(17) 0.00059(16) 0.36871(18)
C33_3 C 0.62527(17) 0.05354(16) 0.38594(17)
N3_3 N 0.40076(14) 0.01878(15) 0.95487(15)
C6_3 C 0.41188(17) 0.06340(17) 0.98831(17)
N8_3 N 0.62901(14) 0.19612(13) 0.90792(13)
N9_3 N 0.45487(15) 0.09924(14) 0.98122(15)
C37_3 C 0.53630(18) 0.12595(18) 0.92706(17)
C38_3 C 0.48831(17) 0.08812(17) 0.93660(17)
C39_3 C 0.6186(2) 0.15100(17) 0.87516(18)
H21_3 H 0.6437 0.1437 0.8446
C40_3 C 0.57475(19) 0.11540(18) 0.88291(18)
H22_3 H 0.5699 0.0835 0.8588
C41_3 C 0.54788(19) 0.17277(18) 0.96232(19)
H23_3 H 0.5238 0.1810 0.9935
C42_3 C 0.59360(18) 0.20601(17) 0.95140(17)
H24_3 H 0.6008 0.2375 0.9754
N11_3 N 0.48122(15) 0.04513(15) 0.90076(14)
C44_3 C 0.43660(17) 0.01169(17) 0.91188(17)
C15_3 C 0.18687(17) 0.94723(16) 0.29404(17)
C17_3 C 0.1601(2) 0.9646(2) 0.2461(2)
H10_3 H 0.1279 0.9447 0.2323
C19_3 C 0.2333(2) 0.9766(2) 0.3105(2)
H12_3 H 0.2530 0.9661 0.3440
N5_3 N 0.12071(14) 0.87092(13) 0.30427(14)
C20_3 C 0.16556(16) 0.89612(16) 0.32492(17)
O9_3 O 0.75581(11) 0.81633(9) 0.37269(9)
O10_3 O 0.72496(10) 0.81857(10) 0.28299(10)
C29_3 C 0.70514(16) 0.89643(15) 0.34247(16)
C30_3 C 0.73133(15) 0.83936(14) 0.33124(15)
C31_3 C 0.63977(18) 0.97137(17) 0.32016(18)
H17_3 H 0.6114 0.9865 0.2960
C34_3 C 0.7220(2) 0.92718(19) 0.3903(2)
H18_3 H 0.7512 0.9127 0.4139
C35_3 C 0.6968(2) 0.97838(18) 0.4037(2)
H19_3 H 0.7078 0.9982 0.4369
C36_3 C 0.66544(17) 0.92006(17) 0.30704(17)
H20_3 H 0.6554 0.9010 0.2730
C49_3 C 0.05277(16) 0.79404(17) 0.31313(17)
C51_3 C 0.0354(2) 0.7461(2) 0.3399(2)
H30_3 H 0.0553 0.7323 0.3721
C53_3 C 0.0234(2) 0.8105(2) 0.2667(2)
H32_3 H 0.0339 0.8440 0.2470
N13_3 N 0.12908(13) 0.80427(14) 0.37929(14)
C54_3 C 0.10388(16) 0.82492(17) 0.33444(16)
N14_3 N 0.26645(13) 0.77541(13) 0.54119(12)
C55_3 C 0.20596(17) 0.81313(17) 0.44723(16)
C56_3 C 0.2215(2) 0.7480(2) 0.5218(2)
H33_3 H 0.2107 0.7138 0.5400
C57_3 C 0.2539(2) 0.8399(2) 0.4646(2)
H34_3 H 0.2677 0.8721 0.4447
C58_3 C 0.2823(3) 0.8197(2) 0.5117(2)
H35_3 H 0.3154 0.8392 0.5235
C59_3 C 0.1895(2) 0.7667(2) 0.4766(2)
H36_3 H 0.1560 0.7470 0.4661
N15_3 N 0.19573(14) 0.87929(14) 0.37092(13)
C60_3 C 0.17508(17) 0.83444(16) 0.39612(16)
N10_3 N 0.40792(13) 0.87099(14) 0.80388(13)
C43_3 C 0.42706(17) 0.96370(18) 0.87405(18)
C45_3 C 0.37516(18) 0.8814(2) 0.84900(17)
H25_3 H 0.3446 0.8563 0.8563
C46_3 C 0.38291(18) 0.92525(19) 0.88460(18)
H26_3 H 0.3588 0.9301 0.9165
C47_3 C 0.46232(19) 0.95212(19) 0.82723(18)
H27_3 H 0.4935 0.9762 0.8190
C48_3 C 0.45140(17) 0.90640(18) 0.79399(17)
H28_3 H 0.4754 0.8992 0.7625
N12_3 N 0.95881(12) 0.73355(13) 0.27541(13)
C50_3 C 0.9782(2) 0.7785(2) 0.2480(2)
H29_3 H 0.9600 0.7893 0.2138
C52_3 C 0.9883(2) 0.7177(3) 0.3197(2)
H31_3 H 0.9765 0.6846 0.3392
S1_2 S 0.37174(3) 0.87174(3) 0.62826(3)
F1_2 F 0.24407(8) 0.79855(7) 0.66433(7)
O1_2 O 0.18367(9) 0.87269(9) 0.74419(11)
O2_2 O 0.18143(10) 0.78299(10) 0.77504(10)
O3_2 O 0.31390(10) 0.89615(9) 0.63247(10)
C1_4 C 0.10357(15) 0.84247(16) 0.79486(16)
C2_4 C 0.16064(14) 0.83124(15) 0.76867(15)
C3_4 C 0.02863(17) 0.82016(18) 0.86023(18)
H1_4 H 0.0135 0.7960 0.8886
C9_4 C 0.07282(19) 0.8903(2) 0.7780(2)
H3_4 H 0.0873 0.9139 0.7488
C10_4 C 0.02162(18) 0.9037(2) 0.8032(2)
H4_4 H 0.0018 0.9369 0.7922
C11_4 C 0.07994(17) 0.80704(17) 0.83456(17)
H5_4 H 0.0990 0.7730 0.8446
O4_2 O 0.40743(10) 0.90743(10) 0.59257(10)
O5_2 O 0.36753(10) 0.81390(10) 0.60385(9)
O6_2 O 0.39615(9) 0.86753(10) 0.68610(10)
F2_2 F 0.33567(7) 0.74407(8) 0.70145(7)
F3_2 F 0.29855(7) 0.83567(7) 0.75593(8)
N16_2 N 0.37099(14) 0.69612(13) 0.59208(13)
N19_2 N 0.45881(12) 0.76645(13) 0.72459(13)
O9_4 O 0.74419(11) 0.18367(9) 0.87269(9)
O10_4 O 0.77504(10) 0.18143(10) 0.78299(10)
C29_4 C 0.79486(16) 0.10357(15) 0.84247(16)
C30_4 C 0.76867(15) 0.16064(14) 0.83124(15)
C31_4 C 0.86023(18) 0.02863(17) 0.82016(18)
H17_4 H 0.8886 0.0135 0.7960
C34_4 C 0.7780(2) 0.07282(19) 0.8903(2)
H18_4 H 0.7488 0.0873 0.9139
C35_4 C 0.8032(2) 0.02162(18) 0.9037(2)
H19_4 H 0.7922 0.0018 0.9369
C36_4 C 0.83456(17) 0.07994(17) 0.80704(17)
H20_4 H 0.8446 0.0990 0.7730
O7_4 O 0.87269(9) 0.74419(11) 0.18367(9)
O8_4 O 0.78299(10) 0.77504(10) 0.18143(10)
C21_4 C 0.84247(16) 0.79486(16) 0.10357(15)
C22_4 C 0.83124(15) 0.76867(15) 0.16064(14)
C23_4 C 0.82016(18) 0.86023(18) 0.02863(17)
H13_4 H 0.7960 0.8886 0.0135
C26_4 C 0.8903(2) 0.7780(2) 0.07282(19)
H14_4 H 0.9139 0.7488 0.0873
C27_4 C 0.9037(2) 0.8032(2) 0.02162(18)
H15_4 H 0.9369 0.7922 0.0018
C28_4 C 0.80704(17) 0.83456(17) 0.07994(17)
H16_4 H 0.7730 0.8446 0.0990
N2_4 N 0.91925(14) 0.93130(14) 0.85497(14)
C4_4 C 0.99941(16) 0.86871(18) 0.84429(17)
C7_4 C 0.94646(16) 0.88594(17) 0.87473(17)
N6_4 N 0.93130(14) 0.85497(14) 0.91925(14)
C24_4 C 0.86871(18) 0.84429(17) 0.99941(16)
C25_4 C 0.88594(17) 0.87473(17) 0.94646(16)
N7_4 N 0.85497(14) 0.91925(14) 0.93130(14)
C32_4 C 0.84429(17) 0.99941(16) 0.86871(18)
C33_4 C 0.87473(17) 0.94646(16) 0.88594(17)
S1_3 S 0.62826(3) 0.37174(3) 0.87174(3)
F1_3 F 0.70145(7) 0.33567(7) 0.74407(8)
O3_3 O 0.60385(9) 0.36753(10) 0.81390(10)
N1_2 N 0.59208(13) 0.37099(14) 0.69612(13)
N3_4 N 0.51878(15) 0.54513(15) 0.59924(14)
C5_4 C 0.57294(17) 0.46370(18) 0.62595(18)
C6_4 C 0.56340(17) 0.51169(17) 0.58812(17)
C8_4 C 0.62484(18) 0.3814(2) 0.65100(17)
H2_4 H 0.6554 0.3563 0.6437
C12_4 C 0.61709(18) 0.42525(19) 0.61540(18)
H6_4 H 0.6412 0.4301 0.5835
C13_4 C 0.53768(19) 0.45212(19) 0.67277(18)
H7_4 H 0.5065 0.4762 0.6810
C14_4 C 0.54860(17) 0.40640(18) 0.70601(17)
H8_4 H 0.5246 0.3992 0.7375
O4_3 O 0.59257(10) 0.40743(10) 0.90743(10)
O5_3 O 0.68610(10) 0.39615(9) 0.86753(10)
O6_3 O 0.63247(10) 0.31390(10) 0.89615(9)
N8_4 N 0.69612(13) 0.59208(13) 0.37099(14)
N9_4 N 0.59924(14) 0.51878(15) 0.54513(15)
C37_4 C 0.62595(18) 0.57294(17) 0.46370(18)
C38_4 C 0.58812(17) 0.56340(17) 0.51169(17)
C39_4 C 0.65100(17) 0.62484(18) 0.3814(2)
H21_4 H 0.6437 0.6554 0.3563
C40_4 C 0.61540(18) 0.61709(18) 0.42525(19)
H22_4 H 0.5835 0.6412 0.4301
C41_4 C 0.67277(18) 0.53768(19) 0.45212(19)
H23_4 H 0.6810 0.5065 0.4762
C42_4 C 0.70601(17) 0.54860(17) 0.40640(18)
H24_4 H 0.7375 0.5246 0.3992
N11_4 N 0.54513(15) 0.59924(14) 0.51878(15)
C43_4 C 0.46370(18) 0.62595(18) 0.57294(17)
C44_4 C 0.51169(17) 0.58812(17) 0.56340(17)
C45_4 C 0.3814(2) 0.65100(17) 0.62484(18)
H25_4 H 0.3563 0.6437 0.6554
C46_4 C 0.42525(19) 0.61540(18) 0.61709(18)
H26_4 H 0.4301 0.5835 0.6412
C47_4 C 0.45212(19) 0.67277(18) 0.53768(19)
H27_4 H 0.4762 0.6810 0.5065
C48_4 C 0.40640(18) 0.70601(17) 0.54860(17)
H28_4 H 0.3992 0.7375 0.5246
F2_3 F 0.75593(8) 0.29855(7) 0.83567(7)
F3_3 F 0.66433(7) 0.24407(8) 0.79855(7)
N18_2 N 0.72459(13) 0.45881(12) 0.76645(13)
S1_4 S 0.87174(3) 0.62826(3) 0.37174(3)
F1_4 F 0.74407(8) 0.70145(7) 0.33567(7)
O3_4 O 0.81390(10) 0.60385(9) 0.36753(10)
O4_4 O 0.90743(10) 0.59257(10) 0.40743(10)
O5_4 O 0.86753(10) 0.68610(10) 0.39615(9)
O6_4 O 0.89615(9) 0.63247(10) 0.31390(10)
F2_4 F 0.83567(7) 0.75593(8) 0.29855(7)
F3_4 F 0.79855(7) 0.66433(7) 0.24407(8)
N18_3 N 0.76645(13) 0.72459(13) 0.45881(12)
C15_4 C 0.55277(16) 0.70596(17) 0.68687(17)
C16_4 C 0.4782(2) 0.7215(2) 0.7520(2)
H9_4 H 0.4600 0.7107 0.7862
C17_4 C 0.5354(2) 0.7539(2) 0.6601(2)
H10_4 H 0.5553 0.7677 0.6279
C18_4 C 0.4883(2) 0.7823(3) 0.6803(2)
H11_4 H 0.4765 0.8154 0.6608
C19_4 C 0.5234(2) 0.6895(2) 0.7333(2)
H12_4 H 0.5339 0.6560 0.7530
N5_4 N 0.62908(13) 0.69573(14) 0.62071(14)
C20_4 C 0.60388(16) 0.67508(17) 0.66556(16)
C49_4 C 0.70596(17) 0.68687(17) 0.55277(16)
C50_4 C 0.7215(2) 0.7520(2) 0.4782(2)
H29_4 H 0.7107 0.7862 0.4600
C51_4 C 0.7539(2) 0.6601(2) 0.5354(2)
H30_4 H 0.7677 0.6279 0.5553
C52_4 C 0.7823(3) 0.6803(2) 0.4883(2)
H31_4 H 0.8154 0.6608 0.4765
C53_4 C 0.6895(2) 0.7333(2) 0.5234(2)
H32_4 H 0.6560 0.7530 0.5339
N13_4 N 0.69573(14) 0.62071(14) 0.62908(13)
C54_4 C 0.67508(17) 0.66556(16) 0.60388(16)
C55_4 C 0.68687(17) 0.55277(16) 0.70596(17)
C56_4 C 0.7520(2) 0.4782(2) 0.7215(2)
H33_4 H 0.7862 0.4600 0.7107
C57_4 C 0.6601(2) 0.5354(2) 0.7539(2)
H34_4 H 0.6279 0.5553 0.7677
C58_4 C 0.6803(2) 0.4883(2) 0.7823(3)
H35_4 H 0.6608 0.4765 0.8154
C59_4 C 0.7333(2) 0.5234(2) 0.6895(2)
H36_4 H 0.7530 0.5339 0.6560
N15_4 N 0.62071(14) 0.62908(13) 0.69573(14)
C60_4 C 0.66556(16) 0.60388(16) 0.67508(17)
loop_
_geom_bond_atom_site_label_1
_geom_bond_atom_site_label_2
_geom_bond_site_symmetry_1
_geom_bond_site_symmetry_2
Co1 F1 1_555 1_555
Co2 F1 1_555 1_555
S1 O3 1_555 1_555
F1 Co3 1_555 1_555
O1 Co2 1_555 1_555
O2 Co1 1_555 1_555
O3 Co2 1_555 1_555
N1 Co2 1_555 1_555
N2 C7 1_555 1_555
C1 C2 1_555 1_555
N4 Co2 1_555 1_555
C2 O1 1_555 1_555
C3 H1 1_555 1_555
C4 C3 1_555 1_555
C7 C4 1_555 1_555
C8 N1 1_555 1_555
H2 C8 1_555 1_555
C9 C1 1_555 1_555
H3 C9 1_555 1_555
C10 C4 1_555 1_555
H4 C10 1_555 1_555
C11 C1 1_555 1_555
H5 C11 1_555 1_555
C12 C5 1_555 1_555
H6 C12 1_555 1_555
C13 C5 1_555 1_555
H7 C13 1_555 1_555
C14 N1 1_555 1_555
H8 C14 1_555 1_555
C16 N4 1_555 1_555
H9 C16 1_555 1_555
C18 N4 1_555 1_555
H11 C18 1_555 1_555
O4 S1 1_555 1_555
O5 S1 1_555 1_555
O6 S1 1_555 1_555
O7 C22 1_555 1_555
O8 C22 1_555 1_555
N6 C7 1_555 1_555
C21 C22 1_555 1_555
C23 H13 1_555 1_555
C24 C23 1_555 1_555
C25 N6 1_555 1_555
C26 C21 1_555 1_555
H14 C26 1_555 1_555
C27 C24 1_555 1_555
H15 C27 1_555 1_555
C28 C21 1_555 1_555
H16 C28 1_555 1_555
N7 C25 1_555 1_555
C33 N2 1_555 1_555
Co3 O5 1_555 1_555
F2 Co1 1_555 1_555
Co4 O6 1_555 1_555
F3 Co1 1_555 1_555
Co6 O8 1_555 1_555
Co9 O7 1_555 1_555
O11 Co3 1_555 1_555
O12 Co4 1_555 1_555
O13 Co1 1_555 1_555
O14 Co1 1_555 1_555
N16 Co3 1_555 1_555
N17 Co4 1_555 1_555
N18 Co3 1_555 1_555
N19 Co4 1_555 1_555
Co2 F3 1_555 1_555
O2 C2 1_555 1_555
C3 C11 1_555 1_555
C8 C12 1_555 1_555
C9 C10 1_555 1_555
C13 C14 1_555 1_555
C23 C28 1_555 1_555
C24 C25 1_555 1_555
C26 C27 1_555 1_555
N7 C33 1_555 1_555
C32 C33 1_555 1_555
Co3 F2 1_555 1_555
F2 Co4 1_555 1_555
Co4 F3 1_555 1_555
C15 C17 1_555 1_555
C17 H10 1_555 1_555
C19 C15 1_555 1_555
H12 C19 1_555 1_555
N5 C20 1_555 1_555
C20 C15 1_555 1_555
O9 C30 1_555 1_555
O10 C30 1_555 1_555
C29 C30 1_555 1_555
C31 H17 1_555 1_555
C34 C29 1_555 1_555
H18 C34 1_555 1_555
H19 C35 1_555 1_555
C36 C29 1_555 1_555
H20 C36 1_555 1_555
C49 C51 1_555 1_555
C51 H30 1_555 1_555
C53 C49 1_555 1_555
H32 C53 1_555 1_555
N13 C54 1_555 1_555
C54 N5 1_555 1_555
N14 C56 1_555 1_555
C55 C57 1_555 1_555
C56 H33 1_555 1_555
C57 H34 1_555 1_555
C58 N14 1_555 1_555
H35 C58 1_555 1_555
C59 C55 1_555 1_555
H36 C59 1_555 1_555
N15 C20 1_555 1_555
C60 N13 1_555 1_555
Co5 O10 1_555 1_555
Co8 N14 1_555 1_555
Co10 O9 1_555 1_555
C31 C36 1_555 1_555
C34 C35 1_555 1_555
C49 C54 1_555 1_555
C55 C60 1_555 1_555
C56 C59 1_555 1_555
C57 C58 1_555 1_555
N15 C60 1_555 1_555
N12 C50 1_555 1_555
C50 H29 1_555 1_555
C52 N12 1_555 1_555
H31 C52 1_555 1_555
Co7 N12 1_555 1_555
N3 C6 1_555 1_555
C6 N9 1_555 1_555
N8 C39 1_555 1_555
N9 C38 1_555 1_555
C37 C38 1_555 1_555
C38 N11 1_555 1_555
C39 H21 1_555 1_555
C40 C37 1_555 1_555
H22 C40 1_555 1_555
C41 C37 1_555 1_555
H23 C41 1_555 1_555
C42 N8 1_555 1_555
H24 C42 1_555 1_555
N11 C44 1_555 1_555
C44 N3 1_555 1_555
Co11 N8 1_555 1_555
C39 C40 1_555 1_555
C41 C42 1_555 1_555
N10 C45 1_555 1_555
C45 H25 1_555 1_555
C46 C43 1_555 1_555
H26 C46 1_555 1_555
C47 C43 1_555 1_555
H27 C47 1_555 1_555
C48 N10 1_555 1_555
H28 C48 1_555 1_555
Co12 N10 1_555 1_555
C45 C46 1_555 1_555
C47 C48 1_555 1_555
N2_2 C7_2 1_555 1_555
C1_2 C2_2 1_555 1_555
C2_2 O11 1_555 1_555
C3_2 H1_2 1_555 1_555
C4_2 C3_2 1_555 1_555
C7_2 C4_2 1_555 1_555
C8_2 N16 1_555 1_555
H2_2 C8_2 1_555 1_555
C9_2 C1_2 1_555 1_555
H3_2 C9_2 1_555 1_555
C10_2 C4_2 1_555 1_555
H4_2 C10_2 1_555 1_555
C11_2 C1_2 1_555 1_555
H5_2 C11_2 1_555 1_555
C12_2 C5_2 1_555 1_555
H6_2 C12_2 1_555 1_555
C13_2 C5_2 1_555 1_555
H7_2 C13_2 1_555 1_555
C14_2 N16 1_555 1_555
H8_2 C14_2 1_555 1_555
C16_2 N18 1_555 1_555
H9_2 C16_2 1_555 1_555
C18_2 N18 1_555 1_555
H11_2 C18_2 1_555 1_555
O7_2 C22_2 1_555 1_555
O8_2 C22_2 1_555 1_555
N6_2 C7_2 1_555 1_555
C21_2 C22_2 1_555 1_555
C23_2 H13_2 1_555 1_555
C24_2 C23_2 1_555 1_555
C25_2 N6_2 1_555 1_555
C26_2 C21_2 1_555 1_555
H14_2 C26_2 1_555 1_555
C27_2 C24_2 1_555 1_555
H15_2 C27_2 1_555 1_555
C28_2 C21_2 1_555 1_555
H16_2 C28_2 1_555 1_555
N7_2 C25_2 1_555 1_555
C33_2 N2_2 1_555 1_555
Co5 O8_2 1_555 1_555
Co9_2 O7_2 1_555 1_555
O13 C2_2 1_555 1_555
C3_2 C11_2 1_555 1_555
C8_2 C12_2 1_555 1_555
C9_2 C10_2 1_555 1_555
C13_2 C14_2 1_555 1_555
C23_2 C28_2 1_555 1_555
C24_2 C25_2 1_555 1_555
C26_2 C27_2 1_555 1_555
N7_2 C33_2 1_555 1_555
C32_2 C33_2 1_555 1_555
N3_2 C6_2 1_555 1_555
C6_2 N9_2 1_555 1_555
N8_2 C39_2 1_555 1_555
N9_2 C38_2 1_555 1_555
C37_2 C38_2 1_555 1_555
C38_2 N11_2 1_555 1_555
C39_2 H21_2 1_555 1_555
C40_2 C37_2 1_555 1_555
H22_2 C40_2 1_555 1_555
C41_2 C37_2 1_555 1_555
H23_2 C41_2 1_555 1_555
C42_2 N8_2 1_555 1_555
H24_2 C42_2 1_555 1_555
N11_2 C44_2 1_555 1_555
C44_2 N3_2 1_555 1_555
Co7 N8_2 1_555 1_555
C39_2 C40_2 1_555 1_555
C41_2 C42_2 1_555 1_555
C15_2 C17_2 1_555 1_555
C17_2 H10_2 1_555 1_555
C19_2 C15_2 1_555 1_555
H12_2 C19_2 1_555 1_555
N5_2 C20_2 1_555 1_555
C20_2 C15_2 1_555 1_555
O9_2 C30_2 1_555 1_555
O10_2 C30_2 1_555 1_555
C29_2 C30_2 1_555 1_555
C31_2 H17_2 1_555 1_555
C34_2 C29_2 1_555 1_555
H18_2 C34_2 1_555 1_555
H19_2 C35_2 1_555 1_555
C36_2 C29_2 1_555 1_555
H20_2 C36_2 1_555 1_555
C49_2 C51_2 1_555 1_555
C51_2 H30_2 1_555 1_555
C53_2 C49_2 1_555 1_555
H32_2 C53_2 1_555 1_555
N13_2 C54_2 1_555 1_555
C54_2 N5_2 1_555 1_555
N14_2 C56_2 1_555 1_555
C55_2 C57_2 1_555 1_555
C56_2 H33_2 1_555 1_555
C57_2 H34_2 1_555 1_555
C58_2 N14_2 1_555 1_555
H35_2 C58_2 1_555 1_555
C59_2 C55_2 1_555 1_555
H36_2 C59_2 1_555 1_555
N15_2 C20_2 1_555 1_555
C60_2 N13_2 1_555 1_555
Co5_2 O10_2 1_555 1_555
Co9 N14_2 1_555 1_555
Co12 O9_2 1_555 1_555
C31_2 C36_2 1_555 1_555
C34_2 C35_2 1_555 1_555
C49_2 C54_2 1_555 1_555
C55_2 C60_2 1_555 1_555
C56_2 C59_2 1_555 1_555
C57_2 C58_2 1_555 1_555
N15_2 C60_2 1_555 1_555
N12_2 C50_2 1_555 1_555
C50_2 H29_2 1_555 1_555
C52_2 N12_2 1_555 1_555
H31_2 C52_2 1_555 1_555
Co7_2 N12_2 1_555 1_555
N10_2 C45_2 1_555 1_555
C45_2 H25_2 1_555 1_555
C46_2 C43_2 1_555 1_555
H26_2 C46_2 1_555 1_555
C47_2 C43_2 1_555 1_555
H27_2 C47_2 1_555 1_555
C48_2 N10_2 1_555 1_555
H28_2 C48_2 1_555 1_555
Co12_2 N10_2 1_555 1_555
C45_2 C46_2 1_555 1_555
C47_2 C48_2 1_555 1_555
N2_3 C7_3 1_555 1_555
C1_3 C2_3 1_555 1_555
C2_3 O12 1_555 1_555
C3_3 H1_3 1_555 1_555
C4_3 C3_3 1_555 1_555
C7_3 C4_3 1_555 1_555
C8_3 N17 1_555 1_555
H2_3 C8_3 1_555 1_555
C9_3 C1_3 1_555 1_555
H3_3 C9_3 1_555 1_555
C10_3 C4_3 1_555 1_555
H4_3 C10_3 1_555 1_555
C11_3 C1_3 1_555 1_555
H5_3 C11_3 1_555 1_555
C12_3 C5_3 1_555 1_555
H6_3 C12_3 1_555 1_555
C13_3 C5_3 1_555 1_555
H7_3 C13_3 1_555 1_555
C14_3 N17 1_555 1_555
H8_3 C14_3 1_555 1_555
C16_3 N19 1_555 1_555
H9_3 C16_3 1_555 1_555
C18_3 N19 1_555 1_555
H11_3 C18_3 1_555 1_555
O7_3 C22_3 1_555 1_555
O8_3 C22_3 1_555 1_555
N6_3 C7_3 1_555 1_555
C21_3 C22_3 1_555 1_555
C23_3 H13_3 1_555 1_555
C24_3 C23_3 1_555 1_555
C25_3 N6_3 1_555 1_555
C26_3 C21_3 1_555 1_555
H14_3 C26_3 1_555 1_555
C27_3 C24_3 1_555 1_555
H15_3 C27_3 1_555 1_555
C28_3 C21_3 1_555 1_555
H16_3 C28_3 1_555 1_555
N7_3 C25_3 1_555 1_555
C33_3 N2_3 1_555 1_555
Co5_2 O8_3 1_555 1_555
Co8 O7_3 1_555 1_555
O14 C2_3 1_555 1_555
C3_3 C11_3 1_555 1_555
C8_3 C12_3 1_555 1_555
C9_3 C10_3 1_555 1_555
C13_3 C14_3 1_555 1_555
C23_3 C28_3 1_555 1_555
C24_3 C25_3 1_555 1_555
C26_3 C27_3 1_555 1_555
N7_3 C33_3 1_555 1_555
C32_3 C33_3 1_555 1_555
N3_3 C6_3 1_555 1_555
C6_3 N9_3 1_555 1_555
N8_3 C39_3 1_555 1_555
N9_3 C38_3 1_555 1_555
C37_3 C38_3 1_555 1_555
C38_3 N11_3 1_555 1_555
C39_3 H21_3 1_555 1_555
C40_3 C37_3 1_555 1_555
H22_3 C40_3 1_555 1_555
C41_3 C37_3 1_555 1_555
H23_3 C41_3 1_555 1_555
C42_3 N8_3 1_555 1_555
H24_3 C42_3 1_555 1_555
N11_3 C44_3 1_555 1_555
C44_3 N3_3 1_555 1_555
Co7_2 N8_3 1_555 1_555
C39_3 C40_3 1_555 1_555
C41_3 C42_3 1_555 1_555
C15_3 C17_3 1_555 1_555
C17_3 H10_3 1_555 1_555
C19_3 C15_3 1_555 1_555
H12_3 C19_3 1_555 1_555
N5_3 C20_3 1_555 1_555
C20_3 C15_3 1_555 1_555
O9_3 C30_3 1_555 1_555
O10_3 C30_3 1_555 1_555
C29_3 C30_3 1_555 1_555
C31_3 H17_3 1_555 1_555
C34_3 C29_3 1_555 1_555
H18_3 C34_3 1_555 1_555
H19_3 C35_3 1_555 1_555
C36_3 C29_3 1_555 1_555
H20_3 C36_3 1_555 1_555
C49_3 C51_3 1_555 1_555
C51_3 H30_3 1_555 1_555
C53_3 C49_3 1_555 1_555
H32_3 C53_3 1_555 1_555
N13_3 C54_3 1_555 1_555
C54_3 N5_3 1_555 1_555
N14_3 C56_3 1_555 1_555
C55_3 C57_3 1_555 1_555
C56_3 H33_3 1_555 1_555
C57_3 H34_3 1_555 1_555
C58_3 N14_3 1_555 1_555
H35_3 C58_3 1_555 1_555
C59_3 C55_3 1_555 1_555
H36_3 C59_3 1_555 1_555
N15_3 C20_3 1_555 1_555
C60_3 N13_3 1_555 1_555
Co6 O10_3 1_555 1_555
Co9_2 N14_3 1_555 1_555
Co12_2 O9_3 1_555 1_555
C31_3 C36_3 1_555 1_555
C34_3 C35_3 1_555 1_555
C49_3 C54_3 1_555 1_555
C55_3 C60_3 1_555 1_555
C56_3 C59_3 1_555 1_555
C57_3 C58_3 1_555 1_555
N15_3 C60_3 1_555 1_555
N10_3 C45_3 1_555 1_555
C45_3 H25_3 1_555 1_555
C46_3 C43_3 1_555 1_555
H26_3 C46_3 1_555 1_555
C47_3 C43_3 1_555 1_555
H27_3 C47_3 1_555 1_555
C48_3 N10_3 1_555 1_555
H28_3 C48_3 1_555 1_555
Co10 N10_3 1_555 1_555
C45_3 C46_3 1_555 1_555
C47_3 C48_3 1_555 1_555
N12_3 C50_3 1_555 1_555
C50_3 H29_3 1_555 1_555
C52_3 N12_3 1_555 1_555
H31_3 C52_3 1_555 1_555
Co11 N12_3 1_555 1_555
Co5 F1_2 1_555 1_555
Co7 F1_2 1_555 1_555
S1_2 O3_2 1_555 1_555
F1_2 Co9_2 1_555 1_555
O1_2 Co7 1_555 1_555
O2_2 Co5 1_555 1_555
O3_2 Co7 1_555 1_555
C1_4 C2_4 1_555 1_555
C2_4 O1_2 1_555 1_555
C3_4 H1_4 1_555 1_555
C9_4 C1_4 1_555 1_555
H3_4 C9_4 1_555 1_555
H4_4 C10_4 1_555 1_555
C11_4 C1_4 1_555 1_555
H5_4 C11_4 1_555 1_555
O4_2 S1_2 1_555 1_555
O5_2 S1_2 1_555 1_555
O6_2 S1_2 1_555 1_555
Co9_2 O5_2 1_555 1_555
F2_2 Co5 1_555 1_555
Co10 O6_2 1_555 1_555
F3_2 Co5 1_555 1_555
N16_2 Co9_2 1_555 1_555
N19_2 Co10 1_555 1_555
Co7 F3_2 1_555 1_555
O2_2 C2_4 1_555 1_555
C3_4 C11_4 1_555 1_555
C9_4 C10_4 1_555 1_555
Co9_2 F2_2 1_555 1_555
F2_2 Co10 1_555 1_555
Co10 F3_2 1_555 1_555
O9_4 C30_4 1_555 1_555
O10_4 C30_4 1_555 1_555
C29_4 C30_4 1_555 1_555
C31_4 H17_4 1_555 1_555
C34_4 C29_4 1_555 1_555
H18_4 C34_4 1_555 1_555
H19_4 C35_4 1_555 1_555
C36_4 C29_4 1_555 1_555
H20_4 C36_4 1_555 1_555
Co5_2 O10_4 1_555 1_555
Co7_2 O9_4 1_555 1_555
C31_4 C36_4 1_555 1_555
C34_4 C35_4 1_555 1_555
O7_4 C22_4 1_555 1_555
O8_4 C22_4 1_555 1_555
C21_4 C22_4 1_555 1_555
C23_4 H13_4 1_555 1_555
C26_4 C21_4 1_555 1_555
H14_4 C26_4 1_555 1_555
H15_4 C27_4 1_555 1_555
C28_4 C21_4 1_555 1_555
H16_4 C28_4 1_555 1_555
Co6 O8_4 1_555 1_555
Co11 O7_4 1_555 1_555
C23_4 C28_4 1_555 1_555
C26_4 C27_4 1_555 1_555
N2_4 C7_4 1_555 1_555
C7_4 C4_4 1_555 1_555
N6_4 C7_4 1_555 1_555
C25_4 N6_4 1_555 1_555
N7_4 C25_4 1_555 1_555
C33_4 N2_4 1_555 1_555
C24_4 C25_4 1_555 1_555
N7_4 C33_4 1_555 1_555
C32_4 C33_4 1_555 1_555
Co5_2 F1_3 1_555 1_555
Co8 F1_3 1_555 1_555
S1_3 O3_3 1_555 1_555
F1_3 Co12 1_555 1_555
O3_3 Co8 1_555 1_555
N1_2 Co8 1_555 1_555
N3_4 C6_4 1_555 1_555
C5_4 C6_4 1_555 1_555
C6_4 N9_4 1_555 1_555
C8_4 N1_2 1_555 1_555
H2_4 C8_4 1_555 1_555
C12_4 C5_4 1_555 1_555
H6_4 C12_4 1_555 1_555
C13_4 C5_4 1_555 1_555
H7_4 C13_4 1_555 1_555
C14_4 N1_2 1_555 1_555
H8_4 C14_4 1_555 1_555
O4_3 S1_3 1_555 1_555
O5_3 S1_3 1_555 1_555
O6_3 S1_3 1_555 1_555
N8_4 C39_4 1_555 1_555
N9_4 C38_4 1_555 1_555
C37_4 C38_4 1_555 1_555
C38_4 N11_4 1_555 1_555
C39_4 H21_4 1_555 1_555
C40_4 C37_4 1_555 1_555
H22_4 C40_4 1_555 1_555
C41_4 C37_4 1_555 1_555
H23_4 C41_4 1_555 1_555
C42_4 N8_4 1_555 1_555
H24_4 C42_4 1_555 1_555
N16_2 C45_4 1_555 1_555
N11_4 C44_4 1_555 1_555
C43_4 C44_4 1_555 1_555
C44_4 N3_4 1_555 1_555
C45_4 H25_4 1_555 1_555
C46_4 C43_4 1_555 1_555
H26_4 C46_4 1_555 1_555
C47_4 C43_4 1_555 1_555
H27_4 C47_4 1_555 1_555
C48_4 N16_2 1_555 1_555
H28_4 C48_4 1_555 1_555
Co12 O5_3 1_555 1_555
F2_3 Co5_2 1_555 1_555
Co7_2 O6_3 1_555 1_555
F3_3 Co5_2 1_555 1_555
Co9 N8_4 1_555 1_555
N18_2 Co12 1_555 1_555
Co8 F3_3 1_555 1_555
C8_4 C12_4 1_555 1_555
C13_4 C14_4 1_555 1_555
C39_4 C40_4 1_555 1_555
C41_4 C42_4 1_555 1_555
C45_4 C46_4 1_555 1_555
C47_4 C48_4 1_555 1_555
Co12 F2_3 1_555 1_555
F2_3 Co7_2 1_555 1_555
Co7_2 F3_3 1_555 1_555
Co6 F1_4 1_555 1_555
Co9 F1_4 1_555 1_555
S1_4 O3_4 1_555 1_555
F1_4 Co12_2 1_555 1_555
O3_4 Co9 1_555 1_555
O4_4 S1_4 1_555 1_555
O5_4 S1_4 1_555 1_555
O6_4 S1_4 1_555 1_555
Co12_2 O5_4 1_555 1_555
F2_4 Co6 1_555 1_555
Co11 O6_4 1_555 1_555
F3_4 Co6 1_555 1_555
N18_3 Co12_2 1_555 1_555
Co9 F3_4 1_555 1_555
Co12_2 F2_4 1_555 1_555
F2_4 Co11 1_555 1_555
Co11 F3_4 1_555 1_555
C15_4 C17_4 1_555 1_555
C16_4 N19_2 1_555 1_555
H9_4 C16_4 1_555 1_555
C17_4 H10_4 1_555 1_555
C18_4 N19_2 1_555 1_555
H11_4 C18_4 1_555 1_555
C19_4 C15_4 1_555 1_555
H12_4 C19_4 1_555 1_555
N5_4 C20_4 1_555 1_555
C20_4 C15_4 1_555 1_555
N18_3 C50_4 1_555 1_555
C49_4 C51_4 1_555 1_555
C50_4 H29_4 1_555 1_555
C51_4 H30_4 1_555 1_555
C52_4 N18_3 1_555 1_555
H31_4 C52_4 1_555 1_555
C53_4 C49_4 1_555 1_555
H32_4 C53_4 1_555 1_555
N13_4 C54_4 1_555 1_555
C54_4 N5_4 1_555 1_555
N18_2 C56_4 1_555 1_555
C55_4 C57_4 1_555 1_555
C56_4 H33_4 1_555 1_555
C57_4 H34_4 1_555 1_555
C58_4 N18_2 1_555 1_555
H35_4 C58_4 1_555 1_555
C59_4 C55_4 1_555 1_555
H36_4 C59_4 1_555 1_555
N15_4 C20_4 1_555 1_555
C60_4 N13_4 1_555 1_555
C16_4 C19_4 1_555 1_555
C17_4 C18_4 1_555 1_555
C49_4 C54_4 1_555 1_555
C50_4 C53_4 1_555 1_555
C51_4 C52_4 1_555 1_555
C55_4 C60_4 1_555 1_555
C56_4 C59_4 1_555 1_555
C57_4 C58_4 1_555 1_555
N15_4 C60_4 1_555 1_555

#END
