
###############################################################################
#
# This file contains modified crystal structure data generated from the
# MOF subset of the Cambridge Structural Database (CSD) v543 
# hosted by the Cambridge Crystallographic Data Centre (CCDC).
#
# This work is licensed under the Creative Commons
# Attribution-NonCommercial-ShareAlike 4.0 International License.
# To view a copy of this license, visit
# http://creativecommons.org/licenses/by-nc-sa/4.0/
# or send a letter to
# Creative Commons, PO Box 1866, Mountain View, CA 94042, USA.
#
# CIF created using the CSD Python API on 29 September 2022
# The structure has been converted into the P1 space group
# The structure has a 3D framework
# The original CSD entry AWAGOV is in the tetragonal crystal system
# The framework has been calculated to contain at least 10.0% void space
# The void calculation uses a probe of radius 1.32A, grid spacing 0.4
# The framework is charged, counterions have been retained in the structure
#
###############################################################################

data_AWAGOV
_chemical_formula_moiety         '(C248 H200 Cl16 N56 Ni8 O24 4-)n'
_symmetry_cell_setting           triclinic
_symmetry_space_group_name_H-M   'P 1'
_symmetry_Int_Tables_number      1
_space_group_name_Hall           'P 1'
loop_
_symmetry_equiv_pos_site_id
_symmetry_equiv_pos_as_xyz
1 x,y,z
_cell_length_a                   22.4660(1)
_cell_length_b                   22.4660(1)
_cell_length_c                   13.3870(1)
_cell_angle_alpha                90
_cell_angle_beta                 90
_cell_angle_gamma                90
_cell_volume                     6756.7
loop_
_atom_site_label
_atom_site_type_symbol
_atom_site_fract_x
_atom_site_fract_y
_atom_site_fract_z
C1 C 0.08444(15) 0.36697(16) 0.2658(2)
C2 C 0.09641(17) 0.42715(16) 0.2628(2)
H1 H 0.0754 0.4514 0.2190
C3 C 0.13938(17) 0.45192(16) 0.3245(2)
H2 H 0.1469 0.4926 0.3227
C4 C 0.17094(14) 0.41535(15) 0.3889(2)
C5 C 0.16136(16) 0.35497(16) 0.3883(3)
H3 H 0.1843 0.3303 0.4287
C6 C 0.11823(16) 0.33108(17) 0.3284(3)
H4 H 0.1114 0.2903 0.3295
C7 C 0.23118(16) 0.41719(16) 0.5439(2)
H5 H 0.2170 0.3813 0.5691
C8 C 0.2789(2) 0.49827(19) 0.5277(3)
H6 H 0.3044 0.5299 0.5406
C9 C 0.2442(2) 0.49292(19) 0.4455(3)
H7 H 0.2420 0.5194 0.3922
C19 C 0.00824(16) 0.24665(18) 0.1337(3)
C20 C 0.02000(15) 0.19652(17) 0.0754(3)
C21 C 0.07554(14) 0.19002(14) 0.0328(2)
C22 C 0.11893(15) 0.23155(16) 0.0501(3)
H17 H 0.1569 0.2260 0.0239
C23 C 0.10676(16) 0.28179(15) 0.1065(3)
H18 H 0.1360 0.3105 0.1160
C24 C 0.05072(14) 0.28935(14) 0.1489(2)
H20 H 0.0289 0.0738 0.0088
N1 N 0.03897(13) 0.34148(14) 0.2050(2)
N2 N 0.21306(13) 0.44093(13) 0.4564(2)
N3 N 0.27074(12) 0.44992(13) 0.5894(2)
Ni4 Ni 0.31727(2) 0.43420(2) 0.72406(4)
C41 C 0.04134(17) 0.6002(2) 0.7234(3)
H33 H 0.0210 0.5991 0.6629
C42 C 0.09632(18) 0.5730(2) 0.7319(3)
H34 H 0.1126 0.5535 0.6771
C43 C 0.12715(15) 0.57444(16) 0.8208(3)
C44 C 0.10286(17) 0.60330(19) 0.9030(3)
H35 H 0.1237 0.6053 0.9629
C45 C 0.04710(17) 0.62909(18) 0.8943(3)
H36 H 0.0298 0.6469 0.9499
C46 C 0.01663(15) 0.62887(16) 0.8042(3)
C47 C 0.23346(17) 0.57287(19) 0.8746(3)
H37 H 0.2344 0.6077 0.9122
C48 C 0.27908(17) 0.53647(19) 0.8554(3)
H38 H 0.3180 0.5425 0.8768
C49 C 0.20353(15) 0.49785(16) 0.7841(3)
H39 H 0.1790 0.4725 0.7476
H40 H 0.0291 0.7489 0.8372
H41 H 0.0092 0.8322 0.9346
N13 N 0.18502(13) 0.54862(14) 0.8280(2)
N14 N 0.26015(12) 0.48874(13) 0.7992(2)
C10 C 0.95866(17) 0.3998(2) 0.2766(3)
H8 H 0.9790 0.4009 0.3371
C11 C 0.90368(18) 0.4270(2) 0.2681(3)
H9 H 0.8874 0.4465 0.3229
C12 C 0.87285(15) 0.42556(16) 0.1792(3)
C13 C 0.89714(17) 0.39670(19) 0.0970(3)
H10 H 0.8763 0.3947 0.0371
C14 C 0.95290(17) 0.37091(18) 0.1057(3)
H11 H 0.9702 0.3531 0.0501
C15 C 0.98337(15) 0.37113(16) 0.1958(3)
C16 C 0.76654(17) 0.42713(19) 0.1254(3)
H12 H 0.7656 0.3923 0.0878
C17 C 0.72092(17) 0.46353(19) 0.1446(3)
H13 H 0.6820 0.4575 0.1232
C18 C 0.79647(15) 0.50215(16) 0.2159(3)
H14 H 0.8210 0.5275 0.2524
H15 H 0.9709 0.2511 0.1628
H16 H 0.9908 0.1678 0.0654
N4 N 0.81498(13) 0.45138(14) 0.1720(2)
N5 N 0.73985(12) 0.51126(13) 0.2008(2)
Ni6 Ni 0.68273(2) 0.56580(2) 0.27594(4)
C32 C 0.91556(15) 0.63303(16) 0.7342(2)
C33 C 0.90359(17) 0.57285(16) 0.7372(2)
H26 H 0.9246 0.5486 0.7810
C34 C 0.86062(17) 0.54808(16) 0.6755(2)
H27 H 0.8531 0.5074 0.6773
C35 C 0.82906(14) 0.58465(15) 0.6111(2)
C36 C 0.83864(16) 0.64503(16) 0.6117(3)
H28 H 0.8157 0.6697 0.5713
C37 C 0.88177(16) 0.66892(17) 0.6716(3)
H29 H 0.8886 0.7097 0.6705
C38 C 0.76882(16) 0.58281(16) 0.4561(2)
H30 H 0.7830 0.6187 0.4309
C39 C 0.7211(2) 0.50173(19) 0.4723(3)
H31 H 0.6956 0.4701 0.4594
C40 C 0.7558(2) 0.50708(19) 0.5545(3)
H32 H 0.7580 0.4806 0.6078
C50 C 0.99176(16) 0.75335(18) 0.8663(3)
C51 C 0.98000(15) 0.80348(17) 0.9246(3)
C52 C 0.92446(14) 0.80998(14) 0.9672(2)
C53 C 0.88107(15) 0.76845(16) 0.9499(3)
H42 H 0.8431 0.7740 0.9761
C54 C 0.89324(16) 0.71821(15) 0.8935(3)
H43 H 0.8640 0.6895 0.8840
C55 C 0.94928(14) 0.71065(14) 0.8511(2)
H45 H 0.9711 0.9262 0.9912
N8 N 0.96103(13) 0.65852(14) 0.7950(2)
N9 N 0.78694(13) 0.55907(13) 0.5436(2)
N10 N 0.72926(12) 0.55008(13) 0.4106(2)
C25 C 0.36993(15) 0.36167(16) 0.8978(3)
H19 H 0.3446 0.3301 0.8834
C26 C 0.43990(17) 0.41389(17) 0.9681(3)
C27 C 0.41289(17) 0.44616(17) 0.8940(3)
H21 H 0.4228 0.4849 0.8761
C28 C 0.40688(14) 0.46017(14) 0.6307(2)
C29 C 0.45524(14) 0.48074(14) 0.5645(2)
C30 C 0.46284(15) 0.54126(16) 0.5457(2)
H22 H 0.4380 0.5690 0.5761
C31 C 0.49248(15) 0.43987(15) 0.5184(2)
H23 H 0.4874 0.3994 0.5306
N6 N 0.41188(12) 0.36023(12) 0.96998(19)
N7 N 0.36913(12) 0.41278(12) 0.8503(2)
O1 O 0.39268(10) 0.40616(11) 0.63410(17)
O2 O 0.37869(10) 0.49842(10) 0.68279(17)
O3 O 0.26867(12) 0.35518(12) 0.73462(19)
H24 H 0.254(4) 0.331(3) 0.778(4)
H25 H 0.260(4) 0.336(3) 0.679(3)
C56 C 0.63007(15) 0.63833(16) 0.1022(3)
H44 H 0.6554 0.6699 0.1166
C57 C 0.56010(17) 0.58611(17) 0.0319(3)
C58 C 0.58711(17) 0.55384(17) 0.1060(3)
H46 H 0.5772 0.5151 0.1239
C59 C 0.59312(14) 0.53983(14) 0.3693(2)
C60 C 0.54476(14) 0.51926(14) 0.4355(2)
C61 C 0.53716(15) 0.45874(16) 0.4543(2)
H47 H 0.5620 0.4310 0.4239
C62 C 0.50752(15) 0.56013(15) 0.4816(2)
H48 H 0.5126 0.6006 0.4694
N17 N 0.58812(12) 0.63977(12) 0.03002(19)
N18 N 0.63087(12) 0.58722(12) 0.1497(2)
O4 O 0.60732(10) 0.59384(11) 0.36590(17)
O5 O 0.62131(10) 0.50158(10) 0.31721(17)
O6 O 0.73133(12) 0.64482(12) 0.26538(19)
H49 H 0.746(4) 0.669(3) 0.222(4)
H50 H 0.740(4) 0.664(3) 0.321(3)
Ni1 Ni 0.18273(2) 0.06580(2) 0.72406(4)
C25_2 C 0.13007(15) 0.13833(16) 0.8978(3)
H19_2 H 0.1554 0.1699 0.8834
C26_2 C 0.06010(17) 0.08611(17) 0.9681(3)
C27_2 C 0.08711(17) 0.05384(17) 0.8940(3)
H21_2 H 0.0772 0.0151 0.8761
C28_2 C 0.09312(14) 0.03983(14) 0.6307(2)
C29_2 C 0.04476(14) 0.01926(14) 0.5645(2)
C31_2 C 0.00752(15) 0.06013(15) 0.5184(2)
H23_2 H 0.0126 0.1006 0.5306
N6_2 N 0.08812(12) 0.13977(12) 0.96998(19)
N7_2 N 0.13087(12) 0.08722(12) 0.8503(2)
O1_2 O 0.10732(10) 0.09384(11) 0.63410(17)
O2_2 O 0.12131(10) 0.00158(10) 0.68279(17)
O3_2 O 0.23133(12) 0.14482(12) 0.73462(19)
H24_2 H 0.246(4) 0.169(3) 0.778(4)
H25_2 H 0.240(4) 0.164(3) 0.679(3)
N11 N 0.22926(12) 0.05008(13) 0.5894(2)
N16 N 0.23985(12) 0.01126(13) 0.7992(2)
H31_2 H 0.8044 0.0299 0.4594
H32_2 H 0.7420 0.0194 0.6078
C49_2 C 0.29647(15) 0.00215(16) 0.7841(3)
H39_2 H 0.3210 0.0275 0.7476
C1_2 C 0.41556(15) 0.13303(16) 0.2658(2)
C2_2 C 0.40359(17) 0.07285(16) 0.2628(2)
H1_2 H 0.4246 0.0486 0.2190
C3_2 C 0.36062(17) 0.04808(16) 0.3245(2)
H2_2 H 0.3531 0.0074 0.3227
C4_2 C 0.32906(14) 0.08465(15) 0.3889(2)
C5_2 C 0.33864(16) 0.14503(16) 0.3883(3)
H3_2 H 0.3157 0.1697 0.4287
C6_2 C 0.38177(16) 0.16892(17) 0.3284(3)
H4_2 H 0.3886 0.2097 0.3295
C7_2 C 0.26882(16) 0.08281(16) 0.5439(2)
H5_2 H 0.2830 0.1187 0.5691
C8_2 C 0.2211(2) 0.00173(19) 0.5277(3)
C9_2 C 0.2558(2) 0.00708(19) 0.4455(3)
C10_2 C 0.54134(17) 0.1002(2) 0.2766(3)
H8_2 H 0.5210 0.0991 0.3371
C11_2 C 0.59632(18) 0.0730(2) 0.2681(3)
H9_2 H 0.6126 0.0535 0.3229
C12_2 C 0.62715(15) 0.07444(16) 0.1792(3)
C13_2 C 0.60286(17) 0.10330(19) 0.0970(3)
H10_2 H 0.6237 0.1053 0.0371
C14_2 C 0.54710(17) 0.12909(18) 0.1057(3)
H11_2 H 0.5298 0.1469 0.0501
C15_2 C 0.51663(15) 0.12887(16) 0.1958(3)
C16_2 C 0.73346(17) 0.07287(19) 0.1254(3)
H12_2 H 0.7344 0.1077 0.0878
C17_2 C 0.77908(17) 0.03647(19) 0.1446(3)
H13_2 H 0.8180 0.0425 0.1232
C19_2 C 0.49176(16) 0.25335(18) 0.1337(3)
H15_2 H 0.5291 0.2489 0.1628
C20_2 C 0.48000(15) 0.30348(17) 0.0754(3)
H16_2 H 0.5092 0.3322 0.0654
C21_2 C 0.42446(14) 0.30998(14) 0.0328(2)
C22_2 C 0.38107(15) 0.26845(16) 0.0501(3)
H17_2 H 0.3431 0.2740 0.0239
C23_2 C 0.39324(16) 0.21821(15) 0.1065(3)
H18_2 H 0.3640 0.1895 0.1160
C24_2 C 0.44928(14) 0.21065(14) 0.1489(2)
H20_2 H 0.4711 0.4262 0.0088
N1_2 N 0.46103(13) 0.15852(14) 0.2050(2)
N2_2 N 0.28694(13) 0.05907(13) 0.4564(2)
N4_2 N 0.68502(13) 0.04862(14) 0.1720(2)
C30_2 C 0.03716(15) 0.95874(16) 0.5457(2)
H22_2 H 0.0620 0.9310 0.5761
C61_2 C 0.96284(15) 0.04126(16) 0.4543(2)
H47_2 H 0.9380 0.0690 0.4239
Ni2 Ni 0.81727(2) 0.93420(2) 0.27594(4)
C56_2 C 0.86993(15) 0.86167(16) 0.1022(3)
H44_2 H 0.8446 0.8301 0.1166
C57_2 C 0.93990(17) 0.91389(17) 0.0319(3)
C58_2 C 0.91289(17) 0.94616(17) 0.1060(3)
H46_2 H 0.9228 0.9849 0.1239
C59_2 C 0.90688(14) 0.96017(14) 0.3693(2)
C60_2 C 0.95524(14) 0.98074(14) 0.4355(2)
C62_2 C 0.99248(15) 0.93987(15) 0.4816(2)
H48_2 H 0.9874 0.8994 0.4694
N12 N 0.77074(12) 0.94992(13) 0.4106(2)
N15 N 0.76015(12) 0.98874(13) 0.2008(2)
N17_2 N 0.91188(12) 0.86023(12) 0.03002(19)
N18_2 N 0.86913(12) 0.91278(12) 0.1497(2)
O4_2 O 0.89268(10) 0.90616(11) 0.36590(17)
O5_2 O 0.87869(10) 0.99842(10) 0.31721(17)
O6_2 O 0.76867(12) 0.85518(12) 0.26538(19)
H49_2 H 0.754(4) 0.831(3) 0.222(4)
H50_2 H 0.760(4) 0.836(3) 0.321(3)
C32_2 C 0.58444(15) 0.86697(16) 0.7342(2)
C33_2 C 0.59641(17) 0.92715(16) 0.7372(2)
H26_2 H 0.5754 0.9514 0.7810
C34_2 C 0.63938(17) 0.95192(16) 0.6755(2)
H27_2 H 0.6469 0.9926 0.6773
C35_2 C 0.67094(14) 0.91535(15) 0.6111(2)
C36_2 C 0.66136(16) 0.85497(16) 0.6117(3)
H28_2 H 0.6843 0.8303 0.5713
C37_2 C 0.61823(16) 0.83108(17) 0.6716(3)
H29_2 H 0.6114 0.7903 0.6705
C38_2 C 0.73118(16) 0.91719(16) 0.4561(2)
H30_2 H 0.7170 0.8813 0.4309
C39_2 C 0.7789(2) 0.99827(19) 0.4723(3)
C40_2 C 0.7442(2) 0.99292(19) 0.5545(3)
C41_2 C 0.45866(17) 0.8998(2) 0.7234(3)
H33_2 H 0.4790 0.9009 0.6629
C42_2 C 0.40368(18) 0.9270(2) 0.7319(3)
H34_2 H 0.3874 0.9465 0.6771
C43_2 C 0.37285(15) 0.92556(16) 0.8208(3)
C44_2 C 0.39714(17) 0.89670(19) 0.9030(3)
H35_2 H 0.3763 0.8947 0.9629
C45_2 C 0.45290(17) 0.87091(18) 0.8943(3)
H36_2 H 0.4702 0.8531 0.9499
C46_2 C 0.48337(15) 0.87113(16) 0.8042(3)
C47_2 C 0.26654(17) 0.92713(19) 0.8746(3)
H37_2 H 0.2656 0.8923 0.9122
C48_2 C 0.22092(17) 0.96353(19) 0.8554(3)
H38_2 H 0.1820 0.9575 0.8768
C50_2 C 0.50824(16) 0.74665(18) 0.8663(3)
H40_2 H 0.4709 0.7511 0.8372
C51_2 C 0.52000(15) 0.69652(17) 0.9246(3)
H41_2 H 0.4908 0.6678 0.9346
C52_2 C 0.57554(14) 0.69002(14) 0.9672(2)
C53_2 C 0.61893(15) 0.73155(16) 0.9499(3)
H42_2 H 0.6569 0.7260 0.9761
C54_2 C 0.60676(16) 0.78179(15) 0.8935(3)
H43_2 H 0.6360 0.8105 0.8840
C55_2 C 0.55072(14) 0.78935(14) 0.8511(2)
H45_2 H 0.5289 0.5738 0.9912
N8_2 N 0.53897(13) 0.84148(14) 0.7950(2)
N9_2 N 0.71306(13) 0.94093(13) 0.5436(2)
N13_2 N 0.31498(13) 0.95138(14) 0.8280(2)
H6_2 H 0.1956 0.9701 0.5406
H7_2 H 0.2580 0.9806 0.3922
C18_2 C 0.70353(15) 0.99785(16) 0.2159(3)
H14_2 H 0.6790 0.9725 0.2524
Ni3 Ni 0.06580(2) 0.31727(2) 0.72406(4)
C49_3 C 0.00215(16) 0.20353(15) 0.7841(3)
H39_3 H 0.0275 0.1790 0.7476
N14_2 N 0.01126(13) 0.26015(12) 0.7992(2)
C1_3 C 0.13303(16) 0.08444(15) 0.2658(2)
C2_3 C 0.07285(16) 0.09641(17) 0.2628(2)
H1_3 H 0.0486 0.0754 0.2190
C3_3 C 0.04808(16) 0.13938(17) 0.3245(2)
H2_3 H 0.0074 0.1469 0.3227
C4_3 C 0.08465(15) 0.17094(14) 0.3889(2)
C5_3 C 0.14503(16) 0.16136(16) 0.3883(3)
H3_3 H 0.1697 0.1843 0.4287
C6_3 C 0.16892(17) 0.11823(16) 0.3284(3)
H4_3 H 0.2097 0.1114 0.3295
C7_3 C 0.08281(16) 0.23118(16) 0.5439(2)
H5_3 H 0.1187 0.2170 0.5691
C8_3 C 0.00173(19) 0.2789(2) 0.5277(3)
C9_3 C 0.00708(19) 0.2442(2) 0.4455(3)
C19_3 C 0.25335(18) 0.00824(16) 0.1337(3)
C20_3 C 0.30348(17) 0.02000(15) 0.0754(3)
C21_3 C 0.30998(14) 0.07554(14) 0.0328(2)
C22_3 C 0.26845(16) 0.11893(15) 0.0501(3)
H17_3 H 0.2740 0.1569 0.0239
C23_3 C 0.21821(15) 0.10676(16) 0.1065(3)
H18_3 H 0.1895 0.1360 0.1160
C24_3 C 0.21065(14) 0.05072(14) 0.1489(2)
H20_3 H 0.4262 0.0289 0.0088
N1_3 N 0.15852(14) 0.03897(13) 0.2050(2)
N2_3 N 0.05907(13) 0.21306(13) 0.4564(2)
N3_2 N 0.05008(13) 0.27074(12) 0.5894(2)
C25_3 C 0.13833(16) 0.36993(15) 0.8978(3)
H19_3 H 0.1699 0.3446 0.8834
C26_3 C 0.08611(17) 0.43990(17) 0.9681(3)
C27_3 C 0.05384(17) 0.41289(17) 0.8940(3)
H21_3 H 0.0151 0.4228 0.8761
C28_3 C 0.03983(14) 0.40688(14) 0.6307(2)
C29_3 C 0.01926(14) 0.45524(14) 0.5645(2)
C31_3 C 0.06013(15) 0.49248(15) 0.5184(2)
H23_3 H 0.1006 0.4874 0.5306
N6_3 N 0.13977(12) 0.41188(12) 0.96998(19)
N7_3 N 0.08722(12) 0.36913(12) 0.8503(2)
O1_3 O 0.09384(11) 0.39268(10) 0.63410(17)
O2_3 O 0.00158(10) 0.37869(10) 0.68279(17)
O3_3 O 0.14482(12) 0.26867(12) 0.73462(19)
H24_3 H 0.169(3) 0.254(4) 0.778(4)
H25_3 H 0.164(3) 0.260(4) 0.679(3)
C61_3 C 0.04126(16) 0.53716(15) 0.4543(2)
H47_3 H 0.0690 0.5620 0.4239
H31_3 H 0.0299 0.6956 0.4594
H32_3 H 0.0194 0.7580 0.6078
Ni1_2 Ni 0.43420(2) 0.18273(2) 0.72406(4)
C25_4 C 0.36167(16) 0.13007(15) 0.8978(3)
H19_4 H 0.3301 0.1554 0.8834
C26_4 C 0.41389(17) 0.06010(17) 0.9681(3)
C27_4 C 0.44616(17) 0.08711(17) 0.8940(3)
H21_4 H 0.4849 0.0772 0.8761
C28_4 C 0.46017(14) 0.09312(14) 0.6307(2)
C29_4 C 0.48074(14) 0.04476(14) 0.5645(2)
C30_3 C 0.54126(16) 0.03716(15) 0.5457(2)
H22_3 H 0.5690 0.0620 0.5761
C31_4 C 0.43987(15) 0.00752(15) 0.5184(2)
H23_4 H 0.3994 0.0126 0.5306
N6_4 N 0.36023(12) 0.08812(12) 0.96998(19)
N7_4 N 0.41278(12) 0.13087(12) 0.8503(2)
O1_4 O 0.40616(11) 0.10732(10) 0.63410(17)
O2_4 O 0.49842(10) 0.12131(10) 0.68279(17)
O3_4 O 0.35518(12) 0.23133(12) 0.73462(19)
H24_4 H 0.331(3) 0.246(4) 0.778(4)
H25_4 H 0.336(3) 0.240(4) 0.679(3)
N11_2 N 0.44992(13) 0.22926(12) 0.5894(2)
N16_2 N 0.48874(13) 0.23985(12) 0.7992(2)
Ni2_2 Ni 0.56580(2) 0.81727(2) 0.27594(4)
C56_3 C 0.63833(16) 0.86993(15) 0.1022(3)
H44_3 H 0.6699 0.8446 0.1166
C57_3 C 0.58611(17) 0.93990(17) 0.0319(3)
C58_3 C 0.55384(17) 0.91289(17) 0.1060(3)
H46_3 H 0.5151 0.9228 0.1239
C59_3 C 0.53983(14) 0.90688(14) 0.3693(2)
C60_3 C 0.51926(14) 0.95524(14) 0.4355(2)
C61_4 C 0.45874(16) 0.96284(15) 0.4543(2)
H47_4 H 0.4310 0.9380 0.4239
C62_3 C 0.56013(15) 0.99248(15) 0.4816(2)
H48_3 H 0.6006 0.9874 0.4694
N12_2 N 0.55008(13) 0.77074(12) 0.4106(2)
N15_2 N 0.51126(13) 0.76015(12) 0.2008(2)
N17_3 N 0.63977(12) 0.91188(12) 0.03002(19)
N18_3 N 0.58722(12) 0.86913(12) 0.1497(2)
O4_3 O 0.59384(11) 0.89268(10) 0.36590(17)
O5_3 O 0.50158(10) 0.87869(10) 0.31721(17)
O6_3 O 0.64482(12) 0.76867(12) 0.26538(19)
H49_3 H 0.669(3) 0.754(4) 0.222(4)
H50_3 H 0.664(3) 0.760(4) 0.321(3)
C1_4 C 0.36697(16) 0.41556(15) 0.2658(2)
C2_4 C 0.42715(16) 0.40359(17) 0.2628(2)
H1_4 H 0.4514 0.4246 0.2190
C3_4 C 0.45192(16) 0.36062(17) 0.3245(2)
H2_4 H 0.4926 0.3531 0.3227
C4_4 C 0.41535(15) 0.32906(14) 0.3889(2)
C5_4 C 0.35497(16) 0.33864(16) 0.3883(3)
H3_4 H 0.3303 0.3157 0.4287
C6_4 C 0.33108(17) 0.38177(16) 0.3284(3)
H4_4 H 0.2903 0.3886 0.3295
C7_4 C 0.41719(16) 0.26882(16) 0.5439(2)
H5_4 H 0.3813 0.2830 0.5691
C8_4 C 0.49827(19) 0.2211(2) 0.5277(3)
H6_3 H 0.5299 0.1956 0.5406
C9_4 C 0.49292(19) 0.2558(2) 0.4455(3)
H7_3 H 0.5194 0.2580 0.3922
C10_3 C 0.3998(2) 0.54134(17) 0.2766(3)
H8_3 H 0.4009 0.5210 0.3371
C11_3 C 0.4270(2) 0.59632(18) 0.2681(3)
H9_3 H 0.4465 0.6126 0.3229
C12_3 C 0.42556(16) 0.62715(15) 0.1792(3)
C13_3 C 0.39670(19) 0.60286(17) 0.0970(3)
H10_3 H 0.3947 0.6237 0.0371
C14_3 C 0.37091(18) 0.54710(17) 0.1057(3)
H11_3 H 0.3531 0.5298 0.0501
C15_3 C 0.37113(16) 0.51663(15) 0.1958(3)
C16_3 C 0.42713(19) 0.73346(17) 0.1254(3)
H12_3 H 0.3923 0.7344 0.0878
C17_3 C 0.46353(19) 0.77908(17) 0.1446(3)
H13_3 H 0.4575 0.8180 0.1232
C18_3 C 0.50215(16) 0.70353(15) 0.2159(3)
H14_3 H 0.5275 0.6790 0.2524
C19_4 C 0.24665(18) 0.49176(16) 0.1337(3)
H15_3 H 0.2511 0.5291 0.1628
C20_4 C 0.19652(17) 0.48000(15) 0.0754(3)
H16_3 H 0.1678 0.5092 0.0654
C21_4 C 0.19002(14) 0.42446(14) 0.0328(2)
C22_4 C 0.23155(16) 0.38107(15) 0.0501(3)
H17_4 H 0.2260 0.3431 0.0239
C23_4 C 0.28179(15) 0.39324(16) 0.1065(3)
H18_4 H 0.3105 0.3640 0.1160
C24_4 C 0.28935(14) 0.44928(14) 0.1489(2)
H20_4 H 0.0738 0.4711 0.0088
N1_4 N 0.34148(14) 0.46103(13) 0.2050(2)
N2_4 N 0.44093(13) 0.28694(13) 0.4564(2)
N4_3 N 0.45138(14) 0.68502(13) 0.1720(2)
C32_3 C 0.63303(16) 0.58444(15) 0.7342(2)
C33_3 C 0.57285(16) 0.59641(17) 0.7372(2)
H26_3 H 0.5486 0.5754 0.7810
C34_3 C 0.54808(16) 0.63938(17) 0.6755(2)
H27_3 H 0.5074 0.6469 0.6773
C35_3 C 0.58465(15) 0.67094(14) 0.6111(2)
C36_3 C 0.64503(16) 0.66136(16) 0.6117(3)
H28_3 H 0.6697 0.6843 0.5713
C37_3 C 0.66892(17) 0.61823(16) 0.6716(3)
H29_3 H 0.7097 0.6114 0.6705
C38_3 C 0.58281(16) 0.73118(16) 0.4561(2)
H30_3 H 0.6187 0.7170 0.4309
C39_3 C 0.50173(19) 0.7789(2) 0.4723(3)
H31_4 H 0.4701 0.8044 0.4594
C40_3 C 0.50708(19) 0.7442(2) 0.5545(3)
H32_4 H 0.4806 0.7420 0.6078
C41_3 C 0.6002(2) 0.45866(17) 0.7234(3)
H33_3 H 0.5991 0.4790 0.6629
C42_3 C 0.5730(2) 0.40368(18) 0.7319(3)
H34_3 H 0.5535 0.3874 0.6771
C43_3 C 0.57444(16) 0.37285(15) 0.8208(3)
C44_3 C 0.60330(19) 0.39714(17) 0.9030(3)
H35_3 H 0.6053 0.3763 0.9629
C45_3 C 0.62909(18) 0.45290(17) 0.8943(3)
H36_3 H 0.6469 0.4702 0.9499
C46_3 C 0.62887(16) 0.48337(15) 0.8042(3)
C47_3 C 0.57287(19) 0.26654(17) 0.8746(3)
H37_3 H 0.6077 0.2656 0.9122
C48_3 C 0.53647(19) 0.22092(17) 0.8554(3)
H38_3 H 0.5425 0.1820 0.8768
C49_4 C 0.49785(16) 0.29647(15) 0.7841(3)
H39_4 H 0.4725 0.3210 0.7476
C50_3 C 0.75335(18) 0.50824(16) 0.8663(3)
H40_3 H 0.7489 0.4709 0.8372
C51_3 C 0.80348(17) 0.52000(15) 0.9246(3)
H41_3 H 0.8322 0.4908 0.9346
C52_3 C 0.80998(14) 0.57554(14) 0.9672(2)
C53_3 C 0.76845(16) 0.61893(15) 0.9499(3)
H42_3 H 0.7740 0.6569 0.9761
C54_3 C 0.71821(15) 0.60676(16) 0.8935(3)
H43_3 H 0.6895 0.6360 0.8840
C55_3 C 0.71065(14) 0.55072(14) 0.8511(2)
H45_3 H 0.9262 0.5289 0.9912
N8_3 N 0.65852(14) 0.53897(13) 0.7950(2)
N9_3 N 0.55907(13) 0.71306(13) 0.5436(2)
N13_3 N 0.54862(14) 0.31498(13) 0.8280(2)
C41_4 C 0.8998(2) 0.04134(17) 0.7234(3)
H33_4 H 0.9009 0.0210 0.6629
C42_4 C 0.9270(2) 0.09632(18) 0.7319(3)
H34_4 H 0.9465 0.1126 0.6771
C43_4 C 0.92556(16) 0.12715(15) 0.8208(3)
C44_4 C 0.89670(19) 0.10286(17) 0.9030(3)
H35_4 H 0.8947 0.1237 0.9629
C45_4 C 0.87091(18) 0.04710(17) 0.8943(3)
H36_4 H 0.8531 0.0298 0.9499
C46_4 C 0.87113(16) 0.01663(15) 0.8042(3)
C47_4 C 0.92713(19) 0.23346(17) 0.8746(3)
H37_4 H 0.8923 0.2344 0.9122
C48_4 C 0.96353(19) 0.27908(17) 0.8554(3)
H38_4 H 0.9575 0.3180 0.8768
H40_4 H 0.7511 0.0291 0.8372
H41_4 H 0.6678 0.0092 0.9346
N13_4 N 0.95138(14) 0.18502(13) 0.8280(2)
C10_4 C 0.1002(2) 0.95866(17) 0.2766(3)
H8_4 H 0.0991 0.9790 0.3371
C11_4 C 0.0730(2) 0.90368(18) 0.2681(3)
H9_4 H 0.0535 0.8874 0.3229
C12_4 C 0.07444(16) 0.87285(15) 0.1792(3)
C13_4 C 0.10330(19) 0.89714(17) 0.0970(3)
H10_4 H 0.1053 0.8763 0.0371
C14_4 C 0.12909(18) 0.95290(17) 0.1057(3)
H11_4 H 0.1469 0.9702 0.0501
C15_4 C 0.12887(16) 0.98337(15) 0.1958(3)
C16_4 C 0.07287(19) 0.76654(17) 0.1254(3)
H12_4 H 0.1077 0.7656 0.0878
C17_4 C 0.03647(19) 0.72092(17) 0.1446(3)
H13_4 H 0.0425 0.6820 0.1232
H15_4 H 0.2489 0.9709 0.1628
H16_4 H 0.3322 0.9908 0.0654
N4_4 N 0.04862(14) 0.81498(13) 0.1720(2)
Ni5 Ni 0.93420(2) 0.68273(2) 0.27594(4)
C32_4 C 0.86697(16) 0.91556(15) 0.7342(2)
C33_4 C 0.92715(16) 0.90359(17) 0.7372(2)
H26_4 H 0.9514 0.9246 0.7810
C34_4 C 0.95192(16) 0.86062(17) 0.6755(2)
H27_4 H 0.9926 0.8531 0.6773
C35_4 C 0.91535(15) 0.82906(14) 0.6111(2)
C36_4 C 0.85497(16) 0.83864(16) 0.6117(3)
H28_4 H 0.8303 0.8157 0.5713
C37_4 C 0.83108(17) 0.88177(16) 0.6716(3)
H29_4 H 0.7903 0.8886 0.6705
C38_4 C 0.91719(16) 0.76882(16) 0.4561(2)
H30_4 H 0.8813 0.7830 0.4309
C39_4 C 0.99827(19) 0.7211(2) 0.4723(3)
C40_4 C 0.99292(19) 0.7558(2) 0.5545(3)
C50_4 C 0.74665(18) 0.99176(16) 0.8663(3)
C51_4 C 0.69652(17) 0.98000(15) 0.9246(3)
C52_4 C 0.69002(14) 0.92446(14) 0.9672(2)
C53_4 C 0.73155(16) 0.88107(15) 0.9499(3)
H42_4 H 0.7260 0.8431 0.9761
C54_4 C 0.78179(15) 0.89324(16) 0.8935(3)
H43_4 H 0.8105 0.8640 0.8840
C55_4 C 0.78935(14) 0.94928(14) 0.8511(2)
H45_4 H 0.5738 0.9711 0.9912
N8_4 N 0.84148(14) 0.96103(13) 0.7950(2)
N9_4 N 0.94093(13) 0.78694(13) 0.5436(2)
N10_2 N 0.94992(13) 0.72926(12) 0.4106(2)
C18_4 C 0.99785(16) 0.79647(15) 0.2159(3)
H14_4 H 0.9725 0.8210 0.2524
N5_2 N 0.98874(13) 0.73985(12) 0.2008(2)
C30_4 C 0.95874(16) 0.46284(15) 0.5457(2)
H22_4 H 0.9310 0.4380 0.5761
C56_4 C 0.86167(16) 0.63007(15) 0.1022(3)
H44_4 H 0.8301 0.6554 0.1166
C57_4 C 0.91389(17) 0.56010(17) 0.0319(3)
C58_4 C 0.94616(17) 0.58711(17) 0.1060(3)
H46_4 H 0.9849 0.5772 0.1239
C59_4 C 0.96017(14) 0.59312(14) 0.3693(2)
C60_4 C 0.98074(14) 0.54476(14) 0.4355(2)
C62_4 C 0.93987(15) 0.50752(15) 0.4816(2)
H48_4 H 0.8994 0.5126 0.4694
N17_4 N 0.86023(12) 0.58812(12) 0.03002(19)
N18_4 N 0.91278(12) 0.63087(12) 0.1497(2)
O4_4 O 0.90616(11) 0.60732(10) 0.36590(17)
O5_4 O 0.99842(10) 0.62131(10) 0.31721(17)
O6_4 O 0.85518(12) 0.73133(12) 0.26538(19)
H49_4 H 0.831(3) 0.746(4) 0.222(4)
H50_4 H 0.836(3) 0.740(4) 0.321(3)
H6_4 H 0.9701 0.3044 0.5406
H7_4 H 0.9806 0.2420 0.3922
Cl1 Cl 0.2500 0.2500 0.88782(11)
Cl1_2 Cl 0.7500 0.7500 0.11218(11)
Cl2 Cl 0.7500 0.2500 0.0000
Cl2_2 Cl 0.7500 0.2500 1.0000
Cl2_3 Cl 0.2500 0.7500 0.0000
Cl2_4 Cl 0.2500 0.7500 1.0000
Cl3 Cl 0.2500 0.2500 0.57741(14)
Cl3_2 Cl 0.7500 0.7500 0.42259(14)
Cl4 Cl 0.7921(2) 0.3360(2) 0.8962(4)
Cl4_2 Cl 0.7079(2) 0.1640(2) 0.8962(4)
Cl4_3 Cl 0.1640(2) 0.7921(2) 0.8962(4)
Cl4_4 Cl 0.3360(2) 0.7079(2) 0.8962(4)
Cl4_5 Cl 0.2079(2) 0.6640(2) 0.1038(4)
Cl4_6 Cl 0.2921(2) 0.8360(2) 0.1038(4)
Cl4_7 Cl 0.8360(2) 0.2079(2) 0.1038(4)
Cl4_8 Cl 0.6640(2) 0.2921(2) 0.1038(4)
loop_
_geom_bond_atom_site_label_1
_geom_bond_atom_site_label_2
_geom_bond_site_symmetry_1
_geom_bond_site_symmetry_2
C1 C2 1_555 1_555
C2 H1 1_555 1_555
C3 C2 1_555 1_555
H2 C3 1_555 1_555
C4 C3 1_555 1_555
C5 C4 1_555 1_555
H3 C5 1_555 1_555
C6 C1 1_555 1_555
H4 C6 1_555 1_555
C7 H5 1_555 1_555
C8 H6 1_555 1_555
C9 C8 1_555 1_555
H7 C9 1_555 1_555
C20 C19 1_555 1_555
C21 C20 1_555 1_555
C22 C21 1_555 1_555
H17 C22 1_555 1_555
C23 C22 1_555 1_555
H18 C23 1_555 1_555
C24 C19 1_555 1_555
N1 C1 1_555 1_555
N2 C4 1_555 1_555
N3 C7 1_555 1_555
Ni4 N3 1_555 1_555
C5 C6 1_555 1_555
C7 N2 1_555 1_555
C8 N3 1_555 1_555
C9 N2 1_555 1_555
C23 C24 1_555 1_555
C24 N1 1_555 1_555
Ni4 N14 1_555 1_555
C41 H33 1_555 1_555
C42 C41 1_555 1_555
H34 C42 1_555 1_555
C43 C42 1_555 1_555
C44 C43 1_555 1_555
H35 C44 1_555 1_555
C45 C44 1_555 1_555
H36 C45 1_555 1_555
C46 C41 1_555 1_555
C47 H37 1_555 1_555
C48 C47 1_555 1_555
H38 C48 1_555 1_555
C49 H39 1_555 1_555
N13 C43 1_555 1_555
N14 C48 1_555 1_555
C45 C46 1_555 1_555
C47 N13 1_555 1_555
C49 N13 1_555 1_555
C49 N14 1_555 1_555
C10 H8 1_555 1_555
C11 C10 1_555 1_555
H9 C11 1_555 1_555
C12 C11 1_555 1_555
C13 C12 1_555 1_555
H10 C13 1_555 1_555
C14 C13 1_555 1_555
H11 C14 1_555 1_555
C15 C10 1_555 1_555
C16 H12 1_555 1_555
C17 C16 1_555 1_555
H13 C17 1_555 1_555
C18 H14 1_555 1_555
N4 C12 1_555 1_555
N5 C17 1_555 1_555
Ni6 N5 1_555 1_555
C14 C15 1_555 1_555
C16 N4 1_555 1_555
C18 N4 1_555 1_555
C18 N5 1_555 1_555
Ni6 N10 1_555 1_555
C32 C33 1_555 1_555
C33 H26 1_555 1_555
C34 C33 1_555 1_555
H27 C34 1_555 1_555
C35 C34 1_555 1_555
C36 C35 1_555 1_555
H28 C36 1_555 1_555
C37 C32 1_555 1_555
H29 C37 1_555 1_555
C38 H30 1_555 1_555
C39 H31 1_555 1_555
C40 C39 1_555 1_555
H32 C40 1_555 1_555
C51 C50 1_555 1_555
C52 C51 1_555 1_555
C53 C52 1_555 1_555
H42 C53 1_555 1_555
C54 C53 1_555 1_555
H43 C54 1_555 1_555
C55 C50 1_555 1_555
N8 C32 1_555 1_555
N9 C35 1_555 1_555
N10 C38 1_555 1_555
C36 C37 1_555 1_555
C38 N9 1_555 1_555
C39 N10 1_555 1_555
C40 N9 1_555 1_555
C54 C55 1_555 1_555
C55 N8 1_555 1_555
Ni4 N7 1_555 1_555
C25 H19 1_555 1_555
C27 C26 1_555 1_555
H21 C27 1_555 1_555
C28 C29 1_555 1_555
C29 C30 1_555 1_555
C30 H22 1_555 1_555
C31 C29 1_555 1_555
H23 C31 1_555 1_555
N7 C25 1_555 1_555
O1 Ni4 1_555 1_555
O2 Ni4 1_555 1_555
O3 Ni4 1_555 1_555
H24 O3 1_555 1_555
H25 O3 1_555 1_555
C56 H44 1_555 1_555
C58 C57 1_555 1_555
H46 C58 1_555 1_555
C59 C60 1_555 1_555
C60 C61 1_555 1_555
C61 C31 1_555 1_555
H47 C61 1_555 1_555
C62 C30 1_555 1_555
H48 C62 1_555 1_555
N18 Ni6 1_555 1_555
O4 Ni6 1_555 1_555
O5 Ni6 1_555 1_555
O6 Ni6 1_555 1_555
H49 O6 1_555 1_555
H50 O6 1_555 1_555
C25 N6 1_555 1_555
C26 N6 1_555 1_555
C27 N7 1_555 1_555
C28 O1 1_555 1_555
C28 O2 1_555 1_555
C56 N17 1_555 1_555
C56 N18 1_555 1_555
C57 N17 1_555 1_555
C58 N18 1_555 1_555
C59 O4 1_555 1_555
C59 O5 1_555 1_555
C60 C62 1_555 1_555
Ni1 N7_2 1_555 1_555
C25_2 H19_2 1_555 1_555
C27_2 C26_2 1_555 1_555
H21_2 C27_2 1_555 1_555
C28_2 C29_2 1_555 1_555
C31_2 C29_2 1_555 1_555
H23_2 C31_2 1_555 1_555
N7_2 C25_2 1_555 1_555
O1_2 Ni1 1_555 1_555
O2_2 Ni1 1_555 1_555
O3_2 Ni1 1_555 1_555
H24_2 O3_2 1_555 1_555
H25_2 O3_2 1_555 1_555
N11 Ni1 1_555 1_555
N16 Ni1 1_555 1_555
C25_2 N6_2 1_555 1_555
C26_2 N6_2 1_555 1_555
C27_2 N7_2 1_555 1_555
C28_2 O1_2 1_555 1_555
C28_2 O2_2 1_555 1_555
C49_2 H39_2 1_555 1_555
C49_2 N16 1_555 1_555
C1_2 C2_2 1_555 1_555
C2_2 H1_2 1_555 1_555
C3_2 C2_2 1_555 1_555
H2_2 C3_2 1_555 1_555
C4_2 C3_2 1_555 1_555
C5_2 C4_2 1_555 1_555
H3_2 C5_2 1_555 1_555
C6_2 C1_2 1_555 1_555
H4_2 C6_2 1_555 1_555
C7_2 H5_2 1_555 1_555
C9_2 C8_2 1_555 1_555
C10_2 H8_2 1_555 1_555
C11_2 C10_2 1_555 1_555
H9_2 C11_2 1_555 1_555
C12_2 C11_2 1_555 1_555
C13_2 C12_2 1_555 1_555
H10_2 C13_2 1_555 1_555
C14_2 C13_2 1_555 1_555
H11_2 C14_2 1_555 1_555
C15_2 C10_2 1_555 1_555
C16_2 H12_2 1_555 1_555
C17_2 C16_2 1_555 1_555
H13_2 C17_2 1_555 1_555
C19_2 H15_2 1_555 1_555
C20_2 C19_2 1_555 1_555
H16_2 C20_2 1_555 1_555
C21_2 C20_2 1_555 1_555
C22_2 C21_2 1_555 1_555
H17_2 C22_2 1_555 1_555
C23_2 C22_2 1_555 1_555
H18_2 C23_2 1_555 1_555
C24_2 C19_2 1_555 1_555
N1_2 C1_2 1_555 1_555
N2_2 C4_2 1_555 1_555
N11 C7_2 1_555 1_555
N4_2 C12_2 1_555 1_555
C5_2 C6_2 1_555 1_555
C7_2 N2_2 1_555 1_555
C8_2 N11 1_555 1_555
C9_2 N2_2 1_555 1_555
C14_2 C15_2 1_555 1_555
C15_2 N1_2 1_555 1_555
C16_2 N4_2 1_555 1_555
C23_2 C24_2 1_555 1_555
C24_2 N1_2 1_555 1_555
C30_2 H22_2 1_555 1_555
H47_2 C61_2 1_555 1_555
Ni2 N12 1_555 1_555
C56_2 H44_2 1_555 1_555
C58_2 C57_2 1_555 1_555
H46_2 C58_2 1_555 1_555
C59_2 C60_2 1_555 1_555
H48_2 C62_2 1_555 1_555
N15 Ni2 1_555 1_555
N18_2 Ni2 1_555 1_555
O4_2 Ni2 1_555 1_555
O5_2 Ni2 1_555 1_555
O6_2 Ni2 1_555 1_555
H49_2 O6_2 1_555 1_555
H50_2 O6_2 1_555 1_555
C56_2 N17_2 1_555 1_555
C56_2 N18_2 1_555 1_555
C57_2 N17_2 1_555 1_555
C58_2 N18_2 1_555 1_555
C59_2 O4_2 1_555 1_555
C59_2 O5_2 1_555 1_555
C60_2 C62_2 1_555 1_555
C32_2 C33_2 1_555 1_555
C33_2 H26_2 1_555 1_555
C34_2 C33_2 1_555 1_555
H27_2 C34_2 1_555 1_555
C35_2 C34_2 1_555 1_555
C36_2 C35_2 1_555 1_555
H28_2 C36_2 1_555 1_555
C37_2 C32_2 1_555 1_555
H29_2 C37_2 1_555 1_555
C38_2 H30_2 1_555 1_555
C40_2 C39_2 1_555 1_555
C41_2 H33_2 1_555 1_555
C42_2 C41_2 1_555 1_555
H34_2 C42_2 1_555 1_555
C43_2 C42_2 1_555 1_555
C44_2 C43_2 1_555 1_555
H35_2 C44_2 1_555 1_555
C45_2 C44_2 1_555 1_555
H36_2 C45_2 1_555 1_555
C46_2 C41_2 1_555 1_555
C47_2 H37_2 1_555 1_555
C48_2 C47_2 1_555 1_555
H38_2 C48_2 1_555 1_555
C50_2 H40_2 1_555 1_555
C51_2 C50_2 1_555 1_555
H41_2 C51_2 1_555 1_555
C52_2 C51_2 1_555 1_555
C53_2 C52_2 1_555 1_555
H42_2 C53_2 1_555 1_555
C54_2 C53_2 1_555 1_555
H43_2 C54_2 1_555 1_555
C55_2 C50_2 1_555 1_555
N8_2 C32_2 1_555 1_555
N9_2 C35_2 1_555 1_555
N12 C38_2 1_555 1_555
N13_2 C43_2 1_555 1_555
C36_2 C37_2 1_555 1_555
C38_2 N9_2 1_555 1_555
C39_2 N12 1_555 1_555
C40_2 N9_2 1_555 1_555
C45_2 C46_2 1_555 1_555
C46_2 N8_2 1_555 1_555
C47_2 N13_2 1_555 1_555
C54_2 C55_2 1_555 1_555
C55_2 N8_2 1_555 1_555
C18_2 H14_2 1_555 1_555
C18_2 N15 1_555 1_555
Ni3 N14_2 1_555 1_555
C49_3 H39_3 1_555 1_555
C49_3 N14_2 1_555 1_555
C1_3 C2_3 1_555 1_555
C2_3 H1_3 1_555 1_555
C3_3 C2_3 1_555 1_555
H2_3 C3_3 1_555 1_555
C4_3 C3_3 1_555 1_555
C5_3 C4_3 1_555 1_555
H3_3 C5_3 1_555 1_555
C6_3 C1_3 1_555 1_555
H4_3 C6_3 1_555 1_555
C7_3 H5_3 1_555 1_555
C9_3 C8_3 1_555 1_555
C20_3 C19_3 1_555 1_555
C21_3 C20_3 1_555 1_555
C22_3 C21_3 1_555 1_555
H17_3 C22_3 1_555 1_555
C23_3 C22_3 1_555 1_555
H18_3 C23_3 1_555 1_555
C24_3 C19_3 1_555 1_555
N1_3 C1_3 1_555 1_555
N2_3 C4_3 1_555 1_555
N3_2 C7_3 1_555 1_555
Ni3 N3_2 1_555 1_555
C5_3 C6_3 1_555 1_555
C7_3 N2_3 1_555 1_555
C8_3 N3_2 1_555 1_555
C9_3 N2_3 1_555 1_555
C23_3 C24_3 1_555 1_555
C24_3 N1_3 1_555 1_555
Ni3 N7_3 1_555 1_555
C25_3 H19_3 1_555 1_555
C27_3 C26_3 1_555 1_555
H21_3 C27_3 1_555 1_555
C28_3 C29_3 1_555 1_555
C31_3 C29_3 1_555 1_555
H23_3 C31_3 1_555 1_555
N7_3 C25_3 1_555 1_555
O1_3 Ni3 1_555 1_555
O2_3 Ni3 1_555 1_555
O3_3 Ni3 1_555 1_555
H24_3 O3_3 1_555 1_555
H25_3 O3_3 1_555 1_555
C61_3 C31_3 1_555 1_555
H47_3 C61_3 1_555 1_555
C25_3 N6_3 1_555 1_555
C26_3 N6_3 1_555 1_555
C27_3 N7_3 1_555 1_555
C28_3 O1_3 1_555 1_555
C28_3 O2_3 1_555 1_555
Ni1_2 N7_4 1_555 1_555
C25_4 H19_4 1_555 1_555
C27_4 C26_4 1_555 1_555
H21_4 C27_4 1_555 1_555
C28_4 C29_4 1_555 1_555
C29_4 C30_3 1_555 1_555
C30_3 H22_3 1_555 1_555
C31_4 C29_4 1_555 1_555
H23_4 C31_4 1_555 1_555
N7_4 C25_4 1_555 1_555
O1_4 Ni1_2 1_555 1_555
O2_4 Ni1_2 1_555 1_555
O3_4 Ni1_2 1_555 1_555
H24_4 O3_4 1_555 1_555
H25_4 O3_4 1_555 1_555
N11_2 Ni1_2 1_555 1_555
N16_2 Ni1_2 1_555 1_555
C25_4 N6_4 1_555 1_555
C26_4 N6_4 1_555 1_555
C27_4 N7_4 1_555 1_555
C28_4 O1_4 1_555 1_555
C28_4 O2_4 1_555 1_555
Ni2_2 N12_2 1_555 1_555
C56_3 H44_3 1_555 1_555
C58_3 C57_3 1_555 1_555
H46_3 C58_3 1_555 1_555
C59_3 C60_3 1_555 1_555
C60_3 C61_4 1_555 1_555
H47_4 C61_4 1_555 1_555
H48_3 C62_3 1_555 1_555
N15_2 Ni2_2 1_555 1_555
N18_3 Ni2_2 1_555 1_555
O4_3 Ni2_2 1_555 1_555
O5_3 Ni2_2 1_555 1_555
O6_3 Ni2_2 1_555 1_555
H49_3 O6_3 1_555 1_555
H50_3 O6_3 1_555 1_555
C56_3 N17_3 1_555 1_555
C56_3 N18_3 1_555 1_555
C57_3 N17_3 1_555 1_555
C58_3 N18_3 1_555 1_555
C59_3 O4_3 1_555 1_555
C59_3 O5_3 1_555 1_555
C60_3 C62_3 1_555 1_555
C1_4 C2_4 1_555 1_555
C2_4 H1_4 1_555 1_555
C3_4 C2_4 1_555 1_555
H2_4 C3_4 1_555 1_555
C4_4 C3_4 1_555 1_555
C5_4 C4_4 1_555 1_555
H3_4 C5_4 1_555 1_555
C6_4 C1_4 1_555 1_555
H4_4 C6_4 1_555 1_555
C7_4 H5_4 1_555 1_555
C8_4 H6_3 1_555 1_555
C9_4 C8_4 1_555 1_555
H7_3 C9_4 1_555 1_555
C10_3 H8_3 1_555 1_555
C11_3 C10_3 1_555 1_555
H9_3 C11_3 1_555 1_555
C12_3 C11_3 1_555 1_555
C13_3 C12_3 1_555 1_555
H10_3 C13_3 1_555 1_555
C14_3 C13_3 1_555 1_555
H11_3 C14_3 1_555 1_555
C15_3 C10_3 1_555 1_555
C16_3 H12_3 1_555 1_555
C17_3 C16_3 1_555 1_555
H13_3 C17_3 1_555 1_555
C18_3 H14_3 1_555 1_555
C19_4 H15_3 1_555 1_555
C20_4 C19_4 1_555 1_555
H16_3 C20_4 1_555 1_555
C21_4 C20_4 1_555 1_555
C22_4 C21_4 1_555 1_555
H17_4 C22_4 1_555 1_555
C23_4 C22_4 1_555 1_555
H18_4 C23_4 1_555 1_555
C24_4 C19_4 1_555 1_555
N1_4 C1_4 1_555 1_555
N2_4 C4_4 1_555 1_555
N11_2 C7_4 1_555 1_555
N4_3 C12_3 1_555 1_555
N15_2 C17_3 1_555 1_555
C5_4 C6_4 1_555 1_555
C7_4 N2_4 1_555 1_555
C8_4 N11_2 1_555 1_555
C9_4 N2_4 1_555 1_555
C14_3 C15_3 1_555 1_555
C15_3 N1_4 1_555 1_555
C16_3 N4_3 1_555 1_555
C18_3 N4_3 1_555 1_555
C18_3 N15_2 1_555 1_555
C23_4 C24_4 1_555 1_555
C24_4 N1_4 1_555 1_555
C32_3 C33_3 1_555 1_555
C33_3 H26_3 1_555 1_555
C34_3 C33_3 1_555 1_555
H27_3 C34_3 1_555 1_555
C35_3 C34_3 1_555 1_555
C36_3 C35_3 1_555 1_555
H28_3 C36_3 1_555 1_555
C37_3 C32_3 1_555 1_555
H29_3 C37_3 1_555 1_555
C38_3 H30_3 1_555 1_555
C39_3 H31_4 1_555 1_555
C40_3 C39_3 1_555 1_555
H32_4 C40_3 1_555 1_555
C41_3 H33_3 1_555 1_555
C42_3 C41_3 1_555 1_555
H34_3 C42_3 1_555 1_555
C43_3 C42_3 1_555 1_555
C44_3 C43_3 1_555 1_555
H35_3 C44_3 1_555 1_555
C45_3 C44_3 1_555 1_555
H36_3 C45_3 1_555 1_555
C46_3 C41_3 1_555 1_555
C47_3 H37_3 1_555 1_555
C48_3 C47_3 1_555 1_555
H38_3 C48_3 1_555 1_555
C49_4 H39_4 1_555 1_555
C50_3 H40_3 1_555 1_555
C51_3 C50_3 1_555 1_555
H41_3 C51_3 1_555 1_555
C52_3 C51_3 1_555 1_555
C53_3 C52_3 1_555 1_555
H42_3 C53_3 1_555 1_555
C54_3 C53_3 1_555 1_555
H43_3 C54_3 1_555 1_555
C55_3 C50_3 1_555 1_555
N8_3 C32_3 1_555 1_555
N9_3 C35_3 1_555 1_555
N12_2 C38_3 1_555 1_555
N13_3 C43_3 1_555 1_555
N16_2 C48_3 1_555 1_555
C36_3 C37_3 1_555 1_555
C38_3 N9_3 1_555 1_555
C39_3 N12_2 1_555 1_555
C40_3 N9_3 1_555 1_555
C45_3 C46_3 1_555 1_555
C46_3 N8_3 1_555 1_555
C47_3 N13_3 1_555 1_555
C49_4 N13_3 1_555 1_555
C49_4 N16_2 1_555 1_555
C54_3 C55_3 1_555 1_555
C55_3 N8_3 1_555 1_555
C41_4 H33_4 1_555 1_555
C42_4 C41_4 1_555 1_555
H34_4 C42_4 1_555 1_555
C43_4 C42_4 1_555 1_555
C44_4 C43_4 1_555 1_555
H35_4 C44_4 1_555 1_555
C45_4 C44_4 1_555 1_555
H36_4 C45_4 1_555 1_555
C46_4 C41_4 1_555 1_555
C47_4 H37_4 1_555 1_555
C48_4 C47_4 1_555 1_555
H38_4 C48_4 1_555 1_555
N13_4 C43_4 1_555 1_555
C45_4 C46_4 1_555 1_555
C47_4 N13_4 1_555 1_555
C10_4 H8_4 1_555 1_555
C11_4 C10_4 1_555 1_555
H9_4 C11_4 1_555 1_555
C12_4 C11_4 1_555 1_555
C13_4 C12_4 1_555 1_555
H10_4 C13_4 1_555 1_555
C14_4 C13_4 1_555 1_555
H11_4 C14_4 1_555 1_555
C15_4 C10_4 1_555 1_555
C16_4 H12_4 1_555 1_555
C17_4 C16_4 1_555 1_555
H13_4 C17_4 1_555 1_555
N4_4 C12_4 1_555 1_555
C14_4 C15_4 1_555 1_555
C16_4 N4_4 1_555 1_555
Ni5 N10_2 1_555 1_555
C32_4 C33_4 1_555 1_555
C33_4 H26_4 1_555 1_555
C34_4 C33_4 1_555 1_555
H27_4 C34_4 1_555 1_555
C35_4 C34_4 1_555 1_555
C36_4 C35_4 1_555 1_555
H28_4 C36_4 1_555 1_555
C37_4 C32_4 1_555 1_555
H29_4 C37_4 1_555 1_555
C38_4 H30_4 1_555 1_555
C40_4 C39_4 1_555 1_555
C51_4 C50_4 1_555 1_555
C52_4 C51_4 1_555 1_555
C53_4 C52_4 1_555 1_555
H42_4 C53_4 1_555 1_555
C54_4 C53_4 1_555 1_555
H43_4 C54_4 1_555 1_555
C55_4 C50_4 1_555 1_555
N8_4 C32_4 1_555 1_555
N9_4 C35_4 1_555 1_555
N10_2 C38_4 1_555 1_555
C36_4 C37_4 1_555 1_555
C38_4 N9_4 1_555 1_555
C39_4 N10_2 1_555 1_555
C40_4 N9_4 1_555 1_555
C54_4 C55_4 1_555 1_555
C55_4 N8_4 1_555 1_555
C18_4 H14_4 1_555 1_555
Ni5 N5_2 1_555 1_555
C18_4 N5_2 1_555 1_555
C30_4 H22_4 1_555 1_555
C56_4 H44_4 1_555 1_555
C58_4 C57_4 1_555 1_555
H46_4 C58_4 1_555 1_555
C59_4 C60_4 1_555 1_555
C62_4 C30_4 1_555 1_555
H48_4 C62_4 1_555 1_555
N18_4 Ni5 1_555 1_555
O4_4 Ni5 1_555 1_555
O5_4 Ni5 1_555 1_555
O6_4 Ni5 1_555 1_555
H49_4 O6_4 1_555 1_555
H50_4 O6_4 1_555 1_555
C56_4 N17_4 1_555 1_555
C56_4 N18_4 1_555 1_555
C57_4 N17_4 1_555 1_555
C58_4 N18_4 1_555 1_555
C59_4 O4_4 1_555 1_555
C59_4 O5_4 1_555 1_555
C60_4 C62_4 1_555 1_555

#END
