
###############################################################################
#
# This file contains modified crystal structure data generated from the
# MOF subset of the Cambridge Structural Database (CSD) v543 
# hosted by the Cambridge Crystallographic Data Centre (CCDC).
#
# This work is licensed under the Creative Commons
# Attribution-NonCommercial-ShareAlike 4.0 International License.
# To view a copy of this license, visit
# http://creativecommons.org/licenses/by-nc-sa/4.0/
# or send a letter to
# Creative Commons, PO Box 1866, Mountain View, CA 94042, USA.
#
# CIF created using the CSD Python API on 29 September 2022
# The structure has been converted into the P1 space group
# The structure has a 3D framework
# The original CSD entry AWAKEQ is in the monoclinic crystal system
# The framework has been calculated to contain at least 10.0% void space
# The void calculation uses a probe of radius 1.32A, grid spacing 0.4
# H atom positions have been added when not included in the experimental data
#
###############################################################################

data_AWAKEQ
_chemical_formula_moiety         '(C144 H140 Cd4 N20 O20)n'
_symmetry_cell_setting           triclinic
_symmetry_space_group_name_H-M   'P 1'
_symmetry_Int_Tables_number      1
_space_group_name_Hall           'P 1'
loop_
_symmetry_equiv_pos_site_id
_symmetry_equiv_pos_as_xyz
1 x,y,z
_cell_length_a                   10.1080(5)
_cell_length_b                   13.6695(7)
_cell_length_c                   28.8626(14)
_cell_angle_alpha                90
_cell_angle_beta                 99.5020(10)
_cell_angle_gamma                90
_cell_volume                     3933.27
loop_
_atom_site_label
_atom_site_type_symbol
_atom_site_fract_x
_atom_site_fract_y
_atom_site_fract_z
H20 H 0.0499 0.2816 0.3458
C31 C 0.0495(4) 0.1061(4) 0.30628(19)
H22 H 0.0817 0.1230 0.2774
H23 H 0.1228 0.1162 0.3321
N4 N 0.0122(3) 0.0030(3) 0.30464(12)
C21 C 0.1534(4) 0.6378(3) 0.33236(15)
C22 C 0.2823(4) 0.6723(3) 0.34453(18)
H14 H 0.2966 0.7363 0.3551
C23 C 0.1398(5) 0.5430(4) 0.31636(18)
H15 H 0.0546 0.5167 0.3073
C24 C 0.2507(5) 0.4868(3) 0.31364(17)
H16 H 0.2382 0.4225 0.3034
C25 C 0.3903(5) 0.6128(3) 0.34124(18)
H17 H 0.4764 0.6374 0.3505
C33 C 0.1200(4) 0.9442(3) 0.29049(17)
H25 H 0.2002 0.9692 0.2837
C35 C 0.0824(5) 0.8372(3) 0.28842(15)
H27 H 0.0749 0.7983 0.2617
C36 C 0.0324(4) 0.6993(4) 0.33559(18)
N3 N 0.3756(4) 0.5206(2) 0.32515(12)
N5 N 0.0597(3) 0.8038(3) 0.33461(13)
Cd2 Cd 0.55659(3) 0.41825(2) 0.317741(9)
H33 H 0.165517 0.935873 0.327193
H35 H 0.0882795 0.947854 0.360296
C6 C 0.4524(4) 0.3137(3) 0.00357(13)
H4 H 0.4998 0.3160 0.0340
C8 C 0.2322(4) 0.5293(3) 0.00685(14)
C9 C 0.1385(6) 0.5666(4) 0.0325(2)
H5 H 0.1202 0.5334 0.0589
C12 C 0.0724(7) 0.6537(5) 0.0187(2)
H8 H 0.0122 0.6796 0.0366
C14 C 0.3541(4) 0.4354(3) 0.07196(13)
C15 C 0.3391(4) 0.3505(3) 0.09657(13)
H10 H 0.2974 0.2962 0.0811
C16 C 0.4199(5) 0.5145(3) 0.09485(14)
H11 H 0.4332 0.5706 0.0780
C17 C 0.3864(4) 0.3468(3) 0.14429(13)
H12 H 0.3760 0.2896 0.1607
C18 C 0.4664(5) 0.5106(3) 0.14292(14)
H13 H 0.5094 0.5646 0.1583
C19 C 0.4488(4) 0.4263(3) 0.16802(13)
C20 C 0.4906(4) 0.4237(3) 0.22064(13)
C26 C 0.8600(5) 0.3300(4) 0.33456(17)
H18 H 0.8805 0.3908 0.3484
C27 C 0.7074(4) 0.2210(3) 0.29825(16)
H19 H 0.6187 0.2052 0.2864
C28 C 0.9624(5) 0.2646(4) 0.33292(18)
C29 C 0.8038(4) 0.1518(3) 0.29518(15)
H21 H 0.7804 0.0910 0.2818
C30 C 0.9365(4) 0.1738(3) 0.31232(15)
H24 H 0.9852 0.0044 0.3762
N1 N 0.3029(4) 0.4420(3) 0.02292(11)
N2 N 0.7329(4) 0.3098(2) 0.31717(12)
O2 O 0.7161(3) 0.5439(2) 0.34164(11)
O4 O 0.4550(3) 0.3523(2) 0.24298(9)
O5 O 0.5575(3) 0.4924(2) 0.24112(9)
O6 O 0.4306(3) 0.2963(2) 0.34673(9)
O7 O 0.5639(3) 0.3788(2) 0.40083(10)
H30 H 0.774598 0.552289 0.317461
H31 H 0.668474 0.606204 0.345396
C1 C 0.4785(4) 0.1860(3) 0.88874(14)
C2 C 0.4276(4) 0.2468(3) 0.92549(12)
C3 C 0.4936(4) 0.2506(3) 0.97107(13)
H1 H 0.5671 0.2101 0.9803
C4 C 0.3142(4) 0.3038(3) 0.91348(14)
H2 H 0.2670 0.3007 0.8830
C5 C 0.2694(4) 0.3650(4) 0.94526(14)
H3 H 0.1913 0.4011 0.9364
C7 C 0.3410(4) 0.3733(3) 0.99101(13)
C10 C 0.2545(5) 0.5788(3) 0.96732(15)
H6 H 0.3167 0.5547 0.9498
C11 C 0.1852(6) 0.6641(4) 0.95349(17)
H7 H 0.2006 0.6959 0.9264
C13 C 0.0949(6) 0.7023(5) 0.9786(2)
H9 H 0.0493 0.7599 0.9691
O1 O 0.4306(3) 0.2037(2) 0.84673(9)
O3 O 0.5639(3) 0.1212(2) 0.90083(10)
Cd3 Cd 0.55659(3) 0.08175(2) 0.817741(9)
C24_2 C 0.2507(5) 0.0132(3) 0.81364(17)
H16_2 H 0.2382 0.0775 0.8034
C1_2 C 0.4785(4) 0.3140(3) 0.38874(14)
C2_2 C 0.4276(4) 0.2532(3) 0.42549(12)
C3_2 C 0.4936(4) 0.2494(3) 0.47107(13)
H1_2 H 0.5671 0.2899 0.4803
C4_2 C 0.3142(4) 0.1962(3) 0.41348(14)
H2_2 H 0.2670 0.1993 0.3830
C5_2 C 0.2694(4) 0.1350(4) 0.44526(14)
H3_2 H 0.1913 0.0989 0.4364
C6_2 C 0.4524(4) 0.1863(3) 0.50357(13)
H4_2 H 0.4998 0.1840 0.5340
C7_2 C 0.3410(4) 0.1267(3) 0.49101(13)
C14_2 C 0.3541(4) 0.0646(3) 0.57196(13)
C15_2 C 0.3391(4) 0.1495(3) 0.59657(13)
H10_2 H 0.2974 0.2038 0.5811
C17_2 C 0.3864(4) 0.1532(3) 0.64429(13)
H12_2 H 0.3760 0.2104 0.6607
C19_2 C 0.4488(4) 0.0737(3) 0.66802(13)
C20_2 C 0.4906(4) 0.0763(3) 0.72064(13)
C26_2 C 0.8600(5) 0.1700(4) 0.83456(17)
H18_2 H 0.8805 0.1092 0.8484
C27_2 C 0.7074(4) 0.2790(3) 0.79825(16)
H19_2 H 0.6187 0.2948 0.7864
C28_2 C 0.9624(5) 0.2354(4) 0.83292(18)
C29_2 C 0.8038(4) 0.3482(3) 0.79518(15)
H21_2 H 0.7804 0.4090 0.7818
C30_2 C 0.9365(4) 0.3262(3) 0.81232(15)
C32 C 0.9828(5) 0.5340(4) 0.84947(15)
H24_2 H 0.9852 0.4956 0.8762
C34 C 0.9488(5) 0.6392(4) 0.84731(17)
H26 H 0.8683 0.6654 0.8532
H28 H 0.9621 0.8169 0.8096
H29 H 0.9999 0.8164 0.8645
N1_2 N 0.3029(4) 0.0580(3) 0.52292(11)
N2_2 N 0.7329(4) 0.1902(2) 0.81717(12)
O4_2 O 0.4550(3) 0.1477(2) 0.74298(9)
O5_2 O 0.5575(3) 0.0076(2) 0.74112(9)
H32 H 0.906217 0.6316 0.81029
H34 H 0.97689 0.64312 0.779395
C32_2 C 0.9828(5) 0.9660(4) 0.34947(15)
C34_2 C 0.9488(5) 0.8608(4) 0.34731(17)
H26_2 H 0.8683 0.8346 0.3532
H28_2 H 0.9621 0.6831 0.3096
H29_2 H 0.9999 0.6836 0.3645
H32_2 H 0.906217 0.8684 0.31029
H34_2 H 0.97689 0.85688 0.279395
C8_2 C 0.7678(4) 0.0293(3) 0.49315(14)
C9_2 C 0.8615(6) 0.0666(4) 0.4675(2)
H5_2 H 0.8798 0.0334 0.4411
C10_2 C 0.7455(5) 0.0788(3) 0.53268(15)
H6_2 H 0.6833 0.0547 0.5502
C11_2 C 0.8148(6) 0.1641(4) 0.54651(17)
H7_2 H 0.7994 0.1959 0.5736
C12_2 C 0.9276(7) 0.1537(5) 0.4813(2)
H8_2 H 0.9878 0.1796 0.4634
C13_2 C 0.9051(6) 0.2023(5) 0.5214(2)
H9_2 H 0.9507 0.2599 0.5309
C16_2 C 0.5801(5) 0.0145(3) 0.40515(14)
H11_2 H 0.5668 0.0706 0.4220
C18_2 C 0.5336(5) 0.0106(3) 0.35708(14)
H13_2 H 0.4906 0.0646 0.3417
O2_2 O 0.2839(3) 0.0439(2) 0.15836(11)
N6 N 0.6244(4) 0.0206(2) 0.17485(12)
H30_2 H 0.225402 0.0522888 0.182539
H31_2 H 0.331526 0.106204 0.154604
C21_2 C 0.8466(4) 0.1378(3) 0.16764(15)
C22_2 C 0.7177(4) 0.1723(3) 0.15547(18)
H14_2 H 0.7034 0.2363 0.1449
C23_2 C 0.8602(5) 0.0430(4) 0.18364(18)
H15_2 H 0.9454 0.0167 0.1927
C25_2 C 0.6097(5) 0.1128(3) 0.15876(18)
H17_2 H 0.5236 0.1374 0.1495
H20_2 H 0.9501 0.7816 0.1542
C31_2 C 0.9505(4) 0.6061(4) 0.19372(19)
H22_2 H 0.9183 0.6230 0.2226
H23_2 H 0.8772 0.6162 0.1679
C33_2 C 0.8800(4) 0.4442(3) 0.20951(17)
H25_2 H 0.7998 0.4692 0.2163
C35_2 C 0.9176(5) 0.3372(3) 0.21158(15)
H27_2 H 0.9251 0.2983 0.2383
C36_2 C 0.9676(4) 0.1993(4) 0.16441(18)
N4_2 N 0.9878(3) 0.5030(3) 0.19536(12)
N5_2 N 0.9403(3) 0.3038(3) 0.16539(13)
H33_2 H 0.834483 0.435873 0.172807
H35_2 H 0.911721 0.447854 0.139704
C1_3 C 0.5215(4) 0.6860(3) 0.61126(14)
C2_3 C 0.5724(4) 0.7468(3) 0.57451(12)
C3_3 C 0.5064(4) 0.7506(3) 0.52893(13)
H1_3 H 0.4329 0.7101 0.5197
C4_3 C 0.6858(4) 0.8038(3) 0.58652(14)
H2_3 H 0.7330 0.8007 0.6170
C5_3 C 0.7306(4) 0.8650(4) 0.55474(14)
H3_3 H 0.8087 0.9011 0.5636
C6_3 C 0.5476(4) 0.8137(3) 0.49643(13)
H4_3 H 0.5002 0.8160 0.4660
C7_3 C 0.6590(4) 0.8733(3) 0.50899(13)
C14_3 C 0.6459(4) 0.9354(3) 0.42804(13)
C15_3 C 0.6609(4) 0.8505(3) 0.40343(13)
H10_3 H 0.7026 0.7962 0.4189
C17_3 C 0.6136(4) 0.8468(3) 0.35571(13)
H12_3 H 0.6240 0.7896 0.3393
C19_3 C 0.5512(4) 0.9263(3) 0.33198(13)
C20_3 C 0.5094(4) 0.9237(3) 0.27936(13)
C26_3 C 0.1400(5) 0.8300(4) 0.16544(17)
H18_3 H 0.1195 0.8908 0.1516
C27_3 C 0.2926(4) 0.7210(3) 0.20175(16)
H19_3 H 0.3813 0.7052 0.2136
C28_3 C 0.0376(5) 0.7646(4) 0.16708(18)
C29_3 C 0.1962(4) 0.6518(3) 0.20482(15)
H21_3 H 0.2196 0.5910 0.2182
C30_3 C 0.0635(4) 0.6738(3) 0.18768(15)
C32_3 C 0.0172(5) 0.4660(4) 0.15053(15)
H24_3 H 0.0148 0.5044 0.1238
C34_3 C 0.0512(5) 0.3608(4) 0.15269(17)
H26_3 H 0.1317 0.3346 0.1468
H28_3 H 0.0379 0.1831 0.1904
H29_3 H 0.0001 0.1836 0.1355
N1_3 N 0.6971(4) 0.9420(3) 0.47708(11)
N2_3 N 0.2671(4) 0.8098(2) 0.18283(12)
O1_2 O 0.5694(3) 0.7037(2) 0.65327(9)
O3_2 O 0.4361(3) 0.6212(2) 0.59917(10)
O4_3 O 0.5450(3) 0.8523(2) 0.25702(9)
O5_3 O 0.4425(3) 0.9924(2) 0.25888(9)
Cd1 Cd 0.44341(3) 0.91825(2) 0.182259(9)
O6_2 O 0.5694(3) 0.7963(2) 0.15327(9)
O7_2 O 0.4361(3) 0.8788(2) 0.09917(10)
Cd3_2 Cd 0.44341(3) 0.58175(2) 0.682259(9)
H32_3 H 0.0937833 0.3684 0.18971
H34_3 H 0.0231103 0.35688 0.220605
C24_3 C 0.7493(5) 0.9868(3) 0.18636(17)
H16_3 H 0.7618 0.9225 0.1966
C1_4 C 0.5215(4) 0.8140(3) 0.11126(14)
C2_4 C 0.5724(4) 0.7532(3) 0.07451(12)
C3_4 C 0.5064(4) 0.7494(3) 0.02893(13)
H1_4 H 0.4329 0.7899 0.0197
C4_4 C 0.6858(4) 0.6962(3) 0.08652(14)
H2_4 H 0.7330 0.6993 0.1170
C5_4 C 0.7306(4) 0.6350(4) 0.05474(14)
H3_4 H 0.8087 0.5989 0.0636
C7_4 C 0.6590(4) 0.6267(3) 0.00899(13)
C10_3 C 0.7455(5) 0.4212(3) 0.03268(15)
H6_3 H 0.6833 0.4453 0.0502
C11_3 C 0.8148(6) 0.3359(4) 0.04651(17)
H7_3 H 0.7994 0.3041 0.0736
C13_3 C 0.9051(6) 0.2977(5) 0.0214(2)
H9_3 H 0.9507 0.2401 0.0309
C6_4 C 0.5476(4) 0.6863(3) 0.99643(13)
H4_4 H 0.5002 0.6840 0.9660
C8_3 C 0.7678(4) 0.4707(3) 0.99315(14)
C9_3 C 0.8615(6) 0.4334(4) 0.9675(2)
H5_3 H 0.8798 0.4666 0.9411
C12_3 C 0.9276(7) 0.3463(5) 0.9813(2)
H8_3 H 0.9878 0.3204 0.9634
C14_4 C 0.6459(4) 0.5646(3) 0.92804(13)
C15_4 C 0.6609(4) 0.6495(3) 0.90343(13)
H10_4 H 0.7026 0.7038 0.9189
C16_3 C 0.5801(5) 0.4855(3) 0.90515(14)
H11_3 H 0.5668 0.4294 0.9220
C17_4 C 0.6136(4) 0.6532(3) 0.85571(13)
H12_4 H 0.6240 0.7104 0.8393
C18_3 C 0.5336(5) 0.4894(3) 0.85708(14)
H13_3 H 0.4906 0.4354 0.8417
C19_4 C 0.5512(4) 0.5737(3) 0.83198(13)
C20_4 C 0.5094(4) 0.5763(3) 0.77936(13)
C26_4 C 0.1400(5) 0.6700(4) 0.66544(17)
H18_4 H 0.1195 0.6092 0.6516
C27_4 C 0.2926(4) 0.7790(3) 0.70175(16)
H19_4 H 0.3813 0.7948 0.7136
C28_4 C 0.0376(5) 0.7354(4) 0.66708(18)
C29_4 C 0.1962(4) 0.8482(3) 0.70482(15)
H21_4 H 0.2196 0.9090 0.7182
C30_4 C 0.0635(4) 0.8262(3) 0.68768(15)
H24_4 H 0.0148 0.9956 0.6238
N1_4 N 0.6971(4) 0.5580(3) 0.97708(11)
N2_4 N 0.2671(4) 0.6902(2) 0.68283(12)
O2_3 O 0.2839(3) 0.4561(2) 0.65836(11)
O4_4 O 0.5450(3) 0.6477(2) 0.75702(9)
O5_4 O 0.4425(3) 0.5076(2) 0.75888(9)
N6_2 N 0.6244(4) 0.4794(2) 0.67485(12)
H30_3 H 0.225402 0.447711 0.682539
H31_3 H 0.331526 0.393796 0.654604
C21_3 C 0.8466(4) 0.3622(3) 0.66764(15)
C22_3 C 0.7177(4) 0.3277(3) 0.65547(18)
H14_3 H 0.7034 0.2637 0.6449
C23_3 C 0.8602(5) 0.4570(4) 0.68364(18)
H15_3 H 0.9454 0.4833 0.6927
C24_4 C 0.7493(5) 0.5132(3) 0.68636(17)
H16_4 H 0.7618 0.5775 0.6966
C25_3 C 0.6097(5) 0.3872(3) 0.65876(18)
H17_3 H 0.5236 0.3626 0.6495
C33_3 C 0.8800(4) 0.0558(3) 0.70951(17)
H25_3 H 0.7998 0.0308 0.7163
C35_3 C 0.9176(5) 0.1628(3) 0.71158(15)
H27_3 H 0.9251 0.2017 0.7383
C36_3 C 0.9676(4) 0.3007(4) 0.66441(18)
N5_3 N 0.9403(3) 0.1962(3) 0.66539(13)
H33_3 H 0.834483 0.064127 0.672807
H35_3 H 0.911721 0.0521459 0.639704
C32_4 C 0.0172(5) 0.0340(4) 0.65053(15)
C34_4 C 0.0512(5) 0.1392(4) 0.65269(17)
H26_4 H 0.1317 0.1654 0.6468
H28_4 H 0.0379 0.3169 0.6904
H29_4 H 0.0001 0.3164 0.6355
H32_4 H 0.0937833 0.1316 0.68971
H34_4 H 0.0231103 0.14312 0.720605
H20_3 H 0.9501 0.7184 0.6542
C31_3 C 0.9505(4) 0.8939(4) 0.69372(19)
H22_3 H 0.9183 0.8770 0.7226
H23_3 H 0.8772 0.8838 0.6679
N4_3 N 0.9878(3) 0.9970(3) 0.69536(12)
C21_4 C 0.1534(4) 0.8622(3) 0.83236(15)
C22_4 C 0.2823(4) 0.8277(3) 0.84453(18)
H14_4 H 0.2966 0.7637 0.8551
C23_4 C 0.1398(5) 0.9570(4) 0.81636(18)
H15_4 H 0.0546 0.9833 0.8073
C25_4 C 0.3903(5) 0.8872(3) 0.84124(18)
H17_4 H 0.4764 0.8626 0.8505
H20_4 H 0.0499 0.2184 0.8458
C31_4 C 0.0495(4) 0.3939(4) 0.80628(19)
H22_4 H 0.0817 0.3770 0.7774
H23_4 H 0.1228 0.3838 0.8321
C33_4 C 0.1200(4) 0.5558(3) 0.79049(17)
H25_4 H 0.2002 0.5308 0.7837
C35_4 C 0.0824(5) 0.6628(3) 0.78842(15)
H27_4 H 0.0749 0.7017 0.7617
C36_4 C 0.0324(4) 0.8007(4) 0.83559(18)
N3_2 N 0.3756(4) 0.9794(2) 0.82515(12)
N4_4 N 0.0122(3) 0.4970(3) 0.80464(12)
N5_4 N 0.0597(3) 0.6962(3) 0.83461(13)
H33_4 H 0.165517 0.564127 0.827193
H35_4 H 0.0882795 0.552146 0.860296
C8_4 C 0.2322(4) 0.9707(3) 0.50685(14)
C9_4 C 0.1385(6) 0.9334(4) 0.5325(2)
H5_4 H 0.1202 0.9666 0.5589
C10_4 C 0.2545(5) 0.9212(3) 0.46732(15)
H6_4 H 0.3167 0.9453 0.4498
C11_4 C 0.1852(6) 0.8359(4) 0.45349(17)
H7_4 H 0.2006 0.8041 0.4264
C12_4 C 0.0724(7) 0.8463(5) 0.5187(2)
H8_4 H 0.0122 0.8204 0.5366
C13_4 C 0.0949(6) 0.7977(5) 0.4786(2)
H9_4 H 0.0493 0.7401 0.4691
C16_4 C 0.4199(5) 0.9855(3) 0.59485(14)
H11_4 H 0.4332 0.9294 0.5780
C18_4 C 0.4664(5) 0.9894(3) 0.64292(14)
H13_4 H 0.5094 0.9354 0.6583
O2_4 O 0.7161(3) 0.9561(2) 0.84164(11)
H30_4 H 0.774598 0.947711 0.817461
H31_4 H 0.668474 0.893796 0.845396
loop_
_geom_bond_atom_site_label_1
_geom_bond_atom_site_label_2
_geom_bond_site_symmetry_1
_geom_bond_site_symmetry_2
H22 C31 1_555 1_555
H23 C31 1_555 1_555
N4 C31 1_555 1_555
C21 C22 1_555 1_555
C22 H14 1_555 1_555
C23 C21 1_555 1_555
H15 C23 1_555 1_555
C24 C23 1_555 1_555
H16 C24 1_555 1_555
C25 C22 1_555 1_555
H17 C25 1_555 1_555
C33 H25 1_555 1_555
C35 C33 1_555 1_555
H27 C35 1_555 1_555
C36 C21 1_555 1_555
N3 C24 1_555 1_555
Cd2 N3 1_555 1_555
C25 N3 1_555 1_555
C35 N5 1_555 1_555
C36 N5 1_555 1_555
C33 H33 1_555 1_555
H4 C6 1_555 1_555
C8 C9 1_555 1_555
C9 H5 1_555 1_555
C12 C9 1_555 1_555
H8 C12 1_555 1_555
C14 C15 1_555 1_555
C15 H10 1_555 1_555
C16 C14 1_555 1_555
H11 C16 1_555 1_555
C17 C15 1_555 1_555
H12 C17 1_555 1_555
C18 C16 1_555 1_555
H13 C18 1_555 1_555
C19 C17 1_555 1_555
C20 C19 1_555 1_555
C26 H18 1_555 1_555
C27 H19 1_555 1_555
C28 C26 1_555 1_555
C29 C27 1_555 1_555
H21 C29 1_555 1_555
C30 C28 1_555 1_555
N2 C26 1_555 1_555
O2 Cd2 1_555 1_555
O4 C20 1_555 1_555
O5 C20 1_555 1_555
Cd2 N2 1_555 1_555
O6 Cd2 1_555 1_555
O7 Cd2 1_555 1_555
C8 N1 1_555 1_555
C14 N1 1_555 1_555
C18 C19 1_555 1_555
C27 N2 1_555 1_555
C29 C30 1_555 1_555
O4 Cd2 1_555 1_555
O5 Cd2 1_555 1_555
O2 H30 1_555 1_555
O2 H31 1_555 1_555
C1 C2 1_555 1_555
C2 C3 1_555 1_555
C3 H1 1_555 1_555
C4 C2 1_555 1_555
H2 C4 1_555 1_555
C5 C4 1_555 1_555
H3 C5 1_555 1_555
C7 C5 1_555 1_555
H6 C10 1_555 1_555
C11 C10 1_555 1_555
H7 C11 1_555 1_555
C13 C11 1_555 1_555
H9 C13 1_555 1_555
O1 C1 1_555 1_555
O3 C1 1_555 1_555
Cd3 O1 1_555 1_555
O3 Cd3 1_555 1_555
H16_2 C24_2 1_555 1_555
C1_2 C2_2 1_555 1_555
C2_2 C3_2 1_555 1_555
C3_2 H1_2 1_555 1_555
C4_2 C2_2 1_555 1_555
H2_2 C4_2 1_555 1_555
C5_2 C4_2 1_555 1_555
H3_2 C5_2 1_555 1_555
C6_2 C3_2 1_555 1_555
H4_2 C6_2 1_555 1_555
C7_2 C5_2 1_555 1_555
C14_2 C15_2 1_555 1_555
C15_2 H10_2 1_555 1_555
C17_2 C15_2 1_555 1_555
H12_2 C17_2 1_555 1_555
C19_2 C17_2 1_555 1_555
C20_2 C19_2 1_555 1_555
C26_2 H18_2 1_555 1_555
C27_2 H19_2 1_555 1_555
C28_2 C26_2 1_555 1_555
C29_2 C27_2 1_555 1_555
H21_2 C29_2 1_555 1_555
C30_2 C28_2 1_555 1_555
C32 H24_2 1_555 1_555
C34 C32 1_555 1_555
H26 C34 1_555 1_555
N1_2 C7_2 1_555 1_555
N2_2 C26_2 1_555 1_555
O6 C1_2 1_555 1_555
O7 C1_2 1_555 1_555
O4_2 C20_2 1_555 1_555
O5_2 C20_2 1_555 1_555
Cd3 N2_2 1_555 1_555
C6_2 C7_2 1_555 1_555
C14_2 N1_2 1_555 1_555
C27_2 N2_2 1_555 1_555
C29_2 C30_2 1_555 1_555
O4_2 Cd3 1_555 1_555
O5_2 Cd3 1_555 1_555
C34 H32 1_555 1_555
C34_2 C32_2 1_555 1_555
H26_2 C34_2 1_555 1_555
C34_2 H32_2 1_555 1_555
C8_2 C9_2 1_555 1_555
C9_2 H5_2 1_555 1_555
C10_2 C8_2 1_555 1_555
H6_2 C10_2 1_555 1_555
C11_2 C10_2 1_555 1_555
H7_2 C11_2 1_555 1_555
C12_2 C9_2 1_555 1_555
H8_2 C12_2 1_555 1_555
C13_2 C11_2 1_555 1_555
H9_2 C13_2 1_555 1_555
H11_2 C16_2 1_555 1_555
C18_2 C16_2 1_555 1_555
H13_2 C18_2 1_555 1_555
C12_2 C13_2 1_555 1_555
O2_2 H30_2 1_555 1_555
O2_2 H31_2 1_555 1_555
C21_2 C22_2 1_555 1_555
C22_2 H14_2 1_555 1_555
C23_2 C21_2 1_555 1_555
H15_2 C23_2 1_555 1_555
C25_2 C22_2 1_555 1_555
H17_2 C25_2 1_555 1_555
H22_2 C31_2 1_555 1_555
H23_2 C31_2 1_555 1_555
C33_2 H25_2 1_555 1_555
C35_2 C33_2 1_555 1_555
H27_2 C35_2 1_555 1_555
C36_2 C21_2 1_555 1_555
N4_2 C31_2 1_555 1_555
C25_2 N6 1_555 1_555
C33_2 N4_2 1_555 1_555
C35_2 N5_2 1_555 1_555
C36_2 N5_2 1_555 1_555
C33_2 H33_2 1_555 1_555
C1_3 C2_3 1_555 1_555
C2_3 C3_3 1_555 1_555
C3_3 H1_3 1_555 1_555
C4_3 C2_3 1_555 1_555
H2_3 C4_3 1_555 1_555
C5_3 C4_3 1_555 1_555
H3_3 C5_3 1_555 1_555
C6_3 C3_3 1_555 1_555
H4_3 C6_3 1_555 1_555
C7_3 C5_3 1_555 1_555
C14_3 C15_3 1_555 1_555
C15_3 H10_3 1_555 1_555
C17_3 C15_3 1_555 1_555
H12_3 C17_3 1_555 1_555
C19_3 C17_3 1_555 1_555
C20_3 C19_3 1_555 1_555
C26_3 H18_3 1_555 1_555
C27_3 H19_3 1_555 1_555
C28_3 C26_3 1_555 1_555
C29_3 C27_3 1_555 1_555
H21_3 C29_3 1_555 1_555
C30_3 C28_3 1_555 1_555
C32_3 H24_3 1_555 1_555
C34_3 C32_3 1_555 1_555
H26_3 C34_3 1_555 1_555
N1_3 C7_3 1_555 1_555
N2_3 C26_3 1_555 1_555
O1_2 C1_3 1_555 1_555
O3_2 C1_3 1_555 1_555
O4_3 C20_3 1_555 1_555
O5_3 C20_3 1_555 1_555
Cd1 N2_3 1_555 1_555
O6_2 Cd1 1_555 1_555
O7_2 Cd1 1_555 1_555
Cd3_2 O1_2 1_555 1_555
C6_3 C7_3 1_555 1_555
C14_3 N1_3 1_555 1_555
C27_3 N2_3 1_555 1_555
C29_3 C30_3 1_555 1_555
O3_2 Cd3_2 1_555 1_555
O4_3 Cd1 1_555 1_555
O5_3 Cd1 1_555 1_555
C34_3 H32_3 1_555 1_555
H16_3 C24_3 1_555 1_555
C1_4 C2_4 1_555 1_555
C2_4 C3_4 1_555 1_555
C3_4 H1_4 1_555 1_555
C4_4 C2_4 1_555 1_555
H2_4 C4_4 1_555 1_555
C5_4 C4_4 1_555 1_555
H3_4 C5_4 1_555 1_555
C7_4 C5_4 1_555 1_555
H6_3 C10_3 1_555 1_555
C11_3 C10_3 1_555 1_555
H7_3 C11_3 1_555 1_555
C13_3 C11_3 1_555 1_555
H9_3 C13_3 1_555 1_555
O6_2 C1_4 1_555 1_555
O7_2 C1_4 1_555 1_555
H4_4 C6_4 1_555 1_555
C8_3 C9_3 1_555 1_555
C9_3 H5_3 1_555 1_555
C12_3 C9_3 1_555 1_555
H8_3 C12_3 1_555 1_555
C14_4 C15_4 1_555 1_555
C15_4 H10_4 1_555 1_555
C16_3 C14_4 1_555 1_555
H11_3 C16_3 1_555 1_555
C17_4 C15_4 1_555 1_555
H12_4 C17_4 1_555 1_555
C18_3 C16_3 1_555 1_555
H13_3 C18_3 1_555 1_555
C19_4 C17_4 1_555 1_555
C20_4 C19_4 1_555 1_555
C26_4 H18_4 1_555 1_555
C27_4 H19_4 1_555 1_555
C28_4 C26_4 1_555 1_555
C29_4 C27_4 1_555 1_555
H21_4 C29_4 1_555 1_555
C30_4 C28_4 1_555 1_555
N2_4 C26_4 1_555 1_555
O2_3 Cd3_2 1_555 1_555
O4_4 C20_4 1_555 1_555
O5_4 C20_4 1_555 1_555
Cd3_2 N2_4 1_555 1_555
N6_2 Cd3_2 1_555 1_555
C8_3 N1_4 1_555 1_555
C14_4 N1_4 1_555 1_555
C18_3 C19_4 1_555 1_555
C27_4 N2_4 1_555 1_555
C29_4 C30_4 1_555 1_555
O4_4 Cd3_2 1_555 1_555
O5_4 Cd3_2 1_555 1_555
O2_3 H30_3 1_555 1_555
O2_3 H31_3 1_555 1_555
C21_3 C22_3 1_555 1_555
C22_3 H14_3 1_555 1_555
C23_3 C21_3 1_555 1_555
H15_3 C23_3 1_555 1_555
C24_4 C23_3 1_555 1_555
H16_4 C24_4 1_555 1_555
C25_3 C22_3 1_555 1_555
H17_3 C25_3 1_555 1_555
C33_3 H25_3 1_555 1_555
C35_3 C33_3 1_555 1_555
H27_3 C35_3 1_555 1_555
C36_3 C21_3 1_555 1_555
N6_2 C24_4 1_555 1_555
C25_3 N6_2 1_555 1_555
C35_3 N5_3 1_555 1_555
C36_3 N5_3 1_555 1_555
C33_3 H33_3 1_555 1_555
C34_4 C32_4 1_555 1_555
H26_4 C34_4 1_555 1_555
C34_4 H32_4 1_555 1_555
H22_3 C31_3 1_555 1_555
H23_3 C31_3 1_555 1_555
N4_3 C31_3 1_555 1_555
C21_4 C22_4 1_555 1_555
C22_4 H14_4 1_555 1_555
C23_4 C21_4 1_555 1_555
H15_4 C23_4 1_555 1_555
C25_4 C22_4 1_555 1_555
H17_4 C25_4 1_555 1_555
H22_4 C31_4 1_555 1_555
H23_4 C31_4 1_555 1_555
C33_4 H25_4 1_555 1_555
C35_4 C33_4 1_555 1_555
H27_4 C35_4 1_555 1_555
C36_4 C21_4 1_555 1_555
N4_4 C31_4 1_555 1_555
C25_4 N3_2 1_555 1_555
C33_4 N4_4 1_555 1_555
C35_4 N5_4 1_555 1_555
C36_4 N5_4 1_555 1_555
C33_4 H33_4 1_555 1_555
C8_4 C9_4 1_555 1_555
C9_4 H5_4 1_555 1_555
C10_4 C8_4 1_555 1_555
H6_4 C10_4 1_555 1_555
C11_4 C10_4 1_555 1_555
H7_4 C11_4 1_555 1_555
C12_4 C9_4 1_555 1_555
H8_4 C12_4 1_555 1_555
C13_4 C11_4 1_555 1_555
H9_4 C13_4 1_555 1_555
H11_4 C16_4 1_555 1_555
C18_4 C16_4 1_555 1_555
H13_4 C18_4 1_555 1_555
C12_4 C13_4 1_555 1_555
O2_4 H30_4 1_555 1_555
O2_4 H31_4 1_555 1_555

#END
