
###############################################################################
#
# This file contains modified crystal structure data generated from the
# MOF subset of the Cambridge Structural Database (CSD) v543 
# hosted by the Cambridge Crystallographic Data Centre (CCDC).
#
# This work is licensed under the Creative Commons
# Attribution-NonCommercial-ShareAlike 4.0 International License.
# To view a copy of this license, visit
# http://creativecommons.org/licenses/by-nc-sa/4.0/
# or send a letter to
# Creative Commons, PO Box 1866, Mountain View, CA 94042, USA.
#
# CIF created using the CSD Python API on 29 September 2022
# The structure has been converted into the P1 space group
# The structure has a 3D framework
# The original CSD entry AWASAU is in the monoclinic crystal system
# The framework has been calculated to contain at least 10.0% void space
# The void calculation uses a probe of radius 1.32A, grid spacing 0.4
# H atom positions have been added when not included in the experimental data
#
###############################################################################

data_AWASAU
_chemical_formula_moiety         '(C80 H68 Cu10 I10 N16 O24 Pr4)n'
_symmetry_cell_setting           triclinic
_symmetry_space_group_name_H-M   'P 1'
_symmetry_Int_Tables_number      1
_space_group_name_Hall           'P 1'
loop_
_symmetry_equiv_pos_site_id
_symmetry_equiv_pos_as_xyz
1 x,y,z
_cell_length_a                   15.289(6)
_cell_length_b                   8.168(3)
_cell_length_c                   28.995(11)
_cell_angle_alpha                90
_cell_angle_beta                 100.646(5)
_cell_angle_gamma                90
_cell_volume                     3558.59
loop_
_atom_site_label
_atom_site_type_symbol
_atom_site_fract_x
_atom_site_fract_y
_atom_site_fract_z
Cu5 Cu 0.50157(6) 0.06998(11) 0.32984(3)
Cu7 Cu 0.35491(6) 0.20179(11) 0.28585(3)
I5 I 0.37634(3) 0.17954(6) 0.377557(16)
I6 I 0.49484(3) 0.21975(6) 0.245678(18)
Pr1 Pr 0.55017(3) 0.25071(5) 0.011807(13)
Cu2 Cu 0.14509(6) 0.70179(11) 0.21415(3)
Cu3 Cu 0.42503(6) 0.92063(12) 0.25049(3)
Cu4 Cu 0.35247(6) 0.89653(11) 0.32433(3)
I1 I 0.12366(3) 0.67954(6) 0.122443(16)
I2 I 0.00516(3) 0.71975(6) 0.254322(18)
I3 I 0.24726(3) 0.96087(5) 0.240975(15)
I4 I 0.50912(3) 0.74941(6) 0.328526(17)
O3 O 0.5666(4) 0.3747(7) 0.09308(18)
O4 O 0.4646(3) 0.5059(6) 0.04332(16)
O7 O 0.6937(4) 0.3887(8) 0.0228(2)
N2 N 0.4489(4) 0.7716(8) 0.1982(2)
C7 C 0.5275(6) 0.6983(12) 0.2007(3)
H5 H 0.5714 0.7128 0.2281
C8 C 0.5478(6) 0.6018(13) 0.1646(3)
H6 H 0.6042 0.5499 0.1678
C9 C 0.4850(5) 0.5821(9) 0.1243(2)
C10 C 0.4046(5) 0.6541(9) 0.1223(2)
H7 H 0.3595 0.6403 0.0953
C11 C 0.3878(5) 0.7482(9) 0.1597(2)
H8 H 0.3308 0.7973 0.1576
C12 C 0.5073(5) 0.4804(9) 0.0846(2)
N4 N 0.8462(11) 0.409(2) 0.0141(6)
C19 C 0.7668(13) 0.333(3) 0.0229(8)
H13 H 0.7725 0.2200 0.0300
H15 H 0.7817 0.6136 0.0196
Cu8 Cu 0.07497(6) 0.42063(12) 0.24951(3)
Cu9 Cu 0.14753(6) 0.39653(11) 0.17567(3)
I7 I 0.25274(3) 0.46087(5) 0.259025(15)
O8 O 0.6411(3) 0.0421(7) 0.05754(18)
O10 O 0.4478(4) 0.0877(9) 0.0453(2)
N6 N 0.2781(4) 0.7592(7) 0.3603(2)
H17 H 0.909767 0.367105 0.0193026
O2 O 0.4211(4) 0.2068(7) 0.95060(19)
O5 O 0.6413(4) 0.1259(7) 0.9605(2)
N1 N 0.1155(4) 0.3283(8) 0.8641(2)
C1 C 0.1205(6) 0.1699(11) 0.8744(4)
H1 H 0.0687 0.1048 0.8652
C2 C 0.1968(5) 0.0943(11) 0.8976(4)
C3 C 0.2734(5) 0.1840(9) 0.9103(2)
C4 C 0.2695(5) 0.3481(10) 0.8983(3)
H3 H 0.3211 0.4148 0.9057
C5 C 0.1901(5) 0.4143(10) 0.8754(3)
H4 H 0.1888 0.5271 0.8673
C6 C 0.3577(5) 0.1092(10) 0.9362(2)
H10 H 0.7893 0.0236 0.9393
C20 C 0.8101(17) 0.559(3) 0.9961(8)
H14 H 0.8577 0.6289 0.9886
H16 H 0.7658 0.5396 0.9676
Pr3 Pr 0.44983(3) 0.74929(5) 0.988193(13)
Cu6 Cu 0.00157(6) 0.43002(11) 0.82984(3)
O9 O 0.5354(3) 0.4941(6) 0.95668(16)
O1 O 0.3589(3) 0.9579(7) 0.94246(18)
O6 O 0.5522(4) 0.9123(9) 0.9547(2)
N3 N 0.7781(4) 0.7408(7) 0.8603(2)
H2 H 0.1963 0.9808 0.9048
C13 C 0.8124(5) 0.8580(10) 0.8908(3)
H9 H 0.8736 0.8848 0.8935
C14 C 0.7628(6) 0.9409(10) 0.9183(3)
C15 C 0.6742(5) 0.9025(9) 0.9148(2)
C16 C 0.6368(5) 0.7880(10) 0.8821(2)
H11 H 0.5751 0.7632 0.8776
C17 C 0.6915(5) 0.7103(9) 0.8559(3)
H12 H 0.6658 0.6308 0.8335
C18 C 0.6187(5) 0.9862(10) 0.9457(2)
Cu10 Cu 0.85247(6) 0.60347(11) 0.82433(3)
Cu1 Cu 0.99843(6) 0.56998(11) 0.17016(3)
I8 I 0.99088(3) 0.24941(6) 0.171474(17)
N5 N 0.8845(4) 0.6717(8) 0.1359(2)
O4_2 O 0.0354(3) 0.0059(6) 0.45668(16)
N2_2 N 0.0511(4) 0.2716(8) 0.3018(2)
H4_2 H 0.3112 0.0271 0.6327
C9_2 C 0.0150(5) 0.0821(9) 0.3757(2)
C10_2 C 0.0954(5) 0.1541(9) 0.3777(2)
H7_2 H 0.1405 0.1403 0.4047
C11_2 C 0.1122(5) 0.2482(9) 0.3403(2)
H8_2 H 0.1692 0.2973 0.3424
Pr3_2 Pr 0.05017(3) 0.24929(5) 0.511807(13)
N5_2 N 0.6155(4) 0.1717(8) 0.3641(2)
N6_2 N 0.2219(4) 0.2592(7) 0.1397(2)
O1_2 O 0.1411(3) 0.4579(7) 0.55754(18)
O2_2 O 0.0789(4) 0.7068(7) 0.54940(19)
N1_2 N 0.3845(4) 0.8283(8) 0.6359(2)
C1_2 C 0.3795(6) 0.6699(11) 0.6256(4)
H1_2 H 0.4313 0.6048 0.6348
C2_2 C 0.3032(5) 0.5943(11) 0.6024(4)
H2_2 H 0.3037 0.4808 0.5952
C3_2 C 0.2266(5) 0.6840(9) 0.5897(2)
C4_2 C 0.2305(5) 0.8481(10) 0.6017(3)
H3_2 H 0.1789 0.9148 0.5943
C5_2 C 0.3099(5) 0.9143(10) 0.6246(3)
C6_2 C 0.1423(5) 0.6092(10) 0.5638(2)
Cu6_2 Cu 0.49843(6) 0.93002(11) 0.67016(3)
O10_2 O 0.0522(4) 0.5877(9) 0.4547(2)
C7_2 C 0.9725(6) 0.1983(12) 0.2993(3)
H5_2 H 0.9286 0.2128 0.2719
C8_2 C 0.9522(6) 0.1018(13) 0.3354(3)
H6_2 H 0.8958 0.0499 0.3322
C20_2 C 0.6899(17) 0.059(3) 0.5039(8)
H14_2 H 0.6423 0.1289 0.5114
H15_2 H 0.7183 0.1136 0.4804
H16_2 H 0.7342 0.0396 0.5324
Pr1_2 Pr 0.94983(3) 0.75071(5) 0.488193(13)
O3_2 O 0.9334(4) 0.8747(7) 0.40692(18)
O5_2 O 0.8587(4) 0.6259(7) 0.5395(2)
O6_2 O 0.9478(4) 0.4123(9) 0.5453(2)
O7_2 O 0.8063(4) 0.8887(8) 0.4772(2)
N3_2 N 0.7219(4) 0.2408(7) 0.6397(2)
C12_2 C 0.9927(5) 0.9804(9) 0.4154(2)
C13_2 C 0.6876(5) 0.3580(10) 0.6092(3)
H9_2 H 0.6264 0.3848 0.6065
C14_2 C 0.7372(6) 0.4409(10) 0.5817(3)
H10_2 H 0.7107 0.5236 0.5607
C15_2 C 0.8258(5) 0.4025(9) 0.5852(2)
C16_2 C 0.8632(5) 0.2880(10) 0.6179(2)
H11_2 H 0.9249 0.2632 0.6224
C17_2 C 0.8085(5) 0.2103(9) 0.6441(3)
H12_2 H 0.8342 0.1308 0.6665
C18_2 C 0.8813(5) 0.4862(10) 0.5543(2)
N4_2 N 0.6538(11) 0.909(2) 0.4859(6)
C19_2 C 0.7332(13) 0.833(3) 0.4771(8)
H13_2 H 0.7275 0.7200 0.4700
Cu10_2 Cu 0.64753(6) 0.10347(11) 0.67567(3)
O8_2 O 0.8589(3) 0.5421(7) 0.44246(18)
O9_2 O 0.9646(3) 0.9941(6) 0.54332(16)
H17_2 H 0.590233 0.867105 0.480697
I8_2 I 0.00912(3) 0.75059(6) 0.828526(17)
H2_3 H 0.8037 0.0192 0.0952
C13_3 C 0.1876(5) 0.1420(10) 0.1092(3)
H9_3 H 0.1264 0.1152 0.1065
C14_3 C 0.2372(6) 0.0591(10) 0.0817(3)
C15_3 C 0.3258(5) 0.0975(9) 0.0852(2)
C16_3 C 0.3632(5) 0.2120(10) 0.1179(2)
H11_3 H 0.4249 0.2368 0.1224
C17_3 C 0.3085(5) 0.2897(9) 0.1441(3)
H12_3 H 0.3342 0.3692 0.1665
C18_3 C 0.3813(5) 0.0138(10) 0.0543(2)
O2_3 O 0.5789(4) 0.7932(7) 0.04940(19)
O5_3 O 0.3587(4) 0.8741(7) 0.0395(2)
C1_3 C 0.8795(6) 0.8301(11) 0.1256(4)
H1_3 H 0.9313 0.8952 0.1348
C2_3 C 0.8032(5) 0.9057(11) 0.1024(4)
C3_3 C 0.7266(5) 0.8160(9) 0.0897(2)
C4_3 C 0.7305(5) 0.6519(10) 0.1017(3)
H3_3 H 0.6789 0.5852 0.0943
C5_3 C 0.8099(5) 0.5857(10) 0.1246(3)
H4_3 H 0.8112 0.4729 0.1327
C6_3 C 0.6423(5) 0.8908(10) 0.0638(2)
H10_3 H 0.2107 0.9764 0.0607
C20_3 C 0.1899(17) 0.441(3) 0.0039(8)
H14_3 H 0.1423 0.3711 0.0114
H16_3 H 0.2342 0.4604 0.0324
Cu2_2 Cu 0.85491(6) 0.29821(11) 0.78585(3)
Cu3_2 Cu 0.57497(6) 0.07937(12) 0.74951(3)
I1_2 I 0.87634(3) 0.32046(6) 0.877557(16)
I2_2 I 0.99484(3) 0.28025(6) 0.745678(18)
I3_2 I 0.75274(3) 0.03913(5) 0.759025(15)
I4_2 I 0.49088(3) 0.25059(6) 0.671474(17)
O3_3 O 0.4334(4) 0.6253(7) 0.90692(18)
O7_3 O 0.3063(4) 0.6113(8) 0.9772(2)
N2_3 N 0.5511(4) 0.2284(8) 0.8018(2)
C7_3 C 0.4725(6) 0.3017(12) 0.7993(3)
H5_3 H 0.4286 0.2872 0.7719
C8_3 C 0.4522(6) 0.3982(13) 0.8354(3)
H6_3 H 0.3958 0.4501 0.8322
C9_3 C 0.5150(5) 0.4179(9) 0.8757(2)
C10_3 C 0.5954(5) 0.3459(9) 0.8777(2)
H7_3 H 0.6405 0.3597 0.9047
C11_3 C 0.6122(5) 0.2518(9) 0.8403(2)
H8_3 H 0.6692 0.2027 0.8424
C12_3 C 0.4927(5) 0.5196(9) 0.9154(2)
N4_3 N 0.1538(11) 0.591(2) 0.9859(6)
C19_3 C 0.2332(13) 0.667(3) 0.9771(8)
H13_3 H 0.2275 0.7800 0.9700
H15_3 H 0.2183 0.3864 0.9804
Cu8_2 Cu 0.92503(6) 0.57937(12) 0.75049(3)
I7_2 I 0.74726(3) 0.53913(5) 0.740975(15)
H17_3 H 0.0902331 0.632895 0.980697
Cu7_2 Cu 0.64509(6) 0.79821(11) 0.71415(3)
I5_2 I 0.62366(3) 0.82046(6) 0.622443(16)
I6_2 I 0.50516(3) 0.78025(6) 0.754322(18)
O3_4 O 0.0666(4) 0.1253(7) 0.59308(18)
O5_4 O 0.1413(4) 0.3741(7) 0.4605(2)
O7_4 O 0.1937(4) 0.1113(8) 0.5228(2)
C12_4 C 0.0073(5) 0.0196(9) 0.5846(2)
C13_4 C 0.3124(5) 0.6420(10) 0.3908(3)
H9_4 H 0.3736 0.6152 0.3935
C14_4 C 0.2628(6) 0.5591(10) 0.4183(3)
H10_4 H 0.2893 0.4764 0.4393
C15_4 C 0.1742(5) 0.5975(9) 0.4148(2)
C16_4 C 0.1368(5) 0.7120(10) 0.3821(2)
H11_4 H 0.0751 0.7368 0.3776
C17_4 C 0.1915(5) 0.7897(9) 0.3559(3)
H12_4 H 0.1658 0.8692 0.3335
C18_4 C 0.1187(5) 0.5138(10) 0.4457(2)
N4_4 N 0.3462(11) 0.091(2) 0.5141(6)
C19_4 C 0.2668(13) 0.167(3) 0.5229(8)
H13_4 H 0.2725 0.2800 0.5300
H17_4 H 0.409767 0.132895 0.519303
C7_4 C 0.0275(6) 0.8017(12) 0.7007(3)
H5_4 H 0.0714 0.7872 0.7281
C8_4 C 0.0478(6) 0.8982(13) 0.6646(3)
H6_4 H 0.1042 0.9501 0.6678
C20_4 C 0.3101(17) 0.941(3) 0.4961(8)
H14_4 H 0.3577 0.8711 0.4886
H15_4 H 0.2817 0.8864 0.5196
H16_4 H 0.2658 0.9604 0.4676
O2_4 O 0.9211(4) 0.2932(7) 0.45060(19)
C1_4 C 0.6205(6) 0.3301(11) 0.3744(4)
H1_4 H 0.5687 0.3952 0.3652
C2_4 C 0.6968(5) 0.4057(11) 0.3976(4)
H2_4 H 0.6963 0.5192 0.4048
C3_4 C 0.7734(5) 0.3160(9) 0.4103(2)
C4_4 C 0.7695(5) 0.1519(10) 0.3983(3)
H3_4 H 0.8211 0.0852 0.4057
C5_4 C 0.6901(5) 0.0857(10) 0.3754(3)
C6_4 C 0.8577(5) 0.3908(10) 0.4362(2)
N2_4 N 0.9489(4) 0.7284(8) 0.6982(2)
H4_4 H 0.6888 0.9729 0.3673
C9_4 C 0.9850(5) 0.9179(9) 0.6243(2)
C10_4 C 0.9046(5) 0.8459(9) 0.6223(2)
H7_4 H 0.8595 0.8597 0.5953
C11_4 C 0.8878(5) 0.7518(9) 0.6597(2)
H8_4 H 0.8308 0.7027 0.6576
loop_
_geom_bond_atom_site_label_1
_geom_bond_atom_site_label_2
_geom_bond_site_symmetry_1
_geom_bond_site_symmetry_2
Cu5 I5 1_555 1_555
Cu5 I6 1_555 1_555
Cu7 I5 1_555 1_555
Cu7 I6 1_555 1_555
Cu2 I1 1_555 1_555
Cu3 I3 1_555 1_555
Cu4 I3 1_555 1_555
I1 Cu9 1_555 1_555
I3 Cu2 1_555 1_555
I4 Cu3 1_555 1_555
O3 Pr1 1_555 1_555
O4 Pr1 1_555 1_555
O7 Pr1 1_555 1_555
N2 Cu3 1_555 1_555
C7 N2 1_555 1_555
H5 C7 1_555 1_555
C8 C7 1_555 1_555
H6 C8 1_555 1_555
C9 C8 1_555 1_555
C10 C9 1_555 1_555
H7 C10 1_555 1_555
C11 N2 1_555 1_555
H8 C11 1_555 1_555
C12 O3 1_555 1_555
N4 C19 1_555 1_555
C19 O7 1_555 1_555
H13 C19 1_555 1_555
Cu8 I2 1_555 1_555
Cu9 I7 1_555 1_555
I7 Cu2 1_555 1_555
O8 Pr1 1_555 1_555
O10 Pr1 1_555 1_555
N6 Cu4 1_555 1_555
Cu2 I2 1_555 1_555
Cu4 I4 1_555 1_555
O4 C12 1_555 1_555
C9 C12 1_555 1_555
C10 C11 1_555 1_555
Cu8 I7 1_555 1_555
N4 H17 1_555 1_555
O2 C6 1_555 1_555
N1 C1 1_555 1_555
C1 H1 1_555 1_555
C2 C1 1_555 1_555
C3 C2 1_555 1_555
C4 C3 1_555 1_555
H3 C4 1_555 1_555
C5 N1 1_555 1_555
H4 C5 1_555 1_555
C6 C3 1_555 1_555
H14 C20 1_555 1_555
H16 C20 1_555 1_555
Cu6 N1 1_555 1_555
C4 C5 1_555 1_555
Pr3 O9 1_555 1_555
O6 C18 1_555 1_555
N3 C13 1_555 1_555
C13 H9 1_555 1_555
C14 C13 1_555 1_555
C15 C14 1_555 1_555
C16 C15 1_555 1_555
H11 C16 1_555 1_555
C17 N3 1_555 1_555
H12 C17 1_555 1_555
Pr3 O1 1_555 1_555
Cu10 N3 1_555 1_555
O6 Pr3 1_555 1_555
C15 C18 1_555 1_555
C16 C17 1_555 1_555
I8 Cu1 1_555 1_555
N5 Cu1 1_555 1_555
I7 Cu7 1_555 1_555
N2_2 Cu8 1_555 1_555
C10_2 C9_2 1_555 1_555
H7_2 C10_2 1_555 1_555
C11_2 N2_2 1_555 1_555
H8_2 C11_2 1_555 1_555
Pr3_2 O4_2 1_555 1_555
N5_2 Cu5 1_555 1_555
N6_2 Cu9 1_555 1_555
C10_2 C11_2 1_555 1_555
O1_2 C6_2 1_555 1_555
O2_2 C6_2 1_555 1_555
N1_2 C1_2 1_555 1_555
C1_2 H1_2 1_555 1_555
C2_2 C1_2 1_555 1_555
H2_2 C2_2 1_555 1_555
C3_2 C2_2 1_555 1_555
C4_2 C3_2 1_555 1_555
H3_2 C4_2 1_555 1_555
C5_2 N1_2 1_555 1_555
C6_2 C3_2 1_555 1_555
Pr3_2 O1_2 1_555 1_555
Cu6_2 N1_2 1_555 1_555
C4_2 C5_2 1_555 1_555
H5_2 C7_2 1_555 1_555
C8_2 C7_2 1_555 1_555
H6_2 C8_2 1_555 1_555
H14_2 C20_2 1_555 1_555
H15_2 C20_2 1_555 1_555
H16_2 C20_2 1_555 1_555
O3_2 Pr1_2 1_555 1_555
O5_2 Pr1_2 1_555 1_555
O6_2 C18_2 1_555 1_555
O7_2 Pr1_2 1_555 1_555
N3_2 C13_2 1_555 1_555
C12_2 O3_2 1_555 1_555
C13_2 H9_2 1_555 1_555
C14_2 C13_2 1_555 1_555
H10_2 C14_2 1_555 1_555
C15_2 C14_2 1_555 1_555
C16_2 C15_2 1_555 1_555
H11_2 C16_2 1_555 1_555
C17_2 N3_2 1_555 1_555
H12_2 C17_2 1_555 1_555
C18_2 O5_2 1_555 1_555
N4_2 C19_2 1_555 1_555
C19_2 O7_2 1_555 1_555
H13_2 C19_2 1_555 1_555
Cu10_2 N3_2 1_555 1_555
O8_2 Pr1_2 1_555 1_555
O9_2 Pr1_2 1_555 1_555
C15_2 C18_2 1_555 1_555
C16_2 C17_2 1_555 1_555
N4_2 H17_2 1_555 1_555
I8_2 Cu6 1_555 1_555
O10 C18_3 1_555 1_555
N6_2 C13_3 1_555 1_555
C13_3 H9_3 1_555 1_555
C14_3 C13_3 1_555 1_555
C15_3 C14_3 1_555 1_555
C16_3 C15_3 1_555 1_555
H11_3 C16_3 1_555 1_555
C17_3 N6_2 1_555 1_555
H12_3 C17_3 1_555 1_555
C15_3 C18_3 1_555 1_555
C16_3 C17_3 1_555 1_555
O2_3 C6_3 1_555 1_555
N5 C1_3 1_555 1_555
C1_3 H1_3 1_555 1_555
C2_3 C1_3 1_555 1_555
C3_3 C2_3 1_555 1_555
C4_3 C3_3 1_555 1_555
H3_3 C4_3 1_555 1_555
C5_3 N5 1_555 1_555
H4_3 C5_3 1_555 1_555
C6_3 C3_3 1_555 1_555
H14_3 C20_3 1_555 1_555
H16_3 C20_3 1_555 1_555
C4_3 C5_3 1_555 1_555
Cu2_2 I1_2 1_555 1_555
Cu3_2 I3_2 1_555 1_555
Cu10_2 I3_2 1_555 1_555
I1_2 Cu10 1_555 1_555
I3_2 Cu2_2 1_555 1_555
I4_2 Cu3_2 1_555 1_555
O3_3 Pr3 1_555 1_555
O7_3 Pr3 1_555 1_555
N2_3 Cu3_2 1_555 1_555
C7_3 N2_3 1_555 1_555
H5_3 C7_3 1_555 1_555
C8_3 C7_3 1_555 1_555
H6_3 C8_3 1_555 1_555
C9_3 C8_3 1_555 1_555
C10_3 C9_3 1_555 1_555
H7_3 C10_3 1_555 1_555
C11_3 N2_3 1_555 1_555
H8_3 C11_3 1_555 1_555
C12_3 O3_3 1_555 1_555
N4_3 C19_3 1_555 1_555
C19_3 O7_3 1_555 1_555
H13_3 C19_3 1_555 1_555
Cu8_2 I2_2 1_555 1_555
Cu10 I7_2 1_555 1_555
I7_2 Cu2_2 1_555 1_555
Cu2_2 I2_2 1_555 1_555
Cu10_2 I4_2 1_555 1_555
O9 C12_3 1_555 1_555
C9_3 C12_3 1_555 1_555
C10_3 C11_3 1_555 1_555
Cu8_2 I7_2 1_555 1_555
N4_3 H17_3 1_555 1_555
Cu6_2 I5_2 1_555 1_555
Cu6_2 I6_2 1_555 1_555
Cu7_2 I5_2 1_555 1_555
Cu7_2 I6_2 1_555 1_555
O3_4 Pr3_2 1_555 1_555
O5_4 Pr3_2 1_555 1_555
O10_2 C18_4 1_555 1_555
O7_4 Pr3_2 1_555 1_555
N6 C13_4 1_555 1_555
C12_4 O3_4 1_555 1_555
C13_4 H9_4 1_555 1_555
C14_4 C13_4 1_555 1_555
H10_4 C14_4 1_555 1_555
C15_4 C14_4 1_555 1_555
C16_4 C15_4 1_555 1_555
H11_4 C16_4 1_555 1_555
C17_4 N6 1_555 1_555
H12_4 C17_4 1_555 1_555
C18_4 O5_4 1_555 1_555
N4_4 C19_4 1_555 1_555
C19_4 O7_4 1_555 1_555
H13_4 C19_4 1_555 1_555
C15_4 C18_4 1_555 1_555
C16_4 C17_4 1_555 1_555
N4_4 H17_4 1_555 1_555
H5_4 C7_4 1_555 1_555
C8_4 C7_4 1_555 1_555
H6_4 C8_4 1_555 1_555
H14_4 C20_4 1_555 1_555
H15_4 C20_4 1_555 1_555
H16_4 C20_4 1_555 1_555
O8_2 C6_4 1_555 1_555
O2_4 C6_4 1_555 1_555
N5_2 C1_4 1_555 1_555
C1_4 H1_4 1_555 1_555
C2_4 C1_4 1_555 1_555
H2_4 C2_4 1_555 1_555
C3_4 C2_4 1_555 1_555
C4_4 C3_4 1_555 1_555
H3_4 C4_4 1_555 1_555
C5_4 N5_2 1_555 1_555
C6_4 C3_4 1_555 1_555
C4_4 C5_4 1_555 1_555
I7_2 Cu7_2 1_555 1_555
N2_4 Cu8_2 1_555 1_555
C10_4 C9_4 1_555 1_555
H7_4 C10_4 1_555 1_555
C11_4 N2_4 1_555 1_555
H8_4 C11_4 1_555 1_555
C10_4 C11_4 1_555 1_555

#END
