
###############################################################################
#
# This file contains modified crystal structure data generated from the
# MOF subset of the Cambridge Structural Database (CSD) v543 
# hosted by the Cambridge Crystallographic Data Centre (CCDC).
#
# This work is licensed under the Creative Commons
# Attribution-NonCommercial-ShareAlike 4.0 International License.
# To view a copy of this license, visit
# http://creativecommons.org/licenses/by-nc-sa/4.0/
# or send a letter to
# Creative Commons, PO Box 1866, Mountain View, CA 94042, USA.
#
# CIF created using the CSD Python API on 29 September 2022
# The structure has been converted into the P1 space group
# The structure has a 3D framework
# The original CSD entry AWASEY is in the monoclinic crystal system
# The framework has been calculated to contain at least 10.0% void space
# The void calculation uses a probe of radius 1.32A, grid spacing 0.4
# H atom positions have been added when not included in the experimental data
# Generated hydrogen atom positions removed from atoms on special positions
#
###############################################################################

data_AWASEY
_chemical_formula_moiety         '(C240 H272 Cu52 I52 K12 N40 O125 Pr14)n'
_symmetry_cell_setting           triclinic
_symmetry_space_group_name_H-M   'P 1'
_symmetry_Int_Tables_number      1
_space_group_name_Hall           'P 1'
loop_
_symmetry_equiv_pos_site_id
_symmetry_equiv_pos_as_xyz
1 x,y,z
_cell_length_a                   30.332(4)
_cell_length_b                   46.354(6)
_cell_length_c                   18.130(3)
_cell_angle_alpha                90
_cell_angle_beta                 116.729(2)
_cell_angle_gamma                90
_cell_volume                     22767.1
loop_
_atom_site_label
_atom_site_type_symbol
_atom_site_fract_x
_atom_site_fract_y
_atom_site_fract_z
Cu2 Cu 0.2267(3) 0.0000 0.8587(8)
Cu7 Cu 0.1730(4) -0.0000 0.7022(8)
I1 I 0.16822(18) 0.0000 0.9427(4)
I2 I 0.21909(16) 0.04797(6) 0.7777(3)
I7 I 0.0790(2) 0.0000 0.6689(5)
Cu17 Cu 0.1449(2) 0.02808(10) 0.8052(5)
K1 K -0.0000 0.8561(2) 0.0000
N2 N 0.1332(5) 0.7383(3) 0.0133(10)
C7 C 0.1019(6) 0.7487(3) 0.0446(7)
H5 H 0.1060 0.7424 0.0971
H6 H 0.0435 0.7752 0.0204
O11 O 0.0000 0.9216(19) 0.0000
Cu16 Cu 0.18292(13) 0.70672(8) 0.0691(2)
O30 O 0.0905(8) 0.8463(4) 0.1146(12)
O31 O 0.0115(6) 0.8053(4) 0.0996(10)
O32 O 0.0060(8) 0.8653(5) 0.1524(14)
H46 H 0.03268 0.928741 0.0413827
Cu2_2 Cu 0.2267(3) 1.0000 0.8587(8)
Cu6 Cu 0.1449(2) 0.97192(10) 0.8052(5)
Cu7_2 Cu 0.1730(4) 1.0000 0.7022(8)
I1_2 I 0.16822(18) 1.0000 0.9427(4)
I7_2 I 0.0790(2) 1.0000 0.6689(5)
K1_2 K 0.0000 0.8561(2) 1.0000
O4 O 0.0091(7) 0.8028(5) 0.7983(11)
C8 C 0.0648(6) 0.7682(3) 0.9990(9)
C9 C 0.0589(5) 0.7774(3) 0.9221(9)
C10 C 0.0902(6) 0.7671(4) 0.8908(8)
H7 H 0.0861 0.7733 0.8383
C11 C 0.1273(6) 0.7475(4) 0.9364(10)
H8 H 0.1486 0.7405 0.9150
C12 C 0.0153(10) 0.7978(6) 0.8680(18)
N4 N 0.1081(10) 0.9364(5) 0.812(2)
C19 C 0.0954(10) 0.9323(5) 0.8760(15)
H13 H 0.1098 0.9440 0.9240
C20 C 0.0617(10) 0.9109(5) 0.8698(15)
H14 H 0.0531 0.9081 0.9135
C21 C 0.0407(9) 0.8937(4) 0.7996(17)
C22 C 0.0534(12) 0.8979(6) 0.7356(16)
H15 H 0.0390 0.8861 0.6876
C23 C 0.0871(13) 0.9192(6) 0.7418(19)
H16 H 0.0957 0.9221 0.6980
C24 C 0.0004(11) 0.8714(7) 0.788(2)
O11_2 O -0.0000 0.9216(19) 1.0000
I12 I 0.21909(16) 0.95203(6) 0.7777(3)
Pr4 Pr 0.51987(14) 0.0000 0.1385(3)
Pr2 Pr 0.48013(14) -0.0000 0.8615(3)
O13 O 0.3974(16) 0.0000 0.742(3)
O14 O 0.4727(16) 0.0476(9) 0.777(3)
O15 O 0.538(3) 0.0000 0.811(7)
O33 O 0.5387(12) 0.0321(6) 0.953(3)
O34 O 0.4352(12) 0.0305(6) 0.904(3)
H42 H 0.387417 0.0201385 0.723253
H52 H 0.526889 0.0130829 0.762572
Cu1 Cu 0.69395(16) 0.84907(8) 0.0869(3)
Cu3 Cu 0.76640(15) 0.81957(8) 0.0888(2)
Cu4 Cu 0.74506(14) 0.81331(8) 0.2092(2)
Cu5 Cu 0.68292(13) 0.79328(8) 0.0691(2)
I4 I 0.77141(7) 0.76705(4) 0.14805(11)
I5 I 0.78741(8) 0.86323(4) 0.18995(14)
I6 I 0.65053(8) 0.81931(5) 0.16905(13)
K1_3 K 1.0000 0.8561(2) 0.0000
N1 N 0.8090(7) 0.8207(3) 0.0306(10)
C1 C 0.8441(7) 0.8420(3) 0.0453(10)
H1 H 0.8529 0.8547 0.0908
H2 H 0.8903 0.8594 0.0032
N5 N 0.6581(9) 0.8861(5) 0.0636(17)
C25 C 0.6647(10) 0.9031(6) 0.1309(14)
H17 H 0.6897 0.8984 0.1844
C26 C 0.6346(12) 0.9270(6) 0.1199(19)
H18 H 0.6391 0.9386 0.1660
C27 C 0.5980(10) 0.9338(5) 0.042(2)
O11_3 O 1.0000 0.9216(19) 0.0000
O16 O 0.5648(12) 0.9695(6) 0.096(3)
C30 C 0.5663(8) 0.9577(4) 0.030(3)
Pr3 Pr 0.07247(6) 0.82788(4) 0.23298(9)
I8 I 0.32427(9) 0.82639(5) 0.05681(12)
O18 O 0.1387(9) 0.8133(6) 0.1926(13)
O21 O 0.1515(7) 0.8228(6) 0.3642(12)
O22 O 0.0857(8) 0.8115(6) 0.3762(12)
O24 O 0.0217(9) 0.8604(5) 0.2843(14)
C32 C 0.1337(6) 0.8448(4) 0.0068(12)
C33 C 0.1466(6) 0.8262(4) 0.0735(10)
C34 C 0.1818(7) 0.8048(4) 0.0881(9)
H23 H 0.1906 0.7921 0.1337
C35 C 0.2040(6) 0.8021(3) 0.0361(11)
H24 H 0.2280 0.7875 0.0461
C36 C 0.1251(9) 0.8287(5) 0.1339(15)
N8 N 0.2200(6) 0.8091(4) 0.6690(8)
C43 C 0.2404(6) 0.8194(5) 0.6191(11)
H29 H 0.2741 0.8251 0.6431
C44 C 0.2116(7) 0.8213(5) 0.5342(10)
H30 H 0.2256 0.8284 0.5001
C45 C 0.1623(7) 0.8130(4) 0.4991(8)
C46 C 0.1419(5) 0.8027(5) 0.5489(10)
H31 H 0.1082 0.7970 0.5249
C47 C 0.1707(7) 0.8007(5) 0.6339(10)
H32 H 0.1568 0.7937 0.6679
C48 C 0.1324(11) 0.8162(8) 0.4101(16)
O25 O 0.0867(11) 0.7740(6) 0.2465(18)
O26 O 0.1157(10) 0.8764(7) 0.276(2)
C58 C 0.4086(11) 0.9168(7) 0.0257(17)
H39 H 0.4337 0.9215 0.0792
C59 C 0.3786(12) 0.8929(6) 0.0147(15)
H40 H 0.3831 0.8813 0.0607
O27 O 0.4613(12) 0.9679(6) 0.047(3)
Cu14 Cu 0.25494(14) 0.81331(8) 0.7908(2)
N12 N 0.6332(5) 0.7617(3) 0.0133(10)
N13 N 0.7800(6) 0.8091(4) 0.3310(8)
Pr4_2 Pr 0.51987(14) 1.0000 0.1385(3)
H45 H 0.973928 0.928741 0.0142756
H55 H 0.0956409 0.891407 0.235823
H56 H 0.119649 0.881524 0.331825
H57 H 0.121498 0.769805 0.259226
H58 H 0.0799292 0.766565 0.291765
Pr1 Pr 0.92753(6) 0.82788(4) 0.76702(9)
I3 I 0.67573(9) 0.82639(5) 0.94319(12)
K1_4 K 1.0000 0.8561(2) 1.0000
O1 O 0.9095(8) 0.8463(4) 0.8854(12)
O2 O 0.8613(9) 0.8133(6) 0.8074(13)
O3 O 0.9885(6) 0.8053(4) 0.9004(10)
O5 O 0.8485(7) 0.8228(6) 0.6358(12)
O6 O 0.9143(8) 0.8115(6) 0.6238(12)
O7 O 0.9940(8) 0.8653(5) 0.8476(14)
O8 O 0.9783(9) 0.8604(5) 0.7157(14)
C2 C 0.8663(6) 0.8448(4) 0.9932(12)
C3 C 0.8534(6) 0.8262(4) 0.9265(10)
C4 C 0.8182(7) 0.8048(4) 0.9119(9)
H3 H 0.8094 0.7921 0.8663
C5 C 0.7960(6) 0.8021(3) 0.9639(11)
H4 H 0.7720 0.7875 0.9539
C6 C 0.8749(9) 0.8287(5) 0.8661(15)
C13 C 0.7596(6) 0.8194(5) 0.3809(11)
H9 H 0.7259 0.8251 0.3569
C14 C 0.7884(7) 0.8213(5) 0.4658(10)
H10 H 0.7744 0.8284 0.4999
C15 C 0.8377(7) 0.8130(4) 0.5009(8)
C16 C 0.8581(5) 0.8027(5) 0.4511(10)
H11 H 0.8918 0.7970 0.4751
C17 C 0.8293(7) 0.8007(5) 0.3661(10)
H12 H 0.8432 0.7937 0.3321
C18 C 0.8676(11) 0.8162(8) 0.5899(16)
O9 O 0.9133(11) 0.7740(6) 0.7535(18)
O10 O 0.8843(10) 0.8764(7) 0.724(2)
C28 C 0.5914(11) 0.9168(7) 0.9743(17)
H19 H 0.5663 0.9215 0.9208
C29 C 0.6214(12) 0.8929(6) 0.9853(15)
H20 H 0.6169 0.8813 0.9393
O11_4 O 1.0000 0.9216(19) 1.0000
Pr2_2 Pr 0.48013(14) 1.0000 0.8615(3)
O12 O 0.5387(12) 0.9679(6) 0.953(3)
O13_2 O 0.3974(16) 1.0000 0.742(3)
O15_2 O 0.538(3) 1.0000 0.811(7)
Cu8 Cu 0.30605(16) 0.84907(8) 0.9131(3)
Cu9 Cu 0.23360(15) 0.81957(8) 0.9112(2)
Cu11 Cu 0.31708(13) 0.79328(8) 0.9309(2)
I9 I 0.22859(7) 0.76705(4) 0.85195(11)
I10 I 0.21259(8) 0.86323(4) 0.81005(14)
I11 I 0.34947(8) 0.81931(5) 0.83095(13)
N6 N 0.1910(7) 0.8207(3) 0.9694(10)
C31 C 0.1559(7) 0.8420(3) 0.9547(10)
H21 H 0.1471 0.8547 0.9092
H22 H 0.1097 0.8594 0.9968
N10 N 0.3419(9) 0.8861(5) 0.9364(17)
C55 C 0.3353(10) 0.9031(6) 0.8691(14)
H37 H 0.3103 0.8984 0.8156
C56 C 0.3654(12) 0.9270(6) 0.8801(19)
H38 H 0.3609 0.9386 0.8340
C57 C 0.4020(10) 0.9338(5) 0.958(2)
O28 O 0.4352(12) 0.9695(6) 0.904(3)
C60 C 0.4337(8) 0.9577(4) 0.970(3)
O29 O 0.4727(16) 0.9524(9) 0.777(3)
N11 N 0.3668(5) 0.7617(3) 0.9867(10)
H41 H 0.373221 0.991261 0.758378
H43 H 0.878502 0.769805 0.740774
H44 H 0.920071 0.766565 0.708235
H47 H 0.904359 0.891407 0.764177
H48 H 0.880351 0.881524 0.668175
H51 H 0.541689 0.980133 0.794043
I13 I 0.83178(18) 0.0000 0.0573(4)
I15 I 0.9210(2) -0.0000 0.3311(5)
Cu12 Cu 0.8551(2) 0.97192(10) 0.1948(5)
O20 O 0.9909(7) 0.8028(5) 0.2017(11)
C38 C 0.9352(6) 0.7682(3) 0.0010(9)
C39 C 0.9411(5) 0.7774(3) 0.0779(9)
C40 C 0.9098(6) 0.7671(4) 0.1092(8)
H27 H 0.9139 0.7733 0.1617
C41 C 0.8727(6) 0.7475(4) 0.0636(10)
H28 H 0.8514 0.7405 0.0850
C42 C 0.9847(10) 0.7978(6) 0.1320(18)
N9 N 0.8919(10) 0.9364(5) 0.188(2)
C49 C 0.9046(10) 0.9323(5) 0.1240(15)
H33 H 0.8902 0.9440 0.0760
C50 C 0.9383(10) 0.9109(5) 0.1302(15)
H34 H 0.9469 0.9081 0.0865
C51 C 0.9593(9) 0.8937(4) 0.2004(17)
C52 C 0.9466(12) 0.8979(6) 0.2644(16)
H35 H 0.9610 0.8861 0.3124
C53 C 0.9129(13) 0.9192(6) 0.2582(19)
H36 H 0.9043 0.9221 0.3020
C54 C 0.9996(11) 0.8714(7) 0.212(2)
I13_2 I 0.83178(18) 1.0000 0.0573(4)
I14 I 0.78091(16) 0.95203(6) 0.2223(3)
I15_2 I 0.9210(2) 1.0000 0.3311(5)
N7 N 0.8668(5) 0.7383(3) 0.9867(10)
C37 C 0.8981(6) 0.7487(3) 0.9554(7)
H25 H 0.8940 0.7424 0.9029
H26 H 0.9565 0.7752 0.9796
Cu15 Cu 0.81708(13) 0.70672(8) 0.9309(2)
O13_3 O 0.6026(16) 0.0000 0.258(3)
O14_2 O 0.5273(16) 0.0476(9) 0.223(3)
O15_3 O 0.462(3) -0.0000 0.189(7)
O33_2 O 0.4613(12) 0.0321(6) 0.047(3)
O34_2 O 0.5648(12) 0.0305(6) 0.096(3)
H42_2 H 0.612583 0.0201385 0.276747
H52_2 H 0.473111 0.0130829 0.237428
O13_4 O 0.6026(16) 1.0000 0.258(3)
O15_4 O 0.462(3) 1.0000 0.189(7)
O29_2 O 0.5273(16) 0.9524(9) 0.223(3)
H41_2 H 0.626779 0.991261 0.241622
H51_2 H 0.458311 0.980133 0.205957
H45_2 H 0.0260719 0.928741 0.985724
Cu2_3 Cu 0.7733(3) 0.0000 0.1413(8)
Cu7_3 Cu 0.8270(4) -0.0000 0.2978(8)
I2_2 I 0.78091(16) 0.04797(6) 0.2223(3)
Cu17_2 Cu 0.8551(2) 0.02808(10) 0.1948(5)
Cu2_4 Cu 0.7733(3) 1.0000 0.1413(8)
Cu7_4 Cu 0.8270(4) 1.0000 0.2978(8)
H46_2 H 0.96732 0.928741 0.958617
Cu1_2 Cu 0.19395(16) 0.34907(8) 0.0869(3)
Cu3_2 Cu 0.26640(15) 0.31957(8) 0.0888(2)
Cu4_2 Cu 0.24506(14) 0.31331(8) 0.2092(2)
Cu5_2 Cu 0.18292(13) 0.29328(8) 0.0691(2)
I4_2 I 0.27141(7) 0.26705(4) 0.14805(11)
I5_2 I 0.28741(8) 0.36323(4) 0.18995(14)
I6_2 I 0.15053(8) 0.31931(5) 0.16905(13)
K1_5 K 0.5000 0.3561(2) 0.0000
N1_2 N 0.3090(7) 0.3207(3) 0.0306(10)
C1_2 C 0.3441(7) 0.3420(3) 0.0453(10)
H1_2 H 0.3529 0.3547 0.0908
H2_2 H 0.3903 0.3594 0.0032
N2_2 N 0.6332(5) 0.2383(3) 0.0133(10)
C7_2 C 0.6019(6) 0.2487(3) 0.0446(7)
H5_2 H 0.6060 0.2424 0.0971
H6_2 H 0.5435 0.2752 0.0204
N5_2 N 0.1581(9) 0.3861(5) 0.0636(17)
C25_2 C 0.1647(10) 0.4031(6) 0.1309(14)
H17_2 H 0.1897 0.3984 0.1844
C26_2 C 0.1346(12) 0.4270(6) 0.1199(19)
H18_2 H 0.1391 0.4386 0.1660
C27_2 C 0.0980(10) 0.4338(5) 0.042(2)
O11_5 O 0.5000 0.4216(19) 0.0000
O16_2 O 0.0648(12) 0.4695(6) 0.096(3)
C30_2 C 0.0663(8) 0.4577(4) 0.030(3)
Cu16_2 Cu 0.68292(13) 0.20672(8) 0.0691(2)
O30_2 O 0.5905(8) 0.3463(4) 0.1146(12)
O31_2 O 0.5115(6) 0.3053(4) 0.0996(10)
O32_2 O 0.5060(8) 0.3653(5) 0.1524(14)
N12_2 N 0.1332(5) 0.2617(3) 0.0133(10)
N13_2 N 0.2800(6) 0.3091(4) 0.3310(8)
Pr4_3 Pr 0.01987(14) 0.5000 0.1385(3)
H45_3 H 0.473928 0.428741 0.0142756
H46_3 H 0.53268 0.428741 0.0413827
Pr1_2 Pr 0.42753(6) 0.32788(4) 0.76702(9)
Cu2_5 Cu 0.7267(3) 0.5000 0.8587(8)
Cu6_2 Cu 0.6449(2) 0.47192(10) 0.8052(5)
Cu7_5 Cu 0.6730(4) 0.5000 0.7022(8)
I1_3 I 0.66822(18) 0.5000 0.9427(4)
I2_3 I 0.71909(16) 0.54797(6) 0.7777(3)
I3_2 I 0.17573(9) 0.32639(5) 0.94319(12)
I7_3 I 0.5790(2) 0.5000 0.6689(5)
K1_6 K 0.5000 0.3561(2) 1.0000
O1_2 O 0.4095(8) 0.3463(4) 0.8854(12)
O2_2 O 0.3613(9) 0.3133(6) 0.8074(13)
O3_2 O 0.4885(6) 0.3053(4) 0.9004(10)
O4_2 O 0.5091(7) 0.3028(5) 0.7983(11)
O5_2 O 0.3485(7) 0.3228(6) 0.6358(12)
O6_2 O 0.4143(8) 0.3115(6) 0.6238(12)
O7_2 O 0.4940(8) 0.3653(5) 0.8476(14)
O8_2 O 0.4783(9) 0.3604(5) 0.7157(14)
C2_2 C 0.3663(6) 0.3448(4) 0.9932(12)
C3_2 C 0.3534(6) 0.3262(4) 0.9265(10)
C4_2 C 0.3182(7) 0.3048(4) 0.9119(9)
H3_2 H 0.3094 0.2921 0.8663
C5_2 C 0.2960(6) 0.3021(3) 0.9639(11)
H4_2 H 0.2720 0.2875 0.9539
C6_2 C 0.3749(9) 0.3287(5) 0.8661(15)
C8_2 C 0.5648(6) 0.2682(3) 0.9990(9)
C9_2 C 0.5589(5) 0.2774(3) 0.9221(9)
C10_2 C 0.5902(6) 0.2671(4) 0.8908(8)
H7_2 H 0.5861 0.2733 0.8383
C11_2 C 0.6273(6) 0.2475(4) 0.9364(10)
H8_2 H 0.6486 0.2405 0.9150
C12_2 C 0.5153(10) 0.2978(6) 0.8680(18)
C13_2 C 0.2596(6) 0.3194(5) 0.3809(11)
H9_2 H 0.2259 0.3251 0.3569
C14_2 C 0.2884(7) 0.3213(5) 0.4658(10)
H10_2 H 0.2744 0.3284 0.4999
C15_2 C 0.3377(7) 0.3130(4) 0.5009(8)
C16_2 C 0.3581(5) 0.3027(5) 0.4511(10)
H11_2 H 0.3918 0.2970 0.4751
C17_2 C 0.3293(7) 0.3007(5) 0.3661(10)
H12_2 H 0.3432 0.2937 0.3321
C18_2 C 0.3676(11) 0.3162(8) 0.5899(16)
N4_2 N 0.6081(10) 0.4364(5) 0.812(2)
C19_2 C 0.5954(10) 0.4323(5) 0.8760(15)
H13_2 H 0.6098 0.4440 0.9240
C20_2 C 0.5617(10) 0.4109(5) 0.8698(15)
H14_2 H 0.5531 0.4081 0.9135
C21_2 C 0.5407(9) 0.3937(4) 0.7996(17)
C22_2 C 0.5534(12) 0.3979(6) 0.7356(16)
H15_2 H 0.5390 0.3861 0.6876
C23_2 C 0.5871(13) 0.4192(6) 0.7418(19)
H16_2 H 0.5957 0.4221 0.6980
C24_2 C 0.5004(11) 0.3714(7) 0.788(2)
O9_2 O 0.4133(11) 0.2740(6) 0.7535(18)
O10_2 O 0.3843(10) 0.3764(7) 0.724(2)
C28_2 C 0.0914(11) 0.4168(7) 0.9743(17)
H19_2 H 0.0663 0.4215 0.9208
C29_2 C 0.1214(12) 0.3929(6) 0.9853(15)
H20_2 H 0.1169 0.3813 0.9393
O11_6 O 0.5000 0.4216(19) 1.0000
O12_2 O 0.0387(12) 0.4679(6) 0.953(3)
O15_5 O 0.038(3) 0.5000 0.811(7)
I12_2 I 0.71909(16) 0.45203(6) 0.7777(3)
Cu17_3 Cu 0.6449(2) 0.52808(10) 0.8052(5)
O33_3 O 0.0387(12) 0.5321(6) 0.953(3)
H43_2 H 0.378502 0.269805 0.740774
H44_2 H 0.420071 0.266565 0.708235
H47_2 H 0.404359 0.391407 0.764177
H48_2 H 0.380351 0.381524 0.668175
Pr3_2 Pr 0.57247(6) 0.32788(4) 0.23298(9)
Cu12_2 Cu 0.3551(2) 0.47192(10) 0.1948(5)
I8_2 I 0.82427(9) 0.32639(5) 0.05681(12)
O18_2 O 0.6387(9) 0.3133(6) 0.1926(13)
O20_2 O 0.4909(7) 0.3028(5) 0.2017(11)
O21_2 O 0.6515(7) 0.3228(6) 0.3642(12)
O22_2 O 0.5857(8) 0.3115(6) 0.3762(12)
O24_2 O 0.5217(9) 0.3604(5) 0.2843(14)
C32_2 C 0.6337(6) 0.3448(4) 0.0068(12)
C33_2 C 0.6466(6) 0.3262(4) 0.0735(10)
C34_2 C 0.6818(7) 0.3048(4) 0.0881(9)
H23_2 H 0.6906 0.2921 0.1337
C35_2 C 0.7040(6) 0.3021(3) 0.0361(11)
H24_2 H 0.7280 0.2875 0.0461
C36_2 C 0.6251(9) 0.3287(5) 0.1339(15)
C38_2 C 0.4352(6) 0.2682(3) 0.0010(9)
C39_2 C 0.4411(5) 0.2774(3) 0.0779(9)
C40_2 C 0.4098(6) 0.2671(4) 0.1092(8)
H27_2 H 0.4139 0.2733 0.1617
C41_2 C 0.3727(6) 0.2475(4) 0.0636(10)
H28_2 H 0.3514 0.2405 0.0850
C42_2 C 0.4847(10) 0.2978(6) 0.1320(18)
N8_2 N 0.7200(6) 0.3091(4) 0.6690(8)
C43_2 C 0.7404(6) 0.3194(5) 0.6191(11)
H29_2 H 0.7741 0.3251 0.6431
C44_2 C 0.7116(7) 0.3213(5) 0.5342(10)
H30_2 H 0.7256 0.3284 0.5001
C45_2 C 0.6623(7) 0.3130(4) 0.4991(8)
C46_2 C 0.6419(5) 0.3027(5) 0.5489(10)
H31_2 H 0.6082 0.2970 0.5249
C47_2 C 0.6707(7) 0.3007(5) 0.6339(10)
H32_2 H 0.6568 0.2937 0.6679
C48_2 C 0.6324(11) 0.3162(8) 0.4101(16)
N9_2 N 0.3919(10) 0.4364(5) 0.188(2)
C49_2 C 0.4046(10) 0.4323(5) 0.1240(15)
H33_2 H 0.3902 0.4440 0.0760
C50_2 C 0.4383(10) 0.4109(5) 0.1302(15)
H34_2 H 0.4469 0.4081 0.0865
C51_2 C 0.4593(9) 0.3937(4) 0.2004(17)
C52_2 C 0.4466(12) 0.3979(6) 0.2644(16)
H35_2 H 0.4610 0.3861 0.3124
C53_2 C 0.4129(13) 0.4192(6) 0.2582(19)
H36_2 H 0.4043 0.4221 0.3020
C54_2 C 0.4996(11) 0.3714(7) 0.212(2)
O25_2 O 0.5867(11) 0.2740(6) 0.2465(18)
O26_2 O 0.6157(10) 0.3764(7) 0.276(2)
C58_2 C 0.9086(11) 0.4168(7) 0.0257(17)
H39_2 H 0.9337 0.4215 0.0792
C59_2 C 0.8786(12) 0.3929(6) 0.0147(15)
H40_2 H 0.8831 0.3813 0.0607
O27_2 O 0.9613(12) 0.4679(6) 0.047(3)
Cu14_2 Cu 0.75494(14) 0.31331(8) 0.7908(2)
I13_3 I 0.33178(18) 0.5000 0.0573(4)
I14_2 I 0.28091(16) 0.45203(6) 0.2223(3)
I15_3 I 0.4210(2) 0.5000 0.3311(5)
H55_2 H 0.595641 0.391407 0.235823
H56_2 H 0.619649 0.381524 0.331825
H57_2 H 0.621498 0.269805 0.259226
H58_2 H 0.579929 0.266565 0.291765
Pr2_3 Pr 0.98013(14) 0.5000 0.8615(3)
O13_5 O 0.8974(16) 0.5000 0.742(3)
O14_3 O 0.9727(16) 0.5476(9) 0.777(3)
Cu8_2 Cu 0.80605(16) 0.34907(8) 0.9131(3)
Cu9_2 Cu 0.73360(15) 0.31957(8) 0.9112(2)
Cu11_2 Cu 0.81708(13) 0.29328(8) 0.9309(2)
I9_2 I 0.72859(7) 0.26705(4) 0.85195(11)
I10_2 I 0.71259(8) 0.36323(4) 0.81005(14)
I11_2 I 0.84947(8) 0.31931(5) 0.83095(13)
N6_2 N 0.6910(7) 0.3207(3) 0.9694(10)
C31_2 C 0.6559(7) 0.3420(3) 0.9547(10)
H21_2 H 0.6471 0.3547 0.9092
H22_2 H 0.6097 0.3594 0.9968
N7_2 N 0.3668(5) 0.2383(3) 0.9867(10)
C37_2 C 0.3981(6) 0.2487(3) 0.9554(7)
H25_2 H 0.3940 0.2424 0.9029
H26_2 H 0.4565 0.2752 0.9796
N10_2 N 0.8419(9) 0.3861(5) 0.9364(17)
C55_2 C 0.8353(10) 0.4031(6) 0.8691(14)
H37_2 H 0.8103 0.3984 0.8156
C56_2 C 0.8654(12) 0.4270(6) 0.8801(19)
H38_2 H 0.8609 0.4386 0.8340
C57_2 C 0.9020(10) 0.4338(5) 0.958(2)
O28_2 O 0.9352(12) 0.4695(6) 0.904(3)
C60_2 C 0.9337(8) 0.4577(4) 0.970(3)
O29_3 O 0.9727(16) 0.4524(9) 0.777(3)
Cu15_2 Cu 0.31708(13) 0.20672(8) 0.9309(2)
N11_2 N 0.8668(5) 0.2617(3) 0.9867(10)
O34_3 O 0.9352(12) 0.5305(6) 0.904(3)
O13_6 O 0.1026(16) 0.5000 0.258(3)
O14_4 O 0.0273(16) 0.5476(9) 0.223(3)
O29_4 O 0.0273(16) 0.4524(9) 0.223(3)
O34_4 O 0.0648(12) 0.5305(6) 0.096(3)
Cu2_6 Cu 0.2733(3) 0.5000 0.1413(8)
Cu7_6 Cu 0.3270(4) 0.5000 0.2978(8)
I2_4 I 0.28091(16) 0.54797(6) 0.2223(3)
O15_6 O 0.962(3) 0.5000 0.189(7)
Cu17_4 Cu 0.3551(2) 0.52808(10) 0.1948(5)
O33_4 O 0.9613(12) 0.5321(6) 0.047(3)
H45_4 H 0.526072 0.428741 0.985724
H46_4 H 0.46732 0.428741 0.958617
C37_3 C 0.1019(6) 0.2513(3) 0.0446(7)
H25_3 H 0.1060 0.2576 0.0971
H26_3 H 0.0435 0.2248 0.0204
K2 K -0.0000 0.1439(2) -0.0000
O20_3 O 0.0091(7) 0.1972(5) 0.7983(11)
C38_3 C 0.0648(6) 0.2318(3) 0.9990(9)
C39_3 C 0.0589(5) 0.2226(3) 0.9221(9)
C40_3 C 0.0902(6) 0.2329(4) 0.8908(8)
H27_3 H 0.0861 0.2267 0.8383
C41_3 C 0.1273(6) 0.2525(4) 0.9364(10)
H28_3 H 0.1486 0.2595 0.9150
C42_3 C 0.0153(10) 0.2022(6) 0.8680(18)
N9_3 N 0.1081(10) 0.0636(5) 0.812(2)
C49_3 C 0.0954(10) 0.0677(5) 0.8760(15)
H33_3 H 0.1098 0.0560 0.9240
C50_3 C 0.0617(10) 0.0891(5) 0.8698(15)
H34_3 H 0.0531 0.0919 0.9135
C51_3 C 0.0407(9) 0.1063(4) 0.7996(17)
C52_3 C 0.0534(12) 0.1021(6) 0.7356(16)
H35_3 H 0.0390 0.1139 0.6876
C53_3 C 0.0871(13) 0.0808(6) 0.7418(19)
H36_3 H 0.0957 0.0779 0.6980
C54_3 C 0.0004(11) 0.1286(7) 0.788(2)
K2_2 K 0.0000 0.1439(2) 1.0000
Pr1_3 Pr 0.07247(6) 0.17212(4) 0.23298(9)
I3_3 I 0.32427(9) 0.17361(5) 0.05681(12)
O1_3 O 0.0905(8) 0.1537(4) 0.1146(12)
O2_3 O 0.1387(9) 0.1867(6) 0.1926(13)
O3_3 O 0.0115(6) 0.1947(4) 0.0996(10)
O5_3 O 0.1515(7) 0.1772(6) 0.3642(12)
O6_3 O 0.0857(8) 0.1885(6) 0.3762(12)
O7_3 O 0.0060(8) 0.1347(5) 0.1524(14)
O8_3 O 0.0217(9) 0.1396(5) 0.2843(14)
C2_3 C 0.1337(6) 0.1552(4) 0.0068(12)
C3_3 C 0.1466(6) 0.1738(4) 0.0735(10)
C4_3 C 0.1818(7) 0.1952(4) 0.0881(9)
H3_3 H 0.1906 0.2079 0.1337
C5_3 C 0.2040(6) 0.1979(3) 0.0361(11)
H4_3 H 0.2280 0.2125 0.0461
C6_3 C 0.1251(9) 0.1713(5) 0.1339(15)
N3 N 0.2200(6) 0.1909(4) 0.6690(8)
C13_3 C 0.2404(6) 0.1806(5) 0.6191(11)
H9_3 H 0.2741 0.1749 0.6431
C14_3 C 0.2116(7) 0.1787(5) 0.5342(10)
H10_3 H 0.2256 0.1716 0.5001
C15_3 C 0.1623(7) 0.1870(4) 0.4991(8)
C16_3 C 0.1419(5) 0.1973(5) 0.5489(10)
H11_3 H 0.1082 0.2030 0.5249
C17_3 C 0.1707(7) 0.1993(5) 0.6339(10)
H12_3 H 0.1568 0.2063 0.6679
C18_3 C 0.1324(11) 0.1838(8) 0.4101(16)
O9_3 O 0.0867(11) 0.2260(6) 0.2465(18)
O10_3 O 0.1157(10) 0.1236(7) 0.276(2)
C28_3 C 0.4086(11) 0.0832(7) 0.0257(17)
H19_3 H 0.4337 0.0785 0.0792
C29_3 C 0.3786(12) 0.1071(6) 0.0147(15)
H20_3 H 0.3831 0.1187 0.0607
O11_7 O -0.0000 0.0784(19) -0.0000
Cu8_3 Cu 0.69395(16) 0.15093(8) 0.0869(3)
Cu9_3 Cu 0.76640(15) 0.18043(8) 0.0888(2)
Cu10 Cu 0.74506(14) 0.18669(8) 0.2092(2)
I9_3 I 0.77141(7) 0.23295(4) 0.14805(11)
I10_3 I 0.78741(8) 0.13677(4) 0.18995(14)
I11_3 I 0.65053(8) 0.18069(5) 0.16905(13)
N6_3 N 0.8090(7) 0.1793(3) 0.0306(10)
C31_3 C 0.8441(7) 0.1580(3) 0.0453(10)
H21_3 H 0.8529 0.1453 0.0908
H22_3 H 0.8903 0.1406 0.0032
N10_3 N 0.6581(9) 0.1139(5) 0.0636(17)
C55_3 C 0.6647(10) 0.0969(6) 0.1309(14)
H37_3 H 0.6897 0.1016 0.1844
C56_3 C 0.6346(12) 0.0730(6) 0.1199(19)
H38_3 H 0.6391 0.0614 0.1660
C57_3 C 0.5980(10) 0.0662(5) 0.042(2)
C60_3 C 0.5663(8) 0.0423(4) 0.030(3)
Cu13 Cu 0.25494(14) 0.18669(8) 0.7908(2)
K2_3 K 1.0000 0.1439(2) -0.0000
N14 N 0.7800(6) 0.1909(4) 0.3310(8)
H41_3 H 0.626779 0.00873908 0.241622
H43_3 H 0.121498 0.230195 0.259226
H44_3 H 0.0799292 0.233435 0.291765
H47_3 H 0.0956409 0.108593 0.235823
H48_3 H 0.119649 0.118476 0.331825
H51_3 H 0.458311 0.0198668 0.205957
Cu1_3 Cu 0.30605(16) 0.15093(8) 0.9131(3)
Cu3_3 Cu 0.23360(15) 0.18043(8) 0.9112(2)
I4_3 I 0.22859(7) 0.23295(4) 0.85195(11)
I5_3 I 0.21259(8) 0.13677(4) 0.81005(14)
I6_3 I 0.34947(8) 0.18069(5) 0.83095(13)
N1_3 N 0.1910(7) 0.1793(3) 0.9694(10)
C1_3 C 0.1559(7) 0.1580(3) 0.9547(10)
H1_3 H 0.1471 0.1453 0.9092
H2_3 H 0.1097 0.1406 0.9968
N5_3 N 0.3419(9) 0.1139(5) 0.9364(17)
C25_3 C 0.3353(10) 0.0969(6) 0.8691(14)
H17_3 H 0.3103 0.1016 0.8156
C26_3 C 0.3654(12) 0.0730(6) 0.8801(19)
H18_3 H 0.3609 0.0614 0.8340
C27_3 C 0.4020(10) 0.0662(5) 0.958(2)
O11_8 O 0.0000 0.0784(19) 1.0000
C30_3 C 0.4337(8) 0.0423(4) 0.970(3)
Pr3_3 Pr 0.92753(6) 0.17212(4) 0.76702(9)
I8_3 I 0.67573(9) 0.17361(5) 0.94319(12)
O17 O 0.9095(8) 0.1537(4) 0.8854(12)
O18_3 O 0.8613(9) 0.1867(6) 0.8074(13)
O19 O 0.9885(6) 0.1947(4) 0.9004(10)
O21_3 O 0.8485(7) 0.1772(6) 0.6358(12)
O22_3 O 0.9143(8) 0.1885(6) 0.6238(12)
O23 O 0.9940(8) 0.1347(5) 0.8476(14)
O24_3 O 0.9783(9) 0.1396(5) 0.7157(14)
C32_3 C 0.8663(6) 0.1552(4) 0.9932(12)
C33_3 C 0.8534(6) 0.1738(4) 0.9265(10)
C34_3 C 0.8182(7) 0.1952(4) 0.9119(9)
H23_3 H 0.8094 0.2079 0.8663
C35_3 C 0.7960(6) 0.1979(3) 0.9639(11)
H24_3 H 0.7720 0.2125 0.9539
C36_3 C 0.8749(9) 0.1713(5) 0.8661(15)
C43_3 C 0.7596(6) 0.1806(5) 0.3809(11)
H29_3 H 0.7259 0.1749 0.3569
C44_3 C 0.7884(7) 0.1787(5) 0.4658(10)
H30_3 H 0.7744 0.1716 0.4999
C45_3 C 0.8377(7) 0.1870(4) 0.5009(8)
C46_3 C 0.8581(5) 0.1973(5) 0.4511(10)
H31_3 H 0.8918 0.2030 0.4751
C47_3 C 0.8293(7) 0.1993(5) 0.3661(10)
H32_3 H 0.8432 0.2063 0.3321
C48_3 C 0.8676(11) 0.1838(8) 0.5899(16)
O25_3 O 0.9133(11) 0.2260(6) 0.7535(18)
O26_3 O 0.8843(10) 0.1236(7) 0.724(2)
C58_3 C 0.5914(11) 0.0832(7) 0.9743(17)
H39_3 H 0.5663 0.0785 0.9208
C59_3 C 0.6214(12) 0.1071(6) 0.9853(15)
H40_3 H 0.6169 0.1187 0.9393
K2_4 K 1.0000 0.1439(2) 1.0000
H45_5 H 0.0260719 0.0712593 0.985724
H55_3 H 0.904359 0.108593 0.764177
H56_3 H 0.880351 0.118476 0.668175
H57_3 H 0.878502 0.230195 0.740774
H58_3 H 0.920071 0.233435 0.708235
H42_3 H 0.612583 0.979862 0.276747
H52_3 H 0.473111 0.986917 0.237428
O4_3 O 0.9909(7) 0.1972(5) 0.2017(11)
C8_3 C 0.9352(6) 0.2318(3) 0.0010(9)
C9_3 C 0.9411(5) 0.2226(3) 0.0779(9)
C10_3 C 0.9098(6) 0.2329(4) 0.1092(8)
H7_3 H 0.9139 0.2267 0.1617
C11_3 C 0.8727(6) 0.2525(4) 0.0636(10)
H8_3 H 0.8514 0.2595 0.0850
C12_3 C 0.9847(10) 0.2022(6) 0.1320(18)
N4_3 N 0.8919(10) 0.0636(5) 0.188(2)
C19_3 C 0.9046(10) 0.0677(5) 0.1240(15)
H13_3 H 0.8902 0.0560 0.0760
C20_3 C 0.9383(10) 0.0891(5) 0.1302(15)
H14_3 H 0.9469 0.0919 0.0865
C21_3 C 0.9593(9) 0.1063(4) 0.2004(17)
C22_3 C 0.9466(12) 0.1021(6) 0.2644(16)
H15_3 H 0.9610 0.1139 0.3124
C23_3 C 0.9129(13) 0.0808(6) 0.2582(19)
H16_3 H 0.9043 0.0779 0.3020
C24_3 C 0.9996(11) 0.1286(7) 0.212(2)
O11_9 O 1.0000 0.0784(19) -0.0000
C7_3 C 0.8981(6) 0.2513(3) 0.9554(7)
H5_3 H 0.8940 0.2576 0.9029
H6_3 H 0.9565 0.2248 0.9796
O11_10 O 1.0000 0.0784(19) 1.0000
H46_5 H 0.96732 0.0712593 0.958617
H46_6 H 0.03268 0.0712593 0.0413827
H45_6 H 0.973928 0.0712593 0.0142756
H41_4 H 0.373221 0.00873908 0.758378
H51_4 H 0.541689 0.0198668 0.794043
H42_4 H 0.387417 0.979862 0.723253
H52_4 H 0.526889 0.986917 0.762572
Cu8_4 Cu 0.19395(16) 0.65093(8) 0.0869(3)
Cu9_4 Cu 0.26640(15) 0.68043(8) 0.0888(2)
Cu10_2 Cu 0.24506(14) 0.68669(8) 0.2092(2)
I9_4 I 0.27141(7) 0.73295(4) 0.14805(11)
I10_4 I 0.28741(8) 0.63677(4) 0.18995(14)
I11_4 I 0.15053(8) 0.68069(5) 0.16905(13)
N6_4 N 0.3090(7) 0.6793(3) 0.0306(10)
C31_4 C 0.3441(7) 0.6580(3) 0.0453(10)
H21_4 H 0.3529 0.6453 0.0908
H22_4 H 0.3903 0.6406 0.0032
C37_4 C 0.6019(6) 0.7513(3) 0.0446(7)
H25_4 H 0.6060 0.7576 0.0971
H26_4 H 0.5435 0.7248 0.0204
N10_4 N 0.1581(9) 0.6139(5) 0.0636(17)
C55_4 C 0.1647(10) 0.5969(6) 0.1309(14)
H37_4 H 0.1897 0.6016 0.1844
C56_4 C 0.1346(12) 0.5730(6) 0.1199(19)
H38_4 H 0.1391 0.5614 0.1660
C57_4 C 0.0980(10) 0.5662(5) 0.042(2)
C60_4 C 0.0663(8) 0.5423(4) 0.030(3)
K2_5 K 0.5000 0.6439(2) -0.0000
N14_2 N 0.2800(6) 0.6909(4) 0.3310(8)
Pr3_4 Pr 0.42753(6) 0.67212(4) 0.76702(9)
I8_4 I 0.17573(9) 0.67361(5) 0.94319(12)
O17_2 O 0.4095(8) 0.6537(4) 0.8854(12)
O18_4 O 0.3613(9) 0.6867(6) 0.8074(13)
O19_2 O 0.4885(6) 0.6947(4) 0.9004(10)
O20_4 O 0.5091(7) 0.6972(5) 0.7983(11)
O21_4 O 0.3485(7) 0.6772(6) 0.6358(12)
O22_4 O 0.4143(8) 0.6885(6) 0.6238(12)
O23_2 O 0.4940(8) 0.6347(5) 0.8476(14)
O24_4 O 0.4783(9) 0.6396(5) 0.7157(14)
C32_4 C 0.3663(6) 0.6552(4) 0.9932(12)
C33_4 C 0.3534(6) 0.6738(4) 0.9265(10)
C34_4 C 0.3182(7) 0.6952(4) 0.9119(9)
H23_4 H 0.3094 0.7079 0.8663
C35_4 C 0.2960(6) 0.6979(3) 0.9639(11)
H24_4 H 0.2720 0.7125 0.9539
C36_4 C 0.3749(9) 0.6713(5) 0.8661(15)
C38_4 C 0.5648(6) 0.7318(3) 0.9990(9)
C39_4 C 0.5589(5) 0.7226(3) 0.9221(9)
C40_4 C 0.5902(6) 0.7329(4) 0.8908(8)
H27_4 H 0.5861 0.7267 0.8383
C41_4 C 0.6273(6) 0.7525(4) 0.9364(10)
H28_4 H 0.6486 0.7595 0.9150
C42_4 C 0.5153(10) 0.7022(6) 0.8680(18)
C43_4 C 0.2596(6) 0.6806(5) 0.3809(11)
H29_4 H 0.2259 0.6749 0.3569
C44_4 C 0.2884(7) 0.6787(5) 0.4658(10)
H30_4 H 0.2744 0.6716 0.4999
C45_4 C 0.3377(7) 0.6870(4) 0.5009(8)
C46_4 C 0.3581(5) 0.6973(5) 0.4511(10)
H31_4 H 0.3918 0.7030 0.4751
C47_4 C 0.3293(7) 0.6993(5) 0.3661(10)
H32_4 H 0.3432 0.7063 0.3321
C48_4 C 0.3676(11) 0.6838(8) 0.5899(16)
N9_4 N 0.6081(10) 0.5636(5) 0.812(2)
C49_4 C 0.5954(10) 0.5677(5) 0.8760(15)
H33_4 H 0.6098 0.5560 0.9240
C50_4 C 0.5617(10) 0.5891(5) 0.8698(15)
H34_4 H 0.5531 0.5919 0.9135
C51_4 C 0.5407(9) 0.6063(4) 0.7996(17)
C52_4 C 0.5534(12) 0.6021(6) 0.7356(16)
H35_4 H 0.5390 0.6139 0.6876
C53_4 C 0.5871(13) 0.5808(6) 0.7418(19)
H36_4 H 0.5957 0.5779 0.6980
C54_4 C 0.5004(11) 0.6286(7) 0.788(2)
O25_4 O 0.4133(11) 0.7260(6) 0.7535(18)
O26_4 O 0.3843(10) 0.6236(7) 0.724(2)
C58_4 C 0.0914(11) 0.5832(7) 0.9743(17)
H39_4 H 0.0663 0.5785 0.9208
C59_4 C 0.1214(12) 0.6071(6) 0.9853(15)
H40_4 H 0.1169 0.6187 0.9393
K2_6 K 0.5000 0.6439(2) 1.0000
H55_4 H 0.404359 0.608593 0.764177
H56_4 H 0.380351 0.618476 0.668175
H57_4 H 0.378502 0.730195 0.740774
H58_4 H 0.420071 0.733435 0.708235
Pr1_4 Pr 0.57247(6) 0.67212(4) 0.23298(9)
I3_4 I 0.82427(9) 0.67361(5) 0.05681(12)
O1_4 O 0.5905(8) 0.6537(4) 0.1146(12)
O2_4 O 0.6387(9) 0.6867(6) 0.1926(13)
O3_4 O 0.5115(6) 0.6947(4) 0.0996(10)
O4_4 O 0.4909(7) 0.6972(5) 0.2017(11)
O5_4 O 0.6515(7) 0.6772(6) 0.3642(12)
O6_4 O 0.5857(8) 0.6885(6) 0.3762(12)
O7_4 O 0.5060(8) 0.6347(5) 0.1524(14)
O8_4 O 0.5217(9) 0.6396(5) 0.2843(14)
C2_4 C 0.6337(6) 0.6552(4) 0.0068(12)
C3_4 C 0.6466(6) 0.6738(4) 0.0735(10)
C4_4 C 0.6818(7) 0.6952(4) 0.0881(9)
H3_4 H 0.6906 0.7079 0.1337
C5_4 C 0.7040(6) 0.6979(3) 0.0361(11)
H4_4 H 0.7280 0.7125 0.0461
C6_4 C 0.6251(9) 0.6713(5) 0.1339(15)
C8_4 C 0.4352(6) 0.7318(3) 0.0010(9)
C9_4 C 0.4411(5) 0.7226(3) 0.0779(9)
C10_4 C 0.4098(6) 0.7329(4) 0.1092(8)
H7_4 H 0.4139 0.7267 0.1617
C11_4 C 0.3727(6) 0.7525(4) 0.0636(10)
H8_4 H 0.3514 0.7595 0.0850
C12_4 C 0.4847(10) 0.7022(6) 0.1320(18)
N3_2 N 0.7200(6) 0.6909(4) 0.6690(8)
C13_4 C 0.7404(6) 0.6806(5) 0.6191(11)
H9_4 H 0.7741 0.6749 0.6431
C14_4 C 0.7116(7) 0.6787(5) 0.5342(10)
H10_4 H 0.7256 0.6716 0.5001
C15_4 C 0.6623(7) 0.6870(4) 0.4991(8)
C16_4 C 0.6419(5) 0.6973(5) 0.5489(10)
H11_4 H 0.6082 0.7030 0.5249
C17_4 C 0.6707(7) 0.6993(5) 0.6339(10)
H12_4 H 0.6568 0.7063 0.6679
C18_4 C 0.6324(11) 0.6838(8) 0.4101(16)
N4_4 N 0.3919(10) 0.5636(5) 0.188(2)
C19_4 C 0.4046(10) 0.5677(5) 0.1240(15)
H13_4 H 0.3902 0.5560 0.0760
C20_4 C 0.4383(10) 0.5891(5) 0.1302(15)
H14_4 H 0.4469 0.5919 0.0865
C21_4 C 0.4593(9) 0.6063(4) 0.2004(17)
C22_4 C 0.4466(12) 0.6021(6) 0.2644(16)
H15_4 H 0.4610 0.6139 0.3124
C23_4 C 0.4129(13) 0.5808(6) 0.2582(19)
H16_4 H 0.4043 0.5779 0.3020
C24_4 C 0.4996(11) 0.6286(7) 0.212(2)
O9_4 O 0.5867(11) 0.7260(6) 0.2465(18)
O10_4 O 0.6157(10) 0.6236(7) 0.276(2)
C28_4 C 0.9086(11) 0.5832(7) 0.0257(17)
H19_4 H 0.9337 0.5785 0.0792
C29_4 C 0.8786(12) 0.6071(6) 0.0147(15)
H20_4 H 0.8831 0.6187 0.0607
O11_11 O 0.5000 0.5784(19) -0.0000
Cu13_2 Cu 0.75494(14) 0.68669(8) 0.7908(2)
H43_4 H 0.621498 0.730195 0.259226
H44_4 H 0.579929 0.733435 0.291765
H47_4 H 0.595641 0.608593 0.235823
H48_4 H 0.619649 0.618476 0.331825
Cu1_4 Cu 0.80605(16) 0.65093(8) 0.9131(3)
Cu3_4 Cu 0.73360(15) 0.68043(8) 0.9112(2)
I4_4 I 0.72859(7) 0.73295(4) 0.85195(11)
I5_4 I 0.71259(8) 0.63677(4) 0.81005(14)
I6_4 I 0.84947(8) 0.68069(5) 0.83095(13)
N1_4 N 0.6910(7) 0.6793(3) 0.9694(10)
C1_4 C 0.6559(7) 0.6580(3) 0.9547(10)
H1_4 H 0.6471 0.6453 0.9092
H2_4 H 0.6097 0.6406 0.9968
C7_4 C 0.3981(6) 0.7513(3) 0.9554(7)
H5_4 H 0.3940 0.7576 0.9029
H6_4 H 0.4565 0.7248 0.9796
N5_4 N 0.8419(9) 0.6139(5) 0.9364(17)
C25_4 C 0.8353(10) 0.5969(6) 0.8691(14)
H17_4 H 0.8103 0.6016 0.8156
C26_4 C 0.8654(12) 0.5730(6) 0.8801(19)
H18_4 H 0.8609 0.5614 0.8340
C27_4 C 0.9020(10) 0.5662(5) 0.958(2)
O11_12 O 0.5000 0.5784(19) 1.0000
C30_4 C 0.9337(8) 0.5423(4) 0.970(3)
H45_7 H 0.526072 0.571259 0.985724
H46_7 H 0.46732 0.571259 0.958617
H45_8 H 0.473928 0.571259 0.0142756
H46_8 H 0.53268 0.571259 0.0413827
loop_
_geom_bond_atom_site_label_1
_geom_bond_atom_site_label_2
_geom_bond_site_symmetry_1
_geom_bond_site_symmetry_2
Cu2 I1 1_555 1_555
Cu7 I2 1_555 1_555
I1 Cu17 1_555 1_555
I2 Cu2 1_555 1_555
Cu17 I2 1_555 1_555
Cu7 I7 1_555 1_555
I7 Cu17 1_555 1_555
N2 C7 1_555 1_555
C7 H5 1_555 1_555
O11 K1 1_555 1_555
Cu16 N2 1_555 1_555
O30 K1 1_555 1_555
O31 K1 1_555 1_555
O32 K1 1_555 1_555
O11 H46 1_555 1_555
Cu2_2 I1_2 1_555 1_555
Cu6 I1_2 1_555 1_555
I7_2 Cu6 1_555 1_555
C9 C8 1_555 1_555
C10 C9 1_555 1_555
H7 C10 1_555 1_555
H8 C11 1_555 1_555
N4 Cu6 1_555 1_555
C19 N4 1_555 1_555
H13 C19 1_555 1_555
C20 C19 1_555 1_555
H14 C20 1_555 1_555
C21 C20 1_555 1_555
C22 C21 1_555 1_555
H15 C22 1_555 1_555
C23 N4 1_555 1_555
H16 C23 1_555 1_555
O11_2 K1_2 1_555 1_555
I12 Cu2_2 1_555 1_555
Cu6 I12 1_555 1_555
Cu7_2 I7_2 1_555 1_555
Cu7_2 I12 1_555 1_555
O4 C12 1_555 1_555
C9 C12 1_555 1_555
C10 C11 1_555 1_555
C21 C24 1_555 1_555
C22 C23 1_555 1_555
O13 Pr2 1_555 1_555
O14 Pr2 1_555 1_555
O15 Pr2 1_555 1_555
O33 Pr2 1_555 1_555
O34 Pr2 1_555 1_555
O13 H42 1_555 1_555
O15 H52 1_555 1_555
Cu4 I4 1_555 1_555
I4 Cu3 1_555 1_555
I5 Cu1 1_555 1_555
I6 Cu1 1_555 1_555
N1 Cu3 1_555 1_555
C1 N1 1_555 1_555
H1 C1 1_555 1_555
N5 Cu1 1_555 1_555
C25 N5 1_555 1_555
H17 C25 1_555 1_555
C26 C25 1_555 1_555
H18 C26 1_555 1_555
C27 C26 1_555 1_555
O11_3 K1_3 1_555 1_555
O16 C30 1_555 1_555
C30 C27 1_555 1_555
Pr3 O30 1_555 1_555
O30 C36 1_555 1_555
O18 Pr3 1_555 1_555
O31 Pr3 1_555 1_555
O21 Pr3 1_555 1_555
O22 Pr3 1_555 1_555
O32 Pr3 1_555 1_555
O24 Pr3 1_555 1_555
C33 C32 1_555 1_555
C34 C33 1_555 1_555
H23 C34 1_555 1_555
H24 C35 1_555 1_555
C36 O18 1_555 1_555
N8 C43 1_555 1_555
C43 H29 1_555 1_555
C44 C43 1_555 1_555
H30 C44 1_555 1_555
C45 C44 1_555 1_555
C46 C45 1_555 1_555
H31 C46 1_555 1_555
C47 N8 1_555 1_555
H32 C47 1_555 1_555
C48 O21 1_555 1_555
O25 Pr3 1_555 1_555
O26 Pr3 1_555 1_555
H39 C58 1_555 1_555
H40 C59 1_555 1_555
Cu14 N8 1_555 1_555
N12 Cu5 1_555 1_555
N13 Cu4 1_555 1_555
Pr4_2 O16 1_555 1_555
Cu3 I5 1_555 1_555
Cu4 I5 1_555 1_555
Cu4 I6 1_555 1_555
Cu5 I4 1_555 1_555
Cu5 I6 1_555 1_555
O22 C48 1_555 1_555
C33 C36 1_555 1_555
C34 C35 1_555 1_555
C45 C48 1_555 1_555
C46 C47 1_555 1_555
C58 C59 1_555 1_555
O27 Pr4_2 1_555 1_555
O11_3 H45 1_555 1_555
O26 H55 1_555 1_555
O26 H56 1_555 1_555
O25 H57 1_555 1_555
O25 H58 1_555 1_555
Pr1 O1 1_555 1_555
K1_4 O1 1_555 1_555
O1 C6 1_555 1_555
O2 Pr1 1_555 1_555
O3 Pr1 1_555 1_555
O5 Pr1 1_555 1_555
O6 Pr1 1_555 1_555
O7 Pr1 1_555 1_555
O8 Pr1 1_555 1_555
C3 C2 1_555 1_555
C4 C3 1_555 1_555
H3 C4 1_555 1_555
H4 C5 1_555 1_555
C6 O2 1_555 1_555
N13 C13 1_555 1_555
C13 H9 1_555 1_555
C14 C13 1_555 1_555
H10 C14 1_555 1_555
C15 C14 1_555 1_555
C16 C15 1_555 1_555
H11 C16 1_555 1_555
C17 N13 1_555 1_555
H12 C17 1_555 1_555
C18 O5 1_555 1_555
O9 Pr1 1_555 1_555
O10 Pr1 1_555 1_555
H19 C28 1_555 1_555
H20 C29 1_555 1_555
O11_4 K1_4 1_555 1_555
Pr2_2 O12 1_555 1_555
O13_2 Pr2_2 1_555 1_555
O15_2 Pr2_2 1_555 1_555
Cu14 I9 1_555 1_555
I9 Cu9 1_555 1_555
I10 Cu8 1_555 1_555
I11 Cu8 1_555 1_555
N6 Cu9 1_555 1_555
C31 N6 1_555 1_555
H21 C31 1_555 1_555
N10 Cu8 1_555 1_555
C55 N10 1_555 1_555
H37 C55 1_555 1_555
C56 C55 1_555 1_555
H38 C56 1_555 1_555
C57 C56 1_555 1_555
O28 Pr2_2 1_555 1_555
C60 C57 1_555 1_555
O29 Pr2_2 1_555 1_555
N11 Cu11 1_555 1_555
K1_4 O3 1_555 1_555
K1_4 O7 1_555 1_555
O6 C18 1_555 1_555
C3 C6 1_555 1_555
C4 C5 1_555 1_555
C15 C18 1_555 1_555
C16 C17 1_555 1_555
C28 C29 1_555 1_555
Cu9 I10 1_555 1_555
Cu14 I10 1_555 1_555
Cu14 I11 1_555 1_555
Cu11 I9 1_555 1_555
Cu11 I11 1_555 1_555
O28 C60 1_555 1_555
O13_2 H41 1_555 1_555
O9 H43 1_555 1_555
O9 H44 1_555 1_555
O10 H47 1_555 1_555
O10 H48 1_555 1_555
O15_2 H51 1_555 1_555
Cu12 N9 1_555 1_555
C39 C38 1_555 1_555
C40 C39 1_555 1_555
H27 C40 1_555 1_555
H28 C41 1_555 1_555
N9 C49 1_555 1_555
C49 H33 1_555 1_555
C50 C49 1_555 1_555
H34 C50 1_555 1_555
C51 C50 1_555 1_555
C52 C51 1_555 1_555
H35 C52 1_555 1_555
C53 N9 1_555 1_555
H36 C53 1_555 1_555
I13_2 Cu12 1_555 1_555
I14 Cu12 1_555 1_555
I15_2 Cu12 1_555 1_555
O20 C42 1_555 1_555
C39 C42 1_555 1_555
C40 C41 1_555 1_555
C51 C54 1_555 1_555
C52 C53 1_555 1_555
N7 C37 1_555 1_555
C37 H25 1_555 1_555
Cu15 N7 1_555 1_555
O13_3 Pr4 1_555 1_555
O14_2 Pr4 1_555 1_555
O15_3 Pr4 1_555 1_555
O33_2 Pr4 1_555 1_555
O34_2 Pr4 1_555 1_555
O13_3 H42_2 1_555 1_555
O15_3 H52_2 1_555 1_555
O13_4 Pr4_2 1_555 1_555
O15_4 Pr4_2 1_555 1_555
O29_2 Pr4_2 1_555 1_555
O13_4 H41_2 1_555 1_555
O15_4 H51_2 1_555 1_555
O11_2 H45_2 1_555 1_555
Cu2_3 I13 1_555 1_555
Cu7_3 I2_2 1_555 1_555
I13 Cu17_2 1_555 1_555
I2_2 Cu2_3 1_555 1_555
Cu17_2 I2_2 1_555 1_555
Cu7_3 I15 1_555 1_555
I15 Cu17_2 1_555 1_555
Cu2_4 I13_2 1_555 1_555
I14 Cu2_4 1_555 1_555
Cu7_4 I15_2 1_555 1_555
Cu7_4 I14 1_555 1_555
O11_4 H46_2 1_555 1_555
Cu4_2 I4_2 1_555 1_555
I4_2 Cu3_2 1_555 1_555
I5_2 Cu1_2 1_555 1_555
I6_2 Cu1_2 1_555 1_555
N1_2 Cu3_2 1_555 1_555
C1_2 N1_2 1_555 1_555
H1_2 C1_2 1_555 1_555
N2_2 C7_2 1_555 1_555
C7_2 H5_2 1_555 1_555
N5_2 Cu1_2 1_555 1_555
C25_2 N5_2 1_555 1_555
H17_2 C25_2 1_555 1_555
C26_2 C25_2 1_555 1_555
H18_2 C26_2 1_555 1_555
C27_2 C26_2 1_555 1_555
O11_5 K1_5 1_555 1_555
O16_2 C30_2 1_555 1_555
C30_2 C27_2 1_555 1_555
Cu16_2 N2_2 1_555 1_555
O30_2 K1_5 1_555 1_555
O31_2 K1_5 1_555 1_555
O32_2 K1_5 1_555 1_555
N12_2 Cu5_2 1_555 1_555
N13_2 Cu4_2 1_555 1_555
Pr4_3 O16_2 1_555 1_555
Cu3_2 I5_2 1_555 1_555
Cu4_2 I5_2 1_555 1_555
Cu4_2 I6_2 1_555 1_555
Cu5_2 I4_2 1_555 1_555
Cu5_2 I6_2 1_555 1_555
O11_5 H45_3 1_555 1_555
O11_5 H46_3 1_555 1_555
Pr1_2 O1_2 1_555 1_555
Cu2_5 I1_3 1_555 1_555
Cu6_2 I1_3 1_555 1_555
Cu7_5 I2_3 1_555 1_555
I1_3 Cu17_3 1_555 1_555
I2_3 Cu2_5 1_555 1_555
I7_3 Cu6_2 1_555 1_555
K1_6 O1_2 1_555 1_555
O1_2 C6_2 1_555 1_555
O2_2 Pr1_2 1_555 1_555
O3_2 Pr1_2 1_555 1_555
O4_2 Pr1_2 1_555 1_555
O5_2 Pr1_2 1_555 1_555
O6_2 Pr1_2 1_555 1_555
O7_2 Pr1_2 1_555 1_555
O8_2 Pr1_2 1_555 1_555
C3_2 C2_2 1_555 1_555
C4_2 C3_2 1_555 1_555
H3_2 C4_2 1_555 1_555
H4_2 C5_2 1_555 1_555
C6_2 O2_2 1_555 1_555
C9_2 C8_2 1_555 1_555
C10_2 C9_2 1_555 1_555
H7_2 C10_2 1_555 1_555
H8_2 C11_2 1_555 1_555
C12_2 O3_2 1_555 1_555
N13_2 C13_2 1_555 1_555
C13_2 H9_2 1_555 1_555
C14_2 C13_2 1_555 1_555
H10_2 C14_2 1_555 1_555
C15_2 C14_2 1_555 1_555
C16_2 C15_2 1_555 1_555
H11_2 C16_2 1_555 1_555
C17_2 N13_2 1_555 1_555
H12_2 C17_2 1_555 1_555
C18_2 O5_2 1_555 1_555
N4_2 Cu6_2 1_555 1_555
C19_2 N4_2 1_555 1_555
H13_2 C19_2 1_555 1_555
C20_2 C19_2 1_555 1_555
H14_2 C20_2 1_555 1_555
C21_2 C20_2 1_555 1_555
C22_2 C21_2 1_555 1_555
H15_2 C22_2 1_555 1_555
C23_2 N4_2 1_555 1_555
H16_2 C23_2 1_555 1_555
C24_2 O7_2 1_555 1_555
O9_2 Pr1_2 1_555 1_555
O10_2 Pr1_2 1_555 1_555
H19_2 C28_2 1_555 1_555
H20_2 C29_2 1_555 1_555
O11_6 K1_6 1_555 1_555
I12_2 Cu2_5 1_555 1_555
Cu17_3 I2_3 1_555 1_555
Cu6_2 I12_2 1_555 1_555
Cu7_5 I7_3 1_555 1_555
Cu7_5 I12_2 1_555 1_555
I7_3 Cu17_3 1_555 1_555
K1_6 O3_2 1_555 1_555
K1_6 O7_2 1_555 1_555
O4_2 C12_2 1_555 1_555
O6_2 C18_2 1_555 1_555
O8_2 C24_2 1_555 1_555
C3_2 C6_2 1_555 1_555
C4_2 C5_2 1_555 1_555
C9_2 C12_2 1_555 1_555
C10_2 C11_2 1_555 1_555
C15_2 C18_2 1_555 1_555
C16_2 C17_2 1_555 1_555
C21_2 C24_2 1_555 1_555
C22_2 C23_2 1_555 1_555
C28_2 C29_2 1_555 1_555
O9_2 H43_2 1_555 1_555
O9_2 H44_2 1_555 1_555
O10_2 H47_2 1_555 1_555
O10_2 H48_2 1_555 1_555
Pr3_2 O30_2 1_555 1_555
Cu12_2 N9_2 1_555 1_555
O30_2 C36_2 1_555 1_555
O18_2 Pr3_2 1_555 1_555
O31_2 Pr3_2 1_555 1_555
O20_2 Pr3_2 1_555 1_555
O21_2 Pr3_2 1_555 1_555
O22_2 Pr3_2 1_555 1_555
O32_2 Pr3_2 1_555 1_555
O24_2 Pr3_2 1_555 1_555
C33_2 C32_2 1_555 1_555
C34_2 C33_2 1_555 1_555
H23_2 C34_2 1_555 1_555
H24_2 C35_2 1_555 1_555
C36_2 O18_2 1_555 1_555
C39_2 C38_2 1_555 1_555
C40_2 C39_2 1_555 1_555
H27_2 C40_2 1_555 1_555
H28_2 C41_2 1_555 1_555
C42_2 O31_2 1_555 1_555
N8_2 C43_2 1_555 1_555
C43_2 H29_2 1_555 1_555
C44_2 C43_2 1_555 1_555
H30_2 C44_2 1_555 1_555
C45_2 C44_2 1_555 1_555
C46_2 C45_2 1_555 1_555
H31_2 C46_2 1_555 1_555
C47_2 N8_2 1_555 1_555
H32_2 C47_2 1_555 1_555
C48_2 O21_2 1_555 1_555
N9_2 C49_2 1_555 1_555
C49_2 H33_2 1_555 1_555
C50_2 C49_2 1_555 1_555
H34_2 C50_2 1_555 1_555
C51_2 C50_2 1_555 1_555
C52_2 C51_2 1_555 1_555
H35_2 C52_2 1_555 1_555
C53_2 N9_2 1_555 1_555
H36_2 C53_2 1_555 1_555
C54_2 O32_2 1_555 1_555
O25_2 Pr3_2 1_555 1_555
O26_2 Pr3_2 1_555 1_555
H39_2 C58_2 1_555 1_555
H40_2 C59_2 1_555 1_555
Cu14_2 N8_2 1_555 1_555
I13_3 Cu12_2 1_555 1_555
I14_2 Cu12_2 1_555 1_555
I15_3 Cu12_2 1_555 1_555
O20_2 C42_2 1_555 1_555
O22_2 C48_2 1_555 1_555
O24_2 C54_2 1_555 1_555
C33_2 C36_2 1_555 1_555
C34_2 C35_2 1_555 1_555
C39_2 C42_2 1_555 1_555
C40_2 C41_2 1_555 1_555
C45_2 C48_2 1_555 1_555
C46_2 C47_2 1_555 1_555
C51_2 C54_2 1_555 1_555
C52_2 C53_2 1_555 1_555
C58_2 C59_2 1_555 1_555
O26_2 H55_2 1_555 1_555
O26_2 H56_2 1_555 1_555
O25_2 H57_2 1_555 1_555
O25_2 H58_2 1_555 1_555
O13_5 Pr2_3 1_555 1_555
O14_3 Pr2_3 1_555 1_555
Cu14_2 I9_2 1_555 1_555
I9_2 Cu9_2 1_555 1_555
I10_2 Cu8_2 1_555 1_555
I11_2 Cu8_2 1_555 1_555
N6_2 Cu9_2 1_555 1_555
C31_2 N6_2 1_555 1_555
H21_2 C31_2 1_555 1_555
N7_2 C37_2 1_555 1_555
C37_2 H25_2 1_555 1_555
N10_2 Cu8_2 1_555 1_555
C55_2 N10_2 1_555 1_555
H37_2 C55_2 1_555 1_555
C56_2 C55_2 1_555 1_555
H38_2 C56_2 1_555 1_555
C57_2 C56_2 1_555 1_555
O28_2 Pr2_3 1_555 1_555
C60_2 C57_2 1_555 1_555
O29_3 Pr2_3 1_555 1_555
Cu15_2 N7_2 1_555 1_555
N11_2 Cu11_2 1_555 1_555
O34_3 Pr2_3 1_555 1_555
Cu9_2 I10_2 1_555 1_555
Cu14_2 I10_2 1_555 1_555
Cu14_2 I11_2 1_555 1_555
Cu11_2 I9_2 1_555 1_555
Cu11_2 I11_2 1_555 1_555
O28_2 C60_2 1_555 1_555
O13_6 Pr4_3 1_555 1_555
O14_4 Pr4_3 1_555 1_555
O29_4 Pr4_3 1_555 1_555
O34_4 Pr4_3 1_555 1_555
Cu2_6 I13_3 1_555 1_555
Cu7_6 I2_4 1_555 1_555
I13_3 Cu17_4 1_555 1_555
I2_4 Cu2_6 1_555 1_555
I14_2 Cu2_6 1_555 1_555
Cu17_4 I2_4 1_555 1_555
Cu7_6 I15_3 1_555 1_555
Cu7_6 I14_2 1_555 1_555
I15_3 Cu17_4 1_555 1_555
O11_6 H45_4 1_555 1_555
O11_6 H46_4 1_555 1_555
N12_2 C37_3 1_555 1_555
C37_3 H25_3 1_555 1_555
Cu17 N9_3 1_555 1_555
C39_3 C38_3 1_555 1_555
C40_3 C39_3 1_555 1_555
H27_3 C40_3 1_555 1_555
H28_3 C41_3 1_555 1_555
N9_3 C49_3 1_555 1_555
C49_3 H33_3 1_555 1_555
C50_3 C49_3 1_555 1_555
H34_3 C50_3 1_555 1_555
C51_3 C50_3 1_555 1_555
C52_3 C51_3 1_555 1_555
H35_3 C52_3 1_555 1_555
C53_3 N9_3 1_555 1_555
H36_3 C53_3 1_555 1_555
O20_3 C42_3 1_555 1_555
C39_3 C42_3 1_555 1_555
C40_3 C41_3 1_555 1_555
C51_3 C54_3 1_555 1_555
C52_3 C53_3 1_555 1_555
Pr1_3 O1_3 1_555 1_555
K2 O1_3 1_555 1_555
O1_3 C6_3 1_555 1_555
O2_3 Pr1_3 1_555 1_555
O3_3 Pr1_3 1_555 1_555
O5_3 Pr1_3 1_555 1_555
O6_3 Pr1_3 1_555 1_555
O7_3 Pr1_3 1_555 1_555
O8_3 Pr1_3 1_555 1_555
C3_3 C2_3 1_555 1_555
C4_3 C3_3 1_555 1_555
H3_3 C4_3 1_555 1_555
H4_3 C5_3 1_555 1_555
C6_3 O2_3 1_555 1_555
N3 C13_3 1_555 1_555
C13_3 H9_3 1_555 1_555
C14_3 C13_3 1_555 1_555
H10_3 C14_3 1_555 1_555
C15_3 C14_3 1_555 1_555
C16_3 C15_3 1_555 1_555
H11_3 C16_3 1_555 1_555
C17_3 N3 1_555 1_555
H12_3 C17_3 1_555 1_555
C18_3 O5_3 1_555 1_555
O9_3 Pr1_3 1_555 1_555
O10_3 Pr1_3 1_555 1_555
H19_3 C28_3 1_555 1_555
H20_3 C29_3 1_555 1_555
O11_7 K2 1_555 1_555
Cu10 I9_3 1_555 1_555
I9_3 Cu9_3 1_555 1_555
I10_3 Cu8_3 1_555 1_555
I11_3 Cu8_3 1_555 1_555
N6_3 Cu9_3 1_555 1_555
C31_3 N6_3 1_555 1_555
H21_3 C31_3 1_555 1_555
N10_3 Cu8_3 1_555 1_555
C55_3 N10_3 1_555 1_555
H37_3 C55_3 1_555 1_555
C56_3 C55_3 1_555 1_555
H38_3 C56_3 1_555 1_555
C57_3 C56_3 1_555 1_555
C60_3 C57_3 1_555 1_555
Cu13 N3 1_555 1_555
N14 Cu10 1_555 1_555
K2 O3_3 1_555 1_555
K2 O7_3 1_555 1_555
O6_3 C18_3 1_555 1_555
C3_3 C6_3 1_555 1_555
C4_3 C5_3 1_555 1_555
C15_3 C18_3 1_555 1_555
C16_3 C17_3 1_555 1_555
C28_3 C29_3 1_555 1_555
Cu9_3 I10_3 1_555 1_555
Cu10 I10_3 1_555 1_555
Cu10 I11_3 1_555 1_555
Cu16_2 I9_3 1_555 1_555
Cu16_2 I11_3 1_555 1_555
O34_2 C60_3 1_555 1_555
O13_3 H41_3 1_555 1_555
O9_3 H43_3 1_555 1_555
O9_3 H44_3 1_555 1_555
O10_3 H47_3 1_555 1_555
O10_3 H48_3 1_555 1_555
O15_3 H51_3 1_555 1_555
Cu13 I4_3 1_555 1_555
I4_3 Cu3_3 1_555 1_555
I5_3 Cu1_3 1_555 1_555
I6_3 Cu1_3 1_555 1_555
N1_3 Cu3_3 1_555 1_555
C1_3 N1_3 1_555 1_555
H1_3 C1_3 1_555 1_555
N5_3 Cu1_3 1_555 1_555
C25_3 N5_3 1_555 1_555
H17_3 C25_3 1_555 1_555
C26_3 C25_3 1_555 1_555
H18_3 C26_3 1_555 1_555
C27_3 C26_3 1_555 1_555
O11_8 K2_2 1_555 1_555
O34 C30_3 1_555 1_555
C30_3 C27_3 1_555 1_555
Pr3_3 O17 1_555 1_555
O17 C36_3 1_555 1_555
O18_3 Pr3_3 1_555 1_555
O19 Pr3_3 1_555 1_555
O21_3 Pr3_3 1_555 1_555
O22_3 Pr3_3 1_555 1_555
O23 Pr3_3 1_555 1_555
O24_3 Pr3_3 1_555 1_555
C33_3 C32_3 1_555 1_555
C34_3 C33_3 1_555 1_555
H23_3 C34_3 1_555 1_555
H24_3 C35_3 1_555 1_555
C36_3 O18_3 1_555 1_555
N14 C43_3 1_555 1_555
C43_3 H29_3 1_555 1_555
C44_3 C43_3 1_555 1_555
H30_3 C44_3 1_555 1_555
C45_3 C44_3 1_555 1_555
C46_3 C45_3 1_555 1_555
H31_3 C46_3 1_555 1_555
C47_3 N14 1_555 1_555
H32_3 C47_3 1_555 1_555
C48_3 O21_3 1_555 1_555
O25_3 Pr3_3 1_555 1_555
O26_3 Pr3_3 1_555 1_555
H39_3 C58_3 1_555 1_555
H40_3 C59_3 1_555 1_555
K2_4 O17 1_555 1_555
Cu3_3 I5_3 1_555 1_555
Cu13 I5_3 1_555 1_555
Cu13 I6_3 1_555 1_555
Cu15_2 I4_3 1_555 1_555
Cu15_2 I6_3 1_555 1_555
O19 K2_4 1_555 1_555
O22_3 C48_3 1_555 1_555
O23 K2_4 1_555 1_555
C33_3 C36_3 1_555 1_555
C34_3 C35_3 1_555 1_555
C45_3 C48_3 1_555 1_555
C46_3 C47_3 1_555 1_555
C58_3 C59_3 1_555 1_555
O11_8 H45_5 1_555 1_555
O26_3 H55_3 1_555 1_555
O26_3 H56_3 1_555 1_555
O25_3 H57_3 1_555 1_555
O25_3 H58_3 1_555 1_555
O13_4 H42_3 1_555 1_555
O15_4 H52_3 1_555 1_555
C9_3 C8_3 1_555 1_555
C10_3 C9_3 1_555 1_555
H7_3 C10_3 1_555 1_555
H8_3 C11_3 1_555 1_555
N4_3 Cu17_2 1_555 1_555
C19_3 N4_3 1_555 1_555
H13_3 C19_3 1_555 1_555
C20_3 C19_3 1_555 1_555
H14_3 C20_3 1_555 1_555
C21_3 C20_3 1_555 1_555
C22_3 C21_3 1_555 1_555
H15_3 C22_3 1_555 1_555
C23_3 N4_3 1_555 1_555
H16_3 C23_3 1_555 1_555
O11_9 K2_3 1_555 1_555
O4_3 C12_3 1_555 1_555
C9_3 C12_3 1_555 1_555
C10_3 C11_3 1_555 1_555
C21_3 C24_3 1_555 1_555
C22_3 C23_3 1_555 1_555
N11_2 C7_3 1_555 1_555
C7_3 H5_3 1_555 1_555
O11_10 K2_4 1_555 1_555
O11_10 H46_5 1_555 1_555
O11_7 H46_6 1_555 1_555
O11_9 H45_6 1_555 1_555
O13 H41_4 1_555 1_555
O15 H51_4 1_555 1_555
O13_2 H42_4 1_555 1_555
O15_2 H52_4 1_555 1_555
Cu10_2 I9_4 1_555 1_555
I9_4 Cu9_4 1_555 1_555
I10_4 Cu8_4 1_555 1_555
I11_4 Cu8_4 1_555 1_555
N6_4 Cu9_4 1_555 1_555
C31_4 N6_4 1_555 1_555
H21_4 C31_4 1_555 1_555
N12 C37_4 1_555 1_555
C37_4 H25_4 1_555 1_555
N10_4 Cu8_4 1_555 1_555
C55_4 N10_4 1_555 1_555
H37_4 C55_4 1_555 1_555
C56_4 C55_4 1_555 1_555
H38_4 C56_4 1_555 1_555
C57_4 C56_4 1_555 1_555
C60_4 C57_4 1_555 1_555
N14_2 Cu10_2 1_555 1_555
Cu9_4 I10_4 1_555 1_555
Cu10_2 I10_4 1_555 1_555
Cu10_2 I11_4 1_555 1_555
Cu16 I9_4 1_555 1_555
Cu16 I11_4 1_555 1_555
O34_4 C60_4 1_555 1_555
Pr3_4 O17_2 1_555 1_555
Cu17_3 N9_4 1_555 1_555
O17_2 C36_4 1_555 1_555
O18_4 Pr3_4 1_555 1_555
O19_2 Pr3_4 1_555 1_555
O20_4 Pr3_4 1_555 1_555
O21_4 Pr3_4 1_555 1_555
O22_4 Pr3_4 1_555 1_555
O23_2 Pr3_4 1_555 1_555
O24_4 Pr3_4 1_555 1_555
C33_4 C32_4 1_555 1_555
C34_4 C33_4 1_555 1_555
H23_4 C34_4 1_555 1_555
H24_4 C35_4 1_555 1_555
C36_4 O18_4 1_555 1_555
C39_4 C38_4 1_555 1_555
C40_4 C39_4 1_555 1_555
H27_4 C40_4 1_555 1_555
H28_4 C41_4 1_555 1_555
C42_4 O19_2 1_555 1_555
N14_2 C43_4 1_555 1_555
C43_4 H29_4 1_555 1_555
C44_4 C43_4 1_555 1_555
H30_4 C44_4 1_555 1_555
C45_4 C44_4 1_555 1_555
C46_4 C45_4 1_555 1_555
H31_4 C46_4 1_555 1_555
C47_4 N14_2 1_555 1_555
H32_4 C47_4 1_555 1_555
C48_4 O21_4 1_555 1_555
N9_4 C49_4 1_555 1_555
C49_4 H33_4 1_555 1_555
C50_4 C49_4 1_555 1_555
H34_4 C50_4 1_555 1_555
C51_4 C50_4 1_555 1_555
C52_4 C51_4 1_555 1_555
H35_4 C52_4 1_555 1_555
C53_4 N9_4 1_555 1_555
H36_4 C53_4 1_555 1_555
C54_4 O23_2 1_555 1_555
O25_4 Pr3_4 1_555 1_555
O26_4 Pr3_4 1_555 1_555
H39_4 C58_4 1_555 1_555
H40_4 C59_4 1_555 1_555
K2_6 O17_2 1_555 1_555
O19_2 K2_6 1_555 1_555
O20_4 C42_4 1_555 1_555
O22_4 C48_4 1_555 1_555
O23_2 K2_6 1_555 1_555
O24_4 C54_4 1_555 1_555
C33_4 C36_4 1_555 1_555
C34_4 C35_4 1_555 1_555
C39_4 C42_4 1_555 1_555
C40_4 C41_4 1_555 1_555
C45_4 C48_4 1_555 1_555
C46_4 C47_4 1_555 1_555
C51_4 C54_4 1_555 1_555
C52_4 C53_4 1_555 1_555
C58_4 C59_4 1_555 1_555
O26_4 H55_4 1_555 1_555
O26_4 H56_4 1_555 1_555
O25_4 H57_4 1_555 1_555
O25_4 H58_4 1_555 1_555
Pr1_4 O1_4 1_555 1_555
K2_5 O1_4 1_555 1_555
O1_4 C6_4 1_555 1_555
O2_4 Pr1_4 1_555 1_555
O3_4 Pr1_4 1_555 1_555
O4_4 Pr1_4 1_555 1_555
O5_4 Pr1_4 1_555 1_555
O6_4 Pr1_4 1_555 1_555
O7_4 Pr1_4 1_555 1_555
O8_4 Pr1_4 1_555 1_555
C3_4 C2_4 1_555 1_555
C4_4 C3_4 1_555 1_555
H3_4 C4_4 1_555 1_555
H4_4 C5_4 1_555 1_555
C6_4 O2_4 1_555 1_555
C9_4 C8_4 1_555 1_555
C10_4 C9_4 1_555 1_555
H7_4 C10_4 1_555 1_555
H8_4 C11_4 1_555 1_555
C12_4 O3_4 1_555 1_555
N3_2 C13_4 1_555 1_555
C13_4 H9_4 1_555 1_555
C14_4 C13_4 1_555 1_555
H10_4 C14_4 1_555 1_555
C15_4 C14_4 1_555 1_555
C16_4 C15_4 1_555 1_555
H11_4 C16_4 1_555 1_555
C17_4 N3_2 1_555 1_555
H12_4 C17_4 1_555 1_555
C18_4 O5_4 1_555 1_555
N4_4 Cu17_4 1_555 1_555
C19_4 N4_4 1_555 1_555
H13_4 C19_4 1_555 1_555
C20_4 C19_4 1_555 1_555
H14_4 C20_4 1_555 1_555
C21_4 C20_4 1_555 1_555
C22_4 C21_4 1_555 1_555
H15_4 C22_4 1_555 1_555
C23_4 N4_4 1_555 1_555
H16_4 C23_4 1_555 1_555
C24_4 O7_4 1_555 1_555
O9_4 Pr1_4 1_555 1_555
O10_4 Pr1_4 1_555 1_555
H19_4 C28_4 1_555 1_555
H20_4 C29_4 1_555 1_555
O11_11 K2_5 1_555 1_555
Cu13_2 N3_2 1_555 1_555
K2_5 O3_4 1_555 1_555
K2_5 O7_4 1_555 1_555
O4_4 C12_4 1_555 1_555
O6_4 C18_4 1_555 1_555
O8_4 C24_4 1_555 1_555
C3_4 C6_4 1_555 1_555
C4_4 C5_4 1_555 1_555
C9_4 C12_4 1_555 1_555
C10_4 C11_4 1_555 1_555
C15_4 C18_4 1_555 1_555
C16_4 C17_4 1_555 1_555
C21_4 C24_4 1_555 1_555
C22_4 C23_4 1_555 1_555
C28_4 C29_4 1_555 1_555
O9_4 H43_4 1_555 1_555
O9_4 H44_4 1_555 1_555
O10_4 H47_4 1_555 1_555
O10_4 H48_4 1_555 1_555
Cu13_2 I4_4 1_555 1_555
I4_4 Cu3_4 1_555 1_555
I5_4 Cu1_4 1_555 1_555
I6_4 Cu1_4 1_555 1_555
N1_4 Cu3_4 1_555 1_555
C1_4 N1_4 1_555 1_555
H1_4 C1_4 1_555 1_555
N11 C7_4 1_555 1_555
C7_4 H5_4 1_555 1_555
N5_4 Cu1_4 1_555 1_555
C25_4 N5_4 1_555 1_555
H17_4 C25_4 1_555 1_555
C26_4 C25_4 1_555 1_555
H18_4 C26_4 1_555 1_555
C27_4 C26_4 1_555 1_555
O11_12 K2_6 1_555 1_555
O34_3 C30_4 1_555 1_555
C30_4 C27_4 1_555 1_555
Cu3_4 I5_4 1_555 1_555
Cu13_2 I5_4 1_555 1_555
Cu13_2 I6_4 1_555 1_555
Cu15 I4_4 1_555 1_555
Cu15 I6_4 1_555 1_555
O11_12 H45_7 1_555 1_555
O11_12 H46_7 1_555 1_555
O11_11 H45_8 1_555 1_555
O11_11 H46_8 1_555 1_555

#END
