
###############################################################################
#
# This file contains modified crystal structure data generated from the
# MOF subset of the Cambridge Structural Database (CSD) v543 
# hosted by the Cambridge Crystallographic Data Centre (CCDC).
#
# This work is licensed under the Creative Commons
# Attribution-NonCommercial-ShareAlike 4.0 International License.
# To view a copy of this license, visit
# http://creativecommons.org/licenses/by-nc-sa/4.0/
# or send a letter to
# Creative Commons, PO Box 1866, Mountain View, CA 94042, USA.
#
# CIF created using the CSD Python API on 29 September 2022
# The structure has been converted into the P1 space group
# The structure has a 3D framework
# The original CSD entry AWATAV is in the tetragonal crystal system
# The framework has been calculated to contain at least 10.0% void space
# The void calculation uses a probe of radius 1.32A, grid spacing 0.4
#
###############################################################################

data_AWATAV
_chemical_formula_moiety         '(C432 H288 Co28 N336 S48)n'
_symmetry_cell_setting           triclinic
_symmetry_space_group_name_H-M   'P 1'
_symmetry_Int_Tables_number      1
_space_group_name_Hall           'P 1'
loop_
_symmetry_equiv_pos_site_id
_symmetry_equiv_pos_as_xyz
1 x,y,z
_cell_length_a                   23.3588(3)
_cell_length_b                   23.3588(3)
_cell_length_c                   31.3531(10)
_cell_angle_alpha                90
_cell_angle_beta                 90
_cell_angle_gamma                90
_cell_volume                     17107.3
loop_
_atom_site_label
_atom_site_type_symbol
_atom_site_fract_x
_atom_site_fract_y
_atom_site_fract_z
Co1 Co -0.0000 0.7500 0.12992(6)
Co2 Co 0.24406(5) 0.48840(5) 0.37612(4)
S1 S 0.41972(13) 0.4903(2) 0.45706(11)
S2 S 0.07696(14) 0.51937(13) 0.29223(12)
N1 N 0.2188(3) 0.8525(3) 0.2948(2)
S3 S 0.0922(3) 0.90792(16) 0.18740(19)
N2 N 0.3019(3) 0.4658(3) 0.3269(2)
N3 N 0.2401(3) 0.6641(3) 0.3371(2)
N4 N 0.5666(3) 0.4797(3) 0.3374(2)
N5 N 0.6484(3) 0.5101(3) 0.3618(2)
N6 N 0.3817(3) 0.4398(3) 0.2960(2)
C1 C 0.5536(4) 0.5142(3) 0.3721(3)
H1 H 0.5168 0.5236 0.3831
N7 N 0.1826(3) 0.6850(3) 0.2819(3)
N8 N 0.1723(3) 0.7814(3) 0.2590(2)
N9 N 0.1226(3) 0.7080(3) 0.2265(2)
N10 N 0.5516(3) 0.4171(3) 0.2828(2)
C2 C 0.5287(4) 0.4511(3) 0.3115(3)
C3 C 0.3560(4) 0.4938(4) 0.4361(3)
N11 N 0.4741(3) 0.4602(3) 0.3182(2)
C4 C 0.2073(4) 0.7950(4) 0.2898(3)
N12 N 0.4569(3) 0.4012(3) 0.2578(2)
C5 C 0.4405(4) 0.4335(4) 0.2908(3)
C6 C 0.1605(4) 0.7262(4) 0.2573(3)
C7 C 0.1351(4) 0.4960(3) 0.3140(3)
N13 N 0.2320(3) 0.7586(3) 0.3176(2)
N14 N 0.1763(3) 0.4811(3) 0.3315(2)
C8 C 0.0909(4) 0.7426(4) 0.2011(3)
H2 H 0.0940 0.7832 0.2011
N15 N 0.0563(3) 0.7151(3) 0.1771(2)
C9 C 0.2179(4) 0.7051(4) 0.3110(3)
C10 C 0.2268(4) 0.6058(3) 0.3356(3)
H3 H 0.2012 0.5890 0.3157
N16 N 0.2534(3) 0.5782(3) 0.3644(3)
C11 C 0.1051(5) 0.6523(4) 0.2177(3)
H4 H 0.1178 0.6179 0.2308
C12 C 0.3380(4) 0.4185(3) 0.2712(3)
H5 H 0.3413 0.3968 0.2457
N17 N 0.5331(4) 0.3024(3) 0.1691(2)
N18 N 0.2430(3) 0.9333(3) 0.3253(2)
N19 N 0.5349(3) 0.3579(3) 0.2247(2)
C13 C 0.3572(4) 0.4674(3) 0.3291(3)
H6 H 0.3780 0.4857 0.3513
C14 C 0.6237(3) 0.4795(3) 0.3324(3)
H7 H 0.6433 0.4597 0.3103
N20 N 0.3122(3) 0.4969(3) 0.4208(2)
C15 C 0.5135(4) 0.3941(4) 0.2571(3)
C16 C 0.2771(5) 0.6722(4) 0.3701(4)
H8 H 0.2934 0.7073 0.3794
C17 C 0.2429(3) 0.8770(3) 0.3291(3)
H9 H 0.2577 0.8567 0.3529
N21 N 0.0450(4) 0.8263(4) 0.1298(2)
C18 C 0.6051(4) 0.5314(3) 0.3867(3)
H10 H 0.6106 0.5552 0.4110
C19 C 0.2012(4) 0.8962(4) 0.2676(3)
H11 H 0.1811 0.8926 0.2414
C20 C 0.2191(4) 0.9451(3) 0.2870(3)
H12 H 0.2153 0.9824 0.2752
C21 C 0.5020(4) 0.3346(4) 0.1932(3)
H13 H 0.4621 0.3412 0.1895
C22 C 0.0651(5) 0.8597(6) 0.1513(5)
C23 C 0.5909(4) 0.3385(5) 0.2204(4)
H14 H 0.6230 0.3475 0.2376
C24 C 0.2908(4) 0.4345(3) 0.2905(3)
H15 H 0.2534 0.4256 0.2806
C25 C 0.2854(5) 0.6195(4) 0.3870(4)
H16 H 0.3095 0.6114 0.4106
C26 C 0.5889(4) 0.3045(5) 0.1864(4)
H17 H 0.6209 0.2842 0.1753
C27 C 0.0667(5) 0.6578(4) 0.1870(3)
H18 H 0.0484 0.6265 0.1733
Co5 Co 0.5000 0.2500 0.12008(6)
Co7 Co 0.73840(5) 0.50594(5) 0.37388(4)
Co9 Co 0.26160(5) 0.99406(5) 0.37388(4)
N44 N 0.2399(3) 0.3984(3) 0.3882(2)
N45 N 0.0524(3) 0.7169(4) 0.0809(2)
N47 N 0.1833(3) 0.5070(3) 0.4247(2)
Co3 Co 0.75594(5) 0.01160(5) 0.37612(4)
S4 S 0.58028(13) 0.0097(2) 0.45706(11)
N23 N 0.6981(3) 0.0342(3) 0.3269(2)
N25 N 0.4334(3) 0.0203(3) 0.3374(2)
N27 N 0.6183(3) 0.0602(3) 0.2960(2)
N31 N 0.4484(3) 0.0829(3) 0.2828(2)
C29 C 0.4713(4) 0.0489(3) 0.3115(3)
C30 C 0.6440(4) 0.0062(4) 0.4361(3)
N32 N 0.5259(3) 0.0398(3) 0.3182(2)
N33 N 0.5431(3) 0.0988(3) 0.2578(2)
C32 C 0.5595(4) 0.0665(4) 0.2908(3)
C34 C 0.8649(4) 0.0040(3) 0.3140(3)
N35 N 0.8237(3) 0.0189(3) 0.3315(2)
C39 C 0.6620(4) 0.0815(3) 0.2712(3)
H23 H 0.6587 0.1032 0.2457
N38 N 0.4669(4) 0.1976(3) 0.1691(2)
N40 N 0.4651(3) 0.1421(3) 0.2247(2)
C40 C 0.6428(4) 0.0326(3) 0.3291(3)
H24 H 0.6220 0.0143 0.3513
C41 C 0.3763(3) 0.0205(3) 0.3324(3)
H25 H 0.3567 0.0403 0.3103
N41 N 0.6878(3) 0.0031(3) 0.4208(2)
C42 C 0.4865(4) 0.1059(4) 0.2571(3)
C48 C 0.4980(4) 0.1654(4) 0.1932(3)
H31 H 0.5379 0.1588 0.1895
C50 C 0.4091(4) 0.1615(5) 0.2204(4)
H32 H 0.3770 0.1525 0.2376
C51 C 0.7092(4) 0.0655(3) 0.2905(3)
H33 H 0.7466 0.0744 0.2806
C53 C 0.4111(4) 0.1955(5) 0.1864(4)
H35 H 0.3791 0.2158 0.1753
N43 N 0.7601(3) 0.1016(3) 0.3882(2)
Co1_2 Co 1.0000 0.7500 0.12992(6)
S5 S 0.92304(14) 0.98063(13) 0.29223(12)
N22 N 0.7812(3) 0.6475(3) 0.2948(2)
S6 S 0.9078(3) 0.59208(16) 0.18740(19)
N24 N 0.7599(3) 0.8359(3) 0.3371(2)
N26 N 0.3516(3) 0.9899(3) 0.3618(2)
C28 C 0.4464(4) 0.9858(3) 0.3721(3)
H19 H 0.4832 0.9764 0.3831
N28 N 0.8174(3) 0.8150(3) 0.2819(3)
N29 N 0.8277(3) 0.7186(3) 0.2590(2)
N30 N 0.8774(3) 0.7920(3) 0.2265(2)
C31 C 0.7927(4) 0.7050(4) 0.2898(3)
C33 C 0.8395(4) 0.7738(4) 0.2573(3)
N34 N 0.7680(3) 0.7414(3) 0.3176(2)
C35 C 0.9091(4) 0.7574(4) 0.2011(3)
H20 H 0.9060 0.7168 0.2011
N36 N 0.9437(3) 0.7849(3) 0.1771(2)
C36 C 0.7821(4) 0.7949(4) 0.3110(3)
C37 C 0.7732(4) 0.8942(3) 0.3356(3)
H21 H 0.7988 0.9110 0.3157
N37 N 0.7466(3) 0.9218(3) 0.3644(3)
C38 C 0.8949(5) 0.8477(4) 0.2177(3)
H22 H 0.8822 0.8821 0.2308
N39 N 0.7570(3) 0.5667(3) 0.3253(2)
C43 C 0.7229(5) 0.8278(4) 0.3701(4)
H26 H 0.7066 0.7927 0.3794
C44 C 0.7571(3) 0.6230(3) 0.3291(3)
H27 H 0.7423 0.6433 0.3529
N42 N 0.9550(4) 0.6737(4) 0.1298(2)
C45 C 0.3949(4) 0.9686(3) 0.3867(3)
H28 H 0.3894 0.9448 0.4110
C46 C 0.7988(4) 0.6038(4) 0.2676(3)
H29 H 0.8189 0.6074 0.2414
C47 C 0.7809(4) 0.5549(3) 0.2870(3)
H30 H 0.7847 0.5176 0.2752
C49 C 0.9349(5) 0.6403(6) 0.1513(5)
C52 C 0.7146(5) 0.8805(4) 0.3870(4)
H34 H 0.6905 0.8886 0.4106
C54 C 0.9333(5) 0.8422(4) 0.1870(3)
H36 H 0.9516 0.8735 0.1733
N46 N 0.9476(3) 0.7831(4) 0.0809(2)
N48 N 0.8167(3) 0.9930(3) 0.4247(2)
N5_2 N 0.1484(3) 0.0101(3) 0.8618(2)
C1_2 C 0.0536(4) 0.0142(3) 0.8721(3)
H1_2 H 0.0168 0.0236 0.8831
C18_2 C 0.1051(4) 0.0314(3) 0.8867(3)
H10_2 H 0.1106 0.0552 0.9110
Co7_2 Co 0.23840(5) 0.00594(5) 0.87388(4)
N4_2 N 0.0666(3) 0.9797(3) 0.8374(2)
N10_2 N 0.0516(3) 0.9171(3) 0.7828(2)
C2_2 C 0.0287(4) 0.9511(3) 0.8115(3)
N17_2 N 0.0331(4) 0.8024(3) 0.6691(2)
N19_2 N 0.0349(3) 0.8579(3) 0.7247(2)
C14_2 C 0.1237(3) 0.9795(3) 0.8324(3)
H7_2 H 0.1433 0.9597 0.8103
C15_2 C 0.0135(4) 0.8941(4) 0.7571(3)
C21_2 C 0.0020(4) 0.8346(4) 0.6932(3)
C23_2 C 0.0909(4) 0.8385(5) 0.7204(4)
H14_2 H 0.1230 0.8475 0.7376
C26_2 C 0.0889(4) 0.8045(5) 0.6864(4)
H17_2 H 0.1209 0.7842 0.6753
Co5_2 Co -0.0000 0.7500 0.62008(6)
Co1_3 Co 0.5000 0.2500 0.62992(6)
S2_2 S 0.57696(14) 0.01937(13) 0.79223(12)
N1_2 N 0.7188(3) 0.3525(3) 0.7948(2)
S3_2 S 0.5922(3) 0.40792(16) 0.68740(19)
N3_2 N 0.7401(3) 0.1641(3) 0.8371(2)
N7_2 N 0.6826(3) 0.1850(3) 0.7819(3)
N8_2 N 0.6723(3) 0.2814(3) 0.7590(2)
N9_2 N 0.6226(3) 0.2080(3) 0.7265(2)
C4_2 C 0.7073(4) 0.2950(4) 0.7898(3)
C6_2 C 0.6605(4) 0.2262(4) 0.7573(3)
N13_2 N 0.7320(3) 0.2586(3) 0.8176(2)
C8_2 C 0.5909(4) 0.2426(4) 0.7011(3)
H2_2 H 0.5940 0.2832 0.7011
N15_2 N 0.5563(3) 0.2151(3) 0.6771(2)
C9_2 C 0.7179(4) 0.2051(4) 0.8110(3)
C10_2 C 0.7268(4) 0.1058(3) 0.8356(3)
H3_2 H 0.7012 0.0890 0.8157
N16_2 N 0.7534(3) 0.0782(3) 0.8644(3)
C11_2 C 0.6051(5) 0.1523(4) 0.7177(3)
H4_2 H 0.6178 0.1179 0.7308
N18_2 N 0.7430(3) 0.4333(3) 0.8253(2)
C16_2 C 0.7771(5) 0.1722(4) 0.8701(4)
H8_2 H 0.7934 0.2073 0.8794
C17_2 C 0.7429(3) 0.3770(3) 0.8291(3)
H9_2 H 0.7577 0.3567 0.8529
N21_2 N 0.5450(4) 0.3263(4) 0.6298(2)
C19_2 C 0.7012(4) 0.3962(4) 0.7676(3)
H11_2 H 0.6811 0.3926 0.7414
C20_2 C 0.7191(4) 0.4451(3) 0.7870(3)
H12_2 H 0.7153 0.4824 0.7752
C22_2 C 0.5651(5) 0.3597(6) 0.6513(5)
C25_2 C 0.7854(5) 0.1195(4) 0.8870(4)
H16_2 H 0.8095 0.1114 0.9106
C27_2 C 0.5667(5) 0.1578(4) 0.6870(3)
H18_2 H 0.5484 0.1265 0.6733
Co3_2 Co 0.25594(5) 0.51160(5) 0.87612(4)
S4_2 S 0.08028(13) 0.5097(2) 0.95706(11)
S5_2 S 0.42304(14) 0.48063(13) 0.79223(12)
N22_2 N 0.2812(3) 0.1475(3) 0.7948(2)
S6_2 S 0.4078(3) 0.09208(16) 0.68740(19)
N23_2 N 0.1981(3) 0.5342(3) 0.8269(2)
N24_2 N 0.2599(3) 0.3359(3) 0.8371(2)
N27_2 N 0.1183(3) 0.5602(3) 0.7960(2)
N28_2 N 0.3174(3) 0.3150(3) 0.7819(3)
N29_2 N 0.3277(3) 0.2186(3) 0.7590(2)
N30_2 N 0.3774(3) 0.2920(3) 0.7265(2)
C30_2 C 0.1440(4) 0.5062(4) 0.9361(3)
N32_2 N 0.0259(3) 0.5398(3) 0.8182(2)
C31_2 C 0.2927(4) 0.2050(4) 0.7898(3)
N33_2 N 0.0431(3) 0.5988(3) 0.7578(2)
C32_2 C 0.0595(4) 0.5665(4) 0.7908(3)
C33_2 C 0.3395(4) 0.2738(4) 0.7573(3)
C34_2 C 0.3649(4) 0.5040(3) 0.8140(3)
N34_2 N 0.2680(3) 0.2414(3) 0.8176(2)
N35_2 N 0.3237(3) 0.5189(3) 0.8315(2)
C35_2 C 0.4091(4) 0.2574(4) 0.7011(3)
H20_2 H 0.4060 0.2168 0.7011
N36_2 N 0.4437(3) 0.2849(3) 0.6771(2)
C36_2 C 0.2821(4) 0.2949(4) 0.8110(3)
C37_2 C 0.2732(4) 0.3942(3) 0.8356(3)
H21_2 H 0.2988 0.4110 0.8157
N37_2 N 0.2466(3) 0.4218(3) 0.8644(3)
C38_2 C 0.3949(5) 0.3477(4) 0.7177(3)
H22_2 H 0.3822 0.3821 0.7308
C39_2 C 0.1620(4) 0.5815(3) 0.7712(3)
H23_2 H 0.1587 0.6032 0.7457
N39_2 N 0.2570(3) 0.0667(3) 0.8253(2)
C40_2 C 0.1428(4) 0.5326(3) 0.8291(3)
H24_2 H 0.1220 0.5143 0.8513
N41_2 N 0.1878(3) 0.5031(3) 0.9208(2)
C43_2 C 0.2229(5) 0.3278(4) 0.8701(4)
H26_2 H 0.2066 0.2927 0.8794
C44_2 C 0.2571(3) 0.1230(3) 0.8291(3)
H27_2 H 0.2423 0.1433 0.8529
N42_2 N 0.4550(4) 0.1737(4) 0.6298(2)
C46_2 C 0.2988(4) 0.1038(4) 0.7676(3)
H29_2 H 0.3189 0.1074 0.7414
C47_2 C 0.2809(4) 0.0549(3) 0.7870(3)
H30_2 H 0.2847 0.0176 0.7752
H31_2 H 0.0379 0.6588 0.6895
C49_2 C 0.4349(5) 0.1403(6) 0.6513(5)
C51_2 C 0.2092(4) 0.5655(3) 0.7905(3)
H33_2 H 0.2466 0.5744 0.7806
C52_2 C 0.2146(5) 0.3805(4) 0.8870(4)
H34_2 H 0.1905 0.3886 0.9106
C54_2 C 0.4333(5) 0.3422(4) 0.6870(3)
H36_2 H 0.4516 0.3735 0.6733
Co9_2 Co 0.76160(5) 0.49406(5) 0.87388(4)
N43_2 N 0.2601(3) 0.6016(3) 0.8882(2)
N45_2 N 0.5524(3) 0.2169(4) 0.5809(2)
N46_2 N 0.4476(3) 0.2831(4) 0.5809(2)
N47_2 N 0.6833(3) 0.0070(3) 0.9247(2)
N48_2 N 0.3167(3) 0.4930(3) 0.9247(2)
Co2_2 Co 0.74406(5) 0.98840(5) 0.87612(4)
S1_2 S 0.91972(13) 0.9903(2) 0.95706(11)
N2_2 N 0.8019(3) 0.9658(3) 0.8269(2)
N6_2 N 0.8817(3) 0.9398(3) 0.7960(2)
C3_2 C 0.8560(4) 0.9938(4) 0.9361(3)
N11_2 N 0.9741(3) 0.9602(3) 0.8182(2)
N12_2 N 0.9569(3) 0.9012(3) 0.7578(2)
C5_2 C 0.9405(4) 0.9335(4) 0.7908(3)
C7_2 C 0.6351(4) 0.9960(3) 0.8140(3)
N14_2 N 0.6763(3) 0.9811(3) 0.8315(2)
C12_2 C 0.8380(4) 0.9185(3) 0.7712(3)
H5_2 H 0.8413 0.8968 0.7457
C13_2 C 0.8572(4) 0.9674(3) 0.8291(3)
H6_2 H 0.8780 0.9857 0.8513
N20_2 N 0.8122(3) 0.9969(3) 0.9208(2)
H13_2 H 0.9621 0.8412 0.6895
C24_2 C 0.7908(4) 0.9345(3) 0.7905(3)
H15_2 H 0.7534 0.9256 0.7806
Co5_3 Co 1.0000 0.7500 0.62008(6)
N44_2 N 0.7399(3) 0.8984(3) 0.8882(2)
N25_2 N 0.9334(3) 0.5203(3) 0.8374(2)
N26_2 N 0.8516(3) 0.4899(3) 0.8618(2)
C28_2 C 0.9464(4) 0.4858(3) 0.8721(3)
H19_2 H 0.9832 0.4764 0.8831
N31_2 N 0.9484(3) 0.5829(3) 0.7828(2)
C29_2 C 0.9713(4) 0.5489(3) 0.8115(3)
N38_2 N 0.9669(4) 0.6976(3) 0.6691(2)
N40_2 N 0.9651(3) 0.6421(3) 0.7247(2)
C41_2 C 0.8763(3) 0.5205(3) 0.8324(3)
H25_2 H 0.8567 0.5403 0.8103
C42_2 C 0.9865(4) 0.6059(4) 0.7571(3)
C45_2 C 0.8949(4) 0.4686(3) 0.8867(3)
H28_2 H 0.8894 0.4448 0.9110
C48_2 C 0.9980(4) 0.6654(4) 0.6932(3)
C50_2 C 0.9091(4) 0.6615(5) 0.7204(4)
H32_2 H 0.8770 0.6525 0.7376
C53_2 C 0.9111(4) 0.6955(5) 0.6864(4)
H35_2 H 0.8791 0.7158 0.6753
S4_3 S 0.2597(2) 0.16972(13) 0.29294(11)
N23_3 N 0.2842(3) 0.0519(3) 0.4231(2)
N25_3 N 0.2703(3) 0.3166(3) 0.4126(2)
N27_3 N 0.3102(3) 0.1317(3) 0.4540(2)
C28_3 C 0.2358(3) 0.3036(4) 0.3779(3)
H19_3 H 0.2264 0.2668 0.3669
N31_3 N 0.3329(3) 0.3016(3) 0.4672(2)
C29_3 C 0.2989(3) 0.2787(4) 0.4385(3)
C30_3 C 0.2562(4) 0.1060(4) 0.3139(3)
N32_3 N 0.2898(3) 0.2241(3) 0.4318(2)
N33_3 N 0.3488(3) 0.2069(3) 0.4922(2)
C32_3 C 0.3165(4) 0.1905(4) 0.4592(3)
N37_3 N 0.1718(3) 0.0034(3) 0.3856(3)
C39_3 C 0.3315(3) 0.0880(4) 0.4788(3)
H23_3 H 0.3532 0.0913 0.5043
N40_3 N 0.3921(3) 0.2849(3) 0.5253(2)
C40_3 C 0.2826(3) 0.1072(4) 0.4209(3)
H24_3 H 0.2643 0.1280 0.3987
C41_3 C 0.2705(3) 0.3737(3) 0.4176(3)
H25_3 H 0.2903 0.3933 0.4397
N41_3 N 0.2531(3) 0.0622(3) 0.3292(2)
C42_3 C 0.3559(4) 0.2635(4) 0.4929(3)
C43_3 C 0.0778(4) 0.0271(5) 0.3799(4)
H26_3 H 0.0427 0.0434 0.3706
C45_3 C 0.2186(3) 0.3551(4) 0.3633(3)
H28_3 H 0.1948 0.3606 0.3390
C48_3 C 0.4154(4) 0.2520(4) 0.5568(3)
H31_3 H 0.4088 0.2121 0.5605
C50_3 C 0.4115(5) 0.3409(4) 0.5296(4)
H32_3 H 0.4025 0.3730 0.5124
C51_3 C 0.3155(3) 0.0408(4) 0.4595(3)
H33_3 H 0.3244 0.0034 0.4694
C52_3 C 0.1305(4) 0.0354(5) 0.3630(4)
H34_3 H 0.1386 0.0595 0.3394
C53_3 C 0.4455(5) 0.3389(4) 0.5636(4)
H35_3 H 0.4658 0.3709 0.5747
N1_3 N 0.1025(3) 0.5312(3) 0.4552(2)
S3_3 S 0.15792(16) 0.6578(3) 0.56260(19)
N8_3 N 0.0314(3) 0.5777(3) 0.4910(2)
C4_3 C 0.0450(4) 0.5427(4) 0.4602(3)
N13_3 N 0.0086(3) 0.5180(3) 0.4324(2)
H2_3 H 0.0332 0.6560 0.5489
C17_3 C 0.1270(3) 0.5071(3) 0.4209(3)
H9_3 H 0.1067 0.4923 0.3971
N21_3 N 0.0763(4) 0.7050(4) 0.6202(2)
C19_3 C 0.1462(4) 0.5488(4) 0.4824(3)
H11_3 H 0.1426 0.5689 0.5086
C20_3 C 0.1951(3) 0.5309(4) 0.4630(3)
H12_3 H 0.2324 0.5347 0.4748
C22_3 C 0.1097(6) 0.6849(5) 0.5987(5)
S5_3 S 0.23063(13) 0.82696(14) 0.45777(12)
N24_3 N 0.0859(3) 0.9901(3) 0.4129(2)
N28_3 N 0.0650(3) 0.9326(3) 0.4681(3)
N30_3 N 0.0420(3) 0.8726(3) 0.5235(2)
C33_3 C 0.0238(4) 0.9105(4) 0.4927(3)
C34_3 C 0.2540(3) 0.8851(4) 0.4360(3)
N35_3 N 0.2689(3) 0.9263(3) 0.4185(2)
C35_3 C 0.0074(4) 0.8409(4) 0.5489(3)
N36_3 N 0.0349(3) 0.8063(3) 0.5729(2)
C36_3 C 0.0449(4) 0.9679(4) 0.4390(3)
C37_3 C 0.1442(3) 0.9768(4) 0.4144(3)
H21_3 H 0.1610 0.9512 0.4343
C38_3 C 0.0977(4) 0.8551(5) 0.5323(3)
H22_3 H 0.1321 0.8678 0.5192
C54_3 C 0.0922(4) 0.8167(5) 0.5630(3)
H36_3 H 0.1235 0.7984 0.5767
H27_3 H 0.8933 0.0077 0.3971
S1_3 S 0.7403(2) 0.33028(13) 0.29294(11)
S2_3 S 0.76937(13) 0.67304(14) 0.45777(12)
N2_3 N 0.7158(3) 0.4481(3) 0.4231(2)
N3_3 N 0.9141(3) 0.5099(3) 0.4129(2)
N4_3 N 0.7297(3) 0.1834(3) 0.4126(2)
N6_3 N 0.6898(3) 0.3683(3) 0.4540(2)
C1_3 C 0.7642(3) 0.1964(4) 0.3779(3)
H1_3 H 0.7736 0.2332 0.3669
N7_3 N 0.9350(3) 0.5674(3) 0.4681(3)
N9_3 N 0.9580(3) 0.6274(3) 0.5235(2)
N10_3 N 0.6671(3) 0.1984(3) 0.4672(2)
C2_3 C 0.7011(3) 0.2213(4) 0.4385(3)
C3_3 C 0.7438(4) 0.3940(4) 0.3139(3)
N11_3 N 0.7102(3) 0.2759(3) 0.4318(2)
N12_3 N 0.6512(3) 0.2931(3) 0.4922(2)
C5_3 C 0.6835(4) 0.3095(4) 0.4592(3)
C6_3 C 0.9762(4) 0.5895(4) 0.4927(3)
C7_3 C 0.7460(3) 0.6149(4) 0.4360(3)
N14_3 N 0.7311(3) 0.5737(3) 0.4185(2)
C8_3 C 0.9926(4) 0.6591(4) 0.5489(3)
N15_3 N 0.9651(3) 0.6937(3) 0.5729(2)
C9_3 C 0.9551(4) 0.5321(4) 0.4390(3)
C10_3 C 0.8558(3) 0.5232(4) 0.4144(3)
H3_3 H 0.8390 0.5488 0.4343
N16_3 N 0.8282(3) 0.4966(3) 0.3856(3)
C11_3 C 0.9023(4) 0.6449(5) 0.5323(3)
H4_3 H 0.8679 0.6322 0.5192
C12_3 C 0.6685(3) 0.4120(4) 0.4788(3)
H5_3 H 0.6468 0.4087 0.5043
N19_3 N 0.6079(3) 0.2151(3) 0.5253(2)
C13_3 C 0.7174(3) 0.3928(4) 0.4209(3)
H6_3 H 0.7357 0.3720 0.3987
C14_3 C 0.7295(3) 0.1263(3) 0.4176(3)
H7_3 H 0.7097 0.1067 0.4397
N20_3 N 0.7469(3) 0.4378(3) 0.3292(2)
C15_3 C 0.6441(4) 0.2365(4) 0.4929(3)
C16_3 C 0.9222(4) 0.4729(5) 0.3799(4)
H8_3 H 0.9573 0.4566 0.3706
C18_3 C 0.7814(3) 0.1449(4) 0.3633(3)
H10_3 H 0.8052 0.1394 0.3390
C21_3 C 0.5846(4) 0.2480(4) 0.5568(3)
H13_3 H 0.5912 0.2879 0.5605
C23_3 C 0.5885(5) 0.1591(4) 0.5296(4)
H14_3 H 0.5975 0.1270 0.5124
C24_3 C 0.6845(3) 0.4592(4) 0.4595(3)
H15_3 H 0.6756 0.4966 0.4694
C25_3 C 0.8695(4) 0.4646(5) 0.3630(4)
H16_3 H 0.8614 0.4405 0.3394
C26_3 C 0.5545(5) 0.1611(4) 0.5636(4)
H17_3 H 0.5342 0.1291 0.5747
C27_3 C 0.9078(4) 0.6833(5) 0.5630(3)
H18_3 H 0.8765 0.7016 0.5767
N22_3 N 0.8975(3) 0.9688(3) 0.4552(2)
S6_3 S 0.84208(16) 0.8422(3) 0.56260(19)
N29_3 N 0.9686(3) 0.9223(3) 0.4910(2)
C31_3 C 0.9550(4) 0.9573(4) 0.4602(3)
N34_3 N 0.9914(3) 0.9820(3) 0.4324(2)
H20_3 H 0.9668 0.8440 0.5489
C44_3 C 0.8730(3) 0.9929(3) 0.4209(3)
N42_3 N 0.9237(4) 0.7950(4) 0.6202(2)
C46_3 C 0.8538(4) 0.9512(4) 0.4824(3)
H29_3 H 0.8574 0.9311 0.5086
C47_3 C 0.8049(3) 0.9691(4) 0.4630(3)
H30_3 H 0.7676 0.9653 0.4748
C49_3 C 0.8903(6) 0.8151(5) 0.5987(5)
S3_4 S 0.65792(16) 0.1578(3) 0.06260(19)
N9_4 N 0.4580(3) 0.1274(3) 0.0235(2)
C8_4 C 0.4926(4) 0.1591(4) 0.0489(3)
H2_4 H 0.5332 0.1560 0.0489
N15_4 N 0.4651(3) 0.1937(3) 0.0729(2)
C11_4 C 0.4023(4) 0.1449(5) 0.0323(3)
H4_4 H 0.3679 0.1322 0.0192
N21_4 N 0.5763(4) 0.2050(4) 0.1202(2)
H11_4 H 0.6426 0.0689 0.0086
C22_4 C 0.6097(6) 0.1849(5) 0.0987(5)
C27_4 C 0.4078(4) 0.1833(5) 0.0630(3)
H18_4 H 0.3765 0.2016 0.0767
S6_4 S 0.34208(16) 0.3422(3) 0.06260(19)
N30_4 N 0.5420(3) 0.3726(3) 0.0235(2)
C35_4 C 0.5074(4) 0.3409(4) 0.0489(3)
H20_4 H 0.4668 0.3440 0.0489
N36_4 N 0.5349(3) 0.3063(3) 0.0729(2)
C38_4 C 0.5977(4) 0.3551(5) 0.0323(3)
H22_4 H 0.6321 0.3678 0.0192
H23_4 H 0.8532 0.5913 0.0043
N40_4 N 0.8921(3) 0.7849(3) 0.0253(2)
N42_4 N 0.4237(4) 0.2950(4) 0.1202(2)
H29_4 H 0.3574 0.4311 0.0086
C48_4 C 0.9154(4) 0.7520(4) 0.0568(3)
H31_4 H 0.9088 0.7121 0.0605
C49_4 C 0.3903(6) 0.3151(5) 0.0987(5)
C50_4 C 0.9115(5) 0.8409(4) 0.0296(4)
H32_4 H 0.9025 0.8730 0.0124
C53_4 C 0.9455(5) 0.8389(4) 0.0636(4)
H35_4 H 0.9658 0.8709 0.0747
C54_4 C 0.5922(4) 0.3167(5) 0.0630(3)
H36_4 H 0.6235 0.2984 0.0767
S2_4 S 0.26937(13) 0.17304(14) 0.95777(12)
N1_4 N 0.6025(3) 0.0312(3) 0.9552(2)
N3_4 N 0.4141(3) 0.0099(3) 0.9129(2)
N7_4 N 0.4350(3) 0.0674(3) 0.9681(3)
N8_4 N 0.5314(3) 0.0777(3) 0.9910(2)
C4_4 C 0.5450(4) 0.0427(4) 0.9602(3)
C6_4 C 0.4762(4) 0.0895(4) 0.9927(3)
C7_4 C 0.2460(3) 0.1149(4) 0.9360(3)
N13_4 N 0.5086(3) 0.0180(3) 0.9324(2)
N14_4 N 0.2311(3) 0.0737(3) 0.9185(2)
C9_4 C 0.4551(4) 0.0321(4) 0.9390(3)
C10_4 C 0.3558(3) 0.0232(4) 0.9144(3)
H3_4 H 0.3390 0.0488 0.9343
C17_4 C 0.6270(3) 0.0071(3) 0.9209(3)
C19_4 C 0.6462(4) 0.0488(4) 0.9824(3)
C20_4 C 0.6951(3) 0.0309(4) 0.9630(3)
H12_4 H 0.7324 0.0347 0.9748
S4_4 S 0.7597(2) 0.66972(13) 0.79294(11)
S5_4 S 0.73063(13) 0.32696(14) 0.95777(12)
N22_4 N 0.3975(3) 0.4688(3) 0.9552(2)
N23_4 N 0.7842(3) 0.5519(3) 0.9231(2)
N24_4 N 0.5859(3) 0.4901(3) 0.9129(2)
N25_4 N 0.7703(3) 0.8166(3) 0.9126(2)
N27_4 N 0.8102(3) 0.6317(3) 0.9540(2)
C28_4 C 0.7358(3) 0.8036(4) 0.8779(3)
H19_4 H 0.7264 0.7668 0.8669
N28_4 N 0.5650(3) 0.4326(3) 0.9681(3)
N29_4 N 0.4686(3) 0.4223(3) 0.9910(2)
N31_4 N 0.8329(3) 0.8016(3) 0.9672(2)
C29_4 C 0.7989(3) 0.7787(4) 0.9385(3)
C30_4 C 0.7562(4) 0.6060(4) 0.8139(3)
N32_4 N 0.7898(3) 0.7241(3) 0.9318(2)
C31_4 C 0.4550(4) 0.4573(4) 0.9602(3)
N33_4 N 0.8488(3) 0.7069(3) 0.9922(2)
C32_4 C 0.8165(4) 0.6905(4) 0.9592(3)
C33_4 C 0.5238(4) 0.4105(4) 0.9927(3)
C34_4 C 0.7540(3) 0.3851(4) 0.9360(3)
N34_4 N 0.4914(3) 0.4820(3) 0.9324(2)
N35_4 N 0.7689(3) 0.4263(3) 0.9185(2)
C36_4 C 0.5449(4) 0.4679(4) 0.9390(3)
C37_4 C 0.6442(3) 0.4768(4) 0.9144(3)
H21_4 H 0.6610 0.4512 0.9343
N37_4 N 0.6718(3) 0.5034(3) 0.8856(3)
C39_4 C 0.8315(3) 0.5880(4) 0.9788(3)
C40_4 C 0.7826(3) 0.6072(4) 0.9209(3)
H24_4 H 0.7643 0.6280 0.8987
C41_4 C 0.7705(3) 0.8737(3) 0.9176(3)
H25_4 H 0.7903 0.8933 0.9397
N41_4 N 0.7531(3) 0.5622(3) 0.8292(2)
C42_4 C 0.8559(4) 0.7635(4) 0.9929(3)
C43_4 C 0.5778(4) 0.5271(5) 0.8799(4)
H26_4 H 0.5427 0.5434 0.8706
C44_4 C 0.3730(3) 0.4929(3) 0.9209(3)
H27_4 H 0.3933 0.5077 0.8971
C45_4 C 0.7186(3) 0.8551(4) 0.8633(3)
H28_4 H 0.6948 0.8606 0.8390
C46_4 C 0.3538(4) 0.4512(4) 0.9824(3)
C47_4 C 0.3049(3) 0.4691(4) 0.9630(3)
H30_4 H 0.2676 0.4653 0.9748
C51_4 C 0.8155(3) 0.5408(4) 0.9595(3)
H33_4 H 0.8244 0.5034 0.9694
C52_4 C 0.6305(4) 0.5354(5) 0.8630(4)
H34_4 H 0.6386 0.5595 0.8394
H5_4 H 0.1468 0.9087 0.0043
N19_4 N 0.1079(3) 0.7151(3) 0.0253(2)
C21_4 C 0.0846(4) 0.7480(4) 0.0568(3)
H13_4 H 0.0912 0.7879 0.0605
C23_4 C 0.0885(5) 0.6591(4) 0.0296(4)
H14_4 H 0.0975 0.6270 0.0124
C26_4 C 0.0545(5) 0.6611(4) 0.0636(4)
H17_4 H 0.0342 0.6291 0.0747
S1_4 S 0.2403(2) 0.83028(13) 0.79294(11)
N2_4 N 0.2158(3) 0.9481(3) 0.9231(2)
N4_4 N 0.2297(3) 0.6834(3) 0.9126(2)
N6_4 N 0.1898(3) 0.8683(3) 0.9540(2)
C1_4 C 0.2642(3) 0.6964(4) 0.8779(3)
H1_4 H 0.2736 0.7332 0.8669
N10_4 N 0.1671(3) 0.6984(3) 0.9672(2)
C2_4 C 0.2011(3) 0.7213(4) 0.9385(3)
C3_4 C 0.2438(4) 0.8940(4) 0.8139(3)
N11_4 N 0.2102(3) 0.7759(3) 0.9318(2)
N12_4 N 0.1512(3) 0.7931(3) 0.9922(2)
C5_4 C 0.1835(4) 0.8095(4) 0.9592(3)
N16_4 N 0.3282(3) 0.9966(3) 0.8856(3)
C12_4 C 0.1685(3) 0.9120(4) 0.9788(3)
C13_4 C 0.2174(3) 0.8928(4) 0.9209(3)
H6_4 H 0.2357 0.8720 0.8987
C14_4 C 0.2295(3) 0.6263(3) 0.9176(3)
H7_4 H 0.2097 0.6067 0.9397
N20_4 N 0.2469(3) 0.9378(3) 0.8292(2)
C15_4 C 0.1441(4) 0.7365(4) 0.9929(3)
C16_4 C 0.4222(4) 0.9729(5) 0.8799(4)
H8_4 H 0.4573 0.9566 0.8706
H9_4 H 0.6067 0.9923 0.8971
C18_4 C 0.2814(3) 0.6449(4) 0.8633(3)
H10_4 H 0.3052 0.6394 0.8390
C24_4 C 0.1845(3) 0.9592(4) 0.9595(3)
H15_4 H 0.1756 0.9966 0.9694
C25_4 C 0.3695(4) 0.9646(5) 0.8630(4)
H16_4 H 0.3614 0.9405 0.8394
Co1_4 Co 0.0000 0.2500 0.37992(6)
Co2_3 Co 0.26160(5) 0.49406(5) 0.62612(4)
S1_5 S 0.2597(2) 0.66972(13) 0.70706(11)
S2_5 S 0.23063(13) 0.32696(14) 0.54223(12)
N2_5 N 0.2842(3) 0.5519(3) 0.5769(2)
N3_5 N 0.0859(3) 0.4901(3) 0.5871(2)
N4_5 N 0.2703(3) 0.8166(3) 0.5874(2)
N5_3 N 0.2399(3) 0.8984(3) 0.6118(2)
N6_5 N 0.3102(3) 0.6317(3) 0.5460(2)
C1_5 C 0.2358(3) 0.8036(4) 0.6221(3)
H1_5 H 0.2264 0.7668 0.6331
N7_5 N 0.0650(3) 0.4326(3) 0.5319(3)
N9_5 N 0.0420(3) 0.3726(3) 0.4765(2)
N10_5 N 0.3329(3) 0.8016(3) 0.5328(2)
C2_5 C 0.2989(3) 0.7787(4) 0.5615(3)
C3_5 C 0.2562(4) 0.6060(4) 0.6861(3)
N11_5 N 0.2898(3) 0.7241(3) 0.5682(2)
N12_5 N 0.3488(3) 0.7069(3) 0.5078(2)
C5_5 C 0.3165(4) 0.6905(4) 0.5408(3)
C6_5 C 0.0238(4) 0.4105(4) 0.5073(3)
C7_5 C 0.2540(3) 0.3851(4) 0.5640(3)
N14_5 N 0.2689(3) 0.4263(3) 0.5815(2)
C8_5 C 0.0074(4) 0.3409(4) 0.4511(3)
N15_5 N 0.0349(3) 0.3063(3) 0.4271(2)
C9_5 C 0.0449(4) 0.4679(4) 0.5610(3)
C10_5 C 0.1442(3) 0.4768(4) 0.5856(3)
H3_5 H 0.1610 0.4512 0.5657
N16_5 N 0.1718(3) 0.5034(3) 0.6144(3)
C11_5 C 0.0977(4) 0.3551(5) 0.4677(3)
H4_5 H 0.1321 0.3678 0.4808
C12_5 C 0.3315(3) 0.5880(4) 0.5212(3)
H5_5 H 0.3532 0.5913 0.4957
N17_3 N 0.4476(3) 0.7831(4) 0.4191(2)
N19_5 N 0.3921(3) 0.7849(3) 0.4747(2)
C13_5 C 0.2826(3) 0.6072(4) 0.5791(3)
H6_5 H 0.2643 0.6280 0.6013
C14_5 C 0.2705(3) 0.8737(3) 0.5824(3)
H7_5 H 0.2903 0.8933 0.5603
N20_5 N 0.2531(3) 0.5622(3) 0.6708(2)
C15_5 C 0.3559(4) 0.7635(4) 0.5071(3)
C16_5 C 0.0778(4) 0.5271(5) 0.6201(4)
H8_5 H 0.0427 0.5434 0.6294
C18_5 C 0.2186(3) 0.8551(4) 0.6367(3)
H10_5 H 0.1948 0.8606 0.6610
C21_5 C 0.4154(4) 0.7520(4) 0.4432(3)
H13_5 H 0.4088 0.7121 0.4395
C23_5 C 0.4115(5) 0.8409(4) 0.4704(4)
H14_5 H 0.4025 0.8730 0.4876
C24_5 C 0.3155(3) 0.5408(4) 0.5405(3)
H15_5 H 0.3244 0.5034 0.5306
C25_5 C 0.1305(4) 0.5354(5) 0.6370(4)
H16_5 H 0.1386 0.5595 0.6606
C26_5 C 0.4455(5) 0.8389(4) 0.4364(4)
H17_5 H 0.4658 0.8709 0.4253
C27_5 C 0.0922(4) 0.3167(5) 0.4370(3)
H18_5 H 0.1235 0.2984 0.4233
N22_5 N 0.1025(3) 0.0312(3) 0.5448(2)
S6_5 S 0.15792(16) 0.1578(3) 0.43740(19)
N29_5 N 0.0314(3) 0.0777(3) 0.5090(2)
C31_5 C 0.0450(4) 0.0427(4) 0.5398(3)
N34_5 N 0.0086(3) 0.0180(3) 0.5676(2)
H20_5 H 0.0332 0.1560 0.4511
N39_3 N 0.1833(3) 0.0070(3) 0.5753(2)
C44_5 C 0.1270(3) 0.0071(3) 0.5791(3)
N42_5 N 0.0763(4) 0.2050(4) 0.3798(2)
C46_5 C 0.1462(4) 0.0488(4) 0.5176(3)
H29_5 H 0.1426 0.0689 0.4914
C47_5 C 0.1951(3) 0.0309(4) 0.5370(3)
H30_5 H 0.2324 0.0347 0.5252
C49_5 C 0.1097(6) 0.1849(5) 0.4013(5)
Co5_4 Co 0.5000 0.7500 0.37008(6)
Co7_3 Co 0.24406(5) 0.98840(5) 0.62388(4)
N44_3 N 0.3516(3) 0.4899(3) 0.6382(2)
N45_3 N 0.0331(4) 0.3024(3) 0.3309(2)
N47_3 N 0.2430(3) 0.4333(3) 0.6747(2)
H27_5 H 0.1067 0.9923 0.6029
Co1_5 Co 1.0000 0.2500 0.37992(6)
N1_5 N 0.8975(3) 0.4688(3) 0.5448(2)
S3_5 S 0.84208(16) 0.3422(3) 0.43740(19)
N8_5 N 0.9686(3) 0.4223(3) 0.5090(2)
C4_5 C 0.9550(4) 0.4573(4) 0.5398(3)
N13_5 N 0.9914(3) 0.4820(3) 0.5676(2)
H2_5 H 0.9668 0.3440 0.4511
N18_3 N 0.8167(3) 0.4930(3) 0.5753(2)
C17_5 C 0.8730(3) 0.4929(3) 0.5791(3)
H9_5 H 0.8933 0.5077 0.6029
N21_5 N 0.9237(4) 0.2950(4) 0.3798(2)
C19_5 C 0.8538(4) 0.4512(4) 0.5176(3)
H11_5 H 0.8574 0.4311 0.4914
C20_5 C 0.8049(3) 0.4691(4) 0.5370(3)
H12_5 H 0.7676 0.4653 0.5252
C22_5 C 0.8903(6) 0.3151(5) 0.4013(5)
Co3_3 Co 0.73840(5) 0.00594(5) 0.62612(4)
S5_5 S 0.76937(13) 0.17304(14) 0.54223(12)
N24_5 N 0.9141(3) 0.0099(3) 0.5871(2)
N28_5 N 0.9350(3) 0.0674(3) 0.5319(3)
N30_5 N 0.9580(3) 0.1274(3) 0.4765(2)
C33_5 C 0.9762(4) 0.0895(4) 0.5073(3)
C34_5 C 0.7460(3) 0.1149(4) 0.5640(3)
N35_5 N 0.7311(3) 0.0737(3) 0.5815(2)
C35_5 C 0.9926(4) 0.1591(4) 0.4511(3)
N36_5 N 0.9651(3) 0.1937(3) 0.4271(2)
C36_5 C 0.9551(4) 0.0321(4) 0.5610(3)
C37_5 C 0.8558(3) 0.0232(4) 0.5856(3)
H21_5 H 0.8390 0.0488 0.5657
C38_5 C 0.9023(4) 0.1449(5) 0.4677(3)
H22_5 H 0.8679 0.1322 0.4808
C54_5 C 0.9078(4) 0.1833(5) 0.4370(3)
H36_5 H 0.8765 0.2016 0.4233
Co9_3 Co 0.75594(5) 0.51160(5) 0.62388(4)
N43_3 N 0.6484(3) 0.0101(3) 0.6382(2)
N46_3 N 0.9669(4) 0.1976(3) 0.3309(2)
N48_3 N 0.7570(3) 0.0667(3) 0.6747(2)
S4_5 S 0.7403(2) 0.83028(13) 0.70706(11)
N23_5 N 0.7158(3) 0.9481(3) 0.5769(2)
N25_5 N 0.7297(3) 0.6834(3) 0.5874(2)
N26_3 N 0.7601(3) 0.6016(3) 0.6118(2)
N27_5 N 0.6898(3) 0.8683(3) 0.5460(2)
C28_5 C 0.7642(3) 0.6964(4) 0.6221(3)
H19_5 H 0.7736 0.7332 0.6331
N31_5 N 0.6671(3) 0.6984(3) 0.5328(2)
C29_5 C 0.7011(3) 0.7213(4) 0.5615(3)
C30_5 C 0.7438(4) 0.8940(4) 0.6861(3)
N32_5 N 0.7102(3) 0.7759(3) 0.5682(2)
N33_5 N 0.6512(3) 0.7931(3) 0.5078(2)
C32_5 C 0.6835(4) 0.8095(4) 0.5408(3)
N37_5 N 0.8282(3) 0.9966(3) 0.6144(3)
C39_5 C 0.6685(3) 0.9120(4) 0.5212(3)
H23_5 H 0.6468 0.9087 0.4957
N38_3 N 0.5524(3) 0.7169(4) 0.4191(2)
N40_5 N 0.6079(3) 0.7151(3) 0.4747(2)
C40_5 C 0.7174(3) 0.8928(4) 0.5791(3)
H24_5 H 0.7357 0.8720 0.6013
C41_5 C 0.7295(3) 0.6263(3) 0.5824(3)
H25_5 H 0.7097 0.6067 0.5603
N41_5 N 0.7469(3) 0.9378(3) 0.6708(2)
C42_5 C 0.6441(4) 0.7365(4) 0.5071(3)
C43_5 C 0.9222(4) 0.9729(5) 0.6201(4)
H26_5 H 0.9573 0.9566 0.6294
C45_5 C 0.7814(3) 0.6449(4) 0.6367(3)
H28_5 H 0.8052 0.6394 0.6610
C48_5 C 0.5846(4) 0.7480(4) 0.4432(3)
H31_5 H 0.5912 0.7879 0.4395
C50_5 C 0.5885(5) 0.6591(4) 0.4704(4)
H32_5 H 0.5975 0.6270 0.4876
C51_5 C 0.6845(3) 0.9592(4) 0.5405(3)
H33_5 H 0.6756 0.9966 0.5306
C52_5 C 0.8695(4) 0.9646(5) 0.6370(4)
H34_5 H 0.8614 0.9405 0.6606
C53_5 C 0.5545(5) 0.6611(4) 0.4364(4)
H35_5 H 0.5342 0.6291 0.4253
Co5_5 Co 0.0000 0.2500 0.87008(6)
S1_6 S 0.7597(2) 0.16972(13) 0.20706(11)
N2_6 N 0.7842(3) 0.0519(3) 0.0769(2)
N4_6 N 0.7703(3) 0.3166(3) 0.0874(2)
N5_4 N 0.7399(3) 0.3984(3) 0.1118(2)
N6_6 N 0.8102(3) 0.1317(3) 0.0460(2)
C1_6 C 0.7358(3) 0.3036(4) 0.1221(3)
H1_6 H 0.7264 0.2668 0.1331
N10_6 N 0.8329(3) 0.3016(3) 0.0328(2)
C2_6 C 0.7989(3) 0.2787(4) 0.0615(3)
C3_6 C 0.7562(4) 0.1060(4) 0.1861(3)
N11_6 N 0.7898(3) 0.2241(3) 0.0682(2)
N12_6 N 0.8488(3) 0.2069(3) 0.0078(2)
C5_6 C 0.8165(4) 0.1905(4) 0.0408(3)
N16_6 N 0.6718(3) 0.0034(3) 0.1144(3)
C12_6 C 0.8315(3) 0.0880(4) 0.0212(3)
C13_6 C 0.7826(3) 0.1072(4) 0.0791(3)
H6_6 H 0.7643 0.1280 0.1013
C14_6 C 0.7705(3) 0.3737(3) 0.0824(3)
H7_6 H 0.7903 0.3933 0.0603
N20_6 N 0.7531(3) 0.0622(3) 0.1708(2)
C15_6 C 0.8559(4) 0.2635(4) 0.0071(3)
C16_6 C 0.5778(4) 0.0271(5) 0.1201(4)
H8_6 H 0.5427 0.0434 0.1294
H9_6 H 0.3933 0.0077 0.1029
C18_6 C 0.7186(3) 0.3551(4) 0.1367(3)
H10_6 H 0.6948 0.3606 0.1610
C24_6 C 0.8155(3) 0.0408(4) 0.0405(3)
H15_6 H 0.8244 0.0034 0.0306
C25_6 C 0.6305(4) 0.0354(5) 0.1370(4)
H16_6 H 0.6386 0.0595 0.1606
Co7_4 Co 0.74406(5) 0.48840(5) 0.12388(4)
Co9_4 Co 0.25594(5) 0.01160(5) 0.12388(4)
H5_6 H 0.8532 0.0913 0.9957
N17_4 N 0.9476(3) 0.2831(4) 0.9191(2)
N19_6 N 0.8921(3) 0.2849(3) 0.9747(2)
C21_6 C 0.9154(4) 0.2520(4) 0.9432(3)
H13_6 H 0.9088 0.2121 0.9395
C23_6 C 0.9115(5) 0.3409(4) 0.9704(4)
H14_6 H 0.9025 0.3730 0.9876
C26_6 C 0.9455(5) 0.3389(4) 0.9364(4)
H17_6 H 0.9658 0.3709 0.9253
Co5_6 Co 1.0000 0.2500 0.87008(6)
Co2_4 Co 0.76160(5) 0.99406(5) 0.12612(4)
S2_6 S 0.73063(13) 0.82696(14) 0.04223(12)
N1_6 N 0.3975(3) 0.9688(3) 0.0448(2)
N3_6 N 0.5859(3) 0.9901(3) 0.0871(2)
N7_6 N 0.5650(3) 0.9326(3) 0.0319(3)
N8_6 N 0.4686(3) 0.9223(3) 0.0090(2)
C4_6 C 0.4550(4) 0.9573(4) 0.0398(3)
C6_6 C 0.5238(4) 0.9105(4) 0.0073(3)
C7_6 C 0.7540(3) 0.8851(4) 0.0640(3)
N13_6 N 0.4914(3) 0.9820(3) 0.0676(2)
N14_6 N 0.7689(3) 0.9263(3) 0.0815(2)
C9_6 C 0.5449(4) 0.9679(4) 0.0610(3)
C10_6 C 0.6442(3) 0.9768(4) 0.0856(3)
H3_6 H 0.6610 0.9512 0.0657
N18_4 N 0.3167(3) 0.9930(3) 0.0753(2)
C17_6 C 0.3730(3) 0.9929(3) 0.0791(3)
C19_6 C 0.3538(4) 0.9512(4) 0.0176(3)
C20_6 C 0.3049(3) 0.9691(4) 0.0370(3)
H12_6 H 0.2676 0.9653 0.0252
Co3_4 Co 0.23840(5) 0.50594(5) 0.12612(4)
S4_6 S 0.2403(2) 0.33028(13) 0.20706(11)
S5_6 S 0.26937(13) 0.67304(14) 0.04223(12)
N22_6 N 0.6025(3) 0.5312(3) 0.0448(2)
N23_6 N 0.2158(3) 0.4481(3) 0.0769(2)
N24_6 N 0.4141(3) 0.5099(3) 0.0871(2)
N25_6 N 0.2297(3) 0.1834(3) 0.0874(2)
N26_4 N 0.2601(3) 0.1016(3) 0.1118(2)
N27_6 N 0.1898(3) 0.3683(3) 0.0460(2)
C28_6 C 0.2642(3) 0.1964(4) 0.1221(3)
H19_6 H 0.2736 0.2332 0.1331
N28_6 N 0.4350(3) 0.5674(3) 0.0319(3)
N29_6 N 0.5314(3) 0.5777(3) 0.0090(2)
N31_6 N 0.1671(3) 0.1984(3) 0.0328(2)
C29_6 C 0.2011(3) 0.2213(4) 0.0615(3)
C30_6 C 0.2438(4) 0.3940(4) 0.1861(3)
N32_6 N 0.2102(3) 0.2759(3) 0.0682(2)
C31_6 C 0.5450(4) 0.5427(4) 0.0398(3)
N33_6 N 0.1512(3) 0.2931(3) 0.0078(2)
C32_6 C 0.1835(4) 0.3095(4) 0.0408(3)
C33_6 C 0.4762(4) 0.5895(4) 0.0073(3)
C34_6 C 0.2460(3) 0.6149(4) 0.0640(3)
N34_6 N 0.5086(3) 0.5180(3) 0.0676(2)
N35_6 N 0.2311(3) 0.5737(3) 0.0815(2)
C36_6 C 0.4551(4) 0.5321(4) 0.0610(3)
C37_6 C 0.3558(3) 0.5232(4) 0.0856(3)
H21_6 H 0.3390 0.5488 0.0657
N37_6 N 0.3282(3) 0.4966(3) 0.1144(3)
C39_6 C 0.1685(3) 0.4120(4) 0.0212(3)
N39_4 N 0.6833(3) 0.5070(3) 0.0753(2)
C40_6 C 0.2174(3) 0.3928(4) 0.0791(3)
H24_6 H 0.2357 0.3720 0.1013
C41_6 C 0.2295(3) 0.1263(3) 0.0824(3)
H25_6 H 0.2097 0.1067 0.0603
N41_6 N 0.2469(3) 0.4378(3) 0.1708(2)
C42_6 C 0.1441(4) 0.2365(4) 0.0071(3)
C43_6 C 0.4222(4) 0.4729(5) 0.1201(4)
H26_6 H 0.4573 0.4566 0.1294
C44_6 C 0.6270(3) 0.5071(3) 0.0791(3)
H27_6 H 0.6067 0.4923 0.1029
C45_6 C 0.2814(3) 0.1449(4) 0.1367(3)
H28_6 H 0.3052 0.1394 0.1610
C46_6 C 0.6462(4) 0.5488(4) 0.0176(3)
C47_6 C 0.6951(3) 0.5309(4) 0.0370(3)
H30_6 H 0.7324 0.5347 0.0252
C51_6 C 0.1845(3) 0.4592(4) 0.0405(3)
H33_6 H 0.1756 0.4966 0.0306
C52_6 C 0.3695(4) 0.4646(5) 0.1370(4)
H34_6 H 0.3614 0.4405 0.1606
N43_4 N 0.1484(3) 0.5101(3) 0.1382(2)
N44_4 N 0.8516(3) 0.9899(3) 0.1382(2)
N47_4 N 0.7430(3) 0.9333(3) 0.1747(2)
N48_4 N 0.2570(3) 0.5667(3) 0.1747(2)
Co1_6 Co 0.5000 0.7500 0.87992(6)
S3_6 S 0.34208(16) 0.8422(3) 0.93740(19)
N9_6 N 0.5420(3) 0.8726(3) 0.9765(2)
C8_6 C 0.5074(4) 0.8409(4) 0.9511(3)
H2_6 H 0.4668 0.8440 0.9511
N15_6 N 0.5349(3) 0.8063(3) 0.9271(2)
C11_6 C 0.5977(4) 0.8551(5) 0.9677(3)
H4_6 H 0.6321 0.8678 0.9808
N21_6 N 0.4237(4) 0.7950(4) 0.8798(2)
H11_6 H 0.3574 0.9311 0.9914
C22_6 C 0.3903(6) 0.8151(5) 0.9013(5)
C27_6 C 0.5922(4) 0.8167(5) 0.9370(3)
H18_6 H 0.6235 0.7984 0.9233
S6_6 S 0.65792(16) 0.6578(3) 0.93740(19)
N30_6 N 0.4580(3) 0.6274(3) 0.9765(2)
C35_6 C 0.4926(4) 0.6591(4) 0.9511(3)
H20_6 H 0.5332 0.6560 0.9511
N36_6 N 0.4651(3) 0.6937(3) 0.9271(2)
C38_6 C 0.4023(4) 0.6449(5) 0.9677(3)
H22_6 H 0.3679 0.6322 0.9808
H23_6 H 0.1468 0.4087 0.9957
N38_4 N 0.0524(3) 0.2169(4) 0.9191(2)
N40_6 N 0.1079(3) 0.2151(3) 0.9747(2)
N42_6 N 0.5763(4) 0.7050(4) 0.8798(2)
H29_6 H 0.6426 0.5689 0.9914
C48_6 C 0.0846(4) 0.2480(4) 0.9432(3)
H31_6 H 0.0912 0.2879 0.9395
C49_6 C 0.6097(6) 0.6849(5) 0.9013(5)
C50_6 C 0.0885(5) 0.1591(4) 0.9704(4)
H32_6 H 0.0975 0.1270 0.9876
C53_6 C 0.0545(5) 0.1611(4) 0.9364(4)
H35_6 H 0.0342 0.1291 0.9253
C54_6 C 0.4078(4) 0.6833(5) 0.9370(3)
H36_6 H 0.3765 0.7016 0.9233
N45_4 N 0.5331(4) 0.8024(3) 0.8309(2)
N46_4 N 0.4669(4) 0.6976(3) 0.8309(2)
S5_7 S 0.07696(14) 0.01937(13) 0.70777(12)
N22_7 N 0.2188(3) 0.3525(3) 0.7052(2)
S6_7 S 0.0922(3) 0.40792(16) 0.81260(19)
N24_7 N 0.2401(3) 0.1641(3) 0.6629(2)
C28_7 C 0.5536(4) 0.0142(3) 0.6279(3)
H19_7 H 0.5168 0.0236 0.6169
N28_7 N 0.1826(3) 0.1850(3) 0.7181(3)
N29_7 N 0.1723(3) 0.2814(3) 0.7410(2)
N30_7 N 0.1226(3) 0.2080(3) 0.7735(2)
C31_7 C 0.2073(4) 0.2950(4) 0.7102(3)
C33_7 C 0.1605(4) 0.2262(4) 0.7427(3)
N34_7 N 0.2320(3) 0.2586(3) 0.6824(2)
C35_7 C 0.0909(4) 0.2426(4) 0.7989(3)
H20_7 H 0.0940 0.2832 0.7989
N36_7 N 0.0563(3) 0.2151(3) 0.8229(2)
C36_7 C 0.2179(4) 0.2051(4) 0.6890(3)
C37_7 C 0.2268(4) 0.1058(3) 0.6644(3)
H21_7 H 0.2012 0.0890 0.6843
N37_7 N 0.2534(3) 0.0782(3) 0.6356(3)
C38_7 C 0.1051(5) 0.1523(4) 0.7823(3)
H22_7 H 0.1178 0.1179 0.7692
C43_7 C 0.2771(5) 0.1722(4) 0.6299(4)
H26_7 H 0.2934 0.2073 0.6206
C44_7 C 0.2429(3) 0.3770(3) 0.6709(3)
H27_7 H 0.2577 0.3567 0.6471
N42_7 N 0.0450(4) 0.3263(4) 0.8702(2)
C45_7 C 0.6051(4) 0.0314(3) 0.6133(3)
H28_7 H 0.6106 0.0552 0.5890
C46_7 C 0.2012(4) 0.3962(4) 0.7324(3)
H29_7 H 0.1811 0.3926 0.7586
C47_7 C 0.2191(4) 0.4451(3) 0.7130(3)
H30_7 H 0.2153 0.4824 0.7248
C49_7 C 0.0651(5) 0.3597(6) 0.8487(5)
C52_7 C 0.2854(5) 0.1195(4) 0.6130(4)
H34_7 H 0.3095 0.1114 0.5894
C54_7 C 0.0667(5) 0.1578(4) 0.8130(3)
H36_7 H 0.0484 0.1265 0.8267
S4_7 S 0.41972(13) 0.9903(2) 0.54294(11)
N23_7 N 0.3019(3) 0.9658(3) 0.6731(2)
N25_7 N 0.5666(3) 0.9797(3) 0.6626(2)
N27_7 N 0.3817(3) 0.9398(3) 0.7040(2)
N31_7 N 0.5516(3) 0.9171(3) 0.7172(2)
C29_7 C 0.5287(4) 0.9511(3) 0.6885(3)
C30_7 C 0.3560(4) 0.9938(4) 0.5639(3)
N32_7 N 0.4741(3) 0.9602(3) 0.6818(2)
N33_7 N 0.4569(3) 0.9012(3) 0.7422(2)
C32_7 C 0.4405(4) 0.9335(4) 0.7092(3)
C34_7 C 0.1351(4) 0.9960(3) 0.6860(3)
N35_7 N 0.1763(3) 0.9811(3) 0.6685(2)
C39_7 C 0.3380(4) 0.9185(3) 0.7288(3)
H23_7 H 0.3413 0.8968 0.7543
N40_7 N 0.5349(3) 0.8579(3) 0.7753(2)
C40_7 C 0.3572(4) 0.9674(3) 0.6709(3)
H24_7 H 0.3780 0.9857 0.6487
C41_7 C 0.6237(3) 0.9795(3) 0.6676(3)
H25_7 H 0.6433 0.9597 0.6897
N41_7 N 0.3122(3) 0.9969(3) 0.5792(2)
C42_7 C 0.5135(4) 0.8941(4) 0.7429(3)
C48_7 C 0.5020(4) 0.8346(4) 0.8068(3)
H31_7 H 0.4621 0.8412 0.8105
C50_7 C 0.5909(4) 0.8385(5) 0.7796(4)
H32_7 H 0.6230 0.8475 0.7624
C51_7 C 0.2908(4) 0.9345(3) 0.7095(3)
H33_7 H 0.2534 0.9256 0.7194
C53_7 C 0.5889(4) 0.8045(5) 0.8136(4)
H35_7 H 0.6209 0.7842 0.8247
S1_7 S 0.58028(13) 0.5097(2) 0.54294(11)
S2_7 S 0.92304(14) 0.48063(13) 0.70777(12)
N1_7 N 0.7812(3) 0.1475(3) 0.7052(2)
S3_7 S 0.9078(3) 0.09208(16) 0.81260(19)
N2_7 N 0.6981(3) 0.5342(3) 0.6731(2)
N3_7 N 0.7599(3) 0.3359(3) 0.6629(2)
N4_7 N 0.4334(3) 0.5203(3) 0.6626(2)
N6_7 N 0.6183(3) 0.5602(3) 0.7040(2)
C1_7 C 0.4464(4) 0.4858(3) 0.6279(3)
H1_7 H 0.4832 0.4764 0.6169
N7_7 N 0.8174(3) 0.3150(3) 0.7181(3)
N8_7 N 0.8277(3) 0.2186(3) 0.7410(2)
N9_7 N 0.8774(3) 0.2920(3) 0.7735(2)
N10_7 N 0.4484(3) 0.5829(3) 0.7172(2)
C2_7 C 0.4713(4) 0.5489(3) 0.6885(3)
C3_7 C 0.6440(4) 0.5062(4) 0.5639(3)
N11_7 N 0.5259(3) 0.5398(3) 0.6818(2)
C4_7 C 0.7927(4) 0.2050(4) 0.7102(3)
N12_7 N 0.5431(3) 0.5988(3) 0.7422(2)
C5_7 C 0.5595(4) 0.5665(4) 0.7092(3)
C6_7 C 0.8395(4) 0.2738(4) 0.7427(3)
C7_7 C 0.8649(4) 0.5040(3) 0.6860(3)
N13_7 N 0.7680(3) 0.2414(3) 0.6824(2)
N14_7 N 0.8237(3) 0.5189(3) 0.6685(2)
C8_7 C 0.9091(4) 0.2574(4) 0.7989(3)
H2_7 H 0.9060 0.2168 0.7989
N15_7 N 0.9437(3) 0.2849(3) 0.8229(2)
C9_7 C 0.7821(4) 0.2949(4) 0.6890(3)
C10_7 C 0.7732(4) 0.3942(3) 0.6644(3)
H3_7 H 0.7988 0.4110 0.6843
N16_7 N 0.7466(3) 0.4218(3) 0.6356(3)
C11_7 C 0.8949(5) 0.3477(4) 0.7823(3)
H4_7 H 0.8822 0.3821 0.7692
C12_7 C 0.6620(4) 0.5815(3) 0.7288(3)
H5_7 H 0.6587 0.6032 0.7543
N19_7 N 0.4651(3) 0.6421(3) 0.7753(2)
C13_7 C 0.6428(4) 0.5326(3) 0.6709(3)
H6_7 H 0.6220 0.5143 0.6487
C14_7 C 0.3763(3) 0.5205(3) 0.6676(3)
H7_7 H 0.3567 0.5403 0.6897
N20_7 N 0.6878(3) 0.5031(3) 0.5792(2)
C15_7 C 0.4865(4) 0.6059(4) 0.7429(3)
C16_7 C 0.7229(5) 0.3278(4) 0.6299(4)
H8_7 H 0.7066 0.2927 0.6206
C17_7 C 0.7571(3) 0.1230(3) 0.6709(3)
H9_7 H 0.7423 0.1433 0.6471
N21_7 N 0.9550(4) 0.1737(4) 0.8702(2)
C18_7 C 0.3949(4) 0.4686(3) 0.6133(3)
H10_7 H 0.3894 0.4448 0.5890
C19_7 C 0.7988(4) 0.1038(4) 0.7324(3)
H11_7 H 0.8189 0.1074 0.7586
C20_7 C 0.7809(4) 0.0549(3) 0.7130(3)
H12_7 H 0.7847 0.0176 0.7248
C21_7 C 0.4980(4) 0.6654(4) 0.8068(3)
H13_7 H 0.5379 0.6588 0.8105
C22_7 C 0.9349(5) 0.1403(6) 0.8487(5)
C23_7 C 0.4091(4) 0.6615(5) 0.7796(4)
H14_7 H 0.3770 0.6525 0.7624
C24_7 C 0.7092(4) 0.5655(3) 0.7095(3)
H15_7 H 0.7466 0.5744 0.7194
C25_7 C 0.7146(5) 0.3805(4) 0.6130(4)
H16_7 H 0.6905 0.3886 0.5894
C26_7 C 0.4111(4) 0.6955(5) 0.8136(4)
H17_7 H 0.3791 0.7158 0.8247
C27_7 C 0.9333(5) 0.3422(4) 0.8130(3)
H18_7 H 0.9516 0.3735 0.8267
N25_8 N 0.0666(3) 0.4797(3) 0.1626(2)
C28_8 C 0.0536(4) 0.5142(3) 0.1279(3)
H19_8 H 0.0168 0.5236 0.1169
N31_8 N 0.0516(3) 0.4171(3) 0.2172(2)
C29_8 C 0.0287(4) 0.4511(3) 0.1885(3)
N40_8 N 0.0349(3) 0.3579(3) 0.2753(2)
C41_8 C 0.1237(3) 0.4795(3) 0.1676(3)
H25_8 H 0.1433 0.4597 0.1897
C42_8 C 0.0135(4) 0.3941(4) 0.2429(3)
C45_8 C 0.1051(4) 0.5314(3) 0.1133(3)
H28_8 H 0.1106 0.5552 0.0890
C48_8 C 0.0020(4) 0.3346(4) 0.3068(3)
C50_8 C 0.0909(4) 0.3385(5) 0.2796(4)
H32_8 H 0.1230 0.3475 0.2624
C53_8 C 0.0889(4) 0.3045(5) 0.3136(4)
H35_8 H 0.1209 0.2842 0.3247
S1_8 S 0.08028(13) 0.0097(2) 0.04294(11)
N2_8 N 0.1981(3) 0.0342(3) 0.1731(2)
N6_8 N 0.1183(3) 0.0602(3) 0.2040(2)
C3_8 C 0.1440(4) 0.0062(4) 0.0639(3)
N11_8 N 0.0259(3) 0.0398(3) 0.1818(2)
N12_8 N 0.0431(3) 0.0988(3) 0.2422(2)
C5_8 C 0.0595(4) 0.0665(4) 0.2092(3)
C7_8 C 0.3649(4) 0.0040(3) 0.1860(3)
N14_8 N 0.3237(3) 0.0189(3) 0.1685(2)
C12_8 C 0.1620(4) 0.0815(3) 0.2288(3)
H5_8 H 0.1587 0.1032 0.2543
C13_8 C 0.1428(4) 0.0326(3) 0.1709(3)
H6_8 H 0.1220 0.0143 0.1487
N20_8 N 0.1878(3) 0.0031(3) 0.0792(2)
H13_8 H 0.0379 0.1588 0.3105
C24_8 C 0.2092(4) 0.0655(3) 0.2095(3)
H15_8 H 0.2466 0.0744 0.2194
S2_8 S 0.42304(14) 0.98063(13) 0.20777(12)
N1_8 N 0.2812(3) 0.6475(3) 0.2052(2)
S3_8 S 0.4078(3) 0.59208(16) 0.31260(19)
N3_8 N 0.2599(3) 0.8359(3) 0.1629(2)
N7_8 N 0.3174(3) 0.8150(3) 0.2181(3)
N8_8 N 0.3277(3) 0.7186(3) 0.2410(2)
N9_8 N 0.3774(3) 0.7920(3) 0.2735(2)
C4_8 C 0.2927(4) 0.7050(4) 0.2102(3)
C6_8 C 0.3395(4) 0.7738(4) 0.2427(3)
N13_8 N 0.2680(3) 0.7414(3) 0.1824(2)
C8_8 C 0.4091(4) 0.7574(4) 0.2989(3)
H2_8 H 0.4060 0.7168 0.2989
N15_8 N 0.4437(3) 0.7849(3) 0.3229(2)
C9_8 C 0.2821(4) 0.7949(4) 0.1890(3)
C10_8 C 0.2732(4) 0.8942(3) 0.1644(3)
H3_8 H 0.2988 0.9110 0.1843
N16_8 N 0.2466(3) 0.9218(3) 0.1356(3)
C11_8 C 0.3949(5) 0.8477(4) 0.2823(3)
H4_8 H 0.3822 0.8821 0.2692
C16_8 C 0.2229(5) 0.8278(4) 0.1299(4)
H8_8 H 0.2066 0.7927 0.1206
C17_8 C 0.2571(3) 0.6230(3) 0.1709(3)
H9_8 H 0.2423 0.6433 0.1471
N21_8 N 0.4550(4) 0.6737(4) 0.3702(2)
C19_8 C 0.2988(4) 0.6038(4) 0.2324(3)
H11_8 H 0.3189 0.6074 0.2586
C20_8 C 0.2809(4) 0.5549(3) 0.2130(3)
H12_8 H 0.2847 0.5176 0.2248
C22_8 C 0.4349(5) 0.6403(6) 0.3487(5)
C25_8 C 0.2146(5) 0.8805(4) 0.1130(4)
H16_8 H 0.1905 0.8886 0.0894
C27_8 C 0.4333(5) 0.8422(4) 0.3130(3)
H18_8 H 0.4516 0.8735 0.3267
S4_8 S 0.91972(13) 0.4903(2) 0.04294(11)
S5_8 S 0.57696(14) 0.51937(13) 0.20777(12)
N22_8 N 0.7188(3) 0.8525(3) 0.2052(2)
S6_8 S 0.5922(3) 0.90792(16) 0.31260(19)
N23_8 N 0.8019(3) 0.4658(3) 0.1731(2)
N24_8 N 0.7401(3) 0.6641(3) 0.1629(2)
N27_8 N 0.8817(3) 0.4398(3) 0.2040(2)
N28_8 N 0.6826(3) 0.6850(3) 0.2181(3)
N29_8 N 0.6723(3) 0.7814(3) 0.2410(2)
N30_8 N 0.6226(3) 0.7080(3) 0.2735(2)
C30_8 C 0.8560(4) 0.4938(4) 0.0639(3)
N32_8 N 0.9741(3) 0.4602(3) 0.1818(2)
C31_8 C 0.7073(4) 0.7950(4) 0.2102(3)
N33_8 N 0.9569(3) 0.4012(3) 0.2422(2)
C32_8 C 0.9405(4) 0.4335(4) 0.2092(3)
C33_8 C 0.6605(4) 0.7262(4) 0.2427(3)
C34_8 C 0.6351(4) 0.4960(3) 0.1860(3)
N34_8 N 0.7320(3) 0.7586(3) 0.1824(2)
N35_8 N 0.6763(3) 0.4811(3) 0.1685(2)
C35_8 C 0.5909(4) 0.7426(4) 0.2989(3)
H20_8 H 0.5940 0.7832 0.2989
N36_8 N 0.5563(3) 0.7151(3) 0.3229(2)
C36_8 C 0.7179(4) 0.7051(4) 0.1890(3)
C37_8 C 0.7268(4) 0.6058(3) 0.1644(3)
H21_8 H 0.7012 0.5890 0.1843
N37_8 N 0.7534(3) 0.5782(3) 0.1356(3)
C38_8 C 0.6051(5) 0.6523(4) 0.2823(3)
H22_8 H 0.6178 0.6179 0.2692
C39_8 C 0.8380(4) 0.4185(3) 0.2288(3)
H23_8 H 0.8413 0.3968 0.2543
C40_8 C 0.8572(4) 0.4674(3) 0.1709(3)
H24_8 H 0.8780 0.4857 0.1487
N41_8 N 0.8122(3) 0.4969(3) 0.0792(2)
C43_8 C 0.7771(5) 0.6722(4) 0.1299(4)
H26_8 H 0.7934 0.7073 0.1206
C44_8 C 0.7429(3) 0.8770(3) 0.1709(3)
H27_8 H 0.7577 0.8567 0.1471
N42_8 N 0.5450(4) 0.8263(4) 0.3702(2)
C46_8 C 0.7012(4) 0.8962(4) 0.2324(3)
H29_8 H 0.6811 0.8926 0.2586
C47_8 C 0.7191(4) 0.9451(3) 0.2130(3)
H30_8 H 0.7153 0.9824 0.2248
H31_8 H 0.9621 0.3412 0.3105
C49_8 C 0.5651(5) 0.8597(6) 0.3487(5)
C51_8 C 0.7908(4) 0.4345(3) 0.2095(3)
H33_8 H 0.7534 0.4256 0.2194
C52_8 C 0.7854(5) 0.6195(4) 0.1130(4)
H34_8 H 0.8095 0.6114 0.0894
C54_8 C 0.5667(5) 0.6578(4) 0.3130(3)
H36_8 H 0.5484 0.6265 0.3267
N4_8 N 0.9334(3) 0.0203(3) 0.1626(2)
N10_8 N 0.9484(3) 0.0829(3) 0.2172(2)
C2_8 C 0.9713(4) 0.0489(3) 0.1885(3)
N19_8 N 0.9651(3) 0.1421(3) 0.2753(2)
C14_8 C 0.8763(3) 0.0205(3) 0.1676(3)
H7_8 H 0.8567 0.0403 0.1897
C15_8 C 0.9865(4) 0.1059(4) 0.2429(3)
C21_8 C 0.9980(4) 0.1654(4) 0.3068(3)
C23_8 C 0.9091(4) 0.1615(5) 0.2796(4)
H14_8 H 0.8770 0.1525 0.2624
C26_8 C 0.9111(4) 0.1955(5) 0.3136(4)
H17_8 H 0.8791 0.2158 0.3247
C1_8 C 0.9464(4) 0.9858(3) 0.1279(3)
H1_8 H 0.9832 0.9764 0.1169
C18_8 C 0.8949(4) 0.9686(3) 0.1133(3)
H10_8 H 0.8894 0.9448 0.0890
loop_
_geom_bond_atom_site_label_1
_geom_bond_atom_site_label_2
_geom_bond_site_symmetry_1
_geom_bond_site_symmetry_2
Co1 N15 1_555 1_555
Co2 N2 1_555 1_555
S1 C3 1_555 1_555
S2 C7 1_555 1_555
N1 C4 1_555 1_555
S3 C22 1_555 1_555
N2 C13 1_555 1_555
N3 C9 1_555 1_555
N4 C1 1_555 1_555
N5 C14 1_555 1_555
N6 C5 1_555 1_555
C1 H1 1_555 1_555
N7 C6 1_555 1_555
N8 C4 1_555 1_555
N9 C6 1_555 1_555
N10 C2 1_555 1_555
C2 N4 1_555 1_555
C3 N20 1_555 1_555
N11 C2 1_555 1_555
C4 N13 1_555 1_555
N12 C5 1_555 1_555
C5 N11 1_555 1_555
C6 N8 1_555 1_555
C7 N14 1_555 1_555
N13 C9 1_555 1_555
N14 Co2 1_555 1_555
C8 N9 1_555 1_555
H2 C8 1_555 1_555
N15 C8 1_555 1_555
C9 N7 1_555 1_555
C10 N3 1_555 1_555
H3 C10 1_555 1_555
N16 Co2 1_555 1_555
C11 N9 1_555 1_555
H4 C11 1_555 1_555
C12 N6 1_555 1_555
H5 C12 1_555 1_555
N17 C21 1_555 1_555
N18 C17 1_555 1_555
N19 C15 1_555 1_555
C13 N6 1_555 1_555
H6 C13 1_555 1_555
C14 N4 1_555 1_555
H7 C14 1_555 1_555
N20 Co2 1_555 1_555
C15 N10 1_555 1_555
C16 N3 1_555 1_555
H8 C16 1_555 1_555
C17 N1 1_555 1_555
H9 C17 1_555 1_555
N21 Co1 1_555 1_555
C18 N5 1_555 1_555
H10 C18 1_555 1_555
C19 N1 1_555 1_555
H11 C19 1_555 1_555
C20 N18 1_555 1_555
H12 C20 1_555 1_555
C21 N19 1_555 1_555
H13 C21 1_555 1_555
C22 N21 1_555 1_555
C23 N19 1_555 1_555
H14 C23 1_555 1_555
C24 N2 1_555 1_555
H15 C24 1_555 1_555
C25 N16 1_555 1_555
H16 C25 1_555 1_555
C26 N17 1_555 1_555
H17 C26 1_555 1_555
C27 N15 1_555 1_555
H18 C27 1_555 1_555
Co5 N17 1_555 1_555
Co7 N5 1_555 1_555
Co9 N18 1_555 1_555
N44 Co2 1_555 1_555
N45 Co1 1_555 1_555
N47 Co2 1_555 1_555
C1 C18 1_555 1_555
N12 C15 1_555 1_555
C10 N16 1_555 1_555
C11 C27 1_555 1_555
C12 C24 1_555 1_555
C16 C25 1_555 1_555
C19 C20 1_555 1_555
C23 C26 1_555 1_555
Co3 N23 1_555 1_555
S4 C30 1_555 1_555
N23 C40 1_555 1_555
N27 C32 1_555 1_555
N31 C29 1_555 1_555
C29 N25 1_555 1_555
C30 N41 1_555 1_555
N32 C29 1_555 1_555
N33 C32 1_555 1_555
C32 N32 1_555 1_555
C34 N35 1_555 1_555
N35 Co3 1_555 1_555
C39 N27 1_555 1_555
H23 C39 1_555 1_555
N38 C48 1_555 1_555
N40 C42 1_555 1_555
C40 N27 1_555 1_555
H24 C40 1_555 1_555
C41 N25 1_555 1_555
H25 C41 1_555 1_555
N41 Co3 1_555 1_555
C42 N31 1_555 1_555
C48 N40 1_555 1_555
H31 C48 1_555 1_555
C50 N40 1_555 1_555
H32 C50 1_555 1_555
C51 N23 1_555 1_555
H33 C51 1_555 1_555
C53 N38 1_555 1_555
H35 C53 1_555 1_555
Co5 N38 1_555 1_555
N43 Co3 1_555 1_555
N33 C42 1_555 1_555
C39 C51 1_555 1_555
C50 C53 1_555 1_555
N22 C31 1_555 1_555
S6 C49 1_555 1_555
N24 C36 1_555 1_555
C28 H19 1_555 1_555
N28 C33 1_555 1_555
N29 C31 1_555 1_555
N30 C33 1_555 1_555
C31 N34 1_555 1_555
C33 N29 1_555 1_555
N34 C36 1_555 1_555
C35 N30 1_555 1_555
H20 C35 1_555 1_555
N36 Co1_2 1_555 1_555
C36 N28 1_555 1_555
C37 N24 1_555 1_555
H21 C37 1_555 1_555
C38 N30 1_555 1_555
H22 C38 1_555 1_555
N39 C44 1_555 1_555
C43 N24 1_555 1_555
H26 C43 1_555 1_555
C44 N22 1_555 1_555
H27 C44 1_555 1_555
N42 Co1_2 1_555 1_555
C45 N26 1_555 1_555
H28 C45 1_555 1_555
C46 N22 1_555 1_555
H29 C46 1_555 1_555
C47 N39 1_555 1_555
H30 C47 1_555 1_555
C49 N42 1_555 1_555
C52 N37 1_555 1_555
H34 C52 1_555 1_555
C54 N36 1_555 1_555
H36 C54 1_555 1_555
Co7 N39 1_555 1_555
Co9 N26 1_555 1_555
N46 Co1_2 1_555 1_555
C28 C45 1_555 1_555
C35 N36 1_555 1_555
C37 N37 1_555 1_555
C38 C54 1_555 1_555
C43 C52 1_555 1_555
C46 C47 1_555 1_555
C1_2 H1_2 1_555 1_555
C18_2 N5_2 1_555 1_555
H10_2 C18_2 1_555 1_555
Co7_2 N5_2 1_555 1_555
C1_2 C18_2 1_555 1_555
N10_2 C2_2 1_555 1_555
C2_2 N4_2 1_555 1_555
N17_2 C21_2 1_555 1_555
N19_2 C15_2 1_555 1_555
C14_2 N4_2 1_555 1_555
H7_2 C14_2 1_555 1_555
C15_2 N10_2 1_555 1_555
C21_2 N19_2 1_555 1_555
C23_2 N19_2 1_555 1_555
H14_2 C23_2 1_555 1_555
C26_2 N17_2 1_555 1_555
H17_2 C26_2 1_555 1_555
Co5_2 N17_2 1_555 1_555
C23_2 C26_2 1_555 1_555
Co1_3 N15_2 1_555 1_555
N1_2 C4_2 1_555 1_555
S3_2 C22_2 1_555 1_555
N3_2 C9_2 1_555 1_555
N7_2 C6_2 1_555 1_555
N8_2 C4_2 1_555 1_555
N9_2 C6_2 1_555 1_555
C4_2 N13_2 1_555 1_555
C6_2 N8_2 1_555 1_555
N13_2 C9_2 1_555 1_555
C8_2 N9_2 1_555 1_555
H2_2 C8_2 1_555 1_555
N15_2 C8_2 1_555 1_555
C9_2 N7_2 1_555 1_555
C10_2 N3_2 1_555 1_555
H3_2 C10_2 1_555 1_555
C11_2 N9_2 1_555 1_555
H4_2 C11_2 1_555 1_555
N18_2 C17_2 1_555 1_555
C16_2 N3_2 1_555 1_555
H8_2 C16_2 1_555 1_555
C17_2 N1_2 1_555 1_555
H9_2 C17_2 1_555 1_555
N21_2 Co1_3 1_555 1_555
C19_2 N1_2 1_555 1_555
H11_2 C19_2 1_555 1_555
C20_2 N18_2 1_555 1_555
H12_2 C20_2 1_555 1_555
C22_2 N21_2 1_555 1_555
C25_2 N16_2 1_555 1_555
H16_2 C25_2 1_555 1_555
C27_2 N15_2 1_555 1_555
H18_2 C27_2 1_555 1_555
Co3_2 N23_2 1_555 1_555
S4_2 C30_2 1_555 1_555
S5_2 C34_2 1_555 1_555
N22_2 C31_2 1_555 1_555
S6_2 C49_2 1_555 1_555
N23_2 C40_2 1_555 1_555
N24_2 C36_2 1_555 1_555
N27_2 C32_2 1_555 1_555
N28_2 C33_2 1_555 1_555
N29_2 C31_2 1_555 1_555
N30_2 C33_2 1_555 1_555
C30_2 N41_2 1_555 1_555
C31_2 N34_2 1_555 1_555
N33_2 C32_2 1_555 1_555
C32_2 N32_2 1_555 1_555
C33_2 N29_2 1_555 1_555
C34_2 N35_2 1_555 1_555
N34_2 C36_2 1_555 1_555
N35_2 Co3_2 1_555 1_555
C35_2 N30_2 1_555 1_555
H20_2 C35_2 1_555 1_555
N36_2 Co1_3 1_555 1_555
C36_2 N28_2 1_555 1_555
C37_2 N24_2 1_555 1_555
H21_2 C37_2 1_555 1_555
N37_2 Co3_2 1_555 1_555
C38_2 N30_2 1_555 1_555
H22_2 C38_2 1_555 1_555
C39_2 N27_2 1_555 1_555
H23_2 C39_2 1_555 1_555
N39_2 C44_2 1_555 1_555
C40_2 N27_2 1_555 1_555
H24_2 C40_2 1_555 1_555
N41_2 Co3_2 1_555 1_555
C43_2 N24_2 1_555 1_555
H26_2 C43_2 1_555 1_555
C44_2 N22_2 1_555 1_555
H27_2 C44_2 1_555 1_555
N42_2 Co1_3 1_555 1_555
C46_2 N22_2 1_555 1_555
H29_2 C46_2 1_555 1_555
C47_2 N39_2 1_555 1_555
H30_2 C47_2 1_555 1_555
C49_2 N42_2 1_555 1_555
C51_2 N23_2 1_555 1_555
H33_2 C51_2 1_555 1_555
C52_2 N37_2 1_555 1_555
H34_2 C52_2 1_555 1_555
C54_2 N36_2 1_555 1_555
H36_2 C54_2 1_555 1_555
Co7_2 N39_2 1_555 1_555
Co9_2 N18_2 1_555 1_555
N43_2 Co3_2 1_555 1_555
N45_2 Co1_3 1_555 1_555
N46_2 Co1_3 1_555 1_555
N48_2 Co3_2 1_555 1_555
C10_2 N16_2 1_555 1_555
C11_2 C27_2 1_555 1_555
C16_2 C25_2 1_555 1_555
C19_2 C20_2 1_555 1_555
C35_2 N36_2 1_555 1_555
C37_2 N37_2 1_555 1_555
C38_2 C54_2 1_555 1_555
C39_2 C51_2 1_555 1_555
C43_2 C52_2 1_555 1_555
C46_2 C47_2 1_555 1_555
Co2_2 N2_2 1_555 1_555
S1_2 C3_2 1_555 1_555
N2_2 C13_2 1_555 1_555
N6_2 C5_2 1_555 1_555
C3_2 N20_2 1_555 1_555
N12_2 C5_2 1_555 1_555
C5_2 N11_2 1_555 1_555
C7_2 N14_2 1_555 1_555
N14_2 Co2_2 1_555 1_555
C12_2 N6_2 1_555 1_555
H5_2 C12_2 1_555 1_555
C13_2 N6_2 1_555 1_555
H6_2 C13_2 1_555 1_555
N20_2 Co2_2 1_555 1_555
C24_2 N2_2 1_555 1_555
H15_2 C24_2 1_555 1_555
N44_2 Co2_2 1_555 1_555
C12_2 C24_2 1_555 1_555
N25_2 C28_2 1_555 1_555
N26_2 C41_2 1_555 1_555
C28_2 H19_2 1_555 1_555
N31_2 C29_2 1_555 1_555
C29_2 N25_2 1_555 1_555
N38_2 C48_2 1_555 1_555
N40_2 C42_2 1_555 1_555
C41_2 N25_2 1_555 1_555
H25_2 C41_2 1_555 1_555
C42_2 N31_2 1_555 1_555
C45_2 N26_2 1_555 1_555
H28_2 C45_2 1_555 1_555
C48_2 N40_2 1_555 1_555
C50_2 N40_2 1_555 1_555
H32_2 C50_2 1_555 1_555
C53_2 N38_2 1_555 1_555
H35_2 C53_2 1_555 1_555
Co5_3 N38_2 1_555 1_555
Co9_2 N26_2 1_555 1_555
C28_2 C45_2 1_555 1_555
C50_2 C53_2 1_555 1_555
S4_3 C30_3 1_555 1_555
N23_3 C40_3 1_555 1_555
N25_3 C28_3 1_555 1_555
N44 C41_3 1_555 1_555
N27_3 C32_3 1_555 1_555
C28_3 H19_3 1_555 1_555
N31_3 C29_3 1_555 1_555
C29_3 N25_3 1_555 1_555
C30_3 N41_3 1_555 1_555
N32_3 C29_3 1_555 1_555
N33_3 C32_3 1_555 1_555
C32_3 N32_3 1_555 1_555
C39_3 N27_3 1_555 1_555
H23_3 C39_3 1_555 1_555
N46_2 C48_3 1_555 1_555
N40_3 C42_3 1_555 1_555
C40_3 N27_3 1_555 1_555
H24_3 C40_3 1_555 1_555
C41_3 N25_3 1_555 1_555
H25_3 C41_3 1_555 1_555
C42_3 N31_3 1_555 1_555
H26_3 C43_3 1_555 1_555
C45_3 N44 1_555 1_555
H28_3 C45_3 1_555 1_555
C48_3 N40_3 1_555 1_555
H31_3 C48_3 1_555 1_555
C50_3 N40_3 1_555 1_555
H32_3 C50_3 1_555 1_555
C51_3 N23_3 1_555 1_555
H33_3 C51_3 1_555 1_555
C52_3 N37_3 1_555 1_555
H34_3 C52_3 1_555 1_555
C53_3 N46_2 1_555 1_555
H35_3 C53_3 1_555 1_555
C28_3 C45_3 1_555 1_555
N33_3 C42_3 1_555 1_555
C39_3 C51_3 1_555 1_555
C43_3 C52_3 1_555 1_555
C50_3 C53_3 1_555 1_555
N1_3 C4_3 1_555 1_555
S3_3 C22_3 1_555 1_555
N8_3 C4_3 1_555 1_555
C4_3 N13_3 1_555 1_555
N47 C17_3 1_555 1_555
C17_3 N1_3 1_555 1_555
H9_3 C17_3 1_555 1_555
N21_3 Co5_2 1_555 1_555
C19_3 N1_3 1_555 1_555
H11_3 C19_3 1_555 1_555
C20_3 N47 1_555 1_555
H12_3 C20_3 1_555 1_555
C22_3 N21_3 1_555 1_555
S5_3 C34_3 1_555 1_555
N24_3 C36_3 1_555 1_555
N28_3 C33_3 1_555 1_555
N30_3 C33_3 1_555 1_555
C34_3 N35_3 1_555 1_555
N35_3 Co9 1_555 1_555
C35_3 N30_3 1_555 1_555
N36_3 Co5_2 1_555 1_555
C36_3 N28_3 1_555 1_555
C37_3 N24_3 1_555 1_555
H21_3 C37_3 1_555 1_555
C38_3 N30_3 1_555 1_555
H22_3 C38_3 1_555 1_555
C54_3 N36_3 1_555 1_555
H36_3 C54_3 1_555 1_555
C19_3 C20_3 1_555 1_555
C35_3 N36_3 1_555 1_555
C38_3 C54_3 1_555 1_555
Co5_3 N15_3 1_555 1_555
Co7 N2_3 1_555 1_555
S1_3 C3_3 1_555 1_555
S2_3 C7_3 1_555 1_555
N2_3 C13_3 1_555 1_555
N3_3 C9_3 1_555 1_555
N4_3 C1_3 1_555 1_555
N43 C14_3 1_555 1_555
N6_3 C5_3 1_555 1_555
C1_3 H1_3 1_555 1_555
N7_3 C6_3 1_555 1_555
N9_3 C6_3 1_555 1_555
N10_3 C2_3 1_555 1_555
C2_3 N4_3 1_555 1_555
C3_3 N20_3 1_555 1_555
N11_3 C2_3 1_555 1_555
N12_3 C5_3 1_555 1_555
C5_3 N11_3 1_555 1_555
C7_3 N14_3 1_555 1_555
N14_3 Co7 1_555 1_555
C8_3 N9_3 1_555 1_555
N15_3 C8_3 1_555 1_555
C9_3 N7_3 1_555 1_555
C10_3 N3_3 1_555 1_555
H3_3 C10_3 1_555 1_555
N16_3 Co7 1_555 1_555
C11_3 N9_3 1_555 1_555
H4_3 C11_3 1_555 1_555
C12_3 N6_3 1_555 1_555
H5_3 C12_3 1_555 1_555
N45_2 C21_3 1_555 1_555
N19_3 C15_3 1_555 1_555
C13_3 N6_3 1_555 1_555
H6_3 C13_3 1_555 1_555
C14_3 N4_3 1_555 1_555
H7_3 C14_3 1_555 1_555
N20_3 Co7 1_555 1_555
C15_3 N10_3 1_555 1_555
C16_3 N3_3 1_555 1_555
H8_3 C16_3 1_555 1_555
C18_3 N43 1_555 1_555
H10_3 C18_3 1_555 1_555
C21_3 N19_3 1_555 1_555
H13_3 C21_3 1_555 1_555
C23_3 N19_3 1_555 1_555
H14_3 C23_3 1_555 1_555
C24_3 N2_3 1_555 1_555
H15_3 C24_3 1_555 1_555
C25_3 N16_3 1_555 1_555
H16_3 C25_3 1_555 1_555
C26_3 N45_2 1_555 1_555
H17_3 C26_3 1_555 1_555
C27_3 N15_3 1_555 1_555
H18_3 C27_3 1_555 1_555
N22_3 C31_3 1_555 1_555
S6_3 C49_3 1_555 1_555
N29_3 C31_3 1_555 1_555
C31_3 N34_3 1_555 1_555
N48 C44_3 1_555 1_555
C44_3 N22_3 1_555 1_555
N42_3 Co5_3 1_555 1_555
C46_3 N22_3 1_555 1_555
H29_3 C46_3 1_555 1_555
C47_3 N48 1_555 1_555
H30_3 C47_3 1_555 1_555
C49_3 N42_3 1_555 1_555
C1_3 C18_3 1_555 1_555
N12_3 C15_3 1_555 1_555
C10_3 N16_3 1_555 1_555
C11_3 C27_3 1_555 1_555
C12_3 C24_3 1_555 1_555
C16_3 C25_3 1_555 1_555
C23_3 C26_3 1_555 1_555
C46_3 C47_3 1_555 1_555
Co5 N15_4 1_555 1_555
S3_4 C22_4 1_555 1_555
C8_4 N9_4 1_555 1_555
H2_4 C8_4 1_555 1_555
N15_4 C8_4 1_555 1_555
C11_4 N9_4 1_555 1_555
H4_4 C11_4 1_555 1_555
N21_4 Co5 1_555 1_555
C22_4 N21_4 1_555 1_555
C27_4 N15_4 1_555 1_555
H18_4 C27_4 1_555 1_555
S6_4 C49_4 1_555 1_555
C35_4 N30_4 1_555 1_555
H20_4 C35_4 1_555 1_555
N36_4 Co5 1_555 1_555
C38_4 N30_4 1_555 1_555
H22_4 C38_4 1_555 1_555
N46 C48_4 1_555 1_555
N42_4 Co5 1_555 1_555
C48_4 N40_4 1_555 1_555
H31_4 C48_4 1_555 1_555
C49_4 N42_4 1_555 1_555
C50_4 N40_4 1_555 1_555
H32_4 C50_4 1_555 1_555
C53_4 N46 1_555 1_555
H35_4 C53_4 1_555 1_555
C54_4 N36_4 1_555 1_555
H36_4 C54_4 1_555 1_555
C11_4 C27_4 1_555 1_555
C35_4 N36_4 1_555 1_555
C38_4 C54_4 1_555 1_555
C50_4 C53_4 1_555 1_555
S2_4 C7_4 1_555 1_555
N1_4 C4_4 1_555 1_555
N3_4 C9_4 1_555 1_555
N7_4 C6_4 1_555 1_555
N8_4 C4_4 1_555 1_555
C4_4 N13_4 1_555 1_555
C6_4 N8_4 1_555 1_555
C7_4 N14_4 1_555 1_555
N13_4 C9_4 1_555 1_555
N14_4 Co7_2 1_555 1_555
C9_4 N7_4 1_555 1_555
C10_4 N3_4 1_555 1_555
H3_4 C10_4 1_555 1_555
N47_2 C17_4 1_555 1_555
C17_4 N1_4 1_555 1_555
C19_4 N1_4 1_555 1_555
C20_4 N47_2 1_555 1_555
H12_4 C20_4 1_555 1_555
Co9_2 N23_4 1_555 1_555
S4_4 C30_4 1_555 1_555
S5_4 C34_4 1_555 1_555
N22_4 C31_4 1_555 1_555
N23_4 C40_4 1_555 1_555
N24_4 C36_4 1_555 1_555
N25_4 C28_4 1_555 1_555
N44_2 C41_4 1_555 1_555
N27_4 C32_4 1_555 1_555
C28_4 H19_4 1_555 1_555
N28_4 C33_4 1_555 1_555
N29_4 C31_4 1_555 1_555
N31_4 C29_4 1_555 1_555
C29_4 N25_4 1_555 1_555
C30_4 N41_4 1_555 1_555
N32_4 C29_4 1_555 1_555
C31_4 N34_4 1_555 1_555
N33_4 C32_4 1_555 1_555
C32_4 N32_4 1_555 1_555
C33_4 N29_4 1_555 1_555
C34_4 N35_4 1_555 1_555
N34_4 C36_4 1_555 1_555
N35_4 Co9_2 1_555 1_555
C36_4 N28_4 1_555 1_555
C37_4 N24_4 1_555 1_555
H21_4 C37_4 1_555 1_555
N37_4 Co9_2 1_555 1_555
C39_4 N27_4 1_555 1_555
N48_2 C44_4 1_555 1_555
C40_4 N27_4 1_555 1_555
H24_4 C40_4 1_555 1_555
C41_4 N25_4 1_555 1_555
H25_4 C41_4 1_555 1_555
N41_4 Co9_2 1_555 1_555
C42_4 N31_4 1_555 1_555
C43_4 N24_4 1_555 1_555
H26_4 C43_4 1_555 1_555
C44_4 N22_4 1_555 1_555
H27_4 C44_4 1_555 1_555
C45_4 N44_2 1_555 1_555
H28_4 C45_4 1_555 1_555
C46_4 N22_4 1_555 1_555
C47_4 N48_2 1_555 1_555
H30_4 C47_4 1_555 1_555
C51_4 N23_4 1_555 1_555
H33_4 C51_4 1_555 1_555
C52_4 N37_4 1_555 1_555
H34_4 C52_4 1_555 1_555
C19_4 C20_4 1_555 1_555
C28_4 C45_4 1_555 1_555
N33_4 C42_4 1_555 1_555
C37_4 N37_4 1_555 1_555
C39_4 C51_4 1_555 1_555
C43_4 C52_4 1_555 1_555
C46_4 C47_4 1_555 1_555
N45 C21_4 1_555 1_555
C21_4 N19_4 1_555 1_555
H13_4 C21_4 1_555 1_555
C23_4 N19_4 1_555 1_555
H14_4 C23_4 1_555 1_555
C26_4 N45 1_555 1_555
H17_4 C26_4 1_555 1_555
C23_4 C26_4 1_555 1_555
S1_4 C3_4 1_555 1_555
N2_4 C13_4 1_555 1_555
N4_4 C1_4 1_555 1_555
N43_2 C14_4 1_555 1_555
N6_4 C5_4 1_555 1_555
C1_4 H1_4 1_555 1_555
N10_4 C2_4 1_555 1_555
C2_4 N4_4 1_555 1_555
C3_4 N20_4 1_555 1_555
N11_4 C2_4 1_555 1_555
N12_4 C5_4 1_555 1_555
C5_4 N11_4 1_555 1_555
C12_4 N6_4 1_555 1_555
C13_4 N6_4 1_555 1_555
H6_4 C13_4 1_555 1_555
C14_4 N4_4 1_555 1_555
H7_4 C14_4 1_555 1_555
C15_4 N10_4 1_555 1_555
H8_4 C16_4 1_555 1_555
C18_4 N43_2 1_555 1_555
H10_4 C18_4 1_555 1_555
C24_4 N2_4 1_555 1_555
H15_4 C24_4 1_555 1_555
C25_4 N16_4 1_555 1_555
H16_4 C25_4 1_555 1_555
C1_4 C18_4 1_555 1_555
N12_4 C15_4 1_555 1_555
C12_4 C24_4 1_555 1_555
C16_4 C25_4 1_555 1_555
Co1_4 N15_5 1_555 1_555
Co2_3 N2_5 1_555 1_555
S1_5 C3_5 1_555 1_555
S2_5 C7_5 1_555 1_555
N2_5 C13_5 1_555 1_555
N3_5 C9_5 1_555 1_555
N4_5 C1_5 1_555 1_555
N5_3 C14_5 1_555 1_555
N6_5 C5_5 1_555 1_555
C1_5 H1_5 1_555 1_555
N7_5 C6_5 1_555 1_555
N9_5 C6_5 1_555 1_555
N10_5 C2_5 1_555 1_555
C2_5 N4_5 1_555 1_555
C3_5 N20_5 1_555 1_555
N11_5 C2_5 1_555 1_555
N12_5 C5_5 1_555 1_555
C5_5 N11_5 1_555 1_555
C7_5 N14_5 1_555 1_555
N14_5 Co2_3 1_555 1_555
C8_5 N9_5 1_555 1_555
N15_5 C8_5 1_555 1_555
C9_5 N7_5 1_555 1_555
C10_5 N3_5 1_555 1_555
H3_5 C10_5 1_555 1_555
N16_5 Co2_3 1_555 1_555
C11_5 N9_5 1_555 1_555
H4_5 C11_5 1_555 1_555
C12_5 N6_5 1_555 1_555
H5_5 C12_5 1_555 1_555
N17_3 C21_5 1_555 1_555
N19_5 C15_5 1_555 1_555
C13_5 N6_5 1_555 1_555
H6_5 C13_5 1_555 1_555
C14_5 N4_5 1_555 1_555
H7_5 C14_5 1_555 1_555
N20_5 Co2_3 1_555 1_555
C15_5 N10_5 1_555 1_555
C16_5 N3_5 1_555 1_555
H8_5 C16_5 1_555 1_555
C18_5 N5_3 1_555 1_555
H10_5 C18_5 1_555 1_555
C21_5 N19_5 1_555 1_555
H13_5 C21_5 1_555 1_555
C23_5 N19_5 1_555 1_555
H14_5 C23_5 1_555 1_555
C24_5 N2_5 1_555 1_555
H15_5 C24_5 1_555 1_555
C25_5 N16_5 1_555 1_555
H16_5 C25_5 1_555 1_555
C26_5 N17_3 1_555 1_555
H17_5 C26_5 1_555 1_555
C27_5 N15_5 1_555 1_555
H18_5 C27_5 1_555 1_555
N22_5 C31_5 1_555 1_555
S6_5 C49_5 1_555 1_555
N29_5 C31_5 1_555 1_555
C31_5 N34_5 1_555 1_555
N39_3 C44_5 1_555 1_555
C44_5 N22_5 1_555 1_555
N42_5 Co1_4 1_555 1_555
C46_5 N22_5 1_555 1_555
H29_5 C46_5 1_555 1_555
C47_5 N39_3 1_555 1_555
H30_5 C47_5 1_555 1_555
C49_5 N42_5 1_555 1_555
Co5_4 N17_3 1_555 1_555
Co7_3 N5_3 1_555 1_555
N44_3 Co2_3 1_555 1_555
N45_3 Co1_4 1_555 1_555
N47_3 Co2_3 1_555 1_555
C1_5 C18_5 1_555 1_555
N12_5 C15_5 1_555 1_555
C10_5 N16_5 1_555 1_555
C11_5 C27_5 1_555 1_555
C12_5 C24_5 1_555 1_555
C16_5 C25_5 1_555 1_555
C23_5 C26_5 1_555 1_555
C46_5 C47_5 1_555 1_555
N1_5 C4_5 1_555 1_555
S3_5 C22_5 1_555 1_555
N8_5 C4_5 1_555 1_555
C4_5 N13_5 1_555 1_555
N18_3 C17_5 1_555 1_555
C17_5 N1_5 1_555 1_555
H9_5 C17_5 1_555 1_555
N21_5 Co1_5 1_555 1_555
C19_5 N1_5 1_555 1_555
H11_5 C19_5 1_555 1_555
C20_5 N18_3 1_555 1_555
H12_5 C20_5 1_555 1_555
C22_5 N21_5 1_555 1_555
S5_5 C34_5 1_555 1_555
N24_5 C36_5 1_555 1_555
N28_5 C33_5 1_555 1_555
N30_5 C33_5 1_555 1_555
C34_5 N35_5 1_555 1_555
N35_5 Co3_3 1_555 1_555
C35_5 N30_5 1_555 1_555
N36_5 Co1_5 1_555 1_555
C36_5 N28_5 1_555 1_555
C37_5 N24_5 1_555 1_555
H21_5 C37_5 1_555 1_555
C38_5 N30_5 1_555 1_555
H22_5 C38_5 1_555 1_555
C54_5 N36_5 1_555 1_555
H36_5 C54_5 1_555 1_555
Co9_3 N18_3 1_555 1_555
N43_3 Co3_3 1_555 1_555
N46_3 Co1_5 1_555 1_555
N48_3 Co3_3 1_555 1_555
C19_5 C20_5 1_555 1_555
C35_5 N36_5 1_555 1_555
C38_5 C54_5 1_555 1_555
S4_5 C30_5 1_555 1_555
N23_5 C40_5 1_555 1_555
N25_5 C28_5 1_555 1_555
N26_3 C41_5 1_555 1_555
N27_5 C32_5 1_555 1_555
C28_5 H19_5 1_555 1_555
N31_5 C29_5 1_555 1_555
C29_5 N25_5 1_555 1_555
C30_5 N41_5 1_555 1_555
N32_5 C29_5 1_555 1_555
N33_5 C32_5 1_555 1_555
C32_5 N32_5 1_555 1_555
C39_5 N27_5 1_555 1_555
H23_5 C39_5 1_555 1_555
N38_3 C48_5 1_555 1_555
N40_5 C42_5 1_555 1_555
C40_5 N27_5 1_555 1_555
H24_5 C40_5 1_555 1_555
C41_5 N25_5 1_555 1_555
H25_5 C41_5 1_555 1_555
C42_5 N31_5 1_555 1_555
H26_5 C43_5 1_555 1_555
C45_5 N26_3 1_555 1_555
H28_5 C45_5 1_555 1_555
C48_5 N40_5 1_555 1_555
H31_5 C48_5 1_555 1_555
C50_5 N40_5 1_555 1_555
H32_5 C50_5 1_555 1_555
C51_5 N23_5 1_555 1_555
H33_5 C51_5 1_555 1_555
C52_5 N37_5 1_555 1_555
H34_5 C52_5 1_555 1_555
C53_5 N38_3 1_555 1_555
H35_5 C53_5 1_555 1_555
Co5_4 N38_3 1_555 1_555
Co9_3 N26_3 1_555 1_555
C28_5 C45_5 1_555 1_555
N33_5 C42_5 1_555 1_555
C39_5 C51_5 1_555 1_555
C43_5 C52_5 1_555 1_555
C50_5 C53_5 1_555 1_555
S1_6 C3_6 1_555 1_555
N2_6 C13_6 1_555 1_555
N4_6 C1_6 1_555 1_555
N5_4 C14_6 1_555 1_555
N6_6 C5_6 1_555 1_555
C1_6 H1_6 1_555 1_555
N10_6 C2_6 1_555 1_555
C2_6 N4_6 1_555 1_555
C3_6 N20_6 1_555 1_555
N11_6 C2_6 1_555 1_555
N12_6 C5_6 1_555 1_555
C5_6 N11_6 1_555 1_555
C12_6 N6_6 1_555 1_555
C13_6 N6_6 1_555 1_555
H6_6 C13_6 1_555 1_555
C14_6 N4_6 1_555 1_555
H7_6 C14_6 1_555 1_555
C15_6 N10_6 1_555 1_555
H8_6 C16_6 1_555 1_555
C18_6 N5_4 1_555 1_555
H10_6 C18_6 1_555 1_555
C24_6 N2_6 1_555 1_555
H15_6 C24_6 1_555 1_555
C25_6 N16_6 1_555 1_555
H16_6 C25_6 1_555 1_555
Co7_4 N5_4 1_555 1_555
C1_6 C18_6 1_555 1_555
N12_6 C15_6 1_555 1_555
C12_6 C24_6 1_555 1_555
C16_6 C25_6 1_555 1_555
N17_4 C21_6 1_555 1_555
C21_6 N19_6 1_555 1_555
H13_6 C21_6 1_555 1_555
C23_6 N19_6 1_555 1_555
H14_6 C23_6 1_555 1_555
C26_6 N17_4 1_555 1_555
H17_6 C26_6 1_555 1_555
Co5_6 N17_4 1_555 1_555
C23_6 C26_6 1_555 1_555
S2_6 C7_6 1_555 1_555
N1_6 C4_6 1_555 1_555
N3_6 C9_6 1_555 1_555
N7_6 C6_6 1_555 1_555
N8_6 C4_6 1_555 1_555
C4_6 N13_6 1_555 1_555
C6_6 N8_6 1_555 1_555
C7_6 N14_6 1_555 1_555
N13_6 C9_6 1_555 1_555
N14_6 Co2_4 1_555 1_555
C9_6 N7_6 1_555 1_555
C10_6 N3_6 1_555 1_555
H3_6 C10_6 1_555 1_555
N18_4 C17_6 1_555 1_555
C17_6 N1_6 1_555 1_555
C19_6 N1_6 1_555 1_555
C20_6 N18_4 1_555 1_555
H12_6 C20_6 1_555 1_555
Co3_4 N23_6 1_555 1_555
S4_6 C30_6 1_555 1_555
S5_6 C34_6 1_555 1_555
N22_6 C31_6 1_555 1_555
N23_6 C40_6 1_555 1_555
N24_6 C36_6 1_555 1_555
N25_6 C28_6 1_555 1_555
N26_4 C41_6 1_555 1_555
N27_6 C32_6 1_555 1_555
C28_6 H19_6 1_555 1_555
N28_6 C33_6 1_555 1_555
N29_6 C31_6 1_555 1_555
N31_6 C29_6 1_555 1_555
C29_6 N25_6 1_555 1_555
C30_6 N41_6 1_555 1_555
N32_6 C29_6 1_555 1_555
C31_6 N34_6 1_555 1_555
N33_6 C32_6 1_555 1_555
C32_6 N32_6 1_555 1_555
C33_6 N29_6 1_555 1_555
C34_6 N35_6 1_555 1_555
N34_6 C36_6 1_555 1_555
N35_6 Co3_4 1_555 1_555
C36_6 N28_6 1_555 1_555
C37_6 N24_6 1_555 1_555
H21_6 C37_6 1_555 1_555
N37_6 Co3_4 1_555 1_555
C39_6 N27_6 1_555 1_555
N39_4 C44_6 1_555 1_555
C40_6 N27_6 1_555 1_555
H24_6 C40_6 1_555 1_555
C41_6 N25_6 1_555 1_555
H25_6 C41_6 1_555 1_555
N41_6 Co3_4 1_555 1_555
C42_6 N31_6 1_555 1_555
C43_6 N24_6 1_555 1_555
H26_6 C43_6 1_555 1_555
C44_6 N22_6 1_555 1_555
H27_6 C44_6 1_555 1_555
C45_6 N26_4 1_555 1_555
H28_6 C45_6 1_555 1_555
C46_6 N22_6 1_555 1_555
C47_6 N39_4 1_555 1_555
H30_6 C47_6 1_555 1_555
C51_6 N23_6 1_555 1_555
H33_6 C51_6 1_555 1_555
C52_6 N37_6 1_555 1_555
H34_6 C52_6 1_555 1_555
Co7_4 N39_4 1_555 1_555
Co9_4 N26_4 1_555 1_555
N43_4 Co3_4 1_555 1_555
N44_4 Co2_4 1_555 1_555
N47_4 Co2_4 1_555 1_555
N48_4 Co3_4 1_555 1_555
C19_6 C20_6 1_555 1_555
C28_6 C45_6 1_555 1_555
N33_6 C42_6 1_555 1_555
C37_6 N37_6 1_555 1_555
C39_6 C51_6 1_555 1_555
C43_6 C52_6 1_555 1_555
C46_6 C47_6 1_555 1_555
Co1_6 N15_6 1_555 1_555
S3_6 C22_6 1_555 1_555
C8_6 N9_6 1_555 1_555
H2_6 C8_6 1_555 1_555
N15_6 C8_6 1_555 1_555
C11_6 N9_6 1_555 1_555
H4_6 C11_6 1_555 1_555
N21_6 Co1_6 1_555 1_555
C22_6 N21_6 1_555 1_555
C27_6 N15_6 1_555 1_555
H18_6 C27_6 1_555 1_555
S6_6 C49_6 1_555 1_555
C35_6 N30_6 1_555 1_555
H20_6 C35_6 1_555 1_555
N36_6 Co1_6 1_555 1_555
C38_6 N30_6 1_555 1_555
H22_6 C38_6 1_555 1_555
N38_4 C48_6 1_555 1_555
N42_6 Co1_6 1_555 1_555
C48_6 N40_6 1_555 1_555
H31_6 C48_6 1_555 1_555
C49_6 N42_6 1_555 1_555
C50_6 N40_6 1_555 1_555
H32_6 C50_6 1_555 1_555
C53_6 N38_4 1_555 1_555
H35_6 C53_6 1_555 1_555
C54_6 N36_6 1_555 1_555
H36_6 C54_6 1_555 1_555
Co5_5 N38_4 1_555 1_555
N45_4 Co1_6 1_555 1_555
N46_4 Co1_6 1_555 1_555
C11_6 C27_6 1_555 1_555
C35_6 N36_6 1_555 1_555
C38_6 C54_6 1_555 1_555
C50_6 C53_6 1_555 1_555
N22_7 C31_7 1_555 1_555
S6_7 C49_7 1_555 1_555
N24_7 C36_7 1_555 1_555
C28_7 H19_7 1_555 1_555
N28_7 C33_7 1_555 1_555
N29_7 C31_7 1_555 1_555
N30_7 C33_7 1_555 1_555
C31_7 N34_7 1_555 1_555
C33_7 N29_7 1_555 1_555
N34_7 C36_7 1_555 1_555
C35_7 N30_7 1_555 1_555
H20_7 C35_7 1_555 1_555
N36_7 Co5_5 1_555 1_555
C36_7 N28_7 1_555 1_555
C37_7 N24_7 1_555 1_555
H21_7 C37_7 1_555 1_555
C38_7 N30_7 1_555 1_555
H22_7 C38_7 1_555 1_555
N47_3 C44_7 1_555 1_555
C43_7 N24_7 1_555 1_555
H26_7 C43_7 1_555 1_555
C44_7 N22_7 1_555 1_555
H27_7 C44_7 1_555 1_555
N42_7 Co5_5 1_555 1_555
C45_7 N43_3 1_555 1_555
H28_7 C45_7 1_555 1_555
C46_7 N22_7 1_555 1_555
H29_7 C46_7 1_555 1_555
C47_7 N47_3 1_555 1_555
H30_7 C47_7 1_555 1_555
C49_7 N42_7 1_555 1_555
C52_7 N37_7 1_555 1_555
H34_7 C52_7 1_555 1_555
C54_7 N36_7 1_555 1_555
H36_7 C54_7 1_555 1_555
C28_7 C45_7 1_555 1_555
C35_7 N36_7 1_555 1_555
C37_7 N37_7 1_555 1_555
C38_7 C54_7 1_555 1_555
C43_7 C52_7 1_555 1_555
C46_7 C47_7 1_555 1_555
Co7_3 N23_7 1_555 1_555
S4_7 C30_7 1_555 1_555
N23_7 C40_7 1_555 1_555
N27_7 C32_7 1_555 1_555
N31_7 C29_7 1_555 1_555
C29_7 N25_7 1_555 1_555
C30_7 N41_7 1_555 1_555
N32_7 C29_7 1_555 1_555
N33_7 C32_7 1_555 1_555
C32_7 N32_7 1_555 1_555
C34_7 N35_7 1_555 1_555
N35_7 Co7_3 1_555 1_555
C39_7 N27_7 1_555 1_555
H23_7 C39_7 1_555 1_555
N45_4 C48_7 1_555 1_555
N40_7 C42_7 1_555 1_555
C40_7 N27_7 1_555 1_555
H24_7 C40_7 1_555 1_555
C41_7 N25_7 1_555 1_555
H25_7 C41_7 1_555 1_555
N41_7 Co7_3 1_555 1_555
C42_7 N31_7 1_555 1_555
C48_7 N40_7 1_555 1_555
H31_7 C48_7 1_555 1_555
C50_7 N40_7 1_555 1_555
H32_7 C50_7 1_555 1_555
C51_7 N23_7 1_555 1_555
H33_7 C51_7 1_555 1_555
C53_7 N45_4 1_555 1_555
H35_7 C53_7 1_555 1_555
N33_7 C42_7 1_555 1_555
C39_7 C51_7 1_555 1_555
C50_7 C53_7 1_555 1_555
Co5_6 N15_7 1_555 1_555
Co9_3 N2_7 1_555 1_555
S1_7 C3_7 1_555 1_555
S2_7 C7_7 1_555 1_555
N1_7 C4_7 1_555 1_555
S3_7 C22_7 1_555 1_555
N2_7 C13_7 1_555 1_555
N3_7 C9_7 1_555 1_555
N4_7 C1_7 1_555 1_555
N44_3 C14_7 1_555 1_555
N6_7 C5_7 1_555 1_555
C1_7 H1_7 1_555 1_555
N7_7 C6_7 1_555 1_555
N8_7 C4_7 1_555 1_555
N9_7 C6_7 1_555 1_555
N10_7 C2_7 1_555 1_555
C2_7 N4_7 1_555 1_555
C3_7 N20_7 1_555 1_555
N11_7 C2_7 1_555 1_555
C4_7 N13_7 1_555 1_555
N12_7 C5_7 1_555 1_555
C5_7 N11_7 1_555 1_555
C6_7 N8_7 1_555 1_555
C7_7 N14_7 1_555 1_555
N13_7 C9_7 1_555 1_555
N14_7 Co9_3 1_555 1_555
C8_7 N9_7 1_555 1_555
H2_7 C8_7 1_555 1_555
N15_7 C8_7 1_555 1_555
C9_7 N7_7 1_555 1_555
C10_7 N3_7 1_555 1_555
H3_7 C10_7 1_555 1_555
N16_7 Co9_3 1_555 1_555
C11_7 N9_7 1_555 1_555
H4_7 C11_7 1_555 1_555
C12_7 N6_7 1_555 1_555
H5_7 C12_7 1_555 1_555
N46_4 C21_7 1_555 1_555
N48_3 C17_7 1_555 1_555
N19_7 C15_7 1_555 1_555
C13_7 N6_7 1_555 1_555
H6_7 C13_7 1_555 1_555
C14_7 N4_7 1_555 1_555
H7_7 C14_7 1_555 1_555
N20_7 Co9_3 1_555 1_555
C15_7 N10_7 1_555 1_555
C16_7 N3_7 1_555 1_555
H8_7 C16_7 1_555 1_555
C17_7 N1_7 1_555 1_555
H9_7 C17_7 1_555 1_555
N21_7 Co5_6 1_555 1_555
C18_7 N44_3 1_555 1_555
H10_7 C18_7 1_555 1_555
C19_7 N1_7 1_555 1_555
H11_7 C19_7 1_555 1_555
C20_7 N48_3 1_555 1_555
H12_7 C20_7 1_555 1_555
C21_7 N19_7 1_555 1_555
H13_7 C21_7 1_555 1_555
C22_7 N21_7 1_555 1_555
C23_7 N19_7 1_555 1_555
H14_7 C23_7 1_555 1_555
C24_7 N2_7 1_555 1_555
H15_7 C24_7 1_555 1_555
C25_7 N16_7 1_555 1_555
H16_7 C25_7 1_555 1_555
C26_7 N46_4 1_555 1_555
H17_7 C26_7 1_555 1_555
C27_7 N15_7 1_555 1_555
H18_7 C27_7 1_555 1_555
C1_7 C18_7 1_555 1_555
N12_7 C15_7 1_555 1_555
C10_7 N16_7 1_555 1_555
C11_7 C27_7 1_555 1_555
C12_7 C24_7 1_555 1_555
C16_7 C25_7 1_555 1_555
C19_7 C20_7 1_555 1_555
C23_7 C26_7 1_555 1_555
N25_8 C28_8 1_555 1_555
N43_4 C41_8 1_555 1_555
C28_8 H19_8 1_555 1_555
N31_8 C29_8 1_555 1_555
C29_8 N25_8 1_555 1_555
N45_3 C48_8 1_555 1_555
N40_8 C42_8 1_555 1_555
C41_8 N25_8 1_555 1_555
H25_8 C41_8 1_555 1_555
C42_8 N31_8 1_555 1_555
C45_8 N43_4 1_555 1_555
H28_8 C45_8 1_555 1_555
C48_8 N40_8 1_555 1_555
C50_8 N40_8 1_555 1_555
H32_8 C50_8 1_555 1_555
C53_8 N45_3 1_555 1_555
H35_8 C53_8 1_555 1_555
C28_8 C45_8 1_555 1_555
C50_8 C53_8 1_555 1_555
Co9_4 N2_8 1_555 1_555
S1_8 C3_8 1_555 1_555
N2_8 C13_8 1_555 1_555
N6_8 C5_8 1_555 1_555
C3_8 N20_8 1_555 1_555
N12_8 C5_8 1_555 1_555
C5_8 N11_8 1_555 1_555
C7_8 N14_8 1_555 1_555
N14_8 Co9_4 1_555 1_555
C12_8 N6_8 1_555 1_555
H5_8 C12_8 1_555 1_555
C13_8 N6_8 1_555 1_555
H6_8 C13_8 1_555 1_555
N20_8 Co9_4 1_555 1_555
C24_8 N2_8 1_555 1_555
H15_8 C24_8 1_555 1_555
C12_8 C24_8 1_555 1_555
Co5_4 N15_8 1_555 1_555
N1_8 C4_8 1_555 1_555
S3_8 C22_8 1_555 1_555
N3_8 C9_8 1_555 1_555
N7_8 C6_8 1_555 1_555
N8_8 C4_8 1_555 1_555
N9_8 C6_8 1_555 1_555
C4_8 N13_8 1_555 1_555
C6_8 N8_8 1_555 1_555
N13_8 C9_8 1_555 1_555
C8_8 N9_8 1_555 1_555
H2_8 C8_8 1_555 1_555
N15_8 C8_8 1_555 1_555
C9_8 N7_8 1_555 1_555
C10_8 N3_8 1_555 1_555
H3_8 C10_8 1_555 1_555
C11_8 N9_8 1_555 1_555
H4_8 C11_8 1_555 1_555
N48_4 C17_8 1_555 1_555
C16_8 N3_8 1_555 1_555
H8_8 C16_8 1_555 1_555
C17_8 N1_8 1_555 1_555
H9_8 C17_8 1_555 1_555
N21_8 Co5_4 1_555 1_555
C19_8 N1_8 1_555 1_555
H11_8 C19_8 1_555 1_555
C20_8 N48_4 1_555 1_555
H12_8 C20_8 1_555 1_555
C22_8 N21_8 1_555 1_555
C25_8 N16_8 1_555 1_555
H16_8 C25_8 1_555 1_555
C27_8 N15_8 1_555 1_555
H18_8 C27_8 1_555 1_555
Co7_4 N23_8 1_555 1_555
S4_8 C30_8 1_555 1_555
S5_8 C34_8 1_555 1_555
N22_8 C31_8 1_555 1_555
S6_8 C49_8 1_555 1_555
N23_8 C40_8 1_555 1_555
N24_8 C36_8 1_555 1_555
N27_8 C32_8 1_555 1_555
N28_8 C33_8 1_555 1_555
N29_8 C31_8 1_555 1_555
N30_8 C33_8 1_555 1_555
C30_8 N41_8 1_555 1_555
C31_8 N34_8 1_555 1_555
N33_8 C32_8 1_555 1_555
C32_8 N32_8 1_555 1_555
C33_8 N29_8 1_555 1_555
C34_8 N35_8 1_555 1_555
N34_8 C36_8 1_555 1_555
N35_8 Co7_4 1_555 1_555
C35_8 N30_8 1_555 1_555
H20_8 C35_8 1_555 1_555
N36_8 Co5_4 1_555 1_555
C36_8 N28_8 1_555 1_555
C37_8 N24_8 1_555 1_555
H21_8 C37_8 1_555 1_555
N37_8 Co7_4 1_555 1_555
C38_8 N30_8 1_555 1_555
H22_8 C38_8 1_555 1_555
C39_8 N27_8 1_555 1_555
H23_8 C39_8 1_555 1_555
N47_4 C44_8 1_555 1_555
C40_8 N27_8 1_555 1_555
H24_8 C40_8 1_555 1_555
N41_8 Co7_4 1_555 1_555
C43_8 N24_8 1_555 1_555
H26_8 C43_8 1_555 1_555
C44_8 N22_8 1_555 1_555
H27_8 C44_8 1_555 1_555
N42_8 Co5_4 1_555 1_555
C46_8 N22_8 1_555 1_555
H29_8 C46_8 1_555 1_555
C47_8 N47_4 1_555 1_555
H30_8 C47_8 1_555 1_555
C49_8 N42_8 1_555 1_555
C51_8 N23_8 1_555 1_555
H33_8 C51_8 1_555 1_555
C52_8 N37_8 1_555 1_555
H34_8 C52_8 1_555 1_555
C54_8 N36_8 1_555 1_555
H36_8 C54_8 1_555 1_555
C10_8 N16_8 1_555 1_555
C11_8 C27_8 1_555 1_555
C16_8 C25_8 1_555 1_555
C19_8 C20_8 1_555 1_555
C35_8 N36_8 1_555 1_555
C37_8 N37_8 1_555 1_555
C38_8 C54_8 1_555 1_555
C39_8 C51_8 1_555 1_555
C43_8 C52_8 1_555 1_555
C46_8 C47_8 1_555 1_555
N10_8 C2_8 1_555 1_555
C2_8 N4_8 1_555 1_555
N46_3 C21_8 1_555 1_555
N19_8 C15_8 1_555 1_555
C14_8 N4_8 1_555 1_555
H7_8 C14_8 1_555 1_555
C15_8 N10_8 1_555 1_555
C21_8 N19_8 1_555 1_555
C23_8 N19_8 1_555 1_555
H14_8 C23_8 1_555 1_555
C26_8 N46_3 1_555 1_555
H17_8 C26_8 1_555 1_555
C23_8 C26_8 1_555 1_555
C1_8 H1_8 1_555 1_555
C18_8 N44_4 1_555 1_555
H10_8 C18_8 1_555 1_555
C1_8 C18_8 1_555 1_555

#END
