
###############################################################################
#
# This file contains modified crystal structure data generated from the
# MOF subset of the Cambridge Structural Database (CSD) v543 
# hosted by the Cambridge Crystallographic Data Centre (CCDC).
#
# This work is licensed under the Creative Commons
# Attribution-NonCommercial-ShareAlike 4.0 International License.
# To view a copy of this license, visit
# http://creativecommons.org/licenses/by-nc-sa/4.0/
# or send a letter to
# Creative Commons, PO Box 1866, Mountain View, CA 94042, USA.
#
# CIF created using the CSD Python API on 29 September 2022
# The structure has been converted into the P1 space group
# The structure has a 3D framework
# The original CSD entry AWEDOW is in the orthorhombic crystal system
# The framework has been calculated to contain at least 10.0% void space
# The void calculation uses a probe of radius 1.32A, grid spacing 0.4
# The framework is charged, counterions have been retained in the structure
#
###############################################################################

data_AWEDOW
_chemical_formula_moiety         '(C230 H176 N64 O40 Zn6 4+)n'
_symmetry_cell_setting           triclinic
_symmetry_space_group_name_H-M   'P 1'
_symmetry_Int_Tables_number      1
_space_group_name_Hall           'P 1'
loop_
_symmetry_equiv_pos_site_id
_symmetry_equiv_pos_as_xyz
1 x,y,z
_cell_length_a                   28.330(3)
_cell_length_b                   27.766(3)
_cell_length_c                   9.9055(11)
_cell_angle_alpha                90
_cell_angle_beta                 90
_cell_angle_gamma                90
_cell_volume                     7791.77
loop_
_atom_site_label
_atom_site_type_symbol
_atom_site_fract_x
_atom_site_fract_y
_atom_site_fract_z
C30 C 0.56646(10) 0.05505(10) 0.0412(3)
H23 H 0.5861 0.0562 0.1163
C31 C 0.52914(10) 0.08070(10) 0.0271(3)
H24 H 0.5168 0.1024 0.0895
O5 O 0.67469(8) 0.00334(7) 0.05069(19)
C1 C 0.43354(10) 0.55505(10) 0.5412(3)
H1 H 0.4139 0.5562 0.6163
C2 C 0.47086(10) 0.58070(10) 0.5271(3)
H2 H 0.4832 0.6024 0.5895
C3 C 0.46028(9) 0.53744(10) 0.3493(3)
H3 H 0.4636 0.5243 0.2635
H9 H 0.8361 0.5440 0.0907
C10 C 0.52884(5) 0.59142(5) 0.33492(16)
C11 C 0.53483(5) 0.64106(5) 0.34086(15)
H10 H 0.5145 0.6597 0.3928
C12 C 0.57121(6) 0.66283(4) 0.26915(16)
H11 H 0.5752 0.6960 0.2731
C13 C 0.60160(5) 0.63495(5) 0.19148(16)
C14 C 0.59561(5) 0.58531(5) 0.18554(16)
H12 H 0.6159 0.5667 0.1336
C15 C 0.55923(6) 0.56354(4) 0.25726(17)
H13 H 0.5552 0.5303 0.2533
C18 C 0.58453(9) 0.71685(9) 0.0009(2)
H15 H 0.5594 0.6954 0.0064
C19 C 0.62796(9) 0.70400(10) 0.0528(2)
C20 C 0.66535(9) 0.73659(9) 0.0435(2)
H16 H 0.6952 0.7276 0.0730
C25 C 0.67622(9) 0.63165(9) 0.0623(2)
C26 C 0.70681(10) 0.61218(10) 0.1444(3)
H20 H 0.7004 0.6136 0.2364
C27 C 0.74693(10) 0.59017(10) 0.1058(3)
H21 H 0.7699 0.5816 0.1684
C28 C 0.29047(11) 0.48706(11) 0.5294(3)
C29 C 0.2500 0.5000 0.6217(4)
H22 H 0.2583 0.5271 0.6787
N1 N 0.42626(8) 0.52565(8) 0.4311(2)
N2 N 0.48962(8) 0.56980(8) 0.3992(2)
N3 N 0.63695(8) 0.65863(8) 0.11201(19)
O1 O 0.28591(7) 0.45497(7) 0.44265(18)
O2 O 0.32531(8) 0.50334(7) 0.55069(19)
Zn1 Zn 0.368504(11) 0.487442(11) 0.38402(3)
C32 C 0.53972(9) 0.03744(10) 0.8493(3)
H25 H 0.5364 0.0243 0.7635
C33 C 0.42359(9) 0.40249(9) 0.2749(2)
H26 H 0.4419 0.4215 0.2181
C34 C 0.42859(9) 0.35471(10) 0.2902(2)
H27 H 0.4507 0.3350 0.2481
C35 C 0.37053(9) 0.38248(9) 0.4198(3)
H28 H 0.3461 0.3843 0.4823
C36 C 0.19929(9) 0.03952(9) 0.2939(3)
H29 H 0.2195 0.0456 0.2218
C37 C 0.14011(9) 0.01499(10) 0.4105(2)
H30 H 0.1116 0.0007 0.4344
C38 C 0.16876(9) 0.03892(10) 0.4989(3)
H31 H 0.1639 0.0440 0.5907
C39 C 0.47116(5) 0.09142(5) 0.83492(16)
C40 C 0.46517(5) 0.14106(5) 0.84086(15)
H32 H 0.4855 0.1597 0.8928
C41 C 0.42879(6) 0.16283(4) 0.76915(16)
H33 H 0.4248 0.1960 0.7731
C42 C 0.39840(5) 0.13495(5) 0.69148(16)
C43 C 0.40439(5) 0.08531(5) 0.68554(16)
H34 H 0.3841 0.0667 0.6336
C44 C 0.44077(6) 0.06354(4) 0.75726(17)
H35 H 0.4448 0.0303 0.7533
C45 C 0.38630(9) 0.29315(9) 0.4352(2)
C46 C 0.42205(9) 0.26203(10) 0.4397(2)
H36 H 0.4512 0.2701 0.4027
C47 C 0.41547(9) 0.21685(9) 0.5009(2)
H37 H 0.4406 0.1954 0.5064
C48 C 0.37204(9) 0.20400(10) 0.5528(2)
C49 C 0.33465(9) 0.23659(9) 0.5435(2)
H38 H 0.3048 0.2276 0.5730
C50 C 0.34182(9) 0.28227(9) 0.4908(2)
H39 H 0.3178 0.3051 0.4921
C51 C 0.24714(9) 0.08057(10) 0.4671(3)
C52 C 0.27805(9) 0.09918(10) 0.3786(3)
H40 H 0.2740 0.0957 0.2859
C53 C 0.31651(9) 0.12401(10) 0.4326(2)
H41 H 0.3387 0.1361 0.3724
C54 C 0.32378(9) 0.13165(9) 0.5623(2)
C55 C 0.29319(10) 0.11218(10) 0.6444(3)
H42 H 0.2996 0.1136 0.7364
C56 C 0.25307(10) 0.09017(10) 0.6058(3)
H43 H 0.2301 0.0816 0.6684
C57 C 0.20953(11) 0.51294(11) 0.5294(3)
H44 H 0.2417 0.4729 0.6787
N8 N 0.57374(8) 0.02565(8) 0.9311(2)
N9 N 0.51038(8) 0.06980(8) 0.8992(2)
N10 N 0.36305(8) 0.15863(8) 0.61201(19)
N11 N 0.38791(7) 0.41927(8) 0.3544(2)
N13 N 0.39344(7) 0.34053(8) 0.38336(19)
N14 N 0.15775(8) 0.01463(8) 0.2864(2)
N15 N 0.34225(8) 0.51463(8) 0.2136(2)
N16 N 0.65775(8) 0.01463(8) 0.7136(2)
N17 N 0.20634(8) 0.05381(8) 0.4216(2)
O3 O 0.21409(7) 0.54503(7) 0.44265(18)
O4 O 0.17469(8) 0.49666(7) 0.55069(19)
Zn5 Zn 0.131496(11) 0.512558(11) 0.38402(3)
C4 C 0.57641(9) 0.90249(9) 0.7749(2)
H4 H 0.5581 0.9215 0.7181
C5 C 0.57141(9) 0.85471(10) 0.7902(2)
H5 H 0.5493 0.8350 0.7481
C6 C 0.62947(9) 0.88248(9) 0.9198(3)
H6 H 0.6539 0.8843 0.9823
C7 C 0.80071(9) 0.53952(9) 0.7939(3)
H7 H 0.7805 0.5456 0.7218
C8 C 0.85989(9) 0.51499(10) 0.9105(2)
H8 H 0.8884 0.5007 0.9344
C9 C 0.83124(9) 0.53892(10) 0.9989(3)
C16 C 0.61370(9) 0.79315(9) 0.9352(2)
C17 C 0.57795(9) 0.76203(10) 0.9397(2)
H14 H 0.5488 0.7701 0.9027
C21 C 0.65818(9) 0.78227(9) 0.9908(2)
H17 H 0.6822 0.8051 0.9921
C22 C 0.75286(9) 0.58057(10) 0.9671(3)
C23 C 0.72195(9) 0.59918(10) 0.8786(3)
H18 H 0.7260 0.5957 0.7859
C24 C 0.68349(9) 0.62401(10) 0.9326(2)
H19 H 0.6613 0.6361 0.8724
N4 N 0.61209(7) 0.91927(8) 0.8544(2)
N5 N 0.60656(7) 0.84053(8) 0.88336(19)
N6 N 0.84225(8) 0.51463(8) 0.7864(2)
N7 N 0.79366(8) 0.55381(8) 0.9216(2)
Zn3 Zn 0.631496(11) 0.987442(11) 0.88402(3)
Zn4 Zn 0.868504(11) 0.487442(11) 0.61598(3)
Zn6 Zn 0.131496(11) 0.987442(11) 0.11598(3)
Zn6_2 Zn 0.368504(11) 0.012558(11) 0.11598(3)
C1_2 C 0.06646(10) 0.44495(10) 0.5412(3)
H1_2 H 0.0861 0.4438 0.6163
C2_2 C 0.02914(10) 0.41930(10) 0.5271(3)
H2_2 H 0.0168 0.3976 0.5895
C3_2 C 0.03972(9) 0.46256(10) 0.3493(3)
H3_2 H 0.0364 0.4757 0.2635
N1_2 N 0.07374(8) 0.47435(8) 0.4311(2)
N2_2 N 0.01038(8) 0.43020(8) 0.3992(2)
C33_2 C 0.07641(9) 0.59751(9) 0.2749(2)
H26_2 H 0.0581 0.5785 0.2181
C34_2 C 0.07141(9) 0.64529(10) 0.2902(2)
H27_2 H 0.0493 0.6650 0.2481
C35_2 C 0.12947(9) 0.61752(9) 0.4198(3)
H28_2 H 0.1539 0.6157 0.4823
C36_2 C 0.30071(9) 0.96048(9) 0.2939(3)
H29_2 H 0.2805 0.9544 0.2218
C37_2 C 0.35989(9) 0.98501(10) 0.4105(2)
H30_2 H 0.3884 0.9993 0.4344
C38_2 C 0.33124(9) 0.96108(10) 0.4989(3)
H31_2 H 0.3361 0.9560 0.5907
C39_2 C 0.02884(5) 0.90858(5) 0.83492(16)
C40_2 C 0.03483(5) 0.85894(5) 0.84086(15)
H32_2 H 0.0145 0.8403 0.8928
C41_2 C 0.07121(6) 0.83717(4) 0.76915(16)
H33_2 H 0.0752 0.8040 0.7731
C42_2 C 0.10160(5) 0.86505(5) 0.69148(16)
C43_2 C 0.09561(5) 0.91469(5) 0.68554(16)
H34_2 H 0.1159 0.9333 0.6336
C44_2 C 0.05923(6) 0.93646(4) 0.75726(17)
H35_2 H 0.0552 0.9697 0.7533
C45_2 C 0.11370(9) 0.70685(9) 0.4352(2)
C46_2 C 0.07795(9) 0.73797(10) 0.4397(2)
H36_2 H 0.0488 0.7299 0.4027
C47_2 C 0.08453(9) 0.78315(9) 0.5009(2)
H37_2 H 0.0594 0.8046 0.5064
C48_2 C 0.12796(9) 0.79600(10) 0.5528(2)
C49_2 C 0.16535(9) 0.76341(9) 0.5435(2)
H38_2 H 0.1952 0.7724 0.5730
C50_2 C 0.15818(9) 0.71773(9) 0.4908(2)
H39_2 H 0.1822 0.6949 0.4921
C51_2 C 0.25286(9) 0.91943(10) 0.4671(3)
C52_2 C 0.22195(9) 0.90082(10) 0.3786(3)
H40_2 H 0.2260 0.9043 0.2859
C53_2 C 0.18349(9) 0.87599(10) 0.4326(2)
H41_2 H 0.1613 0.8639 0.3724
C54_2 C 0.17622(9) 0.86835(9) 0.5623(2)
C55_2 C 0.20681(10) 0.88782(10) 0.6444(3)
H42_2 H 0.2004 0.8864 0.7364
C56_2 C 0.24693(10) 0.90983(10) 0.6058(3)
H43_2 H 0.2699 0.9184 0.6684
N10_2 N 0.13695(8) 0.84137(8) 0.61201(19)
N11_2 N 0.11209(7) 0.58073(8) 0.3544(2)
N13_2 N 0.10656(7) 0.65947(8) 0.38336(19)
N14_2 N 0.34225(8) 0.98537(8) 0.2864(2)
N15_2 N 0.15775(8) 0.48537(8) 0.2136(2)
N17_2 N 0.29366(8) 0.94619(8) 0.4216(2)
N12 N 0.88791(7) 0.08073(8) 0.8544(2)
Zn2 Zn 0.868504(11) 0.012558(11) 0.88402(3)
C30_2 C 0.93354(10) 0.94495(10) 0.0412(3)
H23_2 H 0.9139 0.9438 0.1163
C31_2 C 0.97086(10) 0.91930(10) 0.0271(3)
H24_2 H 0.9832 0.8976 0.0895
O5_2 O 0.82531(8) 0.99666(7) 0.05069(19)
H9_2 H 0.6639 0.4560 0.0907
C10_2 C 0.97116(5) 0.40858(5) 0.33492(16)
C11_2 C 0.96517(5) 0.35894(5) 0.34086(15)
H10_2 H 0.9855 0.3403 0.3928
C12_2 C 0.92879(6) 0.33717(4) 0.26915(16)
H11_2 H 0.9248 0.3040 0.2731
C13_2 C 0.89840(5) 0.36505(5) 0.19148(16)
C14_2 C 0.90439(5) 0.41469(5) 0.18554(16)
H12_2 H 0.8841 0.4333 0.1336
C15_2 C 0.94077(6) 0.43646(4) 0.25726(17)
H13_2 H 0.9448 0.4697 0.2533
C18_2 C 0.91547(9) 0.28315(9) 0.0009(2)
H15_2 H 0.9406 0.3046 0.0064
C19_2 C 0.87204(9) 0.29600(10) 0.0528(2)
C20_2 C 0.83465(9) 0.26341(9) 0.0435(2)
H16_2 H 0.8048 0.2724 0.0730
C25_2 C 0.82378(9) 0.36835(9) 0.0623(2)
C26_2 C 0.79319(10) 0.38782(10) 0.1444(3)
H20_2 H 0.7996 0.3864 0.2364
C27_2 C 0.75307(10) 0.40983(10) 0.1058(3)
H21_2 H 0.7301 0.4184 0.1684
N3_2 N 0.86305(8) 0.34137(8) 0.11201(19)
C32_2 C 0.96028(9) 0.96256(10) 0.8493(3)
H25_2 H 0.9636 0.9757 0.7635
N8_2 N 0.92626(8) 0.97435(8) 0.9311(2)
N9_2 N 0.98962(8) 0.93020(8) 0.8992(2)
N16_2 N 0.84225(8) 0.98537(8) 0.7136(2)
C4_2 C 0.92359(9) 0.09751(9) 0.7749(2)
H4_2 H 0.9419 0.0785 0.7181
C5_2 C 0.92859(9) 0.14529(10) 0.7902(2)
H5_2 H 0.9507 0.1650 0.7481
C6_2 C 0.87053(9) 0.11752(9) 0.9198(3)
H6_2 H 0.8461 0.1157 0.9823
C7_2 C 0.69929(9) 0.46048(9) 0.7939(3)
H7_2 H 0.7195 0.4544 0.7218
C8_2 C 0.64011(9) 0.48501(10) 0.9105(2)
H8_2 H 0.6116 0.4993 0.9344
C9_2 C 0.66876(9) 0.46108(10) 0.9989(3)
C16_2 C 0.88630(9) 0.20685(9) 0.9352(2)
C17_2 C 0.92205(9) 0.23797(10) 0.9397(2)
H14_2 H 0.9512 0.2299 0.9027
C21_2 C 0.84182(9) 0.21773(9) 0.9908(2)
H17_2 H 0.8178 0.1949 0.9921
C22_2 C 0.74714(9) 0.41943(10) 0.9671(3)
C23_2 C 0.77805(9) 0.40082(10) 0.8786(3)
H18_2 H 0.7740 0.4043 0.7859
C24_2 C 0.81651(9) 0.37599(10) 0.9326(2)
H19_2 H 0.8387 0.3639 0.8724
N5_2 N 0.89344(7) 0.15947(8) 0.88336(19)
N6_2 N 0.65775(8) 0.48537(8) 0.7864(2)
N7_2 N 0.70634(8) 0.44619(8) 0.9216(2)
Zn4_2 Zn 0.631496(11) 0.512558(11) 0.61598(3)
O1_2 O 0.28591(7) 0.04503(7) 0.05735(18)
C33_3 C 0.42359(9) 0.09751(9) 0.2251(2)
H26_3 H 0.4419 0.0785 0.2819
C34_3 C 0.42859(9) 0.14529(10) 0.2098(2)
H27_3 H 0.4507 0.1650 0.2519
C35_3 C 0.37053(9) 0.11752(9) 0.0802(3)
H28_3 H 0.3461 0.1157 0.0177
C36_3 C 0.19929(9) 0.46048(9) 0.2061(3)
H29_3 H 0.2195 0.4544 0.2782
C37_3 C 0.14011(9) 0.48501(10) 0.0895(2)
H30_3 H 0.1116 0.4993 0.0656
C38_3 C 0.16876(9) 0.46108(10) 0.0011(3)
C45_3 C 0.38630(9) 0.20685(9) 0.0648(2)
C46_3 C 0.42205(9) 0.23797(10) 0.0603(2)
H36_3 H 0.4512 0.2299 0.0973
C50_3 C 0.34182(9) 0.21773(9) 0.0092(2)
H39_3 H 0.3178 0.1949 0.0079
C51_3 C 0.24714(9) 0.41943(10) 0.0329(3)
C52_3 C 0.27805(9) 0.40082(10) 0.1214(3)
H40_3 H 0.2740 0.4043 0.2141
C53_3 C 0.31651(9) 0.37599(10) 0.0674(2)
H41_3 H 0.3387 0.3639 0.1276
N11_3 N 0.38791(7) 0.08073(8) 0.1456(2)
N13_3 N 0.39344(7) 0.15947(8) 0.11664(19)
N17_3 N 0.20634(8) 0.44619(8) 0.0784(2)
C28_2 C 0.29047(11) 0.01294(11) 0.9706(3)
C29_2 C 0.2500 -0.0000 0.8783(4)
C30_3 C 0.56646(10) 0.44495(10) 0.4588(3)
H23_3 H 0.5861 0.4438 0.3837
C31_3 C 0.52914(10) 0.41930(10) 0.4729(3)
H24_3 H 0.5168 0.3976 0.4105
C32_3 C 0.53972(9) 0.46256(10) 0.6507(3)
H25_3 H 0.5364 0.4757 0.7365
H31_3 H 0.1639 0.4560 0.9093
C39_3 C 0.47116(5) 0.40858(5) 0.66508(16)
C40_3 C 0.46517(5) 0.35894(5) 0.65914(15)
H32_3 H 0.4855 0.3403 0.6072
C41_3 C 0.42879(6) 0.33717(4) 0.73085(16)
H33_3 H 0.4248 0.3040 0.7269
C42_3 C 0.39840(5) 0.36505(5) 0.80852(16)
C43_3 C 0.40439(5) 0.41469(5) 0.81446(16)
H34_3 H 0.3841 0.4333 0.8664
C44_3 C 0.44077(6) 0.43646(4) 0.74274(17)
H35_3 H 0.4448 0.4697 0.7467
C47_3 C 0.41547(9) 0.28315(9) 0.9991(2)
H37_3 H 0.4406 0.3046 0.9936
C48_3 C 0.37204(9) 0.29600(10) 0.9472(2)
C49_3 C 0.33465(9) 0.26341(9) 0.9565(2)
H38_3 H 0.3048 0.2724 0.9270
C54_3 C 0.32378(9) 0.36835(9) 0.9377(2)
C55_3 C 0.29319(10) 0.38782(10) 0.8556(3)
H42_3 H 0.2996 0.3864 0.7636
C56_3 C 0.25307(10) 0.40983(10) 0.8942(3)
H43_3 H 0.2301 0.4184 0.8316
H44_2 H 0.2417 0.0271 0.8213
N8_3 N 0.57374(8) 0.47435(8) 0.5689(2)
N9_3 N 0.51038(8) 0.43020(8) 0.6008(2)
N10_3 N 0.36305(8) 0.34137(8) 0.88799(19)
N12_2 N 0.61209(7) 0.58073(8) 0.6456(2)
O4_2 O 0.17469(8) 0.00334(7) 0.94931(19)
O5_3 O 0.67469(8) 0.49666(7) 0.44931(19)
C3_3 C 0.46028(9) 0.96256(10) 0.1507(3)
H3_3 H 0.4636 0.9757 0.2365
C4_3 C 0.57641(9) 0.59751(9) 0.7251(2)
H4_3 H 0.5581 0.5785 0.7819
C5_3 C 0.57141(9) 0.64529(10) 0.7098(2)
H5_3 H 0.5493 0.6650 0.7519
C6_3 C 0.62947(9) 0.61752(9) 0.5802(3)
H6_3 H 0.6539 0.6157 0.5177
C7_3 C 0.80071(9) 0.96048(9) 0.7061(3)
H7_3 H 0.7805 0.9544 0.7782
C8_3 C 0.85989(9) 0.98501(10) 0.5895(2)
H8_3 H 0.8884 0.9993 0.5656
C9_3 C 0.83124(9) 0.96108(10) 0.5011(3)
H9_3 H 0.8361 0.9560 0.4093
C10_3 C 0.52884(5) 0.90858(5) 0.16508(16)
C11_3 C 0.53483(5) 0.85894(5) 0.15914(15)
H10_3 H 0.5145 0.8403 0.1072
C12_3 C 0.57121(6) 0.83717(4) 0.23085(16)
H11_3 H 0.5752 0.8040 0.2269
C13_3 C 0.60160(5) 0.86505(5) 0.30852(16)
C14_3 C 0.59561(5) 0.91469(5) 0.31446(16)
H12_3 H 0.6159 0.9333 0.3664
C15_3 C 0.55923(6) 0.93646(4) 0.24274(17)
H13_3 H 0.5552 0.9697 0.2467
C16_3 C 0.61370(9) 0.70685(9) 0.5648(2)
C17_3 C 0.57795(9) 0.73797(10) 0.5603(2)
H14_3 H 0.5488 0.7299 0.5973
C18_3 C 0.58453(9) 0.78315(9) 0.4991(2)
H15_3 H 0.5594 0.8046 0.4936
C19_3 C 0.62796(9) 0.79600(10) 0.4472(2)
C20_3 C 0.66535(9) 0.76341(9) 0.4565(2)
H16_3 H 0.6952 0.7724 0.4270
C21_3 C 0.65818(9) 0.71773(9) 0.5092(2)
H17_3 H 0.6822 0.6949 0.5079
C22_3 C 0.75286(9) 0.91943(10) 0.5329(3)
C23_3 C 0.72195(9) 0.90082(10) 0.6214(3)
H18_3 H 0.7260 0.9043 0.7141
C24_3 C 0.68349(9) 0.87599(10) 0.5674(2)
H19_3 H 0.6613 0.8639 0.6276
C25_3 C 0.67622(9) 0.86835(9) 0.4377(2)
C26_3 C 0.70681(10) 0.88782(10) 0.3556(3)
H20_3 H 0.7004 0.8864 0.2636
C27_3 C 0.74693(10) 0.90983(10) 0.3942(3)
H21_3 H 0.7699 0.9184 0.3316
N1_3 N 0.42626(8) 0.97435(8) 0.0689(2)
N2_3 N 0.48962(8) 0.93020(8) 0.1008(2)
N3_3 N 0.63695(8) 0.84137(8) 0.38799(19)
N5_3 N 0.60656(7) 0.65947(8) 0.61664(19)
N7_3 N 0.79366(8) 0.94619(8) 0.5784(2)
O3_2 O 0.21409(7) 0.95497(7) 0.05735(18)
C1_3 C 0.43354(10) 0.94495(10) 0.9588(3)
H1_3 H 0.4139 0.9438 0.8837
C2_3 C 0.47086(10) 0.91930(10) 0.9729(3)
H2_3 H 0.4832 0.8976 0.9105
C29_3 C 0.2500 1.0000 0.8783(4)
H22_2 H 0.2583 0.9729 0.8213
O2_2 O 0.32531(8) 0.99666(7) 0.94931(19)
C57_2 C 0.20953(11) 0.98706(11) 0.9706(3)
C3_4 C 0.03972(9) 0.03744(10) 0.1507(3)
H3_4 H 0.0364 0.0243 0.2365
N1_4 N 0.07374(8) 0.02565(8) 0.0689(2)
N2_4 N 0.01038(8) 0.06980(8) 0.1008(2)
C1_4 C 0.06646(10) 0.05505(10) 0.9588(3)
H1_4 H 0.0861 0.0562 0.8837
C2_4 C 0.02914(10) 0.08070(10) 0.9729(3)
H2_4 H 0.0168 0.1024 0.9105
C33_4 C 0.07641(9) 0.90249(9) 0.2251(2)
H26_4 H 0.0581 0.9215 0.2819
C34_4 C 0.07141(9) 0.85471(10) 0.2098(2)
H27_4 H 0.0493 0.8350 0.2519
C35_4 C 0.12947(9) 0.88248(9) 0.0802(3)
H28_4 H 0.1539 0.8843 0.0177
C36_4 C 0.30071(9) 0.53952(9) 0.2061(3)
H29_4 H 0.2805 0.5456 0.2782
C37_4 C 0.35989(9) 0.51499(10) 0.0895(2)
H30_4 H 0.3884 0.5007 0.0656
C38_4 C 0.33124(9) 0.53892(10) 0.0011(3)
C45_4 C 0.11370(9) 0.79315(9) 0.0648(2)
C46_4 C 0.07795(9) 0.76203(10) 0.0603(2)
H36_4 H 0.0488 0.7701 0.0973
C50_4 C 0.15818(9) 0.78227(9) 0.0092(2)
H39_4 H 0.1822 0.8051 0.0079
C51_4 C 0.25286(9) 0.58057(10) 0.0329(3)
C52_4 C 0.22195(9) 0.59918(10) 0.1214(3)
H40_4 H 0.2260 0.5957 0.2141
C53_4 C 0.18349(9) 0.62401(10) 0.0674(2)
H41_4 H 0.1613 0.6361 0.1276
N11_4 N 0.11209(7) 0.91927(8) 0.1456(2)
N13_4 N 0.10656(7) 0.84053(8) 0.11664(19)
N17_4 N 0.29366(8) 0.55381(8) 0.0784(2)
H31_4 H 0.3361 0.5440 0.9093
C39_4 C 0.02884(5) 0.59142(5) 0.66508(16)
C40_4 C 0.03483(5) 0.64106(5) 0.65914(15)
H32_4 H 0.0145 0.6597 0.6072
C41_4 C 0.07121(6) 0.66283(4) 0.73085(16)
H33_4 H 0.0752 0.6960 0.7269
C42_4 C 0.10160(5) 0.63495(5) 0.80852(16)
C43_4 C 0.09561(5) 0.58531(5) 0.81446(16)
H34_4 H 0.1159 0.5667 0.8664
C44_4 C 0.05923(6) 0.56354(4) 0.74274(17)
H35_4 H 0.0552 0.5303 0.7467
C47_4 C 0.08453(9) 0.71685(9) 0.9991(2)
H37_4 H 0.0594 0.6954 0.9936
C48_4 C 0.12796(9) 0.70400(10) 0.9472(2)
C49_4 C 0.16535(9) 0.73659(9) 0.9565(2)
H38_4 H 0.1952 0.7276 0.9270
C54_4 C 0.17622(9) 0.63165(9) 0.9377(2)
C55_4 C 0.20681(10) 0.61218(10) 0.8556(3)
H42_4 H 0.2004 0.6136 0.7636
C56_4 C 0.24693(10) 0.59017(10) 0.8942(3)
H43_4 H 0.2699 0.5816 0.8316
N10_4 N 0.13695(8) 0.65863(8) 0.88799(19)
C4_4 C 0.92359(9) 0.40249(9) 0.7251(2)
H4_4 H 0.9419 0.4215 0.7819
C5_4 C 0.92859(9) 0.35471(10) 0.7098(2)
H5_4 H 0.9507 0.3350 0.7519
C6_4 C 0.87053(9) 0.38248(9) 0.5802(3)
H6_4 H 0.8461 0.3843 0.5177
C7_4 C 0.69929(9) 0.03952(9) 0.7061(3)
H7_4 H 0.7195 0.0456 0.7782
C8_4 C 0.64011(9) 0.01499(10) 0.5895(2)
H8_4 H 0.6116 0.0007 0.5656
C9_4 C 0.66876(9) 0.03892(10) 0.5011(3)
H9_4 H 0.6639 0.0440 0.4093
C10_4 C 0.97116(5) 0.09142(5) 0.16508(16)
C11_4 C 0.96517(5) 0.14106(5) 0.15914(15)
H10_4 H 0.9855 0.1597 0.1072
C12_4 C 0.92879(6) 0.16283(4) 0.23085(16)
H11_4 H 0.9248 0.1960 0.2269
C13_4 C 0.89840(5) 0.13495(5) 0.30852(16)
C14_4 C 0.90439(5) 0.08531(5) 0.31446(16)
H12_4 H 0.8841 0.0667 0.3664
C15_4 C 0.94077(6) 0.06354(4) 0.24274(17)
H13_4 H 0.9448 0.0303 0.2467
C16_4 C 0.88630(9) 0.29315(9) 0.5648(2)
C17_4 C 0.92205(9) 0.26203(10) 0.5603(2)
H14_4 H 0.9512 0.2701 0.5973
C18_4 C 0.91547(9) 0.21685(9) 0.4991(2)
H15_4 H 0.9406 0.1954 0.4936
C19_4 C 0.87204(9) 0.20400(10) 0.4472(2)
C20_4 C 0.83465(9) 0.23659(9) 0.4565(2)
H16_4 H 0.8048 0.2276 0.4270
C21_4 C 0.84182(9) 0.28227(9) 0.5092(2)
H17_4 H 0.8178 0.3051 0.5079
C22_4 C 0.74714(9) 0.08057(10) 0.5329(3)
C23_4 C 0.77805(9) 0.09918(10) 0.6214(3)
H18_4 H 0.7740 0.0957 0.7141
C24_4 C 0.81651(9) 0.12401(10) 0.5674(2)
H19_4 H 0.8387 0.1361 0.6276
C25_4 C 0.82378(9) 0.13165(9) 0.4377(2)
C26_4 C 0.79319(10) 0.11218(10) 0.3556(3)
H20_4 H 0.7996 0.1136 0.2636
C27_4 C 0.75307(10) 0.09017(10) 0.3942(3)
H21_4 H 0.7301 0.0816 0.3316
N3_4 N 0.86305(8) 0.15863(8) 0.38799(19)
N4_2 N 0.88791(7) 0.41927(8) 0.6456(2)
N5_4 N 0.89344(7) 0.34053(8) 0.61664(19)
N7_4 N 0.70634(8) 0.05381(8) 0.5784(2)
C30_4 C 0.93354(10) 0.55505(10) 0.4588(3)
H23_4 H 0.9139 0.5562 0.3837
C31_4 C 0.97086(10) 0.58070(10) 0.4729(3)
H24_4 H 0.9832 0.6024 0.4105
C32_4 C 0.96028(9) 0.53744(10) 0.6507(3)
H25_4 H 0.9636 0.5243 0.7365
N8_4 N 0.92626(8) 0.52565(8) 0.5689(2)
N9_4 N 0.98962(8) 0.56980(8) 0.6008(2)
O5_4 O 0.82531(8) 0.50334(7) 0.44931(19)
C28_3 C 0.70953(11) 0.51294(11) 0.4706(3)
C29_4 C 0.7500 0.5000 0.3783(4)
H22_3 H 0.7417 0.4729 0.3213
O1_3 O 0.71409(7) 0.54503(7) 0.55735(18)
C57_3 C 0.79047(11) 0.48706(11) 0.4706(3)
H44_3 H 0.7583 0.5271 0.3213
O3_3 O 0.78591(7) 0.45497(7) 0.55735(18)
C29_5 C 0.7500 -0.0000 0.1217(4)
H22_4 H 0.7417 0.0271 0.1787
C57_4 C 0.79047(11) 0.01294(11) 0.0294(3)
O3_4 O 0.78591(7) 0.04503(7) 0.94265(18)
C28_4 C 0.70953(11) 0.98706(11) 0.0294(3)
C29_6 C 0.7500 1.0000 0.1217(4)
H44_4 H 0.7583 0.9729 0.1787
O1_4 O 0.71409(7) 0.95497(7) 0.94265(18)
N18 N 0.55520(9) 0.33105(10) 0.1540(2)
O6 O 0.53632(8) 0.36502(8) 0.0936(2)
O7 O 0.59777(7) 0.32533(7) 0.14403(18)
O8 O 0.53118(7) 0.30125(7) 0.21143(19)
N18_2 N 0.94480(9) 0.66895(10) 0.1540(2)
O6_2 O 0.96368(8) 0.63498(8) 0.0936(2)
O7_2 O 0.90223(7) 0.67467(7) 0.14403(18)
O8_2 O 0.96882(7) 0.69875(7) 0.21143(19)
N18_3 N 0.55520(9) 0.16895(10) 0.3460(2)
O6_3 O 0.53632(8) 0.13498(8) 0.4064(2)
O7_3 O 0.59777(7) 0.17467(7) 0.35597(18)
O8_3 O 0.53118(7) 0.19875(7) 0.28857(19)
N18_4 N 0.94480(9) 0.83105(10) 0.3460(2)
O6_4 O 0.96368(8) 0.86502(8) 0.4064(2)
O7_4 O 0.90223(7) 0.82533(7) 0.35597(18)
O8_4 O 0.96882(7) 0.80125(7) 0.28857(19)
N18_5 N 0.44480(9) 0.66895(10) 0.8460(2)
O6_5 O 0.46368(8) 0.63498(8) 0.9064(2)
O7_5 O 0.40223(7) 0.67467(7) 0.85597(18)
O8_5 O 0.46882(7) 0.69875(7) 0.78857(19)
N18_6 N 0.05520(9) 0.33105(10) 0.8460(2)
O6_6 O 0.03632(8) 0.36502(8) 0.9064(2)
O7_6 O 0.09777(7) 0.32533(7) 0.85597(18)
O8_6 O 0.03118(7) 0.30125(7) 0.78857(19)
N18_7 N 0.44480(9) 0.83105(10) 0.6540(2)
O6_7 O 0.46368(8) 0.86502(8) 0.5936(2)
O7_7 O 0.40223(7) 0.82533(7) 0.64403(18)
O8_7 O 0.46882(7) 0.80125(7) 0.71143(19)
N18_8 N 0.05520(9) 0.16895(10) 0.6540(2)
O6_8 O 0.03632(8) 0.13498(8) 0.5936(2)
O7_8 O 0.09777(7) 0.17467(7) 0.64403(18)
O8_8 O 0.03118(7) 0.19875(7) 0.71143(19)
loop_
_geom_bond_atom_site_label_1
_geom_bond_atom_site_label_2
_geom_bond_site_symmetry_1
_geom_bond_site_symmetry_2
C30 H23 1_555 1_555
C31 C30 1_555 1_555
H24 C31 1_555 1_555
C1 H1 1_555 1_555
C2 C1 1_555 1_555
H2 C2 1_555 1_555
C3 H3 1_555 1_555
C10 C11 1_555 1_555
C11 H10 1_555 1_555
C12 C11 1_555 1_555
H11 C12 1_555 1_555
C13 C12 1_555 1_555
C14 C13 1_555 1_555
H12 C14 1_555 1_555
C15 C10 1_555 1_555
H13 C15 1_555 1_555
H15 C18 1_555 1_555
C19 C18 1_555 1_555
C20 C19 1_555 1_555
H16 C20 1_555 1_555
C26 C25 1_555 1_555
H20 C26 1_555 1_555
H21 C27 1_555 1_555
C28 C29 1_555 1_555
C29 H22 1_555 1_555
N1 C1 1_555 1_555
N2 C2 1_555 1_555
N3 C13 1_555 1_555
O1 C28 1_555 1_555
O2 C28 1_555 1_555
Zn1 N1 1_555 1_555
C32 H25 1_555 1_555
C33 H26 1_555 1_555
C34 C33 1_555 1_555
H27 C34 1_555 1_555
C35 H28 1_555 1_555
C36 H29 1_555 1_555
C37 H30 1_555 1_555
C38 C37 1_555 1_555
H31 C38 1_555 1_555
C39 C40 1_555 1_555
C40 H32 1_555 1_555
C41 C40 1_555 1_555
H33 C41 1_555 1_555
C42 C41 1_555 1_555
C43 C42 1_555 1_555
H34 C43 1_555 1_555
C44 C39 1_555 1_555
H35 C44 1_555 1_555
C45 C46 1_555 1_555
C46 H36 1_555 1_555
C47 C46 1_555 1_555
H37 C47 1_555 1_555
C48 C47 1_555 1_555
C49 C48 1_555 1_555
H38 C49 1_555 1_555
C50 C45 1_555 1_555
H39 C50 1_555 1_555
C51 C52 1_555 1_555
C52 H40 1_555 1_555
C53 C52 1_555 1_555
H41 C53 1_555 1_555
C54 C53 1_555 1_555
C55 C54 1_555 1_555
H42 C55 1_555 1_555
C56 C51 1_555 1_555
H43 C56 1_555 1_555
C57 C29 1_555 1_555
H44 C29 1_555 1_555
N10 C42 1_555 1_555
N11 Zn1 1_555 1_555
N13 C34 1_555 1_555
N14 C36 1_555 1_555
N15 Zn1 1_555 1_555
N17 C36 1_555 1_555
O3 C57 1_555 1_555
O4 C57 1_555 1_555
Zn5 O4 1_555 1_555
C3 N1 1_555 1_555
C3 N2 1_555 1_555
C10 N2 1_555 1_555
C14 C15 1_555 1_555
C19 N3 1_555 1_555
C25 N3 1_555 1_555
C26 C27 1_555 1_555
O2 Zn1 1_555 1_555
C32 N8 1_555 1_555
C32 N9 1_555 1_555
C33 N11 1_555 1_555
C35 N11 1_555 1_555
C35 N13 1_555 1_555
C37 N14 1_555 1_555
C38 N17 1_555 1_555
C39 N9 1_555 1_555
C43 C44 1_555 1_555
C45 N13 1_555 1_555
C48 N10 1_555 1_555
C49 C50 1_555 1_555
C51 N17 1_555 1_555
C54 N10 1_555 1_555
C55 C56 1_555 1_555
C4 H4 1_555 1_555
C5 C4 1_555 1_555
H5 C5 1_555 1_555
C6 H6 1_555 1_555
C7 H7 1_555 1_555
C8 H8 1_555 1_555
C9 C8 1_555 1_555
C16 C17 1_555 1_555
C17 H14 1_555 1_555
C21 C16 1_555 1_555
H17 C21 1_555 1_555
C22 C23 1_555 1_555
C23 H18 1_555 1_555
C24 C23 1_555 1_555
H19 C24 1_555 1_555
N4 C4 1_555 1_555
N5 C5 1_555 1_555
N6 C7 1_555 1_555
N7 C7 1_555 1_555
Zn3 N4 1_555 1_555
Zn4 N6 1_555 1_555
C6 N4 1_555 1_555
C6 N5 1_555 1_555
C8 N6 1_555 1_555
C9 N7 1_555 1_555
C16 N5 1_555 1_555
C22 N7 1_555 1_555
C1_2 H1_2 1_555 1_555
C2_2 C1_2 1_555 1_555
H2_2 C2_2 1_555 1_555
C3_2 H3_2 1_555 1_555
N1_2 C1_2 1_555 1_555
N2_2 C2_2 1_555 1_555
Zn5 N1_2 1_555 1_555
C33_2 H26_2 1_555 1_555
C34_2 C33_2 1_555 1_555
H27_2 C34_2 1_555 1_555
C35_2 H28_2 1_555 1_555
C36_2 H29_2 1_555 1_555
C37_2 H30_2 1_555 1_555
C38_2 C37_2 1_555 1_555
H31_2 C38_2 1_555 1_555
C39_2 C40_2 1_555 1_555
C40_2 H32_2 1_555 1_555
C41_2 C40_2 1_555 1_555
H33_2 C41_2 1_555 1_555
C42_2 C41_2 1_555 1_555
C43_2 C42_2 1_555 1_555
H34_2 C43_2 1_555 1_555
C44_2 C39_2 1_555 1_555
H35_2 C44_2 1_555 1_555
C45_2 C46_2 1_555 1_555
C46_2 H36_2 1_555 1_555
C47_2 C46_2 1_555 1_555
H37_2 C47_2 1_555 1_555
C48_2 C47_2 1_555 1_555
C49_2 C48_2 1_555 1_555
H38_2 C49_2 1_555 1_555
C50_2 C45_2 1_555 1_555
H39_2 C50_2 1_555 1_555
C51_2 C52_2 1_555 1_555
C52_2 H40_2 1_555 1_555
C53_2 C52_2 1_555 1_555
H41_2 C53_2 1_555 1_555
C54_2 C53_2 1_555 1_555
C55_2 C54_2 1_555 1_555
H42_2 C55_2 1_555 1_555
C56_2 C51_2 1_555 1_555
H43_2 C56_2 1_555 1_555
N10_2 C42_2 1_555 1_555
N11_2 Zn5 1_555 1_555
N13_2 C34_2 1_555 1_555
N14_2 C36_2 1_555 1_555
N15_2 Zn5 1_555 1_555
N17_2 C36_2 1_555 1_555
C3_2 N1_2 1_555 1_555
C3_2 N2_2 1_555 1_555
C33_2 N11_2 1_555 1_555
C35_2 N11_2 1_555 1_555
C35_2 N13_2 1_555 1_555
C37_2 N14_2 1_555 1_555
C38_2 N17_2 1_555 1_555
C43_2 C44_2 1_555 1_555
C45_2 N13_2 1_555 1_555
C48_2 N10_2 1_555 1_555
C49_2 C50_2 1_555 1_555
C51_2 N17_2 1_555 1_555
C54_2 N10_2 1_555 1_555
C55_2 C56_2 1_555 1_555
N12 Zn2 1_555 1_555
C30_2 H23_2 1_555 1_555
C31_2 C30_2 1_555 1_555
H24_2 C31_2 1_555 1_555
C10_2 C11_2 1_555 1_555
C11_2 H10_2 1_555 1_555
C12_2 C11_2 1_555 1_555
H11_2 C12_2 1_555 1_555
C13_2 C12_2 1_555 1_555
C14_2 C13_2 1_555 1_555
H12_2 C14_2 1_555 1_555
C15_2 C10_2 1_555 1_555
H13_2 C15_2 1_555 1_555
H15_2 C18_2 1_555 1_555
C19_2 C18_2 1_555 1_555
C20_2 C19_2 1_555 1_555
H16_2 C20_2 1_555 1_555
C26_2 C25_2 1_555 1_555
H20_2 C26_2 1_555 1_555
H21_2 C27_2 1_555 1_555
N3_2 C13_2 1_555 1_555
C32_2 H25_2 1_555 1_555
C14_2 C15_2 1_555 1_555
C19_2 N3_2 1_555 1_555
C25_2 N3_2 1_555 1_555
C26_2 C27_2 1_555 1_555
C32_2 N8_2 1_555 1_555
C32_2 N9_2 1_555 1_555
C4_2 H4_2 1_555 1_555
C5_2 C4_2 1_555 1_555
H5_2 C5_2 1_555 1_555
C6_2 H6_2 1_555 1_555
C7_2 H7_2 1_555 1_555
C8_2 H8_2 1_555 1_555
C9_2 C8_2 1_555 1_555
C16_2 C17_2 1_555 1_555
C17_2 H14_2 1_555 1_555
C21_2 C16_2 1_555 1_555
H17_2 C21_2 1_555 1_555
C22_2 C23_2 1_555 1_555
C23_2 H18_2 1_555 1_555
C24_2 C23_2 1_555 1_555
H19_2 C24_2 1_555 1_555
N12 C4_2 1_555 1_555
N5_2 C5_2 1_555 1_555
N6_2 C7_2 1_555 1_555
N7_2 C7_2 1_555 1_555
Zn4_2 N6_2 1_555 1_555
C6_2 N12 1_555 1_555
C6_2 N5_2 1_555 1_555
C8_2 N6_2 1_555 1_555
C9_2 N7_2 1_555 1_555
C16_2 N5_2 1_555 1_555
C22_2 N7_2 1_555 1_555
C33_3 H26_3 1_555 1_555
C34_3 C33_3 1_555 1_555
H27_3 C34_3 1_555 1_555
C35_3 H28_3 1_555 1_555
C36_3 H29_3 1_555 1_555
C37_3 H30_3 1_555 1_555
C38_3 C37_3 1_555 1_555
C45_3 C46_3 1_555 1_555
C46_3 H36_3 1_555 1_555
C50_3 C45_3 1_555 1_555
H39_3 C50_3 1_555 1_555
C51_3 C52_3 1_555 1_555
C52_3 H40_3 1_555 1_555
C53_3 C52_3 1_555 1_555
H41_3 C53_3 1_555 1_555
N11_3 Zn6_2 1_555 1_555
N13_3 C34_3 1_555 1_555
N15_2 C36_3 1_555 1_555
N17_3 C36_3 1_555 1_555
C33_3 N11_3 1_555 1_555
C35_3 N11_3 1_555 1_555
C35_3 N13_3 1_555 1_555
C37_3 N15_2 1_555 1_555
C38_3 N17_3 1_555 1_555
C45_3 N13_3 1_555 1_555
C51_3 N17_3 1_555 1_555
C28_2 C29_2 1_555 1_555
C30_3 H23_3 1_555 1_555
C31_3 C30_3 1_555 1_555
H24_3 C31_3 1_555 1_555
C32_3 H25_3 1_555 1_555
C39_3 C40_3 1_555 1_555
C40_3 H32_3 1_555 1_555
C41_3 C40_3 1_555 1_555
H33_3 C41_3 1_555 1_555
C42_3 C41_3 1_555 1_555
C43_3 C42_3 1_555 1_555
H34_3 C43_3 1_555 1_555
C44_3 C39_3 1_555 1_555
H35_3 C44_3 1_555 1_555
H37_3 C47_3 1_555 1_555
C48_3 C47_3 1_555 1_555
C49_3 C48_3 1_555 1_555
H38_3 C49_3 1_555 1_555
C55_3 C54_3 1_555 1_555
H42_3 C55_3 1_555 1_555
H43_3 C56_3 1_555 1_555
H44_2 C29_2 1_555 1_555
N8_3 C30_3 1_555 1_555
N9_3 C31_3 1_555 1_555
N10_3 C42_3 1_555 1_555
N12_2 Zn4_2 1_555 1_555
O5_3 Zn4_2 1_555 1_555
Zn4_2 N8_3 1_555 1_555
C32_3 N8_3 1_555 1_555
C32_3 N9_3 1_555 1_555
C39_3 N9_3 1_555 1_555
C43_3 C44_3 1_555 1_555
C48_3 N10_3 1_555 1_555
C54_3 N10_3 1_555 1_555
C55_3 C56_3 1_555 1_555
C3_3 H3_3 1_555 1_555
C4_3 H4_3 1_555 1_555
C5_3 C4_3 1_555 1_555
H5_3 C5_3 1_555 1_555
C6_3 H6_3 1_555 1_555
C7_3 H7_3 1_555 1_555
C8_3 H8_3 1_555 1_555
C9_3 C8_3 1_555 1_555
H9_3 C9_3 1_555 1_555
C10_3 C11_3 1_555 1_555
C11_3 H10_3 1_555 1_555
C12_3 C11_3 1_555 1_555
H11_3 C12_3 1_555 1_555
C13_3 C12_3 1_555 1_555
C14_3 C13_3 1_555 1_555
H12_3 C14_3 1_555 1_555
C15_3 C10_3 1_555 1_555
H13_3 C15_3 1_555 1_555
C16_3 C17_3 1_555 1_555
C17_3 H14_3 1_555 1_555
C18_3 C17_3 1_555 1_555
H15_3 C18_3 1_555 1_555
C19_3 C18_3 1_555 1_555
C20_3 C19_3 1_555 1_555
H16_3 C20_3 1_555 1_555
C21_3 C16_3 1_555 1_555
H17_3 C21_3 1_555 1_555
C22_3 C23_3 1_555 1_555
C23_3 H18_3 1_555 1_555
C24_3 C23_3 1_555 1_555
H19_3 C24_3 1_555 1_555
C25_3 C24_3 1_555 1_555
C26_3 C25_3 1_555 1_555
H20_3 C26_3 1_555 1_555
C27_3 C22_3 1_555 1_555
H21_3 C27_3 1_555 1_555
N3_3 C13_3 1_555 1_555
N12_2 C4_3 1_555 1_555
N5_3 C5_3 1_555 1_555
N16_2 C7_3 1_555 1_555
N7_3 C7_3 1_555 1_555
C3_3 N1_3 1_555 1_555
C3_3 N2_3 1_555 1_555
C6_3 N12_2 1_555 1_555
C6_3 N5_3 1_555 1_555
C8_3 N16_2 1_555 1_555
C9_3 N7_3 1_555 1_555
C10_3 N2_3 1_555 1_555
C14_3 C15_3 1_555 1_555
C16_3 N5_3 1_555 1_555
C19_3 N3_3 1_555 1_555
C20_3 C21_3 1_555 1_555
C22_3 N7_3 1_555 1_555
C25_3 N3_3 1_555 1_555
C26_3 C27_3 1_555 1_555
C1_3 H1_3 1_555 1_555
C2_3 C1_3 1_555 1_555
H2_3 C2_3 1_555 1_555
C29_3 H22_2 1_555 1_555
C57_2 C29_3 1_555 1_555
C3_4 H3_4 1_555 1_555
C3_4 N1_4 1_555 1_555
C3_4 N2_4 1_555 1_555
C1_4 H1_4 1_555 1_555
C2_4 C1_4 1_555 1_555
H2_4 C2_4 1_555 1_555
C33_4 H26_4 1_555 1_555
C34_4 C33_4 1_555 1_555
H27_4 C34_4 1_555 1_555
C35_4 H28_4 1_555 1_555
C36_4 H29_4 1_555 1_555
C37_4 H30_4 1_555 1_555
C38_4 C37_4 1_555 1_555
C45_4 C46_4 1_555 1_555
C46_4 H36_4 1_555 1_555
C50_4 C45_4 1_555 1_555
H39_4 C50_4 1_555 1_555
C51_4 C52_4 1_555 1_555
C52_4 H40_4 1_555 1_555
C53_4 C52_4 1_555 1_555
H41_4 C53_4 1_555 1_555
N11_4 Zn6 1_555 1_555
N13_4 C34_4 1_555 1_555
N15 C36_4 1_555 1_555
N17_4 C36_4 1_555 1_555
C33_4 N11_4 1_555 1_555
C35_4 N11_4 1_555 1_555
C35_4 N13_4 1_555 1_555
C37_4 N15 1_555 1_555
C38_4 N17_4 1_555 1_555
C45_4 N13_4 1_555 1_555
C51_4 N17_4 1_555 1_555
C39_4 C40_4 1_555 1_555
C40_4 H32_4 1_555 1_555
C41_4 C40_4 1_555 1_555
H33_4 C41_4 1_555 1_555
C42_4 C41_4 1_555 1_555
C43_4 C42_4 1_555 1_555
H34_4 C43_4 1_555 1_555
C44_4 C39_4 1_555 1_555
H35_4 C44_4 1_555 1_555
H37_4 C47_4 1_555 1_555
C48_4 C47_4 1_555 1_555
C49_4 C48_4 1_555 1_555
H38_4 C49_4 1_555 1_555
C55_4 C54_4 1_555 1_555
H42_4 C55_4 1_555 1_555
H43_4 C56_4 1_555 1_555
N10_4 C42_4 1_555 1_555
C43_4 C44_4 1_555 1_555
C48_4 N10_4 1_555 1_555
C54_4 N10_4 1_555 1_555
C55_4 C56_4 1_555 1_555
C4_4 H4_4 1_555 1_555
C5_4 C4_4 1_555 1_555
H5_4 C5_4 1_555 1_555
C6_4 H6_4 1_555 1_555
C7_4 H7_4 1_555 1_555
C8_4 H8_4 1_555 1_555
C9_4 C8_4 1_555 1_555
H9_4 C9_4 1_555 1_555
C10_4 C11_4 1_555 1_555
C11_4 H10_4 1_555 1_555
C12_4 C11_4 1_555 1_555
H11_4 C12_4 1_555 1_555
C13_4 C12_4 1_555 1_555
C14_4 C13_4 1_555 1_555
H12_4 C14_4 1_555 1_555
C15_4 C10_4 1_555 1_555
H13_4 C15_4 1_555 1_555
C16_4 C17_4 1_555 1_555
C17_4 H14_4 1_555 1_555
C18_4 C17_4 1_555 1_555
H15_4 C18_4 1_555 1_555
C19_4 C18_4 1_555 1_555
C20_4 C19_4 1_555 1_555
H16_4 C20_4 1_555 1_555
C21_4 C16_4 1_555 1_555
H17_4 C21_4 1_555 1_555
C22_4 C23_4 1_555 1_555
C23_4 H18_4 1_555 1_555
C24_4 C23_4 1_555 1_555
H19_4 C24_4 1_555 1_555
C25_4 C24_4 1_555 1_555
C26_4 C25_4 1_555 1_555
H20_4 C26_4 1_555 1_555
C27_4 C22_4 1_555 1_555
H21_4 C27_4 1_555 1_555
N3_4 C13_4 1_555 1_555
N4_2 C4_4 1_555 1_555
N5_4 C5_4 1_555 1_555
N16 C7_4 1_555 1_555
N7_4 C7_4 1_555 1_555
Zn4 N4_2 1_555 1_555
C6_4 N4_2 1_555 1_555
C6_4 N5_4 1_555 1_555
C8_4 N16 1_555 1_555
C9_4 N7_4 1_555 1_555
C14_4 C15_4 1_555 1_555
C16_4 N5_4 1_555 1_555
C19_4 N3_4 1_555 1_555
C20_4 C21_4 1_555 1_555
C22_4 N7_4 1_555 1_555
C25_4 N3_4 1_555 1_555
C26_4 C27_4 1_555 1_555
C30_4 H23_4 1_555 1_555
C31_4 C30_4 1_555 1_555
H24_4 C31_4 1_555 1_555
C32_4 H25_4 1_555 1_555
N8_4 C30_4 1_555 1_555
N9_4 C31_4 1_555 1_555
O5_4 Zn4 1_555 1_555
Zn4 N8_4 1_555 1_555
C32_4 N8_4 1_555 1_555
C32_4 N9_4 1_555 1_555
C28_3 C29_4 1_555 1_555
C29_4 H22_3 1_555 1_555
O1_3 C28_3 1_555 1_555
O5_3 C28_3 1_555 1_555
C57_3 C29_4 1_555 1_555
H44_3 C29_4 1_555 1_555
O3_3 C57_3 1_555 1_555
O5_4 C57_3 1_555 1_555
C29_5 H22_4 1_555 1_555
C57_4 C29_5 1_555 1_555
C28_4 C29_6 1_555 1_555
H44_4 C29_6 1_555 1_555
N18 O6 1_555 1_555
O7 N18 1_555 1_555
O8 N18 1_555 1_555
N18_2 O6_2 1_555 1_555
O7_2 N18_2 1_555 1_555
O8_2 N18_2 1_555 1_555
N18_3 O6_3 1_555 1_555
O7_3 N18_3 1_555 1_555
O8_3 N18_3 1_555 1_555
N18_4 O6_4 1_555 1_555
O7_4 N18_4 1_555 1_555
O8_4 N18_4 1_555 1_555
N18_5 O6_5 1_555 1_555
O7_5 N18_5 1_555 1_555
O8_5 N18_5 1_555 1_555
N18_6 O6_6 1_555 1_555
O7_6 N18_6 1_555 1_555
O8_6 N18_6 1_555 1_555
N18_7 O6_7 1_555 1_555
O7_7 N18_7 1_555 1_555
O8_7 N18_7 1_555 1_555
N18_8 O6_8 1_555 1_555
O7_8 N18_8 1_555 1_555
O8_8 N18_8 1_555 1_555

#END
