
###############################################################################
#
# This file contains modified crystal structure data generated from the
# MOF subset of the Cambridge Structural Database (CSD) v543 
# hosted by the Cambridge Crystallographic Data Centre (CCDC).
#
# This work is licensed under the Creative Commons
# Attribution-NonCommercial-ShareAlike 4.0 International License.
# To view a copy of this license, visit
# http://creativecommons.org/licenses/by-nc-sa/4.0/
# or send a letter to
# Creative Commons, PO Box 1866, Mountain View, CA 94042, USA.
#
# CIF created using the CSD Python API on 29 September 2022
# The structure has been converted into the P1 space group
# The structure has a 3D framework
# The original CSD entry AWEJIW is in the triclinic crystal system
# The framework has been calculated to contain at least 10.0% void space
# The void calculation uses a probe of radius 1.32A, grid spacing 0.4
#
###############################################################################

data_AWEJIW
_chemical_formula_moiety         '(C84 H60 Cd6 O30)n'
_symmetry_cell_setting           triclinic
_symmetry_space_group_name_H-M   'P 1'
_symmetry_Int_Tables_number      1
_space_group_name_Hall           'P 1'
loop_
_symmetry_equiv_pos_site_id
_symmetry_equiv_pos_as_xyz
1 x,y,z
_cell_length_a                   7.1422(16)
_cell_length_b                   21.211(5)
_cell_length_c                   22.181(5)
_cell_angle_alpha                62.412(4)
_cell_angle_beta                 81.392(4)
_cell_angle_gamma                89.538(4)
_cell_volume                     2937.46
loop_
_atom_site_label
_atom_site_type_symbol
_atom_site_fract_x
_atom_site_fract_y
_atom_site_fract_z
O23 O 0.0530(7) 0.1337(2) 0.9488(3)
C1 C 0.4736(10) 0.1024(3) 0.0764(3)
C2 C 0.3209(10) 0.1025(4) 0.1318(4)
C3 C 0.1361(12) 0.0951(5) 0.1265(4)
H1 H 0.1064 0.0911 0.0889
C5 C 0.0390(11) 0.1061(4) 0.2294(3)
C6 C 0.2286(10) 0.1188(3) 0.2319(4)
H3 H 0.2616 0.1283 0.2660
C7 C 0.3702(11) 0.1167(4) 0.1801(3)
H4 H 0.4977 0.1253 0.1802
H5 H 0.0010 0.1945 0.2843
O1 O 0.4328(7) 0.0808(3) 0.0338(3)
O2 O 0.6421(8) 0.1187(3) 0.0758(3)
O17 O 0.0039(8) 0.2125(3) 0.5227(3)
O19 O 0.1364(8) 0.3579(3) 0.3853(3)
Cd1 Cd 0.83495(8) 0.30950(3) 0.43075(3)
Cd2 Cd 0.33641(8) 0.25340(3) 0.43035(3)
C4 C 0.9927(11) 0.0936(4) 0.1762(4)
H2 H 0.8669 0.0844 0.1746
C8 C 0.8854(10) 0.1110(4) 0.2811(4)
C9 C 0.8966(10) 0.1614(3) 0.3030(3)
C10 C 0.7567(11) 0.1649(4) 0.3524(4)
C11 C 0.6066(10) 0.1128(4) 0.3813(3)
H6 H 0.5140 0.1131 0.4154
C12 C 0.5897(9) 0.0608(3) 0.3614(4)
C13 C 0.7317(10) 0.0621(4) 0.3101(4)
H7 H 0.7216 0.0282 0.2949
C14 C 0.4324(10) 0.0050(4) 0.3946(4)
C19 C 0.2447(10) 0.0202(4) 0.4123(4)
H11 H 0.2216 0.0659 0.4059
C21 C 0.7773(10) 0.2190(4) 0.3750(4)
C22 C 0.5286(11) 0.3328(4) 0.5098(4)
C23 C 0.3720(9) 0.3617(3) 0.5397(3)
C24 C 0.4064(11) 0.4149(4) 0.5562(3)
H12 H 0.5297 0.4344 0.5475
C25 C 0.2597(11) 0.4396(4) 0.5855(4)
H13 H 0.2841 0.4759 0.5962
C26 C 0.0722(11) 0.4098(3) 0.5994(3)
C27 C 0.0381(11) 0.3584(4) 0.5802(4)
C28 C 0.1861(10) 0.3334(4) 0.5514(4)
H15 H 0.1622 0.2978 0.5397
O3 O 0.9328(7) 0.2544(3) 0.3601(2)
O4 O 0.6448(7) 0.2284(3) 0.4115(3)
O7 O 0.6936(8) 0.3635(3) 0.4933(3)
O8 O 0.4923(7) 0.2823(3) 0.4982(3)
O15 O 0.3017(7) 0.2396(3) 0.3389(3)
H27 H 0.2473 0.2765 0.3145
H28 H 0.2172 0.2053 0.3550
O16 O 0.8016(7) 0.4116(3) 0.3346(3)
H29 H 0.7231 0.4330 0.3502
H30 H 0.7388 0.3966 0.3136
Cd5 Cd 0.16505(8) 0.69050(3) 0.56925(3)
O18 O 0.1691(8) 0.1544(3) 0.4798(3)
O21 O 0.4387(7) 0.3737(3) 0.3706(3)
C15 C 0.4587(11) 0.9357(4) 0.4059(4)
H8 H 0.5801 0.9240 0.3946
C16 C 0.3106(10) 0.8833(4) 0.4332(3)
H9 H 0.3323 0.8376 0.4393
C17 C 0.1311(11) 0.8998(4) 0.4514(3)
C18 C 0.0957(10) 0.9692(3) 0.4386(3)
H14 H 0.9144 0.3404 0.5866
C29 C 0.9123(10) 0.4334(4) 0.6340(3)
C30 C 0.8936(10) 0.5052(3) 0.6199(3)
H16 H 0.9875 0.5392 0.5879
C31 C 0.7432(11) 0.5284(4) 0.6510(4)
C32 C 0.6005(10) 0.4745(4) 0.6969(3)
H17 H 0.4934 0.4875 0.7168
C33 C 0.6138(10) 0.4020(4) 0.7135(4)
C34 C 0.7738(11) 0.3817(4) 0.6828(4)
H18 H 0.7872 0.3339 0.6950
C35 C 0.7229(11) 0.6016(4) 0.6321(4)
C36 C 0.4619(10) 0.3480(4) 0.7636(4)
C37 C 0.5077(11) 0.2805(4) 0.8091(4)
H19 H 0.6340 0.2696 0.8098
C38 C 0.2690(11) 0.3656(4) 0.7645(4)
H20 H 0.2399 0.4116 0.7357
C39 C 0.1272(10) 0.3156(4) 0.8071(3)
H21 H 0.0015 0.3270 0.8050
C40 C 0.1688(11) 0.2454(3) 0.8551(4)
C41 C 0.3612(11) 0.2282(4) 0.8546(4)
H22 H 0.3912 0.1826 0.8842
C42 C 0.0139(10) 0.1941(4) 0.9031(3)
O9 O 0.8636(8) 0.6421(3) 0.6147(3)
O10 O 0.5613(7) 0.6263(3) 0.6294(3)
Cd7 Cd 0.66359(8) 0.74660(3) 0.56965(3)
H10 H 0.9727 0.9809 0.4478
C20 C 0.9750(10) 0.8414(4) 0.4825(3)
O5 O 0.9961(8) 0.7875(3) 0.4773(3)
O6 O 0.8309(8) 0.8456(3) 0.5202(3)
H10_2 H 0.0273 0.0191 0.5522
C20_2 C 0.0250(10) 0.1586(4) 0.5175(3)
H14_2 H 0.0856 0.6596 0.4134
C29_2 C 0.0877(10) 0.5666(4) 0.3660(3)
C30_2 C 0.1064(10) 0.4948(3) 0.3801(3)
H16_2 H 0.0125 0.4608 0.4121
C31_2 C 0.2568(11) 0.4716(4) 0.3490(4)
C32_2 C 0.3995(10) 0.5255(4) 0.3031(3)
H17_2 H 0.5066 0.5125 0.2832
C33_2 C 0.3862(10) 0.5980(4) 0.2865(4)
C34_2 C 0.2262(11) 0.6183(4) 0.3172(4)
H18_2 H 0.2128 0.6661 0.3050
C35_2 C 0.2771(11) 0.3984(4) 0.3679(4)
C36_2 C 0.5381(10) 0.6520(4) 0.2364(4)
C37_2 C 0.4923(11) 0.7195(4) 0.1909(4)
H19_2 H 0.3660 0.7304 0.1902
C38_2 C 0.7310(11) 0.6344(4) 0.2355(4)
H20_2 H 0.7601 0.5884 0.2643
C39_2 C 0.8728(10) 0.6844(4) 0.1929(3)
H21_2 H 0.9985 0.6730 0.1950
C40_2 C 0.8312(11) 0.7546(3) 0.1449(4)
C41_2 C 0.6388(11) 0.7718(4) 0.1454(4)
H22_2 H 0.6088 0.8174 0.1158
C42_2 C 0.9861(10) 0.8059(4) 0.0969(3)
O12 O 0.9470(7) 0.8663(2) 0.0512(3)
C15_2 C 0.5413(11) 0.0643(4) 0.5941(4)
H8_2 H 0.4199 0.0760 0.6054
C16_2 C 0.6894(10) 0.1167(4) 0.5668(3)
H9_2 H 0.6677 0.1624 0.5607
C17_2 C 0.8689(11) 0.1002(4) 0.5486(3)
C18_2 C 0.9043(10) 0.0308(3) 0.5614(3)
C4_2 C 0.0073(11) 0.9064(4) 0.8238(4)
H2_2 H 0.1331 0.9156 0.8254
C8_2 C 0.1146(10) 0.8890(4) 0.7189(4)
C9_2 C 0.1034(10) 0.8386(3) 0.6970(3)
C10_2 C 0.2433(11) 0.8351(4) 0.6476(4)
C11_2 C 0.3934(10) 0.8872(4) 0.6187(3)
H6_2 H 0.4860 0.8869 0.5846
C12_2 C 0.4103(9) 0.9392(3) 0.6386(4)
C13_2 C 0.2683(10) 0.9379(4) 0.6899(4)
H7_2 H 0.2784 0.9718 0.7051
C14_2 C 0.5676(10) 0.9950(4) 0.6054(4)
C19_2 C 0.7553(10) 0.9798(4) 0.5877(4)
H11_2 H 0.7784 0.9341 0.5941
C21_2 C 0.2227(10) 0.7810(4) 0.6250(4)
C22_2 C 0.4714(11) 0.6672(4) 0.4902(4)
C23_2 C 0.6280(9) 0.6383(3) 0.4603(3)
C24_2 C 0.5936(11) 0.5851(4) 0.4438(3)
H12_2 H 0.4703 0.5656 0.4525
C25_2 C 0.7403(11) 0.5604(4) 0.4145(4)
H13_2 H 0.7159 0.5241 0.4038
C26_2 C 0.9278(11) 0.5902(3) 0.4006(3)
C27_2 C 0.9619(11) 0.6416(4) 0.4198(4)
C28_2 C 0.8139(10) 0.6666(4) 0.4486(4)
H15_2 H 0.8378 0.7022 0.4603
O3_2 O 0.0672(7) 0.7456(3) 0.6399(2)
O4_2 O 0.3552(7) 0.7716(3) 0.5885(3)
O7_2 O 0.3064(8) 0.6365(3) 0.5067(3)
O8_2 O 0.5077(7) 0.7177(3) 0.5018(3)
O15_2 O 0.6983(7) 0.7604(3) 0.6611(3)
H27_2 H 0.7527 0.7235 0.6855
H28_2 H 0.7828 0.7947 0.6450
O16_2 O 0.1984(7) 0.5884(3) 0.6654(3)
H29_2 H 0.2769 0.5670 0.6498
H30_2 H 0.2612 0.6034 0.6864
C1_2 C 0.5264(10) 0.8976(3) 0.9236(3)
C2_2 C 0.6791(10) 0.8975(4) 0.8682(4)
C3_2 C 0.8639(12) 0.9049(5) 0.8735(4)
H1_2 H 0.8936 0.9089 0.9111
C5_2 C 0.9610(11) 0.8939(4) 0.7706(3)
C6_2 C 0.7714(10) 0.8812(3) 0.7681(4)
H3_2 H 0.7384 0.8717 0.7340
C7_2 C 0.6298(11) 0.8833(4) 0.8199(3)
H4_2 H 0.5023 0.8747 0.8198
H5_2 H 0.9990 0.8055 0.7157
O1_2 O 0.5672(7) 0.9192(3) 0.9662(3)
O2_2 O 0.3579(8) 0.8813(3) 0.9242(3)
Cd3 Cd 0.74126(8) 0.09271(3) 0.98417(3)
O13 O 0.7184(7) 0.0557(2) 0.9034(2)
H23 H 0.8285 0.0585 0.8811
H24 H 0.6726 0.0127 0.9236
O22 O 0.8463(8) 0.2027(3) 0.8953(3)
O14 O 0.7750(7) 0.9782(3) 0.0585(3)
H25 H 0.8592 0.9621 0.0389
H26 H 0.8091 0.9754 0.0947
O11 O 0.1537(8) 0.7973(3) 0.1047(3)
Cd8 Cd 0.25874(8) 0.90729(3) 0.01583(3)
O13_2 O 0.2816(7) 0.9443(2) 0.0966(2)
H23_2 H 0.1715 0.9415 0.1189
H24_2 H 0.3274 0.9873 0.0764
O14_2 O 0.2250(7) 0.0218(3) 0.9415(3)
H25_2 H 0.1408 0.0379 0.9611
H26_2 H 0.1909 0.0246 0.9053
loop_
_geom_bond_atom_site_label_1
_geom_bond_atom_site_label_2
_geom_bond_site_symmetry_1
_geom_bond_site_symmetry_2
C1 C2 1_555 1_555
C2 C3 1_555 1_555
C3 H1 1_555 1_555
C6 C5 1_555 1_555
H3 C6 1_555 1_555
C7 C2 1_555 1_555
H4 C7 1_555 1_555
O1 C1 1_555 1_555
C1 O2 1_555 1_555
C6 C7 1_555 1_555
Cd1 O3 1_555 1_555
Cd2 O4 1_555 1_555
H2 C4 1_555 1_555
C9 C8 1_555 1_555
C10 C9 1_555 1_555
C11 C10 1_555 1_555
H6 C11 1_555 1_555
C12 C11 1_555 1_555
C13 C8 1_555 1_555
H7 C13 1_555 1_555
C14 C12 1_555 1_555
C19 C14 1_555 1_555
H11 C19 1_555 1_555
C21 C10 1_555 1_555
C22 C23 1_555 1_555
C23 C24 1_555 1_555
C24 H12 1_555 1_555
C25 C24 1_555 1_555
H13 C25 1_555 1_555
C26 C25 1_555 1_555
C27 C26 1_555 1_555
C28 C23 1_555 1_555
H15 C28 1_555 1_555
O3 C21 1_555 1_555
O4 Cd1 1_555 1_555
O7 Cd1 1_555 1_555
O8 Cd1 1_555 1_555
O15 Cd2 1_555 1_555
H27 O15 1_555 1_555
H28 O15 1_555 1_555
O16 Cd1 1_555 1_555
H29 O16 1_555 1_555
H30 O16 1_555 1_555
O18 Cd2 1_555 1_555
O19 Cd2 1_555 1_555
O21 Cd2 1_555 1_555
Cd2 O8 1_555 1_555
C12 C13 1_555 1_555
C21 O4 1_555 1_555
C22 O7 1_555 1_555
C22 O8 1_555 1_555
C27 C28 1_555 1_555
H8 C15 1_555 1_555
C16 C15 1_555 1_555
H9 C16 1_555 1_555
C17 C16 1_555 1_555
C18 C17 1_555 1_555
C30 C29 1_555 1_555
H16 C30 1_555 1_555
C31 C30 1_555 1_555
C32 C31 1_555 1_555
H17 C32 1_555 1_555
C33 C32 1_555 1_555
C34 C29 1_555 1_555
H18 C34 1_555 1_555
C35 C31 1_555 1_555
C36 C33 1_555 1_555
C37 C36 1_555 1_555
H19 C37 1_555 1_555
C38 C36 1_555 1_555
H20 C38 1_555 1_555
C39 C38 1_555 1_555
H21 C39 1_555 1_555
C40 C39 1_555 1_555
C41 C37 1_555 1_555
H22 C41 1_555 1_555
C42 C40 1_555 1_555
O9 C35 1_555 1_555
O10 C35 1_555 1_555
O23 C42 1_555 1_555
Cd7 O9 1_555 1_555
C33 C34 1_555 1_555
C40 C41 1_555 1_555
O10 Cd7 1_555 1_555
O5 C20 1_555 1_555
O6 C20 1_555 1_555
Cd7 O6 1_555 1_555
O17 C20_2 1_555 1_555
O18 C20_2 1_555 1_555
C30_2 C29_2 1_555 1_555
H16_2 C30_2 1_555 1_555
C31_2 C30_2 1_555 1_555
C32_2 C31_2 1_555 1_555
H17_2 C32_2 1_555 1_555
C33_2 C32_2 1_555 1_555
C34_2 C29_2 1_555 1_555
H18_2 C34_2 1_555 1_555
C35_2 C31_2 1_555 1_555
C36_2 C33_2 1_555 1_555
C37_2 C36_2 1_555 1_555
H19_2 C37_2 1_555 1_555
C38_2 C36_2 1_555 1_555
H20_2 C38_2 1_555 1_555
C39_2 C38_2 1_555 1_555
H21_2 C39_2 1_555 1_555
C40_2 C39_2 1_555 1_555
C41_2 C37_2 1_555 1_555
H22_2 C41_2 1_555 1_555
C42_2 C40_2 1_555 1_555
O19 C35_2 1_555 1_555
O21 C35_2 1_555 1_555
O12 C42_2 1_555 1_555
C33_2 C34_2 1_555 1_555
C40_2 C41_2 1_555 1_555
H8_2 C15_2 1_555 1_555
C16_2 C15_2 1_555 1_555
H9_2 C16_2 1_555 1_555
C17_2 C16_2 1_555 1_555
C18_2 C17_2 1_555 1_555
Cd5 O3_2 1_555 1_555
Cd7 O4_2 1_555 1_555
H2_2 C4_2 1_555 1_555
C9_2 C8_2 1_555 1_555
C10_2 C9_2 1_555 1_555
C11_2 C10_2 1_555 1_555
H6_2 C11_2 1_555 1_555
C12_2 C11_2 1_555 1_555
C13_2 C8_2 1_555 1_555
H7_2 C13_2 1_555 1_555
C14_2 C12_2 1_555 1_555
C19_2 C14_2 1_555 1_555
H11_2 C19_2 1_555 1_555
C21_2 C10_2 1_555 1_555
C22_2 C23_2 1_555 1_555
C23_2 C24_2 1_555 1_555
C24_2 H12_2 1_555 1_555
C25_2 C24_2 1_555 1_555
H13_2 C25_2 1_555 1_555
C26_2 C25_2 1_555 1_555
C27_2 C26_2 1_555 1_555
C28_2 C23_2 1_555 1_555
H15_2 C28_2 1_555 1_555
O3_2 C21_2 1_555 1_555
O4_2 Cd5 1_555 1_555
O7_2 Cd5 1_555 1_555
O8_2 Cd5 1_555 1_555
O15_2 Cd7 1_555 1_555
H27_2 O15_2 1_555 1_555
H28_2 O15_2 1_555 1_555
O16_2 Cd5 1_555 1_555
H29_2 O16_2 1_555 1_555
H30_2 O16_2 1_555 1_555
Cd7 O8_2 1_555 1_555
C12_2 C13_2 1_555 1_555
C21_2 O4_2 1_555 1_555
C22_2 O7_2 1_555 1_555
C22_2 O8_2 1_555 1_555
C27_2 C28_2 1_555 1_555
C1_2 C2_2 1_555 1_555
C2_2 C3_2 1_555 1_555
C3_2 H1_2 1_555 1_555
C6_2 C5_2 1_555 1_555
H3_2 C6_2 1_555 1_555
C7_2 C2_2 1_555 1_555
H4_2 C7_2 1_555 1_555
O1_2 C1_2 1_555 1_555
C1_2 O2_2 1_555 1_555
C6_2 C7_2 1_555 1_555
O13 Cd3 1_555 1_555
H23 O13 1_555 1_555
H24 O13 1_555 1_555
O22 Cd3 1_555 1_555
H25 O14 1_555 1_555
H26 O14 1_555 1_555
Cd8 O11 1_555 1_555
O13_2 Cd8 1_555 1_555
H23_2 O13_2 1_555 1_555
H24_2 O13_2 1_555 1_555
H25_2 O14_2 1_555 1_555
H26_2 O14_2 1_555 1_555

#END
