
###############################################################################
#
# This file contains modified crystal structure data generated from the
# MOF subset of the Cambridge Structural Database (CSD) v543 
# hosted by the Cambridge Crystallographic Data Centre (CCDC).
#
# This work is licensed under the Creative Commons
# Attribution-NonCommercial-ShareAlike 4.0 International License.
# To view a copy of this license, visit
# http://creativecommons.org/licenses/by-nc-sa/4.0/
# or send a letter to
# Creative Commons, PO Box 1866, Mountain View, CA 94042, USA.
#
# CIF created using the CSD Python API on 29 September 2022
# The structure has been converted into the P1 space group
# The structure has a 3D framework
# The original CSD entry AWEVIJ is in the monoclinic crystal system
# The framework has been calculated to contain at least 10.0% void space
# The void calculation uses a probe of radius 1.32A, grid spacing 0.4
# The framework is charged, counterions have been retained in the structure
# H atom positions have been added when not included in the experimental data
#
###############################################################################

data_AWEVIJ
_chemical_formula_moiety         '(C848 H780 Cl16 N72 O152 Zn16 16+)n'
_symmetry_cell_setting           triclinic
_symmetry_space_group_name_H-M   'P 1'
_symmetry_Int_Tables_number      1
_space_group_name_Hall           'P 1'
loop_
_symmetry_equiv_pos_site_id
_symmetry_equiv_pos_as_xyz
1 x,y,z
_cell_length_a                   38.531(2)
_cell_length_b                   20.8400(10)
_cell_length_c                   38.688(2)
_cell_angle_alpha                90
_cell_angle_beta                 91.60(2)
_cell_angle_gamma                90
_cell_volume                     31053.8
loop_
_atom_site_label
_atom_site_type_symbol
_atom_site_fract_x
_atom_site_fract_y
_atom_site_fract_z
O1 O 0.2938(3) 0.7351(5) 0.9401(3)
O2 O 0.3363(3) 0.7126(7) 0.9007(3)
O3 O 0.3470(4) 0.6899(6) 0.9597(4)
O4 O 0.3474(3) 0.7952(5) 0.9415(4)
Cl1 Cl 0.33044(13) 0.7322(2) 0.93545(13)
O1_2 O 0.2062(3) 0.7351(5) 0.0599(3)
O2_2 O 0.1637(3) 0.7126(7) 0.0993(3)
O3_2 O 0.1530(4) 0.6899(6) 0.0403(4)
O4_2 O 0.1526(3) 0.7952(5) 0.0585(4)
Cl1_2 Cl 0.16956(13) 0.7322(2) 0.06455(13)
O1_3 O 0.7938(3) 0.2351(5) 0.4401(3)
O2_3 O 0.8363(3) 0.2126(7) 0.4007(3)
O3_3 O 0.8470(4) 0.1899(6) 0.4597(4)
O4_3 O 0.8474(3) 0.2952(5) 0.4415(4)
Cl1_3 Cl 0.83044(13) 0.2322(2) 0.43545(13)
O1_4 O 0.7062(3) 0.2351(5) 0.5599(3)
O2_4 O 0.6637(3) 0.2126(7) 0.5993(3)
O3_4 O 0.6530(4) 0.1899(6) 0.5403(4)
O4_4 O 0.6526(3) 0.2952(5) 0.5585(4)
Cl1_4 Cl 0.66956(13) 0.2322(2) 0.56455(13)
O1_5 O 0.7062(3) 0.2649(5) 0.0599(3)
O2_5 O 0.6637(3) 0.2874(7) 0.0993(3)
O3_5 O 0.6530(4) 0.3101(6) 0.0403(4)
O4_5 O 0.6526(3) 0.2048(5) 0.0585(4)
Cl1_5 Cl 0.66956(13) 0.2678(2) 0.06455(13)
O1_6 O 0.7938(3) 0.2649(5) 0.9401(3)
O2_6 O 0.8363(3) 0.2874(7) 0.9007(3)
O3_6 O 0.8470(4) 0.3101(6) 0.9597(4)
O4_6 O 0.8474(3) 0.2048(5) 0.9415(4)
Cl1_6 Cl 0.83044(13) 0.2678(2) 0.93545(13)
O1_7 O 0.2062(3) 0.7649(5) 0.5599(3)
O2_7 O 0.1637(3) 0.7874(7) 0.5993(3)
O3_7 O 0.1530(4) 0.8101(6) 0.5403(4)
O4_7 O 0.1526(3) 0.7048(5) 0.5585(4)
Cl1_7 Cl 0.16956(13) 0.7678(2) 0.56455(13)
O1_8 O 0.2938(3) 0.7649(5) 0.4401(3)
O2_8 O 0.3363(3) 0.7874(7) 0.4007(3)
O3_8 O 0.3470(4) 0.8101(6) 0.4597(4)
O4_8 O 0.3474(3) 0.7048(5) 0.4415(4)
Cl1_8 Cl 0.33044(13) 0.7678(2) 0.43545(13)
O6 O 0.1447(3) 0.0629(6) 0.9123(3)
O7 O 0.2025(5) 0.1021(6) 0.8967(4)
O8 O 0.1927(3) 0.0492(5) 0.9489(3)
Cl2 Cl 0.18215(13) 0.0543(2) 0.91421(14)
O5 O 0.1880(3) 0.9941(5) 0.8959(4)
O6_2 O 0.3553(3) 0.0629(6) 0.0877(3)
O7_2 O 0.2975(5) 0.1021(6) 0.1033(4)
O8_2 O 0.3073(3) 0.0492(5) 0.0511(3)
Cl2_2 Cl 0.31785(13) 0.0543(2) 0.08579(14)
O5_2 O 0.3120(3) 0.9941(5) 0.1041(4)
O5_3 O 0.6880(3) 0.4941(5) 0.3959(4)
O6_3 O 0.6447(3) 0.5629(6) 0.4123(3)
O7_3 O 0.7025(5) 0.6021(6) 0.3967(4)
O8_3 O 0.6927(3) 0.5492(5) 0.4489(3)
Cl2_3 Cl 0.68215(13) 0.5543(2) 0.41421(14)
O5_4 O 0.8120(3) 0.4941(5) 0.6041(4)
O6_4 O 0.8553(3) 0.5629(6) 0.5877(3)
O7_4 O 0.7975(5) 0.6021(6) 0.6033(4)
O8_4 O 0.8073(3) 0.5492(5) 0.5511(3)
Cl2_4 Cl 0.81785(13) 0.5543(2) 0.58579(14)
O5_5 O 0.8120(3) 0.0059(5) 0.1041(4)
O6_5 O 0.8553(3) 0.9371(6) 0.0877(3)
O7_5 O 0.7975(5) 0.8979(6) 0.1033(4)
O8_5 O 0.8073(3) 0.9508(5) 0.0511(3)
Cl2_5 Cl 0.81785(13) 0.9457(2) 0.08579(14)
O5_6 O 0.6880(3) 0.0059(5) 0.8959(4)
O6_6 O 0.6447(3) 0.9371(6) 0.9123(3)
O7_6 O 0.7025(5) 0.8979(6) 0.8967(4)
O8_6 O 0.6927(3) 0.9508(5) 0.9489(3)
Cl2_6 Cl 0.68215(13) 0.9457(2) 0.91421(14)
O5_7 O 0.3120(3) 0.5059(5) 0.6041(4)
O6_7 O 0.3553(3) 0.4371(6) 0.5877(3)
O7_7 O 0.2975(5) 0.3979(6) 0.6033(4)
O8_7 O 0.3073(3) 0.4508(5) 0.5511(3)
Cl2_7 Cl 0.31785(13) 0.4457(2) 0.58579(14)
O5_8 O 0.1880(3) 0.5059(5) 0.3959(4)
O6_8 O 0.1447(3) 0.4371(6) 0.4123(3)
O7_8 O 0.2025(5) 0.3979(6) 0.3967(4)
O8_8 O 0.1927(3) 0.4508(5) 0.4489(3)
Cl2_8 Cl 0.18215(13) 0.4457(2) 0.41421(14)
C53 C 0.3702(3) 0.3426(4) 0.0476(3)
H45 H 0.3695 0.3812 0.0607
C54 C 0.4016(3) 0.3201(5) 0.0357(3)
H46 H 0.4224 0.3433 0.0407
C55 C 0.4027(2) 0.2637(5) 0.0167(3)
C56 C 0.3723(3) 0.2297(4) 0.0095(3)
C57 C 0.3408(2) 0.2522(5) 0.0214(3)
C58 C 0.3398(3) 0.3086(5) 0.0405(3)
H47 H 0.3183 0.324 0.0486
C59 C 0.3792(5) 0.1176(9) 0.0124(5)
H48 H 0.4012 0.1226 0.026
H49 H 0.36 0.1147 0.0288
C64 C 0.3860(4) 0.0042(7) 0.0100(5)
H53 H 0.3883 0.0065 0.0345
C65 C 0.3064(6) 0.2158(9) 0.0101(5)
H54 H 0.3108 0.1692 0.0085
H55 H 0.2884 0.2228 0.0275
C99 C 0.4969(5) 0.0759(8) 0.0163(5)
C103 C 0.5316(5) 0.0915(6) 0.0132(4)
H83 H 0.547 0.0868 0.0326
C104 C 0.4369(4) 0.2403(9) 0.0018(5)
H84 H 0.4364 0.1929 0.000
H85 H 0.4563 0.252 0.018
H91 H 0.487832 0.0574376 0.0407848
O13 O 0.3738(2) 0.1741(4) 0.9890(3)
C60 C 0.3805(4) 0.0616(8) 0.9924(6)
C61 C 0.3767(5) 0.0557(8) 0.9579(6)
H50 H 0.3726 0.0937 0.9449
C66 C 0.2694(3) 0.3271(4) 0.9386(4)
H56 H 0.2596 0.3688 0.9365
C67 C 0.2792(3) 0.3034(5) 0.9710(3)
H57 H 0.2761 0.3289 0.991
C68 C 0.2935(3) 0.2424(6) 0.9741(3)
C69 C 0.2981(3) 0.2051(4) 0.9448(3)
C70 C 0.2883(3) 0.2288(5) 0.9124(3)
C71 C 0.2740(3) 0.2898(6) 0.9093(3)
H58 H 0.2673 0.3061 0.8871
O14 O 0.3062(3) 0.1373(6) 0.9452(3)
C72 C 0.2753(6) 0.1007(9) 0.9545(5)
H59 H 0.2719 0.1024 0.9797
H60 H 0.2543 0.1182 0.9425
C73 C 0.2816(5) 0.0350(9) 0.9434(5)
C77 C 0.2768(4) 0.0176(8) 0.9078(5)
H64 H 0.2705 0.0491 0.891
C78 C 0.2990(5) 0.1933(8) 0.8775(5)
H65 H 0.3067 0.149 0.8827
H66 H 0.2788 0.1912 0.8612
C79 C 0.3532(4) 0.3266(5) 0.8336(3)
H67 H 0.3498 0.3661 0.8217
C80 C 0.3247(3) 0.2906(6) 0.8434(3)
H68 H 0.3019 0.3055 0.8383
C81 C 0.3297(3) 0.2327(6) 0.8607(3)
C82 C 0.3632(4) 0.2109(4) 0.8682(3)
C83 C 0.3917(3) 0.2469(6) 0.8584(3)
C84 C 0.3866(3) 0.3047(5) 0.8410(3)
H69 H 0.4061 0.3293 0.8343
O15 O 0.3709(4) 0.1517(6) 0.8831(3)
C85 C 0.3800(5) 0.1010(9) 0.8575(5)
H70 H 0.3985 0.1174 0.8426
H71 H 0.3892 0.063 0.8701
C86 C 0.3522(5) 0.0830(8) 0.8373(6)
C87 C 0.3371(7) 0.1177(9) 0.8048(5)
H72 H 0.3482 0.1542 0.7954
C88 C 0.3067(6) 0.0930(11) 0.7902(6)
H73 H 0.2971 0.1149 0.7706
C89 C 0.2903(5) 0.0433(9) 0.8006(5)
H74 H 0.2689 0.032 0.7894
N7 N 0.3034(4) 0.0042(6) 0.8286(4)
C90 C 0.3317(6) 0.0238(9) 0.8441(5)
C91 C 0.4303(5) 0.2307(9) 0.8690(5)
H76 H 0.4329 0.1836 0.8709
H77 H 0.4456 0.2456 0.8505
C92 C 0.4560(3) 0.3624(4) 0.9317(3)
H78 H 0.4619 0.4065 0.9303
C93 C 0.4506(3) 0.3268(5) 0.9016(3)
H79 H 0.4529 0.3466 0.8797
C94 C 0.4419(3) 0.2622(5) 0.9037(3)
C95 C 0.4386(3) 0.2332(4) 0.9358(3)
C96 C 0.4440(3) 0.2688(5) 0.9658(3)
C97 C 0.4527(3) 0.3334(5) 0.9638(3)
H80 H 0.4564 0.3577 0.9843
O16 O 0.4316(3) 0.1682(5) 0.9396(3)
C98 C 0.4576(5) 0.1264(8) 0.9286(5)
C100 C 0.4736(5) 0.0834(8) 0.9888(5)
H81 H 0.4502 0.0704 0.9913
C101 C 0.4834(4) 0.1096(6) 0.9574(4)
C102 C 0.5178(5) 0.1227(8) 0.9562(5)
H82 H 0.525 0.1402 0.9349
N8 N 0.5445(4) 0.1148(6) 0.9812(4)
H84_2 H 0.4364 0.1929 1.000
Zn5 Zn 0.59499(5) 0.13867(8) 0.97412(6)
H89 H 0.471437 0.149278 0.907756
H90 H 0.445445 0.0823989 0.919091
H96 H 0.234872 0.0274781 0.842911
C1 C 0.3087(4) 0.4705(4) 0.0222(3)
H1 H 0.3099 0.4293 0.0118
C2 C 0.3387(3) 0.5066(6) 0.0273(3)
H2 H 0.3604 0.49 0.0205
C3 C 0.3369(3) 0.5669(5) 0.0425(3)
C4 C 0.3051(3) 0.5911(4) 0.0525(3)
C5 C 0.2751(2) 0.5550(6) 0.0473(3)
C6 C 0.2769(3) 0.4947(5) 0.0322(3)
H3 H 0.2563 0.47 0.0286
O9 O 0.3024(3) 0.6558(5) 0.0585(3)
C7 C 0.2918(4) 0.6924(9) 0.0295(4)
H4 H 0.2662 0.691 0.0263
H5 H 0.3023 0.6751 0.0083
C8 C 0.3044(5) 0.7639(6) 0.0361(4)
C9 C 0.2820(5) 0.8140(7) 0.0440(4)
H6 H 0.2578 0.8064 0.0455
C10 C 0.2950(4) 0.8732(6) 0.0495(4)
H7 H 0.2804 0.9075 0.0562
C11 C 0.3305(5) 0.8831(8) 0.0452(4)
H8 H 0.3398 0.9241 0.051
N1 N 0.3527(4) 0.8379(7) 0.0334(3)
C12 C 0.3386(4) 0.7759(7) 0.0291(4)
H9 H 0.3528 0.742 0.0214
C13 C 0.2401(4) 0.5760(9) 0.0593(5)
H10 H 0.2223 0.5682 0.0408
H11 H 0.2405 0.6225 0.0645
C14 C 0.2046(3) 0.4456(4) 0.1169(3)
H12 H 0.191 0.4078 0.1145
C15 C 0.2111(3) 0.4832(5) 0.0881(2)
H13 H 0.202 0.471 0.066
C16 C 0.2310(3) 0.5385(4) 0.0917(2)
C17 C 0.2444(3) 0.5564(4) 0.1240(3)
C18 C 0.2378(3) 0.5188(5) 0.1528(2)
C19 C 0.2179(3) 0.4634(4) 0.1492(2)
H14 H 0.2134 0.4378 0.1689
O10 O 0.2629(3) 0.6103(5) 0.1280(3)
C20 C 0.3096(5) 0.7889(8) 0.1296(5)
H15 H 0.3338 0.7923 0.126
C21 C 0.2943(4) 0.7301(7) 0.1306(4)
H16 H 0.3077 0.692 0.1289
C22 C 0.2603(4) 0.7275(7) 0.1340(4)
C23 C 0.2409(5) 0.7812(7) 0.1400(4)
H17 H 0.2169 0.7768 0.1445
N2 N 0.2556(4) 0.8419(5) 0.1395(3)
C24 C 0.2898(5) 0.8441(8) 0.1339(4)
H18 H 0.3009 0.8847 0.1328
C25 C 0.2378(5) 0.6625(7) 0.1349(6)
H19 H 0.2274 0.6567 0.1578
H20 H 0.219 0.6634 0.1169
C26 C 0.2536(5) 0.5356(7) 0.1885(4)
H21 H 0.239 0.5162 0.2065
H22 H 0.2528 0.5827 0.1916
C27 C 0.3285(4) 0.4210(4) 0.2050(3)
H23 H 0.3311 0.3765 0.2097
C28 C 0.2954(3) 0.4474(6) 0.2014(3)
H24 H 0.2755 0.4209 0.2036
C29 C 0.2915(3) 0.5125(6) 0.1945(3)
C30 C 0.3206(4) 0.5512(4) 0.1913(3)
C31 C 0.3536(3) 0.5249(5) 0.1950(3)
C32 C 0.3575(3) 0.4598(6) 0.2018(3)
H25 H 0.3801 0.4418 0.2044
O11 O 0.3151(4) 0.6162(6) 0.1855(3)
C33 C 0.3232(5) 0.6544(8) 0.2164(5)
H26 H 0.3436 0.636 0.229
H27 H 0.3289 0.699 0.2097
C34 C 0.2920(7) 0.6545(10) 0.2398(5)
C35 C 0.2612(7) 0.6799(10) 0.2310(6)
H28 H 0.2599 0.7064 0.211
C36 C 0.2306(7) 0.6708(8) 0.2489(5)
H29 H 0.2084 0.6847 0.2406
C37 C 0.2365(9) 0.6367(11) 0.2826(7)
H30 H 0.2178 0.6325 0.2978
N3 N 0.2686(5) 0.6112(6) 0.2923(4)
C38 C 0.2961(5) 0.6179(8) 0.2721(6)
H31 H 0.3178 0.5993 0.2785
C39 C 0.3853(6) 0.5615(10) 0.1854(5)
H32 H 0.4046 0.5511 0.2018
H33 H 0.3806 0.6081 0.187
C40 C 0.4194(4) 0.4706(5) 0.1067(5)
H34 H 0.432 0.4326 0.1019
C41 C 0.4145(4) 0.4891(6) 0.1407(4)
H35 H 0.4237 0.4637 0.1592
C42 C 0.3960(3) 0.5447(7) 0.1478(3)
C43 C 0.3825(3) 0.5818(5) 0.1207(4)
C44 C 0.3874(3) 0.5634(6) 0.0867(3)
C45 C 0.4058(4) 0.5078(7) 0.0797(4)
H36 H 0.4092 0.4952 0.0564
O12 O 0.3693(3) 0.6423(5) 0.1260(3)
C46 C 0.3961(5) 0.6918(12) 0.1354(5)
H37 H 0.3847 0.731 0.144
H38 H 0.412 0.6752 0.1538
C47 C 0.4148(5) 0.7063(7) 0.1058(5)
C48 C 0.4436(6) 0.6722(9) 0.0957(6)
H39 H 0.4533 0.6395 0.1101
C49 C 0.4587(5) 0.6873(9) 0.0624(7)
H40 H 0.4766 0.6616 0.0532
C50 C 0.4460(5) 0.7399(9) 0.0450(5)
H41 H 0.4568 0.7509 0.0241
N4 N 0.4196(4) 0.7774(5) 0.0546(4)
C51 C 0.4065(4) 0.7607(9) 0.0849(5)
H42 H 0.3895 0.7888 0.0937
C52 C 0.3693(5) 0.5984(10) 0.0539(5)
H43 H 0.3644 0.6436 0.0599
H44 H 0.3856 0.5985 0.0346
O18 O 0.4077(3) 0.9143(6) 0.0740(4)
Zn2 Zn 0.40501(5) 0.86133(8) 0.02588(6)
N12 N 0.4555(4) 0.8852(6) 0.0188(4)
Zn3 Zn 0.22649(6) 0.92524(9) 0.15565(5)
Zn4 Zn 0.27351(6) 0.57476(9) 0.34435(5)
H92 H 0.402447 0.885098 0.0934496
H93 H 0.43139 0.932323 0.0775404
C62 C 0.3784(4) 0.9991(8) 0.9403(4)
H51 H 0.376 0.9968 0.9158
C63 C 0.3842(5) 0.9436(9) 0.9615(6)
H52 H 0.3851 0.9027 0.9507
N5 N 0.3884(3) 0.9467(5) 0.9957(4)
C74 C 0.2930(4) 0.9841(9) 0.9669(5)
H61 H 0.2973 0.994 0.9906
C75 C 0.2975(4) 0.9224(9) 0.9557(5)
H62 H 0.3048 0.8904 0.9718
C76 C 0.2916(4) 0.9059(8) 0.9218(5)
H63 H 0.2944 0.8627 0.9146
N6 N 0.2815(3) 0.9524(6) 0.8980(4)
H75 H 0.3405 0.9971 0.8622
O17 O 0.2289(3) 0.9819(4) 0.8382(3)
O19 O 0.4061(3) 0.8029(5) 0.9812(3)
Zn1 Zn 0.27351(6) 0.92524(9) 0.84435(5)
N9 N 0.3236(5) 0.8731(7) 0.8512(5)
C105 C 0.3483(8) 0.8520(16) 0.8545(8)
C106 C 0.3837(7) 0.8225(11) 0.8624(8)
H86 H 0.4019 0.8516 0.8547
H87 H 0.3856 0.7814 0.8502
H88 H 0.3866 0.8152 0.8873
N10 N 0.2444(4) 0.8419(5) 0.8605(3)
N11 N 0.2686(5) 0.8888(6) 0.7923(4)
H94 H 0.388623 0.818643 0.963857
H95 H 0.429564 0.804724 0.971263
H97 H 0.219502 0.977679 0.814146
C62_2 C 0.1216(4) 0.9991(8) 0.0597(4)
H51_2 H 0.124 0.9968 0.0842
C63_2 C 0.1158(5) 0.9436(9) 0.0385(6)
H52_2 H 0.1149 0.9027 0.0493
N5_2 N 0.1116(3) 0.9467(5) 0.0043(4)
C74_2 C 0.2070(4) 0.9841(9) 0.0331(5)
H61_2 H 0.2027 0.994 0.0094
C75_2 C 0.2025(4) 0.9224(9) 0.0443(5)
H62_2 H 0.1952 0.8904 0.0282
C76_2 C 0.2084(4) 0.9059(8) 0.0782(5)
H63_2 H 0.2056 0.8627 0.0854
N6_2 N 0.2185(3) 0.9524(6) 0.1020(4)
H75_2 H 0.1595 0.9971 0.1378
O17_2 O 0.2711(3) 0.9819(4) 0.1618(3)
O19_2 O 0.0939(3) 0.8029(5) 0.0188(3)
N9_2 N 0.1764(5) 0.8731(7) 0.1488(5)
C105_2 C 0.1517(8) 0.8520(16) 0.1455(8)
C106_2 C 0.1163(7) 0.8225(11) 0.1376(8)
H86_2 H 0.0981 0.8516 0.1453
H87_2 H 0.1144 0.7814 0.1498
H88_2 H 0.1134 0.8152 0.1127
N11_2 N 0.2314(5) 0.8888(6) 0.2077(4)
H94_2 H 0.111377 0.818643 0.0361429
H95_2 H 0.0704358 0.804724 0.0287371
H97_2 H 0.280498 0.977679 0.185854
C1_2 C 0.1913(4) 0.4705(4) 0.9778(3)
H1_2 H 0.1901 0.4293 0.9882
C2_2 C 0.1613(3) 0.5066(6) 0.9727(3)
H2_2 H 0.1396 0.49 0.9795
C3_2 C 0.1631(3) 0.5669(5) 0.9575(3)
C4_2 C 0.1949(3) 0.5911(4) 0.9475(3)
C5_2 C 0.2249(2) 0.5550(6) 0.9527(3)
C6_2 C 0.2231(3) 0.4947(5) 0.9678(3)
H3_2 H 0.2437 0.47 0.9714
O9_2 O 0.1976(3) 0.6558(5) 0.9415(3)
C7_2 C 0.2082(4) 0.6924(9) 0.9705(4)
H4_2 H 0.2338 0.691 0.9737
H5_2 H 0.1977 0.6751 0.9917
C8_2 C 0.1956(5) 0.7639(6) 0.9639(4)
C9_2 C 0.2180(5) 0.8140(7) 0.9560(4)
H6_2 H 0.2422 0.8064 0.9545
C10_2 C 0.2050(4) 0.8732(6) 0.9505(4)
H7_2 H 0.2196 0.9075 0.9438
C11_2 C 0.1695(5) 0.8831(8) 0.9548(4)
H8_2 H 0.1602 0.9241 0.949
N1_2 N 0.1473(4) 0.8379(7) 0.9666(3)
C12_2 C 0.1614(4) 0.7759(7) 0.9709(4)
H9_2 H 0.1472 0.742 0.9786
C13_2 C 0.2599(4) 0.5760(9) 0.9407(5)
H10_2 H 0.2777 0.5682 0.9592
H11_2 H 0.2595 0.6225 0.9355
C14_2 C 0.2954(3) 0.4456(4) 0.8831(3)
H12_2 H 0.309 0.4078 0.8855
C15_2 C 0.2889(3) 0.4832(5) 0.9119(2)
H13_2 H 0.298 0.471 0.934
C16_2 C 0.2690(3) 0.5385(4) 0.9083(2)
C17_2 C 0.2556(3) 0.5564(4) 0.8760(3)
C18_2 C 0.2622(3) 0.5188(5) 0.8472(2)
C19_2 C 0.2821(3) 0.4634(4) 0.8508(2)
H14_2 H 0.2866 0.4378 0.8311
O10_2 O 0.2371(3) 0.6103(5) 0.8720(3)
C20_2 C 0.1904(5) 0.7889(8) 0.8704(5)
H15_2 H 0.1662 0.7923 0.874
C21_2 C 0.2057(4) 0.7301(7) 0.8694(4)
H16_2 H 0.1923 0.692 0.8711
C22_2 C 0.2397(4) 0.7275(7) 0.8660(4)
C23_2 C 0.2591(5) 0.7812(7) 0.8600(4)
H17_2 H 0.2831 0.7768 0.8555
C24_2 C 0.2102(5) 0.8441(8) 0.8661(4)
H18_2 H 0.1991 0.8847 0.8672
C25_2 C 0.2622(5) 0.6625(7) 0.8651(6)
H19_2 H 0.2726 0.6567 0.8422
H20_2 H 0.281 0.6634 0.8831
C26_2 C 0.2464(5) 0.5356(7) 0.8115(4)
H21_2 H 0.261 0.5162 0.7935
H22_2 H 0.2472 0.5827 0.8084
C27_2 C 0.1715(4) 0.4210(4) 0.7950(3)
H23_2 H 0.1689 0.3765 0.7903
C28_2 C 0.2046(3) 0.4474(6) 0.7986(3)
H24_2 H 0.2245 0.4209 0.7964
C29_2 C 0.2085(3) 0.5125(6) 0.8055(3)
C30_2 C 0.1794(4) 0.5512(4) 0.8087(3)
C31_2 C 0.1464(3) 0.5249(5) 0.8050(3)
C32_2 C 0.1425(3) 0.4598(6) 0.7982(3)
H25_2 H 0.1199 0.4418 0.7956
O11_2 O 0.1849(4) 0.6162(6) 0.8145(3)
C33_2 C 0.1768(5) 0.6544(8) 0.7836(5)
H26_2 H 0.1564 0.636 0.771
H27_2 H 0.1711 0.699 0.7903
C34_2 C 0.2080(7) 0.6545(10) 0.7602(5)
C35_2 C 0.2388(7) 0.6799(10) 0.7690(6)
H28_2 H 0.2401 0.7064 0.789
C36_2 C 0.2694(7) 0.6708(8) 0.7511(5)
H29_2 H 0.2916 0.6847 0.7594
C37_2 C 0.2635(9) 0.6367(11) 0.7174(7)
H30_2 H 0.2822 0.6325 0.7022
N3_2 N 0.2314(5) 0.6112(6) 0.7077(4)
C38_2 C 0.2039(5) 0.6179(8) 0.7279(6)
H31_2 H 0.1822 0.5993 0.7215
C39_2 C 0.1147(6) 0.5615(10) 0.8146(5)
H32_2 H 0.0954 0.5511 0.7982
H33_2 H 0.1194 0.6081 0.813
C40_2 C 0.0806(4) 0.4706(5) 0.8933(5)
H34_2 H 0.068 0.4326 0.8981
C41_2 C 0.0855(4) 0.4891(6) 0.8593(4)
H35_2 H 0.0763 0.4637 0.8408
C42_2 C 0.1040(3) 0.5447(7) 0.8522(3)
C43_2 C 0.1175(3) 0.5818(5) 0.8793(4)
C44_2 C 0.1126(3) 0.5634(6) 0.9133(3)
C45_2 C 0.0942(4) 0.5078(7) 0.9203(4)
H36_2 H 0.0908 0.4952 0.9436
O12_2 O 0.1307(3) 0.6423(5) 0.8740(3)
C46_2 C 0.1039(5) 0.6918(12) 0.8646(5)
H37_2 H 0.1153 0.731 0.856
H38_2 H 0.088 0.6752 0.8462
C47_2 C 0.0852(5) 0.7063(7) 0.8942(5)
C48_2 C 0.0564(6) 0.6722(9) 0.9043(6)
H39_2 H 0.0467 0.6395 0.8899
C49_2 C 0.0413(5) 0.6873(9) 0.9376(7)
H40_2 H 0.0234 0.6616 0.9468
C50_2 C 0.0540(5) 0.7399(9) 0.9550(5)
H41_2 H 0.0432 0.7509 0.9759
N4_2 N 0.0804(4) 0.7774(5) 0.9454(4)
C51_2 C 0.0935(4) 0.7607(9) 0.9151(5)
H42_2 H 0.1105 0.7888 0.9063
C52_2 C 0.1307(5) 0.5984(10) 0.9461(5)
H43_2 H 0.1356 0.6436 0.9401
H44_2 H 0.1144 0.5985 0.9654
O18_2 O 0.0923(3) 0.9143(6) 0.9260(4)
Zn2_2 Zn 0.09499(5) 0.86133(8) 0.97412(6)
N12_2 N 0.0445(4) 0.8852(6) 0.9812(4)
Zn4_2 Zn 0.22649(6) 0.57476(9) 0.65565(5)
H92_2 H 0.0975532 0.885098 0.90655
H93_2 H 0.0686102 0.932323 0.92246
C102_2 C 0.9822(5) 0.1227(8) 0.0438(5)
H82_2 H 0.975 0.1402 0.0651
N8_2 N 0.9555(4) 0.1148(6) 0.0188(4)
Zn5_2 Zn 0.90501(5) 0.13867(8) 0.02588(6)
C102_3 C 0.0178(5) 0.6227(8) 0.4562(5)
H82_3 H 0.025 0.6402 0.4349
N8_3 N 0.0445(4) 0.6148(6) 0.4812(4)
C103_2 C 0.0316(5) 0.5915(6) 0.5132(4)
H83_2 H 0.047 0.5868 0.5326
Zn5_3 Zn 0.09499(5) 0.63867(8) 0.47412(6)
C2_3 C 0.8387(3) 0.0066(6) 0.5273(3)
C3_3 C 0.8369(3) 0.0669(5) 0.5425(3)
C4_3 C 0.8051(3) 0.0911(4) 0.5525(3)
C5_3 C 0.7751(2) 0.0550(6) 0.5473(3)
O9_3 O 0.8024(3) 0.1558(5) 0.5585(3)
C7_3 C 0.7918(4) 0.1924(9) 0.5295(4)
H4_3 H 0.7662 0.191 0.5263
H5_3 H 0.8023 0.1751 0.5083
C8_3 C 0.8044(5) 0.2639(6) 0.5361(4)
C9_3 C 0.7820(5) 0.3140(7) 0.5440(4)
H6_3 H 0.7578 0.3064 0.5455
C10_3 C 0.7950(4) 0.3732(6) 0.5495(4)
H7_3 H 0.7804 0.4075 0.5562
C11_3 C 0.8305(5) 0.3831(8) 0.5452(4)
H8_3 H 0.8398 0.4241 0.551
N1_3 N 0.8527(4) 0.3379(7) 0.5334(3)
C12_3 C 0.8386(4) 0.2759(7) 0.5291(4)
H9_3 H 0.8528 0.242 0.5214
C13_3 C 0.7401(4) 0.0760(9) 0.5593(5)
H10_3 H 0.7223 0.0682 0.5408
H11_3 H 0.7405 0.1225 0.5645
C16_3 C 0.7310(3) 0.0385(4) 0.5917(2)
C17_3 C 0.7444(3) 0.0564(4) 0.6240(3)
C18_3 C 0.7378(3) 0.0188(5) 0.6528(2)
O10_3 O 0.7629(3) 0.1103(5) 0.6280(3)
C20_3 C 0.8096(5) 0.2889(8) 0.6296(5)
H15_3 H 0.8338 0.2923 0.626
C21_3 C 0.7943(4) 0.2301(7) 0.6306(4)
H16_3 H 0.8077 0.192 0.6289
C22_3 C 0.7603(4) 0.2275(7) 0.6340(4)
C23_3 C 0.7409(5) 0.2812(7) 0.6400(4)
H17_3 H 0.7169 0.2768 0.6445
N2_2 N 0.7556(4) 0.3419(5) 0.6395(3)
C24_3 C 0.7898(5) 0.3441(8) 0.6339(4)
H18_3 H 0.8009 0.3847 0.6328
C25_3 C 0.7378(5) 0.1625(7) 0.6349(6)
H19_3 H 0.7274 0.1567 0.6578
H20_3 H 0.719 0.1634 0.6169
C26_3 C 0.7536(5) 0.0356(7) 0.6885(4)
H21_3 H 0.739 0.0162 0.7065
H22_3 H 0.7528 0.0827 0.6916
C29_3 C 0.7915(3) 0.0125(6) 0.6945(3)
C30_3 C 0.8206(4) 0.0512(4) 0.6913(3)
C31_3 C 0.8536(3) 0.0249(5) 0.6950(3)
O11_3 O 0.8151(4) 0.1162(6) 0.6855(3)
C33_3 C 0.8232(5) 0.1544(8) 0.7164(5)
H26_3 H 0.8436 0.136 0.729
H27_3 H 0.8289 0.199 0.7097
C34_3 C 0.7920(7) 0.1545(10) 0.7398(5)
C35_3 C 0.7612(7) 0.1799(10) 0.7310(6)
H28_3 H 0.7599 0.2064 0.711
C36_3 C 0.7306(7) 0.1708(8) 0.7489(5)
H29_3 H 0.7084 0.1847 0.7406
C37_3 C 0.7365(9) 0.1367(11) 0.7826(7)
H30_3 H 0.7178 0.1325 0.7978
N3_3 N 0.7686(5) 0.1112(6) 0.7923(4)
C38_3 C 0.7961(5) 0.1179(8) 0.7721(6)
H31_3 H 0.8178 0.0993 0.7785
C39_3 C 0.8853(6) 0.0615(10) 0.6854(5)
H32_3 H 0.9046 0.0511 0.7018
H33_3 H 0.8806 0.1081 0.687
C42_3 C 0.8960(3) 0.0447(7) 0.6478(3)
C43_3 C 0.8825(3) 0.0818(5) 0.6207(4)
C44_3 C 0.8874(3) 0.0634(6) 0.5867(3)
C45_3 C 0.9058(4) 0.0078(7) 0.5797(4)
O12_3 O 0.8693(3) 0.1423(5) 0.6260(3)
C46_3 C 0.8961(5) 0.1918(12) 0.6354(5)
H37_3 H 0.8847 0.231 0.644
H38_3 H 0.912 0.1752 0.6538
C47_3 C 0.9148(5) 0.2063(7) 0.6058(5)
C48_3 C 0.9436(6) 0.1722(9) 0.5957(6)
H39_3 H 0.9533 0.1395 0.6101
C49_3 C 0.9587(5) 0.1873(9) 0.5624(7)
H40_3 H 0.9766 0.1616 0.5532
C50_3 C 0.9460(5) 0.2399(9) 0.5450(5)
H41_3 H 0.9568 0.2509 0.5241
N4_3 N 0.9196(4) 0.2774(5) 0.5546(4)
C51_3 C 0.9065(4) 0.2607(9) 0.5849(5)
H42_3 H 0.8895 0.2888 0.5937
C52_3 C 0.8693(5) 0.0984(10) 0.5539(5)
H43_3 H 0.8644 0.1436 0.5599
H44_3 H 0.8856 0.0985 0.5346
C53_2 C 0.8702(3) 0.8426(4) 0.5476(3)
H45_2 H 0.8695 0.8812 0.5607
C54_2 C 0.9016(3) 0.8201(5) 0.5357(3)
H46_2 H 0.9224 0.8433 0.5407
C55_2 C 0.9027(2) 0.7637(5) 0.5167(3)
C56_2 C 0.8723(3) 0.7297(4) 0.5095(3)
C57_2 C 0.8408(2) 0.7522(5) 0.5214(3)
C58_2 C 0.8398(3) 0.8086(5) 0.5405(3)
H47_2 H 0.8183 0.824 0.5486
O13_2 O 0.8738(2) 0.6741(4) 0.4890(3)
C59_2 C 0.8792(5) 0.6176(9) 0.5124(5)
H48_2 H 0.9012 0.6226 0.526
H49_2 H 0.86 0.6147 0.5288
C60_2 C 0.8805(4) 0.5616(8) 0.4924(6)
C61_2 C 0.8767(5) 0.5557(8) 0.4579(6)
H50_2 H 0.8726 0.5937 0.4449
C62_3 C 0.8784(4) 0.4991(8) 0.4403(4)
H51_3 H 0.876 0.4968 0.4158
C63_3 C 0.8842(5) 0.4436(9) 0.4615(6)
H52_3 H 0.8851 0.4027 0.4507
N5_3 N 0.8884(3) 0.4467(5) 0.4957(4)
C64_2 C 0.8860(4) 0.5042(7) 0.5100(5)
H53_2 H 0.8883 0.5065 0.5345
C65_2 C 0.8064(6) 0.7158(9) 0.5101(5)
H54_2 H 0.8108 0.6692 0.5085
H55_2 H 0.7884 0.7228 0.5275
C66_2 C 0.7694(3) 0.8271(4) 0.4386(4)
H56_2 H 0.7596 0.8688 0.4365
C67_2 C 0.7792(3) 0.8034(5) 0.4710(3)
H57_2 H 0.7761 0.8289 0.491
C68_2 C 0.7935(3) 0.7424(6) 0.4741(3)
C69_2 C 0.7981(3) 0.7051(4) 0.4448(3)
C70_2 C 0.7883(3) 0.7288(5) 0.4124(3)
C71_2 C 0.7740(3) 0.7898(6) 0.4093(3)
H58_2 H 0.7673 0.8061 0.3871
O14_2 O 0.8062(3) 0.6373(6) 0.4452(3)
C72_2 C 0.7753(6) 0.6007(9) 0.4545(5)
H59_2 H 0.7719 0.6024 0.4797
H60_2 H 0.7543 0.6182 0.4425
C73_2 C 0.7816(5) 0.5350(9) 0.4434(5)
C74_3 C 0.7930(4) 0.4841(9) 0.4669(5)
H61_3 H 0.7973 0.494 0.4906
C75_3 C 0.7975(4) 0.4224(9) 0.4557(5)
H62_3 H 0.8048 0.3904 0.4718
C76_3 C 0.7916(4) 0.4059(8) 0.4218(5)
H63_3 H 0.7944 0.3627 0.4146
N6_3 N 0.7815(3) 0.4524(6) 0.3980(4)
C77_2 C 0.7768(4) 0.5176(8) 0.4078(5)
H64_2 H 0.7705 0.5491 0.391
C78_2 C 0.7990(5) 0.6933(8) 0.3775(5)
H65_2 H 0.8067 0.649 0.3827
H66_2 H 0.7788 0.6912 0.3612
C79_2 C 0.8532(4) 0.8266(5) 0.3336(3)
H67_2 H 0.8498 0.8661 0.3217
C80_2 C 0.8247(3) 0.7906(6) 0.3434(3)
H68_2 H 0.8019 0.8055 0.3383
C81_2 C 0.8297(3) 0.7327(6) 0.3607(3)
C82_2 C 0.8632(4) 0.7109(4) 0.3682(3)
C83_2 C 0.8917(3) 0.7469(6) 0.3584(3)
C84_2 C 0.8866(3) 0.8047(5) 0.3410(3)
H69_2 H 0.9061 0.8293 0.3343
O15_2 O 0.8709(4) 0.6517(6) 0.3831(3)
C85_2 C 0.8800(5) 0.6010(9) 0.3575(5)
H70_2 H 0.8985 0.6174 0.3426
H71_2 H 0.8892 0.563 0.3701
C86_2 C 0.8522(5) 0.5830(8) 0.3373(6)
C87_2 C 0.8371(7) 0.6177(9) 0.3048(5)
H72_2 H 0.8482 0.6542 0.2954
C88_2 C 0.8067(6) 0.5930(11) 0.2902(6)
H73_2 H 0.7971 0.6149 0.2706
C89_2 C 0.7903(5) 0.5433(9) 0.3006(5)
H74_2 H 0.7689 0.532 0.2894
N7_2 N 0.8034(4) 0.5042(6) 0.3286(4)
C90_2 C 0.8317(6) 0.5238(9) 0.3441(5)
H75_3 H 0.8405 0.4971 0.3622
C91_2 C 0.9303(5) 0.7307(9) 0.3690(5)
H76_2 H 0.9329 0.6836 0.3709
H77_2 H 0.9456 0.7456 0.3505
C92_2 C 0.9560(3) 0.8624(4) 0.4317(3)
H78_2 H 0.9619 0.9065 0.4303
C93_2 C 0.9506(3) 0.8268(5) 0.4016(3)
H79_2 H 0.9529 0.8466 0.3797
C94_2 C 0.9419(3) 0.7622(5) 0.4037(3)
C95_2 C 0.9386(3) 0.7332(4) 0.4358(3)
C96_2 C 0.9440(3) 0.7688(5) 0.4658(3)
C97_2 C 0.9527(3) 0.8334(5) 0.4638(3)
H80_2 H 0.9564 0.8577 0.4843
O16_2 O 0.9316(3) 0.6682(5) 0.4396(3)
C98_2 C 0.9576(5) 0.6264(8) 0.4286(5)
C99_2 C 0.9969(5) 0.5759(8) 0.5163(5)
C100_2 C 0.9736(5) 0.5834(8) 0.4888(5)
H81_2 H 0.9502 0.5704 0.4913
C101_2 C 0.9834(4) 0.6096(6) 0.4574(4)
C104_2 C 0.9369(4) 0.7403(9) 0.5018(5)
H84_3 H 0.9364 0.6929 0.500
H85_2 H 0.9563 0.752 0.518
O17_3 O 0.7289(3) 0.4819(4) 0.3382(3)
O18_3 O 0.9077(3) 0.4143(6) 0.5740(4)
O19_3 O 0.9061(3) 0.3029(5) 0.4812(3)
Zn1_2 Zn 0.77351(6) 0.42524(9) 0.34435(5)
Zn2_3 Zn 0.90501(5) 0.36133(8) 0.52588(6)
N9_3 N 0.8236(5) 0.3731(7) 0.3512(5)
C105_3 C 0.8483(8) 0.3520(16) 0.3545(8)
C106_3 C 0.8837(7) 0.3225(11) 0.3624(8)
H86_3 H 0.9019 0.3516 0.3547
H87_3 H 0.8856 0.2814 0.3502
H88_3 H 0.8866 0.3152 0.3873
N10_2 N 0.7444(4) 0.3419(5) 0.3605(3)
N11_3 N 0.7686(5) 0.3888(6) 0.2923(4)
N12_3 N 0.9555(4) 0.3852(6) 0.5188(4)
Zn3_2 Zn 0.72649(6) 0.42524(9) 0.65565(5)
Zn4_3 Zn 0.77351(6) 0.07476(9) 0.84435(5)
H89_2 H 0.971437 0.649278 0.407756
H90_2 H 0.945445 0.582399 0.419091
H91_2 H 0.987832 0.557438 0.540785
H92_3 H 0.902447 0.385098 0.59345
H93_3 H 0.93139 0.432323 0.57754
H94_3 H 0.888623 0.318643 0.463857
H95_3 H 0.929564 0.304724 0.471263
H96_2 H 0.734872 0.527478 0.342911
H97_3 H 0.719502 0.477679 0.314146
C2_4 C 0.6613(3) 0.0066(6) 0.4727(3)
C3_4 C 0.6631(3) 0.0669(5) 0.4575(3)
C4_4 C 0.6949(3) 0.0911(4) 0.4475(3)
C5_4 C 0.7249(2) 0.0550(6) 0.4527(3)
O9_4 O 0.6976(3) 0.1558(5) 0.4415(3)
C7_4 C 0.7082(4) 0.1924(9) 0.4705(4)
H4_4 H 0.7338 0.191 0.4737
H5_4 H 0.6977 0.1751 0.4917
C8_4 C 0.6956(5) 0.2639(6) 0.4639(4)
C9_4 C 0.7180(5) 0.3140(7) 0.4560(4)
H6_4 H 0.7422 0.3064 0.4545
C10_4 C 0.7050(4) 0.3732(6) 0.4505(4)
H7_4 H 0.7196 0.4075 0.4438
C11_4 C 0.6695(5) 0.3831(8) 0.4548(4)
H8_4 H 0.6602 0.4241 0.449
N1_4 N 0.6473(4) 0.3379(7) 0.4666(3)
C12_4 C 0.6614(4) 0.2759(7) 0.4709(4)
H9_4 H 0.6472 0.242 0.4786
C13_4 C 0.7599(4) 0.0760(9) 0.4407(5)
H10_4 H 0.7777 0.0682 0.4592
H11_4 H 0.7595 0.1225 0.4355
C16_4 C 0.7690(3) 0.0385(4) 0.4083(2)
C17_4 C 0.7556(3) 0.0564(4) 0.3760(3)
C18_4 C 0.7622(3) 0.0188(5) 0.3472(2)
O10_4 O 0.7371(3) 0.1103(5) 0.3720(3)
C20_4 C 0.6904(5) 0.2889(8) 0.3704(5)
H15_4 H 0.6662 0.2923 0.374
C21_4 C 0.7057(4) 0.2301(7) 0.3694(4)
H16_4 H 0.6923 0.192 0.3711
C22_4 C 0.7397(4) 0.2275(7) 0.3660(4)
C23_4 C 0.7591(5) 0.2812(7) 0.3600(4)
H17_4 H 0.7831 0.2768 0.3555
C24_4 C 0.7102(5) 0.3441(8) 0.3661(4)
H18_4 H 0.6991 0.3847 0.3672
C25_4 C 0.7622(5) 0.1625(7) 0.3651(6)
H19_4 H 0.7726 0.1567 0.3422
H20_4 H 0.781 0.1634 0.3831
C26_4 C 0.7464(5) 0.0356(7) 0.3115(4)
H21_4 H 0.761 0.0162 0.2935
H22_4 H 0.7472 0.0827 0.3084
C29_4 C 0.7085(3) 0.0125(6) 0.3055(3)
C30_4 C 0.6794(4) 0.0512(4) 0.3087(3)
C31_4 C 0.6464(3) 0.0249(5) 0.3050(3)
O11_4 O 0.6849(4) 0.1162(6) 0.3145(3)
C33_4 C 0.6768(5) 0.1544(8) 0.2836(5)
H26_4 H 0.6564 0.136 0.271
H27_4 H 0.6711 0.199 0.2903
C34_4 C 0.7080(7) 0.1545(10) 0.2602(5)
C35_4 C 0.7388(7) 0.1799(10) 0.2690(6)
H28_4 H 0.7401 0.2064 0.289
C36_4 C 0.7694(7) 0.1708(8) 0.2511(5)
H29_4 H 0.7916 0.1847 0.2594
C37_4 C 0.7635(9) 0.1367(11) 0.2174(7)
H30_4 H 0.7822 0.1325 0.2022
N3_4 N 0.7314(5) 0.1112(6) 0.2077(4)
C38_4 C 0.7039(5) 0.1179(8) 0.2279(6)
H31_4 H 0.6822 0.0993 0.2215
C39_4 C 0.6147(6) 0.0615(10) 0.3146(5)
H32_4 H 0.5954 0.0511 0.2982
H33_4 H 0.6194 0.1081 0.313
C42_4 C 0.6040(3) 0.0447(7) 0.3522(3)
C43_4 C 0.6175(3) 0.0818(5) 0.3793(4)
C44_4 C 0.6126(3) 0.0634(6) 0.4133(3)
C45_4 C 0.5942(4) 0.0078(7) 0.4203(4)
O12_4 O 0.6307(3) 0.1423(5) 0.3740(3)
C46_4 C 0.6039(5) 0.1918(12) 0.3646(5)
H37_4 H 0.6153 0.231 0.356
H38_4 H 0.588 0.1752 0.3462
C47_4 C 0.5852(5) 0.2063(7) 0.3942(5)
C48_4 C 0.5564(6) 0.1722(9) 0.4043(6)
H39_4 H 0.5467 0.1395 0.3899
C49_4 C 0.5413(5) 0.1873(9) 0.4376(7)
H40_4 H 0.5234 0.1616 0.4468
C50_4 C 0.5540(5) 0.2399(9) 0.4550(5)
H41_4 H 0.5432 0.2509 0.4759
N4_4 N 0.5804(4) 0.2774(5) 0.4454(4)
C51_4 C 0.5935(4) 0.2607(9) 0.4151(5)
H42_4 H 0.6105 0.2888 0.4063
C52_4 C 0.6307(5) 0.0984(10) 0.4461(5)
H43_4 H 0.6356 0.1436 0.4401
H44_4 H 0.6144 0.0985 0.4654
C53_3 C 0.6298(3) 0.8426(4) 0.4524(3)
H45_3 H 0.6305 0.8812 0.4393
C54_3 C 0.5984(3) 0.8201(5) 0.4643(3)
H46_3 H 0.5776 0.8433 0.4593
C55_3 C 0.5973(2) 0.7637(5) 0.4833(3)
C56_3 C 0.6277(3) 0.7297(4) 0.4905(3)
C57_3 C 0.6592(2) 0.7522(5) 0.4786(3)
C58_3 C 0.6602(3) 0.8086(5) 0.4595(3)
H47_3 H 0.6817 0.824 0.4514
O13_3 O 0.6262(2) 0.6741(4) 0.5110(3)
C59_3 C 0.6208(5) 0.6176(9) 0.4876(5)
H48_3 H 0.5988 0.6226 0.474
H49_3 H 0.64 0.6147 0.4712
C60_3 C 0.6195(4) 0.5616(8) 0.5076(6)
C61_3 C 0.6233(5) 0.5557(8) 0.5421(6)
H50_3 H 0.6274 0.5937 0.5551
C62_4 C 0.6216(4) 0.4991(8) 0.5597(4)
H51_4 H 0.624 0.4968 0.5842
C63_4 C 0.6158(5) 0.4436(9) 0.5385(6)
H52_4 H 0.6149 0.4027 0.5493
N5_4 N 0.6116(3) 0.4467(5) 0.5043(4)
C64_3 C 0.6140(4) 0.5042(7) 0.4900(5)
H53_3 H 0.6117 0.5065 0.4655
C65_3 C 0.6936(6) 0.7158(9) 0.4899(5)
H54_3 H 0.6892 0.6692 0.4915
H55_3 H 0.7116 0.7228 0.4725
C66_3 C 0.7306(3) 0.8271(4) 0.5614(4)
H56_3 H 0.7404 0.8688 0.5635
C67_3 C 0.7208(3) 0.8034(5) 0.5290(3)
H57_3 H 0.7239 0.8289 0.509
C68_3 C 0.7065(3) 0.7424(6) 0.5259(3)
C69_3 C 0.7019(3) 0.7051(4) 0.5552(3)
C70_3 C 0.7117(3) 0.7288(5) 0.5876(3)
C71_3 C 0.7260(3) 0.7898(6) 0.5907(3)
H58_3 H 0.7327 0.8061 0.6129
O14_3 O 0.6938(3) 0.6373(6) 0.5548(3)
C72_3 C 0.7247(6) 0.6007(9) 0.5455(5)
H59_3 H 0.7281 0.6024 0.5203
H60_3 H 0.7457 0.6182 0.5575
C73_3 C 0.7184(5) 0.5350(9) 0.5566(5)
C74_4 C 0.7070(4) 0.4841(9) 0.5331(5)
H61_4 H 0.7027 0.494 0.5094
C75_4 C 0.7025(4) 0.4224(9) 0.5443(5)
H62_4 H 0.6952 0.3904 0.5282
C76_4 C 0.7084(4) 0.4059(8) 0.5782(5)
H63_4 H 0.7056 0.3627 0.5854
N6_4 N 0.7185(3) 0.4524(6) 0.6020(4)
C77_3 C 0.7232(4) 0.5176(8) 0.5922(5)
H64_3 H 0.7295 0.5491 0.609
C78_3 C 0.7010(5) 0.6933(8) 0.6225(5)
H65_3 H 0.6933 0.649 0.6173
H66_3 H 0.7212 0.6912 0.6388
C79_3 C 0.6468(4) 0.8266(5) 0.6664(3)
H67_3 H 0.6502 0.8661 0.6783
C80_3 C 0.6753(3) 0.7906(6) 0.6566(3)
H68_3 H 0.6981 0.8055 0.6617
C81_3 C 0.6703(3) 0.7327(6) 0.6393(3)
C82_3 C 0.6368(4) 0.7109(4) 0.6318(3)
C83_3 C 0.6083(3) 0.7469(6) 0.6416(3)
C84_3 C 0.6134(3) 0.8047(5) 0.6590(3)
H69_3 H 0.5939 0.8293 0.6657
O15_3 O 0.6291(4) 0.6517(6) 0.6169(3)
C85_3 C 0.6200(5) 0.6010(9) 0.6425(5)
H70_3 H 0.6015 0.6174 0.6574
H71_3 H 0.6108 0.563 0.6299
C86_3 C 0.6478(5) 0.5830(8) 0.6627(6)
C87_3 C 0.6629(7) 0.6177(9) 0.6952(5)
H72_3 H 0.6518 0.6542 0.7046
C88_3 C 0.6933(6) 0.5930(11) 0.7098(6)
H73_3 H 0.7029 0.6149 0.7294
C89_3 C 0.7097(5) 0.5433(9) 0.6994(5)
H74_3 H 0.7311 0.532 0.7106
N7_3 N 0.6966(4) 0.5042(6) 0.6714(4)
C90_3 C 0.6683(6) 0.5238(9) 0.6559(5)
H75_4 H 0.6595 0.4971 0.6378
C91_3 C 0.5697(5) 0.7307(9) 0.6310(5)
H76_3 H 0.5671 0.6836 0.6291
H77_3 H 0.5544 0.7456 0.6495
C92_3 C 0.5440(3) 0.8624(4) 0.5683(3)
H78_3 H 0.5381 0.9065 0.5697
C93_3 C 0.5494(3) 0.8268(5) 0.5984(3)
H79_3 H 0.5471 0.8466 0.6203
C94_3 C 0.5581(3) 0.7622(5) 0.5963(3)
C95_3 C 0.5614(3) 0.7332(4) 0.5642(3)
C96_3 C 0.5560(3) 0.7688(5) 0.5342(3)
C97_3 C 0.5473(3) 0.8334(5) 0.5362(3)
H80_3 H 0.5436 0.8577 0.5157
O16_3 O 0.5684(3) 0.6682(5) 0.5604(3)
C98_3 C 0.5424(5) 0.6264(8) 0.5714(5)
C99_3 C 0.5031(5) 0.5759(8) 0.4837(5)
C100_3 C 0.5264(5) 0.5834(8) 0.5112(5)
H81_3 H 0.5498 0.5704 0.5087
C101_3 C 0.5166(4) 0.6096(6) 0.5426(4)
C102_4 C 0.4822(5) 0.6227(8) 0.5438(5)
H82_4 H 0.475 0.6402 0.5651
N8_4 N 0.4555(4) 0.6148(6) 0.5188(4)
C103_3 C 0.4684(5) 0.5915(6) 0.4868(4)
H83_3 H 0.453 0.5868 0.4674
C104_3 C 0.5631(4) 0.7403(9) 0.4982(5)
H84_4 H 0.5636 0.6929 0.500
H85_3 H 0.5437 0.752 0.482
O17_4 O 0.7711(3) 0.4819(4) 0.6618(3)
O18_4 O 0.5923(3) 0.4143(6) 0.4260(4)
O19_4 O 0.5939(3) 0.3029(5) 0.5188(3)
Zn2_4 Zn 0.59499(5) 0.36133(8) 0.47412(6)
N9_4 N 0.6764(5) 0.3731(7) 0.6488(5)
C105_4 C 0.6517(8) 0.3520(16) 0.6455(8)
C106_4 C 0.6163(7) 0.3225(11) 0.6376(8)
H86_4 H 0.5981 0.3516 0.6453
H87_4 H 0.6144 0.2814 0.6498
H88_4 H 0.6134 0.3152 0.6127
N11_4 N 0.7314(5) 0.3888(6) 0.7077(4)
N12_4 N 0.5445(4) 0.3852(6) 0.4812(4)
Zn4_4 Zn 0.72649(6) 0.07476(9) 0.15565(5)
Zn5_4 Zn 0.40501(5) 0.63867(8) 0.52588(6)
H89_3 H 0.528563 0.649278 0.592244
H90_3 H 0.554555 0.582399 0.580909
H91_3 H 0.512168 0.557438 0.459215
H92_4 H 0.597553 0.385098 0.40655
H93_4 H 0.56861 0.432323 0.42246
H94_4 H 0.611377 0.318643 0.536143
H95_4 H 0.570436 0.304724 0.528737
H96_3 H 0.765128 0.527478 0.657089
H97_4 H 0.780498 0.477679 0.685854
C62_5 C 0.6216(4) 0.0009(8) 0.0597(4)
H51_5 H 0.624 0.0032 0.0842
C63_5 C 0.6158(5) 0.0564(9) 0.0385(6)
H52_5 H 0.6149 0.0973 0.0493
N5_5 N 0.6116(3) 0.0533(5) 0.0043(4)
C74_5 C 0.7070(4) 0.0159(9) 0.0331(5)
H61_5 H 0.7027 0.006 0.0094
C75_5 C 0.7025(4) 0.0776(9) 0.0443(5)
H62_5 H 0.6952 0.1096 0.0282
C76_5 C 0.7084(4) 0.0941(8) 0.0782(5)
H63_5 H 0.7056 0.1373 0.0854
N6_5 N 0.7185(3) 0.0476(6) 0.1020(4)
H75_5 H 0.6595 0.0029 0.1378
O17_5 O 0.7711(3) 0.0181(4) 0.1618(3)
O19_5 O 0.5939(3) 0.1971(5) 0.0188(3)
N9_5 N 0.6764(5) 0.1269(7) 0.1488(5)
C105_5 C 0.6517(8) 0.1480(16) 0.1455(8)
C106_5 C 0.6163(7) 0.1775(11) 0.1376(8)
H86_5 H 0.5981 0.1484 0.1453
H87_5 H 0.6144 0.2186 0.1498
H88_5 H 0.6134 0.1848 0.1127
N10_3 N 0.7556(4) 0.1581(5) 0.1395(3)
H94_5 H 0.611377 0.181357 0.0361429
H95_5 H 0.570436 0.195276 0.0287371
H97_5 H 0.780498 0.0223207 0.185854
C1_3 C 0.6913(4) 0.5295(4) 0.9778(3)
H1_3 H 0.6901 0.5707 0.9882
C2_5 C 0.6613(3) 0.4934(6) 0.9727(3)
H2_3 H 0.6396 0.51 0.9795
C3_5 C 0.6631(3) 0.4331(5) 0.9575(3)
C4_5 C 0.6949(3) 0.4089(4) 0.9475(3)
C5_5 C 0.7249(2) 0.4450(6) 0.9527(3)
C6_3 C 0.7231(3) 0.5053(5) 0.9678(3)
H3_3 H 0.7437 0.53 0.9714
O9_5 O 0.6976(3) 0.3442(5) 0.9415(3)
C7_5 C 0.7082(4) 0.3076(9) 0.9705(4)
H4_5 H 0.7338 0.309 0.9737
H5_5 H 0.6977 0.3249 0.9917
C8_5 C 0.6956(5) 0.2361(6) 0.9639(4)
C9_5 C 0.7180(5) 0.1860(7) 0.9560(4)
H6_5 H 0.7422 0.1936 0.9545
C10_5 C 0.7050(4) 0.1268(6) 0.9505(4)
H7_5 H 0.7196 0.0925 0.9438
C11_5 C 0.6695(5) 0.1169(8) 0.9548(4)
H8_5 H 0.6602 0.0759 0.949
N1_5 N 0.6473(4) 0.1621(7) 0.9666(3)
C12_5 C 0.6614(4) 0.2241(7) 0.9709(4)
H9_5 H 0.6472 0.258 0.9786
C13_5 C 0.7599(4) 0.4240(9) 0.9407(5)
H10_5 H 0.7777 0.4318 0.9592
H11_5 H 0.7595 0.3775 0.9355
C14_3 C 0.7954(3) 0.5544(4) 0.8831(3)
H12_3 H 0.809 0.5922 0.8855
C15_3 C 0.7889(3) 0.5168(5) 0.9119(2)
H13_3 H 0.798 0.529 0.934
C16_5 C 0.7690(3) 0.4615(4) 0.9083(2)
C17_5 C 0.7556(3) 0.4436(4) 0.8760(3)
C18_5 C 0.7622(3) 0.4812(5) 0.8472(2)
C19_3 C 0.7821(3) 0.5366(4) 0.8508(2)
H14_3 H 0.7866 0.5622 0.8311
O10_5 O 0.7371(3) 0.3897(5) 0.8720(3)
C20_5 C 0.6904(5) 0.2111(8) 0.8704(5)
H15_5 H 0.6662 0.2077 0.874
C21_5 C 0.7057(4) 0.2699(7) 0.8694(4)
H16_5 H 0.6923 0.308 0.8711
C22_5 C 0.7397(4) 0.2725(7) 0.8660(4)
C23_5 C 0.7591(5) 0.2188(7) 0.8600(4)
H17_5 H 0.7831 0.2232 0.8555
N2_3 N 0.7444(4) 0.1581(5) 0.8605(3)
C24_5 C 0.7102(5) 0.1559(8) 0.8661(4)
H18_5 H 0.6991 0.1153 0.8672
C25_5 C 0.7622(5) 0.3375(7) 0.8651(6)
H19_5 H 0.7726 0.3433 0.8422
H20_5 H 0.781 0.3366 0.8831
C26_5 C 0.7464(5) 0.4644(7) 0.8115(4)
H21_5 H 0.761 0.4838 0.7935
H22_5 H 0.7472 0.4173 0.8084
C27_3 C 0.6715(4) 0.5790(4) 0.7950(3)
H23_3 H 0.6689 0.6235 0.7903
C28_3 C 0.7046(3) 0.5526(6) 0.7986(3)
H24_3 H 0.7245 0.5791 0.7964
C29_5 C 0.7085(3) 0.4875(6) 0.8055(3)
C30_5 C 0.6794(4) 0.4488(4) 0.8087(3)
C31_5 C 0.6464(3) 0.4751(5) 0.8050(3)
C32_3 C 0.6425(3) 0.5402(6) 0.7982(3)
H25_3 H 0.6199 0.5582 0.7956
O11_5 O 0.6849(4) 0.3838(6) 0.8145(3)
C33_5 C 0.6768(5) 0.3456(8) 0.7836(5)
H26_5 H 0.6564 0.364 0.771
H27_5 H 0.6711 0.301 0.7903
C34_5 C 0.7080(7) 0.3455(10) 0.7602(5)
C35_5 C 0.7388(7) 0.3201(10) 0.7690(6)
H28_5 H 0.7401 0.2936 0.789
C36_5 C 0.7694(7) 0.3292(8) 0.7511(5)
H29_5 H 0.7916 0.3153 0.7594
C37_5 C 0.7635(9) 0.3633(11) 0.7174(7)
H30_5 H 0.7822 0.3675 0.7022
C38_5 C 0.7039(5) 0.3821(8) 0.7279(6)
H31_5 H 0.6822 0.4007 0.7215
C39_5 C 0.6147(6) 0.4385(10) 0.8146(5)
H32_5 H 0.5954 0.4489 0.7982
H33_5 H 0.6194 0.3919 0.813
C40_3 C 0.5806(4) 0.5294(5) 0.8933(5)
H34_3 H 0.568 0.5674 0.8981
C41_3 C 0.5855(4) 0.5109(6) 0.8593(4)
H35_3 H 0.5763 0.5363 0.8408
C42_5 C 0.6040(3) 0.4553(7) 0.8522(3)
C43_5 C 0.6175(3) 0.4182(5) 0.8793(4)
C44_5 C 0.6126(3) 0.4366(6) 0.9133(3)
C45_5 C 0.5942(4) 0.4922(7) 0.9203(4)
H36_3 H 0.5908 0.5048 0.9436
O12_5 O 0.6307(3) 0.3577(5) 0.8740(3)
C46_5 C 0.6039(5) 0.3082(12) 0.8646(5)
H37_5 H 0.6153 0.269 0.856
H38_5 H 0.588 0.3248 0.8462
C47_5 C 0.5852(5) 0.2937(7) 0.8942(5)
C48_5 C 0.5564(6) 0.3278(9) 0.9043(6)
H39_5 H 0.5467 0.3605 0.8899
C49_5 C 0.5413(5) 0.3127(9) 0.9376(7)
H40_5 H 0.5234 0.3384 0.9468
C50_5 C 0.5540(5) 0.2601(9) 0.9550(5)
H41_5 H 0.5432 0.2491 0.9759
N4_5 N 0.5804(4) 0.2226(5) 0.9454(4)
C51_5 C 0.5935(4) 0.2393(9) 0.9151(5)
H42_5 H 0.6105 0.2112 0.9063
C52_5 C 0.6307(5) 0.4016(10) 0.9461(5)
H43_5 H 0.6356 0.3564 0.9401
H44_5 H 0.6144 0.4015 0.9654
O18_5 O 0.5923(3) 0.0857(6) 0.9260(4)
H92_5 H 0.597553 0.114902 0.90655
H93_5 H 0.56861 0.0676765 0.92246
O13_4 O 0.6262(2) 0.8259(4) 0.0110(3)
C60_4 C 0.6195(4) 0.9384(8) 0.0076(6)
C61_4 C 0.6233(5) 0.9443(8) 0.0421(6)
H50_4 H 0.6274 0.9063 0.0551
C66_4 C 0.7306(3) 0.6729(4) 0.0614(4)
H56_4 H 0.7404 0.6312 0.0635
C67_4 C 0.7208(3) 0.6966(5) 0.0290(3)
H57_4 H 0.7239 0.6711 0.009
C68_4 C 0.7065(3) 0.7576(6) 0.0259(3)
C69_4 C 0.7019(3) 0.7949(4) 0.0552(3)
C70_4 C 0.7117(3) 0.7712(5) 0.0876(3)
C71_4 C 0.7260(3) 0.7102(6) 0.0907(3)
H58_4 H 0.7327 0.6939 0.1129
O14_4 O 0.6938(3) 0.8627(6) 0.0548(3)
C72_4 C 0.7247(6) 0.8993(9) 0.0455(5)
H59_4 H 0.7281 0.8976 0.0203
H60_4 H 0.7457 0.8818 0.0575
C73_4 C 0.7184(5) 0.9650(9) 0.0566(5)
C77_4 C 0.7232(4) 0.9824(8) 0.0922(5)
H64_4 H 0.7295 0.9509 0.109
C78_4 C 0.7010(5) 0.8067(8) 0.1225(5)
H65_4 H 0.6933 0.851 0.1173
H66_4 H 0.7212 0.8088 0.1388
C79_4 C 0.6468(4) 0.6734(5) 0.1664(3)
H67_4 H 0.6502 0.6339 0.1783
C80_4 C 0.6753(3) 0.7094(6) 0.1566(3)
H68_4 H 0.6981 0.6945 0.1617
C81_4 C 0.6703(3) 0.7673(6) 0.1393(3)
C82_4 C 0.6368(4) 0.7891(4) 0.1318(3)
C83_4 C 0.6083(3) 0.7531(6) 0.1416(3)
C84_4 C 0.6134(3) 0.6953(5) 0.1590(3)
H69_4 H 0.5939 0.6707 0.1657
O15_4 O 0.6291(4) 0.8483(6) 0.1169(3)
C85_4 C 0.6200(5) 0.8990(9) 0.1425(5)
H70_4 H 0.6015 0.8826 0.1574
H71_4 H 0.6108 0.937 0.1299
C86_4 C 0.6478(5) 0.9170(8) 0.1627(6)
C87_4 C 0.6629(7) 0.8823(9) 0.1952(5)
H72_4 H 0.6518 0.8458 0.2046
C88_4 C 0.6933(6) 0.9070(11) 0.2098(6)
H73_4 H 0.7029 0.8851 0.2294
C89_4 C 0.7097(5) 0.9567(9) 0.1994(5)
H74_4 H 0.7311 0.968 0.2106
N7_4 N 0.6966(4) 0.9958(6) 0.1714(4)
C90_4 C 0.6683(6) 0.9762(9) 0.1559(5)
C91_4 C 0.5697(5) 0.7693(9) 0.1310(5)
H76_4 H 0.5671 0.8164 0.1291
H77_4 H 0.5544 0.7544 0.1495
C92_4 C 0.5440(3) 0.6376(4) 0.0683(3)
H78_4 H 0.5381 0.5935 0.0697
C93_4 C 0.5494(3) 0.6732(5) 0.0984(3)
H79_4 H 0.5471 0.6534 0.1203
C94_4 C 0.5581(3) 0.7378(5) 0.0963(3)
C95_4 C 0.5614(3) 0.7668(4) 0.0642(3)
C96_4 C 0.5560(3) 0.7312(5) 0.0342(3)
C97_4 C 0.5473(3) 0.6666(5) 0.0362(3)
H80_4 H 0.5436 0.6423 0.0157
O16_4 O 0.5684(3) 0.8318(5) 0.0604(3)
C98_4 C 0.5424(5) 0.8736(8) 0.0714(5)
C100_4 C 0.5264(5) 0.9166(8) 0.0112(5)
H81_4 H 0.5498 0.9296 0.0087
C101_4 C 0.5166(4) 0.8904(6) 0.0426(4)
C102_5 C 0.4822(5) 0.8773(8) 0.0438(5)
H82_5 H 0.475 0.8598 0.0651
H84_5 H 0.5636 0.8071 0.000
H89_4 H 0.528563 0.850722 0.0922445
H90_4 H 0.554555 0.917601 0.0809088
H96_4 H 0.765128 0.972522 0.157089
C102_6 C 0.0178(5) 0.8773(8) 0.9562(5)
H82_6 H 0.025 0.8598 0.9349
C1_4 C 0.8087(4) 0.5295(4) 0.0222(3)
H1_4 H 0.8099 0.5707 0.0118
C2_6 C 0.8387(3) 0.4934(6) 0.0273(3)
H2_4 H 0.8604 0.51 0.0205
C3_6 C 0.8369(3) 0.4331(5) 0.0425(3)
C4_6 C 0.8051(3) 0.4089(4) 0.0525(3)
C5_6 C 0.7751(2) 0.4450(6) 0.0473(3)
C6_4 C 0.7769(3) 0.5053(5) 0.0322(3)
H3_4 H 0.7563 0.53 0.0286
O9_6 O 0.8024(3) 0.3442(5) 0.0585(3)
C7_6 C 0.7918(4) 0.3076(9) 0.0295(4)
H4_6 H 0.7662 0.309 0.0263
H5_6 H 0.8023 0.3249 0.0083
C8_6 C 0.8044(5) 0.2361(6) 0.0361(4)
C9_6 C 0.7820(5) 0.1860(7) 0.0440(4)
H6_6 H 0.7578 0.1936 0.0455
C10_6 C 0.7950(4) 0.1268(6) 0.0495(4)
H7_6 H 0.7804 0.0925 0.0562
C11_6 C 0.8305(5) 0.1169(8) 0.0452(4)
H8_6 H 0.8398 0.0759 0.051
N1_6 N 0.8527(4) 0.1621(7) 0.0334(3)
C12_6 C 0.8386(4) 0.2241(7) 0.0291(4)
H9_6 H 0.8528 0.258 0.0214
C13_6 C 0.7401(4) 0.4240(9) 0.0593(5)
H10_6 H 0.7223 0.4318 0.0408
H11_6 H 0.7405 0.3775 0.0645
C14_4 C 0.7046(3) 0.5544(4) 0.1169(3)
H12_4 H 0.691 0.5922 0.1145
C15_4 C 0.7111(3) 0.5168(5) 0.0881(2)
H13_4 H 0.702 0.529 0.066
C16_6 C 0.7310(3) 0.4615(4) 0.0917(2)
C17_6 C 0.7444(3) 0.4436(4) 0.1240(3)
C18_6 C 0.7378(3) 0.4812(5) 0.1528(2)
C19_4 C 0.7179(3) 0.5366(4) 0.1492(2)
H14_4 H 0.7134 0.5622 0.1689
O10_6 O 0.7629(3) 0.3897(5) 0.1280(3)
C20_6 C 0.8096(5) 0.2111(8) 0.1296(5)
H15_6 H 0.8338 0.2077 0.126
C21_6 C 0.7943(4) 0.2699(7) 0.1306(4)
H16_6 H 0.8077 0.308 0.1289
C22_6 C 0.7603(4) 0.2725(7) 0.1340(4)
C23_6 C 0.7409(5) 0.2188(7) 0.1400(4)
H17_6 H 0.7169 0.2232 0.1445
C24_6 C 0.7898(5) 0.1559(8) 0.1339(4)
H18_6 H 0.8009 0.1153 0.1328
C25_6 C 0.7378(5) 0.3375(7) 0.1349(6)
H19_6 H 0.7274 0.3433 0.1578
H20_6 H 0.719 0.3366 0.1169
C26_6 C 0.7536(5) 0.4644(7) 0.1885(4)
H21_6 H 0.739 0.4838 0.2065
H22_6 H 0.7528 0.4173 0.1916
C27_4 C 0.8285(4) 0.5790(4) 0.2050(3)
H23_4 H 0.8311 0.6235 0.2097
C28_4 C 0.7954(3) 0.5526(6) 0.2014(3)
H24_4 H 0.7755 0.5791 0.2036
C29_6 C 0.7915(3) 0.4875(6) 0.1945(3)
C30_6 C 0.8206(4) 0.4488(4) 0.1913(3)
C31_6 C 0.8536(3) 0.4751(5) 0.1950(3)
C32_4 C 0.8575(3) 0.5402(6) 0.2018(3)
H25_4 H 0.8801 0.5582 0.2044
O11_6 O 0.8151(4) 0.3838(6) 0.1855(3)
C33_6 C 0.8232(5) 0.3456(8) 0.2164(5)
H26_6 H 0.8436 0.364 0.229
H27_6 H 0.8289 0.301 0.2097
C34_6 C 0.7920(7) 0.3455(10) 0.2398(5)
C35_6 C 0.7612(7) 0.3201(10) 0.2310(6)
H28_6 H 0.7599 0.2936 0.211
C36_6 C 0.7306(7) 0.3292(8) 0.2489(5)
H29_6 H 0.7084 0.3153 0.2406
C37_6 C 0.7365(9) 0.3633(11) 0.2826(7)
H30_6 H 0.7178 0.3675 0.2978
C38_6 C 0.7961(5) 0.3821(8) 0.2721(6)
H31_6 H 0.8178 0.4007 0.2785
C39_6 C 0.8853(6) 0.4385(10) 0.1854(5)
H32_6 H 0.9046 0.4489 0.2018
H33_6 H 0.8806 0.3919 0.187
C40_4 C 0.9194(4) 0.5294(5) 0.1067(5)
H34_4 H 0.932 0.5674 0.1019
C41_4 C 0.9145(4) 0.5109(6) 0.1407(4)
H35_4 H 0.9237 0.5363 0.1592
C42_6 C 0.8960(3) 0.4553(7) 0.1478(3)
C43_6 C 0.8825(3) 0.4182(5) 0.1207(4)
C44_6 C 0.8874(3) 0.4366(6) 0.0867(3)
C45_6 C 0.9058(4) 0.4922(7) 0.0797(4)
H36_4 H 0.9092 0.5048 0.0564
O12_6 O 0.8693(3) 0.3577(5) 0.1260(3)
C46_6 C 0.8961(5) 0.3082(12) 0.1354(5)
H37_6 H 0.8847 0.269 0.144
H38_6 H 0.912 0.3248 0.1538
C47_6 C 0.9148(5) 0.2937(7) 0.1058(5)
C48_6 C 0.9436(6) 0.3278(9) 0.0957(6)
H39_6 H 0.9533 0.3605 0.1101
C49_6 C 0.9587(5) 0.3127(9) 0.0624(7)
H40_6 H 0.9766 0.3384 0.0532
C50_6 C 0.9460(5) 0.2601(9) 0.0450(5)
H41_6 H 0.9568 0.2491 0.0241
N4_6 N 0.9196(4) 0.2226(5) 0.0546(4)
C51_6 C 0.9065(4) 0.2393(9) 0.0849(5)
H42_6 H 0.8895 0.2112 0.0937
C52_6 C 0.8693(5) 0.4016(10) 0.0539(5)
H43_6 H 0.8644 0.3564 0.0599
H44_6 H 0.8856 0.4015 0.0346
O18_6 O 0.9077(3) 0.0857(6) 0.0740(4)
H92_6 H 0.902447 0.114902 0.0934496
H93_6 H 0.93139 0.0676765 0.0775404
C62_6 C 0.8784(4) 0.0009(8) 0.9403(4)
H51_6 H 0.876 0.0032 0.9158
C63_6 C 0.8842(5) 0.0564(9) 0.9615(6)
H52_6 H 0.8851 0.0973 0.9507
N5_6 N 0.8884(3) 0.0533(5) 0.9957(4)
C74_6 C 0.7930(4) 0.0159(9) 0.9669(5)
H61_6 H 0.7973 0.006 0.9906
C75_6 C 0.7975(4) 0.0776(9) 0.9557(5)
H62_6 H 0.8048 0.1096 0.9718
C76_6 C 0.7916(4) 0.0941(8) 0.9218(5)
H63_6 H 0.7944 0.1373 0.9146
N6_6 N 0.7815(3) 0.0476(6) 0.8980(4)
H75_6 H 0.8405 0.0029 0.8622
O17_6 O 0.7289(3) 0.0181(4) 0.8382(3)
O19_6 O 0.9061(3) 0.1971(5) 0.9812(3)
N9_6 N 0.8236(5) 0.1269(7) 0.8512(5)
C105_6 C 0.8483(8) 0.1480(16) 0.8545(8)
C106_6 C 0.8837(7) 0.1775(11) 0.8624(8)
H86_6 H 0.9019 0.1484 0.8547
H87_6 H 0.8856 0.2186 0.8502
H88_6 H 0.8866 0.1848 0.8873
H94_6 H 0.888623 0.181357 0.963857
H95_6 H 0.929564 0.195276 0.971263
H97_6 H 0.719502 0.0223207 0.814146
C2_7 C 0.1613(3) 0.9934(6) 0.4727(3)
C3_7 C 0.1631(3) 0.9331(5) 0.4575(3)
C4_7 C 0.1949(3) 0.9089(4) 0.4475(3)
C5_7 C 0.2249(2) 0.9450(6) 0.4527(3)
O9_7 O 0.1976(3) 0.8442(5) 0.4415(3)
C7_7 C 0.2082(4) 0.8076(9) 0.4705(4)
H4_7 H 0.2338 0.809 0.4737
H5_7 H 0.1977 0.8249 0.4917
C8_7 C 0.1956(5) 0.7361(6) 0.4639(4)
C9_7 C 0.2180(5) 0.6860(7) 0.4560(4)
H6_7 H 0.2422 0.6936 0.4545
C10_7 C 0.2050(4) 0.6268(6) 0.4505(4)
H7_7 H 0.2196 0.5925 0.4438
C11_7 C 0.1695(5) 0.6169(8) 0.4548(4)
H8_7 H 0.1602 0.5759 0.449
N1_7 N 0.1473(4) 0.6621(7) 0.4666(3)
C12_7 C 0.1614(4) 0.7241(7) 0.4709(4)
H9_7 H 0.1472 0.758 0.4786
C13_7 C 0.2599(4) 0.9240(9) 0.4407(5)
H10_7 H 0.2777 0.9318 0.4592
H11_7 H 0.2595 0.8775 0.4355
C16_7 C 0.2690(3) 0.9615(4) 0.4083(2)
C17_7 C 0.2556(3) 0.9436(4) 0.3760(3)
C18_7 C 0.2622(3) 0.9812(5) 0.3472(2)
O10_7 O 0.2371(3) 0.8897(5) 0.3720(3)
C20_7 C 0.1904(5) 0.7111(8) 0.3704(5)
H15_7 H 0.1662 0.7077 0.374
C21_7 C 0.2057(4) 0.7699(7) 0.3694(4)
H16_7 H 0.1923 0.808 0.3711
C22_7 C 0.2397(4) 0.7725(7) 0.3660(4)
C23_7 C 0.2591(5) 0.7188(7) 0.3600(4)
H17_7 H 0.2831 0.7232 0.3555
N2_4 N 0.2444(4) 0.6581(5) 0.3605(3)
C24_7 C 0.2102(5) 0.6559(8) 0.3661(4)
H18_7 H 0.1991 0.6153 0.3672
C25_7 C 0.2622(5) 0.8375(7) 0.3651(6)
H19_7 H 0.2726 0.8433 0.3422
H20_7 H 0.281 0.8366 0.3831
C26_7 C 0.2464(5) 0.9644(7) 0.3115(4)
H21_7 H 0.261 0.9838 0.2935
H22_7 H 0.2472 0.9173 0.3084
C29_7 C 0.2085(3) 0.9875(6) 0.3055(3)
C30_7 C 0.1794(4) 0.9488(4) 0.3087(3)
C31_7 C 0.1464(3) 0.9751(5) 0.3050(3)
O11_7 O 0.1849(4) 0.8838(6) 0.3145(3)
C33_7 C 0.1768(5) 0.8456(8) 0.2836(5)
H26_7 H 0.1564 0.864 0.271
H27_7 H 0.1711 0.801 0.2903
C34_7 C 0.2080(7) 0.8455(10) 0.2602(5)
C35_7 C 0.2388(7) 0.8201(10) 0.2690(6)
H28_7 H 0.2401 0.7936 0.289
C36_7 C 0.2694(7) 0.8292(8) 0.2511(5)
H29_7 H 0.2916 0.8153 0.2594
C37_7 C 0.2635(9) 0.8633(11) 0.2174(7)
H30_7 H 0.2822 0.8675 0.2022
C38_7 C 0.2039(5) 0.8821(8) 0.2279(6)
H31_7 H 0.1822 0.9007 0.2215
C39_7 C 0.1147(6) 0.9385(10) 0.3146(5)
H32_7 H 0.0954 0.9489 0.2982
H33_7 H 0.1194 0.8919 0.313
C42_7 C 0.1040(3) 0.9553(7) 0.3522(3)
C43_7 C 0.1175(3) 0.9182(5) 0.3793(4)
C44_7 C 0.1126(3) 0.9366(6) 0.4133(3)
C45_7 C 0.0942(4) 0.9922(7) 0.4203(4)
O12_7 O 0.1307(3) 0.8577(5) 0.3740(3)
C46_7 C 0.1039(5) 0.8082(12) 0.3646(5)
H37_7 H 0.1153 0.769 0.356
H38_7 H 0.088 0.8248 0.3462
C47_7 C 0.0852(5) 0.7937(7) 0.3942(5)
C48_7 C 0.0564(6) 0.8278(9) 0.4043(6)
H39_7 H 0.0467 0.8605 0.3899
C49_7 C 0.0413(5) 0.8127(9) 0.4376(7)
H40_7 H 0.0234 0.8384 0.4468
C50_7 C 0.0540(5) 0.7601(9) 0.4550(5)
H41_7 H 0.0432 0.7491 0.4759
N4_7 N 0.0804(4) 0.7226(5) 0.4454(4)
C51_7 C 0.0935(4) 0.7393(9) 0.4151(5)
H42_7 H 0.1105 0.7112 0.4063
C52_7 C 0.1307(5) 0.9016(10) 0.4461(5)
H43_7 H 0.1356 0.8564 0.4401
H44_7 H 0.1144 0.9015 0.4654
C53_4 C 0.1298(3) 0.1574(4) 0.4524(3)
H45_4 H 0.1305 0.1188 0.4393
C54_4 C 0.0984(3) 0.1799(5) 0.4643(3)
H46_4 H 0.0776 0.1567 0.4593
C55_4 C 0.0973(2) 0.2363(5) 0.4833(3)
C56_4 C 0.1277(3) 0.2703(4) 0.4905(3)
C57_4 C 0.1592(2) 0.2478(5) 0.4786(3)
C58_4 C 0.1602(3) 0.1914(5) 0.4595(3)
H47_4 H 0.1817 0.176 0.4514
O13_5 O 0.1262(2) 0.3259(4) 0.5110(3)
C59_4 C 0.1208(5) 0.3824(9) 0.4876(5)
H48_4 H 0.0988 0.3774 0.474
H49_4 H 0.14 0.3853 0.4712
C60_5 C 0.1195(4) 0.4384(8) 0.5076(6)
C61_5 C 0.1233(5) 0.4443(8) 0.5421(6)
H50_5 H 0.1274 0.4063 0.5551
C62_7 C 0.1216(4) 0.5009(8) 0.5597(4)
H51_7 H 0.124 0.5032 0.5842
C63_7 C 0.1158(5) 0.5564(9) 0.5385(6)
H52_7 H 0.1149 0.5973 0.5493
N5_7 N 0.1116(3) 0.5533(5) 0.5043(4)
C64_4 C 0.1140(4) 0.4958(7) 0.4900(5)
H53_4 H 0.1117 0.4935 0.4655
C65_4 C 0.1936(6) 0.2842(9) 0.4899(5)
H54_4 H 0.1892 0.3308 0.4915
H55_4 H 0.2116 0.2772 0.4725
C66_5 C 0.2306(3) 0.1729(4) 0.5614(4)
H56_5 H 0.2404 0.1312 0.5635
C67_5 C 0.2208(3) 0.1966(5) 0.5290(3)
H57_5 H 0.2239 0.1711 0.509
C68_5 C 0.2065(3) 0.2576(6) 0.5259(3)
C69_5 C 0.2019(3) 0.2949(4) 0.5552(3)
C70_5 C 0.2117(3) 0.2712(5) 0.5876(3)
C71_5 C 0.2260(3) 0.2102(6) 0.5907(3)
H58_5 H 0.2327 0.1939 0.6129
O14_5 O 0.1938(3) 0.3627(6) 0.5548(3)
C72_5 C 0.2247(6) 0.3993(9) 0.5455(5)
H59_5 H 0.2281 0.3976 0.5203
H60_5 H 0.2457 0.3818 0.5575
C73_5 C 0.2184(5) 0.4650(9) 0.5566(5)
C74_7 C 0.2070(4) 0.5159(9) 0.5331(5)
H61_7 H 0.2027 0.506 0.5094
C75_7 C 0.2025(4) 0.5776(9) 0.5443(5)
H62_7 H 0.1952 0.6096 0.5282
C76_7 C 0.2084(4) 0.5941(8) 0.5782(5)
H63_7 H 0.2056 0.6373 0.5854
N6_7 N 0.2185(3) 0.5476(6) 0.6020(4)
C77_5 C 0.2232(4) 0.4824(8) 0.5922(5)
H64_5 H 0.2295 0.4509 0.609
C78_5 C 0.2010(5) 0.3067(8) 0.6225(5)
H65_5 H 0.1933 0.351 0.6173
H66_5 H 0.2212 0.3088 0.6388
C79_5 C 0.1468(4) 0.1734(5) 0.6664(3)
H67_5 H 0.1502 0.1339 0.6783
C80_5 C 0.1753(3) 0.2094(6) 0.6566(3)
H68_5 H 0.1981 0.1945 0.6617
C81_5 C 0.1703(3) 0.2673(6) 0.6393(3)
C82_5 C 0.1368(4) 0.2891(4) 0.6318(3)
C83_5 C 0.1083(3) 0.2531(6) 0.6416(3)
C84_5 C 0.1134(3) 0.1953(5) 0.6590(3)
H69_5 H 0.0939 0.1707 0.6657
O15_5 O 0.1291(4) 0.3483(6) 0.6169(3)
C85_5 C 0.1200(5) 0.3990(9) 0.6425(5)
H70_5 H 0.1015 0.3826 0.6574
H71_5 H 0.1108 0.437 0.6299
C86_5 C 0.1478(5) 0.4170(8) 0.6627(6)
C87_5 C 0.1629(7) 0.3823(9) 0.6952(5)
H72_5 H 0.1518 0.3458 0.7046
C88_5 C 0.1933(6) 0.4070(11) 0.7098(6)
H73_5 H 0.2029 0.3851 0.7294
C89_5 C 0.2097(5) 0.4567(9) 0.6994(5)
H74_5 H 0.2311 0.468 0.7106
N7_5 N 0.1966(4) 0.4958(6) 0.6714(4)
C90_5 C 0.1683(6) 0.4762(9) 0.6559(5)
H75_7 H 0.1595 0.5029 0.6378
C91_5 C 0.0697(5) 0.2693(9) 0.6310(5)
H76_5 H 0.0671 0.3164 0.6291
H77_5 H 0.0544 0.2544 0.6495
C92_5 C 0.0440(3) 0.1376(4) 0.5683(3)
H78_5 H 0.0381 0.0935 0.5697
C93_5 C 0.0494(3) 0.1732(5) 0.5984(3)
H79_5 H 0.0471 0.1534 0.6203
C94_5 C 0.0581(3) 0.2378(5) 0.5963(3)
C95_5 C 0.0614(3) 0.2668(4) 0.5642(3)
C96_5 C 0.0560(3) 0.2312(5) 0.5342(3)
C97_5 C 0.0473(3) 0.1666(5) 0.5362(3)
H80_5 H 0.0436 0.1423 0.5157
O16_5 O 0.0684(3) 0.3318(5) 0.5604(3)
C98_5 C 0.0424(5) 0.3736(8) 0.5714(5)
C99_4 C 0.0031(5) 0.4241(8) 0.4837(5)
C100_5 C 0.0264(5) 0.4166(8) 0.5112(5)
H81_5 H 0.0498 0.4296 0.5087
C101_5 C 0.0166(4) 0.3904(6) 0.5426(4)
C104_4 C 0.0631(4) 0.2597(9) 0.4982(5)
H84_6 H 0.0636 0.3071 0.500
H85_4 H 0.0437 0.248 0.482
O17_7 O 0.2711(3) 0.5181(4) 0.6618(3)
O18_7 O 0.0923(3) 0.5857(6) 0.4260(4)
O19_7 O 0.0939(3) 0.6971(5) 0.5188(3)
N9_7 N 0.1764(5) 0.6269(7) 0.6488(5)
C105_7 C 0.1517(8) 0.6480(16) 0.6455(8)
C106_7 C 0.1163(7) 0.6775(11) 0.6376(8)
H86_7 H 0.0981 0.6484 0.6453
H87_7 H 0.1144 0.7186 0.6498
H88_7 H 0.1134 0.6848 0.6127
N10_4 N 0.2556(4) 0.6581(5) 0.6395(3)
H89_5 H 0.0285628 0.350722 0.592244
H90_5 H 0.0545552 0.417601 0.580909
H91_4 H 0.0121681 0.442562 0.459215
H92_7 H 0.0975532 0.614902 0.40655
H93_7 H 0.0686102 0.567677 0.42246
H94_7 H 0.111377 0.681357 0.536143
H95_7 H 0.0704358 0.695276 0.528737
H96_5 H 0.265128 0.472522 0.657089
H97_7 H 0.280498 0.522321 0.685854
C102_7 C 0.9822(5) 0.3773(8) 0.5438(5)
H82_7 H 0.975 0.3598 0.5651
C103_4 C 0.9684(5) 0.4085(6) 0.4868(4)
H83_4 H 0.953 0.4132 0.4674
C2_8 C 0.3387(3) 0.9934(6) 0.5273(3)
C3_8 C 0.3369(3) 0.9331(5) 0.5425(3)
C4_8 C 0.3051(3) 0.9089(4) 0.5525(3)
C5_8 C 0.2751(2) 0.9450(6) 0.5473(3)
O9_8 O 0.3024(3) 0.8442(5) 0.5585(3)
C7_8 C 0.2918(4) 0.8076(9) 0.5295(4)
H4_8 H 0.2662 0.809 0.5263
H5_8 H 0.3023 0.8249 0.5083
C8_8 C 0.3044(5) 0.7361(6) 0.5361(4)
C9_8 C 0.2820(5) 0.6860(7) 0.5440(4)
H6_8 H 0.2578 0.6936 0.5455
C10_8 C 0.2950(4) 0.6268(6) 0.5495(4)
H7_8 H 0.2804 0.5925 0.5562
C11_8 C 0.3305(5) 0.6169(8) 0.5452(4)
H8_8 H 0.3398 0.5759 0.551
N1_8 N 0.3527(4) 0.6621(7) 0.5334(3)
C12_8 C 0.3386(4) 0.7241(7) 0.5291(4)
H9_8 H 0.3528 0.758 0.5214
C13_8 C 0.2401(4) 0.9240(9) 0.5593(5)
H10_8 H 0.2223 0.9318 0.5408
H11_8 H 0.2405 0.8775 0.5645
C16_8 C 0.2310(3) 0.9615(4) 0.5917(2)
C17_8 C 0.2444(3) 0.9436(4) 0.6240(3)
C18_8 C 0.2378(3) 0.9812(5) 0.6528(2)
O10_8 O 0.2629(3) 0.8897(5) 0.6280(3)
C20_8 C 0.3096(5) 0.7111(8) 0.6296(5)
H15_8 H 0.3338 0.7077 0.626
C21_8 C 0.2943(4) 0.7699(7) 0.6306(4)
H16_8 H 0.3077 0.808 0.6289
C22_8 C 0.2603(4) 0.7725(7) 0.6340(4)
C23_8 C 0.2409(5) 0.7188(7) 0.6400(4)
H17_8 H 0.2169 0.7232 0.6445
C24_8 C 0.2898(5) 0.6559(8) 0.6339(4)
H18_8 H 0.3009 0.6153 0.6328
C25_8 C 0.2378(5) 0.8375(7) 0.6349(6)
H19_8 H 0.2274 0.8433 0.6578
H20_8 H 0.219 0.8366 0.6169
C26_8 C 0.2536(5) 0.9644(7) 0.6885(4)
H21_8 H 0.239 0.9838 0.7065
H22_8 H 0.2528 0.9173 0.6916
C29_8 C 0.2915(3) 0.9875(6) 0.6945(3)
C30_8 C 0.3206(4) 0.9488(4) 0.6913(3)
C31_8 C 0.3536(3) 0.9751(5) 0.6950(3)
O11_8 O 0.3151(4) 0.8838(6) 0.6855(3)
C33_8 C 0.3232(5) 0.8456(8) 0.7164(5)
H26_8 H 0.3436 0.864 0.729
H27_8 H 0.3289 0.801 0.7097
C34_8 C 0.2920(7) 0.8455(10) 0.7398(5)
C35_8 C 0.2612(7) 0.8201(10) 0.7310(6)
H28_8 H 0.2599 0.7936 0.711
C36_8 C 0.2306(7) 0.8292(8) 0.7489(5)
H29_8 H 0.2084 0.8153 0.7406
C37_8 C 0.2365(9) 0.8633(11) 0.7826(7)
H30_8 H 0.2178 0.8675 0.7978
C38_8 C 0.2961(5) 0.8821(8) 0.7721(6)
H31_8 H 0.3178 0.9007 0.7785
C39_8 C 0.3853(6) 0.9385(10) 0.6854(5)
H32_8 H 0.4046 0.9489 0.7018
H33_8 H 0.3806 0.8919 0.687
C42_8 C 0.3960(3) 0.9553(7) 0.6478(3)
C43_8 C 0.3825(3) 0.9182(5) 0.6207(4)
C44_8 C 0.3874(3) 0.9366(6) 0.5867(3)
C45_8 C 0.4058(4) 0.9922(7) 0.5797(4)
O12_8 O 0.3693(3) 0.8577(5) 0.6260(3)
C46_8 C 0.3961(5) 0.8082(12) 0.6354(5)
H37_8 H 0.3847 0.769 0.644
H38_8 H 0.412 0.8248 0.6538
C47_8 C 0.4148(5) 0.7937(7) 0.6058(5)
C48_8 C 0.4436(6) 0.8278(9) 0.5957(6)
H39_8 H 0.4533 0.8605 0.6101
C49_8 C 0.4587(5) 0.8127(9) 0.5624(7)
H40_8 H 0.4766 0.8384 0.5532
C50_8 C 0.4460(5) 0.7601(9) 0.5450(5)
H41_8 H 0.4568 0.7491 0.5241
N4_8 N 0.4196(4) 0.7226(5) 0.5546(4)
C51_8 C 0.4065(4) 0.7393(9) 0.5849(5)
H42_8 H 0.3895 0.7112 0.5937
C52_8 C 0.3693(5) 0.9016(10) 0.5539(5)
H43_8 H 0.3644 0.8564 0.5599
H44_8 H 0.3856 0.9015 0.5346
C53_5 C 0.3702(3) 0.1574(4) 0.5476(3)
H45_5 H 0.3695 0.1188 0.5607
C54_5 C 0.4016(3) 0.1799(5) 0.5357(3)
H46_5 H 0.4224 0.1567 0.5407
C55_5 C 0.4027(2) 0.2363(5) 0.5167(3)
C56_5 C 0.3723(3) 0.2703(4) 0.5095(3)
C57_5 C 0.3408(2) 0.2478(5) 0.5214(3)
C58_5 C 0.3398(3) 0.1914(5) 0.5405(3)
H47_5 H 0.3183 0.176 0.5486
O13_6 O 0.3738(2) 0.3259(4) 0.4890(3)
C59_5 C 0.3792(5) 0.3824(9) 0.5124(5)
H48_5 H 0.4012 0.3774 0.526
H49_5 H 0.36 0.3853 0.5288
C60_6 C 0.3805(4) 0.4384(8) 0.4924(6)
C61_6 C 0.3767(5) 0.4443(8) 0.4579(6)
H50_6 H 0.3726 0.4063 0.4449
C62_8 C 0.3784(4) 0.5009(8) 0.4403(4)
H51_8 H 0.376 0.5032 0.4158
C63_8 C 0.3842(5) 0.5564(9) 0.4615(6)
H52_8 H 0.3851 0.5973 0.4507
N5_8 N 0.3884(3) 0.5533(5) 0.4957(4)
C64_5 C 0.3860(4) 0.4958(7) 0.5100(5)
H53_5 H 0.3883 0.4935 0.5345
C65_5 C 0.3064(6) 0.2842(9) 0.5101(5)
H54_5 H 0.3108 0.3308 0.5085
H55_5 H 0.2884 0.2772 0.5275
C66_6 C 0.2694(3) 0.1729(4) 0.4386(4)
H56_6 H 0.2596 0.1312 0.4365
C67_6 C 0.2792(3) 0.1966(5) 0.4710(3)
H57_6 H 0.2761 0.1711 0.491
C68_6 C 0.2935(3) 0.2576(6) 0.4741(3)
C69_6 C 0.2981(3) 0.2949(4) 0.4448(3)
C70_6 C 0.2883(3) 0.2712(5) 0.4124(3)
C71_6 C 0.2740(3) 0.2102(6) 0.4093(3)
H58_6 H 0.2673 0.1939 0.3871
O14_6 O 0.3062(3) 0.3627(6) 0.4452(3)
C72_6 C 0.2753(6) 0.3993(9) 0.4545(5)
H59_6 H 0.2719 0.3976 0.4797
H60_6 H 0.2543 0.3818 0.4425
C73_6 C 0.2816(5) 0.4650(9) 0.4434(5)
C74_8 C 0.2930(4) 0.5159(9) 0.4669(5)
H61_8 H 0.2973 0.506 0.4906
C75_8 C 0.2975(4) 0.5776(9) 0.4557(5)
H62_8 H 0.3048 0.6096 0.4718
C76_8 C 0.2916(4) 0.5941(8) 0.4218(5)
H63_8 H 0.2944 0.6373 0.4146
N6_8 N 0.2815(3) 0.5476(6) 0.3980(4)
C77_6 C 0.2768(4) 0.4824(8) 0.4078(5)
H64_6 H 0.2705 0.4509 0.391
C78_6 C 0.2990(5) 0.3067(8) 0.3775(5)
H65_6 H 0.3067 0.351 0.3827
H66_6 H 0.2788 0.3088 0.3612
C79_6 C 0.3532(4) 0.1734(5) 0.3336(3)
H67_6 H 0.3498 0.1339 0.3217
C80_6 C 0.3247(3) 0.2094(6) 0.3434(3)
H68_6 H 0.3019 0.1945 0.3383
C81_6 C 0.3297(3) 0.2673(6) 0.3607(3)
C82_6 C 0.3632(4) 0.2891(4) 0.3682(3)
C83_6 C 0.3917(3) 0.2531(6) 0.3584(3)
C84_6 C 0.3866(3) 0.1953(5) 0.3410(3)
H69_6 H 0.4061 0.1707 0.3343
O15_6 O 0.3709(4) 0.3483(6) 0.3831(3)
C85_6 C 0.3800(5) 0.3990(9) 0.3575(5)
H70_6 H 0.3985 0.3826 0.3426
H71_6 H 0.3892 0.437 0.3701
C86_6 C 0.3522(5) 0.4170(8) 0.3373(6)
C87_6 C 0.3371(7) 0.3823(9) 0.3048(5)
H72_6 H 0.3482 0.3458 0.2954
C88_6 C 0.3067(6) 0.4070(11) 0.2902(6)
H73_6 H 0.2971 0.3851 0.2706
C89_6 C 0.2903(5) 0.4567(9) 0.3006(5)
H74_6 H 0.2689 0.468 0.2894
N7_6 N 0.3034(4) 0.4958(6) 0.3286(4)
C90_6 C 0.3317(6) 0.4762(9) 0.3441(5)
H75_8 H 0.3405 0.5029 0.3622
C91_6 C 0.4303(5) 0.2693(9) 0.3690(5)
H76_6 H 0.4329 0.3164 0.3709
H77_6 H 0.4456 0.2544 0.3505
C92_6 C 0.4560(3) 0.1376(4) 0.4317(3)
H78_6 H 0.4619 0.0935 0.4303
C93_6 C 0.4506(3) 0.1732(5) 0.4016(3)
H79_6 H 0.4529 0.1534 0.3797
C94_6 C 0.4419(3) 0.2378(5) 0.4037(3)
C95_6 C 0.4386(3) 0.2668(4) 0.4358(3)
C96_6 C 0.4440(3) 0.2312(5) 0.4658(3)
C97_6 C 0.4527(3) 0.1666(5) 0.4638(3)
H80_6 H 0.4564 0.1423 0.4843
O16_6 O 0.4316(3) 0.3318(5) 0.4396(3)
C98_6 C 0.4576(5) 0.3736(8) 0.4286(5)
C99_5 C 0.4969(5) 0.4241(8) 0.5163(5)
C100_6 C 0.4736(5) 0.4166(8) 0.4888(5)
H81_6 H 0.4502 0.4296 0.4913
C101_6 C 0.4834(4) 0.3904(6) 0.4574(4)
C102_8 C 0.5178(5) 0.3773(8) 0.4562(5)
H82_8 H 0.525 0.3598 0.4349
C103_5 C 0.5316(5) 0.4085(6) 0.5132(4)
H83_5 H 0.547 0.4132 0.5326
C104_5 C 0.4369(4) 0.2597(9) 0.5018(5)
H84_7 H 0.4364 0.3071 0.500
H85_5 H 0.4563 0.248 0.518
O17_8 O 0.2289(3) 0.5181(4) 0.3382(3)
O18_8 O 0.4077(3) 0.5857(6) 0.5740(4)
O19_8 O 0.4061(3) 0.6971(5) 0.4812(3)
N9_8 N 0.3236(5) 0.6269(7) 0.3512(5)
C105_8 C 0.3483(8) 0.6480(16) 0.3545(8)
C106_8 C 0.3837(7) 0.6775(11) 0.3624(8)
H86_8 H 0.4019 0.6484 0.3547
H87_8 H 0.3856 0.7186 0.3502
H88_8 H 0.3866 0.6848 0.3873
H89_6 H 0.471437 0.350722 0.407756
H90_6 H 0.445445 0.417601 0.419091
H91_5 H 0.487832 0.442562 0.540785
H92_8 H 0.402447 0.614902 0.59345
H93_8 H 0.43139 0.567677 0.57754
H94_8 H 0.388623 0.681357 0.463857
H95_8 H 0.429564 0.695276 0.471263
H96_6 H 0.234872 0.472522 0.342911
H97_8 H 0.219502 0.522321 0.314146
O13_7 O 0.1262(2) 0.1741(4) 0.0110(3)
C60_7 C 0.1195(4) 0.0616(8) 0.0076(6)
C61_7 C 0.1233(5) 0.0557(8) 0.0421(6)
H50_7 H 0.1274 0.0937 0.0551
C66_7 C 0.2306(3) 0.3271(4) 0.0614(4)
H56_7 H 0.2404 0.3688 0.0635
C67_7 C 0.2208(3) 0.3034(5) 0.0290(3)
H57_7 H 0.2239 0.3289 0.009
C68_7 C 0.2065(3) 0.2424(6) 0.0259(3)
C69_7 C 0.2019(3) 0.2051(4) 0.0552(3)
C70_7 C 0.2117(3) 0.2288(5) 0.0876(3)
C71_7 C 0.2260(3) 0.2898(6) 0.0907(3)
H58_7 H 0.2327 0.3061 0.1129
O14_7 O 0.1938(3) 0.1373(6) 0.0548(3)
C72_7 C 0.2247(6) 0.1007(9) 0.0455(5)
H59_7 H 0.2281 0.1024 0.0203
H60_7 H 0.2457 0.1182 0.0575
C73_7 C 0.2184(5) 0.0350(9) 0.0566(5)
C77_7 C 0.2232(4) 0.0176(8) 0.0922(5)
H64_7 H 0.2295 0.0491 0.109
C78_7 C 0.2010(5) 0.1933(8) 0.1225(5)
H65_7 H 0.1933 0.149 0.1173
H66_7 H 0.2212 0.1912 0.1388
C79_7 C 0.1468(4) 0.3266(5) 0.1664(3)
H67_7 H 0.1502 0.3661 0.1783
C80_7 C 0.1753(3) 0.2906(6) 0.1566(3)
H68_7 H 0.1981 0.3055 0.1617
C81_7 C 0.1703(3) 0.2327(6) 0.1393(3)
C82_7 C 0.1368(4) 0.2109(4) 0.1318(3)
C83_7 C 0.1083(3) 0.2469(6) 0.1416(3)
C84_7 C 0.1134(3) 0.3047(5) 0.1590(3)
H69_7 H 0.0939 0.3293 0.1657
O15_7 O 0.1291(4) 0.1517(6) 0.1169(3)
C85_7 C 0.1200(5) 0.1010(9) 0.1425(5)
H70_7 H 0.1015 0.1174 0.1574
H71_7 H 0.1108 0.063 0.1299
C86_7 C 0.1478(5) 0.0830(8) 0.1627(6)
C87_7 C 0.1629(7) 0.1177(9) 0.1952(5)
H72_7 H 0.1518 0.1542 0.2046
C88_7 C 0.1933(6) 0.0930(11) 0.2098(6)
H73_7 H 0.2029 0.1149 0.2294
C89_7 C 0.2097(5) 0.0433(9) 0.1994(5)
H74_7 H 0.2311 0.032 0.2106
N7_7 N 0.1966(4) 0.0042(6) 0.1714(4)
C90_7 C 0.1683(6) 0.0238(9) 0.1559(5)
C91_7 C 0.0697(5) 0.2307(9) 0.1310(5)
H76_7 H 0.0671 0.1836 0.1291
H77_7 H 0.0544 0.2456 0.1495
C92_7 C 0.0440(3) 0.3624(4) 0.0683(3)
H78_7 H 0.0381 0.4065 0.0697
C93_7 C 0.0494(3) 0.3268(5) 0.0984(3)
H79_7 H 0.0471 0.3466 0.1203
C94_7 C 0.0581(3) 0.2622(5) 0.0963(3)
C95_7 C 0.0614(3) 0.2332(4) 0.0642(3)
C96_7 C 0.0560(3) 0.2688(5) 0.0342(3)
C97_7 C 0.0473(3) 0.3334(5) 0.0362(3)
H80_7 H 0.0436 0.3577 0.0157
O16_7 O 0.0684(3) 0.1682(5) 0.0604(3)
C98_7 C 0.0424(5) 0.1264(8) 0.0714(5)
C100_7 C 0.0264(5) 0.0834(8) 0.0112(5)
H81_7 H 0.0498 0.0704 0.0087
C101_7 C 0.0166(4) 0.1096(6) 0.0426(4)
H84_8 H 0.0636 0.1929 0.000
H89_7 H 0.0285628 0.149278 0.0922445
H90_7 H 0.0545552 0.0823989 0.0809088
H96_7 H 0.265128 0.0274781 0.157089
C53_6 C 0.1298(3) 0.3426(4) 0.9524(3)
H45_6 H 0.1305 0.3812 0.9393
C54_6 C 0.0984(3) 0.3201(5) 0.9643(3)
H46_6 H 0.0776 0.3433 0.9593
C55_6 C 0.0973(2) 0.2637(5) 0.9833(3)
C56_6 C 0.1277(3) 0.2297(4) 0.9905(3)
C57_6 C 0.1592(2) 0.2522(5) 0.9786(3)
C58_6 C 0.1602(3) 0.3086(5) 0.9595(3)
H47_6 H 0.1817 0.324 0.9514
C59_6 C 0.1208(5) 0.1176(9) 0.9876(5)
H48_6 H 0.0988 0.1226 0.974
H49_6 H 0.14 0.1147 0.9712
C64_6 C 0.1140(4) 0.0042(7) 0.9900(5)
H53_6 H 0.1117 0.0065 0.9655
C65_6 C 0.1936(6) 0.2158(9) 0.9899(5)
H54_6 H 0.1892 0.1692 0.9915
H55_6 H 0.2116 0.2228 0.9725
C99_6 C 0.0031(5) 0.0759(8) 0.9837(5)
C104_6 C 0.0631(4) 0.2403(9) 0.9982(5)
H84_9 H 0.0636 0.1929 1.000
H85_6 H 0.0437 0.252 0.982
H91_6 H 0.0121681 0.0574376 0.959215
C103_6 C 0.9684(5) 0.0915(6) 0.9868(4)
H83_6 H 0.953 0.0868 0.9674
C1_5 C 0.8087(4) 0.9705(4) 0.5222(3)
H1_5 H 0.8099 0.9293 0.5118
H2_5 H 0.8604 0.99 0.5205
C6_5 C 0.7769(3) 0.9947(5) 0.5322(3)
H3_5 H 0.7563 0.97 0.5286
C14_5 C 0.7046(3) 0.9456(4) 0.6169(3)
H12_5 H 0.691 0.9078 0.6145
C15_5 C 0.7111(3) 0.9832(5) 0.5881(2)
H13_5 H 0.702 0.971 0.566
C19_5 C 0.7179(3) 0.9634(4) 0.6492(2)
H14_5 H 0.7134 0.9378 0.6689
C27_5 C 0.8285(4) 0.9210(4) 0.7050(3)
H23_5 H 0.8311 0.8765 0.7097
C28_5 C 0.7954(3) 0.9474(6) 0.7014(3)
H24_5 H 0.7755 0.9209 0.7036
C32_5 C 0.8575(3) 0.9598(6) 0.7018(3)
H25_5 H 0.8801 0.9418 0.7044
C40_5 C 0.9194(4) 0.9706(5) 0.6067(5)
H34_5 H 0.932 0.9326 0.6019
C41_5 C 0.9145(4) 0.9891(6) 0.6407(4)
H35_5 H 0.9237 0.9637 0.6592
H36_5 H 0.9092 0.9952 0.5564
C1_6 C 0.6913(4) 0.9705(4) 0.4778(3)
H1_6 H 0.6901 0.9293 0.4882
H2_6 H 0.6396 0.99 0.4795
C6_6 C 0.7231(3) 0.9947(5) 0.4678(3)
H3_6 H 0.7437 0.97 0.4714
C14_6 C 0.7954(3) 0.9456(4) 0.3831(3)
H12_6 H 0.809 0.9078 0.3855
C15_6 C 0.7889(3) 0.9832(5) 0.4119(2)
H13_6 H 0.798 0.971 0.434
C19_6 C 0.7821(3) 0.9634(4) 0.3508(2)
H14_6 H 0.7866 0.9378 0.3311
C27_6 C 0.6715(4) 0.9210(4) 0.2950(3)
H23_6 H 0.6689 0.8765 0.2903
C28_6 C 0.7046(3) 0.9474(6) 0.2986(3)
H24_6 H 0.7245 0.9209 0.2964
C32_6 C 0.6425(3) 0.9598(6) 0.2982(3)
H25_6 H 0.6199 0.9418 0.2956
C40_6 C 0.5806(4) 0.9706(5) 0.3933(5)
H34_6 H 0.568 0.9326 0.3981
C41_6 C 0.5855(4) 0.9891(6) 0.3593(4)
H35_6 H 0.5763 0.9637 0.3408
H36_6 H 0.5908 0.9952 0.4436
C53_7 C 0.6298(3) 0.6574(4) 0.9524(3)
H45_7 H 0.6305 0.6188 0.9393
C54_7 C 0.5984(3) 0.6799(5) 0.9643(3)
H46_7 H 0.5776 0.6567 0.9593
C55_7 C 0.5973(2) 0.7363(5) 0.9833(3)
C56_7 C 0.6277(3) 0.7703(4) 0.9905(3)
C57_7 C 0.6592(2) 0.7478(5) 0.9786(3)
C58_7 C 0.6602(3) 0.6914(5) 0.9595(3)
H47_7 H 0.6817 0.676 0.9514
C59_7 C 0.6208(5) 0.8824(9) 0.9876(5)
H48_7 H 0.5988 0.8774 0.974
H49_7 H 0.64 0.8853 0.9712
C64_7 C 0.6140(4) 0.9958(7) 0.9900(5)
H53_7 H 0.6117 0.9935 0.9655
C65_7 C 0.6936(6) 0.7842(9) 0.9899(5)
H54_7 H 0.6892 0.8308 0.9915
H55_7 H 0.7116 0.7772 0.9725
C99_7 C 0.5031(5) 0.9241(8) 0.9837(5)
C103_7 C 0.4684(5) 0.9085(6) 0.9868(4)
H83_7 H 0.453 0.9132 0.9674
C104_7 C 0.5631(4) 0.7597(9) 0.9982(5)
H84_10 H 0.5636 0.8071 1.000
H85_7 H 0.5437 0.748 0.982
H91_7 H 0.512168 0.942562 0.959215
C103_8 C 0.0316(5) 0.9085(6) 0.0132(4)
H83_8 H 0.047 0.9132 0.0326
C53_8 C 0.8702(3) 0.6574(4) 0.0476(3)
H45_8 H 0.8695 0.6188 0.0607
C54_8 C 0.9016(3) 0.6799(5) 0.0357(3)
H46_8 H 0.9224 0.6567 0.0407
C55_8 C 0.9027(2) 0.7363(5) 0.0167(3)
C56_8 C 0.8723(3) 0.7703(4) 0.0095(3)
C57_8 C 0.8408(2) 0.7478(5) 0.0214(3)
C58_8 C 0.8398(3) 0.6914(5) 0.0405(3)
H47_8 H 0.8183 0.676 0.0486
C59_8 C 0.8792(5) 0.8824(9) 0.0124(5)
H48_8 H 0.9012 0.8774 0.026
H49_8 H 0.86 0.8853 0.0288
C64_8 C 0.8860(4) 0.9958(7) 0.0100(5)
H53_8 H 0.8883 0.9935 0.0345
C65_8 C 0.8064(6) 0.7842(9) 0.0101(5)
H54_8 H 0.8108 0.8308 0.0085
H55_8 H 0.7884 0.7772 0.0275
C99_8 C 0.9969(5) 0.9241(8) 0.0163(5)
C104_8 C 0.9369(4) 0.7597(9) 0.0018(5)
H84_11 H 0.9364 0.8071 0.000
H85_8 H 0.9563 0.748 0.018
H91_8 H 0.987832 0.942562 0.0407848
O13_8 O 0.8738(2) 0.8259(4) 0.9890(3)
C60_8 C 0.8805(4) 0.9384(8) 0.9924(6)
C61_8 C 0.8767(5) 0.9443(8) 0.9579(6)
H50_8 H 0.8726 0.9063 0.9449
C66_8 C 0.7694(3) 0.6729(4) 0.9386(4)
H56_8 H 0.7596 0.6312 0.9365
C67_8 C 0.7792(3) 0.6966(5) 0.9710(3)
H57_8 H 0.7761 0.6711 0.991
C68_8 C 0.7935(3) 0.7576(6) 0.9741(3)
C69_8 C 0.7981(3) 0.7949(4) 0.9448(3)
C70_8 C 0.7883(3) 0.7712(5) 0.9124(3)
C71_8 C 0.7740(3) 0.7102(6) 0.9093(3)
H58_8 H 0.7673 0.6939 0.8871
O14_8 O 0.8062(3) 0.8627(6) 0.9452(3)
C72_8 C 0.7753(6) 0.8993(9) 0.9545(5)
H59_8 H 0.7719 0.8976 0.9797
H60_8 H 0.7543 0.8818 0.9425
C73_8 C 0.7816(5) 0.9650(9) 0.9434(5)
C77_8 C 0.7768(4) 0.9824(8) 0.9078(5)
H64_8 H 0.7705 0.9509 0.891
C78_8 C 0.7990(5) 0.8067(8) 0.8775(5)
H65_8 H 0.8067 0.851 0.8827
H66_8 H 0.7788 0.8088 0.8612
C79_8 C 0.8532(4) 0.6734(5) 0.8336(3)
H67_8 H 0.8498 0.6339 0.8217
C80_8 C 0.8247(3) 0.7094(6) 0.8434(3)
H68_8 H 0.8019 0.6945 0.8383
C81_8 C 0.8297(3) 0.7673(6) 0.8607(3)
C82_8 C 0.8632(4) 0.7891(4) 0.8682(3)
C83_8 C 0.8917(3) 0.7531(6) 0.8584(3)
C84_8 C 0.8866(3) 0.6953(5) 0.8410(3)
H69_8 H 0.9061 0.6707 0.8343
O15_8 O 0.8709(4) 0.8483(6) 0.8831(3)
C85_8 C 0.8800(5) 0.8990(9) 0.8575(5)
H70_8 H 0.8985 0.8826 0.8426
H71_8 H 0.8892 0.937 0.8701
C86_8 C 0.8522(5) 0.9170(8) 0.8373(6)
C87_8 C 0.8371(7) 0.8823(9) 0.8048(5)
H72_8 H 0.8482 0.8458 0.7954
C88_8 C 0.8067(6) 0.9070(11) 0.7902(6)
H73_8 H 0.7971 0.8851 0.7706
C89_8 C 0.7903(5) 0.9567(9) 0.8006(5)
H74_8 H 0.7689 0.968 0.7894
N7_8 N 0.8034(4) 0.9958(6) 0.8286(4)
C90_8 C 0.8317(6) 0.9762(9) 0.8441(5)
C91_8 C 0.9303(5) 0.7693(9) 0.8690(5)
H76_8 H 0.9329 0.8164 0.8709
H77_8 H 0.9456 0.7544 0.8505
C92_8 C 0.9560(3) 0.6376(4) 0.9317(3)
H78_8 H 0.9619 0.5935 0.9303
C93_8 C 0.9506(3) 0.6732(5) 0.9016(3)
H79_8 H 0.9529 0.6534 0.8797
C94_8 C 0.9419(3) 0.7378(5) 0.9037(3)
C95_8 C 0.9386(3) 0.7668(4) 0.9358(3)
C96_8 C 0.9440(3) 0.7312(5) 0.9658(3)
C97_8 C 0.9527(3) 0.6666(5) 0.9638(3)
H80_8 H 0.9564 0.6423 0.9843
O16_8 O 0.9316(3) 0.8318(5) 0.9396(3)
C98_8 C 0.9576(5) 0.8736(8) 0.9286(5)
C100_8 C 0.9736(5) 0.9166(8) 0.9888(5)
H81_8 H 0.9502 0.9296 0.9913
C101_8 C 0.9834(4) 0.8904(6) 0.9574(4)
H84_12 H 0.9364 0.8071 1.000
H89_8 H 0.971437 0.850722 0.907756
H90_8 H 0.945445 0.917601 0.919091
H96_8 H 0.734872 0.972522 0.842911
C1_7 C 0.1913(4) 0.0295(4) 0.4778(3)
H1_7 H 0.1901 0.0707 0.4882
H2_7 H 0.1396 0.01 0.4795
C6_7 C 0.2231(3) 0.0053(5) 0.4678(3)
H3_7 H 0.2437 0.03 0.4714
C14_7 C 0.2954(3) 0.0544(4) 0.3831(3)
H12_7 H 0.309 0.0922 0.3855
C15_7 C 0.2889(3) 0.0168(5) 0.4119(2)
H13_7 H 0.298 0.029 0.434
C19_7 C 0.2821(3) 0.0366(4) 0.3508(2)
H14_7 H 0.2866 0.0622 0.3311
C27_7 C 0.1715(4) 0.0790(4) 0.2950(3)
H23_7 H 0.1689 0.1235 0.2903
C28_7 C 0.2046(3) 0.0526(6) 0.2986(3)
H24_7 H 0.2245 0.0791 0.2964
C32_7 C 0.1425(3) 0.0402(6) 0.2982(3)
H25_7 H 0.1199 0.0582 0.2956
C40_7 C 0.0806(4) 0.0294(5) 0.3933(5)
H34_7 H 0.068 0.0674 0.3981
C41_7 C 0.0855(4) 0.0109(6) 0.3593(4)
H35_7 H 0.0763 0.0363 0.3408
H36_7 H 0.0908 0.0048 0.4436
C1_8 C 0.3087(4) 0.0295(4) 0.5222(3)
H1_8 H 0.3099 0.0707 0.5118
H2_8 H 0.3604 0.01 0.5205
C6_8 C 0.2769(3) 0.0053(5) 0.5322(3)
H3_8 H 0.2563 0.03 0.5286
C14_8 C 0.2046(3) 0.0544(4) 0.6169(3)
H12_8 H 0.191 0.0922 0.6145
C15_8 C 0.2111(3) 0.0168(5) 0.5881(2)
H13_8 H 0.202 0.029 0.566
C19_8 C 0.2179(3) 0.0366(4) 0.6492(2)
H14_8 H 0.2134 0.0622 0.6689
C27_8 C 0.3285(4) 0.0790(4) 0.7050(3)
H23_8 H 0.3311 0.1235 0.7097
C28_8 C 0.2954(3) 0.0526(6) 0.7014(3)
H24_8 H 0.2755 0.0791 0.7036
C32_8 C 0.3575(3) 0.0402(6) 0.7018(3)
H25_8 H 0.3801 0.0582 0.7044
C40_8 C 0.4194(4) 0.0294(5) 0.6067(5)
H34_8 H 0.432 0.0674 0.6019
C41_8 C 0.4145(4) 0.0109(6) 0.6407(4)
H35_8 H 0.4237 0.0363 0.6592
H36_8 H 0.4092 0.0048 0.5564
loop_
_geom_bond_atom_site_label_1
_geom_bond_atom_site_label_2
_geom_bond_site_symmetry_1
_geom_bond_site_symmetry_2
O1 Cl1 1_555 1_555
O2 Cl1 1_555 1_555
O3 Cl1 1_555 1_555
O4 Cl1 1_555 1_555
O1_2 Cl1_2 1_555 1_555
O2_2 Cl1_2 1_555 1_555
O3_2 Cl1_2 1_555 1_555
O4_2 Cl1_2 1_555 1_555
O1_3 Cl1_3 1_555 1_555
O2_3 Cl1_3 1_555 1_555
O3_3 Cl1_3 1_555 1_555
O4_3 Cl1_3 1_555 1_555
O1_4 Cl1_4 1_555 1_555
O2_4 Cl1_4 1_555 1_555
O3_4 Cl1_4 1_555 1_555
O4_4 Cl1_4 1_555 1_555
O1_5 Cl1_5 1_555 1_555
O2_5 Cl1_5 1_555 1_555
O3_5 Cl1_5 1_555 1_555
O4_5 Cl1_5 1_555 1_555
O1_6 Cl1_6 1_555 1_555
O2_6 Cl1_6 1_555 1_555
O3_6 Cl1_6 1_555 1_555
O4_6 Cl1_6 1_555 1_555
O1_7 Cl1_7 1_555 1_555
O2_7 Cl1_7 1_555 1_555
O3_7 Cl1_7 1_555 1_555
O4_7 Cl1_7 1_555 1_555
O1_8 Cl1_8 1_555 1_555
O2_8 Cl1_8 1_555 1_555
O3_8 Cl1_8 1_555 1_555
O4_8 Cl1_8 1_555 1_555
O6 Cl2 1_555 1_555
O7 Cl2 1_555 1_555
O8 Cl2 1_555 1_555
O6_2 Cl2_2 1_555 1_555
O7_2 Cl2_2 1_555 1_555
O8_2 Cl2_2 1_555 1_555
O5_3 Cl2_3 1_555 1_555
O6_3 Cl2_3 1_555 1_555
O7_3 Cl2_3 1_555 1_555
O8_3 Cl2_3 1_555 1_555
O5_4 Cl2_4 1_555 1_555
O6_4 Cl2_4 1_555 1_555
O7_4 Cl2_4 1_555 1_555
O8_4 Cl2_4 1_555 1_555
O6_5 Cl2_5 1_555 1_555
O7_5 Cl2_5 1_555 1_555
O8_5 Cl2_5 1_555 1_555
O6_6 Cl2_6 1_555 1_555
O7_6 Cl2_6 1_555 1_555
O8_6 Cl2_6 1_555 1_555
O5_7 Cl2_7 1_555 1_555
O6_7 Cl2_7 1_555 1_555
O7_7 Cl2_7 1_555 1_555
O8_7 Cl2_7 1_555 1_555
O5_8 Cl2_8 1_555 1_555
O6_8 Cl2_8 1_555 1_555
O7_8 Cl2_8 1_555 1_555
O8_8 Cl2_8 1_555 1_555
C53 H45 1_555 1_555
C54 C53 1_555 1_555
H46 C54 1_555 1_555
C55 C54 1_555 1_555
C56 C55 1_555 1_555
C57 C56 1_555 1_555
C58 C53 1_555 1_555
H47 C58 1_555 1_555
H48 C59 1_555 1_555
H49 C59 1_555 1_555
H53 C64 1_555 1_555
C65 C57 1_555 1_555
H54 C65 1_555 1_555
H55 C65 1_555 1_555
C103 C99 1_555 1_555
H83 C103 1_555 1_555
C104 C55 1_555 1_555
H84 C104 1_555 1_555
H85 C104 1_555 1_555
C57 C58 1_555 1_555
C99 H91 1_555 1_555
C61 C60 1_555 1_555
H50 C61 1_555 1_555
C66 H56 1_555 1_555
C67 C66 1_555 1_555
H57 C67 1_555 1_555
C69 C68 1_555 1_555
C70 C69 1_555 1_555
C71 C66 1_555 1_555
H58 C71 1_555 1_555
O14 C69 1_555 1_555
C72 O14 1_555 1_555
H59 C72 1_555 1_555
H60 C72 1_555 1_555
C73 C72 1_555 1_555
C77 C73 1_555 1_555
H64 C77 1_555 1_555
C78 C70 1_555 1_555
H65 C78 1_555 1_555
H66 C78 1_555 1_555
C79 H67 1_555 1_555
C80 C79 1_555 1_555
H68 C80 1_555 1_555
C81 C78 1_555 1_555
C82 C81 1_555 1_555
C83 C82 1_555 1_555
C84 C79 1_555 1_555
H69 C84 1_555 1_555
O15 C82 1_555 1_555
C85 O15 1_555 1_555
H70 C85 1_555 1_555
H71 C85 1_555 1_555
C86 C85 1_555 1_555
C87 C86 1_555 1_555
H72 C87 1_555 1_555
C88 C87 1_555 1_555
H73 C88 1_555 1_555
C89 C88 1_555 1_555
H74 C89 1_555 1_555
N7 C89 1_555 1_555
C90 C86 1_555 1_555
C91 C83 1_555 1_555
H76 C91 1_555 1_555
H77 C91 1_555 1_555
C92 H78 1_555 1_555
C93 C92 1_555 1_555
H79 C93 1_555 1_555
C94 C91 1_555 1_555
C95 C94 1_555 1_555
C96 C95 1_555 1_555
C97 C92 1_555 1_555
H80 C97 1_555 1_555
O16 C95 1_555 1_555
C98 O16 1_555 1_555
C100 H81 1_555 1_555
C101 C98 1_555 1_555
C102 C101 1_555 1_555
H82 C102 1_555 1_555
N8 C102 1_555 1_555
Zn5 N8 1_555 1_555
C67 C68 1_555 1_555
C70 C71 1_555 1_555
C80 C81 1_555 1_555
C83 C84 1_555 1_555
N7 C90 1_555 1_555
C93 C94 1_555 1_555
C96 C97 1_555 1_555
C100 C101 1_555 1_555
C98 H89 1_555 1_555
C98 H90 1_555 1_555
C1 H1 1_555 1_555
C2 C1 1_555 1_555
H2 C2 1_555 1_555
C3 C2 1_555 1_555
C4 C3 1_555 1_555
C5 C4 1_555 1_555
C6 C1 1_555 1_555
H3 C6 1_555 1_555
O9 C4 1_555 1_555
C7 O9 1_555 1_555
H4 C7 1_555 1_555
H5 C7 1_555 1_555
C8 C7 1_555 1_555
C9 C8 1_555 1_555
H6 C9 1_555 1_555
C10 C9 1_555 1_555
H7 C10 1_555 1_555
C11 C10 1_555 1_555
H8 C11 1_555 1_555
N1 C11 1_555 1_555
C12 C8 1_555 1_555
H9 C12 1_555 1_555
C13 C5 1_555 1_555
H10 C13 1_555 1_555
H11 C13 1_555 1_555
C14 H12 1_555 1_555
C15 C14 1_555 1_555
H13 C15 1_555 1_555
C16 C13 1_555 1_555
C17 C16 1_555 1_555
C18 C17 1_555 1_555
C19 C14 1_555 1_555
H14 C19 1_555 1_555
O10 C17 1_555 1_555
C20 H15 1_555 1_555
C21 C20 1_555 1_555
H16 C21 1_555 1_555
C22 C21 1_555 1_555
C23 C22 1_555 1_555
H17 C23 1_555 1_555
N2 C23 1_555 1_555
C24 C20 1_555 1_555
H18 C24 1_555 1_555
C25 O10 1_555 1_555
H19 C25 1_555 1_555
H20 C25 1_555 1_555
C26 C18 1_555 1_555
H21 C26 1_555 1_555
H22 C26 1_555 1_555
C27 H23 1_555 1_555
C28 C27 1_555 1_555
H24 C28 1_555 1_555
C29 C26 1_555 1_555
C30 C29 1_555 1_555
C31 C30 1_555 1_555
C32 C27 1_555 1_555
H25 C32 1_555 1_555
O11 C30 1_555 1_555
C33 O11 1_555 1_555
H26 C33 1_555 1_555
H27 C33 1_555 1_555
C34 C33 1_555 1_555
C35 C34 1_555 1_555
H28 C35 1_555 1_555
C36 C35 1_555 1_555
H29 C36 1_555 1_555
C37 C36 1_555 1_555
H30 C37 1_555 1_555
N3 C37 1_555 1_555
C38 C34 1_555 1_555
H31 C38 1_555 1_555
C39 C31 1_555 1_555
H32 C39 1_555 1_555
H33 C39 1_555 1_555
C40 H34 1_555 1_555
C41 C40 1_555 1_555
H35 C41 1_555 1_555
C42 C39 1_555 1_555
C43 C42 1_555 1_555
C44 C43 1_555 1_555
C45 C40 1_555 1_555
H36 C45 1_555 1_555
O12 C43 1_555 1_555
C46 O12 1_555 1_555
H37 C46 1_555 1_555
H38 C46 1_555 1_555
C47 C46 1_555 1_555
C48 C47 1_555 1_555
H39 C48 1_555 1_555
C49 C48 1_555 1_555
H40 C49 1_555 1_555
C50 C49 1_555 1_555
H41 C50 1_555 1_555
N4 C50 1_555 1_555
C51 C47 1_555 1_555
H42 C51 1_555 1_555
C52 C3 1_555 1_555
H43 C52 1_555 1_555
H44 C52 1_555 1_555
O18 Zn2 1_555 1_555
Zn2 N1 1_555 1_555
N12 Zn2 1_555 1_555
Zn3 N2 1_555 1_555
Zn4 N3 1_555 1_555
C5 C6 1_555 1_555
N1 C12 1_555 1_555
C15 C16 1_555 1_555
C18 C19 1_555 1_555
C22 C25 1_555 1_555
N2 C24 1_555 1_555
C28 C29 1_555 1_555
C31 C32 1_555 1_555
N3 C38 1_555 1_555
C41 C42 1_555 1_555
C44 C45 1_555 1_555
C44 C52 1_555 1_555
N4 C51 1_555 1_555
N4 Zn2 1_555 1_555
O18 H92 1_555 1_555
O18 H93 1_555 1_555
H51 C62 1_555 1_555
C63 C62 1_555 1_555
H52 C63 1_555 1_555
N5 C63 1_555 1_555
H61 C74 1_555 1_555
C75 C74 1_555 1_555
H62 C75 1_555 1_555
C76 C75 1_555 1_555
H63 C76 1_555 1_555
N6 C76 1_555 1_555
O17 Zn1 1_555 1_555
Zn1 N6 1_555 1_555
N9 Zn1 1_555 1_555
C105 N9 1_555 1_555
C106 C105 1_555 1_555
H86 C106 1_555 1_555
H87 C106 1_555 1_555
H88 C106 1_555 1_555
N10 Zn1 1_555 1_555
N11 Zn1 1_555 1_555
O19 H94 1_555 1_555
O19 H95 1_555 1_555
O17 H97 1_555 1_555
H51_2 C62_2 1_555 1_555
C63_2 C62_2 1_555 1_555
H52_2 C63_2 1_555 1_555
N5_2 C63_2 1_555 1_555
H61_2 C74_2 1_555 1_555
C75_2 C74_2 1_555 1_555
H62_2 C75_2 1_555 1_555
C76_2 C75_2 1_555 1_555
H63_2 C76_2 1_555 1_555
N6_2 C76_2 1_555 1_555
O17_2 Zn3 1_555 1_555
Zn3 N6_2 1_555 1_555
N9_2 Zn3 1_555 1_555
C105_2 N9_2 1_555 1_555
C106_2 C105_2 1_555 1_555
H86_2 C106_2 1_555 1_555
H87_2 C106_2 1_555 1_555
H88_2 C106_2 1_555 1_555
N11_2 Zn3 1_555 1_555
O19_2 H94_2 1_555 1_555
O19_2 H95_2 1_555 1_555
O17_2 H97_2 1_555 1_555
C1_2 H1_2 1_555 1_555
C2_2 C1_2 1_555 1_555
H2_2 C2_2 1_555 1_555
C3_2 C2_2 1_555 1_555
C4_2 C3_2 1_555 1_555
C5_2 C4_2 1_555 1_555
C6_2 C1_2 1_555 1_555
H3_2 C6_2 1_555 1_555
O9_2 C4_2 1_555 1_555
C7_2 O9_2 1_555 1_555
H4_2 C7_2 1_555 1_555
H5_2 C7_2 1_555 1_555
C8_2 C7_2 1_555 1_555
C9_2 C8_2 1_555 1_555
H6_2 C9_2 1_555 1_555
C10_2 C9_2 1_555 1_555
H7_2 C10_2 1_555 1_555
C11_2 C10_2 1_555 1_555
H8_2 C11_2 1_555 1_555
N1_2 C11_2 1_555 1_555
C12_2 C8_2 1_555 1_555
H9_2 C12_2 1_555 1_555
C13_2 C5_2 1_555 1_555
H10_2 C13_2 1_555 1_555
H11_2 C13_2 1_555 1_555
C14_2 H12_2 1_555 1_555
C15_2 C14_2 1_555 1_555
H13_2 C15_2 1_555 1_555
C16_2 C13_2 1_555 1_555
C17_2 C16_2 1_555 1_555
C18_2 C17_2 1_555 1_555
C19_2 C14_2 1_555 1_555
H14_2 C19_2 1_555 1_555
O10_2 C17_2 1_555 1_555
C20_2 H15_2 1_555 1_555
C21_2 C20_2 1_555 1_555
H16_2 C21_2 1_555 1_555
C22_2 C21_2 1_555 1_555
C23_2 C22_2 1_555 1_555
H17_2 C23_2 1_555 1_555
N10 C23_2 1_555 1_555
C24_2 C20_2 1_555 1_555
H18_2 C24_2 1_555 1_555
C25_2 O10_2 1_555 1_555
H19_2 C25_2 1_555 1_555
H20_2 C25_2 1_555 1_555
C26_2 C18_2 1_555 1_555
H21_2 C26_2 1_555 1_555
H22_2 C26_2 1_555 1_555
C27_2 H23_2 1_555 1_555
C28_2 C27_2 1_555 1_555
H24_2 C28_2 1_555 1_555
C29_2 C26_2 1_555 1_555
C30_2 C29_2 1_555 1_555
C31_2 C30_2 1_555 1_555
C32_2 C27_2 1_555 1_555
H25_2 C32_2 1_555 1_555
O11_2 C30_2 1_555 1_555
C33_2 O11_2 1_555 1_555
H26_2 C33_2 1_555 1_555
H27_2 C33_2 1_555 1_555
C34_2 C33_2 1_555 1_555
C35_2 C34_2 1_555 1_555
H28_2 C35_2 1_555 1_555
C36_2 C35_2 1_555 1_555
H29_2 C36_2 1_555 1_555
C37_2 C36_2 1_555 1_555
H30_2 C37_2 1_555 1_555
N3_2 C37_2 1_555 1_555
C38_2 C34_2 1_555 1_555
H31_2 C38_2 1_555 1_555
C39_2 C31_2 1_555 1_555
H32_2 C39_2 1_555 1_555
H33_2 C39_2 1_555 1_555
C40_2 H34_2 1_555 1_555
C41_2 C40_2 1_555 1_555
H35_2 C41_2 1_555 1_555
C42_2 C39_2 1_555 1_555
C43_2 C42_2 1_555 1_555
C44_2 C43_2 1_555 1_555
C45_2 C40_2 1_555 1_555
H36_2 C45_2 1_555 1_555
O12_2 C43_2 1_555 1_555
C46_2 O12_2 1_555 1_555
H37_2 C46_2 1_555 1_555
H38_2 C46_2 1_555 1_555
C47_2 C46_2 1_555 1_555
C48_2 C47_2 1_555 1_555
H39_2 C48_2 1_555 1_555
C49_2 C48_2 1_555 1_555
H40_2 C49_2 1_555 1_555
C50_2 C49_2 1_555 1_555
H41_2 C50_2 1_555 1_555
N4_2 C50_2 1_555 1_555
C51_2 C47_2 1_555 1_555
H42_2 C51_2 1_555 1_555
C52_2 C3_2 1_555 1_555
H43_2 C52_2 1_555 1_555
H44_2 C52_2 1_555 1_555
O18_2 Zn2_2 1_555 1_555
Zn2_2 N1_2 1_555 1_555
N12_2 Zn2_2 1_555 1_555
Zn4_2 N3_2 1_555 1_555
C5_2 C6_2 1_555 1_555
N1_2 C12_2 1_555 1_555
C15_2 C16_2 1_555 1_555
C18_2 C19_2 1_555 1_555
C22_2 C25_2 1_555 1_555
N10 C24_2 1_555 1_555
C28_2 C29_2 1_555 1_555
C31_2 C32_2 1_555 1_555
N3_2 C38_2 1_555 1_555
C41_2 C42_2 1_555 1_555
C44_2 C45_2 1_555 1_555
C44_2 C52_2 1_555 1_555
N4_2 C51_2 1_555 1_555
N4_2 Zn2_2 1_555 1_555
O18_2 H92_2 1_555 1_555
O18_2 H93_2 1_555 1_555
H82_2 C102_2 1_555 1_555
N8_2 C102_2 1_555 1_555
Zn5_2 N8_2 1_555 1_555
H82_3 C102_3 1_555 1_555
N8_3 C102_3 1_555 1_555
H83_2 C103_2 1_555 1_555
Zn5_3 N8_3 1_555 1_555
N8_3 C103_2 1_555 1_555
C3_3 C2_3 1_555 1_555
C4_3 C3_3 1_555 1_555
C5_3 C4_3 1_555 1_555
O9_3 C4_3 1_555 1_555
C7_3 O9_3 1_555 1_555
H4_3 C7_3 1_555 1_555
H5_3 C7_3 1_555 1_555
C8_3 C7_3 1_555 1_555
C9_3 C8_3 1_555 1_555
H6_3 C9_3 1_555 1_555
C10_3 C9_3 1_555 1_555
H7_3 C10_3 1_555 1_555
C11_3 C10_3 1_555 1_555
H8_3 C11_3 1_555 1_555
N1_3 C11_3 1_555 1_555
C12_3 C8_3 1_555 1_555
H9_3 C12_3 1_555 1_555
C13_3 C5_3 1_555 1_555
H10_3 C13_3 1_555 1_555
H11_3 C13_3 1_555 1_555
C16_3 C13_3 1_555 1_555
C17_3 C16_3 1_555 1_555
C18_3 C17_3 1_555 1_555
O10_3 C17_3 1_555 1_555
C20_3 H15_3 1_555 1_555
C21_3 C20_3 1_555 1_555
H16_3 C21_3 1_555 1_555
C22_3 C21_3 1_555 1_555
C23_3 C22_3 1_555 1_555
H17_3 C23_3 1_555 1_555
N2_2 C23_3 1_555 1_555
C24_3 C20_3 1_555 1_555
H18_3 C24_3 1_555 1_555
C25_3 O10_3 1_555 1_555
H19_3 C25_3 1_555 1_555
H20_3 C25_3 1_555 1_555
C26_3 C18_3 1_555 1_555
H21_3 C26_3 1_555 1_555
H22_3 C26_3 1_555 1_555
C29_3 C26_3 1_555 1_555
C30_3 C29_3 1_555 1_555
C31_3 C30_3 1_555 1_555
O11_3 C30_3 1_555 1_555
C33_3 O11_3 1_555 1_555
H26_3 C33_3 1_555 1_555
H27_3 C33_3 1_555 1_555
C34_3 C33_3 1_555 1_555
C35_3 C34_3 1_555 1_555
H28_3 C35_3 1_555 1_555
C36_3 C35_3 1_555 1_555
H29_3 C36_3 1_555 1_555
C37_3 C36_3 1_555 1_555
H30_3 C37_3 1_555 1_555
N3_3 C37_3 1_555 1_555
C38_3 C34_3 1_555 1_555
H31_3 C38_3 1_555 1_555
C39_3 C31_3 1_555 1_555
H32_3 C39_3 1_555 1_555
H33_3 C39_3 1_555 1_555
C42_3 C39_3 1_555 1_555
C43_3 C42_3 1_555 1_555
C44_3 C43_3 1_555 1_555
O12_3 C43_3 1_555 1_555
C46_3 O12_3 1_555 1_555
H37_3 C46_3 1_555 1_555
H38_3 C46_3 1_555 1_555
C47_3 C46_3 1_555 1_555
C48_3 C47_3 1_555 1_555
H39_3 C48_3 1_555 1_555
C49_3 C48_3 1_555 1_555
H40_3 C49_3 1_555 1_555
C50_3 C49_3 1_555 1_555
H41_3 C50_3 1_555 1_555
N4_3 C50_3 1_555 1_555
C51_3 C47_3 1_555 1_555
H42_3 C51_3 1_555 1_555
C52_3 C3_3 1_555 1_555
H43_3 C52_3 1_555 1_555
H44_3 C52_3 1_555 1_555
C53_2 H45_2 1_555 1_555
C54_2 C53_2 1_555 1_555
H46_2 C54_2 1_555 1_555
C55_2 C54_2 1_555 1_555
C56_2 C55_2 1_555 1_555
C57_2 C56_2 1_555 1_555
C58_2 C53_2 1_555 1_555
H47_2 C58_2 1_555 1_555
O13_2 C56_2 1_555 1_555
C59_2 O13_2 1_555 1_555
H48_2 C59_2 1_555 1_555
H49_2 C59_2 1_555 1_555
C60_2 C59_2 1_555 1_555
C61_2 C60_2 1_555 1_555
H50_2 C61_2 1_555 1_555
C62_3 C61_2 1_555 1_555
H51_3 C62_3 1_555 1_555
C63_3 C62_3 1_555 1_555
H52_3 C63_3 1_555 1_555
N5_3 C63_3 1_555 1_555
C64_2 C60_2 1_555 1_555
H53_2 C64_2 1_555 1_555
C65_2 C57_2 1_555 1_555
H54_2 C65_2 1_555 1_555
H55_2 C65_2 1_555 1_555
C66_2 H56_2 1_555 1_555
C67_2 C66_2 1_555 1_555
H57_2 C67_2 1_555 1_555
C68_2 C65_2 1_555 1_555
C69_2 C68_2 1_555 1_555
C70_2 C69_2 1_555 1_555
C71_2 C66_2 1_555 1_555
H58_2 C71_2 1_555 1_555
O14_2 C69_2 1_555 1_555
C72_2 O14_2 1_555 1_555
H59_2 C72_2 1_555 1_555
H60_2 C72_2 1_555 1_555
C73_2 C72_2 1_555 1_555
C74_3 C73_2 1_555 1_555
H61_3 C74_3 1_555 1_555
C75_3 C74_3 1_555 1_555
H62_3 C75_3 1_555 1_555
C76_3 C75_3 1_555 1_555
H63_3 C76_3 1_555 1_555
N6_3 C76_3 1_555 1_555
C77_2 C73_2 1_555 1_555
H64_2 C77_2 1_555 1_555
C78_2 C70_2 1_555 1_555
H65_2 C78_2 1_555 1_555
H66_2 C78_2 1_555 1_555
C79_2 H67_2 1_555 1_555
C80_2 C79_2 1_555 1_555
H68_2 C80_2 1_555 1_555
C81_2 C78_2 1_555 1_555
C82_2 C81_2 1_555 1_555
C83_2 C82_2 1_555 1_555
C84_2 C79_2 1_555 1_555
H69_2 C84_2 1_555 1_555
O15_2 C82_2 1_555 1_555
C85_2 O15_2 1_555 1_555
H70_2 C85_2 1_555 1_555
H71_2 C85_2 1_555 1_555
C86_2 C85_2 1_555 1_555
C87_2 C86_2 1_555 1_555
H72_2 C87_2 1_555 1_555
C88_2 C87_2 1_555 1_555
H73_2 C88_2 1_555 1_555
C89_2 C88_2 1_555 1_555
H74_2 C89_2 1_555 1_555
N7_2 C89_2 1_555 1_555
C90_2 C86_2 1_555 1_555
H75_3 C90_2 1_555 1_555
C91_2 C83_2 1_555 1_555
H76_2 C91_2 1_555 1_555
H77_2 C91_2 1_555 1_555
C92_2 H78_2 1_555 1_555
C93_2 C92_2 1_555 1_555
H79_2 C93_2 1_555 1_555
C94_2 C91_2 1_555 1_555
C95_2 C94_2 1_555 1_555
C96_2 C95_2 1_555 1_555
C97_2 C92_2 1_555 1_555
H80_2 C97_2 1_555 1_555
O16_2 C95_2 1_555 1_555
C98_2 O16_2 1_555 1_555
C99_2 C100_2 1_555 1_555
C100_2 H81_2 1_555 1_555
C101_2 C98_2 1_555 1_555
C104_2 C55_2 1_555 1_555
H84_3 C104_2 1_555 1_555
H85_2 C104_2 1_555 1_555
O17_3 Zn1_2 1_555 1_555
O18_3 Zn2_3 1_555 1_555
O19_3 Zn2_3 1_555 1_555
Zn1_2 N6_3 1_555 1_555
Zn2_3 N1_3 1_555 1_555
N9_3 Zn1_2 1_555 1_555
C105_3 N9_3 1_555 1_555
C106_3 C105_3 1_555 1_555
H86_3 C106_3 1_555 1_555
H87_3 C106_3 1_555 1_555
H88_3 C106_3 1_555 1_555
N10_2 Zn1_2 1_555 1_555
N11_3 Zn1_2 1_555 1_555
N12_3 Zn2_3 1_555 1_555
Zn3_2 N2_2 1_555 1_555
Zn4_3 N3_3 1_555 1_555
N1_3 C12_3 1_555 1_555
C22_3 C25_3 1_555 1_555
N2_2 C24_3 1_555 1_555
N3_3 C38_3 1_555 1_555
C44_3 C45_3 1_555 1_555
C44_3 C52_3 1_555 1_555
N4_3 C51_3 1_555 1_555
N4_3 Zn2_3 1_555 1_555
C57_2 C58_2 1_555 1_555
N5_3 C64_2 1_555 1_555
N5_3 Zn2_3 1_555 1_555
C67_2 C68_2 1_555 1_555
C70_2 C71_2 1_555 1_555
N6_3 C77_2 1_555 1_555
C80_2 C81_2 1_555 1_555
C83_2 C84_2 1_555 1_555
N7_2 C90_2 1_555 1_555
N7_2 Zn1_2 1_555 1_555
C93_2 C94_2 1_555 1_555
C96_2 C97_2 1_555 1_555
C96_2 C104_2 1_555 1_555
C100_2 C101_2 1_555 1_555
C98_2 H89_2 1_555 1_555
C98_2 H90_2 1_555 1_555
C99_2 H91_2 1_555 1_555
O18_3 H92_3 1_555 1_555
O18_3 H93_3 1_555 1_555
O19_3 H94_3 1_555 1_555
O19_3 H95_3 1_555 1_555
O17_3 H96_2 1_555 1_555
O17_3 H97_3 1_555 1_555
C3_4 C2_4 1_555 1_555
C4_4 C3_4 1_555 1_555
C5_4 C4_4 1_555 1_555
O9_4 C4_4 1_555 1_555
C7_4 O9_4 1_555 1_555
H4_4 C7_4 1_555 1_555
H5_4 C7_4 1_555 1_555
C8_4 C7_4 1_555 1_555
C9_4 C8_4 1_555 1_555
H6_4 C9_4 1_555 1_555
C10_4 C9_4 1_555 1_555
H7_4 C10_4 1_555 1_555
C11_4 C10_4 1_555 1_555
H8_4 C11_4 1_555 1_555
N1_4 C11_4 1_555 1_555
C12_4 C8_4 1_555 1_555
H9_4 C12_4 1_555 1_555
C13_4 C5_4 1_555 1_555
H10_4 C13_4 1_555 1_555
H11_4 C13_4 1_555 1_555
C16_4 C13_4 1_555 1_555
C17_4 C16_4 1_555 1_555
C18_4 C17_4 1_555 1_555
O10_4 C17_4 1_555 1_555
C20_4 H15_4 1_555 1_555
C21_4 C20_4 1_555 1_555
H16_4 C21_4 1_555 1_555
C22_4 C21_4 1_555 1_555
C23_4 C22_4 1_555 1_555
H17_4 C23_4 1_555 1_555
N10_2 C23_4 1_555 1_555
C24_4 C20_4 1_555 1_555
H18_4 C24_4 1_555 1_555
C25_4 O10_4 1_555 1_555
H19_4 C25_4 1_555 1_555
H20_4 C25_4 1_555 1_555
C26_4 C18_4 1_555 1_555
H21_4 C26_4 1_555 1_555
H22_4 C26_4 1_555 1_555
C29_4 C26_4 1_555 1_555
C30_4 C29_4 1_555 1_555
C31_4 C30_4 1_555 1_555
O11_4 C30_4 1_555 1_555
C33_4 O11_4 1_555 1_555
H26_4 C33_4 1_555 1_555
H27_4 C33_4 1_555 1_555
C34_4 C33_4 1_555 1_555
C35_4 C34_4 1_555 1_555
H28_4 C35_4 1_555 1_555
C36_4 C35_4 1_555 1_555
H29_4 C36_4 1_555 1_555
C37_4 C36_4 1_555 1_555
H30_4 C37_4 1_555 1_555
N3_4 C37_4 1_555 1_555
C38_4 C34_4 1_555 1_555
H31_4 C38_4 1_555 1_555
C39_4 C31_4 1_555 1_555
H32_4 C39_4 1_555 1_555
H33_4 C39_4 1_555 1_555
C42_4 C39_4 1_555 1_555
C43_4 C42_4 1_555 1_555
C44_4 C43_4 1_555 1_555
O12_4 C43_4 1_555 1_555
C46_4 O12_4 1_555 1_555
H37_4 C46_4 1_555 1_555
H38_4 C46_4 1_555 1_555
C47_4 C46_4 1_555 1_555
C48_4 C47_4 1_555 1_555
H39_4 C48_4 1_555 1_555
C49_4 C48_4 1_555 1_555
H40_4 C49_4 1_555 1_555
C50_4 C49_4 1_555 1_555
H41_4 C50_4 1_555 1_555
N4_4 C50_4 1_555 1_555
C51_4 C47_4 1_555 1_555
H42_4 C51_4 1_555 1_555
C52_4 C3_4 1_555 1_555
H43_4 C52_4 1_555 1_555
H44_4 C52_4 1_555 1_555
C53_3 H45_3 1_555 1_555
C54_3 C53_3 1_555 1_555
H46_3 C54_3 1_555 1_555
C55_3 C54_3 1_555 1_555
C56_3 C55_3 1_555 1_555
C57_3 C56_3 1_555 1_555
C58_3 C53_3 1_555 1_555
H47_3 C58_3 1_555 1_555
O13_3 C56_3 1_555 1_555
C59_3 O13_3 1_555 1_555
H48_3 C59_3 1_555 1_555
H49_3 C59_3 1_555 1_555
C60_3 C59_3 1_555 1_555
C61_3 C60_3 1_555 1_555
H50_3 C61_3 1_555 1_555
C62_4 C61_3 1_555 1_555
H51_4 C62_4 1_555 1_555
C63_4 C62_4 1_555 1_555
H52_4 C63_4 1_555 1_555
N5_4 C63_4 1_555 1_555
C64_3 C60_3 1_555 1_555
H53_3 C64_3 1_555 1_555
C65_3 C57_3 1_555 1_555
H54_3 C65_3 1_555 1_555
H55_3 C65_3 1_555 1_555
C66_3 H56_3 1_555 1_555
C67_3 C66_3 1_555 1_555
H57_3 C67_3 1_555 1_555
C68_3 C65_3 1_555 1_555
C69_3 C68_3 1_555 1_555
C70_3 C69_3 1_555 1_555
C71_3 C66_3 1_555 1_555
H58_3 C71_3 1_555 1_555
O14_3 C69_3 1_555 1_555
C72_3 O14_3 1_555 1_555
H59_3 C72_3 1_555 1_555
H60_3 C72_3 1_555 1_555
C73_3 C72_3 1_555 1_555
C74_4 C73_3 1_555 1_555
H61_4 C74_4 1_555 1_555
C75_4 C74_4 1_555 1_555
H62_4 C75_4 1_555 1_555
C76_4 C75_4 1_555 1_555
H63_4 C76_4 1_555 1_555
N6_4 C76_4 1_555 1_555
C77_3 C73_3 1_555 1_555
H64_3 C77_3 1_555 1_555
C78_3 C70_3 1_555 1_555
H65_3 C78_3 1_555 1_555
H66_3 C78_3 1_555 1_555
C79_3 H67_3 1_555 1_555
C80_3 C79_3 1_555 1_555
H68_3 C80_3 1_555 1_555
C81_3 C78_3 1_555 1_555
C82_3 C81_3 1_555 1_555
C83_3 C82_3 1_555 1_555
C84_3 C79_3 1_555 1_555
H69_3 C84_3 1_555 1_555
O15_3 C82_3 1_555 1_555
C85_3 O15_3 1_555 1_555
H70_3 C85_3 1_555 1_555
H71_3 C85_3 1_555 1_555
C86_3 C85_3 1_555 1_555
C87_3 C86_3 1_555 1_555
H72_3 C87_3 1_555 1_555
C88_3 C87_3 1_555 1_555
H73_3 C88_3 1_555 1_555
C89_3 C88_3 1_555 1_555
H74_3 C89_3 1_555 1_555
N7_3 C89_3 1_555 1_555
C90_3 C86_3 1_555 1_555
H75_4 C90_3 1_555 1_555
C91_3 C83_3 1_555 1_555
H76_3 C91_3 1_555 1_555
H77_3 C91_3 1_555 1_555
C92_3 H78_3 1_555 1_555
C93_3 C92_3 1_555 1_555
H79_3 C93_3 1_555 1_555
C94_3 C91_3 1_555 1_555
C95_3 C94_3 1_555 1_555
C96_3 C95_3 1_555 1_555
C97_3 C92_3 1_555 1_555
H80_3 C97_3 1_555 1_555
O16_3 C95_3 1_555 1_555
C98_3 O16_3 1_555 1_555
C99_3 C100_3 1_555 1_555
C100_3 H81_3 1_555 1_555
C101_3 C98_3 1_555 1_555
C102_4 C101_3 1_555 1_555
H82_4 C102_4 1_555 1_555
N8_4 C102_4 1_555 1_555
C103_3 C99_3 1_555 1_555
H83_3 C103_3 1_555 1_555
C104_3 C55_3 1_555 1_555
H84_4 C104_3 1_555 1_555
H85_3 C104_3 1_555 1_555
O17_4 Zn3_2 1_555 1_555
O18_4 Zn2_4 1_555 1_555
O19_4 Zn2_4 1_555 1_555
Zn3_2 N6_4 1_555 1_555
Zn2_4 N1_4 1_555 1_555
N9_4 Zn3_2 1_555 1_555
C105_4 N9_4 1_555 1_555
C106_4 C105_4 1_555 1_555
H86_4 C106_4 1_555 1_555
H87_4 C106_4 1_555 1_555
H88_4 C106_4 1_555 1_555
N11_4 Zn3_2 1_555 1_555
N12_4 Zn2_4 1_555 1_555
Zn4_4 N3_4 1_555 1_555
Zn5_4 N8_4 1_555 1_555
N1_4 C12_4 1_555 1_555
C22_4 C25_4 1_555 1_555
N10_2 C24_4 1_555 1_555
N3_4 C38_4 1_555 1_555
C44_4 C45_4 1_555 1_555
C44_4 C52_4 1_555 1_555
N4_4 C51_4 1_555 1_555
N4_4 Zn2_4 1_555 1_555
C57_3 C58_3 1_555 1_555
N5_4 C64_3 1_555 1_555
N5_4 Zn2_4 1_555 1_555
C67_3 C68_3 1_555 1_555
C70_3 C71_3 1_555 1_555
N6_4 C77_3 1_555 1_555
C80_3 C81_3 1_555 1_555
C83_3 C84_3 1_555 1_555
N7_3 C90_3 1_555 1_555
N7_3 Zn3_2 1_555 1_555
C93_3 C94_3 1_555 1_555
C96_3 C97_3 1_555 1_555
C96_3 C104_3 1_555 1_555
C100_3 C101_3 1_555 1_555
N8_4 C103_3 1_555 1_555
C98_3 H89_3 1_555 1_555
C98_3 H90_3 1_555 1_555
C99_3 H91_3 1_555 1_555
O18_4 H92_4 1_555 1_555
O18_4 H93_4 1_555 1_555
O19_4 H94_4 1_555 1_555
O19_4 H95_4 1_555 1_555
O17_4 H96_3 1_555 1_555
O17_4 H97_4 1_555 1_555
H51_5 C62_5 1_555 1_555
C63_5 C62_5 1_555 1_555
H52_5 C63_5 1_555 1_555
N5_5 C63_5 1_555 1_555
H61_5 C74_5 1_555 1_555
C75_5 C74_5 1_555 1_555
H62_5 C75_5 1_555 1_555
C76_5 C75_5 1_555 1_555
H63_5 C76_5 1_555 1_555
N6_5 C76_5 1_555 1_555
O17_5 Zn4_4 1_555 1_555
Zn4_4 N6_5 1_555 1_555
N9_5 Zn4_4 1_555 1_555
C105_5 N9_5 1_555 1_555
C106_5 C105_5 1_555 1_555
H86_5 C106_5 1_555 1_555
H87_5 C106_5 1_555 1_555
H88_5 C106_5 1_555 1_555
N10_3 Zn4_4 1_555 1_555
O19_5 H94_5 1_555 1_555
O19_5 H95_5 1_555 1_555
O17_5 H97_5 1_555 1_555
C1_3 H1_3 1_555 1_555
C2_5 C1_3 1_555 1_555
H2_3 C2_5 1_555 1_555
C3_5 C2_5 1_555 1_555
C4_5 C3_5 1_555 1_555
C5_5 C4_5 1_555 1_555
C6_3 C1_3 1_555 1_555
H3_3 C6_3 1_555 1_555
O9_5 C4_5 1_555 1_555
C7_5 O9_5 1_555 1_555
H4_5 C7_5 1_555 1_555
H5_5 C7_5 1_555 1_555
C8_5 C7_5 1_555 1_555
C9_5 C8_5 1_555 1_555
H6_5 C9_5 1_555 1_555
C10_5 C9_5 1_555 1_555
H7_5 C10_5 1_555 1_555
C11_5 C10_5 1_555 1_555
H8_5 C11_5 1_555 1_555
N1_5 C11_5 1_555 1_555
C12_5 C8_5 1_555 1_555
H9_5 C12_5 1_555 1_555
C13_5 C5_5 1_555 1_555
H10_5 C13_5 1_555 1_555
H11_5 C13_5 1_555 1_555
C14_3 H12_3 1_555 1_555
C15_3 C14_3 1_555 1_555
H13_3 C15_3 1_555 1_555
C16_5 C13_5 1_555 1_555
C17_5 C16_5 1_555 1_555
C18_5 C17_5 1_555 1_555
C19_3 C14_3 1_555 1_555
H14_3 C19_3 1_555 1_555
O10_5 C17_5 1_555 1_555
C20_5 H15_5 1_555 1_555
C21_5 C20_5 1_555 1_555
H16_5 C21_5 1_555 1_555
C22_5 C21_5 1_555 1_555
C23_5 C22_5 1_555 1_555
H17_5 C23_5 1_555 1_555
N2_3 C23_5 1_555 1_555
C24_5 C20_5 1_555 1_555
H18_5 C24_5 1_555 1_555
C25_5 O10_5 1_555 1_555
H19_5 C25_5 1_555 1_555
H20_5 C25_5 1_555 1_555
C26_5 C18_5 1_555 1_555
H21_5 C26_5 1_555 1_555
H22_5 C26_5 1_555 1_555
C27_3 H23_3 1_555 1_555
C28_3 C27_3 1_555 1_555
H24_3 C28_3 1_555 1_555
C29_5 C26_5 1_555 1_555
C30_5 C29_5 1_555 1_555
C31_5 C30_5 1_555 1_555
C32_3 C27_3 1_555 1_555
H25_3 C32_3 1_555 1_555
O11_5 C30_5 1_555 1_555
C33_5 O11_5 1_555 1_555
H26_5 C33_5 1_555 1_555
H27_5 C33_5 1_555 1_555
C34_5 C33_5 1_555 1_555
C35_5 C34_5 1_555 1_555
H28_5 C35_5 1_555 1_555
C36_5 C35_5 1_555 1_555
H29_5 C36_5 1_555 1_555
C37_5 C36_5 1_555 1_555
H30_5 C37_5 1_555 1_555
N11_4 C37_5 1_555 1_555
C38_5 C34_5 1_555 1_555
H31_5 C38_5 1_555 1_555
C39_5 C31_5 1_555 1_555
H32_5 C39_5 1_555 1_555
H33_5 C39_5 1_555 1_555
C40_3 H34_3 1_555 1_555
C41_3 C40_3 1_555 1_555
H35_3 C41_3 1_555 1_555
C42_5 C39_5 1_555 1_555
C43_5 C42_5 1_555 1_555
C44_5 C43_5 1_555 1_555
C45_5 C40_3 1_555 1_555
H36_3 C45_5 1_555 1_555
O12_5 C43_5 1_555 1_555
C46_5 O12_5 1_555 1_555
H37_5 C46_5 1_555 1_555
H38_5 C46_5 1_555 1_555
C47_5 C46_5 1_555 1_555
C48_5 C47_5 1_555 1_555
H39_5 C48_5 1_555 1_555
C49_5 C48_5 1_555 1_555
H40_5 C49_5 1_555 1_555
C50_5 C49_5 1_555 1_555
H41_5 C50_5 1_555 1_555
N4_5 C50_5 1_555 1_555
C51_5 C47_5 1_555 1_555
H42_5 C51_5 1_555 1_555
C52_5 C3_5 1_555 1_555
H43_5 C52_5 1_555 1_555
H44_5 C52_5 1_555 1_555
O18_5 Zn5 1_555 1_555
Zn5 N1_5 1_555 1_555
Zn4_3 N2_3 1_555 1_555
C5_5 C6_3 1_555 1_555
N1_5 C12_5 1_555 1_555
C15_3 C16_5 1_555 1_555
C18_5 C19_3 1_555 1_555
C22_5 C25_5 1_555 1_555
N2_3 C24_5 1_555 1_555
C28_3 C29_5 1_555 1_555
C31_5 C32_3 1_555 1_555
N11_4 C38_5 1_555 1_555
C41_3 C42_5 1_555 1_555
C44_5 C45_5 1_555 1_555
C44_5 C52_5 1_555 1_555
N4_5 C51_5 1_555 1_555
N4_5 Zn5 1_555 1_555
O18_5 H92_5 1_555 1_555
O18_5 H93_5 1_555 1_555
C61_4 C60_4 1_555 1_555
H50_4 C61_4 1_555 1_555
C66_4 H56_4 1_555 1_555
C67_4 C66_4 1_555 1_555
H57_4 C67_4 1_555 1_555
C69_4 C68_4 1_555 1_555
C70_4 C69_4 1_555 1_555
C71_4 C66_4 1_555 1_555
H58_4 C71_4 1_555 1_555
O14_4 C69_4 1_555 1_555
C72_4 O14_4 1_555 1_555
H59_4 C72_4 1_555 1_555
H60_4 C72_4 1_555 1_555
C73_4 C72_4 1_555 1_555
C77_4 C73_4 1_555 1_555
H64_4 C77_4 1_555 1_555
C78_4 C70_4 1_555 1_555
H65_4 C78_4 1_555 1_555
H66_4 C78_4 1_555 1_555
C79_4 H67_4 1_555 1_555
C80_4 C79_4 1_555 1_555
H68_4 C80_4 1_555 1_555
C81_4 C78_4 1_555 1_555
C82_4 C81_4 1_555 1_555
C83_4 C82_4 1_555 1_555
C84_4 C79_4 1_555 1_555
H69_4 C84_4 1_555 1_555
O15_4 C82_4 1_555 1_555
C85_4 O15_4 1_555 1_555
H70_4 C85_4 1_555 1_555
H71_4 C85_4 1_555 1_555
C86_4 C85_4 1_555 1_555
C87_4 C86_4 1_555 1_555
H72_4 C87_4 1_555 1_555
C88_4 C87_4 1_555 1_555
H73_4 C88_4 1_555 1_555
C89_4 C88_4 1_555 1_555
H74_4 C89_4 1_555 1_555
N7_4 C89_4 1_555 1_555
C90_4 C86_4 1_555 1_555
C91_4 C83_4 1_555 1_555
H76_4 C91_4 1_555 1_555
H77_4 C91_4 1_555 1_555
C92_4 H78_4 1_555 1_555
C93_4 C92_4 1_555 1_555
H79_4 C93_4 1_555 1_555
C94_4 C91_4 1_555 1_555
C95_4 C94_4 1_555 1_555
C96_4 C95_4 1_555 1_555
C97_4 C92_4 1_555 1_555
H80_4 C97_4 1_555 1_555
O16_4 C95_4 1_555 1_555
C98_4 O16_4 1_555 1_555
C100_4 H81_4 1_555 1_555
C101_4 C98_4 1_555 1_555
C102_5 C101_4 1_555 1_555
H82_5 C102_5 1_555 1_555
N12 C102_5 1_555 1_555
C67_4 C68_4 1_555 1_555
C70_4 C71_4 1_555 1_555
C80_4 C81_4 1_555 1_555
C83_4 C84_4 1_555 1_555
N7_4 C90_4 1_555 1_555
C93_4 C94_4 1_555 1_555
C96_4 C97_4 1_555 1_555
C100_4 C101_4 1_555 1_555
C98_4 H89_4 1_555 1_555
C98_4 H90_4 1_555 1_555
H82_6 C102_6 1_555 1_555
N12_2 C102_6 1_555 1_555
C1_4 H1_4 1_555 1_555
C2_6 C1_4 1_555 1_555
H2_4 C2_6 1_555 1_555
C3_6 C2_6 1_555 1_555
C4_6 C3_6 1_555 1_555
C5_6 C4_6 1_555 1_555
C6_4 C1_4 1_555 1_555
H3_4 C6_4 1_555 1_555
O9_6 C4_6 1_555 1_555
C7_6 O9_6 1_555 1_555
H4_6 C7_6 1_555 1_555
H5_6 C7_6 1_555 1_555
C8_6 C7_6 1_555 1_555
C9_6 C8_6 1_555 1_555
H6_6 C9_6 1_555 1_555
C10_6 C9_6 1_555 1_555
H7_6 C10_6 1_555 1_555
C11_6 C10_6 1_555 1_555
H8_6 C11_6 1_555 1_555
N1_6 C11_6 1_555 1_555
C12_6 C8_6 1_555 1_555
H9_6 C12_6 1_555 1_555
C13_6 C5_6 1_555 1_555
H10_6 C13_6 1_555 1_555
H11_6 C13_6 1_555 1_555
C14_4 H12_4 1_555 1_555
C15_4 C14_4 1_555 1_555
H13_4 C15_4 1_555 1_555
C16_6 C13_6 1_555 1_555
C17_6 C16_6 1_555 1_555
C18_6 C17_6 1_555 1_555
C19_4 C14_4 1_555 1_555
H14_4 C19_4 1_555 1_555
O10_6 C17_6 1_555 1_555
C20_6 H15_6 1_555 1_555
C21_6 C20_6 1_555 1_555
H16_6 C21_6 1_555 1_555
C22_6 C21_6 1_555 1_555
C23_6 C22_6 1_555 1_555
H17_6 C23_6 1_555 1_555
N10_3 C23_6 1_555 1_555
C24_6 C20_6 1_555 1_555
H18_6 C24_6 1_555 1_555
C25_6 O10_6 1_555 1_555
H19_6 C25_6 1_555 1_555
H20_6 C25_6 1_555 1_555
C26_6 C18_6 1_555 1_555
H21_6 C26_6 1_555 1_555
H22_6 C26_6 1_555 1_555
C27_4 H23_4 1_555 1_555
C28_4 C27_4 1_555 1_555
H24_4 C28_4 1_555 1_555
C29_6 C26_6 1_555 1_555
C30_6 C29_6 1_555 1_555
C31_6 C30_6 1_555 1_555
C32_4 C27_4 1_555 1_555
H25_4 C32_4 1_555 1_555
O11_6 C30_6 1_555 1_555
C33_6 O11_6 1_555 1_555
H26_6 C33_6 1_555 1_555
H27_6 C33_6 1_555 1_555
C34_6 C33_6 1_555 1_555
C35_6 C34_6 1_555 1_555
H28_6 C35_6 1_555 1_555
C36_6 C35_6 1_555 1_555
H29_6 C36_6 1_555 1_555
C37_6 C36_6 1_555 1_555
H30_6 C37_6 1_555 1_555
N11_3 C37_6 1_555 1_555
C38_6 C34_6 1_555 1_555
H31_6 C38_6 1_555 1_555
C39_6 C31_6 1_555 1_555
H32_6 C39_6 1_555 1_555
H33_6 C39_6 1_555 1_555
C40_4 H34_4 1_555 1_555
C41_4 C40_4 1_555 1_555
H35_4 C41_4 1_555 1_555
C42_6 C39_6 1_555 1_555
C43_6 C42_6 1_555 1_555
C44_6 C43_6 1_555 1_555
C45_6 C40_4 1_555 1_555
H36_4 C45_6 1_555 1_555
O12_6 C43_6 1_555 1_555
C46_6 O12_6 1_555 1_555
H37_6 C46_6 1_555 1_555
H38_6 C46_6 1_555 1_555
C47_6 C46_6 1_555 1_555
C48_6 C47_6 1_555 1_555
H39_6 C48_6 1_555 1_555
C49_6 C48_6 1_555 1_555
H40_6 C49_6 1_555 1_555
C50_6 C49_6 1_555 1_555
H41_6 C50_6 1_555 1_555
N4_6 C50_6 1_555 1_555
C51_6 C47_6 1_555 1_555
H42_6 C51_6 1_555 1_555
C52_6 C3_6 1_555 1_555
H43_6 C52_6 1_555 1_555
H44_6 C52_6 1_555 1_555
O18_6 Zn5_2 1_555 1_555
Zn5_2 N1_6 1_555 1_555
C5_6 C6_4 1_555 1_555
N1_6 C12_6 1_555 1_555
C15_4 C16_6 1_555 1_555
C18_6 C19_4 1_555 1_555
C22_6 C25_6 1_555 1_555
N10_3 C24_6 1_555 1_555
C28_4 C29_6 1_555 1_555
C31_6 C32_4 1_555 1_555
N11_3 C38_6 1_555 1_555
C41_4 C42_6 1_555 1_555
C44_6 C45_6 1_555 1_555
C44_6 C52_6 1_555 1_555
N4_6 C51_6 1_555 1_555
N4_6 Zn5_2 1_555 1_555
O18_6 H92_6 1_555 1_555
O18_6 H93_6 1_555 1_555
H51_6 C62_6 1_555 1_555
C63_6 C62_6 1_555 1_555
H52_6 C63_6 1_555 1_555
N5_6 C63_6 1_555 1_555
H61_6 C74_6 1_555 1_555
C75_6 C74_6 1_555 1_555
H62_6 C75_6 1_555 1_555
C76_6 C75_6 1_555 1_555
H63_6 C76_6 1_555 1_555
N6_6 C76_6 1_555 1_555
O17_6 Zn4_3 1_555 1_555
Zn4_3 N6_6 1_555 1_555
N9_6 Zn4_3 1_555 1_555
C105_6 N9_6 1_555 1_555
C106_6 C105_6 1_555 1_555
H86_6 C106_6 1_555 1_555
H87_6 C106_6 1_555 1_555
H88_6 C106_6 1_555 1_555
O19_6 H94_6 1_555 1_555
O19_6 H95_6 1_555 1_555
O17_6 H97_6 1_555 1_555
C3_7 C2_7 1_555 1_555
C4_7 C3_7 1_555 1_555
C5_7 C4_7 1_555 1_555
O9_7 C4_7 1_555 1_555
C7_7 O9_7 1_555 1_555
H4_7 C7_7 1_555 1_555
H5_7 C7_7 1_555 1_555
C8_7 C7_7 1_555 1_555
C9_7 C8_7 1_555 1_555
H6_7 C9_7 1_555 1_555
C10_7 C9_7 1_555 1_555
H7_7 C10_7 1_555 1_555
C11_7 C10_7 1_555 1_555
H8_7 C11_7 1_555 1_555
N1_7 C11_7 1_555 1_555
C12_7 C8_7 1_555 1_555
H9_7 C12_7 1_555 1_555
C13_7 C5_7 1_555 1_555
H10_7 C13_7 1_555 1_555
H11_7 C13_7 1_555 1_555
C16_7 C13_7 1_555 1_555
C17_7 C16_7 1_555 1_555
C18_7 C17_7 1_555 1_555
O10_7 C17_7 1_555 1_555
C20_7 H15_7 1_555 1_555
C21_7 C20_7 1_555 1_555
H16_7 C21_7 1_555 1_555
C22_7 C21_7 1_555 1_555
C23_7 C22_7 1_555 1_555
H17_7 C23_7 1_555 1_555
N2_4 C23_7 1_555 1_555
C24_7 C20_7 1_555 1_555
H18_7 C24_7 1_555 1_555
C25_7 O10_7 1_555 1_555
H19_7 C25_7 1_555 1_555
H20_7 C25_7 1_555 1_555
C26_7 C18_7 1_555 1_555
H21_7 C26_7 1_555 1_555
H22_7 C26_7 1_555 1_555
C29_7 C26_7 1_555 1_555
C30_7 C29_7 1_555 1_555
C31_7 C30_7 1_555 1_555
O11_7 C30_7 1_555 1_555
C33_7 O11_7 1_555 1_555
H26_7 C33_7 1_555 1_555
H27_7 C33_7 1_555 1_555
C34_7 C33_7 1_555 1_555
C35_7 C34_7 1_555 1_555
H28_7 C35_7 1_555 1_555
C36_7 C35_7 1_555 1_555
H29_7 C36_7 1_555 1_555
C37_7 C36_7 1_555 1_555
H30_7 C37_7 1_555 1_555
N11_2 C37_7 1_555 1_555
C38_7 C34_7 1_555 1_555
H31_7 C38_7 1_555 1_555
C39_7 C31_7 1_555 1_555
H32_7 C39_7 1_555 1_555
H33_7 C39_7 1_555 1_555
C42_7 C39_7 1_555 1_555
C43_7 C42_7 1_555 1_555
C44_7 C43_7 1_555 1_555
O12_7 C43_7 1_555 1_555
C46_7 O12_7 1_555 1_555
H37_7 C46_7 1_555 1_555
H38_7 C46_7 1_555 1_555
C47_7 C46_7 1_555 1_555
C48_7 C47_7 1_555 1_555
H39_7 C48_7 1_555 1_555
C49_7 C48_7 1_555 1_555
H40_7 C49_7 1_555 1_555
C50_7 C49_7 1_555 1_555
H41_7 C50_7 1_555 1_555
N4_7 C50_7 1_555 1_555
C51_7 C47_7 1_555 1_555
H42_7 C51_7 1_555 1_555
C52_7 C3_7 1_555 1_555
H43_7 C52_7 1_555 1_555
H44_7 C52_7 1_555 1_555
C53_4 H45_4 1_555 1_555
C54_4 C53_4 1_555 1_555
H46_4 C54_4 1_555 1_555
C55_4 C54_4 1_555 1_555
C56_4 C55_4 1_555 1_555
C57_4 C56_4 1_555 1_555
C58_4 C53_4 1_555 1_555
H47_4 C58_4 1_555 1_555
O13_5 C56_4 1_555 1_555
C59_4 O13_5 1_555 1_555
H48_4 C59_4 1_555 1_555
H49_4 C59_4 1_555 1_555
C60_5 C59_4 1_555 1_555
C61_5 C60_5 1_555 1_555
H50_5 C61_5 1_555 1_555
C62_7 C61_5 1_555 1_555
H51_7 C62_7 1_555 1_555
C63_7 C62_7 1_555 1_555
H52_7 C63_7 1_555 1_555
N5_7 C63_7 1_555 1_555
C64_4 C60_5 1_555 1_555
H53_4 C64_4 1_555 1_555
C65_4 C57_4 1_555 1_555
H54_4 C65_4 1_555 1_555
H55_4 C65_4 1_555 1_555
C66_5 H56_5 1_555 1_555
C67_5 C66_5 1_555 1_555
H57_5 C67_5 1_555 1_555
C68_5 C65_4 1_555 1_555
C69_5 C68_5 1_555 1_555
C70_5 C69_5 1_555 1_555
C71_5 C66_5 1_555 1_555
H58_5 C71_5 1_555 1_555
O14_5 C69_5 1_555 1_555
C72_5 O14_5 1_555 1_555
H59_5 C72_5 1_555 1_555
H60_5 C72_5 1_555 1_555
C73_5 C72_5 1_555 1_555
C74_7 C73_5 1_555 1_555
H61_7 C74_7 1_555 1_555
C75_7 C74_7 1_555 1_555
H62_7 C75_7 1_555 1_555
C76_7 C75_7 1_555 1_555
H63_7 C76_7 1_555 1_555
N6_7 C76_7 1_555 1_555
C77_5 C73_5 1_555 1_555
H64_5 C77_5 1_555 1_555
C78_5 C70_5 1_555 1_555
H65_5 C78_5 1_555 1_555
H66_5 C78_5 1_555 1_555
C79_5 H67_5 1_555 1_555
C80_5 C79_5 1_555 1_555
H68_5 C80_5 1_555 1_555
C81_5 C78_5 1_555 1_555
C82_5 C81_5 1_555 1_555
C83_5 C82_5 1_555 1_555
C84_5 C79_5 1_555 1_555
H69_5 C84_5 1_555 1_555
O15_5 C82_5 1_555 1_555
C85_5 O15_5 1_555 1_555
H70_5 C85_5 1_555 1_555
H71_5 C85_5 1_555 1_555
C86_5 C85_5 1_555 1_555
C87_5 C86_5 1_555 1_555
H72_5 C87_5 1_555 1_555
C88_5 C87_5 1_555 1_555
H73_5 C88_5 1_555 1_555
C89_5 C88_5 1_555 1_555
H74_5 C89_5 1_555 1_555
N7_5 C89_5 1_555 1_555
C90_5 C86_5 1_555 1_555
H75_7 C90_5 1_555 1_555
C91_5 C83_5 1_555 1_555
H76_5 C91_5 1_555 1_555
H77_5 C91_5 1_555 1_555
C92_5 H78_5 1_555 1_555
C93_5 C92_5 1_555 1_555
H79_5 C93_5 1_555 1_555
C94_5 C91_5 1_555 1_555
C95_5 C94_5 1_555 1_555
C96_5 C95_5 1_555 1_555
C97_5 C92_5 1_555 1_555
H80_5 C97_5 1_555 1_555
O16_5 C95_5 1_555 1_555
C98_5 O16_5 1_555 1_555
C99_4 C100_5 1_555 1_555
C100_5 H81_5 1_555 1_555
C101_5 C98_5 1_555 1_555
C104_4 C55_4 1_555 1_555
H84_6 C104_4 1_555 1_555
H85_4 C104_4 1_555 1_555
O17_7 Zn4_2 1_555 1_555
O18_7 Zn5_3 1_555 1_555
O19_7 Zn5_3 1_555 1_555
Zn4_2 N6_7 1_555 1_555
Zn5_3 N1_7 1_555 1_555
N9_7 Zn4_2 1_555 1_555
C105_7 N9_7 1_555 1_555
C106_7 C105_7 1_555 1_555
H86_7 C106_7 1_555 1_555
H87_7 C106_7 1_555 1_555
H88_7 C106_7 1_555 1_555
N10_4 Zn4_2 1_555 1_555
Zn4 N2_4 1_555 1_555
N1_7 C12_7 1_555 1_555
C22_7 C25_7 1_555 1_555
N2_4 C24_7 1_555 1_555
N11_2 C38_7 1_555 1_555
C44_7 C45_7 1_555 1_555
C44_7 C52_7 1_555 1_555
N4_7 C51_7 1_555 1_555
N4_7 Zn5_3 1_555 1_555
C57_4 C58_4 1_555 1_555
N5_7 C64_4 1_555 1_555
N5_7 Zn5_3 1_555 1_555
C67_5 C68_5 1_555 1_555
C70_5 C71_5 1_555 1_555
N6_7 C77_5 1_555 1_555
C80_5 C81_5 1_555 1_555
C83_5 C84_5 1_555 1_555
N7_5 C90_5 1_555 1_555
N7_5 Zn4_2 1_555 1_555
C93_5 C94_5 1_555 1_555
C96_5 C97_5 1_555 1_555
C96_5 C104_4 1_555 1_555
C100_5 C101_5 1_555 1_555
C98_5 H89_5 1_555 1_555
C98_5 H90_5 1_555 1_555
C99_4 H91_4 1_555 1_555
O18_7 H92_7 1_555 1_555
O18_7 H93_7 1_555 1_555
O19_7 H94_7 1_555 1_555
O19_7 H95_7 1_555 1_555
O17_7 H96_5 1_555 1_555
O17_7 H97_7 1_555 1_555
H82_7 C102_7 1_555 1_555
N12_3 C102_7 1_555 1_555
H83_4 C103_4 1_555 1_555
N12_3 C103_4 1_555 1_555
C3_8 C2_8 1_555 1_555
C4_8 C3_8 1_555 1_555
C5_8 C4_8 1_555 1_555
O9_8 C4_8 1_555 1_555
C7_8 O9_8 1_555 1_555
H4_8 C7_8 1_555 1_555
H5_8 C7_8 1_555 1_555
C8_8 C7_8 1_555 1_555
C9_8 C8_8 1_555 1_555
H6_8 C9_8 1_555 1_555
C10_8 C9_8 1_555 1_555
H7_8 C10_8 1_555 1_555
C11_8 C10_8 1_555 1_555
H8_8 C11_8 1_555 1_555
N1_8 C11_8 1_555 1_555
C12_8 C8_8 1_555 1_555
H9_8 C12_8 1_555 1_555
C13_8 C5_8 1_555 1_555
H10_8 C13_8 1_555 1_555
H11_8 C13_8 1_555 1_555
C16_8 C13_8 1_555 1_555
C17_8 C16_8 1_555 1_555
C18_8 C17_8 1_555 1_555
O10_8 C17_8 1_555 1_555
C20_8 H15_8 1_555 1_555
C21_8 C20_8 1_555 1_555
H16_8 C21_8 1_555 1_555
C22_8 C21_8 1_555 1_555
C23_8 C22_8 1_555 1_555
H17_8 C23_8 1_555 1_555
N10_4 C23_8 1_555 1_555
C24_8 C20_8 1_555 1_555
H18_8 C24_8 1_555 1_555
C25_8 O10_8 1_555 1_555
H19_8 C25_8 1_555 1_555
H20_8 C25_8 1_555 1_555
C26_8 C18_8 1_555 1_555
H21_8 C26_8 1_555 1_555
H22_8 C26_8 1_555 1_555
C29_8 C26_8 1_555 1_555
C30_8 C29_8 1_555 1_555
C31_8 C30_8 1_555 1_555
O11_8 C30_8 1_555 1_555
C33_8 O11_8 1_555 1_555
H26_8 C33_8 1_555 1_555
H27_8 C33_8 1_555 1_555
C34_8 C33_8 1_555 1_555
C35_8 C34_8 1_555 1_555
H28_8 C35_8 1_555 1_555
C36_8 C35_8 1_555 1_555
H29_8 C36_8 1_555 1_555
C37_8 C36_8 1_555 1_555
H30_8 C37_8 1_555 1_555
N11 C37_8 1_555 1_555
C38_8 C34_8 1_555 1_555
H31_8 C38_8 1_555 1_555
C39_8 C31_8 1_555 1_555
H32_8 C39_8 1_555 1_555
H33_8 C39_8 1_555 1_555
C42_8 C39_8 1_555 1_555
C43_8 C42_8 1_555 1_555
C44_8 C43_8 1_555 1_555
O12_8 C43_8 1_555 1_555
C46_8 O12_8 1_555 1_555
H37_8 C46_8 1_555 1_555
H38_8 C46_8 1_555 1_555
C47_8 C46_8 1_555 1_555
C48_8 C47_8 1_555 1_555
H39_8 C48_8 1_555 1_555
C49_8 C48_8 1_555 1_555
H40_8 C49_8 1_555 1_555
C50_8 C49_8 1_555 1_555
H41_8 C50_8 1_555 1_555
N4_8 C50_8 1_555 1_555
C51_8 C47_8 1_555 1_555
H42_8 C51_8 1_555 1_555
C52_8 C3_8 1_555 1_555
H43_8 C52_8 1_555 1_555
H44_8 C52_8 1_555 1_555
C53_5 H45_5 1_555 1_555
C54_5 C53_5 1_555 1_555
H46_5 C54_5 1_555 1_555
C55_5 C54_5 1_555 1_555
C56_5 C55_5 1_555 1_555
C57_5 C56_5 1_555 1_555
C58_5 C53_5 1_555 1_555
H47_5 C58_5 1_555 1_555
O13_6 C56_5 1_555 1_555
C59_5 O13_6 1_555 1_555
H48_5 C59_5 1_555 1_555
H49_5 C59_5 1_555 1_555
C60_6 C59_5 1_555 1_555
C61_6 C60_6 1_555 1_555
H50_6 C61_6 1_555 1_555
C62_8 C61_6 1_555 1_555
H51_8 C62_8 1_555 1_555
C63_8 C62_8 1_555 1_555
H52_8 C63_8 1_555 1_555
N5_8 C63_8 1_555 1_555
C64_5 C60_6 1_555 1_555
H53_5 C64_5 1_555 1_555
C65_5 C57_5 1_555 1_555
H54_5 C65_5 1_555 1_555
H55_5 C65_5 1_555 1_555
C66_6 H56_6 1_555 1_555
C67_6 C66_6 1_555 1_555
H57_6 C67_6 1_555 1_555
C68_6 C65_5 1_555 1_555
C69_6 C68_6 1_555 1_555
C70_6 C69_6 1_555 1_555
C71_6 C66_6 1_555 1_555
H58_6 C71_6 1_555 1_555
O14_6 C69_6 1_555 1_555
C72_6 O14_6 1_555 1_555
H59_6 C72_6 1_555 1_555
H60_6 C72_6 1_555 1_555
C73_6 C72_6 1_555 1_555
C74_8 C73_6 1_555 1_555
H61_8 C74_8 1_555 1_555
C75_8 C74_8 1_555 1_555
H62_8 C75_8 1_555 1_555
C76_8 C75_8 1_555 1_555
H63_8 C76_8 1_555 1_555
N6_8 C76_8 1_555 1_555
C77_6 C73_6 1_555 1_555
H64_6 C77_6 1_555 1_555
C78_6 C70_6 1_555 1_555
H65_6 C78_6 1_555 1_555
H66_6 C78_6 1_555 1_555
C79_6 H67_6 1_555 1_555
C80_6 C79_6 1_555 1_555
H68_6 C80_6 1_555 1_555
C81_6 C78_6 1_555 1_555
C82_6 C81_6 1_555 1_555
C83_6 C82_6 1_555 1_555
C84_6 C79_6 1_555 1_555
H69_6 C84_6 1_555 1_555
O15_6 C82_6 1_555 1_555
C85_6 O15_6 1_555 1_555
H70_6 C85_6 1_555 1_555
H71_6 C85_6 1_555 1_555
C86_6 C85_6 1_555 1_555
C87_6 C86_6 1_555 1_555
H72_6 C87_6 1_555 1_555
C88_6 C87_6 1_555 1_555
H73_6 C88_6 1_555 1_555
C89_6 C88_6 1_555 1_555
H74_6 C89_6 1_555 1_555
N7_6 C89_6 1_555 1_555
C90_6 C86_6 1_555 1_555
H75_8 C90_6 1_555 1_555
C91_6 C83_6 1_555 1_555
H76_6 C91_6 1_555 1_555
H77_6 C91_6 1_555 1_555
C92_6 H78_6 1_555 1_555
C93_6 C92_6 1_555 1_555
H79_6 C93_6 1_555 1_555
C94_6 C91_6 1_555 1_555
C95_6 C94_6 1_555 1_555
C96_6 C95_6 1_555 1_555
C97_6 C92_6 1_555 1_555
H80_6 C97_6 1_555 1_555
O16_6 C95_6 1_555 1_555
C98_6 O16_6 1_555 1_555
C99_5 C100_6 1_555 1_555
C100_6 H81_6 1_555 1_555
C101_6 C98_6 1_555 1_555
C102_8 C101_6 1_555 1_555
H82_8 C102_8 1_555 1_555
N12_4 C102_8 1_555 1_555
C103_5 C99_5 1_555 1_555
H83_5 C103_5 1_555 1_555
C104_5 C55_5 1_555 1_555
H84_7 C104_5 1_555 1_555
H85_5 C104_5 1_555 1_555
O17_8 Zn4 1_555 1_555
O18_8 Zn5_4 1_555 1_555
O19_8 Zn5_4 1_555 1_555
Zn4 N6_8 1_555 1_555
Zn5_4 N1_8 1_555 1_555
N9_8 Zn4 1_555 1_555
C105_8 N9_8 1_555 1_555
C106_8 C105_8 1_555 1_555
H86_8 C106_8 1_555 1_555
H87_8 C106_8 1_555 1_555
H88_8 C106_8 1_555 1_555
N1_8 C12_8 1_555 1_555
C22_8 C25_8 1_555 1_555
N10_4 C24_8 1_555 1_555
N11 C38_8 1_555 1_555
C44_8 C45_8 1_555 1_555
C44_8 C52_8 1_555 1_555
N4_8 C51_8 1_555 1_555
N4_8 Zn5_4 1_555 1_555
C57_5 C58_5 1_555 1_555
N5_8 C64_5 1_555 1_555
N5_8 Zn5_4 1_555 1_555
C67_6 C68_6 1_555 1_555
C70_6 C71_6 1_555 1_555
N6_8 C77_6 1_555 1_555
C80_6 C81_6 1_555 1_555
C83_6 C84_6 1_555 1_555
N7_6 C90_6 1_555 1_555
N7_6 Zn4 1_555 1_555
C93_6 C94_6 1_555 1_555
C96_6 C97_6 1_555 1_555
C96_6 C104_5 1_555 1_555
C100_6 C101_6 1_555 1_555
N12_4 C103_5 1_555 1_555
C98_6 H89_6 1_555 1_555
C98_6 H90_6 1_555 1_555
C99_5 H91_5 1_555 1_555
O18_8 H92_8 1_555 1_555
O18_8 H93_8 1_555 1_555
O19_8 H94_8 1_555 1_555
O19_8 H95_8 1_555 1_555
O17_8 H96_6 1_555 1_555
O17_8 H97_8 1_555 1_555
C61_7 C60_7 1_555 1_555
H50_7 C61_7 1_555 1_555
C66_7 H56_7 1_555 1_555
C67_7 C66_7 1_555 1_555
H57_7 C67_7 1_555 1_555
C69_7 C68_7 1_555 1_555
C70_7 C69_7 1_555 1_555
C71_7 C66_7 1_555 1_555
H58_7 C71_7 1_555 1_555
O14_7 C69_7 1_555 1_555
C72_7 O14_7 1_555 1_555
H59_7 C72_7 1_555 1_555
H60_7 C72_7 1_555 1_555
C73_7 C72_7 1_555 1_555
C77_7 C73_7 1_555 1_555
H64_7 C77_7 1_555 1_555
C78_7 C70_7 1_555 1_555
H65_7 C78_7 1_555 1_555
H66_7 C78_7 1_555 1_555
C79_7 H67_7 1_555 1_555
C80_7 C79_7 1_555 1_555
H68_7 C80_7 1_555 1_555
C81_7 C78_7 1_555 1_555
C82_7 C81_7 1_555 1_555
C83_7 C82_7 1_555 1_555
C84_7 C79_7 1_555 1_555
H69_7 C84_7 1_555 1_555
O15_7 C82_7 1_555 1_555
C85_7 O15_7 1_555 1_555
H70_7 C85_7 1_555 1_555
H71_7 C85_7 1_555 1_555
C86_7 C85_7 1_555 1_555
C87_7 C86_7 1_555 1_555
H72_7 C87_7 1_555 1_555
C88_7 C87_7 1_555 1_555
H73_7 C88_7 1_555 1_555
C89_7 C88_7 1_555 1_555
H74_7 C89_7 1_555 1_555
N7_7 C89_7 1_555 1_555
C90_7 C86_7 1_555 1_555
C91_7 C83_7 1_555 1_555
H76_7 C91_7 1_555 1_555
H77_7 C91_7 1_555 1_555
C92_7 H78_7 1_555 1_555
C93_7 C92_7 1_555 1_555
H79_7 C93_7 1_555 1_555
C94_7 C91_7 1_555 1_555
C95_7 C94_7 1_555 1_555
C96_7 C95_7 1_555 1_555
C97_7 C92_7 1_555 1_555
H80_7 C97_7 1_555 1_555
O16_7 C95_7 1_555 1_555
C98_7 O16_7 1_555 1_555
C100_7 H81_7 1_555 1_555
C101_7 C98_7 1_555 1_555
C67_7 C68_7 1_555 1_555
C70_7 C71_7 1_555 1_555
C80_7 C81_7 1_555 1_555
C83_7 C84_7 1_555 1_555
N7_7 C90_7 1_555 1_555
C93_7 C94_7 1_555 1_555
C96_7 C97_7 1_555 1_555
C100_7 C101_7 1_555 1_555
C98_7 H89_7 1_555 1_555
C98_7 H90_7 1_555 1_555
C53_6 H45_6 1_555 1_555
C54_6 C53_6 1_555 1_555
H46_6 C54_6 1_555 1_555
C55_6 C54_6 1_555 1_555
C56_6 C55_6 1_555 1_555
C57_6 C56_6 1_555 1_555
C58_6 C53_6 1_555 1_555
H47_6 C58_6 1_555 1_555
H48_6 C59_6 1_555 1_555
H49_6 C59_6 1_555 1_555
H53_6 C64_6 1_555 1_555
C65_6 C57_6 1_555 1_555
H54_6 C65_6 1_555 1_555
H55_6 C65_6 1_555 1_555
C104_6 C55_6 1_555 1_555
H84_9 C104_6 1_555 1_555
H85_6 C104_6 1_555 1_555
C57_6 C58_6 1_555 1_555
C99_6 H91_6 1_555 1_555
H83_6 C103_6 1_555 1_555
C1_5 H1_5 1_555 1_555
C6_5 C1_5 1_555 1_555
H3_5 C6_5 1_555 1_555
C14_5 H12_5 1_555 1_555
C15_5 C14_5 1_555 1_555
H13_5 C15_5 1_555 1_555
C19_5 C14_5 1_555 1_555
H14_5 C19_5 1_555 1_555
C27_5 H23_5 1_555 1_555
C28_5 C27_5 1_555 1_555
H24_5 C28_5 1_555 1_555
C32_5 C27_5 1_555 1_555
H25_5 C32_5 1_555 1_555
C40_5 H34_5 1_555 1_555
C41_5 C40_5 1_555 1_555
H35_5 C41_5 1_555 1_555
C1_6 H1_6 1_555 1_555
C6_6 C1_6 1_555 1_555
H3_6 C6_6 1_555 1_555
C14_6 H12_6 1_555 1_555
C15_6 C14_6 1_555 1_555
H13_6 C15_6 1_555 1_555
C19_6 C14_6 1_555 1_555
H14_6 C19_6 1_555 1_555
C27_6 H23_6 1_555 1_555
C28_6 C27_6 1_555 1_555
H24_6 C28_6 1_555 1_555
C32_6 C27_6 1_555 1_555
H25_6 C32_6 1_555 1_555
C40_6 H34_6 1_555 1_555
C41_6 C40_6 1_555 1_555
H35_6 C41_6 1_555 1_555
C53_7 H45_7 1_555 1_555
C54_7 C53_7 1_555 1_555
H46_7 C54_7 1_555 1_555
C55_7 C54_7 1_555 1_555
C56_7 C55_7 1_555 1_555
C57_7 C56_7 1_555 1_555
C58_7 C53_7 1_555 1_555
H47_7 C58_7 1_555 1_555
H48_7 C59_7 1_555 1_555
H49_7 C59_7 1_555 1_555
H53_7 C64_7 1_555 1_555
C65_7 C57_7 1_555 1_555
H54_7 C65_7 1_555 1_555
H55_7 C65_7 1_555 1_555
C103_7 C99_7 1_555 1_555
H83_7 C103_7 1_555 1_555
C104_7 C55_7 1_555 1_555
H84_10 C104_7 1_555 1_555
H85_7 C104_7 1_555 1_555
C57_7 C58_7 1_555 1_555
C99_7 H91_7 1_555 1_555
H83_8 C103_8 1_555 1_555
C53_8 H45_8 1_555 1_555
C54_8 C53_8 1_555 1_555
H46_8 C54_8 1_555 1_555
C55_8 C54_8 1_555 1_555
C56_8 C55_8 1_555 1_555
C57_8 C56_8 1_555 1_555
C58_8 C53_8 1_555 1_555
H47_8 C58_8 1_555 1_555
H48_8 C59_8 1_555 1_555
H49_8 C59_8 1_555 1_555
H53_8 C64_8 1_555 1_555
C65_8 C57_8 1_555 1_555
H54_8 C65_8 1_555 1_555
H55_8 C65_8 1_555 1_555
C104_8 C55_8 1_555 1_555
H84_11 C104_8 1_555 1_555
H85_8 C104_8 1_555 1_555
C57_8 C58_8 1_555 1_555
C99_8 H91_8 1_555 1_555
C61_8 C60_8 1_555 1_555
H50_8 C61_8 1_555 1_555
C66_8 H56_8 1_555 1_555
C67_8 C66_8 1_555 1_555
H57_8 C67_8 1_555 1_555
C69_8 C68_8 1_555 1_555
C70_8 C69_8 1_555 1_555
C71_8 C66_8 1_555 1_555
H58_8 C71_8 1_555 1_555
O14_8 C69_8 1_555 1_555
C72_8 O14_8 1_555 1_555
H59_8 C72_8 1_555 1_555
H60_8 C72_8 1_555 1_555
C73_8 C72_8 1_555 1_555
C77_8 C73_8 1_555 1_555
H64_8 C77_8 1_555 1_555
C78_8 C70_8 1_555 1_555
H65_8 C78_8 1_555 1_555
H66_8 C78_8 1_555 1_555
C79_8 H67_8 1_555 1_555
C80_8 C79_8 1_555 1_555
H68_8 C80_8 1_555 1_555
C81_8 C78_8 1_555 1_555
C82_8 C81_8 1_555 1_555
C83_8 C82_8 1_555 1_555
C84_8 C79_8 1_555 1_555
H69_8 C84_8 1_555 1_555
O15_8 C82_8 1_555 1_555
C85_8 O15_8 1_555 1_555
H70_8 C85_8 1_555 1_555
H71_8 C85_8 1_555 1_555
C86_8 C85_8 1_555 1_555
C87_8 C86_8 1_555 1_555
H72_8 C87_8 1_555 1_555
C88_8 C87_8 1_555 1_555
H73_8 C88_8 1_555 1_555
C89_8 C88_8 1_555 1_555
H74_8 C89_8 1_555 1_555
N7_8 C89_8 1_555 1_555
C90_8 C86_8 1_555 1_555
C91_8 C83_8 1_555 1_555
H76_8 C91_8 1_555 1_555
H77_8 C91_8 1_555 1_555
C92_8 H78_8 1_555 1_555
C93_8 C92_8 1_555 1_555
H79_8 C93_8 1_555 1_555
C94_8 C91_8 1_555 1_555
C95_8 C94_8 1_555 1_555
C96_8 C95_8 1_555 1_555
C97_8 C92_8 1_555 1_555
H80_8 C97_8 1_555 1_555
O16_8 C95_8 1_555 1_555
C98_8 O16_8 1_555 1_555
C100_8 H81_8 1_555 1_555
C101_8 C98_8 1_555 1_555
C67_8 C68_8 1_555 1_555
C70_8 C71_8 1_555 1_555
C80_8 C81_8 1_555 1_555
C83_8 C84_8 1_555 1_555
N7_8 C90_8 1_555 1_555
C93_8 C94_8 1_555 1_555
C96_8 C97_8 1_555 1_555
C100_8 C101_8 1_555 1_555
C98_8 H89_8 1_555 1_555
C98_8 H90_8 1_555 1_555
C1_7 H1_7 1_555 1_555
C6_7 C1_7 1_555 1_555
H3_7 C6_7 1_555 1_555
C14_7 H12_7 1_555 1_555
C15_7 C14_7 1_555 1_555
H13_7 C15_7 1_555 1_555
C19_7 C14_7 1_555 1_555
H14_7 C19_7 1_555 1_555
C27_7 H23_7 1_555 1_555
C28_7 C27_7 1_555 1_555
H24_7 C28_7 1_555 1_555
C32_7 C27_7 1_555 1_555
H25_7 C32_7 1_555 1_555
C40_7 H34_7 1_555 1_555
C41_7 C40_7 1_555 1_555
H35_7 C41_7 1_555 1_555
C1_8 H1_8 1_555 1_555
C6_8 C1_8 1_555 1_555
H3_8 C6_8 1_555 1_555
C14_8 H12_8 1_555 1_555
C15_8 C14_8 1_555 1_555
H13_8 C15_8 1_555 1_555
C19_8 C14_8 1_555 1_555
H14_8 C19_8 1_555 1_555
C27_8 H23_8 1_555 1_555
C28_8 C27_8 1_555 1_555
H24_8 C28_8 1_555 1_555
C32_8 C27_8 1_555 1_555
H25_8 C32_8 1_555 1_555
C40_8 H34_8 1_555 1_555
C41_8 C40_8 1_555 1_555
H35_8 C41_8 1_555 1_555

#END
