
###############################################################################
#
# This file contains modified crystal structure data generated from the
# MOF subset of the Cambridge Structural Database (CSD) v543 
# hosted by the Cambridge Crystallographic Data Centre (CCDC).
#
# This work is licensed under the Creative Commons
# Attribution-NonCommercial-ShareAlike 4.0 International License.
# To view a copy of this license, visit
# http://creativecommons.org/licenses/by-nc-sa/4.0/
# or send a letter to
# Creative Commons, PO Box 1866, Mountain View, CA 94042, USA.
#
# CIF created using the CSD Python API on 29 September 2022
# The structure has been converted into the P1 space group
# The structure has a 3D framework
# The original CSD entry AWEXOR is in the monoclinic crystal system
# The framework has been calculated to contain at least 10.0% void space
# The void calculation uses a probe of radius 1.32A, grid spacing 0.4
#
###############################################################################

data_AWEXOR
_chemical_formula_moiety         '(C184 H120 N15 O48 Zn8)n'
_symmetry_cell_setting           triclinic
_symmetry_space_group_name_H-M   'P 1'
_symmetry_Int_Tables_number      1
_space_group_name_Hall           'P 1'
loop_
_symmetry_equiv_pos_site_id
_symmetry_equiv_pos_as_xyz
1 x,y,z
_cell_length_a                   14.680
_cell_length_b                   24.780
_cell_length_c                   16.270
_cell_angle_alpha                90
_cell_angle_beta                 113.27
_cell_angle_gamma                90
_cell_volume                     5437.09
loop_
_atom_site_label
_atom_site_type_symbol
_atom_site_fract_x
_atom_site_fract_y
_atom_site_fract_z
C54 C 0.5694(10) 0.0243(6) 0.0714(7)
H36 H 0.6187 0.0420 0.1209
O13 O 0.5244(6) 0.9252(4) 0.2011(5)
N5 N 0.8315(5) 0.9548(3) 0.5040(5)
N6 N 0.6749(6) 0.9610(4) 0.2269(5)
H31 H 0.7119 0.9723 0.1990
C47 C 0.7307(8) 0.9560(6) 0.4676(7)
H32 H 0.6973 0.9577 0.5070
C48 C 0.6746(8) 0.9549(6) 0.3777(7)
H33 H 0.6043 0.9540 0.3554
C49 C 0.8744(7) 0.9529(4) 0.4465(6)
H34 H 0.9448 0.9514 0.4702
C50 C 0.8258(7) 0.9530(4) 0.3561(6)
H35 H 0.8616 0.9518 0.3186
C51 C 0.7231(8) 0.9550(5) 0.3196(6)
C52 C 0.5789(8) 0.9516(5) 0.1752(7)
C53 C 0.5408(8) 0.9759(5) 0.0836(7)
C55 C 0.4700(11) 0.9483(6) 0.0123(7)
H37 H 0.4489 0.9130 0.0193
Zn6 Zn 0.91378(8) 0.96994(5) 0.63464(6)
H44 H 0.2737 0.0090 0.9787
O30 O 0.1765(6) 0.0520(3) 0.8441(4)
O32 O 0.0280(5) 0.0523(3) 0.8455(4)
N8 N 0.1590(6) 0.9715(4) 0.9887(5)
Zn4 Zn 0.07387(8) 0.97683(5) 0.85674(7)
O20 O 0.0395(5) 0.9341(3) 0.6478(4)
O21 O 0.1373(5) 0.9361(3) 0.7926(4)
O22 O 0.4053(5) 0.8055(3) 0.6396(4)
O23 O 0.3235(6) 0.5520(3) 0.6559(4)
O24 O 0.4720(5) 0.5523(3) 0.6545(4)
C79 C 0.1189(6) 0.9238(4) 0.7133(6)
C80 C 0.1962(7) 0.8943(4) 0.6935(6)
C81 C 0.1877(8) 0.8865(5) 0.6061(7)
H53 H 0.1322 0.9010 0.5580
C82 C 0.2769(7) 0.8715(4) 0.7636(6)
H54 H 0.2836 0.8762 0.8237
C83 C 0.2580(8) 0.8583(5) 0.5882(7)
H55 H 0.2521 0.8540 0.5283
C84 C 0.3460(8) 0.8426(5) 0.7457(6)
H56 H 0.4004 0.8269 0.7935
C85 C 0.3377(7) 0.8359(4) 0.6581(6)
C86 C 0.3976(8) 0.7488(4) 0.6437(6)
C87 C 0.3206(8) 0.7229(4) 0.6557(6)
H57 H 0.2676 0.7428 0.6606
C88 C 0.4746(7) 0.7212(4) 0.6347(6)
H58 H 0.5259 0.7401 0.6252
C89 C 0.3230(8) 0.6663(5) 0.6604(6)
H59 H 0.2713 0.6480 0.6702
C90 C 0.4756(8) 0.6637(4) 0.6398(6)
H60 H 0.5288 0.6438 0.6353
C91 C 0.3973(8) 0.6367(4) 0.6514(6)
C92 C 0.3976(9) 0.5775(4) 0.6552(6)
Zn9 Zn 0.42613(8) 0.47683(5) 0.64326(7)
O26 O 0.9511(5) 0.0454(3) 0.6374(4)
O28 O 0.8080(5) 0.0477(3) 0.6492(4)
O15 O 0.9579(5) 0.9341(3) 0.8481(4)
O16 O 0.8572(5) 0.9300(3) 0.7032(4)
O17 O 0.6026(6) 0.7986(3) 0.8695(5)
O18 O 0.5489(5) 0.5454(3) 0.8626(4)
O19 O 0.6920(5) 0.5477(3) 0.8508(4)
C65 C 0.8799(7) 0.9200(4) 0.7848(6)
C66 C 0.8046(7) 0.8895(4) 0.8089(6)
C67 C 0.8230(8) 0.8754(4) 0.8967(6)
H45 H 0.8823 0.8872 0.9438
C68 C 0.7145(7) 0.8721(4) 0.7403(6)
H46 H 0.7014 0.8803 0.6796
C69 C 0.7575(9) 0.8451(5) 0.9158(7)
H47 H 0.7720 0.8353 0.9762
C70 C 0.6467(8) 0.8439(4) 0.7607(7)
H48 H 0.5842 0.8349 0.7151
C71 C 0.6697(9) 0.8281(4) 0.8491(7)
C72 C 0.6113(8) 0.7431(4) 0.8648(6)
C73 C 0.5391(7) 0.7141(4) 0.8777(6)
H49 H 0.4886 0.7322 0.8895
C74 C 0.6874(8) 0.7183(4) 0.8495(6)
H50 H 0.7381 0.7390 0.8421
C75 C 0.5395(7) 0.6572(4) 0.8735(6)
H51 H 0.4885 0.6367 0.8807
C76 C 0.6880(7) 0.6608(4) 0.8449(6)
H52 H 0.7383 0.6428 0.8324
C77 C 0.6163(7) 0.6317(4) 0.8586(6)
C78 C 0.6198(8) 0.5715(4) 0.8557(5)
Zn7 Zn 0.58622(8) 0.46994(5) 0.86536(6)
O14 O 0.0405(5) 0.5318(4) 0.2296(5)
N7 N 0.1774(6) 0.4819(4) 0.2358(5)
H38 H 0.2062 0.4677 0.2027
N8_2 N 0.3410(6) 0.4715(4) 0.5113(5)
C56 C 0.0656(8) 0.4606(5) 0.0489(6)
H39 H 0.1101 0.4332 0.0826
C58 C 0.0446(7) 0.5032(5) 0.0917(7)
C59 C 0.0855(7) 0.5061(5) 0.1922(6)
C60 C 0.2276(7) 0.4786(4) 0.3289(6)
C61 C 0.1900(8) 0.4957(7) 0.3908(7)
H41 H 0.1238 0.5085 0.3715
C62 C 0.3233(7) 0.4578(4) 0.3611(6)
H42 H 0.3516 0.4456 0.3210
C63 C 0.3753(7) 0.4552(4) 0.4507(6)
H43 H 0.4405 0.4408 0.4718
C64 C 0.2500(9) 0.4938(7) 0.4798(7)
H44_2 H 0.2263 0.5090 0.5213
O15_2 O 0.5421(5) 0.4341(3) 0.6519(4)
O16_2 O 0.6428(5) 0.4300(3) 0.7968(4)
O17_2 O 0.8974(6) 0.2986(3) 0.6305(5)
O20_2 O 0.4605(5) 0.4341(3) 0.8522(4)
O21_2 O 0.3627(5) 0.4361(3) 0.7074(4)
O22_2 O 0.0947(5) 0.3055(3) 0.8604(4)
C65_2 C 0.6201(7) 0.4200(4) 0.7152(6)
C66_2 C 0.6954(7) 0.3895(4) 0.6911(6)
C67_2 C 0.6770(8) 0.3754(4) 0.6033(6)
H45_2 H 0.6177 0.3872 0.5562
C68_2 C 0.7855(7) 0.3721(4) 0.7597(6)
H46_2 H 0.7986 0.3803 0.8204
C69_2 C 0.7425(9) 0.3451(5) 0.5842(7)
H47_2 H 0.7280 0.3353 0.5238
C70_2 C 0.8533(8) 0.3439(4) 0.7393(7)
H48_2 H 0.9158 0.3349 0.7849
C71_2 C 0.8303(9) 0.3281(4) 0.6509(7)
C72_2 C 0.8887(8) 0.2431(4) 0.6352(6)
C73_2 C 0.9609(7) 0.2141(4) 0.6223(6)
C74_2 C 0.8126(8) 0.2183(4) 0.6505(6)
H50_2 H 0.7619 0.2390 0.6579
C75_2 C 0.9605(7) 0.1572(4) 0.6265(6)
C76_2 C 0.8120(7) 0.1608(4) 0.6551(6)
H52_2 H 0.7617 0.1428 0.6676
C77_2 C 0.8837(7) 0.1317(4) 0.6414(6)
C78_2 C 0.8802(8) 0.0715(4) 0.6443(5)
C79_2 C 0.3811(6) 0.4238(4) 0.7867(6)
C80_2 C 0.3038(7) 0.3943(4) 0.8065(6)
C81_2 C 0.3123(8) 0.3865(5) 0.8939(7)
H53_2 H 0.3678 0.4010 0.9420
C82_2 C 0.2231(7) 0.3715(4) 0.7364(6)
H54_2 H 0.2164 0.3762 0.6763
C83_2 C 0.2420(8) 0.3583(5) 0.9118(7)
H55_2 H 0.2479 0.3540 0.9717
C84_2 C 0.1540(8) 0.3426(5) 0.7543(6)
H56_2 H 0.0996 0.3269 0.7065
C85_2 C 0.1623(7) 0.3359(4) 0.8419(6)
C86_2 C 0.1024(8) 0.2488(4) 0.8563(6)
C87_2 C 0.1794(8) 0.2229(4) 0.8443(6)
H57_2 H 0.2324 0.2428 0.8394
C88_2 C 0.0254(7) 0.2212(4) 0.8653(6)
C89_2 C 0.1770(8) 0.1663(5) 0.8396(6)
H59_2 H 0.2287 0.1480 0.8298
C90_2 C 0.0244(8) 0.1637(4) 0.8602(6)
C91_2 C 0.1027(8) 0.1367(4) 0.8486(6)
C92_2 C 0.1024(9) 0.0775(4) 0.8448(6)
N9 N 0.6685(5) 0.4548(3) 0.9960(5)
H32_2 H 0.8027 0.4577 0.9930
Zn1 Zn 0.08622(8) 0.03006(5) 0.36536(6)
O1 O 0.4756(6) 0.0748(4) 0.7989(5)
O3 O 0.0421(5) 0.0659(3) 0.1519(4)
O4 O 0.1428(5) 0.0700(3) 0.2968(4)
O5 O 0.3974(6) 0.2014(3) 0.1305(5)
O6 O 0.4511(5) 0.4546(3) 0.1374(4)
O7 O 0.3080(5) 0.4523(3) 0.1492(4)
N1 N 0.1685(5) 0.0452(3) 0.4960(5)
N2 N 0.3251(6) 0.0390(4) 0.7731(5)
H1 H 0.2881 0.0277 0.8010
C1 C 0.2693(8) 0.0440(6) 0.5324(7)
H3 H 0.3027 0.0423 0.4930
C2 C 0.3254(8) 0.0451(6) 0.6223(7)
H4 H 0.3957 0.0460 0.6446
C3 C 0.1256(7) 0.0471(4) 0.5535(6)
H5 H 0.0552 0.0486 0.5298
C4 C 0.1742(7) 0.0470(4) 0.6439(6)
H6 H 0.1384 0.0482 0.6814
C5 C 0.2769(8) 0.0450(5) 0.6804(6)
C6 C 0.4211(8) 0.0484(5) 0.8248(7)
C7 C 0.4592(8) 0.0241(5) 0.9164(7)
C9 C 0.5300(11) 0.0517(6) 0.9877(7)
H8 H 0.5511 0.0870 0.9807
C19 C 0.1201(7) 0.0800(4) 0.2152(6)
C20 C 0.1954(7) 0.1105(4) 0.1911(6)
C21 C 0.1770(8) 0.1246(4) 0.1033(6)
H15 H 0.1177 0.1128 0.0562
C22 C 0.2855(7) 0.1279(4) 0.2597(6)
H16 H 0.2986 0.1197 0.3204
C23 C 0.2425(9) 0.1549(5) 0.0842(7)
H17 H 0.2280 0.1647 0.0238
C24 C 0.3533(8) 0.1561(4) 0.2393(7)
H18 H 0.4158 0.1651 0.2849
C25 C 0.3303(9) 0.1719(4) 0.1509(7)
C26 C 0.3887(8) 0.2569(4) 0.1352(6)
C27 C 0.4609(7) 0.2859(4) 0.1223(6)
H19 H 0.5114 0.2678 0.1105
C28 C 0.3126(8) 0.2817(4) 0.1505(6)
H20 H 0.2619 0.2610 0.1579
C29 C 0.4605(7) 0.3428(4) 0.1265(6)
H21 H 0.5115 0.3633 0.1193
C30 C 0.3120(7) 0.3392(4) 0.1551(6)
H22 H 0.2617 0.3572 0.1676
C31 C 0.3837(7) 0.3683(4) 0.1414(6)
C32 C 0.3802(8) 0.4285(4) 0.1443(5)
Zn5 Zn 0.41378(8) 0.53006(5) 0.13464(6)
C8 C 0.4306(10) 0.9757(6) 0.9286(7)
H7 H 0.3813 0.9580 0.8791
O25 O 0.0489(5) 0.9546(3) 0.3626(4)
O27 O 0.1920(5) 0.9523(3) 0.3508(4)
Zn2 Zn 0.92613(8) 0.02317(5) 0.14326(7)
O8 O 0.9605(5) 0.0659(3) 0.3522(4)
O9 O 0.8627(5) 0.0639(3) 0.2074(4)
O10 O 0.5947(5) 0.1945(3) 0.3604(4)
O11 O 0.6765(6) 0.4480(3) 0.3441(4)
O12 O 0.5280(5) 0.4477(3) 0.3455(4)
N4 N 0.8410(6) 0.0285(4) 0.0113(5)
C33 C 0.8811(6) 0.0762(4) 0.2867(6)
C34 C 0.8038(7) 0.1057(4) 0.3065(6)
C35 C 0.8123(8) 0.1135(5) 0.3939(7)
H23 H 0.8678 0.0990 0.4420
C36 C 0.7231(7) 0.1285(4) 0.2364(6)
H24 H 0.7164 0.1238 0.1763
C37 C 0.7420(8) 0.1417(5) 0.4118(7)
H25 H 0.7479 0.1460 0.4717
C38 C 0.6540(8) 0.1574(5) 0.2543(6)
H26 H 0.5996 0.1731 0.2065
C39 C 0.6623(7) 0.1641(4) 0.3419(6)
C40 C 0.6024(8) 0.2512(4) 0.3563(6)
C41 C 0.6794(8) 0.2771(4) 0.3443(6)
H27 H 0.7324 0.2572 0.3394
C42 C 0.5254(7) 0.2788(4) 0.3653(6)
H28 H 0.4741 0.2599 0.3748
C43 C 0.6770(8) 0.3337(5) 0.3396(6)
H29 H 0.7287 0.3520 0.3298
C44 C 0.5244(8) 0.3363(4) 0.3602(6)
H30 H 0.4712 0.3562 0.3647
C45 C 0.6027(8) 0.3633(4) 0.3486(6)
C46 C 0.6024(9) 0.4225(4) 0.3448(6)
Zn8 Zn 0.57387(8) 0.52317(5) 0.35674(7)
H14 H 0.7263 0.9910 0.0213
O29 O 0.8235(6) 0.9480(3) 0.1559(4)
O31 O 0.9720(5) 0.9477(3) 0.1545(4)
O2 O 0.9595(5) 0.4682(4) 0.7704(5)
O3_2 O 0.4579(5) 0.5659(3) 0.3481(4)
O4_2 O 0.3572(5) 0.5700(3) 0.2032(4)
O5_2 O 0.1026(6) 0.7014(3) 0.3695(5)
O8_2 O 0.5395(5) 0.5659(3) 0.1478(4)
O9_2 O 0.6373(5) 0.5639(3) 0.2926(4)
O10_2 O 0.9053(5) 0.6945(3) 0.1396(4)
N1_2 N 0.3315(5) 0.5452(3) 0.0040(5)
N3 N 0.8226(6) 0.5181(4) 0.7642(5)
H2 H 0.7938 0.5323 0.7973
N4_2 N 0.6590(6) 0.5285(4) 0.4887(5)
H3_2 H 0.1973 0.5423 0.0070
C10 C 0.9344(8) 0.5394(5) 0.9511(6)
H9 H 0.8899 0.5668 0.9174
C12 C 0.9554(7) 0.4968(5) 0.9083(7)
C13 C 0.9145(7) 0.4939(5) 0.8078(6)
C14 C 0.7724(7) 0.5214(4) 0.6711(6)
C15 C 0.8100(8) 0.5043(7) 0.6092(7)
H11 H 0.8762 0.4915 0.6285
C16 C 0.6767(7) 0.5422(4) 0.6389(6)
H12 H 0.6484 0.5544 0.6790
C17 C 0.6247(7) 0.5448(4) 0.5493(6)
H13 H 0.5595 0.5592 0.5282
C18 C 0.7500(9) 0.5062(7) 0.5202(7)
H14_2 H 0.7737 0.4910 0.4787
C19_2 C 0.3799(7) 0.5800(4) 0.2848(6)
C20_2 C 0.3046(7) 0.6105(4) 0.3089(6)
C21_2 C 0.3230(8) 0.6246(4) 0.3967(6)
H15_2 H 0.3823 0.6128 0.4438
C22_2 C 0.2145(7) 0.6279(4) 0.2403(6)
H16_2 H 0.2014 0.6197 0.1796
C23_2 C 0.2575(9) 0.6549(5) 0.4158(7)
H17_2 H 0.2720 0.6647 0.4762
C24_2 C 0.1467(8) 0.6561(4) 0.2607(7)
H18_2 H 0.0842 0.6651 0.2151
C25_2 C 0.1697(9) 0.6719(4) 0.3491(7)
C26_2 C 0.1113(8) 0.7569(4) 0.3648(6)
C27_2 C 0.0391(7) 0.7859(4) 0.3777(6)
C28_2 C 0.1874(8) 0.7817(4) 0.3495(6)
H20_2 H 0.2381 0.7610 0.3421
C29_2 C 0.0395(7) 0.8428(4) 0.3735(6)
C30_2 C 0.1880(7) 0.8392(4) 0.3449(6)
H22_2 H 0.2383 0.8572 0.3324
C31_2 C 0.1163(7) 0.8683(4) 0.3586(6)
C32_2 C 0.1198(8) 0.9285(4) 0.3557(5)
C33_2 C 0.6189(6) 0.5762(4) 0.2133(6)
C34_2 C 0.6962(7) 0.6057(4) 0.1935(6)
C35_2 C 0.6877(8) 0.6135(5) 0.1061(7)
H23_2 H 0.6322 0.5990 0.0580
C36_2 C 0.7769(7) 0.6285(4) 0.2636(6)
H24_2 H 0.7836 0.6238 0.3237
C37_2 C 0.7580(8) 0.6417(5) 0.0882(7)
H25_2 H 0.7521 0.6460 0.0283
C38_2 C 0.8460(8) 0.6574(5) 0.2457(6)
H26_2 H 0.9004 0.6731 0.2935
C39_2 C 0.8377(7) 0.6641(4) 0.1581(6)
C40_2 C 0.8976(8) 0.7512(4) 0.1437(6)
C41_2 C 0.8206(8) 0.7771(4) 0.1557(6)
H27_2 H 0.7676 0.7572 0.1606
C42_2 C 0.9746(7) 0.7788(4) 0.1347(6)
C43_2 C 0.8230(8) 0.8337(5) 0.1604(6)
H29_2 H 0.7713 0.8520 0.1702
C44_2 C 0.9756(8) 0.8363(4) 0.1398(6)
C45_2 C 0.8973(8) 0.8633(4) 0.1514(6)
C46_2 C 0.8976(9) 0.9225(4) 0.1552(6)
N3_2 N 0.6774(6) 0.0181(4) 0.7358(5)
H2_2 H 0.7062 0.0323 0.7027
C10_2 C 0.5656(8) 0.0394(5) 0.5489(6)
H9_2 H 0.6101 0.0668 0.5826
C14_2 C 0.7276(7) 0.0214(4) 0.8289(6)
C15_2 C 0.6900(8) 0.0043(7) 0.8908(7)
C16_2 C 0.8233(7) 0.0422(4) 0.8611(6)
H12_2 H 0.8516 0.0544 0.8210
C17_2 C 0.8753(7) 0.0448(4) 0.9507(6)
H13_2 H 0.9405 0.0592 0.9718
C18_2 C 0.7500(9) 0.0062(7) 0.9798(7)
O14_2 O 0.4595(5) 0.0318(4) 0.2704(5)
C57 C 0.5218(8) 0.0429(5) 0.4559(6)
H40 H 0.5372 0.0719 0.4256
C58_2 C 0.4554(7) 0.0032(5) 0.4083(7)
C59_2 C 0.4145(7) 0.0061(5) 0.3078(6)
H41_2 H 0.3762 0.0085 0.1285
O2_2 O 0.5405(5) 0.9682(4) 0.7296(5)
C11 C 0.4782(8) 0.9571(5) 0.5441(6)
H10 H 0.4628 0.9281 0.5744
C12_2 C 0.5446(7) 0.9968(5) 0.5917(7)
C13_2 C 0.5855(7) 0.9939(5) 0.6922(6)
H11_2 H 0.6238 0.9915 0.8715
N7_2 N 0.3226(6) 0.9819(4) 0.2642(5)
H38_2 H 0.2938 0.9677 0.2973
C56_2 C 0.4344(8) 0.9606(5) 0.4511(6)
H39_2 H 0.3899 0.9332 0.4174
C60_2 C 0.2724(7) 0.9786(4) 0.1711(6)
C61_2 C 0.3100(8) 0.9957(7) 0.1092(7)
C62_2 C 0.1767(7) 0.9578(4) 0.1389(6)
H42_2 H 0.1484 0.9456 0.1790
C63_2 C 0.1247(7) 0.9552(4) 0.0493(6)
H43_2 H 0.0595 0.9408 0.0282
C64_2 C 0.2500(9) 0.9938(7) 0.0202(7)
H49_2 H 0.0114 0.2322 0.6105
H51_2 H 0.0115 0.1367 0.6193
C11_2 C 0.0218(8) 0.4571(5) 0.9559(6)
H10_2 H 0.0372 0.4281 0.9256
H28_2 H 0.0259 0.7599 0.1252
H30_2 H 0.0288 0.8562 0.1353
C57_2 C 0.9782(8) 0.5429(5) 0.0441(6)
H40_2 H 0.9628 0.5719 0.0744
H58_2 H 0.9741 0.2401 0.8748
H60_2 H 0.9712 0.1438 0.8647
O1_2 O 0.0244(6) 0.5748(4) 0.7011(5)
N2_2 N 0.1749(6) 0.5390(4) 0.7269(5)
H1_2 H 0.2119 0.5277 0.6990
C1_2 C 0.2307(8) 0.5440(6) 0.9676(7)
C2_2 C 0.1746(8) 0.5451(6) 0.8777(7)
H4_2 H 0.1043 0.5460 0.8554
C3_2 C 0.3744(7) 0.5471(4) 0.9465(6)
H5_2 H 0.4448 0.5486 0.9702
C4_2 C 0.3258(7) 0.5470(4) 0.8561(6)
H6_2 H 0.3616 0.5482 0.8186
C5_2 C 0.2231(8) 0.5450(5) 0.8196(6)
C6_2 C 0.0789(8) 0.5484(5) 0.6752(7)
C7_2 C 0.0408(8) 0.5241(5) 0.5836(7)
C8_2 C 0.0694(10) 0.4757(6) 0.5714(7)
H7_2 H 0.1187 0.4580 0.6209
C55_2 C 0.0300(11) 0.4483(6) 0.4877(7)
H37_2 H 0.0511 0.4130 0.4807
H19_2 H 0.9886 0.7678 0.3895
H21_2 H 0.9885 0.8633 0.3807
C9_2 C 0.9700(11) 0.5517(6) 0.5123(7)
H8_2 H 0.9489 0.5870 0.5193
O13_2 O 0.9756(6) 0.4252(4) 0.2989(5)
N6_2 N 0.8251(6) 0.4610(4) 0.2731(5)
H31_2 H 0.7881 0.4723 0.3010
C47_2 C 0.7693(8) 0.4560(6) 0.0324(7)
C48_2 C 0.8254(8) 0.4549(6) 0.1223(7)
H33_2 H 0.8957 0.4540 0.1446
C49_2 C 0.6256(7) 0.4529(4) 0.0535(6)
H34_2 H 0.5552 0.4514 0.0298
C50_2 C 0.6742(7) 0.4530(4) 0.1439(6)
H35_2 H 0.6384 0.4518 0.1814
C51_2 C 0.7769(8) 0.4550(5) 0.1804(6)
C52_2 C 0.9211(8) 0.4516(5) 0.3248(7)
C53_2 C 0.9592(8) 0.4759(5) 0.4164(7)
C54_2 C 0.9306(10) 0.5243(6) 0.4286(7)
H36_2 H 0.8813 0.5420 0.3791
loop_
_geom_bond_atom_site_label_1
_geom_bond_atom_site_label_2
_geom_bond_site_symmetry_1
_geom_bond_site_symmetry_2
H36 C54 1_555 1_555
O13 C52 1_555 1_555
N5 C47 1_555 1_555
N6 H31 1_555 1_555
C47 H32 1_555 1_555
C48 C47 1_555 1_555
H33 C48 1_555 1_555
C49 N5 1_555 1_555
H34 C49 1_555 1_555
C50 C49 1_555 1_555
H35 C50 1_555 1_555
C51 N6 1_555 1_555
C52 N6 1_555 1_555
C53 C52 1_555 1_555
H37 C55 1_555 1_555
Zn6 N5 1_555 1_555
C48 C51 1_555 1_555
C50 C51 1_555 1_555
C53 C55 1_555 1_555
Zn4 N8 1_555 1_555
O21 Zn4 1_555 1_555
O22 C85 1_555 1_555
O23 C92 1_555 1_555
O24 C92 1_555 1_555
C79 O20 1_555 1_555
C80 C79 1_555 1_555
C81 C80 1_555 1_555
H53 C81 1_555 1_555
C82 C80 1_555 1_555
H54 C82 1_555 1_555
C83 C81 1_555 1_555
H55 C83 1_555 1_555
C84 C82 1_555 1_555
H56 C84 1_555 1_555
C85 C83 1_555 1_555
C86 O22 1_555 1_555
C87 C86 1_555 1_555
H57 C87 1_555 1_555
C88 C86 1_555 1_555
H58 C88 1_555 1_555
C89 C87 1_555 1_555
H59 C89 1_555 1_555
C90 C88 1_555 1_555
H60 C90 1_555 1_555
C91 C89 1_555 1_555
C92 C91 1_555 1_555
Zn9 O23 1_555 1_555
O21 C79 1_555 1_555
O24 Zn9 1_555 1_555
C84 C85 1_555 1_555
C90 C91 1_555 1_555
Zn6 O16 1_555 1_555
O16 C65 1_555 1_555
O17 C71 1_555 1_555
O18 C78 1_555 1_555
O19 C78 1_555 1_555
C65 O15 1_555 1_555
C66 C65 1_555 1_555
C67 C66 1_555 1_555
H45 C67 1_555 1_555
C68 C66 1_555 1_555
H46 C68 1_555 1_555
C69 C67 1_555 1_555
H47 C69 1_555 1_555
C70 C68 1_555 1_555
H48 C70 1_555 1_555
C71 C69 1_555 1_555
C72 O17 1_555 1_555
C73 C72 1_555 1_555
H49 C73 1_555 1_555
C74 C72 1_555 1_555
H50 C74 1_555 1_555
C75 C73 1_555 1_555
H51 C75 1_555 1_555
C76 C74 1_555 1_555
H52 C76 1_555 1_555
C77 C75 1_555 1_555
C78 C77 1_555 1_555
Zn7 O18 1_555 1_555
O19 Zn7 1_555 1_555
C70 C71 1_555 1_555
C76 C77 1_555 1_555
O14 C59 1_555 1_555
N7 H38 1_555 1_555
N8_2 C63 1_555 1_555
H39 C56 1_555 1_555
C58 C56 1_555 1_555
C59 N7 1_555 1_555
C60 N7 1_555 1_555
C61 C60 1_555 1_555
H41 C61 1_555 1_555
C62 C60 1_555 1_555
H42 C62 1_555 1_555
C63 C62 1_555 1_555
H43 C63 1_555 1_555
C64 N8_2 1_555 1_555
H44_2 C64 1_555 1_555
Zn7 O16_2 1_555 1_555
Zn9 N8_2 1_555 1_555
O15_2 Zn9 1_555 1_555
O16_2 C65_2 1_555 1_555
O17_2 C71_2 1_555 1_555
O26 C78_2 1_555 1_555
O28 C78_2 1_555 1_555
O20_2 Zn7 1_555 1_555
O21_2 Zn9 1_555 1_555
O22_2 C85_2 1_555 1_555
O30 C92_2 1_555 1_555
O32 C92_2 1_555 1_555
C65_2 O15_2 1_555 1_555
C66_2 C65_2 1_555 1_555
C67_2 C66_2 1_555 1_555
H45_2 C67_2 1_555 1_555
C68_2 C66_2 1_555 1_555
H46_2 C68_2 1_555 1_555
C69_2 C67_2 1_555 1_555
H47_2 C69_2 1_555 1_555
C70_2 C68_2 1_555 1_555
H48_2 C70_2 1_555 1_555
C71_2 C69_2 1_555 1_555
C72_2 O17_2 1_555 1_555
C73_2 C72_2 1_555 1_555
C74_2 C72_2 1_555 1_555
H50_2 C74_2 1_555 1_555
C75_2 C73_2 1_555 1_555
C76_2 C74_2 1_555 1_555
H52_2 C76_2 1_555 1_555
C77_2 C75_2 1_555 1_555
C78_2 C77_2 1_555 1_555
C79_2 O20_2 1_555 1_555
C80_2 C79_2 1_555 1_555
C81_2 C80_2 1_555 1_555
H53_2 C81_2 1_555 1_555
C82_2 C80_2 1_555 1_555
H54_2 C82_2 1_555 1_555
C83_2 C81_2 1_555 1_555
H55_2 C83_2 1_555 1_555
C84_2 C82_2 1_555 1_555
H56_2 C84_2 1_555 1_555
C85_2 C83_2 1_555 1_555
C86_2 O22_2 1_555 1_555
C87_2 C86_2 1_555 1_555
H57_2 C87_2 1_555 1_555
C88_2 C86_2 1_555 1_555
C89_2 C87_2 1_555 1_555
H59_2 C89_2 1_555 1_555
C90_2 C88_2 1_555 1_555
C91_2 C89_2 1_555 1_555
C92_2 C91_2 1_555 1_555
N9 Zn7 1_555 1_555
C58 C59 1_555 1_555
C61 C64 1_555 1_555
O21_2 C79_2 1_555 1_555
C70_2 C71_2 1_555 1_555
C76_2 C77_2 1_555 1_555
C84_2 C85_2 1_555 1_555
C90_2 C91_2 1_555 1_555
Zn1 O4 1_555 1_555
O1 C6 1_555 1_555
O3 C19 1_555 1_555
O4 C19 1_555 1_555
O5 C25 1_555 1_555
O6 C32 1_555 1_555
O7 C32 1_555 1_555
N1 Zn1 1_555 1_555
N2 H1 1_555 1_555
C1 N1 1_555 1_555
H3 C1 1_555 1_555
C2 C1 1_555 1_555
H4 C2 1_555 1_555
C3 N1 1_555 1_555
H5 C3 1_555 1_555
C4 C3 1_555 1_555
H6 C4 1_555 1_555
C5 N2 1_555 1_555
C6 N2 1_555 1_555
C7 C6 1_555 1_555
C9 C7 1_555 1_555
H8 C9 1_555 1_555
C19 C20 1_555 1_555
C20 C21 1_555 1_555
C21 H15 1_555 1_555
C22 C20 1_555 1_555
H16 C22 1_555 1_555
C23 C21 1_555 1_555
H17 C23 1_555 1_555
C24 C22 1_555 1_555
H18 C24 1_555 1_555
C25 C23 1_555 1_555
C26 O5 1_555 1_555
C27 C26 1_555 1_555
H19 C27 1_555 1_555
C28 C26 1_555 1_555
H20 C28 1_555 1_555
C29 C27 1_555 1_555
H21 C29 1_555 1_555
C30 C28 1_555 1_555
H22 C30 1_555 1_555
C31 C29 1_555 1_555
C32 C31 1_555 1_555
Zn5 O6 1_555 1_555
O7 Zn5 1_555 1_555
C2 C5 1_555 1_555
C4 C5 1_555 1_555
C24 C25 1_555 1_555
C30 C31 1_555 1_555
H7 C8 1_555 1_555
O9 Zn2 1_555 1_555
O10 C39 1_555 1_555
O11 C46 1_555 1_555
O12 C46 1_555 1_555
N4 Zn2 1_555 1_555
C33 O8 1_555 1_555
C34 C33 1_555 1_555
C35 C34 1_555 1_555
H23 C35 1_555 1_555
C36 C34 1_555 1_555
H24 C36 1_555 1_555
C37 C35 1_555 1_555
H25 C37 1_555 1_555
C38 C36 1_555 1_555
H26 C38 1_555 1_555
C39 C37 1_555 1_555
C40 O10 1_555 1_555
C41 C40 1_555 1_555
H27 C41 1_555 1_555
C42 C40 1_555 1_555
H28 C42 1_555 1_555
C43 C41 1_555 1_555
H29 C43 1_555 1_555
C44 C42 1_555 1_555
H30 C44 1_555 1_555
C45 C43 1_555 1_555
C46 C45 1_555 1_555
Zn8 O11 1_555 1_555
O9 C33 1_555 1_555
O12 Zn8 1_555 1_555
C38 C39 1_555 1_555
C44 C45 1_555 1_555
Zn5 O4_2 1_555 1_555
Zn8 O3_2 1_555 1_555
O2 C13 1_555 1_555
O3_2 C19_2 1_555 1_555
O4_2 C19_2 1_555 1_555
O5_2 C25_2 1_555 1_555
O25 C32_2 1_555 1_555
O27 C32_2 1_555 1_555
O8_2 Zn5 1_555 1_555
O9_2 Zn8 1_555 1_555
O10_2 C39_2 1_555 1_555
O29 C46_2 1_555 1_555
O31 C46_2 1_555 1_555
N1_2 Zn5 1_555 1_555
N3 H2 1_555 1_555
N4_2 Zn8 1_555 1_555
C10 H9 1_555 1_555
C12 C10 1_555 1_555
C13 N3 1_555 1_555
C14 N3 1_555 1_555
C15 C14 1_555 1_555
H11 C15 1_555 1_555
C16 C14 1_555 1_555
H12 C16 1_555 1_555
C17 N4_2 1_555 1_555
H13 C17 1_555 1_555
C18 N4_2 1_555 1_555
H14_2 C18 1_555 1_555
C19_2 C20_2 1_555 1_555
C20_2 C21_2 1_555 1_555
C21_2 H15_2 1_555 1_555
C22_2 C20_2 1_555 1_555
H16_2 C22_2 1_555 1_555
C23_2 C21_2 1_555 1_555
H17_2 C23_2 1_555 1_555
C24_2 C22_2 1_555 1_555
H18_2 C24_2 1_555 1_555
C25_2 C23_2 1_555 1_555
C26_2 O5_2 1_555 1_555
C27_2 C26_2 1_555 1_555
C28_2 C26_2 1_555 1_555
H20_2 C28_2 1_555 1_555
C29_2 C27_2 1_555 1_555
C30_2 C28_2 1_555 1_555
H22_2 C30_2 1_555 1_555
C31_2 C29_2 1_555 1_555
C32_2 C31_2 1_555 1_555
C33_2 O8_2 1_555 1_555
C34_2 C33_2 1_555 1_555
C35_2 C34_2 1_555 1_555
H23_2 C35_2 1_555 1_555
C36_2 C34_2 1_555 1_555
H24_2 C36_2 1_555 1_555
C37_2 C35_2 1_555 1_555
H25_2 C37_2 1_555 1_555
C38_2 C36_2 1_555 1_555
H26_2 C38_2 1_555 1_555
C39_2 C37_2 1_555 1_555
C40_2 O10_2 1_555 1_555
C41_2 C40_2 1_555 1_555
H27_2 C41_2 1_555 1_555
C42_2 C40_2 1_555 1_555
C43_2 C41_2 1_555 1_555
H29_2 C43_2 1_555 1_555
C44_2 C42_2 1_555 1_555
C45_2 C43_2 1_555 1_555
C46_2 C45_2 1_555 1_555
O9_2 C33_2 1_555 1_555
C12 C13 1_555 1_555
C15 C18 1_555 1_555
C16 C17 1_555 1_555
C24_2 C25_2 1_555 1_555
C30_2 C31_2 1_555 1_555
C38_2 C39_2 1_555 1_555
C44_2 C45_2 1_555 1_555
N3_2 H2_2 1_555 1_555
C10_2 H9_2 1_555 1_555
C14_2 N3_2 1_555 1_555
C15_2 C14_2 1_555 1_555
C16_2 C14_2 1_555 1_555
H12_2 C16_2 1_555 1_555
H13_2 C17_2 1_555 1_555
O14_2 C59_2 1_555 1_555
C57 C10_2 1_555 1_555
H40 C57 1_555 1_555
C15_2 C18_2 1_555 1_555
C16_2 C17_2 1_555 1_555
C57 C58_2 1_555 1_555
C58_2 C59_2 1_555 1_555
O2_2 C13_2 1_555 1_555
C11 H10 1_555 1_555
N7_2 H38_2 1_555 1_555
C56_2 C11 1_555 1_555
H39_2 C56_2 1_555 1_555
C60_2 N7_2 1_555 1_555
C61_2 C60_2 1_555 1_555
C62_2 C60_2 1_555 1_555
H42_2 C62_2 1_555 1_555
C63_2 C62_2 1_555 1_555
H43_2 C63_2 1_555 1_555
C11 C12_2 1_555 1_555
C12_2 C13_2 1_555 1_555
C61_2 C64_2 1_555 1_555
C11_2 H10_2 1_555 1_555
H40_2 C57_2 1_555 1_555
O1_2 C6_2 1_555 1_555
N2_2 H1_2 1_555 1_555
C2_2 C1_2 1_555 1_555
H4_2 C2_2 1_555 1_555
H5_2 C3_2 1_555 1_555
C4_2 C3_2 1_555 1_555
H6_2 C4_2 1_555 1_555
C5_2 N2_2 1_555 1_555
C6_2 N2_2 1_555 1_555
C7_2 C6_2 1_555 1_555
C8_2 C7_2 1_555 1_555
H7_2 C8_2 1_555 1_555
C55_2 C8_2 1_555 1_555
H37_2 C55_2 1_555 1_555
C2_2 C5_2 1_555 1_555
C4_2 C5_2 1_555 1_555
H8_2 C9_2 1_555 1_555
O13_2 C52_2 1_555 1_555
N6_2 H31_2 1_555 1_555
C48_2 C47_2 1_555 1_555
H33_2 C48_2 1_555 1_555
H34_2 C49_2 1_555 1_555
C50_2 C49_2 1_555 1_555
H35_2 C50_2 1_555 1_555
C51_2 N6_2 1_555 1_555
C52_2 N6_2 1_555 1_555
C53_2 C52_2 1_555 1_555
C54_2 C9_2 1_555 1_555
H36_2 C54_2 1_555 1_555
C48_2 C51_2 1_555 1_555
C50_2 C51_2 1_555 1_555
C53_2 C54_2 1_555 1_555

#END
