
###############################################################################
#
# This file contains modified crystal structure data generated from the
# MOF subset of the Cambridge Structural Database (CSD) v543 
# hosted by the Cambridge Crystallographic Data Centre (CCDC).
#
# This work is licensed under the Creative Commons
# Attribution-NonCommercial-ShareAlike 4.0 International License.
# To view a copy of this license, visit
# http://creativecommons.org/licenses/by-nc-sa/4.0/
# or send a letter to
# Creative Commons, PO Box 1866, Mountain View, CA 94042, USA.
#
# CIF created using the CSD Python API on 29 September 2022
# The structure has been converted into the P1 space group
# The structure has a 3D framework
# The original CSD entry AWEXUX is in the monoclinic crystal system
# The framework has been calculated to contain at least 10.0% void space
# The void calculation uses a probe of radius 1.32A, grid spacing 0.4
#
###############################################################################

data_AWEXUX
_chemical_formula_moiety         '(C184 H122 N14 O48 Zn8)n'
_symmetry_cell_setting           triclinic
_symmetry_space_group_name_H-M   'P 1'
_symmetry_Int_Tables_number      1
_space_group_name_Hall           'P 1'
loop_
_symmetry_equiv_pos_site_id
_symmetry_equiv_pos_as_xyz
1 x,y,z
_cell_length_a                   15.110
_cell_length_b                   24.110
_cell_length_c                   15.910
_cell_angle_alpha                90
_cell_angle_beta                 112.10
_cell_angle_gamma                90
_cell_volume                     5370.2
loop_
_atom_site_label
_atom_site_type_symbol
_atom_site_fract_x
_atom_site_fract_y
_atom_site_fract_z
N4 N 0.07682(19) 0.78960(13) 0.50307(17)
C44 C 0.0552(3) 0.81011(19) 0.3499(2)
H28 H 0.0827 0.8215 0.3079
C46 C 0.1113(2) 0.80428(17) 0.4408(2)
H30 H 0.1780 0.8111 0.4597
Zn5 Zn 0.16336(3) 0.77409(2) 0.63459(2)
N4_2 N 0.92318(19) 0.28960(13) 0.99693(17)
Zn5_2 Zn 0.83664(3) 0.27409(2) 0.86541(2)
O8 O 0.1651(2) 0.43722(13) 0.6333(2)
O9 O 0.0754(3) 0.69567(13) 0.6450(2)
O10 O 0.2192(2) 0.69835(12) 0.6417(2)
C18 C 0.0389(3) 0.37090(16) 0.7623(2)
H12 H 0.0455 0.3658 0.8235
C19 C 0.0220(4) 0.3839(2) 0.5840(3)
H13 H 0.0174 0.3875 0.5230
C20 C 0.1088(3) 0.39914(17) 0.7428(3)
H14 H 0.1634 0.4134 0.7904
C21 C 0.0981(3) 0.40639(15) 0.6534(3)
C22 C 0.1561(3) 0.49419(16) 0.6365(3)
C23 C 0.2301(3) 0.52527(17) 0.6270(3)
H15 H 0.2821 0.5072 0.6186
C24 C 0.0806(3) 0.52095(18) 0.6486(3)
H16 H 0.0303 0.5000 0.6549
C25 C 0.2267(3) 0.58246(16) 0.6300(3)
H17 H 0.2769 0.6035 0.6237
C26 C 0.0786(3) 0.57843(17) 0.6513(3)
H18 H 0.0267 0.5966 0.6597
C27 C 0.1519(3) 0.60972(15) 0.6420(2)
C28 C 0.1466(3) 0.67125(16) 0.6435(2)
Zn1 Zn 0.68828(3) 0.27363(2) 0.64101(2)
O1 O 0.72145(19) 0.31621(11) 0.85938(17)
O2 O 0.6319(2) 0.31642(13) 0.71172(17)
O3 O 0.3519(2) 0.43643(12) 0.8632(2)
O4 O 0.4181(2) 0.69726(12) 0.84614(19)
O5 O 0.27813(19) 0.69472(11) 0.85934(19)
O6 O 0.8946(2) 0.31566(13) 0.79446(18)
O7 O 0.80788(19) 0.30818(11) 0.64657(18)
N1 N 0.5967(2) 0.29149(13) 0.51270(17)
N2 N 0.4030(3) 0.28106(17) 0.1740(2)
H1 H 0.4624 0.2877 0.1802
C1 C 0.6465(2) 0.32688(13) 0.7927(2)
C2 C 0.5668(2) 0.35415(13) 0.8111(2)
C3 C 0.5772(3) 0.3664(2) 0.8994(3)
H3 H 0.6343 0.3566 0.9484
C4 C 0.4823(3) 0.36769(18) 0.7409(3)
H4 H 0.4740 0.3586 0.6803
C5 C 0.4099(3) 0.39431(18) 0.7579(3)
H5 H 0.3517 0.4032 0.7096
C6 C 0.5038(4) 0.3930(2) 0.9159(3)
H6 H 0.5100 0.4009 0.9764
C7 C 0.4235(3) 0.40774(16) 0.8456(3)
C8 C 0.3560(2) 0.49325(16) 0.8603(3)
C9 C 0.4274(3) 0.52282(17) 0.8440(3)
H7 H 0.4781 0.5036 0.8352
C10 C 0.2828(3) 0.52214(17) 0.8742(3)
H8 H 0.2343 0.5025 0.8862
C11 C 0.2808(2) 0.57905(15) 0.8706(3)
H9 H 0.2303 0.5984 0.8797
C12 C 0.4242(3) 0.57970(17) 0.8407(3)
H10 H 0.4727 0.5995 0.8290
C13 C 0.3509(2) 0.60884(15) 0.8541(2)
C14 C 0.3508(3) 0.67045(15) 0.8526(2)
C15 C 0.8815(2) 0.32232(13) 0.7128(2)
C16 C 0.9592(2) 0.34992(13) 0.6922(2)
C17 C 0.9524(3) 0.35603(19) 0.6031(3)
H11 H 0.8992 0.3408 0.5550
C29 C 0.6231(2) 0.29147(16) 0.4419(2)
H19 H 0.6894 0.2924 0.4526
C30 C 0.5036(3) 0.2937(3) 0.4967(3)
H20 H 0.4840 0.2955 0.5468
C31 C 0.5578(3) 0.29009(18) 0.3531(2)
H21 H 0.5793 0.2892 0.3041
C32 C 0.4356(3) 0.2933(3) 0.4112(3)
H22 H 0.3699 0.2954 0.4025
C33 C 0.4624(3) 0.29006(19) 0.3365(2)
C34 C 0.3831(3) 0.2813(2) 0.2463(3)
C35 C 0.3344(3) 0.27057(18) 0.0846(3)
C36 C 0.3259(4) 0.3067(2) 0.0149(3)
H23 H 0.3647 0.3390 0.0270
C37 C 0.2801(4) 0.2238(2) 0.0662(3)
H24 H 0.2879 0.1980 0.1135
O12 O 0.3013(3) 0.2708(2) 0.2435(3)
Zn3 Zn 0.31172(3) 0.77363(2) 0.85899(2)
O13 O 0.5819(2) 0.19726(12) 0.65386(19)
O14 O 0.72187(19) 0.19472(11) 0.64066(19)
O15 O 0.9246(3) 0.19567(13) 0.8550(2)
O16 O 0.7808(2) 0.19835(12) 0.8583(2)
C9_2 C 0.5726(3) 0.02282(17) 0.6560(3)
H7_2 H 0.5219 0.0036 0.6648
C10_2 C 0.7172(3) 0.02214(17) 0.6258(3)
H8_2 H 0.7657 0.0025 0.6138
C11_2 C 0.7192(2) 0.07905(15) 0.6294(3)
H9_2 H 0.7697 0.0984 0.6203
C12_2 C 0.5758(3) 0.07970(17) 0.6593(3)
H10_2 H 0.5273 0.0995 0.6710
C13_2 C 0.6491(2) 0.10884(15) 0.6459(2)
C14_2 C 0.6492(3) 0.17045(15) 0.6474(2)
O1_2 O 0.27855(19) 0.81621(11) 0.64062(17)
O2_2 O 0.3681(2) 0.81642(13) 0.78828(17)
O3_2 O 0.6481(2) 0.93643(12) 0.6368(2)
O6_2 O 0.1054(2) 0.81566(13) 0.70554(18)
O7_2 O 0.19212(19) 0.80818(11) 0.85343(18)
N1_2 N 0.4033(2) 0.79149(13) 0.98730(17)
C1_2 C 0.3535(2) 0.82688(13) 0.7073(2)
C2_2 C 0.4332(2) 0.85415(13) 0.6889(2)
C3_2 C 0.4228(3) 0.8664(2) 0.6006(3)
H3_2 H 0.3657 0.8566 0.5516
C4_2 C 0.5177(3) 0.86769(18) 0.7591(3)
H4_2 H 0.5260 0.8586 0.8197
C5_2 C 0.5901(3) 0.89431(18) 0.7421(3)
H5_2 H 0.6483 0.9032 0.7904
C6_2 C 0.4962(4) 0.8930(2) 0.5841(3)
H6_2 H 0.4900 0.9009 0.5236
C7_2 C 0.5765(3) 0.90774(16) 0.6544(3)
C8_2 C 0.6440(2) 0.99325(16) 0.6397(3)
C15_2 C 0.1185(2) 0.82232(13) 0.7872(2)
C16_2 C 0.0408(2) 0.84992(13) 0.8078(2)
C17_2 C 0.0476(3) 0.85603(19) 0.8969(3)
H11_2 H 0.1008 0.8408 0.9450
H20_2 H 0.5160 0.7955 0.9532
C23_2 C 0.7699(3) 0.02527(17) 0.8730(3)
H15_2 H 0.7179 0.0072 0.8814
C24_2 C 0.9194(3) 0.02095(18) 0.8514(3)
H16_2 H 0.9697 -0.0000 0.8451
C25_2 C 0.7733(3) 0.08246(16) 0.8700(3)
H17_2 H 0.7231 0.1035 0.8763
C26_2 C 0.9214(3) 0.07843(17) 0.8487(3)
H18_2 H 0.9733 0.0966 0.8403
C27_2 C 0.8481(3) 0.10972(15) 0.8580(2)
C28_2 C 0.8534(3) 0.17125(16) 0.8565(2)
O11 O 0.8865(4) 0.85039(16) 0.1845(2)
N3 N 0.8604(3) 0.75888(16) 0.1806(2)
H2 H 0.8788 0.7287 0.2137
C38 C 0.7870(3) 0.7871(2) 0.0207(3)
H25 H 0.8262 0.8192 0.0318
C39 C 0.7382(4) 0.7033(2) 0.0721(3)
H26 H 0.7432 0.6780 0.1193
C40 C 0.7954(3) 0.75029(19) 0.0908(2)
C41 C 0.8974(3) 0.80527(18) 0.2219(3)
C42 C 0.9593(3) 0.79925(17) 0.3212(2)
C43 C 0.9229(3) 0.7828(2) 0.3859(3)
H27 H 0.8570 0.7743 0.3682
C45 C 0.9826(3) 0.7790(2) 0.4748(3)
H29 H 0.9567 0.7684 0.5184
Zn1_2 Zn 0.31172(3) 0.72637(2) 0.35899(2)
Zn2 Zn 0.16336(3) 0.72591(2) 0.13459(2)
O1_3 O 0.27855(19) 0.68379(11) 0.14062(17)
O2_3 O 0.3681(2) 0.68358(13) 0.28828(17)
O3_3 O 0.6481(2) 0.56357(12) 0.1368(2)
O4_2 O 0.5819(2) 0.30274(12) 0.15386(19)
O5_2 O 0.72187(19) 0.30528(11) 0.14066(19)
O6_3 O 0.1054(2) 0.68434(13) 0.20554(18)
O7_3 O 0.19212(19) 0.69182(11) 0.35343(18)
N1_3 N 0.4033(2) 0.70851(13) 0.48730(17)
N2_2 N 0.5970(3) 0.71894(17) 0.8260(2)
H1_2 H 0.5376 0.7123 0.8198
C1_3 C 0.3535(2) 0.67312(13) 0.2073(2)
C2_3 C 0.4332(2) 0.64585(13) 0.1889(2)
C3_3 C 0.4228(3) 0.6336(2) 0.1006(3)
H3_3 H 0.3657 0.6434 0.0516
C4_3 C 0.5177(3) 0.63231(18) 0.2591(3)
H4_3 H 0.5260 0.6414 0.3197
C5_3 C 0.5901(3) 0.60569(18) 0.2421(3)
H5_3 H 0.6483 0.5968 0.2904
C6_3 C 0.4962(4) 0.6070(2) 0.0841(3)
H6_3 H 0.4900 0.5991 0.0236
C7_3 C 0.5765(3) 0.59226(16) 0.1544(3)
C8_3 C 0.6440(2) 0.50675(16) 0.1397(3)
C9_3 C 0.5726(3) 0.47718(17) 0.1560(3)
H7_3 H 0.5219 0.4964 0.1648
C10_3 C 0.7172(3) 0.47786(17) 0.1258(3)
H8_3 H 0.7657 0.4975 0.1138
C11_3 C 0.7192(2) 0.42095(15) 0.1294(3)
H9_3 H 0.7697 0.4016 0.1203
C12_3 C 0.5758(3) 0.42030(17) 0.1593(3)
H10_3 H 0.5273 0.4005 0.1710
C13_3 C 0.6491(2) 0.39116(15) 0.1459(2)
C14_3 C 0.6492(3) 0.32955(15) 0.1474(2)
C15_3 C 0.1185(2) 0.67768(13) 0.2872(2)
C16_3 C 0.0408(2) 0.65008(13) 0.3078(2)
C17_3 C 0.0476(3) 0.64397(19) 0.3969(3)
H11_3 H 0.1008 0.6592 0.4450
C29_2 C 0.3769(2) 0.70853(16) 0.5581(2)
H19_2 H 0.3106 0.7076 0.5474
C30_2 C 0.4964(3) 0.7063(3) 0.5033(3)
H20_3 H 0.5160 0.7045 0.4532
C31_2 C 0.4422(3) 0.70991(18) 0.6469(2)
H21_2 H 0.4207 0.7108 0.6959
C32_2 C 0.5644(3) 0.7067(3) 0.5888(3)
H22_2 H 0.6301 0.7046 0.5975
C33_2 C 0.5376(3) 0.70994(19) 0.6635(2)
C34_2 C 0.6169(3) 0.7187(2) 0.7537(3)
C35_2 C 0.6656(3) 0.72943(18) 0.9154(3)
C36_2 C 0.6741(4) 0.6933(2) 0.9851(3)
H23_2 H 0.6353 0.6610 0.9730
C37_2 C 0.7199(4) 0.7762(2) 0.9338(3)
H24_2 H 0.7121 0.8020 0.8865
O12_2 O 0.6987(3) 0.7292(2) 0.7565(3)
Zn3_2 Zn 0.68828(3) 0.22637(2) 0.14101(2)
O13_2 O 0.4181(2) 0.80274(12) 0.34614(19)
O14_2 O 0.27813(19) 0.80528(11) 0.35934(19)
O15_2 O 0.0754(3) 0.80433(13) 0.1450(2)
O16_2 O 0.2192(2) 0.80165(12) 0.1417(2)
N5 N 0.07682(19) 0.71040(13) 0.00307(17)
O8_2 O 0.8349(2) 0.56278(13) 0.3667(2)
O9_2 O 0.9246(3) 0.30433(13) 0.3550(2)
O10_2 O 0.7808(2) 0.30165(12) 0.3583(2)
C18_2 C 0.9611(3) 0.62910(16) 0.2377(2)
H12_2 H 0.9545 0.6342 0.1765
C19_2 C 0.9780(4) 0.6161(2) 0.4160(3)
H13_2 H 0.9826 0.6125 0.4770
C20_2 C 0.8912(3) 0.60086(17) 0.2572(3)
H14_2 H 0.8366 0.5866 0.2096
C21_2 C 0.9019(3) 0.59361(15) 0.3466(3)
C22_2 C 0.8439(3) 0.50581(16) 0.3635(3)
C23_3 C 0.7699(3) 0.47473(17) 0.3730(3)
H15_3 H 0.7179 0.4928 0.3814
C24_3 C 0.9194(3) 0.47905(18) 0.3514(3)
H16_3 H 0.9697 0.5000 0.3451
C25_3 C 0.7733(3) 0.41754(16) 0.3700(3)
H17_3 H 0.7231 0.3965 0.3763
C26_3 C 0.9214(3) 0.42157(17) 0.3487(3)
H18_3 H 0.9733 0.4034 0.3403
C27_3 C 0.8481(3) 0.39028(15) 0.3580(2)
C28_3 C 0.8534(3) 0.32875(16) 0.3565(2)
Zn4 Zn 0.83664(3) 0.22591(2) 0.36541(2)
C23_4 C 0.2301(3) 0.97473(17) 0.1270(3)
H15_4 H 0.2821 0.9928 0.1186
C24_4 C 0.0806(3) 0.97905(18) 0.1486(3)
H16_4 H 0.0303 1.0000 0.1549
C25_4 C 0.2267(3) 0.91754(16) 0.1300(3)
H17_4 H 0.2769 0.8965 0.1237
C26_4 C 0.0786(3) 0.92157(17) 0.1513(3)
H18_4 H 0.0267 0.9034 0.1597
C27_4 C 0.1519(3) 0.89028(15) 0.1420(2)
C28_4 C 0.1466(3) 0.82875(16) 0.1435(2)
O1_4 O 0.72145(19) 0.18379(11) 0.35938(17)
O2_4 O 0.6319(2) 0.18358(13) 0.21172(17)
O3_4 O 0.3519(2) 0.06357(12) 0.3632(2)
O6_4 O 0.8946(2) 0.18434(13) 0.29446(18)
O7_4 O 0.80788(19) 0.19182(11) 0.14657(18)
N1_4 N 0.5967(2) 0.20851(13) 0.01270(17)
C1_4 C 0.6465(2) 0.17312(13) 0.2927(2)
C2_4 C 0.5668(2) 0.14585(13) 0.3111(2)
C3_4 C 0.5772(3) 0.1336(2) 0.3994(3)
H3_4 H 0.6343 0.1434 0.4484
C4_4 C 0.4823(3) 0.13231(18) 0.2409(3)
H4_4 H 0.4740 0.1414 0.1803
C5_4 C 0.4099(3) 0.10569(18) 0.2579(3)
H5_4 H 0.3517 0.0968 0.2096
C6_4 C 0.5038(4) 0.1070(2) 0.4159(3)
H6_4 H 0.5100 0.0991 0.4764
C7_4 C 0.4235(3) 0.09226(16) 0.3456(3)
C8_4 C 0.3560(2) 0.00675(16) 0.3603(3)
C15_4 C 0.8815(2) 0.17768(13) 0.2128(2)
C16_4 C 0.9592(2) 0.15008(13) 0.1922(2)
C17_4 C 0.9524(3) 0.14397(19) 0.1031(3)
H11_4 H 0.8992 0.1592 0.0550
H20_4 H 0.4840 0.2045 0.0468
N5_2 N 0.92318(19) 0.21040(13) 0.49693(17)
C9_4 C 0.4274(3) 0.97718(17) 0.3440(3)
H7_4 H 0.4781 0.9964 0.3352
C10_4 C 0.2828(3) 0.97786(17) 0.3742(3)
H8_4 H 0.2343 0.9975 0.3862
C11_4 C 0.2808(2) 0.92095(15) 0.3706(3)
H9_4 H 0.2303 0.9016 0.3797
C12_4 C 0.4242(3) 0.92030(17) 0.3407(3)
H10_4 H 0.4727 0.9005 0.3290
C13_4 C 0.3509(2) 0.89116(15) 0.3541(2)
C14_4 C 0.3508(3) 0.82955(15) 0.3526(2)
C44_2 C 0.9448(3) 0.18989(19) 0.6501(2)
H28_2 H 0.9173 0.1785 0.6921
C46_2 C 0.8887(2) 0.19572(17) 0.5592(2)
H30_2 H 0.8220 0.1889 0.5403
O8_3 O 0.1651(2) 0.06278(13) 0.1333(2)
C18_3 C 0.0389(3) 0.12910(16) 0.2623(2)
H12_3 H 0.0455 0.1342 0.3235
C19_3 C 0.0220(4) 0.1161(2) 0.0840(3)
H13_3 H 0.0174 0.1125 0.0230
C20_3 C 0.1088(3) 0.10086(17) 0.2428(3)
H14_3 H 0.1634 0.0866 0.2904
C21_3 C 0.0981(3) 0.09361(15) 0.1534(3)
C22_3 C 0.1561(3) 0.00581(16) 0.1365(3)
H16_5 H 0.0303 -0.0000 0.1549
O11_2 O 0.1135(4) 0.35039(16) 0.3155(2)
N2_3 N 0.4030(3) 0.21894(17) 0.6740(2)
H1_3 H 0.4624 0.2123 0.6802
N3_2 N 0.1396(3) 0.25888(16) 0.3194(2)
H2_2 H 0.1212 0.2287 0.2863
C29_3 C 0.6231(2) 0.20853(16) 0.9419(2)
H19_3 H 0.6894 0.2076 0.9526
C30_3 C 0.5036(3) 0.2063(3) 0.9967(3)
C31_3 C 0.5578(3) 0.20991(18) 0.8531(2)
H21_3 H 0.5793 0.2108 0.8041
C32_3 C 0.4356(3) 0.2067(3) 0.9112(3)
H22_3 H 0.3699 0.2046 0.9025
C33_3 C 0.4624(3) 0.20994(19) 0.8365(2)
C34_3 C 0.3831(3) 0.2187(2) 0.7463(3)
C35_3 C 0.3344(3) 0.22943(18) 0.5846(3)
C36_3 C 0.3259(4) 0.1933(2) 0.5149(3)
H23_3 H 0.3647 0.1610 0.5270
C37_3 C 0.2801(4) 0.2762(2) 0.5662(3)
H24_3 H 0.2879 0.3020 0.6135
C38_2 C 0.2130(3) 0.2871(2) 0.4793(3)
H25_2 H 0.1738 0.3192 0.4682
C39_2 C 0.2618(4) 0.2033(2) 0.4279(3)
H26_2 H 0.2568 0.1780 0.3807
C40_2 C 0.2046(3) 0.25029(19) 0.4092(2)
C41_2 C 0.1026(3) 0.30527(18) 0.2781(3)
C42_2 C 0.0407(3) 0.29925(17) 0.1788(2)
C43_2 C 0.0771(3) 0.2828(2) 0.1141(3)
H27_2 H 0.1430 0.2743 0.1318
C45_2 C 0.0174(3) 0.2790(2) 0.0252(3)
O12_3 O 0.3013(3) 0.2292(2) 0.7435(3)
H29_2 H 0.0433 0.2684 0.9816
C44_3 C 0.9448(3) 0.31011(19) 0.1501(2)
H28_3 H 0.9173 0.3215 0.1921
C46_3 C 0.8887(2) 0.30428(17) 0.0592(2)
H30_3 H 0.8220 0.3111 0.0403
O11_3 O 0.1135(4) 0.14961(16) 0.8155(2)
N3_3 N 0.1396(3) 0.24112(16) 0.8194(2)
H2_3 H 0.1212 0.2713 0.7863
C38_3 C 0.2130(3) 0.2129(2) 0.9793(3)
H25_3 H 0.1738 0.1808 0.9682
C39_3 C 0.2618(4) 0.2967(2) 0.9279(3)
H26_3 H 0.2568 0.3220 0.8807
C40_3 C 0.2046(3) 0.24971(19) 0.9092(2)
C41_3 C 0.1026(3) 0.19473(18) 0.7781(3)
C42_3 C 0.0407(3) 0.20075(17) 0.6788(2)
C43_3 C 0.0771(3) 0.2172(2) 0.6141(3)
H27_3 H 0.1430 0.2257 0.6318
C45_3 C 0.0174(3) 0.2210(2) 0.5252(3)
H29_3 H 0.0433 0.2316 0.4816
C44_4 C 0.0552(3) 0.68989(19) 0.8499(2)
H28_4 H 0.0827 0.6785 0.8079
C46_4 C 0.1113(2) 0.69572(17) 0.9408(2)
H30_4 H 0.1780 0.6889 0.9597
H29_4 H 0.9567 0.7316 0.0184
O11_4 O 0.8865(4) 0.64961(16) 0.6845(2)
N2_4 N 0.5970(3) 0.78106(17) 0.3260(2)
H1_4 H 0.5376 0.7877 0.3198
N3_4 N 0.8604(3) 0.74112(16) 0.6806(2)
H2_4 H 0.8788 0.7713 0.7137
C29_4 C 0.3769(2) 0.79147(16) 0.0581(2)
H19_4 H 0.3106 0.7924 0.0474
C30_4 C 0.4964(3) 0.7937(3) 0.0033(3)
C31_4 C 0.4422(3) 0.79009(18) 0.1469(2)
H21_4 H 0.4207 0.7892 0.1959
C32_4 C 0.5644(3) 0.7933(3) 0.0888(3)
H22_4 H 0.6301 0.7954 0.0975
C33_4 C 0.5376(3) 0.79006(19) 0.1635(2)
C34_4 C 0.6169(3) 0.7813(2) 0.2537(3)
C35_4 C 0.6656(3) 0.77057(18) 0.4154(3)
C36_4 C 0.6741(4) 0.8067(2) 0.4851(3)
H23_4 H 0.6353 0.8390 0.4730
C37_4 C 0.7199(4) 0.7238(2) 0.4338(3)
H24_4 H 0.7121 0.6980 0.3865
C38_4 C 0.7870(3) 0.7129(2) 0.5207(3)
H25_4 H 0.8262 0.6808 0.5318
C39_4 C 0.7382(4) 0.7967(2) 0.5721(3)
H26_4 H 0.7432 0.8220 0.6193
C40_4 C 0.7954(3) 0.74971(19) 0.5908(2)
C41_4 C 0.8974(3) 0.69473(18) 0.7219(3)
C42_4 C 0.9593(3) 0.70075(17) 0.8212(2)
C43_4 C 0.9229(3) 0.7172(2) 0.8859(3)
H27_4 H 0.8570 0.7257 0.8682
C45_4 C 0.9826(3) 0.7210(2) 0.9748(3)
O12_4 O 0.6987(3) 0.7708(2) 0.2565(3)
O8_4 O 0.8349(2) 0.93722(13) 0.8667(2)
C18_4 C 0.9611(3) 0.87090(16) 0.7377(2)
H12_4 H 0.9545 0.8658 0.6765
C19_4 C 0.9780(4) 0.8839(2) 0.9160(3)
H13_4 H 0.9826 0.8875 0.9770
C20_4 C 0.8912(3) 0.89914(17) 0.7572(3)
H14_4 H 0.8366 0.9134 0.7096
C21_4 C 0.9019(3) 0.90639(15) 0.8466(3)
C22_4 C 0.8439(3) 0.99419(16) 0.8635(3)
H16_6 H 0.9697 1.0000 0.8451
loop_
_geom_bond_atom_site_label_1
_geom_bond_atom_site_label_2
_geom_bond_site_symmetry_1
_geom_bond_site_symmetry_2
H28 C44 1_555 1_555
C46 N4 1_555 1_555
H30 C46 1_555 1_555
Zn5 N4 1_555 1_555
C44 C46 1_555 1_555
Zn5_2 N4_2 1_555 1_555
O8 C21 1_555 1_555
O9 C28 1_555 1_555
O10 C28 1_555 1_555
H12 C18 1_555 1_555
H13 C19 1_555 1_555
C20 C18 1_555 1_555
H14 C20 1_555 1_555
C21 C19 1_555 1_555
C22 O8 1_555 1_555
C23 C22 1_555 1_555
H15 C23 1_555 1_555
C24 C22 1_555 1_555
H16 C24 1_555 1_555
C25 C23 1_555 1_555
H17 C25 1_555 1_555
C26 C24 1_555 1_555
H18 C26 1_555 1_555
C27 C25 1_555 1_555
C28 C27 1_555 1_555
Zn5 O9 1_555 1_555
O10 Zn5 1_555 1_555
C20 C21 1_555 1_555
C26 C27 1_555 1_555
Zn1 O2 1_555 1_555
Zn5_2 O1 1_555 1_555
O1 C1 1_555 1_555
O2 C1 1_555 1_555
O3 C7 1_555 1_555
O4 C14 1_555 1_555
O5 C14 1_555 1_555
O6 Zn5_2 1_555 1_555
O7 Zn1 1_555 1_555
N1 Zn1 1_555 1_555
N2 H1 1_555 1_555
C1 C2 1_555 1_555
C2 C3 1_555 1_555
C3 H3 1_555 1_555
C4 C2 1_555 1_555
H4 C4 1_555 1_555
C5 C4 1_555 1_555
H5 C5 1_555 1_555
C6 C3 1_555 1_555
H6 C6 1_555 1_555
C7 C5 1_555 1_555
C8 O3 1_555 1_555
C9 C8 1_555 1_555
H7 C9 1_555 1_555
C10 C8 1_555 1_555
H8 C10 1_555 1_555
C11 C10 1_555 1_555
H9 C11 1_555 1_555
C12 C9 1_555 1_555
H10 C12 1_555 1_555
C13 C11 1_555 1_555
C14 C13 1_555 1_555
C15 O6 1_555 1_555
C16 C15 1_555 1_555
C17 C16 1_555 1_555
H11 C17 1_555 1_555
C29 N1 1_555 1_555
H19 C29 1_555 1_555
C30 N1 1_555 1_555
H20 C30 1_555 1_555
C31 C29 1_555 1_555
H21 C31 1_555 1_555
C32 C30 1_555 1_555
H22 C32 1_555 1_555
C33 C31 1_555 1_555
C34 N2 1_555 1_555
C35 N2 1_555 1_555
C36 C35 1_555 1_555
H23 C36 1_555 1_555
C37 C35 1_555 1_555
H24 C37 1_555 1_555
O12 C34 1_555 1_555
Zn3 O4 1_555 1_555
O13 Zn1 1_555 1_555
O14 Zn1 1_555 1_555
O15 Zn5_2 1_555 1_555
O16 Zn5_2 1_555 1_555
O5 Zn3 1_555 1_555
O7 C15 1_555 1_555
C6 C7 1_555 1_555
C12 C13 1_555 1_555
C32 C33 1_555 1_555
C33 C34 1_555 1_555
O13 C14_2 1_555 1_555
O14 C14_2 1_555 1_555
H7_2 C9_2 1_555 1_555
H8_2 C10_2 1_555 1_555
C11_2 C10_2 1_555 1_555
H9_2 C11_2 1_555 1_555
C12_2 C9_2 1_555 1_555
H10_2 C12_2 1_555 1_555
C13_2 C11_2 1_555 1_555
C14_2 C13_2 1_555 1_555
C12_2 C13_2 1_555 1_555
Zn3 O2_2 1_555 1_555
Zn5 O1_2 1_555 1_555
O1_2 C1_2 1_555 1_555
O2_2 C1_2 1_555 1_555
O3_2 C7_2 1_555 1_555
O6_2 Zn5 1_555 1_555
O7_2 Zn3 1_555 1_555
N1_2 Zn3 1_555 1_555
C1_2 C2_2 1_555 1_555
C2_2 C3_2 1_555 1_555
C3_2 H3_2 1_555 1_555
C4_2 C2_2 1_555 1_555
H4_2 C4_2 1_555 1_555
C5_2 C4_2 1_555 1_555
H5_2 C5_2 1_555 1_555
C6_2 C3_2 1_555 1_555
H6_2 C6_2 1_555 1_555
C7_2 C5_2 1_555 1_555
C8_2 O3_2 1_555 1_555
C15_2 O6_2 1_555 1_555
C16_2 C15_2 1_555 1_555
C17_2 C16_2 1_555 1_555
H11_2 C17_2 1_555 1_555
O7_2 C15_2 1_555 1_555
C6_2 C7_2 1_555 1_555
O15 C28_2 1_555 1_555
O16 C28_2 1_555 1_555
H15_2 C23_2 1_555 1_555
H16_2 C24_2 1_555 1_555
C25_2 C23_2 1_555 1_555
H17_2 C25_2 1_555 1_555
C26_2 C24_2 1_555 1_555
H18_2 C26_2 1_555 1_555
C27_2 C25_2 1_555 1_555
C28_2 C27_2 1_555 1_555
C26_2 C27_2 1_555 1_555
O11 C41 1_555 1_555
N3 H2 1_555 1_555
H25 C38 1_555 1_555
H26 C39 1_555 1_555
C40 N3 1_555 1_555
C41 N3 1_555 1_555
C42 C41 1_555 1_555
C43 C42 1_555 1_555
H27 C43 1_555 1_555
C45 C43 1_555 1_555
H29 C45 1_555 1_555
C38 C40 1_555 1_555
C39 C40 1_555 1_555
Zn1_2 O2_3 1_555 1_555
Zn2 O1_3 1_555 1_555
O1_3 C1_3 1_555 1_555
O2_3 C1_3 1_555 1_555
O3_3 C7_3 1_555 1_555
O4_2 C14_3 1_555 1_555
O5_2 C14_3 1_555 1_555
O6_3 Zn2 1_555 1_555
O7_3 Zn1_2 1_555 1_555
N1_3 Zn1_2 1_555 1_555
N2_2 H1_2 1_555 1_555
C1_3 C2_3 1_555 1_555
C2_3 C3_3 1_555 1_555
C3_3 H3_3 1_555 1_555
C4_3 C2_3 1_555 1_555
H4_3 C4_3 1_555 1_555
C5_3 C4_3 1_555 1_555
H5_3 C5_3 1_555 1_555
C6_3 C3_3 1_555 1_555
H6_3 C6_3 1_555 1_555
C7_3 C5_3 1_555 1_555
C8_3 O3_3 1_555 1_555
C9_3 C8_3 1_555 1_555
H7_3 C9_3 1_555 1_555
C10_3 C8_3 1_555 1_555
H8_3 C10_3 1_555 1_555
C11_3 C10_3 1_555 1_555
H9_3 C11_3 1_555 1_555
C12_3 C9_3 1_555 1_555
H10_3 C12_3 1_555 1_555
C13_3 C11_3 1_555 1_555
C14_3 C13_3 1_555 1_555
C15_3 O6_3 1_555 1_555
C16_3 C15_3 1_555 1_555
C17_3 C16_3 1_555 1_555
H11_3 C17_3 1_555 1_555
C29_2 N1_3 1_555 1_555
H19_2 C29_2 1_555 1_555
C30_2 N1_3 1_555 1_555
H20_3 C30_2 1_555 1_555
C31_2 C29_2 1_555 1_555
H21_2 C31_2 1_555 1_555
C32_2 C30_2 1_555 1_555
H22_2 C32_2 1_555 1_555
C33_2 C31_2 1_555 1_555
C34_2 N2_2 1_555 1_555
C35_2 N2_2 1_555 1_555
C36_2 C35_2 1_555 1_555
H23_2 C36_2 1_555 1_555
C37_2 C35_2 1_555 1_555
H24_2 C37_2 1_555 1_555
O12_2 C34_2 1_555 1_555
Zn3_2 O4_2 1_555 1_555
O13_2 Zn1_2 1_555 1_555
O14_2 Zn1_2 1_555 1_555
O15_2 Zn2 1_555 1_555
O16_2 Zn2 1_555 1_555
N5 Zn2 1_555 1_555
O5_2 Zn3_2 1_555 1_555
O7_3 C15_3 1_555 1_555
C6_3 C7_3 1_555 1_555
C12_3 C13_3 1_555 1_555
C32_2 C33_2 1_555 1_555
C33_2 C34_2 1_555 1_555
O8_2 C21_2 1_555 1_555
O9_2 C28_3 1_555 1_555
O10_2 C28_3 1_555 1_555
H12_2 C18_2 1_555 1_555
H13_2 C19_2 1_555 1_555
C20_2 C18_2 1_555 1_555
H14_2 C20_2 1_555 1_555
C21_2 C19_2 1_555 1_555
C22_2 O8_2 1_555 1_555
C23_3 C22_2 1_555 1_555
H15_3 C23_3 1_555 1_555
C24_3 C22_2 1_555 1_555
H16_3 C24_3 1_555 1_555
C25_3 C23_3 1_555 1_555
H17_3 C25_3 1_555 1_555
C26_3 C24_3 1_555 1_555
H18_3 C26_3 1_555 1_555
C27_3 C25_3 1_555 1_555
C28_3 C27_3 1_555 1_555
Zn4 O9_2 1_555 1_555
O10_2 Zn4 1_555 1_555
C20_2 C21_2 1_555 1_555
C26_3 C27_3 1_555 1_555
O15_2 C28_4 1_555 1_555
O16_2 C28_4 1_555 1_555
H15_4 C23_4 1_555 1_555
H16_4 C24_4 1_555 1_555
C25_4 C23_4 1_555 1_555
H17_4 C25_4 1_555 1_555
C26_4 C24_4 1_555 1_555
H18_4 C26_4 1_555 1_555
C27_4 C25_4 1_555 1_555
C28_4 C27_4 1_555 1_555
C26_4 C27_4 1_555 1_555
Zn3_2 O2_4 1_555 1_555
Zn4 O1_4 1_555 1_555
O1_4 C1_4 1_555 1_555
O2_4 C1_4 1_555 1_555
O3_4 C7_4 1_555 1_555
O6_4 Zn4 1_555 1_555
O7_4 Zn3_2 1_555 1_555
N1_4 Zn3_2 1_555 1_555
C1_4 C2_4 1_555 1_555
C2_4 C3_4 1_555 1_555
C3_4 H3_4 1_555 1_555
C4_4 C2_4 1_555 1_555
H4_4 C4_4 1_555 1_555
C5_4 C4_4 1_555 1_555
H5_4 C5_4 1_555 1_555
C6_4 C3_4 1_555 1_555
H6_4 C6_4 1_555 1_555
C7_4 C5_4 1_555 1_555
C8_4 O3_4 1_555 1_555
C15_4 O6_4 1_555 1_555
C16_4 C15_4 1_555 1_555
C17_4 C16_4 1_555 1_555
H11_4 C17_4 1_555 1_555
N5_2 Zn4 1_555 1_555
O7_4 C15_4 1_555 1_555
C6_4 C7_4 1_555 1_555
O13_2 C14_4 1_555 1_555
O14_2 C14_4 1_555 1_555
H7_4 C9_4 1_555 1_555
H8_4 C10_4 1_555 1_555
C11_4 C10_4 1_555 1_555
H9_4 C11_4 1_555 1_555
C12_4 C9_4 1_555 1_555
H10_4 C12_4 1_555 1_555
C13_4 C11_4 1_555 1_555
C14_4 C13_4 1_555 1_555
C12_4 C13_4 1_555 1_555
H28_2 C44_2 1_555 1_555
C46_2 N5_2 1_555 1_555
H30_2 C46_2 1_555 1_555
C44_2 C46_2 1_555 1_555
O8_3 C21_3 1_555 1_555
H12_3 C18_3 1_555 1_555
H13_3 C19_3 1_555 1_555
C20_3 C18_3 1_555 1_555
H14_3 C20_3 1_555 1_555
C21_3 C19_3 1_555 1_555
C22_3 O8_3 1_555 1_555
C20_3 C21_3 1_555 1_555
O11_2 C41_2 1_555 1_555
N2_3 H1_3 1_555 1_555
N3_2 H2_2 1_555 1_555
H19_3 C29_3 1_555 1_555
C31_3 C29_3 1_555 1_555
H21_3 C31_3 1_555 1_555
C32_3 C30_3 1_555 1_555
H22_3 C32_3 1_555 1_555
C33_3 C31_3 1_555 1_555
C34_3 N2_3 1_555 1_555
C35_3 N2_3 1_555 1_555
C36_3 C35_3 1_555 1_555
H23_3 C36_3 1_555 1_555
C37_3 C35_3 1_555 1_555
H24_3 C37_3 1_555 1_555
C38_2 C37_3 1_555 1_555
H25_2 C38_2 1_555 1_555
C39_2 C36_3 1_555 1_555
H26_2 C39_2 1_555 1_555
C40_2 N3_2 1_555 1_555
C41_2 N3_2 1_555 1_555
C42_2 C41_2 1_555 1_555
C43_2 C42_2 1_555 1_555
H27_2 C43_2 1_555 1_555
C45_2 C43_2 1_555 1_555
O12_3 C34_3 1_555 1_555
C32_3 C33_3 1_555 1_555
C33_3 C34_3 1_555 1_555
C38_2 C40_2 1_555 1_555
C39_2 C40_2 1_555 1_555
H28_3 C44_3 1_555 1_555
H30_3 C46_3 1_555 1_555
C44_3 C46_3 1_555 1_555
O11_3 C41_3 1_555 1_555
N3_3 H2_3 1_555 1_555
H25_3 C38_3 1_555 1_555
H26_3 C39_3 1_555 1_555
C40_3 N3_3 1_555 1_555
C41_3 N3_3 1_555 1_555
C42_3 C41_3 1_555 1_555
C43_3 C42_3 1_555 1_555
H27_3 C43_3 1_555 1_555
C45_3 C43_3 1_555 1_555
H29_3 C45_3 1_555 1_555
C38_3 C40_3 1_555 1_555
C39_3 C40_3 1_555 1_555
H28_4 C44_4 1_555 1_555
H30_4 C46_4 1_555 1_555
C44_4 C46_4 1_555 1_555
O11_4 C41_4 1_555 1_555
N2_4 H1_4 1_555 1_555
N3_4 H2_4 1_555 1_555
H19_4 C29_4 1_555 1_555
C31_4 C29_4 1_555 1_555
H21_4 C31_4 1_555 1_555
C32_4 C30_4 1_555 1_555
H22_4 C32_4 1_555 1_555
C33_4 C31_4 1_555 1_555
C34_4 N2_4 1_555 1_555
C35_4 N2_4 1_555 1_555
C36_4 C35_4 1_555 1_555
H23_4 C36_4 1_555 1_555
C37_4 C35_4 1_555 1_555
H24_4 C37_4 1_555 1_555
C38_4 C37_4 1_555 1_555
H25_4 C38_4 1_555 1_555
C39_4 C36_4 1_555 1_555
H26_4 C39_4 1_555 1_555
C40_4 N3_4 1_555 1_555
C41_4 N3_4 1_555 1_555
C42_4 C41_4 1_555 1_555
C43_4 C42_4 1_555 1_555
H27_4 C43_4 1_555 1_555
C45_4 C43_4 1_555 1_555
O12_4 C34_4 1_555 1_555
C32_4 C33_4 1_555 1_555
C33_4 C34_4 1_555 1_555
C38_4 C40_4 1_555 1_555
C39_4 C40_4 1_555 1_555
O8_4 C21_4 1_555 1_555
H12_4 C18_4 1_555 1_555
H13_4 C19_4 1_555 1_555
C20_4 C18_4 1_555 1_555
H14_4 C20_4 1_555 1_555
C21_4 C19_4 1_555 1_555
C22_4 O8_4 1_555 1_555
C20_4 C21_4 1_555 1_555

#END
