
###############################################################################
#
# This file contains modified crystal structure data generated from the
# MOF subset of the Cambridge Structural Database (CSD) v543 
# hosted by the Cambridge Crystallographic Data Centre (CCDC).
#
# This work is licensed under the Creative Commons
# Attribution-NonCommercial-ShareAlike 4.0 International License.
# To view a copy of this license, visit
# http://creativecommons.org/licenses/by-nc-sa/4.0/
# or send a letter to
# Creative Commons, PO Box 1866, Mountain View, CA 94042, USA.
#
# CIF created using the CSD Python API on 29 September 2022
# The structure has been converted into the P1 space group
# The structure has a 3D framework
# The original CSD entry AWIBAL is in the triclinic crystal system
# The framework has been calculated to contain at least 10.0% void space
# The void calculation uses a probe of radius 1.32A, grid spacing 0.4
#
###############################################################################

data_AWIBAL
_chemical_formula_moiety         '(C24 H26 Lu2 N6 O15)n'
_symmetry_cell_setting           triclinic
_symmetry_space_group_name_H-M   'P 1'
_symmetry_Int_Tables_number      1
_space_group_name_Hall           'P 1'
loop_
_symmetry_equiv_pos_site_id
_symmetry_equiv_pos_as_xyz
1 x,y,z
_cell_length_a                   10.0669(12)
_cell_length_b                   10.3562(17)
_cell_length_c                   10.538(2)
_cell_angle_alpha                103.158(17)
_cell_angle_beta                 115.524(17)
_cell_angle_gamma                92.546(12)
_cell_volume                     952.607
loop_
_atom_site_label
_atom_site_type_symbol
_atom_site_fract_x
_atom_site_fract_y
_atom_site_fract_z
_atom_site_U_iso_or_equiv
_atom_site_thermal_displace_type
O11 O 0.3212(3) 0.5877(3) 0.8622(3) 0.0607 Uani
C17 C 0.2826(5) 0.6252(6) 0.7519(6) 0.0624 Uani
O12 O 0.3621(5) 0.7245(6) 0.7494(6) 0.0680 Uani
C18 C 0.1362(6) 0.5592(8) 0.6190(7) 0.0634 Uani
C19 C 0.0525(6) 0.4586(8) 0.6277(9) 0.0951 Uani
H17 H 0.0867 0.4292 0.7117 0.1140 Uiso
C20 C 0.0873(7) 0.6011(9) 0.4925(7) 0.0985 Uani
N5 N 0.1745 0.7018 0.4768 0.2914 Uani
H18 H 0.2609 0.7392 0.5472 0.6030 Uiso
H19 H 0.1411 0.7255 0.3969 0.6030 Uiso
Lu6 Lu 0.52507(9) 0.76625(10) 0.99666(13) 0.0572 Uani
O4 O 0.2232(3) 0.2614(3) 0.8983(3) 0.0633 Uani
O5 O 0.4766(6) 0.3364(7) 0.8411(6) 0.0546 Uani
H1 H 0.4271 0.4175 0.8275 0.0300 Uiso
H2 H 0.4706 0.2869 0.7448 0.0500 Uiso
C1 C 0.1163(6) 0.4326(6) 0.9996(9) 0.0574 Uani
O8 O 0.3619(6) 0.0581(6) 0.7856(6) 0.0784 Uani
H4 H 0.4705 0.0508 0.8241 0.1000 Uiso
C12 C 0.2370(5) 0.3604(5) 0.9930(5) 0.0585 Uani
O21 O 0.6696(5) 0.1368(6) 0.9991(8) 0.0757 Uani
H3 H 0.3148 0.9932 0.8177 0.1500 Uiso
C9 C 0.0226(7) 0.8816(6) 0.9225(10) 0.0635 Uani
N1 N 0.0379(8) 0.7658(6) 0.8410(11) 0.1592 Uani
H9 H 0.1244 0.7533 0.8479 0.1910 Uiso
C6 C 0.9666(5) 0.3742(7) 0.9035(10) 0.0629 Uani
N2 N 0.930(4) 0.238(6) 0.802(6) 0.2781 Uani
H10 H 0.8379 0.2004 0.7488 0.3340 Uiso
H11 H 0.9997 0.1961 0.7965 0.3340 Uiso
O9 O 0.6276(4) 0.5974(4) 0.9020(4) 0.0644 Uani
C15 C 0.8521(7) 0.4415(6) 0.9120(10) 0.0628 Uani
H14 H 0.7534 0.3992 0.8564 0.0750 Uiso
C21 C 0.7037(6) 0.0224(5) 0.9644(8) 0.0530 Uani
C23 C 0.8566(6) 0.0099(6) 0.9831(8) 0.0600 Uani
H8 H 0.9611 0.7053 0.7828 0.1910 Uiso
O13 O 0.6058(4) 0.9115(4) 0.9136(4) 0.0694 Uani
C22 C 0.8821(6) 0.8989(7) 0.9092(8) 0.0681 Uani
H20 H 0.8022 0.8304 0.8463 0.0820 Uiso
Lu1 Lu 0.47493(9) 0.23375(10) 0.00334(13) 0.0572 Uani
O1 O 0.3724(4) 0.4026(4) 0.0980(4) 0.0644 Uani
O2 O 0.6788(3) 0.4123(3) 0.1378(3) 0.0607 Uani
O3 O 0.3942(4) 0.0885(4) 0.0864(4) 0.0694 Uani
C2 C 0.7174(5) 0.3748(6) 0.2481(6) 0.0624 Uani
O7 O 0.6379(5) 0.2755(6) 0.2506(6) 0.0680 Uani
C4 C 0.1179(6) 0.1011(7) 0.0908(8) 0.0681 Uani
H5 H 0.1978 0.1696 0.1537 0.0820 Uiso
C7 C 0.8638(6) 0.4408(8) 0.3810(7) 0.0634 Uani
C8 C 0.1479(7) 0.5585(6) 0.0880(10) 0.0628 Uani
H6 H 0.2466 0.6008 0.1436 0.0750 Uiso
C10 C 0.9475(6) 0.5414(8) 0.3723(9) 0.0951 Uani
H7 H 0.9133 0.5708 0.2883 0.1140 Uiso
C11 C 0.9127(7) 0.3989(9) 0.5075(7) 0.0985 Uani
N3 N 0.8255 0.2982 0.5232 0.2914 Uani
H12 H 0.7391 0.2608 0.4528 0.6030 Uiso
H13 H 0.8589 0.2745 0.6031 0.6030 Uiso
C14 C 0.0334(5) 0.6258(7) 0.0965(10) 0.0629 Uani
N4 N 0.070(4) 0.762(6) 0.198(6) 0.2781 Uani
H15 H 0.1621 0.7996 0.2512 0.3340 Uiso
H16 H 0.0003 0.8039 0.2035 0.3340 Uiso
H21 H 0.0389 0.2947 0.2172 0.1910 Uiso
O6 O 0.3304(5) 0.8632(6) 0.0009(8) 0.0757 Uani
C3 C 0.2963(6) 0.9776(5) 0.0356(8) 0.0530 Uani
C5 C 0.1434(6) 0.9901(6) 0.0169(8) 0.0600 Uani
O10 O 0.7768(3) 0.7386(3) 0.1017(3) 0.0633 Uani
C13 C 0.8837(6) 0.5674(6) 0.0004(9) 0.0574 Uani
C16 C 0.7630(5) 0.6396(5) 0.0070(5) 0.0585 Uani
C24 C 0.9774(7) 0.1184(6) 0.0775(10) 0.0635 Uani
N6 N 0.9621(8) 0.2342(6) 0.1590(11) 0.1592 Uani
H22 H 0.8756 0.2467 0.1521 0.1910 Uiso
H25 H 0.6852 0.0068 0.1823 0.1500 Uiso
O15 O 0.5234(6) 0.6636(7) 0.1589(6) 0.0546 Uani
H23 H 0.5729 0.5825 0.1725 0.0300 Uiso
H24 H 0.5294 0.7131 0.2552 0.0500 Uiso
O16 O 0.6381(6) 0.9419(6) 0.2144(6) 0.0784 Uani
H26 H 0.5295 0.9492 0.1759 0.1000 Uiso
loop_
_atom_site_aniso_label
_atom_site_aniso_U_11
_atom_site_aniso_U_22
_atom_site_aniso_U_33
_atom_site_aniso_U_23
_atom_site_aniso_U_13
_atom_site_aniso_U_12
O11 0.044 0.068 0.061 0.026 0.012 0.004
C17 0.04 0.059 0.084 0.02 0.025 -0.001
O12 0.037 0.097 0.068 0.039 0.015 -0.001
C18 0.052 0.07 0.058 0.024 0.014 -0.004
C19 0.052 0.113 0.073 0.034 -0.014 -0.033
C20 0.091 0.108 0.089 0.042 0.031 -0.031
N5 0.29 0.29 0.29 0.079 0.128 0.045
Lu6 0.0237 0.0556 0.0832 0.0145 0.0183 0.0071
O4 0.059 0.063 0.067 0.019 0.027 0.012
O5 0.047 0.056 0.057 0.009 0.023 0.013
C1 0.038 0.063 0.071 0.019 0.023 0.021
O8 0.045 0.076 0.089 0 0.02 -0.003
C12 0.032 0.06 0.104 0.032 0.044 0.014
O21 0.019 0.065 0.127 0.003 0.03 0.006
C9 0.055 0.046 0.092 0.006 0.042 0.008
N1 0.157 0.159 0.161 0.041 0.073 0.026
C6 0.022 0.063 0.084 0.003 0.015 0.004
N2 0.13 0.35 0.42 0.25 0.11 0.07
O9 0.022 0.084 0.079 0.013 0.019 0.02
C15 0.029 0.061 0.082 0.014 0.012 0.02
C21 0.032 0.056 0.069 0.016 0.021 0.013
C23 0.034 0.053 0.084 0.022 0.017 0.007
O13 0.054 0.08 0.092 0.03 0.044 0.031
C22 0.033 0.042 0.112 0.018 0.019 0.005
Lu1 0.0237 0.0556 0.0832 0.0145 0.0183 0.0071
O1 0.022 0.084 0.079 0.013 0.019 0.02
O2 0.044 0.068 0.061 0.026 0.012 0.004
O3 0.054 0.08 0.092 0.03 0.044 0.031
C2 0.04 0.059 0.084 0.02 0.025 -0.001
O7 0.037 0.097 0.068 0.039 0.015 -0.001
C4 0.033 0.042 0.112 0.018 0.019 0.005
C7 0.052 0.07 0.058 0.024 0.014 -0.004
C8 0.029 0.061 0.082 0.014 0.012 0.02
C10 0.052 0.113 0.073 0.034 -0.014 -0.033
C11 0.091 0.108 0.089 0.042 0.031 -0.031
N3 0.29 0.29 0.29 0.079 0.128 0.045
C14 0.022 0.063 0.084 0.003 0.015 0.004
N4 0.13 0.35 0.42 0.25 0.11 0.07
O6 0.019 0.065 0.127 0.003 0.03 0.006
C3 0.032 0.056 0.069 0.016 0.021 0.013
C5 0.034 0.053 0.084 0.022 0.017 0.007
O10 0.059 0.063 0.067 0.019 0.027 0.012
C13 0.038 0.063 0.071 0.019 0.023 0.021
C16 0.032 0.06 0.104 0.032 0.044 0.014
C24 0.055 0.046 0.092 0.006 0.042 0.008
N6 0.157 0.159 0.161 0.041 0.073 0.026
O15 0.047 0.056 0.057 0.009 0.023 0.013
O16 0.045 0.076 0.089 0 0.02 -0.003
loop_
_geom_bond_atom_site_label_1
_geom_bond_atom_site_label_2
_geom_bond_site_symmetry_1
_geom_bond_site_symmetry_2
O11 C17 1_555 1_555
C17 O12 1_555 1_555
O12 Lu6 1_555 1_555
C18 C17 1_555 1_555
H17 C19 1_555 1_555
N5 C20 1_555 1_555
H18 N5 1_555 1_555
H19 N5 1_555 1_555
Lu6 O11 1_555 1_555
C18 C19 1_555 1_555
C18 C20 1_555 1_555
H1 O5 1_555 1_555
H2 O5 1_555 1_555
H4 O8 1_555 1_555
C12 O4 1_555 1_555
C1 C12 1_555 1_555
N1 C9 1_555 1_555
H9 N1 1_555 1_555
C6 N2 1_555 1_555
N2 H10 1_555 1_555
H11 N2 1_555 1_555
C15 C6 1_555 1_555
H14 C15 1_555 1_555
C21 C23 1_555 1_555
O21 C21 1_555 1_555
Lu6 O9 1_555 1_555
H20 C22 1_555 1_555
Lu6 O13 1_555 1_555
Lu1 O1 1_555 1_555
O2 Lu1 1_555 1_555
O3 Lu1 1_555 1_555
C2 O2 1_555 1_555
O7 Lu1 1_555 1_555
C4 H5 1_555 1_555
C7 C2 1_555 1_555
H6 C8 1_555 1_555
C10 C7 1_555 1_555
H7 C10 1_555 1_555
C11 C7 1_555 1_555
N3 C11 1_555 1_555
H12 N3 1_555 1_555
H13 N3 1_555 1_555
C14 C8 1_555 1_555
N4 C14 1_555 1_555
H15 N4 1_555 1_555
H16 N4 1_555 1_555
C2 O7 1_555 1_555
O6 C3 1_555 1_555
C5 C3 1_555 1_555
O10 C16 1_555 1_555
C16 C13 1_555 1_555
N6 C24 1_555 1_555
H22 N6 1_555 1_555
H23 O15 1_555 1_555
H24 O15 1_555 1_555
H26 O16 1_555 1_555

#END
