
###############################################################################
#
# This file contains modified crystal structure data generated from the
# MOF subset of the Cambridge Structural Database (CSD) v543 
# hosted by the Cambridge Crystallographic Data Centre (CCDC).
#
# This work is licensed under the Creative Commons
# Attribution-NonCommercial-ShareAlike 4.0 International License.
# To view a copy of this license, visit
# http://creativecommons.org/licenses/by-nc-sa/4.0/
# or send a letter to
# Creative Commons, PO Box 1866, Mountain View, CA 94042, USA.
#
# CIF created using the CSD Python API on 29 September 2022
# The structure has been converted into the P1 space group
# The structure has a 3D framework
# The original CSD entry AXAHIT is in the monoclinic crystal system
# The framework has been calculated to contain at least 10.0% void space
# The void calculation uses a probe of radius 1.32A, grid spacing 0.4
#
###############################################################################

data_AXAHIT
_chemical_formula_moiety         '(C208 H136 Mn11 N48 O40)n'
_symmetry_cell_setting           triclinic
_symmetry_space_group_name_H-M   'P 1'
_symmetry_Int_Tables_number      1
_space_group_name_Hall           'P 1'
loop_
_symmetry_equiv_pos_site_id
_symmetry_equiv_pos_as_xyz
1 x,y,z
_cell_length_a                   22.729(2)
_cell_length_b                   15.5808(13)
_cell_length_c                   16.1471(10)
_cell_angle_alpha                90
_cell_angle_beta                 93.157(7)
_cell_angle_gamma                90
_cell_volume                     5709.59
loop_
_atom_site_label
_atom_site_type_symbol
_atom_site_fract_x
_atom_site_fract_y
_atom_site_fract_z
Mn5 Mn 0.0000 0.17958(4) 0.2500
Mn1 Mn 0.5000 0.67958(4) 0.2500
Mn2 Mn 0.34416(2) 0.35431(3) 0.72588(2)
O1 O 0.44416(10) 0.31309(14) 0.63644(11)
O2 O 0.43674(10) 0.58056(14) 0.27675(12)
O3 O 0.36905(9) 0.40095(15) 0.60904(12)
O4 O 0.35228(9) 0.54990(15) 0.32962(13)
O5 O 0.57842(10) 0.36659(17) 0.39779(14)
N1 N 0.87913(11) 0.24901(17) 0.31051(14)
N2 N 0.93688(11) 0.26872(18) 0.30983(15)
N3 N 0.24739(12) 0.3845(2) 0.71825(15)
N4 N 0.29735(13) 0.24693(18) 0.65335(16)
N5 N 0.94741(13) 0.3373(2) 0.35626(19)
N6 N 0.89685(14) 0.3635(2) 0.3876(2)
C1 C 0.41216(13) 0.44820(19) 0.45617(17)
H1 H 0.3748 0.4673 0.4679
C2 C 0.43800(12) 0.4761(2) 0.38447(16)
C3 C 0.49407(13) 0.4483(2) 0.36833(17)
H2 H 0.5121 0.4688 0.3219
C4 C 0.40715(13) 0.5388(2) 0.32798(16)
C5 C 0.41682(14) 0.3665(2) 0.59048(17)
C6 C 0.52367(13) 0.3901(2) 0.42068(18)
C7 C 0.44224(13) 0.3921(2) 0.50978(16)
C8 C 0.49738(14) 0.3609(2) 0.49097(18)
H3 H 0.5165 0.3206 0.5254
C9 C 0.85545(14) 0.3083(2) 0.35887(18)
C10 C 0.79333(14) 0.3108(2) 0.37935(18)
C11 C 0.76136(15) 0.2350(2) 0.38518(18)
H4 H 0.7793 0.1828 0.3747
C12 C 0.70291(15) 0.2364(2) 0.40642(18)
H5 H 0.6821 0.1853 0.4093
C13 C 0.67546(15) 0.3133(2) 0.42332(19)
C14 C 0.61427(16) 0.3143(3) 0.4531(2)
H6 H 0.5987 0.2564 0.4540
H7 H 0.6146 0.3374 0.5089
C15 C 0.76557(16) 0.3876(3) 0.3950(2)
H8 H 0.7863 0.4388 0.3912
C16 C 0.23942(16) 0.2561(3) 0.6363(2)
C17 C 0.21109(16) 0.3303(3) 0.6749(2)
C18 C 0.70744(17) 0.3893(3) 0.4162(2)
H9 H 0.6894 0.4417 0.4258
C19 C 0.22368(17) 0.4508(3) 0.7566(2)
H10 H 0.2489 0.4882 0.7861
C20 C 0.32531(18) 0.1813(3) 0.6202(2)
H11 H 0.3654 0.1745 0.6336
C21 C 0.2977(2) 0.1233(3) 0.5671(3)
H12 H 0.3185 0.0783 0.5447
C22 C 0.16355(19) 0.4674(3) 0.7553(3)
H13 H 0.1487 0.5131 0.7846
C23 C 0.2080(2) 0.2002(3) 0.5822(3)
H14 H 0.1679 0.2078 0.5699
C24 C 0.2381(2) 0.1338(3) 0.5480(3)
H15 H 0.2183 0.0958 0.5118
C25 C 0.1505(2) 0.3456(4) 0.6697(4)
H16 H 0.1254 0.3090 0.6389
C26 C 0.1279(2) 0.4148(4) 0.7100(4)
H17 H 0.0875 0.4253 0.7059
O7 O 0.56326(10) 0.58056(14) 0.22325(12)
O9 O 0.64772(9) 0.54990(15) 0.17038(13)
O10 O 0.42158(10) 0.36659(17) 0.10221(14)
N7 N 0.12087(11) 0.24901(17) 0.18949(14)
N8 N 0.06312(11) 0.26872(18) 0.19017(15)
N11 N 0.05259(13) 0.3373(2) 0.14374(19)
N12 N 0.10315(14) 0.3635(2) 0.1124(2)
C27 C 0.58784(13) 0.44820(19) 0.04383(17)
H18 H 0.6252 0.4673 0.0321
C28 C 0.56200(12) 0.4761(2) 0.11553(16)
C29 C 0.50593(13) 0.4483(2) 0.13167(17)
H19 H 0.4879 0.4688 0.1781
C30 C 0.59285(13) 0.5388(2) 0.17202(16)
C32 C 0.47633(13) 0.3901(2) 0.07932(18)
C34 C 0.50262(14) 0.3609(2) 0.00903(18)
C35 C 0.14455(14) 0.3083(2) 0.14113(18)
C36 C 0.20667(14) 0.3108(2) 0.12065(18)
C37 C 0.23864(15) 0.2350(2) 0.11482(18)
H21 H 0.2207 0.1828 0.1253
C38 C 0.29709(15) 0.2364(2) 0.09358(18)
H22 H 0.3179 0.1853 0.0907
C39 C 0.32454(15) 0.3133(2) 0.07668(19)
C40 C 0.38573(16) 0.3143(3) 0.0469(2)
H23 H 0.4013 0.2564 0.0460
C41 C 0.23443(16) 0.3876(3) 0.1050(2)
H25 H 0.2137 0.4388 0.1088
C44 C 0.29256(17) 0.3893(3) 0.0838(2)
H26 H 0.3106 0.4417 0.0742
Mn5_2 Mn 1.0000 0.17958(4) 0.2500
Mn7 Mn 0.5000 0.32042(4) 0.7500
Mn8 Mn 0.65584(2) 0.64569(3) 0.27412(2)
Mn9 Mn 0.34416(2) 0.64569(3) 0.22588(2)
Mn10 Mn 0.15584(2) 0.14569(3) 0.27412(2)
Mn11 Mn 0.84416(2) 0.14569(3) 0.22588(2)
O11 O 0.55584(10) 0.68691(14) 0.36356(11)
O12 O 0.44416(10) 0.68691(14) 0.13644(11)
O14 O 0.43674(10) 0.41944(14) 0.77675(12)
O16 O 0.35228(9) 0.45010(15) 0.82962(13)
N14 N 0.37913(11) 0.25099(17) 0.81051(14)
N15 N 0.43688(11) 0.76872(18) 0.30983(15)
N16 N 0.56312(11) 0.76872(18) 0.19017(15)
Mn3 Mn 0.65584(2) 0.35431(3) 0.77412(2)
O6 O 0.55584(10) 0.31309(14) 0.86356(11)
O8 O 0.63095(9) 0.40095(15) 0.89096(12)
N9 N 0.75261(12) 0.3845(2) 0.78175(15)
N10 N 0.70265(13) 0.24693(18) 0.84665(16)
C31 C 0.58318(14) 0.3665(2) 0.90952(17)
C33 C 0.55776(13) 0.3921(2) 0.99022(16)
H20 H 0.4835 0.3206 0.9746
H24 H 0.3854 0.3374 0.9911
C42 C 0.76058(16) 0.2561(3) 0.8637(2)
C43 C 0.78891(16) 0.3303(3) 0.8251(2)
C45 C 0.77632(17) 0.4508(3) 0.7434(2)
H27 H 0.7511 0.4882 0.7139
C46 C 0.67469(18) 0.1813(3) 0.8798(2)
H28 H 0.6346 0.1745 0.8664
C47 C 0.7023(2) 0.1233(3) 0.9329(3)
H29 H 0.6815 0.0783 0.9553
C48 C 0.83645(19) 0.4674(3) 0.7447(3)
H30 H 0.8513 0.5131 0.7154
C49 C 0.7920(2) 0.2002(3) 0.9178(3)
H31 H 0.8321 0.2078 0.9301
C50 C 0.7619(2) 0.1338(3) 0.9520(3)
H32 H 0.7817 0.0958 0.9882
C51 C 0.8495(2) 0.3456(4) 0.8303(4)
H33 H 0.8746 0.3090 0.8611
C52 C 0.8721(2) 0.4148(4) 0.7900(4)
H34 H 0.9125 0.4253 0.7941
O13 O 0.56326(10) 0.41944(14) 0.72325(12)
O15 O 0.64772(9) 0.45010(15) 0.67038(13)
N13 N 0.62087(11) 0.25099(17) 0.68949(14)
O7_2 O 0.06326(10) 0.08056(14) 0.22325(12)
O9_2 O 0.14772(9) 0.04990(15) 0.17038(13)
C30_2 C 0.09285(13) 0.0388(2) 0.17202(16)
O11_2 O 0.05584(10) 0.18691(14) 0.36356(11)
O5_2 O 0.07842(10) 0.86659(17) 0.39779(14)
N1_2 N 0.37913(11) 0.74901(17) 0.31051(14)
N5_2 N 0.44741(13) 0.8373(2) 0.35626(19)
N6_2 N 0.39685(14) 0.8635(2) 0.3876(2)
H2_2 H 0.0121 0.9688 0.3219
C6_2 C 0.02367(13) 0.8901(2) 0.42068(18)
H3_2 H 0.0165 0.8206 0.5254
C9_2 C 0.35545(14) 0.8083(2) 0.35887(18)
C10_2 C 0.29333(14) 0.8108(2) 0.37935(18)
C11_2 C 0.26136(15) 0.7350(2) 0.38518(18)
H4_2 H 0.2793 0.6828 0.3747
C12_2 C 0.20291(15) 0.7364(2) 0.40642(18)
H5_2 H 0.1821 0.6853 0.4093
C13_2 C 0.17546(15) 0.8133(2) 0.42332(19)
C14_2 C 0.11427(16) 0.8143(3) 0.4531(2)
H6_2 H 0.0987 0.7564 0.4540
H7_2 H 0.1146 0.8374 0.5089
C15_2 C 0.26557(16) 0.8876(3) 0.3950(2)
H8_2 H 0.2863 0.9388 0.3912
C18_2 C 0.20744(17) 0.8893(3) 0.4162(2)
H9_2 H 0.1894 0.9417 0.4258
C27_2 C 0.08784(13) 0.94820(19) 0.04383(17)
H18_2 H 0.1252 0.9673 0.0321
C28_2 C 0.06200(12) 0.9761(2) 0.11553(16)
C29_2 C 0.00593(13) 0.9483(2) 0.13167(17)
C34_2 C 0.00262(14) 0.8609(2) 0.00903(18)
Mn7_2 Mn 0.0000 0.82042(4) 0.7500
Mn3_2 Mn 0.15584(2) 0.85431(3) 0.77412(2)
O6_2 O 0.05584(10) 0.81309(14) 0.86356(11)
O8_2 O 0.13095(9) 0.90095(15) 0.89096(12)
N9_2 N 0.25261(12) 0.8845(2) 0.78175(15)
N10_2 N 0.20265(13) 0.74693(18) 0.84665(16)
C31_2 C 0.08318(14) 0.8665(2) 0.90952(17)
C33_2 C 0.05776(13) 0.8921(2) 0.99022(16)
C42_2 C 0.26058(16) 0.7561(3) 0.8637(2)
C43_2 C 0.28891(16) 0.8303(3) 0.8251(2)
C45_2 C 0.27632(17) 0.9508(3) 0.7434(2)
H27_2 H 0.2511 0.9882 0.7139
C46_2 C 0.17469(18) 0.6813(3) 0.8798(2)
H28_2 H 0.1346 0.6745 0.8664
C47_2 C 0.2023(2) 0.6233(3) 0.9329(3)
H29_2 H 0.1815 0.5783 0.9553
C48_2 C 0.33645(19) 0.9674(3) 0.7447(3)
C49_2 C 0.2920(2) 0.7002(3) 0.9178(3)
H31_2 H 0.3321 0.7078 0.9301
C50_2 C 0.2619(2) 0.6338(3) 0.9520(3)
H32_2 H 0.2817 0.5958 0.9882
C51_2 C 0.3495(2) 0.8456(4) 0.8303(4)
H33_2 H 0.3746 0.8090 0.8611
C52_2 C 0.3721(2) 0.9148(4) 0.7900(4)
H34_2 H 0.4125 0.9253 0.7941
O13_2 O 0.06326(10) 0.91944(14) 0.72325(12)
O15_2 O 0.14772(9) 0.95010(15) 0.67038(13)
N13_2 N 0.12087(11) 0.75099(17) 0.68949(14)
O2_2 O 0.93674(10) 0.08056(14) 0.27675(12)
O4_2 O 0.85228(9) 0.04990(15) 0.32962(13)
C4_2 C 0.90715(13) 0.0388(2) 0.32798(16)
H13_2 H 0.6487 0.0131 0.7846
O12_2 O 0.94416(10) 0.18691(14) 0.13644(11)
Mn2_2 Mn 0.84416(2) 0.85431(3) 0.72588(2)
O1_2 O 0.94416(10) 0.81309(14) 0.63644(11)
O3_2 O 0.86905(9) 0.90095(15) 0.60904(12)
N3_2 N 0.74739(12) 0.8845(2) 0.71825(15)
N4_2 N 0.79735(13) 0.74693(18) 0.65335(16)
C1_2 C 0.91216(13) 0.94820(19) 0.45617(17)
H1_2 H 0.8748 0.9673 0.4679
C2_2 C 0.93800(12) 0.9761(2) 0.38447(16)
C3_2 C 0.99407(13) 0.9483(2) 0.36833(17)
C5_2 C 0.91682(14) 0.8665(2) 0.59048(17)
C7_2 C 0.94224(13) 0.8921(2) 0.50978(16)
C8_2 C 0.99738(14) 0.8609(2) 0.49097(18)
C16_2 C 0.73942(16) 0.7561(3) 0.6363(2)
C17_2 C 0.71109(16) 0.8303(3) 0.6749(2)
C19_2 C 0.72368(17) 0.9508(3) 0.7566(2)
H10_2 H 0.7489 0.9882 0.7861
C20_2 C 0.82531(18) 0.6813(3) 0.6202(2)
H11_2 H 0.8654 0.6745 0.6336
C21_2 C 0.7977(2) 0.6233(3) 0.5671(3)
H12_2 H 0.8185 0.5783 0.5447
C22_2 C 0.66355(19) 0.9674(3) 0.7553(3)
C23_2 C 0.7080(2) 0.7002(3) 0.5822(3)
H14_2 H 0.6679 0.7078 0.5699
C24_2 C 0.7381(2) 0.6338(3) 0.5480(3)
H15_2 H 0.7183 0.5958 0.5118
C25_2 C 0.6505(2) 0.8456(4) 0.6697(4)
H16_2 H 0.6254 0.8090 0.6389
C26_2 C 0.6279(2) 0.9148(4) 0.7100(4)
H17_2 H 0.5875 0.9253 0.7059
O10_2 O 0.92158(10) 0.86659(17) 0.10221(14)
N7_2 N 0.62087(11) 0.74901(17) 0.18949(14)
N11_2 N 0.55259(13) 0.8373(2) 0.14374(19)
N12_2 N 0.60315(14) 0.8635(2) 0.1124(2)
H19_2 H 0.9879 0.9688 0.1781
C32_2 C 0.97633(13) 0.8901(2) 0.07932(18)
C35_2 C 0.64455(14) 0.8083(2) 0.14113(18)
C36_2 C 0.70667(14) 0.8108(2) 0.12065(18)
C37_2 C 0.73864(15) 0.7350(2) 0.11482(18)
H21_2 H 0.7207 0.6828 0.1253
C38_2 C 0.79709(15) 0.7364(2) 0.09358(18)
H22_2 H 0.8179 0.6853 0.0907
C39_2 C 0.82454(15) 0.8133(2) 0.07668(19)
C40_2 C 0.88573(16) 0.8143(3) 0.0469(2)
H23_2 H 0.9013 0.7564 0.0460
C41_2 C 0.73443(16) 0.8876(3) 0.1050(2)
H25_2 H 0.7137 0.9388 0.1088
C44_2 C 0.79256(17) 0.8893(3) 0.0838(2)
H26_2 H 0.8106 0.9417 0.0742
Mn7_3 Mn 1.0000 0.82042(4) 0.7500
O14_2 O 0.93674(10) 0.91944(14) 0.77675(12)
O16_2 O 0.85228(9) 0.95010(15) 0.82962(13)
N14_2 N 0.87913(11) 0.75099(17) 0.81051(14)
H20_2 H 0.9835 0.8206 0.9746
H24_2 H 0.8854 0.8374 0.9911
O8_3 O 0.36905(9) 0.59905(15) 0.10904(12)
N9_3 N 0.24739(12) 0.6155(2) 0.21825(15)
N10_3 N 0.29735(13) 0.75307(18) 0.15335(16)
C31_3 C 0.41682(14) 0.6335(2) 0.09048(17)
C33_3 C 0.44224(13) 0.6079(2) 0.00978(16)
H20_3 H 0.5165 0.6794 0.0254
H24_3 H 0.6146 0.6626 0.0089
C42_3 C 0.23942(16) 0.7439(3) 0.1363(2)
C43_3 C 0.21109(16) 0.6697(3) 0.1749(2)
C45_3 C 0.22368(17) 0.5492(3) 0.2566(2)
H27_3 H 0.2489 0.5118 0.2861
C46_3 C 0.32531(18) 0.8187(3) 0.1202(2)
H28_3 H 0.3654 0.8255 0.1336
C47_3 C 0.2977(2) 0.8767(3) 0.0671(3)
H29_3 H 0.3185 0.9217 0.0447
C48_3 C 0.16355(19) 0.5326(3) 0.2553(3)
H30_2 H 0.1487 0.4869 0.2846
C49_3 C 0.2080(2) 0.7998(3) 0.0822(3)
H31_3 H 0.1679 0.7922 0.0699
C50_3 C 0.2381(2) 0.8662(3) 0.0480(3)
H32_3 H 0.2183 0.9042 0.0118
C51_3 C 0.1505(2) 0.6544(4) 0.1697(4)
H33_3 H 0.1254 0.6910 0.1389
C52_3 C 0.1279(2) 0.5852(4) 0.2100(4)
H34_3 H 0.0875 0.5747 0.2059
O3_3 O 0.63095(9) 0.59905(15) 0.39096(12)
O5_3 O 0.42158(10) 0.63341(17) 0.60221(14)
N2_2 N 0.06312(11) 0.73128(18) 0.69017(15)
N3_3 N 0.75261(12) 0.6155(2) 0.28175(15)
N4_3 N 0.70265(13) 0.75307(18) 0.34665(16)
N5_3 N 0.05259(13) 0.6627(2) 0.64374(19)
N6_3 N 0.10315(14) 0.6365(2) 0.6124(2)
C1_3 C 0.58784(13) 0.55180(19) 0.54383(17)
H1_3 H 0.6252 0.5327 0.5321
C2_3 C 0.56200(12) 0.5239(2) 0.61553(16)
C3_3 C 0.50593(13) 0.5517(2) 0.63167(17)
H2_3 H 0.4879 0.5312 0.6781
C4_3 C 0.59285(13) 0.4612(2) 0.67202(16)
C5_3 C 0.58318(14) 0.6335(2) 0.40952(17)
C6_3 C 0.47633(13) 0.6099(2) 0.57932(18)
C7_3 C 0.55776(13) 0.6079(2) 0.49022(16)
C8_3 C 0.50262(14) 0.6391(2) 0.50903(18)
H3_3 H 0.4835 0.6794 0.4746
C9_3 C 0.14455(14) 0.6917(2) 0.64113(18)
C10_3 C 0.20667(14) 0.6892(2) 0.62065(18)
C11_3 C 0.23864(15) 0.7650(2) 0.61482(18)
H4_3 H 0.2207 0.8172 0.6253
C12_3 C 0.29709(15) 0.7636(2) 0.59358(18)
H5_3 H 0.3179 0.8147 0.5907
C13_3 C 0.32454(15) 0.6867(2) 0.57668(19)
C14_3 C 0.38573(16) 0.6857(3) 0.5469(2)
H6_3 H 0.4013 0.7436 0.5460
H7_3 H 0.3854 0.6626 0.4911
C15_3 C 0.23443(16) 0.6124(3) 0.6050(2)
H8_3 H 0.2137 0.5612 0.6088
C16_3 C 0.76058(16) 0.7439(3) 0.3637(2)
C17_3 C 0.78891(16) 0.6697(3) 0.3251(2)
C18_3 C 0.29256(17) 0.6107(3) 0.5838(2)
H9_3 H 0.3106 0.5583 0.5742
C19_3 C 0.77632(17) 0.5492(3) 0.2434(2)
H10_3 H 0.7511 0.5118 0.2139
C20_3 C 0.67469(18) 0.8187(3) 0.3798(2)
H11_3 H 0.6346 0.8255 0.3664
C21_3 C 0.7023(2) 0.8767(3) 0.4329(3)
H12_3 H 0.6815 0.9217 0.4553
C22_3 C 0.83645(19) 0.5326(3) 0.2447(3)
H13_3 H 0.8513 0.4869 0.2154
C23_3 C 0.7920(2) 0.7998(3) 0.4178(3)
H14_3 H 0.8321 0.7922 0.4301
C24_3 C 0.7619(2) 0.8662(3) 0.4520(3)
H15_3 H 0.7817 0.9042 0.4882
C25_3 C 0.8495(2) 0.6544(4) 0.3303(4)
H16_3 H 0.8746 0.6910 0.3611
C26_3 C 0.8721(2) 0.5852(4) 0.2900(4)
H17_3 H 0.9125 0.5747 0.2941
O10_3 O 0.57842(10) 0.63341(17) 0.89779(14)
N8_2 N 0.93688(11) 0.73128(18) 0.80983(15)
N11_3 N 0.94741(13) 0.6627(2) 0.85626(19)
N12_3 N 0.89685(14) 0.6365(2) 0.8876(2)
C27_3 C 0.41216(13) 0.55180(19) 0.95617(17)
H18_3 H 0.3748 0.5327 0.9679
C28_3 C 0.43800(12) 0.5239(2) 0.88447(16)
C29_3 C 0.49407(13) 0.5517(2) 0.86833(17)
H19_3 H 0.5121 0.5312 0.8219
C30_3 C 0.40715(13) 0.4612(2) 0.82798(16)
C32_3 C 0.52367(13) 0.6099(2) 0.92068(18)
C34_3 C 0.49738(14) 0.6391(2) 0.99097(18)
C35_3 C 0.85545(14) 0.6917(2) 0.85887(18)
C36_3 C 0.79333(14) 0.6892(2) 0.87935(18)
C37_3 C 0.76136(15) 0.7650(2) 0.88518(18)
H21_3 H 0.7793 0.8172 0.8747
C38_3 C 0.70291(15) 0.7636(2) 0.90642(18)
H22_3 H 0.6821 0.8147 0.9093
C39_3 C 0.67546(15) 0.6867(2) 0.92332(19)
C40_3 C 0.61427(16) 0.6857(3) 0.9531(2)
H23_3 H 0.5987 0.7436 0.9540
C41_3 C 0.76557(16) 0.6124(3) 0.8950(2)
H25_3 H 0.7863 0.5612 0.8912
C44_3 C 0.70744(17) 0.6107(3) 0.9162(2)
H26_3 H 0.6894 0.5583 0.9258
N15_2 N 0.56312(11) 0.23128(18) 0.69017(15)
N16_2 N 0.43688(11) 0.23128(18) 0.80983(15)
H20_4 H 0.0165 0.1794 0.0254
H24_4 H 0.1146 0.1626 0.0089
O3_4 O 0.13095(9) 0.09905(15) 0.39096(12)
N3_4 N 0.25261(12) 0.1155(2) 0.28175(15)
N4_4 N 0.20265(13) 0.25307(18) 0.34665(16)
C1_4 C 0.08784(13) 0.05180(19) 0.54383(17)
H1_4 H 0.1252 0.0327 0.5321
C2_4 C 0.06200(12) 0.0239(2) 0.61553(16)
C3_4 C 0.00593(13) 0.0517(2) 0.63167(17)
C5_4 C 0.08318(14) 0.1335(2) 0.40952(17)
C7_4 C 0.05776(13) 0.1079(2) 0.49022(16)
C8_4 C 0.00262(14) 0.1391(2) 0.50903(18)
C16_4 C 0.26058(16) 0.2439(3) 0.3637(2)
C17_4 C 0.28891(16) 0.1697(3) 0.3251(2)
C19_4 C 0.27632(17) 0.0492(3) 0.2434(2)
H10_4 H 0.2511 0.0118 0.2139
C20_4 C 0.17469(18) 0.3187(3) 0.3798(2)
H11_4 H 0.1346 0.3255 0.3664
C21_4 C 0.2023(2) 0.3767(3) 0.4329(3)
H12_4 H 0.1815 0.4217 0.4553
C22_4 C 0.33645(19) 0.0326(3) 0.2447(3)
C23_4 C 0.2920(2) 0.2998(3) 0.4178(3)
H14_4 H 0.3321 0.2922 0.4301
C24_4 C 0.2619(2) 0.3662(3) 0.4520(3)
H15_4 H 0.2817 0.4042 0.4882
C25_4 C 0.3495(2) 0.1544(4) 0.3303(4)
H16_4 H 0.3746 0.1910 0.3611
C26_4 C 0.3721(2) 0.0852(4) 0.2900(4)
H17_4 H 0.4125 0.0747 0.2941
O10_4 O 0.07842(10) 0.13341(17) 0.89779(14)
N11_4 N 0.44741(13) 0.1627(2) 0.85626(19)
N12_4 N 0.39685(14) 0.1365(2) 0.8876(2)
H19_4 H 0.0121 0.0312 0.8219
C32_4 C 0.02367(13) 0.1099(2) 0.92068(18)
C35_4 C 0.35545(14) 0.1917(2) 0.85887(18)
C36_4 C 0.29333(14) 0.1892(2) 0.87935(18)
C37_4 C 0.26136(15) 0.2650(2) 0.88518(18)
H21_4 H 0.2793 0.3172 0.8747
C38_4 C 0.20291(15) 0.2636(2) 0.90642(18)
H22_4 H 0.1821 0.3147 0.9093
C39_4 C 0.17546(15) 0.1867(2) 0.92332(19)
C40_4 C 0.11427(16) 0.1857(3) 0.9531(2)
H23_4 H 0.0987 0.2436 0.9540
C41_4 C 0.26557(16) 0.1124(3) 0.8950(2)
H25_4 H 0.2863 0.0612 0.8912
C44_4 C 0.20744(17) 0.1107(3) 0.9162(2)
H26_4 H 0.1894 0.0583 0.9258
C4_4 C 0.09285(13) 0.9612(2) 0.67202(16)
H13_4 H 0.3513 0.9869 0.2154
O8_4 O 0.86905(9) 0.09905(15) 0.10904(12)
N9_4 N 0.74739(12) 0.1155(2) 0.21825(15)
N10_4 N 0.79735(13) 0.25307(18) 0.15335(16)
C31_4 C 0.91682(14) 0.1335(2) 0.09048(17)
C33_4 C 0.94224(13) 0.1079(2) 0.00978(16)
C42_4 C 0.73942(16) 0.2439(3) 0.1363(2)
C43_4 C 0.71109(16) 0.1697(3) 0.1749(2)
C45_4 C 0.72368(17) 0.0492(3) 0.2566(2)
H27_4 H 0.7489 0.0118 0.2861
C46_4 C 0.82531(18) 0.3187(3) 0.1202(2)
H28_4 H 0.8654 0.3255 0.1336
C47_4 C 0.7977(2) 0.3767(3) 0.0671(3)
H29_4 H 0.8185 0.4217 0.0447
C48_4 C 0.66355(19) 0.0326(3) 0.2553(3)
C49_4 C 0.7080(2) 0.2998(3) 0.0822(3)
H31_4 H 0.6679 0.2922 0.0699
C50_4 C 0.7381(2) 0.3662(3) 0.0480(3)
H32_4 H 0.7183 0.4042 0.0118
C51_4 C 0.6505(2) 0.1544(4) 0.1697(4)
H33_4 H 0.6254 0.1910 0.1389
C52_4 C 0.6279(2) 0.0852(4) 0.2100(4)
H34_4 H 0.5875 0.0747 0.2059
O5_4 O 0.92158(10) 0.13341(17) 0.60221(14)
N5_4 N 0.55259(13) 0.1627(2) 0.64374(19)
N6_4 N 0.60315(14) 0.1365(2) 0.6124(2)
H2_4 H 0.9879 0.0312 0.6781
C6_4 C 0.97633(13) 0.1099(2) 0.57932(18)
H3_4 H 0.9835 0.1794 0.4746
C9_4 C 0.64455(14) 0.1917(2) 0.64113(18)
C10_4 C 0.70667(14) 0.1892(2) 0.62065(18)
C11_4 C 0.73864(15) 0.2650(2) 0.61482(18)
H4_4 H 0.7207 0.3172 0.6253
C12_4 C 0.79709(15) 0.2636(2) 0.59358(18)
H5_4 H 0.8179 0.3147 0.5907
C13_4 C 0.82454(15) 0.1867(2) 0.57668(19)
C14_4 C 0.88573(16) 0.1857(3) 0.5469(2)
H6_4 H 0.9013 0.2436 0.5460
H7_4 H 0.8854 0.1626 0.4911
C15_4 C 0.73443(16) 0.1124(3) 0.6050(2)
H8_4 H 0.7137 0.0612 0.6088
C18_4 C 0.79256(17) 0.1107(3) 0.5838(2)
H9_4 H 0.8106 0.0583 0.5742
C27_4 C 0.91216(13) 0.05180(19) 0.95617(17)
H18_4 H 0.8748 0.0327 0.9679
C28_4 C 0.93800(12) 0.0239(2) 0.88447(16)
C29_4 C 0.99407(13) 0.0517(2) 0.86833(17)
C34_4 C 0.99738(14) 0.1391(2) 0.99097(18)
C30_4 C 0.90715(13) 0.9612(2) 0.82798(16)
H30_3 H 0.3513 0.0131 0.7154
H30_4 H 0.6487 0.9869 0.2846
loop_
_geom_bond_atom_site_label_1
_geom_bond_atom_site_label_2
_geom_bond_site_symmetry_1
_geom_bond_site_symmetry_2
Mn1 O2 1_555 1_555
Mn2 O3 1_555 1_555
O1 C5 1_555 1_555
O2 C4 1_555 1_555
O3 C5 1_555 1_555
O4 C4 1_555 1_555
O5 C6 1_555 1_555
N1 N2 1_555 1_555
N2 N5 1_555 1_555
N3 Mn2 1_555 1_555
N4 Mn2 1_555 1_555
N5 N6 1_555 1_555
N6 C9 1_555 1_555
C1 H1 1_555 1_555
C2 C1 1_555 1_555
C3 C2 1_555 1_555
H2 C3 1_555 1_555
C4 C2 1_555 1_555
C5 C7 1_555 1_555
C6 C3 1_555 1_555
C7 C1 1_555 1_555
C8 C6 1_555 1_555
H3 C8 1_555 1_555
C9 N1 1_555 1_555
C10 C9 1_555 1_555
C11 C10 1_555 1_555
H4 C11 1_555 1_555
C12 C11 1_555 1_555
H5 C12 1_555 1_555
C13 C12 1_555 1_555
C14 O5 1_555 1_555
H6 C14 1_555 1_555
H7 C14 1_555 1_555
C15 C10 1_555 1_555
H8 C15 1_555 1_555
C16 N4 1_555 1_555
C17 N3 1_555 1_555
C18 C13 1_555 1_555
H9 C18 1_555 1_555
C19 N3 1_555 1_555
H10 C19 1_555 1_555
C20 N4 1_555 1_555
H11 C20 1_555 1_555
C21 C20 1_555 1_555
H12 C21 1_555 1_555
C22 C19 1_555 1_555
H13 C22 1_555 1_555
C23 C16 1_555 1_555
H14 C23 1_555 1_555
C24 C21 1_555 1_555
H15 C24 1_555 1_555
C25 C17 1_555 1_555
H16 C25 1_555 1_555
C26 C22 1_555 1_555
H17 C26 1_555 1_555
O7 Mn1 1_555 1_555
O9 C30 1_555 1_555
O10 C32 1_555 1_555
N7 N8 1_555 1_555
N8 N11 1_555 1_555
N11 N12 1_555 1_555
N12 C35 1_555 1_555
C27 H18 1_555 1_555
C28 C27 1_555 1_555
C29 C28 1_555 1_555
H19 C29 1_555 1_555
C30 O7 1_555 1_555
C32 C29 1_555 1_555
C34 C32 1_555 1_555
C35 N7 1_555 1_555
C36 C35 1_555 1_555
C37 C36 1_555 1_555
H21 C37 1_555 1_555
C38 C37 1_555 1_555
H22 C38 1_555 1_555
C39 C38 1_555 1_555
C40 O10 1_555 1_555
H23 C40 1_555 1_555
C41 C36 1_555 1_555
H25 C41 1_555 1_555
C44 C39 1_555 1_555
H26 C44 1_555 1_555
Mn5 N8 1_555 1_555
Mn5_2 N2 1_555 1_555
Mn7 O1 1_555 1_555
Mn8 O7 1_555 1_555
Mn9 O2 1_555 1_555
Mn10 N7 1_555 1_555
Mn11 N1 1_555 1_555
O11 Mn1 1_555 1_555
O12 Mn1 1_555 1_555
O14 Mn2 1_555 1_555
O16 Mn2 1_555 1_555
N14 Mn2 1_555 1_555
N15 Mn1 1_555 1_555
N16 Mn1 1_555 1_555
O4 Mn9 1_555 1_555
C7 C8 1_555 1_555
C13 C14 1_555 1_555
C15 C18 1_555 1_555
C16 C17 1_555 1_555
C23 C24 1_555 1_555
C25 C26 1_555 1_555
O9 Mn8 1_555 1_555
C28 C30 1_555 1_555
C39 C40 1_555 1_555
C41 C44 1_555 1_555
Mn7 O14 1_555 1_555
Mn3 O8 1_555 1_555
O6 C31 1_555 1_555
O8 C31 1_555 1_555
N9 Mn3 1_555 1_555
N10 Mn3 1_555 1_555
C31 C33 1_555 1_555
C42 N10 1_555 1_555
C43 N9 1_555 1_555
C45 N9 1_555 1_555
H27 C45 1_555 1_555
C46 N10 1_555 1_555
H28 C46 1_555 1_555
C47 C46 1_555 1_555
H29 C47 1_555 1_555
C48 C45 1_555 1_555
H30 C48 1_555 1_555
C49 C42 1_555 1_555
H31 C49 1_555 1_555
C50 C47 1_555 1_555
H32 C50 1_555 1_555
C51 C43 1_555 1_555
H33 C51 1_555 1_555
C52 C48 1_555 1_555
H34 C52 1_555 1_555
Mn7 O6 1_555 1_555
O13 Mn3 1_555 1_555
O15 Mn3 1_555 1_555
N13 Mn3 1_555 1_555
C42 C43 1_555 1_555
C49 C50 1_555 1_555
C51 C52 1_555 1_555
Mn7 O13 1_555 1_555
O7_2 Mn5 1_555 1_555
O9_2 C30_2 1_555 1_555
C30_2 O7_2 1_555 1_555
Mn10 O7_2 1_555 1_555
O11_2 Mn5 1_555 1_555
O9_2 Mn10 1_555 1_555
O5_2 C6_2 1_555 1_555
N1_2 N15 1_555 1_555
N15 N5_2 1_555 1_555
N5_2 N6_2 1_555 1_555
N6_2 C9_2 1_555 1_555
C9_2 N1_2 1_555 1_555
C10_2 C9_2 1_555 1_555
C11_2 C10_2 1_555 1_555
H4_2 C11_2 1_555 1_555
C12_2 C11_2 1_555 1_555
H5_2 C12_2 1_555 1_555
C13_2 C12_2 1_555 1_555
C14_2 O5_2 1_555 1_555
H6_2 C14_2 1_555 1_555
H7_2 C14_2 1_555 1_555
C15_2 C10_2 1_555 1_555
H8_2 C15_2 1_555 1_555
C18_2 C13_2 1_555 1_555
H9_2 C18_2 1_555 1_555
C27_2 H18_2 1_555 1_555
C28_2 C27_2 1_555 1_555
C29_2 C28_2 1_555 1_555
Mn9 N1_2 1_555 1_555
C13_2 C14_2 1_555 1_555
C15_2 C18_2 1_555 1_555
Mn3_2 O8_2 1_555 1_555
O6_2 C31_2 1_555 1_555
O8_2 C31_2 1_555 1_555
N9_2 Mn3_2 1_555 1_555
N10_2 Mn3_2 1_555 1_555
C31_2 C33_2 1_555 1_555
C42_2 N10_2 1_555 1_555
C43_2 N9_2 1_555 1_555
C45_2 N9_2 1_555 1_555
H27_2 C45_2 1_555 1_555
C46_2 N10_2 1_555 1_555
H28_2 C46_2 1_555 1_555
C47_2 C46_2 1_555 1_555
H29_2 C47_2 1_555 1_555
C48_2 C45_2 1_555 1_555
C49_2 C42_2 1_555 1_555
H31_2 C49_2 1_555 1_555
C50_2 C47_2 1_555 1_555
H32_2 C50_2 1_555 1_555
C51_2 C43_2 1_555 1_555
H33_2 C51_2 1_555 1_555
C52_2 C48_2 1_555 1_555
H34_2 C52_2 1_555 1_555
Mn7_2 O6_2 1_555 1_555
O13_2 Mn3_2 1_555 1_555
O15_2 Mn3_2 1_555 1_555
N13_2 Mn3_2 1_555 1_555
C42_2 C43_2 1_555 1_555
C49_2 C50_2 1_555 1_555
C51_2 C52_2 1_555 1_555
Mn7_2 O13_2 1_555 1_555
Mn5_2 O2_2 1_555 1_555
O2_2 C4_2 1_555 1_555
O4_2 C4_2 1_555 1_555
Mn11 O2_2 1_555 1_555
O12_2 Mn5_2 1_555 1_555
O4_2 Mn11 1_555 1_555
Mn2_2 O3_2 1_555 1_555
O1_2 C5_2 1_555 1_555
O3_2 C5_2 1_555 1_555
N3_2 Mn2_2 1_555 1_555
N4_2 Mn2_2 1_555 1_555
C1_2 H1_2 1_555 1_555
C2_2 C1_2 1_555 1_555
C3_2 C2_2 1_555 1_555
C5_2 C7_2 1_555 1_555
C7_2 C1_2 1_555 1_555
C16_2 N4_2 1_555 1_555
C17_2 N3_2 1_555 1_555
C19_2 N3_2 1_555 1_555
H10_2 C19_2 1_555 1_555
C20_2 N4_2 1_555 1_555
H11_2 C20_2 1_555 1_555
C21_2 C20_2 1_555 1_555
H12_2 C21_2 1_555 1_555
C22_2 C19_2 1_555 1_555
C23_2 C16_2 1_555 1_555
H14_2 C23_2 1_555 1_555
C24_2 C21_2 1_555 1_555
H15_2 C24_2 1_555 1_555
C25_2 C17_2 1_555 1_555
H16_2 C25_2 1_555 1_555
C26_2 C22_2 1_555 1_555
H17_2 C26_2 1_555 1_555
O10_2 C32_2 1_555 1_555
N7_2 N16 1_555 1_555
N16 N11_2 1_555 1_555
N11_2 N12_2 1_555 1_555
N12_2 C35_2 1_555 1_555
C35_2 N7_2 1_555 1_555
C36_2 C35_2 1_555 1_555
C37_2 C36_2 1_555 1_555
H21_2 C37_2 1_555 1_555
C38_2 C37_2 1_555 1_555
H22_2 C38_2 1_555 1_555
C39_2 C38_2 1_555 1_555
C40_2 O10_2 1_555 1_555
H23_2 C40_2 1_555 1_555
C41_2 C36_2 1_555 1_555
H25_2 C41_2 1_555 1_555
C44_2 C39_2 1_555 1_555
H26_2 C44_2 1_555 1_555
Mn7_3 O1_2 1_555 1_555
Mn8 N7_2 1_555 1_555
O14_2 Mn2_2 1_555 1_555
O16_2 Mn2_2 1_555 1_555
N14_2 Mn2_2 1_555 1_555
C7_2 C8_2 1_555 1_555
C16_2 C17_2 1_555 1_555
C23_2 C24_2 1_555 1_555
C25_2 C26_2 1_555 1_555
C39_2 C40_2 1_555 1_555
C41_2 C44_2 1_555 1_555
Mn7_3 O14_2 1_555 1_555
Mn9 O8_3 1_555 1_555
O12 C31_3 1_555 1_555
O8_3 C31_3 1_555 1_555
N9_3 Mn9 1_555 1_555
N10_3 Mn9 1_555 1_555
C31_3 C33_3 1_555 1_555
C42_3 N10_3 1_555 1_555
C43_3 N9_3 1_555 1_555
C45_3 N9_3 1_555 1_555
H27_3 C45_3 1_555 1_555
C46_3 N10_3 1_555 1_555
H28_3 C46_3 1_555 1_555
C47_3 C46_3 1_555 1_555
H29_3 C47_3 1_555 1_555
C48_3 C45_3 1_555 1_555
H30_2 C48_3 1_555 1_555
C49_3 C42_3 1_555 1_555
H31_3 C49_3 1_555 1_555
C50_3 C47_3 1_555 1_555
H32_3 C50_3 1_555 1_555
C51_3 C43_3 1_555 1_555
H33_3 C51_3 1_555 1_555
C52_3 C48_3 1_555 1_555
H34_3 C52_3 1_555 1_555
C42_3 C43_3 1_555 1_555
C49_3 C50_3 1_555 1_555
C51_3 C52_3 1_555 1_555
Mn8 O3_3 1_555 1_555
O11 C5_3 1_555 1_555
O13 C4_3 1_555 1_555
O3_3 C5_3 1_555 1_555
O15 C4_3 1_555 1_555
O5_3 C6_3 1_555 1_555
N13_2 N2_2 1_555 1_555
N2_2 N5_3 1_555 1_555
N3_3 Mn8 1_555 1_555
N4_3 Mn8 1_555 1_555
N5_3 N6_3 1_555 1_555
N6_3 C9_3 1_555 1_555
C1_3 H1_3 1_555 1_555
C2_3 C1_3 1_555 1_555
C3_3 C2_3 1_555 1_555
H2_3 C3_3 1_555 1_555
C4_3 C2_3 1_555 1_555
C5_3 C7_3 1_555 1_555
C6_3 C3_3 1_555 1_555
C7_3 C1_3 1_555 1_555
C8_3 C6_3 1_555 1_555
H3_3 C8_3 1_555 1_555
C9_3 N13_2 1_555 1_555
C10_3 C9_3 1_555 1_555
C11_3 C10_3 1_555 1_555
H4_3 C11_3 1_555 1_555
C12_3 C11_3 1_555 1_555
H5_3 C12_3 1_555 1_555
C13_3 C12_3 1_555 1_555
C14_3 O5_3 1_555 1_555
H6_3 C14_3 1_555 1_555
H7_3 C14_3 1_555 1_555
C15_3 C10_3 1_555 1_555
H8_3 C15_3 1_555 1_555
C16_3 N4_3 1_555 1_555
C17_3 N3_3 1_555 1_555
C18_3 C13_3 1_555 1_555
H9_3 C18_3 1_555 1_555
C19_3 N3_3 1_555 1_555
H10_3 C19_3 1_555 1_555
C20_3 N4_3 1_555 1_555
H11_3 C20_3 1_555 1_555
C21_3 C20_3 1_555 1_555
H12_3 C21_3 1_555 1_555
C22_3 C19_3 1_555 1_555
H13_3 C22_3 1_555 1_555
C23_3 C16_3 1_555 1_555
H14_3 C23_3 1_555 1_555
C24_3 C21_3 1_555 1_555
H15_3 C24_3 1_555 1_555
C25_3 C17_3 1_555 1_555
H16_3 C25_3 1_555 1_555
C26_3 C22_3 1_555 1_555
H17_3 C26_3 1_555 1_555
O16 C30_3 1_555 1_555
O10_3 C32_3 1_555 1_555
N14_2 N8_2 1_555 1_555
N8_2 N11_3 1_555 1_555
N11_3 N12_3 1_555 1_555
N12_3 C35_3 1_555 1_555
C27_3 H18_3 1_555 1_555
C28_3 C27_3 1_555 1_555
C29_3 C28_3 1_555 1_555
H19_3 C29_3 1_555 1_555
C30_3 O14 1_555 1_555
C32_3 C29_3 1_555 1_555
C34_3 C32_3 1_555 1_555
C35_3 N14_2 1_555 1_555
C36_3 C35_3 1_555 1_555
C37_3 C36_3 1_555 1_555
H21_3 C37_3 1_555 1_555
C38_3 C37_3 1_555 1_555
H22_3 C38_3 1_555 1_555
C39_3 C38_3 1_555 1_555
C40_3 O10_3 1_555 1_555
H23_3 C40_3 1_555 1_555
C41_3 C36_3 1_555 1_555
H25_3 C41_3 1_555 1_555
C44_3 C39_3 1_555 1_555
H26_3 C44_3 1_555 1_555
Mn7_3 N8_2 1_555 1_555
Mn7_2 N2_2 1_555 1_555
N15_2 Mn7 1_555 1_555
N16_2 Mn7 1_555 1_555
C7_3 C8_3 1_555 1_555
C13_3 C14_3 1_555 1_555
C15_3 C18_3 1_555 1_555
C16_3 C17_3 1_555 1_555
C23_3 C24_3 1_555 1_555
C25_3 C26_3 1_555 1_555
C28_3 C30_3 1_555 1_555
C39_3 C40_3 1_555 1_555
C41_3 C44_3 1_555 1_555
Mn10 O3_4 1_555 1_555
O11_2 C5_4 1_555 1_555
O3_4 C5_4 1_555 1_555
N3_4 Mn10 1_555 1_555
N4_4 Mn10 1_555 1_555
C1_4 H1_4 1_555 1_555
C2_4 C1_4 1_555 1_555
C3_4 C2_4 1_555 1_555
C5_4 C7_4 1_555 1_555
C7_4 C1_4 1_555 1_555
C16_4 N4_4 1_555 1_555
C17_4 N3_4 1_555 1_555
C19_4 N3_4 1_555 1_555
H10_4 C19_4 1_555 1_555
C20_4 N4_4 1_555 1_555
H11_4 C20_4 1_555 1_555
C21_4 C20_4 1_555 1_555
H12_4 C21_4 1_555 1_555
C22_4 C19_4 1_555 1_555
C23_4 C16_4 1_555 1_555
H14_4 C23_4 1_555 1_555
C24_4 C21_4 1_555 1_555
H15_4 C24_4 1_555 1_555
C25_4 C17_4 1_555 1_555
H16_4 C25_4 1_555 1_555
C26_4 C22_4 1_555 1_555
H17_4 C26_4 1_555 1_555
O10_4 C32_4 1_555 1_555
N14 N16_2 1_555 1_555
N16_2 N11_4 1_555 1_555
N11_4 N12_4 1_555 1_555
N12_4 C35_4 1_555 1_555
C35_4 N14 1_555 1_555
C36_4 C35_4 1_555 1_555
C37_4 C36_4 1_555 1_555
H21_4 C37_4 1_555 1_555
C38_4 C37_4 1_555 1_555
H22_4 C38_4 1_555 1_555
C39_4 C38_4 1_555 1_555
C40_4 O10_4 1_555 1_555
H23_4 C40_4 1_555 1_555
C41_4 C36_4 1_555 1_555
H25_4 C41_4 1_555 1_555
C44_4 C39_4 1_555 1_555
H26_4 C44_4 1_555 1_555
C7_4 C8_4 1_555 1_555
C16_4 C17_4 1_555 1_555
C23_4 C24_4 1_555 1_555
C25_4 C26_4 1_555 1_555
C39_4 C40_4 1_555 1_555
C41_4 C44_4 1_555 1_555
O13_2 C4_4 1_555 1_555
O15_2 C4_4 1_555 1_555
Mn11 O8_4 1_555 1_555
O12_2 C31_4 1_555 1_555
O8_4 C31_4 1_555 1_555
N9_4 Mn11 1_555 1_555
N10_4 Mn11 1_555 1_555
C31_4 C33_4 1_555 1_555
C42_4 N10_4 1_555 1_555
C43_4 N9_4 1_555 1_555
C45_4 N9_4 1_555 1_555
H27_4 C45_4 1_555 1_555
C46_4 N10_4 1_555 1_555
H28_4 C46_4 1_555 1_555
C47_4 C46_4 1_555 1_555
H29_4 C47_4 1_555 1_555
C48_4 C45_4 1_555 1_555
C49_4 C42_4 1_555 1_555
H31_4 C49_4 1_555 1_555
C50_4 C47_4 1_555 1_555
H32_4 C50_4 1_555 1_555
C51_4 C43_4 1_555 1_555
H33_4 C51_4 1_555 1_555
C52_4 C48_4 1_555 1_555
H34_4 C52_4 1_555 1_555
C42_4 C43_4 1_555 1_555
C49_4 C50_4 1_555 1_555
C51_4 C52_4 1_555 1_555
O5_4 C6_4 1_555 1_555
N13 N15_2 1_555 1_555
N15_2 N5_4 1_555 1_555
N5_4 N6_4 1_555 1_555
N6_4 C9_4 1_555 1_555
C9_4 N13 1_555 1_555
C10_4 C9_4 1_555 1_555
C11_4 C10_4 1_555 1_555
H4_4 C11_4 1_555 1_555
C12_4 C11_4 1_555 1_555
H5_4 C12_4 1_555 1_555
C13_4 C12_4 1_555 1_555
C14_4 O5_4 1_555 1_555
H6_4 C14_4 1_555 1_555
H7_4 C14_4 1_555 1_555
C15_4 C10_4 1_555 1_555
H8_4 C15_4 1_555 1_555
C18_4 C13_4 1_555 1_555
H9_4 C18_4 1_555 1_555
C27_4 H18_4 1_555 1_555
C28_4 C27_4 1_555 1_555
C29_4 C28_4 1_555 1_555
C13_4 C14_4 1_555 1_555
C15_4 C18_4 1_555 1_555
O16_2 C30_4 1_555 1_555
C30_4 O14_2 1_555 1_555

#END
