
###############################################################################
#
# This file contains modified crystal structure data generated from the
# MOF subset of the Cambridge Structural Database (CSD) v543 
# hosted by the Cambridge Crystallographic Data Centre (CCDC).
#
# This work is licensed under the Creative Commons
# Attribution-NonCommercial-ShareAlike 4.0 International License.
# To view a copy of this license, visit
# http://creativecommons.org/licenses/by-nc-sa/4.0/
# or send a letter to
# Creative Commons, PO Box 1866, Mountain View, CA 94042, USA.
#
# CIF created using the CSD Python API on 29 September 2022
# The structure has been converted into the P1 space group
# The structure has a 3D framework
# The original CSD entry AXAQAT02 is in the monoclinic crystal system
# The framework has been calculated to contain at least 10.0% void space
# The void calculation uses a probe of radius 1.32A, grid spacing 0.4
#
###############################################################################

data_AXAQAT02
_chemical_formula_moiety         '(C16 H8 Ag4 Fe3 N14)n'
_symmetry_cell_setting           triclinic
_symmetry_space_group_name_H-M   'P 1'
_symmetry_Int_Tables_number      1
_space_group_name_Hall           'P 1'
loop_
_symmetry_equiv_pos_site_id
_symmetry_equiv_pos_as_xyz
1 x,y,z
_cell_length_a                   6.734(4)
_cell_length_b                   12.536(6)
_cell_length_c                   9.120(5)
_cell_angle_alpha                90
_cell_angle_beta                 118.622(10)
_cell_angle_gamma                90
_cell_volume                     675.806
loop_
_atom_site_label
_atom_site_type_symbol
_atom_site_fract_x
_atom_site_fract_y
_atom_site_fract_z
Fe4 Fe 0.8807(4) 0.5000 0.0820(3)
N8 N 0.2732(16) 0.1109(7) 0.9098(13)
N7 N 0.2732(16) 0.8891(7) 0.9098(13)
Ag1 Ag 0.1463(3) 0.73302(6) 0.6015(2)
C1 C 0.050(2) 0.6601(9) 0.3763(15)
C2 C 0.225(2) 0.8265(9) 0.8091(15)
Ag2 Ag 0.1463(3) 0.26698(6) 0.6015(2)
C7 C 0.050(2) 0.3399(9) 0.3763(15)
C8 C 0.225(2) 0.1735(9) 0.8091(15)
N9 N 0.178(2) 0.5000 0.0859(17)
N1 N 0.9883(16) 0.6070(8) 0.2586(13)
N3 N 0.585(2) 0.5000 0.0787(17)
C3 C 0.4814(17) 0.5914(8) 0.0771(13)
H1 H 0.5491 0.6575 0.0751
C4 C 0.2739(17) 0.5908(8) 0.0784(14)
H2 H 0.2009 0.6565 0.0738
C5 C 0.4814(17) 0.4086(8) 0.0771(13)
H3 H 0.5491 0.3425 0.0751
C6 C 0.2739(17) 0.4092(8) 0.0784(14)
H4 H 0.2009 0.3435 0.0738
N5 N 0.9883(16) 0.3930(8) 0.2586(13)
Fe1 Fe 0.3807(4) -0.0000 0.0820(3)
Ag1_2 Ag 0.6463(3) 0.23302(6) 0.6015(2)
C1_2 C 0.550(2) 0.1601(9) 0.3763(15)
N1_2 N 0.4883(16) 0.1070(8) 0.2586(13)
C2_2 C 0.725(2) 0.3265(9) 0.8091(15)
N2 N 0.7732(16) 0.3891(7) 0.9098(13)
N3_2 N 0.085(2) 0.0000 0.0787(17)
H1_2 H 0.0491 0.1575 0.0751
N9_2 N 0.678(2) 0.0000 0.0859(17)
Fe1_2 Fe 0.3807(4) 1.0000 0.0820(3)
N3_3 N 0.085(2) 1.0000 0.0787(17)
H3_2 H 0.0491 0.8425 0.0751
Ag2_2 Ag 0.6463(3) 0.76698(6) 0.6015(2)
C7_2 C 0.550(2) 0.8399(9) 0.3763(15)
N5_2 N 0.4883(16) 0.8930(8) 0.2586(13)
C8_2 C 0.725(2) 0.6735(9) 0.8091(15)
N6 N 0.7732(16) 0.6109(7) 0.9098(13)
N9_3 N 0.678(2) 1.0000 0.0859(17)
C3_2 C 0.9814(17) 0.0914(8) 0.0771(13)
C4_2 C 0.7739(17) 0.0908(8) 0.0784(14)
H2_2 H 0.7009 0.1565 0.0738
C5_2 C 0.9814(17) 0.9086(8) 0.0771(13)
C6_2 C 0.7739(17) 0.9092(8) 0.0784(14)
H4_2 H 0.7009 0.8435 0.0738
loop_
_geom_bond_atom_site_label_1
_geom_bond_atom_site_label_2
_geom_bond_site_symmetry_1
_geom_bond_site_symmetry_2
Ag1 C1 1_555 1_555
C2 Ag1 1_555 1_555
N7 C2 1_555 1_555
Ag2 C7 1_555 1_555
C8 Ag2 1_555 1_555
N8 C8 1_555 1_555
Fe4 N1 1_555 1_555
N3 Fe4 1_555 1_555
C3 N3 1_555 1_555
H1 C3 1_555 1_555
N9 C4 1_555 1_555
C4 C3 1_555 1_555
H2 C4 1_555 1_555
C5 N3 1_555 1_555
H3 C5 1_555 1_555
C6 N9 1_555 1_555
H4 C6 1_555 1_555
N5 Fe4 1_555 1_555
C5 C6 1_555 1_555
Fe1 N1_2 1_555 1_555
Ag1_2 C1_2 1_555 1_555
C1_2 N1_2 1_555 1_555
C2_2 Ag1_2 1_555 1_555
N2 C2_2 1_555 1_555
N3_2 Fe1 1_555 1_555
N9_2 Fe1 1_555 1_555
N3_3 Fe1_2 1_555 1_555
Ag2_2 C7_2 1_555 1_555
C7_2 N5_2 1_555 1_555
N5_2 Fe1_2 1_555 1_555
C8_2 Ag2_2 1_555 1_555
N6 C8_2 1_555 1_555
N9_3 Fe1_2 1_555 1_555
N9_2 C4_2 1_555 1_555
C4_2 C3_2 1_555 1_555
H2_2 C4_2 1_555 1_555
C6_2 N9_3 1_555 1_555
H4_2 C6_2 1_555 1_555
C5_2 C6_2 1_555 1_555

#END
