
###############################################################################
#
# This file contains modified crystal structure data generated from the
# MOF subset of the Cambridge Structural Database (CSD) v543 
# hosted by the Cambridge Crystallographic Data Centre (CCDC).
#
# This work is licensed under the Creative Commons
# Attribution-NonCommercial-ShareAlike 4.0 International License.
# To view a copy of this license, visit
# http://creativecommons.org/licenses/by-nc-sa/4.0/
# or send a letter to
# Creative Commons, PO Box 1866, Mountain View, CA 94042, USA.
#
# CIF created using the CSD Python API on 29 September 2022
# The structure has been converted into the P1 space group
# The structure has a 3D framework
# The original CSD entry AXEPOL is in the orthorhombic crystal system
# The framework has been calculated to contain at least 10.0% void space
# The void calculation uses a probe of radius 1.32A, grid spacing 0.4
#
###############################################################################

data_AXEPOL
_chemical_formula_moiety         '(C168 H224 N48 O44 Sr4)n'
_symmetry_cell_setting           triclinic
_symmetry_space_group_name_H-M   'P 1'
_symmetry_Int_Tables_number      1
_space_group_name_Hall           'P 1'
loop_
_symmetry_equiv_pos_site_id
_symmetry_equiv_pos_as_xyz
1 x,y,z
_cell_length_a                   27.6699(18)
_cell_length_b                   6.9151(4)
_cell_length_c                   27.9802(17)
_cell_angle_alpha                90
_cell_angle_beta                 90
_cell_angle_gamma                90
_cell_volume                     5353.73
loop_
_atom_site_label
_atom_site_type_symbol
_atom_site_fract_x
_atom_site_fract_y
_atom_site_fract_z
O4 O 0.11718(10) 0.0931(5) 0.14753(11)
O6 O 0.08618(11) 0.2579(6) 0.20857(12)
H1 H 0.114785 0.274243 0.215099
C3 C 0.08261(13) 0.1501(6) 0.17019(14)
C12 C 0.03112(14) 0.1003(6) 0.15775(16)
H10 H 0.011466 0.217433 0.161111
C13 C 0.02654(15) 0.0285(7) 0.10657(15)
H11 H 0.035615 0.131859 0.084912
Sr4 Sr 0.21373(2) 0.13886(4) 0.14179(2)
O4_2 O 0.38282(10) 0.9069(5) 0.64753(11)
O6_2 O 0.41382(11) 0.7421(6) 0.70857(12)
H1_2 H 0.385215 0.725757 0.715099
C3_2 C 0.41739(13) 0.8499(6) 0.67019(14)
C12_2 C 0.46888(14) 0.8997(6) 0.65775(16)
H10_2 H 0.488534 0.782567 0.661111
C13_2 C 0.47346(15) 0.9715(7) 0.60657(15)
H11_2 H 0.464385 0.868141 0.584912
H23 H 0.545652 0.928037 0.594130
Sr4_2 Sr 0.28627(2) 0.86114(4) 0.64179(2)
O5 O 0.19528(11) 0.0280(4) 0.61028(11)
N3 N 0.08697(13) 0.0570(5) 0.34879(12)
N4 N 0.06307(12) 0.1100(5) 0.43031(11)
N5 N 0.04112(14) 0.3208(6) 0.37057(13)
C10 C 0.06469(14) 0.1586(6) 0.38361(15)
C15 C 0.10813(17) 0.0229(7) 0.55919(16)
H15 H 0.097331 0.092577 0.587326
H16 H 0.131578 0.103333 0.542785
H18 H 0.052675 0.112014 0.514891
C19 C 0.02401(15) 0.4616(7) 0.40544(16)
H23_2 H 0.045652 0.571963 0.405870
H24 H 0.024177 0.403837 0.437031
C21 C 0.03982(18) 0.3895(8) 0.32118(17)
H27 H 0.051008 0.288065 0.299927
H28 H 0.061157 0.499828 0.317644
Sr3 Sr 0.21373(2) 0.36114(4) 0.64179(2)
Sr1 Sr 0.28627(2) 0.63886(4) 0.14179(2)
O1 O 0.24497(9) 0.4364(4) 0.20391(9)
O2 O 0.20064(10) 0.7135(4) 0.61833(10)
O3 O 0.17620(10) 0.2923(4) 0.21994(10)
N1 N 0.10990(13) 0.8312(5) 0.40943(11)
N2 N 0.13497(13) 0.7916(5) 0.33144(11)
C1 C 0.19479(14) 0.5809(5) 0.26386(13)
H2 H 0.223900 0.659122 0.268798
C2 C 0.20632(13) 0.4280(5) 0.22703(13)
N6 N 0.07960(14) 0.8697(6) 0.48555(12)
C4 C 0.17905(13) 0.8621(5) 0.60380(13)
C5 C 0.13270(14) 0.8346(6) 0.57489(13)
H3 H 0.109757 0.764760 0.595234
C6 C 0.15410(16) 0.7161(6) 0.24762(14)
H4 H 0.162787 0.774085 0.217249
H5 H 0.124796 0.641493 0.242919
C7 C 0.10962(15) 0.8985(6) 0.36428(13)
C8 C 0.18049(17) 0.4935(6) 0.31173(14)
H6 H 0.206248 0.410273 0.323116
H7 H 0.151691 0.415229 0.307730
C9 C 0.08421(14) 0.9402(6) 0.44036(13)
C11 C 0.14461(19) 0.8746(6) 0.28390(14)
H8 H 0.172466 0.959475 0.285657
H9 H 0.117050 0.950934 0.273758
C16 C 0.06497(17) 0.9889(9) 0.52624(15)
H17 H 0.039359 0.924541 0.543761
C17 C 0.14283(16) 0.7073(6) 0.53133(15)
H19 H 0.168957 0.763977 0.512946
H20 H 0.153346 0.580765 0.542109
C18 C 0.1708(2) 0.6516(7) 0.34845(15)
H21 H 0.159291 0.592997 0.377815
H22 H 0.200770 0.718544 0.355510
C20 C 0.09927(18) 0.6838(7) 0.49953(15)
H25 H 0.108341 0.611830 0.471159
H26 H 0.074687 0.610394 0.516306
O7 O 0.25503(9) 0.9364(4) 0.20391(9)
O8 O 0.29936(10) 0.2865(4) 0.11833(10)
O9 O 0.20064(10) 0.7865(4) 0.11833(10)
O10 O 0.32380(10) 0.7923(4) 0.21994(10)
O11 O 0.38282(10) 0.5931(5) 0.14753(11)
O12 O 0.30472(11) 0.9720(4) 0.11028(11)
O13 O 0.19528(11) 0.4720(4) 0.11028(11)
C4_2 C 0.32095(13) 0.1379(5) 0.10380(13)
C5_2 C 0.36730(14) 0.1654(6) 0.07489(13)
H3_2 H 0.390243 0.235240 0.095234
C16_2 C 0.43503(17) 0.0111(9) 0.02624(15)
H17_2 H 0.460641 0.075459 0.043761
C17_2 C 0.35717(16) 0.2927(6) 0.03133(15)
H19_2 H 0.331043 0.236023 0.012946
H20_2 H 0.346654 0.419235 0.042109
H26_2 H 0.425313 0.389606 0.016306
O1_2 O 0.25503(9) 0.5636(4) 0.70391(9)
O3_2 O 0.32380(10) 0.7077(4) 0.71994(10)
N1_2 N 0.39010(13) 0.1688(5) 0.90943(11)
N2_2 N 0.36503(13) 0.2084(5) 0.83144(11)
C1_2 C 0.30521(14) 0.4191(5) 0.76386(13)
H2_2 H 0.276100 0.340878 0.768798
C2_2 C 0.29368(13) 0.5720(5) 0.72703(13)
N6_2 N 0.42040(14) 0.1303(6) 0.98555(12)
C6_2 C 0.34590(16) 0.2839(6) 0.74762(14)
H4_2 H 0.337213 0.225915 0.717249
H5_2 H 0.375204 0.358507 0.742919
C7_2 C 0.39038(15) 0.1015(6) 0.86428(13)
C8_2 C 0.31951(17) 0.5065(6) 0.81173(14)
H6_2 H 0.293752 0.589727 0.823116
H7_2 H 0.348309 0.584771 0.807730
C9_2 C 0.41579(14) 0.0598(6) 0.94036(13)
C11_2 C 0.35539(19) 0.1254(6) 0.78390(14)
H8_2 H 0.327534 0.040525 0.785657
H9_2 H 0.382950 0.049066 0.773758
C18_2 C 0.3292(2) 0.3484(7) 0.84845(15)
H21_2 H 0.340709 0.407003 0.877815
H22_2 H 0.299230 0.281456 0.855510
C20_2 C 0.40073(18) 0.3162(7) 0.99953(15)
H25_2 H 0.391659 0.388170 0.971159
O7_2 O 0.24497(9) 0.0636(4) 0.70391(9)
O9_2 O 0.29936(10) 0.2135(4) 0.61833(10)
O10_2 O 0.17620(10) 0.2077(4) 0.71994(10)
O11_2 O 0.11718(10) 0.4069(5) 0.64753(11)
O13_2 O 0.30472(11) 0.5280(4) 0.61028(11)
C15_2 C 0.39187(17) 0.9771(7) 0.05919(16)
H15_2 H 0.402669 0.907423 0.087326
H16_2 H 0.368422 0.896667 0.042785
H18_2 H 0.447325 0.887986 0.014891
C2_3 C 0.20632(13) 0.0720(5) 0.72703(13)
C8_3 C 0.18049(17) 0.0065(6) 0.81173(14)
H6_3 H 0.206248 0.089727 0.823116
H7_3 H 0.151691 0.084771 0.807730
C4_3 C 0.17905(13) 0.6379(5) 0.10380(13)
C5_3 C 0.13270(14) 0.6654(6) 0.07489(13)
H3_3 H 0.109757 0.735240 0.095234
C15_3 C 0.10813(17) 0.4771(7) 0.05919(16)
H15_3 H 0.097331 0.407423 0.087326
H16_3 H 0.131578 0.396667 0.042785
C16_3 C 0.06497(17) 0.5111(9) 0.02624(15)
H17_3 H 0.039359 0.575459 0.043761
H18_3 H 0.052675 0.387986 0.014891
C17_3 C 0.14283(16) 0.7927(6) 0.03133(15)
H19_3 H 0.168957 0.736023 0.012946
H20_3 H 0.153346 0.919235 0.042109
H26_3 H 0.074687 0.889606 0.016306
N1_3 N 0.10990(13) 0.6688(5) 0.90943(11)
N2_3 N 0.13497(13) 0.7084(5) 0.83144(11)
N3_2 N 0.08697(13) 0.4430(5) 0.84879(12)
N4_2 N 0.06307(12) 0.3900(5) 0.93031(11)
C1_3 C 0.19479(14) 0.9191(5) 0.76386(13)
H2_3 H 0.223900 0.840878 0.768798
N5_2 N 0.04112(14) 0.1792(6) 0.87057(13)
N6_3 N 0.07960(14) 0.6303(6) 0.98555(12)
C6_3 C 0.15410(16) 0.7839(6) 0.74762(14)
H4_3 H 0.162787 0.725915 0.717249
H5_3 H 0.124796 0.858507 0.742919
C7_3 C 0.10962(15) 0.6015(6) 0.86428(13)
C9_3 C 0.08421(14) 0.5598(6) 0.94036(13)
C10_2 C 0.06469(14) 0.3414(6) 0.88361(15)
C11_3 C 0.14461(19) 0.6254(6) 0.78390(14)
H8_3 H 0.172466 0.540525 0.785657
H9_3 H 0.117050 0.549066 0.773758
C18_3 C 0.1708(2) 0.8484(7) 0.84845(15)
H21_3 H 0.159291 0.907003 0.877815
H22_3 H 0.200770 0.781456 0.855510
C19_2 C 0.02401(15) 0.0384(7) 0.90544(16)
H24_2 H 0.024177 0.096163 0.937031
C20_3 C 0.09927(18) 0.8162(7) 0.99953(15)
H25_3 H 0.108341 0.888170 0.971159
C21_2 C 0.03982(18) 0.1105(8) 0.82118(17)
H27_2 H 0.051008 0.211935 0.799927
H28_2 H 0.061157 0.000172 0.817644
N1_4 N 0.39010(13) 0.3312(5) 0.40943(11)
N2_4 N 0.36503(13) 0.2916(5) 0.33144(11)
N3_3 N 0.41303(13) 0.5570(5) 0.34879(12)
N4_3 N 0.43693(12) 0.6100(5) 0.43031(11)
C1_4 C 0.30521(14) 0.0809(5) 0.26386(13)
H2_4 H 0.276100 0.159122 0.268798
N5_3 N 0.45888(14) 0.8208(6) 0.37057(13)
N6_4 N 0.42040(14) 0.3697(6) 0.48555(12)
C4_4 C 0.32095(13) 0.3621(5) 0.60380(13)
C5_4 C 0.36730(14) 0.3346(6) 0.57489(13)
H3_4 H 0.390243 0.264760 0.595234
C6_4 C 0.34590(16) 0.2161(6) 0.24762(14)
H4_4 H 0.337213 0.274085 0.217249
H5_4 H 0.375204 0.141493 0.242919
C7_4 C 0.39038(15) 0.3985(6) 0.36428(13)
C9_4 C 0.41579(14) 0.4402(6) 0.44036(13)
C10_3 C 0.43531(14) 0.6586(6) 0.38361(15)
C11_4 C 0.35539(19) 0.3746(6) 0.28390(14)
H8_4 H 0.327534 0.459475 0.285657
H9_4 H 0.382950 0.450934 0.273758
H12 H 0.548866 0.922205 0.398285
C14 C 0.51140(17) 0.9470(7) 0.30786(16)
H13 H 0.532071 0.833768 0.308744
H14 H 0.511741 0.997624 0.275527
C15_4 C 0.39187(17) 0.5229(7) 0.55919(16)
H15_4 H 0.402669 0.592577 0.587326
H16_4 H 0.368422 0.603333 0.542785
C16_4 C 0.43503(17) 0.4889(9) 0.52624(15)
H17_4 H 0.460641 0.424541 0.543761
H18_4 H 0.447325 0.612014 0.514891
C17_4 C 0.35717(16) 0.2073(6) 0.53133(15)
H19_4 H 0.331043 0.263977 0.512946
H20_4 H 0.346654 0.080765 0.542109
C18_4 C 0.3292(2) 0.1516(7) 0.34845(15)
H21_4 H 0.340709 0.092997 0.377815
H22_4 H 0.299230 0.218544 0.355510
C19_3 C 0.47599(15) 0.9616(7) 0.40544(16)
H24_3 H 0.475823 0.903837 0.437031
C20_4 C 0.40073(18) 0.1838(7) 0.49953(15)
H25_4 H 0.391659 0.111830 0.471159
H26_4 H 0.425313 0.110394 0.516306
C21_3 C 0.46018(18) 0.8895(8) 0.32118(17)
H27_3 H 0.448992 0.788065 0.299927
H28_3 H 0.438843 0.999828 0.317644
C2_4 C 0.29368(13) 0.9280(5) 0.22703(13)
C8_4 C 0.31951(17) 0.9935(6) 0.31173(14)
H6_4 H 0.293752 0.910273 0.323116
H7_4 H 0.348309 0.915229 0.307730
O6_3 O 0.08618(11) 0.2421(6) 0.70857(12)
H1_3 H 0.114785 0.225757 0.715099
C3_3 C 0.08261(13) 0.3499(6) 0.67019(14)
C12_3 C 0.03112(14) 0.3997(6) 0.65775(16)
H10_3 H 0.011466 0.282567 0.661111
C13_3 C 0.02654(15) 0.4715(7) 0.60657(15)
H11_3 H 0.035615 0.368141 0.584912
H12_2 H 0.048866 0.577795 0.601715
C14_2 C 0.01140(17) 0.5530(7) 0.69214(16)
H13_2 H 0.032071 0.666232 0.691256
H14_2 H 0.011741 0.502376 0.724473
O6_4 O 0.41382(11) 0.7579(6) 0.20857(12)
H1_4 H 0.385215 0.774243 0.215099
N3_4 N 0.58697(13) 0.0570(5) 0.15121(12)
N4_4 N 0.56307(12) 0.1100(5) 0.06969(11)
N5_4 N 0.54112(14) 0.3208(6) 0.12943(13)
C3_4 C 0.41739(13) 0.6501(6) 0.17019(14)
C10_4 C 0.56469(14) 0.1586(6) 0.11639(15)
C12_4 C 0.46888(14) 0.6003(6) 0.15775(16)
H10_4 H 0.488534 0.717433 0.161111
C13_4 C 0.47346(15) 0.5285(7) 0.10657(15)
H11_4 H 0.464385 0.631859 0.084912
H12_3 H 0.451134 0.422205 0.101715
C14_3 C 0.48860(17) 0.4470(7) 0.19214(16)
H13_3 H 0.467929 0.333768 0.191256
H14_3 H 0.488259 0.497624 0.224473
C19_4 C 0.52401(15) 0.4616(7) 0.09456(16)
H23_3 H 0.545652 0.571963 0.094130
H24_4 H 0.524177 0.403837 0.062969
C21_4 C 0.53982(18) 0.3895(8) 0.17882(17)
H27_4 H 0.551008 0.288065 0.200073
H28_4 H 0.561157 0.499828 0.182356
H12_4 H 0.048866 0.922205 0.101715
C14_4 C 0.01140(17) 0.9470(7) 0.19214(16)
H13_4 H 0.032071 0.833768 0.191256
H14_4 H 0.011741 0.997624 0.224473
H23_4 H 0.954348 0.071963 0.094130
Sr1_2 Sr 0.71373(2) 0.13886(4) 0.35821(2)
N1_5 N 0.89010(13) 0.3312(5) 0.09057(11)
N2_5 N 0.86503(13) 0.2916(5) 0.16856(11)
N3_5 N 0.91303(13) 0.5570(5) 0.15121(12)
N4_5 N 0.93693(12) 0.6100(5) 0.06969(11)
C1_5 C 0.80521(14) 0.0809(5) 0.23614(13)
H2_5 H 0.776100 0.159122 0.231202
N5_5 N 0.95888(14) 0.8208(6) 0.12943(13)
N6_5 N 0.92040(14) 0.3697(6) 0.01445(12)
C6_5 C 0.84590(16) 0.2161(6) 0.25238(14)
H4_5 H 0.837213 0.274085 0.282751
H5_5 H 0.875204 0.141493 0.257081
C7_5 C 0.89038(15) 0.3985(6) 0.13572(13)
C9_5 C 0.91579(14) 0.4402(6) 0.05964(13)
C10_5 C 0.93531(14) 0.6586(6) 0.11639(15)
C11_5 C 0.85539(19) 0.3746(6) 0.21610(14)
H8_5 H 0.827534 0.459475 0.214343
H9_5 H 0.882950 0.450934 0.226242
C18_5 C 0.8292(2) 0.1516(7) 0.15155(15)
H21_5 H 0.840709 0.092997 0.122185
H22_5 H 0.799230 0.218544 0.144490
C19_5 C 0.97599(15) 0.9616(7) 0.09456(16)
H24_5 H 0.975823 0.903837 0.062969
C20_5 C 0.90073(18) 0.1838(7) 0.00047(15)
H25_5 H 0.891659 0.111830 0.028841
C21_5 C 0.96018(18) 0.8895(8) 0.17882(17)
H27_5 H 0.948992 0.788065 0.200073
H28_5 H 0.938843 0.999828 0.182356
O7_3 O 0.74497(9) 0.4364(4) 0.29609(9)
O9_3 O 0.79936(10) 0.2865(4) 0.38167(10)
O10_3 O 0.67620(10) 0.2923(4) 0.28006(10)
O11_3 O 0.61718(10) 0.0931(5) 0.35247(11)
O12_2 O 0.69528(11) 0.4720(4) 0.38972(11)
O2_2 O 0.79936(10) 0.2135(4) 0.88167(10)
O5_2 O 0.80472(11) 0.5280(4) 0.88972(11)
C4_5 C 0.82095(13) 0.3621(5) 0.89620(13)
C5_5 C 0.86730(14) 0.3346(6) 0.92511(13)
H3_5 H 0.890243 0.264760 0.904766
C15_5 C 0.89187(17) 0.5229(7) 0.94081(16)
H15_5 H 0.902669 0.592577 0.912674
H16_5 H 0.868422 0.603333 0.957215
C16_5 C 0.93503(17) 0.4889(9) 0.97376(15)
H17_5 H 0.960641 0.424541 0.956239
H18_5 H 0.947325 0.612014 0.985109
C17_5 C 0.85717(16) 0.2073(6) 0.96867(15)
H19_5 H 0.831043 0.263977 0.987054
H20_5 H 0.846654 0.080765 0.957891
H26_5 H 0.925313 0.110394 0.983694
Sr3_2 Sr 0.78627(2) 0.86114(4) 0.85821(2)
Sr5 Sr 0.71373(2) 0.36114(4) 0.85821(2)
O1_3 O 0.75503(9) 0.9364(4) 0.29609(9)
O3_3 O 0.82380(10) 0.7923(4) 0.28006(10)
C2_5 C 0.79368(13) 0.9280(5) 0.27297(13)
C8_5 C 0.81951(17) 0.9935(6) 0.18827(14)
H6_5 H 0.793752 0.910273 0.176884
H7_5 H 0.848309 0.915229 0.192270
Sr6 Sr 0.78627(2) 0.63886(4) 0.35821(2)
O8_2 O 0.70064(10) 0.7865(4) 0.38167(10)
O13_3 O 0.80472(11) 0.9720(4) 0.38972(11)
O1_4 O 0.74497(9) 0.0636(4) 0.79609(9)
O3_4 O 0.67620(10) 0.2077(4) 0.78006(10)
C2_6 C 0.70632(13) 0.0720(5) 0.77297(13)
C8_6 C 0.68049(17) 0.0065(6) 0.68827(14)
H6_6 H 0.706248 0.089727 0.676884
H7_6 H 0.651691 0.084771 0.692270
O13_4 O 0.69528(11) 0.0280(4) 0.88972(11)
N1_6 N 0.60990(13) 0.6688(5) 0.59057(11)
N2_6 N 0.63497(13) 0.7084(5) 0.66856(11)
N3_6 N 0.58697(13) 0.4430(5) 0.65121(12)
N4_6 N 0.56307(12) 0.3900(5) 0.56969(11)
C1_6 C 0.69479(14) 0.9191(5) 0.73614(13)
H2_6 H 0.723900 0.840878 0.731202
N5_6 N 0.54112(14) 0.1792(6) 0.62943(13)
N6_6 N 0.57960(14) 0.6303(6) 0.51445(12)
C4_6 C 0.67905(13) 0.6379(5) 0.39620(13)
C5_6 C 0.63270(14) 0.6654(6) 0.42511(13)
H3_6 H 0.609757 0.735240 0.404766
C6_6 C 0.65410(16) 0.7839(6) 0.75238(14)
H4_6 H 0.662787 0.725915 0.782751
H5_6 H 0.624796 0.858507 0.757081
C7_6 C 0.60962(15) 0.6015(6) 0.63572(13)
C9_6 C 0.58421(14) 0.5598(6) 0.55964(13)
C10_6 C 0.56469(14) 0.3414(6) 0.61639(15)
C11_6 C 0.64461(19) 0.6254(6) 0.71610(14)
H8_6 H 0.672466 0.540525 0.714343
H9_6 H 0.617050 0.549066 0.726242
H12_5 H 0.451134 0.077795 0.601715
C14_5 C 0.48860(17) 0.0530(7) 0.69214(16)
H13_5 H 0.467929 0.166232 0.691256
H14_5 H 0.488259 0.002376 0.724473
C15_6 C 0.60813(17) 0.4771(7) 0.44081(16)
H15_6 H 0.597331 0.407423 0.412674
H16_6 H 0.631578 0.396667 0.457215
C16_6 C 0.56497(17) 0.5111(9) 0.47376(15)
H17_6 H 0.539359 0.575459 0.456239
H18_6 H 0.552675 0.387986 0.485109
C17_6 C 0.64283(16) 0.7927(6) 0.46867(15)
H19_6 H 0.668957 0.736023 0.487054
H20_6 H 0.653346 0.919235 0.457891
C18_6 C 0.6708(2) 0.8484(7) 0.65155(15)
H21_6 H 0.659291 0.907003 0.622185
H22_6 H 0.700770 0.781456 0.644490
C19_6 C 0.52401(15) 0.0384(7) 0.59456(16)
H24_6 H 0.524177 0.096163 0.562969
C20_6 C 0.59927(18) 0.8162(7) 0.50047(15)
H25_6 H 0.608341 0.888170 0.528841
H26_6 H 0.574687 0.889606 0.483694
C21_6 C 0.53982(18) 0.1105(8) 0.67882(17)
H27_6 H 0.551008 0.211935 0.700073
H28_6 H 0.561157 0.000172 0.682356
O7_4 O 0.75503(9) 0.5636(4) 0.79609(9)
O9_4 O 0.70064(10) 0.7135(4) 0.88167(10)
O10_4 O 0.82380(10) 0.7077(4) 0.78006(10)
O11_4 O 0.88282(10) 0.9069(5) 0.85247(11)
O4_3 O 0.88282(10) 0.5931(5) 0.35247(11)
O6_5 O 0.91382(11) 0.7579(6) 0.29143(12)
H1_5 H 0.885215 0.774243 0.284901
C3_5 C 0.91739(13) 0.6501(6) 0.32981(14)
C12_5 C 0.96888(14) 0.6003(6) 0.34225(16)
H10_5 H 0.988534 0.717433 0.338889
C13_5 C 0.97346(15) 0.5285(7) 0.39343(15)
H11_5 H 0.964385 0.631859 0.415088
H12_6 H 0.951134 0.422205 0.398285
C14_6 C 0.98860(17) 0.4470(7) 0.30786(16)
H13_6 H 0.967929 0.333768 0.308744
H14_6 H 0.988259 0.497624 0.275527
O4_4 O 0.61718(10) 0.4069(5) 0.85247(11)
O6_6 O 0.58618(11) 0.2421(6) 0.79143(12)
H1_6 H 0.614785 0.225757 0.784901
N3_7 N 0.41303(13) 0.9430(5) 0.84879(12)
N4_7 N 0.43693(12) 0.8900(5) 0.93031(11)
N5_7 N 0.45888(14) 0.6792(6) 0.87057(13)
C3_6 C 0.58261(13) 0.3499(6) 0.82981(14)
C10_7 C 0.43531(14) 0.8414(6) 0.88361(15)
C12_6 C 0.53112(14) 0.3997(6) 0.84225(16)
H10_6 H 0.511466 0.282567 0.838889
C13_6 C 0.52654(15) 0.4715(7) 0.89343(15)
H11_6 H 0.535615 0.368141 0.915088
H12_7 H 0.548866 0.577795 0.898285
C14_7 C 0.51140(17) 0.5530(7) 0.80786(16)
H13_7 H 0.532071 0.666232 0.808744
H14_7 H 0.511741 0.502376 0.775527
C19_7 C 0.47599(15) 0.5384(7) 0.90544(16)
H23_5 H 0.454348 0.428037 0.905870
H24_7 H 0.475823 0.596163 0.937031
C21_7 C 0.46018(18) 0.6105(8) 0.82118(17)
H27_7 H 0.448992 0.711935 0.799927
H28_7 H 0.438843 0.500172 0.817644
O6_7 O 0.91382(11) 0.7421(6) 0.79143(12)
H1_7 H 0.885215 0.725757 0.784901
C3_7 C 0.91739(13) 0.8499(6) 0.82981(14)
C12_7 C 0.96888(14) 0.8997(6) 0.84225(16)
H10_7 H 0.988534 0.782567 0.838889
C13_7 C 0.97346(15) 0.9715(7) 0.89343(15)
H11_7 H 0.964385 0.868141 0.915088
O6_8 O 0.58618(11) 0.2579(6) 0.29143(12)
H1_8 H 0.614785 0.274243 0.284901
C3_8 C 0.58261(13) 0.1501(6) 0.32981(14)
C12_8 C 0.53112(14) 0.1003(6) 0.34225(16)
H10_8 H 0.511466 0.217433 0.338889
C13_8 C 0.52654(15) 0.0285(7) 0.39343(15)
H11_8 H 0.535615 0.131859 0.415088
H23_6 H 0.454348 0.071963 0.405870
N1_7 N 0.89010(13) 0.1688(5) 0.59057(11)
N2_7 N 0.86503(13) 0.2084(5) 0.66856(11)
C1_7 C 0.80521(14) 0.4191(5) 0.73614(13)
H2_7 H 0.776100 0.340878 0.731202
C2_7 C 0.79368(13) 0.5720(5) 0.77297(13)
N6_7 N 0.92040(14) 0.1303(6) 0.51445(12)
C4_7 C 0.82095(13) 0.1379(5) 0.39620(13)
C5_7 C 0.86730(14) 0.1654(6) 0.42511(13)
H3_7 H 0.890243 0.235240 0.404766
C6_7 C 0.84590(16) 0.2839(6) 0.75238(14)
H4_7 H 0.837213 0.225915 0.782751
H5_7 H 0.875204 0.358507 0.757081
C7_7 C 0.89038(15) 0.1015(6) 0.63572(13)
C8_7 C 0.81951(17) 0.5065(6) 0.68827(14)
H6_7 H 0.793752 0.589727 0.676884
H7_7 H 0.848309 0.584771 0.692270
C9_7 C 0.91579(14) 0.0598(6) 0.55964(13)
C11_7 C 0.85539(19) 0.1254(6) 0.71610(14)
H8_7 H 0.827534 0.040525 0.714343
H9_7 H 0.882950 0.049066 0.726242
C16_7 C 0.93503(17) 0.0111(9) 0.47376(15)
H17_7 H 0.960641 0.075459 0.456239
C17_7 C 0.85717(16) 0.2927(6) 0.46867(15)
H19_7 H 0.831043 0.236023 0.487054
H20_7 H 0.846654 0.419235 0.457891
C18_7 C 0.8292(2) 0.3484(7) 0.65155(15)
H21_7 H 0.840709 0.407003 0.622185
H22_7 H 0.799230 0.281456 0.644490
C20_7 C 0.90073(18) 0.3162(7) 0.50047(15)
H25_7 H 0.891659 0.388170 0.528841
H26_7 H 0.925313 0.389606 0.483694
N3_8 N 0.91303(13) 0.9430(5) 0.65121(12)
N4_8 N 0.93693(12) 0.8900(5) 0.56969(11)
N5_8 N 0.95888(14) 0.6792(6) 0.62943(13)
C10_8 C 0.93531(14) 0.8414(6) 0.61639(15)
C15_7 C 0.89187(17) 0.9771(7) 0.44081(16)
H15_7 H 0.902669 0.907423 0.412674
H16_7 H 0.868422 0.896667 0.457215
H18_7 H 0.947325 0.887986 0.485109
C19_8 C 0.97599(15) 0.5384(7) 0.59456(16)
H23_7 H 0.954348 0.428037 0.594130
H24_8 H 0.975823 0.596163 0.562969
C21_8 C 0.96018(18) 0.6105(8) 0.67882(17)
H27_8 H 0.948992 0.711935 0.700073
H28_8 H 0.938843 0.500172 0.682356
C15_8 C 0.60813(17) 0.0229(7) 0.94081(16)
H15_8 H 0.597331 0.092577 0.912674
H16_8 H 0.631578 0.103333 0.957215
H18_8 H 0.552675 0.112014 0.985109
N1_8 N 0.60990(13) 0.8312(5) 0.09057(11)
N2_8 N 0.63497(13) 0.7916(5) 0.16856(11)
C1_8 C 0.69479(14) 0.5809(5) 0.23614(13)
H2_8 H 0.723900 0.659122 0.231202
C2_8 C 0.70632(13) 0.4280(5) 0.27297(13)
N6_8 N 0.57960(14) 0.8697(6) 0.01445(12)
C6_8 C 0.65410(16) 0.7161(6) 0.25238(14)
H4_8 H 0.662787 0.774085 0.282751
H5_8 H 0.624796 0.641493 0.257081
C7_8 C 0.60962(15) 0.8985(6) 0.13572(13)
C8_8 C 0.68049(17) 0.4935(6) 0.18827(14)
H6_8 H 0.706248 0.410273 0.176884
H7_8 H 0.651691 0.415229 0.192270
C9_8 C 0.58421(14) 0.9402(6) 0.05964(13)
C11_8 C 0.64461(19) 0.8746(6) 0.21610(14)
H8_8 H 0.672466 0.959475 0.214343
H9_8 H 0.617050 0.950934 0.226242
C18_8 C 0.6708(2) 0.6516(7) 0.15155(15)
H21_8 H 0.659291 0.592997 0.122185
H22_8 H 0.700770 0.718544 0.144490
C20_8 C 0.59927(18) 0.6838(7) 0.00047(15)
H25_8 H 0.608341 0.611830 0.028841
C4_8 C 0.67905(13) 0.8621(5) 0.89620(13)
C5_8 C 0.63270(14) 0.8346(6) 0.92511(13)
H3_8 H 0.609757 0.764760 0.904766
C16_8 C 0.56497(17) 0.9889(9) 0.97376(15)
H17_8 H 0.539359 0.924541 0.956239
C17_8 C 0.64283(16) 0.7073(6) 0.96867(15)
H19_8 H 0.668957 0.763977 0.987054
H20_8 H 0.653346 0.580765 0.957891
H26_8 H 0.574687 0.610394 0.983694
H23_8 H 0.045652 0.928037 0.905870
H12_8 H 0.951134 0.077795 0.898285
C14_8 C 0.98860(17) 0.0530(7) 0.80786(16)
H13_8 H 0.967929 0.166232 0.808744
H14_8 H 0.988259 0.002376 0.775527
loop_
_geom_bond_atom_site_label_1
_geom_bond_atom_site_label_2
_geom_bond_site_symmetry_1
_geom_bond_site_symmetry_2
O4 C3 1_555 1_555
O6 H1 1_555 1_555
C3 O6 1_555 1_555
C12 C3 1_555 1_555
H10 C12 1_555 1_555
C13 C12 1_555 1_555
H11 C13 1_555 1_555
Sr4 O4 1_555 1_555
O4_2 C3_2 1_555 1_555
O6_2 H1_2 1_555 1_555
C3_2 O6_2 1_555 1_555
C12_2 C3_2 1_555 1_555
H10_2 C12_2 1_555 1_555
C13_2 C12_2 1_555 1_555
H11_2 C13_2 1_555 1_555
Sr4_2 O4_2 1_555 1_555
N5 C10 1_555 1_555
C10 N3 1_555 1_555
H15 C15 1_555 1_555
H16 C15 1_555 1_555
C19 N5 1_555 1_555
H23_2 C19 1_555 1_555
H24 C19 1_555 1_555
C21 N5 1_555 1_555
H27 C21 1_555 1_555
H28 C21 1_555 1_555
Sr3 O5 1_555 1_555
N4 C10 1_555 1_555
Sr1 O1 1_555 1_555
O1 C2 1_555 1_555
O2 C4 1_555 1_555
O3 C2 1_555 1_555
N1 C7 1_555 1_555
N2 C7 1_555 1_555
C1 H2 1_555 1_555
C2 C1 1_555 1_555
N6 C9 1_555 1_555
C4 C5 1_555 1_555
C5 H3 1_555 1_555
C6 C1 1_555 1_555
H4 C6 1_555 1_555
H5 C6 1_555 1_555
C8 C1 1_555 1_555
H6 C8 1_555 1_555
H7 C8 1_555 1_555
C9 N1 1_555 1_555
C11 N2 1_555 1_555
H8 C11 1_555 1_555
H9 C11 1_555 1_555
C16 N6 1_555 1_555
H17 C16 1_555 1_555
C17 C5 1_555 1_555
H19 C17 1_555 1_555
H20 C17 1_555 1_555
C18 N2 1_555 1_555
H21 C18 1_555 1_555
H22 C18 1_555 1_555
C20 N6 1_555 1_555
H25 C20 1_555 1_555
H26 C20 1_555 1_555
Sr3 O2 1_555 1_555
Sr4_2 O2 1_555 1_555
Sr4 O1 1_555 1_555
O7 Sr1 1_555 1_555
O8 Sr1 1_555 1_555
O9 Sr1 1_555 1_555
O10 Sr1 1_555 1_555
O11 Sr1 1_555 1_555
O12 Sr1 1_555 1_555
O13 Sr1 1_555 1_555
O3 Sr4 1_555 1_555
C6 C11 1_555 1_555
C8 C18 1_555 1_555
C17 C20 1_555 1_555
Sr4 O8 1_555 1_555
Sr4 O13 1_555 1_555
O8 C4_2 1_555 1_555
C4_2 C5_2 1_555 1_555
C5_2 H3_2 1_555 1_555
H17_2 C16_2 1_555 1_555
C17_2 C5_2 1_555 1_555
H19_2 C17_2 1_555 1_555
H20_2 C17_2 1_555 1_555
Sr3 O1_2 1_555 1_555
O1_2 C2_2 1_555 1_555
O3_2 C2_2 1_555 1_555
N1_2 C7_2 1_555 1_555
N2_2 C7_2 1_555 1_555
C1_2 H2_2 1_555 1_555
C2_2 C1_2 1_555 1_555
N6_2 C9_2 1_555 1_555
C6_2 C1_2 1_555 1_555
H4_2 C6_2 1_555 1_555
H5_2 C6_2 1_555 1_555
C8_2 C1_2 1_555 1_555
H6_2 C8_2 1_555 1_555
H7_2 C8_2 1_555 1_555
C9_2 N1_2 1_555 1_555
C11_2 N2_2 1_555 1_555
H8_2 C11_2 1_555 1_555
H9_2 C11_2 1_555 1_555
C18_2 N2_2 1_555 1_555
H21_2 C18_2 1_555 1_555
H22_2 C18_2 1_555 1_555
C20_2 N6_2 1_555 1_555
H25_2 C20_2 1_555 1_555
Sr4_2 O1_2 1_555 1_555
O7_2 Sr3 1_555 1_555
O9_2 Sr3 1_555 1_555
O10_2 Sr3 1_555 1_555
O11_2 Sr3 1_555 1_555
O13_2 Sr3 1_555 1_555
O3_2 Sr4_2 1_555 1_555
C6_2 C11_2 1_555 1_555
C8_2 C18_2 1_555 1_555
Sr4_2 O13_2 1_555 1_555
H15_2 C15_2 1_555 1_555
H16_2 C15_2 1_555 1_555
O7_2 C2_3 1_555 1_555
O10_2 C2_3 1_555 1_555
H6_3 C8_3 1_555 1_555
H7_3 C8_3 1_555 1_555
O9 C4_3 1_555 1_555
O13 C4_3 1_555 1_555
C4_3 C5_3 1_555 1_555
C5_3 H3_3 1_555 1_555
C15_3 C5_3 1_555 1_555
H15_3 C15_3 1_555 1_555
H16_3 C15_3 1_555 1_555
H17_3 C16_3 1_555 1_555
H18_3 C16_3 1_555 1_555
C17_3 C5_3 1_555 1_555
H19_3 C17_3 1_555 1_555
H20_3 C17_3 1_555 1_555
C15_3 C16_3 1_555 1_555
N1_3 C7_3 1_555 1_555
N2_3 C7_3 1_555 1_555
N3_2 C7_3 1_555 1_555
N4_2 C9_3 1_555 1_555
C1_3 H2_3 1_555 1_555
N5_2 C10_2 1_555 1_555
N6_3 C9_3 1_555 1_555
C6_3 C1_3 1_555 1_555
H4_3 C6_3 1_555 1_555
H5_3 C6_3 1_555 1_555
C9_3 N1_3 1_555 1_555
C10_2 N3_2 1_555 1_555
C11_3 N2_3 1_555 1_555
H8_3 C11_3 1_555 1_555
H9_3 C11_3 1_555 1_555
C18_3 N2_3 1_555 1_555
H21_3 C18_3 1_555 1_555
H22_3 C18_3 1_555 1_555
C19_2 N5_2 1_555 1_555
H24_2 C19_2 1_555 1_555
C20_3 N6_3 1_555 1_555
H25_3 C20_3 1_555 1_555
C21_2 N5_2 1_555 1_555
H27_2 C21_2 1_555 1_555
H28_2 C21_2 1_555 1_555
N4_2 C10_2 1_555 1_555
C6_3 C11_3 1_555 1_555
O9_2 C4_4 1_555 1_555
O13_2 C4_4 1_555 1_555
N1_4 C7_4 1_555 1_555
N2_4 C7_4 1_555 1_555
N3_3 C7_4 1_555 1_555
N4_3 C9_4 1_555 1_555
C1_4 H2_4 1_555 1_555
N5_3 C10_3 1_555 1_555
N6_4 C9_4 1_555 1_555
C4_4 C5_4 1_555 1_555
C5_4 H3_4 1_555 1_555
C6_4 C1_4 1_555 1_555
H4_4 C6_4 1_555 1_555
H5_4 C6_4 1_555 1_555
C9_4 N1_4 1_555 1_555
C10_3 N3_3 1_555 1_555
C11_4 N2_4 1_555 1_555
H8_4 C11_4 1_555 1_555
H9_4 C11_4 1_555 1_555
H13 C14 1_555 1_555
H14 C14 1_555 1_555
C15_4 C5_4 1_555 1_555
H15_4 C15_4 1_555 1_555
H16_4 C15_4 1_555 1_555
C16_4 N6_4 1_555 1_555
H17_4 C16_4 1_555 1_555
H18_4 C16_4 1_555 1_555
C17_4 C5_4 1_555 1_555
H19_4 C17_4 1_555 1_555
H20_4 C17_4 1_555 1_555
C18_4 N2_4 1_555 1_555
H21_4 C18_4 1_555 1_555
H22_4 C18_4 1_555 1_555
C19_3 N5_3 1_555 1_555
H24_3 C19_3 1_555 1_555
C20_4 N6_4 1_555 1_555
H25_4 C20_4 1_555 1_555
H26_4 C20_4 1_555 1_555
C21_3 N5_3 1_555 1_555
H27_3 C21_3 1_555 1_555
H28_3 C21_3 1_555 1_555
N4_3 C10_3 1_555 1_555
C6_4 C11_4 1_555 1_555
C14 C21_3 1_555 1_555
C15_4 C16_4 1_555 1_555
C17_4 C20_4 1_555 1_555
O7 C2_4 1_555 1_555
O10 C2_4 1_555 1_555
H6_4 C8_4 1_555 1_555
H7_4 C8_4 1_555 1_555
O11_2 C3_3 1_555 1_555
O6_3 H1_3 1_555 1_555
C3_3 O6_3 1_555 1_555
C12_3 C3_3 1_555 1_555
H10_3 C12_3 1_555 1_555
C13_3 C12_3 1_555 1_555
H11_3 C13_3 1_555 1_555
H12_2 C13_3 1_555 1_555
C14_2 C12_3 1_555 1_555
H13_2 C14_2 1_555 1_555
H14_2 C14_2 1_555 1_555
O11 C3_4 1_555 1_555
O6_4 H1_4 1_555 1_555
N5_4 C10_4 1_555 1_555
C3_4 O6_4 1_555 1_555
C10_4 N3_4 1_555 1_555
C12_4 C3_4 1_555 1_555
H10_4 C12_4 1_555 1_555
C13_4 C12_4 1_555 1_555
H11_4 C13_4 1_555 1_555
H12_3 C13_4 1_555 1_555
C14_3 C12_4 1_555 1_555
H13_3 C14_3 1_555 1_555
H14_3 C14_3 1_555 1_555
C19_4 N5_4 1_555 1_555
H23_3 C19_4 1_555 1_555
H24_4 C19_4 1_555 1_555
C21_4 N5_4 1_555 1_555
H27_4 C21_4 1_555 1_555
H28_4 C21_4 1_555 1_555
N4_4 C10_4 1_555 1_555
C13_4 C19_4 1_555 1_555
C14_3 C21_4 1_555 1_555
H13_4 C14_4 1_555 1_555
H14_4 C14_4 1_555 1_555
N1_5 C7_5 1_555 1_555
N2_5 C7_5 1_555 1_555
N3_5 C7_5 1_555 1_555
N4_5 C9_5 1_555 1_555
C1_5 H2_5 1_555 1_555
N5_5 C10_5 1_555 1_555
N6_5 C9_5 1_555 1_555
C6_5 C1_5 1_555 1_555
H4_5 C6_5 1_555 1_555
H5_5 C6_5 1_555 1_555
C9_5 N1_5 1_555 1_555
C10_5 N3_5 1_555 1_555
C11_5 N2_5 1_555 1_555
H8_5 C11_5 1_555 1_555
H9_5 C11_5 1_555 1_555
C18_5 N2_5 1_555 1_555
H21_5 C18_5 1_555 1_555
H22_5 C18_5 1_555 1_555
C19_5 N5_5 1_555 1_555
H24_5 C19_5 1_555 1_555
C20_5 N6_5 1_555 1_555
H25_5 C20_5 1_555 1_555
C21_5 N5_5 1_555 1_555
H27_5 C21_5 1_555 1_555
H28_5 C21_5 1_555 1_555
O7_3 Sr1_2 1_555 1_555
O9_3 Sr1_2 1_555 1_555
O10_3 Sr1_2 1_555 1_555
O11_3 Sr1_2 1_555 1_555
O12_2 Sr1_2 1_555 1_555
N4_5 C10_5 1_555 1_555
C6_5 C11_5 1_555 1_555
O2_2 C4_5 1_555 1_555
O5_2 C4_5 1_555 1_555
C4_5 C5_5 1_555 1_555
C5_5 H3_5 1_555 1_555
C15_5 C5_5 1_555 1_555
H15_5 C15_5 1_555 1_555
H16_5 C15_5 1_555 1_555
H17_5 C16_5 1_555 1_555
H18_5 C16_5 1_555 1_555
C17_5 C5_5 1_555 1_555
H19_5 C17_5 1_555 1_555
H20_5 C17_5 1_555 1_555
Sr3_2 O5_2 1_555 1_555
Sr5 O2_2 1_555 1_555
O5_2 Sr5 1_555 1_555
C15_5 C16_5 1_555 1_555
O1_3 C2_5 1_555 1_555
O3_3 C2_5 1_555 1_555
H6_5 C8_5 1_555 1_555
H7_5 C8_5 1_555 1_555
Sr6 O1_3 1_555 1_555
O3_3 Sr6 1_555 1_555
Sr6 O8_2 1_555 1_555
Sr6 O13_3 1_555 1_555
O1_4 C2_6 1_555 1_555
O3_4 C2_6 1_555 1_555
H6_6 C8_6 1_555 1_555
H7_6 C8_6 1_555 1_555
Sr5 O1_4 1_555 1_555
O3_4 Sr5 1_555 1_555
Sr5 O13_4 1_555 1_555
O8_2 C4_6 1_555 1_555
O12_2 C4_6 1_555 1_555
N1_6 C7_6 1_555 1_555
N2_6 C7_6 1_555 1_555
N3_6 C7_6 1_555 1_555
N4_6 C9_6 1_555 1_555
C1_6 H2_6 1_555 1_555
N5_6 C10_6 1_555 1_555
N6_6 C9_6 1_555 1_555
C4_6 C5_6 1_555 1_555
C5_6 H3_6 1_555 1_555
C6_6 C1_6 1_555 1_555
H4_6 C6_6 1_555 1_555
H5_6 C6_6 1_555 1_555
C9_6 N1_6 1_555 1_555
C10_6 N3_6 1_555 1_555
C11_6 N2_6 1_555 1_555
H8_6 C11_6 1_555 1_555
H9_6 C11_6 1_555 1_555
H13_5 C14_5 1_555 1_555
H14_5 C14_5 1_555 1_555
C15_6 C5_6 1_555 1_555
H15_6 C15_6 1_555 1_555
H16_6 C15_6 1_555 1_555
C16_6 N6_6 1_555 1_555
H17_6 C16_6 1_555 1_555
H18_6 C16_6 1_555 1_555
C17_6 C5_6 1_555 1_555
H19_6 C17_6 1_555 1_555
H20_6 C17_6 1_555 1_555
C18_6 N2_6 1_555 1_555
H21_6 C18_6 1_555 1_555
H22_6 C18_6 1_555 1_555
C19_6 N5_6 1_555 1_555
H24_6 C19_6 1_555 1_555
C20_6 N6_6 1_555 1_555
H25_6 C20_6 1_555 1_555
H26_6 C20_6 1_555 1_555
C21_6 N5_6 1_555 1_555
H27_6 C21_6 1_555 1_555
H28_6 C21_6 1_555 1_555
O7_4 Sr3_2 1_555 1_555
O9_4 Sr3_2 1_555 1_555
O10_4 Sr3_2 1_555 1_555
O11_4 Sr3_2 1_555 1_555
O12_2 Sr6 1_555 1_555
N4_6 C10_6 1_555 1_555
C6_6 C11_6 1_555 1_555
C14_5 C21_6 1_555 1_555
C15_6 C16_6 1_555 1_555
C17_6 C20_6 1_555 1_555
O4_3 C3_5 1_555 1_555
O6_5 H1_5 1_555 1_555
C3_5 O6_5 1_555 1_555
C12_5 C3_5 1_555 1_555
H10_5 C12_5 1_555 1_555
C13_5 C12_5 1_555 1_555
H11_5 C13_5 1_555 1_555
H12_6 C13_5 1_555 1_555
C14_6 C12_5 1_555 1_555
H13_6 C14_6 1_555 1_555
H14_6 C14_6 1_555 1_555
Sr6 O4_3 1_555 1_555
O4_4 C3_6 1_555 1_555
O6_6 H1_6 1_555 1_555
N5_7 C10_7 1_555 1_555
C3_6 O6_6 1_555 1_555
C10_7 N3_7 1_555 1_555
C12_6 C3_6 1_555 1_555
H10_6 C12_6 1_555 1_555
C13_6 C12_6 1_555 1_555
H11_6 C13_6 1_555 1_555
H12_7 C13_6 1_555 1_555
C14_7 C12_6 1_555 1_555
H13_7 C14_7 1_555 1_555
H14_7 C14_7 1_555 1_555
C19_7 N5_7 1_555 1_555
H23_5 C19_7 1_555 1_555
H24_7 C19_7 1_555 1_555
C21_7 N5_7 1_555 1_555
H27_7 C21_7 1_555 1_555
H28_7 C21_7 1_555 1_555
Sr5 O4_4 1_555 1_555
N4_7 C10_7 1_555 1_555
C13_6 C19_7 1_555 1_555
C14_7 C21_7 1_555 1_555
O11_4 C3_7 1_555 1_555
O6_7 H1_7 1_555 1_555
C3_7 O6_7 1_555 1_555
C12_7 C3_7 1_555 1_555
H10_7 C12_7 1_555 1_555
C13_7 C12_7 1_555 1_555
H11_7 C13_7 1_555 1_555
O11_3 C3_8 1_555 1_555
O6_8 H1_8 1_555 1_555
C3_8 O6_8 1_555 1_555
C12_8 C3_8 1_555 1_555
H10_8 C12_8 1_555 1_555
C13_8 C12_8 1_555 1_555
H11_8 C13_8 1_555 1_555
Sr5 O7_4 1_555 1_555
O7_4 C2_7 1_555 1_555
O9_3 C4_7 1_555 1_555
O10_4 C2_7 1_555 1_555
N1_7 C7_7 1_555 1_555
N2_7 C7_7 1_555 1_555
C1_7 H2_7 1_555 1_555
C2_7 C1_7 1_555 1_555
N6_7 C9_7 1_555 1_555
C4_7 C5_7 1_555 1_555
C5_7 H3_7 1_555 1_555
C6_7 C1_7 1_555 1_555
H4_7 C6_7 1_555 1_555
H5_7 C6_7 1_555 1_555
C8_7 C1_7 1_555 1_555
H6_7 C8_7 1_555 1_555
H7_7 C8_7 1_555 1_555
C9_7 N1_7 1_555 1_555
C11_7 N2_7 1_555 1_555
H8_7 C11_7 1_555 1_555
H9_7 C11_7 1_555 1_555
C16_7 N6_7 1_555 1_555
H17_7 C16_7 1_555 1_555
C17_7 C5_7 1_555 1_555
H19_7 C17_7 1_555 1_555
H20_7 C17_7 1_555 1_555
C18_7 N2_7 1_555 1_555
H21_7 C18_7 1_555 1_555
H22_7 C18_7 1_555 1_555
C20_7 N6_7 1_555 1_555
H25_7 C20_7 1_555 1_555
H26_7 C20_7 1_555 1_555
Sr6 O9_3 1_555 1_555
O9_4 Sr5 1_555 1_555
C6_7 C11_7 1_555 1_555
C8_7 C18_7 1_555 1_555
C17_7 C20_7 1_555 1_555
N5_8 C10_8 1_555 1_555
C10_8 N3_8 1_555 1_555
H15_7 C15_7 1_555 1_555
H16_7 C15_7 1_555 1_555
C19_8 N5_8 1_555 1_555
H23_7 C19_8 1_555 1_555
H24_8 C19_8 1_555 1_555
C21_8 N5_8 1_555 1_555
H27_8 C21_8 1_555 1_555
H28_8 C21_8 1_555 1_555
N4_8 C10_8 1_555 1_555
H15_8 C15_8 1_555 1_555
H16_8 C15_8 1_555 1_555
Sr6 O7_3 1_555 1_555
O7_3 C2_8 1_555 1_555
O10_3 C2_8 1_555 1_555
N1_8 C7_8 1_555 1_555
N2_8 C7_8 1_555 1_555
C1_8 H2_8 1_555 1_555
C2_8 C1_8 1_555 1_555
N6_8 C9_8 1_555 1_555
C6_8 C1_8 1_555 1_555
H4_8 C6_8 1_555 1_555
H5_8 C6_8 1_555 1_555
C8_8 C1_8 1_555 1_555
H6_8 C8_8 1_555 1_555
H7_8 C8_8 1_555 1_555
C9_8 N1_8 1_555 1_555
C11_8 N2_8 1_555 1_555
H8_8 C11_8 1_555 1_555
H9_8 C11_8 1_555 1_555
C18_8 N2_8 1_555 1_555
H21_8 C18_8 1_555 1_555
H22_8 C18_8 1_555 1_555
C20_8 N6_8 1_555 1_555
H25_8 C20_8 1_555 1_555
C6_8 C11_8 1_555 1_555
C8_8 C18_8 1_555 1_555
O9_4 C4_8 1_555 1_555
C4_8 C5_8 1_555 1_555
C5_8 H3_8 1_555 1_555
H17_8 C16_8 1_555 1_555
C17_8 C5_8 1_555 1_555
H19_8 C17_8 1_555 1_555
H20_8 C17_8 1_555 1_555
H13_8 C14_8 1_555 1_555
H14_8 C14_8 1_555 1_555

#END
