
###############################################################################
#
# This file contains modified crystal structure data generated from the
# MOF subset of the Cambridge Structural Database (CSD) v543 
# hosted by the Cambridge Crystallographic Data Centre (CCDC).
#
# This work is licensed under the Creative Commons
# Attribution-NonCommercial-ShareAlike 4.0 International License.
# To view a copy of this license, visit
# http://creativecommons.org/licenses/by-nc-sa/4.0/
# or send a letter to
# Creative Commons, PO Box 1866, Mountain View, CA 94042, USA.
#
# CIF created using the CSD Python API on 29 September 2022
# The structure has been converted into the P1 space group
# The structure has a 3D framework
# The original CSD entry AXICOB is in the triclinic crystal system
# The framework has been calculated to contain at least 10.0% void space
# The void calculation uses a probe of radius 1.32A, grid spacing 0.4
#
###############################################################################

data_AXICOB
_chemical_formula_moiety         '(C56 H52 Cu4 O16 P6)n'
_symmetry_cell_setting           triclinic
_symmetry_space_group_name_H-M   'P 1'
_symmetry_Int_Tables_number      1
_space_group_name_Hall           'P 1'
loop_
_symmetry_equiv_pos_site_id
_symmetry_equiv_pos_as_xyz
1 x,y,z
_cell_length_a                   5.08130(10)
_cell_length_b                   15.1585(3)
_cell_length_c                   29.3246(7)
_cell_angle_alpha                83.8820(10)
_cell_angle_beta                 85.7280(10)
_cell_angle_gamma                82.705(2)
_cell_volume                     2223.42
loop_
_atom_site_label
_atom_site_type_symbol
_atom_site_fract_x
_atom_site_fract_y
_atom_site_fract_z
Cu2 Cu 0.0000 0.5000 0.0000
P3 P 0.1090(3) 0.21493(10) 0.47705(6)
O5 O 0.0640(7) 0.2724(2) 0.51967(14)
O6 O 0.4005(7) 0.1842(2) 0.47472(14)
C14 C 0.0784(13) 0.4411(4) 0.3899(2)
H9 H 0.1634 0.4925 0.3864
C15 C 0.1552(12) 0.3733(4) 0.4229(2)
H10 H 0.2916 0.3791 0.4414
C16 C 0.0304(10) 0.2959(3) 0.4289(2)
Cu7 Cu 0.65110(13) 0.07773(5) 0.46819(3)
O19 O 0.1802(9) 0.5219(4) 0.05189(16)
Cu2_2 Cu -0.0000 0.5000 1.0000
O20 O 0.3139(9) 0.5098(3) 0.96064(17)
O16 O 0.0940(7) 0.9996(2) 0.56692(14)
Cu11 Cu 0.34890(13) 0.92227(5) 0.53181(3)
P2 P 0.1969(3) 0.00095(10) 0.42072(6)
O8 O 0.2204(10) 0.0853(3) 0.38472(16)
O9 O 0.3767(7) 0.0015(2) 0.45981(13)
C27 C 0.438(2) 0.1009(6) 0.3576(4)
H22 H 0.5134 0.0458 0.3451
H23 H 0.5689 0.1186 0.3761
C28 C 0.383(2) 0.1731(8) 0.3180(4)
H24 H 0.2658 0.1538 0.2979
H25 H 0.5474 0.1838 0.3012
H26 H 0.3018 0.2273 0.3300
Cu2_3 Cu 1.0000 0.5000 0.0000
P1 P 0.4494(4) 0.54992(18) 0.05686(7)
O2 O 0.4644(15) 0.6556(5) 0.0321(2)
H1 H 0.3134 0.6814 0.0299
O3 O 0.6861(9) 0.4902(3) 0.03936(17)
O4 O 0.9242(7) 0.1455(2) 0.48152(14)
C1 C 0.4828(13) 0.5576(5) 0.1169(2)
C2 C 0.2946(14) 0.6115(5) 0.1426(3)
H2 H 0.1487 0.6438 0.1288
C3 C 0.3279(14) 0.6161(5) 0.1887(2)
H3 H 0.1994 0.6501 0.2058
C4 C 0.5499(12) 0.5710(4) 0.2100(2)
C5 C 0.7365(14) 0.5187(5) 0.1840(2)
H4 H 0.8843 0.4873 0.1977
C6 C 0.7044(15) 0.5126(5) 0.1378(3)
H5 H 0.8323 0.4782 0.1208
C7 C 0.5925(11) 0.5794(4) 0.2582(2)
C8 C 0.5242(11) 0.6594(4) 0.2776(2)
H6 H 0.4440 0.7084 0.2597
C9 C 0.5713(11) 0.6686(4) 0.3226(2)
C10 C 0.6918(10) 0.5953(4) 0.3495(2)
H7 H 0.7254 0.6012 0.3797
C11 C 0.7629(12) 0.5129(4) 0.3315(2)
C12 C 0.7086(11) 0.5060(4) 0.2864(2)
H8 H 0.7503 0.4512 0.2744
C13 C 0.8775(11) 0.4342(4) 0.3619(2)
C17 C 0.8417(12) 0.2877(4) 0.3991(2)
H11 H 0.7626 0.2352 0.4015
C18 C 0.7659(13) 0.3549(4) 0.3657(2)
H12 H 0.6394 0.3470 0.3456
C19 C 0.4884(11) 0.7532(4) 0.3447(2)
C20 C 0.2576(11) 0.8089(4) 0.3319(2)
H13 H 0.1641 0.7959 0.3078
C21 C 0.1695(11) 0.8832(4) 0.3550(2)
H14 H 0.0121 0.9183 0.3475
C22 C 0.3163(11) 0.9061(4) 0.3899(2)
C23 C 0.5477(11) 0.8519(4) 0.4012(2)
H15 H 0.6470 0.8657 0.4243
C24 C 0.6299(11) 0.7783(4) 0.3784(2)
H16 H 0.7881 0.7437 0.3860
C25 C 0.7950(13) 0.3059(4) 0.5351(3)
H17 H 0.7713 0.2916 0.5681
H18 H 0.6701 0.2760 0.5207
C26 C 0.7349(17) 0.4035(5) 0.5241(3)
H19 H 0.7255 0.4170 0.4915
H20 H 0.8725 0.4330 0.5345
H21 H 0.5676 0.4239 0.5393
O23 O 0.9060(7) 0.0004(2) 0.43308(14)
Cu2_4 Cu 1.0000 0.5000 1.0000
P4 P 0.5506(4) 0.45008(18) 0.94314(7)
O10 O 0.8198(9) 0.4781(4) 0.94811(16)
O11 O 0.5356(15) 0.3444(5) 0.9679(2)
H27 H 0.6866 0.3186 0.9701
O13 O 0.0758(7) 0.8545(2) 0.51848(14)
C29 C 0.5172(13) 0.4424(5) 0.8831(2)
C30 C 0.7054(14) 0.3885(5) 0.8574(3)
H28 H 0.8513 0.3562 0.8712
C31 C 0.6721(14) 0.3839(5) 0.8113(2)
H29 H 0.8006 0.3499 0.7942
C32 C 0.4501(12) 0.4290(4) 0.7900(2)
C33 C 0.2635(14) 0.4813(5) 0.8160(2)
H30 H 0.1157 0.5127 0.8023
C34 C 0.2956(15) 0.4874(5) 0.8622(3)
H31 H 0.1677 0.5218 0.8792
C35 C 0.4075(11) 0.4206(4) 0.7418(2)
C36 C 0.4758(11) 0.3406(4) 0.7224(2)
H32 H 0.5560 0.2916 0.7403
C37 C 0.4287(11) 0.3314(4) 0.6774(2)
C38 C 0.3082(10) 0.4047(4) 0.6505(2)
H33 H 0.2746 0.3988 0.6203
C39 C 0.2371(12) 0.4871(4) 0.6685(2)
C40 C 0.2914(11) 0.4940(4) 0.7136(2)
H34 H 0.2497 0.5488 0.7256
C41 C 0.1225(11) 0.5658(4) 0.6381(2)
C45 C 0.1583(12) 0.7123(4) 0.6009(2)
H37 H 0.2374 0.7648 0.5985
C46 C 0.2341(13) 0.6451(4) 0.6343(2)
H38 H 0.3606 0.6530 0.6544
C47 C 0.5116(11) 0.2468(4) 0.6553(2)
C48 C 0.7424(11) 0.1911(4) 0.6681(2)
H39 H 0.8359 0.2041 0.6922
C49 C 0.8305(11) 0.1168(4) 0.6450(2)
H40 H 0.9879 0.0817 0.6525
C50 C 0.6837(11) 0.0939(4) 0.6101(2)
C51 C 0.4523(11) 0.1481(4) 0.5988(2)
H41 H 0.3530 0.1343 0.5757
C52 C 0.3701(11) 0.2217(4) 0.6216(2)
H42 H 0.2119 0.2563 0.6140
C53 C 0.2050(13) 0.6941(4) 0.4649(3)
H43 H 0.2287 0.7084 0.4319
H44 H 0.3299 0.7240 0.4793
C54 C 0.2651(17) 0.5965(5) 0.4759(3)
H45 H 0.2745 0.5830 0.5085
H46 H 0.1275 0.5670 0.4655
H47 H 0.4324 0.5761 0.4607
O22 O 0.5995(7) 0.8158(2) 0.52528(14)
O28 O 0.6233(7) 0.9985(2) 0.54019(13)
P5 P 0.8031(3) 0.99905(10) 0.57928(6)
O17 O 0.7796(10) 0.9147(3) 0.61528(16)
C55 C 0.562(2) 0.8991(6) 0.6424(4)
H48 H 0.4866 0.9542 0.6549
H49 H 0.4311 0.8814 0.6239
C56 C 0.617(2) 0.8269(8) 0.6820(4)
H50 H 0.7342 0.8462 0.7021
H51 H 0.4526 0.8162 0.6988
H52 H 0.6982 0.7727 0.6700
P6 P 0.8910(3) 0.78507(10) 0.52295(6)
O14 O 0.9360(7) 0.7276(2) 0.48033(14)
C42 C 0.9216(13) 0.5589(4) 0.6101(2)
H35 H 0.8366 0.5075 0.6136
C43 C 0.8448(12) 0.6267(4) 0.5771(2)
H36 H 0.7084 0.6209 0.5586
C44 C 0.9696(10) 0.7041(3) 0.5711(2)
loop_
_geom_bond_atom_site_label_1
_geom_bond_atom_site_label_2
_geom_bond_site_symmetry_1
_geom_bond_site_symmetry_2
O5 P3 1_555 1_555
O6 P3 1_555 1_555
H9 C14 1_555 1_555
C15 C14 1_555 1_555
H10 C15 1_555 1_555
C16 P3 1_555 1_555
Cu7 O6 1_555 1_555
O19 Cu2 1_555 1_555
C15 C16 1_555 1_555
O20 Cu2_2 1_555 1_555
O16 Cu11 1_555 1_555
O8 P2 1_555 1_555
O9 P2 1_555 1_555
C27 O8 1_555 1_555
H22 C27 1_555 1_555
H23 C27 1_555 1_555
C28 C27 1_555 1_555
H24 C28 1_555 1_555
H25 C28 1_555 1_555
H26 C28 1_555 1_555
Cu7 O9 1_555 1_555
Cu7 O4 1_555 1_555
Cu2_3 O3 1_555 1_555
P1 O19 1_555 1_555
O2 P1 1_555 1_555
H1 O2 1_555 1_555
O3 P1 1_555 1_555
C1 P1 1_555 1_555
C2 C1 1_555 1_555
H2 C2 1_555 1_555
C3 C2 1_555 1_555
H3 C3 1_555 1_555
C4 C3 1_555 1_555
C5 C4 1_555 1_555
H4 C5 1_555 1_555
C6 C1 1_555 1_555
H5 C6 1_555 1_555
C7 C4 1_555 1_555
C8 C7 1_555 1_555
H6 C8 1_555 1_555
C9 C8 1_555 1_555
C10 C9 1_555 1_555
H7 C10 1_555 1_555
C11 C10 1_555 1_555
C12 C7 1_555 1_555
H8 C12 1_555 1_555
C13 C11 1_555 1_555
H11 C17 1_555 1_555
C18 C13 1_555 1_555
H12 C18 1_555 1_555
C19 C9 1_555 1_555
C20 C19 1_555 1_555
H13 C20 1_555 1_555
C21 C20 1_555 1_555
H14 C21 1_555 1_555
C23 C22 1_555 1_555
H15 C23 1_555 1_555
C24 C19 1_555 1_555
H16 C24 1_555 1_555
H17 C25 1_555 1_555
H18 C25 1_555 1_555
C26 C25 1_555 1_555
H19 C26 1_555 1_555
H20 C26 1_555 1_555
H21 C26 1_555 1_555
O23 Cu7 1_555 1_555
C5 C6 1_555 1_555
C11 C12 1_555 1_555
C17 C18 1_555 1_555
C21 C22 1_555 1_555
C23 C24 1_555 1_555
Cu11 O13 1_555 1_555
P4 O10 1_555 1_555
O10 Cu2_4 1_555 1_555
O11 P4 1_555 1_555
H27 O11 1_555 1_555
O20 P4 1_555 1_555
C29 P4 1_555 1_555
C30 C29 1_555 1_555
H28 C30 1_555 1_555
C31 C30 1_555 1_555
H29 C31 1_555 1_555
C32 C31 1_555 1_555
C33 C32 1_555 1_555
H30 C33 1_555 1_555
C34 C29 1_555 1_555
H31 C34 1_555 1_555
C35 C32 1_555 1_555
C36 C35 1_555 1_555
H32 C36 1_555 1_555
C37 C36 1_555 1_555
C38 C37 1_555 1_555
H33 C38 1_555 1_555
C39 C38 1_555 1_555
C40 C35 1_555 1_555
H34 C40 1_555 1_555
C41 C39 1_555 1_555
H37 C45 1_555 1_555
C46 C41 1_555 1_555
H38 C46 1_555 1_555
C47 C37 1_555 1_555
C48 C47 1_555 1_555
H39 C48 1_555 1_555
C49 C48 1_555 1_555
H40 C49 1_555 1_555
C51 C50 1_555 1_555
H41 C51 1_555 1_555
C52 C47 1_555 1_555
H42 C52 1_555 1_555
H43 C53 1_555 1_555
H44 C53 1_555 1_555
C54 C53 1_555 1_555
H45 C54 1_555 1_555
H46 C54 1_555 1_555
H47 C54 1_555 1_555
O22 Cu11 1_555 1_555
O28 Cu11 1_555 1_555
C33 C34 1_555 1_555
C39 C40 1_555 1_555
C45 C46 1_555 1_555
C49 C50 1_555 1_555
C51 C52 1_555 1_555
O17 P5 1_555 1_555
O28 P5 1_555 1_555
C55 O17 1_555 1_555
H48 C55 1_555 1_555
H49 C55 1_555 1_555
C56 C55 1_555 1_555
H50 C56 1_555 1_555
H51 C56 1_555 1_555
H52 C56 1_555 1_555
O14 P6 1_555 1_555
O22 P6 1_555 1_555
H35 C42 1_555 1_555
C43 C42 1_555 1_555
H36 C43 1_555 1_555
C44 P6 1_555 1_555
C43 C44 1_555 1_555

#END
