
###############################################################################
#
# This file contains modified crystal structure data generated from the
# MOF subset of the Cambridge Structural Database (CSD) v543 
# hosted by the Cambridge Crystallographic Data Centre (CCDC).
#
# This work is licensed under the Creative Commons
# Attribution-NonCommercial-ShareAlike 4.0 International License.
# To view a copy of this license, visit
# http://creativecommons.org/licenses/by-nc-sa/4.0/
# or send a letter to
# Creative Commons, PO Box 1866, Mountain View, CA 94042, USA.
#
# CIF created using the CSD Python API on 29 September 2022
# The structure has been converted into the P1 space group
# The structure has a 3D framework
# The original CSD entry AXINAX01 is in the monoclinic crystal system
# The framework has been calculated to contain at least 10.0% void space
# The void calculation uses a probe of radius 1.32A, grid spacing 0.4
# H atom positions have been added when not included in the experimental data
#
###############################################################################

data_AXINAX01
_chemical_formula_moiety         '(C652 H552 Co46 O240)n'
_symmetry_cell_setting           triclinic
_symmetry_space_group_name_H-M   'P 1'
_symmetry_Int_Tables_number      1
_space_group_name_Hall           'P 1'
loop_
_symmetry_equiv_pos_site_id
_symmetry_equiv_pos_as_xyz
1 x,y,z
_cell_length_a                   45.386(9)
_cell_length_b                   35.904(7)
_cell_length_c                   33.184(7)
_cell_angle_alpha                90
_cell_angle_beta                 94.91(3)
_cell_angle_gamma                90
_cell_volume                     53876.2
loop_
_atom_site_label
_atom_site_type_symbol
_atom_site_fract_x
_atom_site_fract_y
_atom_site_fract_z
C30 C 0.05549(10) 0.25339(14) 0.19730(14)
C31 C 0.08159(8) 0.24415(13) 0.22646(14)
C32 C 0.10175(8) 0.21707(13) 0.21711(14)
H16 H 0.0985 0.2032 0.1935
C33 C 0.12715(9) 0.21087(13) 0.24362(15)
H17 H 0.1401 0.1916 0.2388
C34 C 0.08641(8) 0.26555(13) 0.25998(13)
H18 H 0.0725 0.2832 0.2662
C35 C 0.11300(9) 0.26064(13) 0.28557(14)
H19 H 0.1169 0.2758 0.3081
C36 C 0.13277(8) 0.23384(13) 0.27714(14)
C37 C 0.16182(8) 0.22916(13) 0.30268(13)
C38 C 0.17836(9) 0.26099(13) 0.31317(16)
H20 H 0.1709 0.2844 0.3059
C39 C 0.20644(8) 0.25754(14) 0.33486(16)
C40 C 0.17199(8) 0.19447(13) 0.31447(14)
H21 H 0.1605 0.1735 0.3079
C41 C 0.21479(9) 0.32540(14) 0.34990(14)
H22 H 0.1946 0.3281 0.3520
C42 C 0.25600(9) 0.28773(13) 0.33858(17)
H23 H 0.2638 0.2645 0.3331
C43 C 0.22554(9) 0.29166(14) 0.34205(15)
C44 C 0.23296(9) 0.35634(13) 0.35492(14)
H24 H 0.2249 0.3794 0.3605
C45 C 0.27425(10) 0.31842(14) 0.34339(16)
H25 H 0.2944 0.3159 0.3411
C46 C 0.19994(9) 0.19061(13) 0.33671(15)
C47 C 0.21612(9) 0.22291(12) 0.34678(15)
H26 H 0.2342 0.2207 0.3622
C48 C 0.21112(9) 0.15381(13) 0.34939(16)
C49 C 0.24211(9) 0.14720(14) 0.35363(16)
H27 H 0.2551 0.1662 0.3483
C50 C 0.19301(9) 0.12383(14) 0.35702(15)
H28 H 0.1726 0.1271 0.3543
C51 C 0.20423(9) 0.08985(13) 0.36840(15)
H29 H 0.1913 0.0704 0.3727
C52 C 0.23455(9) 0.08369(13) 0.37378(15)
C53 C 0.25307(9) 0.11253(13) 0.36568(17)
H30 H 0.2734 0.1087 0.3683
C54 C 0.24706(9) 0.04635(13) 0.38632(13)
C79 C 0.28278(10) 0.38678(16) 0.35541(14)
C80 C 0.26244(9) 0.35328(13) 0.35169(14)
O5 O 0.03377(5) 0.27192(8) 0.20863(8)
O6 O 0.05604(5) 0.24376(9) 0.16070(10)
O7 O 0.27408(6) 0.04394(8) 0.39409(10)
O8 O 0.22906(6) 0.01991(8) 0.38881(8)
O13 O 0.27108(6) 0.41802(9) 0.36006(8)
O14 O 0.30963(7) 0.38028(9) 0.35405(9)
O23 O 0.33671(7) 0.04695(15) 0.42029(14)
O26 O 0.00954(7) 0.26602(12) 0.08397(10)
O27 O 0.04003(8) 0.32143(12) 0.13603(12)
O29 O 0.31471(8) 0.02311(12) 0.33606(12)
Co1 Co 0.0000 0.26941(2) 0.2500
Co5 Co 0.015023(11) 0.273346(18) 0.146606(17)
Co6 Co 0.307235(12) 0.003971(18) 0.393168(19)
C82 C 0.02356(9) 0.21533(13) 0.31783(16)
C83 C 0.20898(9) 0.49206(13) 0.48551(14)
C84 C 0.04324(9) 0.16523(13) 0.36573(12)
H46 H 0.0295 0.1726 0.3835
C85 C 0.21789(13) 0.50882(14) 0.52825(16)
C86 C 0.04472(8) 0.18363(12) 0.32847(13)
C87 C 0.06565(9) 0.17377(12) 0.30214(13)
H47 H 0.0668 0.1865 0.2779
C88 C 0.08510(8) 0.14390(12) 0.31318(13)
H48 H 0.0991 0.1368 0.2958
C89 C 0.06229(9) 0.13625(14) 0.37556(14)
H49 H 0.0613 0.1236 0.3999
C90 C 0.08372(8) 0.12539(12) 0.34861(13)
C91 C 0.10329(8) 0.09296(13) 0.35933(13)
C92 C 0.11413(8) 0.08703(12) 0.40031(12)
H50 H 0.1086 0.1027 0.4206
C93 C 0.13362(8) 0.05661(12) 0.40969(13)
C94 C 0.14083(8) 0.03375(13) 0.37900(13)
H51 H 0.1535 0.0138 0.3851
C95 C 0.12975(8) 0.03952(12) 0.33834(13)
C96 C 0.11125(8) 0.06896(12) 0.32938(12)
H52 H 0.1039 0.0730 0.3027
C97 C 0.13916(8) 0.01447(12) 0.30592(13)
C98 C 0.16691(9) 0.00195(14) 0.30613(14)
H53 H 0.1803 0.0072 0.3282
C99 C 0.11851(9) 0.00432(14) 0.27378(14)
H54 H 0.0988 0.0112 0.2743
C104 C 0.14641(9) 0.05129(13) 0.45117(14)
C105 C 0.13005(10) 0.05937(14) 0.48339(16)
H57 H 0.1108 0.0680 0.4778
C106 C 0.14095(9) 0.05529(14) 0.52407(13)
H58 H 0.1295 0.0608 0.5452
C107 C 0.17431(9) 0.03827(12) 0.45922(14)
H59 H 0.1857 0.0325 0.4381
C108 C 0.17068(9) 0.04211(13) 0.53113(15)
C109 C 0.18628(10) 0.03336(13) 0.50001(15)
H60 H 0.2053 0.0239 0.5051
C110 C 0.18352(11) 0.03927(14) 0.57439(16)
C136 C 0.06076(8) 0.33715(13) 0.32596(15)
C137 C 0.03242(9) 0.31506(14) 0.32090(16)
C138 C 0.07878(9) 0.33586(15) 0.36231(14)
H76 H 0.0733 0.3217 0.3839
C139 C 0.10503(9) 0.35606(15) 0.36585(15)
H77 H 0.1163 0.3562 0.3906
C140 C 0.09669(9) 0.37709(14) 0.29668(14)
H78 H 0.1023 0.3915 0.2753
C141 C 0.11491(8) 0.37568(13) 0.33434(13)
C142 C 0.14250(9) 0.39808(13) 0.33716(14)
C143 C 0.15287(9) 0.41593(14) 0.37348(14)
H79 H 0.1428 0.4130 0.3965
C144 C 0.17801(10) 0.43769(13) 0.37491(14)
C145 C 0.18884(10) 0.45750(13) 0.41354(14)
C146 C 0.16986(11) 0.46646(15) 0.44174(16)
H80 H 0.1499 0.4613 0.4357
C147 C 0.21861(9) 0.46613(12) 0.42175(13)
H81 H 0.2322 0.4603 0.4033
C148 C 0.22772(9) 0.48386(13) 0.45833(13)
H82 H 0.2476 0.4901 0.4637
C149 C 0.17842(9) 0.48288(14) 0.47928(14)
H83 H 0.1652 0.4874 0.4986
C150 C 0.15816(9) 0.40205(13) 0.30418(14)
H84 H 0.1519 0.3893 0.2806
C151 C 0.19281(10) 0.44227(13) 0.34115(15)
H85 H 0.2095 0.4574 0.3426
C152 C 0.18361(9) 0.42488(12) 0.30442(12)
C153 C 0.19862(9) 0.42956(13) 0.26769(13)
C154 C 0.22930(9) 0.43224(13) 0.26793(14)
H86 H 0.2410 0.4297 0.2922
C155 C 0.24233(9) 0.43854(13) 0.23298(14)
H87 H 0.2628 0.4397 0.2337
C156 C 0.22567(9) 0.44330(13) 0.19658(13)
C157 C 0.19584(9) 0.44060(13) 0.19613(13)
H88 H 0.1845 0.4433 0.1716
C158 C 0.18187(10) 0.43407(14) 0.23008(15)
H89 H 0.1614 0.4326 0.2286
C159 C 0.07073(9) 0.35670(13) 0.29274(15)
H90 H 0.0597 0.3558 0.2678
C162 C 0.23995(11) 0.45261(14) 0.15987(14)
O31 O 0.00835(7) 0.22536(9) 0.34551(10)
O32 O 0.02336(5) 0.22923(8) 0.28295(9)
O33 O 0.02250(6) 0.30366(10) 0.35183(10)
O34 O 0.02160(5) 0.31110(8) 0.28431(8)
O39 O 0.20839(7) 0.02330(9) 0.58076(8)
O40 O 0.17032(7) 0.05015(10) 0.60323(10)
O43 O 0.14679(6) 0.06239(9) 0.68075(9)
O46 O 0.19360(6) 0.04585(11) 0.69994(9)
O49 O 0.22892(6) 0.08198(9) 0.63994(8)
O52 O 0.19037(7) 0.11972(9) 0.64595(9)
O53 O 0.26734(6) 0.44865(8) 0.15724(8)
O56 O 0.19841(8) 0.51588(11) 0.55115(10)
O59 O 0.24405(7) 0.00353(9) 0.66794(12)
O61 O 0.24563(6) 0.51446(9) 0.53565(9)
O64 O 0.10724(7) 0.07335(11) 0.61119(10)
O66 O 0.14790(8) 0.12874(12) 0.57854(11)
O68 O 0.22354(6) 0.46414(8) 0.12773(8)
O74 O 0.12933(7) 0.13831(11) 0.66204(12)
Co7 Co 0.207184(13) 0.033222(17) 0.644361(18)
Co9 Co 0.292816(13) 0.466778(17) 0.355639(18)
Co15 Co 0.261033(12) 0.467065(16) 0.092548(17)
Co16 Co 0.261033(12) 0.532935(16) 0.592548(17)
Co17 Co 0.149580(12) 0.095376(19) 0.630918(18)
Co19 Co 0.350420(12) 0.404624(19) 0.369082(18)
Co26 Co 0.192765(12) 0.496029(18) 0.606832(19)
Co27 Co 0.192765(12) 0.503971(18) 0.106832(19)
H95 H 0.136102 0.11588 0.556102
H96 H 0.138527 0.153 0.584025
H99 H 0.262036 0.0136337 0.656808
H100 H 0.246037 0.0059138 0.697862
H101 H 0.105159 0.0480907 0.622799
H102 H 0.0916072 0.0898981 0.620363
H103 H 0.0118811 0.265825 0.42512
H105 H 0.143441 0.147834 0.684175
H106 H 0.123571 0.158879 0.642965
H117 H 0.0345493 0.330708 0.108206
H118 H 0.0358808 0.341014 0.155903
H121 H 0.329738 0.05486 0.446528
H122 H 0.35708 0.0368183 0.424857
H123 H 0.320325 0.0498336 0.337652
H124 H 0.330965 0.0085241 0.325482
H132 H 0.0193419 0.286763 0.0705106
O18 O 0.34186(7) 0.96575(11) 0.39152(11)
O21 O 0.19717(6) 0.95703(9) 0.42278(11)
O25 O 0.24853(8) 0.91154(9) 0.42422(10)
Co3 Co 0.238967(12) 0.967065(16) 0.407452(17)
C100 C 0.17621(9) 0.98151(15) 0.27443(14)
H55 H 0.1958 0.9737 0.2750
C101 C 0.12730(9) 0.98430(14) 0.24151(14)
H56 H 0.1136 0.9787 0.2199
C102 C 0.15590(9) 0.97247(14) 0.24093(13)
C103 C 0.16653(12) 0.95340(16) 0.20547(15)
O41 O 0.14679(6) 0.93761(9) 0.18075(9)
O44 O 0.19360(6) 0.95415(11) 0.19994(9)
O54 O 0.23266(6) 0.94865(8) 0.34276(8)
O57 O 0.30159(8) 0.98412(11) 0.44885(10)
O62 O 0.25437(6) 0.98554(9) 0.46435(9)
O69 O 0.27646(6) 0.96414(8) 0.37227(8)
O76 O 0.18592(18) 0.98211(16) 0.65133(15)
Co10 Co 0.207184(13) 0.966778(17) 0.144361(18)
Co20 Co 0.149580(12) 0.904624(19) 0.130918(18)
H111 H 0.198685 0.961582 0.642846
H112 H 0.182167 0.978684 0.68014
H115 H 0.262903 0.901024 0.406347
H116 H 0.257153 0.910784 0.452738
H133 H 0.182962 0.959831 0.398502
H134 H 0.195997 0.931292 0.433478
H135 H 0.358372 0.973135 0.41149
H136 H 0.334762 0.940538 0.39829
C1 C 0.97644(9) 0.21533(13) 0.18217(16)
C2 C 0.79102(9) 0.49206(13) 0.01449(14)
C3 C 0.95676(9) 0.16523(13) 0.13427(12)
H1 H 0.9705 0.1726 0.1165
C5 C 0.95528(8) 0.18363(12) 0.17153(13)
C6 C 0.93435(9) 0.17377(12) 0.19786(13)
H2 H 0.9332 0.1865 0.2221
C7 C 0.91490(8) 0.14390(12) 0.18682(13)
H3 H 0.9009 0.1368 0.2042
C8 C 0.93771(9) 0.13625(14) 0.12444(14)
H4 H 0.9387 0.1236 0.1001
C9 C 0.91628(8) 0.12539(12) 0.15139(13)
C10 C 0.89671(8) 0.09296(13) 0.14067(13)
C11 C 0.88587(8) 0.08703(12) 0.09969(12)
H5 H 0.8914 0.1027 0.0794
C12 C 0.86638(8) 0.05661(12) 0.09031(13)
C13 C 0.85917(8) 0.03375(13) 0.12100(13)
H6 H 0.8465 0.0138 0.1149
C14 C 0.87025(8) 0.03952(12) 0.16166(13)
C15 C 0.88875(8) 0.06896(12) 0.17062(12)
H7 H 0.8961 0.0730 0.1973
C16 C 0.86084(8) 0.01447(12) 0.19408(13)
C17 C 0.83309(9) 0.00195(14) 0.19387(14)
H8 H 0.8197 0.0072 0.1718
C18 C 0.88149(9) 0.00432(14) 0.22622(14)
H9 H 0.9012 0.0112 0.2257
C23 C 0.85359(9) 0.05129(13) 0.04883(14)
C24 C 0.86995(10) 0.05937(14) 0.01661(16)
H12 H 0.8892 0.0680 0.0222
C26 C 0.82569(9) 0.03827(12) 0.04078(14)
H14 H 0.8143 0.0325 0.0619
C28 C 0.81372(10) 0.03336(13) -0.00001(15)
C55 C 0.93924(8) 0.33715(13) 0.17404(15)
C56 C 0.96758(9) 0.31506(14) 0.17910(16)
C57 C 0.92122(9) 0.33586(15) 0.13769(14)
H31 H 0.9267 0.3217 0.1161
C58 C 0.89497(9) 0.35606(15) 0.13415(15)
H32 H 0.8837 0.3562 0.1094
C59 C 0.90331(9) 0.37709(14) 0.20332(14)
H33 H 0.8977 0.3915 0.2247
C60 C 0.88509(8) 0.37568(13) 0.16566(13)
C61 C 0.85750(9) 0.39808(13) 0.16284(14)
C62 C 0.84713(9) 0.41593(14) 0.12652(14)
H34 H 0.8572 0.4130 0.1035
C63 C 0.82199(10) 0.43769(13) 0.12509(14)
C64 C 0.81116(10) 0.45750(13) 0.08646(14)
C65 C 0.83014(11) 0.46646(15) 0.05826(16)
H35 H 0.8501 0.4613 0.0643
C66 C 0.78139(9) 0.46613(12) 0.07825(13)
H36 H 0.7678 0.4603 0.0967
C67 C 0.77228(9) 0.48386(13) 0.04167(13)
H37 H 0.7524 0.4901 0.0363
C68 C 0.82158(9) 0.48288(14) 0.02072(14)
H38 H 0.8348 0.4874 0.0014
C69 C 0.84184(9) 0.40205(13) 0.19582(14)
H39 H 0.8481 0.3893 0.2194
C70 C 0.80719(10) 0.44227(13) 0.15885(15)
H40 H 0.7905 0.4574 0.1574
C71 C 0.81639(9) 0.42488(12) 0.19558(12)
C72 C 0.80138(9) 0.42956(13) 0.23231(13)
C73 C 0.77070(9) 0.43224(13) 0.23207(14)
H41 H 0.7590 0.4297 0.2078
C74 C 0.75767(9) 0.43854(13) 0.26702(14)
H42 H 0.7372 0.4397 0.2663
C75 C 0.77433(9) 0.44330(13) 0.30342(13)
C76 C 0.80416(9) 0.44060(13) 0.30387(13)
H43 H 0.8155 0.4433 0.3284
C77 C 0.81813(10) 0.43407(14) 0.26992(15)
H44 H 0.8386 0.4326 0.2714
C78 C 0.92927(9) 0.35670(13) 0.20726(15)
H45 H 0.9403 0.3558 0.2322
C81 C 0.76005(11) 0.45261(14) 0.34013(14)
O1 O 0.99165(7) 0.22536(9) 0.15449(10)
O2 O 0.97664(5) 0.22923(8) 0.21705(9)
O3 O 0.97750(6) 0.30366(10) 0.14817(10)
O4 O 0.97840(5) 0.31110(8) 0.21569(8)
O15 O 0.73266(6) 0.44865(8) 0.34276(8)
O24 O 0.77646(6) 0.46414(8) 0.37227(8)
Co1_2 Co 1.0000 0.26941(2) 0.2500
C111 C 0.94451(10) 0.25339(14) 0.30270(14)
C112 C 0.91841(8) 0.24415(13) 0.27354(14)
C113 C 0.89825(8) 0.21707(13) 0.28289(14)
H61 H 0.9015 0.2032 0.3065
C114 C 0.87285(9) 0.21087(13) 0.25638(15)
H62 H 0.8599 0.1916 0.2612
C115 C 0.91359(8) 0.26555(13) 0.24002(13)
H63 H 0.9275 0.2832 0.2338
C116 C 0.88700(9) 0.26064(13) 0.21443(14)
H64 H 0.8831 0.2758 0.1919
C117 C 0.86723(8) 0.23384(13) 0.22286(14)
C118 C 0.83818(8) 0.22916(13) 0.19732(13)
C119 C 0.82164(9) 0.26099(13) 0.18683(16)
H65 H 0.8291 0.2844 0.1941
C120 C 0.79356(8) 0.25754(14) 0.16514(16)
C121 C 0.82801(8) 0.19447(13) 0.18553(14)
H66 H 0.8395 0.1735 0.1921
C122 C 0.78521(9) 0.32540(14) 0.15010(14)
H67 H 0.8054 0.3281 0.1480
C123 C 0.74400(9) 0.28773(13) 0.16142(17)
H68 H 0.7362 0.2645 0.1669
C124 C 0.77446(9) 0.29166(14) 0.15795(15)
C125 C 0.76704(9) 0.35634(13) 0.14508(14)
H69 H 0.7751 0.3794 0.1395
C126 C 0.72575(10) 0.31842(14) 0.15661(16)
H70 H 0.7056 0.3159 0.1589
C127 C 0.80006(9) 0.19061(13) 0.16329(15)
C128 C 0.78388(9) 0.22291(12) 0.15322(15)
H71 H 0.7658 0.2207 0.1378
C129 C 0.78888(9) 0.15381(13) 0.15061(16)
C130 C 0.75789(9) 0.14720(14) 0.14637(16)
H72 H 0.7449 0.1662 0.1517
C131 C 0.80699(9) 0.12383(14) 0.14298(15)
H73 H 0.8274 0.1271 0.1457
C132 C 0.79577(9) 0.08985(13) 0.13160(15)
H74 H 0.8087 0.0704 0.1273
C133 C 0.76545(9) 0.08369(13) 0.12622(15)
C134 C 0.74693(9) 0.11253(13) 0.13432(17)
H75 H 0.7266 0.1087 0.1317
C135 C 0.75294(9) 0.04635(13) 0.11368(13)
C160 C 0.71722(10) 0.38678(16) 0.14459(14)
C161 C 0.73756(9) 0.35328(13) 0.14831(14)
O35 O 0.96623(5) 0.27192(8) 0.29137(8)
O36 O 0.94396(5) 0.24376(9) 0.33930(10)
O37 O 0.72592(6) 0.04394(8) 0.10591(10)
O38 O 0.77094(6) 0.01991(8) 0.11119(8)
O47 O 0.72892(6) 0.41802(9) 0.13994(8)
O50 O 0.69037(7) 0.38028(9) 0.14595(9)
O67 O 0.66329(7) 0.04695(15) 0.07971(14)
O72 O 0.99046(7) 0.26602(12) 0.41603(10)
O73 O 0.95997(8) 0.32143(12) 0.36397(12)
O75 O 0.68529(8) 0.02311(12) 0.16394(12)
Co11 Co 0.707184(13) 0.466778(17) 0.144361(18)
Co13 Co 0.738967(12) 0.467065(16) 0.407452(17)
Co21 Co 0.649580(12) 0.404624(19) 0.130918(18)
Co22 Co 0.984977(11) 0.273346(18) 0.353394(17)
Co23 Co 0.692765(12) 0.003971(18) 0.106832(19)
Co25 Co 0.807235(12) 0.503971(18) 0.393168(19)
H93 H 0.670262 0.05486 0.0534717
H94 H 0.64292 0.0368183 0.0751428
H104 H 0.980658 0.286763 0.429489
H107 H 0.679675 0.0498336 0.162348
H108 H 0.669035 0.0085241 0.174518
H113 H 0.965451 0.330708 0.391794
H114 H 0.964119 0.341014 0.344097
H131 H 0.988119 0.265825 0.0748799
C4 C 0.78211(13) 0.50882(14) 0.97175(16)
C25 C 0.85905(9) 0.05529(14) 0.97593(13)
H13 H 0.8705 0.0608 0.9548
C27 C 0.82932(9) 0.04211(13) 0.96887(15)
C28_2 C 0.81372(10) 0.03336(13) 0.99999(15)
H15 H 0.7947 0.0239 0.9949
C29 C 0.81648(11) 0.03927(14) 0.92561(16)
O9 O 0.79161(7) 0.02330(9) 0.91924(8)
O10 O 0.82968(7) 0.05015(10) 0.89677(10)
O16 O 0.80159(8) 0.51588(11) 0.94885(10)
O17 O 0.75595(7) 0.00353(9) 0.83206(12)
O19 O 0.75437(6) 0.51446(9) 0.96435(9)
O20 O 0.89276(7) 0.07335(11) 0.88881(10)
O22 O 0.85210(8) 0.12874(12) 0.92146(11)
O28 O 0.87067(7) 0.13831(11) 0.83796(12)
Co2 Co 0.792816(13) 0.033222(17) 0.855639(18)
Co4 Co 0.850420(12) 0.095376(19) 0.869082(18)
O42 O 0.85321(6) 0.06239(9) 0.81925(9)
O45 O 0.80640(6) 0.04585(11) 0.80006(9)
O48 O 0.77108(6) 0.08198(9) 0.86006(8)
O51 O 0.80963(7) 0.11972(9) 0.85405(9)
Co14 Co 0.738967(12) 0.532935(16) 0.907452(17)
Co24 Co 0.807235(12) 0.496029(18) 0.893168(19)
H119 H 0.863898 0.11588 0.943898
H120 H 0.861473 0.153 0.915975
H127 H 0.737964 0.0136337 0.843192
H128 H 0.753963 0.0059138 0.802138
H129 H 0.894841 0.0480907 0.877201
H130 H 0.908393 0.0898981 0.879637
H137 H 0.856559 0.147834 0.815825
H138 H 0.876429 0.158879 0.857035
C19 C 0.82379(9) 0.98151(15) 0.22557(14)
H10 H 0.8042 0.9737 0.2250
C20 C 0.87270(9) 0.98430(14) 0.25849(14)
H11 H 0.8864 0.9787 0.2801
C21 C 0.84410(9) 0.97247(14) 0.25907(13)
C22 C 0.83347(12) 0.95340(16) 0.29453(15)
O11 O 0.85321(6) 0.93761(9) 0.31925(9)
O12 O 0.80640(6) 0.95415(11) 0.30006(9)
O55 O 0.76734(6) 0.94865(8) 0.15724(8)
O58 O 0.69841(8) 0.98412(11) 0.05115(10)
O60 O 0.65814(7) 0.96575(11) 0.10848(11)
O63 O 0.74563(6) 0.98554(9) 0.03565(9)
O65 O 0.80283(6) 0.95703(9) 0.07722(11)
O70 O 0.72354(6) 0.96414(8) 0.12773(8)
O71 O 0.75147(8) 0.91154(9) 0.07578(10)
Co8 Co 0.792816(13) 0.966778(17) 0.355639(18)
Co12 Co 0.761033(12) 0.967065(16) 0.092548(17)
Co18 Co 0.850420(12) 0.904624(19) 0.369082(18)
H91 H 0.817038 0.959831 0.101498
H92 H 0.804003 0.931292 0.0665217
H97 H 0.641628 0.973135 0.0885099
H98 H 0.665238 0.940538 0.10171
H109 H 0.737097 0.901024 0.0936527
H110 H 0.742847 0.910784 0.0472623
C85_2 C 0.71789(13) 0.00882(14) 0.52825(16)
O56_2 O 0.69841(8) 0.01588(11) 0.55115(10)
O61_2 O 0.74563(6) 0.01446(9) 0.53565(9)
Co16_2 Co 0.761033(12) 0.032935(16) 0.592548(17)
C4_2 C 0.28211(13) 0.00882(14) 0.97175(16)
O16_2 O 0.30159(8) 0.01588(11) 0.94885(10)
O19_2 O 0.25437(6) 0.01446(9) 0.96435(9)
Co14_2 Co 0.238967(12) 0.032935(16) 0.907452(17)
C1_2 C 0.47644(9) 0.71533(13) 0.18217(16)
C2_2 C 0.29102(9) 0.99206(13) 0.01449(14)
C3_2 C 0.45676(9) 0.66523(13) 0.13427(12)
H1_2 H 0.4705 0.6726 0.1165
C5_2 C 0.45528(8) 0.68363(12) 0.17153(13)
C6_2 C 0.43435(9) 0.67377(12) 0.19786(13)
H2_2 H 0.4332 0.6865 0.2221
C7_2 C 0.41490(8) 0.64390(12) 0.18682(13)
H3_2 H 0.4009 0.6368 0.2042
C8_2 C 0.43771(9) 0.63625(14) 0.12444(14)
H4_2 H 0.4387 0.6236 0.1001
C9_2 C 0.41628(8) 0.62539(12) 0.15139(13)
C10_2 C 0.39671(8) 0.59296(13) 0.14067(13)
C11_2 C 0.38587(8) 0.58703(12) 0.09969(12)
H5_2 H 0.3914 0.6027 0.0794
C12_2 C 0.36638(8) 0.55661(12) 0.09031(13)
C13_2 C 0.35917(8) 0.53375(13) 0.12100(13)
H6_2 H 0.3465 0.5138 0.1149
C14_2 C 0.37025(8) 0.53952(12) 0.16166(13)
C15_2 C 0.38875(8) 0.56896(12) 0.17062(12)
H7_2 H 0.3961 0.5730 0.1973
C16_2 C 0.36084(8) 0.51447(12) 0.19408(13)
C17_2 C 0.33309(9) 0.50195(14) 0.19387(14)
H8_2 H 0.3197 0.5072 0.1718
C18_2 C 0.38149(9) 0.50432(14) 0.22622(14)
H9_2 H 0.4012 0.5112 0.2257
C19_2 C 0.32379(9) 0.48151(15) 0.22557(14)
H10_2 H 0.3042 0.4737 0.2250
C20_2 C 0.37270(9) 0.48430(14) 0.25849(14)
H11_2 H 0.3864 0.4787 0.2801
C21_2 C 0.34410(9) 0.47247(14) 0.25907(13)
C22_2 C 0.33347(12) 0.45340(16) 0.29453(15)
C23_2 C 0.35359(9) 0.55129(13) 0.04883(14)
C24_2 C 0.36995(10) 0.55937(14) 0.01661(16)
H12_2 H 0.3892 0.5680 0.0222
C26_2 C 0.32569(9) 0.53827(12) 0.04078(14)
H14_2 H 0.3143 0.5325 0.0619
C28_3 C 0.31372(10) 0.53336(13) -0.00001(15)
C30_2 C 0.55549(10) 0.75339(14) 0.19730(14)
C31_2 C 0.58159(8) 0.74415(13) 0.22646(14)
C32_2 C 0.60175(8) 0.71707(13) 0.21711(14)
H16_2 H 0.5985 0.7032 0.1935
C33_2 C 0.62715(9) 0.71087(13) 0.24362(15)
H17_2 H 0.6401 0.6916 0.2388
C34_2 C 0.58641(8) 0.76555(13) 0.25998(13)
H18_2 H 0.5725 0.7832 0.2662
C35_2 C 0.61300(9) 0.76064(13) 0.28557(14)
H19_2 H 0.6169 0.7758 0.3081
C36_2 C 0.63277(8) 0.73384(13) 0.27714(14)
C37_2 C 0.66182(8) 0.72916(13) 0.30268(13)
C38_2 C 0.67836(9) 0.76099(13) 0.31317(16)
H20_2 H 0.6709 0.7844 0.3059
C39_2 C 0.70644(8) 0.75754(14) 0.33486(16)
C40_2 C 0.67199(8) 0.69447(13) 0.31447(14)
H21_2 H 0.6605 0.6735 0.3079
C41_2 C 0.71479(9) 0.82540(14) 0.34990(14)
H22_2 H 0.6946 0.8281 0.3520
C42_2 C 0.75600(9) 0.78773(13) 0.33858(17)
H23_2 H 0.7638 0.7645 0.3331
C43_2 C 0.72554(9) 0.79166(14) 0.34205(15)
C44_2 C 0.73296(9) 0.85634(13) 0.35492(14)
H24_2 H 0.7249 0.8794 0.3605
C45_2 C 0.77425(10) 0.81842(14) 0.34339(16)
H25_2 H 0.7944 0.8159 0.3411
C46_2 C 0.69994(9) 0.69061(13) 0.33671(15)
C47_2 C 0.71612(9) 0.72291(12) 0.34678(15)
H26_2 H 0.7342 0.7207 0.3622
C48_2 C 0.71112(9) 0.65381(13) 0.34939(16)
C49_2 C 0.74211(9) 0.64720(14) 0.35363(16)
H27_2 H 0.7551 0.6662 0.3483
C50_2 C 0.69301(9) 0.62383(14) 0.35702(15)
H28_2 H 0.6726 0.6271 0.3543
C51_2 C 0.70423(9) 0.58985(13) 0.36840(15)
H29_2 H 0.6913 0.5704 0.3727
C52_2 C 0.73455(9) 0.58369(13) 0.37378(15)
C53_2 C 0.75307(9) 0.61253(13) 0.36568(17)
H30_2 H 0.7734 0.6087 0.3683
C54_2 C 0.74706(9) 0.54635(13) 0.38632(13)
C55_2 C 0.43924(8) 0.83715(13) 0.17404(15)
C56_2 C 0.46758(9) 0.81506(14) 0.17910(16)
C57_2 C 0.42122(9) 0.83586(15) 0.13769(14)
H31_2 H 0.4267 0.8217 0.1161
C58_2 C 0.39497(9) 0.85606(15) 0.13415(15)
H32_2 H 0.3837 0.8562 0.1094
C59_2 C 0.40331(9) 0.87709(14) 0.20332(14)
H33_2 H 0.3977 0.8915 0.2247
C60_2 C 0.38509(8) 0.87568(13) 0.16566(13)
C61_2 C 0.35750(9) 0.89808(13) 0.16284(14)
C62_2 C 0.34713(9) 0.91593(14) 0.12652(14)
H34_2 H 0.3572 0.9130 0.1035
C63_2 C 0.32199(10) 0.93769(13) 0.12509(14)
C64_2 C 0.31116(10) 0.95750(13) 0.08646(14)
C65_2 C 0.33014(11) 0.96646(15) 0.05826(16)
H35_2 H 0.3501 0.9613 0.0643
C66_2 C 0.28139(9) 0.96613(12) 0.07825(13)
H36_2 H 0.2678 0.9603 0.0967
C67_2 C 0.27228(9) 0.98386(13) 0.04167(13)
H37_2 H 0.2524 0.9901 0.0363
C68_2 C 0.32158(9) 0.98288(14) 0.02072(14)
H38_2 H 0.3348 0.9874 0.0014
C69_2 C 0.34184(9) 0.90205(13) 0.19582(14)
H39_2 H 0.3481 0.8893 0.2194
C70_2 C 0.30719(10) 0.94227(13) 0.15885(15)
H40_2 H 0.2905 0.9574 0.1574
C71_2 C 0.31639(9) 0.92488(12) 0.19558(12)
C72_2 C 0.30138(9) 0.92956(13) 0.23231(13)
C73_2 C 0.27070(9) 0.93224(13) 0.23207(14)
H41_2 H 0.2590 0.9297 0.2078
C74_2 C 0.25767(9) 0.93854(13) 0.26702(14)
H42_2 H 0.2372 0.9397 0.2663
C75_2 C 0.27433(9) 0.94330(13) 0.30342(13)
C76_2 C 0.30416(9) 0.94060(13) 0.30387(13)
H43_2 H 0.3155 0.9433 0.3284
C77_2 C 0.31813(10) 0.93407(14) 0.26992(15)
H44_2 H 0.3386 0.9326 0.2714
C78_2 C 0.42927(9) 0.85670(13) 0.20726(15)
H45_2 H 0.4403 0.8558 0.2322
C79_2 C 0.78278(10) 0.88678(16) 0.35541(14)
C80_2 C 0.76244(9) 0.85328(13) 0.35169(14)
C81_2 C 0.26005(11) 0.95261(14) 0.34013(14)
O1_2 O 0.49165(7) 0.72536(9) 0.15449(10)
O2_2 O 0.47664(5) 0.72923(8) 0.21705(9)
O3_2 O 0.47750(6) 0.80366(10) 0.14817(10)
O4_2 O 0.47840(5) 0.81110(8) 0.21569(8)
O5_2 O 0.53377(5) 0.77192(8) 0.20863(8)
O6_2 O 0.55604(5) 0.74376(9) 0.16070(10)
O7_2 O 0.77408(6) 0.54394(8) 0.39409(10)
O8_2 O 0.72906(6) 0.51991(8) 0.38881(8)
O11_2 O 0.35321(6) 0.43761(9) 0.31925(9)
O12_2 O 0.30640(6) 0.45415(11) 0.30006(9)
O13_2 O 0.77108(6) 0.91802(9) 0.36006(8)
O14_2 O 0.80963(7) 0.88028(9) 0.35405(9)
O18_2 O 0.84186(7) 0.46575(11) 0.39152(11)
O21_2 O 0.69717(6) 0.45703(9) 0.42278(11)
O23_2 O 0.83671(7) 0.54695(15) 0.42029(14)
O25_2 O 0.74853(8) 0.41154(9) 0.42422(10)
O26_2 O 0.50954(7) 0.76602(12) 0.08397(10)
O27_2 O 0.54003(8) 0.82143(12) 0.13603(12)
O29_2 O 0.81471(8) 0.52311(12) 0.33606(12)
Co1_3 Co 0.5000 0.76941(2) 0.2500
Co5_2 Co 0.515023(11) 0.773346(18) 0.146606(17)
C82_2 C 0.52356(9) 0.71533(13) 0.31783(16)
C83_2 C 0.70898(9) 0.99206(13) 0.48551(14)
C84_2 C 0.54324(9) 0.66523(13) 0.36573(12)
H46_2 H 0.5295 0.6726 0.3835
C86_2 C 0.54472(8) 0.68363(12) 0.32847(13)
C87_2 C 0.56565(9) 0.67377(12) 0.30214(13)
H47_2 H 0.5668 0.6865 0.2779
C88_2 C 0.58510(8) 0.64390(12) 0.31318(13)
H48_2 H 0.5991 0.6368 0.2958
C89_2 C 0.56229(9) 0.63625(14) 0.37556(14)
H49_2 H 0.5613 0.6236 0.3999
C90_2 C 0.58372(8) 0.62539(12) 0.34861(13)
C91_2 C 0.60329(8) 0.59296(13) 0.35933(13)
C92_2 C 0.61413(8) 0.58703(12) 0.40031(12)
H50_2 H 0.6086 0.6027 0.4206
C93_2 C 0.63362(8) 0.55661(12) 0.40969(13)
C94_2 C 0.64083(8) 0.53375(13) 0.37900(13)
H51_2 H 0.6535 0.5138 0.3851
C95_2 C 0.62975(8) 0.53952(12) 0.33834(13)
C96_2 C 0.61125(8) 0.56896(12) 0.32938(12)
H52_2 H 0.6039 0.5730 0.3027
C97_2 C 0.63916(8) 0.51447(12) 0.30592(13)
C98_2 C 0.66691(9) 0.50195(14) 0.30613(14)
H53_2 H 0.6803 0.5072 0.3282
C99_2 C 0.61851(9) 0.50432(14) 0.27378(14)
H54_2 H 0.5988 0.5112 0.2743
C100_2 C 0.67621(9) 0.48151(15) 0.27443(14)
H55_2 H 0.6958 0.4737 0.2750
C101_2 C 0.62730(9) 0.48430(14) 0.24151(14)
H56_2 H 0.6136 0.4787 0.2199
C102_2 C 0.65590(9) 0.47247(14) 0.24093(13)
C103_2 C 0.66653(12) 0.45340(16) 0.20547(15)
C104_2 C 0.64641(9) 0.55129(13) 0.45117(14)
C105_2 C 0.63005(10) 0.55937(14) 0.48339(16)
H57_2 H 0.6108 0.5680 0.4778
C106_2 C 0.64095(9) 0.55529(14) 0.52407(13)
H58_2 H 0.6295 0.5608 0.5452
C107_2 C 0.67431(9) 0.53827(12) 0.45922(14)
H59_2 H 0.6857 0.5325 0.4381
C108_2 C 0.67068(9) 0.54211(13) 0.53113(15)
C109_2 C 0.68628(10) 0.53336(13) 0.50001(15)
H60_2 H 0.7053 0.5239 0.5051
C110_2 C 0.68352(11) 0.53927(14) 0.57439(16)
C111_2 C 0.44451(10) 0.75339(14) 0.30270(14)
C112_2 C 0.41841(8) 0.74415(13) 0.27354(14)
C113_2 C 0.39825(8) 0.71707(13) 0.28289(14)
H61_2 H 0.4015 0.7032 0.3065
C114_2 C 0.37285(9) 0.71087(13) 0.25638(15)
H62_2 H 0.3599 0.6916 0.2612
C115_2 C 0.41359(8) 0.76555(13) 0.24002(13)
H63_2 H 0.4275 0.7832 0.2338
C116_2 C 0.38700(9) 0.76064(13) 0.21443(14)
H64_2 H 0.3831 0.7758 0.1919
C117_2 C 0.36723(8) 0.73384(13) 0.22286(14)
C118_2 C 0.33818(8) 0.72916(13) 0.19732(13)
C119_2 C 0.32164(9) 0.76099(13) 0.18683(16)
H65_2 H 0.3291 0.7844 0.1941
C120_2 C 0.29356(8) 0.75754(14) 0.16514(16)
C121_2 C 0.32801(8) 0.69447(13) 0.18553(14)
H66_2 H 0.3395 0.6735 0.1921
C122_2 C 0.28521(9) 0.82540(14) 0.15010(14)
H67_2 H 0.3054 0.8281 0.1480
C123_2 C 0.24400(9) 0.78773(13) 0.16142(17)
H68_2 H 0.2362 0.7645 0.1669
C124_2 C 0.27446(9) 0.79166(14) 0.15795(15)
C125_2 C 0.26704(9) 0.85634(13) 0.14508(14)
H69_2 H 0.2751 0.8794 0.1395
C126_2 C 0.22575(10) 0.81842(14) 0.15661(16)
H70_2 H 0.2056 0.8159 0.1589
C127_2 C 0.30006(9) 0.69061(13) 0.16329(15)
C128_2 C 0.28388(9) 0.72291(12) 0.15322(15)
H71_2 H 0.2658 0.7207 0.1378
C129_2 C 0.28888(9) 0.65381(13) 0.15061(16)
C130_2 C 0.25789(9) 0.64720(14) 0.14637(16)
H72_2 H 0.2449 0.6662 0.1517
C131_2 C 0.30699(9) 0.62383(14) 0.14298(15)
H73_2 H 0.3274 0.6271 0.1457
C132_2 C 0.29577(9) 0.58985(13) 0.13160(15)
H74_2 H 0.3087 0.5704 0.1273
C133_2 C 0.26545(9) 0.58369(13) 0.12622(15)
C134_2 C 0.24693(9) 0.61253(13) 0.13432(17)
H75_2 H 0.2266 0.6087 0.1317
C135_2 C 0.25294(9) 0.54635(13) 0.11368(13)
C136_2 C 0.56076(8) 0.83715(13) 0.32596(15)
C137_2 C 0.53242(9) 0.81506(14) 0.32090(16)
C138_2 C 0.57878(9) 0.83586(15) 0.36231(14)
H76_2 H 0.5733 0.8217 0.3839
C139_2 C 0.60503(9) 0.85606(15) 0.36585(15)
H77_2 H 0.6163 0.8562 0.3906
C140_2 C 0.59669(9) 0.87709(14) 0.29668(14)
H78_2 H 0.6023 0.8915 0.2753
C141_2 C 0.61491(8) 0.87568(13) 0.33434(13)
C142_2 C 0.64250(9) 0.89808(13) 0.33716(14)
C143_2 C 0.65287(9) 0.91593(14) 0.37348(14)
H79_2 H 0.6428 0.9130 0.3965
C144_2 C 0.67801(10) 0.93769(13) 0.37491(14)
C145_2 C 0.68884(10) 0.95750(13) 0.41354(14)
C146_2 C 0.66986(11) 0.96646(15) 0.44174(16)
H80_2 H 0.6499 0.9613 0.4357
C147_2 C 0.71861(9) 0.96613(12) 0.42175(13)
H81_2 H 0.7322 0.9603 0.4033
C148_2 C 0.72772(9) 0.98386(13) 0.45833(13)
H82_2 H 0.7476 0.9901 0.4637
C149_2 C 0.67842(9) 0.98288(14) 0.47928(14)
H83_2 H 0.6652 0.9874 0.4986
C150_2 C 0.65816(9) 0.90205(13) 0.30418(14)
H84_2 H 0.6519 0.8893 0.2806
C151_2 C 0.69281(10) 0.94227(13) 0.34115(15)
H85_2 H 0.7095 0.9574 0.3426
C152_2 C 0.68361(9) 0.92488(12) 0.30442(12)
C153_2 C 0.69862(9) 0.92956(13) 0.26769(13)
C154_2 C 0.72930(9) 0.93224(13) 0.26793(14)
H86_2 H 0.7410 0.9297 0.2922
C155_2 C 0.74233(9) 0.93854(13) 0.23298(14)
H87_2 H 0.7628 0.9397 0.2337
C156_2 C 0.72567(9) 0.94330(13) 0.19658(13)
C157_2 C 0.69584(9) 0.94060(13) 0.19613(13)
H88_2 H 0.6845 0.9433 0.1716
C158_2 C 0.68187(10) 0.93407(14) 0.23008(15)
H89_2 H 0.6614 0.9326 0.2286
C159_2 C 0.57073(9) 0.85670(13) 0.29274(15)
H90_2 H 0.5597 0.8558 0.2678
C160_2 C 0.21722(10) 0.88678(16) 0.14459(14)
C161_2 C 0.23756(9) 0.85328(13) 0.14831(14)
C162_2 C 0.73995(11) 0.95261(14) 0.15987(14)
O31_2 O 0.50835(7) 0.72536(9) 0.34551(10)
O32_2 O 0.52336(5) 0.72923(8) 0.28295(9)
O33_2 O 0.52250(6) 0.80366(10) 0.35183(10)
O34_2 O 0.52160(5) 0.81110(8) 0.28431(8)
O35_2 O 0.46623(5) 0.77192(8) 0.29137(8)
O36_2 O 0.44396(5) 0.74376(9) 0.33930(10)
O37_2 O 0.22592(6) 0.54394(8) 0.10591(10)
O38_2 O 0.27094(6) 0.51991(8) 0.11119(8)
O39_2 O 0.70839(7) 0.52330(9) 0.58076(8)
O40_2 O 0.67032(7) 0.55015(10) 0.60323(10)
O41_2 O 0.64679(6) 0.43761(9) 0.18075(9)
O43_2 O 0.64679(6) 0.56239(9) 0.68075(9)
O44_2 O 0.69360(6) 0.45415(11) 0.19994(9)
O46_2 O 0.69360(6) 0.54585(11) 0.69994(9)
O47_2 O 0.22892(6) 0.91802(9) 0.13994(8)
O49_2 O 0.72892(6) 0.58198(9) 0.63994(8)
O50_2 O 0.19037(7) 0.88028(9) 0.14595(9)
O52_2 O 0.69037(7) 0.61972(9) 0.64595(9)
O57_2 O 0.80159(8) 0.48412(11) 0.44885(10)
O58_2 O 0.19841(8) 0.48412(11) 0.05115(10)
O59_2 O 0.74405(7) 0.50353(9) 0.66794(12)
O60_2 O 0.15814(7) 0.46575(11) 0.10848(11)
O62_2 O 0.75437(6) 0.48554(9) 0.46435(9)
O63_2 O 0.24563(6) 0.48554(9) 0.03565(9)
O64_2 O 0.60724(7) 0.57335(11) 0.61119(10)
O65_2 O 0.30283(6) 0.45703(9) 0.07722(11)
O66_2 O 0.64790(8) 0.62874(12) 0.57854(11)
O67_2 O 0.16329(7) 0.54695(15) 0.07971(14)
O71_2 O 0.25147(8) 0.41154(9) 0.07578(10)
O72_2 O 0.49046(7) 0.76602(12) 0.41603(10)
O73_2 O 0.45997(8) 0.82143(12) 0.36397(12)
O74_2 O 0.62933(7) 0.63831(11) 0.66204(12)
O75_2 O 0.18529(8) 0.52311(12) 0.16394(12)
O76_2 O 0.68592(18) 0.48211(16) 0.65133(15)
Co7_2 Co 0.707184(13) 0.533222(17) 0.644361(18)
Co17_2 Co 0.649580(12) 0.595376(19) 0.630918(18)
Co22_2 Co 0.484977(11) 0.773346(18) 0.353394(17)
Co26_2 Co 0.692765(12) 0.996029(18) 0.606832(19)
H91_2 H 0.317038 0.459831 0.101498
H92_2 H 0.304003 0.431292 0.0665217
H93_2 H 0.170262 0.55486 0.0534717
H94_2 H 0.14292 0.536818 0.0751428
H95_2 H 0.636102 0.61588 0.556102
H96_2 H 0.638527 0.653 0.584025
H97_2 H 0.141628 0.473135 0.0885099
H98_2 H 0.165238 0.440538 0.10171
H99_2 H 0.762036 0.513634 0.656808
H100_2 H 0.746037 0.505914 0.697862
H101_2 H 0.605159 0.548091 0.622799
H102_2 H 0.591607 0.589898 0.620363
H103_2 H 0.511881 0.765825 0.42512
H104_2 H 0.480658 0.786763 0.429489
H105_2 H 0.643441 0.647834 0.684175
H106_2 H 0.623571 0.658879 0.642965
H107_2 H 0.179675 0.549834 0.162348
H108_2 H 0.169035 0.508524 0.174518
H109_2 H 0.237097 0.401024 0.0936527
H110_2 H 0.242847 0.410784 0.0472623
H111_2 H 0.698685 0.461582 0.642846
H112_2 H 0.682167 0.478684 0.68014
H113_2 H 0.465451 0.830708 0.391794
H114_2 H 0.464119 0.841014 0.344097
H115_2 H 0.762903 0.401024 0.406347
H116_2 H 0.757153 0.410784 0.452738
H117_2 H 0.534549 0.830708 0.108206
H118_2 H 0.535881 0.841014 0.155903
H121_2 H 0.829738 0.55486 0.446528
H122_2 H 0.85708 0.536818 0.424857
H123_2 H 0.820325 0.549834 0.337652
H124_2 H 0.830965 0.508524 0.325482
H131_2 H 0.488119 0.765825 0.0748799
H132_2 H 0.519342 0.786763 0.0705106
H133_2 H 0.682962 0.459831 0.398502
H134_2 H 0.695997 0.431292 0.433478
H135_2 H 0.858372 0.473135 0.41149
H136_2 H 0.834762 0.440538 0.39829
C25_2 C 0.35905(9) 0.55529(14) 0.97593(13)
H13_2 H 0.3705 0.5608 0.9548
C27_2 C 0.32932(9) 0.54211(13) 0.96887(15)
C28_4 C 0.31372(10) 0.53336(13) 0.99999(15)
H15_2 H 0.2947 0.5239 0.9949
C29_2 C 0.31648(11) 0.53927(14) 0.92561(16)
O9_2 O 0.29161(7) 0.52330(9) 0.91924(8)
O10_2 O 0.32968(7) 0.55015(10) 0.89677(10)
O17_2 O 0.25595(7) 0.50353(9) 0.83206(12)
O20_2 O 0.39276(7) 0.57335(11) 0.88881(10)
O22_2 O 0.35210(8) 0.62874(12) 0.92146(11)
O28_2 O 0.37067(7) 0.63831(11) 0.83796(12)
O30 O 0.31408(18) 0.48211(16) 0.84867(15)
Co2_2 Co 0.292816(13) 0.533222(17) 0.855639(18)
Co4_2 Co 0.350420(12) 0.595376(19) 0.869082(18)
O42_2 O 0.35321(6) 0.56239(9) 0.81925(9)
O45_2 O 0.30640(6) 0.54585(11) 0.80006(9)
O48_2 O 0.27108(6) 0.58198(9) 0.86006(8)
O51_2 O 0.30963(7) 0.61972(9) 0.85405(9)
Co24_2 Co 0.307235(12) 0.996029(18) 0.893168(19)
H119_2 H 0.363898 0.61588 0.943898
H120_2 H 0.361473 0.653 0.915975
H125 H 0.301315 0.461582 0.857154
H126 H 0.317833 0.478684 0.81986
H127_2 H 0.237964 0.513634 0.843192
H128_2 H 0.253963 0.505914 0.802138
H129_2 H 0.394841 0.548091 0.877201
H130_2 H 0.408393 0.589898 0.879637
H137_2 H 0.356559 0.647834 0.815825
H138_2 H 0.376429 0.658879 0.857035
C19_3 C 0.17621(9) 0.01849(15) 0.77443(14)
H10_3 H 0.1958 0.0263 0.7750
C20_3 C 0.12730(9) 0.01570(14) 0.74151(14)
H11_3 H 0.1136 0.0213 0.7199
C21_3 C 0.15590(9) 0.02753(14) 0.74093(13)
C22_3 C 0.16653(12) 0.04660(16) 0.70547(15)
O55_2 O 0.23266(6) 0.05135(8) 0.84276(8)
O60_3 O 0.34186(7) 0.03425(11) 0.89152(11)
O65_3 O 0.19717(6) 0.04297(9) 0.92278(11)
O70_2 O 0.27646(6) 0.03586(8) 0.87227(8)
O71_3 O 0.24853(8) 0.08846(9) 0.92422(10)
H91_3 H 0.182962 0.0401693 0.898502
H92_3 H 0.195997 0.0687078 0.933478
H97_3 H 0.358372 0.0268654 0.91149
H98_3 H 0.334762 0.0594622 0.89829
H109_3 H 0.262903 0.0989755 0.906347
H110_3 H 0.257153 0.089216 0.952738
C4_3 C 0.21789(13) 0.49118(14) 0.02825(16)
C25_3 C 0.14095(9) 0.94471(14) 0.02407(13)
H13_3 H 0.1295 0.9392 0.0452
C27_3 C 0.17068(9) 0.95789(13) 0.03113(15)
C28_5 C 0.18628(10) 0.96664(13) 0.00001(15)
H15_3 H 0.2053 0.9761 0.0051
C29_3 C 0.18352(11) 0.96073(14) 0.07439(16)
O9_3 O 0.20839(7) 0.97670(9) 0.08076(8)
O10_3 O 0.17032(7) 0.94985(10) 0.10323(10)
O17_3 O 0.24405(7) 0.99647(9) 0.16794(12)
O20_3 O 0.10724(7) 0.92665(11) 0.11119(10)
O22_3 O 0.14790(8) 0.87126(12) 0.07854(11)
O28_3 O 0.12933(7) 0.86169(11) 0.16204(12)
H119_3 H 0.136102 0.88412 0.056102
H120_3 H 0.138527 0.847 0.084025
H127_3 H 0.262036 0.986366 0.156808
H128_3 H 0.246037 0.994086 0.197862
H129_3 H 0.105159 0.951909 0.122799
H130_3 H 0.0916072 0.910102 0.120363
H137_3 H 0.143441 0.852166 0.184175
H138_3 H 0.123571 0.841121 0.142965
C1_3 C 0.02356(9) 0.78467(13) 0.81783(16)
C2_3 C 0.20898(9) 0.50794(13) 0.98551(14)
C3_3 C 0.04324(9) 0.83477(13) 0.86573(12)
H1_3 H 0.0295 0.8274 0.8835
C5_3 C 0.04472(8) 0.81637(12) 0.82847(13)
C6_3 C 0.06565(9) 0.82623(12) 0.80214(13)
H2_3 H 0.0668 0.8135 0.7779
C7_3 C 0.08510(8) 0.85610(12) 0.81318(13)
H3_3 H 0.0991 0.8632 0.7958
C8_3 C 0.06229(9) 0.86375(14) 0.87556(14)
H4_3 H 0.0613 0.8764 0.8999
C9_3 C 0.08372(8) 0.87461(12) 0.84861(13)
C10_3 C 0.10329(8) 0.90704(13) 0.85933(13)
C11_3 C 0.11413(8) 0.91297(12) 0.90031(12)
H5_3 H 0.1086 0.8973 0.9206
C12_3 C 0.13362(8) 0.94339(12) 0.90969(13)
C13_3 C 0.14083(8) 0.96625(13) 0.87900(13)
H6_3 H 0.1535 0.9862 0.8851
C14_3 C 0.12975(8) 0.96048(12) 0.83834(13)
C15_3 C 0.11125(8) 0.93104(12) 0.82938(12)
H7_3 H 0.1039 0.9270 0.8027
C16_3 C 0.13916(8) 0.98553(12) 0.80592(13)
C17_3 C 0.16691(9) 0.99805(14) 0.80613(14)
H8_3 H 0.1803 0.9928 0.8282
C18_3 C 0.11851(9) 0.99568(14) 0.77378(14)
H9_3 H 0.0988 0.9888 0.7743
C23_3 C 0.14641(9) 0.94871(13) 0.95117(14)
C24_3 C 0.13005(10) 0.94063(14) 0.98339(16)
H12_3 H 0.1108 0.9320 0.9778
C26_3 C 0.17431(9) 0.96173(12) 0.95922(14)
H14_3 H 0.1857 0.9675 0.9381
C28_6 C 0.18628(10) 0.96664(13) 1.00001(15)
C55_3 C 0.06076(8) 0.66285(13) 0.82596(15)
C56_3 C 0.03242(9) 0.68494(14) 0.82090(16)
C57_3 C 0.07878(9) 0.66414(15) 0.86231(14)
H31_3 H 0.0733 0.6783 0.8839
C58_3 C 0.10503(9) 0.64394(15) 0.86585(15)
H32_3 H 0.1163 0.6438 0.8906
C59_3 C 0.09669(9) 0.62291(14) 0.79668(14)
H33_3 H 0.1023 0.6085 0.7753
C60_3 C 0.11491(8) 0.62432(13) 0.83434(13)
C61_3 C 0.14250(9) 0.60192(13) 0.83716(14)
C62_3 C 0.15287(9) 0.58407(14) 0.87348(14)
H34_3 H 0.1428 0.5870 0.8965
C63_3 C 0.17801(10) 0.56231(13) 0.87491(14)
C64_3 C 0.18884(10) 0.54250(13) 0.91354(14)
C65_3 C 0.16986(11) 0.53354(15) 0.94174(16)
H35_3 H 0.1499 0.5387 0.9357
C66_3 C 0.21861(9) 0.53387(12) 0.92175(13)
H36_3 H 0.2322 0.5397 0.9033
C67_3 C 0.22772(9) 0.51614(13) 0.95833(13)
H37_3 H 0.2476 0.5099 0.9637
C68_3 C 0.17842(9) 0.51712(14) 0.97928(14)
H38_3 H 0.1652 0.5126 0.9986
C69_3 C 0.15816(9) 0.59795(13) 0.80418(14)
H39_3 H 0.1519 0.6107 0.7806
C70_3 C 0.19281(10) 0.55773(13) 0.84115(15)
H40_3 H 0.2095 0.5426 0.8426
C71_3 C 0.18361(9) 0.57512(12) 0.80442(12)
C72_3 C 0.19862(9) 0.57044(13) 0.76769(13)
C73_3 C 0.22930(9) 0.56776(13) 0.76793(14)
H41_3 H 0.2410 0.5703 0.7922
C74_3 C 0.24233(9) 0.56146(13) 0.73298(14)
H42_3 H 0.2628 0.5603 0.7337
C75_3 C 0.22567(9) 0.55670(13) 0.69658(13)
C76_3 C 0.19584(9) 0.55940(13) 0.69613(13)
H43_3 H 0.1845 0.5567 0.6716
C77_3 C 0.18187(10) 0.56593(14) 0.73008(15)
H44_3 H 0.1614 0.5674 0.7286
C78_3 C 0.07073(9) 0.64330(13) 0.79274(15)
H45_3 H 0.0597 0.6442 0.7678
C81_3 C 0.23995(11) 0.54739(14) 0.65987(14)
O1_3 O 0.00835(7) 0.77464(9) 0.84551(10)
O2_3 O 0.02336(5) 0.77077(8) 0.78295(9)
O3_3 O 0.02250(6) 0.69634(10) 0.85183(10)
O4_3 O 0.02160(5) 0.68890(8) 0.78431(8)
O15_2 O 0.26734(6) 0.55135(8) 0.65724(8)
O24_2 O 0.22354(6) 0.53586(8) 0.62773(8)
Co1_4 Co 0.0000 0.73059(2) 0.7500
C111_3 C 0.05549(10) 0.74661(14) 0.69730(14)
C112_3 C 0.08159(8) 0.75585(13) 0.72646(14)
C113_3 C 0.10175(8) 0.78293(13) 0.71711(14)
H61_3 H 0.0985 0.7968 0.6935
C114_3 C 0.12715(9) 0.78913(13) 0.74362(15)
H62_3 H 0.1401 0.8084 0.7388
C115_3 C 0.08641(8) 0.73445(13) 0.75998(13)
H63_3 H 0.0725 0.7168 0.7662
C116_3 C 0.11300(9) 0.73936(13) 0.78557(14)
H64_3 H 0.1169 0.7242 0.8081
C117_3 C 0.13277(8) 0.76616(13) 0.77714(14)
C118_3 C 0.16182(8) 0.77084(13) 0.80268(13)
C119_3 C 0.17836(9) 0.73901(13) 0.81317(16)
H65_3 H 0.1709 0.7156 0.8059
C120_3 C 0.20644(8) 0.74246(14) 0.83486(16)
C121_3 C 0.17199(8) 0.80553(13) 0.81447(14)
H66_3 H 0.1605 0.8265 0.8079
C122_3 C 0.21479(9) 0.67460(14) 0.84990(14)
H67_3 H 0.1946 0.6719 0.8520
C123_3 C 0.25600(9) 0.71227(13) 0.83858(17)
H68_3 H 0.2638 0.7355 0.8331
C124_3 C 0.22554(9) 0.70834(14) 0.84205(15)
C125_3 C 0.23296(9) 0.64366(13) 0.85492(14)
H69_3 H 0.2249 0.6206 0.8605
C126_3 C 0.27425(10) 0.68158(14) 0.84339(16)
H70_3 H 0.2944 0.6841 0.8411
C127_3 C 0.19994(9) 0.80939(13) 0.83671(15)
C128_3 C 0.21612(9) 0.77709(12) 0.84678(15)
H71_3 H 0.2342 0.7793 0.8622
C129_3 C 0.21112(9) 0.84619(13) 0.84939(16)
C130_3 C 0.24211(9) 0.85280(14) 0.85363(16)
H72_3 H 0.2551 0.8338 0.8483
C131_3 C 0.19301(9) 0.87617(14) 0.85702(15)
H73_3 H 0.1726 0.8729 0.8543
C132_3 C 0.20423(9) 0.91015(13) 0.86840(15)
H74_3 H 0.1913 0.9296 0.8727
C133_3 C 0.23455(9) 0.91631(13) 0.87378(15)
C134_3 C 0.25307(9) 0.88747(13) 0.86568(17)
H75_3 H 0.2734 0.8913 0.8683
C135_3 C 0.24706(9) 0.95365(13) 0.88632(13)
C160_3 C 0.28278(10) 0.61322(16) 0.85541(14)
C161_3 C 0.26244(9) 0.64672(13) 0.85169(14)
O35_3 O 0.03377(5) 0.72808(8) 0.70863(8)
O36_3 O 0.05604(5) 0.75624(9) 0.66070(10)
O37_3 O 0.27408(6) 0.95606(8) 0.89409(10)
O38_3 O 0.22906(6) 0.98009(8) 0.88881(8)
O67_3 O 0.33671(7) 0.95305(15) 0.92029(14)
O72_3 O 0.00954(7) 0.73398(12) 0.58397(10)
O73_3 O 0.04003(8) 0.67857(12) 0.63603(12)
O75_3 O 0.31471(8) 0.97689(12) 0.83606(12)
Co22_3 Co 0.015023(11) 0.726654(18) 0.646606(17)
H93_3 H 0.329738 0.94514 0.946528
H94_3 H 0.35708 0.963182 0.924857
H104_3 H 0.0193419 0.713237 0.570511
H107_3 H 0.320325 0.950166 0.837652
H108_3 H 0.330965 0.991476 0.825482
H113_3 H 0.0345493 0.669292 0.608206
H114_3 H 0.0358808 0.658986 0.655903
H131_3 H 0.0118811 0.734175 0.92512
O18_3 O 0.65814(7) 0.03425(11) 0.60848(11)
O21_3 O 0.80283(6) 0.04297(9) 0.57722(11)
O25_3 O 0.75147(8) 0.08846(9) 0.57578(10)
C100_3 C 0.82379(9) 0.01849(15) 0.72557(14)
H55_3 H 0.8042 0.0263 0.7250
C101_3 C 0.87270(9) 0.01570(14) 0.75849(14)
H56_3 H 0.8864 0.0213 0.7801
C102_3 C 0.84410(9) 0.02753(14) 0.75907(13)
C103_3 C 0.83347(12) 0.04660(16) 0.79453(15)
O54_2 O 0.76734(6) 0.05135(8) 0.65724(8)
O69_2 O 0.72354(6) 0.03586(8) 0.62773(8)
O76_3 O 0.81408(18) 0.01789(16) 0.34867(15)
H111_3 H 0.801315 0.0384178 0.357154
H112_3 H 0.817833 0.0213164 0.31986
H115_3 H 0.737097 0.0989755 0.593653
H116_3 H 0.742847 0.089216 0.547262
H133_3 H 0.817038 0.0401693 0.601498
H134_3 H 0.804003 0.0687078 0.566522
H135_3 H 0.641628 0.0268654 0.58851
H136_3 H 0.665238 0.0594622 0.60171
C30_3 C 0.94451(10) 0.74661(14) 0.80270(14)
C31_3 C 0.91841(8) 0.75585(13) 0.77354(14)
C32_3 C 0.89825(8) 0.78293(13) 0.78289(14)
H16_3 H 0.9015 0.7968 0.8065
C33_3 C 0.87285(9) 0.78913(13) 0.75638(15)
H17_3 H 0.8599 0.8084 0.7612
C34_3 C 0.91359(8) 0.73445(13) 0.74002(13)
H18_3 H 0.9275 0.7168 0.7338
C35_3 C 0.88700(9) 0.73936(13) 0.71443(14)
H19_3 H 0.8831 0.7242 0.6919
C36_3 C 0.86723(8) 0.76616(13) 0.72286(14)
C37_3 C 0.83818(8) 0.77084(13) 0.69732(13)
C38_3 C 0.82164(9) 0.73901(13) 0.68683(16)
H20_3 H 0.8291 0.7156 0.6941
C39_3 C 0.79356(8) 0.74246(14) 0.66514(16)
C40_3 C 0.82801(8) 0.80553(13) 0.68553(14)
H21_3 H 0.8395 0.8265 0.6921
C41_3 C 0.78521(9) 0.67460(14) 0.65010(14)
H22_3 H 0.8054 0.6719 0.6480
C42_3 C 0.74400(9) 0.71227(13) 0.66142(17)
H23_3 H 0.7362 0.7355 0.6669
C43_3 C 0.77446(9) 0.70834(14) 0.65795(15)
C44_3 C 0.76704(9) 0.64366(13) 0.64508(14)
H24_3 H 0.7751 0.6206 0.6395
C45_3 C 0.72575(10) 0.68158(14) 0.65661(16)
H25_3 H 0.7056 0.6841 0.6589
C46_3 C 0.80006(9) 0.80939(13) 0.66329(15)
C47_3 C 0.78388(9) 0.77709(12) 0.65322(15)
H26_3 H 0.7658 0.7793 0.6378
C48_3 C 0.78888(9) 0.84619(13) 0.65061(16)
C49_3 C 0.75789(9) 0.85280(14) 0.64637(16)
H27_3 H 0.7449 0.8338 0.6517
C50_3 C 0.80699(9) 0.87617(14) 0.64298(15)
H28_3 H 0.8274 0.8729 0.6457
C51_3 C 0.79577(9) 0.91015(13) 0.63160(15)
H29_3 H 0.8087 0.9296 0.6273
C52_3 C 0.76545(9) 0.91631(13) 0.62622(15)
C53_3 C 0.74693(9) 0.88747(13) 0.63432(17)
H30_3 H 0.7266 0.8913 0.6317
C54_3 C 0.75294(9) 0.95365(13) 0.61368(13)
C79_3 C 0.71722(10) 0.61322(16) 0.64459(14)
C80_3 C 0.73756(9) 0.64672(13) 0.64831(14)
O5_3 O 0.96623(5) 0.72808(8) 0.79137(8)
O6_3 O 0.94396(5) 0.75624(9) 0.83930(10)
O7_3 O 0.72592(6) 0.95606(8) 0.60591(10)
O8_3 O 0.77094(6) 0.98009(8) 0.61119(8)
O23_3 O 0.66329(7) 0.95305(15) 0.57971(14)
O26_3 O 0.99046(7) 0.73398(12) 0.91603(10)
O27_3 O 0.95997(8) 0.67857(12) 0.86397(12)
O29_3 O 0.68529(8) 0.97689(12) 0.66394(12)
Co1_5 Co 1.0000 0.73059(2) 0.7500
Co5_3 Co 0.984977(11) 0.726654(18) 0.853394(17)
C82_3 C 0.97644(9) 0.78467(13) 0.68217(16)
C83_3 C 0.79102(9) 0.50794(13) 0.51449(14)
C84_3 C 0.95676(9) 0.83477(13) 0.63427(12)
H46_3 H 0.9705 0.8274 0.6165
C85_3 C 0.78211(13) 0.49118(14) 0.47175(16)
C86_3 C 0.95528(8) 0.81637(12) 0.67153(13)
C87_3 C 0.93435(9) 0.82623(12) 0.69786(13)
H47_3 H 0.9332 0.8135 0.7221
C88_3 C 0.91490(8) 0.85610(12) 0.68682(13)
H48_3 H 0.9009 0.8632 0.7042
C89_3 C 0.93771(9) 0.86375(14) 0.62444(14)
H49_3 H 0.9387 0.8764 0.6001
C90_3 C 0.91628(8) 0.87461(12) 0.65139(13)
C91_3 C 0.89671(8) 0.90704(13) 0.64067(13)
C92_3 C 0.88587(8) 0.91297(12) 0.59969(12)
H50_3 H 0.8914 0.8973 0.5794
C93_3 C 0.86638(8) 0.94339(12) 0.59031(13)
C94_3 C 0.85917(8) 0.96625(13) 0.62100(13)
H51_3 H 0.8465 0.9862 0.6149
C95_3 C 0.87025(8) 0.96048(12) 0.66166(13)
C96_3 C 0.88875(8) 0.93104(12) 0.67062(12)
H52_3 H 0.8961 0.9270 0.6973
C97_3 C 0.86084(8) 0.98553(12) 0.69408(13)
C98_3 C 0.83309(9) 0.99805(14) 0.69387(14)
H53_3 H 0.8197 0.9928 0.6718
C99_3 C 0.88149(9) 0.99568(14) 0.72622(14)
H54_3 H 0.9012 0.9888 0.7257
C104_3 C 0.85359(9) 0.94871(13) 0.54883(14)
C105_3 C 0.86995(10) 0.94063(14) 0.51661(16)
H57_3 H 0.8892 0.9320 0.5222
C106_3 C 0.85905(9) 0.94471(14) 0.47593(13)
H58_3 H 0.8705 0.9392 0.4548
C107_3 C 0.82569(9) 0.96173(12) 0.54078(14)
H59_3 H 0.8143 0.9675 0.5619
C108_3 C 0.82932(9) 0.95789(13) 0.46887(15)
C109_3 C 0.81372(10) 0.96664(13) 0.49999(15)
H60_3 H 0.7947 0.9761 0.4949
C110_3 C 0.81648(11) 0.96073(14) 0.42561(16)
C136_3 C 0.93924(8) 0.66285(13) 0.67404(15)
C137_3 C 0.96758(9) 0.68494(14) 0.67910(16)
C138_3 C 0.92122(9) 0.66414(15) 0.63769(14)
H76_3 H 0.9267 0.6783 0.6161
C139_3 C 0.89497(9) 0.64394(15) 0.63415(15)
H77_3 H 0.8837 0.6438 0.6094
C140_3 C 0.90331(9) 0.62291(14) 0.70332(14)
H78_3 H 0.8977 0.6085 0.7247
C141_3 C 0.88509(8) 0.62432(13) 0.66566(13)
C142_3 C 0.85750(9) 0.60192(13) 0.66284(14)
C143_3 C 0.84713(9) 0.58407(14) 0.62652(14)
H79_3 H 0.8572 0.5870 0.6035
C144_3 C 0.82199(10) 0.56231(13) 0.62509(14)
C145_3 C 0.81116(10) 0.54250(13) 0.58646(14)
C146_3 C 0.83014(11) 0.53354(15) 0.55826(16)
H80_3 H 0.8501 0.5387 0.5643
C147_3 C 0.78139(9) 0.53387(12) 0.57825(13)
H81_3 H 0.7678 0.5397 0.5967
C148_3 C 0.77228(9) 0.51614(13) 0.54167(13)
H82_3 H 0.7524 0.5099 0.5363
C149_3 C 0.82158(9) 0.51712(14) 0.52072(14)
H83_3 H 0.8348 0.5126 0.5014
C150_3 C 0.84184(9) 0.59795(13) 0.69582(14)
H84_3 H 0.8481 0.6107 0.7194
C151_3 C 0.80719(10) 0.55773(13) 0.65885(15)
H85_3 H 0.7905 0.5426 0.6574
C152_3 C 0.81639(9) 0.57512(12) 0.69558(12)
C153_3 C 0.80138(9) 0.57044(13) 0.73231(13)
C154_3 C 0.77070(9) 0.56776(13) 0.73207(14)
H86_3 H 0.7590 0.5703 0.7078
C155_3 C 0.75767(9) 0.56146(13) 0.76702(14)
H87_3 H 0.7372 0.5603 0.7663
C156_3 C 0.77433(9) 0.55670(13) 0.80342(13)
C157_3 C 0.80416(9) 0.55940(13) 0.80387(13)
H88_3 H 0.8155 0.5567 0.8284
C158_3 C 0.81813(10) 0.56593(14) 0.76992(15)
H89_3 H 0.8386 0.5674 0.7714
C159_3 C 0.92927(9) 0.64330(13) 0.70726(15)
H90_3 H 0.9403 0.6442 0.7322
C162_3 C 0.76005(11) 0.54739(14) 0.84013(14)
O31_3 O 0.99165(7) 0.77464(9) 0.65449(10)
O32_3 O 0.97664(5) 0.77077(8) 0.71705(9)
O33_3 O 0.97750(6) 0.69634(10) 0.64817(10)
O34_3 O 0.97840(5) 0.68890(8) 0.71569(8)
O39_3 O 0.79161(7) 0.97670(9) 0.41924(8)
O40_3 O 0.82968(7) 0.94985(10) 0.39677(10)
O53_2 O 0.73266(6) 0.55135(8) 0.84276(8)
O59_3 O 0.75595(7) 0.99647(9) 0.33206(12)
O64_3 O 0.89276(7) 0.92665(11) 0.38881(10)
O66_3 O 0.85210(8) 0.87126(12) 0.42146(11)
O68_2 O 0.77646(6) 0.53586(8) 0.87227(8)
O74_3 O 0.87067(7) 0.86169(11) 0.33796(12)
H95_3 H 0.863898 0.88412 0.443898
H96_3 H 0.861473 0.847 0.415975
H99_3 H 0.737964 0.986366 0.343192
H100_3 H 0.753963 0.994086 0.302138
H101_3 H 0.894841 0.951909 0.377201
H102_3 H 0.908393 0.910102 0.379637
H103_3 H 0.988119 0.734175 0.57488
H105_3 H 0.856559 0.852166 0.315825
H106_3 H 0.876429 0.841121 0.357035
H117_3 H 0.965451 0.669292 0.891794
H118_3 H 0.964119 0.658986 0.844097
H121_3 H 0.670262 0.94514 0.553472
H122_3 H 0.64292 0.963182 0.575143
H123_3 H 0.679675 0.950166 0.662348
H124_3 H 0.669035 0.991476 0.674518
H132_3 H 0.980658 0.713237 0.929489
C25_4 C 0.64095(9) 0.44471(14) 0.02407(13)
H13_4 H 0.6295 0.4392 0.0452
C27_4 C 0.67068(9) 0.45789(13) 0.03113(15)
C28_7 C 0.68628(10) 0.46664(13) 0.00001(15)
H15_4 H 0.7053 0.4761 0.0051
C29_4 C 0.68352(11) 0.46073(14) 0.07439(16)
O9_4 O 0.70839(7) 0.47670(9) 0.08076(8)
O10_4 O 0.67032(7) 0.44985(10) 0.10323(10)
O17_4 O 0.74405(7) 0.49647(9) 0.16794(12)
O20_4 O 0.60724(7) 0.42665(11) 0.11119(10)
O22_4 O 0.64790(8) 0.37126(12) 0.07854(11)
O28_4 O 0.62933(7) 0.36169(11) 0.16204(12)
O30_2 O 0.68592(18) 0.51789(16) 0.15133(15)
H119_4 H 0.636102 0.38412 0.056102
H120_4 H 0.638527 0.347 0.084025
H125_2 H 0.698685 0.538418 0.142846
H126_2 H 0.682167 0.521316 0.18014
H127_4 H 0.762036 0.486366 0.156808
H128_4 H 0.746037 0.494086 0.197862
H129_4 H 0.605159 0.451909 0.122799
H130_4 H 0.591607 0.410102 0.120363
H137_4 H 0.643441 0.352166 0.184175
H138_4 H 0.623571 0.341121 0.142965
C1_4 C 0.52356(9) 0.28467(13) 0.81783(16)
C2_4 C 0.70898(9) 0.00794(13) 0.98551(14)
C3_4 C 0.54324(9) 0.33477(13) 0.86573(12)
H1_4 H 0.5295 0.3274 0.8835
C5_4 C 0.54472(8) 0.31637(12) 0.82847(13)
C6_4 C 0.56565(9) 0.32623(12) 0.80214(13)
H2_4 H 0.5668 0.3135 0.7779
C7_4 C 0.58510(8) 0.35610(12) 0.81318(13)
H3_4 H 0.5991 0.3632 0.7958
C8_4 C 0.56229(9) 0.36375(14) 0.87556(14)
H4_4 H 0.5613 0.3764 0.8999
C9_4 C 0.58372(8) 0.37461(12) 0.84861(13)
C10_4 C 0.60329(8) 0.40704(13) 0.85933(13)
C11_4 C 0.61413(8) 0.41297(12) 0.90031(12)
H5_4 H 0.6086 0.3973 0.9206
C12_4 C 0.63362(8) 0.44339(12) 0.90969(13)
C13_4 C 0.64083(8) 0.46625(13) 0.87900(13)
H6_4 H 0.6535 0.4862 0.8851
C14_4 C 0.62975(8) 0.46048(12) 0.83834(13)
C15_4 C 0.61125(8) 0.43104(12) 0.82938(12)
H7_4 H 0.6039 0.4270 0.8027
C16_4 C 0.63916(8) 0.48553(12) 0.80592(13)
C17_4 C 0.66691(9) 0.49805(14) 0.80613(14)
H8_4 H 0.6803 0.4928 0.8282
C18_4 C 0.61851(9) 0.49568(14) 0.77378(14)
H9_4 H 0.5988 0.4888 0.7743
C19_4 C 0.67621(9) 0.51849(15) 0.77443(14)
H10_4 H 0.6958 0.5263 0.7750
C20_4 C 0.62730(9) 0.51570(14) 0.74151(14)
H11_4 H 0.6136 0.5213 0.7199
C21_4 C 0.65590(9) 0.52753(14) 0.74093(13)
C22_4 C 0.66653(12) 0.54660(16) 0.70547(15)
C23_4 C 0.64641(9) 0.44871(13) 0.95117(14)
C24_4 C 0.63005(10) 0.44063(14) 0.98339(16)
H12_4 H 0.6108 0.4320 0.9778
C26_4 C 0.67431(9) 0.46173(12) 0.95922(14)
H14_4 H 0.6857 0.4675 0.9381
C28_8 C 0.68628(10) 0.46664(13) 1.00001(15)
C30_4 C 0.44451(10) 0.24661(14) 0.80270(14)
C31_4 C 0.41841(8) 0.25585(13) 0.77354(14)
C32_4 C 0.39825(8) 0.28293(13) 0.78289(14)
H16_4 H 0.4015 0.2968 0.8065
C33_4 C 0.37285(9) 0.28913(13) 0.75638(15)
H17_4 H 0.3599 0.3084 0.7612
C34_4 C 0.41359(8) 0.23445(13) 0.74002(13)
H18_4 H 0.4275 0.2168 0.7338
C35_4 C 0.38700(9) 0.23936(13) 0.71443(14)
H19_4 H 0.3831 0.2242 0.6919
C36_4 C 0.36723(8) 0.26616(13) 0.72286(14)
C37_4 C 0.33818(8) 0.27084(13) 0.69732(13)
C38_4 C 0.32164(9) 0.23901(13) 0.68683(16)
H20_4 H 0.3291 0.2156 0.6941
C39_4 C 0.29356(8) 0.24246(14) 0.66514(16)
C40_4 C 0.32801(8) 0.30553(13) 0.68553(14)
H21_4 H 0.3395 0.3265 0.6921
C41_4 C 0.28521(9) 0.17460(14) 0.65010(14)
H22_4 H 0.3054 0.1719 0.6480
C42_4 C 0.24400(9) 0.21227(13) 0.66142(17)
H23_4 H 0.2362 0.2355 0.6669
C43_4 C 0.27446(9) 0.20834(14) 0.65795(15)
C44_4 C 0.26704(9) 0.14366(13) 0.64508(14)
H24_4 H 0.2751 0.1206 0.6395
C45_4 C 0.22575(10) 0.18158(14) 0.65661(16)
H25_4 H 0.2056 0.1841 0.6589
C46_4 C 0.30006(9) 0.30939(13) 0.66329(15)
C47_4 C 0.28388(9) 0.27709(12) 0.65322(15)
H26_4 H 0.2658 0.2793 0.6378
C48_4 C 0.28888(9) 0.34619(13) 0.65061(16)
C49_4 C 0.25789(9) 0.35280(14) 0.64637(16)
H27_4 H 0.2449 0.3338 0.6517
C50_4 C 0.30699(9) 0.37617(14) 0.64298(15)
H28_4 H 0.3274 0.3729 0.6457
C51_4 C 0.29577(9) 0.41015(13) 0.63160(15)
H29_4 H 0.3087 0.4296 0.6273
C52_4 C 0.26545(9) 0.41631(13) 0.62622(15)
C53_4 C 0.24693(9) 0.38747(13) 0.63432(17)
H30_4 H 0.2266 0.3913 0.6317
C54_4 C 0.25294(9) 0.45365(13) 0.61368(13)
C55_4 C 0.56076(8) 0.16285(13) 0.82596(15)
C56_4 C 0.53242(9) 0.18494(14) 0.82090(16)
C57_4 C 0.57878(9) 0.16414(15) 0.86231(14)
H31_4 H 0.5733 0.1783 0.8839
C58_4 C 0.60503(9) 0.14394(15) 0.86585(15)
H32_4 H 0.6163 0.1438 0.8906
C59_4 C 0.59669(9) 0.12291(14) 0.79668(14)
H33_4 H 0.6023 0.1085 0.7753
C60_4 C 0.61491(8) 0.12432(13) 0.83434(13)
C61_4 C 0.64250(9) 0.10192(13) 0.83716(14)
C62_4 C 0.65287(9) 0.08407(14) 0.87348(14)
H34_4 H 0.6428 0.0870 0.8965
C63_4 C 0.67801(10) 0.06231(13) 0.87491(14)
C64_4 C 0.68884(10) 0.04250(13) 0.91354(14)
C65_4 C 0.66986(11) 0.03354(15) 0.94174(16)
H35_4 H 0.6499 0.0387 0.9357
C66_4 C 0.71861(9) 0.03387(12) 0.92175(13)
H36_4 H 0.7322 0.0397 0.9033
C67_4 C 0.72772(9) 0.01614(13) 0.95833(13)
H37_4 H 0.7476 0.0099 0.9637
C68_4 C 0.67842(9) 0.01712(14) 0.97928(14)
H38_4 H 0.6652 0.0126 0.9986
C69_4 C 0.65816(9) 0.09795(13) 0.80418(14)
H39_4 H 0.6519 0.1107 0.7806
C70_4 C 0.69281(10) 0.05773(13) 0.84115(15)
H40_4 H 0.7095 0.0426 0.8426
C71_4 C 0.68361(9) 0.07512(12) 0.80442(12)
C72_4 C 0.69862(9) 0.07044(13) 0.76769(13)
C73_4 C 0.72930(9) 0.06776(13) 0.76793(14)
H41_4 H 0.7410 0.0703 0.7922
C74_4 C 0.74233(9) 0.06146(13) 0.73298(14)
H42_4 H 0.7628 0.0603 0.7337
C75_4 C 0.72567(9) 0.05670(13) 0.69658(13)
C76_4 C 0.69584(9) 0.05940(13) 0.69613(13)
H43_4 H 0.6845 0.0567 0.6716
C77_4 C 0.68187(10) 0.06593(14) 0.73008(15)
H44_4 H 0.6614 0.0674 0.7286
C78_4 C 0.57073(9) 0.14330(13) 0.79274(15)
H45_4 H 0.5597 0.1442 0.7678
C79_4 C 0.21722(10) 0.11322(16) 0.64459(14)
C80_4 C 0.23756(9) 0.14672(13) 0.64831(14)
C81_4 C 0.73995(11) 0.04739(14) 0.65987(14)
O1_4 O 0.50835(7) 0.27464(9) 0.84551(10)
O2_4 O 0.52336(5) 0.27077(8) 0.78295(9)
O3_4 O 0.52250(6) 0.19634(10) 0.85183(10)
O4_4 O 0.52160(5) 0.18890(8) 0.78431(8)
O5_4 O 0.46623(5) 0.22808(8) 0.79137(8)
O6_4 O 0.44396(5) 0.25624(9) 0.83930(10)
O7_4 O 0.22592(6) 0.45606(8) 0.60591(10)
O8_4 O 0.27094(6) 0.48009(8) 0.61119(8)
O18_4 O 0.15814(7) 0.53425(11) 0.60848(11)
O21_4 O 0.30283(6) 0.54297(9) 0.57722(11)
O23_4 O 0.16329(7) 0.45305(15) 0.57971(14)
O25_4 O 0.25147(8) 0.58846(9) 0.57578(10)
O26_4 O 0.49046(7) 0.23398(12) 0.91603(10)
O27_4 O 0.45997(8) 0.17857(12) 0.86397(12)
O29_4 O 0.18529(8) 0.47689(12) 0.66394(12)
Co1_6 Co 0.5000 0.23059(2) 0.7500
Co5_4 Co 0.484977(11) 0.226654(18) 0.853394(17)
C82_4 C 0.47644(9) 0.28467(13) 0.68217(16)
C83_4 C 0.29102(9) 0.00794(13) 0.51449(14)
C84_4 C 0.45676(9) 0.33477(13) 0.63427(12)
H46_4 H 0.4705 0.3274 0.6165
C86_4 C 0.45528(8) 0.31637(12) 0.67153(13)
C87_4 C 0.43435(9) 0.32623(12) 0.69786(13)
H47_4 H 0.4332 0.3135 0.7221
C88_4 C 0.41490(8) 0.35610(12) 0.68682(13)
H48_4 H 0.4009 0.3632 0.7042
C89_4 C 0.43771(9) 0.36375(14) 0.62444(14)
H49_4 H 0.4387 0.3764 0.6001
C90_4 C 0.41628(8) 0.37461(12) 0.65139(13)
C91_4 C 0.39671(8) 0.40704(13) 0.64067(13)
C92_4 C 0.38587(8) 0.41297(12) 0.59969(12)
H50_4 H 0.3914 0.3973 0.5794
C93_4 C 0.36638(8) 0.44339(12) 0.59031(13)
C94_4 C 0.35917(8) 0.46625(13) 0.62100(13)
H51_4 H 0.3465 0.4862 0.6149
C95_4 C 0.37025(8) 0.46048(12) 0.66166(13)
C96_4 C 0.38875(8) 0.43104(12) 0.67062(12)
H52_4 H 0.3961 0.4270 0.6973
C97_4 C 0.36084(8) 0.48553(12) 0.69408(13)
C98_4 C 0.33309(9) 0.49805(14) 0.69387(14)
H53_4 H 0.3197 0.4928 0.6718
C99_4 C 0.38149(9) 0.49568(14) 0.72622(14)
H54_4 H 0.4012 0.4888 0.7257
C100_4 C 0.32379(9) 0.51849(15) 0.72557(14)
H55_4 H 0.3042 0.5263 0.7250
C101_4 C 0.37270(9) 0.51570(14) 0.75849(14)
H56_4 H 0.3864 0.5213 0.7801
C102_4 C 0.34410(9) 0.52753(14) 0.75907(13)
C103_4 C 0.33347(12) 0.54660(16) 0.79453(15)
C104_4 C 0.35359(9) 0.44871(13) 0.54883(14)
C105_4 C 0.36995(10) 0.44063(14) 0.51661(16)
H57_4 H 0.3892 0.4320 0.5222
C106_4 C 0.35905(9) 0.44471(14) 0.47593(13)
H58_4 H 0.3705 0.4392 0.4548
C107_4 C 0.32569(9) 0.46173(12) 0.54078(14)
H59_4 H 0.3143 0.4675 0.5619
C108_4 C 0.32932(9) 0.45789(13) 0.46887(15)
C109_4 C 0.31372(10) 0.46664(13) 0.49999(15)
H60_4 H 0.2947 0.4761 0.4949
C110_4 C 0.31648(11) 0.46073(14) 0.42561(16)
C111_4 C 0.55549(10) 0.24661(14) 0.69730(14)
C112_4 C 0.58159(8) 0.25585(13) 0.72646(14)
C113_4 C 0.60175(8) 0.28293(13) 0.71711(14)
H61_4 H 0.5985 0.2968 0.6935
C114_4 C 0.62715(9) 0.28913(13) 0.74362(15)
H62_4 H 0.6401 0.3084 0.7388
C115_4 C 0.58641(8) 0.23445(13) 0.75998(13)
H63_4 H 0.5725 0.2168 0.7662
C116_4 C 0.61300(9) 0.23936(13) 0.78557(14)
H64_4 H 0.6169 0.2242 0.8081
C117_4 C 0.63277(8) 0.26616(13) 0.77714(14)
C118_4 C 0.66182(8) 0.27084(13) 0.80268(13)
C119_4 C 0.67836(9) 0.23901(13) 0.81317(16)
H65_4 H 0.6709 0.2156 0.8059
C120_4 C 0.70644(8) 0.24246(14) 0.83486(16)
C121_4 C 0.67199(8) 0.30553(13) 0.81447(14)
H66_4 H 0.6605 0.3265 0.8079
C122_4 C 0.71479(9) 0.17460(14) 0.84990(14)
H67_4 H 0.6946 0.1719 0.8520
C123_4 C 0.75600(9) 0.21227(13) 0.83858(17)
H68_4 H 0.7638 0.2355 0.8331
C124_4 C 0.72554(9) 0.20834(14) 0.84205(15)
C125_4 C 0.73296(9) 0.14366(13) 0.85492(14)
H69_4 H 0.7249 0.1206 0.8605
C126_4 C 0.77425(10) 0.18158(14) 0.84339(16)
H70_4 H 0.7944 0.1841 0.8411
C127_4 C 0.69994(9) 0.30939(13) 0.83671(15)
C128_4 C 0.71612(9) 0.27709(12) 0.84678(15)
H71_4 H 0.7342 0.2793 0.8622
C129_4 C 0.71112(9) 0.34619(13) 0.84939(16)
C130_4 C 0.74211(9) 0.35280(14) 0.85363(16)
H72_4 H 0.7551 0.3338 0.8483
C131_4 C 0.69301(9) 0.37617(14) 0.85702(15)
H73_4 H 0.6726 0.3729 0.8543
C132_4 C 0.70423(9) 0.41015(13) 0.86840(15)
H74_4 H 0.6913 0.4296 0.8727
C133_4 C 0.73455(9) 0.41631(13) 0.87378(15)
C134_4 C 0.75307(9) 0.38747(13) 0.86568(17)
H75_4 H 0.7734 0.3913 0.8683
C135_4 C 0.74706(9) 0.45365(13) 0.88632(13)
C136_4 C 0.43924(8) 0.16285(13) 0.67404(15)
C137_4 C 0.46758(9) 0.18494(14) 0.67910(16)
C138_4 C 0.42122(9) 0.16414(15) 0.63769(14)
H76_4 H 0.4267 0.1783 0.6161
C139_4 C 0.39497(9) 0.14394(15) 0.63415(15)
H77_4 H 0.3837 0.1438 0.6094
C140_4 C 0.40331(9) 0.12291(14) 0.70332(14)
H78_4 H 0.3977 0.1085 0.7247
C141_4 C 0.38509(8) 0.12432(13) 0.66566(13)
C142_4 C 0.35750(9) 0.10192(13) 0.66284(14)
C143_4 C 0.34713(9) 0.08407(14) 0.62652(14)
H79_4 H 0.3572 0.0870 0.6035
C144_4 C 0.32199(10) 0.06231(13) 0.62509(14)
C145_4 C 0.31116(10) 0.04250(13) 0.58646(14)
C146_4 C 0.33014(11) 0.03354(15) 0.55826(16)
H80_4 H 0.3501 0.0387 0.5643
C147_4 C 0.28139(9) 0.03387(12) 0.57825(13)
H81_4 H 0.2678 0.0397 0.5967
C148_4 C 0.27228(9) 0.01614(13) 0.54167(13)
H82_4 H 0.2524 0.0099 0.5363
C149_4 C 0.32158(9) 0.01712(14) 0.52072(14)
H83_4 H 0.3348 0.0126 0.5014
C150_4 C 0.34184(9) 0.09795(13) 0.69582(14)
H84_4 H 0.3481 0.1107 0.7194
C151_4 C 0.30719(10) 0.05773(13) 0.65885(15)
H85_4 H 0.2905 0.0426 0.6574
C152_4 C 0.31639(9) 0.07512(12) 0.69558(12)
C153_4 C 0.30138(9) 0.07044(13) 0.73231(13)
C154_4 C 0.27070(9) 0.06776(13) 0.73207(14)
H86_4 H 0.2590 0.0703 0.7078
C155_4 C 0.25767(9) 0.06146(13) 0.76702(14)
H87_4 H 0.2372 0.0603 0.7663
C156_4 C 0.27433(9) 0.05670(13) 0.80342(13)
C157_4 C 0.30416(9) 0.05940(13) 0.80387(13)
H88_4 H 0.3155 0.0567 0.8284
C158_4 C 0.31813(10) 0.06593(14) 0.76992(15)
H89_4 H 0.3386 0.0674 0.7714
C159_4 C 0.42927(9) 0.14330(13) 0.70726(15)
H90_4 H 0.4403 0.1442 0.7322
C160_4 C 0.78278(10) 0.11322(16) 0.85541(14)
C161_4 C 0.76244(9) 0.14672(13) 0.85169(14)
C162_4 C 0.26005(11) 0.04739(14) 0.84013(14)
O31_4 O 0.49165(7) 0.27464(9) 0.65449(10)
O32_4 O 0.47664(5) 0.27077(8) 0.71705(9)
O33_4 O 0.47750(6) 0.19634(10) 0.64817(10)
O34_4 O 0.47840(5) 0.18890(8) 0.71569(8)
O35_4 O 0.53377(5) 0.22808(8) 0.70863(8)
O36_4 O 0.55604(5) 0.25624(9) 0.66070(10)
O37_4 O 0.77408(6) 0.45606(8) 0.89409(10)
O38_4 O 0.72906(6) 0.48009(8) 0.88881(8)
O39_4 O 0.29161(7) 0.47670(9) 0.41924(8)
O40_4 O 0.32968(7) 0.44985(10) 0.39677(10)
O59_4 O 0.25595(7) 0.49647(9) 0.33206(12)
O60_4 O 0.84186(7) 0.53425(11) 0.89152(11)
O64_4 O 0.39276(7) 0.42665(11) 0.38881(10)
O65_4 O 0.69717(6) 0.54297(9) 0.92278(11)
O66_4 O 0.35210(8) 0.37126(12) 0.42146(11)
O67_4 O 0.83671(7) 0.45305(15) 0.92029(14)
O71_4 O 0.74853(8) 0.58846(9) 0.92422(10)
O72_4 O 0.50954(7) 0.23398(12) 0.58397(10)
O73_4 O 0.54003(8) 0.17857(12) 0.63603(12)
O74_4 O 0.37067(7) 0.36169(11) 0.33796(12)
O75_4 O 0.81471(8) 0.47689(12) 0.83606(12)
O76_4 O 0.31408(18) 0.51789(16) 0.34867(15)
Co22_4 Co 0.515023(11) 0.226654(18) 0.646606(17)
H91_4 H 0.682962 0.540169 0.898502
H92_4 H 0.695997 0.568708 0.933478
H93_4 H 0.829738 0.44514 0.946528
H94_4 H 0.85708 0.463182 0.924857
H95_4 H 0.363898 0.38412 0.443898
H96_4 H 0.361473 0.347 0.415975
H97_4 H 0.858372 0.526865 0.91149
H98_4 H 0.834762 0.559462 0.89829
H99_4 H 0.237964 0.486366 0.343192
H100_4 H 0.253963 0.494086 0.302138
H101_4 H 0.394841 0.451909 0.377201
H102_4 H 0.408393 0.410102 0.379637
H103_4 H 0.488119 0.234175 0.57488
H104_4 H 0.519342 0.213237 0.570511
H105_4 H 0.356559 0.352166 0.315825
H106_4 H 0.376429 0.341121 0.357035
H107_4 H 0.820325 0.450166 0.837652
H108_4 H 0.830965 0.491476 0.825482
H109_4 H 0.762903 0.598976 0.906347
H110_4 H 0.757153 0.589216 0.952738
H111_4 H 0.301315 0.538418 0.357154
H112_4 H 0.317833 0.521316 0.31986
H113_4 H 0.534549 0.169292 0.608206
H114_4 H 0.535881 0.158986 0.655903
H115_4 H 0.237097 0.598976 0.593653
H116_4 H 0.242847 0.589216 0.547262
H117_4 H 0.465451 0.169292 0.891794
H118_4 H 0.464119 0.158986 0.844097
H121_4 H 0.170262 0.44514 0.553472
H122_4 H 0.14292 0.463182 0.575143
H123_4 H 0.179675 0.450166 0.662348
H124_4 H 0.169035 0.491476 0.674518
H131_4 H 0.511881 0.234175 0.92512
H132_4 H 0.480658 0.213237 0.929489
H133_4 H 0.317038 0.540169 0.601498
H134_4 H 0.304003 0.568708 0.566522
H135_4 H 0.141628 0.526865 0.58851
H136_4 H 0.165238 0.559462 0.60171
C4_4 C 0.71789(13) 0.99118(14) 0.02825(16)
C85_4 C 0.28211(13) 0.99118(14) 0.47175(16)
O30_3 O 0.81408(18) 0.98211(16) 0.84867(15)
H125_3 H 0.801315 0.961582 0.857154
H126_3 H 0.817833 0.978684 0.81986
O30_4 O 0.18592(18) 0.01789(16) 0.15133(15)
H125_4 H 0.198685 0.0384178 0.142846
H126_4 H 0.182167 0.0213164 0.18014
loop_
_geom_bond_atom_site_label_1
_geom_bond_atom_site_label_2
_geom_bond_site_symmetry_1
_geom_bond_site_symmetry_2
C30 C31 1_555 1_555
C31 C32 1_555 1_555
C32 H16 1_555 1_555
C33 C32 1_555 1_555
H17 C33 1_555 1_555
C34 C31 1_555 1_555
H18 C34 1_555 1_555
C35 C34 1_555 1_555
H19 C35 1_555 1_555
C36 C33 1_555 1_555
C37 C36 1_555 1_555
C38 C37 1_555 1_555
H20 C38 1_555 1_555
C39 C38 1_555 1_555
C40 C37 1_555 1_555
H21 C40 1_555 1_555
C41 H22 1_555 1_555
C42 H23 1_555 1_555
C43 C39 1_555 1_555
C44 C41 1_555 1_555
H24 C44 1_555 1_555
C45 C42 1_555 1_555
H25 C45 1_555 1_555
C46 C40 1_555 1_555
C47 C39 1_555 1_555
H26 C47 1_555 1_555
C48 C46 1_555 1_555
C49 C48 1_555 1_555
H27 C49 1_555 1_555
C50 C48 1_555 1_555
H28 C50 1_555 1_555
C51 C50 1_555 1_555
H29 C51 1_555 1_555
C52 C51 1_555 1_555
C53 C49 1_555 1_555
H30 C53 1_555 1_555
C54 C52 1_555 1_555
C79 C80 1_555 1_555
C80 C44 1_555 1_555
O5 C30 1_555 1_555
O6 C30 1_555 1_555
O7 C54 1_555 1_555
O8 C54 1_555 1_555
O13 C79 1_555 1_555
O14 C79 1_555 1_555
O23 Co6 1_555 1_555
O26 Co5 1_555 1_555
O27 Co5 1_555 1_555
O29 Co6 1_555 1_555
Co6 O7 1_555 1_555
C82 C86 1_555 1_555
C83 C85 1_555 1_555
C84 H46 1_555 1_555
C85 O56 1_555 1_555
C86 C84 1_555 1_555
C87 C86 1_555 1_555
H47 C87 1_555 1_555
C88 C87 1_555 1_555
H48 C88 1_555 1_555
C89 C84 1_555 1_555
H49 C89 1_555 1_555
C90 C88 1_555 1_555
C91 C90 1_555 1_555
C92 C91 1_555 1_555
H50 C92 1_555 1_555
C93 C92 1_555 1_555
C94 C93 1_555 1_555
H51 C94 1_555 1_555
C95 C94 1_555 1_555
C96 C91 1_555 1_555
H52 C96 1_555 1_555
C97 C95 1_555 1_555
C98 C97 1_555 1_555
H53 C98 1_555 1_555
C99 C97 1_555 1_555
H54 C99 1_555 1_555
C104 C93 1_555 1_555
C105 C104 1_555 1_555
H57 C105 1_555 1_555
C106 C105 1_555 1_555
H58 C106 1_555 1_555
C107 C104 1_555 1_555
H59 C107 1_555 1_555
C108 C106 1_555 1_555
C109 C107 1_555 1_555
H60 C109 1_555 1_555
C110 C108 1_555 1_555
C136 C137 1_555 1_555
C137 O33 1_555 1_555
C138 C136 1_555 1_555
H76 C138 1_555 1_555
C139 C138 1_555 1_555
H77 C139 1_555 1_555
C140 H78 1_555 1_555
C141 C139 1_555 1_555
C142 C141 1_555 1_555
C143 C142 1_555 1_555
H79 C143 1_555 1_555
C144 C143 1_555 1_555
C145 C144 1_555 1_555
C146 C145 1_555 1_555
H80 C146 1_555 1_555
C147 C145 1_555 1_555
H81 C147 1_555 1_555
C148 C83 1_555 1_555
H82 C148 1_555 1_555
C149 C83 1_555 1_555
H83 C149 1_555 1_555
C150 C142 1_555 1_555
H84 C150 1_555 1_555
C151 C144 1_555 1_555
H85 C151 1_555 1_555
C152 C150 1_555 1_555
C153 C152 1_555 1_555
C154 C153 1_555 1_555
H86 C154 1_555 1_555
C155 C154 1_555 1_555
H87 C155 1_555 1_555
C156 C155 1_555 1_555
C157 C156 1_555 1_555
H88 C157 1_555 1_555
C158 C153 1_555 1_555
H89 C158 1_555 1_555
C159 C136 1_555 1_555
H90 C159 1_555 1_555
C162 C156 1_555 1_555
O31 C82 1_555 1_555
O32 Co1 1_555 1_555
O34 Co1 1_555 1_555
O39 C110 1_555 1_555
O40 C110 1_555 1_555
O43 Co17 1_555 1_555
O46 Co7 1_555 1_555
O49 Co7 1_555 1_555
O52 Co17 1_555 1_555
O53 C162 1_555 1_555
O56 Co26 1_555 1_555
O59 Co7 1_555 1_555
O61 C85 1_555 1_555
O64 Co17 1_555 1_555
O66 Co17 1_555 1_555
O68 C162 1_555 1_555
O74 Co17 1_555 1_555
Co7 O39 1_555 1_555
Co9 O13 1_555 1_555
Co15 O53 1_555 1_555
Co16 O61 1_555 1_555
Co17 O40 1_555 1_555
Co19 O14 1_555 1_555
Co27 O68 1_555 1_555
C35 C36 1_555 1_555
C41 C43 1_555 1_555
C42 C43 1_555 1_555
C45 C80 1_555 1_555
C46 C47 1_555 1_555
C52 C53 1_555 1_555
O5 Co1 1_555 1_555
O5 Co5 1_555 1_555
O6 Co5 1_555 1_555
C82 O32 1_555 1_555
C89 C90 1_555 1_555
C95 C96 1_555 1_555
C108 C109 1_555 1_555
C137 O34 1_555 1_555
C140 C141 1_555 1_555
C140 C159 1_555 1_555
C146 C149 1_555 1_555
C147 C148 1_555 1_555
C151 C152 1_555 1_555
C157 C158 1_555 1_555
O40 Co7 1_555 1_555
O68 Co15 1_555 1_555
O66 H95 1_555 1_555
O66 H96 1_555 1_555
O59 H99 1_555 1_555
O59 H100 1_555 1_555
O64 H101 1_555 1_555
O64 H102 1_555 1_555
O74 H105 1_555 1_555
O74 H106 1_555 1_555
O27 H117 1_555 1_555
O27 H118 1_555 1_555
O23 H121 1_555 1_555
O23 H122 1_555 1_555
O29 H123 1_555 1_555
O29 H124 1_555 1_555
O26 H132 1_555 1_555
O21 Co3 1_555 1_555
O25 Co3 1_555 1_555
H55 C100 1_555 1_555
H56 C101 1_555 1_555
C102 C100 1_555 1_555
C103 C102 1_555 1_555
O41 C103 1_555 1_555
O44 C103 1_555 1_555
O54 Co3 1_555 1_555
O62 Co3 1_555 1_555
O69 Co3 1_555 1_555
Co10 O44 1_555 1_555
Co20 O41 1_555 1_555
C101 C102 1_555 1_555
O76 H111 1_555 1_555
O76 H112 1_555 1_555
O25 H115 1_555 1_555
O25 H116 1_555 1_555
O21 H133 1_555 1_555
O21 H134 1_555 1_555
O18 H135 1_555 1_555
O18 H136 1_555 1_555
C1 C5 1_555 1_555
C3 H1 1_555 1_555
C5 C3 1_555 1_555
C6 C5 1_555 1_555
H2 C6 1_555 1_555
C7 C6 1_555 1_555
H3 C7 1_555 1_555
C8 C3 1_555 1_555
H4 C8 1_555 1_555
C9 C7 1_555 1_555
C10 C9 1_555 1_555
C11 C10 1_555 1_555
H5 C11 1_555 1_555
C12 C11 1_555 1_555
C13 C12 1_555 1_555
H6 C13 1_555 1_555
C14 C13 1_555 1_555
C15 C10 1_555 1_555
H7 C15 1_555 1_555
C16 C14 1_555 1_555
C17 C16 1_555 1_555
H8 C17 1_555 1_555
C18 C16 1_555 1_555
H9 C18 1_555 1_555
C23 C12 1_555 1_555
C24 C23 1_555 1_555
H12 C24 1_555 1_555
C26 C23 1_555 1_555
H14 C26 1_555 1_555
C28 C26 1_555 1_555
C55 C56 1_555 1_555
C56 O3 1_555 1_555
C57 C55 1_555 1_555
H31 C57 1_555 1_555
C58 C57 1_555 1_555
H32 C58 1_555 1_555
C59 H33 1_555 1_555
C60 C58 1_555 1_555
C61 C60 1_555 1_555
C62 C61 1_555 1_555
H34 C62 1_555 1_555
C63 C62 1_555 1_555
C64 C63 1_555 1_555
C65 C64 1_555 1_555
H35 C65 1_555 1_555
C66 C64 1_555 1_555
H36 C66 1_555 1_555
C67 C2 1_555 1_555
H37 C67 1_555 1_555
C68 C2 1_555 1_555
H38 C68 1_555 1_555
C69 C61 1_555 1_555
H39 C69 1_555 1_555
C70 C63 1_555 1_555
H40 C70 1_555 1_555
C71 C69 1_555 1_555
C72 C71 1_555 1_555
C73 C72 1_555 1_555
H41 C73 1_555 1_555
C74 C73 1_555 1_555
H42 C74 1_555 1_555
C75 C74 1_555 1_555
C76 C75 1_555 1_555
H43 C76 1_555 1_555
C77 C72 1_555 1_555
H44 C77 1_555 1_555
C78 C55 1_555 1_555
H45 C78 1_555 1_555
C81 C75 1_555 1_555
O1 C1 1_555 1_555
O2 C1 1_555 1_555
O4 C56 1_555 1_555
O15 C81 1_555 1_555
O24 C81 1_555 1_555
Co1_2 O2 1_555 1_555
C111 C112 1_555 1_555
C112 C113 1_555 1_555
C113 H61 1_555 1_555
C114 C113 1_555 1_555
H62 C114 1_555 1_555
C115 C112 1_555 1_555
H63 C115 1_555 1_555
C116 C115 1_555 1_555
H64 C116 1_555 1_555
C117 C114 1_555 1_555
C118 C117 1_555 1_555
C119 C118 1_555 1_555
H65 C119 1_555 1_555
C120 C119 1_555 1_555
C121 C118 1_555 1_555
H66 C121 1_555 1_555
C122 H67 1_555 1_555
C123 H68 1_555 1_555
C124 C120 1_555 1_555
C125 C122 1_555 1_555
H69 C125 1_555 1_555
C126 C123 1_555 1_555
H70 C126 1_555 1_555
C127 C121 1_555 1_555
C128 C120 1_555 1_555
H71 C128 1_555 1_555
C129 C127 1_555 1_555
C130 C129 1_555 1_555
H72 C130 1_555 1_555
C131 C129 1_555 1_555
H73 C131 1_555 1_555
C132 C131 1_555 1_555
H74 C132 1_555 1_555
C133 C132 1_555 1_555
C134 C130 1_555 1_555
H75 C134 1_555 1_555
C135 C133 1_555 1_555
C160 C161 1_555 1_555
C161 C125 1_555 1_555
O35 Co1_2 1_555 1_555
O36 C111 1_555 1_555
O37 C135 1_555 1_555
O38 C135 1_555 1_555
O47 C160 1_555 1_555
O50 C160 1_555 1_555
O67 Co23 1_555 1_555
O72 Co22 1_555 1_555
O73 Co22 1_555 1_555
O75 Co23 1_555 1_555
Co11 O47 1_555 1_555
Co13 O15 1_555 1_555
Co21 O50 1_555 1_555
Co23 O37 1_555 1_555
Co25 O24 1_555 1_555
C8 C9 1_555 1_555
C14 C15 1_555 1_555
C59 C60 1_555 1_555
C59 C78 1_555 1_555
C65 C68 1_555 1_555
C66 C67 1_555 1_555
C70 C71 1_555 1_555
C76 C77 1_555 1_555
O4 Co1_2 1_555 1_555
O24 Co13 1_555 1_555
C111 O35 1_555 1_555
C116 C117 1_555 1_555
C122 C124 1_555 1_555
C123 C124 1_555 1_555
C126 C161 1_555 1_555
C127 C128 1_555 1_555
C133 C134 1_555 1_555
O35 Co22 1_555 1_555
O36 Co22 1_555 1_555
O67 H93 1_555 1_555
O67 H94 1_555 1_555
O72 H104 1_555 1_555
O75 H107 1_555 1_555
O75 H108 1_555 1_555
O73 H113 1_555 1_555
O73 H114 1_555 1_555
C4 O16 1_555 1_555
H13 C25 1_555 1_555
C27 C25 1_555 1_555
H15 C28_2 1_555 1_555
C29 C27 1_555 1_555
O9 C29 1_555 1_555
O10 C29 1_555 1_555
O16 Co24 1_555 1_555
O17 Co2 1_555 1_555
O19 C4 1_555 1_555
O20 Co4 1_555 1_555
O22 Co4 1_555 1_555
O28 Co4 1_555 1_555
Co2 O9 1_555 1_555
Co4 O10 1_555 1_555
O42 Co4 1_555 1_555
O45 Co2 1_555 1_555
O48 Co2 1_555 1_555
O51 Co4 1_555 1_555
Co14 O19 1_555 1_555
C27 C28_2 1_555 1_555
O10 Co2 1_555 1_555
O22 H119 1_555 1_555
O22 H120 1_555 1_555
O17 H127 1_555 1_555
O17 H128 1_555 1_555
O20 H129 1_555 1_555
O20 H130 1_555 1_555
O28 H137 1_555 1_555
O28 H138 1_555 1_555
H10 C19 1_555 1_555
H11 C20 1_555 1_555
C21 C19 1_555 1_555
C22 C21 1_555 1_555
O11 C22 1_555 1_555
O12 C22 1_555 1_555
O55 Co12 1_555 1_555
O63 Co12 1_555 1_555
O65 Co12 1_555 1_555
O70 Co12 1_555 1_555
O71 Co12 1_555 1_555
Co8 O12 1_555 1_555
Co18 O11 1_555 1_555
C20 C21 1_555 1_555
O65 H91 1_555 1_555
O65 H92 1_555 1_555
O60 H97 1_555 1_555
O60 H98 1_555 1_555
O71 H109 1_555 1_555
O71 H110 1_555 1_555
C85_2 O56_2 1_555 1_555
O61_2 C85_2 1_555 1_555
Co16_2 O61_2 1_555 1_555
C4_2 O16_2 1_555 1_555
O19_2 C4_2 1_555 1_555
Co14_2 O19_2 1_555 1_555
C1_2 C5_2 1_555 1_555
C3_2 H1_2 1_555 1_555
C5_2 C3_2 1_555 1_555
C6_2 C5_2 1_555 1_555
H2_2 C6_2 1_555 1_555
C7_2 C6_2 1_555 1_555
H3_2 C7_2 1_555 1_555
C8_2 C3_2 1_555 1_555
H4_2 C8_2 1_555 1_555
C9_2 C7_2 1_555 1_555
C10_2 C9_2 1_555 1_555
C11_2 C10_2 1_555 1_555
H5_2 C11_2 1_555 1_555
C12_2 C11_2 1_555 1_555
C13_2 C12_2 1_555 1_555
H6_2 C13_2 1_555 1_555
C14_2 C13_2 1_555 1_555
C15_2 C10_2 1_555 1_555
H7_2 C15_2 1_555 1_555
C16_2 C14_2 1_555 1_555
C17_2 C16_2 1_555 1_555
H8_2 C17_2 1_555 1_555
C18_2 C16_2 1_555 1_555
H9_2 C18_2 1_555 1_555
C19_2 C17_2 1_555 1_555
H10_2 C19_2 1_555 1_555
C20_2 C18_2 1_555 1_555
H11_2 C20_2 1_555 1_555
C21_2 C19_2 1_555 1_555
C22_2 C21_2 1_555 1_555
C23_2 C12_2 1_555 1_555
C24_2 C23_2 1_555 1_555
H12_2 C24_2 1_555 1_555
C26_2 C23_2 1_555 1_555
H14_2 C26_2 1_555 1_555
C28_3 C26_2 1_555 1_555
C30_2 C31_2 1_555 1_555
C31_2 C32_2 1_555 1_555
C32_2 H16_2 1_555 1_555
C33_2 C32_2 1_555 1_555
H17_2 C33_2 1_555 1_555
C34_2 C31_2 1_555 1_555
H18_2 C34_2 1_555 1_555
C35_2 C34_2 1_555 1_555
H19_2 C35_2 1_555 1_555
C36_2 C33_2 1_555 1_555
C37_2 C36_2 1_555 1_555
C38_2 C37_2 1_555 1_555
H20_2 C38_2 1_555 1_555
C39_2 C38_2 1_555 1_555
C40_2 C37_2 1_555 1_555
H21_2 C40_2 1_555 1_555
C41_2 H22_2 1_555 1_555
C42_2 H23_2 1_555 1_555
C43_2 C39_2 1_555 1_555
C44_2 C41_2 1_555 1_555
H24_2 C44_2 1_555 1_555
C45_2 C42_2 1_555 1_555
H25_2 C45_2 1_555 1_555
C46_2 C40_2 1_555 1_555
C47_2 C39_2 1_555 1_555
H26_2 C47_2 1_555 1_555
C48_2 C46_2 1_555 1_555
C49_2 C48_2 1_555 1_555
H27_2 C49_2 1_555 1_555
C50_2 C48_2 1_555 1_555
H28_2 C50_2 1_555 1_555
C51_2 C50_2 1_555 1_555
H29_2 C51_2 1_555 1_555
C52_2 C51_2 1_555 1_555
C53_2 C49_2 1_555 1_555
H30_2 C53_2 1_555 1_555
C54_2 C52_2 1_555 1_555
C55_2 C56_2 1_555 1_555
C56_2 O3_2 1_555 1_555
C57_2 C55_2 1_555 1_555
H31_2 C57_2 1_555 1_555
C58_2 C57_2 1_555 1_555
H32_2 C58_2 1_555 1_555
C59_2 H33_2 1_555 1_555
C60_2 C58_2 1_555 1_555
C61_2 C60_2 1_555 1_555
C62_2 C61_2 1_555 1_555
H34_2 C62_2 1_555 1_555
C63_2 C62_2 1_555 1_555
C64_2 C63_2 1_555 1_555
C65_2 C64_2 1_555 1_555
H35_2 C65_2 1_555 1_555
C66_2 C64_2 1_555 1_555
H36_2 C66_2 1_555 1_555
C67_2 C2_2 1_555 1_555
H37_2 C67_2 1_555 1_555
C68_2 C2_2 1_555 1_555
H38_2 C68_2 1_555 1_555
C69_2 C61_2 1_555 1_555
H39_2 C69_2 1_555 1_555
C70_2 C63_2 1_555 1_555
H40_2 C70_2 1_555 1_555
C71_2 C69_2 1_555 1_555
C72_2 C71_2 1_555 1_555
C73_2 C72_2 1_555 1_555
H41_2 C73_2 1_555 1_555
C74_2 C73_2 1_555 1_555
H42_2 C74_2 1_555 1_555
C75_2 C74_2 1_555 1_555
C76_2 C75_2 1_555 1_555
H43_2 C76_2 1_555 1_555
C77_2 C72_2 1_555 1_555
H44_2 C77_2 1_555 1_555
C78_2 C55_2 1_555 1_555
H45_2 C78_2 1_555 1_555
C79_2 C80_2 1_555 1_555
C80_2 C44_2 1_555 1_555
C81_2 C75_2 1_555 1_555
O1_2 C1_2 1_555 1_555
O2_2 C1_2 1_555 1_555
O3_2 Co5_2 1_555 1_555
O4_2 C56_2 1_555 1_555
O5_2 C30_2 1_555 1_555
O6_2 C30_2 1_555 1_555
O7_2 C54_2 1_555 1_555
O8_2 C54_2 1_555 1_555
O11_2 C22_2 1_555 1_555
O12_2 C22_2 1_555 1_555
O13_2 C79_2 1_555 1_555
O14_2 C79_2 1_555 1_555
O54 C81_2 1_555 1_555
O18_2 Co25 1_555 1_555
O21_2 Co13 1_555 1_555
O23_2 Co25 1_555 1_555
O69 C81_2 1_555 1_555
O25_2 Co13 1_555 1_555
O26_2 Co5_2 1_555 1_555
O27_2 Co5_2 1_555 1_555
O29_2 Co25 1_555 1_555
Co1_3 O2_2 1_555 1_555
Co13 O8_2 1_555 1_555
Co5_2 O1_2 1_555 1_555
Co25 O7_2 1_555 1_555
C82_2 C86_2 1_555 1_555
C84_2 H46_2 1_555 1_555
C86_2 C84_2 1_555 1_555
C87_2 C86_2 1_555 1_555
H47_2 C87_2 1_555 1_555
C88_2 C87_2 1_555 1_555
H48_2 C88_2 1_555 1_555
C89_2 C84_2 1_555 1_555
H49_2 C89_2 1_555 1_555
C90_2 C88_2 1_555 1_555
C91_2 C90_2 1_555 1_555
C92_2 C91_2 1_555 1_555
H50_2 C92_2 1_555 1_555
C93_2 C92_2 1_555 1_555
C94_2 C93_2 1_555 1_555
H51_2 C94_2 1_555 1_555
C95_2 C94_2 1_555 1_555
C96_2 C91_2 1_555 1_555
H52_2 C96_2 1_555 1_555
C97_2 C95_2 1_555 1_555
C98_2 C97_2 1_555 1_555
H53_2 C98_2 1_555 1_555
C99_2 C97_2 1_555 1_555
H54_2 C99_2 1_555 1_555
C100_2 C98_2 1_555 1_555
H55_2 C100_2 1_555 1_555
C101_2 C99_2 1_555 1_555
H56_2 C101_2 1_555 1_555
C102_2 C100_2 1_555 1_555
C103_2 C102_2 1_555 1_555
C104_2 C93_2 1_555 1_555
C105_2 C104_2 1_555 1_555
H57_2 C105_2 1_555 1_555
C106_2 C105_2 1_555 1_555
H58_2 C106_2 1_555 1_555
C107_2 C104_2 1_555 1_555
H59_2 C107_2 1_555 1_555
C108_2 C106_2 1_555 1_555
C109_2 C107_2 1_555 1_555
H60_2 C109_2 1_555 1_555
C110_2 C108_2 1_555 1_555
C111_2 C112_2 1_555 1_555
C112_2 C113_2 1_555 1_555
C113_2 H61_2 1_555 1_555
C114_2 C113_2 1_555 1_555
H62_2 C114_2 1_555 1_555
C115_2 C112_2 1_555 1_555
H63_2 C115_2 1_555 1_555
C116_2 C115_2 1_555 1_555
H64_2 C116_2 1_555 1_555
C117_2 C114_2 1_555 1_555
C118_2 C117_2 1_555 1_555
C119_2 C118_2 1_555 1_555
H65_2 C119_2 1_555 1_555
C120_2 C119_2 1_555 1_555
C121_2 C118_2 1_555 1_555
H66_2 C121_2 1_555 1_555
C122_2 H67_2 1_555 1_555
C123_2 H68_2 1_555 1_555
C124_2 C120_2 1_555 1_555
C125_2 C122_2 1_555 1_555
H69_2 C125_2 1_555 1_555
C126_2 C123_2 1_555 1_555
H70_2 C126_2 1_555 1_555
C127_2 C121_2 1_555 1_555
C128_2 C120_2 1_555 1_555
H71_2 C128_2 1_555 1_555
C129_2 C127_2 1_555 1_555
C130_2 C129_2 1_555 1_555
H72_2 C130_2 1_555 1_555
C131_2 C129_2 1_555 1_555
H73_2 C131_2 1_555 1_555
C132_2 C131_2 1_555 1_555
H74_2 C132_2 1_555 1_555
C133_2 C132_2 1_555 1_555
C134_2 C130_2 1_555 1_555
H75_2 C134_2 1_555 1_555
C135_2 C133_2 1_555 1_555
C136_2 C137_2 1_555 1_555
C137_2 O33_2 1_555 1_555
C138_2 C136_2 1_555 1_555
H76_2 C138_2 1_555 1_555
C139_2 C138_2 1_555 1_555
H77_2 C139_2 1_555 1_555
C140_2 H78_2 1_555 1_555
C141_2 C139_2 1_555 1_555
C142_2 C141_2 1_555 1_555
C143_2 C142_2 1_555 1_555
H79_2 C143_2 1_555 1_555
C144_2 C143_2 1_555 1_555
C145_2 C144_2 1_555 1_555
C146_2 C145_2 1_555 1_555
H80_2 C146_2 1_555 1_555
C147_2 C145_2 1_555 1_555
H81_2 C147_2 1_555 1_555
C148_2 C83_2 1_555 1_555
H82_2 C148_2 1_555 1_555
C149_2 C83_2 1_555 1_555
H83_2 C149_2 1_555 1_555
C150_2 C142_2 1_555 1_555
H84_2 C150_2 1_555 1_555
C151_2 C144_2 1_555 1_555
H85_2 C151_2 1_555 1_555
C152_2 C150_2 1_555 1_555
C153_2 C152_2 1_555 1_555
C154_2 C153_2 1_555 1_555
H86_2 C154_2 1_555 1_555
C155_2 C154_2 1_555 1_555
H87_2 C155_2 1_555 1_555
C156_2 C155_2 1_555 1_555
C157_2 C156_2 1_555 1_555
H88_2 C157_2 1_555 1_555
C158_2 C153_2 1_555 1_555
H89_2 C158_2 1_555 1_555
C159_2 C136_2 1_555 1_555
H90_2 C159_2 1_555 1_555
C160_2 C161_2 1_555 1_555
C161_2 C125_2 1_555 1_555
C162_2 C156_2 1_555 1_555
O31_2 C82_2 1_555 1_555
O32_2 Co1_3 1_555 1_555
O33_2 Co22_2 1_555 1_555
O34_2 Co1_3 1_555 1_555
O35_2 Co1_3 1_555 1_555
O36_2 C111_2 1_555 1_555
O37_2 C135_2 1_555 1_555
O38_2 C135_2 1_555 1_555
O39_2 C110_2 1_555 1_555
O40_2 C110_2 1_555 1_555
O41_2 C103_2 1_555 1_555
O43_2 Co17_2 1_555 1_555
O44_2 C103_2 1_555 1_555
O46_2 Co7_2 1_555 1_555
O47_2 C160_2 1_555 1_555
O49_2 Co7_2 1_555 1_555
O50_2 C160_2 1_555 1_555
O52_2 Co17_2 1_555 1_555
O55 C162_2 1_555 1_555
O57_2 Co25 1_555 1_555
O58_2 Co27 1_555 1_555
O59_2 Co7_2 1_555 1_555
O60_2 Co27 1_555 1_555
O62_2 Co13 1_555 1_555
O63_2 Co15 1_555 1_555
O64_2 Co17_2 1_555 1_555
O65_2 Co15 1_555 1_555
O66_2 Co17_2 1_555 1_555
O67_2 Co27 1_555 1_555
O70 C162_2 1_555 1_555
O71_2 Co15 1_555 1_555
O72_2 Co22_2 1_555 1_555
O73_2 Co22_2 1_555 1_555
O74_2 Co17_2 1_555 1_555
O75_2 Co27 1_555 1_555
O76_2 Co7_2 1_555 1_555
Co7_2 O39_2 1_555 1_555
Co9 O12_2 1_555 1_555
Co8 O13_2 1_555 1_555
Co11 O44_2 1_555 1_555
Co10 O47_2 1_555 1_555
Co15 O38_2 1_555 1_555
Co17_2 O40_2 1_555 1_555
Co19 O11_2 1_555 1_555
Co18 O14_2 1_555 1_555
Co21 O41_2 1_555 1_555
Co20 O50_2 1_555 1_555
Co22_2 O31_2 1_555 1_555
Co27 O37_2 1_555 1_555
C8_2 C9_2 1_555 1_555
C14_2 C15_2 1_555 1_555
C20_2 C21_2 1_555 1_555
C35_2 C36_2 1_555 1_555
C41_2 C43_2 1_555 1_555
C42_2 C43_2 1_555 1_555
C45_2 C80_2 1_555 1_555
C46_2 C47_2 1_555 1_555
C52_2 C53_2 1_555 1_555
C59_2 C60_2 1_555 1_555
C59_2 C78_2 1_555 1_555
C65_2 C68_2 1_555 1_555
C66_2 C67_2 1_555 1_555
C70_2 C71_2 1_555 1_555
C76_2 C77_2 1_555 1_555
O4_2 Co1_3 1_555 1_555
O5_2 Co1_3 1_555 1_555
O5_2 Co5_2 1_555 1_555
O6_2 Co5_2 1_555 1_555
C82_2 O32_2 1_555 1_555
C89_2 C90_2 1_555 1_555
C95_2 C96_2 1_555 1_555
C101_2 C102_2 1_555 1_555
C108_2 C109_2 1_555 1_555
C111_2 O35_2 1_555 1_555
C116_2 C117_2 1_555 1_555
C122_2 C124_2 1_555 1_555
C123_2 C124_2 1_555 1_555
C126_2 C161_2 1_555 1_555
C127_2 C128_2 1_555 1_555
C133_2 C134_2 1_555 1_555
C137_2 O34_2 1_555 1_555
C140_2 C141_2 1_555 1_555
C140_2 C159_2 1_555 1_555
C146_2 C149_2 1_555 1_555
C147_2 C148_2 1_555 1_555
C151_2 C152_2 1_555 1_555
C157_2 C158_2 1_555 1_555
O35_2 Co22_2 1_555 1_555
O36_2 Co22_2 1_555 1_555
O40_2 Co7_2 1_555 1_555
O65_2 H91_2 1_555 1_555
O65_2 H92_2 1_555 1_555
O67_2 H93_2 1_555 1_555
O67_2 H94_2 1_555 1_555
O66_2 H95_2 1_555 1_555
O66_2 H96_2 1_555 1_555
O60_2 H97_2 1_555 1_555
O60_2 H98_2 1_555 1_555
O59_2 H99_2 1_555 1_555
O59_2 H100_2 1_555 1_555
O64_2 H101_2 1_555 1_555
O64_2 H102_2 1_555 1_555
O72_2 H103_2 1_555 1_555
O72_2 H104_2 1_555 1_555
O74_2 H105_2 1_555 1_555
O74_2 H106_2 1_555 1_555
O75_2 H107_2 1_555 1_555
O75_2 H108_2 1_555 1_555
O71_2 H109_2 1_555 1_555
O71_2 H110_2 1_555 1_555
O76_2 H111_2 1_555 1_555
O76_2 H112_2 1_555 1_555
O73_2 H113_2 1_555 1_555
O73_2 H114_2 1_555 1_555
O25_2 H115_2 1_555 1_555
O25_2 H116_2 1_555 1_555
O27_2 H117_2 1_555 1_555
O27_2 H118_2 1_555 1_555
O23_2 H121_2 1_555 1_555
O23_2 H122_2 1_555 1_555
O29_2 H123_2 1_555 1_555
O29_2 H124_2 1_555 1_555
O26_2 H131_2 1_555 1_555
O26_2 H132_2 1_555 1_555
O21_2 H133_2 1_555 1_555
O21_2 H134_2 1_555 1_555
O18_2 H135_2 1_555 1_555
O18_2 H136_2 1_555 1_555
H13_2 C25_2 1_555 1_555
C27_2 C25_2 1_555 1_555
H15_2 C28_4 1_555 1_555
C29_2 C27_2 1_555 1_555
O9_2 C29_2 1_555 1_555
O10_2 C29_2 1_555 1_555
O17_2 Co2_2 1_555 1_555
O20_2 Co4_2 1_555 1_555
O22_2 Co4_2 1_555 1_555
O28_2 Co4_2 1_555 1_555
O30 Co2_2 1_555 1_555
Co2_2 O9_2 1_555 1_555
Co4_2 O10_2 1_555 1_555
O42_2 Co4_2 1_555 1_555
O45_2 Co2_2 1_555 1_555
O48_2 Co2_2 1_555 1_555
O51_2 Co4_2 1_555 1_555
C27_2 C28_4 1_555 1_555
O10_2 Co2_2 1_555 1_555
O22_2 H119_2 1_555 1_555
O22_2 H120_2 1_555 1_555
O30 H125 1_555 1_555
O30 H126 1_555 1_555
O17_2 H127_2 1_555 1_555
O17_2 H128_2 1_555 1_555
O20_2 H129_2 1_555 1_555
O20_2 H130_2 1_555 1_555
O28_2 H137_2 1_555 1_555
O28_2 H138_2 1_555 1_555
H10_3 C19_3 1_555 1_555
H11_3 C20_3 1_555 1_555
C21_3 C19_3 1_555 1_555
C22_3 C21_3 1_555 1_555
O43 C22_3 1_555 1_555
O46 C22_3 1_555 1_555
O55_2 Co14_2 1_555 1_555
O65_3 Co14_2 1_555 1_555
O70_2 Co14_2 1_555 1_555
O71_3 Co14_2 1_555 1_555
C20_3 C21_3 1_555 1_555
O65_3 H91_3 1_555 1_555
O65_3 H92_3 1_555 1_555
O60_3 H97_3 1_555 1_555
O60_3 H98_3 1_555 1_555
O71_3 H109_3 1_555 1_555
O71_3 H110_3 1_555 1_555
C4_3 O58_2 1_555 1_555
H13_3 C25_3 1_555 1_555
C27_3 C25_3 1_555 1_555
H15_3 C28_5 1_555 1_555
C29_3 C27_3 1_555 1_555
O9_3 C29_3 1_555 1_555
O10_3 C29_3 1_555 1_555
O17_3 Co10 1_555 1_555
O63_2 C4_3 1_555 1_555
O20_3 Co20 1_555 1_555
O22_3 Co20 1_555 1_555
O28_3 Co20 1_555 1_555
Co10 O9_3 1_555 1_555
Co20 O10_3 1_555 1_555
C27_3 C28_5 1_555 1_555
O10_3 Co10 1_555 1_555
O22_3 H119_3 1_555 1_555
O22_3 H120_3 1_555 1_555
O17_3 H127_3 1_555 1_555
O17_3 H128_3 1_555 1_555
O20_3 H129_3 1_555 1_555
O20_3 H130_3 1_555 1_555
O28_3 H137_3 1_555 1_555
O28_3 H138_3 1_555 1_555
C1_3 C5_3 1_555 1_555
C3_3 H1_3 1_555 1_555
C5_3 C3_3 1_555 1_555
C6_3 C5_3 1_555 1_555
H2_3 C6_3 1_555 1_555
C7_3 C6_3 1_555 1_555
H3_3 C7_3 1_555 1_555
C8_3 C3_3 1_555 1_555
H4_3 C8_3 1_555 1_555
C9_3 C7_3 1_555 1_555
C10_3 C9_3 1_555 1_555
C11_3 C10_3 1_555 1_555
H5_3 C11_3 1_555 1_555
C12_3 C11_3 1_555 1_555
C13_3 C12_3 1_555 1_555
H6_3 C13_3 1_555 1_555
C14_3 C13_3 1_555 1_555
C15_3 C10_3 1_555 1_555
H7_3 C15_3 1_555 1_555
C16_3 C14_3 1_555 1_555
C17_3 C16_3 1_555 1_555
H8_3 C17_3 1_555 1_555
C18_3 C16_3 1_555 1_555
H9_3 C18_3 1_555 1_555
C23_3 C12_3 1_555 1_555
C24_3 C23_3 1_555 1_555
H12_3 C24_3 1_555 1_555
C26_3 C23_3 1_555 1_555
H14_3 C26_3 1_555 1_555
C28_6 C26_3 1_555 1_555
C55_3 C56_3 1_555 1_555
C56_3 O3_3 1_555 1_555
C57_3 C55_3 1_555 1_555
H31_3 C57_3 1_555 1_555
C58_3 C57_3 1_555 1_555
H32_3 C58_3 1_555 1_555
C59_3 H33_3 1_555 1_555
C60_3 C58_3 1_555 1_555
C61_3 C60_3 1_555 1_555
C62_3 C61_3 1_555 1_555
H34_3 C62_3 1_555 1_555
C63_3 C62_3 1_555 1_555
C64_3 C63_3 1_555 1_555
C65_3 C64_3 1_555 1_555
H35_3 C65_3 1_555 1_555
C66_3 C64_3 1_555 1_555
H36_3 C66_3 1_555 1_555
C67_3 C2_3 1_555 1_555
H37_3 C67_3 1_555 1_555
C68_3 C2_3 1_555 1_555
H38_3 C68_3 1_555 1_555
C69_3 C61_3 1_555 1_555
H39_3 C69_3 1_555 1_555
C70_3 C63_3 1_555 1_555
H40_3 C70_3 1_555 1_555
C71_3 C69_3 1_555 1_555
C72_3 C71_3 1_555 1_555
C73_3 C72_3 1_555 1_555
H41_3 C73_3 1_555 1_555
C74_3 C73_3 1_555 1_555
H42_3 C74_3 1_555 1_555
C75_3 C74_3 1_555 1_555
C76_3 C75_3 1_555 1_555
H43_3 C76_3 1_555 1_555
C77_3 C72_3 1_555 1_555
H44_3 C77_3 1_555 1_555
C78_3 C55_3 1_555 1_555
H45_3 C78_3 1_555 1_555
C81_3 C75_3 1_555 1_555
O1_3 C1_3 1_555 1_555
O2_3 C1_3 1_555 1_555
O4_3 C56_3 1_555 1_555
O15_2 C81_3 1_555 1_555
O24_2 C81_3 1_555 1_555
Co1_4 O2_3 1_555 1_555
C111_3 C112_3 1_555 1_555
C112_3 C113_3 1_555 1_555
C113_3 H61_3 1_555 1_555
C114_3 C113_3 1_555 1_555
H62_3 C114_3 1_555 1_555
C115_3 C112_3 1_555 1_555
H63_3 C115_3 1_555 1_555
C116_3 C115_3 1_555 1_555
H64_3 C116_3 1_555 1_555
C117_3 C114_3 1_555 1_555
C118_3 C117_3 1_555 1_555
C119_3 C118_3 1_555 1_555
H65_3 C119_3 1_555 1_555
C120_3 C119_3 1_555 1_555
C121_3 C118_3 1_555 1_555
H66_3 C121_3 1_555 1_555
C122_3 H67_3 1_555 1_555
C123_3 H68_3 1_555 1_555
C124_3 C120_3 1_555 1_555
C125_3 C122_3 1_555 1_555
H69_3 C125_3 1_555 1_555
C126_3 C123_3 1_555 1_555
H70_3 C126_3 1_555 1_555
C127_3 C121_3 1_555 1_555
C128_3 C120_3 1_555 1_555
H71_3 C128_3 1_555 1_555
C129_3 C127_3 1_555 1_555
C130_3 C129_3 1_555 1_555
H72_3 C130_3 1_555 1_555
C131_3 C129_3 1_555 1_555
H73_3 C131_3 1_555 1_555
C132_3 C131_3 1_555 1_555
H74_3 C132_3 1_555 1_555
C133_3 C132_3 1_555 1_555
C134_3 C130_3 1_555 1_555
H75_3 C134_3 1_555 1_555
C135_3 C133_3 1_555 1_555
C160_3 C161_3 1_555 1_555
C161_3 C125_3 1_555 1_555
O35_3 Co1_4 1_555 1_555
O36_3 C111_3 1_555 1_555
O37_3 C135_3 1_555 1_555
O38_3 C135_3 1_555 1_555
O48_2 C160_3 1_555 1_555
O51_2 C160_3 1_555 1_555
O67_3 Co24_2 1_555 1_555
O72_3 Co22_3 1_555 1_555
O73_3 Co22_3 1_555 1_555
O75_3 Co24_2 1_555 1_555
Co16 O15_2 1_555 1_555
Co24_2 O37_3 1_555 1_555
Co26 O24_2 1_555 1_555
C8_3 C9_3 1_555 1_555
C14_3 C15_3 1_555 1_555
C59_3 C60_3 1_555 1_555
C59_3 C78_3 1_555 1_555
C65_3 C68_3 1_555 1_555
C66_3 C67_3 1_555 1_555
C70_3 C71_3 1_555 1_555
C76_3 C77_3 1_555 1_555
O4_3 Co1_4 1_555 1_555
O24_2 Co16 1_555 1_555
C111_3 O35_3 1_555 1_555
C116_3 C117_3 1_555 1_555
C122_3 C124_3 1_555 1_555
C123_3 C124_3 1_555 1_555
C126_3 C161_3 1_555 1_555
C127_3 C128_3 1_555 1_555
C133_3 C134_3 1_555 1_555
O35_3 Co22_3 1_555 1_555
O36_3 Co22_3 1_555 1_555
O67_3 H93_3 1_555 1_555
O67_3 H94_3 1_555 1_555
O72_3 H104_3 1_555 1_555
O75_3 H107_3 1_555 1_555
O75_3 H108_3 1_555 1_555
O73_3 H113_3 1_555 1_555
O73_3 H114_3 1_555 1_555
O21_3 Co16_2 1_555 1_555
O25_3 Co16_2 1_555 1_555
H55_3 C100_3 1_555 1_555
H56_3 C101_3 1_555 1_555
C102_3 C100_3 1_555 1_555
C103_3 C102_3 1_555 1_555
O42 C103_3 1_555 1_555
O45 C103_3 1_555 1_555
O54_2 Co16_2 1_555 1_555
O69_2 Co16_2 1_555 1_555
C101_3 C102_3 1_555 1_555
O76_3 H111_3 1_555 1_555
O76_3 H112_3 1_555 1_555
O25_3 H115_3 1_555 1_555
O25_3 H116_3 1_555 1_555
O21_3 H133_3 1_555 1_555
O21_3 H134_3 1_555 1_555
O18_3 H135_3 1_555 1_555
O18_3 H136_3 1_555 1_555
C30_3 C31_3 1_555 1_555
C31_3 C32_3 1_555 1_555
C32_3 H16_3 1_555 1_555
C33_3 C32_3 1_555 1_555
H17_3 C33_3 1_555 1_555
C34_3 C31_3 1_555 1_555
H18_3 C34_3 1_555 1_555
C35_3 C34_3 1_555 1_555
H19_3 C35_3 1_555 1_555
C36_3 C33_3 1_555 1_555
C37_3 C36_3 1_555 1_555
C38_3 C37_3 1_555 1_555
H20_3 C38_3 1_555 1_555
C39_3 C38_3 1_555 1_555
C40_3 C37_3 1_555 1_555
H21_3 C40_3 1_555 1_555
C41_3 H22_3 1_555 1_555
C42_3 H23_3 1_555 1_555
C43_3 C39_3 1_555 1_555
C44_3 C41_3 1_555 1_555
H24_3 C44_3 1_555 1_555
C45_3 C42_3 1_555 1_555
H25_3 C45_3 1_555 1_555
C46_3 C40_3 1_555 1_555
C47_3 C39_3 1_555 1_555
H26_3 C47_3 1_555 1_555
C48_3 C46_3 1_555 1_555
C49_3 C48_3 1_555 1_555
H27_3 C49_3 1_555 1_555
C50_3 C48_3 1_555 1_555
H28_3 C50_3 1_555 1_555
C51_3 C50_3 1_555 1_555
H29_3 C51_3 1_555 1_555
C52_3 C51_3 1_555 1_555
C53_3 C49_3 1_555 1_555
H30_3 C53_3 1_555 1_555
C54_3 C52_3 1_555 1_555
C79_3 C80_3 1_555 1_555
C80_3 C44_3 1_555 1_555
O5_3 C30_3 1_555 1_555
O6_3 C30_3 1_555 1_555
O7_3 C54_3 1_555 1_555
O8_3 C54_3 1_555 1_555
O49_2 C79_3 1_555 1_555
O52_2 C79_3 1_555 1_555
O23_3 Co26_2 1_555 1_555
O26_3 Co5_3 1_555 1_555
O27_3 Co5_3 1_555 1_555
O29_3 Co26_2 1_555 1_555
Co26_2 O7_3 1_555 1_555
C82_3 C86_3 1_555 1_555
C83_3 C85_3 1_555 1_555
C84_3 H46_3 1_555 1_555
C85_3 O57_2 1_555 1_555
C86_3 C84_3 1_555 1_555
C87_3 C86_3 1_555 1_555
H47_3 C87_3 1_555 1_555
C88_3 C87_3 1_555 1_555
H48_3 C88_3 1_555 1_555
C89_3 C84_3 1_555 1_555
H49_3 C89_3 1_555 1_555
C90_3 C88_3 1_555 1_555
C91_3 C90_3 1_555 1_555
C92_3 C91_3 1_555 1_555
H50_3 C92_3 1_555 1_555
C93_3 C92_3 1_555 1_555
C94_3 C93_3 1_555 1_555
H51_3 C94_3 1_555 1_555
C95_3 C94_3 1_555 1_555
C96_3 C91_3 1_555 1_555
H52_3 C96_3 1_555 1_555
C97_3 C95_3 1_555 1_555
C98_3 C97_3 1_555 1_555
H53_3 C98_3 1_555 1_555
C99_3 C97_3 1_555 1_555
H54_3 C99_3 1_555 1_555
C104_3 C93_3 1_555 1_555
C105_3 C104_3 1_555 1_555
H57_3 C105_3 1_555 1_555
C106_3 C105_3 1_555 1_555
H58_3 C106_3 1_555 1_555
C107_3 C104_3 1_555 1_555
H59_3 C107_3 1_555 1_555
C108_3 C106_3 1_555 1_555
C109_3 C107_3 1_555 1_555
H60_3 C109_3 1_555 1_555
C110_3 C108_3 1_555 1_555
C136_3 C137_3 1_555 1_555
C137_3 O33_3 1_555 1_555
C138_3 C136_3 1_555 1_555
H76_3 C138_3 1_555 1_555
C139_3 C138_3 1_555 1_555
H77_3 C139_3 1_555 1_555
C140_3 H78_3 1_555 1_555
C141_3 C139_3 1_555 1_555
C142_3 C141_3 1_555 1_555
C143_3 C142_3 1_555 1_555
H79_3 C143_3 1_555 1_555
C144_3 C143_3 1_555 1_555
C145_3 C144_3 1_555 1_555
C146_3 C145_3 1_555 1_555
H80_3 C146_3 1_555 1_555
C147_3 C145_3 1_555 1_555
H81_3 C147_3 1_555 1_555
C148_3 C83_3 1_555 1_555
H82_3 C148_3 1_555 1_555
C149_3 C83_3 1_555 1_555
H83_3 C149_3 1_555 1_555
C150_3 C142_3 1_555 1_555
H84_3 C150_3 1_555 1_555
C151_3 C144_3 1_555 1_555
H85_3 C151_3 1_555 1_555
C152_3 C150_3 1_555 1_555
C153_3 C152_3 1_555 1_555
C154_3 C153_3 1_555 1_555
H86_3 C154_3 1_555 1_555
C155_3 C154_3 1_555 1_555
H87_3 C155_3 1_555 1_555
C156_3 C155_3 1_555 1_555
C157_3 C156_3 1_555 1_555
H88_3 C157_3 1_555 1_555
C158_3 C153_3 1_555 1_555
H89_3 C158_3 1_555 1_555
C159_3 C136_3 1_555 1_555
H90_3 C159_3 1_555 1_555
C162_3 C156_3 1_555 1_555
O31_3 C82_3 1_555 1_555
O32_3 Co1_5 1_555 1_555
O34_3 Co1_5 1_555 1_555
O39_3 C110_3 1_555 1_555
O40_3 C110_3 1_555 1_555
O53_2 C162_3 1_555 1_555
O59_3 Co8 1_555 1_555
O62_2 C85_3 1_555 1_555
O64_3 Co18 1_555 1_555
O66_3 Co18 1_555 1_555
O68_2 C162_3 1_555 1_555
O74_3 Co18 1_555 1_555
Co8 O39_3 1_555 1_555
Co14 O53_2 1_555 1_555
Co18 O40_3 1_555 1_555
Co24 O68_2 1_555 1_555
C35_3 C36_3 1_555 1_555
C41_3 C43_3 1_555 1_555
C42_3 C43_3 1_555 1_555
C45_3 C80_3 1_555 1_555
C46_3 C47_3 1_555 1_555
C52_3 C53_3 1_555 1_555
O5_3 Co1_5 1_555 1_555
O5_3 Co5_3 1_555 1_555
O6_3 Co5_3 1_555 1_555
C82_3 O32_3 1_555 1_555
C89_3 C90_3 1_555 1_555
C95_3 C96_3 1_555 1_555
C108_3 C109_3 1_555 1_555
C137_3 O34_3 1_555 1_555
C140_3 C141_3 1_555 1_555
C140_3 C159_3 1_555 1_555
C146_3 C149_3 1_555 1_555
C147_3 C148_3 1_555 1_555
C151_3 C152_3 1_555 1_555
C157_3 C158_3 1_555 1_555
O40_3 Co8 1_555 1_555
O68_2 Co14 1_555 1_555
O66_3 H95_3 1_555 1_555
O66_3 H96_3 1_555 1_555
O59_3 H99_3 1_555 1_555
O59_3 H100_3 1_555 1_555
O64_3 H101_3 1_555 1_555
O64_3 H102_3 1_555 1_555
O74_3 H105_3 1_555 1_555
O74_3 H106_3 1_555 1_555
O27_3 H117_3 1_555 1_555
O27_3 H118_3 1_555 1_555
O23_3 H121_3 1_555 1_555
O23_3 H122_3 1_555 1_555
O29_3 H123_3 1_555 1_555
O29_3 H124_3 1_555 1_555
O26_3 H132_3 1_555 1_555
H13_4 C25_4 1_555 1_555
C27_4 C25_4 1_555 1_555
H15_4 C28_7 1_555 1_555
C29_4 C27_4 1_555 1_555
O9_4 C29_4 1_555 1_555
O10_4 C29_4 1_555 1_555
O17_4 Co11 1_555 1_555
O20_4 Co21 1_555 1_555
O22_4 Co21 1_555 1_555
O28_4 Co21 1_555 1_555
O30_2 Co11 1_555 1_555
Co11 O9_4 1_555 1_555
Co21 O10_4 1_555 1_555
C27_4 C28_7 1_555 1_555
O10_4 Co11 1_555 1_555
O22_4 H119_4 1_555 1_555
O22_4 H120_4 1_555 1_555
O30_2 H125_2 1_555 1_555
O30_2 H126_2 1_555 1_555
O17_4 H127_4 1_555 1_555
O17_4 H128_4 1_555 1_555
O20_4 H129_4 1_555 1_555
O20_4 H130_4 1_555 1_555
O28_4 H137_4 1_555 1_555
O28_4 H138_4 1_555 1_555
C1_4 C5_4 1_555 1_555
C3_4 H1_4 1_555 1_555
C5_4 C3_4 1_555 1_555
C6_4 C5_4 1_555 1_555
H2_4 C6_4 1_555 1_555
C7_4 C6_4 1_555 1_555
H3_4 C7_4 1_555 1_555
C8_4 C3_4 1_555 1_555
H4_4 C8_4 1_555 1_555
C9_4 C7_4 1_555 1_555
C10_4 C9_4 1_555 1_555
C11_4 C10_4 1_555 1_555
H5_4 C11_4 1_555 1_555
C12_4 C11_4 1_555 1_555
C13_4 C12_4 1_555 1_555
H6_4 C13_4 1_555 1_555
C14_4 C13_4 1_555 1_555
C15_4 C10_4 1_555 1_555
H7_4 C15_4 1_555 1_555
C16_4 C14_4 1_555 1_555
C17_4 C16_4 1_555 1_555
H8_4 C17_4 1_555 1_555
C18_4 C16_4 1_555 1_555
H9_4 C18_4 1_555 1_555
C19_4 C17_4 1_555 1_555
H10_4 C19_4 1_555 1_555
C20_4 C18_4 1_555 1_555
H11_4 C20_4 1_555 1_555
C21_4 C19_4 1_555 1_555
C22_4 C21_4 1_555 1_555
C23_4 C12_4 1_555 1_555
C24_4 C23_4 1_555 1_555
H12_4 C24_4 1_555 1_555
C26_4 C23_4 1_555 1_555
H14_4 C26_4 1_555 1_555
C28_8 C26_4 1_555 1_555
C30_4 C31_4 1_555 1_555
C31_4 C32_4 1_555 1_555
C32_4 H16_4 1_555 1_555
C33_4 C32_4 1_555 1_555
H17_4 C33_4 1_555 1_555
C34_4 C31_4 1_555 1_555
H18_4 C34_4 1_555 1_555
C35_4 C34_4 1_555 1_555
H19_4 C35_4 1_555 1_555
C36_4 C33_4 1_555 1_555
C37_4 C36_4 1_555 1_555
C38_4 C37_4 1_555 1_555
H20_4 C38_4 1_555 1_555
C39_4 C38_4 1_555 1_555
C40_4 C37_4 1_555 1_555
H21_4 C40_4 1_555 1_555
C41_4 H22_4 1_555 1_555
C42_4 H23_4 1_555 1_555
C43_4 C39_4 1_555 1_555
C44_4 C41_4 1_555 1_555
H24_4 C44_4 1_555 1_555
C45_4 C42_4 1_555 1_555
H25_4 C45_4 1_555 1_555
C46_4 C40_4 1_555 1_555
C47_4 C39_4 1_555 1_555
H26_4 C47_4 1_555 1_555
C48_4 C46_4 1_555 1_555
C49_4 C48_4 1_555 1_555
H27_4 C49_4 1_555 1_555
C50_4 C48_4 1_555 1_555
H28_4 C50_4 1_555 1_555
C51_4 C50_4 1_555 1_555
H29_4 C51_4 1_555 1_555
C52_4 C51_4 1_555 1_555
C53_4 C49_4 1_555 1_555
H30_4 C53_4 1_555 1_555
C54_4 C52_4 1_555 1_555
C55_4 C56_4 1_555 1_555
C56_4 O3_4 1_555 1_555
C57_4 C55_4 1_555 1_555
H31_4 C57_4 1_555 1_555
C58_4 C57_4 1_555 1_555
H32_4 C58_4 1_555 1_555
C59_4 H33_4 1_555 1_555
C60_4 C58_4 1_555 1_555
C61_4 C60_4 1_555 1_555
C62_4 C61_4 1_555 1_555
H34_4 C62_4 1_555 1_555
C63_4 C62_4 1_555 1_555
C64_4 C63_4 1_555 1_555
C65_4 C64_4 1_555 1_555
H35_4 C65_4 1_555 1_555
C66_4 C64_4 1_555 1_555
H36_4 C66_4 1_555 1_555
C67_4 C2_4 1_555 1_555
H37_4 C67_4 1_555 1_555
C68_4 C2_4 1_555 1_555
H38_4 C68_4 1_555 1_555
C69_4 C61_4 1_555 1_555
H39_4 C69_4 1_555 1_555
C70_4 C63_4 1_555 1_555
H40_4 C70_4 1_555 1_555
C71_4 C69_4 1_555 1_555
C72_4 C71_4 1_555 1_555
C73_4 C72_4 1_555 1_555
H41_4 C73_4 1_555 1_555
C74_4 C73_4 1_555 1_555
H42_4 C74_4 1_555 1_555
C75_4 C74_4 1_555 1_555
C76_4 C75_4 1_555 1_555
H43_4 C76_4 1_555 1_555
C77_4 C72_4 1_555 1_555
H44_4 C77_4 1_555 1_555
C78_4 C55_4 1_555 1_555
H45_4 C78_4 1_555 1_555
C79_4 C80_4 1_555 1_555
C80_4 C44_4 1_555 1_555
C81_4 C75_4 1_555 1_555
O1_4 C1_4 1_555 1_555
O2_4 C1_4 1_555 1_555
O3_4 Co5_4 1_555 1_555
O4_4 C56_4 1_555 1_555
O5_4 C30_4 1_555 1_555
O6_4 C30_4 1_555 1_555
O7_4 C54_4 1_555 1_555
O8_4 C54_4 1_555 1_555
O43_2 C22_4 1_555 1_555
O46_2 C22_4 1_555 1_555
O49 C79_4 1_555 1_555
O52 C79_4 1_555 1_555
O54_2 C81_4 1_555 1_555
O18_4 Co26 1_555 1_555
O21_4 Co16 1_555 1_555
O23_4 Co26 1_555 1_555
O69_2 C81_4 1_555 1_555
O25_4 Co16 1_555 1_555
O26_4 Co5_4 1_555 1_555
O27_4 Co5_4 1_555 1_555
O29_4 Co26 1_555 1_555
Co1_6 O2_4 1_555 1_555
Co16 O8_4 1_555 1_555
Co5_4 O1_4 1_555 1_555
Co26 O7_4 1_555 1_555
C82_4 C86_4 1_555 1_555
C84_4 H46_4 1_555 1_555
C86_4 C84_4 1_555 1_555
C87_4 C86_4 1_555 1_555
H47_4 C87_4 1_555 1_555
C88_4 C87_4 1_555 1_555
H48_4 C88_4 1_555 1_555
C89_4 C84_4 1_555 1_555
H49_4 C89_4 1_555 1_555
C90_4 C88_4 1_555 1_555
C91_4 C90_4 1_555 1_555
C92_4 C91_4 1_555 1_555
H50_4 C92_4 1_555 1_555
C93_4 C92_4 1_555 1_555
C94_4 C93_4 1_555 1_555
H51_4 C94_4 1_555 1_555
C95_4 C94_4 1_555 1_555
C96_4 C91_4 1_555 1_555
H52_4 C96_4 1_555 1_555
C97_4 C95_4 1_555 1_555
C98_4 C97_4 1_555 1_555
H53_4 C98_4 1_555 1_555
C99_4 C97_4 1_555 1_555
H54_4 C99_4 1_555 1_555
C100_4 C98_4 1_555 1_555
H55_4 C100_4 1_555 1_555
C101_4 C99_4 1_555 1_555
H56_4 C101_4 1_555 1_555
C102_4 C100_4 1_555 1_555
C103_4 C102_4 1_555 1_555
C104_4 C93_4 1_555 1_555
C105_4 C104_4 1_555 1_555
H57_4 C105_4 1_555 1_555
C106_4 C105_4 1_555 1_555
H58_4 C106_4 1_555 1_555
C107_4 C104_4 1_555 1_555
H59_4 C107_4 1_555 1_555
C108_4 C106_4 1_555 1_555
C109_4 C107_4 1_555 1_555
H60_4 C109_4 1_555 1_555
C110_4 C108_4 1_555 1_555
C111_4 C112_4 1_555 1_555
C112_4 C113_4 1_555 1_555
C113_4 H61_4 1_555 1_555
C114_4 C113_4 1_555 1_555
H62_4 C114_4 1_555 1_555
C115_4 C112_4 1_555 1_555
H63_4 C115_4 1_555 1_555
C116_4 C115_4 1_555 1_555
H64_4 C116_4 1_555 1_555
C117_4 C114_4 1_555 1_555
C118_4 C117_4 1_555 1_555
C119_4 C118_4 1_555 1_555
H65_4 C119_4 1_555 1_555
C120_4 C119_4 1_555 1_555
C121_4 C118_4 1_555 1_555
H66_4 C121_4 1_555 1_555
C122_4 H67_4 1_555 1_555
C123_4 H68_4 1_555 1_555
C124_4 C120_4 1_555 1_555
C125_4 C122_4 1_555 1_555
H69_4 C125_4 1_555 1_555
C126_4 C123_4 1_555 1_555
H70_4 C126_4 1_555 1_555
C127_4 C121_4 1_555 1_555
C128_4 C120_4 1_555 1_555
H71_4 C128_4 1_555 1_555
C129_4 C127_4 1_555 1_555
C130_4 C129_4 1_555 1_555
H72_4 C130_4 1_555 1_555
C131_4 C129_4 1_555 1_555
H73_4 C131_4 1_555 1_555
C132_4 C131_4 1_555 1_555
H74_4 C132_4 1_555 1_555
C133_4 C132_4 1_555 1_555
C134_4 C130_4 1_555 1_555
H75_4 C134_4 1_555 1_555
C135_4 C133_4 1_555 1_555
C136_4 C137_4 1_555 1_555
C137_4 O33_4 1_555 1_555
C138_4 C136_4 1_555 1_555
H76_4 C138_4 1_555 1_555
C139_4 C138_4 1_555 1_555
H77_4 C139_4 1_555 1_555
C140_4 H78_4 1_555 1_555
C141_4 C139_4 1_555 1_555
C142_4 C141_4 1_555 1_555
C143_4 C142_4 1_555 1_555
H79_4 C143_4 1_555 1_555
C144_4 C143_4 1_555 1_555
C145_4 C144_4 1_555 1_555
C146_4 C145_4 1_555 1_555
H80_4 C146_4 1_555 1_555
C147_4 C145_4 1_555 1_555
H81_4 C147_4 1_555 1_555
C148_4 C83_4 1_555 1_555
H82_4 C148_4 1_555 1_555
C149_4 C83_4 1_555 1_555
H83_4 C149_4 1_555 1_555
C150_4 C142_4 1_555 1_555
H84_4 C150_4 1_555 1_555
C151_4 C144_4 1_555 1_555
H85_4 C151_4 1_555 1_555
C152_4 C150_4 1_555 1_555
C153_4 C152_4 1_555 1_555
C154_4 C153_4 1_555 1_555
H86_4 C154_4 1_555 1_555
C155_4 C154_4 1_555 1_555
H87_4 C155_4 1_555 1_555
C156_4 C155_4 1_555 1_555
C157_4 C156_4 1_555 1_555
H88_4 C157_4 1_555 1_555
C158_4 C153_4 1_555 1_555
H89_4 C158_4 1_555 1_555
C159_4 C136_4 1_555 1_555
H90_4 C159_4 1_555 1_555
C160_4 C161_4 1_555 1_555
C161_4 C125_4 1_555 1_555
C162_4 C156_4 1_555 1_555
O31_4 C82_4 1_555 1_555
O32_4 Co1_6 1_555 1_555
O33_4 Co22_4 1_555 1_555
O34_4 Co1_6 1_555 1_555
O35_4 Co1_6 1_555 1_555
O36_4 C111_4 1_555 1_555
O37_4 C135_4 1_555 1_555
O38_4 C135_4 1_555 1_555
O39_4 C110_4 1_555 1_555
O40_4 C110_4 1_555 1_555
O42_2 C103_4 1_555 1_555
O45_2 C103_4 1_555 1_555
O48 C160_4 1_555 1_555
O51 C160_4 1_555 1_555
O55_2 C162_4 1_555 1_555
O59_4 Co9 1_555 1_555
O60_4 Co24 1_555 1_555
O64_4 Co19 1_555 1_555
O65_4 Co14 1_555 1_555
O66_4 Co19 1_555 1_555
O67_4 Co24 1_555 1_555
O70_2 C162_4 1_555 1_555
O71_4 Co14 1_555 1_555
O72_4 Co22_4 1_555 1_555
O73_4 Co22_4 1_555 1_555
O74_4 Co19 1_555 1_555
O75_4 Co24 1_555 1_555
O76_4 Co9 1_555 1_555
Co9 O39_4 1_555 1_555
Co14 O38_4 1_555 1_555
Co19 O40_4 1_555 1_555
Co22_4 O31_4 1_555 1_555
Co24 O37_4 1_555 1_555
C8_4 C9_4 1_555 1_555
C14_4 C15_4 1_555 1_555
C20_4 C21_4 1_555 1_555
C35_4 C36_4 1_555 1_555
C41_4 C43_4 1_555 1_555
C42_4 C43_4 1_555 1_555
C45_4 C80_4 1_555 1_555
C46_4 C47_4 1_555 1_555
C52_4 C53_4 1_555 1_555
C59_4 C60_4 1_555 1_555
C59_4 C78_4 1_555 1_555
C65_4 C68_4 1_555 1_555
C66_4 C67_4 1_555 1_555
C70_4 C71_4 1_555 1_555
C76_4 C77_4 1_555 1_555
O4_4 Co1_6 1_555 1_555
O5_4 Co1_6 1_555 1_555
O5_4 Co5_4 1_555 1_555
O6_4 Co5_4 1_555 1_555
C82_4 O32_4 1_555 1_555
C89_4 C90_4 1_555 1_555
C95_4 C96_4 1_555 1_555
C101_4 C102_4 1_555 1_555
C108_4 C109_4 1_555 1_555
C111_4 O35_4 1_555 1_555
C116_4 C117_4 1_555 1_555
C122_4 C124_4 1_555 1_555
C123_4 C124_4 1_555 1_555
C126_4 C161_4 1_555 1_555
C127_4 C128_4 1_555 1_555
C133_4 C134_4 1_555 1_555
C137_4 O34_4 1_555 1_555
C140_4 C141_4 1_555 1_555
C140_4 C159_4 1_555 1_555
C146_4 C149_4 1_555 1_555
C147_4 C148_4 1_555 1_555
C151_4 C152_4 1_555 1_555
C157_4 C158_4 1_555 1_555
O35_4 Co22_4 1_555 1_555
O36_4 Co22_4 1_555 1_555
O40_4 Co9 1_555 1_555
O65_4 H91_4 1_555 1_555
O65_4 H92_4 1_555 1_555
O67_4 H93_4 1_555 1_555
O67_4 H94_4 1_555 1_555
O66_4 H95_4 1_555 1_555
O66_4 H96_4 1_555 1_555
O60_4 H97_4 1_555 1_555
O60_4 H98_4 1_555 1_555
O59_4 H99_4 1_555 1_555
O59_4 H100_4 1_555 1_555
O64_4 H101_4 1_555 1_555
O64_4 H102_4 1_555 1_555
O72_4 H103_4 1_555 1_555
O72_4 H104_4 1_555 1_555
O74_4 H105_4 1_555 1_555
O74_4 H106_4 1_555 1_555
O75_4 H107_4 1_555 1_555
O75_4 H108_4 1_555 1_555
O71_4 H109_4 1_555 1_555
O71_4 H110_4 1_555 1_555
O76_4 H111_4 1_555 1_555
O76_4 H112_4 1_555 1_555
O73_4 H113_4 1_555 1_555
O73_4 H114_4 1_555 1_555
O25_4 H115_4 1_555 1_555
O25_4 H116_4 1_555 1_555
O27_4 H117_4 1_555 1_555
O27_4 H118_4 1_555 1_555
O23_4 H121_4 1_555 1_555
O23_4 H122_4 1_555 1_555
O29_4 H123_4 1_555 1_555
O29_4 H124_4 1_555 1_555
O26_4 H131_4 1_555 1_555
O26_4 H132_4 1_555 1_555
O21_4 H133_4 1_555 1_555
O21_4 H134_4 1_555 1_555
O18_4 H135_4 1_555 1_555
O18_4 H136_4 1_555 1_555
C4_4 O58 1_555 1_555
O63 C4_4 1_555 1_555
C85_4 O57 1_555 1_555
O62 C85_4 1_555 1_555
O30_3 H125_3 1_555 1_555
O30_3 H126_3 1_555 1_555
O30_4 H125_4 1_555 1_555
O30_4 H126_4 1_555 1_555

#END
