
###############################################################################
#
# This file contains modified crystal structure data generated from the
# MOF subset of the Cambridge Structural Database (CSD) v543 
# hosted by the Cambridge Crystallographic Data Centre (CCDC).
#
# This work is licensed under the Creative Commons
# Attribution-NonCommercial-ShareAlike 4.0 International License.
# To view a copy of this license, visit
# http://creativecommons.org/licenses/by-nc-sa/4.0/
# or send a letter to
# Creative Commons, PO Box 1866, Mountain View, CA 94042, USA.
#
# CIF created using the CSD Python API on 29 September 2022
# The structure has been converted into the P1 space group
# The structure has a 3D framework
# The original CSD entry AXINIF is in the orthorhombic crystal system
# The framework has been calculated to contain at least 10.0% void space
# The void calculation uses a probe of radius 1.32A, grid spacing 0.4
# H atom positions have been added when not included in the experimental data
# Generated hydrogen atom positions removed from atoms on special positions
#
###############################################################################

data_AXINIF
_chemical_formula_moiety         '(C216 H132 Co12 O54)n'
_symmetry_cell_setting           triclinic
_symmetry_space_group_name_H-M   'P 1'
_symmetry_Int_Tables_number      1
_space_group_name_Hall           'P 1'
loop_
_symmetry_equiv_pos_site_id
_symmetry_equiv_pos_as_xyz
1 x,y,z
_cell_length_a                   17.551(4)
_cell_length_b                   25.356(5)
_cell_length_c                   21.148(4)
_cell_angle_alpha                90
_cell_angle_beta                 90
_cell_angle_gamma                90
_cell_volume                     9411.35
loop_
_atom_site_label
_atom_site_type_symbol
_atom_site_fract_x
_atom_site_fract_y
_atom_site_fract_z
O18 O 0.12080(19) 0.31402(12) 0.06513(17)
O21 O 0.0649(2) 0.3751(2) 0.01169(18)
Co9 Co 0.50325(2) 0.680790(16) 0.56379(2)
C28 C 0.0793(2) 0.57067(15) 0.45540(18)
C29 C 0.3778(3) 0.64880(19) 0.53052(17)
C31 C 0.00298(19) 0.51048(16) 0.39270(19)
C32 C 0.0734(2) 0.53087(16) 0.41032(19)
H17 H 0.1174 0.5177 0.3916
C35 C 0.1557(2) 0.59005(16) 0.47470(19)
C36 C 0.2999(2) 0.62656(19) 0.51103(19)
C38 C 0.0130(2) 0.59107(16) 0.4819(2)
H19 H 0.0165 0.6184 0.5111
C40 C 0.0415(2) 0.47031(15) 0.28945(19)
H20 H 0.0760 0.4978 0.2836
O17 O 0.37920(19) 0.68598(12) 0.56513(17)
C43 C 0.0342(2) 0.43147(14) 0.24389(18)
H21 H 0.0649 0.4326 0.2080
C50 C 0.2367(3) 0.65651(18) 0.5179(3)
H26 H 0.2409 0.6896 0.5365
O20 O 0.4351(2) 0.6249(2) 0.51169(18)
C52 C 0.1677(2) 0.63973(18) 0.4985(3)
H28 H 0.1266 0.6627 0.5014
C53 C 0.2178(3) 0.5552(2) 0.4759(3)
H29 H 0.2109 0.5196 0.4667
C54 C 0.2883(3) 0.5739(3) 0.4907(3)
H30 H 0.3301 0.5514 0.4874
Co2 Co 0.99675(2) 0.319210(16) 0.06379(2)
O1 O 0.89357(14) 0.33958(10) 0.03421(12)
O6 O 0.82711(14) 0.30735(10) 0.11533(11)
C2 C 0.1222(3) 0.35120(19) 0.03052(17)
C9 C 0.2001(2) 0.37344(19) 0.01103(19)
H4 H 0.4835 0.3816 0.0111
C12 C 0.7630(2) 0.36018(13) 0.04094(16)
C19 C 0.8342(2) 0.33391(13) 0.06625(14)
C21 C 0.6293(2) 0.38095(16) 0.05119(18)
H9 H 0.5846 0.3797 0.0747
C22 C 0.6950(2) 0.35791(15) 0.07507(17)
H10 H 0.6937 0.3409 0.1140
C23 C 0.2633(3) 0.34349(18) 0.0179(3)
H11 H 0.2591 0.3104 0.0365
H13 H 0.3734 0.3373 0.0014
Co3 Co 0.88723(3) 0.2500 0.16324(2)
O10 O 0.98423(17) 0.2500 0.10699(14)
O14 O 0.99970(15) 0.36076(11) 0.14716(12)
Co1 Co 0.61277(3) 0.7500 0.66324(2)
O2 O 0.51577(17) 0.7500 0.60699(14)
O3 O 0.56122(14) 0.69148(8) 0.71655(9)
O4 O 0.70046(19) 0.7500 0.73070(14)
O5 O 0.50030(15) 0.63924(11) 0.64716(12)
C1 C 0.4207(2) 0.42933(15) 0.95540(18)
C3 C 0.56250(19) 0.61051(13) 0.80516(16)
H1 H 0.5970 0.6379 0.8108
C4 C 0.49702(19) 0.48952(16) 0.89270(19)
C5 C 0.4266(2) 0.46913(16) 0.91032(19)
H2 H 0.3826 0.4823 0.8916
C6 C 0.5180(2) 0.60907(13) 0.75080(17)
C7 C 0.6978(2) 0.40771(17) 0.9589(2)
H3 H 0.6990 0.4240 0.9195
C8 C 0.3443(2) 0.40995(16) 0.97470(19)
C10 C 0.5036(2) 0.53185(15) 0.84510(19)
C11 C 0.4870(2) 0.40893(16) 0.9819(2)
C13 C 0.4585(2) 0.52969(15) 0.78945(19)
H5 H 0.4240 0.5022 0.7836
C14 C 0.6293(2) 0.40577(14) 0.99270(18)
C15 C 0.5273(2) 0.65010(12) 0.70043(15)
C16 C 0.4658(2) 0.56853(14) 0.74389(18)
H6 H 0.4351 0.5674 0.7080
C17 C 0.7642(2) 0.38558(17) 0.98351(19)
H7 H 0.8096 0.3880 0.9610
C18 C 0.5563(2) 0.57196(14) 0.85085(17)
H8 H 0.5880 0.5730 0.8860
C20 C 0.5587(2) 0.42864(15) 0.96556(19)
C24 C 0.5629(2) 0.46942(15) 0.92172(19)
H12 H 0.6101 0.4836 0.9114
C25 C 0.3323(2) 0.36027(18) 0.9985(3)
C26 C 0.2822(3) 0.4448(2) 0.9759(3)
H14 H 0.2891 0.4804 0.9667
C27 C 0.2117(3) 0.4261(3) 0.9907(3)
H15 H 0.1699 0.4486 0.9874
Co6 Co 0.50325(2) 0.819210(16) 0.56379(2)
O9 O 0.60643(14) 0.66042(10) 0.53421(12)
O11 O 0.93878(14) 0.30852(8) 0.21655(9)
O12 O 0.56122(14) 0.80852(8) 0.71655(9)
O15 O 0.67289(14) 0.69265(10) 0.61533(11)
O16 O 0.67289(14) 0.80735(10) 0.61533(11)
C30 C 0.93750(19) 0.38949(13) 0.30516(16)
H16 H 0.9030 0.3621 0.3108
C33 C 0.9820(2) 0.39093(13) 0.25080(17)
C34 C 0.8022(2) 0.59229(17) 0.4589(2)
H18 H 0.8010 0.5760 0.4195
C37 C 0.9964(2) 0.46815(15) 0.34510(19)
C39 C 0.7370(2) 0.63982(13) 0.54094(16)
C41 C 0.8707(2) 0.59423(14) 0.49270(18)
C42 C 0.9727(2) 0.34990(12) 0.20043(15)
C44 C 0.7358(2) 0.61442(17) 0.48351(19)
H22 H 0.6904 0.6120 0.4610
C45 C 0.9437(2) 0.42804(14) 0.35085(17)
H23 H 0.9120 0.4270 0.3860
C46 C 0.6658(2) 0.66609(13) 0.56625(14)
C47 C 0.9413(2) 0.57136(15) 0.46556(19)
C48 C 0.8707(2) 0.61905(16) 0.55119(18)
H24 H 0.9154 0.6203 0.5747
C49 C 0.8050(2) 0.64209(15) 0.57507(17)
H25 H 0.8063 0.6591 0.6140
C51 C 0.9371(2) 0.53058(15) 0.42172(19)
H27 H 0.8899 0.5164 0.4114
O4_2 O 0.79954(19) 0.2500 0.23070(14)
Co6_2 Co 0.99675(2) 0.180790(16) 0.06379(2)
O12_2 O 0.93878(14) 0.19148(8) 0.21655(9)
O16_2 O 0.82711(14) 0.19265(10) 0.11533(11)
C13_2 C 0.0415(2) 0.02969(15) 0.28945(19)
H5_2 H 0.0760 0.0022 0.2836
C16_2 C 0.0342(2) 0.06853(14) 0.24389(18)
H6_2 H 0.0649 0.0674 0.2080
O19 O 0.12080(19) 0.18598(12) 0.06513(17)
O22 O 0.0649(2) 0.1249(2) 0.01169(18)
C1_2 C 0.0793(2) 0.92933(15) 0.45540(18)
C2_2 C 0.3778(3) 0.85120(19) 0.53052(17)
C4_2 C 0.00298(19) 0.98952(16) 0.39270(19)
C5_2 C 0.0734(2) 0.96913(16) 0.41032(19)
H2_2 H 0.1174 0.9823 0.3916
C8_2 C 0.1557(2) 0.90995(16) 0.47470(19)
C9_2 C 0.2999(2) 0.87344(19) 0.51103(19)
C11_2 C 0.0130(2) 0.90893(16) 0.4819(2)
H4_2 H 0.0165 0.8816 0.5111
O7 O 0.37920(19) 0.81402(12) 0.56513(17)
C23_2 C 0.2367(3) 0.84349(18) 0.5179(3)
H11_2 H 0.2409 0.8104 0.5365
O8 O 0.4351(2) 0.8751(2) 0.51169(18)
C25_2 C 0.1677(2) 0.86027(18) 0.4985(3)
H13_2 H 0.1266 0.8373 0.5014
C26_2 C 0.2178(3) 0.9448(2) 0.4759(3)
H14_2 H 0.2109 0.9804 0.4667
C27_2 C 0.2883(3) 0.9261(3) 0.4907(3)
H15_2 H 0.3301 0.9486 0.4874
O5_2 O 0.99970(15) 0.13924(11) 0.14716(12)
C3_2 C 0.93750(19) 0.11051(13) 0.30516(16)
H1_2 H 0.9030 0.1379 0.3108
C6_2 C 0.9820(2) 0.10907(13) 0.25080(17)
C10_2 C 0.9964(2) 0.03185(15) 0.34510(19)
C15_2 C 0.9727(2) 0.15010(12) 0.20043(15)
C18_2 C 0.9437(2) 0.07196(14) 0.35085(17)
H8_2 H 0.9120 0.0730 0.3860
O9_2 O 0.89357(14) 0.16042(10) 0.03421(12)
C29_2 C 0.1222(3) 0.14880(19) 0.03052(17)
C36_2 C 0.2001(2) 0.12656(19) 0.01103(19)
H19_2 H 0.4835 0.1184 0.0111
C39_2 C 0.7630(2) 0.13982(13) 0.04094(16)
C46_2 C 0.8342(2) 0.16609(13) 0.06625(14)
C48_2 C 0.6293(2) 0.11905(16) 0.05119(18)
H24_2 H 0.5846 0.1203 0.0747
C49_2 C 0.6950(2) 0.14209(15) 0.07507(17)
H25_2 H 0.6937 0.1591 0.1140
C50_2 C 0.2633(3) 0.15651(18) 0.0179(3)
H26_2 H 0.2591 0.1896 0.0365
H28_2 H 0.3734 0.1627 0.0014
C28_2 C 0.4207(2) 0.07067(15) 0.95540(18)
C31_2 C 0.49702(19) 0.01048(16) 0.89270(19)
C32_2 C 0.4266(2) 0.03087(16) 0.91032(19)
H17_2 H 0.3826 0.0177 0.8916
C34_2 C 0.6978(2) 0.09229(17) 0.9589(2)
H18_2 H 0.6990 0.0760 0.9195
C35_2 C 0.3443(2) 0.09005(16) 0.97470(19)
C38_2 C 0.4870(2) 0.09107(16) 0.9819(2)
C41_2 C 0.6293(2) 0.09423(14) 0.99270(18)
C44_2 C 0.7642(2) 0.11442(17) 0.98351(19)
H22_2 H 0.8096 0.1120 0.9610
C47_2 C 0.5587(2) 0.07136(15) 0.96556(19)
C51_2 C 0.5629(2) 0.03058(15) 0.92172(19)
H27_2 H 0.6101 0.0164 0.9114
C52_2 C 0.3323(2) 0.13973(18) 0.9985(3)
C53_2 C 0.2822(3) 0.0552(2) 0.9759(3)
H29_2 H 0.2891 0.0196 0.9667
C54_2 C 0.2117(3) 0.0739(3) 0.9907(3)
H30_2 H 0.1699 0.0514 0.9874
O1_2 O 0.60643(14) 0.83958(10) 0.53421(12)
C7_2 C 0.8022(2) 0.90771(17) 0.4589(2)
H3_2 H 0.8010 0.9240 0.4195
C12_2 C 0.7370(2) 0.86018(13) 0.54094(16)
C14_2 C 0.8707(2) 0.90577(14) 0.49270(18)
C17_2 C 0.7358(2) 0.88558(17) 0.48351(19)
H7_2 H 0.6904 0.8880 0.4610
C19_2 C 0.6658(2) 0.83391(13) 0.56625(14)
C20_2 C 0.9413(2) 0.92864(15) 0.46556(19)
C21_2 C 0.8707(2) 0.88095(16) 0.55119(18)
H9_2 H 0.9154 0.8797 0.5747
C22_2 C 0.8050(2) 0.85791(15) 0.57507(17)
H10_2 H 0.8063 0.8409 0.6140
C24_2 C 0.9371(2) 0.96942(15) 0.42172(19)
H12_2 H 0.8899 0.9836 0.4114
O14_2 O 0.50030(15) 0.86076(11) 0.64716(12)
C30_2 C 0.56250(19) 0.88949(13) 0.80516(16)
H16_2 H 0.5970 0.8621 0.8108
C33_2 C 0.5180(2) 0.89093(13) 0.75080(17)
C37_2 C 0.5036(2) 0.96815(15) 0.84510(19)
C40_2 C 0.4585(2) 0.97031(15) 0.78945(19)
H20_2 H 0.4240 0.9978 0.7836
C42_2 C 0.5273(2) 0.84990(12) 0.70043(15)
C43_2 C 0.4658(2) 0.93147(14) 0.74389(18)
H21_2 H 0.4351 0.9326 0.7080
C45_2 C 0.5563(2) 0.92804(14) 0.85085(17)
H23_2 H 0.5880 0.9270 0.8860
Co9_2 Co 0.00325(2) 0.819210(16) 0.93621(2)
Co4 Co 0.38723(3) 0.2500 0.33676(2)
Co8 Co 0.49675(2) 0.180790(16) 0.43621(2)
O11_2 O 0.43878(14) 0.19148(8) 0.28345(9)
O13 O 0.49970(15) 0.13924(11) 0.35284(12)
C30_3 C 0.43750(19) 0.11051(13) 0.19484(16)
H16_3 H 0.4030 0.1379 0.1892
C33_3 C 0.4820(2) 0.10907(13) 0.24920(17)
C37_3 C 0.4964(2) 0.03185(15) 0.15490(19)
C40_3 C 0.5415(2) 0.02969(15) 0.21055(19)
H20_3 H 0.5760 0.0022 0.2164
C42_3 C 0.4727(2) 0.15010(12) 0.29957(15)
C43_3 C 0.5342(2) 0.06853(14) 0.25611(18)
H21_3 H 0.5649 0.0674 0.2920
C45_3 C 0.4437(2) 0.07196(14) 0.14915(17)
H23_3 H 0.4120 0.0730 0.1140
O1_3 O 0.39357(14) 0.16042(10) 0.46579(12)
O6_2 O 0.32711(14) 0.19265(10) 0.38467(11)
C7_3 C 0.1978(2) 0.09229(17) 0.5411(2)
H3_3 H 0.1990 0.0760 0.5805
C12_3 C 0.2630(2) 0.13982(13) 0.45906(16)
C14_3 C 0.1293(2) 0.09423(14) 0.50730(18)
C17_3 C 0.2642(2) 0.11442(17) 0.51649(19)
H7_3 H 0.3096 0.1120 0.5390
C19_3 C 0.3342(2) 0.16609(13) 0.43375(14)
C20_3 C 0.0587(2) 0.07136(15) 0.53444(19)
C21_3 C 0.1293(2) 0.11905(16) 0.44881(18)
H9_3 H 0.0846 0.1203 0.4253
C22_3 C 0.1950(2) 0.14209(15) 0.42493(17)
H10_3 H 0.1937 0.1591 0.3860
C24_3 C 0.0629(2) 0.03058(15) 0.57828(19)
H12_3 H 0.1101 0.0164 0.5886
O10_2 O 0.48423(17) 0.2500 0.39301(14)
O18_2 O 0.62080(19) 0.18598(12) 0.43487(17)
O21_2 O 0.5649(2) 0.1249(2) 0.48831(18)
C28_3 C 0.5793(2) 0.92933(15) 0.04460(18)
C31_3 C 0.50298(19) 0.98952(16) 0.10730(19)
C32_3 C 0.5734(2) 0.96913(16) 0.08968(19)
H17_3 H 0.6174 0.9823 0.1084
C34_3 C 0.3022(2) 0.90771(17) 0.0411(2)
H18_3 H 0.3010 0.9240 0.0805
C35_3 C 0.6557(2) 0.90995(16) 0.02530(19)
C38_3 C 0.5130(2) 0.90893(16) 0.0181(2)
C41_3 C 0.3707(2) 0.90577(14) 0.00730(18)
C44_3 C 0.2358(2) 0.88558(17) 0.01649(19)
H22_3 H 0.1904 0.8880 0.0390
C47_3 C 0.4413(2) 0.92864(15) 0.03444(19)
C51_3 C 0.4371(2) 0.96942(15) 0.07828(19)
H27_3 H 0.3899 0.9836 0.0886
C52_3 C 0.6677(2) 0.86027(18) 0.0015(3)
C53_3 C 0.7178(3) 0.9448(2) 0.0241(3)
H29_3 H 0.7109 0.9804 0.0333
C54_3 C 0.7883(3) 0.9261(3) 0.0093(3)
H30_3 H 0.8301 0.9486 0.0126
Co1_2 Co 0.11277(3) 0.7500 0.83676(2)
O2_2 O 0.01577(17) 0.7500 0.89301(14)
O3_2 O 0.06122(14) 0.80852(8) 0.78345(9)
O4_3 O 0.20046(19) 0.7500 0.76930(14)
O5_3 O 0.00030(15) 0.86076(11) 0.85284(12)
C3_3 C 0.06250(19) 0.88949(13) 0.69484(16)
H1_3 H 0.0970 0.8621 0.6892
C6_3 C 0.0180(2) 0.89093(13) 0.74920(17)
C10_3 C 0.0036(2) 0.96815(15) 0.65490(19)
C15_3 C 0.0273(2) 0.84990(12) 0.79957(15)
C18_3 C 0.0563(2) 0.92804(14) 0.64915(17)
H8_3 H 0.0880 0.9270 0.6140
Co6_3 Co 0.00325(2) 0.680790(16) 0.93621(2)
O9_3 O 0.10643(14) 0.83958(10) 0.96579(12)
O12_3 O 0.06122(14) 0.69148(8) 0.78345(9)
O15_2 O 0.17289(14) 0.80735(10) 0.88467(11)
O16_3 O 0.17289(14) 0.69265(10) 0.88467(11)
C29_3 C 0.8778(3) 0.85120(19) 0.96948(17)
C36_3 C 0.7999(2) 0.87344(19) 0.98897(19)
H19_3 H 0.5165 0.8816 0.9889
C39_3 C 0.2370(2) 0.86018(13) 0.95906(16)
O17_2 O 0.87920(19) 0.81402(12) 0.93487(17)
C46_3 C 0.1658(2) 0.83391(13) 0.93375(14)
C48_3 C 0.3707(2) 0.88095(16) 0.94881(18)
H24_3 H 0.4154 0.8797 0.9253
C49_3 C 0.3050(2) 0.85791(15) 0.92493(17)
H25_3 H 0.3063 0.8409 0.8860
C50_3 C 0.7367(3) 0.84349(18) 0.9821(3)
H26_3 H 0.7409 0.8104 0.9635
O20_2 O 0.9351(2) 0.8751(2) 0.98831(18)
H28_3 H 0.6266 0.8373 0.9986
C1_3 C 0.9207(2) 0.07067(15) 0.54460(18)
C2_3 C 0.6222(3) 0.14880(19) 0.46948(17)
C4_3 C 0.99702(19) 0.01048(16) 0.60730(19)
C5_3 C 0.9266(2) 0.03087(16) 0.58968(19)
H2_3 H 0.8826 0.0177 0.6084
C8_3 C 0.8443(2) 0.09005(16) 0.52530(19)
C9_3 C 0.7001(2) 0.12656(19) 0.48897(19)
C11_3 C 0.9870(2) 0.09107(16) 0.5181(2)
H4_3 H 0.9835 0.1184 0.4889
C23_3 C 0.7633(3) 0.15651(18) 0.4821(3)
H11_3 H 0.7591 0.1896 0.4635
C25_3 C 0.8323(2) 0.13973(18) 0.5015(3)
H13_3 H 0.8734 0.1627 0.4986
C26_3 C 0.7822(3) 0.0552(2) 0.5241(3)
H14_3 H 0.7891 0.0196 0.5333
C27_3 C 0.7117(3) 0.0739(3) 0.5093(3)
H15_3 H 0.6699 0.0514 0.5126
C13_3 C 0.9585(2) 0.97031(15) 0.71055(19)
H5_3 H 0.9240 0.9978 0.7164
C16_3 C 0.9658(2) 0.93147(14) 0.75611(18)
H6_3 H 0.9351 0.9326 0.7920
O4_4 O 0.29954(19) 0.2500 0.26930(14)
Co6_4 Co 0.49675(2) 0.319210(16) 0.43621(2)
O12_4 O 0.43878(14) 0.30852(8) 0.28345(9)
O16_4 O 0.32711(14) 0.30735(10) 0.38467(11)
O5_4 O 0.49970(15) 0.36076(11) 0.35284(12)
C1_4 C 0.5793(2) 0.57067(15) 0.04460(18)
C3_4 C 0.43750(19) 0.38949(13) 0.19484(16)
H1_4 H 0.4030 0.3621 0.1892
C4_4 C 0.50298(19) 0.51048(16) 0.10730(19)
C5_4 C 0.5734(2) 0.53087(16) 0.08968(19)
H2_4 H 0.6174 0.5177 0.1084
C6_4 C 0.4820(2) 0.39093(13) 0.24920(17)
C7_4 C 0.3022(2) 0.59229(17) 0.0411(2)
H3_4 H 0.3010 0.5760 0.0805
C8_4 C 0.6557(2) 0.59005(16) 0.02530(19)
C10_4 C 0.4964(2) 0.46815(15) 0.15490(19)
C11_4 C 0.5130(2) 0.59107(16) 0.0181(2)
C13_4 C 0.5415(2) 0.47031(15) 0.21055(19)
H5_4 H 0.5760 0.4978 0.2164
C14_4 C 0.3707(2) 0.59423(14) 0.00730(18)
C15_4 C 0.4727(2) 0.34990(12) 0.29957(15)
C16_4 C 0.5342(2) 0.43147(14) 0.25611(18)
H6_4 H 0.5649 0.4326 0.2920
C17_4 C 0.2358(2) 0.61442(17) 0.01649(19)
H7_4 H 0.1904 0.6120 0.0390
C18_4 C 0.4437(2) 0.42804(14) 0.14915(17)
H8_4 H 0.4120 0.4270 0.1140
C20_4 C 0.4413(2) 0.57136(15) 0.03444(19)
C24_4 C 0.4371(2) 0.53058(15) 0.07828(19)
H12_4 H 0.3899 0.5164 0.0886
C25_4 C 0.6677(2) 0.63973(18) 0.0015(3)
C26_4 C 0.7178(3) 0.5552(2) 0.0241(3)
H14_4 H 0.7109 0.5196 0.0333
C27_4 C 0.7883(3) 0.5739(3) 0.0093(3)
H15_4 H 0.8301 0.5514 0.0126
O9_4 O 0.39357(14) 0.33958(10) 0.46579(12)
O13_2 O 0.00030(15) 0.63924(11) 0.85284(12)
C30_4 C 0.06250(19) 0.61051(13) 0.69484(16)
H16_4 H 0.0970 0.6379 0.6892
C33_4 C 0.0180(2) 0.60907(13) 0.74920(17)
C34_4 C 0.1978(2) 0.40771(17) 0.5411(2)
H18_4 H 0.1990 0.4240 0.5805
C37_4 C 0.0036(2) 0.53185(15) 0.65490(19)
C39_4 C 0.2630(2) 0.36018(13) 0.45906(16)
C41_4 C 0.1293(2) 0.40577(14) 0.50730(18)
C42_4 C 0.0273(2) 0.65010(12) 0.79957(15)
O19_2 O 0.62080(19) 0.31402(12) 0.43487(17)
C44_4 C 0.2642(2) 0.38558(17) 0.51649(19)
H22_4 H 0.3096 0.3880 0.5390
C45_4 C 0.0563(2) 0.57196(14) 0.64915(17)
H23_4 H 0.0880 0.5730 0.6140
C46_4 C 0.3342(2) 0.33391(13) 0.43375(14)
C47_4 C 0.0587(2) 0.42864(15) 0.53444(19)
C48_4 C 0.1293(2) 0.38095(16) 0.44881(18)
H24_4 H 0.0846 0.3797 0.4253
C49_4 C 0.1950(2) 0.35791(15) 0.42493(17)
H25_4 H 0.1937 0.3409 0.3860
C51_4 C 0.0629(2) 0.46942(15) 0.57828(19)
H27_4 H 0.1101 0.4836 0.5886
O22_2 O 0.5649(2) 0.3751(2) 0.48831(18)
O1_4 O 0.10643(14) 0.66042(10) 0.96579(12)
C2_4 C 0.8778(3) 0.64880(19) 0.96948(17)
C9_4 C 0.7999(2) 0.62656(19) 0.98897(19)
H4_4 H 0.5165 0.6184 0.9889
C12_4 C 0.2370(2) 0.63982(13) 0.95906(16)
O7_2 O 0.87920(19) 0.68598(12) 0.93487(17)
C19_4 C 0.1658(2) 0.66609(13) 0.93375(14)
C21_4 C 0.3707(2) 0.61905(16) 0.94881(18)
H9_4 H 0.4154 0.6203 0.9253
C22_4 C 0.3050(2) 0.64209(15) 0.92493(17)
H10_4 H 0.3063 0.6591 0.8860
C23_4 C 0.7367(3) 0.65651(18) 0.9821(3)
H11_4 H 0.7409 0.6896 0.9635
O8_2 O 0.9351(2) 0.6249(2) 0.98831(18)
H13_4 H 0.6266 0.6627 0.9986
C28_4 C 0.9207(2) 0.42933(15) 0.54460(18)
C29_4 C 0.6222(3) 0.35120(19) 0.46948(17)
C31_4 C 0.99702(19) 0.48952(16) 0.60730(19)
C32_4 C 0.9266(2) 0.46913(16) 0.58968(19)
H17_4 H 0.8826 0.4823 0.6084
C35_4 C 0.8443(2) 0.40995(16) 0.52530(19)
C36_4 C 0.7001(2) 0.37344(19) 0.48897(19)
C38_4 C 0.9870(2) 0.40893(16) 0.5181(2)
H19_4 H 0.9835 0.3816 0.4889
C40_4 C 0.9585(2) 0.52969(15) 0.71055(19)
H20_4 H 0.9240 0.5022 0.7164
C43_4 C 0.9658(2) 0.56853(14) 0.75611(18)
H21_4 H 0.9351 0.5674 0.7920
C50_4 C 0.7633(3) 0.34349(18) 0.4821(3)
H26_4 H 0.7591 0.3104 0.4635
C52_4 C 0.8323(2) 0.36027(18) 0.5015(3)
H28_4 H 0.8734 0.3373 0.4986
C53_4 C 0.7822(3) 0.4448(2) 0.5241(3)
H29_4 H 0.7891 0.4804 0.5333
C54_4 C 0.7117(3) 0.4261(3) 0.5093(3)
H30_4 H 0.6699 0.4486 0.5126
loop_
_geom_bond_atom_site_label_1
_geom_bond_atom_site_label_2
_geom_bond_site_symmetry_1
_geom_bond_site_symmetry_2
Co9 O17 1_555 1_555
C28 C32 1_555 1_555
C29 C36 1_555 1_555
C31 C32 1_555 1_555
C32 H17 1_555 1_555
C35 C28 1_555 1_555
C36 C50 1_555 1_555
C38 C28 1_555 1_555
H19 C38 1_555 1_555
H20 C40 1_555 1_555
O17 C29 1_555 1_555
H21 C43 1_555 1_555
C50 H26 1_555 1_555
O20 Co9 1_555 1_555
C52 C35 1_555 1_555
H28 C52 1_555 1_555
C53 C35 1_555 1_555
H29 C53 1_555 1_555
C54 C36 1_555 1_555
H30 C54 1_555 1_555
C29 O20 1_555 1_555
C40 C43 1_555 1_555
C50 C52 1_555 1_555
C53 C54 1_555 1_555
Co2 O1 1_555 1_555
O1 C19 1_555 1_555
O6 C19 1_555 1_555
C2 C9 1_555 1_555
C9 C23 1_555 1_555
O18 C2 1_555 1_555
C19 C12 1_555 1_555
H9 C21 1_555 1_555
C22 C12 1_555 1_555
H10 C22 1_555 1_555
C23 H11 1_555 1_555
O21 C2 1_555 1_555
Co3 O6 1_555 1_555
O10 Co2 1_555 1_555
O14 Co2 1_555 1_555
C21 C22 1_555 1_555
Co3 O10 1_555 1_555
Co1 O2 1_555 1_555
O2 Co9 1_555 1_555
O3 Co1 1_555 1_555
O4 Co1 1_555 1_555
O5 C15 1_555 1_555
C1 C5 1_555 1_555
C3 H1 1_555 1_555
C4 C5 1_555 1_555
C5 H2 1_555 1_555
C6 C3 1_555 1_555
C7 H3 1_555 1_555
C8 C1 1_555 1_555
C10 C4 1_555 1_555
C11 C1 1_555 1_555
C13 C10 1_555 1_555
H5 C13 1_555 1_555
C14 C7 1_555 1_555
C15 O3 1_555 1_555
C16 C6 1_555 1_555
H6 C16 1_555 1_555
C17 C7 1_555 1_555
H7 C17 1_555 1_555
C18 C3 1_555 1_555
H8 C18 1_555 1_555
C20 C11 1_555 1_555
C24 C4 1_555 1_555
H12 C24 1_555 1_555
C25 C8 1_555 1_555
C26 C8 1_555 1_555
H14 C26 1_555 1_555
H15 C27 1_555 1_555
Co3 O11 1_555 1_555
Co9 O5 1_555 1_555
Co6 O2 1_555 1_555
O9 Co9 1_555 1_555
O11 C42 1_555 1_555
O12 Co1 1_555 1_555
O14 C42 1_555 1_555
O15 Co1 1_555 1_555
O16 Co1 1_555 1_555
C30 H16 1_555 1_555
C33 C30 1_555 1_555
C34 H18 1_555 1_555
C39 C44 1_555 1_555
C41 C34 1_555 1_555
C42 C33 1_555 1_555
C44 C34 1_555 1_555
H22 C44 1_555 1_555
C45 C30 1_555 1_555
H23 C45 1_555 1_555
C46 O9 1_555 1_555
C48 C41 1_555 1_555
H24 C48 1_555 1_555
C49 C39 1_555 1_555
H25 C49 1_555 1_555
H27 C51 1_555 1_555
C6 C15 1_555 1_555
C10 C18 1_555 1_555
C13 C16 1_555 1_555
C14 C20 1_555 1_555
C20 C24 1_555 1_555
C26 C27 1_555 1_555
O15 C46 1_555 1_555
C37 C45 1_555 1_555
C39 C46 1_555 1_555
C41 C47 1_555 1_555
C47 C51 1_555 1_555
C48 C49 1_555 1_555
O4_2 Co3 1_555 1_555
Co6_2 O10 1_555 1_555
O12_2 Co3 1_555 1_555
O16_2 Co3 1_555 1_555
H5_2 C13_2 1_555 1_555
H6_2 C16_2 1_555 1_555
C13_2 C16_2 1_555 1_555
C1_2 C5_2 1_555 1_555
C2_2 C9_2 1_555 1_555
C4_2 C5_2 1_555 1_555
C5_2 H2_2 1_555 1_555
C8_2 C1_2 1_555 1_555
C9_2 C23_2 1_555 1_555
C11_2 C1_2 1_555 1_555
H4_2 C11_2 1_555 1_555
O7 C2_2 1_555 1_555
C23_2 H11_2 1_555 1_555
O8 C2_2 1_555 1_555
C25_2 C8_2 1_555 1_555
H13_2 C25_2 1_555 1_555
C26_2 C8_2 1_555 1_555
H14_2 C26_2 1_555 1_555
C27_2 C9_2 1_555 1_555
H15_2 C27_2 1_555 1_555
Co6 O7 1_555 1_555
C23_2 C25_2 1_555 1_555
O8 Co6 1_555 1_555
C26_2 C27_2 1_555 1_555
O5_2 C15_2 1_555 1_555
C3_2 H1_2 1_555 1_555
C6_2 C3_2 1_555 1_555
C15_2 O12_2 1_555 1_555
C18_2 C3_2 1_555 1_555
H8_2 C18_2 1_555 1_555
Co6_2 O5_2 1_555 1_555
O9_2 Co6_2 1_555 1_555
C29_2 C36_2 1_555 1_555
C36_2 C50_2 1_555 1_555
O19 C29_2 1_555 1_555
C46_2 O9_2 1_555 1_555
H24_2 C48_2 1_555 1_555
C49_2 C39_2 1_555 1_555
H25_2 C49_2 1_555 1_555
C50_2 H26_2 1_555 1_555
C6_2 C15_2 1_555 1_555
C10_2 C18_2 1_555 1_555
O16_2 C46_2 1_555 1_555
C29_2 O22 1_555 1_555
C39_2 C46_2 1_555 1_555
C48_2 C49_2 1_555 1_555
C28_2 C32_2 1_555 1_555
C31_2 C32_2 1_555 1_555
C32_2 H17_2 1_555 1_555
C34_2 H18_2 1_555 1_555
C35_2 C28_2 1_555 1_555
C38_2 C28_2 1_555 1_555
C41_2 C34_2 1_555 1_555
C44_2 C34_2 1_555 1_555
H22_2 C44_2 1_555 1_555
C47_2 C38_2 1_555 1_555
C51_2 C31_2 1_555 1_555
H27_2 C51_2 1_555 1_555
C52_2 C35_2 1_555 1_555
C53_2 C35_2 1_555 1_555
H29_2 C53_2 1_555 1_555
H30_2 C54_2 1_555 1_555
C41_2 C47_2 1_555 1_555
C47_2 C51_2 1_555 1_555
C53_2 C54_2 1_555 1_555
Co6 O1_2 1_555 1_555
O1_2 C19_2 1_555 1_555
O16 C19_2 1_555 1_555
C7_2 H3_2 1_555 1_555
C12_2 C17_2 1_555 1_555
C14_2 C7_2 1_555 1_555
C17_2 C7_2 1_555 1_555
H7_2 C17_2 1_555 1_555
C19_2 C12_2 1_555 1_555
C21_2 C14_2 1_555 1_555
H9_2 C21_2 1_555 1_555
C22_2 C12_2 1_555 1_555
H10_2 C22_2 1_555 1_555
H12_2 C24_2 1_555 1_555
O14_2 Co6 1_555 1_555
C14_2 C20_2 1_555 1_555
C20_2 C24_2 1_555 1_555
C21_2 C22_2 1_555 1_555
O12 C42_2 1_555 1_555
O14_2 C42_2 1_555 1_555
C30_2 H16_2 1_555 1_555
C33_2 C30_2 1_555 1_555
C40_2 C37_2 1_555 1_555
H20_2 C40_2 1_555 1_555
C42_2 C33_2 1_555 1_555
C43_2 C33_2 1_555 1_555
H21_2 C43_2 1_555 1_555
C45_2 C30_2 1_555 1_555
H23_2 C45_2 1_555 1_555
C37_2 C45_2 1_555 1_555
C40_2 C43_2 1_555 1_555
Co4 O11_2 1_555 1_555
Co8 O13 1_555 1_555
O11_2 C42_3 1_555 1_555
O13 C42_3 1_555 1_555
C30_3 H16_3 1_555 1_555
C33_3 C30_3 1_555 1_555
C40_3 C37_3 1_555 1_555
H20_3 C40_3 1_555 1_555
C42_3 C33_3 1_555 1_555
C43_3 C33_3 1_555 1_555
H21_3 C43_3 1_555 1_555
C45_3 C30_3 1_555 1_555
H23_3 C45_3 1_555 1_555
C37_3 C45_3 1_555 1_555
C40_3 C43_3 1_555 1_555
Co8 O1_3 1_555 1_555
O1_3 C19_3 1_555 1_555
O6_2 C19_3 1_555 1_555
C7_3 H3_3 1_555 1_555
C12_3 C17_3 1_555 1_555
C14_3 C7_3 1_555 1_555
C17_3 C7_3 1_555 1_555
H7_3 C17_3 1_555 1_555
C19_3 C12_3 1_555 1_555
C21_3 C14_3 1_555 1_555
H9_3 C21_3 1_555 1_555
C22_3 C12_3 1_555 1_555
H10_3 C22_3 1_555 1_555
H12_3 C24_3 1_555 1_555
Co4 O6_2 1_555 1_555
O10_2 Co8 1_555 1_555
O18_2 Co8 1_555 1_555
O21_2 Co8 1_555 1_555
C14_3 C20_3 1_555 1_555
C20_3 C24_3 1_555 1_555
C21_3 C22_3 1_555 1_555
Co4 O10_2 1_555 1_555
C28_3 C32_3 1_555 1_555
C31_3 C32_3 1_555 1_555
C32_3 H17_3 1_555 1_555
C34_3 H18_3 1_555 1_555
C35_3 C28_3 1_555 1_555
C38_3 C28_3 1_555 1_555
C41_3 C34_3 1_555 1_555
C44_3 C34_3 1_555 1_555
H22_3 C44_3 1_555 1_555
C47_3 C38_3 1_555 1_555
C51_3 C31_3 1_555 1_555
H27_3 C51_3 1_555 1_555
C52_3 C35_3 1_555 1_555
C53_3 C35_3 1_555 1_555
H29_3 C53_3 1_555 1_555
H30_3 C54_3 1_555 1_555
C41_3 C47_3 1_555 1_555
C47_3 C51_3 1_555 1_555
C53_3 C54_3 1_555 1_555
Co1_2 O2_2 1_555 1_555
O2_2 Co9_2 1_555 1_555
O3_2 Co1_2 1_555 1_555
O4_3 Co1_2 1_555 1_555
O5_3 C15_3 1_555 1_555
C3_3 H1_3 1_555 1_555
C6_3 C3_3 1_555 1_555
C15_3 O3_2 1_555 1_555
C18_3 C3_3 1_555 1_555
H8_3 C18_3 1_555 1_555
Co9_2 O5_3 1_555 1_555
Co6_3 O2_2 1_555 1_555
O9_3 Co9_2 1_555 1_555
O12_3 Co1_2 1_555 1_555
O15_2 Co1_2 1_555 1_555
O16_3 Co1_2 1_555 1_555
C29_3 C36_3 1_555 1_555
C36_3 C50_3 1_555 1_555
O17_2 C29_3 1_555 1_555
C46_3 O9_3 1_555 1_555
H24_3 C48_3 1_555 1_555
C49_3 C39_3 1_555 1_555
H25_3 C49_3 1_555 1_555
C50_3 H26_3 1_555 1_555
C6_3 C15_3 1_555 1_555
C10_3 C18_3 1_555 1_555
O15_2 C46_3 1_555 1_555
C29_3 O20_2 1_555 1_555
C39_3 C46_3 1_555 1_555
C48_3 C49_3 1_555 1_555
C1_3 C5_3 1_555 1_555
C2_3 C9_3 1_555 1_555
C4_3 C5_3 1_555 1_555
C5_3 H2_3 1_555 1_555
C8_3 C1_3 1_555 1_555
C9_3 C23_3 1_555 1_555
C11_3 C1_3 1_555 1_555
H4_3 C11_3 1_555 1_555
O18_2 C2_3 1_555 1_555
C23_3 H11_3 1_555 1_555
O21_2 C2_3 1_555 1_555
C25_3 C8_3 1_555 1_555
H13_3 C25_3 1_555 1_555
C26_3 C8_3 1_555 1_555
H14_3 C26_3 1_555 1_555
C27_3 C9_3 1_555 1_555
H15_3 C27_3 1_555 1_555
C23_3 C25_3 1_555 1_555
C26_3 C27_3 1_555 1_555
H5_3 C13_3 1_555 1_555
H6_3 C16_3 1_555 1_555
C13_3 C16_3 1_555 1_555
O4_4 Co4 1_555 1_555
Co6_4 O10_2 1_555 1_555
O12_4 Co4 1_555 1_555
O16_4 Co4 1_555 1_555
O5_4 C15_4 1_555 1_555
C1_4 C5_4 1_555 1_555
C3_4 H1_4 1_555 1_555
C4_4 C5_4 1_555 1_555
C5_4 H2_4 1_555 1_555
C6_4 C3_4 1_555 1_555
C7_4 H3_4 1_555 1_555
C8_4 C1_4 1_555 1_555
C10_4 C4_4 1_555 1_555
C11_4 C1_4 1_555 1_555
C13_4 C10_4 1_555 1_555
H5_4 C13_4 1_555 1_555
C14_4 C7_4 1_555 1_555
C15_4 O12_4 1_555 1_555
C16_4 C6_4 1_555 1_555
H6_4 C16_4 1_555 1_555
C17_4 C7_4 1_555 1_555
H7_4 C17_4 1_555 1_555
C18_4 C3_4 1_555 1_555
H8_4 C18_4 1_555 1_555
C20_4 C11_4 1_555 1_555
C24_4 C4_4 1_555 1_555
H12_4 C24_4 1_555 1_555
C25_4 C8_4 1_555 1_555
C26_4 C8_4 1_555 1_555
H14_4 C26_4 1_555 1_555
H15_4 C27_4 1_555 1_555
Co6_4 O5_4 1_555 1_555
Co6_3 O13_2 1_555 1_555
O9_4 Co6_4 1_555 1_555
O12_3 C42_4 1_555 1_555
O13_2 C42_4 1_555 1_555
C30_4 H16_4 1_555 1_555
C33_4 C30_4 1_555 1_555
C34_4 H18_4 1_555 1_555
C39_4 C44_4 1_555 1_555
C41_4 C34_4 1_555 1_555
C42_4 C33_4 1_555 1_555
O19_2 Co6_4 1_555 1_555
C44_4 C34_4 1_555 1_555
H22_4 C44_4 1_555 1_555
C45_4 C30_4 1_555 1_555
H23_4 C45_4 1_555 1_555
C46_4 O9_4 1_555 1_555
C48_4 C41_4 1_555 1_555
H24_4 C48_4 1_555 1_555
C49_4 C39_4 1_555 1_555
H25_4 C49_4 1_555 1_555
H27_4 C51_4 1_555 1_555
O22_2 Co6_4 1_555 1_555
C6_4 C15_4 1_555 1_555
C10_4 C18_4 1_555 1_555
C13_4 C16_4 1_555 1_555
C14_4 C20_4 1_555 1_555
C20_4 C24_4 1_555 1_555
C26_4 C27_4 1_555 1_555
O16_4 C46_4 1_555 1_555
C37_4 C45_4 1_555 1_555
C39_4 C46_4 1_555 1_555
C41_4 C47_4 1_555 1_555
C47_4 C51_4 1_555 1_555
C48_4 C49_4 1_555 1_555
Co6_3 O1_4 1_555 1_555
O1_4 C19_4 1_555 1_555
O16_3 C19_4 1_555 1_555
C2_4 C9_4 1_555 1_555
C9_4 C23_4 1_555 1_555
O7_2 C2_4 1_555 1_555
C19_4 C12_4 1_555 1_555
H9_4 C21_4 1_555 1_555
C22_4 C12_4 1_555 1_555
H10_4 C22_4 1_555 1_555
C23_4 H11_4 1_555 1_555
O8_2 C2_4 1_555 1_555
C21_4 C22_4 1_555 1_555
C28_4 C32_4 1_555 1_555
C29_4 C36_4 1_555 1_555
C31_4 C32_4 1_555 1_555
C32_4 H17_4 1_555 1_555
C35_4 C28_4 1_555 1_555
C36_4 C50_4 1_555 1_555
C38_4 C28_4 1_555 1_555
H19_4 C38_4 1_555 1_555
H20_4 C40_4 1_555 1_555
O19_2 C29_4 1_555 1_555
H21_4 C43_4 1_555 1_555
C50_4 H26_4 1_555 1_555
C52_4 C35_4 1_555 1_555
H28_4 C52_4 1_555 1_555
C53_4 C35_4 1_555 1_555
H29_4 C53_4 1_555 1_555
C54_4 C36_4 1_555 1_555
H30_4 C54_4 1_555 1_555
C29_4 O22_2 1_555 1_555
C40_4 C43_4 1_555 1_555
C50_4 C52_4 1_555 1_555
C53_4 C54_4 1_555 1_555

#END
