
###############################################################################
#
# This file contains modified crystal structure data generated from the
# MOF subset of the Cambridge Structural Database (CSD) v543 
# hosted by the Cambridge Crystallographic Data Centre (CCDC).
#
# This work is licensed under the Creative Commons
# Attribution-NonCommercial-ShareAlike 4.0 International License.
# To view a copy of this license, visit
# http://creativecommons.org/licenses/by-nc-sa/4.0/
# or send a letter to
# Creative Commons, PO Box 1866, Mountain View, CA 94042, USA.
#
# CIF created using the CSD Python API on 29 September 2022
# The structure has been converted into the P1 space group
# The structure has a 3D framework
# The original CSD entry AXIPEE01 is in the monoclinic crystal system
# The framework has been calculated to contain at least 10.0% void space
# The void calculation uses a probe of radius 1.32A, grid spacing 0.4
#
###############################################################################

data_AXIPEE01
_chemical_formula_moiety         '(C144 H80 Au12 Fe8 N64)n'
_symmetry_cell_setting           triclinic
_symmetry_space_group_name_H-M   'P 1'
_symmetry_Int_Tables_number      1
_space_group_name_Hall           'P 1'
loop_
_symmetry_equiv_pos_site_id
_symmetry_equiv_pos_as_xyz
1 x,y,z
_cell_length_a                   15.0135(10)
_cell_length_b                   14.9245(8)
_cell_length_c                   31.4557(17)
_cell_angle_alpha                90
_cell_angle_beta                 98.206(6)
_cell_angle_gamma                90
_cell_volume                     6976.08
loop_
_atom_site_label
_atom_site_type_symbol
_atom_site_fract_x
_atom_site_fract_y
_atom_site_fract_z
Au4 Au 0.05374(4) 0.72739(4) 0.543956(18)
C19 C 0.0378(9) 0.8625(9) 0.4441(4)
Fe1 Fe 0.69150(11) 0.52066(11) 0.45083(5)
Au1 Au 0.44626(4) 0.77261(4) 0.456044(18)
Au2 Au 0.94965(4) 0.76255(4) 0.447582(17)
C1 C 0.8566(10) 0.6682(9) 0.4509(4)
C2 C 0.5408(9) 0.6838(9) 0.4469(4)
C3 C 0.5378(9) 0.3625(9) 0.4441(4)
C4 C 0.8493(10) 0.3626(9) 0.4604(5)
N1 N 0.7994(8) 0.6173(8) 0.4527(3)
N2 N 0.5928(8) 0.6286(7) 0.4428(3)
N3 N 0.5889(8) 0.4193(7) 0.4445(3)
N4 N 0.7932(8) 0.4153(8) 0.4610(4)
N5 N 0.6902(7) 0.5105(8) 0.3802(3)
C5 C 0.7676(9) 0.5062(11) 0.3640(4)
H1 H 0.8215 0.5118 0.3832
C6 C 0.7735(10) 0.4939(13) 0.3208(4)
H2 H 0.8300 0.4892 0.3114
C7 C 0.6952(9) 0.4886(11) 0.2915(4)
C8 C 0.6137(9) 0.4957(11) 0.3079(4)
H3 H 0.5588 0.4942 0.2894
C9 C 0.6147(9) 0.5050(11) 0.3518(4)
H4 H 0.5592 0.5075 0.3623
C10 C 0.6988(9) 0.4756(11) 0.2444(4)
C11 C 0.7725(11) 0.4385(14) 0.2290(5)
H5 H 0.8226 0.4188 0.2481
N6 N 0.6254(9) 0.4985(11) 0.1746(4)
N7 N 0.6265(8) 0.5040(10) 0.2175(4)
C12 C 0.7713(10) 0.4309(13) 0.1858(5)
H6 H 0.8198 0.4051 0.1743
C13 C 0.6961(9) 0.4625(10) 0.1594(4)
C14 C 0.6906(9) 0.4616(9) 0.1109(4)
C15 C 0.6455(11) 0.5289(11) 0.0868(4)
H7 H 0.6145 0.5734 0.1000
C16 C 0.6467(11) 0.5300(11) 0.0435(4)
H8 H 0.6163 0.5769 0.0275
C17 C 0.7280(10) 0.4019(9) 0.0453(4)
H9 H 0.7545 0.3557 0.0311
C18 C 0.7323(11) 0.3968(10) 0.0896(4)
H10 H 0.7633 0.3495 0.1049
N8 N 0.6888(7) 0.4680(7) 0.0219(3)
Au3 Au 0.94626(4) 0.27261(4) 0.456044(18)
Au5 Au 0.44965(4) 0.26255(4) 0.447582(17)
Au6 Au 0.55035(4) 0.73745(4) 0.552418(17)
C20 C 0.3493(10) 0.8626(9) 0.4604(5)
N9 N 0.6888(7) 0.5320(7) 0.5219(3)
Fe2 Fe 0.69150(11) 0.47934(11) 0.95083(5)
Fe1_2 Fe 0.30850(11) 0.52066(11) 0.04917(5)
Au1_2 Au 0.55374(4) 0.77261(4) 0.043956(18)
Au2_2 Au 0.05035(4) 0.76255(4) 0.052418(17)
C1_2 C 0.1434(10) 0.6682(9) 0.0491(4)
C2_2 C 0.4592(9) 0.6838(9) 0.0531(4)
C3_2 C 0.4622(9) 0.3625(9) 0.0559(4)
C4_2 C 0.1507(10) 0.3626(9) 0.0396(5)
N1_2 N 0.2006(8) 0.6173(8) 0.0473(3)
N2_2 N 0.4072(8) 0.6286(7) 0.0572(3)
N3_2 N 0.4111(8) 0.4193(7) 0.0555(3)
N4_2 N 0.2068(8) 0.4153(8) 0.0390(4)
N5_2 N 0.3098(7) 0.5105(8) 0.1198(3)
C5_2 C 0.2324(9) 0.5062(11) 0.1360(4)
H1_2 H 0.1785 0.5118 0.1168
C6_2 C 0.2265(10) 0.4939(13) 0.1792(4)
H2_2 H 0.1700 0.4892 0.1886
C7_2 C 0.3048(9) 0.4886(11) 0.2085(4)
C8_2 C 0.3863(9) 0.4957(11) 0.1921(4)
H3_2 H 0.4412 0.4942 0.2106
C9_2 C 0.3853(9) 0.5050(11) 0.1482(4)
H4_2 H 0.4408 0.5075 0.1377
C10_2 C 0.3012(9) 0.4756(11) 0.2556(4)
C11_2 C 0.2275(11) 0.4385(14) 0.2710(5)
H5_2 H 0.1774 0.4188 0.2519
N6_2 N 0.3746(9) 0.4985(11) 0.3254(4)
N7_2 N 0.3735(8) 0.5040(10) 0.2825(4)
C12_2 C 0.2287(10) 0.4309(13) 0.3142(5)
H6_2 H 0.1802 0.4051 0.3257
C13_2 C 0.3039(9) 0.4625(10) 0.3406(4)
C14_2 C 0.3094(9) 0.4616(9) 0.3891(4)
C15_2 C 0.3545(11) 0.5289(11) 0.4132(4)
H7_2 H 0.3855 0.5734 0.4000
C16_2 C 0.3533(11) 0.5300(11) 0.4565(4)
H8_2 H 0.3837 0.5769 0.4725
C17_2 C 0.2720(10) 0.4019(9) 0.4547(4)
H9_2 H 0.2455 0.3557 0.4689
C18_2 C 0.2677(11) 0.3968(10) 0.4104(4)
H10_2 H 0.2367 0.3495 0.3951
N8_2 N 0.3112(7) 0.4680(7) 0.4781(3)
Fe2_2 Fe 0.30850(11) 0.47934(11) 0.54917(5)
Au3_2 Au 0.05374(4) 0.27261(4) 0.043956(18)
Au5_2 Au 0.55035(4) 0.26255(4) 0.052418(17)
C20_2 C 0.6507(10) 0.8626(9) 0.0396(5)
Au6_2 Au 0.44965(4) 0.73745(4) 0.947582(17)
N9_2 N 0.3112(7) 0.5320(7) 0.9781(3)
C19_2 C 0.9622(9) 0.8625(9) 0.0559(4)
Au4_2 Au 0.94626(4) 0.72739(4) 0.956044(18)
Fe1_3 Fe 0.19150(11) 0.02066(11) 0.45083(5)
C1_3 C 0.3566(10) 0.1682(9) 0.4509(4)
C2_3 C 0.0408(9) 0.1838(9) 0.4469(4)
N1_3 N 0.2994(8) 0.1173(8) 0.4527(3)
N2_3 N 0.0928(8) 0.1286(7) 0.4428(3)
N5_3 N 0.1902(7) 0.0105(8) 0.3802(3)
C5_3 C 0.2676(9) 0.0062(11) 0.3640(4)
H1_3 H 0.3215 0.0118 0.3832
C9_3 C 0.1147(9) 0.0050(11) 0.3518(4)
H4_3 H 0.0592 0.0075 0.3623
N7_3 N 0.1265(8) 0.0040(10) 0.2175(4)
C15_3 C 0.1455(11) 0.0289(11) 0.0868(4)
H7_3 H 0.1145 0.0734 0.1000
C16_3 C 0.1467(11) 0.0300(11) 0.0435(4)
H8_3 H 0.1163 0.0769 0.0275
Au4_3 Au 0.55374(4) 0.22739(4) 0.543956(18)
Au6_3 Au 0.05035(4) 0.23745(4) 0.552418(17)
N9_3 N 0.1888(7) 0.0320(7) 0.5219(3)
N3_3 N 0.0889(8) 0.9193(7) 0.4445(3)
N4_3 N 0.2932(8) 0.9153(8) 0.4610(4)
C6_3 C 0.2735(10) 0.9939(13) 0.3208(4)
H2_3 H 0.3300 0.9892 0.3114
C7_3 C 0.1952(9) 0.9886(11) 0.2915(4)
C8_3 C 0.1137(9) 0.9957(11) 0.3079(4)
H3_3 H 0.0588 0.9942 0.2894
C10_3 C 0.1988(9) 0.9756(11) 0.2444(4)
C11_3 C 0.2725(11) 0.9385(14) 0.2290(5)
H5_3 H 0.3226 0.9188 0.2481
N6_3 N 0.1254(9) 0.9985(11) 0.1746(4)
C12_3 C 0.2713(10) 0.9309(13) 0.1858(5)
H6_3 H 0.3198 0.9051 0.1743
C13_3 C 0.1961(9) 0.9625(10) 0.1594(4)
C14_3 C 0.1906(9) 0.9616(9) 0.1109(4)
C17_3 C 0.2280(10) 0.9019(9) 0.0453(4)
H9_3 H 0.2545 0.8557 0.0311
C18_3 C 0.2323(11) 0.8968(10) 0.0896(4)
H10_3 H 0.2633 0.8495 0.1049
N8_3 N 0.1888(7) 0.9680(7) 0.0219(3)
Fe2_3 Fe 0.19150(11) 0.97934(11) 0.95083(5)
Fe1_4 Fe 0.80850(11) 0.02066(11) 0.04917(5)
C1_4 C 0.6434(10) 0.1682(9) 0.0491(4)
C2_4 C 0.9592(9) 0.1838(9) 0.0531(4)
N1_4 N 0.7006(8) 0.1173(8) 0.0473(3)
N2_4 N 0.9072(8) 0.1286(7) 0.0572(3)
N5_4 N 0.8098(7) 0.0105(8) 0.1198(3)
C5_4 C 0.7324(9) 0.0062(11) 0.1360(4)
H1_4 H 0.6785 0.0118 0.1168
C9_4 C 0.8853(9) 0.0050(11) 0.1482(4)
H4_4 H 0.9408 0.0075 0.1377
N7_4 N 0.8735(8) 0.0040(10) 0.2825(4)
C15_4 C 0.8545(11) 0.0289(11) 0.4132(4)
H7_4 H 0.8855 0.0734 0.4000
C16_4 C 0.8533(11) 0.0300(11) 0.4565(4)
H8_4 H 0.8837 0.0769 0.4725
Au4_4 Au 0.44626(4) 0.22739(4) 0.956044(18)
Au6_4 Au 0.94965(4) 0.23745(4) 0.947582(17)
N9_4 N 0.8112(7) 0.0320(7) 0.9781(3)
N3_4 N 0.9111(8) 0.9193(7) 0.0555(3)
N4_4 N 0.7068(8) 0.9153(8) 0.0390(4)
C6_4 C 0.7265(10) 0.9939(13) 0.1792(4)
H2_4 H 0.6700 0.9892 0.1886
C7_4 C 0.8048(9) 0.9886(11) 0.2085(4)
C8_4 C 0.8863(9) 0.9957(11) 0.1921(4)
H3_4 H 0.9412 0.9942 0.2106
C10_4 C 0.8012(9) 0.9756(11) 0.2556(4)
C11_4 C 0.7275(11) 0.9385(14) 0.2710(5)
H5_4 H 0.6774 0.9188 0.2519
N6_4 N 0.8746(9) 0.9985(11) 0.3254(4)
C12_4 C 0.7287(10) 0.9309(13) 0.3142(5)
H6_4 H 0.6802 0.9051 0.3257
C13_4 C 0.8039(9) 0.9625(10) 0.3406(4)
C14_4 C 0.8094(9) 0.9616(9) 0.3891(4)
C17_4 C 0.7720(10) 0.9019(9) 0.4547(4)
H9_4 H 0.7455 0.8557 0.4689
C18_4 C 0.7677(11) 0.8968(10) 0.4104(4)
H10_4 H 0.7367 0.8495 0.3951
N8_4 N 0.8112(7) 0.9680(7) 0.4781(3)
Fe2_4 Fe 0.80850(11) 0.97934(11) 0.54917(5)
C1_5 C 0.1434(10) 0.3318(9) 0.5491(4)
C2_5 C 0.4592(9) 0.3162(9) 0.5531(4)
C3_3 C 0.4622(9) 0.6375(9) 0.5559(4)
C4_3 C 0.1507(10) 0.6374(9) 0.5396(5)
N1_5 N 0.2006(8) 0.3827(8) 0.5473(3)
N2_5 N 0.4072(8) 0.3714(7) 0.5572(3)
N3_5 N 0.4111(8) 0.5807(7) 0.5555(3)
N4_5 N 0.2068(8) 0.5847(8) 0.5390(4)
N5_5 N 0.3098(7) 0.4895(8) 0.6198(3)
C5_5 C 0.2324(9) 0.4938(11) 0.6360(4)
H1_5 H 0.1785 0.4882 0.6168
C6_5 C 0.2265(10) 0.5061(13) 0.6792(4)
H2_5 H 0.1700 0.5108 0.6886
C7_5 C 0.3048(9) 0.5114(11) 0.7085(4)
C8_5 C 0.3863(9) 0.5043(11) 0.6921(4)
H3_5 H 0.4412 0.5058 0.7106
C9_5 C 0.3853(9) 0.4950(11) 0.6482(4)
H4_5 H 0.4408 0.4925 0.6377
C10_5 C 0.3012(9) 0.5244(11) 0.7556(4)
C11_5 C 0.2275(11) 0.5615(14) 0.7710(5)
H5_5 H 0.1774 0.5812 0.7519
N6_5 N 0.3746(9) 0.5015(11) 0.8254(4)
N7_5 N 0.3735(8) 0.4960(10) 0.7825(4)
C12_5 C 0.2287(10) 0.5691(13) 0.8142(5)
H6_5 H 0.1802 0.5949 0.8257
C13_5 C 0.3039(9) 0.5375(10) 0.8406(4)
C14_5 C 0.3094(9) 0.5384(9) 0.8891(4)
C15_5 C 0.3545(11) 0.4711(11) 0.9132(4)
H7_5 H 0.3855 0.4266 0.9000
C16_5 C 0.3533(11) 0.4700(11) 0.9565(4)
H8_5 H 0.3837 0.4231 0.9725
C17_5 C 0.2720(10) 0.5981(9) 0.9547(4)
H9_5 H 0.2455 0.6443 0.9689
C18_5 C 0.2677(11) 0.6032(10) 0.9104(4)
H10_5 H 0.2367 0.6505 0.8951
C20_3 C 0.6507(10) 0.1374(9) 0.5396(5)
C19_3 C 0.9622(9) 0.1375(9) 0.5559(4)
C19_4 C 0.0378(9) 0.1375(9) 0.9441(4)
C1_6 C 0.8566(10) 0.3318(9) 0.9509(4)
C2_6 C 0.5408(9) 0.3162(9) 0.9469(4)
C3_4 C 0.5378(9) 0.6375(9) 0.9441(4)
C4_4 C 0.8493(10) 0.6374(9) 0.9604(5)
N1_6 N 0.7994(8) 0.3827(8) 0.9527(3)
N2_6 N 0.5928(8) 0.3714(7) 0.9428(3)
N3_6 N 0.5889(8) 0.5807(7) 0.9445(3)
N4_6 N 0.7932(8) 0.5847(8) 0.9610(4)
N5_6 N 0.6902(7) 0.4895(8) 0.8802(3)
C5_6 C 0.7676(9) 0.4938(11) 0.8640(4)
H1_6 H 0.8215 0.4882 0.8832
C6_6 C 0.7735(10) 0.5061(13) 0.8208(4)
H2_6 H 0.8300 0.5108 0.8114
C7_6 C 0.6952(9) 0.5114(11) 0.7915(4)
C8_6 C 0.6137(9) 0.5043(11) 0.8079(4)
H3_6 H 0.5588 0.5058 0.7894
C9_6 C 0.6147(9) 0.4950(11) 0.8518(4)
H4_6 H 0.5592 0.4925 0.8623
C10_6 C 0.6988(9) 0.5244(11) 0.7444(4)
C11_6 C 0.7725(11) 0.5615(14) 0.7290(5)
H5_6 H 0.8226 0.5812 0.7481
N6_6 N 0.6254(9) 0.5015(11) 0.6746(4)
N7_6 N 0.6265(8) 0.4960(10) 0.7175(4)
C12_6 C 0.7713(10) 0.5691(13) 0.6858(5)
H6_6 H 0.8198 0.5949 0.6743
C13_6 C 0.6961(9) 0.5375(10) 0.6594(4)
C14_6 C 0.6906(9) 0.5384(9) 0.6109(4)
C15_6 C 0.6455(11) 0.4711(11) 0.5868(4)
H7_6 H 0.6145 0.4266 0.6000
C16_6 C 0.6467(11) 0.4700(11) 0.5435(4)
H8_6 H 0.6163 0.4231 0.5275
C17_6 C 0.7280(10) 0.5981(9) 0.5453(4)
H9_6 H 0.7545 0.6443 0.5311
C18_6 C 0.7323(11) 0.6032(10) 0.5896(4)
H10_6 H 0.7633 0.6505 0.6049
C20_4 C 0.3493(10) 0.1374(9) 0.9604(5)
N3_7 N 0.9111(8) 0.0807(7) 0.5555(3)
N4_7 N 0.7068(8) 0.0847(8) 0.5390(4)
C6_7 C 0.7265(10) 0.0061(13) 0.6792(4)
H2_7 H 0.6700 0.0108 0.6886
C7_7 C 0.8048(9) 0.0114(11) 0.7085(4)
C8_7 C 0.8863(9) 0.0043(11) 0.6921(4)
H3_7 H 0.9412 0.0058 0.7106
C10_7 C 0.8012(9) 0.0244(11) 0.7556(4)
C11_7 C 0.7275(11) 0.0615(14) 0.7710(5)
H5_7 H 0.6774 0.0812 0.7519
N6_7 N 0.8746(9) 0.0015(11) 0.8254(4)
C12_7 C 0.7287(10) 0.0691(13) 0.8142(5)
H6_7 H 0.6802 0.0949 0.8257
C13_7 C 0.8039(9) 0.0375(10) 0.8406(4)
C14_7 C 0.8094(9) 0.0384(9) 0.8891(4)
C17_7 C 0.7720(10) 0.0981(9) 0.9547(4)
H9_7 H 0.7455 0.1443 0.9689
C18_7 C 0.7677(11) 0.1032(10) 0.9104(4)
H10_7 H 0.7367 0.1505 0.8951
C1_7 C 0.6434(10) 0.8318(9) 0.5491(4)
C2_7 C 0.9592(9) 0.8162(9) 0.5531(4)
N1_7 N 0.7006(8) 0.8827(8) 0.5473(3)
N2_7 N 0.9072(8) 0.8714(7) 0.5572(3)
N5_7 N 0.8098(7) 0.9895(8) 0.6198(3)
C5_7 C 0.7324(9) 0.9938(11) 0.6360(4)
H1_7 H 0.6785 0.9882 0.6168
C9_7 C 0.8853(9) 0.9950(11) 0.6482(4)
H4_7 H 0.9408 0.9925 0.6377
N7_7 N 0.8735(8) 0.9960(10) 0.7825(4)
C15_7 C 0.8545(11) 0.9711(11) 0.9132(4)
H7_7 H 0.8855 0.9266 0.9000
C16_7 C 0.8533(11) 0.9700(11) 0.9565(4)
H8_7 H 0.8837 0.9231 0.9725
N3_8 N 0.0889(8) 0.0807(7) 0.9445(3)
N4_8 N 0.2932(8) 0.0847(8) 0.9610(4)
C6_8 C 0.2735(10) 0.0061(13) 0.8208(4)
H2_8 H 0.3300 0.0108 0.8114
C7_8 C 0.1952(9) 0.0114(11) 0.7915(4)
C8_8 C 0.1137(9) 0.0043(11) 0.8079(4)
H3_8 H 0.0588 0.0058 0.7894
C10_8 C 0.1988(9) 0.0244(11) 0.7444(4)
C11_8 C 0.2725(11) 0.0615(14) 0.7290(5)
H5_8 H 0.3226 0.0812 0.7481
N6_8 N 0.1254(9) 0.0015(11) 0.6746(4)
C12_8 C 0.2713(10) 0.0691(13) 0.6858(5)
H6_8 H 0.3198 0.0949 0.6743
C13_8 C 0.1961(9) 0.0375(10) 0.6594(4)
C14_8 C 0.1906(9) 0.0384(9) 0.6109(4)
C17_8 C 0.2280(10) 0.0981(9) 0.5453(4)
H9_8 H 0.2545 0.1443 0.5311
C18_8 C 0.2323(11) 0.1032(10) 0.5896(4)
H10_8 H 0.2633 0.1505 0.6049
C1_8 C 0.3566(10) 0.8318(9) 0.9509(4)
C2_8 C 0.0408(9) 0.8162(9) 0.9469(4)
N1_8 N 0.2994(8) 0.8827(8) 0.9527(3)
N2_8 N 0.0928(8) 0.8714(7) 0.9428(3)
N5_8 N 0.1902(7) 0.9895(8) 0.8802(3)
C5_8 C 0.2676(9) 0.9938(11) 0.8640(4)
H1_8 H 0.3215 0.9882 0.8832
C9_8 C 0.1147(9) 0.9950(11) 0.8518(4)
H4_8 H 0.0592 0.9925 0.8623
N7_8 N 0.1265(8) 0.9960(10) 0.7175(4)
C15_8 C 0.1455(11) 0.9711(11) 0.5868(4)
H7_8 H 0.1145 0.9266 0.6000
C16_8 C 0.1467(11) 0.9700(11) 0.5435(4)
H8_8 H 0.1163 0.9231 0.5275
loop_
_geom_bond_atom_site_label_1
_geom_bond_atom_site_label_2
_geom_bond_site_symmetry_1
_geom_bond_site_symmetry_2
Fe1 N1 1_555 1_555
Au1 C2 1_555 1_555
Au2 C1 1_555 1_555
C1 N1 1_555 1_555
C2 N2 1_555 1_555
C3 N3 1_555 1_555
C4 N4 1_555 1_555
N2 Fe1 1_555 1_555
N3 Fe1 1_555 1_555
N4 Fe1 1_555 1_555
N5 Fe1 1_555 1_555
C5 N5 1_555 1_555
H1 C5 1_555 1_555
C6 C5 1_555 1_555
H2 C6 1_555 1_555
C7 C6 1_555 1_555
C8 C7 1_555 1_555
H3 C8 1_555 1_555
C9 N5 1_555 1_555
H4 C9 1_555 1_555
C10 C7 1_555 1_555
C11 C10 1_555 1_555
H5 C11 1_555 1_555
N6 N7 1_555 1_555
N7 C10 1_555 1_555
C12 C11 1_555 1_555
H6 C12 1_555 1_555
C13 N6 1_555 1_555
C14 C13 1_555 1_555
C15 C14 1_555 1_555
H7 C15 1_555 1_555
C16 C15 1_555 1_555
H8 C16 1_555 1_555
C17 H9 1_555 1_555
C18 C14 1_555 1_555
H10 C18 1_555 1_555
N8 C16 1_555 1_555
Au3 C4 1_555 1_555
Au5 C3 1_555 1_555
Au6 Au1 1_555 1_555
C20 Au1 1_555 1_555
N9 Fe1 1_555 1_555
C8 C9 1_555 1_555
C12 C13 1_555 1_555
C17 C18 1_555 1_555
C17 N8 1_555 1_555
Fe1_2 N1_2 1_555 1_555
Au1_2 C2_2 1_555 1_555
Au2_2 C1_2 1_555 1_555
C1_2 N1_2 1_555 1_555
C2_2 N2_2 1_555 1_555
C3_2 N3_2 1_555 1_555
C4_2 N4_2 1_555 1_555
N2_2 Fe1_2 1_555 1_555
N3_2 Fe1_2 1_555 1_555
N4_2 Fe1_2 1_555 1_555
N5_2 Fe1_2 1_555 1_555
C5_2 N5_2 1_555 1_555
H1_2 C5_2 1_555 1_555
C6_2 C5_2 1_555 1_555
H2_2 C6_2 1_555 1_555
C7_2 C6_2 1_555 1_555
C8_2 C7_2 1_555 1_555
H3_2 C8_2 1_555 1_555
C9_2 N5_2 1_555 1_555
H4_2 C9_2 1_555 1_555
C10_2 C7_2 1_555 1_555
C11_2 C10_2 1_555 1_555
H5_2 C11_2 1_555 1_555
N6_2 N7_2 1_555 1_555
N7_2 C10_2 1_555 1_555
C12_2 C11_2 1_555 1_555
H6_2 C12_2 1_555 1_555
C13_2 N6_2 1_555 1_555
C14_2 C13_2 1_555 1_555
C15_2 C14_2 1_555 1_555
H7_2 C15_2 1_555 1_555
C16_2 C15_2 1_555 1_555
H8_2 C16_2 1_555 1_555
C17_2 H9_2 1_555 1_555
C18_2 C14_2 1_555 1_555
H10_2 C18_2 1_555 1_555
N8_2 C16_2 1_555 1_555
Fe2_2 N8_2 1_555 1_555
Au3_2 C4_2 1_555 1_555
Au5_2 C3_2 1_555 1_555
C20_2 Au1_2 1_555 1_555
C8_2 C9_2 1_555 1_555
C12_2 C13_2 1_555 1_555
C17_2 C18_2 1_555 1_555
C17_2 N8_2 1_555 1_555
Fe1_3 N1_3 1_555 1_555
Au5 C1_3 1_555 1_555
C1_3 N1_3 1_555 1_555
C2_3 N2_3 1_555 1_555
N2_3 Fe1_3 1_555 1_555
N5_3 Fe1_3 1_555 1_555
C5_3 N5_3 1_555 1_555
H1_3 C5_3 1_555 1_555
C9_3 N5_3 1_555 1_555
H4_3 C9_3 1_555 1_555
H7_3 C15_3 1_555 1_555
C16_3 C15_3 1_555 1_555
H8_3 C16_3 1_555 1_555
Au4_3 Au5 1_555 1_555
N9_3 Fe1_3 1_555 1_555
C19 N3_3 1_555 1_555
C20 N4_3 1_555 1_555
H2_3 C6_3 1_555 1_555
C7_3 C6_3 1_555 1_555
C8_3 C7_3 1_555 1_555
H3_3 C8_3 1_555 1_555
C10_3 C7_3 1_555 1_555
C11_3 C10_3 1_555 1_555
H5_3 C11_3 1_555 1_555
C12_3 C11_3 1_555 1_555
H6_3 C12_3 1_555 1_555
C13_3 N6_3 1_555 1_555
C14_3 C13_3 1_555 1_555
C17_3 H9_3 1_555 1_555
C18_3 C14_3 1_555 1_555
H10_3 C18_3 1_555 1_555
C12_3 C13_3 1_555 1_555
C17_3 C18_3 1_555 1_555
C17_3 N8_3 1_555 1_555
Fe1_4 N1_4 1_555 1_555
Au5_2 C1_4 1_555 1_555
C1_4 N1_4 1_555 1_555
C2_4 N2_4 1_555 1_555
N2_4 Fe1_4 1_555 1_555
N5_4 Fe1_4 1_555 1_555
C5_4 N5_4 1_555 1_555
H1_4 C5_4 1_555 1_555
C9_4 N5_4 1_555 1_555
H4_4 C9_4 1_555 1_555
H7_4 C15_4 1_555 1_555
C16_4 C15_4 1_555 1_555
H8_4 C16_4 1_555 1_555
C19_2 N3_4 1_555 1_555
C20_2 N4_4 1_555 1_555
H2_4 C6_4 1_555 1_555
C7_4 C6_4 1_555 1_555
C8_4 C7_4 1_555 1_555
H3_4 C8_4 1_555 1_555
C10_4 C7_4 1_555 1_555
C11_4 C10_4 1_555 1_555
H5_4 C11_4 1_555 1_555
C12_4 C11_4 1_555 1_555
H6_4 C12_4 1_555 1_555
C13_4 N6_4 1_555 1_555
C14_4 C13_4 1_555 1_555
C17_4 H9_4 1_555 1_555
C18_4 C14_4 1_555 1_555
H10_4 C18_4 1_555 1_555
Fe2_4 N8_4 1_555 1_555
C12_4 C13_4 1_555 1_555
C17_4 C18_4 1_555 1_555
C17_4 N8_4 1_555 1_555
Fe2_2 N1_5 1_555 1_555
Au4_3 C2_5 1_555 1_555
Au6_3 C1_5 1_555 1_555
C1_5 N1_5 1_555 1_555
C2_5 N2_5 1_555 1_555
C3_3 N3_5 1_555 1_555
C4_3 N4_5 1_555 1_555
N2_5 Fe2_2 1_555 1_555
N3_5 Fe2_2 1_555 1_555
N4_5 Fe2_2 1_555 1_555
N5_5 Fe2_2 1_555 1_555
C5_5 N5_5 1_555 1_555
H1_5 C5_5 1_555 1_555
C6_5 C5_5 1_555 1_555
H2_5 C6_5 1_555 1_555
C7_5 C6_5 1_555 1_555
C8_5 C7_5 1_555 1_555
H3_5 C8_5 1_555 1_555
C9_5 N5_5 1_555 1_555
H4_5 C9_5 1_555 1_555
C10_5 C7_5 1_555 1_555
C11_5 C10_5 1_555 1_555
H5_5 C11_5 1_555 1_555
N6_5 N7_5 1_555 1_555
N7_5 C10_5 1_555 1_555
C12_5 C11_5 1_555 1_555
H6_5 C12_5 1_555 1_555
C13_5 N6_5 1_555 1_555
C14_5 C13_5 1_555 1_555
C15_5 C14_5 1_555 1_555
H7_5 C15_5 1_555 1_555
C16_5 C15_5 1_555 1_555
H8_5 C16_5 1_555 1_555
C17_5 H9_5 1_555 1_555
C18_5 C14_5 1_555 1_555
H10_5 C18_5 1_555 1_555
N9_2 C16_5 1_555 1_555
Au4 C4_3 1_555 1_555
Au6 C3_3 1_555 1_555
C20_3 Au4_3 1_555 1_555
C8_5 C9_5 1_555 1_555
C12_5 C13_5 1_555 1_555
C17_5 C18_5 1_555 1_555
C17_5 N9_2 1_555 1_555
Fe2 N1_6 1_555 1_555
Au4_4 C2_6 1_555 1_555
Au6_4 C1_6 1_555 1_555
C1_6 N1_6 1_555 1_555
C2_6 N2_6 1_555 1_555
C3_4 N3_6 1_555 1_555
C4_4 N4_6 1_555 1_555
N2_6 Fe2 1_555 1_555
N3_6 Fe2 1_555 1_555
N4_6 Fe2 1_555 1_555
N5_6 Fe2 1_555 1_555
C5_6 N5_6 1_555 1_555
H1_6 C5_6 1_555 1_555
C6_6 C5_6 1_555 1_555
H2_6 C6_6 1_555 1_555
C7_6 C6_6 1_555 1_555
C8_6 C7_6 1_555 1_555
H3_6 C8_6 1_555 1_555
C9_6 N5_6 1_555 1_555
H4_6 C9_6 1_555 1_555
C10_6 C7_6 1_555 1_555
C11_6 C10_6 1_555 1_555
H5_6 C11_6 1_555 1_555
N6_6 N7_6 1_555 1_555
N7_6 C10_6 1_555 1_555
C12_6 C11_6 1_555 1_555
H6_6 C12_6 1_555 1_555
C13_6 N6_6 1_555 1_555
C14_6 C13_6 1_555 1_555
C15_6 C14_6 1_555 1_555
H7_6 C15_6 1_555 1_555
C16_6 C15_6 1_555 1_555
H8_6 C16_6 1_555 1_555
C17_6 H9_6 1_555 1_555
C18_6 C14_6 1_555 1_555
H10_6 C18_6 1_555 1_555
N9 C16_6 1_555 1_555
Au4_2 C4_4 1_555 1_555
Au6_2 C3_4 1_555 1_555
C20_4 Au4_4 1_555 1_555
C8_6 C9_6 1_555 1_555
C12_6 C13_6 1_555 1_555
C17_6 C18_6 1_555 1_555
C17_6 N9 1_555 1_555
C19_3 N3_7 1_555 1_555
C20_3 N4_7 1_555 1_555
H2_7 C6_7 1_555 1_555
C7_7 C6_7 1_555 1_555
C8_7 C7_7 1_555 1_555
H3_7 C8_7 1_555 1_555
C10_7 C7_7 1_555 1_555
C11_7 C10_7 1_555 1_555
H5_7 C11_7 1_555 1_555
C12_7 C11_7 1_555 1_555
H6_7 C12_7 1_555 1_555
C13_7 N6_7 1_555 1_555
C14_7 C13_7 1_555 1_555
C17_7 H9_7 1_555 1_555
C18_7 C14_7 1_555 1_555
H10_7 C18_7 1_555 1_555
C12_7 C13_7 1_555 1_555
C17_7 C18_7 1_555 1_555
C17_7 N9_4 1_555 1_555
Fe2_4 N1_7 1_555 1_555
Au6 C1_7 1_555 1_555
C1_7 N1_7 1_555 1_555
C2_7 N2_7 1_555 1_555
N2_7 Fe2_4 1_555 1_555
N5_7 Fe2_4 1_555 1_555
C5_7 N5_7 1_555 1_555
H1_7 C5_7 1_555 1_555
C9_7 N5_7 1_555 1_555
H4_7 C9_7 1_555 1_555
H7_7 C15_7 1_555 1_555
C16_7 C15_7 1_555 1_555
H8_7 C16_7 1_555 1_555
C19_4 N3_8 1_555 1_555
C20_4 N4_8 1_555 1_555
H2_8 C6_8 1_555 1_555
C7_8 C6_8 1_555 1_555
C8_8 C7_8 1_555 1_555
H3_8 C8_8 1_555 1_555
C10_8 C7_8 1_555 1_555
C11_8 C10_8 1_555 1_555
H5_8 C11_8 1_555 1_555
C12_8 C11_8 1_555 1_555
H6_8 C12_8 1_555 1_555
C13_8 N6_8 1_555 1_555
C14_8 C13_8 1_555 1_555
C17_8 H9_8 1_555 1_555
C18_8 C14_8 1_555 1_555
H10_8 C18_8 1_555 1_555
C12_8 C13_8 1_555 1_555
C17_8 C18_8 1_555 1_555
C17_8 N9_3 1_555 1_555
Fe2_3 N1_8 1_555 1_555
Au6_2 C1_8 1_555 1_555
C1_8 N1_8 1_555 1_555
C2_8 N2_8 1_555 1_555
N2_8 Fe2_3 1_555 1_555
N5_8 Fe2_3 1_555 1_555
C5_8 N5_8 1_555 1_555
H1_8 C5_8 1_555 1_555
C9_8 N5_8 1_555 1_555
H4_8 C9_8 1_555 1_555
H7_8 C15_8 1_555 1_555
C16_8 C15_8 1_555 1_555
H8_8 C16_8 1_555 1_555

#END
