
###############################################################################
#
# This file contains modified crystal structure data generated from the
# MOF subset of the Cambridge Structural Database (CSD) v543 
# hosted by the Cambridge Crystallographic Data Centre (CCDC).
#
# This work is licensed under the Creative Commons
# Attribution-NonCommercial-ShareAlike 4.0 International License.
# To view a copy of this license, visit
# http://creativecommons.org/licenses/by-nc-sa/4.0/
# or send a letter to
# Creative Commons, PO Box 1866, Mountain View, CA 94042, USA.
#
# CIF created using the CSD Python API on 29 September 2022
# The structure has been converted into the P1 space group
# The structure has a 3D framework
# The original CSD entry AXIPEE02 is in the monoclinic crystal system
# The framework has been calculated to contain at least 10.0% void space
# The void calculation uses a probe of radius 1.32A, grid spacing 0.4
#
###############################################################################

data_AXIPEE02
_chemical_formula_moiety         '(C432 H240 Au44 Fe24 N192)n'
_symmetry_cell_setting           triclinic
_symmetry_space_group_name_H-M   'P 1'
_symmetry_Int_Tables_number      1
_space_group_name_Hall           'P 1'
loop_
_symmetry_equiv_pos_site_id
_symmetry_equiv_pos_as_xyz
1 x,y,z
_cell_length_a                   43.1076(10)
_cell_length_b                   14.6316(2)
_cell_length_c                   32.3210(6)
_cell_angle_alpha                90
_cell_angle_beta                 109.490(2)
_cell_angle_gamma                90
_cell_volume                     19217.8
loop_
_atom_site_label
_atom_site_type_symbol
_atom_site_fract_x
_atom_site_fract_y
_atom_site_fract_z
C59 C 0.1155(2) 0.0772(6) 0.0511(3)
Au2 Au 0.078860(10) 0.01581(3) 0.946934(13)
C55 C 0.0464(2) 0.1180(7) 0.9429(3)
Au10 Au 0.253613(10) 0.02230(3) 0.956530(13)
C1 C 0.0476(2) 0.8863(6) 0.0421(3)
C4 C 0.0535(2) 0.5845(6) 0.0506(3)
C9 C 0.1168(2) 0.3849(6) 0.0553(3)
C10 C 0.2114(3) 0.3816(7) 0.0395(3)
C11 C 0.2170(2) 0.0883(7) 0.0487(3)
C13 C 0.0045(2) 0.7382(7) 0.1437(3)
C14 C 0.0550(2) 0.7391(7) 0.1351(3)
H2 H 0.0679 0.7353 0.1164
C15 C 0.0186(3) 0.7453(7) 0.1892(3)
H3 H 0.0052 0.7447 0.2073
C16 C 0.0709(3) 0.7476(7) 0.1795(3)
H4 H 0.0943 0.7498 0.1910
C17 C 0.0524(2) 0.7531(7) 0.2076(3)
C18 C 0.0688(3) 0.7649(7) 0.2555(3)
C19 C 0.0983(3) 0.8145(8) 0.2719(4)
H5 H 0.1081 0.8417 0.2527
C20 C 0.1123(3) 0.8225(8) 0.3162(3)
H6 H 0.1322 0.8557 0.3289
C21 C 0.0965(2) 0.7805(7) 0.3425(3)
C22 C 0.1115(2) 0.7812(7) 0.3909(3)
C23 C 0.1095(3) 0.7054(8) 0.4148(3)
H7 H 0.0972 0.6538 0.4005
C24 C 0.1287(2) 0.8552(7) 0.4140(3)
H8 H 0.1305 0.9094 0.3989
C25 C 0.1254(3) 0.7040(7) 0.4601(3)
H9 H 0.1242 0.6499 0.4757
C26 C 0.1433(2) 0.8503(6) 0.4594(3)
H10 H 0.1545 0.9025 0.4747
C41 C 0.1688(3) 0.2381(7) 0.1421(3)
H21 H 0.1455 0.2322 0.1300
C42 C 0.2191(3) 0.2406(7) 0.1332(3)
H22 H 0.2319 0.2365 0.1143
C43 C 0.1830(3) 0.2472(7) 0.1872(4)
H23 H 0.1697 0.2485 0.2054
C44 C 0.2355(3) 0.2495(7) 0.1772(3)
H24 H 0.2588 0.2522 0.1883
C45 C 0.2171(3) 0.2545(7) 0.2055(3)
C46 C 0.2342(2) 0.2668(8) 0.2535(3)
C47 C 0.2636(3) 0.3129(8) 0.2694(4)
H25 H 0.2735 0.3380 0.2498
C48 C 0.2782(3) 0.3219(8) 0.3134(3)
H26 H 0.2986 0.3531 0.3257
C49 C 0.2617(2) 0.2827(7) 0.3402(3)
C50 C 0.2769(2) 0.2840(7) 0.3885(3)
C51 C 0.2724(3) 0.2118(8) 0.4129(4)
H27 H 0.2582 0.1628 0.3991
C52 C 0.2961(2) 0.3555(7) 0.4113(3)
H28 H 0.2991 0.4084 0.3960
C53 C 0.2885(3) 0.2106(8) 0.4576(4)
H29 H 0.2855 0.1586 0.4734
C54 C 0.3109(2) 0.3497(6) 0.4559(3)
H30 H 0.3239 0.3998 0.4708
N1 N 0.0301(2) 0.8295(5) 0.0441(3)
N4 N 0.03391(19) 0.6384(5) 0.0489(2)
N9 N 0.13353(19) 0.3256(5) 0.0536(2)
N10 N 0.19345(19) 0.3283(5) 0.0417(3)
N11 N 0.19703(19) 0.1402(5) 0.0467(3)
N12 N 0.1346(2) 0.1326(5) 0.0537(3)
N13 N 0.02224(18) 0.7358(5) 0.1170(2)
N14 N 0.0542(2) 0.7298(7) 0.2820(3)
N15 N 0.0686(2) 0.7362(7) 0.3261(3)
N16 N 0.14218(18) 0.7742(5) 0.4823(2)
N21 N 0.18616(19) 0.2371(5) 0.1147(3)
N22 N 0.2190(2) 0.2334(7) 0.2798(3)
N23 N 0.2333(2) 0.2403(7) 0.3238(3)
N24 N 0.3079(2) 0.2766(6) 0.4801(3)
Fe1 Fe 0.00111(3) 0.73091(10) 0.05090(4)
Fe3 Fe 0.16455(3) 0.23131(10) 0.04874(4)
Au1 Au 0.081168(9) 0.98247(3) 0.044531(12)
Au3 Au 0.085851(9) 0.48708(3) 0.052575(12)
Au5 Au 0.246387(10) 0.47770(3) 0.043470(13)
C57 C 0.2806(2) 0.5681(6) 0.0521(3)
N27 N 0.1921(2) 0.7766(6) 0.0199(3)
Fe5 Fe 0.33276(3) 0.26914(9) 0.54985(4)
Fe6 Fe 0.16455(3) 0.76869(10) 0.54874(4)
C5 C 0.1113(2) 0.9213(6) 0.9509(3)
C6 C 0.1172(2) 0.6069(6) 0.9590(3)
C7 C 0.2178(2) 0.6070(6) 0.9437(3)
C8 C 0.2194(2) 0.9319(6) 0.9479(3)
C27 C 0.1112(3) 0.7614(7) 0.8623(3)
H11 H 0.0983 0.7666 0.8810
C28 C 0.1610(3) 0.7593(7) 0.8529(3)
H12 H 0.1844 0.7621 0.8651
C29 C 0.0952(3) 0.7516(7) 0.8182(3)
H13 H 0.0719 0.7493 0.8069
C30 C 0.1472(3) 0.7507(7) 0.8080(4)
H14 H 0.1607 0.7486 0.7900
C31 C 0.1134(3) 0.7452(7) 0.7899(3)
C32 C 0.0962(3) 0.7318(8) 0.7422(3)
C33 C 0.0671(3) 0.6832(8) 0.7262(4)
H15 H 0.0574 0.6561 0.7456
C34 C 0.0527(3) 0.6750(8) 0.6820(3)
H16 H 0.0329 0.6414 0.6698
C35 C 0.0680(3) 0.7175(7) 0.6550(3)
C36 C 0.0529(3) 0.7178(7) 0.6066(3)
C37 C 0.0357(3) 0.6434(7) 0.5839(3)
H17 H 0.0341 0.5889 0.5990
C38 C 0.0543(3) 0.7956(8) 0.5826(4)
H18 H 0.0664 0.8476 0.5967
C39 C 0.0210(2) 0.6490(6) 0.5390(3)
H19 H 0.0101 0.5964 0.5238
C40 C 0.0375(3) 0.7957(8) 0.5378(4)
H20 H 0.0379 0.8505 0.5222
N5 N 0.1319(2) 0.8665(6) 0.9524(3)
N6 N 0.1362(2) 0.6646(6) 0.9587(3)
N7 N 0.2002(2) 0.6685(6) 0.9439(3)
N8 N 0.1991(2) 0.8758(6) 0.9443(3)
N17 N 0.14382(19) 0.7640(5) 0.8804(3)
N18 N 0.1109(2) 0.7687(7) 0.7155(3)
N19 N 0.0962(2) 0.7613(7) 0.6716(3)
N20 N 0.02120(19) 0.7258(5) 0.5152(3)
Fe2 Fe 0.16724(3) 0.76914(9) 0.95015(4)
Au4 Au 0.083281(10) 0.51568(3) 0.955435(13)
Au6 Au 0.249087(9) 0.50888(3) 0.947773(13)
C56 C 0.0477(2) 0.4211(7) 0.9471(3)
C58 C 0.2830(2) 0.4117(7) 0.9513(3)
N25 N 0.14218(18) 0.2258(5) 0.9823(2)
Au11 Au 0.250913(9) 0.99112(3) 0.052227(13)
C2 C 0.9536(2) 0.8820(7) 0.0571(3)
C3 C 0.9523(2) 0.5789(7) 0.0529(3)
H1 H 0.9813 0.7351 0.1313
N2 N 0.97003(19) 0.8243(5) 0.0553(2)
N3 N 0.97142(19) 0.6334(5) 0.0549(2)
Au8 Au 0.921140(10) 0.98419(3) 0.053066(13)
Au9 Au 0.916719(10) 0.48432(3) 0.044565(13)
N26 N 0.97880(19) 0.7258(5) 0.9848(3)
Fe4 Fe 0.99889(3) 0.73091(10) 0.44910(4)
C2_2 C 0.0464(2) 0.8820(7) 0.4429(3)
C3_2 C 0.0477(2) 0.5789(7) 0.4471(3)
H1_2 H 0.0187 0.7351 0.3687
N2_2 N 0.02997(19) 0.8243(5) 0.4447(2)
N3_2 N 0.02858(19) 0.6334(5) 0.4451(2)
Au8_2 Au 0.078860(10) 0.98419(3) 0.446934(13)
Au9_2 Au 0.083281(10) 0.48432(3) 0.455435(13)
Au2_2 Au 0.921140(10) 0.01581(3) 0.553066(13)
C55_2 C 0.9536(2) 0.1180(7) 0.5571(3)
C59_2 C 0.8845(2) 0.0772(6) 0.4489(3)
Au10_2 Au 0.746387(10) 0.02230(3) 0.543470(13)
C1_2 C 0.9524(2) 0.8863(6) 0.4579(3)
C4_2 C 0.9465(2) 0.5845(6) 0.4494(3)
C5_2 C 0.8887(2) 0.9213(6) 0.5491(3)
C6_2 C 0.8828(2) 0.6069(6) 0.5410(3)
C7_2 C 0.7822(2) 0.6070(6) 0.5563(3)
C8_2 C 0.7806(2) 0.9319(6) 0.5521(3)
C9_2 C 0.8832(2) 0.3849(6) 0.4447(3)
C10_2 C 0.7886(3) 0.3816(7) 0.4605(3)
C11_2 C 0.7830(2) 0.0883(7) 0.4513(3)
C13_2 C 0.9955(2) 0.7382(7) 0.3563(3)
C14_2 C 0.9450(2) 0.7391(7) 0.3649(3)
H2_2 H 0.9321 0.7353 0.3836
C15_2 C 0.9814(3) 0.7453(7) 0.3108(3)
H3_2 H 0.9948 0.7447 0.2927
C16_2 C 0.9291(3) 0.7476(7) 0.3205(3)
H4_2 H 0.9057 0.7498 0.3090
C17_2 C 0.9476(2) 0.7531(7) 0.2924(3)
C18_2 C 0.9312(3) 0.7649(7) 0.2445(3)
C19_2 C 0.9017(3) 0.8145(8) 0.2281(4)
H5_2 H 0.8919 0.8417 0.2473
C20_2 C 0.8877(3) 0.8225(8) 0.1838(3)
H6_2 H 0.8678 0.8557 0.1711
C21_2 C 0.9035(2) 0.7805(7) 0.1575(3)
C22_2 C 0.8885(2) 0.7812(7) 0.1091(3)
C23_2 C 0.8905(3) 0.7054(8) 0.0852(3)
H7_2 H 0.9028 0.6538 0.0995
C24_2 C 0.8713(2) 0.8552(7) 0.0860(3)
H8_2 H 0.8695 0.9094 0.1011
C25_2 C 0.8746(3) 0.7040(7) 0.0399(3)
H9_2 H 0.8758 0.6499 0.0243
C26_2 C 0.8567(2) 0.8503(6) 0.0406(3)
H10_2 H 0.8455 0.9025 0.0253
C27_2 C 0.8888(3) 0.7614(7) 0.6377(3)
H11_2 H 0.9017 0.7666 0.6190
C28_2 C 0.8390(3) 0.7593(7) 0.6471(3)
H12_2 H 0.8156 0.7621 0.6349
C29_2 C 0.9048(3) 0.7516(7) 0.6818(3)
H13_2 H 0.9281 0.7493 0.6931
C30_2 C 0.8528(3) 0.7507(7) 0.6920(4)
H14_2 H 0.8393 0.7486 0.7100
C31_2 C 0.8866(3) 0.7452(7) 0.7101(3)
C32_2 C 0.9038(3) 0.7318(8) 0.7578(3)
C33_2 C 0.9329(3) 0.6832(8) 0.7738(4)
H15_2 H 0.9426 0.6561 0.7544
C34_2 C 0.9473(3) 0.6750(8) 0.8180(3)
H16_2 H 0.9671 0.6414 0.8302
C35_2 C 0.9320(3) 0.7175(7) 0.8450(3)
C36_2 C 0.9471(3) 0.7178(7) 0.8934(3)
C37_2 C 0.9643(3) 0.6434(7) 0.9161(3)
H17_2 H 0.9659 0.5889 0.9010
C38_2 C 0.9457(3) 0.7956(8) 0.9174(4)
H18_2 H 0.9336 0.8476 0.9033
C39_2 C 0.9790(2) 0.6490(6) 0.9610(3)
H19_2 H 0.9899 0.5964 0.9762
C40_2 C 0.9625(3) 0.7957(8) 0.9622(4)
H20_2 H 0.9621 0.8505 0.9778
C41_2 C 0.8312(3) 0.2381(7) 0.3579(3)
H21_2 H 0.8545 0.2322 0.3700
C42_2 C 0.7809(3) 0.2406(7) 0.3668(3)
H22_2 H 0.7681 0.2365 0.3857
C43_2 C 0.8170(3) 0.2472(7) 0.3128(4)
H23_2 H 0.8303 0.2485 0.2946
C44_2 C 0.7645(3) 0.2495(7) 0.3228(3)
H24_2 H 0.7412 0.2522 0.3117
C45_2 C 0.7829(3) 0.2545(7) 0.2945(3)
C46_2 C 0.7658(2) 0.2668(8) 0.2465(3)
C47_2 C 0.7364(3) 0.3129(8) 0.2306(4)
H25_2 H 0.7265 0.3380 0.2502
C48_2 C 0.7218(3) 0.3219(8) 0.1866(3)
H26_2 H 0.7014 0.3531 0.1743
C49_2 C 0.7383(2) 0.2827(7) 0.1598(3)
C50_2 C 0.7231(2) 0.2840(7) 0.1115(3)
C51_2 C 0.7276(3) 0.2118(8) 0.0871(4)
H27_2 H 0.7418 0.1628 0.1009
C52_2 C 0.7039(2) 0.3555(7) 0.0887(3)
H28_2 H 0.7009 0.4084 0.1040
C53_2 C 0.7115(3) 0.2106(8) 0.0424(4)
H29_2 H 0.7145 0.1586 0.0266
C54_2 C 0.6891(2) 0.3497(6) 0.0441(3)
H30_2 H 0.6761 0.3998 0.0292
N1_2 N 0.9699(2) 0.8295(5) 0.4559(3)
N4_2 N 0.96609(19) 0.6384(5) 0.4511(2)
N5_2 N 0.8681(2) 0.8665(6) 0.5476(3)
N6_2 N 0.8638(2) 0.6646(6) 0.5413(3)
N7_2 N 0.7998(2) 0.6685(6) 0.5561(3)
N8_2 N 0.8009(2) 0.8758(6) 0.5557(3)
N9_2 N 0.86647(19) 0.3256(5) 0.4464(2)
N10_2 N 0.80655(19) 0.3283(5) 0.4583(3)
N11_2 N 0.80297(19) 0.1402(5) 0.4533(3)
N12_2 N 0.8654(2) 0.1326(5) 0.4463(3)
N13_2 N 0.97776(18) 0.7358(5) 0.3830(2)
N14_2 N 0.9458(2) 0.7298(7) 0.2180(3)
N15_2 N 0.9314(2) 0.7362(7) 0.1739(3)
N16_2 N 0.85782(18) 0.7742(5) 0.0177(2)
N17_2 N 0.85618(19) 0.7640(5) 0.6196(3)
N18_2 N 0.8891(2) 0.7687(7) 0.7845(3)
N19_2 N 0.9038(2) 0.7613(7) 0.8284(3)
N21_2 N 0.81384(19) 0.2371(5) 0.3853(3)
N22_2 N 0.7810(2) 0.2334(7) 0.2202(3)
N23_2 N 0.7667(2) 0.2403(7) 0.1762(3)
N24_2 N 0.6921(2) 0.2766(6) 0.0199(3)
Fe2_2 Fe 0.83276(3) 0.76914(9) 0.54985(4)
Fe3_2 Fe 0.83545(3) 0.23131(10) 0.45126(4)
Au1_2 Au 0.918832(9) 0.98247(3) 0.455469(12)
Au3_2 Au 0.914149(9) 0.48708(3) 0.447425(12)
Au4_2 Au 0.916719(10) 0.51568(3) 0.544565(13)
Au5_2 Au 0.753613(10) 0.47770(3) 0.456530(13)
Au6_2 Au 0.750913(9) 0.50888(3) 0.552227(13)
C56_2 C 0.9523(2) 0.4211(7) 0.5529(3)
C57_2 C 0.7194(2) 0.5681(6) 0.4479(3)
C58_2 C 0.7170(2) 0.4117(7) 0.5487(3)
N25_2 N 0.85782(18) 0.2258(5) 0.5177(2)
N27_2 N 0.8079(2) 0.7766(6) 0.4801(3)
Fe5_2 Fe 0.66724(3) 0.26914(9) 0.95015(4)
Fe6_2 Fe 0.83545(3) 0.76869(10) 0.95126(4)
Au11_2 Au 0.749087(9) 0.99112(3) 0.447773(13)
C1_3 C 0.5476(2) 0.3863(6) 0.0421(3)
C2_3 C 0.4536(2) 0.3820(7) 0.0571(3)
C3_3 C 0.4523(2) 0.0789(7) 0.0529(3)
C4_3 C 0.5535(2) 0.0845(6) 0.0506(3)
C13_3 C 0.5045(2) 0.2382(7) 0.1437(3)
H1_3 H 0.4813 0.2351 0.1313
C14_3 C 0.5550(2) 0.2391(7) 0.1351(3)
H2_3 H 0.5679 0.2353 0.1164
C15_3 C 0.5186(3) 0.2453(7) 0.1892(3)
H3_3 H 0.5052 0.2447 0.2073
C16_3 C 0.5709(3) 0.2476(7) 0.1795(3)
H4_3 H 0.5943 0.2498 0.1910
C17_3 C 0.5524(2) 0.2531(7) 0.2076(3)
C18_3 C 0.5688(3) 0.2649(7) 0.2555(3)
C19_3 C 0.5983(3) 0.3145(8) 0.2719(4)
H5_3 H 0.6081 0.3417 0.2527
C20_3 C 0.6123(3) 0.3225(8) 0.3162(3)
H6_3 H 0.6322 0.3557 0.3289
C21_3 C 0.5965(2) 0.2805(7) 0.3425(3)
C22_3 C 0.6115(2) 0.2812(7) 0.3909(3)
C23_3 C 0.6095(3) 0.2054(8) 0.4148(3)
H7_3 H 0.5972 0.1538 0.4005
C24_3 C 0.6287(2) 0.3552(7) 0.4140(3)
H8_3 H 0.6305 0.4094 0.3989
C25_3 C 0.6254(3) 0.2040(7) 0.4601(3)
H9_3 H 0.6242 0.1499 0.4757
C26_3 C 0.6433(2) 0.3503(6) 0.4594(3)
H10_3 H 0.6545 0.4025 0.4747
N1_3 N 0.5301(2) 0.3295(5) 0.0441(3)
N2_3 N 0.47003(19) 0.3243(5) 0.0553(2)
N3_3 N 0.47142(19) 0.1334(5) 0.0549(2)
N4_3 N 0.53391(19) 0.1384(5) 0.0489(2)
N13_3 N 0.52224(18) 0.2358(5) 0.1170(2)
N14_3 N 0.5542(2) 0.2298(7) 0.2820(3)
N15_3 N 0.5686(2) 0.2362(7) 0.3261(3)
N16_3 N 0.64218(18) 0.2742(5) 0.4823(2)
Fe1_2 Fe 0.50111(3) 0.23091(10) 0.05090(4)
Au1_3 Au 0.581168(9) 0.48247(3) 0.044531(12)
C57_3 C 0.7806(2) 0.0681(6) 0.0521(3)
C59_3 C 0.6155(2) 0.5772(6) 0.0511(3)
Fe6_3 Fe 0.66455(3) 0.26869(10) 0.54874(4)
Au8_3 Au 0.421140(10) 0.48419(3) 0.053066(13)
C5_3 C 0.6113(2) 0.4213(6) 0.9509(3)
C6_3 C 0.6172(2) 0.1069(6) 0.9590(3)
C7_3 C 0.7178(2) 0.1070(6) 0.9437(3)
C8_3 C 0.7194(2) 0.4319(6) 0.9479(3)
C27_3 C 0.6112(3) 0.2614(7) 0.8623(3)
H11_3 H 0.5983 0.2666 0.8810
C28_3 C 0.6610(3) 0.2593(7) 0.8529(3)
H12_3 H 0.6844 0.2621 0.8651
C29_3 C 0.5952(3) 0.2516(7) 0.8182(3)
H13_3 H 0.5719 0.2493 0.8069
C30_3 C 0.6472(3) 0.2507(7) 0.8080(4)
H14_3 H 0.6607 0.2486 0.7900
C31_3 C 0.6134(3) 0.2452(7) 0.7899(3)
C32_3 C 0.5962(3) 0.2318(8) 0.7422(3)
C33_3 C 0.5671(3) 0.1832(8) 0.7262(4)
H15_3 H 0.5574 0.1561 0.7456
C34_3 C 0.5527(3) 0.1750(8) 0.6820(3)
H16_3 H 0.5329 0.1414 0.6698
C35_3 C 0.5680(3) 0.2175(7) 0.6550(3)
C36_3 C 0.5529(3) 0.2178(7) 0.6066(3)
C37_3 C 0.5357(3) 0.1434(7) 0.5839(3)
H17_3 H 0.5341 0.0889 0.5990
C38_3 C 0.5543(3) 0.2956(8) 0.5826(4)
H18_3 H 0.5664 0.3476 0.5967
C39_3 C 0.5210(2) 0.1490(6) 0.5390(3)
H19_3 H 0.5101 0.0964 0.5238
C40_3 C 0.5375(3) 0.2957(8) 0.5378(4)
H20_3 H 0.5379 0.3505 0.5222
N5_3 N 0.6319(2) 0.3665(6) 0.9524(3)
N6_3 N 0.6362(2) 0.1646(6) 0.9587(3)
N7_3 N 0.7002(2) 0.1685(6) 0.9439(3)
N8_3 N 0.6991(2) 0.3758(6) 0.9443(3)
N17_3 N 0.64382(19) 0.2640(5) 0.8804(3)
N18_3 N 0.6109(2) 0.2687(7) 0.7155(3)
N19_3 N 0.5962(2) 0.2613(7) 0.6716(3)
N20_2 N 0.52120(19) 0.2258(5) 0.5152(3)
Au2_3 Au 0.578860(10) 0.51581(3) 0.946934(13)
Au4_3 Au 0.583281(10) 0.01568(3) 0.955435(13)
Au6_3 Au 0.749087(9) 0.00888(3) 0.947773(13)
C55_3 C 0.5464(2) 0.6180(7) 0.9429(3)
N26_2 N 0.47880(19) 0.2258(5) 0.9848(3)
Fe4_2 Fe 0.49889(3) 0.23091(10) 0.44910(4)
Au10_3 Au 0.753613(10) 0.52230(3) 0.956530(13)
C9_3 C 0.6168(2) 0.8849(6) 0.0553(3)
C10_3 C 0.7114(3) 0.8816(7) 0.0395(3)
C11_3 C 0.7170(2) 0.5883(7) 0.0487(3)
C41_3 C 0.6688(3) 0.7381(7) 0.1421(3)
H21_3 H 0.6455 0.7322 0.1300
C42_3 C 0.7191(3) 0.7406(7) 0.1332(3)
H22_3 H 0.7319 0.7365 0.1143
C43_3 C 0.6830(3) 0.7472(7) 0.1872(4)
H23_3 H 0.6697 0.7485 0.2054
C44_3 C 0.7355(3) 0.7495(7) 0.1772(3)
H24_3 H 0.7588 0.7522 0.1883
C45_3 C 0.7171(3) 0.7545(7) 0.2055(3)
C46_3 C 0.7342(2) 0.7668(8) 0.2535(3)
C47_3 C 0.7636(3) 0.8129(8) 0.2694(4)
H25_3 H 0.7735 0.8380 0.2498
C48_3 C 0.7782(3) 0.8219(8) 0.3134(3)
H26_3 H 0.7986 0.8531 0.3257
C49_3 C 0.7617(2) 0.7827(7) 0.3402(3)
C50_3 C 0.7769(2) 0.7840(7) 0.3885(3)
C51_3 C 0.7724(3) 0.7118(8) 0.4129(4)
H27_3 H 0.7582 0.6628 0.3991
C52_3 C 0.7961(2) 0.8555(7) 0.4113(3)
H28_3 H 0.7991 0.9084 0.3960
C53_3 C 0.7885(3) 0.7106(8) 0.4576(4)
H29_3 H 0.7855 0.6586 0.4734
C54_3 C 0.8109(2) 0.8497(6) 0.4559(3)
H30_3 H 0.8239 0.8998 0.4708
N9_3 N 0.63353(19) 0.8256(5) 0.0536(2)
N10_3 N 0.69345(19) 0.8283(5) 0.0417(3)
N11_3 N 0.69703(19) 0.6402(5) 0.0467(3)
N12_3 N 0.6346(2) 0.6326(5) 0.0537(3)
N21_3 N 0.68616(19) 0.7371(5) 0.1147(3)
N22_3 N 0.7190(2) 0.7334(7) 0.2798(3)
N23_3 N 0.7333(2) 0.7403(7) 0.3238(3)
Fe3_3 Fe 0.66455(3) 0.73131(10) 0.04874(4)
Au3_3 Au 0.585851(9) 0.98708(3) 0.052575(12)
Au5_3 Au 0.746387(10) 0.97770(3) 0.043470(13)
Au9_3 Au 0.416719(10) 0.98432(3) 0.044565(13)
Au11_3 Au 0.750913(9) 0.49112(3) 0.052227(13)
C56_3 C 0.5477(2) 0.9211(7) 0.9471(3)
C58_3 C 0.7830(2) 0.9117(7) 0.9513(3)
N25_3 N 0.64218(18) 0.7258(5) 0.9823(2)
C1_4 C 0.4524(2) 0.3863(6) 0.4579(3)
C2_4 C 0.5464(2) 0.3820(7) 0.4429(3)
C3_4 C 0.5477(2) 0.0789(7) 0.4471(3)
C4_4 C 0.4465(2) 0.0845(6) 0.4494(3)
C5_4 C 0.3887(2) 0.4213(6) 0.5491(3)
C6_4 C 0.3828(2) 0.1069(6) 0.5410(3)
C7_4 C 0.2822(2) 0.1070(6) 0.5563(3)
C8_4 C 0.2806(2) 0.4319(6) 0.5521(3)
C13_4 C 0.4955(2) 0.2382(7) 0.3563(3)
H1_4 H 0.5187 0.2351 0.3687
C14_4 C 0.4450(2) 0.2391(7) 0.3649(3)
H2_4 H 0.4321 0.2353 0.3836
C15_4 C 0.4814(3) 0.2453(7) 0.3108(3)
H3_4 H 0.4948 0.2447 0.2927
C16_4 C 0.4291(3) 0.2476(7) 0.3205(3)
H4_4 H 0.4057 0.2498 0.3090
C17_4 C 0.4476(2) 0.2531(7) 0.2924(3)
C18_4 C 0.4312(3) 0.2649(7) 0.2445(3)
C19_4 C 0.4017(3) 0.3145(8) 0.2281(4)
H5_4 H 0.3919 0.3417 0.2473
C20_4 C 0.3877(3) 0.3225(8) 0.1838(3)
H6_4 H 0.3678 0.3557 0.1711
C21_4 C 0.4035(2) 0.2805(7) 0.1575(3)
C22_4 C 0.3885(2) 0.2812(7) 0.1091(3)
C23_4 C 0.3905(3) 0.2054(8) 0.0852(3)
H7_4 H 0.4028 0.1538 0.0995
C24_4 C 0.3713(2) 0.3552(7) 0.0860(3)
H8_4 H 0.3695 0.4094 0.1011
C25_4 C 0.3746(3) 0.2040(7) 0.0399(3)
H9_4 H 0.3758 0.1499 0.0243
C26_4 C 0.3567(2) 0.3503(6) 0.0406(3)
H10_4 H 0.3455 0.4025 0.0253
C27_4 C 0.3888(3) 0.2614(7) 0.6377(3)
H11_4 H 0.4017 0.2666 0.6190
C28_4 C 0.3390(3) 0.2593(7) 0.6471(3)
H12_4 H 0.3156 0.2621 0.6349
C29_4 C 0.4048(3) 0.2516(7) 0.6818(3)
H13_4 H 0.4281 0.2493 0.6931
C30_4 C 0.3528(3) 0.2507(7) 0.6920(4)
H14_4 H 0.3393 0.2486 0.7100
C31_4 C 0.3866(3) 0.2452(7) 0.7101(3)
C32_4 C 0.4038(3) 0.2318(8) 0.7578(3)
C33_4 C 0.4329(3) 0.1832(8) 0.7738(4)
H15_4 H 0.4426 0.1561 0.7544
C34_4 C 0.4473(3) 0.1750(8) 0.8180(3)
H16_4 H 0.4671 0.1414 0.8302
C35_4 C 0.4320(3) 0.2175(7) 0.8450(3)
C36_4 C 0.4471(3) 0.2178(7) 0.8934(3)
C37_4 C 0.4643(3) 0.1434(7) 0.9161(3)
H17_4 H 0.4659 0.0889 0.9010
C38_4 C 0.4457(3) 0.2956(8) 0.9174(4)
H18_4 H 0.4336 0.3476 0.9033
C39_4 C 0.4790(2) 0.1490(6) 0.9610(3)
H19_4 H 0.4899 0.0964 0.9762
C40_4 C 0.4625(3) 0.2957(8) 0.9622(4)
H20_4 H 0.4621 0.3505 0.9778
N1_4 N 0.4699(2) 0.3295(5) 0.4559(3)
N2_4 N 0.52997(19) 0.3243(5) 0.4447(2)
N3_4 N 0.52858(19) 0.1334(5) 0.4451(2)
N4_4 N 0.46609(19) 0.1384(5) 0.4511(2)
N5_4 N 0.3681(2) 0.3665(6) 0.5476(3)
N6_4 N 0.3638(2) 0.1646(6) 0.5413(3)
N7_4 N 0.2998(2) 0.1685(6) 0.5561(3)
N8_4 N 0.3009(2) 0.3758(6) 0.5557(3)
N13_4 N 0.47776(18) 0.2358(5) 0.3830(2)
N14_4 N 0.4458(2) 0.2298(7) 0.2180(3)
N15_4 N 0.4314(2) 0.2362(7) 0.1739(3)
N16_4 N 0.35782(18) 0.2742(5) 0.0177(2)
N17_4 N 0.35618(19) 0.2640(5) 0.6196(3)
N18_4 N 0.3891(2) 0.2687(7) 0.7845(3)
N19_4 N 0.4038(2) 0.2613(7) 0.8284(3)
Au1_4 Au 0.418832(9) 0.48247(3) 0.455469(12)
Au2_4 Au 0.421140(10) 0.51581(3) 0.553066(13)
Au4_4 Au 0.416719(10) 0.01568(3) 0.544565(13)
Au6_4 Au 0.250913(9) 0.00888(3) 0.552227(13)
C55_4 C 0.4536(2) 0.6180(7) 0.5571(3)
C57_4 C 0.2194(2) 0.0681(6) 0.4479(3)
C59_4 C 0.3845(2) 0.5772(6) 0.4489(3)
Au8_4 Au 0.578860(10) 0.48419(3) 0.446934(13)
Au10_4 Au 0.246387(10) 0.52230(3) 0.543470(13)
Fe6_4 Fe 0.33545(3) 0.26869(10) 0.95126(4)
C9_4 C 0.3832(2) 0.8849(6) 0.4447(3)
C10_4 C 0.2886(3) 0.8816(7) 0.4605(3)
C11_4 C 0.2830(2) 0.5883(7) 0.4513(3)
C41_4 C 0.3312(3) 0.7381(7) 0.3579(3)
H21_4 H 0.3545 0.7322 0.3700
C42_4 C 0.2809(3) 0.7406(7) 0.3668(3)
H22_4 H 0.2681 0.7365 0.3857
C43_4 C 0.3170(3) 0.7472(7) 0.3128(4)
H23_4 H 0.3303 0.7485 0.2946
C44_4 C 0.2645(3) 0.7495(7) 0.3228(3)
H24_4 H 0.2412 0.7522 0.3117
C45_4 C 0.2829(3) 0.7545(7) 0.2945(3)
C46_4 C 0.2658(2) 0.7668(8) 0.2465(3)
C47_4 C 0.2364(3) 0.8129(8) 0.2306(4)
H25_4 H 0.2265 0.8380 0.2502
C48_4 C 0.2218(3) 0.8219(8) 0.1866(3)
H26_4 H 0.2014 0.8531 0.1743
C49_4 C 0.2383(2) 0.7827(7) 0.1598(3)
C50_4 C 0.2231(2) 0.7840(7) 0.1115(3)
C51_4 C 0.2276(3) 0.7118(8) 0.0871(4)
H27_4 H 0.2418 0.6628 0.1009
C52_4 C 0.2039(2) 0.8555(7) 0.0887(3)
H28_4 H 0.2009 0.9084 0.1040
C53_4 C 0.2115(3) 0.7106(8) 0.0424(4)
H29_4 H 0.2145 0.6586 0.0266
C54_4 C 0.1891(2) 0.8497(6) 0.0441(3)
H30_4 H 0.1761 0.8998 0.0292
N9_4 N 0.36647(19) 0.8256(5) 0.4464(2)
N10_4 N 0.30655(19) 0.8283(5) 0.4583(3)
N11_4 N 0.30297(19) 0.6402(5) 0.4533(3)
N12_4 N 0.3654(2) 0.6326(5) 0.4463(3)
N21_4 N 0.31384(19) 0.7371(5) 0.3853(3)
N22_4 N 0.2810(2) 0.7334(7) 0.2202(3)
N23_4 N 0.2667(2) 0.7403(7) 0.1762(3)
Fe3_4 Fe 0.33545(3) 0.73131(10) 0.45126(4)
Au3_4 Au 0.414149(9) 0.98708(3) 0.447425(12)
Au5_4 Au 0.253613(10) 0.97770(3) 0.456530(13)
C56_4 C 0.4523(2) 0.9211(7) 0.5529(3)
C58_4 C 0.2170(2) 0.9117(7) 0.5487(3)
N25_4 N 0.35782(18) 0.7258(5) 0.5177(2)
Au9_4 Au 0.583281(10) 0.98432(3) 0.455435(13)
Au11_4 Au 0.249087(9) 0.49112(3) 0.447773(13)
N26_3 N 0.02120(19) 0.2742(5) 0.0152(3)
Fe4_3 Fe 0.00111(3) 0.26909(10) 0.55090(4)
H1_5 H 0.0187 0.2649 0.8687
N2_5 N 0.02997(19) 0.1757(5) 0.9447(2)
N3_5 N 0.02858(19) 0.3666(5) 0.9451(2)
Au7 Au 0.918832(9) 0.01753(3) 0.955469(12)
C5_5 C 0.8887(2) 0.0787(6) 0.0491(3)
C6_5 C 0.8828(2) 0.3931(6) 0.0410(3)
C7_5 C 0.7822(2) 0.3930(6) 0.0563(3)
C27_5 C 0.8888(3) 0.2386(7) 0.1377(3)
H11_5 H 0.9017 0.2334 0.1190
C28_5 C 0.8390(3) 0.2407(7) 0.1471(3)
H12_5 H 0.8156 0.2379 0.1349
C29_5 C 0.9048(3) 0.2484(7) 0.1818(3)
H13_5 H 0.9281 0.2507 0.1931
C30_5 C 0.8528(3) 0.2493(7) 0.1920(4)
H14_5 H 0.8393 0.2514 0.2100
C31_5 C 0.8866(3) 0.2548(7) 0.2101(3)
C32_5 C 0.9038(3) 0.2682(8) 0.2578(3)
C33_5 C 0.9329(3) 0.3168(8) 0.2738(4)
H15_5 H 0.9426 0.3439 0.2544
C34_5 C 0.9473(3) 0.3250(8) 0.3180(3)
H16_5 H 0.9671 0.3586 0.3302
C35_5 C 0.9320(3) 0.2825(7) 0.3450(3)
C36_5 C 0.9471(3) 0.2822(7) 0.3934(3)
C37_5 C 0.9643(3) 0.3566(7) 0.4161(3)
H17_5 H 0.9659 0.4111 0.4010
C38_5 C 0.9457(3) 0.2044(8) 0.4174(4)
H18_5 H 0.9336 0.1524 0.4033
C39_5 C 0.9790(2) 0.3510(6) 0.4610(3)
H19_5 H 0.9899 0.4036 0.4762
C40_5 C 0.9625(3) 0.2043(8) 0.4622(4)
H20_5 H 0.9621 0.1495 0.4778
N5_5 N 0.8681(2) 0.1335(6) 0.0476(3)
N6_5 N 0.8638(2) 0.3354(6) 0.0413(3)
N7_5 N 0.7998(2) 0.3315(6) 0.0561(3)
N8_5 N 0.8009(2) 0.1242(6) 0.0557(3)
N17_5 N 0.85618(19) 0.2360(5) 0.1196(3)
N18_5 N 0.8891(2) 0.2313(7) 0.2845(3)
N19_5 N 0.9038(2) 0.2387(7) 0.3284(3)
N20_3 N 0.97880(19) 0.2742(5) 0.4848(3)
Fe2_3 Fe 0.83276(3) 0.23086(9) 0.04985(4)
C1_5 C 0.9524(2) 0.1137(6) 0.9579(3)
C4_5 C 0.9465(2) 0.4155(6) 0.9494(3)
C9_5 C 0.8832(2) 0.6151(6) 0.9447(3)
C10_5 C 0.7886(3) 0.6184(7) 0.9605(3)
C12 C 0.8845(2) 0.9228(6) 0.9489(3)
C13_5 C 0.9955(2) 0.2618(7) 0.8563(3)
C14_5 C 0.9450(2) 0.2609(7) 0.8649(3)
H2_5 H 0.9321 0.2647 0.8836
C15_5 C 0.9814(3) 0.2547(7) 0.8108(3)
H3_5 H 0.9948 0.2553 0.7927
C16_5 C 0.9291(3) 0.2524(7) 0.8205(3)
H4_5 H 0.9057 0.2502 0.8090
C17_5 C 0.9476(2) 0.2469(7) 0.7924(3)
C18_5 C 0.9312(3) 0.2351(7) 0.7445(3)
C19_5 C 0.9017(3) 0.1855(8) 0.7281(4)
H5_5 H 0.8919 0.1583 0.7473
C20_5 C 0.8877(3) 0.1775(8) 0.6838(3)
H6_5 H 0.8678 0.1443 0.6711
C21_5 C 0.9035(2) 0.2195(7) 0.6575(3)
C22_5 C 0.8885(2) 0.2188(7) 0.6091(3)
C23_5 C 0.8905(3) 0.2946(8) 0.5852(3)
H7_5 H 0.9028 0.3462 0.5995
C24_5 C 0.8713(2) 0.1448(7) 0.5860(3)
H8_5 H 0.8695 0.0906 0.6011
C25_5 C 0.8746(3) 0.2960(7) 0.5399(3)
H9_5 H 0.8758 0.3501 0.5243
C26_5 C 0.8567(2) 0.1497(6) 0.5406(3)
H10_5 H 0.8455 0.0975 0.5253
C41_5 C 0.8312(3) 0.7619(7) 0.8579(3)
H21_5 H 0.8545 0.7678 0.8700
C42_5 C 0.7809(3) 0.7594(7) 0.8668(3)
H22_5 H 0.7681 0.7635 0.8857
C43_5 C 0.8170(3) 0.7528(7) 0.8128(4)
H23_5 H 0.8303 0.7515 0.7946
C44_5 C 0.7645(3) 0.7505(7) 0.8228(3)
H24_5 H 0.7412 0.7478 0.8117
C45_5 C 0.7829(3) 0.7455(7) 0.7945(3)
C46_5 C 0.7658(2) 0.7332(8) 0.7465(3)
C47_5 C 0.7364(3) 0.6871(8) 0.7306(4)
H25_5 H 0.7265 0.6620 0.7502
C48_5 C 0.7218(3) 0.6781(8) 0.6866(3)
H26_5 H 0.7014 0.6469 0.6743
C49_5 C 0.7383(2) 0.7173(7) 0.6598(3)
C50_5 C 0.7231(2) 0.7160(7) 0.6115(3)
C51_5 C 0.7276(3) 0.7882(8) 0.5871(4)
H27_5 H 0.7418 0.8372 0.6009
C52_5 C 0.7039(2) 0.6445(7) 0.5887(3)
H28_5 H 0.7009 0.5916 0.6040
C53_5 C 0.7115(3) 0.7894(8) 0.5424(4)
H29_5 H 0.7145 0.8414 0.5266
C54_5 C 0.6891(2) 0.6503(6) 0.5441(3)
H30_5 H 0.6761 0.6002 0.5292
N1_5 N 0.9699(2) 0.1705(5) 0.9559(3)
N4_5 N 0.96609(19) 0.3616(5) 0.9511(2)
N9_5 N 0.86647(19) 0.6744(5) 0.9464(2)
N10_5 N 0.80655(19) 0.6717(5) 0.9583(3)
N11_5 N 0.80297(19) 0.8598(5) 0.9533(3)
N12_5 N 0.8654(2) 0.8674(5) 0.9463(3)
N13_5 N 0.97776(18) 0.2642(5) 0.8830(2)
N14_5 N 0.9458(2) 0.2702(7) 0.7180(3)
N15_5 N 0.9314(2) 0.2638(7) 0.6739(3)
N21_5 N 0.81384(19) 0.7629(5) 0.8853(3)
N22_5 N 0.7810(2) 0.7666(7) 0.7202(3)
N23_5 N 0.7667(2) 0.7597(7) 0.6762(3)
N24_3 N 0.6921(2) 0.7234(6) 0.5199(3)
Fe1_3 Fe 0.99889(3) 0.26909(10) 0.94910(4)
Au3_5 Au 0.914149(9) 0.51292(3) 0.947425(12)
N27_3 N 0.8079(2) 0.2234(6) 0.9801(3)
Fe5_3 Fe 0.66724(3) 0.73086(9) 0.45015(4)
Au7_2 Au 0.081168(9) 0.01753(3) 0.544531(12)
Fe5_4 Fe 0.33276(3) 0.73086(9) 0.04985(4)
C1_6 C 0.0476(2) 0.1137(6) 0.5421(3)
C4_6 C 0.0535(2) 0.4155(6) 0.5506(3)
C5_6 C 0.1113(2) 0.0787(6) 0.4509(3)
C6_6 C 0.1172(2) 0.3931(6) 0.4590(3)
C7_6 C 0.2178(2) 0.3930(6) 0.4437(3)
C9_6 C 0.1168(2) 0.6151(6) 0.5553(3)
C10_6 C 0.2114(3) 0.6184(7) 0.5395(3)
C12_2 C 0.1155(2) 0.9228(6) 0.5511(3)
C13_6 C 0.0045(2) 0.2618(7) 0.6437(3)
C14_6 C 0.0550(2) 0.2609(7) 0.6351(3)
H2_6 H 0.0679 0.2647 0.6164
C15_6 C 0.0186(3) 0.2547(7) 0.6892(3)
H3_6 H 0.0052 0.2553 0.7073
C16_6 C 0.0709(3) 0.2524(7) 0.6795(3)
H4_6 H 0.0943 0.2502 0.6910
C17_6 C 0.0524(2) 0.2469(7) 0.7076(3)
C18_6 C 0.0688(3) 0.2351(7) 0.7555(3)
C19_6 C 0.0983(3) 0.1855(8) 0.7719(4)
H5_6 H 0.1081 0.1583 0.7527
C20_6 C 0.1123(3) 0.1775(8) 0.8162(3)
H6_6 H 0.1322 0.1443 0.8289
C21_6 C 0.0965(2) 0.2195(7) 0.8425(3)
C22_6 C 0.1115(2) 0.2188(7) 0.8909(3)
C23_6 C 0.1095(3) 0.2946(8) 0.9148(3)
H7_6 H 0.0972 0.3462 0.9005
C24_6 C 0.1287(2) 0.1448(7) 0.9140(3)
H8_6 H 0.1305 0.0906 0.8989
C25_6 C 0.1254(3) 0.2960(7) 0.9601(3)
H9_6 H 0.1242 0.3501 0.9757
C26_6 C 0.1433(2) 0.1497(6) 0.9594(3)
H10_6 H 0.1545 0.0975 0.9747
C27_6 C 0.1112(3) 0.2386(7) 0.3623(3)
H11_6 H 0.0983 0.2334 0.3810
C28_6 C 0.1610(3) 0.2407(7) 0.3529(3)
H12_6 H 0.1844 0.2379 0.3651
C29_6 C 0.0952(3) 0.2484(7) 0.3182(3)
H13_6 H 0.0719 0.2507 0.3069
C30_6 C 0.1472(3) 0.2493(7) 0.3080(4)
H14_6 H 0.1607 0.2514 0.2900
C31_6 C 0.1134(3) 0.2548(7) 0.2899(3)
C32_6 C 0.0962(3) 0.2682(8) 0.2422(3)
C33_6 C 0.0671(3) 0.3168(8) 0.2262(4)
H15_6 H 0.0574 0.3439 0.2456
C34_6 C 0.0527(3) 0.3250(8) 0.1820(3)
H16_6 H 0.0329 0.3586 0.1698
C35_6 C 0.0680(3) 0.2825(7) 0.1550(3)
C36_6 C 0.0529(3) 0.2822(7) 0.1066(3)
C37_6 C 0.0357(3) 0.3566(7) 0.0839(3)
H17_6 H 0.0341 0.4111 0.0990
C38_6 C 0.0543(3) 0.2044(8) 0.0826(4)
H18_6 H 0.0664 0.1524 0.0967
C39_6 C 0.0210(2) 0.3510(6) 0.0390(3)
H19_6 H 0.0101 0.4036 0.0238
C40_6 C 0.0375(3) 0.2043(8) 0.0378(4)
H20_6 H 0.0379 0.1495 0.0222
C41_6 C 0.1688(3) 0.7619(7) 0.6421(3)
H21_6 H 0.1455 0.7678 0.6300
C42_6 C 0.2191(3) 0.7594(7) 0.6332(3)
H22_6 H 0.2319 0.7635 0.6143
C43_6 C 0.1830(3) 0.7528(7) 0.6872(4)
H23_6 H 0.1697 0.7515 0.7054
C44_6 C 0.2355(3) 0.7505(7) 0.6772(3)
H24_6 H 0.2588 0.7478 0.6883
C45_6 C 0.2171(3) 0.7455(7) 0.7055(3)
C46_6 C 0.2342(2) 0.7332(8) 0.7535(3)
C47_6 C 0.2636(3) 0.6871(8) 0.7694(4)
H25_6 H 0.2735 0.6620 0.7498
C48_6 C 0.2782(3) 0.6781(8) 0.8134(3)
H26_6 H 0.2986 0.6469 0.8257
C49_6 C 0.2617(2) 0.7173(7) 0.8402(3)
C50_6 C 0.2769(2) 0.7160(7) 0.8885(3)
C51_6 C 0.2724(3) 0.7882(8) 0.9129(4)
H27_6 H 0.2582 0.8372 0.8991
C52_6 C 0.2961(2) 0.6445(7) 0.9113(3)
H28_6 H 0.2991 0.5916 0.8960
C53_6 C 0.2885(3) 0.7894(8) 0.9576(4)
H29_6 H 0.2855 0.8414 0.9734
C54_6 C 0.3109(2) 0.6503(6) 0.9559(3)
H30_6 H 0.3239 0.6002 0.9708
N1_6 N 0.0301(2) 0.1705(5) 0.5441(3)
N4_6 N 0.03391(19) 0.3616(5) 0.5489(2)
N5_6 N 0.1319(2) 0.1335(6) 0.4524(3)
N6_6 N 0.1362(2) 0.3354(6) 0.4587(3)
N7_6 N 0.2002(2) 0.3315(6) 0.4439(3)
N8_6 N 0.1991(2) 0.1242(6) 0.4443(3)
N9_6 N 0.13353(19) 0.6744(5) 0.5536(2)
N10_6 N 0.19345(19) 0.6717(5) 0.5417(3)
N11_6 N 0.19703(19) 0.8598(5) 0.5467(3)
N12_6 N 0.1346(2) 0.8674(5) 0.5537(3)
N13_6 N 0.02224(18) 0.2642(5) 0.6170(2)
N14_6 N 0.0542(2) 0.2702(7) 0.7820(3)
N15_6 N 0.0686(2) 0.2638(7) 0.8261(3)
N17_6 N 0.14382(19) 0.2360(5) 0.3804(3)
N18_6 N 0.1109(2) 0.2313(7) 0.2155(3)
N19_6 N 0.0962(2) 0.2387(7) 0.1716(3)
N21_6 N 0.18616(19) 0.7629(5) 0.6147(3)
N22_6 N 0.2190(2) 0.7666(7) 0.7798(3)
N23_6 N 0.2333(2) 0.7597(7) 0.8238(3)
N24_4 N 0.3079(2) 0.7234(6) 0.9801(3)
Fe2_4 Fe 0.16724(3) 0.23086(9) 0.45015(4)
Au3_6 Au 0.085851(9) 0.51292(3) 0.552575(12)
N27_4 N 0.1921(2) 0.2234(6) 0.5199(3)
H1_6 H 0.9813 0.2649 0.6313
N2_6 N 0.97003(19) 0.1757(5) 0.5553(2)
N3_6 N 0.97142(19) 0.3666(5) 0.5549(2)
C9_7 C 0.3832(2) 0.1151(6) 0.9447(3)
C10_7 C 0.2886(3) 0.1184(7) 0.9605(3)
C12_3 C 0.3845(2) 0.4228(6) 0.9489(3)
C41_7 C 0.3312(3) 0.2619(7) 0.8579(3)
H21_7 H 0.3545 0.2678 0.8700
C42_7 C 0.2809(3) 0.2594(7) 0.8668(3)
H22_7 H 0.2681 0.2635 0.8857
C43_7 C 0.3170(3) 0.2528(7) 0.8128(4)
H23_7 H 0.3303 0.2515 0.7946
C44_7 C 0.2645(3) 0.2505(7) 0.8228(3)
H24_7 H 0.2412 0.2478 0.8117
C45_7 C 0.2829(3) 0.2455(7) 0.7945(3)
C46_7 C 0.2658(2) 0.2332(8) 0.7465(3)
C47_7 C 0.2364(3) 0.1871(8) 0.7306(4)
H25_7 H 0.2265 0.1620 0.7502
C48_7 C 0.2218(3) 0.1781(8) 0.6866(3)
H26_7 H 0.2014 0.1469 0.6743
C49_7 C 0.2383(2) 0.2173(7) 0.6598(3)
C50_7 C 0.2231(2) 0.2160(7) 0.6115(3)
C51_7 C 0.2276(3) 0.2882(8) 0.5871(4)
H27_7 H 0.2418 0.3372 0.6009
C52_7 C 0.2039(2) 0.1445(7) 0.5887(3)
H28_7 H 0.2009 0.0916 0.6040
C53_7 C 0.2115(3) 0.2894(8) 0.5424(4)
H29_7 H 0.2145 0.3414 0.5266
C54_7 C 0.1891(2) 0.1503(6) 0.5441(3)
H30_7 H 0.1761 0.1002 0.5292
N9_7 N 0.36647(19) 0.1744(5) 0.9464(2)
N10_7 N 0.30655(19) 0.1717(5) 0.9583(3)
N11_7 N 0.30297(19) 0.3598(5) 0.9533(3)
N12_7 N 0.3654(2) 0.3674(5) 0.9463(3)
N21_7 N 0.31384(19) 0.2629(5) 0.8853(3)
N22_7 N 0.2810(2) 0.2666(7) 0.7202(3)
N23_7 N 0.2667(2) 0.2597(7) 0.6762(3)
Au3_7 Au 0.414149(9) 0.01292(3) 0.947425(12)
Au7_3 Au 0.418832(9) 0.51753(3) 0.955469(12)
C5_7 C 0.3887(2) 0.5787(6) 0.0491(3)
C6_7 C 0.3828(2) 0.8931(6) 0.0410(3)
C7_7 C 0.2822(2) 0.8930(6) 0.0563(3)
C27_7 C 0.3888(3) 0.7386(7) 0.1377(3)
H11_7 H 0.4017 0.7334 0.1190
C28_7 C 0.3390(3) 0.7407(7) 0.1471(3)
H12_7 H 0.3156 0.7379 0.1349
C29_7 C 0.4048(3) 0.7484(7) 0.1818(3)
H13_7 H 0.4281 0.7507 0.1931
C30_7 C 0.3528(3) 0.7493(7) 0.1920(4)
H14_7 H 0.3393 0.7514 0.2100
C31_7 C 0.3866(3) 0.7548(7) 0.2101(3)
C32_7 C 0.4038(3) 0.7682(8) 0.2578(3)
C33_7 C 0.4329(3) 0.8168(8) 0.2738(4)
H15_7 H 0.4426 0.8439 0.2544
C34_7 C 0.4473(3) 0.8250(8) 0.3180(3)
H16_7 H 0.4671 0.8586 0.3302
C35_7 C 0.4320(3) 0.7825(7) 0.3450(3)
C36_7 C 0.4471(3) 0.7822(7) 0.3934(3)
C37_7 C 0.4643(3) 0.8566(7) 0.4161(3)
H17_7 H 0.4659 0.9111 0.4010
C38_7 C 0.4457(3) 0.7044(8) 0.4174(4)
H18_7 H 0.4336 0.6524 0.4033
C39_7 C 0.4790(2) 0.8510(6) 0.4610(3)
H19_7 H 0.4899 0.9036 0.4762
C40_7 C 0.4625(3) 0.7043(8) 0.4622(4)
H20_7 H 0.4621 0.6495 0.4778
N5_7 N 0.3681(2) 0.6335(6) 0.0476(3)
N6_7 N 0.3638(2) 0.8354(6) 0.0413(3)
N7_7 N 0.2998(2) 0.8315(6) 0.0561(3)
N8_7 N 0.3009(2) 0.6242(6) 0.0557(3)
N17_7 N 0.35618(19) 0.7360(5) 0.1196(3)
N18_7 N 0.3891(2) 0.7313(7) 0.2845(3)
N19_7 N 0.4038(2) 0.7387(7) 0.3284(3)
N20_4 N 0.47880(19) 0.7742(5) 0.4848(3)
N26_4 N 0.52120(19) 0.7742(5) 0.0152(3)
Fe4_4 Fe 0.50111(3) 0.76909(10) 0.55090(4)
C1_7 C 0.4524(2) 0.6137(6) 0.9579(3)
C4_7 C 0.4465(2) 0.9155(6) 0.9494(3)
C13_7 C 0.4955(2) 0.7618(7) 0.8563(3)
H1_7 H 0.5187 0.7649 0.8687
C14_7 C 0.4450(2) 0.7609(7) 0.8649(3)
H2_7 H 0.4321 0.7647 0.8836
C15_7 C 0.4814(3) 0.7547(7) 0.8108(3)
H3_7 H 0.4948 0.7553 0.7927
C16_7 C 0.4291(3) 0.7524(7) 0.8205(3)
H4_7 H 0.4057 0.7502 0.8090
C17_7 C 0.4476(2) 0.7469(7) 0.7924(3)
C18_7 C 0.4312(3) 0.7351(7) 0.7445(3)
C19_7 C 0.4017(3) 0.6855(8) 0.7281(4)
H5_7 H 0.3919 0.6583 0.7473
C20_7 C 0.3877(3) 0.6775(8) 0.6838(3)
H6_7 H 0.3678 0.6443 0.6711
C21_7 C 0.4035(2) 0.7195(7) 0.6575(3)
C22_7 C 0.3885(2) 0.7188(7) 0.6091(3)
C23_7 C 0.3905(3) 0.7946(8) 0.5852(3)
H7_7 H 0.4028 0.8462 0.5995
C24_7 C 0.3713(2) 0.6448(7) 0.5860(3)
H8_7 H 0.3695 0.5906 0.6011
C25_7 C 0.3746(3) 0.7960(7) 0.5399(3)
H9_7 H 0.3758 0.8501 0.5243
C26_7 C 0.3567(2) 0.6497(6) 0.5406(3)
H10_7 H 0.3455 0.5975 0.5253
N1_7 N 0.4699(2) 0.6705(5) 0.9559(3)
N2_7 N 0.52997(19) 0.6757(5) 0.9447(2)
N3_7 N 0.52858(19) 0.8666(5) 0.9451(2)
N4_7 N 0.46609(19) 0.8616(5) 0.9511(2)
N13_7 N 0.47776(18) 0.7642(5) 0.8830(2)
N14_7 N 0.4458(2) 0.7702(7) 0.7180(3)
N15_7 N 0.4314(2) 0.7638(7) 0.6739(3)
Fe1_4 Fe 0.49889(3) 0.76909(10) 0.94910(4)
C9_8 C 0.6168(2) 0.1151(6) 0.5553(3)
C10_8 C 0.7114(3) 0.1184(7) 0.5395(3)
C12_4 C 0.6155(2) 0.4228(6) 0.5511(3)
C41_8 C 0.6688(3) 0.2619(7) 0.6421(3)
H21_8 H 0.6455 0.2678 0.6300
C42_8 C 0.7191(3) 0.2594(7) 0.6332(3)
H22_8 H 0.7319 0.2635 0.6143
C43_8 C 0.6830(3) 0.2528(7) 0.6872(4)
H23_8 H 0.6697 0.2515 0.7054
C44_8 C 0.7355(3) 0.2505(7) 0.6772(3)
H24_8 H 0.7588 0.2478 0.6883
C45_8 C 0.7171(3) 0.2455(7) 0.7055(3)
C46_8 C 0.7342(2) 0.2332(8) 0.7535(3)
C47_8 C 0.7636(3) 0.1871(8) 0.7694(4)
H25_8 H 0.7735 0.1620 0.7498
C48_8 C 0.7782(3) 0.1781(8) 0.8134(3)
H26_8 H 0.7986 0.1469 0.8257
C49_8 C 0.7617(2) 0.2173(7) 0.8402(3)
C50_8 C 0.7769(2) 0.2160(7) 0.8885(3)
C51_8 C 0.7724(3) 0.2882(8) 0.9129(4)
H27_8 H 0.7582 0.3372 0.8991
C52_8 C 0.7961(2) 0.1445(7) 0.9113(3)
H28_8 H 0.7991 0.0916 0.8960
C53_8 C 0.7885(3) 0.2894(8) 0.9576(4)
H29_8 H 0.7855 0.3414 0.9734
C54_8 C 0.8109(2) 0.1503(6) 0.9559(3)
H30_8 H 0.8239 0.1002 0.9708
N9_8 N 0.63353(19) 0.1744(5) 0.5536(2)
N10_8 N 0.69345(19) 0.1717(5) 0.5417(3)
N11_8 N 0.69703(19) 0.3598(5) 0.5467(3)
N12_8 N 0.6346(2) 0.3674(5) 0.5537(3)
N21_8 N 0.68616(19) 0.2629(5) 0.6147(3)
N22_8 N 0.7190(2) 0.2666(7) 0.7798(3)
N23_8 N 0.7333(2) 0.2597(7) 0.8238(3)
Au3_8 Au 0.585851(9) 0.01292(3) 0.552575(12)
Au7_4 Au 0.581168(9) 0.51753(3) 0.544531(12)
C1_8 C 0.5476(2) 0.6137(6) 0.5421(3)
C4_8 C 0.5535(2) 0.9155(6) 0.5506(3)
C5_8 C 0.6113(2) 0.5787(6) 0.4509(3)
C6_8 C 0.6172(2) 0.8931(6) 0.4590(3)
C7_8 C 0.7178(2) 0.8930(6) 0.4437(3)
C13_8 C 0.5045(2) 0.7618(7) 0.6437(3)
H1_8 H 0.4813 0.7649 0.6313
C14_8 C 0.5550(2) 0.7609(7) 0.6351(3)
H2_8 H 0.5679 0.7647 0.6164
C15_8 C 0.5186(3) 0.7547(7) 0.6892(3)
H3_8 H 0.5052 0.7553 0.7073
C16_8 C 0.5709(3) 0.7524(7) 0.6795(3)
H4_8 H 0.5943 0.7502 0.6910
C17_8 C 0.5524(2) 0.7469(7) 0.7076(3)
C18_8 C 0.5688(3) 0.7351(7) 0.7555(3)
C19_8 C 0.5983(3) 0.6855(8) 0.7719(4)
H5_8 H 0.6081 0.6583 0.7527
C20_8 C 0.6123(3) 0.6775(8) 0.8162(3)
H6_8 H 0.6322 0.6443 0.8289
C21_8 C 0.5965(2) 0.7195(7) 0.8425(3)
C22_8 C 0.6115(2) 0.7188(7) 0.8909(3)
C23_8 C 0.6095(3) 0.7946(8) 0.9148(3)
H7_8 H 0.5972 0.8462 0.9005
C24_8 C 0.6287(2) 0.6448(7) 0.9140(3)
H8_8 H 0.6305 0.5906 0.8989
C25_8 C 0.6254(3) 0.7960(7) 0.9601(3)
H9_8 H 0.6242 0.8501 0.9757
C26_8 C 0.6433(2) 0.6497(6) 0.9594(3)
H10_8 H 0.6545 0.5975 0.9747
C27_8 C 0.6112(3) 0.7386(7) 0.3623(3)
H11_8 H 0.5983 0.7334 0.3810
C28_8 C 0.6610(3) 0.7407(7) 0.3529(3)
H12_8 H 0.6844 0.7379 0.3651
C29_8 C 0.5952(3) 0.7484(7) 0.3182(3)
H13_8 H 0.5719 0.7507 0.3069
C30_8 C 0.6472(3) 0.7493(7) 0.3080(4)
H14_8 H 0.6607 0.7514 0.2900
C31_8 C 0.6134(3) 0.7548(7) 0.2899(3)
C32_8 C 0.5962(3) 0.7682(8) 0.2422(3)
C33_8 C 0.5671(3) 0.8168(8) 0.2262(4)
H15_8 H 0.5574 0.8439 0.2456
C34_8 C 0.5527(3) 0.8250(8) 0.1820(3)
H16_8 H 0.5329 0.8586 0.1698
C35_8 C 0.5680(3) 0.7825(7) 0.1550(3)
C36_8 C 0.5529(3) 0.7822(7) 0.1066(3)
C37_8 C 0.5357(3) 0.8566(7) 0.0839(3)
H17_8 H 0.5341 0.9111 0.0990
C38_8 C 0.5543(3) 0.7044(8) 0.0826(4)
H18_8 H 0.5664 0.6524 0.0967
C39_8 C 0.5210(2) 0.8510(6) 0.0390(3)
H19_8 H 0.5101 0.9036 0.0238
C40_8 C 0.5375(3) 0.7043(8) 0.0378(4)
H20_8 H 0.5379 0.6495 0.0222
N1_8 N 0.5301(2) 0.6705(5) 0.5441(3)
N2_8 N 0.47003(19) 0.6757(5) 0.5553(2)
N3_8 N 0.47142(19) 0.8666(5) 0.5549(2)
N4_8 N 0.53391(19) 0.8616(5) 0.5489(2)
N5_8 N 0.6319(2) 0.6335(6) 0.4524(3)
N6_8 N 0.6362(2) 0.8354(6) 0.4587(3)
N7_8 N 0.7002(2) 0.8315(6) 0.4439(3)
N8_8 N 0.6991(2) 0.6242(6) 0.4443(3)
N13_8 N 0.52224(18) 0.7642(5) 0.6170(2)
N14_8 N 0.5542(2) 0.7702(7) 0.7820(3)
N15_8 N 0.5686(2) 0.7638(7) 0.8261(3)
N17_8 N 0.64382(19) 0.7360(5) 0.3804(3)
N18_8 N 0.6109(2) 0.7313(7) 0.2155(3)
N19_8 N 0.5962(2) 0.7387(7) 0.1716(3)
loop_
_geom_bond_atom_site_label_1
_geom_bond_atom_site_label_2
_geom_bond_site_symmetry_1
_geom_bond_site_symmetry_2
C55 Au2 1_555 1_555
C1 N1 1_555 1_555
C4 N4 1_555 1_555
C9 N9 1_555 1_555
C10 N10 1_555 1_555
C11 N11 1_555 1_555
C59 N12 1_555 1_555
C14 H2 1_555 1_555
C15 C13 1_555 1_555
H3 C15 1_555 1_555
C16 C14 1_555 1_555
H4 C16 1_555 1_555
C17 C15 1_555 1_555
C18 C17 1_555 1_555
C19 C18 1_555 1_555
H5 C19 1_555 1_555
C20 C19 1_555 1_555
H6 C20 1_555 1_555
C21 C20 1_555 1_555
C22 C21 1_555 1_555
C23 C22 1_555 1_555
H7 C23 1_555 1_555
C24 C22 1_555 1_555
H8 C24 1_555 1_555
C25 C23 1_555 1_555
H9 C25 1_555 1_555
C26 C24 1_555 1_555
H10 C26 1_555 1_555
C41 H21 1_555 1_555
C42 H22 1_555 1_555
C43 C41 1_555 1_555
H23 C43 1_555 1_555
C44 C42 1_555 1_555
H24 C44 1_555 1_555
C45 C43 1_555 1_555
C46 C45 1_555 1_555
C47 C46 1_555 1_555
H25 C47 1_555 1_555
C48 C47 1_555 1_555
H26 C48 1_555 1_555
C49 C48 1_555 1_555
C50 C49 1_555 1_555
C51 C50 1_555 1_555
H27 C51 1_555 1_555
C52 C50 1_555 1_555
H28 C52 1_555 1_555
C53 C51 1_555 1_555
H29 C53 1_555 1_555
C54 C52 1_555 1_555
H30 C54 1_555 1_555
N1 Fe1 1_555 1_555
N4 Fe1 1_555 1_555
N9 Fe3 1_555 1_555
N10 Fe3 1_555 1_555
N11 Fe3 1_555 1_555
N12 Fe3 1_555 1_555
N13 C13 1_555 1_555
N14 C18 1_555 1_555
N15 C21 1_555 1_555
N16 C25 1_555 1_555
N21 C41 1_555 1_555
N22 C46 1_555 1_555
N23 C49 1_555 1_555
N24 C53 1_555 1_555
Fe1 N13 1_555 1_555
Fe3 N21 1_555 1_555
Au1 C1 1_555 1_555
Au3 C4 1_555 1_555
Au5 C10 1_555 1_555
C57 Au5 1_555 1_555
Fe5 N24 1_555 1_555
Fe6 N16 1_555 1_555
C9 Au3 1_555 1_555
C14 N13 1_555 1_555
C16 C17 1_555 1_555
C26 N16 1_555 1_555
C42 N21 1_555 1_555
C44 C45 1_555 1_555
C54 N24 1_555 1_555
N14 N15 1_555 1_555
N22 N23 1_555 1_555
C5 N5 1_555 1_555
C6 N6 1_555 1_555
C7 N7 1_555 1_555
C8 N8 1_555 1_555
C27 H11 1_555 1_555
C28 H12 1_555 1_555
C29 C27 1_555 1_555
H13 C29 1_555 1_555
C30 C28 1_555 1_555
H14 C30 1_555 1_555
C31 C29 1_555 1_555
C32 C31 1_555 1_555
C33 C32 1_555 1_555
H15 C33 1_555 1_555
C34 C33 1_555 1_555
H16 C34 1_555 1_555
C35 C34 1_555 1_555
C36 C35 1_555 1_555
C37 C36 1_555 1_555
H17 C37 1_555 1_555
C38 C36 1_555 1_555
H18 C38 1_555 1_555
C39 C37 1_555 1_555
H19 C39 1_555 1_555
C40 C38 1_555 1_555
H20 C40 1_555 1_555
N5 Fe2 1_555 1_555
N6 Fe2 1_555 1_555
N7 Fe2 1_555 1_555
N8 Fe2 1_555 1_555
N17 C27 1_555 1_555
N18 C32 1_555 1_555
N19 C35 1_555 1_555
N20 C39 1_555 1_555
Fe2 N17 1_555 1_555
Au4 C6 1_555 1_555
Au6 C7 1_555 1_555
C56 Au4 1_555 1_555
C58 Au6 1_555 1_555
C28 N17 1_555 1_555
C30 C31 1_555 1_555
C40 N20 1_555 1_555
N18 N19 1_555 1_555
C2 N2 1_555 1_555
C3 N3 1_555 1_555
Au8 C2 1_555 1_555
Au9 C3 1_555 1_555
C2_2 N2_2 1_555 1_555
C3_2 N3_2 1_555 1_555
Au8_2 C2_2 1_555 1_555
Au9_2 C3_2 1_555 1_555
C55_2 Au2_2 1_555 1_555
C1_2 N1_2 1_555 1_555
C4_2 N4_2 1_555 1_555
C5_2 N5_2 1_555 1_555
C6_2 N6_2 1_555 1_555
C7_2 N7_2 1_555 1_555
C8_2 N8_2 1_555 1_555
C9_2 N9_2 1_555 1_555
C10_2 N10_2 1_555 1_555
C11_2 N11_2 1_555 1_555
C59_2 N12_2 1_555 1_555
C14_2 H2_2 1_555 1_555
C15_2 C13_2 1_555 1_555
H3_2 C15_2 1_555 1_555
C16_2 C14_2 1_555 1_555
H4_2 C16_2 1_555 1_555
C17_2 C15_2 1_555 1_555
C18_2 C17_2 1_555 1_555
C19_2 C18_2 1_555 1_555
H5_2 C19_2 1_555 1_555
C20_2 C19_2 1_555 1_555
H6_2 C20_2 1_555 1_555
C21_2 C20_2 1_555 1_555
C22_2 C21_2 1_555 1_555
C23_2 C22_2 1_555 1_555
H7_2 C23_2 1_555 1_555
C24_2 C22_2 1_555 1_555
H8_2 C24_2 1_555 1_555
C25_2 C23_2 1_555 1_555
H9_2 C25_2 1_555 1_555
C26_2 C24_2 1_555 1_555
H10_2 C26_2 1_555 1_555
C27_2 H11_2 1_555 1_555
C28_2 H12_2 1_555 1_555
C29_2 C27_2 1_555 1_555
H13_2 C29_2 1_555 1_555
C30_2 C28_2 1_555 1_555
H14_2 C30_2 1_555 1_555
C31_2 C29_2 1_555 1_555
C32_2 C31_2 1_555 1_555
C33_2 C32_2 1_555 1_555
H15_2 C33_2 1_555 1_555
C34_2 C33_2 1_555 1_555
H16_2 C34_2 1_555 1_555
C35_2 C34_2 1_555 1_555
C36_2 C35_2 1_555 1_555
C37_2 C36_2 1_555 1_555
H17_2 C37_2 1_555 1_555
C38_2 C36_2 1_555 1_555
H18_2 C38_2 1_555 1_555
C39_2 C37_2 1_555 1_555
H19_2 C39_2 1_555 1_555
C40_2 C38_2 1_555 1_555
H20_2 C40_2 1_555 1_555
C41_2 H21_2 1_555 1_555
C42_2 H22_2 1_555 1_555
C43_2 C41_2 1_555 1_555
H23_2 C43_2 1_555 1_555
C44_2 C42_2 1_555 1_555
H24_2 C44_2 1_555 1_555
C45_2 C43_2 1_555 1_555
C46_2 C45_2 1_555 1_555
C47_2 C46_2 1_555 1_555
H25_2 C47_2 1_555 1_555
C48_2 C47_2 1_555 1_555
H26_2 C48_2 1_555 1_555
C49_2 C48_2 1_555 1_555
C50_2 C49_2 1_555 1_555
C51_2 C50_2 1_555 1_555
H27_2 C51_2 1_555 1_555
C52_2 C50_2 1_555 1_555
H28_2 C52_2 1_555 1_555
C53_2 C51_2 1_555 1_555
H29_2 C53_2 1_555 1_555
C54_2 C52_2 1_555 1_555
H30_2 C54_2 1_555 1_555
N1_2 Fe4 1_555 1_555
N4_2 Fe4 1_555 1_555
N5_2 Fe2_2 1_555 1_555
N6_2 Fe2_2 1_555 1_555
N7_2 Fe2_2 1_555 1_555
N8_2 Fe2_2 1_555 1_555
N9_2 Fe3_2 1_555 1_555
N10_2 Fe3_2 1_555 1_555
N11_2 Fe3_2 1_555 1_555
N12_2 Fe3_2 1_555 1_555
N13_2 C13_2 1_555 1_555
N14_2 C18_2 1_555 1_555
N15_2 C21_2 1_555 1_555
N16_2 C25_2 1_555 1_555
N17_2 C27_2 1_555 1_555
N18_2 C32_2 1_555 1_555
N19_2 C35_2 1_555 1_555
N26 C39_2 1_555 1_555
N21_2 C41_2 1_555 1_555
N22_2 C46_2 1_555 1_555
N23_2 C49_2 1_555 1_555
N24_2 C53_2 1_555 1_555
Fe4 N13_2 1_555 1_555
Fe2_2 N17_2 1_555 1_555
Fe3_2 N21_2 1_555 1_555
Au1_2 C1_2 1_555 1_555
Au3_2 C4_2 1_555 1_555
Au4_2 C6_2 1_555 1_555
Au5_2 C10_2 1_555 1_555
Au6_2 C7_2 1_555 1_555
C56_2 Au4_2 1_555 1_555
C57_2 Au5_2 1_555 1_555
C58_2 Au6_2 1_555 1_555
N25_2 Fe3_2 1_555 1_555
N27_2 Fe2_2 1_555 1_555
C9_2 Au3_2 1_555 1_555
C14_2 N13_2 1_555 1_555
C16_2 C17_2 1_555 1_555
C26_2 N16_2 1_555 1_555
C28_2 N17_2 1_555 1_555
C30_2 C31_2 1_555 1_555
C40_2 N26 1_555 1_555
C42_2 N21_2 1_555 1_555
C44_2 C45_2 1_555 1_555
C54_2 N24_2 1_555 1_555
N14_2 N15_2 1_555 1_555
N18_2 N19_2 1_555 1_555
N22_2 N23_2 1_555 1_555
Au3_2 Au4_2 1_555 1_555
Au5_2 Au6_2 1_555 1_555
C1_3 N1_3 1_555 1_555
C2_3 N2_3 1_555 1_555
C3_3 N3_3 1_555 1_555
C4_3 N4_3 1_555 1_555
C13_3 H1_3 1_555 1_555
C14_3 H2_3 1_555 1_555
C15_3 C13_3 1_555 1_555
H3_3 C15_3 1_555 1_555
C16_3 C14_3 1_555 1_555
H4_3 C16_3 1_555 1_555
C17_3 C15_3 1_555 1_555
C18_3 C17_3 1_555 1_555
C19_3 C18_3 1_555 1_555
H5_3 C19_3 1_555 1_555
C20_3 C19_3 1_555 1_555
H6_3 C20_3 1_555 1_555
C21_3 C20_3 1_555 1_555
C22_3 C21_3 1_555 1_555
C23_3 C22_3 1_555 1_555
H7_3 C23_3 1_555 1_555
C24_3 C22_3 1_555 1_555
H8_3 C24_3 1_555 1_555
C25_3 C23_3 1_555 1_555
H9_3 C25_3 1_555 1_555
C26_3 C24_3 1_555 1_555
H10_3 C26_3 1_555 1_555
N1_3 Fe1_2 1_555 1_555
N2_3 Fe1_2 1_555 1_555
N3_3 Fe1_2 1_555 1_555
N4_3 Fe1_2 1_555 1_555
N13_3 C13_3 1_555 1_555
N14_3 C18_3 1_555 1_555
N15_3 C21_3 1_555 1_555
N16_3 C25_3 1_555 1_555
Fe1_2 N13_3 1_555 1_555
Au1_3 C1_3 1_555 1_555
C59_3 Au1_3 1_555 1_555
Fe6_3 N16_3 1_555 1_555
Au8_3 C2_3 1_555 1_555
C14_3 N13_3 1_555 1_555
C16_3 C17_3 1_555 1_555
C26_3 N16_3 1_555 1_555
N14_3 N15_3 1_555 1_555
C5_3 N5_3 1_555 1_555
C6_3 N6_3 1_555 1_555
C7_3 N7_3 1_555 1_555
C8_3 N8_3 1_555 1_555
C27_3 H11_3 1_555 1_555
C28_3 H12_3 1_555 1_555
C29_3 C27_3 1_555 1_555
H13_3 C29_3 1_555 1_555
C30_3 C28_3 1_555 1_555
H14_3 C30_3 1_555 1_555
C31_3 C29_3 1_555 1_555
C32_3 C31_3 1_555 1_555
C33_3 C32_3 1_555 1_555
H15_3 C33_3 1_555 1_555
C34_3 C33_3 1_555 1_555
H16_3 C34_3 1_555 1_555
C35_3 C34_3 1_555 1_555
C36_3 C35_3 1_555 1_555
C37_3 C36_3 1_555 1_555
H17_3 C37_3 1_555 1_555
C38_3 C36_3 1_555 1_555
H18_3 C38_3 1_555 1_555
C39_3 C37_3 1_555 1_555
H19_3 C39_3 1_555 1_555
C40_3 C38_3 1_555 1_555
H20_3 C40_3 1_555 1_555
N5_3 Fe5_2 1_555 1_555
N6_3 Fe5_2 1_555 1_555
N7_3 Fe5_2 1_555 1_555
N8_3 Fe5_2 1_555 1_555
N17_3 C27_3 1_555 1_555
N18_3 C32_3 1_555 1_555
N19_3 C35_3 1_555 1_555
N20_2 C39_3 1_555 1_555
Fe5_2 N17_3 1_555 1_555
Au2_3 C5_3 1_555 1_555
Au4_3 C6_3 1_555 1_555
Au6_3 C7_3 1_555 1_555
C55_3 Au2_3 1_555 1_555
Fe4_2 N20_2 1_555 1_555
Au10_3 C8_3 1_555 1_555
C28_3 N17_3 1_555 1_555
C30_3 C31_3 1_555 1_555
C40_3 N20_2 1_555 1_555
N18_3 N19_3 1_555 1_555
C9_3 N9_3 1_555 1_555
C10_3 N10_3 1_555 1_555
C11_3 N11_3 1_555 1_555
C59_3 N12_3 1_555 1_555
C41_3 H21_3 1_555 1_555
C42_3 H22_3 1_555 1_555
C43_3 C41_3 1_555 1_555
H23_3 C43_3 1_555 1_555
C44_3 C42_3 1_555 1_555
H24_3 C44_3 1_555 1_555
C45_3 C43_3 1_555 1_555
C46_3 C45_3 1_555 1_555
C47_3 C46_3 1_555 1_555
H25_3 C47_3 1_555 1_555
C48_3 C47_3 1_555 1_555
H26_3 C48_3 1_555 1_555
C49_3 C48_3 1_555 1_555
C50_3 C49_3 1_555 1_555
C51_3 C50_3 1_555 1_555
H27_3 C51_3 1_555 1_555
C52_3 C50_3 1_555 1_555
H28_3 C52_3 1_555 1_555
C53_3 C51_3 1_555 1_555
H29_3 C53_3 1_555 1_555
C54_3 C52_3 1_555 1_555
H30_3 C54_3 1_555 1_555
N9_3 Fe3_3 1_555 1_555
N10_3 Fe3_3 1_555 1_555
N11_3 Fe3_3 1_555 1_555
N12_3 Fe3_3 1_555 1_555
N21_3 C41_3 1_555 1_555
N22_3 C46_3 1_555 1_555
N23_3 C49_3 1_555 1_555
N27_2 C53_3 1_555 1_555
Fe3_3 N21_3 1_555 1_555
Au5_3 C10_3 1_555 1_555
Au11_3 C11_3 1_555 1_555
C9_3 Au3_3 1_555 1_555
C42_3 N21_3 1_555 1_555
C44_3 C45_3 1_555 1_555
C54_3 N27_2 1_555 1_555
N22_3 N23_3 1_555 1_555
C1_4 N1_4 1_555 1_555
C2_4 N2_4 1_555 1_555
C3_4 N3_4 1_555 1_555
C4_4 N4_4 1_555 1_555
C5_4 N5_4 1_555 1_555
C6_4 N6_4 1_555 1_555
C7_4 N7_4 1_555 1_555
C8_4 N8_4 1_555 1_555
C13_4 H1_4 1_555 1_555
C14_4 H2_4 1_555 1_555
C15_4 C13_4 1_555 1_555
H3_4 C15_4 1_555 1_555
C16_4 C14_4 1_555 1_555
H4_4 C16_4 1_555 1_555
C17_4 C15_4 1_555 1_555
C18_4 C17_4 1_555 1_555
C19_4 C18_4 1_555 1_555
H5_4 C19_4 1_555 1_555
C20_4 C19_4 1_555 1_555
H6_4 C20_4 1_555 1_555
C21_4 C20_4 1_555 1_555
C22_4 C21_4 1_555 1_555
C23_4 C22_4 1_555 1_555
H7_4 C23_4 1_555 1_555
C24_4 C22_4 1_555 1_555
H8_4 C24_4 1_555 1_555
C25_4 C23_4 1_555 1_555
H9_4 C25_4 1_555 1_555
C26_4 C24_4 1_555 1_555
H10_4 C26_4 1_555 1_555
C27_4 H11_4 1_555 1_555
C28_4 H12_4 1_555 1_555
C29_4 C27_4 1_555 1_555
H13_4 C29_4 1_555 1_555
C30_4 C28_4 1_555 1_555
H14_4 C30_4 1_555 1_555
C31_4 C29_4 1_555 1_555
C32_4 C31_4 1_555 1_555
C33_4 C32_4 1_555 1_555
H15_4 C33_4 1_555 1_555
C34_4 C33_4 1_555 1_555
H16_4 C34_4 1_555 1_555
C35_4 C34_4 1_555 1_555
C36_4 C35_4 1_555 1_555
C37_4 C36_4 1_555 1_555
H17_4 C37_4 1_555 1_555
C38_4 C36_4 1_555 1_555
H18_4 C38_4 1_555 1_555
C39_4 C37_4 1_555 1_555
H19_4 C39_4 1_555 1_555
C40_4 C38_4 1_555 1_555
H20_4 C40_4 1_555 1_555
N1_4 Fe4_2 1_555 1_555
N2_4 Fe4_2 1_555 1_555
N3_4 Fe4_2 1_555 1_555
N4_4 Fe4_2 1_555 1_555
N5_4 Fe5 1_555 1_555
N6_4 Fe5 1_555 1_555
N7_4 Fe5 1_555 1_555
N8_4 Fe5 1_555 1_555
N13_4 C13_4 1_555 1_555
N14_4 C18_4 1_555 1_555
N15_4 C21_4 1_555 1_555
N16_4 C25_4 1_555 1_555
N17_4 C27_4 1_555 1_555
N18_4 C32_4 1_555 1_555
N19_4 C35_4 1_555 1_555
N26_2 C39_4 1_555 1_555
Fe4_2 N13_4 1_555 1_555
Fe5 N17_4 1_555 1_555
Au1_4 C1_4 1_555 1_555
Au2_4 C5_4 1_555 1_555
Au4_4 C6_4 1_555 1_555
Au6_4 C7_4 1_555 1_555
C55_4 Au2_4 1_555 1_555
C59_4 Au1_4 1_555 1_555
Au8_4 C2_4 1_555 1_555
Au10_4 C8_4 1_555 1_555
C14_4 N13_4 1_555 1_555
C16_4 C17_4 1_555 1_555
C26_4 N16_4 1_555 1_555
C28_4 N17_4 1_555 1_555
C30_4 C31_4 1_555 1_555
C40_4 N26_2 1_555 1_555
N14_4 N15_4 1_555 1_555
N18_4 N19_4 1_555 1_555
Au1_4 Au2_4 1_555 1_555
C9_4 N9_4 1_555 1_555
C10_4 N10_4 1_555 1_555
C11_4 N11_4 1_555 1_555
C59_4 N12_4 1_555 1_555
C41_4 H21_4 1_555 1_555
C42_4 H22_4 1_555 1_555
C43_4 C41_4 1_555 1_555
H23_4 C43_4 1_555 1_555
C44_4 C42_4 1_555 1_555
H24_4 C44_4 1_555 1_555
C45_4 C43_4 1_555 1_555
C46_4 C45_4 1_555 1_555
C47_4 C46_4 1_555 1_555
H25_4 C47_4 1_555 1_555
C48_4 C47_4 1_555 1_555
H26_4 C48_4 1_555 1_555
C49_4 C48_4 1_555 1_555
C50_4 C49_4 1_555 1_555
C51_4 C50_4 1_555 1_555
H27_4 C51_4 1_555 1_555
C52_4 C50_4 1_555 1_555
H28_4 C52_4 1_555 1_555
C53_4 C51_4 1_555 1_555
H29_4 C53_4 1_555 1_555
C54_4 C52_4 1_555 1_555
H30_4 C54_4 1_555 1_555
N9_4 Fe3_4 1_555 1_555
N10_4 Fe3_4 1_555 1_555
N11_4 Fe3_4 1_555 1_555
N12_4 Fe3_4 1_555 1_555
N21_4 C41_4 1_555 1_555
N22_4 C46_4 1_555 1_555
N23_4 C49_4 1_555 1_555
N27 C53_4 1_555 1_555
Fe3_4 N21_4 1_555 1_555
Au5_4 C10_4 1_555 1_555
N25_4 Fe3_4 1_555 1_555
Au11_4 C11_4 1_555 1_555
C9_4 Au3_4 1_555 1_555
C42_4 N21_4 1_555 1_555
C44_4 C45_4 1_555 1_555
C54_4 N27 1_555 1_555
N22_4 N23_4 1_555 1_555
C55 N2_5 1_555 1_555
C56 N3_5 1_555 1_555
C5_5 N5_5 1_555 1_555
C6_5 N6_5 1_555 1_555
C7_5 N7_5 1_555 1_555
C57_3 N8_5 1_555 1_555
C27_5 H11_5 1_555 1_555
C28_5 H12_5 1_555 1_555
C29_5 C27_5 1_555 1_555
H13_5 C29_5 1_555 1_555
C30_5 C28_5 1_555 1_555
H14_5 C30_5 1_555 1_555
C31_5 C29_5 1_555 1_555
C32_5 C31_5 1_555 1_555
C33_5 C32_5 1_555 1_555
H15_5 C33_5 1_555 1_555
C34_5 C33_5 1_555 1_555
H16_5 C34_5 1_555 1_555
C35_5 C34_5 1_555 1_555
C36_5 C35_5 1_555 1_555
C37_5 C36_5 1_555 1_555
H17_5 C37_5 1_555 1_555
C38_5 C36_5 1_555 1_555
H18_5 C38_5 1_555 1_555
C39_5 C37_5 1_555 1_555
H19_5 C39_5 1_555 1_555
C40_5 C38_5 1_555 1_555
H20_5 C40_5 1_555 1_555
N5_5 Fe2_3 1_555 1_555
N6_5 Fe2_3 1_555 1_555
N7_5 Fe2_3 1_555 1_555
N8_5 Fe2_3 1_555 1_555
N17_5 C27_5 1_555 1_555
N18_5 C32_5 1_555 1_555
N19_5 C35_5 1_555 1_555
N20_3 C39_5 1_555 1_555
Fe2_3 N17_5 1_555 1_555
Au9 C6_5 1_555 1_555
Au11_3 C7_5 1_555 1_555
C28_5 N17_5 1_555 1_555
C30_5 C31_5 1_555 1_555
C40_5 N20_3 1_555 1_555
N18_5 N19_5 1_555 1_555
C1_5 N1_5 1_555 1_555
C4_5 N4_5 1_555 1_555
C9_5 N9_5 1_555 1_555
C10_5 N10_5 1_555 1_555
C58_3 N11_5 1_555 1_555
C12 N12_5 1_555 1_555
C14_5 H2_5 1_555 1_555
C15_5 C13_5 1_555 1_555
H3_5 C15_5 1_555 1_555
C16_5 C14_5 1_555 1_555
H4_5 C16_5 1_555 1_555
C17_5 C15_5 1_555 1_555
C18_5 C17_5 1_555 1_555
C19_5 C18_5 1_555 1_555
H5_5 C19_5 1_555 1_555
C20_5 C19_5 1_555 1_555
H6_5 C20_5 1_555 1_555
C21_5 C20_5 1_555 1_555
C22_5 C21_5 1_555 1_555
C23_5 C22_5 1_555 1_555
H7_5 C23_5 1_555 1_555
C24_5 C22_5 1_555 1_555
H8_5 C24_5 1_555 1_555
C25_5 C23_5 1_555 1_555
H9_5 C25_5 1_555 1_555
C26_5 C24_5 1_555 1_555
H10_5 C26_5 1_555 1_555
C41_5 H21_5 1_555 1_555
C42_5 H22_5 1_555 1_555
C43_5 C41_5 1_555 1_555
H23_5 C43_5 1_555 1_555
C44_5 C42_5 1_555 1_555
H24_5 C44_5 1_555 1_555
C45_5 C43_5 1_555 1_555
C46_5 C45_5 1_555 1_555
C47_5 C46_5 1_555 1_555
H25_5 C47_5 1_555 1_555
C48_5 C47_5 1_555 1_555
H26_5 C48_5 1_555 1_555
C49_5 C48_5 1_555 1_555
C50_5 C49_5 1_555 1_555
C51_5 C50_5 1_555 1_555
H27_5 C51_5 1_555 1_555
C52_5 C50_5 1_555 1_555
H28_5 C52_5 1_555 1_555
C53_5 C51_5 1_555 1_555
H29_5 C53_5 1_555 1_555
C54_5 C52_5 1_555 1_555
H30_5 C54_5 1_555 1_555
N1_5 Fe1_3 1_555 1_555
N4_5 Fe1_3 1_555 1_555
N9_5 Fe6_2 1_555 1_555
N10_5 Fe6_2 1_555 1_555
N11_5 Fe6_2 1_555 1_555
N12_5 Fe6_2 1_555 1_555
N13_5 C13_5 1_555 1_555
N14_5 C18_5 1_555 1_555
N15_5 C21_5 1_555 1_555
N25_2 C25_5 1_555 1_555
N21_5 C41_5 1_555 1_555
N22_5 C46_5 1_555 1_555
N23_5 C49_5 1_555 1_555
N24_3 C53_5 1_555 1_555
Fe1_3 N13_5 1_555 1_555
Fe6_2 N21_5 1_555 1_555
Au7 C1_5 1_555 1_555
Au3_5 C4_5 1_555 1_555
Au10_3 C10_5 1_555 1_555
Fe5_3 N24_3 1_555 1_555
C9_5 Au3_5 1_555 1_555
C14_5 N13_5 1_555 1_555
C16_5 C17_5 1_555 1_555
C26_5 N25_2 1_555 1_555
C42_5 N21_5 1_555 1_555
C44_5 C45_5 1_555 1_555
C54_5 N24_3 1_555 1_555
N14_5 N15_5 1_555 1_555
N22_5 N23_5 1_555 1_555
C1_6 N1_6 1_555 1_555
C4_6 N4_6 1_555 1_555
C5_6 N5_6 1_555 1_555
C6_6 N6_6 1_555 1_555
C7_6 N7_6 1_555 1_555
C57_4 N8_6 1_555 1_555
C9_6 N9_6 1_555 1_555
C10_6 N10_6 1_555 1_555
C58_4 N11_6 1_555 1_555
C12_2 N12_6 1_555 1_555
C14_6 H2_6 1_555 1_555
C15_6 C13_6 1_555 1_555
H3_6 C15_6 1_555 1_555
C16_6 C14_6 1_555 1_555
H4_6 C16_6 1_555 1_555
C17_6 C15_6 1_555 1_555
C18_6 C17_6 1_555 1_555
C19_6 C18_6 1_555 1_555
H5_6 C19_6 1_555 1_555
C20_6 C19_6 1_555 1_555
H6_6 C20_6 1_555 1_555
C21_6 C20_6 1_555 1_555
C22_6 C21_6 1_555 1_555
C23_6 C22_6 1_555 1_555
H7_6 C23_6 1_555 1_555
C24_6 C22_6 1_555 1_555
H8_6 C24_6 1_555 1_555
C25_6 C23_6 1_555 1_555
H9_6 C25_6 1_555 1_555
C26_6 C24_6 1_555 1_555
H10_6 C26_6 1_555 1_555
C27_6 H11_6 1_555 1_555
C28_6 H12_6 1_555 1_555
C29_6 C27_6 1_555 1_555
H13_6 C29_6 1_555 1_555
C30_6 C28_6 1_555 1_555
H14_6 C30_6 1_555 1_555
C31_6 C29_6 1_555 1_555
C32_6 C31_6 1_555 1_555
C33_6 C32_6 1_555 1_555
H15_6 C33_6 1_555 1_555
C34_6 C33_6 1_555 1_555
H16_6 C34_6 1_555 1_555
C35_6 C34_6 1_555 1_555
C36_6 C35_6 1_555 1_555
C37_6 C36_6 1_555 1_555
H17_6 C37_6 1_555 1_555
C38_6 C36_6 1_555 1_555
H18_6 C38_6 1_555 1_555
C39_6 C37_6 1_555 1_555
H19_6 C39_6 1_555 1_555
C40_6 C38_6 1_555 1_555
H20_6 C40_6 1_555 1_555
C41_6 H21_6 1_555 1_555
C42_6 H22_6 1_555 1_555
C43_6 C41_6 1_555 1_555
H23_6 C43_6 1_555 1_555
C44_6 C42_6 1_555 1_555
H24_6 C44_6 1_555 1_555
C45_6 C43_6 1_555 1_555
C46_6 C45_6 1_555 1_555
C47_6 C46_6 1_555 1_555
H25_6 C47_6 1_555 1_555
C48_6 C47_6 1_555 1_555
H26_6 C48_6 1_555 1_555
C49_6 C48_6 1_555 1_555
C50_6 C49_6 1_555 1_555
C51_6 C50_6 1_555 1_555
H27_6 C51_6 1_555 1_555
C52_6 C50_6 1_555 1_555
H28_6 C52_6 1_555 1_555
C53_6 C51_6 1_555 1_555
H29_6 C53_6 1_555 1_555
C54_6 C52_6 1_555 1_555
H30_6 C54_6 1_555 1_555
N1_6 Fe4_3 1_555 1_555
N4_6 Fe4_3 1_555 1_555
N5_6 Fe2_4 1_555 1_555
N6_6 Fe2_4 1_555 1_555
N7_6 Fe2_4 1_555 1_555
N8_6 Fe2_4 1_555 1_555
N9_6 Fe6 1_555 1_555
N10_6 Fe6 1_555 1_555
N11_6 Fe6 1_555 1_555
N12_6 Fe6 1_555 1_555
N13_6 C13_6 1_555 1_555
N14_6 C18_6 1_555 1_555
N15_6 C21_6 1_555 1_555
N25 C25_6 1_555 1_555
N17_6 C27_6 1_555 1_555
N18_6 C32_6 1_555 1_555
N19_6 C35_6 1_555 1_555
N26_3 C39_6 1_555 1_555
N21_6 C41_6 1_555 1_555
N22_6 C46_6 1_555 1_555
N23_6 C49_6 1_555 1_555
N24_4 C53_6 1_555 1_555
Fe4_3 N13_6 1_555 1_555
Fe2_4 N17_6 1_555 1_555
Fe6 N21_6 1_555 1_555
Au7_2 C1_6 1_555 1_555
Au3_6 C4_6 1_555 1_555
Au9_2 C6_6 1_555 1_555
Au10_4 C10_6 1_555 1_555
Au11_4 C7_6 1_555 1_555
N27_4 Fe2_4 1_555 1_555
C9_6 Au3_6 1_555 1_555
C14_6 N13_6 1_555 1_555
C16_6 C17_6 1_555 1_555
C26_6 N25 1_555 1_555
C28_6 N17_6 1_555 1_555
C30_6 C31_6 1_555 1_555
C40_6 N26_3 1_555 1_555
C42_6 N21_6 1_555 1_555
C44_6 C45_6 1_555 1_555
C54_6 N24_4 1_555 1_555
N14_6 N15_6 1_555 1_555
N18_6 N19_6 1_555 1_555
N22_6 N23_6 1_555 1_555
Au3_6 Au9_2 1_555 1_555
Au10_4 Au11_4 1_555 1_555
C55_2 N2_6 1_555 1_555
C56_2 N3_6 1_555 1_555
C9_7 N9_7 1_555 1_555
C10_7 N10_7 1_555 1_555
C58 N11_7 1_555 1_555
C12_3 N12_7 1_555 1_555
C41_7 H21_7 1_555 1_555
C42_7 H22_7 1_555 1_555
C43_7 C41_7 1_555 1_555
H23_7 C43_7 1_555 1_555
C44_7 C42_7 1_555 1_555
H24_7 C44_7 1_555 1_555
C45_7 C43_7 1_555 1_555
C46_7 C45_7 1_555 1_555
C47_7 C46_7 1_555 1_555
H25_7 C47_7 1_555 1_555
C48_7 C47_7 1_555 1_555
H26_7 C48_7 1_555 1_555
C49_7 C48_7 1_555 1_555
C50_7 C49_7 1_555 1_555
C51_7 C50_7 1_555 1_555
H27_7 C51_7 1_555 1_555
C52_7 C50_7 1_555 1_555
H28_7 C52_7 1_555 1_555
C53_7 C51_7 1_555 1_555
H29_7 C53_7 1_555 1_555
C54_7 C52_7 1_555 1_555
H30_7 C54_7 1_555 1_555
N9_7 Fe6_4 1_555 1_555
N10_7 Fe6_4 1_555 1_555
N11_7 Fe6_4 1_555 1_555
N12_7 Fe6_4 1_555 1_555
N21_7 C41_7 1_555 1_555
N22_7 C46_7 1_555 1_555
N23_7 C49_7 1_555 1_555
N27_4 C53_7 1_555 1_555
Fe6_4 N21_7 1_555 1_555
Au10 C10_7 1_555 1_555
Au7_3 C12_3 1_555 1_555
C9_7 Au3_7 1_555 1_555
C42_7 N21_7 1_555 1_555
C44_7 C45_7 1_555 1_555
C54_7 N27_4 1_555 1_555
N22_7 N23_7 1_555 1_555
C5_7 N5_7 1_555 1_555
C6_7 N6_7 1_555 1_555
C7_7 N7_7 1_555 1_555
C57 N8_7 1_555 1_555
C27_7 H11_7 1_555 1_555
C28_7 H12_7 1_555 1_555
C29_7 C27_7 1_555 1_555
H13_7 C29_7 1_555 1_555
C30_7 C28_7 1_555 1_555
H14_7 C30_7 1_555 1_555
C31_7 C29_7 1_555 1_555
C32_7 C31_7 1_555 1_555
C33_7 C32_7 1_555 1_555
H15_7 C33_7 1_555 1_555
C34_7 C33_7 1_555 1_555
H16_7 C34_7 1_555 1_555
C35_7 C34_7 1_555 1_555
C36_7 C35_7 1_555 1_555
C37_7 C36_7 1_555 1_555
H17_7 C37_7 1_555 1_555
C38_7 C36_7 1_555 1_555
H18_7 C38_7 1_555 1_555
C39_7 C37_7 1_555 1_555
H19_7 C39_7 1_555 1_555
C40_7 C38_7 1_555 1_555
H20_7 C40_7 1_555 1_555
N5_7 Fe5_4 1_555 1_555
N6_7 Fe5_4 1_555 1_555
N7_7 Fe5_4 1_555 1_555
N8_7 Fe5_4 1_555 1_555
N17_7 C27_7 1_555 1_555
N18_7 C32_7 1_555 1_555
N19_7 C35_7 1_555 1_555
N20_4 C39_7 1_555 1_555
Fe5_4 N17_7 1_555 1_555
Au8_3 C5_7 1_555 1_555
Au9_3 C6_7 1_555 1_555
Au11 C7_7 1_555 1_555
Fe4_4 N20_4 1_555 1_555
C28_7 N17_7 1_555 1_555
C30_7 C31_7 1_555 1_555
C40_7 N20_4 1_555 1_555
N18_7 N19_7 1_555 1_555
C1_7 N1_7 1_555 1_555
C55_3 N2_7 1_555 1_555
C56_3 N3_7 1_555 1_555
C4_7 N4_7 1_555 1_555
C13_7 H1_7 1_555 1_555
C14_7 H2_7 1_555 1_555
C15_7 C13_7 1_555 1_555
H3_7 C15_7 1_555 1_555
C16_7 C14_7 1_555 1_555
H4_7 C16_7 1_555 1_555
C17_7 C15_7 1_555 1_555
C18_7 C17_7 1_555 1_555
C19_7 C18_7 1_555 1_555
H5_7 C19_7 1_555 1_555
C20_7 C19_7 1_555 1_555
H6_7 C20_7 1_555 1_555
C21_7 C20_7 1_555 1_555
C22_7 C21_7 1_555 1_555
C23_7 C22_7 1_555 1_555
H7_7 C23_7 1_555 1_555
C24_7 C22_7 1_555 1_555
H8_7 C24_7 1_555 1_555
C25_7 C23_7 1_555 1_555
H9_7 C25_7 1_555 1_555
C26_7 C24_7 1_555 1_555
H10_7 C26_7 1_555 1_555
N1_7 Fe1_4 1_555 1_555
N2_7 Fe1_4 1_555 1_555
N3_7 Fe1_4 1_555 1_555
N4_7 Fe1_4 1_555 1_555
N13_7 C13_7 1_555 1_555
N14_7 C18_7 1_555 1_555
N15_7 C21_7 1_555 1_555
N25_4 C25_7 1_555 1_555
Fe1_4 N13_7 1_555 1_555
Au7_3 C1_7 1_555 1_555
C14_7 N13_7 1_555 1_555
C16_7 C17_7 1_555 1_555
C26_7 N25_4 1_555 1_555
N14_7 N15_7 1_555 1_555
C9_8 N9_8 1_555 1_555
C10_8 N10_8 1_555 1_555
C58_2 N11_8 1_555 1_555
C12_4 N12_8 1_555 1_555
C41_8 H21_8 1_555 1_555
C42_8 H22_8 1_555 1_555
C43_8 C41_8 1_555 1_555
H23_8 C43_8 1_555 1_555
C44_8 C42_8 1_555 1_555
H24_8 C44_8 1_555 1_555
C45_8 C43_8 1_555 1_555
C46_8 C45_8 1_555 1_555
C47_8 C46_8 1_555 1_555
H25_8 C47_8 1_555 1_555
C48_8 C47_8 1_555 1_555
H26_8 C48_8 1_555 1_555
C49_8 C48_8 1_555 1_555
C50_8 C49_8 1_555 1_555
C51_8 C50_8 1_555 1_555
H27_8 C51_8 1_555 1_555
C52_8 C50_8 1_555 1_555
H28_8 C52_8 1_555 1_555
C53_8 C51_8 1_555 1_555
H29_8 C53_8 1_555 1_555
C54_8 C52_8 1_555 1_555
H30_8 C54_8 1_555 1_555
N9_8 Fe6_3 1_555 1_555
N10_8 Fe6_3 1_555 1_555
N11_8 Fe6_3 1_555 1_555
N12_8 Fe6_3 1_555 1_555
N21_8 C41_8 1_555 1_555
N22_8 C46_8 1_555 1_555
N23_8 C49_8 1_555 1_555
N27_3 C53_8 1_555 1_555
Fe6_3 N21_8 1_555 1_555
Au10_2 C10_8 1_555 1_555
Au7_4 C12_4 1_555 1_555
C9_8 Au3_8 1_555 1_555
C42_8 N21_8 1_555 1_555
C44_8 C45_8 1_555 1_555
C54_8 N27_3 1_555 1_555
N22_8 N23_8 1_555 1_555
C1_8 N1_8 1_555 1_555
C55_4 N2_8 1_555 1_555
C56_4 N3_8 1_555 1_555
C4_8 N4_8 1_555 1_555
C5_8 N5_8 1_555 1_555
C6_8 N6_8 1_555 1_555
C7_8 N7_8 1_555 1_555
C57_2 N8_8 1_555 1_555
C13_8 H1_8 1_555 1_555
C14_8 H2_8 1_555 1_555
C15_8 C13_8 1_555 1_555
H3_8 C15_8 1_555 1_555
C16_8 C14_8 1_555 1_555
H4_8 C16_8 1_555 1_555
C17_8 C15_8 1_555 1_555
C18_8 C17_8 1_555 1_555
C19_8 C18_8 1_555 1_555
H5_8 C19_8 1_555 1_555
C20_8 C19_8 1_555 1_555
H6_8 C20_8 1_555 1_555
C21_8 C20_8 1_555 1_555
C22_8 C21_8 1_555 1_555
C23_8 C22_8 1_555 1_555
H7_8 C23_8 1_555 1_555
C24_8 C22_8 1_555 1_555
H8_8 C24_8 1_555 1_555
C25_8 C23_8 1_555 1_555
H9_8 C25_8 1_555 1_555
C26_8 C24_8 1_555 1_555
H10_8 C26_8 1_555 1_555
C27_8 H11_8 1_555 1_555
C28_8 H12_8 1_555 1_555
C29_8 C27_8 1_555 1_555
H13_8 C29_8 1_555 1_555
C30_8 C28_8 1_555 1_555
H14_8 C30_8 1_555 1_555
C31_8 C29_8 1_555 1_555
C32_8 C31_8 1_555 1_555
C33_8 C32_8 1_555 1_555
H15_8 C33_8 1_555 1_555
C34_8 C33_8 1_555 1_555
H16_8 C34_8 1_555 1_555
C35_8 C34_8 1_555 1_555
C36_8 C35_8 1_555 1_555
C37_8 C36_8 1_555 1_555
H17_8 C37_8 1_555 1_555
C38_8 C36_8 1_555 1_555
H18_8 C38_8 1_555 1_555
C39_8 C37_8 1_555 1_555
H19_8 C39_8 1_555 1_555
C40_8 C38_8 1_555 1_555
H20_8 C40_8 1_555 1_555
N1_8 Fe4_4 1_555 1_555
N2_8 Fe4_4 1_555 1_555
N3_8 Fe4_4 1_555 1_555
N4_8 Fe4_4 1_555 1_555
N5_8 Fe5_3 1_555 1_555
N6_8 Fe5_3 1_555 1_555
N7_8 Fe5_3 1_555 1_555
N8_8 Fe5_3 1_555 1_555
N13_8 C13_8 1_555 1_555
N14_8 C18_8 1_555 1_555
N15_8 C21_8 1_555 1_555
N25_3 C25_8 1_555 1_555
N17_8 C27_8 1_555 1_555
N18_8 C32_8 1_555 1_555
N19_8 C35_8 1_555 1_555
N26_4 C39_8 1_555 1_555
Fe4_4 N13_8 1_555 1_555
Fe5_3 N17_8 1_555 1_555
Au7_4 C1_8 1_555 1_555
Au8_4 C5_8 1_555 1_555
Au9_4 C6_8 1_555 1_555
Au11_2 C7_8 1_555 1_555
C14_8 N13_8 1_555 1_555
C16_8 C17_8 1_555 1_555
C26_8 N25_3 1_555 1_555
C28_8 N17_8 1_555 1_555
C30_8 C31_8 1_555 1_555
C40_8 N26_4 1_555 1_555
N14_8 N15_8 1_555 1_555
N18_8 N19_8 1_555 1_555
Au7_4 Au8_4 1_555 1_555

#END
