
###############################################################################
#
# This file contains modified crystal structure data generated from the
# MOF subset of the Cambridge Structural Database (CSD) v543 
# hosted by the Cambridge Crystallographic Data Centre (CCDC).
#
# This work is licensed under the Creative Commons
# Attribution-NonCommercial-ShareAlike 4.0 International License.
# To view a copy of this license, visit
# http://creativecommons.org/licenses/by-nc-sa/4.0/
# or send a letter to
# Creative Commons, PO Box 1866, Mountain View, CA 94042, USA.
#
# CIF created using the CSD Python API on 29 September 2022
# The structure has been converted into the P1 space group
# The structure has a 3D framework
# The original CSD entry AXOHIE is in the monoclinic crystal system
# The framework has been calculated to contain at least 10.0% void space
# The void calculation uses a probe of radius 1.32A, grid spacing 0.4
#
###############################################################################

data_AXOHIE
_chemical_formula_moiety         '(C464 H320 Cd16 N48 O62)n'
_symmetry_cell_setting           triclinic
_symmetry_space_group_name_H-M   'P 1'
_symmetry_Int_Tables_number      1
_space_group_name_Hall           'P 1'
loop_
_symmetry_equiv_pos_site_id
_symmetry_equiv_pos_as_xyz
1 x,y,z
_cell_length_a                   23.221
_cell_length_b                   11.81030(10)
_cell_length_c                   45.4670(6)
_cell_angle_alpha                90
_cell_angle_beta                 104.5160(10)
_cell_angle_gamma                90
_cell_volume                     12071.1
loop_
_atom_site_label
_atom_site_type_symbol
_atom_site_fract_x
_atom_site_fract_y
_atom_site_fract_z
O8 O 0.01336(12) 0.0687(3) 0.39204(7)
Cd4 Cd 0.095752(11) 0.07879(2) 0.440340(6)
O19 O 0.10928(13) 0.0891(3) 0.49298(6)
O20 O 0.19443(14) 0.0929(3) 0.48171(6)
N15 N 0.15704(13) 0.0804(3) 0.40595(7)
N17 N 0.10032(16) 0.2811(3) 0.43983(8)
N16 N 0.10222(15) 0.8794(3) 0.44056(8)
Cd6 Cd 0.417148(10) 0.12579(2) 0.276681(5)
N6 N 0.10032(16) 0.2189(3) 0.93983(8)
C54 C 0.1407(5) 0.1598(5) 0.9563(2)
H37 H 0.1710 0.1983 0.9699
C55 C 0.1444(5) 0.0425(6) 0.9563(2)
H38 H 0.1773 0.0076 0.9689
C57 C 0.0666(6) 0.0424(6) 0.91920(17)
H39 H 0.0395 0.0050 0.9037
C58 C 0.0656(5) 0.1601(5) 0.92006(18)
H40 H 0.0374 0.1975 0.9051
Cd7 Cd 0.095752(11) 0.42121(2) 0.940340(6)
O1 O 0.32206(11) 0.1525(2) 0.23476(5)
O2 O 0.40877(11) 0.1337(3) 0.22442(6)
O5 O 0.49879(12) 0.1059(3) 0.32785(7)
O6 O 0.51810(11) 0.1205(3) 0.28327(6)
O7 O 0.99300(12) 0.0872(3) 0.43547(7)
N1 N 0.35008(12) 0.1279(3) 0.30823(6)
N3 N 0.41698(13) 0.3269(2) 0.27916(7)
N4 N 0.41534(12) 0.9268(2) 0.27732(6)
C1 C 0.32673(15) 0.1879(3) 0.18379(7)
C2 C 0.26551(16) 0.1880(4) 0.17190(8)
H1 H 0.2410 0.1663 0.1842
C3 C 0.24043(17) 0.2192(4) 0.14251(8)
H2 H 0.1993 0.2182 0.1353
C4 C 0.27505(17) 0.2521(4) 0.12335(9)
C5 C 0.33682(19) 0.2511(5) 0.13533(10)
H3 H 0.3615 0.2735 0.1231
C6 C 0.36149(19) 0.2181(5) 0.16445(9)
H4 H 0.4027 0.2159 0.1715
C7 C 0.19373(18) 0.3606(4) 0.03224(9)
C8 C 0.1650(3) 0.3690(7) 0.05457(12)
H5 H 0.1258 0.3942 0.0498
C9 C 0.1923(3) 0.3411(7) 0.08419(13)
H6 H 0.1729 0.3565 0.0993
C10 C 0.24794(18) 0.2907(4) 0.09201(9)
C11 C 0.2764(2) 0.2918(7) 0.07038(11)
H7 H 0.3158 0.2675 0.0748
C12 C 0.2498(2) 0.3279(7) 0.04146(11)
H8 H 0.2728 0.3294 0.0274
C13 C 0.35361(15) 0.1549(3) 0.21625(8)
C14 C 0.1634(2) 0.3963(4) 0.00021(9)
C15 C 0.59966(15) 0.0936(3) 0.32589(8)
C16 C 0.62158(18) 0.0857(5) 0.35718(10)
H9 H 0.5956 0.0852 0.3698
C17 C 0.68224(18) 0.0786(5) 0.36938(10)
H10 H 0.6962 0.0709 0.3903
C18 C 0.72320(17) 0.0823(4) 0.35193(9)
C19 C 0.70032(18) 0.0909(5) 0.32145(10)
H11 H 0.7265 0.0917 0.3090
C20 C 0.63972(17) 0.0986(5) 0.30799(10)
H12 H 0.6262 0.1070 0.2871
C21 C 0.91083(17) 0.0795(4) 0.39289(9)
C22 C 0.88831(19) 0.0548(6) 0.36301(12)
H13 H 0.9144 0.0390 0.3510
C23 C 0.8287(2) 0.0524(7) 0.35018(12)
H14 H 0.8153 0.0314 0.3299
C24 C 0.78842(17) 0.0797(4) 0.36593(10)
C25 C 0.8110(2) 0.1118(7) 0.39550(12)
H15 H 0.7850 0.1322 0.4072
C26 C 0.8707(2) 0.1144(7) 0.40817(13)
H16 H 0.8845 0.1410 0.4279
C27 C 0.53454(17) 0.1073(3) 0.31148(9)
C28 C 0.97770(18) 0.0763(4) 0.40715(10)
C29 C 0.37054(17) 0.1183(4) 0.33856(9)
H17 H 0.4115 0.1165 0.3468
C30 C 0.33404(16) 0.1112(4) 0.35776(9)
H18 H 0.3504 0.1061 0.3786
C31 C 0.27280(15) 0.1115(3) 0.34656(8)
C32 C 0.25133(16) 0.1207(4) 0.31485(8)
H19 H 0.2106 0.1211 0.3060
C33 C 0.29077(16) 0.1288(4) 0.29731(8)
H20 H 0.2757 0.1355 0.2764
C34 C 0.21264(18) 0.1098(5) 0.41586(9)
H21 H 0.2270 0.1244 0.4365
C35 C 0.2514(2) 0.1205(5) 0.39742(10)
H22 H 0.2905 0.1428 0.4058
C36 C 0.23307(15) 0.0989(3) 0.36724(8)
C37 C 0.17509(18) 0.0649(5) 0.35655(10)
H23 H 0.1603 0.0464 0.3362
C38 C 0.13891(18) 0.0586(5) 0.37645(10)
H24 H 0.0994 0.0378 0.3687
C39 C 0.46681(17) 0.3869(3) 0.28911(11)
H25 H 0.5020 0.3470 0.2964
C40 C 0.46997(17) 0.5036(3) 0.28946(10)
H26 H 0.5063 0.5405 0.2959
C41 C 0.41715(16) 0.5645(3) 0.27985(8)
C42 C 0.36462(17) 0.5019(3) 0.26984(10)
H27 H 0.3285 0.5392 0.2630
C43 C 0.36624(18) 0.3863(3) 0.27016(10)
H28 H 0.3306 0.3468 0.2639
C44 C 0.36802(16) 0.8672(3) 0.28101(9)
H29 H 0.3345 0.9069 0.2829
C45 C 0.36674(16) 0.7511(3) 0.28210(9)
H30 H 0.3330 0.7138 0.2846
C46 C 0.41682(14) 0.6892(3) 0.27939(8)
C47 C 0.46570(16) 0.7507(3) 0.27555(9)
H31 H 0.4998 0.7134 0.2736
C48 C 0.46289(16) 0.8664(3) 0.27472(9)
H32 H 0.4960 0.9059 0.2722
O3 O 0.10928(13) 0.4109(3) 0.99298(6)
O4 O 0.19443(14) 0.4071(3) 0.98171(6)
N5 N 0.10222(15) 0.6206(3) 0.94056(8)
C49 C 0.0814(3) 0.6782(4) 0.91563(12)
H33 H 0.0652 0.6379 0.8979
C50 C 0.0819(3) 0.7959(4) 0.91382(13)
H34 H 0.0675 0.8322 0.8953
C51 C 0.1037(2) 0.8575(4) 0.93972(11)
C52 C 0.1285(2) 0.7965(4) 0.96484(13)
H35 H 0.1474 0.8343 0.9826
C53 C 0.1264(2) 0.6806(4) 0.96495(11)
H36 H 0.1428 0.6426 0.9830
C56 C 0.1050(2) 0.9818(4) 0.93975(10)
O12 O 0.01336(12) 0.4313(3) 0.89204(7)
N9 N 0.35008(12) 0.3721(3) 0.80823(6)
N10 N 0.15704(13) 0.4196(3) 0.90595(7)
C83 C 0.37054(17) 0.3817(4) 0.83856(9)
H57 H 0.4115 0.3835 0.8468
C84 C 0.33404(16) 0.3888(4) 0.85776(9)
H58 H 0.3504 0.3939 0.8786
C85 C 0.27280(15) 0.3885(3) 0.84656(8)
C86 C 0.25133(16) 0.3793(4) 0.81485(8)
H59 H 0.2106 0.3789 0.8060
C87 C 0.29077(16) 0.3712(4) 0.79731(8)
H60 H 0.2757 0.3645 0.7764
C88 C 0.21264(18) 0.3902(5) 0.91586(9)
H61 H 0.2270 0.3756 0.9365
C89 C 0.2514(2) 0.3795(5) 0.89742(10)
H62 H 0.2905 0.3572 0.9058
C90 C 0.23307(15) 0.4011(3) 0.86724(8)
C91 C 0.17509(18) 0.4351(5) 0.85655(10)
H63 H 0.1603 0.4536 0.8362
C92 C 0.13891(18) 0.4414(5) 0.87645(10)
H64 H 0.0994 0.4622 0.8687
Cd9 Cd 0.417148(10) 0.37421(2) 0.776681(5)
O9 O 0.49879(12) 0.3941(3) 0.82785(7)
O10 O 0.51810(11) 0.3795(3) 0.78327(6)
O11 O 0.99300(12) 0.4128(3) 0.93547(7)
C69 C 0.59966(15) 0.4064(3) 0.82589(8)
C70 C 0.62158(18) 0.4143(5) 0.85718(10)
H49 H 0.5956 0.4148 0.8698
C71 C 0.68224(18) 0.4214(5) 0.86938(10)
H50 H 0.6962 0.4291 0.8903
C72 C 0.72320(17) 0.4177(4) 0.85193(9)
C73 C 0.70032(18) 0.4091(5) 0.82145(10)
H51 H 0.7265 0.4083 0.8090
C74 C 0.63972(17) 0.4014(5) 0.80799(10)
H52 H 0.6262 0.3930 0.7871
C75 C 0.91083(17) 0.4205(4) 0.89289(9)
C76 C 0.88831(19) 0.4452(6) 0.86301(12)
H53 H 0.9144 0.4610 0.8510
C77 C 0.8287(2) 0.4476(7) 0.85018(12)
H54 H 0.8153 0.4686 0.8299
C78 C 0.78842(17) 0.4203(4) 0.86593(10)
C79 C 0.8110(2) 0.3882(7) 0.89550(12)
H55 H 0.7850 0.3678 0.9072
C80 C 0.8707(2) 0.3856(7) 0.90817(13)
H56 H 0.8845 0.3590 0.9279
C81 C 0.53454(17) 0.3927(3) 0.81148(9)
C82 C 0.97770(18) 0.4237(4) 0.90715(10)
N7 N 0.41698(13) 0.1731(2) 0.77916(7)
C59 C 0.46681(17) 0.1131(3) 0.78911(11)
H41 H 0.5020 0.1530 0.7964
C63 C 0.36624(18) 0.1137(3) 0.77016(10)
H44 H 0.3306 0.1532 0.7639
O13 O 0.32206(11) 0.3475(2) 0.73476(5)
O14 O 0.40877(11) 0.3663(3) 0.72442(6)
C103 C 0.32673(15) 0.3121(3) 0.68379(7)
C104 C 0.26551(16) 0.3120(4) 0.67190(8)
H73 H 0.2410 0.3337 0.6842
C105 C 0.24043(17) 0.2808(4) 0.64251(8)
H74 H 0.1993 0.2818 0.6353
C106 C 0.27505(17) 0.2479(4) 0.62335(9)
C107 C 0.33682(19) 0.2489(5) 0.63533(10)
H75 H 0.3615 0.2265 0.6231
C108 C 0.36149(19) 0.2819(5) 0.66445(9)
H76 H 0.4027 0.2841 0.6715
C109 C 0.19373(18) 0.1394(4) 0.53224(9)
C110 C 0.1650(3) 0.1310(7) 0.55457(12)
H77 H 0.1258 0.1058 0.5498
C111 C 0.1923(3) 0.1589(7) 0.58419(13)
H78 H 0.1729 0.1435 0.5993
C112 C 0.24794(18) 0.2093(4) 0.59201(9)
C113 C 0.2764(2) 0.2082(7) 0.57038(11)
H79 H 0.3158 0.2325 0.5748
C114 C 0.2498(2) 0.1721(7) 0.54146(11)
H80 H 0.2728 0.1706 0.5274
C115 C 0.35361(15) 0.3451(3) 0.71625(8)
C116 C 0.1634(2) 0.1037(4) 0.50021(9)
N14 N 0.41534(12) 0.5732(2) 0.77732(6)
C60 C 0.46997(17) 0.9964(3) 0.78946(10)
H42 H 0.5063 0.9595 0.7959
C61 C 0.41715(16) 0.9355(3) 0.77985(8)
C62 C 0.36462(17) 0.9981(3) 0.76984(10)
H43 H 0.3285 0.9608 0.7630
C64 C 0.36802(16) 0.6328(3) 0.78101(9)
H45 H 0.3345 0.5931 0.7829
C65 C 0.36674(16) 0.7489(3) 0.78210(9)
H46 H 0.3330 0.7862 0.7846
C66 C 0.41682(14) 0.8108(3) 0.77939(8)
C67 C 0.46570(16) 0.7493(3) 0.77555(9)
H47 H 0.4998 0.7866 0.7736
C68 C 0.46289(16) 0.6336(3) 0.77472(9)
H48 H 0.4960 0.5941 0.7722
C93 C 0.0814(3) 0.8218(4) 0.41563(12)
H65 H 0.0652 0.8621 0.3979
C94 C 0.0819(3) 0.7041(4) 0.41382(13)
H66 H 0.0675 0.6678 0.3953
C95 C 0.1037(2) 0.6425(4) 0.43972(11)
C96 C 0.1285(2) 0.7035(4) 0.46484(13)
H67 H 0.1474 0.6657 0.4826
C97 C 0.1264(2) 0.8194(4) 0.46495(11)
H68 H 0.1428 0.8574 0.4830
C98 C 0.1407(5) 0.3402(5) 0.4563(2)
H69 H 0.1710 0.3017 0.4699
C99 C 0.1444(5) 0.4575(6) 0.4563(2)
H70 H 0.1773 0.4924 0.4689
C100 C 0.1050(2) 0.5182(4) 0.43975(10)
C101 C 0.0666(6) 0.4576(6) 0.41920(17)
H71 H 0.0395 0.4950 0.4037
C102 C 0.0656(5) 0.3399(5) 0.42006(18)
H72 H 0.0374 0.3025 0.4051
O9_2 O 0.50121(12) 0.6059(3) 0.17215(7)
O10_2 O 0.48190(11) 0.6205(3) 0.21673(6)
O11_2 O 0.00700(12) 0.5872(3) 0.06453(7)
C69_2 C 0.40034(15) 0.5936(3) 0.17411(8)
C70_2 C 0.37842(18) 0.5857(5) 0.14282(10)
H49_2 H 0.4044 0.5852 0.1302
C71_2 C 0.31776(18) 0.5786(5) 0.13062(10)
H50_2 H 0.3038 0.5709 0.1097
C72_2 C 0.27680(17) 0.5823(4) 0.14807(9)
C73_2 C 0.29968(18) 0.5909(5) 0.17855(10)
H51_2 H 0.2735 0.5917 0.1910
C74_2 C 0.36028(17) 0.5986(5) 0.19201(10)
H52_2 H 0.3738 0.6070 0.2129
C75_2 C 0.08917(17) 0.5795(4) 0.10711(9)
C76_2 C 0.11169(19) 0.5548(6) 0.13699(12)
H53_2 H 0.0856 0.5390 0.1490
C77_2 C 0.1713(2) 0.5524(7) 0.14982(12)
H54_2 H 0.1847 0.5314 0.1701
C78_2 C 0.21158(17) 0.5797(4) 0.13407(10)
C79_2 C 0.1890(2) 0.6118(7) 0.10450(12)
H55_2 H 0.2150 0.6322 0.0928
C80_2 C 0.1293(2) 0.6144(7) 0.09183(13)
H56_2 H 0.1155 0.6410 0.0721
C81_2 C 0.46546(17) 0.6073(3) 0.18852(9)
C82_2 C 0.02230(18) 0.5763(4) 0.09285(10)
Cd8 Cd 0.582852(10) 0.62579(2) 0.223319(5)
N14_2 N 0.58466(12) 0.0732(2) 0.72268(6)
N11 N 0.89778(15) 0.3794(3) 0.05944(8)
C93_2 C 0.9186(3) 0.3218(4) 0.08437(12)
H65_2 H 0.9348 0.3621 0.1021
C94_2 C 0.9181(3) 0.2041(4) 0.08618(13)
H66_2 H 0.9325 0.1678 0.1047
C95_2 C 0.8963(2) 0.1425(4) 0.06028(11)
C96_2 C 0.8715(2) 0.2035(4) 0.03516(13)
H67_2 H 0.8526 0.1657 0.0174
C97_2 C 0.8736(2) 0.3194(4) 0.03505(11)
H68_2 H 0.8572 0.3574 0.0170
C100_2 C 0.8950(2) 0.0182(4) 0.06025(10)
O15 O 0.89072(13) 0.5891(3) 0.00702(6)
O16 O 0.80557(14) 0.5929(3) 0.01829(6)
Cd10 Cd 0.904248(11) 0.57879(2) 0.059660(6)
N7_2 N 0.58302(13) 0.6731(2) 0.72084(7)
C59_2 C 0.53319(17) 0.6131(3) 0.71089(11)
H41_2 H 0.4980 0.6530 0.7036
C60_2 C 0.53003(17) 0.4964(3) 0.71054(10)
H42_2 H 0.4937 0.4595 0.7041
C61_2 C 0.58285(16) 0.4355(3) 0.72015(8)
C62_2 C 0.63538(17) 0.4981(3) 0.73016(10)
H43_2 H 0.6715 0.4608 0.7370
C63_2 C 0.63376(18) 0.6137(3) 0.72984(10)
H44_2 H 0.6694 0.6532 0.7361
C64_2 C 0.63198(16) 0.1328(3) 0.71899(9)
H45_2 H 0.6655 0.0931 0.7171
C65_2 C 0.63326(16) 0.2489(3) 0.71790(9)
H46_2 H 0.6670 0.2862 0.7154
C66_2 C 0.58318(14) 0.3108(3) 0.72061(8)
C67_2 C 0.53430(16) 0.2493(3) 0.72445(9)
H47_2 H 0.5002 0.2866 0.7264
C68_2 C 0.53711(16) 0.1336(3) 0.72528(9)
H48_2 H 0.5040 0.0941 0.7278
Cd3 Cd 0.582852(10) 0.87421(2) 0.723319(5)
O13_2 O 0.67794(11) 0.8475(2) 0.76524(5)
O14_2 O 0.59123(11) 0.8663(3) 0.77558(6)
C103_2 C 0.67327(15) 0.8121(3) 0.81621(7)
C104_2 C 0.73449(16) 0.8120(4) 0.82810(8)
H73_2 H 0.7590 0.8337 0.8158
C105_2 C 0.75957(17) 0.7808(4) 0.85749(8)
H74_2 H 0.8007 0.7818 0.8647
C106_2 C 0.72495(17) 0.7479(4) 0.87665(9)
C107_2 C 0.66318(19) 0.7489(5) 0.86467(10)
H75_2 H 0.6385 0.7265 0.8769
C108_2 C 0.63851(19) 0.7819(5) 0.83555(9)
H76_2 H 0.5973 0.7841 0.8285
C109_2 C 0.80627(18) 0.6394(4) 0.96776(9)
C110_2 C 0.8350(3) 0.6310(7) 0.94543(12)
H77_2 H 0.8742 0.6058 0.9502
C111_2 C 0.8077(3) 0.6589(7) 0.91581(13)
H78_2 H 0.8271 0.6435 0.9007
C112_2 C 0.75206(18) 0.7093(4) 0.90799(9)
C113_2 C 0.7236(2) 0.7082(7) 0.92962(11)
H79_2 H 0.6842 0.7325 0.9252
C114_2 C 0.7502(2) 0.6721(7) 0.95854(11)
H80_2 H 0.7272 0.6706 0.9726
C115_2 C 0.64639(15) 0.8451(3) 0.78375(8)
C116_2 C 0.8366(2) 0.6037(4) 0.99979(9)
O17 O 0.50121(12) 0.8941(3) 0.67215(7)
O18 O 0.48190(11) 0.8795(3) 0.71673(6)
N13 N 0.64992(12) 0.8721(3) 0.69177(6)
O12_2 O 0.98664(12) 0.5687(3) 0.10796(7)
N9_2 N 0.64992(12) 0.6279(3) 0.19177(6)
N10_2 N 0.84296(13) 0.5804(3) 0.09405(7)
C83_2 C 0.62946(17) 0.6183(4) 0.16144(9)
H57_2 H 0.5885 0.6165 0.1532
C84_2 C 0.66596(16) 0.6112(4) 0.14224(9)
H58_2 H 0.6496 0.6061 0.1214
C85_2 C 0.72720(15) 0.6115(3) 0.15344(8)
C86_2 C 0.74867(16) 0.6207(4) 0.18515(8)
H59_2 H 0.7894 0.6211 0.1940
C87_2 C 0.70923(16) 0.6288(4) 0.20269(8)
H60_2 H 0.7243 0.6355 0.2236
C88_2 C 0.78736(18) 0.6098(5) 0.08414(9)
H61_2 H 0.7730 0.6244 0.0635
C89_2 C 0.7486(2) 0.6205(5) 0.10258(10)
H62_2 H 0.7095 0.6428 0.0942
C90_2 C 0.76693(15) 0.5989(3) 0.13276(8)
C91_2 C 0.82491(18) 0.5649(5) 0.14345(10)
H63_2 H 0.8397 0.5464 0.1638
C92_2 C 0.86109(18) 0.5586(5) 0.12355(10)
H64_2 H 0.9006 0.5378 0.1313
N12 N 0.89968(16) 0.7811(3) 0.06017(8)
C98_2 C 0.8593(5) 0.8402(5) 0.0437(2)
H69_2 H 0.8290 0.8017 0.0301
C99_2 C 0.8556(5) 0.9575(6) 0.0437(2)
H70_2 H 0.8227 0.9924 0.0311
C101_2 C 0.9334(6) 0.9576(6) 0.08080(17)
H71_2 H 0.9605 0.9950 0.0963
C102_2 C 0.9344(5) 0.8399(5) 0.07994(18)
H72_2 H 0.9626 0.8025 0.0949
O7_2 O 0.00700(12) 0.9128(3) 0.56453(7)
N2 N 0.84296(13) 0.9196(3) 0.59405(7)
C15_2 C 0.40034(15) 0.9064(3) 0.67411(8)
C16_2 C 0.37842(18) 0.9143(5) 0.64282(10)
H9_2 H 0.4044 0.9148 0.6302
C17_2 C 0.31776(18) 0.9214(5) 0.63062(10)
H10_2 H 0.3038 0.9291 0.6097
C18_2 C 0.27680(17) 0.9177(4) 0.64807(9)
C19_2 C 0.29968(18) 0.9091(5) 0.67855(10)
H11_2 H 0.2735 0.9083 0.6910
C20_2 C 0.36028(17) 0.9014(5) 0.69201(10)
H12_2 H 0.3738 0.8930 0.7129
C21_2 C 0.08917(17) 0.9205(4) 0.60711(9)
C22_2 C 0.11169(19) 0.9452(6) 0.63699(12)
H13_2 H 0.0856 0.9610 0.6490
C23_2 C 0.1713(2) 0.9476(7) 0.64982(12)
H14_2 H 0.1847 0.9686 0.6701
C24_2 C 0.21158(17) 0.9203(4) 0.63407(10)
C25_2 C 0.1890(2) 0.8882(7) 0.60450(12)
H15_2 H 0.2150 0.8678 0.5928
C26_2 C 0.1293(2) 0.8856(7) 0.59183(13)
H16_2 H 0.1155 0.8590 0.5721
C27_2 C 0.46546(17) 0.8927(3) 0.68852(9)
C28_2 C 0.02230(18) 0.9237(4) 0.59285(10)
C29_2 C 0.62946(17) 0.8817(4) 0.66144(9)
H17_2 H 0.5885 0.8835 0.6532
C30_2 C 0.66596(16) 0.8888(4) 0.64224(9)
H18_2 H 0.6496 0.8939 0.6214
C31_2 C 0.72720(15) 0.8885(3) 0.65344(8)
C32_2 C 0.74867(16) 0.8793(4) 0.68515(8)
H19_2 H 0.7894 0.8789 0.6940
C33_2 C 0.70923(16) 0.8712(4) 0.70269(8)
H20_2 H 0.7243 0.8645 0.7236
C34_2 C 0.78736(18) 0.8902(5) 0.58414(9)
H21_2 H 0.7730 0.8756 0.5635
C35_2 C 0.7486(2) 0.8795(5) 0.60258(10)
H22_2 H 0.7095 0.8572 0.5942
C36_2 C 0.76693(15) 0.9011(3) 0.63276(8)
C37_2 C 0.82491(18) 0.9351(5) 0.64345(10)
H23_2 H 0.8397 0.9536 0.6638
C38_2 C 0.86109(18) 0.9414(5) 0.62355(10)
H24_2 H 0.9006 0.9622 0.6313
Cd5 Cd 0.904248(11) 0.92121(2) 0.559660(6)
N16_2 N 0.89778(15) 0.1206(3) 0.55944(8)
O8_2 O 0.98664(12) 0.9313(3) 0.60796(7)
O19_2 O 0.89072(13) 0.9109(3) 0.50702(6)
O20_2 O 0.80557(14) 0.9071(3) 0.51829(6)
N17_2 N 0.89968(16) 0.7189(3) 0.56017(8)
N4_2 N 0.58466(12) 0.4268(2) 0.22268(6)
C40_2 C 0.53003(17) 0.0036(3) 0.21054(10)
H26_2 H 0.4937 0.0405 0.2041
C41_2 C 0.58285(16) 0.0645(3) 0.22015(8)
C42_2 C 0.63538(17) 0.0019(3) 0.23016(10)
H27_2 H 0.6715 0.0392 0.2370
C44_2 C 0.63198(16) 0.3672(3) 0.21899(9)
H29_2 H 0.6655 0.4069 0.2171
C45_2 C 0.63326(16) 0.2511(3) 0.21790(9)
H30_2 H 0.6670 0.2138 0.2154
C46_2 C 0.58318(14) 0.1892(3) 0.22061(8)
C47_2 C 0.53430(16) 0.2507(3) 0.22445(9)
H31_2 H 0.5002 0.2134 0.2264
C48_2 C 0.53711(16) 0.3664(3) 0.22528(9)
H32_2 H 0.5040 0.4059 0.2278
C49_2 C 0.9186(3) 0.1782(4) 0.58437(12)
H33_2 H 0.9348 0.1379 0.6021
C50_2 C 0.9181(3) 0.2959(4) 0.58618(13)
H34_2 H 0.9325 0.3322 0.6047
C51_2 C 0.8963(2) 0.3575(4) 0.56028(11)
C52_2 C 0.8715(2) 0.2965(4) 0.53516(13)
H35_2 H 0.8526 0.3343 0.5174
C53_2 C 0.8736(2) 0.1806(4) 0.53505(11)
H36_2 H 0.8572 0.1426 0.5170
C54_2 C 0.8593(5) 0.6598(5) 0.5437(2)
H37_2 H 0.8290 0.6983 0.5301
C55_2 C 0.8556(5) 0.5425(6) 0.5437(2)
H38_2 H 0.8227 0.5076 0.5311
C56_2 C 0.8950(2) 0.4818(4) 0.56025(10)
C57_2 C 0.9334(6) 0.5424(6) 0.58080(17)
H39_2 H 0.9605 0.5050 0.5963
C58_2 C 0.9344(5) 0.6601(5) 0.57994(18)
H40_2 H 0.9626 0.6975 0.5949
O1_2 O 0.67794(11) 0.6525(2) 0.26524(5)
O2_2 O 0.59123(11) 0.6337(3) 0.27558(6)
N3_2 N 0.58302(13) 0.8269(2) 0.22084(7)
C1_2 C 0.67327(15) 0.6879(3) 0.31621(7)
C2_2 C 0.73449(16) 0.6880(4) 0.32810(8)
H1_2 H 0.7590 0.6663 0.3158
C3_2 C 0.75957(17) 0.7192(4) 0.35749(8)
H2_2 H 0.8007 0.7182 0.3647
C4_2 C 0.72495(17) 0.7521(4) 0.37665(9)
C5_2 C 0.66318(19) 0.7511(5) 0.36467(10)
H3_2 H 0.6385 0.7735 0.3769
C6_2 C 0.63851(19) 0.7181(5) 0.33555(9)
H4_2 H 0.5973 0.7159 0.3285
C7_2 C 0.80627(18) 0.8606(4) 0.46776(9)
C8_2 C 0.8350(3) 0.8690(7) 0.44543(12)
H5_2 H 0.8742 0.8942 0.4502
C9_2 C 0.8077(3) 0.8411(7) 0.41581(13)
H6_2 H 0.8271 0.8565 0.4007
C10_2 C 0.75206(18) 0.7907(4) 0.40799(9)
C11_2 C 0.7236(2) 0.7918(7) 0.42962(11)
H7_2 H 0.6842 0.7675 0.4252
C12_2 C 0.7502(2) 0.8279(7) 0.45854(11)
H8_2 H 0.7272 0.8294 0.4726
C13_2 C 0.64639(15) 0.6549(3) 0.28375(8)
C14_2 C 0.8366(2) 0.8963(4) 0.49979(9)
C39_2 C 0.53319(17) 0.8869(3) 0.21089(11)
H25_2 H 0.4980 0.8470 0.2036
C43_2 C 0.63376(18) 0.8863(3) 0.22984(10)
H28_2 H 0.6694 0.8468 0.2361
O27 O 0.46433(12) 0.4245(3) 0.37687(7)
O28 O 0.44867(12) 0.4073(3) 0.42194(7)
C131 C 0.05322(17) 0.4033(4) 0.31352(11)
C132 C 0.0887(2) 0.4708(6) 0.30063(12)
H89 H 0.0726 0.5074 0.2823
C133 C 0.1496(2) 0.4844(6) 0.31516(12)
H90 H 0.1728 0.5333 0.3070
C134 C 0.17490(18) 0.4257(4) 0.34138(10)
C135 C 0.1392(2) 0.3547(6) 0.35282(14)
H91 H 0.1559 0.3111 0.3699
C136 C 0.0789(2) 0.3465(6) 0.33955(16)
H92 H 0.0554 0.3012 0.3486
C137 C 0.36359(17) 0.4243(4) 0.38012(10)
C138 C 0.34221(18) 0.4382(5) 0.34936(10)
H93 H 0.3682 0.4451 0.3369
C139 C 0.27974(18) 0.4418(5) 0.33685(11)
H94 H 0.2650 0.4535 0.3161
C140 C 0.24126(17) 0.4284(4) 0.35454(10)
C141 C 0.26499(18) 0.4146(4) 0.38576(10)
H95 H 0.2393 0.4073 0.3984
C142 C 0.32491(18) 0.4114(4) 0.39812(10)
H96 H 0.3395 0.4005 0.4189
C144 C 0.42978(16) 0.4174(3) 0.39335(10)
Cd14 Cd 0.548160(11) 0.41196(2) 0.426510(6)
O39 O 0.63958(15) 0.3994(3) 0.46828(6)
O40 O 0.55405(15) 0.3933(3) 0.47893(7)
N32 N 0.61206(13) 0.4163(3) 0.39350(7)
N33 N 0.54889(14) 0.6127(3) 0.42571(8)
N34 N 0.55229(13) 0.2114(3) 0.42295(7)
N21 N 0.87315(15) 0.1677(3) 0.26956(8)
C160 C 0.9218(2) 0.1083(4) 0.27901(12)
H109 H 0.9572 0.1474 0.2863
C164 C 0.8225(2) 0.1082(4) 0.26062(11)
H112 H 0.7869 0.1479 0.2547
Cd16 Cd 0.872223(11) 0.36784(2) 0.263794(6)
Cd20 Cd 0.548160(11) 0.08804(2) 0.926510(6)
O21 O 0.86306(12) 0.3398(3) 0.21200(7)
O22 O 0.77557(13) 0.3459(3) 0.22256(6)
O25 O 0.97417(12) 0.3850(3) 0.26979(7)
O26 O 0.95086(13) 0.3777(4) 0.31228(8)
N18 N 0.80689(13) 0.3707(3) 0.29660(7)
N20 N 0.86973(13) 0.5691(3) 0.26247(7)
C117 C 0.77779(18) 0.3009(4) 0.17185(9)
C118 C 0.81053(19) 0.2592(4) 0.15255(10)
H81 H 0.8514 0.2497 0.1596
C119 C 0.7822(2) 0.2316(5) 0.12253(10)
H82 H 0.8046 0.2048 0.1097
C120 C 0.72139(18) 0.2435(4) 0.11173(8)
C121 C 0.68948(19) 0.2859(4) 0.13063(9)
H83 H 0.6487 0.2965 0.1235
C122 C 0.71729(18) 0.3132(4) 0.16038(9)
H84 H 0.6945 0.3406 0.1730
C123 C 0.6370(2) 0.1478(4) 0.01923(9)
C124 C 0.6950(2) 0.1898(5) 0.02674(10)
H85 H 0.7158 0.1970 0.0118
C125 C 0.7218(2) 0.2208(5) 0.05665(9)
H86 H 0.7606 0.2480 0.0614
C126 C 0.6922(2) 0.2123(4) 0.07932(9)
C127 C 0.63436(19) 0.1713(4) 0.07116(9)
H87 H 0.6131 0.1662 0.0860
C128 C 0.6069(2) 0.1374(4) 0.04158(10)
H88 H 0.5685 0.1080 0.0370
C129 C 0.80710(19) 0.3307(3) 0.20409(8)
C143 C 0.98737(18) 0.3897(4) 0.29851(11)
C145 C 0.74826(17) 0.3827(4) 0.28545(9)
H97 H 0.7331 0.3862 0.2645
C146 C 0.70989(17) 0.3901(4) 0.30354(9)
H98 H 0.6692 0.3947 0.2947
C147 C 0.73052(16) 0.3909(3) 0.33516(8)
C148 C 0.79043(19) 0.3792(5) 0.34608(10)
H99 H 0.8069 0.3788 0.3670
C149 C 0.82702(17) 0.3681(5) 0.32652(10)
H100 H 0.8676 0.3583 0.3347
C150 C 0.59306(17) 0.3939(4) 0.36474(10)
H101 H 0.5525 0.3819 0.3570
C151 C 0.62878(17) 0.3870(5) 0.34504(10)
H102 H 0.6120 0.3717 0.3246
C152 C 0.68887(16) 0.4022(3) 0.35510(8)
C153 C 0.70897(18) 0.4283(5) 0.38530(10)
H103 H 0.7493 0.4420 0.3934
C154 C 0.66997(19) 0.4346(6) 0.40387(10)
H104 H 0.6849 0.4523 0.4243
C155 C 0.9144(2) 0.6302(4) 0.25671(12)
H105 H 0.9450 0.5922 0.2510
C156 C 0.91700(19) 0.7465(4) 0.25879(12)
H106 H 0.9494 0.7855 0.2553
C157 C 0.87083(16) 0.8046(3) 0.26621(10)
C158 C 0.82525(18) 0.7427(3) 0.27156(10)
H107 H 0.7936 0.7790 0.2767
C159 C 0.82572(17) 0.6267(4) 0.26938(10)
H108 H 0.7937 0.5865 0.2729
C161 C 0.9242(2) 0.9921(4) 0.27886(13)
H110 H 0.9603 0.9547 0.2858
C162 C 0.87187(18) 0.9312(4) 0.26809(10)
C163 C 0.82043(17) 0.9929(3) 0.25970(11)
H111 H 0.7840 0.9561 0.2534
O23 O 0.63958(15) 0.1006(3) 0.96828(6)
O24 O 0.55405(15) 0.1067(3) 0.97893(7)
C130 C 0.6093(2) 0.1170(4) 0.98670(9)
O31 O 0.46433(12) 0.0755(3) 0.87687(7)
O32 O 0.44867(12) 0.0927(3) 0.92194(7)
C185 C 0.05322(17) 0.0967(4) 0.81352(11)
C186 C 0.0887(2) 0.0292(6) 0.80063(12)
C187 C 0.1496(2) 0.0156(6) 0.81516(12)
C188 C 0.17490(18) 0.0743(4) 0.84138(10)
C189 C 0.1392(2) 0.1453(6) 0.85282(14)
H131 H 0.1559 0.1889 0.8699
C190 C 0.0789(2) 0.1535(6) 0.83955(16)
H132 H 0.0554 0.1988 0.8486
C191 C 0.36359(17) 0.0757(4) 0.88012(10)
C192 C 0.34221(18) 0.0618(5) 0.84936(10)
H133 H 0.3682 0.0549 0.8369
C193 C 0.27974(18) 0.0582(5) 0.83685(11)
H134 H 0.2650 0.0465 0.8161
C194 C 0.24126(17) 0.0716(4) 0.85454(10)
C195 C 0.26499(18) 0.0854(4) 0.88576(10)
H135 H 0.2393 0.0927 0.8984
C196 C 0.32491(18) 0.0886(4) 0.89812(10)
H136 H 0.3395 0.0995 0.9189
C198 C 0.42978(16) 0.0826(3) 0.89335(10)
N26 N 0.80689(13) 0.1293(3) 0.79660(7)
N27 N 0.61206(13) 0.0837(3) 0.89350(7)
C199 C 0.74826(17) 0.1173(4) 0.78545(9)
H137 H 0.7331 0.1138 0.7645
C200 C 0.70989(17) 0.1099(4) 0.80354(9)
H138 H 0.6692 0.1053 0.7947
C201 C 0.73052(16) 0.1091(3) 0.83516(8)
C202 C 0.79043(19) 0.1208(5) 0.84608(10)
H139 H 0.8069 0.1212 0.8670
C203 C 0.82702(17) 0.1319(5) 0.82652(10)
H140 H 0.8676 0.1417 0.8347
C204 C 0.59306(17) 0.1061(4) 0.86474(10)
H141 H 0.5525 0.1181 0.8570
C205 C 0.62878(17) 0.1130(5) 0.84504(10)
H142 H 0.6120 0.1283 0.8246
C206 C 0.68887(16) 0.0978(3) 0.85510(8)
C207 C 0.70897(18) 0.0717(5) 0.88530(10)
H143 H 0.7493 0.0580 0.8934
C208 C 0.66997(19) 0.0654(6) 0.90387(10)
H144 H 0.6849 0.0477 0.9243
N28 N 0.54889(14) 0.8873(3) 0.92571(8)
N29 N 0.55229(13) 0.2886(3) 0.92295(7)
C209 C 0.5231(2) 0.8309(4) 0.90057(10)
H145 H 0.5035 0.8713 0.8834
C210 C 0.5247(2) 0.7152(4) 0.89912(10)
H146 H 0.5081 0.6794 0.8807
C211 C 0.54967(16) 0.6510(3) 0.92384(9)
C212 C 0.5767(2) 0.7094(4) 0.94983(10)
H147 H 0.5961 0.6702 0.9672
C213 C 0.5749(2) 0.8283(4) 0.95003(10)
H148 H 0.5926 0.8666 0.9679
C214 C 0.5983(2) 0.3479(4) 0.93922(12)
H149 H 0.6314 0.3090 0.9504
C215 C 0.5987(2) 0.4637(4) 0.94017(11)
H150 H 0.6313 0.5014 0.9523
C216 C 0.55103(17) 0.5253(3) 0.92327(9)
C217 C 0.5063(2) 0.4641(4) 0.90512(11)
H151 H 0.4743 0.5011 0.8923
C218 C 0.5082(2) 0.3485(4) 0.90566(10)
H152 H 0.4766 0.3093 0.8932
Cd19 Cd 0.872223(11) 0.13216(2) 0.763794(6)
H129 H 0.0726 0.9926 0.7823
H130 H 0.1728 0.9667 0.8070
O29 O 0.97417(12) 0.1150(3) 0.76979(7)
O30 O 0.95086(13) 0.1223(4) 0.81228(8)
C197 C 0.98737(18) 0.1103(4) 0.79851(11)
C170 C 0.5983(2) 0.1521(4) 0.43922(12)
H117 H 0.6314 0.1910 0.4504
C171 C 0.5987(2) 0.0363(4) 0.44017(11)
C173 C 0.5063(2) 0.0359(4) 0.40512(11)
C174 C 0.5082(2) 0.1515(4) 0.40566(10)
H120 H 0.4766 0.1907 0.3932
O33 O 0.86306(12) 0.1602(3) 0.71200(7)
O34 O 0.77557(13) 0.1541(3) 0.72256(6)
C219 C 0.77779(18) 0.1991(4) 0.67185(9)
C220 C 0.81053(19) 0.2408(4) 0.65255(10)
H153 H 0.8514 0.2503 0.6596
C221 C 0.7822(2) 0.2684(5) 0.62253(10)
H154 H 0.8046 0.2952 0.6097
C222 C 0.72139(18) 0.2565(4) 0.61173(8)
C223 C 0.68948(19) 0.2141(4) 0.63063(9)
H155 H 0.6487 0.2035 0.6235
C224 C 0.71729(18) 0.1868(4) 0.66038(9)
H156 H 0.6945 0.1594 0.6730
C225 C 0.6370(2) 0.3522(4) 0.51923(9)
C226 C 0.6950(2) 0.3102(5) 0.52674(10)
H157 H 0.7158 0.3030 0.5118
C227 C 0.7218(2) 0.2792(5) 0.55665(9)
H158 H 0.7606 0.2520 0.5614
C228 C 0.6922(2) 0.2877(4) 0.57932(9)
C229 C 0.63436(19) 0.3287(4) 0.57116(9)
H159 H 0.6131 0.3338 0.5860
C230 C 0.6069(2) 0.3626(4) 0.54158(10)
H160 H 0.5685 0.3920 0.5370
C231 C 0.80710(19) 0.1693(3) 0.70409(8)
C232 C 0.6093(2) 0.3830(4) 0.48670(9)
N31 N 0.87315(15) 0.3323(3) 0.76956(8)
C165 C 0.5231(2) 0.6691(4) 0.40057(10)
H113 H 0.5035 0.6287 0.3834
C166 C 0.5247(2) 0.7848(4) 0.39912(10)
H114 H 0.5081 0.8206 0.3807
C167 C 0.54967(16) 0.8490(3) 0.42384(9)
C168 C 0.5767(2) 0.7906(4) 0.44983(10)
H115 H 0.5961 0.8298 0.4672
C169 C 0.5749(2) 0.6717(4) 0.45003(10)
H116 H 0.5926 0.6334 0.4679
H118 H 0.6313 0.9986 0.4523
C172 C 0.55103(17) 0.9747(3) 0.42327(9)
H119 H 0.4743 0.9989 0.3923
N24 N 0.86973(13) 0.9309(3) 0.76247(7)
C175 C 0.9144(2) 0.8698(4) 0.75671(12)
H121 H 0.9450 0.9078 0.7510
C176 C 0.91700(19) 0.7535(4) 0.75879(12)
H122 H 0.9494 0.7145 0.7553
C177 C 0.87083(16) 0.6954(3) 0.76621(10)
C178 C 0.82525(18) 0.7573(3) 0.77156(10)
H123 H 0.7936 0.7210 0.7767
C179 C 0.82572(17) 0.8733(4) 0.76938(10)
H124 H 0.7937 0.9135 0.7729
C180 C 0.9218(2) 0.3917(4) 0.77901(12)
H125 H 0.9572 0.3526 0.7863
C181 C 0.9242(2) 0.5079(4) 0.77886(13)
H126 H 0.9603 0.5453 0.7858
C182 C 0.87187(18) 0.5688(4) 0.76809(10)
C183 C 0.82043(17) 0.5071(3) 0.75970(11)
H127 H 0.7840 0.5439 0.7534
C184 C 0.8225(2) 0.3918(4) 0.76062(11)
H128 H 0.7869 0.3521 0.7547
O29_2 O 0.02583(12) 0.8850(3) 0.23021(7)
O30_2 O 0.04914(13) 0.8777(4) 0.18772(8)
C197_2 C 0.01263(18) 0.8897(4) 0.20149(11)
Cd18 Cd 0.127777(11) 0.86784(2) 0.236206(6)
N22 N 0.45111(14) 0.1127(3) 0.07429(8)
N23 N 0.44771(13) 0.7114(3) 0.07705(7)
C165_2 C 0.4769(2) 0.1691(4) 0.09943(10)
H113_2 H 0.4965 0.1287 0.1166
C166_2 C 0.4753(2) 0.2848(4) 0.10088(10)
H114_2 H 0.4919 0.3206 0.1193
C167_2 C 0.45033(16) 0.3490(3) 0.07616(9)
C168_2 C 0.4233(2) 0.2906(4) 0.05017(10)
H115_2 H 0.4039 0.3298 0.0328
C169_2 C 0.4251(2) 0.1717(4) 0.04997(10)
H116_2 H 0.4074 0.1334 0.0321
C170_2 C 0.4017(2) 0.6521(4) 0.06078(12)
H117_2 H 0.3686 0.6910 0.0496
C171_2 C 0.4013(2) 0.5363(4) 0.05983(11)
H118_2 H 0.3687 0.4986 0.0477
C172_2 C 0.44897(17) 0.4747(3) 0.07673(9)
C173_2 C 0.4937(2) 0.5359(4) 0.09488(11)
H119_2 H 0.5257 0.4989 0.1077
C174_2 C 0.4918(2) 0.6515(4) 0.09434(10)
H120_2 H 0.5234 0.6907 0.1068
H129_2 H 0.9274 0.0074 0.2177
H130_2 H 0.8272 0.0333 0.1930
O35 O 0.36042(15) 0.8994(3) 0.03172(6)
O36 O 0.44595(15) 0.8933(3) 0.02107(7)
C232_2 C 0.3907(2) 0.8830(4) 0.01330(9)
Cd17 Cd 0.451840(11) 0.91196(2) 0.073490(6)
N24_2 N 0.13027(13) 0.4309(3) 0.73753(7)
C175_2 C 0.0856(2) 0.3698(4) 0.74329(12)
H121_2 H 0.0550 0.4078 0.7490
C176_2 C 0.08300(19) 0.2535(4) 0.74121(12)
H122_2 H 0.0506 0.2145 0.7447
C177_2 C 0.12917(16) 0.1954(3) 0.73379(10)
C178_2 C 0.17475(18) 0.2573(3) 0.72844(10)
H123_2 H 0.2064 0.2210 0.7233
C179_2 C 0.17428(17) 0.3733(4) 0.73062(10)
H124_2 H 0.2063 0.4135 0.7271
C181_2 C 0.0758(2) 0.0079(4) 0.72114(13)
H126_2 H 0.0397 0.0453 0.7142
C182_2 C 0.12813(18) 0.0688(4) 0.73191(10)
C183_2 C 0.17957(17) 0.0071(3) 0.74030(11)
H127_2 H 0.2160 0.0439 0.7466
Cd13 Cd 0.127777(11) 0.63216(2) 0.736206(6)
O33_2 O 0.13694(12) 0.6602(3) 0.78800(7)
O34_2 O 0.22443(13) 0.6541(3) 0.77744(6)
C219_2 C 0.22221(18) 0.6991(4) 0.82815(9)
C220_2 C 0.18947(19) 0.7408(4) 0.84745(10)
H153_2 H 0.1486 0.7503 0.8404
C221_2 C 0.2178(2) 0.7684(5) 0.87747(10)
H154_2 H 0.1954 0.7952 0.8903
C222_2 C 0.27861(18) 0.7565(4) 0.88827(8)
C223_2 C 0.31052(19) 0.7141(4) 0.86937(9)
H155_2 H 0.3513 0.7035 0.8765
C224_2 C 0.28271(18) 0.6868(4) 0.83962(9)
H156_2 H 0.3055 0.6594 0.8270
C225_2 C 0.3630(2) 0.8522(4) 0.98077(9)
C226_2 C 0.3050(2) 0.8102(5) 0.97326(10)
H157_2 H 0.2842 0.8030 0.9882
C227_2 C 0.2782(2) 0.7792(5) 0.94335(9)
H158_2 H 0.2394 0.7520 0.9386
C228_2 C 0.3078(2) 0.7877(4) 0.92068(9)
C229_2 C 0.36564(19) 0.8287(4) 0.92884(9)
H159_2 H 0.3869 0.8338 0.9140
C230_2 C 0.3931(2) 0.8626(4) 0.95842(10)
H160_2 H 0.4315 0.8920 0.9630
C231_2 C 0.19290(19) 0.6693(3) 0.79591(8)
O37 O 0.02583(12) 0.6150(3) 0.73021(7)
O38 O 0.04914(13) 0.6223(4) 0.68772(8)
N30 N 0.19311(13) 0.6293(3) 0.70340(7)
N31_2 N 0.12685(15) 0.8323(3) 0.73044(8)
O31_2 O 0.53567(12) 0.9245(3) 0.12313(7)
O32_2 O 0.55133(12) 0.9073(3) 0.07806(7)
C185_2 C 0.94678(17) 0.9033(4) 0.18648(11)
C186_2 C 0.9113(2) 0.9708(6) 0.19937(12)
C187_2 C 0.8504(2) 0.9844(6) 0.18484(12)
C188_2 C 0.82510(18) 0.9257(4) 0.15862(10)
C189_2 C 0.8608(2) 0.8547(6) 0.14718(14)
H131_2 H 0.8441 0.8111 0.1301
C190_2 C 0.9211(2) 0.8465(6) 0.16045(16)
H132_2 H 0.9446 0.8012 0.1514
C191_2 C 0.63641(17) 0.9243(4) 0.11988(10)
C192_2 C 0.65779(18) 0.9382(5) 0.15064(10)
H133_2 H 0.6318 0.9451 0.1631
C193_2 C 0.72026(18) 0.9418(5) 0.16315(11)
H134_2 H 0.7350 0.9535 0.1839
C194_2 C 0.75874(17) 0.9284(4) 0.14546(10)
C195_2 C 0.73501(18) 0.9146(4) 0.11424(10)
H135_2 H 0.7607 0.9073 0.1016
C196_2 C 0.67509(18) 0.9114(4) 0.10188(10)
H136_2 H 0.6605 0.9005 0.0811
C198_2 C 0.57022(16) 0.9174(3) 0.10665(10)
N26_2 N 0.19311(13) 0.8707(3) 0.20340(7)
N27_2 N 0.38794(13) 0.9163(3) 0.10650(7)
C199_2 C 0.25174(17) 0.8827(4) 0.21455(9)
H137_2 H 0.2669 0.8862 0.2355
C200_2 C 0.29011(17) 0.8901(4) 0.19646(9)
H138_2 H 0.3308 0.8947 0.2053
C201_2 C 0.26948(16) 0.8909(3) 0.16484(8)
C202_2 C 0.20957(19) 0.8792(5) 0.15392(10)
H139_2 H 0.1931 0.8788 0.1330
C203_2 C 0.17298(17) 0.8681(5) 0.17348(10)
H140_2 H 0.1324 0.8583 0.1653
C204_2 C 0.40694(17) 0.8939(4) 0.13526(10)
H141_2 H 0.4475 0.8819 0.1430
C205_2 C 0.37122(17) 0.8870(5) 0.15496(10)
H142_2 H 0.3880 0.8717 0.1754
C206_2 C 0.31113(16) 0.9022(3) 0.14490(8)
C207_2 C 0.29103(18) 0.9283(5) 0.11470(10)
H143_2 H 0.2507 0.9420 0.1066
C208_2 C 0.33003(19) 0.9346(6) 0.09613(10)
H144_2 H 0.3151 0.9523 0.0757
N19 N 0.38794(13) 0.5837(3) 0.60650(7)
C143_2 C 0.01263(18) 0.6103(4) 0.70149(11)
C145_2 C 0.25174(17) 0.6173(4) 0.71455(9)
H97_2 H 0.2669 0.6138 0.7355
C146_2 C 0.29011(17) 0.6099(4) 0.69646(9)
H98_2 H 0.3308 0.6053 0.7053
C147_2 C 0.26948(16) 0.6091(3) 0.66484(8)
C148_2 C 0.20957(19) 0.6208(5) 0.65392(10)
H99_2 H 0.1931 0.6212 0.6330
C149_2 C 0.17298(17) 0.6319(5) 0.67348(10)
H100_2 H 0.1324 0.6417 0.6653
C150_2 C 0.40694(17) 0.6061(4) 0.63526(10)
H101_2 H 0.4475 0.6181 0.6430
C151_2 C 0.37122(17) 0.6130(5) 0.65496(10)
H102_2 H 0.3880 0.6283 0.6754
C152_2 C 0.31113(16) 0.5978(3) 0.64490(8)
C153_2 C 0.29103(18) 0.5717(5) 0.61470(10)
H103_2 H 0.2507 0.5580 0.6066
C154_2 C 0.33003(19) 0.5654(6) 0.59613(10)
H104_2 H 0.3151 0.5477 0.5757
C180_2 C 0.0782(2) 0.8917(4) 0.72099(12)
H125_2 H 0.0428 0.8526 0.7137
C184_2 C 0.1775(2) 0.8918(4) 0.73938(11)
H128_2 H 0.2131 0.8521 0.7453
Cd15 Cd 0.451840(11) 0.58804(2) 0.573490(6)
O27_2 O 0.53567(12) 0.5755(3) 0.62313(7)
O28_2 O 0.55133(12) 0.5927(3) 0.57806(7)
C131_2 C 0.94678(17) 0.5967(4) 0.68648(11)
C132_2 C 0.9113(2) 0.5292(6) 0.69937(12)
H89_2 H 0.9274 0.4926 0.7177
C133_2 C 0.8504(2) 0.5156(6) 0.68484(12)
H90_2 H 0.8272 0.4667 0.6930
C134_2 C 0.82510(18) 0.5743(4) 0.65862(10)
C135_2 C 0.8608(2) 0.6453(6) 0.64718(14)
H91_2 H 0.8441 0.6889 0.6301
C136_2 C 0.9211(2) 0.6535(6) 0.66045(16)
H92_2 H 0.9446 0.6988 0.6514
C137_2 C 0.63641(17) 0.5757(4) 0.61988(10)
C138_2 C 0.65779(18) 0.5618(5) 0.65064(10)
H93_2 H 0.6318 0.5549 0.6631
C139_2 C 0.72026(18) 0.5582(5) 0.66315(11)
H94_2 H 0.7350 0.5465 0.6839
C140_2 C 0.75874(17) 0.5716(4) 0.64546(10)
C141_2 C 0.73501(18) 0.5854(4) 0.61424(10)
H95_2 H 0.7607 0.5927 0.6016
C142_2 C 0.67509(18) 0.5886(4) 0.60188(10)
H96_2 H 0.6605 0.5995 0.5811
C144_2 C 0.57022(16) 0.5826(3) 0.60665(10)
O39_2 O 0.36042(15) 0.6006(3) 0.53172(6)
O40_2 O 0.44595(15) 0.6067(3) 0.52107(7)
N33_2 N 0.45111(14) 0.3873(3) 0.57429(8)
N34_2 N 0.44771(13) 0.7886(3) 0.57705(7)
N20_2 N 0.13027(13) 0.0691(3) 0.23753(7)
N21_2 N 0.12685(15) 0.6677(3) 0.23044(8)
C155_2 C 0.0856(2) 0.1302(4) 0.24329(12)
H105_2 H 0.0550 0.0922 0.2490
C156_2 C 0.08300(19) 0.2465(4) 0.24121(12)
H106_2 H 0.0506 0.2855 0.2447
C157_2 C 0.12917(16) 0.3046(3) 0.23379(10)
C158_2 C 0.17475(18) 0.2427(3) 0.22844(10)
H107_2 H 0.2064 0.2790 0.2233
C159_2 C 0.17428(17) 0.1267(4) 0.23062(10)
H108_2 H 0.2063 0.0865 0.2271
C160_2 C 0.0782(2) 0.6083(4) 0.22099(12)
H109_2 H 0.0428 0.6474 0.2137
C161_2 C 0.0758(2) 0.4921(4) 0.22114(13)
H110_2 H 0.0397 0.4547 0.2142
C162_2 C 0.12813(18) 0.4312(4) 0.23191(10)
C163_2 C 0.17957(17) 0.4929(3) 0.24030(11)
H111_2 H 0.2160 0.4561 0.2466
C164_2 C 0.1775(2) 0.6082(4) 0.23938(11)
H112_2 H 0.2131 0.6479 0.2453
C209_2 C 0.4769(2) 0.3309(4) 0.59943(10)
H145_2 H 0.4965 0.3713 0.6166
C210_2 C 0.4753(2) 0.2152(4) 0.60088(10)
H146_2 H 0.4919 0.1794 0.6193
C211_2 C 0.45033(16) 0.1510(3) 0.57616(9)
C212_2 C 0.4233(2) 0.2094(4) 0.55017(10)
H147_2 H 0.4039 0.1702 0.5328
C213_2 C 0.4251(2) 0.3283(4) 0.54997(10)
H148_2 H 0.4074 0.3666 0.5321
H150_2 H 0.3687 0.0014 0.5477
C216_2 C 0.44897(17) 0.0253(3) 0.57673(9)
H151_2 H 0.5257 0.0011 0.6077
O21_2 O 0.13694(12) 0.8398(3) 0.28800(7)
O22_2 O 0.22443(13) 0.8459(3) 0.27744(6)
C117_2 C 0.22221(18) 0.8009(4) 0.32815(9)
C118_2 C 0.18947(19) 0.7592(4) 0.34745(10)
H81_2 H 0.1486 0.7497 0.3404
C119_2 C 0.2178(2) 0.7316(5) 0.37747(10)
H82_2 H 0.1954 0.7048 0.3903
C120_2 C 0.27861(18) 0.7435(4) 0.38827(8)
C121_2 C 0.31052(19) 0.7859(4) 0.36937(9)
H83_2 H 0.3513 0.7965 0.3765
C122_2 C 0.28271(18) 0.8132(4) 0.33962(9)
H84_2 H 0.3055 0.8406 0.3270
C123_2 C 0.3630(2) 0.6478(4) 0.48077(9)
C124_2 C 0.3050(2) 0.6898(5) 0.47326(10)
H85_2 H 0.2842 0.6970 0.4882
C125_2 C 0.2782(2) 0.7208(5) 0.44335(9)
H86_2 H 0.2394 0.7480 0.4386
C126_2 C 0.3078(2) 0.7123(4) 0.42068(9)
C127_2 C 0.36564(19) 0.6713(4) 0.42884(9)
H87_2 H 0.3869 0.6662 0.4140
C128_2 C 0.3931(2) 0.6374(4) 0.45842(10)
H88_2 H 0.4315 0.6080 0.4630
C129_2 C 0.19290(19) 0.8307(3) 0.29591(8)
C130_2 C 0.3907(2) 0.6170(4) 0.51330(9)
C214_2 C 0.4017(2) 0.8479(4) 0.56078(12)
H149_2 H 0.3686 0.8090 0.5496
C215_2 C 0.4013(2) 0.9637(4) 0.55983(11)
C217_2 C 0.4937(2) 0.9641(4) 0.59488(11)
C218_2 C 0.4918(2) 0.8485(4) 0.59434(10)
H152_2 H 0.5234 0.8093 0.6068
loop_
_geom_bond_atom_site_label_1
_geom_bond_atom_site_label_2
_geom_bond_site_symmetry_1
_geom_bond_site_symmetry_2
O19 Cd4 1_555 1_555
O20 Cd4 1_555 1_555
N15 Cd4 1_555 1_555
N17 Cd4 1_555 1_555
O8 Cd4 1_555 1_555
N6 C54 1_555 1_555
C54 H37 1_555 1_555
C55 C54 1_555 1_555
H38 C55 1_555 1_555
H39 C57 1_555 1_555
C58 N6 1_555 1_555
H40 C58 1_555 1_555
Cd7 N6 1_555 1_555
C57 C58 1_555 1_555
Cd6 O1 1_555 1_555
O1 C13 1_555 1_555
O2 Cd6 1_555 1_555
O5 Cd6 1_555 1_555
O6 Cd6 1_555 1_555
O7 C28 1_555 1_555
N1 Cd6 1_555 1_555
N15 C34 1_555 1_555
N3 Cd6 1_555 1_555
N4 C44 1_555 1_555
C1 C2 1_555 1_555
C2 H1 1_555 1_555
C3 C2 1_555 1_555
H2 C3 1_555 1_555
C4 C3 1_555 1_555
C5 C4 1_555 1_555
H3 C5 1_555 1_555
C6 C1 1_555 1_555
H4 C6 1_555 1_555
C7 C8 1_555 1_555
C8 H5 1_555 1_555
C9 C8 1_555 1_555
H6 C9 1_555 1_555
C10 C4 1_555 1_555
C11 C10 1_555 1_555
H7 C11 1_555 1_555
C12 C7 1_555 1_555
H8 C12 1_555 1_555
C13 O2 1_555 1_555
C15 C16 1_555 1_555
C16 H9 1_555 1_555
C17 C16 1_555 1_555
H10 C17 1_555 1_555
C18 C17 1_555 1_555
C19 C18 1_555 1_555
H11 C19 1_555 1_555
C20 C15 1_555 1_555
H12 C20 1_555 1_555
C21 C22 1_555 1_555
C22 H13 1_555 1_555
C23 C22 1_555 1_555
H14 C23 1_555 1_555
C24 C18 1_555 1_555
C25 C24 1_555 1_555
H15 C25 1_555 1_555
C26 C21 1_555 1_555
H16 C26 1_555 1_555
C27 O5 1_555 1_555
C28 C21 1_555 1_555
C29 N1 1_555 1_555
H17 C29 1_555 1_555
C30 C29 1_555 1_555
H18 C30 1_555 1_555
C31 C30 1_555 1_555
C32 C31 1_555 1_555
H19 C32 1_555 1_555
C33 N1 1_555 1_555
H20 C33 1_555 1_555
C34 H21 1_555 1_555
C35 C34 1_555 1_555
H22 C35 1_555 1_555
C36 C31 1_555 1_555
C37 C36 1_555 1_555
H23 C37 1_555 1_555
C38 N15 1_555 1_555
H24 C38 1_555 1_555
C39 N3 1_555 1_555
H25 C39 1_555 1_555
C40 C39 1_555 1_555
H26 C40 1_555 1_555
C41 C40 1_555 1_555
C42 C41 1_555 1_555
H27 C42 1_555 1_555
C43 N3 1_555 1_555
H28 C43 1_555 1_555
C44 H29 1_555 1_555
C45 C44 1_555 1_555
H30 C45 1_555 1_555
C46 C41 1_555 1_555
C47 C46 1_555 1_555
H31 C47 1_555 1_555
C48 N4 1_555 1_555
H32 C48 1_555 1_555
O6 C27 1_555 1_555
C1 C13 1_555 1_555
C5 C6 1_555 1_555
C7 C14 1_555 1_555
C9 C10 1_555 1_555
C11 C12 1_555 1_555
C15 C27 1_555 1_555
C19 C20 1_555 1_555
C23 C24 1_555 1_555
C25 C26 1_555 1_555
C32 C33 1_555 1_555
C35 C36 1_555 1_555
C37 C38 1_555 1_555
C42 C43 1_555 1_555
C45 C46 1_555 1_555
C47 C48 1_555 1_555
Cd7 O3 1_555 1_555
O4 Cd7 1_555 1_555
N5 Cd7 1_555 1_555
C49 N5 1_555 1_555
H33 C49 1_555 1_555
C50 C49 1_555 1_555
H34 C50 1_555 1_555
C51 C50 1_555 1_555
C52 C51 1_555 1_555
H35 C52 1_555 1_555
C53 N5 1_555 1_555
H36 C53 1_555 1_555
C56 C51 1_555 1_555
O12 Cd7 1_555 1_555
N9 C83 1_555 1_555
N10 Cd7 1_555 1_555
C83 H57 1_555 1_555
C84 C83 1_555 1_555
H58 C84 1_555 1_555
C85 C84 1_555 1_555
C86 C85 1_555 1_555
H59 C86 1_555 1_555
C87 N9 1_555 1_555
H60 C87 1_555 1_555
C88 N10 1_555 1_555
H61 C88 1_555 1_555
C89 C88 1_555 1_555
H62 C89 1_555 1_555
C90 C85 1_555 1_555
C91 C90 1_555 1_555
H63 C91 1_555 1_555
C92 N10 1_555 1_555
H64 C92 1_555 1_555
Cd9 N9 1_555 1_555
C52 C53 1_555 1_555
C86 C87 1_555 1_555
C89 C90 1_555 1_555
C91 C92 1_555 1_555
O9 C81 1_555 1_555
O10 C81 1_555 1_555
C69 C70 1_555 1_555
C70 H49 1_555 1_555
C71 C70 1_555 1_555
H50 C71 1_555 1_555
C72 C71 1_555 1_555
C73 C72 1_555 1_555
H51 C73 1_555 1_555
C74 C69 1_555 1_555
H52 C74 1_555 1_555
C75 C76 1_555 1_555
C76 H53 1_555 1_555
C77 C76 1_555 1_555
H54 C77 1_555 1_555
C78 C72 1_555 1_555
C79 C78 1_555 1_555
H55 C79 1_555 1_555
C80 C75 1_555 1_555
H56 C80 1_555 1_555
C81 C69 1_555 1_555
C82 O11 1_555 1_555
Cd9 O9 1_555 1_555
O10 Cd9 1_555 1_555
C73 C74 1_555 1_555
C75 C82 1_555 1_555
C77 C78 1_555 1_555
C79 C80 1_555 1_555
N7 C59 1_555 1_555
C59 H41 1_555 1_555
C63 N7 1_555 1_555
H44 C63 1_555 1_555
Cd9 N7 1_555 1_555
O13 Cd9 1_555 1_555
O14 Cd9 1_555 1_555
O19 C116 1_555 1_555
O20 C116 1_555 1_555
C103 C104 1_555 1_555
C104 H73 1_555 1_555
C105 C104 1_555 1_555
H74 C105 1_555 1_555
C106 C105 1_555 1_555
C107 C106 1_555 1_555
H75 C107 1_555 1_555
C108 C103 1_555 1_555
H76 C108 1_555 1_555
C109 C110 1_555 1_555
C110 H77 1_555 1_555
C111 C110 1_555 1_555
H78 C111 1_555 1_555
C112 C106 1_555 1_555
C113 C112 1_555 1_555
H79 C113 1_555 1_555
C114 C109 1_555 1_555
H80 C114 1_555 1_555
C115 O13 1_555 1_555
C116 C109 1_555 1_555
N14 Cd9 1_555 1_555
O14 C115 1_555 1_555
C103 C115 1_555 1_555
C107 C108 1_555 1_555
C111 C112 1_555 1_555
C113 C114 1_555 1_555
H42 C60 1_555 1_555
C61 C60 1_555 1_555
C62 C61 1_555 1_555
H43 C62 1_555 1_555
C64 N14 1_555 1_555
H45 C64 1_555 1_555
C65 C64 1_555 1_555
H46 C65 1_555 1_555
C66 C61 1_555 1_555
C67 C66 1_555 1_555
H47 C67 1_555 1_555
C68 N14 1_555 1_555
H48 C68 1_555 1_555
N16 C93 1_555 1_555
C93 H65 1_555 1_555
C94 C93 1_555 1_555
H66 C94 1_555 1_555
C95 C94 1_555 1_555
C96 C95 1_555 1_555
H67 C96 1_555 1_555
C97 N16 1_555 1_555
H68 C97 1_555 1_555
C98 N17 1_555 1_555
H69 C98 1_555 1_555
C99 C98 1_555 1_555
H70 C99 1_555 1_555
C100 C95 1_555 1_555
C101 C100 1_555 1_555
H71 C101 1_555 1_555
C102 N17 1_555 1_555
H72 C102 1_555 1_555
C65 C66 1_555 1_555
C67 C68 1_555 1_555
C96 C97 1_555 1_555
C99 C100 1_555 1_555
C101 C102 1_555 1_555
O9_2 C81_2 1_555 1_555
O10_2 C81_2 1_555 1_555
C69_2 C70_2 1_555 1_555
C70_2 H49_2 1_555 1_555
C71_2 C70_2 1_555 1_555
H50_2 C71_2 1_555 1_555
C72_2 C71_2 1_555 1_555
C73_2 C72_2 1_555 1_555
H51_2 C73_2 1_555 1_555
C74_2 C69_2 1_555 1_555
H52_2 C74_2 1_555 1_555
C75_2 C76_2 1_555 1_555
C76_2 H53_2 1_555 1_555
C77_2 C76_2 1_555 1_555
H54_2 C77_2 1_555 1_555
C78_2 C72_2 1_555 1_555
C79_2 C78_2 1_555 1_555
H55_2 C79_2 1_555 1_555
C80_2 C75_2 1_555 1_555
H56_2 C80_2 1_555 1_555
C81_2 C69_2 1_555 1_555
C82_2 O11_2 1_555 1_555
Cd8 O9_2 1_555 1_555
O10_2 Cd8 1_555 1_555
C73_2 C74_2 1_555 1_555
C75_2 C82_2 1_555 1_555
C77_2 C78_2 1_555 1_555
C79_2 C80_2 1_555 1_555
N11 C93_2 1_555 1_555
C93_2 H65_2 1_555 1_555
C94_2 C93_2 1_555 1_555
H66_2 C94_2 1_555 1_555
C95_2 C94_2 1_555 1_555
C96_2 C95_2 1_555 1_555
H67_2 C96_2 1_555 1_555
C97_2 N11 1_555 1_555
H68_2 C97_2 1_555 1_555
C100_2 C95_2 1_555 1_555
Cd10 N11 1_555 1_555
C96_2 C97_2 1_555 1_555
O15 Cd10 1_555 1_555
O16 Cd10 1_555 1_555
N7_2 C59_2 1_555 1_555
C59_2 H41_2 1_555 1_555
C60_2 C59_2 1_555 1_555
H42_2 C60_2 1_555 1_555
C61_2 C60_2 1_555 1_555
C62_2 C61_2 1_555 1_555
H43_2 C62_2 1_555 1_555
C63_2 N7_2 1_555 1_555
H44_2 C63_2 1_555 1_555
C64_2 N14_2 1_555 1_555
H45_2 C64_2 1_555 1_555
C65_2 C64_2 1_555 1_555
H46_2 C65_2 1_555 1_555
C66_2 C61_2 1_555 1_555
C67_2 C66_2 1_555 1_555
H47_2 C67_2 1_555 1_555
C68_2 N14_2 1_555 1_555
H48_2 C68_2 1_555 1_555
Cd3 N7_2 1_555 1_555
O13_2 Cd3 1_555 1_555
O14_2 Cd3 1_555 1_555
C103_2 C104_2 1_555 1_555
C104_2 H73_2 1_555 1_555
C105_2 C104_2 1_555 1_555
H74_2 C105_2 1_555 1_555
C106_2 C105_2 1_555 1_555
C107_2 C106_2 1_555 1_555
H75_2 C107_2 1_555 1_555
C108_2 C103_2 1_555 1_555
H76_2 C108_2 1_555 1_555
C109_2 C110_2 1_555 1_555
C110_2 H77_2 1_555 1_555
C111_2 C110_2 1_555 1_555
H78_2 C111_2 1_555 1_555
C112_2 C106_2 1_555 1_555
C113_2 C112_2 1_555 1_555
H79_2 C113_2 1_555 1_555
C114_2 C109_2 1_555 1_555
H80_2 C114_2 1_555 1_555
C115_2 O13_2 1_555 1_555
C116_2 C109_2 1_555 1_555
O17 Cd3 1_555 1_555
O18 Cd3 1_555 1_555
N13 Cd3 1_555 1_555
C62_2 C63_2 1_555 1_555
C65_2 C66_2 1_555 1_555
C67_2 C68_2 1_555 1_555
O14_2 C115_2 1_555 1_555
C103_2 C115_2 1_555 1_555
C107_2 C108_2 1_555 1_555
C111_2 C112_2 1_555 1_555
C113_2 C114_2 1_555 1_555
O12_2 Cd10 1_555 1_555
N9_2 C83_2 1_555 1_555
N10_2 Cd10 1_555 1_555
C83_2 H57_2 1_555 1_555
C84_2 C83_2 1_555 1_555
H58_2 C84_2 1_555 1_555
C85_2 C84_2 1_555 1_555
C86_2 C85_2 1_555 1_555
H59_2 C86_2 1_555 1_555
C87_2 N9_2 1_555 1_555
H60_2 C87_2 1_555 1_555
C88_2 N10_2 1_555 1_555
H61_2 C88_2 1_555 1_555
C89_2 C88_2 1_555 1_555
H62_2 C89_2 1_555 1_555
C90_2 C85_2 1_555 1_555
C91_2 C90_2 1_555 1_555
H63_2 C91_2 1_555 1_555
C92_2 N10_2 1_555 1_555
H64_2 C92_2 1_555 1_555
N12 Cd10 1_555 1_555
C98_2 N12 1_555 1_555
H69_2 C98_2 1_555 1_555
C99_2 C98_2 1_555 1_555
H70_2 C99_2 1_555 1_555
H71_2 C101_2 1_555 1_555
C102_2 N12 1_555 1_555
H72_2 C102_2 1_555 1_555
Cd8 N9_2 1_555 1_555
C86_2 C87_2 1_555 1_555
C89_2 C90_2 1_555 1_555
C91_2 C92_2 1_555 1_555
C101_2 C102_2 1_555 1_555
O7_2 C28_2 1_555 1_555
N2 C34_2 1_555 1_555
C15_2 C16_2 1_555 1_555
C16_2 H9_2 1_555 1_555
C17_2 C16_2 1_555 1_555
H10_2 C17_2 1_555 1_555
C18_2 C17_2 1_555 1_555
C19_2 C18_2 1_555 1_555
H11_2 C19_2 1_555 1_555
C20_2 C15_2 1_555 1_555
H12_2 C20_2 1_555 1_555
C21_2 C22_2 1_555 1_555
C22_2 H13_2 1_555 1_555
C23_2 C22_2 1_555 1_555
H14_2 C23_2 1_555 1_555
C24_2 C18_2 1_555 1_555
C25_2 C24_2 1_555 1_555
H15_2 C25_2 1_555 1_555
C26_2 C21_2 1_555 1_555
H16_2 C26_2 1_555 1_555
C27_2 O17 1_555 1_555
C28_2 C21_2 1_555 1_555
C29_2 N13 1_555 1_555
H17_2 C29_2 1_555 1_555
C30_2 C29_2 1_555 1_555
H18_2 C30_2 1_555 1_555
C31_2 C30_2 1_555 1_555
C32_2 C31_2 1_555 1_555
H19_2 C32_2 1_555 1_555
C33_2 N13 1_555 1_555
H20_2 C33_2 1_555 1_555
C34_2 H21_2 1_555 1_555
C35_2 C34_2 1_555 1_555
H22_2 C35_2 1_555 1_555
C36_2 C31_2 1_555 1_555
C37_2 C36_2 1_555 1_555
H23_2 C37_2 1_555 1_555
C38_2 N2 1_555 1_555
H24_2 C38_2 1_555 1_555
Cd5 N2 1_555 1_555
O18 C27_2 1_555 1_555
C15_2 C27_2 1_555 1_555
C19_2 C20_2 1_555 1_555
C23_2 C24_2 1_555 1_555
C25_2 C26_2 1_555 1_555
C32_2 C33_2 1_555 1_555
C35_2 C36_2 1_555 1_555
C37_2 C38_2 1_555 1_555
O19_2 Cd5 1_555 1_555
O20_2 Cd5 1_555 1_555
N17_2 Cd5 1_555 1_555
O8_2 Cd5 1_555 1_555
N4_2 C44_2 1_555 1_555
N17_2 C54_2 1_555 1_555
H26_2 C40_2 1_555 1_555
C41_2 C40_2 1_555 1_555
C42_2 C41_2 1_555 1_555
H27_2 C42_2 1_555 1_555
C44_2 H29_2 1_555 1_555
C45_2 C44_2 1_555 1_555
H30_2 C45_2 1_555 1_555
C46_2 C41_2 1_555 1_555
C47_2 C46_2 1_555 1_555
H31_2 C47_2 1_555 1_555
C48_2 N4_2 1_555 1_555
H32_2 C48_2 1_555 1_555
C49_2 N16_2 1_555 1_555
H33_2 C49_2 1_555 1_555
C50_2 C49_2 1_555 1_555
H34_2 C50_2 1_555 1_555
C51_2 C50_2 1_555 1_555
C52_2 C51_2 1_555 1_555
H35_2 C52_2 1_555 1_555
C53_2 N16_2 1_555 1_555
H36_2 C53_2 1_555 1_555
C54_2 H37_2 1_555 1_555
C55_2 C54_2 1_555 1_555
H38_2 C55_2 1_555 1_555
C56_2 C51_2 1_555 1_555
C57_2 C56_2 1_555 1_555
H39_2 C57_2 1_555 1_555
C58_2 N17_2 1_555 1_555
H40_2 C58_2 1_555 1_555
Cd8 N4_2 1_555 1_555
C45_2 C46_2 1_555 1_555
C47_2 C48_2 1_555 1_555
C52_2 C53_2 1_555 1_555
C55_2 C56_2 1_555 1_555
C57_2 C58_2 1_555 1_555
Cd8 O1_2 1_555 1_555
O1_2 C13_2 1_555 1_555
O2_2 Cd8 1_555 1_555
O19_2 C14_2 1_555 1_555
N3_2 Cd8 1_555 1_555
C1_2 C2_2 1_555 1_555
C2_2 H1_2 1_555 1_555
C3_2 C2_2 1_555 1_555
H2_2 C3_2 1_555 1_555
C4_2 C3_2 1_555 1_555
C5_2 C4_2 1_555 1_555
H3_2 C5_2 1_555 1_555
C6_2 C1_2 1_555 1_555
H4_2 C6_2 1_555 1_555
C7_2 C8_2 1_555 1_555
C8_2 H5_2 1_555 1_555
C9_2 C8_2 1_555 1_555
H6_2 C9_2 1_555 1_555
C10_2 C4_2 1_555 1_555
C11_2 C10_2 1_555 1_555
H7_2 C11_2 1_555 1_555
C12_2 C7_2 1_555 1_555
H8_2 C12_2 1_555 1_555
C13_2 O2_2 1_555 1_555
C14_2 O20_2 1_555 1_555
C39_2 N3_2 1_555 1_555
H25_2 C39_2 1_555 1_555
C43_2 N3_2 1_555 1_555
H28_2 C43_2 1_555 1_555
C1_2 C13_2 1_555 1_555
C5_2 C6_2 1_555 1_555
C7_2 C14_2 1_555 1_555
C9_2 C10_2 1_555 1_555
C11_2 C12_2 1_555 1_555
O27 C144 1_555 1_555
O28 C144 1_555 1_555
C131 C132 1_555 1_555
C132 H89 1_555 1_555
C133 C132 1_555 1_555
H90 C133 1_555 1_555
C134 C133 1_555 1_555
C135 C134 1_555 1_555
H91 C135 1_555 1_555
C136 C131 1_555 1_555
H92 C136 1_555 1_555
C137 C138 1_555 1_555
C138 H93 1_555 1_555
C139 C138 1_555 1_555
H94 C139 1_555 1_555
C140 C134 1_555 1_555
C141 C140 1_555 1_555
H95 C141 1_555 1_555
C142 C137 1_555 1_555
H96 C142 1_555 1_555
C144 C137 1_555 1_555
Cd14 O27 1_555 1_555
O39 Cd14 1_555 1_555
O40 Cd14 1_555 1_555
N32 Cd14 1_555 1_555
N33 Cd14 1_555 1_555
N34 Cd14 1_555 1_555
O28 Cd14 1_555 1_555
C135 C136 1_555 1_555
C139 C140 1_555 1_555
C141 C142 1_555 1_555
N21 C160 1_555 1_555
C160 H109 1_555 1_555
C164 N21 1_555 1_555
H112 C164 1_555 1_555
Cd16 N21 1_555 1_555
Cd16 O21 1_555 1_555
O21 C129 1_555 1_555
O22 Cd16 1_555 1_555
O25 Cd16 1_555 1_555
O26 Cd16 1_555 1_555
N18 Cd16 1_555 1_555
N32 C150 1_555 1_555
N20 Cd16 1_555 1_555
C117 C118 1_555 1_555
C118 H81 1_555 1_555
C119 C118 1_555 1_555
H82 C119 1_555 1_555
C120 C119 1_555 1_555
C121 C120 1_555 1_555
H83 C121 1_555 1_555
C122 C117 1_555 1_555
H84 C122 1_555 1_555
C123 C124 1_555 1_555
C124 H85 1_555 1_555
C125 C124 1_555 1_555
H86 C125 1_555 1_555
C126 C120 1_555 1_555
C127 C126 1_555 1_555
H87 C127 1_555 1_555
C128 C123 1_555 1_555
H88 C128 1_555 1_555
C129 O22 1_555 1_555
C143 O25 1_555 1_555
C145 N18 1_555 1_555
H97 C145 1_555 1_555
C146 C145 1_555 1_555
H98 C146 1_555 1_555
C147 C146 1_555 1_555
C148 C147 1_555 1_555
H99 C148 1_555 1_555
C149 N18 1_555 1_555
H100 C149 1_555 1_555
C150 H101 1_555 1_555
C151 C150 1_555 1_555
H102 C151 1_555 1_555
C152 C147 1_555 1_555
C153 C152 1_555 1_555
H103 C153 1_555 1_555
C154 N32 1_555 1_555
H104 C154 1_555 1_555
C155 N20 1_555 1_555
H105 C155 1_555 1_555
C156 C155 1_555 1_555
H106 C156 1_555 1_555
C157 C156 1_555 1_555
C158 C157 1_555 1_555
H107 C158 1_555 1_555
C159 N20 1_555 1_555
H108 C159 1_555 1_555
H110 C161 1_555 1_555
C162 C157 1_555 1_555
C163 C162 1_555 1_555
H111 C163 1_555 1_555
O26 C143 1_555 1_555
C117 C129 1_555 1_555
C121 C122 1_555 1_555
C125 C126 1_555 1_555
C127 C128 1_555 1_555
C148 C149 1_555 1_555
C151 C152 1_555 1_555
C153 C154 1_555 1_555
C158 C159 1_555 1_555
C161 C162 1_555 1_555
Cd20 O23 1_555 1_555
O23 C130 1_555 1_555
O24 Cd20 1_555 1_555
C130 O24 1_555 1_555
O31 Cd20 1_555 1_555
O32 Cd20 1_555 1_555
C185 C186 1_555 1_555
C187 C186 1_555 1_555
C188 C187 1_555 1_555
C189 C188 1_555 1_555
H131 C189 1_555 1_555
C190 C185 1_555 1_555
H132 C190 1_555 1_555
C191 C192 1_555 1_555
C192 H133 1_555 1_555
C193 C192 1_555 1_555
H134 C193 1_555 1_555
C194 C188 1_555 1_555
C195 C194 1_555 1_555
H135 C195 1_555 1_555
C196 C191 1_555 1_555
H136 C196 1_555 1_555
C198 O31 1_555 1_555
N26 C199 1_555 1_555
N27 Cd20 1_555 1_555
C199 H137 1_555 1_555
C200 C199 1_555 1_555
H138 C200 1_555 1_555
C201 C200 1_555 1_555
C202 C201 1_555 1_555
H139 C202 1_555 1_555
C203 N26 1_555 1_555
H140 C203 1_555 1_555
C204 N27 1_555 1_555
H141 C204 1_555 1_555
C205 C204 1_555 1_555
H142 C205 1_555 1_555
C206 C201 1_555 1_555
C207 C206 1_555 1_555
H143 C207 1_555 1_555
C208 N27 1_555 1_555
H144 C208 1_555 1_555
N28 C209 1_555 1_555
N29 Cd20 1_555 1_555
C209 H145 1_555 1_555
C210 C209 1_555 1_555
H146 C210 1_555 1_555
C211 C210 1_555 1_555
C212 C211 1_555 1_555
H147 C212 1_555 1_555
C213 N28 1_555 1_555
H148 C213 1_555 1_555
C214 N29 1_555 1_555
H149 C214 1_555 1_555
C215 C214 1_555 1_555
H150 C215 1_555 1_555
C216 C211 1_555 1_555
C217 C216 1_555 1_555
H151 C217 1_555 1_555
C218 N29 1_555 1_555
H152 C218 1_555 1_555
Cd19 N26 1_555 1_555
O32 C198 1_555 1_555
C189 C190 1_555 1_555
C191 C198 1_555 1_555
C193 C194 1_555 1_555
C195 C196 1_555 1_555
C202 C203 1_555 1_555
C205 C206 1_555 1_555
C207 C208 1_555 1_555
C212 C213 1_555 1_555
C215 C216 1_555 1_555
C217 C218 1_555 1_555
O29 C197 1_555 1_555
O30 C197 1_555 1_555
Cd19 O29 1_555 1_555
O30 Cd19 1_555 1_555
N34 C170 1_555 1_555
C170 H117 1_555 1_555
C171 C170 1_555 1_555
C174 N34 1_555 1_555
H120 C174 1_555 1_555
O33 Cd19 1_555 1_555
O34 Cd19 1_555 1_555
O39 C232 1_555 1_555
O40 C232 1_555 1_555
C219 C220 1_555 1_555
C220 H153 1_555 1_555
C221 C220 1_555 1_555
H154 C221 1_555 1_555
C222 C221 1_555 1_555
C223 C222 1_555 1_555
H155 C223 1_555 1_555
C224 C219 1_555 1_555
H156 C224 1_555 1_555
C225 C226 1_555 1_555
C226 H157 1_555 1_555
C227 C226 1_555 1_555
H158 C227 1_555 1_555
C228 C222 1_555 1_555
C229 C228 1_555 1_555
H159 C229 1_555 1_555
C230 C225 1_555 1_555
H160 C230 1_555 1_555
C231 O33 1_555 1_555
C232 C225 1_555 1_555
N31 Cd19 1_555 1_555
C173 C174 1_555 1_555
O34 C231 1_555 1_555
C219 C231 1_555 1_555
C223 C224 1_555 1_555
C227 C228 1_555 1_555
C229 C230 1_555 1_555
C165 N33 1_555 1_555
H113 C165 1_555 1_555
C166 C165 1_555 1_555
H114 C166 1_555 1_555
C167 C166 1_555 1_555
C168 C167 1_555 1_555
H115 C168 1_555 1_555
C169 N33 1_555 1_555
H116 C169 1_555 1_555
C172 C167 1_555 1_555
N24 C175 1_555 1_555
C175 H121 1_555 1_555
C176 C175 1_555 1_555
H122 C176 1_555 1_555
C177 C176 1_555 1_555
C178 C177 1_555 1_555
H123 C178 1_555 1_555
C179 N24 1_555 1_555
H124 C179 1_555 1_555
C180 N31 1_555 1_555
H125 C180 1_555 1_555
C181 C180 1_555 1_555
H126 C181 1_555 1_555
C182 C177 1_555 1_555
C183 C182 1_555 1_555
H127 C183 1_555 1_555
C184 N31 1_555 1_555
H128 C184 1_555 1_555
C168 C169 1_555 1_555
C178 C179 1_555 1_555
C181 C182 1_555 1_555
C183 C184 1_555 1_555
O29_2 C197_2 1_555 1_555
O30_2 C197_2 1_555 1_555
Cd18 O29_2 1_555 1_555
O30_2 Cd18 1_555 1_555
N23 C170_2 1_555 1_555
C165_2 N22 1_555 1_555
H113_2 C165_2 1_555 1_555
C166_2 C165_2 1_555 1_555
H114_2 C166_2 1_555 1_555
C167_2 C166_2 1_555 1_555
C168_2 C167_2 1_555 1_555
H115_2 C168_2 1_555 1_555
C169_2 N22 1_555 1_555
H116_2 C169_2 1_555 1_555
C170_2 H117_2 1_555 1_555
C171_2 C170_2 1_555 1_555
H118_2 C171_2 1_555 1_555
C172_2 C167_2 1_555 1_555
C173_2 C172_2 1_555 1_555
H119_2 C173_2 1_555 1_555
C174_2 N23 1_555 1_555
H120_2 C174_2 1_555 1_555
O35 C232_2 1_555 1_555
O36 C232_2 1_555 1_555
Cd17 N23 1_555 1_555
C168_2 C169_2 1_555 1_555
C171_2 C172_2 1_555 1_555
C173_2 C174_2 1_555 1_555
O35 Cd17 1_555 1_555
O36 Cd17 1_555 1_555
N24_2 C175_2 1_555 1_555
C175_2 H121_2 1_555 1_555
C176_2 C175_2 1_555 1_555
H122_2 C176_2 1_555 1_555
C177_2 C176_2 1_555 1_555
C178_2 C177_2 1_555 1_555
H123_2 C178_2 1_555 1_555
C179_2 N24_2 1_555 1_555
H124_2 C179_2 1_555 1_555
H126_2 C181_2 1_555 1_555
C182_2 C177_2 1_555 1_555
C183_2 C182_2 1_555 1_555
H127_2 C183_2 1_555 1_555
Cd13 N24_2 1_555 1_555
O33_2 Cd13 1_555 1_555
O34_2 Cd13 1_555 1_555
C219_2 C220_2 1_555 1_555
C220_2 H153_2 1_555 1_555
C221_2 C220_2 1_555 1_555
H154_2 C221_2 1_555 1_555
C222_2 C221_2 1_555 1_555
C223_2 C222_2 1_555 1_555
H155_2 C223_2 1_555 1_555
C224_2 C219_2 1_555 1_555
H156_2 C224_2 1_555 1_555
C225_2 C226_2 1_555 1_555
C226_2 H157_2 1_555 1_555
C227_2 C226_2 1_555 1_555
H158_2 C227_2 1_555 1_555
C228_2 C222_2 1_555 1_555
C229_2 C228_2 1_555 1_555
H159_2 C229_2 1_555 1_555
C230_2 C225_2 1_555 1_555
H160_2 C230_2 1_555 1_555
C231_2 O33_2 1_555 1_555
O37 Cd13 1_555 1_555
O38 Cd13 1_555 1_555
N30 Cd13 1_555 1_555
N31_2 Cd13 1_555 1_555
C178_2 C179_2 1_555 1_555
C181_2 C182_2 1_555 1_555
O34_2 C231_2 1_555 1_555
C219_2 C231_2 1_555 1_555
C223_2 C224_2 1_555 1_555
C227_2 C228_2 1_555 1_555
C229_2 C230_2 1_555 1_555
O31_2 Cd17 1_555 1_555
O32_2 Cd17 1_555 1_555
C185_2 C186_2 1_555 1_555
C187_2 C186_2 1_555 1_555
C188_2 C187_2 1_555 1_555
C189_2 C188_2 1_555 1_555
H131_2 C189_2 1_555 1_555
C190_2 C185_2 1_555 1_555
H132_2 C190_2 1_555 1_555
C191_2 C192_2 1_555 1_555
C192_2 H133_2 1_555 1_555
C193_2 C192_2 1_555 1_555
H134_2 C193_2 1_555 1_555
C194_2 C188_2 1_555 1_555
C195_2 C194_2 1_555 1_555
H135_2 C195_2 1_555 1_555
C196_2 C191_2 1_555 1_555
H136_2 C196_2 1_555 1_555
C198_2 O31_2 1_555 1_555
N26_2 C199_2 1_555 1_555
N27_2 Cd17 1_555 1_555
C199_2 H137_2 1_555 1_555
C200_2 C199_2 1_555 1_555
H138_2 C200_2 1_555 1_555
C201_2 C200_2 1_555 1_555
C202_2 C201_2 1_555 1_555
H139_2 C202_2 1_555 1_555
C203_2 N26_2 1_555 1_555
H140_2 C203_2 1_555 1_555
C204_2 N27_2 1_555 1_555
H141_2 C204_2 1_555 1_555
C205_2 C204_2 1_555 1_555
H142_2 C205_2 1_555 1_555
C206_2 C201_2 1_555 1_555
C207_2 C206_2 1_555 1_555
H143_2 C207_2 1_555 1_555
C208_2 N27_2 1_555 1_555
H144_2 C208_2 1_555 1_555
Cd18 N26_2 1_555 1_555
O32_2 C198_2 1_555 1_555
C189_2 C190_2 1_555 1_555
C191_2 C198_2 1_555 1_555
C193_2 C194_2 1_555 1_555
C195_2 C196_2 1_555 1_555
C202_2 C203_2 1_555 1_555
C205_2 C206_2 1_555 1_555
C207_2 C208_2 1_555 1_555
N19 C150_2 1_555 1_555
C143_2 O37 1_555 1_555
C145_2 N30 1_555 1_555
H97_2 C145_2 1_555 1_555
C146_2 C145_2 1_555 1_555
H98_2 C146_2 1_555 1_555
C147_2 C146_2 1_555 1_555
C148_2 C147_2 1_555 1_555
H99_2 C148_2 1_555 1_555
C149_2 N30 1_555 1_555
H100_2 C149_2 1_555 1_555
C150_2 H101_2 1_555 1_555
C151_2 C150_2 1_555 1_555
H102_2 C151_2 1_555 1_555
C152_2 C147_2 1_555 1_555
C153_2 C152_2 1_555 1_555
H103_2 C153_2 1_555 1_555
C154_2 N19 1_555 1_555
H104_2 C154_2 1_555 1_555
C180_2 N31_2 1_555 1_555
H125_2 C180_2 1_555 1_555
C184_2 N31_2 1_555 1_555
H128_2 C184_2 1_555 1_555
Cd15 N19 1_555 1_555
O38 C143_2 1_555 1_555
C148_2 C149_2 1_555 1_555
C151_2 C152_2 1_555 1_555
C153_2 C154_2 1_555 1_555
O27_2 C144_2 1_555 1_555
O28_2 C144_2 1_555 1_555
C131_2 C132_2 1_555 1_555
C132_2 H89_2 1_555 1_555
C133_2 C132_2 1_555 1_555
H90_2 C133_2 1_555 1_555
C134_2 C133_2 1_555 1_555
C135_2 C134_2 1_555 1_555
H91_2 C135_2 1_555 1_555
C136_2 C131_2 1_555 1_555
H92_2 C136_2 1_555 1_555
C137_2 C138_2 1_555 1_555
C138_2 H93_2 1_555 1_555
C139_2 C138_2 1_555 1_555
H94_2 C139_2 1_555 1_555
C140_2 C134_2 1_555 1_555
C141_2 C140_2 1_555 1_555
H95_2 C141_2 1_555 1_555
C142_2 C137_2 1_555 1_555
H96_2 C142_2 1_555 1_555
C144_2 C137_2 1_555 1_555
Cd15 O27_2 1_555 1_555
O39_2 Cd15 1_555 1_555
O40_2 Cd15 1_555 1_555
N33_2 Cd15 1_555 1_555
N34_2 Cd15 1_555 1_555
O28_2 Cd15 1_555 1_555
C135_2 C136_2 1_555 1_555
C139_2 C140_2 1_555 1_555
C141_2 C142_2 1_555 1_555
N21_2 C160_2 1_555 1_555
C155_2 N20_2 1_555 1_555
H105_2 C155_2 1_555 1_555
C156_2 C155_2 1_555 1_555
H106_2 C156_2 1_555 1_555
C157_2 C156_2 1_555 1_555
C158_2 C157_2 1_555 1_555
H107_2 C158_2 1_555 1_555
C159_2 N20_2 1_555 1_555
H108_2 C159_2 1_555 1_555
C160_2 H109_2 1_555 1_555
C161_2 C160_2 1_555 1_555
H110_2 C161_2 1_555 1_555
C162_2 C157_2 1_555 1_555
C163_2 C162_2 1_555 1_555
H111_2 C163_2 1_555 1_555
C164_2 N21_2 1_555 1_555
H112_2 C164_2 1_555 1_555
N33_2 C209_2 1_555 1_555
C209_2 H145_2 1_555 1_555
C210_2 C209_2 1_555 1_555
H146_2 C210_2 1_555 1_555
C211_2 C210_2 1_555 1_555
C212_2 C211_2 1_555 1_555
H147_2 C212_2 1_555 1_555
C213_2 N33_2 1_555 1_555
H148_2 C213_2 1_555 1_555
C216_2 C211_2 1_555 1_555
Cd18 N21_2 1_555 1_555
C158_2 C159_2 1_555 1_555
C161_2 C162_2 1_555 1_555
C163_2 C164_2 1_555 1_555
C212_2 C213_2 1_555 1_555
Cd18 O21_2 1_555 1_555
O21_2 C129_2 1_555 1_555
O22_2 Cd18 1_555 1_555
O39_2 C130_2 1_555 1_555
C117_2 C118_2 1_555 1_555
C118_2 H81_2 1_555 1_555
C119_2 C118_2 1_555 1_555
H82_2 C119_2 1_555 1_555
C120_2 C119_2 1_555 1_555
C121_2 C120_2 1_555 1_555
H83_2 C121_2 1_555 1_555
C122_2 C117_2 1_555 1_555
H84_2 C122_2 1_555 1_555
C123_2 C124_2 1_555 1_555
C124_2 H85_2 1_555 1_555
C125_2 C124_2 1_555 1_555
H86_2 C125_2 1_555 1_555
C126_2 C120_2 1_555 1_555
C127_2 C126_2 1_555 1_555
H87_2 C127_2 1_555 1_555
C128_2 C123_2 1_555 1_555
H88_2 C128_2 1_555 1_555
C129_2 O22_2 1_555 1_555
C130_2 O40_2 1_555 1_555
C214_2 N34_2 1_555 1_555
H149_2 C214_2 1_555 1_555
C215_2 C214_2 1_555 1_555
C218_2 N34_2 1_555 1_555
H152_2 C218_2 1_555 1_555
C117_2 C129_2 1_555 1_555
C121_2 C122_2 1_555 1_555
C123_2 C130_2 1_555 1_555
C125_2 C126_2 1_555 1_555
C127_2 C128_2 1_555 1_555
C217_2 C218_2 1_555 1_555

#END
