
###############################################################################
#
# This file contains modified crystal structure data generated from the
# MOF subset of the Cambridge Structural Database (CSD) v543 
# hosted by the Cambridge Crystallographic Data Centre (CCDC).
#
# This work is licensed under the Creative Commons
# Attribution-NonCommercial-ShareAlike 4.0 International License.
# To view a copy of this license, visit
# http://creativecommons.org/licenses/by-nc-sa/4.0/
# or send a letter to
# Creative Commons, PO Box 1866, Mountain View, CA 94042, USA.
#
# CIF created using the CSD Python API on 29 September 2022
# The structure has been converted into the P1 space group
# The structure has a 3D framework
# The original CSD entry AXOYUK is in the orthorhombic crystal system
# The framework has been calculated to contain at least 10.0% void space
# The void calculation uses a probe of radius 1.32A, grid spacing 0.4
#
###############################################################################

data_AXOYUK
_chemical_formula_moiety         '(C216 H168 Eu8 O72)n'
_symmetry_cell_setting           triclinic
_symmetry_space_group_name_H-M   'P 1'
_symmetry_Int_Tables_number      1
_space_group_name_Hall           'P 1'
loop_
_symmetry_equiv_pos_site_id
_symmetry_equiv_pos_as_xyz
1 x,y,z
_cell_length_a                   26.9686(10)
_cell_length_b                   7.3840(4)
_cell_length_c                   34.6549(13)
_cell_angle_alpha                90
_cell_angle_beta                 90
_cell_angle_gamma                90
_cell_volume                     6901.04
loop_
_atom_site_label
_atom_site_type_symbol
_atom_site_fract_x
_atom_site_fract_y
_atom_site_fract_z
O1 O 0.34722(16) 0.6451(7) 0.05078(11)
C1 C 0.2267(2) 0.5636(9) 0.00801(17)
H3 H 0.2073 0.5851 0.0297
C3 C 0.3023(2) 0.5969(8) 0.04921(17)
C4 C 0.2780(2) 0.5647(9) 0.01128(17)
O9 O 0.27721(16) 0.5761(6) 0.08013(11)
Eu2 Eu 0.34640(2) 0.65064(4) 0.12220(2)
O2 O 0.34347(16) 0.7111(6) 0.68614(11)
O5 O 0.27054(16) 0.7903(6) 0.66320(11)
C2 C 0.2841(2) 0.4936(9) 0.94341(17)
H6 H 0.3036 0.4686 0.9219
C5 C 0.2323(2) 0.4945(8) 0.93993(16)
C6 C 0.2043(2) 0.5308(9) 0.97293(16)
H9 H 0.1699 0.5330 0.9712
C7 C 0.3066(2) 0.5298(9) 0.97890(17)
H10 H 0.3410 0.5305 0.9808
C8 C 0.1608(2) 0.3809(8) 0.90165(16)
H11 H 0.1464 0.3432 0.9247
C9 C 0.2076(2) 0.4611(9) 0.90231(16)
C10 C 0.1351(2) 0.3559(9) 0.86681(16)
C11 C 0.1591(2) 0.4047(8) 0.83229(16)
H12 H 0.1432 0.3844 0.8089
C12 C 0.0067(3) 0.2195(9) 0.90123(18)
C14 C 0.0136(2) 0.1450(10) 0.83403(19)
C16 C 0.2967(2) 0.7236(9) 0.68983(17)
C17 C 0.3025(2) 0.5969(8) 0.75652(16)
H15 H 0.3368 0.5931 0.7536
C18 C 0.2732(2) 0.6603(9) 0.72657(16)
C19 C 0.2220(2) 0.6631(9) 0.73131(17)
H16 H 0.2020 0.7069 0.7115
C20 C 0.2004(3) 0.6018(8) 0.76486(16)
H17 H 0.1660 0.6017 0.7671
C21 C 0.2813(2) 0.5391(9) 0.79065(17)
H18 H 0.3015 0.4994 0.8106
C22 C 0.2295(2) 0.5395(9) 0.79566(16)
C23 C 0.2062(2) 0.4828(8) 0.83242(16)
C24 C 0.2301(2) 0.5105(8) 0.86746(16)
H19 H 0.2614 0.5628 0.8678
C25 C 0.0548(2) 0.2911(9) 0.90043(17)
H20 H 0.0679 0.3433 0.9226
C26 C 0.0616(3) 0.2139(9) 0.83320(18)
H21 H 0.0795 0.2127 0.8103
C27 C 0.0833(2) 0.2853(9) 0.86684(17)
Eu3 Eu 0.34640(2) 0.84936(4) 0.62220(2)
O3 O 0.32267(17) 0.3507(6) 0.14214(12)
H1 H 0.3355 0.2684 0.1266
H2 H 0.2905 0.3347 0.1392
O4 O 0.41984(16) 0.5302(6) 0.15917(12)
O6 O 0.41444(16) 0.8663(7) 0.11072(13)
H4 H 0.4299 0.8564 0.1332
H5 H 0.4324 0.7855 0.0979
C2_2 C 0.7841(2) 0.0064(9) 0.05659(17)
H6_2 H 0.8036 0.0314 0.0781
O7 O 0.31425(16) 0.9512(6) 0.10445(12)
H7 H 0.2970 0.9823 0.1249
H8 H 0.2911 0.9190 0.0882
C5_2 C 0.7323(2) 0.0055(8) 0.06007(16)
C8_2 C 0.6608(2) 0.1191(8) 0.09835(16)
H11_2 H 0.6464 0.1568 0.0753
C9_2 C 0.7076(2) 0.0389(9) 0.09769(16)
C10_2 C 0.6351(2) 0.1441(9) 0.13319(16)
C11_2 C 0.6591(2) 0.0953(8) 0.16771(16)
H12_2 H 0.6432 0.1156 0.1911
O8 O 0.41207(17) 0.4436(7) 0.09883(12)
C12_2 C 0.5067(3) 0.2805(9) 0.09877(18)
H13 H 0.4885 0.2781 0.0760
C13 C 0.4364(3) 0.4476(9) 0.13020(18)
C14_2 C 0.5136(2) 0.3550(10) 0.16597(19)
H14 H 0.4997 0.4016 0.1884
C15 C 0.4861(2) 0.3550(10) 0.13190(18)
H18_2 H 0.8015 0.0006 0.1894
C23_2 C 0.7062(2) 0.0172(8) 0.16758(16)
C25_2 C 0.5548(2) 0.2089(9) 0.09957(17)
H20_2 H 0.5679 0.1567 0.0774
C26_2 C 0.5616(3) 0.2861(9) 0.16680(18)
H21_2 H 0.5795 0.2873 0.1897
C27_2 C 0.5833(2) 0.2147(9) 0.13316(17)
O11 O 0.34347(16) 0.7889(6) 0.18614(11)
O12 O 0.27054(16) 0.7097(6) 0.16320(11)
O4_2 O 0.41984(16) 0.9698(6) 0.65917(12)
O6_2 O 0.41444(16) 0.6337(7) 0.61072(13)
H4_2 H 0.4299 0.6436 0.6332
H5_2 H 0.4324 0.7145 0.5979
O7_2 O 0.31425(16) 0.5488(6) 0.60445(12)
H7_2 H 0.2970 0.5177 0.6249
H8_2 H 0.2911 0.5810 0.5882
O10 O 0.34722(16) 0.8549(7) 0.55078(11)
O13 O 0.27721(16) 0.9239(6) 0.58013(11)
C1_2 C 0.2267(2) 0.9364(9) 0.50801(17)
H3_2 H 0.2073 0.9149 0.5297
C3_2 C 0.3023(2) 0.9031(8) 0.54921(17)
C4_2 C 0.2780(2) 0.9353(9) 0.51128(17)
C6_2 C 0.2043(2) 0.9692(9) 0.47293(16)
H9_2 H 0.1699 0.9670 0.4712
C7_2 C 0.3066(2) 0.9702(9) 0.47890(17)
H10_2 H 0.3410 0.9695 0.4808
C16_2 C 0.2967(2) 0.7764(9) 0.18983(17)
C17_2 C 0.3025(2) 0.9031(8) 0.25652(16)
H15_2 H 0.3368 0.9069 0.2536
C18_2 C 0.2732(2) 0.8397(9) 0.22657(16)
C19_2 C 0.2220(2) 0.8369(9) 0.23131(17)
H16_2 H 0.2020 0.7931 0.2115
C20_2 C 0.2004(3) 0.8982(8) 0.26486(16)
H17_2 H 0.1660 0.8983 0.2671
C21_2 C 0.2813(2) 0.9609(9) 0.29065(17)
C22_2 C 0.2295(2) 0.9605(9) 0.29566(16)
C24_2 C 0.2301(2) 0.9895(8) 0.36746(16)
H19_2 H 0.2614 0.9372 0.3678
O3_2 O 0.82267(17) 0.1493(6) 0.85786(12)
H1_2 H 0.8355 0.2316 0.8734
H2_2 H 0.7905 0.1653 0.8608
O8_2 O 0.91207(17) 0.0564(7) 0.90117(12)
H13_2 H 0.9885 0.2219 0.9240
C13_2 C 0.9364(3) 0.0524(9) 0.86980(18)
H14_2 H 0.9997 0.0984 0.8116
C15_2 C 0.9861(2) 0.1450(10) 0.86810(18)
Eu1 Eu 0.84640(2) 0.84936(4) 0.87780(2)
O4_3 O 0.91984(16) 0.9698(6) 0.84083(12)
O6_3 O 0.91444(16) 0.6337(7) 0.88928(13)
H4_3 H 0.9299 0.6436 0.8668
H5_3 H 0.9324 0.7145 0.9021
O7_3 O 0.81425(16) 0.5488(6) 0.89555(12)
H7_3 H 0.7970 0.5177 0.8751
H8_3 H 0.7911 0.5810 0.9118
O10_2 O 0.84722(16) 0.8549(7) 0.94922(11)
O11_2 O 0.84347(16) 0.7111(6) 0.81386(11)
O12_2 O 0.77054(16) 0.7903(6) 0.83680(11)
O13_2 O 0.77721(16) 0.9239(6) 0.91987(11)
O2_2 O 0.84347(16) 0.7889(6) 0.31386(11)
O5_2 O 0.77054(16) 0.7097(6) 0.33680(11)
C6_3 C 0.7043(2) 0.9692(9) 0.02707(16)
H9_3 H 0.6699 0.9670 0.0288
C7_3 C 0.8066(2) 0.9702(9) 0.02110(17)
H10_3 H 0.8410 0.9695 0.0192
C16_3 C 0.7967(2) 0.7764(9) 0.31017(17)
C17_3 C 0.8025(2) 0.9031(8) 0.24348(16)
H15_3 H 0.8368 0.9069 0.2464
C18_3 C 0.7732(2) 0.8397(9) 0.27343(16)
C19_3 C 0.7220(2) 0.8369(9) 0.26869(17)
H16_3 H 0.7020 0.7931 0.2885
C20_3 C 0.7004(3) 0.8982(8) 0.23514(16)
H17_3 H 0.6660 0.8983 0.2329
C21_3 C 0.7813(2) 0.9609(9) 0.20935(17)
C22_3 C 0.7295(2) 0.9605(9) 0.20434(16)
C24_3 C 0.7301(2) 0.9895(8) 0.13254(16)
H19_3 H 0.7614 0.9372 0.1322
Eu3_2 Eu 0.84640(2) 0.65064(4) 0.37780(2)
C1_3 C 0.7267(2) 0.9364(9) 0.99199(17)
H3_3 H 0.7073 0.9149 0.9703
C3_3 C 0.8023(2) 0.9031(8) 0.95079(17)
C4_3 C 0.7780(2) 0.9353(9) 0.98872(17)
O1_2 O 0.84722(16) 0.6451(7) 0.44922(11)
O3_3 O 0.32267(17) 0.1493(6) 0.64214(12)
H1_3 H 0.3355 0.2316 0.6266
H2_3 H 0.2905 0.1653 0.6392
C1_4 C 0.7267(2) 0.5636(9) 0.49199(17)
H3_4 H 0.7073 0.5851 0.4703
C2_3 C 0.7841(2) 0.4936(9) 0.55659(17)
H6_3 H 0.8036 0.4686 0.5781
C3_4 C 0.8023(2) 0.5969(8) 0.45079(17)
C4_4 C 0.7780(2) 0.5647(9) 0.48872(17)
C5_3 C 0.7323(2) 0.4945(8) 0.56007(16)
C6_4 C 0.7043(2) 0.5308(9) 0.52707(16)
H9_4 H 0.6699 0.5330 0.5288
C7_4 C 0.8066(2) 0.5298(9) 0.52110(17)
H10_4 H 0.8410 0.5305 0.5192
C8_3 C 0.6608(2) 0.3809(8) 0.59835(16)
H11_3 H 0.6464 0.3432 0.5753
C9_3 C 0.7076(2) 0.4611(9) 0.59769(16)
C10_3 C 0.6351(2) 0.3559(9) 0.63319(16)
C11_3 C 0.6591(2) 0.4047(8) 0.66771(16)
H12_3 H 0.6432 0.3844 0.6911
O8_3 O 0.41207(17) 0.0564(7) 0.59883(12)
C12_3 C 0.5067(3) 0.2195(9) 0.59877(18)
H13_3 H 0.4885 0.2219 0.5760
C13_3 C 0.4364(3) 0.0524(9) 0.63020(18)
C14_3 C 0.5136(2) 0.1450(10) 0.66597(19)
H14_3 H 0.4997 0.0984 0.6884
C15_3 C 0.4861(2) 0.1450(10) 0.63190(18)
O9_2 O 0.77721(16) 0.5761(6) 0.41987(11)
C16_4 C 0.7967(2) 0.7236(9) 0.81017(17)
C17_4 C 0.8025(2) 0.5969(8) 0.74348(16)
H15_4 H 0.8368 0.5931 0.7464
C18_4 C 0.7732(2) 0.6603(9) 0.77343(16)
C19_4 C 0.7220(2) 0.6631(9) 0.76869(17)
H16_4 H 0.7020 0.7069 0.7885
C20_4 C 0.7004(3) 0.6018(8) 0.73514(16)
H17_4 H 0.6660 0.6017 0.7329
C21_4 C 0.7813(2) 0.5391(9) 0.70935(17)
H18_3 H 0.8015 0.4994 0.6894
C22_4 C 0.7295(2) 0.5395(9) 0.70434(16)
C23_3 C 0.7062(2) 0.4828(8) 0.66758(16)
C24_4 C 0.7301(2) 0.5105(8) 0.63254(16)
H19_4 H 0.7614 0.5628 0.6322
C25_3 C 0.5548(2) 0.2911(9) 0.59957(17)
H20_3 H 0.5679 0.3433 0.5774
C26_3 C 0.5616(3) 0.2139(9) 0.66680(18)
H21_3 H 0.5795 0.2127 0.6897
C27_3 C 0.5833(2) 0.2853(9) 0.63316(17)
O3_4 O 0.82267(17) 0.3507(6) 0.35786(12)
H1_4 H 0.8355 0.2684 0.3734
H2_4 H 0.7905 0.3347 0.3608
O4_4 O 0.91984(16) 0.5302(6) 0.34083(12)
O6_4 O 0.91444(16) 0.8663(7) 0.38928(13)
H4_4 H 0.9299 0.8564 0.3668
H5_4 H 0.9324 0.7855 0.4021
O7_4 O 0.81425(16) 0.9512(6) 0.39555(12)
H7_4 H 0.7970 0.9823 0.3751
H8_4 H 0.7911 0.9190 0.4118
O8_4 O 0.91207(17) 0.4436(7) 0.40117(12)
H13_4 H 0.9885 0.2781 0.4240
C13_4 C 0.9364(3) 0.4476(9) 0.36980(18)
H14_4 H 0.9997 0.4016 0.3116
C15_4 C 0.9861(2) 0.3550(10) 0.36810(18)
Eu1_2 Eu 0.65360(2) 0.15064(4) 0.37780(2)
O4_5 O 0.58016(16) 0.0302(6) 0.34083(12)
O6_5 O 0.58556(16) 0.3663(7) 0.38928(13)
H4_5 H 0.5701 0.3564 0.3668
H5_5 H 0.5676 0.2855 0.4021
O7_5 O 0.68575(16) 0.4512(6) 0.39555(12)
H7_5 H 0.7030 0.4823 0.3751
H8_5 H 0.7089 0.4190 0.4118
O10_3 O 0.65278(16) 0.1451(7) 0.44922(11)
O11_3 O 0.65653(16) 0.2889(6) 0.31386(11)
O12_3 O 0.72946(16) 0.2097(6) 0.33680(11)
O13_3 O 0.72279(16) 0.0761(6) 0.41987(11)
O2_3 O 0.65653(16) 0.2111(6) 0.81386(11)
O5_3 O 0.72946(16) 0.2903(6) 0.83680(11)
C1_5 C 0.7733(2) 0.0636(9) 0.49199(17)
H3_5 H 0.7927 0.0851 0.4703
C3_5 C 0.6977(2) 0.0969(8) 0.45079(17)
C4_5 C 0.7220(2) 0.0647(9) 0.48872(17)
C6_5 C 0.7957(2) 0.0308(9) 0.52707(16)
H9_5 H 0.8301 0.0330 0.5288
C7_5 C 0.6934(2) 0.0298(9) 0.52110(17)
H10_5 H 0.6590 0.0305 0.5192
C16_5 C 0.7033(2) 0.2236(9) 0.81017(17)
C17_5 C 0.6975(2) 0.0969(8) 0.74348(16)
H15_5 H 0.6632 0.0931 0.7464
C18_5 C 0.7268(2) 0.1603(9) 0.77343(16)
C19_5 C 0.7780(2) 0.1631(9) 0.76869(17)
H16_5 H 0.7980 0.2069 0.7885
C20_5 C 0.7996(3) 0.1018(8) 0.73514(16)
H17_5 H 0.8340 0.1017 0.7329
C21_5 C 0.7187(2) 0.0391(9) 0.70935(17)
C22_5 C 0.7705(2) 0.0395(9) 0.70434(16)
C24_5 C 0.7699(2) 0.0105(8) 0.63254(16)
H19_5 H 0.7386 0.0628 0.6322
Eu3_3 Eu 0.65360(2) 0.34936(4) 0.87780(2)
C2_4 C 0.7159(2) 0.5064(9) 0.05659(17)
H6_4 H 0.6964 0.5314 0.0781
C5_4 C 0.7677(2) 0.5055(8) 0.06007(16)
C6_6 C 0.7957(2) 0.4692(9) 0.02707(16)
H9_6 H 0.8301 0.4670 0.0288
C7_6 C 0.6934(2) 0.4702(9) 0.02110(17)
H10_6 H 0.6590 0.4695 0.0192
C8_4 C 0.8392(2) 0.6191(8) 0.09835(16)
H11_4 H 0.8536 0.6568 0.0753
C9_4 C 0.7924(2) 0.5389(9) 0.09769(16)
C10_4 C 0.8649(2) 0.6441(9) 0.13319(16)
C11_4 C 0.8409(2) 0.5953(8) 0.16771(16)
H12_4 H 0.8568 0.6156 0.1911
C12_4 C 0.9933(3) 0.7805(9) 0.09877(18)
C14_4 C 0.9864(2) 0.8550(10) 0.16597(19)
C16_6 C 0.7033(2) 0.2764(9) 0.31017(17)
C17_6 C 0.6975(2) 0.4031(8) 0.24348(16)
H15_6 H 0.6632 0.4069 0.2464
C18_6 C 0.7268(2) 0.3397(9) 0.27343(16)
C19_6 C 0.7780(2) 0.3369(9) 0.26869(17)
H16_6 H 0.7980 0.2931 0.2885
C20_6 C 0.7996(3) 0.3982(8) 0.23514(16)
H17_6 H 0.8340 0.3983 0.2329
C21_6 C 0.7187(2) 0.4609(9) 0.20935(17)
H18_4 H 0.6985 0.5006 0.1894
C22_6 C 0.7705(2) 0.4605(9) 0.20434(16)
C23_4 C 0.7938(2) 0.5172(8) 0.16758(16)
C24_6 C 0.7699(2) 0.4895(8) 0.13254(16)
H19_6 H 0.7386 0.4372 0.1322
C25_4 C 0.9452(2) 0.7089(9) 0.09957(17)
H20_4 H 0.9321 0.6567 0.0774
C26_4 C 0.9384(3) 0.7861(9) 0.16680(18)
H21_4 H 0.9205 0.7873 0.1897
C27_4 C 0.9167(2) 0.7147(9) 0.13316(17)
O1_3 O 0.65278(16) 0.3549(7) 0.94922(11)
C1_6 C 0.7733(2) 0.4364(9) 0.99199(17)
H3_6 H 0.7927 0.4149 0.9703
C3_6 C 0.6977(2) 0.4031(8) 0.95079(17)
C4_6 C 0.7220(2) 0.4353(9) 0.98872(17)
O9_3 O 0.72279(16) 0.4239(6) 0.91987(11)
O3_5 O 0.67733(17) 0.6493(6) 0.85786(12)
H1_5 H 0.6645 0.7316 0.8734
H2_5 H 0.7095 0.6653 0.8608
O4_6 O 0.58016(16) 0.4698(6) 0.84083(12)
O6_6 O 0.58556(16) 0.1337(7) 0.88928(13)
H4_6 H 0.5701 0.1436 0.8668
H5_6 H 0.5676 0.2145 0.9021
C2_5 C 0.2159(2) 0.9936(9) 0.94341(17)
H6_5 H 0.1964 0.9686 0.9219
O7_6 O 0.68575(16) 0.0488(6) 0.89555(12)
H7_6 H 0.7030 0.0177 0.8751
H8_6 H 0.7089 0.0810 0.9118
C5_5 C 0.2677(2) 0.9945(8) 0.93993(16)
C8_5 C 0.3392(2) 0.8809(8) 0.90165(16)
H11_5 H 0.3536 0.8432 0.9247
C9_5 C 0.2924(2) 0.9611(9) 0.90231(16)
C10_5 C 0.3649(2) 0.8559(9) 0.86681(16)
C11_5 C 0.3409(2) 0.9047(8) 0.83229(16)
H12_5 H 0.3568 0.8844 0.8089
O8_5 O 0.58793(17) 0.5564(7) 0.90117(12)
C12_5 C 0.4933(3) 0.7195(9) 0.90123(18)
H13_5 H 0.5115 0.7219 0.9240
C13_5 C 0.5636(3) 0.5524(9) 0.86980(18)
C14_5 C 0.4864(2) 0.6450(10) 0.83403(19)
H14_5 H 0.5003 0.5984 0.8116
C15_5 C 0.5139(2) 0.6450(10) 0.86810(18)
H18_5 H 0.1985 0.9994 0.8106
C23_5 C 0.2938(2) 0.9828(8) 0.83242(16)
C25_5 C 0.4452(2) 0.7911(9) 0.90043(17)
H20_5 H 0.4321 0.8433 0.9226
C26_5 C 0.4384(3) 0.7139(9) 0.83320(18)
H21_5 H 0.4205 0.7127 0.8103
C27_5 C 0.4167(2) 0.7853(9) 0.86684(17)
O1_4 O 0.15278(16) 0.3549(7) 0.55078(11)
O2_4 O 0.15653(16) 0.2889(6) 0.18614(11)
O3_6 O 0.67733(17) 0.8507(6) 0.35786(12)
H1_6 H 0.6645 0.7684 0.3734
H2_6 H 0.7095 0.8347 0.3608
O5_4 O 0.22946(16) 0.2097(6) 0.16320(11)
C1_7 C 0.2733(2) 0.4364(9) 0.50801(17)
H3_7 H 0.2927 0.4149 0.5297
C2_6 C 0.2159(2) 0.5064(9) 0.44341(17)
H6_6 H 0.1964 0.5314 0.4219
C3_7 C 0.1977(2) 0.4031(8) 0.54921(17)
C4_7 C 0.2220(2) 0.4353(9) 0.51128(17)
C5_6 C 0.2677(2) 0.5055(8) 0.43993(16)
C6_7 C 0.2957(2) 0.4692(9) 0.47293(16)
H9_7 H 0.3301 0.4670 0.4712
C7_7 C 0.1934(2) 0.4702(9) 0.47890(17)
H10_7 H 0.1590 0.4695 0.4808
C8_6 C 0.3392(2) 0.6191(8) 0.40165(16)
H11_6 H 0.3536 0.6568 0.4247
C9_6 C 0.2924(2) 0.5389(9) 0.40231(16)
C10_6 C 0.3649(2) 0.6441(9) 0.36681(16)
C11_6 C 0.3409(2) 0.5953(8) 0.33229(16)
H12_6 H 0.3568 0.6156 0.3089
O8_6 O 0.58793(17) 0.9436(7) 0.40117(12)
C12_6 C 0.4933(3) 0.7805(9) 0.40123(18)
H13_6 H 0.5115 0.7781 0.4240
C13_6 C 0.5636(3) 0.9476(9) 0.36980(18)
C14_6 C 0.4864(2) 0.8550(10) 0.33403(19)
H14_6 H 0.5003 0.9016 0.3116
C15_6 C 0.5139(2) 0.8550(10) 0.36810(18)
O9_4 O 0.22279(16) 0.4239(6) 0.58013(11)
C16_7 C 0.2033(2) 0.2764(9) 0.18983(17)
C17_7 C 0.1975(2) 0.4031(8) 0.25652(16)
H15_7 H 0.1632 0.4069 0.2536
C18_7 C 0.2268(2) 0.3397(9) 0.22657(16)
C19_7 C 0.2780(2) 0.3369(9) 0.23131(17)
H16_7 H 0.2980 0.2931 0.2115
C20_7 C 0.2996(3) 0.3982(8) 0.26486(16)
H17_7 H 0.3340 0.3983 0.2671
C21_7 C 0.2187(2) 0.4609(9) 0.29065(17)
H18_6 H 0.1985 0.5006 0.3106
C22_7 C 0.2705(2) 0.4605(9) 0.29566(16)
C23_6 C 0.2938(2) 0.5172(8) 0.33242(16)
C24_7 C 0.2699(2) 0.4895(8) 0.36746(16)
H19_7 H 0.2386 0.4372 0.3678
C25_6 C 0.4452(2) 0.7089(9) 0.40043(17)
H20_6 H 0.4321 0.6567 0.4226
C26_6 C 0.4384(3) 0.7861(9) 0.33320(18)
H21_6 H 0.4205 0.7873 0.3103
C27_6 C 0.4167(2) 0.7147(9) 0.36684(17)
Eu2_2 Eu 0.15360(2) 0.34936(4) 0.62220(2)
Eu3_4 Eu 0.15360(2) 0.15064(4) 0.12220(2)
O3_7 O 0.17733(17) 0.6493(6) 0.64214(12)
H1_7 H 0.1645 0.7316 0.6266
H2_7 H 0.2095 0.6653 0.6392
O4_7 O 0.08016(16) 0.4698(6) 0.65917(12)
O6_7 O 0.08556(16) 0.1337(7) 0.61072(13)
H4_7 H 0.0701 0.1436 0.6332
H5_7 H 0.0676 0.2145 0.5979
O7_7 O 0.18575(16) 0.0488(6) 0.60445(12)
H7_7 H 0.2030 0.0177 0.6249
H8_7 H 0.2089 0.0810 0.5882
O8_7 O 0.08793(17) 0.5564(7) 0.59883(12)
H13_7 H 0.0115 0.7219 0.5760
C13_7 C 0.0636(3) 0.5524(9) 0.63020(18)
H14_7 H 0.0003 0.5984 0.6884
C15_7 C 0.0139(2) 0.6450(10) 0.63190(18)
O11_4 O 0.15653(16) 0.2111(6) 0.68614(11)
O12_4 O 0.22946(16) 0.2903(6) 0.66320(11)
O4_8 O 0.08016(16) 0.0302(6) 0.15917(12)
O6_8 O 0.08556(16) 0.3663(7) 0.11072(13)
H4_8 H 0.0701 0.3564 0.1332
H5_8 H 0.0676 0.2855 0.0979
O7_8 O 0.18575(16) 0.4512(6) 0.10445(12)
H7_8 H 0.2030 0.4823 0.1249
H8_8 H 0.2089 0.4190 0.0882
O10_4 O 0.15278(16) 0.1451(7) 0.05078(11)
O13_4 O 0.22279(16) 0.0761(6) 0.08013(11)
C1_8 C 0.2733(2) 0.0636(9) 0.00801(17)
H3_8 H 0.2927 0.0851 0.0297
C3_8 C 0.1977(2) 0.0969(8) 0.04921(17)
C4_8 C 0.2220(2) 0.0647(9) 0.01128(17)
C6_8 C 0.2957(2) 0.0308(9) 0.97293(16)
H9_8 H 0.3301 0.0330 0.9712
C7_8 C 0.1934(2) 0.0298(9) 0.97890(17)
H10_8 H 0.1590 0.0305 0.9808
C16_8 C 0.2033(2) 0.2236(9) 0.68983(17)
C17_8 C 0.1975(2) 0.0969(8) 0.75652(16)
H15_8 H 0.1632 0.0931 0.7536
C18_8 C 0.2268(2) 0.1603(9) 0.72657(16)
C19_8 C 0.2780(2) 0.1631(9) 0.73131(17)
H16_8 H 0.2980 0.2069 0.7115
C20_8 C 0.2996(3) 0.1018(8) 0.76486(16)
H17_8 H 0.3340 0.1017 0.7671
C21_8 C 0.2187(2) 0.0391(9) 0.79065(17)
C22_8 C 0.2705(2) 0.0395(9) 0.79566(16)
C24_8 C 0.2699(2) 0.0105(8) 0.86746(16)
H19_8 H 0.2386 0.0628 0.8678
C2_7 C 0.7159(2) 0.9936(9) 0.55659(17)
H6_7 H 0.6964 0.9686 0.5781
C5_7 C 0.7677(2) 0.9945(8) 0.56007(16)
C8_7 C 0.8392(2) 0.8809(8) 0.59835(16)
H11_7 H 0.8536 0.8432 0.5753
C9_7 C 0.7924(2) 0.9611(9) 0.59769(16)
C10_7 C 0.8649(2) 0.8559(9) 0.63319(16)
C11_7 C 0.8409(2) 0.9047(8) 0.66771(16)
H12_7 H 0.8568 0.8844 0.6911
C12_7 C 0.9933(3) 0.7195(9) 0.59877(18)
C14_7 C 0.9864(2) 0.6450(10) 0.66597(19)
H18_7 H 0.6985 0.9994 0.6894
C23_7 C 0.7938(2) 0.9828(8) 0.66758(16)
C25_7 C 0.9452(2) 0.7911(9) 0.59957(17)
H20_7 H 0.9321 0.8433 0.5774
C26_7 C 0.9384(3) 0.7139(9) 0.66680(18)
H21_7 H 0.9205 0.7127 0.6897
C27_7 C 0.9167(2) 0.7853(9) 0.63316(17)
O3_8 O 0.17733(17) 0.8507(6) 0.14214(12)
H1_8 H 0.1645 0.7684 0.1266
H2_8 H 0.2095 0.8347 0.1392
O8_8 O 0.08793(17) 0.9436(7) 0.09883(12)
H13_8 H 0.0115 0.7781 0.0760
C13_8 C 0.0636(3) 0.9476(9) 0.13020(18)
H14_8 H 0.0003 0.9016 0.1884
C15_8 C 0.0139(2) 0.8550(10) 0.13190(18)
C2_8 C 0.2841(2) 0.0064(9) 0.44341(17)
H6_8 H 0.3036 0.0314 0.4219
C5_8 C 0.2323(2) 0.0055(8) 0.43993(16)
C8_8 C 0.1608(2) 0.1191(8) 0.40165(16)
H11_8 H 0.1464 0.1568 0.4247
C9_8 C 0.2076(2) 0.0389(9) 0.40231(16)
C10_8 C 0.1351(2) 0.1441(9) 0.36681(16)
C11_8 C 0.1591(2) 0.0953(8) 0.33229(16)
H12_8 H 0.1432 0.1156 0.3089
C12_8 C 0.0067(3) 0.2805(9) 0.40123(18)
C14_8 C 0.0136(2) 0.3550(10) 0.33403(19)
H18_8 H 0.3015 0.0006 0.3106
C23_8 C 0.2062(2) 0.0172(8) 0.33242(16)
C25_8 C 0.0548(2) 0.2089(9) 0.40043(17)
H20_8 H 0.0679 0.1567 0.4226
C26_8 C 0.0616(3) 0.2861(9) 0.33320(18)
H21_8 H 0.0795 0.2873 0.3103
C27_8 C 0.0833(2) 0.2147(9) 0.36684(17)
loop_
_geom_bond_atom_site_label_1
_geom_bond_atom_site_label_2
_geom_bond_site_symmetry_1
_geom_bond_site_symmetry_2
O1 C3 1_555 1_555
C1 H3 1_555 1_555
C3 C4 1_555 1_555
C4 C1 1_555 1_555
O9 C3 1_555 1_555
Eu2 O1 1_555 1_555
O9 Eu2 1_555 1_555
O2 C16 1_555 1_555
O5 C16 1_555 1_555
C2 H6 1_555 1_555
C5 C2 1_555 1_555
H9 C6 1_555 1_555
C7 C2 1_555 1_555
H10 C7 1_555 1_555
C8 H11 1_555 1_555
C9 C5 1_555 1_555
C10 C8 1_555 1_555
C11 C10 1_555 1_555
H12 C11 1_555 1_555
C16 C18 1_555 1_555
C17 H15 1_555 1_555
C18 C17 1_555 1_555
C19 C18 1_555 1_555
H16 C19 1_555 1_555
C20 C19 1_555 1_555
H17 C20 1_555 1_555
C21 C17 1_555 1_555
H18 C21 1_555 1_555
C22 C20 1_555 1_555
C23 C11 1_555 1_555
C24 C9 1_555 1_555
H19 C24 1_555 1_555
C25 C12 1_555 1_555
H20 C25 1_555 1_555
C26 C14 1_555 1_555
H21 C26 1_555 1_555
C27 C10 1_555 1_555
Eu3 O2 1_555 1_555
O5 Eu3 1_555 1_555
C5 C6 1_555 1_555
C8 C9 1_555 1_555
C21 C22 1_555 1_555
C22 C23 1_555 1_555
C23 C24 1_555 1_555
C25 C27 1_555 1_555
C26 C27 1_555 1_555
Eu2 O3 1_555 1_555
O3 H1 1_555 1_555
H2 O3 1_555 1_555
O4 Eu2 1_555 1_555
O6 Eu2 1_555 1_555
H4 O6 1_555 1_555
H5 O6 1_555 1_555
C2_2 H6_2 1_555 1_555
O7 Eu2 1_555 1_555
H7 O7 1_555 1_555
H8 O7 1_555 1_555
C5_2 C2_2 1_555 1_555
C8_2 H11_2 1_555 1_555
C9_2 C5_2 1_555 1_555
C10_2 C8_2 1_555 1_555
C11_2 C10_2 1_555 1_555
H12_2 C11_2 1_555 1_555
O8 Eu2 1_555 1_555
C12_2 H13 1_555 1_555
C13 O4 1_555 1_555
C14_2 H14 1_555 1_555
C15 C12_2 1_555 1_555
C23_2 C11_2 1_555 1_555
C25_2 C12_2 1_555 1_555
H20_2 C25_2 1_555 1_555
C26_2 C14_2 1_555 1_555
H21_2 C26_2 1_555 1_555
C27_2 C10_2 1_555 1_555
O11 Eu2 1_555 1_555
O12 Eu2 1_555 1_555
C8_2 C9_2 1_555 1_555
O8 C13 1_555 1_555
C13 C15 1_555 1_555
C14_2 C15 1_555 1_555
C25_2 C27_2 1_555 1_555
C26_2 C27_2 1_555 1_555
O4_2 Eu3 1_555 1_555
O6_2 Eu3 1_555 1_555
H4_2 O6_2 1_555 1_555
H5_2 O6_2 1_555 1_555
O7_2 Eu3 1_555 1_555
H7_2 O7_2 1_555 1_555
H8_2 O7_2 1_555 1_555
O10 Eu3 1_555 1_555
O13 Eu3 1_555 1_555
O10 C3_2 1_555 1_555
O11 C16_2 1_555 1_555
O12 C16_2 1_555 1_555
C1_2 H3_2 1_555 1_555
C3_2 C4_2 1_555 1_555
C4_2 C1_2 1_555 1_555
C6_2 C1_2 1_555 1_555
H9_2 C6_2 1_555 1_555
H10_2 C7_2 1_555 1_555
O13 C3_2 1_555 1_555
C16_2 C18_2 1_555 1_555
C17_2 H15_2 1_555 1_555
C18_2 C17_2 1_555 1_555
C19_2 C18_2 1_555 1_555
H16_2 C19_2 1_555 1_555
C20_2 C19_2 1_555 1_555
H17_2 C20_2 1_555 1_555
C21_2 C17_2 1_555 1_555
C22_2 C20_2 1_555 1_555
H19_2 C24_2 1_555 1_555
C4_2 C7_2 1_555 1_555
C21_2 C22_2 1_555 1_555
O3_2 H1_2 1_555 1_555
H2_2 O3_2 1_555 1_555
O8_2 C13_2 1_555 1_555
C13_2 C15_2 1_555 1_555
O4_3 Eu1 1_555 1_555
O6_3 Eu1 1_555 1_555
H4_3 O6_3 1_555 1_555
H5_3 O6_3 1_555 1_555
O7_3 Eu1 1_555 1_555
H7_3 O7_3 1_555 1_555
H8_3 O7_3 1_555 1_555
O10_2 Eu1 1_555 1_555
O11_2 Eu1 1_555 1_555
O12_2 Eu1 1_555 1_555
O13_2 Eu1 1_555 1_555
O2_2 C16_3 1_555 1_555
O5_2 C16_3 1_555 1_555
H9_3 C6_3 1_555 1_555
H10_3 C7_3 1_555 1_555
C16_3 C18_3 1_555 1_555
C17_3 H15_3 1_555 1_555
C18_3 C17_3 1_555 1_555
C19_3 C18_3 1_555 1_555
H16_3 C19_3 1_555 1_555
C20_3 C19_3 1_555 1_555
H17_3 C20_3 1_555 1_555
C21_3 C17_3 1_555 1_555
C22_3 C20_3 1_555 1_555
H19_3 C24_3 1_555 1_555
Eu3_2 O2_2 1_555 1_555
O5_2 Eu3_2 1_555 1_555
C21_3 C22_3 1_555 1_555
O10_2 C3_3 1_555 1_555
C1_3 H3_3 1_555 1_555
C3_3 C4_3 1_555 1_555
C4_3 C1_3 1_555 1_555
O13_2 C3_3 1_555 1_555
O1_2 C3_4 1_555 1_555
O11_2 C16_4 1_555 1_555
O3_3 H1_3 1_555 1_555
H2_3 O3_3 1_555 1_555
O12_2 C16_4 1_555 1_555
C1_4 H3_4 1_555 1_555
C2_3 H6_3 1_555 1_555
C3_4 C4_4 1_555 1_555
C4_4 C1_4 1_555 1_555
C5_3 C2_3 1_555 1_555
C6_4 C1_4 1_555 1_555
H9_4 C6_4 1_555 1_555
C7_4 C2_3 1_555 1_555
H10_4 C7_4 1_555 1_555
C8_3 H11_3 1_555 1_555
C9_3 C5_3 1_555 1_555
C10_3 C8_3 1_555 1_555
C11_3 C10_3 1_555 1_555
H12_3 C11_3 1_555 1_555
C12_3 H13_3 1_555 1_555
C14_3 H14_3 1_555 1_555
C15_3 C12_3 1_555 1_555
O9_2 C3_4 1_555 1_555
C16_4 C18_4 1_555 1_555
C17_4 H15_4 1_555 1_555
C18_4 C17_4 1_555 1_555
C19_4 C18_4 1_555 1_555
H16_4 C19_4 1_555 1_555
C20_4 C19_4 1_555 1_555
H17_4 C20_4 1_555 1_555
C21_4 C17_4 1_555 1_555
H18_3 C21_4 1_555 1_555
C22_4 C20_4 1_555 1_555
C23_3 C11_3 1_555 1_555
C24_4 C9_3 1_555 1_555
H19_4 C24_4 1_555 1_555
C25_3 C12_3 1_555 1_555
H20_3 C25_3 1_555 1_555
C26_3 C14_3 1_555 1_555
H21_3 C26_3 1_555 1_555
C27_3 C10_3 1_555 1_555
Eu3_2 O1_2 1_555 1_555
C4_4 C7_4 1_555 1_555
C5_3 C6_4 1_555 1_555
C8_3 C9_3 1_555 1_555
O8_3 C13_3 1_555 1_555
C13_3 C15_3 1_555 1_555
C14_3 C15_3 1_555 1_555
O9_2 Eu3_2 1_555 1_555
C21_4 C22_4 1_555 1_555
C22_4 C23_3 1_555 1_555
C23_3 C24_4 1_555 1_555
C25_3 C27_3 1_555 1_555
C26_3 C27_3 1_555 1_555
Eu3_2 O3_4 1_555 1_555
O3_4 H1_4 1_555 1_555
H2_4 O3_4 1_555 1_555
O4_4 Eu3_2 1_555 1_555
O6_4 Eu3_2 1_555 1_555
H4_4 O6_4 1_555 1_555
H5_4 O6_4 1_555 1_555
O7_4 Eu3_2 1_555 1_555
H7_4 O7_4 1_555 1_555
H8_4 O7_4 1_555 1_555
O8_4 Eu3_2 1_555 1_555
C13_4 O4_4 1_555 1_555
O8_4 C13_4 1_555 1_555
C13_4 C15_4 1_555 1_555
O4_5 Eu1_2 1_555 1_555
O6_5 Eu1_2 1_555 1_555
H4_5 O6_5 1_555 1_555
H5_5 O6_5 1_555 1_555
O7_5 Eu1_2 1_555 1_555
H7_5 O7_5 1_555 1_555
H8_5 O7_5 1_555 1_555
O10_3 Eu1_2 1_555 1_555
O11_3 Eu1_2 1_555 1_555
O12_3 Eu1_2 1_555 1_555
O13_3 Eu1_2 1_555 1_555
O10_3 C3_5 1_555 1_555
O2_3 C16_5 1_555 1_555
O5_3 C16_5 1_555 1_555
C1_5 H3_5 1_555 1_555
C3_5 C4_5 1_555 1_555
C4_5 C1_5 1_555 1_555
C6_5 C1_5 1_555 1_555
H9_5 C6_5 1_555 1_555
H10_5 C7_5 1_555 1_555
O13_3 C3_5 1_555 1_555
C16_5 C18_5 1_555 1_555
C17_5 H15_5 1_555 1_555
C18_5 C17_5 1_555 1_555
C19_5 C18_5 1_555 1_555
H16_5 C19_5 1_555 1_555
C20_5 C19_5 1_555 1_555
H17_5 C20_5 1_555 1_555
C21_5 C17_5 1_555 1_555
C22_5 C20_5 1_555 1_555
H19_5 C24_5 1_555 1_555
Eu3_3 O2_3 1_555 1_555
O5_3 Eu3_3 1_555 1_555
C4_5 C7_5 1_555 1_555
C21_5 C22_5 1_555 1_555
O11_3 C16_6 1_555 1_555
O12_3 C16_6 1_555 1_555
C2_4 H6_4 1_555 1_555
C5_4 C2_4 1_555 1_555
H9_6 C6_6 1_555 1_555
C7_6 C2_4 1_555 1_555
H10_6 C7_6 1_555 1_555
C8_4 H11_4 1_555 1_555
C9_4 C5_4 1_555 1_555
C10_4 C8_4 1_555 1_555
C11_4 C10_4 1_555 1_555
H12_4 C11_4 1_555 1_555
C16_6 C18_6 1_555 1_555
C17_6 H15_6 1_555 1_555
C18_6 C17_6 1_555 1_555
C19_6 C18_6 1_555 1_555
H16_6 C19_6 1_555 1_555
C20_6 C19_6 1_555 1_555
H17_6 C20_6 1_555 1_555
C21_6 C17_6 1_555 1_555
H18_4 C21_6 1_555 1_555
C22_6 C20_6 1_555 1_555
C23_4 C11_4 1_555 1_555
C24_6 C9_4 1_555 1_555
H19_6 C24_6 1_555 1_555
C25_4 C12_4 1_555 1_555
H20_4 C25_4 1_555 1_555
C26_4 C14_4 1_555 1_555
H21_4 C26_4 1_555 1_555
C27_4 C10_4 1_555 1_555
C5_4 C6_6 1_555 1_555
C8_4 C9_4 1_555 1_555
C21_6 C22_6 1_555 1_555
C22_6 C23_4 1_555 1_555
C23_4 C24_6 1_555 1_555
C25_4 C27_4 1_555 1_555
C26_4 C27_4 1_555 1_555
O1_3 C3_6 1_555 1_555
C1_6 H3_6 1_555 1_555
C3_6 C4_6 1_555 1_555
C4_6 C1_6 1_555 1_555
O9_3 C3_6 1_555 1_555
Eu3_3 O1_3 1_555 1_555
O9_3 Eu3_3 1_555 1_555
Eu3_3 O3_5 1_555 1_555
O3_5 H1_5 1_555 1_555
H2_5 O3_5 1_555 1_555
O4_6 Eu3_3 1_555 1_555
O6_6 Eu3_3 1_555 1_555
H4_6 O6_6 1_555 1_555
H5_6 O6_6 1_555 1_555
C2_5 H6_5 1_555 1_555
O7_6 Eu3_3 1_555 1_555
H7_6 O7_6 1_555 1_555
H8_6 O7_6 1_555 1_555
C5_5 C2_5 1_555 1_555
C8_5 H11_5 1_555 1_555
C9_5 C5_5 1_555 1_555
C10_5 C8_5 1_555 1_555
C11_5 C10_5 1_555 1_555
H12_5 C11_5 1_555 1_555
O8_5 Eu3_3 1_555 1_555
C12_5 H13_5 1_555 1_555
C13_5 O4_6 1_555 1_555
C14_5 H14_5 1_555 1_555
C15_5 C12_5 1_555 1_555
C23_5 C11_5 1_555 1_555
C25_5 C12_5 1_555 1_555
H20_5 C25_5 1_555 1_555
C26_5 C14_5 1_555 1_555
H21_5 C26_5 1_555 1_555
C27_5 C10_5 1_555 1_555
C8_5 C9_5 1_555 1_555
O8_5 C13_5 1_555 1_555
C13_5 C15_5 1_555 1_555
C14_5 C15_5 1_555 1_555
C25_5 C27_5 1_555 1_555
C26_5 C27_5 1_555 1_555
O1_4 C3_7 1_555 1_555
O2_4 C16_7 1_555 1_555
O3_6 H1_6 1_555 1_555
H2_6 O3_6 1_555 1_555
O5_4 C16_7 1_555 1_555
C1_7 H3_7 1_555 1_555
C2_6 H6_6 1_555 1_555
C3_7 C4_7 1_555 1_555
C4_7 C1_7 1_555 1_555
C5_6 C2_6 1_555 1_555
C6_7 C1_7 1_555 1_555
H9_7 C6_7 1_555 1_555
C7_7 C2_6 1_555 1_555
H10_7 C7_7 1_555 1_555
C8_6 H11_6 1_555 1_555
C9_6 C5_6 1_555 1_555
C10_6 C8_6 1_555 1_555
C11_6 C10_6 1_555 1_555
H12_6 C11_6 1_555 1_555
C12_6 H13_6 1_555 1_555
C14_6 H14_6 1_555 1_555
C15_6 C12_6 1_555 1_555
O9_4 C3_7 1_555 1_555
C16_7 C18_7 1_555 1_555
C17_7 H15_7 1_555 1_555
C18_7 C17_7 1_555 1_555
C19_7 C18_7 1_555 1_555
H16_7 C19_7 1_555 1_555
C20_7 C19_7 1_555 1_555
H17_7 C20_7 1_555 1_555
C21_7 C17_7 1_555 1_555
H18_6 C21_7 1_555 1_555
C22_7 C20_7 1_555 1_555
C23_6 C11_6 1_555 1_555
C24_7 C9_6 1_555 1_555
H19_7 C24_7 1_555 1_555
C25_6 C12_6 1_555 1_555
H20_6 C25_6 1_555 1_555
C26_6 C14_6 1_555 1_555
H21_6 C26_6 1_555 1_555
C27_6 C10_6 1_555 1_555
Eu2_2 O1_4 1_555 1_555
Eu3_4 O2_4 1_555 1_555
O5_4 Eu3_4 1_555 1_555
C4_7 C7_7 1_555 1_555
C5_6 C6_7 1_555 1_555
C8_6 C9_6 1_555 1_555
O8_6 C13_6 1_555 1_555
C13_6 C15_6 1_555 1_555
C14_6 C15_6 1_555 1_555
O9_4 Eu2_2 1_555 1_555
C21_7 C22_7 1_555 1_555
C22_7 C23_6 1_555 1_555
C23_6 C24_7 1_555 1_555
C25_6 C27_6 1_555 1_555
C26_6 C27_6 1_555 1_555
Eu2_2 O3_7 1_555 1_555
O3_7 H1_7 1_555 1_555
H2_7 O3_7 1_555 1_555
O4_7 Eu2_2 1_555 1_555
O6_7 Eu2_2 1_555 1_555
H4_7 O6_7 1_555 1_555
H5_7 O6_7 1_555 1_555
O7_7 Eu2_2 1_555 1_555
H7_7 O7_7 1_555 1_555
H8_7 O7_7 1_555 1_555
O8_7 Eu2_2 1_555 1_555
C13_7 O4_7 1_555 1_555
O11_4 Eu2_2 1_555 1_555
O12_4 Eu2_2 1_555 1_555
O8_7 C13_7 1_555 1_555
C13_7 C15_7 1_555 1_555
O4_8 Eu3_4 1_555 1_555
O6_8 Eu3_4 1_555 1_555
H4_8 O6_8 1_555 1_555
H5_8 O6_8 1_555 1_555
O7_8 Eu3_4 1_555 1_555
H7_8 O7_8 1_555 1_555
H8_8 O7_8 1_555 1_555
O10_4 Eu3_4 1_555 1_555
O13_4 Eu3_4 1_555 1_555
O10_4 C3_8 1_555 1_555
C1_8 H3_8 1_555 1_555
C3_8 C4_8 1_555 1_555
C4_8 C1_8 1_555 1_555
O13_4 C3_8 1_555 1_555
O11_4 C16_8 1_555 1_555
O12_4 C16_8 1_555 1_555
H9_8 C6_8 1_555 1_555
H10_8 C7_8 1_555 1_555
C16_8 C18_8 1_555 1_555
C17_8 H15_8 1_555 1_555
C18_8 C17_8 1_555 1_555
C19_8 C18_8 1_555 1_555
H16_8 C19_8 1_555 1_555
C20_8 C19_8 1_555 1_555
H17_8 C20_8 1_555 1_555
C21_8 C17_8 1_555 1_555
C22_8 C20_8 1_555 1_555
H19_8 C24_8 1_555 1_555
C21_8 C22_8 1_555 1_555
C2_7 H6_7 1_555 1_555
C5_7 C2_7 1_555 1_555
C8_7 H11_7 1_555 1_555
C9_7 C5_7 1_555 1_555
C10_7 C8_7 1_555 1_555
C11_7 C10_7 1_555 1_555
H12_7 C11_7 1_555 1_555
C23_7 C11_7 1_555 1_555
C25_7 C12_7 1_555 1_555
H20_7 C25_7 1_555 1_555
C26_7 C14_7 1_555 1_555
H21_7 C26_7 1_555 1_555
C27_7 C10_7 1_555 1_555
C8_7 C9_7 1_555 1_555
C25_7 C27_7 1_555 1_555
C26_7 C27_7 1_555 1_555
O3_8 H1_8 1_555 1_555
H2_8 O3_8 1_555 1_555
O8_8 C13_8 1_555 1_555
C13_8 C15_8 1_555 1_555
C2_8 H6_8 1_555 1_555
C5_8 C2_8 1_555 1_555
C8_8 H11_8 1_555 1_555
C9_8 C5_8 1_555 1_555
C10_8 C8_8 1_555 1_555
C11_8 C10_8 1_555 1_555
H12_8 C11_8 1_555 1_555
C23_8 C11_8 1_555 1_555
C25_8 C12_8 1_555 1_555
H20_8 C25_8 1_555 1_555
C26_8 C14_8 1_555 1_555
H21_8 C26_8 1_555 1_555
C27_8 C10_8 1_555 1_555
C8_8 C9_8 1_555 1_555
C25_8 C27_8 1_555 1_555
C26_8 C27_8 1_555 1_555

#END
