
###############################################################################
#
# This file contains modified crystal structure data generated from the
# MOF subset of the Cambridge Structural Database (CSD) v543 
# hosted by the Cambridge Crystallographic Data Centre (CCDC).
#
# This work is licensed under the Creative Commons
# Attribution-NonCommercial-ShareAlike 4.0 International License.
# To view a copy of this license, visit
# http://creativecommons.org/licenses/by-nc-sa/4.0/
# or send a letter to
# Creative Commons, PO Box 1866, Mountain View, CA 94042, USA.
#
# CIF created using the CSD Python API on 29 September 2022
# The structure has been converted into the P1 space group
# The structure has a 3D framework
# The original CSD entry AXUBOL is in the cubic crystal system
# The framework has been calculated to contain at least 10.0% void space
# The void calculation uses a probe of radius 1.32A, grid spacing 0.4
# H atom positions have been added when not included in the experimental data
# Generated hydrogen atom positions removed from atoms on special positions
#
###############################################################################

data_AXUBOL
_chemical_formula_moiety         '(C240 H186 N24 Ni18 O102)n'
_symmetry_cell_setting           triclinic
_symmetry_space_group_name_H-M   'P 1'
_symmetry_Int_Tables_number      1
_space_group_name_Hall           'P 1'
loop_
_symmetry_equiv_pos_site_id
_symmetry_equiv_pos_as_xyz
1 x,y,z
_cell_length_a                   21.6735(5)
_cell_length_b                   21.6735(5)
_cell_length_c                   21.6735(5)
_cell_angle_alpha                90
_cell_angle_beta                 90
_cell_angle_gamma                90
_cell_volume                     10180.9
loop_
_atom_site_label
_atom_site_type_symbol
_atom_site_fract_x
_atom_site_fract_y
_atom_site_fract_z
C3 C 0.0154(7) 0.2612(13) 0.0617(7)
H2 H 0.0263 0.2680 0.1036
Ni8 Ni 0.26762(3) 0.38063(4) 0.26762(3)
Ni9 Ni 0.26762(3) 0.26762(3) 0.38063(4)
Ni19 Ni 0.38063(4) 0.26762(3) 0.26762(3)
N15 N 0.2308(2) 0.4629(2) 0.2308(2)
N16 N 0.2308(2) 0.2308(2) 0.4629(2)
O6 O 0.3036(3) 0.3036(3) 0.3036(3)
O33 O 0.3514(2) 0.42365(19) 0.2578(3)
O34 O 0.2578(3) 0.42365(19) 0.3514(2)
O35 O 0.3514(2) 0.2578(3) 0.42365(19)
O36 O 0.2578(3) 0.3514(2) 0.42365(19)
O42 O 0.17842(17) 0.34701(19) 0.2735(2)
O43 O 0.17842(17) 0.2735(2) 0.34701(19)
O52 O 0.2735(2) 0.34701(19) 0.17842(17)
O53 O 0.34701(19) 0.2735(2) 0.17842(17)
O67 O 0.2735(2) 0.17842(17) 0.34701(19)
C30 C 0.0617(7) 0.2612(13) 0.0154(7)
C33 C 0.0154(7) 0.0617(7) 0.2612(13)
C34 C 0.0617(7) 0.0154(7) 0.2612(13)
C41 C 0.2612(13) 0.0617(7) 0.0154(7)
C42 C 0.2612(13) 0.0154(7) 0.0617(7)
H13 H 0.1036 0.2680 0.0263
H14 H 0.0263 0.1036 0.2680
H17 H 0.1036 0.0263 0.2680
H22 H 0.2680 0.1036 0.0263
H25 H 0.2680 0.0263 0.1036
C53 C 0.1534(3) 0.3077(3) 0.3077(3)
C58 C 0.3077(3) 0.3077(3) 0.1534(3)
C64 C 0.0849(3) 0.2983(3) 0.2983(3)
C69 C 0.2983(3) 0.2983(3) 0.0849(3)
C76 C 0.0528(3) 0.3311(3) 0.2540(3)
C77 C 0.0528(3) 0.2540(3) 0.3311(3)
C86 C 0.2540(3) 0.3311(3) 0.0528(3)
C87 C 0.3311(3) 0.2540(3) 0.0528(3)
H35 H 0.0717 0.3645 0.2328
H36 H 0.0717 0.2328 0.3645
H45 H 0.2328 0.3645 0.0717
H46 H 0.3645 0.2328 0.0717
Ni3 Ni 0.23238(3) 0.23238(3) 0.88063(4)
Ni4 Ni 0.11937(4) 0.23238(3) 0.76762(3)
Ni17 Ni 0.23238(3) 0.11937(4) 0.76762(3)
Ni18 Ni 0.61937(4) 0.26762(3) 0.73238(3)
Ni21 Ni 0.26762(3) 0.61937(4) 0.73238(3)
N6 N 0.5371(2) 0.2308(2) 0.7692(2)
N7 N 0.2692(2) 0.2692(2) 0.9629(2)
N8 N 0.2308(2) 0.5371(2) 0.7692(2)
N10 N 0.0371(2) 0.2692(2) 0.7308(2)
O4 O 0.1964(3) 0.1964(3) 0.8036(3)
O11 O 0.1486(2) 0.2422(3) 0.92365(19)
O12 O 0.07635(19) 0.2422(3) 0.8514(2)
O21 O 0.2422(3) 0.1486(2) 0.92365(19)
O22 O 0.2422(3) 0.07635(19) 0.8514(2)
O25 O 0.07635(19) 0.1486(2) 0.7578(3)
O26 O 0.1486(2) 0.07635(19) 0.7578(3)
O50 O 0.32158(17) 0.2265(2) 0.84701(19)
O51 O 0.32158(17) 0.15299(19) 0.7735(2)
O54 O 0.2265(2) 0.32158(17) 0.84701(19)
O55 O 0.15299(19) 0.32158(17) 0.7735(2)
O56 O 0.15299(19) 0.2265(2) 0.67842(17)
O57 O 0.2265(2) 0.15299(19) 0.67842(17)
C8 C 0.0945(3) 0.2446(4) 0.9055(3)
C13 C 0.2446(4) 0.0945(3) 0.9055(3)
C15 C 0.0945(3) 0.0945(3) 0.7554(4)
C19 C 0.0458(3) 0.2514(4) 0.9542(3)
C24 C 0.2514(4) 0.0458(3) 0.9542(3)
C26 C 0.0458(3) 0.0458(3) 0.7486(4)
C57 C 0.3466(3) 0.1923(3) 0.8077(3)
C59 C 0.1923(3) 0.3466(3) 0.8077(3)
C60 C 0.1923(3) 0.1923(3) 0.6534(3)
C68 C 0.4151(3) 0.2017(3) 0.7983(3)
C70 C 0.2017(3) 0.4151(3) 0.7983(3)
C71 C 0.2017(3) 0.2017(3) 0.5849(3)
C84 C 0.4472(3) 0.2460(3) 0.8311(3)
C85 C 0.4472(3) 0.1689(3) 0.7540(3)
C88 C 0.2460(3) 0.4472(3) 0.8311(3)
C89 C 0.1689(3) 0.4472(3) 0.7540(3)
C90 C 0.1689(3) 0.2460(3) 0.5528(3)
C91 C 0.2460(3) 0.1689(3) 0.5528(3)
H43 H 0.4283 0.2672 0.8645
H44 H 0.4283 0.1355 0.7328
H47 H 0.2672 0.4283 0.8645
H48 H 0.1355 0.4283 0.7328
H49 H 0.1355 0.2672 0.5717
H50 H 0.2672 0.1355 0.5717
C107 C 0.5078(3) 0.2589(3) 0.8142(3)
C108 C 0.5078(3) 0.1858(3) 0.7411(3)
C109 C 0.2411(3) 0.3142(3) 0.9922(3)
C110 C 0.3142(3) 0.2411(3) 0.9922(3)
C111 C 0.2589(3) 0.5078(3) 0.8142(3)
C112 C 0.1858(3) 0.5078(3) 0.7411(3)
C113 C 0.1858(3) 0.2589(3) 0.4922(3)
C114 C 0.2589(3) 0.1858(3) 0.4922(3)
C115 C 0.0078(3) 0.3142(3) 0.7589(3)
C116 C 0.0078(3) 0.2411(3) 0.6858(3)
H66 H 0.5293 0.2898 0.8366
H67 H 0.5293 0.1634 0.7102
H68 H 0.2102 0.3366 0.9707
H69 H 0.3366 0.2102 0.9707
H70 H 0.2898 0.5293 0.8366
H71 H 0.1634 0.5293 0.7102
H72 H 0.1634 0.2898 0.4707
H73 H 0.2898 0.1634 0.4707
H74 H 0.0293 0.3366 0.7898
H75 H 0.0293 0.2102 0.6634
Ni6 Ni 0.23238(3) 0.88063(4) 0.23238(3)
Ni7 Ni 0.11937(4) 0.76762(3) 0.23238(3)
Ni20 Ni 0.23238(3) 0.76762(3) 0.11937(4)
Ni27 Ni 0.61937(4) 0.73238(3) 0.26762(3)
N12 N 0.5371(2) 0.7692(2) 0.2308(2)
N13 N 0.2692(2) 0.9629(2) 0.2692(2)
N14 N 0.0371(2) 0.7308(2) 0.2692(2)
O5 O 0.1964(3) 0.8036(3) 0.1964(3)
O15 O 0.1486(2) 0.92365(19) 0.2422(3)
O16 O 0.07635(19) 0.8514(2) 0.2422(3)
O23 O 0.2422(3) 0.92365(19) 0.1486(2)
O24 O 0.2422(3) 0.8514(2) 0.07635(19)
O29 O 0.07635(19) 0.7578(3) 0.1486(2)
O30 O 0.1486(2) 0.7578(3) 0.07635(19)
O62 O 0.32158(17) 0.84701(19) 0.2265(2)
O63 O 0.32158(17) 0.7735(2) 0.15299(19)
O64 O 0.2265(2) 0.84701(19) 0.32158(17)
O65 O 0.15299(19) 0.67842(17) 0.2265(2)
O66 O 0.15299(19) 0.7735(2) 0.32158(17)
C10 C 0.0945(3) 0.9055(3) 0.2446(4)
C14 C 0.2446(4) 0.9055(3) 0.0945(3)
C17 C 0.0945(3) 0.7554(4) 0.0945(3)
C21 C 0.0458(3) 0.9542(3) 0.2514(4)
C25 C 0.2514(4) 0.9542(3) 0.0458(3)
C28 C 0.0458(3) 0.7486(4) 0.0458(3)
C63 C 0.3466(3) 0.8077(3) 0.1923(3)
C74 C 0.4151(3) 0.7983(3) 0.2017(3)
C96 C 0.4472(3) 0.8311(3) 0.2460(3)
C97 C 0.4472(3) 0.7540(3) 0.1689(3)
H55 H 0.4283 0.8645 0.2672
H56 H 0.4283 0.7328 0.1355
C119 C 0.5078(3) 0.8142(3) 0.2589(3)
C120 C 0.5078(3) 0.7411(3) 0.1858(3)
H78 H 0.5293 0.8366 0.2898
H79 H 0.5293 0.7102 0.1634
C43 C 0.2612(13) 0.9383(7) 0.9846(7)
C44 C 0.2612(13) 0.9846(7) 0.9383(7)
C47 C 0.0154(7) 0.9383(7) 0.7388(13)
C48 C 0.0617(7) 0.9846(7) 0.7388(13)
C51 C 0.0154(7) 0.7388(13) 0.9383(7)
C52 C 0.0617(7) 0.7388(13) 0.9846(7)
H23 H 0.2680 0.8964 0.9737
H24 H 0.2680 0.9737 0.8964
H27 H 0.0263 0.8964 0.7320
H28 H 0.1036 0.9737 0.7320
H31 H 0.0263 0.7320 0.8964
H32 H 0.1036 0.7320 0.9737
Ni1 Ni 0.88063(4) 0.23238(3) 0.23238(3)
N1 N 0.7692(2) 0.2308(2) 0.5371(2)
O1 O 0.8036(3) 0.1964(3) 0.1964(3)
O2 O 0.92365(19) 0.2422(3) 0.1486(2)
O3 O 0.84701(19) 0.2265(2) 0.32158(17)
C1 C 0.9055(3) 0.2446(4) 0.0945(3)
C2 C 0.9542(3) 0.2514(4) 0.0458(3)
C4 C 0.8077(3) 0.1923(3) 0.3466(3)
C5 C 0.7983(3) 0.2017(3) 0.4151(3)
C6 C 0.8311(3) 0.2460(3) 0.4472(3)
H3 H 0.8645 0.2672 0.4283
C7 C 0.8142(3) 0.2589(3) 0.5078(3)
H4 H 0.8366 0.2898 0.5293
Ni2 Ni 0.76762(3) 0.23238(3) 0.11937(4)
Ni5 Ni 0.76762(3) 0.11937(4) 0.23238(3)
Ni10 Ni 0.73238(3) 0.26762(3) 0.61937(4)
Ni11 Ni 0.73238(3) 0.61937(4) 0.26762(3)
N2 N 0.9629(2) 0.2692(2) 0.2692(2)
N3 N 0.7692(2) 0.5371(2) 0.2308(2)
N4 N 0.4629(2) 0.2308(2) 0.2308(2)
N5 N 0.7308(2) 0.2692(2) 0.0371(2)
N11 N 0.7308(2) 0.0371(2) 0.2692(2)
O7 O 0.6964(3) 0.3036(3) 0.6964(3)
O8 O 0.6964(3) 0.6964(3) 0.3036(3)
O10 O 0.8514(2) 0.2422(3) 0.07635(19)
O13 O 0.92365(19) 0.1486(2) 0.2422(3)
O14 O 0.8514(2) 0.07635(19) 0.2422(3)
O17 O 0.7578(3) 0.1486(2) 0.07635(19)
O18 O 0.7578(3) 0.07635(19) 0.1486(2)
O37 O 0.7422(3) 0.3514(2) 0.57635(19)
O38 O 0.6486(2) 0.2578(3) 0.57635(19)
O39 O 0.7422(3) 0.57635(19) 0.3514(2)
O40 O 0.6486(2) 0.57635(19) 0.2578(3)
O41 O 0.7735(2) 0.15299(19) 0.32158(17)
O44 O 0.84701(19) 0.32158(17) 0.2265(2)
O45 O 0.7735(2) 0.32158(17) 0.15299(19)
O46 O 0.67842(17) 0.2265(2) 0.15299(19)
O47 O 0.67842(17) 0.15299(19) 0.2265(2)
O68 O 0.7265(2) 0.17842(17) 0.65299(19)
O69 O 0.82158(17) 0.2735(2) 0.65299(19)
O70 O 0.7265(2) 0.65299(19) 0.17842(17)
O71 O 0.82158(17) 0.65299(19) 0.2735(2)
C9 C 0.9055(3) 0.0945(3) 0.2446(4)
C11 C 0.7554(4) 0.0945(3) 0.0945(3)
C20 C 0.9542(3) 0.0458(3) 0.2514(4)
C22 C 0.7486(4) 0.0458(3) 0.0458(3)
C54 C 0.8077(3) 0.3466(3) 0.1923(3)
C55 C 0.6534(3) 0.1923(3) 0.1923(3)
C65 C 0.7983(3) 0.4151(3) 0.2017(3)
C66 C 0.5849(3) 0.2017(3) 0.2017(3)
C75 C 0.7540(3) 0.1689(3) 0.4472(3)
C78 C 0.8311(3) 0.4472(3) 0.2460(3)
C79 C 0.7540(3) 0.4472(3) 0.1689(3)
C80 C 0.5528(3) 0.2460(3) 0.1689(3)
C81 C 0.5528(3) 0.1689(3) 0.2460(3)
H34 H 0.7328 0.1355 0.4283
H37 H 0.8645 0.4283 0.2672
H38 H 0.7328 0.4283 0.1355
H39 H 0.5717 0.2672 0.1355
H40 H 0.5717 0.1355 0.2672
C98 C 0.7411(3) 0.1858(3) 0.5078(3)
C99 C 0.9922(3) 0.3142(3) 0.2411(3)
C100 C 0.9922(3) 0.2411(3) 0.3142(3)
C101 C 0.8142(3) 0.5078(3) 0.2589(3)
C102 C 0.7411(3) 0.5078(3) 0.1858(3)
C103 C 0.4922(3) 0.2589(3) 0.1858(3)
C104 C 0.4922(3) 0.1858(3) 0.2589(3)
C105 C 0.7589(3) 0.3142(3) 0.0078(3)
C106 C 0.6858(3) 0.2411(3) 0.0078(3)
C117 C 0.7589(3) 0.0078(3) 0.3142(3)
C118 C 0.6858(3) 0.0078(3) 0.2411(3)
H57 H 0.7102 0.1634 0.5293
H58 H 0.9707 0.3366 0.2102
H59 H 0.9707 0.2102 0.3366
H60 H 0.8366 0.5293 0.2898
H61 H 0.7102 0.5293 0.1634
H62 H 0.4707 0.2898 0.1634
H63 H 0.4707 0.1634 0.2898
H64 H 0.7898 0.3366 0.0293
H65 H 0.6634 0.2102 0.0293
H76 H 0.7898 0.0293 0.3366
H77 H 0.6634 0.0293 0.2102
Ni14 Ni 0.73238(3) 0.38063(4) 0.73238(3)
O48 O 0.7265(2) 0.34701(19) 0.82158(17)
O49 O 0.65299(19) 0.2735(2) 0.82158(17)
O58 O 0.82158(17) 0.34701(19) 0.7265(2)
C31 C 0.9846(7) 0.2612(13) 0.9383(7)
C32 C 0.9383(7) 0.2612(13) 0.9846(7)
C37 C 0.7388(13) 0.0617(7) 0.9846(7)
C38 C 0.7388(13) 0.0154(7) 0.9383(7)
C45 C 0.9846(7) 0.0617(7) 0.7388(13)
C46 C 0.9383(7) 0.0154(7) 0.7388(13)
H11 H 0.9737 0.2680 0.8964
H12 H 0.8964 0.2680 0.9737
H18 H 0.7320 0.1036 0.9737
H21 H 0.7320 0.0263 0.8964
H26 H 0.9737 0.1036 0.7320
H29 H 0.8964 0.0263 0.7320
C56 C 0.6923(3) 0.3077(3) 0.8466(3)
C61 C 0.8466(3) 0.3077(3) 0.6923(3)
C67 C 0.7017(3) 0.2983(3) 0.9151(3)
C72 C 0.9151(3) 0.2983(3) 0.7017(3)
C82 C 0.7460(3) 0.3311(3) 0.9472(3)
C83 C 0.6689(3) 0.2540(3) 0.9472(3)
C92 C 0.9472(3) 0.3311(3) 0.7460(3)
C93 C 0.9472(3) 0.2540(3) 0.6689(3)
H41 H 0.7672 0.3645 0.9283
H42 H 0.6355 0.2328 0.9283
H51 H 0.9283 0.3645 0.7672
H52 H 0.9283 0.2328 0.6355
Ni25 Ni 0.73238(3) 0.73238(3) 0.38063(4)
O60 O 0.7265(2) 0.82158(17) 0.34701(19)
O61 O 0.65299(19) 0.82158(17) 0.2735(2)
C35 C 0.9846(7) 0.9383(7) 0.2612(13)
C36 C 0.9383(7) 0.9846(7) 0.2612(13)
C39 C 0.7388(13) 0.9383(7) 0.0154(7)
C40 C 0.7388(13) 0.9846(7) 0.0617(7)
C49 C 0.9846(7) 0.7388(13) 0.0617(7)
C50 C 0.9383(7) 0.7388(13) 0.0154(7)
H15 H 0.9737 0.8964 0.2680
H16 H 0.8964 0.9737 0.2680
H19 H 0.7320 0.8964 0.0263
H20 H 0.7320 0.9737 0.1036
H30 H 0.9737 0.7320 0.1036
H33 H 0.8964 0.7320 0.0263
C62 C 0.6923(3) 0.8466(3) 0.3077(3)
C73 C 0.7017(3) 0.9151(3) 0.2983(3)
C94 C 0.7460(3) 0.9472(3) 0.3311(3)
C95 C 0.6689(3) 0.9472(3) 0.2540(3)
H53 H 0.7672 0.9283 0.3645
H54 H 0.6355 0.9283 0.2328
Ni12 Ni 0.76762(3) 0.88063(4) 0.76762(3)
Ni16 Ni 0.76762(3) 0.76762(3) 0.88063(4)
Ni24 Ni 0.88063(4) 0.76762(3) 0.76762(3)
N17 N 0.7308(2) 0.9629(2) 0.7308(2)
O9 O 0.8036(3) 0.8036(3) 0.8036(3)
O19 O 0.7578(3) 0.92365(19) 0.8514(2)
O20 O 0.7578(3) 0.8514(2) 0.92365(19)
O27 O 0.8514(2) 0.92365(19) 0.7578(3)
O28 O 0.92365(19) 0.8514(2) 0.7578(3)
O31 O 0.8514(2) 0.7578(3) 0.92365(19)
O32 O 0.92365(19) 0.7578(3) 0.8514(2)
O72 O 0.7735(2) 0.84701(19) 0.67842(17)
O73 O 0.67842(17) 0.84701(19) 0.7735(2)
C12 C 0.7554(4) 0.9055(3) 0.9055(3)
C16 C 0.9055(3) 0.9055(3) 0.7554(4)
C18 C 0.9055(3) 0.7554(4) 0.9055(3)
C23 C 0.7486(4) 0.9542(3) 0.9542(3)
C27 C 0.9542(3) 0.9542(3) 0.7486(4)
C29 C 0.9542(3) 0.7486(4) 0.9542(3)
O61_2 O 0.34701(19) 0.17842(17) 0.2735(2)
C62_2 C 0.3077(3) 0.1534(3) 0.3077(3)
C73_2 C 0.2983(3) 0.0849(3) 0.2983(3)
C94_2 C 0.2540(3) 0.0528(3) 0.3311(3)
C95_2 C 0.3311(3) 0.0528(3) 0.2540(3)
H53_2 H 0.2328 0.0717 0.3645
H54_2 H 0.3645 0.0717 0.2328
N17_2 N 0.2692(2) 0.0371(2) 0.7308(2)
N1_2 N 0.2308(2) 0.7692(2) 0.5371(2)
C4_2 C 0.1923(3) 0.8077(3) 0.3466(3)
C5_2 C 0.2017(3) 0.7983(3) 0.4151(3)
C6_2 C 0.1689(3) 0.7540(3) 0.4472(3)
H3_2 H 0.1355 0.7328 0.4283
C7_2 C 0.1858(3) 0.7411(3) 0.5078(3)
H4_2 H 0.1634 0.7102 0.5293
Ni10_2 Ni 0.26762(3) 0.73238(3) 0.61937(4)
N5_2 N 0.2692(2) 0.7308(2) 0.0371(2)
O7_2 O 0.3036(3) 0.6964(3) 0.6964(3)
O37_2 O 0.2578(3) 0.6486(2) 0.57635(19)
O38_2 O 0.3514(2) 0.7422(3) 0.57635(19)
O45_2 O 0.2265(2) 0.67842(17) 0.15299(19)
O68_2 O 0.2735(2) 0.82158(17) 0.65299(19)
O69_2 O 0.17842(17) 0.7265(2) 0.65299(19)
C54_2 C 0.1923(3) 0.6534(3) 0.1923(3)
C65_2 C 0.2017(3) 0.5849(3) 0.2017(3)
C75_2 C 0.2460(3) 0.8311(3) 0.4472(3)
C78_2 C 0.1689(3) 0.5528(3) 0.2460(3)
C79_2 C 0.2460(3) 0.5528(3) 0.1689(3)
H34_2 H 0.2672 0.8645 0.4283
H37_2 H 0.1355 0.5717 0.2672
H38_2 H 0.2672 0.5717 0.1355
C98_2 C 0.2589(3) 0.8142(3) 0.5078(3)
C99_2 C 0.0078(3) 0.6858(3) 0.2411(3)
C100_2 C 0.0078(3) 0.7589(3) 0.3142(3)
C101_2 C 0.1858(3) 0.4922(3) 0.2589(3)
C102_2 C 0.2589(3) 0.4922(3) 0.1858(3)
C105_2 C 0.2411(3) 0.6858(3) 0.0078(3)
C106_2 C 0.3142(3) 0.7589(3) 0.0078(3)
C117_2 C 0.2411(3) 0.9922(3) 0.3142(3)
C118_2 C 0.3142(3) 0.9922(3) 0.2411(3)
H57_2 H 0.2898 0.8366 0.5293
H58_2 H 0.0293 0.6634 0.2102
H59_2 H 0.0293 0.7898 0.3366
H60_2 H 0.1634 0.4707 0.2898
H61_2 H 0.2898 0.4707 0.1634
H64_2 H 0.2102 0.6634 0.0293
H65_2 H 0.3366 0.7898 0.0293
H76_2 H 0.2102 0.9707 0.3366
H77_2 H 0.3366 0.9707 0.2102
Ni15 Ni 0.38063(4) 0.73238(3) 0.73238(3)
O48_2 O 0.2735(2) 0.65299(19) 0.82158(17)
O49_2 O 0.34701(19) 0.7265(2) 0.82158(17)
O58_2 O 0.17842(17) 0.65299(19) 0.7265(2)
C56_2 C 0.3077(3) 0.6923(3) 0.8466(3)
C61_2 C 0.1534(3) 0.6923(3) 0.6923(3)
C67_2 C 0.2983(3) 0.7017(3) 0.9151(3)
C72_2 C 0.0849(3) 0.7017(3) 0.7017(3)
C82_2 C 0.2540(3) 0.6689(3) 0.9472(3)
C83_2 C 0.3311(3) 0.7460(3) 0.9472(3)
C92_2 C 0.0528(3) 0.6689(3) 0.7460(3)
C93_2 C 0.0528(3) 0.7460(3) 0.6689(3)
H41_2 H 0.2328 0.6355 0.9283
H42_2 H 0.3645 0.7672 0.9283
H51_2 H 0.0717 0.6355 0.7672
H52_2 H 0.0717 0.7672 0.6355
N16_2 N 0.7692(2) 0.7692(2) 0.4629(2)
O35_2 O 0.6486(2) 0.7422(3) 0.42365(19)
O36_2 O 0.7422(3) 0.6486(2) 0.42365(19)
O43_2 O 0.82158(17) 0.7265(2) 0.34701(19)
O53_2 O 0.65299(19) 0.7265(2) 0.17842(17)
C53_2 C 0.8466(3) 0.6923(3) 0.3077(3)
C58_2 C 0.6923(3) 0.6923(3) 0.1534(3)
C64_2 C 0.9151(3) 0.7017(3) 0.2983(3)
C69_2 C 0.7017(3) 0.7017(3) 0.0849(3)
C76_2 C 0.9472(3) 0.6689(3) 0.2540(3)
C77_2 C 0.9472(3) 0.7460(3) 0.3311(3)
C86_2 C 0.7460(3) 0.6689(3) 0.0528(3)
C87_2 C 0.6689(3) 0.7460(3) 0.0528(3)
H35_2 H 0.9283 0.6355 0.2328
H36_2 H 0.9283 0.7672 0.3645
H45_2 H 0.7672 0.6355 0.0717
H46_2 H 0.6355 0.7672 0.0717
N6_2 N 0.4629(2) 0.7692(2) 0.7692(2)
N7_2 N 0.7308(2) 0.7308(2) 0.9629(2)
N8_2 N 0.7692(2) 0.4629(2) 0.7692(2)
N10_2 N 0.9629(2) 0.7308(2) 0.7308(2)
O50_2 O 0.67842(17) 0.7735(2) 0.84701(19)
O54_2 O 0.7735(2) 0.67842(17) 0.84701(19)
O55_2 O 0.84701(19) 0.67842(17) 0.7735(2)
O56_2 O 0.84701(19) 0.7735(2) 0.67842(17)
C57_2 C 0.6534(3) 0.8077(3) 0.8077(3)
C59_2 C 0.8077(3) 0.6534(3) 0.8077(3)
C60_2 C 0.8077(3) 0.8077(3) 0.6534(3)
C68_2 C 0.5849(3) 0.7983(3) 0.7983(3)
C70_2 C 0.7983(3) 0.5849(3) 0.7983(3)
C71_2 C 0.7983(3) 0.7983(3) 0.5849(3)
C84_2 C 0.5528(3) 0.7540(3) 0.8311(3)
C85_2 C 0.5528(3) 0.8311(3) 0.7540(3)
C88_2 C 0.7540(3) 0.5528(3) 0.8311(3)
C89_2 C 0.8311(3) 0.5528(3) 0.7540(3)
C90_2 C 0.8311(3) 0.7540(3) 0.5528(3)
C91_2 C 0.7540(3) 0.8311(3) 0.5528(3)
H43_2 H 0.5717 0.7328 0.8645
H44_2 H 0.5717 0.8645 0.7328
H47_2 H 0.7328 0.5717 0.8645
H48_2 H 0.8645 0.5717 0.7328
H49_2 H 0.8645 0.7328 0.5717
H50_2 H 0.7328 0.8645 0.5717
C107_2 C 0.4922(3) 0.7411(3) 0.8142(3)
C108_2 C 0.4922(3) 0.8142(3) 0.7411(3)
C109_2 C 0.7589(3) 0.6858(3) 0.9922(3)
C110_2 C 0.6858(3) 0.7589(3) 0.9922(3)
C111_2 C 0.7411(3) 0.4922(3) 0.8142(3)
C112_2 C 0.8142(3) 0.4922(3) 0.7411(3)
C113_2 C 0.8142(3) 0.7411(3) 0.4922(3)
C114_2 C 0.7411(3) 0.8142(3) 0.4922(3)
C115_2 C 0.9922(3) 0.6858(3) 0.7589(3)
C116_2 C 0.9922(3) 0.7589(3) 0.6858(3)
H66_2 H 0.4707 0.7102 0.8366
H67_2 H 0.4707 0.8366 0.7102
H68_2 H 0.7898 0.6634 0.9707
H69_2 H 0.6634 0.7898 0.9707
H70_2 H 0.7102 0.4707 0.8366
H71_2 H 0.8366 0.4707 0.7102
H72_2 H 0.8366 0.7102 0.4707
H73_2 H 0.7102 0.8366 0.4707
H74_2 H 0.9707 0.6634 0.7898
H75_2 H 0.9707 0.7898 0.6634
O39_2 O 0.2578(3) 0.57635(19) 0.6486(2)
O40_2 O 0.3514(2) 0.57635(19) 0.7422(3)
C117_3 C 0.2411(3) 0.0078(3) 0.6858(3)
C118_3 C 0.3142(3) 0.0078(3) 0.7589(3)
H76_3 H 0.2102 0.0293 0.6634
H77_3 H 0.3366 0.0293 0.7898
O61_3 O 0.34701(19) 0.82158(17) 0.7265(2)
C62_3 C 0.3077(3) 0.8466(3) 0.6923(3)
C73_3 C 0.2983(3) 0.9151(3) 0.7017(3)
C94_3 C 0.2540(3) 0.9472(3) 0.6689(3)
C95_3 C 0.3311(3) 0.9472(3) 0.7460(3)
H53_3 H 0.2328 0.9283 0.6355
H54_3 H 0.3645 0.9283 0.7672
O33_2 O 0.6486(2) 0.42365(19) 0.7422(3)
O34_2 O 0.7422(3) 0.42365(19) 0.6486(2)
O61_4 O 0.65299(19) 0.17842(17) 0.7265(2)
C62_4 C 0.6923(3) 0.1534(3) 0.6923(3)
C73_4 C 0.7017(3) 0.0849(3) 0.7017(3)
C94_4 C 0.7460(3) 0.0528(3) 0.6689(3)
C95_4 C 0.6689(3) 0.0528(3) 0.7460(3)
H53_4 H 0.7672 0.0717 0.6355
H54_4 H 0.6355 0.0717 0.7672
C117_4 C 0.7589(3) 0.9922(3) 0.6858(3)
C118_4 C 0.6858(3) 0.9922(3) 0.7589(3)
H76_4 H 0.7898 0.9707 0.6634
H77_4 H 0.6634 0.9707 0.7898
O35_3 O 0.42365(19) 0.3514(2) 0.2578(3)
O36_3 O 0.42365(19) 0.2578(3) 0.3514(2)
O37_3 O 0.57635(19) 0.7422(3) 0.3514(2)
O38_3 O 0.57635(19) 0.6486(2) 0.2578(3)
O37_4 O 0.57635(19) 0.2578(3) 0.6486(2)
O38_4 O 0.57635(19) 0.3514(2) 0.7422(3)
O35_4 O 0.42365(19) 0.6486(2) 0.7422(3)
O36_4 O 0.42365(19) 0.7422(3) 0.6486(2)
C1_2 C 0.4055(3) 0.7446(4) 0.5945(3)
C2_2 C 0.4542(3) 0.7514(4) 0.5458(3)
C3_2 C 0.5154(7) 0.7612(13) 0.5617(7)
H2_2 H 0.5263 0.7680 0.6036
C8_2 C 0.5945(3) 0.7446(4) 0.4055(3)
C9_2 C 0.4055(3) 0.5945(3) 0.7446(4)
C10_2 C 0.5945(3) 0.4055(3) 0.7446(4)
C11_2 C 0.2554(4) 0.5945(3) 0.5945(3)
C12_2 C 0.2554(4) 0.4055(3) 0.4055(3)
C13_2 C 0.7446(4) 0.5945(3) 0.4055(3)
C14_2 C 0.7446(4) 0.4055(3) 0.5945(3)
C15_2 C 0.5945(3) 0.5945(3) 0.2554(4)
C16_2 C 0.4055(3) 0.4055(3) 0.2554(4)
C17_2 C 0.5945(3) 0.2554(4) 0.5945(3)
C18_2 C 0.4055(3) 0.2554(4) 0.4055(3)
C19_2 C 0.5458(3) 0.7514(4) 0.4542(3)
C20_2 C 0.4542(3) 0.5458(3) 0.7514(4)
C21_2 C 0.5458(3) 0.4542(3) 0.7514(4)
C22_2 C 0.2486(4) 0.5458(3) 0.5458(3)
C23_2 C 0.2486(4) 0.4542(3) 0.4542(3)
C24_2 C 0.7514(4) 0.5458(3) 0.4542(3)
C25_2 C 0.7514(4) 0.4542(3) 0.5458(3)
C26_2 C 0.5458(3) 0.5458(3) 0.2486(4)
C27_2 C 0.4542(3) 0.4542(3) 0.2486(4)
C28_2 C 0.5458(3) 0.2486(4) 0.5458(3)
C29_2 C 0.4542(3) 0.2486(4) 0.4542(3)
C30_2 C 0.5617(7) 0.7612(13) 0.5154(7)
C31_2 C 0.4846(7) 0.7612(13) 0.4383(7)
C32_2 C 0.4383(7) 0.7612(13) 0.4846(7)
C33_2 C 0.5154(7) 0.5617(7) 0.7612(13)
C34_2 C 0.5617(7) 0.5154(7) 0.7612(13)
C35_2 C 0.4846(7) 0.4383(7) 0.7612(13)
C36_2 C 0.4383(7) 0.4846(7) 0.7612(13)
C37_2 C 0.2388(13) 0.5617(7) 0.4846(7)
C38_2 C 0.2388(13) 0.5154(7) 0.4383(7)
C39_2 C 0.2388(13) 0.4383(7) 0.5154(7)
C40_2 C 0.2388(13) 0.4846(7) 0.5617(7)
C41_2 C 0.7612(13) 0.5617(7) 0.5154(7)
C42_2 C 0.7612(13) 0.5154(7) 0.5617(7)
C43_2 C 0.7612(13) 0.4383(7) 0.4846(7)
C44_2 C 0.7612(13) 0.4846(7) 0.4383(7)
C45_2 C 0.4846(7) 0.5617(7) 0.2388(13)
C46_2 C 0.4383(7) 0.5154(7) 0.2388(13)
C47_2 C 0.5154(7) 0.4383(7) 0.2388(13)
C48_2 C 0.5617(7) 0.4846(7) 0.2388(13)
C49_2 C 0.4846(7) 0.2388(13) 0.5617(7)
C50_2 C 0.4383(7) 0.2388(13) 0.5154(7)
C51_2 C 0.5154(7) 0.2388(13) 0.4383(7)
C52_2 C 0.5617(7) 0.2388(13) 0.4846(7)
H11_2 H 0.4737 0.7680 0.3964
H12_2 H 0.3964 0.7680 0.4737
H13_2 H 0.6036 0.7680 0.5263
H14_2 H 0.5263 0.6036 0.7680
H15_2 H 0.4737 0.3964 0.7680
H16_2 H 0.3964 0.4737 0.7680
H17_2 H 0.6036 0.5263 0.7680
H18_2 H 0.2320 0.6036 0.4737
H19_2 H 0.2320 0.3964 0.5263
H20_2 H 0.2320 0.4737 0.6036
H21_2 H 0.2320 0.5263 0.3964
H22_2 H 0.7680 0.6036 0.5263
H23_2 H 0.7680 0.3964 0.4737
H24_2 H 0.7680 0.4737 0.3964
H25_2 H 0.7680 0.5263 0.6036
H26_2 H 0.4737 0.6036 0.2320
H27_2 H 0.5263 0.3964 0.2320
H28_2 H 0.6036 0.4737 0.2320
H29_2 H 0.3964 0.5263 0.2320
H30_2 H 0.4737 0.2320 0.6036
H31_2 H 0.5263 0.2320 0.3964
H32_2 H 0.6036 0.2320 0.4737
H33_2 H 0.3964 0.2320 0.5263
loop_
_geom_bond_atom_site_label_1
_geom_bond_atom_site_label_2
_geom_bond_site_symmetry_1
_geom_bond_site_symmetry_2
H2 C3 1_555 1_555
Ni8 N15 1_555 1_555
Ni9 N16 1_555 1_555
Ni19 O6 1_555 1_555
O6 Ni8 1_555 1_555
O33 Ni8 1_555 1_555
O34 Ni8 1_555 1_555
O35 Ni9 1_555 1_555
O36 Ni9 1_555 1_555
O42 Ni8 1_555 1_555
O43 Ni9 1_555 1_555
O52 Ni8 1_555 1_555
O53 Ni19 1_555 1_555
O67 Ni9 1_555 1_555
C30 C3 1_555 1_555
H13 C30 1_555 1_555
H14 C33 1_555 1_555
H17 C34 1_555 1_555
H22 C41 1_555 1_555
H25 C42 1_555 1_555
C53 O42 1_555 1_555
C58 O52 1_555 1_555
C64 C53 1_555 1_555
C69 C58 1_555 1_555
C76 C64 1_555 1_555
C77 C64 1_555 1_555
C86 C69 1_555 1_555
C87 C69 1_555 1_555
H35 C76 1_555 1_555
H36 C77 1_555 1_555
H45 C86 1_555 1_555
H46 C87 1_555 1_555
Ni9 O6 1_555 1_555
O43 C53 1_555 1_555
O53 C58 1_555 1_555
C33 C34 1_555 1_555
C41 C42 1_555 1_555
Ni3 N7 1_555 1_555
Ni4 N10 1_555 1_555
Ni17 O4 1_555 1_555
Ni18 N6 1_555 1_555
Ni21 N8 1_555 1_555
N6 C107 1_555 1_555
N7 C109 1_555 1_555
N8 C111 1_555 1_555
N16 C113 1_555 1_555
N10 C115 1_555 1_555
O4 Ni3 1_555 1_555
O11 Ni3 1_555 1_555
O12 Ni4 1_555 1_555
O21 Ni3 1_555 1_555
O22 Ni17 1_555 1_555
O25 Ni4 1_555 1_555
O26 Ni17 1_555 1_555
O50 Ni3 1_555 1_555
O51 Ni17 1_555 1_555
O54 Ni3 1_555 1_555
O55 Ni4 1_555 1_555
O56 Ni4 1_555 1_555
O57 Ni17 1_555 1_555
C8 O11 1_555 1_555
C13 O21 1_555 1_555
C15 O25 1_555 1_555
C19 C8 1_555 1_555
C24 C13 1_555 1_555
C26 C15 1_555 1_555
C57 O50 1_555 1_555
C59 O54 1_555 1_555
C60 O56 1_555 1_555
C68 C57 1_555 1_555
C70 C59 1_555 1_555
C71 C60 1_555 1_555
C84 C68 1_555 1_555
C85 C68 1_555 1_555
C88 C70 1_555 1_555
C89 C70 1_555 1_555
C90 C71 1_555 1_555
C91 C71 1_555 1_555
H43 C84 1_555 1_555
H44 C85 1_555 1_555
H47 C88 1_555 1_555
H48 C89 1_555 1_555
H49 C90 1_555 1_555
H50 C91 1_555 1_555
C107 C84 1_555 1_555
C108 N6 1_555 1_555
C110 N7 1_555 1_555
C111 C88 1_555 1_555
C112 N8 1_555 1_555
C113 C90 1_555 1_555
C114 N16 1_555 1_555
C116 N10 1_555 1_555
H66 C107 1_555 1_555
H67 C108 1_555 1_555
H68 C109 1_555 1_555
H69 C110 1_555 1_555
H70 C111 1_555 1_555
H71 C112 1_555 1_555
H72 C113 1_555 1_555
H73 C114 1_555 1_555
H74 C115 1_555 1_555
H75 C116 1_555 1_555
Ni4 O4 1_555 1_555
O12 C8 1_555 1_555
O22 C13 1_555 1_555
O26 C15 1_555 1_555
O51 C57 1_555 1_555
O55 C59 1_555 1_555
O57 C60 1_555 1_555
C85 C108 1_555 1_555
C89 C112 1_555 1_555
C91 C114 1_555 1_555
Ni6 N13 1_555 1_555
Ni7 N14 1_555 1_555
Ni20 O5 1_555 1_555
Ni27 N12 1_555 1_555
N12 C119 1_555 1_555
O5 Ni6 1_555 1_555
O15 Ni6 1_555 1_555
O16 Ni7 1_555 1_555
O23 Ni6 1_555 1_555
O24 Ni20 1_555 1_555
O29 Ni7 1_555 1_555
O30 Ni20 1_555 1_555
O62 Ni6 1_555 1_555
O63 Ni20 1_555 1_555
O64 Ni6 1_555 1_555
O65 Ni7 1_555 1_555
O66 Ni7 1_555 1_555
C10 O15 1_555 1_555
C14 O23 1_555 1_555
C17 O29 1_555 1_555
C21 C10 1_555 1_555
C25 C14 1_555 1_555
C28 C17 1_555 1_555
C63 O62 1_555 1_555
C74 C63 1_555 1_555
C96 C74 1_555 1_555
C97 C74 1_555 1_555
H55 C96 1_555 1_555
H56 C97 1_555 1_555
C119 C96 1_555 1_555
C120 N12 1_555 1_555
H78 C119 1_555 1_555
H79 C120 1_555 1_555
Ni7 O5 1_555 1_555
O16 C10 1_555 1_555
O24 C14 1_555 1_555
O30 C17 1_555 1_555
O63 C63 1_555 1_555
C97 C120 1_555 1_555
H23 C43 1_555 1_555
H24 C44 1_555 1_555
H27 C47 1_555 1_555
H28 C48 1_555 1_555
H31 C51 1_555 1_555
H32 C52 1_555 1_555
C43 C44 1_555 1_555
C47 C48 1_555 1_555
C51 C52 1_555 1_555
Ni1 O1 1_555 1_555
N1 C7 1_555 1_555
O2 Ni1 1_555 1_555
O3 Ni1 1_555 1_555
C1 O2 1_555 1_555
C2 C1 1_555 1_555
C4 O3 1_555 1_555
C5 C4 1_555 1_555
C6 C5 1_555 1_555
H3 C6 1_555 1_555
C7 C6 1_555 1_555
H4 C7 1_555 1_555
Ni2 O1 1_555 1_555
Ni5 O1 1_555 1_555
Ni10 N1 1_555 1_555
Ni11 N3 1_555 1_555
Ni19 N4 1_555 1_555
N2 Ni1 1_555 1_555
N3 C101 1_555 1_555
N4 C103 1_555 1_555
N5 Ni2 1_555 1_555
N11 Ni5 1_555 1_555
O7 Ni10 1_555 1_555
O8 Ni11 1_555 1_555
O10 C1 1_555 1_555
O13 Ni1 1_555 1_555
O14 Ni5 1_555 1_555
O17 Ni2 1_555 1_555
O18 Ni5 1_555 1_555
O37 Ni10 1_555 1_555
O38 Ni10 1_555 1_555
O39 Ni11 1_555 1_555
O40 Ni11 1_555 1_555
O41 C4 1_555 1_555
O44 Ni1 1_555 1_555
O45 Ni2 1_555 1_555
O46 Ni2 1_555 1_555
O47 Ni5 1_555 1_555
O68 Ni10 1_555 1_555
O69 Ni10 1_555 1_555
O70 Ni11 1_555 1_555
O71 Ni11 1_555 1_555
C9 O13 1_555 1_555
C11 O17 1_555 1_555
C20 C9 1_555 1_555
C22 C11 1_555 1_555
C54 O44 1_555 1_555
C55 O46 1_555 1_555
C65 C54 1_555 1_555
C66 C55 1_555 1_555
C75 C5 1_555 1_555
C78 C65 1_555 1_555
C79 C65 1_555 1_555
C80 C66 1_555 1_555
C81 C66 1_555 1_555
H34 C75 1_555 1_555
H37 C78 1_555 1_555
H38 C79 1_555 1_555
H39 C80 1_555 1_555
H40 C81 1_555 1_555
C98 N1 1_555 1_555
C99 N2 1_555 1_555
C100 N2 1_555 1_555
C101 C78 1_555 1_555
C102 N3 1_555 1_555
C103 C80 1_555 1_555
C104 N4 1_555 1_555
C105 N5 1_555 1_555
C106 N5 1_555 1_555
C117 N11 1_555 1_555
C118 N11 1_555 1_555
H57 C98 1_555 1_555
H58 C99 1_555 1_555
H59 C100 1_555 1_555
H60 C101 1_555 1_555
H61 C102 1_555 1_555
H62 C103 1_555 1_555
H63 C104 1_555 1_555
H64 C105 1_555 1_555
H65 C106 1_555 1_555
H76 C117 1_555 1_555
H77 C118 1_555 1_555
Ni2 O10 1_555 1_555
Ni5 O41 1_555 1_555
O14 C9 1_555 1_555
O18 C11 1_555 1_555
O45 C54 1_555 1_555
O47 C55 1_555 1_555
C75 C98 1_555 1_555
C79 C102 1_555 1_555
C81 C104 1_555 1_555
Ni14 O48 1_555 1_555
Ni18 O49 1_555 1_555
O48 C56 1_555 1_555
O49 C56 1_555 1_555
O58 Ni14 1_555 1_555
O69 C61 1_555 1_555
H11 C31 1_555 1_555
H12 C32 1_555 1_555
H18 C37 1_555 1_555
H21 C38 1_555 1_555
H26 C45 1_555 1_555
H29 C46 1_555 1_555
C56 C67 1_555 1_555
C61 O58 1_555 1_555
C67 C82 1_555 1_555
C72 C61 1_555 1_555
C82 H41 1_555 1_555
C83 C67 1_555 1_555
C92 C72 1_555 1_555
C93 C72 1_555 1_555
H42 C83 1_555 1_555
H51 C92 1_555 1_555
H52 C93 1_555 1_555
C31 C32 1_555 1_555
C37 C38 1_555 1_555
C45 C46 1_555 1_555
Ni25 O60 1_555 1_555
Ni27 O61 1_555 1_555
O60 C62 1_555 1_555
O61 C62 1_555 1_555
H15 C35 1_555 1_555
H16 C36 1_555 1_555
H19 C39 1_555 1_555
H20 C40 1_555 1_555
H30 C49 1_555 1_555
H33 C50 1_555 1_555
C62 C73 1_555 1_555
C73 C94 1_555 1_555
C94 H53 1_555 1_555
C95 C73 1_555 1_555
H54 C95 1_555 1_555
C35 C36 1_555 1_555
C39 C40 1_555 1_555
C49 C50 1_555 1_555
Ni12 N17 1_555 1_555
Ni16 O9 1_555 1_555
Ni24 O9 1_555 1_555
O9 Ni12 1_555 1_555
O19 Ni12 1_555 1_555
O20 Ni16 1_555 1_555
O27 Ni12 1_555 1_555
O28 Ni24 1_555 1_555
O31 Ni16 1_555 1_555
O32 Ni24 1_555 1_555
O72 Ni12 1_555 1_555
O73 Ni12 1_555 1_555
C12 O19 1_555 1_555
C16 O27 1_555 1_555
C18 O31 1_555 1_555
C23 C12 1_555 1_555
C27 C16 1_555 1_555
C29 C18 1_555 1_555
O20 C12 1_555 1_555
O28 C16 1_555 1_555
O32 C18 1_555 1_555
Ni19 O61_2 1_555 1_555
O67 C62_2 1_555 1_555
O61_2 C62_2 1_555 1_555
C62_2 C73_2 1_555 1_555
C73_2 C94_2 1_555 1_555
C94_2 H53_2 1_555 1_555
C95_2 C73_2 1_555 1_555
H54_2 C95_2 1_555 1_555
Ni17 N17_2 1_555 1_555
N1_2 C7_2 1_555 1_555
C4_2 O66 1_555 1_555
C5_2 C4_2 1_555 1_555
C6_2 C5_2 1_555 1_555
H3_2 C6_2 1_555 1_555
C7_2 C6_2 1_555 1_555
H4_2 C7_2 1_555 1_555
Ni10_2 N1_2 1_555 1_555
N15 C101_2 1_555 1_555
N5_2 Ni20 1_555 1_555
O7_2 Ni10_2 1_555 1_555
O37_2 Ni10_2 1_555 1_555
O38_2 Ni10_2 1_555 1_555
O64 C4_2 1_555 1_555
O45_2 Ni20 1_555 1_555
O68_2 Ni10_2 1_555 1_555
O69_2 Ni10_2 1_555 1_555
C54_2 O65 1_555 1_555
C65_2 C54_2 1_555 1_555
C75_2 C5_2 1_555 1_555
C78_2 C65_2 1_555 1_555
C79_2 C65_2 1_555 1_555
H34_2 C75_2 1_555 1_555
H37_2 C78_2 1_555 1_555
H38_2 C79_2 1_555 1_555
C98_2 N1_2 1_555 1_555
C99_2 N14 1_555 1_555
C100_2 N14 1_555 1_555
C101_2 C78_2 1_555 1_555
C102_2 N15 1_555 1_555
C105_2 N5_2 1_555 1_555
C106_2 N5_2 1_555 1_555
C117_2 N13 1_555 1_555
C118_2 N13 1_555 1_555
H57_2 C98_2 1_555 1_555
H58_2 C99_2 1_555 1_555
H59_2 C100_2 1_555 1_555
H60_2 C101_2 1_555 1_555
H61_2 C102_2 1_555 1_555
H64_2 C105_2 1_555 1_555
H65_2 C106_2 1_555 1_555
H76_2 C117_2 1_555 1_555
H77_2 C118_2 1_555 1_555
O45_2 C54_2 1_555 1_555
C75_2 C98_2 1_555 1_555
C79_2 C102_2 1_555 1_555
Ni21 O48_2 1_555 1_555
Ni15 O49_2 1_555 1_555
O48_2 C56_2 1_555 1_555
O49_2 C56_2 1_555 1_555
O58_2 Ni21 1_555 1_555
O69_2 C61_2 1_555 1_555
C56_2 C67_2 1_555 1_555
C61_2 O58_2 1_555 1_555
C67_2 C82_2 1_555 1_555
C72_2 C61_2 1_555 1_555
C82_2 H41_2 1_555 1_555
C83_2 C67_2 1_555 1_555
C92_2 C72_2 1_555 1_555
C93_2 C72_2 1_555 1_555
H42_2 C83_2 1_555 1_555
H51_2 C92_2 1_555 1_555
H52_2 C93_2 1_555 1_555
Ni25 N16_2 1_555 1_555
Ni27 O8 1_555 1_555
O35_2 Ni25 1_555 1_555
O36_2 Ni25 1_555 1_555
O43_2 Ni25 1_555 1_555
O53_2 Ni27 1_555 1_555
C53_2 O71 1_555 1_555
C58_2 O70 1_555 1_555
C64_2 C53_2 1_555 1_555
C69_2 C58_2 1_555 1_555
C76_2 C64_2 1_555 1_555
C77_2 C64_2 1_555 1_555
C86_2 C69_2 1_555 1_555
C87_2 C69_2 1_555 1_555
H35_2 C76_2 1_555 1_555
H36_2 C77_2 1_555 1_555
H45_2 C86_2 1_555 1_555
H46_2 C87_2 1_555 1_555
Ni25 O8 1_555 1_555
O43_2 C53_2 1_555 1_555
O53_2 C58_2 1_555 1_555
Ni16 N7_2 1_555 1_555
Ni24 N10_2 1_555 1_555
Ni15 N6_2 1_555 1_555
Ni14 N8_2 1_555 1_555
N6_2 C107_2 1_555 1_555
N7_2 C109_2 1_555 1_555
N8_2 C111_2 1_555 1_555
N16_2 C113_2 1_555 1_555
N10_2 C115_2 1_555 1_555
O50_2 Ni16 1_555 1_555
O54_2 Ni16 1_555 1_555
O55_2 Ni24 1_555 1_555
O56_2 Ni24 1_555 1_555
C57_2 O50_2 1_555 1_555
C59_2 O54_2 1_555 1_555
C60_2 O56_2 1_555 1_555
C68_2 C57_2 1_555 1_555
C70_2 C59_2 1_555 1_555
C71_2 C60_2 1_555 1_555
C84_2 C68_2 1_555 1_555
C85_2 C68_2 1_555 1_555
C88_2 C70_2 1_555 1_555
C89_2 C70_2 1_555 1_555
C90_2 C71_2 1_555 1_555
C91_2 C71_2 1_555 1_555
H43_2 C84_2 1_555 1_555
H44_2 C85_2 1_555 1_555
H47_2 C88_2 1_555 1_555
H48_2 C89_2 1_555 1_555
H49_2 C90_2 1_555 1_555
H50_2 C91_2 1_555 1_555
C107_2 C84_2 1_555 1_555
C108_2 N6_2 1_555 1_555
C110_2 N7_2 1_555 1_555
C111_2 C88_2 1_555 1_555
C112_2 N8_2 1_555 1_555
C113_2 C90_2 1_555 1_555
C114_2 N16_2 1_555 1_555
C116_2 N10_2 1_555 1_555
H66_2 C107_2 1_555 1_555
H67_2 C108_2 1_555 1_555
H68_2 C109_2 1_555 1_555
H69_2 C110_2 1_555 1_555
H70_2 C111_2 1_555 1_555
H71_2 C112_2 1_555 1_555
H72_2 C113_2 1_555 1_555
H73_2 C114_2 1_555 1_555
H74_2 C115_2 1_555 1_555
H75_2 C116_2 1_555 1_555
O73 C57_2 1_555 1_555
O55_2 C59_2 1_555 1_555
O72 C60_2 1_555 1_555
C85_2 C108_2 1_555 1_555
C89_2 C112_2 1_555 1_555
C91_2 C114_2 1_555 1_555
O7_2 Ni21 1_555 1_555
O39_2 Ni21 1_555 1_555
O40_2 Ni21 1_555 1_555
C117_3 N17_2 1_555 1_555
C118_3 N17_2 1_555 1_555
H76_3 C117_3 1_555 1_555
H77_3 C118_3 1_555 1_555
Ni15 O61_3 1_555 1_555
O68_2 C62_3 1_555 1_555
O61_3 C62_3 1_555 1_555
C62_3 C73_3 1_555 1_555
C73_3 C94_3 1_555 1_555
C94_3 H53_3 1_555 1_555
C95_3 C73_3 1_555 1_555
H54_3 C95_3 1_555 1_555
Ni18 O7 1_555 1_555
O7 Ni14 1_555 1_555
O33_2 Ni14 1_555 1_555
O34_2 Ni14 1_555 1_555
Ni15 O7_2 1_555 1_555
Ni18 O61_4 1_555 1_555
O68 C62_4 1_555 1_555
O61_4 C62_4 1_555 1_555
C62_4 C73_4 1_555 1_555
C73_4 C94_4 1_555 1_555
C94_4 H53_4 1_555 1_555
C95_4 C73_4 1_555 1_555
H54_4 C95_4 1_555 1_555
C117_4 N17 1_555 1_555
C118_4 N17 1_555 1_555
H76_4 C117_4 1_555 1_555
H77_4 C118_4 1_555 1_555
O35_3 Ni19 1_555 1_555
O36_3 Ni19 1_555 1_555
O37_3 Ni27 1_555 1_555
O38_3 Ni27 1_555 1_555
O37_4 Ni18 1_555 1_555
O38_4 Ni18 1_555 1_555
O35_4 Ni15 1_555 1_555
O36_4 Ni15 1_555 1_555
C1_2 O36_4 1_555 1_555
C2_2 C1_2 1_555 1_555
C3_2 C2_2 1_555 1_555
H2_2 C3_2 1_555 1_555
O38_2 C1_2 1_555 1_555
C8_2 O35_2 1_555 1_555
C9_2 O35_4 1_555 1_555
C10_2 O33_2 1_555 1_555
C11_2 O37_2 1_555 1_555
C12_2 O34 1_555 1_555
C13_2 O36_2 1_555 1_555
C14_2 O34_2 1_555 1_555
C15_2 O38_3 1_555 1_555
C16_2 O33 1_555 1_555
C17_2 O37_4 1_555 1_555
C18_2 O35 1_555 1_555
C19_2 C8_2 1_555 1_555
C20_2 C9_2 1_555 1_555
C21_2 C10_2 1_555 1_555
C22_2 C11_2 1_555 1_555
C23_2 C12_2 1_555 1_555
C24_2 C13_2 1_555 1_555
C25_2 C14_2 1_555 1_555
C26_2 C15_2 1_555 1_555
C27_2 C16_2 1_555 1_555
C28_2 C17_2 1_555 1_555
C29_2 C18_2 1_555 1_555
C30_2 C3_2 1_555 1_555
C31_2 C19_2 1_555 1_555
C32_2 C2_2 1_555 1_555
C33_2 C20_2 1_555 1_555
C34_2 C21_2 1_555 1_555
C35_2 C21_2 1_555 1_555
C36_2 C20_2 1_555 1_555
C37_2 C22_2 1_555 1_555
C38_2 C23_2 1_555 1_555
C39_2 C23_2 1_555 1_555
C40_2 C22_2 1_555 1_555
C41_2 C24_2 1_555 1_555
C42_2 C25_2 1_555 1_555
C43_2 C25_2 1_555 1_555
C44_2 C24_2 1_555 1_555
C45_2 C26_2 1_555 1_555
C46_2 C27_2 1_555 1_555
C47_2 C27_2 1_555 1_555
C48_2 C26_2 1_555 1_555
C49_2 C28_2 1_555 1_555
C50_2 C29_2 1_555 1_555
C51_2 C29_2 1_555 1_555
C52_2 C28_2 1_555 1_555
H11_2 C31_2 1_555 1_555
H12_2 C32_2 1_555 1_555
H13_2 C30_2 1_555 1_555
H14_2 C33_2 1_555 1_555
H15_2 C35_2 1_555 1_555
H16_2 C36_2 1_555 1_555
H17_2 C34_2 1_555 1_555
H18_2 C37_2 1_555 1_555
H19_2 C39_2 1_555 1_555
H20_2 C40_2 1_555 1_555
H21_2 C38_2 1_555 1_555
H22_2 C41_2 1_555 1_555
H23_2 C43_2 1_555 1_555
H24_2 C44_2 1_555 1_555
H25_2 C42_2 1_555 1_555
H26_2 C45_2 1_555 1_555
H27_2 C47_2 1_555 1_555
H28_2 C48_2 1_555 1_555
H29_2 C46_2 1_555 1_555
H30_2 C49_2 1_555 1_555
H31_2 C51_2 1_555 1_555
H32_2 C52_2 1_555 1_555
H33_2 C50_2 1_555 1_555
O37_3 C8_2 1_555 1_555
O40_2 C9_2 1_555 1_555
O38_4 C10_2 1_555 1_555
O39_2 C11_2 1_555 1_555
O36 C12_2 1_555 1_555
O39 C13_2 1_555 1_555
O37 C14_2 1_555 1_555
O40 C15_2 1_555 1_555
O35_3 C16_2 1_555 1_555
O38 C17_2 1_555 1_555
O36_3 C18_2 1_555 1_555
C19_2 C30_2 1_555 1_555
C31_2 C32_2 1_555 1_555
C33_2 C34_2 1_555 1_555
C35_2 C36_2 1_555 1_555
C37_2 C38_2 1_555 1_555
C39_2 C40_2 1_555 1_555
C41_2 C42_2 1_555 1_555
C43_2 C44_2 1_555 1_555
C45_2 C46_2 1_555 1_555
C47_2 C48_2 1_555 1_555
C49_2 C50_2 1_555 1_555
C51_2 C52_2 1_555 1_555

#END
