
###############################################################################
#
# This file contains modified crystal structure data generated from the
# MOF subset of the Cambridge Structural Database (CSD) v543 
# hosted by the Cambridge Crystallographic Data Centre (CCDC).
#
# This work is licensed under the Creative Commons
# Attribution-NonCommercial-ShareAlike 4.0 International License.
# To view a copy of this license, visit
# http://creativecommons.org/licenses/by-nc-sa/4.0/
# or send a letter to
# Creative Commons, PO Box 1866, Mountain View, CA 94042, USA.
#
# CIF created using the CSD Python API on 29 September 2022
# The structure has been converted into the P1 space group
# The structure has a 3D framework
# The original CSD entry AXUKUB is in the rhombohedral crystal system
# The framework has been calculated to contain at least 10.0% void space
# The void calculation uses a probe of radius 1.32A, grid spacing 0.4
# The framework is charged, counterions have been retained in the structure
#
###############################################################################

data_AXUKUB
_chemical_formula_moiety         '(C144 H54 Cd9 O72 S18 18-)n'
_symmetry_cell_setting           triclinic
_symmetry_space_group_name_H-M   'P 1'
_symmetry_Int_Tables_number      1
_space_group_name_Hall           'P 1'
loop_
_symmetry_equiv_pos_site_id
_symmetry_equiv_pos_as_xyz
1 x,y,z
_cell_length_a                   23.0075(18)
_cell_length_b                   23.0075(18)
_cell_length_c                   20.808(2)
_cell_angle_alpha                90
_cell_angle_beta                 90
_cell_angle_gamma                120
_cell_volume                     9538.93
loop_
_atom_site_label
_atom_site_type_symbol
_atom_site_fract_x
_atom_site_fract_y
_atom_site_fract_z
Cd1 Cd 0.08815(2) 0.3333 0.3333
S1 S 0.14221(2) 0.28442(4) 0.25657(4)
C1 C 0.16429(8) 0.32858(16) 0.18191(13)
C2 C 0.11992(12) 0.34370(12) 0.15119(10)
H1 H 0.0787 0.3313 0.1700
C3 C 0.13658(12) 0.37709(13) 0.09273(10)
C4 C 0.19743(9) 0.39485(19) 0.06397(16)
H2 H 0.2093 0.4186 0.0255
C5 C 0.08764(13) 0.39264(14) 0.06074(10)
O1 O 0.02687(9) 0.35874(9) 0.07376(7)
O2 O 0.10909(9) 0.44039(11) 0.02053(9)
C6 C 0.22378(17) 0.34370(12) 0.15119(10)
H3 H 0.2526 0.3313 0.1700
C7 C 0.24051(18) 0.37709(13) 0.09273(10)
C8 C 0.30500(19) 0.39264(14) 0.06074(10)
O3 O 0.33187(13) 0.35874(9) 0.07376(7)
O4 O 0.33130(14) 0.44039(11) 0.02053(9)
Cd2 Cd -0.0000 0.42148(2) 0.0000
Cd3 Cd 0.24515(2) 0.3333 0.3333
Cd4 Cd 0.42152(2) 0.42148(2) 0.0000
S2 S 0.19112(4) 0.38225(4) 0.41010(4)
O6 O 0.02541(9) 0.36020(9) 0.25957(7)
O8 O 0.10706(11) 0.44242(9) 0.31280(9)
Cd2_2 Cd -0.0000 0.42148(2) 1.0000
Cd4_2 Cd 0.42152(2) 0.42148(2) 1.0000
Cd2_3 Cd 1.0000 0.42148(2) 0.0000
O5 O 0.99854(13) 0.30646(9) 0.40709(7)
O7 O 0.99797(14) 0.22424(9) 0.35386(9)
Cd2_4 Cd 1.0000 0.42148(2) 1.0000
Cd4_3 Cd 0.57852(2) 0.00003(3) 0.0000
Cd4_4 Cd 0.57852(2) 0.00003(3) 1.0000
Cd1_2 Cd 0.6667 0.75485(2) 0.3333
S1_2 S 0.71558(4) 0.85779(4) 0.25657(4)
C1_2 C 0.67142(16) 0.83571(18) 0.18191(13)
C2_2 C 0.65630(12) 0.77622(17) 0.15119(10)
H1_2 H 0.6687 0.7474 0.1700
C3_2 C 0.62291(13) 0.75949(18) 0.09273(10)
C4_2 C 0.60515(19) 0.80258(21) 0.06397(16)
H2_2 H 0.5814 0.7907 0.0255
C5_2 C 0.60736(14) 0.69500(19) 0.06074(10)
O1_2 O 0.64126(9) 0.66813(13) 0.07376(7)
O2_2 O 0.55961(11) 0.66870(14) 0.02053(9)
C6_2 C 0.65630(12) 0.88008(21) 0.15119(10)
H3_2 H 0.6687 0.9213 0.1700
C7_2 C 0.62291(13) 0.86342(22) 0.09273(10)
C8_2 C 0.60736(14) 0.91236(24) 0.06074(10)
O3_2 O 0.64126(9) 0.97313(16) 0.07376(7)
O4_2 O 0.55961(11) 0.89091(18) 0.02053(9)
Cd2_5 Cd 0.57852(2) 0.57848(2) 0.0000
Cd3_2 Cd 0.6667 0.91185(2) 0.3333
Cd4_5 Cd 0.57852(2) 1.00003(3) 0.0000
S2_2 S 0.61775(4) 0.80888(6) 0.41010(4)
O5_2 O 0.69354(9) 0.69207(16) 0.40709(7)
O6_2 O 0.63980(9) 0.66520(13) 0.25957(7)
O7_2 O 0.77576(9) 0.77372(17) 0.35386(9)
O8_2 O 0.55758(9) 0.66463(14) 0.31280(9)
Cd2_6 Cd 0.57852(2) 0.57848(2) 1.0000
Cd4_6 Cd 0.57852(2) 1.00003(3) 1.0000
Cd2_7 Cd 0.42152(2) 0.0000 0.0000
O5_3 O 0.30793(16) 0.00146(13) 0.40709(7)
O7_3 O 0.22628(17) 0.00203(14) 0.35386(9)
Cd2_8 Cd 0.42152(2) 0.0000 1.0000
Cd1_3 Cd 0.24515(2) 0.91185(2) 0.3333
S1_3 S 0.14221(4) 0.85779(2) 0.25657(4)
C1_3 C 0.16429(18) 0.83571(8) 0.18191(13)
C2_3 C 0.22378(17) 0.88008(12) 0.15119(10)
H1_3 H 0.2526 0.9213 0.1700
C3_3 C 0.24051(18) 0.86342(12) 0.09273(10)
C4_3 C 0.19742(21) 0.80257(9) 0.06397(16)
H2_3 H 0.2093 0.7907 0.0255
C5_3 C 0.30500(19) 0.91236(13) 0.06074(10)
O1_3 O 0.33187(13) 0.97313(9) 0.07376(7)
O2_3 O 0.33130(14) 0.89091(9) 0.02053(9)
C6_3 C 0.11992(21) 0.77622(17) 0.15119(10)
H3_3 H 0.0787 0.7474 0.1700
C7_3 C 0.13658(22) 0.75949(18) 0.09273(10)
C8_3 C 0.08764(24) 0.69500(19) 0.06074(10)
O3_3 O 0.02687(16) 0.66813(13) 0.07376(7)
O4_3 O 0.10909(18) 0.66870(14) 0.02053(9)
Cd2_9 Cd 0.42152(2) 1.0000 0.0000
Cd3_3 Cd 0.08815(2) 0.75485(2) 0.3333
Cd4_7 Cd -0.00003(3) 0.57848(2) 0.0000
S2_3 S 0.19112(6) 0.80888(4) 0.41010(4)
O6_3 O 0.33480(13) 0.97459(9) 0.25957(7)
O8_3 O 0.33537(14) 0.89294(11) 0.31280(9)
Cd2_10 Cd 0.42152(2) 1.0000 1.0000
Cd4_8 Cd -0.00003(3) 0.57848(2) 1.0000
Cd4_9 Cd 0.99997(3) 0.57848(2) 0.0000
Cd4_10 Cd 0.99997(3) 0.57848(2) 1.0000
Cd1_4 Cd 0.3333 0.08815(2) 0.6667
S1_4 S 0.28442(4) 0.14221(2) 0.74343(4)
C1_4 C 0.32858(16) 0.16429(8) 0.81809(13)
C2_4 C 0.34370(12) 0.11992(12) 0.84881(10)
H1_4 H 0.3313 0.0787 0.8300
C3_4 C 0.37709(13) 0.13658(12) 0.90727(10)
C4_4 C 0.39485(19) 0.19743(9) 0.93603(16)
H2_4 H 0.4186 0.2093 0.9745
C5_4 C 0.39264(14) 0.08764(13) 0.93926(10)
O1_4 O 0.35874(9) 0.02687(9) 0.92624(7)
O2_4 O 0.44039(11) 0.10909(9) 0.97947(9)
C6_4 C 0.34370(12) 0.22378(17) 0.84881(10)
H3_4 H 0.3313 0.2526 0.8300
C7_4 C 0.37709(13) 0.24051(18) 0.90727(10)
C8_4 C 0.39264(14) 0.30500(19) 0.93926(10)
O3_4 O 0.35874(9) 0.33187(13) 0.92624(7)
O4_4 O 0.44039(11) 0.33130(14) 0.97947(9)
Cd3_4 Cd 0.3333 0.24515(2) 0.6667
S2_4 S 0.38225(4) 0.19112(4) 0.58990(4)
O6_4 O 0.36020(9) 0.02541(9) 0.74043(7)
O8_4 O 0.44242(9) 0.10706(11) 0.68720(9)
O5_4 O 0.30646(9) 0.99854(13) 0.59291(7)
O7_4 O 0.22424(9) 0.99797(14) 0.64614(9)
O5_5 O 0.00146(13) 0.30793(16) 0.59291(7)
O7_5 O 0.00203(14) 0.22628(17) 0.64614(9)
Cd1_5 Cd 0.91185(2) 0.24515(2) 0.6667
S1_5 S 0.85779(2) 0.14221(4) 0.74343(4)
C1_5 C 0.83571(8) 0.16429(18) 0.81809(13)
C2_5 C 0.88008(12) 0.22378(17) 0.84881(10)
H1_5 H 0.9213 0.2526 0.8300
C3_5 C 0.86342(12) 0.24051(18) 0.90727(10)
C4_5 C 0.80257(9) 0.19742(21) 0.93603(16)
H2_5 H 0.7907 0.2093 0.9745
C5_5 C 0.91236(13) 0.30500(19) 0.93926(10)
O1_5 O 0.97313(9) 0.33187(13) 0.92624(7)
O2_5 O 0.89091(9) 0.33130(14) 0.97947(9)
C6_5 C 0.77622(17) 0.11992(21) 0.84881(10)
H3_5 H 0.7474 0.0787 0.8300
C7_5 C 0.75949(18) 0.13658(22) 0.90727(10)
C8_5 C 0.69500(19) 0.08764(24) 0.93926(10)
O3_5 O 0.66813(13) 0.02687(16) 0.92624(7)
O4_5 O 0.66870(14) 0.10909(18) 0.97947(9)
Cd3_5 Cd 0.75485(2) 0.08815(2) 0.6667
S2_5 S 0.80888(4) 0.19112(6) 0.58990(4)
O6_5 O 0.97459(9) 0.33480(13) 0.74043(7)
O8_5 O 0.89294(11) 0.33537(14) 0.68720(9)
Cd1_6 Cd 0.75485(2) 0.6667 0.6667
S1_6 S 0.85779(4) 0.71558(4) 0.74343(4)
C1_6 C 0.83571(18) 0.67142(16) 0.81809(13)
C2_6 C 0.77622(17) 0.65630(12) 0.84881(10)
H1_6 H 0.7474 0.6687 0.8300
C3_6 C 0.75949(18) 0.62291(13) 0.90727(10)
C4_6 C 0.80258(21) 0.60515(19) 0.93603(16)
H2_6 H 0.7907 0.5814 0.9745
C5_6 C 0.69500(19) 0.60736(14) 0.93926(10)
O1_6 O 0.66813(13) 0.64126(9) 0.92624(7)
O2_6 O 0.66870(14) 0.55961(11) 0.97947(9)
C6_6 C 0.88008(21) 0.65630(12) 0.84881(10)
H3_6 H 0.9213 0.6687 0.8300
C7_6 C 0.86342(22) 0.62291(13) 0.90727(10)
C8_6 C 0.91236(24) 0.60736(14) 0.93926(10)
O3_6 O 0.97313(16) 0.64126(9) 0.92624(7)
O4_6 O 0.89091(18) 0.55961(11) 0.97947(9)
Cd3_6 Cd 0.91185(2) 0.6667 0.6667
S2_6 S 0.80888(6) 0.61775(4) 0.58990(4)
O5_6 O 0.69207(16) 0.69354(9) 0.59291(7)
O6_6 O 0.66520(13) 0.63980(9) 0.74043(7)
O7_6 O 0.77372(17) 0.77576(9) 0.64614(9)
O8_6 O 0.66463(14) 0.55758(9) 0.68720(9)
C1_7 C 0.83096(8) 0.66191(16) 0.51524(13)
C2_7 C 0.78659(12) 0.67703(12) 0.48452(10)
H1_7 H 0.7454 0.6646 0.5033
C3_7 C 0.80325(12) 0.71042(13) 0.42606(10)
C4_7 C 0.86410(9) 0.72818(19) 0.39730(16)
H2_7 H 0.8760 0.7519 0.3588
C5_7 C 0.75431(13) 0.72597(14) 0.39407(10)
C6_7 C 0.89045(17) 0.67703(12) 0.48452(10)
H3_7 H 0.9193 0.6646 0.5033
C7_7 C 0.90718(18) 0.71042(13) 0.42606(10)
C8_7 C 0.97167(19) 0.72597(14) 0.39407(10)
O3_7 O 0.99854(13) 0.69207(9) 0.40709(7)
O4_7 O 0.99797(14) 0.77372(11) 0.35386(9)
C1_8 C 0.33809(16) 0.16904(18) 0.51524(13)
C2_8 C 0.32297(12) 0.10955(17) 0.48452(10)
H1_8 H 0.3354 0.0807 0.5033
C3_8 C 0.28958(13) 0.09282(18) 0.42606(10)
C4_8 C 0.27182(19) 0.13591(21) 0.39730(16)
H2_8 H 0.2481 0.1240 0.3588
C5_8 C 0.27403(14) 0.02833(19) 0.39407(10)
C6_8 C 0.32297(12) 0.21341(21) 0.48452(10)
H3_8 H 0.3354 0.2546 0.5033
C7_8 C 0.28958(13) 0.19675(22) 0.42606(10)
C8_8 C 0.27403(14) 0.24569(24) 0.39407(10)
O3_8 O 0.30793(9) 0.30646(16) 0.40709(7)
O4_8 O 0.22628(11) 0.22424(18) 0.35386(9)
C1_9 C 0.83096(18) 0.16904(8) 0.51524(13)
C2_9 C 0.89045(17) 0.21341(12) 0.48452(10)
H1_9 H 0.9193 0.2546 0.5033
C3_9 C 0.90718(18) 0.19675(12) 0.42606(10)
C4_9 C 0.86409(21) 0.13590(9) 0.39730(16)
H2_9 H 0.8760 0.1240 0.3588
C5_9 C 0.97167(19) 0.24569(13) 0.39407(10)
C6_9 C 0.78659(21) 0.10955(17) 0.48452(10)
H3_9 H 0.7454 0.0807 0.5033
C7_9 C 0.80325(22) 0.09282(18) 0.42606(10)
C8_9 C 0.75431(24) 0.02833(19) 0.39407(10)
O3_9 O 0.69354(16) 0.00146(13) 0.40709(7)
O4_9 O 0.77576(18) 0.00203(14) 0.35386(9)
C2_10 C 0.01037(12) 0.45325(12) 0.18214(10)
C3_10 C 0.04376(13) 0.46991(12) 0.24060(10)
C4_10 C 0.06152(19) 0.53076(9) 0.26936(16)
H2_10 H 0.0853 0.5426 0.3078
C5_10 C 0.05931(14) 0.42097(13) 0.27259(10)
C6_10 C 0.01037(12) 0.55711(17) 0.18214(10)
C7_10 C 0.04376(13) 0.57384(18) 0.24060(10)
C8_10 C 0.05931(14) 0.63833(19) 0.27259(10)
O3_10 O 0.02541(9) 0.66520(13) 0.25957(7)
O4_10 O 0.10706(11) 0.66463(14) 0.31280(9)
S2_7 S 0.04891(4) 0.52446(4) 0.92324(4)
S1_7 S 0.95109(4) 0.47554(2) 0.07676(4)
C1_10 C 0.99525(16) 0.49762(8) 0.15142(13)
H1_10 H 0.9980 0.4120 0.1633
H3_10 H 0.9980 0.5859 0.1633
S1_8 S 0.52446(2) 0.47554(4) 0.07676(4)
C1_11 C 0.50238(8) 0.49762(18) 0.15142(13)
C2_11 C 0.54675(12) 0.55711(17) 0.18214(10)
H1_11 H 0.5880 0.5859 0.1633
C3_11 C 0.53009(12) 0.57384(18) 0.24060(10)
C4_11 C 0.46924(9) 0.53075(21) 0.26936(16)
H2_11 H 0.4574 0.5426 0.3078
C5_11 C 0.57903(13) 0.63833(19) 0.27259(10)
C6_11 C 0.44289(17) 0.45325(21) 0.18214(10)
H3_11 H 0.4141 0.4120 0.1633
C7_11 C 0.42616(18) 0.46991(22) 0.24060(10)
C8_11 C 0.36167(19) 0.42097(24) 0.27259(10)
O3_11 O 0.33480(13) 0.36020(16) 0.25957(7)
O4_11 O 0.33537(14) 0.44242(18) 0.31280(9)
S2_8 S 0.47554(4) 0.52446(6) 0.92324(4)
S1_9 S 0.52446(4) 0.04891(4) 0.07676(4)
C1_12 C 0.50238(18) 0.00475(16) 0.15142(13)
H1_12 H 0.4141 0.0020 0.1633
H3_12 H 0.5880 0.0020 0.1633
C2_12 C 0.44289(17) 0.98963(12) 0.18214(10)
C3_12 C 0.42616(18) 0.95624(13) 0.24060(10)
C4_12 C 0.46925(21) 0.93848(19) 0.26936(16)
H2_12 H 0.4574 0.9147 0.3078
C5_12 C 0.36167(19) 0.94069(14) 0.27259(10)
C6_12 C 0.54675(21) 0.98963(12) 0.18214(10)
C7_12 C 0.53009(22) 0.95624(13) 0.24060(10)
C8_12 C 0.57903(24) 0.94069(14) 0.27259(10)
O3_12 O 0.63980(16) 0.97459(9) 0.25957(7)
O4_12 O 0.55758(18) 0.89294(11) 0.31280(9)
S2_9 S 0.47554(6) 0.95109(4) 0.92324(4)
C2_13 C 0.45325(12) 0.01037(12) 0.81786(10)
C3_13 C 0.46991(12) 0.04376(13) 0.75940(10)
C4_13 C 0.53076(9) 0.06152(19) 0.73064(16)
H2_13 H 0.5426 0.0853 0.6922
C5_13 C 0.42097(13) 0.05931(14) 0.72741(10)
C6_13 C 0.55711(17) 0.01037(12) 0.81786(10)
C7_13 C 0.57384(18) 0.04376(13) 0.75940(10)
C8_13 C 0.63833(19) 0.05931(14) 0.72741(10)
O3_13 O 0.66520(13) 0.02541(9) 0.74043(7)
O4_13 O 0.66463(14) 0.10706(11) 0.68720(9)
C1_13 C 0.49762(8) 0.99525(16) 0.84858(13)
H1_13 H 0.4120 0.9980 0.8367
H3_13 H 0.5859 0.9980 0.8367
C1_14 C 0.00475(16) 0.50238(18) 0.84858(13)
H1_14 H 0.0020 0.4141 0.8367
H3_14 H 0.0020 0.5880 0.8367
C2_14 C 0.98963(12) 0.44289(17) 0.81786(10)
C3_14 C 0.95624(13) 0.42616(18) 0.75940(10)
C4_14 C 0.93848(19) 0.46925(21) 0.73064(16)
H2_14 H 0.9147 0.4574 0.6922
C5_14 C 0.94069(14) 0.36167(19) 0.72741(10)
C6_14 C 0.98963(12) 0.54675(21) 0.81786(10)
C7_14 C 0.95624(13) 0.53009(22) 0.75940(10)
C8_14 C 0.94069(14) 0.57903(24) 0.72741(10)
O3_14 O 0.97459(9) 0.63980(16) 0.74043(7)
O4_14 O 0.89294(11) 0.55758(18) 0.68720(9)
C1_15 C 0.49762(18) 0.50238(8) 0.84858(13)
C2_15 C 0.55711(17) 0.54675(12) 0.81786(10)
H1_15 H 0.5859 0.5880 0.8367
C3_15 C 0.57384(18) 0.53009(12) 0.75940(10)
C4_15 C 0.53075(21) 0.46924(9) 0.73064(16)
H2_15 H 0.5426 0.4574 0.6922
C5_15 C 0.63833(19) 0.57903(13) 0.72741(10)
C6_15 C 0.45325(21) 0.44289(17) 0.81786(10)
H3_15 H 0.4120 0.4141 0.8367
C7_15 C 0.46991(22) 0.42616(18) 0.75940(10)
C8_15 C 0.42097(24) 0.36167(19) 0.72741(10)
O3_15 O 0.36020(16) 0.33480(13) 0.74043(7)
O4_15 O 0.44242(18) 0.33537(14) 0.68720(9)
C1_16 C 0.66191(16) 0.83096(8) 0.48476(13)
C2_16 C 0.67703(12) 0.78659(12) 0.51548(10)
H1_16 H 0.6646 0.7454 0.4967
C3_16 C 0.71042(13) 0.80325(12) 0.57394(10)
C4_16 C 0.72818(19) 0.86410(9) 0.60270(16)
H2_16 H 0.7519 0.8760 0.6412
C5_16 C 0.72597(14) 0.75431(13) 0.60593(10)
C6_16 C 0.67703(12) 0.89045(17) 0.51548(10)
H3_16 H 0.6646 0.9193 0.4967
C7_16 C 0.71042(13) 0.90718(18) 0.57394(10)
C8_16 C 0.72597(14) 0.97167(19) 0.60593(10)
O3_16 O 0.69207(9) 0.99854(13) 0.59291(7)
O4_16 O 0.77372(11) 0.99797(14) 0.64614(9)
C1_17 C 0.16904(8) 0.83096(18) 0.48476(13)
C2_17 C 0.21341(12) 0.89045(17) 0.51548(10)
H1_17 H 0.2546 0.9193 0.4967
C3_17 C 0.19675(12) 0.90718(18) 0.57394(10)
C4_17 C 0.13590(9) 0.86409(21) 0.60270(16)
H2_17 H 0.1240 0.8760 0.6412
C5_17 C 0.24569(13) 0.97167(19) 0.60593(10)
C6_17 C 0.10955(17) 0.78659(21) 0.51548(10)
H3_17 H 0.0807 0.7454 0.4967
C7_17 C 0.09282(18) 0.80325(22) 0.57394(10)
C8_17 C 0.02833(19) 0.75431(24) 0.60593(10)
O3_17 O 0.00146(13) 0.69354(16) 0.59291(7)
O4_17 O 0.00203(14) 0.77576(18) 0.64614(9)
C1_18 C 0.16904(18) 0.33809(16) 0.48476(13)
C2_18 C 0.10955(17) 0.32297(12) 0.51548(10)
H1_18 H 0.0807 0.3354 0.4967
C3_18 C 0.09282(18) 0.28958(13) 0.57394(10)
C4_18 C 0.13591(21) 0.27182(19) 0.60270(16)
H2_18 H 0.1240 0.2481 0.6412
C5_18 C 0.02833(19) 0.27403(14) 0.60593(10)
C6_18 C 0.21341(21) 0.32297(12) 0.51548(10)
H3_18 H 0.2546 0.3354 0.4967
C7_18 C 0.19675(22) 0.28958(13) 0.57394(10)
C8_18 C 0.24569(24) 0.27403(14) 0.60593(10)
O3_18 O 0.30646(16) 0.30793(9) 0.59291(7)
O4_18 O 0.22424(18) 0.22628(11) 0.64614(9)
loop_
_geom_bond_atom_site_label_1
_geom_bond_atom_site_label_2
_geom_bond_site_symmetry_1
_geom_bond_site_symmetry_2
Cd1 S1 1_555 1_555
S1 C1 1_555 1_555
C1 C2 1_555 1_555
C2 H1 1_555 1_555
C3 C2 1_555 1_555
C4 C3 1_555 1_555
H2 C4 1_555 1_555
C5 C3 1_555 1_555
O1 C5 1_555 1_555
O2 C5 1_555 1_555
C6 C1 1_555 1_555
H3 C6 1_555 1_555
C7 C4 1_555 1_555
C8 C7 1_555 1_555
O3 C8 1_555 1_555
O4 C8 1_555 1_555
Cd2 O1 1_555 1_555
Cd3 S1 1_555 1_555
Cd4 O3 1_555 1_555
S2 Cd1 1_555 1_555
O6 Cd1 1_555 1_555
O8 Cd1 1_555 1_555
O2 Cd2 1_555 1_555
C6 C7 1_555 1_555
O4 Cd4 1_555 1_555
Cd3 S2 1_555 1_555
Cd1_2 S1_2 1_555 1_555
S1_2 C1_2 1_555 1_555
C1_2 C2_2 1_555 1_555
C2_2 H1_2 1_555 1_555
C3_2 C2_2 1_555 1_555
C4_2 C3_2 1_555 1_555
H2_2 C4_2 1_555 1_555
C5_2 C3_2 1_555 1_555
O1_2 C5_2 1_555 1_555
O2_2 C5_2 1_555 1_555
C6_2 C1_2 1_555 1_555
H3_2 C6_2 1_555 1_555
C7_2 C4_2 1_555 1_555
C8_2 C7_2 1_555 1_555
O3_2 C8_2 1_555 1_555
O4_2 C8_2 1_555 1_555
Cd2_5 O1_2 1_555 1_555
Cd3_2 S1_2 1_555 1_555
Cd4_5 O3_2 1_555 1_555
S2_2 Cd1_2 1_555 1_555
O5_2 Cd1_2 1_555 1_555
O6_2 Cd1_2 1_555 1_555
O7_2 Cd1_2 1_555 1_555
O8_2 Cd1_2 1_555 1_555
O2_2 Cd2_5 1_555 1_555
C6_2 C7_2 1_555 1_555
O4_2 Cd4_5 1_555 1_555
Cd3_2 S2_2 1_555 1_555
Cd1_3 S1_3 1_555 1_555
S1_3 C1_3 1_555 1_555
C1_3 C2_3 1_555 1_555
C2_3 H1_3 1_555 1_555
C3_3 C2_3 1_555 1_555
C4_3 C3_3 1_555 1_555
H2_3 C4_3 1_555 1_555
C5_3 C3_3 1_555 1_555
O1_3 C5_3 1_555 1_555
O2_3 C5_3 1_555 1_555
C6_3 C1_3 1_555 1_555
H3_3 C6_3 1_555 1_555
C7_3 C4_3 1_555 1_555
C8_3 C7_3 1_555 1_555
O3_3 C8_3 1_555 1_555
O4_3 C8_3 1_555 1_555
Cd2_9 O1_3 1_555 1_555
Cd3_3 S1_3 1_555 1_555
Cd4_7 O3_3 1_555 1_555
S2_3 Cd1_3 1_555 1_555
O6_3 Cd1_3 1_555 1_555
O8_3 Cd1_3 1_555 1_555
O2_3 Cd2_9 1_555 1_555
C6_3 C7_3 1_555 1_555
O4_3 Cd4_7 1_555 1_555
Cd3_3 S2_3 1_555 1_555
Cd1_4 S1_4 1_555 1_555
S1_4 C1_4 1_555 1_555
C1_4 C2_4 1_555 1_555
C2_4 H1_4 1_555 1_555
C3_4 C2_4 1_555 1_555
C4_4 C3_4 1_555 1_555
H2_4 C4_4 1_555 1_555
C5_4 C3_4 1_555 1_555
O1_4 C5_4 1_555 1_555
O2_4 C5_4 1_555 1_555
C6_4 C1_4 1_555 1_555
H3_4 C6_4 1_555 1_555
C7_4 C4_4 1_555 1_555
C8_4 C7_4 1_555 1_555
O3_4 C8_4 1_555 1_555
O4_4 C8_4 1_555 1_555
Cd2_8 O1_4 1_555 1_555
Cd3_4 S1_4 1_555 1_555
Cd4_2 O3_4 1_555 1_555
S2_4 Cd1_4 1_555 1_555
O6_4 Cd1_4 1_555 1_555
O8_4 Cd1_4 1_555 1_555
O2_4 Cd2_8 1_555 1_555
C6_4 C7_4 1_555 1_555
O4_4 Cd4_2 1_555 1_555
Cd3_4 S2_4 1_555 1_555
Cd1_5 S1_5 1_555 1_555
S1_5 C1_5 1_555 1_555
C1_5 C2_5 1_555 1_555
C2_5 H1_5 1_555 1_555
C3_5 C2_5 1_555 1_555
C4_5 C3_5 1_555 1_555
H2_5 C4_5 1_555 1_555
C5_5 C3_5 1_555 1_555
O1_5 C5_5 1_555 1_555
O2_5 C5_5 1_555 1_555
C6_5 C1_5 1_555 1_555
H3_5 C6_5 1_555 1_555
C7_5 C4_5 1_555 1_555
C8_5 C7_5 1_555 1_555
O3_5 C8_5 1_555 1_555
O4_5 C8_5 1_555 1_555
Cd2_4 O1_5 1_555 1_555
Cd3_5 S1_5 1_555 1_555
Cd4_4 O3_5 1_555 1_555
S2_5 Cd1_5 1_555 1_555
O6_5 Cd1_5 1_555 1_555
O8_5 Cd1_5 1_555 1_555
O2_5 Cd2_4 1_555 1_555
C6_5 C7_5 1_555 1_555
O4_5 Cd4_4 1_555 1_555
Cd3_5 S2_5 1_555 1_555
Cd1_6 S1_6 1_555 1_555
S1_6 C1_6 1_555 1_555
C1_6 C2_6 1_555 1_555
C2_6 H1_6 1_555 1_555
C3_6 C2_6 1_555 1_555
C4_6 C3_6 1_555 1_555
H2_6 C4_6 1_555 1_555
C5_6 C3_6 1_555 1_555
O1_6 C5_6 1_555 1_555
O2_6 C5_6 1_555 1_555
C6_6 C1_6 1_555 1_555
H3_6 C6_6 1_555 1_555
C7_6 C4_6 1_555 1_555
C8_6 C7_6 1_555 1_555
O3_6 C8_6 1_555 1_555
O4_6 C8_6 1_555 1_555
Cd2_6 O1_6 1_555 1_555
Cd3_6 S1_6 1_555 1_555
Cd4_10 O3_6 1_555 1_555
S2_6 Cd1_6 1_555 1_555
O5_6 Cd1_6 1_555 1_555
O6_6 Cd1_6 1_555 1_555
O7_6 Cd1_6 1_555 1_555
O8_6 Cd1_6 1_555 1_555
O2_6 Cd2_6 1_555 1_555
C6_6 C7_6 1_555 1_555
O4_6 Cd4_10 1_555 1_555
Cd3_6 S2_6 1_555 1_555
S2_6 C1_7 1_555 1_555
C1_7 C2_7 1_555 1_555
C2_7 H1_7 1_555 1_555
C3_7 C2_7 1_555 1_555
C4_7 C3_7 1_555 1_555
H2_7 C4_7 1_555 1_555
C5_7 C3_7 1_555 1_555
O5_2 C5_7 1_555 1_555
O7_2 C5_7 1_555 1_555
C6_7 C1_7 1_555 1_555
H3_7 C6_7 1_555 1_555
C7_7 C4_7 1_555 1_555
C8_7 C7_7 1_555 1_555
O3_7 C8_7 1_555 1_555
O4_7 C8_7 1_555 1_555
C6_7 C7_7 1_555 1_555
S2_4 C1_8 1_555 1_555
C1_8 C2_8 1_555 1_555
C2_8 H1_8 1_555 1_555
C3_8 C2_8 1_555 1_555
C4_8 C3_8 1_555 1_555
H2_8 C4_8 1_555 1_555
C5_8 C3_8 1_555 1_555
O5_3 C5_8 1_555 1_555
O7_3 C5_8 1_555 1_555
C6_8 C1_8 1_555 1_555
H3_8 C6_8 1_555 1_555
C7_8 C4_8 1_555 1_555
C8_8 C7_8 1_555 1_555
O3_8 C8_8 1_555 1_555
O4_8 C8_8 1_555 1_555
Cd3 O3_8 1_555 1_555
C6_8 C7_8 1_555 1_555
O4_8 Cd3 1_555 1_555
S2_5 C1_9 1_555 1_555
C1_9 C2_9 1_555 1_555
C2_9 H1_9 1_555 1_555
C3_9 C2_9 1_555 1_555
C4_9 C3_9 1_555 1_555
H2_9 C4_9 1_555 1_555
C5_9 C3_9 1_555 1_555
O5 C5_9 1_555 1_555
O7 C5_9 1_555 1_555
C6_9 C1_9 1_555 1_555
H3_9 C6_9 1_555 1_555
C7_9 C4_9 1_555 1_555
C8_9 C7_9 1_555 1_555
O3_9 C8_9 1_555 1_555
O4_9 C8_9 1_555 1_555
C6_9 C7_9 1_555 1_555
C3_10 C2_10 1_555 1_555
C4_10 C3_10 1_555 1_555
H2_10 C4_10 1_555 1_555
C5_10 C3_10 1_555 1_555
O6 C5_10 1_555 1_555
O8 C5_10 1_555 1_555
C7_10 C4_10 1_555 1_555
C8_10 C7_10 1_555 1_555
O3_10 C8_10 1_555 1_555
O4_10 C8_10 1_555 1_555
Cd3_3 O3_10 1_555 1_555
C6_10 C7_10 1_555 1_555
O4_10 Cd3_3 1_555 1_555
S2_7 Cd2_2 1_555 1_555
Cd4_8 S2_7 1_555 1_555
Cd2_3 S1_7 1_555 1_555
S1_7 C1_10 1_555 1_555
Cd4_9 S1_7 1_555 1_555
Cd2_5 S1_8 1_555 1_555
S1_8 C1_11 1_555 1_555
C1_11 C2_11 1_555 1_555
C2_11 H1_11 1_555 1_555
C3_11 C2_11 1_555 1_555
C4_11 C3_11 1_555 1_555
H2_11 C4_11 1_555 1_555
C5_11 C3_11 1_555 1_555
O6_2 C5_11 1_555 1_555
O8_2 C5_11 1_555 1_555
C6_11 C1_11 1_555 1_555
H3_11 C6_11 1_555 1_555
C7_11 C4_11 1_555 1_555
C8_11 C7_11 1_555 1_555
O3_11 C8_11 1_555 1_555
O4_11 C8_11 1_555 1_555
Cd4 S1_8 1_555 1_555
Cd3 O3_11 1_555 1_555
C6_11 C7_11 1_555 1_555
O4_11 Cd3 1_555 1_555
S2_8 Cd2_6 1_555 1_555
Cd4_2 S2_8 1_555 1_555
Cd2_7 S1_9 1_555 1_555
S1_9 C1_12 1_555 1_555
Cd4_3 S1_9 1_555 1_555
C3_12 C2_12 1_555 1_555
C4_12 C3_12 1_555 1_555
H2_12 C4_12 1_555 1_555
C5_12 C3_12 1_555 1_555
O6_3 C5_12 1_555 1_555
O8_3 C5_12 1_555 1_555
C7_12 C4_12 1_555 1_555
C8_12 C7_12 1_555 1_555
O3_12 C8_12 1_555 1_555
O4_12 C8_12 1_555 1_555
Cd3_2 O3_12 1_555 1_555
C6_12 C7_12 1_555 1_555
O4_12 Cd3_2 1_555 1_555
S2_9 Cd2_10 1_555 1_555
Cd4_6 S2_9 1_555 1_555
C3_13 C2_13 1_555 1_555
C4_13 C3_13 1_555 1_555
H2_13 C4_13 1_555 1_555
C5_13 C3_13 1_555 1_555
O6_4 C5_13 1_555 1_555
O8_4 C5_13 1_555 1_555
C7_13 C4_13 1_555 1_555
C8_13 C7_13 1_555 1_555
O3_13 C8_13 1_555 1_555
O4_13 C8_13 1_555 1_555
Cd3_5 O3_13 1_555 1_555
C6_13 C7_13 1_555 1_555
O4_13 Cd3_5 1_555 1_555
S2_9 C1_13 1_555 1_555
S2_7 C1_14 1_555 1_555
C3_14 C2_14 1_555 1_555
C4_14 C3_14 1_555 1_555
H2_14 C4_14 1_555 1_555
C5_14 C3_14 1_555 1_555
O6_5 C5_14 1_555 1_555
O8_5 C5_14 1_555 1_555
C7_14 C4_14 1_555 1_555
C8_14 C7_14 1_555 1_555
O3_14 C8_14 1_555 1_555
O4_14 C8_14 1_555 1_555
Cd3_6 O3_14 1_555 1_555
C6_14 C7_14 1_555 1_555
O4_14 Cd3_6 1_555 1_555
S2_8 C1_15 1_555 1_555
C1_15 C2_15 1_555 1_555
C2_15 H1_15 1_555 1_555
C3_15 C2_15 1_555 1_555
C4_15 C3_15 1_555 1_555
H2_15 C4_15 1_555 1_555
C5_15 C3_15 1_555 1_555
O6_6 C5_15 1_555 1_555
O8_6 C5_15 1_555 1_555
C6_15 C1_15 1_555 1_555
H3_15 C6_15 1_555 1_555
C7_15 C4_15 1_555 1_555
C8_15 C7_15 1_555 1_555
O3_15 C8_15 1_555 1_555
O4_15 C8_15 1_555 1_555
Cd3_4 O3_15 1_555 1_555
C6_15 C7_15 1_555 1_555
O4_15 Cd3_4 1_555 1_555
S2_2 C1_16 1_555 1_555
C1_16 C2_16 1_555 1_555
C2_16 H1_16 1_555 1_555
C3_16 C2_16 1_555 1_555
C4_16 C3_16 1_555 1_555
H2_16 C4_16 1_555 1_555
C5_16 C3_16 1_555 1_555
O5_6 C5_16 1_555 1_555
O7_6 C5_16 1_555 1_555
C6_16 C1_16 1_555 1_555
H3_16 C6_16 1_555 1_555
C7_16 C4_16 1_555 1_555
C8_16 C7_16 1_555 1_555
O3_16 C8_16 1_555 1_555
O4_16 C8_16 1_555 1_555
C6_16 C7_16 1_555 1_555
S2_3 C1_17 1_555 1_555
C1_17 C2_17 1_555 1_555
C2_17 H1_17 1_555 1_555
C3_17 C2_17 1_555 1_555
C4_17 C3_17 1_555 1_555
H2_17 C4_17 1_555 1_555
C5_17 C3_17 1_555 1_555
O5_4 C5_17 1_555 1_555
O7_4 C5_17 1_555 1_555
C6_17 C1_17 1_555 1_555
H3_17 C6_17 1_555 1_555
C7_17 C4_17 1_555 1_555
C8_17 C7_17 1_555 1_555
O3_17 C8_17 1_555 1_555
O4_17 C8_17 1_555 1_555
C6_17 C7_17 1_555 1_555
S2 C1_18 1_555 1_555
C1_18 C2_18 1_555 1_555
C2_18 H1_18 1_555 1_555
C3_18 C2_18 1_555 1_555
C4_18 C3_18 1_555 1_555
H2_18 C4_18 1_555 1_555
C5_18 C3_18 1_555 1_555
O5_5 C5_18 1_555 1_555
O7_5 C5_18 1_555 1_555
C6_18 C1_18 1_555 1_555
H3_18 C6_18 1_555 1_555
C7_18 C4_18 1_555 1_555
C8_18 C7_18 1_555 1_555
O3_18 C8_18 1_555 1_555
O4_18 C8_18 1_555 1_555
Cd3_4 O3_18 1_555 1_555
C6_18 C7_18 1_555 1_555
O4_18 Cd3_4 1_555 1_555

#END
