
###############################################################################
#
# This file contains modified crystal structure data generated from the
# MOF subset of the Cambridge Structural Database (CSD) v543 
# hosted by the Cambridge Crystallographic Data Centre (CCDC).
#
# This work is licensed under the Creative Commons
# Attribution-NonCommercial-ShareAlike 4.0 International License.
# To view a copy of this license, visit
# http://creativecommons.org/licenses/by-nc-sa/4.0/
# or send a letter to
# Creative Commons, PO Box 1866, Mountain View, CA 94042, USA.
#
# CIF created using the CSD Python API on 29 September 2022
# The structure has been converted into the P1 space group
# The structure has a 3D framework
# The original CSD entry AXULAI is in the monoclinic crystal system
# The framework has been calculated to contain at least 10.0% void space
# The void calculation uses a probe of radius 1.32A, grid spacing 0.4
# The framework is charged, counterions have been retained in the structure
#
###############################################################################

data_AXULAI
_chemical_formula_moiety         '(C128 H48 Cd18 O64 S16 12-)n'
_symmetry_cell_setting           triclinic
_symmetry_space_group_name_H-M   'P 1'
_symmetry_Int_Tables_number      1
_space_group_name_Hall           'P 1'
loop_
_symmetry_equiv_pos_site_id
_symmetry_equiv_pos_as_xyz
1 x,y,z
_cell_length_a                   14.425(5)
_cell_length_b                   33.813(5)
_cell_length_c                   19.194(4)
_cell_angle_alpha                90
_cell_angle_beta                 104.061(18)
_cell_angle_gamma                90
_cell_volume                     9081.42
loop_
_atom_site_label
_atom_site_type_symbol
_atom_site_fract_x
_atom_site_fract_y
_atom_site_fract_z
Cd3 Cd 0.2500 0.01640(2) 0.5000
C12 C 0.00286(16) 0.05318(6) 0.41147(12)
H5 H 0.0281 0.0322 0.4415
C13 C 0.06328(16) 0.07711(6) 0.38419(11)
C14 C 0.02321(18) 0.10861(6) 0.33931(12)
H6 H 0.0626 0.1250 0.3202
S2 S 0.18898(4) 0.06973(2) 0.40239(3)
Cd10 Cd 0.2500 0.12336(2) 0.5000
S7 S 0.31102(4) 0.06973(2) 0.59761(3)
O21 O 0.24615(13) 0.95977(6) 0.58749(13)
O22 O 0.25385(13) 0.95977(6) 0.41251(13)
O23 O 0.12195(12) 0.99259(6) 0.53218(13)
O24 O 0.37805(12) 0.99259(6) 0.46782(13)
Cd1 Cd 0.82465(2) 0.21978(2) 0.20967(2)
Cd2 Cd 0.2500 0.37664(2) 0.0000
C3 C 0.47963(15) 0.29627(6) 0.02510(11)
C4 C 0.52133(16) 0.27980(6) 0.09184(10)
H2 H 0.5006 0.2878 0.1319
C5 C 0.59314(16) 0.25177(6) 0.09973(10)
C6 C 0.62139(16) 0.23937(6) 0.03852(11)
H3 H 0.6679 0.2199 0.0423
C8 C 0.39925(16) 0.32560(7) 0.01815(12)
C9 C 0.92652(18) 0.11552(6) 0.32332(12)
C10 C 0.86702(17) 0.09131(7) 0.35036(13)
H4 H 0.8015 0.0960 0.3390
C11 C 0.90493(17) 0.05993(7) 0.39465(14)
C15 C 0.8864(2) 0.15126(7) 0.27833(13)
C16 C 0.84106(18) 0.03452(7) 0.42687(16)
O4 O 0.35076(11) 0.32554(5) 0.06400(8)
O5 O 0.94026(14) 0.17155(5) 0.25091(8)
O6 O 0.80000(16) 0.15941(6) 0.27008(12)
O7 O 0.75385(13) 0.04023(6) 0.41251(13)
O8 O 0.87805(12) 0.00741(6) 0.46782(13)
S1 S 0.64132(4) 0.22927(2) 0.18402(3)
H7 H 0.0145 0.2963 0.0787
O11 O 0.11763(11) 0.34919(5) 0.03448(9)
Cd7 Cd 0.67535(2) 0.28022(2) 0.29033(2)
O18 O 0.84555(12) 0.20962(5) 0.09123(8)
O20 O 0.90470(15) 0.26310(5) 0.14765(8)
S5 S 0.85868(4) 0.27073(2) 0.31598(3)
S8 S 0.31102(4) 0.43027(2) 0.09761(3)
Cd2_2 Cd 0.2500 0.37664(2) 1.0000
C1 C 0.58036(16) 0.25596(6) 0.97220(10)
C2 C 0.51116(16) 0.28466(6) 0.96575(11)
H1 H 0.4855 0.2963 0.9213
C7 C 0.61211(17) 0.24169(7) 0.90723(11)
O1 O 0.65445(12) 0.20962(5) 0.90877(8)
O2 O 0.59530(15) 0.26310(5) 0.85235(8)
O3 O 0.38237(11) 0.34919(5) 0.96552(9)
C19 C 0.02037(15) 0.29627(6) 0.97490(11)
C24 C 0.10075(16) 0.32560(7) 0.98185(12)
O12 O 0.14924(11) 0.32554(5) 0.93600(8)
Cd6 Cd 0.67535(2) 0.21978(2) 0.79033(2)
S9 S 0.18898(4) 0.43027(2) 0.90239(3)
Cd13 Cd 0.7500 0.98360(2) 0.5000
C17 C 0.91964(16) 0.25596(6) 0.02780(10)
C18 C 0.98884(16) 0.28466(6) 0.03425(11)
C23 C 0.88789(17) 0.24169(7) 0.09277(11)
C20 C 0.97867(16) 0.27980(6) 0.90816(10)
H8 H 0.9994 0.2878 0.8681
C21 C 0.90686(16) 0.25177(6) 0.90027(10)
C22 C 0.87861(16) 0.23937(6) 0.96148(11)
H9 H 0.8321 0.2199 0.9577
C25 C 0.57348(18) 0.11552(6) 0.67668(12)
C26 C 0.63298(17) 0.09131(7) 0.64964(13)
H10 H 0.6985 0.0960 0.6610
C27 C 0.59507(17) 0.05993(7) 0.60535(14)
C28 C 0.49714(16) 0.05318(6) 0.58853(12)
H11 H 0.4719 0.0322 0.5585
C29 C 0.43672(16) 0.07711(6) 0.61581(11)
C30 C 0.47679(18) 0.10861(6) 0.66069(12)
H12 H 0.4374 0.1250 0.6798
C31 C 0.6136(2) 0.15126(7) 0.72167(13)
C32 C 0.65894(18) 0.03452(7) 0.57313(16)
O13 O 0.55974(14) 0.17155(5) 0.74909(8)
O14 O 0.70000(16) 0.15941(6) 0.72992(12)
O15 O 0.74615(13) 0.04023(6) 0.58749(13)
O16 O 0.62195(12) 0.00741(6) 0.53218(13)
S3 S 0.85868(4) 0.22927(2) 0.81598(3)
Cd8 Cd 0.82465(2) 0.28022(2) 0.70967(2)
S6 S 0.64132(4) 0.27073(2) 0.68402(3)
Cd3_2 Cd 0.7500 0.51640(2) 0.0000
Cd10_2 Cd 0.7500 0.62336(2) 0.0000
Cd13_2 Cd 0.2500 0.48360(2) 0.0000
O21_2 O 0.74615(13) 0.45977(6) 0.08749(13)
O23_2 O 0.62195(12) 0.49259(6) 0.03218(13)
S7_2 S 0.81102(4) 0.56973(2) 0.09761(3)
Cd1_2 Cd 0.32465(2) 0.71978(2) 0.70967(2)
Cd3_3 Cd 0.7500 0.51640(2) 1.0000
C1_2 C 0.08036(16) 0.75596(6) 0.47220(10)
C2_2 C 0.01116(16) 0.78466(6) 0.46575(11)
C4_2 C 0.02133(16) 0.77980(6) 0.59184(10)
H2_2 H 0.0006 0.7878 0.6319
C5_2 C 0.09314(16) 0.75177(6) 0.59973(10)
C6_2 C 0.12139(16) 0.73937(6) 0.53852(11)
H3_2 H 0.1679 0.7199 0.5423
C7_2 C 0.11211(17) 0.74169(7) 0.40723(11)
C9_2 C 0.42652(18) 0.61552(6) 0.82332(12)
C10_2 C 0.36702(17) 0.59131(7) 0.85036(13)
H4_2 H 0.3015 0.5960 0.8390
C11_2 C 0.40493(17) 0.55993(7) 0.89465(14)
C12_2 C 0.50286(16) 0.55318(6) 0.91147(12)
H5_2 H 0.5281 0.5322 0.9415
C13_2 C 0.56328(16) 0.57711(6) 0.88419(11)
C14_2 C 0.52321(18) 0.60861(6) 0.83931(12)
H6_2 H 0.5626 0.6250 0.8202
C15_2 C 0.3864(2) 0.65126(7) 0.77833(13)
C16_2 C 0.34106(18) 0.53452(7) 0.92687(16)
O1_2 O 0.15445(12) 0.70962(5) 0.40877(8)
O2_2 O 0.09530(15) 0.76310(5) 0.35235(8)
O5_2 O 0.44026(14) 0.67155(5) 0.75091(8)
O6_2 O 0.30000(16) 0.65941(6) 0.77008(12)
O7_2 O 0.25385(13) 0.54023(6) 0.91251(13)
O8_2 O 0.37805(12) 0.50741(6) 0.96782(13)
S1_2 S 0.14132(4) 0.72927(2) 0.68402(3)
S2_2 S 0.68898(4) 0.56973(2) 0.90239(3)
Cd6_2 Cd 0.17535(2) 0.71978(2) 0.29033(2)
Cd7_2 Cd 0.17535(2) 0.78022(2) 0.79033(2)
Cd10_3 Cd 0.7500 0.62336(2) 1.0000
Cd13_3 Cd 0.2500 0.48360(2) 1.0000
O18_2 O 0.34555(12) 0.70962(5) 0.59123(8)
O20_2 O 0.40470(15) 0.76310(5) 0.64765(8)
O22_2 O 0.75385(13) 0.45977(6) 0.91251(13)
O24_2 O 0.87805(12) 0.49259(6) 0.96782(13)
S5_2 S 0.35868(4) 0.77073(2) 0.81598(3)
Cd2_3 Cd 0.7500 0.87664(2) 0.5000
H1_2 H 0.9855 0.7963 0.4213
C3_2 C 0.97963(15) 0.79627(6) 0.52510(11)
C8_2 C 0.89925(16) 0.82560(7) 0.51815(12)
O3_2 O 0.88237(11) 0.84919(5) 0.46552(9)
O4_2 O 0.85076(11) 0.82554(5) 0.56400(8)
C17_2 C 0.41964(16) 0.75596(6) 0.52780(10)
C18_2 C 0.48884(16) 0.78466(6) 0.53425(11)
H7_2 H 0.5145 0.7963 0.5787
C19_2 C 0.52037(15) 0.79627(6) 0.47490(11)
C20_2 C 0.47867(16) 0.77980(6) 0.40816(10)
H8_2 H 0.4994 0.7878 0.3681
C21_2 C 0.40686(16) 0.75177(6) 0.40027(10)
C22_2 C 0.37861(16) 0.73937(6) 0.46148(11)
H9_2 H 0.3321 0.7199 0.4577
C23_2 C 0.38789(17) 0.74169(7) 0.59277(11)
C24_2 C 0.60075(16) 0.82560(7) 0.48185(12)
C25_2 C 0.07348(18) 0.61552(6) 0.17668(12)
C26_2 C 0.13298(17) 0.59131(7) 0.14964(13)
H10_2 H 0.1985 0.5960 0.1610
C27_2 C 0.09507(17) 0.55993(7) 0.10535(14)
C31_2 C 0.1136(2) 0.65126(7) 0.22167(13)
C32_2 C 0.15894(18) 0.53452(7) 0.07313(16)
O11_2 O 0.61763(11) 0.84919(5) 0.53448(9)
O12_2 O 0.64924(11) 0.82554(5) 0.43600(8)
O13_2 O 0.05974(14) 0.67155(5) 0.24909(8)
O14_2 O 0.20000(16) 0.65941(6) 0.22992(12)
O15_2 O 0.24615(13) 0.54023(6) 0.08749(13)
O16_2 O 0.12195(12) 0.50741(6) 0.03218(13)
S3_2 S 0.35868(4) 0.72927(2) 0.31598(3)
Cd8_2 Cd 0.32465(2) 0.78022(2) 0.20967(2)
S6_2 S 0.14132(4) 0.77073(2) 0.18402(3)
S8_2 S 0.81102(4) 0.93027(2) 0.59761(3)
S9_2 S 0.68898(4) 0.93027(2) 0.40239(3)
C28_2 C 0.99714(16) 0.55318(6) 0.08853(12)
H11_2 H 0.9719 0.5322 0.0585
C29_2 C 0.93672(16) 0.57711(6) 0.11581(11)
C30_2 C 0.97679(18) 0.60861(6) 0.16069(12)
H12_2 H 0.9374 0.6250 0.1798
C20_3 C 0.02133(16) 0.72020(6) 0.09184(10)
H8_3 H 0.0006 0.7122 0.1319
C21_3 C 0.09314(16) 0.74823(6) 0.09973(10)
C22_3 C 0.12139(16) 0.76063(6) 0.03852(11)
H9_3 H 0.1679 0.7801 0.0423
C25_3 C 0.42652(18) 0.88448(6) 0.32332(12)
C26_3 C 0.36702(17) 0.90869(7) 0.35036(13)
H10_3 H 0.3015 0.9040 0.3390
C27_3 C 0.40493(17) 0.94007(7) 0.39465(14)
C28_3 C 0.50286(16) 0.94682(6) 0.41147(12)
H11_3 H 0.5281 0.9678 0.4415
C29_3 C 0.56328(16) 0.92289(6) 0.38419(11)
C30_3 C 0.52321(18) 0.89139(6) 0.33931(12)
H12_3 H 0.5626 0.8750 0.3202
C31_3 C 0.3864(2) 0.84874(7) 0.27833(13)
C32_3 C 0.34106(18) 0.96548(7) 0.42687(16)
O13_3 O 0.44026(14) 0.82845(5) 0.25091(8)
O14_3 O 0.30000(16) 0.84059(6) 0.27008(12)
O17 O 0.34555(12) 0.79038(5) 0.09123(8)
O19 O 0.40470(15) 0.73690(5) 0.14765(8)
C17_3 C 0.08036(16) 0.74404(6) 0.97220(10)
C18_3 C 0.01116(16) 0.71534(6) 0.96575(11)
C23_3 C 0.11211(17) 0.75831(7) 0.90723(11)
O9 O 0.15445(12) 0.79038(5) 0.90877(8)
O10 O 0.09530(15) 0.73690(5) 0.85235(8)
C1_3 C 0.41964(16) 0.74404(6) 0.02780(10)
C2_3 C 0.48884(16) 0.71534(6) 0.03425(11)
H1_3 H 0.5145 0.7037 0.0787
C7_3 C 0.38789(17) 0.75831(7) 0.09277(11)
O3_3 O 0.61763(11) 0.65081(5) 0.03448(9)
C19_3 C 0.97963(15) 0.70373(6) 0.02510(11)
C24_3 C 0.89925(16) 0.67440(7) 0.01815(12)
O12_3 O 0.85076(11) 0.67446(5) 0.06400(8)
C3_3 C 0.52037(15) 0.70373(6) 0.97490(11)
C4_3 C 0.47867(16) 0.72020(6) 0.90816(10)
H2_3 H 0.4994 0.7122 0.8681
C5_3 C 0.40686(16) 0.74823(6) 0.90027(10)
C6_3 C 0.37861(16) 0.76063(6) 0.96148(11)
H3_3 H 0.3321 0.7801 0.9577
C8_3 C 0.60075(16) 0.67440(7) 0.98185(12)
C9_3 C 0.07348(18) 0.88448(6) 0.67668(12)
C10_3 C 0.13298(17) 0.90869(7) 0.64964(13)
H4_3 H 0.1985 0.9040 0.6610
C11_3 C 0.09507(17) 0.94007(7) 0.60535(14)
C15_3 C 0.1136(2) 0.84874(7) 0.72167(13)
C16_3 C 0.15894(18) 0.96548(7) 0.57313(16)
O4_3 O 0.64924(11) 0.67446(5) 0.93600(8)
O5_3 O 0.05974(14) 0.82845(5) 0.74909(8)
O6_3 O 0.20000(16) 0.84059(6) 0.72992(12)
H7_3 H 0.9855 0.7037 0.9213
O11_3 O 0.88237(11) 0.65081(5) 0.96552(9)
C12_3 C 0.99714(16) 0.94682(6) 0.58853(12)
H5_3 H 0.9719 0.9678 0.5585
C13_3 C 0.93672(16) 0.92289(6) 0.61581(11)
C14_3 C 0.97679(18) 0.89139(6) 0.66069(12)
H6_3 H 0.9374 0.8750 0.6798
C28_4 C 0.00286(16) 0.44682(6) 0.91147(12)
H11_4 H 0.0281 0.4678 0.9415
C29_4 C 0.06328(16) 0.42289(6) 0.88419(11)
C30_4 C 0.02321(18) 0.39139(6) 0.83931(12)
H12_4 H 0.0626 0.3750 0.8202
H1_4 H 0.0145 0.2037 0.5787
C3_4 C 0.02037(15) 0.20373(6) 0.47490(11)
C8_4 C 0.10075(16) 0.17440(7) 0.48185(12)
O3_4 O 0.11763(11) 0.15081(5) 0.53448(9)
O4_4 O 0.14924(11) 0.17446(5) 0.43600(8)
C17_4 C 0.58036(16) 0.24404(6) 0.47220(10)
C18_4 C 0.51116(16) 0.21534(6) 0.46575(11)
H7_4 H 0.4855 0.2037 0.4213
C19_4 C 0.47963(15) 0.20373(6) 0.52510(11)
C20_4 C 0.52133(16) 0.22020(6) 0.59184(10)
H8_4 H 0.5006 0.2122 0.6319
C21_4 C 0.59314(16) 0.24823(6) 0.59973(10)
C22_4 C 0.62139(16) 0.26063(6) 0.53852(11)
H9_4 H 0.6679 0.2801 0.5423
C23_4 C 0.61211(17) 0.25831(7) 0.40723(11)
C24_4 C 0.39925(16) 0.17440(7) 0.51815(12)
C25_4 C 0.92652(18) 0.38448(6) 0.82332(12)
C26_4 C 0.86702(17) 0.40869(7) 0.85036(13)
H10_4 H 0.8015 0.4040 0.8390
C27_4 C 0.90493(17) 0.44007(7) 0.89465(14)
C31_4 C 0.8864(2) 0.34874(7) 0.77833(13)
C32_4 C 0.84106(18) 0.46548(7) 0.92687(16)
O9_2 O 0.65445(12) 0.29038(5) 0.40877(8)
O10_2 O 0.59530(15) 0.23690(5) 0.35235(8)
O11_4 O 0.38237(11) 0.15081(5) 0.46552(9)
O12_4 O 0.35076(11) 0.17446(5) 0.56400(8)
O13_4 O 0.94026(14) 0.32845(5) 0.75091(8)
O14_4 O 0.80000(16) 0.34059(6) 0.77008(12)
O17_2 O 0.84555(12) 0.29038(5) 0.59123(8)
O19_2 O 0.90470(15) 0.23690(5) 0.64765(8)
C1_4 C 0.91964(16) 0.24404(6) 0.52780(10)
C2_4 C 0.98884(16) 0.21534(6) 0.53425(11)
C4_4 C 0.97867(16) 0.22020(6) 0.40816(10)
H2_4 H 0.9994 0.2122 0.3681
C5_4 C 0.90686(16) 0.24823(6) 0.40027(10)
C6_4 C 0.87861(16) 0.26063(6) 0.46148(11)
H3_4 H 0.8321 0.2801 0.4577
C7_4 C 0.88789(17) 0.25831(7) 0.59277(11)
C9_4 C 0.57348(18) 0.38448(6) 0.17668(12)
C10_4 C 0.63298(17) 0.40869(7) 0.14964(13)
H4_4 H 0.6985 0.4040 0.1610
C11_4 C 0.59507(17) 0.44007(7) 0.10535(14)
C12_4 C 0.49714(16) 0.44682(6) 0.08853(12)
H5_4 H 0.4719 0.4678 0.0585
C13_4 C 0.43672(16) 0.42289(6) 0.11581(11)
C14_4 C 0.47679(18) 0.39139(6) 0.16069(12)
H6_4 H 0.4374 0.3750 0.1798
C15_4 C 0.6136(2) 0.34874(7) 0.22167(13)
C16_4 C 0.65894(18) 0.46548(7) 0.07313(16)
O5_4 O 0.55974(14) 0.32845(5) 0.24909(8)
O6_4 O 0.70000(16) 0.34059(6) 0.22992(12)
loop_
_geom_bond_atom_site_label_1
_geom_bond_atom_site_label_2
_geom_bond_site_symmetry_1
_geom_bond_site_symmetry_2
Cd3 S2 1_555 1_555
H5 C12 1_555 1_555
C13 C12 1_555 1_555
H6 C14 1_555 1_555
S2 C13 1_555 1_555
Cd10 S2 1_555 1_555
S7 Cd3 1_555 1_555
C13 C14 1_555 1_555
Cd10 S7 1_555 1_555
Cd1 O5 1_555 1_555
C4 C3 1_555 1_555
H2 C4 1_555 1_555
C5 C4 1_555 1_555
H3 C6 1_555 1_555
C8 C3 1_555 1_555
C9 C10 1_555 1_555
C10 H4 1_555 1_555
C11 C10 1_555 1_555
C15 C9 1_555 1_555
C16 C11 1_555 1_555
O4 Cd2 1_555 1_555
O5 C15 1_555 1_555
O6 Cd1 1_555 1_555
O7 C16 1_555 1_555
O8 C16 1_555 1_555
S1 Cd1 1_555 1_555
O11 Cd2 1_555 1_555
Cd7 S1 1_555 1_555
O18 Cd1 1_555 1_555
O20 Cd1 1_555 1_555
S5 Cd1 1_555 1_555
S8 Cd2 1_555 1_555
C5 C6 1_555 1_555
C5 S1 1_555 1_555
C8 O4 1_555 1_555
C15 O6 1_555 1_555
Cd7 S5 1_555 1_555
Cd2_2 O3 1_555 1_555
C1 C2 1_555 1_555
C2 H1 1_555 1_555
C7 C1 1_555 1_555
O1 C7 1_555 1_555
O2 C7 1_555 1_555
C24 C19 1_555 1_555
O12 Cd2_2 1_555 1_555
Cd6 O1 1_555 1_555
S9 Cd2_2 1_555 1_555
O2 Cd6 1_555 1_555
C24 O12 1_555 1_555
C17 C18 1_555 1_555
C23 C17 1_555 1_555
O18 C23 1_555 1_555
O20 C23 1_555 1_555
Cd6 O13 1_555 1_555
H8 C20 1_555 1_555
C21 C20 1_555 1_555
H9 C22 1_555 1_555
C25 C26 1_555 1_555
C26 H10 1_555 1_555
C27 C26 1_555 1_555
C28 C27 1_555 1_555
H11 C28 1_555 1_555
C29 C28 1_555 1_555
C30 C25 1_555 1_555
H12 C30 1_555 1_555
C31 C25 1_555 1_555
C32 C27 1_555 1_555
O13 C31 1_555 1_555
O14 Cd6 1_555 1_555
O15 C32 1_555 1_555
O16 C32 1_555 1_555
S3 Cd6 1_555 1_555
S7 C29 1_555 1_555
Cd8 S3 1_555 1_555
S6 Cd6 1_555 1_555
C21 C22 1_555 1_555
C21 S3 1_555 1_555
C29 C30 1_555 1_555
C31 O14 1_555 1_555
Cd8 S6 1_555 1_555
O21_2 Cd3_2 1_555 1_555
O23_2 Cd3_2 1_555 1_555
S7_2 Cd3_2 1_555 1_555
Cd10_2 S7_2 1_555 1_555
Cd1_2 O5_2 1_555 1_555
Cd3_3 S2_2 1_555 1_555
C1_2 C2_2 1_555 1_555
H2_2 C4_2 1_555 1_555
C5_2 C4_2 1_555 1_555
C6_2 C1_2 1_555 1_555
H3_2 C6_2 1_555 1_555
C7_2 C1_2 1_555 1_555
C9_2 C10_2 1_555 1_555
C10_2 H4_2 1_555 1_555
C11_2 C10_2 1_555 1_555
C12_2 C11_2 1_555 1_555
H5_2 C12_2 1_555 1_555
C13_2 C12_2 1_555 1_555
C14_2 C9_2 1_555 1_555
H6_2 C14_2 1_555 1_555
C15_2 C9_2 1_555 1_555
C16_2 C11_2 1_555 1_555
O1_2 C7_2 1_555 1_555
O2_2 C7_2 1_555 1_555
O5_2 C15_2 1_555 1_555
O6_2 Cd1_2 1_555 1_555
O7_2 C16_2 1_555 1_555
O8_2 C16_2 1_555 1_555
S1_2 Cd1_2 1_555 1_555
S2_2 C13_2 1_555 1_555
Cd6_2 O1_2 1_555 1_555
Cd7_2 S1_2 1_555 1_555
Cd10_3 S2_2 1_555 1_555
Cd13_3 O7_2 1_555 1_555
O18_2 Cd1_2 1_555 1_555
O20_2 Cd1_2 1_555 1_555
O22_2 Cd3_3 1_555 1_555
O24_2 Cd3_3 1_555 1_555
S5_2 Cd1_2 1_555 1_555
C5_2 C6_2 1_555 1_555
C5_2 S1_2 1_555 1_555
C13_2 C14_2 1_555 1_555
C15_2 O6_2 1_555 1_555
O2_2 Cd6_2 1_555 1_555
O8_2 Cd13_3 1_555 1_555
Cd7_2 S5_2 1_555 1_555
Cd2_3 O3_2 1_555 1_555
C8_2 C3_2 1_555 1_555
O3_2 C8_2 1_555 1_555
O4_2 Cd2_3 1_555 1_555
Cd6_2 O13_2 1_555 1_555
C17_2 C18_2 1_555 1_555
C18_2 H7_2 1_555 1_555
C19_2 C18_2 1_555 1_555
C20_2 C19_2 1_555 1_555
H8_2 C20_2 1_555 1_555
C21_2 C20_2 1_555 1_555
C22_2 C17_2 1_555 1_555
H9_2 C22_2 1_555 1_555
C23_2 C17_2 1_555 1_555
C24_2 C19_2 1_555 1_555
C25_2 C26_2 1_555 1_555
C26_2 H10_2 1_555 1_555
C27_2 C26_2 1_555 1_555
C31_2 C25_2 1_555 1_555
C32_2 C27_2 1_555 1_555
O18_2 C23_2 1_555 1_555
O20_2 C23_2 1_555 1_555
O11_2 Cd2_3 1_555 1_555
O12_2 Cd2_3 1_555 1_555
O13_2 C31_2 1_555 1_555
O14_2 Cd6_2 1_555 1_555
O15_2 C32_2 1_555 1_555
O16_2 C32_2 1_555 1_555
S3_2 Cd6_2 1_555 1_555
Cd8_2 S3_2 1_555 1_555
Cd13_2 O15_2 1_555 1_555
S6_2 Cd6_2 1_555 1_555
S8_2 Cd2_3 1_555 1_555
S9_2 Cd2_3 1_555 1_555
C8_2 O4_2 1_555 1_555
C21_2 C22_2 1_555 1_555
C21_2 S3_2 1_555 1_555
C24_2 O11_2 1_555 1_555
C24_2 O12_2 1_555 1_555
C31_2 O14_2 1_555 1_555
O16_2 Cd13_2 1_555 1_555
Cd8_2 S6_2 1_555 1_555
H11_2 C28_2 1_555 1_555
C29_2 C28_2 1_555 1_555
H12_2 C30_2 1_555 1_555
S7_2 C29_2 1_555 1_555
C29_2 C30_2 1_555 1_555
Cd8_2 O13_3 1_555 1_555
H8_3 C20_3 1_555 1_555
C21_3 C20_3 1_555 1_555
H9_3 C22_3 1_555 1_555
C25_3 C26_3 1_555 1_555
C26_3 H10_3 1_555 1_555
C27_3 C26_3 1_555 1_555
C28_3 C27_3 1_555 1_555
H11_3 C28_3 1_555 1_555
C29_3 C28_3 1_555 1_555
C30_3 C25_3 1_555 1_555
H12_3 C30_3 1_555 1_555
C31_3 C25_3 1_555 1_555
C32_3 C27_3 1_555 1_555
O13_3 C31_3 1_555 1_555
O14_3 Cd8_2 1_555 1_555
O22 C32_3 1_555 1_555
O24 C32_3 1_555 1_555
S9_2 C29_3 1_555 1_555
Cd13 S9_2 1_555 1_555
O17 Cd8_2 1_555 1_555
O19 Cd8_2 1_555 1_555
C21_3 C22_3 1_555 1_555
C21_3 S6_2 1_555 1_555
C29_3 C30_3 1_555 1_555
C31_3 O14_3 1_555 1_555
C17_3 C18_3 1_555 1_555
C23_3 C17_3 1_555 1_555
O9 C23_3 1_555 1_555
O10 C23_3 1_555 1_555
Cd7_2 O9 1_555 1_555
O10 Cd7_2 1_555 1_555
Cd10_2 O3_3 1_555 1_555
C1_3 C2_3 1_555 1_555
C2_3 H1_3 1_555 1_555
C7_3 C1_3 1_555 1_555
O17 C7_3 1_555 1_555
O19 C7_3 1_555 1_555
C24_3 C19_3 1_555 1_555
O12_3 Cd10_2 1_555 1_555
C24_3 O12_3 1_555 1_555
Cd7_2 O5_3 1_555 1_555
C4_3 C3_3 1_555 1_555
H2_3 C4_3 1_555 1_555
C5_3 C4_3 1_555 1_555
H3_3 C6_3 1_555 1_555
C8_3 C3_3 1_555 1_555
C9_3 C10_3 1_555 1_555
C10_3 H4_3 1_555 1_555
C11_3 C10_3 1_555 1_555
C15_3 C9_3 1_555 1_555
C16_3 C11_3 1_555 1_555
O4_3 Cd10_3 1_555 1_555
O5_3 C15_3 1_555 1_555
O6_3 Cd7_2 1_555 1_555
O21 C16_3 1_555 1_555
O23 C16_3 1_555 1_555
O11_3 Cd10_3 1_555 1_555
C5_3 C6_3 1_555 1_555
C5_3 S5_2 1_555 1_555
C8_3 O4_3 1_555 1_555
C15_3 O6_3 1_555 1_555
Cd13 S8_2 1_555 1_555
H5_3 C12_3 1_555 1_555
C13_3 C12_3 1_555 1_555
H6_3 C14_3 1_555 1_555
S8_2 C13_3 1_555 1_555
C13_3 C14_3 1_555 1_555
H11_4 C28_4 1_555 1_555
C29_4 C28_4 1_555 1_555
H12_4 C30_4 1_555 1_555
S9 C29_4 1_555 1_555
Cd13_3 S9 1_555 1_555
C29_4 C30_4 1_555 1_555
Cd10 O3_4 1_555 1_555
C8_4 C3_4 1_555 1_555
O3_4 C8_4 1_555 1_555
O4_4 Cd10 1_555 1_555
Cd8 O13_4 1_555 1_555
C17_4 C18_4 1_555 1_555
C18_4 H7_4 1_555 1_555
C19_4 C18_4 1_555 1_555
C20_4 C19_4 1_555 1_555
H8_4 C20_4 1_555 1_555
C21_4 C20_4 1_555 1_555
C22_4 C17_4 1_555 1_555
H9_4 C22_4 1_555 1_555
C23_4 C17_4 1_555 1_555
C24_4 C19_4 1_555 1_555
C25_4 C26_4 1_555 1_555
C26_4 H10_4 1_555 1_555
C27_4 C26_4 1_555 1_555
C31_4 C25_4 1_555 1_555
C32_4 C27_4 1_555 1_555
O9_2 C23_4 1_555 1_555
O10_2 C23_4 1_555 1_555
O11_4 Cd10 1_555 1_555
O12_4 Cd10 1_555 1_555
O13_4 C31_4 1_555 1_555
O14_4 Cd8 1_555 1_555
O22_2 C32_4 1_555 1_555
O24_2 C32_4 1_555 1_555
Cd7 O9_2 1_555 1_555
O17_2 Cd8 1_555 1_555
O19_2 Cd8 1_555 1_555
C8_4 O4_4 1_555 1_555
C21_4 C22_4 1_555 1_555
C21_4 S6 1_555 1_555
C24_4 O11_4 1_555 1_555
C24_4 O12_4 1_555 1_555
C31_4 O14_4 1_555 1_555
O10_2 Cd7 1_555 1_555
Cd7 O5_4 1_555 1_555
Cd13_2 S8 1_555 1_555
C1_4 C2_4 1_555 1_555
H2_4 C4_4 1_555 1_555
C5_4 C4_4 1_555 1_555
C6_4 C1_4 1_555 1_555
H3_4 C6_4 1_555 1_555
C7_4 C1_4 1_555 1_555
C9_4 C10_4 1_555 1_555
C10_4 H4_4 1_555 1_555
C11_4 C10_4 1_555 1_555
C12_4 C11_4 1_555 1_555
H5_4 C12_4 1_555 1_555
C13_4 C12_4 1_555 1_555
C14_4 C9_4 1_555 1_555
H6_4 C14_4 1_555 1_555
C15_4 C9_4 1_555 1_555
C16_4 C11_4 1_555 1_555
O17_2 C7_4 1_555 1_555
O19_2 C7_4 1_555 1_555
O5_4 C15_4 1_555 1_555
O6_4 Cd7 1_555 1_555
O21_2 C16_4 1_555 1_555
O23_2 C16_4 1_555 1_555
S8 C13_4 1_555 1_555
C5_4 C6_4 1_555 1_555
C5_4 S5 1_555 1_555
C13_4 C14_4 1_555 1_555
C15_4 O6_4 1_555 1_555

#END
