
###############################################################################
#
# This file contains modified crystal structure data generated from the
# MOF subset of the Cambridge Structural Database (CSD) v543 
# hosted by the Cambridge Crystallographic Data Centre (CCDC).
#
# This work is licensed under the Creative Commons
# Attribution-NonCommercial-ShareAlike 4.0 International License.
# To view a copy of this license, visit
# http://creativecommons.org/licenses/by-nc-sa/4.0/
# or send a letter to
# Creative Commons, PO Box 1866, Mountain View, CA 94042, USA.
#
# CIF created using the CSD Python API on 29 September 2022
# The structure has been converted into the P1 space group
# The structure has a 3D framework
# The original CSD entry AXULEM is in the monoclinic crystal system
# The framework has been calculated to contain at least 10.0% void space
# The void calculation uses a probe of radius 1.32A, grid spacing 0.4
# The framework is charged, counterions have been retained in the structure
#
###############################################################################

data_AXULEM
_chemical_formula_moiety         '(C128 H48 Cd14 O60 S16 14-)n'
_symmetry_cell_setting           triclinic
_symmetry_space_group_name_H-M   'P 1'
_symmetry_Int_Tables_number      1
_space_group_name_Hall           'P 1'
loop_
_symmetry_equiv_pos_site_id
_symmetry_equiv_pos_as_xyz
1 x,y,z
_cell_length_a                   14.0370(14)
_cell_length_b                   33.781(4)
_cell_length_c                   18.982(2)
_cell_angle_alpha                90
_cell_angle_beta                 103.684(3)
_cell_angle_gamma                90
_cell_volume                     8745.47
loop_
_atom_site_label
_atom_site_type_symbol
_atom_site_fract_x
_atom_site_fract_y
_atom_site_fract_z
C26 C 0.51466(19) 0.21545(8) 0.04297(15)
H11 H 0.5386 0.2021 0.0877
C27 C 0.4465(2) 0.24569(8) 0.03788(14)
C30 C 0.41339(19) 0.25858(9) 0.10353(15)
O9 O 0.63837(13) 0.14962(6) 0.03960(11)
O13 O 0.37207(14) 0.29119(6) 0.10433(10)
O14 O 0.42916(15) 0.23537(6) 0.15783(10)
Cd5 Cd 0.77383(2) 0.12108(2) 0.00830(2)
Cd6 Cd 0.76010(2) 0.01701(2) 0.02482(2)
Cd10 Cd 0.35179(2) 0.27712(2) 0.22383(2)
Cd2 Cd 0.23990(2) 0.51701(2) 0.47518(2)
Cd3 Cd 0.20552(2) 0.28269(2) 0.80177(2)
Cd4 Cd 0.35179(2) 0.22288(2) 0.72383(2)
C1 C 0.4518(2) 0.11568(8) 0.82778(15)
C2 C 0.3864(2) 0.08882(8) 0.84511(15)
H1 H 0.3179 0.0937 0.8305
C3 C 0.42063(19) 0.05464(8) 0.88391(15)
C4 C 0.52021(19) 0.04682(8) 0.90429(15)
H2 H 0.5430 0.0232 0.9301
C5 C 0.5879(2) 0.07366(8) 0.88690(15)
C6 C 0.5524(2) 0.10778(8) 0.84821(15)
H3 H 0.5972 0.1259 0.8355
C7 C 0.4158(2) 0.15298(9) 0.79004(17)
C8 C 0.1186(2) 0.25219(8) 0.61316(15)
C9 C 0.14925(19) 0.23917(8) 0.55271(14)
H4 H 0.1960 0.2184 0.5574
C10 C 0.11155(19) 0.25644(8) 0.48542(14)
C11 C 0.04297(19) 0.28660(8) 0.47786(15)
H5 H 0.0197 0.2991 0.4322
C12 C 0.00863(19) 0.29835(8) 0.53727(14)
C13 C 0.0466(2) 0.28128(8) 0.60446(15)
H6 H 0.0232 0.2896 0.6451
C15 C 0.6259(2) 0.17422(9) 0.98822(16)
C16 C 0.3488(2) 0.02795(8) 0.90621(16)
C18 C 0.0102(2) 0.44281(8) 0.58485(16)
C19 C 0.11013(19) 0.43542(8) 0.59256(16)
C20 C 0.1553(2) 0.40534(8) 0.63783(16)
H8 H 0.2229 0.3998 0.6424
C21 C 0.1017(2) 0.38334(9) 0.67630(16)
C22 C 0.0052(2) 0.39157(8) 0.67016(15)
C23 C 0.1484(2) 0.34951(9) 0.72375(16)
C24 C 0.50886(19) 0.22301(8) 0.91617(15)
H10 H 0.5315 0.2154 0.8748
C25 C 0.54745(19) 0.20493(8) 0.98266(14)
C28 C 0.4080(2) 0.26415(8) 0.97119(14)
H12 H 0.3617 0.2850 0.9681
C29 C 0.4370(2) 0.25226(9) 0.91004(14)
C31 C 0.14524(19) 0.24221(9) 0.42099(15)
C32 C 0.1671(2) 0.46026(9) 0.55218(17)
O1 O 0.32966(17) 0.16468(7) 0.79092(13)
O2 O 0.47080(16) 0.17329(6) 0.76096(11)
O3 O 0.09857(15) 0.33190(6) 0.76105(11)
O4 O 0.23492(16) 0.33968(7) 0.72461(13)
O5 O 0.25885(14) 0.03661(6) 0.89069(12)
O10 O 0.67761(13) 0.17388(6) 0.94269(10)
O11 O 0.11898(14) 0.48504(6) 0.50709(12)
O12 O 0.25775(14) 0.45699(6) 0.56344(12)
O15 O 0.17562(14) 0.20721(6) 0.41914(10)
O16 O 0.14385(16) 0.26586(6) 0.36948(11)
S1 S 0.71648(5) 0.06565(2) 0.91416(4)
S3 S 0.16358(5) 0.22935(2) 0.69877(4)
S4 S 0.39227(5) 0.27666(2) 0.82601(4)
Cd9 Cd 0.20552(2) 0.21731(2) 0.30177(2)
O17 O 0.25885(14) 0.46339(6) 0.39069(12)
O18 O 0.38126(13) 0.50198(5) 0.44415(11)
O21 O 0.37207(14) 0.20881(6) 0.60433(10)
O22 O 0.42916(15) 0.26463(6) 0.65783(10)
O23 O 0.17562(14) 0.29279(6) 0.91914(10)
O24 O 0.14385(16) 0.23414(6) 0.86948(11)
S5 S 0.28352(5) 0.56565(2) 0.58584(4)
S7 S 0.17132(5) 0.57178(2) 0.38318(4)
O6 O 0.38126(13) 0.99802(5) 0.94415(11)
Cd8 Cd 0.23990(2) 0.98299(2) 0.97518(2)
Cd1 Cd 0.77383(2) 0.37892(2) 0.50830(2)
C14 C 0.9280(2) 0.32862(9) 0.52891(16)
C17 C 0.95626(19) 0.42128(8) 0.62412(15)
H7 H 0.9788 0.4628 0.5523
H9 H 0.9699 0.3767 0.6980
O7 O 0.87436(14) 0.32798(6) 0.57334(11)
O8 O 0.91386(14) 0.35252(6) 0.47612(11)
S2 S 0.82868(5) 0.42822(2) 0.61682(4)
Cd7 Cd 0.76010(2) 0.48299(2) 0.52482(2)
O19 O 0.63837(13) 0.35038(6) 0.53960(11)
O20 O 0.67761(13) 0.32612(6) 0.44269(10)
S6 S 0.71648(5) 0.43435(2) 0.41416(4)
O8_2 O 0.08614(14) 0.85252(6) 0.02388(11)
O20_2 O 0.32239(13) 0.82612(6) 0.05731(10)
S6_2 S 0.28352(5) 0.93435(2) 0.08584(4)
Cd1_2 Cd 0.22617(2) 0.87892(2) 0.99170(2)
C14_2 C 0.0720(2) 0.82862(9) 0.97109(16)
C17_2 C 0.04374(19) 0.92128(8) 0.87588(15)
H7_2 H 0.0212 0.9628 0.9477
H9_2 H 0.0301 0.8767 0.8020
O7_2 O 0.12564(14) 0.82798(6) 0.92666(11)
S2_2 S 0.17132(5) 0.92822(2) 0.88318(4)
O19_2 O 0.36163(13) 0.85038(6) 0.96040(11)
O18_2 O 0.61874(13) 0.00198(5) 0.05585(11)
S7_2 S 0.82868(5) 0.07178(2) 0.11682(4)
C10_2 C 0.88845(19) 0.75644(8) 0.01458(14)
C11_2 C 0.95703(19) 0.78660(8) 0.02214(15)
H5_2 H 0.9803 0.7991 0.0678
C31_2 C 0.85476(19) 0.74221(9) 0.07901(15)
O15_2 O 0.82438(14) 0.70721(6) 0.08086(10)
O16_2 O 0.85615(16) 0.76586(6) 0.13052(11)
Cd9_2 Cd 0.79448(2) 0.71731(2) 0.19823(2)
O17_2 O 0.74115(14) 0.96339(6) 0.10931(12)
Cd3_2 Cd 0.79448(2) 0.78269(2) 0.69823(2)
Cd4_2 Cd 0.64821(2) 0.72288(2) 0.77617(2)
C1_2 C 0.5482(2) 0.61568(8) 0.67222(15)
C2_2 C 0.6136(2) 0.58882(8) 0.65489(15)
H1_2 H 0.6821 0.5937 0.6695
C3_2 C 0.57937(19) 0.55464(8) 0.61609(15)
C4_2 C 0.47979(19) 0.54682(8) 0.59571(15)
H2_2 H 0.4570 0.5232 0.5699
C5_2 C 0.4121(2) 0.57366(8) 0.61310(15)
C6_2 C 0.4476(2) 0.60778(8) 0.65179(15)
H3_2 H 0.4028 0.6259 0.6645
C7_2 C 0.5842(2) 0.65298(9) 0.70996(17)
C8_2 C 0.8814(2) 0.75219(8) 0.88684(15)
C9_2 C 0.85075(19) 0.73917(8) 0.94729(14)
H4_2 H 0.8040 0.7184 0.9426
C12_2 C 0.99137(19) 0.79835(8) 0.96273(14)
C13_2 C 0.9534(2) 0.78128(8) 0.89554(15)
H6_2 H 0.9768 0.7896 0.8549
C15_2 C 0.3741(2) 0.67422(9) 0.51178(16)
C16_2 C 0.6512(2) 0.52795(8) 0.59379(16)
C18_2 C 0.9898(2) 0.94281(8) 0.91515(16)
C19_2 C 0.88987(19) 0.93542(8) 0.90744(16)
C20_2 C 0.8447(2) 0.90534(8) 0.86217(16)
H8_2 H 0.7771 0.8998 0.8576
C21_2 C 0.8983(2) 0.88334(9) 0.82370(16)
C22_2 C 0.9948(2) 0.89157(8) 0.82984(15)
C23_2 C 0.8516(2) 0.84951(9) 0.77625(16)
C24_2 C 0.49114(19) 0.72301(8) 0.58383(15)
H10_2 H 0.4685 0.7154 0.6252
C25_2 C 0.45255(19) 0.70493(8) 0.51734(14)
C26_2 C 0.48534(19) 0.71545(8) 0.45703(15)
H11_2 H 0.4614 0.7021 0.4123
C27_2 C 0.5535(2) 0.74569(8) 0.46212(14)
C28_2 C 0.5920(2) 0.76415(8) 0.52881(14)
H12_2 H 0.6383 0.7850 0.5319
C29_2 C 0.5630(2) 0.75226(9) 0.58996(14)
C30_2 C 0.58661(19) 0.75858(9) 0.39647(15)
C32_2 C 0.8329(2) 0.96026(9) 0.94782(17)
O1_2 O 0.67034(17) 0.66468(7) 0.70908(13)
O2_2 O 0.52920(16) 0.67329(6) 0.73904(11)
O3_2 O 0.90143(15) 0.83190(6) 0.73895(11)
O4_2 O 0.76508(16) 0.83968(7) 0.77539(13)
O5_2 O 0.74115(14) 0.53661(6) 0.60931(12)
O6_2 O 0.61874(13) 0.49802(5) 0.55585(11)
O9_2 O 0.36163(13) 0.64962(6) 0.46040(11)
O10_2 O 0.32239(13) 0.67388(6) 0.55731(10)
O11_2 O 0.88102(14) 0.98504(6) 0.99291(12)
O12_2 O 0.74225(14) 0.95699(6) 0.93656(12)
O13_2 O 0.62793(14) 0.79119(6) 0.39567(10)
O14_2 O 0.57084(15) 0.73537(6) 0.34217(10)
S3_2 S 0.83642(5) 0.72935(2) 0.80123(4)
S4_2 S 0.60773(5) 0.77666(2) 0.67399(4)
Cd5_2 Cd 0.22617(2) 0.62108(2) 0.49170(2)
Cd10_2 Cd 0.64821(2) 0.77712(2) 0.27617(2)
O21_2 O 0.62793(14) 0.70881(6) 0.89567(10)
O22_2 O 0.57084(15) 0.76463(6) 0.84217(10)
O23_2 O 0.82438(14) 0.79279(6) 0.58086(10)
O24_2 O 0.85615(16) 0.73414(6) 0.63052(11)
C14_3 C 0.0720(2) 0.67138(9) 0.47109(16)
C17_3 C 0.04374(19) 0.57872(8) 0.37588(15)
H7_3 H 0.0212 0.5372 0.4477
H9_3 H 0.0301 0.6233 0.3020
O7_3 O 0.12564(14) 0.67202(6) 0.42666(11)
O8_3 O 0.08614(14) 0.64748(6) 0.52388(11)
C1_3 C 0.5482(2) 0.88432(8) 0.17222(15)
C2_3 C 0.6136(2) 0.91118(8) 0.15489(15)
H1_3 H 0.6821 0.9063 0.1695
C3_3 C 0.57937(19) 0.94536(8) 0.11609(15)
C4_3 C 0.47979(19) 0.95318(8) 0.09571(15)
H2_3 H 0.4570 0.9768 0.0699
C5_3 C 0.4121(2) 0.92634(8) 0.11310(15)
C6_3 C 0.4476(2) 0.89222(8) 0.15179(15)
H3_3 H 0.4028 0.8741 0.1645
C7_3 C 0.5842(2) 0.84702(9) 0.20996(17)
C8_3 C 0.8814(2) 0.74781(8) 0.38684(15)
C9_3 C 0.85075(19) 0.76083(8) 0.44729(14)
H4_3 H 0.8040 0.7816 0.4426
C10_3 C 0.88845(19) 0.74356(8) 0.51458(14)
C11_3 C 0.95703(19) 0.71340(8) 0.52214(15)
H5_3 H 0.9803 0.7009 0.5678
C12_3 C 0.99137(19) 0.70165(8) 0.46273(14)
C13_3 C 0.9534(2) 0.71872(8) 0.39554(15)
H6_3 H 0.9768 0.7104 0.3549
C15_3 C 0.3741(2) 0.82578(9) 0.01178(16)
C16_3 C 0.6512(2) 0.97205(8) 0.09379(16)
C18_3 C 0.9898(2) 0.55719(8) 0.41515(16)
C19_3 C 0.88987(19) 0.56458(8) 0.40744(16)
C20_3 C 0.8447(2) 0.59466(8) 0.36217(16)
H8_3 H 0.7771 0.6002 0.3576
C21_3 C 0.8983(2) 0.61666(9) 0.32370(16)
C22_3 C 0.9948(2) 0.60843(8) 0.32984(15)
C23_3 C 0.8516(2) 0.65049(9) 0.27625(16)
C24_3 C 0.49114(19) 0.77699(8) 0.08383(15)
H10_3 H 0.4685 0.7846 0.1252
C25_3 C 0.45255(19) 0.79507(8) 0.01734(14)
C28_3 C 0.5920(2) 0.73585(8) 0.02881(14)
H12_3 H 0.6383 0.7150 0.0319
C29_3 C 0.5630(2) 0.74774(9) 0.08996(14)
C31_3 C 0.85476(19) 0.75779(9) 0.57901(15)
C32_3 C 0.8329(2) 0.53974(9) 0.44782(17)
O1_3 O 0.67034(17) 0.83532(7) 0.20908(13)
O2_3 O 0.52920(16) 0.82671(6) 0.23904(11)
O3_3 O 0.90143(15) 0.66810(6) 0.23895(11)
O4_3 O 0.76508(16) 0.66032(7) 0.27539(13)
O11_3 O 0.88102(14) 0.51496(6) 0.49291(12)
O12_3 O 0.74225(14) 0.54301(6) 0.43656(12)
S3_3 S 0.83642(5) 0.77065(2) 0.30123(4)
S4_3 S 0.60773(5) 0.72334(2) 0.17399(4)
C26_3 C 0.48534(19) 0.78455(8) 0.95703(15)
H11_3 H 0.4614 0.7979 0.9123
C27_3 C 0.5535(2) 0.75431(8) 0.96212(14)
C30_3 C 0.58661(19) 0.74142(9) 0.89647(15)
C1_4 C 0.4518(2) 0.38432(8) 0.32778(15)
C2_4 C 0.3864(2) 0.41118(8) 0.34511(15)
H1_4 H 0.3179 0.4063 0.3305
C3_4 C 0.42063(19) 0.44536(8) 0.38391(15)
C4_4 C 0.52021(19) 0.45318(8) 0.40429(15)
H2_4 H 0.5430 0.4768 0.4301
C5_4 C 0.5879(2) 0.42634(8) 0.38690(15)
C6_4 C 0.5524(2) 0.39222(8) 0.34821(15)
H3_4 H 0.5972 0.3741 0.3355
C7_4 C 0.4158(2) 0.34702(9) 0.29004(17)
C8_4 C 0.1186(2) 0.24781(8) 0.11316(15)
C9_4 C 0.14925(19) 0.26083(8) 0.05271(14)
H4_4 H 0.1960 0.2816 0.0574
C12_4 C 0.00863(19) 0.20165(8) 0.03727(14)
C13_4 C 0.0466(2) 0.21872(8) 0.10446(15)
H6_4 H 0.0232 0.2104 0.1451
C15_4 C 0.6259(2) 0.32578(9) 0.48822(16)
C16_4 C 0.3488(2) 0.47205(8) 0.40621(16)
C18_4 C 0.0102(2) 0.05719(8) 0.08485(16)
C19_4 C 0.11013(19) 0.06458(8) 0.09256(16)
C20_4 C 0.1553(2) 0.09466(8) 0.13783(16)
H8_4 H 0.2229 0.1002 0.1424
C21_4 C 0.1017(2) 0.11666(9) 0.17630(16)
C22_4 C 0.0052(2) 0.10843(8) 0.17016(15)
C23_4 C 0.1484(2) 0.15049(9) 0.22375(16)
C24_4 C 0.50886(19) 0.27699(8) 0.41617(15)
H10_4 H 0.5315 0.2846 0.3748
C25_4 C 0.54745(19) 0.29507(8) 0.48266(14)
C26_4 C 0.51466(19) 0.28455(8) 0.54297(15)
H11_4 H 0.5386 0.2979 0.5877
C27_4 C 0.4465(2) 0.25431(8) 0.53788(14)
C28_4 C 0.4080(2) 0.23585(8) 0.47119(14)
H12_4 H 0.3617 0.2150 0.4681
C29_4 C 0.4370(2) 0.24774(9) 0.41004(14)
C30_4 C 0.41339(19) 0.24142(9) 0.60353(15)
C32_4 C 0.1671(2) 0.03974(9) 0.05218(17)
O1_4 O 0.32966(17) 0.33532(7) 0.29092(13)
O2_4 O 0.47080(16) 0.32671(6) 0.26096(11)
O3_4 O 0.09857(15) 0.16810(6) 0.26105(11)
O4_4 O 0.23492(16) 0.16032(7) 0.22461(13)
O11_4 O 0.11898(14) 0.01496(6) 0.00709(12)
O12_4 O 0.25775(14) 0.04301(6) 0.06344(12)
S3_4 S 0.16358(5) 0.27065(2) 0.19877(4)
S4_4 S 0.39227(5) 0.22334(2) 0.32601(4)
C10_4 C 0.11155(19) 0.24356(8) 0.98542(14)
C11_4 C 0.04297(19) 0.21340(8) 0.97786(15)
H5_4 H 0.0197 0.2009 0.9322
C31_4 C 0.14524(19) 0.25779(9) 0.92099(15)
C14_4 C 0.9280(2) 0.17138(9) 0.02891(16)
C17_4 C 0.95626(19) 0.07872(8) 0.12412(15)
H7_4 H 0.9788 0.0372 0.0523
H9_4 H 0.9699 0.1233 0.1980
O7_4 O 0.87436(14) 0.17202(6) 0.07334(11)
O8_4 O 0.91386(14) 0.14748(6) 0.97612(11)
loop_
_geom_bond_atom_site_label_1
_geom_bond_atom_site_label_2
_geom_bond_site_symmetry_1
_geom_bond_site_symmetry_2
H11 C26 1_555 1_555
C27 C26 1_555 1_555
C30 C27 1_555 1_555
O13 C30 1_555 1_555
O14 C30 1_555 1_555
Cd5 O9 1_555 1_555
Cd10 O13 1_555 1_555
O14 Cd10 1_555 1_555
Cd2 O11 1_555 1_555
Cd3 O3 1_555 1_555
Cd4 O1 1_555 1_555
C1 C2 1_555 1_555
C2 H1 1_555 1_555
C3 C2 1_555 1_555
C4 C3 1_555 1_555
H2 C4 1_555 1_555
C5 C4 1_555 1_555
C6 C1 1_555 1_555
H3 C6 1_555 1_555
C7 C1 1_555 1_555
C8 C9 1_555 1_555
C9 H4 1_555 1_555
C10 C9 1_555 1_555
C11 C10 1_555 1_555
H5 C11 1_555 1_555
C12 C11 1_555 1_555
C13 C8 1_555 1_555
H6 C13 1_555 1_555
C15 C25 1_555 1_555
C16 C3 1_555 1_555
C19 C18 1_555 1_555
C20 C19 1_555 1_555
H8 C20 1_555 1_555
C21 C20 1_555 1_555
C23 C21 1_555 1_555
C24 H10 1_555 1_555
C25 C24 1_555 1_555
H12 C28 1_555 1_555
C29 C24 1_555 1_555
C31 C10 1_555 1_555
C32 C19 1_555 1_555
O1 C7 1_555 1_555
O2 Cd4 1_555 1_555
O3 C23 1_555 1_555
O4 Cd3 1_555 1_555
O5 C16 1_555 1_555
O10 C15 1_555 1_555
O11 C32 1_555 1_555
O12 Cd2 1_555 1_555
O15 C31 1_555 1_555
O16 C31 1_555 1_555
S1 C5 1_555 1_555
S3 Cd3 1_555 1_555
S4 Cd3 1_555 1_555
Cd9 O15 1_555 1_555
O17 Cd2 1_555 1_555
O18 Cd2 1_555 1_555
O21 Cd4 1_555 1_555
O22 Cd4 1_555 1_555
O23 Cd3 1_555 1_555
O24 Cd3 1_555 1_555
S5 Cd2 1_555 1_555
S7 Cd2 1_555 1_555
Cd4 S3 1_555 1_555
Cd4 S4 1_555 1_555
C5 C6 1_555 1_555
C7 O2 1_555 1_555
C8 S3 1_555 1_555
C12 C13 1_555 1_555
C21 C22 1_555 1_555
C23 O4 1_555 1_555
C28 C29 1_555 1_555
C29 S4 1_555 1_555
C32 O12 1_555 1_555
O16 Cd9 1_555 1_555
O6 Cd8 1_555 1_555
Cd1 O7 1_555 1_555
O7 C14 1_555 1_555
O8 Cd1 1_555 1_555
S2 Cd1 1_555 1_555
Cd7 S2 1_555 1_555
O19 Cd1 1_555 1_555
O20 Cd1 1_555 1_555
S6 Cd1 1_555 1_555
C14 O8 1_555 1_555
C17 S2 1_555 1_555
Cd7 S6 1_555 1_555
Cd1_2 O7_2 1_555 1_555
O7_2 C14_2 1_555 1_555
S2_2 Cd1_2 1_555 1_555
Cd8 S2_2 1_555 1_555
O19_2 Cd1_2 1_555 1_555
C17_2 S2_2 1_555 1_555
O18_2 Cd6 1_555 1_555
S7_2 Cd6 1_555 1_555
C11_2 C10_2 1_555 1_555
H5_2 C11_2 1_555 1_555
C31_2 C10_2 1_555 1_555
O15_2 C31_2 1_555 1_555
O16_2 C31_2 1_555 1_555
Cd9_2 O15_2 1_555 1_555
O16_2 Cd9_2 1_555 1_555
Cd3_2 O3_2 1_555 1_555
Cd4_2 O1_2 1_555 1_555
C1_2 C2_2 1_555 1_555
C2_2 H1_2 1_555 1_555
C3_2 C2_2 1_555 1_555
C4_2 C3_2 1_555 1_555
H2_2 C4_2 1_555 1_555
C5_2 C4_2 1_555 1_555
C6_2 C1_2 1_555 1_555
H3_2 C6_2 1_555 1_555
C7_2 C1_2 1_555 1_555
C8_2 C9_2 1_555 1_555
C9_2 H4_2 1_555 1_555
C13_2 C8_2 1_555 1_555
H6_2 C13_2 1_555 1_555
C15_2 C25_2 1_555 1_555
C16_2 C3_2 1_555 1_555
C19_2 C18_2 1_555 1_555
C20_2 C19_2 1_555 1_555
H8_2 C20_2 1_555 1_555
C21_2 C20_2 1_555 1_555
C23_2 C21_2 1_555 1_555
C24_2 H10_2 1_555 1_555
C25_2 C24_2 1_555 1_555
C26_2 C25_2 1_555 1_555
H11_2 C26_2 1_555 1_555
C27_2 C26_2 1_555 1_555
C28_2 C27_2 1_555 1_555
H12_2 C28_2 1_555 1_555
C29_2 C24_2 1_555 1_555
C30_2 C27_2 1_555 1_555
C32_2 C19_2 1_555 1_555
O1_2 C7_2 1_555 1_555
O2_2 Cd4_2 1_555 1_555
O3_2 C23_2 1_555 1_555
O4_2 Cd3_2 1_555 1_555
O5_2 C16_2 1_555 1_555
O6_2 C16_2 1_555 1_555
O9_2 C15_2 1_555 1_555
O10_2 C15_2 1_555 1_555
O11_2 C32_2 1_555 1_555
O13_2 C30_2 1_555 1_555
O14_2 C30_2 1_555 1_555
S5 C5_2 1_555 1_555
S3_2 Cd3_2 1_555 1_555
S4_2 Cd3_2 1_555 1_555
Cd5_2 O9_2 1_555 1_555
Cd7 O5_2 1_555 1_555
Cd10_2 O13_2 1_555 1_555
O21_2 Cd4_2 1_555 1_555
O22_2 Cd4_2 1_555 1_555
O23_2 Cd3_2 1_555 1_555
O24_2 Cd3_2 1_555 1_555
Cd4_2 S3_2 1_555 1_555
Cd4_2 S4_2 1_555 1_555
C5_2 C6_2 1_555 1_555
C7_2 O2_2 1_555 1_555
C8_2 S3_2 1_555 1_555
C12_2 C13_2 1_555 1_555
C21_2 C22_2 1_555 1_555
C23_2 O4_2 1_555 1_555
C28_2 C29_2 1_555 1_555
C29_2 S4_2 1_555 1_555
C32_2 O12_2 1_555 1_555
O6_2 Cd7 1_555 1_555
O10_2 Cd5_2 1_555 1_555
O14_2 Cd10_2 1_555 1_555
S5 Cd5_2 1_555 1_555
Cd5_2 O7_3 1_555 1_555
O7_3 C14_3 1_555 1_555
O8_3 Cd5_2 1_555 1_555
S7 Cd5_2 1_555 1_555
C14_3 O8_3 1_555 1_555
C17_3 S7 1_555 1_555
Cd7 O11_3 1_555 1_555
Cd9_2 O3_3 1_555 1_555
Cd10_2 O1_3 1_555 1_555
C1_3 C2_3 1_555 1_555
C2_3 H1_3 1_555 1_555
C3_3 C2_3 1_555 1_555
C4_3 C3_3 1_555 1_555
H2_3 C4_3 1_555 1_555
C5_3 C4_3 1_555 1_555
C6_3 C1_3 1_555 1_555
H3_3 C6_3 1_555 1_555
C7_3 C1_3 1_555 1_555
C8_3 C9_3 1_555 1_555
C9_3 H4_3 1_555 1_555
C10_3 C9_3 1_555 1_555
C11_3 C10_3 1_555 1_555
H5_3 C11_3 1_555 1_555
C12_3 C11_3 1_555 1_555
C13_3 C8_3 1_555 1_555
H6_3 C13_3 1_555 1_555
C15_3 C25_3 1_555 1_555
C16_3 C3_3 1_555 1_555
C19_3 C18_3 1_555 1_555
C20_3 C19_3 1_555 1_555
H8_3 C20_3 1_555 1_555
C21_3 C20_3 1_555 1_555
C23_3 C21_3 1_555 1_555
C24_3 H10_3 1_555 1_555
C25_3 C24_3 1_555 1_555
H12_3 C28_3 1_555 1_555
C29_3 C24_3 1_555 1_555
C31_3 C10_3 1_555 1_555
C32_3 C19_3 1_555 1_555
O1_3 C7_3 1_555 1_555
O2_3 Cd10_2 1_555 1_555
O3_3 C23_3 1_555 1_555
O4_3 Cd9_2 1_555 1_555
O17_2 C16_3 1_555 1_555
O20_2 C15_3 1_555 1_555
O11_3 C32_3 1_555 1_555
O12_3 Cd7 1_555 1_555
O23_2 C31_3 1_555 1_555
O24_2 C31_3 1_555 1_555
S6_2 C5_3 1_555 1_555
S3_3 Cd9_2 1_555 1_555
S4_3 Cd9_2 1_555 1_555
Cd10_2 S3_3 1_555 1_555
Cd10_2 S4_3 1_555 1_555
C5_3 C6_3 1_555 1_555
C7_3 O2_3 1_555 1_555
C8_3 S3_3 1_555 1_555
C12_3 C13_3 1_555 1_555
C21_3 C22_3 1_555 1_555
C23_3 O4_3 1_555 1_555
C28_3 C29_3 1_555 1_555
C29_3 S4_3 1_555 1_555
C32_3 O12_3 1_555 1_555
H11_3 C26_3 1_555 1_555
C27_3 C26_3 1_555 1_555
C30_3 C27_3 1_555 1_555
O21_2 C30_3 1_555 1_555
O22_2 C30_3 1_555 1_555
Cd9 O3_4 1_555 1_555
Cd10 O1_4 1_555 1_555
C1_4 C2_4 1_555 1_555
C2_4 H1_4 1_555 1_555
C3_4 C2_4 1_555 1_555
C4_4 C3_4 1_555 1_555
H2_4 C4_4 1_555 1_555
C5_4 C4_4 1_555 1_555
C6_4 C1_4 1_555 1_555
H3_4 C6_4 1_555 1_555
C7_4 C1_4 1_555 1_555
C8_4 C9_4 1_555 1_555
C9_4 H4_4 1_555 1_555
C13_4 C8_4 1_555 1_555
H6_4 C13_4 1_555 1_555
C15_4 C25_4 1_555 1_555
C16_4 C3_4 1_555 1_555
C19_4 C18_4 1_555 1_555
C20_4 C19_4 1_555 1_555
H8_4 C20_4 1_555 1_555
C21_4 C20_4 1_555 1_555
C23_4 C21_4 1_555 1_555
C24_4 H10_4 1_555 1_555
C25_4 C24_4 1_555 1_555
C26_4 C25_4 1_555 1_555
H11_4 C26_4 1_555 1_555
C27_4 C26_4 1_555 1_555
C28_4 C27_4 1_555 1_555
H12_4 C28_4 1_555 1_555
C29_4 C24_4 1_555 1_555
C30_4 C27_4 1_555 1_555
C32_4 C19_4 1_555 1_555
O1_4 C7_4 1_555 1_555
O2_4 Cd10 1_555 1_555
O3_4 C23_4 1_555 1_555
O4_4 Cd9 1_555 1_555
O17 C16_4 1_555 1_555
O18 C16_4 1_555 1_555
O19 C15_4 1_555 1_555
O20 C15_4 1_555 1_555
O11_4 C32_4 1_555 1_555
O21 C30_4 1_555 1_555
O22 C30_4 1_555 1_555
S6 C5_4 1_555 1_555
S3_4 Cd9 1_555 1_555
S4_4 Cd9 1_555 1_555
Cd10 S3_4 1_555 1_555
Cd10 S4_4 1_555 1_555
C5_4 C6_4 1_555 1_555
C7_4 O2_4 1_555 1_555
C8_4 S3_4 1_555 1_555
C12_4 C13_4 1_555 1_555
C21_4 C22_4 1_555 1_555
C23_4 O4_4 1_555 1_555
C28_4 C29_4 1_555 1_555
C29_4 S4_4 1_555 1_555
C32_4 O12_4 1_555 1_555
C11_4 C10_4 1_555 1_555
H5_4 C11_4 1_555 1_555
C31_4 C10_4 1_555 1_555
O23 C31_4 1_555 1_555
O24 C31_4 1_555 1_555
Cd5 O7_4 1_555 1_555
O7_4 C14_4 1_555 1_555
S7_2 Cd5 1_555 1_555
C17_4 S7_2 1_555 1_555

#END
