
###############################################################################
#
# This file contains modified crystal structure data generated from the
# MOF subset of the Cambridge Structural Database (CSD) v543 
# hosted by the Cambridge Crystallographic Data Centre (CCDC).
#
# This work is licensed under the Creative Commons
# Attribution-NonCommercial-ShareAlike 4.0 International License.
# To view a copy of this license, visit
# http://creativecommons.org/licenses/by-nc-sa/4.0/
# or send a letter to
# Creative Commons, PO Box 1866, Mountain View, CA 94042, USA.
#
# CIF created using the CSD Python API on 29 September 2022
# The structure has been converted into the P1 space group
# The structure has a 3D framework
# The original CSD entry AYOQEM is in the rhombohedral crystal system
# The framework has been calculated to contain at least 10.0% void space
# The void calculation uses a probe of radius 1.32A, grid spacing 0.4
# H atom positions have been added when not included in the experimental data
#
###############################################################################

data_AYOQEM
_chemical_formula_moiety         '(C552 H510 Cu48 N24 O222)n'
_symmetry_cell_setting           triclinic
_symmetry_space_group_name_H-M   'P 1'
_symmetry_Int_Tables_number      1
_space_group_name_Hall           'P 1'
loop_
_symmetry_equiv_pos_site_id
_symmetry_equiv_pos_as_xyz
1 x,y,z
_cell_length_a                   45.8487(17)
_cell_length_b                   45.8487(17)
_cell_length_c                   45.8487(17)
_cell_angle_alpha                33.465(2)
_cell_angle_beta                 33.465(2)
_cell_angle_gamma                33.465(2)
_cell_volume                     26099.7
loop_
_atom_site_label
_atom_site_type_symbol
_atom_site_fract_x
_atom_site_fract_y
_atom_site_fract_z
O19 O 0.0194(3) 0.3573(3) 0.0477(3)
N2 N 0.0299(5) 0.2992(5) 0.1264(5)
C46 C 0.0970(7) 0.2715(9) 0.0945(8)
H33 H 0.0201 0.2346 0.2116
H35 H -0.0000 0.2935 0.1971
H36 H 0.1116 0.2804 0.0572
H37 H 0.1130 0.2293 0.1185
H38 H 0.1091 0.2874 0.0874
C51 C 0.0521(4) 0.0609(4) 0.9664(4)
C56 C 0.0783(4) 0.1008(4) 0.9021(4)
C57 C 0.0869(4) 0.0002(4) 0.9923(4)
H44 H 0.0526 0.1412 0.8895
C61 C 0.1334(4) 0.0853(4) 0.8614(4)
H49 H 0.1597 0.0450 0.8725
C65 C 0.1556(4) 0.1264(4) 0.8010(4)
O25 O 0.1206(3) 0.1814(3) 0.7862(3)
O26 O 0.2098(2) 0.1059(2) 0.7669(2)
Cu15 Cu 0.14265(4) 0.24505(4) 0.70865(4)
Cu16 Cu 0.24886(4) 0.15644(4) 0.68653(4)
O50 O 0.0377(3) 0.3524(3) 0.9726(3)
O51 O 0.0084(4) 0.4600(3) 0.9324(3)
C48 C 0.0002(4) 0.9923(4) 0.0869(4)
C52 C 0.0609(4) 0.9664(4) 0.0521(4)
C58 C 0.1008(4) 0.9021(4) 0.0783(4)
H46 H 0.1412 0.8895 0.0526
C62 C 0.0853(4) 0.8614(4) 0.1334(4)
H50 H 0.0450 0.8725 0.1597
C66 C 0.1264(4) 0.8010(4) 0.1556(4)
O27 O 0.1814(3) 0.7862(3) 0.1206(3)
O28 O 0.1059(2) 0.7669(2) 0.2098(2)
Cu14 Cu 0.00695(5) 0.97452(5) 0.40475(5)
Cu17 Cu 0.24505(4) 0.70865(4) 0.14265(4)
Cu18 Cu 0.15644(4) 0.68653(4) 0.24886(4)
H45 H 0.1274 0.9827 0.9691
Cu24 Cu 0.40475(5) 0.00695(5) 0.97452(5)
Cu1 Cu 0.68653(4) 0.24886(4) 0.15644(4)
O1 O 0.6091(2) 0.2725(2) 0.2213(2)
Cu2 Cu 0.70865(4) 0.14265(4) 0.24505(4)
O2 O 0.6620(3) 0.3359(3) 0.0866(3)
O3 O 0.6569(3) 0.2237(3) 0.1676(3)
O4 O 0.7204(3) 0.2569(3) 0.1581(3)
O5 O 0.7669(2) 0.2098(2) 0.1059(2)
C1 C 0.5948(3) 0.2354(3) 0.2757(3)
O6 O 0.7324(3) 0.0554(4) 0.3155(3)
O7 O 0.6268(2) 0.1804(2) 0.2968(2)
O8 O 0.7862(3) 0.1206(3) 0.1814(3)
O9 O 0.6791(3) 0.1329(3) 0.2399(3)
O10 O 0.7340(3) 0.1697(3) 0.2371(3)
C2 C 0.6576(4) 0.1736(4) 0.2063(4)
C3 C 0.7372(4) 0.2165(4) 0.1963(4)
C4 C 0.8010(4) 0.1556(4) 0.1264(4)
C5 C 0.5334(3) 0.2588(4) 0.3179(4)
C6 C 0.7221(10) 0.0575(10) 0.3449(11)
C7 C 0.6319(4) 0.1641(4) 0.2080(4)
C8 C 0.7663(4) 0.2278(4) 0.1896(4)
C9 C 0.8614(4) 0.1334(4) 0.0853(4)
H1 H 0.5197 0.2322 0.3577
C10 C 0.4975(3) 0.3155(4) 0.3018(3)
H2 H 0.6844 0.0868 0.3569
N1 N 0.7545(8) 0.0248(8) 0.3681(9)
C11 C 0.6122(4) 0.2018(4) 0.1722(4)
H3 H 0.6300 0.1284 0.2370
H4 H 0.7700 0.2627 0.1584
C12 C 0.7857(4) 0.1913(4) 0.2251(4)
C13 C 0.9021(4) 0.0783(4) 0.1008(4)
H5 H 0.8725 0.1597 0.0450
H6 H 0.5138 0.3406 0.2621
C14 C 0.4339(3) 0.3452(3) 0.3385(3)
C16 C 0.7391(10) 0.0463(11) 0.3934(11)
H7 H 0.6179 0.2354 0.1413
C17 C 0.5814(4) 0.1983(3) 0.1740(4)
H8 H 0.7801 0.1575 0.2564
C18 C 0.8158(4) 0.1962(4) 0.2223(4)
H9 H 0.8895 0.0526 0.1412
C19 C 0.9664(4) 0.0521(4) 0.0609(4)
C20 C 0.4011(3) 0.4045(3) 0.3115(3)
H13 H 0.7288 0.0878 0.3681
H14 H 0.7725 0.0245 0.3961
H15 H 0.7059 0.0405 0.4322
C21 C 0.5693(4) 0.1515(4) 0.2166(4)
C22 C 0.5640(5) 0.2435(4) 0.1308(4)
C23 C 0.8289(4) 0.2432(4) 0.1775(4)
C24 C 0.8346(4) 0.1505(4) 0.2659(4)
C25 C 0.9923(4) 0.0869(4) 0.0002(4)
H16 H 0.4196 0.4262 0.2707
H17 H 0.5813 0.1204 0.2459
C26 C 0.5409(4) 0.1482(4) 0.2185(4)
C27 C 0.5330(4) 0.2448(4) 0.1303(4)
H18 H 0.5734 0.2745 0.1007
C28 C 0.8575(4) 0.2458(4) 0.1768(4)
H19 H 0.8183 0.2734 0.1475
C29 C 0.8642(4) 0.1508(4) 0.2656(4)
H20 H 0.8264 0.1186 0.2962
C30 C 0.5275(4) 0.0983(4) 0.2666(4)
C31 C 0.5223(5) 0.1940(4) 0.1764(4)
C32 C 0.5107(4) 0.2942(4) 0.0872(4)
C33 C 0.8694(4) 0.2980(4) 0.1285(4)
C34 C 0.8758(4) 0.1998(4) 0.2203(4)
C35 C 0.8855(4) 0.1003(4) 0.3106(4)
C36 C 0.5388(4) 0.0525(4) 0.3103(4)
H22 H 0.5069 0.1008 0.2644
H23 H 0.5025 0.1925 0.1773
C37 C 0.5201(5) 0.3402(5) 0.0421(5)
H24 H 0.4874 0.2924 0.0929
C38 C 0.8881(4) 0.3107(4) 0.1255(4)
H25 H 0.8622 0.3239 0.0973
H26 H 0.8954 0.2014 0.2196
H27 H 0.8728 0.0717 0.3415
C39 C 0.9185(5) 0.0915(4) 0.3122(4)
H28 H 0.5616 0.0475 0.3120
C40 C 0.5201(4) 0.0052(3) 0.3595(4)
H29 H 0.5445 0.3418 0.0351
H30 H 0.8896 0.2888 0.1590
C42 C 0.9081(4) 0.3579(4) 0.0726(4)
C43 C 0.9386(4) 0.0393(4) 0.3590(4)
H31 H 0.9315 0.1198 0.2819
O11 O 0.4922(3) 0.0094(3) 0.3568(3)
O13 O 0.4649(3) 0.3867(3) 0.0079(3)
O15 O 0.9352(3) 0.3567(3) 0.0736(3)
O16 O 0.8943(3) 0.3952(3) 0.0326(3)
O18 O 0.9726(3) 0.0377(3) 0.3524(3)
C44 C 0.9979(6) 0.3389(5) 0.0991(6)
H32 H 0.9570 0.3524 0.1216
C45 C 0.9994(8) 0.2772(9) 0.1924(8)
H34 H 0.9591 0.2895 0.2099
H35_2 H 1.0000 0.2935 0.1971
C47 C 0.4045(3) 0.3115(3) 0.4011(3)
C49 C 0.3385(3) 0.4339(3) 0.3452(3)
C50 C 0.3452(3) 0.3385(3) 0.4339(3)
H39 H 0.4262 0.2707 0.4196
C53 C 0.3018(3) 0.4975(3) 0.3155(4)
C54 C 0.3115(3) 0.4011(3) 0.4045(3)
C55 C 0.3155(4) 0.3018(3) 0.4975(3)
C59 C 0.3179(4) 0.5334(3) 0.2588(4)
H41 H 0.2621 0.5138 0.3406
H42 H 0.2707 0.4196 0.4262
C60 C 0.2588(4) 0.3179(4) 0.5334(3)
H43 H 0.3406 0.2621 0.5138
H47 H 0.3577 0.5197 0.2322
C63 C 0.2757(3) 0.5948(3) 0.2354(3)
H48 H 0.2322 0.3577 0.5197
C64 C 0.2354(3) 0.2757(3) 0.5948(3)
O21 O 0.2213(2) 0.6091(2) 0.2725(2)
O22 O 0.2968(2) 0.6268(2) 0.1804(2)
O23 O 0.2725(2) 0.2213(2) 0.6091(2)
O24 O 0.1804(2) 0.2968(2) 0.6268(2)
Cu11 Cu 0.97452(5) 0.40475(5) 0.00695(5)
O29 O 0.0866(3) 0.6620(3) 0.3359(3)
O30 O 0.1676(3) 0.6569(3) 0.2237(3)
O31 O 0.1581(3) 0.7204(3) 0.2569(3)
O33 O 0.3155(3) 0.7324(3) 0.0554(4)
O34 O 0.2399(3) 0.6791(3) 0.1329(3)
O35 O 0.2371(3) 0.7340(3) 0.1697(3)
O37 O 0.3359(3) 0.0866(3) 0.6620(3)
O38 O 0.2237(3) 0.1676(3) 0.6569(3)
O39 O 0.2569(3) 0.1581(3) 0.7204(3)
O41 O 0.0554(4) 0.3155(3) 0.7324(3)
O42 O 0.1329(3) 0.2399(3) 0.6791(3)
O43 O 0.1697(3) 0.2371(3) 0.7340(3)
O45 O 0.3867(3) 0.0079(3) 0.4649(3)
O47 O 0.3568(3) 0.4922(3) 0.0094(3)
O49 O 0.9028(3) 0.4670(3) 0.0313(3)
C67 C 0.2063(4) 0.6576(4) 0.1736(4)
C68 C 0.1963(4) 0.7372(4) 0.2165(4)
C69 C 0.3449(11) 0.7221(10) 0.0575(10)
C70 C 0.1736(4) 0.2063(4) 0.6576(4)
C71 C 0.2165(4) 0.1963(4) 0.7372(4)
C72 C 0.0575(10) 0.3449(11) 0.7221(10)
C74 C 0.3595(4) 0.5201(4) 0.0052(3)
C75 C 0.2080(4) 0.6319(4) 0.1641(4)
C76 C 0.1896(4) 0.7663(4) 0.2278(4)
H51 H 0.3569 0.6844 0.0868
N3 N 0.3681(9) 0.7545(8) 0.0248(8)
C77 C 0.1641(4) 0.2080(4) 0.6319(4)
C78 C 0.2278(4) 0.1896(4) 0.7663(4)
H52 H 0.0868 0.3569 0.6844
N4 N 0.0248(8) 0.3681(9) 0.7545(8)
C79 C 0.3402(5) 0.0421(5) 0.5201(5)
C80 C 0.3103(4) 0.5388(4) 0.0525(4)
C81 C 0.1722(4) 0.6122(4) 0.2018(4)
H53 H 0.2370 0.6300 0.1284
H54 H 0.1584 0.7700 0.2627
C82 C 0.2251(4) 0.7857(4) 0.1913(4)
C84 C 0.3934(11) 0.7391(10) 0.0463(11)
C85 C 0.2018(4) 0.1722(4) 0.6122(4)
H55 H 0.1284 0.2370 0.6300
H56 H 0.2627 0.1584 0.7700
C86 C 0.1913(4) 0.2251(4) 0.7857(4)
C88 C 0.0463(11) 0.3934(11) 0.7391(10)
H57 H 0.3418 0.0351 0.5445
C89 C 0.2942(4) 0.0872(4) 0.5107(4)
H58 H 0.3120 0.5616 0.0475
C90 C 0.2666(4) 0.5275(4) 0.0983(4)
H59 H 0.1413 0.6179 0.2354
C91 C 0.1740(4) 0.5814(4) 0.1983(3)
H60 H 0.2564 0.7801 0.1575
C92 C 0.2223(4) 0.8158(4) 0.1962(4)
H64 H 0.3681 0.7288 0.0878
H65 H 0.3961 0.7725 0.0245
H66 H 0.4322 0.7059 0.0405
H67 H 0.2354 0.1413 0.6179
C93 C 0.1983(3) 0.1740(4) 0.5814(4)
H68 H 0.1575 0.2564 0.7801
C94 C 0.1962(4) 0.2223(4) 0.8158(4)
H72 H 0.0878 0.3681 0.7288
H73 H 0.0245 0.3961 0.7725
H74 H 0.0405 0.4322 0.7059
H75 H 0.2924 0.0929 0.4874
C95 C 0.2448(4) 0.1303(4) 0.5330(4)
H76 H 0.2644 0.5069 0.1008
C96 C 0.2185(4) 0.5409(4) 0.1482(4)
C97 C 0.2166(4) 0.5693(4) 0.1515(4)
C98 C 0.1308(4) 0.5640(5) 0.2435(4)
C99 C 0.1775(4) 0.8289(4) 0.2432(4)
C100 C 0.2659(4) 0.8346(4) 0.1505(4)
C101 C 0.1515(4) 0.2166(4) 0.5693(4)
C102 C 0.2435(4) 0.1308(4) 0.5640(5)
C103 C 0.2432(4) 0.1775(4) 0.8289(4)
C104 C 0.1505(4) 0.2659(4) 0.8346(4)
C105 C 0.1940(4) 0.1764(4) 0.5223(5)
C106 C 0.1764(4) 0.5223(5) 0.1940(4)
H77 H 0.2459 0.5813 0.1204
C107 C 0.1303(4) 0.5330(4) 0.2448(4)
H78 H 0.1007 0.5734 0.2745
C108 C 0.1768(4) 0.8575(4) 0.2458(4)
H79 H 0.1475 0.8183 0.2734
C109 C 0.2656(4) 0.8642(4) 0.1508(4)
H80 H 0.2962 0.8264 0.1186
H81 H 0.1204 0.2459 0.5813
C110 C 0.1482(4) 0.2185(4) 0.5409(4)
H82 H 0.2745 0.1007 0.5734
C111 C 0.2458(4) 0.1768(4) 0.8575(4)
H83 H 0.2734 0.1475 0.8183
C112 C 0.1508(4) 0.2656(4) 0.8642(4)
H84 H 0.1186 0.2962 0.8264
H85 H 0.1925 0.1773 0.5025
H86 H 0.1773 0.5025 0.1925
C113 C 0.0872(4) 0.5107(4) 0.2942(4)
C114 C 0.1285(4) 0.8694(4) 0.2980(4)
C115 C 0.2203(4) 0.8758(4) 0.1998(4)
C116 C 0.3106(4) 0.8855(4) 0.1003(4)
C117 C 0.0983(4) 0.2666(4) 0.5275(4)
C118 C 0.2980(4) 0.1285(4) 0.8694(4)
C119 C 0.1998(4) 0.2203(4) 0.8758(4)
C120 C 0.1003(4) 0.3106(4) 0.8855(4)
C121 C 0.0421(5) 0.5201(5) 0.3402(5)
H87 H 0.0929 0.4874 0.2924
C122 C 0.1255(4) 0.8881(4) 0.3107(4)
H88 H 0.0973 0.8622 0.3239
H89 H 0.2196 0.8954 0.2014
H90 H 0.3415 0.8728 0.0717
C123 C 0.3122(4) 0.9185(5) 0.0915(4)
C124 C 0.0525(4) 0.3103(4) 0.5388(4)
H91 H 0.1008 0.2644 0.5069
C125 C 0.3107(4) 0.1255(4) 0.8881(4)
H92 H 0.3239 0.0973 0.8622
H93 H 0.2014 0.2196 0.8954
H94 H 0.0717 0.3415 0.8728
C126 C 0.0915(4) 0.3122(4) 0.9185(5)
H95 H 0.0351 0.5445 0.3418
H96 H 0.1590 0.8896 0.2888
C128 C 0.0726(4) 0.9081(4) 0.3579(4)
C129 C 0.3590(4) 0.9386(4) 0.0393(4)
H97 H 0.2819 0.9315 0.1198
H98 H 0.0475 0.3120 0.5616
C130 C 0.0052(3) 0.3595(4) 0.5201(4)
H99 H 0.2888 0.1590 0.8896
C131 C 0.3579(4) 0.0726(4) 0.9081(4)
C132 C 0.0393(4) 0.3590(4) 0.9386(4)
H100 H 0.1198 0.2819 0.9315
O55 O 0.0079(3) 0.4649(3) 0.3867(3)
O57 O 0.0736(3) 0.9352(3) 0.3567(3)
O58 O 0.0326(3) 0.8943(3) 0.3952(3)
O60 O 0.3524(3) 0.9726(3) 0.0377(3)
O61 O 0.0094(3) 0.3568(3) 0.4922(3)
O63 O 0.3567(3) 0.0736(3) 0.9352(3)
O64 O 0.3952(3) 0.0326(3) 0.8943(3)
O68 O 0.0313(3) 0.9028(3) 0.4670(3)
O76 O 0.4670(3) 0.0313(3) 0.9028(3)
C133 C 0.0991(6) 0.9979(6) 0.3389(5)
C134 C 0.3389(5) 0.0991(6) 0.9979(6)
H101 H 0.1216 0.9570 0.3524
H102 H 0.3524 0.1216 0.9570
C135 C 0.1924(8) 0.9994(8) 0.2772(9)
C137 C 0.2772(9) 0.1924(8) 0.9994(8)
H104 H 0.2099 0.9591 0.2895
H105 H 0.1971 1.0000 0.2935
H110 H 0.2895 0.2099 0.9591
H111 H 0.2935 0.1971 1.0000
H115 H 0.364932 0.086619 0.652348
H116 H 0.335096 0.0477054 0.695606
H117 H 0.652348 0.364932 0.086619
H118 H 0.695606 0.335096 0.0477054
H121 H 0.086619 0.652348 0.364932
H122 H 0.0477054 0.695606 0.335096
H21 H 0.9691 0.1274 0.9827
C41 C 0.4940(4) 0.3921(4) 0.9992(4)
O14 O 0.5084(4) 0.4324(3) 0.9600(3)
O20 O 0.8844(4) 0.4963(4) 0.9154(4)
Cu9 Cu 0.42535(5) 0.45590(5) 0.95557(5)
Cu10 Cu 0.47452(5) 0.50695(5) 0.90475(5)
Cu12 Cu 0.92535(5) 0.45557(5) 0.95590(5)
O48 O 0.4028(3) 0.5313(3) 0.9670(3)
O52 O 0.9990(3) 0.3982(3) 0.9242(3)
O53 O 0.8568(3) 0.5094(3) 0.9922(3)
O54 O 0.9649(3) 0.5079(3) 0.8867(3)
C83 C 0.3458(11) 0.8179(9) 0.9841(10)
H61 H 0.3785 0.8258 0.9455
H62 H 0.3251 0.8409 0.9989
H63 H 0.3192 0.8284 0.9812
O59 O 0.3982(3) 0.9242(3) 0.9990(3)
Cu23 Cu 0.45557(5) 0.95590(5) 0.92535(5)
H119 H 0.840628 0.512502 0.940075
H120 H 0.894495 0.52901 0.875064
O78 O 0.4600(3) 0.9324(3) 0.0084(4)
C15 C 0.8179(9) 0.9841(10) 0.3458(11)
H10 H 0.8258 0.9455 0.3785
H11 H 0.8409 0.9989 0.3251
H12 H 0.8284 0.9812 0.3192
O12 O 0.5313(3) 0.9670(3) 0.4028(3)
O17 O 0.9242(3) 0.9990(3) 0.3982(3)
Cu3 Cu 0.45590(5) 0.95557(5) 0.42535(5)
Cu4 Cu 0.50695(5) 0.90475(5) 0.47452(5)
H40 H 0.9827 0.9691 0.1274
Cu13 Cu 0.95590(5) 0.92535(5) 0.45557(5)
O46 O 0.4324(3) 0.9600(3) 0.5084(4)
C73 C 0.3921(4) 0.9992(4) 0.4940(4)
O79 O 0.4963(4) 0.9154(4) 0.8844(4)
O81 O 0.5094(3) 0.9922(3) 0.8568(3)
O82 O 0.5079(3) 0.8867(3) 0.9649(3)
H125 H 0.512502 0.940075 0.840628
H126 H 0.52901 0.875064 0.894495
O70 O 0.9324(3) 0.0084(4) 0.4600(3)
C87 C 0.9841(10) 0.3458(11) 0.8179(9)
H69 H 0.9455 0.3785 0.8258
H70 H 0.9989 0.3251 0.8409
H71 H 0.9812 0.3192 0.8284
C127 C 0.9992(4) 0.4940(4) 0.3921(4)
O56 O 0.9600(3) 0.5084(4) 0.4324(3)
O62 O 0.9670(3) 0.4028(3) 0.5313(3)
Cu19 Cu 0.95557(5) 0.42535(5) 0.45590(5)
Cu20 Cu 0.90475(5) 0.47452(5) 0.50695(5)
O71 O 0.9154(4) 0.8844(4) 0.4963(4)
O73 O 0.9922(3) 0.8568(3) 0.5094(3)
O74 O 0.8867(3) 0.9649(3) 0.5079(3)
H123 H 0.940075 0.840628 0.512502
H124 H 0.875064 0.894495 0.52901
H119_2 H 0.012502 0.340628 0.440075
H120_2 H 0.0290104 0.394495 0.375064
H123_2 H 0.340628 0.440075 0.012502
H124_2 H 0.394495 0.375064 0.0290104
C59_2 C 0.0334(3) 0.8179(4) 0.7588(4)
H41_2 H 0.0138 0.7621 0.8406
H47_2 H 0.0197 0.8577 0.7322
C63_2 C 0.0948(3) 0.7757(3) 0.7354(3)
O21_2 O 0.1091(2) 0.7213(2) 0.7725(2)
O22_2 O 0.1268(2) 0.7968(2) 0.6804(2)
Cu5 Cu 0.18653(4) 0.65644(4) 0.74886(4)
Cu6 Cu 0.20865(4) 0.74505(4) 0.64265(4)
O29_2 O 0.1620(3) 0.5866(3) 0.8359(3)
O30_2 O 0.1569(3) 0.6676(3) 0.7237(3)
O31_2 O 0.2204(3) 0.6581(3) 0.7569(3)
O32 O 0.2669(2) 0.6059(2) 0.7098(2)
O33_2 O 0.2324(3) 0.8155(3) 0.5554(4)
O34_2 O 0.1791(3) 0.7399(3) 0.6329(3)
O35_2 O 0.2340(3) 0.7371(3) 0.6697(3)
O36 O 0.2862(3) 0.6814(3) 0.6206(3)
C67_2 C 0.1576(4) 0.7063(4) 0.6736(4)
C68_2 C 0.2372(4) 0.6963(4) 0.7165(4)
C69_2 C 0.2221(10) 0.8449(11) 0.5575(10)
C74_2 C 0.0201(4) 0.8595(4) 0.5052(3)
C75_2 C 0.1319(4) 0.7080(4) 0.6641(4)
C76_2 C 0.2663(4) 0.6896(4) 0.7278(4)
H51_2 H 0.1844 0.8569 0.5868
N3_2 N 0.2545(8) 0.8681(9) 0.5248(8)
C80_2 C 0.0388(4) 0.8103(4) 0.5525(4)
C81_2 C 0.1122(4) 0.6722(4) 0.7018(4)
H53_2 H 0.1300 0.7370 0.6284
H54_2 H 0.2700 0.6584 0.7627
C82_2 C 0.2857(4) 0.7251(4) 0.6913(4)
C83_2 C 0.3179(9) 0.8458(11) 0.4841(10)
C84_2 C 0.2391(10) 0.8934(11) 0.5463(11)
H58_2 H 0.0616 0.8120 0.5475
C90_2 C 0.0275(4) 0.7666(4) 0.5983(4)
H59_2 H 0.1179 0.6413 0.7354
C91_2 C 0.0814(4) 0.6740(4) 0.6983(3)
H60_2 H 0.2801 0.7564 0.6575
C92_2 C 0.3158(4) 0.7223(4) 0.6962(4)
H61_2 H 0.3258 0.8785 0.4455
H62_2 H 0.3409 0.8251 0.4989
H63_2 H 0.3284 0.8192 0.4812
H64_2 H 0.2288 0.8681 0.5878
H65_2 H 0.2725 0.8961 0.5245
H66_2 H 0.2059 0.9322 0.5405
H76_2 H 0.0069 0.7644 0.6008
C96_2 C 0.0409(4) 0.7185(4) 0.6482(4)
C97_2 C 0.0693(4) 0.7166(4) 0.6515(4)
C98_2 C 0.0640(5) 0.6308(4) 0.7435(4)
C99_2 C 0.3289(4) 0.6775(4) 0.7432(4)
C100_2 C 0.3346(4) 0.7659(4) 0.6505(4)
C106_2 C 0.0223(5) 0.6764(4) 0.6940(4)
H77_2 H 0.0813 0.7459 0.6204
C107_2 C 0.0330(4) 0.6303(4) 0.7448(4)
H78_2 H 0.0734 0.6007 0.7745
C108_2 C 0.3575(4) 0.6768(4) 0.7458(4)
H79_2 H 0.3183 0.6475 0.7734
C109_2 C 0.3642(4) 0.7656(4) 0.6508(4)
H80_2 H 0.3264 0.7962 0.6186
H86_2 H 0.0025 0.6773 0.6925
C113_2 C 0.0107(4) 0.5872(4) 0.7942(4)
C114_2 C 0.3694(4) 0.6285(4) 0.7980(4)
C115_2 C 0.3758(4) 0.7203(4) 0.6998(4)
C116_2 C 0.3855(4) 0.8106(4) 0.6003(4)
C121_2 C 0.0201(5) 0.5421(5) 0.8402(5)
C122_2 C 0.3881(4) 0.6255(4) 0.8107(4)
H88_2 H 0.3622 0.5973 0.8239
H89_2 H 0.3954 0.7196 0.7014
H90_2 H 0.3728 0.8415 0.5717
C123_2 C 0.4185(5) 0.8122(4) 0.5915(4)
H95_2 H 0.0445 0.5351 0.8418
H96_2 H 0.3896 0.6590 0.7888
C128_2 C 0.4081(4) 0.5726(4) 0.8579(4)
C129_2 C 0.4386(4) 0.8590(4) 0.5393(4)
H97_2 H 0.4315 0.7819 0.6198
O57_2 O 0.4352(3) 0.5736(3) 0.8567(3)
O58_2 O 0.3943(3) 0.5326(3) 0.8952(3)
O59_2 O 0.4242(3) 0.8982(3) 0.4990(3)
O60_2 O 0.4726(3) 0.8524(3) 0.5377(3)
O67 O 0.5194(3) 0.5477(3) 0.8573(3)
O69 O 0.5377(3) 0.4726(3) 0.8524(3)
O71_2 O 0.3844(4) 0.4154(4) 0.9963(4)
O72 O 0.4990(3) 0.4242(3) 0.8982(3)
C133_2 C 0.4979(6) 0.5991(6) 0.8389(5)
N5 N 0.5299(5) 0.6264(5) 0.7992(5)
H101_2 H 0.4570 0.6216 0.8524
C135_2 C 0.4994(8) 0.6924(8) 0.7772(9)
C136 C 0.5970(7) 0.5945(8) 0.7715(9)
H103 H 0.5201 0.7116 0.7346
H104_2 H 0.4591 0.7099 0.7895
H105_2 H 0.5000 0.6971 0.7935
H106 H 0.6116 0.5572 0.7804
H107 H 0.6130 0.6185 0.7293
H108 H 0.6091 0.5874 0.7874
H121_2 H 0.152348 0.586619 0.864932
H122_2 H 0.195606 0.547705 0.835096
H125_2 H 0.440075 0.012502 0.340628
H126_2 H 0.375064 0.0290104 0.394495
Cu1_2 Cu 0.74886(4) 0.18653(4) 0.65644(4)
O1_2 O 0.7725(2) 0.1091(2) 0.7213(2)
Cu2_2 Cu 0.64265(4) 0.20865(4) 0.74505(4)
O2_2 O 0.8359(3) 0.1620(3) 0.5866(3)
O3_2 O 0.7237(3) 0.1569(3) 0.6676(3)
O4_2 O 0.7569(3) 0.2204(3) 0.6581(3)
O5_2 O 0.7098(2) 0.2669(2) 0.6059(2)
C1_2 C 0.7354(3) 0.0948(3) 0.7757(3)
O6_2 O 0.5554(4) 0.2324(3) 0.8155(3)
O7_2 O 0.6804(2) 0.1268(2) 0.7968(2)
O8_2 O 0.6206(3) 0.2862(3) 0.6814(3)
O9_2 O 0.6329(3) 0.1791(3) 0.7399(3)
O10_2 O 0.6697(3) 0.2340(3) 0.7371(3)
C2_2 C 0.6736(4) 0.1576(4) 0.7063(4)
C3_2 C 0.7165(4) 0.2372(4) 0.6963(4)
C4_2 C 0.6556(4) 0.3010(4) 0.6264(4)
C5_2 C 0.7588(4) 0.0334(3) 0.8179(4)
C6_2 C 0.5575(10) 0.2221(10) 0.8449(11)
C7_2 C 0.6641(4) 0.1319(4) 0.7080(4)
C8_2 C 0.7278(4) 0.2663(4) 0.6896(4)
C9_2 C 0.6334(4) 0.3614(4) 0.5853(4)
H1_2 H 0.7322 0.0197 0.8577
H2_2 H 0.5868 0.1844 0.8569
N1_2 N 0.5248(8) 0.2545(8) 0.8681(9)
C11_2 C 0.7018(4) 0.1122(4) 0.6722(4)
H3_2 H 0.6284 0.1300 0.7370
H4_2 H 0.7627 0.2700 0.6584
C12_2 C 0.6913(4) 0.2857(4) 0.7251(4)
C13_2 C 0.5783(4) 0.4021(4) 0.6008(4)
H5_2 H 0.6597 0.3725 0.5450
H6_2 H 0.8406 0.0138 0.7621
C15_2 C 0.4841(10) 0.3179(9) 0.8458(11)
C16_2 C 0.5463(11) 0.2391(10) 0.8934(11)
H7_2 H 0.7354 0.1179 0.6413
C17_2 C 0.6983(3) 0.0814(4) 0.6740(4)
H8_2 H 0.6575 0.2801 0.7564
C18_2 C 0.6962(4) 0.3158(4) 0.7223(4)
H9_2 H 0.5526 0.3895 0.6412
C19_2 C 0.5521(4) 0.4664(4) 0.5609(4)
H10_2 H 0.4455 0.3258 0.8785
H11_2 H 0.4989 0.3409 0.8251
H12_2 H 0.4812 0.3284 0.8192
H13_2 H 0.5878 0.2288 0.8681
H14_2 H 0.5245 0.2725 0.8961
H15_2 H 0.5405 0.2059 0.9322
C21_2 C 0.6515(4) 0.0693(4) 0.7166(4)
C22_2 C 0.7435(4) 0.0640(5) 0.6308(4)
C23_2 C 0.7432(4) 0.3289(4) 0.6775(4)
C24_2 C 0.6505(4) 0.3346(4) 0.7659(4)
C25_2 C 0.5869(4) 0.4923(4) 0.5002(4)
H17_2 H 0.6204 0.0813 0.7459
C26_2 C 0.6482(4) 0.0409(4) 0.7185(4)
C27_2 C 0.7448(4) 0.0330(4) 0.6303(4)
H18_2 H 0.7745 0.0734 0.6007
C28_2 C 0.7458(4) 0.3575(4) 0.6768(4)
H19_2 H 0.7734 0.3183 0.6475
C29_2 C 0.6508(4) 0.3642(4) 0.7656(4)
H20_2 H 0.6186 0.3264 0.7962
H21_2 H 0.6274 0.4691 0.4827
C30_2 C 0.5983(4) 0.0275(4) 0.7666(4)
C31_2 C 0.6940(4) 0.0223(5) 0.6764(4)
C32_2 C 0.7942(4) 0.0107(4) 0.5872(4)
C33_2 C 0.7980(4) 0.3694(4) 0.6285(4)
C34_2 C 0.6998(4) 0.3758(4) 0.7203(4)
C35_2 C 0.6003(4) 0.3855(4) 0.8106(4)
C36_2 C 0.5525(4) 0.0388(4) 0.8103(4)
H22_2 H 0.6008 0.0069 0.7644
H23_2 H 0.6925 0.0025 0.6773
C37_2 C 0.8402(5) 0.0201(5) 0.5421(5)
C38_2 C 0.8107(4) 0.3881(4) 0.6255(4)
H25_2 H 0.8239 0.3622 0.5973
H26_2 H 0.7014 0.3954 0.7196
H27_2 H 0.5717 0.3728 0.8415
C39_2 C 0.5915(4) 0.4185(5) 0.8122(4)
H28_2 H 0.5475 0.0616 0.8120
C40_2 C 0.5052(3) 0.0201(4) 0.8595(4)
H29_2 H 0.8418 0.0445 0.5351
H30_2 H 0.7888 0.3896 0.6590
C42_2 C 0.8579(4) 0.4081(4) 0.5726(4)
C43_2 C 0.5393(4) 0.4386(4) 0.8590(4)
H31_2 H 0.6198 0.4315 0.7819
O15_2 O 0.8567(3) 0.4352(3) 0.5736(3)
O16_2 O 0.8952(3) 0.3943(3) 0.5326(3)
O19_2 O 0.8573(3) 0.5194(3) 0.5477(3)
O20_2 O 0.9963(4) 0.3844(4) 0.4154(4)
C44_2 C 0.8389(5) 0.4979(6) 0.5991(6)
N2_2 N 0.7992(5) 0.5299(5) 0.6264(5)
H32_2 H 0.8524 0.4570 0.6216
C45_2 C 0.7772(9) 0.4994(8) 0.6924(8)
C46_2 C 0.7715(9) 0.5970(7) 0.5945(8)
H33_2 H 0.7346 0.5201 0.7116
H34_2 H 0.7895 0.4591 0.7099
H35_3 H 0.7935 0.5000 0.6971
H36_2 H 0.7804 0.6116 0.5572
H37_2 H 0.7293 0.6130 0.6185
H38_2 H 0.7874 0.6091 0.5874
C48_2 C 0.4923(4) 0.5002(4) 0.5869(4)
C51_2 C 0.5609(4) 0.5521(4) 0.4664(4)
H40_2 H 0.4691 0.4827 0.6274
C52_2 C 0.4664(4) 0.5609(4) 0.5521(4)
C56_2 C 0.6008(4) 0.5783(4) 0.4021(4)
C57_2 C 0.5002(4) 0.5869(4) 0.4923(4)
C58_2 C 0.4021(4) 0.6008(4) 0.5783(4)
H44_2 H 0.6412 0.5526 0.3895
C61_2 C 0.5853(4) 0.6334(4) 0.3614(4)
H45_2 H 0.4827 0.6274 0.4691
H46_2 H 0.3895 0.6412 0.5526
C62_2 C 0.3614(4) 0.5853(4) 0.6334(4)
H49_2 H 0.5450 0.6597 0.3725
C65_2 C 0.6264(4) 0.6556(4) 0.3010(4)
H50_2 H 0.3725 0.5450 0.6597
C66_2 C 0.3010(4) 0.6264(4) 0.6556(4)
O25_2 O 0.6814(3) 0.6206(3) 0.2862(3)
O26_2 O 0.6059(2) 0.7098(2) 0.2669(2)
Cu15_2 Cu 0.74505(4) 0.64265(4) 0.20865(4)
Cu16_2 Cu 0.65644(4) 0.74886(4) 0.18653(4)
O50_2 O 0.8524(3) 0.5377(3) 0.4726(3)
O52_2 O 0.8982(3) 0.4990(3) 0.4242(3)
H117_2 H 0.864932 0.152348 0.586619
H118_2 H 0.835096 0.195606 0.547705
C60_2 C 0.8179(4) 0.7588(4) 0.0334(3)
H43_2 H 0.7621 0.8406 0.0138
H48_2 H 0.8577 0.7322 0.0197
C64_2 C 0.7757(3) 0.7354(3) 0.0948(3)
O23_2 O 0.7213(2) 0.7725(2) 0.1091(2)
O24_2 O 0.7968(2) 0.6804(2) 0.1268(2)
O37_2 O 0.5866(3) 0.8359(3) 0.1620(3)
O38_2 O 0.6676(3) 0.7237(3) 0.1569(3)
O39_2 O 0.6581(3) 0.7569(3) 0.2204(3)
O41_2 O 0.8155(3) 0.5554(4) 0.2324(3)
O42_2 O 0.7399(3) 0.6329(3) 0.1791(3)
O43_2 O 0.7371(3) 0.6697(3) 0.2340(3)
C70_2 C 0.7063(4) 0.6736(4) 0.1576(4)
C71_2 C 0.6963(4) 0.7165(4) 0.2372(4)
C72_2 C 0.8449(11) 0.5575(10) 0.2221(10)
C77_2 C 0.7080(4) 0.6641(4) 0.1319(4)
C78_2 C 0.6896(4) 0.7278(4) 0.2663(4)
H52_2 H 0.8569 0.5868 0.1844
N4_2 N 0.8681(9) 0.5248(8) 0.2545(8)
C79_2 C 0.5421(5) 0.8402(5) 0.0201(5)
C85_2 C 0.6722(4) 0.7018(4) 0.1122(4)
H55_2 H 0.7370 0.6284 0.1300
H56_2 H 0.6584 0.7627 0.2700
C86_2 C 0.7251(4) 0.6913(4) 0.2857(4)
C87_2 C 0.8458(11) 0.4841(10) 0.3179(9)
C88_2 C 0.8934(11) 0.5463(11) 0.2391(10)
H57_2 H 0.5351 0.8418 0.0445
C89_2 C 0.5872(4) 0.7942(4) 0.0107(4)
H67_2 H 0.6413 0.7354 0.1179
C93_2 C 0.6740(4) 0.6983(3) 0.0814(4)
H68_2 H 0.7564 0.6575 0.2801
C94_2 C 0.7223(4) 0.6962(4) 0.3158(4)
H69_2 H 0.8785 0.4455 0.3258
H70_2 H 0.8251 0.4989 0.3409
H71_2 H 0.8192 0.4812 0.3284
H72_2 H 0.8681 0.5878 0.2288
H73_2 H 0.8961 0.5245 0.2725
H74_2 H 0.9322 0.5405 0.2059
C95_2 C 0.6303(4) 0.7448(4) 0.0330(4)
C101_2 C 0.7166(4) 0.6515(4) 0.0693(4)
C102_2 C 0.6308(4) 0.7435(4) 0.0640(5)
C103_2 C 0.6775(4) 0.7432(4) 0.3289(4)
C104_2 C 0.7659(4) 0.6505(4) 0.3346(4)
C105_2 C 0.6764(4) 0.6940(4) 0.0223(5)
H81_2 H 0.7459 0.6204 0.0813
C110_2 C 0.7185(4) 0.6482(4) 0.0409(4)
H82_2 H 0.6007 0.7745 0.0734
C111_2 C 0.6768(4) 0.7458(4) 0.3575(4)
H83_2 H 0.6475 0.7734 0.3183
C112_2 C 0.7656(4) 0.6508(4) 0.3642(4)
H84_2 H 0.7962 0.6186 0.3264
H85_2 H 0.6773 0.6925 0.0025
C117_2 C 0.7666(4) 0.5983(4) 0.0275(4)
C118_2 C 0.6285(4) 0.7980(4) 0.3694(4)
C119_2 C 0.7203(4) 0.6998(4) 0.3758(4)
C120_2 C 0.8106(4) 0.6003(4) 0.3855(4)
C124_2 C 0.8103(4) 0.5525(4) 0.0388(4)
H91_2 H 0.7644 0.6008 0.0069
C125_2 C 0.6255(4) 0.8107(4) 0.3881(4)
H92_2 H 0.5973 0.8239 0.3622
H93_2 H 0.7196 0.7014 0.3954
H94_2 H 0.8415 0.5717 0.3728
C126_2 C 0.8122(4) 0.5915(4) 0.4185(5)
H98_2 H 0.8120 0.5475 0.0616
C130_2 C 0.8595(4) 0.5052(3) 0.0201(4)
H99_2 H 0.6590 0.7888 0.3896
C131_2 C 0.5726(4) 0.8579(4) 0.4081(4)
C132_2 C 0.8590(4) 0.5393(4) 0.4386(4)
H100_2 H 0.7819 0.6198 0.4315
O63_2 O 0.5736(3) 0.8567(3) 0.4352(3)
O64_2 O 0.5326(3) 0.8952(3) 0.3943(3)
O75 O 0.5477(3) 0.8573(3) 0.5194(3)
O79_2 O 0.4154(4) 0.9963(4) 0.3844(4)
C134_2 C 0.5991(6) 0.8389(5) 0.4979(6)
N6 N 0.6264(5) 0.7992(5) 0.5299(5)
H102_2 H 0.6216 0.8524 0.4570
C137_2 C 0.6924(8) 0.7772(9) 0.4994(8)
C138 C 0.5945(8) 0.7715(9) 0.5970(7)
H109 H 0.7116 0.7346 0.5201
H110_2 H 0.7099 0.7895 0.4591
H111_2 H 0.6971 0.7935 0.5000
H112 H 0.5572 0.7804 0.6116
H113 H 0.6185 0.7293 0.6130
H114 H 0.5874 0.7874 0.6091
H115_2 H 0.586619 0.864932 0.152348
H116_2 H 0.547705 0.835096 0.195606
C10_2 C 0.8155(4) 0.9975(3) 0.8018(3)
C14_2 C 0.8452(3) 0.9339(3) 0.8385(3)
C20_2 C 0.9045(3) 0.9011(3) 0.8115(3)
H16_2 H 0.9262 0.9196 0.7707
H24_2 H 0.7924 0.9874 0.5929
C41_2 C 0.8921(4) 0.9940(4) 0.4992(4)
C47_2 C 0.8115(3) 0.9045(3) 0.9011(3)
C49_2 C 0.9339(3) 0.8385(3) 0.8452(3)
C50_2 C 0.8385(3) 0.8452(3) 0.9339(3)
H39_2 H 0.7707 0.9262 0.9196
C53_2 C 0.9975(3) 0.8018(3) 0.8155(4)
C54_2 C 0.9011(3) 0.8115(3) 0.9045(3)
C55_2 C 0.8018(3) 0.8155(4) 0.9975(3)
H42_2 H 0.9196 0.7707 0.9262
C73_2 C 0.4992(4) 0.8921(4) 0.9940(4)
H75_2 H 0.5929 0.7924 0.9874
H87_2 H 0.9874 0.5929 0.7924
C127_2 C 0.9940(4) 0.4992(4) 0.8921(4)
O67_2 O 0.0477(3) 0.0194(3) 0.3573(3)
N5_2 N 0.1264(5) 0.0299(5) 0.2992(5)
C136_2 C 0.0945(8) 0.0970(7) 0.2715(9)
H103_2 H 0.2116 0.0201 0.2346
H105_3 H 0.1971 0.0000 0.2935
H106_2 H 0.0572 0.1116 0.2804
H107_2 H 0.1185 0.1130 0.2293
H108_2 H 0.0874 0.1091 0.2874
O75_2 O 0.3573(3) 0.0477(3) 0.0194(3)
N6_2 N 0.2992(5) 0.1264(5) 0.0299(5)
C138_2 C 0.2715(9) 0.0945(8) 0.0970(7)
H109_2 H 0.2346 0.2116 0.0201
H111_3 H 0.2935 0.1971 -0.0000
H112_2 H 0.2804 0.0572 0.1116
H113_2 H 0.2293 0.1185 0.1130
H114_2 H 0.2874 0.0874 0.1091
C10_3 C 0.1845(4) 0.0025(3) 0.1982(3)
C14_3 C 0.1548(3) 0.0661(3) 0.1615(3)
C20_3 C 0.0955(3) 0.0989(3) 0.1885(3)
H16_3 H 0.0738 0.0804 0.2293
H24_3 H 0.2076 0.0126 0.4071
C41_3 C 0.1079(4) 0.0060(4) 0.5008(4)
O11_2 O 0.4906(3) 0.0078(3) 0.1432(3)
O13_2 O 0.1133(3) 0.0351(3) 0.4921(3)
Cu3_2 Cu 0.54443(5) 0.04410(5) 0.07465(5)
C47_3 C 0.1885(3) 0.0955(3) 0.0989(3)
C49_3 C 0.0661(3) 0.1615(3) 0.1548(3)
C50_3 C 0.1615(3) 0.1548(3) 0.0661(3)
H39_3 H 0.2293 0.0738 0.0804
C53_3 C 0.0025(3) 0.1982(3) 0.1845(4)
C54_3 C 0.0989(3) 0.1885(3) 0.0955(3)
C55_3 C 0.1982(3) 0.1845(4) 0.0025(3)
H42_3 H 0.0804 0.2293 0.0738
Cu9_2 Cu 0.04410(5) 0.07465(5) 0.54443(5)
O45_2 O 0.4921(3) 0.1133(3) 0.0351(3)
O47_2 O 0.0078(3) 0.1432(3) 0.4906(3)
C73_3 C 0.5008(4) 0.1079(4) 0.0060(4)
H75_3 H 0.4071 0.2076 0.0126
H87_3 H 0.0126 0.4071 0.2076
C127_3 C 0.0060(4) 0.5008(4) 0.1079(4)
O55_2 O 0.0351(3) 0.4921(3) 0.1133(3)
O61_2 O 0.1432(3) 0.4906(3) 0.0078(3)
Cu19_2 Cu 0.07465(5) 0.54443(5) 0.04410(5)
C60_3 C 0.1821(4) 0.2412(4) 0.9666(3)
H43_3 H 0.2379 0.1594 0.9862
H48_3 H 0.1423 0.2678 0.9803
C64_3 C 0.2243(3) 0.2646(3) 0.9052(3)
O23_3 O 0.2787(2) 0.2275(2) 0.8909(2)
O24_3 O 0.2032(2) 0.3196(2) 0.8732(2)
Cu7 Cu 0.34356(4) 0.25114(4) 0.81347(4)
Cu8 Cu 0.25495(4) 0.35735(4) 0.79135(4)
O37_3 O 0.4134(3) 0.1641(3) 0.8380(3)
O38_3 O 0.3324(3) 0.2763(3) 0.8431(3)
O39_3 O 0.3419(3) 0.2431(3) 0.7796(3)
O40 O 0.3941(2) 0.2902(2) 0.7331(2)
O41_3 O 0.1845(3) 0.4446(4) 0.7676(3)
O42_3 O 0.2601(3) 0.3671(3) 0.8209(3)
O43_3 O 0.2629(3) 0.3303(3) 0.7660(3)
O44 O 0.3186(3) 0.3794(3) 0.7138(3)
O46_2 O 0.5400(3) 0.0676(3) 0.9916(4)
C70_3 C 0.2937(4) 0.3264(4) 0.8424(4)
C71_3 C 0.3037(4) 0.2835(4) 0.7628(4)
C72_3 C 0.1551(11) 0.4425(10) 0.7779(10)
C77_3 C 0.2920(4) 0.3359(4) 0.8681(4)
C78_3 C 0.3104(4) 0.2722(4) 0.7337(4)
H52_3 H 0.1431 0.4132 0.8156
N4_3 N 0.1319(9) 0.4752(8) 0.7455(8)
C79_3 C 0.4579(5) 0.1598(5) 0.9799(5)
C85_3 C 0.3278(4) 0.2982(4) 0.8878(4)
H55_3 H 0.2630 0.3716 0.8700
H56_3 H 0.3416 0.2373 0.7300
C86_3 C 0.2749(4) 0.3087(4) 0.7143(4)
C87_3 C 0.1542(11) 0.5159(10) 0.6821(9)
C88_3 C 0.1066(11) 0.4537(11) 0.7609(10)
H57_3 H 0.4649 0.1582 0.9555
C89_3 C 0.4128(4) 0.2058(4) 0.9893(4)
H67_3 H 0.3587 0.2646 0.8821
C93_3 C 0.3260(4) 0.3017(3) 0.9186(4)
H68_3 H 0.2436 0.3425 0.7199
C94_3 C 0.2777(4) 0.3038(4) 0.6842(4)
H69_3 H 0.1215 0.5545 0.6742
H70_3 H 0.1749 0.5011 0.6591
H71_3 H 0.1808 0.5188 0.6716
H72_3 H 0.1319 0.4122 0.7712
H73_3 H 0.1039 0.4755 0.7275
H74_3 H 0.0678 0.4595 0.7941
C95_3 C 0.3697(4) 0.2552(4) 0.9670(4)
C101_3 C 0.2834(4) 0.3485(4) 0.9307(4)
C102_3 C 0.3692(4) 0.2565(4) 0.9360(5)
C103_3 C 0.3225(4) 0.2568(4) 0.6711(4)
C104_3 C 0.2341(4) 0.3495(4) 0.6654(4)
C105_3 C 0.3236(4) 0.3060(4) 0.9777(5)
H81_3 H 0.2541 0.3796 0.9187
C110_3 C 0.2815(4) 0.3518(4) 0.9591(4)
H82_3 H 0.3993 0.2255 0.9266
C111_3 C 0.3232(4) 0.2542(4) 0.6425(4)
H83_3 H 0.3525 0.2266 0.6817
C112_3 C 0.2344(4) 0.3492(4) 0.6358(4)
H84_3 H 0.2038 0.3814 0.6736
H85_3 H 0.3227 0.3075 0.9975
C117_3 C 0.2334(4) 0.4017(4) 0.9725(4)
C118_3 C 0.3715(4) 0.2020(4) 0.6306(4)
C119_3 C 0.2797(4) 0.3002(4) 0.6242(4)
C120_3 C 0.1894(4) 0.3997(4) 0.6145(4)
C124_3 C 0.1897(4) 0.4475(4) 0.9612(4)
H91_3 H 0.2356 0.3992 0.9931
C125_3 C 0.3745(4) 0.1893(4) 0.6119(4)
H92_3 H 0.4027 0.1761 0.6378
H93_3 H 0.2804 0.2986 0.6046
H94_3 H 0.1585 0.4283 0.6272
C126_3 C 0.1878(4) 0.4085(4) 0.5815(5)
H98_3 H 0.1880 0.4525 0.9384
C130_3 C 0.1405(4) 0.4948(3) 0.9799(4)
H99_3 H 0.3410 0.2112 0.6104
C131_3 C 0.4274(4) 0.1421(4) 0.5919(4)
C132_3 C 0.1410(4) 0.4607(4) 0.5614(4)
H100_3 H 0.2181 0.3802 0.5685
O62_2 O 0.0972(3) 0.5330(3) 0.9687(3)
O63_3 O 0.4264(3) 0.1433(3) 0.5648(3)
O64_3 O 0.4674(3) 0.1048(3) 0.6057(3)
O65 O 0.1018(3) 0.5010(3) 0.5758(3)
O66 O 0.1476(3) 0.4623(3) 0.5274(3)
Cu20_2 Cu 0.02548(5) 0.59525(5) 0.99305(5)
Cu25 Cu 0.49305(5) 0.09525(5) 0.52548(5)
Cu26 Cu 0.54410(5) 0.04443(5) 0.57465(5)
Cu27 Cu 0.04443(5) 0.57465(5) 0.54410(5)
Cu28 Cu 0.09525(5) 0.52548(5) 0.49305(5)
O75_3 O 0.4523(3) 0.1427(3) 0.4806(3)
O76_2 O 0.4687(3) 0.0330(3) 0.5972(3)
O77 O 0.5274(3) 0.1476(3) 0.4623(3)
O78_2 O 0.5676(3) 0.0400(3) 0.4916(4)
O79_3 O 0.5846(4) 0.0037(4) 0.6156(4)
O80 O 0.5758(3) 0.1018(3) 0.5010(3)
C134_3 C 0.4009(6) 0.1611(5) 0.5021(6)
N6_3 N 0.3736(5) 0.2008(5) 0.4701(5)
H102_3 H 0.3784 0.1476 0.5430
C137_3 C 0.3076(8) 0.2228(9) 0.5006(8)
C138_3 C 0.4055(8) 0.2285(9) 0.4030(7)
H109_3 H 0.2884 0.2654 0.4799
H110_3 H 0.2901 0.2105 0.5409
H111_4 H 0.3029 0.2065 0.5000
H112_3 H 0.4428 0.2196 0.3884
H113_3 H 0.3815 0.2707 0.3870
H114_3 H 0.4126 0.2126 0.3909
H115_3 H 0.413381 0.135068 0.847652
H116_3 H 0.452295 0.164904 0.804394
Cu1_3 Cu 0.25114(4) 0.81347(4) 0.34356(4)
O1_3 O 0.2275(2) 0.8909(2) 0.2787(2)
Cu2_3 Cu 0.35735(4) 0.79135(4) 0.25495(4)
O2_3 O 0.1641(3) 0.8380(3) 0.4134(3)
O3_3 O 0.2763(3) 0.8431(3) 0.3324(3)
O4_3 O 0.2431(3) 0.7796(3) 0.3419(3)
O5_3 O 0.2902(2) 0.7331(2) 0.3941(2)
C1_3 C 0.2646(3) 0.9052(3) 0.2243(3)
O6_3 O 0.4446(4) 0.7676(3) 0.1845(3)
O7_3 O 0.3196(2) 0.8732(2) 0.2032(2)
O8_3 O 0.3794(3) 0.7138(3) 0.3186(3)
O9_3 O 0.3671(3) 0.8209(3) 0.2601(3)
O10_3 O 0.3303(3) 0.7660(3) 0.2629(3)
C2_3 C 0.3264(4) 0.8424(4) 0.2937(4)
C3_3 C 0.2835(4) 0.7628(4) 0.3037(4)
C4_3 C 0.3444(4) 0.6990(4) 0.3736(4)
C5_3 C 0.2412(4) 0.9666(3) 0.1821(4)
C6_3 C 0.4425(10) 0.7779(10) 0.1551(11)
C7_3 C 0.3359(4) 0.8681(4) 0.2920(4)
C8_3 C 0.2722(4) 0.7337(4) 0.3104(4)
C9_3 C 0.3666(4) 0.6386(4) 0.4147(4)
H1_3 H 0.2678 0.9803 0.1423
H2_3 H 0.4132 0.8156 0.1431
N1_3 N 0.4752(8) 0.7455(8) 0.1319(9)
C11_3 C 0.2982(4) 0.8878(4) 0.3278(4)
H3_3 H 0.3716 0.8700 0.2630
H4_3 H 0.2373 0.7300 0.3416
C12_3 C 0.3087(4) 0.7143(4) 0.2749(4)
C13_3 C 0.4217(4) 0.5979(4) 0.3992(4)
H5_3 H 0.3403 0.6275 0.4550
H6_3 H 0.1594 0.9862 0.2379
C15_3 C 0.5159(10) 0.6821(9) 0.1542(11)
C16_3 C 0.4537(11) 0.7609(10) 0.1066(11)
H7_3 H 0.2646 0.8821 0.3587
C17_3 C 0.3017(3) 0.9186(4) 0.3260(4)
H8_3 H 0.3425 0.7199 0.2436
C18_3 C 0.3038(4) 0.6842(4) 0.2777(4)
H9_3 H 0.4474 0.6105 0.3588
C19_3 C 0.4479(4) 0.5336(4) 0.4391(4)
H10_3 H 0.5545 0.6742 0.1215
H11_3 H 0.5011 0.6591 0.1749
H12_3 H 0.5188 0.6716 0.1808
H13_3 H 0.4122 0.7712 0.1319
H14_3 H 0.4755 0.7275 0.1039
H15_3 H 0.4595 0.7941 0.0678
C21_3 C 0.3485(4) 0.9307(4) 0.2834(4)
C22_3 C 0.2565(4) 0.9360(5) 0.3692(4)
C23_3 C 0.2568(4) 0.6711(4) 0.3225(4)
C24_3 C 0.3495(4) 0.6654(4) 0.2341(4)
C25_3 C 0.4131(4) 0.5077(4) 0.4998(4)
H17_3 H 0.3796 0.9187 0.2541
C26_3 C 0.3518(4) 0.9591(4) 0.2815(4)
C27_3 C 0.2552(4) 0.9670(4) 0.3697(4)
H18_3 H 0.2255 0.9266 0.3993
C28_3 C 0.2542(4) 0.6425(4) 0.3232(4)
H19_3 H 0.2266 0.6817 0.3525
C29_3 C 0.3492(4) 0.6358(4) 0.2344(4)
H20_3 H 0.3814 0.6736 0.2038
H21_3 H 0.3726 0.5309 0.5173
C30_3 C 0.4017(4) 0.9725(4) 0.2334(4)
C31_3 C 0.3060(4) 0.9777(5) 0.3236(4)
C32_3 C 0.2058(4) 0.9893(4) 0.4128(4)
C33_3 C 0.2020(4) 0.6306(4) 0.3715(4)
C34_3 C 0.3002(4) 0.6242(4) 0.2797(4)
C35_3 C 0.3997(4) 0.6145(4) 0.1894(4)
C36_3 C 0.4475(4) 0.9612(4) 0.1897(4)
H22_3 H 0.3992 0.9931 0.2356
H23_3 H 0.3075 0.9975 0.3227
C37_3 C 0.1598(5) 0.9799(5) 0.4579(5)
C38_3 C 0.1893(4) 0.6119(4) 0.3745(4)
H25_3 H 0.1761 0.6378 0.4027
H26_3 H 0.2986 0.6046 0.2804
H27_3 H 0.4283 0.6272 0.1585
C39_3 C 0.4085(4) 0.5815(5) 0.1878(4)
H28_3 H 0.4525 0.9384 0.1880
C40_3 C 0.4948(3) 0.9799(4) 0.1405(4)
H29_3 H 0.1582 0.9555 0.4649
H30_3 H 0.2112 0.6104 0.3410
C42_3 C 0.1421(4) 0.5919(4) 0.4274(4)
C43_3 C 0.4607(4) 0.5614(4) 0.1410(4)
H31_3 H 0.3802 0.5685 0.2181
O12_2 O 0.5330(3) 0.9687(3) 0.0972(3)
O14_2 O 0.0676(3) 0.9916(4) 0.5400(3)
O15_3 O 0.1433(3) 0.5648(3) 0.4264(3)
O16_3 O 0.1048(3) 0.6057(3) 0.4674(3)
O17_2 O 0.5010(3) 0.5758(3) 0.1018(3)
O18_2 O 0.4623(3) 0.5274(3) 0.1476(3)
Cu4_2 Cu 0.59525(5) 0.99305(5) 0.02548(5)
O19_3 O 0.1427(3) 0.4806(3) 0.4523(3)
O20_3 O 0.0037(4) 0.6156(4) 0.5846(4)
C44_3 C 0.1611(5) 0.5021(6) 0.4009(6)
N2_3 N 0.2008(5) 0.4701(5) 0.3736(5)
H32_3 H 0.1476 0.5430 0.3784
C45_3 C 0.2228(9) 0.5006(8) 0.3076(8)
C46_3 C 0.2285(9) 0.4030(7) 0.4055(8)
H33_3 H 0.2654 0.4799 0.2884
H34_3 H 0.2105 0.5409 0.2901
H35_4 H 0.2065 0.5000 0.3029
H36_3 H 0.2196 0.3884 0.4428
H37_3 H 0.2707 0.3870 0.3815
H38_3 H 0.2126 0.3909 0.4126
C48_3 C 0.5077(4) 0.4998(4) 0.4131(4)
C51_3 C 0.4391(4) 0.4479(4) 0.5336(4)
H40_3 H 0.5309 0.5173 0.3726
C52_3 C 0.5336(4) 0.4391(4) 0.4479(4)
C56_3 C 0.3992(4) 0.4217(4) 0.5979(4)
C57_3 C 0.4998(4) 0.4131(4) 0.5077(4)
C58_3 C 0.5979(4) 0.3992(4) 0.4217(4)
H44_3 H 0.3588 0.4474 0.6105
C61_3 C 0.4147(4) 0.3666(4) 0.6386(4)
H45_3 H 0.5173 0.3726 0.5309
H46_3 H 0.6105 0.3588 0.4474
C62_3 C 0.6386(4) 0.4147(4) 0.3666(4)
H49_3 H 0.4550 0.3403 0.6275
C65_3 C 0.3736(4) 0.3444(4) 0.6990(4)
H50_3 H 0.6275 0.4550 0.3403
C66_3 C 0.6990(4) 0.3736(4) 0.3444(4)
O27_2 O 0.7138(3) 0.3186(3) 0.3794(3)
O28_2 O 0.7331(2) 0.3941(2) 0.2902(2)
Cu13_2 Cu 0.57465(5) 0.54410(5) 0.04443(5)
Cu14_2 Cu 0.52548(5) 0.49305(5) 0.09525(5)
Cu17_2 Cu 0.79135(4) 0.25495(4) 0.35735(4)
Cu18_2 Cu 0.81347(4) 0.34356(4) 0.25114(4)
O49_2 O 0.0330(3) 0.5972(3) 0.4687(3)
O51_2 O 0.0400(3) 0.4916(4) 0.5676(3)
H117_3 H 0.135068 0.847652 0.413381
H118_3 H 0.164904 0.804394 0.452295
O81_2 O 0.5078(3) 0.9906(3) 0.6432(3)
O82_2 O 0.6133(3) 0.9921(3) 0.5351(3)
H125_3 H 0.559925 0.987498 0.659372
H126_3 H 0.624936 0.97099 0.605505
C59_3 C 0.9666(3) 0.1821(4) 0.2412(4)
H41_3 H 0.9862 0.2379 0.1594
H47_3 H 0.9803 0.1423 0.2678
C63_3 C 0.9052(3) 0.2243(3) 0.2646(3)
O21_3 O 0.8909(2) 0.2787(2) 0.2275(2)
O22_3 O 0.8732(2) 0.2032(2) 0.3196(2)
Cu10_2 Cu 0.99305(5) 0.02548(5) 0.59525(5)
O29_3 O 0.8380(3) 0.4134(3) 0.1641(3)
O30_3 O 0.8431(3) 0.3324(3) 0.2763(3)
O31_3 O 0.7796(3) 0.3419(3) 0.2431(3)
O33_3 O 0.7676(3) 0.1845(3) 0.4446(4)
O34_3 O 0.8209(3) 0.2601(3) 0.3671(3)
O35_3 O 0.7660(3) 0.2629(3) 0.3303(3)
O48_2 O 0.9687(3) 0.0972(3) 0.5330(3)
C67_3 C 0.8424(4) 0.2937(4) 0.3264(4)
C68_3 C 0.7628(4) 0.3037(4) 0.2835(4)
C69_3 C 0.7779(10) 0.1551(11) 0.4425(10)
C74_3 C 0.9799(4) 0.1405(4) 0.4948(3)
C75_3 C 0.8681(4) 0.2920(4) 0.3359(4)
C76_3 C 0.7337(4) 0.3104(4) 0.2722(4)
H51_3 H 0.8156 0.1431 0.4132
N3_3 N 0.7455(8) 0.1319(9) 0.4752(8)
C80_3 C 0.9612(4) 0.1897(4) 0.4475(4)
C81_3 C 0.8878(4) 0.3278(4) 0.2982(4)
H53_3 H 0.8700 0.2630 0.3716
H54_3 H 0.7300 0.3416 0.2373
C82_3 C 0.7143(4) 0.2749(4) 0.3087(4)
C83_3 C 0.6821(9) 0.1542(11) 0.5159(10)
C84_3 C 0.7609(10) 0.1066(11) 0.4537(11)
H58_3 H 0.9384 0.1880 0.4525
C90_3 C 0.9725(4) 0.2334(4) 0.4017(4)
H59_3 H 0.8821 0.3587 0.2646
C91_3 C 0.9186(4) 0.3260(4) 0.3017(3)
H60_3 H 0.7199 0.2436 0.3425
C92_3 C 0.6842(4) 0.2777(4) 0.3038(4)
H61_3 H 0.6742 0.1215 0.5545
H62_3 H 0.6591 0.1749 0.5011
H63_3 H 0.6716 0.1808 0.5188
H64_3 H 0.7712 0.1319 0.4122
H65_3 H 0.7275 0.1039 0.4755
H66_3 H 0.7941 0.0678 0.4595
H76_3 H 0.9931 0.2356 0.3992
C96_3 C 0.9591(4) 0.2815(4) 0.3518(4)
C97_3 C 0.9307(4) 0.2834(4) 0.3485(4)
C98_3 C 0.9360(5) 0.3692(4) 0.2565(4)
C99_3 C 0.6711(4) 0.3225(4) 0.2568(4)
C100_3 C 0.6654(4) 0.2341(4) 0.3495(4)
C106_3 C 0.9777(5) 0.3236(4) 0.3060(4)
H77_3 H 0.9187 0.2541 0.3796
C107_3 C 0.9670(4) 0.3697(4) 0.2552(4)
H78_3 H 0.9266 0.3993 0.2255
C108_3 C 0.6425(4) 0.3232(4) 0.2542(4)
H79_3 H 0.6817 0.3525 0.2266
C109_3 C 0.6358(4) 0.2344(4) 0.3492(4)
H80_3 H 0.6736 0.2038 0.3814
H86_3 H 0.9975 0.3227 0.3075
C113_3 C 0.9893(4) 0.4128(4) 0.2058(4)
C114_3 C 0.6306(4) 0.3715(4) 0.2020(4)
C115_3 C 0.6242(4) 0.2797(4) 0.3002(4)
C116_3 C 0.6145(4) 0.1894(4) 0.3997(4)
C121_3 C 0.9799(5) 0.4579(5) 0.1598(5)
C122_3 C 0.6119(4) 0.3745(4) 0.1893(4)
H88_3 H 0.6378 0.4027 0.1761
H89_3 H 0.6046 0.2804 0.2986
H90_3 H 0.6272 0.1585 0.4283
C123_3 C 0.5815(5) 0.1878(4) 0.4085(4)
H95_3 H 0.9555 0.4649 0.1582
H96_3 H 0.6104 0.3410 0.2112
C128_3 C 0.5919(4) 0.4274(4) 0.1421(4)
C129_3 C 0.5614(4) 0.1410(4) 0.4607(4)
H97_3 H 0.5685 0.2181 0.3802
O56_2 O 0.9916(4) 0.5400(3) 0.0676(3)
O57_3 O 0.5648(3) 0.4264(3) 0.1433(3)
O58_3 O 0.6057(3) 0.4674(3) 0.1048(3)
O67_3 O 0.4806(3) 0.4523(3) 0.1427(3)
O68_2 O 0.5972(3) 0.4687(3) 0.0330(3)
O70_2 O 0.4916(4) 0.5676(3) 0.0400(3)
O71_3 O 0.6156(4) 0.5846(4) 0.0037(4)
C133_3 C 0.5021(6) 0.4009(6) 0.1611(5)
N5_3 N 0.4701(5) 0.3736(5) 0.2008(5)
H101_3 H 0.5430 0.3784 0.1476
C135_3 C 0.5006(8) 0.3076(8) 0.2228(9)
C136_3 C 0.4030(7) 0.4055(8) 0.2285(9)
H103_3 H 0.4799 0.2884 0.2654
H104_3 H 0.5409 0.2901 0.2105
H105_4 H 0.5000 0.3029 0.2065
H106_3 H 0.3884 0.4428 0.2196
H107_3 H 0.3870 0.3815 0.2707
H108_3 H 0.3909 0.4126 0.2126
H121_3 H 0.847652 0.413381 0.135068
H122_3 H 0.804394 0.452295 0.164904
O73_2 O 0.6432(3) 0.5078(3) 0.9906(3)
O74_2 O 0.5351(3) 0.6133(3) 0.9921(3)
H123_3 H 0.659372 0.559925 0.987498
H124_3 H 0.605505 0.624936 0.97099
O53_2 O 0.9906(3) 0.6432(3) 0.5078(3)
O54_2 O 0.9921(3) 0.5351(3) 0.6133(3)
H119_3 H 0.987498 0.659372 0.559925
H120_3 H 0.97099 0.605505 0.624936
C87_4 C 0.0159(10) 0.6542(11) 0.1821(9)
H69_4 H 0.0545 0.6215 0.1742
H70_4 H 0.0011 0.6749 0.1591
H71_4 H 0.0188 0.6808 0.1716
C127_4 C 0.0008(4) 0.5060(4) 0.6079(4)
O65_2 O 0.0010(3) 0.6018(3) 0.0758(3)
O71_4 O 0.0846(4) 0.1156(4) 0.5037(4)
O72_2 O 0.0758(3) 0.0010(3) 0.6018(3)
H123_4 H 0.0599252 0.159372 0.487498
H124_4 H 0.124936 0.105505 0.47099
O69_2 O 0.0274(3) 0.9623(3) 0.6476(3)
C15_4 C 0.1821(9) 0.0159(10) 0.6542(11)
H10_4 H 0.1742 0.0545 0.6215
H11_4 H 0.1591 0.0011 0.6749
H12_4 H 0.1716 0.0188 0.6808
H40_4 H 0.0173 0.0309 0.8726
C73_4 C 0.6079(4) 0.0008(4) 0.5060(4)
O79_4 O 0.5037(4) 0.0846(4) 0.1156(4)
O80_2 O 0.6018(3) 0.0758(3) 0.0010(3)
H125_4 H 0.487498 0.0599252 0.159372
H126_4 H 0.47099 0.124936 0.105505
O77_2 O 0.6476(3) 0.0274(3) 0.9623(3)
H21_4 H 0.0309 0.8726 0.0173
C41_4 C 0.5060(4) 0.6079(4) 0.0008(4)
O20_4 O 0.1156(4) 0.5037(4) 0.0846(4)
C83_4 C 0.6542(11) 0.1821(9) 0.0159(10)
H61_4 H 0.6215 0.1742 0.0545
H62_4 H 0.6749 0.1591 0.0011
H63_4 H 0.6808 0.1716 0.0188
H119_4 H 0.159372 0.487498 0.0599252
H120_4 H 0.105505 0.47099 0.124936
Cu1_4 Cu 0.31347(4) 0.75114(4) 0.84356(4)
O1_4 O 0.3909(2) 0.7275(2) 0.7787(2)
Cu2_4 Cu 0.29135(4) 0.85735(4) 0.75495(4)
O2_4 O 0.3380(3) 0.6641(3) 0.9134(3)
O3_4 O 0.3431(3) 0.7763(3) 0.8324(3)
O4_4 O 0.2796(3) 0.7431(3) 0.8419(3)
O5_4 O 0.2331(2) 0.7902(2) 0.8941(2)
C1_4 C 0.4052(3) 0.7646(3) 0.7243(3)
O6_4 O 0.2676(3) 0.9446(4) 0.6845(3)
O7_4 O 0.3732(2) 0.8196(2) 0.7032(2)
O8_4 O 0.2138(3) 0.8794(3) 0.8186(3)
O9_4 O 0.3209(3) 0.8671(3) 0.7601(3)
O10_4 O 0.2660(3) 0.8303(3) 0.7629(3)
C2_4 C 0.3424(4) 0.8264(4) 0.7937(4)
C3_4 C 0.2628(4) 0.7835(4) 0.8037(4)
C4_4 C 0.1990(4) 0.8444(4) 0.8736(4)
C5_4 C 0.4666(3) 0.7412(4) 0.6821(4)
C6_4 C 0.2779(10) 0.9425(10) 0.6551(11)
C7_4 C 0.3681(4) 0.8359(4) 0.7920(4)
C8_4 C 0.2337(4) 0.7722(4) 0.8104(4)
C9_4 C 0.1386(4) 0.8666(4) 0.9147(4)
H1_4 H 0.4803 0.7678 0.6423
C10_4 C 0.5025(3) 0.6845(4) 0.6982(3)
H2_4 H 0.3156 0.9132 0.6431
N1_4 N 0.2455(8) 0.9752(8) 0.6319(9)
C11_4 C 0.3878(4) 0.7982(4) 0.8278(4)
H3_4 H 0.3700 0.8716 0.7630
H4_4 H 0.2300 0.7373 0.8416
C12_4 C 0.2143(4) 0.8087(4) 0.7749(4)
C13_4 C 0.0979(4) 0.9217(4) 0.8992(4)
H5_4 H 0.1275 0.8403 0.9550
H6_4 H 0.4862 0.6594 0.7379
C14_4 C 0.5661(3) 0.6548(3) 0.6615(3)
C16_4 C 0.2609(10) 0.9537(11) 0.6066(11)
H7_4 H 0.3821 0.7646 0.8587
C17_4 C 0.4186(4) 0.8017(3) 0.8260(4)
H8_4 H 0.2199 0.8425 0.7436
C18_4 C 0.1842(4) 0.8038(4) 0.7777(4)
H9_4 H 0.1105 0.9474 0.8588
C19_4 C 0.0336(4) 0.9479(4) 0.9391(4)
C20_4 C 0.5989(3) 0.5955(3) 0.6885(3)
H13_4 H 0.2712 0.9122 0.6319
H14_4 H 0.2275 0.9755 0.6039
H15_4 H 0.2941 0.9595 0.5678
C21_4 C 0.4307(4) 0.8485(4) 0.7834(4)
C22_4 C 0.4360(5) 0.7565(4) 0.8692(4)
C23_4 C 0.1711(4) 0.7568(4) 0.8225(4)
C24_4 C 0.1654(4) 0.8495(4) 0.7341(4)
C25_4 C 0.0077(4) 0.9131(4) 0.9998(4)
H16_4 H 0.5804 0.5738 0.7293
H17_4 H 0.4187 0.8796 0.7541
C26_4 C 0.4591(4) 0.8518(4) 0.7815(4)
C27_4 C 0.4670(4) 0.7552(4) 0.8697(4)
H18_4 H 0.4266 0.7255 0.8993
C28_4 C 0.1425(4) 0.7542(4) 0.8232(4)
H19_4 H 0.1817 0.7266 0.8525
C29_4 C 0.1358(4) 0.8492(4) 0.7344(4)
H20_4 H 0.1736 0.8814 0.7038
C30_4 C 0.4725(4) 0.9017(4) 0.7334(4)
C31_4 C 0.4777(5) 0.8060(4) 0.8236(4)
C32_4 C 0.4893(4) 0.7058(4) 0.9128(4)
C33_4 C 0.1306(4) 0.7020(4) 0.8715(4)
C34_4 C 0.1242(4) 0.8002(4) 0.7797(4)
C35_4 C 0.1145(4) 0.8997(4) 0.6894(4)
C36_4 C 0.4612(4) 0.9475(4) 0.6897(4)
H22_4 H 0.4931 0.8992 0.7356
H23_4 H 0.4975 0.8075 0.8227
C37_4 C 0.4799(5) 0.6598(5) 0.9579(5)
H24_4 H 0.5126 0.7076 0.9071
C38_4 C 0.1119(4) 0.6893(4) 0.8745(4)
H25_4 H 0.1378 0.6761 0.9027
H26_4 H 0.1046 0.7986 0.7804
H27_4 H 0.1272 0.9283 0.6585
C39_4 C 0.0815(5) 0.9085(4) 0.6878(4)
H28_4 H 0.4384 0.9525 0.6880
C40_4 C 0.4799(4) 0.9948(3) 0.6405(4)
H29_4 H 0.4555 0.6582 0.9649
H30_4 H 0.1104 0.7112 0.8410
C42_4 C 0.0919(4) 0.6421(4) 0.9274(4)
C43_4 C 0.0614(4) 0.9607(4) 0.6410(4)
H31_4 H 0.0685 0.8802 0.7181
O15_4 O 0.0648(3) 0.6433(3) 0.9264(3)
O16_4 O 0.1057(3) 0.6048(3) 0.9674(3)
C44_4 C 0.0021(6) 0.6611(5) 0.9009(6)
H32_4 H 0.0430 0.6476 0.8784
C45_4 C 0.0006(8) 0.7228(9) 0.8076(8)
H34_4 H 0.0409 0.7105 0.7901
H35_5 H 0.0000 0.7065 0.8029
C47_4 C 0.5955(3) 0.6885(3) 0.5989(3)
C49_4 C 0.6615(3) 0.5661(3) 0.6548(3)
C50_4 C 0.6548(3) 0.6615(3) 0.5661(3)
H39_4 H 0.5738 0.7293 0.5804
C53_4 C 0.6982(3) 0.5025(3) 0.6845(4)
C54_4 C 0.6885(3) 0.5989(3) 0.5955(3)
C55_4 C 0.6845(4) 0.6982(3) 0.5025(3)
C59_4 C 0.6821(4) 0.4666(3) 0.7412(4)
H41_4 H 0.7379 0.4862 0.6594
H42_4 H 0.7293 0.5804 0.5738
C60_4 C 0.7412(4) 0.6821(4) 0.4666(3)
H43_4 H 0.6594 0.7379 0.4862
H47_4 H 0.6423 0.4803 0.7678
C63_4 C 0.7243(3) 0.4052(3) 0.7646(3)
H48_4 H 0.7678 0.6423 0.4803
C64_4 C 0.7646(3) 0.7243(3) 0.4052(3)
O21_4 O 0.7787(2) 0.3909(2) 0.7275(2)
O22_4 O 0.7032(2) 0.3732(2) 0.8196(2)
O23_4 O 0.7275(2) 0.7787(2) 0.3909(2)
O24_4 O 0.8196(2) 0.7032(2) 0.3732(2)
Cu5_2 Cu 0.84356(4) 0.31347(4) 0.75114(4)
Cu6_2 Cu 0.75495(4) 0.29135(4) 0.85735(4)
Cu7_2 Cu 0.75114(4) 0.84356(4) 0.31347(4)
Cu8_2 Cu 0.85735(4) 0.75495(4) 0.29135(4)
O29_4 O 0.9134(3) 0.3380(3) 0.6641(3)
O30_4 O 0.8324(3) 0.3431(3) 0.7763(3)
O31_4 O 0.8419(3) 0.2796(3) 0.7431(3)
O32_2 O 0.8941(2) 0.2331(2) 0.7902(2)
O33_4 O 0.6845(3) 0.2676(3) 0.9446(4)
O34_4 O 0.7601(3) 0.3209(3) 0.8671(3)
O35_4 O 0.7629(3) 0.2660(3) 0.8303(3)
O36_2 O 0.8186(3) 0.2138(3) 0.8794(3)
O37_4 O 0.6641(3) 0.9134(3) 0.3380(3)
O38_4 O 0.7763(3) 0.8324(3) 0.3431(3)
O39_4 O 0.7431(3) 0.8419(3) 0.2796(3)
O40_2 O 0.7902(2) 0.8941(2) 0.2331(2)
O41_4 O 0.9446(4) 0.6845(3) 0.2676(3)
O42_4 O 0.8671(3) 0.7601(3) 0.3209(3)
O43_4 O 0.8303(3) 0.7629(3) 0.2660(3)
O44_2 O 0.8794(3) 0.8186(3) 0.2138(3)
C67_4 C 0.7937(4) 0.3424(4) 0.8264(4)
C68_4 C 0.8037(4) 0.2628(4) 0.7835(4)
C69_4 C 0.6551(11) 0.2779(10) 0.9425(10)
C70_4 C 0.8264(4) 0.7937(4) 0.3424(4)
C71_4 C 0.7835(4) 0.8037(4) 0.2628(4)
C72_4 C 0.9425(10) 0.6551(11) 0.2779(10)
C74_4 C 0.6405(4) 0.4799(4) 0.9948(3)
C75_4 C 0.7920(4) 0.3681(4) 0.8359(4)
C76_4 C 0.8104(4) 0.2337(4) 0.7722(4)
H51_4 H 0.6431 0.3156 0.9132
N3_4 N 0.6319(9) 0.2455(8) 0.9752(8)
C77_4 C 0.8359(4) 0.7920(4) 0.3681(4)
C78_4 C 0.7722(4) 0.8104(4) 0.2337(4)
H52_4 H 0.9132 0.6431 0.3156
N4_4 N 0.9752(8) 0.6319(9) 0.2455(8)
C79_4 C 0.6598(5) 0.9579(5) 0.4799(5)
C80_4 C 0.6897(4) 0.4612(4) 0.9475(4)
C81_4 C 0.8278(4) 0.3878(4) 0.7982(4)
H53_4 H 0.7630 0.3700 0.8716
H54_4 H 0.8416 0.2300 0.7373
C82_4 C 0.7749(4) 0.2143(4) 0.8087(4)
C84_4 C 0.6066(11) 0.2609(10) 0.9537(11)
C85_4 C 0.7982(4) 0.8278(4) 0.3878(4)
H55_4 H 0.8716 0.7630 0.3700
H56_4 H 0.7373 0.8416 0.2300
C86_4 C 0.8087(4) 0.7749(4) 0.2143(4)
C88_4 C 0.9537(11) 0.6066(11) 0.2609(10)
H57_4 H 0.6582 0.9649 0.4555
C89_4 C 0.7058(4) 0.9128(4) 0.4893(4)
H58_4 H 0.6880 0.4384 0.9525
C90_4 C 0.7334(4) 0.4725(4) 0.9017(4)
H59_4 H 0.8587 0.3821 0.7646
C91_4 C 0.8260(4) 0.4186(4) 0.8017(3)
H60_4 H 0.7436 0.2199 0.8425
C92_4 C 0.7777(4) 0.1842(4) 0.8038(4)
H64_4 H 0.6319 0.2712 0.9122
H65_4 H 0.6039 0.2275 0.9755
H66_4 H 0.5678 0.2941 0.9595
H67_4 H 0.7646 0.8587 0.3821
C93_4 C 0.8017(3) 0.8260(4) 0.4186(4)
H68_4 H 0.8425 0.7436 0.2199
C94_4 C 0.8038(4) 0.7777(4) 0.1842(4)
H72_4 H 0.9122 0.6319 0.2712
H73_4 H 0.9755 0.6039 0.2275
H74_4 H 0.9595 0.5678 0.2941
H75_4 H 0.7076 0.9071 0.5126
C95_4 C 0.7552(4) 0.8697(4) 0.4670(4)
H76_4 H 0.7356 0.4931 0.8992
C96_4 C 0.7815(4) 0.4591(4) 0.8518(4)
C97_4 C 0.7834(4) 0.4307(4) 0.8485(4)
C98_4 C 0.8692(4) 0.4360(5) 0.7565(4)
C99_4 C 0.8225(4) 0.1711(4) 0.7568(4)
C100_4 C 0.7341(4) 0.1654(4) 0.8495(4)
C101_4 C 0.8485(4) 0.7834(4) 0.4307(4)
C102_4 C 0.7565(4) 0.8692(4) 0.4360(5)
C103_4 C 0.7568(4) 0.8225(4) 0.1711(4)
C104_4 C 0.8495(4) 0.7341(4) 0.1654(4)
C105_4 C 0.8060(4) 0.8236(4) 0.4777(5)
C106_4 C 0.8236(4) 0.4777(5) 0.8060(4)
H77_4 H 0.7541 0.4187 0.8796
C107_4 C 0.8697(4) 0.4670(4) 0.7552(4)
H78_4 H 0.8993 0.4266 0.7255
C108_4 C 0.8232(4) 0.1425(4) 0.7542(4)
H79_4 H 0.8525 0.1817 0.7266
C109_4 C 0.7344(4) 0.1358(4) 0.8492(4)
H80_4 H 0.7038 0.1736 0.8814
H81_4 H 0.8796 0.7541 0.4187
C110_4 C 0.8518(4) 0.7815(4) 0.4591(4)
H82_4 H 0.7255 0.8993 0.4266
C111_4 C 0.7542(4) 0.8232(4) 0.1425(4)
H83_4 H 0.7266 0.8525 0.1817
C112_4 C 0.8492(4) 0.7344(4) 0.1358(4)
H84_4 H 0.8814 0.7038 0.1736
H85_4 H 0.8075 0.8227 0.4975
H86_4 H 0.8227 0.4975 0.8075
C113_4 C 0.9128(4) 0.4893(4) 0.7058(4)
C114_4 C 0.8715(4) 0.1306(4) 0.7020(4)
C115_4 C 0.7797(4) 0.1242(4) 0.8002(4)
C116_4 C 0.6894(4) 0.1145(4) 0.8997(4)
C117_4 C 0.9017(4) 0.7334(4) 0.4725(4)
C118_4 C 0.7020(4) 0.8715(4) 0.1306(4)
C119_4 C 0.8002(4) 0.7797(4) 0.1242(4)
C120_4 C 0.8997(4) 0.6894(4) 0.1145(4)
C121_4 C 0.9579(5) 0.4799(5) 0.6598(5)
H87_4 H 0.9071 0.5126 0.7076
C122_4 C 0.8745(4) 0.1119(4) 0.6893(4)
H88_4 H 0.9027 0.1378 0.6761
H89_4 H 0.7804 0.1046 0.7986
H90_4 H 0.6585 0.1272 0.9283
C123_4 C 0.6878(4) 0.0815(5) 0.9085(4)
C124_4 C 0.9475(4) 0.6897(4) 0.4612(4)
H91_4 H 0.8992 0.7356 0.4931
C125_4 C 0.6893(4) 0.8745(4) 0.1119(4)
H92_4 H 0.6761 0.9027 0.1378
H93_4 H 0.7986 0.7804 0.1046
H94_4 H 0.9283 0.6585 0.1272
C126_4 C 0.9085(4) 0.6878(4) 0.0815(5)
H95_4 H 0.9649 0.4555 0.6582
H96_4 H 0.8410 0.1104 0.7112
C128_4 C 0.9274(4) 0.0919(4) 0.6421(4)
C129_4 C 0.6410(4) 0.0614(4) 0.9607(4)
H97_4 H 0.7181 0.0685 0.8802
H98_4 H 0.9525 0.6880 0.4384
C130_4 C 0.9948(3) 0.6405(4) 0.4799(4)
H99_4 H 0.7112 0.8410 0.1104
C131_4 C 0.6421(4) 0.9274(4) 0.0919(4)
C132_4 C 0.9607(4) 0.6410(4) 0.0614(4)
H100_4 H 0.8802 0.7181 0.0685
O57_4 O 0.9264(3) 0.0648(3) 0.6433(3)
O58_4 O 0.9674(3) 0.1057(3) 0.6048(3)
O63_4 O 0.6433(3) 0.9264(3) 0.0648(3)
O64_4 O 0.6048(3) 0.9674(3) 0.1057(3)
O66_2 O 0.9623(3) 0.6476(3) 0.0274(3)
C133_4 C 0.9009(6) 0.0021(6) 0.6611(5)
C134_4 C 0.6611(5) 0.9009(6) 0.0021(6)
H101_4 H 0.8784 0.0430 0.6476
H102_4 H 0.6476 0.8784 0.0430
C135_4 C 0.8076(8) 0.0006(8) 0.7228(9)
C137_4 C 0.7228(9) 0.8076(8) 0.0006(8)
H104_4 H 0.7901 0.0409 0.7105
H105_5 H 0.8029 0.0000 0.7065
H110_4 H 0.7105 0.7901 0.0409
H111_5 H 0.7065 0.8029 0.0000
H115_4 H 0.635068 0.913381 0.347652
H116_4 H 0.664904 0.952295 0.304394
H117_4 H 0.347652 0.635068 0.913381
H118_4 H 0.304394 0.664904 0.952295
H121_4 H 0.913381 0.347652 0.635068
H122_4 H 0.952295 0.304394 0.664904
H45_4 H 0.8726 0.0173 0.0309
C48_4 C 0.9998(4) 0.0077(4) 0.9131(4)
C52_4 C 0.9391(4) 0.0336(4) 0.9479(4)
C58_4 C 0.8992(4) 0.0979(4) 0.9217(4)
H46_4 H 0.8588 0.1105 0.9474
C62_4 C 0.9147(4) 0.1386(4) 0.8666(4)
H50_4 H 0.9550 0.1275 0.8403
C66_4 C 0.8736(4) 0.1990(4) 0.8444(4)
C51_4 C 0.9479(4) 0.9391(4) 0.0336(4)
C56_4 C 0.9217(4) 0.8992(4) 0.0979(4)
C57_4 C 0.9131(4) 0.9998(4) 0.0077(4)
H44_4 H 0.9474 0.8588 0.1105
C61_4 C 0.8666(4) 0.9147(4) 0.1386(4)
H49_4 H 0.8403 0.9550 0.1275
C65_4 C 0.8444(4) 0.8736(4) 0.1990(4)
O75_4 O 0.6427(3) 0.9523(3) 0.9806(3)
N6_4 N 0.7008(5) 0.8736(5) 0.9701(5)
C138_4 C 0.7285(9) 0.9055(8) 0.9030(7)
H109_4 H 0.7654 0.7884 0.9799
H111_6 H 0.7065 0.8029 1.0000
H112_4 H 0.7196 0.9428 0.8884
H113_4 H 0.7707 0.8815 0.8870
H114_4 H 0.7126 0.9126 0.8909
O67_4 O 0.9523(3) 0.9806(3) 0.6427(3)
N5_4 N 0.8736(5) 0.9701(5) 0.7008(5)
C136_4 C 0.9055(8) 0.9030(7) 0.7285(9)
H103_4 H 0.7884 0.9799 0.7654
H105_6 H 0.8029 1.0000 0.7065
H106_4 H 0.9428 0.8884 0.7196
H107_4 H 0.8815 0.8870 0.7707
H108_4 H 0.9126 0.8909 0.7126
O19_4 O 0.9806(3) 0.6427(3) 0.9523(3)
N2_4 N 0.9701(5) 0.7008(5) 0.8736(5)
C46_4 C 0.9030(7) 0.7285(9) 0.9055(8)
H33_4 H 0.9799 0.7654 0.7884
H35_6 H 1.0000 0.7065 0.8029
H36_4 H 0.8884 0.7196 0.9428
H37_4 H 0.8870 0.7707 0.8815
H38_4 H 0.8909 0.7126 0.9126
loop_
_geom_bond_atom_site_label_1
_geom_bond_atom_site_label_2
_geom_bond_site_symmetry_1
_geom_bond_site_symmetry_2
C46 N2 1_555 1_555
H36 C46 1_555 1_555
H37 C46 1_555 1_555
H38 C46 1_555 1_555
C56 C51 1_555 1_555
C57 C51 1_555 1_555
H44 C56 1_555 1_555
C61 C56 1_555 1_555
H49 C61 1_555 1_555
C65 C61 1_555 1_555
O25 C65 1_555 1_555
O26 C65 1_555 1_555
Cu15 O25 1_555 1_555
Cu16 O26 1_555 1_555
Cu15 Cu16 1_555 1_555
C52 C48 1_555 1_555
C58 C52 1_555 1_555
H46 C58 1_555 1_555
C62 C58 1_555 1_555
H50 C62 1_555 1_555
C66 C62 1_555 1_555
O27 C66 1_555 1_555
O28 C66 1_555 1_555
Cu17 O27 1_555 1_555
Cu18 O28 1_555 1_555
Cu17 Cu18 1_555 1_555
Cu1 O1 1_555 1_555
O1 C1 1_555 1_555
Cu2 Cu1 1_555 1_555
O2 Cu1 1_555 1_555
O3 Cu1 1_555 1_555
O4 Cu1 1_555 1_555
O5 Cu1 1_555 1_555
C1 O7 1_555 1_555
O6 Cu2 1_555 1_555
O7 Cu2 1_555 1_555
O8 Cu2 1_555 1_555
O9 Cu2 1_555 1_555
O10 Cu2 1_555 1_555
C2 O3 1_555 1_555
C3 O4 1_555 1_555
C4 O5 1_555 1_555
C5 C1 1_555 1_555
C6 O6 1_555 1_555
C7 C2 1_555 1_555
C8 C3 1_555 1_555
C9 C4 1_555 1_555
H1 C5 1_555 1_555
C10 C5 1_555 1_555
H2 C6 1_555 1_555
N1 C6 1_555 1_555
C11 C7 1_555 1_555
H3 C7 1_555 1_555
H4 C8 1_555 1_555
C12 C8 1_555 1_555
C13 C9 1_555 1_555
H5 C9 1_555 1_555
H6 C10 1_555 1_555
C14 C10 1_555 1_555
C16 N1 1_555 1_555
H7 C11 1_555 1_555
C17 C11 1_555 1_555
H8 C12 1_555 1_555
C18 C12 1_555 1_555
H9 C13 1_555 1_555
C19 C13 1_555 1_555
C20 C14 1_555 1_555
H13 C16 1_555 1_555
H14 C16 1_555 1_555
H15 C16 1_555 1_555
C21 C17 1_555 1_555
C22 C17 1_555 1_555
C23 C18 1_555 1_555
C24 C18 1_555 1_555
C25 C19 1_555 1_555
H16 C20 1_555 1_555
H17 C21 1_555 1_555
C26 C21 1_555 1_555
C27 C22 1_555 1_555
H18 C22 1_555 1_555
C28 C23 1_555 1_555
H19 C23 1_555 1_555
C29 C24 1_555 1_555
H20 C24 1_555 1_555
C30 C26 1_555 1_555
C31 C26 1_555 1_555
C32 C27 1_555 1_555
C33 C28 1_555 1_555
C34 C28 1_555 1_555
C35 C29 1_555 1_555
C36 C30 1_555 1_555
H22 C30 1_555 1_555
H23 C31 1_555 1_555
C37 C32 1_555 1_555
H24 C32 1_555 1_555
C38 C33 1_555 1_555
H25 C33 1_555 1_555
H26 C34 1_555 1_555
H27 C35 1_555 1_555
C39 C35 1_555 1_555
H28 C36 1_555 1_555
C40 C36 1_555 1_555
H29 C37 1_555 1_555
H30 C38 1_555 1_555
C42 C38 1_555 1_555
C43 C39 1_555 1_555
H31 C39 1_555 1_555
O11 C40 1_555 1_555
O15 C42 1_555 1_555
O16 C42 1_555 1_555
O18 C43 1_555 1_555
H32 C44 1_555 1_555
H34 C45 1_555 1_555
H35_2 C45 1_555 1_555
C47 C14 1_555 1_555
C49 C20 1_555 1_555
C50 C47 1_555 1_555
H39 C47 1_555 1_555
C53 C49 1_555 1_555
C54 C49 1_555 1_555
C55 C50 1_555 1_555
C59 C53 1_555 1_555
H41 C53 1_555 1_555
H42 C54 1_555 1_555
C60 C55 1_555 1_555
H43 C55 1_555 1_555
H47 C59 1_555 1_555
C63 C59 1_555 1_555
H48 C60 1_555 1_555
C64 C60 1_555 1_555
O21 C63 1_555 1_555
O22 C63 1_555 1_555
O23 C64 1_555 1_555
O24 C64 1_555 1_555
Cu18 O21 1_555 1_555
Cu17 O22 1_555 1_555
Cu16 O23 1_555 1_555
Cu15 O24 1_555 1_555
Cu11 O15 1_555 1_555
O29 Cu18 1_555 1_555
O30 Cu18 1_555 1_555
O31 Cu18 1_555 1_555
O33 Cu17 1_555 1_555
O34 Cu17 1_555 1_555
O35 Cu17 1_555 1_555
O37 Cu16 1_555 1_555
O38 Cu16 1_555 1_555
O39 Cu16 1_555 1_555
O41 Cu15 1_555 1_555
O42 Cu15 1_555 1_555
O43 Cu15 1_555 1_555
O49 Cu11 1_555 1_555
C67 O30 1_555 1_555
C68 O31 1_555 1_555
C69 O33 1_555 1_555
C70 O38 1_555 1_555
C71 O39 1_555 1_555
C72 O41 1_555 1_555
C74 O47 1_555 1_555
C75 C67 1_555 1_555
C76 C68 1_555 1_555
H51 C69 1_555 1_555
N3 C69 1_555 1_555
C77 C70 1_555 1_555
C78 C71 1_555 1_555
H52 C72 1_555 1_555
N4 C72 1_555 1_555
C80 C74 1_555 1_555
C81 C75 1_555 1_555
H53 C75 1_555 1_555
H54 C76 1_555 1_555
C82 C76 1_555 1_555
C84 N3 1_555 1_555
C85 C77 1_555 1_555
H55 C77 1_555 1_555
H56 C78 1_555 1_555
C86 C78 1_555 1_555
C88 N4 1_555 1_555
H57 C79 1_555 1_555
C89 C79 1_555 1_555
H58 C80 1_555 1_555
C90 C80 1_555 1_555
H59 C81 1_555 1_555
C91 C81 1_555 1_555
H60 C82 1_555 1_555
C92 C82 1_555 1_555
H64 C84 1_555 1_555
H65 C84 1_555 1_555
H66 C84 1_555 1_555
H67 C85 1_555 1_555
C93 C85 1_555 1_555
H68 C86 1_555 1_555
C94 C86 1_555 1_555
H72 C88 1_555 1_555
H73 C88 1_555 1_555
H74 C88 1_555 1_555
H75 C89 1_555 1_555
C95 C89 1_555 1_555
H76 C90 1_555 1_555
C96 C90 1_555 1_555
C97 C91 1_555 1_555
C98 C91 1_555 1_555
C99 C92 1_555 1_555
C100 C92 1_555 1_555
C101 C93 1_555 1_555
C102 C93 1_555 1_555
C103 C94 1_555 1_555
C104 C94 1_555 1_555
C105 C95 1_555 1_555
C106 C96 1_555 1_555
H77 C97 1_555 1_555
C107 C98 1_555 1_555
H78 C98 1_555 1_555
C108 C99 1_555 1_555
H79 C99 1_555 1_555
C109 C100 1_555 1_555
H80 C100 1_555 1_555
H81 C101 1_555 1_555
C110 C101 1_555 1_555
H82 C102 1_555 1_555
C111 C103 1_555 1_555
H83 C103 1_555 1_555
C112 C104 1_555 1_555
H84 C104 1_555 1_555
H85 C105 1_555 1_555
H86 C106 1_555 1_555
C113 C107 1_555 1_555
C114 C108 1_555 1_555
C115 C108 1_555 1_555
C116 C109 1_555 1_555
C117 C110 1_555 1_555
C118 C111 1_555 1_555
C119 C111 1_555 1_555
C120 C112 1_555 1_555
C121 C113 1_555 1_555
H87 C113 1_555 1_555
C122 C114 1_555 1_555
H88 C114 1_555 1_555
H89 C115 1_555 1_555
H90 C116 1_555 1_555
C123 C116 1_555 1_555
C124 C117 1_555 1_555
H91 C117 1_555 1_555
C125 C118 1_555 1_555
H92 C118 1_555 1_555
H93 C119 1_555 1_555
H94 C120 1_555 1_555
C126 C120 1_555 1_555
H95 C121 1_555 1_555
H96 C122 1_555 1_555
C128 C122 1_555 1_555
C129 C123 1_555 1_555
H97 C123 1_555 1_555
H98 C124 1_555 1_555
C130 C124 1_555 1_555
H99 C125 1_555 1_555
C131 C125 1_555 1_555
C132 C126 1_555 1_555
H100 C126 1_555 1_555
O57 C128 1_555 1_555
O58 C128 1_555 1_555
O60 C129 1_555 1_555
O61 C130 1_555 1_555
O63 C131 1_555 1_555
O64 C131 1_555 1_555
O50 C132 1_555 1_555
Cu14 O57 1_555 1_555
Cu24 O63 1_555 1_555
O68 Cu14 1_555 1_555
O76 Cu24 1_555 1_555
H101 C133 1_555 1_555
H102 C134 1_555 1_555
H104 C135 1_555 1_555
H105 C135 1_555 1_555
H110 C137 1_555 1_555
H111 C137 1_555 1_555
O8 C4 1_555 1_555
O9 C2 1_555 1_555
O10 C3 1_555 1_555
C27 C31 1_555 1_555
C29 C34 1_555 1_555
C50 C54 1_555 1_555
O34 C67 1_555 1_555
O35 C68 1_555 1_555
O42 C70 1_555 1_555
O43 C71 1_555 1_555
C95 C102 1_555 1_555
C96 C97 1_555 1_555
C105 C110 1_555 1_555
C106 C107 1_555 1_555
C109 C115 1_555 1_555
C112 C119 1_555 1_555
O37 H115 1_555 1_555
O37 H116 1_555 1_555
O2 H117 1_555 1_555
O2 H118 1_555 1_555
O29 H121 1_555 1_555
O29 H122 1_555 1_555
O14 C41 1_555 1_555
O20 Cu12 1_555 1_555
Cu10 O14 1_555 1_555
O48 Cu10 1_555 1_555
O52 Cu12 1_555 1_555
O53 Cu12 1_555 1_555
O54 Cu12 1_555 1_555
H61 C83 1_555 1_555
H62 C83 1_555 1_555
H63 C83 1_555 1_555
Cu23 O59 1_555 1_555
Cu9 Cu10 1_555 1_555
O20 H119 1_555 1_555
O20 H120 1_555 1_555
H10 C15 1_555 1_555
H11 C15 1_555 1_555
H12 C15 1_555 1_555
Cu4 O12 1_555 1_555
Cu13 O17 1_555 1_555
O46 Cu4 1_555 1_555
O79 Cu23 1_555 1_555
O81 Cu23 1_555 1_555
O82 Cu23 1_555 1_555
Cu3 Cu4 1_555 1_555
O46 C73 1_555 1_555
O79 H125 1_555 1_555
O79 H126 1_555 1_555
H69 C87 1_555 1_555
H70 C87 1_555 1_555
H71 C87 1_555 1_555
O56 C127 1_555 1_555
Cu20 O56 1_555 1_555
O71 Cu13 1_555 1_555
O73 Cu13 1_555 1_555
O74 Cu13 1_555 1_555
O62 Cu20 1_555 1_555
Cu19 Cu20 1_555 1_555
O71 H123 1_555 1_555
O71 H124 1_555 1_555
H47_2 C59_2 1_555 1_555
C63_2 C59_2 1_555 1_555
O21_2 C63_2 1_555 1_555
O22_2 C63_2 1_555 1_555
Cu5 O21_2 1_555 1_555
Cu6 O22_2 1_555 1_555
O29_2 Cu5 1_555 1_555
O30_2 Cu5 1_555 1_555
O31_2 Cu5 1_555 1_555
O32 Cu5 1_555 1_555
O33_2 Cu6 1_555 1_555
O34_2 Cu6 1_555 1_555
O35_2 Cu6 1_555 1_555
O36 Cu6 1_555 1_555
C67_2 O30_2 1_555 1_555
C68_2 O31_2 1_555 1_555
C69_2 O33_2 1_555 1_555
C75_2 C67_2 1_555 1_555
C76_2 C68_2 1_555 1_555
H51_2 C69_2 1_555 1_555
N3_2 C69_2 1_555 1_555
C80_2 C74_2 1_555 1_555
C81_2 C75_2 1_555 1_555
H53_2 C75_2 1_555 1_555
H54_2 C76_2 1_555 1_555
C82_2 C76_2 1_555 1_555
C83_2 N3_2 1_555 1_555
C84_2 N3_2 1_555 1_555
H58_2 C80_2 1_555 1_555
C90_2 C80_2 1_555 1_555
H59_2 C81_2 1_555 1_555
C91_2 C81_2 1_555 1_555
H60_2 C82_2 1_555 1_555
C92_2 C82_2 1_555 1_555
H61_2 C83_2 1_555 1_555
H62_2 C83_2 1_555 1_555
H63_2 C83_2 1_555 1_555
H64_2 C84_2 1_555 1_555
H65_2 C84_2 1_555 1_555
H66_2 C84_2 1_555 1_555
H76_2 C90_2 1_555 1_555
C96_2 C90_2 1_555 1_555
C97_2 C91_2 1_555 1_555
C98_2 C91_2 1_555 1_555
C99_2 C92_2 1_555 1_555
C100_2 C92_2 1_555 1_555
C106_2 C96_2 1_555 1_555
H77_2 C97_2 1_555 1_555
C107_2 C98_2 1_555 1_555
H78_2 C98_2 1_555 1_555
C108_2 C99_2 1_555 1_555
H79_2 C99_2 1_555 1_555
C109_2 C100_2 1_555 1_555
H80_2 C100_2 1_555 1_555
H86_2 C106_2 1_555 1_555
C113_2 C107_2 1_555 1_555
C114_2 C108_2 1_555 1_555
C115_2 C108_2 1_555 1_555
C116_2 C109_2 1_555 1_555
C121_2 C113_2 1_555 1_555
C122_2 C114_2 1_555 1_555
H88_2 C114_2 1_555 1_555
H89_2 C115_2 1_555 1_555
H90_2 C116_2 1_555 1_555
C123_2 C116_2 1_555 1_555
H95_2 C121_2 1_555 1_555
H96_2 C122_2 1_555 1_555
C128_2 C122_2 1_555 1_555
C129_2 C123_2 1_555 1_555
H97_2 C123_2 1_555 1_555
O57_2 C128_2 1_555 1_555
O58_2 C128_2 1_555 1_555
O59_2 C129_2 1_555 1_555
O60_2 C129_2 1_555 1_555
Cu10 O57_2 1_555 1_555
Cu9 O58_2 1_555 1_555
Cu3 O59_2 1_555 1_555
Cu4 O60_2 1_555 1_555
O67 Cu10 1_555 1_555
O69 Cu10 1_555 1_555
O71_2 Cu9 1_555 1_555
O72 Cu9 1_555 1_555
C133_2 O67 1_555 1_555
N5 C133_2 1_555 1_555
H101_2 C133_2 1_555 1_555
C135_2 N5 1_555 1_555
C136 N5 1_555 1_555
H103 C135_2 1_555 1_555
H104_2 C135_2 1_555 1_555
H105_2 C135_2 1_555 1_555
H106 C136 1_555 1_555
H107 C136 1_555 1_555
H108 C136 1_555 1_555
Cu5 Cu6 1_555 1_555
O34_2 C67_2 1_555 1_555
O35_2 C68_2 1_555 1_555
O68 C74_2 1_555 1_555
C96_2 C97_2 1_555 1_555
C106_2 C107_2 1_555 1_555
C109_2 C115_2 1_555 1_555
O29_2 H121_2 1_555 1_555
O29_2 H122_2 1_555 1_555
Cu1_2 O1_2 1_555 1_555
O1_2 C1_2 1_555 1_555
Cu2_2 Cu1_2 1_555 1_555
O2_2 Cu1_2 1_555 1_555
O3_2 Cu1_2 1_555 1_555
O4_2 Cu1_2 1_555 1_555
O5_2 Cu1_2 1_555 1_555
C1_2 O7_2 1_555 1_555
O6_2 Cu2_2 1_555 1_555
O7_2 Cu2_2 1_555 1_555
O8_2 Cu2_2 1_555 1_555
O9_2 Cu2_2 1_555 1_555
O10_2 Cu2_2 1_555 1_555
C2_2 O3_2 1_555 1_555
C3_2 O4_2 1_555 1_555
C4_2 O5_2 1_555 1_555
C5_2 C1_2 1_555 1_555
C6_2 O6_2 1_555 1_555
C7_2 C2_2 1_555 1_555
C8_2 C3_2 1_555 1_555
C9_2 C4_2 1_555 1_555
H1_2 C5_2 1_555 1_555
H2_2 C6_2 1_555 1_555
N1_2 C6_2 1_555 1_555
C11_2 C7_2 1_555 1_555
H3_2 C7_2 1_555 1_555
H4_2 C8_2 1_555 1_555
C12_2 C8_2 1_555 1_555
C13_2 C9_2 1_555 1_555
H5_2 C9_2 1_555 1_555
C15_2 N1_2 1_555 1_555
C16_2 N1_2 1_555 1_555
H7_2 C11_2 1_555 1_555
C17_2 C11_2 1_555 1_555
H8_2 C12_2 1_555 1_555
C18_2 C12_2 1_555 1_555
H9_2 C13_2 1_555 1_555
C19_2 C13_2 1_555 1_555
H10_2 C15_2 1_555 1_555
H11_2 C15_2 1_555 1_555
H12_2 C15_2 1_555 1_555
H13_2 C16_2 1_555 1_555
H14_2 C16_2 1_555 1_555
H15_2 C16_2 1_555 1_555
C21_2 C17_2 1_555 1_555
C22_2 C17_2 1_555 1_555
C23_2 C18_2 1_555 1_555
C24_2 C18_2 1_555 1_555
C25_2 C19_2 1_555 1_555
H17_2 C21_2 1_555 1_555
C26_2 C21_2 1_555 1_555
C27_2 C22_2 1_555 1_555
H18_2 C22_2 1_555 1_555
C28_2 C23_2 1_555 1_555
H19_2 C23_2 1_555 1_555
C29_2 C24_2 1_555 1_555
H20_2 C24_2 1_555 1_555
H21_2 C25_2 1_555 1_555
C30_2 C26_2 1_555 1_555
C31_2 C26_2 1_555 1_555
C32_2 C27_2 1_555 1_555
C33_2 C28_2 1_555 1_555
C34_2 C28_2 1_555 1_555
C35_2 C29_2 1_555 1_555
C36_2 C30_2 1_555 1_555
H22_2 C30_2 1_555 1_555
H23_2 C31_2 1_555 1_555
C37_2 C32_2 1_555 1_555
C38_2 C33_2 1_555 1_555
H25_2 C33_2 1_555 1_555
H26_2 C34_2 1_555 1_555
H27_2 C35_2 1_555 1_555
C39_2 C35_2 1_555 1_555
H28_2 C36_2 1_555 1_555
C40_2 C36_2 1_555 1_555
H29_2 C37_2 1_555 1_555
H30_2 C38_2 1_555 1_555
C42_2 C38_2 1_555 1_555
C43_2 C39_2 1_555 1_555
H31_2 C39_2 1_555 1_555
O76 C40_2 1_555 1_555
O15_2 C42_2 1_555 1_555
O16_2 C42_2 1_555 1_555
O72 C43_2 1_555 1_555
O69 C43_2 1_555 1_555
O19_2 C44_2 1_555 1_555
O20_2 Cu19 1_555 1_555
C44_2 N2_2 1_555 1_555
N2_2 C45_2 1_555 1_555
H32_2 C44_2 1_555 1_555
C45_2 H33_2 1_555 1_555
C46_2 N2_2 1_555 1_555
H34_2 C45_2 1_555 1_555
H35_3 C45_2 1_555 1_555
H36_2 C46_2 1_555 1_555
H37_2 C46_2 1_555 1_555
H38_2 C46_2 1_555 1_555
C48_2 C19_2 1_555 1_555
C51_2 C25_2 1_555 1_555
H40_2 C48_2 1_555 1_555
C52_2 C48_2 1_555 1_555
C56_2 C51_2 1_555 1_555
C57_2 C51_2 1_555 1_555
C58_2 C52_2 1_555 1_555
H44_2 C56_2 1_555 1_555
C61_2 C56_2 1_555 1_555
H45_2 C57_2 1_555 1_555
H46_2 C58_2 1_555 1_555
C62_2 C58_2 1_555 1_555
H49_2 C61_2 1_555 1_555
C65_2 C61_2 1_555 1_555
H50_2 C62_2 1_555 1_555
C66_2 C62_2 1_555 1_555
O25_2 C65_2 1_555 1_555
O26_2 C65_2 1_555 1_555
O36 C66_2 1_555 1_555
O32 C66_2 1_555 1_555
Cu20 O15_2 1_555 1_555
Cu19 O16_2 1_555 1_555
Cu15_2 O25_2 1_555 1_555
Cu16_2 O26_2 1_555 1_555
O50_2 Cu20 1_555 1_555
O52_2 Cu19 1_555 1_555
O8_2 C4_2 1_555 1_555
O9_2 C2_2 1_555 1_555
O10_2 C3_2 1_555 1_555
C27_2 C31_2 1_555 1_555
C29_2 C34_2 1_555 1_555
O19_2 Cu20 1_555 1_555
C52_2 C57_2 1_555 1_555
Cu15_2 Cu16_2 1_555 1_555
O2_2 H117_2 1_555 1_555
O2_2 H118_2 1_555 1_555
H48_2 C60_2 1_555 1_555
C64_2 C60_2 1_555 1_555
O23_2 C64_2 1_555 1_555
O24_2 C64_2 1_555 1_555
Cu16_2 O23_2 1_555 1_555
Cu15_2 O24_2 1_555 1_555
O37_2 Cu16_2 1_555 1_555
O38_2 Cu16_2 1_555 1_555
O39_2 Cu16_2 1_555 1_555
O41_2 Cu15_2 1_555 1_555
O42_2 Cu15_2 1_555 1_555
O43_2 Cu15_2 1_555 1_555
C70_2 O38_2 1_555 1_555
C71_2 O39_2 1_555 1_555
C72_2 O41_2 1_555 1_555
C77_2 C70_2 1_555 1_555
C78_2 C71_2 1_555 1_555
H52_2 C72_2 1_555 1_555
N4_2 C72_2 1_555 1_555
C85_2 C77_2 1_555 1_555
H55_2 C77_2 1_555 1_555
H56_2 C78_2 1_555 1_555
C86_2 C78_2 1_555 1_555
C87_2 N4_2 1_555 1_555
C88_2 N4_2 1_555 1_555
H57_2 C79_2 1_555 1_555
C89_2 C79_2 1_555 1_555
H67_2 C85_2 1_555 1_555
C93_2 C85_2 1_555 1_555
H68_2 C86_2 1_555 1_555
C94_2 C86_2 1_555 1_555
H69_2 C87_2 1_555 1_555
H70_2 C87_2 1_555 1_555
H71_2 C87_2 1_555 1_555
H72_2 C88_2 1_555 1_555
H73_2 C88_2 1_555 1_555
H74_2 C88_2 1_555 1_555
C95_2 C89_2 1_555 1_555
C101_2 C93_2 1_555 1_555
C102_2 C93_2 1_555 1_555
C103_2 C94_2 1_555 1_555
C104_2 C94_2 1_555 1_555
C105_2 C95_2 1_555 1_555
H81_2 C101_2 1_555 1_555
C110_2 C101_2 1_555 1_555
H82_2 C102_2 1_555 1_555
C111_2 C103_2 1_555 1_555
H83_2 C103_2 1_555 1_555
C112_2 C104_2 1_555 1_555
H84_2 C104_2 1_555 1_555
H85_2 C105_2 1_555 1_555
C117_2 C110_2 1_555 1_555
C118_2 C111_2 1_555 1_555
C119_2 C111_2 1_555 1_555
C120_2 C112_2 1_555 1_555
C124_2 C117_2 1_555 1_555
H91_2 C117_2 1_555 1_555
C125_2 C118_2 1_555 1_555
H92_2 C118_2 1_555 1_555
H93_2 C119_2 1_555 1_555
H94_2 C120_2 1_555 1_555
C126_2 C120_2 1_555 1_555
H98_2 C124_2 1_555 1_555
C130_2 C124_2 1_555 1_555
H99_2 C125_2 1_555 1_555
C131_2 C125_2 1_555 1_555
C132_2 C126_2 1_555 1_555
H100_2 C126_2 1_555 1_555
O49 C130_2 1_555 1_555
O63_2 C131_2 1_555 1_555
O64_2 C131_2 1_555 1_555
O52_2 C132_2 1_555 1_555
O50_2 C132_2 1_555 1_555
Cu4 O63_2 1_555 1_555
Cu3 O64_2 1_555 1_555
O75 Cu4 1_555 1_555
O79_2 Cu3 1_555 1_555
C134_2 O75 1_555 1_555
N6 C134_2 1_555 1_555
H102_2 C134_2 1_555 1_555
C137_2 N6 1_555 1_555
C138 N6 1_555 1_555
H109 C137_2 1_555 1_555
H110_2 C137_2 1_555 1_555
H111_2 C137_2 1_555 1_555
H112 C138 1_555 1_555
H113 C138 1_555 1_555
H114 C138 1_555 1_555
O42_2 C70_2 1_555 1_555
O43_2 C71_2 1_555 1_555
C95_2 C102_2 1_555 1_555
C105_2 C110_2 1_555 1_555
C112_2 C119_2 1_555 1_555
O37_2 H115_2 1_555 1_555
O37_2 H116_2 1_555 1_555
C14_2 C10_2 1_555 1_555
C20_2 C14_2 1_555 1_555
H16_2 C20_2 1_555 1_555
O74 C41_2 1_555 1_555
C47_2 C14_2 1_555 1_555
C49_2 C20_2 1_555 1_555
C50_2 C47_2 1_555 1_555
H39_2 C47_2 1_555 1_555
C53_2 C49_2 1_555 1_555
C54_2 C49_2 1_555 1_555
C55_2 C50_2 1_555 1_555
H42_2 C54_2 1_555 1_555
C73_2 O82 1_555 1_555
O54 C127_2 1_555 1_555
C50_2 C54_2 1_555 1_555
C136_2 N5_2 1_555 1_555
H106_2 C136_2 1_555 1_555
H107_2 C136_2 1_555 1_555
H108_2 C136_2 1_555 1_555
C138_2 N6_2 1_555 1_555
H112_2 C138_2 1_555 1_555
H113_2 C138_2 1_555 1_555
H114_2 C138_2 1_555 1_555
C14_3 C10_3 1_555 1_555
C20_3 C14_3 1_555 1_555
H16_3 C20_3 1_555 1_555
O13_2 C41_3 1_555 1_555
Cu3_2 O11_2 1_555 1_555
C47_3 C14_3 1_555 1_555
C49_3 C20_3 1_555 1_555
C50_3 C47_3 1_555 1_555
H39_3 C47_3 1_555 1_555
C53_3 C49_3 1_555 1_555
C54_3 C49_3 1_555 1_555
C55_3 C50_3 1_555 1_555
H42_3 C54_3 1_555 1_555
Cu9_2 O13_2 1_555 1_555
O45_2 Cu3_2 1_555 1_555
O47_2 Cu9_2 1_555 1_555
C73_3 O45_2 1_555 1_555
O55_2 C127_3 1_555 1_555
Cu19_2 O55_2 1_555 1_555
C50_3 C54_3 1_555 1_555
O61_2 Cu19_2 1_555 1_555
H48_3 C60_3 1_555 1_555
C64_3 C60_3 1_555 1_555
O23_3 C64_3 1_555 1_555
O24_3 C64_3 1_555 1_555
Cu7 O23_3 1_555 1_555
Cu8 O24_3 1_555 1_555
O37_3 Cu7 1_555 1_555
O38_3 Cu7 1_555 1_555
O39_3 Cu7 1_555 1_555
O40 Cu7 1_555 1_555
O41_3 Cu8 1_555 1_555
O42_3 Cu8 1_555 1_555
O43_3 Cu8 1_555 1_555
O44 Cu8 1_555 1_555
C70_3 O38_3 1_555 1_555
C71_3 O39_3 1_555 1_555
C72_3 O41_3 1_555 1_555
C77_3 C70_3 1_555 1_555
C78_3 C71_3 1_555 1_555
H52_3 C72_3 1_555 1_555
N4_3 C72_3 1_555 1_555
C85_3 C77_3 1_555 1_555
H55_3 C77_3 1_555 1_555
H56_3 C78_3 1_555 1_555
C86_3 C78_3 1_555 1_555
C87_3 N4_3 1_555 1_555
C88_3 N4_3 1_555 1_555
H57_3 C79_3 1_555 1_555
C89_3 C79_3 1_555 1_555
H67_3 C85_3 1_555 1_555
C93_3 C85_3 1_555 1_555
H68_3 C86_3 1_555 1_555
C94_3 C86_3 1_555 1_555
H69_3 C87_3 1_555 1_555
H70_3 C87_3 1_555 1_555
H71_3 C87_3 1_555 1_555
H72_3 C88_3 1_555 1_555
H73_3 C88_3 1_555 1_555
H74_3 C88_3 1_555 1_555
C95_3 C89_3 1_555 1_555
C101_3 C93_3 1_555 1_555
C102_3 C93_3 1_555 1_555
C103_3 C94_3 1_555 1_555
C104_3 C94_3 1_555 1_555
C105_3 C95_3 1_555 1_555
H81_3 C101_3 1_555 1_555
C110_3 C101_3 1_555 1_555
H82_3 C102_3 1_555 1_555
C111_3 C103_3 1_555 1_555
H83_3 C103_3 1_555 1_555
C112_3 C104_3 1_555 1_555
H84_3 C104_3 1_555 1_555
H85_3 C105_3 1_555 1_555
C117_3 C110_3 1_555 1_555
C118_3 C111_3 1_555 1_555
C119_3 C111_3 1_555 1_555
C120_3 C112_3 1_555 1_555
C124_3 C117_3 1_555 1_555
H91_3 C117_3 1_555 1_555
C125_3 C118_3 1_555 1_555
H92_3 C118_3 1_555 1_555
H93_3 C119_3 1_555 1_555
H94_3 C120_3 1_555 1_555
C126_3 C120_3 1_555 1_555
H98_3 C124_3 1_555 1_555
C130_3 C124_3 1_555 1_555
H99_3 C125_3 1_555 1_555
C131_3 C125_3 1_555 1_555
C132_3 C126_3 1_555 1_555
H100_3 C126_3 1_555 1_555
O62_2 C130_3 1_555 1_555
O63_3 C131_3 1_555 1_555
O64_3 C131_3 1_555 1_555
O65 C132_3 1_555 1_555
O66 C132_3 1_555 1_555
Cu25 O63_3 1_555 1_555
Cu26 O64_3 1_555 1_555
Cu27 O65 1_555 1_555
Cu28 O66 1_555 1_555
O75_3 Cu25 1_555 1_555
O76_2 Cu25 1_555 1_555
O77 Cu25 1_555 1_555
O78_2 Cu25 1_555 1_555
O79_3 Cu26 1_555 1_555
O80 Cu26 1_555 1_555
C134_3 O75_3 1_555 1_555
N6_3 C134_3 1_555 1_555
H102_3 C134_3 1_555 1_555
C137_3 N6_3 1_555 1_555
C138_3 N6_3 1_555 1_555
H109_3 C137_3 1_555 1_555
H110_3 C137_3 1_555 1_555
H111_4 C137_3 1_555 1_555
H112_3 C138_3 1_555 1_555
H113_3 C138_3 1_555 1_555
H114_3 C138_3 1_555 1_555
Cu7 Cu8 1_555 1_555
O42_3 C70_3 1_555 1_555
O43_3 C71_3 1_555 1_555
C95_3 C102_3 1_555 1_555
C105_3 C110_3 1_555 1_555
C112_3 C119_3 1_555 1_555
O62_2 Cu20_2 1_555 1_555
Cu25 Cu26 1_555 1_555
Cu27 Cu28 1_555 1_555
O37_3 H115_3 1_555 1_555
O37_3 H116_3 1_555 1_555
Cu1_3 O1_3 1_555 1_555
O1_3 C1_3 1_555 1_555
Cu2_3 Cu1_3 1_555 1_555
O2_3 Cu1_3 1_555 1_555
O3_3 Cu1_3 1_555 1_555
O4_3 Cu1_3 1_555 1_555
O5_3 Cu1_3 1_555 1_555
C1_3 O7_3 1_555 1_555
O6_3 Cu2_3 1_555 1_555
O7_3 Cu2_3 1_555 1_555
O8_3 Cu2_3 1_555 1_555
O9_3 Cu2_3 1_555 1_555
O10_3 Cu2_3 1_555 1_555
C2_3 O3_3 1_555 1_555
C3_3 O4_3 1_555 1_555
C4_3 O5_3 1_555 1_555
C5_3 C1_3 1_555 1_555
C6_3 O6_3 1_555 1_555
C7_3 C2_3 1_555 1_555
C8_3 C3_3 1_555 1_555
C9_3 C4_3 1_555 1_555
H1_3 C5_3 1_555 1_555
H2_3 C6_3 1_555 1_555
N1_3 C6_3 1_555 1_555
C11_3 C7_3 1_555 1_555
H3_3 C7_3 1_555 1_555
H4_3 C8_3 1_555 1_555
C12_3 C8_3 1_555 1_555
C13_3 C9_3 1_555 1_555
H5_3 C9_3 1_555 1_555
C15_3 N1_3 1_555 1_555
C16_3 N1_3 1_555 1_555
H7_3 C11_3 1_555 1_555
C17_3 C11_3 1_555 1_555
H8_3 C12_3 1_555 1_555
C18_3 C12_3 1_555 1_555
H9_3 C13_3 1_555 1_555
C19_3 C13_3 1_555 1_555
H10_3 C15_3 1_555 1_555
H11_3 C15_3 1_555 1_555
H12_3 C15_3 1_555 1_555
H13_3 C16_3 1_555 1_555
H14_3 C16_3 1_555 1_555
H15_3 C16_3 1_555 1_555
C21_3 C17_3 1_555 1_555
C22_3 C17_3 1_555 1_555
C23_3 C18_3 1_555 1_555
C24_3 C18_3 1_555 1_555
C25_3 C19_3 1_555 1_555
H17_3 C21_3 1_555 1_555
C26_3 C21_3 1_555 1_555
C27_3 C22_3 1_555 1_555
H18_3 C22_3 1_555 1_555
C28_3 C23_3 1_555 1_555
H19_3 C23_3 1_555 1_555
C29_3 C24_3 1_555 1_555
H20_3 C24_3 1_555 1_555
H21_3 C25_3 1_555 1_555
C30_3 C26_3 1_555 1_555
C31_3 C26_3 1_555 1_555
C32_3 C27_3 1_555 1_555
C33_3 C28_3 1_555 1_555
C34_3 C28_3 1_555 1_555
C35_3 C29_3 1_555 1_555
C36_3 C30_3 1_555 1_555
H22_3 C30_3 1_555 1_555
H23_3 C31_3 1_555 1_555
C37_3 C32_3 1_555 1_555
C38_3 C33_3 1_555 1_555
H25_3 C33_3 1_555 1_555
H26_3 C34_3 1_555 1_555
H27_3 C35_3 1_555 1_555
C39_3 C35_3 1_555 1_555
H28_3 C36_3 1_555 1_555
C40_3 C36_3 1_555 1_555
H29_3 C37_3 1_555 1_555
H30_3 C38_3 1_555 1_555
C42_3 C38_3 1_555 1_555
C43_3 C39_3 1_555 1_555
H31_3 C39_3 1_555 1_555
O12_2 C40_3 1_555 1_555
O15_3 C42_3 1_555 1_555
O16_3 C42_3 1_555 1_555
O17_2 C43_3 1_555 1_555
O18_2 C43_3 1_555 1_555
Cu4_2 O12_2 1_555 1_555
O19_3 C44_3 1_555 1_555
O20_3 Cu27 1_555 1_555
C44_3 N2_3 1_555 1_555
N2_3 C45_3 1_555 1_555
H32_3 C44_3 1_555 1_555
C45_3 H33_3 1_555 1_555
C46_3 N2_3 1_555 1_555
H34_3 C45_3 1_555 1_555
H35_4 C45_3 1_555 1_555
H36_3 C46_3 1_555 1_555
H37_3 C46_3 1_555 1_555
H38_3 C46_3 1_555 1_555
C48_3 C19_3 1_555 1_555
C51_3 C25_3 1_555 1_555
H40_3 C48_3 1_555 1_555
C52_3 C48_3 1_555 1_555
C56_3 C51_3 1_555 1_555
C57_3 C51_3 1_555 1_555
C58_3 C52_3 1_555 1_555
H44_3 C56_3 1_555 1_555
C61_3 C56_3 1_555 1_555
H45_3 C57_3 1_555 1_555
H46_3 C58_3 1_555 1_555
C62_3 C58_3 1_555 1_555
H49_3 C61_3 1_555 1_555
C65_3 C61_3 1_555 1_555
H50_3 C62_3 1_555 1_555
C66_3 C62_3 1_555 1_555
O44 C65_3 1_555 1_555
O40 C65_3 1_555 1_555
O27_2 C66_3 1_555 1_555
O28_2 C66_3 1_555 1_555
Cu28 O15_3 1_555 1_555
Cu27 O16_3 1_555 1_555
Cu13_2 O17_2 1_555 1_555
Cu14_2 O18_2 1_555 1_555
Cu17_2 O27_2 1_555 1_555
Cu18_2 O28_2 1_555 1_555
O49_2 Cu28 1_555 1_555
O51_2 Cu28 1_555 1_555
O8_3 C4_3 1_555 1_555
O9_3 C2_3 1_555 1_555
O10_3 C3_3 1_555 1_555
C27_3 C31_3 1_555 1_555
C29_3 C34_3 1_555 1_555
O19_3 Cu28 1_555 1_555
C52_3 C57_3 1_555 1_555
Cu13_2 Cu14_2 1_555 1_555
Cu17_2 Cu18_2 1_555 1_555
O2_3 H117_3 1_555 1_555
O2_3 H118_3 1_555 1_555
H47_3 C59_3 1_555 1_555
C63_3 C59_3 1_555 1_555
O21_3 C63_3 1_555 1_555
O22_3 C63_3 1_555 1_555
Cu18_2 O21_3 1_555 1_555
Cu17_2 O22_3 1_555 1_555
O29_3 Cu18_2 1_555 1_555
O30_3 Cu18_2 1_555 1_555
O31_3 Cu18_2 1_555 1_555
O33_3 Cu17_2 1_555 1_555
O34_3 Cu17_2 1_555 1_555
O35_3 Cu17_2 1_555 1_555
O48_2 Cu10_2 1_555 1_555
C67_3 O30_3 1_555 1_555
C68_3 O31_3 1_555 1_555
C69_3 O33_3 1_555 1_555
C75_3 C67_3 1_555 1_555
C76_3 C68_3 1_555 1_555
H51_3 C69_3 1_555 1_555
N3_3 C69_3 1_555 1_555
C80_3 C74_3 1_555 1_555
C81_3 C75_3 1_555 1_555
H53_3 C75_3 1_555 1_555
H54_3 C76_3 1_555 1_555
C82_3 C76_3 1_555 1_555
C83_3 N3_3 1_555 1_555
C84_3 N3_3 1_555 1_555
H58_3 C80_3 1_555 1_555
C90_3 C80_3 1_555 1_555
H59_3 C81_3 1_555 1_555
C91_3 C81_3 1_555 1_555
H60_3 C82_3 1_555 1_555
C92_3 C82_3 1_555 1_555
H61_3 C83_3 1_555 1_555
H62_3 C83_3 1_555 1_555
H63_3 C83_3 1_555 1_555
H64_3 C84_3 1_555 1_555
H65_3 C84_3 1_555 1_555
H66_3 C84_3 1_555 1_555
H76_3 C90_3 1_555 1_555
C96_3 C90_3 1_555 1_555
C97_3 C91_3 1_555 1_555
C98_3 C91_3 1_555 1_555
C99_3 C92_3 1_555 1_555
C100_3 C92_3 1_555 1_555
C106_3 C96_3 1_555 1_555
H77_3 C97_3 1_555 1_555
C107_3 C98_3 1_555 1_555
H78_3 C98_3 1_555 1_555
C108_3 C99_3 1_555 1_555
H79_3 C99_3 1_555 1_555
C109_3 C100_3 1_555 1_555
H80_3 C100_3 1_555 1_555
H86_3 C106_3 1_555 1_555
C113_3 C107_3 1_555 1_555
C114_3 C108_3 1_555 1_555
C115_3 C108_3 1_555 1_555
C116_3 C109_3 1_555 1_555
C121_3 C113_3 1_555 1_555
C122_3 C114_3 1_555 1_555
H88_3 C114_3 1_555 1_555
H89_3 C115_3 1_555 1_555
H90_3 C116_3 1_555 1_555
C123_3 C116_3 1_555 1_555
H95_3 C121_3 1_555 1_555
H96_3 C122_3 1_555 1_555
C128_3 C122_3 1_555 1_555
C129_3 C123_3 1_555 1_555
H97_3 C123_3 1_555 1_555
O57_3 C128_3 1_555 1_555
O58_3 C128_3 1_555 1_555
O80 C129_3 1_555 1_555
O77 C129_3 1_555 1_555
Cu14_2 O57_3 1_555 1_555
Cu13_2 O58_3 1_555 1_555
O67_3 Cu14_2 1_555 1_555
O68_2 Cu14_2 1_555 1_555
O70_2 Cu14_2 1_555 1_555
O71_3 Cu13_2 1_555 1_555
C133_3 O67_3 1_555 1_555
N5_3 C133_3 1_555 1_555
H101_3 C133_3 1_555 1_555
C135_3 N5_3 1_555 1_555
C136_3 N5_3 1_555 1_555
H103_3 C135_3 1_555 1_555
H104_3 C135_3 1_555 1_555
H105_4 C135_3 1_555 1_555
H106_3 C136_3 1_555 1_555
H107_3 C136_3 1_555 1_555
H108_3 C136_3 1_555 1_555
O34_3 C67_3 1_555 1_555
O35_3 C68_3 1_555 1_555
O48_2 C74_3 1_555 1_555
C96_3 C97_3 1_555 1_555
C106_3 C107_3 1_555 1_555
C109_3 C115_3 1_555 1_555
O29_3 H121_3 1_555 1_555
O29_3 H122_3 1_555 1_555
H69_4 C87_4 1_555 1_555
H70_4 C87_4 1_555 1_555
H71_4 C87_4 1_555 1_555
O51_2 C127_4 1_555 1_555
Cu19_2 O65_2 1_555 1_555
O71_4 Cu9_2 1_555 1_555
O72_2 Cu9_2 1_555 1_555
O71_4 H123_4 1_555 1_555
O71_4 H124_4 1_555 1_555
H10_4 C15_4 1_555 1_555
H11_4 C15_4 1_555 1_555
H12_4 C15_4 1_555 1_555
O79_4 Cu3_2 1_555 1_555
O80_2 Cu3_2 1_555 1_555
O78_2 C73_4 1_555 1_555
O79_4 H125_4 1_555 1_555
O79_4 H126_4 1_555 1_555
O70_2 C41_4 1_555 1_555
O20_4 Cu19_2 1_555 1_555
H61_4 C83_4 1_555 1_555
H62_4 C83_4 1_555 1_555
H63_4 C83_4 1_555 1_555
O20_4 H119_4 1_555 1_555
O20_4 H120_4 1_555 1_555
Cu1_4 O1_4 1_555 1_555
O1_4 C1_4 1_555 1_555
Cu2_4 Cu1_4 1_555 1_555
O2_4 Cu1_4 1_555 1_555
O3_4 Cu1_4 1_555 1_555
O4_4 Cu1_4 1_555 1_555
O5_4 Cu1_4 1_555 1_555
C1_4 O7_4 1_555 1_555
O6_4 Cu2_4 1_555 1_555
O7_4 Cu2_4 1_555 1_555
O8_4 Cu2_4 1_555 1_555
O9_4 Cu2_4 1_555 1_555
O10_4 Cu2_4 1_555 1_555
C2_4 O3_4 1_555 1_555
C3_4 O4_4 1_555 1_555
C4_4 O5_4 1_555 1_555
C5_4 C1_4 1_555 1_555
C6_4 O6_4 1_555 1_555
C7_4 C2_4 1_555 1_555
C8_4 C3_4 1_555 1_555
C9_4 C4_4 1_555 1_555
H1_4 C5_4 1_555 1_555
C10_4 C5_4 1_555 1_555
H2_4 C6_4 1_555 1_555
N1_4 C6_4 1_555 1_555
C11_4 C7_4 1_555 1_555
H3_4 C7_4 1_555 1_555
H4_4 C8_4 1_555 1_555
C12_4 C8_4 1_555 1_555
C13_4 C9_4 1_555 1_555
H5_4 C9_4 1_555 1_555
H6_4 C10_4 1_555 1_555
C14_4 C10_4 1_555 1_555
C16_4 N1_4 1_555 1_555
H7_4 C11_4 1_555 1_555
C17_4 C11_4 1_555 1_555
H8_4 C12_4 1_555 1_555
C18_4 C12_4 1_555 1_555
H9_4 C13_4 1_555 1_555
C19_4 C13_4 1_555 1_555
C20_4 C14_4 1_555 1_555
H13_4 C16_4 1_555 1_555
H14_4 C16_4 1_555 1_555
H15_4 C16_4 1_555 1_555
C21_4 C17_4 1_555 1_555
C22_4 C17_4 1_555 1_555
C23_4 C18_4 1_555 1_555
C24_4 C18_4 1_555 1_555
C25_4 C19_4 1_555 1_555
H16_4 C20_4 1_555 1_555
H17_4 C21_4 1_555 1_555
C26_4 C21_4 1_555 1_555
C27_4 C22_4 1_555 1_555
H18_4 C22_4 1_555 1_555
C28_4 C23_4 1_555 1_555
H19_4 C23_4 1_555 1_555
C29_4 C24_4 1_555 1_555
H20_4 C24_4 1_555 1_555
C30_4 C26_4 1_555 1_555
C31_4 C26_4 1_555 1_555
C32_4 C27_4 1_555 1_555
C33_4 C28_4 1_555 1_555
C34_4 C28_4 1_555 1_555
C35_4 C29_4 1_555 1_555
C36_4 C30_4 1_555 1_555
H22_4 C30_4 1_555 1_555
H23_4 C31_4 1_555 1_555
C37_4 C32_4 1_555 1_555
H24_4 C32_4 1_555 1_555
C38_4 C33_4 1_555 1_555
H25_4 C33_4 1_555 1_555
H26_4 C34_4 1_555 1_555
H27_4 C35_4 1_555 1_555
C39_4 C35_4 1_555 1_555
H28_4 C36_4 1_555 1_555
C40_4 C36_4 1_555 1_555
H29_4 C37_4 1_555 1_555
H30_4 C38_4 1_555 1_555
C42_4 C38_4 1_555 1_555
C43_4 C39_4 1_555 1_555
H31_4 C39_4 1_555 1_555
O81_2 C40_4 1_555 1_555
O15_4 C42_4 1_555 1_555
O16_4 C42_4 1_555 1_555
O69_2 C43_4 1_555 1_555
H32_4 C44_4 1_555 1_555
H34_4 C45_4 1_555 1_555
H35_5 C45_4 1_555 1_555
C47_4 C14_4 1_555 1_555
C49_4 C20_4 1_555 1_555
C50_4 C47_4 1_555 1_555
H39_4 C47_4 1_555 1_555
C53_4 C49_4 1_555 1_555
C54_4 C49_4 1_555 1_555
C55_4 C50_4 1_555 1_555
C59_4 C53_4 1_555 1_555
H41_4 C53_4 1_555 1_555
H42_4 C54_4 1_555 1_555
C60_4 C55_4 1_555 1_555
H43_4 C55_4 1_555 1_555
H47_4 C59_4 1_555 1_555
C63_4 C59_4 1_555 1_555
H48_4 C60_4 1_555 1_555
C64_4 C60_4 1_555 1_555
O21_4 C63_4 1_555 1_555
O22_4 C63_4 1_555 1_555
O23_4 C64_4 1_555 1_555
O24_4 C64_4 1_555 1_555
Cu5_2 O21_4 1_555 1_555
Cu6_2 O22_4 1_555 1_555
Cu7_2 O23_4 1_555 1_555
Cu8_2 O24_4 1_555 1_555
Cu20_2 O15_4 1_555 1_555
O29_4 Cu5_2 1_555 1_555
O30_4 Cu5_2 1_555 1_555
O31_4 Cu5_2 1_555 1_555
O32_2 Cu5_2 1_555 1_555
O33_4 Cu6_2 1_555 1_555
O34_4 Cu6_2 1_555 1_555
O35_4 Cu6_2 1_555 1_555
O36_2 Cu6_2 1_555 1_555
O37_4 Cu7_2 1_555 1_555
O38_4 Cu7_2 1_555 1_555
O39_4 Cu7_2 1_555 1_555
O40_2 Cu7_2 1_555 1_555
O41_4 Cu8_2 1_555 1_555
O42_4 Cu8_2 1_555 1_555
O43_4 Cu8_2 1_555 1_555
O44_2 Cu8_2 1_555 1_555
C67_4 O30_4 1_555 1_555
C68_4 O31_4 1_555 1_555
C69_4 O33_4 1_555 1_555
C70_4 O38_4 1_555 1_555
C71_4 O39_4 1_555 1_555
C72_4 O41_4 1_555 1_555
C74_4 O73_2 1_555 1_555
C75_4 C67_4 1_555 1_555
C76_4 C68_4 1_555 1_555
H51_4 C69_4 1_555 1_555
N3_4 C69_4 1_555 1_555
C77_4 C70_4 1_555 1_555
C78_4 C71_4 1_555 1_555
H52_4 C72_4 1_555 1_555
N4_4 C72_4 1_555 1_555
C80_4 C74_4 1_555 1_555
C81_4 C75_4 1_555 1_555
H53_4 C75_4 1_555 1_555
H54_4 C76_4 1_555 1_555
C82_4 C76_4 1_555 1_555
C84_4 N3_4 1_555 1_555
C85_4 C77_4 1_555 1_555
H55_4 C77_4 1_555 1_555
H56_4 C78_4 1_555 1_555
C86_4 C78_4 1_555 1_555
C88_4 N4_4 1_555 1_555
H57_4 C79_4 1_555 1_555
C89_4 C79_4 1_555 1_555
H58_4 C80_4 1_555 1_555
C90_4 C80_4 1_555 1_555
H59_4 C81_4 1_555 1_555
C91_4 C81_4 1_555 1_555
H60_4 C82_4 1_555 1_555
C92_4 C82_4 1_555 1_555
H64_4 C84_4 1_555 1_555
H65_4 C84_4 1_555 1_555
H66_4 C84_4 1_555 1_555
H67_4 C85_4 1_555 1_555
C93_4 C85_4 1_555 1_555
H68_4 C86_4 1_555 1_555
C94_4 C86_4 1_555 1_555
H72_4 C88_4 1_555 1_555
H73_4 C88_4 1_555 1_555
H74_4 C88_4 1_555 1_555
H75_4 C89_4 1_555 1_555
C95_4 C89_4 1_555 1_555
H76_4 C90_4 1_555 1_555
C96_4 C90_4 1_555 1_555
C97_4 C91_4 1_555 1_555
C98_4 C91_4 1_555 1_555
C99_4 C92_4 1_555 1_555
C100_4 C92_4 1_555 1_555
C101_4 C93_4 1_555 1_555
C102_4 C93_4 1_555 1_555
C103_4 C94_4 1_555 1_555
C104_4 C94_4 1_555 1_555
C105_4 C95_4 1_555 1_555
C106_4 C96_4 1_555 1_555
H77_4 C97_4 1_555 1_555
C107_4 C98_4 1_555 1_555
H78_4 C98_4 1_555 1_555
C108_4 C99_4 1_555 1_555
H79_4 C99_4 1_555 1_555
C109_4 C100_4 1_555 1_555
H80_4 C100_4 1_555 1_555
H81_4 C101_4 1_555 1_555
C110_4 C101_4 1_555 1_555
H82_4 C102_4 1_555 1_555
C111_4 C103_4 1_555 1_555
H83_4 C103_4 1_555 1_555
C112_4 C104_4 1_555 1_555
H84_4 C104_4 1_555 1_555
H85_4 C105_4 1_555 1_555
H86_4 C106_4 1_555 1_555
C113_4 C107_4 1_555 1_555
C114_4 C108_4 1_555 1_555
C115_4 C108_4 1_555 1_555
C116_4 C109_4 1_555 1_555
C117_4 C110_4 1_555 1_555
C118_4 C111_4 1_555 1_555
C119_4 C111_4 1_555 1_555
C120_4 C112_4 1_555 1_555
C121_4 C113_4 1_555 1_555
H87_4 C113_4 1_555 1_555
C122_4 C114_4 1_555 1_555
H88_4 C114_4 1_555 1_555
H89_4 C115_4 1_555 1_555
H90_4 C116_4 1_555 1_555
C123_4 C116_4 1_555 1_555
C124_4 C117_4 1_555 1_555
H91_4 C117_4 1_555 1_555
C125_4 C118_4 1_555 1_555
H92_4 C118_4 1_555 1_555
H93_4 C119_4 1_555 1_555
H94_4 C120_4 1_555 1_555
C126_4 C120_4 1_555 1_555
H95_4 C121_4 1_555 1_555
H96_4 C122_4 1_555 1_555
C128_4 C122_4 1_555 1_555
C129_4 C123_4 1_555 1_555
H97_4 C123_4 1_555 1_555
H98_4 C124_4 1_555 1_555
C130_4 C124_4 1_555 1_555
H99_4 C125_4 1_555 1_555
C131_4 C125_4 1_555 1_555
C132_4 C126_4 1_555 1_555
H100_4 C126_4 1_555 1_555
O57_4 C128_4 1_555 1_555
O58_4 C128_4 1_555 1_555
O77_2 C129_4 1_555 1_555
O53_2 C130_4 1_555 1_555
O63_4 C131_4 1_555 1_555
O64_4 C131_4 1_555 1_555
O66_2 C132_4 1_555 1_555
Cu10_2 O57_4 1_555 1_555
Cu4_2 O63_4 1_555 1_555
H101_4 C133_4 1_555 1_555
H102_4 C134_4 1_555 1_555
H104_4 C135_4 1_555 1_555
H105_5 C135_4 1_555 1_555
H110_4 C137_4 1_555 1_555
H111_5 C137_4 1_555 1_555
O8_4 C4_4 1_555 1_555
O9_4 C2_4 1_555 1_555
O10_4 C3_4 1_555 1_555
C27_4 C31_4 1_555 1_555
C29_4 C34_4 1_555 1_555
C50_4 C54_4 1_555 1_555
Cu5_2 Cu6_2 1_555 1_555
Cu7_2 Cu8_2 1_555 1_555
O34_4 C67_4 1_555 1_555
O35_4 C68_4 1_555 1_555
O42_4 C70_4 1_555 1_555
O43_4 C71_4 1_555 1_555
C95_4 C102_4 1_555 1_555
C96_4 C97_4 1_555 1_555
C105_4 C110_4 1_555 1_555
C106_4 C107_4 1_555 1_555
C109_4 C115_4 1_555 1_555
C112_4 C119_4 1_555 1_555
O37_4 H115_4 1_555 1_555
O37_4 H116_4 1_555 1_555
O2_4 H117_4 1_555 1_555
O2_4 H118_4 1_555 1_555
O29_4 H121_4 1_555 1_555
O29_4 H122_4 1_555 1_555
C52_4 C48_4 1_555 1_555
C58_4 C52_4 1_555 1_555
H46_4 C58_4 1_555 1_555
C62_4 C58_4 1_555 1_555
H50_4 C62_4 1_555 1_555
C66_4 C62_4 1_555 1_555
O36_2 C66_4 1_555 1_555
O32_2 C66_4 1_555 1_555
C56_4 C51_4 1_555 1_555
C57_4 C51_4 1_555 1_555
H44_4 C56_4 1_555 1_555
C61_4 C56_4 1_555 1_555
H49_4 C61_4 1_555 1_555
C65_4 C61_4 1_555 1_555
O44_2 C65_4 1_555 1_555
O40_2 C65_4 1_555 1_555
C138_4 N6_4 1_555 1_555
H112_4 C138_4 1_555 1_555
H113_4 C138_4 1_555 1_555
H114_4 C138_4 1_555 1_555
C136_4 N5_4 1_555 1_555
H106_4 C136_4 1_555 1_555
H107_4 C136_4 1_555 1_555
H108_4 C136_4 1_555 1_555
C46_4 N2_4 1_555 1_555
H36_4 C46_4 1_555 1_555
H37_4 C46_4 1_555 1_555
H38_4 C46_4 1_555 1_555

#END
