
###############################################################################
#
# This file contains modified crystal structure data generated from the
# MOF subset of the Cambridge Structural Database (CSD) v543 
# hosted by the Cambridge Crystallographic Data Centre (CCDC).
#
# This work is licensed under the Creative Commons
# Attribution-NonCommercial-ShareAlike 4.0 International License.
# To view a copy of this license, visit
# http://creativecommons.org/licenses/by-nc-sa/4.0/
# or send a letter to
# Creative Commons, PO Box 1866, Mountain View, CA 94042, USA.
#
# CIF created using the CSD Python API on 29 September 2022
# The structure has been converted into the P1 space group
# The structure has a 3D framework
# The original CSD entry AYOXUJ is in the monoclinic crystal system
# The framework has been calculated to contain at least 10.0% void space
# The void calculation uses a probe of radius 1.32A, grid spacing 0.4
#
###############################################################################

data_AYOXUJ
_chemical_formula_moiety         '(C144 H160 Co8 N16 O48)n'
_symmetry_cell_setting           triclinic
_symmetry_space_group_name_H-M   'P 1'
_symmetry_Int_Tables_number      1
_space_group_name_Hall           'P 1'
loop_
_symmetry_equiv_pos_site_id
_symmetry_equiv_pos_as_xyz
1 x,y,z
_cell_length_a                   35.522(5)
_cell_length_b                   13.846(5)
_cell_length_c                   9.548(5)
_cell_angle_alpha                90
_cell_angle_beta                 103.200(5)
_cell_angle_gamma                90
_cell_volume                     4571.99
loop_
_atom_site_label
_atom_site_type_symbol
_atom_site_fract_x
_atom_site_fract_y
_atom_site_fract_z
Co1 Co 0.36450(2) 0.20681(3) 0.17226(4)
O1 O 0.39965(7) 0.19920(18) 0.3875(3)
H1 H 0.3964 0.2444 0.4558
H2 H 0.4181 0.1507 0.4123
O2 O 0.14611(8) 0.55841(19) 0.0667(3)
O3 O 0.39081(7) 0.07669(17) 0.1209(3)
H3 H 0.3795 0.0173 0.1311
H4 H 0.4135 0.0795 0.0884
O4 O 0.33546(6) 0.32691(18) 0.2192(2)
O5 O 0.17877(7) 0.62203(18) 0.2740(2)
O6 O 0.36667(9) 0.3632(2) 0.4424(3)
N2 N 0.40821(8) 0.2960(2) 0.1158(3)
C2 C 0.27655(9) 0.4523(2) 0.2441(4)
H6 H 0.2755 0.4191 0.1586
C3 C 0.21047(10) 0.5110(2) 0.1545(4)
H7 H 0.2091 0.4745 0.0717
C4 C 0.24287(10) 0.5091(2) 0.2533(4)
H8 H 0.2444 0.5468 0.3351
H9 H 0.2843 0.2569 0.0019
C7 C 0.17605(9) 0.5672(2) 0.1662(3)
C8 C 0.33943(9) 0.3734(2) 0.3348(4)
C11 C 0.30841(11) 0.4434(3) 0.3453(4)
H12 H 0.3117 0.4824 0.4266
C13 C 0.44330(11) 0.2644(4) 0.1160(6)
H15 H 0.4501 0.2021 0.1488
C14 C 0.39998(12) 0.3860(3) 0.0720(5)
H16 H 0.3759 0.4110 0.0745
C15 C 0.42585(16) 0.4439(4) 0.0228(8)
C16 C 0.47032(15) 0.3197(5) 0.0698(9)
H18 H 0.4952 0.2960 0.0776
C17 C 0.46092(16) 0.4086(5) 0.0132(8)
H29 H 0.5807 0.4926 0.0039
C30 C 0.5102(2) 0.5324(6) 0.0574(8)
H31 H 0.4921 0.5752 0.0886
H32 H 0.5241 0.4956 0.1395
Co3 Co 0.13550(2) 0.70681(3) 0.32774(4)
N5 N 0.66772(7) 0.78400(18) 0.0449(3)
O13 O 0.32123(7) 0.12203(18) 0.2260(2)
N1 N 0.83228(7) 0.71600(18) 0.9551(3)
C1 C 0.77383(9) 0.7557(2) 0.7880(3)
H5 H 0.7482 0.7754 0.7723
C5 C 0.79576(8) 0.7442(2) 0.9255(3)
C6 C 0.79070(10) 0.7373(3) 0.6727(3)
C9 C 0.82857(11) 0.7077(3) 0.7037(4)
H10 H 0.8408 0.6939 0.6296
C10 C 0.84834(10) 0.6986(3) 0.8440(4)
H11 H 0.8741 0.6794 0.8629
C12 C 0.76873(13) 0.7458(7) 0.5196(4)
H13 H 0.7794 0.8013 0.4799
H14 H 0.7755 0.6896 0.4700
C18 C 0.9898(2) 0.9676(6) 0.9426(8)
C19 C 0.72617(9) 0.7443(2) 0.2120(3)
H21 H 0.7518 0.7246 0.2277
C20 C 0.70424(8) 0.7558(2) 0.0745(3)
C21 C 0.70930(10) 0.7627(3) 0.3273(3)
C22 C 0.67143(11) 0.7923(3) 0.2963(4)
H23 H 0.6592 0.8061 0.3704
C23 C 0.65166(10) 0.8014(3) 0.1560(4)
H24 H 0.6259 0.8206 0.1371
C24 C 0.73127(13) 0.7542(7) 0.4804(4)
H25 H 0.7206 0.6987 0.5201
H26 H 0.7245 0.8104 0.5300
O2_2 O 0.35389(8) 0.05841(19) 0.4333(3)
C3_2 C 0.28953(10) 0.0110(2) 0.3455(4)
C4_2 C 0.25713(10) 0.0091(2) 0.2467(4)
H8_2 H 0.2556 0.0468 0.1649
C7_2 C 0.32395(9) 0.0672(2) 0.3338(3)
H17 H 0.0807 0.0074 0.5039
H20 H 0.0241 0.0044 0.6395
H31_2 H 0.0079 0.0752 0.4114
O1_2 O 0.10035(7) 0.69920(18) 0.1125(3)
H1_2 H 0.1036 0.7444 0.0442
H2_2 H 0.0819 0.6507 0.0877
N1_2 N 0.16772(7) 0.71600(18) 0.5449(3)
O3_2 O 0.10919(7) 0.57669(17) 0.3791(3)
H3_2 H 0.1205 0.5173 0.3689
H4_2 H 0.0865 0.5795 0.4116
O4_2 O 0.16454(6) 0.82691(18) 0.2808(2)
O6_2 O 0.13333(9) 0.8632(2) 0.0576(3)
N2_2 N 0.09179(8) 0.7960(2) 0.3842(3)
C1_2 C 0.22617(9) 0.7557(2) 0.7120(3)
H5_2 H 0.2518 0.7754 0.7277
C2_2 C 0.22345(9) 0.9523(2) 0.2559(4)
H6_2 H 0.2245 0.9191 0.3414
H7_2 H 0.2909 0.9745 0.4283
C5_2 C 0.20424(8) 0.7442(2) 0.5745(3)
H9_2 H 0.2157 0.7569 0.4981
C6_2 C 0.20930(10) 0.7373(3) 0.8273(3)
C8_2 C 0.16057(9) 0.8734(2) 0.1652(4)
C9_2 C 0.17143(11) 0.7077(3) 0.7963(4)
H10_2 H 0.1592 0.6939 0.8704
C10_2 C 0.15166(10) 0.6986(3) 0.6560(4)
H11_2 H 0.1259 0.6794 0.6371
C11_2 C 0.19159(11) 0.9434(3) 0.1547(4)
H12_2 H 0.1883 0.9824 0.0734
C12_2 C 0.23127(13) 0.7458(7) 0.9804(4)
C13_2 C 0.05670(11) 0.7644(4) 0.3840(6)
H15_2 H 0.0499 0.7021 0.3512
C14_2 C 0.10002(12) 0.8860(3) 0.4280(5)
H16_2 H 0.1241 0.9110 0.4255
C15_2 C 0.07415(16) 0.9439(4) 0.4772(8)
C16_2 C 0.02968(15) 0.8197(5) 0.4302(9)
H18_2 H 0.0048 0.7960 0.4224
C17_2 C 0.03908(16) 0.9086(5) 0.4868(8)
C18_2 C 0.0102(2) 0.9676(6) 0.5574(8)
H25_2 H 0.2794 0.6987 0.9799
H26_2 H 0.2755 0.8104 0.9700
N1_3 N 0.33228(7) 0.21600(18) 0.9551(3)
C1_3 C 0.27383(9) 0.2557(2) 0.7880(3)
H5_3 H 0.2482 0.2754 0.7723
C5_3 C 0.29576(8) 0.2442(2) 0.9255(3)
C6_3 C 0.29070(10) 0.2373(3) 0.6727(3)
C9_3 C 0.32857(11) 0.2077(3) 0.7037(4)
H10_3 H 0.3408 0.1939 0.6296
C10_3 C 0.34834(10) 0.1986(3) 0.8440(4)
H11_3 H 0.3741 0.1794 0.8629
C12_3 C 0.26873(13) 0.2458(7) 0.5196(4)
H13_2 H 0.2794 0.3013 0.4799
H14_2 H 0.2755 0.1896 0.4700
H17_2 H 0.4193 0.5074 0.9961
C18_3 C 0.4898(2) 0.4676(6) 0.9426(8)
H19 H 0.5079 0.4248 0.9114
H20_2 H 0.4759 0.5044 0.8605
N3 N 0.16772(7) 0.28400(18) 0.0449(3)
C19_2 C 0.22617(9) 0.2443(2) 0.2120(3)
H21_2 H 0.2518 0.2246 0.2277
C20_2 C 0.20424(8) 0.2558(2) 0.0745(3)
C21_2 C 0.20930(10) 0.2627(3) 0.3273(3)
C22_2 C 0.17143(11) 0.2923(3) 0.2963(4)
H23_2 H 0.1592 0.3061 0.3704
C23_2 C 0.15166(10) 0.3014(3) 0.1560(4)
H24_2 H 0.1259 0.3206 0.1371
C24_2 C 0.23127(13) 0.2542(7) 0.4804(4)
H25_3 H 0.2206 0.1987 0.5201
H26_3 H 0.2245 0.3104 0.5300
N4 N 0.59179(8) 0.7040(2) 0.8842(3)
C25 C 0.55670(11) 0.7356(4) 0.8840(6)
H27 H 0.5499 0.7979 0.8512
C26 C 0.60002(12) 0.6140(3) 0.9280(5)
H28 H 0.6241 0.5890 0.9255
C27 C 0.57415(16) 0.5561(4) 0.9772(8)
C28 C 0.52968(15) 0.6803(5) 0.9302(9)
H30 H 0.5048 0.7040 0.9224
C29 C 0.53908(16) 0.5914(5) 0.9868(8)
Co2 Co 0.63550(2) 0.79319(3) 0.82774(4)
O7 O 0.60035(7) 0.80080(18) 0.6125(3)
H33 H 0.6036 0.7556 0.5442
H34 H 0.5819 0.8493 0.5877
O8 O 0.85389(8) 0.44159(19) 0.9333(3)
O9 O 0.60919(7) 0.92331(17) 0.8791(3)
H35 H 0.6205 0.9827 0.8689
H36 H 0.5865 0.9205 0.9116
O10 O 0.66454(6) 0.67309(18) 0.7808(2)
O11 O 0.82123(7) 0.37797(18) 0.7260(2)
O12 O 0.63333(9) 0.6368(2) 0.5576(3)
C31 C 0.72345(9) 0.5477(2) 0.7559(4)
H37 H 0.7245 0.5809 0.8414
C32 C 0.78953(10) 0.4890(2) 0.8455(4)
H38 H 0.7909 0.5255 0.9283
C33 C 0.75713(10) 0.4909(2) 0.7467(4)
H39 H 0.7556 0.4532 0.6649
C34 C 0.82395(9) 0.4328(2) 0.8338(3)
C35 C 0.66057(9) 0.6266(2) 0.6652(4)
C36 C 0.69159(11) 0.5566(3) 0.6547(4)
H40 H 0.6883 0.5176 0.5734
Co5 Co 0.86450(2) 0.29319(3) 0.67226(4)
O14 O 0.67877(7) 0.87797(18) 0.7740(2)
H13_3 H 0.7206 0.3013 0.0201
H14_3 H 0.7245 0.1896 0.0300
N3_2 N 0.83228(7) 0.28400(18) 0.4551(3)
C19_3 C 0.77383(9) 0.2443(2) 0.2880(3)
H21_3 H 0.7482 0.2246 0.2723
C20_3 C 0.79576(8) 0.2558(2) 0.4255(3)
H22 H 0.7843 0.2431 0.5019
C21_3 C 0.79070(10) 0.2627(3) 0.1727(3)
C22_3 C 0.82857(11) 0.2923(3) 0.2037(4)
H23_3 H 0.8408 0.3061 0.1296
C23_3 C 0.84834(10) 0.3014(3) 0.3440(4)
H24_3 H 0.8741 0.3206 0.3629
C24_3 C 0.76873(13) 0.2542(7) 0.0196(4)
C30_2 C 0.0102(2) 0.0324(6) 0.0574(8)
H22_2 H 0.7157 0.7431 0.9981
N4_2 N 0.90821(8) 0.2040(2) 0.6158(3)
C25_2 C 0.94330(11) 0.2356(4) 0.6160(6)
H27_2 H 0.9501 0.2979 0.6488
C26_2 C 0.89998(12) 0.1140(3) 0.5720(5)
H28_2 H 0.8759 0.0890 0.5745
C27_2 C 0.92585(16) 0.0561(4) 0.5228(8)
C28_2 C 0.97032(15) 0.1803(5) 0.5698(9)
H30_2 H 0.9952 0.2040 0.5776
C29_2 C 0.96092(16) 0.0914(5) 0.5132(8)
C30_3 C 0.9898(2) 0.0324(6) 0.4426(8)
O7_2 O 0.89965(7) 0.30080(18) 0.8875(3)
H33_2 H 0.8964 0.2556 0.9558
H34_2 H 0.9181 0.3493 0.9123
O9_2 O 0.89081(7) 0.42331(17) 0.6209(3)
H35_2 H 0.8795 0.4827 0.6311
H36_2 H 0.9135 0.4205 0.5884
O10_2 O 0.83546(6) 0.17309(18) 0.7192(2)
O12_2 O 0.86667(9) 0.1368(2) 0.9424(3)
C31_2 C 0.77655(9) 0.0477(2) 0.7441(4)
H37_2 H 0.7755 0.0809 0.6586
H38_2 H 0.7091 0.0255 0.5717
C35_2 C 0.83943(9) 0.1266(2) 0.8348(4)
C36_2 C 0.80841(11) 0.0566(3) 0.8453(4)
H40_2 H 0.8117 0.0176 0.9266
H19_2 H 0.9921 0.9248 0.5886
H29_2 H 0.9193 0.9926 0.4961
H32_2 H 0.9759 0.9956 0.3605
O8_2 O 0.64611(8) 0.94159(19) 0.5667(3)
C32_2 C 0.71047(10) 0.9890(2) 0.6545(4)
C33_2 C 0.74287(10) 0.9909(2) 0.7533(4)
H39_2 H 0.7444 0.9532 0.8351
C34_2 C 0.67605(9) 0.9328(2) 0.6662(3)
H22_3 H 0.2157 0.2431 0.9981
Co4 Co 0.13550(2) 0.29319(3) 0.82774(4)
Co1_2 Co 0.63550(2) 0.20681(3) 0.32774(4)
O1_3 O 0.60035(7) 0.19920(18) 0.1125(3)
H1_3 H 0.6036 0.2444 0.0442
H2_3 H 0.5819 0.1507 0.0877
O2_3 O 0.85389(8) 0.55841(19) 0.4333(3)
N1_4 N 0.66772(7) 0.21600(18) 0.5449(3)
O3_3 O 0.60919(7) 0.07669(17) 0.3791(3)
H3_3 H 0.6205 0.0173 0.3689
H4_3 H 0.5865 0.0795 0.4116
O4_3 O 0.66454(6) 0.32691(18) 0.2808(2)
O5_2 O 0.82123(7) 0.62203(18) 0.2260(2)
O6_3 O 0.63333(9) 0.3632(2) 0.0576(3)
N2_3 N 0.59179(8) 0.2960(2) 0.3842(3)
C1_4 C 0.72617(9) 0.2557(2) 0.7120(3)
H5_4 H 0.7518 0.2754 0.7277
C2_3 C 0.72345(9) 0.4523(2) 0.2559(4)
H6_3 H 0.7245 0.4191 0.3414
C3_3 C 0.78953(10) 0.5110(2) 0.3455(4)
H7_3 H 0.7909 0.4745 0.4283
C4_3 C 0.75713(10) 0.5091(2) 0.2467(4)
H8_3 H 0.7556 0.5468 0.1649
C5_4 C 0.70424(8) 0.2442(2) 0.5745(3)
H9_3 H 0.7157 0.2569 0.4981
C6_4 C 0.70930(10) 0.2373(3) 0.8273(3)
C7_3 C 0.82395(9) 0.5672(2) 0.3338(3)
C8_3 C 0.66057(9) 0.3734(2) 0.1652(4)
C9_4 C 0.67143(11) 0.2077(3) 0.7963(4)
H10_4 H 0.6592 0.1939 0.8704
C10_4 C 0.65166(10) 0.1986(3) 0.6560(4)
H11_4 H 0.6259 0.1794 0.6371
C11_3 C 0.69159(11) 0.4434(3) 0.1547(4)
H12_3 H 0.6883 0.4824 0.0734
C12_4 C 0.73127(13) 0.2458(7) 0.9804(4)
C13_3 C 0.55670(11) 0.2644(4) 0.3840(6)
H15_3 H 0.5499 0.2021 0.3512
C14_3 C 0.60002(12) 0.3860(3) 0.4280(5)
H16_3 H 0.6241 0.4110 0.4255
C15_3 C 0.57415(16) 0.4439(4) 0.4772(8)
H17_3 H 0.5807 0.5074 0.5039
C16_3 C 0.52968(15) 0.3197(5) 0.4302(9)
H18_3 H 0.5048 0.2960 0.4224
C17_3 C 0.53908(16) 0.4086(5) 0.4868(8)
C18_4 C 0.5102(2) 0.4676(6) 0.5574(8)
H19_3 H 0.4921 0.4248 0.5886
H20_3 H 0.5241 0.5044 0.6395
H25_4 H 0.7794 0.1987 0.9799
H26_4 H 0.7755 0.3104 0.9700
N4_3 N 0.40821(8) 0.7040(2) 0.6158(3)
C25_3 C 0.44330(11) 0.7356(4) 0.6160(6)
H27_3 H 0.4501 0.7979 0.6488
C26_3 C 0.39998(12) 0.6140(3) 0.5720(5)
H28_3 H 0.3759 0.5890 0.5745
C27_3 C 0.42585(16) 0.5561(4) 0.5228(8)
H29_3 H 0.4193 0.4926 0.4961
C28_3 C 0.47032(15) 0.6803(5) 0.5698(9)
H30_3 H 0.4952 0.7040 0.5776
C29_3 C 0.46092(16) 0.5914(5) 0.5132(8)
C30_4 C 0.4898(2) 0.5324(6) 0.4426(8)
H31_3 H 0.5079 0.5752 0.4114
H32_3 H 0.4759 0.4956 0.3605
Co2_2 Co 0.36450(2) 0.79319(3) 0.67226(4)
O7_3 O 0.39965(7) 0.80080(18) 0.8875(3)
H33_3 H 0.3964 0.7556 0.9558
H34_3 H 0.4181 0.8493 0.9123
O8_3 O 0.14611(8) 0.44159(19) 0.5667(3)
O9_3 O 0.39081(7) 0.92331(17) 0.6209(3)
H35_3 H 0.3795 0.9827 0.6311
H36_3 H 0.4135 0.9205 0.5884
O10_3 O 0.33546(6) 0.67309(18) 0.7192(2)
O11_2 O 0.17877(7) 0.37797(18) 0.7740(2)
O12_3 O 0.36667(9) 0.6368(2) 0.9424(3)
C31_3 C 0.27655(9) 0.5477(2) 0.7441(4)
H37_3 H 0.2755 0.5809 0.6586
C32_3 C 0.21047(10) 0.4890(2) 0.6545(4)
H38_3 H 0.2091 0.5255 0.5717
C33_3 C 0.24287(10) 0.4909(2) 0.7533(4)
H39_3 H 0.2444 0.4532 0.8351
C34_3 C 0.17605(9) 0.4328(2) 0.6662(3)
C35_3 C 0.33943(9) 0.6266(2) 0.8348(4)
C36_3 C 0.30841(11) 0.5566(3) 0.8453(4)
H40_3 H 0.3117 0.5176 0.9266
Co3_2 Co 0.86450(2) 0.70681(3) 0.17226(4)
N5_2 N 0.33228(7) 0.78400(18) 0.4551(3)
O13_2 O 0.67877(7) 0.12203(18) 0.2740(2)
O14_2 O 0.32123(7) 0.87797(18) 0.7260(2)
N4_4 N 0.09179(8) 0.2040(2) 0.8842(3)
C25_4 C 0.05670(11) 0.2356(4) 0.8840(6)
H27_4 H 0.0499 0.2979 0.8512
C26_4 C 0.10002(12) 0.1140(3) 0.9280(5)
H28_4 H 0.1241 0.0890 0.9255
C27_4 C 0.07415(16) 0.0561(4) 0.9772(8)
C28_4 C 0.02968(15) 0.1803(5) 0.9302(9)
H30_4 H 0.0048 0.2040 0.9224
C29_4 C 0.03908(16) 0.0914(5) 0.9868(8)
O7_4 O 0.10035(7) 0.30080(18) 0.6125(3)
H33_4 H 0.1036 0.2556 0.5442
H34_4 H 0.0819 0.3493 0.5877
O9_4 O 0.10919(7) 0.42331(17) 0.8791(3)
H35_4 H 0.1205 0.4827 0.8689
H36_4 H 0.0865 0.4205 0.9116
O10_4 O 0.16454(6) 0.17309(18) 0.7808(2)
O12_4 O 0.13333(9) 0.1368(2) 0.5576(3)
C31_4 C 0.22345(9) 0.0477(2) 0.7559(4)
H37_4 H 0.2245 0.0809 0.8414
H38_4 H 0.2909 0.0255 0.9283
C35_4 C 0.16057(9) 0.1266(2) 0.6652(4)
C36_4 C 0.19159(11) 0.0566(3) 0.6547(4)
H40_4 H 0.1883 0.0176 0.5734
H19_4 H 0.0079 0.9248 0.9114
O8_4 O 0.35389(8) 0.94159(19) 0.9333(3)
C32_4 C 0.28953(10) 0.9890(2) 0.8455(4)
C33_4 C 0.25713(10) 0.9909(2) 0.7467(4)
H39_4 H 0.2556 0.9532 0.6649
C34_4 C 0.32395(9) 0.9328(2) 0.8338(3)
O2_4 O 0.64611(8) 0.05841(19) 0.0667(3)
C3_4 C 0.71047(10) 0.0110(2) 0.1545(4)
C4_4 C 0.74287(10) 0.0091(2) 0.2533(4)
H8_4 H 0.7444 0.0468 0.3351
C7_4 C 0.67605(9) 0.0672(2) 0.1662(3)
H31_4 H 0.9921 0.0752 0.0886
O1_4 O 0.89965(7) 0.69920(18) 0.3875(3)
H1_4 H 0.8964 0.7444 0.4558
H2_4 H 0.9181 0.6507 0.4123
O3_4 O 0.89081(7) 0.57669(17) 0.1209(3)
H3_4 H 0.8795 0.5173 0.1311
H4_4 H 0.9135 0.5795 0.0884
O4_4 O 0.83546(6) 0.82691(18) 0.2192(2)
O6_4 O 0.86667(9) 0.8632(2) 0.4424(3)
N2_4 N 0.90821(8) 0.7960(2) 0.1158(3)
C2_4 C 0.77655(9) 0.9523(2) 0.2441(4)
H6_4 H 0.7755 0.9191 0.1586
H7_4 H 0.7091 0.9745 0.0717
H9_4 H 0.7843 0.7569 0.0019
C8_4 C 0.83943(9) 0.8734(2) 0.3348(4)
C11_4 C 0.80841(11) 0.9434(3) 0.3453(4)
H12_4 H 0.8117 0.9824 0.4266
C13_4 C 0.94330(11) 0.7644(4) 0.1160(6)
H15_4 H 0.9501 0.7021 0.1488
C14_4 C 0.89998(12) 0.8860(3) 0.0720(5)
H16_4 H 0.8759 0.9110 0.0745
C15_4 C 0.92585(16) 0.9439(4) 0.0228(8)
C16_4 C 0.97032(15) 0.8197(5) 0.0698(9)
H18_4 H 0.9952 0.7960 0.0776
C17_4 C 0.96092(16) 0.9086(5) 0.0132(8)
H13_4 H 0.2206 0.8013 0.0201
H14_4 H 0.2245 0.6896 0.0300
C19_4 C 0.27383(9) 0.7443(2) 0.2880(3)
H21_4 H 0.2482 0.7246 0.2723
C20_4 C 0.29576(8) 0.7558(2) 0.4255(3)
H22_4 H 0.2843 0.7431 0.5019
C21_4 C 0.29070(10) 0.7627(3) 0.1727(3)
C22_4 C 0.32857(11) 0.7923(3) 0.2037(4)
H23_4 H 0.3408 0.8061 0.1296
C23_4 C 0.34834(10) 0.8014(3) 0.3440(4)
H24_4 H 0.3741 0.8206 0.3629
C24_4 C 0.26873(13) 0.7542(7) 0.0196(4)
H29_4 H 0.0807 0.9926 0.0039
H32_4 H 0.0241 0.9956 0.1395
H17_4 H 0.9193 0.0074 0.9961
H20_4 H 0.9759 0.0044 0.8605
loop_
_geom_bond_atom_site_label_1
_geom_bond_atom_site_label_2
_geom_bond_site_symmetry_1
_geom_bond_site_symmetry_2
Co1 O1 1_555 1_555
O1 H1 1_555 1_555
H2 O1 1_555 1_555
O2 C7 1_555 1_555
O3 Co1 1_555 1_555
H3 O3 1_555 1_555
H4 O3 1_555 1_555
O4 Co1 1_555 1_555
O5 C7 1_555 1_555
O6 C8 1_555 1_555
N2 Co1 1_555 1_555
C2 H6 1_555 1_555
C3 H7 1_555 1_555
C4 C2 1_555 1_555
H8 C4 1_555 1_555
C7 C3 1_555 1_555
C8 O4 1_555 1_555
C11 C2 1_555 1_555
H12 C11 1_555 1_555
C13 N2 1_555 1_555
H15 C13 1_555 1_555
C14 N2 1_555 1_555
H16 C14 1_555 1_555
C15 C14 1_555 1_555
C16 C13 1_555 1_555
H18 C16 1_555 1_555
C17 C15 1_555 1_555
H31 C30 1_555 1_555
H32 C30 1_555 1_555
Co3 O5 1_555 1_555
O13 Co1 1_555 1_555
C3 C4 1_555 1_555
C8 C11 1_555 1_555
C16 C17 1_555 1_555
C1 H5 1_555 1_555
C5 N1 1_555 1_555
C6 C1 1_555 1_555
C9 C6 1_555 1_555
H10 C9 1_555 1_555
C10 N1 1_555 1_555
H11 C10 1_555 1_555
C12 C6 1_555 1_555
H13 C12 1_555 1_555
H14 C12 1_555 1_555
N5 C20 1_555 1_555
C19 H21 1_555 1_555
C20 C19 1_555 1_555
C21 C19 1_555 1_555
C22 C21 1_555 1_555
H23 C22 1_555 1_555
C23 N5 1_555 1_555
H24 C23 1_555 1_555
C24 C12 1_555 1_555
H25 C24 1_555 1_555
H26 C24 1_555 1_555
C1 C5 1_555 1_555
C9 C10 1_555 1_555
C21 C24 1_555 1_555
C22 C23 1_555 1_555
O2_2 C7_2 1_555 1_555
O13 C7_2 1_555 1_555
H8_2 C4_2 1_555 1_555
C7_2 C3_2 1_555 1_555
C3_2 C4_2 1_555 1_555
Co3 O1_2 1_555 1_555
O1_2 H1_2 1_555 1_555
H2_2 O1_2 1_555 1_555
N1_2 Co3 1_555 1_555
O3_2 Co3 1_555 1_555
H3_2 O3_2 1_555 1_555
H4_2 O3_2 1_555 1_555
O4_2 Co3 1_555 1_555
O6_2 C8_2 1_555 1_555
N2_2 Co3 1_555 1_555
C1_2 H5_2 1_555 1_555
C2_2 H6_2 1_555 1_555
C5_2 N1_2 1_555 1_555
H9_2 C5_2 1_555 1_555
C6_2 C1_2 1_555 1_555
C8_2 O4_2 1_555 1_555
C9_2 C6_2 1_555 1_555
H10_2 C9_2 1_555 1_555
C10_2 N1_2 1_555 1_555
H11_2 C10_2 1_555 1_555
C11_2 C2_2 1_555 1_555
H12_2 C11_2 1_555 1_555
C12_2 C6_2 1_555 1_555
C13_2 N2_2 1_555 1_555
H15_2 C13_2 1_555 1_555
C14_2 N2_2 1_555 1_555
H16_2 C14_2 1_555 1_555
C15_2 C14_2 1_555 1_555
C16_2 C13_2 1_555 1_555
H18_2 C16_2 1_555 1_555
C17_2 C15_2 1_555 1_555
C18_2 C17_2 1_555 1_555
C1_2 C5_2 1_555 1_555
C8_2 C11_2 1_555 1_555
C9_2 C10_2 1_555 1_555
C16_2 C17_2 1_555 1_555
C1_3 H5_3 1_555 1_555
C5_3 N1_3 1_555 1_555
C6_3 C1_3 1_555 1_555
C9_3 C6_3 1_555 1_555
H10_3 C9_3 1_555 1_555
C10_3 N1_3 1_555 1_555
H11_3 C10_3 1_555 1_555
C12_3 C6_3 1_555 1_555
H13_2 C12_3 1_555 1_555
H14_2 C12_3 1_555 1_555
H19 C18_3 1_555 1_555
H20_2 C18_3 1_555 1_555
N3 C20_2 1_555 1_555
C19_2 H21_2 1_555 1_555
C20_2 C19_2 1_555 1_555
C21_2 C19_2 1_555 1_555
C22_2 C21_2 1_555 1_555
H23_2 C22_2 1_555 1_555
C23_2 N3 1_555 1_555
H24_2 C23_2 1_555 1_555
C24_2 C12_3 1_555 1_555
H25_3 C24_2 1_555 1_555
H26_3 C24_2 1_555 1_555
N4 C25 1_555 1_555
C25 H27 1_555 1_555
C26 N4 1_555 1_555
H28 C26 1_555 1_555
C27 C26 1_555 1_555
C28 C25 1_555 1_555
H30 C28 1_555 1_555
C29 C27 1_555 1_555
Co2 N4 1_555 1_555
O7 Co2 1_555 1_555
H33 O7 1_555 1_555
H34 O7 1_555 1_555
O8 C34 1_555 1_555
O9 Co2 1_555 1_555
H35 O9 1_555 1_555
H36 O9 1_555 1_555
O10 Co2 1_555 1_555
O11 C34 1_555 1_555
O12 C35 1_555 1_555
C31 H37 1_555 1_555
C32 H38 1_555 1_555
C33 C31 1_555 1_555
H39 C33 1_555 1_555
C34 C32 1_555 1_555
C35 O10 1_555 1_555
C36 C31 1_555 1_555
H40 C36 1_555 1_555
Co5 O11 1_555 1_555
O14 Co2 1_555 1_555
C1_3 C5_3 1_555 1_555
C9_3 C10_3 1_555 1_555
C21_2 C24_2 1_555 1_555
C22_2 C23_2 1_555 1_555
C28 C29 1_555 1_555
C32 C33 1_555 1_555
C35 C36 1_555 1_555
N3_2 C20_3 1_555 1_555
C19_3 H21_3 1_555 1_555
C20_3 C19_3 1_555 1_555
H22 C20_3 1_555 1_555
C21_3 C19_3 1_555 1_555
C22_3 C21_3 1_555 1_555
H23_3 C22_3 1_555 1_555
C23_3 N3_2 1_555 1_555
H24_3 C23_3 1_555 1_555
Co5 N3_2 1_555 1_555
C21_3 C24_3 1_555 1_555
C22_3 C23_3 1_555 1_555
N4_2 C25_2 1_555 1_555
C25_2 H27_2 1_555 1_555
C26_2 N4_2 1_555 1_555
H28_2 C26_2 1_555 1_555
C27_2 C26_2 1_555 1_555
C28_2 C25_2 1_555 1_555
H30_2 C28_2 1_555 1_555
C29_2 C27_2 1_555 1_555
Co5 N4_2 1_555 1_555
O7_2 Co5 1_555 1_555
H33_2 O7_2 1_555 1_555
H34_2 O7_2 1_555 1_555
O9_2 Co5 1_555 1_555
H35_2 O9_2 1_555 1_555
H36_2 O9_2 1_555 1_555
O10_2 Co5 1_555 1_555
O12_2 C35_2 1_555 1_555
C31_2 H37_2 1_555 1_555
C35_2 O10_2 1_555 1_555
C36_2 C31_2 1_555 1_555
H40_2 C36_2 1_555 1_555
C28_2 C29_2 1_555 1_555
C29_2 C30_3 1_555 1_555
C35_2 C36_2 1_555 1_555
O8_2 C34_2 1_555 1_555
O14 C34_2 1_555 1_555
H39_2 C33_2 1_555 1_555
C34_2 C32_2 1_555 1_555
C32_2 C33_2 1_555 1_555
Co1_2 O1_3 1_555 1_555
O1_3 H1_3 1_555 1_555
H2_3 O1_3 1_555 1_555
O2_3 C7_3 1_555 1_555
N1_4 Co1_2 1_555 1_555
O3_3 Co1_2 1_555 1_555
H3_3 O3_3 1_555 1_555
H4_3 O3_3 1_555 1_555
O4_3 Co1_2 1_555 1_555
O5_2 C7_3 1_555 1_555
O6_3 C8_3 1_555 1_555
N2_3 Co1_2 1_555 1_555
C1_4 H5_4 1_555 1_555
C2_3 H6_3 1_555 1_555
C3_3 H7_3 1_555 1_555
C4_3 C2_3 1_555 1_555
H8_3 C4_3 1_555 1_555
C5_4 N1_4 1_555 1_555
H9_3 C5_4 1_555 1_555
C6_4 C1_4 1_555 1_555
C7_3 C3_3 1_555 1_555
C8_3 O4_3 1_555 1_555
C9_4 C6_4 1_555 1_555
H10_4 C9_4 1_555 1_555
C10_4 N1_4 1_555 1_555
H11_4 C10_4 1_555 1_555
C11_3 C2_3 1_555 1_555
H12_3 C11_3 1_555 1_555
C12_4 C6_4 1_555 1_555
C13_3 N2_3 1_555 1_555
H15_3 C13_3 1_555 1_555
C14_3 N2_3 1_555 1_555
H16_3 C14_3 1_555 1_555
C15_3 C14_3 1_555 1_555
H17_3 C15_3 1_555 1_555
C16_3 C13_3 1_555 1_555
H18_3 C16_3 1_555 1_555
C17_3 C15_3 1_555 1_555
C18_4 C17_3 1_555 1_555
H19_3 C18_4 1_555 1_555
H20_3 C18_4 1_555 1_555
N4_3 C25_3 1_555 1_555
C25_3 H27_3 1_555 1_555
C26_3 N4_3 1_555 1_555
H28_3 C26_3 1_555 1_555
C27_3 C26_3 1_555 1_555
H29_3 C27_3 1_555 1_555
C28_3 C25_3 1_555 1_555
H30_3 C28_3 1_555 1_555
C29_3 C27_3 1_555 1_555
C30_4 C18_4 1_555 1_555
H31_3 C30_4 1_555 1_555
H32_3 C30_4 1_555 1_555
Co2_2 N4_3 1_555 1_555
O7_3 Co2_2 1_555 1_555
H33_3 O7_3 1_555 1_555
H34_3 O7_3 1_555 1_555
O8_3 C34_3 1_555 1_555
O9_3 Co2_2 1_555 1_555
H35_3 O9_3 1_555 1_555
H36_3 O9_3 1_555 1_555
O10_3 Co2_2 1_555 1_555
O11_2 C34_3 1_555 1_555
O12_3 C35_3 1_555 1_555
C31_3 H37_3 1_555 1_555
C32_3 H38_3 1_555 1_555
C33_3 C31_3 1_555 1_555
H39_3 C33_3 1_555 1_555
C34_3 C32_3 1_555 1_555
C35_3 O10_3 1_555 1_555
C36_3 C31_3 1_555 1_555
H40_3 C36_3 1_555 1_555
Co3_2 O5_2 1_555 1_555
Co4 O11_2 1_555 1_555
N5_2 Co2_2 1_555 1_555
O13_2 Co1_2 1_555 1_555
O14_2 Co2_2 1_555 1_555
C1_4 C5_4 1_555 1_555
C3_3 C4_3 1_555 1_555
C8_3 C11_3 1_555 1_555
C9_4 C10_4 1_555 1_555
C16_3 C17_3 1_555 1_555
C28_3 C29_3 1_555 1_555
C29_3 C30_4 1_555 1_555
C32_3 C33_3 1_555 1_555
C35_3 C36_3 1_555 1_555
N4_4 C25_4 1_555 1_555
C25_4 H27_4 1_555 1_555
C26_4 N4_4 1_555 1_555
H28_4 C26_4 1_555 1_555
C27_4 C26_4 1_555 1_555
C28_4 C25_4 1_555 1_555
H30_4 C28_4 1_555 1_555
C29_4 C27_4 1_555 1_555
Co4 N4_4 1_555 1_555
O7_4 Co4 1_555 1_555
H33_4 O7_4 1_555 1_555
H34_4 O7_4 1_555 1_555
O9_4 Co4 1_555 1_555
H35_4 O9_4 1_555 1_555
H36_4 O9_4 1_555 1_555
O10_4 Co4 1_555 1_555
O12_4 C35_4 1_555 1_555
C31_4 H37_4 1_555 1_555
C35_4 O10_4 1_555 1_555
C36_4 C31_4 1_555 1_555
H40_4 C36_4 1_555 1_555
C28_4 C29_4 1_555 1_555
C35_4 C36_4 1_555 1_555
O8_4 C34_4 1_555 1_555
O14_2 C34_4 1_555 1_555
H39_4 C33_4 1_555 1_555
C34_4 C32_4 1_555 1_555
C32_4 C33_4 1_555 1_555
O2_4 C7_4 1_555 1_555
O13_2 C7_4 1_555 1_555
H8_4 C4_4 1_555 1_555
C7_4 C3_4 1_555 1_555
C3_4 C4_4 1_555 1_555
Co3_2 O1_4 1_555 1_555
O1_4 H1_4 1_555 1_555
H2_4 O1_4 1_555 1_555
O3_4 Co3_2 1_555 1_555
H3_4 O3_4 1_555 1_555
H4_4 O3_4 1_555 1_555
O4_4 Co3_2 1_555 1_555
O6_4 C8_4 1_555 1_555
N2_4 Co3_2 1_555 1_555
C2_4 H6_4 1_555 1_555
C8_4 O4_4 1_555 1_555
C11_4 C2_4 1_555 1_555
H12_4 C11_4 1_555 1_555
C13_4 N2_4 1_555 1_555
H15_4 C13_4 1_555 1_555
C14_4 N2_4 1_555 1_555
H16_4 C14_4 1_555 1_555
C15_4 C14_4 1_555 1_555
C16_4 C13_4 1_555 1_555
H18_4 C16_4 1_555 1_555
C17_4 C15_4 1_555 1_555
C8_4 C11_4 1_555 1_555
C16_4 C17_4 1_555 1_555
N5_2 C20_4 1_555 1_555
C19_4 H21_4 1_555 1_555
C20_4 C19_4 1_555 1_555
H22_4 C20_4 1_555 1_555
C21_4 C19_4 1_555 1_555
C22_4 C21_4 1_555 1_555
H23_4 C22_4 1_555 1_555
C23_4 N5_2 1_555 1_555
H24_4 C23_4 1_555 1_555
C21_4 C24_4 1_555 1_555
C22_4 C23_4 1_555 1_555

#END
