
###############################################################################
#
# This file contains modified crystal structure data generated from the
# MOF subset of the Cambridge Structural Database (CSD) v543 
# hosted by the Cambridge Crystallographic Data Centre (CCDC).
#
# This work is licensed under the Creative Commons
# Attribution-NonCommercial-ShareAlike 4.0 International License.
# To view a copy of this license, visit
# http://creativecommons.org/licenses/by-nc-sa/4.0/
# or send a letter to
# Creative Commons, PO Box 1866, Mountain View, CA 94042, USA.
#
# CIF created using the CSD Python API on 29 September 2022
# The structure has been converted into the P1 space group
# The structure has a 3D framework
# The original CSD entry AYOYIY is in the monoclinic crystal system
# The framework has been calculated to contain at least 10.0% void space
# The void calculation uses a probe of radius 1.32A, grid spacing 0.4
#
###############################################################################

data_AYOYIY
_chemical_formula_moiety         '(C144 H112 Co8 N32 O32)n'
_symmetry_cell_setting           triclinic
_symmetry_space_group_name_H-M   'P 1'
_symmetry_Int_Tables_number      1
_space_group_name_Hall           'P 1'
loop_
_symmetry_equiv_pos_site_id
_symmetry_equiv_pos_as_xyz
1 x,y,z
_cell_length_a                   15.5845(7)
_cell_length_b                   15.0522(6)
_cell_length_c                   20.9475(9)
_cell_angle_alpha                90
_cell_angle_beta                 110.286(2)
_cell_angle_gamma                90
_cell_volume                     4609.1
loop_
_atom_site_label
_atom_site_type_symbol
_atom_site_fract_x
_atom_site_fract_y
_atom_site_fract_z
Co1 Co 0.23507(2) 0.15506(2) 0.06474(2)
O1 O 0.24328(12) 0.01606(12) 0.09434(8)
O3 O 0.25800(12) 0.11942(12) 0.17121(9)
N1 N 0.09105(13) 0.15936(13) 0.04729(10)
C2 C 0.25296(16) 0.03892(17) 0.15362(12)
H3 H 0.2402 0.0425 0.2752
C15 C 0.05904(17) 0.20121(18) 0.09118(15)
H11 H 0.1000 0.2336 0.1265
O6 O 0.23706(11) 0.28398(11) 0.08962(8)
N5 N 0.37914(13) 0.15469(13) 0.08216(10)
C16 C 0.03001(16) 0.11567(18) 0.99583(13)
H12 H 0.0503 0.0876 0.9641
O5 O 0.20449(11) 0.12089(12) 0.96617(8)
O2 O 0.20449(11) 0.87911(12) 0.46617(8)
O4 O 0.26294(11) 0.78398(11) 0.41038(8)
C1 C 0.24866(17) 0.91547(17) 0.31279(12)
H1 H 0.2617 0.8576 0.3035
C5 C 0.24808(17) 0.98391(18) 0.26420(12)
C8 C 0.25820(18) 0.96796(19) 0.20460(13)
H5 H 0.2690 0.9099 0.1943
C9 C 0.23177(16) 0.92989(17) 0.36991(12)
H6 H 0.2187 0.9875 0.3796
C12 C 0.23285(15) 0.85809(15) 0.41896(11)
Co3 Co 0.26493(2) 0.65506(2) 0.43526(2)
Co4 Co 0.23507(2) 0.84494(2) 0.56474(2)
N3 N 0.78290(15) 0.16953(16) 0.07426(14)
N4 N 0.68910(15) 0.14977(16) 0.05919(14)
C3 C 0.56319(17) 0.17139(17) 0.09657(15)
C6 C 0.90650(17) 0.15101(16) 0.03393(14)
C7 C 0.81026(18) 0.14003(18) 0.02771(16)
C10 C 0.41494(16) 0.10841(17) 0.04254(13)
H7 H 0.3771 0.0698 0.0104
C11 C 0.50506(17) 0.11560(19) 0.04740(15)
H8 H 0.5268 0.0836 0.0182
C13 C 0.43558(16) 0.20665(17) 0.13033(13)
H9 H 0.4119 0.2382 0.1586
C14 C 0.52774(17) 0.21554(18) 0.13996(15)
H10 H 0.5653 0.2507 0.1751
C17 C 0.96864(18) 0.19855(18) 0.08637(15)
H13 H 0.9495 0.2283 0.1180
C18 C 0.65943(19) 0.18323(19) 0.10326(18)
H14 H 0.6987 0.2152 0.1397
N2 N 0.12086(13) 0.65469(13) 0.41784(10)
C10_2 C 0.08506(16) 0.60841(17) 0.45746(13)
H7_2 H 0.1229 0.5698 0.4896
C13_2 C 0.06442(16) 0.70665(17) 0.36967(13)
H9_2 H 0.0881 0.7382 0.3414
O1_2 O 0.25672(12) 0.51606(12) 0.40566(8)
O2_2 O 0.29551(11) 0.37911(12) 0.03383(8)
O3_2 O 0.24200(12) 0.61942(12) 0.32879(9)
N1_2 N 0.40895(13) 0.65936(13) 0.45271(10)
N3_2 N 0.71710(15) 0.66953(16) 0.42574(14)
N4_2 N 0.81090(15) 0.64977(16) 0.44081(14)
C1_2 C 0.25134(17) 0.41547(17) 0.18721(12)
H1_2 H 0.2383 0.3576 0.1965
C2_2 C 0.24704(16) 0.53892(17) 0.34638(12)
C3_2 C 0.93681(17) 0.67139(17) 0.40343(15)
C4 C 0.56171(17) 0.61025(19) 0.51251(14)
H2 H 0.6018 0.5793 0.5492
C5_2 C 0.25192(17) 0.48391(18) 0.23580(12)
H3_2 H 0.2598 0.5425 0.2248
C6_2 C 0.59350(17) 0.65101(16) 0.46607(14)
C7_2 C 0.68974(18) 0.64003(18) 0.47229(16)
H4 H 0.7305 0.6116 0.5101
C8_2 C 0.24180(18) 0.46796(19) 0.29540(13)
H5_2 H 0.2310 0.4099 0.3057
C9_2 C 0.26823(16) 0.42989(17) 0.13009(12)
H6_2 H 0.2813 0.4875 0.1204
C11_2 C 0.99494(17) 0.61560(19) 0.45260(15)
H8_2 H 0.9732 0.5836 0.4818
C12_2 C 0.26715(15) 0.35809(15) 0.08104(11)
C14_2 C 0.97226(17) 0.71554(18) 0.36004(15)
H10_2 H 0.9347 0.7507 0.3249
C15_2 C 0.44096(17) 0.70121(18) 0.40882(15)
H11_2 H 0.4000 0.7336 0.3735
C16_2 C 0.46999(16) 0.61567(18) 0.50417(13)
H12_2 H 0.4497 0.5876 0.5359
C17_2 C 0.53136(18) 0.69855(18) 0.41363(15)
H13_2 H 0.5505 0.7283 0.3820
C18_2 C 0.84057(19) 0.68323(19) 0.39674(18)
H14_2 H 0.8013 0.7152 0.3603
O5_2 O 0.29551(11) 0.62089(12) 0.53383(8)
Co4_2 Co 0.26493(2) 0.34494(2) 0.93526(2)
O4_2 O 0.26294(11) 0.21602(11) 0.91038(8)
C1_3 C 0.24866(17) 0.08453(17) 0.81279(12)
H1_3 H 0.2617 0.1424 0.8035
C5_3 C 0.24808(17) 0.01609(18) 0.76420(12)
C8_3 C 0.25820(18) 0.03204(19) 0.70460(13)
H5_3 H 0.2690 0.0901 0.6943
C9_3 C 0.23177(16) 0.07011(17) 0.86991(12)
H6_3 H 0.2187 0.0125 0.8796
C12_3 C 0.23285(15) 0.14191(15) 0.91896(11)
O1_3 O 0.24328(12) 0.98394(12) 0.59434(8)
O3_3 O 0.25800(12) 0.88058(12) 0.67121(9)
N1_3 N 0.09105(13) 0.84064(13) 0.54729(10)
C2_3 C 0.25296(16) 0.96108(17) 0.65362(12)
H3_3 H 0.2402 0.9575 0.7752
C15_3 C 0.05904(17) 0.79879(18) 0.59118(15)
H11_3 H 0.1000 0.7664 0.6265
C16_3 C 0.03001(16) 0.88433(18) 0.49583(13)
H12_3 H 0.0503 0.9124 0.4641
O6_2 O 0.23706(11) 0.71602(11) 0.58962(8)
N5_2 N 0.37914(13) 0.84531(13) 0.58216(10)
N3_3 N 0.78290(15) 0.83047(16) 0.57426(14)
N4_3 N 0.68910(15) 0.85023(16) 0.55919(14)
C3_3 C 0.56319(17) 0.82861(17) 0.59657(15)
C4_2 C 0.93829(17) 0.88975(19) 0.48749(14)
H2_2 H 0.8982 0.9207 0.4508
C6_3 C 0.90650(17) 0.84899(16) 0.53393(14)
C7_3 C 0.81026(18) 0.85997(18) 0.52771(16)
H4_2 H 0.7695 0.8884 0.4899
C10_3 C 0.41494(16) 0.89159(17) 0.54254(13)
H7_3 H 0.3771 0.9302 0.5104
C11_3 C 0.50506(17) 0.88440(19) 0.54740(15)
H8_3 H 0.5268 0.9164 0.5182
C13_3 C 0.43558(16) 0.79335(17) 0.63033(13)
H9_3 H 0.4119 0.7618 0.6586
C14_3 C 0.52774(17) 0.78446(18) 0.63996(15)
H10_3 H 0.5653 0.7493 0.6751
C17_3 C 0.96864(18) 0.80145(18) 0.58637(15)
H13_3 H 0.9495 0.7717 0.6180
C18_3 C 0.65943(19) 0.81677(19) 0.60326(18)
H14_3 H 0.6987 0.7848 0.6397
N2_2 N 0.12086(13) 0.34531(13) 0.91784(10)
C10_4 C 0.08506(16) 0.39159(17) 0.95746(13)
H7_4 H 0.1229 0.4302 0.9896
C13_4 C 0.06442(16) 0.29335(17) 0.86967(13)
H9_4 H 0.0881 0.2618 0.8414
C4_3 C 0.56171(17) 0.38975(19) 0.01251(14)
H2_3 H 0.6018 0.4207 0.0492
H4_3 H 0.7305 0.3884 0.0101
C16_4 C 0.46999(16) 0.38433(18) 0.00417(13)
H12_4 H 0.4497 0.4124 0.0359
O1_4 O 0.25672(12) 0.48394(12) 0.90566(8)
O3_4 O 0.24200(12) 0.38058(12) 0.82879(9)
N1_4 N 0.40895(13) 0.34064(13) 0.95271(10)
N3_4 N 0.71710(15) 0.33047(16) 0.92574(14)
N4_4 N 0.81090(15) 0.35023(16) 0.94081(14)
C1_4 C 0.25134(17) 0.58453(17) 0.68721(12)
H1_4 H 0.2383 0.6424 0.6965
C2_4 C 0.24704(16) 0.46108(17) 0.84638(12)
C3_4 C 0.93681(17) 0.32861(17) 0.90343(15)
C5_4 C 0.25192(17) 0.51609(18) 0.73580(12)
H3_4 H 0.2598 0.4575 0.7248
C6_4 C 0.59350(17) 0.34899(16) 0.96607(14)
C7_4 C 0.68974(18) 0.35997(18) 0.97229(16)
C8_4 C 0.24180(18) 0.53204(19) 0.79540(13)
H5_4 H 0.2310 0.5901 0.8057
C9_4 C 0.26823(16) 0.57011(17) 0.63009(12)
H6_4 H 0.2813 0.5125 0.6204
C11_4 C 0.99494(17) 0.38440(19) 0.95260(15)
H8_4 H 0.9732 0.4164 0.9818
C12_4 C 0.26715(15) 0.64191(15) 0.58104(11)
C14_4 C 0.97226(17) 0.28446(18) 0.86004(15)
H10_4 H 0.9347 0.2493 0.8249
C15_4 C 0.44096(17) 0.29879(18) 0.90882(15)
H11_4 H 0.4000 0.2664 0.8735
C17_4 C 0.53136(18) 0.30145(18) 0.91363(15)
H13_4 H 0.5505 0.2717 0.8820
C18_4 C 0.84057(19) 0.31677(19) 0.89674(18)
H14_4 H 0.8013 0.2848 0.8603
C4_4 C 0.93829(17) 0.11025(19) 0.98749(14)
H2_4 H 0.8982 0.0793 0.9508
H4_4 H 0.7695 0.1116 0.9899
N2_3 N 0.62086(13) 0.15469(13) 0.41784(10)
N3_5 N 0.21710(15) 0.16953(16) 0.42574(14)
N4_5 N 0.31090(15) 0.14977(16) 0.44081(14)
C3_5 C 0.43681(17) 0.17139(17) 0.40343(15)
C4_5 C 0.06171(17) 0.11025(19) 0.51251(14)
H2_5 H 0.1018 0.0793 0.5492
C6_5 C 0.09350(17) 0.15101(16) 0.46607(14)
C7_5 C 0.18974(18) 0.14003(18) 0.47229(16)
H4_5 H 0.2305 0.1116 0.5101
C10_5 C 0.58506(16) 0.10841(17) 0.45746(13)
H7_5 H 0.6229 0.0698 0.4896
C11_5 C 0.49494(17) 0.11560(19) 0.45260(15)
H8_5 H 0.4732 0.0836 0.4818
C13_5 C 0.56442(16) 0.20665(17) 0.36967(13)
H9_5 H 0.5881 0.2382 0.3414
C14_5 C 0.47226(17) 0.21554(18) 0.36004(15)
H10_5 H 0.4347 0.2507 0.3249
C17_5 C 0.03136(18) 0.19855(18) 0.41363(15)
H13_5 H 0.0505 0.2283 0.3820
C18_5 C 0.34057(19) 0.18323(19) 0.39674(18)
H14_5 H 0.3013 0.2152 0.3603
Co2 Co 0.76493(2) 0.15506(2) 0.43526(2)
O1_5 O 0.75672(12) 0.01606(12) 0.40566(8)
O3_5 O 0.74200(12) 0.11942(12) 0.32879(9)
N1_5 N 0.90895(13) 0.15936(13) 0.45271(10)
C2_5 C 0.74704(16) 0.03892(17) 0.34638(12)
H3_5 H 0.7598 0.0425 0.2248
C15_5 C 0.94096(17) 0.20121(18) 0.40882(15)
H11_5 H 0.9000 0.2336 0.3735
C16_5 C 0.96999(16) 0.11567(18) 0.50417(13)
H12_5 H 0.9497 0.0876 0.5359
O5_3 O 0.79551(11) 0.12089(12) 0.53383(8)
O6_3 O 0.76294(11) 0.28398(11) 0.41038(8)
O2_3 O 0.79551(11) 0.87911(12) 0.03383(8)
O4_3 O 0.73706(11) 0.78398(11) 0.08962(8)
C1_5 C 0.75134(17) 0.91547(17) 0.18721(12)
H1_5 H 0.7383 0.8576 0.1965
C5_5 C 0.75192(17) 0.98391(18) 0.23580(12)
C8_5 C 0.74180(18) 0.96796(19) 0.29540(13)
H5_5 H 0.7310 0.9099 0.3057
C9_5 C 0.76823(16) 0.92989(17) 0.13009(12)
H6_5 H 0.7813 0.9875 0.1204
C12_5 C 0.76715(15) 0.85809(15) 0.08104(11)
Co3_2 Co 0.73507(2) 0.65506(2) 0.06474(2)
Co4_3 Co 0.76493(2) 0.84494(2) 0.93526(2)
O1_6 O 0.74328(12) 0.51606(12) 0.09434(8)
O2_4 O 0.70449(11) 0.37911(12) 0.46617(8)
O3_6 O 0.75800(12) 0.61942(12) 0.17121(9)
N1_6 N 0.59105(13) 0.65936(13) 0.04729(10)
N3_6 N 0.28290(15) 0.66953(16) 0.07426(14)
N4_6 N 0.18910(15) 0.64977(16) 0.05919(14)
C1_6 C 0.74866(17) 0.41547(17) 0.31279(12)
H1_6 H 0.7617 0.3576 0.3035
C2_6 C 0.75296(16) 0.53892(17) 0.15362(12)
C3_6 C 0.06319(17) 0.67139(17) 0.09657(15)
C5_6 C 0.74808(17) 0.48391(18) 0.26420(12)
H3_6 H 0.7402 0.5425 0.2752
C6_6 C 0.40650(17) 0.65101(16) 0.03393(14)
C7_6 C 0.31026(18) 0.64003(18) 0.02771(16)
C8_6 C 0.75820(18) 0.46796(19) 0.20460(13)
H5_6 H 0.7690 0.4099 0.1943
C9_6 C 0.73177(16) 0.42989(17) 0.36991(12)
H6_6 H 0.7187 0.4875 0.3796
C11_6 C 0.00506(17) 0.61560(19) 0.04740(15)
H8_6 H 0.0268 0.5836 0.0182
C12_6 C 0.73285(15) 0.35809(15) 0.41896(11)
C14_6 C 0.02774(17) 0.71554(18) 0.13996(15)
H10_6 H 0.0653 0.7507 0.1751
C15_6 C 0.55904(17) 0.70121(18) 0.09118(15)
H11_6 H 0.6000 0.7336 0.1265
C17_6 C 0.46864(18) 0.69855(18) 0.08637(15)
H13_6 H 0.4495 0.7283 0.1180
C18_6 C 0.15943(19) 0.68323(19) 0.10326(18)
H14_6 H 0.1987 0.7152 0.1397
Co4_4 Co 0.73507(2) 0.34494(2) 0.56474(2)
N5_3 N 0.87914(13) 0.65469(13) 0.08216(10)
C4_6 C 0.43829(17) 0.61025(19) 0.98749(14)
H2_6 H 0.3982 0.5793 0.9508
H4_6 H 0.2695 0.6116 0.9899
C16_6 C 0.53001(16) 0.61567(18) 0.99583(13)
H12_6 H 0.5503 0.5876 0.9641
O5_4 O 0.70449(11) 0.62089(12) 0.96617(8)
C10_6 C 0.91494(16) 0.60841(17) 0.04254(13)
H7_6 H 0.8771 0.5698 0.0104
C13_6 C 0.93558(16) 0.70665(17) 0.13033(13)
H9_6 H 0.9119 0.7382 0.1586
N2_4 N 0.62086(13) 0.84531(13) 0.91784(10)
N3_7 N 0.21710(15) 0.83047(16) 0.92574(14)
N4_7 N 0.31090(15) 0.85023(16) 0.94081(14)
C3_7 C 0.43681(17) 0.82861(17) 0.90343(15)
C6_7 C 0.09350(17) 0.84899(16) 0.96607(14)
C7_7 C 0.18974(18) 0.85997(18) 0.97229(16)
C10_7 C 0.58506(16) 0.89159(17) 0.95746(13)
H7_7 H 0.6229 0.9302 0.9896
C11_7 C 0.49494(17) 0.88440(19) 0.95260(15)
H8_7 H 0.4732 0.9164 0.9818
C13_7 C 0.56442(16) 0.79335(17) 0.86967(13)
H9_7 H 0.5881 0.7618 0.8414
C14_7 C 0.47226(17) 0.78446(18) 0.86004(15)
H10_7 H 0.4347 0.7493 0.8249
C17_7 C 0.03136(18) 0.80145(18) 0.91363(15)
H13_7 H 0.0505 0.7717 0.8820
C18_7 C 0.34057(19) 0.81677(19) 0.89674(18)
H14_7 H 0.3013 0.7848 0.8603
O4_4 O 0.73706(11) 0.21602(11) 0.58962(8)
C1_7 C 0.75134(17) 0.08453(17) 0.68721(12)
H1_7 H 0.7383 0.1424 0.6965
C5_7 C 0.75192(17) 0.01609(18) 0.73580(12)
C8_7 C 0.74180(18) 0.03204(19) 0.79540(13)
H5_7 H 0.7310 0.0901 0.8057
C9_7 C 0.76823(16) 0.07011(17) 0.63009(12)
H6_7 H 0.7813 0.0125 0.6204
C12_7 C 0.76715(15) 0.14191(15) 0.58104(11)
C16_7 C 0.96999(16) 0.88433(18) 0.00417(13)
H12_7 H 0.9497 0.9124 0.0359
O1_7 O 0.75672(12) 0.98394(12) 0.90566(8)
O3_7 O 0.74200(12) 0.88058(12) 0.82879(9)
N1_7 N 0.90895(13) 0.84064(13) 0.95271(10)
C2_7 C 0.74704(16) 0.96108(17) 0.84638(12)
H3_7 H 0.7598 0.9575 0.7248
C15_7 C 0.94096(17) 0.79879(18) 0.90882(15)
H11_7 H 0.9000 0.7664 0.8735
O6_4 O 0.76294(11) 0.71602(11) 0.91038(8)
O1_8 O 0.74328(12) 0.48394(12) 0.59434(8)
O3_8 O 0.75800(12) 0.38058(12) 0.67121(9)
N1_8 N 0.59105(13) 0.34064(13) 0.54729(10)
N3_8 N 0.28290(15) 0.33047(16) 0.57426(14)
N4_8 N 0.18910(15) 0.35023(16) 0.55919(14)
C1_8 C 0.74866(17) 0.58453(17) 0.81279(12)
H1_8 H 0.7617 0.6424 0.8035
C2_8 C 0.75296(16) 0.46108(17) 0.65362(12)
C3_8 C 0.06319(17) 0.32861(17) 0.59657(15)
C4_7 C 0.43829(17) 0.38975(19) 0.48749(14)
H2_7 H 0.3982 0.4207 0.4508
C5_8 C 0.74808(17) 0.51609(18) 0.76420(12)
H3_8 H 0.7402 0.4575 0.7752
C6_8 C 0.40650(17) 0.34899(16) 0.53393(14)
C7_8 C 0.31026(18) 0.35997(18) 0.52771(16)
H4_7 H 0.2695 0.3884 0.4899
C8_8 C 0.75820(18) 0.53204(19) 0.70460(13)
H5_8 H 0.7690 0.5901 0.6943
C9_8 C 0.73177(16) 0.57011(17) 0.86991(12)
H6_8 H 0.7187 0.5125 0.8796
C11_8 C 0.00506(17) 0.38440(19) 0.54740(15)
H8_8 H 0.0268 0.4164 0.5182
C12_8 C 0.73285(15) 0.64191(15) 0.91896(11)
C14_8 C 0.02774(17) 0.28446(18) 0.63996(15)
H10_8 H 0.0653 0.2493 0.6751
C15_8 C 0.55904(17) 0.29879(18) 0.59118(15)
H11_8 H 0.6000 0.2664 0.6265
C16_8 C 0.53001(16) 0.38433(18) 0.49583(13)
H12_8 H 0.5503 0.4124 0.4641
C17_8 C 0.46864(18) 0.30145(18) 0.58637(15)
H13_8 H 0.4495 0.2717 0.6180
C18_8 C 0.15943(19) 0.31677(19) 0.60326(18)
H14_8 H 0.1987 0.2848 0.6397
N5_4 N 0.87914(13) 0.34531(13) 0.58216(10)
C10_8 C 0.91494(16) 0.39159(17) 0.54254(13)
H7_8 H 0.8771 0.4302 0.5104
C13_8 C 0.93558(16) 0.29335(17) 0.63033(13)
H9_8 H 0.9119 0.2618 0.6586
C4_8 C 0.06171(17) 0.88975(19) 0.01251(14)
H2_8 H 0.1018 0.9207 0.0492
H4_8 H 0.2305 0.8884 0.0101
loop_
_geom_bond_atom_site_label_1
_geom_bond_atom_site_label_2
_geom_bond_site_symmetry_1
_geom_bond_site_symmetry_2
Co1 O1 1_555 1_555
O1 C2 1_555 1_555
O3 Co1 1_555 1_555
N1 Co1 1_555 1_555
C2 O3 1_555 1_555
C15 N1 1_555 1_555
H11 C15 1_555 1_555
O6 Co1 1_555 1_555
N5 Co1 1_555 1_555
H12 C16 1_555 1_555
O2 C12 1_555 1_555
O4 C12 1_555 1_555
C1 H1 1_555 1_555
C5 C1 1_555 1_555
H5 C8 1_555 1_555
C9 C1 1_555 1_555
H6 C9 1_555 1_555
C12 C9 1_555 1_555
Co3 O4 1_555 1_555
Co4 O2 1_555 1_555
C5 C8 1_555 1_555
N5 C10 1_555 1_555
N3 N4 1_555 1_555
N4 C18 1_555 1_555
C3 C11 1_555 1_555
C7 N3 1_555 1_555
C10 H7 1_555 1_555
C11 C10 1_555 1_555
H8 C11 1_555 1_555
C13 N5 1_555 1_555
H9 C13 1_555 1_555
C14 C3 1_555 1_555
H10 C14 1_555 1_555
C17 C6 1_555 1_555
H13 C17 1_555 1_555
C18 C3 1_555 1_555
H14 C18 1_555 1_555
C6 C7 1_555 1_555
C13 C14 1_555 1_555
N2 C10_2 1_555 1_555
C10_2 H7_2 1_555 1_555
C13_2 N2 1_555 1_555
H9_2 C13_2 1_555 1_555
Co3 N2 1_555 1_555
Co3 O1_2 1_555 1_555
O1_2 C2_2 1_555 1_555
O2_2 C12_2 1_555 1_555
O3_2 Co3 1_555 1_555
O6 C12_2 1_555 1_555
N1_2 Co3 1_555 1_555
N3_2 N4_2 1_555 1_555
N4_2 C18_2 1_555 1_555
C1_2 H1_2 1_555 1_555
C2_2 O3_2 1_555 1_555
C3_2 C11_2 1_555 1_555
C4 H2 1_555 1_555
C5_2 C1_2 1_555 1_555
H3_2 C5_2 1_555 1_555
C6_2 C4 1_555 1_555
C7_2 N3_2 1_555 1_555
H4 C7_2 1_555 1_555
C8_2 C2_2 1_555 1_555
H5_2 C8_2 1_555 1_555
C9_2 C1_2 1_555 1_555
H6_2 C9_2 1_555 1_555
H8_2 C11_2 1_555 1_555
C12_2 C9_2 1_555 1_555
C14_2 C3_2 1_555 1_555
H10_2 C14_2 1_555 1_555
C15_2 N1_2 1_555 1_555
H11_2 C15_2 1_555 1_555
C16_2 N1_2 1_555 1_555
H12_2 C16_2 1_555 1_555
C17_2 C6_2 1_555 1_555
H13_2 C17_2 1_555 1_555
C18_2 C3_2 1_555 1_555
H14_2 C18_2 1_555 1_555
O5_2 Co3 1_555 1_555
C4 C16_2 1_555 1_555
C5_2 C8_2 1_555 1_555
C6_2 C7_2 1_555 1_555
C15_2 C17_2 1_555 1_555
O5 C12_3 1_555 1_555
O4_2 C12_3 1_555 1_555
C1_3 H1_3 1_555 1_555
C5_3 C1_3 1_555 1_555
H5_3 C8_3 1_555 1_555
C9_3 C1_3 1_555 1_555
H6_3 C9_3 1_555 1_555
C12_3 C9_3 1_555 1_555
Co4_2 O4_2 1_555 1_555
C5_3 C8_3 1_555 1_555
Co4 O1_3 1_555 1_555
O1_3 C2_3 1_555 1_555
O3_3 Co4 1_555 1_555
N1_3 Co4 1_555 1_555
C2_3 O3_3 1_555 1_555
C15_3 N1_3 1_555 1_555
H11_3 C15_3 1_555 1_555
C16_3 N1_3 1_555 1_555
H12_3 C16_3 1_555 1_555
O6_2 Co4 1_555 1_555
N5_2 Co4 1_555 1_555
N5_2 C10_3 1_555 1_555
N3_3 N4_3 1_555 1_555
N4_3 C18_3 1_555 1_555
C3_3 C11_3 1_555 1_555
C4_2 H2_2 1_555 1_555
C6_3 C4_2 1_555 1_555
C7_3 N3_3 1_555 1_555
H4_2 C7_3 1_555 1_555
C10_3 H7_3 1_555 1_555
C11_3 C10_3 1_555 1_555
H8_3 C11_3 1_555 1_555
C13_3 N5_2 1_555 1_555
H9_3 C13_3 1_555 1_555
C14_3 C3_3 1_555 1_555
H10_3 C14_3 1_555 1_555
C17_3 C6_3 1_555 1_555
H13_3 C17_3 1_555 1_555
C18_3 C3_3 1_555 1_555
H14_3 C18_3 1_555 1_555
C6_3 C7_3 1_555 1_555
C13_3 C14_3 1_555 1_555
N2_2 C10_4 1_555 1_555
C10_4 H7_4 1_555 1_555
C13_4 N2_2 1_555 1_555
H9_4 C13_4 1_555 1_555
Co4_2 N2_2 1_555 1_555
C4_3 H2_3 1_555 1_555
H12_4 C16_4 1_555 1_555
C4_3 C16_4 1_555 1_555
Co4_2 O1_4 1_555 1_555
O1_4 C2_4 1_555 1_555
O5_2 C12_4 1_555 1_555
O3_4 Co4_2 1_555 1_555
O6_2 C12_4 1_555 1_555
N1_4 Co4_2 1_555 1_555
N3_4 N4_4 1_555 1_555
N4_4 C18_4 1_555 1_555
C1_4 H1_4 1_555 1_555
C2_4 O3_4 1_555 1_555
C3_4 C11_4 1_555 1_555
C5_4 C1_4 1_555 1_555
H3_4 C5_4 1_555 1_555
C7_4 N3_4 1_555 1_555
C8_4 C2_4 1_555 1_555
H5_4 C8_4 1_555 1_555
C9_4 C1_4 1_555 1_555
H6_4 C9_4 1_555 1_555
H8_4 C11_4 1_555 1_555
C12_4 C9_4 1_555 1_555
C14_4 C3_4 1_555 1_555
H10_4 C14_4 1_555 1_555
C15_4 N1_4 1_555 1_555
H11_4 C15_4 1_555 1_555
C17_4 C6_4 1_555 1_555
H13_4 C17_4 1_555 1_555
C18_4 C3_4 1_555 1_555
H14_4 C18_4 1_555 1_555
C5_4 C8_4 1_555 1_555
C6_4 C7_4 1_555 1_555
C15_4 C17_4 1_555 1_555
C4_4 H2_4 1_555 1_555
N2_3 C10_5 1_555 1_555
N3_5 N4_5 1_555 1_555
N4_5 C18_5 1_555 1_555
C3_5 C11_5 1_555 1_555
C4_5 H2_5 1_555 1_555
C6_5 C4_5 1_555 1_555
C7_5 N3_5 1_555 1_555
H4_5 C7_5 1_555 1_555
C10_5 H7_5 1_555 1_555
C11_5 C10_5 1_555 1_555
H8_5 C11_5 1_555 1_555
C13_5 N2_3 1_555 1_555
H9_5 C13_5 1_555 1_555
C14_5 C3_5 1_555 1_555
H10_5 C14_5 1_555 1_555
C17_5 C6_5 1_555 1_555
H13_5 C17_5 1_555 1_555
C18_5 C3_5 1_555 1_555
H14_5 C18_5 1_555 1_555
Co2 N2_3 1_555 1_555
C6_5 C7_5 1_555 1_555
C13_5 C14_5 1_555 1_555
Co2 O1_5 1_555 1_555
O1_5 C2_5 1_555 1_555
O3_5 Co2 1_555 1_555
N1_5 Co2 1_555 1_555
C2_5 O3_5 1_555 1_555
C15_5 N1_5 1_555 1_555
H11_5 C15_5 1_555 1_555
C16_5 N1_5 1_555 1_555
H12_5 C16_5 1_555 1_555
O5_3 Co2 1_555 1_555
O6_3 Co2 1_555 1_555
O2_3 C12_5 1_555 1_555
O4_3 C12_5 1_555 1_555
C1_5 H1_5 1_555 1_555
C5_5 C1_5 1_555 1_555
H5_5 C8_5 1_555 1_555
C9_5 C1_5 1_555 1_555
H6_5 C9_5 1_555 1_555
C12_5 C9_5 1_555 1_555
Co3_2 O4_3 1_555 1_555
C5_5 C8_5 1_555 1_555
Co3_2 O1_6 1_555 1_555
O1_6 C2_6 1_555 1_555
O2_4 C12_6 1_555 1_555
O3_6 Co3_2 1_555 1_555
O6_3 C12_6 1_555 1_555
N1_6 Co3_2 1_555 1_555
N3_6 N4_6 1_555 1_555
N4_6 C18_6 1_555 1_555
C1_6 H1_6 1_555 1_555
C2_6 O3_6 1_555 1_555
C3_6 C11_6 1_555 1_555
C5_6 C1_6 1_555 1_555
H3_6 C5_6 1_555 1_555
C7_6 N3_6 1_555 1_555
C8_6 C2_6 1_555 1_555
H5_6 C8_6 1_555 1_555
C9_6 C1_6 1_555 1_555
H6_6 C9_6 1_555 1_555
H8_6 C11_6 1_555 1_555
C12_6 C9_6 1_555 1_555
C14_6 C3_6 1_555 1_555
H10_6 C14_6 1_555 1_555
C15_6 N1_6 1_555 1_555
H11_6 C15_6 1_555 1_555
C17_6 C6_6 1_555 1_555
H13_6 C17_6 1_555 1_555
C18_6 C3_6 1_555 1_555
H14_6 C18_6 1_555 1_555
Co4_4 O2_4 1_555 1_555
N5_3 Co3_2 1_555 1_555
C5_6 C8_6 1_555 1_555
C6_6 C7_6 1_555 1_555
C15_6 C17_6 1_555 1_555
C4_6 H2_6 1_555 1_555
H12_6 C16_6 1_555 1_555
C4_6 C16_6 1_555 1_555
N5_3 C10_6 1_555 1_555
C10_6 H7_6 1_555 1_555
C13_6 N5_3 1_555 1_555
H9_6 C13_6 1_555 1_555
N2_4 C10_7 1_555 1_555
N3_7 N4_7 1_555 1_555
N4_7 C18_7 1_555 1_555
C3_7 C11_7 1_555 1_555
C7_7 N3_7 1_555 1_555
C10_7 H7_7 1_555 1_555
C11_7 C10_7 1_555 1_555
H8_7 C11_7 1_555 1_555
C13_7 N2_4 1_555 1_555
H9_7 C13_7 1_555 1_555
C14_7 C3_7 1_555 1_555
H10_7 C14_7 1_555 1_555
C17_7 C6_7 1_555 1_555
H13_7 C17_7 1_555 1_555
C18_7 C3_7 1_555 1_555
H14_7 C18_7 1_555 1_555
Co4_3 N2_4 1_555 1_555
C6_7 C7_7 1_555 1_555
C13_7 C14_7 1_555 1_555
O5_3 C12_7 1_555 1_555
O4_4 C12_7 1_555 1_555
C1_7 H1_7 1_555 1_555
C5_7 C1_7 1_555 1_555
H5_7 C8_7 1_555 1_555
C9_7 C1_7 1_555 1_555
H6_7 C9_7 1_555 1_555
C12_7 C9_7 1_555 1_555
Co4_4 O4_4 1_555 1_555
C5_7 C8_7 1_555 1_555
H12_7 C16_7 1_555 1_555
Co4_3 O1_7 1_555 1_555
O1_7 C2_7 1_555 1_555
O3_7 Co4_3 1_555 1_555
N1_7 Co4_3 1_555 1_555
C2_7 O3_7 1_555 1_555
C15_7 N1_7 1_555 1_555
H11_7 C15_7 1_555 1_555
O6_4 Co4_3 1_555 1_555
Co4_4 O1_8 1_555 1_555
O1_8 C2_8 1_555 1_555
O5_4 C12_8 1_555 1_555
O3_8 Co4_4 1_555 1_555
O6_4 C12_8 1_555 1_555
N1_8 Co4_4 1_555 1_555
N3_8 N4_8 1_555 1_555
N4_8 C18_8 1_555 1_555
C1_8 H1_8 1_555 1_555
C2_8 O3_8 1_555 1_555
C3_8 C11_8 1_555 1_555
C4_7 H2_7 1_555 1_555
C5_8 C1_8 1_555 1_555
H3_8 C5_8 1_555 1_555
C6_8 C4_7 1_555 1_555
C7_8 N3_8 1_555 1_555
H4_7 C7_8 1_555 1_555
C8_8 C2_8 1_555 1_555
H5_8 C8_8 1_555 1_555
C9_8 C1_8 1_555 1_555
H6_8 C9_8 1_555 1_555
H8_8 C11_8 1_555 1_555
C12_8 C9_8 1_555 1_555
C14_8 C3_8 1_555 1_555
H10_8 C14_8 1_555 1_555
C15_8 N1_8 1_555 1_555
H11_8 C15_8 1_555 1_555
C16_8 N1_8 1_555 1_555
H12_8 C16_8 1_555 1_555
C17_8 C6_8 1_555 1_555
H13_8 C17_8 1_555 1_555
C18_8 C3_8 1_555 1_555
H14_8 C18_8 1_555 1_555
N5_4 Co4_4 1_555 1_555
C4_7 C16_8 1_555 1_555
C5_8 C8_8 1_555 1_555
C6_8 C7_8 1_555 1_555
C15_8 C17_8 1_555 1_555
N5_4 C10_8 1_555 1_555
C10_8 H7_8 1_555 1_555
C13_8 N5_4 1_555 1_555
H9_8 C13_8 1_555 1_555
C4_8 H2_8 1_555 1_555

#END
