
###############################################################################
#
# This file contains modified crystal structure data generated from the
# MOF subset of the Cambridge Structural Database (CSD) v543 
# hosted by the Cambridge Crystallographic Data Centre (CCDC).
#
# This work is licensed under the Creative Commons
# Attribution-NonCommercial-ShareAlike 4.0 International License.
# To view a copy of this license, visit
# http://creativecommons.org/licenses/by-nc-sa/4.0/
# or send a letter to
# Creative Commons, PO Box 1866, Mountain View, CA 94042, USA.
#
# CIF created using the CSD Python API on 29 September 2022
# The structure has been converted into the P1 space group
# The structure has a 3D framework
# The original CSD entry AYUWUM is in the triclinic crystal system
# The framework has been calculated to contain at least 10.0% void space
# The void calculation uses a probe of radius 1.32A, grid spacing 0.4
# The framework is charged, counterions have been retained in the structure
#
###############################################################################

data_AYUWUM
_chemical_formula_moiety         '(C60 H76 Na6 O43 S14)n'
_symmetry_cell_setting           triclinic
_symmetry_space_group_name_H-M   'P 1'
_symmetry_Int_Tables_number      1
_space_group_name_Hall           'P 1'
loop_
_symmetry_equiv_pos_site_id
_symmetry_equiv_pos_as_xyz
1 x,y,z
_cell_length_a                   9.998(4)
_cell_length_b                   16.216(6)
_cell_length_c                   16.663(7)
_cell_angle_alpha                94.899(6)
_cell_angle_beta                 102.410(7)
_cell_angle_gamma                96.101(6)
_cell_volume                     2607.12
loop_
_atom_site_label
_atom_site_type_symbol
_atom_site_fract_x
_atom_site_fract_y
_atom_site_fract_z
O7 O 0.0362(3) 0.1244(2) 0.7785(2)
O16 O 0.0955(3) 0.1361(2) 0.6222(2)
O17 O 0.0242(3) 0.0818(2) 0.4378(2)
H24 H 0.1015 0.1991 0.5977
H25 H 0.0942 0.1380 0.6816
H26 H 0.1053 0.1182 0.4521
Na4 Na 0.2520(2) 0.1561(1) 0.8632(1)
S2 S 0.1033(1) 0.83648(6) 0.92335(7)
C8 C 0.0173(4) 0.7349(2) 0.8788(3)
C9 C 0.0092(4) 0.7074(3) 0.7961(3)
C28 C 0.0704(7) 0.5321(5) 0.6792(4)
H3 H 0.0585 0.7539 0.7661
H6 H 0.0401 0.9578 0.8175
H9 H 0.0639 0.4924 0.7186
H10 H 0.1611 0.5615 0.6932
H11 H 0.0458 0.4977 0.6127
H15 H 0.0787 0.6869 0.6407
Na6 Na 0.1106(2) 0.9462(1) 0.4525(1)
H41 H 0.0367 0.9139 0.6119
S5 S 0.8910(1) 0.09121(7) 0.76515(7)
Na1 Na 0.8894(2) 0.0538(1) 0.5475(1)
O8 O 0.8398(3) 0.0445(2) 0.6835(2)
O9 O 0.8053(4) 0.1537(2) 0.7831(2)
O21 O 0.7078(4) 0.1520(2) 0.5201(2)
C15 C 0.7852(4) 0.0202(2) 0.8854(3)
C16 C 0.8842(4) 0.0189(2) 0.8393(3)
H5 H 0.7113 0.0511 0.8829
H27 H 0.9633 0.0861 0.3881
H34 H 0.7374 0.1973 0.5530
H35 H 0.7062 0.1793 0.4698
O25 O 0.4302(3) 0.0229(2) 0.4073(2)
Na7 Na 0.4727(2) 0.1040(1) 0.5418(1)
H42 H 0.3573 0.0052 0.3753
H43 H 0.4710 0.0491 0.3739
Na3 Na 0.7480(2) 0.8439(1) 0.1368(1)
O2 O 0.9681(3) 0.7090(2) 0.0101(2)
O3 O 0.8624(3) 0.8520(2) 0.0115(2)
O4 O 0.5381(3) 0.7975(2) 0.0431(2)
O6 O 0.8985(3) 0.6826(2) 0.1445(2)
O23 O 0.6356(4) 0.9116(2) 0.2221(2)
H20 H 0.8738 0.6659 0.1883
H21 H 0.7379 0.6473 0.0193
H22 H 0.9296 0.8125 0.0143
H23 H 0.5187 0.7394 0.0411
H38 H 0.5841 0.8845 0.2586
H39 H 0.6513 0.9615 0.2708
O27 O 0.9638(3) 0.8756(2) 0.2215(2)
O28 O 0.6152(3) 0.7170(2) 0.1744(2)
S1 S 0.8492(1) 0.52951(7) 0.96245(7)
S3 S 0.6461(1) 0.96194(6) 0.99916(7)
S4 S 0.3469(1) 0.64719(6) 0.94581(7)
S6 S 0.2970(1) 0.85370(7) 0.69973(7)
S7 S 0.3767(1) 0.34968(7) 0.77309(7)
Na2 Na 0.5273(2) 0.8960(1) 0.4582(1)
O1 O 0.6537(3) 0.6524(2) 0.9932(2)
O10 O 0.3748(3) 0.9317(2) 0.6866(2)
O11 O 0.3110(4) 0.7843(2) 0.6436(2)
O12 O 0.1556(3) 0.8644(2) 0.7017(2)
O13 O 0.2338(3) 0.3653(2) 0.7428(2)
O14 O 0.4492(3) 0.3385(2) 0.7078(2)
O15 O 0.3848(3) 0.2830(2) 0.8256(2)
O18 O 0.7351(3) 0.9683(2) 0.4357(2)
O19 O 0.5698(3) 0.9771(2) 0.5927(2)
O20 O 0.4597(4) 0.8276(2) 0.3170(2)
O22 O 0.7084(4) 0.7981(2) 0.5060(3)
C1 C 0.5939(4) 0.5836(2) 0.9421(3)
C2 C 0.4509(4) 0.5748(2) 0.9120(3)
C3 C 0.3839(4) 0.5036(3) 0.8596(3)
C4 C 0.4604(4) 0.4423(2) 0.8370(3)
C5 C 0.6020(4) 0.4512(3) 0.8654(3)
C6 C 0.6697(4) 0.5214(3) 0.9187(3)
C7 C 0.9700(4) 0.6804(3) 0.9299(3)
C10 C 0.9601(4) 0.6244(3) 0.7641(3)
C11 C 0.9144(4) 0.5713(3) 0.8165(3)
C12 C 0.9158(4) 0.5986(3) 0.8979(3)
C13 C 0.8731(4) 0.9051(2) 0.9544(3)
C14 C 0.7775(4) 0.9623(2) 0.9421(3)
C17 C 0.9767(4) 0.9601(3) 0.8486(3)
C18 C 0.9717(4) 0.9036(2) 0.9054(3)
C19 C 0.4880(4) 0.8056(2) 0.9624(3)
C20 C 0.5247(4) 0.8814(2) 0.9337(3)
C21 C 0.4675(4) 0.8954(3) 0.8532(3)
C22 C 0.3774(4) 0.8333(3) 0.8006(3)
C23 C 0.3453(4) 0.7563(3) 0.8273(3)
C24 C 0.4001(4) 0.7426(2) 0.9082(3)
C27 C 0.9593(5) 0.5900(3) 0.6754(3)
C29 C 0.8220(6) 0.5382(4) 0.6337(4)
C30 C 0.988(1) 0.6576(4) 0.6219(4)
H1 H 0.2830 0.4984 0.8433
H2 H 0.6558 0.4145 0.8468
H4 H 0.8816 0.5166 0.7942
H7 H 0.4958 0.9567 0.8291
H8 H 0.2867 0.7126 0.7919
H12 H 0.8342 0.5080 0.5862
H13 H 0.7508 0.5721 0.6191
H14 H 0.7934 0.4990 0.6691
H16 H 0.9738 0.6238 0.5595
H17 H 0.9231 0.6977 0.6215
H28 H 0.7100 0.9979 0.3971
H29 H 0.7767 0.9339 0.4143
H30 H 0.6427 0.9948 0.6247
H31 H 0.5290 0.9509 0.6261
H32 H 0.3737 0.8339 0.2871
H33 H 0.4806 0.7732 0.3065
H36 H 0.7537 0.7602 0.4853
H37 H 0.6816 0.7675 0.5519
O24 O 0.9758(3) 0.9182(2) 0.5622(2)
O26 O 0.2922(4) 0.8480(2) 0.4799(2)
H40 H 0.8947 0.8818 0.5479
H44 H 0.2626 0.8027 0.4470
H45 H 0.2938 0.8207 0.5302
S1_2 S 0.1508(1) 0.47049(7) 0.03755(7)
S3_2 S 0.3539(1) 0.03806(6) 0.00084(7)
S4_2 S 0.6531(1) 0.35281(6) 0.05419(7)
S6_2 S 0.7030(1) 0.14630(7) 0.30027(7)
S7_2 S 0.6233(1) 0.65032(7) 0.22691(7)
O1_2 O 0.3463(3) 0.3476(2) 0.0068(2)
O10_2 O 0.6252(3) 0.0683(2) 0.3134(2)
O11_2 O 0.6890(4) 0.2157(2) 0.3564(2)
O12_2 O 0.8444(3) 0.1356(2) 0.2983(2)
O13_2 O 0.7662(3) 0.6347(2) 0.2572(2)
O14_2 O 0.5508(3) 0.6615(2) 0.2922(2)
O18_2 O 0.2649(3) 0.0317(2) 0.5643(2)
O20_2 O 0.5403(4) 0.1724(2) 0.6830(2)
O22_2 O 0.2916(4) 0.2019(2) 0.4940(3)
C1_2 C 0.4061(4) 0.4164(2) 0.0579(3)
C2_2 C 0.5491(4) 0.4252(2) 0.0880(3)
C3_2 C 0.6161(4) 0.4964(3) 0.1404(3)
C4_2 C 0.5396(4) 0.5577(2) 0.1630(3)
C5_2 C 0.3980(4) 0.5488(3) 0.1346(3)
C6_2 C 0.3303(4) 0.4786(3) 0.0813(3)
C7_2 C 0.0300(4) 0.3196(3) 0.0701(3)
C10_2 C 0.0399(4) 0.3756(3) 0.2359(3)
C11_2 C 0.0856(4) 0.4287(3) 0.1835(3)
C12_2 C 0.0842(4) 0.4014(3) 0.1021(3)
C13_2 C 0.1269(4) 0.0949(2) 0.0456(3)
C14_2 C 0.2225(4) 0.0377(2) 0.0579(3)
C17_2 C 0.0233(4) 0.0399(3) 0.1514(3)
C18_2 C 0.0283(4) 0.0964(2) 0.0946(3)
C19_2 C 0.5120(4) 0.1944(2) 0.0376(3)
C20_2 C 0.4753(4) 0.1186(2) 0.0663(3)
C21_2 C 0.5325(4) 0.1046(3) 0.1468(3)
C22_2 C 0.6226(4) 0.1667(3) 0.1994(3)
C23_2 C 0.6547(4) 0.2437(3) 0.1727(3)
C24_2 C 0.5999(4) 0.2574(2) 0.0918(3)
C27_2 C 0.0407(5) 0.4100(3) 0.3246(3)
C29_2 C 0.1780(6) 0.4618(4) 0.3663(4)
C30_2 C 0.012(1) 0.3424(4) 0.3781(4)
H1_2 H 0.7170 0.5016 0.1567
H2_2 H 0.3442 0.5855 0.1532
H4_2 H 0.1184 0.4834 0.2058
H7_2 H 0.5042 0.0433 0.1709
H8_2 H 0.7133 0.2874 0.2081
H12_2 H 0.1658 0.4920 0.4138
H13_2 H 0.2492 0.4279 0.3809
H14_2 H 0.2066 0.5010 0.3309
H16_2 H 0.0262 0.3762 0.4405
H17_2 H 0.0769 0.3023 0.3785
H28_2 H 0.2900 0.0021 0.6029
H29_2 H 0.2233 0.0661 0.5857
H32_2 H 0.6263 0.1661 0.7129
H33_2 H 0.5194 0.2268 0.6935
H36_2 H 0.2463 0.2398 0.5147
H37_2 H 0.3184 0.2325 0.4481
O2_2 O 0.0319(3) 0.2910(2) 0.9899(2)
O3_2 O 0.1376(3) 0.1480(2) 0.9885(2)
O4_2 O 0.4619(3) 0.2025(2) 0.9569(2)
O6_2 O 0.1015(3) 0.3174(2) 0.8555(2)
O23_2 O 0.3644(4) 0.0884(2) 0.7779(2)
H20_2 H 0.1262 0.3341 0.8117
H21_2 H 0.2621 0.3527 0.9807
H22_2 H 0.0704 0.1875 0.9857
H23_2 H 0.4813 0.2606 0.9589
H38_2 H 0.4159 0.1155 0.7414
H39_2 H 0.3487 0.0385 0.7292
S5_2 S 0.1090(1) 0.90879(7) 0.23485(7)
O8_2 O 0.1602(3) 0.9555(2) 0.3165(2)
O9_2 O 0.1947(4) 0.8463(2) 0.2169(2)
C15_2 C 0.2148(4) 0.9798(2) 0.1146(3)
C16_2 C 0.1158(4) 0.9811(2) 0.1607(3)
H5_2 H 0.2887 0.9489 0.1171
S2_2 S 0.8967(1) 0.16352(6) 0.07665(7)
C8_2 C 0.9827(4) 0.2651(2) 0.1212(3)
C9_2 C 0.9908(4) 0.2926(3) 0.2039(3)
C28_2 C 0.9296(7) 0.4679(5) 0.3208(4)
H3_2 H 0.9415 0.2461 0.2339
H6_2 H 0.9599 0.0422 0.1825
H9_2 H 0.9361 0.5076 0.2814
H10_2 H 0.8389 0.4385 0.3068
H11_2 H 0.9542 0.5023 0.3873
H15_2 H 0.9213 0.3131 0.3593
O16_2 O 0.9045(3) 0.8639(2) 0.3778(2)
H24_2 H 0.8985 0.8009 0.4023
H25_2 H 0.9058 0.8620 0.3184
O5 O 0.1019(4) 0.6458(2) 0.2064(2)
C25 C 0.0797(4) 0.6912(3) 0.0737(3)
C26 C 0.0280(5) 0.6707(3) 0.1487(3)
H18 H 0.1562 0.7427 0.0950
H19 H 0.1209 0.6424 0.0616
O5_2 O 0.8981(4) 0.3542(2) 0.7936(2)
C25_2 C 0.9203(4) 0.3088(3) 0.9263(3)
C26_2 C 0.9720(5) 0.3293(3) 0.8513(3)
H18_2 H 0.8438 0.2573 0.9050
H19_2 H 0.8791 0.3576 0.9384
loop_
_geom_bond_atom_site_label_1
_geom_bond_atom_site_label_2
_geom_bond_site_symmetry_1
_geom_bond_site_symmetry_2
O7 Na4 1_555 1_555
H24 O16 1_555 1_555
H25 O16 1_555 1_555
H26 O17 1_555 1_555
S2 C8 1_555 1_555
C8 C9 1_555 1_555
H3 C9 1_555 1_555
H9 C28 1_555 1_555
H10 C28 1_555 1_555
H11 C28 1_555 1_555
Na1 O8 1_555 1_555
O8 S5 1_555 1_555
O9 S5 1_555 1_555
O21 Na1 1_555 1_555
C15 C16 1_555 1_555
C16 S5 1_555 1_555
H5 C15 1_555 1_555
H34 O21 1_555 1_555
H35 O21 1_555 1_555
H42 O25 1_555 1_555
H43 O25 1_555 1_555
O21 Na7 1_555 1_555
O25 Na7 1_555 1_555
Na3 O3 1_555 1_555
O4 Na3 1_555 1_555
O23 Na3 1_555 1_555
H20 O6 1_555 1_555
H22 O3 1_555 1_555
H23 O4 1_555 1_555
H38 O23 1_555 1_555
H39 O23 1_555 1_555
O27 Na3 1_555 1_555
O28 Na3 1_555 1_555
S1 C6 1_555 1_555
S3 C14 1_555 1_555
S4 C2 1_555 1_555
S6 O10 1_555 1_555
S7 O13 1_555 1_555
Na2 O18 1_555 1_555
O1 C1 1_555 1_555
O11 S6 1_555 1_555
O12 S6 1_555 1_555
O14 S7 1_555 1_555
O15 S7 1_555 1_555
O19 Na2 1_555 1_555
O20 Na2 1_555 1_555
O22 Na2 1_555 1_555
C1 C2 1_555 1_555
C2 C3 1_555 1_555
C3 C4 1_555 1_555
C4 S7 1_555 1_555
C5 C4 1_555 1_555
C6 C1 1_555 1_555
C10 C11 1_555 1_555
C11 C12 1_555 1_555
C12 S1 1_555 1_555
C13 C14 1_555 1_555
C20 S3 1_555 1_555
C21 C20 1_555 1_555
C22 S6 1_555 1_555
C23 C22 1_555 1_555
C24 S4 1_555 1_555
C27 C10 1_555 1_555
C29 C27 1_555 1_555
C30 C27 1_555 1_555
H1 C3 1_555 1_555
H2 C5 1_555 1_555
H4 C11 1_555 1_555
H7 C21 1_555 1_555
H8 C23 1_555 1_555
H12 C29 1_555 1_555
H13 C29 1_555 1_555
H14 C29 1_555 1_555
H16 C30 1_555 1_555
H17 C30 1_555 1_555
H28 O18 1_555 1_555
H29 O18 1_555 1_555
H30 O19 1_555 1_555
H31 O19 1_555 1_555
H32 O20 1_555 1_555
H33 O20 1_555 1_555
H36 O22 1_555 1_555
H37 O22 1_555 1_555
O26 Na2 1_555 1_555
Na4 O15 1_555 1_555
H40 O24 1_555 1_555
H44 O26 1_555 1_555
H45 O26 1_555 1_555
C5 C6 1_555 1_555
C7 C12 1_555 1_555
C13 C18 1_555 1_555
C17 C18 1_555 1_555
C19 C24 1_555 1_555
C19 C20 1_555 1_555
C21 C22 1_555 1_555
C23 C24 1_555 1_555
S1_2 C6_2 1_555 1_555
S3_2 C14_2 1_555 1_555
S4_2 C2_2 1_555 1_555
S6_2 O10_2 1_555 1_555
S7_2 O13_2 1_555 1_555
Na7 O18_2 1_555 1_555
O1_2 C1_2 1_555 1_555
O11_2 S6_2 1_555 1_555
O12_2 S6_2 1_555 1_555
O14_2 S7_2 1_555 1_555
O28 S7_2 1_555 1_555
O20_2 Na7 1_555 1_555
O22_2 Na7 1_555 1_555
C1_2 C2_2 1_555 1_555
C2_2 C3_2 1_555 1_555
C3_2 C4_2 1_555 1_555
C4_2 S7_2 1_555 1_555
C5_2 C4_2 1_555 1_555
C6_2 C1_2 1_555 1_555
C10_2 C11_2 1_555 1_555
C11_2 C12_2 1_555 1_555
C12_2 S1_2 1_555 1_555
C13_2 C14_2 1_555 1_555
C20_2 S3_2 1_555 1_555
C21_2 C20_2 1_555 1_555
C22_2 S6_2 1_555 1_555
C23_2 C22_2 1_555 1_555
C24_2 S4_2 1_555 1_555
C27_2 C10_2 1_555 1_555
C29_2 C27_2 1_555 1_555
C30_2 C27_2 1_555 1_555
H1_2 C3_2 1_555 1_555
H2_2 C5_2 1_555 1_555
H4_2 C11_2 1_555 1_555
H7_2 C21_2 1_555 1_555
H8_2 C23_2 1_555 1_555
H12_2 C29_2 1_555 1_555
H13_2 C29_2 1_555 1_555
H14_2 C29_2 1_555 1_555
H16_2 C30_2 1_555 1_555
H17_2 C30_2 1_555 1_555
H28_2 O18_2 1_555 1_555
H29_2 O18_2 1_555 1_555
H32_2 O20_2 1_555 1_555
H33_2 O20_2 1_555 1_555
H36_2 O22_2 1_555 1_555
H37_2 O22_2 1_555 1_555
C5_2 C6_2 1_555 1_555
C7_2 C12_2 1_555 1_555
C13_2 C18_2 1_555 1_555
C17_2 C18_2 1_555 1_555
C19_2 C24_2 1_555 1_555
C19_2 C20_2 1_555 1_555
C21_2 C22_2 1_555 1_555
C23_2 C24_2 1_555 1_555
Na4 O3_2 1_555 1_555
O4_2 Na4 1_555 1_555
O23_2 Na4 1_555 1_555
H20_2 O6_2 1_555 1_555
H22_2 O3_2 1_555 1_555
H23_2 O4_2 1_555 1_555
H38_2 O23_2 1_555 1_555
H39_2 O23_2 1_555 1_555
Na6 O8_2 1_555 1_555
O8_2 S5_2 1_555 1_555
O9_2 S5_2 1_555 1_555
O26 Na6 1_555 1_555
C15_2 C16_2 1_555 1_555
C16_2 S5_2 1_555 1_555
H5_2 C15_2 1_555 1_555
S2_2 C8_2 1_555 1_555
C8_2 C9_2 1_555 1_555
H3_2 C9_2 1_555 1_555
H9_2 C28_2 1_555 1_555
H10_2 C28_2 1_555 1_555
H11_2 C28_2 1_555 1_555
H24_2 O16_2 1_555 1_555
H25_2 O16_2 1_555 1_555
O5 C26 1_555 1_555
C26 C25 1_555 1_555
H18 C25 1_555 1_555
H19 C25 1_555 1_555
O5_2 C26_2 1_555 1_555
C26_2 C25_2 1_555 1_555
H18_2 C25_2 1_555 1_555
H19_2 C25_2 1_555 1_555

#END
