
###############################################################################
#
# This file contains modified crystal structure data generated from the
# MOF subset of the Cambridge Structural Database (CSD) v543 
# hosted by the Cambridge Crystallographic Data Centre (CCDC).
#
# This work is licensed under the Creative Commons
# Attribution-NonCommercial-ShareAlike 4.0 International License.
# To view a copy of this license, visit
# http://creativecommons.org/licenses/by-nc-sa/4.0/
# or send a letter to
# Creative Commons, PO Box 1866, Mountain View, CA 94042, USA.
#
# CIF created using the CSD Python API on 29 September 2022
# The structure has been converted into the P1 space group
# The structure has a 3D framework
# The original CSD entry AZAFIS is in the triclinic crystal system
# The framework has been calculated to contain at least 10.0% void space
# The void calculation uses a probe of radius 1.32A, grid spacing 0.4
#
###############################################################################

data_AZAFIS
_chemical_formula_moiety         '(C16 H12 Br4 Ca2 O12)n'
_symmetry_cell_setting           triclinic
_symmetry_space_group_name_H-M   'P 1'
_symmetry_Int_Tables_number      1
_space_group_name_Hall           'P 1'
loop_
_symmetry_equiv_pos_site_id
_symmetry_equiv_pos_as_xyz
1 x,y,z
_cell_length_a                   7.7834(4)
_cell_length_b                   10.1301(5)
_cell_length_c                   10.3277(8)
_cell_angle_alpha                103.873(5)
_cell_angle_beta                 91.797(5)
_cell_angle_gamma                90.935(4)
_cell_volume                     789.923
loop_
_atom_site_label
_atom_site_type_symbol
_atom_site_fract_x
_atom_site_fract_y
_atom_site_fract_z
_atom_site_U_iso_or_equiv
_atom_site_thermal_displace_type
Br1 Br 0.00374(7) 0.21483(4) 0.09376(5) 0.0478 Uani
O1 O 0.0107(3) 0.4873(3) 0.3542(2) 0.0232 Uani
O2 O 0.2692(3) 0.5465(3) 0.3064(3) 0.0287 Uani
C2 C 0.0578(4) 0.5006(3) 0.1299(3) 0.0171 Uani
C3 C 0.1165(4) 0.5108(3) 0.2729(3) 0.0167 Uani
C5 C 0.4371(4) 0.1228(3) 0.4776(4) 0.0172 Uani
O3 O 0.4844(3) 0.3470(2) 0.4514(3) 0.0228 Uani
O4 O 0.2189(3) 0.2843(2) 0.4819(3) 0.0317 Uani
C7 C 0.3744(4) 0.2604(3) 0.4672(4) 0.0202 Uani
O5 O 0.1298(4) 0.7564(3) 0.5784(4) 0.0369 Uani
O6 O 0.3784(4) 0.4979(3) 0.7420(3) 0.0319 Uani
Ca1 Ca 0.25016(8) 0.53263(7) 0.54032(7) 0.0152 Uani
H3 H 0.035(7) 0.764(5) 0.574(6) 0.0660 Uiso
H4 H 0.350(6) 0.435(5) 0.772(5) 0.0420 Uiso
H5 H 0.486(6) 0.489(5) 0.734(5) 0.0510 Uiso
H6 H 0.164(7) 0.821(4) 0.550(5) 0.0780 Uiso
C12 C 0.0604(5) 0.6192(4) 0.0853(4) 0.0243 Uani
H7 H 0.1008 0.7002 0.1420 0.0290 Uiso
Br4 Br 0.82715(5) 0.01353(4) 0.70925(5) 0.0423 Uani
C14 C 0.5782(4) 0.1221(3) 0.5644(4) 0.0207 Uani
H8 H 0.6319 0.2039 0.6087 0.0250 Uiso
C16 C 0.6390(4) 0.0012(3) 0.5851(4) 0.0205 Uani
O17 O 0.5156(3) 0.6530(2) 0.5486(3) 0.0228 Uani
Ca7 Ca 0.74984(8) 0.46737(7) 0.45968(7) 0.0152 Uani
C9 C 0.0029(5) 0.6172(4) 0.9564(4) 0.0222 Uani
Br2 Br 0.17285(5) 0.98647(4) 0.29075(5) 0.0423 Uani
C6 C 0.4218(4) 0.8779(3) 0.4356(4) 0.0207 Uani
H2 H 0.3681 0.7961 0.3913 0.0250 Uiso
C8 C 0.3610(4) 0.9988(3) 0.4149(4) 0.0205 Uani
C13 C 0.5629(4) 0.8772(3) 0.5224(4) 0.0172 Uani
O10 O 0.7811(3) 0.7157(2) 0.5181(3) 0.0317 Uani
C15 C 0.6256(4) 0.7396(3) 0.5328(4) 0.0202 Uani
C1 C 0.9971(5) 0.3828(4) 0.0436(4) 0.0222 Uani
O14 O 0.9893(3) 0.5127(3) 0.6458(2) 0.0232 Uani
C4 C 0.9396(5) 0.3808(4) 0.9147(4) 0.0243 Uani
H1 H 0.8992 0.2998 0.8580 0.0290 Uiso
Br3 Br 0.99626(7) 0.78517(4) 0.90624(5) 0.0478 Uani
O8 O 0.7308(3) 0.4535(3) 0.6936(3) 0.0287 Uani
C10 C 0.9422(4) 0.4994(3) 0.8701(3) 0.0171 Uani
C11 C 0.8835(4) 0.4892(3) 0.7271(3) 0.0167 Uani
O11 O 0.8702(4) 0.2436(3) 0.4216(4) 0.0369 Uani
O12 O 0.6216(4) 0.5021(3) 0.2580(3) 0.0319 Uani
H9 H 0.965(7) 0.236(5) 0.426(6) 0.0660 Uiso
H10 H 0.650(6) 0.565(5) 0.228(5) 0.0420 Uiso
H11 H 0.514(6) 0.511(5) 0.266(5) 0.0510 Uiso
H12 H 0.836(7) 0.179(4) 0.450(5) 0.0780 Uiso
loop_
_atom_site_aniso_label
_atom_site_aniso_U_11
_atom_site_aniso_U_22
_atom_site_aniso_U_33
_atom_site_aniso_U_23
_atom_site_aniso_U_13
_atom_site_aniso_U_12
Br1 0.0934 0.0241 0.03 0.0156 -0.0052 -0.0015
O1 0.0207 0.0359 0.0153 0.0109 0.0014 -0.0012
O2 0.0184 0.0485 0.0217 0.0144 -0.0038 -0.0063
C2 0.0166 0.0242 0.012 0.0072 0.0023 0.0025
C3 0.019 0.0193 0.012 0.0043 -0.002 0.0023
C5 0.0158 0.0152 0.022 0.0074 0.0024 -0.0014
O3 0.0218 0.0149 0.0342 0.0116 -0.0035 -0.0055
O4 0.0181 0.0178 0.058 0.007 -0.0002 0.0034
C7 0.024 0.0165 0.02 0.0052 -0.0059 0.0016
O5 0.0232 0.0242 0.065 0.0129 0.0109 0.002
O6 0.023 0.0488 0.0295 0.0206 -0.0022 -0.0001
Ca1 0.0159 0.0155 0.015 0.0056 -0.0013 -0.0004
C12 0.037 0.0184 0.017 0.0049 -0.0067 -0.0061
Br4 0.0436 0.0231 0.0555 0.0039 -0.0292 0.00324
C14 0.0197 0.0135 0.028 0.0035 0.0024 -0.0034
C16 0.0163 0.0188 0.028 0.0091 -0.0017 0.0001
O17 0.0218 0.0149 0.0342 0.0116 -0.0035 -0.0055
Ca7 0.0159 0.0155 0.015 0.0056 -0.0013 -0.0004
C9 0.0283 0.0203 0.022 0.0132 -0.0027 0.0001
Br2 0.0436 0.0231 0.0555 0.0039 -0.0292 0.00324
C6 0.0197 0.0135 0.028 0.0035 0.0024 -0.0034
C8 0.0163 0.0188 0.028 0.0091 -0.0017 0.0001
C13 0.0158 0.0152 0.022 0.0074 0.0024 -0.0014
O10 0.0181 0.0178 0.058 0.007 -0.0002 0.0034
C15 0.024 0.0165 0.02 0.0052 -0.0059 0.0016
C1 0.0283 0.0203 0.022 0.0132 -0.0027 0.0001
O14 0.0207 0.0359 0.0153 0.0109 0.0014 -0.0012
C4 0.037 0.0184 0.017 0.0049 -0.0067 -0.0061
Br3 0.0934 0.0241 0.03 0.0156 -0.0052 -0.0015
O8 0.0184 0.0485 0.0217 0.0144 -0.0038 -0.0063
C10 0.0166 0.0242 0.012 0.0072 0.0023 0.0025
C11 0.019 0.0193 0.012 0.0043 -0.002 0.0023
O11 0.0232 0.0242 0.065 0.0129 0.0109 0.002
O12 0.023 0.0488 0.0295 0.0206 -0.0022 -0.0001
loop_
_geom_bond_atom_site_label_1
_geom_bond_atom_site_label_2
_geom_bond_site_symmetry_1
_geom_bond_site_symmetry_2
O1 C3 1_555 1_555
O2 C3 1_555 1_555
C2 C3 1_555 1_555
C5 C7 1_555 1_555
O3 C7 1_555 1_555
O4 C7 1_555 1_555
O5 Ca1 1_555 1_555
O6 Ca1 1_555 1_555
Ca1 O1 1_555 1_555
H3 O5 1_555 1_555
H4 O6 1_555 1_555
H5 O6 1_555 1_555
H6 O5 1_555 1_555
C12 C2 1_555 1_555
H7 C12 1_555 1_555
Br4 C16 1_555 1_555
C14 C5 1_555 1_555
H8 C14 1_555 1_555
O17 Ca1 1_555 1_555
Ca7 O3 1_555 1_555
O2 Ca1 1_555 1_555
O3 Ca1 1_555 1_555
O4 Ca1 1_555 1_555
C14 C16 1_555 1_555
O17 Ca7 1_555 1_555
Br2 C8 1_555 1_555
C6 H2 1_555 1_555
C13 C6 1_555 1_555
O17 C15 1_555 1_555
O10 C15 1_555 1_555
C15 C13 1_555 1_555
C6 C8 1_555 1_555
O10 Ca7 1_555 1_555
O14 Ca7 1_555 1_555
H1 C4 1_555 1_555
O14 C11 1_555 1_555
O8 C11 1_555 1_555
C10 C4 1_555 1_555
C11 C10 1_555 1_555
O11 Ca7 1_555 1_555
O12 Ca7 1_555 1_555
H9 O11 1_555 1_555
H10 O12 1_555 1_555
H11 O12 1_555 1_555
H12 O11 1_555 1_555
O8 Ca7 1_555 1_555

#END
