
###############################################################################
#
# This file contains modified crystal structure data generated from the
# MOF subset of the Cambridge Structural Database (CSD) v543 
# hosted by the Cambridge Crystallographic Data Centre (CCDC).
#
# This work is licensed under the Creative Commons
# Attribution-NonCommercial-ShareAlike 4.0 International License.
# To view a copy of this license, visit
# http://creativecommons.org/licenses/by-nc-sa/4.0/
# or send a letter to
# Creative Commons, PO Box 1866, Mountain View, CA 94042, USA.
#
# CIF created using the CSD Python API on 29 September 2022
# The structure has been converted into the P1 space group
# The structure has a 3D framework
# The original CSD entry AZAKIY is in the orthorhombic crystal system
# The framework has been calculated to contain at least 10.0% void space
# The void calculation uses a probe of radius 1.32A, grid spacing 0.4
#
###############################################################################

data_AZAKIY
_chemical_formula_moiety         '(C256 H160 Fe8 Hg16 N96 Se64)n'
_symmetry_cell_setting           triclinic
_symmetry_space_group_name_H-M   'P 1'
_symmetry_Int_Tables_number      1
_space_group_name_Hall           'P 1'
loop_
_symmetry_equiv_pos_site_id
_symmetry_equiv_pos_as_xyz
1 x,y,z
_cell_length_a                   13.1444(11)
_cell_length_b                   20.3957(15)
_cell_length_c                   36.9588(19)
_cell_angle_alpha                90
_cell_angle_beta                 90
_cell_angle_gamma                90
_cell_volume                     9908.26
loop_
_atom_site_label
_atom_site_type_symbol
_atom_site_fract_x
_atom_site_fract_y
_atom_site_fract_z
N1 N 0.0571(5) 0.3827(4) 0.09363(19)
C1 C 0.0143(6) 0.3442(4) 0.0768(2)
Fe4 Fe 0.125000 0.45513(8) 0.125000
Se1 Se 0.03825(8) 0.39540(6) 0.96672(3)
N10 N 0.0023(5) 0.5446(3) 0.83833(19)
Hg1 Hg 0.875000 0.375000 0.00546(2)
Se2 Se 0.94344(7) 0.28281(4) 0.05108(2)
N4 N 0.2523(5) 0.4554(3) 0.08833(19)
C9 C 0.2415(7) 0.4526(4) 0.0524(2)
H6 H 0.176949 0.444759 0.043006
C10 C 0.3475(6) 0.4641(5) 0.1009(2)
H7 H 0.357880 0.464794 0.125771
C11 C 0.4301(7) 0.4721(5) 0.0785(2)
H8 H 0.494843 0.476571 0.088378
C12 C 0.4173(6) 0.4736(5) 0.0411(2)
C13 C 0.3194(7) 0.4607(5) 0.0289(2)
H9 H 0.307259 0.457460 0.004126
C14 C 0.5027(6) 0.4900(5) 0.0176(2)
H10 H 0.567428 0.486325 0.027573
Se4 Se 0.80656(7) 0.46719(4) 0.05108(2)
N5 N 0.6929(5) 0.3673(4) 0.09363(19)
C15 C 0.7357(6) 0.4058(4) 0.0768(2)
Fe5 Fe 0.625000 0.29487(8) 0.125000
Fe1 Fe 0.875000 0.54487(8) 0.875000
N2 N 0.9417(5) 0.4733(4) 0.9085(2)
N3 N 0.7477(5) 0.5446(3) 0.91167(19)
C2 C 0.9765(6) 0.4432(4) 0.9310(3)
C3 C 0.7585(7) 0.5474(4) 0.9476(2)
H1 H 0.823051 0.555241 0.956994
C4 C 0.6525(6) 0.5359(5) 0.8991(2)
H2 H 0.642120 0.535206 0.874229
C5 C 0.5699(7) 0.5279(5) 0.9215(2)
H3 H 0.505157 0.523429 0.911622
C6 C 0.5827(6) 0.5264(5) 0.9589(2)
C7 C 0.6806(7) 0.5393(5) 0.9711(2)
H4 H 0.692741 0.542540 0.995874
C8 C 0.4973(6) 0.5100(5) 0.9824(2)
H5 H 0.432572 0.513675 0.972427
Se3 Se 0.71175(8) 0.35460(6) 0.96672(3)
N6 N 0.8083(5) 0.2767(4) 0.9085(2)
C16 C 0.7735(6) 0.3068(4) 0.9310(3)
Fe2 Fe 0.875000 0.20513(8) 0.875000
N7 N 0.9429(5) 0.6173(4) 0.90637(19)
N8 N 0.8071(5) 0.6173(4) 0.84363(19)
N9 N 0.8083(5) 0.4733(4) 0.8415(2)
N4_2 N 0.4977(5) 0.2946(3) 0.08833(19)
C9_2 C 0.5085(7) 0.2974(4) 0.0524(2)
H6_2 H 0.573051 0.305241 0.043006
C10_2 C 0.4025(6) 0.2859(5) 0.1009(2)
H7_2 H 0.392120 0.285206 0.125771
C11_2 C 0.3199(7) 0.2779(5) 0.0785(2)
H8_2 H 0.255157 0.273429 0.088378
C12_2 C 0.3327(6) 0.2764(5) 0.0411(2)
C13_2 C 0.4306(7) 0.2893(5) 0.0289(2)
H9_2 H 0.442741 0.292540 0.004126
C14_2 C 0.2473(6) 0.2600(5) 0.0176(2)
H10_2 H 0.182572 0.263675 0.027573
N3_2 N 0.0023(5) 0.2054(3) 0.91167(19)
C4_2 C 0.0975(6) 0.2141(5) 0.8991(2)
H2_2 H 0.107880 0.214794 0.874229
C5_2 C 0.1801(7) 0.2221(5) 0.9215(2)
H3_2 H 0.244843 0.226571 0.911622
C6_2 C 0.1673(6) 0.2236(5) 0.9589(2)
C7_2 C 0.0694(7) 0.2107(5) 0.9711(2)
H4_2 H 0.057259 0.207460 0.995874
C8_2 C 0.2527(6) 0.2400(5) 0.9824(2)
H5_2 H 0.317428 0.236325 0.972427
C3_2 C 0.9915(7) 0.2026(4) 0.9476(2)
H1_2 H 0.926949 0.194759 0.956994
N7_2 N 0.8071(5) 0.1327(4) 0.90637(19)
N8_2 N 0.9429(5) 0.1327(4) 0.84363(19)
N9_2 N 0.9417(5) 0.2767(4) 0.8415(2)
N10_2 N 0.7477(5) 0.2054(3) 0.83833(19)
C4_3 C 0.0975(6) 0.5359(5) 0.8509(2)
H2_3 H 0.107880 0.535206 0.875771
C5_3 C 0.1801(7) 0.5279(5) 0.8285(2)
H3_3 H 0.244843 0.523429 0.838378
C6_3 C 0.1673(6) 0.5264(5) 0.7911(2)
C7_3 C 0.0694(7) 0.5393(5) 0.7789(2)
H4_3 H 0.057259 0.542540 0.754126
C8_3 C 0.2527(6) 0.5100(5) 0.7676(2)
H5_3 H 0.317428 0.513675 0.777573
N4_3 N 0.4977(5) 0.4554(3) 0.66167(19)
C9_3 C 0.5085(7) 0.4526(4) 0.6976(2)
H6_3 H 0.573051 0.444759 0.706994
C10_3 C 0.4025(6) 0.4641(5) 0.6491(2)
H7_3 H 0.392120 0.464794 0.624229
C11_3 C 0.3199(7) 0.4721(5) 0.6715(2)
H8_3 H 0.255157 0.476571 0.661622
C12_3 C 0.3327(6) 0.4736(5) 0.7089(2)
C13_3 C 0.4306(7) 0.4607(5) 0.7211(2)
H9_3 H 0.442741 0.457460 0.745874
C14_3 C 0.2473(6) 0.4900(5) 0.7324(2)
H10_3 H 0.182572 0.486325 0.722427
Se3_2 Se 0.03825(8) 0.35460(6) 0.78328(3)
N5_2 N 0.0571(5) 0.3673(4) 0.65637(19)
C15_2 C 0.0143(6) 0.4058(4) 0.6732(2)
Fe3 Fe 0.625000 0.45513(8) 0.625000
Fe5_2 Fe 0.125000 0.29487(8) 0.625000
Hg1_2 Hg 0.875000 0.375000 0.74454(2)
Se1_2 Se 0.71175(8) 0.39540(6) 0.78328(3)
Se2_2 Se 0.80656(7) 0.28281(4) 0.69892(2)
N1_2 N 0.6929(5) 0.3827(4) 0.65637(19)
C1_2 C 0.7357(6) 0.3442(4) 0.6732(2)
C2_2 C 0.7735(6) 0.4432(4) 0.8190(3)
C3_3 C 0.9915(7) 0.5474(4) 0.8024(2)
H1_3 H 0.926949 0.555241 0.793006
Se4_2 Se 0.94344(7) 0.46719(4) 0.69892(2)
C16_2 C 0.9765(6) 0.3068(4) 0.8190(3)
C3_4 C 0.7585(7) 0.2026(4) 0.8024(2)
H1_4 H 0.823051 0.194759 0.793006
C4_4 C 0.6525(6) 0.2141(5) 0.8509(2)
H2_4 H 0.642120 0.214794 0.875771
C5_4 C 0.5699(7) 0.2221(5) 0.8285(2)
H3_4 H 0.505157 0.226571 0.838378
C6_4 C 0.5827(6) 0.2236(5) 0.7911(2)
C7_4 C 0.6806(7) 0.2107(5) 0.7789(2)
H4_4 H 0.692741 0.207460 0.754126
C8_4 C 0.4973(6) 0.2400(5) 0.7676(2)
H5_4 H 0.432572 0.236325 0.777573
N4_4 N 0.2523(5) 0.2946(3) 0.66167(19)
C9_4 C 0.2415(7) 0.2974(4) 0.6976(2)
H6_4 H 0.176949 0.305241 0.706994
C10_4 C 0.3475(6) 0.2859(5) 0.6491(2)
H7_4 H 0.357880 0.285206 0.624229
C11_4 C 0.4301(7) 0.2779(5) 0.6715(2)
H8_4 H 0.494843 0.273429 0.661622
C12_4 C 0.4173(6) 0.2764(5) 0.7089(2)
C13_4 C 0.3194(7) 0.2893(5) 0.7211(2)
H9_4 H 0.307259 0.292540 0.745874
C14_4 C 0.5027(6) 0.2600(5) 0.7324(2)
H10_4 H 0.567428 0.263675 0.722427
N10_3 N 0.0023(5) 0.0446(3) 0.33833(19)
Se1_3 Se 0.03825(8) 0.89540(6) 0.46672(3)
N1_3 N 0.0571(5) 0.8827(4) 0.59363(19)
C1_3 C 0.0143(6) 0.8442(4) 0.5768(2)
Fe4_2 Fe 0.125000 0.95513(8) 0.625000
Fe1_2 Fe 0.875000 0.04487(8) 0.375000
N3_3 N 0.7477(5) 0.0446(3) 0.41167(19)
C3_5 C 0.7585(7) 0.0474(4) 0.4476(2)
H1_5 H 0.823051 0.055241 0.456994
C4_5 C 0.6525(6) 0.0359(5) 0.3991(2)
H2_5 H 0.642120 0.035206 0.374229
C5_5 C 0.5699(7) 0.0279(5) 0.4215(2)
H3_5 H 0.505157 0.023429 0.411622
C6_5 C 0.5827(6) 0.0264(5) 0.4589(2)
C7_5 C 0.6806(7) 0.0393(5) 0.4711(2)
H4_5 H 0.692741 0.042540 0.495874
C8_5 C 0.4973(6) 0.0100(5) 0.4824(2)
H5_5 H 0.432572 0.013675 0.472427
N7_3 N 0.9429(5) 0.1173(4) 0.40637(19)
N8_3 N 0.8071(5) 0.1173(4) 0.34363(19)
Hg1_3 Hg 0.875000 0.875000 0.50546(2)
Se2_3 Se 0.94344(7) 0.78281(4) 0.55108(2)
N2_2 N 0.9417(5) 0.9733(4) 0.4085(2)
C2_3 C 0.9765(6) 0.9432(4) 0.4310(3)
N4_5 N 0.2523(5) 0.9554(3) 0.58833(19)
C9_5 C 0.2415(7) 0.9526(4) 0.5524(2)
H6_5 H 0.176949 0.944759 0.543006
C10_5 C 0.3475(6) 0.9641(5) 0.6009(2)
H7_5 H 0.357880 0.964794 0.625771
C11_5 C 0.4301(7) 0.9721(5) 0.5785(2)
H8_5 H 0.494843 0.976571 0.588378
C12_5 C 0.4173(6) 0.9736(5) 0.5411(2)
C13_5 C 0.3194(7) 0.9607(5) 0.5289(2)
H9_5 H 0.307259 0.957460 0.504126
C14_5 C 0.5027(6) 0.9900(5) 0.5176(2)
H10_5 H 0.567428 0.986325 0.527573
Se3_3 Se 0.71175(8) 0.85460(6) 0.46672(3)
Se4_3 Se 0.80656(7) 0.96719(4) 0.55108(2)
N5_3 N 0.6929(5) 0.8673(4) 0.59363(19)
N6_2 N 0.8083(5) 0.7767(4) 0.4085(2)
C15_3 C 0.7357(6) 0.9058(4) 0.5768(2)
C16_3 C 0.7735(6) 0.8068(4) 0.4310(3)
Fe2_2 Fe 0.875000 0.70513(8) 0.375000
Fe5_3 Fe 0.625000 0.79487(8) 0.625000
N9_3 N 0.8083(5) 0.9733(4) 0.3415(2)
N3_4 N 0.0023(5) 0.7054(3) 0.41167(19)
C4_6 C 0.0975(6) 0.7141(5) 0.3991(2)
H2_6 H 0.107880 0.714794 0.374229
C5_6 C 0.1801(7) 0.7221(5) 0.4215(2)
H3_6 H 0.244843 0.726571 0.411622
C6_6 C 0.1673(6) 0.7236(5) 0.4589(2)
C7_6 C 0.0694(7) 0.7107(5) 0.4711(2)
H4_6 H 0.057259 0.707460 0.495874
C8_6 C 0.2527(6) 0.7400(5) 0.4824(2)
H5_6 H 0.317428 0.736325 0.472427
N4_6 N 0.4977(5) 0.7946(3) 0.58833(19)
C9_6 C 0.5085(7) 0.7974(4) 0.5524(2)
H6_6 H 0.573051 0.805241 0.543006
C10_6 C 0.4025(6) 0.7859(5) 0.6009(2)
H7_6 H 0.392120 0.785206 0.625771
C11_6 C 0.3199(7) 0.7779(5) 0.5785(2)
H8_6 H 0.255157 0.773429 0.588378
C12_6 C 0.3327(6) 0.7764(5) 0.5411(2)
C13_6 C 0.4306(7) 0.7893(5) 0.5289(2)
H9_6 H 0.442741 0.792540 0.504126
C14_6 C 0.2473(6) 0.7600(5) 0.5176(2)
H10_6 H 0.182572 0.763675 0.527573
C3_6 C 0.9915(7) 0.7026(4) 0.4476(2)
H1_6 H 0.926949 0.694759 0.456994
N7_4 N 0.8071(5) 0.6327(4) 0.40637(19)
N8_4 N 0.9429(5) 0.6327(4) 0.34363(19)
N9_4 N 0.9417(5) 0.7767(4) 0.3415(2)
N10_4 N 0.7477(5) 0.7054(3) 0.33833(19)
C4_7 C 0.0975(6) 0.0359(5) 0.3509(2)
H2_7 H 0.107880 0.035206 0.375771
C5_7 C 0.1801(7) 0.0279(5) 0.3285(2)
H3_7 H 0.244843 0.023429 0.338378
C6_7 C 0.1673(6) 0.0264(5) 0.2911(2)
C7_7 C 0.0694(7) 0.0393(5) 0.2789(2)
H4_7 H 0.057259 0.042540 0.254126
C8_7 C 0.2527(6) 0.0100(5) 0.2676(2)
H5_7 H 0.317428 0.013675 0.277573
N4_7 N 0.4977(5) 0.9554(3) 0.16167(19)
C9_7 C 0.5085(7) 0.9526(4) 0.1976(2)
H6_7 H 0.573051 0.944759 0.206994
C10_7 C 0.4025(6) 0.9641(5) 0.1491(2)
H7_7 H 0.392120 0.964794 0.124229
C11_7 C 0.3199(7) 0.9721(5) 0.1715(2)
H8_7 H 0.255157 0.976571 0.161622
C12_7 C 0.3327(6) 0.9736(5) 0.2089(2)
C13_7 C 0.4306(7) 0.9607(5) 0.2211(2)
H9_7 H 0.442741 0.957460 0.245874
C14_7 C 0.2473(6) 0.9900(5) 0.2324(2)
H10_7 H 0.182572 0.986325 0.222427
Se3_4 Se 0.03825(8) 0.85460(6) 0.28328(3)
N5_4 N 0.0571(5) 0.8673(4) 0.15637(19)
C15_4 C 0.0143(6) 0.9058(4) 0.1732(2)
Fe3_2 Fe 0.625000 0.95513(8) 0.125000
Fe5_4 Fe 0.125000 0.79487(8) 0.125000
C3_7 C 0.9915(7) 0.0474(4) 0.3024(2)
H1_7 H 0.926949 0.055241 0.293006
Hg1_4 Hg 0.875000 0.875000 0.24454(2)
Se1_4 Se 0.71175(8) 0.89540(6) 0.28328(3)
Se2_4 Se 0.80656(7) 0.78281(4) 0.19892(2)
N1_4 N 0.6929(5) 0.8827(4) 0.15637(19)
C1_4 C 0.7357(6) 0.8442(4) 0.1732(2)
C2_4 C 0.7735(6) 0.9432(4) 0.3190(3)
Se4_4 Se 0.94344(7) 0.96719(4) 0.19892(2)
C16_4 C 0.9765(6) 0.8068(4) 0.3190(3)
C3_8 C 0.7585(7) 0.7026(4) 0.3024(2)
H1_8 H 0.823051 0.694759 0.293006
C4_8 C 0.6525(6) 0.7141(5) 0.3509(2)
H2_8 H 0.642120 0.714794 0.375771
C5_8 C 0.5699(7) 0.7221(5) 0.3285(2)
H3_8 H 0.505157 0.726571 0.338378
C6_8 C 0.5827(6) 0.7236(5) 0.2911(2)
C7_8 C 0.6806(7) 0.7107(5) 0.2789(2)
H4_8 H 0.692741 0.707460 0.254126
C8_8 C 0.4973(6) 0.7400(5) 0.2676(2)
H5_8 H 0.432572 0.736325 0.277573
N4_8 N 0.2523(5) 0.7946(3) 0.16167(19)
C9_8 C 0.2415(7) 0.7974(4) 0.1976(2)
H6_8 H 0.176949 0.805241 0.206994
C10_8 C 0.3475(6) 0.7859(5) 0.1491(2)
H7_8 H 0.357880 0.785206 0.124229
C11_8 C 0.4301(7) 0.7779(5) 0.1715(2)
H8_8 H 0.494843 0.773429 0.161622
C12_8 C 0.4173(6) 0.7764(5) 0.2089(2)
C13_8 C 0.3194(7) 0.7893(5) 0.2211(2)
H9_8 H 0.307259 0.792540 0.245874
C14_8 C 0.5027(6) 0.7600(5) 0.2324(2)
H10_8 H 0.567428 0.763675 0.222427
Fe1_3 Fe 0.375000 0.54487(8) 0.375000
Hg1_5 Hg 0.375000 0.375000 0.50546(2)
Se1_5 Se 0.53825(8) 0.39540(6) 0.46672(3)
Se2_5 Se 0.44344(7) 0.28281(4) 0.55108(2)
N1_5 N 0.5571(5) 0.3827(4) 0.59363(19)
N2_3 N 0.4417(5) 0.4733(4) 0.4085(2)
N3_5 N 0.2477(5) 0.5446(3) 0.41167(19)
C1_5 C 0.5143(6) 0.3442(4) 0.5768(2)
C2_5 C 0.4765(6) 0.4432(4) 0.4310(3)
C3_9 C 0.2585(7) 0.5474(4) 0.4476(2)
H1_9 H 0.323051 0.555241 0.456994
C4_9 C 0.1525(6) 0.5359(5) 0.3991(2)
H2_9 H 0.142120 0.535206 0.374229
C5_9 C 0.0699(7) 0.5279(5) 0.4215(2)
H3_9 H 0.005157 0.523429 0.411622
C6_9 C 0.0827(6) 0.5264(5) 0.4589(2)
C7_9 C 0.1806(7) 0.5393(5) 0.4711(2)
H4_9 H 0.192741 0.542540 0.495874
C14_9 C 0.0027(6) 0.4900(5) 0.5176(2)
H10_9 H 0.067428 0.486325 0.527573
Se3_5 Se 0.21175(8) 0.35460(6) 0.46672(3)
Se4_5 Se 0.30656(7) 0.46719(4) 0.55108(2)
N5_5 N 0.1929(5) 0.3673(4) 0.59363(19)
N6_3 N 0.3083(5) 0.2767(4) 0.4085(2)
C15_5 C 0.2357(6) 0.4058(4) 0.5768(2)
C16_5 C 0.2735(6) 0.3068(4) 0.4310(3)
Fe2_3 Fe 0.375000 0.20513(8) 0.375000
N7_5 N 0.4429(5) 0.6173(4) 0.40637(19)
N8_5 N 0.3071(5) 0.6173(4) 0.34363(19)
N9_5 N 0.3083(5) 0.4733(4) 0.3415(2)
N10_5 N 0.5023(5) 0.5446(3) 0.33833(19)
C8_9 C 0.9973(6) 0.5100(5) 0.4824(2)
H5_9 H 0.932572 0.513675 0.472427
N4_9 N 0.7523(5) 0.4554(3) 0.58833(19)
C9_9 C 0.7415(7) 0.4526(4) 0.5524(2)
H6_9 H 0.676949 0.444759 0.543006
C10_9 C 0.8475(6) 0.4641(5) 0.6009(2)
H7_9 H 0.857880 0.464794 0.625771
C11_9 C 0.9301(7) 0.4721(5) 0.5785(2)
H8_9 H 0.994843 0.476571 0.588378
C12_9 C 0.9173(6) 0.4736(5) 0.5411(2)
C13_9 C 0.8194(7) 0.4607(5) 0.5289(2)
H9_9 H 0.807259 0.457460 0.504126
C9_10 C 0.0085(7) 0.2974(4) 0.5524(2)
H6_10 H 0.073051 0.305241 0.543006
N3_6 N 0.5023(5) 0.2054(3) 0.41167(19)
C3_10 C 0.4915(7) 0.2026(4) 0.4476(2)
H1_10 H 0.426949 0.194759 0.456994
C4_10 C 0.5975(6) 0.2141(5) 0.3991(2)
H2_10 H 0.607880 0.214794 0.374229
C5_10 C 0.6801(7) 0.2221(5) 0.4215(2)
H3_10 H 0.744843 0.226571 0.411622
C6_10 C 0.6673(6) 0.2236(5) 0.4589(2)
C7_10 C 0.5694(7) 0.2107(5) 0.4711(2)
H4_10 H 0.557259 0.207460 0.495874
C8_10 C 0.7527(6) 0.2400(5) 0.4824(2)
H5_10 H 0.817428 0.236325 0.472427
N4_10 N 0.9977(5) 0.2946(3) 0.58833(19)
C10_10 C 0.9025(6) 0.2859(5) 0.6009(2)
H7_10 H 0.892120 0.285206 0.625771
C11_10 C 0.8199(7) 0.2779(5) 0.5785(2)
H8_10 H 0.755157 0.273429 0.588378
C12_10 C 0.8327(6) 0.2764(5) 0.5411(2)
C13_10 C 0.9306(7) 0.2893(5) 0.5289(2)
H9_10 H 0.942741 0.292540 0.504126
C14_10 C 0.7473(6) 0.2600(5) 0.5176(2)
H10_10 H 0.682572 0.263675 0.527573
N7_6 N 0.3071(5) 0.1327(4) 0.40637(19)
N8_6 N 0.4429(5) 0.1327(4) 0.34363(19)
N9_6 N 0.4417(5) 0.2767(4) 0.3415(2)
N10_6 N 0.2477(5) 0.2054(3) 0.33833(19)
C9_11 C 0.0085(7) 0.4526(4) 0.1976(2)
H6_11 H 0.073051 0.444759 0.206994
Hg1_6 Hg 0.375000 0.375000 0.24454(2)
Se1_6 Se 0.21175(8) 0.39540(6) 0.28328(3)
Se2_6 Se 0.30656(7) 0.28281(4) 0.19892(2)
N1_6 N 0.1929(5) 0.3827(4) 0.15637(19)
C1_6 C 0.2357(6) 0.3442(4) 0.1732(2)
C2_6 C 0.2735(6) 0.4432(4) 0.3190(3)
C3_11 C 0.4915(7) 0.5474(4) 0.3024(2)
H1_11 H 0.426949 0.555241 0.293006
C4_11 C 0.5975(6) 0.5359(5) 0.3509(2)
H2_11 H 0.607880 0.535206 0.375771
C5_11 C 0.6801(7) 0.5279(5) 0.3285(2)
H3_11 H 0.744843 0.523429 0.338378
C6_11 C 0.6673(6) 0.5264(5) 0.2911(2)
C7_11 C 0.5694(7) 0.5393(5) 0.2789(2)
H4_11 H 0.557259 0.542540 0.254126
C8_11 C 0.7527(6) 0.5100(5) 0.2676(2)
H5_11 H 0.817428 0.513675 0.277573
N4_11 N 0.9977(5) 0.4554(3) 0.16167(19)
C10_11 C 0.9025(6) 0.4641(5) 0.1491(2)
H7_11 H 0.892120 0.464794 0.124229
C11_11 C 0.8199(7) 0.4721(5) 0.1715(2)
H8_11 H 0.755157 0.476571 0.161622
C12_11 C 0.8327(6) 0.4736(5) 0.2089(2)
C13_11 C 0.9306(7) 0.4607(5) 0.2211(2)
H9_11 H 0.942741 0.457460 0.245874
C14_11 C 0.7473(6) 0.4900(5) 0.2324(2)
H10_11 H 0.682572 0.486325 0.222427
Se3_6 Se 0.53825(8) 0.35460(6) 0.28328(3)
Se4_6 Se 0.44344(7) 0.46719(4) 0.19892(2)
N5_6 N 0.5571(5) 0.3673(4) 0.15637(19)
C15_6 C 0.5143(6) 0.4058(4) 0.1732(2)
C16_6 C 0.4765(6) 0.3068(4) 0.3190(3)
C3_12 C 0.2585(7) 0.2026(4) 0.3024(2)
H1_12 H 0.323051 0.194759 0.293006
C4_12 C 0.1525(6) 0.2141(5) 0.3509(2)
H2_12 H 0.142120 0.214794 0.375771
C5_12 C 0.0699(7) 0.2221(5) 0.3285(2)
H3_12 H 0.005157 0.226571 0.338378
C6_12 C 0.0827(6) 0.2236(5) 0.2911(2)
C7_12 C 0.1806(7) 0.2107(5) 0.2789(2)
H4_12 H 0.192741 0.207460 0.254126
C14_12 C 0.0027(6) 0.2600(5) 0.2324(2)
H10_12 H 0.067428 0.263675 0.222427
C8_12 C 0.9973(6) 0.2400(5) 0.2676(2)
H5_12 H 0.932572 0.236325 0.277573
N4_12 N 0.7523(5) 0.2946(3) 0.16167(19)
C9_12 C 0.7415(7) 0.2974(4) 0.1976(2)
H6_12 H 0.676949 0.305241 0.206994
C10_12 C 0.8475(6) 0.2859(5) 0.1491(2)
H7_12 H 0.857880 0.285206 0.124229
C11_12 C 0.9301(7) 0.2779(5) 0.1715(2)
H8_12 H 0.994843 0.273429 0.161622
C12_12 C 0.9173(6) 0.2764(5) 0.2089(2)
C13_12 C 0.8194(7) 0.2893(5) 0.2211(2)
H9_12 H 0.807259 0.292540 0.245874
Fe1_4 Fe 0.375000 0.04487(8) 0.875000
N3_7 N 0.2477(5) 0.0446(3) 0.91167(19)
C3_13 C 0.2585(7) 0.0474(4) 0.9476(2)
H1_13 H 0.323051 0.055241 0.956994
C4_13 C 0.1525(6) 0.0359(5) 0.8991(2)
H2_13 H 0.142120 0.035206 0.874229
C5_13 C 0.0699(7) 0.0279(5) 0.9215(2)
H3_13 H 0.005157 0.023429 0.911622
C6_13 C 0.0827(6) 0.0264(5) 0.9589(2)
C7_13 C 0.1806(7) 0.0393(5) 0.9711(2)
H4_13 H 0.192741 0.042540 0.995874
N7_7 N 0.4429(5) 0.1173(4) 0.90637(19)
N8_7 N 0.3071(5) 0.1173(4) 0.84363(19)
N10_7 N 0.5023(5) 0.0446(3) 0.83833(19)
Hg1_7 Hg 0.375000 0.875000 0.00546(2)
Se2_7 Se 0.44344(7) 0.78281(4) 0.05108(2)
N1_7 N 0.5571(5) 0.8827(4) 0.09363(19)
C1_7 C 0.5143(6) 0.8442(4) 0.0768(2)
C14_13 C 0.0027(6) 0.9900(5) 0.0176(2)
H10_13 H 0.067428 0.986325 0.027573
Se4_7 Se 0.30656(7) 0.96719(4) 0.05108(2)
N5_7 N 0.1929(5) 0.8673(4) 0.09363(19)
C15_7 C 0.2357(6) 0.9058(4) 0.0768(2)
Se1_7 Se 0.53825(8) 0.89540(6) 0.96672(3)
N2_4 N 0.4417(5) 0.9733(4) 0.9085(2)
C2_7 C 0.4765(6) 0.9432(4) 0.9310(3)
Se3_7 Se 0.21175(8) 0.85460(6) 0.96672(3)
N6_4 N 0.3083(5) 0.7767(4) 0.9085(2)
C16_7 C 0.2735(6) 0.8068(4) 0.9310(3)
Fe2_4 Fe 0.375000 0.70513(8) 0.875000
N9_7 N 0.3083(5) 0.9733(4) 0.8415(2)
C8_13 C 0.9973(6) 0.0100(5) 0.9824(2)
H5_13 H 0.932572 0.013675 0.972427
N4_13 N 0.7523(5) 0.9554(3) 0.08833(19)
C9_13 C 0.7415(7) 0.9526(4) 0.0524(2)
H6_13 H 0.676949 0.944759 0.043006
C10_13 C 0.8475(6) 0.9641(5) 0.1009(2)
H7_13 H 0.857880 0.964794 0.125771
C11_13 C 0.9301(7) 0.9721(5) 0.0785(2)
H8_13 H 0.994843 0.976571 0.088378
C12_13 C 0.9173(6) 0.9736(5) 0.0411(2)
C13_13 C 0.8194(7) 0.9607(5) 0.0289(2)
H9_13 H 0.807259 0.957460 0.004126
C9_14 C 0.0085(7) 0.7974(4) 0.0524(2)
H6_14 H 0.073051 0.805241 0.043006
N4_14 N 0.9977(5) 0.7946(3) 0.08833(19)
C10_14 C 0.9025(6) 0.7859(5) 0.1009(2)
H7_14 H 0.892120 0.785206 0.125771
C11_14 C 0.8199(7) 0.7779(5) 0.0785(2)
H8_14 H 0.755157 0.773429 0.088378
C12_14 C 0.8327(6) 0.7764(5) 0.0411(2)
C13_14 C 0.9306(7) 0.7893(5) 0.0289(2)
H9_14 H 0.942741 0.792540 0.004126
C14_14 C 0.7473(6) 0.7600(5) 0.0176(2)
H10_14 H 0.682572 0.763675 0.027573
N3_8 N 0.5023(5) 0.7054(3) 0.91167(19)
C3_14 C 0.4915(7) 0.7026(4) 0.9476(2)
H1_14 H 0.426949 0.694759 0.956994
C4_14 C 0.5975(6) 0.7141(5) 0.8991(2)
H2_14 H 0.607880 0.714794 0.874229
C5_14 C 0.6801(7) 0.7221(5) 0.9215(2)
H3_14 H 0.744843 0.726571 0.911622
C6_14 C 0.6673(6) 0.7236(5) 0.9589(2)
C7_14 C 0.5694(7) 0.7107(5) 0.9711(2)
H4_14 H 0.557259 0.707460 0.995874
C8_14 C 0.7527(6) 0.7400(5) 0.9824(2)
H5_14 H 0.817428 0.736325 0.972427
N7_8 N 0.3071(5) 0.6327(4) 0.90637(19)
N8_8 N 0.4429(5) 0.6327(4) 0.84363(19)
N9_8 N 0.4417(5) 0.7767(4) 0.8415(2)
N10_8 N 0.2477(5) 0.7054(3) 0.83833(19)
C9_15 C 0.0085(7) 0.9526(4) 0.6976(2)
H6_15 H 0.073051 0.944759 0.706994
C3_15 C 0.4915(7) 0.0474(4) 0.8024(2)
H1_15 H 0.426949 0.055241 0.793006
C4_15 C 0.5975(6) 0.0359(5) 0.8509(2)
H2_15 H 0.607880 0.035206 0.875771
C5_15 C 0.6801(7) 0.0279(5) 0.8285(2)
H3_15 H 0.744843 0.023429 0.838378
C6_15 C 0.6673(6) 0.0264(5) 0.7911(2)
C7_15 C 0.5694(7) 0.0393(5) 0.7789(2)
H4_15 H 0.557259 0.042540 0.754126
C8_15 C 0.7527(6) 0.0100(5) 0.7676(2)
H5_15 H 0.817428 0.013675 0.777573
Hg1_8 Hg 0.375000 0.875000 0.74454(2)
Se1_8 Se 0.21175(8) 0.89540(6) 0.78328(3)
Se2_8 Se 0.30656(7) 0.78281(4) 0.69892(2)
N1_8 N 0.1929(5) 0.8827(4) 0.65637(19)
C1_8 C 0.2357(6) 0.8442(4) 0.6732(2)
C2_8 C 0.2735(6) 0.9432(4) 0.8190(3)
N4_15 N 0.9977(5) 0.9554(3) 0.66167(19)
C10_15 C 0.9025(6) 0.9641(5) 0.6491(2)
H7_15 H 0.892120 0.964794 0.624229
C11_15 C 0.8199(7) 0.9721(5) 0.6715(2)
H8_15 H 0.755157 0.976571 0.661622
C12_15 C 0.8327(6) 0.9736(5) 0.7089(2)
C13_15 C 0.9306(7) 0.9607(5) 0.7211(2)
H9_15 H 0.942741 0.957460 0.745874
C14_15 C 0.7473(6) 0.9900(5) 0.7324(2)
H10_15 H 0.682572 0.986325 0.722427
Se3_8 Se 0.53825(8) 0.85460(6) 0.78328(3)
Se4_8 Se 0.44344(7) 0.96719(4) 0.69892(2)
N5_8 N 0.5571(5) 0.8673(4) 0.65637(19)
C15_8 C 0.5143(6) 0.9058(4) 0.6732(2)
C16_8 C 0.4765(6) 0.8068(4) 0.8190(3)
C3_16 C 0.2585(7) 0.7026(4) 0.8024(2)
H1_16 H 0.323051 0.694759 0.793006
C4_16 C 0.1525(6) 0.7141(5) 0.8509(2)
H2_16 H 0.142120 0.714794 0.875771
C5_16 C 0.0699(7) 0.7221(5) 0.8285(2)
H3_16 H 0.005157 0.726571 0.838378
C6_16 C 0.0827(6) 0.7236(5) 0.7911(2)
C7_16 C 0.1806(7) 0.7107(5) 0.7789(2)
H4_16 H 0.192741 0.707460 0.754126
C14_16 C 0.0027(6) 0.7600(5) 0.7324(2)
H10_16 H 0.067428 0.763675 0.722427
C8_16 C 0.9973(6) 0.7400(5) 0.7676(2)
H5_16 H 0.932572 0.736325 0.777573
N4_16 N 0.7523(5) 0.7946(3) 0.66167(19)
C9_16 C 0.7415(7) 0.7974(4) 0.6976(2)
H6_16 H 0.676949 0.805241 0.706994
C10_16 C 0.8475(6) 0.7859(5) 0.6491(2)
H7_16 H 0.857880 0.785206 0.624229
C11_16 C 0.9301(7) 0.7779(5) 0.6715(2)
H8_16 H 0.994843 0.773429 0.661622
C12_16 C 0.9173(6) 0.7764(5) 0.7089(2)
C13_16 C 0.8194(7) 0.7893(5) 0.7211(2)
H9_16 H 0.807259 0.792540 0.745874
N2_5 N 0.0583(5) 0.5267(4) 0.0915(2)
C2_9 C 0.0235(6) 0.5568(4) 0.0690(3)
Se3_9 Se 0.28825(8) 0.64540(6) 0.03328(3)
N6_5 N 0.1917(5) 0.7233(4) 0.0915(2)
C16_9 C 0.2265(6) 0.6932(4) 0.0690(3)
N9_9 N 0.1917(5) 0.5267(4) 0.1585(2)
Hg1_9 Hg 0.125000 0.625000 0.99454(2)
Se2_9 Se 0.05656(7) 0.71719(4) 0.94892(2)
Se4_9 Se 0.19344(7) 0.53281(4) 0.94892(2)
C15_9 C 0.2643(6) 0.5942(4) 0.9232(2)
Se1_9 Se 0.96175(8) 0.60460(6) 0.03328(3)
C1_9 C 0.9857(6) 0.6558(4) 0.9232(2)
N9_10 N 0.0583(5) 0.7233(4) 0.1585(2)
Hg1_10 Hg 0.125000 0.625000 0.25546(2)
Se1_10 Se 0.28825(8) 0.60460(6) 0.21672(3)
Se2_10 Se 0.19344(7) 0.71719(4) 0.30108(2)
C1_10 C 0.2643(6) 0.6558(4) 0.3268(2)
C2_10 C 0.2265(6) 0.5568(4) 0.1810(3)
Se4_10 Se 0.05656(7) 0.53281(4) 0.30108(2)
C16_10 C 0.0235(6) 0.6932(4) 0.1810(3)
Se3_10 Se 0.96175(8) 0.64540(6) 0.21672(3)
C15_10 C 0.9857(6) 0.5942(4) 0.3268(2)
Hg1_11 Hg 0.125000 0.125000 0.49454(2)
Se2_11 Se 0.05656(7) 0.21719(4) 0.44892(2)
N2_6 N 0.0583(5) 0.0267(4) 0.5915(2)
C2_11 C 0.0235(6) 0.0568(4) 0.5690(3)
Se3_11 Se 0.28825(8) 0.14540(6) 0.53328(3)
Se4_11 Se 0.19344(7) 0.03281(4) 0.44892(2)
N6_6 N 0.1917(5) 0.2233(4) 0.5915(2)
C15_11 C 0.2643(6) 0.0942(4) 0.4232(2)
C16_11 C 0.2265(6) 0.1932(4) 0.5690(3)
N9_11 N 0.1917(5) 0.0267(4) 0.6585(2)
Se1_11 Se 0.96175(8) 0.10460(6) 0.53328(3)
C1_11 C 0.9857(6) 0.1558(4) 0.4232(2)
N9_12 N 0.0583(5) 0.2233(4) 0.6585(2)
Hg1_12 Hg 0.125000 0.125000 0.75546(2)
Se1_12 Se 0.28825(8) 0.10460(6) 0.71672(3)
Se2_12 Se 0.19344(7) 0.21719(4) 0.80108(2)
C1_12 C 0.2643(6) 0.1558(4) 0.8268(2)
C2_12 C 0.2265(6) 0.0568(4) 0.6810(3)
Se4_12 Se 0.05656(7) 0.03281(4) 0.80108(2)
C16_12 C 0.0235(6) 0.1932(4) 0.6810(3)
Se3_12 Se 0.96175(8) 0.14540(6) 0.71672(3)
C15_12 C 0.9857(6) 0.0942(4) 0.8268(2)
Hg1_13 Hg 0.625000 0.625000 0.49454(2)
Se1_13 Se 0.46175(8) 0.60460(6) 0.53328(3)
Se2_13 Se 0.55656(7) 0.71719(4) 0.44892(2)
N2_7 N 0.5583(5) 0.5267(4) 0.5915(2)
C1_13 C 0.4857(6) 0.6558(4) 0.4232(2)
C2_13 C 0.5235(6) 0.5568(4) 0.5690(3)
Se3_13 Se 0.78825(8) 0.64540(6) 0.53328(3)
Se4_13 Se 0.69344(7) 0.53281(4) 0.44892(2)
N6_7 N 0.6917(5) 0.7233(4) 0.5915(2)
C15_13 C 0.7643(6) 0.5942(4) 0.4232(2)
C16_13 C 0.7265(6) 0.6932(4) 0.5690(3)
N9_13 N 0.6917(5) 0.5267(4) 0.6585(2)
N9_14 N 0.5583(5) 0.7233(4) 0.6585(2)
Hg1_14 Hg 0.625000 0.625000 0.75546(2)
Se1_14 Se 0.78825(8) 0.60460(6) 0.71672(3)
Se2_14 Se 0.69344(7) 0.71719(4) 0.80108(2)
C1_14 C 0.7643(6) 0.6558(4) 0.8268(2)
C2_14 C 0.7265(6) 0.5568(4) 0.6810(3)
Se3_14 Se 0.46175(8) 0.64540(6) 0.71672(3)
Se4_14 Se 0.55656(7) 0.53281(4) 0.80108(2)
C15_14 C 0.4857(6) 0.5942(4) 0.8268(2)
C16_14 C 0.5235(6) 0.6932(4) 0.6810(3)
Se1_15 Se 0.46175(8) 0.10460(6) 0.03328(3)
N2_8 N 0.5583(5) 0.0267(4) 0.0915(2)
C2_15 C 0.5235(6) 0.0568(4) 0.0690(3)
Se3_15 Se 0.78825(8) 0.14540(6) 0.03328(3)
N6_8 N 0.6917(5) 0.2233(4) 0.0915(2)
C16_15 C 0.7265(6) 0.1932(4) 0.0690(3)
N9_15 N 0.6917(5) 0.0267(4) 0.1585(2)
Hg1_15 Hg 0.625000 0.125000 0.99454(2)
Se2_15 Se 0.55656(7) 0.21719(4) 0.94892(2)
C1_15 C 0.4857(6) 0.1558(4) 0.9232(2)
Se4_15 Se 0.69344(7) 0.03281(4) 0.94892(2)
C15_15 C 0.7643(6) 0.0942(4) 0.9232(2)
N9_16 N 0.5583(5) 0.2233(4) 0.1585(2)
Hg1_16 Hg 0.625000 0.125000 0.25546(2)
Se1_16 Se 0.78825(8) 0.10460(6) 0.21672(3)
Se2_16 Se 0.69344(7) 0.21719(4) 0.30108(2)
C1_16 C 0.7643(6) 0.1558(4) 0.3268(2)
C2_16 C 0.7265(6) 0.0568(4) 0.1810(3)
Se3_16 Se 0.46175(8) 0.14540(6) 0.21672(3)
Se4_16 Se 0.55656(7) 0.03281(4) 0.30108(2)
C15_16 C 0.4857(6) 0.0942(4) 0.3268(2)
C16_16 C 0.5235(6) 0.1932(4) 0.1810(3)
loop_
_geom_bond_atom_site_label_1
_geom_bond_atom_site_label_2
_geom_bond_site_symmetry_1
_geom_bond_site_symmetry_2
N1 C1 1_555 1_555
Fe4 N1 1_555 1_555
Se2 Hg1 1_555 1_555
N4 C9 1_555 1_555
C9 H6 1_555 1_555
C10 N4 1_555 1_555
H7 C10 1_555 1_555
C11 C10 1_555 1_555
H8 C11 1_555 1_555
C12 C11 1_555 1_555
C13 C9 1_555 1_555
H9 C13 1_555 1_555
H10 C14 1_555 1_555
Se4 Hg1 1_555 1_555
N5 C15 1_555 1_555
C15 Se4 1_555 1_555
Fe4 N4 1_555 1_555
Fe5 N5 1_555 1_555
C12 C13 1_555 1_555
C12 C14 1_555 1_555
Fe1 N2 1_555 1_555
N2 C2 1_555 1_555
N3 Fe1 1_555 1_555
C3 N3 1_555 1_555
H1 C3 1_555 1_555
C4 N3 1_555 1_555
H2 C4 1_555 1_555
C5 C4 1_555 1_555
H3 C5 1_555 1_555
C6 C5 1_555 1_555
C7 C3 1_555 1_555
H4 C7 1_555 1_555
C8 C6 1_555 1_555
H5 C8 1_555 1_555
N6 C16 1_555 1_555
C16 Se3 1_555 1_555
Fe2 N6 1_555 1_555
N7 Fe1 1_555 1_555
N8 Fe1 1_555 1_555
N9 Fe1 1_555 1_555
C6 C7 1_555 1_555
N4_2 C9_2 1_555 1_555
C9_2 H6_2 1_555 1_555
C10_2 N4_2 1_555 1_555
H7_2 C10_2 1_555 1_555
C11_2 C10_2 1_555 1_555
H8_2 C11_2 1_555 1_555
C12_2 C11_2 1_555 1_555
C13_2 C9_2 1_555 1_555
H9_2 C13_2 1_555 1_555
H10_2 C14_2 1_555 1_555
Fe5 N4_2 1_555 1_555
C12_2 C13_2 1_555 1_555
C12_2 C14_2 1_555 1_555
C4_2 N3_2 1_555 1_555
H2_2 C4_2 1_555 1_555
C5_2 C4_2 1_555 1_555
H3_2 C5_2 1_555 1_555
C6_2 C5_2 1_555 1_555
H4_2 C7_2 1_555 1_555
C8_2 C6_2 1_555 1_555
H5_2 C8_2 1_555 1_555
C6_2 C7_2 1_555 1_555
H1_2 C3_2 1_555 1_555
N7_2 Fe2 1_555 1_555
N8_2 Fe2 1_555 1_555
N9_2 Fe2 1_555 1_555
N10_2 Fe2 1_555 1_555
C4_3 N10 1_555 1_555
H2_3 C4_3 1_555 1_555
C5_3 C4_3 1_555 1_555
H3_3 C5_3 1_555 1_555
C6_3 C5_3 1_555 1_555
H4_3 C7_3 1_555 1_555
C8_3 C6_3 1_555 1_555
H5_3 C8_3 1_555 1_555
N4_3 C9_3 1_555 1_555
C9_3 H6_3 1_555 1_555
C10_3 N4_3 1_555 1_555
H7_3 C10_3 1_555 1_555
C11_3 C10_3 1_555 1_555
H8_3 C11_3 1_555 1_555
C12_3 C11_3 1_555 1_555
C13_3 C9_3 1_555 1_555
H9_3 C13_3 1_555 1_555
C14_3 C8_3 1_555 1_555
H10_3 C14_3 1_555 1_555
N5_2 C15_2 1_555 1_555
Fe3 N4_3 1_555 1_555
Fe5_2 N5_2 1_555 1_555
C6_3 C7_3 1_555 1_555
C12_3 C13_3 1_555 1_555
C12_3 C14_3 1_555 1_555
Hg1_2 Se1_2 1_555 1_555
Se1_2 C2_2 1_555 1_555
Se2_2 Hg1_2 1_555 1_555
N1_2 C1_2 1_555 1_555
N9 C2_2 1_555 1_555
C1_2 Se2_2 1_555 1_555
H1_3 C3_3 1_555 1_555
Se4_2 Hg1_2 1_555 1_555
N9_2 C16_2 1_555 1_555
Fe3 N1_2 1_555 1_555
C3_4 N10_2 1_555 1_555
H1_4 C3_4 1_555 1_555
C4_4 N10_2 1_555 1_555
H2_4 C4_4 1_555 1_555
C5_4 C4_4 1_555 1_555
H3_4 C5_4 1_555 1_555
C6_4 C5_4 1_555 1_555
C7_4 C3_4 1_555 1_555
H4_4 C7_4 1_555 1_555
C8_4 C6_4 1_555 1_555
H5_4 C8_4 1_555 1_555
N4_4 C9_4 1_555 1_555
C9_4 H6_4 1_555 1_555
C10_4 N4_4 1_555 1_555
H7_4 C10_4 1_555 1_555
C11_4 C10_4 1_555 1_555
H8_4 C11_4 1_555 1_555
C12_4 C11_4 1_555 1_555
C13_4 C9_4 1_555 1_555
H9_4 C13_4 1_555 1_555
C14_4 C8_4 1_555 1_555
H10_4 C14_4 1_555 1_555
Fe5_2 N4_4 1_555 1_555
C6_4 C7_4 1_555 1_555
C12_4 C13_4 1_555 1_555
C12_4 C14_4 1_555 1_555
N1_3 C1_3 1_555 1_555
Fe4_2 N1_3 1_555 1_555
N3_3 Fe1_2 1_555 1_555
C3_5 N3_3 1_555 1_555
H1_5 C3_5 1_555 1_555
C4_5 N3_3 1_555 1_555
H2_5 C4_5 1_555 1_555
C5_5 C4_5 1_555 1_555
H3_5 C5_5 1_555 1_555
C6_5 C5_5 1_555 1_555
C7_5 C3_5 1_555 1_555
H4_5 C7_5 1_555 1_555
C8_5 C6_5 1_555 1_555
H5_5 C8_5 1_555 1_555
N7_3 Fe1_2 1_555 1_555
N8_3 Fe1_2 1_555 1_555
C6_5 C7_5 1_555 1_555
Se2_3 Hg1_3 1_555 1_555
N2_2 C2_3 1_555 1_555
N4_5 C9_5 1_555 1_555
C9_5 H6_5 1_555 1_555
C10_5 N4_5 1_555 1_555
H7_5 C10_5 1_555 1_555
C11_5 C10_5 1_555 1_555
H8_5 C11_5 1_555 1_555
C12_5 C11_5 1_555 1_555
C13_5 C9_5 1_555 1_555
H9_5 C13_5 1_555 1_555
H10_5 C14_5 1_555 1_555
Se3_3 Hg1_3 1_555 1_555
Se4_3 Hg1_3 1_555 1_555
N5_3 C15_3 1_555 1_555
N6_2 C16_3 1_555 1_555
C15_3 Se4_3 1_555 1_555
C16_3 Se3_3 1_555 1_555
Fe2_2 N6_2 1_555 1_555
Fe4_2 N4_5 1_555 1_555
Fe5_3 N5_3 1_555 1_555
C12_5 C13_5 1_555 1_555
C12_5 C14_5 1_555 1_555
C4_6 N3_4 1_555 1_555
H2_6 C4_6 1_555 1_555
C5_6 C4_6 1_555 1_555
H3_6 C5_6 1_555 1_555
C6_6 C5_6 1_555 1_555
H4_6 C7_6 1_555 1_555
C8_6 C6_6 1_555 1_555
H5_6 C8_6 1_555 1_555
N4_6 C9_6 1_555 1_555
C9_6 H6_6 1_555 1_555
C10_6 N4_6 1_555 1_555
H7_6 C10_6 1_555 1_555
C11_6 C10_6 1_555 1_555
H8_6 C11_6 1_555 1_555
C12_6 C11_6 1_555 1_555
C13_6 C9_6 1_555 1_555
H9_6 C13_6 1_555 1_555
C14_6 C8_6 1_555 1_555
H10_6 C14_6 1_555 1_555
Fe5_3 N4_6 1_555 1_555
C6_6 C7_6 1_555 1_555
C12_6 C13_6 1_555 1_555
C12_6 C14_6 1_555 1_555
H1_6 C3_6 1_555 1_555
N7_4 Fe2_2 1_555 1_555
N8_4 Fe2_2 1_555 1_555
N9_4 Fe2_2 1_555 1_555
N10_4 Fe2_2 1_555 1_555
C4_7 N10_3 1_555 1_555
H2_7 C4_7 1_555 1_555
C5_7 C4_7 1_555 1_555
H3_7 C5_7 1_555 1_555
C6_7 C5_7 1_555 1_555
H4_7 C7_7 1_555 1_555
C8_7 C6_7 1_555 1_555
H5_7 C8_7 1_555 1_555
C6_7 C7_7 1_555 1_555
N4_7 C9_7 1_555 1_555
C9_7 H6_7 1_555 1_555
C10_7 N4_7 1_555 1_555
H7_7 C10_7 1_555 1_555
C11_7 C10_7 1_555 1_555
H8_7 C11_7 1_555 1_555
C12_7 C11_7 1_555 1_555
C13_7 C9_7 1_555 1_555
H9_7 C13_7 1_555 1_555
H10_7 C14_7 1_555 1_555
N5_4 C15_4 1_555 1_555
Fe3_2 N4_7 1_555 1_555
Fe5_4 N5_4 1_555 1_555
C12_7 C13_7 1_555 1_555
C12_7 C14_7 1_555 1_555
H1_7 C3_7 1_555 1_555
Hg1_4 Se1_4 1_555 1_555
Se1_4 C2_4 1_555 1_555
Se2_4 Hg1_4 1_555 1_555
N1_4 C1_4 1_555 1_555
N9_3 C2_4 1_555 1_555
C1_4 Se2_4 1_555 1_555
Se4_4 Hg1_4 1_555 1_555
N9_4 C16_4 1_555 1_555
Fe3_2 N1_4 1_555 1_555
C3_8 N10_4 1_555 1_555
H1_8 C3_8 1_555 1_555
C4_8 N10_4 1_555 1_555
H2_8 C4_8 1_555 1_555
C5_8 C4_8 1_555 1_555
H3_8 C5_8 1_555 1_555
C6_8 C5_8 1_555 1_555
C7_8 C3_8 1_555 1_555
H4_8 C7_8 1_555 1_555
C8_8 C6_8 1_555 1_555
H5_8 C8_8 1_555 1_555
N4_8 C9_8 1_555 1_555
C9_8 H6_8 1_555 1_555
C10_8 N4_8 1_555 1_555
H7_8 C10_8 1_555 1_555
C11_8 C10_8 1_555 1_555
H8_8 C11_8 1_555 1_555
C12_8 C11_8 1_555 1_555
C13_8 C9_8 1_555 1_555
H9_8 C13_8 1_555 1_555
C14_8 C8_8 1_555 1_555
H10_8 C14_8 1_555 1_555
Fe5_4 N4_8 1_555 1_555
C6_8 C7_8 1_555 1_555
C12_8 C13_8 1_555 1_555
C12_8 C14_8 1_555 1_555
Fe1_3 N2_3 1_555 1_555
Hg1_5 Se1_5 1_555 1_555
Se1_5 C2_5 1_555 1_555
Se2_5 Hg1_5 1_555 1_555
N1_5 C1_5 1_555 1_555
N2_3 C2_5 1_555 1_555
N3_5 Fe1_3 1_555 1_555
C1_5 Se2_5 1_555 1_555
C3_9 N3_5 1_555 1_555
H1_9 C3_9 1_555 1_555
C4_9 N3_5 1_555 1_555
H2_9 C4_9 1_555 1_555
C5_9 C4_9 1_555 1_555
H3_9 C5_9 1_555 1_555
C6_9 C5_9 1_555 1_555
C7_9 C3_9 1_555 1_555
H4_9 C7_9 1_555 1_555
H10_9 C14_9 1_555 1_555
Se3_5 Hg1_5 1_555 1_555
Se4_5 Hg1_5 1_555 1_555
N5_5 C15_5 1_555 1_555
N6_3 C16_5 1_555 1_555
C15_5 Se4_5 1_555 1_555
C16_5 Se3_5 1_555 1_555
Fe2_3 N6_3 1_555 1_555
Fe3 N1_5 1_555 1_555
Fe5_2 N5_5 1_555 1_555
N7_5 Fe1_3 1_555 1_555
N8_5 Fe1_3 1_555 1_555
N9_5 Fe1_3 1_555 1_555
N10_5 Fe1_3 1_555 1_555
C6_9 C7_9 1_555 1_555
H5_9 C8_9 1_555 1_555
N4_9 C9_9 1_555 1_555
C9_9 H6_9 1_555 1_555
C10_9 N4_9 1_555 1_555
H7_9 C10_9 1_555 1_555
C11_9 C10_9 1_555 1_555
H8_9 C11_9 1_555 1_555
C12_9 C11_9 1_555 1_555
C13_9 C9_9 1_555 1_555
H9_9 C13_9 1_555 1_555
Fe3 N4_9 1_555 1_555
C12_9 C13_9 1_555 1_555
C9_10 H6_10 1_555 1_555
N3_6 Fe2_3 1_555 1_555
C3_10 N3_6 1_555 1_555
H1_10 C3_10 1_555 1_555
C4_10 N3_6 1_555 1_555
H2_10 C4_10 1_555 1_555
C5_10 C4_10 1_555 1_555
H3_10 C5_10 1_555 1_555
C6_10 C5_10 1_555 1_555
C7_10 C3_10 1_555 1_555
H4_10 C7_10 1_555 1_555
C8_10 C6_10 1_555 1_555
H5_10 C8_10 1_555 1_555
C10_10 N4_10 1_555 1_555
H7_10 C10_10 1_555 1_555
C11_10 C10_10 1_555 1_555
H8_10 C11_10 1_555 1_555
C12_10 C11_10 1_555 1_555
H9_10 C13_10 1_555 1_555
C14_10 C8_10 1_555 1_555
H10_10 C14_10 1_555 1_555
N7_6 Fe2_3 1_555 1_555
N8_6 Fe2_3 1_555 1_555
N9_6 Fe2_3 1_555 1_555
N10_6 Fe2_3 1_555 1_555
C6_10 C7_10 1_555 1_555
C12_10 C13_10 1_555 1_555
C12_10 C14_10 1_555 1_555
C9_11 H6_11 1_555 1_555
Hg1_6 Se1_6 1_555 1_555
Se1_6 C2_6 1_555 1_555
Se2_6 Hg1_6 1_555 1_555
N1_6 C1_6 1_555 1_555
N9_5 C2_6 1_555 1_555
C1_6 Se2_6 1_555 1_555
C3_11 N10_5 1_555 1_555
H1_11 C3_11 1_555 1_555
C4_11 N10_5 1_555 1_555
H2_11 C4_11 1_555 1_555
C5_11 C4_11 1_555 1_555
H3_11 C5_11 1_555 1_555
C6_11 C5_11 1_555 1_555
C7_11 C3_11 1_555 1_555
H4_11 C7_11 1_555 1_555
C8_11 C6_11 1_555 1_555
H5_11 C8_11 1_555 1_555
C10_11 N4_11 1_555 1_555
H7_11 C10_11 1_555 1_555
C11_11 C10_11 1_555 1_555
H8_11 C11_11 1_555 1_555
C12_11 C11_11 1_555 1_555
H9_11 C13_11 1_555 1_555
C14_11 C8_11 1_555 1_555
H10_11 C14_11 1_555 1_555
Se3_6 Hg1_6 1_555 1_555
Se4_6 Hg1_6 1_555 1_555
N5_6 C15_6 1_555 1_555
N9_6 C16_6 1_555 1_555
C15_6 Se4_6 1_555 1_555
C16_6 Se3_6 1_555 1_555
Fe4 N1_6 1_555 1_555
Fe5 N5_6 1_555 1_555
C6_11 C7_11 1_555 1_555
C12_11 C13_11 1_555 1_555
C12_11 C14_11 1_555 1_555
C3_12 N10_6 1_555 1_555
H1_12 C3_12 1_555 1_555
C4_12 N10_6 1_555 1_555
H2_12 C4_12 1_555 1_555
C5_12 C4_12 1_555 1_555
H3_12 C5_12 1_555 1_555
C6_12 C5_12 1_555 1_555
C7_12 C3_12 1_555 1_555
H4_12 C7_12 1_555 1_555
H10_12 C14_12 1_555 1_555
C6_12 C7_12 1_555 1_555
H5_12 C8_12 1_555 1_555
N4_12 C9_12 1_555 1_555
C9_12 H6_12 1_555 1_555
C10_12 N4_12 1_555 1_555
H7_12 C10_12 1_555 1_555
C11_12 C10_12 1_555 1_555
H8_12 C11_12 1_555 1_555
C12_12 C11_12 1_555 1_555
C13_12 C9_12 1_555 1_555
H9_12 C13_12 1_555 1_555
Fe5 N4_12 1_555 1_555
C12_12 C13_12 1_555 1_555
N3_7 Fe1_4 1_555 1_555
C3_13 N3_7 1_555 1_555
H1_13 C3_13 1_555 1_555
C4_13 N3_7 1_555 1_555
H2_13 C4_13 1_555 1_555
C5_13 C4_13 1_555 1_555
H3_13 C5_13 1_555 1_555
C6_13 C5_13 1_555 1_555
C7_13 C3_13 1_555 1_555
H4_13 C7_13 1_555 1_555
N7_7 Fe1_4 1_555 1_555
N8_7 Fe1_4 1_555 1_555
N10_7 Fe1_4 1_555 1_555
C6_13 C7_13 1_555 1_555
Se2_7 Hg1_7 1_555 1_555
N1_7 C1_7 1_555 1_555
C1_7 Se2_7 1_555 1_555
H10_13 C14_13 1_555 1_555
Se4_7 Hg1_7 1_555 1_555
N5_7 C15_7 1_555 1_555
C15_7 Se4_7 1_555 1_555
Fe3_2 N1_7 1_555 1_555
Fe5_4 N5_7 1_555 1_555
Se1_7 C2_7 1_555 1_555
N2_4 C2_7 1_555 1_555
N6_4 C16_7 1_555 1_555
C16_7 Se3_7 1_555 1_555
Fe2_4 N6_4 1_555 1_555
H5_13 C8_13 1_555 1_555
N4_13 C9_13 1_555 1_555
C9_13 H6_13 1_555 1_555
C10_13 N4_13 1_555 1_555
H7_13 C10_13 1_555 1_555
C11_13 C10_13 1_555 1_555
H8_13 C11_13 1_555 1_555
C12_13 C11_13 1_555 1_555
C13_13 C9_13 1_555 1_555
H9_13 C13_13 1_555 1_555
Fe3_2 N4_13 1_555 1_555
C12_13 C13_13 1_555 1_555
C9_14 H6_14 1_555 1_555
C10_14 N4_14 1_555 1_555
H7_14 C10_14 1_555 1_555
C11_14 C10_14 1_555 1_555
H8_14 C11_14 1_555 1_555
C12_14 C11_14 1_555 1_555
H9_14 C13_14 1_555 1_555
H10_14 C14_14 1_555 1_555
C12_14 C13_14 1_555 1_555
C12_14 C14_14 1_555 1_555
N3_8 Fe2_4 1_555 1_555
C3_14 N3_8 1_555 1_555
H1_14 C3_14 1_555 1_555
C4_14 N3_8 1_555 1_555
H2_14 C4_14 1_555 1_555
C5_14 C4_14 1_555 1_555
H3_14 C5_14 1_555 1_555
C6_14 C5_14 1_555 1_555
C7_14 C3_14 1_555 1_555
H4_14 C7_14 1_555 1_555
C8_14 C6_14 1_555 1_555
H5_14 C8_14 1_555 1_555
N7_8 Fe2_4 1_555 1_555
N8_8 Fe2_4 1_555 1_555
N9_8 Fe2_4 1_555 1_555
N10_8 Fe2_4 1_555 1_555
C6_14 C7_14 1_555 1_555
C9_15 H6_15 1_555 1_555
C3_15 N10_7 1_555 1_555
H1_15 C3_15 1_555 1_555
C4_15 N10_7 1_555 1_555
H2_15 C4_15 1_555 1_555
C5_15 C4_15 1_555 1_555
H3_15 C5_15 1_555 1_555
C6_15 C5_15 1_555 1_555
C7_15 C3_15 1_555 1_555
H4_15 C7_15 1_555 1_555
C8_15 C6_15 1_555 1_555
H5_15 C8_15 1_555 1_555
C6_15 C7_15 1_555 1_555
Hg1_8 Se1_8 1_555 1_555
Se1_8 C2_8 1_555 1_555
Se2_8 Hg1_8 1_555 1_555
N1_8 C1_8 1_555 1_555
N9_7 C2_8 1_555 1_555
C1_8 Se2_8 1_555 1_555
C10_15 N4_15 1_555 1_555
H7_15 C10_15 1_555 1_555
C11_15 C10_15 1_555 1_555
H8_15 C11_15 1_555 1_555
C12_15 C11_15 1_555 1_555
H9_15 C13_15 1_555 1_555
H10_15 C14_15 1_555 1_555
Se3_8 Hg1_8 1_555 1_555
Se4_8 Hg1_8 1_555 1_555
N5_8 C15_8 1_555 1_555
N9_8 C16_8 1_555 1_555
C15_8 Se4_8 1_555 1_555
C16_8 Se3_8 1_555 1_555
Fe4_2 N1_8 1_555 1_555
Fe5_3 N5_8 1_555 1_555
C12_15 C13_15 1_555 1_555
C12_15 C14_15 1_555 1_555
C3_16 N10_8 1_555 1_555
H1_16 C3_16 1_555 1_555
C4_16 N10_8 1_555 1_555
H2_16 C4_16 1_555 1_555
C5_16 C4_16 1_555 1_555
H3_16 C5_16 1_555 1_555
C6_16 C5_16 1_555 1_555
C7_16 C3_16 1_555 1_555
H4_16 C7_16 1_555 1_555
H10_16 C14_16 1_555 1_555
C6_16 C7_16 1_555 1_555
H5_16 C8_16 1_555 1_555
N4_16 C9_16 1_555 1_555
C9_16 H6_16 1_555 1_555
C10_16 N4_16 1_555 1_555
H7_16 C10_16 1_555 1_555
C11_16 C10_16 1_555 1_555
H8_16 C11_16 1_555 1_555
C12_16 C11_16 1_555 1_555
C13_16 C9_16 1_555 1_555
H9_16 C13_16 1_555 1_555
Fe5_3 N4_16 1_555 1_555
C12_16 C13_16 1_555 1_555
Fe4 N2_5 1_555 1_555
N2_5 C2_9 1_555 1_555
N6_5 C16_9 1_555 1_555
C16_9 Se3_9 1_555 1_555
Fe5_4 N6_5 1_555 1_555
N9_9 Fe4 1_555 1_555
Se2_9 Hg1_9 1_555 1_555
Se4_9 Hg1_9 1_555 1_555
N7_8 C15_9 1_555 1_555
C15_9 Se4_9 1_555 1_555
N7 C1_9 1_555 1_555
N9_10 Fe5_4 1_555 1_555
Hg1_10 Se1_10 1_555 1_555
Se1_10 C2_10 1_555 1_555
Se2_10 Hg1_10 1_555 1_555
N8_5 C1_10 1_555 1_555
N9_9 C2_10 1_555 1_555
C1_10 Se2_10 1_555 1_555
Se4_10 Hg1_10 1_555 1_555
N9_10 C16_10 1_555 1_555
N8_4 C15_10 1_555 1_555
Se2_11 Hg1_11 1_555 1_555
N2_6 C2_11 1_555 1_555
Se3_11 Hg1_11 1_555 1_555
Se4_11 Hg1_11 1_555 1_555
N7_6 C15_11 1_555 1_555
N6_6 C16_11 1_555 1_555
C15_11 Se4_11 1_555 1_555
C16_11 Se3_11 1_555 1_555
Fe5_2 N6_6 1_555 1_555
N7_3 C1_11 1_555 1_555
N9_12 Fe5_2 1_555 1_555
Hg1_12 Se1_12 1_555 1_555
Se1_12 C2_12 1_555 1_555
Se2_12 Hg1_12 1_555 1_555
N8_7 C1_12 1_555 1_555
N9_11 C2_12 1_555 1_555
C1_12 Se2_12 1_555 1_555
Se4_12 Hg1_12 1_555 1_555
N9_12 C16_12 1_555 1_555
N8_2 C15_12 1_555 1_555
Fe3 N2_7 1_555 1_555
Hg1_13 Se1_13 1_555 1_555
Se1_13 C2_13 1_555 1_555
Se2_13 Hg1_13 1_555 1_555
N7_5 C1_13 1_555 1_555
N2_7 C2_13 1_555 1_555
C1_13 Se2_13 1_555 1_555
Se3_13 Hg1_13 1_555 1_555
Se4_13 Hg1_13 1_555 1_555
N7_4 C15_13 1_555 1_555
N6_7 C16_13 1_555 1_555
C15_13 Se4_13 1_555 1_555
C16_13 Se3_13 1_555 1_555
Fe5_3 N6_7 1_555 1_555
N9_13 Fe3 1_555 1_555
N9_14 Fe5_3 1_555 1_555
Hg1_14 Se1_14 1_555 1_555
Se1_14 C2_14 1_555 1_555
Se2_14 Hg1_14 1_555 1_555
N8 C1_14 1_555 1_555
N9_13 C2_14 1_555 1_555
C1_14 Se2_14 1_555 1_555
Se3_14 Hg1_14 1_555 1_555
Se4_14 Hg1_14 1_555 1_555
N8_8 C15_14 1_555 1_555
N9_14 C16_14 1_555 1_555
C15_14 Se4_14 1_555 1_555
C16_14 Se3_14 1_555 1_555
Se1_15 C2_15 1_555 1_555
N2_8 C2_15 1_555 1_555
N6_8 C16_15 1_555 1_555
C16_15 Se3_15 1_555 1_555
Fe5 N6_8 1_555 1_555
Se2_15 Hg1_15 1_555 1_555
N7_7 C1_15 1_555 1_555
C1_15 Se2_15 1_555 1_555
Se4_15 Hg1_15 1_555 1_555
N7_2 C15_15 1_555 1_555
C15_15 Se4_15 1_555 1_555
N9_16 Fe5 1_555 1_555
Hg1_16 Se1_16 1_555 1_555
Se1_16 C2_16 1_555 1_555
Se2_16 Hg1_16 1_555 1_555
N8_3 C1_16 1_555 1_555
N9_15 C2_16 1_555 1_555
C1_16 Se2_16 1_555 1_555
Se3_16 Hg1_16 1_555 1_555
Se4_16 Hg1_16 1_555 1_555
N8_6 C15_16 1_555 1_555
N9_16 C16_16 1_555 1_555
C15_16 Se4_16 1_555 1_555
C16_16 Se3_16 1_555 1_555

#END
