
###############################################################################
#
# This file contains modified crystal structure data generated from the
# MOF subset of the Cambridge Structural Database (CSD) v543 
# hosted by the Cambridge Crystallographic Data Centre (CCDC).
#
# This work is licensed under the Creative Commons
# Attribution-NonCommercial-ShareAlike 4.0 International License.
# To view a copy of this license, visit
# http://creativecommons.org/licenses/by-nc-sa/4.0/
# or send a letter to
# Creative Commons, PO Box 1866, Mountain View, CA 94042, USA.
#
# CIF created using the CSD Python API on 29 September 2022
# The structure has been converted into the P1 space group
# The structure has a 3D framework
# The original CSD entry AZAKIY01 is in the orthorhombic crystal system
# The framework has been calculated to contain at least 10.0% void space
# The void calculation uses a probe of radius 1.32A, grid spacing 0.4
#
###############################################################################

data_AZAKIY01
_chemical_formula_moiety         '(C256 H160 Fe12 Hg16 N96 Se64)n'
_symmetry_cell_setting           triclinic
_symmetry_space_group_name_H-M   'P 1'
_symmetry_Int_Tables_number      1
_space_group_name_Hall           'P 1'
loop_
_symmetry_equiv_pos_site_id
_symmetry_equiv_pos_as_xyz
1 x,y,z
_cell_length_a                   13.3056(10)
_cell_length_b                   20.8034(19)
_cell_length_c                   37.1299(19)
_cell_angle_alpha                90
_cell_angle_beta                 90
_cell_angle_gamma                90
_cell_volume                     10277.6
loop_
_atom_site_label
_atom_site_type_symbol
_atom_site_fract_x
_atom_site_fract_y
_atom_site_fract_z
C11 C 0.2467(6) 0.2601(5) 0.0174(2)
C12 C 0.3329(6) 0.2750(5) 0.0408(2)
H6 H 0.182758 0.264821 0.027162
C13 C 0.3197(6) 0.2771(6) 0.0773(2)
C14 C 0.4284(6) 0.2875(5) 0.0288(2)
C15 C 0.4024(6) 0.2854(6) 0.0996(2)
H7 H 0.255760 0.272889 0.087056
H8 H 0.440419 0.289751 0.004158
C16 C 0.5057(6) 0.2965(5) 0.0520(2)
N10 N 0.4952(5) 0.2951(3) 0.08753(18)
H9 H 0.392290 0.284179 0.124395
H10 H 0.569297 0.304110 0.042552
Fe5 Fe 0.625000 0.29481(9) 0.125000
N3 N 0.0048(5) 0.2049(3) 0.91247(18)
C3 C 0.0976(6) 0.2146(6) 0.9004(2)
H1 H 0.107710 0.215821 0.875605
C5 C 0.1803(6) 0.2229(6) 0.9227(2)
C6 C 0.0716(6) 0.2125(5) 0.9712(2)
H3 H 0.244240 0.227111 0.912944
C7 C 0.1671(6) 0.2250(5) 0.9592(2)
H4 H 0.059581 0.210249 0.995842
C8 C 0.2533(6) 0.2399(5) 0.9826(2)
H5 H 0.317242 0.235179 0.972838
Se2 Se 0.78665(8) 0.14781(7) 0.03219(3)
C2 C 0.7262(6) 0.1932(5) 0.0679(3)
N2 N 0.6932(5) 0.2227(4) 0.0906(2)
Se3 Se 0.46335(8) 0.10219(7) 0.03219(3)
C9 C 0.5238(6) 0.0568(5) 0.0679(3)
N4 N 0.5568(5) 0.0273(4) 0.0906(2)
Hg1 Hg 0.625000 0.125000 0.99456(2)
Se1 Se 0.69354(7) 0.03472(5) 0.94907(2)
C1 C 0.7647(6) 0.0943(5) 0.9236(2)
N1 N 0.8065(5) 0.1323(4) 0.9072(2)
Fe1 Fe 0.875000 0.20519(9) 0.875000
C4 C 0.9943(6) 0.2035(5) 0.9480(2)
H2 H 0.930703 0.195890 0.957448
Se4 Se 0.55646(7) 0.21528(5) 0.94907(2)
C10 C 0.4853(6) 0.1557(5) 0.9236(2)
N5 N 0.4435(5) 0.1177(4) 0.9072(2)
Fe4 Fe 0.375000 0.04481(9) 0.875000
N6 N 0.9435(5) 0.1323(4) 0.8428(2)
N7 N 0.9432(5) 0.2773(4) 0.8406(2)
N8 N 0.8068(5) 0.2773(4) 0.9094(2)
N9 N 0.7452(5) 0.2049(3) 0.83753(18)
Fe3 Fe 0.625000 0.95519(9) 0.125000
C2_2 C 0.0238(6) 0.5568(5) 0.0679(3)
N2_2 N 0.0568(5) 0.5273(4) 0.0906(2)
Se3_2 Se 0.28665(8) 0.64781(7) 0.03219(3)
C9_2 C 0.2262(6) 0.6932(5) 0.0679(3)
N4_2 N 0.1932(5) 0.7227(4) 0.0906(2)
Fe2 Fe 0.125000 0.45519(9) 0.125000
Fe3_2 Fe 0.125000 0.79481(9) 0.125000
Hg1_2 Hg 0.125000 0.625000 0.99456(2)
Se1_2 Se 0.05646(7) 0.71528(5) 0.94907(2)
Se4_2 Se 0.19354(7) 0.53472(5) 0.94907(2)
C10_2 C 0.2647(6) 0.5943(5) 0.9236(2)
N5_2 N 0.3065(5) 0.6323(4) 0.9072(2)
Fe4_2 Fe 0.375000 0.70519(9) 0.875000
N9_2 N 0.0048(5) 0.5451(3) 0.83753(18)
Se2_2 Se 0.96335(8) 0.60219(7) 0.03219(3)
C11_2 C 0.5033(6) 0.4899(5) 0.0174(2)
C12_2 C 0.4171(6) 0.4750(5) 0.0408(2)
H6_2 H 0.567242 0.485179 0.027162
C13_2 C 0.4303(6) 0.4729(6) 0.0773(2)
C14_2 C 0.3216(6) 0.4625(5) 0.0288(2)
C15_2 C 0.3476(6) 0.4646(6) 0.0996(2)
H7_2 H 0.494240 0.477111 0.087056
H8_2 H 0.309581 0.460249 0.004158
C16_2 C 0.2443(6) 0.4535(5) 0.0520(2)
N10_2 N 0.2548(5) 0.4549(3) 0.08753(18)
H9_2 H 0.357710 0.465821 0.124395
H10_2 H 0.180703 0.445890 0.042552
C1_2 C 0.9853(6) 0.6557(5) 0.9236(2)
N1_2 N 0.9435(5) 0.6177(4) 0.9072(2)
Fe1_2 Fe 0.875000 0.54481(9) 0.875000
N3_2 N 0.7452(5) 0.5451(3) 0.91247(18)
C3_2 C 0.6524(6) 0.5354(6) 0.9004(2)
C4_2 C 0.7557(6) 0.5465(5) 0.9480(2)
H1_2 H 0.642290 0.534179 0.875605
C5_2 C 0.5697(6) 0.5271(6) 0.9227(2)
C6_2 C 0.6784(6) 0.5375(5) 0.9712(2)
H2_2 H 0.819297 0.554110 0.957448
H3_2 H 0.505760 0.522889 0.912944
C7_2 C 0.5829(6) 0.5250(5) 0.9592(2)
H4_2 H 0.690419 0.539751 0.995842
C8_2 C 0.4967(6) 0.5101(5) 0.9826(2)
H5_2 H 0.432758 0.514821 0.972838
N6_2 N 0.8065(5) 0.6177(4) 0.8428(2)
N7_2 N 0.8068(5) 0.4727(4) 0.8406(2)
N8_2 N 0.9432(5) 0.4727(4) 0.9094(2)
Hg1_3 Hg 0.125000 0.125000 0.75544(2)
Se1_3 Se 0.05646(7) 0.03472(5) 0.80093(2)
C2_3 C 0.0238(6) 0.1932(5) 0.6821(3)
N2_3 N 0.0568(5) 0.2227(4) 0.6594(2)
Se3_3 Se 0.28665(8) 0.10219(7) 0.71781(3)
Se4_3 Se 0.19354(7) 0.21528(5) 0.80093(2)
C9_3 C 0.2262(6) 0.0568(5) 0.6821(3)
C10_3 C 0.2647(6) 0.1557(5) 0.8264(2)
N4_3 N 0.1932(5) 0.0273(4) 0.6594(2)
N5_3 N 0.3065(5) 0.1177(4) 0.8428(2)
Fe2_2 Fe 0.125000 0.29481(9) 0.625000
Fe3_3 Fe 0.125000 0.95519(9) 0.625000
Se2_3 Se 0.96335(8) 0.14781(7) 0.71781(3)
C1_3 C 0.9853(6) 0.0943(5) 0.8264(2)
C3_3 C 0.6524(6) 0.2146(6) 0.8496(2)
C4_3 C 0.7557(6) 0.2035(5) 0.8020(2)
H1_3 H 0.642290 0.215821 0.874395
C5_3 C 0.5697(6) 0.2229(6) 0.8273(2)
C6_3 C 0.6784(6) 0.2125(5) 0.7788(2)
H2_3 H 0.819297 0.195890 0.792552
H3_3 H 0.505760 0.227111 0.837056
C7_3 C 0.5829(6) 0.2250(5) 0.7908(2)
H4_3 H 0.690419 0.210249 0.754158
C8_3 C 0.4967(6) 0.2399(5) 0.7674(2)
H5_3 H 0.432758 0.235179 0.777162
C11_3 C 0.5033(6) 0.2601(5) 0.7326(2)
C12_3 C 0.4171(6) 0.2750(5) 0.7092(2)
H6_3 H 0.567242 0.264821 0.722838
C13_3 C 0.4303(6) 0.2771(6) 0.6727(2)
C14_3 C 0.3216(6) 0.2875(5) 0.7212(2)
C15_3 C 0.3476(6) 0.2854(6) 0.6504(2)
H7_3 H 0.494240 0.272889 0.662944
H8_3 H 0.309581 0.289751 0.745842
C16_3 C 0.2443(6) 0.2965(5) 0.6980(2)
N10_3 N 0.2548(5) 0.2951(3) 0.66247(18)
H9_3 H 0.357710 0.284179 0.625605
H10_3 H 0.180703 0.304110 0.707448
C3_4 C 0.0976(6) 0.5354(6) 0.8496(2)
H1_4 H 0.107710 0.534179 0.874395
C5_4 C 0.1803(6) 0.5271(6) 0.8273(2)
C6_4 C 0.0716(6) 0.5375(5) 0.7788(2)
H3_4 H 0.244240 0.522889 0.837056
C7_4 C 0.1671(6) 0.5250(5) 0.7908(2)
H4_4 H 0.059581 0.539751 0.754158
C8_4 C 0.2533(6) 0.5101(5) 0.7674(2)
H5_4 H 0.317242 0.514821 0.777162
C11_4 C 0.2467(6) 0.4899(5) 0.7326(2)
C12_4 C 0.3329(6) 0.4750(5) 0.7092(2)
H6_4 H 0.182758 0.485179 0.722838
C13_4 C 0.3197(6) 0.4729(6) 0.6727(2)
C14_4 C 0.4284(6) 0.4625(5) 0.7212(2)
C15_4 C 0.4024(6) 0.4646(6) 0.6504(2)
H7_4 H 0.255760 0.477111 0.662944
H8_4 H 0.440419 0.460249 0.745842
C16_4 C 0.5057(6) 0.4535(5) 0.6980(2)
N10_4 N 0.4952(5) 0.4549(3) 0.66247(18)
H9_4 H 0.392290 0.465821 0.625605
H10_4 H 0.569297 0.445890 0.707448
Fe5_2 Fe 0.625000 0.45519(9) 0.625000
Hg1_4 Hg 0.625000 0.625000 0.75544(2)
Se1_4 Se 0.69354(7) 0.71528(5) 0.80093(2)
Se2_4 Se 0.78665(8) 0.60219(7) 0.71781(3)
C1_4 C 0.7647(6) 0.6557(5) 0.8264(2)
C2_4 C 0.7262(6) 0.5568(5) 0.6821(3)
N2_4 N 0.6932(5) 0.5273(4) 0.6594(2)
C4_4 C 0.9943(6) 0.5465(5) 0.8020(2)
H2_4 H 0.930703 0.554110 0.792552
Se3_4 Se 0.46335(8) 0.64781(7) 0.71781(3)
Se4_4 Se 0.55646(7) 0.53472(5) 0.80093(2)
C9_4 C 0.5238(6) 0.6932(5) 0.6821(3)
C10_4 C 0.4853(6) 0.5943(5) 0.8264(2)
N4_4 N 0.5568(5) 0.7227(4) 0.6594(2)
N5_4 N 0.4435(5) 0.6323(4) 0.8428(2)
Fe3_4 Fe 0.625000 0.79481(9) 0.625000
N3_3 N 0.0048(5) 0.7049(3) 0.41247(18)
C3_5 C 0.0976(6) 0.7146(6) 0.4004(2)
H1_5 H 0.107710 0.715821 0.375605
C5_5 C 0.1803(6) 0.7229(6) 0.4227(2)
C6_5 C 0.0716(6) 0.7125(5) 0.4712(2)
H3_5 H 0.244240 0.727111 0.412944
C7_5 C 0.1671(6) 0.7250(5) 0.4592(2)
H4_5 H 0.059581 0.710249 0.495842
C8_5 C 0.2533(6) 0.7399(5) 0.4826(2)
H5_5 H 0.317242 0.735179 0.472838
C11_5 C 0.2467(6) 0.7601(5) 0.5174(2)
C12_5 C 0.3329(6) 0.7750(5) 0.5408(2)
H6_5 H 0.182758 0.764821 0.527162
C13_5 C 0.3197(6) 0.7771(6) 0.5773(2)
C14_5 C 0.4284(6) 0.7875(5) 0.5288(2)
C15_5 C 0.4024(6) 0.7854(6) 0.5996(2)
H7_5 H 0.255760 0.772889 0.587056
H8_5 H 0.440419 0.789751 0.504158
C16_5 C 0.5057(6) 0.7965(5) 0.5520(2)
N10_5 N 0.4952(5) 0.7951(3) 0.58753(18)
H9_5 H 0.392290 0.784179 0.624395
H10_5 H 0.569297 0.804110 0.542552
Hg1_5 Hg 0.625000 0.625000 0.49456(2)
Se1_5 Se 0.69354(7) 0.53472(5) 0.44907(2)
Se2_5 Se 0.78665(8) 0.64781(7) 0.53219(3)
C1_5 C 0.7647(6) 0.5943(5) 0.4236(2)
C2_5 C 0.7262(6) 0.6932(5) 0.5679(3)
N1_3 N 0.8065(5) 0.6323(4) 0.4072(2)
N2_5 N 0.6932(5) 0.7227(4) 0.5906(2)
Fe1_3 Fe 0.875000 0.70519(9) 0.375000
C4_5 C 0.9943(6) 0.7035(5) 0.4480(2)
H2_5 H 0.930703 0.695890 0.457448
Se3_5 Se 0.46335(8) 0.60219(7) 0.53219(3)
Se4_5 Se 0.55646(7) 0.71528(5) 0.44907(2)
C9_5 C 0.5238(6) 0.5568(5) 0.5679(3)
C10_5 C 0.4853(6) 0.6557(5) 0.4236(2)
N4_5 N 0.5568(5) 0.5273(4) 0.5906(2)
N5_5 N 0.4435(5) 0.6177(4) 0.4072(2)
Fe4_3 Fe 0.375000 0.54481(9) 0.375000
N6_3 N 0.9435(5) 0.6323(4) 0.3428(2)
N7_3 N 0.9432(5) 0.7773(4) 0.3406(2)
N8_3 N 0.8068(5) 0.7773(4) 0.4094(2)
N9_3 N 0.7452(5) 0.7049(3) 0.33753(18)
Hg1_6 Hg 0.125000 0.125000 0.49456(2)
Se1_6 Se 0.05646(7) 0.21528(5) 0.44907(2)
C2_6 C 0.0238(6) 0.0568(5) 0.5679(3)
N2_6 N 0.0568(5) 0.0273(4) 0.5906(2)
Se3_6 Se 0.28665(8) 0.14781(7) 0.53219(3)
Se4_6 Se 0.19354(7) 0.03472(5) 0.44907(2)
C9_6 C 0.2262(6) 0.1932(5) 0.5679(3)
C10_6 C 0.2647(6) 0.0943(5) 0.4236(2)
N4_6 N 0.1932(5) 0.2227(4) 0.5906(2)
N5_6 N 0.3065(5) 0.1323(4) 0.4072(2)
Fe4_4 Fe 0.375000 0.20519(9) 0.375000
N9_4 N 0.0048(5) 0.0451(3) 0.33753(18)
Se2_6 Se 0.96335(8) 0.10219(7) 0.53219(3)
C1_6 C 0.9853(6) 0.1557(5) 0.4236(2)
N1_4 N 0.9435(5) 0.1177(4) 0.4072(2)
Fe1_4 Fe 0.875000 0.04481(9) 0.375000
N3_4 N 0.7452(5) 0.0451(3) 0.41247(18)
C3_6 C 0.6524(6) 0.0354(6) 0.4004(2)
C4_6 C 0.7557(6) 0.0465(5) 0.4480(2)
H1_6 H 0.642290 0.034179 0.375605
C5_6 C 0.5697(6) 0.0271(6) 0.4227(2)
C6_6 C 0.6784(6) 0.0375(5) 0.4712(2)
H2_6 H 0.819297 0.054110 0.457448
H3_6 H 0.505760 0.022889 0.412944
C7_6 C 0.5829(6) 0.0250(5) 0.4592(2)
H4_6 H 0.690419 0.039751 0.495842
C8_6 C 0.4967(6) 0.0101(5) 0.4826(2)
H5_6 H 0.432758 0.014821 0.472838
N6_4 N 0.8065(5) 0.1177(4) 0.3428(2)
N7_4 N 0.8068(5) 0.9727(4) 0.3406(2)
N8_4 N 0.9432(5) 0.9727(4) 0.4094(2)
C11_6 C 0.5033(6) 0.9899(5) 0.5174(2)
C12_6 C 0.4171(6) 0.9750(5) 0.5408(2)
H6_6 H 0.567242 0.985179 0.527162
C13_6 C 0.4303(6) 0.9729(6) 0.5773(2)
C14_6 C 0.3216(6) 0.9625(5) 0.5288(2)
C15_6 C 0.3476(6) 0.9646(6) 0.5996(2)
H7_6 H 0.494240 0.977111 0.587056
H8_6 H 0.309581 0.960249 0.504158
C16_6 C 0.2443(6) 0.9535(5) 0.5520(2)
N10_6 N 0.2548(5) 0.9549(3) 0.58753(18)
H9_6 H 0.357710 0.965821 0.624395
H10_6 H 0.180703 0.945890 0.542552
Hg1_7 Hg 0.125000 0.625000 0.25544(2)
Se1_7 Se 0.05646(7) 0.53472(5) 0.30093(2)
C2_7 C 0.0238(6) 0.6932(5) 0.1821(3)
N2_7 N 0.0568(5) 0.7227(4) 0.1594(2)
Se3_7 Se 0.28665(8) 0.60219(7) 0.21781(3)
Se4_7 Se 0.19354(7) 0.71528(5) 0.30093(2)
C9_7 C 0.2262(6) 0.5568(5) 0.1821(3)
C10_7 C 0.2647(6) 0.6557(5) 0.3264(2)
N4_7 N 0.1932(5) 0.5273(4) 0.1594(2)
N5_7 N 0.3065(5) 0.6177(4) 0.3428(2)
Se2_7 Se 0.96335(8) 0.64781(7) 0.21781(3)
C1_7 C 0.9853(6) 0.5943(5) 0.3264(2)
C3_7 C 0.6524(6) 0.7146(6) 0.3496(2)
C4_7 C 0.7557(6) 0.7035(5) 0.3020(2)
H1_7 H 0.642290 0.715821 0.374395
C5_7 C 0.5697(6) 0.7229(6) 0.3273(2)
C6_7 C 0.6784(6) 0.7125(5) 0.2788(2)
H2_7 H 0.819297 0.695890 0.292552
H3_7 H 0.505760 0.727111 0.337056
C7_7 C 0.5829(6) 0.7250(5) 0.2908(2)
H4_7 H 0.690419 0.710249 0.254158
C8_7 C 0.4967(6) 0.7399(5) 0.2674(2)
H5_7 H 0.432758 0.735179 0.277162
C11_7 C 0.5033(6) 0.7601(5) 0.2326(2)
C12_7 C 0.4171(6) 0.7750(5) 0.2092(2)
H6_7 H 0.567242 0.764821 0.222838
C13_7 C 0.4303(6) 0.7771(6) 0.1727(2)
C14_7 C 0.3216(6) 0.7875(5) 0.2212(2)
C15_7 C 0.3476(6) 0.7854(6) 0.1504(2)
H7_7 H 0.494240 0.772889 0.162944
H8_7 H 0.309581 0.789751 0.245842
C16_7 C 0.2443(6) 0.7965(5) 0.1980(2)
N10_7 N 0.2548(5) 0.7951(3) 0.16247(18)
H9_7 H 0.357710 0.784179 0.125605
H10_7 H 0.180703 0.804110 0.207448
C3_8 C 0.0976(6) 0.0354(6) 0.3496(2)
H1_8 H 0.107710 0.034179 0.374395
C5_8 C 0.1803(6) 0.0271(6) 0.3273(2)
C6_8 C 0.0716(6) 0.0375(5) 0.2788(2)
H3_8 H 0.244240 0.022889 0.337056
C7_8 C 0.1671(6) 0.0250(5) 0.2908(2)
H4_8 H 0.059581 0.039751 0.254158
C8_8 C 0.2533(6) 0.0101(5) 0.2674(2)
H5_8 H 0.317242 0.014821 0.277162
C11_8 C 0.2467(6) 0.9899(5) 0.2326(2)
C12_8 C 0.3329(6) 0.9750(5) 0.2092(2)
H6_8 H 0.182758 0.985179 0.222838
C13_8 C 0.3197(6) 0.9729(6) 0.1727(2)
C14_8 C 0.4284(6) 0.9625(5) 0.2212(2)
C15_8 C 0.4024(6) 0.9646(6) 0.1504(2)
H7_8 H 0.255760 0.977111 0.162944
H8_8 H 0.440419 0.960249 0.245842
C16_8 C 0.5057(6) 0.9535(5) 0.1980(2)
N10_8 N 0.4952(5) 0.9549(3) 0.16247(18)
H9_8 H 0.392290 0.965821 0.125605
H10_8 H 0.569297 0.945890 0.207448
Hg1_8 Hg 0.625000 0.125000 0.25544(2)
Se1_8 Se 0.69354(7) 0.21528(5) 0.30093(2)
Se2_8 Se 0.78665(8) 0.10219(7) 0.21781(3)
C1_8 C 0.7647(6) 0.1557(5) 0.3264(2)
C2_8 C 0.7262(6) 0.0568(5) 0.1821(3)
N2_8 N 0.6932(5) 0.0273(4) 0.1594(2)
C4_8 C 0.9943(6) 0.0465(5) 0.3020(2)
H2_8 H 0.930703 0.054110 0.292552
Se3_8 Se 0.46335(8) 0.14781(7) 0.21781(3)
Se4_8 Se 0.55646(7) 0.03472(5) 0.30093(2)
C9_8 C 0.5238(6) 0.1932(5) 0.1821(3)
C10_8 C 0.4853(6) 0.0943(5) 0.3264(2)
N4_8 N 0.5568(5) 0.2227(4) 0.1594(2)
N5_8 N 0.4435(5) 0.1323(4) 0.3428(2)
C16_9 C 0.0057(6) 0.2965(5) 0.5520(2)
H10_9 H 0.069297 0.304110 0.542552
N3_5 N 0.5048(5) 0.2049(3) 0.41247(18)
C3_9 C 0.5976(6) 0.2146(6) 0.4004(2)
C4_9 C 0.4943(6) 0.2035(5) 0.4480(2)
H1_9 H 0.607710 0.215821 0.375605
C5_9 C 0.6803(6) 0.2229(6) 0.4227(2)
C6_9 C 0.5716(6) 0.2125(5) 0.4712(2)
H2_9 H 0.430703 0.195890 0.457448
H3_9 H 0.744240 0.227111 0.412944
C7_9 C 0.6671(6) 0.2250(5) 0.4592(2)
H4_9 H 0.559581 0.210249 0.495842
C8_9 C 0.7533(6) 0.2399(5) 0.4826(2)
H5_9 H 0.817242 0.235179 0.472838
N7_5 N 0.4432(5) 0.2773(4) 0.3406(2)
N8_5 N 0.3068(5) 0.2773(4) 0.4094(2)
N9_5 N 0.2452(5) 0.2049(3) 0.33753(18)
C11_9 C 0.7467(6) 0.2601(5) 0.5174(2)
C12_9 C 0.8329(6) 0.2750(5) 0.5408(2)
H6_9 H 0.682758 0.264821 0.527162
C13_9 C 0.8197(6) 0.2771(6) 0.5773(2)
C14_9 C 0.9284(6) 0.2875(5) 0.5288(2)
C15_9 C 0.9024(6) 0.2854(6) 0.5996(2)
H7_9 H 0.755760 0.272889 0.587056
H8_9 H 0.940419 0.289751 0.504158
N10_9 N 0.9952(5) 0.2951(3) 0.58753(18)
H9_9 H 0.892290 0.284179 0.624395
N3_6 N 0.2452(5) 0.5451(3) 0.41247(18)
C3_10 C 0.1524(6) 0.5354(6) 0.4004(2)
C4_10 C 0.2557(6) 0.5465(5) 0.4480(2)
H1_10 H 0.142290 0.534179 0.375605
C5_10 C 0.0697(6) 0.5271(6) 0.4227(2)
C6_10 C 0.1784(6) 0.5375(5) 0.4712(2)
H2_10 H 0.319297 0.554110 0.457448
H3_10 H 0.005760 0.522889 0.412944
C7_10 C 0.0829(6) 0.5250(5) 0.4592(2)
H4_10 H 0.190419 0.539751 0.495842
N7_6 N 0.3068(5) 0.4727(4) 0.3406(2)
N8_6 N 0.4432(5) 0.4727(4) 0.4094(2)
N9_6 N 0.5048(5) 0.5451(3) 0.33753(18)
C11_10 C 0.0033(6) 0.4899(5) 0.5174(2)
H6_10 H 0.067242 0.485179 0.527162
C8_10 C 0.9967(6) 0.5101(5) 0.4826(2)
H5_10 H 0.932758 0.514821 0.472838
C12_10 C 0.9171(6) 0.4750(5) 0.5408(2)
C13_10 C 0.9303(6) 0.4729(6) 0.5773(2)
C14_10 C 0.8216(6) 0.4625(5) 0.5288(2)
C15_10 C 0.8476(6) 0.4646(6) 0.5996(2)
H7_10 H 0.994240 0.477111 0.587056
H8_10 H 0.809581 0.460249 0.504158
C16_10 C 0.7443(6) 0.4535(5) 0.5520(2)
N10_10 N 0.7548(5) 0.4549(3) 0.58753(18)
H9_10 H 0.857710 0.465821 0.624395
H10_10 H 0.680703 0.445890 0.542552
C3_11 C 0.1524(6) 0.2146(6) 0.3496(2)
C4_11 C 0.2557(6) 0.2035(5) 0.3020(2)
H1_11 H 0.142290 0.215821 0.374395
C5_11 C 0.0697(6) 0.2229(6) 0.3273(2)
C6_11 C 0.1784(6) 0.2125(5) 0.2788(2)
H2_11 H 0.319297 0.195890 0.292552
H3_11 H 0.005760 0.227111 0.337056
C7_11 C 0.0829(6) 0.2250(5) 0.2908(2)
H4_11 H 0.190419 0.210249 0.254158
C11_11 C 0.0033(6) 0.2601(5) 0.2326(2)
H6_11 H 0.067242 0.264821 0.222838
C8_11 C 0.9967(6) 0.2399(5) 0.2674(2)
H5_11 H 0.932758 0.235179 0.277162
C12_11 C 0.9171(6) 0.2750(5) 0.2092(2)
C13_11 C 0.9303(6) 0.2771(6) 0.1727(2)
C14_11 C 0.8216(6) 0.2875(5) 0.2212(2)
C15_11 C 0.8476(6) 0.2854(6) 0.1504(2)
H7_11 H 0.994240 0.272889 0.162944
H8_11 H 0.809581 0.289751 0.245842
C16_11 C 0.7443(6) 0.2965(5) 0.1980(2)
N10_11 N 0.7548(5) 0.2951(3) 0.16247(18)
H9_11 H 0.857710 0.284179 0.125605
H10_11 H 0.680703 0.304110 0.207448
C16_12 C 0.0057(6) 0.4535(5) 0.1980(2)
H10_12 H 0.069297 0.445890 0.207448
C3_12 C 0.5976(6) 0.5354(6) 0.3496(2)
C4_12 C 0.4943(6) 0.5465(5) 0.3020(2)
H1_12 H 0.607710 0.534179 0.374395
C5_12 C 0.6803(6) 0.5271(6) 0.3273(2)
C6_12 C 0.5716(6) 0.5375(5) 0.2788(2)
H2_12 H 0.430703 0.554110 0.292552
H3_12 H 0.744240 0.522889 0.337056
C7_12 C 0.6671(6) 0.5250(5) 0.2908(2)
H4_12 H 0.559581 0.539751 0.254158
C8_12 C 0.7533(6) 0.5101(5) 0.2674(2)
H5_12 H 0.817242 0.514821 0.277162
C11_12 C 0.7467(6) 0.4899(5) 0.2326(2)
C12_12 C 0.8329(6) 0.4750(5) 0.2092(2)
H6_12 H 0.682758 0.485179 0.222838
C13_12 C 0.8197(6) 0.4729(6) 0.1727(2)
C14_12 C 0.9284(6) 0.4625(5) 0.2212(2)
C15_12 C 0.9024(6) 0.4646(6) 0.1504(2)
H7_12 H 0.755760 0.477111 0.162944
H8_12 H 0.940419 0.460249 0.245842
N10_12 N 0.9952(5) 0.4549(3) 0.16247(18)
H9_12 H 0.892290 0.465821 0.125605
C16_13 C 0.0057(6) 0.7965(5) 0.0520(2)
H10_13 H 0.069297 0.804110 0.042552
C11_13 C 0.7467(6) 0.7601(5) 0.0174(2)
C12_13 C 0.8329(6) 0.7750(5) 0.0408(2)
H6_13 H 0.682758 0.764821 0.027162
C13_13 C 0.8197(6) 0.7771(6) 0.0773(2)
C14_13 C 0.9284(6) 0.7875(5) 0.0288(2)
C15_13 C 0.9024(6) 0.7854(6) 0.0996(2)
H7_13 H 0.755760 0.772889 0.087056
H8_13 H 0.940419 0.789751 0.004158
N10_13 N 0.9952(5) 0.7951(3) 0.08753(18)
H9_13 H 0.892290 0.784179 0.124395
N3_7 N 0.5048(5) 0.7049(3) 0.91247(18)
C3_13 C 0.5976(6) 0.7146(6) 0.9004(2)
C4_13 C 0.4943(6) 0.7035(5) 0.9480(2)
H1_13 H 0.607710 0.715821 0.875605
C5_13 C 0.6803(6) 0.7229(6) 0.9227(2)
C6_13 C 0.5716(6) 0.7125(5) 0.9712(2)
H2_13 H 0.430703 0.695890 0.957448
H3_13 H 0.744240 0.727111 0.912944
C7_13 C 0.6671(6) 0.7250(5) 0.9592(2)
H4_13 H 0.559581 0.710249 0.995842
C8_13 C 0.7533(6) 0.7399(5) 0.9826(2)
H5_13 H 0.817242 0.735179 0.972838
N7_7 N 0.4432(5) 0.7773(4) 0.8406(2)
N8_7 N 0.3068(5) 0.7773(4) 0.9094(2)
N9_7 N 0.2452(5) 0.7049(3) 0.83753(18)
N3_8 N 0.2452(5) 0.0451(3) 0.91247(18)
C3_14 C 0.1524(6) 0.0354(6) 0.9004(2)
C4_14 C 0.2557(6) 0.0465(5) 0.9480(2)
H1_14 H 0.142290 0.034179 0.875605
C5_14 C 0.0697(6) 0.0271(6) 0.9227(2)
C6_14 C 0.1784(6) 0.0375(5) 0.9712(2)
H2_14 H 0.319297 0.054110 0.957448
H3_14 H 0.005760 0.022889 0.912944
C7_14 C 0.0829(6) 0.0250(5) 0.9592(2)
H4_14 H 0.190419 0.039751 0.995842
N9_8 N 0.5048(5) 0.0451(3) 0.83753(18)
C11_14 C 0.0033(6) 0.9899(5) 0.0174(2)
H6_14 H 0.067242 0.985179 0.027162
N7_8 N 0.3068(5) 0.9727(4) 0.8406(2)
N8_8 N 0.4432(5) 0.9727(4) 0.9094(2)
C8_14 C 0.9967(6) 0.0101(5) 0.9826(2)
H5_14 H 0.932758 0.014821 0.972838
C12_14 C 0.9171(6) 0.9750(5) 0.0408(2)
C13_14 C 0.9303(6) 0.9729(6) 0.0773(2)
C14_14 C 0.8216(6) 0.9625(5) 0.0288(2)
C15_14 C 0.8476(6) 0.9646(6) 0.0996(2)
H7_14 H 0.994240 0.977111 0.087056
H8_14 H 0.809581 0.960249 0.004158
C16_14 C 0.7443(6) 0.9535(5) 0.0520(2)
N10_14 N 0.7548(5) 0.9549(3) 0.08753(18)
H9_14 H 0.857710 0.965821 0.124395
H10_14 H 0.680703 0.945890 0.042552
C3_15 C 0.1524(6) 0.7146(6) 0.8496(2)
C4_15 C 0.2557(6) 0.7035(5) 0.8020(2)
H1_15 H 0.142290 0.715821 0.874395
C5_15 C 0.0697(6) 0.7229(6) 0.8273(2)
C6_15 C 0.1784(6) 0.7125(5) 0.7788(2)
H2_15 H 0.319297 0.695890 0.792552
H3_15 H 0.005760 0.727111 0.837056
C7_15 C 0.0829(6) 0.7250(5) 0.7908(2)
H4_15 H 0.190419 0.710249 0.754158
C11_15 C 0.0033(6) 0.7601(5) 0.7326(2)
H6_15 H 0.067242 0.764821 0.722838
C8_15 C 0.9967(6) 0.7399(5) 0.7674(2)
H5_15 H 0.932758 0.735179 0.777162
C12_15 C 0.9171(6) 0.7750(5) 0.7092(2)
C13_15 C 0.9303(6) 0.7771(6) 0.6727(2)
C14_15 C 0.8216(6) 0.7875(5) 0.7212(2)
C15_15 C 0.8476(6) 0.7854(6) 0.6504(2)
H7_15 H 0.994240 0.772889 0.662944
H8_15 H 0.809581 0.789751 0.745842
C16_15 C 0.7443(6) 0.7965(5) 0.6980(2)
N10_15 N 0.7548(5) 0.7951(3) 0.66247(18)
H9_15 H 0.857710 0.784179 0.625605
H10_15 H 0.680703 0.804110 0.707448
C16_16 C 0.0057(6) 0.9535(5) 0.6980(2)
H10_16 H 0.069297 0.945890 0.707448
C3_16 C 0.5976(6) 0.0354(6) 0.8496(2)
C4_16 C 0.4943(6) 0.0465(5) 0.8020(2)
H1_16 H 0.607710 0.034179 0.874395
C5_16 C 0.6803(6) 0.0271(6) 0.8273(2)
C6_16 C 0.5716(6) 0.0375(5) 0.7788(2)
H2_16 H 0.430703 0.054110 0.792552
H3_16 H 0.744240 0.022889 0.837056
C7_16 C 0.6671(6) 0.0250(5) 0.7908(2)
H4_16 H 0.559581 0.039751 0.754158
C8_16 C 0.7533(6) 0.0101(5) 0.7674(2)
H5_16 H 0.817242 0.014821 0.777162
C11_16 C 0.7467(6) 0.9899(5) 0.7326(2)
C12_16 C 0.8329(6) 0.9750(5) 0.7092(2)
H6_16 H 0.682758 0.985179 0.722838
C13_16 C 0.8197(6) 0.9729(6) 0.6727(2)
C14_16 C 0.9284(6) 0.9625(5) 0.7212(2)
C15_16 C 0.9024(6) 0.9646(6) 0.6504(2)
H7_16 H 0.755760 0.977111 0.662944
H8_16 H 0.940419 0.960249 0.745842
N10_16 N 0.9952(5) 0.9549(3) 0.66247(18)
H9_16 H 0.892290 0.965821 0.625605
Hg1_9 Hg 0.375000 0.875000 0.00544(2)
Se1_9 Se 0.30646(7) 0.96528(5) 0.05093(2)
C1_9 C 0.2353(6) 0.9057(5) 0.0764(2)
N1_5 N 0.1935(5) 0.8677(4) 0.0928(2)
Se4_9 Se 0.44354(7) 0.78472(5) 0.05093(2)
C10_9 C 0.5147(6) 0.8443(5) 0.0764(2)
N5_9 N 0.5565(5) 0.8823(4) 0.0928(2)
N6_5 N 0.0565(5) 0.8677(4) 0.1572(2)
Se2_9 Se 0.21335(8) 0.85219(7) 0.96781(3)
C2_9 C 0.2738(6) 0.8068(5) 0.9321(3)
Se3_9 Se 0.53665(8) 0.89781(7) 0.96781(3)
C9_9 C 0.4762(6) 0.9432(5) 0.9321(3)
C1_10 C 0.0147(6) 0.3443(5) 0.0764(2)
N1_6 N 0.0565(5) 0.3823(4) 0.0928(2)
N6_6 N 0.1935(5) 0.3823(4) 0.1572(2)
Se2_10 Se 0.03665(8) 0.39781(7) 0.96781(3)
Hg1_10 Hg 0.875000 0.375000 0.00544(2)
Se1_10 Se 0.94354(7) 0.28472(5) 0.05093(2)
Se4_10 Se 0.80646(7) 0.46528(5) 0.05093(2)
C10_10 C 0.7353(6) 0.4057(5) 0.0764(2)
N5_10 N 0.6935(5) 0.3677(4) 0.0928(2)
C2_10 C 0.9762(6) 0.4432(5) 0.9321(3)
Se3_10 Se 0.71335(8) 0.35219(7) 0.96781(3)
C9_10 C 0.7738(6) 0.3068(5) 0.9321(3)
Se2_11 Se 0.03665(8) 0.85219(7) 0.28219(3)
C1_11 C 0.0147(6) 0.9057(5) 0.1736(2)
Hg1_11 Hg 0.875000 0.875000 0.24456(2)
Se1_11 Se 0.94354(7) 0.96528(5) 0.19907(2)
C2_11 C 0.9762(6) 0.8068(5) 0.3179(3)
Se3_11 Se 0.71335(8) 0.89781(7) 0.28219(3)
Se4_11 Se 0.80646(7) 0.78472(5) 0.19907(2)
C9_11 C 0.7738(6) 0.9432(5) 0.3179(3)
C10_11 C 0.7353(6) 0.8443(5) 0.1736(2)
N5_11 N 0.6935(5) 0.8823(4) 0.1572(2)
Hg1_12 Hg 0.375000 0.375000 0.24456(2)
Se1_12 Se 0.30646(7) 0.28472(5) 0.19907(2)
Se2_12 Se 0.21335(8) 0.39781(7) 0.28219(3)
C1_12 C 0.2353(6) 0.3443(5) 0.1736(2)
C2_12 C 0.2738(6) 0.4432(5) 0.3179(3)
Se3_12 Se 0.53665(8) 0.35219(7) 0.28219(3)
Se4_12 Se 0.44354(7) 0.46528(5) 0.19907(2)
C9_12 C 0.4762(6) 0.3068(5) 0.3179(3)
C10_12 C 0.5147(6) 0.4057(5) 0.1736(2)
N5_12 N 0.5565(5) 0.3677(4) 0.1572(2)
Hg1_13 Hg 0.375000 0.375000 0.50544(2)
Se1_13 Se 0.30646(7) 0.46528(5) 0.55093(2)
Se2_13 Se 0.21335(8) 0.35219(7) 0.46781(3)
C1_13 C 0.2353(6) 0.4057(5) 0.5764(2)
C2_13 C 0.2738(6) 0.3068(5) 0.4321(3)
N1_7 N 0.1935(5) 0.3677(4) 0.5928(2)
Se3_13 Se 0.53665(8) 0.39781(7) 0.46781(3)
Se4_13 Se 0.44354(7) 0.28472(5) 0.55093(2)
C9_13 C 0.4762(6) 0.4432(5) 0.4321(3)
C10_13 C 0.5147(6) 0.3443(5) 0.5764(2)
N5_13 N 0.5565(5) 0.3823(4) 0.5928(2)
N6_7 N 0.0565(5) 0.3677(4) 0.6572(2)
Se2_14 Se 0.03665(8) 0.89781(7) 0.46781(3)
C1_14 C 0.0147(6) 0.8443(5) 0.5764(2)
N1_8 N 0.0565(5) 0.8823(4) 0.5928(2)
N6_8 N 0.1935(5) 0.8823(4) 0.6572(2)
Hg1_14 Hg 0.875000 0.875000 0.50544(2)
Se1_14 Se 0.94354(7) 0.78472(5) 0.55093(2)
C2_14 C 0.9762(6) 0.9432(5) 0.4321(3)
Se3_14 Se 0.71335(8) 0.85219(7) 0.46781(3)
Se4_14 Se 0.80646(7) 0.96528(5) 0.55093(2)
C9_14 C 0.7738(6) 0.8068(5) 0.4321(3)
C10_14 C 0.7353(6) 0.9057(5) 0.5764(2)
N5_14 N 0.6935(5) 0.8677(4) 0.5928(2)
Se2_15 Se 0.03665(8) 0.35219(7) 0.78219(3)
C1_15 C 0.0147(6) 0.4057(5) 0.6736(2)
Hg1_15 Hg 0.875000 0.375000 0.74456(2)
Se1_15 Se 0.94354(7) 0.46528(5) 0.69907(2)
C2_15 C 0.9762(6) 0.3068(5) 0.8179(3)
Se3_15 Se 0.71335(8) 0.39781(7) 0.78219(3)
Se4_15 Se 0.80646(7) 0.28472(5) 0.69907(2)
C9_15 C 0.7738(6) 0.4432(5) 0.8179(3)
C10_15 C 0.7353(6) 0.3443(5) 0.6736(2)
N5_15 N 0.6935(5) 0.3823(4) 0.6572(2)
Hg1_16 Hg 0.375000 0.875000 0.74456(2)
Se1_16 Se 0.30646(7) 0.78472(5) 0.69907(2)
Se2_16 Se 0.21335(8) 0.89781(7) 0.78219(3)
C1_16 C 0.2353(6) 0.8443(5) 0.6736(2)
C2_16 C 0.2738(6) 0.9432(5) 0.8179(3)
Se3_16 Se 0.53665(8) 0.85219(7) 0.78219(3)
Se4_16 Se 0.44354(7) 0.96528(5) 0.69907(2)
C9_16 C 0.4762(6) 0.8068(5) 0.8179(3)
C10_16 C 0.5147(6) 0.9057(5) 0.6736(2)
N5_16 N 0.5565(5) 0.8677(4) 0.6572(2)
loop_
_geom_bond_atom_site_label_1
_geom_bond_atom_site_label_2
_geom_bond_site_symmetry_1
_geom_bond_site_symmetry_2
C12 C11 1_555 1_555
H6 C11 1_555 1_555
C13 C12 1_555 1_555
C14 C12 1_555 1_555
C15 C13 1_555 1_555
H7 C13 1_555 1_555
H8 C14 1_555 1_555
C16 C14 1_555 1_555
N10 C15 1_555 1_555
H9 C15 1_555 1_555
H10 C16 1_555 1_555
Fe5 N10 1_555 1_555
C16 N10 1_555 1_555
N3 C3 1_555 1_555
C3 H1 1_555 1_555
C5 C3 1_555 1_555
H3 C5 1_555 1_555
C7 C5 1_555 1_555
H4 C6 1_555 1_555
C8 C7 1_555 1_555
H5 C8 1_555 1_555
C6 C7 1_555 1_555
C2 Se2 1_555 1_555
N2 C2 1_555 1_555
C9 Se3 1_555 1_555
N4 C9 1_555 1_555
Fe5 N2 1_555 1_555
Hg1 Se1 1_555 1_555
Se1 C1 1_555 1_555
C1 N1 1_555 1_555
N1 Fe1 1_555 1_555
H2 C4 1_555 1_555
Se4 Hg1 1_555 1_555
C10 Se4 1_555 1_555
N5 C10 1_555 1_555
Fe4 N5 1_555 1_555
N6 Fe1 1_555 1_555
N7 Fe1 1_555 1_555
N8 Fe1 1_555 1_555
N9 Fe1 1_555 1_555
N2_2 C2_2 1_555 1_555
C9_2 Se3_2 1_555 1_555
N4_2 C9_2 1_555 1_555
Fe2 N2_2 1_555 1_555
Fe3_2 N4_2 1_555 1_555
Hg1_2 Se1_2 1_555 1_555
Se4_2 Hg1_2 1_555 1_555
C10_2 Se4_2 1_555 1_555
N5_2 C10_2 1_555 1_555
Fe4_2 N5_2 1_555 1_555
C12_2 C11_2 1_555 1_555
H6_2 C11_2 1_555 1_555
C13_2 C12_2 1_555 1_555
C14_2 C12_2 1_555 1_555
C15_2 C13_2 1_555 1_555
H7_2 C13_2 1_555 1_555
H8_2 C14_2 1_555 1_555
C16_2 C14_2 1_555 1_555
N10_2 C15_2 1_555 1_555
H9_2 C15_2 1_555 1_555
H10_2 C16_2 1_555 1_555
Fe2 N10_2 1_555 1_555
C16_2 N10_2 1_555 1_555
C1_2 N1_2 1_555 1_555
N1_2 Fe1_2 1_555 1_555
Fe1_2 N3_2 1_555 1_555
N3_2 C3_2 1_555 1_555
C3_2 H1_2 1_555 1_555
C4_2 N3_2 1_555 1_555
C5_2 C3_2 1_555 1_555
C6_2 C4_2 1_555 1_555
H2_2 C4_2 1_555 1_555
H3_2 C5_2 1_555 1_555
C7_2 C5_2 1_555 1_555
H4_2 C6_2 1_555 1_555
C8_2 C7_2 1_555 1_555
H5_2 C8_2 1_555 1_555
N6_2 Fe1_2 1_555 1_555
N7_2 Fe1_2 1_555 1_555
N8_2 Fe1_2 1_555 1_555
C6_2 C7_2 1_555 1_555
Hg1_3 Se1_3 1_555 1_555
N2_3 C2_3 1_555 1_555
Se3_3 Hg1_3 1_555 1_555
Se4_3 Hg1_3 1_555 1_555
C9_3 Se3_3 1_555 1_555
C10_3 Se4_3 1_555 1_555
N4_3 C9_3 1_555 1_555
N5_3 C10_3 1_555 1_555
Fe2_2 N2_3 1_555 1_555
Fe4 N5_3 1_555 1_555
C1_3 N6 1_555 1_555
N9 C3_3 1_555 1_555
C3_3 H1_3 1_555 1_555
C4_3 N9 1_555 1_555
C5_3 C3_3 1_555 1_555
C6_3 C4_3 1_555 1_555
H2_3 C4_3 1_555 1_555
H3_3 C5_3 1_555 1_555
C7_3 C5_3 1_555 1_555
H4_3 C6_3 1_555 1_555
C8_3 C7_3 1_555 1_555
H5_3 C8_3 1_555 1_555
C11_3 C8_3 1_555 1_555
C12_3 C11_3 1_555 1_555
H6_3 C11_3 1_555 1_555
C13_3 C12_3 1_555 1_555
C14_3 C12_3 1_555 1_555
C15_3 C13_3 1_555 1_555
H7_3 C13_3 1_555 1_555
H8_3 C14_3 1_555 1_555
C16_3 C14_3 1_555 1_555
N10_3 C15_3 1_555 1_555
H9_3 C15_3 1_555 1_555
H10_3 C16_3 1_555 1_555
Fe2_2 N10_3 1_555 1_555
C6_3 C7_3 1_555 1_555
C16_3 N10_3 1_555 1_555
N9_2 C3_4 1_555 1_555
C3_4 H1_4 1_555 1_555
C5_4 C3_4 1_555 1_555
H3_4 C5_4 1_555 1_555
C7_4 C5_4 1_555 1_555
H4_4 C6_4 1_555 1_555
C8_4 C7_4 1_555 1_555
H5_4 C8_4 1_555 1_555
C11_4 C8_4 1_555 1_555
C12_4 C11_4 1_555 1_555
H6_4 C11_4 1_555 1_555
C13_4 C12_4 1_555 1_555
C14_4 C12_4 1_555 1_555
C15_4 C13_4 1_555 1_555
H7_4 C13_4 1_555 1_555
H8_4 C14_4 1_555 1_555
C16_4 C14_4 1_555 1_555
N10_4 C15_4 1_555 1_555
H9_4 C15_4 1_555 1_555
H10_4 C16_4 1_555 1_555
Fe5_2 N10_4 1_555 1_555
C6_4 C7_4 1_555 1_555
C16_4 N10_4 1_555 1_555
Hg1_4 Se1_4 1_555 1_555
Se1_4 C1_4 1_555 1_555
Se2_4 Hg1_4 1_555 1_555
C1_4 N6_2 1_555 1_555
C2_4 Se2_4 1_555 1_555
N2_4 C2_4 1_555 1_555
H2_4 C4_4 1_555 1_555
Se3_4 Hg1_4 1_555 1_555
Se4_4 Hg1_4 1_555 1_555
C9_4 Se3_4 1_555 1_555
C10_4 Se4_4 1_555 1_555
N4_4 C9_4 1_555 1_555
N5_4 C10_4 1_555 1_555
Fe5_2 N2_4 1_555 1_555
Fe3_4 N4_4 1_555 1_555
Fe4_2 N5_4 1_555 1_555
N3_3 C3_5 1_555 1_555
C3_5 H1_5 1_555 1_555
C5_5 C3_5 1_555 1_555
H3_5 C5_5 1_555 1_555
C7_5 C5_5 1_555 1_555
H4_5 C6_5 1_555 1_555
C8_5 C7_5 1_555 1_555
H5_5 C8_5 1_555 1_555
C11_5 C8_5 1_555 1_555
C12_5 C11_5 1_555 1_555
H6_5 C11_5 1_555 1_555
C13_5 C12_5 1_555 1_555
C14_5 C12_5 1_555 1_555
C15_5 C13_5 1_555 1_555
H7_5 C13_5 1_555 1_555
H8_5 C14_5 1_555 1_555
C16_5 C14_5 1_555 1_555
N10_5 C15_5 1_555 1_555
H9_5 C15_5 1_555 1_555
H10_5 C16_5 1_555 1_555
Fe3_4 N10_5 1_555 1_555
C6_5 C7_5 1_555 1_555
C16_5 N10_5 1_555 1_555
Hg1_5 Se1_5 1_555 1_555
Se1_5 C1_5 1_555 1_555
Se2_5 Hg1_5 1_555 1_555
C1_5 N1_3 1_555 1_555
C2_5 Se2_5 1_555 1_555
N1_3 Fe1_3 1_555 1_555
N2_5 C2_5 1_555 1_555
H2_5 C4_5 1_555 1_555
Se3_5 Hg1_5 1_555 1_555
Se4_5 Hg1_5 1_555 1_555
C9_5 Se3_5 1_555 1_555
C10_5 Se4_5 1_555 1_555
N4_5 C9_5 1_555 1_555
N5_5 C10_5 1_555 1_555
Fe3_4 N2_5 1_555 1_555
Fe5_2 N4_5 1_555 1_555
Fe4_3 N5_5 1_555 1_555
N6_3 Fe1_3 1_555 1_555
N7_3 Fe1_3 1_555 1_555
N8_3 Fe1_3 1_555 1_555
N9_3 Fe1_3 1_555 1_555
Hg1_6 Se1_6 1_555 1_555
N2_6 C2_6 1_555 1_555
Se3_6 Hg1_6 1_555 1_555
Se4_6 Hg1_6 1_555 1_555
C9_6 Se3_6 1_555 1_555
C10_6 Se4_6 1_555 1_555
N4_6 C9_6 1_555 1_555
N5_6 C10_6 1_555 1_555
Fe2_2 N4_6 1_555 1_555
Fe4_4 N5_6 1_555 1_555
C1_6 N1_4 1_555 1_555
N1_4 Fe1_4 1_555 1_555
Fe1_4 N3_4 1_555 1_555
N3_4 C3_6 1_555 1_555
C3_6 H1_6 1_555 1_555
C4_6 N3_4 1_555 1_555
C5_6 C3_6 1_555 1_555
C6_6 C4_6 1_555 1_555
H2_6 C4_6 1_555 1_555
H3_6 C5_6 1_555 1_555
C7_6 C5_6 1_555 1_555
H4_6 C6_6 1_555 1_555
C8_6 C7_6 1_555 1_555
H5_6 C8_6 1_555 1_555
N6_4 Fe1_4 1_555 1_555
C6_6 C7_6 1_555 1_555
C12_6 C11_6 1_555 1_555
H6_6 C11_6 1_555 1_555
C13_6 C12_6 1_555 1_555
C14_6 C12_6 1_555 1_555
C15_6 C13_6 1_555 1_555
H7_6 C13_6 1_555 1_555
H8_6 C14_6 1_555 1_555
C16_6 C14_6 1_555 1_555
N10_6 C15_6 1_555 1_555
H9_6 C15_6 1_555 1_555
H10_6 C16_6 1_555 1_555
Fe3_3 N10_6 1_555 1_555
C16_6 N10_6 1_555 1_555
Hg1_7 Se1_7 1_555 1_555
N2_7 C2_7 1_555 1_555
Se3_7 Hg1_7 1_555 1_555
Se4_7 Hg1_7 1_555 1_555
C9_7 Se3_7 1_555 1_555
C10_7 Se4_7 1_555 1_555
N4_7 C9_7 1_555 1_555
N5_7 C10_7 1_555 1_555
Fe3_2 N2_7 1_555 1_555
Fe2 N4_7 1_555 1_555
Fe4_3 N5_7 1_555 1_555
C1_7 N6_3 1_555 1_555
N9_3 C3_7 1_555 1_555
C3_7 H1_7 1_555 1_555
C4_7 N9_3 1_555 1_555
C5_7 C3_7 1_555 1_555
C6_7 C4_7 1_555 1_555
H2_7 C4_7 1_555 1_555
H3_7 C5_7 1_555 1_555
C7_7 C5_7 1_555 1_555
H4_7 C6_7 1_555 1_555
C8_7 C7_7 1_555 1_555
H5_7 C8_7 1_555 1_555
C11_7 C8_7 1_555 1_555
C12_7 C11_7 1_555 1_555
H6_7 C11_7 1_555 1_555
C13_7 C12_7 1_555 1_555
C14_7 C12_7 1_555 1_555
C15_7 C13_7 1_555 1_555
H7_7 C13_7 1_555 1_555
H8_7 C14_7 1_555 1_555
C16_7 C14_7 1_555 1_555
N10_7 C15_7 1_555 1_555
H9_7 C15_7 1_555 1_555
H10_7 C16_7 1_555 1_555
Fe3_2 N10_7 1_555 1_555
C6_7 C7_7 1_555 1_555
C16_7 N10_7 1_555 1_555
N9_4 C3_8 1_555 1_555
C3_8 H1_8 1_555 1_555
C5_8 C3_8 1_555 1_555
H3_8 C5_8 1_555 1_555
C7_8 C5_8 1_555 1_555
H4_8 C6_8 1_555 1_555
C8_8 C7_8 1_555 1_555
H5_8 C8_8 1_555 1_555
C6_8 C7_8 1_555 1_555
C12_8 C11_8 1_555 1_555
H6_8 C11_8 1_555 1_555
C13_8 C12_8 1_555 1_555
C14_8 C12_8 1_555 1_555
C15_8 C13_8 1_555 1_555
H7_8 C13_8 1_555 1_555
H8_8 C14_8 1_555 1_555
C16_8 C14_8 1_555 1_555
N10_8 C15_8 1_555 1_555
H9_8 C15_8 1_555 1_555
H10_8 C16_8 1_555 1_555
Fe3 N10_8 1_555 1_555
C16_8 N10_8 1_555 1_555
Hg1_8 Se1_8 1_555 1_555
Se1_8 C1_8 1_555 1_555
Se2_8 Hg1_8 1_555 1_555
C1_8 N6_4 1_555 1_555
C2_8 Se2_8 1_555 1_555
N2_8 C2_8 1_555 1_555
H2_8 C4_8 1_555 1_555
Se3_8 Hg1_8 1_555 1_555
Se4_8 Hg1_8 1_555 1_555
C9_8 Se3_8 1_555 1_555
C10_8 Se4_8 1_555 1_555
N4_8 C9_8 1_555 1_555
N5_8 C10_8 1_555 1_555
Fe5 N4_8 1_555 1_555
Fe4_4 N5_8 1_555 1_555
H10_9 C16_9 1_555 1_555
Fe4_4 N3_5 1_555 1_555
N3_5 C3_9 1_555 1_555
C3_9 H1_9 1_555 1_555
C4_9 N3_5 1_555 1_555
C5_9 C3_9 1_555 1_555
C6_9 C4_9 1_555 1_555
H2_9 C4_9 1_555 1_555
H3_9 C5_9 1_555 1_555
C7_9 C5_9 1_555 1_555
H4_9 C6_9 1_555 1_555
C8_9 C7_9 1_555 1_555
H5_9 C8_9 1_555 1_555
N7_5 Fe4_4 1_555 1_555
N8_5 Fe4_4 1_555 1_555
N9_5 Fe4_4 1_555 1_555
C11_9 C8_9 1_555 1_555
C12_9 C11_9 1_555 1_555
H6_9 C11_9 1_555 1_555
C13_9 C12_9 1_555 1_555
C14_9 C12_9 1_555 1_555
C15_9 C13_9 1_555 1_555
H7_9 C13_9 1_555 1_555
H8_9 C14_9 1_555 1_555
N10_9 C15_9 1_555 1_555
H9_9 C15_9 1_555 1_555
C6_9 C7_9 1_555 1_555
Fe4_3 N3_6 1_555 1_555
N3_6 C3_10 1_555 1_555
C3_10 H1_10 1_555 1_555
C4_10 N3_6 1_555 1_555
C5_10 C3_10 1_555 1_555
C6_10 C4_10 1_555 1_555
H2_10 C4_10 1_555 1_555
H3_10 C5_10 1_555 1_555
C7_10 C5_10 1_555 1_555
H4_10 C6_10 1_555 1_555
N7_6 Fe4_3 1_555 1_555
N8_6 Fe4_3 1_555 1_555
N9_6 Fe4_3 1_555 1_555
H6_10 C11_10 1_555 1_555
C6_10 C7_10 1_555 1_555
H5_10 C8_10 1_555 1_555
C13_10 C12_10 1_555 1_555
C14_10 C12_10 1_555 1_555
C15_10 C13_10 1_555 1_555
H7_10 C13_10 1_555 1_555
H8_10 C14_10 1_555 1_555
C16_10 C14_10 1_555 1_555
N10_10 C15_10 1_555 1_555
H9_10 C15_10 1_555 1_555
H10_10 C16_10 1_555 1_555
Fe5_2 N10_10 1_555 1_555
C16_10 N10_10 1_555 1_555
N9_5 C3_11 1_555 1_555
C3_11 H1_11 1_555 1_555
C4_11 N9_5 1_555 1_555
C5_11 C3_11 1_555 1_555
C6_11 C4_11 1_555 1_555
H2_11 C4_11 1_555 1_555
H3_11 C5_11 1_555 1_555
C7_11 C5_11 1_555 1_555
H4_11 C6_11 1_555 1_555
H6_11 C11_11 1_555 1_555
C6_11 C7_11 1_555 1_555
H5_11 C8_11 1_555 1_555
C13_11 C12_11 1_555 1_555
C14_11 C12_11 1_555 1_555
C15_11 C13_11 1_555 1_555
H7_11 C13_11 1_555 1_555
H8_11 C14_11 1_555 1_555
C16_11 C14_11 1_555 1_555
N10_11 C15_11 1_555 1_555
H9_11 C15_11 1_555 1_555
H10_11 C16_11 1_555 1_555
Fe5 N10_11 1_555 1_555
C16_11 N10_11 1_555 1_555
H10_12 C16_12 1_555 1_555
N9_6 C3_12 1_555 1_555
C3_12 H1_12 1_555 1_555
C4_12 N9_6 1_555 1_555
C5_12 C3_12 1_555 1_555
C6_12 C4_12 1_555 1_555
H2_12 C4_12 1_555 1_555
H3_12 C5_12 1_555 1_555
C7_12 C5_12 1_555 1_555
H4_12 C6_12 1_555 1_555
C8_12 C7_12 1_555 1_555
H5_12 C8_12 1_555 1_555
C11_12 C8_12 1_555 1_555
C12_12 C11_12 1_555 1_555
H6_12 C11_12 1_555 1_555
C13_12 C12_12 1_555 1_555
C14_12 C12_12 1_555 1_555
C15_12 C13_12 1_555 1_555
H7_12 C13_12 1_555 1_555
H8_12 C14_12 1_555 1_555
N10_12 C15_12 1_555 1_555
H9_12 C15_12 1_555 1_555
C6_12 C7_12 1_555 1_555
H10_13 C16_13 1_555 1_555
C12_13 C11_13 1_555 1_555
H6_13 C11_13 1_555 1_555
C13_13 C12_13 1_555 1_555
C14_13 C12_13 1_555 1_555
C15_13 C13_13 1_555 1_555
H7_13 C13_13 1_555 1_555
H8_13 C14_13 1_555 1_555
N10_13 C15_13 1_555 1_555
H9_13 C15_13 1_555 1_555
Fe4_2 N3_7 1_555 1_555
N3_7 C3_13 1_555 1_555
C3_13 H1_13 1_555 1_555
C4_13 N3_7 1_555 1_555
C5_13 C3_13 1_555 1_555
C6_13 C4_13 1_555 1_555
H2_13 C4_13 1_555 1_555
H3_13 C5_13 1_555 1_555
C7_13 C5_13 1_555 1_555
H4_13 C6_13 1_555 1_555
C8_13 C7_13 1_555 1_555
H5_13 C8_13 1_555 1_555
N7_7 Fe4_2 1_555 1_555
N8_7 Fe4_2 1_555 1_555
N9_7 Fe4_2 1_555 1_555
C6_13 C7_13 1_555 1_555
Fe4 N3_8 1_555 1_555
N3_8 C3_14 1_555 1_555
C3_14 H1_14 1_555 1_555
C4_14 N3_8 1_555 1_555
C5_14 C3_14 1_555 1_555
C6_14 C4_14 1_555 1_555
H2_14 C4_14 1_555 1_555
H3_14 C5_14 1_555 1_555
C7_14 C5_14 1_555 1_555
H4_14 C6_14 1_555 1_555
N9_8 Fe4 1_555 1_555
C6_14 C7_14 1_555 1_555
H6_14 C11_14 1_555 1_555
H5_14 C8_14 1_555 1_555
C13_14 C12_14 1_555 1_555
C14_14 C12_14 1_555 1_555
C15_14 C13_14 1_555 1_555
H7_14 C13_14 1_555 1_555
H8_14 C14_14 1_555 1_555
C16_14 C14_14 1_555 1_555
N10_14 C15_14 1_555 1_555
H9_14 C15_14 1_555 1_555
H10_14 C16_14 1_555 1_555
Fe3 N10_14 1_555 1_555
C16_14 N10_14 1_555 1_555
N9_7 C3_15 1_555 1_555
C3_15 H1_15 1_555 1_555
C4_15 N9_7 1_555 1_555
C5_15 C3_15 1_555 1_555
C6_15 C4_15 1_555 1_555
H2_15 C4_15 1_555 1_555
H3_15 C5_15 1_555 1_555
C7_15 C5_15 1_555 1_555
H4_15 C6_15 1_555 1_555
H6_15 C11_15 1_555 1_555
C6_15 C7_15 1_555 1_555
H5_15 C8_15 1_555 1_555
C13_15 C12_15 1_555 1_555
C14_15 C12_15 1_555 1_555
C15_15 C13_15 1_555 1_555
H7_15 C13_15 1_555 1_555
H8_15 C14_15 1_555 1_555
C16_15 C14_15 1_555 1_555
N10_15 C15_15 1_555 1_555
H9_15 C15_15 1_555 1_555
H10_15 C16_15 1_555 1_555
Fe3_4 N10_15 1_555 1_555
C16_15 N10_15 1_555 1_555
H10_16 C16_16 1_555 1_555
N9_8 C3_16 1_555 1_555
C3_16 H1_16 1_555 1_555
C4_16 N9_8 1_555 1_555
C5_16 C3_16 1_555 1_555
C6_16 C4_16 1_555 1_555
H2_16 C4_16 1_555 1_555
H3_16 C5_16 1_555 1_555
C7_16 C5_16 1_555 1_555
H4_16 C6_16 1_555 1_555
C8_16 C7_16 1_555 1_555
H5_16 C8_16 1_555 1_555
C6_16 C7_16 1_555 1_555
C12_16 C11_16 1_555 1_555
H6_16 C11_16 1_555 1_555
C13_16 C12_16 1_555 1_555
C14_16 C12_16 1_555 1_555
C15_16 C13_16 1_555 1_555
H7_16 C13_16 1_555 1_555
H8_16 C14_16 1_555 1_555
N10_16 C15_16 1_555 1_555
H9_16 C15_16 1_555 1_555
Hg1_9 Se1_9 1_555 1_555
Se1_9 C1_9 1_555 1_555
C1_9 N1_5 1_555 1_555
N1_5 Fe3_2 1_555 1_555
Se4_9 Hg1_9 1_555 1_555
C10_9 Se4_9 1_555 1_555
N5_9 C10_9 1_555 1_555
Fe3 N5_9 1_555 1_555
N6_5 Fe3_2 1_555 1_555
C2_9 Se2_9 1_555 1_555
N8_7 C2_9 1_555 1_555
C9_9 Se3_9 1_555 1_555
N8_8 C9_9 1_555 1_555
C1_10 N1_6 1_555 1_555
N1_6 Fe2 1_555 1_555
N6_6 Fe2 1_555 1_555
Hg1_10 Se1_10 1_555 1_555
Se4_10 Hg1_10 1_555 1_555
C10_10 Se4_10 1_555 1_555
N5_10 C10_10 1_555 1_555
Fe5 N5_10 1_555 1_555
N8_2 C2_10 1_555 1_555
C9_10 Se3_10 1_555 1_555
N8 C9_10 1_555 1_555
C1_11 N6_5 1_555 1_555
Hg1_11 Se1_11 1_555 1_555
N7_3 C2_11 1_555 1_555
Se3_11 Hg1_11 1_555 1_555
Se4_11 Hg1_11 1_555 1_555
C9_11 Se3_11 1_555 1_555
C10_11 Se4_11 1_555 1_555
N7_4 C9_11 1_555 1_555
N5_11 C10_11 1_555 1_555
Fe3 N5_11 1_555 1_555
Hg1_12 Se1_12 1_555 1_555
Se1_12 C1_12 1_555 1_555
Se2_12 Hg1_12 1_555 1_555
C1_12 N6_6 1_555 1_555
C2_12 Se2_12 1_555 1_555
N7_6 C2_12 1_555 1_555
Se3_12 Hg1_12 1_555 1_555
Se4_12 Hg1_12 1_555 1_555
C9_12 Se3_12 1_555 1_555
C10_12 Se4_12 1_555 1_555
N7_5 C9_12 1_555 1_555
N5_12 C10_12 1_555 1_555
Fe5 N5_12 1_555 1_555
Hg1_13 Se1_13 1_555 1_555
Se1_13 C1_13 1_555 1_555
Se2_13 Hg1_13 1_555 1_555
C1_13 N1_7 1_555 1_555
C2_13 Se2_13 1_555 1_555
N1_7 Fe2_2 1_555 1_555
N8_5 C2_13 1_555 1_555
Se3_13 Hg1_13 1_555 1_555
Se4_13 Hg1_13 1_555 1_555
C9_13 Se3_13 1_555 1_555
C10_13 Se4_13 1_555 1_555
N8_6 C9_13 1_555 1_555
N5_13 C10_13 1_555 1_555
Fe5_2 N5_13 1_555 1_555
N6_7 Fe2_2 1_555 1_555
C1_14 N1_8 1_555 1_555
N1_8 Fe3_3 1_555 1_555
N6_8 Fe3_3 1_555 1_555
Hg1_14 Se1_14 1_555 1_555
N8_4 C2_14 1_555 1_555
Se3_14 Hg1_14 1_555 1_555
Se4_14 Hg1_14 1_555 1_555
C9_14 Se3_14 1_555 1_555
C10_14 Se4_14 1_555 1_555
N8_3 C9_14 1_555 1_555
N5_14 C10_14 1_555 1_555
Fe3_4 N5_14 1_555 1_555
C1_15 N6_7 1_555 1_555
Hg1_15 Se1_15 1_555 1_555
N7 C2_15 1_555 1_555
Se3_15 Hg1_15 1_555 1_555
Se4_15 Hg1_15 1_555 1_555
C9_15 Se3_15 1_555 1_555
C10_15 Se4_15 1_555 1_555
N7_2 C9_15 1_555 1_555
N5_15 C10_15 1_555 1_555
Fe5_2 N5_15 1_555 1_555
Hg1_16 Se1_16 1_555 1_555
Se1_16 C1_16 1_555 1_555
Se2_16 Hg1_16 1_555 1_555
C1_16 N6_8 1_555 1_555
C2_16 Se2_16 1_555 1_555
N7_8 C2_16 1_555 1_555
Se3_16 Hg1_16 1_555 1_555
Se4_16 Hg1_16 1_555 1_555
C9_16 Se3_16 1_555 1_555
C10_16 Se4_16 1_555 1_555
N7_7 C9_16 1_555 1_555
N5_16 C10_16 1_555 1_555
Fe3_4 N5_16 1_555 1_555

#END
