
###############################################################################
#
# This file contains modified crystal structure data generated from the
# MOF subset of the Cambridge Structural Database (CSD) v543 
# hosted by the Cambridge Crystallographic Data Centre (CCDC).
#
# This work is licensed under the Creative Commons
# Attribution-NonCommercial-ShareAlike 4.0 International License.
# To view a copy of this license, visit
# http://creativecommons.org/licenses/by-nc-sa/4.0/
# or send a letter to
# Creative Commons, PO Box 1866, Mountain View, CA 94042, USA.
#
# CIF created using the CSD Python API on 29 September 2022
# The structure has been converted into the P1 space group
# The structure has a 3D framework
# The original CSD entry AZEKIC is in the hexagonal crystal system
# The framework has been calculated to contain at least 10.0% void space
# The void calculation uses a probe of radius 1.32A, grid spacing 0.4
# The framework is charged, counterions have been retained in the structure
# H atom positions have been added when not included in the experimental data
# Generated hydrogen atom positions removed from atoms on special positions
#
###############################################################################

data_AZEKIC
_chemical_formula_moiety         '(C252 H168 O100 Y18 6-)n'
_symmetry_cell_setting           triclinic
_symmetry_space_group_name_H-M   'P 1'
_symmetry_Int_Tables_number      1
_space_group_name_Hall           'P 1'
loop_
_symmetry_equiv_pos_site_id
_symmetry_equiv_pos_as_xyz
1 x,y,z
_cell_length_a                   22.6701(7)
_cell_length_b                   22.6701(7)
_cell_length_c                   23.3049(14)
_cell_angle_alpha                90
_cell_angle_beta                 90
_cell_angle_gamma                120
_cell_volume                     10372.5
loop_
_atom_site_label
_atom_site_type_symbol
_atom_site_fract_x
_atom_site_fract_y
_atom_site_fract_z
O8 O 0.7280(13) 0.1399(18) 0.3086(10)
O9 O 0.6211(9) 0.1247(13) 0.3340(7)
C13 C 0.6677(17) 0.1051(23) 0.3331(11)
C14 C 0.6500(8) 0.0403(11) 0.3642(6)
C15 C 0.5891(8) 0.0068(10) 0.3945(7)
H7 H 0.561537 0.026269 0.397652
C19 C 0.6912(6) 0.0113(11) 0.3596(6)
H10 H 0.731918 0.033669 0.339322
O41 O 0.7280(13) 0.1399(18) 0.1914(10)
O42 O 0.6211(9) 0.1247(13) 0.1660(7)
C97 C 0.6677(17) 0.1051(23) 0.1669(11)
C98 C 0.6500(8) 0.0403(11) 0.1358(6)
C99 C 0.5891(8) 0.0068(10) 0.1055(7)
H51 H 0.561537 0.026269 0.102348
C103 C 0.6912(6) 0.0113(11) 0.1404(6)
H54 H 0.731918 0.033669 0.160678
Y11 Y 0.60905(2) 0.21810(3) 0.34476(4)
Y27 Y 0.60905(2) 0.21810(3) 0.15524(4)
Y29 Y 0.77080(8) 0.22919(4) 0.250000
Y1 Y 0.60905(2) 0.39095(2) 0.34476(4)
Y2 Y 0.77081(4) 0.54161(7) 0.250000
O1 O 0.7260(3) 0.4520(5) 0.3103(5)
O2 O 0.8410(17) 0.682(3) 0.250000
O3 O 0.666667 0.333333 0.3574(8)
O4 O 0.6090(4) 0.3910(4) 0.250000
O5 O 0.7280(13) 0.5881(12) 0.3086(10)
O6 O 0.6211(9) 0.4964(9) 0.3340(7)
O7 O 0.4508(7) 0.7744(6) 0.5766(5)
C1 C 0.6677(17) 0.5626(15) 0.3331(11)
C2 C 0.6500(8) 0.6097(8) 0.3642(6)
C3 C 0.5891(8) 0.5823(6) 0.3945(7)
H1 H 0.561537 0.535268 0.397652
C4 C 0.5694(6) 0.6251(9) 0.4202(6)
H2 H 0.528672 0.606739 0.440452
C5 C 0.6106(8) 0.6953(8) 0.4155(6)
C6 C 0.6715(8) 0.7227(6) 0.3852(7)
H3 H 0.699052 0.769719 0.382123
C7 C 0.6912(6) 0.6799(9) 0.3596(6)
H4 H 0.731918 0.698249 0.339322
C8 C 0.6124(13) 0.8062(7) 0.4168(11)
H5 H 0.642276 0.821139 0.385807
C9 C 0.5890(10) 0.7403(10) 0.4410(8)
C10 C 0.5406(9) 0.7159(9) 0.4874(8)
H6 H 0.523622 0.672091 0.501795
C11 C 0.5192(15) 0.7596(8) 0.5106(9)
C12 C 0.4707(14) 0.7354(7) 0.5584(11)
O10 O 0.4508(7) 0.6764(9) 0.5766(5)
C16 C 0.5694(6) 0.9443(11) 0.4202(6)
H8 H 0.528672 0.921933 0.440452
C17 C 0.6106(8) 0.9153(11) 0.4155(6)
C18 C 0.6715(8) 0.9488(10) 0.3852(7)
H9 H 0.699052 0.929333 0.382123
C20 C 0.5890(10) 0.8487(14) 0.4410(8)
C21 C 0.5406(9) 0.8247(13) 0.4874(8)
H11 H 0.523622 0.851531 0.501795
Y4 Y 0.45839(7) 0.22920(8) 0.250000
O11 O 0.5480(5) 0.2740(6) 0.3103(5)
O12 O 0.318(3) 0.1590(34) 0.250000
O13 O 0.6090(4) 0.2180(6) 0.250000
O14 O 0.4119(12) 0.1399(18) 0.3086(10)
O15 O 0.5036(9) 0.1247(13) 0.3340(7)
C22 C 0.4374(15) 0.1051(23) 0.3331(11)
C23 C 0.3903(8) 0.0403(11) 0.3642(6)
C24 C 0.4177(6) 0.0068(10) 0.3945(7)
H12 H 0.464732 0.026269 0.397652
C28 C 0.3201(9) 0.0113(11) 0.3596(6)
H15 H 0.301751 0.033669 0.339322
O25 O 0.3236(9) 0.5492(7) 0.5766(5)
C46 C 0.0557(11) 0.4306(6) 0.4202(6)
H24 H 0.078067 0.471328 0.440452
C47 C 0.0847(11) 0.3894(8) 0.4155(6)
C48 C 0.0512(10) 0.3285(8) 0.3852(7)
H25 H 0.070667 0.300948 0.382123
C50 C 0.1938(15) 0.3876(13) 0.4168(11)
H27 H 0.178863 0.357724 0.385807
C51 C 0.1513(14) 0.4110(10) 0.4410(8)
C52 C 0.1753(13) 0.4594(9) 0.4874(8)
H28 H 0.148469 0.476378 0.501795
C53 C 0.2404(17) 0.4808(15) 0.5106(9)
C54 C 0.2647(16) 0.5293(14) 0.5584(11)
O26 O 0.4119(12) 0.2720(13) 0.3086(10)
O27 O 0.5036(9) 0.3789(9) 0.3340(7)
O28 O 0.2256(6) 0.5492(7) 0.5766(5)
C55 C 0.4374(15) 0.3323(17) 0.3331(11)
C56 C 0.3903(8) 0.3500(8) 0.3642(6)
C57 C 0.4177(6) 0.4109(8) 0.3945(7)
H29 H 0.464732 0.438463 0.397652
C58 C 0.3749(9) 0.4306(6) 0.4202(6)
H30 H 0.393261 0.471328 0.440452
C59 C 0.3047(8) 0.3894(8) 0.4155(6)
C60 C 0.2773(6) 0.3285(8) 0.3852(7)
H31 H 0.230281 0.300948 0.382123
C61 C 0.3201(9) 0.3088(6) 0.3596(6)
H32 H 0.301751 0.268082 0.339322
C62 C 0.2597(10) 0.4110(10) 0.4410(8)
C63 C 0.2841(9) 0.4594(9) 0.4874(8)
H33 H 0.327909 0.476378 0.501795
Y7 Y 0.60905(2) 0.39095(2) 0.15524(4)
O29 O 0.5480(5) 0.2740(3) 0.1897(5)
O30 O 0.666667 0.333333 0.1426(8)
O31 O 0.4119(12) 0.2720(13) 0.1914(10)
O32 O 0.5036(9) 0.3789(9) 0.1660(7)
C64 C 0.4374(15) 0.3323(17) 0.1669(11)
C65 C 0.3903(8) 0.3500(8) 0.1358(6)
C66 C 0.4177(6) 0.4109(8) 0.1055(7)
H34 H 0.464732 0.438463 0.102348
C67 C 0.3749(9) 0.4306(6) 0.0798(6)
H35 H 0.393261 0.471328 0.059548
C68 C 0.3047(8) 0.3894(8) 0.0845(6)
C69 C 0.2773(6) 0.3285(8) 0.1148(7)
H36 H 0.230281 0.300948 0.117877
C70 C 0.3201(9) 0.3088(6) 0.1404(6)
H37 H 0.301751 0.268082 0.160678
C71 C 0.1938(7) 0.3876(13) 0.0832(11)
H38 H 0.178861 0.357724 0.114193
C72 C 0.2597(10) 0.4110(10) 0.0590(8)
C73 C 0.2841(9) 0.4594(9) 0.0126(8)
C79 C 0.0557(11) 0.4306(6) 0.0798(6)
H41 H 0.078067 0.471328 0.059548
C80 C 0.0847(11) 0.3894(8) 0.0845(6)
C81 C 0.0512(10) 0.3285(8) 0.1148(7)
H42 H 0.070667 0.300948 0.117877
C83 C 0.1513(14) 0.4110(10) 0.0590(8)
C84 C 0.1753(13) 0.4594(9) 0.0126(8)
O37 O 0.7260(6) 0.4520(5) 0.1897(5)
O38 O 0.7280(13) 0.5881(12) 0.1914(10)
O39 O 0.6211(9) 0.4964(9) 0.1660(7)
C85 C 0.6677(17) 0.5626(15) 0.1669(11)
C86 C 0.6500(8) 0.6097(8) 0.1358(6)
C87 C 0.5891(8) 0.5823(6) 0.1055(7)
H45 H 0.561537 0.535268 0.102348
C88 C 0.5694(6) 0.6251(9) 0.0798(6)
H46 H 0.528672 0.606739 0.059548
C89 C 0.6106(8) 0.6953(8) 0.0845(6)
C90 C 0.6715(8) 0.7227(6) 0.1148(7)
H47 H 0.699052 0.769719 0.117877
C91 C 0.6912(6) 0.6799(9) 0.1404(6)
H48 H 0.731918 0.698249 0.160678
C92 C 0.6124(13) 0.8062(15) 0.0832(11)
H49 H 0.642276 0.821137 0.114193
C93 C 0.5890(10) 0.7403(10) 0.0590(8)
C94 C 0.5406(9) 0.7159(9) 0.0126(8)
C100 C 0.5694(6) 0.9443(11) 0.0798(6)
H52 H 0.528672 0.921933 0.059548
C101 C 0.6106(8) 0.9153(11) 0.0845(6)
C102 C 0.6715(8) 0.9488(10) 0.1148(7)
H53 H 0.699052 0.929333 0.117877
C104 C 0.5890(10) 0.8487(14) 0.0590(8)
C105 C 0.5406(9) 0.8247(13) 0.0126(8)
O44 O 0.4119(12) 0.1399(18) 0.1914(10)
O45 O 0.5036(9) 0.1247(13) 0.1660(7)
C106 C 0.4374(15) 0.1051(23) 0.1669(11)
C107 C 0.3903(8) 0.0403(11) 0.1358(6)
C108 C 0.4177(6) 0.0068(10) 0.1055(7)
H56 H 0.464732 0.026269 0.102348
C112 C 0.3201(9) 0.0113(11) 0.1404(6)
H59 H 0.301751 0.033669 0.160678
Y13 Y 0.78190(3) 0.39095(2) 0.34476(4)
Y19 Y 0.39095(2) 0.60905(2) 0.65524(4)
Y21 Y 0.21810(3) 0.60905(2) 0.65524(4)
Y23 Y 0.39095(2) 0.78190(3) 0.65524(4)
Y25 Y 0.78190(3) 0.39095(2) 0.15524(4)
O52 O 0.7260(6) 0.2740(3) 0.3103(5)
O54 O 0.7260(3) 0.2740(6) 0.1897(5)
O57 O 0.8601(18) 0.5881(12) 0.1914(10)
O59 O 0.8601(18) 0.5881(12) 0.3086(10)
O65 O 0.5492(7) 0.2256(6) 0.0766(5)
O67 O 0.6764(9) 0.4508(7) 0.0766(5)
O69 O 0.6764(9) 0.2256(6) 0.4234(5)
O70 O 0.5492(7) 0.3236(9) 0.4234(5)
O71 O 0.5492(7) 0.2256(6) 0.4234(5)
O73 O 0.6764(9) 0.4508(7) 0.4234(5)
O75 O 0.6764(9) 0.2256(6) 0.0766(5)
O76 O 0.5492(7) 0.3236(9) 0.0766(5)
O33 O 0.2256(6) 0.5492(7) 0.9234(5)
H39 H 0.327909 0.476378 0.998205
C74 C 0.2404(8) 0.4808(15) 0.9894(9)
C75 C 0.2646(7) 0.5293(14) 0.9416(11)
O36 O 0.3236(9) 0.5492(7) 0.9234(5)
H44 H 0.148469 0.476378 0.998205
O40 O 0.4508(7) 0.7744(6) 0.9234(5)
H50 H 0.523622 0.672091 0.998205
C95 C 0.5192(15) 0.7596(17) 0.9894(9)
C96 C 0.4707(14) 0.7353(16) 0.9416(11)
O43 O 0.4508(7) 0.6764(9) 0.9234(5)
H55 H 0.523622 0.851531 0.998205
Y14 Y 0.39095(2) 0.60905(2) 0.84476(4)
Y16 Y 0.39095(2) 0.78190(3) 0.84476(4)
Y18 Y 0.21810(3) 0.60905(2) 0.84476(4)
O16 O 0.2256(6) 0.6764(9) 0.5766(5)
C25 C 0.3749(9) 0.9443(11) 0.4202(6)
H13 H 0.393261 0.921933 0.440452
C26 C 0.3047(8) 0.9153(11) 0.4155(6)
C27 C 0.2773(6) 0.9488(10) 0.3852(7)
H14 H 0.230281 0.929333 0.382123
C29 C 0.1938(7) 0.8062(15) 0.4168(11)
H16 H 0.178861 0.821137 0.385807
C30 C 0.2597(10) 0.8487(14) 0.4410(8)
C31 C 0.2841(9) 0.8247(13) 0.4874(8)
H17 H 0.327909 0.851531 0.501795
C32 C 0.2404(8) 0.7596(17) 0.5106(9)
C33 C 0.2646(7) 0.7353(16) 0.5584(11)
O19 O 0.3236(9) 0.7744(6) 0.5766(5)
C37 C 0.0557(11) 0.6251(9) 0.4202(6)
H19 H 0.078067 0.606739 0.440452
C38 C 0.0847(11) 0.6953(8) 0.4155(6)
C39 C 0.0512(10) 0.7227(6) 0.3852(7)
H20 H 0.070667 0.769719 0.382123
C41 C 0.1513(14) 0.7403(10) 0.4410(8)
C42 C 0.1753(13) 0.7159(9) 0.4874(8)
H22 H 0.148469 0.672091 0.501795
C109 C 0.3749(9) 0.9443(11) 0.0798(6)
H57 H 0.393261 0.921933 0.059548
C110 C 0.3047(8) 0.9153(11) 0.0845(6)
C111 C 0.2773(6) 0.9488(10) 0.1148(7)
H58 H 0.230281 0.929333 0.117877
C113 C 0.1938(15) 0.8062(7) 0.0832(11)
H60 H 0.178863 0.821139 0.114193
C114 C 0.2597(10) 0.8487(14) 0.0590(8)
C115 C 0.2841(9) 0.8247(13) 0.0126(8)
C121 C 0.0557(11) 0.6251(9) 0.0798(6)
H63 H 0.078067 0.606739 0.059548
C122 C 0.0847(11) 0.6953(8) 0.0845(6)
C123 C 0.0512(10) 0.7227(6) 0.1148(7)
H64 H 0.070667 0.769719 0.117877
C125 C 0.1513(14) 0.7403(10) 0.0590(8)
C126 C 0.1753(13) 0.7159(9) 0.0126(8)
O46 O 0.2256(6) 0.6764(9) 0.9234(5)
H61 H 0.327909 0.851531 0.998205
C116 C 0.2404(17) 0.7596(8) 0.9894(9)
C117 C 0.2647(16) 0.7354(7) 0.9416(11)
O49 O 0.3236(9) 0.7744(6) 0.9234(5)
H66 H 0.148469 0.672091 0.998205
O21 O 0.8410(34) 0.1590(17) 0.250000
O22 O 0.7820(6) 0.3910(4) 0.250000
O23 O 0.8601(18) 0.2720(13) 0.3086(10)
O24 O 0.8753(13) 0.3789(9) 0.3340(7)
C43 C 0.8949(23) 0.3323(17) 0.3331(11)
C44 C 0.9597(11) 0.3500(8) 0.3642(6)
C45 C 0.9932(10) 0.4109(8) 0.3945(7)
H23 H 0.973731 0.438463 0.397652
C49 C 0.9887(11) 0.3088(6) 0.3596(6)
H26 H 0.966331 0.268082 0.339322
O34 O 0.8601(18) 0.2720(13) 0.1914(10)
O35 O 0.8753(13) 0.3789(9) 0.1660(7)
C76 C 0.8949(23) 0.3323(17) 0.1669(11)
C77 C 0.9597(11) 0.3500(8) 0.1358(6)
C78 C 0.9932(10) 0.4109(8) 0.1055(7)
H40 H 0.973731 0.438463 0.102348
C82 C 0.9887(11) 0.3088(6) 0.1404(6)
H43 H 0.966331 0.268082 0.160678
O61 O 0.8753(13) 0.4964(9) 0.1660(7)
O63 O 0.8753(13) 0.4964(9) 0.3340(7)
O66 O 0.7744(6) 0.3236(9) 0.0766(5)
O68 O 0.7744(6) 0.4508(7) 0.4234(5)
O72 O 0.7744(6) 0.3236(9) 0.4234(5)
O74 O 0.7744(6) 0.4508(7) 0.0766(5)
C34 C 0.8949(23) 0.5626(15) 0.3331(11)
C35 C 0.9597(11) 0.6097(8) 0.3642(6)
C36 C 0.9932(10) 0.5823(6) 0.3945(7)
H18 H 0.973731 0.535268 0.397652
C40 C 0.9887(11) 0.6799(9) 0.3596(6)
H21 H 0.966331 0.698249 0.339322
C118 C 0.8949(23) 0.5626(15) 0.1669(11)
C119 C 0.9597(11) 0.6097(8) 0.1358(6)
C120 C 0.9932(10) 0.5823(6) 0.1055(7)
H62 H 0.973731 0.535268 0.102348
C124 C 0.9887(11) 0.6799(9) 0.1404(6)
H65 H 0.966331 0.698249 0.160678
O17 O 0.1399(18) 0.4119(12) 0.8086(10)
O18 O 0.1247(13) 0.5036(9) 0.8340(7)
C34_2 C 0.1051(23) 0.4374(15) 0.8331(11)
C35_2 C 0.0403(11) 0.3903(8) 0.8642(6)
C36_2 C 0.0068(10) 0.4177(6) 0.8945(7)
H18_2 H 0.026269 0.464732 0.897652
C40_2 C 0.0113(11) 0.3201(9) 0.8596(6)
H21_2 H 0.033669 0.301751 0.839322
O47 O 0.1399(18) 0.4119(12) 0.6914(10)
O48 O 0.1247(13) 0.5036(9) 0.6660(7)
C118_2 C 0.1051(23) 0.4374(15) 0.6669(11)
C119_2 C 0.0403(11) 0.3903(8) 0.6358(6)
C120_2 C 0.0068(10) 0.4177(6) 0.6055(7)
H62_2 H 0.026269 0.464732 0.602348
C124_2 C 0.0113(11) 0.3201(9) 0.6404(6)
H65_2 H 0.033669 0.301751 0.660678
Y28 Y 0.22919(4) 0.45839(7) 0.750000
Y6 Y 0.22920(8) 0.77081(4) 0.750000
O20 O 0.2740(6) 0.7260(3) 0.8103(5)
O21_2 O 0.1590(34) 0.8410(17) 0.750000
O22_2 O 0.2180(6) 0.6090(4) 0.750000
O23_2 O 0.1399(18) 0.7280(13) 0.8086(10)
O24_2 O 0.1247(13) 0.6211(9) 0.8340(7)
C43_2 C 0.1051(23) 0.6677(17) 0.8331(11)
C44_2 C 0.0403(11) 0.6500(8) 0.8642(6)
C45_2 C 0.0068(10) 0.5891(8) 0.8945(7)
H23_2 H 0.026269 0.561537 0.897652
C49_2 C 0.0113(11) 0.6912(6) 0.8596(6)
H26_2 H 0.033669 0.731918 0.839322
O34_2 O 0.1399(18) 0.7280(13) 0.6914(10)
O35_2 O 0.1247(13) 0.6211(9) 0.6660(7)
C76_2 C 0.1051(23) 0.6677(17) 0.6669(11)
C77_2 C 0.0403(11) 0.6500(8) 0.6358(6)
C78_2 C 0.0068(10) 0.5891(8) 0.6055(7)
H40_2 H 0.026269 0.561537 0.602348
C82_2 C 0.0113(11) 0.6912(6) 0.6404(6)
H43_2 H 0.033669 0.731918 0.660678
O50 O 0.2740(3) 0.7260(6) 0.6897(5)
O51 O 0.2740(3) 0.5480(5) 0.8103(5)
O53 O 0.2740(6) 0.5480(5) 0.6897(5)
O55 O 0.333333 0.666667 0.8574(8)
O56 O 0.333333 0.666667 0.6426(8)
O58 O 0.2720(13) 0.8601(18) 0.6914(10)
O60 O 0.2720(13) 0.8601(18) 0.8086(10)
H17_2 H 0.672091 0.148469 0.001795
C32_2 C 0.7596(8) 0.2404(17) 0.0106(9)
C33_2 C 0.7354(7) 0.2647(16) 0.0584(11)
H22_2 H 0.851531 0.327909 0.001795
C25_2 C 0.6251(9) 0.0557(11) 0.9202(6)
H13_2 H 0.606739 0.078067 0.940452
C26_2 C 0.6953(8) 0.0847(11) 0.9155(6)
C27_2 C 0.7227(6) 0.0512(10) 0.8852(7)
H14_2 H 0.769719 0.070667 0.882123
C29_2 C 0.8062(7) 0.1938(15) 0.9168(11)
H16_2 H 0.821139 0.178863 0.885807
C30_2 C 0.7403(10) 0.1513(14) 0.9410(8)
C31_2 C 0.7159(9) 0.1753(13) 0.9874(8)
C37_2 C 0.9443(11) 0.3749(9) 0.9202(6)
H19_2 H 0.921933 0.393261 0.940452
C38_2 C 0.9153(11) 0.3047(8) 0.9155(6)
C39_2 C 0.9488(10) 0.2773(6) 0.8852(7)
H20_2 H 0.929333 0.230281 0.882123
C41_2 C 0.8487(14) 0.2597(10) 0.9410(8)
C42_2 C 0.8247(13) 0.2841(9) 0.9874(8)
C109_2 C 0.6251(9) 0.0557(11) 0.5798(6)
H57_2 H 0.606739 0.078067 0.559548
C110_2 C 0.6953(8) 0.0847(11) 0.5845(6)
C111_2 C 0.7227(6) 0.0512(10) 0.6148(7)
H58_2 H 0.769719 0.070667 0.617877
C113_2 C 0.8062(15) 0.1938(7) 0.5832(11)
H60_2 H 0.821137 0.178861 0.614193
C114_2 C 0.7403(10) 0.1513(14) 0.5590(8)
C115_2 C 0.7159(9) 0.1753(13) 0.5126(8)
H61_2 H 0.672091 0.148469 0.498205
C116_2 C 0.7596(17) 0.2404(8) 0.4894(9)
C117_2 C 0.7353(16) 0.2646(7) 0.4416(11)
C121_2 C 0.9443(11) 0.3749(9) 0.5798(6)
H63_2 H 0.921933 0.393261 0.559548
C122_2 C 0.9153(11) 0.3047(8) 0.5845(6)
C123_2 C 0.9488(10) 0.2773(6) 0.6148(7)
H64_2 H 0.929333 0.230281 0.617877
C125_2 C 0.8487(14) 0.2597(10) 0.5590(8)
C126_2 C 0.8247(13) 0.2841(9) 0.5126(8)
H66_2 H 0.851531 0.327909 0.498205
H6_2 H 0.476378 0.327909 0.001795
C11_2 C 0.4808(15) 0.2404(8) 0.0106(9)
C12_2 C 0.5293(14) 0.2646(7) 0.0584(11)
H11_2 H 0.476378 0.148469 0.001795
H28_2 H 0.851531 0.523622 0.001795
C53_2 C 0.7596(17) 0.5192(15) 0.0106(9)
C54_2 C 0.7353(16) 0.4707(14) 0.0584(11)
H33_2 H 0.672091 0.523622 0.001795
O2_2 O 0.1590(17) 0.318(3) 0.750000
O4_2 O 0.3910(4) 0.6090(4) 0.750000
O5_2 O 0.2720(13) 0.4119(12) 0.8086(10)
O6_2 O 0.3789(9) 0.5036(9) 0.8340(7)
C1_2 C 0.3323(17) 0.4374(15) 0.8331(11)
C2_2 C 0.3500(8) 0.3903(8) 0.8642(6)
C3_2 C 0.4109(8) 0.4177(6) 0.8945(7)
H1_2 H 0.438463 0.464732 0.897652
C4_2 C 0.4306(6) 0.3749(9) 0.9202(6)
H2_2 H 0.471328 0.393261 0.940452
C5_2 C 0.3894(8) 0.3047(8) 0.9155(6)
C6_2 C 0.3285(8) 0.2773(6) 0.8852(7)
H3_2 H 0.300948 0.230281 0.882123
C7_2 C 0.3088(6) 0.3201(9) 0.8596(6)
H4_2 H 0.268082 0.301751 0.839322
C8_2 C 0.3876(13) 0.1938(7) 0.9168(11)
H5_2 H 0.357724 0.178861 0.885807
C9_2 C 0.4110(10) 0.2597(10) 0.9410(8)
C10_2 C 0.4594(9) 0.2841(9) 0.9874(8)
C16_2 C 0.4306(6) 0.0557(11) 0.9202(6)
H8_2 H 0.471328 0.078067 0.940452
C17_2 C 0.3894(8) 0.0847(11) 0.9155(6)
C18_2 C 0.3285(8) 0.0512(10) 0.8852(7)
H9_2 H 0.300948 0.070667 0.882123
C20_2 C 0.4110(10) 0.1513(14) 0.9410(8)
C21_2 C 0.4594(9) 0.1753(13) 0.9874(8)
Y4_2 Y 0.54161(7) 0.77080(8) 0.750000
O11_2 O 0.4520(5) 0.7260(6) 0.8103(5)
O12_2 O 0.682(3) 0.8410(34) 0.750000
O13_2 O 0.3910(4) 0.7820(6) 0.750000
O14_2 O 0.5881(12) 0.8601(18) 0.8086(10)
O15_2 O 0.4964(9) 0.8753(13) 0.8340(7)
C22_2 C 0.5626(15) 0.8949(23) 0.8331(11)
C23_2 C 0.6097(8) 0.9597(11) 0.8642(6)
C24_2 C 0.5823(6) 0.9932(10) 0.8945(7)
H12_2 H 0.535268 0.973731 0.897652
C28_2 C 0.6799(9) 0.9887(11) 0.8596(6)
H15_2 H 0.698249 0.966331 0.839322
C46_2 C 0.9443(11) 0.5694(6) 0.9202(6)
H24_2 H 0.921933 0.528672 0.940452
C47_2 C 0.9153(11) 0.6106(8) 0.9155(6)
C48_2 C 0.9488(10) 0.6715(8) 0.8852(7)
H25_2 H 0.929333 0.699052 0.882123
C50_2 C 0.8062(15) 0.6124(13) 0.9168(11)
H27_2 H 0.821137 0.642276 0.885807
C51_2 C 0.8487(14) 0.5890(10) 0.9410(8)
C52_2 C 0.8247(13) 0.5406(9) 0.9874(8)
O26_2 O 0.5881(12) 0.7280(13) 0.8086(10)
O27_2 O 0.4964(9) 0.6211(9) 0.8340(7)
C55_2 C 0.5626(15) 0.6677(17) 0.8331(11)
C56_2 C 0.6097(8) 0.6500(8) 0.8642(6)
C57_2 C 0.5823(6) 0.5891(8) 0.8945(7)
H29_2 H 0.535268 0.561537 0.897652
C58_2 C 0.6251(9) 0.5694(6) 0.9202(6)
H30_2 H 0.606739 0.528672 0.940452
C59_2 C 0.6953(8) 0.6106(8) 0.9155(6)
C60_2 C 0.7227(6) 0.6715(8) 0.8852(7)
H31_2 H 0.769719 0.699052 0.882123
C61_2 C 0.6799(9) 0.6912(6) 0.8596(6)
H32_2 H 0.698249 0.731918 0.839322
C62_2 C 0.7403(10) 0.5890(10) 0.9410(8)
C63_2 C 0.7159(9) 0.5406(9) 0.9874(8)
O29_2 O 0.4520(5) 0.7260(3) 0.6897(5)
O31_2 O 0.5881(12) 0.7280(13) 0.6914(10)
O32_2 O 0.4964(9) 0.6211(9) 0.6660(7)
C64_2 C 0.5626(15) 0.6677(17) 0.6669(11)
C65_2 C 0.6097(8) 0.6500(8) 0.6358(6)
C66_2 C 0.5823(6) 0.5891(8) 0.6055(7)
H34_2 H 0.535268 0.561537 0.602348
C67_2 C 0.6251(9) 0.5694(6) 0.5798(6)
H35_2 H 0.606739 0.528672 0.559548
C68_2 C 0.6953(8) 0.6106(8) 0.5845(6)
C69_2 C 0.7227(6) 0.6715(8) 0.6148(7)
H36_2 H 0.769719 0.699052 0.617877
C70_2 C 0.6799(9) 0.6912(6) 0.6404(6)
H37_2 H 0.698249 0.731918 0.660678
C71_2 C 0.8062(7) 0.6124(13) 0.5832(11)
H38_2 H 0.821139 0.642276 0.614193
C72_2 C 0.7403(10) 0.5890(10) 0.5590(8)
C73_2 C 0.7159(9) 0.5406(9) 0.5126(8)
H39_2 H 0.672091 0.523622 0.498205
C74_2 C 0.7596(8) 0.5192(15) 0.4894(9)
C75_2 C 0.7354(7) 0.4707(14) 0.4416(11)
C79_2 C 0.9443(11) 0.5694(6) 0.5798(6)
H41_2 H 0.921933 0.528672 0.559548
C80_2 C 0.9153(11) 0.6106(8) 0.5845(6)
C81_2 C 0.9488(10) 0.6715(8) 0.6148(7)
H42_2 H 0.929333 0.699052 0.617877
C83_2 C 0.8487(14) 0.5890(10) 0.5590(8)
C84_2 C 0.8247(13) 0.5406(9) 0.5126(8)
H44_2 H 0.851531 0.523622 0.498205
O38_2 O 0.2720(13) 0.4119(12) 0.6914(10)
O39_2 O 0.3789(9) 0.5036(9) 0.6660(7)
C85_2 C 0.3323(17) 0.4374(15) 0.6669(11)
C86_2 C 0.3500(8) 0.3903(8) 0.6358(6)
C87_2 C 0.4109(8) 0.4177(6) 0.6055(7)
H45_2 H 0.438463 0.464732 0.602348
C88_2 C 0.4306(6) 0.3749(9) 0.5798(6)
H46_2 H 0.471328 0.393261 0.559548
C89_2 C 0.3894(8) 0.3047(8) 0.5845(6)
C90_2 C 0.3285(8) 0.2773(6) 0.6148(7)
H47_2 H 0.300948 0.230281 0.617877
C91_2 C 0.3088(6) 0.3201(9) 0.6404(6)
H48_2 H 0.268082 0.301751 0.660678
C92_2 C 0.3876(13) 0.1938(15) 0.5832(11)
H49_2 H 0.357724 0.178863 0.614193
C93_2 C 0.4110(10) 0.2597(10) 0.5590(8)
C94_2 C 0.4594(9) 0.2841(9) 0.5126(8)
H50_2 H 0.476378 0.327909 0.498205
C95_2 C 0.4808(15) 0.2404(17) 0.4894(9)
C96_2 C 0.5293(14) 0.2647(16) 0.4416(11)
C100_2 C 0.4306(6) 0.0557(11) 0.5798(6)
H52_2 H 0.471328 0.078067 0.559548
C101_2 C 0.3894(8) 0.0847(11) 0.5845(6)
C102_2 C 0.3285(8) 0.0512(10) 0.6148(7)
H53_2 H 0.300948 0.070667 0.617877
C104_2 C 0.4110(10) 0.1513(14) 0.5590(8)
C105_2 C 0.4594(9) 0.1753(13) 0.5126(8)
H55_2 H 0.476378 0.148469 0.498205
O44_2 O 0.5881(12) 0.8601(18) 0.6914(10)
O45_2 O 0.4964(9) 0.8753(13) 0.6660(7)
C106_2 C 0.5626(15) 0.8949(23) 0.6669(11)
C107_2 C 0.6097(8) 0.9597(11) 0.6358(6)
C108_2 C 0.5823(6) 0.9932(10) 0.6055(7)
H56_2 H 0.535268 0.973731 0.602348
C112_2 C 0.6799(9) 0.9887(11) 0.6404(6)
H59_2 H 0.698249 0.966331 0.660678
O62 O 0.3789(9) 0.8753(13) 0.6660(7)
O64 O 0.3789(9) 0.8753(13) 0.8340(7)
C13_2 C 0.3323(17) 0.8949(23) 0.8331(11)
C14_2 C 0.3500(8) 0.9597(11) 0.8642(6)
C15_2 C 0.4109(8) 0.9932(10) 0.8945(7)
H7_2 H 0.438463 0.973731 0.897652
C19_2 C 0.3088(6) 0.9887(11) 0.8596(6)
H10_2 H 0.268082 0.966331 0.839322
C97_2 C 0.3323(17) 0.8949(23) 0.6669(11)
C98_2 C 0.3500(8) 0.9597(11) 0.6358(6)
C99_2 C 0.4109(8) 0.9932(10) 0.6055(7)
H51_2 H 0.438463 0.973731 0.602348
C103_2 C 0.3088(6) 0.9887(11) 0.6404(6)
H54_2 H 0.268082 0.966331 0.660678
loop_
_geom_bond_atom_site_label_1
_geom_bond_atom_site_label_2
_geom_bond_site_symmetry_1
_geom_bond_site_symmetry_2
O8 C13 1_555 1_555
O9 C13 1_555 1_555
C13 C14 1_555 1_555
C14 C15 1_555 1_555
C15 H7 1_555 1_555
C19 C14 1_555 1_555
H10 C19 1_555 1_555
O41 C97 1_555 1_555
O42 C97 1_555 1_555
C97 C98 1_555 1_555
C98 C99 1_555 1_555
C99 H51 1_555 1_555
C103 C98 1_555 1_555
H54 C103 1_555 1_555
Y11 O9 1_555 1_555
Y27 O42 1_555 1_555
Y29 O8 1_555 1_555
O41 Y29 1_555 1_555
Y1 O1 1_555 1_555
Y2 O1 1_555 1_555
O1 Y13 1_555 1_555
O2 Y2 1_555 1_555
O3 Y1 1_555 1_555
O4 Y1 1_555 1_555
O5 Y2 1_555 1_555
O6 Y1 1_555 1_555
O7 C12 1_555 1_555
C1 O5 1_555 1_555
C2 C1 1_555 1_555
C3 C2 1_555 1_555
H1 C3 1_555 1_555
C4 C3 1_555 1_555
H2 C4 1_555 1_555
C5 C4 1_555 1_555
C6 C5 1_555 1_555
H3 C6 1_555 1_555
C7 C2 1_555 1_555
H4 C7 1_555 1_555
C8 H5 1_555 1_555
C9 C5 1_555 1_555
C10 C9 1_555 1_555
H6 C10 1_555 1_555
C11 C10 1_555 1_555
C12 C11 1_555 1_555
O10 C12 1_555 1_555
H8 C16 1_555 1_555
C17 C16 1_555 1_555
C18 C17 1_555 1_555
H9 C18 1_555 1_555
C20 C8 1_555 1_555
C21 C11 1_555 1_555
H11 C21 1_555 1_555
Y11 O3 1_555 1_555
Y4 O11 1_555 1_555
O11 Y1 1_555 1_555
O12 Y4 1_555 1_555
O13 Y11 1_555 1_555
O14 Y4 1_555 1_555
O15 Y11 1_555 1_555
C22 O14 1_555 1_555
C23 C22 1_555 1_555
C24 C23 1_555 1_555
H12 C24 1_555 1_555
C28 C23 1_555 1_555
H15 C28 1_555 1_555
O25 C54 1_555 1_555
H24 C46 1_555 1_555
C47 C46 1_555 1_555
C48 C47 1_555 1_555
H25 C48 1_555 1_555
C50 H27 1_555 1_555
C51 C47 1_555 1_555
C52 C51 1_555 1_555
H28 C52 1_555 1_555
C53 C52 1_555 1_555
C54 C53 1_555 1_555
O26 Y4 1_555 1_555
O27 Y1 1_555 1_555
O28 C54 1_555 1_555
C55 O26 1_555 1_555
C56 C55 1_555 1_555
C57 C56 1_555 1_555
H29 C57 1_555 1_555
C58 C57 1_555 1_555
H30 C58 1_555 1_555
C59 C58 1_555 1_555
C60 C59 1_555 1_555
H31 C60 1_555 1_555
C61 C56 1_555 1_555
H32 C61 1_555 1_555
C62 C50 1_555 1_555
C63 C53 1_555 1_555
H33 C63 1_555 1_555
Y7 O4 1_555 1_555
O29 Y4 1_555 1_555
O30 Y7 1_555 1_555
O31 Y4 1_555 1_555
O32 Y7 1_555 1_555
C64 O31 1_555 1_555
C65 C64 1_555 1_555
C66 C65 1_555 1_555
H34 C66 1_555 1_555
C67 C66 1_555 1_555
H35 C67 1_555 1_555
C68 C67 1_555 1_555
C69 C68 1_555 1_555
H36 C69 1_555 1_555
C70 C65 1_555 1_555
H37 C70 1_555 1_555
C71 H38 1_555 1_555
C72 C68 1_555 1_555
C73 C72 1_555 1_555
H41 C79 1_555 1_555
C80 C79 1_555 1_555
C81 C80 1_555 1_555
H42 C81 1_555 1_555
C83 C71 1_555 1_555
O37 Y2 1_555 1_555
O38 Y2 1_555 1_555
O39 Y7 1_555 1_555
C85 O38 1_555 1_555
C86 C85 1_555 1_555
C87 C86 1_555 1_555
H45 C87 1_555 1_555
C88 C87 1_555 1_555
H46 C88 1_555 1_555
C89 C88 1_555 1_555
C90 C89 1_555 1_555
H47 C90 1_555 1_555
C91 C86 1_555 1_555
H48 C91 1_555 1_555
C92 H49 1_555 1_555
C93 C89 1_555 1_555
C94 C93 1_555 1_555
H52 C100 1_555 1_555
C101 C100 1_555 1_555
C102 C101 1_555 1_555
H53 C102 1_555 1_555
C104 C92 1_555 1_555
Y27 O13 1_555 1_555
O44 Y4 1_555 1_555
O45 Y27 1_555 1_555
C106 O44 1_555 1_555
C107 C106 1_555 1_555
C108 C107 1_555 1_555
H56 C108 1_555 1_555
C112 C107 1_555 1_555
H59 C112 1_555 1_555
Y13 O3 1_555 1_555
Y19 O10 1_555 1_555
Y21 O28 1_555 1_555
Y23 O7 1_555 1_555
Y25 O30 1_555 1_555
O52 Y11 1_555 1_555
O54 Y27 1_555 1_555
O57 Y2 1_555 1_555
O59 Y2 1_555 1_555
O65 Y27 1_555 1_555
O67 Y7 1_555 1_555
O69 Y11 1_555 1_555
O70 Y1 1_555 1_555
O71 Y11 1_555 1_555
O73 Y1 1_555 1_555
O75 Y27 1_555 1_555
O76 Y7 1_555 1_555
O6 C1 1_555 1_555
C6 C7 1_555 1_555
C8 C9 1_555 1_555
C17 C20 1_555 1_555
C20 C21 1_555 1_555
Y11 O11 1_555 1_555
O15 C22 1_555 1_555
O25 Y19 1_555 1_555
C50 C51 1_555 1_555
O27 C55 1_555 1_555
C59 C62 1_555 1_555
C60 C61 1_555 1_555
C62 C63 1_555 1_555
Y7 O29 1_555 1_555
Y7 O37 1_555 1_555
O29 Y27 1_555 1_555
O30 Y27 1_555 1_555
O32 C64 1_555 1_555
C69 C70 1_555 1_555
C71 C72 1_555 1_555
C80 C83 1_555 1_555
C83 C84 1_555 1_555
O37 Y25 1_555 1_555
O39 C85 1_555 1_555
C90 C91 1_555 1_555
C92 C93 1_555 1_555
C101 C104 1_555 1_555
C104 C105 1_555 1_555
O45 C106 1_555 1_555
Y13 O52 1_555 1_555
Y25 O54 1_555 1_555
O33 C75 1_555 1_555
C75 C74 1_555 1_555
O36 C75 1_555 1_555
O40 C96 1_555 1_555
C96 C95 1_555 1_555
O43 C96 1_555 1_555
Y14 O36 1_555 1_555
Y16 O40 1_555 1_555
Y18 O33 1_555 1_555
O43 Y14 1_555 1_555
O16 C33 1_555 1_555
H13 C25 1_555 1_555
C26 C25 1_555 1_555
C27 C26 1_555 1_555
H14 C27 1_555 1_555
C29 H16 1_555 1_555
C30 C26 1_555 1_555
C31 C30 1_555 1_555
H17 C31 1_555 1_555
C32 C31 1_555 1_555
C33 C32 1_555 1_555
O19 C33 1_555 1_555
H19 C37 1_555 1_555
C38 C37 1_555 1_555
C39 C38 1_555 1_555
H20 C39 1_555 1_555
C41 C29 1_555 1_555
C42 C32 1_555 1_555
H22 C42 1_555 1_555
H57 C109 1_555 1_555
C110 C109 1_555 1_555
C111 C110 1_555 1_555
H58 C111 1_555 1_555
C113 H60 1_555 1_555
C114 C110 1_555 1_555
C115 C114 1_555 1_555
H63 C121 1_555 1_555
C122 C121 1_555 1_555
C123 C122 1_555 1_555
H64 C123 1_555 1_555
C125 C113 1_555 1_555
Y21 O16 1_555 1_555
Y23 O19 1_555 1_555
C29 C30 1_555 1_555
C38 C41 1_555 1_555
C41 C42 1_555 1_555
C113 C114 1_555 1_555
C122 C125 1_555 1_555
C125 C126 1_555 1_555
O46 C117 1_555 1_555
C117 C116 1_555 1_555
O49 C117 1_555 1_555
Y16 O49 1_555 1_555
Y18 O46 1_555 1_555
Y29 O52 1_555 1_555
O21 Y29 1_555 1_555
O22 Y13 1_555 1_555
O23 Y29 1_555 1_555
O24 Y13 1_555 1_555
C43 O23 1_555 1_555
C44 C43 1_555 1_555
C45 C44 1_555 1_555
H23 C45 1_555 1_555
C49 C44 1_555 1_555
H26 C49 1_555 1_555
O34 Y29 1_555 1_555
O35 C76 1_555 1_555
C76 O34 1_555 1_555
C77 C76 1_555 1_555
C78 C77 1_555 1_555
H40 C78 1_555 1_555
C82 C77 1_555 1_555
H43 C82 1_555 1_555
Y25 O22 1_555 1_555
O54 Y29 1_555 1_555
O61 Y25 1_555 1_555
O63 Y13 1_555 1_555
O66 Y25 1_555 1_555
O68 Y13 1_555 1_555
O72 Y13 1_555 1_555
O74 Y25 1_555 1_555
O24 C43 1_555 1_555
O35 Y25 1_555 1_555
O59 C34 1_555 1_555
O63 C34 1_555 1_555
C34 C35 1_555 1_555
C35 C36 1_555 1_555
C36 H18 1_555 1_555
C40 C35 1_555 1_555
H21 C40 1_555 1_555
O57 C118 1_555 1_555
O61 C118 1_555 1_555
C118 C119 1_555 1_555
C119 C120 1_555 1_555
C120 H62 1_555 1_555
C124 C119 1_555 1_555
H65 C124 1_555 1_555
O17 C34_2 1_555 1_555
O18 C34_2 1_555 1_555
C34_2 C35_2 1_555 1_555
C35_2 C36_2 1_555 1_555
C36_2 H18_2 1_555 1_555
C40_2 C35_2 1_555 1_555
H21_2 C40_2 1_555 1_555
O47 C118_2 1_555 1_555
O48 C118_2 1_555 1_555
C118_2 C119_2 1_555 1_555
C119_2 C120_2 1_555 1_555
C120_2 H62_2 1_555 1_555
C124_2 C119_2 1_555 1_555
H65_2 C124_2 1_555 1_555
Y18 O18 1_555 1_555
Y21 O48 1_555 1_555
Y28 O17 1_555 1_555
O47 Y28 1_555 1_555
Y18 O20 1_555 1_555
Y6 O20 1_555 1_555
O20 Y16 1_555 1_555
O21_2 Y6 1_555 1_555
O22_2 Y18 1_555 1_555
O23_2 Y6 1_555 1_555
O24_2 Y18 1_555 1_555
C43_2 O23_2 1_555 1_555
C44_2 C43_2 1_555 1_555
C45_2 C44_2 1_555 1_555
H23_2 C45_2 1_555 1_555
C49_2 C44_2 1_555 1_555
H26_2 C49_2 1_555 1_555
O34_2 Y6 1_555 1_555
O35_2 C76_2 1_555 1_555
C76_2 O34_2 1_555 1_555
C77_2 C76_2 1_555 1_555
C78_2 C77_2 1_555 1_555
H40_2 C78_2 1_555 1_555
C82_2 C77_2 1_555 1_555
H43_2 C82_2 1_555 1_555
Y21 O22_2 1_555 1_555
O50 Y6 1_555 1_555
Y16 O55 1_555 1_555
Y23 O50 1_555 1_555
O51 Y18 1_555 1_555
O53 Y21 1_555 1_555
O55 Y18 1_555 1_555
O56 Y21 1_555 1_555
O58 Y6 1_555 1_555
O60 Y6 1_555 1_555
O24_2 C43_2 1_555 1_555
O35_2 Y21 1_555 1_555
Y21 O50 1_555 1_555
Y23 O56 1_555 1_555
O66 C33_2 1_555 1_555
C33_2 C32_2 1_555 1_555
O75 C33_2 1_555 1_555
H13_2 C25_2 1_555 1_555
C26_2 C25_2 1_555 1_555
C27_2 C26_2 1_555 1_555
H14_2 C27_2 1_555 1_555
C29_2 H16_2 1_555 1_555
C30_2 C26_2 1_555 1_555
C31_2 C30_2 1_555 1_555
H19_2 C37_2 1_555 1_555
C38_2 C37_2 1_555 1_555
C39_2 C38_2 1_555 1_555
H20_2 C39_2 1_555 1_555
C41_2 C29_2 1_555 1_555
O72 C117_2 1_555 1_555
H57_2 C109_2 1_555 1_555
C110_2 C109_2 1_555 1_555
C111_2 C110_2 1_555 1_555
H58_2 C111_2 1_555 1_555
C113_2 H60_2 1_555 1_555
C114_2 C110_2 1_555 1_555
C115_2 C114_2 1_555 1_555
H61_2 C115_2 1_555 1_555
C116_2 C115_2 1_555 1_555
C117_2 C116_2 1_555 1_555
O69 C117_2 1_555 1_555
H63_2 C121_2 1_555 1_555
C122_2 C121_2 1_555 1_555
C123_2 C122_2 1_555 1_555
H64_2 C123_2 1_555 1_555
C125_2 C113_2 1_555 1_555
C126_2 C116_2 1_555 1_555
H66_2 C126_2 1_555 1_555
C29_2 C30_2 1_555 1_555
C38_2 C41_2 1_555 1_555
C41_2 C42_2 1_555 1_555
C113_2 C114_2 1_555 1_555
C122_2 C125_2 1_555 1_555
C125_2 C126_2 1_555 1_555
O65 C12_2 1_555 1_555
C12_2 C11_2 1_555 1_555
O76 C12_2 1_555 1_555
O67 C54_2 1_555 1_555
C54_2 C53_2 1_555 1_555
O74 C54_2 1_555 1_555
Y14 O51 1_555 1_555
Y28 O51 1_555 1_555
O2_2 Y28 1_555 1_555
O55 Y14 1_555 1_555
O4_2 Y14 1_555 1_555
O5_2 Y28 1_555 1_555
O6_2 Y14 1_555 1_555
C1_2 O5_2 1_555 1_555
C2_2 C1_2 1_555 1_555
C3_2 C2_2 1_555 1_555
H1_2 C3_2 1_555 1_555
C4_2 C3_2 1_555 1_555
H2_2 C4_2 1_555 1_555
C5_2 C4_2 1_555 1_555
C6_2 C5_2 1_555 1_555
H3_2 C6_2 1_555 1_555
C7_2 C2_2 1_555 1_555
H4_2 C7_2 1_555 1_555
C8_2 H5_2 1_555 1_555
C9_2 C5_2 1_555 1_555
C10_2 C9_2 1_555 1_555
H8_2 C16_2 1_555 1_555
C17_2 C16_2 1_555 1_555
C18_2 C17_2 1_555 1_555
H9_2 C18_2 1_555 1_555
C20_2 C8_2 1_555 1_555
Y4_2 O11_2 1_555 1_555
O11_2 Y14 1_555 1_555
O12_2 Y4_2 1_555 1_555
O13_2 Y16 1_555 1_555
O14_2 Y4_2 1_555 1_555
O15_2 Y16 1_555 1_555
C22_2 O14_2 1_555 1_555
C23_2 C22_2 1_555 1_555
C24_2 C23_2 1_555 1_555
H12_2 C24_2 1_555 1_555
C28_2 C23_2 1_555 1_555
H15_2 C28_2 1_555 1_555
H24_2 C46_2 1_555 1_555
C47_2 C46_2 1_555 1_555
C48_2 C47_2 1_555 1_555
H25_2 C48_2 1_555 1_555
C50_2 H27_2 1_555 1_555
C51_2 C47_2 1_555 1_555
C52_2 C51_2 1_555 1_555
O26_2 Y4_2 1_555 1_555
O27_2 Y14 1_555 1_555
C55_2 O26_2 1_555 1_555
C56_2 C55_2 1_555 1_555
C57_2 C56_2 1_555 1_555
H29_2 C57_2 1_555 1_555
C58_2 C57_2 1_555 1_555
H30_2 C58_2 1_555 1_555
C59_2 C58_2 1_555 1_555
C60_2 C59_2 1_555 1_555
H31_2 C60_2 1_555 1_555
C61_2 C56_2 1_555 1_555
H32_2 C61_2 1_555 1_555
C62_2 C50_2 1_555 1_555
Y19 O4_2 1_555 1_555
O29_2 Y4_2 1_555 1_555
O56 Y19 1_555 1_555
O31_2 Y4_2 1_555 1_555
O32_2 Y19 1_555 1_555
O68 C75_2 1_555 1_555
C64_2 O31_2 1_555 1_555
C65_2 C64_2 1_555 1_555
C66_2 C65_2 1_555 1_555
H34_2 C66_2 1_555 1_555
C67_2 C66_2 1_555 1_555
H35_2 C67_2 1_555 1_555
C68_2 C67_2 1_555 1_555
C69_2 C68_2 1_555 1_555
H36_2 C69_2 1_555 1_555
C70_2 C65_2 1_555 1_555
H37_2 C70_2 1_555 1_555
C71_2 H38_2 1_555 1_555
C72_2 C68_2 1_555 1_555
C73_2 C72_2 1_555 1_555
H39_2 C73_2 1_555 1_555
C74_2 C73_2 1_555 1_555
C75_2 C74_2 1_555 1_555
O73 C75_2 1_555 1_555
H41_2 C79_2 1_555 1_555
C80_2 C79_2 1_555 1_555
C81_2 C80_2 1_555 1_555
H42_2 C81_2 1_555 1_555
C83_2 C71_2 1_555 1_555
C84_2 C74_2 1_555 1_555
H44_2 C84_2 1_555 1_555
O53 Y28 1_555 1_555
O38_2 Y28 1_555 1_555
O39_2 Y19 1_555 1_555
O71 C96_2 1_555 1_555
C85_2 O38_2 1_555 1_555
C86_2 C85_2 1_555 1_555
C87_2 C86_2 1_555 1_555
H45_2 C87_2 1_555 1_555
C88_2 C87_2 1_555 1_555
H46_2 C88_2 1_555 1_555
C89_2 C88_2 1_555 1_555
C90_2 C89_2 1_555 1_555
H47_2 C90_2 1_555 1_555
C91_2 C86_2 1_555 1_555
H48_2 C91_2 1_555 1_555
C92_2 H49_2 1_555 1_555
C93_2 C89_2 1_555 1_555
C94_2 C93_2 1_555 1_555
H50_2 C94_2 1_555 1_555
C95_2 C94_2 1_555 1_555
C96_2 C95_2 1_555 1_555
O70 C96_2 1_555 1_555
H52_2 C100_2 1_555 1_555
C101_2 C100_2 1_555 1_555
C102_2 C101_2 1_555 1_555
H53_2 C102_2 1_555 1_555
C104_2 C92_2 1_555 1_555
C105_2 C95_2 1_555 1_555
H55_2 C105_2 1_555 1_555
Y23 O13_2 1_555 1_555
O44_2 Y4_2 1_555 1_555
O45_2 Y23 1_555 1_555
C106_2 O44_2 1_555 1_555
C107_2 C106_2 1_555 1_555
C108_2 C107_2 1_555 1_555
H56_2 C108_2 1_555 1_555
C112_2 C107_2 1_555 1_555
H59_2 C112_2 1_555 1_555
O62 Y23 1_555 1_555
O64 Y16 1_555 1_555
O6_2 C1_2 1_555 1_555
C6_2 C7_2 1_555 1_555
C8_2 C9_2 1_555 1_555
C17_2 C20_2 1_555 1_555
C20_2 C21_2 1_555 1_555
Y16 O11_2 1_555 1_555
O15_2 C22_2 1_555 1_555
C50_2 C51_2 1_555 1_555
O27_2 C55_2 1_555 1_555
C59_2 C62_2 1_555 1_555
C60_2 C61_2 1_555 1_555
C62_2 C63_2 1_555 1_555
Y19 O29_2 1_555 1_555
Y19 O53 1_555 1_555
O29_2 Y23 1_555 1_555
O32_2 C64_2 1_555 1_555
C69_2 C70_2 1_555 1_555
C71_2 C72_2 1_555 1_555
C80_2 C83_2 1_555 1_555
C83_2 C84_2 1_555 1_555
O39_2 C85_2 1_555 1_555
C90_2 C91_2 1_555 1_555
C92_2 C93_2 1_555 1_555
C101_2 C104_2 1_555 1_555
C104_2 C105_2 1_555 1_555
O45_2 C106_2 1_555 1_555
O60 C13_2 1_555 1_555
O64 C13_2 1_555 1_555
C13_2 C14_2 1_555 1_555
C14_2 C15_2 1_555 1_555
C15_2 H7_2 1_555 1_555
C19_2 C14_2 1_555 1_555
H10_2 C19_2 1_555 1_555
O58 C97_2 1_555 1_555
O62 C97_2 1_555 1_555
C97_2 C98_2 1_555 1_555
C98_2 C99_2 1_555 1_555
C99_2 H51_2 1_555 1_555
C103_2 C98_2 1_555 1_555
H54_2 C103_2 1_555 1_555

#END
