
###############################################################################
#
# This file contains modified crystal structure data generated from the
# MOF subset of the Cambridge Structural Database (CSD) v543 
# hosted by the Cambridge Crystallographic Data Centre (CCDC).
#
# This work is licensed under the Creative Commons
# Attribution-NonCommercial-ShareAlike 4.0 International License.
# To view a copy of this license, visit
# http://creativecommons.org/licenses/by-nc-sa/4.0/
# or send a letter to
# Creative Commons, PO Box 1866, Mountain View, CA 94042, USA.
#
# CIF created using the CSD Python API on 29 September 2022
# The structure has been converted into the P1 space group
# The structure has a 3D framework
# The original CSD entry AZEKOI is in the hexagonal crystal system
# The framework has been calculated to contain at least 10.0% void space
# The void calculation uses a probe of radius 1.32A, grid spacing 0.4
# The framework is charged, counterions have been retained in the structure
# H atom positions have been added when not included in the experimental data
# Generated hydrogen atom positions removed from atoms on special positions
#
###############################################################################

data_AZEKOI
_chemical_formula_moiety         '(C252 H168 O100 Tb18 4-)n'
_symmetry_cell_setting           triclinic
_symmetry_space_group_name_H-M   'P 1'
_symmetry_Int_Tables_number      1
_space_group_name_Hall           'P 1'
loop_
_symmetry_equiv_pos_site_id
_symmetry_equiv_pos_as_xyz
1 x,y,z
_cell_length_a                   22.7294(4)
_cell_length_b                   22.7294(4)
_cell_length_c                   23.2700(6)
_cell_angle_alpha                90
_cell_angle_beta                 90
_cell_angle_gamma                120
_cell_volume                     10411.3
loop_
_atom_site_label
_atom_site_type_symbol
_atom_site_fract_x
_atom_site_fract_y
_atom_site_fract_z
O8 O 0.7231(3) 0.1395(4) 0.3132(2)
O9 O 0.6231(2) 0.12503(27) 0.33575(18)
C13 C 0.6660(3) 0.1066(4) 0.33598(19)
C14 C 0.6476(3) 0.0408(4) 0.3643(2)
C15 C 0.5918(3) 0.0091(4) 0.3966(3)
H7 H 0.565601 0.029480 0.402478
C19 C 0.6858(4) 0.0106(5) 0.3581(3)
H10 H 0.725795 0.032296 0.336874
O41 O 0.7231(3) 0.1395(4) 0.1868(2)
O42 O 0.6231(2) 0.12503(27) 0.16425(18)
C97 C 0.6660(3) 0.1066(4) 0.16402(19)
C98 C 0.6476(3) 0.0408(4) 0.1357(2)
C99 C 0.5918(3) 0.0091(4) 0.1034(3)
H51 H 0.565601 0.029480 0.097522
C103 C 0.6858(4) 0.0106(5) 0.1419(3)
H54 H 0.725795 0.032296 0.163126
Tb11 Tb 0.60915(2) 0.21830(3) 0.34455(2)
Tb27 Tb 0.60915(2) 0.21830(3) 0.15545(2)
Tb29 Tb 0.77143(3) 0.22857(2) 0.250000
Tb1 Tb 0.60915(2) 0.39085(2) 0.34455(2)
Tb2 Tb 0.77143(2) 0.54286(2) 0.250000
O1 O 0.72657(7) 0.45314(14) 0.31003(13)
O2 O 0.8368(2) 0.6737(5) 0.250000
O3 O 0.666667 0.333333 0.3551(2)
O4 O 0.60535(13) 0.39465(13) 0.250000
O5 O 0.7231(3) 0.5836(2) 0.3132(2)
O6 O 0.6231(2) 0.49807(18) 0.33575(18)
O7 O 0.45048(16) 0.77460(15) 0.57691(11)
C1 C 0.6660(3) 0.5594(2) 0.33598(19)
C2 C 0.6476(3) 0.6068(2) 0.3643(2)
C3 C 0.5918(3) 0.5827(3) 0.3966(3)
H1 H 0.565601 0.536121 0.402478
C4 C 0.5720(4) 0.6249(3) 0.4216(3)
H2 H 0.532410 0.606032 0.443291
C5 C 0.6092(3) 0.6941(2) 0.4152(2)
C6 C 0.6661(4) 0.7182(3) 0.3828(3)
H3 H 0.692756 0.764813 0.377081
C7 C 0.6858(4) 0.6752(3) 0.3581(3)
H4 H 0.725795 0.693499 0.336874
C8 C 0.6075(4) 0.8038(2) 0.4179(3)
H5 H 0.636853 0.818427 0.386610
C9 C 0.5864(3) 0.7395(2) 0.4405(2)
C10 C 0.5420(3) 0.7180(2) 0.4870(2)
H6 H 0.527491 0.675458 0.503020
C11 C 0.5193(3) 0.75963(17) 0.5097(3)
C12 C 0.4692(3) 0.73460(15) 0.5588(2)
O10 O 0.45048(16) 0.67588(22) 0.57691(11)
C16 C 0.5720(4) 0.9471(5) 0.4216(3)
H8 H 0.532410 0.926378 0.443291
C17 C 0.6092(3) 0.9151(4) 0.4152(2)
C18 C 0.6661(4) 0.9479(5) 0.3828(3)
H9 H 0.692756 0.927943 0.377081
C20 C 0.5864(3) 0.8469(4) 0.4405(2)
C21 C 0.5420(3) 0.8240(4) 0.4870(2)
H11 H 0.527491 0.852033 0.503020
Tb4 Tb 0.45714(2) 0.22857(3) 0.250000
O11 O 0.54686(14) 0.27343(16) 0.31003(13)
O12 O 0.3263(5) 0.1631(5) 0.250000
O13 O 0.60535(13) 0.21070(18) 0.250000
O14 O 0.4164(2) 0.1395(4) 0.3132(2)
O15 O 0.50193(18) 0.12503(27) 0.33575(18)
C22 C 0.4406(2) 0.1066(4) 0.33598(19)
C23 C 0.3932(2) 0.0408(4) 0.3643(2)
C24 C 0.4173(3) 0.0091(4) 0.3966(3)
H12 H 0.463879 0.029480 0.402478
C28 C 0.3248(3) 0.0106(5) 0.3581(3)
H15 H 0.306501 0.032296 0.336874
O25 O 0.32412(22) 0.54952(16) 0.57691(11)
C46 C 0.0529(5) 0.4280(4) 0.4216(3)
H24 H 0.073622 0.467590 0.443291
C47 C 0.0849(4) 0.3908(3) 0.4152(2)
C48 C 0.0521(5) 0.3339(4) 0.3828(3)
H25 H 0.072057 0.307244 0.377081
C50 C 0.1963(4) 0.3925(4) 0.4179(3)
H27 H 0.181574 0.363147 0.386610
C51 C 0.1531(4) 0.4136(3) 0.4405(2)
C52 C 0.1760(4) 0.4580(3) 0.4870(2)
H28 H 0.147967 0.472509 0.503020
C53 C 0.24033(34) 0.4807(3) 0.5097(3)
C54 C 0.26540(34) 0.5308(3) 0.5588(2)
O26 O 0.4164(2) 0.2769(3) 0.3132(2)
O27 O 0.50193(18) 0.3769(2) 0.33575(18)
O28 O 0.22540(15) 0.54952(16) 0.57691(11)
C55 C 0.4406(2) 0.3340(3) 0.33598(19)
C56 C 0.3932(2) 0.3524(3) 0.3643(2)
C57 C 0.4173(3) 0.4082(3) 0.3966(3)
H29 H 0.463879 0.434399 0.402478
C58 C 0.3751(3) 0.4280(4) 0.4216(3)
H30 H 0.393968 0.467590 0.443291
C59 C 0.3059(2) 0.3908(3) 0.4152(2)
C60 C 0.2818(3) 0.3339(4) 0.3828(3)
H31 H 0.235187 0.307244 0.377081
C61 C 0.3248(3) 0.3142(4) 0.3581(3)
H32 H 0.306501 0.274205 0.336874
C62 C 0.2605(2) 0.4136(3) 0.4405(2)
C63 C 0.2820(2) 0.4580(3) 0.4870(2)
H33 H 0.324542 0.472509 0.503020
Tb7 Tb 0.60915(2) 0.39085(2) 0.15545(2)
O29 O 0.54686(14) 0.27343(7) 0.18997(13)
O30 O 0.666667 0.333333 0.1449(2)
O31 O 0.4164(2) 0.2769(3) 0.1868(2)
O32 O 0.50193(18) 0.3769(2) 0.16425(18)
C64 C 0.4406(2) 0.3340(3) 0.16402(19)
C65 C 0.3932(2) 0.3524(3) 0.1357(2)
C66 C 0.4173(3) 0.4082(3) 0.1034(3)
H34 H 0.463879 0.434399 0.097522
C67 C 0.3751(3) 0.4280(4) 0.0784(3)
H35 H 0.393968 0.467590 0.056709
C68 C 0.3059(2) 0.3908(3) 0.0848(2)
C69 C 0.2818(3) 0.3339(4) 0.1172(3)
H36 H 0.235187 0.307244 0.122919
C70 C 0.3248(3) 0.3142(4) 0.1419(3)
H37 H 0.306501 0.274205 0.163126
C71 C 0.1962(2) 0.3925(4) 0.0821(3)
H38 H 0.181573 0.363147 0.113390
C72 C 0.2605(2) 0.4136(3) 0.0595(2)
C73 C 0.2820(2) 0.4580(3) 0.0130(2)
C79 C 0.0529(5) 0.4280(4) 0.0784(3)
H41 H 0.073622 0.467590 0.056709
C80 C 0.0849(4) 0.3908(3) 0.0848(2)
C81 C 0.0521(5) 0.3339(4) 0.1172(3)
H42 H 0.072057 0.307244 0.122919
C83 C 0.1531(4) 0.4136(3) 0.0595(2)
C84 C 0.1760(4) 0.4580(3) 0.0130(2)
O37 O 0.72657(16) 0.45314(14) 0.18997(13)
O38 O 0.7231(3) 0.5836(2) 0.1868(2)
O39 O 0.6231(2) 0.49807(18) 0.16425(18)
C85 C 0.6660(3) 0.5594(2) 0.16402(19)
C86 C 0.6476(3) 0.6068(2) 0.1357(2)
C87 C 0.5918(3) 0.5827(3) 0.1034(3)
H45 H 0.565601 0.536121 0.097522
C88 C 0.5720(4) 0.6249(3) 0.0784(3)
H46 H 0.532410 0.606032 0.056709
C89 C 0.6092(3) 0.6941(2) 0.0848(2)
C90 C 0.6661(4) 0.7182(3) 0.1172(3)
H47 H 0.692756 0.764813 0.122919
C91 C 0.6858(4) 0.6752(3) 0.1419(3)
H48 H 0.725795 0.693499 0.163126
C92 C 0.6075(4) 0.8037(4) 0.0821(3)
H49 H 0.636853 0.818426 0.113390
C93 C 0.5864(3) 0.7395(2) 0.0595(2)
C94 C 0.5420(3) 0.7180(2) 0.0130(2)
C100 C 0.5720(4) 0.9471(5) 0.0784(3)
H52 H 0.532410 0.926378 0.056709
C101 C 0.6092(3) 0.9151(4) 0.0848(2)
C102 C 0.6661(4) 0.9479(5) 0.1172(3)
H53 H 0.692756 0.927943 0.122919
C104 C 0.5864(3) 0.8469(4) 0.0595(2)
C105 C 0.5420(3) 0.8240(4) 0.0130(2)
O44 O 0.4164(2) 0.1395(4) 0.1868(2)
O45 O 0.50193(18) 0.12503(27) 0.16425(18)
C106 C 0.4406(2) 0.1066(4) 0.16402(19)
C107 C 0.3932(2) 0.0408(4) 0.1357(2)
C108 C 0.4173(3) 0.0091(4) 0.1034(3)
H56 H 0.463879 0.029480 0.097522
C112 C 0.3248(3) 0.0106(5) 0.1419(3)
H59 H 0.306501 0.032296 0.163126
Tb13 Tb 0.78170(3) 0.39085(2) 0.34455(2)
Tb19 Tb 0.39085(2) 0.60915(2) 0.65545(2)
Tb21 Tb 0.21830(3) 0.60915(2) 0.65545(2)
Tb23 Tb 0.39085(2) 0.78170(3) 0.65545(2)
Tb25 Tb 0.78170(3) 0.39085(2) 0.15545(2)
O52 O 0.72657(16) 0.27343(7) 0.31003(13)
O54 O 0.72657(7) 0.27343(16) 0.18997(13)
O57 O 0.8605(4) 0.5836(2) 0.1868(2)
O59 O 0.8605(4) 0.5836(2) 0.3132(2)
O65 O 0.54952(16) 0.22540(15) 0.07691(11)
O67 O 0.67588(22) 0.45048(16) 0.07691(11)
O69 O 0.67588(22) 0.22540(15) 0.42309(11)
O70 O 0.54952(16) 0.32412(22) 0.42309(11)
O71 O 0.54952(16) 0.22540(15) 0.42309(11)
O73 O 0.67588(22) 0.45048(16) 0.42309(11)
O75 O 0.67588(22) 0.22540(15) 0.07691(11)
O76 O 0.54952(16) 0.32412(22) 0.07691(11)
O33 O 0.22540(15) 0.54952(16) 0.92309(11)
H39 H 0.324542 0.472509 0.996980
C74 C 0.24037(17) 0.4807(3) 0.9903(3)
C75 C 0.26540(15) 0.5308(3) 0.9412(2)
O36 O 0.32412(22) 0.54952(16) 0.92309(11)
H44 H 0.147967 0.472509 0.996980
O40 O 0.45048(16) 0.77460(15) 0.92309(11)
H50 H 0.527491 0.675458 0.996980
C95 C 0.5193(3) 0.75967(34) 0.9903(3)
C96 C 0.4692(3) 0.73460(34) 0.9412(2)
O43 O 0.45048(16) 0.67588(22) 0.92309(11)
H55 H 0.527491 0.852033 0.996980
Tb14 Tb 0.39085(2) 0.60915(2) 0.84455(2)
Tb16 Tb 0.39085(2) 0.78170(3) 0.84455(2)
Tb18 Tb 0.21830(3) 0.60915(2) 0.84455(2)
O16 O 0.22540(15) 0.67588(22) 0.57691(11)
C25 C 0.3751(3) 0.9471(5) 0.4216(3)
H13 H 0.393968 0.926378 0.443291
C26 C 0.3059(2) 0.9151(4) 0.4152(2)
C27 C 0.2818(3) 0.9479(5) 0.3828(3)
H14 H 0.235187 0.927943 0.377081
C29 C 0.1962(2) 0.8037(4) 0.4179(3)
H16 H 0.181573 0.818426 0.386610
C30 C 0.2605(2) 0.8469(4) 0.4405(2)
C31 C 0.2820(2) 0.8240(4) 0.4870(2)
H17 H 0.324542 0.852033 0.503020
C32 C 0.24037(17) 0.75967(34) 0.5097(3)
C33 C 0.26540(15) 0.73460(34) 0.5588(2)
O19 O 0.32412(22) 0.77460(15) 0.57691(11)
C37 C 0.0529(5) 0.6249(3) 0.4216(3)
H19 H 0.073622 0.606032 0.443291
C38 C 0.0849(4) 0.6941(2) 0.4152(2)
C39 C 0.0521(5) 0.7182(3) 0.3828(3)
H20 H 0.072057 0.764813 0.377081
C41 C 0.1531(4) 0.7395(2) 0.4405(2)
C42 C 0.1760(4) 0.7180(2) 0.4870(2)
H22 H 0.147967 0.675458 0.503020
C109 C 0.3751(3) 0.9471(5) 0.0784(3)
H57 H 0.393968 0.926378 0.056709
C110 C 0.3059(2) 0.9151(4) 0.0848(2)
C111 C 0.2818(3) 0.9479(5) 0.1172(3)
H58 H 0.235187 0.927943 0.122919
C113 C 0.1963(4) 0.8038(2) 0.0821(3)
H60 H 0.181574 0.818427 0.113390
C114 C 0.2605(2) 0.8469(4) 0.0595(2)
C115 C 0.2820(2) 0.8240(4) 0.0130(2)
C121 C 0.0529(5) 0.6249(3) 0.0784(3)
H63 H 0.073622 0.606032 0.056709
C122 C 0.0849(4) 0.6941(2) 0.0848(2)
C123 C 0.0521(5) 0.7182(3) 0.1172(3)
H64 H 0.072057 0.764813 0.122919
C125 C 0.1531(4) 0.7395(2) 0.0595(2)
C126 C 0.1760(4) 0.7180(2) 0.0130(2)
O46 O 0.22540(15) 0.67588(22) 0.92309(11)
H61 H 0.324542 0.852033 0.996980
C116 C 0.24033(34) 0.75963(17) 0.9903(3)
C117 C 0.26540(34) 0.73460(15) 0.9412(2)
O49 O 0.32412(22) 0.77460(15) 0.92309(11)
H66 H 0.147967 0.675458 0.996980
O21 O 0.8369(5) 0.1632(2) 0.250000
O22 O 0.78930(18) 0.39465(13) 0.250000
O23 O 0.8605(4) 0.2769(3) 0.3132(2)
O24 O 0.87497(27) 0.3769(2) 0.33575(18)
C43 C 0.8934(4) 0.3340(3) 0.33598(19)
C44 C 0.9592(4) 0.3524(3) 0.3643(2)
C45 C 0.9909(4) 0.4082(3) 0.3966(3)
H23 H 0.970520 0.434399 0.402478
C49 C 0.9894(5) 0.3142(4) 0.3581(3)
H26 H 0.967704 0.274205 0.336874
O34 O 0.8605(4) 0.2769(3) 0.1868(2)
O35 O 0.87497(27) 0.3769(2) 0.16425(18)
C76 C 0.8934(4) 0.3340(3) 0.16402(19)
C77 C 0.9592(4) 0.3524(3) 0.1357(2)
C78 C 0.9909(4) 0.4082(3) 0.1034(3)
H40 H 0.970520 0.434399 0.097522
C82 C 0.9894(5) 0.3142(4) 0.1419(3)
H43 H 0.967704 0.274205 0.163126
O61 O 0.87497(27) 0.49807(18) 0.16425(18)
O63 O 0.87497(27) 0.49807(18) 0.33575(18)
O66 O 0.77460(15) 0.32412(22) 0.07691(11)
O68 O 0.77460(15) 0.45048(16) 0.42309(11)
O72 O 0.77460(15) 0.32412(22) 0.42309(11)
O74 O 0.77460(15) 0.45048(16) 0.07691(11)
C34 C 0.8934(4) 0.5594(2) 0.33598(19)
C35 C 0.9592(4) 0.6068(2) 0.3643(2)
C36 C 0.9909(4) 0.5827(3) 0.3966(3)
H18 H 0.970520 0.536121 0.402478
C40 C 0.9894(5) 0.6752(3) 0.3581(3)
H21 H 0.967704 0.693499 0.336874
C118 C 0.8934(4) 0.5594(2) 0.16402(19)
C119 C 0.9592(4) 0.6068(2) 0.1357(2)
C120 C 0.9909(4) 0.5827(3) 0.1034(3)
H62 H 0.970520 0.536121 0.097522
C124 C 0.9894(5) 0.6752(3) 0.1419(3)
H65 H 0.967704 0.693499 0.163126
O17 O 0.1395(4) 0.4164(2) 0.8132(2)
O18 O 0.12503(27) 0.50193(18) 0.83575(18)
C34_2 C 0.1066(4) 0.4406(2) 0.83598(19)
C35_2 C 0.0408(4) 0.3932(2) 0.8643(2)
C36_2 C 0.0091(4) 0.4173(3) 0.8966(3)
H18_2 H 0.029480 0.463879 0.902478
C40_2 C 0.0106(5) 0.3248(3) 0.8581(3)
H21_2 H 0.032296 0.306501 0.836874
O47 O 0.1395(4) 0.4164(2) 0.6868(2)
O48 O 0.12503(27) 0.50193(18) 0.66425(18)
C118_2 C 0.1066(4) 0.4406(2) 0.66402(19)
C119_2 C 0.0408(4) 0.3932(2) 0.6357(2)
C120_2 C 0.0091(4) 0.4173(3) 0.6034(3)
H62_2 H 0.029480 0.463879 0.597522
C124_2 C 0.0106(5) 0.3248(3) 0.6419(3)
H65_2 H 0.032296 0.306501 0.663126
Tb28 Tb 0.22857(2) 0.45714(2) 0.750000
Tb6 Tb 0.22857(3) 0.77143(2) 0.750000
O20 O 0.27343(16) 0.72657(7) 0.81003(13)
O21_2 O 0.1631(5) 0.8368(2) 0.750000
O22_2 O 0.21070(18) 0.60535(13) 0.750000
O23_2 O 0.1395(4) 0.7231(3) 0.8132(2)
O24_2 O 0.12503(27) 0.6231(2) 0.83575(18)
C43_2 C 0.1066(4) 0.6660(3) 0.83598(19)
C44_2 C 0.0408(4) 0.6476(3) 0.8643(2)
C45_2 C 0.0091(4) 0.5918(3) 0.8966(3)
H23_2 H 0.029480 0.565601 0.902478
C49_2 C 0.0106(5) 0.6858(4) 0.8581(3)
H26_2 H 0.032296 0.725795 0.836874
O34_2 O 0.1395(4) 0.7231(3) 0.6868(2)
O35_2 O 0.12503(27) 0.6231(2) 0.66425(18)
C76_2 C 0.1066(4) 0.6660(3) 0.66402(19)
C77_2 C 0.0408(4) 0.6476(3) 0.6357(2)
C78_2 C 0.0091(4) 0.5918(3) 0.6034(3)
H40_2 H 0.029480 0.565601 0.597522
C82_2 C 0.0106(5) 0.6858(4) 0.6419(3)
H43_2 H 0.032296 0.725795 0.663126
O50 O 0.27343(7) 0.72657(16) 0.68997(13)
O51 O 0.27343(7) 0.54686(14) 0.81003(13)
O53 O 0.27343(16) 0.54686(14) 0.68997(13)
O55 O 0.333333 0.666667 0.8551(2)
O56 O 0.333333 0.666667 0.6449(2)
O58 O 0.2769(3) 0.8605(4) 0.6868(2)
O60 O 0.2769(3) 0.8605(4) 0.8132(2)
H17_2 H 0.675458 0.147967 0.003020
C32_2 C 0.75963(17) 0.24033(34) 0.0097(3)
C33_2 C 0.73460(15) 0.26540(34) 0.0588(2)
H22_2 H 0.852033 0.324542 0.003020
C25_2 C 0.6249(3) 0.0529(5) 0.9216(3)
H13_2 H 0.606032 0.073622 0.943291
C26_2 C 0.6941(2) 0.0849(4) 0.9152(2)
C27_2 C 0.7182(3) 0.0521(5) 0.8828(3)
H14_2 H 0.764813 0.072057 0.877081
C29_2 C 0.8038(2) 0.1963(4) 0.9179(3)
H16_2 H 0.818427 0.181574 0.886610
C30_2 C 0.7395(2) 0.1531(4) 0.9405(2)
C31_2 C 0.7180(2) 0.1760(4) 0.9870(2)
C37_2 C 0.9471(5) 0.3751(3) 0.9216(3)
H19_2 H 0.926378 0.393968 0.943291
C38_2 C 0.9151(4) 0.3059(2) 0.9152(2)
C39_2 C 0.9479(5) 0.2818(3) 0.8828(3)
H20_2 H 0.927943 0.235187 0.877081
C41_2 C 0.8469(4) 0.2605(2) 0.9405(2)
C42_2 C 0.8240(4) 0.2820(2) 0.9870(2)
C109_2 C 0.6249(3) 0.0529(5) 0.5784(3)
H57_2 H 0.606032 0.073622 0.556709
C110_2 C 0.6941(2) 0.0849(4) 0.5848(2)
C111_2 C 0.7182(3) 0.0521(5) 0.6172(3)
H58_2 H 0.764813 0.072057 0.622919
C113_2 C 0.8037(4) 0.1962(2) 0.5821(3)
H60_2 H 0.818426 0.181573 0.613390
C114_2 C 0.7395(2) 0.1531(4) 0.5595(2)
C115_2 C 0.7180(2) 0.1760(4) 0.5130(2)
H61_2 H 0.675458 0.147967 0.496980
C116_2 C 0.75967(34) 0.24037(17) 0.4903(3)
C117_2 C 0.73460(34) 0.26540(15) 0.4412(2)
C121_2 C 0.9471(5) 0.3751(3) 0.5784(3)
H63_2 H 0.926378 0.393968 0.556709
C122_2 C 0.9151(4) 0.3059(2) 0.5848(2)
C123_2 C 0.9479(5) 0.2818(3) 0.6172(3)
H64_2 H 0.927943 0.235187 0.622919
C125_2 C 0.8469(4) 0.2605(2) 0.5595(2)
C126_2 C 0.8240(4) 0.2820(2) 0.5130(2)
H66_2 H 0.852033 0.324542 0.496980
H6_2 H 0.472509 0.324542 0.003020
C11_2 C 0.4807(3) 0.24037(17) 0.0097(3)
C12_2 C 0.5308(3) 0.26540(15) 0.0588(2)
H11_2 H 0.472509 0.147967 0.003020
H28_2 H 0.852033 0.527491 0.003020
C53_2 C 0.75967(34) 0.5193(3) 0.0097(3)
C54_2 C 0.73460(34) 0.4692(3) 0.0588(2)
H33_2 H 0.675458 0.527491 0.003020
O2_2 O 0.1632(2) 0.3263(5) 0.750000
O4_2 O 0.39465(13) 0.60535(13) 0.750000
O5_2 O 0.2769(3) 0.4164(2) 0.8132(2)
O6_2 O 0.3769(2) 0.50193(18) 0.83575(18)
C1_2 C 0.3340(3) 0.4406(2) 0.83598(19)
C2_2 C 0.3524(3) 0.3932(2) 0.8643(2)
C3_2 C 0.4082(3) 0.4173(3) 0.8966(3)
H1_2 H 0.434399 0.463879 0.902478
C4_2 C 0.4280(4) 0.3751(3) 0.9216(3)
H2_2 H 0.467590 0.393968 0.943291
C5_2 C 0.3908(3) 0.3059(2) 0.9152(2)
C6_2 C 0.3339(4) 0.2818(3) 0.8828(3)
H3_2 H 0.307244 0.235187 0.877081
C7_2 C 0.3142(4) 0.3248(3) 0.8581(3)
H4_2 H 0.274205 0.306501 0.836874
C8_2 C 0.3925(4) 0.1962(2) 0.9179(3)
H5_2 H 0.363147 0.181573 0.886610
C9_2 C 0.4136(3) 0.2605(2) 0.9405(2)
C10_2 C 0.4580(3) 0.2820(2) 0.9870(2)
C16_2 C 0.4280(4) 0.0529(5) 0.9216(3)
H8_2 H 0.467590 0.073622 0.943291
C17_2 C 0.3908(3) 0.0849(4) 0.9152(2)
C18_2 C 0.3339(4) 0.0521(5) 0.8828(3)
H9_2 H 0.307244 0.072057 0.877081
C20_2 C 0.4136(3) 0.1531(4) 0.9405(2)
C21_2 C 0.4580(3) 0.1760(4) 0.9870(2)
Tb4_2 Tb 0.54286(2) 0.77143(3) 0.750000
O11_2 O 0.45314(14) 0.72657(16) 0.81003(13)
O12_2 O 0.6737(5) 0.8369(5) 0.750000
O13_2 O 0.39465(13) 0.78930(18) 0.750000
O14_2 O 0.5836(2) 0.8605(4) 0.8132(2)
O15_2 O 0.49807(18) 0.87497(27) 0.83575(18)
C22_2 C 0.5594(2) 0.8934(4) 0.83598(19)
C23_2 C 0.6068(2) 0.9592(4) 0.8643(2)
C24_2 C 0.5827(3) 0.9909(4) 0.8966(3)
H12_2 H 0.536121 0.970520 0.902478
C28_2 C 0.6752(3) 0.9894(5) 0.8581(3)
H15_2 H 0.693499 0.967704 0.836874
C46_2 C 0.9471(5) 0.5720(4) 0.9216(3)
H24_2 H 0.926378 0.532410 0.943291
C47_2 C 0.9151(4) 0.6092(3) 0.9152(2)
C48_2 C 0.9479(5) 0.6661(4) 0.8828(3)
H25_2 H 0.927943 0.692756 0.877081
C50_2 C 0.8037(4) 0.6075(4) 0.9179(3)
H27_2 H 0.818426 0.636853 0.886610
C51_2 C 0.8469(4) 0.5864(3) 0.9405(2)
C52_2 C 0.8240(4) 0.5420(3) 0.9870(2)
O26_2 O 0.5836(2) 0.7231(3) 0.8132(2)
O27_2 O 0.49807(18) 0.6231(2) 0.83575(18)
C55_2 C 0.5594(2) 0.6660(3) 0.83598(19)
C56_2 C 0.6068(2) 0.6476(3) 0.8643(2)
C57_2 C 0.5827(3) 0.5918(3) 0.8966(3)
H29_2 H 0.536121 0.565601 0.902478
C58_2 C 0.6249(3) 0.5720(4) 0.9216(3)
H30_2 H 0.606032 0.532410 0.943291
C59_2 C 0.6941(2) 0.6092(3) 0.9152(2)
C60_2 C 0.7182(3) 0.6661(4) 0.8828(3)
H31_2 H 0.764813 0.692756 0.877081
C61_2 C 0.6752(3) 0.6858(4) 0.8581(3)
H32_2 H 0.693499 0.725795 0.836874
C62_2 C 0.7395(2) 0.5864(3) 0.9405(2)
C63_2 C 0.7180(2) 0.5420(3) 0.9870(2)
O29_2 O 0.45314(14) 0.72657(7) 0.68997(13)
O31_2 O 0.5836(2) 0.7231(3) 0.6868(2)
O32_2 O 0.49807(18) 0.6231(2) 0.66425(18)
C64_2 C 0.5594(2) 0.6660(3) 0.66402(19)
C65_2 C 0.6068(2) 0.6476(3) 0.6357(2)
C66_2 C 0.5827(3) 0.5918(3) 0.6034(3)
H34_2 H 0.536121 0.565601 0.597522
C67_2 C 0.6249(3) 0.5720(4) 0.5784(3)
H35_2 H 0.606032 0.532410 0.556709
C68_2 C 0.6941(2) 0.6092(3) 0.5848(2)
C69_2 C 0.7182(3) 0.6661(4) 0.6172(3)
H36_2 H 0.764813 0.692756 0.622919
C70_2 C 0.6752(3) 0.6858(4) 0.6419(3)
H37_2 H 0.693499 0.725795 0.663126
C71_2 C 0.8038(2) 0.6075(4) 0.5821(3)
H38_2 H 0.818427 0.636853 0.613390
C72_2 C 0.7395(2) 0.5864(3) 0.5595(2)
C73_2 C 0.7180(2) 0.5420(3) 0.5130(2)
H39_2 H 0.675458 0.527491 0.496980
C74_2 C 0.75963(17) 0.5193(3) 0.4903(3)
C75_2 C 0.73460(15) 0.4692(3) 0.4412(2)
C79_2 C 0.9471(5) 0.5720(4) 0.5784(3)
H41_2 H 0.926378 0.532410 0.556709
C80_2 C 0.9151(4) 0.6092(3) 0.5848(2)
C81_2 C 0.9479(5) 0.6661(4) 0.6172(3)
H42_2 H 0.927943 0.692756 0.622919
C83_2 C 0.8469(4) 0.5864(3) 0.5595(2)
C84_2 C 0.8240(4) 0.5420(3) 0.5130(2)
H44_2 H 0.852033 0.527491 0.496980
O38_2 O 0.2769(3) 0.4164(2) 0.6868(2)
O39_2 O 0.3769(2) 0.50193(18) 0.66425(18)
C85_2 C 0.3340(3) 0.4406(2) 0.66402(19)
C86_2 C 0.3524(3) 0.3932(2) 0.6357(2)
C87_2 C 0.4082(3) 0.4173(3) 0.6034(3)
H45_2 H 0.434399 0.463879 0.597522
C88_2 C 0.4280(4) 0.3751(3) 0.5784(3)
H46_2 H 0.467590 0.393968 0.556709
C89_2 C 0.3908(3) 0.3059(2) 0.5848(2)
C90_2 C 0.3339(4) 0.2818(3) 0.6172(3)
H47_2 H 0.307244 0.235187 0.622919
C91_2 C 0.3142(4) 0.3248(3) 0.6419(3)
H48_2 H 0.274205 0.306501 0.663126
C92_2 C 0.3925(4) 0.1963(4) 0.5821(3)
H49_2 H 0.363147 0.181574 0.613390
C93_2 C 0.4136(3) 0.2605(2) 0.5595(2)
C94_2 C 0.4580(3) 0.2820(2) 0.5130(2)
H50_2 H 0.472509 0.324542 0.496980
C95_2 C 0.4807(3) 0.24033(34) 0.4903(3)
C96_2 C 0.5308(3) 0.26540(34) 0.4412(2)
C100_2 C 0.4280(4) 0.0529(5) 0.5784(3)
H52_2 H 0.467590 0.073622 0.556709
C101_2 C 0.3908(3) 0.0849(4) 0.5848(2)
C102_2 C 0.3339(4) 0.0521(5) 0.6172(3)
H53_2 H 0.307244 0.072057 0.622919
C104_2 C 0.4136(3) 0.1531(4) 0.5595(2)
C105_2 C 0.4580(3) 0.1760(4) 0.5130(2)
H55_2 H 0.472509 0.147967 0.496980
O44_2 O 0.5836(2) 0.8605(4) 0.6868(2)
O45_2 O 0.49807(18) 0.87497(27) 0.66425(18)
C106_2 C 0.5594(2) 0.8934(4) 0.66402(19)
C107_2 C 0.6068(2) 0.9592(4) 0.6357(2)
C108_2 C 0.5827(3) 0.9909(4) 0.6034(3)
H56_2 H 0.536121 0.970520 0.597522
C112_2 C 0.6752(3) 0.9894(5) 0.6419(3)
H59_2 H 0.693499 0.967704 0.663126
O62 O 0.3769(2) 0.87497(27) 0.66425(18)
O64 O 0.3769(2) 0.87497(27) 0.83575(18)
C13_2 C 0.3340(3) 0.8934(4) 0.83598(19)
C14_2 C 0.3524(3) 0.9592(4) 0.8643(2)
C15_2 C 0.4082(3) 0.9909(4) 0.8966(3)
H7_2 H 0.434399 0.970520 0.902478
C19_2 C 0.3142(4) 0.9894(5) 0.8581(3)
H10_2 H 0.274205 0.967704 0.836874
C97_2 C 0.3340(3) 0.8934(4) 0.66402(19)
C98_2 C 0.3524(3) 0.9592(4) 0.6357(2)
C99_2 C 0.4082(3) 0.9909(4) 0.6034(3)
H51_2 H 0.434399 0.970520 0.597522
C103_2 C 0.3142(4) 0.9894(5) 0.6419(3)
H54_2 H 0.274205 0.967704 0.663126
loop_
_geom_bond_atom_site_label_1
_geom_bond_atom_site_label_2
_geom_bond_site_symmetry_1
_geom_bond_site_symmetry_2
O8 C13 1_555 1_555
O9 C13 1_555 1_555
C13 C14 1_555 1_555
C14 C15 1_555 1_555
C15 H7 1_555 1_555
C19 C14 1_555 1_555
H10 C19 1_555 1_555
O41 C97 1_555 1_555
O42 C97 1_555 1_555
C97 C98 1_555 1_555
C98 C99 1_555 1_555
C99 H51 1_555 1_555
C103 C98 1_555 1_555
H54 C103 1_555 1_555
Tb11 O9 1_555 1_555
Tb27 O42 1_555 1_555
Tb29 O8 1_555 1_555
O41 Tb29 1_555 1_555
Tb1 O1 1_555 1_555
Tb2 O1 1_555 1_555
O1 Tb13 1_555 1_555
O2 Tb2 1_555 1_555
O3 Tb1 1_555 1_555
O4 Tb1 1_555 1_555
O5 Tb2 1_555 1_555
O6 Tb1 1_555 1_555
O7 C12 1_555 1_555
C1 O5 1_555 1_555
C2 C1 1_555 1_555
C3 C2 1_555 1_555
H1 C3 1_555 1_555
C4 C3 1_555 1_555
H2 C4 1_555 1_555
C5 C4 1_555 1_555
C6 C5 1_555 1_555
H3 C6 1_555 1_555
C7 C2 1_555 1_555
H4 C7 1_555 1_555
C8 H5 1_555 1_555
C9 C5 1_555 1_555
C10 C9 1_555 1_555
H6 C10 1_555 1_555
C11 C10 1_555 1_555
C12 C11 1_555 1_555
O10 C12 1_555 1_555
H8 C16 1_555 1_555
C17 C16 1_555 1_555
C18 C17 1_555 1_555
H9 C18 1_555 1_555
C20 C8 1_555 1_555
C21 C11 1_555 1_555
H11 C21 1_555 1_555
Tb11 O3 1_555 1_555
Tb4 O11 1_555 1_555
O11 Tb1 1_555 1_555
O12 Tb4 1_555 1_555
O13 Tb11 1_555 1_555
O14 Tb4 1_555 1_555
O15 Tb11 1_555 1_555
C22 O14 1_555 1_555
C23 C22 1_555 1_555
C24 C23 1_555 1_555
H12 C24 1_555 1_555
C28 C23 1_555 1_555
H15 C28 1_555 1_555
O25 C54 1_555 1_555
H24 C46 1_555 1_555
C47 C46 1_555 1_555
C48 C47 1_555 1_555
H25 C48 1_555 1_555
C50 H27 1_555 1_555
C51 C47 1_555 1_555
C52 C51 1_555 1_555
H28 C52 1_555 1_555
C53 C52 1_555 1_555
C54 C53 1_555 1_555
O26 Tb4 1_555 1_555
O27 Tb1 1_555 1_555
O28 C54 1_555 1_555
C55 O26 1_555 1_555
C56 C55 1_555 1_555
C57 C56 1_555 1_555
H29 C57 1_555 1_555
C58 C57 1_555 1_555
H30 C58 1_555 1_555
C59 C58 1_555 1_555
C60 C59 1_555 1_555
H31 C60 1_555 1_555
C61 C56 1_555 1_555
H32 C61 1_555 1_555
C62 C50 1_555 1_555
C63 C53 1_555 1_555
H33 C63 1_555 1_555
Tb7 O4 1_555 1_555
O29 Tb4 1_555 1_555
O30 Tb7 1_555 1_555
O31 Tb4 1_555 1_555
O32 Tb7 1_555 1_555
C64 O31 1_555 1_555
C65 C64 1_555 1_555
C66 C65 1_555 1_555
H34 C66 1_555 1_555
C67 C66 1_555 1_555
H35 C67 1_555 1_555
C68 C67 1_555 1_555
C69 C68 1_555 1_555
H36 C69 1_555 1_555
C70 C65 1_555 1_555
H37 C70 1_555 1_555
C71 H38 1_555 1_555
C72 C68 1_555 1_555
C73 C72 1_555 1_555
H41 C79 1_555 1_555
C80 C79 1_555 1_555
C81 C80 1_555 1_555
H42 C81 1_555 1_555
C83 C71 1_555 1_555
O37 Tb2 1_555 1_555
O38 Tb2 1_555 1_555
O39 Tb7 1_555 1_555
C85 O38 1_555 1_555
C86 C85 1_555 1_555
C87 C86 1_555 1_555
H45 C87 1_555 1_555
C88 C87 1_555 1_555
H46 C88 1_555 1_555
C89 C88 1_555 1_555
C90 C89 1_555 1_555
H47 C90 1_555 1_555
C91 C86 1_555 1_555
H48 C91 1_555 1_555
C92 H49 1_555 1_555
C93 C89 1_555 1_555
C94 C93 1_555 1_555
H52 C100 1_555 1_555
C101 C100 1_555 1_555
C102 C101 1_555 1_555
H53 C102 1_555 1_555
C104 C92 1_555 1_555
Tb27 O13 1_555 1_555
O44 Tb4 1_555 1_555
O45 Tb27 1_555 1_555
C106 O44 1_555 1_555
C107 C106 1_555 1_555
C108 C107 1_555 1_555
H56 C108 1_555 1_555
C112 C107 1_555 1_555
H59 C112 1_555 1_555
Tb13 O3 1_555 1_555
Tb19 O10 1_555 1_555
Tb21 O28 1_555 1_555
Tb23 O7 1_555 1_555
Tb25 O30 1_555 1_555
O52 Tb11 1_555 1_555
O54 Tb27 1_555 1_555
O57 Tb2 1_555 1_555
O59 Tb2 1_555 1_555
O65 Tb27 1_555 1_555
O67 Tb7 1_555 1_555
O69 Tb11 1_555 1_555
O70 Tb1 1_555 1_555
O71 Tb11 1_555 1_555
O73 Tb1 1_555 1_555
O75 Tb27 1_555 1_555
O76 Tb7 1_555 1_555
O6 C1 1_555 1_555
C6 C7 1_555 1_555
C8 C9 1_555 1_555
C17 C20 1_555 1_555
C20 C21 1_555 1_555
Tb11 O11 1_555 1_555
O15 C22 1_555 1_555
O25 Tb19 1_555 1_555
C50 C51 1_555 1_555
O27 C55 1_555 1_555
C59 C62 1_555 1_555
C60 C61 1_555 1_555
C62 C63 1_555 1_555
Tb7 O29 1_555 1_555
Tb7 O37 1_555 1_555
O29 Tb27 1_555 1_555
O30 Tb27 1_555 1_555
O32 C64 1_555 1_555
C69 C70 1_555 1_555
C71 C72 1_555 1_555
C80 C83 1_555 1_555
C83 C84 1_555 1_555
O37 Tb25 1_555 1_555
O39 C85 1_555 1_555
C90 C91 1_555 1_555
C92 C93 1_555 1_555
C101 C104 1_555 1_555
C104 C105 1_555 1_555
O45 C106 1_555 1_555
Tb13 O52 1_555 1_555
Tb25 O54 1_555 1_555
O33 C75 1_555 1_555
C75 C74 1_555 1_555
O36 C75 1_555 1_555
O40 C96 1_555 1_555
C96 C95 1_555 1_555
O43 C96 1_555 1_555
Tb14 O36 1_555 1_555
Tb16 O40 1_555 1_555
Tb18 O33 1_555 1_555
O43 Tb14 1_555 1_555
O16 C33 1_555 1_555
H13 C25 1_555 1_555
C26 C25 1_555 1_555
C27 C26 1_555 1_555
H14 C27 1_555 1_555
C29 H16 1_555 1_555
C30 C26 1_555 1_555
C31 C30 1_555 1_555
H17 C31 1_555 1_555
C32 C31 1_555 1_555
C33 C32 1_555 1_555
O19 C33 1_555 1_555
H19 C37 1_555 1_555
C38 C37 1_555 1_555
C39 C38 1_555 1_555
H20 C39 1_555 1_555
C41 C29 1_555 1_555
C42 C32 1_555 1_555
H22 C42 1_555 1_555
H57 C109 1_555 1_555
C110 C109 1_555 1_555
C111 C110 1_555 1_555
H58 C111 1_555 1_555
C113 H60 1_555 1_555
C114 C110 1_555 1_555
C115 C114 1_555 1_555
H63 C121 1_555 1_555
C122 C121 1_555 1_555
C123 C122 1_555 1_555
H64 C123 1_555 1_555
C125 C113 1_555 1_555
Tb21 O16 1_555 1_555
Tb23 O19 1_555 1_555
C29 C30 1_555 1_555
C38 C41 1_555 1_555
C41 C42 1_555 1_555
C113 C114 1_555 1_555
C122 C125 1_555 1_555
C125 C126 1_555 1_555
O46 C117 1_555 1_555
C117 C116 1_555 1_555
O49 C117 1_555 1_555
Tb16 O49 1_555 1_555
Tb18 O46 1_555 1_555
Tb29 O52 1_555 1_555
O21 Tb29 1_555 1_555
O22 Tb13 1_555 1_555
O23 Tb29 1_555 1_555
O24 Tb13 1_555 1_555
C43 O23 1_555 1_555
C44 C43 1_555 1_555
C45 C44 1_555 1_555
H23 C45 1_555 1_555
C49 C44 1_555 1_555
H26 C49 1_555 1_555
O34 Tb29 1_555 1_555
O35 C76 1_555 1_555
C76 O34 1_555 1_555
C77 C76 1_555 1_555
C78 C77 1_555 1_555
H40 C78 1_555 1_555
C82 C77 1_555 1_555
H43 C82 1_555 1_555
Tb25 O22 1_555 1_555
O54 Tb29 1_555 1_555
O61 Tb25 1_555 1_555
O63 Tb13 1_555 1_555
O66 Tb25 1_555 1_555
O68 Tb13 1_555 1_555
O72 Tb13 1_555 1_555
O74 Tb25 1_555 1_555
O24 C43 1_555 1_555
O35 Tb25 1_555 1_555
O59 C34 1_555 1_555
O63 C34 1_555 1_555
C34 C35 1_555 1_555
C35 C36 1_555 1_555
C36 H18 1_555 1_555
C40 C35 1_555 1_555
H21 C40 1_555 1_555
O57 C118 1_555 1_555
O61 C118 1_555 1_555
C118 C119 1_555 1_555
C119 C120 1_555 1_555
C120 H62 1_555 1_555
C124 C119 1_555 1_555
H65 C124 1_555 1_555
O17 C34_2 1_555 1_555
O18 C34_2 1_555 1_555
C34_2 C35_2 1_555 1_555
C35_2 C36_2 1_555 1_555
C36_2 H18_2 1_555 1_555
C40_2 C35_2 1_555 1_555
H21_2 C40_2 1_555 1_555
O47 C118_2 1_555 1_555
O48 C118_2 1_555 1_555
C118_2 C119_2 1_555 1_555
C119_2 C120_2 1_555 1_555
C120_2 H62_2 1_555 1_555
C124_2 C119_2 1_555 1_555
H65_2 C124_2 1_555 1_555
Tb18 O18 1_555 1_555
Tb21 O48 1_555 1_555
Tb28 O17 1_555 1_555
O47 Tb28 1_555 1_555
Tb18 O20 1_555 1_555
Tb6 O20 1_555 1_555
O20 Tb16 1_555 1_555
O21_2 Tb6 1_555 1_555
O22_2 Tb18 1_555 1_555
O23_2 Tb6 1_555 1_555
O24_2 Tb18 1_555 1_555
C43_2 O23_2 1_555 1_555
C44_2 C43_2 1_555 1_555
C45_2 C44_2 1_555 1_555
H23_2 C45_2 1_555 1_555
C49_2 C44_2 1_555 1_555
H26_2 C49_2 1_555 1_555
O34_2 Tb6 1_555 1_555
O35_2 C76_2 1_555 1_555
C76_2 O34_2 1_555 1_555
C77_2 C76_2 1_555 1_555
C78_2 C77_2 1_555 1_555
H40_2 C78_2 1_555 1_555
C82_2 C77_2 1_555 1_555
H43_2 C82_2 1_555 1_555
Tb21 O22_2 1_555 1_555
O50 Tb6 1_555 1_555
Tb16 O55 1_555 1_555
Tb23 O50 1_555 1_555
O51 Tb18 1_555 1_555
O53 Tb21 1_555 1_555
O55 Tb18 1_555 1_555
O56 Tb21 1_555 1_555
O58 Tb6 1_555 1_555
O60 Tb6 1_555 1_555
O24_2 C43_2 1_555 1_555
O35_2 Tb21 1_555 1_555
Tb21 O50 1_555 1_555
Tb23 O56 1_555 1_555
O66 C33_2 1_555 1_555
C33_2 C32_2 1_555 1_555
O75 C33_2 1_555 1_555
H13_2 C25_2 1_555 1_555
C26_2 C25_2 1_555 1_555
C27_2 C26_2 1_555 1_555
H14_2 C27_2 1_555 1_555
C29_2 H16_2 1_555 1_555
C30_2 C26_2 1_555 1_555
C31_2 C30_2 1_555 1_555
H19_2 C37_2 1_555 1_555
C38_2 C37_2 1_555 1_555
C39_2 C38_2 1_555 1_555
H20_2 C39_2 1_555 1_555
C41_2 C29_2 1_555 1_555
O72 C117_2 1_555 1_555
H57_2 C109_2 1_555 1_555
C110_2 C109_2 1_555 1_555
C111_2 C110_2 1_555 1_555
H58_2 C111_2 1_555 1_555
C113_2 H60_2 1_555 1_555
C114_2 C110_2 1_555 1_555
C115_2 C114_2 1_555 1_555
H61_2 C115_2 1_555 1_555
C116_2 C115_2 1_555 1_555
C117_2 C116_2 1_555 1_555
O69 C117_2 1_555 1_555
H63_2 C121_2 1_555 1_555
C122_2 C121_2 1_555 1_555
C123_2 C122_2 1_555 1_555
H64_2 C123_2 1_555 1_555
C125_2 C113_2 1_555 1_555
C126_2 C116_2 1_555 1_555
H66_2 C126_2 1_555 1_555
C29_2 C30_2 1_555 1_555
C38_2 C41_2 1_555 1_555
C41_2 C42_2 1_555 1_555
C113_2 C114_2 1_555 1_555
C122_2 C125_2 1_555 1_555
C125_2 C126_2 1_555 1_555
O65 C12_2 1_555 1_555
C12_2 C11_2 1_555 1_555
O76 C12_2 1_555 1_555
O67 C54_2 1_555 1_555
C54_2 C53_2 1_555 1_555
O74 C54_2 1_555 1_555
Tb14 O51 1_555 1_555
Tb28 O51 1_555 1_555
O2_2 Tb28 1_555 1_555
O55 Tb14 1_555 1_555
O4_2 Tb14 1_555 1_555
O5_2 Tb28 1_555 1_555
O6_2 Tb14 1_555 1_555
C1_2 O5_2 1_555 1_555
C2_2 C1_2 1_555 1_555
C3_2 C2_2 1_555 1_555
H1_2 C3_2 1_555 1_555
C4_2 C3_2 1_555 1_555
H2_2 C4_2 1_555 1_555
C5_2 C4_2 1_555 1_555
C6_2 C5_2 1_555 1_555
H3_2 C6_2 1_555 1_555
C7_2 C2_2 1_555 1_555
H4_2 C7_2 1_555 1_555
C8_2 H5_2 1_555 1_555
C9_2 C5_2 1_555 1_555
C10_2 C9_2 1_555 1_555
H8_2 C16_2 1_555 1_555
C17_2 C16_2 1_555 1_555
C18_2 C17_2 1_555 1_555
H9_2 C18_2 1_555 1_555
C20_2 C8_2 1_555 1_555
Tb4_2 O11_2 1_555 1_555
O11_2 Tb14 1_555 1_555
O12_2 Tb4_2 1_555 1_555
O13_2 Tb16 1_555 1_555
O14_2 Tb4_2 1_555 1_555
O15_2 Tb16 1_555 1_555
C22_2 O14_2 1_555 1_555
C23_2 C22_2 1_555 1_555
C24_2 C23_2 1_555 1_555
H12_2 C24_2 1_555 1_555
C28_2 C23_2 1_555 1_555
H15_2 C28_2 1_555 1_555
H24_2 C46_2 1_555 1_555
C47_2 C46_2 1_555 1_555
C48_2 C47_2 1_555 1_555
H25_2 C48_2 1_555 1_555
C50_2 H27_2 1_555 1_555
C51_2 C47_2 1_555 1_555
C52_2 C51_2 1_555 1_555
O26_2 Tb4_2 1_555 1_555
O27_2 Tb14 1_555 1_555
C55_2 O26_2 1_555 1_555
C56_2 C55_2 1_555 1_555
C57_2 C56_2 1_555 1_555
H29_2 C57_2 1_555 1_555
C58_2 C57_2 1_555 1_555
H30_2 C58_2 1_555 1_555
C59_2 C58_2 1_555 1_555
C60_2 C59_2 1_555 1_555
H31_2 C60_2 1_555 1_555
C61_2 C56_2 1_555 1_555
H32_2 C61_2 1_555 1_555
C62_2 C50_2 1_555 1_555
Tb19 O4_2 1_555 1_555
O29_2 Tb4_2 1_555 1_555
O56 Tb19 1_555 1_555
O31_2 Tb4_2 1_555 1_555
O32_2 Tb19 1_555 1_555
O68 C75_2 1_555 1_555
C64_2 O31_2 1_555 1_555
C65_2 C64_2 1_555 1_555
C66_2 C65_2 1_555 1_555
H34_2 C66_2 1_555 1_555
C67_2 C66_2 1_555 1_555
H35_2 C67_2 1_555 1_555
C68_2 C67_2 1_555 1_555
C69_2 C68_2 1_555 1_555
H36_2 C69_2 1_555 1_555
C70_2 C65_2 1_555 1_555
H37_2 C70_2 1_555 1_555
C71_2 H38_2 1_555 1_555
C72_2 C68_2 1_555 1_555
C73_2 C72_2 1_555 1_555
H39_2 C73_2 1_555 1_555
C74_2 C73_2 1_555 1_555
C75_2 C74_2 1_555 1_555
O73 C75_2 1_555 1_555
H41_2 C79_2 1_555 1_555
C80_2 C79_2 1_555 1_555
C81_2 C80_2 1_555 1_555
H42_2 C81_2 1_555 1_555
C83_2 C71_2 1_555 1_555
C84_2 C74_2 1_555 1_555
H44_2 C84_2 1_555 1_555
O53 Tb28 1_555 1_555
O38_2 Tb28 1_555 1_555
O39_2 Tb19 1_555 1_555
O71 C96_2 1_555 1_555
C85_2 O38_2 1_555 1_555
C86_2 C85_2 1_555 1_555
C87_2 C86_2 1_555 1_555
H45_2 C87_2 1_555 1_555
C88_2 C87_2 1_555 1_555
H46_2 C88_2 1_555 1_555
C89_2 C88_2 1_555 1_555
C90_2 C89_2 1_555 1_555
H47_2 C90_2 1_555 1_555
C91_2 C86_2 1_555 1_555
H48_2 C91_2 1_555 1_555
C92_2 H49_2 1_555 1_555
C93_2 C89_2 1_555 1_555
C94_2 C93_2 1_555 1_555
H50_2 C94_2 1_555 1_555
C95_2 C94_2 1_555 1_555
C96_2 C95_2 1_555 1_555
O70 C96_2 1_555 1_555
H52_2 C100_2 1_555 1_555
C101_2 C100_2 1_555 1_555
C102_2 C101_2 1_555 1_555
H53_2 C102_2 1_555 1_555
C104_2 C92_2 1_555 1_555
C105_2 C95_2 1_555 1_555
H55_2 C105_2 1_555 1_555
Tb23 O13_2 1_555 1_555
O44_2 Tb4_2 1_555 1_555
O45_2 Tb23 1_555 1_555
C106_2 O44_2 1_555 1_555
C107_2 C106_2 1_555 1_555
C108_2 C107_2 1_555 1_555
H56_2 C108_2 1_555 1_555
C112_2 C107_2 1_555 1_555
H59_2 C112_2 1_555 1_555
O62 Tb23 1_555 1_555
O64 Tb16 1_555 1_555
O6_2 C1_2 1_555 1_555
C6_2 C7_2 1_555 1_555
C8_2 C9_2 1_555 1_555
C17_2 C20_2 1_555 1_555
C20_2 C21_2 1_555 1_555
Tb16 O11_2 1_555 1_555
O15_2 C22_2 1_555 1_555
C50_2 C51_2 1_555 1_555
O27_2 C55_2 1_555 1_555
C59_2 C62_2 1_555 1_555
C60_2 C61_2 1_555 1_555
C62_2 C63_2 1_555 1_555
Tb19 O29_2 1_555 1_555
Tb19 O53 1_555 1_555
O29_2 Tb23 1_555 1_555
O32_2 C64_2 1_555 1_555
C69_2 C70_2 1_555 1_555
C71_2 C72_2 1_555 1_555
C80_2 C83_2 1_555 1_555
C83_2 C84_2 1_555 1_555
O39_2 C85_2 1_555 1_555
C90_2 C91_2 1_555 1_555
C92_2 C93_2 1_555 1_555
C101_2 C104_2 1_555 1_555
C104_2 C105_2 1_555 1_555
O45_2 C106_2 1_555 1_555
O60 C13_2 1_555 1_555
O64 C13_2 1_555 1_555
C13_2 C14_2 1_555 1_555
C14_2 C15_2 1_555 1_555
C15_2 H7_2 1_555 1_555
C19_2 C14_2 1_555 1_555
H10_2 C19_2 1_555 1_555
O58 C97_2 1_555 1_555
O62 C97_2 1_555 1_555
C97_2 C98_2 1_555 1_555
C98_2 C99_2 1_555 1_555
C99_2 H51_2 1_555 1_555
C103_2 C98_2 1_555 1_555
H54_2 C103_2 1_555 1_555

#END
