
###############################################################################
#
# This file contains modified crystal structure data generated from the
# MOF subset of the Cambridge Structural Database (CSD) v543 
# hosted by the Cambridge Crystallographic Data Centre (CCDC).
#
# This work is licensed under the Creative Commons
# Attribution-NonCommercial-ShareAlike 4.0 International License.
# To view a copy of this license, visit
# http://creativecommons.org/licenses/by-nc-sa/4.0/
# or send a letter to
# Creative Commons, PO Box 1866, Mountain View, CA 94042, USA.
#
# CIF created using the CSD Python API on 29 September 2022
# The structure has been converted into the P1 space group
# The structure has a 3D framework
# The original CSD entry AZILEC is in the orthorhombic crystal system
# The framework has been calculated to contain at least 10.0% void space
# The void calculation uses a probe of radius 1.32A, grid spacing 0.4
#
###############################################################################

data_AZILEC
_chemical_formula_moiety         '(C128 H96 Co8 N32 O32)n'
_symmetry_cell_setting           triclinic
_symmetry_space_group_name_H-M   'P 1'
_symmetry_Int_Tables_number      1
_space_group_name_Hall           'P 1'
loop_
_symmetry_equiv_pos_site_id
_symmetry_equiv_pos_as_xyz
1 x,y,z
_cell_length_a                   14.595(5)
_cell_length_b                   13.344(5)
_cell_length_c                   21.324(5)
_cell_angle_alpha                90
_cell_angle_beta                 90
_cell_angle_gamma                90
_cell_volume                     4152.97
loop_
_atom_site_label
_atom_site_type_symbol
_atom_site_fract_x
_atom_site_fract_y
_atom_site_fract_z
N3 N 0.0953(8) 0.2390(8) 0.9091(9)
C24 C 0.125(2) 0.0773(13) 0.9540(14)
H18 H 0.1470 0.0416 0.9882
C26 C 0.1339(13) 0.1865(11) 0.9531(9)
H20 H 0.1676 0.2185 0.9842
C27 C 0.0476(14) 0.1908(11) 0.8637(10)
H21 H 0.0178 0.2280 0.8330
C28 C 0.042(2) 0.0850(13) 0.8621(16)
H22 H 0.0100 0.0522 0.8306
C29 C 0.0876(19) 0.0306(14) 0.9098(19)
Co3 Co 0.09905(10) 0.40427(11) 0.90874(6)
O3 O 0.2590(7) 0.3921(7) 0.3788(4)
O4 O 0.0346(6) 0.3380(6) 0.0659(4)
O5 O 0.3637(9) 0.4058(7) 0.3088(5)
C7 C 0.1622(9) 0.3745(10) 0.1637(6)
H4 H 0.1019 0.3605 0.1746
C9 C 0.1106(8) 0.3755(9) 0.0528(5)
C11 C 0.2284(10) 0.3827(10) 0.2135(6)
H7 H 0.2894 0.3891 0.2016
C14 C 0.2120(9) 0.3821(10) 0.2720(6)
H10 H 0.1514 0.3742 0.2844
C15 C 0.2833(11) 0.3933(11) 0.3234(7)
C20 C 0.1814(9) 0.3854(10) 0.1032(6)
H14 H 0.2414 0.3999 0.0917
Co5 Co 0.40095(10) 0.40427(11) 0.40874(6)
O1 O 0.1339(8) 0.4042(6) 0.9995(4)
N1 N 0.0958(6) 0.5632(7) 0.9107(7)
C2 C 0.0917(11) 0.7723(11) 0.9184(9)
C8 C 0.1362(12) 0.7193(9) 0.9600(8)
H5 H 0.1691 0.7519 0.9913
C10 C 0.1354(10) 0.6173(10) 0.9585(7)
H6 H 0.1629 0.5826 0.9912
C19 C 0.0485(12) 0.6155(11) 0.8677(8)
H13 H 0.0141 0.5812 0.8379
C22 C 0.0499(13) 0.7211(11) 0.8666(9)
H16 H 0.0245 0.7565 0.8333
N7 N 0.1009(14) 0.8943(16) 0.9292(10)
N8 N 0.064(2) 0.917(2) 0.8873(15)
O9 O 0.2410(7) 0.3921(7) 0.8788(4)
O10 O 0.1363(9) 0.4058(7) 0.8088(5)
N4 N 0.9036(8) 0.1830(8) 0.0387(9)
C25 C 0.9396(17) 0.1330(13) 0.0833(12)
H19 H 0.9625 0.1654 0.1186
C31 C 0.944(2) 0.0262(16) 0.0782(16)
Co6 Co 0.90380(11) 0.34814(11) 0.04035(6)
O2 O 0.8709(8) 0.3501(7) 0.1435(5)
O6 O 0.6311(8) 0.3401(6) 0.4499(4)
O7 O 0.5336(6) 0.4071(6) 0.3815(4)
C1 C 0.6763(9) 0.3557(9) 0.3452(6)
H1 H 0.7350 0.3363 0.3570
O8 O 0.7649(7) 0.3570(7) 0.0706(5)
N2 N 0.9130(7) 0.5102(7) 0.0373(6)
C3 C 0.9178(11) 0.7174(10) 0.0415(12)
C4 C 0.7304(10) 0.3567(9) 0.2369(6)
H2 H 0.7897 0.3405 0.2492
C5 C 0.6610(10) 0.3690(10) 0.2854(6)
H3 H 0.6023 0.3875 0.2731
C6 C 0.7852(10) 0.3553(8) 0.1277(6)
C12 C 0.9572(13) 0.6614(12) 0.0861(10)
H8 H 0.9854 0.6926 0.1200
C13 C 0.7133(10) 0.3675(11) 0.1753(7)
H9 H 0.6542 0.3831 0.1625
C16 C 0.6076(8) 0.3689(9) 0.3958(6)
C21 C 0.9566(11) 0.5595(11) 0.0825(7)
H15 H 0.9879 0.5230 0.1129
N5 N 0.9309(9) 0.8400(9) 0.0599(6)
H24 H 0.9769 0.9917 0.1088
C32 C 0.9071(19) 0.9756(13) 0.0354(19)
N6 N 0.8913(16) 0.8611(18) 0.0176(11)
Co7 Co 0.59620(11) 0.34814(11) 0.54035(6)
C17 C 0.8724(11) 0.6651(10) 0.9930(9)
H11 H 0.8432 0.7008 0.9613
C18 C 0.8708(10) 0.5643(10) 0.9918(6)
H12 H 0.8405 0.5314 0.9595
O11 O 0.8689(8) 0.3401(6) 0.9499(4)
O12 O 0.9664(6) 0.4071(6) 0.8815(4)
N3_2 N 0.4047(8) 0.2390(8) 0.4091(9)
N4_2 N 0.5964(8) 0.1830(8) 0.5387(9)
C23 C 0.6317(15) 0.1335(12) 0.4959(11)
H17 H 0.6687 0.1676 0.4675
C24_2 C 0.375(2) 0.0773(13) 0.4540(14)
H18_2 H 0.3530 0.0416 0.4882
C25_2 C 0.5604(17) 0.1330(13) 0.5833(12)
H19_2 H 0.5375 0.1654 0.6186
C26_2 C 0.3661(13) 0.1865(11) 0.4531(9)
H20_2 H 0.3324 0.2185 0.4842
C27_2 C 0.4524(14) 0.1908(11) 0.3637(10)
H21_2 H 0.4822 0.2280 0.3330
C28_2 C 0.458(2) 0.0850(13) 0.3621(16)
H22_2 H 0.4900 0.0522 0.3306
C29_2 C 0.4124(19) 0.0306(14) 0.4098(19)
C30 C 0.621(2) 0.0324(16) 0.4872(15)
H23 H 0.6324 0.0037 0.4483
C31_2 C 0.556(2) 0.0262(16) 0.5782(16)
O1_2 O 0.3661(8) 0.4042(6) 0.4995(4)
O2_2 O 0.6291(8) 0.3501(7) 0.6435(5)
O4_2 O 0.4654(6) 0.3380(6) 0.5659(4)
N1_2 N 0.4042(6) 0.5632(7) 0.4107(7)
C1_2 C 0.8237(9) 0.3557(9) 0.8452(6)
H1_2 H 0.7650 0.3363 0.8570
C2_2 C 0.4083(11) 0.7723(11) 0.4184(9)
O8_2 O 0.7351(7) 0.3570(7) 0.5706(5)
N2_2 N 0.5870(7) 0.5102(7) 0.5373(6)
C3_2 C 0.5822(11) 0.7174(10) 0.5415(12)
C4_2 C 0.7696(10) 0.3567(9) 0.7369(6)
H2_2 H 0.7103 0.3405 0.7492
C5_2 C 0.8390(10) 0.3690(10) 0.7854(6)
H3_2 H 0.8977 0.3875 0.7731
C6_2 C 0.7148(10) 0.3553(8) 0.6277(6)
C7_2 C 0.3378(9) 0.3745(10) 0.6637(6)
H4_2 H 0.3981 0.3605 0.6746
C8_2 C 0.3638(12) 0.7193(9) 0.4600(8)
H5_2 H 0.3309 0.7519 0.4913
C9_2 C 0.3894(8) 0.3755(9) 0.5528(5)
C10_2 C 0.3646(10) 0.6173(10) 0.4585(7)
H6_2 H 0.3371 0.5826 0.4912
C11_2 C 0.2716(10) 0.3827(10) 0.7135(6)
H7_2 H 0.2106 0.3891 0.7016
C12_2 C 0.5428(13) 0.6614(12) 0.5861(10)
H8_2 H 0.5146 0.6926 0.6200
C13_2 C 0.7867(10) 0.3675(11) 0.6753(7)
H9_2 H 0.8458 0.3831 0.6625
C14_2 C 0.2880(9) 0.3821(10) 0.7720(6)
H10_2 H 0.3486 0.3742 0.7844
C15_2 C 0.2167(11) 0.3933(11) 0.8234(7)
C16_2 C 0.8924(8) 0.3689(9) 0.8958(6)
C17_2 C 0.6276(11) 0.6651(10) 0.4930(9)
H11_2 H 0.6568 0.7008 0.4613
C18_2 C 0.6292(10) 0.5643(10) 0.4918(6)
H12_2 H 0.6595 0.5314 0.4595
C19_2 C 0.4515(12) 0.6155(11) 0.3677(8)
H13_2 H 0.4859 0.5812 0.3379
C20_2 C 0.3186(9) 0.3854(10) 0.6032(6)
H14_2 H 0.2586 0.3999 0.5917
C21_2 C 0.5434(11) 0.5595(11) 0.5825(7)
H15_2 H 0.5121 0.5230 0.6129
C22_2 C 0.4501(13) 0.7211(11) 0.3666(9)
H16_2 H 0.4755 0.7565 0.3333
N5_2 N 0.5691(9) 0.8400(9) 0.5599(6)
H24_2 H 0.5231 0.9917 0.6088
C32_2 C 0.5929(19) 0.9756(13) 0.5354(19)
N6_2 N 0.6087(16) 0.8611(18) 0.5176(11)
N7_2 N 0.3991(14) 0.8943(16) 0.4292(10)
N8_2 N 0.436(2) 0.917(2) 0.3873(15)
C23_2 C 0.8683(15) 0.1335(12) 0.9959(11)
H17_2 H 0.8313 0.1676 0.9675
C30_2 C 0.879(2) 0.0324(16) 0.9872(15)
H23_2 H 0.8676 0.0037 0.9483
Co7_2 Co 0.40380(11) 0.65186(11) 0.04035(6)
Co2 Co 0.09620(11) 0.65186(11) 0.54035(6)
O2_3 O 0.1291(8) 0.6499(7) 0.6435(5)
O6_2 O 0.3689(8) 0.6599(6) 0.9499(4)
O7_2 O 0.4664(6) 0.5929(6) 0.8815(4)
C1_3 C 0.3237(9) 0.6443(9) 0.8452(6)
H1_3 H 0.2650 0.6637 0.8570
O8_3 O 0.2351(7) 0.6430(7) 0.5706(5)
N2_3 N 0.0870(7) 0.4898(7) 0.5373(6)
C3_3 C 0.0822(11) 0.2826(10) 0.5415(12)
C4_3 C 0.2696(10) 0.6433(9) 0.7369(6)
H2_3 H 0.2103 0.6595 0.7492
C5_3 C 0.3390(10) 0.6310(10) 0.7854(6)
H3_3 H 0.3977 0.6125 0.7731
C6_3 C 0.2148(10) 0.6447(8) 0.6277(6)
C12_3 C 0.0428(13) 0.3386(12) 0.5861(10)
H8_3 H 0.0146 0.3074 0.6200
C13_3 C 0.2867(10) 0.6325(11) 0.6753(7)
H9_3 H 0.3458 0.6169 0.6625
C16_3 C 0.3924(8) 0.6311(9) 0.8958(6)
C17_3 C 0.1276(11) 0.3349(10) 0.4930(9)
H11_3 H 0.1568 0.2992 0.4613
C18_3 C 0.1292(10) 0.4357(10) 0.4918(6)
H12_3 H 0.1595 0.4686 0.4595
C21_3 C 0.0434(11) 0.4405(11) 0.5825(7)
H15_3 H 0.0121 0.4770 0.6129
N5_3 N 0.0691(9) 0.1600(9) 0.5599(6)
H24_3 H 0.0231 0.0083 0.6088
C32_3 C 0.0929(19) 0.0244(13) 0.5354(19)
N6_3 N 0.1087(16) 0.1389(18) 0.5176(11)
Co4 Co 0.59905(10) 0.59573(11) 0.90874(6)
O11_2 O 0.1311(8) 0.6599(6) 0.4499(4)
O12_2 O 0.0336(6) 0.5929(6) 0.3815(4)
N10 N 0.0964(8) 0.8170(8) 0.5387(9)
C23_3 C 0.1317(15) 0.8665(12) 0.4959(11)
H17_3 H 0.1687 0.8324 0.4675
C25_3 C 0.0604(17) 0.8670(13) 0.5833(12)
H19_3 H 0.0375 0.8346 0.6186
C30_3 C 0.121(2) 0.9676(16) 0.4872(15)
H23_3 H 0.1324 0.9963 0.4483
C31_3 C 0.056(2) 0.9738(16) 0.5782(16)
Co1 Co 0.90095(10) 0.59573(11) 0.40874(6)
O1_3 O 0.8661(8) 0.5958(6) 0.4995(4)
O3_2 O 0.7410(7) 0.6079(7) 0.8788(4)
O4_3 O 0.9654(6) 0.6620(6) 0.5659(4)
O5_2 O 0.6363(9) 0.5942(7) 0.8088(5)
N1_3 N 0.9042(6) 0.4368(7) 0.4107(7)
C2_3 C 0.9083(11) 0.2277(11) 0.4184(9)
C7_3 C 0.8378(9) 0.6255(10) 0.6637(6)
H4_3 H 0.8981 0.6395 0.6746
C8_3 C 0.8638(12) 0.2807(9) 0.4600(8)
H5_3 H 0.8309 0.2481 0.4913
C9_3 C 0.8894(8) 0.6245(9) 0.5528(5)
C10_3 C 0.8646(10) 0.3827(10) 0.4585(7)
H6_3 H 0.8371 0.4174 0.4912
C11_3 C 0.7716(10) 0.6173(10) 0.7135(6)
H7_3 H 0.7106 0.6109 0.7016
C14_3 C 0.7880(9) 0.6179(10) 0.7720(6)
H10_3 H 0.8486 0.6258 0.7844
C15_3 C 0.7167(11) 0.6067(11) 0.8234(7)
C19_3 C 0.9515(12) 0.3845(11) 0.3677(8)
H13_3 H 0.9859 0.4188 0.3379
C20_3 C 0.8186(9) 0.6146(10) 0.6032(6)
H14_3 H 0.7586 0.6001 0.5917
C22_3 C 0.9501(13) 0.2789(11) 0.3666(9)
H16_3 H 0.9755 0.2435 0.3333
N7_3 N 0.8991(14) 0.1057(16) 0.4292(10)
N8_3 N 0.936(2) 0.083(2) 0.3873(15)
O9_2 O 0.7590(7) 0.6079(7) 0.3788(4)
O10_2 O 0.8637(9) 0.5942(7) 0.3088(5)
N9 N 0.9047(8) 0.7610(8) 0.4091(9)
C24_3 C 0.875(2) 0.9227(13) 0.4540(14)
H18_3 H 0.8530 0.9584 0.4882
C26_3 C 0.8661(13) 0.8135(11) 0.4531(9)
H20_3 H 0.8324 0.7815 0.4842
C27_3 C 0.9524(14) 0.8092(11) 0.3637(10)
H21_3 H 0.9822 0.7720 0.3330
C28_3 C 0.958(2) 0.9150(13) 0.3621(16)
H22_3 H 0.9900 0.9478 0.3306
C29_3 C 0.9124(19) 0.9694(14) 0.4098(19)
O2_4 O 0.3709(8) 0.6499(7) 0.1435(5)
O4_4 O 0.5346(6) 0.6620(6) 0.0659(4)
C1_4 C 0.1763(9) 0.6443(9) 0.3452(6)
H1_4 H 0.2350 0.6637 0.3570
O8_4 O 0.2649(7) 0.6430(7) 0.0706(5)
N2_4 N 0.4130(7) 0.4898(7) 0.0373(6)
C3_4 C 0.4178(11) 0.2826(10) 0.0415(12)
C4_4 C 0.2304(10) 0.6433(9) 0.2369(6)
H2_4 H 0.2897 0.6595 0.2492
C5_4 C 0.1610(10) 0.6310(10) 0.2854(6)
H3_4 H 0.1023 0.6125 0.2731
C6_4 C 0.2852(10) 0.6447(8) 0.1277(6)
C7_4 C 0.6622(9) 0.6255(10) 0.1637(6)
H4_4 H 0.6019 0.6395 0.1746
C9_4 C 0.6106(8) 0.6245(9) 0.0528(5)
C11_4 C 0.7284(10) 0.6173(10) 0.2135(6)
H7_4 H 0.7894 0.6109 0.2016
C12_4 C 0.4572(13) 0.3386(12) 0.0861(10)
H8_4 H 0.4854 0.3074 0.1200
C13_4 C 0.2133(10) 0.6325(11) 0.1753(7)
H9_4 H 0.1542 0.6169 0.1625
C14_4 C 0.7120(9) 0.6179(10) 0.2720(6)
H10_4 H 0.6514 0.6258 0.2844
C15_4 C 0.7833(11) 0.6067(11) 0.3234(7)
C16_4 C 0.1076(8) 0.6311(9) 0.3958(6)
C20_4 C 0.6814(9) 0.6146(10) 0.1032(6)
H14_4 H 0.7414 0.6001 0.0917
C21_4 C 0.4566(11) 0.4405(11) 0.0825(7)
H15_4 H 0.4879 0.4770 0.1129
N5_4 N 0.4309(9) 0.1600(9) 0.0599(6)
H24_4 H 0.4769 0.0083 0.1088
C32_4 C 0.4071(19) 0.0244(13) 0.0354(19)
N6_4 N 0.3913(16) 0.1389(18) 0.0176(11)
N10_2 N 0.4036(8) 0.8170(8) 0.0387(9)
O1_4 O 0.6339(8) 0.5958(6) 0.9995(4)
N1_4 N 0.5958(6) 0.4368(7) 0.9107(7)
C2_4 C 0.5917(11) 0.2277(11) 0.9184(9)
C8_4 C 0.6362(12) 0.2807(9) 0.9600(8)
H5_4 H 0.6691 0.2481 0.9913
C10_4 C 0.6354(10) 0.3827(10) 0.9585(7)
H6_4 H 0.6629 0.4174 0.9912
C17_4 C 0.3724(11) 0.3349(10) 0.9930(9)
H11_4 H 0.3432 0.2992 0.9613
C18_4 C 0.3708(10) 0.4357(10) 0.9918(6)
H12_4 H 0.3405 0.4686 0.9595
C19_4 C 0.5485(12) 0.3845(11) 0.8677(8)
H13_4 H 0.5141 0.4188 0.8379
C22_4 C 0.5499(13) 0.2789(11) 0.8666(9)
H16_4 H 0.5245 0.2435 0.8333
N7_4 N 0.6009(14) 0.1057(16) 0.9292(10)
N8_4 N 0.564(2) 0.083(2) 0.8873(15)
N9_2 N 0.5953(8) 0.7610(8) 0.9091(9)
C25_4 C 0.4396(17) 0.8670(13) 0.0833(12)
H19_4 H 0.4625 0.8346 0.1186
C31_4 C 0.444(2) 0.9738(16) 0.0782(16)
C23_4 C 0.3683(15) 0.8665(12) 0.9959(11)
H17_4 H 0.3313 0.8324 0.9675
C24_4 C 0.625(2) 0.9227(13) 0.9540(14)
H18_4 H 0.6470 0.9584 0.9882
C26_4 C 0.6339(13) 0.8135(11) 0.9531(9)
H20_4 H 0.6676 0.7815 0.9842
C27_4 C 0.5476(14) 0.8092(11) 0.8637(10)
H21_4 H 0.5178 0.7720 0.8330
C28_4 C 0.542(2) 0.9150(13) 0.8621(16)
H22_4 H 0.5100 0.9478 0.8306
C29_4 C 0.5876(19) 0.9694(14) 0.9098(19)
C30_4 C 0.379(2) 0.9676(16) 0.9872(15)
H23_4 H 0.3676 0.9963 0.9483
loop_
_geom_bond_atom_site_label_1
_geom_bond_atom_site_label_2
_geom_bond_site_symmetry_1
_geom_bond_site_symmetry_2
N3 C26 1_555 1_555
C24 H18 1_555 1_555
C26 C24 1_555 1_555
H20 C26 1_555 1_555
C27 N3 1_555 1_555
H21 C27 1_555 1_555
C28 C27 1_555 1_555
H22 C28 1_555 1_555
C29 C24 1_555 1_555
Co3 N3 1_555 1_555
C28 C29 1_555 1_555
O3 C15 1_555 1_555
O5 C15 1_555 1_555
C7 H4 1_555 1_555
C9 O4 1_555 1_555
C11 C7 1_555 1_555
H7 C11 1_555 1_555
C14 C11 1_555 1_555
H10 C14 1_555 1_555
C15 C14 1_555 1_555
C20 C7 1_555 1_555
H14 C20 1_555 1_555
Co5 O3 1_555 1_555
O5 Co5 1_555 1_555
C9 C20 1_555 1_555
Co3 O1 1_555 1_555
N1 Co3 1_555 1_555
C2 C8 1_555 1_555
C8 H5 1_555 1_555
C10 N1 1_555 1_555
H6 C10 1_555 1_555
C19 N1 1_555 1_555
H13 C19 1_555 1_555
C22 C2 1_555 1_555
H16 C22 1_555 1_555
N7 C2 1_555 1_555
O9 Co3 1_555 1_555
O10 Co3 1_555 1_555
C8 C10 1_555 1_555
C19 C22 1_555 1_555
N7 N8 1_555 1_555
C25 N4 1_555 1_555
H19 C25 1_555 1_555
C31 C25 1_555 1_555
Co6 N4 1_555 1_555
Co6 O2 1_555 1_555
O2 C6 1_555 1_555
O6 C16 1_555 1_555
O7 C16 1_555 1_555
C1 H1 1_555 1_555
O8 Co6 1_555 1_555
N2 Co6 1_555 1_555
C3 C12 1_555 1_555
C4 H2 1_555 1_555
C5 C1 1_555 1_555
H3 C5 1_555 1_555
C6 O8 1_555 1_555
C12 H8 1_555 1_555
C13 C4 1_555 1_555
H9 C13 1_555 1_555
C16 C1 1_555 1_555
C21 N2 1_555 1_555
H15 C21 1_555 1_555
N5 C3 1_555 1_555
N6 N5 1_555 1_555
Co5 O7 1_555 1_555
Co7 O6 1_555 1_555
C4 C5 1_555 1_555
C6 C13 1_555 1_555
C12 C21 1_555 1_555
C32 N6 1_555 1_555
H11 C17 1_555 1_555
H12 C18 1_555 1_555
C17 C18 1_555 1_555
N3_2 C26_2 1_555 1_555
N4_2 C23 1_555 1_555
C23 H17 1_555 1_555
C24_2 H18_2 1_555 1_555
C25_2 N4_2 1_555 1_555
H19_2 C25_2 1_555 1_555
C26_2 C24_2 1_555 1_555
H20_2 C26_2 1_555 1_555
C27_2 N3_2 1_555 1_555
H21_2 C27_2 1_555 1_555
C28_2 C27_2 1_555 1_555
H22_2 C28_2 1_555 1_555
C29_2 C24_2 1_555 1_555
C30 C23 1_555 1_555
H23 C30 1_555 1_555
C31_2 C25_2 1_555 1_555
Co5 N3_2 1_555 1_555
Co7 N4_2 1_555 1_555
C28_2 C29_2 1_555 1_555
Co5 O1_2 1_555 1_555
Co7 O2_2 1_555 1_555
O1_2 C9_2 1_555 1_555
O2_2 C6_2 1_555 1_555
O9 C15_2 1_555 1_555
O4_2 Co7 1_555 1_555
O10 C15_2 1_555 1_555
O11 C16_2 1_555 1_555
O12 C16_2 1_555 1_555
N1_2 Co5 1_555 1_555
C1_2 H1_2 1_555 1_555
C2_2 C8_2 1_555 1_555
O8_2 Co7 1_555 1_555
N2_2 Co7 1_555 1_555
C3_2 C12_2 1_555 1_555
C4_2 H2_2 1_555 1_555
C5_2 C1_2 1_555 1_555
H3_2 C5_2 1_555 1_555
C6_2 O8_2 1_555 1_555
C7_2 H4_2 1_555 1_555
C8_2 H5_2 1_555 1_555
C9_2 O4_2 1_555 1_555
C10_2 N1_2 1_555 1_555
H6_2 C10_2 1_555 1_555
C11_2 C7_2 1_555 1_555
H7_2 C11_2 1_555 1_555
C12_2 H8_2 1_555 1_555
C13_2 C4_2 1_555 1_555
H9_2 C13_2 1_555 1_555
C14_2 C11_2 1_555 1_555
H10_2 C14_2 1_555 1_555
C15_2 C14_2 1_555 1_555
C16_2 C1_2 1_555 1_555
C17_2 C3_2 1_555 1_555
H11_2 C17_2 1_555 1_555
C18_2 N2_2 1_555 1_555
H12_2 C18_2 1_555 1_555
C19_2 N1_2 1_555 1_555
H13_2 C19_2 1_555 1_555
C20_2 C7_2 1_555 1_555
H14_2 C20_2 1_555 1_555
C21_2 N2_2 1_555 1_555
H15_2 C21_2 1_555 1_555
C22_2 C2_2 1_555 1_555
H16_2 C22_2 1_555 1_555
N5_2 C3_2 1_555 1_555
N6_2 N5_2 1_555 1_555
N7_2 C2_2 1_555 1_555
C4_2 C5_2 1_555 1_555
C6_2 C13_2 1_555 1_555
C8_2 C10_2 1_555 1_555
C9_2 C20_2 1_555 1_555
C12_2 C21_2 1_555 1_555
C17_2 C18_2 1_555 1_555
C19_2 C22_2 1_555 1_555
C32_2 N6_2 1_555 1_555
N7_2 N8_2 1_555 1_555
C23_2 H17_2 1_555 1_555
C30_2 C23_2 1_555 1_555
H23_2 C30_2 1_555 1_555
Co2 O2_3 1_555 1_555
O2_3 C6_3 1_555 1_555
O6_2 C16_3 1_555 1_555
O7_2 C16_3 1_555 1_555
C1_3 H1_3 1_555 1_555
O8_3 Co2 1_555 1_555
N2_3 Co2 1_555 1_555
C3_3 C12_3 1_555 1_555
C4_3 H2_3 1_555 1_555
C5_3 C1_3 1_555 1_555
H3_3 C5_3 1_555 1_555
C6_3 O8_3 1_555 1_555
C12_3 H8_3 1_555 1_555
C13_3 C4_3 1_555 1_555
H9_3 C13_3 1_555 1_555
C16_3 C1_3 1_555 1_555
C17_3 C3_3 1_555 1_555
H11_3 C17_3 1_555 1_555
C18_3 N2_3 1_555 1_555
H12_3 C18_3 1_555 1_555
C21_3 N2_3 1_555 1_555
H15_3 C21_3 1_555 1_555
N5_3 C3_3 1_555 1_555
N6_3 N5_3 1_555 1_555
Co4 O7_2 1_555 1_555
O11_2 Co2 1_555 1_555
N10 Co2 1_555 1_555
C4_3 C5_3 1_555 1_555
C6_3 C13_3 1_555 1_555
C12_3 C21_3 1_555 1_555
C17_3 C18_3 1_555 1_555
C32_3 N6_3 1_555 1_555
N10 C23_3 1_555 1_555
C23_3 H17_3 1_555 1_555
C25_3 N10 1_555 1_555
H19_3 C25_3 1_555 1_555
C30_3 C23_3 1_555 1_555
H23_3 C30_3 1_555 1_555
C31_3 C25_3 1_555 1_555
Co1 O1_3 1_555 1_555
O1_3 C9_3 1_555 1_555
O3_2 C15_3 1_555 1_555
O5_2 C15_3 1_555 1_555
N1_3 Co1 1_555 1_555
C2_3 C8_3 1_555 1_555
C7_3 H4_3 1_555 1_555
C8_3 H5_3 1_555 1_555
C9_3 O4_3 1_555 1_555
C10_3 N1_3 1_555 1_555
H6_3 C10_3 1_555 1_555
C11_3 C7_3 1_555 1_555
H7_3 C11_3 1_555 1_555
C14_3 C11_3 1_555 1_555
H10_3 C14_3 1_555 1_555
C15_3 C14_3 1_555 1_555
C19_3 N1_3 1_555 1_555
H13_3 C19_3 1_555 1_555
C20_3 C7_3 1_555 1_555
H14_3 C20_3 1_555 1_555
C22_3 C2_3 1_555 1_555
H16_3 C22_3 1_555 1_555
N7_3 C2_3 1_555 1_555
Co4 O3_2 1_555 1_555
O9_2 Co1 1_555 1_555
O10_2 Co1 1_555 1_555
N9 Co1 1_555 1_555
O5_2 Co4 1_555 1_555
C8_3 C10_3 1_555 1_555
C9_3 C20_3 1_555 1_555
C19_3 C22_3 1_555 1_555
N7_3 N8_3 1_555 1_555
N9 C26_3 1_555 1_555
C24_3 H18_3 1_555 1_555
C26_3 C24_3 1_555 1_555
H20_3 C26_3 1_555 1_555
C27_3 N9 1_555 1_555
H21_3 C27_3 1_555 1_555
C28_3 C27_3 1_555 1_555
H22_3 C28_3 1_555 1_555
C29_3 C24_3 1_555 1_555
C28_3 C29_3 1_555 1_555
Co7_2 O2_4 1_555 1_555
O2_4 C6_4 1_555 1_555
O9_2 C15_4 1_555 1_555
O4_4 Co7_2 1_555 1_555
O10_2 C15_4 1_555 1_555
O11_2 C16_4 1_555 1_555
O12_2 C16_4 1_555 1_555
C1_4 H1_4 1_555 1_555
O8_4 Co7_2 1_555 1_555
N2_4 Co7_2 1_555 1_555
C3_4 C12_4 1_555 1_555
C4_4 H2_4 1_555 1_555
C5_4 C1_4 1_555 1_555
H3_4 C5_4 1_555 1_555
C6_4 O8_4 1_555 1_555
C7_4 H4_4 1_555 1_555
C9_4 O4_4 1_555 1_555
C11_4 C7_4 1_555 1_555
H7_4 C11_4 1_555 1_555
C12_4 H8_4 1_555 1_555
C13_4 C4_4 1_555 1_555
H9_4 C13_4 1_555 1_555
C14_4 C11_4 1_555 1_555
H10_4 C14_4 1_555 1_555
C15_4 C14_4 1_555 1_555
C16_4 C1_4 1_555 1_555
C20_4 C7_4 1_555 1_555
H14_4 C20_4 1_555 1_555
C21_4 N2_4 1_555 1_555
H15_4 C21_4 1_555 1_555
N5_4 C3_4 1_555 1_555
N6_4 N5_4 1_555 1_555
N10_2 Co7_2 1_555 1_555
C4_4 C5_4 1_555 1_555
C6_4 C13_4 1_555 1_555
C9_4 C20_4 1_555 1_555
C12_4 C21_4 1_555 1_555
C32_4 N6_4 1_555 1_555
Co4 O1_4 1_555 1_555
N1_4 Co4 1_555 1_555
C2_4 C8_4 1_555 1_555
C8_4 H5_4 1_555 1_555
C10_4 N1_4 1_555 1_555
H6_4 C10_4 1_555 1_555
H11_4 C17_4 1_555 1_555
H12_4 C18_4 1_555 1_555
C19_4 N1_4 1_555 1_555
H13_4 C19_4 1_555 1_555
C22_4 C2_4 1_555 1_555
H16_4 C22_4 1_555 1_555
N7_4 C2_4 1_555 1_555
N9_2 Co4 1_555 1_555
C8_4 C10_4 1_555 1_555
C17_4 C18_4 1_555 1_555
C19_4 C22_4 1_555 1_555
N7_4 N8_4 1_555 1_555
C25_4 N10_2 1_555 1_555
H19_4 C25_4 1_555 1_555
C31_4 C25_4 1_555 1_555
N9_2 C26_4 1_555 1_555
C23_4 H17_4 1_555 1_555
C24_4 H18_4 1_555 1_555
C26_4 C24_4 1_555 1_555
H20_4 C26_4 1_555 1_555
C27_4 N9_2 1_555 1_555
H21_4 C27_4 1_555 1_555
C28_4 C27_4 1_555 1_555
H22_4 C28_4 1_555 1_555
C29_4 C24_4 1_555 1_555
C30_4 C23_4 1_555 1_555
H23_4 C30_4 1_555 1_555
C28_4 C29_4 1_555 1_555

#END
