
###############################################################################
#
# This file contains modified crystal structure data generated from the
# MOF subset of the Cambridge Structural Database (CSD) v543 
# hosted by the Cambridge Crystallographic Data Centre (CCDC).
#
# This work is licensed under the Creative Commons
# Attribution-NonCommercial-ShareAlike 4.0 International License.
# To view a copy of this license, visit
# http://creativecommons.org/licenses/by-nc-sa/4.0/
# or send a letter to
# Creative Commons, PO Box 1866, Mountain View, CA 94042, USA.
#
# CIF created using the CSD Python API on 29 September 2022
# The structure has been converted into the P1 space group
# The structure has a 3D framework
# The original CSD entry AZIVAI is in the tetragonal crystal system
# The original CSD entry AZIVAI is in a Sohncke space group
# The framework has been calculated to contain at least 10.0% void space
# The void calculation uses a probe of radius 1.32A, grid spacing 0.4
#
###############################################################################

data_AZIVAI
_chemical_formula_moiety         '(C96 H48 Cl6 Cu13 N20)n'
_symmetry_cell_setting           triclinic
_symmetry_space_group_name_H-M   'P 1'
_symmetry_Int_Tables_number      1
_space_group_name_Hall           'P 1'
loop_
_symmetry_equiv_pos_site_id
_symmetry_equiv_pos_as_xyz
1 x,y,z
_cell_length_a                   13.636(3)
_cell_length_b                   13.636(3)
_cell_length_c                   19.467(4)
_cell_angle_alpha                90
_cell_angle_beta                 90
_cell_angle_gamma                90
_cell_volume                     3619.7
loop_
_atom_site_label
_atom_site_type_symbol
_atom_site_fract_x
_atom_site_fract_y
_atom_site_fract_z
Cu3 Cu -0.0000 0.0000 0.0000
Cu3_2 Cu -0.0000 0.0000 1.0000
Cu3_3 Cu -0.0000 1.0000 0.0000
Cu3_4 Cu -0.0000 1.0000 1.0000
Cu3_5 Cu 1.0000 0.0000 0.0000
Cu3_6 Cu 1.0000 0.0000 1.0000
Cu1 Cu 0.5000 0.5000 0.0000
N1 N 0.4321(6) 0.4230(6) 0.0731(3)
N2 N 0.1045(6) 0.1045(6) 0.0000
N3 N 0.5000 0.5000 0.3960(5)
C1 C 0.4490(7) 0.4259(7) 0.1425(5)
C2 C 0.4004(8) 0.3441(7) 0.1755(5)
H1 H 0.4031 0.3270 0.2228
C3 C 0.3505(7) 0.2968(7) 0.1253(5)
H2 H 0.3096 0.2411 0.1313
C4 C 0.3700(7) 0.3455(6) 0.0619(5)
C5 C 0.3246(6) 0.3246(6) 0.0000
C6 C 0.2472(6) 0.2472(6) 0.0000
C7 C 0.1608(7) 0.2590(7) 0.0368(5)
H3 H 0.1495 0.3170 0.0626
C8 C 0.0931(7) 0.1869(7) 0.0352(5)
H4 H 0.0343 0.1956 0.0607
C9 C 0.5000 0.5000 0.1755(6)
C10 C 0.5000 0.5000 0.2521(6)
C11 C 0.5876(7) 0.5010(7) 0.2892(4)
H5 H 0.6488 0.5008 0.2659
C12 C 0.5846(6) 0.5023(7) 0.3597(4)
H6 H 0.6449 0.5049 0.3842
N4 N 0.5679(6) 0.5770(6) 0.0731(3)
N5 N 0.8955(6) 0.8955(6) 0.0000
C13 C 0.5510(7) 0.5741(7) 0.1425(5)
C14 C 0.5996(8) 0.6559(7) 0.1755(5)
H7 H 0.5969 0.6730 0.2228
C15 C 0.6495(7) 0.7032(7) 0.1253(5)
H8 H 0.6904 0.7589 0.1313
C16 C 0.6300(7) 0.6545(6) 0.0619(5)
C17 C 0.6754(6) 0.6754(6) 0.0000
C18 C 0.7528(6) 0.7528(6) 0.0000
C19 C 0.8392(7) 0.7410(7) 0.0368(5)
H9 H 0.8505 0.6830 0.0626
C20 C 0.9069(7) 0.8131(7) 0.0352(5)
H10 H 0.9657 0.8044 0.0607
C21 C 0.4124(7) 0.4990(7) 0.2892(4)
H11 H 0.3512 0.4992 0.2659
C22 C 0.4154(6) 0.4977(7) 0.3597(4)
H12 H 0.3551 0.4951 0.3842
Cu3_7 Cu 1.0000 1.0000 0.0000
Cu5 Cu 0.5000 0.5000 0.5000
N11 N 0.0000 0.0000 0.1040(5)
Cu1_2 Cu 0.5000 0.5000 1.0000
N2_2 N 0.1045(6) 0.1045(6) 1.0000
C5_2 C 0.3246(6) 0.3246(6) 1.0000
C6_2 C 0.2472(6) 0.2472(6) 1.0000
N5_2 N 0.8955(6) 0.8955(6) 1.0000
C17_2 C 0.6754(6) 0.6754(6) 1.0000
C18_2 C 0.7528(6) 0.7528(6) 1.0000
N6 N 0.4230(6) 0.4321(6) 0.9269(3)
N7 N 0.5000 0.5000 0.6040(5)
C23 C 0.4259(7) 0.4490(7) 0.8575(5)
C24 C 0.3441(7) 0.4004(8) 0.8245(5)
H13 H 0.3270 0.4031 0.7772
C25 C 0.2968(7) 0.3505(7) 0.8747(5)
H14 H 0.2411 0.3096 0.8687
C26 C 0.3455(6) 0.3700(7) 0.9381(5)
C27 C 0.2590(7) 0.1608(7) 0.9632(5)
H15 H 0.3170 0.1495 0.9374
C28 C 0.1869(7) 0.0931(7) 0.9648(5)
H16 H 0.1956 0.0343 0.9393
C29 C 0.5000 0.5000 0.8245(6)
C30 C 0.5000 0.5000 0.7479(6)
C31 C 0.5010(7) 0.5876(7) 0.7108(4)
H17 H 0.5008 0.6488 0.7341
C32 C 0.5023(7) 0.5846(6) 0.6403(4)
H18 H 0.5049 0.6449 0.6158
N8 N 0.5770(6) 0.5679(6) 0.9269(3)
C33 C 0.5741(7) 0.5510(7) 0.8575(5)
C34 C 0.6559(7) 0.5996(8) 0.8245(5)
H19 H 0.6730 0.5969 0.7772
C35 C 0.7032(7) 0.6495(7) 0.8747(5)
H20 H 0.7589 0.6904 0.8687
C36 C 0.6545(6) 0.6300(7) 0.9381(5)
C37 C 0.7410(7) 0.8392(7) 0.9632(5)
H21 H 0.6830 0.8505 0.9374
C38 C 0.8131(7) 0.9069(7) 0.9648(5)
H22 H 0.8044 0.9657 0.9393
C39 C 0.4990(7) 0.4124(7) 0.7108(4)
H23 H 0.4992 0.3512 0.7341
C40 C 0.4977(7) 0.4154(6) 0.6403(4)
H24 H 0.4951 0.3551 0.6158
Cu3_8 Cu 1.0000 1.0000 1.0000
N10 N 0.0000 0.0000 0.8960(5)
Cl1 Cl 0.14289(16) 0.85711(16) 0.0000
N11_2 N 0.0000 1.0000 0.1040(5)
Cl1_2 Cl 0.14289(16) 0.85711(16) 1.0000
N10_2 N 0.0000 1.0000 0.8960(5)
Cl2 Cl 0.85711(16) 0.14289(16) 0.0000
N11_3 N 1.0000 0.0000 0.1040(5)
Cl2_2 Cl 0.85711(16) 0.14289(16) 1.0000
N10_3 N 1.0000 0.0000 0.8960(5)
N11_4 N 1.0000 1.0000 0.1040(5)
N10_4 N 1.0000 1.0000 0.8960(5)
Cu1_3 Cu 0.0000 -0.0000 0.5000
C9_2 C 0.0000 -0.0000 0.6755(6)
C10_2 C 0.0000 -0.0000 0.7521(6)
C29_2 C 0.0000 -0.0000 0.3245(6)
C30_2 C 0.0000 -0.0000 0.2479(6)
Cu1_4 Cu 0.0000 1.0000 0.5000
Cl1_3 Cl 0.64289(16) 0.64289(16) 0.5000
N1_2 N 0.0770(6) 0.9321(6) 0.5731(3)
N2_3 N 0.3955(6) 0.6045(6) 0.5000
C1_2 C 0.0741(7) 0.9490(7) 0.6425(5)
C2_2 C 0.1559(7) 0.9004(8) 0.6755(5)
H1_2 H 0.1730 0.9031 0.7228
C3_2 C 0.2032(7) 0.8505(7) 0.6253(5)
H2_2 H 0.2589 0.8096 0.6313
C4_2 C 0.1545(6) 0.8700(7) 0.5619(5)
C5_3 C 0.1754(6) 0.8246(6) 0.5000
C6_3 C 0.2528(6) 0.7472(6) 0.5000
C7_2 C 0.2410(7) 0.6608(7) 0.5368(5)
H3_2 H 0.1830 0.6495 0.5626
C8_2 C 0.3131(7) 0.5931(7) 0.5352(5)
H4_2 H 0.3044 0.5343 0.5607
C9_3 C 0.0000 1.0000 0.6755(6)
C10_3 C 0.0000 1.0000 0.7521(6)
C21_2 C 0.0010(7) 0.9124(7) 0.7892(4)
H11_2 H 0.0008 0.8512 0.7659
C22_2 C 0.0023(7) 0.9154(6) 0.8597(4)
H12_2 H 0.0049 0.8551 0.8842
N6_2 N 0.0679(6) 0.9230(6) 0.4269(3)
C23_2 C 0.0510(7) 0.9259(7) 0.3575(5)
C24_2 C 0.0996(8) 0.8441(7) 0.3245(5)
H13_2 H 0.0969 0.8270 0.2772
C25_2 C 0.1495(7) 0.7968(7) 0.3747(5)
H14_2 H 0.1904 0.7411 0.3687
C26_2 C 0.1300(7) 0.8455(6) 0.4381(5)
C27_2 C 0.3392(7) 0.7590(7) 0.4632(5)
H15_2 H 0.3505 0.8170 0.4374
C28_2 C 0.4069(7) 0.6869(7) 0.4648(5)
H16_2 H 0.4657 0.6956 0.4393
C29_3 C 0.0000 1.0000 0.3245(6)
C30_3 C 0.0000 1.0000 0.2479(6)
C39_2 C 0.0876(7) 0.9990(7) 0.2108(4)
H23_2 H 0.1488 0.9992 0.2341
C40_2 C 0.0846(6) 0.9977(7) 0.1403(4)
H24_2 H 0.1449 0.9951 0.1158
Cl2_3 Cl 0.35711(16) 0.35711(16) 0.5000
N9 N 0.6045(6) 0.3955(6) 0.5000
Cu1_5 Cu 1.0000 -0.0000 0.5000
C9_4 C 1.0000 -0.0000 0.6755(6)
C10_4 C 1.0000 -0.0000 0.7521(6)
C11_2 C 0.9990(7) 0.0876(7) 0.7892(4)
H5_2 H 0.9992 0.1488 0.7659
C12_2 C 0.9977(7) 0.0846(6) 0.8597(4)
H6_2 H 0.9951 0.1449 0.8842
N4_2 N 0.9230(6) 0.0679(6) 0.5731(3)
C13_2 C 0.9259(7) 0.0510(7) 0.6425(5)
C14_2 C 0.8441(7) 0.0996(8) 0.6755(5)
H7_2 H 0.8270 0.0969 0.7228
C15_2 C 0.7968(7) 0.1495(7) 0.6253(5)
H8_2 H 0.7411 0.1904 0.6313
C16_2 C 0.8455(6) 0.1300(7) 0.5619(5)
C17_3 C 0.8246(6) 0.1754(6) 0.5000
C18_3 C 0.7472(6) 0.2528(6) 0.5000
C19_2 C 0.7590(7) 0.3392(7) 0.5368(5)
H9_2 H 0.8170 0.3505 0.5626
C20_2 C 0.6869(7) 0.4069(7) 0.5352(5)
H10_2 H 0.6956 0.4657 0.5607
C29_4 C 1.0000 -0.0000 0.3245(6)
C30_4 C 1.0000 -0.0000 0.2479(6)
C31_2 C 0.9124(7) 0.0010(7) 0.2108(4)
H17_2 H 0.8512 0.0008 0.2341
C32_2 C 0.9154(6) 0.0023(7) 0.1403(4)
H18_2 H 0.8551 0.0049 0.1158
N8_2 N 0.9321(6) 0.0770(6) 0.4269(3)
C33_2 C 0.9490(7) 0.0741(7) 0.3575(5)
C34_2 C 0.9004(8) 0.1559(7) 0.3245(5)
H19_2 H 0.9031 0.1730 0.2772
C35_2 C 0.8505(7) 0.2032(7) 0.3747(5)
H20_2 H 0.8096 0.2589 0.3687
C36_2 C 0.8700(7) 0.1545(6) 0.4381(5)
C37_2 C 0.6608(7) 0.2410(7) 0.4632(5)
H21_2 H 0.6495 0.1830 0.4374
C38_2 C 0.5931(7) 0.3131(7) 0.4648(5)
H22_2 H 0.5343 0.3044 0.4393
Cu1_6 Cu 1.0000 1.0000 0.5000
C9_5 C 1.0000 1.0000 0.6755(6)
C10_5 C 1.0000 1.0000 0.7521(6)
C29_5 C 1.0000 1.0000 0.3245(6)
C30_5 C 1.0000 1.0000 0.2479(6)
loop_
_geom_bond_atom_site_label_1
_geom_bond_atom_site_label_2
_geom_bond_site_symmetry_1
_geom_bond_site_symmetry_2
Cu1 N1 1_555 1_555
N1 C1 1_555 1_555
N2 Cu3 1_555 1_555
N3 C12 1_555 1_555
C1 C2 1_555 1_555
C2 H1 1_555 1_555
C3 C2 1_555 1_555
H2 C3 1_555 1_555
C4 N1 1_555 1_555
C5 C4 1_555 1_555
C6 C5 1_555 1_555
C7 C6 1_555 1_555
H3 C7 1_555 1_555
C8 N2 1_555 1_555
H4 C8 1_555 1_555
C9 C1 1_555 1_555
C10 C9 1_555 1_555
C11 C10 1_555 1_555
H5 C11 1_555 1_555
C12 C11 1_555 1_555
H6 C12 1_555 1_555
N4 Cu1 1_555 1_555
N5 C20 1_555 1_555
C13 C9 1_555 1_555
C14 C13 1_555 1_555
H7 C14 1_555 1_555
C15 C14 1_555 1_555
H8 C15 1_555 1_555
C16 N4 1_555 1_555
C17 C16 1_555 1_555
C18 C17 1_555 1_555
C19 C18 1_555 1_555
H9 C19 1_555 1_555
C20 C19 1_555 1_555
H10 C20 1_555 1_555
C21 C10 1_555 1_555
H11 C21 1_555 1_555
C22 N3 1_555 1_555
H12 C22 1_555 1_555
Cu3_7 N5 1_555 1_555
Cu5 N3 1_555 1_555
N11 Cu3 1_555 1_555
C3 C4 1_555 1_555
C7 C8 1_555 1_555
N4 C13 1_555 1_555
C15 C16 1_555 1_555
C21 C22 1_555 1_555
N2_2 Cu3_2 1_555 1_555
C6_2 C5_2 1_555 1_555
C18_2 C17_2 1_555 1_555
N6 Cu1_2 1_555 1_555
N7 C32 1_555 1_555
C23 N6 1_555 1_555
C24 C23 1_555 1_555
H13 C24 1_555 1_555
C25 C24 1_555 1_555
H14 C25 1_555 1_555
C26 C5_2 1_555 1_555
C27 C6_2 1_555 1_555
H15 C27 1_555 1_555
C28 N2_2 1_555 1_555
H16 C28 1_555 1_555
C29 C23 1_555 1_555
C30 C29 1_555 1_555
C31 C30 1_555 1_555
H17 C31 1_555 1_555
C32 C31 1_555 1_555
H18 C32 1_555 1_555
N8 Cu1_2 1_555 1_555
C33 C29 1_555 1_555
C34 C33 1_555 1_555
H19 C34 1_555 1_555
C35 C34 1_555 1_555
H20 C35 1_555 1_555
C36 C17_2 1_555 1_555
C37 C18_2 1_555 1_555
H21 C37 1_555 1_555
C38 N5_2 1_555 1_555
H22 C38 1_555 1_555
C39 C30 1_555 1_555
H23 C39 1_555 1_555
C40 N7 1_555 1_555
H24 C40 1_555 1_555
Cu3_8 N5_2 1_555 1_555
Cu5 N7 1_555 1_555
N10 Cu3_2 1_555 1_555
N6 C26 1_555 1_555
C25 C26 1_555 1_555
C27 C28 1_555 1_555
N8 C33 1_555 1_555
N8 C36 1_555 1_555
C35 C36 1_555 1_555
C37 C38 1_555 1_555
C39 C40 1_555 1_555
Cu3_3 Cl1 1_555 1_555
N11_2 Cu3_3 1_555 1_555
Cu3_4 Cl1_2 1_555 1_555
N10_2 Cu3_4 1_555 1_555
Cl2 Cu3_5 1_555 1_555
N11_3 Cu3_5 1_555 1_555
Cl2_2 Cu3_6 1_555 1_555
N10_3 Cu3_6 1_555 1_555
N11_4 Cu3_7 1_555 1_555
N10_4 Cu3_8 1_555 1_555
C10_2 C9_2 1_555 1_555
C30_2 C29_2 1_555 1_555
Cu1_4 N1_2 1_555 1_555
Cu5 Cl1_3 1_555 1_555
N1_2 C1_2 1_555 1_555
N2_3 Cu5 1_555 1_555
C1_2 C2_2 1_555 1_555
C2_2 H1_2 1_555 1_555
C3_2 C2_2 1_555 1_555
H2_2 C3_2 1_555 1_555
C4_2 N1_2 1_555 1_555
C5_3 C4_2 1_555 1_555
C6_3 C5_3 1_555 1_555
C7_2 C6_3 1_555 1_555
H3_2 C7_2 1_555 1_555
C8_2 N2_3 1_555 1_555
H4_2 C8_2 1_555 1_555
C9_3 C1_2 1_555 1_555
C10_3 C9_3 1_555 1_555
C21_2 C10_3 1_555 1_555
H11_2 C21_2 1_555 1_555
C22_2 N10_2 1_555 1_555
H12_2 C22_2 1_555 1_555
N6_2 Cu1_4 1_555 1_555
C23_2 N6_2 1_555 1_555
C24_2 C23_2 1_555 1_555
H13_2 C24_2 1_555 1_555
C25_2 C24_2 1_555 1_555
H14_2 C25_2 1_555 1_555
C26_2 C5_3 1_555 1_555
C27_2 C6_3 1_555 1_555
H15_2 C27_2 1_555 1_555
C28_2 N2_3 1_555 1_555
H16_2 C28_2 1_555 1_555
C29_3 C23_2 1_555 1_555
C30_3 C29_3 1_555 1_555
C39_2 C30_3 1_555 1_555
H23_2 C39_2 1_555 1_555
C40_2 N11_2 1_555 1_555
H24_2 C40_2 1_555 1_555
Cl2_3 Cu5 1_555 1_555
N9 Cu5 1_555 1_555
C3_2 C4_2 1_555 1_555
C7_2 C8_2 1_555 1_555
C21_2 C22_2 1_555 1_555
N6_2 C26_2 1_555 1_555
C25_2 C26_2 1_555 1_555
C27_2 C28_2 1_555 1_555
C39_2 C40_2 1_555 1_555
N10_3 C12_2 1_555 1_555
C10_4 C9_4 1_555 1_555
C11_2 C10_4 1_555 1_555
H5_2 C11_2 1_555 1_555
C12_2 C11_2 1_555 1_555
H6_2 C12_2 1_555 1_555
N4_2 Cu1_5 1_555 1_555
N9 C20_2 1_555 1_555
C13_2 C9_4 1_555 1_555
C14_2 C13_2 1_555 1_555
H7_2 C14_2 1_555 1_555
C15_2 C14_2 1_555 1_555
H8_2 C15_2 1_555 1_555
C16_2 N4_2 1_555 1_555
C17_3 C16_2 1_555 1_555
C18_3 C17_3 1_555 1_555
C19_2 C18_3 1_555 1_555
H9_2 C19_2 1_555 1_555
C20_2 C19_2 1_555 1_555
H10_2 C20_2 1_555 1_555
N11_3 C32_2 1_555 1_555
C30_4 C29_4 1_555 1_555
C31_2 C30_4 1_555 1_555
H17_2 C31_2 1_555 1_555
C32_2 C31_2 1_555 1_555
H18_2 C32_2 1_555 1_555
N8_2 Cu1_5 1_555 1_555
C33_2 C29_4 1_555 1_555
C34_2 C33_2 1_555 1_555
H19_2 C34_2 1_555 1_555
C35_2 C34_2 1_555 1_555
H20_2 C35_2 1_555 1_555
C36_2 C17_3 1_555 1_555
C37_2 C18_3 1_555 1_555
H21_2 C37_2 1_555 1_555
C38_2 N9 1_555 1_555
H22_2 C38_2 1_555 1_555
N4_2 C13_2 1_555 1_555
C15_2 C16_2 1_555 1_555
N8_2 C33_2 1_555 1_555
N8_2 C36_2 1_555 1_555
C35_2 C36_2 1_555 1_555
C37_2 C38_2 1_555 1_555
C10_5 C9_5 1_555 1_555
C30_5 C29_5 1_555 1_555

#END
