
###############################################################################
#
# This file contains modified crystal structure data generated from the
# MOF subset of the Cambridge Structural Database (CSD) v543 
# hosted by the Cambridge Crystallographic Data Centre (CCDC).
#
# This work is licensed under the Creative Commons
# Attribution-NonCommercial-ShareAlike 4.0 International License.
# To view a copy of this license, visit
# http://creativecommons.org/licenses/by-nc-sa/4.0/
# or send a letter to
# Creative Commons, PO Box 1866, Mountain View, CA 94042, USA.
#
# CIF created using the CSD Python API on 29 September 2022
# The structure has been converted into the P1 space group
# The structure has a 3D framework
# The original CSD entry AZIXUD is in the orthorhombic crystal system
# The original CSD entry AZIXUD is in a Sohncke space group
# The framework has been calculated to contain at least 10.0% void space
# The void calculation uses a probe of radius 1.32A, grid spacing 0.4
#
###############################################################################

data_AZIXUD
_chemical_formula_moiety         '(C92 H88 N8 O45 Zn7)n'
_symmetry_cell_setting           triclinic
_symmetry_space_group_name_H-M   'P 1'
_symmetry_Int_Tables_number      1
_space_group_name_Hall           'P 1'
loop_
_symmetry_equiv_pos_site_id
_symmetry_equiv_pos_as_xyz
1 x,y,z
_cell_length_a                   11.2562(6)
_cell_length_b                   13.1744(7)
_cell_length_c                   20.3965(12)
_cell_angle_alpha                90
_cell_angle_beta                 90
_cell_angle_gamma                90
_cell_volume                     3024.67
loop_
_atom_site_label
_atom_site_type_symbol
_atom_site_fract_x
_atom_site_fract_y
_atom_site_fract_z
Zn1 Zn 0.32282(3) 0.02153(3) 0.532246(16)
O11 O 0.5015(2) 0.0047(2) 0.52425(14)
O12 O 0.3428(2) 0.15866(19) 0.48368(12)
N1 N 0.6865(3) 0.0308(3) 0.48390(18)
N2 N 0.3226(3) 0.2560(2) 0.39360(14)
C18 C 0.5723(3) 0.0484(3) 0.4863(2)
H9 H 0.5409 0.0978 0.4571
C20 C 0.7647(4) 0.0820(5) 0.4373(3)
H13 H 0.7176 0.1271 0.4093
H14 H 0.8049 0.0313 0.4100
H15 H 0.8240 0.1219 0.4612
C21 C 0.2853(3) 0.1867(3) 0.43474(17)
H16 H 0.2103 0.1560 0.4268
C22 C 0.2583(4) 0.2772(3) 0.3324(2)
H17 H 0.3031 0.2496 0.2952
H18 H 0.2492 0.3507 0.3270
H19 H 0.1796 0.2453 0.3341
C23 C 0.4417(3) 0.2999(3) 0.3995(2)
H20 H 0.4678 0.2963 0.4453
H21 H 0.4399 0.3710 0.3853
H22 H 0.4972 0.2617 0.3718
O14 O 0.1626(2) 0.00790(16) 0.48964(10)
O16 O 0.14499(16) 0.06646(15) 0.67100(10)
O17 O 0.32214(19) 0.08120(16) 0.62123(9)
Zn2 Zn 0.11040(3) 0.92795(2) 0.640664(15)
O1 O 0.25310(18) 0.84177(15) 0.65422(10)
O2 O 0.3248(2) 0.86905(15) 0.55265(10)
O3 O 0.55588(18) 0.60034(16) 0.44912(10)
O4 O 0.6626(2) 0.49210(16) 0.51036(10)
O5 O 0.48922(18) 0.55461(15) 0.74102(10)
O6 O 0.51506(17) 0.38160(16) 0.71297(10)
O7 O 0.13001(19) 0.47767(17) 0.83474(11)
O8 O 0.00425(18) 0.35644(16) 0.80428(10)
C1 C 0.4858(3) 0.5963(2) 0.67844(14)
C2 C 0.4123(3) 0.6810(2) 0.67289(14)
H1 H 0.3707 0.7057 0.7101
C3 C 0.4002(3) 0.7295(2) 0.61255(14)
C4 C 0.4597(3) 0.6924(2) 0.55776(15)
H2 H 0.4517 0.7256 0.5167
C5 C 0.5308(3) 0.6065(2) 0.56331(15)
C6 C 0.5468(3) 0.5589(2) 0.62467(14)
H3 H 0.5986 0.5023 0.6290
C7 C 0.3202(3) 0.8206(2) 0.60605(14)
C8 C 0.5879(2) 0.5635(2) 0.50290(14)
C9 C 0.5557(3) 0.4640(2) 0.75127(14)
H4 H 0.6401 0.4772 0.7407
H5 H 0.5511 0.4452 0.7982
C10 C 0.4025(3) 0.3430(2) 0.72419(13)
C11 C 0.3158(3) 0.3889(2) 0.76253(14)
H6 H 0.3324 0.4504 0.7851
C12 C 0.2037(3) 0.3435(2) 0.76758(14)
C13 C 0.1795(3) 0.2524(2) 0.73604(13)
H7 H 0.1039 0.2212 0.7409
C14 C 0.2666(3) 0.2068(2) 0.69721(14)
C15 C 0.3786(3) 0.2523(2) 0.69091(14)
H8 H 0.4379 0.2218 0.6642
C16 C 0.1075(3) 0.3978(2) 0.80611(13)
C17 C 0.2425(2) 0.1110(2) 0.66028(13)
C19 C 0.7341(6) 0.9558(5) 0.5254(3)
H10 H 0.6697 0.9236 0.5502
H11 H 0.7906 0.9871 0.5558
H12 H 0.7750 0.9045 0.4990
Zn3 Zn 0.82282(3) 0.47847(3) 0.467754(16)
Zn5 Zn 0.61040(3) 0.57205(2) 0.359336(15)
O13 O 0.05588(18) 0.89966(16) 0.55088(10)
Zn7 Zn 0.38960(3) 0.07205(2) 0.140664(15)
O1_2 O 0.24690(18) 0.15823(15) 0.15422(10)
O2_2 O 0.1752(2) 0.13095(15) 0.05265(10)
O5_2 O 0.01078(18) 0.44539(15) 0.24102(10)
O7_2 O 0.36999(19) 0.52233(17) 0.33474(11)
O8_2 O 0.49575(18) 0.64356(16) 0.30428(10)
O9 O 0.35501(16) 0.93354(15) 0.17100(10)
O10 O 0.17786(19) 0.91880(16) 0.12123(9)
C1_2 C 0.0142(3) 0.4037(2) 0.17844(14)
C2_2 C 0.0877(3) 0.3190(2) 0.17289(14)
H1_2 H 0.1293 0.2943 0.2101
C3_2 C 0.0998(3) 0.2705(2) 0.11255(14)
C4_2 C 0.0403(3) 0.3076(2) 0.05776(15)
H2_2 H 0.0483 0.2744 0.0167
C7_2 C 0.1798(3) 0.1794(2) 0.10605(14)
C10_2 C 0.0975(3) 0.6570(2) 0.22419(13)
C11_2 C 0.1842(3) 0.6111(2) 0.26253(14)
H6_2 H 0.1676 0.5496 0.2851
C12_2 C 0.2963(3) 0.6565(2) 0.26758(14)
C13_2 C 0.3205(3) 0.7476(2) 0.23604(13)
H7_2 H 0.3961 0.7788 0.2409
C14_2 C 0.2334(3) 0.7932(2) 0.19721(14)
C15_2 C 0.1214(3) 0.7477(2) 0.19091(14)
H8_2 H 0.0621 0.7782 0.1642
C16_2 C 0.3925(3) 0.6022(2) 0.30611(13)
C17_2 C 0.2575(2) 0.8890(2) 0.16028(13)
Zn4 Zn 0.17718(3) 0.97847(3) 0.032246(16)
O13_2 O 0.44412(18) 0.10034(16) 0.05088(10)
O15 O 0.50425(18) 0.14356(16) 0.19572(10)
O4_2 O 0.8374(2) 0.50790(16) 0.01036(10)
O6_2 O 0.98494(17) 0.61840(16) 0.21297(10)
C5_2 C 0.9692(3) 0.3935(2) 0.06331(15)
C6_2 C 0.9532(3) 0.4411(2) 0.12467(14)
H3_2 H 0.9014 0.4977 0.1290
C8_2 C 0.9121(2) 0.4365(2) 0.00290(14)
C9_2 C 0.9443(3) 0.5360(2) 0.25127(14)
H4_2 H 0.8599 0.5228 0.2407
H5_2 H 0.9489 0.5548 0.2982
C19_2 C 0.7659(6) 0.0442(5) 0.0254(3)
H10_2 H 0.8303 0.0764 0.0502
H11_2 H 0.7094 0.0129 0.0558
O12_2 O 0.6572(2) 0.65866(19) 0.01632(12)
N1_2 N 0.3135(3) 0.5308(3) 0.01610(18)
N2_2 N 0.6774(3) 0.7560(2) 0.10640(14)
C18_2 C 0.4277(3) 0.5484(3) 0.0137(2)
H9_2 H 0.4591 0.5978 0.0429
H12_2 H 0.2250 0.4045 0.0010
C20_2 C 0.2353(4) 0.5820(5) 0.0627(3)
H13_2 H 0.2824 0.6271 0.0907
H14_2 H 0.1951 0.5313 0.0900
H15_2 H 0.1760 0.6219 0.0388
C21_2 C 0.7147(3) 0.6867(3) 0.06526(17)
H16_2 H 0.7897 0.6560 0.0732
C22_2 C 0.7417(4) 0.7772(3) 0.1676(2)
H17_2 H 0.6969 0.7496 0.2048
H18_2 H 0.7508 0.8507 0.1730
H19_2 H 0.8204 0.7453 0.1659
C23_2 C 0.5583(3) 0.7999(3) 0.1005(2)
H20_2 H 0.5322 0.7963 0.0547
H21_2 H 0.5601 0.8710 0.1147
H22_2 H 0.5028 0.7617 0.1282
O6_3 O 0.01506(17) 0.11840(16) 0.28703(10)
C9_3 C 0.0557(3) 0.0360(2) 0.24873(14)
H4_3 H 0.1401 0.0228 0.2593
H5_3 H 0.0511 0.0548 0.2018
O11_2 O 0.0015(2) 0.4953(2) 0.47575(14)
N1_3 N 0.1865(3) 0.4692(3) 0.51610(18)
C5_3 C 0.0308(3) 0.8935(2) 0.43669(15)
C6_3 C 0.0468(3) 0.9411(2) 0.37533(14)
H3_3 H 0.0986 0.9977 0.3710
C8_3 C 0.0879(2) 0.9365(2) 0.49710(14)
C18_3 C 0.0723(3) 0.4516(3) 0.5137(2)
H9_3 H 0.0409 0.4022 0.5429
C19_3 C 0.2341(6) 0.5442(5) 0.4746(3)
H10_3 H 0.1697 0.5764 0.4498
H11_3 H 0.2906 0.5129 0.4442
H12_3 H 0.2750 0.5955 0.5010
C20_3 C 0.2647(4) 0.4180(5) 0.5627(3)
H13_3 H 0.2176 0.3729 0.5907
H14_3 H 0.3049 0.4687 0.5900
H15_3 H 0.3240 0.3781 0.5388
O7_3 O 0.63001(19) 0.02233(17) 0.16526(11)
O9_2 O 0.64499(16) 0.43354(15) 0.32900(10)
O10_2 O 0.82214(19) 0.41880(16) 0.37877(9)
C10_3 C 0.9025(3) 0.1570(2) 0.27581(13)
C11_3 C 0.8158(3) 0.1111(2) 0.23747(14)
H6_3 H 0.8324 0.0496 0.2149
C12_3 C 0.7037(3) 0.1565(2) 0.23242(14)
C13_3 C 0.6795(3) 0.2476(2) 0.26396(13)
H7_3 H 0.6039 0.2788 0.2591
C14_3 C 0.7666(3) 0.2932(2) 0.30279(14)
C15_3 C 0.8786(3) 0.2477(2) 0.30909(14)
H8_3 H 0.9379 0.2782 0.3358
C16_3 C 0.6075(3) 0.1022(2) 0.19389(13)
C17_3 C 0.7425(2) 0.3890(2) 0.33972(13)
O1_3 O 0.75310(18) 0.65823(15) 0.34578(10)
O2_3 O 0.8248(2) 0.63095(15) 0.44735(10)
O5_3 O 0.98922(18) 0.94539(15) 0.25898(10)
O12_3 O 0.8428(2) 0.34134(19) 0.51632(12)
N2_3 N 0.8226(3) 0.2440(2) 0.60640(14)
C1_3 C 0.9858(3) 0.9037(2) 0.32156(14)
C2_3 C 0.9123(3) 0.8190(2) 0.32711(14)
H1_3 H 0.8707 0.7943 0.2899
C3_3 C 0.9002(3) 0.7705(2) 0.38745(14)
C4_3 C 0.9597(3) 0.8076(2) 0.44224(15)
H2_3 H 0.9517 0.7744 0.4833
C7_3 C 0.8202(3) 0.6794(2) 0.39395(14)
C21_3 C 0.7853(3) 0.3133(3) 0.56526(17)
H16_3 H 0.7103 0.3440 0.5732
C22_3 C 0.7583(4) 0.2228(3) 0.6676(2)
H17_3 H 0.8031 0.2504 0.7048
H18_3 H 0.7492 0.1493 0.6730
H19_3 H 0.6796 0.2547 0.6659
C23_3 C 0.9417(3) 0.2001(3) 0.6005(2)
H20_3 H 0.9678 0.2037 0.5547
H21_3 H 0.9399 0.1290 0.6147
H22_3 H 0.9972 0.2383 0.6282
Zn6 Zn 0.88960(3) 0.42795(2) 0.859336(15)
O15_2 O 0.99575(18) 0.85644(16) 0.69572(10)
O12_4 O 0.1572(2) 0.84134(19) 0.98368(12)
N2_4 N 0.1774(3) 0.7440(2) 0.89360(14)
C21_4 C 0.2147(3) 0.8133(3) 0.93474(17)
H16_4 H 0.2897 0.8440 0.9268
C22_4 C 0.2417(4) 0.7228(3) 0.8324(2)
H17_4 H 0.1969 0.7504 0.7952
H18_4 H 0.2508 0.6493 0.8270
H19_4 H 0.3204 0.7547 0.8341
C23_4 C 0.0583(3) 0.7001(3) 0.8995(2)
H20_4 H 0.0322 0.7037 0.9453
H21_4 H 0.0601 0.6290 0.8853
H22_4 H 0.0028 0.7383 0.8718
O14_2 O 0.3374(2) 0.99210(16) 0.98964(10)
O3_2 O 0.94412(18) 0.39966(16) 0.94912(10)
H12_4 H 0.7250 0.0955 0.9990
Zn3_2 Zn 0.67718(3) 0.52153(3) 0.967754(16)
O1_4 O 0.74690(18) 0.34177(15) 0.84578(10)
O2_4 O 0.6752(2) 0.36905(15) 0.94735(10)
O5_4 O 0.51078(18) 0.05461(15) 0.75898(10)
O11_3 O 0.4985(2) 0.5047(2) 0.97575(14)
C1_4 C 0.5142(3) 0.0963(2) 0.82156(14)
C2_4 C 0.5877(3) 0.1810(2) 0.82711(14)
H1_4 H 0.6293 0.2057 0.7899
C3_4 C 0.5998(3) 0.2295(2) 0.88745(14)
C4_4 C 0.5403(3) 0.1924(2) 0.94224(15)
H2_4 H 0.5483 0.2256 0.9833
C5_4 C 0.4692(3) 0.1065(2) 0.93669(15)
C6_4 C 0.4532(3) 0.0589(2) 0.87533(14)
H3_4 H 0.4014 0.0023 0.8710
C7_4 C 0.6798(3) 0.3206(2) 0.89395(14)
C8_4 C 0.4121(2) 0.0635(2) 0.99710(14)
C19_4 C 0.2659(6) 0.4558(5) 0.9746(3)
H10_4 H 0.3303 0.4236 0.9498
H11_4 H 0.2094 0.4871 0.9442
O16_2 O 0.85501(16) 0.56646(15) 0.82900(10)
O17_2 O 0.67786(19) 0.58120(16) 0.87877(9)
O6_4 O 0.48494(17) 0.88160(16) 0.78703(10)
O7_4 O 0.86999(19) 0.97767(17) 0.66526(11)
C9_4 C 0.4443(3) 0.9640(2) 0.74873(14)
H4_4 H 0.3599 0.9772 0.7593
H5_4 H 0.4489 0.9452 0.7018
C10_4 C 0.5975(3) 0.8430(2) 0.77581(13)
C11_4 C 0.6842(3) 0.8889(2) 0.73747(14)
H6_4 H 0.6676 0.9504 0.7149
C12_4 C 0.7963(3) 0.8435(2) 0.73242(14)
C13_4 C 0.8205(3) 0.7524(2) 0.76396(13)
H7_4 H 0.8961 0.7212 0.7591
C14_4 C 0.7334(3) 0.7068(2) 0.80279(14)
C15_4 C 0.6214(3) 0.7523(2) 0.80909(14)
H8_4 H 0.5621 0.7218 0.8358
C16_4 C 0.8925(3) 0.8978(2) 0.69389(13)
C17_4 C 0.7575(2) 0.6110(2) 0.83972(13)
O11_4 O 0.9985(2) 0.9953(2) 0.02425(14)
N1_4 N 0.8135(3) 0.9692(3) 0.98390(18)
C18_4 C 0.9277(3) 0.9516(3) 0.9863(2)
H9_4 H 0.9591 0.9022 0.9571
C20_4 C 0.7353(4) 0.9180(5) 0.9373(3)
H13_4 H 0.7824 0.8729 0.9093
H14_4 H 0.6951 0.9687 0.9100
H15_4 H 0.6760 0.8781 0.9612
loop_
_geom_bond_atom_site_label_1
_geom_bond_atom_site_label_2
_geom_bond_site_symmetry_1
_geom_bond_site_symmetry_2
O11 Zn1 1_555 1_555
O12 Zn1 1_555 1_555
N1 C18 1_555 1_555
N2 C21 1_555 1_555
C18 O11 1_555 1_555
H9 C18 1_555 1_555
C20 N1 1_555 1_555
H13 C20 1_555 1_555
H14 C20 1_555 1_555
H15 C20 1_555 1_555
C21 O12 1_555 1_555
H16 C21 1_555 1_555
C22 N2 1_555 1_555
H17 C22 1_555 1_555
H18 C22 1_555 1_555
H19 C22 1_555 1_555
C23 N2 1_555 1_555
H20 C23 1_555 1_555
H21 C23 1_555 1_555
H22 C23 1_555 1_555
O14 Zn1 1_555 1_555
O17 Zn1 1_555 1_555
Zn2 O1 1_555 1_555
O1 C7 1_555 1_555
O2 C7 1_555 1_555
O3 C8 1_555 1_555
O4 C8 1_555 1_555
O5 C1 1_555 1_555
O6 C9 1_555 1_555
O7 C16 1_555 1_555
O8 C16 1_555 1_555
O16 C17 1_555 1_555
O17 C17 1_555 1_555
C1 C2 1_555 1_555
C2 H1 1_555 1_555
C3 C2 1_555 1_555
C4 C3 1_555 1_555
H2 C4 1_555 1_555
C5 C4 1_555 1_555
C6 C1 1_555 1_555
H3 C6 1_555 1_555
C7 C3 1_555 1_555
C8 C5 1_555 1_555
C9 O5 1_555 1_555
H4 C9 1_555 1_555
H5 C9 1_555 1_555
C10 O6 1_555 1_555
C11 C10 1_555 1_555
H6 C11 1_555 1_555
C12 C11 1_555 1_555
C13 C12 1_555 1_555
H7 C13 1_555 1_555
C14 C13 1_555 1_555
C15 C10 1_555 1_555
H8 C15 1_555 1_555
C16 C12 1_555 1_555
C17 C14 1_555 1_555
H10 C19 1_555 1_555
H11 C19 1_555 1_555
H12 C19 1_555 1_555
Zn3 O4 1_555 1_555
Zn5 O3 1_555 1_555
O13 Zn2 1_555 1_555
C5 C6 1_555 1_555
C14 C15 1_555 1_555
Zn7 O1_2 1_555 1_555
O1_2 C7_2 1_555 1_555
O2_2 C7_2 1_555 1_555
O5_2 C1_2 1_555 1_555
O7_2 C16_2 1_555 1_555
O8_2 C16_2 1_555 1_555
O9 C17_2 1_555 1_555
O10 C17_2 1_555 1_555
C1_2 C2_2 1_555 1_555
C2_2 H1_2 1_555 1_555
C3_2 C2_2 1_555 1_555
C4_2 C3_2 1_555 1_555
H2_2 C4_2 1_555 1_555
C7_2 C3_2 1_555 1_555
C11_2 C10_2 1_555 1_555
H6_2 C11_2 1_555 1_555
C12_2 C11_2 1_555 1_555
C13_2 C12_2 1_555 1_555
H7_2 C13_2 1_555 1_555
C14_2 C13_2 1_555 1_555
C15_2 C10_2 1_555 1_555
H8_2 C15_2 1_555 1_555
C16_2 C12_2 1_555 1_555
C17_2 C14_2 1_555 1_555
Zn4 O10 1_555 1_555
Zn5 O8_2 1_555 1_555
O13_2 Zn7 1_555 1_555
O15 Zn7 1_555 1_555
C14_2 C15_2 1_555 1_555
O4_2 C8_2 1_555 1_555
O6_2 C9_2 1_555 1_555
H3_2 C6_2 1_555 1_555
C8_2 C5_2 1_555 1_555
H4_2 C9_2 1_555 1_555
H5_2 C9_2 1_555 1_555
H10_2 C19_2 1_555 1_555
H11_2 C19_2 1_555 1_555
C5_2 C6_2 1_555 1_555
N1_2 C18_2 1_555 1_555
N2_2 C21_2 1_555 1_555
H9_2 C18_2 1_555 1_555
C20_2 N1_2 1_555 1_555
H13_2 C20_2 1_555 1_555
H14_2 C20_2 1_555 1_555
H15_2 C20_2 1_555 1_555
C21_2 O12_2 1_555 1_555
H16_2 C21_2 1_555 1_555
C22_2 N2_2 1_555 1_555
H17_2 C22_2 1_555 1_555
H18_2 C22_2 1_555 1_555
H19_2 C22_2 1_555 1_555
C23_2 N2_2 1_555 1_555
H20_2 C23_2 1_555 1_555
H21_2 C23_2 1_555 1_555
H22_2 C23_2 1_555 1_555
O6_3 C9_3 1_555 1_555
H4_3 C9_3 1_555 1_555
H5_3 C9_3 1_555 1_555
O13 C8_3 1_555 1_555
N1_3 C18_3 1_555 1_555
H3_3 C6_3 1_555 1_555
C8_3 C5_3 1_555 1_555
C18_3 O11_2 1_555 1_555
H9_3 C18_3 1_555 1_555
C19_3 N1_3 1_555 1_555
H10_3 C19_3 1_555 1_555
H11_3 C19_3 1_555 1_555
H12_3 C19_3 1_555 1_555
C20_3 N1_3 1_555 1_555
H13_3 C20_3 1_555 1_555
H14_3 C20_3 1_555 1_555
H15_3 C20_3 1_555 1_555
C5_3 C6_3 1_555 1_555
O7_3 C16_3 1_555 1_555
O15 C16_3 1_555 1_555
O9_2 C17_3 1_555 1_555
O10_2 C17_3 1_555 1_555
C11_3 C10_3 1_555 1_555
H6_3 C11_3 1_555 1_555
C12_3 C11_3 1_555 1_555
C13_3 C12_3 1_555 1_555
H7_3 C13_3 1_555 1_555
C14_3 C13_3 1_555 1_555
C15_3 C10_3 1_555 1_555
H8_3 C15_3 1_555 1_555
C16_3 C12_3 1_555 1_555
C17_3 C14_3 1_555 1_555
Zn3 O10_2 1_555 1_555
Zn5 O9_2 1_555 1_555
C14_3 C15_3 1_555 1_555
Zn3 O2_3 1_555 1_555
Zn5 O1_3 1_555 1_555
O1_3 C7_3 1_555 1_555
O2_3 C7_3 1_555 1_555
O5_3 C1_3 1_555 1_555
O12_3 Zn3 1_555 1_555
N2_3 C21_3 1_555 1_555
C1_3 C2_3 1_555 1_555
C2_3 H1_3 1_555 1_555
C3_3 C2_3 1_555 1_555
C4_3 C3_3 1_555 1_555
H2_3 C4_3 1_555 1_555
C7_3 C3_3 1_555 1_555
C21_3 O12_3 1_555 1_555
H16_3 C21_3 1_555 1_555
C22_3 N2_3 1_555 1_555
H17_3 C22_3 1_555 1_555
H18_3 C22_3 1_555 1_555
H19_3 C22_3 1_555 1_555
C23_3 N2_3 1_555 1_555
H20_3 C23_3 1_555 1_555
H21_3 C23_3 1_555 1_555
H22_3 C23_3 1_555 1_555
N2_4 C21_4 1_555 1_555
C21_4 O12_4 1_555 1_555
H16_4 C21_4 1_555 1_555
C22_4 N2_4 1_555 1_555
H17_4 C22_4 1_555 1_555
H18_4 C22_4 1_555 1_555
H19_4 C22_4 1_555 1_555
C23_4 N2_4 1_555 1_555
H20_4 C23_4 1_555 1_555
H21_4 C23_4 1_555 1_555
H22_4 C23_4 1_555 1_555
Zn6 O3_2 1_555 1_555
Zn3_2 O2_4 1_555 1_555
Zn6 O1_4 1_555 1_555
O1_4 C7_4 1_555 1_555
O2_4 C7_4 1_555 1_555
O5_4 C1_4 1_555 1_555
O11_3 Zn3_2 1_555 1_555
C1_4 C2_4 1_555 1_555
C2_4 H1_4 1_555 1_555
C3_4 C2_4 1_555 1_555
C4_4 C3_4 1_555 1_555
H2_4 C4_4 1_555 1_555
C5_4 C4_4 1_555 1_555
C6_4 C1_4 1_555 1_555
H3_4 C6_4 1_555 1_555
C7_4 C3_4 1_555 1_555
C8_4 C5_4 1_555 1_555
H10_4 C19_4 1_555 1_555
H11_4 C19_4 1_555 1_555
O16_2 Zn6 1_555 1_555
O17_2 Zn3_2 1_555 1_555
C5_4 C6_4 1_555 1_555
O6_4 C9_4 1_555 1_555
O7_4 C16_4 1_555 1_555
O15_2 C16_4 1_555 1_555
O16_2 C17_4 1_555 1_555
O17_2 C17_4 1_555 1_555
H4_4 C9_4 1_555 1_555
H5_4 C9_4 1_555 1_555
C10_4 O6_4 1_555 1_555
C11_4 C10_4 1_555 1_555
H6_4 C11_4 1_555 1_555
C12_4 C11_4 1_555 1_555
C13_4 C12_4 1_555 1_555
H7_4 C13_4 1_555 1_555
C14_4 C13_4 1_555 1_555
C15_4 C10_4 1_555 1_555
H8_4 C15_4 1_555 1_555
C16_4 C12_4 1_555 1_555
C17_4 C14_4 1_555 1_555
C14_4 C15_4 1_555 1_555
N1_4 C18_4 1_555 1_555
H9_4 C18_4 1_555 1_555
C20_4 N1_4 1_555 1_555
H13_4 C20_4 1_555 1_555
H14_4 C20_4 1_555 1_555
H15_4 C20_4 1_555 1_555

#END
