
###############################################################################
#
# This file contains modified crystal structure data generated from the
# MOF subset of the Cambridge Structural Database (CSD) v543 
# hosted by the Cambridge Crystallographic Data Centre (CCDC).
#
# This work is licensed under the Creative Commons
# Attribution-NonCommercial-ShareAlike 4.0 International License.
# To view a copy of this license, visit
# http://creativecommons.org/licenses/by-nc-sa/4.0/
# or send a letter to
# Creative Commons, PO Box 1866, Mountain View, CA 94042, USA.
#
# CIF created using the CSD Python API on 29 September 2022
# The structure has been converted into the P1 space group
# The structure has a 3D framework
# The original CSD entry AZOXUL is in the orthorhombic crystal system
# The framework has been calculated to contain at least 10.0% void space
# The void calculation uses a probe of radius 1.32A, grid spacing 0.4
# The framework is charged, counterions have been retained in the structure
# H atom positions have been added when not included in the experimental data
# Generated hydrogen atom positions removed from atoms on special positions
#
###############################################################################

data_AZOXUL
_chemical_formula_moiety         '(C280 H180 Eu14 N12 O134 16-)n'
_symmetry_cell_setting           triclinic
_symmetry_space_group_name_H-M   'P 1'
_symmetry_Int_Tables_number      1
_space_group_name_Hall           'P 1'
loop_
_symmetry_equiv_pos_site_id
_symmetry_equiv_pos_as_xyz
1 x,y,z
_cell_length_a                   32.6303(18)
_cell_length_b                   18.587(3)
_cell_length_c                   16.648(5)
_cell_angle_alpha                90
_cell_angle_beta                 90
_cell_angle_gamma                90
_cell_volume                     10097
loop_
_atom_site_label
_atom_site_type_symbol
_atom_site_fract_x
_atom_site_fract_y
_atom_site_fract_z
Eu2 Eu 0.02535(2) 0.57196(3) 0.62245(3)
O16 O 0.0407(3) 0.6896(4) 0.6466(5)
C40 C 0.0431(6) 0.750000 0.6093(12)
O33 O 0.0407(3) 0.8104(4) 0.6466(5)
Eu17 Eu 0.02535(2) 0.92804(3) 0.62245(3)
O36 O 0.0356(2) 0.5050(5) 0.7428(5)
O40 O 0.0674(2) 0.4680(4) 0.5743(5)
O42 O 0.09872(19) 0.5632(4) 0.6264(4)
O48 O 0.0413(2) 0.5952(4) 0.4896(4)
H32 H 0.0472758 0.75 0.544401
Eu1 Eu 0.67589(2) 0.38379(3) 0.40422(3)
O4 O 0.3816(3) 0.0430(6) 0.4510(6)
O5 O 0.6212(2) 0.3091(4) 0.4204(4)
O10 O 0.7003(2) 0.3097(4) 0.3047(4)
O11 O 0.9587(2) 0.4048(4) 0.5104(4)
O12 O 0.9776(2) 0.4877(4) 0.5995(5)
O13 O 0.86864(19) 0.5917(4) 0.7856(4)
O14 O 0.8149(2) 0.5222(4) 0.8085(4)
O15 O 0.7016(2) 0.3098(4) 0.5040(4)
O17 O 0.9643(3) 0.6327(6) 0.5670(6)
N1 N 0.4495(4) 0.250000 0.5961(9)
N2 N 0.8778(4) 0.250000 0.6674(9)
C1 C 0.4854(3) 0.0089(6) 0.6520(6)
C3 C 0.4319(3) 0.0280(6) 0.5531(7)
C4 C 0.4514(3) 0.0917(6) 0.5270(7)
H2 H 0.440147 0.118457 0.485238
C5 C 0.4877(3) 0.1146(6) 0.5640(7)
C6 C 0.5048(3) 0.0710(6) 0.6261(6)
H3 H 0.529483 0.084550 0.649647
C8 C 0.3921(4) 0.0056(8) 0.5100(8)
C9 C 0.5081(3) 0.1837(5) 0.5408(6)
C10 C 0.4886(4) 0.250000 0.5585(9)
C11 C 0.5463(3) 0.1854(5) 0.5051(6)
H4 H 0.559512 0.142221 0.493763
C12 C 0.5657(4) 0.250000 0.4857(9)
C13 C 0.6064(4) 0.250000 0.4409(8)
H6 H 0.741878 0.085388 0.019671
C18 C 0.6829(3) 0.1151(5) 0.0091(6)
C22 C 0.6860(3) 0.1845(5) 0.0519(6)
C23 C 0.6823(4) 0.250000 0.0120(8)
C24 C 0.6930(3) 0.1855(6) 0.1354(6)
C25 C 0.6956(4) 0.250000 0.1786(8)
C26 C 0.6989(4) 0.250000 0.2686(9)
C27 C 0.9095(3) 0.4442(6) 0.6064(6)
C28 C 0.8975(3) 0.4924(5) 0.6645(5)
H8 H 0.915741 0.528132 0.680282
C29 C 0.8582(3) 0.4898(6) 0.7013(6)
C30 C 0.8324(3) 0.4325(5) 0.6782(6)
H9 H 0.806858 0.428069 0.702346
C31 C 0.8440(3) 0.3827(6) 0.6209(6)
C32 C 0.8817(3) 0.3906(6) 0.5853(6)
H10 H 0.889070 0.358466 0.544950
C33 C 0.9517(3) 0.4465(7) 0.5696(6)
C34 C 0.8471(3) 0.5377(6) 0.7691(6)
C35 C 0.8198(3) 0.3172(5) 0.6065(5)
C36 C 0.8389(4) 0.250000 0.6272(9)
C37 C 0.7804(3) 0.3148(6) 0.5730(6)
H11 H 0.767661 0.358089 0.560397
C38 C 0.7588(4) 0.250000 0.5571(8)
C39 C 0.7175(4) 0.250000 0.5209(9)
O18 O 0.4852(2) 0.5860(4) 0.7514(4)
O19 O 0.5356(2) 0.5050(5) 0.7572(5)
O20 O 0.3727(2) 0.5456(4) 0.5355(4)
O21 O 0.3816(3) 0.4570(6) 0.4510(6)
O22 O 0.6212(2) 0.1909(4) 0.4204(4)
C41 C 0.4854(3) 0.4911(6) 0.6520(6)
C42 C 0.4482(3) 0.5122(6) 0.6141(6)
H12 H 0.434905 0.553776 0.630994
C43 C 0.4319(3) 0.4720(6) 0.5531(7)
C44 C 0.4514(3) 0.4083(6) 0.5270(7)
H13 H 0.440147 0.381543 0.485238
C45 C 0.4877(3) 0.3854(6) 0.5640(7)
C46 C 0.5048(3) 0.4290(6) 0.6261(6)
H14 H 0.529483 0.415450 0.649647
C47 C 0.5030(3) 0.5307(6) 0.7225(7)
C48 C 0.3921(4) 0.4944(8) 0.5100(8)
C49 C 0.5081(3) 0.3163(5) 0.5408(6)
C50 C 0.5463(3) 0.3146(5) 0.5051(6)
H15 H 0.559512 0.357779 0.493763
O27 O 0.7003(2) 0.1903(4) 0.3047(4)
H17 H 0.741878 0.414612 0.019671
C55 C 0.6829(3) 0.3849(5) 0.0091(6)
C59 C 0.6860(3) 0.3155(5) 0.0519(6)
C60 C 0.6930(3) 0.3145(6) 0.1354(6)
O28 O 0.9587(2) 0.0952(4) 0.5104(4)
O29 O 0.9776(2) 0.0123(4) 0.5995(5)
O32 O 0.7016(2) 0.1902(4) 0.5040(4)
C61 C 0.9095(3) 0.0558(6) 0.6064(6)
C62 C 0.8975(3) 0.0076(5) 0.6645(5)
C63 C 0.8582(3) 0.0102(6) 0.7013(6)
C64 C 0.8324(3) 0.0675(5) 0.6782(6)
H20 H 0.806858 0.071931 0.702346
C65 C 0.8440(3) 0.1173(6) 0.6209(6)
C66 C 0.8817(3) 0.1094(6) 0.5853(6)
H21 H 0.889070 0.141534 0.544950
C67 C 0.9517(3) 0.0535(7) 0.5696(6)
C69 C 0.8198(3) 0.1828(5) 0.6065(5)
C70 C 0.7804(3) 0.1852(6) 0.5730(6)
H22 H 0.767661 0.141911 0.560397
Eu3 Eu 0.32411(2) 0.61621(3) 0.59578(3)
Eu6 Eu 0.82411(2) 0.61621(3) 0.90422(3)
Eu8 Eu 0.67589(2) 0.11621(3) 0.40422(3)
Eu11 Eu 0.97465(2) 0.07196(3) 0.37755(3)
Eu13 Eu 0.97465(2) 0.42804(3) 0.37755(3)
Eu15 Eu 0.52535(2) 0.57196(3) 0.87755(3)
O35 O 0.9852(2) 0.5860(4) 0.7486(4)
O37 O 0.6273(2) 0.4544(4) 0.4645(4)
O38 O 0.3788(2) 0.6909(4) 0.5796(4)
O39 O 0.5674(2) 0.0320(4) 0.9257(5)
O43 O 0.24889(19) 0.5942(4) 0.6029(4)
O44 O 0.75111(19) 0.4058(4) 0.3971(4)
O45 O 0.2839(2) 0.5275(4) 0.5183(4)
O46 O 0.7161(2) 0.4725(4) 0.4817(4)
O47 O 0.2997(2) 0.6903(4) 0.6953(4)
O50 O 0.4776(2) 0.0123(4) 0.9005(5)
O51 O 0.63136(19) 0.4083(4) 0.2856(4)
O52 O 0.36864(19) 0.5917(4) 0.7144(4)
O53 O 0.6851(2) 0.4778(4) 0.3085(4)
O54 O 0.3149(2) 0.5222(4) 0.6915(4)
O55 O 0.2984(2) 0.6902(4) 0.4960(4)
H25 H 0.435386 0.297288 0.608923
H26 H 0.435688 0.202712 0.610132
H29 H 0.891415 0.202711 0.682147
H30 H 0.8917 0.297289 0.681088
H31 H 0.696487 0.134692 0.16725
H33 H 0.696487 0.365308 0.16725
N3 N 0.6759(4) 0.250000 0.9270(8)
C14 C 0.6406(3) 0.0244(5) 0.9377(6)
C16 C 0.7143(3) 0.0063(6) 0.9573(6)
C17 C 0.7168(3) 0.0711(6) 0.9985(6)
C19 C 0.6444(3) 0.0912(6) 0.9786(6)
H7 H 0.621299 0.119859 0.985566
O23 O 0.5674(2) 0.4680(4) 0.9257(5)
O24 O 0.59872(19) 0.5632(4) 0.8736(4)
O25 O 0.74889(19) 0.5942(4) 0.8971(4)
O26 O 0.7839(2) 0.5275(4) 0.9817(4)
C51 C 0.6406(3) 0.4756(5) 0.9377(6)
C52 C 0.6766(3) 0.5167(5) 0.9260(6)
H16 H 0.675251 0.559511 0.897107
C53 C 0.7143(3) 0.4937(6) 0.9573(6)
C54 C 0.7168(3) 0.4289(6) 0.9985(6)
C56 C 0.6444(3) 0.4088(6) 0.9786(6)
H18 H 0.621299 0.380141 0.985566
C57 C 0.6005(3) 0.5036(6) 0.9088(6)
C58 C 0.7508(3) 0.5422(6) 0.9441(6)
H27 H 0.673138 0.297284 0.896985
H28 H 0.674121 0.202716 0.8967
O49 O 0.5413(2) 0.9048(4) 0.0104(4)
O1 O 0.4852(2) 0.9140(4) 0.7514(4)
O2 O 0.5356(2) 0.9950(5) 0.7572(5)
O3 O 0.3727(2) 0.9544(4) 0.5355(4)
C2 C 0.4482(3) 0.9878(6) 0.6141(6)
H1 H 0.434905 0.946224 0.630994
C7 C 0.5030(3) 0.9693(6) 0.7225(7)
O30 O 0.86864(19) 0.9083(4) 0.7856(4)
O31 O 0.8149(2) 0.9778(4) 0.8085(4)
H19 H 0.915741 0.971868 0.680282
C68 C 0.8471(3) 0.9623(6) 0.7691(6)
Eu4 Eu 0.52535(2) 0.92804(3) 0.87755(3)
O34 O 0.4643(3) 0.8673(6) 0.9330(6)
Eu7 Eu 0.32411(2) 0.88379(3) 0.59578(3)
Eu10 Eu 0.82411(2) 0.88379(3) 0.90422(3)
O41 O 0.59872(19) 0.9368(4) 0.8736(4)
O56 O 0.5407(3) 0.8104(4) 0.8534(5)
O8 O 0.74889(19) 0.9058(4) 0.8971(4)
O9 O 0.7839(2) 0.9725(4) 0.9817(4)
C15 C 0.6766(3) 0.9833(5) 0.9260(6)
H5 H 0.675251 0.940489 0.897107
C20 C 0.6005(3) 0.9964(6) 0.9088(6)
C21 C 0.7508(3) 0.9578(6) 0.9441(6)
O1_2 O 0.0148(2) 0.0860(4) 0.2514(4)
O3_2 O 0.1273(2) 0.0456(4) 0.0355(4)
C2_2 C 0.0518(3) 0.0122(6) 0.1141(6)
H1_2 H 0.065095 0.053776 0.130994
O34_2 O 0.0357(3) 0.1327(6) 0.4330(6)
Eu7_2 Eu 0.17589(2) 0.11621(3) 0.09578(3)
N1_2 N 0.0505(4) 0.750000 0.0961(9)
C1_2 C 0.0146(3) 0.9911(6) 0.1520(6)
C3_2 C 0.0681(3) 0.9720(6) 0.0531(7)
C4_2 C 0.0486(3) 0.9083(6) 0.0270(7)
C5_2 C 0.0123(3) 0.8854(6) 0.0640(7)
C8_2 C 0.1079(4) 0.9944(8) 0.0100(8)
C10_2 C 0.0114(4) 0.750000 0.0585(9)
O18_2 O 0.0148(2) 0.4140(4) 0.2514(4)
O20_2 O 0.1273(2) 0.4544(4) 0.0355(4)
C41_2 C 0.0146(3) 0.5089(6) 0.1520(6)
C42_2 C 0.0518(3) 0.4878(6) 0.1141(6)
H12_2 H 0.065095 0.446224 0.130994
C43_2 C 0.0681(3) 0.5280(6) 0.0531(7)
C44_2 C 0.0486(3) 0.5917(6) 0.0270(7)
C45_2 C 0.0123(3) 0.6146(6) 0.0640(7)
C48_2 C 0.1079(4) 0.5056(8) 0.0100(8)
Eu3_2 Eu 0.17589(2) 0.38379(3) 0.09578(3)
O38_2 O 0.1212(2) 0.3091(4) 0.0796(4)
O43_2 O 0.25111(19) 0.4058(4) 0.1029(4)
O45_2 O 0.2161(2) 0.4725(4) 0.0183(4)
O47_2 O 0.2003(2) 0.3097(4) 0.1953(4)
O50_2 O 0.0224(2) 0.9877(4) 0.4005(5)
O52_2 O 0.13136(19) 0.4083(4) 0.2144(4)
O54_2 O 0.1851(2) 0.4778(4) 0.1915(4)
H25_2 H 0.0646144 0.702712 0.108923
H26_2 H 0.0643116 0.797288 0.110132
O4_2 O 0.1184(3) 0.9570(6) 0.9510(6)
H2_2 H 0.059853 0.881543 0.985238
O21_2 O 0.1184(3) 0.5430(6) 0.9510(6)
H13_2 H 0.059853 0.618457 0.985238
O55_2 O 0.2016(2) 0.3098(4) 0.9960(4)
O2_2 O 0.9644(2) 0.0050(5) 0.2572(5)
C7_2 C 0.9970(3) 0.0307(6) 0.2225(7)
O30_2 O 0.63136(19) 0.0917(4) 0.2856(4)
O31_2 O 0.6851(2) 0.0222(4) 0.3085(4)
H19_2 H 0.584259 0.028132 0.180282
C68_2 C 0.6529(3) 0.0377(6) 0.2691(6)
Eu16 Eu 0.47465(2) 0.07196(3) 0.12245(3)
O41_2 O 0.90128(19) 0.0632(4) 0.3736(4)
O56_2 O 0.9593(3) 0.1896(4) 0.3534(5)
O8_2 O 0.75111(19) 0.0942(4) 0.3971(4)
O9_2 O 0.7161(2) 0.0275(4) 0.4817(4)
C15_2 C 0.8234(3) 0.0167(5) 0.4260(6)
H5_2 H 0.824749 0.059511 0.397107
C20_2 C 0.8995(3) 0.0036(6) 0.4088(6)
C21_2 C 0.7492(3) 0.0422(6) 0.4441(6)
Eu2_2 Eu 0.47465(2) 0.42804(3) 0.12245(3)
O11_2 O 0.5413(2) 0.5952(4) 0.0104(4)
O12_2 O 0.5224(2) 0.5123(4) 0.0995(5)
O15_2 O 0.7984(2) 0.6902(4) 0.0040(4)
O16_2 O 0.4593(3) 0.3104(4) 0.1466(5)
O17_2 O 0.5357(3) 0.3673(6) 0.0670(6)
N2_2 N 0.6222(4) 0.750000 0.1674(9)
C6_2 C 0.9952(3) 0.9290(6) 0.1261(6)
H3_2 H 0.970517 0.915450 0.149647
C9_2 C 0.9919(3) 0.8163(5) 0.0408(6)
C11_2 C 0.9537(3) 0.8146(5) 0.0051(6)
C27_2 C 0.5905(3) 0.5558(6) 0.1064(6)
C28_2 C 0.6025(3) 0.5076(5) 0.1645(5)
H8_2 H 0.584259 0.471868 0.180282
C29_2 C 0.6418(3) 0.5102(6) 0.2013(6)
C30_2 C 0.6676(3) 0.5675(5) 0.1782(6)
H9_2 H 0.693142 0.571931 0.202346
C31_2 C 0.6560(3) 0.6173(6) 0.1209(6)
C32_2 C 0.6183(3) 0.6094(6) 0.0853(6)
H10_2 H 0.610930 0.641534 0.044950
C33_2 C 0.5483(3) 0.5535(7) 0.0696(6)
C34_2 C 0.6529(3) 0.4623(6) 0.2691(6)
C35_2 C 0.6802(3) 0.6828(5) 0.1065(5)
C36_2 C 0.6611(4) 0.750000 0.1272(9)
C37_2 C 0.7196(3) 0.6852(6) 0.0730(6)
H11_2 H 0.732339 0.641911 0.060397
C38_2 C 0.7412(4) 0.750000 0.0571(8)
C39_2 C 0.7825(4) 0.750000 0.0209(9)
C40_2 C 0.4569(6) 0.250000 0.1093(12)
O19_2 O 0.9644(2) 0.4950(5) 0.2572(5)
C46_2 C 0.9952(3) 0.5710(6) 0.1261(6)
H14_2 H 0.970517 0.584550 0.149647
C47_2 C 0.9970(3) 0.4693(6) 0.2225(7)
C49_2 C 0.9919(3) 0.6837(5) 0.0408(6)
C50_2 C 0.9537(3) 0.6854(5) 0.0051(6)
O29_2 O 0.5224(2) 0.9877(4) 0.0995(5)
O32_2 O 0.7984(2) 0.8098(4) 0.0040(4)
C61_2 C 0.5905(3) 0.9442(6) 0.1064(6)
C62_2 C 0.6025(3) 0.9924(5) 0.1645(5)
C63_2 C 0.6418(3) 0.9898(6) 0.2013(6)
C64_2 C 0.6676(3) 0.9325(5) 0.1782(6)
H20_2 H 0.693142 0.928069 0.202346
C65_2 C 0.6560(3) 0.8827(6) 0.1209(6)
C66_2 C 0.6183(3) 0.8906(6) 0.0853(6)
H21_2 H 0.610930 0.858466 0.044950
C67_2 C 0.5483(3) 0.9465(7) 0.0696(6)
C69_2 C 0.6802(3) 0.8172(5) 0.1065(5)
C70_2 C 0.7196(3) 0.8148(6) 0.0730(6)
H22_2 H 0.732339 0.858089 0.060397
O33_2 O 0.4593(3) 0.1896(4) 0.1466(5)
O35_2 O 0.5148(2) 0.4140(4) 0.2486(4)
O36_2 O 0.4644(2) 0.4950(5) 0.2428(5)
O39_2 O 0.9326(2) 0.9680(4) 0.4257(5)
O40_2 O 0.4326(2) 0.5320(4) 0.0743(5)
O42_2 O 0.40128(19) 0.4368(4) 0.1264(4)
H29_2 H 0.608585 0.797289 0.182147
H30_2 H 0.6083 0.702711 0.181088
H32_2 H 0.452724 0.25 0.0444008
O5_2 O 0.8788(2) 0.6909(4) 0.9204(4)
O10_2 O 0.7997(2) 0.6903(4) 0.8047(4)
N3_2 N 0.8241(4) 0.750000 0.4270(8)
H4_2 H 0.940488 0.857779 0.993763
C12_2 C 0.9343(4) 0.750000 0.9857(9)
C13_2 C 0.8936(4) 0.750000 0.9409(8)
C14_2 C 0.8594(3) 0.9756(5) 0.4377(6)
C16_2 C 0.7857(3) 0.9937(6) 0.4573(6)
C17_2 C 0.7832(3) 0.9289(6) 0.4985(6)
H6_2 H 0.758122 0.914612 0.519671
C18_2 C 0.8171(3) 0.8849(5) 0.5091(6)
C19_2 C 0.8556(3) 0.9088(6) 0.4786(6)
H7_2 H 0.878701 0.880141 0.485566
C22_2 C 0.8140(3) 0.8155(5) 0.5519(6)
C23_2 C 0.8177(4) 0.750000 0.5120(8)
C24_2 C 0.8070(3) 0.8145(6) 0.6354(6)
C25_2 C 0.8044(4) 0.750000 0.6786(8)
C26_2 C 0.8011(4) 0.750000 0.7686(9)
O22_2 O 0.8788(2) 0.8091(4) 0.9204(4)
H15_2 H 0.940488 0.642221 0.993763
O23_2 O 0.9326(2) 0.5320(4) 0.4257(5)
O24_2 O 0.90128(19) 0.4368(4) 0.3736(4)
O27_2 O 0.7997(2) 0.8097(4) 0.8047(4)
C51_2 C 0.8594(3) 0.5244(5) 0.4377(6)
C52_2 C 0.8234(3) 0.4833(5) 0.4260(6)
H16_2 H 0.824749 0.440489 0.397107
C53_2 C 0.7857(3) 0.5063(6) 0.4573(6)
C54_2 C 0.7832(3) 0.5711(6) 0.4985(6)
H17_2 H 0.758122 0.585388 0.519671
C55_2 C 0.8171(3) 0.6151(5) 0.5091(6)
C56_2 C 0.8556(3) 0.5912(6) 0.4786(6)
H18_2 H 0.878701 0.619859 0.485566
C57_2 C 0.8995(3) 0.4964(6) 0.4088(6)
C58_2 C 0.7492(3) 0.4578(6) 0.4441(6)
C59_2 C 0.8140(3) 0.6845(5) 0.5519(6)
C60_2 C 0.8070(3) 0.6855(6) 0.6354(6)
O37_2 O 0.8727(2) 0.5456(4) 0.9645(4)
O48_2 O 0.4587(2) 0.4048(4) 0.9896(4)
H27_2 H 0.826862 0.702716 0.396985
H28_2 H 0.825879 0.797284 0.3967
H31_2 H 0.803513 0.865308 0.66725
H33_2 H 0.803513 0.634692 0.66725
O24_3 O 0.40128(19) 0.0632(4) 0.1264(4)
O25_2 O 0.25111(19) 0.0942(4) 0.1029(4)
O26_2 O 0.2161(2) 0.0275(4) 0.0183(4)
C52_3 C 0.3234(3) 0.0167(5) 0.0740(6)
H16_3 H 0.324749 0.059511 0.102893
C57_3 C 0.3995(3) 0.0036(6) 0.0912(6)
C58_3 C 0.2492(3) 0.0422(6) 0.0559(6)
O13_2 O 0.13136(19) 0.0917(4) 0.2144(4)
O14_2 O 0.1851(2) 0.0222(4) 0.1915(4)
H8_3 H 0.084259 0.028132 0.319718
C34_3 C 0.1529(3) 0.0377(6) 0.2309(6)
O18_3 O 0.5148(2) 0.0860(4) 0.2486(4)
O19_3 O 0.4644(2) 0.0050(5) 0.2428(5)
O20_3 O 0.6273(2) 0.0456(4) 0.4645(4)
C42_3 C 0.5518(3) 0.0122(6) 0.3859(6)
H12_3 H 0.565095 0.053776 0.369006
C47_3 C 0.4970(3) 0.0307(6) 0.2775(7)
N3_3 N 0.3241(4) 0.750000 0.0730(8)
C14_3 C 0.3594(3) 0.5244(5) 0.0623(6)
C15_3 C 0.3234(3) 0.4833(5) 0.0740(6)
H5_3 H 0.324749 0.440489 0.102893
C16_3 C 0.2857(3) 0.5063(6) 0.0427(6)
C17_3 C 0.2832(3) 0.5711(6) 0.0015(6)
C19_3 C 0.3556(3) 0.5912(6) 0.0214(6)
H7_3 H 0.378701 0.619859 0.014434
C20_3 C 0.3995(3) 0.4964(6) 0.0912(6)
C21_3 C 0.2492(3) 0.4578(6) 0.0559(6)
O23_3 O 0.4326(2) 0.9680(4) 0.0743(5)
C51_3 C 0.3594(3) 0.9756(5) 0.0623(6)
C53_3 C 0.2857(3) 0.9937(6) 0.0427(6)
C54_3 C 0.2832(3) 0.9289(6) 0.0015(6)
C56_3 C 0.3556(3) 0.9088(6) 0.0214(6)
H18_3 H 0.378701 0.880141 0.014434
H27_3 H 0.326862 0.797284 0.103015
H28_3 H 0.325879 0.702716 0.1033
O4_3 O 0.6184(3) 0.5430(6) 0.5490(6)
O5_3 O 0.3788(2) 0.8091(4) 0.5796(4)
O10_3 O 0.2997(2) 0.8097(4) 0.6953(4)
O11_3 O 0.0413(2) 0.9048(4) 0.4896(4)
O15_3 O 0.2984(2) 0.8098(4) 0.4960(4)
N1_3 N 0.5505(4) 0.750000 0.4039(9)
N2_3 N 0.1222(4) 0.750000 0.3326(9)
C1_3 C 0.5146(3) 0.5089(6) 0.3480(6)
C2_3 C 0.5518(3) 0.4878(6) 0.3859(6)
H1_3 H 0.565095 0.446224 0.369006
C3_3 C 0.5681(3) 0.5280(6) 0.4469(7)
C4_3 C 0.5486(3) 0.5917(6) 0.4730(7)
H2_3 H 0.559853 0.618457 0.514762
C5_3 C 0.5123(3) 0.6146(6) 0.4360(7)
C6_3 C 0.4952(3) 0.5710(6) 0.3739(6)
H3_3 H 0.470517 0.584550 0.350353
C7_3 C 0.4970(3) 0.4693(6) 0.2775(7)
C8_3 C 0.6079(4) 0.5056(8) 0.4900(8)
C9_3 C 0.4919(3) 0.6837(5) 0.4592(6)
C10_3 C 0.5114(4) 0.750000 0.4415(9)
C11_3 C 0.4537(3) 0.6854(5) 0.4949(6)
H4_3 H 0.440488 0.642221 0.506237
C12_3 C 0.4343(4) 0.750000 0.5143(9)
C13_3 C 0.3936(4) 0.750000 0.5591(8)
H6_3 H 0.258122 0.585388 0.980329
C18_3 C 0.3171(3) 0.6151(5) 0.9909(6)
C22_3 C 0.3140(3) 0.6845(5) 0.9481(6)
C23_3 C 0.3177(4) 0.750000 0.9880(8)
C24_3 C 0.3070(3) 0.6855(6) 0.8646(6)
C25_3 C 0.3044(4) 0.750000 0.8214(8)
C26_3 C 0.3011(4) 0.750000 0.7314(9)
C27_3 C 0.0905(3) 0.9442(6) 0.3936(6)
C28_3 C 0.1025(3) 0.9924(5) 0.3355(5)
C29_3 C 0.1418(3) 0.9898(6) 0.2987(6)
C30_3 C 0.1676(3) 0.9325(5) 0.3218(6)
H9_3 H 0.193142 0.928069 0.297654
C31_3 C 0.1560(3) 0.8827(6) 0.3791(6)
C32_3 C 0.1183(3) 0.8906(6) 0.4147(6)
H10_3 H 0.110930 0.858466 0.455050
C33_3 C 0.0483(3) 0.9465(7) 0.4304(6)
C35_3 C 0.1802(3) 0.8172(5) 0.3935(5)
C36_3 C 0.1611(4) 0.750000 0.3728(9)
C37_3 C 0.2196(3) 0.8148(6) 0.4270(6)
H11_3 H 0.232339 0.858089 0.439603
C38_3 C 0.2412(4) 0.750000 0.4429(8)
C39_3 C 0.2825(4) 0.750000 0.4791(9)
O21_3 O 0.6184(3) 0.9570(6) 0.5490(6)
C41_3 C 0.5146(3) 0.9911(6) 0.3480(6)
C43_3 C 0.5681(3) 0.9720(6) 0.4469(7)
C44_3 C 0.5486(3) 0.9083(6) 0.4730(7)
H13_3 H 0.559853 0.881543 0.514762
C45_3 C 0.5123(3) 0.8854(6) 0.4360(7)
C46_3 C 0.4952(3) 0.9290(6) 0.3739(6)
H14_3 H 0.470517 0.915450 0.350353
C48_3 C 0.6079(4) 0.9944(8) 0.4900(8)
C49_3 C 0.4919(3) 0.8163(5) 0.4592(6)
C50_3 C 0.4537(3) 0.8146(5) 0.4949(6)
H15_3 H 0.440488 0.857779 0.506237
H17_3 H 0.258122 0.914612 0.980329
C55_3 C 0.3171(3) 0.8849(5) 0.9909(6)
C59_3 C 0.3140(3) 0.8155(5) 0.9481(6)
C60_3 C 0.3070(3) 0.8145(6) 0.8646(6)
O29_3 O 0.0224(2) 0.5123(4) 0.4005(5)
C61_3 C 0.0905(3) 0.5558(6) 0.3936(6)
C62_3 C 0.1025(3) 0.5076(5) 0.3355(5)
H19_3 H 0.084259 0.471868 0.319718
C63_3 C 0.1418(3) 0.5102(6) 0.2987(6)
C64_3 C 0.1676(3) 0.5675(5) 0.3218(6)
H20_3 H 0.193142 0.571931 0.297654
C65_3 C 0.1560(3) 0.6173(6) 0.3791(6)
C66_3 C 0.1183(3) 0.6094(6) 0.4147(6)
H21_3 H 0.110930 0.641534 0.455050
C67_3 C 0.0483(3) 0.5535(7) 0.4304(6)
C68_3 C 0.1529(3) 0.4623(6) 0.2309(6)
C69_3 C 0.1802(3) 0.6828(5) 0.3935(5)
C70_3 C 0.2196(3) 0.6852(6) 0.4270(6)
H22_3 H 0.232339 0.641911 0.439603
O44_2 O 0.24889(19) 0.9058(4) 0.6029(4)
O46_2 O 0.2839(2) 0.9725(4) 0.5183(4)
O51_2 O 0.36864(19) 0.9083(4) 0.7144(4)
O53_2 O 0.3149(2) 0.9778(4) 0.6915(4)
H25_3 H 0.564614 0.797288 0.391077
H26_3 H 0.564312 0.702712 0.389868
H29_3 H 0.108585 0.702711 0.317853
H30_3 H 0.1083 0.797289 0.318912
H31_3 H 0.303513 0.634692 0.83275
H33_3 H 0.303513 0.865308 0.83275
C40_3 C 0.9569(6) 0.250000 0.3907(12)
O33_3 O 0.9593(3) 0.3104(4) 0.3534(5)
H32_3 H 0.952724 0.25 0.455599
O5_4 O 0.1212(2) 0.1909(4) 0.0796(4)
O10_4 O 0.2003(2) 0.1903(4) 0.1953(4)
N3_4 N 0.1759(4) 0.250000 0.5730(8)
H4_4 H 0.059512 0.357779 0.006237
C12_4 C 0.0657(4) 0.250000 0.0143(9)
C13_4 C 0.1064(4) 0.250000 0.0591(8)
C14_4 C 0.1406(3) 0.4756(5) 0.5623(6)
C15_4 C 0.1766(3) 0.5167(5) 0.5740(6)
H5_4 H 0.175251 0.559511 0.602893
C16_4 C 0.2143(3) 0.4937(6) 0.5427(6)
C17_4 C 0.2168(3) 0.4289(6) 0.5015(6)
H6_4 H 0.241878 0.414612 0.480329
C18_4 C 0.1829(3) 0.3849(5) 0.4909(6)
C19_4 C 0.1444(3) 0.4088(6) 0.5214(6)
H7_4 H 0.121299 0.380141 0.514434
C20_4 C 0.1005(3) 0.5036(6) 0.5912(6)
C21_4 C 0.2508(3) 0.5422(6) 0.5559(6)
C22_4 C 0.1860(3) 0.3155(5) 0.4481(6)
C23_4 C 0.1823(4) 0.250000 0.4880(8)
C24_4 C 0.1930(3) 0.3145(6) 0.3646(6)
C25_4 C 0.1956(4) 0.250000 0.3214(8)
C26_4 C 0.1989(4) 0.250000 0.2314(9)
H15_4 H 0.059512 0.142221 0.006237
O23_4 O 0.0674(2) 0.0320(4) 0.5743(5)
C51_4 C 0.1406(3) 0.0244(5) 0.5623(6)
C53_4 C 0.2143(3) 0.0063(6) 0.5427(6)
C54_4 C 0.2168(3) 0.0711(6) 0.5015(6)
H17_4 H 0.241878 0.085388 0.480329
C55_4 C 0.1829(3) 0.1151(5) 0.4909(6)
C56_4 C 0.1444(3) 0.0912(6) 0.5214(6)
H18_4 H 0.121299 0.119859 0.514434
C59_4 C 0.1860(3) 0.1845(5) 0.4481(6)
C60_4 C 0.1930(3) 0.1855(6) 0.3646(6)
H27_4 H 0.173138 0.202716 0.603015
H28_4 H 0.174121 0.297284 0.6033
H31_4 H 0.196487 0.365308 0.33275
H33_4 H 0.196487 0.134692 0.33275
O11_4 O 0.4587(2) 0.0952(4) 0.9896(4)
O15_4 O 0.2016(2) 0.1902(4) 0.9960(4)
N2_4 N 0.3778(4) 0.250000 0.8326(9)
C6_4 C 0.0048(3) 0.4290(6) 0.8739(6)
H3_4 H 0.029483 0.415450 0.850353
C7_4 C 0.0030(3) 0.5307(6) 0.7775(7)
C9_4 C 0.0081(3) 0.3163(5) 0.9592(6)
C11_4 C 0.0463(3) 0.3146(5) 0.9949(6)
C27_4 C 0.4095(3) 0.0558(6) 0.8936(6)
C28_4 C 0.3975(3) 0.0076(5) 0.8355(5)
C29_4 C 0.3582(3) 0.0102(6) 0.7987(6)
C30_4 C 0.3324(3) 0.0675(5) 0.8218(6)
H9_4 H 0.306858 0.071931 0.797654
C31_4 C 0.3440(3) 0.1173(6) 0.8791(6)
C32_4 C 0.3817(3) 0.1094(6) 0.9147(6)
H10_4 H 0.389070 0.141534 0.955050
C33_4 C 0.4517(3) 0.0535(7) 0.9304(6)
C35_4 C 0.3198(3) 0.1828(5) 0.8935(5)
C36_4 C 0.3389(4) 0.250000 0.8728(9)
C37_4 C 0.2804(3) 0.1852(6) 0.9270(6)
H11_4 H 0.267661 0.141911 0.939603
C38_4 C 0.2588(4) 0.250000 0.9429(8)
C39_4 C 0.2175(4) 0.250000 0.9791(9)
C46_4 C 0.0048(3) 0.0710(6) 0.8739(6)
H14_4 H 0.029483 0.084550 0.850353
C49_4 C 0.0081(3) 0.1837(5) 0.9592(6)
C50_4 C 0.0463(3) 0.1854(5) 0.9949(6)
O29_4 O 0.4776(2) 0.4877(4) 0.9005(5)
C61_4 C 0.4095(3) 0.4442(6) 0.8936(6)
C62_4 C 0.3975(3) 0.4924(5) 0.8355(5)
H19_4 H 0.415741 0.528132 0.819718
C63_4 C 0.3582(3) 0.4898(6) 0.7987(6)
C64_4 C 0.3324(3) 0.4325(5) 0.8218(6)
H20_4 H 0.306858 0.428069 0.797654
C65_4 C 0.3440(3) 0.3827(6) 0.8791(6)
C66_4 C 0.3817(3) 0.3906(6) 0.9147(6)
H21_4 H 0.389070 0.358466 0.955050
C67_4 C 0.4517(3) 0.4465(7) 0.9304(6)
C68_4 C 0.3471(3) 0.5377(6) 0.7309(6)
C69_4 C 0.3198(3) 0.3172(5) 0.8935(5)
C70_4 C 0.2804(3) 0.3148(6) 0.9270(6)
H22_4 H 0.267661 0.358089 0.939603
H29_4 H 0.391415 0.297289 0.817853
H30_4 H 0.3917 0.202711 0.818912
O24_4 O 0.09872(19) 0.9368(4) 0.6264(4)
C52_4 C 0.1766(3) 0.9833(5) 0.5740(6)
H16_4 H 0.175251 0.940489 0.602893
C57_4 C 0.1005(3) 0.9964(6) 0.5912(6)
C58_4 C 0.2508(3) 0.9578(6) 0.5559(6)
H8_4 H 0.415741 0.971868 0.819718
C34_4 C 0.3471(3) 0.9623(6) 0.7309(6)
C40_4 C 0.5431(6) 0.750000 0.8907(12)
O19_4 O 0.0356(2) 0.9950(5) 0.7428(5)
C47_4 C 0.0030(3) 0.9693(6) 0.7775(7)
O33_4 O 0.5407(3) 0.6896(4) 0.8534(5)
H32_4 H 0.547276 0.75 0.955599
O4_4 O 0.8816(3) 0.4570(6) 0.0490(6)
H2_4 H 0.940147 0.381543 0.014762
O21_4 O 0.8816(3) 0.0430(6) 0.0490(6)
H13_4 H 0.940147 0.118457 0.014762
N1_4 N 0.9495(4) 0.250000 0.9039(9)
C1_4 C 0.9854(3) 0.4911(6) 0.8480(6)
C2_4 C 0.9482(3) 0.5122(6) 0.8859(6)
H1_4 H 0.934905 0.553776 0.869006
C3_4 C 0.9319(3) 0.4720(6) 0.9469(7)
C4_4 C 0.9514(3) 0.4083(6) 0.9730(7)
C5_4 C 0.9877(3) 0.3854(6) 0.9360(7)
C8_4 C 0.8921(4) 0.4944(8) 0.9900(8)
C10_4 C 0.9886(4) 0.250000 0.9415(9)
C41_4 C 0.9854(3) 0.0089(6) 0.8480(6)
C43_4 C 0.9319(3) 0.0280(6) 0.9469(7)
C44_4 C 0.9514(3) 0.0917(6) 0.9730(7)
C45_4 C 0.9877(3) 0.1146(6) 0.9360(7)
C48_4 C 0.8921(4) 0.0056(8) 0.9900(8)
H25_4 H 0.935386 0.202712 0.891077
H26_4 H 0.935688 0.297288 0.889868
O18_4 O 0.9852(2) 0.9140(4) 0.7486(4)
O20_4 O 0.8727(2) 0.9544(4) 0.9645(4)
C42_4 C 0.9482(3) 0.9878(6) 0.8859(6)
H12_4 H 0.934905 0.946224 0.869006
O34_3 O 0.5357(3) 0.1327(6) 0.0670(6)
H27_5 H 0.326862 0.702716 0.103015
H28_5 H 0.325879 0.797284 0.1033
O17_3 O 0.0357(3) 0.3673(6) 0.4330(6)
H25_5 H 0.564614 0.702712 0.391077
H26_5 H 0.564312 0.797288 0.389868
H29_5 H 0.108585 0.797289 0.317853
H30_5 H 0.1083 0.702711 0.318912
H27_6 H 0.173138 0.297284 0.603015
H28_6 H 0.174121 0.202716 0.6033
O17_4 O 0.4643(3) 0.6327(6) 0.9330(6)
H29_6 H 0.391415 0.202711 0.817853
H30_6 H 0.3917 0.297289 0.818912
H25_6 H 0.935386 0.297288 0.891077
H26_6 H 0.935688 0.202712 0.889868
O34_4 O 0.9643(3) 0.8673(6) 0.5670(6)
H25_7 H 0.435386 0.202712 0.608923
H26_7 H 0.435688 0.297288 0.610132
H29_7 H 0.891415 0.297289 0.682147
H30_7 H 0.8917 0.202711 0.681088
H27_7 H 0.673138 0.202716 0.896985
H28_7 H 0.674121 0.297284 0.8967
H25_8 H 0.0646144 0.797288 0.108923
H26_8 H 0.0643116 0.702712 0.110132
H29_8 H 0.608585 0.702711 0.182147
H30_8 H 0.6083 0.797289 0.181088
H27_8 H 0.826862 0.797284 0.396985
H28_8 H 0.825879 0.702716 0.3967
loop_
_geom_bond_atom_site_label_1
_geom_bond_atom_site_label_2
_geom_bond_site_symmetry_1
_geom_bond_site_symmetry_2
O16 Eu2 1_555 1_555
C40 O16 1_555 1_555
O33 C40 1_555 1_555
Eu17 O33 1_555 1_555
O36 Eu2 1_555 1_555
O40 Eu2 1_555 1_555
O42 Eu2 1_555 1_555
O48 Eu2 1_555 1_555
C40 H32 1_555 1_555
Eu1 O5 1_555 1_555
O4 C8 1_555 1_555
O5 C13 1_555 1_555
O10 Eu1 1_555 1_555
O11 C33 1_555 1_555
O12 C33 1_555 1_555
O13 C34 1_555 1_555
O14 C34 1_555 1_555
O15 Eu1 1_555 1_555
N1 C10 1_555 1_555
N2 C36 1_555 1_555
C4 C3 1_555 1_555
H2 C4 1_555 1_555
C5 C4 1_555 1_555
C6 C1 1_555 1_555
H3 C6 1_555 1_555
C8 C3 1_555 1_555
C9 C5 1_555 1_555
C10 C9 1_555 1_555
C11 C9 1_555 1_555
H4 C11 1_555 1_555
C12 C11 1_555 1_555
C13 C12 1_555 1_555
C22 C18 1_555 1_555
C23 C22 1_555 1_555
C24 C22 1_555 1_555
C25 C24 1_555 1_555
C26 O10 1_555 1_555
C27 C28 1_555 1_555
C28 H8 1_555 1_555
C29 C28 1_555 1_555
C30 C29 1_555 1_555
H9 C30 1_555 1_555
C31 C30 1_555 1_555
C32 C27 1_555 1_555
H10 C32 1_555 1_555
C33 C27 1_555 1_555
C34 C29 1_555 1_555
C35 C31 1_555 1_555
C36 C35 1_555 1_555
C37 C35 1_555 1_555
H11 C37 1_555 1_555
C38 C37 1_555 1_555
C39 O15 1_555 1_555
O18 C47 1_555 1_555
O19 C47 1_555 1_555
O20 C48 1_555 1_555
O21 C48 1_555 1_555
O22 C13 1_555 1_555
C41 C42 1_555 1_555
C42 H12 1_555 1_555
C43 C42 1_555 1_555
C44 C43 1_555 1_555
H13 C44 1_555 1_555
C45 C44 1_555 1_555
C46 C41 1_555 1_555
H14 C46 1_555 1_555
C47 C41 1_555 1_555
C48 C43 1_555 1_555
C49 C10 1_555 1_555
C50 C12 1_555 1_555
H15 C50 1_555 1_555
O27 C26 1_555 1_555
C59 C23 1_555 1_555
C60 C25 1_555 1_555
O28 C67 1_555 1_555
O29 C67 1_555 1_555
O32 C39 1_555 1_555
C61 C62 1_555 1_555
C63 C62 1_555 1_555
C64 C63 1_555 1_555
H20 C64 1_555 1_555
C65 C64 1_555 1_555
C66 C61 1_555 1_555
H21 C66 1_555 1_555
C67 C61 1_555 1_555
C69 C36 1_555 1_555
C70 C38 1_555 1_555
H22 C70 1_555 1_555
Eu3 O20 1_555 1_555
Eu6 O13 1_555 1_555
Eu8 O22 1_555 1_555
Eu11 O28 1_555 1_555
Eu13 O11 1_555 1_555
Eu15 O18 1_555 1_555
O37 Eu1 1_555 1_555
O38 Eu3 1_555 1_555
O43 Eu3 1_555 1_555
O44 Eu1 1_555 1_555
O45 Eu3 1_555 1_555
O46 Eu1 1_555 1_555
O47 Eu3 1_555 1_555
O51 Eu1 1_555 1_555
O52 Eu3 1_555 1_555
O53 Eu1 1_555 1_555
O54 Eu3 1_555 1_555
O55 Eu3 1_555 1_555
O14 Eu6 1_555 1_555
C5 C6 1_555 1_555
C25 C26 1_555 1_555
C31 C32 1_555 1_555
C38 C39 1_555 1_555
O19 Eu15 1_555 1_555
C45 C46 1_555 1_555
C45 C49 1_555 1_555
C49 C50 1_555 1_555
O27 Eu8 1_555 1_555
C55 C59 1_555 1_555
C59 C60 1_555 1_555
O32 Eu8 1_555 1_555
C65 C66 1_555 1_555
C65 C69 1_555 1_555
C69 C70 1_555 1_555
N1 H25 1_555 1_555
N1 H26 1_555 1_555
N2 H29 1_555 1_555
N2 H30 1_555 1_555
C24 H31 1_555 1_555
C60 H33 1_555 1_555
C17 C16 1_555 1_555
C19 C14 1_555 1_555
H7 C19 1_555 1_555
O23 C57 1_555 1_555
O24 C57 1_555 1_555
O25 C58 1_555 1_555
O26 C58 1_555 1_555
C51 C52 1_555 1_555
C52 H16 1_555 1_555
C53 C52 1_555 1_555
C54 C53 1_555 1_555
C56 C51 1_555 1_555
H18 C56 1_555 1_555
C57 C51 1_555 1_555
C58 C53 1_555 1_555
Eu6 O25 1_555 1_555
Eu15 O23 1_555 1_555
O24 Eu15 1_555 1_555
O26 Eu6 1_555 1_555
N3 H27 1_555 1_555
N3 H28 1_555 1_555
O1 C7 1_555 1_555
O2 C7 1_555 1_555
C2 H1 1_555 1_555
O30 C68 1_555 1_555
O31 C68 1_555 1_555
Eu4 O1 1_555 1_555
O34 Eu4 1_555 1_555
Eu7 O3 1_555 1_555
Eu10 O30 1_555 1_555
O41 Eu4 1_555 1_555
O56 Eu4 1_555 1_555
O2 Eu4 1_555 1_555
O31 Eu10 1_555 1_555
O41 C20 1_555 1_555
O8 C21 1_555 1_555
O9 C21 1_555 1_555
C15 H5 1_555 1_555
Eu10 O8 1_555 1_555
O9 Eu10 1_555 1_555
C2_2 H1_2 1_555 1_555
Eu7_2 O3_2 1_555 1_555
N1_2 C10_2 1_555 1_555
C4_2 C3_2 1_555 1_555
C5_2 C4_2 1_555 1_555
C8_2 C3_2 1_555 1_555
O20_2 C48_2 1_555 1_555
C41_2 C42_2 1_555 1_555
C42_2 H12_2 1_555 1_555
C43_2 C42_2 1_555 1_555
C44_2 C43_2 1_555 1_555
C45_2 C44_2 1_555 1_555
C48_2 C43_2 1_555 1_555
Eu3_2 O20_2 1_555 1_555
O38_2 Eu3_2 1_555 1_555
O43_2 Eu3_2 1_555 1_555
O45_2 Eu3_2 1_555 1_555
O47_2 Eu3_2 1_555 1_555
O52_2 Eu3_2 1_555 1_555
O54_2 Eu3_2 1_555 1_555
N1_2 H25_2 1_555 1_555
N1_2 H26_2 1_555 1_555
O2_2 C7_2 1_555 1_555
O30_2 C68_2 1_555 1_555
O31_2 C68_2 1_555 1_555
Eu8 O30_2 1_555 1_555
O41_2 Eu11 1_555 1_555
O56_2 Eu11 1_555 1_555
O2_2 Eu11 1_555 1_555
O31_2 Eu8 1_555 1_555
O41_2 C20_2 1_555 1_555
O8_2 C21_2 1_555 1_555
O9_2 C21_2 1_555 1_555
C15_2 H5_2 1_555 1_555
Eu8 O8_2 1_555 1_555
O9_2 Eu8 1_555 1_555
Eu2_2 O12_2 1_555 1_555
O11_2 C33_2 1_555 1_555
O12_2 C33_2 1_555 1_555
O51 C34_2 1_555 1_555
O53 C34_2 1_555 1_555
O16_2 Eu2_2 1_555 1_555
O17_2 Eu2_2 1_555 1_555
N2_2 C36_2 1_555 1_555
H3_2 C6_2 1_555 1_555
C11_2 C9_2 1_555 1_555
C27_2 C28_2 1_555 1_555
C28_2 H8_2 1_555 1_555
C29_2 C28_2 1_555 1_555
C30_2 C29_2 1_555 1_555
H9_2 C30_2 1_555 1_555
C31_2 C30_2 1_555 1_555
C32_2 C27_2 1_555 1_555
H10_2 C32_2 1_555 1_555
C33_2 C27_2 1_555 1_555
C34_2 C29_2 1_555 1_555
C35_2 C31_2 1_555 1_555
C36_2 C35_2 1_555 1_555
C37_2 C35_2 1_555 1_555
H11_2 C37_2 1_555 1_555
C38_2 C37_2 1_555 1_555
C39_2 O15_2 1_555 1_555
C40_2 O16_2 1_555 1_555
O19_2 C47_2 1_555 1_555
H14_2 C46_2 1_555 1_555
O49 C67_2 1_555 1_555
O29_2 C67_2 1_555 1_555
O32_2 C39_2 1_555 1_555
C61_2 C62_2 1_555 1_555
C63_2 C62_2 1_555 1_555
C64_2 C63_2 1_555 1_555
H20_2 C64_2 1_555 1_555
C65_2 C64_2 1_555 1_555
C66_2 C61_2 1_555 1_555
H21_2 C66_2 1_555 1_555
C67_2 C61_2 1_555 1_555
C69_2 C36_2 1_555 1_555
C70_2 C38_2 1_555 1_555
H22_2 C70_2 1_555 1_555
O33_2 C40_2 1_555 1_555
Eu16 O33_2 1_555 1_555
O35_2 Eu2_2 1_555 1_555
O36_2 Eu2_2 1_555 1_555
O40_2 Eu2_2 1_555 1_555
O42_2 Eu2_2 1_555 1_555
C31_2 C32_2 1_555 1_555
C38_2 C39_2 1_555 1_555
O19_2 Eu13 1_555 1_555
C49_2 C50_2 1_555 1_555
C65_2 C66_2 1_555 1_555
C65_2 C69_2 1_555 1_555
C69_2 C70_2 1_555 1_555
N2_2 H29_2 1_555 1_555
N2_2 H30_2 1_555 1_555
C40_2 H32_2 1_555 1_555
Eu6 O5_2 1_555 1_555
O5_2 C13_2 1_555 1_555
O10_2 Eu6 1_555 1_555
N3_2 C23_2 1_555 1_555
C13_2 C12_2 1_555 1_555
C17_2 C16_2 1_555 1_555
H6_2 C17_2 1_555 1_555
C18_2 C17_2 1_555 1_555
C19_2 C14_2 1_555 1_555
H7_2 C19_2 1_555 1_555
C22_2 C18_2 1_555 1_555
C23_2 C22_2 1_555 1_555
C24_2 C22_2 1_555 1_555
C25_2 C24_2 1_555 1_555
C26_2 O10_2 1_555 1_555
O22_2 C13_2 1_555 1_555
O23_2 C57_2 1_555 1_555
O24_2 C57_2 1_555 1_555
O44 C58_2 1_555 1_555
O46 C58_2 1_555 1_555
O27_2 C26_2 1_555 1_555
C51_2 C52_2 1_555 1_555
C52_2 H16_2 1_555 1_555
C53_2 C52_2 1_555 1_555
C54_2 C53_2 1_555 1_555
H17_2 C54_2 1_555 1_555
C55_2 C54_2 1_555 1_555
C56_2 C51_2 1_555 1_555
H18_2 C56_2 1_555 1_555
C57_2 C51_2 1_555 1_555
C58_2 C53_2 1_555 1_555
C59_2 C23_2 1_555 1_555
C60_2 C25_2 1_555 1_555
Eu10 O22_2 1_555 1_555
Eu13 O23_2 1_555 1_555
O37_2 Eu6 1_555 1_555
C18_2 C19_2 1_555 1_555
C25_2 C26_2 1_555 1_555
O24_2 Eu13 1_555 1_555
O27_2 Eu10 1_555 1_555
C55_2 C56_2 1_555 1_555
C55_2 C59_2 1_555 1_555
C59_2 C60_2 1_555 1_555
N3_2 H27_2 1_555 1_555
N3_2 H28_2 1_555 1_555
C24_2 H31_2 1_555 1_555
C60_2 H33_2 1_555 1_555
O24_3 C57_3 1_555 1_555
O25_2 C58_3 1_555 1_555
O26_2 C58_3 1_555 1_555
C52_3 H16_3 1_555 1_555
Eu7_2 O25_2 1_555 1_555
O24_3 Eu16 1_555 1_555
O26_2 Eu7_2 1_555 1_555
O13_2 C34_3 1_555 1_555
O14_2 C34_3 1_555 1_555
O18_3 C47_3 1_555 1_555
O19_3 C47_3 1_555 1_555
C42_3 H12_3 1_555 1_555
Eu8 O20_3 1_555 1_555
Eu7_2 O13_2 1_555 1_555
Eu16 O18_3 1_555 1_555
O14_2 Eu7_2 1_555 1_555
O19_3 Eu16 1_555 1_555
O40_2 C20_3 1_555 1_555
O42_2 C20_3 1_555 1_555
O43_2 C21_3 1_555 1_555
O45_2 C21_3 1_555 1_555
C14_3 C15_3 1_555 1_555
C15_3 H5_3 1_555 1_555
C16_3 C15_3 1_555 1_555
C17_3 C16_3 1_555 1_555
C19_3 C14_3 1_555 1_555
H7_3 C19_3 1_555 1_555
C20_3 C14_3 1_555 1_555
C21_3 C16_3 1_555 1_555
C54_3 C53_3 1_555 1_555
C56_3 C51_3 1_555 1_555
H18_3 C56_3 1_555 1_555
N3_3 H27_3 1_555 1_555
N3_3 H28_3 1_555 1_555
Eu7 O5_3 1_555 1_555
O35_2 C7_3 1_555 1_555
O36_2 C7_3 1_555 1_555
O37 C8_3 1_555 1_555
O4_3 C8_3 1_555 1_555
O5_3 C13_3 1_555 1_555
O10_3 Eu7 1_555 1_555
O11_3 C33_3 1_555 1_555
O50_2 C33_3 1_555 1_555
O15_3 Eu7 1_555 1_555
N1_3 C10_3 1_555 1_555
N2_3 C36_3 1_555 1_555
C1_3 C2_3 1_555 1_555
C2_3 H1_3 1_555 1_555
C3_3 C2_3 1_555 1_555
C4_3 C3_3 1_555 1_555
H2_3 C4_3 1_555 1_555
C5_3 C4_3 1_555 1_555
C6_3 C1_3 1_555 1_555
H3_3 C6_3 1_555 1_555
C7_3 C1_3 1_555 1_555
C8_3 C3_3 1_555 1_555
C9_3 C5_3 1_555 1_555
C10_3 C9_3 1_555 1_555
C11_3 C9_3 1_555 1_555
H4_3 C11_3 1_555 1_555
C12_3 C11_3 1_555 1_555
C13_3 C12_3 1_555 1_555
C22_3 C18_3 1_555 1_555
C23_3 C22_3 1_555 1_555
C24_3 C22_3 1_555 1_555
C25_3 C24_3 1_555 1_555
C26_3 O10_3 1_555 1_555
C27_3 C28_3 1_555 1_555
C29_3 C28_3 1_555 1_555
C30_3 C29_3 1_555 1_555
H9_3 C30_3 1_555 1_555
C31_3 C30_3 1_555 1_555
C32_3 C27_3 1_555 1_555
H10_3 C32_3 1_555 1_555
C33_3 C27_3 1_555 1_555
C35_3 C31_3 1_555 1_555
C36_3 C35_3 1_555 1_555
C37_3 C35_3 1_555 1_555
H11_3 C37_3 1_555 1_555
C38_3 C37_3 1_555 1_555
C39_3 O15_3 1_555 1_555
O21_3 C48_3 1_555 1_555
O38 C13_3 1_555 1_555
C44_3 C43_3 1_555 1_555
H13_3 C44_3 1_555 1_555
C45_3 C44_3 1_555 1_555
C46_3 C41_3 1_555 1_555
H14_3 C46_3 1_555 1_555
C48_3 C43_3 1_555 1_555
C49_3 C10_3 1_555 1_555
C50_3 C12_3 1_555 1_555
H15_3 C50_3 1_555 1_555
O47 C26_3 1_555 1_555
C59_3 C23_3 1_555 1_555
C60_3 C25_3 1_555 1_555
O48 C67_3 1_555 1_555
O29_3 C67_3 1_555 1_555
O52_2 C68_3 1_555 1_555
O54_2 C68_3 1_555 1_555
O55 C39_3 1_555 1_555
C61_3 C62_3 1_555 1_555
C62_3 H19_3 1_555 1_555
C63_3 C62_3 1_555 1_555
C64_3 C63_3 1_555 1_555
H20_3 C64_3 1_555 1_555
C65_3 C64_3 1_555 1_555
C66_3 C61_3 1_555 1_555
H21_3 C66_3 1_555 1_555
C67_3 C61_3 1_555 1_555
C68_3 C63_3 1_555 1_555
C69_3 C36_3 1_555 1_555
C70_3 C38_3 1_555 1_555
H22_3 C70_3 1_555 1_555
Eu17 O11_3 1_555 1_555
O44_2 Eu7 1_555 1_555
O46_2 Eu7 1_555 1_555
O51_2 Eu7 1_555 1_555
O53_2 Eu7 1_555 1_555
C5_3 C6_3 1_555 1_555
C25_3 C26_3 1_555 1_555
C31_3 C32_3 1_555 1_555
C38_3 C39_3 1_555 1_555
C45_3 C46_3 1_555 1_555
C45_3 C49_3 1_555 1_555
C49_3 C50_3 1_555 1_555
C55_3 C59_3 1_555 1_555
C59_3 C60_3 1_555 1_555
C65_3 C66_3 1_555 1_555
C65_3 C69_3 1_555 1_555
C69_3 C70_3 1_555 1_555
N1_3 H25_3 1_555 1_555
N1_3 H26_3 1_555 1_555
N2_3 H29_3 1_555 1_555
N2_3 H30_3 1_555 1_555
C24_3 H31_3 1_555 1_555
C60_3 H33_3 1_555 1_555
C40_3 O56_2 1_555 1_555
O33_3 C40_3 1_555 1_555
Eu13 O33_3 1_555 1_555
C40_3 H32_3 1_555 1_555
Eu7_2 O5_4 1_555 1_555
O5_4 C13_4 1_555 1_555
O40 C20_4 1_555 1_555
O42 C20_4 1_555 1_555
O43 C21_4 1_555 1_555
O45 C21_4 1_555 1_555
O10_4 Eu7_2 1_555 1_555
N3_4 C23_4 1_555 1_555
C13_4 C12_4 1_555 1_555
C14_4 C15_4 1_555 1_555
C15_4 H5_4 1_555 1_555
C16_4 C15_4 1_555 1_555
C17_4 C16_4 1_555 1_555
H6_4 C17_4 1_555 1_555
C18_4 C17_4 1_555 1_555
C19_4 C14_4 1_555 1_555
H7_4 C19_4 1_555 1_555
C20_4 C14_4 1_555 1_555
C21_4 C16_4 1_555 1_555
C22_4 C18_4 1_555 1_555
C23_4 C22_4 1_555 1_555
C24_4 C22_4 1_555 1_555
C25_4 C24_4 1_555 1_555
C26_4 O10_4 1_555 1_555
O38_2 C13_4 1_555 1_555
O47_2 C26_4 1_555 1_555
C54_4 C53_4 1_555 1_555
H17_4 C54_4 1_555 1_555
C55_4 C54_4 1_555 1_555
C56_4 C51_4 1_555 1_555
H18_4 C56_4 1_555 1_555
C59_4 C23_4 1_555 1_555
C60_4 C25_4 1_555 1_555
C18_4 C19_4 1_555 1_555
C25_4 C26_4 1_555 1_555
C55_4 C56_4 1_555 1_555
C55_4 C59_4 1_555 1_555
C59_4 C60_4 1_555 1_555
N3_4 H27_4 1_555 1_555
N3_4 H28_4 1_555 1_555
C24_4 H31_4 1_555 1_555
C60_4 H33_4 1_555 1_555
O36 C7_4 1_555 1_555
O11_4 C33_4 1_555 1_555
O50 C33_4 1_555 1_555
N2_4 C36_4 1_555 1_555
H3_4 C6_4 1_555 1_555
C11_4 C9_4 1_555 1_555
C27_4 C28_4 1_555 1_555
C29_4 C28_4 1_555 1_555
C30_4 C29_4 1_555 1_555
H9_4 C30_4 1_555 1_555
C31_4 C30_4 1_555 1_555
C32_4 C27_4 1_555 1_555
H10_4 C32_4 1_555 1_555
C33_4 C27_4 1_555 1_555
C35_4 C31_4 1_555 1_555
C36_4 C35_4 1_555 1_555
C37_4 C35_4 1_555 1_555
H11_4 C37_4 1_555 1_555
C38_4 C37_4 1_555 1_555
C39_4 O15_4 1_555 1_555
H14_4 C46_4 1_555 1_555
O48_2 C67_4 1_555 1_555
O29_4 C67_4 1_555 1_555
O52 C68_4 1_555 1_555
O54 C68_4 1_555 1_555
O55_2 C39_4 1_555 1_555
C61_4 C62_4 1_555 1_555
C62_4 H19_4 1_555 1_555
C63_4 C62_4 1_555 1_555
C64_4 C63_4 1_555 1_555
H20_4 C64_4 1_555 1_555
C65_4 C64_4 1_555 1_555
C66_4 C61_4 1_555 1_555
H21_4 C66_4 1_555 1_555
C67_4 C61_4 1_555 1_555
C68_4 C63_4 1_555 1_555
C69_4 C36_4 1_555 1_555
C70_4 C38_4 1_555 1_555
H22_4 C70_4 1_555 1_555
Eu15 O29_4 1_555 1_555
C31_4 C32_4 1_555 1_555
C38_4 C39_4 1_555 1_555
C49_4 C50_4 1_555 1_555
C65_4 C66_4 1_555 1_555
C65_4 C69_4 1_555 1_555
C69_4 C70_4 1_555 1_555
N2_4 H29_4 1_555 1_555
N2_4 H30_4 1_555 1_555
O24_4 C57_4 1_555 1_555
O44_2 C58_4 1_555 1_555
O46_2 C58_4 1_555 1_555
C52_4 H16_4 1_555 1_555
O24_4 Eu17 1_555 1_555
O51_2 C34_4 1_555 1_555
O53_2 C34_4 1_555 1_555
C40_4 O56 1_555 1_555
O19_4 C47_4 1_555 1_555
O33_4 C40_4 1_555 1_555
Eu15 O33_4 1_555 1_555
O19_4 Eu17 1_555 1_555
C40_4 H32_4 1_555 1_555
O37_2 C8_4 1_555 1_555
N1_4 C10_4 1_555 1_555
C1_4 C2_4 1_555 1_555
C2_4 H1_4 1_555 1_555
C3_4 C2_4 1_555 1_555
C4_4 C3_4 1_555 1_555
C5_4 C4_4 1_555 1_555
C8_4 C3_4 1_555 1_555
C44_4 C43_4 1_555 1_555
C45_4 C44_4 1_555 1_555
C48_4 C43_4 1_555 1_555
N1_4 H25_4 1_555 1_555
N1_4 H26_4 1_555 1_555
C42_4 H12_4 1_555 1_555
Eu10 O20_4 1_555 1_555
O34_3 Eu16 1_555 1_555
N3_3 H27_5 1_555 1_555
N3_3 H28_5 1_555 1_555
N1_3 H25_5 1_555 1_555
N1_3 H26_5 1_555 1_555
N2_3 H29_5 1_555 1_555
N2_3 H30_5 1_555 1_555
N3_4 H27_6 1_555 1_555
N3_4 H28_6 1_555 1_555
O17_4 Eu15 1_555 1_555
N2_4 H29_6 1_555 1_555
N2_4 H30_6 1_555 1_555
N1_4 H25_6 1_555 1_555
N1_4 H26_6 1_555 1_555
N1 H25_7 1_555 1_555
N1 H26_7 1_555 1_555
N2 H29_7 1_555 1_555
N2 H30_7 1_555 1_555
N3 H27_7 1_555 1_555
N3 H28_7 1_555 1_555
N1_2 H25_8 1_555 1_555
N1_2 H26_8 1_555 1_555
N2_2 H29_8 1_555 1_555
N2_2 H30_8 1_555 1_555
N3_2 H27_8 1_555 1_555
N3_2 H28_8 1_555 1_555

#END
