
###############################################################################
#
# This file contains modified crystal structure data generated from the
# MOF subset of the Cambridge Structural Database (CSD) v543 
# hosted by the Cambridge Crystallographic Data Centre (CCDC).
#
# This work is licensed under the Creative Commons
# Attribution-NonCommercial-ShareAlike 4.0 International License.
# To view a copy of this license, visit
# http://creativecommons.org/licenses/by-nc-sa/4.0/
# or send a letter to
# Creative Commons, PO Box 1866, Mountain View, CA 94042, USA.
#
# CIF created using the CSD Python API on 29 September 2022
# The structure has been converted into the P1 space group
# The structure has a 3D framework
# The original CSD entry AZUFAC is in the monoclinic crystal system
# The framework has been calculated to contain at least 10.0% void space
# The void calculation uses a probe of radius 1.32A, grid spacing 0.4
#
###############################################################################

data_AZUFAC
_chemical_formula_moiety         '(C88 H32 Au15 Cl40 N8 Tl4)n'
_symmetry_cell_setting           triclinic
_symmetry_space_group_name_H-M   'P 1'
_symmetry_Int_Tables_number      1
_space_group_name_Hall           'P 1'
loop_
_symmetry_equiv_pos_site_id
_symmetry_equiv_pos_as_xyz
1 x,y,z
_cell_length_a                   11.8147(3)
_cell_length_b                   22.2102(5)
_cell_length_c                   11.8448(3)
_cell_angle_alpha                90
_cell_angle_beta                 106.0959(12)
_cell_angle_gamma                90
_cell_volume                     2986.31
loop_
_atom_site_label
_atom_site_type_symbol
_atom_site_fract_x
_atom_site_fract_y
_atom_site_fract_z
H12 H 0.1539 0.1685 0.0498
Cl18 Cl 0.73326(17) 0.47085(9) 0.07529(17)
Tl5 Tl 0.25746(2) 0.009435(11) 0.03308(2)
Tl1 Tl 0.25746(2) 0.490565(11) 0.53308(2)
Au1 Au -0.0000 0.5000 0.5000
Au2 Au 0.5000 0.5000 0.5000
C1 C 0.0212(5) 0.5620(3) 0.6340(5)
C2 C 0.0711(4) 0.6191(3) 0.6278(5)
C3 C 0.0747(5) 0.6649(2) 0.7097(6)
C4 C 0.0261(5) 0.6548(3) 0.8019(6)
Cl1 Cl 0.12454(14) 0.63498(7) 0.50823(15)
Cl2 Cl 0.13659(16) 0.73361(7) 0.69654(17)
Cl3 Cl 0.02385(16) 0.71216(8) 0.89980(16)
C7 C 0.4356(5) 0.5108(2) 0.3206(6)
C8 C 0.3650(4) 0.5598(2) 0.2712(5)
C9 C 0.3144(5) 0.5667(3) 0.1503(6)
C10 C 0.3332(5) 0.5231(3) 0.0735(6)
C11 C 0.4025(5) 0.4736(3) 0.1175(6)
C12 C 0.4556(5) 0.4691(3) 0.2383(5)
Cl6 Cl 0.34162(14) 0.61576(7) 0.36438(16)
Cl7 Cl 0.23009(16) 0.62884(8) 0.09541(17)
Cl9 Cl 0.42405(17) 0.41828(8) 0.02319(16)
Cl10 Cl 0.54785(14) 0.40808(7) 0.29005(15)
N1 N 0.2381(4) 0.3735(2) 0.4511(5)
C13 C 0.2912(5) 0.3635(3) 0.3666(6)
H1 H 0.3248 0.3969 0.3376
C14 C 0.2999(6) 0.3079(3) 0.3195(6)
H2 H 0.3373 0.3035 0.2585
C15 C 0.2537(5) 0.2580(3) 0.3615(6)
C16 C 0.1971(6) 0.2680(3) 0.4480(6)
H3 H 0.1621 0.2354 0.4781
C17 C 0.1922(5) 0.3256(3) 0.4899(6)
H4 H 0.1539 0.3315 0.5498
N2 N 0.2781(4) 0.0835(2) 0.2178(5)
C18 C 0.3653(5) 0.1232(3) 0.2349(6)
H5 H 0.4341 0.1123 0.2131
C19 C 0.3610(5) 0.1793(3) 0.2825(6)
H6 H 0.4259 0.2060 0.2928
C20 C 0.2632(5) 0.1969(3) 0.3153(6)
C21 C 0.1726(5) 0.1551(3) 0.2990(6)
H7 H 0.1031 0.1645 0.3208
C22 C 0.1849(6) 0.0997(3) 0.2506(6)
H8 H 0.1222 0.0716 0.2404
C27 C 0.0232(5) 0.4009(3) 0.1860(5)
C28 C 0.0216(5) 0.4454(2) 0.2683(5)
Cl14 Cl 0.08571(16) 0.41306(8) 0.07260(16)
Cl15 Cl 0.08556(14) 0.51474(7) 0.25092(16)
N3 N 0.2381(4) 0.1265(2) 0.9511(5)
C29 C 0.2912(5) 0.1365(3) 0.8666(6)
H9 H 0.3248 0.1031 0.8376
C30 C 0.2999(6) 0.1921(3) 0.8195(6)
H10 H 0.3373 0.1965 0.7585
C31 C 0.2537(5) 0.2420(3) 0.8615(6)
C32 C 0.1971(6) 0.2320(3) 0.9480(6)
H11 H 0.1621 0.2646 0.9781
C33 C 0.1922(5) 0.1744(3) 0.9899(6)
N4 N 0.2781(4) 0.4165(2) 0.7178(5)
C34 C 0.3653(5) 0.3768(3) 0.7349(6)
H13 H 0.4341 0.3877 0.7131
C35 C 0.3610(5) 0.3207(3) 0.7825(6)
H14 H 0.4259 0.2940 0.7928
C36 C 0.2632(5) 0.3031(3) 0.8153(6)
C37 C 0.1726(5) 0.3449(3) 0.7990(6)
H15 H 0.1031 0.3355 0.8208
C38 C 0.1849(6) 0.4003(3) 0.7506(6)
H16 H 0.1222 0.4284 0.7404
C39 C 0.5644(5) 0.4892(2) 0.6794(6)
C40 C 0.6350(4) 0.4402(2) 0.7288(5)
C41 C 0.6856(5) 0.4333(3) 0.8497(6)
C42 C 0.6668(5) 0.4769(3) 0.9265(6)
C43 C 0.5975(5) 0.5264(3) 0.8825(6)
C44 C 0.5444(5) 0.5309(3) 0.7617(5)
Cl16 Cl 0.65838(14) 0.38424(7) 0.63562(16)
Cl17 Cl 0.76991(16) 0.37116(8) 0.90459(17)
Cl19 Cl 0.57595(17) 0.58172(8) 0.97681(16)
Cl20 Cl 0.45215(14) 0.59192(7) 0.70995(15)
Tl3 Tl 0.74254(2) 0.509435(11) 0.46692(2)
Cl8 Cl 0.26674(17) 0.52915(9) 0.92471(17)
Au1_2 Au 1.0000 0.5000 0.5000
C5 C 0.9768(5) 0.5991(3) 0.8140(5)
C6 C 0.9784(5) 0.5546(2) 0.7317(5)
Cl4 Cl 0.91429(16) 0.58694(8) 0.92740(16)
Cl5 Cl 0.91444(14) 0.48526(7) 0.74908(16)
C23 C 0.9788(5) 0.4380(3) 0.3660(5)
C24 C 0.9289(4) 0.3809(3) 0.3722(5)
C25 C 0.9253(5) 0.3351(2) 0.2903(6)
C26 C 0.9739(5) 0.3452(3) 0.1981(6)
Cl11 Cl 0.87546(14) 0.36502(7) 0.49177(15)
Cl12 Cl 0.86341(16) 0.26639(7) 0.30346(17)
Cl13 Cl 0.97615(16) 0.28784(8) 0.10020(16)
N5 N 0.7619(4) 0.6265(2) 0.5489(5)
N6 N 0.7219(4) 0.5835(2) 0.2822(5)
Au1_3 Au 0.0000 -0.0000 0.0000
Au2_2 Au 0.5000 -0.0000 0.0000
C39_2 C 0.5644(5) 0.0108(2) 0.1794(6)
C40_2 C 0.6350(4) 0.0598(2) 0.2288(5)
C41_2 C 0.6856(5) 0.0667(3) 0.3497(6)
C42_2 C 0.6668(5) 0.0231(3) 0.4265(6)
Cl16_2 Cl 0.65838(14) 0.11576(7) 0.13562(16)
Cl17_2 Cl 0.76991(16) 0.12884(8) 0.40459(17)
Cl18_2 Cl 0.73326(17) 0.02915(9) 0.57529(17)
Au1_4 Au 0.0000 -0.0000 1.0000
Au2_3 Au 0.5000 -0.0000 1.0000
C11_2 C 0.4025(5) 0.0264(3) 0.6175(6)
C12_2 C 0.4556(5) 0.0309(3) 0.7383(5)
Cl9_2 Cl 0.42405(17) 0.08172(8) 0.52319(16)
Cl10_2 Cl 0.54785(14) 0.09192(7) 0.79005(15)
C27_2 C 0.0232(5) 0.0991(3) 0.6860(5)
C28_2 C 0.0216(5) 0.0546(2) 0.7683(5)
Cl14_2 Cl 0.08571(16) 0.08694(8) 0.57260(16)
Au1_5 Au 0.0000 1.0000 0.0000
Au2_4 Au 0.5000 1.0000 0.0000
C1_2 C 0.0212(5) 0.9380(3) 0.1340(5)
C2_2 C 0.0711(4) 0.8809(3) 0.1278(5)
C3_2 C 0.0747(5) 0.8351(2) 0.2097(6)
C4_2 C 0.0261(5) 0.8452(3) 0.3019(6)
Cl1_2 Cl 0.12454(14) 0.86502(7) 0.00823(15)
Cl2_2 Cl 0.13659(16) 0.76639(7) 0.19654(17)
Cl3_2 Cl 0.02385(16) 0.78784(8) 0.39980(16)
C43_2 C 0.5975(5) 0.9736(3) 0.3825(6)
C44_2 C 0.5444(5) 0.9691(3) 0.2617(5)
Cl19_2 Cl 0.57595(17) 0.91828(8) 0.47681(16)
Cl20_2 Cl 0.45215(14) 0.90808(7) 0.20995(15)
Au1_6 Au 0.0000 1.0000 1.0000
Au2_5 Au 0.5000 1.0000 1.0000
C7_2 C 0.4356(5) 0.9892(2) 0.8206(6)
C8_2 C 0.3650(4) 0.9402(2) 0.7712(5)
C9_2 C 0.3144(5) 0.9333(3) 0.6503(6)
C10_2 C 0.3332(5) 0.9769(3) 0.5735(6)
Cl6_2 Cl 0.34162(14) 0.88424(7) 0.86438(16)
Cl7_2 Cl 0.23009(16) 0.87116(8) 0.59541(17)
Cl8_2 Cl 0.26674(17) 0.97085(9) 0.42471(17)
Cl15_2 Cl 0.08556(14) 0.98526(7) 0.75092(16)
Tl3_2 Tl 0.74254(2) 0.990565(11) 0.96692(2)
Au1_7 Au 1.0000 -0.0000 0.0000
Cl5_2 Cl 0.91444(14) 0.01474(7) 0.24908(16)
Au1_8 Au 1.0000 -0.0000 1.0000
C23_2 C 0.9788(5) 0.0620(3) 0.8660(5)
C24_2 C 0.9289(4) 0.1191(3) 0.8722(5)
C25_2 C 0.9253(5) 0.1649(2) 0.7903(6)
C26_2 C 0.9739(5) 0.1548(3) 0.6981(6)
Cl11_2 Cl 0.87546(14) 0.13498(7) 0.99177(15)
Cl12_2 Cl 0.86341(16) 0.23361(7) 0.80346(17)
Cl13_2 Cl 0.97615(16) 0.21216(8) 0.60020(16)
Au1_9 Au 1.0000 1.0000 0.0000
C5_2 C 0.9768(5) 0.9009(3) 0.3140(5)
C6_2 C 0.9784(5) 0.9454(2) 0.2317(5)
Cl4_2 Cl 0.91429(16) 0.91306(8) 0.42740(16)
N5_2 N 0.7619(4) 0.8735(2) 0.0489(5)
Au1_10 Au 1.0000 1.0000 1.0000
N6_2 N 0.7219(4) 0.9165(2) 0.7822(5)
C13_2 C 0.7088(5) 0.6365(3) 0.6334(6)
H1_2 H 0.6752 0.6031 0.6624
C14_2 C 0.7001(6) 0.6921(3) 0.6805(6)
H2_2 H 0.6627 0.6965 0.7415
C15_2 C 0.7463(5) 0.7420(3) 0.6385(6)
C16_2 C 0.8029(6) 0.7320(3) 0.5520(6)
H3_2 H 0.8379 0.7646 0.5219
C17_2 C 0.8078(5) 0.6744(3) 0.5101(6)
H4_2 H 0.8461 0.6685 0.4502
C18_2 C 0.6347(5) 0.8768(3) 0.7651(6)
H5_2 H 0.5659 0.8877 0.7869
C19_2 C 0.6390(5) 0.8207(3) 0.7175(6)
H6_2 H 0.5741 0.7940 0.7072
C20_2 C 0.7368(5) 0.8031(3) 0.6847(6)
C21_2 C 0.8274(5) 0.8449(3) 0.7010(6)
H7_2 H 0.8969 0.8355 0.6792
C22_2 C 0.8151(6) 0.9003(3) 0.7494(6)
H8_2 H 0.8778 0.9284 0.7596
C29_2 C 0.7088(5) 0.8635(3) 0.1334(6)
H9_2 H 0.6752 0.8969 0.1624
C30_2 C 0.7001(6) 0.8079(3) 0.1805(6)
H10_2 H 0.6627 0.8035 0.2415
C31_2 C 0.7463(5) 0.7580(3) 0.1385(6)
C32_2 C 0.8029(6) 0.7680(3) 0.0520(6)
H11_2 H 0.8379 0.7354 0.0219
C33_2 C 0.8078(5) 0.8256(3) 0.0101(6)
C34_2 C 0.6347(5) 0.6232(3) 0.2651(6)
H13_2 H 0.5659 0.6123 0.2869
C35_2 C 0.6390(5) 0.6793(3) 0.2175(6)
H14_2 H 0.5741 0.7060 0.2072
C36_2 C 0.7368(5) 0.6969(3) 0.1847(6)
C37_2 C 0.8274(5) 0.6551(3) 0.2010(6)
H15_2 H 0.8969 0.6645 0.1792
C38_2 C 0.8151(6) 0.5997(3) 0.2494(6)
H16_2 H 0.8778 0.5716 0.2596
H12_2 H 0.8461 0.8315 0.9502
loop_
_geom_bond_atom_site_label_1
_geom_bond_atom_site_label_2
_geom_bond_site_symmetry_1
_geom_bond_site_symmetry_2
Tl1 Au1 1_555 1_555
Au1 C1 1_555 1_555
Au2 Tl1 1_555 1_555
C1 C2 1_555 1_555
C2 C3 1_555 1_555
C3 C4 1_555 1_555
Cl1 C2 1_555 1_555
Cl2 C3 1_555 1_555
Cl3 C4 1_555 1_555
C7 Au2 1_555 1_555
C8 C7 1_555 1_555
C9 C8 1_555 1_555
C10 C9 1_555 1_555
C11 C10 1_555 1_555
C12 C7 1_555 1_555
Cl6 C8 1_555 1_555
Cl7 C9 1_555 1_555
Cl9 C11 1_555 1_555
Cl10 C12 1_555 1_555
N1 Tl1 1_555 1_555
C13 N1 1_555 1_555
H1 C13 1_555 1_555
C14 C13 1_555 1_555
H2 C14 1_555 1_555
C15 C14 1_555 1_555
C16 C15 1_555 1_555
H3 C16 1_555 1_555
C17 N1 1_555 1_555
H4 C17 1_555 1_555
N2 C18 1_555 1_555
C18 H5 1_555 1_555
C19 C18 1_555 1_555
H6 C19 1_555 1_555
C20 C15 1_555 1_555
C21 C20 1_555 1_555
H7 C21 1_555 1_555
C22 N2 1_555 1_555
H8 C22 1_555 1_555
Cl14 C27 1_555 1_555
Cl15 C28 1_555 1_555
N3 C29 1_555 1_555
C29 H9 1_555 1_555
C30 C29 1_555 1_555
H10 C30 1_555 1_555
C31 C30 1_555 1_555
C32 C31 1_555 1_555
H11 C32 1_555 1_555
C33 N3 1_555 1_555
N4 Tl1 1_555 1_555
C34 N4 1_555 1_555
H13 C34 1_555 1_555
C35 C34 1_555 1_555
H14 C35 1_555 1_555
C36 C31 1_555 1_555
C37 C36 1_555 1_555
H15 C37 1_555 1_555
C38 N4 1_555 1_555
H16 C38 1_555 1_555
C39 Au2 1_555 1_555
C40 C39 1_555 1_555
C41 C40 1_555 1_555
C42 C41 1_555 1_555
C43 C42 1_555 1_555
C44 C39 1_555 1_555
Cl16 C40 1_555 1_555
Cl17 C41 1_555 1_555
Cl19 C43 1_555 1_555
Cl20 C44 1_555 1_555
Tl3 Au2 1_555 1_555
Tl5 N2 1_555 1_555
C11 C12 1_555 1_555
C16 C17 1_555 1_555
C19 C20 1_555 1_555
C21 C22 1_555 1_555
C27 C28 1_555 1_555
C32 C33 1_555 1_555
C35 C36 1_555 1_555
C37 C38 1_555 1_555
C43 C44 1_555 1_555
C5 C6 1_555 1_555
Cl4 C5 1_555 1_555
Cl5 C6 1_555 1_555
C23 Au1_2 1_555 1_555
C24 C23 1_555 1_555
C25 C24 1_555 1_555
C26 C25 1_555 1_555
Cl11 C24 1_555 1_555
Cl12 C25 1_555 1_555
Cl13 C26 1_555 1_555
Tl3 Au1_2 1_555 1_555
N5 Tl3 1_555 1_555
N6 Tl3 1_555 1_555
Tl5 Au1_3 1_555 1_555
Au2_2 Tl5 1_555 1_555
C39_2 Au2_2 1_555 1_555
C40_2 C39_2 1_555 1_555
C41_2 C40_2 1_555 1_555
C42_2 C41_2 1_555 1_555
Cl16_2 C40_2 1_555 1_555
Cl17_2 C41_2 1_555 1_555
Cl18_2 C42_2 1_555 1_555
Cl9_2 C11_2 1_555 1_555
Cl10_2 C12_2 1_555 1_555
Cl14_2 C27_2 1_555 1_555
C11_2 C12_2 1_555 1_555
C27_2 C28_2 1_555 1_555
Au1_5 C1_2 1_555 1_555
C1_2 C2_2 1_555 1_555
C2_2 C3_2 1_555 1_555
C3_2 C4_2 1_555 1_555
Cl1_2 C2_2 1_555 1_555
Cl2_2 C3_2 1_555 1_555
Cl3_2 C4_2 1_555 1_555
Cl19_2 C43_2 1_555 1_555
Cl20_2 C44_2 1_555 1_555
C43_2 C44_2 1_555 1_555
C7_2 Au2_5 1_555 1_555
C8_2 C7_2 1_555 1_555
C9_2 C8_2 1_555 1_555
C10_2 C9_2 1_555 1_555
Cl6_2 C8_2 1_555 1_555
Cl7_2 C9_2 1_555 1_555
Cl8_2 C10_2 1_555 1_555
Tl3_2 Au2_5 1_555 1_555
C23_2 Au1_8 1_555 1_555
C24_2 C23_2 1_555 1_555
C25_2 C24_2 1_555 1_555
C26_2 C25_2 1_555 1_555
Cl11_2 C24_2 1_555 1_555
Cl12_2 C25_2 1_555 1_555
Cl13_2 C26_2 1_555 1_555
C5_2 C6_2 1_555 1_555
Cl4_2 C5_2 1_555 1_555
Tl3_2 Au1_10 1_555 1_555
N6_2 Tl3_2 1_555 1_555
C13_2 N5 1_555 1_555
H1_2 C13_2 1_555 1_555
C14_2 C13_2 1_555 1_555
H2_2 C14_2 1_555 1_555
C15_2 C14_2 1_555 1_555
C16_2 C15_2 1_555 1_555
H3_2 C16_2 1_555 1_555
C17_2 N5 1_555 1_555
H4_2 C17_2 1_555 1_555
N6_2 C18_2 1_555 1_555
C18_2 H5_2 1_555 1_555
C19_2 C18_2 1_555 1_555
H6_2 C19_2 1_555 1_555
C20_2 C15_2 1_555 1_555
C21_2 C20_2 1_555 1_555
H7_2 C21_2 1_555 1_555
C22_2 N6_2 1_555 1_555
H8_2 C22_2 1_555 1_555
N5_2 C29_2 1_555 1_555
C29_2 H9_2 1_555 1_555
C30_2 C29_2 1_555 1_555
H10_2 C30_2 1_555 1_555
C31_2 C30_2 1_555 1_555
C32_2 C31_2 1_555 1_555
H11_2 C32_2 1_555 1_555
C33_2 N5_2 1_555 1_555
C34_2 N6 1_555 1_555
H13_2 C34_2 1_555 1_555
C35_2 C34_2 1_555 1_555
H14_2 C35_2 1_555 1_555
C36_2 C31_2 1_555 1_555
C37_2 C36_2 1_555 1_555
H15_2 C37_2 1_555 1_555
C38_2 N6 1_555 1_555
H16_2 C38_2 1_555 1_555
C16_2 C17_2 1_555 1_555
C19_2 C20_2 1_555 1_555
C21_2 C22_2 1_555 1_555
C32_2 C33_2 1_555 1_555
C35_2 C36_2 1_555 1_555
C37_2 C38_2 1_555 1_555

#END
