
###############################################################################
#
# This file contains modified crystal structure data generated from the
# MOF subset of the Cambridge Structural Database (CSD) v543 
# hosted by the Cambridge Crystallographic Data Centre (CCDC).
#
# This work is licensed under the Creative Commons
# Attribution-NonCommercial-ShareAlike 4.0 International License.
# To view a copy of this license, visit
# http://creativecommons.org/licenses/by-nc-sa/4.0/
# or send a letter to
# Creative Commons, PO Box 1866, Mountain View, CA 94042, USA.
#
# CIF created using the CSD Python API on 29 September 2022
# The structure has been converted into the P1 space group
# The structure has a 3D framework
# The original CSD entry AZUFIK is in the triclinic crystal system
# The framework has been calculated to contain at least 10.0% void space
# The void calculation uses a probe of radius 1.32A, grid spacing 0.4
#
###############################################################################

data_AZUFIK
_chemical_formula_moiety         '(C44 H16 Au11 Cl20 N4 Tl2)n'
_symmetry_cell_setting           triclinic
_symmetry_space_group_name_H-M   'P 1'
_symmetry_Int_Tables_number      1
_space_group_name_Hall           'P 1'
loop_
_symmetry_equiv_pos_site_id
_symmetry_equiv_pos_as_xyz
1 x,y,z
_cell_length_a                   11.9316(2)
_cell_length_b                   12.6350(3)
_cell_length_c                   13.2072(3)
_cell_angle_alpha                110.3043(10)
_cell_angle_beta                 97.8932(10)
_cell_angle_gamma                107.9319(10)
_cell_volume                     1708.83
loop_
_atom_site_label
_atom_site_type_symbol
_atom_site_fract_x
_atom_site_fract_y
_atom_site_fract_z
Au3 Au 0.0000 0.0000 0.0000
Au3_2 Au 0.0000 -0.0000 1.0000
Au3_3 Au 0.0000 1.0000 0.0000
Au3_4 Au 0.0000 1.0000 1.0000
Tl1 Tl 0.27179(2) 0.03887(2) 0.068935(19)
Au1 Au 0.5000 0.0000 0.0000
C1 C 0.6103(5) 0.1816(6) 0.0794(5)
C2 C 0.5935(5) 0.2688(6) 0.0427(5)
C3 C 0.6720(6) 0.3928(6) 0.0923(5)
C4 C 0.7718(6) 0.4341(6) 0.1827(5)
C5 C 0.7922(6) 0.3525(6) 0.2235(5)
C6 C 0.7125(6) 0.2287(5) 0.1711(5)
Cl2 Cl 0.6463(2) 0.49290(19) 0.0401(2)
Cl3 Cl 0.8689(2) 0.58424(16) 0.24331(16)
Cl4 Cl 0.91900(18) 0.40160(17) 0.33353(15)
Cl5 Cl 0.74657(16) 0.12787(16) 0.22037(13)
C8 C 0.0633(5) 0.1440(6) 0.2538(5)
C9 C 0.0456(6) 0.1689(6) 0.3611(5)
Cl6 Cl 0.17092(16) 0.25774(15) 0.23406(14)
Cl7 Cl 0.1305(2) 0.3108(2) 0.46996(14)
N1 N 0.3675(6) 0.0578(6) 0.2775(4)
C13 C 0.4641(7) 0.0284(8) 0.2806(6)
H1 H 0.4983 0.0215 0.2188
C14 C 0.5191(7) 0.0070(8) 0.3640(6)
C15 C 0.4725(6) 0.0123(6) 0.4538(5)
C16 C 0.3739(9) 0.0431(12) 0.4517(7)
H3 H 0.3373 0.0489 0.5118
C17 C 0.3248(10) 0.0666(12) 0.3656(8)
H4 H 0.2568 0.0903 0.3698
H12 H 0.4098 0.0116 0.6398
Au3_5 Au 1.0000 0.0000 0.0000
Au1_2 Au 0.5000 -0.0000 1.0000
Cl1 Cl 0.46939(18) 0.22061(18) 0.92902(17)
C43 C 0.1060(6) 0.0329(6) 0.7070(5)
C44 C 0.0844(6) 0.0557(6) 0.8117(4)
Cl19 Cl 0.21565(19) 0.14233(19) 0.68524(16)
Cl20 Cl 0.16513(16) 0.20166(15) 0.91765(13)
Au3_6 Au 1.0000 -0.0000 1.0000
N6 N 0.8378(6) 0.1876(6) 0.9419(5)
Au1_3 Au 0.5000 1.0000 0.0000
H2 H 0.5902 0.9884 0.3602
N2 N 0.1622(6) 0.8124(6) 0.0581(5)
C20 C 0.0325(7) 0.5640(7) 0.0115(6)
C21 C 0.1301(11) 0.6392(10) 0.1024(10)
H7 H 0.1579 0.6078 0.1522
C22 C 0.1900(10) 0.7611(9) 0.1240(10)
H8 H 0.2554 0.8107 0.1906
C23 C 0.5275(6) 0.9877(6) 0.5462(5)
C24 C 0.4809(7) 0.9930(8) 0.6360(6)
C25 C 0.5359(7) 0.9716(8) 0.7194(6)
N3 N 0.6325(6) 0.9422(6) 0.7225(4)
C26 C 0.6752(10) 0.9334(12) 0.6344(8)
C27 C 0.6261(9) 0.9569(12) 0.5483(7)
H9 H 0.6627 0.9511 0.4882
H10 H 0.7432 0.9097 0.6302
H11 H 0.5017 0.9785 0.7812
H16 H 0.0627 0.4315 0.1241
Cl11 Cl 0.53061(18) 0.77939(18) 0.07098(17)
Tl4 Tl 0.72821(2) 0.96113(2) 0.931065(19)
Au3_7 Au 1.0000 1.0000 0.0000
Au1_4 Au 0.5000 1.0000 1.0000
C18 C 0.0673(7) 0.7382(6) 0.9680(6)
H5 H 0.0425 0.7710 0.9183
C19 C 0.0030(7) 0.6164(6) 0.9425(6)
C33 C 0.3897(5) 0.8184(6) 0.9206(5)
C34 C 0.4065(5) 0.7312(6) 0.9573(5)
C35 C 0.3280(6) 0.6072(6) 0.9077(5)
C36 C 0.2282(6) 0.5659(6) 0.8173(5)
C37 C 0.2078(6) 0.6475(6) 0.7765(5)
C38 C 0.2875(6) 0.7713(5) 0.8289(5)
Cl12 Cl 0.3537(2) 0.50710(19) 0.9599(2)
Cl13 Cl 0.1311(2) 0.41576(16) 0.75669(16)
Cl14 Cl 0.08100(18) 0.59840(17) 0.66647(15)
Cl15 Cl 0.25343(16) 0.87213(16) 0.77963(13)
C39 C 0.0031(5) 0.9679(5) 0.8362(4)
C42 C 0.0404(6) 0.9181(6) 0.6205(5)
Cl18 Cl 0.0694(2) 0.8840(2) 0.49068(15)
Au3_8 Au 1.0000 1.0000 1.0000
C7 C 0.9969(5) 0.0321(5) 0.1638(4)
C10 C 0.9596(6) 0.0819(6) 0.3795(5)
Cl8 Cl 0.9306(2) 0.1160(2) 0.50932(15)
C11 C 0.8940(6) 0.9671(6) 0.2930(5)
C12 C 0.9156(6) 0.9443(6) 0.1883(4)
Cl9 Cl 0.78435(19) 0.85767(19) 0.31476(16)
Cl10 Cl 0.83487(16) 0.79834(15) 0.08235(13)
C29 C 0.9970(7) 0.3836(6) 0.0575(6)
C30 C 0.9327(7) 0.2618(6) 0.0320(6)
H15 H 0.9575 0.2290 0.0817
H6 H 0.9373 0.5685 0.8759
C28 C 0.9675(7) 0.4360(7) 0.9885(6)
C31 C 0.8100(10) 0.2389(9) 0.8760(10)
C32 C 0.8699(11) 0.3608(10) 0.8976(10)
H13 H 0.8421 0.3922 0.8478
H14 H 0.7446 0.1893 0.8094
C40 C 0.9367(5) 0.8560(6) 0.7462(5)
C41 C 0.9544(6) 0.8311(6) 0.6389(5)
Cl16 Cl 0.82908(16) 0.74226(15) 0.76594(14)
Cl17 Cl 0.8695(2) 0.6892(2) 0.53004(14)
loop_
_geom_bond_atom_site_label_1
_geom_bond_atom_site_label_2
_geom_bond_site_symmetry_1
_geom_bond_site_symmetry_2
Tl1 Au1 1_555 1_555
Au1 C1 1_555 1_555
Au3 Tl1 1_555 1_555
C1 C2 1_555 1_555
C2 C3 1_555 1_555
C3 C4 1_555 1_555
C4 C5 1_555 1_555
C5 C6 1_555 1_555
C6 C1 1_555 1_555
Cl2 C3 1_555 1_555
Cl3 C4 1_555 1_555
Cl4 C5 1_555 1_555
Cl5 C6 1_555 1_555
C9 C8 1_555 1_555
Cl6 C8 1_555 1_555
Cl7 C9 1_555 1_555
N1 Tl1 1_555 1_555
C13 N1 1_555 1_555
H1 C13 1_555 1_555
C14 C13 1_555 1_555
C15 C14 1_555 1_555
C16 C15 1_555 1_555
H3 C16 1_555 1_555
C17 N1 1_555 1_555
H4 C17 1_555 1_555
C16 C17 1_555 1_555
Cl19 C43 1_555 1_555
Cl20 C44 1_555 1_555
C43 C44 1_555 1_555
C21 C20 1_555 1_555
H7 C21 1_555 1_555
C22 N2 1_555 1_555
H8 C22 1_555 1_555
C24 C23 1_555 1_555
C25 C24 1_555 1_555
N3 C25 1_555 1_555
C26 N3 1_555 1_555
C27 C23 1_555 1_555
H9 C27 1_555 1_555
H10 C26 1_555 1_555
H11 C25 1_555 1_555
Tl4 N3 1_555 1_555
C21 C22 1_555 1_555
C26 C27 1_555 1_555
H5 C18 1_555 1_555
C19 C18 1_555 1_555
C33 Au1_4 1_555 1_555
C34 C33 1_555 1_555
C35 C34 1_555 1_555
C36 C35 1_555 1_555
C37 C36 1_555 1_555
C38 C33 1_555 1_555
Cl12 C35 1_555 1_555
Cl13 C36 1_555 1_555
Cl14 C37 1_555 1_555
Cl15 C38 1_555 1_555
Tl4 Au1_4 1_555 1_555
C39 Au3_4 1_555 1_555
Cl18 C42 1_555 1_555
Au3_8 Tl4 1_555 1_555
C37 C38 1_555 1_555
C7 Au3_5 1_555 1_555
Cl8 C10 1_555 1_555
Cl9 C11 1_555 1_555
Cl10 C12 1_555 1_555
C30 C29 1_555 1_555
H15 C30 1_555 1_555
C11 C12 1_555 1_555
C31 N6 1_555 1_555
C32 C28 1_555 1_555
H13 C32 1_555 1_555
H14 C31 1_555 1_555
C41 C40 1_555 1_555
Cl16 C40 1_555 1_555
Cl17 C41 1_555 1_555
C31 C32 1_555 1_555

#END
