
###############################################################################
#
# This file contains modified crystal structure data generated from the
# MOF subset of the Cambridge Structural Database (CSD) v543 
# hosted by the Cambridge Crystallographic Data Centre (CCDC).
#
# This work is licensed under the Creative Commons
# Attribution-NonCommercial-ShareAlike 4.0 International License.
# To view a copy of this license, visit
# http://creativecommons.org/licenses/by-nc-sa/4.0/
# or send a letter to
# Creative Commons, PO Box 1866, Mountain View, CA 94042, USA.
#
# CIF created using the CSD Python API on 29 September 2022
# The structure has been converted into the P1 space group
# The structure has a 3D framework
# The original CSD entry AZUFEG is in the monoclinic crystal system
# The framework has been calculated to contain at least 10.0% void space
# The void calculation uses a probe of radius 1.32A, grid spacing 0.4
#
###############################################################################

data_AZUFEG
_chemical_formula_moiety         '(C172 H80 Au8 Cl80 N12 O4 Tl8)n'
_symmetry_cell_setting           triclinic
_symmetry_space_group_name_H-M   'P 1'
_symmetry_Int_Tables_number      1
_space_group_name_Hall           'P 1'
loop_
_symmetry_equiv_pos_site_id
_symmetry_equiv_pos_as_xyz
1 x,y,z
_cell_length_a                   11.8776(2)
_cell_length_b                   36.5372(5)
_cell_length_c                   15.6912(2)
_cell_angle_alpha                90
_cell_angle_beta                 106.1219(9)
_cell_angle_gamma                90
_cell_volume                     6541.78
loop_
_atom_site_label
_atom_site_type_symbol
_atom_site_fract_x
_atom_site_fract_y
_atom_site_fract_z
Tl8 Tl 0.05677(4) 0.861646(15) 0.82599(3)
Cl33 Cl 0.8242(4) 0.01079(13) 0.5416(3)
Cl34 Cl 0.7569(4) 0.02656(12) 0.7166(3)
C83 C 0.7698(7) 0.8033(3) 0.0308(6)
C84 C 0.7845(9) 0.7679(3) 0.0004(6)
Cl36 Cl 0.7521(3) 0.87575(10) 0.01831(18)
Cl37 Cl 0.7373(3) 0.80700(12) 0.13073(18)
Cl38 Cl 0.7687(3) 0.72951(11) 0.0592(2)
Tl2 Tl 0.05677(4) 0.638354(15) 0.32599(3)
O1 O 0.1115(9) 0.6010(3) 0.4785(7)
C40 C 0.0613(19) 0.5659(7) 0.4623(14)
H13 H 0.1128 0.5492 0.4428
C41 C 0.046(2) 0.5543(8) 0.5484(16)
H16 H 0.1019 0.5351 0.5738
C42 C 0.065(2) 0.5853(8) 0.6065(17)
H17 H 0.1261 0.5796 0.6604
C43 C 0.1012(19) 0.6182(7) 0.5621(13)
H19 H 0.0418 0.6372 0.5506
H20 H 0.1754 0.6282 0.5968
N5 N 0.4932(7) 0.8426(3) 0.6617(5)
C49 C 0.3851(9) 0.8464(3) 0.6068(6)
H25 H 0.3501 0.8693 0.6018
C50 C 0.3224(9) 0.8177(3) 0.5566(7)
H26 H 0.2476 0.8217 0.5194
C51 C 0.3716(8) 0.7836(3) 0.5624(6)
C52 C 0.4827(9) 0.7792(3) 0.6187(7)
H27 H 0.5191 0.7564 0.6243
C53 C 0.5398(10) 0.8087(4) 0.6668(8)
H28 H 0.6144 0.8051 0.7047
N6 N 0.1591(8) 0.6939(3) 0.4303(6)
C54 C 0.2583(10) 0.6879(4) 0.4944(7)
H29 H 0.2804 0.6639 0.5101
C55 C 0.3287(9) 0.7157(4) 0.5381(7)
H30 H 0.3959 0.7103 0.5832
C56 C 0.3004(9) 0.7515(3) 0.5153(7)
C57 C 0.1993(9) 0.7580(3) 0.4472(7)
H31 H 0.1776 0.7817 0.4286
C58 C 0.1321(10) 0.7289(4) 0.4079(7)
H32 H 0.0638 0.7336 0.3632
Tl3 Tl 0.54693(4) 0.887133(14) 0.79968(3)
Au3 Au 0.29361(4) 0.637655(14) 0.29464(3)
C59 C 0.2877(8) 0.5830(3) 0.3236(6)
C60 C 0.3395(8) 0.5689(3) 0.4081(7)
C61 C 0.3313(10) 0.5335(4) 0.4342(8)
C62 C 0.2663(11) 0.5084(4) 0.3695(7)
C63 C 0.2102(10) 0.5214(3) 0.2828(8)
C64 C 0.2222(10) 0.5574(3) 0.2622(7)
Cl21 Cl 0.4238(3) 0.59810(11) 0.48815(19)
Cl22 Cl 0.3905(4) 0.51847(13) 0.5401(3)
Cl23 Cl 0.2516(4) 0.46373(13) 0.3966(4)
Cl24 Cl 0.1318(4) 0.49133(13) 0.2046(3)
Cl25 Cl 0.1524(3) 0.57294(11) 0.1563(2)
C65 C 0.2944(7) 0.6937(3) 0.2711(6)
C66 C 0.3864(8) 0.7154(3) 0.3186(5)
C67 C 0.3871(9) 0.7529(3) 0.3102(6)
C68 C 0.2918(8) 0.7707(3) 0.2526(7)
C69 C 0.1982(9) 0.7497(3) 0.2039(6)
C70 C 0.2018(8) 0.7117(3) 0.2125(6)
Cl26 Cl 0.5058(2) 0.69526(9) 0.39394(18)
Cl27 Cl 0.5036(3) 0.77863(10) 0.3706(2)
Cl28 Cl 0.2895(3) 0.81762(10) 0.2428(2)
Cl29 Cl 0.0784(3) 0.77107(10) 0.1336(2)
Cl30 Cl 0.0854(2) 0.68637(10) 0.14825(19)
Au4 Au 0.80026(4) 0.874494(14) 0.81465(3)
C75 C 0.7989(7) 0.9167(3) 0.7285(6)
C76 C 0.8226(7) 0.9113(3) 0.6464(6)
C77 C 0.8291(8) 0.9397(4) 0.5895(7)
C78 C 0.8130(10) 0.9750(3) 0.6132(7)
C79 C 0.7879(12) 0.9820(3) 0.6916(8)
C80 C 0.7834(10) 0.9533(3) 0.7475(7)
Cl31 Cl 0.8355(3) 0.86658(11) 0.6122(2)
Cl32 Cl 0.8569(3) 0.93067(14) 0.4884(2)
Cl35 Cl 0.7489(3) 0.96337(10) 0.8460(2)
C81 C 0.8010(7) 0.8301(3) 0.8971(5)
C82 C 0.7773(6) 0.8330(3) 0.9792(6)
C85 C 0.8118(9) 0.7643(3) 0.9190(6)
C86 C 0.8187(9) 0.7949(3) 0.8705(6)
Cl39 Cl 0.8331(3) 0.72085(10) 0.8828(2)
Cl40 Cl 0.8496(2) 0.78885(9) 0.76960(16)
Au5 Au 0.29361(4) 0.862345(14) 0.79464(3)
N7 N 0.4948(8) 0.9321(3) 0.6609(6)
Tl7 Tl 0.54693(4) 0.612867(14) 0.29968(3)
Au1 Au 0.80026(4) 0.625506(14) 0.31465(3)
C13 C 0.7989(7) 0.5833(3) 0.2285(6)
C14 C 0.8226(7) 0.5887(3) 0.1464(6)
C15 C 0.8291(8) 0.5603(4) 0.0895(7)
C16 C 0.8130(10) 0.5250(3) 0.1132(7)
C17 C 0.7879(12) 0.5180(3) 0.1916(8)
C18 C 0.7834(10) 0.5467(3) 0.2475(7)
Cl11 Cl 0.8355(3) 0.63342(11) 0.1122(2)
Cl13 Cl 0.8242(4) 0.48921(13) 0.0416(3)
Cl14 Cl 0.7569(4) 0.47344(12) 0.2166(3)
Cl15 Cl 0.7489(3) 0.53663(10) 0.3460(2)
C19 C 0.8010(7) 0.6699(3) 0.3971(5)
C20 C 0.7773(6) 0.6670(3) 0.4792(6)
C21 C 0.7698(7) 0.6967(3) 0.5308(6)
C22 C 0.7845(9) 0.7321(3) 0.5004(6)
C23 C 0.8118(9) 0.7357(3) 0.4190(6)
C24 C 0.8187(9) 0.7051(3) 0.3705(6)
Cl16 Cl 0.7521(3) 0.62425(10) 0.51831(18)
Cl17 Cl 0.7373(3) 0.69300(12) 0.63073(18)
Cl18 Cl 0.7687(3) 0.77049(11) 0.5592(2)
Cl19 Cl 0.8331(3) 0.77915(10) 0.3828(2)
Cl20 Cl 0.8496(2) 0.71115(9) 0.26960(16)
N1 N 0.4932(7) 0.6574(3) 0.1617(5)
C25 C 0.3851(9) 0.6536(3) 0.1068(6)
H1 H 0.3501 0.6307 0.1018
C26 C 0.3224(9) 0.6823(3) 0.0566(7)
H2 H 0.2476 0.6783 0.0194
C27 C 0.3716(8) 0.7164(3) 0.0624(6)
C28 C 0.4827(9) 0.7208(3) 0.1187(7)
H3 H 0.5191 0.7436 0.1243
C29 C 0.5398(10) 0.6913(4) 0.1668(8)
H4 H 0.6144 0.6949 0.2047
N2 N 0.4948(8) 0.5679(3) 0.1609(6)
C30 C 0.4658(10) 0.5335(4) 0.1698(8)
H5 H 0.4424 0.5274 0.2198
C31 C 0.5273(10) 0.5501(4) 0.0231(7)
C32 C 0.4981(9) 0.5142(3) 0.0338(7)
C33 C 0.4678(11) 0.5060(4) 0.1099(7)
H7 H 0.4487 0.4822 0.1211
C34 C 0.5248(10) 0.5756(4) 0.0870(7)
H8 H 0.5451 0.5996 0.0782
H9 H 0.2804 0.8361 0.0101
C36 C 0.3287(9) 0.7843(4) 0.0381(7)
H10 H 0.3959 0.7897 0.0832
C37 C 0.3004(9) 0.7485(3) 0.0153(7)
H14 H 0.9864 0.5668 0.4174
H15 H 0.9678 0.5448 0.5405
H18 H 0.9939 0.5907 0.6226
H21 H 0.4513 0.4429 0.0272
C72 C 0.046(2) 0.9457(8) 0.0484(16)
H36 H 0.1019 0.9649 0.0738
C73 C 0.065(2) 0.9147(8) 0.1065(17)
H37 H 0.1261 0.9204 0.1604
C74 C 0.1012(19) 0.8818(7) 0.0621(13)
H39 H 0.0418 0.8628 0.0506
H40 H 0.1754 0.8718 0.0968
Cl12 Cl 0.8569(3) 0.56933(14) 0.9884(2)
H6 H 0.5487 0.5571 0.9728
N3 N 0.1591(8) 0.8061(3) 0.9303(6)
C35 C 0.2583(10) 0.8121(4) 0.9944(7)
C38 C 0.1993(9) 0.7420(3) 0.9472(7)
H11 H 0.1776 0.7183 0.9286
C39 C 0.1321(10) 0.7711(4) 0.9079(7)
H12 H 0.0638 0.7664 0.8632
C44 C 0.5019(9) 0.4858(3) 0.9662(7)
C45 C 0.4727(10) 0.4499(4) 0.9769(7)
C46 C 0.4752(10) 0.4244(4) 0.9130(7)
N4 N 0.5052(8) 0.4321(3) 0.8391(6)
C47 C 0.5342(10) 0.4665(4) 0.8302(8)
H22 H 0.5576 0.4726 0.7802
C48 C 0.5322(11) 0.4940(4) 0.8901(7)
H23 H 0.5513 0.5178 0.8789
H24 H 0.4549 0.4004 0.9218
O2 O 0.1115(9) 0.8990(3) 0.9785(7)
C71 C 0.0613(19) 0.9341(7) 0.9623(14)
H33 H 0.1128 0.9508 0.9428
Tl6 Tl 0.45307(4) 0.387133(14) 0.70032(3)
H35 H 0.9678 0.9552 0.0405
H38 H 0.9939 0.9093 0.1226
H34 H 0.9864 0.9332 0.9174
Cl23_2 Cl 0.2516(4) 0.03627(13) 0.8966(4)
Cl24_2 Cl 0.1318(4) 0.00867(13) 0.7046(3)
Cl22_2 Cl 0.3905(4) 0.98153(13) 0.0401(3)
C59_2 C 0.2877(8) 0.9170(3) 0.8236(6)
C60_2 C 0.3395(8) 0.9311(3) 0.9081(7)
C61_2 C 0.3313(10) 0.9665(4) 0.9342(8)
C62_2 C 0.2663(11) 0.9916(4) 0.8695(7)
C63_2 C 0.2102(10) 0.9786(3) 0.7828(8)
C64_2 C 0.2222(10) 0.9426(3) 0.7622(7)
Cl21_2 Cl 0.4238(3) 0.90190(11) 0.98815(19)
Cl25_2 Cl 0.1524(3) 0.92706(11) 0.6563(2)
C65_2 C 0.2944(7) 0.8063(3) 0.7711(6)
C66_2 C 0.3864(8) 0.7846(3) 0.8186(5)
C67_2 C 0.3871(9) 0.7471(3) 0.8102(6)
C68_2 C 0.2918(8) 0.7293(3) 0.7526(7)
C69_2 C 0.1982(9) 0.7503(3) 0.7039(6)
C70_2 C 0.2018(8) 0.7883(3) 0.7125(6)
Cl26_2 Cl 0.5058(2) 0.80474(9) 0.89394(18)
Cl27_2 Cl 0.5036(3) 0.72137(10) 0.8706(2)
Cl28_2 Cl 0.2895(3) 0.68238(10) 0.7428(2)
Cl29_2 Cl 0.0784(3) 0.72893(10) 0.6336(2)
Cl30_2 Cl 0.0854(2) 0.81363(10) 0.64825(19)
H7_2 H 0.4487 0.0178 0.6211
C44_2 C 0.5019(9) 0.0142(3) 0.4662(7)
C45_2 C 0.4727(10) 0.0501(4) 0.4769(7)
H21_2 H 0.4513 0.0571 0.5272
C46_2 C 0.4752(10) 0.0756(4) 0.4130(7)
N4_2 N 0.5052(8) 0.0679(3) 0.3391(6)
C47_2 C 0.5342(10) 0.0335(4) 0.3302(8)
H22_2 H 0.5576 0.0274 0.2802
C48_2 C 0.5322(11) 0.0060(4) 0.3901(7)
H24_2 H 0.4549 0.0996 0.4218
Tl6_2 Tl 0.45307(4) 0.112867(14) 0.20032(3)
C30_2 C 0.4658(10) 0.9665(4) 0.6698(8)
H5_2 H 0.4424 0.9726 0.7198
C31_2 C 0.5273(10) 0.9499(4) 0.5231(7)
H6_2 H 0.5487 0.9429 0.4728
C32_2 C 0.4981(9) 0.9858(3) 0.5338(7)
C33_2 C 0.4678(11) 0.9940(4) 0.6099(7)
C34_2 C 0.5248(10) 0.9244(4) 0.5870(7)
H8_2 H 0.5451 0.9004 0.5782
H23_2 H 0.5513 0.9822 0.3789
H34_2 H 0.0136 0.0668 0.0826
Au6 Au 0.19974(4) 0.125506(14) 0.18535(3)
H35_2 H 0.0322 0.0448 0.9595
H38_2 H 0.0061 0.0907 0.8774
Cl12_2 Cl 0.1431(3) 0.43067(14) 0.0116(2)
N3_2 N 0.8409(8) 0.1939(3) 0.0697(6)
C35_2 C 0.7417(10) 0.1879(4) 0.0056(7)
C38_2 C 0.8007(9) 0.2580(3) 0.0528(7)
H11_2 H 0.8224 0.2817 0.0714
C39_2 C 0.8679(10) 0.2289(4) 0.0921(7)
H12_2 H 0.9362 0.2336 0.1368
Tl4 Tl 0.94323(4) 0.138354(15) 0.17401(3)
O2_2 O 0.8885(9) 0.1010(3) 0.0215(7)
C71_2 C 0.9387(19) 0.0659(7) 0.0377(14)
H33_2 H 0.8872 0.0492 0.0572
Au7 Au 0.70639(4) 0.137655(14) 0.20536(3)
Au1_2 Au 0.19974(4) 0.374494(14) 0.68535(3)
Au2 Au 0.70639(4) 0.362345(14) 0.70536(3)
C1 C 0.7123(8) 0.4170(3) 0.6764(6)
C2 C 0.6605(8) 0.4311(3) 0.5919(7)
C3 C 0.6687(10) 0.4665(4) 0.5658(8)
C4 C 0.7337(11) 0.4916(4) 0.6305(7)
C5 C 0.7898(10) 0.4786(3) 0.7172(8)
C6 C 0.7778(10) 0.4426(3) 0.7378(7)
Cl1 Cl 0.5762(3) 0.40190(11) 0.51185(19)
Cl2 Cl 0.6095(4) 0.48153(13) 0.4599(3)
Cl3 Cl 0.7484(4) 0.53627(13) 0.6034(4)
Cl4 Cl 0.8682(4) 0.50867(13) 0.7954(3)
Cl5 Cl 0.8476(3) 0.42706(11) 0.8437(2)
C7 C 0.7056(7) 0.3063(3) 0.7289(6)
C8 C 0.6136(8) 0.2846(3) 0.6814(5)
C9 C 0.6129(9) 0.2471(3) 0.6898(6)
C10 C 0.7082(8) 0.2293(3) 0.7474(7)
C11 C 0.8018(9) 0.2503(3) 0.7961(6)
C12 C 0.7982(8) 0.2883(3) 0.7875(6)
Cl6 Cl 0.4942(2) 0.30474(9) 0.60606(18)
Cl7 Cl 0.4964(3) 0.22137(10) 0.6294(2)
Cl8 Cl 0.7105(3) 0.18238(10) 0.7572(2)
Cl9 Cl 0.9216(3) 0.22893(10) 0.8664(2)
Cl10 Cl 0.9146(2) 0.31363(10) 0.85175(19)
C13_2 C 0.2011(7) 0.4167(3) 0.7715(6)
C14_2 C 0.1774(7) 0.4113(3) 0.8536(6)
C15_2 C 0.1709(8) 0.4397(4) 0.9105(7)
C16_2 C 0.1870(10) 0.4750(3) 0.8868(7)
C17_2 C 0.2121(12) 0.4820(3) 0.8084(8)
C18_2 C 0.2166(10) 0.4533(3) 0.7525(7)
Cl11_2 Cl 0.1645(3) 0.36658(11) 0.8878(2)
Cl13_2 Cl 0.1758(4) 0.51079(13) 0.9584(3)
Cl14_2 Cl 0.2431(4) 0.52656(12) 0.7834(3)
Cl15_2 Cl 0.2511(3) 0.46337(10) 0.6540(2)
C19_2 C 0.1990(7) 0.3301(3) 0.6029(5)
C20_2 C 0.2227(6) 0.3330(3) 0.5208(6)
C21_2 C 0.2302(7) 0.3033(3) 0.4692(6)
C22_2 C 0.2155(9) 0.2679(3) 0.4996(6)
C23_2 C 0.1882(9) 0.2643(3) 0.5810(6)
C24_2 C 0.1813(9) 0.2949(3) 0.6295(6)
Cl16_2 Cl 0.2479(3) 0.37575(10) 0.48169(18)
Cl17_2 Cl 0.2627(3) 0.30700(12) 0.36927(18)
Cl18_2 Cl 0.2313(3) 0.22951(11) 0.4408(2)
Cl19_2 Cl 0.1669(3) 0.22085(10) 0.6172(2)
Cl20_2 Cl 0.1504(2) 0.28885(9) 0.73040(16)
N1_2 N 0.5068(7) 0.3426(3) 0.8383(5)
C25_2 C 0.6149(9) 0.3464(3) 0.8932(6)
H1_2 H 0.6499 0.3693 0.8982
C26_2 C 0.6776(9) 0.3177(3) 0.9434(7)
H2_2 H 0.7524 0.3217 0.9806
C27_2 C 0.6284(8) 0.2836(3) 0.9376(6)
C28_2 C 0.5173(9) 0.2792(3) 0.8813(7)
H3_2 H 0.4809 0.2564 0.8757
C29_2 C 0.4602(10) 0.3087(4) 0.8332(8)
H4_2 H 0.3856 0.3051 0.7953
H9_2 H 0.7196 0.1639 0.9899
C36_2 C 0.6713(9) 0.2157(4) 0.9619(7)
H10_2 H 0.6041 0.2103 0.9168
C37_2 C 0.6996(9) 0.2515(3) 0.9847(7)
H14_2 H 0.0136 0.4332 0.5826
H15_2 H 0.0322 0.4552 0.4595
H18_2 H 0.0061 0.4093 0.3774
C72_2 C 0.954(2) 0.0543(8) 0.9516(16)
H36_2 H 0.8981 0.0351 0.9262
C73_2 C 0.935(2) 0.0853(8) 0.8935(17)
H37_2 H 0.8739 0.0796 0.8396
C74_2 C 0.8988(19) 0.1182(7) 0.9379(13)
H39_2 H 0.9582 0.1372 0.9494
H40_2 H 0.8246 0.1282 0.9032
Tl5 Tl 0.94323(4) 0.361646(15) 0.67401(3)
O1_2 O 0.8885(9) 0.3990(3) 0.5215(7)
C40_2 C 0.9387(19) 0.4341(7) 0.5377(14)
H13_2 H 0.8872 0.4508 0.5572
C41_2 C 0.954(2) 0.4457(8) 0.4516(16)
H16_2 H 0.8981 0.4649 0.4262
C42_2 C 0.935(2) 0.4147(8) 0.3935(17)
H17_2 H 0.8739 0.4204 0.3396
C43_2 C 0.8988(19) 0.3818(7) 0.4379(13)
H19_2 H 0.9582 0.3628 0.4494
H20_2 H 0.8246 0.3718 0.4032
N5_2 N 0.5068(7) 0.1574(3) 0.3383(5)
C49_2 C 0.6149(9) 0.1536(3) 0.3932(6)
H25_2 H 0.6499 0.1307 0.3982
C50_2 C 0.6776(9) 0.1823(3) 0.4434(7)
H26_2 H 0.7524 0.1783 0.4806
C51_2 C 0.6284(8) 0.2164(3) 0.4376(6)
C52_2 C 0.5173(9) 0.2208(3) 0.3813(7)
H27_2 H 0.4809 0.2436 0.3757
C53_2 C 0.4602(10) 0.1913(4) 0.3332(8)
H28_2 H 0.3856 0.1949 0.2953
N6_2 N 0.8409(8) 0.3061(3) 0.5697(6)
C54_2 C 0.7417(10) 0.3121(4) 0.5056(7)
H29_2 H 0.7196 0.3361 0.4899
C55_2 C 0.6713(9) 0.2843(4) 0.4619(7)
H30_2 H 0.6041 0.2897 0.4168
C56_2 C 0.6996(9) 0.2485(3) 0.4847(7)
C57_2 C 0.8007(9) 0.2420(3) 0.5528(7)
H31_2 H 0.8224 0.2183 0.5714
C58_2 C 0.8679(10) 0.2711(4) 0.5921(7)
H32_2 H 0.9362 0.2664 0.6368
C75_2 C 0.2011(7) 0.0833(3) 0.2715(6)
C76_2 C 0.1774(7) 0.0887(3) 0.3536(6)
C77_2 C 0.1709(8) 0.0603(4) 0.4105(7)
C78_2 C 0.1870(10) 0.0250(3) 0.3868(7)
C79_2 C 0.2121(12) 0.0180(3) 0.3084(8)
C80_2 C 0.2166(10) 0.0467(3) 0.2525(7)
Cl31_2 Cl 0.1645(3) 0.13342(11) 0.3878(2)
Cl32_2 Cl 0.1431(3) 0.06933(14) 0.5116(2)
Cl35_2 Cl 0.2511(3) 0.03663(10) 0.1540(2)
C81_2 C 0.1990(7) 0.1699(3) 0.1029(5)
C82_2 C 0.2227(6) 0.1670(3) 0.0208(6)
C85_2 C 0.1882(9) 0.2357(3) 0.0810(6)
C86_2 C 0.1813(9) 0.2051(3) 0.1295(6)
Cl39_2 Cl 0.1669(3) 0.27915(10) 0.1172(2)
Cl40_2 Cl 0.1504(2) 0.21115(9) 0.23040(16)
C83_2 C 0.2302(7) 0.1967(3) 0.9692(6)
C84_2 C 0.2155(9) 0.2321(3) 0.9996(6)
Cl36_2 Cl 0.2479(3) 0.12425(10) 0.98169(18)
Cl37_2 Cl 0.2627(3) 0.19300(12) 0.86927(18)
Cl38_2 Cl 0.2313(3) 0.27049(11) 0.9408(2)
Cl33_2 Cl 0.1758(4) 0.98921(13) 0.4584(3)
Cl34_2 Cl 0.2431(4) 0.97344(12) 0.2834(3)
C1_2 C 0.7123(8) 0.0830(3) 0.1764(6)
C2_2 C 0.6605(8) 0.0689(3) 0.0919(7)
C3_2 C 0.6687(10) 0.0335(4) 0.0658(8)
C4_2 C 0.7337(11) 0.0084(4) 0.1305(7)
C5_2 C 0.7898(10) 0.0214(3) 0.2172(8)
C6_2 C 0.7778(10) 0.0574(3) 0.2378(7)
Cl1_2 Cl 0.5762(3) 0.09810(11) 0.01185(19)
Cl5_2 Cl 0.8476(3) 0.07294(11) 0.3437(2)
C7_2 C 0.7056(7) 0.1937(3) 0.2289(6)
C8_2 C 0.6136(8) 0.2154(3) 0.1814(5)
C9_2 C 0.6129(9) 0.2529(3) 0.1898(6)
C10_2 C 0.7082(8) 0.2707(3) 0.2474(7)
C11_2 C 0.8018(9) 0.2497(3) 0.2961(6)
C12_2 C 0.7982(8) 0.2117(3) 0.2875(6)
Cl6_2 Cl 0.4942(2) 0.19526(9) 0.10606(18)
Cl7_2 Cl 0.4964(3) 0.27863(10) 0.1294(2)
Cl8_2 Cl 0.7105(3) 0.31762(10) 0.2572(2)
Cl9_2 Cl 0.9216(3) 0.27107(10) 0.3664(2)
Cl10_2 Cl 0.9146(2) 0.18637(10) 0.35175(19)
Cl2_2 Cl 0.6095(4) 0.01847(13) 0.9599(3)
Cl3_2 Cl 0.7484(4) 0.96373(13) 0.1034(4)
Cl4_2 Cl 0.8682(4) 0.99133(13) 0.2954(3)
loop_
_geom_bond_atom_site_label_1
_geom_bond_atom_site_label_2
_geom_bond_site_symmetry_1
_geom_bond_site_symmetry_2
C84 C83 1_555 1_555
Cl37 C83 1_555 1_555
Cl38 C84 1_555 1_555
O1 Tl2 1_555 1_555
C40 O1 1_555 1_555
H13 C40 1_555 1_555
C41 C40 1_555 1_555
H16 C41 1_555 1_555
C42 C41 1_555 1_555
H17 C42 1_555 1_555
C43 O1 1_555 1_555
H19 C43 1_555 1_555
H20 C43 1_555 1_555
N5 C49 1_555 1_555
C49 H25 1_555 1_555
C50 C49 1_555 1_555
H26 C50 1_555 1_555
C51 C50 1_555 1_555
C52 C51 1_555 1_555
H27 C52 1_555 1_555
C53 N5 1_555 1_555
H28 C53 1_555 1_555
N6 Tl2 1_555 1_555
C54 N6 1_555 1_555
H29 C54 1_555 1_555
C55 C54 1_555 1_555
H30 C55 1_555 1_555
C56 C51 1_555 1_555
C57 C56 1_555 1_555
H31 C57 1_555 1_555
C58 N6 1_555 1_555
H32 C58 1_555 1_555
Tl3 N5 1_555 1_555
Au3 Tl2 1_555 1_555
C59 Au3 1_555 1_555
C60 C59 1_555 1_555
C61 C60 1_555 1_555
C62 C61 1_555 1_555
C63 C62 1_555 1_555
C64 C59 1_555 1_555
Cl21 C60 1_555 1_555
Cl22 C61 1_555 1_555
Cl23 C62 1_555 1_555
Cl24 C63 1_555 1_555
Cl25 C64 1_555 1_555
C65 Au3 1_555 1_555
C66 C65 1_555 1_555
C67 C66 1_555 1_555
C68 C67 1_555 1_555
C69 C68 1_555 1_555
C70 C65 1_555 1_555
Cl26 C66 1_555 1_555
Cl27 C67 1_555 1_555
Cl28 C68 1_555 1_555
Cl29 C69 1_555 1_555
Cl30 C70 1_555 1_555
Au4 Tl3 1_555 1_555
C75 Au4 1_555 1_555
C76 C75 1_555 1_555
C77 C76 1_555 1_555
C78 C77 1_555 1_555
C79 C78 1_555 1_555
C80 C75 1_555 1_555
Cl31 C76 1_555 1_555
Cl32 C77 1_555 1_555
Cl35 C80 1_555 1_555
C81 Au4 1_555 1_555
C82 C81 1_555 1_555
C86 C81 1_555 1_555
Cl39 C85 1_555 1_555
Cl40 C86 1_555 1_555
Au5 Tl3 1_555 1_555
N7 Tl3 1_555 1_555
Tl7 Au3 1_555 1_555
C42 C43 1_555 1_555
C52 C53 1_555 1_555
C55 C56 1_555 1_555
C57 C58 1_555 1_555
C63 C64 1_555 1_555
C69 C70 1_555 1_555
C79 C80 1_555 1_555
C85 C86 1_555 1_555
Au1 Tl7 1_555 1_555
C13 Au1 1_555 1_555
C14 C13 1_555 1_555
C15 C14 1_555 1_555
C16 C15 1_555 1_555
C17 C16 1_555 1_555
C18 C13 1_555 1_555
Cl11 C14 1_555 1_555
Cl13 C16 1_555 1_555
Cl14 C17 1_555 1_555
Cl15 C18 1_555 1_555
C19 Au1 1_555 1_555
C20 C19 1_555 1_555
C21 C20 1_555 1_555
C22 C21 1_555 1_555
C23 C22 1_555 1_555
C24 C19 1_555 1_555
Cl16 C20 1_555 1_555
Cl17 C21 1_555 1_555
Cl18 C22 1_555 1_555
Cl19 C23 1_555 1_555
Cl20 C24 1_555 1_555
N1 Tl7 1_555 1_555
C25 N1 1_555 1_555
H1 C25 1_555 1_555
C26 C25 1_555 1_555
H2 C26 1_555 1_555
C27 C26 1_555 1_555
C28 C27 1_555 1_555
H3 C28 1_555 1_555
C29 N1 1_555 1_555
H4 C29 1_555 1_555
N2 Tl7 1_555 1_555
C30 N2 1_555 1_555
H5 C30 1_555 1_555
C32 C31 1_555 1_555
C33 C30 1_555 1_555
H7 C33 1_555 1_555
C34 N2 1_555 1_555
H8 C34 1_555 1_555
H10 C36 1_555 1_555
C37 C27 1_555 1_555
H36 C72 1_555 1_555
C73 C72 1_555 1_555
H37 C73 1_555 1_555
H39 C74 1_555 1_555
H40 C74 1_555 1_555
C17 C18 1_555 1_555
C23 C24 1_555 1_555
C28 C29 1_555 1_555
C31 C34 1_555 1_555
C32 C33 1_555 1_555
C36 C37 1_555 1_555
C73 C74 1_555 1_555
N3 C35 1_555 1_555
H11 C38 1_555 1_555
C39 N3 1_555 1_555
H12 C39 1_555 1_555
C45 C44 1_555 1_555
C46 C45 1_555 1_555
N4 C46 1_555 1_555
C47 N4 1_555 1_555
H22 C47 1_555 1_555
C48 C44 1_555 1_555
H23 C48 1_555 1_555
H24 C46 1_555 1_555
Tl8 N3 1_555 1_555
O2 Tl8 1_555 1_555
C71 O2 1_555 1_555
H33 C71 1_555 1_555
Tl6 N4 1_555 1_555
Au5 Tl8 1_555 1_555
C38 C39 1_555 1_555
C47 C48 1_555 1_555
C59_2 Au5 1_555 1_555
C60_2 C59_2 1_555 1_555
C61_2 C60_2 1_555 1_555
C62_2 C61_2 1_555 1_555
C63_2 C62_2 1_555 1_555
C64_2 C59_2 1_555 1_555
Cl21_2 C60_2 1_555 1_555
Cl25_2 C64_2 1_555 1_555
C65_2 Au5 1_555 1_555
C66_2 C65_2 1_555 1_555
C67_2 C66_2 1_555 1_555
C68_2 C67_2 1_555 1_555
C69_2 C68_2 1_555 1_555
C70_2 C65_2 1_555 1_555
Cl26_2 C66_2 1_555 1_555
Cl27_2 C67_2 1_555 1_555
Cl28_2 C68_2 1_555 1_555
Cl29_2 C69_2 1_555 1_555
Cl30_2 C70_2 1_555 1_555
C63_2 C64_2 1_555 1_555
C69_2 C70_2 1_555 1_555
C45_2 C44_2 1_555 1_555
H21_2 C45_2 1_555 1_555
C46_2 C45_2 1_555 1_555
N4_2 C46_2 1_555 1_555
C47_2 N4_2 1_555 1_555
H22_2 C47_2 1_555 1_555
C48_2 C44_2 1_555 1_555
H24_2 C46_2 1_555 1_555
Tl6_2 N4_2 1_555 1_555
C47_2 C48_2 1_555 1_555
C30_2 N7 1_555 1_555
H5_2 C30_2 1_555 1_555
C31_2 H6_2 1_555 1_555
C32_2 C31_2 1_555 1_555
C33_2 C30_2 1_555 1_555
C34_2 N7 1_555 1_555
H8_2 C34_2 1_555 1_555
C31_2 C34_2 1_555 1_555
C32_2 C33_2 1_555 1_555
N3_2 C35_2 1_555 1_555
H11_2 C38_2 1_555 1_555
C39_2 N3_2 1_555 1_555
H12_2 C39_2 1_555 1_555
Tl4 N3_2 1_555 1_555
O2_2 Tl4 1_555 1_555
C71_2 O2_2 1_555 1_555
H33_2 C71_2 1_555 1_555
Au7 Tl4 1_555 1_555
C38_2 C39_2 1_555 1_555
Au1_2 Tl6 1_555 1_555
Tl6 Au2 1_555 1_555
Au2 C1 1_555 1_555
C1 C2 1_555 1_555
C2 C3 1_555 1_555
C3 C4 1_555 1_555
C4 C5 1_555 1_555
C5 C6 1_555 1_555
C6 C1 1_555 1_555
Cl1 C2 1_555 1_555
Cl2 C3 1_555 1_555
Cl3 C4 1_555 1_555
Cl4 C5 1_555 1_555
Cl5 C6 1_555 1_555
C7 Au2 1_555 1_555
C8 C7 1_555 1_555
C9 C8 1_555 1_555
C10 C9 1_555 1_555
C11 C10 1_555 1_555
C12 C7 1_555 1_555
Cl6 C8 1_555 1_555
Cl7 C9 1_555 1_555
Cl8 C10 1_555 1_555
Cl9 C11 1_555 1_555
Cl10 C12 1_555 1_555
C13_2 Au1_2 1_555 1_555
C14_2 C13_2 1_555 1_555
C15_2 C14_2 1_555 1_555
C16_2 C15_2 1_555 1_555
C17_2 C16_2 1_555 1_555
C18_2 C13_2 1_555 1_555
Cl11_2 C14_2 1_555 1_555
Cl13_2 C16_2 1_555 1_555
Cl14_2 C17_2 1_555 1_555
Cl15_2 C18_2 1_555 1_555
C19_2 Au1_2 1_555 1_555
C20_2 C19_2 1_555 1_555
C21_2 C20_2 1_555 1_555
C22_2 C21_2 1_555 1_555
C23_2 C22_2 1_555 1_555
C24_2 C19_2 1_555 1_555
Cl16_2 C20_2 1_555 1_555
Cl17_2 C21_2 1_555 1_555
Cl18_2 C22_2 1_555 1_555
Cl19_2 C23_2 1_555 1_555
Cl20_2 C24_2 1_555 1_555
N1_2 Tl6 1_555 1_555
C25_2 N1_2 1_555 1_555
H1_2 C25_2 1_555 1_555
C26_2 C25_2 1_555 1_555
H2_2 C26_2 1_555 1_555
C27_2 C26_2 1_555 1_555
C28_2 C27_2 1_555 1_555
H3_2 C28_2 1_555 1_555
C29_2 N1_2 1_555 1_555
H4_2 C29_2 1_555 1_555
H10_2 C36_2 1_555 1_555
C37_2 C27_2 1_555 1_555
H36_2 C72_2 1_555 1_555
C73_2 C72_2 1_555 1_555
H37_2 C73_2 1_555 1_555
H39_2 C74_2 1_555 1_555
H40_2 C74_2 1_555 1_555
Tl5 Au2 1_555 1_555
C11 C12 1_555 1_555
C17_2 C18_2 1_555 1_555
C23_2 C24_2 1_555 1_555
C28_2 C29_2 1_555 1_555
C36_2 C37_2 1_555 1_555
C73_2 C74_2 1_555 1_555
O1_2 Tl5 1_555 1_555
C40_2 O1_2 1_555 1_555
H13_2 C40_2 1_555 1_555
C41_2 C40_2 1_555 1_555
H16_2 C41_2 1_555 1_555
C42_2 C41_2 1_555 1_555
H17_2 C42_2 1_555 1_555
C43_2 O1_2 1_555 1_555
H19_2 C43_2 1_555 1_555
H20_2 C43_2 1_555 1_555
N5_2 C49_2 1_555 1_555
C49_2 H25_2 1_555 1_555
C50_2 C49_2 1_555 1_555
H26_2 C50_2 1_555 1_555
C51_2 C50_2 1_555 1_555
C52_2 C51_2 1_555 1_555
H27_2 C52_2 1_555 1_555
C53_2 N5_2 1_555 1_555
H28_2 C53_2 1_555 1_555
N6_2 Tl5 1_555 1_555
C54_2 N6_2 1_555 1_555
H29_2 C54_2 1_555 1_555
C55_2 C54_2 1_555 1_555
H30_2 C55_2 1_555 1_555
C56_2 C51_2 1_555 1_555
C57_2 C56_2 1_555 1_555
H31_2 C57_2 1_555 1_555
C58_2 N6_2 1_555 1_555
H32_2 C58_2 1_555 1_555
Tl6_2 N5_2 1_555 1_555
Au6 Tl6_2 1_555 1_555
C75_2 Au6 1_555 1_555
C76_2 C75_2 1_555 1_555
C77_2 C76_2 1_555 1_555
C78_2 C77_2 1_555 1_555
C79_2 C78_2 1_555 1_555
C80_2 C75_2 1_555 1_555
Cl31_2 C76_2 1_555 1_555
Cl32_2 C77_2 1_555 1_555
Cl35_2 C80_2 1_555 1_555
C81_2 Au6 1_555 1_555
C82_2 C81_2 1_555 1_555
C86_2 C81_2 1_555 1_555
Cl39_2 C85_2 1_555 1_555
Cl40_2 C86_2 1_555 1_555
Au7 Tl6_2 1_555 1_555
C42_2 C43_2 1_555 1_555
C52_2 C53_2 1_555 1_555
C55_2 C56_2 1_555 1_555
C57_2 C58_2 1_555 1_555
C79_2 C80_2 1_555 1_555
C85_2 C86_2 1_555 1_555
C84_2 C83_2 1_555 1_555
Cl37_2 C83_2 1_555 1_555
Cl38_2 C84_2 1_555 1_555
Au7 C1_2 1_555 1_555
C1_2 C2_2 1_555 1_555
C2_2 C3_2 1_555 1_555
C3_2 C4_2 1_555 1_555
C4_2 C5_2 1_555 1_555
C5_2 C6_2 1_555 1_555
C6_2 C1_2 1_555 1_555
Cl1_2 C2_2 1_555 1_555
Cl5_2 C6_2 1_555 1_555
C7_2 Au7 1_555 1_555
C8_2 C7_2 1_555 1_555
C9_2 C8_2 1_555 1_555
C10_2 C9_2 1_555 1_555
C11_2 C10_2 1_555 1_555
C12_2 C7_2 1_555 1_555
Cl6_2 C8_2 1_555 1_555
Cl7_2 C9_2 1_555 1_555
Cl8_2 C10_2 1_555 1_555
Cl9_2 C11_2 1_555 1_555
Cl10_2 C12_2 1_555 1_555
C11_2 C12_2 1_555 1_555

#END
