
###############################################################################
#
# This file contains modified crystal structure data generated from the
# MOF subset of the Cambridge Structural Database (CSD) v543 
# hosted by the Cambridge Crystallographic Data Centre (CCDC).
#
# This work is licensed under the Creative Commons
# Attribution-NonCommercial-ShareAlike 4.0 International License.
# To view a copy of this license, visit
# http://creativecommons.org/licenses/by-nc-sa/4.0/
# or send a letter to
# Creative Commons, PO Box 1866, Mountain View, CA 94042, USA.
#
# CIF created using the CSD Python API on 29 September 2022
# The structure has been converted into the P1 space group
# The structure has a 3D framework
# The original CSD entry AZUHUB is in the tetragonal crystal system
# The framework has been calculated to contain at least 10.0% void space
# The void calculation uses a probe of radius 1.32A, grid spacing 0.4
# H atom positions have been added when not included in the experimental data
#
###############################################################################

data_AZUHUB
_chemical_formula_moiety         '(C160 H128 Fe4 N8 O112 P16 Zn16)n'
_symmetry_cell_setting           triclinic
_symmetry_space_group_name_H-M   'P 1'
_symmetry_Int_Tables_number      1
_space_group_name_Hall           'P 1'
loop_
_symmetry_equiv_pos_site_id
_symmetry_equiv_pos_as_xyz
1 x,y,z
_cell_length_a                   18.3373(6)
_cell_length_b                   18.3373(6)
_cell_length_c                   23.3124(9)
_cell_angle_alpha                90
_cell_angle_beta                 90
_cell_angle_gamma                90
_cell_volume                     7838.95
loop_
_atom_site_label
_atom_site_type_symbol
_atom_site_fract_x
_atom_site_fract_y
_atom_site_fract_z
Zn1 Zn 0.27107(7) 0.27438(7) 0.47280(5)
Fe1 Fe 0.250000 0.12395(12) 0.375000
P1 P 0.35742(12) 0.25695(16) 0.35793(10)
C1 C 0.6122(7) 0.2776(7) 0.4567(4)
C2 C 0.5706(5) 0.2744(7) 0.4016(4)
C3 C 0.4958(5) 0.2709(6) 0.4039(4)
C4 C 0.4540(5) 0.2642(7) 0.3532(4)
C5 C 0.4914(5) 0.2651(6) 0.3011(3)
C6 C 0.5660(5) 0.2706(7) 0.2990(4)
C7 C 0.6056(5) 0.2763(7) 0.3493(4)
C8 C 0.6052(5) 0.2706(7) 0.2426(4)
O1 O 0.3401(4) 0.1747(4) 0.3638(3)
O2 O 0.3350(4) 0.2969(4) 0.4114(3)
O3 O 0.3278(4) 0.2889(5) 0.3036(3)
O4 O 0.5815(4) 0.2729(6) 0.5029(3)
O5 O 0.6820(4) 0.2796(6) 0.4523(3)
O6 O 0.6721(4) 0.2856(6) 0.2436(3)
O7 O 0.5691(4) 0.2587(5) 0.1980(3)
Zn2 Zn 0.27438(7) 0.72893(7) 0.52720(5)
P2 P 0.25695(16) 0.64258(12) 0.64207(10)
C9 C 0.2776(7) 0.3878(7) 0.5433(4)
C10 C 0.2744(7) 0.4294(5) 0.5984(4)
C11 C 0.2709(6) 0.5042(5) 0.5961(4)
C12 C 0.2642(7) 0.5460(5) 0.6468(4)
C13 C 0.2651(6) 0.5086(5) 0.6989(3)
C14 C 0.2706(7) 0.4340(5) 0.7010(4)
C15 C 0.2763(7) 0.3944(5) 0.6507(4)
C16 C 0.2706(7) 0.3948(5) 0.7574(4)
O8 O 0.1747(4) 0.6599(4) 0.6362(3)
O9 O 0.2969(4) 0.6650(4) 0.5886(3)
O10 O 0.2889(5) 0.6722(4) 0.6964(3)
O11 O 0.2729(6) 0.4185(4) 0.4971(3)
O12 O 0.2796(6) 0.3180(4) 0.5477(3)
O13 O 0.2856(6) 0.3279(4) 0.7564(3)
O14 O 0.2587(5) 0.4309(4) 0.8020(3)
Zn3 Zn 0.72562(7) 0.27107(7) 0.52720(5)
Zn4 Zn 0.22893(7) 0.27438(7) 0.27720(5)
Zn5 Zn 0.77438(7) 0.27107(7) 0.22280(5)
Zn6 Zn 0.27107(7) 0.22562(7) 0.77720(5)
Zn7 Zn 0.27438(7) 0.77107(7) 0.72280(5)
Fe2 Fe 0.12395(12) 0.750000 0.625000
Fe3 Fe 0.62395(12) 0.250000 0.125000
Fe4 Fe 0.250000 0.37605(12) 0.875000
O15 O 0.1599(4) 0.1747(4) 0.3862(3)
O16 O 0.1722(4) 0.2889(5) 0.4464(3)
O17 O 0.2889(5) 0.8278(4) 0.5536(3)
O18 O 0.3180(4) 0.7204(6) 0.4523(3)
O19 O 0.1721(4) 0.7144(6) 0.5064(3)
O20 O 0.2856(6) 0.1721(4) 0.4936(3)
O21 O 0.2413(5) 0.0691(4) 0.3020(3)
O22 O 0.2587(5) 0.0691(4) 0.4480(3)
H1 H 0.468369 0.273317 0.445288
H2 H 0.28231 0.335359 0.652428
H3 H 0.273317 0.531631 0.554712
H4 H 0.664641 0.28231 0.347572
H5 H 0.460729 0.261356 0.261207
H6 H 0.261356 0.539271 0.738793
Zn1_2 Zn 0.72893(7) 0.72562(7) 0.47280(5)
Fe1_2 Fe 0.750000 0.87605(12) 0.375000
P1_2 P 0.64258(12) 0.74305(16) 0.35793(10)
C1_2 C 0.3878(7) 0.7224(7) 0.4567(4)
C2_2 C 0.4294(5) 0.7256(7) 0.4016(4)
C3_2 C 0.5042(5) 0.7291(6) 0.4039(4)
C4_2 C 0.5460(5) 0.7358(7) 0.3532(4)
C5_2 C 0.5086(5) 0.7349(6) 0.3011(3)
C6_2 C 0.4340(5) 0.7294(7) 0.2990(4)
C7_2 C 0.3944(5) 0.7237(7) 0.3493(4)
C8_2 C 0.3948(5) 0.7294(7) 0.2426(4)
O1_2 O 0.6599(4) 0.8253(4) 0.3638(3)
O2_2 O 0.6650(4) 0.7031(4) 0.4114(3)
O3_2 O 0.6722(4) 0.7111(5) 0.3036(3)
O4_2 O 0.4185(4) 0.7271(6) 0.5029(3)
O6_2 O 0.3279(4) 0.7144(6) 0.2436(3)
O7_2 O 0.4309(4) 0.7413(5) 0.1980(3)
P2_2 P 0.74305(16) 0.35742(12) 0.64207(10)
C9_2 C 0.7224(7) 0.6122(7) 0.5433(4)
C10_2 C 0.7256(7) 0.5706(5) 0.5984(4)
C11_2 C 0.7291(6) 0.4958(5) 0.5961(4)
C12_2 C 0.7358(7) 0.4540(5) 0.6468(4)
C13_2 C 0.7349(6) 0.4914(5) 0.6989(3)
C14_2 C 0.7294(7) 0.5660(5) 0.7010(4)
C15_2 C 0.7237(7) 0.6056(5) 0.6507(4)
C16_2 C 0.7294(7) 0.6052(5) 0.7574(4)
O8_2 O 0.8253(4) 0.3401(4) 0.6362(3)
O9_2 O 0.7031(4) 0.3350(4) 0.5886(3)
O10_2 O 0.7111(5) 0.3278(4) 0.6964(3)
O11_2 O 0.7271(6) 0.5815(4) 0.4971(3)
O12_2 O 0.7204(6) 0.6820(4) 0.5477(3)
O13_2 O 0.7144(6) 0.6721(4) 0.7564(3)
O14_2 O 0.7413(5) 0.5691(4) 0.8020(3)
Zn4_2 Zn 0.77107(7) 0.72562(7) 0.27720(5)
Zn5_2 Zn 0.22562(7) 0.72893(7) 0.22280(5)
Zn6_2 Zn 0.72893(7) 0.77438(7) 0.77720(5)
Zn7_2 Zn 0.72562(7) 0.22893(7) 0.72280(5)
Fe2_2 Fe 0.87605(12) 0.250000 0.625000
Fe3_2 Fe 0.37605(12) 0.750000 0.125000
Fe4_2 Fe 0.750000 0.62395(12) 0.875000
O15_2 O 0.8401(4) 0.8253(4) 0.3862(3)
O16_2 O 0.8278(4) 0.7111(5) 0.4464(3)
O17_2 O 0.7111(5) 0.1722(4) 0.5536(3)
O19_2 O 0.8279(4) 0.2856(6) 0.5064(3)
O20_2 O 0.7144(6) 0.8279(4) 0.4936(3)
O21_2 O 0.7587(5) 0.9309(4) 0.3020(3)
O22_2 O 0.7413(5) 0.9309(4) 0.4480(3)
H1_2 H 0.531631 0.726683 0.445288
H2_2 H 0.71769 0.664641 0.652428
H3_2 H 0.726683 0.468369 0.554712
H4_2 H 0.335359 0.71769 0.347572
H5_2 H 0.539271 0.738644 0.261207
H6_2 H 0.738644 0.460729 0.738793
O15_3 O 0.1747(4) 0.8401(4) 0.6138(3)
O21_3 O 0.0691(4) 0.7587(5) 0.6980(3)
O22_3 O 0.0691(4) 0.7413(5) 0.5520(3)
O15_4 O 0.8253(4) 0.1599(4) 0.6138(3)
O21_4 O 0.9309(4) 0.2413(5) 0.6980(3)
O22_4 O 0.9309(4) 0.2587(5) 0.5520(3)
P1_3 P 0.14258(12) 0.25695(16) 0.39207(10)
C3_3 C 0.0042(5) 0.2709(6) 0.3461(4)
C4_3 C 0.0460(5) 0.2642(7) 0.3968(4)
C5_3 C 0.0086(5) 0.2651(6) 0.4489(3)
O2_3 O 0.1650(4) 0.2969(4) 0.3386(3)
P2_3 P 0.24305(16) 0.64258(12) 0.10793(10)
C9_3 C 0.2224(7) 0.3878(7) 0.2067(4)
C10_3 C 0.2256(7) 0.4294(5) 0.1516(4)
C11_3 C 0.2291(6) 0.5042(5) 0.1539(4)
C12_3 C 0.2358(7) 0.5460(5) 0.1032(4)
C13_3 C 0.2349(6) 0.5086(5) 0.0511(3)
C14_3 C 0.2294(7) 0.4340(5) 0.0490(4)
C15_3 C 0.2237(7) 0.3944(5) 0.0993(4)
O8_3 O 0.3253(4) 0.6599(4) 0.1138(3)
O9_3 O 0.2031(4) 0.6650(4) 0.1614(3)
O10_3 O 0.2111(5) 0.6722(4) 0.0536(3)
O11_3 O 0.2271(6) 0.4185(4) 0.2529(3)
O12_3 O 0.2204(6) 0.3180(4) 0.2023(3)
Zn7_3 Zn 0.22562(7) 0.77107(7) 0.02720(5)
O17_3 O 0.2111(5) 0.8278(4) 0.1964(3)
O18_2 O 0.1820(4) 0.7204(6) 0.2977(3)
O20_3 O 0.2144(6) 0.1721(4) 0.2564(3)
H1_3 H 0.031631 0.273317 0.304712
H2_3 H 0.21769 0.335359 0.0975723
H3_3 H 0.226683 0.531631 0.195288
H5_3 H 0.0392713 0.261356 0.488793
H6_3 H 0.238644 0.539271 0.0112075
C16_3 C 0.2294(7) 0.3948(5) 0.9926(4)
O13_3 O 0.2144(6) 0.3279(4) 0.9936(3)
O14_3 O 0.2413(5) 0.4309(4) 0.9480(3)
Zn6_3 Zn 0.22893(7) 0.22562(7) 0.97280(5)
C1_3 C 0.8878(7) 0.2776(7) 0.2933(4)
C2_3 C 0.9294(5) 0.2744(7) 0.3484(4)
C6_3 C 0.9340(5) 0.2706(7) 0.4510(4)
C7_3 C 0.8944(5) 0.2763(7) 0.4007(4)
C8_3 C 0.8948(5) 0.2706(7) 0.5074(4)
O4_3 O 0.9185(4) 0.2729(6) 0.2471(3)
O5_2 O 0.8180(4) 0.2796(6) 0.2977(3)
H4_3 H 0.835359 0.28231 0.402428
C1_4 C 0.1122(7) 0.7224(7) 0.2933(4)
C2_4 C 0.0706(5) 0.7256(7) 0.3484(4)
C6_4 C 0.0660(5) 0.7294(7) 0.4510(4)
C7_4 C 0.1056(5) 0.7237(7) 0.4007(4)
C8_4 C 0.1052(5) 0.7294(7) 0.5074(4)
O4_4 O 0.0815(4) 0.7271(6) 0.2471(3)
H4_4 H 0.164641 0.71769 0.402428
P1_4 P 0.85742(12) 0.74305(16) 0.39207(10)
C3_4 C 0.9958(5) 0.7291(6) 0.3461(4)
C4_4 C 0.9540(5) 0.7358(7) 0.3968(4)
C5_4 C 0.9914(5) 0.7349(6) 0.4489(3)
O2_4 O 0.8350(4) 0.7031(4) 0.3386(3)
P2_4 P 0.75695(16) 0.35742(12) 0.10793(10)
C9_4 C 0.7776(7) 0.6122(7) 0.2067(4)
C10_4 C 0.7744(7) 0.5706(5) 0.1516(4)
C11_4 C 0.7709(6) 0.4958(5) 0.1539(4)
C12_4 C 0.7642(7) 0.4540(5) 0.1032(4)
C13_4 C 0.7651(6) 0.4914(5) 0.0511(3)
C14_4 C 0.7706(7) 0.5660(5) 0.0490(4)
C15_4 C 0.7763(7) 0.6056(5) 0.0993(4)
O8_4 O 0.6747(4) 0.3401(4) 0.1138(3)
O9_4 O 0.7969(4) 0.3350(4) 0.1614(3)
O10_4 O 0.7889(5) 0.3278(4) 0.0536(3)
O11_4 O 0.7729(6) 0.5815(4) 0.2529(3)
O12_4 O 0.7796(6) 0.6820(4) 0.2023(3)
Zn7_4 Zn 0.77438(7) 0.22893(7) 0.02720(5)
O17_4 O 0.7889(5) 0.1722(4) 0.1964(3)
O20_4 O 0.7856(6) 0.8279(4) 0.2564(3)
H1_4 H 0.968369 0.726683 0.304712
H2_4 H 0.78231 0.664641 0.0975723
H3_4 H 0.773317 0.468369 0.195288
H5_4 H 0.960729 0.738644 0.488793
H6_4 H 0.761356 0.460729 0.0112075
C16_4 C 0.7706(7) 0.6052(5) 0.9926(4)
O13_4 O 0.7856(6) 0.6721(4) 0.9936(3)
O14_4 O 0.7587(5) 0.5691(4) 0.9480(3)
Zn6_4 Zn 0.77107(7) 0.77438(7) 0.97280(5)
O15_5 O 0.3253(4) 0.8401(4) 0.1362(3)
O21_5 O 0.4309(4) 0.7587(5) 0.0520(3)
O15_6 O 0.6747(4) 0.1599(4) 0.1362(3)
O21_6 O 0.5691(4) 0.2413(5) 0.0520(3)
O4_5 O 0.0815(4) 0.7729(6) 0.0029(3)
C1_5 C 0.1122(7) 0.7776(7) 0.9567(4)
C2_5 C 0.0706(5) 0.7744(7) 0.9016(4)
C6_5 C 0.0660(5) 0.7706(7) 0.7990(4)
C7_5 C 0.1056(5) 0.7763(7) 0.8493(4)
C8_5 C 0.1052(5) 0.7706(7) 0.7426(4)
O5_3 O 0.1820(4) 0.7796(6) 0.9523(3)
O6_3 O 0.1721(4) 0.7856(6) 0.7436(3)
H4_5 H 0.164641 0.78231 0.847572
P2_5 P 0.75695(16) 0.14258(12) 0.14207(10)
C11_5 C 0.7709(6) 0.0042(5) 0.0961(4)
C12_5 C 0.7642(7) 0.0460(5) 0.1468(4)
C13_5 C 0.7651(6) 0.0086(5) 0.1989(3)
O9_5 O 0.7969(4) 0.1650(4) 0.0886(3)
O19_3 O 0.6721(4) 0.2144(6) 0.0064(3)
H3_5 H 0.773317 0.031631 0.0547121
H6_5 H 0.761356 0.0392713 0.238793
O18_3 O 0.8180(4) 0.2204(6) 0.9523(3)
C9_5 C 0.7776(7) 0.8878(7) 0.0433(4)
C10_5 C 0.7744(7) 0.9294(5) 0.0984(4)
C14_5 C 0.7706(7) 0.9340(5) 0.2010(4)
C15_5 C 0.7763(7) 0.8944(5) 0.1507(4)
C16_5 C 0.7706(7) 0.8948(5) 0.2574(4)
O12_5 O 0.7796(6) 0.8180(4) 0.0477(3)
H2_5 H 0.78231 0.835359 0.152428
P1_5 P 0.85742(12) 0.75695(16) 0.85793(10)
C3_5 C 0.9958(5) 0.7709(6) 0.9039(4)
C4_5 C 0.9540(5) 0.7642(7) 0.8532(4)
C5_5 C 0.9914(5) 0.7651(6) 0.8011(3)
O1_3 O 0.8401(4) 0.6747(4) 0.8638(3)
O2_5 O 0.8350(4) 0.7969(4) 0.9114(3)
O3_3 O 0.8278(4) 0.7889(5) 0.8036(3)
O11_5 O 0.7729(6) 0.9185(4) 0.9971(3)
O15_7 O 0.6599(4) 0.6747(4) 0.8862(3)
O16_3 O 0.6722(4) 0.7889(5) 0.9464(3)
H1_5 H 0.968369 0.773317 0.945288
H5_5 H 0.960729 0.761356 0.761207
C9_6 C 0.2224(7) 0.1122(7) 0.0433(4)
C10_6 C 0.2256(7) 0.0706(5) 0.0984(4)
C14_6 C 0.2294(7) 0.0660(5) 0.2010(4)
C15_6 C 0.2237(7) 0.1056(5) 0.1507(4)
C16_6 C 0.2294(7) 0.1052(5) 0.2574(4)
O12_6 O 0.2204(6) 0.1820(4) 0.0477(3)
H2_6 H 0.21769 0.164641 0.152428
P1_6 P 0.14258(12) 0.24305(16) 0.85793(10)
C3_6 C 0.0042(5) 0.2291(6) 0.9039(4)
C4_6 C 0.0460(5) 0.2358(7) 0.8532(4)
C5_6 C 0.0086(5) 0.2349(6) 0.8011(3)
O1_4 O 0.1599(4) 0.3253(4) 0.8638(3)
O2_6 O 0.1650(4) 0.2031(4) 0.9114(3)
O3_4 O 0.1722(4) 0.2111(5) 0.8036(3)
O11_6 O 0.2271(6) 0.0815(4) 0.9971(3)
O15_8 O 0.3401(4) 0.3253(4) 0.8862(3)
O16_4 O 0.3278(4) 0.2111(5) 0.9464(3)
H1_6 H 0.031631 0.226683 0.945288
H5_6 H 0.0392713 0.238644 0.761207
P2_6 P 0.24305(16) 0.85742(12) 0.14207(10)
C11_6 C 0.2291(6) 0.9958(5) 0.0961(4)
C12_6 C 0.2358(7) 0.9540(5) 0.1468(4)
C13_6 C 0.2349(6) 0.9914(5) 0.1989(3)
O9_6 O 0.2031(4) 0.8350(4) 0.0886(3)
O19_4 O 0.3279(4) 0.7856(6) 0.0064(3)
H3_6 H 0.226683 0.968369 0.0547121
H6_6 H 0.238644 0.960729 0.238793
O4_6 O 0.9185(4) 0.2271(6) 0.0029(3)
C1_6 C 0.8878(7) 0.2224(7) 0.9567(4)
C2_6 C 0.9294(5) 0.2256(7) 0.9016(4)
C6_6 C 0.9340(5) 0.2294(7) 0.7990(4)
C7_6 C 0.8944(5) 0.2237(7) 0.8493(4)
C8_6 C 0.8948(5) 0.2294(7) 0.7426(4)
O6_4 O 0.8279(4) 0.2144(6) 0.7436(3)
H4_6 H 0.835359 0.21769 0.847572
P2_7 P 0.74305(16) 0.14258(12) 0.60793(10)
C11_7 C 0.7291(6) 0.0042(5) 0.6539(4)
C12_7 C 0.7358(7) 0.0460(5) 0.6032(4)
C13_7 C 0.7349(6) 0.0086(5) 0.5511(3)
O9_7 O 0.7031(4) 0.1650(4) 0.6614(3)
O18_4 O 0.6820(4) 0.2204(6) 0.7977(3)
H3_7 H 0.726683 0.031631 0.695288
H6_7 H 0.738644 0.0392713 0.511207
C8_7 C 0.3948(5) 0.7706(7) 0.0074(4)
P1_7 P 0.64258(12) 0.75695(16) 0.89207(10)
C1_7 C 0.3878(7) 0.7776(7) 0.7933(4)
C2_7 C 0.4294(5) 0.7744(7) 0.8484(4)
C3_7 C 0.5042(5) 0.7709(6) 0.8461(4)
C4_7 C 0.5460(5) 0.7642(7) 0.8968(4)
C5_7 C 0.5086(5) 0.7651(6) 0.9489(3)
C6_7 C 0.4340(5) 0.7706(7) 0.9510(4)
C7_7 C 0.3944(5) 0.7763(7) 0.9007(4)
O2_7 O 0.6650(4) 0.7969(4) 0.8386(3)
O4_7 O 0.4185(4) 0.7729(6) 0.7471(3)
O5_4 O 0.3180(4) 0.7796(6) 0.7977(3)
C9_7 C 0.7224(7) 0.8878(7) 0.7067(4)
C10_7 C 0.7256(7) 0.9294(5) 0.6516(4)
C14_7 C 0.7294(7) 0.9340(5) 0.5490(4)
C15_7 C 0.7237(7) 0.8944(5) 0.5993(4)
C16_7 C 0.7294(7) 0.8948(5) 0.4926(4)
O11_7 O 0.7271(6) 0.9185(4) 0.7529(3)
O12_7 O 0.7204(6) 0.8180(4) 0.7023(3)
H1_7 H 0.531631 0.773317 0.804712
H2_7 H 0.71769 0.835359 0.597572
H4_7 H 0.335359 0.78231 0.902428
H5_7 H 0.539271 0.761356 0.988793
C8_8 C 0.6052(5) 0.2294(7) 0.0074(4)
P1_8 P 0.35742(12) 0.24305(16) 0.89207(10)
C1_8 C 0.6122(7) 0.2224(7) 0.7933(4)
C2_8 C 0.5706(5) 0.2256(7) 0.8484(4)
C3_8 C 0.4958(5) 0.2291(6) 0.8461(4)
C4_8 C 0.4540(5) 0.2358(7) 0.8968(4)
C5_8 C 0.4914(5) 0.2349(6) 0.9489(3)
C6_8 C 0.5660(5) 0.2294(7) 0.9510(4)
C7_8 C 0.6056(5) 0.2237(7) 0.9007(4)
O2_8 O 0.3350(4) 0.2031(4) 0.8386(3)
O4_8 O 0.5815(4) 0.2271(6) 0.7471(3)
C9_8 C 0.2776(7) 0.1122(7) 0.7067(4)
C10_8 C 0.2744(7) 0.0706(5) 0.6516(4)
C14_8 C 0.2706(7) 0.0660(5) 0.5490(4)
C15_8 C 0.2763(7) 0.1056(5) 0.5993(4)
C16_8 C 0.2706(7) 0.1052(5) 0.4926(4)
O11_8 O 0.2729(6) 0.0815(4) 0.7529(3)
O12_8 O 0.2796(6) 0.1820(4) 0.7023(3)
H1_8 H 0.468369 0.226683 0.804712
H2_8 H 0.28231 0.164641 0.597572
H4_8 H 0.664641 0.21769 0.902428
H5_8 H 0.460729 0.238644 0.988793
P2_8 P 0.25695(16) 0.85742(12) 0.60793(10)
C11_8 C 0.2709(6) 0.9958(5) 0.6539(4)
C12_8 C 0.2642(7) 0.9540(5) 0.6032(4)
C13_8 C 0.2651(6) 0.9914(5) 0.5511(3)
O9_8 O 0.2969(4) 0.8350(4) 0.6614(3)
H3_8 H 0.273317 0.968369 0.695288
H6_8 H 0.261356 0.960729 0.511207
N1 N 0.250000 0.4274(7) 0.375000
C17 C 0.1876(14) 0.4793(15) 0.3796(15)
C18 C 0.220(2) 0.5535(18) 0.379(3)
C19 C 0.3124(14) 0.4793(15) 0.3704(15)
C20 C 0.280(2) 0.5535(18) 0.371(3)
H7 H 0.209812 0.579049 0.420401
H8 H 0.193637 0.585131 0.345339
H9 H 0.245783 0.395443 0.339606
H10 H 0.254217 0.395443 0.410394
H11 H 0.342047 0.47027 0.330552
H12 H 0.3493 0.472443 0.406602
H13 H 0.306363 0.585131 0.404661
H14 H 0.290188 0.579049 0.329599
H15 H 0.157953 0.47027 0.419448
H16 H 0.1507 0.472443 0.343398
N1_2 N 0.750000 0.5726(7) 0.375000
C17_2 C 0.8124(14) 0.5207(15) 0.3796(15)
C18_2 C 0.780(2) 0.4465(18) 0.379(3)
C19_2 C 0.6876(14) 0.5207(15) 0.3704(15)
C20_2 C 0.720(2) 0.4465(18) 0.371(3)
H7_2 H 0.790188 0.420951 0.420401
H8_2 H 0.806363 0.414869 0.345339
H9_2 H 0.754217 0.604557 0.339606
H10_2 H 0.745783 0.604557 0.410394
H11_2 H 0.657953 0.52973 0.330552
H12_2 H 0.6507 0.527557 0.406602
H13_2 H 0.693637 0.414869 0.404661
H14_2 H 0.709812 0.420951 0.329599
H15_2 H 0.842047 0.52973 0.419448
H16_2 H 0.8493 0.527557 0.343398
N1_3 N 0.4274(7) 0.750000 0.625000
C17_3 C 0.4793(15) 0.8124(14) 0.6204(15)
C18_3 C 0.5535(18) 0.780(2) 0.621(3)
C19_3 C 0.4793(15) 0.6876(14) 0.6296(15)
C20_3 C 0.5535(18) 0.720(2) 0.629(3)
H7_3 H 0.579049 0.790188 0.579599
H8_3 H 0.585131 0.806363 0.654661
H9_3 H 0.395443 0.754217 0.660394
H10_3 H 0.395443 0.745783 0.589606
H11_3 H 0.47027 0.657953 0.669448
H12_3 H 0.472443 0.6507 0.593398
H13_3 H 0.585131 0.693637 0.595339
H14_3 H 0.579049 0.709812 0.670401
H15_3 H 0.47027 0.842047 0.580552
H16_3 H 0.472443 0.8493 0.656602
N1_4 N 0.5726(7) 0.250000 0.625000
C17_4 C 0.5207(15) 0.1876(14) 0.6204(15)
C18_4 C 0.4465(18) 0.220(2) 0.621(3)
C19_4 C 0.5207(15) 0.3124(14) 0.6296(15)
C20_4 C 0.4465(18) 0.280(2) 0.629(3)
H7_4 H 0.420951 0.209812 0.579599
H8_4 H 0.414869 0.193637 0.654661
H9_4 H 0.604557 0.245783 0.660394
H10_4 H 0.604557 0.254217 0.589606
H11_4 H 0.52973 0.342047 0.669448
H12_4 H 0.527557 0.3493 0.593398
H13_4 H 0.414869 0.306363 0.595339
H14_4 H 0.420951 0.290188 0.670401
H15_4 H 0.52973 0.157953 0.580552
H16_4 H 0.527557 0.1507 0.656602
N1_5 N 0.0726(7) 0.750000 0.125000
C17_5 C 0.0207(15) 0.8124(14) 0.1296(15)
C19_5 C 0.0207(15) 0.6876(14) 0.1204(15)
H9_5 H 0.104557 0.754217 0.0896056
H10_5 H 0.104557 0.745783 0.160394
H11_5 H 0.0297301 0.657953 0.0805521
H12_5 H 0.0275568 0.6507 0.156602
H15_5 H 0.0297301 0.842047 0.169448
H16_5 H 0.0275568 0.8493 0.0933982
C18_5 C 0.9465(18) 0.780(2) 0.129(3)
C20_5 C 0.9465(18) 0.720(2) 0.121(3)
H7_5 H 0.920951 0.790188 0.170401
H8_5 H 0.914869 0.806363 0.0953393
H13_5 H 0.914869 0.693637 0.154661
H14_5 H 0.920951 0.709812 0.0795991
C18_6 C 0.0535(18) 0.220(2) 0.129(3)
C20_6 C 0.0535(18) 0.280(2) 0.121(3)
H7_6 H 0.0790492 0.209812 0.170401
H8_6 H 0.0851314 0.193637 0.0953393
H13_6 H 0.0851314 0.306363 0.154661
H14_6 H 0.0790492 0.290188 0.0795991
N1_6 N 0.9274(7) 0.250000 0.125000
C17_6 C 0.9793(15) 0.1876(14) 0.1296(15)
C19_6 C 0.9793(15) 0.3124(14) 0.1204(15)
H9_6 H 0.895443 0.245783 0.0896056
H10_6 H 0.895443 0.254217 0.160394
H11_6 H 0.97027 0.342047 0.0805521
H12_6 H 0.972443 0.3493 0.156602
H15_6 H 0.97027 0.157953 0.169448
H16_6 H 0.972443 0.1507 0.0933982
C18_7 C 0.720(2) 0.0535(18) 0.879(3)
C20_7 C 0.780(2) 0.0535(18) 0.871(3)
H7_7 H 0.709812 0.0790492 0.920401
H8_7 H 0.693637 0.0851314 0.845339
H13_7 H 0.806363 0.0851314 0.904661
H14_7 H 0.790188 0.0790492 0.829599
N1_7 N 0.750000 0.9274(7) 0.875000
C17_7 C 0.6876(14) 0.9793(15) 0.8796(15)
C19_7 C 0.8124(14) 0.9793(15) 0.8704(15)
H9_7 H 0.745783 0.895443 0.839606
H10_7 H 0.754217 0.895443 0.910394
H11_7 H 0.842047 0.97027 0.830552
H12_7 H 0.8493 0.972443 0.906602
H15_7 H 0.657953 0.97027 0.919448
H16_7 H 0.6507 0.972443 0.843398
N1_8 N 0.250000 0.0726(7) 0.875000
C17_8 C 0.3124(14) 0.0207(15) 0.8796(15)
C19_8 C 0.1876(14) 0.0207(15) 0.8704(15)
H9_8 H 0.254217 0.104557 0.839606
H10_8 H 0.245783 0.104557 0.910394
H11_8 H 0.157953 0.0297301 0.830552
H12_8 H 0.1507 0.0275568 0.906602
H15_8 H 0.342047 0.0297301 0.919448
H16_8 H 0.3493 0.0275568 0.843398
C18_8 C 0.280(2) 0.9465(18) 0.879(3)
C20_8 C 0.220(2) 0.9465(18) 0.871(3)
H7_8 H 0.290188 0.920951 0.920401
H8_8 H 0.306363 0.914869 0.845339
H13_8 H 0.193637 0.914869 0.904661
H14_8 H 0.209812 0.920951 0.829599
loop_
_geom_bond_atom_site_label_1
_geom_bond_atom_site_label_2
_geom_bond_site_symmetry_1
_geom_bond_site_symmetry_2
Zn1 O2 1_555 1_555
Fe1 O1 1_555 1_555
P1 C4 1_555 1_555
C1 C2 1_555 1_555
C2 C3 1_555 1_555
C3 C4 1_555 1_555
C4 C5 1_555 1_555
C5 C6 1_555 1_555
C6 C7 1_555 1_555
C7 C2 1_555 1_555
C8 C6 1_555 1_555
O1 P1 1_555 1_555
O2 P1 1_555 1_555
O3 P1 1_555 1_555
O4 C1 1_555 1_555
O5 C1 1_555 1_555
O6 C8 1_555 1_555
O7 C8 1_555 1_555
Zn2 O9 1_555 1_555
P2 C12 1_555 1_555
C9 C10 1_555 1_555
C10 C11 1_555 1_555
C11 C12 1_555 1_555
C12 C13 1_555 1_555
C13 C14 1_555 1_555
C14 C15 1_555 1_555
C15 C10 1_555 1_555
C16 C14 1_555 1_555
O8 P2 1_555 1_555
O9 P2 1_555 1_555
O10 P2 1_555 1_555
O11 C9 1_555 1_555
O12 Zn1 1_555 1_555
O13 C16 1_555 1_555
O14 C16 1_555 1_555
Zn3 O5 1_555 1_555
Zn4 O3 1_555 1_555
Zn5 O6 1_555 1_555
Zn6 O13 1_555 1_555
Zn7 O10 1_555 1_555
Fe2 O8 1_555 1_555
Fe3 O7 1_555 1_555
Fe4 O14 1_555 1_555
O15 Fe1 1_555 1_555
O16 Zn1 1_555 1_555
O17 Zn2 1_555 1_555
O18 Zn2 1_555 1_555
O19 Zn2 1_555 1_555
O20 Zn1 1_555 1_555
O21 Fe1 1_555 1_555
O22 Fe1 1_555 1_555
C9 O12 1_555 1_555
C3 H1 1_555 1_555
C15 H2 1_555 1_555
C11 H3 1_555 1_555
C7 H4 1_555 1_555
C5 H5 1_555 1_555
C13 H6 1_555 1_555
Zn1_2 O2_2 1_555 1_555
Fe1_2 O1_2 1_555 1_555
P1_2 C4_2 1_555 1_555
C1_2 C2_2 1_555 1_555
C2_2 C3_2 1_555 1_555
C3_2 C4_2 1_555 1_555
C4_2 C5_2 1_555 1_555
C5_2 C6_2 1_555 1_555
C6_2 C7_2 1_555 1_555
C7_2 C2_2 1_555 1_555
C8_2 C6_2 1_555 1_555
O1_2 P1_2 1_555 1_555
O2_2 P1_2 1_555 1_555
O3_2 P1_2 1_555 1_555
O4_2 C1_2 1_555 1_555
O18 C1_2 1_555 1_555
O6_2 C8_2 1_555 1_555
O7_2 C8_2 1_555 1_555
Zn3 O9_2 1_555 1_555
P2_2 C12_2 1_555 1_555
C9_2 C10_2 1_555 1_555
C10_2 C11_2 1_555 1_555
C11_2 C12_2 1_555 1_555
C12_2 C13_2 1_555 1_555
C13_2 C14_2 1_555 1_555
C14_2 C15_2 1_555 1_555
C15_2 C10_2 1_555 1_555
C16_2 C14_2 1_555 1_555
O8_2 P2_2 1_555 1_555
O9_2 P2_2 1_555 1_555
O10_2 P2_2 1_555 1_555
O11_2 C9_2 1_555 1_555
O12_2 Zn1_2 1_555 1_555
O13_2 C16_2 1_555 1_555
O14_2 C16_2 1_555 1_555
Zn4_2 O3_2 1_555 1_555
Zn5_2 O6_2 1_555 1_555
Zn6_2 O13_2 1_555 1_555
Zn7_2 O10_2 1_555 1_555
Fe2_2 O8_2 1_555 1_555
Fe3_2 O7_2 1_555 1_555
Fe4_2 O14_2 1_555 1_555
O15_2 Fe1_2 1_555 1_555
O16_2 Zn1_2 1_555 1_555
O17_2 Zn3 1_555 1_555
O19_2 Zn3 1_555 1_555
O20_2 Zn1_2 1_555 1_555
O21_2 Fe1_2 1_555 1_555
O22_2 Fe1_2 1_555 1_555
C9_2 O12_2 1_555 1_555
C3_2 H1_2 1_555 1_555
C15_2 H2_2 1_555 1_555
C11_2 H3_2 1_555 1_555
C7_2 H4_2 1_555 1_555
C5_2 H5_2 1_555 1_555
C13_2 H6_2 1_555 1_555
O15_3 Fe2 1_555 1_555
O21_3 Fe2 1_555 1_555
O22_3 Fe2 1_555 1_555
O15_4 Fe2_2 1_555 1_555
O21_4 Fe2_2 1_555 1_555
O22_4 Fe2_2 1_555 1_555
Zn4 O2_3 1_555 1_555
P1_3 C4_3 1_555 1_555
C3_3 C4_3 1_555 1_555
C4_3 C5_3 1_555 1_555
O15 P1_3 1_555 1_555
O2_3 P1_3 1_555 1_555
O16 P1_3 1_555 1_555
Zn5_2 O9_3 1_555 1_555
P2_3 C12_3 1_555 1_555
C9_3 C10_3 1_555 1_555
C10_3 C11_3 1_555 1_555
C11_3 C12_3 1_555 1_555
C12_3 C13_3 1_555 1_555
C13_3 C14_3 1_555 1_555
C14_3 C15_3 1_555 1_555
C15_3 C10_3 1_555 1_555
O8_3 P2_3 1_555 1_555
O9_3 P2_3 1_555 1_555
O10_3 P2_3 1_555 1_555
O11_3 C9_3 1_555 1_555
O12_3 Zn4 1_555 1_555
Zn7_3 O10_3 1_555 1_555
Fe3_2 O8_3 1_555 1_555
O17_3 Zn5_2 1_555 1_555
O18_2 Zn5_2 1_555 1_555
O20_3 Zn4 1_555 1_555
C9_3 O12_3 1_555 1_555
C3_3 H1_3 1_555 1_555
C15_3 H2_3 1_555 1_555
C11_3 H3_3 1_555 1_555
C5_3 H5_3 1_555 1_555
C13_3 H6_3 1_555 1_555
O13_3 C16_3 1_555 1_555
O14_3 C16_3 1_555 1_555
Zn6_3 O13_3 1_555 1_555
Fe4 O14_3 1_555 1_555
C1_3 C2_3 1_555 1_555
C6_3 C7_3 1_555 1_555
C7_3 C2_3 1_555 1_555
C8_3 C6_3 1_555 1_555
O4_3 C1_3 1_555 1_555
O5_2 C1_3 1_555 1_555
O19_2 C8_3 1_555 1_555
O22_4 C8_3 1_555 1_555
Zn5 O5_2 1_555 1_555
C7_3 H4_3 1_555 1_555
C1_4 C2_4 1_555 1_555
C6_4 C7_4 1_555 1_555
C7_4 C2_4 1_555 1_555
C8_4 C6_4 1_555 1_555
O4_4 C1_4 1_555 1_555
O18_2 C1_4 1_555 1_555
O19 C8_4 1_555 1_555
O22_3 C8_4 1_555 1_555
C7_4 H4_4 1_555 1_555
Zn4_2 O2_4 1_555 1_555
P1_4 C4_4 1_555 1_555
C3_4 C4_4 1_555 1_555
C4_4 C5_4 1_555 1_555
O15_2 P1_4 1_555 1_555
O2_4 P1_4 1_555 1_555
O16_2 P1_4 1_555 1_555
Zn5 O9_4 1_555 1_555
P2_4 C12_4 1_555 1_555
C9_4 C10_4 1_555 1_555
C10_4 C11_4 1_555 1_555
C11_4 C12_4 1_555 1_555
C12_4 C13_4 1_555 1_555
C13_4 C14_4 1_555 1_555
C14_4 C15_4 1_555 1_555
C15_4 C10_4 1_555 1_555
O8_4 P2_4 1_555 1_555
O9_4 P2_4 1_555 1_555
O10_4 P2_4 1_555 1_555
O11_4 C9_4 1_555 1_555
O12_4 Zn4_2 1_555 1_555
Zn7_4 O10_4 1_555 1_555
Fe3 O8_4 1_555 1_555
O17_4 Zn5 1_555 1_555
O20_4 Zn4_2 1_555 1_555
C9_4 O12_4 1_555 1_555
C3_4 H1_4 1_555 1_555
C15_4 H2_4 1_555 1_555
C11_4 H3_4 1_555 1_555
C5_4 H5_4 1_555 1_555
C13_4 H6_4 1_555 1_555
O13_4 C16_4 1_555 1_555
O14_4 C16_4 1_555 1_555
Zn6_4 O13_4 1_555 1_555
Fe4_2 O14_4 1_555 1_555
O15_5 Fe3_2 1_555 1_555
O21_5 Fe3_2 1_555 1_555
O15_6 Fe3 1_555 1_555
O21_6 Fe3 1_555 1_555
C1_5 C2_5 1_555 1_555
C6_5 C7_5 1_555 1_555
C7_5 C2_5 1_555 1_555
C8_5 C6_5 1_555 1_555
O5_3 C1_5 1_555 1_555
O6_3 C8_5 1_555 1_555
O21_3 C8_5 1_555 1_555
Zn7 O6_3 1_555 1_555
C7_5 H4_5 1_555 1_555
Zn7_4 O9_5 1_555 1_555
P2_5 C12_5 1_555 1_555
C11_5 C12_5 1_555 1_555
C12_5 C13_5 1_555 1_555
O15_6 P2_5 1_555 1_555
O9_5 P2_5 1_555 1_555
O17_4 P2_5 1_555 1_555
O19_3 Zn7_4 1_555 1_555
C11_5 H3_5 1_555 1_555
C13_5 H6_5 1_555 1_555
C9_5 C10_5 1_555 1_555
C14_5 C15_5 1_555 1_555
C15_5 C10_5 1_555 1_555
C16_5 C14_5 1_555 1_555
O20_4 C16_5 1_555 1_555
O21_2 C16_5 1_555 1_555
C9_5 O12_5 1_555 1_555
C15_5 H2_5 1_555 1_555
Zn6_4 O2_5 1_555 1_555
Fe4_2 O1_3 1_555 1_555
P1_5 C4_5 1_555 1_555
C3_5 C4_5 1_555 1_555
C4_5 C5_5 1_555 1_555
O1_3 P1_5 1_555 1_555
O2_5 P1_5 1_555 1_555
O3_3 P1_5 1_555 1_555
Zn6_2 O3_3 1_555 1_555
O15_7 Fe4_2 1_555 1_555
O16_3 Zn6_4 1_555 1_555
C3_5 H1_5 1_555 1_555
C5_5 H5_5 1_555 1_555
C9_6 C10_6 1_555 1_555
C14_6 C15_6 1_555 1_555
C15_6 C10_6 1_555 1_555
C16_6 C14_6 1_555 1_555
O20_3 C16_6 1_555 1_555
O21 C16_6 1_555 1_555
C9_6 O12_6 1_555 1_555
C15_6 H2_6 1_555 1_555
Zn6_3 O2_6 1_555 1_555
Fe4 O1_4 1_555 1_555
P1_6 C4_6 1_555 1_555
C3_6 C4_6 1_555 1_555
C4_6 C5_6 1_555 1_555
O1_4 P1_6 1_555 1_555
O2_6 P1_6 1_555 1_555
O3_4 P1_6 1_555 1_555
Zn6 O3_4 1_555 1_555
O15_8 Fe4 1_555 1_555
O16_4 Zn6_3 1_555 1_555
C3_6 H1_6 1_555 1_555
C5_6 H5_6 1_555 1_555
Zn7_3 O9_6 1_555 1_555
P2_6 C12_6 1_555 1_555
C11_6 C12_6 1_555 1_555
C12_6 C13_6 1_555 1_555
O15_5 P2_6 1_555 1_555
O9_6 P2_6 1_555 1_555
O17_3 P2_6 1_555 1_555
O19_4 Zn7_3 1_555 1_555
C11_6 H3_6 1_555 1_555
C13_6 H6_6 1_555 1_555
C1_6 C2_6 1_555 1_555
C6_6 C7_6 1_555 1_555
C7_6 C2_6 1_555 1_555
C8_6 C6_6 1_555 1_555
O18_3 C1_6 1_555 1_555
O6_4 C8_6 1_555 1_555
O21_4 C8_6 1_555 1_555
Zn7_2 O6_4 1_555 1_555
C7_6 H4_6 1_555 1_555
Zn7_2 O9_7 1_555 1_555
P2_7 C12_7 1_555 1_555
C11_7 C12_7 1_555 1_555
C12_7 C13_7 1_555 1_555
O15_4 P2_7 1_555 1_555
O9_7 P2_7 1_555 1_555
O17_2 P2_7 1_555 1_555
O18_4 Zn7_2 1_555 1_555
C11_7 H3_7 1_555 1_555
C13_7 H6_7 1_555 1_555
O19_4 C8_7 1_555 1_555
O21_5 C8_7 1_555 1_555
Zn6_2 O2_7 1_555 1_555
P1_7 C4_7 1_555 1_555
C1_7 C2_7 1_555 1_555
C2_7 C3_7 1_555 1_555
C3_7 C4_7 1_555 1_555
C4_7 C5_7 1_555 1_555
C5_7 C6_7 1_555 1_555
C6_7 C7_7 1_555 1_555
C7_7 C2_7 1_555 1_555
O15_7 P1_7 1_555 1_555
O2_7 P1_7 1_555 1_555
O16_3 P1_7 1_555 1_555
O4_7 C1_7 1_555 1_555
O5_4 C1_7 1_555 1_555
C9_7 C10_7 1_555 1_555
C14_7 C15_7 1_555 1_555
C15_7 C10_7 1_555 1_555
C16_7 C14_7 1_555 1_555
O11_7 C9_7 1_555 1_555
O12_7 Zn6_2 1_555 1_555
O20_2 C16_7 1_555 1_555
O22_2 C16_7 1_555 1_555
Zn7 O5_4 1_555 1_555
C9_7 O12_7 1_555 1_555
C3_7 H1_7 1_555 1_555
C15_7 H2_7 1_555 1_555
C7_7 H4_7 1_555 1_555
C5_7 H5_7 1_555 1_555
O19_3 C8_8 1_555 1_555
O21_6 C8_8 1_555 1_555
Zn6 O2_8 1_555 1_555
P1_8 C4_8 1_555 1_555
C1_8 C2_8 1_555 1_555
C2_8 C3_8 1_555 1_555
C3_8 C4_8 1_555 1_555
C4_8 C5_8 1_555 1_555
C5_8 C6_8 1_555 1_555
C6_8 C7_8 1_555 1_555
C7_8 C2_8 1_555 1_555
O15_8 P1_8 1_555 1_555
O2_8 P1_8 1_555 1_555
O16_4 P1_8 1_555 1_555
O4_8 C1_8 1_555 1_555
O18_4 C1_8 1_555 1_555
C9_8 C10_8 1_555 1_555
C14_8 C15_8 1_555 1_555
C15_8 C10_8 1_555 1_555
C16_8 C14_8 1_555 1_555
O11_8 C9_8 1_555 1_555
O12_8 Zn6 1_555 1_555
O20 C16_8 1_555 1_555
O22 C16_8 1_555 1_555
C9_8 O12_8 1_555 1_555
C3_8 H1_8 1_555 1_555
C15_8 H2_8 1_555 1_555
C7_8 H4_8 1_555 1_555
C5_8 H5_8 1_555 1_555
Zn7 O9_8 1_555 1_555
P2_8 C12_8 1_555 1_555
C11_8 C12_8 1_555 1_555
C12_8 C13_8 1_555 1_555
O15_3 P2_8 1_555 1_555
O9_8 P2_8 1_555 1_555
O17 P2_8 1_555 1_555
C11_8 H3_8 1_555 1_555
C13_8 H6_8 1_555 1_555
N1 C17 1_555 1_555
C17 C18 1_555 1_555
C18 C20 1_555 1_555
C19 N1 1_555 1_555
C20 C19 1_555 1_555
C18 H7 1_555 1_555
C18 H8 1_555 1_555
N1 H9 1_555 1_555
N1 H10 1_555 1_555
C19 H11 1_555 1_555
C19 H12 1_555 1_555
C20 H13 1_555 1_555
C20 H14 1_555 1_555
C17 H15 1_555 1_555
C17 H16 1_555 1_555
N1_2 C17_2 1_555 1_555
C17_2 C18_2 1_555 1_555
C18_2 C20_2 1_555 1_555
C19_2 N1_2 1_555 1_555
C20_2 C19_2 1_555 1_555
C18_2 H7_2 1_555 1_555
C18_2 H8_2 1_555 1_555
N1_2 H9_2 1_555 1_555
N1_2 H10_2 1_555 1_555
C19_2 H11_2 1_555 1_555
C19_2 H12_2 1_555 1_555
C20_2 H13_2 1_555 1_555
C20_2 H14_2 1_555 1_555
C17_2 H15_2 1_555 1_555
C17_2 H16_2 1_555 1_555
N1_3 C17_3 1_555 1_555
C17_3 C18_3 1_555 1_555
C18_3 C20_3 1_555 1_555
C19_3 N1_3 1_555 1_555
C20_3 C19_3 1_555 1_555
C18_3 H7_3 1_555 1_555
C18_3 H8_3 1_555 1_555
N1_3 H9_3 1_555 1_555
N1_3 H10_3 1_555 1_555
C19_3 H11_3 1_555 1_555
C19_3 H12_3 1_555 1_555
C20_3 H13_3 1_555 1_555
C20_3 H14_3 1_555 1_555
C17_3 H15_3 1_555 1_555
C17_3 H16_3 1_555 1_555
N1_4 C17_4 1_555 1_555
C17_4 C18_4 1_555 1_555
C18_4 C20_4 1_555 1_555
C19_4 N1_4 1_555 1_555
C20_4 C19_4 1_555 1_555
C18_4 H7_4 1_555 1_555
C18_4 H8_4 1_555 1_555
N1_4 H9_4 1_555 1_555
N1_4 H10_4 1_555 1_555
C19_4 H11_4 1_555 1_555
C19_4 H12_4 1_555 1_555
C20_4 H13_4 1_555 1_555
C20_4 H14_4 1_555 1_555
C17_4 H15_4 1_555 1_555
C17_4 H16_4 1_555 1_555
N1_5 C17_5 1_555 1_555
C19_5 N1_5 1_555 1_555
N1_5 H9_5 1_555 1_555
N1_5 H10_5 1_555 1_555
C19_5 H11_5 1_555 1_555
C19_5 H12_5 1_555 1_555
C17_5 H15_5 1_555 1_555
C17_5 H16_5 1_555 1_555
C18_5 C20_5 1_555 1_555
C18_5 H7_5 1_555 1_555
C18_5 H8_5 1_555 1_555
C20_5 H13_5 1_555 1_555
C20_5 H14_5 1_555 1_555
C18_6 C20_6 1_555 1_555
C18_6 H7_6 1_555 1_555
C18_6 H8_6 1_555 1_555
C20_6 H13_6 1_555 1_555
C20_6 H14_6 1_555 1_555
N1_6 C17_6 1_555 1_555
C19_6 N1_6 1_555 1_555
N1_6 H9_6 1_555 1_555
N1_6 H10_6 1_555 1_555
C19_6 H11_6 1_555 1_555
C19_6 H12_6 1_555 1_555
C17_6 H15_6 1_555 1_555
C17_6 H16_6 1_555 1_555
C18_7 C20_7 1_555 1_555
C18_7 H7_7 1_555 1_555
C18_7 H8_7 1_555 1_555
C20_7 H13_7 1_555 1_555
C20_7 H14_7 1_555 1_555
N1_7 C17_7 1_555 1_555
C19_7 N1_7 1_555 1_555
N1_7 H9_7 1_555 1_555
N1_7 H10_7 1_555 1_555
C19_7 H11_7 1_555 1_555
C19_7 H12_7 1_555 1_555
C17_7 H15_7 1_555 1_555
C17_7 H16_7 1_555 1_555
N1_8 C17_8 1_555 1_555
C19_8 N1_8 1_555 1_555
N1_8 H9_8 1_555 1_555
N1_8 H10_8 1_555 1_555
C19_8 H11_8 1_555 1_555
C19_8 H12_8 1_555 1_555
C17_8 H15_8 1_555 1_555
C17_8 H16_8 1_555 1_555
C18_8 C20_8 1_555 1_555
C18_8 H7_8 1_555 1_555
C18_8 H8_8 1_555 1_555
C20_8 H13_8 1_555 1_555
C20_8 H14_8 1_555 1_555

#END
