
###############################################################################
#
# This file contains modified crystal structure data generated from the
# MOF subset of the Cambridge Structural Database (CSD) v543 
# hosted by the Cambridge Crystallographic Data Centre (CCDC).
#
# This work is licensed under the Creative Commons
# Attribution-NonCommercial-ShareAlike 4.0 International License.
# To view a copy of this license, visit
# http://creativecommons.org/licenses/by-nc-sa/4.0/
# or send a letter to
# Creative Commons, PO Box 1866, Mountain View, CA 94042, USA.
#
# CIF created using the CSD Python API on 29 September 2022
# The structure has been converted into the P1 space group
# The structure has a 3D framework
# The original CSD entry AZUJIR is in the tetragonal crystal system
# The framework has been calculated to contain at least 10.0% void space
# The void calculation uses a probe of radius 1.32A, grid spacing 0.4
# The framework is charged, counterions have been retained in the structure
#
###############################################################################

data_AZUJIR
_chemical_formula_moiety         '(C128 H48 Co8 O112 P16 Zn16 8-)n'
_symmetry_cell_setting           triclinic
_symmetry_space_group_name_H-M   'P 1'
_symmetry_Int_Tables_number      1
_space_group_name_Hall           'P 1'
loop_
_symmetry_equiv_pos_site_id
_symmetry_equiv_pos_as_xyz
1 x,y,z
_cell_length_a                   18.4107(6)
_cell_length_b                   18.4107(6)
_cell_length_c                   23.2111(8)
_cell_angle_alpha                90
_cell_angle_beta                 90
_cell_angle_gamma                90
_cell_volume                     7867.49
loop_
_atom_site_label
_atom_site_type_symbol
_atom_site_fract_x
_atom_site_fract_y
_atom_site_fract_z
C9 C 0.1104(5) 0.7197(6) 0.2930(4)
C12 C 0.0688(5) 0.7218(6) 0.3487(4)
C13 C 0.1058(4) 0.7191(6) 0.4009(4)
H5 H 0.157075 0.713783 0.401841
C14 C 0.0654(4) 0.7244(6) 0.4525(4)
C16 C 0.1065(4) 0.7253(6) 0.5083(4)
O8 O 0.1729(3) 0.7134(5) 0.5072(3)
O9 O 0.0705(3) 0.7377(4) 0.5533(3)
O13 O 0.1792(4) 0.7117(5) 0.2970(3)
O14 O 0.0792(4) 0.7257(6) 0.2466(3)
Zn4 Zn 0.22371(6) 0.72683(6) 0.22287(5)
Zn6 Zn 0.27629(6) 0.72683(6) 0.52713(5)
Co2 Co 0.12755(9) 0.750000 0.625000
Zn1 Zn 0.77317(6) 0.72371(6) 0.27713(5)
Co1 Co 0.750000 0.87245(9) 0.375000
P1 P 0.64256(10) 0.74151(13) 0.35530(9)
C1 C 0.3896(5) 0.7197(6) 0.4570(4)
C2 C 0.5455(4) 0.7329(5) 0.3514(4)
C3 C 0.5057(5) 0.7275(5) 0.4027(4)
H1 H 0.530391 0.727622 0.438673
C4 C 0.4312(5) 0.7218(6) 0.4013(4)
C5 C 0.3942(4) 0.7191(6) 0.3491(4)
H2 H 0.342925 0.713783 0.348159
C6 C 0.4346(4) 0.7244(6) 0.2975(4)
C7 C 0.5088(5) 0.7329(5) 0.2997(4)
H3 H 0.535225 0.738862 0.264819
C8 C 0.3935(4) 0.7253(6) 0.2417(4)
O1 O 0.3271(3) 0.7134(5) 0.2428(3)
O2 O 0.4295(3) 0.7377(4) 0.1967(3)
O3 O 0.6584(3) 0.8221(4) 0.3617(3)
O4 O 0.6665(3) 0.6992(4) 0.4087(3)
O5 O 0.6725(3) 0.7096(4) 0.2996(3)
O6 O 0.3208(4) 0.7117(5) 0.4530(3)
O7 O 0.4208(4) 0.7257(6) 0.5034(3)
Zn2 Zn 0.72683(6) 0.72371(6) 0.47287(5)
P2 P 0.85744(10) 0.74151(13) 0.39470(9)
C10 C 0.9545(4) 0.7329(5) 0.3986(4)
C11 C 0.9943(5) 0.7275(5) 0.3473(4)
H4 H 0.969609 0.727622 0.311327
C15 C 0.9912(5) 0.7329(5) 0.4503(4)
H6 H 0.964775 0.738862 0.485181
O10 O 0.8416(3) 0.8221(4) 0.3883(3)
O11 O 0.8335(3) 0.6992(4) 0.3413(3)
O12 O 0.8275(3) 0.7096(4) 0.4504(3)
Co3 Co 0.37245(9) 0.750000 0.125000
O15 O 0.7866(5) 0.8271(3) 0.2572(3)
O16 O 0.7134(5) 0.8271(3) 0.4928(3)
O17 O 0.7623(4) 0.9295(3) 0.3033(3)
O18 O 0.7377(4) 0.9295(3) 0.4467(3)
O19 O 0.7117(5) 0.6792(4) 0.5470(3)
O20 O 0.7883(5) 0.6792(4) 0.2030(3)
Zn1_2 Zn 0.22683(6) 0.27629(6) 0.27713(5)
Co1_2 Co 0.250000 0.12755(9) 0.375000
P1_2 P 0.35744(10) 0.25849(13) 0.35530(9)
C1_2 C 0.6104(5) 0.2803(6) 0.4570(4)
C2_2 C 0.4545(4) 0.2671(5) 0.3514(4)
C3_2 C 0.4943(5) 0.2725(5) 0.4027(4)
H1_2 H 0.469609 0.272378 0.438673
C4_2 C 0.5688(5) 0.2782(6) 0.4013(4)
C5_2 C 0.6058(4) 0.2809(6) 0.3491(4)
H2_2 H 0.657075 0.286217 0.348159
C6_2 C 0.5654(4) 0.2756(6) 0.2975(4)
C7_2 C 0.4912(5) 0.2671(5) 0.2997(4)
H3_2 H 0.464775 0.261138 0.264819
C8_2 C 0.6065(4) 0.2747(6) 0.2417(4)
O1_2 O 0.6729(3) 0.2866(5) 0.2428(3)
O2_2 O 0.5705(3) 0.2623(4) 0.1967(3)
O3_2 O 0.3416(3) 0.1779(4) 0.3617(3)
O4_2 O 0.3335(3) 0.3008(4) 0.4087(3)
O5_2 O 0.3275(3) 0.2904(4) 0.2996(3)
O6_2 O 0.6792(4) 0.2883(5) 0.4530(3)
O7_2 O 0.5792(4) 0.2743(6) 0.5034(3)
Zn2_2 Zn 0.27317(6) 0.27629(6) 0.47287(5)
P2_2 P 0.14256(10) 0.25849(13) 0.39470(9)
C10_2 C 0.0455(4) 0.2671(5) 0.3986(4)
C11_2 C 0.0057(5) 0.2725(5) 0.3473(4)
H4_2 H 0.030391 0.272378 0.311327
C15_2 C 0.0088(5) 0.2671(5) 0.4503(4)
H6_2 H 0.035225 0.261138 0.485181
O10_2 O 0.1584(3) 0.1779(4) 0.3883(3)
O11_2 O 0.1665(3) 0.3008(4) 0.3413(3)
O12_2 O 0.1725(3) 0.2904(4) 0.4504(3)
Zn3 Zn 0.77629(6) 0.27317(6) 0.22287(5)
Zn5 Zn 0.72371(6) 0.27317(6) 0.52713(5)
Co3_2 Co 0.62755(9) 0.250000 0.125000
O15_2 O 0.2134(5) 0.1729(3) 0.2572(3)
O16_2 O 0.2866(5) 0.1729(3) 0.4928(3)
O17_2 O 0.2377(4) 0.0705(3) 0.3033(3)
O18_2 O 0.2623(4) 0.0705(3) 0.4467(3)
O19_2 O 0.2883(5) 0.3208(4) 0.5470(3)
O20_2 O 0.2117(5) 0.3208(4) 0.2030(3)
C9_2 C 0.8896(5) 0.2803(6) 0.2930(4)
C12_2 C 0.9312(5) 0.2782(6) 0.3487(4)
C13_2 C 0.8942(4) 0.2809(6) 0.4009(4)
H5_2 H 0.842925 0.286217 0.401841
C14_2 C 0.9346(4) 0.2756(6) 0.4525(4)
C16_2 C 0.8935(4) 0.2747(6) 0.5083(4)
O8_2 O 0.8271(3) 0.2866(5) 0.5072(3)
O9_2 O 0.9295(3) 0.2623(4) 0.5533(3)
O13_2 O 0.8208(4) 0.2883(5) 0.2970(3)
O14_2 O 0.9208(4) 0.2743(6) 0.2466(3)
Co2_2 Co 0.87245(9) 0.250000 0.625000
Zn1_3 Zn 0.72371(6) 0.22683(6) 0.72287(5)
P1_3 P 0.74151(13) 0.35744(10) 0.64470(9)
C1_3 C 0.7197(6) 0.6104(5) 0.5430(4)
C2_3 C 0.7329(5) 0.4545(4) 0.6486(4)
C3_3 C 0.7275(5) 0.4943(5) 0.5973(4)
H1_3 H 0.727622 0.469609 0.561327
C4_3 C 0.7218(6) 0.5688(5) 0.5987(4)
C5_3 C 0.7191(6) 0.6058(4) 0.6509(4)
H2_3 H 0.713783 0.657075 0.651841
C6_3 C 0.7244(6) 0.5654(4) 0.7025(4)
C7_3 C 0.7329(5) 0.4912(5) 0.7003(4)
H3_3 H 0.738862 0.464775 0.735181
C8_3 C 0.7253(6) 0.6065(4) 0.7583(4)
O1_3 O 0.7134(5) 0.6729(3) 0.7572(3)
O2_3 O 0.7377(4) 0.5705(3) 0.8033(3)
O3_3 O 0.8221(4) 0.3416(3) 0.6383(3)
O4_3 O 0.6992(4) 0.3335(3) 0.5913(3)
O5_3 O 0.7096(4) 0.3275(3) 0.7004(3)
O7_3 O 0.7257(6) 0.5792(4) 0.4966(3)
P2_3 P 0.74151(13) 0.14256(10) 0.60530(9)
C10_3 C 0.7329(5) 0.0455(4) 0.6014(4)
C11_3 C 0.7275(5) 0.0057(5) 0.6527(4)
H4_3 H 0.727622 0.030391 0.688673
C15_3 C 0.7329(5) 0.0088(5) 0.5497(4)
H6_3 H 0.738862 0.035225 0.514819
O10_3 O 0.8221(4) 0.1584(3) 0.6117(3)
O11_3 O 0.6992(4) 0.1665(3) 0.6587(3)
O12_3 O 0.7096(4) 0.1725(3) 0.5496(3)
Zn3_2 Zn 0.72683(6) 0.77629(6) 0.77713(5)
Co3_3 Co 0.750000 0.62755(9) 0.875000
O15_3 O 0.8271(3) 0.2134(5) 0.7428(3)
O17_3 O 0.9295(3) 0.2377(4) 0.6967(3)
O20_3 O 0.6792(4) 0.2117(5) 0.7970(3)
C9_3 C 0.7197(6) 0.8896(5) 0.7070(4)
C12_3 C 0.7218(6) 0.9312(5) 0.6513(4)
C13_3 C 0.7191(6) 0.8942(4) 0.5991(4)
H5_3 H 0.713783 0.842925 0.598159
C14_3 C 0.7244(6) 0.9346(4) 0.5475(4)
C16_3 C 0.7253(6) 0.8935(4) 0.4917(4)
O13_3 O 0.7117(5) 0.8208(4) 0.7030(3)
O14_3 O 0.7257(6) 0.9208(4) 0.7534(3)
C9_4 C 0.2803(6) 0.1104(5) 0.7070(4)
C12_4 C 0.2782(6) 0.0688(5) 0.6513(4)
C13_4 C 0.2809(6) 0.1058(4) 0.5991(4)
H5_4 H 0.286217 0.157075 0.598159
C14_4 C 0.2756(6) 0.0654(4) 0.5475(4)
C16_4 C 0.2747(6) 0.1065(4) 0.4917(4)
O13_4 O 0.2883(5) 0.1792(4) 0.7030(3)
O14_4 O 0.2743(6) 0.0792(4) 0.7534(3)
Zn4_2 Zn 0.27317(6) 0.22371(6) 0.77713(5)
Zn1_4 Zn 0.27629(6) 0.77317(6) 0.72287(5)
P1_4 P 0.25849(13) 0.64256(10) 0.64470(9)
C1_4 C 0.2803(6) 0.3896(5) 0.5430(4)
C2_4 C 0.2671(5) 0.5455(4) 0.6486(4)
C3_4 C 0.2725(5) 0.5057(5) 0.5973(4)
H1_4 H 0.272378 0.530391 0.561327
C4_4 C 0.2782(6) 0.4312(5) 0.5987(4)
C5_4 C 0.2809(6) 0.3942(4) 0.6509(4)
H2_4 H 0.286217 0.342925 0.651841
C6_4 C 0.2756(6) 0.4346(4) 0.7025(4)
C7_4 C 0.2671(5) 0.5088(5) 0.7003(4)
H3_4 H 0.261138 0.535225 0.735181
C8_4 C 0.2747(6) 0.3935(4) 0.7583(4)
O1_4 O 0.2866(5) 0.3271(3) 0.7572(3)
O2_4 O 0.2623(4) 0.4295(3) 0.8033(3)
O3_4 O 0.1779(4) 0.6584(3) 0.6383(3)
O4_4 O 0.3008(4) 0.6665(3) 0.5913(3)
O5_4 O 0.2904(4) 0.6725(3) 0.7004(3)
O7_4 O 0.2743(6) 0.4208(4) 0.4966(3)
P2_4 P 0.25849(13) 0.85744(10) 0.60530(9)
C10_4 C 0.2671(5) 0.9545(4) 0.6014(4)
C11_4 C 0.2725(5) 0.9943(5) 0.6527(4)
H4_4 H 0.272378 0.969609 0.688673
C15_4 C 0.2671(5) 0.9912(5) 0.5497(4)
H6_4 H 0.261138 0.964775 0.514819
O10_4 O 0.1779(4) 0.8416(3) 0.6117(3)
O11_4 O 0.3008(4) 0.8335(3) 0.6587(3)
O12_4 O 0.2904(4) 0.8275(3) 0.5496(3)
Co3_4 Co 0.250000 0.37245(9) 0.875000
O15_4 O 0.1729(3) 0.7866(5) 0.7428(3)
O17_4 O 0.0705(3) 0.7623(4) 0.6967(3)
O20_4 O 0.3208(4) 0.7883(5) 0.7970(3)
Zn1_5 Zn 0.77629(6) 0.22683(6) 0.02713(5)
P1_5 P 0.75849(13) 0.35744(10) 0.10530(9)
C1_5 C 0.7803(6) 0.6104(5) 0.2070(4)
C2_5 C 0.7671(5) 0.4545(4) 0.1014(4)
C3_5 C 0.7725(5) 0.4943(5) 0.1527(4)
H1_5 H 0.772378 0.469609 0.188673
C4_5 C 0.7782(6) 0.5688(5) 0.1513(4)
C5_5 C 0.7809(6) 0.6058(4) 0.0991(4)
H2_5 H 0.786217 0.657075 0.098159
C6_5 C 0.7756(6) 0.5654(4) 0.0475(4)
C7_5 C 0.7671(5) 0.4912(5) 0.0497(4)
H3_5 H 0.761138 0.464775 0.014819
O3_5 O 0.6779(4) 0.3416(3) 0.1117(3)
O4_5 O 0.8008(4) 0.3335(3) 0.1587(3)
O5_5 O 0.7904(4) 0.3275(3) 0.0496(3)
O7_5 O 0.7743(6) 0.5792(4) 0.2534(3)
P2_5 P 0.75849(13) 0.14256(10) 0.14470(9)
C10_5 C 0.7671(5) 0.0455(4) 0.1486(4)
C11_5 C 0.7725(5) 0.0057(5) 0.0973(4)
H4_5 H 0.772378 0.030391 0.061327
C15_5 C 0.7671(5) 0.0088(5) 0.2003(4)
H6_5 H 0.761138 0.035225 0.235181
O10_5 O 0.6779(4) 0.1584(3) 0.1383(3)
O11_5 O 0.8008(4) 0.1665(3) 0.0913(3)
O12_5 O 0.7904(4) 0.1725(3) 0.2004(3)
O15_5 O 0.6729(3) 0.2134(5) 0.0072(3)
O17_5 O 0.5705(3) 0.2377(4) 0.0533(3)
C8_5 C 0.7747(6) 0.6065(4) 0.9917(4)
O1_5 O 0.7866(5) 0.6729(3) 0.9928(3)
O2_5 O 0.7623(4) 0.5705(3) 0.9467(3)
Zn3_3 Zn 0.77317(6) 0.77629(6) 0.97287(5)
O20_5 O 0.8208(4) 0.2117(5) 0.9530(3)
C9_5 C 0.7803(6) 0.8896(5) 0.0430(4)
C12_5 C 0.7782(6) 0.9312(5) 0.0987(4)
C13_5 C 0.7809(6) 0.8942(4) 0.1509(4)
H5_5 H 0.786217 0.842925 0.151841
C14_5 C 0.7756(6) 0.9346(4) 0.2025(4)
C16_5 C 0.7747(6) 0.8935(4) 0.2583(4)
O13_5 O 0.7883(5) 0.8208(4) 0.0470(3)
O14_5 O 0.7743(6) 0.9208(4) 0.9966(3)
C9_6 C 0.2197(6) 0.1104(5) 0.0430(4)
C12_6 C 0.2218(6) 0.0688(5) 0.0987(4)
C13_6 C 0.2191(6) 0.1058(4) 0.1509(4)
H5_6 H 0.213783 0.157075 0.151841
C14_6 C 0.2244(6) 0.0654(4) 0.2025(4)
C16_6 C 0.2253(6) 0.1065(4) 0.2583(4)
O13_6 O 0.2117(5) 0.1792(4) 0.0470(3)
O14_6 O 0.2257(6) 0.0792(4) 0.9966(3)
Zn4_3 Zn 0.22683(6) 0.22371(6) 0.97287(5)
Zn1_6 Zn 0.22371(6) 0.77317(6) 0.02713(5)
P1_6 P 0.24151(13) 0.64256(10) 0.10530(9)
C1_6 C 0.2197(6) 0.3896(5) 0.2070(4)
C2_6 C 0.2329(5) 0.5455(4) 0.1014(4)
C3_6 C 0.2275(5) 0.5057(5) 0.1527(4)
H1_6 H 0.227622 0.530391 0.188673
C4_6 C 0.2218(6) 0.4312(5) 0.1513(4)
C5_6 C 0.2191(6) 0.3942(4) 0.0991(4)
H2_6 H 0.213783 0.342925 0.098159
C6_6 C 0.2244(6) 0.4346(4) 0.0475(4)
C7_6 C 0.2329(5) 0.5088(5) 0.0497(4)
H3_6 H 0.238862 0.535225 0.014819
O3_6 O 0.3221(4) 0.6584(3) 0.1117(3)
O4_6 O 0.1992(4) 0.6665(3) 0.1587(3)
O5_6 O 0.2096(4) 0.6725(3) 0.0496(3)
O7_6 O 0.2257(6) 0.4208(4) 0.2534(3)
P2_6 P 0.24151(13) 0.85744(10) 0.14470(9)
C10_6 C 0.2329(5) 0.9545(4) 0.1486(4)
C11_6 C 0.2275(5) 0.9943(5) 0.0973(4)
H4_6 H 0.227622 0.969609 0.061327
C15_6 C 0.2329(5) 0.9912(5) 0.2003(4)
H6_6 H 0.238862 0.964775 0.235181
O10_6 O 0.3221(4) 0.8416(3) 0.1383(3)
O11_6 O 0.1992(4) 0.8335(3) 0.0913(3)
O12_6 O 0.2096(4) 0.8275(3) 0.2004(3)
O15_6 O 0.3271(3) 0.7866(5) 0.0072(3)
O17_6 O 0.4295(3) 0.7623(4) 0.0533(3)
C8_6 C 0.2253(6) 0.3935(4) 0.9917(4)
O1_6 O 0.2134(5) 0.3271(3) 0.9928(3)
O2_6 O 0.2377(4) 0.4295(3) 0.9467(3)
O20_6 O 0.1792(4) 0.7883(5) 0.9530(3)
C16_7 C 0.6065(4) 0.2253(6) 0.0083(4)
P1_7 P 0.14256(10) 0.24151(13) 0.85530(9)
C2_7 C 0.0455(4) 0.2329(5) 0.8514(4)
C3_7 C 0.0057(5) 0.2275(5) 0.9027(4)
H1_7 H 0.030391 0.227622 0.938673
C7_7 C 0.0088(5) 0.2329(5) 0.7997(4)
H3_7 H 0.035225 0.238862 0.764819
O3_7 O 0.1584(3) 0.3221(4) 0.8617(3)
O4_7 O 0.1665(3) 0.1992(4) 0.9087(3)
O5_7 O 0.1725(3) 0.2096(4) 0.7996(3)
P2_7 P 0.35744(10) 0.24151(13) 0.89470(9)
C9_7 C 0.6104(5) 0.2197(6) 0.7930(4)
C10_7 C 0.4545(4) 0.2329(5) 0.8986(4)
C11_7 C 0.4943(5) 0.2275(5) 0.8473(4)
H4_7 H 0.469609 0.227622 0.811327
C12_7 C 0.5688(5) 0.2218(6) 0.8487(4)
C13_7 C 0.6058(4) 0.2191(6) 0.9009(4)
H5_7 H 0.657075 0.213783 0.901841
C14_7 C 0.5654(4) 0.2244(6) 0.9525(4)
C15_7 C 0.4912(5) 0.2329(5) 0.9503(4)
H6_7 H 0.464775 0.238862 0.985181
O10_7 O 0.3416(3) 0.3221(4) 0.8883(3)
O11_7 O 0.3335(3) 0.1992(4) 0.8413(3)
O12_7 O 0.3275(3) 0.2096(4) 0.9504(3)
O14_7 O 0.5792(4) 0.2257(6) 0.7466(3)
O7_7 O 0.9208(4) 0.2257(6) 0.0034(3)
C1_7 C 0.8896(5) 0.2197(6) 0.9570(4)
C4_7 C 0.9312(5) 0.2218(6) 0.9013(4)
C5_7 C 0.8942(4) 0.2191(6) 0.8491(4)
H2_7 H 0.842925 0.213783 0.848159
C6_7 C 0.9346(4) 0.2244(6) 0.7975(4)
C8_7 C 0.8935(4) 0.2253(6) 0.7417(4)
O7_8 O 0.0792(4) 0.7743(6) 0.0034(3)
C1_8 C 0.1104(5) 0.7803(6) 0.9570(4)
C4_8 C 0.0688(5) 0.7782(6) 0.9013(4)
C5_8 C 0.1058(4) 0.7809(6) 0.8491(4)
H2_8 H 0.157075 0.786217 0.848159
C6_8 C 0.0654(4) 0.7756(6) 0.7975(4)
C8_8 C 0.1065(4) 0.7747(6) 0.7417(4)
C16_8 C 0.3935(4) 0.7747(6) 0.0083(4)
P1_8 P 0.85744(10) 0.75849(13) 0.85530(9)
C2_8 C 0.9545(4) 0.7671(5) 0.8514(4)
C3_8 C 0.9943(5) 0.7725(5) 0.9027(4)
H1_8 H 0.969609 0.772378 0.938673
C7_8 C 0.9912(5) 0.7671(5) 0.7997(4)
H3_8 H 0.964775 0.761138 0.764819
O3_8 O 0.8416(3) 0.6779(4) 0.8617(3)
O4_8 O 0.8335(3) 0.8008(4) 0.9087(3)
O5_8 O 0.8275(3) 0.7904(4) 0.7996(3)
P2_8 P 0.64256(10) 0.75849(13) 0.89470(9)
C9_8 C 0.3896(5) 0.7803(6) 0.7930(4)
C10_8 C 0.5455(4) 0.7671(5) 0.8986(4)
C11_8 C 0.5057(5) 0.7725(5) 0.8473(4)
H4_8 H 0.530391 0.772378 0.811327
C12_8 C 0.4312(5) 0.7782(6) 0.8487(4)
C13_8 C 0.3942(4) 0.7809(6) 0.9009(4)
H5_8 H 0.342925 0.786217 0.901841
C14_8 C 0.4346(4) 0.7756(6) 0.9525(4)
C15_8 C 0.5088(5) 0.7671(5) 0.9503(4)
H6_8 H 0.535225 0.761138 0.985181
O10_8 O 0.6584(3) 0.6779(4) 0.8883(3)
O11_8 O 0.6665(3) 0.8008(4) 0.8413(3)
O12_8 O 0.6725(3) 0.7904(4) 0.9504(3)
O14_8 O 0.4208(4) 0.7743(6) 0.7466(3)
loop_
_geom_bond_atom_site_label_1
_geom_bond_atom_site_label_2
_geom_bond_site_symmetry_1
_geom_bond_site_symmetry_2
C9 C12 1_555 1_555
C13 C12 1_555 1_555
H5 C13 1_555 1_555
C14 C13 1_555 1_555
C16 C14 1_555 1_555
O8 C16 1_555 1_555
O9 C16 1_555 1_555
O13 C9 1_555 1_555
O14 C9 1_555 1_555
Zn4 O13 1_555 1_555
Zn6 O8 1_555 1_555
Co2 O9 1_555 1_555
Zn1 O5 1_555 1_555
Co1 O3 1_555 1_555
P1 C2 1_555 1_555
C1 C4 1_555 1_555
C2 C3 1_555 1_555
C3 H1 1_555 1_555
C4 C3 1_555 1_555
C5 C4 1_555 1_555
H2 C5 1_555 1_555
C6 C5 1_555 1_555
C7 C2 1_555 1_555
H3 C7 1_555 1_555
C8 C6 1_555 1_555
O1 C8 1_555 1_555
O2 C8 1_555 1_555
O3 P1 1_555 1_555
O4 P1 1_555 1_555
O5 P1 1_555 1_555
O6 C1 1_555 1_555
O7 C1 1_555 1_555
Zn2 O4 1_555 1_555
P2 C10 1_555 1_555
C10 C11 1_555 1_555
C11 H4 1_555 1_555
C15 C10 1_555 1_555
H6 C15 1_555 1_555
O10 Co1 1_555 1_555
O11 Zn1 1_555 1_555
O12 Zn2 1_555 1_555
Zn4 O1 1_555 1_555
Zn6 O6 1_555 1_555
Co3 O2 1_555 1_555
O15 Zn1 1_555 1_555
O16 Zn2 1_555 1_555
O17 Co1 1_555 1_555
O18 Co1 1_555 1_555
O19 Zn2 1_555 1_555
O20 Zn1 1_555 1_555
C6 C7 1_555 1_555
P2 O10 1_555 1_555
P2 O11 1_555 1_555
P2 O12 1_555 1_555
Zn1_2 O5_2 1_555 1_555
Co1_2 O3_2 1_555 1_555
P1_2 C2_2 1_555 1_555
C1_2 C4_2 1_555 1_555
C2_2 C3_2 1_555 1_555
C3_2 H1_2 1_555 1_555
C4_2 C3_2 1_555 1_555
C5_2 C4_2 1_555 1_555
H2_2 C5_2 1_555 1_555
C6_2 C5_2 1_555 1_555
C7_2 C2_2 1_555 1_555
H3_2 C7_2 1_555 1_555
C8_2 C6_2 1_555 1_555
O1_2 C8_2 1_555 1_555
O2_2 C8_2 1_555 1_555
O3_2 P1_2 1_555 1_555
O4_2 P1_2 1_555 1_555
O5_2 P1_2 1_555 1_555
O6_2 C1_2 1_555 1_555
O7_2 C1_2 1_555 1_555
Zn2_2 O4_2 1_555 1_555
P2_2 C10_2 1_555 1_555
C10_2 C11_2 1_555 1_555
C11_2 H4_2 1_555 1_555
C15_2 C10_2 1_555 1_555
H6_2 C15_2 1_555 1_555
O10_2 Co1_2 1_555 1_555
O11_2 Zn1_2 1_555 1_555
O12_2 Zn2_2 1_555 1_555
Zn3 O1_2 1_555 1_555
Zn5 O6_2 1_555 1_555
Co3_2 O2_2 1_555 1_555
O15_2 Zn1_2 1_555 1_555
O16_2 Zn2_2 1_555 1_555
O17_2 Co1_2 1_555 1_555
O18_2 Co1_2 1_555 1_555
O19_2 Zn2_2 1_555 1_555
O20_2 Zn1_2 1_555 1_555
C6_2 C7_2 1_555 1_555
P2_2 O10_2 1_555 1_555
P2_2 O11_2 1_555 1_555
P2_2 O12_2 1_555 1_555
C9_2 C12_2 1_555 1_555
C13_2 C12_2 1_555 1_555
H5_2 C13_2 1_555 1_555
C14_2 C13_2 1_555 1_555
C16_2 C14_2 1_555 1_555
O8_2 C16_2 1_555 1_555
O9_2 C16_2 1_555 1_555
O13_2 C9_2 1_555 1_555
O14_2 C9_2 1_555 1_555
Zn3 O13_2 1_555 1_555
Zn5 O8_2 1_555 1_555
Co2_2 O9_2 1_555 1_555
Zn1_3 O5_3 1_555 1_555
Co2_2 O3_3 1_555 1_555
P1_3 C2_3 1_555 1_555
C1_3 C4_3 1_555 1_555
C2_3 C3_3 1_555 1_555
C3_3 H1_3 1_555 1_555
C4_3 C3_3 1_555 1_555
C5_3 C4_3 1_555 1_555
H2_3 C5_3 1_555 1_555
C6_3 C5_3 1_555 1_555
C7_3 C2_3 1_555 1_555
H3_3 C7_3 1_555 1_555
C8_3 C6_3 1_555 1_555
O1_3 C8_3 1_555 1_555
O2_3 C8_3 1_555 1_555
O3_3 P1_3 1_555 1_555
O4_3 P1_3 1_555 1_555
O5_3 P1_3 1_555 1_555
O19 C1_3 1_555 1_555
O7_3 C1_3 1_555 1_555
Zn5 O4_3 1_555 1_555
P2_3 C10_3 1_555 1_555
C10_3 C11_3 1_555 1_555
C11_3 H4_3 1_555 1_555
C15_3 C10_3 1_555 1_555
H6_3 C15_3 1_555 1_555
O10_3 Co2_2 1_555 1_555
O11_3 Zn1_3 1_555 1_555
O12_3 Zn5 1_555 1_555
Zn3_2 O1_3 1_555 1_555
Co3_3 O2_3 1_555 1_555
O15_3 Zn1_3 1_555 1_555
O17_3 Co2_2 1_555 1_555
O20_3 Zn1_3 1_555 1_555
C6_3 C7_3 1_555 1_555
P2_3 O10_3 1_555 1_555
P2_3 O11_3 1_555 1_555
P2_3 O12_3 1_555 1_555
C9_3 C12_3 1_555 1_555
C13_3 C12_3 1_555 1_555
H5_3 C13_3 1_555 1_555
C14_3 C13_3 1_555 1_555
C16_3 C14_3 1_555 1_555
O16 C16_3 1_555 1_555
O18 C16_3 1_555 1_555
O13_3 C9_3 1_555 1_555
O14_3 C9_3 1_555 1_555
Zn3_2 O13_3 1_555 1_555
C9_4 C12_4 1_555 1_555
C13_4 C12_4 1_555 1_555
H5_4 C13_4 1_555 1_555
C14_4 C13_4 1_555 1_555
C16_4 C14_4 1_555 1_555
O16_2 C16_4 1_555 1_555
O18_2 C16_4 1_555 1_555
O13_4 C9_4 1_555 1_555
O14_4 C9_4 1_555 1_555
Zn4_2 O13_4 1_555 1_555
Zn1_4 O5_4 1_555 1_555
Co2 O3_4 1_555 1_555
P1_4 C2_4 1_555 1_555
C1_4 C4_4 1_555 1_555
C2_4 C3_4 1_555 1_555
C3_4 H1_4 1_555 1_555
C4_4 C3_4 1_555 1_555
C5_4 C4_4 1_555 1_555
H2_4 C5_4 1_555 1_555
C6_4 C5_4 1_555 1_555
C7_4 C2_4 1_555 1_555
H3_4 C7_4 1_555 1_555
C8_4 C6_4 1_555 1_555
O1_4 C8_4 1_555 1_555
O2_4 C8_4 1_555 1_555
O3_4 P1_4 1_555 1_555
O4_4 P1_4 1_555 1_555
O5_4 P1_4 1_555 1_555
O19_2 C1_4 1_555 1_555
O7_4 C1_4 1_555 1_555
Zn6 O4_4 1_555 1_555
P2_4 C10_4 1_555 1_555
C10_4 C11_4 1_555 1_555
C11_4 H4_4 1_555 1_555
C15_4 C10_4 1_555 1_555
H6_4 C15_4 1_555 1_555
O10_4 Co2 1_555 1_555
O11_4 Zn1_4 1_555 1_555
O12_4 Zn6 1_555 1_555
Zn4_2 O1_4 1_555 1_555
Co3_4 O2_4 1_555 1_555
O15_4 Zn1_4 1_555 1_555
O17_4 Co2 1_555 1_555
O20_4 Zn1_4 1_555 1_555
C6_4 C7_4 1_555 1_555
P2_4 O10_4 1_555 1_555
P2_4 O11_4 1_555 1_555
P2_4 O12_4 1_555 1_555
Zn1_5 O5_5 1_555 1_555
Co3_2 O3_5 1_555 1_555
P1_5 C2_5 1_555 1_555
C1_5 C4_5 1_555 1_555
C2_5 C3_5 1_555 1_555
C3_5 H1_5 1_555 1_555
C4_5 C3_5 1_555 1_555
C5_5 C4_5 1_555 1_555
H2_5 C5_5 1_555 1_555
C6_5 C5_5 1_555 1_555
C7_5 C2_5 1_555 1_555
H3_5 C7_5 1_555 1_555
O3_5 P1_5 1_555 1_555
O4_5 P1_5 1_555 1_555
O5_5 P1_5 1_555 1_555
O20 C1_5 1_555 1_555
O7_5 C1_5 1_555 1_555
Zn3 O4_5 1_555 1_555
P2_5 C10_5 1_555 1_555
C10_5 C11_5 1_555 1_555
C11_5 H4_5 1_555 1_555
C15_5 C10_5 1_555 1_555
H6_5 C15_5 1_555 1_555
O10_5 Co3_2 1_555 1_555
O11_5 Zn1_5 1_555 1_555
O12_5 Zn3 1_555 1_555
O15_5 Zn1_5 1_555 1_555
O17_5 Co3_2 1_555 1_555
C6_5 C7_5 1_555 1_555
P2_5 O10_5 1_555 1_555
P2_5 O11_5 1_555 1_555
P2_5 O12_5 1_555 1_555
O1_5 C8_5 1_555 1_555
O2_5 C8_5 1_555 1_555
Zn3_3 O1_5 1_555 1_555
Co3_3 O2_5 1_555 1_555
C9_5 C12_5 1_555 1_555
C13_5 C12_5 1_555 1_555
H5_5 C13_5 1_555 1_555
C14_5 C13_5 1_555 1_555
C16_5 C14_5 1_555 1_555
O15 C16_5 1_555 1_555
O17 C16_5 1_555 1_555
O13_5 C9_5 1_555 1_555
C9_6 C12_6 1_555 1_555
C13_6 C12_6 1_555 1_555
H5_6 C13_6 1_555 1_555
C14_6 C13_6 1_555 1_555
C16_6 C14_6 1_555 1_555
O15_2 C16_6 1_555 1_555
O17_2 C16_6 1_555 1_555
O13_6 C9_6 1_555 1_555
Zn1_6 O5_6 1_555 1_555
Co3 O3_6 1_555 1_555
P1_6 C2_6 1_555 1_555
C1_6 C4_6 1_555 1_555
C2_6 C3_6 1_555 1_555
C3_6 H1_6 1_555 1_555
C4_6 C3_6 1_555 1_555
C5_6 C4_6 1_555 1_555
H2_6 C5_6 1_555 1_555
C6_6 C5_6 1_555 1_555
C7_6 C2_6 1_555 1_555
H3_6 C7_6 1_555 1_555
O3_6 P1_6 1_555 1_555
O4_6 P1_6 1_555 1_555
O5_6 P1_6 1_555 1_555
O20_2 C1_6 1_555 1_555
O7_6 C1_6 1_555 1_555
Zn4 O4_6 1_555 1_555
P2_6 C10_6 1_555 1_555
C10_6 C11_6 1_555 1_555
C11_6 H4_6 1_555 1_555
C15_6 C10_6 1_555 1_555
H6_6 C15_6 1_555 1_555
O10_6 Co3 1_555 1_555
O11_6 Zn1_6 1_555 1_555
O12_6 Zn4 1_555 1_555
O15_6 Zn1_6 1_555 1_555
O17_6 Co3 1_555 1_555
C6_6 C7_6 1_555 1_555
P2_6 O10_6 1_555 1_555
P2_6 O11_6 1_555 1_555
P2_6 O12_6 1_555 1_555
O1_6 C8_6 1_555 1_555
O2_6 C8_6 1_555 1_555
Zn4_3 O1_6 1_555 1_555
Co3_4 O2_6 1_555 1_555
O15_5 C16_7 1_555 1_555
O17_5 C16_7 1_555 1_555
Zn4_2 O5_7 1_555 1_555
Co3_4 O3_7 1_555 1_555
P1_7 C2_7 1_555 1_555
C2_7 C3_7 1_555 1_555
C3_7 H1_7 1_555 1_555
C7_7 C2_7 1_555 1_555
H3_7 C7_7 1_555 1_555
O3_7 P1_7 1_555 1_555
O4_7 P1_7 1_555 1_555
O5_7 P1_7 1_555 1_555
Zn4_3 O4_7 1_555 1_555
P2_7 C10_7 1_555 1_555
C9_7 C12_7 1_555 1_555
C10_7 C11_7 1_555 1_555
C11_7 H4_7 1_555 1_555
C12_7 C11_7 1_555 1_555
C13_7 C12_7 1_555 1_555
H5_7 C13_7 1_555 1_555
C14_7 C13_7 1_555 1_555
C15_7 C10_7 1_555 1_555
H6_7 C15_7 1_555 1_555
O10_7 Co3_4 1_555 1_555
O11_7 Zn4_2 1_555 1_555
O12_7 Zn4_3 1_555 1_555
O20_3 C9_7 1_555 1_555
O14_7 C9_7 1_555 1_555
P2_7 O10_7 1_555 1_555
P2_7 O11_7 1_555 1_555
P2_7 O12_7 1_555 1_555
C14_7 C15_7 1_555 1_555
C1_7 C4_7 1_555 1_555
C5_7 C4_7 1_555 1_555
H2_7 C5_7 1_555 1_555
C6_7 C5_7 1_555 1_555
C8_7 C6_7 1_555 1_555
O15_3 C8_7 1_555 1_555
O17_3 C8_7 1_555 1_555
O20_5 C1_7 1_555 1_555
C1_8 C4_8 1_555 1_555
C5_8 C4_8 1_555 1_555
H2_8 C5_8 1_555 1_555
C6_8 C5_8 1_555 1_555
C8_8 C6_8 1_555 1_555
O15_4 C8_8 1_555 1_555
O17_4 C8_8 1_555 1_555
O20_6 C1_8 1_555 1_555
O15_6 C16_8 1_555 1_555
O17_6 C16_8 1_555 1_555
Zn3_2 O5_8 1_555 1_555
Co3_3 O3_8 1_555 1_555
P1_8 C2_8 1_555 1_555
C2_8 C3_8 1_555 1_555
C3_8 H1_8 1_555 1_555
C7_8 C2_8 1_555 1_555
H3_8 C7_8 1_555 1_555
O3_8 P1_8 1_555 1_555
O4_8 P1_8 1_555 1_555
O5_8 P1_8 1_555 1_555
Zn3_3 O4_8 1_555 1_555
P2_8 C10_8 1_555 1_555
C9_8 C12_8 1_555 1_555
C10_8 C11_8 1_555 1_555
C11_8 H4_8 1_555 1_555
C12_8 C11_8 1_555 1_555
C13_8 C12_8 1_555 1_555
H5_8 C13_8 1_555 1_555
C14_8 C13_8 1_555 1_555
C15_8 C10_8 1_555 1_555
H6_8 C15_8 1_555 1_555
O10_8 Co3_3 1_555 1_555
O11_8 Zn3_2 1_555 1_555
O12_8 Zn3_3 1_555 1_555
O20_4 C9_8 1_555 1_555
O14_8 C9_8 1_555 1_555
P2_8 O10_8 1_555 1_555
P2_8 O11_8 1_555 1_555
P2_8 O12_8 1_555 1_555
C14_8 C15_8 1_555 1_555

#END
