
###############################################################################
#
# This file contains modified crystal structure data generated from the
# MOF subset of the Cambridge Structural Database (CSD) v543 
# hosted by the Cambridge Crystallographic Data Centre (CCDC).
#
# This work is licensed under the Creative Commons
# Attribution-NonCommercial-ShareAlike 4.0 International License.
# To view a copy of this license, visit
# http://creativecommons.org/licenses/by-nc-sa/4.0/
# or send a letter to
# Creative Commons, PO Box 1866, Mountain View, CA 94042, USA.
#
# CIF created using the CSD Python API on 29 September 2022
# The structure has been converted into the P1 space group
# The structure has a 3D framework
# The original CSD entry AZUJOX is in the tetragonal crystal system
# The framework has been calculated to contain at least 10.0% void space
# The void calculation uses a probe of radius 1.32A, grid spacing 0.4
# H atom positions have been added when not included in the experimental data
#
###############################################################################

data_AZUJOX
_chemical_formula_moiety         '(C512 H256 Mn36 O476 P64 Zn64)n'
_symmetry_cell_setting           triclinic
_symmetry_space_group_name_H-M   'P 1'
_symmetry_Int_Tables_number      1
_space_group_name_Hall           'P 1'
loop_
_symmetry_equiv_pos_site_id
_symmetry_equiv_pos_as_xyz
1 x,y,z
_cell_length_a                   36.8274(15)
_cell_length_b                   36.8274(15)
_cell_length_c                   24.0247(12)
_cell_angle_alpha                90
_cell_angle_beta                 90
_cell_angle_gamma                90
_cell_volume                     32583.7
loop_
_atom_site_label
_atom_site_type_symbol
_atom_site_fract_x
_atom_site_fract_y
_atom_site_fract_z
Zn1 Zn 0.13451(3) 0.13298(3) 0.40553(5)
Zn2 Zn 0.11691(4) 0.13320(3) 0.59494(6)
Zn4 Zn 0.36740(3) 0.11501(3) 0.34473(5)
Mn1 Mn 0.12295(5) 0.04891(5) 0.49998(7)
P1 P 0.18010(8) 0.12172(11) 0.51339(14)
P2 P 0.07185(8) 0.12333(11) 0.48790(14)
P3 P 0.12015(8) 0.32193(7) 0.23744(12)
P4 P 0.38111(9) 0.07006(7) 0.23716(13)
C1 C 0.2285(3) 0.1193(4) 0.5151(5)
C2 C 0.2476(3) 0.1179(3) 0.4657(5)
H1 H 0.234785 0.119459 0.432462
C3 C 0.2857(3) 0.1143(3) 0.4634(5)
C4 C 0.2476(3) 0.1192(3) 0.5663(5)
H2 H 0.235556 0.121036 0.600257
C5 C 0.3039(3) 0.1148(3) 0.5158(5)
H3 H 0.329125 0.114264 0.516600
C6 C 0.2856(3) 0.1161(4) 0.5634(5)
C7 C 0.3056(3) 0.1148(3) 0.6203(5)
C8 C 0.3059(3) 0.1126(3) 0.4117(5)
C9 C 0.0226(3) 0.1286(3) 0.4858(5)
C10 C 0.0048(3) 0.1304(3) 0.4368(5)
H4 H 0.017967 0.129843 0.403750
C11 C 0.0032(3) 0.1287(4) 0.5358(6)
H5 H 0.015360 0.124909 0.569158
C17 C 0.1279(3) 0.2724(3) 0.2357(5)
C18 C 0.1281(3) 0.2543(3) 0.1867(5)
H7 H 0.125293 0.267214 0.153671
C19 C 0.1325(3) 0.2163(3) 0.1847(5)
C20 C 0.1304(3) 0.2535(3) 0.2855(5)
H8 H 0.128712 0.266145 0.318957
C21 C 0.1350(4) 0.1984(3) 0.2371(5)
H9 H 0.136602 0.173200 0.237830
C22 C 0.1351(3) 0.2171(3) 0.2864(5)
C23 C 0.1351(4) 0.1973(4) 0.3409(6)
C24 C 0.1344(3) 0.1947(3) 0.1319(5)
C25 C 0.3810(4) 0.0213(3) 0.2353(5)
C26 C 0.3843(3) 0.0025(3) 0.1842(5)
H10 H 0.385222 0.015044 0.150616
C28 C 0.3823(4) 0.0024(3) 0.2843(6)
H11 H 0.381334 0.015313 0.317515
O1 O 0.1690(2) 0.1444(3) 0.4630(4)
O2 O 0.1672(3) 0.1365(3) 0.5691(4)
O3 O 0.1671(2) 0.0815(2) 0.5047(4)
O4 O 0.3395(2) 0.1124(3) 0.4129(4)
O5 O 0.2885(3) 0.1146(5) 0.3645(5)
O6 O 0.3385(2) 0.1062(3) 0.6161(4)
O7 O 0.2898(2) 0.1246(3) 0.6611(4)
O8 O 0.0856(2) 0.1356(2) 0.4321(4)
O9 O 0.0861(2) 0.1448(3) 0.5328(4)
O10 O 0.07874(19) 0.0805(2) 0.4958(4)
O15 O 0.1348(2) 0.3356(2) 0.1818(4)
O16 O 0.0804(3) 0.3287(2) 0.2448(4)
O17 O 0.1431(2) 0.3370(2) 0.2837(4)
O18 O 0.1243(3) 0.2127(2) 0.0883(4)
O19 O 0.1456(3) 0.1643(2) 0.1347(4)
O20 O 0.1374(3) 0.1635(2) 0.3390(4)
O21 O 0.1362(5) 0.2142(4) 0.3820(5)
O22 O 0.3573(3) 0.0817(2) 0.2859(4)
O23 O 0.3654(3) 0.0836(3) 0.1808(4)
O24 O 0.4189(3) 0.0829(2) 0.2450(4)
O30 O 0.0088(4) 0.1291(8) 0.2483(5)
Zn5 Zn 0.38298(3) 0.11549(3) 0.65553(5)
Zn8 Zn 0.13220(4) 0.36724(4) 0.34505(6)
Zn10 Zn 0.36780(4) 0.13276(4) 0.15495(6)
Zn11 Zn 0.13499(3) 0.11740(3) 0.09473(5)
Zn12 Zn 0.13260(3) 0.38499(3) 0.15527(5)
Mn4 Mn 0.29891(5) 0.12705(5) 0.74998(7)
Mn5 Mn 0.04778(4) 0.37304(4) 0.24995(7)
Mn6 Mn 0.45222(4) 0.12696(4) 0.25005(7)
Mn7 Mn 0.12304(4) 0.20222(4) 0.00005(7)
O31 O 0.1438(3) 0.0885(2) 0.3661(4)
O32 O 0.1254(3) 0.0398(2) 0.4111(4)
O33 O 0.1134(3) 0.1639(2) 0.6615(4)
O34 O 0.3652(2) 0.1644(2) 0.3182(4)
O38 O 0.4143(2) 0.1044(3) 0.3847(4)
O41 O 0.1195(3) 0.0390(2) 0.5885(3)
O42 O 0.1084(3) 0.0888(3) 0.6343(4)
H15 H 0.018851 0.107835 0.268509
H16 H 0.0173256 0.12867 0.209094
C27 C 0.3861(4) 0.9649(3) 0.1855(5)
C29 C 0.3867(4) 0.9459(3) 0.2356(5)
H12 H 0.388057 0.920689 0.235132
C30 C 0.3852(4) 0.9639(3) 0.2865(5)
C31 C 0.3852(4) 0.9438(4) 0.3373(6)
C32 C 0.3868(4) 0.9454(4) 0.1295(6)
O25 O 0.3805(3) 0.9610(2) 0.0885(3)
O26 O 0.3916(3) 0.9112(3) 0.1343(4)
O27 O 0.3856(3) 0.9109(2) 0.3366(4)
O28 O 0.3793(5) 0.9591(4) 0.3878(6)
O29 O 0.1061(9) 0.9931(4) 0.4978(6)
Zn6 Zn 0.38309(4) 0.86680(3) 0.09494(6)
Zn9 Zn 0.38276(4) 0.88220(4) 0.40495(6)
Mn3 Mn 0.37705(5) 0.95109(5) -0.00002(7)
H13 H 0.114203 0.980688 0.532327
H14 H 0.0792226 0.991868 0.495089
Mn3_2 Mn 0.37705(5) 0.95109(5) 0.99998(7)
Zn3 Zn 0.86780(4) 0.13276(4) 0.34505(6)
Mn2 Mn 0.95222(4) 0.12696(4) 0.24995(7)
C12 C 0.9459(4) 0.1336(3) 0.3820(6)
C13 C 0.9480(3) 0.1367(4) 0.4883(7)
H6 H 0.923124 0.140853 0.489348
C14 C 0.9671(3) 0.1342(4) 0.5362(6)
C15 C 0.9474(4) 0.1349(4) 0.5895(7)
C16 C 0.9667(3) 0.1330(3) 0.4347(6)
O11 O 0.9636(2) 0.1291(3) 0.3381(4)
O12 O 0.9135(2) 0.1414(4) 0.3845(4)
O13 O 0.9139(2) 0.1366(3) 0.5885(4)
O14 O 0.9627(4) 0.1302(5) 0.6320(5)
Zn7 Zn 0.88320(3) 0.13309(4) 0.65506(6)
O35 O 0.9196(3) 0.1713(2) 0.2448(4)
O36 O 0.8569(2) 0.1630(2) 0.2837(4)
O37 O 0.9627(2) 0.1257(3) 0.1617(4)
O39 O 0.8654(3) 0.0836(3) 0.3192(4)
O40 O 0.9189(3) 0.0829(2) 0.2550(4)
O43 O 0.8391(2) 0.1356(3) 0.4134(4)
Mn4_2 Mn 0.62295(5) 0.54891(5) -0.00002(7)
Zn1_2 Zn 0.61702(3) 0.38451(3) 0.65553(5)
Zn2_2 Zn 0.61680(3) 0.36691(4) 0.84494(6)
Zn3_2 Zn 0.61724(4) 0.11780(4) 0.59505(6)
Zn4_2 Zn 0.63499(3) 0.61740(3) 0.59473(5)
Mn1_2 Mn 0.70109(5) 0.37295(5) 0.74998(7)
Mn2_2 Mn 0.62304(4) 0.20222(4) 0.49995(7)
P1_2 P 0.62828(11) 0.43010(8) 0.76339(14)
P2_2 P 0.62667(11) 0.32185(8) 0.73790(14)
P3_2 P 0.42807(7) 0.37015(8) 0.48744(12)
P4_2 P 0.67994(7) 0.63111(9) 0.48716(13)
C1_2 C 0.6307(4) 0.4785(3) 0.7651(5)
C2_2 C 0.6321(3) 0.4976(3) 0.7157(5)
H1_2 H 0.630541 0.484785 0.682462
C3_2 C 0.6357(3) 0.5357(3) 0.7134(5)
C4_2 C 0.6308(3) 0.4976(3) 0.8163(5)
H2_2 H 0.628964 0.485556 0.850257
C5_2 C 0.6352(3) 0.5539(3) 0.7658(5)
H3_2 H 0.635736 0.579125 0.766600
C6_2 C 0.6339(4) 0.5356(3) 0.8134(5)
C7_2 C 0.6352(3) 0.5556(3) 0.8703(5)
C8_2 C 0.6374(3) 0.5559(3) 0.6617(5)
C9_2 C 0.6214(3) 0.2726(3) 0.7358(5)
C10_2 C 0.6196(3) 0.2548(3) 0.6868(5)
H4_2 H 0.620157 0.267967 0.653750
C11_2 C 0.6213(4) 0.2532(3) 0.7858(6)
H5_2 H 0.625091 0.265360 0.819158
C12_2 C 0.6164(3) 0.1959(4) 0.6320(6)
C13_2 C 0.6133(4) 0.1980(3) 0.7383(7)
H6_2 H 0.609147 0.173124 0.739348
C14_2 C 0.6158(4) 0.2171(3) 0.7862(6)
C15_2 C 0.6151(4) 0.1974(4) 0.8395(7)
C16_2 C 0.6170(3) 0.2167(3) 0.6847(6)
C17_2 C 0.4776(3) 0.3779(3) 0.4857(5)
C18_2 C 0.4957(3) 0.3781(3) 0.4367(5)
H7_2 H 0.482786 0.375293 0.403671
C19_2 C 0.5337(3) 0.3825(3) 0.4347(5)
C20_2 C 0.4965(3) 0.3804(3) 0.5355(5)
H8_2 H 0.483855 0.378712 0.568957
C21_2 C 0.5516(3) 0.3850(4) 0.4871(5)
H9_2 H 0.576800 0.386602 0.487830
C22_2 C 0.5329(3) 0.3851(3) 0.5364(5)
C23_2 C 0.5527(4) 0.3851(4) 0.5909(6)
C24_2 C 0.5553(3) 0.3844(3) 0.3819(5)
C25_2 C 0.7287(3) 0.6310(4) 0.4853(5)
C26_2 C 0.7475(3) 0.6343(3) 0.4342(5)
H10_2 H 0.734956 0.635222 0.400616
C27_2 C 0.7851(3) 0.6361(4) 0.4355(5)
C28_2 C 0.7476(3) 0.6323(4) 0.5343(6)
H11_2 H 0.734687 0.631334 0.567515
C29_2 C 0.8041(3) 0.6367(4) 0.4856(5)
H12_2 H 0.829311 0.638057 0.485132
C30_2 C 0.7861(3) 0.6352(4) 0.5365(5)
C31_2 C 0.8062(4) 0.6352(4) 0.5873(6)
C32_2 C 0.8046(4) 0.6368(4) 0.3795(6)
O1_2 O 0.6056(3) 0.4190(2) 0.7130(4)
O2_2 O 0.6135(3) 0.4172(3) 0.8191(4)
O3_2 O 0.6685(2) 0.4171(2) 0.7547(4)
O4_2 O 0.6376(3) 0.5895(2) 0.6629(4)
O5_2 O 0.6354(5) 0.5385(3) 0.6145(5)
O6_2 O 0.6438(3) 0.5885(2) 0.8661(4)
O7_2 O 0.6254(3) 0.5398(2) 0.9111(4)
O8_2 O 0.6144(2) 0.3356(2) 0.6821(4)
O9_2 O 0.6052(3) 0.3361(2) 0.7828(4)
O10_2 O 0.6695(2) 0.32874(19) 0.7458(4)
O11_2 O 0.6209(3) 0.2136(2) 0.5881(4)
O12_2 O 0.6086(4) 0.1635(2) 0.6345(4)
O13_2 O 0.6134(3) 0.1639(2) 0.8385(4)
O14_2 O 0.6198(5) 0.2127(4) 0.8820(5)
O15_2 O 0.4144(2) 0.3848(2) 0.4318(4)
O16_2 O 0.4213(2) 0.3304(3) 0.4948(4)
O17_2 O 0.4130(2) 0.3931(2) 0.5337(4)
O18_2 O 0.5373(2) 0.3743(3) 0.3383(4)
O19_2 O 0.5857(2) 0.3956(3) 0.3847(4)
O20_2 O 0.5865(2) 0.3874(3) 0.5890(4)
O21_2 O 0.5358(4) 0.3862(5) 0.6320(5)
O22_2 O 0.6683(2) 0.6073(3) 0.5359(4)
O23_2 O 0.6664(3) 0.6154(3) 0.4308(4)
O24_2 O 0.6671(2) 0.6689(3) 0.4950(4)
O25_2 O 0.7890(2) 0.6305(3) 0.3385(3)
O26_2 O 0.8388(3) 0.6416(3) 0.3843(4)
O27_2 O 0.8391(2) 0.6356(3) 0.5866(4)
O28_2 O 0.7909(4) 0.6293(5) 0.6378(6)
O29_2 O 0.7569(4) 0.3561(9) 0.7478(6)
O30_2 O 0.6209(8) 0.2588(4) 0.4983(5)
Zn5_2 Zn 0.63451(3) 0.63298(3) 0.90553(5)
Zn6_2 Zn 0.88320(3) 0.63309(4) 0.34494(6)
Zn7_2 Zn 0.61691(4) 0.13320(3) 0.90506(6)
Zn8_2 Zn 0.38276(4) 0.38220(4) 0.59505(6)
Zn9_2 Zn 0.86780(4) 0.63276(4) 0.65495(6)
Zn10_2 Zn 0.61724(4) 0.61780(4) 0.40495(6)
Zn11_2 Zn 0.63260(3) 0.38499(3) 0.34473(5)
Zn12_2 Zn 0.36501(3) 0.38260(3) 0.40527(5)
Mn3_3 Mn 0.79891(5) 0.62705(5) 0.24998(7)
Mn4_3 Mn 0.62295(5) 0.54891(5) 0.99998(7)
Mn5_2 Mn 0.37696(4) 0.29778(4) 0.49995(7)
Mn6_2 Mn 0.62304(4) 0.70222(4) 0.50005(7)
Mn7_2 Mn 0.54778(4) 0.37304(4) 0.25005(7)
O31_2 O 0.6615(2) 0.3938(3) 0.6161(4)
O32_2 O 0.7102(2) 0.3754(3) 0.6611(4)
O33_2 O 0.5861(2) 0.3634(3) 0.9115(4)
O34_2 O 0.5856(2) 0.6152(2) 0.5682(4)
O35_2 O 0.5787(2) 0.1696(3) 0.4948(4)
O36_2 O 0.5870(2) 0.1069(2) 0.5337(4)
O37_2 O 0.6243(3) 0.2127(2) 0.4117(4)
O38_2 O 0.6456(3) 0.6643(2) 0.6347(4)
O39_2 O 0.6664(3) 0.1154(3) 0.5692(4)
O40_2 O 0.6671(2) 0.1689(3) 0.5050(4)
O41_2 O 0.7110(2) 0.3695(3) 0.8385(3)
O42_2 O 0.6612(3) 0.3584(3) 0.8843(4)
O43_2 O 0.6144(3) 0.0891(2) 0.6634(4)
H13_2 H 0.769312 0.364203 0.782327
H14_2 H 0.758132 0.329223 0.745089
H15_2 H 0.642165 0.268851 0.518509
H16_2 H 0.62133 0.267326 0.459094
C27_3 C 0.1139(4) 0.0351(3) 0.6855(5)
C29_3 C 0.1133(4) 0.0541(3) 0.7356(5)
H12_3 H 0.111943 0.079311 0.735132
C30_3 C 0.1148(4) 0.0361(3) 0.7865(5)
C31_3 C 0.1148(4) 0.0562(4) 0.8373(6)
C32_3 C 0.1132(4) 0.0546(4) 0.6295(6)
O27_3 O 0.1144(3) 0.0891(2) 0.8366(4)
O28_3 O 0.1207(5) 0.0409(4) 0.8878(6)
O29_3 O 0.3939(9) 0.0069(4) 0.9978(6)
Zn9_3 Zn 0.11724(4) 0.11780(4) 0.90495(6)
H14_3 H 0.420777 0.00813157 0.995089
P1_3 P 0.31990(8) 0.87828(11) 0.01339(14)
C1_3 C 0.2715(3) 0.8807(4) 0.0151(5)
C4_3 C 0.2524(3) 0.8808(3) 0.0663(5)
H2_3 H 0.264444 0.878964 0.100257
C5_3 C 0.1961(3) 0.8852(3) 0.0158(5)
H3_3 H 0.170875 0.885736 0.016600
C6_3 C 0.2144(3) 0.8839(4) 0.0634(5)
C7_3 C 0.1944(3) 0.8852(3) 0.1203(5)
C11_3 C 0.4968(3) 0.8713(4) 0.0358(6)
H5_3 H 0.484640 0.875091 0.069158
C14_3 C 0.5329(3) 0.8658(4) 0.0362(6)
C15_3 C 0.5526(4) 0.8651(4) 0.0895(7)
O2_3 O 0.3328(3) 0.8635(3) 0.0691(4)
O3_3 O 0.3329(2) 0.9185(2) 0.0047(4)
O6_3 O 0.1615(2) 0.8938(3) 0.1161(4)
O7_3 O 0.2102(2) 0.8754(3) 0.1611(4)
O9_3 O 0.4139(2) 0.8552(3) 0.0328(4)
O13_3 O 0.5861(2) 0.8634(3) 0.0885(4)
O14_3 O 0.5373(4) 0.8698(5) 0.1320(5)
Zn5_3 Zn 0.11702(3) 0.88451(3) 0.15553(5)
Zn7_3 Zn 0.61680(3) 0.86691(4) 0.15506(6)
Mn4_4 Mn 0.20109(5) 0.87295(5) 0.24998(7)
O33_3 O 0.3866(3) 0.8361(2) 0.1615(4)
Zn1_3 Zn 0.36549(3) 0.86702(3) 0.90553(5)
Zn3_3 Zn 0.63220(4) 0.86724(4) 0.84505(6)
Zn4_3 Zn 0.13260(3) 0.88499(3) 0.84473(5)
Mn2_3 Mn 0.54778(4) 0.87304(4) 0.74995(7)
P2_3 P 0.42815(8) 0.87667(11) 0.98790(14)
P3_3 P 0.37985(8) 0.67807(7) 0.73744(12)
P4_3 P 0.11889(9) 0.92994(7) 0.73716(13)
C2_3 C 0.2524(3) 0.8821(3) 0.9657(5)
H1_3 H 0.265215 0.880541 0.932462
C3_3 C 0.2143(3) 0.8857(3) 0.9634(5)
C8_3 C 0.1941(3) 0.8874(3) 0.9117(5)
C9_3 C 0.4774(3) 0.8714(3) 0.9858(5)
C10_3 C 0.4952(3) 0.8696(3) 0.9368(5)
H4_3 H 0.482033 0.870157 0.903750
C12_3 C 0.5541(4) 0.8664(3) 0.8820(6)
C13_3 C 0.5520(3) 0.8633(4) 0.9883(7)
H6_3 H 0.576876 0.859147 0.989348
C16_3 C 0.5333(3) 0.8670(3) 0.9347(6)
C17_3 C 0.3721(3) 0.7276(3) 0.7357(5)
C18_3 C 0.3719(3) 0.7457(3) 0.6867(5)
H7_3 H 0.374707 0.732786 0.653671
C19_3 C 0.3675(3) 0.7837(3) 0.6847(5)
C20_3 C 0.3696(3) 0.7465(3) 0.7855(5)
H8_3 H 0.371288 0.733855 0.818957
C21_3 C 0.3650(4) 0.8016(3) 0.7371(5)
H9_3 H 0.363398 0.826800 0.737830
C22_3 C 0.3649(3) 0.7829(3) 0.7864(5)
C23_3 C 0.3649(4) 0.8027(4) 0.8409(6)
C24_3 C 0.3656(3) 0.8053(3) 0.6319(5)
C25_3 C 0.1190(4) 0.9787(3) 0.7353(5)
C26_3 C 0.1157(3) 0.9975(3) 0.6842(5)
H10_3 H 0.114778 0.984956 0.650616
C28_3 C 0.1177(4) 0.9976(3) 0.7843(6)
H11_3 H 0.118666 0.984687 0.817515
O1_3 O 0.3310(2) 0.8556(3) 0.9630(4)
O4_3 O 0.1605(2) 0.8876(3) 0.9129(4)
O5_3 O 0.2115(3) 0.8854(5) 0.8645(5)
O8_3 O 0.4144(2) 0.8644(2) 0.9321(4)
O10_3 O 0.42126(19) 0.9195(2) 0.9958(4)
O11_3 O 0.5364(2) 0.8709(3) 0.8381(4)
O12_3 O 0.5865(2) 0.8586(4) 0.8845(4)
O15_3 O 0.3652(2) 0.6644(2) 0.6818(4)
O16_3 O 0.4196(3) 0.6713(2) 0.7448(4)
O17_3 O 0.3569(2) 0.6630(2) 0.7837(4)
O18_3 O 0.3757(3) 0.7873(2) 0.5883(4)
O19_3 O 0.3544(3) 0.8357(2) 0.6347(4)
O20_3 O 0.3626(3) 0.8365(2) 0.8390(4)
O21_3 O 0.3638(5) 0.7858(4) 0.8820(5)
O22_3 O 0.1427(3) 0.9183(2) 0.7859(4)
O23_3 O 0.1346(3) 0.9164(3) 0.6808(4)
O24_3 O 0.0811(3) 0.9171(2) 0.7450(4)
O30_3 O 0.4912(4) 0.8709(8) 0.7483(5)
Zn8_3 Zn 0.36780(4) 0.63276(4) 0.84505(6)
Zn10_3 Zn 0.13220(4) 0.86724(4) 0.65495(6)
Zn11_3 Zn 0.36501(3) 0.88260(3) 0.59473(5)
Zn12_3 Zn 0.36740(3) 0.61501(3) 0.65527(5)
Mn5_3 Mn 0.45222(4) 0.62696(4) 0.74995(7)
Mn6_3 Mn 0.04778(4) 0.87304(4) 0.75005(7)
Mn7_3 Mn 0.37696(4) 0.79778(4) 0.50005(7)
O31_3 O 0.3562(3) 0.9115(2) 0.8661(4)
O32_3 O 0.3746(3) 0.9602(2) 0.9111(4)
O34_3 O 0.1348(2) 0.8356(2) 0.8182(4)
O35_3 O 0.5804(3) 0.8287(2) 0.7448(4)
O36_3 O 0.6431(2) 0.8370(2) 0.7837(4)
O37_3 O 0.5373(2) 0.8743(3) 0.6617(4)
O38_3 O 0.0857(2) 0.8956(3) 0.8847(4)
O39_3 O 0.6346(3) 0.9164(3) 0.8192(4)
O40_3 O 0.5811(3) 0.9171(2) 0.7550(4)
O43_3 O 0.6609(2) 0.8644(3) 0.9134(4)
H15_3 H 0.481149 0.892165 0.768509
H16_3 H 0.482674 0.87133 0.709094
C20_4 C 0.0035(3) 0.6196(3) 0.0355(5)
H8_4 H 0.016145 0.621288 0.068957
O17_4 O 0.0870(2) 0.6069(2) 0.0337(4)
Zn8_4 Zn 0.11724(4) 0.61780(4) 0.09505(6)
P3_4 P 0.07193(7) 0.62985(8) 0.98744(12)
C17_4 C 0.0224(3) 0.6221(3) 0.9857(5)
C18_4 C 0.0043(3) 0.6219(3) 0.9367(5)
H7_4 H 0.017214 0.624707 0.903671
O15_4 O 0.0856(2) 0.6152(2) 0.9318(4)
O16_4 O 0.0787(2) 0.6696(3) 0.9948(4)
Zn12_4 Zn 0.13499(3) 0.61740(3) 0.90527(5)
Mn5_4 Mn 0.12304(4) 0.70222(4) 0.99995(7)
Zn1_4 Zn 0.88298(3) 0.61549(3) 0.15553(5)
Zn3_4 Zn 0.88276(4) 0.88220(4) 0.09505(6)
Zn4_4 Zn 0.86501(3) 0.38260(3) 0.09473(5)
P1_4 P 0.87172(11) 0.56990(8) 0.26339(14)
P2_4 P 0.87333(11) 0.67815(8) 0.23790(14)
C1_4 C 0.8693(4) 0.5215(3) 0.2651(5)
C2_4 C 0.8679(3) 0.5024(3) 0.2157(5)
H1_4 H 0.869459 0.515215 0.182462
C3_4 C 0.8643(3) 0.4643(3) 0.2134(5)
C4_4 C 0.8692(3) 0.5024(3) 0.3163(5)
H2_4 H 0.871036 0.514444 0.350257
C5_4 C 0.8648(3) 0.4461(3) 0.2658(5)
H3_4 H 0.864264 0.420875 0.266600
C6_4 C 0.8661(4) 0.4644(3) 0.3134(5)
C7_4 C 0.8648(3) 0.4444(3) 0.3703(5)
C8_4 C 0.8626(3) 0.4441(3) 0.1617(5)
C9_4 C 0.8786(3) 0.7274(3) 0.2358(5)
C10_4 C 0.8804(3) 0.7452(3) 0.1868(5)
H4_4 H 0.879843 0.732033 0.153750
C11_4 C 0.8787(4) 0.7468(3) 0.2858(6)
H5_4 H 0.874909 0.734640 0.319158
C12_4 C 0.8836(3) 0.8041(4) 0.1320(6)
C13_4 C 0.8867(4) 0.8020(3) 0.2383(7)
H6_4 H 0.890853 0.826876 0.239348
C14_4 C 0.8842(4) 0.7829(3) 0.2862(6)
C15_4 C 0.8849(4) 0.8026(4) 0.3395(7)
C16_4 C 0.8830(3) 0.7833(3) 0.1847(6)
C22_4 C 0.9671(3) 0.6149(3) 0.0364(5)
C23_4 C 0.9473(4) 0.6149(4) 0.0909(6)
C28_4 C 0.7524(3) 0.3677(4) 0.0343(6)
H11_4 H 0.765313 0.368666 0.067515
C30_4 C 0.7139(3) 0.3648(4) 0.0365(5)
C31_4 C 0.6938(4) 0.3648(4) 0.0873(6)
O1_4 O 0.8944(3) 0.5810(2) 0.2130(4)
O2_4 O 0.8865(3) 0.5828(3) 0.3191(4)
O3_4 O 0.8315(2) 0.5829(2) 0.2547(4)
O4_4 O 0.8624(3) 0.4105(2) 0.1629(4)
O5_4 O 0.8646(5) 0.4615(3) 0.1145(5)
O6_4 O 0.8562(3) 0.4115(2) 0.3661(4)
O7_4 O 0.8746(3) 0.4602(2) 0.4111(4)
O8_4 O 0.8856(2) 0.6644(2) 0.1821(4)
O9_4 O 0.8948(3) 0.6639(2) 0.2828(4)
O10_4 O 0.8305(2) 0.67126(19) 0.2458(4)
O11_4 O 0.8791(3) 0.7864(2) 0.0881(4)
O12_4 O 0.8914(4) 0.8365(2) 0.1345(4)
O13_4 O 0.8866(3) 0.8361(2) 0.3385(4)
O14_4 O 0.8802(5) 0.7873(4) 0.3820(5)
O20_4 O 0.9135(2) 0.6126(3) 0.0890(4)
O21_4 O 0.9642(4) 0.6138(5) 0.1320(5)
O22_4 O 0.8317(2) 0.3927(3) 0.0359(4)
O27_4 O 0.6609(2) 0.3644(3) 0.0866(4)
O28_4 O 0.7091(4) 0.3707(5) 0.1378(6)
O29_4 O 0.7431(4) 0.6439(9) 0.2478(6)
Zn5_4 Zn 0.86549(3) 0.36702(3) 0.40553(5)
Zn7_4 Zn 0.88309(4) 0.86680(3) 0.40506(6)
Zn9_4 Zn 0.63220(4) 0.36724(4) 0.15495(6)
Mn4_5 Mn 0.87705(5) 0.45109(5) 0.49998(7)
Mn6_4 Mn 0.87696(4) 0.29778(4) 0.00005(7)
O31_4 O 0.8385(2) 0.6062(3) 0.1161(4)
O32_4 O 0.7898(2) 0.6246(3) 0.1611(4)
O33_4 O 0.9139(2) 0.6366(3) 0.4115(4)
O34_4 O 0.9144(2) 0.3848(2) 0.0682(4)
O36_4 O 0.9130(2) 0.8931(2) 0.0337(4)
O38_4 O 0.8544(3) 0.3357(2) 0.1347(4)
O39_4 O 0.8336(3) 0.8846(3) 0.0692(4)
O40_4 O 0.8329(2) 0.8311(3) 0.0050(4)
O43_4 O 0.8856(3) 0.9109(2) 0.1634(4)
H13_3 H 0.730688 0.635797 0.282327
H14_4 H 0.741868 0.670777 0.245089
H15_4 H 0.857835 0.731149 0.0185087
Mn2_4 Mn 0.87696(4) 0.79778(4) 0.99995(7)
P4_4 P 0.82006(7) 0.36889(9) 0.98716(13)
C19_4 C 0.9663(3) 0.6175(3) 0.9347(5)
C21_4 C 0.9484(3) 0.6150(4) 0.9871(5)
H9_4 H 0.923200 0.613398 0.987830
C24_4 C 0.9447(3) 0.6156(3) 0.8819(5)
C25_4 C 0.7713(3) 0.3690(4) 0.9853(5)
C26_4 C 0.7525(3) 0.3657(3) 0.9342(5)
H10_4 H 0.765044 0.364778 0.900616
C27_4 C 0.7149(3) 0.3639(4) 0.9355(5)
C29_4 C 0.6959(3) 0.3633(4) 0.9856(5)
H12_4 H 0.670689 0.361943 0.985132
C32_4 C 0.6954(4) 0.3632(4) 0.8795(6)
O18_4 O 0.9627(2) 0.6257(3) 0.8383(4)
O19_4 O 0.9143(2) 0.6044(3) 0.8847(4)
O23_4 O 0.8336(3) 0.3846(3) 0.9308(4)
O24_4 O 0.8329(2) 0.3311(3) 0.9950(4)
O30_4 O 0.8791(8) 0.7412(4) 0.9983(5)
Zn10_4 Zn 0.88276(4) 0.38220(4) 0.90495(6)
Zn11_4 Zn 0.86740(3) 0.61501(3) 0.84473(5)
Mn7_4 Mn 0.95222(4) 0.62696(4) 0.75005(7)
O35_4 O 0.9213(2) 0.8304(3) 0.9948(4)
O37_4 O 0.8757(3) 0.7873(2) 0.9117(4)
H16_4 H 0.87867 0.732674 0.959094
Zn2_3 Zn 0.61691(4) 0.63320(3) 0.09494(6)
P1_5 P 0.68010(8) 0.62172(11) 0.01339(14)
C1_5 C 0.7285(3) 0.6193(4) 0.0151(5)
C4_5 C 0.7476(3) 0.6192(3) 0.0663(5)
H2_5 H 0.735556 0.621036 0.100257
C5_5 C 0.8039(3) 0.6148(3) 0.0158(5)
H3_5 H 0.829125 0.614264 0.016600
C6_5 C 0.7856(3) 0.6161(4) 0.0634(5)
C7_5 C 0.8056(3) 0.6148(3) 0.1203(5)
C11_5 C 0.5032(3) 0.6287(4) 0.0358(6)
H5_5 H 0.515360 0.624909 0.069158
C14_5 C 0.4671(3) 0.6342(4) 0.0362(6)
C15_5 C 0.4474(4) 0.6349(4) 0.0895(7)
O2_5 O 0.6672(3) 0.6365(3) 0.0691(4)
O3_5 O 0.6671(2) 0.5815(2) 0.0047(4)
O9_5 O 0.5861(2) 0.6448(3) 0.0328(4)
O13_5 O 0.4139(2) 0.6366(3) 0.0885(4)
O14_5 O 0.4627(4) 0.6302(5) 0.1320(5)
Zn7_5 Zn 0.38320(3) 0.63309(4) 0.15506(6)
O33_5 O 0.6134(3) 0.6639(2) 0.1615(4)
O41_3 O 0.6195(3) 0.5390(2) 0.0885(3)
O42_3 O 0.6084(3) 0.5888(3) 0.1343(4)
H13_4 H 0.614203 0.480688 0.0323265
P2_5 P 0.57185(8) 0.62333(11) 0.98790(14)
P3_5 P 0.62015(8) 0.82193(7) 0.73744(12)
P4_5 P 0.88111(9) 0.57006(7) 0.73716(13)
C2_5 C 0.7476(3) 0.6179(3) 0.9657(5)
H1_5 H 0.734785 0.619459 0.932462
C3_5 C 0.7857(3) 0.6143(3) 0.9634(5)
C8_5 C 0.8059(3) 0.6126(3) 0.9117(5)
C9_5 C 0.5226(3) 0.6286(3) 0.9858(5)
C10_5 C 0.5048(3) 0.6304(3) 0.9368(5)
H4_5 H 0.517967 0.629843 0.903750
C12_5 C 0.4459(4) 0.6336(3) 0.8820(6)
C13_5 C 0.4480(3) 0.6367(4) 0.9883(7)
H6_5 H 0.423124 0.640853 0.989348
C16_5 C 0.4667(3) 0.6330(3) 0.9347(6)
C17_5 C 0.6279(3) 0.7724(3) 0.7357(5)
C18_5 C 0.6281(3) 0.7543(3) 0.6867(5)
H7_5 H 0.625293 0.767214 0.653671
C19_5 C 0.6325(3) 0.7163(3) 0.6847(5)
C20_5 C 0.6304(3) 0.7535(3) 0.7855(5)
H8_5 H 0.628712 0.766145 0.818957
C21_5 C 0.6350(4) 0.6984(3) 0.7371(5)
H9_5 H 0.636602 0.673200 0.737830
C22_5 C 0.6351(3) 0.7171(3) 0.7864(5)
C23_5 C 0.6351(4) 0.6973(4) 0.8409(6)
C24_5 C 0.6344(3) 0.6947(3) 0.6319(5)
C25_5 C 0.8810(4) 0.5213(3) 0.7353(5)
C26_5 C 0.8843(3) 0.5025(3) 0.6842(5)
H10_5 H 0.885222 0.515044 0.650616
C27_5 C 0.8861(4) 0.4649(3) 0.6855(5)
C28_5 C 0.8823(4) 0.5024(3) 0.7843(6)
H11_5 H 0.881334 0.515313 0.817515
C29_5 C 0.8867(4) 0.4459(3) 0.7356(5)
H12_5 H 0.888057 0.420689 0.735132
C30_5 C 0.8852(4) 0.4639(3) 0.7865(5)
C31_5 C 0.8852(4) 0.4438(4) 0.8373(6)
C32_5 C 0.8868(4) 0.4454(4) 0.6295(6)
O1_5 O 0.6690(2) 0.6444(3) 0.9630(4)
O4_5 O 0.8395(2) 0.6124(3) 0.9129(4)
O5_5 O 0.7885(3) 0.6146(5) 0.8645(5)
O8_5 O 0.5856(2) 0.6356(2) 0.9321(4)
O10_5 O 0.57874(19) 0.5805(2) 0.9958(4)
O11_5 O 0.4636(2) 0.6291(3) 0.8381(4)
O12_5 O 0.4135(2) 0.6414(4) 0.8845(4)
O15_5 O 0.6348(2) 0.8356(2) 0.6818(4)
O18_5 O 0.6243(3) 0.7127(2) 0.5883(4)
O20_5 O 0.6374(3) 0.6635(2) 0.8390(4)
O21_5 O 0.6362(5) 0.7142(4) 0.8820(5)
O22_5 O 0.8573(3) 0.5817(2) 0.7859(4)
O23_5 O 0.8654(3) 0.5836(3) 0.6808(4)
O24_5 O 0.9189(3) 0.5829(2) 0.7450(4)
O25_3 O 0.8805(3) 0.4610(2) 0.5885(3)
O26_3 O 0.8916(3) 0.4112(3) 0.6343(4)
O27_5 O 0.8856(3) 0.4109(2) 0.8366(4)
O28_5 O 0.8793(5) 0.4591(4) 0.8878(6)
O29_5 O 0.6061(9) 0.4931(4) 0.9978(6)
O30_5 O 0.5088(4) 0.6291(8) 0.7483(5)
Zn6_3 Zn 0.88309(4) 0.36680(3) 0.59494(6)
Zn12_5 Zn 0.63260(3) 0.88499(3) 0.65527(5)
O34_5 O 0.8652(2) 0.6644(2) 0.8182(4)
O37_5 O 0.4627(2) 0.6257(3) 0.6617(4)
O39_5 O 0.3654(3) 0.5836(3) 0.8192(4)
O40_5 O 0.4189(3) 0.5829(2) 0.7550(4)
O43_5 O 0.3391(2) 0.6356(3) 0.9134(4)
H14_5 H 0.579223 0.491868 0.995089
H15_5 H 0.518851 0.607835 0.768509
H16_5 H 0.517326 0.62867 0.709094
C3_6 C 0.1357(3) 0.0357(3) 0.2134(5)
C5_6 C 0.1352(3) 0.0539(3) 0.2658(5)
H3_6 H 0.135736 0.079125 0.266600
C6_6 C 0.1339(4) 0.0356(3) 0.3134(5)
C7_6 C 0.1352(3) 0.0556(3) 0.3703(5)
C8_6 C 0.1374(3) 0.0559(3) 0.1617(5)
C28_6 C 0.2476(3) 0.1323(4) 0.0343(6)
H11_6 H 0.234687 0.131334 0.067515
C30_6 C 0.2861(3) 0.1352(4) 0.0365(5)
C31_6 C 0.3062(4) 0.1352(4) 0.0873(6)
O4_6 O 0.1376(3) 0.0895(2) 0.1629(4)
O5_6 O 0.1354(5) 0.0385(3) 0.1145(5)
O22_6 O 0.1683(2) 0.1073(3) 0.0359(4)
O27_6 O 0.3391(2) 0.1356(3) 0.0866(4)
O28_6 O 0.2909(4) 0.1293(5) 0.1378(6)
O34_6 O 0.0856(2) 0.1152(2) 0.0682(4)
P4_6 P 0.17994(7) 0.13111(9) 0.98716(13)
C25_6 C 0.2287(3) 0.1310(4) 0.9853(5)
C26_6 C 0.2475(3) 0.1343(3) 0.9342(5)
H10_6 H 0.234956 0.135222 0.900616
C27_6 C 0.2851(3) 0.1361(4) 0.9355(5)
C29_6 C 0.3041(3) 0.1367(4) 0.9856(5)
H12_6 H 0.329311 0.138057 0.985132
C32_6 C 0.3046(4) 0.1368(4) 0.8795(6)
O23_6 O 0.1664(3) 0.1154(3) 0.9308(4)
O24_6 O 0.1671(2) 0.1689(3) 0.9950(4)
O25_4 O 0.2890(2) 0.1305(3) 0.8385(3)
O26_4 O 0.3388(3) 0.1416(3) 0.8843(4)
Zn6_4 Zn 0.38320(3) 0.13309(4) 0.84494(6)
Zn2_4 Zn 0.11680(3) 0.86691(4) 0.34494(6)
P1_6 P 0.12828(11) 0.93010(8) 0.26339(14)
P2_6 P 0.12667(11) 0.82185(8) 0.23790(14)
C1_6 C 0.1307(4) 0.9785(3) 0.2651(5)
C2_6 C 0.1321(3) 0.9976(3) 0.2157(5)
H1_6 H 0.130541 0.984785 0.182462
C4_6 C 0.1308(3) 0.9976(3) 0.3163(5)
H2_6 H 0.128964 0.985556 0.350257
C9_6 C 0.1214(3) 0.7726(3) 0.2358(5)
C10_6 C 0.1196(3) 0.7548(3) 0.1868(5)
H4_6 H 0.120157 0.767967 0.153750
C11_6 C 0.1213(4) 0.7532(3) 0.2858(6)
H5_6 H 0.125091 0.765360 0.319158
C12_6 C 0.1164(3) 0.6959(4) 0.1320(6)
C13_6 C 0.1133(4) 0.6980(3) 0.2383(7)
H6_6 H 0.109147 0.673124 0.239348
C14_6 C 0.1158(4) 0.7171(3) 0.2862(6)
C15_6 C 0.1151(4) 0.6974(4) 0.3395(7)
C16_6 C 0.1170(3) 0.7167(3) 0.1847(6)
C22_6 C 0.0329(3) 0.8851(3) 0.0364(5)
C23_6 C 0.0527(4) 0.8851(4) 0.0909(6)
O1_6 O 0.1056(3) 0.9190(2) 0.2130(4)
O2_6 O 0.1135(3) 0.9172(3) 0.3191(4)
O3_6 O 0.1685(2) 0.9171(2) 0.2547(4)
O8_6 O 0.1144(2) 0.8356(2) 0.1821(4)
O9_6 O 0.1052(3) 0.8361(2) 0.2828(4)
O10_6 O 0.1695(2) 0.82874(19) 0.2458(4)
O11_6 O 0.1209(3) 0.7136(2) 0.0881(4)
O12_6 O 0.1086(4) 0.6635(2) 0.1345(4)
O13_6 O 0.1134(3) 0.6639(2) 0.3385(4)
O14_6 O 0.1198(5) 0.7127(4) 0.3820(5)
O20_6 O 0.0865(2) 0.8874(3) 0.0890(4)
O21_6 O 0.0358(4) 0.8862(5) 0.1320(5)
O29_6 O 0.2569(4) 0.8561(9) 0.2478(6)
Zn7_6 Zn 0.11691(4) 0.63320(3) 0.40506(6)
O33_6 O 0.0861(2) 0.8634(3) 0.4115(4)
O39_6 O 0.1664(3) 0.6154(3) 0.0692(4)
O40_6 O 0.1671(2) 0.6689(3) 0.0050(4)
O41_4 O 0.2110(2) 0.8695(3) 0.3385(3)
O42_4 O 0.1612(3) 0.8584(3) 0.3843(4)
O43_6 O 0.1144(3) 0.5891(2) 0.1634(4)
H13_5 H 0.269312 0.864203 0.282327
H14_6 H 0.258132 0.829223 0.245089
H15_6 H 0.142165 0.768851 0.0185087
C19_6 C 0.0337(3) 0.8825(3) 0.9347(5)
C21_6 C 0.0516(3) 0.8850(4) 0.9871(5)
H9_6 H 0.076800 0.886602 0.987830
C24_6 C 0.0553(3) 0.8844(3) 0.8819(5)
O18_6 O 0.0373(2) 0.8743(3) 0.8383(4)
O30_6 O 0.1209(8) 0.7588(4) 0.9983(5)
O37_6 O 0.1243(3) 0.7127(2) 0.9117(4)
H16_6 H 0.12133 0.767326 0.959094
C20_6 C 0.9965(3) 0.8804(3) 0.0355(5)
H8_6 H 0.983855 0.878712 0.068957
P3_6 P 0.92807(7) 0.87015(8) 0.98744(12)
C17_6 C 0.9776(3) 0.8779(3) 0.9857(5)
C18_6 C 0.9957(3) 0.8781(3) 0.9367(5)
H7_6 H 0.982786 0.875293 0.903671
O15_6 O 0.9144(2) 0.8848(2) 0.9318(4)
Zn12_6 Zn 0.86501(3) 0.88260(3) 0.90527(5)
C12_7 C 0.0541(4) 0.3664(3) 0.3820(6)
C13_7 C 0.0520(3) 0.3633(4) 0.4883(7)
H6_7 H 0.076876 0.359147 0.489348
C14_7 C 0.0329(3) 0.3658(4) 0.5362(6)
C15_7 C 0.0526(4) 0.3651(4) 0.5895(7)
C16_7 C 0.0333(3) 0.3670(3) 0.4347(6)
O11_7 O 0.0364(2) 0.3709(3) 0.3381(4)
O12_7 O 0.0865(2) 0.3586(4) 0.3845(4)
O13_7 O 0.0861(2) 0.3634(3) 0.5885(4)
O14_7 O 0.0373(4) 0.3698(5) 0.6320(5)
Zn7_7 Zn 0.11680(3) 0.36691(4) 0.65506(6)
O37_7 O 0.0373(2) 0.3743(3) 0.1617(4)
O39_7 O 0.1346(3) 0.4164(3) 0.3192(4)
O40_7 O 0.0811(3) 0.4171(2) 0.2550(4)
O43_7 O 0.1609(2) 0.3644(3) 0.4134(4)
P1_7 P 0.81990(8) 0.37828(11) 0.51339(14)
P2_7 P 0.92815(8) 0.37667(11) 0.48790(14)
P3_7 P 0.87985(8) 0.17807(7) 0.23744(12)
P4_7 P 0.61889(9) 0.42994(7) 0.23716(13)
C1_7 C 0.7715(3) 0.3807(4) 0.5151(5)
C2_7 C 0.7524(3) 0.3821(3) 0.4657(5)
H1_7 H 0.765215 0.380541 0.432462
C3_7 C 0.7143(3) 0.3857(3) 0.4634(5)
C4_7 C 0.7524(3) 0.3808(3) 0.5663(5)
H2_7 H 0.764444 0.378964 0.600257
C5_7 C 0.6961(3) 0.3852(3) 0.5158(5)
H3_7 H 0.670875 0.385736 0.516600
C6_7 C 0.7144(3) 0.3839(4) 0.5634(5)
C7_7 C 0.6944(3) 0.3852(3) 0.6203(5)
C8_7 C 0.6941(3) 0.3874(3) 0.4117(5)
C9_7 C 0.9774(3) 0.3714(3) 0.4858(5)
C10_7 C 0.9952(3) 0.3696(3) 0.4368(5)
H4_7 H 0.982033 0.370157 0.403750
C11_7 C 0.9968(3) 0.3713(4) 0.5358(6)
H5_7 H 0.984640 0.375091 0.569158
C17_7 C 0.8721(3) 0.2276(3) 0.2357(5)
C18_7 C 0.8719(3) 0.2457(3) 0.1867(5)
H7_7 H 0.874707 0.232786 0.153671
C19_7 C 0.8675(3) 0.2837(3) 0.1847(5)
C20_7 C 0.8696(3) 0.2465(3) 0.2855(5)
H8_7 H 0.871288 0.233855 0.318957
C21_7 C 0.8650(4) 0.3016(3) 0.2371(5)
H9_7 H 0.863398 0.326800 0.237830
C22_7 C 0.8649(3) 0.2829(3) 0.2864(5)
C23_7 C 0.8649(4) 0.3027(4) 0.3409(6)
C24_7 C 0.8656(3) 0.3053(3) 0.1319(5)
C25_7 C 0.6190(4) 0.4787(3) 0.2353(5)
C26_7 C 0.6157(3) 0.4975(3) 0.1842(5)
H10_7 H 0.614778 0.484956 0.150616
C27_7 C 0.6139(4) 0.5351(3) 0.1855(5)
C28_7 C 0.6177(4) 0.4976(3) 0.2843(6)
H11_7 H 0.618666 0.484687 0.317515
C29_7 C 0.6133(4) 0.5541(3) 0.2356(5)
H12_7 H 0.611943 0.579311 0.235132
C30_7 C 0.6148(4) 0.5361(3) 0.2865(5)
C31_7 C 0.6148(4) 0.5562(4) 0.3373(6)
C32_7 C 0.6132(4) 0.5546(4) 0.1295(6)
O1_7 O 0.8310(2) 0.3556(3) 0.4630(4)
O2_7 O 0.8328(3) 0.3635(3) 0.5691(4)
O3_7 O 0.8329(2) 0.4185(2) 0.5047(4)
O4_7 O 0.6605(2) 0.3876(3) 0.4129(4)
O5_7 O 0.7115(3) 0.3854(5) 0.3645(5)
O8_7 O 0.9144(2) 0.3644(2) 0.4321(4)
O9_7 O 0.9139(2) 0.3552(3) 0.5328(4)
O10_7 O 0.92126(19) 0.4195(2) 0.4958(4)
O15_7 O 0.8652(2) 0.1644(2) 0.1818(4)
O18_7 O 0.8757(3) 0.2873(2) 0.0883(4)
O20_7 O 0.8626(3) 0.3365(2) 0.3390(4)
O21_7 O 0.8638(5) 0.2858(4) 0.3820(5)
O22_7 O 0.6427(3) 0.4183(2) 0.2859(4)
O23_7 O 0.6346(3) 0.4164(3) 0.1808(4)
O24_7 O 0.5811(3) 0.4171(2) 0.2450(4)
O27_7 O 0.6144(3) 0.5891(2) 0.3366(4)
O28_7 O 0.6207(5) 0.5409(4) 0.3878(6)
O29_7 O 0.8939(9) 0.5069(4) 0.4978(6)
O30_7 O 0.9912(4) 0.3709(8) 0.2483(5)
Zn12_7 Zn 0.86740(3) 0.11501(3) 0.15527(5)
O33_7 O 0.8866(3) 0.3361(2) 0.6615(4)
O34_7 O 0.6348(2) 0.3356(2) 0.3182(4)
H13_6 H 0.885797 0.519312 0.532327
H14_7 H 0.920777 0.508132 0.495089
H15_7 H 0.981149 0.392165 0.268509
H16_7 H 0.982674 0.37133 0.209094
P1_8 P 0.37172(11) 0.06990(8) 0.76339(14)
P2_8 P 0.37333(11) 0.17815(8) 0.73790(14)
P3_8 P 0.57193(7) 0.12985(8) 0.48744(12)
C1_8 C 0.3693(4) 0.0215(3) 0.7651(5)
C2_8 C 0.3679(3) 0.0024(3) 0.7157(5)
H1_8 H 0.369459 0.015215 0.682462
C4_8 C 0.3692(3) 0.0024(3) 0.8163(5)
H2_8 H 0.371036 0.014444 0.850257
C9_8 C 0.3786(3) 0.2274(3) 0.7358(5)
C10_8 C 0.3804(3) 0.2452(3) 0.6868(5)
H4_8 H 0.379843 0.232033 0.653750
C11_8 C 0.3787(4) 0.2468(3) 0.7858(6)
H5_8 H 0.374909 0.234640 0.819158
C12_8 C 0.3836(3) 0.3041(4) 0.6320(6)
C13_8 C 0.3867(4) 0.3020(3) 0.7383(7)
H6_8 H 0.390853 0.326876 0.739348
C14_8 C 0.3842(4) 0.2829(3) 0.7862(6)
C15_8 C 0.3849(4) 0.3026(4) 0.8395(7)
C16_8 C 0.3830(3) 0.2833(3) 0.6847(6)
C17_8 C 0.5224(3) 0.1221(3) 0.4857(5)
C18_8 C 0.5043(3) 0.1219(3) 0.4367(5)
H7_8 H 0.517214 0.124707 0.403671
C19_8 C 0.4663(3) 0.1175(3) 0.4347(5)
C20_8 C 0.5035(3) 0.1196(3) 0.5355(5)
H8_8 H 0.516145 0.121288 0.568957
C21_8 C 0.4484(3) 0.1150(4) 0.4871(5)
H9_8 H 0.423200 0.113398 0.487830
C22_8 C 0.4671(3) 0.1149(3) 0.5364(5)
C23_8 C 0.4473(4) 0.1149(4) 0.5909(6)
C24_8 C 0.4447(3) 0.1156(3) 0.3819(5)
O1_8 O 0.3944(3) 0.0810(2) 0.7130(4)
O2_8 O 0.3865(3) 0.0828(3) 0.8191(4)
O3_8 O 0.3315(2) 0.0829(2) 0.7547(4)
O8_8 O 0.3856(2) 0.1644(2) 0.6821(4)
O9_8 O 0.3948(3) 0.1639(2) 0.7828(4)
O10_8 O 0.3305(2) 0.17126(19) 0.7458(4)
O11_8 O 0.3791(3) 0.2864(2) 0.5881(4)
O12_8 O 0.3914(4) 0.3365(2) 0.6345(4)
O13_8 O 0.3866(3) 0.3361(2) 0.8385(4)
O14_8 O 0.3802(5) 0.2873(4) 0.8820(5)
O15_8 O 0.5856(2) 0.1152(2) 0.4318(4)
O18_8 O 0.4627(2) 0.1257(3) 0.3383(4)
O20_8 O 0.4135(2) 0.1126(3) 0.5890(4)
O21_8 O 0.4642(4) 0.1138(5) 0.6320(5)
O29_8 O 0.2431(4) 0.1439(9) 0.7478(6)
O30_8 O 0.3791(8) 0.2412(4) 0.4983(5)
Zn7_8 Zn 0.38309(4) 0.36680(3) 0.90506(6)
Zn12_8 Zn 0.63499(3) 0.11740(3) 0.40527(5)
O33_8 O 0.4139(2) 0.1366(3) 0.9115(4)
O37_8 O 0.3757(3) 0.2873(2) 0.4117(4)
O39_8 O 0.3336(3) 0.3846(3) 0.5692(4)
O40_8 O 0.3329(2) 0.3311(3) 0.5050(4)
O43_8 O 0.3856(3) 0.4109(2) 0.6634(4)
H13_7 H 0.230688 0.135797 0.782327
H14_8 H 0.241868 0.170777 0.745089
H15_8 H 0.357835 0.231149 0.518509
H16_8 H 0.37867 0.232674 0.459094
P4_8 P 0.32006(7) 0.86889(9) 0.48716(13)
C3_8 C 0.3643(3) 0.9643(3) 0.7134(5)
C5_8 C 0.3648(3) 0.9461(3) 0.7658(5)
H3_8 H 0.364264 0.920875 0.766600
C6_8 C 0.3661(4) 0.9644(3) 0.8134(5)
C7_8 C 0.3648(3) 0.9444(3) 0.8703(5)
C8_8 C 0.3626(3) 0.9441(3) 0.6617(5)
C25_8 C 0.2713(3) 0.8690(4) 0.4853(5)
C26_8 C 0.2525(3) 0.8657(3) 0.4342(5)
H10_8 H 0.265044 0.864778 0.400616
C27_8 C 0.2149(3) 0.8639(4) 0.4355(5)
C28_8 C 0.2524(3) 0.8677(4) 0.5343(6)
H11_8 H 0.265313 0.868666 0.567515
C29_8 C 0.1959(3) 0.8633(4) 0.4856(5)
H12_8 H 0.170689 0.861943 0.485132
C30_8 C 0.2139(3) 0.8648(4) 0.5365(5)
C31_8 C 0.1938(4) 0.8648(4) 0.5873(6)
C32_8 C 0.1954(4) 0.8632(4) 0.3795(6)
O4_8 O 0.3624(3) 0.9105(2) 0.6629(4)
O5_8 O 0.3646(5) 0.9615(3) 0.6145(5)
O22_8 O 0.3317(2) 0.8927(3) 0.5359(4)
O23_8 O 0.3336(3) 0.8846(3) 0.4308(4)
O24_8 O 0.3329(2) 0.8311(3) 0.4950(4)
O27_8 O 0.1609(2) 0.8644(3) 0.5866(4)
O28_8 O 0.2091(4) 0.8707(5) 0.6378(6)
O34_8 O 0.4144(2) 0.8848(2) 0.5682(4)
C12_9 C 0.0541(4) 0.8664(3) 0.6180(6)
C13_9 C 0.0520(3) 0.8633(4) 0.5117(7)
H6_9 H 0.076876 0.859147 0.510652
C14_9 C 0.0329(3) 0.8658(4) 0.4638(6)
C15_9 C 0.0526(4) 0.8651(4) 0.4105(7)
C16_9 C 0.0333(3) 0.8670(3) 0.5653(6)
O11_9 O 0.0364(2) 0.8709(3) 0.6619(4)
O12_9 O 0.0865(2) 0.8586(4) 0.6155(4)
O14_9 O 0.0373(4) 0.8698(5) 0.3680(5)
O35_5 O 0.0804(3) 0.8287(2) 0.7552(4)
O36_5 O 0.1431(2) 0.8370(2) 0.7163(4)
Mn3_4 Mn 0.62295(5) 0.04891(5) 0.00002(7)
C27_9 C 0.6139(4) 0.0351(3) 0.8145(5)
C29_9 C 0.6133(4) 0.0541(3) 0.7644(5)
H12_9 H 0.611943 0.079311 0.764868
C30_9 C 0.6148(4) 0.0361(3) 0.7135(5)
C31_9 C 0.6148(4) 0.0562(4) 0.6627(6)
C32_9 C 0.6132(4) 0.0546(4) 0.8705(6)
O25_5 O 0.6195(3) 0.0390(2) 0.9115(3)
O26_5 O 0.6084(3) 0.0888(3) 0.8657(4)
O28_9 O 0.6207(5) 0.0409(4) 0.6122(6)
O29_9 O 0.8939(9) 0.0069(4) 0.5022(6)
Mn3_5 Mn 0.62295(5) 0.04891(5) 1.00002(7)
H13_8 H 0.885797 0.0193119 0.467673
H14_9 H 0.920777 0.00813157 0.504911
Zn1_5 Zn 0.86549(3) 0.86702(3) 0.59447(5)
Mn1_3 Mn 0.87705(5) 0.95109(5) 0.50002(7)
P1_9 P 0.81990(8) 0.87828(11) 0.48661(14)
P2_9 P 0.92815(8) 0.87667(11) 0.51210(14)
P3_9 P 0.87985(8) 0.67807(7) 0.76256(12)
P4_9 P 0.61889(9) 0.92994(7) 0.76284(13)
C1_9 C 0.7715(3) 0.8807(4) 0.4849(5)
C2_9 C 0.7524(3) 0.8821(3) 0.5343(5)
H1_9 H 0.765215 0.880541 0.567538
C3_9 C 0.7143(3) 0.8857(3) 0.5366(5)
C4_9 C 0.7524(3) 0.8808(3) 0.4337(5)
H2_9 H 0.764444 0.878964 0.399743
C5_9 C 0.6961(3) 0.8852(3) 0.4842(5)
H3_9 H 0.670875 0.885736 0.483400
C6_9 C 0.7144(3) 0.8839(4) 0.4366(5)
C7_9 C 0.6944(3) 0.8852(3) 0.3797(5)
C8_9 C 0.6941(3) 0.8874(3) 0.5883(5)
C9_9 C 0.9774(3) 0.8714(3) 0.5142(5)
C10_9 C 0.9952(3) 0.8696(3) 0.5632(5)
H4_9 H 0.982033 0.870157 0.596250
C11_9 C 0.9968(3) 0.8713(4) 0.4642(6)
H5_9 H 0.984640 0.875091 0.430842
C17_9 C 0.8721(3) 0.7276(3) 0.7643(5)
C18_9 C 0.8719(3) 0.7457(3) 0.8133(5)
H7_9 H 0.874707 0.732786 0.846329
C19_9 C 0.8675(3) 0.7837(3) 0.8153(5)
C20_9 C 0.8696(3) 0.7465(3) 0.7145(5)
H8_9 H 0.871288 0.733855 0.681043
C21_9 C 0.8650(4) 0.8016(3) 0.7629(5)
H9_9 H 0.863398 0.826800 0.762170
C22_9 C 0.8649(3) 0.7829(3) 0.7136(5)
C23_9 C 0.8649(4) 0.8027(4) 0.6591(6)
C24_9 C 0.8656(3) 0.8053(3) 0.8681(5)
C25_9 C 0.6190(4) 0.9787(3) 0.7647(5)
C26_9 C 0.6157(3) 0.9975(3) 0.8158(5)
H10_9 H 0.614778 0.984956 0.849384
C28_9 C 0.6177(4) 0.9976(3) 0.7157(6)
H11_9 H 0.618666 0.984687 0.682485
O1_9 O 0.8310(2) 0.8556(3) 0.5370(4)
O2_9 O 0.8328(3) 0.8635(3) 0.4309(4)
O3_9 O 0.8329(2) 0.9185(2) 0.4953(4)
O4_9 O 0.6605(2) 0.8876(3) 0.5871(4)
O5_9 O 0.7115(3) 0.8854(5) 0.6355(5)
O6_5 O 0.6615(2) 0.8938(3) 0.3839(4)
O7_5 O 0.7102(2) 0.8754(3) 0.3389(4)
O8_9 O 0.9144(2) 0.8644(2) 0.5679(4)
O9_9 O 0.9139(2) 0.8552(3) 0.4672(4)
O10_9 O 0.92126(19) 0.9195(2) 0.5042(4)
O16_5 O 0.9196(3) 0.6713(2) 0.7552(4)
O17_5 O 0.8569(2) 0.6630(2) 0.7163(4)
O19_5 O 0.8544(3) 0.8357(2) 0.8653(4)
O20_9 O 0.8626(3) 0.8365(2) 0.6610(4)
O21_9 O 0.8638(5) 0.7858(4) 0.6180(5)
O22_9 O 0.6427(3) 0.9183(2) 0.7141(4)
O30_9 O 0.9912(4) 0.8709(8) 0.7517(5)
Zn5_5 Zn 0.61702(3) 0.88451(3) 0.34447(5)
Mn4_6 Mn 0.70109(5) 0.87295(5) 0.25002(7)
O31_5 O 0.8562(3) 0.9115(2) 0.6339(4)
O32_5 O 0.8746(3) 0.9602(2) 0.5889(4)
O38_5 O 0.5857(2) 0.8956(3) 0.6153(4)
O41_5 O 0.8805(3) 0.9610(2) 0.4115(3)
O42_5 O 0.8916(3) 0.9112(3) 0.3657(4)
H15_9 H 0.981149 0.892165 0.731491
H16_9 H 0.982674 0.87133 0.790906
Zn1_6 Zn 0.38298(3) 0.61549(3) 0.34447(5)
Mn1_4 Mn 0.29891(5) 0.62705(5) 0.25002(7)
P1_10 P 0.37172(11) 0.56990(8) 0.23661(14)
P2_10 P 0.37333(11) 0.67815(8) 0.26210(14)
P3_10 P 0.57193(7) 0.62985(8) 0.51256(12)
P4_10 P 0.32006(7) 0.36889(9) 0.51284(13)
C1_10 C 0.3693(4) 0.5215(3) 0.2349(5)
C2_10 C 0.3679(3) 0.5024(3) 0.2843(5)
H1_10 H 0.369459 0.515215 0.317538
C3_10 C 0.3643(3) 0.4643(3) 0.2866(5)
C4_10 C 0.3692(3) 0.5024(3) 0.1837(5)
H2_10 H 0.371036 0.514444 0.149743
C5_10 C 0.3648(3) 0.4461(3) 0.2342(5)
H3_10 H 0.364264 0.420875 0.233400
C6_10 C 0.3661(4) 0.4644(3) 0.1866(5)
C7_10 C 0.3648(3) 0.4444(3) 0.1297(5)
C8_10 C 0.3626(3) 0.4441(3) 0.3383(5)
C9_10 C 0.3786(3) 0.7274(3) 0.2642(5)
C10_10 C 0.3804(3) 0.7452(3) 0.3132(5)
H4_10 H 0.379843 0.732033 0.346250
C11_10 C 0.3787(4) 0.7468(3) 0.2142(6)
H5_10 H 0.374909 0.734640 0.180842
C12_10 C 0.3836(3) 0.8041(4) 0.3680(6)
C13_10 C 0.3867(4) 0.8020(3) 0.2617(7)
H6_10 H 0.390853 0.826876 0.260652
C14_10 C 0.3842(4) 0.7829(3) 0.2138(6)
C15_10 C 0.3849(4) 0.8026(4) 0.1605(7)
C16_10 C 0.3830(3) 0.7833(3) 0.3153(6)
C17_10 C 0.5224(3) 0.6221(3) 0.5143(5)
C18_10 C 0.5043(3) 0.6219(3) 0.5633(5)
H7_10 H 0.517214 0.624707 0.596329
C19_10 C 0.4663(3) 0.6175(3) 0.5653(5)
C20_10 C 0.5035(3) 0.6196(3) 0.4645(5)
H8_10 H 0.516145 0.621288 0.431043
C21_10 C 0.4484(3) 0.6150(4) 0.5129(5)
H9_10 H 0.423200 0.613398 0.512170
C22_10 C 0.4671(3) 0.6149(3) 0.4636(5)
C23_10 C 0.4473(4) 0.6149(4) 0.4091(6)
C24_10 C 0.4447(3) 0.6156(3) 0.6181(5)
C25_10 C 0.2713(3) 0.3690(4) 0.5147(5)
C26_10 C 0.2525(3) 0.3657(3) 0.5658(5)
H10_10 H 0.265044 0.364778 0.599384
C27_10 C 0.2149(3) 0.3639(4) 0.5645(5)
C28_10 C 0.2524(3) 0.3677(4) 0.4657(6)
H11_10 H 0.265313 0.368666 0.432485
C29_10 C 0.1959(3) 0.3633(4) 0.5144(5)
H12_10 H 0.170689 0.361943 0.514868
C30_10 C 0.2139(3) 0.3648(4) 0.4635(5)
C31_10 C 0.1938(4) 0.3648(4) 0.4127(6)
C32_10 C 0.1954(4) 0.3632(4) 0.6205(6)
O1_10 O 0.3944(3) 0.5810(2) 0.2870(4)
O2_10 O 0.3865(3) 0.5828(3) 0.1809(4)
O3_10 O 0.3315(2) 0.5829(2) 0.2453(4)
O4_10 O 0.3624(3) 0.4105(2) 0.3371(4)
O5_10 O 0.3646(5) 0.4615(3) 0.3855(5)
O6_6 O 0.3562(3) 0.4115(2) 0.1339(4)
O7_6 O 0.3746(3) 0.4602(2) 0.0889(4)
O8_10 O 0.3856(2) 0.6644(2) 0.3179(4)
O9_10 O 0.3948(3) 0.6639(2) 0.2172(4)
O10_10 O 0.3305(2) 0.67126(19) 0.2542(4)
O11_10 O 0.3791(3) 0.7864(2) 0.4119(4)
O12_10 O 0.3914(4) 0.8365(2) 0.3655(4)
O14_10 O 0.3802(5) 0.7873(4) 0.1180(5)
O16_6 O 0.5787(2) 0.6696(3) 0.5052(4)
O17_6 O 0.5870(2) 0.6069(2) 0.4663(4)
O19_6 O 0.4143(2) 0.6044(3) 0.6153(4)
O20_10 O 0.4135(2) 0.6126(3) 0.4110(4)
O21_10 O 0.4642(4) 0.6138(5) 0.3680(5)
O22_10 O 0.3317(2) 0.3927(3) 0.4641(4)
O25_6 O 0.2110(2) 0.3695(3) 0.6615(3)
O26_6 O 0.1612(3) 0.3584(3) 0.6157(4)
O28_10 O 0.2091(4) 0.3707(5) 0.3622(6)
O29_10 O 0.2431(4) 0.6439(9) 0.2522(6)
O30_10 O 0.3791(8) 0.7412(4) 0.5017(5)
Zn5_6 Zn 0.36549(3) 0.36702(3) 0.09447(5)
Mn3_6 Mn 0.20109(5) 0.37295(5) 0.75002(7)
Mn4_7 Mn 0.37705(5) 0.45109(5) 0.00002(7)
O31_6 O 0.3385(2) 0.6062(3) 0.3839(4)
O32_6 O 0.2898(2) 0.6246(3) 0.3389(4)
O35_6 O 0.4213(2) 0.8304(3) 0.5052(4)
O36_6 O 0.4130(2) 0.8931(2) 0.4663(4)
O38_6 O 0.3544(3) 0.3357(2) 0.3653(4)
O41_6 O 0.2890(2) 0.6305(3) 0.1615(3)
O42_6 O 0.3388(3) 0.6416(3) 0.1157(4)
H13_9 H 0.230688 0.635797 0.217673
H14_10 H 0.241868 0.670777 0.254911
H15_10 H 0.357835 0.731149 0.481491
H16_10 H 0.37867 0.732674 0.540906
Mn4_8 Mn 0.37705(5) 0.45109(5) 1.00002(7)
Zn1_7 Zn 0.63451(3) 0.13298(3) 0.09447(5)
P2_11 P 0.57185(8) 0.12333(11) 0.01210(14)
P3_11 P 0.62015(8) 0.32193(7) 0.26256(12)
P4_11 P 0.88111(9) 0.07006(7) 0.26284(13)
C2_11 C 0.7476(3) 0.1179(3) 0.0343(5)
H1_11 H 0.734785 0.119459 0.067538
C3_11 C 0.7857(3) 0.1143(3) 0.0366(5)
C8_11 C 0.8059(3) 0.1126(3) 0.0883(5)
C9_11 C 0.5226(3) 0.1286(3) 0.0142(5)
C10_11 C 0.5048(3) 0.1304(3) 0.0632(5)
H4_11 H 0.517967 0.129843 0.096250
C12_11 C 0.4459(4) 0.1336(3) 0.1180(6)
C13_11 C 0.4480(3) 0.1367(4) 0.0117(7)
H6_11 H 0.423124 0.140853 0.010652
C16_11 C 0.4667(3) 0.1330(3) 0.0653(6)
C17_11 C 0.6279(3) 0.2724(3) 0.2643(5)
C18_11 C 0.6281(3) 0.2543(3) 0.3133(5)
H7_11 H 0.625293 0.267214 0.346329
C19_11 C 0.6325(3) 0.2163(3) 0.3153(5)
C20_11 C 0.6304(3) 0.2535(3) 0.2145(5)
H8_11 H 0.628712 0.266145 0.181043
C21_11 C 0.6350(4) 0.1984(3) 0.2629(5)
H9_11 H 0.636602 0.173200 0.262170
C22_11 C 0.6351(3) 0.2171(3) 0.2136(5)
C23_11 C 0.6351(4) 0.1973(4) 0.1591(6)
C24_11 C 0.6344(3) 0.1947(3) 0.3681(5)
C25_11 C 0.8810(4) 0.0213(3) 0.2647(5)
C26_11 C 0.8843(3) 0.0025(3) 0.3158(5)
H10_11 H 0.885222 0.015044 0.349384
C28_11 C 0.8823(4) 0.0024(3) 0.2157(6)
H11_11 H 0.881334 0.015313 0.182485
O1_11 O 0.6690(2) 0.1444(3) 0.0370(4)
O4_11 O 0.8395(2) 0.1124(3) 0.0871(4)
O5_11 O 0.7885(3) 0.1146(5) 0.1355(5)
O8_11 O 0.5856(2) 0.1356(2) 0.0679(4)
O10_11 O 0.57874(19) 0.0805(2) 0.0042(4)
O11_11 O 0.4636(2) 0.1291(3) 0.1619(4)
O12_11 O 0.4135(2) 0.1414(4) 0.1155(4)
O16_7 O 0.5804(3) 0.3287(2) 0.2552(4)
O17_7 O 0.6431(2) 0.3370(2) 0.2163(4)
O19_7 O 0.6456(3) 0.1643(2) 0.3653(4)
O20_11 O 0.6374(3) 0.1635(2) 0.1610(4)
O21_11 O 0.6362(5) 0.2142(4) 0.1180(5)
O22_11 O 0.8573(3) 0.0817(2) 0.2141(4)
O30_11 O 0.5088(4) 0.1291(8) 0.2517(5)
O31_7 O 0.6438(3) 0.0885(2) 0.1339(4)
O32_7 O 0.6254(3) 0.0398(2) 0.0889(4)
O35_7 O 0.4196(3) 0.1713(2) 0.2552(4)
O36_7 O 0.3569(2) 0.1630(2) 0.2163(4)
O38_7 O 0.9143(2) 0.1044(3) 0.1153(4)
H15_11 H 0.518851 0.107835 0.231491
H16_11 H 0.517326 0.12867 0.290906
P1_11 P 0.68010(8) 0.12172(11) 0.98661(14)
C1_11 C 0.7285(3) 0.1193(4) 0.9849(5)
C4_11 C 0.7476(3) 0.1192(3) 0.9337(5)
H2_11 H 0.735556 0.121036 0.899743
C5_11 C 0.8039(3) 0.1148(3) 0.9842(5)
H3_11 H 0.829125 0.114264 0.983400
C6_11 C 0.7856(3) 0.1161(4) 0.9366(5)
C7_11 C 0.8056(3) 0.1148(3) 0.8797(5)
C11_11 C 0.5032(3) 0.1287(4) 0.9642(6)
H5_11 H 0.515360 0.124909 0.930842
C14_11 C 0.4671(3) 0.1342(4) 0.9638(6)
C15_11 C 0.4474(4) 0.1349(4) 0.9105(7)
O2_11 O 0.6672(3) 0.1365(3) 0.9309(4)
O3_11 O 0.6671(2) 0.0815(2) 0.9953(4)
O6_7 O 0.8385(2) 0.1062(3) 0.8839(4)
O7_7 O 0.7898(2) 0.1246(3) 0.8389(4)
O9_11 O 0.5861(2) 0.1448(3) 0.9672(4)
O14_11 O 0.4627(4) 0.1302(5) 0.8680(5)
Zn5_7 Zn 0.88298(3) 0.11549(3) 0.84447(5)
Mn4_9 Mn 0.79891(5) 0.12705(5) 0.75002(7)
C27_11 C 0.8861(4) 0.9649(3) 0.3145(5)
C29_11 C 0.8867(4) 0.9459(3) 0.2644(5)
H12_11 H 0.888057 0.920689 0.264868
C30_11 C 0.8852(4) 0.9639(3) 0.2135(5)
C31_11 C 0.8852(4) 0.9438(4) 0.1627(6)
C32_11 C 0.8868(4) 0.9454(4) 0.3705(6)
O28_11 O 0.8793(5) 0.9591(4) 0.1122(6)
O29_11 O 0.6061(9) 0.9931(4) 0.0022(6)
H14_11 H 0.579223 0.991868 0.00491098
P4_12 P 0.17994(7) 0.63111(9) 0.01284(13)
C19_12 C 0.0337(3) 0.3825(3) 0.0653(5)
C21_12 C 0.0516(3) 0.3850(4) 0.0129(5)
H9_12 H 0.076800 0.386602 0.012170
C24_12 C 0.0553(3) 0.3844(3) 0.1181(5)
C25_12 C 0.2287(3) 0.6310(4) 0.0147(5)
C26_12 C 0.2475(3) 0.6343(3) 0.0658(5)
H10_12 H 0.234956 0.635222 0.099384
C27_12 C 0.2851(3) 0.6361(4) 0.0645(5)
C29_12 C 0.3041(3) 0.6367(4) 0.0144(5)
H12_12 H 0.329311 0.638057 0.014868
C32_12 C 0.3046(4) 0.6368(4) 0.1205(6)
O19_8 O 0.0857(2) 0.3956(3) 0.1153(4)
O30_12 O 0.1209(8) 0.2588(4) 0.0017(5)
O35_8 O 0.0787(2) 0.1696(3) 0.0052(4)
H16_12 H 0.12133 0.267326 0.0409064
Zn1_8 Zn 0.11702(3) 0.38451(3) 0.84447(5)
P1_12 P 0.12828(11) 0.43010(8) 0.73661(14)
P2_12 P 0.12667(11) 0.32185(8) 0.76210(14)
C1_12 C 0.1307(4) 0.4785(3) 0.7349(5)
C2_12 C 0.1321(3) 0.4976(3) 0.7843(5)
H1_12 H 0.130541 0.484785 0.817538
C3_12 C 0.1357(3) 0.5357(3) 0.7866(5)
C4_12 C 0.1308(3) 0.4976(3) 0.6837(5)
H2_12 H 0.128964 0.485556 0.649743
C5_12 C 0.1352(3) 0.5539(3) 0.7342(5)
H3_12 H 0.135736 0.579125 0.733400
C6_12 C 0.1339(4) 0.5356(3) 0.6866(5)
C7_12 C 0.1352(3) 0.5556(3) 0.6297(5)
C8_12 C 0.1374(3) 0.5559(3) 0.8383(5)
C9_12 C 0.1214(3) 0.2726(3) 0.7642(5)
C10_12 C 0.1196(3) 0.2548(3) 0.8132(5)
H4_12 H 0.120157 0.267967 0.846250
C11_12 C 0.1213(4) 0.2532(3) 0.7142(6)
H5_12 H 0.125091 0.265360 0.680842
C12_12 C 0.1164(3) 0.1959(4) 0.8680(6)
C13_12 C 0.1133(4) 0.1980(3) 0.7617(7)
H6_12 H 0.109147 0.173124 0.760652
C14_12 C 0.1158(4) 0.2171(3) 0.7138(6)
C15_12 C 0.1151(4) 0.1974(4) 0.6605(7)
C16_12 C 0.1170(3) 0.2167(3) 0.8153(6)
C22_12 C 0.0329(3) 0.3851(3) 0.9636(5)
C23_12 C 0.0527(4) 0.3851(4) 0.9091(6)
C28_12 C 0.2476(3) 0.6323(4) 0.9657(6)
H11_12 H 0.234687 0.631334 0.932485
C30_12 C 0.2861(3) 0.6352(4) 0.9635(5)
C31_12 C 0.3062(4) 0.6352(4) 0.9127(6)
O1_12 O 0.1056(3) 0.4190(2) 0.7870(4)
O2_12 O 0.1135(3) 0.4172(3) 0.6809(4)
O3_12 O 0.1685(2) 0.4171(2) 0.7453(4)
O4_12 O 0.1376(3) 0.5895(2) 0.8371(4)
O5_12 O 0.1354(5) 0.5385(3) 0.8855(5)
O6_8 O 0.1438(3) 0.5885(2) 0.6339(4)
O7_8 O 0.1254(3) 0.5398(2) 0.5889(4)
O8_12 O 0.1144(2) 0.3356(2) 0.8179(4)
O9_12 O 0.1052(3) 0.3361(2) 0.7172(4)
O10_12 O 0.1695(2) 0.32874(19) 0.7542(4)
O11_12 O 0.1209(3) 0.2136(2) 0.9119(4)
O12_12 O 0.1086(4) 0.1635(2) 0.8655(4)
O14_12 O 0.1198(5) 0.2127(4) 0.6180(5)
O20_12 O 0.0865(2) 0.3874(3) 0.9110(4)
O21_12 O 0.0358(4) 0.3862(5) 0.8680(5)
O22_12 O 0.1683(2) 0.6073(3) 0.9641(4)
O28_12 O 0.2909(4) 0.6293(5) 0.8622(6)
O29_12 O 0.2569(4) 0.3561(9) 0.7522(6)
Zn5_8 Zn 0.13451(3) 0.63298(3) 0.59447(5)
Mn4_10 Mn 0.12295(5) 0.54891(5) 0.50002(7)
O31_8 O 0.1615(2) 0.3938(3) 0.8839(4)
O32_8 O 0.2102(2) 0.3754(3) 0.8389(4)
O36_8 O 0.0870(2) 0.1069(2) 0.9663(4)
O38_8 O 0.1456(3) 0.6643(2) 0.8653(4)
H13_10 H 0.269312 0.364203 0.717673
H14_12 H 0.258132 0.329223 0.754911
H15_12 H 0.142165 0.268851 0.981491
P3_12 P 0.92807(7) 0.37015(8) 0.01256(12)
C17_12 C 0.9776(3) 0.3779(3) 0.0143(5)
C18_12 C 0.9957(3) 0.3781(3) 0.0633(5)
H7_12 H 0.982786 0.375293 0.096329
O16_8 O 0.9213(2) 0.3304(3) 0.0052(4)
C20_12 C 0.9965(3) 0.3804(3) 0.9645(5)
H8_12 H 0.983855 0.378712 0.931043
O17_8 O 0.9130(2) 0.3931(2) 0.9663(4)
P2_13 P 0.42815(8) 0.37667(11) 0.01210(14)
P3_13 P 0.37985(8) 0.17807(7) 0.26256(12)
P4_13 P 0.11889(9) 0.42994(7) 0.26284(13)
C2_13 C 0.2524(3) 0.3821(3) 0.0343(5)
H1_13 H 0.265215 0.380541 0.067538
C3_13 C 0.2143(3) 0.3857(3) 0.0366(5)
C8_13 C 0.1941(3) 0.3874(3) 0.0883(5)
C9_13 C 0.4774(3) 0.3714(3) 0.0142(5)
C10_13 C 0.4952(3) 0.3696(3) 0.0632(5)
H4_13 H 0.482033 0.370157 0.096250
C12_13 C 0.5541(4) 0.3664(3) 0.1180(6)
C13_13 C 0.5520(3) 0.3633(4) 0.0117(7)
H6_13 H 0.576876 0.359147 0.010652
C16_13 C 0.5333(3) 0.3670(3) 0.0653(6)
C17_13 C 0.3721(3) 0.2276(3) 0.2643(5)
C18_13 C 0.3719(3) 0.2457(3) 0.3133(5)
H7_13 H 0.374707 0.232786 0.346329
C19_13 C 0.3675(3) 0.2837(3) 0.3153(5)
C20_13 C 0.3696(3) 0.2465(3) 0.2145(5)
H8_13 H 0.371288 0.233855 0.181043
C21_13 C 0.3650(4) 0.3016(3) 0.2629(5)
H9_13 H 0.363398 0.326800 0.262170
C22_13 C 0.3649(3) 0.2829(3) 0.2136(5)
C23_13 C 0.3649(4) 0.3027(4) 0.1591(6)
C24_13 C 0.3656(3) 0.3053(3) 0.3681(5)
C25_13 C 0.1190(4) 0.4787(3) 0.2647(5)
C26_13 C 0.1157(3) 0.4975(3) 0.3158(5)
H10_13 H 0.114778 0.484956 0.349384
C27_13 C 0.1139(4) 0.5351(3) 0.3145(5)
C28_13 C 0.1177(4) 0.4976(3) 0.2157(6)
H11_13 H 0.118666 0.484687 0.182485
C29_13 C 0.1133(4) 0.5541(3) 0.2644(5)
H12_13 H 0.111943 0.579311 0.264868
C30_13 C 0.1148(4) 0.5361(3) 0.2135(5)
C31_13 C 0.1148(4) 0.5562(4) 0.1627(6)
C32_13 C 0.1132(4) 0.5546(4) 0.3705(6)
O1_13 O 0.3310(2) 0.3556(3) 0.0370(4)
O4_13 O 0.1605(2) 0.3876(3) 0.0871(4)
O5_13 O 0.2115(3) 0.3854(5) 0.1355(5)
O8_13 O 0.4144(2) 0.3644(2) 0.0679(4)
O10_13 O 0.42126(19) 0.4195(2) 0.0042(4)
O11_13 O 0.5364(2) 0.3709(3) 0.1619(4)
O12_13 O 0.5865(2) 0.3586(4) 0.1155(4)
O20_13 O 0.3626(3) 0.3365(2) 0.1610(4)
O21_13 O 0.3638(5) 0.2858(4) 0.1180(5)
O22_13 O 0.1427(3) 0.4183(2) 0.2141(4)
O25_7 O 0.1195(3) 0.5390(2) 0.4115(3)
O26_7 O 0.1084(3) 0.5888(3) 0.3657(4)
O28_13 O 0.1207(5) 0.5409(4) 0.1122(6)
O29_13 O 0.3939(9) 0.5069(4) 0.0022(6)
O30_13 O 0.4912(4) 0.3709(8) 0.2517(5)
H14_13 H 0.420777 0.508132 0.00491098
H15_13 H 0.481149 0.392165 0.231491
H16_13 H 0.482674 0.37133 0.290906
P1_13 P 0.31990(8) 0.37828(11) 0.98661(14)
C1_13 C 0.2715(3) 0.3807(4) 0.9849(5)
C4_13 C 0.2524(3) 0.3808(3) 0.9337(5)
H2_13 H 0.264444 0.378964 0.899743
C5_13 C 0.1961(3) 0.3852(3) 0.9842(5)
H3_13 H 0.170875 0.385736 0.983400
C6_13 C 0.2144(3) 0.3839(4) 0.9366(5)
C7_13 C 0.1944(3) 0.3852(3) 0.8797(5)
C11_13 C 0.4968(3) 0.3713(4) 0.9642(6)
H5_13 H 0.484640 0.375091 0.930842
C14_13 C 0.5329(3) 0.3658(4) 0.9638(6)
C15_13 C 0.5526(4) 0.3651(4) 0.9105(7)
O2_13 O 0.3328(3) 0.3635(3) 0.9309(4)
O3_13 O 0.3329(2) 0.4185(2) 0.9953(4)
O9_13 O 0.4139(2) 0.3552(3) 0.9672(4)
O14_13 O 0.5373(4) 0.3698(5) 0.8680(5)
O41_7 O 0.3805(3) 0.4610(2) 0.9115(3)
O42_7 O 0.3916(3) 0.4112(3) 0.8657(4)
H13_11 H 0.385797 0.519312 0.967673
P3_14 P 0.07193(7) 0.12985(8) 0.01256(12)
C17_14 C 0.0224(3) 0.1221(3) 0.0143(5)
C18_14 C 0.0043(3) 0.1219(3) 0.0633(5)
H7_14 H 0.017214 0.124707 0.096329
C20_14 C 0.0035(3) 0.1196(3) 0.9645(5)
H8_14 H 0.016145 0.121288 0.931043
C19_14 C 0.9663(3) 0.1175(3) 0.0653(5)
C21_14 C 0.9484(3) 0.1150(4) 0.0129(5)
H9_14 H 0.923200 0.113398 0.012170
C24_14 C 0.9447(3) 0.1156(3) 0.1181(5)
O30_14 O 0.8791(8) 0.2412(4) 0.0017(5)
H16_14 H 0.87867 0.232674 0.0409064
P1_14 P 0.87172(11) 0.06990(8) 0.73661(14)
P2_14 P 0.87333(11) 0.17815(8) 0.76210(14)
C1_14 C 0.8693(4) 0.0215(3) 0.7349(5)
C2_14 C 0.8679(3) 0.0024(3) 0.7843(5)
H1_14 H 0.869459 0.015215 0.817538
C4_14 C 0.8692(3) 0.0024(3) 0.6837(5)
H2_14 H 0.871036 0.014444 0.649743
C9_14 C 0.8786(3) 0.2274(3) 0.7642(5)
C10_14 C 0.8804(3) 0.2452(3) 0.8132(5)
H4_14 H 0.879843 0.232033 0.846250
C11_14 C 0.8787(4) 0.2468(3) 0.7142(6)
H5_14 H 0.874909 0.234640 0.680842
C12_14 C 0.8836(3) 0.3041(4) 0.8680(6)
C13_14 C 0.8867(4) 0.3020(3) 0.7617(7)
H6_14 H 0.890853 0.326876 0.760652
C14_14 C 0.8842(4) 0.2829(3) 0.7138(6)
C15_14 C 0.8849(4) 0.3026(4) 0.6605(7)
C16_14 C 0.8830(3) 0.2833(3) 0.8153(6)
C22_14 C 0.9671(3) 0.1149(3) 0.9636(5)
C23_14 C 0.9473(4) 0.1149(4) 0.9091(6)
O1_14 O 0.8944(3) 0.0810(2) 0.7870(4)
O2_14 O 0.8865(3) 0.0828(3) 0.6809(4)
O3_14 O 0.8315(2) 0.0829(2) 0.7453(4)
O8_14 O 0.8856(2) 0.1644(2) 0.8179(4)
O9_14 O 0.8948(3) 0.1639(2) 0.7172(4)
O10_14 O 0.8305(2) 0.17126(19) 0.7542(4)
O11_14 O 0.8791(3) 0.2864(2) 0.9119(4)
O12_14 O 0.8914(4) 0.3365(2) 0.8655(4)
O14_14 O 0.8802(5) 0.2873(4) 0.6180(5)
O20_14 O 0.9135(2) 0.1126(3) 0.9110(4)
O21_14 O 0.9642(4) 0.1138(5) 0.8680(5)
O29_14 O 0.7431(4) 0.1439(9) 0.7522(6)
O41_8 O 0.7890(2) 0.1305(3) 0.6615(3)
O42_8 O 0.8388(3) 0.1416(3) 0.6157(4)
H13_12 H 0.730688 0.135797 0.717673
H14_14 H 0.741868 0.170777 0.754911
H15_14 H 0.857835 0.231149 0.981491
P4_14 P 0.82006(7) 0.86889(9) 0.01284(13)
C25_14 C 0.7713(3) 0.8690(4) 0.0147(5)
C26_14 C 0.7525(3) 0.8657(3) 0.0658(5)
H10_14 H 0.765044 0.864778 0.099384
C27_14 C 0.7149(3) 0.8639(4) 0.0645(5)
C29_14 C 0.6959(3) 0.8633(4) 0.0144(5)
H12_14 H 0.670689 0.861943 0.014868
C32_14 C 0.6954(4) 0.8632(4) 0.1205(6)
O25_8 O 0.7110(2) 0.8695(3) 0.1615(3)
O26_8 O 0.6612(3) 0.8584(3) 0.1157(4)
C3_14 C 0.8643(3) 0.9643(3) 0.7866(5)
C5_14 C 0.8648(3) 0.9461(3) 0.7342(5)
H3_14 H 0.864264 0.920875 0.733400
C6_14 C 0.8661(4) 0.9644(3) 0.6866(5)
C7_14 C 0.8648(3) 0.9444(3) 0.6297(5)
C8_14 C 0.8626(3) 0.9441(3) 0.8383(5)
C28_14 C 0.7524(3) 0.8677(4) 0.9657(6)
H11_14 H 0.765313 0.868666 0.932485
C30_14 C 0.7139(3) 0.8648(4) 0.9635(5)
C31_14 C 0.6938(4) 0.8648(4) 0.9127(6)
O4_14 O 0.8624(3) 0.9105(2) 0.8371(4)
O5_14 O 0.8646(5) 0.9615(3) 0.8855(5)
O22_14 O 0.8317(2) 0.8927(3) 0.9641(4)
O28_14 O 0.7091(4) 0.8707(5) 0.8622(6)
P1_15 P 0.18010(8) 0.62172(11) 0.48661(14)
P2_15 P 0.07185(8) 0.62333(11) 0.51210(14)
P3_15 P 0.12015(8) 0.82193(7) 0.76256(12)
P4_15 P 0.38111(9) 0.57006(7) 0.76284(13)
C1_15 C 0.2285(3) 0.6193(4) 0.4849(5)
C2_15 C 0.2476(3) 0.6179(3) 0.5343(5)
H1_15 H 0.234785 0.619459 0.567538
C3_15 C 0.2857(3) 0.6143(3) 0.5366(5)
C4_15 C 0.2476(3) 0.6192(3) 0.4337(5)
H2_15 H 0.235556 0.621036 0.399743
C5_15 C 0.3039(3) 0.6148(3) 0.4842(5)
H3_15 H 0.329125 0.614264 0.483400
C6_15 C 0.2856(3) 0.6161(4) 0.4366(5)
C7_15 C 0.3056(3) 0.6148(3) 0.3797(5)
C8_15 C 0.3059(3) 0.6126(3) 0.5883(5)
C9_15 C 0.0226(3) 0.6286(3) 0.5142(5)
C10_15 C 0.0048(3) 0.6304(3) 0.5632(5)
H4_15 H 0.017967 0.629843 0.596250
C11_15 C 0.0032(3) 0.6287(4) 0.4642(6)
H5_15 H 0.015360 0.624909 0.430842
C17_15 C 0.1279(3) 0.7724(3) 0.7643(5)
C18_15 C 0.1281(3) 0.7543(3) 0.8133(5)
H7_15 H 0.125293 0.767214 0.846329
C19_15 C 0.1325(3) 0.7163(3) 0.8153(5)
C20_15 C 0.1304(3) 0.7535(3) 0.7145(5)
H8_15 H 0.128712 0.766145 0.681043
C21_15 C 0.1350(4) 0.6984(3) 0.7629(5)
H9_15 H 0.136602 0.673200 0.762170
C22_15 C 0.1351(3) 0.7171(3) 0.7136(5)
C23_15 C 0.1351(4) 0.6973(4) 0.6591(6)
C24_15 C 0.1344(3) 0.6947(3) 0.8681(5)
C25_15 C 0.3810(4) 0.5213(3) 0.7647(5)
C26_15 C 0.3843(3) 0.5025(3) 0.8158(5)
H10_15 H 0.385222 0.515044 0.849384
C27_15 C 0.3861(4) 0.4649(3) 0.8145(5)
C28_15 C 0.3823(4) 0.5024(3) 0.7157(6)
H11_15 H 0.381334 0.515313 0.682485
C29_15 C 0.3867(4) 0.4459(3) 0.7644(5)
H12_15 H 0.388057 0.420689 0.764868
C30_15 C 0.3852(4) 0.4639(3) 0.7135(5)
C31_15 C 0.3852(4) 0.4438(4) 0.6627(6)
C32_15 C 0.3868(4) 0.4454(4) 0.8705(6)
O1_15 O 0.1690(2) 0.6444(3) 0.5370(4)
O2_15 O 0.1672(3) 0.6365(3) 0.4309(4)
O3_15 O 0.1671(2) 0.5815(2) 0.4953(4)
O4_15 O 0.3395(2) 0.6124(3) 0.5871(4)
O5_15 O 0.2885(3) 0.6146(5) 0.6355(5)
O8_15 O 0.0856(2) 0.6356(2) 0.5679(4)
O9_15 O 0.0861(2) 0.6448(3) 0.4672(4)
O10_15 O 0.07874(19) 0.5805(2) 0.5042(4)
O20_15 O 0.1374(3) 0.6635(2) 0.6610(4)
O21_15 O 0.1362(5) 0.7142(4) 0.6180(5)
O22_15 O 0.3573(3) 0.5817(2) 0.7141(4)
O28_15 O 0.3793(5) 0.4591(4) 0.6122(6)
O29_15 O 0.1061(9) 0.4931(4) 0.5022(6)
O30_15 O 0.0088(4) 0.6291(8) 0.7517(5)
H13_13 H 0.114203 0.480688 0.467673
H14_15 H 0.0792226 0.491868 0.504911
H15_15 H 0.018851 0.607835 0.731491
H16_15 H 0.0173256 0.62867 0.790906
C12_15 C 0.9459(4) 0.6336(3) 0.6180(6)
C13_15 C 0.9480(3) 0.6367(4) 0.5117(7)
H6_15 H 0.923124 0.640853 0.510652
C14_15 C 0.9671(3) 0.6342(4) 0.4638(6)
C15_15 C 0.9474(4) 0.6349(4) 0.4105(7)
C16_15 C 0.9667(3) 0.6330(3) 0.5653(6)
O11_15 O 0.9636(2) 0.6291(3) 0.6619(4)
O12_15 O 0.9135(2) 0.6414(4) 0.6155(4)
O14_15 O 0.9627(4) 0.6302(5) 0.3680(5)
P4_16 P 0.67994(7) 0.13111(9) 0.51284(13)
C3_16 C 0.6357(3) 0.0357(3) 0.2866(5)
C5_16 C 0.6352(3) 0.0539(3) 0.2342(5)
H3_16 H 0.635736 0.079125 0.233400
C6_16 C 0.6339(4) 0.0356(3) 0.1866(5)
C7_16 C 0.6352(3) 0.0556(3) 0.1297(5)
C8_16 C 0.6374(3) 0.0559(3) 0.3383(5)
C25_16 C 0.7287(3) 0.1310(4) 0.5147(5)
C26_16 C 0.7475(3) 0.1343(3) 0.5658(5)
H10_16 H 0.734956 0.135222 0.599384
C27_16 C 0.7851(3) 0.1361(4) 0.5645(5)
C28_16 C 0.7476(3) 0.1323(4) 0.4657(6)
H11_16 H 0.734687 0.131334 0.432485
C29_16 C 0.8041(3) 0.1367(4) 0.5144(5)
H12_16 H 0.829311 0.138057 0.514868
C30_16 C 0.7861(3) 0.1352(4) 0.4635(5)
C31_16 C 0.8062(4) 0.1352(4) 0.4127(6)
C32_16 C 0.8046(4) 0.1368(4) 0.6205(6)
O4_16 O 0.6376(3) 0.0895(2) 0.3371(4)
O5_16 O 0.6354(5) 0.0385(3) 0.3855(5)
O22_16 O 0.6683(2) 0.1073(3) 0.4641(4)
O28_16 O 0.7909(4) 0.1293(5) 0.3622(6)
P1_16 P 0.62828(11) 0.93010(8) 0.23661(14)
P2_16 P 0.62667(11) 0.82185(8) 0.26210(14)
P3_16 P 0.42807(7) 0.87015(8) 0.51256(12)
C1_16 C 0.6307(4) 0.9785(3) 0.2349(5)
C2_16 C 0.6321(3) 0.9976(3) 0.2843(5)
H1_16 H 0.630541 0.984785 0.317538
C4_16 C 0.6308(3) 0.9976(3) 0.1837(5)
H2_16 H 0.628964 0.985556 0.149743
C9_16 C 0.6214(3) 0.7726(3) 0.2642(5)
C10_16 C 0.6196(3) 0.7548(3) 0.3132(5)
H4_16 H 0.620157 0.767967 0.346250
C11_16 C 0.6213(4) 0.7532(3) 0.2142(6)
H5_16 H 0.625091 0.765360 0.180842
C12_16 C 0.6164(3) 0.6959(4) 0.3680(6)
C13_16 C 0.6133(4) 0.6980(3) 0.2617(7)
H6_16 H 0.609147 0.673124 0.260652
C14_16 C 0.6158(4) 0.7171(3) 0.2138(6)
C15_16 C 0.6151(4) 0.6974(4) 0.1605(7)
C16_16 C 0.6170(3) 0.7167(3) 0.3153(6)
C17_16 C 0.4776(3) 0.8779(3) 0.5143(5)
C18_16 C 0.4957(3) 0.8781(3) 0.5633(5)
H7_16 H 0.482786 0.875293 0.596329
C19_16 C 0.5337(3) 0.8825(3) 0.5653(5)
C20_16 C 0.4965(3) 0.8804(3) 0.4645(5)
H8_16 H 0.483855 0.878712 0.431043
C21_16 C 0.5516(3) 0.8850(4) 0.5129(5)
H9_16 H 0.576800 0.886602 0.512170
C22_16 C 0.5329(3) 0.8851(3) 0.4636(5)
C23_16 C 0.5527(4) 0.8851(4) 0.4091(6)
C24_16 C 0.5553(3) 0.8844(3) 0.6181(5)
O1_16 O 0.6056(3) 0.9190(2) 0.2870(4)
O2_16 O 0.6135(3) 0.9172(3) 0.1809(4)
O3_16 O 0.6685(2) 0.9171(2) 0.2453(4)
O8_16 O 0.6144(2) 0.8356(2) 0.3179(4)
O9_16 O 0.6052(3) 0.8361(2) 0.2172(4)
O10_16 O 0.6695(2) 0.82874(19) 0.2542(4)
O11_16 O 0.6209(3) 0.7136(2) 0.4119(4)
O12_16 O 0.6086(4) 0.6635(2) 0.3655(4)
O14_16 O 0.6198(5) 0.7127(4) 0.1180(5)
O20_16 O 0.5865(2) 0.8874(3) 0.4110(4)
O21_16 O 0.5358(4) 0.8862(5) 0.3680(5)
O29_16 O 0.7569(4) 0.8561(9) 0.2522(6)
O30_16 O 0.6209(8) 0.7588(4) 0.5017(5)
H13_14 H 0.769312 0.864203 0.217673
H14_16 H 0.758132 0.829223 0.254911
H15_16 H 0.642165 0.768851 0.481491
H16_16 H 0.62133 0.767326 0.540906
H13_15 H 0.385797 0.0193119 0.0323265
H13_16 H 0.614203 0.980688 0.967673
loop_
_geom_bond_atom_site_label_1
_geom_bond_atom_site_label_2
_geom_bond_site_symmetry_1
_geom_bond_site_symmetry_2
Zn1 O1 1_555 1_555
Zn2 O2 1_555 1_555
Zn4 O4 1_555 1_555
Mn1 O3 1_555 1_555
P1 C1 1_555 1_555
P2 C9 1_555 1_555
P3 C17 1_555 1_555
P4 C25 1_555 1_555
C1 C2 1_555 1_555
C2 H1 1_555 1_555
C3 C2 1_555 1_555
C4 C1 1_555 1_555
H2 C4 1_555 1_555
C5 C3 1_555 1_555
H3 C5 1_555 1_555
C6 C4 1_555 1_555
C7 C6 1_555 1_555
C8 C3 1_555 1_555
C9 C10 1_555 1_555
C10 H4 1_555 1_555
C11 C9 1_555 1_555
H5 C11 1_555 1_555
C17 C18 1_555 1_555
C18 H7 1_555 1_555
C19 C18 1_555 1_555
C20 C17 1_555 1_555
H8 C20 1_555 1_555
C21 C19 1_555 1_555
H9 C21 1_555 1_555
C22 C20 1_555 1_555
C23 C22 1_555 1_555
C24 C19 1_555 1_555
C25 C26 1_555 1_555
C26 H10 1_555 1_555
C28 C25 1_555 1_555
H11 C28 1_555 1_555
O1 P1 1_555 1_555
O2 P1 1_555 1_555
O3 P1 1_555 1_555
O4 C8 1_555 1_555
O5 C8 1_555 1_555
O6 C7 1_555 1_555
O7 C7 1_555 1_555
O8 Zn1 1_555 1_555
O9 Zn2 1_555 1_555
O10 Mn1 1_555 1_555
O15 P3 1_555 1_555
O16 P3 1_555 1_555
O17 P3 1_555 1_555
O18 C24 1_555 1_555
O19 C24 1_555 1_555
O20 Zn1 1_555 1_555
O21 C23 1_555 1_555
O22 Zn4 1_555 1_555
O23 P4 1_555 1_555
O24 P4 1_555 1_555
Zn5 O6 1_555 1_555
Zn8 O17 1_555 1_555
Zn10 O23 1_555 1_555
Zn11 O19 1_555 1_555
Zn12 O15 1_555 1_555
Mn4 O7 1_555 1_555
Mn5 O16 1_555 1_555
Mn6 O24 1_555 1_555
Mn7 O18 1_555 1_555
O31 Zn1 1_555 1_555
O32 Mn1 1_555 1_555
O33 Zn2 1_555 1_555
O34 Zn4 1_555 1_555
O38 Zn4 1_555 1_555
O41 Mn1 1_555 1_555
O42 Zn2 1_555 1_555
P2 O8 1_555 1_555
P2 O9 1_555 1_555
P2 O10 1_555 1_555
P4 O22 1_555 1_555
C5 C6 1_555 1_555
C21 C22 1_555 1_555
C23 O20 1_555 1_555
O30 H15 1_555 1_555
O30 H16 1_555 1_555
C29 C27 1_555 1_555
H12 C29 1_555 1_555
C31 C30 1_555 1_555
C32 C27 1_555 1_555
O25 C32 1_555 1_555
O26 C32 1_555 1_555
O27 C31 1_555 1_555
O28 C31 1_555 1_555
Zn6 O26 1_555 1_555
Zn9 O27 1_555 1_555
Mn3 O25 1_555 1_555
C29 C30 1_555 1_555
O29 H13 1_555 1_555
O29 H14 1_555 1_555
Zn3 O12 1_555 1_555
Mn2 O11 1_555 1_555
C12 C16 1_555 1_555
C13 H6 1_555 1_555
C15 C14 1_555 1_555
O11 C12 1_555 1_555
O12 C12 1_555 1_555
O13 C15 1_555 1_555
O14 C15 1_555 1_555
Zn7 O13 1_555 1_555
O35 Mn2 1_555 1_555
O36 Zn3 1_555 1_555
O37 Mn2 1_555 1_555
O39 Zn3 1_555 1_555
O40 Mn2 1_555 1_555
O43 Zn3 1_555 1_555
C13 C14 1_555 1_555
C13 C16 1_555 1_555
Zn1_2 O1_2 1_555 1_555
Zn2_2 O2_2 1_555 1_555
Zn3_2 O12_2 1_555 1_555
Zn4_2 O4_2 1_555 1_555
Mn1_2 O3_2 1_555 1_555
Mn2_2 O11_2 1_555 1_555
P1_2 C1_2 1_555 1_555
P2_2 C9_2 1_555 1_555
P3_2 C17_2 1_555 1_555
P4_2 C25_2 1_555 1_555
C1_2 C2_2 1_555 1_555
C2_2 H1_2 1_555 1_555
C3_2 C2_2 1_555 1_555
C4_2 C1_2 1_555 1_555
H2_2 C4_2 1_555 1_555
C5_2 C3_2 1_555 1_555
H3_2 C5_2 1_555 1_555
C6_2 C4_2 1_555 1_555
C7_2 C6_2 1_555 1_555
C8_2 C3_2 1_555 1_555
C9_2 C10_2 1_555 1_555
C10_2 H4_2 1_555 1_555
C11_2 C9_2 1_555 1_555
H5_2 C11_2 1_555 1_555
C12_2 C16_2 1_555 1_555
C13_2 H6_2 1_555 1_555
C14_2 C11_2 1_555 1_555
C15_2 C14_2 1_555 1_555
C16_2 C10_2 1_555 1_555
C17_2 C18_2 1_555 1_555
C18_2 H7_2 1_555 1_555
C19_2 C18_2 1_555 1_555
C20_2 C17_2 1_555 1_555
H8_2 C20_2 1_555 1_555
C21_2 C19_2 1_555 1_555
H9_2 C21_2 1_555 1_555
C22_2 C20_2 1_555 1_555
C23_2 C22_2 1_555 1_555
C24_2 C19_2 1_555 1_555
C25_2 C26_2 1_555 1_555
C26_2 H10_2 1_555 1_555
C27_2 C26_2 1_555 1_555
C28_2 C25_2 1_555 1_555
H11_2 C28_2 1_555 1_555
C29_2 C27_2 1_555 1_555
H12_2 C29_2 1_555 1_555
C30_2 C28_2 1_555 1_555
C31_2 C30_2 1_555 1_555
C32_2 C27_2 1_555 1_555
O1_2 P1_2 1_555 1_555
O2_2 P1_2 1_555 1_555
O3_2 P1_2 1_555 1_555
O4_2 C8_2 1_555 1_555
O5_2 C8_2 1_555 1_555
O6_2 C7_2 1_555 1_555
O7_2 C7_2 1_555 1_555
O8_2 Zn1_2 1_555 1_555
O9_2 Zn2_2 1_555 1_555
O10_2 Mn1_2 1_555 1_555
O11_2 C12_2 1_555 1_555
O12_2 C12_2 1_555 1_555
O13_2 C15_2 1_555 1_555
O14_2 C15_2 1_555 1_555
O15_2 P3_2 1_555 1_555
O16_2 P3_2 1_555 1_555
O17_2 P3_2 1_555 1_555
O18_2 C24_2 1_555 1_555
O19_2 C24_2 1_555 1_555
O20_2 Zn1_2 1_555 1_555
O21_2 C23_2 1_555 1_555
O22_2 Zn4_2 1_555 1_555
O23_2 P4_2 1_555 1_555
O24_2 P4_2 1_555 1_555
O25_2 C32_2 1_555 1_555
O26_2 C32_2 1_555 1_555
O27_2 C31_2 1_555 1_555
O28_2 C31_2 1_555 1_555
O29_2 Mn1_2 1_555 1_555
O30_2 Mn2_2 1_555 1_555
Zn5_2 O6_2 1_555 1_555
Zn6_2 O26_2 1_555 1_555
Zn7_2 O13_2 1_555 1_555
Zn8_2 O17_2 1_555 1_555
Zn9_2 O27_2 1_555 1_555
Zn10_2 O23_2 1_555 1_555
Zn11_2 O19_2 1_555 1_555
Zn12_2 O15_2 1_555 1_555
Mn3_3 O25_2 1_555 1_555
Mn4_3 O7_2 1_555 1_555
Mn5_2 O16_2 1_555 1_555
Mn6_2 O24_2 1_555 1_555
Mn7_2 O18_2 1_555 1_555
O31_2 Zn1_2 1_555 1_555
O32_2 Mn1_2 1_555 1_555
O33_2 Zn2_2 1_555 1_555
O34_2 Zn4_2 1_555 1_555
O35_2 Mn2_2 1_555 1_555
O36_2 Zn3_2 1_555 1_555
O37_2 Mn2_2 1_555 1_555
O38_2 Zn4_2 1_555 1_555
O39_2 Zn3_2 1_555 1_555
O40_2 Mn2_2 1_555 1_555
O41_2 Mn1_2 1_555 1_555
O42_2 Zn2_2 1_555 1_555
O43_2 Zn3_2 1_555 1_555
P2_2 O8_2 1_555 1_555
P2_2 O9_2 1_555 1_555
P2_2 O10_2 1_555 1_555
P4_2 O22_2 1_555 1_555
C5_2 C6_2 1_555 1_555
C13_2 C14_2 1_555 1_555
C13_2 C16_2 1_555 1_555
C21_2 C22_2 1_555 1_555
C23_2 O20_2 1_555 1_555
C29_2 C30_2 1_555 1_555
O29_2 H13_2 1_555 1_555
O29_2 H14_2 1_555 1_555
O30_2 H15_2 1_555 1_555
O30_2 H16_2 1_555 1_555
C29_3 C27_3 1_555 1_555
H12_3 C29_3 1_555 1_555
C31_3 C30_3 1_555 1_555
C32_3 C27_3 1_555 1_555
O41 C32_3 1_555 1_555
O42 C32_3 1_555 1_555
O27_3 C31_3 1_555 1_555
O28_3 C31_3 1_555 1_555
Zn9_3 O27_3 1_555 1_555
C29_3 C30_3 1_555 1_555
O29_3 H14_3 1_555 1_555
Zn6 O2_3 1_555 1_555
Mn3 O3_3 1_555 1_555
P1_3 C1_3 1_555 1_555
C4_3 C1_3 1_555 1_555
H2_3 C4_3 1_555 1_555
H3_3 C5_3 1_555 1_555
C6_3 C4_3 1_555 1_555
C7_3 C6_3 1_555 1_555
H5_3 C11_3 1_555 1_555
C14_3 C11_3 1_555 1_555
C15_3 C14_3 1_555 1_555
O2_3 P1_3 1_555 1_555
O3_3 P1_3 1_555 1_555
O6_3 C7_3 1_555 1_555
O7_3 C7_3 1_555 1_555
O9_3 Zn6 1_555 1_555
O13_3 C15_3 1_555 1_555
O14_3 C15_3 1_555 1_555
Zn5_3 O6_3 1_555 1_555
Zn7_3 O13_3 1_555 1_555
Mn4_4 O7_3 1_555 1_555
O33_3 Zn6 1_555 1_555
C5_3 C6_3 1_555 1_555
Zn1_3 O1_3 1_555 1_555
Zn3_3 O12_3 1_555 1_555
Zn4_3 O4_3 1_555 1_555
Mn2_3 O11_3 1_555 1_555
P2_3 C9_3 1_555 1_555
P3_3 C17_3 1_555 1_555
P4_3 C25_3 1_555 1_555
C2_3 H1_3 1_555 1_555
C3_3 C2_3 1_555 1_555
C8_3 C3_3 1_555 1_555
C9_3 C10_3 1_555 1_555
C10_3 H4_3 1_555 1_555
C12_3 C16_3 1_555 1_555
C13_3 H6_3 1_555 1_555
C16_3 C10_3 1_555 1_555
C17_3 C18_3 1_555 1_555
C18_3 H7_3 1_555 1_555
C19_3 C18_3 1_555 1_555
C20_3 C17_3 1_555 1_555
H8_3 C20_3 1_555 1_555
C21_3 C19_3 1_555 1_555
H9_3 C21_3 1_555 1_555
C22_3 C20_3 1_555 1_555
C23_3 C22_3 1_555 1_555
C24_3 C19_3 1_555 1_555
C25_3 C26_3 1_555 1_555
C26_3 H10_3 1_555 1_555
C28_3 C25_3 1_555 1_555
H11_3 C28_3 1_555 1_555
O4_3 C8_3 1_555 1_555
O5_3 C8_3 1_555 1_555
O8_3 Zn1_3 1_555 1_555
O10_3 Mn3_2 1_555 1_555
O11_3 C12_3 1_555 1_555
O12_3 C12_3 1_555 1_555
O15_3 P3_3 1_555 1_555
O16_3 P3_3 1_555 1_555
O17_3 P3_3 1_555 1_555
O18_3 C24_3 1_555 1_555
O19_3 C24_3 1_555 1_555
O20_3 Zn1_3 1_555 1_555
O21_3 C23_3 1_555 1_555
O22_3 Zn4_3 1_555 1_555
O23_3 P4_3 1_555 1_555
O24_3 P4_3 1_555 1_555
O30_3 Mn2_3 1_555 1_555
Zn8_3 O17_3 1_555 1_555
Zn10_3 O23_3 1_555 1_555
Zn11_3 O19_3 1_555 1_555
Zn12_3 O15_3 1_555 1_555
Mn5_3 O16_3 1_555 1_555
Mn6_3 O24_3 1_555 1_555
Mn7_3 O18_3 1_555 1_555
O31_3 Zn1_3 1_555 1_555
O32_3 Mn3_2 1_555 1_555
O34_3 Zn4_3 1_555 1_555
O35_3 Mn2_3 1_555 1_555
O36_3 Zn3_3 1_555 1_555
O37_3 Mn2_3 1_555 1_555
O38_3 Zn4_3 1_555 1_555
O39_3 Zn3_3 1_555 1_555
O40_3 Mn2_3 1_555 1_555
O43_3 Zn3_3 1_555 1_555
P2_3 O8_3 1_555 1_555
P2_3 O10_3 1_555 1_555
P4_3 O22_3 1_555 1_555
C13_3 C16_3 1_555 1_555
C21_3 C22_3 1_555 1_555
C23_3 O20_3 1_555 1_555
O30_3 H15_3 1_555 1_555
O30_3 H16_3 1_555 1_555
H8_4 C20_4 1_555 1_555
Zn8_4 O17_4 1_555 1_555
P3_4 C17_4 1_555 1_555
C17_4 C18_4 1_555 1_555
C18_4 H7_4 1_555 1_555
O15_4 P3_4 1_555 1_555
O16_4 P3_4 1_555 1_555
Zn12_4 O15_4 1_555 1_555
Mn5_4 O16_4 1_555 1_555
Zn1_4 O1_4 1_555 1_555
Zn6_2 O2_4 1_555 1_555
Zn3_4 O12_4 1_555 1_555
Zn4_4 O4_4 1_555 1_555
Mn3_3 O3_4 1_555 1_555
P1_4 C1_4 1_555 1_555
P2_4 C9_4 1_555 1_555
C1_4 C2_4 1_555 1_555
C2_4 H1_4 1_555 1_555
C3_4 C2_4 1_555 1_555
C4_4 C1_4 1_555 1_555
H2_4 C4_4 1_555 1_555
C5_4 C3_4 1_555 1_555
H3_4 C5_4 1_555 1_555
C6_4 C4_4 1_555 1_555
C7_4 C6_4 1_555 1_555
C8_4 C3_4 1_555 1_555
C9_4 C10_4 1_555 1_555
C10_4 H4_4 1_555 1_555
C11_4 C9_4 1_555 1_555
H5_4 C11_4 1_555 1_555
C12_4 C16_4 1_555 1_555
C13_4 H6_4 1_555 1_555
C14_4 C11_4 1_555 1_555
C15_4 C14_4 1_555 1_555
C16_4 C10_4 1_555 1_555
C23_4 C22_4 1_555 1_555
H11_4 C28_4 1_555 1_555
C30_4 C28_4 1_555 1_555
C31_4 C30_4 1_555 1_555
O1_4 P1_4 1_555 1_555
O2_4 P1_4 1_555 1_555
O3_4 P1_4 1_555 1_555
O4_4 C8_4 1_555 1_555
O5_4 C8_4 1_555 1_555
O6_4 C7_4 1_555 1_555
O7_4 C7_4 1_555 1_555
O8_4 Zn1_4 1_555 1_555
O9_4 Zn6_2 1_555 1_555
O10_4 Mn3_3 1_555 1_555
O11_4 C12_4 1_555 1_555
O12_4 C12_4 1_555 1_555
O13_4 C15_4 1_555 1_555
O14_4 C15_4 1_555 1_555
O20_4 Zn1_4 1_555 1_555
O21_4 C23_4 1_555 1_555
O22_4 Zn4_4 1_555 1_555
O27_4 C31_4 1_555 1_555
O28_4 C31_4 1_555 1_555
O29_4 Mn3_3 1_555 1_555
Zn5_4 O6_4 1_555 1_555
Zn7_4 O13_4 1_555 1_555
Zn9_4 O27_4 1_555 1_555
Mn4_5 O7_4 1_555 1_555
O31_4 Zn1_4 1_555 1_555
O32_4 Mn3_3 1_555 1_555
O33_4 Zn6_2 1_555 1_555
O34_4 Zn4_4 1_555 1_555
O36_4 Zn3_4 1_555 1_555
O38_4 Zn4_4 1_555 1_555
O39_4 Zn3_4 1_555 1_555
O43_4 Zn3_4 1_555 1_555
P2_4 O8_4 1_555 1_555
P2_4 O9_4 1_555 1_555
P2_4 O10_4 1_555 1_555
C5_4 C6_4 1_555 1_555
C13_4 C14_4 1_555 1_555
C13_4 C16_4 1_555 1_555
C23_4 O20_4 1_555 1_555
O29_4 H13_3 1_555 1_555
O29_4 H14_4 1_555 1_555
P4_4 C25_4 1_555 1_555
C21_4 C19_4 1_555 1_555
H9_4 C21_4 1_555 1_555
C24_4 C19_4 1_555 1_555
C25_4 C26_4 1_555 1_555
C26_4 H10_4 1_555 1_555
C27_4 C26_4 1_555 1_555
C29_4 C27_4 1_555 1_555
H12_4 C29_4 1_555 1_555
C32_4 C27_4 1_555 1_555
O18_4 C24_4 1_555 1_555
O19_4 C24_4 1_555 1_555
O23_4 P4_4 1_555 1_555
O24_4 P4_4 1_555 1_555
O41_2 C32_4 1_555 1_555
O42_2 C32_4 1_555 1_555
O30_4 Mn2_4 1_555 1_555
Zn10_4 O23_4 1_555 1_555
Zn11_4 O19_4 1_555 1_555
Mn7_4 O18_4 1_555 1_555
O35_4 Mn2_4 1_555 1_555
O37_4 Mn2_4 1_555 1_555
O30_4 H16_4 1_555 1_555
Zn2_3 O2_5 1_555 1_555
Mn4_2 O3_5 1_555 1_555
P1_5 C1_5 1_555 1_555
C4_5 C1_5 1_555 1_555
H2_5 C4_5 1_555 1_555
H3_5 C5_5 1_555 1_555
C6_5 C4_5 1_555 1_555
C7_5 C6_5 1_555 1_555
H5_5 C11_5 1_555 1_555
C14_5 C11_5 1_555 1_555
C15_5 C14_5 1_555 1_555
O2_5 P1_5 1_555 1_555
O3_5 P1_5 1_555 1_555
O31_4 C7_5 1_555 1_555
O32_4 C7_5 1_555 1_555
O9_5 Zn2_3 1_555 1_555
O13_5 C15_5 1_555 1_555
O14_5 C15_5 1_555 1_555
Zn7_5 O13_5 1_555 1_555
O33_5 Zn2_3 1_555 1_555
O41_3 Mn4_2 1_555 1_555
O42_3 Zn2_3 1_555 1_555
C5_5 C6_5 1_555 1_555
Zn5_2 O1_5 1_555 1_555
Zn8_3 O12_5 1_555 1_555
Zn11_4 O4_5 1_555 1_555
Mn5_3 O11_5 1_555 1_555
P2_5 C9_5 1_555 1_555
P3_5 C17_5 1_555 1_555
P4_5 C25_5 1_555 1_555
C2_5 H1_5 1_555 1_555
C3_5 C2_5 1_555 1_555
C8_5 C3_5 1_555 1_555
C9_5 C10_5 1_555 1_555
C10_5 H4_5 1_555 1_555
C12_5 C16_5 1_555 1_555
C13_5 H6_5 1_555 1_555
C16_5 C10_5 1_555 1_555
C17_5 C18_5 1_555 1_555
C18_5 H7_5 1_555 1_555
C19_5 C18_5 1_555 1_555
C20_5 C17_5 1_555 1_555
H8_5 C20_5 1_555 1_555
C21_5 C19_5 1_555 1_555
H9_5 C21_5 1_555 1_555
C22_5 C20_5 1_555 1_555
C23_5 C22_5 1_555 1_555
C24_5 C19_5 1_555 1_555
C25_5 C26_5 1_555 1_555
C26_5 H10_5 1_555 1_555
C27_5 C26_5 1_555 1_555
C28_5 C25_5 1_555 1_555
H11_5 C28_5 1_555 1_555
C29_5 C27_5 1_555 1_555
H12_5 C29_5 1_555 1_555
C30_5 C28_5 1_555 1_555
C31_5 C30_5 1_555 1_555
C32_5 C27_5 1_555 1_555
O4_5 C8_5 1_555 1_555
O5_5 C8_5 1_555 1_555
O8_5 Zn5_2 1_555 1_555
O10_5 Mn4_3 1_555 1_555
O11_5 C12_5 1_555 1_555
O12_5 C12_5 1_555 1_555
O15_5 P3_5 1_555 1_555
O35_3 P3_5 1_555 1_555
O36_3 P3_5 1_555 1_555
O18_5 C24_5 1_555 1_555
O38_2 C24_5 1_555 1_555
O20_5 Zn5_2 1_555 1_555
O21_5 C23_5 1_555 1_555
O22_5 Zn11_4 1_555 1_555
O23_5 P4_5 1_555 1_555
O24_5 P4_5 1_555 1_555
O25_3 C32_5 1_555 1_555
O26_3 C32_5 1_555 1_555
O27_5 C31_5 1_555 1_555
O28_5 C31_5 1_555 1_555
O29_5 Mn4_3 1_555 1_555
O30_5 Mn5_3 1_555 1_555
Zn6_3 O26_3 1_555 1_555
Zn10_4 O27_5 1_555 1_555
Zn9_2 O23_5 1_555 1_555
Zn12_5 O15_5 1_555 1_555
Mn4_5 O25_3 1_555 1_555
Mn7_4 O24_5 1_555 1_555
Mn6_2 O18_5 1_555 1_555
O34_5 Zn11_4 1_555 1_555
O37_5 Mn5_3 1_555 1_555
O39_5 Zn8_3 1_555 1_555
O40_5 Mn5_3 1_555 1_555
O43_5 Zn8_3 1_555 1_555
P2_5 O8_5 1_555 1_555
P2_5 O10_5 1_555 1_555
P4_5 O22_5 1_555 1_555
C13_5 C16_5 1_555 1_555
C21_5 C22_5 1_555 1_555
C23_5 O20_5 1_555 1_555
C29_5 C30_5 1_555 1_555
O29_5 H14_5 1_555 1_555
O30_5 H15_5 1_555 1_555
O30_5 H16_5 1_555 1_555
Zn11 O4_6 1_555 1_555
C5_6 C3_6 1_555 1_555
H3_6 C5_6 1_555 1_555
C7_6 C6_6 1_555 1_555
C8_6 C3_6 1_555 1_555
H11_6 C28_6 1_555 1_555
C30_6 C28_6 1_555 1_555
C31_6 C30_6 1_555 1_555
O4_6 C8_6 1_555 1_555
O5_6 C8_6 1_555 1_555
O31 C7_6 1_555 1_555
O32 C7_6 1_555 1_555
O22_6 Zn11 1_555 1_555
O27_6 C31_6 1_555 1_555
O28_6 C31_6 1_555 1_555
Zn10 O27_6 1_555 1_555
O34_6 Zn11 1_555 1_555
C5_6 C6_6 1_555 1_555
P4_6 C25_6 1_555 1_555
C25_6 C26_6 1_555 1_555
C26_6 H10_6 1_555 1_555
C27_6 C26_6 1_555 1_555
C29_6 C27_6 1_555 1_555
H12_6 C29_6 1_555 1_555
C32_6 C27_6 1_555 1_555
O23_6 P4_6 1_555 1_555
O24_6 P4_6 1_555 1_555
O25_4 C32_6 1_555 1_555
O26_4 C32_6 1_555 1_555
Zn6_4 O26_4 1_555 1_555
Zn9_3 O23_6 1_555 1_555
Mn4 O25_4 1_555 1_555
Zn5_3 O1_6 1_555 1_555
Zn2_4 O2_6 1_555 1_555
Zn8_4 O12_6 1_555 1_555
Mn4_4 O3_6 1_555 1_555
P1_6 C1_6 1_555 1_555
P2_6 C9_6 1_555 1_555
C1_6 C2_6 1_555 1_555
C2_6 H1_6 1_555 1_555
C4_6 C1_6 1_555 1_555
H2_6 C4_6 1_555 1_555
C9_6 C10_6 1_555 1_555
C10_6 H4_6 1_555 1_555
C11_6 C9_6 1_555 1_555
H5_6 C11_6 1_555 1_555
C12_6 C16_6 1_555 1_555
C13_6 H6_6 1_555 1_555
C14_6 C11_6 1_555 1_555
C15_6 C14_6 1_555 1_555
C16_6 C10_6 1_555 1_555
C23_6 C22_6 1_555 1_555
O1_6 P1_6 1_555 1_555
O2_6 P1_6 1_555 1_555
O3_6 P1_6 1_555 1_555
O8_6 Zn5_3 1_555 1_555
O9_6 Zn2_4 1_555 1_555
O10_6 Mn4_4 1_555 1_555
O11_6 C12_6 1_555 1_555
O12_6 C12_6 1_555 1_555
O13_6 C15_6 1_555 1_555
O14_6 C15_6 1_555 1_555
O20_6 Zn5_3 1_555 1_555
O21_6 C23_6 1_555 1_555
O29_6 Mn4_4 1_555 1_555
Zn7_6 O13_6 1_555 1_555
O33_6 Zn2_4 1_555 1_555
O39_6 Zn8_4 1_555 1_555
O41_4 Mn4_4 1_555 1_555
O42_4 Zn2_4 1_555 1_555
O43_6 Zn8_4 1_555 1_555
P2_6 O8_6 1_555 1_555
P2_6 O9_6 1_555 1_555
P2_6 O10_6 1_555 1_555
C13_6 C14_6 1_555 1_555
C13_6 C16_6 1_555 1_555
C23_6 O20_6 1_555 1_555
O29_6 H13_5 1_555 1_555
O29_6 H14_6 1_555 1_555
C21_6 C19_6 1_555 1_555
H9_6 C21_6 1_555 1_555
C24_6 C19_6 1_555 1_555
O18_6 C24_6 1_555 1_555
O38_3 C24_6 1_555 1_555
O30_6 Mn5_4 1_555 1_555
Mn6_3 O18_6 1_555 1_555
O37_6 Mn5_4 1_555 1_555
O30_6 H16_6 1_555 1_555
H8_6 C20_6 1_555 1_555
P3_6 C17_6 1_555 1_555
C17_6 C18_6 1_555 1_555
C18_6 H7_6 1_555 1_555
O15_6 P3_6 1_555 1_555
O35_4 P3_6 1_555 1_555
Zn12_6 O15_6 1_555 1_555
Zn8 O12_7 1_555 1_555
Mn5 O11_7 1_555 1_555
C12_7 C16_7 1_555 1_555
C13_7 H6_7 1_555 1_555
C15_7 C14_7 1_555 1_555
O11_7 C12_7 1_555 1_555
O12_7 C12_7 1_555 1_555
O13_7 C15_7 1_555 1_555
O14_7 C15_7 1_555 1_555
Zn7_7 O13_7 1_555 1_555
O37_7 Mn5 1_555 1_555
O39_7 Zn8 1_555 1_555
O40_7 Mn5 1_555 1_555
O43_7 Zn8 1_555 1_555
C13_7 C14_7 1_555 1_555
C13_7 C16_7 1_555 1_555
Zn5_4 O1_7 1_555 1_555
Zn6_3 O2_7 1_555 1_555
Zn11_2 O4_7 1_555 1_555
Mn4_5 O3_7 1_555 1_555
P1_7 C1_7 1_555 1_555
P2_7 C9_7 1_555 1_555
P3_7 C17_7 1_555 1_555
P4_7 C25_7 1_555 1_555
C1_7 C2_7 1_555 1_555
C2_7 H1_7 1_555 1_555
C3_7 C2_7 1_555 1_555
C4_7 C1_7 1_555 1_555
H2_7 C4_7 1_555 1_555
C5_7 C3_7 1_555 1_555
H3_7 C5_7 1_555 1_555
C6_7 C4_7 1_555 1_555
C7_7 C6_7 1_555 1_555
C8_7 C3_7 1_555 1_555
C9_7 C10_7 1_555 1_555
C10_7 H4_7 1_555 1_555
C11_7 C9_7 1_555 1_555
H5_7 C11_7 1_555 1_555
C17_7 C18_7 1_555 1_555
C18_7 H7_7 1_555 1_555
C19_7 C18_7 1_555 1_555
C20_7 C17_7 1_555 1_555
H8_7 C20_7 1_555 1_555
C21_7 C19_7 1_555 1_555
H9_7 C21_7 1_555 1_555
C22_7 C20_7 1_555 1_555
C23_7 C22_7 1_555 1_555
C24_7 C19_7 1_555 1_555
C25_7 C26_7 1_555 1_555
C26_7 H10_7 1_555 1_555
C27_7 C26_7 1_555 1_555
C28_7 C25_7 1_555 1_555
H11_7 C28_7 1_555 1_555
C29_7 C27_7 1_555 1_555
H12_7 C29_7 1_555 1_555
C30_7 C28_7 1_555 1_555
C31_7 C30_7 1_555 1_555
C32_7 C27_7 1_555 1_555
O1_7 P1_7 1_555 1_555
O2_7 P1_7 1_555 1_555
O3_7 P1_7 1_555 1_555
O4_7 C8_7 1_555 1_555
O5_7 C8_7 1_555 1_555
O31_2 C7_7 1_555 1_555
O32_2 C7_7 1_555 1_555
O8_7 Zn5_4 1_555 1_555
O9_7 Zn6_3 1_555 1_555
O10_7 Mn4_5 1_555 1_555
O15_7 P3_7 1_555 1_555
O35 P3_7 1_555 1_555
O36 P3_7 1_555 1_555
O18_7 C24_7 1_555 1_555
O38_4 C24_7 1_555 1_555
O20_7 Zn5_4 1_555 1_555
O21_7 C23_7 1_555 1_555
O22_7 Zn11_2 1_555 1_555
O23_7 P4_7 1_555 1_555
O24_7 P4_7 1_555 1_555
O41_3 C32_7 1_555 1_555
O42_3 C32_7 1_555 1_555
O27_7 C31_7 1_555 1_555
O28_7 C31_7 1_555 1_555
O29_7 Mn4_5 1_555 1_555
Zn10_2 O27_7 1_555 1_555
Zn9_4 O23_7 1_555 1_555
Zn12_7 O15_7 1_555 1_555
Mn7_2 O24_7 1_555 1_555
Mn6_4 O18_7 1_555 1_555
O33_7 Zn6_3 1_555 1_555
O34_7 Zn11_2 1_555 1_555
P2_7 O8_7 1_555 1_555
P2_7 O9_7 1_555 1_555
P2_7 O10_7 1_555 1_555
P4_7 O22_7 1_555 1_555
C5_7 C6_7 1_555 1_555
C21_7 C22_7 1_555 1_555
C23_7 O20_7 1_555 1_555
C29_7 C30_7 1_555 1_555
O29_7 H13_6 1_555 1_555
O29_7 H14_7 1_555 1_555
O30_7 H15_7 1_555 1_555
O30_7 H16_7 1_555 1_555
Zn5 O1_8 1_555 1_555
Zn6_4 O2_8 1_555 1_555
Zn8_2 O12_8 1_555 1_555
Mn4 O3_8 1_555 1_555
Mn5_2 O11_8 1_555 1_555
P1_8 C1_8 1_555 1_555
P2_8 C9_8 1_555 1_555
P3_8 C17_8 1_555 1_555
C1_8 C2_8 1_555 1_555
C2_8 H1_8 1_555 1_555
C4_8 C1_8 1_555 1_555
H2_8 C4_8 1_555 1_555
C9_8 C10_8 1_555 1_555
C10_8 H4_8 1_555 1_555
C11_8 C9_8 1_555 1_555
H5_8 C11_8 1_555 1_555
C12_8 C16_8 1_555 1_555
C13_8 H6_8 1_555 1_555
C14_8 C11_8 1_555 1_555
C15_8 C14_8 1_555 1_555
C16_8 C10_8 1_555 1_555
C17_8 C18_8 1_555 1_555
C18_8 H7_8 1_555 1_555
C19_8 C18_8 1_555 1_555
C20_8 C17_8 1_555 1_555
H8_8 C20_8 1_555 1_555
C21_8 C19_8 1_555 1_555
H9_8 C21_8 1_555 1_555
C22_8 C20_8 1_555 1_555
C23_8 C22_8 1_555 1_555
C24_8 C19_8 1_555 1_555
O1_8 P1_8 1_555 1_555
O2_8 P1_8 1_555 1_555
O3_8 P1_8 1_555 1_555
O8_8 Zn5 1_555 1_555
O9_8 Zn6_4 1_555 1_555
O10_8 Mn4 1_555 1_555
O11_8 C12_8 1_555 1_555
O12_8 C12_8 1_555 1_555
O13_8 C15_8 1_555 1_555
O14_8 C15_8 1_555 1_555
O15_8 P3_8 1_555 1_555
O35_2 P3_8 1_555 1_555
O36_2 P3_8 1_555 1_555
O18_8 C24_8 1_555 1_555
O38 C24_8 1_555 1_555
O20_8 Zn5 1_555 1_555
O21_8 C23_8 1_555 1_555
O29_8 Mn4 1_555 1_555
O30_8 Mn5_2 1_555 1_555
Zn7_8 O13_8 1_555 1_555
Zn12_8 O15_8 1_555 1_555
Mn6 O18_8 1_555 1_555
O33_8 Zn6_4 1_555 1_555
O37_8 Mn5_2 1_555 1_555
O39_8 Zn8_2 1_555 1_555
O40_8 Mn5_2 1_555 1_555
O43_8 Zn8_2 1_555 1_555
P2_8 O8_8 1_555 1_555
P2_8 O9_8 1_555 1_555
P2_8 O10_8 1_555 1_555
C13_8 C14_8 1_555 1_555
C13_8 C16_8 1_555 1_555
C21_8 C22_8 1_555 1_555
C23_8 O20_8 1_555 1_555
O29_8 H13_7 1_555 1_555
O29_8 H14_8 1_555 1_555
O30_8 H15_8 1_555 1_555
O30_8 H16_8 1_555 1_555
Zn11_3 O4_8 1_555 1_555
P4_8 C25_8 1_555 1_555
C5_8 C3_8 1_555 1_555
H3_8 C5_8 1_555 1_555
C7_8 C6_8 1_555 1_555
C8_8 C3_8 1_555 1_555
C25_8 C26_8 1_555 1_555
C26_8 H10_8 1_555 1_555
C27_8 C26_8 1_555 1_555
C28_8 C25_8 1_555 1_555
H11_8 C28_8 1_555 1_555
C29_8 C27_8 1_555 1_555
H12_8 C29_8 1_555 1_555
C30_8 C28_8 1_555 1_555
C31_8 C30_8 1_555 1_555
C32_8 C27_8 1_555 1_555
O4_8 C8_8 1_555 1_555
O5_8 C8_8 1_555 1_555
O31_3 C7_8 1_555 1_555
O32_3 C7_8 1_555 1_555
O22_8 Zn11_3 1_555 1_555
O23_8 P4_8 1_555 1_555
O24_8 P4_8 1_555 1_555
O41_4 C32_8 1_555 1_555
O42_4 C32_8 1_555 1_555
O27_8 C31_8 1_555 1_555
O28_8 C31_8 1_555 1_555
Zn10_3 O27_8 1_555 1_555
Zn9 O23_8 1_555 1_555
Mn7_3 O24_8 1_555 1_555
O34_8 Zn11_3 1_555 1_555
P4_8 O22_8 1_555 1_555
C5_8 C6_8 1_555 1_555
C29_8 C30_8 1_555 1_555
Zn10_3 O12_9 1_555 1_555
Mn6_3 O11_9 1_555 1_555
C12_9 C16_9 1_555 1_555
C13_9 H6_9 1_555 1_555
C15_9 C14_9 1_555 1_555
O11_9 C12_9 1_555 1_555
O12_9 C12_9 1_555 1_555
O33_6 C15_9 1_555 1_555
O14_9 C15_9 1_555 1_555
O35_5 Mn6_3 1_555 1_555
O36_5 Zn10_3 1_555 1_555
C13_9 C14_9 1_555 1_555
C13_9 C16_9 1_555 1_555
C29_9 C27_9 1_555 1_555
H12_9 C29_9 1_555 1_555
C31_9 C30_9 1_555 1_555
C32_9 C27_9 1_555 1_555
O25_5 C32_9 1_555 1_555
O26_5 C32_9 1_555 1_555
O43_2 C31_9 1_555 1_555
O28_9 C31_9 1_555 1_555
Zn7_2 O26_5 1_555 1_555
Mn3_5 O25_5 1_555 1_555
C29_9 C30_9 1_555 1_555
O29_9 H13_8 1_555 1_555
O29_9 H14_9 1_555 1_555
Zn1_5 O1_9 1_555 1_555
Zn7_4 O2_9 1_555 1_555
Zn12_5 O4_9 1_555 1_555
Mn1_3 O3_9 1_555 1_555
P1_9 C1_9 1_555 1_555
P2_9 C9_9 1_555 1_555
P3_9 C17_9 1_555 1_555
P4_9 C25_9 1_555 1_555
C1_9 C2_9 1_555 1_555
C2_9 H1_9 1_555 1_555
C3_9 C2_9 1_555 1_555
C4_9 C1_9 1_555 1_555
H2_9 C4_9 1_555 1_555
C5_9 C3_9 1_555 1_555
H3_9 C5_9 1_555 1_555
C6_9 C4_9 1_555 1_555
C7_9 C6_9 1_555 1_555
C8_9 C3_9 1_555 1_555
C9_9 C10_9 1_555 1_555
C10_9 H4_9 1_555 1_555
C11_9 C9_9 1_555 1_555
H5_9 C11_9 1_555 1_555
C17_9 C18_9 1_555 1_555
C18_9 H7_9 1_555 1_555
C19_9 C18_9 1_555 1_555
C20_9 C17_9 1_555 1_555
H8_9 C20_9 1_555 1_555
C21_9 C19_9 1_555 1_555
H9_9 C21_9 1_555 1_555
C22_9 C20_9 1_555 1_555
C23_9 C22_9 1_555 1_555
C24_9 C19_9 1_555 1_555
C25_9 C26_9 1_555 1_555
C26_9 H10_9 1_555 1_555
C28_9 C25_9 1_555 1_555
H11_9 C28_9 1_555 1_555
O1_9 P1_9 1_555 1_555
O2_9 P1_9 1_555 1_555
O3_9 P1_9 1_555 1_555
O4_9 C8_9 1_555 1_555
O5_9 C8_9 1_555 1_555
O6_5 C7_9 1_555 1_555
O7_5 C7_9 1_555 1_555
O8_9 Zn1_5 1_555 1_555
O9_9 Zn7_4 1_555 1_555
O10_9 Mn1_3 1_555 1_555
O34_5 P3_9 1_555 1_555
O16_5 P3_9 1_555 1_555
O17_5 P3_9 1_555 1_555
O37_4 C24_9 1_555 1_555
O19_5 C24_9 1_555 1_555
O20_9 Zn1_5 1_555 1_555
O21_9 C23_9 1_555 1_555
O22_9 Zn12_5 1_555 1_555
O39_3 P4_9 1_555 1_555
O40_3 P4_9 1_555 1_555
Zn5_5 O6_5 1_555 1_555
Zn9_2 O17_5 1_555 1_555
Zn12_6 O19_5 1_555 1_555
Mn4_6 O7_5 1_555 1_555
Mn7_4 O16_5 1_555 1_555
O31_5 Zn1_5 1_555 1_555
O32_5 Mn1_3 1_555 1_555
O38_5 Zn12_5 1_555 1_555
O41_5 Mn1_3 1_555 1_555
O42_5 Zn7_4 1_555 1_555
P2_9 O8_9 1_555 1_555
P2_9 O9_9 1_555 1_555
P2_9 O10_9 1_555 1_555
P4_9 O22_9 1_555 1_555
C5_9 C6_9 1_555 1_555
C21_9 C22_9 1_555 1_555
C23_9 O20_9 1_555 1_555
O30_9 H15_9 1_555 1_555
O30_9 H16_9 1_555 1_555
Zn1_6 O1_10 1_555 1_555
Zn7_5 O2_10 1_555 1_555
Zn9 O12_10 1_555 1_555
Zn12_2 O4_10 1_555 1_555
Mn1_4 O3_10 1_555 1_555
Mn7_3 O11_10 1_555 1_555
P1_10 C1_10 1_555 1_555
P2_10 C9_10 1_555 1_555
P3_10 C17_10 1_555 1_555
P4_10 C25_10 1_555 1_555
C1_10 C2_10 1_555 1_555
C2_10 H1_10 1_555 1_555
C3_10 C2_10 1_555 1_555
C4_10 C1_10 1_555 1_555
H2_10 C4_10 1_555 1_555
C5_10 C3_10 1_555 1_555
H3_10 C5_10 1_555 1_555
C6_10 C4_10 1_555 1_555
C7_10 C6_10 1_555 1_555
C8_10 C3_10 1_555 1_555
C9_10 C10_10 1_555 1_555
C10_10 H4_10 1_555 1_555
C11_10 C9_10 1_555 1_555
H5_10 C11_10 1_555 1_555
C12_10 C16_10 1_555 1_555
C13_10 H6_10 1_555 1_555
C14_10 C11_10 1_555 1_555
C15_10 C14_10 1_555 1_555
C16_10 C10_10 1_555 1_555
C17_10 C18_10 1_555 1_555
C18_10 H7_10 1_555 1_555
C19_10 C18_10 1_555 1_555
C20_10 C17_10 1_555 1_555
H8_10 C20_10 1_555 1_555
C21_10 C19_10 1_555 1_555
H9_10 C21_10 1_555 1_555
C22_10 C20_10 1_555 1_555
C23_10 C22_10 1_555 1_555
C24_10 C19_10 1_555 1_555
C25_10 C26_10 1_555 1_555
C26_10 H10_10 1_555 1_555
C27_10 C26_10 1_555 1_555
C28_10 C25_10 1_555 1_555
H11_10 C28_10 1_555 1_555
C29_10 C27_10 1_555 1_555
H12_10 C29_10 1_555 1_555
C30_10 C28_10 1_555 1_555
C31_10 C30_10 1_555 1_555
C32_10 C27_10 1_555 1_555
O1_10 P1_10 1_555 1_555
O2_10 P1_10 1_555 1_555
O3_10 P1_10 1_555 1_555
O4_10 C8_10 1_555 1_555
O5_10 C8_10 1_555 1_555
O6_6 C7_10 1_555 1_555
O7_6 C7_10 1_555 1_555
O8_10 Zn1_6 1_555 1_555
O9_10 Zn7_5 1_555 1_555
O10_10 Mn1_4 1_555 1_555
O11_10 C12_10 1_555 1_555
O12_10 C12_10 1_555 1_555
O33_3 C15_10 1_555 1_555
O14_10 C15_10 1_555 1_555
O34_2 P3_10 1_555 1_555
O16_6 P3_10 1_555 1_555
O17_6 P3_10 1_555 1_555
O37_5 C24_10 1_555 1_555
O19_6 C24_10 1_555 1_555
O20_10 Zn1_6 1_555 1_555
O21_10 C23_10 1_555 1_555
O22_10 Zn12_2 1_555 1_555
O39_8 P4_10 1_555 1_555
O40_8 P4_10 1_555 1_555
O25_6 C32_10 1_555 1_555
O26_6 C32_10 1_555 1_555
O43_7 C31_10 1_555 1_555
O28_10 C31_10 1_555 1_555
O29_10 Mn1_4 1_555 1_555
O30_10 Mn7_3 1_555 1_555
Zn5_6 O6_6 1_555 1_555
Zn7_7 O26_6 1_555 1_555
Zn10_2 O17_6 1_555 1_555
Zn12_3 O19_6 1_555 1_555
Mn3_6 O25_6 1_555 1_555
Mn4_7 O7_6 1_555 1_555
Mn6_2 O16_6 1_555 1_555
O31_6 Zn1_6 1_555 1_555
O32_6 Mn1_4 1_555 1_555
O35_6 Mn7_3 1_555 1_555
O36_6 Zn9 1_555 1_555
O38_6 Zn12_2 1_555 1_555
O41_6 Mn1_4 1_555 1_555
O42_6 Zn7_5 1_555 1_555
P2_10 O8_10 1_555 1_555
P2_10 O9_10 1_555 1_555
P2_10 O10_10 1_555 1_555
P4_10 O22_10 1_555 1_555
C5_10 C6_10 1_555 1_555
C13_10 C14_10 1_555 1_555
C13_10 C16_10 1_555 1_555
C21_10 C22_10 1_555 1_555
C23_10 O20_10 1_555 1_555
C29_10 C30_10 1_555 1_555
O29_10 H13_9 1_555 1_555
O29_10 H14_10 1_555 1_555
O30_10 H15_10 1_555 1_555
O30_10 H16_10 1_555 1_555
Zn1_7 O1_11 1_555 1_555
Zn10 O12_11 1_555 1_555
Zn12_7 O4_11 1_555 1_555
Mn6 O11_11 1_555 1_555
P2_11 C9_11 1_555 1_555
P3_11 C17_11 1_555 1_555
P4_11 C25_11 1_555 1_555
C2_11 H1_11 1_555 1_555
C3_11 C2_11 1_555 1_555
C8_11 C3_11 1_555 1_555
C9_11 C10_11 1_555 1_555
C10_11 H4_11 1_555 1_555
C12_11 C16_11 1_555 1_555
C13_11 H6_11 1_555 1_555
C16_11 C10_11 1_555 1_555
C17_11 C18_11 1_555 1_555
C18_11 H7_11 1_555 1_555
C19_11 C18_11 1_555 1_555
C20_11 C17_11 1_555 1_555
H8_11 C20_11 1_555 1_555
C21_11 C19_11 1_555 1_555
H9_11 C21_11 1_555 1_555
C22_11 C20_11 1_555 1_555
C23_11 C22_11 1_555 1_555
C24_11 C19_11 1_555 1_555
C25_11 C26_11 1_555 1_555
C26_11 H10_11 1_555 1_555
C28_11 C25_11 1_555 1_555
H11_11 C28_11 1_555 1_555
O4_11 C8_11 1_555 1_555
O5_11 C8_11 1_555 1_555
O8_11 Zn1_7 1_555 1_555
O10_11 Mn3_4 1_555 1_555
O11_11 C12_11 1_555 1_555
O12_11 C12_11 1_555 1_555
O34_7 P3_11 1_555 1_555
O16_7 P3_11 1_555 1_555
O17_7 P3_11 1_555 1_555
O37_2 C24_11 1_555 1_555
O19_7 C24_11 1_555 1_555
O20_11 Zn1_7 1_555 1_555
O21_11 C23_11 1_555 1_555
O22_11 Zn12_7 1_555 1_555
O39 P4_11 1_555 1_555
O40 P4_11 1_555 1_555
O30_11 Mn6 1_555 1_555
Zn9_4 O17_7 1_555 1_555
Zn12_8 O19_7 1_555 1_555
Mn7_2 O16_7 1_555 1_555
O31_7 Zn1_7 1_555 1_555
O32_7 Mn3_4 1_555 1_555
O35_7 Mn6 1_555 1_555
O36_7 Zn10 1_555 1_555
O38_7 Zn12_7 1_555 1_555
P2_11 O8_11 1_555 1_555
P2_11 O10_11 1_555 1_555
P4_11 O22_11 1_555 1_555
C13_11 C16_11 1_555 1_555
C21_11 C22_11 1_555 1_555
C23_11 O20_11 1_555 1_555
O30_11 H15_11 1_555 1_555
O30_11 H16_11 1_555 1_555
Zn7_2 O2_11 1_555 1_555
Mn3_5 O3_11 1_555 1_555
P1_11 C1_11 1_555 1_555
C4_11 C1_11 1_555 1_555
H2_11 C4_11 1_555 1_555
H3_11 C5_11 1_555 1_555
C6_11 C4_11 1_555 1_555
C7_11 C6_11 1_555 1_555
H5_11 C11_11 1_555 1_555
C14_11 C11_11 1_555 1_555
C15_11 C14_11 1_555 1_555
O2_11 P1_11 1_555 1_555
O3_11 P1_11 1_555 1_555
O6_7 C7_11 1_555 1_555
O7_7 C7_11 1_555 1_555
O9_11 Zn7_2 1_555 1_555
O33_8 C15_11 1_555 1_555
O14_11 C15_11 1_555 1_555
Zn5_7 O6_7 1_555 1_555
Mn4_9 O7_7 1_555 1_555
C5_11 C6_11 1_555 1_555
C29_11 C27_11 1_555 1_555
H12_11 C29_11 1_555 1_555
C31_11 C30_11 1_555 1_555
C32_11 C27_11 1_555 1_555
O41_5 C32_11 1_555 1_555
O42_5 C32_11 1_555 1_555
O43_4 C31_11 1_555 1_555
O28_11 C31_11 1_555 1_555
C29_11 C30_11 1_555 1_555
O29_11 H14_11 1_555 1_555
P4_12 C25_12 1_555 1_555
C21_12 C19_12 1_555 1_555
H9_12 C21_12 1_555 1_555
C24_12 C19_12 1_555 1_555
C25_12 C26_12 1_555 1_555
C26_12 H10_12 1_555 1_555
C27_12 C26_12 1_555 1_555
C29_12 C27_12 1_555 1_555
H12_12 C29_12 1_555 1_555
C32_12 C27_12 1_555 1_555
O37_7 C24_12 1_555 1_555
O19_8 C24_12 1_555 1_555
O39_6 P4_12 1_555 1_555
O40_6 P4_12 1_555 1_555
O41_6 C32_12 1_555 1_555
O42_6 C32_12 1_555 1_555
O30_12 Mn7 1_555 1_555
Zn12 O19_8 1_555 1_555
O35_8 Mn7 1_555 1_555
O30_12 H16_12 1_555 1_555
Zn1_8 O1_12 1_555 1_555
Zn7_7 O2_12 1_555 1_555
Zn9_3 O12_12 1_555 1_555
Zn12_4 O4_12 1_555 1_555
Mn3_6 O3_12 1_555 1_555
P1_12 C1_12 1_555 1_555
P2_12 C9_12 1_555 1_555
C1_12 C2_12 1_555 1_555
C2_12 H1_12 1_555 1_555
C3_12 C2_12 1_555 1_555
C4_12 C1_12 1_555 1_555
H2_12 C4_12 1_555 1_555
C5_12 C3_12 1_555 1_555
H3_12 C5_12 1_555 1_555
C6_12 C4_12 1_555 1_555
C7_12 C6_12 1_555 1_555
C8_12 C3_12 1_555 1_555
C9_12 C10_12 1_555 1_555
C10_12 H4_12 1_555 1_555
C11_12 C9_12 1_555 1_555
H5_12 C11_12 1_555 1_555
C12_12 C16_12 1_555 1_555
C13_12 H6_12 1_555 1_555
C14_12 C11_12 1_555 1_555
C15_12 C14_12 1_555 1_555
C16_12 C10_12 1_555 1_555
C23_12 C22_12 1_555 1_555
H11_12 C28_12 1_555 1_555
C30_12 C28_12 1_555 1_555
C31_12 C30_12 1_555 1_555
O1_12 P1_12 1_555 1_555
O2_12 P1_12 1_555 1_555
O3_12 P1_12 1_555 1_555
O4_12 C8_12 1_555 1_555
O5_12 C8_12 1_555 1_555
O6_8 C7_12 1_555 1_555
O7_8 C7_12 1_555 1_555
O8_12 Zn1_8 1_555 1_555
O9_12 Zn7_7 1_555 1_555
O10_12 Mn3_6 1_555 1_555
O11_12 C12_12 1_555 1_555
O12_12 C12_12 1_555 1_555
O33 C15_12 1_555 1_555
O14_12 C15_12 1_555 1_555
O20_12 Zn1_8 1_555 1_555
O21_12 C23_12 1_555 1_555
O22_12 Zn12_4 1_555 1_555
O43_5 C31_12 1_555 1_555
O28_12 C31_12 1_555 1_555
O29_12 Mn3_6 1_555 1_555
Zn5_8 O6_8 1_555 1_555
Mn4_10 O7_8 1_555 1_555
O31_8 Zn1_8 1_555 1_555
O32_8 Mn3_6 1_555 1_555
O36_8 Zn9_3 1_555 1_555
O38_8 Zn12_4 1_555 1_555
P2_12 O8_12 1_555 1_555
P2_12 O9_12 1_555 1_555
P2_12 O10_12 1_555 1_555
C5_12 C6_12 1_555 1_555
C13_12 C14_12 1_555 1_555
C13_12 C16_12 1_555 1_555
C23_12 O20_12 1_555 1_555
O29_12 H13_10 1_555 1_555
O29_12 H14_12 1_555 1_555
P3_12 C17_12 1_555 1_555
C17_12 C18_12 1_555 1_555
C18_12 H7_12 1_555 1_555
O34_4 P3_12 1_555 1_555
O16_8 P3_12 1_555 1_555
Mn6_4 O16_8 1_555 1_555
H8_12 C20_12 1_555 1_555
Zn10_4 O17_8 1_555 1_555
Zn5_6 O1_13 1_555 1_555
Zn9_4 O12_13 1_555 1_555
Zn12 O4_13 1_555 1_555
Mn7_2 O11_13 1_555 1_555
P2_13 C9_13 1_555 1_555
P3_13 C17_13 1_555 1_555
P4_13 C25_13 1_555 1_555
C2_13 H1_13 1_555 1_555
C3_13 C2_13 1_555 1_555
C8_13 C3_13 1_555 1_555
C9_13 C10_13 1_555 1_555
C10_13 H4_13 1_555 1_555
C12_13 C16_13 1_555 1_555
C13_13 H6_13 1_555 1_555
C16_13 C10_13 1_555 1_555
C17_13 C18_13 1_555 1_555
C18_13 H7_13 1_555 1_555
C19_13 C18_13 1_555 1_555
C20_13 C17_13 1_555 1_555
H8_13 C20_13 1_555 1_555
C21_13 C19_13 1_555 1_555
H9_13 C21_13 1_555 1_555
C22_13 C20_13 1_555 1_555
C23_13 C22_13 1_555 1_555
C24_13 C19_13 1_555 1_555
C25_13 C26_13 1_555 1_555
C26_13 H10_13 1_555 1_555
C27_13 C26_13 1_555 1_555
C28_13 C25_13 1_555 1_555
H11_13 C28_13 1_555 1_555
C29_13 C27_13 1_555 1_555
H12_13 C29_13 1_555 1_555
C30_13 C28_13 1_555 1_555
C31_13 C30_13 1_555 1_555
C32_13 C27_13 1_555 1_555
O4_13 C8_13 1_555 1_555
O5_13 C8_13 1_555 1_555
O8_13 Zn5_6 1_555 1_555
O10_13 Mn4_7 1_555 1_555
O11_13 C12_13 1_555 1_555
O12_13 C12_13 1_555 1_555
O34 P3_13 1_555 1_555
O35_7 P3_13 1_555 1_555
O36_7 P3_13 1_555 1_555
O37_8 C24_13 1_555 1_555
O38_6 C24_13 1_555 1_555
O20_13 Zn5_6 1_555 1_555
O21_13 C23_13 1_555 1_555
O22_13 Zn12 1_555 1_555
O39_7 P4_13 1_555 1_555
O40_7 P4_13 1_555 1_555
O25_7 C32_13 1_555 1_555
O26_7 C32_13 1_555 1_555
O43_6 C31_13 1_555 1_555
O28_13 C31_13 1_555 1_555
O29_13 Mn4_7 1_555 1_555
O30_13 Mn7_2 1_555 1_555
Zn7_6 O26_7 1_555 1_555
Mn4_10 O25_7 1_555 1_555
P2_13 O8_13 1_555 1_555
P2_13 O10_13 1_555 1_555
P4_13 O22_13 1_555 1_555
C13_13 C16_13 1_555 1_555
C21_13 C22_13 1_555 1_555
C23_13 O20_13 1_555 1_555
C29_13 C30_13 1_555 1_555
O29_13 H14_13 1_555 1_555
O30_13 H15_13 1_555 1_555
O30_13 H16_13 1_555 1_555
Zn7_8 O2_13 1_555 1_555
Mn4_8 O3_13 1_555 1_555
P1_13 C1_13 1_555 1_555
C4_13 C1_13 1_555 1_555
H2_13 C4_13 1_555 1_555
H3_13 C5_13 1_555 1_555
C6_13 C4_13 1_555 1_555
C7_13 C6_13 1_555 1_555
H5_13 C11_13 1_555 1_555
C14_13 C11_13 1_555 1_555
C15_13 C14_13 1_555 1_555
O2_13 P1_13 1_555 1_555
O3_13 P1_13 1_555 1_555
O31_8 C7_13 1_555 1_555
O32_8 C7_13 1_555 1_555
O9_13 Zn7_8 1_555 1_555
O33_2 C15_13 1_555 1_555
O14_13 C15_13 1_555 1_555
O41_7 Mn4_8 1_555 1_555
O42_7 Zn7_8 1_555 1_555
C5_13 C6_13 1_555 1_555
P3_14 C17_14 1_555 1_555
C17_14 C18_14 1_555 1_555
C18_14 H7_14 1_555 1_555
O34_6 P3_14 1_555 1_555
O35_8 P3_14 1_555 1_555
H8_14 C20_14 1_555 1_555
C21_14 C19_14 1_555 1_555
H9_14 C21_14 1_555 1_555
C24_14 C19_14 1_555 1_555
O37 C24_14 1_555 1_555
O38_7 C24_14 1_555 1_555
O30_14 Mn6_4 1_555 1_555
O30_14 H16_14 1_555 1_555
Zn5_7 O1_14 1_555 1_555
Zn7 O2_14 1_555 1_555
Zn10_4 O12_14 1_555 1_555
Mn4_9 O3_14 1_555 1_555
P1_14 C1_14 1_555 1_555
P2_14 C9_14 1_555 1_555
C1_14 C2_14 1_555 1_555
C2_14 H1_14 1_555 1_555
C4_14 C1_14 1_555 1_555
H2_14 C4_14 1_555 1_555
C9_14 C10_14 1_555 1_555
C10_14 H4_14 1_555 1_555
C11_14 C9_14 1_555 1_555
H5_14 C11_14 1_555 1_555
C12_14 C16_14 1_555 1_555
C13_14 H6_14 1_555 1_555
C14_14 C11_14 1_555 1_555
C15_14 C14_14 1_555 1_555
C16_14 C10_14 1_555 1_555
C23_14 C22_14 1_555 1_555
O1_14 P1_14 1_555 1_555
O2_14 P1_14 1_555 1_555
O3_14 P1_14 1_555 1_555
O8_14 Zn5_7 1_555 1_555
O9_14 Zn7 1_555 1_555
O10_14 Mn4_9 1_555 1_555
O11_14 C12_14 1_555 1_555
O12_14 C12_14 1_555 1_555
O33_7 C15_14 1_555 1_555
O14_14 C15_14 1_555 1_555
O20_14 Zn5_7 1_555 1_555
O21_14 C23_14 1_555 1_555
O29_14 Mn4_9 1_555 1_555
O41_8 Mn4_9 1_555 1_555
O42_8 Zn7 1_555 1_555
P2_14 O8_14 1_555 1_555
P2_14 O9_14 1_555 1_555
P2_14 O10_14 1_555 1_555
C13_14 C14_14 1_555 1_555
C13_14 C16_14 1_555 1_555
C23_14 O20_14 1_555 1_555
O29_14 H13_12 1_555 1_555
O29_14 H14_14 1_555 1_555
P4_14 C25_14 1_555 1_555
C25_14 C26_14 1_555 1_555
C26_14 H10_14 1_555 1_555
C27_14 C26_14 1_555 1_555
C29_14 C27_14 1_555 1_555
H12_14 C29_14 1_555 1_555
C32_14 C27_14 1_555 1_555
O39_4 P4_14 1_555 1_555
O40_4 P4_14 1_555 1_555
O25_8 C32_14 1_555 1_555
O26_8 C32_14 1_555 1_555
Zn7_3 O26_8 1_555 1_555
Mn4_6 O25_8 1_555 1_555
Zn12_6 O4_14 1_555 1_555
C5_14 C3_14 1_555 1_555
H3_14 C5_14 1_555 1_555
C7_14 C6_14 1_555 1_555
C8_14 C3_14 1_555 1_555
H11_14 C28_14 1_555 1_555
C30_14 C28_14 1_555 1_555
C31_14 C30_14 1_555 1_555
O4_14 C8_14 1_555 1_555
O5_14 C8_14 1_555 1_555
O31_5 C7_14 1_555 1_555
O32_5 C7_14 1_555 1_555
O22_14 Zn12_6 1_555 1_555
O43_3 C31_14 1_555 1_555
O28_14 C31_14 1_555 1_555
C5_14 C6_14 1_555 1_555
Zn5_8 O1_15 1_555 1_555
Zn7_6 O2_15 1_555 1_555
Zn12_3 O4_15 1_555 1_555
Mn4_10 O3_15 1_555 1_555
P1_15 C1_15 1_555 1_555
P2_15 C9_15 1_555 1_555
P3_15 C17_15 1_555 1_555
P4_15 C25_15 1_555 1_555
C1_15 C2_15 1_555 1_555
C2_15 H1_15 1_555 1_555
C3_15 C2_15 1_555 1_555
C4_15 C1_15 1_555 1_555
H2_15 C4_15 1_555 1_555
C5_15 C3_15 1_555 1_555
H3_15 C5_15 1_555 1_555
C6_15 C4_15 1_555 1_555
C7_15 C6_15 1_555 1_555
C8_15 C3_15 1_555 1_555
C9_15 C10_15 1_555 1_555
C10_15 H4_15 1_555 1_555
C11_15 C9_15 1_555 1_555
H5_15 C11_15 1_555 1_555
C17_15 C18_15 1_555 1_555
C18_15 H7_15 1_555 1_555
C19_15 C18_15 1_555 1_555
C20_15 C17_15 1_555 1_555
H8_15 C20_15 1_555 1_555
C21_15 C19_15 1_555 1_555
H9_15 C21_15 1_555 1_555
C22_15 C20_15 1_555 1_555
C23_15 C22_15 1_555 1_555
C24_15 C19_15 1_555 1_555
C25_15 C26_15 1_555 1_555
C26_15 H10_15 1_555 1_555
C27_15 C26_15 1_555 1_555
C28_15 C25_15 1_555 1_555
H11_15 C28_15 1_555 1_555
C29_15 C27_15 1_555 1_555
H12_15 C29_15 1_555 1_555
C30_15 C28_15 1_555 1_555
C31_15 C30_15 1_555 1_555
C32_15 C27_15 1_555 1_555
O1_15 P1_15 1_555 1_555
O2_15 P1_15 1_555 1_555
O3_15 P1_15 1_555 1_555
O4_15 C8_15 1_555 1_555
O5_15 C8_15 1_555 1_555
O31_6 C7_15 1_555 1_555
O32_6 C7_15 1_555 1_555
O8_15 Zn5_8 1_555 1_555
O9_15 Zn7_6 1_555 1_555
O10_15 Mn4_10 1_555 1_555
O34_3 P3_15 1_555 1_555
O35_5 P3_15 1_555 1_555
O36_5 P3_15 1_555 1_555
O37_6 C24_15 1_555 1_555
O38_8 C24_15 1_555 1_555
O20_15 Zn5_8 1_555 1_555
O21_15 C23_15 1_555 1_555
O22_15 Zn12_3 1_555 1_555
O39_5 P4_15 1_555 1_555
O40_5 P4_15 1_555 1_555
O41_7 C32_15 1_555 1_555
O42_7 C32_15 1_555 1_555
O43_8 C31_15 1_555 1_555
O28_15 C31_15 1_555 1_555
O29_15 Mn4_10 1_555 1_555
P2_15 O8_15 1_555 1_555
P2_15 O9_15 1_555 1_555
P2_15 O10_15 1_555 1_555
P4_15 O22_15 1_555 1_555
C5_15 C6_15 1_555 1_555
C21_15 C22_15 1_555 1_555
C23_15 O20_15 1_555 1_555
C29_15 C30_15 1_555 1_555
O29_15 H13_13 1_555 1_555
O29_15 H14_15 1_555 1_555
O30_15 H15_15 1_555 1_555
O30_15 H16_15 1_555 1_555
Zn9_2 O12_15 1_555 1_555
Mn7_4 O11_15 1_555 1_555
C12_15 C16_15 1_555 1_555
C13_15 H6_15 1_555 1_555
C15_15 C14_15 1_555 1_555
O11_15 C12_15 1_555 1_555
O12_15 C12_15 1_555 1_555
O33_4 C15_15 1_555 1_555
O14_15 C15_15 1_555 1_555
C13_15 C14_15 1_555 1_555
C13_15 C16_15 1_555 1_555
Zn12_8 O4_16 1_555 1_555
P4_16 C25_16 1_555 1_555
C5_16 C3_16 1_555 1_555
H3_16 C5_16 1_555 1_555
C7_16 C6_16 1_555 1_555
C8_16 C3_16 1_555 1_555
C25_16 C26_16 1_555 1_555
C26_16 H10_16 1_555 1_555
C27_16 C26_16 1_555 1_555
C28_16 C25_16 1_555 1_555
H11_16 C28_16 1_555 1_555
C29_16 C27_16 1_555 1_555
H12_16 C29_16 1_555 1_555
C30_16 C28_16 1_555 1_555
C31_16 C30_16 1_555 1_555
C32_16 C27_16 1_555 1_555
O4_16 C8_16 1_555 1_555
O5_16 C8_16 1_555 1_555
O31_7 C7_16 1_555 1_555
O32_7 C7_16 1_555 1_555
O22_16 Zn12_8 1_555 1_555
O39_2 P4_16 1_555 1_555
O40_2 P4_16 1_555 1_555
O41_8 C32_16 1_555 1_555
O42_8 C32_16 1_555 1_555
O43 C31_16 1_555 1_555
O28_16 C31_16 1_555 1_555
P4_16 O22_16 1_555 1_555
C5_16 C6_16 1_555 1_555
C29_16 C30_16 1_555 1_555
Zn5_5 O1_16 1_555 1_555
Zn7_3 O2_16 1_555 1_555
Zn10_2 O12_16 1_555 1_555
Mn4_6 O3_16 1_555 1_555
Mn6_2 O11_16 1_555 1_555
P1_16 C1_16 1_555 1_555
P2_16 C9_16 1_555 1_555
P3_16 C17_16 1_555 1_555
C1_16 C2_16 1_555 1_555
C2_16 H1_16 1_555 1_555
C4_16 C1_16 1_555 1_555
H2_16 C4_16 1_555 1_555
C9_16 C10_16 1_555 1_555
C10_16 H4_16 1_555 1_555
C11_16 C9_16 1_555 1_555
H5_16 C11_16 1_555 1_555
C12_16 C16_16 1_555 1_555
C13_16 H6_16 1_555 1_555
C14_16 C11_16 1_555 1_555
C15_16 C14_16 1_555 1_555
C16_16 C10_16 1_555 1_555
C17_16 C18_16 1_555 1_555
C18_16 H7_16 1_555 1_555
C19_16 C18_16 1_555 1_555
C20_16 C17_16 1_555 1_555
H8_16 C20_16 1_555 1_555
C21_16 C19_16 1_555 1_555
H9_16 C21_16 1_555 1_555
C22_16 C20_16 1_555 1_555
C23_16 C22_16 1_555 1_555
C24_16 C19_16 1_555 1_555
O1_16 P1_16 1_555 1_555
O2_16 P1_16 1_555 1_555
O3_16 P1_16 1_555 1_555
O8_16 Zn5_5 1_555 1_555
O9_16 Zn7_3 1_555 1_555
O10_16 Mn4_6 1_555 1_555
O11_16 C12_16 1_555 1_555
O12_16 C12_16 1_555 1_555
O33_5 C15_16 1_555 1_555
O14_16 C15_16 1_555 1_555
O34_8 P3_16 1_555 1_555
O35_6 P3_16 1_555 1_555
O36_6 P3_16 1_555 1_555
O37_3 C24_16 1_555 1_555
O38_5 C24_16 1_555 1_555
O20_16 Zn5_5 1_555 1_555
O21_16 C23_16 1_555 1_555
O29_16 Mn4_6 1_555 1_555
O30_16 Mn6_2 1_555 1_555
P2_16 O8_16 1_555 1_555
P2_16 O9_16 1_555 1_555
P2_16 O10_16 1_555 1_555
C13_16 C14_16 1_555 1_555
C13_16 C16_16 1_555 1_555
C21_16 C22_16 1_555 1_555
C23_16 O20_16 1_555 1_555
O29_16 H13_14 1_555 1_555
O29_16 H14_16 1_555 1_555
O30_16 H15_16 1_555 1_555
O30_16 H16_16 1_555 1_555

#END
