
###############################################################################
#
# This file contains modified crystal structure data generated from the
# MOF subset of the Cambridge Structural Database (CSD) v543 
# hosted by the Cambridge Crystallographic Data Centre (CCDC).
#
# This work is licensed under the Creative Commons
# Attribution-NonCommercial-ShareAlike 4.0 International License.
# To view a copy of this license, visit
# http://creativecommons.org/licenses/by-nc-sa/4.0/
# or send a letter to
# Creative Commons, PO Box 1866, Mountain View, CA 94042, USA.
#
# CIF created using the CSD Python API on 29 September 2022
# The structure has been converted into the P1 space group
# The structure has a 3D framework
# The original CSD entry AZUJAJ is in the tetragonal crystal system
# The framework has been calculated to contain at least 10.0% void space
# The void calculation uses a probe of radius 1.32A, grid spacing 0.4
#
###############################################################################

data_AZUJAJ
_chemical_formula_moiety         '(C128 H48 Cu4 O112 P16 Zn16)n'
_symmetry_cell_setting           triclinic
_symmetry_space_group_name_H-M   'P 1'
_symmetry_Int_Tables_number      1
_space_group_name_Hall           'P 1'
loop_
_symmetry_equiv_pos_site_id
_symmetry_equiv_pos_as_xyz
1 x,y,z
_cell_length_a                   18.458(3)
_cell_length_b                   18.458(3)
_cell_length_c                   23.142(5)
_cell_angle_alpha                90
_cell_angle_beta                 90
_cell_angle_gamma                90
_cell_volume                     7884.43
loop_
_atom_site_label
_atom_site_type_symbol
_atom_site_fract_x
_atom_site_fract_y
_atom_site_fract_z
Zn1 Zn 0.22440(7) 0.22695(7) 0.02758(5)
Cu1 Cu 0.37248(10) 0.250000 0.125000
P1 P 0.24203(16) 0.35716(14) 0.10562(9)
C1 C 0.2262(6) 0.5660(5) 0.0486(3)
C2 C 0.2308(6) 0.4921(6) 0.0505(3)
H1 H 0.233381 0.466989 0.015728
C3 C 0.2319(6) 0.4532(5) 0.1008(3)
C4 C 0.2268(6) 0.4931(6) 0.1540(3)
H2 H 0.226206 0.468229 0.188953
C5 C 0.2226(6) 0.5681(5) 0.1541(3)
C6 C 0.2195(6) 0.6046(6) 0.1008(4)
H3 H 0.213066 0.654597 0.100001
C8 C 0.2177(6) 0.6094(6) 0.2084(3)
O1 O 0.3223(4) 0.3403(4) 0.1119(3)
O2 O 0.2000(4) 0.3331(4) 0.1581(3)
O3 O 0.2112(4) 0.3274(4) 0.0490(3)
O6 O 0.2110(5) 0.6786(4) 0.2034(3)
O7 O 0.2277(6) 0.5783(5) 0.2542(3)
C15 C 0.6074(6) 0.7758(7) 0.0068(3)
O11 O 0.5708(4) 0.7614(4) 0.0537(2)
O12 O 0.6729(4) 0.7859(5) 0.0056(3)
Zn3 Zn 0.77560(7) 0.77305(7) 0.02758(5)
Zn6 Zn 0.22440(7) 0.27305(7) 0.22242(5)
Zn7 Zn 0.22695(7) 0.72440(7) 0.27758(5)
Cu2 Cu 0.62752(10) 0.750000 0.125000
O15 O 0.3223(4) 0.1597(4) 0.1381(3)
O17 O 0.2000(4) 0.1669(4) 0.0919(3)
O18 O 0.4292(4) 0.2386(4) 0.0537(2)
O19 O 0.4292(4) 0.2614(4) 0.1963(2)
O20 O 0.3271(4) 0.2141(5) 0.0056(3)
O22 O 0.2110(5) 0.8214(4) 0.0466(3)
C7 C 0.2242(7) 0.6074(6) 0.9932(3)
O4 O 0.2386(4) 0.5708(4) 0.9463(2)
O5 O 0.2141(5) 0.6729(4) 0.9944(3)
Zn2 Zn 0.22695(7) 0.77560(7) 0.97242(5)
P2 P 0.35716(14) 0.75797(16) 0.89438(9)
C9 C 0.5660(5) 0.7738(6) 0.9514(3)
C10 C 0.4921(6) 0.7692(6) 0.9495(3)
H4 H 0.466989 0.766619 0.984272
C11 C 0.4532(5) 0.7681(6) 0.8992(3)
C12 C 0.4931(6) 0.7732(6) 0.8460(3)
H5 H 0.468229 0.773794 0.811047
C13 C 0.5681(5) 0.7774(6) 0.8459(3)
C14 C 0.6046(6) 0.7805(6) 0.8992(4)
H6 H 0.654597 0.786934 0.899999
C16 C 0.6094(6) 0.7823(6) 0.7916(3)
O8 O 0.3403(4) 0.6777(4) 0.8881(3)
O9 O 0.3331(4) 0.8000(4) 0.8419(3)
O10 O 0.3274(4) 0.7888(4) 0.9510(3)
O13 O 0.6786(4) 0.7890(5) 0.7966(3)
O14 O 0.5783(5) 0.7723(6) 0.7458(3)
Zn4 Zn 0.72440(7) 0.77305(7) 0.72242(5)
Zn5 Zn 0.27305(7) 0.77560(7) 0.77758(5)
Cu3 Cu 0.250000 0.62752(10) 0.875000
O16 O 0.1669(4) 0.8000(4) 0.9081(3)
O21 O 0.1786(4) 0.2110(5) 0.9534(3)
P1_2 P 0.75797(16) 0.64284(14) 0.10562(9)
C1_2 C 0.7738(6) 0.4340(5) 0.0486(3)
C2_2 C 0.7692(6) 0.5079(6) 0.0505(3)
H1_2 H 0.766619 0.533011 0.015728
C3_2 C 0.7681(6) 0.5468(5) 0.1008(3)
C4_2 C 0.7732(6) 0.5069(6) 0.1540(3)
H2_2 H 0.773794 0.531771 0.188953
C5_2 C 0.7774(6) 0.4319(5) 0.1541(3)
C6_2 C 0.7805(6) 0.3954(6) 0.1008(4)
H3_2 H 0.786934 0.345403 0.100001
C8_2 C 0.7823(6) 0.3906(6) 0.2084(3)
O1_2 O 0.6777(4) 0.6597(4) 0.1119(3)
O2_2 O 0.8000(4) 0.6669(4) 0.1581(3)
O3_2 O 0.7888(4) 0.6726(4) 0.0490(3)
O6_2 O 0.7890(5) 0.3214(4) 0.2034(3)
O7_2 O 0.7723(6) 0.4217(5) 0.2542(3)
C15_2 C 0.3926(6) 0.2242(7) 0.0068(3)
Zn6_2 Zn 0.77560(7) 0.72695(7) 0.22242(5)
Zn7_2 Zn 0.77305(7) 0.27560(7) 0.27758(5)
O15_2 O 0.6777(4) 0.8403(4) 0.1381(3)
O17_2 O 0.8000(4) 0.8331(4) 0.0919(3)
O19_2 O 0.5708(4) 0.7386(4) 0.1963(2)
O22_2 O 0.7890(5) 0.1786(4) 0.0466(3)
C7_2 C 0.7758(7) 0.3926(6) 0.9932(3)
O4_2 O 0.7614(4) 0.4292(4) 0.9463(2)
O5_2 O 0.7859(5) 0.3271(4) 0.9944(3)
Zn2_2 Zn 0.77305(7) 0.22440(7) 0.97242(5)
P2_2 P 0.64284(14) 0.24203(16) 0.89438(9)
C9_2 C 0.4340(5) 0.2262(6) 0.9514(3)
C10_2 C 0.5079(6) 0.2308(6) 0.9495(3)
H4_2 H 0.533011 0.233381 0.984272
C11_2 C 0.5468(5) 0.2319(6) 0.8992(3)
C12_2 C 0.5069(6) 0.2268(6) 0.8460(3)
H5_2 H 0.531771 0.226206 0.811047
C13_2 C 0.4319(5) 0.2226(6) 0.8459(3)
C14_2 C 0.3954(6) 0.2195(6) 0.8992(4)
H6_2 H 0.345403 0.213066 0.899999
C16_2 C 0.3906(6) 0.2177(6) 0.7916(3)
O8_2 O 0.6597(4) 0.3223(4) 0.8881(3)
O9_2 O 0.6669(4) 0.2000(4) 0.8419(3)
O10_2 O 0.6726(4) 0.2112(4) 0.9510(3)
O13_2 O 0.3214(4) 0.2110(5) 0.7966(3)
O14_2 O 0.4217(5) 0.2277(6) 0.7458(3)
Zn4_2 Zn 0.27560(7) 0.22695(7) 0.72242(5)
Zn5_2 Zn 0.72695(7) 0.22440(7) 0.77758(5)
Cu3_2 Cu 0.750000 0.37248(10) 0.875000
O16_2 O 0.8331(4) 0.2000(4) 0.9081(3)
O21_2 O 0.8214(4) 0.7890(5) 0.9534(3)
O15_3 O 0.1597(4) 0.6777(4) 0.8619(3)
O19_3 O 0.2614(4) 0.5708(4) 0.8037(2)
O15_4 O 0.8403(4) 0.3223(4) 0.8619(3)
O19_4 O 0.7386(4) 0.4292(4) 0.8037(2)
Cu1_2 Cu 0.12752(10) 0.250000 0.625000
P1_3 P 0.25797(16) 0.35716(14) 0.64438(9)
C1_3 C 0.2738(6) 0.5660(5) 0.7014(3)
C2_3 C 0.2692(6) 0.4921(6) 0.6995(3)
H1_3 H 0.266619 0.466989 0.734272
C3_3 C 0.2681(6) 0.4532(5) 0.6492(3)
C4_3 C 0.2732(6) 0.4931(6) 0.5960(3)
H2_3 H 0.273794 0.468229 0.561047
C5_3 C 0.2774(6) 0.5681(5) 0.5959(3)
C6_3 C 0.2805(6) 0.6046(6) 0.6492(4)
H3_3 H 0.286934 0.654597 0.649999
C7_3 C 0.2758(7) 0.6074(6) 0.7568(3)
C8_3 C 0.2823(6) 0.6094(6) 0.5416(3)
O1_3 O 0.1777(4) 0.3403(4) 0.6381(3)
O2_3 O 0.3000(4) 0.3331(4) 0.5919(3)
O3_3 O 0.2888(4) 0.3274(4) 0.7010(3)
O5_3 O 0.2859(5) 0.6729(4) 0.7556(3)
O6_3 O 0.2890(5) 0.6786(4) 0.5466(3)
O7_3 O 0.2723(6) 0.5783(5) 0.4958(3)
P2_3 P 0.14284(14) 0.75797(16) 0.85562(9)
C10_3 C 0.0079(6) 0.7692(6) 0.8005(3)
H4_3 H 0.033011 0.766619 0.765728
C11_3 C 0.0468(5) 0.7681(6) 0.8508(3)
C12_3 C 0.0069(6) 0.7732(6) 0.9040(3)
H5_3 H 0.031771 0.773794 0.938953
O10_3 O 0.1726(4) 0.7888(4) 0.7990(3)
Zn6_3 Zn 0.27560(7) 0.27305(7) 0.52758(5)
Zn7_3 Zn 0.27305(7) 0.72440(7) 0.47242(5)
O15_5 O 0.1777(4) 0.1597(4) 0.6119(3)
O17_3 O 0.3000(4) 0.1669(4) 0.6581(3)
O18_2 O 0.0708(4) 0.2386(4) 0.6963(2)
O19_5 O 0.0708(4) 0.2614(4) 0.5537(2)
O20_2 O 0.1729(4) 0.2141(5) 0.7444(3)
O22_3 O 0.2890(5) 0.8214(4) 0.7034(3)
O14_3 O 0.9217(5) 0.7723(6) 0.0042(3)
C9_3 C 0.9340(5) 0.7738(6) 0.7986(3)
C13_3 C 0.9319(5) 0.7774(6) 0.9041(3)
C14_3 C 0.8954(6) 0.7805(6) 0.8508(4)
H6_3 H 0.845403 0.786934 0.850001
C15_3 C 0.8926(6) 0.7758(7) 0.7432(3)
C16_3 C 0.8906(6) 0.7823(6) 0.9584(3)
O11_2 O 0.9292(4) 0.7614(4) 0.6963(2)
O12_2 O 0.8271(4) 0.7859(5) 0.7444(3)
Cu2_2 Cu 0.87248(10) 0.750000 0.625000
O14_4 O 0.0783(5) 0.2277(6) 0.0042(3)
C9_4 C 0.0660(5) 0.2262(6) 0.7986(3)
C13_4 C 0.0681(5) 0.2226(6) 0.9041(3)
C14_4 C 0.1046(6) 0.2195(6) 0.8508(4)
H6_4 H 0.154597 0.213066 0.850001
C15_4 C 0.1074(6) 0.2242(7) 0.7432(3)
C16_4 C 0.1094(6) 0.2177(6) 0.9584(3)
P1_4 P 0.74203(16) 0.64284(14) 0.64438(9)
C1_4 C 0.7262(6) 0.4340(5) 0.7014(3)
C2_4 C 0.7308(6) 0.5079(6) 0.6995(3)
H1_4 H 0.733381 0.533011 0.734272
C3_4 C 0.7319(6) 0.5468(5) 0.6492(3)
C4_4 C 0.7268(6) 0.5069(6) 0.5960(3)
H2_4 H 0.726206 0.531771 0.561047
C5_4 C 0.7226(6) 0.4319(5) 0.5959(3)
C6_4 C 0.7195(6) 0.3954(6) 0.6492(4)
H3_4 H 0.713066 0.345403 0.649999
C7_4 C 0.7242(7) 0.3926(6) 0.7568(3)
C8_4 C 0.7177(6) 0.3906(6) 0.5416(3)
O1_4 O 0.8223(4) 0.6597(4) 0.6381(3)
O2_4 O 0.7000(4) 0.6669(4) 0.5919(3)
O3_4 O 0.7112(4) 0.6726(4) 0.7010(3)
O5_4 O 0.7141(5) 0.3271(4) 0.7556(3)
O6_4 O 0.7110(5) 0.3214(4) 0.5466(3)
O7_4 O 0.7277(6) 0.4217(5) 0.4958(3)
P2_4 P 0.85716(14) 0.24203(16) 0.85562(9)
C10_4 C 0.9921(6) 0.2308(6) 0.8005(3)
H4_4 H 0.966989 0.233381 0.765728
C11_4 C 0.9532(5) 0.2319(6) 0.8508(3)
C12_4 C 0.9931(6) 0.2268(6) 0.9040(3)
H5_4 H 0.968229 0.226206 0.938953
O10_4 O 0.8274(4) 0.2112(4) 0.7990(3)
Zn6_4 Zn 0.72440(7) 0.72695(7) 0.52758(5)
Zn7_4 Zn 0.72695(7) 0.27560(7) 0.47242(5)
O15_6 O 0.8223(4) 0.8403(4) 0.6119(3)
O17_4 O 0.7000(4) 0.8331(4) 0.6581(3)
O19_6 O 0.9292(4) 0.7386(4) 0.5537(2)
O22_4 O 0.7110(5) 0.1786(4) 0.7034(3)
C9_5 C 0.0660(5) 0.2738(6) 0.4514(3)
C13_5 C 0.0681(5) 0.2774(6) 0.3459(3)
C14_5 C 0.1046(6) 0.2805(6) 0.3992(4)
H6_5 H 0.154597 0.286934 0.399999
C15_5 C 0.1074(6) 0.2758(7) 0.5068(3)
C16_5 C 0.1094(6) 0.2823(6) 0.2916(3)
O12_3 O 0.1729(4) 0.2859(5) 0.5056(3)
O13_3 O 0.1786(4) 0.2890(5) 0.2966(3)
O14_5 O 0.0783(5) 0.2723(6) 0.2458(3)
C1_5 C 0.7262(6) 0.0660(5) 0.5486(3)
C5_5 C 0.7226(6) 0.0681(5) 0.6541(3)
C6_5 C 0.7195(6) 0.1046(6) 0.6008(4)
H3_5 H 0.713066 0.154597 0.600001
C7_5 C 0.7242(7) 0.1074(6) 0.4932(3)
C8_5 C 0.7177(6) 0.1094(6) 0.7084(3)
O4_3 O 0.7386(4) 0.0708(4) 0.4463(2)
O5_5 O 0.7141(5) 0.1729(4) 0.4944(3)
O7_5 O 0.7277(6) 0.0783(5) 0.7542(3)
P2_5 P 0.85716(14) 0.25797(16) 0.39438(9)
C10_5 C 0.9921(6) 0.2692(6) 0.4495(3)
H4_5 H 0.966989 0.266619 0.484272
C11_5 C 0.9532(5) 0.2681(6) 0.3992(3)
C12_5 C 0.9931(6) 0.2732(6) 0.3460(3)
H5_5 H 0.968229 0.273794 0.311047
O8_3 O 0.8403(4) 0.1777(4) 0.3881(3)
O9_3 O 0.8331(4) 0.3000(4) 0.3419(3)
O10_5 O 0.8274(4) 0.2888(4) 0.4510(3)
Cu3_3 Cu 0.750000 0.12752(10) 0.375000
O16_3 O 0.6669(4) 0.3000(4) 0.4081(3)
P1_5 P 0.74203(16) 0.85716(14) 0.60562(9)
C2_5 C 0.7308(6) 0.9921(6) 0.5505(3)
H1_5 H 0.733381 0.966989 0.515728
C3_5 C 0.7319(6) 0.9532(5) 0.6008(3)
C4_5 C 0.7268(6) 0.9931(6) 0.6540(3)
H2_5 H 0.726206 0.968229 0.688953
O3_5 O 0.7112(4) 0.8274(4) 0.5490(3)
O20_3 O 0.8271(4) 0.7141(5) 0.5056(3)
O21_3 O 0.6786(4) 0.7110(5) 0.4534(3)
P1_6 P 0.25797(16) 0.14284(14) 0.60562(9)
C2_6 C 0.2692(6) 0.0079(6) 0.5505(3)
H1_6 H 0.266619 0.033011 0.515728
C3_6 C 0.2681(6) 0.0468(5) 0.6008(3)
C4_6 C 0.2732(6) 0.0069(6) 0.6540(3)
H2_6 H 0.273794 0.031771 0.688953
O3_6 O 0.2888(4) 0.1726(4) 0.5490(3)
O21_4 O 0.3214(4) 0.2890(5) 0.4534(3)
C1_6 C 0.2738(6) 0.9340(5) 0.5486(3)
C5_6 C 0.2774(6) 0.9319(5) 0.6541(3)
C6_6 C 0.2805(6) 0.8954(6) 0.6008(4)
H3_6 H 0.286934 0.845403 0.600001
C7_6 C 0.2758(7) 0.8926(6) 0.4932(3)
C8_6 C 0.2823(6) 0.8906(6) 0.7084(3)
O4_4 O 0.2614(4) 0.9292(4) 0.4463(2)
O5_6 O 0.2859(5) 0.8271(4) 0.4944(3)
O7_6 O 0.2723(6) 0.9217(5) 0.7542(3)
P2_6 P 0.14284(14) 0.74203(16) 0.39438(9)
C10_6 C 0.0079(6) 0.7308(6) 0.4495(3)
H4_6 H 0.033011 0.733381 0.484272
C11_6 C 0.0468(5) 0.7319(6) 0.3992(3)
C12_6 C 0.0069(6) 0.7268(6) 0.3460(3)
H5_6 H 0.031771 0.726206 0.311047
O8_4 O 0.1597(4) 0.8223(4) 0.3881(3)
O9_4 O 0.1669(4) 0.7000(4) 0.3419(3)
O10_6 O 0.1726(4) 0.7112(4) 0.4510(3)
Cu3_4 Cu 0.250000 0.87248(10) 0.375000
O16_4 O 0.3331(4) 0.7000(4) 0.4081(3)
C9_6 C 0.9340(5) 0.7262(6) 0.4514(3)
C13_6 C 0.9319(5) 0.7226(6) 0.3459(3)
C14_6 C 0.8954(6) 0.7195(6) 0.3992(4)
H6_6 H 0.845403 0.713066 0.399999
C15_6 C 0.8926(6) 0.7242(7) 0.5068(3)
C16_6 C 0.8906(6) 0.7177(6) 0.2916(3)
O13_4 O 0.8214(4) 0.7110(5) 0.2966(3)
O14_6 O 0.9217(5) 0.7277(6) 0.2458(3)
O15_7 O 0.6597(4) 0.1777(4) 0.3619(3)
O19_7 O 0.7614(4) 0.0708(4) 0.3037(2)
O15_8 O 0.3403(4) 0.8223(4) 0.3619(3)
O19_8 O 0.2386(4) 0.9292(4) 0.3037(2)
C1_7 C 0.7738(6) 0.0660(5) 0.2014(3)
C5_7 C 0.7774(6) 0.0681(5) 0.0959(3)
C6_7 C 0.7805(6) 0.1046(6) 0.1492(4)
H3_7 H 0.786934 0.154597 0.149999
C7_7 C 0.7758(7) 0.1074(6) 0.2568(3)
C8_7 C 0.7823(6) 0.1094(6) 0.0416(3)
O5_7 O 0.7859(5) 0.1729(4) 0.2556(3)
P2_7 P 0.64284(14) 0.25797(16) 0.35562(9)
C9_7 C 0.4340(5) 0.2738(6) 0.2986(3)
C10_7 C 0.5079(6) 0.2692(6) 0.3005(3)
H4_7 H 0.533011 0.266619 0.265728
C11_7 C 0.5468(5) 0.2681(6) 0.3508(3)
C12_7 C 0.5069(6) 0.2732(6) 0.4040(3)
H5_7 H 0.531771 0.273794 0.438953
C13_7 C 0.4319(5) 0.2774(6) 0.4041(3)
C14_7 C 0.3954(6) 0.2805(6) 0.3508(4)
H6_7 H 0.345403 0.286934 0.350001
C15_7 C 0.3926(6) 0.2758(7) 0.2432(3)
C16_7 C 0.3906(6) 0.2823(6) 0.4584(3)
O10_7 O 0.6726(4) 0.2888(4) 0.2990(3)
O12_4 O 0.3271(4) 0.2859(5) 0.2444(3)
O14_7 O 0.4217(5) 0.2723(6) 0.5042(3)
O7_7 O 0.7723(6) 0.0783(5) 0.9958(3)
P1_7 P 0.75797(16) 0.85716(14) 0.14438(9)
C2_7 C 0.7692(6) 0.9921(6) 0.1995(3)
H1_7 H 0.766619 0.966989 0.234272
C3_7 C 0.7681(6) 0.9532(5) 0.1492(3)
C4_7 C 0.7732(6) 0.9931(6) 0.0960(3)
H2_7 H 0.773794 0.968229 0.061047
O3_7 O 0.7888(4) 0.8274(4) 0.2010(3)
O20_4 O 0.6729(4) 0.7141(5) 0.2444(3)
P1_8 P 0.24203(16) 0.14284(14) 0.14438(9)
C2_8 C 0.2308(6) 0.0079(6) 0.1995(3)
H1_8 H 0.233381 0.033011 0.234272
C3_8 C 0.2319(6) 0.0468(5) 0.1492(3)
C4_8 C 0.2268(6) 0.0069(6) 0.0960(3)
H2_8 H 0.226206 0.031771 0.061047
O3_8 O 0.2112(4) 0.1726(4) 0.2010(3)
C1_8 C 0.2262(6) 0.9340(5) 0.2014(3)
C5_8 C 0.2226(6) 0.9319(5) 0.0959(3)
C6_8 C 0.2195(6) 0.8954(6) 0.1492(4)
H3_8 H 0.213066 0.845403 0.149999
C7_8 C 0.2242(7) 0.8926(6) 0.2568(3)
C8_8 C 0.2177(6) 0.8906(6) 0.0416(3)
O5_8 O 0.2141(5) 0.8271(4) 0.2556(3)
P2_8 P 0.35716(14) 0.74203(16) 0.35562(9)
C9_8 C 0.5660(5) 0.7262(6) 0.2986(3)
C10_8 C 0.4921(6) 0.7308(6) 0.3005(3)
H4_8 H 0.466989 0.733381 0.265728
C11_8 C 0.4532(5) 0.7319(6) 0.3508(3)
C12_8 C 0.4931(6) 0.7268(6) 0.4040(3)
H5_8 H 0.468229 0.726206 0.438953
C13_8 C 0.5681(5) 0.7226(6) 0.4041(3)
C14_8 C 0.6046(6) 0.7195(6) 0.3508(4)
H6_8 H 0.654597 0.713066 0.350001
C15_8 C 0.6074(6) 0.7242(7) 0.2432(3)
C16_8 C 0.6094(6) 0.7177(6) 0.4584(3)
O10_8 O 0.3274(4) 0.7112(4) 0.2990(3)
O14_8 O 0.5783(5) 0.7277(6) 0.5042(3)
O7_8 O 0.2277(6) 0.9217(5) 0.9958(3)
loop_
_geom_bond_atom_site_label_1
_geom_bond_atom_site_label_2
_geom_bond_site_symmetry_1
_geom_bond_site_symmetry_2
Zn1 O3 1_555 1_555
Cu1 O1 1_555 1_555
P1 C3 1_555 1_555
C1 C2 1_555 1_555
C2 H1 1_555 1_555
C3 C2 1_555 1_555
C4 C3 1_555 1_555
H2 C4 1_555 1_555
C5 C4 1_555 1_555
C6 C1 1_555 1_555
H3 C6 1_555 1_555
C8 C5 1_555 1_555
O1 P1 1_555 1_555
O2 P1 1_555 1_555
O3 P1 1_555 1_555
O6 C8 1_555 1_555
O7 C8 1_555 1_555
O11 C15 1_555 1_555
O12 C15 1_555 1_555
Zn3 O12 1_555 1_555
Zn6 O2 1_555 1_555
Zn7 O6 1_555 1_555
Cu2 O11 1_555 1_555
O15 Cu1 1_555 1_555
O17 Zn1 1_555 1_555
O18 Cu1 1_555 1_555
O19 Cu1 1_555 1_555
O20 Zn1 1_555 1_555
C5 C6 1_555 1_555
O4 C7 1_555 1_555
O5 C7 1_555 1_555
Zn2 O5 1_555 1_555
P2 C11 1_555 1_555
C9 C10 1_555 1_555
C10 H4 1_555 1_555
C11 C10 1_555 1_555
C12 C11 1_555 1_555
H5 C12 1_555 1_555
C13 C12 1_555 1_555
C14 C9 1_555 1_555
H6 C14 1_555 1_555
C16 C13 1_555 1_555
O8 P2 1_555 1_555
O9 P2 1_555 1_555
O10 Zn2 1_555 1_555
O13 C16 1_555 1_555
O14 C16 1_555 1_555
Zn4 O13 1_555 1_555
Zn5 O9 1_555 1_555
Cu3 O4 1_555 1_555
O16 Zn2 1_555 1_555
P2 O10 1_555 1_555
C13 C14 1_555 1_555
O8 Cu3 1_555 1_555
Zn3 O3_2 1_555 1_555
Cu2 O1_2 1_555 1_555
P1_2 C3_2 1_555 1_555
C1_2 C2_2 1_555 1_555
C2_2 H1_2 1_555 1_555
C3_2 C2_2 1_555 1_555
C4_2 C3_2 1_555 1_555
H2_2 C4_2 1_555 1_555
C5_2 C4_2 1_555 1_555
C6_2 C1_2 1_555 1_555
H3_2 C6_2 1_555 1_555
C8_2 C5_2 1_555 1_555
O1_2 P1_2 1_555 1_555
O2_2 P1_2 1_555 1_555
O3_2 P1_2 1_555 1_555
O6_2 C8_2 1_555 1_555
O7_2 C8_2 1_555 1_555
O18 C15_2 1_555 1_555
O20 C15_2 1_555 1_555
Zn6_2 O2_2 1_555 1_555
Zn7_2 O6_2 1_555 1_555
O15_2 Cu2 1_555 1_555
O17_2 Zn3 1_555 1_555
O19_2 Cu2 1_555 1_555
C5_2 C6_2 1_555 1_555
O4_2 C7_2 1_555 1_555
O5_2 C7_2 1_555 1_555
Zn2_2 O5_2 1_555 1_555
P2_2 C11_2 1_555 1_555
C9_2 C10_2 1_555 1_555
C10_2 H4_2 1_555 1_555
C11_2 C10_2 1_555 1_555
C12_2 C11_2 1_555 1_555
H5_2 C12_2 1_555 1_555
C13_2 C12_2 1_555 1_555
C14_2 C9_2 1_555 1_555
H6_2 C14_2 1_555 1_555
C16_2 C13_2 1_555 1_555
O8_2 P2_2 1_555 1_555
O9_2 P2_2 1_555 1_555
O10_2 Zn2_2 1_555 1_555
O13_2 C16_2 1_555 1_555
O14_2 C16_2 1_555 1_555
Zn4_2 O13_2 1_555 1_555
Zn5_2 O9_2 1_555 1_555
Cu3_2 O4_2 1_555 1_555
O16_2 Zn2_2 1_555 1_555
P2_2 O10_2 1_555 1_555
C13_2 C14_2 1_555 1_555
O8_2 Cu3_2 1_555 1_555
O15_3 Cu3 1_555 1_555
O19_3 Cu3 1_555 1_555
O15_4 Cu3_2 1_555 1_555
O19_4 Cu3_2 1_555 1_555
Zn4_2 O3_3 1_555 1_555
Cu1_2 O1_3 1_555 1_555
P1_3 C3_3 1_555 1_555
C1_3 C2_3 1_555 1_555
C2_3 H1_3 1_555 1_555
C3_3 C2_3 1_555 1_555
C4_3 C3_3 1_555 1_555
H2_3 C4_3 1_555 1_555
C5_3 C4_3 1_555 1_555
C6_3 C1_3 1_555 1_555
H3_3 C6_3 1_555 1_555
C7_3 C1_3 1_555 1_555
C8_3 C5_3 1_555 1_555
O1_3 P1_3 1_555 1_555
O2_3 P1_3 1_555 1_555
O3_3 P1_3 1_555 1_555
O19_3 C7_3 1_555 1_555
O5_3 C7_3 1_555 1_555
O6_3 C8_3 1_555 1_555
O7_3 C8_3 1_555 1_555
Zn5 O5_3 1_555 1_555
P2_3 C11_3 1_555 1_555
C10_3 H4_3 1_555 1_555
C11_3 C10_3 1_555 1_555
C12_3 C11_3 1_555 1_555
H5_3 C12_3 1_555 1_555
O15_3 P2_3 1_555 1_555
O16 P2_3 1_555 1_555
O10_3 Zn5 1_555 1_555
Zn6_3 O2_3 1_555 1_555
Zn7_3 O6_3 1_555 1_555
O15_5 Cu1_2 1_555 1_555
O17_3 Zn4_2 1_555 1_555
O18_2 Cu1_2 1_555 1_555
O19_5 Cu1_2 1_555 1_555
O20_2 Zn4_2 1_555 1_555
O22_3 Zn5 1_555 1_555
C5_3 C6_3 1_555 1_555
P2_3 O10_3 1_555 1_555
C14_3 C9_3 1_555 1_555
H6_3 C14_3 1_555 1_555
C15_3 C9_3 1_555 1_555
C16_3 C13_3 1_555 1_555
O11_2 C15_3 1_555 1_555
O12_2 C15_3 1_555 1_555
O21_2 C16_3 1_555 1_555
Zn4 O12_2 1_555 1_555
Cu2_2 O11_2 1_555 1_555
C13_3 C14_3 1_555 1_555
C14_4 C9_4 1_555 1_555
H6_4 C14_4 1_555 1_555
C15_4 C9_4 1_555 1_555
C16_4 C13_4 1_555 1_555
O18_2 C15_4 1_555 1_555
O20_2 C15_4 1_555 1_555
O21 C16_4 1_555 1_555
C13_4 C14_4 1_555 1_555
Zn4 O3_4 1_555 1_555
Cu2_2 O1_4 1_555 1_555
P1_4 C3_4 1_555 1_555
C1_4 C2_4 1_555 1_555
C2_4 H1_4 1_555 1_555
C3_4 C2_4 1_555 1_555
C4_4 C3_4 1_555 1_555
H2_4 C4_4 1_555 1_555
C5_4 C4_4 1_555 1_555
C6_4 C1_4 1_555 1_555
H3_4 C6_4 1_555 1_555
C7_4 C1_4 1_555 1_555
C8_4 C5_4 1_555 1_555
O1_4 P1_4 1_555 1_555
O2_4 P1_4 1_555 1_555
O3_4 P1_4 1_555 1_555
O19_4 C7_4 1_555 1_555
O5_4 C7_4 1_555 1_555
O6_4 C8_4 1_555 1_555
O7_4 C8_4 1_555 1_555
Zn5_2 O5_4 1_555 1_555
P2_4 C11_4 1_555 1_555
C10_4 H4_4 1_555 1_555
C11_4 C10_4 1_555 1_555
C12_4 C11_4 1_555 1_555
H5_4 C12_4 1_555 1_555
O15_4 P2_4 1_555 1_555
O16_2 P2_4 1_555 1_555
O10_4 Zn5_2 1_555 1_555
Zn6_4 O2_4 1_555 1_555
Zn7_4 O6_4 1_555 1_555
O15_6 Cu2_2 1_555 1_555
O17_4 Zn4 1_555 1_555
O19_6 Cu2_2 1_555 1_555
O22_4 Zn5_2 1_555 1_555
C5_4 C6_4 1_555 1_555
P2_4 O10_4 1_555 1_555
C14_5 C9_5 1_555 1_555
H6_5 C14_5 1_555 1_555
C15_5 C9_5 1_555 1_555
C16_5 C13_5 1_555 1_555
O19_5 C15_5 1_555 1_555
O12_3 C15_5 1_555 1_555
O13_3 C16_5 1_555 1_555
O14_5 C16_5 1_555 1_555
Zn6_3 O12_3 1_555 1_555
Zn6 O13_3 1_555 1_555
C13_5 C14_5 1_555 1_555
C6_5 C1_5 1_555 1_555
H3_5 C6_5 1_555 1_555
C7_5 C1_5 1_555 1_555
C8_5 C5_5 1_555 1_555
O4_3 C7_5 1_555 1_555
O5_5 C7_5 1_555 1_555
O22_4 C8_5 1_555 1_555
O7_5 C8_5 1_555 1_555
Zn7_4 O5_5 1_555 1_555
P2_5 C11_5 1_555 1_555
C10_5 H4_5 1_555 1_555
C11_5 C10_5 1_555 1_555
C12_5 C11_5 1_555 1_555
H5_5 C12_5 1_555 1_555
O8_3 P2_5 1_555 1_555
O9_3 P2_5 1_555 1_555
O10_5 Zn7_4 1_555 1_555
Zn7_2 O9_3 1_555 1_555
Cu3_3 O4_3 1_555 1_555
O16_3 Zn7_4 1_555 1_555
C5_5 C6_5 1_555 1_555
P2_5 O10_5 1_555 1_555
O8_3 Cu3_3 1_555 1_555
Zn6_4 O3_5 1_555 1_555
P1_5 C3_5 1_555 1_555
C2_5 H1_5 1_555 1_555
C3_5 C2_5 1_555 1_555
C4_5 C3_5 1_555 1_555
H2_5 C4_5 1_555 1_555
O15_6 P1_5 1_555 1_555
O17_4 P1_5 1_555 1_555
O3_5 P1_5 1_555 1_555
O20_3 Zn6_4 1_555 1_555
O21_3 Zn6_4 1_555 1_555
Zn6_3 O3_6 1_555 1_555
P1_6 C3_6 1_555 1_555
C2_6 H1_6 1_555 1_555
C3_6 C2_6 1_555 1_555
C4_6 C3_6 1_555 1_555
H2_6 C4_6 1_555 1_555
O15_5 P1_6 1_555 1_555
O17_3 P1_6 1_555 1_555
O3_6 P1_6 1_555 1_555
O21_4 Zn6_3 1_555 1_555
C6_6 C1_6 1_555 1_555
H3_6 C6_6 1_555 1_555
C7_6 C1_6 1_555 1_555
C8_6 C5_6 1_555 1_555
O4_4 C7_6 1_555 1_555
O5_6 C7_6 1_555 1_555
O22_3 C8_6 1_555 1_555
O7_6 C8_6 1_555 1_555
Zn7_3 O5_6 1_555 1_555
P2_6 C11_6 1_555 1_555
C10_6 H4_6 1_555 1_555
C11_6 C10_6 1_555 1_555
C12_6 C11_6 1_555 1_555
H5_6 C12_6 1_555 1_555
O8_4 P2_6 1_555 1_555
O9_4 P2_6 1_555 1_555
O10_6 Zn7_3 1_555 1_555
Zn7 O9_4 1_555 1_555
Cu3_4 O4_4 1_555 1_555
O16_4 Zn7_3 1_555 1_555
C5_6 C6_6 1_555 1_555
P2_6 O10_6 1_555 1_555
O8_4 Cu3_4 1_555 1_555
C14_6 C9_6 1_555 1_555
H6_6 C14_6 1_555 1_555
C15_6 C9_6 1_555 1_555
C16_6 C13_6 1_555 1_555
O19_6 C15_6 1_555 1_555
O20_3 C15_6 1_555 1_555
O13_4 C16_6 1_555 1_555
O14_6 C16_6 1_555 1_555
Zn6_2 O13_4 1_555 1_555
C13_6 C14_6 1_555 1_555
O15_7 Cu3_3 1_555 1_555
O19_7 Cu3_3 1_555 1_555
O15_8 Cu3_4 1_555 1_555
O19_8 Cu3_4 1_555 1_555
C6_7 C1_7 1_555 1_555
H3_7 C6_7 1_555 1_555
C7_7 C1_7 1_555 1_555
C8_7 C5_7 1_555 1_555
O19_7 C7_7 1_555 1_555
O5_7 C7_7 1_555 1_555
O22_2 C8_7 1_555 1_555
Zn7_2 O5_7 1_555 1_555
P2_7 C11_7 1_555 1_555
C9_7 C10_7 1_555 1_555
C10_7 H4_7 1_555 1_555
C11_7 C10_7 1_555 1_555
C12_7 C11_7 1_555 1_555
H5_7 C12_7 1_555 1_555
C13_7 C12_7 1_555 1_555
C14_7 C9_7 1_555 1_555
H6_7 C14_7 1_555 1_555
C15_7 C9_7 1_555 1_555
C16_7 C13_7 1_555 1_555
O15_7 P2_7 1_555 1_555
O16_3 P2_7 1_555 1_555
O10_7 Zn7_2 1_555 1_555
O19 C15_7 1_555 1_555
O12_4 C15_7 1_555 1_555
O21_4 C16_7 1_555 1_555
O14_7 C16_7 1_555 1_555
Zn6 O12_4 1_555 1_555
C5_7 C6_7 1_555 1_555
P2_7 O10_7 1_555 1_555
C13_7 C14_7 1_555 1_555
Zn6_2 O3_7 1_555 1_555
P1_7 C3_7 1_555 1_555
C2_7 H1_7 1_555 1_555
C3_7 C2_7 1_555 1_555
C4_7 C3_7 1_555 1_555
H2_7 C4_7 1_555 1_555
O15_2 P1_7 1_555 1_555
O17_2 P1_7 1_555 1_555
O3_7 P1_7 1_555 1_555
O20_4 Zn6_2 1_555 1_555
Zn6 O3_8 1_555 1_555
P1_8 C3_8 1_555 1_555
C2_8 H1_8 1_555 1_555
C3_8 C2_8 1_555 1_555
C4_8 C3_8 1_555 1_555
H2_8 C4_8 1_555 1_555
O15 P1_8 1_555 1_555
O17 P1_8 1_555 1_555
O3_8 P1_8 1_555 1_555
C6_8 C1_8 1_555 1_555
H3_8 C6_8 1_555 1_555
C7_8 C1_8 1_555 1_555
C8_8 C5_8 1_555 1_555
O19_8 C7_8 1_555 1_555
O5_8 C7_8 1_555 1_555
O22 C8_8 1_555 1_555
Zn7 O5_8 1_555 1_555
P2_8 C11_8 1_555 1_555
C9_8 C10_8 1_555 1_555
C10_8 H4_8 1_555 1_555
C11_8 C10_8 1_555 1_555
C12_8 C11_8 1_555 1_555
H5_8 C12_8 1_555 1_555
C13_8 C12_8 1_555 1_555
C14_8 C9_8 1_555 1_555
H6_8 C14_8 1_555 1_555
C15_8 C9_8 1_555 1_555
C16_8 C13_8 1_555 1_555
O15_8 P2_8 1_555 1_555
O16_4 P2_8 1_555 1_555
O10_8 Zn7 1_555 1_555
O19_2 C15_8 1_555 1_555
O20_4 C15_8 1_555 1_555
O21_3 C16_8 1_555 1_555
O14_8 C16_8 1_555 1_555
C5_8 C6_8 1_555 1_555
P2_8 O10_8 1_555 1_555
C13_8 C14_8 1_555 1_555

#END
