
###############################################################################
#
# This file contains modified crystal structure data generated from the
# MOF subset of the Cambridge Structural Database (CSD) v543 
# hosted by the Cambridge Crystallographic Data Centre (CCDC).
#
# This work is licensed under the Creative Commons
# Attribution-NonCommercial-ShareAlike 4.0 International License.
# To view a copy of this license, visit
# http://creativecommons.org/licenses/by-nc-sa/4.0/
# or send a letter to
# Creative Commons, PO Box 1866, Mountain View, CA 94042, USA.
#
# CIF created using the CSD Python API on 29 September 2022
# The structure has been converted into the P1 space group
# The structure has a 3D framework
# The original CSD entry BACMOH is in the orthorhombic crystal system
# The original CSD entry BACMOH is in a Sohncke space group
# The framework has been calculated to contain at least 10.0% void space
# The void calculation uses a probe of radius 1.32A, grid spacing 0.4
# H atom positions have been added when not included in the experimental data
#
###############################################################################

data_BACMOH
_chemical_formula_moiety         '(C28 H36 Cu4 N12 O16)n'
_symmetry_cell_setting           triclinic
_symmetry_space_group_name_H-M   'P 1'
_symmetry_Int_Tables_number      1
_space_group_name_Hall           'P 1'
loop_
_symmetry_equiv_pos_site_id
_symmetry_equiv_pos_as_xyz
1 x,y,z
_cell_length_a                   16.049(2)
_cell_length_b                   9.622(1)
_cell_length_c                   7.465(1)
_cell_angle_alpha                90
_cell_angle_beta                 90
_cell_angle_gamma                90
_cell_volume                     1152.77
loop_
_atom_site_label
_atom_site_type_symbol
_atom_site_fract_x
_atom_site_fract_y
_atom_site_fract_z
O1 O 0.25900 0.18430 0.50320
O3 O 0.58130 0.22810 0.62460
O4 O 0.49810 0.29350 0.83670
C1 C 0.28740 0.09340 0.59810
C2 C 0.36190 0.13750 0.71110
N1 N 0.37310 0.02400 0.85210
C3 C 0.43950 0.16060 0.60360
C4 C 0.51000 0.22900 0.69610
Cu2 Cu 0.16560 0.15830 0.25980
Cu3 Cu 0.66560 0.34170 0.74020
H4 H 0.422906 0.224699 0.488785
H5 H 0.461088 0.0595194 0.557208
H6 H 0.346249 0.234098 0.779264
H8 H 0.434338 0.0169534 0.884836
H9 H 0.339575 0.0491821 0.962729
Cu1 Cu 0.33440 0.84170 0.75980
O2 O 0.27020 0.96770 0.59880
N2 N 0.27840 0.67620 0.65760
C5 C 0.30990 0.55260 0.62040
N3 N 0.24840 0.46430 0.56830
C6 C 0.17730 0.54030 0.57400
C7 C 0.19440 0.66880 0.62590
O6 O 0.41870 0.72810 0.87540
H1 H 0.149785 0.753297 0.640708
H2 H 0.375618 0.525445 0.630093
H3 H 0.115443 0.501515 0.540885
H7 H 0.254416 0.36299 0.53269
O3_2 O 0.08130 0.27190 0.37540
C4_2 C 0.01000 0.27100 0.30390
Cu1_2 Cu 0.83440 0.65830 0.24020
O1_2 O 0.75900 0.31570 0.49680
O2_2 O 0.77020 0.53230 0.40120
O4_2 O 0.99810 0.20650 0.16330
C1_2 C 0.78740 0.40660 0.40190
C2_2 C 0.86190 0.36250 0.28890
N1_2 N 0.87310 0.47600 0.14790
C3_2 C 0.93950 0.33940 0.39640
N2_2 N 0.77840 0.82380 0.34240
C5_2 C 0.80990 0.94740 0.37960
C6_2 C 0.67730 0.95970 0.42600
C7_2 C 0.69440 0.83120 0.37410
O6_2 O 0.91870 0.77190 0.12460
H1_2 H 0.649785 0.746703 0.359292
H2_2 H 0.875618 0.974555 0.369907
H3_2 H 0.615443 0.998485 0.459115
H4_2 H 0.922906 0.275301 0.511215
H5_2 H 0.961088 0.440481 0.442792
H6_2 H 0.846249 0.265902 0.220736
H8_2 H 0.934338 0.483047 0.115164
H9_2 H 0.839575 0.450818 0.037271
O5 O 0.74100 0.68430 0.99680
H4_3 H 0.577094 0.724699 0.0112146
O2_3 O 0.72980 0.46770 0.90120
O4_3 O 0.50190 0.79350 0.66330
C1_3 C 0.71260 0.59340 0.90190
C2_3 C 0.63810 0.63750 0.78890
N1_3 N 0.62690 0.52400 0.64790
C3_3 C 0.56050 0.66060 0.89640
C4_3 C 0.49000 0.72900 0.80390
N2_3 N 0.72160 0.17620 0.84240
C5_3 C 0.69010 0.05260 0.87960
C6_3 C 0.82270 0.04030 0.92600
C7_3 C 0.80560 0.16880 0.87410
H1_3 H 0.850215 0.253297 0.859292
H2_3 H 0.624382 0.0254448 0.869907
H3_3 H 0.884557 0.00151492 0.959115
H5_3 H 0.538912 0.559519 0.942792
H6_3 H 0.653751 0.734098 0.720736
H8_3 H 0.565662 0.516953 0.615164
H9_3 H 0.660425 0.549182 0.537271
O2_4 O 0.22980 0.03230 0.09880
N2_4 N 0.22160 0.32380 0.15760
C5_4 C 0.19010 0.44740 0.12040
N3_2 N 0.25160 0.53570 0.06830
C6_4 C 0.32270 0.45970 0.07400
C7_4 C 0.30560 0.33120 0.12590
H1_4 H 0.350215 0.246703 0.140708
H2_4 H 0.124382 0.474555 0.130093
H3_4 H 0.384557 0.498485 0.0408854
H7_2 H 0.245584 0.63701 0.0326902
H4_4 H 0.0770935 0.775301 0.988785
C4_4 C 0.99000 0.77100 0.19610
O5_2 O 0.24100 0.81570 0.00320
O4_4 O 0.00190 0.70650 0.33670
C1_4 C 0.21260 0.90660 0.09810
C2_4 C 0.13810 0.86250 0.21110
N1_4 N 0.12690 0.97600 0.35210
C3_4 C 0.06050 0.83940 0.10360
H5_4 H 0.0389118 0.940481 0.0572083
H6_4 H 0.153751 0.765902 0.279264
H8_4 H 0.0656621 0.983047 0.384836
H9_4 H 0.160425 0.950818 0.462729
N3_3 N 0.74840 0.03570 0.43170
H7_3 H 0.754416 0.13701 0.46731
N3_4 N 0.75160 0.96430 0.93170
H7_4 H 0.745584 0.86299 0.96731
loop_
_geom_bond_atom_site_label_1
_geom_bond_atom_site_label_2
_geom_bond_site_symmetry_1
_geom_bond_site_symmetry_2
O1 C1 1_555 1_555
O3 C4 1_555 1_555
O4 C4 1_555 1_555
C1 C2 1_555 1_555
C2 N1 1_555 1_555
C3 C2 1_555 1_555
C4 C3 1_555 1_555
Cu2 O1 1_555 1_555
Cu3 O3 1_555 1_555
C3 H4 1_555 1_555
C3 H5 1_555 1_555
C2 H6 1_555 1_555
N1 H8 1_555 1_555
N1 H9 1_555 1_555
Cu1 O2 1_555 1_555
N2 Cu1 1_555 1_555
C5 N2 1_555 1_555
N3 C5 1_555 1_555
C6 N3 1_555 1_555
C7 N2 1_555 1_555
O6 Cu1 1_555 1_555
C6 C7 1_555 1_555
C7 H1 1_555 1_555
C5 H2 1_555 1_555
C6 H3 1_555 1_555
N3 H7 1_555 1_555
O3_2 C4_2 1_555 1_555
Cu2 O3_2 1_555 1_555
Cu1_2 O2_2 1_555 1_555
O1_2 C1_2 1_555 1_555
O2_2 C1_2 1_555 1_555
C1_2 C2_2 1_555 1_555
C2_2 N1_2 1_555 1_555
N1_2 Cu1_2 1_555 1_555
C3_2 C2_2 1_555 1_555
N2_2 Cu1_2 1_555 1_555
C5_2 N2_2 1_555 1_555
C7_2 N2_2 1_555 1_555
Cu3 O1_2 1_555 1_555
O6_2 Cu1_2 1_555 1_555
C6_2 C7_2 1_555 1_555
C7_2 H1_2 1_555 1_555
C5_2 H2_2 1_555 1_555
C6_2 H3_2 1_555 1_555
C3_2 H4_2 1_555 1_555
C3_2 H5_2 1_555 1_555
C2_2 H6_2 1_555 1_555
N1_2 H8_2 1_555 1_555
N1_2 H9_2 1_555 1_555
Cu3 O2_3 1_555 1_555
O5 C1_3 1_555 1_555
O2_3 C1_3 1_555 1_555
O6 C4_3 1_555 1_555
O4_3 C4_3 1_555 1_555
C1_3 C2_3 1_555 1_555
C2_3 N1_3 1_555 1_555
N1_3 Cu3 1_555 1_555
C3_3 C2_3 1_555 1_555
C4_3 C3_3 1_555 1_555
N2_3 Cu3 1_555 1_555
C5_3 N2_3 1_555 1_555
C7_3 N2_3 1_555 1_555
C6_3 C7_3 1_555 1_555
C7_3 H1_3 1_555 1_555
C5_3 H2_3 1_555 1_555
C6_3 H3_3 1_555 1_555
C3_3 H5_3 1_555 1_555
C2_3 H6_3 1_555 1_555
N1_3 H8_3 1_555 1_555
N1_3 H9_3 1_555 1_555
Cu2 O2_4 1_555 1_555
N2_4 Cu2 1_555 1_555
C5_4 N2_4 1_555 1_555
N3_2 C5_4 1_555 1_555
C6_4 N3_2 1_555 1_555
C7_4 N2_4 1_555 1_555
C6_4 C7_4 1_555 1_555
C7_4 H1_4 1_555 1_555
C5_4 H2_4 1_555 1_555
C6_4 H3_4 1_555 1_555
N3_2 H7_2 1_555 1_555
O6_2 C4_4 1_555 1_555
O5_2 C1_4 1_555 1_555
C1_4 C2_4 1_555 1_555
C2_4 N1_4 1_555 1_555
C3_4 C2_4 1_555 1_555
C3_4 H5_4 1_555 1_555
C2_4 H6_4 1_555 1_555
N1_4 H8_4 1_555 1_555
N1_4 H9_4 1_555 1_555
N3_3 H7_3 1_555 1_555
N3_4 H7_4 1_555 1_555

#END
