
###############################################################################
#
# This file contains modified crystal structure data generated from the
# MOF subset of the Cambridge Structural Database (CSD) v543 
# hosted by the Cambridge Crystallographic Data Centre (CCDC).
#
# This work is licensed under the Creative Commons
# Attribution-NonCommercial-ShareAlike 4.0 International License.
# To view a copy of this license, visit
# http://creativecommons.org/licenses/by-nc-sa/4.0/
# or send a letter to
# Creative Commons, PO Box 1866, Mountain View, CA 94042, USA.
#
# CIF created using the CSD Python API on 29 September 2022
# The structure has been converted into the P1 space group
# The structure has a 3D framework
# The original CSD entry BADHUM01 is in the monoclinic crystal system
# The framework has been calculated to contain at least 10.0% void space
# The void calculation uses a probe of radius 1.32A, grid spacing 0.4
#
###############################################################################

data_BADHUM01
_chemical_formula_moiety         '(C96 H48 O38 Sc8)n'
_symmetry_cell_setting           triclinic
_symmetry_space_group_name_H-M   'P 1'
_symmetry_Int_Tables_number      1
_space_group_name_Hall           'P 1'
loop_
_symmetry_equiv_pos_site_id
_symmetry_equiv_pos_as_xyz
1 x,y,z
_cell_length_a                   8.887(3)
_cell_length_b                   32.456(8)
_cell_length_c                   10.6584(18)
_cell_angle_alpha                90
_cell_angle_beta                 112.051(11)
_cell_angle_gamma                90
_cell_volume                     2849.39
loop_
_atom_site_label
_atom_site_type_symbol
_atom_site_fract_x
_atom_site_fract_y
_atom_site_fract_z
_atom_site_U_iso_or_equiv
_atom_site_thermal_displace_type
O12 O 0.073(3) 0.5970(7) 0.079(2) 0.0360 Uiso
Sc6 Sc 0.2699(9) 0.61437(17) 0.2554(6) 0.0215 Uani
O6 O 0.182(4) 0.5844(7) 0.381(2) 0.0370 Uiso
H1 H 0.0469 0.6139 0.8425 0.0460 Uiso
C19 C 0.030(4) 0.5386(7) 0.457(3) 0.0260 Uiso
C20 C 0.144(4) 0.5068(7) 0.477(3) 0.0270 Uiso
H9 H 0.2409 0.5120 0.4655 0.0320 Uiso
C21 C 0.070(7) 0.5805(9) 0.417(4) 0.0430 Uiso
C22 C 0.114(4) 0.4675(8) 0.516(3) 0.0150 Uiso
H10 H 0.1853 0.4459 0.5229 0.0180 Uiso
O16 O 0.041(3) 0.3922(7) 0.596(2) 0.0370 Uiso
O19 O 0.082(3) 0.1889(7) 0.212(2) 0.0280 Uiso
H21 H 0.0359 0.2591 0.1271 0.0350 Uiso
Sc12 Sc 0.2281(9) 0.13740(17) 0.2444(6) 0.0231 Uani
Sc14 Sc 0.2281(9) 0.36260(17) 0.7444(6) 0.0231 Uani
O9 O 0.843(3) 0.6132(7) 0.114(2) 0.0360 Uiso
C10 C 0.927(5) 0.6094(9) 0.037(2) 0.0230 Uiso
Sc11 Sc 0.7719(9) 0.63740(17) 0.2556(6) 0.0231 Uani
O1 O 0.360(3) 0.6433(7) 0.128(2) 0.0340 Uiso
O2 O 0.399(4) 0.5641(7) 0.239(2) 0.0380 Uiso
O3 O 0.457(3) 0.6392(7) 0.423(2) 0.0370 Uiso
O4 O 0.635(3) 0.5844(7) 0.238(2) 0.0380 Uiso
O7 O 0.576(4) 0.6676(6) 0.104(2) 0.0340 Uiso
C1 C 0.440(5) 0.6688(9) 0.081(4) 0.0450 Uiso
C2 C 0.511(6) 0.5597(10) 0.202(3) 0.0440 Uiso
O8 O 0.959(3) 0.6078(7) 0.404(2) 0.0370 Uiso
O11 O 0.690(3) 0.6574(7) 0.400(2) 0.0370 Uiso
C3 C 0.611(5) 0.6450(9) 0.469(2) 0.0210 Uiso
C4 C 0.936(2) 0.6196(7) 0.807(2) 0.0380 Uiso
C5 C 0.860(3) 0.6295(7) 0.670(2) 0.0460 Uiso
H2 H 0.9197 0.6304 0.6150 0.0550 Uiso
C6 C 0.695(3) 0.6379(7) 0.6167(15) 0.0440 Uiso
C7 C 0.605(2) 0.6365(7) 0.699(2) 0.0630 Uiso
H3 H 0.4947 0.6422 0.6636 0.0760 Uiso
C8 C 0.682(3) 0.6267(7) 0.836(2) 0.0500 Uiso
H4 H 0.6219 0.6257 0.8910 0.0600 Uiso
C9 C 0.847(3) 0.6182(7) 0.8893(14) 0.0300 Uiso
C18 C 0.505(4) 0.5289(9) 0.096(3) 0.0250 Uiso
C23 C 0.628(5) 0.5263(10) 0.046(3) 0.0400 Uiso
H11 H 0.7174 0.5435 0.0839 0.0480 Uiso
C28 C 0.374(5) 0.5002(10) 0.058(3) 0.0400 Uiso
H14 H 0.2969 0.4994 0.0977 0.0480 Uiso
O15 O 0.818(4) 0.4156(7) 0.619(2) 0.0370 Uiso
C29 C 0.970(4) 0.4614(7) 0.543(3) 0.0260 Uiso
C30 C 0.856(4) 0.4932(7) 0.523(3) 0.0270 Uiso
H15 H 0.7591 0.4880 0.5345 0.0320 Uiso
C31 C 0.930(7) 0.4195(9) 0.583(4) 0.0430 Uiso
C32 C 0.886(4) 0.5325(8) 0.484(3) 0.0150 Uiso
H16 H 0.8147 0.5541 0.4771 0.0180 Uiso
O22 O 0.867(3) 0.1652(6) 0.244(2) 0.0280 Uiso
C42 C 0.845(2) 0.2305(5) 0.149(2) 0.0250 Uiso
C43 C 0.9248(19) 0.2611(6) 0.107(2) 0.0290 Uiso
C44 C 0.839(2) 0.2947(5) 0.034(2) 0.0290 Uiso
H22 H 0.8921 0.3151 0.0054 0.0350 Uiso
C45 C 0.673(2) 0.2977(5) 0.003(2) 0.0370 Uiso
C46 C 0.5926(19) 0.2671(6) 0.045(2) 0.0290 Uiso
H23 H 0.4815 0.2692 0.0247 0.0350 Uiso
C47 C 0.679(2) 0.2336(5) 0.118(2) 0.0290 Uiso
H24 H 0.6253 0.2131 0.1464 0.0350 Uiso
C48 C 0.949(5) 0.1937(8) 0.210(3) 0.0230 Uiso
Sc7 Sc 0.7301(9) 0.11437(17) 0.2446(6) 0.0215 Uani
Sc9 Sc 0.7301(9) 0.38563(17) 0.7446(6) 0.0215 Uani
O26 O 0.918(3) 0.6889(7) 0.288(2) 0.0280 Uiso
O33 O 0.133(3) 0.6652(6) 0.256(2) 0.0280 Uiso
O10 O 0.133(3) 0.8348(6) 0.756(2) 0.0280 Uiso
C11 C 0.155(2) 0.7695(5) 0.851(2) 0.0250 Uiso
C12 C 0.0752(19) 0.7389(6) 0.893(2) 0.0290 Uiso
C13 C 0.161(2) 0.7053(5) 0.966(2) 0.0290 Uiso
H6 H 0.1079 0.6849 0.9946 0.0350 Uiso
C14 C 0.327(2) 0.7023(5) 0.997(2) 0.0370 Uiso
C15 C 0.4074(19) 0.7329(6) 0.955(2) 0.0290 Uiso
H7 H 0.5185 0.7308 0.9753 0.0350 Uiso
C16 C 0.321(2) 0.7664(5) 0.882(2) 0.0290 Uiso
H8 H 0.3747 0.7869 0.8536 0.0350 Uiso
C17 C 0.051(5) 0.8063(8) 0.790(3) 0.0230 Uiso
C24 C 0.626(5) 0.4998(10) 0.942(3) 0.0400 Uiso
H12 H 0.7031 0.5006 0.9023 0.0480 Uiso
O13 O 0.601(4) 0.4359(7) 0.761(2) 0.0380 Uiso
O14 O 0.365(3) 0.4156(7) 0.762(2) 0.0380 Uiso
C25 C 0.489(6) 0.4403(10) 0.798(3) 0.0440 Uiso
C26 C 0.495(4) 0.4711(9) 0.904(3) 0.0250 Uiso
C27 C 0.372(5) 0.4737(10) 0.954(3) 0.0400 Uiso
H13 H 0.2826 0.4565 0.9161 0.0480 Uiso
O17 O 0.640(3) 0.3567(7) 0.872(2) 0.0340 Uiso
O18 O 0.543(3) 0.3608(7) 0.577(2) 0.0370 Uiso
O20 O 0.424(4) 0.3324(6) 0.896(2) 0.0340 Uiso
C33 C 0.560(5) 0.3312(9) 0.919(4) 0.0450 Uiso
O23 O 0.310(3) 0.3426(7) 0.600(2) 0.0370 Uiso
C34 C 0.389(5) 0.3550(9) 0.531(2) 0.0210 Uiso
C35 C 0.064(2) 0.3804(7) 0.193(2) 0.0380 Uiso
C36 C 0.140(3) 0.3705(7) 0.330(2) 0.0460 Uiso
H18 H 0.0803 0.3696 0.3850 0.0550 Uiso
C37 C 0.305(3) 0.3621(7) 0.3833(15) 0.0440 Uiso
C38 C 0.395(2) 0.3635(7) 0.301(2) 0.0630 Uiso
H19 H 0.5053 0.3578 0.3364 0.0760 Uiso
C39 C 0.318(3) 0.3733(7) 0.164(2) 0.0500 Uiso
H20 H 0.3781 0.3743 0.1090 0.0600 Uiso
C40 C 0.153(3) 0.3818(7) 0.1107(14) 0.0300 Uiso
Sc10 Sc 0.2699(9) 0.88563(17) 0.7554(6) 0.0215 Uani
O25 O 0.082(3) 0.3111(7) 0.712(2) 0.0280 Uiso
O31 O 0.157(3) 0.3868(7) 0.886(2) 0.0360 Uiso
O32 O 0.867(3) 0.3348(6) 0.744(2) 0.0280 Uiso
O35 O 0.927(3) 0.4030(7) 0.921(2) 0.0360 Uiso
C41 C 0.073(5) 0.3906(9) 0.963(2) 0.0230 Uiso
O5 O 0.918(3) 0.8111(7) 0.788(2) 0.0280 Uiso
H5 H 0.9641 0.7409 0.8729 0.0350 Uiso
H17 H 0.9531 0.3861 0.1575 0.0460 Uiso
Sc15 Sc 0.7719(9) 0.86260(17) 0.7556(6) 0.0231 Uani
H5_2 H 0.0359 0.2409 0.6271 0.0350 Uiso
O24 O 0.073(3) 0.9030(7) 0.579(2) 0.0360 Uiso
H17_2 H 0.0469 0.8861 0.3425 0.0460 Uiso
O1_2 O 0.640(3) 0.1433(7) 0.372(2) 0.0340 Uiso
O2_2 O 0.601(4) 0.0641(7) 0.261(2) 0.0380 Uiso
O3_2 O 0.543(3) 0.1392(7) 0.077(2) 0.0370 Uiso
O4_2 O 0.365(3) 0.0844(7) 0.262(2) 0.0380 Uiso
O7_2 O 0.424(4) 0.1676(6) 0.396(2) 0.0340 Uiso
C1_2 C 0.560(5) 0.1688(9) 0.419(4) 0.0450 Uiso
C2_2 C 0.489(6) 0.0597(10) 0.298(3) 0.0440 Uiso
O8_2 O 0.041(3) 0.1078(7) 0.096(2) 0.0370 Uiso
O11_2 O 0.310(3) 0.1574(7) 0.100(2) 0.0370 Uiso
C3_2 C 0.389(5) 0.1450(9) 0.031(2) 0.0210 Uiso
C11_2 C 0.845(2) 0.2695(5) 0.649(2) 0.0250 Uiso
C12_2 C 0.9248(19) 0.2389(6) 0.607(2) 0.0290 Uiso
C13_2 C 0.839(2) 0.2053(5) 0.534(2) 0.0290 Uiso
H6_2 H 0.8921 0.1849 0.5054 0.0350 Uiso
C14_2 C 0.673(2) 0.2023(5) 0.503(2) 0.0370 Uiso
C15_2 C 0.5926(19) 0.2329(6) 0.545(2) 0.0290 Uiso
H7_2 H 0.4815 0.2308 0.5247 0.0350 Uiso
C16_2 C 0.679(2) 0.2664(5) 0.618(2) 0.0290 Uiso
H8_2 H 0.6253 0.2869 0.6464 0.0350 Uiso
C17_2 C 0.949(5) 0.3063(8) 0.710(3) 0.0230 Uiso
C18_2 C 0.495(4) 0.0289(9) 0.404(3) 0.0250 Uiso
C23_2 C 0.372(5) 0.0263(10) 0.454(3) 0.0400 Uiso
H11_2 H 0.2826 0.0435 0.4161 0.0480 Uiso
H12_2 H 0.2969 0.0006 0.5977 0.0480 Uiso
C28_2 C 0.626(5) 0.0002(10) 0.442(3) 0.0400 Uiso
C32_2 C 0.114(4) 0.0325(8) 0.016(3) 0.0150 Uiso
H16_2 H 0.1853 0.0541 0.0229 0.0180 Uiso
O27 O 0.818(4) 0.0844(7) 0.119(2) 0.0370 Uiso
O30 O 0.157(3) 0.1132(7) 0.386(2) 0.0360 Uiso
O34 O 0.927(3) 0.0970(7) 0.421(2) 0.0360 Uiso
C4_2 C 0.064(2) 0.1196(7) 0.693(2) 0.0380 Uiso
C5_2 C 0.140(3) 0.1295(7) 0.830(2) 0.0460 Uiso
H2_2 H 0.0803 0.1304 0.8850 0.0550 Uiso
C6_2 C 0.305(3) 0.1379(7) 0.8833(15) 0.0440 Uiso
C7_2 C 0.395(2) 0.1365(7) 0.801(2) 0.0630 Uiso
H3_2 H 0.5053 0.1422 0.8364 0.0760 Uiso
C8_2 C 0.318(3) 0.1267(7) 0.664(2) 0.0500 Uiso
H4_2 H 0.3781 0.1257 0.6090 0.0600 Uiso
C9_2 C 0.153(3) 0.1182(7) 0.6107(14) 0.0300 Uiso
C10_2 C 0.073(5) 0.1094(9) 0.463(2) 0.0230 Uiso
O21 O 0.843(3) 0.8868(7) 0.614(2) 0.0360 Uiso
C35_2 C 0.936(2) 0.8804(7) 0.307(2) 0.0380 Uiso
C36_2 C 0.860(3) 0.8705(7) 0.170(2) 0.0460 Uiso
H18_2 H 0.9197 0.8696 0.1150 0.0550 Uiso
C37_2 C 0.695(3) 0.8621(7) 0.1167(15) 0.0440 Uiso
C38_2 C 0.605(2) 0.8635(7) 0.199(2) 0.0630 Uiso
H19_2 H 0.4947 0.8578 0.1636 0.0760 Uiso
C39_2 C 0.682(3) 0.8733(7) 0.336(2) 0.0500 Uiso
H20_2 H 0.6219 0.8743 0.3910 0.0600 Uiso
C40_2 C 0.847(3) 0.8818(7) 0.3893(14) 0.0300 Uiso
C41_2 C 0.927(5) 0.8906(9) 0.537(2) 0.0230 Uiso
C24_2 C 0.374(5) 0.9998(10) 0.558(3) 0.0400 Uiso
O13_2 O 0.399(4) 0.9359(7) 0.739(2) 0.0380 Uiso
O14_2 O 0.635(3) 0.9156(7) 0.738(2) 0.0380 Uiso
C25_2 C 0.511(6) 0.9403(10) 0.702(3) 0.0440 Uiso
C26_2 C 0.505(4) 0.9711(9) 0.596(3) 0.0250 Uiso
C27_2 C 0.628(5) 0.9737(10) 0.546(3) 0.0400 Uiso
H13_2 H 0.7174 0.9565 0.5839 0.0480 Uiso
H14_2 H 0.7031 0.9994 0.4023 0.0480 Uiso
O17_2 O 0.360(3) 0.8567(7) 0.628(2) 0.0340 Uiso
O18_2 O 0.457(3) 0.8608(7) 0.923(2) 0.0370 Uiso
O20_2 O 0.576(4) 0.8324(6) 0.604(2) 0.0340 Uiso
C33_2 C 0.440(5) 0.8312(9) 0.581(4) 0.0450 Uiso
O23_2 O 0.690(3) 0.8426(7) 0.900(2) 0.0370 Uiso
C34_2 C 0.611(5) 0.8550(9) 0.969(2) 0.0210 Uiso
C42_2 C 0.155(2) 0.7305(5) 0.351(2) 0.0250 Uiso
C43_2 C 0.0752(19) 0.7611(6) 0.393(2) 0.0290 Uiso
C44_2 C 0.161(2) 0.7947(5) 0.466(2) 0.0290 Uiso
H22_2 H 0.1079 0.8151 0.4946 0.0350 Uiso
C45_2 C 0.327(2) 0.7977(5) 0.497(2) 0.0370 Uiso
C46_2 C 0.4074(19) 0.7671(6) 0.455(2) 0.0290 Uiso
H23_2 H 0.5185 0.7692 0.4753 0.0350 Uiso
C47_2 C 0.321(2) 0.7336(5) 0.382(2) 0.0290 Uiso
H24_2 H 0.3747 0.7131 0.3536 0.0350 Uiso
C48_2 C 0.051(5) 0.6937(8) 0.290(3) 0.0230 Uiso
O28 O 0.182(4) 0.9156(7) 0.881(2) 0.0370 Uiso
O29 O 0.959(3) 0.8922(7) 0.904(2) 0.0370 Uiso
C29_2 C 0.030(4) 0.9614(7) 0.957(3) 0.0260 Uiso
C30_2 C 0.144(4) 0.9932(7) 0.977(3) 0.0270 Uiso
H15_2 H 0.2409 0.9880 0.9655 0.0320 Uiso
C31_2 C 0.070(7) 0.9195(9) 0.917(4) 0.0430 Uiso
C19_2 C 0.970(4) 0.0386(7) 0.043(3) 0.0260 Uiso
C20_2 C 0.856(4) 0.0068(7) 0.023(3) 0.0270 Uiso
H9_2 H 0.7591 0.0120 0.0345 0.0320 Uiso
C21_2 C 0.930(7) 0.0805(9) 0.083(4) 0.0430 Uiso
H1_2 H 0.9531 0.1139 0.6575 0.0460 Uiso
H21_2 H 0.9641 0.7591 0.3729 0.0350 Uiso
C22_2 C 0.886(4) 0.9675(8) 0.984(3) 0.0150 Uiso
H10_2 H 0.8147 0.9459 0.9771 0.0180 Uiso
loop_
_atom_site_aniso_label
_atom_site_aniso_U_11
_atom_site_aniso_U_22
_atom_site_aniso_U_33
_atom_site_aniso_U_23
_atom_site_aniso_U_13
_atom_site_aniso_U_12
Sc6 0.035 0.009 0.018 0 0.007 0
Sc12 0.026 0.014 0.02 -0.004 -0.002 -0.006
Sc14 0.026 0.014 0.02 0.004 -0.002 0.006
Sc11 0.026 0.014 0.02 0.004 -0.002 0.006
Sc7 0.035 0.009 0.018 0 0.007 0
Sc9 0.035 0.009 0.018 0 0.007 0
Sc10 0.035 0.009 0.018 0 0.007 0
Sc15 0.026 0.014 0.02 -0.004 -0.002 -0.006
loop_
_geom_bond_atom_site_label_1
_geom_bond_atom_site_label_2
_geom_bond_site_symmetry_1
_geom_bond_site_symmetry_2
Sc6 O12 1_555 1_555
O6 C21 1_555 1_555
C19 C20 1_555 1_555
C20 H9 1_555 1_555
C22 C20 1_555 1_555
H10 C22 1_555 1_555
Sc6 O6 1_555 1_555
Sc12 O19 1_555 1_555
Sc14 O16 1_555 1_555
C19 C21 1_555 1_555
O9 C10 1_555 1_555
Sc11 O9 1_555 1_555
Sc6 O1 1_555 1_555
Sc11 O4 1_555 1_555
O1 C1 1_555 1_555
O2 Sc6 1_555 1_555
O3 Sc6 1_555 1_555
O4 C2 1_555 1_555
O7 Sc11 1_555 1_555
C1 O7 1_555 1_555
C2 O2 1_555 1_555
O8 Sc11 1_555 1_555
O11 Sc11 1_555 1_555
C3 O3 1_555 1_555
C5 C4 1_555 1_555
H2 C5 1_555 1_555
C6 C3 1_555 1_555
C7 C6 1_555 1_555
H3 C7 1_555 1_555
C8 C7 1_555 1_555
H4 C8 1_555 1_555
C9 C4 1_555 1_555
C18 C2 1_555 1_555
C23 C18 1_555 1_555
H11 C23 1_555 1_555
C28 C18 1_555 1_555
H14 C28 1_555 1_555
O15 C31 1_555 1_555
C30 C29 1_555 1_555
H15 C30 1_555 1_555
C31 C29 1_555 1_555
H16 C32 1_555 1_555
O22 C48 1_555 1_555
C42 C43 1_555 1_555
C44 C43 1_555 1_555
H22 C44 1_555 1_555
C46 C45 1_555 1_555
H23 C46 1_555 1_555
C47 C42 1_555 1_555
H24 C47 1_555 1_555
C48 C42 1_555 1_555
Sc7 O22 1_555 1_555
Sc9 O15 1_555 1_555
O26 Sc11 1_555 1_555
O33 Sc6 1_555 1_555
O11 C3 1_555 1_555
C5 C6 1_555 1_555
C8 C9 1_555 1_555
C30 C32 1_555 1_555
C44 C45 1_555 1_555
C46 C47 1_555 1_555
O10 C17 1_555 1_555
C11 C12 1_555 1_555
C13 C12 1_555 1_555
H6 C13 1_555 1_555
C15 C14 1_555 1_555
H7 C15 1_555 1_555
C16 C11 1_555 1_555
H8 C16 1_555 1_555
C17 C11 1_555 1_555
H12 C24 1_555 1_555
O13 C25 1_555 1_555
O14 C25 1_555 1_555
C25 C26 1_555 1_555
C26 C24 1_555 1_555
C27 C26 1_555 1_555
H13 C27 1_555 1_555
Sc9 O13 1_555 1_555
Sc14 O14 1_555 1_555
O17 Sc9 1_555 1_555
O18 Sc9 1_555 1_555
O20 Sc14 1_555 1_555
C33 O17 1_555 1_555
O23 Sc14 1_555 1_555
C34 O18 1_555 1_555
C36 C35 1_555 1_555
H18 C36 1_555 1_555
C37 C34 1_555 1_555
C38 C37 1_555 1_555
H19 C38 1_555 1_555
C39 C38 1_555 1_555
H20 C39 1_555 1_555
C40 C35 1_555 1_555
Sc10 O10 1_555 1_555
O25 Sc14 1_555 1_555
O31 Sc14 1_555 1_555
O32 Sc9 1_555 1_555
O35 Sc9 1_555 1_555
C13 C14 1_555 1_555
C15 C16 1_555 1_555
O20 C33 1_555 1_555
O23 C34 1_555 1_555
C36 C37 1_555 1_555
C39 C40 1_555 1_555
O31 C41 1_555 1_555
Sc15 O5 1_555 1_555
Sc10 O24 1_555 1_555
Sc7 O1_2 1_555 1_555
Sc12 O4_2 1_555 1_555
O1_2 C1_2 1_555 1_555
O2_2 Sc7 1_555 1_555
O3_2 Sc7 1_555 1_555
O4_2 C2_2 1_555 1_555
O7_2 Sc12 1_555 1_555
C1_2 O7_2 1_555 1_555
C2_2 O2_2 1_555 1_555
O8_2 Sc12 1_555 1_555
O32 C17_2 1_555 1_555
O11_2 Sc12 1_555 1_555
C3_2 O3_2 1_555 1_555
C11_2 C12_2 1_555 1_555
C13_2 C12_2 1_555 1_555
H6_2 C13_2 1_555 1_555
C14_2 C1_2 1_555 1_555
C15_2 C14_2 1_555 1_555
H7_2 C15_2 1_555 1_555
C16_2 C11_2 1_555 1_555
H8_2 C16_2 1_555 1_555
C17_2 C11_2 1_555 1_555
C18_2 C2_2 1_555 1_555
C23_2 C18_2 1_555 1_555
H11_2 C23_2 1_555 1_555
C28_2 C18_2 1_555 1_555
H16_2 C32_2 1_555 1_555
O27 Sc7 1_555 1_555
O30 Sc12 1_555 1_555
O34 Sc7 1_555 1_555
O11_2 C3_2 1_555 1_555
C13_2 C14_2 1_555 1_555
C15_2 C16_2 1_555 1_555
O30 C10_2 1_555 1_555
C5_2 C4_2 1_555 1_555
H2_2 C5_2 1_555 1_555
C7_2 C6_2 1_555 1_555
H3_2 C7_2 1_555 1_555
C8_2 C7_2 1_555 1_555
H4_2 C8_2 1_555 1_555
C9_2 C4_2 1_555 1_555
C10_2 C9_2 1_555 1_555
C5_2 C6_2 1_555 1_555
C8_2 C9_2 1_555 1_555
O21 C41_2 1_555 1_555
C36_2 C35_2 1_555 1_555
H18_2 C36_2 1_555 1_555
C38_2 C37_2 1_555 1_555
H19_2 C38_2 1_555 1_555
C39_2 C38_2 1_555 1_555
H20_2 C39_2 1_555 1_555
C40_2 C35_2 1_555 1_555
C41_2 C40_2 1_555 1_555
Sc15 O21 1_555 1_555
C36_2 C37_2 1_555 1_555
C39_2 C40_2 1_555 1_555
O13_2 C25_2 1_555 1_555
O14_2 C25_2 1_555 1_555
C25_2 C26_2 1_555 1_555
C26_2 C24_2 1_555 1_555
C27_2 C26_2 1_555 1_555
H13_2 C27_2 1_555 1_555
Sc10 O13_2 1_555 1_555
Sc15 O14_2 1_555 1_555
O17_2 Sc10 1_555 1_555
O18_2 Sc10 1_555 1_555
O20_2 Sc15 1_555 1_555
C33_2 O17_2 1_555 1_555
O33 C48_2 1_555 1_555
O23_2 Sc15 1_555 1_555
C34_2 O18_2 1_555 1_555
C42_2 C43_2 1_555 1_555
C44_2 C43_2 1_555 1_555
H22_2 C44_2 1_555 1_555
C45_2 C33_2 1_555 1_555
C46_2 C45_2 1_555 1_555
H23_2 C46_2 1_555 1_555
C47_2 C42_2 1_555 1_555
H24_2 C47_2 1_555 1_555
C48_2 C42_2 1_555 1_555
O28 Sc10 1_555 1_555
O29 Sc15 1_555 1_555
O20_2 C33_2 1_555 1_555
O23_2 C34_2 1_555 1_555
C44_2 C45_2 1_555 1_555
C46_2 C47_2 1_555 1_555
O28 C31_2 1_555 1_555
C30_2 C29_2 1_555 1_555
H15_2 C30_2 1_555 1_555
C31_2 C29_2 1_555 1_555
O27 C21_2 1_555 1_555
C19_2 C20_2 1_555 1_555
C20_2 H9_2 1_555 1_555
C19_2 C21_2 1_555 1_555
H10_2 C22_2 1_555 1_555

#END
