
###############################################################################
#
# This file contains modified crystal structure data generated from the
# MOF subset of the Cambridge Structural Database (CSD) v543 
# hosted by the Cambridge Crystallographic Data Centre (CCDC).
#
# This work is licensed under the Creative Commons
# Attribution-NonCommercial-ShareAlike 4.0 International License.
# To view a copy of this license, visit
# http://creativecommons.org/licenses/by-nc-sa/4.0/
# or send a letter to
# Creative Commons, PO Box 1866, Mountain View, CA 94042, USA.
#
# CIF created using the CSD Python API on 29 September 2022
# The structure has been converted into the P1 space group
# The structure has a 3D framework
# The original CSD entry BADJAU is in the orthorhombic crystal system
# The framework has been calculated to contain at least 10.0% void space
# The void calculation uses a probe of radius 1.32A, grid spacing 0.4
#
###############################################################################

data_BADJAU
_chemical_formula_moiety         '(C576 H288 O266 Sc46)n'
_symmetry_cell_setting           triclinic
_symmetry_space_group_name_H-M   'P 1'
_symmetry_Int_Tables_number      1
_space_group_name_Hall           'P 1'
loop_
_symmetry_equiv_pos_site_id
_symmetry_equiv_pos_as_xyz
1 x,y,z
_cell_length_a                   8.8824(7)
_cell_length_b                   61.248(3)
_cell_length_c                   33.689(2)
_cell_angle_alpha                90
_cell_angle_beta                 90
_cell_angle_gamma                90
_cell_volume                     18327.8
loop_
_atom_site_label
_atom_site_type_symbol
_atom_site_fract_x
_atom_site_fract_y
_atom_site_fract_z
Sc1 Sc 0.2541(4) 0.58330(3) 0.42633(7)
O1 O 0.1213(18) 0.61027(16) 0.4385(4)
O3 O 0.121(2) 0.72181(15) 0.4078(5)
O13 O 0.1113(18) 0.56473(16) 0.4630(3)
O17 O 0.6170(15) 0.55679(14) 0.3909(3)
O18 O 0.3763(18) 0.55614(14) 0.4114(4)
C1 C 0.002(3) 0.6196(2) 0.4280(5)
C2 C 0.1375(10) 0.65481(14) 0.4248(4)
H1 H 0.2276 0.6471 0.4240
C3 C 0.1387(10) 0.67748(14) 0.4229(4)
H2 H 0.2296 0.6849 0.4209
C4 C 0.0040(12) 0.68902(8) 0.4240(4)
C7 C 0.0016(12) 0.64368(8) 0.4278(4)
C8 C 0.001(3) 0.7128(2) 0.4178(6)
C26 C 0.0263(12) 0.54448(17) 0.5322(3)
H13 H 0.1256 0.5492 0.5304
H14 H 0.0434 0.5312 0.5869
C33 C 0.496(2) 0.54706(19) 0.3992(4)
C34 C 0.4984(18) 0.52238(16) 0.3978(5)
C35 C 0.6330(16) 0.51144(17) 0.3966(4)
H17 H 0.7227 0.5192 0.3952
C36 C 0.6360(18) 0.48896(17) 0.3976(4)
H18 H 0.7272 0.4815 0.3981
O19 O 0.3830(15) 0.44321(14) 0.3909(3)
O20 O 0.6237(18) 0.44386(14) 0.4114(4)
C37 C 0.504(2) 0.45294(19) 0.3992(4)
C38 C 0.5016(18) 0.47762(16) 0.3978(5)
C39 C 0.3670(16) 0.48856(17) 0.3966(4)
H19 H 0.2773 0.4808 0.3952
C40 C 0.3640(18) 0.51104(17) 0.3976(4)
H20 H 0.2728 0.5185 0.3981
Sc6 Sc 0.2490(4) 0.41670(3) 0.40467(7)
O22 O 0.1203(18) 0.39017(14) 0.4198(4)
O24 O 0.112(2) 0.27704(17) 0.4271(5)
O25 O 0.1274(17) 0.35379(15) 0.6186(3)
O26 O 0.3615(16) 0.35310(14) 0.6422(3)
O27 O 0.3759(16) 0.41192(15) 0.4541(3)
O28 O 0.6119(17) 0.40938(17) 0.4758(3)
O30 O 0.1168(16) 0.43768(15) 0.4376(3)
O31 O 0.1314(16) 0.4871(2) 0.6325(3)
O32 O 0.3633(18) 0.4878(2) 0.6095(4)
C45 C 0.1319(10) 0.32211(13) 0.4270(4)
H23 H 0.2220 0.3144 0.4278
C46 C 0.1331(10) 0.34478(13) 0.4289(4)
H24 H 0.2240 0.3522 0.4309
C49 C 0.264(3) 0.3583(2) 0.6164(5)
C50 C 0.5194(10) 0.38859(14) 0.5441(3)
H25 H 0.6207 0.3921 0.5411
C51 C 0.4156(12) 0.39506(14) 0.5155(3)
C52 C 0.2643(11) 0.38981(13) 0.5200(3)
H26 H 0.1949 0.3941 0.5009
C53 C 0.2169(10) 0.37809(13) 0.5531(3)
H27 H 0.1156 0.3746 0.5561
C54 C 0.3207(12) 0.37162(15) 0.5816(2)
C55 C 0.4720(11) 0.37687(14) 0.5771(3)
H28 H 0.5414 0.3725 0.5962
C56 C 0.478(2) 0.4060(2) 0.4793(4)
C57 C 0.022(2) 0.44103(19) 0.4649(4)
C59 C 0.0229(13) 0.46634(18) 0.5660(3)
C60 C 0.1712(13) 0.47342(18) 0.5687(3)
C61 C 0.2703(12) 0.46967(18) 0.5375(3)
H31 H 0.3696 0.4744 0.5393
C62 C 0.2211(13) 0.45886(18) 0.5036(3)
H32 H 0.2874 0.4564 0.4828
C63 C 0.0727(13) 0.45178(18) 0.5010(3)
C64 C 0.226(3) 0.4837(3) 0.6065(5)
O33 O 0.3662(19) 0.5160(2) 0.2177(4)
O34 O 0.1321(18) 0.5124(2) 0.1978(4)
O35 O 0.1233(17) 0.57747(18) 0.3770(3)
C65 C 0.230(3) 0.5203(4) 0.2199(5)
C66 C 0.0762(13) 0.55827(19) 0.3174(3)
C68 C 0.0264(13) 0.53908(19) 0.2564(3)
C69 C 0.1769(14) 0.5330(2) 0.2542(3)
C70 C 0.2771(12) 0.53955(19) 0.2836(3)
H35 H 0.3778 0.5355 0.2821
C71 C 0.2267(13) 0.55218(18) 0.3152(3)
H36 H 0.2937 0.5566 0.3349
C72 C 0.023(2) 0.5712(2) 0.3529(4)
Sc8 Sc 0.7459(4) 0.41670(3) 0.42633(7)
Sc10 Sc 0.4959(4) 0.33330(3) 0.67633(7)
Sc11 Sc 0.7510(4) 0.58330(3) 0.40467(7)
Sc13 Sc 0.0010(4) 0.66670(3) 0.65467(7)
Sc15 Sc 0.2500 0.2500 0.42626(9)
Sc16 Sc 0.0000 0.5000 0.67626(9)
Sc17 Sc 0.5000 0.5000 0.17626(9)
Sc18 Sc 0.2500 0.7500 0.40465(10)
Sc21 Sc 0.5000 0.5000 0.65465(10)
Sc22 Sc 0.0000 0.5000 0.15465(10)
O43 O 0.1141(16) 0.42468(17) 0.3556(3)
O44 O 0.3774(17) 0.39621(15) 0.3686(3)
O47 O 0.3885(16) 0.60310(14) 0.3922(3)
O48 O 0.3881(17) 0.59062(17) 0.4758(3)
Sc3 Sc 0.7500 0.7500 0.42626(9)
O2 O 0.8797(18) 0.60983(14) 0.4198(4)
O4 O 0.888(2) 0.72296(17) 0.4271(5)
O5 O 0.6162(19) 0.7340(2) 0.4677(4)
O6 O 0.3821(18) 0.7376(2) 0.4478(4)
O7 O 0.3733(17) 0.67253(18) 0.6270(3)
O8 O 0.1359(16) 0.67468(17) 0.6056(3)
O9 O 0.8726(17) 0.64621(15) 0.6186(3)
O10 O 0.6385(16) 0.64690(14) 0.6422(3)
O11 O 0.6241(16) 0.58808(15) 0.4541(3)
O14 O 0.8832(16) 0.56232(15) 0.4376(3)
O15 O 0.8686(16) 0.5129(2) 0.6325(3)
O16 O 0.6367(18) 0.5122(2) 0.6095(4)
C5 C 0.8681(10) 0.67789(13) 0.4270(4)
H3 H 0.7780 0.6856 0.4278
C6 C 0.8669(10) 0.65522(13) 0.4289(4)
H4 H 0.7760 0.6478 0.4309
C9 C 0.480(3) 0.7297(4) 0.4699(5)
C10 C 0.3262(13) 0.69173(19) 0.5674(3)
C11 C 0.2260(13) 0.69828(18) 0.5380(3)
H5 H 0.1253 0.6942 0.5395
C12 C 0.2764(13) 0.71092(19) 0.5064(3)
H6 H 0.2094 0.7153 0.4868
C13 C 0.4269(14) 0.7170(2) 0.5042(3)
C14 C 0.5271(12) 0.71045(19) 0.5336(3)
H7 H 0.6278 0.7145 0.5321
C15 C 0.4767(13) 0.69782(18) 0.5652(3)
H8 H 0.5437 0.6934 0.5849
C16 C 0.273(2) 0.6788(2) 0.6029(4)
C17 C 0.736(3) 0.6417(2) 0.6164(5)
C18 C 0.4806(10) 0.61141(14) 0.5441(3)
H9 H 0.3793 0.6079 0.5411
C19 C 0.5844(12) 0.60494(14) 0.5155(3)
C20 C 0.7357(11) 0.61019(13) 0.5200(3)
H10 H 0.8051 0.6059 0.5009
C21 C 0.7831(10) 0.62191(13) 0.5531(3)
H11 H 0.8844 0.6254 0.5561
C22 C 0.6793(12) 0.62838(15) 0.5816(2)
C23 C 0.5280(11) 0.62313(14) 0.5771(3)
H12 H 0.4586 0.6275 0.5962
C24 C 0.522(2) 0.5940(2) 0.4793(4)
C25 C 0.978(2) 0.55897(19) 0.4649(4)
C27 C 0.9771(13) 0.53366(18) 0.5660(3)
C28 C 0.8288(13) 0.52658(18) 0.5687(3)
C29 C 0.7297(12) 0.53033(18) 0.5375(3)
H15 H 0.6304 0.5256 0.5393
C30 C 0.7789(13) 0.54114(18) 0.5036(3)
H16 H 0.7126 0.5436 0.4828
C31 C 0.9273(13) 0.54822(18) 0.5010(3)
C32 C 0.774(3) 0.5163(3) 0.6065(5)
O21 O 0.8787(18) 0.38973(16) 0.4385(4)
O23 O 0.879(2) 0.27819(15) 0.4078(5)
O29 O 0.8887(18) 0.43527(16) 0.4630(3)
C41 C 0.998(3) 0.3804(2) 0.4280(5)
C42 C 0.8625(10) 0.34519(14) 0.4248(4)
H21 H 0.7724 0.3529 0.4240
C43 C 0.8613(10) 0.32252(14) 0.4229(4)
H22 H 0.7704 0.3151 0.4209
C44 C 0.9960(12) 0.31098(8) 0.4240(4)
C47 C 0.9984(12) 0.35632(8) 0.4278(4)
C48 C 0.999(3) 0.2872(2) 0.4178(6)
C58 C 0.9737(12) 0.45552(17) 0.5322(3)
H29 H 0.8744 0.4508 0.5304
H30 H 0.9566 0.4688 0.5869
O36 O 0.8859(16) 0.57532(17) 0.3556(3)
C67 C 0.9760(13) 0.55172(18) 0.2880(3)
H33 H 0.8753 0.5558 0.2895
H34 H 0.9594 0.5347 0.2368
Sc9 Sc 0.5041(4) 0.66670(3) 0.67633(7)
Sc14 Sc 0.9990(4) 0.33330(3) 0.65467(7)
Sc16_2 Sc 1.0000 0.5000 0.67626(9)
Sc19 Sc 0.7500 0.2500 0.40465(10)
Sc22_2 Sc 1.0000 0.5000 0.15465(10)
O38 O 0.379(2) 0.77819(15) 0.4078(5)
O39 O 0.612(2) 0.77704(17) 0.4271(5)
O40 O 0.8838(19) 0.7660(2) 0.4677(4)
O41 O 0.1179(18) 0.7624(2) 0.4478(4)
O42 O 0.8767(17) 0.42253(18) 0.3770(3)
O45 O 0.6226(17) 0.60379(15) 0.3686(3)
O46 O 0.6115(16) 0.39690(14) 0.3922(3)
O50 O 0.6186(16) 0.7371(2) 0.3825(3)
O51 O 0.8814(16) 0.7629(2) 0.3825(3)
O52 O 0.3867(18) 0.7378(2) 0.3595(4)
O53 O 0.1133(18) 0.7622(2) 0.3595(4)
O5_2 O 0.3838(19) 0.2660(2) 0.4677(4)
O6_2 O 0.6179(18) 0.2624(2) 0.4478(4)
O7_2 O 0.6267(17) 0.32747(18) 0.6270(3)
O8_2 O 0.8641(16) 0.32532(17) 0.6056(3)
C9_2 C 0.520(3) 0.2703(4) 0.4699(5)
C10_2 C 0.6738(13) 0.30827(19) 0.5674(3)
C11_2 C 0.7740(13) 0.30172(18) 0.5380(3)
H5_2 H 0.8747 0.3058 0.5395
C12_2 C 0.7236(13) 0.28908(19) 0.5064(3)
H6_2 H 0.7906 0.2847 0.4868
C13_2 C 0.5731(14) 0.2830(2) 0.5042(3)
C14_2 C 0.4729(12) 0.28955(19) 0.5336(3)
H7_2 H 0.3722 0.2855 0.5321
C15_2 C 0.5233(13) 0.30218(18) 0.5652(3)
H8_2 H 0.4563 0.3066 0.5849
C16_2 C 0.727(2) 0.3212(2) 0.6029(4)
C67_2 C 0.0240(13) 0.44828(18) 0.2880(3)
H33_2 H 0.1247 0.4442 0.2895
H34_2 H 0.0406 0.4653 0.2368
O38_2 O 0.621(2) 0.22181(15) 0.4078(5)
O39_2 O 0.388(2) 0.22296(17) 0.4271(5)
O40_2 O 0.1162(19) 0.2340(2) 0.4677(4)
O41_2 O 0.8821(18) 0.2376(2) 0.4478(4)
O50_2 O 0.3814(16) 0.2629(2) 0.3825(3)
O51_2 O 0.1186(16) 0.2371(2) 0.3825(3)
O52_2 O 0.6133(18) 0.2622(2) 0.3595(4)
O53_2 O 0.8867(18) 0.2378(2) 0.3595(4)
O33_2 O 0.6338(19) 0.4840(2) 0.2177(4)
O34_2 O 0.8679(18) 0.4876(2) 0.1978(4)
C65_2 C 0.770(3) 0.4797(4) 0.2199(5)
C66_2 C 0.9238(13) 0.44173(19) 0.3174(3)
C68_2 C 0.9736(13) 0.46092(19) 0.2564(3)
C69_2 C 0.8231(14) 0.4670(2) 0.2542(3)
C70_2 C 0.7229(12) 0.46045(19) 0.2836(3)
H35_2 H 0.6222 0.4645 0.2821
C71_2 C 0.7733(13) 0.44782(18) 0.3152(3)
H36_2 H 0.7063 0.4434 0.3349
C72_2 C 0.977(2) 0.4288(2) 0.3529(4)
Sc15_2 Sc 0.5000 0.0000 0.67626(9)
Sc19_2 Sc -0.0000 0.0000 0.65465(10)
O1_2 O 0.3713(18) 0.63973(16) 0.6885(4)
O2_2 O 0.1297(18) 0.64017(14) 0.6698(4)
O3_2 O 0.371(2) 0.52819(15) 0.6578(5)
O4_2 O 0.138(2) 0.52704(17) 0.6771(5)
O9_2 O 0.1226(17) 0.60379(15) 0.8686(3)
O13_2 O 0.3613(18) 0.68527(16) 0.7130(3)
O14_2 O 0.1332(16) 0.68768(15) 0.6876(3)
O15_2 O 0.1186(16) 0.7371(2) 0.8825(3)
O17_2 O 0.8670(15) 0.69321(14) 0.6409(3)
O18_2 O 0.6263(18) 0.69386(14) 0.6614(4)
C1_2 C 0.252(3) 0.6304(2) 0.6780(5)
C2_2 C 0.3875(10) 0.59519(14) 0.6748(4)
H1_2 H 0.4776 0.6029 0.6740
C3_2 C 0.3887(10) 0.57252(14) 0.6729(4)
H2_2 H 0.4796 0.5651 0.6709
C4_2 C 0.2540(12) 0.56098(8) 0.6740(4)
C5_2 C 0.1181(10) 0.57211(13) 0.6770(4)
H3_2 H 0.0280 0.5644 0.6778
C6_2 C 0.1169(10) 0.59478(13) 0.6789(4)
H4_2 H 0.0260 0.6022 0.6809
C7_2 C 0.2516(12) 0.60632(8) 0.6778(4)
C8_2 C 0.251(3) 0.5372(2) 0.6678(6)
H10_2 H 0.0551 0.6441 0.7509
C21_2 C 0.0331(10) 0.62809(13) 0.8031(3)
H11_2 H 0.1344 0.6246 0.8061
C25_2 C 0.228(2) 0.69103(19) 0.7149(4)
C26_2 C 0.2763(12) 0.70552(17) 0.7822(3)
H13_2 H 0.3756 0.7008 0.7804
C27_2 C 0.2271(13) 0.71634(18) 0.8160(3)
H14_2 H 0.2934 0.7188 0.8369
C28_2 C 0.0788(13) 0.72342(18) 0.8187(3)
C30_2 C 0.0289(13) 0.70886(18) 0.7536(3)
C31_2 C 0.1773(13) 0.70178(18) 0.7510(3)
C32_2 C 0.024(3) 0.7337(3) 0.8565(5)
C33_2 C 0.746(2) 0.70294(19) 0.6492(4)
C34_2 C 0.7484(18) 0.72762(16) 0.6478(5)
C35_2 C 0.8830(16) 0.73856(17) 0.6466(4)
H17_2 H 0.9727 0.7308 0.6452
C36_2 C 0.8860(18) 0.76104(17) 0.6476(4)
H18_2 H 0.9772 0.7685 0.6481
O19_2 O 0.6330(15) 0.80679(14) 0.6409(3)
O20_2 O 0.8737(18) 0.80614(14) 0.6614(4)
C37_2 C 0.754(2) 0.79706(19) 0.6492(4)
C38_2 C 0.7516(18) 0.77238(16) 0.6478(5)
C39_2 C 0.6170(16) 0.76144(17) 0.6466(4)
H19_2 H 0.5273 0.7692 0.6452
C40_2 C 0.6140(18) 0.73896(17) 0.6476(4)
H20_2 H 0.5228 0.7315 0.6481
Sc6_2 Sc 0.4990(4) 0.83330(3) 0.65467(7)
O21_2 O 0.1287(18) 0.86027(16) 0.6885(4)
O22_2 O 0.3703(18) 0.85983(14) 0.6698(4)
O23_2 O 0.129(2) 0.97181(15) 0.6578(5)
O24_2 O 0.362(2) 0.97296(17) 0.6771(5)
O25_2 O 0.3774(17) 0.89621(15) 0.8686(3)
O26_2 O 0.6115(16) 0.89690(14) 0.8922(3)
O27_2 O 0.6259(16) 0.83808(15) 0.7041(3)
O28_2 O 0.8619(17) 0.84062(17) 0.7258(3)
O29_2 O 0.1387(18) 0.81473(16) 0.7130(3)
O30_2 O 0.3668(16) 0.81232(15) 0.6876(3)
O31_2 O 0.3814(16) 0.7629(2) 0.8825(3)
O32_2 O 0.6133(18) 0.7622(2) 0.8595(4)
C41_2 C 0.248(3) 0.8696(2) 0.6780(5)
C42_2 C 0.1125(10) 0.90481(14) 0.6748(4)
H21_2 H 0.0224 0.8971 0.6740
C43_2 C 0.1113(10) 0.92748(14) 0.6729(4)
H22_2 H 0.0204 0.9349 0.6709
C44_2 C 0.2460(12) 0.93902(8) 0.6740(4)
C45_2 C 0.3819(10) 0.92789(13) 0.6770(4)
H23_2 H 0.4720 0.9356 0.6778
C46_2 C 0.3831(10) 0.90522(13) 0.6789(4)
H24_2 H 0.4740 0.8978 0.6809
C47_2 C 0.2484(12) 0.89368(8) 0.6778(4)
C48_2 C 0.249(3) 0.9628(2) 0.6678(6)
C49_2 C 0.514(3) 0.8917(2) 0.8664(5)
C50_2 C 0.7694(10) 0.86141(14) 0.7941(3)
H25_2 H 0.8707 0.8579 0.7911
C51_2 C 0.6656(12) 0.85494(14) 0.7655(3)
C52_2 C 0.5143(11) 0.86019(13) 0.7700(3)
H26_2 H 0.4449 0.8559 0.7509
C53_2 C 0.4669(10) 0.87191(13) 0.8031(3)
H27_2 H 0.3656 0.8754 0.8061
C54_2 C 0.5707(12) 0.87838(15) 0.8316(2)
C55_2 C 0.7220(11) 0.87313(14) 0.8271(3)
H28_2 H 0.7914 0.8775 0.8462
C56_2 C 0.728(2) 0.8440(2) 0.7293(4)
C57_2 C 0.272(2) 0.80897(19) 0.7149(4)
C58_2 C 0.2237(12) 0.79448(17) 0.7822(3)
H29_2 H 0.1244 0.7992 0.7804
C59_2 C 0.2729(13) 0.78366(18) 0.8160(3)
H30_2 H 0.2066 0.7812 0.8369
C60_2 C 0.4212(13) 0.77658(18) 0.8187(3)
C61_2 C 0.5203(12) 0.78033(18) 0.7875(3)
H31_2 H 0.6196 0.7756 0.7893
C62_2 C 0.4711(13) 0.79114(18) 0.7536(3)
H32_2 H 0.5374 0.7936 0.7328
C63_2 C 0.3227(13) 0.79822(18) 0.7510(3)
C64_2 C 0.476(3) 0.7663(3) 0.8565(5)
Sc8_2 Sc 0.9959(4) 0.83330(3) 0.67633(7)
Sc10_2 Sc 0.7459(4) 0.91670(3) 0.92633(7)
Sc13_2 Sc 0.2510(4) 0.58330(3) 0.90467(7)
Sc14_2 Sc 0.2490(4) 0.91670(3) 0.90467(7)
Sc15_3 Sc 0.5000 1.0000 0.67626(9)
Sc16_3 Sc 0.2500 0.7500 0.92626(9)
Sc19_3 Sc -0.0000 1.0000 0.65465(10)
Sc21_2 Sc 0.7500 0.7500 0.90465(10)
O40_3 O 0.1338(19) 0.4840(2) 0.7177(4)
O42_2 O 0.1267(17) 0.82747(18) 0.6270(3)
O43_2 O 0.3641(16) 0.82532(17) 0.6056(3)
O44_2 O 0.6274(17) 0.85379(15) 0.6186(3)
O48_2 O 0.6381(17) 0.65938(17) 0.7258(3)
Sc19_4 Sc 1.0000 0.0000 0.65465(10)
O5_3 O 0.8662(19) 0.5160(2) 0.7177(4)
O6_3 O 0.6321(18) 0.5124(2) 0.6978(4)
O7_3 O 0.6233(17) 0.57747(18) 0.8770(3)
O8_3 O 0.3859(16) 0.57532(17) 0.8556(3)
O10_2 O 0.8885(16) 0.60310(14) 0.8922(3)
O11_2 O 0.8741(16) 0.66192(15) 0.7041(3)
O16_2 O 0.8867(18) 0.7378(2) 0.8595(4)
C9_3 C 0.730(3) 0.5203(4) 0.7199(5)
C10_3 C 0.5762(13) 0.55827(19) 0.8174(3)
C11_3 C 0.4760(13) 0.55172(18) 0.7880(3)
H5_3 H 0.3753 0.5558 0.7895
C12_3 C 0.5264(13) 0.53908(19) 0.7564(3)
H6_3 H 0.4594 0.5347 0.7368
C13_3 C 0.6769(14) 0.5330(2) 0.7542(3)
C14_3 C 0.7771(12) 0.53955(19) 0.7836(3)
H7_3 H 0.8778 0.5355 0.7821
C15_3 C 0.7267(13) 0.55218(18) 0.8152(3)
H8_3 H 0.7937 0.5566 0.8349
C16_3 C 0.523(2) 0.5712(2) 0.8529(4)
C17_2 C 0.986(3) 0.6083(2) 0.8664(5)
C18_2 C 0.7306(10) 0.63859(14) 0.7941(3)
H9_2 H 0.6293 0.6421 0.7911
C19_2 C 0.8344(12) 0.64506(14) 0.7655(3)
C20_2 C 0.9857(11) 0.63981(13) 0.7700(3)
C22_2 C 0.9293(12) 0.62162(15) 0.8316(2)
C23_2 C 0.7780(11) 0.62687(14) 0.8271(3)
H12_2 H 0.7086 0.6225 0.8462
C24_2 C 0.772(2) 0.6560(2) 0.7293(4)
C29_2 C 0.9797(12) 0.71967(18) 0.7875(3)
H15_2 H 0.8804 0.7244 0.7893
H16_2 H 0.9626 0.7064 0.7328
Sc9_2 Sc 0.7541(4) 0.58330(3) 0.92633(7)
Sc19_5 Sc 1.0000 1.0000 0.65465(10)
O38_3 O 0.629(2) 0.47181(15) 0.6578(5)
O39_3 O 0.862(2) 0.47296(17) 0.6771(5)
O41_3 O 0.3679(18) 0.4876(2) 0.6978(4)
O46_2 O 0.8615(16) 0.85310(14) 0.6422(3)
O41_4 O 0.1321(18) 0.0124(2) 0.6978(4)
O53_3 O 0.1367(18) 0.0122(2) 0.6095(4)
O8_4 O 0.1141(16) 0.92468(17) 0.8556(3)
C11_4 C 0.0240(13) 0.94828(18) 0.7880(3)
H5_4 H 0.1247 0.9442 0.7895
H6_4 H 0.0406 0.9653 0.7368
O38_4 O 0.871(2) 0.02819(15) 0.6578(5)
O39_4 O 0.638(2) 0.02704(17) 0.6771(5)
O40_4 O 0.3662(19) 0.0160(2) 0.7177(4)
O51_3 O 0.3686(16) 0.0129(2) 0.6325(3)
O5_4 O 0.6338(19) 0.9840(2) 0.7177(4)
O6_4 O 0.8679(18) 0.9876(2) 0.6978(4)
O7_4 O 0.8767(17) 0.92253(18) 0.8770(3)
C9_4 C 0.770(3) 0.9797(4) 0.7199(5)
C10_4 C 0.9238(13) 0.94173(19) 0.8174(3)
C12_4 C 0.9736(13) 0.96092(19) 0.7564(3)
C13_4 C 0.8231(14) 0.9670(2) 0.7542(3)
C14_4 C 0.7229(12) 0.96045(19) 0.7836(3)
H7_4 H 0.6222 0.9645 0.7821
C15_4 C 0.7733(13) 0.94782(18) 0.8152(3)
H8_4 H 0.7063 0.9434 0.8349
C16_4 C 0.977(2) 0.9288(2) 0.8529(4)
C65_3 C 0.020(3) 0.7703(4) 0.4699(5)
C66_3 C 0.1738(13) 0.80827(19) 0.5674(3)
C67_3 C 0.2740(13) 0.80172(18) 0.5380(3)
H33_3 H 0.3747 0.8058 0.5395
C68_3 C 0.2236(13) 0.78908(19) 0.5064(3)
H34_3 H 0.2906 0.7847 0.4868
C69_3 C 0.0731(14) 0.7830(2) 0.5042(3)
C71_3 C 0.0233(13) 0.80218(18) 0.5652(3)
C72_3 C 0.227(2) 0.8212(2) 0.6029(4)
O50_3 O 0.6314(16) 0.9871(2) 0.6325(3)
O52_3 O 0.8633(18) 0.9878(2) 0.6095(4)
C70_3 C 0.9729(12) 0.78955(19) 0.5336(3)
H35_3 H 0.8722 0.7855 0.5321
H36_3 H 0.9563 0.8066 0.5849
C26_3 C 0.0263(12) 0.04448(17) 0.0322(3)
H13_3 H 0.1256 0.0492 0.0304
H14_3 H 0.0434 0.0312 0.0869
Sc13_3 Sc 0.0010(4) 0.16670(3) 0.15467(7)
Sc16_4 Sc 0.0000 0.0000 0.17626(9)
Sc21_3 Sc 0.5000 0.0000 0.15465(10)
Sc1_2 Sc 0.2541(4) 0.08330(3) 0.92633(7)
O1_3 O 0.1213(18) 0.11027(16) 0.9385(4)
O3_3 O 0.121(2) 0.22181(15) 0.9078(5)
O13_3 O 0.1113(18) 0.06473(16) 0.9630(3)
O17_3 O 0.6170(15) 0.05679(14) 0.8909(3)
O18_3 O 0.3763(18) 0.05614(14) 0.9114(4)
C1_3 C 0.002(3) 0.1196(2) 0.9280(5)
C2_3 C 0.1375(10) 0.15481(14) 0.9248(4)
H1_3 H 0.2276 0.1471 0.9240
C3_3 C 0.1387(10) 0.17748(14) 0.9229(4)
H2_3 H 0.2296 0.1849 0.9209
C4_3 C 0.0040(12) 0.18902(8) 0.9240(4)
C7_3 C 0.0016(12) 0.14368(8) 0.9278(4)
C8_3 C 0.001(3) 0.2128(2) 0.9178(6)
C33_3 C 0.496(2) 0.04706(19) 0.8992(4)
C34_3 C 0.4984(18) 0.02238(16) 0.8978(5)
C35_3 C 0.6330(16) 0.01144(17) 0.8966(4)
H17_3 H 0.7227 0.0192 0.8952
C40_3 C 0.3640(18) 0.01104(17) 0.8976(4)
H20_3 H 0.2728 0.0185 0.8981
O35_2 O 0.1233(17) 0.07747(18) 0.8770(3)
C65_4 C 0.230(3) 0.0203(4) 0.7199(5)
C66_4 C 0.0762(13) 0.05827(19) 0.8174(3)
C68_4 C 0.0264(13) 0.03908(19) 0.7564(3)
C69_4 C 0.1769(14) 0.0330(2) 0.7542(3)
C70_4 C 0.2771(12) 0.03955(19) 0.7836(3)
H35_4 H 0.3778 0.0355 0.7821
C71_4 C 0.2267(13) 0.05218(18) 0.8152(3)
H36_4 H 0.2937 0.0566 0.8349
C72_4 C 0.023(2) 0.0712(2) 0.8529(4)
Sc11_2 Sc 0.7510(4) 0.08330(3) 0.90467(7)
Sc18_2 Sc 0.2500 0.2500 0.90465(10)
O47_2 O 0.3885(16) 0.10310(14) 0.8922(3)
O48_3 O 0.3881(17) 0.09062(17) 0.9758(3)
O25_3 O 0.1274(17) 0.85379(15) 0.1186(3)
O26_3 O 0.3615(16) 0.85310(14) 0.1422(3)
O31_3 O 0.1314(16) 0.9871(2) 0.1325(3)
O32_3 O 0.3633(18) 0.9878(2) 0.1095(4)
C49_3 C 0.264(3) 0.8583(2) 0.1164(5)
C50_3 C 0.5194(10) 0.88859(14) 0.0441(3)
H25_3 H 0.6207 0.8921 0.0411
C51_3 C 0.4156(12) 0.89506(14) 0.0155(3)
C52_3 C 0.2643(11) 0.88981(13) 0.0200(3)
H26_3 H 0.1949 0.8941 0.0009
C53_3 C 0.2169(10) 0.87809(13) 0.0531(3)
H27_3 H 0.1156 0.8746 0.0561
C54_3 C 0.3207(12) 0.87162(15) 0.0816(2)
C55_3 C 0.4720(11) 0.87687(14) 0.0771(3)
H28_3 H 0.5414 0.8725 0.0962
C59_3 C 0.0229(13) 0.96634(18) 0.0660(3)
C60_3 C 0.1712(13) 0.97342(18) 0.0687(3)
C61_3 C 0.2703(12) 0.96967(18) 0.0375(3)
H31_3 H 0.3696 0.9744 0.0393
C62_3 C 0.2211(13) 0.95886(18) 0.0036(3)
C63_3 C 0.0727(13) 0.95178(18) 0.0010(3)
C64_3 C 0.226(3) 0.9837(3) 0.1065(5)
Sc10_3 Sc 0.4959(4) 0.83330(3) 0.17633(7)
Sc16_5 Sc -0.0000 1.0000 0.17626(9)
Sc21_4 Sc 0.5000 1.0000 0.15465(10)
C36_3 C 0.6360(18) 0.98896(17) 0.8976(4)
H18_3 H 0.7272 0.9815 0.8981
O19_3 O 0.3830(15) 0.94321(14) 0.8909(3)
O20_3 O 0.6237(18) 0.94386(14) 0.9114(4)
C37_3 C 0.504(2) 0.95294(19) 0.8992(4)
C38_3 C 0.5016(18) 0.97762(16) 0.8978(5)
C39_3 C 0.3670(16) 0.98856(17) 0.8966(4)
H19_3 H 0.2773 0.9808 0.8952
O22_3 O 0.1203(18) 0.89017(14) 0.9198(4)
O24_3 O 0.112(2) 0.77704(17) 0.9271(5)
O27_3 O 0.3759(16) 0.91192(15) 0.9541(3)
O28_3 O 0.6119(17) 0.90938(17) 0.9758(3)
O30_3 O 0.1168(16) 0.93768(15) 0.9376(3)
C45_3 C 0.1319(10) 0.82211(13) 0.9270(4)
H23_3 H 0.2220 0.8144 0.9278
C46_3 C 0.1331(10) 0.84478(13) 0.9289(4)
H24_3 H 0.2240 0.8522 0.9309
C56_3 C 0.478(2) 0.9060(2) 0.9793(4)
C57_3 C 0.022(2) 0.94103(19) 0.9649(4)
H32_3 H 0.2874 0.9564 0.9828
O7_5 O 0.3733(17) 0.17253(18) 0.1270(3)
O8_5 O 0.1359(16) 0.17468(17) 0.1056(3)
O9_3 O 0.8726(17) 0.14621(15) 0.1186(3)
O10_3 O 0.6385(16) 0.14690(14) 0.1422(3)
O15_3 O 0.8686(16) 0.0129(2) 0.1325(3)
O16_3 O 0.6367(18) 0.0122(2) 0.1095(4)
C10_5 C 0.3262(13) 0.19173(19) 0.0674(3)
C11_5 C 0.2260(13) 0.19828(18) 0.0380(3)
H5_5 H 0.1253 0.1942 0.0395
C12_5 C 0.2764(13) 0.21092(19) 0.0064(3)
C13_5 C 0.4269(14) 0.2170(2) 0.0042(3)
C14_5 C 0.5271(12) 0.21045(19) 0.0336(3)
H7_5 H 0.6278 0.2145 0.0321
C15_5 C 0.4767(13) 0.19782(18) 0.0652(3)
H8_5 H 0.5437 0.1934 0.0849
C16_5 C 0.273(2) 0.1788(2) 0.1029(4)
C17_3 C 0.736(3) 0.1417(2) 0.1164(5)
C18_3 C 0.4806(10) 0.11141(14) 0.0441(3)
H9_3 H 0.3793 0.1079 0.0411
C19_3 C 0.5844(12) 0.10494(14) 0.0155(3)
C20_3 C 0.7357(11) 0.11019(13) 0.0200(3)
H10_3 H 0.8051 0.1059 0.0009
C21_3 C 0.7831(10) 0.12191(13) 0.0531(3)
H11_3 H 0.8844 0.1254 0.0561
C22_3 C 0.6793(12) 0.12838(15) 0.0816(2)
C23_3 C 0.5280(11) 0.12313(14) 0.0771(3)
H12_3 H 0.4586 0.1275 0.0962
C27_3 C 0.9771(13) 0.03366(18) 0.0660(3)
C28_3 C 0.8288(13) 0.02658(18) 0.0687(3)
C29_3 C 0.7297(12) 0.03033(18) 0.0375(3)
H15_3 H 0.6304 0.0256 0.0393
C30_3 C 0.7789(13) 0.04114(18) 0.0036(3)
C31_3 C 0.9273(13) 0.04822(18) 0.0010(3)
C32_3 C 0.774(3) 0.0163(3) 0.1065(5)
Sc9_3 Sc 0.5041(4) 0.16670(3) 0.17633(7)
Sc16_6 Sc 1.0000 0.0000 0.17626(9)
Sc3_2 Sc 0.7500 0.2500 0.92626(9)
O2_3 O 0.8797(18) 0.10983(14) 0.9198(4)
O4_3 O 0.888(2) 0.22296(17) 0.9271(5)
O5_5 O 0.6162(19) 0.2340(2) 0.9677(4)
O6_5 O 0.3821(18) 0.2376(2) 0.9478(4)
O11_3 O 0.6241(16) 0.08808(15) 0.9541(3)
O14_3 O 0.8832(16) 0.06232(15) 0.9376(3)
C5_3 C 0.8681(10) 0.17789(13) 0.9270(4)
H3_3 H 0.7780 0.1856 0.9278
C6_3 C 0.8669(10) 0.15522(13) 0.9289(4)
H4_3 H 0.7760 0.1478 0.9309
C9_5 C 0.480(3) 0.2297(4) 0.9699(5)
H6_5 H 0.2094 0.2153 0.9868
C24_3 C 0.522(2) 0.0940(2) 0.9793(4)
C25_3 C 0.978(2) 0.05897(19) 0.9649(4)
H16_3 H 0.7126 0.0436 0.9828
O36_2 O 0.8859(16) 0.07532(17) 0.8556(3)
C67_4 C 0.9760(13) 0.05172(18) 0.7880(3)
H33_4 H 0.8753 0.0558 0.7895
H34_4 H 0.9594 0.0347 0.7368
O38_5 O 0.379(2) 0.27819(15) 0.9078(5)
O39_5 O 0.612(2) 0.27704(17) 0.9271(5)
O40_5 O 0.8838(19) 0.2660(2) 0.9677(4)
O41_5 O 0.1179(18) 0.2624(2) 0.9478(4)
O45_2 O 0.6226(17) 0.10379(15) 0.8686(3)
O50_4 O 0.6186(16) 0.2371(2) 0.8825(3)
O51_4 O 0.8814(16) 0.2629(2) 0.8825(3)
O52_4 O 0.3867(18) 0.2378(2) 0.8595(4)
O53_4 O 0.1133(18) 0.2622(2) 0.8595(4)
C58_3 C 0.9737(12) 0.95552(17) 0.0322(3)
H29_3 H 0.8744 0.9508 0.0304
H30_3 H 0.9566 0.9688 0.0869
Sc14_3 Sc 0.9990(4) 0.83330(3) 0.15467(7)
Sc16_7 Sc 1.0000 1.0000 0.17626(9)
O21_3 O 0.8787(18) 0.88973(16) 0.9385(4)
O23_3 O 0.879(2) 0.77819(15) 0.9078(5)
O29_3 O 0.8887(18) 0.93527(16) 0.9630(3)
C41_3 C 0.998(3) 0.8804(2) 0.9280(5)
C42_3 C 0.8625(10) 0.84519(14) 0.9248(4)
H21_3 H 0.7724 0.8529 0.9240
C43_3 C 0.8613(10) 0.82252(14) 0.9229(4)
H22_3 H 0.7704 0.8151 0.9209
C44_3 C 0.9960(12) 0.81098(8) 0.9240(4)
C47_3 C 0.9984(12) 0.85632(8) 0.9278(4)
C48_3 C 0.999(3) 0.7872(2) 0.9178(6)
O7_6 O 0.6267(17) 0.82747(18) 0.1270(3)
O8_6 O 0.8641(16) 0.82532(17) 0.1056(3)
C10_6 C 0.6738(13) 0.80827(19) 0.0674(3)
C11_6 C 0.7740(13) 0.80172(18) 0.0380(3)
H5_6 H 0.8747 0.8058 0.0395
C12_6 C 0.7236(13) 0.78908(19) 0.0064(3)
C13_6 C 0.5731(14) 0.7830(2) 0.0042(3)
C14_6 C 0.4729(12) 0.78955(19) 0.0336(3)
H7_6 H 0.3722 0.7855 0.0321
C15_6 C 0.5233(13) 0.80218(18) 0.0652(3)
H8_6 H 0.4563 0.8066 0.0849
C16_6 C 0.727(2) 0.8212(2) 0.1029(4)
O5_6 O 0.3838(19) 0.7660(2) 0.9677(4)
O6_6 O 0.6179(18) 0.7624(2) 0.9478(4)
C9_6 C 0.520(3) 0.7703(4) 0.9699(5)
H6_6 H 0.7906 0.7847 0.9868
O38_6 O 0.621(2) 0.72181(15) 0.9078(5)
O39_6 O 0.388(2) 0.72296(17) 0.9271(5)
O40_6 O 0.1162(19) 0.7340(2) 0.9677(4)
O41_6 O 0.8821(18) 0.7376(2) 0.9478(4)
O1_4 O 0.3713(18) 0.13973(16) 0.1885(4)
O2_4 O 0.1297(18) 0.14017(14) 0.1698(4)
O3_4 O 0.371(2) 0.02819(15) 0.1578(5)
O4_4 O 0.138(2) 0.02704(17) 0.1771(5)
O9_4 O 0.1226(17) 0.10379(15) 0.3686(3)
O13_4 O 0.3613(18) 0.18527(16) 0.2130(3)
O14_4 O 0.1332(16) 0.18768(15) 0.1876(3)
O17_4 O 0.8670(15) 0.19321(14) 0.1409(3)
O18_4 O 0.6263(18) 0.19386(14) 0.1614(4)
C1_4 C 0.252(3) 0.1304(2) 0.1780(5)
C2_4 C 0.3875(10) 0.09519(14) 0.1748(4)
H1_4 H 0.4776 0.1029 0.1740
C3_4 C 0.3887(10) 0.07252(14) 0.1729(4)
H2_4 H 0.4796 0.0651 0.1709
C4_4 C 0.2540(12) 0.06098(8) 0.1740(4)
C5_4 C 0.1181(10) 0.07211(13) 0.1770(4)
H3_4 H 0.0280 0.0644 0.1778
C6_4 C 0.1169(10) 0.09478(13) 0.1789(4)
H4_4 H 0.0260 0.1022 0.1809
C7_4 C 0.2516(12) 0.10632(8) 0.1778(4)
C8_4 C 0.251(3) 0.0372(2) 0.1678(6)
H10_4 H 0.0551 0.1441 0.2509
C21_4 C 0.0331(10) 0.12809(13) 0.3031(3)
H11_4 H 0.1344 0.1246 0.3061
C25_4 C 0.228(2) 0.19103(19) 0.2149(4)
C26_4 C 0.2763(12) 0.20552(17) 0.2822(3)
H13_4 H 0.3756 0.2008 0.2804
C27_4 C 0.2271(13) 0.21634(18) 0.3160(3)
H14_4 H 0.2934 0.2188 0.3369
C28_4 C 0.0788(13) 0.22342(18) 0.3187(3)
C30_4 C 0.0289(13) 0.20886(18) 0.2536(3)
C31_4 C 0.1773(13) 0.20178(18) 0.2510(3)
C32_4 C 0.024(3) 0.2337(3) 0.3565(5)
C33_4 C 0.746(2) 0.20294(19) 0.1492(4)
C34_4 C 0.7484(18) 0.22762(16) 0.1478(5)
C35_4 C 0.8830(16) 0.23856(17) 0.1466(4)
H17_4 H 0.9727 0.2308 0.1452
C36_4 C 0.8860(18) 0.26104(17) 0.1476(4)
H18_4 H 0.9772 0.2685 0.1481
O19_4 O 0.6330(15) 0.30679(14) 0.1409(3)
O20_4 O 0.8737(18) 0.30614(14) 0.1614(4)
C37_4 C 0.754(2) 0.29706(19) 0.1492(4)
C38_4 C 0.7516(18) 0.27238(16) 0.1478(5)
C39_4 C 0.6170(16) 0.26144(17) 0.1466(4)
H19_4 H 0.5273 0.2692 0.1452
C40_4 C 0.6140(18) 0.23896(17) 0.1476(4)
H20_4 H 0.5228 0.2315 0.1481
Sc6_3 Sc 0.4990(4) 0.33330(3) 0.15467(7)
O21_4 O 0.1287(18) 0.36027(16) 0.1885(4)
O22_4 O 0.3703(18) 0.35983(14) 0.1698(4)
O23_4 O 0.129(2) 0.47181(15) 0.1578(5)
O24_4 O 0.362(2) 0.47296(17) 0.1771(5)
O27_4 O 0.6259(16) 0.33808(15) 0.2041(3)
O28_4 O 0.8619(17) 0.34062(17) 0.2258(3)
O29_4 O 0.1387(18) 0.31473(16) 0.2130(3)
O30_4 O 0.3668(16) 0.31232(15) 0.1876(3)
C41_4 C 0.248(3) 0.3696(2) 0.1780(5)
C42_4 C 0.1125(10) 0.40481(14) 0.1748(4)
H21_4 H 0.0224 0.3971 0.1740
C43_4 C 0.1113(10) 0.42748(14) 0.1729(4)
H22_4 H 0.0204 0.4349 0.1709
C44_4 C 0.2460(12) 0.43902(8) 0.1740(4)
C45_4 C 0.3819(10) 0.42789(13) 0.1770(4)
H23_4 H 0.4720 0.4356 0.1778
C46_4 C 0.3831(10) 0.40522(13) 0.1789(4)
H24_4 H 0.4740 0.3978 0.1809
C47_4 C 0.2484(12) 0.39368(8) 0.1778(4)
C48_4 C 0.249(3) 0.4628(2) 0.1678(6)
C49_4 C 0.514(3) 0.3917(2) 0.3664(5)
C50_4 C 0.7694(10) 0.36141(14) 0.2941(3)
H25_4 H 0.8707 0.3579 0.2911
C51_4 C 0.6656(12) 0.35494(14) 0.2655(3)
C52_4 C 0.5143(11) 0.36019(13) 0.2700(3)
H26_4 H 0.4449 0.3559 0.2509
C53_4 C 0.4669(10) 0.37191(13) 0.3031(3)
H27_4 H 0.3656 0.3754 0.3061
C54_4 C 0.5707(12) 0.37838(15) 0.3316(2)
C55_4 C 0.7220(11) 0.37313(14) 0.3271(3)
H28_4 H 0.7914 0.3775 0.3462
C56_4 C 0.728(2) 0.3440(2) 0.2293(4)
C57_4 C 0.272(2) 0.30897(19) 0.2149(4)
C58_4 C 0.2237(12) 0.29448(17) 0.2822(3)
H29_4 H 0.1244 0.2992 0.2804
C59_4 C 0.2729(13) 0.28366(18) 0.3160(3)
H30_4 H 0.2066 0.2812 0.3369
C60_4 C 0.4212(13) 0.27658(18) 0.3187(3)
C61_4 C 0.5203(12) 0.28033(18) 0.2875(3)
H31_4 H 0.6196 0.2756 0.2893
C62_4 C 0.4711(13) 0.29114(18) 0.2536(3)
H32_4 H 0.5374 0.2936 0.2328
C63_4 C 0.3227(13) 0.29822(18) 0.2510(3)
C64_4 C 0.476(3) 0.2663(3) 0.3565(5)
Sc8_3 Sc 0.9959(4) 0.33330(3) 0.17633(7)
Sc13_4 Sc 0.2510(4) 0.08330(3) 0.40467(7)
O42_3 O 0.1267(17) 0.32747(18) 0.1270(3)
O43_3 O 0.3641(16) 0.32532(17) 0.1056(3)
O44_3 O 0.6274(17) 0.35379(15) 0.1186(3)
O48_4 O 0.6381(17) 0.15938(17) 0.2258(3)
O40_7 O 0.1338(19) 0.9840(2) 0.2177(4)
O5_7 O 0.8662(19) 0.0160(2) 0.2177(4)
O6_7 O 0.6321(18) 0.0124(2) 0.1978(4)
O7_7 O 0.6233(17) 0.07747(18) 0.3770(3)
O8_7 O 0.3859(16) 0.07532(17) 0.3556(3)
O10_4 O 0.8885(16) 0.10310(14) 0.3922(3)
O11_4 O 0.8741(16) 0.16192(15) 0.2041(3)
C9_7 C 0.730(3) 0.0203(4) 0.2199(5)
C10_7 C 0.5762(13) 0.05827(19) 0.3174(3)
C11_7 C 0.4760(13) 0.05172(18) 0.2880(3)
H5_7 H 0.3753 0.0558 0.2895
C12_7 C 0.5264(13) 0.03908(19) 0.2564(3)
H6_7 H 0.4594 0.0347 0.2368
C13_7 C 0.6769(14) 0.0330(2) 0.2542(3)
C14_7 C 0.7771(12) 0.03955(19) 0.2836(3)
H7_7 H 0.8778 0.0355 0.2821
C15_7 C 0.7267(13) 0.05218(18) 0.3152(3)
H8_7 H 0.7937 0.0566 0.3349
C16_7 C 0.523(2) 0.0712(2) 0.3529(4)
C17_4 C 0.986(3) 0.1083(2) 0.3664(5)
C18_4 C 0.7306(10) 0.13859(14) 0.2941(3)
H9_4 H 0.6293 0.1421 0.2911
C19_4 C 0.8344(12) 0.14506(14) 0.2655(3)
C20_4 C 0.9857(11) 0.13981(13) 0.2700(3)
C22_4 C 0.9293(12) 0.12162(15) 0.3316(2)
C23_4 C 0.7780(11) 0.12687(14) 0.3271(3)
H12_4 H 0.7086 0.1225 0.3462
C24_4 C 0.772(2) 0.1560(2) 0.2293(4)
C29_4 C 0.9797(12) 0.21967(18) 0.2875(3)
H15_4 H 0.8804 0.2244 0.2893
H16_4 H 0.9626 0.2064 0.2328
Sc9_4 Sc 0.7541(4) 0.08330(3) 0.42633(7)
O46_3 O 0.8615(16) 0.35310(14) 0.1422(3)
O38_7 O 0.629(2) 0.97181(15) 0.1578(5)
O39_7 O 0.862(2) 0.97296(17) 0.1771(5)
O41_7 O 0.3679(18) 0.9876(2) 0.1978(4)
O53_5 O 0.1367(18) 0.5122(2) 0.1095(4)
C66_5 C 0.1738(13) 0.30827(19) 0.0674(3)
C67_5 C 0.2740(13) 0.30172(18) 0.0380(3)
H33_5 H 0.3747 0.3058 0.0395
C68_5 C 0.2236(13) 0.28908(19) 0.0064(3)
C69_5 C 0.0731(14) 0.2830(2) 0.0042(3)
C71_5 C 0.0233(13) 0.30218(18) 0.0652(3)
C72_5 C 0.227(2) 0.3212(2) 0.1029(4)
O38_8 O 0.871(2) 0.52819(15) 0.1578(5)
O39_8 O 0.638(2) 0.52704(17) 0.1771(5)
O50_5 O 0.6314(16) 0.4871(2) 0.1325(3)
O51_5 O 0.3686(16) 0.5129(2) 0.1325(3)
O52_5 O 0.8633(18) 0.4878(2) 0.1095(4)
C65_5 C 0.020(3) 0.2703(4) 0.9699(5)
H34_5 H 0.2906 0.2847 0.9868
C70_5 C 0.9729(12) 0.28955(19) 0.0336(3)
H35_5 H 0.8722 0.2855 0.0321
H36_5 H 0.9563 0.3066 0.0849
C50_5 C 0.0194(10) 0.38859(14) 0.0441(3)
H25_5 H 0.1207 0.3921 0.0411
H28_5 H 0.0414 0.3725 0.0962
O17_5 O 0.1170(15) 0.55679(14) 0.8909(3)
C35_5 C 0.1330(16) 0.51144(17) 0.8966(4)
H17_5 H 0.2227 0.5192 0.8952
C36_5 C 0.1360(18) 0.48896(17) 0.8976(4)
H18_5 H 0.2272 0.4815 0.8981
O20_5 O 0.1237(18) 0.44386(14) 0.9114(4)
C37_5 C 0.004(2) 0.45294(19) 0.8992(4)
C38_5 C 0.0016(18) 0.47762(16) 0.8978(5)
O28_5 O 0.1119(17) 0.40938(17) 0.9758(3)
Sc8_4 Sc 0.2459(4) 0.41670(3) 0.92633(7)
O9_5 O 0.3726(17) 0.64621(15) 0.1186(3)
O10_5 O 0.1385(16) 0.64690(14) 0.1422(3)
C14_8 C 0.0271(12) 0.71045(19) 0.0336(3)
H7_8 H 0.1278 0.7145 0.0321
H8_8 H 0.0437 0.6934 0.0849
C17_5 C 0.236(3) 0.6417(2) 0.1164(5)
C19_5 C 0.0844(12) 0.60494(14) 0.0155(3)
C20_5 C 0.2357(11) 0.61019(13) 0.0200(3)
H10_5 H 0.3051 0.6059 0.0009
C21_5 C 0.2831(10) 0.62191(13) 0.0531(3)
H11_5 H 0.3844 0.6254 0.0561
C22_5 C 0.1793(12) 0.62838(15) 0.0816(2)
C23_5 C 0.0280(11) 0.62313(14) 0.0771(3)
C26_5 C 0.5263(12) 0.54448(17) 0.0322(3)
H13_5 H 0.6256 0.5492 0.0304
C27_5 C 0.4771(13) 0.53366(18) 0.0660(3)
H14_5 H 0.5434 0.5312 0.0869
C28_5 C 0.3288(13) 0.52658(18) 0.0687(3)
C29_5 C 0.2297(12) 0.53033(18) 0.0375(3)
H15_5 H 0.1304 0.5256 0.0393
C30_5 C 0.2789(13) 0.54114(18) 0.0036(3)
C31_5 C 0.4273(13) 0.54822(18) 0.0010(3)
C32_5 C 0.274(3) 0.5163(3) 0.1065(5)
C49_5 C 0.764(3) 0.3583(2) 0.1164(5)
C51_5 C 0.9156(12) 0.39506(14) 0.0155(3)
C52_5 C 0.7643(11) 0.38981(13) 0.0200(3)
H26_5 H 0.6949 0.3941 0.0009
C53_5 C 0.7169(10) 0.37809(13) 0.0531(3)
H27_5 H 0.6156 0.3746 0.0561
C54_5 C 0.8207(12) 0.37162(15) 0.0816(2)
C55_5 C 0.9720(11) 0.37687(14) 0.0771(3)
C58_5 C 0.4737(12) 0.45552(17) 0.0322(3)
H29_5 H 0.3744 0.4508 0.0304
C59_5 C 0.5229(13) 0.46634(18) 0.0660(3)
H30_5 H 0.4566 0.4688 0.0869
C60_5 C 0.6712(13) 0.47342(18) 0.0687(3)
C61_5 C 0.7703(12) 0.46967(18) 0.0375(3)
H31_5 H 0.8696 0.4744 0.0393
C62_5 C 0.7211(13) 0.45886(18) 0.0036(3)
C63_5 C 0.5727(13) 0.45178(18) 0.0010(3)
C64_5 C 0.726(3) 0.4837(3) 0.1065(5)
Sc9_5 Sc 0.0041(4) 0.66670(3) 0.17633(7)
Sc13_5 Sc 0.5010(4) 0.66670(3) 0.15467(7)
O1_5 O 0.6213(18) 0.61027(16) 0.9385(4)
O2_5 O 0.3797(18) 0.60983(14) 0.9198(4)
O11_5 O 0.1241(16) 0.58808(15) 0.9541(3)
O13_5 O 0.6113(18) 0.56473(16) 0.9630(3)
O14_5 O 0.3832(16) 0.56232(15) 0.9376(3)
O18_5 O 0.8763(18) 0.55614(14) 0.9114(4)
C1_5 C 0.502(3) 0.6196(2) 0.9280(5)
C2_5 C 0.6375(10) 0.65481(14) 0.9248(4)
H1_5 H 0.7276 0.6471 0.9240
C3_5 C 0.6387(10) 0.67748(14) 0.9229(4)
H2_5 H 0.7296 0.6849 0.9209
C4_5 C 0.5040(12) 0.68902(8) 0.9240(4)
C5_5 C 0.3681(10) 0.67789(13) 0.9270(4)
H3_5 H 0.2780 0.6856 0.9278
C6_5 C 0.3669(10) 0.65522(13) 0.9289(4)
H4_5 H 0.2760 0.6478 0.9309
C7_5 C 0.5016(12) 0.64368(8) 0.9278(4)
C8_5 C 0.501(3) 0.7128(2) 0.9178(6)
C24_5 C 0.022(2) 0.5940(2) 0.9793(4)
C25_5 C 0.478(2) 0.55897(19) 0.9649(4)
H16_5 H 0.2126 0.5436 0.9828
C33_5 C 0.996(2) 0.54706(19) 0.8992(4)
C34_5 C 0.9984(18) 0.52238(16) 0.8978(5)
O19_5 O 0.8830(15) 0.44321(14) 0.8909(3)
C39_5 C 0.8670(16) 0.48856(17) 0.8966(4)
H19_5 H 0.7773 0.4808 0.8952
C40_5 C 0.8640(18) 0.51104(17) 0.8976(4)
H20_5 H 0.7728 0.5185 0.8981
Sc6_4 Sc 0.7490(4) 0.41670(3) 0.90467(7)
O21_5 O 0.3787(18) 0.38973(16) 0.9385(4)
O22_5 O 0.6203(18) 0.39017(14) 0.9198(4)
O27_5 O 0.8759(16) 0.41192(15) 0.9541(3)
O29_5 O 0.3887(18) 0.43527(16) 0.9630(3)
O30_5 O 0.6168(16) 0.43768(15) 0.9376(3)
C41_5 C 0.498(3) 0.3804(2) 0.9280(5)
C42_5 C 0.3625(10) 0.34519(14) 0.9248(4)
H21_5 H 0.2724 0.3529 0.9240
C43_5 C 0.3613(10) 0.32252(14) 0.9229(4)
H22_5 H 0.2704 0.3151 0.9209
C44_5 C 0.4960(12) 0.31098(8) 0.9240(4)
C45_5 C 0.6319(10) 0.32211(13) 0.9270(4)
H23_5 H 0.7220 0.3144 0.9278
C46_5 C 0.6331(10) 0.34478(13) 0.9289(4)
H24_5 H 0.7240 0.3522 0.9309
C47_5 C 0.4984(12) 0.35632(8) 0.9278(4)
C48_5 C 0.499(3) 0.2872(2) 0.9178(6)
C56_5 C 0.978(2) 0.4060(2) 0.9793(4)
C57_5 C 0.522(2) 0.44103(19) 0.9649(4)
H32_5 H 0.7874 0.4564 0.9828
O42_4 O 0.3767(17) 0.42253(18) 0.8770(3)
O43_4 O 0.6141(16) 0.42468(17) 0.8556(3)
O44_4 O 0.8774(17) 0.39621(15) 0.8686(3)
O46_4 O 0.1115(16) 0.39690(14) 0.8922(3)
O48_5 O 0.8881(17) 0.59062(17) 0.9758(3)
O7_8 O 0.8733(17) 0.67253(18) 0.1270(3)
O8_8 O 0.6359(16) 0.67468(17) 0.1056(3)
C10_8 C 0.8262(13) 0.69173(19) 0.0674(3)
C11_8 C 0.7260(13) 0.69828(18) 0.0380(3)
H5_8 H 0.6253 0.6942 0.0395
C12_8 C 0.7764(13) 0.71092(19) 0.0064(3)
C13_8 C 0.9269(14) 0.7170(2) 0.0042(3)
C15_8 C 0.9767(13) 0.69782(18) 0.0652(3)
C16_8 C 0.773(2) 0.6788(2) 0.1029(4)
C18_5 C 0.9806(10) 0.61141(14) 0.0441(3)
H9_5 H 0.8793 0.6079 0.0411
H12_5 H 0.9586 0.6275 0.0962
C9_8 C 0.980(3) 0.7297(4) 0.9699(5)
H6_8 H 0.7094 0.7153 0.9868
C65_6 C 0.270(3) 0.4797(4) 0.7199(5)
C66_6 C 0.4238(13) 0.44173(19) 0.8174(3)
C67_6 C 0.5240(13) 0.44828(18) 0.7880(3)
H33_6 H 0.6247 0.4442 0.7895
C68_6 C 0.4736(13) 0.46092(19) 0.7564(3)
H34_6 H 0.5406 0.4653 0.7368
C69_6 C 0.3231(14) 0.4670(2) 0.7542(3)
C70_6 C 0.2229(12) 0.46045(19) 0.7836(3)
H35_6 H 0.1222 0.4645 0.7821
C71_6 C 0.2733(13) 0.44782(18) 0.8152(3)
H36_6 H 0.2063 0.4434 0.8349
C72_6 C 0.477(2) 0.4288(2) 0.8529(4)
O17_6 O 0.3670(15) 0.69321(14) 0.1409(3)
O18_6 O 0.1263(18) 0.69386(14) 0.1614(4)
C33_6 C 0.246(2) 0.70294(19) 0.1492(4)
C34_6 C 0.2484(18) 0.72762(16) 0.1478(5)
C35_6 C 0.3830(16) 0.73856(17) 0.1466(4)
H17_6 H 0.4727 0.7308 0.1452
C36_6 C 0.3860(18) 0.76104(17) 0.1476(4)
H18_6 H 0.4772 0.7685 0.1481
O19_6 O 0.1330(15) 0.80679(14) 0.1409(3)
O20_6 O 0.3737(18) 0.80614(14) 0.1614(4)
C37_6 C 0.254(2) 0.79706(19) 0.1492(4)
C38_6 C 0.2516(18) 0.77238(16) 0.1478(5)
C39_6 C 0.1170(16) 0.76144(17) 0.1466(4)
H19_6 H 0.0273 0.7692 0.1452
C40_6 C 0.1140(18) 0.73896(17) 0.1476(4)
H20_6 H 0.0228 0.7315 0.1481
O26_4 O 0.1115(16) 0.89690(14) 0.3922(3)
O27_6 O 0.1259(16) 0.83808(15) 0.2041(3)
O28_6 O 0.3619(17) 0.84062(17) 0.2258(3)
C49_6 C 0.014(3) 0.8917(2) 0.3664(5)
C50_6 C 0.2694(10) 0.86141(14) 0.2941(3)
H25_6 H 0.3707 0.8579 0.2911
C51_6 C 0.1656(12) 0.85494(14) 0.2655(3)
C52_6 C 0.0143(11) 0.86019(13) 0.2700(3)
C54_6 C 0.0707(12) 0.87838(15) 0.3316(2)
C55_6 C 0.2220(11) 0.87313(14) 0.3271(3)
H28_6 H 0.2914 0.8775 0.3462
C56_6 C 0.228(2) 0.8440(2) 0.2293(4)
C61_6 C 0.0203(12) 0.78033(18) 0.2875(3)
H31_6 H 0.1196 0.7756 0.2893
H32_6 H 0.0374 0.7936 0.2328
Sc10_4 Sc 0.2459(4) 0.91670(3) 0.42633(7)
O48_6 O 0.1381(17) 0.65938(17) 0.2258(3)
O1_6 O 0.8713(18) 0.63973(16) 0.1885(4)
O2_6 O 0.6297(18) 0.64017(14) 0.1698(4)
O11_6 O 0.3741(16) 0.66192(15) 0.2041(3)
O13_6 O 0.8613(18) 0.68527(16) 0.2130(3)
O14_6 O 0.6332(16) 0.68768(15) 0.1876(3)
C1_6 C 0.752(3) 0.6304(2) 0.1780(5)
C2_6 C 0.8875(10) 0.59519(14) 0.1748(4)
H1_6 H 0.9776 0.6029 0.1740
C3_6 C 0.8887(10) 0.57252(14) 0.1729(4)
H2_6 H 0.9796 0.5651 0.1709
C4_6 C 0.7540(12) 0.56098(8) 0.1740(4)
C5_6 C 0.6181(10) 0.57211(13) 0.1770(4)
H3_6 H 0.5280 0.5644 0.1778
C6_6 C 0.6169(10) 0.59478(13) 0.1789(4)
H4_6 H 0.5260 0.6022 0.1809
C7_6 C 0.7516(12) 0.60632(8) 0.1778(4)
C8_6 C 0.751(3) 0.5372(2) 0.1678(6)
C17_6 C 0.486(3) 0.6083(2) 0.3664(5)
C18_6 C 0.2306(10) 0.63859(14) 0.2941(3)
H9_6 H 0.1293 0.6421 0.2911
C19_6 C 0.3344(12) 0.64506(14) 0.2655(3)
C20_6 C 0.4857(11) 0.63981(13) 0.2700(3)
H10_6 H 0.5551 0.6441 0.2509
C21_6 C 0.5331(10) 0.62809(13) 0.3031(3)
H11_6 H 0.6344 0.6246 0.3061
C22_6 C 0.4293(12) 0.62162(15) 0.3316(2)
C23_6 C 0.2780(11) 0.62687(14) 0.3271(3)
H12_6 H 0.2086 0.6225 0.3462
C24_6 C 0.272(2) 0.6560(2) 0.2293(4)
C25_6 C 0.728(2) 0.69103(19) 0.2149(4)
C26_6 C 0.7763(12) 0.70552(17) 0.2822(3)
H13_6 H 0.8756 0.7008 0.2804
C27_6 C 0.7271(13) 0.71634(18) 0.3160(3)
H14_6 H 0.7934 0.7188 0.3369
C28_6 C 0.5788(13) 0.72342(18) 0.3187(3)
C29_6 C 0.4797(12) 0.71967(18) 0.2875(3)
H15_6 H 0.3804 0.7244 0.2893
C30_6 C 0.5289(13) 0.70886(18) 0.2536(3)
H16_6 H 0.4626 0.7064 0.2328
C31_6 C 0.6773(13) 0.70178(18) 0.2510(3)
C32_6 C 0.524(3) 0.7337(3) 0.3565(5)
O21_6 O 0.6287(18) 0.86027(16) 0.1885(4)
O22_6 O 0.8703(18) 0.85983(14) 0.1698(4)
O25_4 O 0.8774(17) 0.89621(15) 0.3686(3)
O29_6 O 0.6387(18) 0.81473(16) 0.2130(3)
O30_6 O 0.8668(16) 0.81232(15) 0.1876(3)
C41_6 C 0.748(3) 0.8696(2) 0.1780(5)
C42_6 C 0.6125(10) 0.90481(14) 0.1748(4)
H21_6 H 0.5224 0.8971 0.1740
C43_6 C 0.6113(10) 0.92748(14) 0.1729(4)
H22_6 H 0.5204 0.9349 0.1709
C44_6 C 0.7460(12) 0.93902(8) 0.1740(4)
C45_6 C 0.8819(10) 0.92789(13) 0.1770(4)
H23_6 H 0.9720 0.9356 0.1778
C46_6 C 0.8831(10) 0.90522(13) 0.1789(4)
H24_6 H 0.9740 0.8978 0.1809
C47_6 C 0.7484(12) 0.89368(8) 0.1778(4)
C48_6 C 0.749(3) 0.9628(2) 0.1678(6)
H26_6 H 0.9449 0.8559 0.2509
C53_6 C 0.9669(10) 0.87191(13) 0.3031(3)
H27_6 H 0.8656 0.8754 0.3061
C57_6 C 0.772(2) 0.80897(19) 0.2149(4)
C58_6 C 0.7237(12) 0.79448(17) 0.2822(3)
H29_6 H 0.6244 0.7992 0.2804
C59_6 C 0.7729(13) 0.78366(18) 0.3160(3)
H30_6 H 0.7066 0.7812 0.3369
C60_6 C 0.9212(13) 0.77658(18) 0.3187(3)
C62_6 C 0.9711(13) 0.79114(18) 0.2536(3)
C63_6 C 0.8227(13) 0.79822(18) 0.2510(3)
C64_6 C 0.976(3) 0.7663(3) 0.3565(5)
Sc14_4 Sc 0.7490(4) 0.91670(3) 0.40467(7)
O7_9 O 0.3767(17) 0.92253(18) 0.3770(3)
O8_9 O 0.6141(16) 0.92468(17) 0.3556(3)
C9_9 C 0.270(3) 0.9797(4) 0.2199(5)
C10_9 C 0.4238(13) 0.94173(19) 0.3174(3)
C11_9 C 0.5240(13) 0.94828(18) 0.2880(3)
H5_9 H 0.6247 0.9442 0.2895
C12_9 C 0.4736(13) 0.96092(19) 0.2564(3)
H6_9 H 0.5406 0.9653 0.2368
C13_9 C 0.3231(14) 0.9670(2) 0.2542(3)
C14_9 C 0.2229(12) 0.96045(19) 0.2836(3)
H7_9 H 0.1222 0.9645 0.2821
C15_9 C 0.2733(13) 0.94782(18) 0.3152(3)
H8_9 H 0.2063 0.9434 0.3349
C16_9 C 0.477(2) 0.9288(2) 0.3529(4)
O17_7 O 0.1170(15) 0.05679(14) 0.3909(3)
C35_7 C 0.1330(16) 0.01144(17) 0.3966(4)
H17_7 H 0.2227 0.0192 0.3952
C36_7 C 0.1360(18) 0.98896(17) 0.3976(4)
H18_7 H 0.2272 0.9815 0.3981
O20_7 O 0.1237(18) 0.94386(14) 0.4114(4)
C37_7 C 0.004(2) 0.95294(19) 0.3992(4)
C38_7 C 0.0016(18) 0.97762(16) 0.3978(5)
O28_7 O 0.1119(17) 0.90938(17) 0.4758(3)
C50_7 C 0.0194(10) 0.88859(14) 0.5441(3)
H25_7 H 0.1207 0.8921 0.5411
H28_7 H 0.0414 0.8725 0.5962
O1_7 O 0.6213(18) 0.11027(16) 0.4385(4)
O2_7 O 0.3797(18) 0.10983(14) 0.4198(4)
O9_6 O 0.3726(17) 0.14621(15) 0.6186(3)
O10_6 O 0.1385(16) 0.14690(14) 0.6422(3)
O11_7 O 0.1241(16) 0.08808(15) 0.4541(3)
O13_7 O 0.6113(18) 0.06473(16) 0.4630(3)
O14_7 O 0.3832(16) 0.06232(15) 0.4376(3)
O18_7 O 0.8763(18) 0.05614(14) 0.4114(4)
C1_7 C 0.502(3) 0.1196(2) 0.4280(5)
C2_7 C 0.6375(10) 0.15481(14) 0.4248(4)
H1_7 H 0.7276 0.1471 0.4240
C3_7 C 0.6387(10) 0.17748(14) 0.4229(4)
H2_7 H 0.7296 0.1849 0.4209
C4_7 C 0.5040(12) 0.18902(8) 0.4240(4)
C5_7 C 0.3681(10) 0.17789(13) 0.4270(4)
H3_7 H 0.2780 0.1856 0.4278
C6_7 C 0.3669(10) 0.15522(13) 0.4289(4)
H4_7 H 0.2760 0.1478 0.4309
C7_7 C 0.5016(12) 0.14368(8) 0.4278(4)
C8_7 C 0.501(3) 0.2128(2) 0.4178(6)
C14_10 C 0.0271(12) 0.21045(19) 0.5336(3)
H7_10 H 0.1278 0.2145 0.5321
H8_10 H 0.0437 0.1934 0.5849
C17_7 C 0.236(3) 0.1417(2) 0.6164(5)
C19_7 C 0.0844(12) 0.10494(14) 0.5155(3)
C20_7 C 0.2357(11) 0.11019(13) 0.5200(3)
H10_7 H 0.3051 0.1059 0.5009
C21_7 C 0.2831(10) 0.12191(13) 0.5531(3)
H11_7 H 0.3844 0.1254 0.5561
C22_7 C 0.1793(12) 0.12838(15) 0.5816(2)
C23_7 C 0.0280(11) 0.12313(14) 0.5771(3)
C24_7 C 0.022(2) 0.0940(2) 0.4793(4)
C25_7 C 0.478(2) 0.05897(19) 0.4649(4)
C26_7 C 0.5263(12) 0.04448(17) 0.5322(3)
H13_7 H 0.6256 0.0492 0.5304
C27_7 C 0.4771(13) 0.03366(18) 0.5660(3)
H14_7 H 0.5434 0.0312 0.5869
C28_7 C 0.3288(13) 0.02658(18) 0.5687(3)
C29_7 C 0.2297(12) 0.03033(18) 0.5375(3)
H15_7 H 0.1304 0.0256 0.5393
C30_7 C 0.2789(13) 0.04114(18) 0.5036(3)
H16_7 H 0.2126 0.0436 0.4828
C31_7 C 0.4273(13) 0.04822(18) 0.5010(3)
C32_7 C 0.274(3) 0.0163(3) 0.6065(5)
C33_7 C 0.996(2) 0.04706(19) 0.3992(4)
C34_7 C 0.9984(18) 0.02238(16) 0.3978(5)
C40_7 C 0.8640(18) 0.01104(17) 0.3976(4)
H20_7 H 0.7728 0.0185 0.3981
Sc9_6 Sc 0.0041(4) 0.16670(3) 0.67633(7)
Sc13_6 Sc 0.5010(4) 0.16670(3) 0.65467(7)
O48_7 O 0.8881(17) 0.09062(17) 0.4758(3)
O19_7 O 0.8830(15) 0.94321(14) 0.3909(3)
C39_7 C 0.8670(16) 0.98856(17) 0.3966(4)
H19_7 H 0.7773 0.9808 0.3952
O21_7 O 0.3787(18) 0.88973(16) 0.4385(4)
O22_7 O 0.6203(18) 0.89017(14) 0.4198(4)
O27_7 O 0.8759(16) 0.91192(15) 0.4541(3)
O29_7 O 0.3887(18) 0.93527(16) 0.4630(3)
O30_7 O 0.6168(16) 0.93768(15) 0.4376(3)
C41_7 C 0.498(3) 0.8804(2) 0.4280(5)
C42_7 C 0.3625(10) 0.84519(14) 0.4248(4)
H21_7 H 0.2724 0.8529 0.4240
C43_7 C 0.3613(10) 0.82252(14) 0.4229(4)
H22_7 H 0.2704 0.8151 0.4209
C44_7 C 0.4960(12) 0.81098(8) 0.4240(4)
C45_7 C 0.6319(10) 0.82211(13) 0.4270(4)
H23_7 H 0.7220 0.8144 0.4278
C46_7 C 0.6331(10) 0.84478(13) 0.4289(4)
H24_7 H 0.7240 0.8522 0.4309
C47_7 C 0.4984(12) 0.85632(8) 0.4278(4)
C48_7 C 0.499(3) 0.7872(2) 0.4178(6)
C49_7 C 0.764(3) 0.8583(2) 0.6164(5)
C51_7 C 0.9156(12) 0.89506(14) 0.5155(3)
C52_7 C 0.7643(11) 0.88981(13) 0.5200(3)
H26_7 H 0.6949 0.8941 0.5009
C53_7 C 0.7169(10) 0.87809(13) 0.5531(3)
H27_7 H 0.6156 0.8746 0.5561
C54_7 C 0.8207(12) 0.87162(15) 0.5816(2)
C55_7 C 0.9720(11) 0.87687(14) 0.5771(3)
C56_7 C 0.978(2) 0.9060(2) 0.4793(4)
C57_7 C 0.522(2) 0.94103(19) 0.4649(4)
C58_7 C 0.4737(12) 0.95552(17) 0.5322(3)
H29_7 H 0.3744 0.9508 0.5304
C59_7 C 0.5229(13) 0.96634(18) 0.5660(3)
H30_7 H 0.4566 0.9688 0.5869
C60_7 C 0.6712(13) 0.97342(18) 0.5687(3)
C61_7 C 0.7703(12) 0.96967(18) 0.5375(3)
H31_7 H 0.8696 0.9744 0.5393
C62_7 C 0.7211(13) 0.95886(18) 0.5036(3)
H32_7 H 0.7874 0.9564 0.4828
C63_7 C 0.5727(13) 0.95178(18) 0.5010(3)
C64_7 C 0.726(3) 0.9837(3) 0.6065(5)
O7_10 O 0.8733(17) 0.17253(18) 0.6270(3)
O8_10 O 0.6359(16) 0.17468(17) 0.6056(3)
C9_10 C 0.980(3) 0.2297(4) 0.4699(5)
C10_10 C 0.8262(13) 0.19173(19) 0.5674(3)
C11_10 C 0.7260(13) 0.19828(18) 0.5380(3)
H5_10 H 0.6253 0.1942 0.5395
C12_10 C 0.7764(13) 0.21092(19) 0.5064(3)
H6_10 H 0.7094 0.2153 0.4868
C13_10 C 0.9269(14) 0.2170(2) 0.5042(3)
C15_10 C 0.9767(13) 0.19782(18) 0.5652(3)
C16_10 C 0.773(2) 0.1788(2) 0.6029(4)
C18_7 C 0.9806(10) 0.11141(14) 0.5441(3)
H9_7 H 0.8793 0.1079 0.5411
H12_7 H 0.9586 0.1275 0.5962
O17_8 O 0.3670(15) 0.19321(14) 0.6409(3)
O18_8 O 0.1263(18) 0.19386(14) 0.6614(4)
C33_8 C 0.246(2) 0.20294(19) 0.6492(4)
C34_8 C 0.2484(18) 0.22762(16) 0.6478(5)
C35_8 C 0.3830(16) 0.23856(17) 0.6466(4)
H17_8 H 0.4727 0.2308 0.6452
C36_8 C 0.3860(18) 0.26104(17) 0.6476(4)
H18_8 H 0.4772 0.2685 0.6481
O19_8 O 0.1330(15) 0.30679(14) 0.6409(3)
O20_8 O 0.3737(18) 0.30614(14) 0.6614(4)
C37_8 C 0.254(2) 0.29706(19) 0.6492(4)
C38_8 C 0.2516(18) 0.27238(16) 0.6478(5)
C39_8 C 0.1170(16) 0.26144(17) 0.6466(4)
H19_8 H 0.0273 0.2692 0.6452
C40_8 C 0.1140(18) 0.23896(17) 0.6476(4)
H20_8 H 0.0228 0.2315 0.6481
O27_8 O 0.1259(16) 0.33808(15) 0.7041(3)
O28_8 O 0.3619(17) 0.34062(17) 0.7258(3)
C49_8 C 0.014(3) 0.3917(2) 0.8664(5)
C50_8 C 0.2694(10) 0.36141(14) 0.7941(3)
H25_8 H 0.3707 0.3579 0.7911
C51_8 C 0.1656(12) 0.35494(14) 0.7655(3)
C52_8 C 0.0143(11) 0.36019(13) 0.7700(3)
C54_8 C 0.0707(12) 0.37838(15) 0.8316(2)
C55_8 C 0.2220(11) 0.37313(14) 0.8271(3)
H28_8 H 0.2914 0.3775 0.8462
C56_8 C 0.228(2) 0.3440(2) 0.7293(4)
C61_8 C 0.0203(12) 0.28033(18) 0.7875(3)
H31_8 H 0.1196 0.2756 0.7893
H32_8 H 0.0374 0.2936 0.7328
O48_8 O 0.1381(17) 0.15938(17) 0.7258(3)
O1_8 O 0.8713(18) 0.13973(16) 0.6885(4)
O2_8 O 0.6297(18) 0.14017(14) 0.6698(4)
O11_8 O 0.3741(16) 0.16192(15) 0.7041(3)
O13_8 O 0.8613(18) 0.18527(16) 0.7130(3)
O14_8 O 0.6332(16) 0.18768(15) 0.6876(3)
C1_8 C 0.752(3) 0.1304(2) 0.6780(5)
C2_8 C 0.8875(10) 0.09519(14) 0.6748(4)
H1_8 H 0.9776 0.1029 0.6740
C3_8 C 0.8887(10) 0.07252(14) 0.6729(4)
H2_8 H 0.9796 0.0651 0.6709
C4_8 C 0.7540(12) 0.06098(8) 0.6740(4)
C5_8 C 0.6181(10) 0.07211(13) 0.6770(4)
H3_8 H 0.5280 0.0644 0.6778
C6_8 C 0.6169(10) 0.09478(13) 0.6789(4)
H4_8 H 0.5260 0.1022 0.6809
C7_8 C 0.7516(12) 0.10632(8) 0.6778(4)
C8_8 C 0.751(3) 0.0372(2) 0.6678(6)
C17_8 C 0.486(3) 0.1083(2) 0.8664(5)
C18_8 C 0.2306(10) 0.13859(14) 0.7941(3)
H9_8 H 0.1293 0.1421 0.7911
C19_8 C 0.3344(12) 0.14506(14) 0.7655(3)
C20_8 C 0.4857(11) 0.13981(13) 0.7700(3)
H10_8 H 0.5551 0.1441 0.7509
C21_8 C 0.5331(10) 0.12809(13) 0.8031(3)
H11_8 H 0.6344 0.1246 0.8061
C22_8 C 0.4293(12) 0.12162(15) 0.8316(2)
C23_8 C 0.2780(11) 0.12687(14) 0.8271(3)
H12_8 H 0.2086 0.1225 0.8462
C24_8 C 0.272(2) 0.1560(2) 0.7293(4)
C25_8 C 0.728(2) 0.19103(19) 0.7149(4)
C26_8 C 0.7763(12) 0.20552(17) 0.7822(3)
H13_8 H 0.8756 0.2008 0.7804
C27_8 C 0.7271(13) 0.21634(18) 0.8160(3)
H14_8 H 0.7934 0.2188 0.8369
C28_8 C 0.5788(13) 0.22342(18) 0.8187(3)
C29_8 C 0.4797(12) 0.21967(18) 0.7875(3)
H15_8 H 0.3804 0.2244 0.7893
C30_8 C 0.5289(13) 0.20886(18) 0.7536(3)
H16_8 H 0.4626 0.2064 0.7328
C31_8 C 0.6773(13) 0.20178(18) 0.7510(3)
C32_8 C 0.524(3) 0.2337(3) 0.8565(5)
O21_8 O 0.6287(18) 0.36027(16) 0.6885(4)
O22_8 O 0.8703(18) 0.35983(14) 0.6698(4)
O29_8 O 0.6387(18) 0.31473(16) 0.7130(3)
O30_8 O 0.8668(16) 0.31232(15) 0.6876(3)
C41_8 C 0.748(3) 0.3696(2) 0.6780(5)
C42_8 C 0.6125(10) 0.40481(14) 0.6748(4)
H21_8 H 0.5224 0.3971 0.6740
C43_8 C 0.6113(10) 0.42748(14) 0.6729(4)
H22_8 H 0.5204 0.4349 0.6709
C44_8 C 0.7460(12) 0.43902(8) 0.6740(4)
C45_8 C 0.8819(10) 0.42789(13) 0.6770(4)
H23_8 H 0.9720 0.4356 0.6778
C46_8 C 0.8831(10) 0.40522(13) 0.6789(4)
H24_8 H 0.9740 0.3978 0.6809
C47_8 C 0.7484(12) 0.39368(8) 0.6778(4)
C48_8 C 0.749(3) 0.4628(2) 0.6678(6)
H26_8 H 0.9449 0.3559 0.7509
C53_8 C 0.9669(10) 0.37191(13) 0.8031(3)
H27_8 H 0.8656 0.3754 0.8061
C57_8 C 0.772(2) 0.30897(19) 0.7149(4)
C58_8 C 0.7237(12) 0.29448(17) 0.7822(3)
H29_8 H 0.6244 0.2992 0.7804
C59_8 C 0.7729(13) 0.28366(18) 0.8160(3)
H30_8 H 0.7066 0.2812 0.8369
C60_8 C 0.9212(13) 0.27658(18) 0.8187(3)
C62_8 C 0.9711(13) 0.29114(18) 0.7536(3)
C63_8 C 0.8227(13) 0.29822(18) 0.7510(3)
C64_8 C 0.976(3) 0.2663(3) 0.8565(5)
loop_
_geom_bond_atom_site_label_1
_geom_bond_atom_site_label_2
_geom_bond_site_symmetry_1
_geom_bond_site_symmetry_2
Sc1 O1 1_555 1_555
O1 C1 1_555 1_555
O3 C8 1_555 1_555
O13 Sc1 1_555 1_555
O17 C33 1_555 1_555
O18 Sc1 1_555 1_555
C1 C7 1_555 1_555
C2 H1 1_555 1_555
C3 C2 1_555 1_555
H2 C3 1_555 1_555
C4 C3 1_555 1_555
C7 C2 1_555 1_555
C8 C4 1_555 1_555
C26 H13 1_555 1_555
C33 O18 1_555 1_555
C34 C33 1_555 1_555
C35 C34 1_555 1_555
H17 C35 1_555 1_555
C36 C35 1_555 1_555
H18 C36 1_555 1_555
O19 C37 1_555 1_555
O20 C37 1_555 1_555
C37 C38 1_555 1_555
C38 C36 1_555 1_555
C39 C38 1_555 1_555
H19 C39 1_555 1_555
C40 C34 1_555 1_555
H20 C40 1_555 1_555
Sc6 O19 1_555 1_555
O22 Sc6 1_555 1_555
O25 C49 1_555 1_555
O26 C49 1_555 1_555
O27 Sc6 1_555 1_555
O28 C56 1_555 1_555
O30 Sc6 1_555 1_555
O31 C64 1_555 1_555
O32 C64 1_555 1_555
H23 C45 1_555 1_555
C46 C45 1_555 1_555
H24 C46 1_555 1_555
C49 C54 1_555 1_555
C50 H25 1_555 1_555
C51 C50 1_555 1_555
C52 C51 1_555 1_555
H26 C52 1_555 1_555
C53 C52 1_555 1_555
H27 C53 1_555 1_555
C54 C53 1_555 1_555
C55 C50 1_555 1_555
H28 C55 1_555 1_555
C56 O27 1_555 1_555
C60 C59 1_555 1_555
C61 C60 1_555 1_555
H31 C61 1_555 1_555
C62 C61 1_555 1_555
H32 C62 1_555 1_555
C63 C57 1_555 1_555
C64 C60 1_555 1_555
O33 C65 1_555 1_555
O34 C65 1_555 1_555
O35 Sc1 1_555 1_555
C65 C69 1_555 1_555
C69 C68 1_555 1_555
C70 C69 1_555 1_555
H35 C70 1_555 1_555
C71 C66 1_555 1_555
H36 C71 1_555 1_555
C72 O35 1_555 1_555
Sc8 O20 1_555 1_555
Sc10 O26 1_555 1_555
Sc11 O17 1_555 1_555
Sc15 O24 1_555 1_555
Sc17 O33 1_555 1_555
Sc18 O3 1_555 1_555
Sc21 O32 1_555 1_555
Sc22 O34 1_555 1_555
O43 Sc6 1_555 1_555
O44 Sc6 1_555 1_555
O47 Sc1 1_555 1_555
O48 Sc1 1_555 1_555
C39 C40 1_555 1_555
O28 Sc8 1_555 1_555
O30 C57 1_555 1_555
O31 Sc16 1_555 1_555
C51 C56 1_555 1_555
C54 C55 1_555 1_555
C62 C63 1_555 1_555
C66 C72 1_555 1_555
C70 C71 1_555 1_555
Sc11 O2 1_555 1_555
Sc3 O4 1_555 1_555
Sc18 O6 1_555 1_555
O5 Sc3 1_555 1_555
O6 C9 1_555 1_555
O7 C16 1_555 1_555
O8 C16 1_555 1_555
O9 C17 1_555 1_555
O10 C17 1_555 1_555
O11 Sc11 1_555 1_555
O48 C24 1_555 1_555
O14 Sc11 1_555 1_555
O15 C32 1_555 1_555
O16 C32 1_555 1_555
H3 C5 1_555 1_555
C6 C5 1_555 1_555
H4 C6 1_555 1_555
C9 O5 1_555 1_555
C10 C11 1_555 1_555
C11 H5 1_555 1_555
C12 C11 1_555 1_555
H6 C12 1_555 1_555
C13 C9 1_555 1_555
C14 C13 1_555 1_555
H7 C14 1_555 1_555
C15 C10 1_555 1_555
H8 C15 1_555 1_555
C16 C10 1_555 1_555
C17 C22 1_555 1_555
C18 H9 1_555 1_555
C19 C18 1_555 1_555
C20 C19 1_555 1_555
H10 C20 1_555 1_555
C21 C20 1_555 1_555
H11 C21 1_555 1_555
C22 C21 1_555 1_555
C23 C18 1_555 1_555
H12 C23 1_555 1_555
C24 O11 1_555 1_555
C28 C27 1_555 1_555
C29 C28 1_555 1_555
H15 C29 1_555 1_555
C30 C29 1_555 1_555
H16 C30 1_555 1_555
C31 C25 1_555 1_555
C32 C28 1_555 1_555
Sc8 O21 1_555 1_555
O21 C41 1_555 1_555
O23 C48 1_555 1_555
O29 Sc8 1_555 1_555
C42 H21 1_555 1_555
C43 C42 1_555 1_555
H22 C43 1_555 1_555
C44 C43 1_555 1_555
C47 C41 1_555 1_555
C48 C44 1_555 1_555
C58 H29 1_555 1_555
O36 Sc11 1_555 1_555
C67 H33 1_555 1_555
Sc9 O7 1_555 1_555
Sc13 O8 1_555 1_555
Sc16_2 O15 1_555 1_555
Sc19 O23 1_555 1_555
Sc21 O16 1_555 1_555
O38 Sc18 1_555 1_555
O39 Sc3 1_555 1_555
O40 Sc3 1_555 1_555
O41 Sc18 1_555 1_555
O42 Sc8 1_555 1_555
O45 Sc11 1_555 1_555
O46 Sc8 1_555 1_555
O50 Sc3 1_555 1_555
O51 Sc3 1_555 1_555
O52 Sc18 1_555 1_555
O53 Sc18 1_555 1_555
O10 Sc9 1_555 1_555
O14 C25 1_555 1_555
C12 C13 1_555 1_555
C14 C15 1_555 1_555
C19 C24 1_555 1_555
C22 C23 1_555 1_555
C30 C31 1_555 1_555
C42 C47 1_555 1_555
Sc19 O6_2 1_555 1_555
O5_2 Sc15 1_555 1_555
O6_2 C9_2 1_555 1_555
O7_2 C16_2 1_555 1_555
O8_2 C16_2 1_555 1_555
C9_2 O5_2 1_555 1_555
C10_2 C11_2 1_555 1_555
C11_2 H5_2 1_555 1_555
C12_2 C11_2 1_555 1_555
H6_2 C12_2 1_555 1_555
C13_2 C9_2 1_555 1_555
C14_2 C13_2 1_555 1_555
H7_2 C14_2 1_555 1_555
C15_2 C10_2 1_555 1_555
H8_2 C15_2 1_555 1_555
C16_2 C10_2 1_555 1_555
C67_2 H33_2 1_555 1_555
Sc10 O7_2 1_555 1_555
Sc14 O8_2 1_555 1_555
O38_2 Sc19 1_555 1_555
O39_2 Sc15 1_555 1_555
O40_2 Sc15 1_555 1_555
O41_2 Sc19 1_555 1_555
O50_2 Sc15 1_555 1_555
O51_2 Sc15 1_555 1_555
O52_2 Sc19 1_555 1_555
O53_2 Sc19 1_555 1_555
C12_2 C13_2 1_555 1_555
C14_2 C15_2 1_555 1_555
O33_2 C65_2 1_555 1_555
O34_2 C65_2 1_555 1_555
C65_2 C69_2 1_555 1_555
C69_2 C68_2 1_555 1_555
C70_2 C69_2 1_555 1_555
H35_2 C70_2 1_555 1_555
C71_2 C66_2 1_555 1_555
H36_2 C71_2 1_555 1_555
C72_2 O42 1_555 1_555
Sc17 O33_2 1_555 1_555
Sc22_2 O34_2 1_555 1_555
C66_2 C72_2 1_555 1_555
C70_2 C71_2 1_555 1_555
Sc9 O1_2 1_555 1_555
Sc13 O2_2 1_555 1_555
Sc16 O4_2 1_555 1_555
O1_2 C1_2 1_555 1_555
O2_2 C1_2 1_555 1_555
O3_2 C8_2 1_555 1_555
O4_2 C8_2 1_555 1_555
O13_2 Sc9 1_555 1_555
O14_2 Sc13 1_555 1_555
O15_2 C32_2 1_555 1_555
O17_2 C33_2 1_555 1_555
O18_2 Sc9 1_555 1_555
C1_2 C7_2 1_555 1_555
C2_2 H1_2 1_555 1_555
C3_2 C2_2 1_555 1_555
H2_2 C3_2 1_555 1_555
C4_2 C3_2 1_555 1_555
C5_2 C4_2 1_555 1_555
H3_2 C5_2 1_555 1_555
C6_2 C5_2 1_555 1_555
H4_2 C6_2 1_555 1_555
C7_2 C2_2 1_555 1_555
C8_2 C4_2 1_555 1_555
H11_2 C21_2 1_555 1_555
C25_2 O13_2 1_555 1_555
C26_2 H13_2 1_555 1_555
C27_2 C26_2 1_555 1_555
H14_2 C27_2 1_555 1_555
C28_2 C27_2 1_555 1_555
C31_2 C25_2 1_555 1_555
C32_2 C28_2 1_555 1_555
C33_2 O18_2 1_555 1_555
C34_2 C33_2 1_555 1_555
C35_2 C34_2 1_555 1_555
H17_2 C35_2 1_555 1_555
C36_2 C35_2 1_555 1_555
H18_2 C36_2 1_555 1_555
O19_2 C37_2 1_555 1_555
O20_2 C37_2 1_555 1_555
C37_2 C38_2 1_555 1_555
C38_2 C36_2 1_555 1_555
C39_2 C38_2 1_555 1_555
H19_2 C39_2 1_555 1_555
C40_2 C34_2 1_555 1_555
H20_2 C40_2 1_555 1_555
Sc6_2 O19_2 1_555 1_555
O21_2 C41_2 1_555 1_555
O22_2 Sc6_2 1_555 1_555
O23_2 C48_2 1_555 1_555
O24_2 C48_2 1_555 1_555
O25_2 C49_2 1_555 1_555
O26_2 C49_2 1_555 1_555
O27_2 Sc6_2 1_555 1_555
O28_2 C56_2 1_555 1_555
O30_2 Sc6_2 1_555 1_555
O31_2 C64_2 1_555 1_555
O32_2 C64_2 1_555 1_555
C41_2 O22_2 1_555 1_555
C42_2 H21_2 1_555 1_555
C43_2 C42_2 1_555 1_555
H22_2 C43_2 1_555 1_555
C44_2 C43_2 1_555 1_555
C45_2 C44_2 1_555 1_555
H23_2 C45_2 1_555 1_555
C46_2 C45_2 1_555 1_555
H24_2 C46_2 1_555 1_555
C47_2 C41_2 1_555 1_555
C48_2 C44_2 1_555 1_555
C49_2 C54_2 1_555 1_555
C50_2 H25_2 1_555 1_555
C51_2 C50_2 1_555 1_555
C52_2 C51_2 1_555 1_555
H26_2 C52_2 1_555 1_555
C53_2 C52_2 1_555 1_555
H27_2 C53_2 1_555 1_555
C54_2 C53_2 1_555 1_555
C55_2 C50_2 1_555 1_555
H28_2 C55_2 1_555 1_555
C56_2 O27_2 1_555 1_555
C57_2 O29_2 1_555 1_555
C58_2 H29_2 1_555 1_555
C59_2 C58_2 1_555 1_555
H30_2 C59_2 1_555 1_555
C60_2 C59_2 1_555 1_555
C61_2 C60_2 1_555 1_555
H31_2 C61_2 1_555 1_555
C62_2 C61_2 1_555 1_555
H32_2 C62_2 1_555 1_555
C63_2 C57_2 1_555 1_555
C64_2 C60_2 1_555 1_555
Sc8_2 O20_2 1_555 1_555
Sc10_2 O26_2 1_555 1_555
Sc13_2 O9_2 1_555 1_555
Sc14_2 O25_2 1_555 1_555
Sc15_3 O24_2 1_555 1_555
Sc16_3 O15_2 1_555 1_555
Sc21 O3_2 1_555 1_555
Sc19_3 O23_2 1_555 1_555
Sc21_2 O32_2 1_555 1_555
O40_3 Sc16 1_555 1_555
O43_2 Sc6_2 1_555 1_555
O44_2 Sc6_2 1_555 1_555
O48_2 Sc9 1_555 1_555
O14_2 C25_2 1_555 1_555
C6_2 C7_2 1_555 1_555
C26_2 C31_2 1_555 1_555
C30_2 C31_2 1_555 1_555
C39_2 C40_2 1_555 1_555
O28_2 Sc8_2 1_555 1_555
O30_2 C57_2 1_555 1_555
O31_2 Sc16_3 1_555 1_555
C42_2 C47_2 1_555 1_555
C46_2 C47_2 1_555 1_555
C51_2 C56_2 1_555 1_555
C54_2 C55_2 1_555 1_555
C58_2 C63_2 1_555 1_555
C62_2 C63_2 1_555 1_555
Sc21 O6_3 1_555 1_555
O5_3 Sc16_2 1_555 1_555
O6_3 C9_3 1_555 1_555
O7_3 C16_3 1_555 1_555
O8_3 C16_3 1_555 1_555
O10_2 C17_2 1_555 1_555
O48_2 C24_2 1_555 1_555
C9_3 O5_3 1_555 1_555
C10_3 C11_3 1_555 1_555
C11_3 H5_3 1_555 1_555
C12_3 C11_3 1_555 1_555
H6_3 C12_3 1_555 1_555
C13_3 C9_3 1_555 1_555
C14_3 C13_3 1_555 1_555
H7_3 C14_3 1_555 1_555
C15_3 C10_3 1_555 1_555
H8_3 C15_3 1_555 1_555
C16_3 C10_3 1_555 1_555
C17_2 C22_2 1_555 1_555
C18_2 H9_2 1_555 1_555
C19_2 C18_2 1_555 1_555
C20_2 C19_2 1_555 1_555
C23_2 C18_2 1_555 1_555
H12_2 C23_2 1_555 1_555
C24_2 O11_2 1_555 1_555
H15_2 C29_2 1_555 1_555
Sc9_2 O7_3 1_555 1_555
Sc13_2 O8_3 1_555 1_555
Sc21_2 O16_2 1_555 1_555
O38_3 Sc21 1_555 1_555
O39_3 Sc16_2 1_555 1_555
O41_3 Sc21 1_555 1_555
O46_2 Sc8_2 1_555 1_555
O10_2 Sc9_2 1_555 1_555
C12_3 C13_3 1_555 1_555
C14_3 C15_3 1_555 1_555
C19_2 C24_2 1_555 1_555
C22_2 C23_2 1_555 1_555
O41_4 Sc19_2 1_555 1_555
O53_3 Sc19_2 1_555 1_555
C11_4 H5_4 1_555 1_555
Sc14_2 O8_4 1_555 1_555
O38_4 Sc19_4 1_555 1_555
O39_4 Sc15_2 1_555 1_555
O40_4 Sc15_2 1_555 1_555
O51_3 Sc15_2 1_555 1_555
Sc19_5 O6_4 1_555 1_555
O5_4 Sc15_3 1_555 1_555
O6_4 C9_4 1_555 1_555
O7_4 C16_4 1_555 1_555
C9_4 O5_4 1_555 1_555
C13_4 C9_4 1_555 1_555
C14_4 C13_4 1_555 1_555
H7_4 C14_4 1_555 1_555
C15_4 C10_4 1_555 1_555
H8_4 C15_4 1_555 1_555
C16_4 C10_4 1_555 1_555
O41 C65_3 1_555 1_555
C65_3 C69_3 1_555 1_555
C66_3 C67_3 1_555 1_555
C67_3 H33_3 1_555 1_555
C68_3 C67_3 1_555 1_555
H34_3 C68_3 1_555 1_555
C69_3 C68_3 1_555 1_555
C71_3 C66_3 1_555 1_555
C72_3 O42_2 1_555 1_555
Sc10_2 O7_4 1_555 1_555
O50_3 Sc15_3 1_555 1_555
O52_3 Sc19_5 1_555 1_555
C12_4 C13_4 1_555 1_555
C14_4 C15_4 1_555 1_555
O43_2 C72_3 1_555 1_555
C66_3 C72_3 1_555 1_555
H35_3 C70_3 1_555 1_555
C26_3 H13_3 1_555 1_555
Sc1_2 O1_3 1_555 1_555
O1_3 C1_3 1_555 1_555
O3_3 C8_3 1_555 1_555
O13_3 Sc1_2 1_555 1_555
O17_3 C33_3 1_555 1_555
O18_3 Sc1_2 1_555 1_555
C1_3 C7_3 1_555 1_555
C2_3 H1_3 1_555 1_555
C3_3 C2_3 1_555 1_555
H2_3 C3_3 1_555 1_555
C4_3 C3_3 1_555 1_555
C7_3 C2_3 1_555 1_555
C8_3 C4_3 1_555 1_555
C33_3 O18_3 1_555 1_555
C34_3 C33_3 1_555 1_555
C35_3 C34_3 1_555 1_555
H17_3 C35_3 1_555 1_555
C40_3 C34_3 1_555 1_555
H20_3 C40_3 1_555 1_555
O40_4 C65_4 1_555 1_555
O41_4 C65_4 1_555 1_555
O35_2 Sc1_2 1_555 1_555
C65_4 C69_4 1_555 1_555
C69_4 C68_4 1_555 1_555
C70_4 C69_4 1_555 1_555
H35_4 C70_4 1_555 1_555
C71_4 C66_4 1_555 1_555
H36_4 C71_4 1_555 1_555
C72_4 O35_2 1_555 1_555
Sc11_2 O17_3 1_555 1_555
Sc18_2 O3_3 1_555 1_555
O47_2 Sc1_2 1_555 1_555
O48_3 Sc1_2 1_555 1_555
C66_4 C72_4 1_555 1_555
C70_4 C71_4 1_555 1_555
O25_3 C49_3 1_555 1_555
O26_3 C49_3 1_555 1_555
O31_3 C64_3 1_555 1_555
O32_3 C64_3 1_555 1_555
C49_3 C54_3 1_555 1_555
C50_3 H25_3 1_555 1_555
C51_3 C50_3 1_555 1_555
C52_3 C51_3 1_555 1_555
H26_3 C52_3 1_555 1_555
C53_3 C52_3 1_555 1_555
H27_3 C53_3 1_555 1_555
C54_3 C53_3 1_555 1_555
C55_3 C50_3 1_555 1_555
H28_3 C55_3 1_555 1_555
C60_3 C59_3 1_555 1_555
C61_3 C60_3 1_555 1_555
H31_3 C61_3 1_555 1_555
C62_3 C61_3 1_555 1_555
C64_3 C60_3 1_555 1_555
Sc10_3 O26_3 1_555 1_555
Sc21_4 O32_3 1_555 1_555
O31_3 Sc16_5 1_555 1_555
C54_3 C55_3 1_555 1_555
C62_3 C63_3 1_555 1_555
H18_3 C36_3 1_555 1_555
O19_3 C37_3 1_555 1_555
O20_3 C37_3 1_555 1_555
C37_3 C38_3 1_555 1_555
C38_3 C36_3 1_555 1_555
C39_3 C38_3 1_555 1_555
H19_3 C39_3 1_555 1_555
Sc14_2 O19_3 1_555 1_555
O22_3 Sc14_2 1_555 1_555
O27_3 Sc14_2 1_555 1_555
O28_3 C56_3 1_555 1_555
O30_3 Sc14_2 1_555 1_555
H23_3 C45_3 1_555 1_555
C46_3 C45_3 1_555 1_555
H24_3 C46_3 1_555 1_555
C56_3 O27_3 1_555 1_555
Sc10_2 O20_3 1_555 1_555
Sc16_3 O24_3 1_555 1_555
O28_3 Sc10_2 1_555 1_555
O30_3 C57_3 1_555 1_555
O7_5 C16_5 1_555 1_555
O8_5 C16_5 1_555 1_555
O9_3 C17_3 1_555 1_555
O10_3 C17_3 1_555 1_555
O15_3 C32_3 1_555 1_555
O16_3 C32_3 1_555 1_555
C10_5 C11_5 1_555 1_555
C11_5 H5_5 1_555 1_555
C12_5 C11_5 1_555 1_555
C14_5 C13_5 1_555 1_555
H7_5 C14_5 1_555 1_555
C15_5 C10_5 1_555 1_555
H8_5 C15_5 1_555 1_555
C16_5 C10_5 1_555 1_555
C17_3 C22_3 1_555 1_555
C18_3 H9_3 1_555 1_555
C19_3 C18_3 1_555 1_555
C20_3 C19_3 1_555 1_555
H10_3 C20_3 1_555 1_555
C21_3 C20_3 1_555 1_555
H11_3 C21_3 1_555 1_555
C22_3 C21_3 1_555 1_555
C23_3 C18_3 1_555 1_555
H12_3 C23_3 1_555 1_555
C28_3 C27_3 1_555 1_555
C29_3 C28_3 1_555 1_555
H15_3 C29_3 1_555 1_555
C30_3 C29_3 1_555 1_555
C32_3 C28_3 1_555 1_555
Sc9_3 O7_5 1_555 1_555
Sc13_3 O8_5 1_555 1_555
Sc16_6 O15_3 1_555 1_555
Sc21_3 O16_3 1_555 1_555
O10_3 Sc9_3 1_555 1_555
C12_5 C13_5 1_555 1_555
C14_5 C15_5 1_555 1_555
C22_3 C23_3 1_555 1_555
C30_3 C31_3 1_555 1_555
Sc11_2 O2_3 1_555 1_555
Sc3_2 O4_3 1_555 1_555
Sc18_2 O6_5 1_555 1_555
O5_5 Sc3_2 1_555 1_555
O6_5 C9_5 1_555 1_555
O11_3 Sc11_2 1_555 1_555
O48_3 C24_3 1_555 1_555
O14_3 Sc11_2 1_555 1_555
H3_3 C5_3 1_555 1_555
C6_3 C5_3 1_555 1_555
H4_3 C6_3 1_555 1_555
C9_5 O5_5 1_555 1_555
C24_3 O11_3 1_555 1_555
O36_2 Sc11_2 1_555 1_555
C67_4 H33_4 1_555 1_555
O38_5 Sc18_2 1_555 1_555
O39_5 Sc3_2 1_555 1_555
O40_5 Sc3_2 1_555 1_555
O41_5 Sc18_2 1_555 1_555
O45_2 Sc11_2 1_555 1_555
O50_4 Sc3_2 1_555 1_555
O51_4 Sc3_2 1_555 1_555
O52_4 Sc18_2 1_555 1_555
O53_4 Sc18_2 1_555 1_555
O14_3 C25_3 1_555 1_555
C58_3 H29_3 1_555 1_555
Sc10_2 O21_3 1_555 1_555
O21_3 C41_3 1_555 1_555
O23_3 C48_3 1_555 1_555
O29_3 Sc10_2 1_555 1_555
C42_3 H21_3 1_555 1_555
C43_3 C42_3 1_555 1_555
H22_3 C43_3 1_555 1_555
C44_3 C43_3 1_555 1_555
C47_3 C41_3 1_555 1_555
C48_3 C44_3 1_555 1_555
Sc21_2 O23_3 1_555 1_555
C42_3 C47_3 1_555 1_555
O7_6 C16_6 1_555 1_555
O8_6 C16_6 1_555 1_555
C10_6 C11_6 1_555 1_555
C11_6 H5_6 1_555 1_555
C12_6 C11_6 1_555 1_555
C14_6 C13_6 1_555 1_555
H7_6 C14_6 1_555 1_555
C15_6 C10_6 1_555 1_555
H8_6 C15_6 1_555 1_555
C16_6 C10_6 1_555 1_555
Sc10_3 O7_6 1_555 1_555
Sc14_3 O8_6 1_555 1_555
C12_6 C13_6 1_555 1_555
C14_6 C15_6 1_555 1_555
Sc21_2 O6_6 1_555 1_555
O5_6 Sc16_3 1_555 1_555
O6_6 C9_6 1_555 1_555
C9_6 O5_6 1_555 1_555
O38_6 Sc21_2 1_555 1_555
O39_6 Sc16_3 1_555 1_555
O40_6 Sc16_3 1_555 1_555
O41_6 Sc21_2 1_555 1_555
Sc9_3 O1_4 1_555 1_555
Sc13_3 O2_4 1_555 1_555
Sc16_4 O4_4 1_555 1_555
O1_4 C1_4 1_555 1_555
O2_4 C1_4 1_555 1_555
O3_4 C8_4 1_555 1_555
O4_4 C8_4 1_555 1_555
O13_4 Sc9_3 1_555 1_555
O14_4 Sc13_3 1_555 1_555
O51_2 C32_4 1_555 1_555
O17_4 C33_4 1_555 1_555
O18_4 Sc9_3 1_555 1_555
C1_4 C7_4 1_555 1_555
C2_4 H1_4 1_555 1_555
C3_4 C2_4 1_555 1_555
H2_4 C3_4 1_555 1_555
C4_4 C3_4 1_555 1_555
C5_4 C4_4 1_555 1_555
H3_4 C5_4 1_555 1_555
C6_4 C5_4 1_555 1_555
H4_4 C6_4 1_555 1_555
C7_4 C2_4 1_555 1_555
C8_4 C4_4 1_555 1_555
H11_4 C21_4 1_555 1_555
C25_4 O13_4 1_555 1_555
C26_4 H13_4 1_555 1_555
C27_4 C26_4 1_555 1_555
H14_4 C27_4 1_555 1_555
C28_4 C27_4 1_555 1_555
C31_4 C25_4 1_555 1_555
C32_4 C28_4 1_555 1_555
C33_4 O18_4 1_555 1_555
C34_4 C33_4 1_555 1_555
C35_4 C34_4 1_555 1_555
H17_4 C35_4 1_555 1_555
C36_4 C35_4 1_555 1_555
H18_4 C36_4 1_555 1_555
O19_4 C37_4 1_555 1_555
O20_4 C37_4 1_555 1_555
C37_4 C38_4 1_555 1_555
C38_4 C36_4 1_555 1_555
C39_4 C38_4 1_555 1_555
H19_4 C39_4 1_555 1_555
C40_4 C34_4 1_555 1_555
H20_4 C40_4 1_555 1_555
Sc6_3 O19_4 1_555 1_555
O21_4 C41_4 1_555 1_555
O22_4 Sc6_3 1_555 1_555
O23_4 C48_4 1_555 1_555
O24_4 C48_4 1_555 1_555
O44 C49_4 1_555 1_555
O46 C49_4 1_555 1_555
O27_4 Sc6_3 1_555 1_555
O28_4 C56_4 1_555 1_555
O30_4 Sc6_3 1_555 1_555
O50_2 C64_4 1_555 1_555
O52_2 C64_4 1_555 1_555
C41_4 O22_4 1_555 1_555
C42_4 H21_4 1_555 1_555
C43_4 C42_4 1_555 1_555
H22_4 C43_4 1_555 1_555
C44_4 C43_4 1_555 1_555
C45_4 C44_4 1_555 1_555
H23_4 C45_4 1_555 1_555
C46_4 C45_4 1_555 1_555
H24_4 C46_4 1_555 1_555
C47_4 C41_4 1_555 1_555
C48_4 C44_4 1_555 1_555
C49_4 C54_4 1_555 1_555
C50_4 H25_4 1_555 1_555
C51_4 C50_4 1_555 1_555
C52_4 C51_4 1_555 1_555
H26_4 C52_4 1_555 1_555
C53_4 C52_4 1_555 1_555
H27_4 C53_4 1_555 1_555
C54_4 C53_4 1_555 1_555
C55_4 C50_4 1_555 1_555
H28_4 C55_4 1_555 1_555
C56_4 O27_4 1_555 1_555
C57_4 O29_4 1_555 1_555
C58_4 H29_4 1_555 1_555
C59_4 C58_4 1_555 1_555
H30_4 C59_4 1_555 1_555
C60_4 C59_4 1_555 1_555
C61_4 C60_4 1_555 1_555
H31_4 C61_4 1_555 1_555
C62_4 C61_4 1_555 1_555
H32_4 C62_4 1_555 1_555
C63_4 C57_4 1_555 1_555
C64_4 C60_4 1_555 1_555
Sc8_3 O20_4 1_555 1_555
Sc13_4 O9_4 1_555 1_555
Sc17 O24_4 1_555 1_555
Sc21_3 O3_4 1_555 1_555
Sc22 O23_4 1_555 1_555
O43_3 Sc6_3 1_555 1_555
O44_3 Sc6_3 1_555 1_555
O48_4 Sc9_3 1_555 1_555
O14_4 C25_4 1_555 1_555
C6_4 C7_4 1_555 1_555
C26_4 C31_4 1_555 1_555
C30_4 C31_4 1_555 1_555
C39_4 C40_4 1_555 1_555
O28_4 Sc8_3 1_555 1_555
O30_4 C57_4 1_555 1_555
C42_4 C47_4 1_555 1_555
C46_4 C47_4 1_555 1_555
C51_4 C56_4 1_555 1_555
C54_4 C55_4 1_555 1_555
C58_4 C63_4 1_555 1_555
C62_4 C63_4 1_555 1_555
O40_7 Sc16_5 1_555 1_555
Sc21_3 O6_7 1_555 1_555
O5_7 Sc16_6 1_555 1_555
O6_7 C9_7 1_555 1_555
O7_7 C16_7 1_555 1_555
O8_7 C16_7 1_555 1_555
O10_4 C17_4 1_555 1_555
O48_4 C24_4 1_555 1_555
C9_7 O5_7 1_555 1_555
C10_7 C11_7 1_555 1_555
C11_7 H5_7 1_555 1_555
C12_7 C11_7 1_555 1_555
H6_7 C12_7 1_555 1_555
C13_7 C9_7 1_555 1_555
C14_7 C13_7 1_555 1_555
H7_7 C14_7 1_555 1_555
C15_7 C10_7 1_555 1_555
H8_7 C15_7 1_555 1_555
C16_7 C10_7 1_555 1_555
C17_4 C22_4 1_555 1_555
C18_4 H9_4 1_555 1_555
C19_4 C18_4 1_555 1_555
C20_4 C19_4 1_555 1_555
C23_4 C18_4 1_555 1_555
H12_4 C23_4 1_555 1_555
C24_4 O11_4 1_555 1_555
H15_4 C29_4 1_555 1_555
Sc9_4 O7_7 1_555 1_555
Sc13_4 O8_7 1_555 1_555
O46_3 Sc8_3 1_555 1_555
O10_4 Sc9_4 1_555 1_555
C12_7 C13_7 1_555 1_555
C14_7 C15_7 1_555 1_555
C19_4 C24_4 1_555 1_555
C22_4 C23_4 1_555 1_555
O38_7 Sc21_4 1_555 1_555
O39_7 Sc16_7 1_555 1_555
O41_7 Sc21_4 1_555 1_555
O53_5 Sc22 1_555 1_555
C66_5 C67_5 1_555 1_555
C67_5 H33_5 1_555 1_555
C68_5 C67_5 1_555 1_555
C69_5 C68_5 1_555 1_555
C71_5 C66_5 1_555 1_555
C72_5 O42_3 1_555 1_555
O38_8 Sc22_2 1_555 1_555
O39_8 Sc17 1_555 1_555
O50_5 Sc17 1_555 1_555
O51_5 Sc17 1_555 1_555
O52_5 Sc22_2 1_555 1_555
O43_3 C72_5 1_555 1_555
C66_5 C72_5 1_555 1_555
O41_5 C65_5 1_555 1_555
H35_5 C70_5 1_555 1_555
C50_5 H25_5 1_555 1_555
H17_5 C35_5 1_555 1_555
C36_5 C35_5 1_555 1_555
H18_5 C36_5 1_555 1_555
O20_5 C37_5 1_555 1_555
C37_5 C38_5 1_555 1_555
C38_5 C36_5 1_555 1_555
Sc8_4 O20_5 1_555 1_555
Sc13_2 O17_5 1_555 1_555
O28_5 Sc8_4 1_555 1_555
O9_5 C17_5 1_555 1_555
O10_5 C17_5 1_555 1_555
O51_5 C32_5 1_555 1_555
O53_5 C32_5 1_555 1_555
H7_8 C14_8 1_555 1_555
C17_5 C22_5 1_555 1_555
C20_5 C19_5 1_555 1_555
H10_5 C20_5 1_555 1_555
C21_5 C20_5 1_555 1_555
H11_5 C21_5 1_555 1_555
C22_5 C21_5 1_555 1_555
C26_5 H13_5 1_555 1_555
C27_5 C26_5 1_555 1_555
H14_5 C27_5 1_555 1_555
C28_5 C27_5 1_555 1_555
C29_5 C28_5 1_555 1_555
H15_5 C29_5 1_555 1_555
C30_5 C29_5 1_555 1_555
C32_5 C28_5 1_555 1_555
O44_3 C49_5 1_555 1_555
O46_3 C49_5 1_555 1_555
O50_5 C64_5 1_555 1_555
O52_5 C64_5 1_555 1_555
C49_5 C54_5 1_555 1_555
C52_5 C51_5 1_555 1_555
H26_5 C52_5 1_555 1_555
C53_5 C52_5 1_555 1_555
H27_5 C53_5 1_555 1_555
C54_5 C53_5 1_555 1_555
C58_5 H29_5 1_555 1_555
C59_5 C58_5 1_555 1_555
H30_5 C59_5 1_555 1_555
C60_5 C59_5 1_555 1_555
C61_5 C60_5 1_555 1_555
H31_5 C61_5 1_555 1_555
C62_5 C61_5 1_555 1_555
C64_5 C60_5 1_555 1_555
Sc13_5 O9_5 1_555 1_555
O10_5 Sc9_5 1_555 1_555
C22_5 C23_5 1_555 1_555
C26_5 C31_5 1_555 1_555
C30_5 C31_5 1_555 1_555
C54_5 C55_5 1_555 1_555
C58_5 C63_5 1_555 1_555
C62_5 C63_5 1_555 1_555
Sc9_2 O1_5 1_555 1_555
Sc13_2 O2_5 1_555 1_555
O1_5 C1_5 1_555 1_555
O2_5 C1_5 1_555 1_555
O38_6 C8_5 1_555 1_555
O39_6 C8_5 1_555 1_555
O11_5 Sc13_2 1_555 1_555
O13_5 Sc9_2 1_555 1_555
O14_5 Sc13_2 1_555 1_555
O18_5 Sc9_2 1_555 1_555
C1_5 C7_5 1_555 1_555
C2_5 H1_5 1_555 1_555
C3_5 C2_5 1_555 1_555
H2_5 C3_5 1_555 1_555
C4_5 C3_5 1_555 1_555
C5_5 C4_5 1_555 1_555
H3_5 C5_5 1_555 1_555
C6_5 C5_5 1_555 1_555
H4_5 C6_5 1_555 1_555
C7_5 C2_5 1_555 1_555
C8_5 C4_5 1_555 1_555
C24_5 O11_5 1_555 1_555
C25_5 O13_5 1_555 1_555
C33_5 O18_5 1_555 1_555
C34_5 C33_5 1_555 1_555
H19_5 C39_5 1_555 1_555
C40_5 C34_5 1_555 1_555
H20_5 C40_5 1_555 1_555
Sc8_4 O21_5 1_555 1_555
Sc6_4 O19_5 1_555 1_555
O21_5 C41_5 1_555 1_555
O22_5 Sc6_4 1_555 1_555
O38_5 C48_5 1_555 1_555
O39_5 C48_5 1_555 1_555
O27_5 Sc6_4 1_555 1_555
O29_5 Sc8_4 1_555 1_555
O30_5 Sc6_4 1_555 1_555
C41_5 O22_5 1_555 1_555
C42_5 H21_5 1_555 1_555
C43_5 C42_5 1_555 1_555
H22_5 C43_5 1_555 1_555
C44_5 C43_5 1_555 1_555
C45_5 C44_5 1_555 1_555
H23_5 C45_5 1_555 1_555
C46_5 C45_5 1_555 1_555
H24_5 C46_5 1_555 1_555
C47_5 C41_5 1_555 1_555
C48_5 C44_5 1_555 1_555
C56_5 O27_5 1_555 1_555
C57_5 O29_5 1_555 1_555
O42_4 Sc8_4 1_555 1_555
O43_4 Sc6_4 1_555 1_555
O44_4 Sc6_4 1_555 1_555
O46_4 Sc8_4 1_555 1_555
O48_5 Sc9_2 1_555 1_555
O14_5 C25_5 1_555 1_555
C6_5 C7_5 1_555 1_555
C39_5 C40_5 1_555 1_555
O30_5 C57_5 1_555 1_555
C42_5 C47_5 1_555 1_555
C46_5 C47_5 1_555 1_555
O7_8 C16_8 1_555 1_555
O8_8 C16_8 1_555 1_555
C10_8 C11_8 1_555 1_555
C11_8 H5_8 1_555 1_555
C12_8 C11_8 1_555 1_555
C15_8 C10_8 1_555 1_555
C16_8 C10_8 1_555 1_555
C18_5 H9_5 1_555 1_555
Sc13_5 O8_8 1_555 1_555
C12_8 C13_8 1_555 1_555
O41_6 C9_8 1_555 1_555
O40_3 C65_6 1_555 1_555
O41_3 C65_6 1_555 1_555
C65_6 C69_6 1_555 1_555
C66_6 C67_6 1_555 1_555
C67_6 H33_6 1_555 1_555
C68_6 C67_6 1_555 1_555
H34_6 C68_6 1_555 1_555
C69_6 C68_6 1_555 1_555
C70_6 C69_6 1_555 1_555
H35_6 C70_6 1_555 1_555
C71_6 C66_6 1_555 1_555
H36_6 C71_6 1_555 1_555
C72_6 O42_4 1_555 1_555
O43_4 C72_6 1_555 1_555
C66_6 C72_6 1_555 1_555
C70_6 C71_6 1_555 1_555
O17_6 C33_6 1_555 1_555
O18_6 Sc9_5 1_555 1_555
C33_6 O18_6 1_555 1_555
C34_6 C33_6 1_555 1_555
C35_6 C34_6 1_555 1_555
H17_6 C35_6 1_555 1_555
C36_6 C35_6 1_555 1_555
H18_6 C36_6 1_555 1_555
O19_6 C37_6 1_555 1_555
O20_6 C37_6 1_555 1_555
C37_6 C38_6 1_555 1_555
C38_6 C36_6 1_555 1_555
C39_6 C38_6 1_555 1_555
H19_6 C39_6 1_555 1_555
C40_6 C34_6 1_555 1_555
H20_6 C40_6 1_555 1_555
O26_4 C49_6 1_555 1_555
O28_6 C56_6 1_555 1_555
C49_6 C54_6 1_555 1_555
C50_6 H25_6 1_555 1_555
C51_6 C50_6 1_555 1_555
C52_6 C51_6 1_555 1_555
C55_6 C50_6 1_555 1_555
H28_6 C55_6 1_555 1_555
C56_6 O27_6 1_555 1_555
H31_6 C61_6 1_555 1_555
Sc10_3 O20_6 1_555 1_555
Sc10_4 O26_4 1_555 1_555
Sc13_5 O17_6 1_555 1_555
O48_6 Sc9_5 1_555 1_555
C39_6 C40_6 1_555 1_555
O28_6 Sc10_3 1_555 1_555
C51_6 C56_6 1_555 1_555
C54_6 C55_6 1_555 1_555
Sc13_5 O2_6 1_555 1_555
O1_6 C1_6 1_555 1_555
O2_6 C1_6 1_555 1_555
O38_8 C8_6 1_555 1_555
O39_8 C8_6 1_555 1_555
O45 C17_6 1_555 1_555
O47 C17_6 1_555 1_555
O11_6 Sc13_5 1_555 1_555
O48_6 C24_6 1_555 1_555
O14_6 Sc13_5 1_555 1_555
O50 C32_6 1_555 1_555
O52 C32_6 1_555 1_555
C1_6 C7_6 1_555 1_555
C2_6 H1_6 1_555 1_555
C3_6 C2_6 1_555 1_555
H2_6 C3_6 1_555 1_555
C4_6 C3_6 1_555 1_555
C5_6 C4_6 1_555 1_555
H3_6 C5_6 1_555 1_555
C6_6 C5_6 1_555 1_555
H4_6 C6_6 1_555 1_555
C7_6 C2_6 1_555 1_555
C8_6 C4_6 1_555 1_555
C17_6 C22_6 1_555 1_555
C18_6 H9_6 1_555 1_555
C19_6 C18_6 1_555 1_555
C20_6 C19_6 1_555 1_555
H10_6 C20_6 1_555 1_555
C21_6 C20_6 1_555 1_555
H11_6 C21_6 1_555 1_555
C22_6 C21_6 1_555 1_555
C23_6 C18_6 1_555 1_555
H12_6 C23_6 1_555 1_555
C24_6 O11_6 1_555 1_555
C25_6 O13_6 1_555 1_555
C26_6 H13_6 1_555 1_555
C27_6 C26_6 1_555 1_555
H14_6 C27_6 1_555 1_555
C28_6 C27_6 1_555 1_555
C29_6 C28_6 1_555 1_555
H15_6 C29_6 1_555 1_555
C30_6 C29_6 1_555 1_555
H16_6 C30_6 1_555 1_555
C31_6 C25_6 1_555 1_555
C32_6 C28_6 1_555 1_555
Sc10_3 O21_6 1_555 1_555
O21_6 C41_6 1_555 1_555
O22_6 Sc14_3 1_555 1_555
O38_7 C48_6 1_555 1_555
O39_7 C48_6 1_555 1_555
O29_6 Sc10_3 1_555 1_555
O30_6 Sc14_3 1_555 1_555
O51 C64_6 1_555 1_555
C41_6 O22_6 1_555 1_555
C42_6 H21_6 1_555 1_555
C43_6 C42_6 1_555 1_555
H22_6 C43_6 1_555 1_555
C44_6 C43_6 1_555 1_555
C45_6 C44_6 1_555 1_555
H23_6 C45_6 1_555 1_555
C46_6 C45_6 1_555 1_555
H24_6 C46_6 1_555 1_555
C47_6 C41_6 1_555 1_555
C48_6 C44_6 1_555 1_555
H27_6 C53_6 1_555 1_555
C57_6 O29_6 1_555 1_555
C58_6 H29_6 1_555 1_555
C59_6 C58_6 1_555 1_555
H30_6 C59_6 1_555 1_555
C60_6 C59_6 1_555 1_555
C63_6 C57_6 1_555 1_555
C64_6 C60_6 1_555 1_555
Sc14_4 O25_4 1_555 1_555
O14_6 C25_6 1_555 1_555
C6_6 C7_6 1_555 1_555
C19_6 C24_6 1_555 1_555
C22_6 C23_6 1_555 1_555
C26_6 C31_6 1_555 1_555
C30_6 C31_6 1_555 1_555
O30_6 C57_6 1_555 1_555
C42_6 C47_6 1_555 1_555
C46_6 C47_6 1_555 1_555
C58_6 C63_6 1_555 1_555
C62_6 C63_6 1_555 1_555
O41_7 C9_9 1_555 1_555
O7_9 C16_9 1_555 1_555
O8_9 C16_9 1_555 1_555
C9_9 O40_7 1_555 1_555
C10_9 C11_9 1_555 1_555
C11_9 H5_9 1_555 1_555
C12_9 C11_9 1_555 1_555
H6_9 C12_9 1_555 1_555
C13_9 C9_9 1_555 1_555
C14_9 C13_9 1_555 1_555
H7_9 C14_9 1_555 1_555
C15_9 C10_9 1_555 1_555
H8_9 C15_9 1_555 1_555
C16_9 C10_9 1_555 1_555
Sc10_4 O7_9 1_555 1_555
Sc14_4 O8_9 1_555 1_555
C12_9 C13_9 1_555 1_555
C14_9 C15_9 1_555 1_555
H17_7 C35_7 1_555 1_555
Sc13_4 O17_7 1_555 1_555
H18_7 C36_7 1_555 1_555
O20_7 C37_7 1_555 1_555
C37_7 C38_7 1_555 1_555
C38_7 C36_7 1_555 1_555
C50_7 H25_7 1_555 1_555
Sc10_4 O20_7 1_555 1_555
O28_7 Sc10_4 1_555 1_555
Sc9_4 O1_7 1_555 1_555
Sc13_4 O2_7 1_555 1_555
O1_7 C1_7 1_555 1_555
O2_7 C1_7 1_555 1_555
O38_2 C8_7 1_555 1_555
O39_2 C8_7 1_555 1_555
O9_6 C17_7 1_555 1_555
O10_6 C17_7 1_555 1_555
O11_7 Sc13_4 1_555 1_555
O13_7 Sc9_4 1_555 1_555
O14_7 Sc13_4 1_555 1_555
O51_3 C32_7 1_555 1_555
O53_3 C32_7 1_555 1_555
O18_7 Sc9_4 1_555 1_555
C1_7 C7_7 1_555 1_555
C2_7 H1_7 1_555 1_555
C3_7 C2_7 1_555 1_555
H2_7 C3_7 1_555 1_555
C4_7 C3_7 1_555 1_555
C5_7 C4_7 1_555 1_555
H3_7 C5_7 1_555 1_555
C6_7 C5_7 1_555 1_555
H4_7 C6_7 1_555 1_555
C7_7 C2_7 1_555 1_555
C8_7 C4_7 1_555 1_555
H7_10 C14_10 1_555 1_555
C17_7 C22_7 1_555 1_555
C20_7 C19_7 1_555 1_555
H10_7 C20_7 1_555 1_555
C21_7 C20_7 1_555 1_555
H11_7 C21_7 1_555 1_555
C22_7 C21_7 1_555 1_555
C24_7 O11_7 1_555 1_555
C25_7 O13_7 1_555 1_555
C26_7 H13_7 1_555 1_555
C27_7 C26_7 1_555 1_555
H14_7 C27_7 1_555 1_555
C28_7 C27_7 1_555 1_555
C29_7 C28_7 1_555 1_555
H15_7 C29_7 1_555 1_555
C30_7 C29_7 1_555 1_555
H16_7 C30_7 1_555 1_555
C31_7 C25_7 1_555 1_555
C32_7 C28_7 1_555 1_555
C33_7 O18_7 1_555 1_555
C34_7 C33_7 1_555 1_555
C40_7 C34_7 1_555 1_555
H20_7 C40_7 1_555 1_555
Sc13_6 O9_6 1_555 1_555
O48_7 Sc9_4 1_555 1_555
O10_6 Sc9_6 1_555 1_555
O14_7 C25_7 1_555 1_555
C6_7 C7_7 1_555 1_555
C19_7 C24_7 1_555 1_555
C22_7 C23_7 1_555 1_555
C26_7 C31_7 1_555 1_555
C30_7 C31_7 1_555 1_555
H19_7 C39_7 1_555 1_555
Sc10_4 O21_7 1_555 1_555
Sc14_4 O19_7 1_555 1_555
O21_7 C41_7 1_555 1_555
O22_7 Sc14_4 1_555 1_555
O38 C48_7 1_555 1_555
O39 C48_7 1_555 1_555
O44_2 C49_7 1_555 1_555
O46_2 C49_7 1_555 1_555
O27_7 Sc14_4 1_555 1_555
O29_7 Sc10_4 1_555 1_555
O30_7 Sc14_4 1_555 1_555
O50_3 C64_7 1_555 1_555
O52_3 C64_7 1_555 1_555
C41_7 O22_7 1_555 1_555
C42_7 H21_7 1_555 1_555
C43_7 C42_7 1_555 1_555
H22_7 C43_7 1_555 1_555
C44_7 C43_7 1_555 1_555
C45_7 C44_7 1_555 1_555
H23_7 C45_7 1_555 1_555
C46_7 C45_7 1_555 1_555
H24_7 C46_7 1_555 1_555
C47_7 C41_7 1_555 1_555
C48_7 C44_7 1_555 1_555
C49_7 C54_7 1_555 1_555
C52_7 C51_7 1_555 1_555
H26_7 C52_7 1_555 1_555
C53_7 C52_7 1_555 1_555
H27_7 C53_7 1_555 1_555
C54_7 C53_7 1_555 1_555
C56_7 O27_7 1_555 1_555
C57_7 O29_7 1_555 1_555
C58_7 H29_7 1_555 1_555
C59_7 C58_7 1_555 1_555
H30_7 C59_7 1_555 1_555
C60_7 C59_7 1_555 1_555
C61_7 C60_7 1_555 1_555
H31_7 C61_7 1_555 1_555
C62_7 C61_7 1_555 1_555
H32_7 C62_7 1_555 1_555
C63_7 C57_7 1_555 1_555
C64_7 C60_7 1_555 1_555
O30_7 C57_7 1_555 1_555
C42_7 C47_7 1_555 1_555
C46_7 C47_7 1_555 1_555
C51_7 C56_7 1_555 1_555
C54_7 C55_7 1_555 1_555
C58_7 C63_7 1_555 1_555
C62_7 C63_7 1_555 1_555
O41_2 C9_10 1_555 1_555
O7_10 C16_10 1_555 1_555
O8_10 C16_10 1_555 1_555
C10_10 C11_10 1_555 1_555
C11_10 H5_10 1_555 1_555
C12_10 C11_10 1_555 1_555
H6_10 C12_10 1_555 1_555
C13_10 C9_10 1_555 1_555
C15_10 C10_10 1_555 1_555
C16_10 C10_10 1_555 1_555
C18_7 H9_7 1_555 1_555
Sc13_6 O8_10 1_555 1_555
C12_10 C13_10 1_555 1_555
O17_8 C33_8 1_555 1_555
O18_8 Sc9_6 1_555 1_555
C33_8 O18_8 1_555 1_555
C34_8 C33_8 1_555 1_555
C35_8 C34_8 1_555 1_555
H17_8 C35_8 1_555 1_555
C36_8 C35_8 1_555 1_555
H18_8 C36_8 1_555 1_555
O19_8 C37_8 1_555 1_555
O20_8 C37_8 1_555 1_555
C37_8 C38_8 1_555 1_555
C38_8 C36_8 1_555 1_555
C39_8 C38_8 1_555 1_555
H19_8 C39_8 1_555 1_555
C40_8 C34_8 1_555 1_555
H20_8 C40_8 1_555 1_555
O46_4 C49_8 1_555 1_555
O28_8 C56_8 1_555 1_555
C49_8 C54_8 1_555 1_555
C50_8 H25_8 1_555 1_555
C51_8 C50_8 1_555 1_555
C52_8 C51_8 1_555 1_555
C55_8 C50_8 1_555 1_555
H28_8 C55_8 1_555 1_555
C56_8 O27_8 1_555 1_555
H31_8 C61_8 1_555 1_555
Sc10 O20_8 1_555 1_555
Sc13_6 O17_8 1_555 1_555
O48_8 Sc9_6 1_555 1_555
C39_8 C40_8 1_555 1_555
O28_8 Sc10 1_555 1_555
C51_8 C56_8 1_555 1_555
C54_8 C55_8 1_555 1_555
Sc13_6 O2_8 1_555 1_555
O1_8 C1_8 1_555 1_555
O2_8 C1_8 1_555 1_555
O38_4 C8_8 1_555 1_555
O39_4 C8_8 1_555 1_555
O45_2 C17_8 1_555 1_555
O47_2 C17_8 1_555 1_555
O11_8 Sc13_6 1_555 1_555
O48_8 C24_8 1_555 1_555
O14_8 Sc13_6 1_555 1_555
O50_4 C32_8 1_555 1_555
O52_4 C32_8 1_555 1_555
C1_8 C7_8 1_555 1_555
C2_8 H1_8 1_555 1_555
C3_8 C2_8 1_555 1_555
H2_8 C3_8 1_555 1_555
C4_8 C3_8 1_555 1_555
C5_8 C4_8 1_555 1_555
H3_8 C5_8 1_555 1_555
C6_8 C5_8 1_555 1_555
H4_8 C6_8 1_555 1_555
C7_8 C2_8 1_555 1_555
C8_8 C4_8 1_555 1_555
C17_8 C22_8 1_555 1_555
C18_8 H9_8 1_555 1_555
C19_8 C18_8 1_555 1_555
C20_8 C19_8 1_555 1_555
H10_8 C20_8 1_555 1_555
C21_8 C20_8 1_555 1_555
H11_8 C21_8 1_555 1_555
C22_8 C21_8 1_555 1_555
C23_8 C18_8 1_555 1_555
H12_8 C23_8 1_555 1_555
C24_8 O11_8 1_555 1_555
C25_8 O13_8 1_555 1_555
C26_8 H13_8 1_555 1_555
C27_8 C26_8 1_555 1_555
H14_8 C27_8 1_555 1_555
C28_8 C27_8 1_555 1_555
C29_8 C28_8 1_555 1_555
H15_8 C29_8 1_555 1_555
C30_8 C29_8 1_555 1_555
H16_8 C30_8 1_555 1_555
C31_8 C25_8 1_555 1_555
C32_8 C28_8 1_555 1_555
Sc10 O21_8 1_555 1_555
O21_8 C41_8 1_555 1_555
O22_8 Sc14 1_555 1_555
O38_3 C48_8 1_555 1_555
O39_3 C48_8 1_555 1_555
O29_8 Sc10 1_555 1_555
O30_8 Sc14 1_555 1_555
O51_4 C64_8 1_555 1_555
C41_8 O22_8 1_555 1_555
C42_8 H21_8 1_555 1_555
C43_8 C42_8 1_555 1_555
H22_8 C43_8 1_555 1_555
C44_8 C43_8 1_555 1_555
C45_8 C44_8 1_555 1_555
H23_8 C45_8 1_555 1_555
C46_8 C45_8 1_555 1_555
H24_8 C46_8 1_555 1_555
C47_8 C41_8 1_555 1_555
C48_8 C44_8 1_555 1_555
H27_8 C53_8 1_555 1_555
C57_8 O29_8 1_555 1_555
C58_8 H29_8 1_555 1_555
C59_8 C58_8 1_555 1_555
H30_8 C59_8 1_555 1_555
C60_8 C59_8 1_555 1_555
C63_8 C57_8 1_555 1_555
C64_8 C60_8 1_555 1_555
O14_8 C25_8 1_555 1_555
C6_8 C7_8 1_555 1_555
C19_8 C24_8 1_555 1_555
C22_8 C23_8 1_555 1_555
C26_8 C31_8 1_555 1_555
C30_8 C31_8 1_555 1_555
O30_8 C57_8 1_555 1_555
C42_8 C47_8 1_555 1_555
C46_8 C47_8 1_555 1_555
C58_8 C63_8 1_555 1_555
C62_8 C63_8 1_555 1_555

#END
