
###############################################################################
#
# This file contains modified crystal structure data generated from the
# MOF subset of the Cambridge Structural Database (CSD) v543 
# hosted by the Cambridge Crystallographic Data Centre (CCDC).
#
# This work is licensed under the Creative Commons
# Attribution-NonCommercial-ShareAlike 4.0 International License.
# To view a copy of this license, visit
# http://creativecommons.org/licenses/by-nc-sa/4.0/
# or send a letter to
# Creative Commons, PO Box 1866, Mountain View, CA 94042, USA.
#
# CIF created using the CSD Python API on 29 September 2022
# The structure has been converted into the P1 space group
# The structure has a 3D framework
# The original CSD entry BADXUC is in the monoclinic crystal system
# The framework has been calculated to contain at least 10.0% void space
# The void calculation uses a probe of radius 1.32A, grid spacing 0.4
#
###############################################################################

data_BADXUC
_chemical_formula_moiety         '(C192 H120 N48 O44 Tb8)n'
_symmetry_cell_setting           triclinic
_symmetry_space_group_name_H-M   'P 1'
_symmetry_Int_Tables_number      1
_space_group_name_Hall           'P 1'
loop_
_symmetry_equiv_pos_site_id
_symmetry_equiv_pos_as_xyz
1 x,y,z
_cell_length_a                   28.652(6)
_cell_length_b                   22.834(5)
_cell_length_c                   15.156(3)
_cell_angle_alpha                90
_cell_angle_beta                 76.36(3)
_cell_angle_gamma                90
_cell_volume                     9636
loop_
_atom_site_label
_atom_site_type_symbol
_atom_site_fract_x
_atom_site_fract_y
_atom_site_fract_z
C8 C 0.0624(6) 0.0431(7) 0.4110(10)
C9 C 0.0662(9) 0.0483(10) 0.2595(14)
C10 C 0.0157(6) 0.1088(7) 0.3613(12)
H12 H 0.1632 0.0364 0.0448
N1 N 0.0768(5) 0.0252(6) 0.4893(9)
H25 H 0.0645 0.0424 0.5399
N2 N 0.0835(5) 0.0256(7) 0.3287(10)
N3 N 0.0333(6) 0.0951(7) 0.2657(10)
N4 N 0.0273(4) 0.0856(6) 0.4286(8)
N6 N 0.0887(7) 0.0382(8) 0.1682(12)
H27 H 0.0835 0.0610 0.1264
C38 C 0.5826(6) 0.3161(8) 0.0123(12)
H19 H 0.5852 0.3291 0.0691
H20 H 0.5184 0.3532 0.0124
C42 C 0.3965(7) 0.5187(8) 0.1023(13)
C43 C 0.4039(8) 0.5358(10) 0.1830(14)
H21 H 0.4277 0.5169 0.2046
C44 C 0.3778(6) 0.5803(8) 0.2361(13)
H22 H 0.3841 0.5928 0.2905
C45 C 0.3402(6) 0.6051(7) 0.1988(11)
C46 C 0.3303(7) 0.5909(9) 0.1202(13)
H23 H 0.3078 0.6110 0.0967
C47 C 0.3589(6) 0.5387(8) 0.0712(13)
H24 H 0.3506 0.5214 0.0215
C48 C 0.3097(7) 0.6553(8) 0.2553(14)
N11 N 0.4257(6) 0.4706(7) 0.0544(10)
H29 H 0.4412 0.4515 0.0874
O4 O 0.3218(4) 0.6709(5) 0.3270(8)
O5 O 0.6575(4) 0.2737(5) 0.0790(7)
O11 O 0.2770(4) 0.6781(6) 0.2237(9)
Tb6 Tb 0.23474(3) 0.74871(3) 0.17600(5)
Tb7 Tb 0.26627(2) 0.73587(3) 0.40819(5)
Tb8 Tb 0.73373(2) 0.23587(3) 0.09181(5)
C1 C 0.2080(6) 0.8463(7) 0.5323(9)
C2 C 0.1728(6) 0.8953(7) 0.5190(10)
C3 C 0.1422(6) 0.9199(7) 0.5919(12)
H1 H 0.1441 0.9093 0.6502
C4 C 0.1072(8) 0.9617(10) 0.5805(14)
H2 H 0.0839 0.9761 0.6291
C5 C 0.1105(6) 0.9801(7) 0.4879(10)
C6 C 0.1443(6) 0.9554(7) 0.4113(12)
H3 H 0.1442 0.9665 0.3522
C7 C 0.1770(6) 0.9142(7) 0.4286(11)
H4 H 0.2010 0.8995 0.3815
C18 C 0.2142(6) 0.8506(8) 0.0204(10)
C19 C 0.1208(5) 0.9892(5) 0.1455(9)
C20 C 0.1140(4) 0.9338(6) 0.1845(8)
H9 H 0.0886 0.9271 0.2344
C21 C 0.1451(5) 0.8885(4) 0.1487(8)
H10 H 0.1405 0.8514 0.1747
C22 C 0.1829(4) 0.8985(5) 0.0740(8)
C23 C 0.1897(4) 0.9539(6) 0.0351(8)
C24 C 0.1586(5) 0.9993(4) 0.0709(9)
C25 C 0.2782(5) 0.6544(7) 0.7452(11)
C26 C 0.3088(6) 0.6019(7) 0.7600(11)
C27 C 0.3446(6) 0.6076(8) 0.8042(12)
H13 H 0.3492 0.6418 0.8343
C28 C 0.3740(9) 0.5584(10) 0.8013(15)
H14 H 0.4027 0.5622 0.8191
C29 C 0.3615(7) 0.5045(9) 0.7729(13)
C30 C 0.3237(8) 0.4982(10) 0.7269(15)
H15 H 0.3186 0.4633 0.6989
C31 C 0.2947(7) 0.5475(8) 0.7265(13)
H16 H 0.2669 0.5450 0.7050
C32 C 0.4156(7) 0.4388(8) 0.8388(13)
C33 C 0.4756(6) 0.3850(7) 0.8699(11)
C34 C 0.5438(7) 0.3215(8) 0.8919(14)
C35 C 0.5752(6) 0.2794(8) 0.8383(12)
H17 H 0.5710 0.2664 0.7826
C36 C 0.6150(6) 0.2578(7) 0.8768(10)
H18 H 0.6374 0.2311 0.8453
C37 C 0.6177(5) 0.2780(7) 0.9593(9)
C39 C 0.5441(7) 0.3332(9) 0.9760(13)
C40 C 0.6624(5) 0.2617(6) 0.9951(11)
C41 C 0.4333(6) 0.4498(7) 0.9655(12)
N7 N 0.3928(5) 0.4541(6) 0.7705(10)
H28 H 0.3976 0.4320 0.7232
N8 N 0.4503(5) 0.3965(6) 0.8015(9)
N9 N 0.4686(5) 0.4093(6) 0.9468(9)
N10 N 0.4068(6) 0.4677(7) 0.9119(11)
N12 N 0.5081(5) 0.3418(6) 0.8420(9)
H30 H 0.5081 0.3249 0.7913
O1 O 0.2358(4) 0.8224(4) 0.4676(8)
O3 O 0.2874(3) 0.7037(4) 0.7761(7)
O7 O 0.2094(3) 0.7969(4) 0.0572(6)
O8 O 0.2027(4) 0.8292(5) 0.6133(7)
O9 O 0.6985(4) 0.2400(4) 0.9412(9)
O10 O 0.2469(4) 0.6519(5) 0.7008(7)
Tb1 Tb 0.23474(3) 0.75129(3) 0.67600(5)
O13 O 0.1951(3) 0.7698(5) 0.8426(9)
O14 O 0.1951(3) 0.7302(5) 0.3426(9)
O15 O 0.2874(3) 0.7963(4) 0.2761(7)
O17 O 0.3425(4) 0.7737(5) 0.4210(7)
O18 O 0.2424(5) 0.6377(5) 0.4565(8)
O19 O 0.2094(3) 0.7031(4) 0.5572(6)
O20 O 0.3015(4) 0.7400(4) 0.5588(9)
O21 O 0.2770(4) 0.8219(6) 0.7237(9)
O22 O 0.1544(4) 0.7376(5) 0.7541(7)
Tb4 Tb 0.76526(3) 0.25129(3) 0.82400(5)
Tb11 Tb 0.26627(2) 0.76413(3) 0.90819(5)
H11 H 0.2151 0.9607 0.9851
O6 O 0.2424(5) 0.8623(5) 0.9565(8)
C11 C 0.9508(5) 0.1734(7) 0.4446(9)
C12 C 0.9510(5) 0.1635(6) 0.5397(10)
H5 H 0.9748 0.1400 0.5537
C13 C 0.9170(6) 0.1879(8) 0.6090(11)
H6 H 0.9173 0.1818 0.6695
C14 C 0.8812(5) 0.2231(7) 0.5841(10)
C15 C 0.8833(6) 0.2372(7) 0.4991(10)
H7 H 0.8607 0.2634 0.4871
C16 C 0.9161(5) 0.2157(8) 0.4297(11)
H8 H 0.9168 0.2281 0.3710
C17 C 0.8411(4) 0.2430(5) 0.6645(10)
N5 N 0.9839(5) 0.1556(6) 0.3660(10)
H26 H 0.9847 0.1748 0.3170
O2 O 0.8049(3) 0.2698(5) 0.6574(9)
O12 O 0.8456(4) 0.2376(5) 0.7459(7)
Tb9 Tb 0.73373(2) 0.26413(3) 0.59181(5)
C12_2 C 0.0490(5) 0.6635(6) 0.9603(10)
H5_2 H 0.0252 0.6400 0.9463
C13_2 C 0.0830(6) 0.6879(8) 0.8910(11)
H6_2 H 0.0827 0.6818 0.8305
C14_2 C 0.1188(5) 0.7231(7) 0.9159(10)
C17_2 C 0.1589(4) 0.7430(5) 0.8355(10)
C5_2 C 0.8895(6) 0.4801(7) 0.0121(10)
C6_2 C 0.8557(6) 0.4554(7) 0.0887(12)
H3_2 H 0.8558 0.4665 0.1478
C7_2 C 0.8230(6) 0.4142(7) 0.0714(11)
H4_2 H 0.7990 0.3995 0.1185
C8_2 C 0.9376(6) 0.5431(7) 0.0890(10)
C9_2 C 0.9338(9) 0.5483(10) 0.2405(14)
C10_2 C 0.9843(6) 0.6088(7) 0.1387(12)
C18_2 C 0.7858(6) 0.3506(8) 0.4796(10)
C19_2 C 0.8792(5) 0.4892(5) 0.3545(9)
C20_2 C 0.8860(4) 0.4338(6) 0.3155(8)
H9_2 H 0.9114 0.4271 0.2656
C21_2 C 0.8549(5) 0.3885(4) 0.3513(8)
H10_2 H 0.8595 0.3514 0.3253
C22_2 C 0.8171(4) 0.3985(5) 0.4260(8)
C23_2 C 0.8103(4) 0.4539(6) 0.4649(8)
H11_2 H 0.7849 0.4607 0.5149
C24_2 C 0.8414(5) 0.4993(4) 0.4291(9)
H12_2 H 0.8368 0.5364 0.4552
N1_2 N 0.9232(5) 0.5252(6) 0.0107(9)
N2_2 N 0.9165(5) 0.5256(7) 0.1713(10)
N3_2 N 0.9667(6) 0.5951(7) 0.2343(10)
N4_2 N 0.9727(4) 0.5856(6) 0.0714(8)
N6_2 N 0.9113(7) 0.5382(8) 0.3318(12)
H27_2 H 0.9165 0.5610 0.3736
O1_2 O 0.7642(4) 0.3224(4) 0.0324(8)
O6_2 O 0.7576(5) 0.3623(5) 0.5435(8)
O7_2 O 0.7906(3) 0.2969(4) 0.4428(6)
O14_2 O 0.8049(3) 0.2302(5) 0.1574(9)
O15_2 O 0.7126(3) 0.2963(4) 0.2239(7)
O16 O 0.6782(4) 0.1709(5) 0.1730(8)
O18_2 O 0.7576(5) 0.1377(5) 0.0435(8)
Tb5 Tb 0.76526(3) 0.24871(3) 0.32400(5)
C1_2 C 0.7920(6) 0.3463(7) 0.9677(9)
C2_2 C 0.8272(6) 0.3953(7) 0.9810(10)
C3_2 C 0.8578(6) 0.4199(7) 0.9081(12)
H1_2 H 0.8559 0.4093 0.8498
C4_2 C 0.8928(8) 0.4617(10) 0.9195(14)
H2_2 H 0.9161 0.4761 0.8709
C25_2 C 0.7218(5) 0.1544(7) 0.7548(11)
C26_2 C 0.6912(6) 0.1019(7) 0.7400(11)
C27_2 C 0.6554(6) 0.1076(8) 0.6958(12)
H13_2 H 0.6508 0.1418 0.6657
C28_2 C 0.6260(9) 0.0584(10) 0.6987(15)
H14_2 H 0.5973 0.0622 0.6809
C29_2 C 0.6385(7) 0.0045(9) 0.7271(13)
C31_2 C 0.7053(7) 0.0475(8) 0.7735(13)
H16_2 H 0.7331 0.0450 0.7950
C42_2 C 0.6035(7) 0.0187(8) 0.3977(13)
C43_2 C 0.5961(8) 0.0358(10) 0.3170(14)
H21_2 H 0.5723 0.0169 0.2954
C44_2 C 0.6222(6) 0.0803(8) 0.2639(13)
H22_2 H 0.6159 0.0928 0.2095
C45_2 C 0.6598(6) 0.1051(7) 0.3012(11)
C46_2 C 0.6697(7) 0.0909(9) 0.3798(13)
H23_2 H 0.6922 0.1110 0.4033
C47_2 C 0.6411(6) 0.0387(8) 0.4288(13)
H24_2 H 0.6494 0.0214 0.4785
C48_2 C 0.6903(7) 0.1553(8) 0.2447(14)
H25_2 H 0.9355 0.5424 0.9601
O3_2 O 0.7126(3) 0.2037(4) 0.7239(7)
O8_2 O 0.7973(4) 0.3292(5) 0.8867(7)
O10_2 O 0.7531(4) 0.1519(5) 0.7992(7)
O11_2 O 0.7230(4) 0.1781(6) 0.2763(9)
O19_2 O 0.7906(3) 0.2031(4) 0.9428(6)
O21_2 O 0.7230(4) 0.3219(6) 0.7763(9)
C30_2 C 0.6763(8) 0.9982(10) 0.7731(15)
H15_2 H 0.6814 0.9633 0.8011
C32_2 C 0.5844(7) 0.9388(8) 0.6612(13)
C33_2 C 0.5244(6) 0.8850(7) 0.6301(11)
C34_2 C 0.4562(7) 0.8215(8) 0.6081(14)
C35_2 C 0.4248(6) 0.7794(8) 0.6617(12)
H17_2 H 0.4290 0.7664 0.7174
C36_2 C 0.3850(6) 0.7578(7) 0.6232(10)
H18_2 H 0.3626 0.7311 0.6547
C37_2 C 0.3823(5) 0.7780(7) 0.5407(9)
C38_2 C 0.4174(6) 0.8161(8) 0.4877(12)
H19_2 H 0.4148 0.8291 0.4309
C39_2 C 0.4559(7) 0.8332(9) 0.5240(13)
H20_2 H 0.4816 0.8532 0.4876
C40_2 C 0.3376(5) 0.7617(6) 0.5049(11)
C41_2 C 0.5667(6) 0.9498(7) 0.5345(12)
N7_2 N 0.6072(5) 0.9541(6) 0.7295(10)
H28_2 H 0.6024 0.9320 0.7768
N8_2 N 0.5497(5) 0.8965(6) 0.6985(9)
N9_2 N 0.5314(5) 0.9093(6) 0.5532(9)
N10_2 N 0.5932(6) 0.9677(7) 0.5881(11)
N11_2 N 0.5743(6) 0.9706(7) 0.4456(10)
H29_2 H 0.5588 0.9515 0.4126
N12_2 N 0.4919(5) 0.8418(6) 0.6580(9)
H30_2 H 0.4919 0.8249 0.7087
C11_2 C 0.0492(5) 0.8266(7) 0.5554(9)
C12_3 C 0.0490(5) 0.8365(6) 0.4603(10)
H5_3 H 0.0252 0.8600 0.4463
C13_3 C 0.0830(6) 0.8121(8) 0.3910(11)
H6_3 H 0.0827 0.8182 0.3305
C14_3 C 0.1188(5) 0.7769(7) 0.4159(10)
C15_2 C 0.1167(6) 0.7628(7) 0.5009(10)
H7_2 H 0.1393 0.7366 0.5129
C16_2 C 0.0839(5) 0.7843(8) 0.5703(11)
H8_2 H 0.0832 0.7719 0.6290
C17_3 C 0.1589(4) 0.7570(5) 0.3355(10)
N5_2 N 0.0161(5) 0.8444(6) 0.6340(10)
H26_2 H 0.0153 0.8252 0.6830
O12_2 O 0.1544(4) 0.7624(5) 0.2541(7)
H11_3 H 0.7849 0.0393 0.0149
C1_3 C 0.7920(6) 0.1537(7) 0.4677(9)
C2_3 C 0.8272(6) 0.1047(7) 0.4810(10)
C3_3 C 0.8578(6) 0.0801(7) 0.4081(12)
H1_3 H 0.8559 0.0907 0.3498
C4_3 C 0.8928(8) 0.0383(10) 0.4195(14)
H2_3 H 0.9161 0.0239 0.3709
C5_3 C 0.8895(6) 0.0199(7) 0.5121(10)
C6_3 C 0.8557(6) 0.0446(7) 0.5887(12)
H3_3 H 0.8558 0.0335 0.6478
C7_3 C 0.8230(6) 0.0858(7) 0.5714(11)
H4_3 H 0.7990 0.1005 0.6185
C18_3 C 0.7858(6) 0.1494(8) 0.9796(10)
C19_3 C 0.8792(5) 0.0108(5) 0.8545(9)
C20_3 C 0.8860(4) 0.0662(6) 0.8155(8)
H9_3 H 0.9114 0.0729 0.7656
C21_3 C 0.8549(5) 0.1115(4) 0.8513(8)
H10_3 H 0.8595 0.1486 0.8253
C22_3 C 0.8171(4) 0.1015(5) 0.9260(8)
C23_3 C 0.8103(4) 0.0461(6) 0.9649(8)
C24_3 C 0.8414(5) 0.0007(4) 0.9291(9)
C25_3 C 0.7218(5) 0.3456(7) 0.2548(11)
C26_3 C 0.6912(6) 0.3981(7) 0.2400(11)
C27_3 C 0.6554(6) 0.3924(8) 0.1958(12)
H13_3 H 0.6508 0.3582 0.1657
C28_3 C 0.6260(9) 0.4416(10) 0.1987(15)
H14_3 H 0.5973 0.4378 0.1809
C29_3 C 0.6385(7) 0.4955(9) 0.2271(13)
C30_3 C 0.6763(8) 0.5018(10) 0.2731(15)
H15_3 H 0.6814 0.5367 0.3011
C31_3 C 0.7053(7) 0.4525(8) 0.2735(13)
H16_3 H 0.7331 0.4550 0.2950
C32_3 C 0.5844(7) 0.5612(8) 0.1612(13)
C33_3 C 0.5244(6) 0.6150(7) 0.1301(11)
C34_3 C 0.4562(7) 0.6785(8) 0.1081(14)
C35_3 C 0.4248(6) 0.7206(8) 0.1617(12)
H17_3 H 0.4290 0.7336 0.2174
C36_3 C 0.3850(6) 0.7422(7) 0.1232(10)
H18_3 H 0.3626 0.7689 0.1547
C37_3 C 0.3823(5) 0.7220(7) 0.0407(9)
C39_3 C 0.4559(7) 0.6668(9) 0.0240(13)
C40_3 C 0.3376(5) 0.7383(6) 0.0049(11)
C41_3 C 0.5667(6) 0.5502(7) 0.0345(12)
N7_3 N 0.6072(5) 0.5459(6) 0.2295(10)
H28_3 H 0.6024 0.5680 0.2768
N8_3 N 0.5497(5) 0.6035(6) 0.1985(9)
N9_3 N 0.5314(5) 0.5907(6) 0.0532(9)
N10_3 N 0.5932(6) 0.5323(7) 0.0881(11)
N12_3 N 0.4919(5) 0.6582(6) 0.1580(9)
H30_3 H 0.4919 0.6751 0.2087
O1_3 O 0.7642(4) 0.1776(4) 0.5324(8)
O8_3 O 0.7973(4) 0.1708(5) 0.3867(7)
O9_2 O 0.3015(4) 0.7600(4) 0.0588(9)
O10_3 O 0.7531(4) 0.3481(5) 0.2992(7)
O16_2 O 0.6782(4) 0.3291(5) 0.6730(8)
O17_2 O 0.6575(4) 0.2263(5) 0.5790(7)
O20_2 O 0.6985(4) 0.2600(4) 0.4412(9)
O22_2 O 0.8456(4) 0.2624(5) 0.2459(7)
C38_3 C 0.4174(6) 0.6839(8) 0.9877(12)
H19_3 H 0.4148 0.6709 0.9309
H20_3 H 0.4816 0.6468 0.9876
C42_3 C 0.6035(7) 0.4813(8) 0.8977(13)
C43_3 C 0.5961(8) 0.4642(10) 0.8170(14)
H21_3 H 0.5723 0.4831 0.7954
C44_3 C 0.6222(6) 0.4197(8) 0.7639(13)
H22_3 H 0.6159 0.4072 0.7095
C45_3 C 0.6598(6) 0.3949(7) 0.8012(11)
C46_3 C 0.6697(7) 0.4091(9) 0.8798(13)
H23_3 H 0.6922 0.3890 0.9033
C47_3 C 0.6411(6) 0.4613(8) 0.9288(13)
H24_3 H 0.6494 0.4786 0.9785
C48_3 C 0.6903(7) 0.3447(8) 0.7447(14)
N11_3 N 0.5743(6) 0.5294(7) 0.9456(10)
H29_3 H 0.5588 0.5485 0.9126
O5_2 O 0.3425(4) 0.7263(5) 0.9210(7)
C30_4 C 0.3237(8) 0.0018(10) 0.2269(15)
H15_4 H 0.3186 0.0367 0.1989
C32_4 C 0.4156(7) 0.0612(8) 0.3388(13)
C33_4 C 0.4756(6) 0.1150(7) 0.3699(11)
C34_4 C 0.5438(7) 0.1785(8) 0.3919(14)
C35_4 C 0.5752(6) 0.2206(8) 0.3383(12)
H17_4 H 0.5710 0.2336 0.2826
C36_4 C 0.6150(6) 0.2422(7) 0.3768(10)
H18_4 H 0.6374 0.2689 0.3453
C37_4 C 0.6177(5) 0.2220(7) 0.4593(9)
C38_4 C 0.5826(6) 0.1839(8) 0.5123(12)
H19_4 H 0.5852 0.1709 0.5691
C39_4 C 0.5441(7) 0.1668(9) 0.4760(13)
H20_4 H 0.5184 0.1468 0.5124
C40_4 C 0.6624(5) 0.2383(6) 0.4951(11)
C41_4 C 0.4333(6) 0.0502(7) 0.4655(12)
N7_4 N 0.3928(5) 0.0459(6) 0.2705(10)
H28_4 H 0.3976 0.0680 0.2232
N8_4 N 0.4503(5) 0.1035(6) 0.3015(9)
N9_4 N 0.4686(5) 0.0907(6) 0.4468(9)
N10_4 N 0.4068(6) 0.0323(7) 0.4119(11)
N11_4 N 0.4257(6) 0.0294(7) 0.5544(10)
H29_4 H 0.4412 0.0485 0.5874
N12_4 N 0.5081(5) 0.1582(6) 0.3420(9)
H30_4 H 0.5081 0.1751 0.2913
C1_4 C 0.2080(6) 0.6537(7) 0.0323(9)
C2_4 C 0.1728(6) 0.6047(7) 0.0190(10)
C3_4 C 0.1422(6) 0.5801(7) 0.0919(12)
H1_4 H 0.1441 0.5907 0.1502
C4_4 C 0.1072(8) 0.5383(10) 0.0805(14)
H2_4 H 0.0839 0.5239 0.1291
C25_4 C 0.2782(5) 0.8456(7) 0.2452(11)
C26_4 C 0.3088(6) 0.8981(7) 0.2600(11)
C27_4 C 0.3446(6) 0.8924(8) 0.3042(12)
H13_4 H 0.3492 0.8582 0.3343
C28_4 C 0.3740(9) 0.9416(10) 0.3013(15)
H14_4 H 0.4027 0.9378 0.3191
C29_4 C 0.3615(7) 0.9955(9) 0.2729(13)
C31_4 C 0.2947(7) 0.9525(8) 0.2265(13)
H16_4 H 0.2669 0.9550 0.2050
C42_4 C 0.3965(7) 0.9813(8) 0.6023(13)
C43_4 C 0.4039(8) 0.9642(10) 0.6830(14)
H21_4 H 0.4277 0.9831 0.7046
C44_4 C 0.3778(6) 0.9197(8) 0.7361(13)
H22_4 H 0.3841 0.9072 0.7905
C45_4 C 0.3402(6) 0.8949(7) 0.6988(11)
C46_4 C 0.3303(7) 0.9091(9) 0.6202(13)
H23_4 H 0.3078 0.8890 0.5967
C47_4 C 0.3589(6) 0.9613(8) 0.5712(13)
H24_4 H 0.3506 0.9786 0.5215
C48_4 C 0.3097(7) 0.8447(8) 0.7553(14)
H25_3 H 0.0645 0.4576 0.0399
O4_2 O 0.3218(4) 0.8291(5) 0.8270(8)
O8_4 O 0.2027(4) 0.6708(5) 0.1133(7)
O10_4 O 0.2469(4) 0.8481(5) 0.2008(7)
C5_4 C 0.1105(6) 0.5199(7) 0.9879(10)
C6_4 C 0.1443(6) 0.5446(7) 0.9113(12)
H3_4 H 0.1442 0.5335 0.8522
C7_4 C 0.1770(6) 0.5858(7) 0.9286(11)
H4_4 H 0.2010 0.6005 0.8815
C8_3 C 0.0624(6) 0.4569(7) 0.9110(10)
C9_3 C 0.0662(9) 0.4517(10) 0.7595(14)
C10_3 C 0.0157(6) 0.3912(7) 0.8613(12)
C18_4 C 0.2142(6) 0.6494(8) 0.5204(10)
C19_4 C 0.1208(5) 0.5108(5) 0.6455(9)
C20_4 C 0.1140(4) 0.5662(6) 0.6845(8)
H9_4 H 0.0886 0.5729 0.7344
C21_4 C 0.1451(5) 0.6115(4) 0.6487(8)
H10_4 H 0.1405 0.6486 0.6747
C22_4 C 0.1829(4) 0.6015(5) 0.5740(8)
C23_4 C 0.1897(4) 0.5461(6) 0.5351(8)
H11_4 H 0.2151 0.5393 0.4851
C24_4 C 0.1586(5) 0.5007(4) 0.5709(9)
H12_3 H 0.1632 0.4636 0.5448
N1_3 N 0.0768(5) 0.4748(6) 0.9893(9)
N2_3 N 0.0835(5) 0.4744(7) 0.8287(10)
N3_3 N 0.0333(6) 0.4049(7) 0.7657(10)
N4_3 N 0.0273(4) 0.4144(6) 0.9286(8)
N6_3 N 0.0887(7) 0.4618(8) 0.6682(12)
H27_3 H 0.0835 0.4390 0.6264
O1_4 O 0.2358(4) 0.6776(4) 0.9676(8)
C12_4 C 0.9510(5) 0.3365(6) 0.0397(10)
H5_4 H 0.9748 0.3600 0.0537
C13_4 C 0.9170(6) 0.3121(8) 0.1090(11)
H6_4 H 0.9173 0.3182 0.1695
C14_4 C 0.8812(5) 0.2769(7) 0.0841(10)
C17_4 C 0.8411(4) 0.2570(5) 0.1645(10)
C11_3 C 0.0492(5) 0.6734(7) 0.0554(9)
C15_3 C 0.1167(6) 0.7372(7) 0.0009(10)
H7_3 H 0.1393 0.7634 0.0129
C16_3 C 0.0839(5) 0.7157(8) 0.0703(11)
H8_3 H 0.0832 0.7281 0.1290
N5_3 N 0.0161(5) 0.6556(6) 0.1340(10)
H26_3 H 0.0153 0.6748 0.1830
C8_4 C 0.9376(6) 0.9569(7) 0.5890(10)
C9_4 C 0.9338(9) 0.9517(10) 0.7405(14)
C10_4 C 0.9843(6) 0.8912(7) 0.6387(12)
H12_4 H 0.8368 0.9636 0.9552
N1_4 N 0.9232(5) 0.9748(6) 0.5107(9)
H25_4 H 0.9355 0.9576 0.4601
N2_4 N 0.9165(5) 0.9744(7) 0.6713(10)
N3_4 N 0.9667(6) 0.9049(7) 0.7343(10)
N4_4 N 0.9727(4) 0.9144(6) 0.5714(8)
N6_4 N 0.9113(7) 0.9618(8) 0.8318(12)
H27_4 H 0.9165 0.9390 0.8736
C11_4 C 0.9508(5) 0.3266(7) 0.9446(9)
C15_4 C 0.8833(6) 0.2628(7) 0.9991(10)
H7_4 H 0.8607 0.2366 0.9871
C16_4 C 0.9161(5) 0.2843(8) 0.9297(11)
H8_4 H 0.9168 0.2719 0.8710
N5_4 N 0.9839(5) 0.3444(6) 0.8660(10)
H26_4 H 0.9847 0.3252 0.8170
loop_
_geom_bond_atom_site_label_1
_geom_bond_atom_site_label_2
_geom_bond_site_symmetry_1
_geom_bond_site_symmetry_2
C8 N1 1_555 1_555
C9 N2 1_555 1_555
C10 N3 1_555 1_555
H25 N1 1_555 1_555
N2 C8 1_555 1_555
N3 C9 1_555 1_555
N4 C8 1_555 1_555
N6 C9 1_555 1_555
H27 N6 1_555 1_555
C10 N4 1_555 1_555
H19 C38 1_555 1_555
C42 C43 1_555 1_555
C43 H21 1_555 1_555
C44 C43 1_555 1_555
H22 C44 1_555 1_555
C45 C44 1_555 1_555
C46 C45 1_555 1_555
H23 C46 1_555 1_555
C47 C42 1_555 1_555
H24 C47 1_555 1_555
C48 C45 1_555 1_555
H29 N11 1_555 1_555
O4 C48 1_555 1_555
O11 C48 1_555 1_555
Tb6 O11 1_555 1_555
Tb7 O4 1_555 1_555
Tb8 O5 1_555 1_555
C42 N11 1_555 1_555
C46 C47 1_555 1_555
C1 C2 1_555 1_555
C2 C3 1_555 1_555
C3 H1 1_555 1_555
C4 C3 1_555 1_555
H2 C4 1_555 1_555
C5 C4 1_555 1_555
C6 C5 1_555 1_555
H3 C6 1_555 1_555
C7 C2 1_555 1_555
H4 C7 1_555 1_555
C18 C22 1_555 1_555
C19 C20 1_555 1_555
C20 H9 1_555 1_555
C21 C20 1_555 1_555
H10 C21 1_555 1_555
C22 C21 1_555 1_555
C23 C22 1_555 1_555
C24 C19 1_555 1_555
C25 C26 1_555 1_555
C26 C27 1_555 1_555
C27 H13 1_555 1_555
C28 C27 1_555 1_555
H14 C28 1_555 1_555
C29 C28 1_555 1_555
C30 C29 1_555 1_555
H15 C30 1_555 1_555
C31 C26 1_555 1_555
H16 C31 1_555 1_555
C32 N7 1_555 1_555
C33 N8 1_555 1_555
C34 C35 1_555 1_555
C35 H17 1_555 1_555
C36 C35 1_555 1_555
H18 C36 1_555 1_555
C37 C36 1_555 1_555
C39 C34 1_555 1_555
C40 C37 1_555 1_555
C41 N9 1_555 1_555
N7 C29 1_555 1_555
H28 N7 1_555 1_555
N8 C32 1_555 1_555
N9 C33 1_555 1_555
N10 C32 1_555 1_555
N12 C33 1_555 1_555
H30 N12 1_555 1_555
O1 C1 1_555 1_555
O3 C25 1_555 1_555
O7 C18 1_555 1_555
O8 C1 1_555 1_555
O9 C40 1_555 1_555
O10 C25 1_555 1_555
Tb1 O3 1_555 1_555
Tb7 O1 1_555 1_555
O13 Tb1 1_555 1_555
O14 Tb7 1_555 1_555
O15 Tb7 1_555 1_555
O17 Tb7 1_555 1_555
O18 Tb7 1_555 1_555
O19 Tb1 1_555 1_555
O20 Tb1 1_555 1_555
O21 Tb1 1_555 1_555
O22 Tb1 1_555 1_555
Tb4 O9 1_555 1_555
Tb6 O7 1_555 1_555
Tb11 O3 1_555 1_555
C6 C7 1_555 1_555
C23 C24 1_555 1_555
C30 C31 1_555 1_555
C34 N12 1_555 1_555
C41 N10 1_555 1_555
O8 Tb1 1_555 1_555
O10 Tb1 1_555 1_555
Tb7 O19 1_555 1_555
Tb7 O20 1_555 1_555
O13 Tb11 1_555 1_555
O14 Tb6 1_555 1_555
O15 Tb6 1_555 1_555
Tb11 O6 1_555 1_555
C11 C12 1_555 1_555
C12 H5 1_555 1_555
C13 C12 1_555 1_555
H6 C13 1_555 1_555
C14 C13 1_555 1_555
C15 C14 1_555 1_555
H7 C15 1_555 1_555
C16 C11 1_555 1_555
H8 C16 1_555 1_555
C17 C14 1_555 1_555
H26 N5 1_555 1_555
O2 C17 1_555 1_555
O12 C17 1_555 1_555
Tb4 O2 1_555 1_555
Tb9 O2 1_555 1_555
C11 N5 1_555 1_555
C15 C16 1_555 1_555
O12 Tb4 1_555 1_555
C12_2 H5_2 1_555 1_555
C13_2 C12_2 1_555 1_555
H6_2 C13_2 1_555 1_555
C14_2 C13_2 1_555 1_555
C17_2 C14_2 1_555 1_555
O13 C17_2 1_555 1_555
O22 C17_2 1_555 1_555
C6_2 C5_2 1_555 1_555
H3_2 C6_2 1_555 1_555
H4_2 C7_2 1_555 1_555
C8_2 N1_2 1_555 1_555
C9_2 N2_2 1_555 1_555
C10_2 N3_2 1_555 1_555
C18_2 C22_2 1_555 1_555
C19_2 C20_2 1_555 1_555
C20_2 H9_2 1_555 1_555
C21_2 C20_2 1_555 1_555
H10_2 C21_2 1_555 1_555
C22_2 C21_2 1_555 1_555
C23_2 C22_2 1_555 1_555
H11_2 C23_2 1_555 1_555
C24_2 C19_2 1_555 1_555
H12_2 C24_2 1_555 1_555
N1_2 C5_2 1_555 1_555
N2_2 C8_2 1_555 1_555
N3_2 C9_2 1_555 1_555
N4_2 C8_2 1_555 1_555
N6_2 C9_2 1_555 1_555
H27_2 N6_2 1_555 1_555
O6_2 C18_2 1_555 1_555
O7_2 C18_2 1_555 1_555
Tb8 O1_2 1_555 1_555
O14_2 Tb8 1_555 1_555
O15_2 Tb8 1_555 1_555
O16 Tb8 1_555 1_555
O18_2 Tb8 1_555 1_555
Tb5 O7_2 1_555 1_555
Tb9 O6_2 1_555 1_555
C6_2 C7_2 1_555 1_555
C10_2 N4_2 1_555 1_555
C19_2 N6_2 1_555 1_555
C23_2 C24_2 1_555 1_555
O7_2 Tb9 1_555 1_555
O14_2 Tb5 1_555 1_555
O15_2 Tb5 1_555 1_555
C1_2 C2_2 1_555 1_555
C2_2 C3_2 1_555 1_555
C3_2 H1_2 1_555 1_555
C4_2 C3_2 1_555 1_555
H2_2 C4_2 1_555 1_555
C25_2 C26_2 1_555 1_555
C26_2 C27_2 1_555 1_555
C27_2 H13_2 1_555 1_555
C28_2 C27_2 1_555 1_555
H14_2 C28_2 1_555 1_555
C29_2 C28_2 1_555 1_555
C31_2 C26_2 1_555 1_555
H16_2 C31_2 1_555 1_555
C42_2 C43_2 1_555 1_555
C43_2 H21_2 1_555 1_555
C44_2 C43_2 1_555 1_555
H22_2 C44_2 1_555 1_555
C45_2 C44_2 1_555 1_555
C46_2 C45_2 1_555 1_555
H23_2 C46_2 1_555 1_555
C47_2 C42_2 1_555 1_555
H24_2 C47_2 1_555 1_555
C48_2 C45_2 1_555 1_555
O3_2 C25_2 1_555 1_555
O16 C48_2 1_555 1_555
O8_2 C1_2 1_555 1_555
O10_2 C25_2 1_555 1_555
O11_2 C48_2 1_555 1_555
Tb4 O3_2 1_555 1_555
O19_2 Tb4 1_555 1_555
O21_2 Tb4 1_555 1_555
Tb5 O11_2 1_555 1_555
Tb9 O3_2 1_555 1_555
C46_2 C47_2 1_555 1_555
O8_2 Tb4 1_555 1_555
O10_2 Tb4 1_555 1_555
H15_2 C30_2 1_555 1_555
C32_2 N7_2 1_555 1_555
C33_2 N8_2 1_555 1_555
C34_2 C35_2 1_555 1_555
C35_2 H17_2 1_555 1_555
C36_2 C35_2 1_555 1_555
H18_2 C36_2 1_555 1_555
C37_2 C36_2 1_555 1_555
C38_2 C37_2 1_555 1_555
H19_2 C38_2 1_555 1_555
C39_2 C34_2 1_555 1_555
H20_2 C39_2 1_555 1_555
C40_2 C37_2 1_555 1_555
C41_2 N9_2 1_555 1_555
H28_2 N7_2 1_555 1_555
N8_2 C32_2 1_555 1_555
N9_2 C33_2 1_555 1_555
N10_2 C32_2 1_555 1_555
N11_2 C41_2 1_555 1_555
H29_2 N11_2 1_555 1_555
N12_2 C33_2 1_555 1_555
H30_2 N12_2 1_555 1_555
O17 C40_2 1_555 1_555
O20 C40_2 1_555 1_555
C34_2 N12_2 1_555 1_555
C38_2 C39_2 1_555 1_555
C41_2 N10_2 1_555 1_555
C11_2 C12_3 1_555 1_555
C12_3 H5_3 1_555 1_555
C13_3 C12_3 1_555 1_555
H6_3 C13_3 1_555 1_555
C14_3 C13_3 1_555 1_555
C15_2 C14_3 1_555 1_555
H7_2 C15_2 1_555 1_555
C16_2 C11_2 1_555 1_555
H8_2 C16_2 1_555 1_555
C17_3 C14_3 1_555 1_555
H26_2 N5_2 1_555 1_555
O14 C17_3 1_555 1_555
O12_2 C17_3 1_555 1_555
C11_2 N5_2 1_555 1_555
C15_2 C16_2 1_555 1_555
O12_2 Tb6 1_555 1_555
C1_3 C2_3 1_555 1_555
C2_3 C3_3 1_555 1_555
C3_3 H1_3 1_555 1_555
C4_3 C3_3 1_555 1_555
H2_3 C4_3 1_555 1_555
C5_3 C4_3 1_555 1_555
C6_3 C5_3 1_555 1_555
H3_3 C6_3 1_555 1_555
C7_3 C2_3 1_555 1_555
H4_3 C7_3 1_555 1_555
C18_3 C22_3 1_555 1_555
C19_3 C20_3 1_555 1_555
C20_3 H9_3 1_555 1_555
C21_3 C20_3 1_555 1_555
H10_3 C21_3 1_555 1_555
C22_3 C21_3 1_555 1_555
C23_3 C22_3 1_555 1_555
C24_3 C19_3 1_555 1_555
C25_3 C26_3 1_555 1_555
C26_3 C27_3 1_555 1_555
C27_3 H13_3 1_555 1_555
C28_3 C27_3 1_555 1_555
H14_3 C28_3 1_555 1_555
C29_3 C28_3 1_555 1_555
C30_3 C29_3 1_555 1_555
H15_3 C30_3 1_555 1_555
C31_3 C26_3 1_555 1_555
H16_3 C31_3 1_555 1_555
C32_3 N7_3 1_555 1_555
C33_3 N8_3 1_555 1_555
C34_3 C35_3 1_555 1_555
C35_3 H17_3 1_555 1_555
C36_3 C35_3 1_555 1_555
H18_3 C36_3 1_555 1_555
C37_3 C36_3 1_555 1_555
C39_3 C34_3 1_555 1_555
C40_3 C37_3 1_555 1_555
C41_3 N9_3 1_555 1_555
N7_3 C29_3 1_555 1_555
H28_3 N7_3 1_555 1_555
N8_3 C32_3 1_555 1_555
N9_3 C33_3 1_555 1_555
N10_3 C32_3 1_555 1_555
N12_3 C33_3 1_555 1_555
H30_3 N12_3 1_555 1_555
O1_3 C1_3 1_555 1_555
O15_2 C25_3 1_555 1_555
O19_2 C18_3 1_555 1_555
O8_3 C1_3 1_555 1_555
O9_2 C40_3 1_555 1_555
O10_3 C25_3 1_555 1_555
Tb9 O1_3 1_555 1_555
O16_2 Tb9 1_555 1_555
O17_2 Tb9 1_555 1_555
O20_2 Tb5 1_555 1_555
O22_2 Tb5 1_555 1_555
Tb6 O9_2 1_555 1_555
C6_3 C7_3 1_555 1_555
C23_3 C24_3 1_555 1_555
C30_3 C31_3 1_555 1_555
C34_3 N12_3 1_555 1_555
C41_3 N10_3 1_555 1_555
O8_3 Tb5 1_555 1_555
O10_3 Tb5 1_555 1_555
Tb9 O20_2 1_555 1_555
H19_3 C38_3 1_555 1_555
C42_3 C43_3 1_555 1_555
C43_3 H21_3 1_555 1_555
C44_3 C43_3 1_555 1_555
H22_3 C44_3 1_555 1_555
C45_3 C44_3 1_555 1_555
C46_3 C45_3 1_555 1_555
H23_3 C46_3 1_555 1_555
C47_3 C42_3 1_555 1_555
H24_3 C47_3 1_555 1_555
C48_3 C45_3 1_555 1_555
H29_3 N11_3 1_555 1_555
O16_2 C48_3 1_555 1_555
O21_2 C48_3 1_555 1_555
Tb11 O5_2 1_555 1_555
C42_3 N11_3 1_555 1_555
C46_3 C47_3 1_555 1_555
H15_4 C30_4 1_555 1_555
C32_4 N7_4 1_555 1_555
C33_4 N8_4 1_555 1_555
C34_4 C35_4 1_555 1_555
C35_4 H17_4 1_555 1_555
C36_4 C35_4 1_555 1_555
H18_4 C36_4 1_555 1_555
C37_4 C36_4 1_555 1_555
C38_4 C37_4 1_555 1_555
H19_4 C38_4 1_555 1_555
C39_4 C34_4 1_555 1_555
H20_4 C39_4 1_555 1_555
C40_4 C37_4 1_555 1_555
C41_4 N9_4 1_555 1_555
H28_4 N7_4 1_555 1_555
N8_4 C32_4 1_555 1_555
N9_4 C33_4 1_555 1_555
N10_4 C32_4 1_555 1_555
N11_4 C41_4 1_555 1_555
H29_4 N11_4 1_555 1_555
N12_4 C33_4 1_555 1_555
H30_4 N12_4 1_555 1_555
O17_2 C40_4 1_555 1_555
O20_2 C40_4 1_555 1_555
C34_4 N12_4 1_555 1_555
C38_4 C39_4 1_555 1_555
C41_4 N10_4 1_555 1_555
C1_4 C2_4 1_555 1_555
C2_4 C3_4 1_555 1_555
C3_4 H1_4 1_555 1_555
C4_4 C3_4 1_555 1_555
H2_4 C4_4 1_555 1_555
C25_4 C26_4 1_555 1_555
C26_4 C27_4 1_555 1_555
C27_4 H13_4 1_555 1_555
C28_4 C27_4 1_555 1_555
H14_4 C28_4 1_555 1_555
C29_4 C28_4 1_555 1_555
C31_4 C26_4 1_555 1_555
H16_4 C31_4 1_555 1_555
C42_4 C43_4 1_555 1_555
C43_4 H21_4 1_555 1_555
C44_4 C43_4 1_555 1_555
H22_4 C44_4 1_555 1_555
C45_4 C44_4 1_555 1_555
C46_4 C45_4 1_555 1_555
H23_4 C46_4 1_555 1_555
C47_4 C42_4 1_555 1_555
H24_4 C47_4 1_555 1_555
C48_4 C45_4 1_555 1_555
O15 C25_4 1_555 1_555
O4_2 C48_4 1_555 1_555
O8_4 C1_4 1_555 1_555
O10_4 C25_4 1_555 1_555
O21 C48_4 1_555 1_555
Tb11 O4_2 1_555 1_555
C46_4 C47_4 1_555 1_555
O8_4 Tb6 1_555 1_555
O10_4 Tb6 1_555 1_555
C6_4 C5_4 1_555 1_555
H3_4 C6_4 1_555 1_555
H4_4 C7_4 1_555 1_555
C8_3 N1_3 1_555 1_555
C9_3 N2_3 1_555 1_555
C10_3 N3_3 1_555 1_555
C18_4 C22_4 1_555 1_555
C19_4 C20_4 1_555 1_555
C20_4 H9_4 1_555 1_555
C21_4 C20_4 1_555 1_555
H10_4 C21_4 1_555 1_555
C22_4 C21_4 1_555 1_555
C23_4 C22_4 1_555 1_555
H11_4 C23_4 1_555 1_555
C24_4 C19_4 1_555 1_555
H12_3 C24_4 1_555 1_555
N1_3 C5_4 1_555 1_555
N2_3 C8_3 1_555 1_555
N3_3 C9_3 1_555 1_555
N4_3 C8_3 1_555 1_555
N6_3 C9_3 1_555 1_555
H27_3 N6_3 1_555 1_555
O18 C18_4 1_555 1_555
O19 C18_4 1_555 1_555
Tb11 O1_4 1_555 1_555
C6_4 C7_4 1_555 1_555
C10_3 N4_3 1_555 1_555
C19_4 N6_3 1_555 1_555
C23_4 C24_4 1_555 1_555
C12_4 H5_4 1_555 1_555
C13_4 C12_4 1_555 1_555
H6_4 C13_4 1_555 1_555
C14_4 C13_4 1_555 1_555
C17_4 C14_4 1_555 1_555
O14_2 C17_4 1_555 1_555
O22_2 C17_4 1_555 1_555
H7_3 C15_3 1_555 1_555
C16_3 C11_3 1_555 1_555
H8_3 C16_3 1_555 1_555
H26_3 N5_3 1_555 1_555
C11_3 N5_3 1_555 1_555
C15_3 C16_3 1_555 1_555
C8_4 N1_4 1_555 1_555
C9_4 N2_4 1_555 1_555
C10_4 N3_4 1_555 1_555
H25_4 N1_4 1_555 1_555
N2_4 C8_4 1_555 1_555
N3_4 C9_4 1_555 1_555
N4_4 C8_4 1_555 1_555
N6_4 C9_4 1_555 1_555
H27_4 N6_4 1_555 1_555
C10_4 N4_4 1_555 1_555
H7_4 C15_4 1_555 1_555
C16_4 C11_4 1_555 1_555
H8_4 C16_4 1_555 1_555
H26_4 N5_4 1_555 1_555
C11_4 N5_4 1_555 1_555
C15_4 C16_4 1_555 1_555

#END
