
###############################################################################
#
# This file contains modified crystal structure data generated from the
# MOF subset of the Cambridge Structural Database (CSD) v543 
# hosted by the Cambridge Crystallographic Data Centre (CCDC).
#
# This work is licensed under the Creative Commons
# Attribution-NonCommercial-ShareAlike 4.0 International License.
# To view a copy of this license, visit
# http://creativecommons.org/licenses/by-nc-sa/4.0/
# or send a letter to
# Creative Commons, PO Box 1866, Mountain View, CA 94042, USA.
#
# CIF created using the CSD Python API on 29 September 2022
# The structure has been converted into the P1 space group
# The structure has a 3D framework
# The original CSD entry BADYAJ is in the monoclinic crystal system
# The framework has been calculated to contain at least 10.0% void space
# The void calculation uses a probe of radius 1.32A, grid spacing 0.4
#
###############################################################################

data_BADYAJ
_chemical_formula_moiety         '(C192 H120 N48 O44 Tb8)n'
_symmetry_cell_setting           triclinic
_symmetry_space_group_name_H-M   'P 1'
_symmetry_Int_Tables_number      1
_space_group_name_Hall           'P 1'
loop_
_symmetry_equiv_pos_site_id
_symmetry_equiv_pos_as_xyz
1 x,y,z
_cell_length_a                   30.6210(13)
_cell_length_b                   19.8556(16)
_cell_length_c                   14.5920(6)
_cell_angle_alpha                90
_cell_angle_beta                 102.385(4)
_cell_angle_gamma                90
_cell_volume                     8665.45
loop_
_atom_site_label
_atom_site_type_symbol
_atom_site_fract_x
_atom_site_fract_y
_atom_site_fract_z
C8 C 0.0618(6) 0.0656(12) 0.0887(11)
C9 C 0.0712(6) 0.0832(10) 0.2450(9)
C10 C 0.0154(6) 0.1383(11) 0.1428(14)
C22 C 0.1284(7) 0.0242(12) 0.3672(13)
C23 C 0.1633(6) 0.0370(9) 0.4464(11)
H11 H 0.1666 0.0797 0.4732
N1 N 0.0713(5) 0.0375(8) 0.0111(10)
N2 N 0.0890(6) 0.0545(9) 0.1720(12)
N3 N 0.0399(6) 0.1245(11) 0.2396(13)
N4 N 0.0243(5) 0.1060(8) 0.0687(10)
N6 N 0.0949(5) 0.0747(9) 0.3346(11)
H27 H 0.0893 0.1024 0.3759
H25 H 0.0530 0.0468 0.9592
C5 C 0.1062(6) 0.9959(9) 0.0045(10)
C6 C 0.1407(6) 0.9764(9) 0.0783(10)
H3 H 0.1426 0.9923 0.1390
C7 C 0.1730(6) 0.9311(9) 0.0567(10)
H4 H 0.1960 0.9172 0.1055
C18 C 0.2175(5) 0.8656(8) 0.4833(10)
C19 C 0.1896(5) 0.9208(7) 0.4382(10)
C20 C 0.1553(6) 0.9130(8) 0.3608(9)
H9 H 0.1538 0.8715 0.3308
C21 C 0.1236(6) 0.9584(9) 0.3229(12)
H10 H 0.1004 0.9481 0.2723
C24 C 0.1916(7) 0.9873(10) 0.4828(14)
H12 H 0.2130 0.9952 0.5375
O1 O 0.2352(4) 0.8370(7) 0.0191(8)
O6 O 0.2442(4) 0.8799(6) 0.5606(9)
O7 O 0.2151(3) 0.8068(6) 0.4483(6)
Tb6 Tb 0.23787(2) 0.75420(4) 0.32021(5)
Tb9 Tb 0.26634(2) 0.76186(3) 0.58703(5)
Tb11 Tb 0.26634(2) 0.73814(3) 0.08703(5)
C1 C 0.2069(6) 0.8553(10) 0.9497(13)
C2 C 0.1726(7) 0.9059(9) 0.9672(12)
C3 C 0.1381(6) 0.9254(9) 0.8983(12)
H1 H 0.1344 0.9044 0.8401
C4 C 0.1079(9) 0.9752(15) 0.9098(19)
H2 H 0.0893 0.9948 0.8580
O8 O 0.2038(5) 0.8376(7) 0.8689(9)
Tb4 Tb 0.23787(2) 0.74580(4) 0.82021(5)
C11 C 0.9446(6) 0.1881(14) 0.0541(13)
C15 C 0.8758(8) 0.2496(10) 0.0055(17)
H7 H 0.8530 0.2754 0.0206
C16 C 0.9105(7) 0.2331(11) 0.0672(14)
H8 H 0.9136 0.2523 0.1264
C29 C 0.3612(6) 0.0366(9) 0.2260(11)
C30 C 0.3250(6) 0.0408(8) 0.2683(11)
H15 H 0.3201 0.0814 0.2962
C32 C 0.4161(5) 0.1000(7) 0.1602(10)
C33 C 0.4746(5) 0.1557(7) 0.1236(9)
C34 C 0.5472(5) 0.2094(9) 0.1110(10)
C35 C 0.5812(6) 0.2578(8) 0.1600(16)
H17 H 0.5770 0.2811 0.2127
C36 C 0.6159(6) 0.2663(8) 0.1278(14)
H18 H 0.6369 0.2975 0.1573
C37 C 0.6243(5) 0.2327(10) 0.0535(13)
C38 C 0.5925(6) 0.1867(9) 0.0012(11)
C39 C 0.5543(5) 0.1779(10) 0.0336(9)
H20 H 0.5324 0.1491 0.0013
C40 C 0.6652(5) 0.2439(8) 0.0154(11)
C41 C 0.4376(7) 0.0752(8) 0.0295(15)
N5 N 0.9786(6) 0.1736(10) 0.1395(13)
H26 H 0.9741 0.1894 0.1916
N7 N 0.3898(5) 0.0882(8) 0.2240(10)
H28 H 0.3919 0.1174 0.2683
N8 N 0.4507(5) 0.1466(7) 0.1902(10)
N9 N 0.4699(5) 0.1228(8) 0.0387(11)
N10 N 0.4078(5) 0.0659(8) 0.0825(9)
N12 N 0.5073(5) 0.2018(9) 0.1484(10)
H30 H 0.5042 0.2298 0.1915
O9 O 0.6981(3) 0.2712(5) 0.0563(6)
O17 O 0.7849(3) 0.3068(6) 0.0517(6)
Tb7 Tb 0.76213(2) 0.25420(4) 0.17979(5)
C12 C 0.9446(5) 0.1669(11) 0.9676(11)
H5 H 0.9665 0.1378 0.9556
C13 C 0.9089(5) 0.1911(11) 0.8928(13)
H6 H 0.9099 0.1822 0.8307
C14 C 0.8740(5) 0.2264(8) 0.9120(10)
C17 C 0.8347(5) 0.2391(7) 0.8332(10)
H19 H 0.5976 0.1642 0.9485
N11 N 0.4336(5) 0.0404(9) 0.9427(10)
H29 H 0.4542 0.0490 0.9124
O2 O 0.8005(4) 0.2654(6) 0.8518(6)
O5 O 0.6679(3) 0.2080(6) 0.9392(7)
O12 O 0.8373(4) 0.2267(6) 0.7530(8)
Tb1 Tb 0.76213(2) 0.24580(4) 0.67979(5)
Tb2 Tb 0.73366(2) 0.26186(3) 0.91297(5)
O13 O 0.7648(4) 0.1630(7) 0.9809(8)
O14 O 0.7170(3) 0.1900(5) 0.7797(6)
O15 O 0.6743(4) 0.3264(6) 0.8301(7)
O16 O 0.7558(4) 0.3799(6) 0.9394(9)
O18 O 0.7849(3) 0.1932(6) 0.5517(6)
O19 O 0.7962(5) 0.3376(7) 0.6311(9)
O20 O 0.6981(3) 0.2288(5) 0.5563(6)
O21 O 0.7567(4) 0.1245(5) 0.7047(7)
O22 O 0.7199(3) 0.3246(5) 0.7295(8)
C25 C 0.2758(5) 0.8693(8) 0.2502(9)
C26 C 0.3034(5) 0.9242(8) 0.2406(9)
C27 C 0.3418(5) 0.9177(8) 0.1974(10)
H13 H 0.3461 0.8772 0.1686
C28 C 0.3707(6) 0.9668(9) 0.1973(15)
H14 H 0.3974 0.9579 0.1790
C31 C 0.2969(7) 0.9909(10) 0.2716(12)
H16 H 0.2716 0.9997 0.2953
O3 O 0.2830(3) 0.8100(5) 0.2203(6)
O10 O 0.2433(4) 0.8755(5) 0.2953(7)
C42 C 0.4017(6) 0.9948(10) 0.9004(14)
C43 C 0.4096(7) 0.9672(11) 0.8148(14)
H21 H 0.4335 0.9828 0.7907
C44 C 0.3830(5) 0.9195(8) 0.7696(10)
H22 H 0.3895 0.9002 0.7160
C45 C 0.3464(5) 0.8982(8) 0.8005(9)
C46 C 0.3370(5) 0.9266(8) 0.8814(9)
H23 H 0.3118 0.9134 0.9026
C47 C 0.3652(6) 0.9735(11) 0.9290(12)
H24 H 0.3589 0.9918 0.9835
C48 C 0.3143(5) 0.8463(7) 0.7438(10)
O4 O 0.3257(4) 0.8264(6) 0.6699(7)
O11 O 0.2801(3) 0.8246(5) 0.7705(8)
C11_2 C 0.0554(6) 0.6881(14) 0.4459(13)
C12_2 C 0.0554(5) 0.6669(11) 0.5324(11)
H5_2 H 0.0335 0.6378 0.5444
C13_2 C 0.0911(5) 0.6911(11) 0.6072(13)
H6_2 H 0.0901 0.6822 0.6693
C14_2 C 0.1260(5) 0.7264(8) 0.5880(10)
C15_2 C 0.1242(8) 0.7496(10) 0.4945(17)
H7_2 H 0.1470 0.7754 0.4794
C16_2 C 0.0895(7) 0.7331(11) 0.4328(14)
H8_2 H 0.0864 0.7523 0.3736
C17_2 C 0.1653(5) 0.7391(7) 0.6668(10)
C25_2 C 0.7242(5) 0.3693(8) 0.2498(9)
C26_2 C 0.6966(5) 0.4242(8) 0.2594(9)
C27_2 C 0.6582(5) 0.4177(8) 0.3026(10)
H13_2 H 0.6539 0.3772 0.3314
C28_2 C 0.6293(6) 0.4668(9) 0.3027(15)
H14_2 H 0.6026 0.4579 0.3210
C29_2 C 0.6388(6) 0.5366(9) 0.2740(11)
C30_2 C 0.6750(6) 0.5408(8) 0.2317(11)
H15_2 H 0.6799 0.5814 0.2038
C31_2 C 0.7031(7) 0.4909(10) 0.2284(12)
H16_2 H 0.7284 0.4997 0.2047
C32_2 C 0.5839(5) 0.6000(7) 0.3398(10)
C33_2 C 0.5254(5) 0.6557(7) 0.3764(9)
C34_2 C 0.4528(5) 0.7094(9) 0.3890(10)
C35_2 C 0.4188(6) 0.7578(8) 0.3400(16)
H17_2 H 0.4230 0.7811 0.2873
C36_2 C 0.3841(6) 0.7663(8) 0.3722(14)
H18_2 H 0.3631 0.7975 0.3427
C37_2 C 0.3757(5) 0.7327(10) 0.4465(13)
C38_2 C 0.4075(6) 0.6867(9) 0.4988(11)
H19_2 H 0.4024 0.6642 0.5515
C39_2 C 0.4457(5) 0.6779(10) 0.4664(9)
H20_2 H 0.4676 0.6491 0.4987
C40_2 C 0.3348(5) 0.7439(8) 0.4846(11)
C41_2 C 0.5624(7) 0.5752(8) 0.4705(15)
C42_2 C 0.5983(6) 0.4948(10) 0.5996(14)
C43_2 C 0.5904(7) 0.4672(11) 0.6852(14)
H21_2 H 0.5665 0.4828 0.7093
C44_2 C 0.6170(5) 0.4195(8) 0.7304(10)
H22_2 H 0.6105 0.4002 0.7840
C45_2 C 0.6536(5) 0.3982(8) 0.6995(9)
C46_2 C 0.6630(5) 0.4266(8) 0.6186(9)
H23_2 H 0.6882 0.4134 0.5974
C47_2 C 0.6348(6) 0.4735(11) 0.5710(12)
H24_2 H 0.6411 0.4918 0.5165
C48_2 C 0.6857(5) 0.3463(7) 0.7562(10)
N5_2 N 0.0214(6) 0.6736(10) 0.3605(13)
H26_2 H 0.0259 0.6894 0.3084
N7_2 N 0.6102(5) 0.5882(8) 0.2760(10)
H28_2 H 0.6081 0.6174 0.2317
N8_2 N 0.5493(5) 0.6466(7) 0.3098(10)
N9_2 N 0.5301(5) 0.6228(8) 0.4613(11)
N10_2 N 0.5922(5) 0.5659(8) 0.4175(9)
N11_2 N 0.5664(5) 0.5404(9) 0.5573(10)
H29_2 H 0.5458 0.5490 0.5876
N12_2 N 0.4927(5) 0.7018(9) 0.3516(10)
H30_2 H 0.4958 0.7298 0.3085
O2_2 O 0.1995(4) 0.7654(6) 0.6482(6)
O3_2 O 0.7170(3) 0.3100(5) 0.2797(6)
O5_2 O 0.3321(3) 0.7080(6) 0.5608(7)
O9_2 O 0.3019(3) 0.7712(5) 0.4437(6)
O10_2 O 0.7567(4) 0.3755(5) 0.2047(7)
O12_2 O 0.1627(4) 0.7267(6) 0.7470(8)
O13_2 O 0.2352(4) 0.6630(7) 0.5191(8)
O14_2 O 0.2830(3) 0.6900(5) 0.7203(6)
O18_2 O 0.2151(3) 0.6932(6) 0.9483(6)
O20_2 O 0.3019(3) 0.7288(5) 0.9437(6)
O21_2 O 0.2433(4) 0.6245(5) 0.7953(7)
Tb10 Tb 0.73366(2) 0.23814(3) 0.41297(5)
C1_2 C 0.7931(6) 0.3553(10) 0.5503(13)
C2_2 C 0.8274(7) 0.4059(9) 0.5328(12)
C3_2 C 0.8619(6) 0.4254(9) 0.6017(12)
H1_2 H 0.8656 0.4044 0.6599
C4_2 C 0.8921(9) 0.4752(15) 0.5902(19)
H2_2 H 0.9107 0.4948 0.6420
C5_2 C 0.8938(6) 0.4959(9) 0.4955(10)
C6_2 C 0.8593(6) 0.4764(9) 0.4217(10)
H3_2 H 0.8574 0.4923 0.3610
C7_2 C 0.8270(6) 0.4311(9) 0.4433(10)
H4_2 H 0.8040 0.4172 0.3945
C8_2 C 0.9382(6) 0.5656(12) 0.4113(11)
C9_2 C 0.9288(6) 0.5832(10) 0.2550(9)
C10_2 C 0.9846(6) 0.6383(11) 0.3572(14)
C18_2 C 0.7825(5) 0.3656(8) 0.0167(10)
C19_2 C 0.8104(5) 0.4208(7) 0.0618(10)
C20_2 C 0.8447(6) 0.4130(8) 0.1392(9)
H9_2 H 0.8462 0.3715 0.1692
C21_2 C 0.8764(6) 0.4584(9) 0.1771(12)
H10_2 H 0.8996 0.4481 0.2277
C22_2 C 0.8716(7) 0.5242(12) 0.1328(13)
C23_2 C 0.8367(6) 0.5370(9) 0.0536(11)
H11_2 H 0.8334 0.5797 0.0268
C24_2 C 0.8084(7) 0.4873(10) 0.0172(14)
N1_2 N 0.9287(5) 0.5375(8) 0.4889(10)
H25_2 H 0.9470 0.5468 0.5408
N2_2 N 0.9110(6) 0.5545(9) 0.3280(12)
N3_2 N 0.9601(6) 0.6245(11) 0.2604(13)
N4_2 N 0.9757(5) 0.6060(8) 0.4313(10)
N6_2 N 0.9051(5) 0.5747(9) 0.1654(11)
H27_2 H 0.9107 0.6024 0.1241
O1_2 O 0.7648(4) 0.3370(7) 0.4809(8)
H12_2 H 0.7870 0.4952 0.9625
C42_3 C 0.5983(6) 0.0052(10) 0.0996(14)
C43_3 C 0.5904(7) 0.0328(11) 0.1852(14)
H21_3 H 0.5665 0.0172 0.2093
C44_3 C 0.6170(5) 0.0805(8) 0.2304(10)
H22_3 H 0.6105 0.0998 0.2840
C45_3 C 0.6536(5) 0.1018(8) 0.1995(9)
C46_3 C 0.6630(5) 0.0734(8) 0.1186(9)
H23_3 H 0.6882 0.0866 0.0974
C47_3 C 0.6348(6) 0.0265(11) 0.0710(12)
H24_3 H 0.6411 0.0082 0.0165
C48_3 C 0.6857(5) 0.1537(7) 0.2562(10)
O4_2 O 0.6743(4) 0.1736(6) 0.3301(7)
O11_2 O 0.7199(3) 0.1754(5) 0.2295(8)
C25_3 C 0.7242(5) 0.1307(8) 0.7498(9)
C26_3 C 0.6966(5) 0.0758(8) 0.7594(9)
C27_3 C 0.6582(5) 0.0823(8) 0.8026(10)
H13_3 H 0.6539 0.1228 0.8314
C28_3 C 0.6293(6) 0.0332(9) 0.8027(15)
H14_3 H 0.6026 0.0421 0.8210
C31_3 C 0.7031(7) 0.0091(10) 0.7284(12)
H16_3 H 0.7284 0.0003 0.7047
C12_3 C 0.0554(5) 0.8331(11) 0.0324(11)
H5_3 H 0.0335 0.8622 0.0444
C13_3 C 0.0911(5) 0.8089(11) 0.1072(13)
H6_3 H 0.0901 0.8178 0.1693
C14_3 C 0.1260(5) 0.7736(8) 0.0880(10)
C17_3 C 0.1653(5) 0.7609(7) 0.1668(10)
H19_3 H 0.4024 0.8358 0.0515
N11_3 N 0.5664(5) 0.9596(9) 0.0573(10)
H29_3 H 0.5458 0.9510 0.0876
O2_3 O 0.1995(4) 0.7346(6) 0.1482(6)
O5_3 O 0.3321(3) 0.7920(6) 0.0608(7)
O12_3 O 0.1627(4) 0.7733(6) 0.2470(8)
O15_2 O 0.3257(4) 0.6736(6) 0.1699(7)
O16_2 O 0.2442(4) 0.6201(6) 0.0606(9)
O19_2 O 0.2038(5) 0.6624(7) 0.3689(9)
O22_2 O 0.2801(3) 0.6754(5) 0.2705(8)
C11_3 C 0.0554(6) 0.8119(14) 0.9459(13)
C15_3 C 0.1242(8) 0.7504(10) 0.9945(17)
H7_3 H 0.1470 0.7246 0.9794
C16_3 C 0.0895(7) 0.7669(11) 0.9328(14)
H8_3 H 0.0864 0.7477 0.8736
C29_3 C 0.6388(6) 0.9634(9) 0.7740(11)
C30_3 C 0.6750(6) 0.9592(8) 0.7317(11)
H15_3 H 0.6799 0.9186 0.7038
C32_3 C 0.5839(5) 0.9000(7) 0.8398(10)
C33_3 C 0.5254(5) 0.8443(7) 0.8764(9)
C34_3 C 0.4528(5) 0.7906(9) 0.8890(10)
C35_3 C 0.4188(6) 0.7422(8) 0.8400(16)
H17_3 H 0.4230 0.7189 0.7873
C36_3 C 0.3841(6) 0.7337(8) 0.8722(14)
H18_3 H 0.3631 0.7025 0.8427
C37_3 C 0.3757(5) 0.7673(10) 0.9465(13)
C38_3 C 0.4075(6) 0.8133(9) 0.9988(11)
C39_3 C 0.4457(5) 0.8221(10) 0.9664(9)
H20_3 H 0.4676 0.8509 0.9987
C40_3 C 0.3348(5) 0.7561(8) 0.9846(11)
C41_3 C 0.5624(7) 0.9248(8) 0.9705(15)
N5_3 N 0.0214(6) 0.8264(10) 0.8605(13)
H26_3 H 0.0259 0.8106 0.8084
N7_3 N 0.6102(5) 0.9118(8) 0.7760(10)
H28_3 H 0.6081 0.8826 0.7317
N8_3 N 0.5493(5) 0.8534(7) 0.8098(10)
N9_3 N 0.5301(5) 0.8772(8) 0.9613(11)
N10_3 N 0.5922(5) 0.9341(8) 0.9175(9)
N12_3 N 0.4927(5) 0.7982(9) 0.8516(10)
H30_3 H 0.4958 0.7702 0.8085
C1_3 C 0.7931(6) 0.1447(10) 0.0503(13)
C2_3 C 0.8274(7) 0.0941(9) 0.0328(12)
C3_3 C 0.8619(6) 0.0746(9) 0.1017(12)
H1_3 H 0.8656 0.0956 0.1599
C4_3 C 0.8921(9) 0.0248(15) 0.0902(19)
H2_3 H 0.9107 0.0052 0.1420
O8_2 O 0.7962(5) 0.1624(7) 0.1311(9)
C5_3 C 0.8938(6) 0.0041(9) 0.9955(10)
C6_3 C 0.8593(6) 0.0236(9) 0.9217(10)
H3_3 H 0.8574 0.0077 0.8610
C7_3 C 0.8270(6) 0.0689(9) 0.9433(10)
H4_3 H 0.8040 0.0828 0.8945
C18_3 C 0.7825(5) 0.1344(8) 0.5167(10)
C19_3 C 0.8104(5) 0.0792(7) 0.5618(10)
C20_3 C 0.8447(6) 0.0870(8) 0.6392(9)
H9_3 H 0.8462 0.1285 0.6692
C21_3 C 0.8764(6) 0.0416(9) 0.6771(12)
H10_3 H 0.8996 0.0519 0.7277
C24_3 C 0.8084(7) 0.0127(10) 0.5172(14)
H12_3 H 0.7870 0.0048 0.4625
O6_2 O 0.7558(4) 0.1201(6) 0.4394(9)
H12_4 H 0.2130 0.5048 0.0375
C1_4 C 0.2069(6) 0.6447(10) 0.4497(13)
C2_4 C 0.1726(7) 0.5941(9) 0.4672(12)
C3_4 C 0.1381(6) 0.5746(9) 0.3983(12)
H1_4 H 0.1344 0.5956 0.3401
C4_4 C 0.1079(9) 0.5248(15) 0.4098(19)
H2_4 H 0.0893 0.5052 0.3580
C5_4 C 0.1062(6) 0.5041(9) 0.5045(10)
C6_4 C 0.1407(6) 0.5236(9) 0.5783(10)
H3_4 H 0.1426 0.5077 0.6390
C7_4 C 0.1730(6) 0.5689(9) 0.5567(10)
H4_4 H 0.1960 0.5828 0.6055
C8_3 C 0.0618(6) 0.4344(12) 0.5887(11)
C9_3 C 0.0712(6) 0.4168(10) 0.7450(9)
C10_3 C 0.0154(6) 0.3617(11) 0.6428(14)
C18_4 C 0.2175(5) 0.6344(8) 0.9833(10)
C19_4 C 0.1896(5) 0.5792(7) 0.9382(10)
C20_4 C 0.1553(6) 0.5870(8) 0.8608(9)
H9_4 H 0.1538 0.6285 0.8308
C21_4 C 0.1236(6) 0.5416(9) 0.8229(12)
H10_4 H 0.1004 0.5519 0.7723
C22_3 C 0.1284(7) 0.4758(12) 0.8672(13)
C23_3 C 0.1633(6) 0.4630(9) 0.9464(11)
H11_3 H 0.1666 0.4203 0.9732
C24_4 C 0.1916(7) 0.5127(10) 0.9828(14)
N1_3 N 0.0713(5) 0.4625(8) 0.5111(10)
H25_3 H 0.0530 0.4532 0.4592
N2_3 N 0.0890(6) 0.4455(9) 0.6720(12)
N3_3 N 0.0399(6) 0.3755(11) 0.7396(13)
N4_3 N 0.0243(5) 0.3940(8) 0.5687(10)
N6_3 N 0.0949(5) 0.4253(9) 0.8346(11)
H27_3 H 0.0893 0.3976 0.8759
C11_4 C 0.9446(6) 0.3119(14) 0.5541(13)
C12_4 C 0.9446(5) 0.3331(11) 0.4676(11)
H5_4 H 0.9665 0.3622 0.4556
C13_4 C 0.9089(5) 0.3089(11) 0.3928(13)
H6_4 H 0.9099 0.3178 0.3307
C14_4 C 0.8740(5) 0.2736(8) 0.4120(10)
C15_4 C 0.8758(8) 0.2504(10) 0.5055(17)
H7_4 H 0.8530 0.2246 0.5206
C16_4 C 0.9105(7) 0.2669(11) 0.5672(14)
H8_4 H 0.9136 0.2477 0.6264
C17_4 C 0.8347(5) 0.2609(7) 0.3332(10)
C25_4 C 0.2758(5) 0.6307(8) 0.7502(9)
C26_4 C 0.3034(5) 0.5758(8) 0.7406(9)
C27_4 C 0.3418(5) 0.5823(8) 0.6974(10)
H13_4 H 0.3461 0.6228 0.6686
C28_4 C 0.3707(6) 0.5332(9) 0.6973(15)
H14_4 H 0.3974 0.5421 0.6790
C29_4 C 0.3612(6) 0.4634(9) 0.7260(11)
C30_4 C 0.3250(6) 0.4592(8) 0.7683(11)
H15_4 H 0.3201 0.4186 0.7962
C31_4 C 0.2969(7) 0.5091(10) 0.7716(12)
H16_4 H 0.2716 0.5003 0.7953
C32_4 C 0.4161(5) 0.4000(7) 0.6602(10)
C33_4 C 0.4746(5) 0.3443(7) 0.6236(9)
C34_4 C 0.5472(5) 0.2906(9) 0.6110(10)
C35_4 C 0.5812(6) 0.2422(8) 0.6600(16)
H17_4 H 0.5770 0.2189 0.7127
C36_4 C 0.6159(6) 0.2337(8) 0.6278(14)
H18_4 H 0.6369 0.2025 0.6573
C37_4 C 0.6243(5) 0.2673(10) 0.5535(13)
C38_4 C 0.5925(6) 0.3133(9) 0.5012(11)
H19_4 H 0.5976 0.3358 0.4485
C39_4 C 0.5543(5) 0.3221(10) 0.5336(9)
H20_4 H 0.5324 0.3509 0.5013
C40_4 C 0.6652(5) 0.2561(8) 0.5154(11)
C41_4 C 0.4376(7) 0.4248(8) 0.5295(15)
C42_4 C 0.4017(6) 0.5052(10) 0.4004(14)
C43_4 C 0.4096(7) 0.5328(11) 0.3148(14)
H21_4 H 0.4335 0.5172 0.2907
C44_4 C 0.3830(5) 0.5805(8) 0.2696(10)
H22_4 H 0.3895 0.5998 0.2160
C45_4 C 0.3464(5) 0.6018(8) 0.3005(9)
C46_4 C 0.3370(5) 0.5734(8) 0.3814(9)
H23_4 H 0.3118 0.5866 0.4026
C47_4 C 0.3652(6) 0.5265(11) 0.4290(12)
H24_4 H 0.3589 0.5082 0.4835
C48_4 C 0.3143(5) 0.6537(7) 0.2438(10)
N5_4 N 0.9786(6) 0.3264(10) 0.6395(13)
H26_4 H 0.9741 0.3106 0.6916
N7_4 N 0.3898(5) 0.4118(8) 0.7240(10)
H28_4 H 0.3919 0.3826 0.7683
N8_4 N 0.4507(5) 0.3534(7) 0.6902(10)
N9_4 N 0.4699(5) 0.3772(8) 0.5387(11)
N10_4 N 0.4078(5) 0.4341(8) 0.5825(9)
N11_4 N 0.4336(5) 0.4596(9) 0.4427(10)
H29_4 H 0.4542 0.4510 0.4124
N12_4 N 0.5073(5) 0.2982(9) 0.6484(10)
H30_4 H 0.5042 0.2702 0.6915
O2_4 O 0.8005(4) 0.2346(6) 0.3518(6)
O5_4 O 0.6679(3) 0.2920(6) 0.4392(7)
O12_4 O 0.8373(4) 0.2733(6) 0.2530(8)
H25_4 H 0.9470 0.9532 0.0408
C8_4 C 0.9382(6) 0.9344(12) 0.9113(11)
C9_4 C 0.9288(6) 0.9168(10) 0.7550(9)
C10_4 C 0.9846(6) 0.8617(11) 0.8572(14)
C22_4 C 0.8716(7) 0.9758(12) 0.6328(13)
C23_4 C 0.8367(6) 0.9630(9) 0.5536(11)
H11_4 H 0.8334 0.9203 0.5268
N1_4 N 0.9287(5) 0.9625(8) 0.9889(10)
N2_4 N 0.9110(6) 0.9455(9) 0.8280(12)
N3_4 N 0.9601(6) 0.8755(11) 0.7604(13)
N4_4 N 0.9757(5) 0.8940(8) 0.9313(10)
N6_4 N 0.9051(5) 0.9253(9) 0.6654(11)
H27_4 H 0.9107 0.8976 0.6241
loop_
_geom_bond_atom_site_label_1
_geom_bond_atom_site_label_2
_geom_bond_site_symmetry_1
_geom_bond_site_symmetry_2
C8 N1 1_555 1_555
C9 N2 1_555 1_555
C10 N3 1_555 1_555
C23 C22 1_555 1_555
H11 C23 1_555 1_555
N2 C8 1_555 1_555
N3 C9 1_555 1_555
N4 C8 1_555 1_555
N6 C9 1_555 1_555
H27 N6 1_555 1_555
C10 N4 1_555 1_555
C22 N6 1_555 1_555
C6 C5 1_555 1_555
H3 C6 1_555 1_555
H4 C7 1_555 1_555
C18 C19 1_555 1_555
C19 C20 1_555 1_555
C20 H9 1_555 1_555
C21 C20 1_555 1_555
H10 C21 1_555 1_555
C24 C19 1_555 1_555
H12 C24 1_555 1_555
O6 C18 1_555 1_555
O7 C18 1_555 1_555
Tb6 O7 1_555 1_555
Tb9 O6 1_555 1_555
Tb11 O1 1_555 1_555
C6 C7 1_555 1_555
O7 Tb9 1_555 1_555
C1 C2 1_555 1_555
C2 C3 1_555 1_555
C3 H1 1_555 1_555
C4 C3 1_555 1_555
H2 C4 1_555 1_555
O8 C1 1_555 1_555
Tb4 O8 1_555 1_555
H7 C15 1_555 1_555
C16 C11 1_555 1_555
H8 C16 1_555 1_555
C30 C29 1_555 1_555
H15 C30 1_555 1_555
C32 N7 1_555 1_555
C33 N8 1_555 1_555
C34 C35 1_555 1_555
C35 H17 1_555 1_555
C36 C35 1_555 1_555
H18 C36 1_555 1_555
C37 C36 1_555 1_555
C38 C37 1_555 1_555
C39 C34 1_555 1_555
H20 C39 1_555 1_555
C40 C37 1_555 1_555
C41 N9 1_555 1_555
H26 N5 1_555 1_555
N7 C29 1_555 1_555
H28 N7 1_555 1_555
N8 C32 1_555 1_555
N9 C33 1_555 1_555
N10 C32 1_555 1_555
N12 C33 1_555 1_555
H30 N12 1_555 1_555
O9 C40 1_555 1_555
Tb7 O9 1_555 1_555
C11 N5 1_555 1_555
C15 C16 1_555 1_555
C34 N12 1_555 1_555
C38 C39 1_555 1_555
C41 N10 1_555 1_555
O17 Tb7 1_555 1_555
C12 H5 1_555 1_555
C13 C12 1_555 1_555
H6 C13 1_555 1_555
C14 C13 1_555 1_555
C17 C14 1_555 1_555
H29 N11 1_555 1_555
O2 C17 1_555 1_555
O12 C17 1_555 1_555
Tb1 O2 1_555 1_555
Tb2 O2 1_555 1_555
O13 Tb2 1_555 1_555
O14 Tb1 1_555 1_555
O15 Tb2 1_555 1_555
O16 Tb2 1_555 1_555
O18 Tb1 1_555 1_555
O19 Tb1 1_555 1_555
O20 Tb1 1_555 1_555
O21 Tb1 1_555 1_555
O22 Tb1 1_555 1_555
O5 Tb2 1_555 1_555
O12 Tb1 1_555 1_555
Tb2 O14 1_555 1_555
C25 C26 1_555 1_555
C26 C27 1_555 1_555
C27 H13 1_555 1_555
C28 C27 1_555 1_555
H14 C28 1_555 1_555
C31 C26 1_555 1_555
H16 C31 1_555 1_555
O3 C25 1_555 1_555
O10 C25 1_555 1_555
Tb6 O3 1_555 1_555
Tb11 O3 1_555 1_555
O10 Tb6 1_555 1_555
C42 C43 1_555 1_555
C43 H21 1_555 1_555
C44 C43 1_555 1_555
H22 C44 1_555 1_555
C45 C44 1_555 1_555
C46 C45 1_555 1_555
H23 C46 1_555 1_555
C47 C42 1_555 1_555
H24 C47 1_555 1_555
C48 C45 1_555 1_555
O4 C48 1_555 1_555
O11 C48 1_555 1_555
Tb4 O11 1_555 1_555
Tb9 O4 1_555 1_555
C46 C47 1_555 1_555
C11_2 C12_2 1_555 1_555
C12_2 H5_2 1_555 1_555
C13_2 C12_2 1_555 1_555
H6_2 C13_2 1_555 1_555
C14_2 C13_2 1_555 1_555
C15_2 C14_2 1_555 1_555
H7_2 C15_2 1_555 1_555
C16_2 C11_2 1_555 1_555
H8_2 C16_2 1_555 1_555
C17_2 C14_2 1_555 1_555
C25_2 C26_2 1_555 1_555
C26_2 C27_2 1_555 1_555
C27_2 H13_2 1_555 1_555
C28_2 C27_2 1_555 1_555
H14_2 C28_2 1_555 1_555
C29_2 C28_2 1_555 1_555
C30_2 C29_2 1_555 1_555
H15_2 C30_2 1_555 1_555
C31_2 C26_2 1_555 1_555
H16_2 C31_2 1_555 1_555
C32_2 N7_2 1_555 1_555
C33_2 N8_2 1_555 1_555
C34_2 C35_2 1_555 1_555
C35_2 H17_2 1_555 1_555
C36_2 C35_2 1_555 1_555
H18_2 C36_2 1_555 1_555
C37_2 C36_2 1_555 1_555
C38_2 C37_2 1_555 1_555
H19_2 C38_2 1_555 1_555
C39_2 C34_2 1_555 1_555
H20_2 C39_2 1_555 1_555
C40_2 C37_2 1_555 1_555
C41_2 N9_2 1_555 1_555
C42_2 C43_2 1_555 1_555
C43_2 H21_2 1_555 1_555
C44_2 C43_2 1_555 1_555
H22_2 C44_2 1_555 1_555
C45_2 C44_2 1_555 1_555
C46_2 C45_2 1_555 1_555
H23_2 C46_2 1_555 1_555
C47_2 C42_2 1_555 1_555
H24_2 C47_2 1_555 1_555
C48_2 C45_2 1_555 1_555
H26_2 N5_2 1_555 1_555
N7_2 C29_2 1_555 1_555
H28_2 N7_2 1_555 1_555
N8_2 C32_2 1_555 1_555
N9_2 C33_2 1_555 1_555
N10_2 C32_2 1_555 1_555
N11_2 C41_2 1_555 1_555
H29_2 N11_2 1_555 1_555
N12_2 C33_2 1_555 1_555
H30_2 N12_2 1_555 1_555
O2_2 C17_2 1_555 1_555
O3_2 C25_2 1_555 1_555
O15 C48_2 1_555 1_555
O5_2 C40_2 1_555 1_555
O9_2 C40_2 1_555 1_555
O10_2 C25_2 1_555 1_555
O22 C48_2 1_555 1_555
O12_2 C17_2 1_555 1_555
Tb4 O2_2 1_555 1_555
Tb9 O2_2 1_555 1_555
O13_2 Tb9 1_555 1_555
O14_2 Tb4 1_555 1_555
O18_2 Tb4 1_555 1_555
O20_2 Tb4 1_555 1_555
O21_2 Tb4 1_555 1_555
Tb7 O3_2 1_555 1_555
Tb6 O9_2 1_555 1_555
Tb10 O3_2 1_555 1_555
C11_2 N5_2 1_555 1_555
C15_2 C16_2 1_555 1_555
C30_2 C31_2 1_555 1_555
C34_2 N12_2 1_555 1_555
C38_2 C39_2 1_555 1_555
C41_2 N10_2 1_555 1_555
C42_2 N11_2 1_555 1_555
C46_2 C47_2 1_555 1_555
O5_2 Tb9 1_555 1_555
O9_2 Tb9 1_555 1_555
O10_2 Tb7 1_555 1_555
O12_2 Tb4 1_555 1_555
Tb9 O14_2 1_555 1_555
C1_2 C2_2 1_555 1_555
C2_2 C3_2 1_555 1_555
C3_2 H1_2 1_555 1_555
C4_2 C3_2 1_555 1_555
H2_2 C4_2 1_555 1_555
C5_2 C4_2 1_555 1_555
C6_2 C5_2 1_555 1_555
H3_2 C6_2 1_555 1_555
C7_2 C2_2 1_555 1_555
H4_2 C7_2 1_555 1_555
C8_2 N1_2 1_555 1_555
C9_2 N2_2 1_555 1_555
C10_2 N3_2 1_555 1_555
C18_2 C19_2 1_555 1_555
C19_2 C20_2 1_555 1_555
C20_2 H9_2 1_555 1_555
C21_2 C20_2 1_555 1_555
H10_2 C21_2 1_555 1_555
C22_2 C21_2 1_555 1_555
C23_2 C22_2 1_555 1_555
H11_2 C23_2 1_555 1_555
C24_2 C19_2 1_555 1_555
N1_2 C5_2 1_555 1_555
H25_2 N1_2 1_555 1_555
N2_2 C8_2 1_555 1_555
N3_2 C9_2 1_555 1_555
N4_2 C8_2 1_555 1_555
N6_2 C9_2 1_555 1_555
H27_2 N6_2 1_555 1_555
O1_2 C1_2 1_555 1_555
O17 C18_2 1_555 1_555
O19 C1_2 1_555 1_555
Tb10 O1_2 1_555 1_555
C6_2 C7_2 1_555 1_555
C10_2 N4_2 1_555 1_555
C22_2 N6_2 1_555 1_555
C23_2 C24_2 1_555 1_555
C42_3 C43_3 1_555 1_555
C43_3 H21_3 1_555 1_555
C44_3 C43_3 1_555 1_555
H22_3 C44_3 1_555 1_555
C45_3 C44_3 1_555 1_555
C46_3 C45_3 1_555 1_555
H23_3 C46_3 1_555 1_555
C47_3 C42_3 1_555 1_555
H24_3 C47_3 1_555 1_555
C48_3 C45_3 1_555 1_555
O4_2 C48_3 1_555 1_555
O11_2 C48_3 1_555 1_555
Tb7 O11_2 1_555 1_555
Tb10 O4_2 1_555 1_555
C46_3 C47_3 1_555 1_555
C25_3 C26_3 1_555 1_555
C26_3 C27_3 1_555 1_555
C27_3 H13_3 1_555 1_555
C28_3 C27_3 1_555 1_555
H14_3 C28_3 1_555 1_555
C31_3 C26_3 1_555 1_555
H16_3 C31_3 1_555 1_555
O14 C25_3 1_555 1_555
O21 C25_3 1_555 1_555
C12_3 H5_3 1_555 1_555
C13_3 C12_3 1_555 1_555
H6_3 C13_3 1_555 1_555
C14_3 C13_3 1_555 1_555
C17_3 C14_3 1_555 1_555
H29_3 N11_3 1_555 1_555
O2_3 C17_3 1_555 1_555
O12_3 C17_3 1_555 1_555
Tb6 O2_3 1_555 1_555
Tb11 O2_3 1_555 1_555
O15_2 Tb11 1_555 1_555
O16_2 Tb11 1_555 1_555
O19_2 Tb6 1_555 1_555
O22_2 Tb6 1_555 1_555
O5_3 Tb11 1_555 1_555
O12_3 Tb6 1_555 1_555
H7_3 C15_3 1_555 1_555
C16_3 C11_3 1_555 1_555
H8_3 C16_3 1_555 1_555
C30_3 C29_3 1_555 1_555
H15_3 C30_3 1_555 1_555
C32_3 N7_3 1_555 1_555
C33_3 N8_3 1_555 1_555
C34_3 C35_3 1_555 1_555
C35_3 H17_3 1_555 1_555
C36_3 C35_3 1_555 1_555
H18_3 C36_3 1_555 1_555
C37_3 C36_3 1_555 1_555
C38_3 C37_3 1_555 1_555
C39_3 C34_3 1_555 1_555
H20_3 C39_3 1_555 1_555
C40_3 C37_3 1_555 1_555
C41_3 N9_3 1_555 1_555
H26_3 N5_3 1_555 1_555
N7_3 C29_3 1_555 1_555
H28_3 N7_3 1_555 1_555
N8_3 C32_3 1_555 1_555
N9_3 C33_3 1_555 1_555
N10_3 C32_3 1_555 1_555
N12_3 C33_3 1_555 1_555
H30_3 N12_3 1_555 1_555
O20_2 C40_3 1_555 1_555
C11_3 N5_3 1_555 1_555
C15_3 C16_3 1_555 1_555
C34_3 N12_3 1_555 1_555
C38_3 C39_3 1_555 1_555
C41_3 N10_3 1_555 1_555
C1_3 C2_3 1_555 1_555
C2_3 C3_3 1_555 1_555
C3_3 H1_3 1_555 1_555
C4_3 C3_3 1_555 1_555
H2_3 C4_3 1_555 1_555
O8_2 C1_3 1_555 1_555
Tb7 O8_2 1_555 1_555
C6_3 C5_3 1_555 1_555
H3_3 C6_3 1_555 1_555
H4_3 C7_3 1_555 1_555
C18_3 C19_3 1_555 1_555
C19_3 C20_3 1_555 1_555
C20_3 H9_3 1_555 1_555
C21_3 C20_3 1_555 1_555
H10_3 C21_3 1_555 1_555
C24_3 C19_3 1_555 1_555
H12_3 C24_3 1_555 1_555
O6_2 C18_3 1_555 1_555
O18 C18_3 1_555 1_555
Tb10 O6_2 1_555 1_555
C6_3 C7_3 1_555 1_555
O18 Tb10 1_555 1_555
C1_4 C2_4 1_555 1_555
C2_4 C3_4 1_555 1_555
C3_4 H1_4 1_555 1_555
C4_4 C3_4 1_555 1_555
H2_4 C4_4 1_555 1_555
C5_4 C4_4 1_555 1_555
C6_4 C5_4 1_555 1_555
H3_4 C6_4 1_555 1_555
C7_4 C2_4 1_555 1_555
H4_4 C7_4 1_555 1_555
C8_3 N1_3 1_555 1_555
C9_3 N2_3 1_555 1_555
C10_3 N3_3 1_555 1_555
C18_4 C19_4 1_555 1_555
C19_4 C20_4 1_555 1_555
C20_4 H9_4 1_555 1_555
C21_4 C20_4 1_555 1_555
H10_4 C21_4 1_555 1_555
C22_3 C21_4 1_555 1_555
C23_3 C22_3 1_555 1_555
H11_3 C23_3 1_555 1_555
C24_4 C19_4 1_555 1_555
N1_3 C5_4 1_555 1_555
H25_3 N1_3 1_555 1_555
N2_3 C8_3 1_555 1_555
N3_3 C9_3 1_555 1_555
N4_3 C8_3 1_555 1_555
N6_3 C9_3 1_555 1_555
H27_3 N6_3 1_555 1_555
O13_2 C1_4 1_555 1_555
O18_2 C18_4 1_555 1_555
O19_2 C1_4 1_555 1_555
C6_4 C7_4 1_555 1_555
C10_3 N4_3 1_555 1_555
C22_3 N6_3 1_555 1_555
C23_3 C24_4 1_555 1_555
C11_4 C12_4 1_555 1_555
C12_4 H5_4 1_555 1_555
C13_4 C12_4 1_555 1_555
H6_4 C13_4 1_555 1_555
C14_4 C13_4 1_555 1_555
C15_4 C14_4 1_555 1_555
H7_4 C15_4 1_555 1_555
C16_4 C11_4 1_555 1_555
H8_4 C16_4 1_555 1_555
C17_4 C14_4 1_555 1_555
C25_4 C26_4 1_555 1_555
C26_4 C27_4 1_555 1_555
C27_4 H13_4 1_555 1_555
C28_4 C27_4 1_555 1_555
H14_4 C28_4 1_555 1_555
C29_4 C28_4 1_555 1_555
C30_4 C29_4 1_555 1_555
H15_4 C30_4 1_555 1_555
C31_4 C26_4 1_555 1_555
H16_4 C31_4 1_555 1_555
C32_4 N7_4 1_555 1_555
C33_4 N8_4 1_555 1_555
C34_4 C35_4 1_555 1_555
C35_4 H17_4 1_555 1_555
C36_4 C35_4 1_555 1_555
H18_4 C36_4 1_555 1_555
C37_4 C36_4 1_555 1_555
C38_4 C37_4 1_555 1_555
H19_4 C38_4 1_555 1_555
C39_4 C34_4 1_555 1_555
H20_4 C39_4 1_555 1_555
C40_4 C37_4 1_555 1_555
C41_4 N9_4 1_555 1_555
C42_4 C43_4 1_555 1_555
C43_4 H21_4 1_555 1_555
C44_4 C43_4 1_555 1_555
H22_4 C44_4 1_555 1_555
C45_4 C44_4 1_555 1_555
C46_4 C45_4 1_555 1_555
H23_4 C46_4 1_555 1_555
C47_4 C42_4 1_555 1_555
H24_4 C47_4 1_555 1_555
C48_4 C45_4 1_555 1_555
H26_4 N5_4 1_555 1_555
N7_4 C29_4 1_555 1_555
H28_4 N7_4 1_555 1_555
N8_4 C32_4 1_555 1_555
N9_4 C33_4 1_555 1_555
N10_4 C32_4 1_555 1_555
N11_4 C41_4 1_555 1_555
H29_4 N11_4 1_555 1_555
N12_4 C33_4 1_555 1_555
H30_4 N12_4 1_555 1_555
O2_4 C17_4 1_555 1_555
O14_2 C25_4 1_555 1_555
O15_2 C48_4 1_555 1_555
O5_4 C40_4 1_555 1_555
O20 C40_4 1_555 1_555
O21_2 C25_4 1_555 1_555
O22_2 C48_4 1_555 1_555
O12_4 C17_4 1_555 1_555
Tb7 O2_4 1_555 1_555
Tb10 O2_4 1_555 1_555
C11_4 N5_4 1_555 1_555
C15_4 C16_4 1_555 1_555
C30_4 C31_4 1_555 1_555
C34_4 N12_4 1_555 1_555
C38_4 C39_4 1_555 1_555
C41_4 N10_4 1_555 1_555
C42_4 N11_4 1_555 1_555
C46_4 C47_4 1_555 1_555
O5_4 Tb10 1_555 1_555
O20 Tb10 1_555 1_555
O12_4 Tb7 1_555 1_555
C8_4 N1_4 1_555 1_555
C9_4 N2_4 1_555 1_555
C10_4 N3_4 1_555 1_555
C23_4 C22_4 1_555 1_555
H11_4 C23_4 1_555 1_555
N2_4 C8_4 1_555 1_555
N3_4 C9_4 1_555 1_555
N4_4 C8_4 1_555 1_555
N6_4 C9_4 1_555 1_555
H27_4 N6_4 1_555 1_555
C10_4 N4_4 1_555 1_555
C22_4 N6_4 1_555 1_555

#END
