
###############################################################################
#
# This file contains modified crystal structure data generated from the
# MOF subset of the Cambridge Structural Database (CSD) v543 
# hosted by the Cambridge Crystallographic Data Centre (CCDC).
#
# This work is licensed under the Creative Commons
# Attribution-NonCommercial-ShareAlike 4.0 International License.
# To view a copy of this license, visit
# http://creativecommons.org/licenses/by-nc-sa/4.0/
# or send a letter to
# Creative Commons, PO Box 1866, Mountain View, CA 94042, USA.
#
# CIF created using the CSD Python API on 29 September 2022
# The structure has been converted into the P1 space group
# The structure has a 3D framework
# The original CSD entry BADZAK is in the monoclinic crystal system
# The framework has been calculated to contain at least 10.0% void space
# The void calculation uses a probe of radius 1.32A, grid spacing 0.4
# The framework is charged, counterions have been retained in the structure
#
###############################################################################

data_BADZAK
_chemical_formula_moiety         '(C128 H64 O61 Zn14 4-)n'
_symmetry_cell_setting           triclinic
_symmetry_space_group_name_H-M   'P 1'
_symmetry_Int_Tables_number      1
_space_group_name_Hall           'P 1'
loop_
_symmetry_equiv_pos_site_id
_symmetry_equiv_pos_as_xyz
1 x,y,z
_cell_length_a                   33.2338(17)
_cell_length_b                   9.7575(5)
_cell_length_c                   18.2013(7)
_cell_angle_alpha                90
_cell_angle_beta                 93.461(4)
_cell_angle_gamma                90
_cell_volume                     5891.53
loop_
_atom_site_label
_atom_site_type_symbol
_atom_site_fract_x
_atom_site_fract_y
_atom_site_fract_z
O9 O 0.29774(8) 0.0875(3) 0.49482(17)
Zn6 Zn 0.347151(14) 0.19926(5) 0.51550(3)
Zn7 Zn 0.2500 0.2500 0.5000
Zn1 Zn 0.152849(14) 0.30074(5) 0.48450(3)
O1 O 0.22652(9) 0.1887(3) 0.39891(15)
O2 O 0.15948(9) 0.1805(3) 0.39938(16)
O4 O 0.20226(8) 0.4125(3) 0.50518(17)
O6 O 0.09639(10) 0.3485(4) 0.4632(2)
C2 C 0.22619(12) 0.6366(5) 0.4813(2)
C3 C 0.24973(14) 0.6392(5) 0.5471(3)
H1 H 0.2494 0.5653 0.5793
C4 C 0.19035(13) 0.0841(5) 0.2995(2)
C5 C 0.19972(14) 0.5168(5) 0.4624(3)
C6 C 0.19291(13) 0.1577(5) 0.3723(2)
C7 C 0.15524(14) 0.0322(5) 0.2698(3)
H2 H 0.1319 0.0413 0.2950
C9 C 0.22645(15) 0.7486(5) 0.4354(3)
H3 H 0.2103 0.7485 0.3919
O7 O 0.17600(12) 0.5198(4) 0.4080(2)
C10 C 0.22307(13) 0.0053(5) 0.1935(2)
C12 C 0.22448(14) 0.0701(5) 0.2608(3)
H6 H 0.2489 0.1050 0.2805
O8 O 0.10790(12) 0.4825(6) 0.5596(3)
C13 C 0.04081(16) 0.4669(7) 0.5044(3)
C14 C 0.08487(17) 0.4291(7) 0.5103(4)
C15 C 0.01479(18) 0.4111(8) 0.4529(4)
H7 H 0.0247 0.3489 0.4197
C17 C 0.27381(12) 0.8634(5) 0.5187(2)
C18 C 0.25027(14) 0.8608(5) 0.4529(3)
H9 H 0.2506 0.9347 0.4207
C19 C 0.30028(14) 0.9832(5) 0.5376(3)
C20 C 0.27355(15) 0.7514(5) 0.5646(3)
H10 H 0.2897 0.7515 0.6081
O10 O 0.32400(12) 0.9802(4) 0.5920(2)
C24 C 0.02508(19) 0.5583(8) 0.5527(4)
H12 H 0.0418 0.5991 0.5891
O17 O 0.27348(9) 0.3113(3) 0.60109(15)
O19 O 0.15393(9) 0.1890(3) 0.57496(16)
O22 O 0.28374(8) 0.3831(3) 0.44404(16)
O23 O 0.21626(8) 0.1169(3) 0.55596(16)
O3 O 0.15393(9) 0.8110(3) 0.07496(16)
O5 O 0.21626(8) 0.8831(3) 0.05596(16)
C1 C 0.18595(13) 0.8771(5) 0.0931(2)
C8 C 0.18737(13) 0.9514(5) 0.1639(2)
H4 H 0.2463 0.9978 0.1678
C11 C 0.15367(14) 0.9661(6) 0.2028(3)
H5 H 0.1292 0.9308 0.1837
Zn10 Zn 0.2500 0.7500 0.0000
Zn5 Zn 0.152849(14) 0.69926(5) 0.98450(3)
Zn10_2 Zn 0.2500 0.7500 1.0000
Zn4 Zn 0.847151(14) 0.30074(5) 0.01550(3)
Zn8 Zn 0.7500 0.2500 0.0000
O15 O 0.84607(9) 0.1890(3) 0.92504(16)
O16 O 0.78374(8) 0.1169(3) 0.94404(16)
C25 C 0.81405(13) 0.1229(5) 0.9069(2)
C29 C 0.81263(13) 0.0486(5) 0.8361(2)
H14 H 0.7537 0.0022 0.8322
C31 C 0.84633(14) 0.0339(6) 0.7972(3)
H15 H 0.8708 0.0692 0.8163
Zn8_2 Zn 0.7500 0.2500 1.0000
C16 C 0.97492(19) 0.4417(8) 0.4473(4)
H8 H 0.9582 0.4009 0.4109
O11 O 0.90361(10) 0.6515(4) 0.5368(2)
O12 O 0.89210(12) 0.5175(6) 0.4404(3)
C21 C 0.95919(16) 0.5331(7) 0.4956(3)
C22 C 0.91513(17) 0.5709(7) 0.4897(4)
C23 C 0.98521(18) 0.5889(8) 0.5471(4)
H11 H 0.9753 0.6511 0.5803
Zn3 Zn 0.847151(14) 0.69926(5) 0.51550(3)
O13 O 0.77348(9) 0.8113(3) 0.60109(15)
O14 O 0.84052(9) 0.8195(3) 0.60062(16)
C26 C 0.80965(13) 0.9159(5) 0.7005(2)
C27 C 0.80709(13) 0.8423(5) 0.6277(2)
C28 C 0.84476(14) 0.9678(5) 0.7302(3)
H13 H 0.8681 0.9587 0.7050
C30 C 0.77693(13) 0.9947(5) 0.8065(2)
C32 C 0.77552(14) 0.9299(5) 0.7392(3)
H16 H 0.7511 0.8950 0.7195
Zn9 Zn 0.7500 0.7500 0.5000
O18 O 0.84607(9) 0.8110(3) 0.42504(16)
O20 O 0.79774(8) 0.5875(3) 0.49482(17)
C25_2 C 0.18595(13) 0.1229(5) 0.5931(2)
C29_2 C 0.18737(13) 0.0486(5) 0.6639(2)
H14_2 H 0.2463 0.0022 0.6678
C31_2 C 0.15367(14) 0.0339(6) 0.7028(3)
H15_2 H 0.1292 0.0692 0.6837
C16_2 C 0.02508(19) 0.4417(8) 0.0527(4)
H8_2 H 0.0418 0.4009 0.0891
O12_2 O 0.10790(12) 0.5175(6) 0.0596(3)
C21_2 C 0.04081(16) 0.5331(7) 0.0044(3)
C22_2 C 0.08487(17) 0.5709(7) 0.0103(4)
O20_2 O 0.20226(8) 0.5875(3) 0.00518(17)
O11_2 O 0.09639(10) 0.6515(4) 0.9632(2)
C23_2 C 0.01479(18) 0.5889(8) 0.9529(4)
H11_2 H 0.0247 0.6511 0.9197
O13_2 O 0.22652(9) 0.8113(3) 0.89891(15)
O14_2 O 0.15948(9) 0.8195(3) 0.89938(16)
C26_2 C 0.19035(13) 0.9159(5) 0.7995(2)
C27_2 C 0.19291(13) 0.8423(5) 0.8723(2)
C28_2 C 0.15524(14) 0.9678(5) 0.7698(3)
H13_2 H 0.1319 0.9587 0.7950
C30_2 C 0.22307(13) 0.9947(5) 0.6935(2)
C32_2 C 0.22448(14) 0.9299(5) 0.7608(3)
H16_2 H 0.2489 0.8950 0.7805
O9_2 O 0.70226(8) 0.0875(3) 0.00518(17)
Zn6_2 Zn 0.652849(14) 0.19926(5) 0.98450(3)
O1_2 O 0.77348(9) 0.1887(3) 0.10109(15)
O2_2 O 0.84052(9) 0.1805(3) 0.10062(16)
O6_2 O 0.90361(10) 0.3485(4) 0.0368(2)
C2_2 C 0.77381(12) 0.6366(5) 0.0187(2)
C4_2 C 0.80965(13) 0.0841(5) 0.2005(2)
C5_2 C 0.80028(14) 0.5168(5) 0.0376(3)
C6_2 C 0.80709(13) 0.1577(5) 0.1277(2)
C7_2 C 0.84476(14) 0.0322(5) 0.2302(3)
H2_2 H 0.8681 0.0413 0.2050
C9_2 C 0.77355(15) 0.7486(5) 0.0646(3)
H3_2 H 0.7897 0.7485 0.1081
O7_2 O 0.82400(12) 0.5198(4) 0.0920(2)
C10_2 C 0.77693(13) 0.0053(5) 0.3065(2)
C12_2 C 0.77552(14) 0.0701(5) 0.2392(3)
H6_2 H 0.7511 0.1050 0.2195
C15_2 C 0.98521(18) 0.4111(8) 0.0471(4)
H7_2 H 0.9753 0.3489 0.0803
C18_2 C 0.74973(14) 0.8608(5) 0.0471(3)
H9_2 H 0.7494 0.9347 0.0793
O22_2 O 0.71626(8) 0.3831(3) 0.05596(16)
O4_2 O 0.79774(8) 0.4125(3) 0.99482(17)
C3_2 C 0.75027(14) 0.6392(5) 0.9529(3)
H1_2 H 0.7506 0.5653 0.9207
O8_2 O 0.89210(12) 0.4825(6) 0.9404(3)
C13_2 C 0.95919(16) 0.4669(7) 0.9956(3)
C14_2 C 0.91513(17) 0.4291(7) 0.9897(4)
C17_2 C 0.72619(12) 0.8634(5) 0.9813(2)
C19_2 C 0.69972(14) 0.9832(5) 0.9624(3)
C20_2 C 0.72645(15) 0.7514(5) 0.9354(3)
H10_2 H 0.7103 0.7515 0.8919
O10_2 O 0.67600(12) 0.9802(4) 0.9080(2)
C24_2 C 0.97492(19) 0.5583(8) 0.9473(4)
H12_2 H 0.9582 0.5991 0.9109
O17_2 O 0.72652(9) 0.3113(3) 0.89891(15)
O5_2 O 0.78374(8) 0.8831(3) 0.44404(16)
C1_2 C 0.81405(13) 0.8771(5) 0.4069(2)
C8_2 C 0.81263(13) 0.9514(5) 0.3361(2)
H4_2 H 0.7537 0.9978 0.3322
C11_2 C 0.84633(14) 0.9661(6) 0.2972(3)
H5_2 H 0.8708 0.9308 0.3163
Zn4_2 Zn 0.347151(14) 0.80074(5) 0.01550(3)
C2_3 C 0.72619(12) 0.1366(5) 0.4813(2)
C3_3 C 0.74973(14) 0.1392(5) 0.5471(3)
H1_3 H 0.7494 0.0653 0.5793
C5_3 C 0.69972(14) 0.0168(5) 0.4624(3)
C9_3 C 0.72645(15) 0.2486(5) 0.4354(3)
H3_3 H 0.7103 0.2485 0.3919
O7_3 O 0.67600(12) 0.0198(4) 0.4080(2)
C17_3 C 0.77381(12) 0.3634(5) 0.5187(2)
C18_3 C 0.75027(14) 0.3608(5) 0.4529(3)
H9_3 H 0.7506 0.4347 0.4207
C19_3 C 0.80028(14) 0.4832(5) 0.5376(3)
C20_3 C 0.77355(15) 0.2514(5) 0.5646(3)
H10_3 H 0.7897 0.2515 0.6081
O10_3 O 0.82400(12) 0.4802(4) 0.5920(2)
O11_3 O 0.40361(10) 0.1515(4) 0.5368(2)
O12_3 O 0.39210(12) 0.0175(6) 0.4404(3)
C21_3 C 0.45919(16) 0.0331(7) 0.4956(3)
C22_3 C 0.41513(17) 0.0709(7) 0.4897(4)
C23_3 C 0.48521(18) 0.0889(8) 0.5471(4)
H11_3 H 0.4753 0.1511 0.5803
C24_3 C 0.52508(19) 0.0583(8) 0.5527(4)
H12_3 H 0.5418 0.0991 0.5891
O14_3 O 0.34052(9) 0.3195(3) 0.60062(16)
O15_2 O 0.34607(9) 0.6890(3) 0.92504(16)
O16_2 O 0.28374(8) 0.6169(3) 0.94404(16)
C25_3 C 0.31405(13) 0.6229(5) 0.9069(2)
C26_3 C 0.30965(13) 0.4159(5) 0.7005(2)
C27_3 C 0.30709(13) 0.3423(5) 0.6277(2)
C28_3 C 0.34476(14) 0.4678(5) 0.7302(3)
H13_3 H 0.3681 0.4587 0.7050
C29_3 C 0.31263(13) 0.5486(5) 0.8361(2)
C30_3 C 0.27693(13) 0.4947(5) 0.8065(2)
H14_3 H 0.2537 0.5022 0.8322
C31_3 C 0.34633(14) 0.5339(6) 0.7972(3)
H15_3 H 0.3708 0.5692 0.8163
C32_3 C 0.27552(14) 0.4299(5) 0.7392(3)
H16_3 H 0.2511 0.3950 0.7195
O18_2 O 0.34607(9) 0.3110(3) 0.42504(16)
Zn1_2 Zn 0.652849(14) 0.80074(5) 0.48450(3)
O1_3 O 0.72652(9) 0.6887(3) 0.39891(15)
O2_3 O 0.65948(9) 0.6805(3) 0.39938(16)
O3_2 O 0.65393(9) 0.3110(3) 0.07496(16)
O4_3 O 0.70226(8) 0.9125(3) 0.50518(17)
C1_3 C 0.68595(13) 0.3771(5) 0.0931(2)
O6_3 O 0.59639(10) 0.8485(4) 0.4632(2)
C4_3 C 0.69035(13) 0.5841(5) 0.2995(2)
C6_3 C 0.69291(13) 0.6577(5) 0.3723(2)
C7_3 C 0.65524(14) 0.5322(5) 0.2698(3)
H2_3 H 0.6319 0.5413 0.2950
C8_3 C 0.68737(13) 0.4514(5) 0.1639(2)
C10_3 C 0.72307(13) 0.5053(5) 0.1935(2)
H4_3 H 0.7463 0.4978 0.1678
C11_3 C 0.65367(14) 0.4661(6) 0.2028(3)
H5_3 H 0.6292 0.4308 0.1837
C12_3 C 0.72448(14) 0.5701(5) 0.2608(3)
H6_3 H 0.7489 0.6050 0.2805
O8_3 O 0.60790(12) 0.9825(6) 0.5596(3)
C13_3 C 0.54081(16) 0.9669(7) 0.5044(3)
C14_3 C 0.58487(17) 0.9291(7) 0.5103(4)
C15_3 C 0.51479(18) 0.9111(8) 0.4529(4)
H7_3 H 0.5247 0.8489 0.4197
C16_3 C 0.47492(19) 0.9417(8) 0.4473(4)
H8_3 H 0.4582 0.9009 0.4109
O19_2 O 0.65393(9) 0.6890(3) 0.57496(16)
O23_2 O 0.71626(8) 0.6169(3) 0.55596(16)
C2_4 C 0.27381(12) 0.1366(5) 0.0187(2)
C5_4 C 0.30028(14) 0.0168(5) 0.0376(3)
C9_4 C 0.27355(15) 0.2486(5) 0.0646(3)
H3_4 H 0.2897 0.2485 0.1081
O7_4 O 0.32400(12) 0.0198(4) 0.0920(2)
C18_4 C 0.24973(14) 0.3608(5) 0.0471(3)
H9_4 H 0.2494 0.4347 0.0793
O12_4 O 0.60790(12) 0.0175(6) 0.0596(3)
C21_4 C 0.54081(16) 0.0331(7) 0.0044(3)
C22_4 C 0.58487(17) 0.0709(7) 0.0103(4)
C3_4 C 0.25027(14) 0.1392(5) 0.9529(3)
H1_4 H 0.2506 0.0653 0.9207
C17_4 C 0.22619(12) 0.3634(5) 0.9813(2)
C19_4 C 0.19972(14) 0.4832(5) 0.9624(3)
C20_4 C 0.22645(15) 0.2514(5) 0.9354(3)
H10_4 H 0.2103 0.2515 0.8919
O10_4 O 0.17600(12) 0.4802(4) 0.9080(2)
O11_4 O 0.59639(10) 0.1515(4) 0.9632(2)
C23_4 C 0.51479(18) 0.0889(8) 0.9529(4)
H11_4 H 0.5247 0.1511 0.9197
C24_4 C 0.47492(19) 0.0583(8) 0.9473(4)
H12_4 H 0.4582 0.0991 0.9109
O14_4 O 0.65948(9) 0.3195(3) 0.89938(16)
C25_4 C 0.68595(13) 0.6229(5) 0.5931(2)
C26_4 C 0.69035(13) 0.4159(5) 0.7995(2)
C27_4 C 0.69291(13) 0.3423(5) 0.8723(2)
C28_4 C 0.65524(14) 0.4678(5) 0.7698(3)
H13_4 H 0.6319 0.4587 0.7950
C29_4 C 0.68737(13) 0.5486(5) 0.6639(2)
C30_4 C 0.72307(13) 0.4947(5) 0.6935(2)
H14_4 H 0.7463 0.5022 0.6678
C31_4 C 0.65367(14) 0.5339(6) 0.7028(3)
H15_4 H 0.6292 0.5692 0.6837
C32_4 C 0.72448(14) 0.4299(5) 0.7608(3)
H16_4 H 0.7489 0.3950 0.7805
O1_4 O 0.27348(9) 0.6887(3) 0.10109(15)
O2_4 O 0.34052(9) 0.6805(3) 0.10062(16)
C1_4 C 0.31405(13) 0.3771(5) 0.4069(2)
O6_4 O 0.40361(10) 0.8485(4) 0.0368(2)
C4_4 C 0.30965(13) 0.5841(5) 0.2005(2)
C6_4 C 0.30709(13) 0.6577(5) 0.1277(2)
C7_4 C 0.34476(14) 0.5322(5) 0.2302(3)
H2_4 H 0.3681 0.5413 0.2050
C8_4 C 0.31263(13) 0.4514(5) 0.3361(2)
C10_4 C 0.27693(13) 0.5053(5) 0.3065(2)
H4_4 H 0.2537 0.4978 0.3322
C11_4 C 0.34633(14) 0.4661(6) 0.2972(3)
H5_4 H 0.3708 0.4308 0.3163
C12_4 C 0.27552(14) 0.5701(5) 0.2392(3)
H6_4 H 0.2511 0.6050 0.2195
C15_4 C 0.48521(18) 0.9111(8) 0.0471(4)
H7_4 H 0.4753 0.8489 0.0803
C16_4 C 0.52508(19) 0.9417(8) 0.0527(4)
H8_4 H 0.5418 0.9009 0.0891
O4_4 O 0.29774(8) 0.9125(3) 0.99482(17)
O8_4 O 0.39210(12) 0.9825(6) 0.9404(3)
C13_4 C 0.45919(16) 0.9669(7) 0.9956(3)
C14_4 C 0.41513(17) 0.9291(7) 0.9897(4)
loop_
_geom_bond_atom_site_label_1
_geom_bond_atom_site_label_2
_geom_bond_site_symmetry_1
_geom_bond_site_symmetry_2
Zn6 O9 1_555 1_555
Zn7 O9 1_555 1_555
Zn1 O2 1_555 1_555
Zn7 O1 1_555 1_555
O1 C6 1_555 1_555
O2 C6 1_555 1_555
O4 Zn1 1_555 1_555
O6 Zn1 1_555 1_555
C2 C3 1_555 1_555
C3 H1 1_555 1_555
C4 C6 1_555 1_555
C5 O4 1_555 1_555
C7 C4 1_555 1_555
H2 C7 1_555 1_555
C9 C2 1_555 1_555
H3 C9 1_555 1_555
O7 C5 1_555 1_555
C12 C4 1_555 1_555
H6 C12 1_555 1_555
O8 C14 1_555 1_555
C13 C14 1_555 1_555
C14 O6 1_555 1_555
C15 C13 1_555 1_555
H7 C15 1_555 1_555
C17 C18 1_555 1_555
C18 C9 1_555 1_555
H9 C18 1_555 1_555
C19 C17 1_555 1_555
C20 C3 1_555 1_555
H10 C20 1_555 1_555
O10 C19 1_555 1_555
C24 C13 1_555 1_555
H12 C24 1_555 1_555
O17 Zn7 1_555 1_555
O19 Zn1 1_555 1_555
O22 Zn7 1_555 1_555
O23 Zn7 1_555 1_555
Zn7 O4 1_555 1_555
C2 C5 1_555 1_555
C10 C12 1_555 1_555
C17 C20 1_555 1_555
O3 C1 1_555 1_555
O5 C1 1_555 1_555
C1 C8 1_555 1_555
H5 C11 1_555 1_555
Zn10 O5 1_555 1_555
C8 C11 1_555 1_555
O15 C25 1_555 1_555
O16 C25 1_555 1_555
C25 C29 1_555 1_555
H15 C31 1_555 1_555
Zn8_2 O16 1_555 1_555
C29 C31 1_555 1_555
H8 C16 1_555 1_555
O11 C22 1_555 1_555
O12 C22 1_555 1_555
C21 C16 1_555 1_555
C22 C21 1_555 1_555
C23 C21 1_555 1_555
H11 C23 1_555 1_555
Zn3 O11 1_555 1_555
O13 C27 1_555 1_555
O14 Zn3 1_555 1_555
C26 C27 1_555 1_555
C27 O14 1_555 1_555
C28 C26 1_555 1_555
H13 C28 1_555 1_555
C32 C26 1_555 1_555
H16 C32 1_555 1_555
Zn9 O13 1_555 1_555
O18 Zn3 1_555 1_555
O20 Zn3 1_555 1_555
C30 C32 1_555 1_555
Zn9 O20 1_555 1_555
O19 C25_2 1_555 1_555
O23 C25_2 1_555 1_555
C25_2 C29_2 1_555 1_555
H15_2 C31_2 1_555 1_555
C29_2 C31_2 1_555 1_555
H8_2 C16_2 1_555 1_555
O12_2 C22_2 1_555 1_555
C21_2 C16_2 1_555 1_555
C22_2 C21_2 1_555 1_555
Zn10 O20_2 1_555 1_555
H11_2 C23_2 1_555 1_555
Zn5 O11_2 1_555 1_555
O13_2 C27_2 1_555 1_555
O14_2 Zn5 1_555 1_555
C26_2 C27_2 1_555 1_555
C27_2 O14_2 1_555 1_555
C28_2 C26_2 1_555 1_555
H13_2 C28_2 1_555 1_555
C32_2 C26_2 1_555 1_555
H16_2 C32_2 1_555 1_555
Zn10_2 O13_2 1_555 1_555
C30_2 C32_2 1_555 1_555
Zn8 O9_2 1_555 1_555
Zn4 O2_2 1_555 1_555
Zn8 O1_2 1_555 1_555
O1_2 C6_2 1_555 1_555
O2_2 C6_2 1_555 1_555
O6_2 Zn4 1_555 1_555
C4_2 C6_2 1_555 1_555
C7_2 C4_2 1_555 1_555
H2_2 C7_2 1_555 1_555
C9_2 C2_2 1_555 1_555
H3_2 C9_2 1_555 1_555
O7_2 C5_2 1_555 1_555
C12_2 C4_2 1_555 1_555
H6_2 C12_2 1_555 1_555
H7_2 C15_2 1_555 1_555
C18_2 C9_2 1_555 1_555
H9_2 C18_2 1_555 1_555
O22_2 Zn8 1_555 1_555
C2_2 C5_2 1_555 1_555
C10_2 C12_2 1_555 1_555
C3_2 H1_2 1_555 1_555
O8_2 C14_2 1_555 1_555
C13_2 C14_2 1_555 1_555
C19_2 C17_2 1_555 1_555
C20_2 C3_2 1_555 1_555
H10_2 C20_2 1_555 1_555
O10_2 C19_2 1_555 1_555
C24_2 C13_2 1_555 1_555
H12_2 C24_2 1_555 1_555
O17_2 Zn8_2 1_555 1_555
Zn8_2 O4_2 1_555 1_555
C17_2 C20_2 1_555 1_555
O18 C1_2 1_555 1_555
O5_2 C1_2 1_555 1_555
C1_2 C8_2 1_555 1_555
H5_2 C11_2 1_555 1_555
Zn9 O5_2 1_555 1_555
C8_2 C11_2 1_555 1_555
C2_3 C3_3 1_555 1_555
C3_3 H1_3 1_555 1_555
C9_3 C2_3 1_555 1_555
H3_3 C9_3 1_555 1_555
O7_3 C5_3 1_555 1_555
O20 C19_3 1_555 1_555
C17_3 C18_3 1_555 1_555
C18_3 C9_3 1_555 1_555
H9_3 C18_3 1_555 1_555
C19_3 C17_3 1_555 1_555
C20_3 C3_3 1_555 1_555
H10_3 C20_3 1_555 1_555
O10_3 C19_3 1_555 1_555
O11_3 C22_3 1_555 1_555
O12_3 C22_3 1_555 1_555
C22_3 C21_3 1_555 1_555
C23_3 C21_3 1_555 1_555
H11_3 C23_3 1_555 1_555
H12_3 C24_3 1_555 1_555
Zn6 O11_3 1_555 1_555
O17 C27_3 1_555 1_555
O14_3 Zn6 1_555 1_555
O15_2 C25_3 1_555 1_555
O16_2 C25_3 1_555 1_555
C25_3 C29_3 1_555 1_555
C26_3 C27_3 1_555 1_555
C27_3 O14_3 1_555 1_555
C28_3 C26_3 1_555 1_555
H13_3 C28_3 1_555 1_555
C29_3 C30_3 1_555 1_555
C30_3 H14_3 1_555 1_555
C31_3 C28_3 1_555 1_555
H15_3 C31_3 1_555 1_555
C32_3 C26_3 1_555 1_555
H16_3 C32_3 1_555 1_555
Zn10_2 O16_2 1_555 1_555
O18_2 Zn6 1_555 1_555
C2_3 C5_3 1_555 1_555
C17_3 C20_3 1_555 1_555
C23_3 C24_3 1_555 1_555
C29_3 C31_3 1_555 1_555
C30_3 C32_3 1_555 1_555
Zn1_2 O2_3 1_555 1_555
Zn9 O1_3 1_555 1_555
O1_3 C6_3 1_555 1_555
O2_3 C6_3 1_555 1_555
O3_2 C1_3 1_555 1_555
O4_3 Zn1_2 1_555 1_555
O22_2 C1_3 1_555 1_555
C1_3 C8_3 1_555 1_555
O6_3 Zn1_2 1_555 1_555
C4_3 C6_3 1_555 1_555
C7_3 C4_3 1_555 1_555
H2_3 C7_3 1_555 1_555
C8_3 C10_3 1_555 1_555
C10_3 H4_3 1_555 1_555
C11_3 C7_3 1_555 1_555
H5_3 C11_3 1_555 1_555
C12_3 C4_3 1_555 1_555
H6_3 C12_3 1_555 1_555
O8_3 C14_3 1_555 1_555
C13_3 C14_3 1_555 1_555
C14_3 O6_3 1_555 1_555
C15_3 C13_3 1_555 1_555
H7_3 C15_3 1_555 1_555
C16_3 C15_3 1_555 1_555
H8_3 C16_3 1_555 1_555
O19_2 Zn1_2 1_555 1_555
O23_2 Zn9 1_555 1_555
Zn9 O4_3 1_555 1_555
C8_3 C11_3 1_555 1_555
C10_3 C12_3 1_555 1_555
C9_4 C2_4 1_555 1_555
H3_4 C9_4 1_555 1_555
O7_4 C5_4 1_555 1_555
C18_4 C9_4 1_555 1_555
H9_4 C18_4 1_555 1_555
O12_4 C22_4 1_555 1_555
C22_4 C21_4 1_555 1_555
C2_4 C5_4 1_555 1_555
C3_4 H1_4 1_555 1_555
C19_4 C17_4 1_555 1_555
C20_4 C3_4 1_555 1_555
H10_4 C20_4 1_555 1_555
O10_4 C19_4 1_555 1_555
H11_4 C23_4 1_555 1_555
H12_4 C24_4 1_555 1_555
Zn6_2 O11_4 1_555 1_555
O17_2 C27_4 1_555 1_555
O14_4 Zn6_2 1_555 1_555
O19_2 C25_4 1_555 1_555
O23_2 C25_4 1_555 1_555
C25_4 C29_4 1_555 1_555
C26_4 C27_4 1_555 1_555
C27_4 O14_4 1_555 1_555
C28_4 C26_4 1_555 1_555
H13_4 C28_4 1_555 1_555
C29_4 C30_4 1_555 1_555
C30_4 H14_4 1_555 1_555
C31_4 C28_4 1_555 1_555
H15_4 C31_4 1_555 1_555
C32_4 C26_4 1_555 1_555
H16_4 C32_4 1_555 1_555
C17_4 C20_4 1_555 1_555
C23_4 C24_4 1_555 1_555
C29_4 C31_4 1_555 1_555
C30_4 C32_4 1_555 1_555
Zn4_2 O2_4 1_555 1_555
Zn10 O1_4 1_555 1_555
O1_4 C6_4 1_555 1_555
O2_4 C6_4 1_555 1_555
O18_2 C1_4 1_555 1_555
O22 C1_4 1_555 1_555
C1_4 C8_4 1_555 1_555
O6_4 Zn4_2 1_555 1_555
C4_4 C6_4 1_555 1_555
C7_4 C4_4 1_555 1_555
H2_4 C7_4 1_555 1_555
C8_4 C10_4 1_555 1_555
C10_4 H4_4 1_555 1_555
C11_4 C7_4 1_555 1_555
H5_4 C11_4 1_555 1_555
C12_4 C4_4 1_555 1_555
H6_4 C12_4 1_555 1_555
H7_4 C15_4 1_555 1_555
C16_4 C15_4 1_555 1_555
H8_4 C16_4 1_555 1_555
C8_4 C11_4 1_555 1_555
C10_4 C12_4 1_555 1_555
O8_4 C14_4 1_555 1_555
C13_4 C14_4 1_555 1_555
Zn10_2 O4_4 1_555 1_555

#END
