
###############################################################################
#
# This file contains modified crystal structure data generated from the
# MOF subset of the Cambridge Structural Database (CSD) v543 
# hosted by the Cambridge Crystallographic Data Centre (CCDC).
#
# This work is licensed under the Creative Commons
# Attribution-NonCommercial-ShareAlike 4.0 International License.
# To view a copy of this license, visit
# http://creativecommons.org/licenses/by-nc-sa/4.0/
# or send a letter to
# Creative Commons, PO Box 1866, Mountain View, CA 94042, USA.
#
# CIF created using the CSD Python API on 29 September 2022
# The structure has been converted into the P1 space group
# The structure has a 3D framework
# The original CSD entry BAFKUR is in the triclinic crystal system
# The framework has been calculated to contain at least 10.0% void space
# The void calculation uses a probe of radius 1.32A, grid spacing 0.4
#
###############################################################################

data_BAFKUR
_chemical_formula_moiety         '(C50 H36 Co8 N14 O8)n'
_symmetry_cell_setting           triclinic
_symmetry_space_group_name_H-M   'P 1'
_symmetry_Int_Tables_number      1
_space_group_name_Hall           'P 1'
loop_
_symmetry_equiv_pos_site_id
_symmetry_equiv_pos_as_xyz
1 x,y,z
_cell_length_a                   9.666(5)
_cell_length_b                   11.358(5)
_cell_length_c                   13.671(5)
_cell_angle_alpha                69.701(5)
_cell_angle_beta                 70.792(5)
_cell_angle_gamma                81.668(5)
_cell_volume                     1328.51
loop_
_atom_site_label
_atom_site_type_symbol
_atom_site_fract_x
_atom_site_fract_y
_atom_site_fract_z
C36 C 0.0848(5) 0.0287(4) 0.3923(3)
H27 H 0.1409 0.0484 0.3193
Co6 Co 0.0000 0.0000 0.0000
Co6_2 Co 0.0000 -0.0000 1.0000
C25 C 0.0384(4) 0.8973(4) 0.5771(3)
H18 H 0.0632 0.8276 0.6297
N10 N 0.2512(3) 0.8507(2) 0.4374(2)
N11 N 0.4063(3) 0.6872(2) 0.44595(19)
C32 C 0.1243(3) 0.9263(3) 0.4694(2)
C33 C 0.4542(3) 0.7777(3) 0.3452(2)
H24 H 0.5384 0.7703 0.2895
C34 C 0.3603(3) 0.8786(3) 0.3397(3)
H25 H 0.3683 0.9525 0.2810
C35 C 0.2845(3) 0.7339(3) 0.4989(2)
H26 H 0.2280 0.6924 0.5695
Co5 Co 0.5000 0.5000 0.5000
Co6_3 Co 0.0000 1.0000 0.0000
Co6_4 Co 0.0000 1.0000 1.0000
O1 O 0.3004(2) 0.42392(19) 0.61810(16)
O2 O 0.1587(2) 0.1163(2) 0.97996(16)
N3 N 0.7488(3) 0.1493(2) 0.5626(2)
O3 O 0.2795(3) 0.2874(2) 0.86748(19)
C1 C 0.0658(3) 0.2474(3) 0.8370(2)
N4 N 0.4178(3) 0.4588(2) 0.22551(19)
C2 C 0.0746(3) 0.3514(3) 0.7434(2)
N5 N 0.5937(3) 0.3128(2) 0.55405(19)
C3 C 0.1784(3) 0.2169(3) 0.8986(2)
C4 C 0.8757(3) 0.0737(3) 0.5306(2)
N6 N 0.4266(3) 0.4602(2) 0.38416(19)
O4 O 0.1747(3) 0.5400(2) 0.7233(2)
C6 C 0.4925(4) 0.4948(3) 0.2777(2)
H1 H 0.5790 0.5384 0.2431
C7 C 0.5458(3) 0.2223(3) 0.6548(2)
H2 H 0.4616 0.2297 0.7105
C8 C 0.1949(3) 0.4460(3) 0.6926(2)
C9 C 0.2960(4) 0.3988(3) 0.3032(3)
H3 H 0.2238 0.3641 0.2915
C10 C 0.4595(4) 0.4807(3) 0.1105(2)
C11 C 0.6397(3) 0.1214(3) 0.6603(3)
H4 H 0.6317 0.0475 0.7190
C12 C 0.3024(3) 0.4006(3) 0.4009(2)
H5 H 0.2336 0.3668 0.4684
H6 H 0.2380 0.0826 0.7483
C16 C 0.7155(3) 0.2661(3) 0.5011(2)
H9 H 0.7720 0.3076 0.4305
C21 C 0.4825(4) 0.1155(3) 0.4268(3)
H14 H 0.4703 0.1939 0.3777
C22 C 0.3827(4) 0.0777(3) 0.5302(3)
H15 H 0.3035 0.1305 0.5502
C24 C 0.6067(4) 0.4824(4) 0.0520(3)
H17 H 0.6777 0.4711 0.0870
N8 N 0.7010(3) 0.0775(2) 0.2895(2)
C26 C 0.5995(3) 0.0379(3) 0.3966(2)
N9 N 0.8543(3) 0.0676(3) 0.1315(2)
C27 C 0.7713(4) 0.0039(3) 0.2282(3)
C28 C 0.7449(4) 0.1978(3) 0.2277(3)
H20 H 0.7162 0.2699 0.2480
C29 C 0.8380(4) 0.1902(3) 0.1317(3)
H21 H 0.8847 0.2580 0.0739
C37 C 0.9616(4) 0.1027(4) 0.4229(3)
H28 H 0.9368 0.1724 0.3703
C42 C 0.3529(4) 0.4986(4) 0.0595(3)
H32 H 0.2543 0.4980 0.0997
Co6_5 Co 1.0000 0.0000 0.0000
O9 O 0.6996(2) 0.57608(19) 0.38190(16)
N16 N 0.5734(3) 0.5398(2) 0.61584(19)
C23 C 0.6471(4) 0.5014(4) 0.9405(3)
H16 H 0.7457 0.5020 0.9003
N12 N 0.5822(3) 0.5412(2) 0.77449(19)
C38 C 0.5075(4) 0.5052(3) 0.7223(2)
H29 H 0.4210 0.4616 0.7569
C39 C 0.7040(4) 0.6012(3) 0.6968(3)
H30 H 0.7762 0.6359 0.7085
C40 C 0.5405(4) 0.5193(3) 0.8895(2)
C41 C 0.6976(3) 0.5994(3) 0.5991(2)
H31 H 0.7664 0.6332 0.5316
C43 C 0.3933(4) 0.5176(4) 0.9480(3)
H33 H 0.3223 0.5289 0.9130
Co6_6 Co 1.0000 -0.0000 1.0000
N14 N 0.0413(3) 0.8356(2) 0.12265(19)
C48 C 0.0333(4) 0.6318(3) 0.3071(3)
H34 H 0.0297 0.5647 0.3707
C49 C 0.1462(4) 0.8166(3) 0.1711(3)
H35 H 0.2210 0.8734 0.1422
C50 C 0.1460(4) 0.7146(4) 0.2631(3)
H36 H 0.2208 0.7019 0.2949
N2 N 0.2990(3) 0.9225(2) 0.7105(2)
C5 C 0.4005(3) 0.9621(3) 0.6034(2)
N7 N 0.1457(3) 0.9324(3) 0.8685(2)
C13 C 0.2287(4) 0.9961(3) 0.7718(3)
C14 C 0.2551(4) 0.8022(3) 0.7723(3)
H7 H 0.2838 0.7301 0.7520
C17 C 0.1620(4) 0.8098(3) 0.8683(3)
H10 H 0.1153 0.7420 0.9261
C20 C 0.9152(5) 0.9713(4) 0.6077(3)
H13 H 0.8591 0.9516 0.6807
H19 H 0.7620 0.9174 0.2517
C30 C 0.5175(4) 0.8845(3) 0.5732(3)
H22 H 0.5297 0.8061 0.6223
C31 C 0.6173(4) 0.9223(3) 0.4698(3)
H23 H 0.6965 0.8695 0.4498
Co6_7 Co 1.0000 1.0000 0.0000
Co6_8 Co 1.0000 1.0000 1.0000
N1 N 0.9587(3) 0.1644(2) 0.87735(19)
C15 C 0.9667(4) 0.3682(3) 0.6929(3)
H8 H 0.9703 0.4353 0.6293
C18 C 0.8538(4) 0.1834(3) 0.8289(3)
H11 H 0.7790 0.1266 0.8578
C19 C 0.8540(4) 0.2854(4) 0.7369(3)
H12 H 0.7792 0.2981 0.7051
O6 O 0.8413(2) 0.8837(2) 0.02004(16)
O7 O 0.7205(3) 0.7126(2) 0.13252(19)
C44 C 0.9342(3) 0.7526(3) 0.1630(2)
C45 C 0.9254(3) 0.6486(3) 0.2566(2)
C46 C 0.8216(3) 0.7831(3) 0.1014(2)
O8 O 0.8253(3) 0.4600(2) 0.2767(2)
C47 C 0.8051(3) 0.5540(3) 0.3074(2)
loop_
_geom_bond_atom_site_label_1
_geom_bond_atom_site_label_2
_geom_bond_site_symmetry_1
_geom_bond_site_symmetry_2
H27 C36 1_555 1_555
H18 C25 1_555 1_555
N10 C32 1_555 1_555
N11 C33 1_555 1_555
C32 C25 1_555 1_555
C33 H24 1_555 1_555
C34 N10 1_555 1_555
H25 C34 1_555 1_555
C35 N10 1_555 1_555
H26 C35 1_555 1_555
Co5 N11 1_555 1_555
N11 C35 1_555 1_555
C33 C34 1_555 1_555
Co5 O1 1_555 1_555
Co6_2 O2 1_555 1_555
O1 C8 1_555 1_555
O2 C3 1_555 1_555
N3 C4 1_555 1_555
O3 C3 1_555 1_555
N4 C6 1_555 1_555
C2 C1 1_555 1_555
N5 Co5 1_555 1_555
C3 C1 1_555 1_555
N6 Co5 1_555 1_555
O4 C8 1_555 1_555
C6 N6 1_555 1_555
H1 C6 1_555 1_555
C7 N5 1_555 1_555
H2 C7 1_555 1_555
C8 C2 1_555 1_555
C9 N4 1_555 1_555
H3 C9 1_555 1_555
C10 N4 1_555 1_555
C11 N3 1_555 1_555
H4 C11 1_555 1_555
C12 N6 1_555 1_555
H5 C12 1_555 1_555
C16 N3 1_555 1_555
H9 C16 1_555 1_555
C21 H14 1_555 1_555
C22 C21 1_555 1_555
H15 C22 1_555 1_555
C24 C10 1_555 1_555
H17 C24 1_555 1_555
N8 C26 1_555 1_555
C26 C21 1_555 1_555
N9 C27 1_555 1_555
C27 N8 1_555 1_555
C28 N8 1_555 1_555
H20 C28 1_555 1_555
C29 N9 1_555 1_555
H21 C29 1_555 1_555
C37 C4 1_555 1_555
H28 C37 1_555 1_555
C42 C10 1_555 1_555
H32 C42 1_555 1_555
Co6_5 N9 1_555 1_555
O9 Co5 1_555 1_555
N16 Co5 1_555 1_555
N5 C16 1_555 1_555
C7 C11 1_555 1_555
C9 C12 1_555 1_555
C28 C29 1_555 1_555
C23 H16 1_555 1_555
N12 C38 1_555 1_555
N16 C38 1_555 1_555
C38 H29 1_555 1_555
C39 N12 1_555 1_555
H30 C39 1_555 1_555
C40 C23 1_555 1_555
C41 N16 1_555 1_555
H31 C41 1_555 1_555
C43 C40 1_555 1_555
H33 C43 1_555 1_555
N12 C40 1_555 1_555
C39 C41 1_555 1_555
N14 Co6_3 1_555 1_555
H34 C48 1_555 1_555
C49 N14 1_555 1_555
H35 C49 1_555 1_555
C50 C48 1_555 1_555
H36 C50 1_555 1_555
C49 C50 1_555 1_555
N2 C5 1_555 1_555
N7 Co6_4 1_555 1_555
C13 N2 1_555 1_555
C14 N2 1_555 1_555
H7 C14 1_555 1_555
C17 N7 1_555 1_555
H10 C17 1_555 1_555
C20 H13 1_555 1_555
C30 C5 1_555 1_555
H22 C30 1_555 1_555
H23 C31 1_555 1_555
N7 C13 1_555 1_555
C14 C17 1_555 1_555
C30 C31 1_555 1_555
N1 Co6_6 1_555 1_555
H8 C15 1_555 1_555
C18 N1 1_555 1_555
H11 C18 1_555 1_555
C19 C15 1_555 1_555
H12 C19 1_555 1_555
C18 C19 1_555 1_555
O9 C47 1_555 1_555
O6 Co6_7 1_555 1_555
O7 C46 1_555 1_555
C45 C44 1_555 1_555
C46 O6 1_555 1_555
O8 C47 1_555 1_555
C47 C45 1_555 1_555
C44 C46 1_555 1_555

#END
