
###############################################################################
#
# This file contains modified crystal structure data generated from the
# MOF subset of the Cambridge Structural Database (CSD) v543 
# hosted by the Cambridge Crystallographic Data Centre (CCDC).
#
# This work is licensed under the Creative Commons
# Attribution-NonCommercial-ShareAlike 4.0 International License.
# To view a copy of this license, visit
# http://creativecommons.org/licenses/by-nc-sa/4.0/
# or send a letter to
# Creative Commons, PO Box 1866, Mountain View, CA 94042, USA.
#
# CIF created using the CSD Python API on 29 September 2022
# The structure has been converted into the P1 space group
# The structure has a 3D framework
# The original CSD entry BAFVOX is in the tetragonal crystal system
# The framework has been calculated to contain at least 10.0% void space
# The void calculation uses a probe of radius 1.32A, grid spacing 0.4
#
###############################################################################

data_BAFVOX
_chemical_formula_moiety         '(C144 H128 N16 O64 Se16 Zn16)n'
_symmetry_cell_setting           triclinic
_symmetry_space_group_name_H-M   'P 1'
_symmetry_Int_Tables_number      1
_space_group_name_Hall           'P 1'
loop_
_symmetry_equiv_pos_site_id
_symmetry_equiv_pos_as_xyz
1 x,y,z
_cell_length_a                   20.59224(17)
_cell_length_b                   20.59224(17)
_cell_length_c                   19.1260(2)
_cell_angle_alpha                90
_cell_angle_beta                 90
_cell_angle_gamma                90
_cell_volume                     8110.2
loop_
_atom_site_label
_atom_site_type_symbol
_atom_site_fract_x
_atom_site_fract_y
_atom_site_fract_z
Zn1 Zn 0.26410(2) 0.27243(2) 0.67980(2)
Zn2 Zn 0.23749(2) 0.24941(2) 0.83225(2)
O1 O 0.35274(10) 0.23567(12) 0.70499(12)
O2 O 0.33281(10) 0.22344(12) 0.81949(12)
C1 C 0.36924(15) 0.22422(16) 0.76723(16)
C2 C 0.43913(15) 0.21195(16) 0.78012(16)
C3 C 0.46823(16) 0.19946(17) 0.84255(17)
H1 H 0.444409 0.195088 0.884827
C4 C 0.53665(16) 0.19348(16) 0.83981(17)
H2 H 0.562442 0.184701 0.879894
C5 C 0.56239(15) 0.20142(16) 0.77451(16)
C6 C 0.63236(15) 0.20571(16) 0.75707(16)
Se1 Se 0.49917(2) 0.21780(2) 0.70753(2)
O3 O 0.67168(10) 0.19186(11) 0.80460(11)
O4 O 0.64622(10) 0.22381(12) 0.69564(11)
O5 O 0.29553(11) 0.36141(10) 0.70768(13)
O6 O 0.26763(12) 0.34383(10) 0.81966(12)
C7 C 0.28419(16) 0.37953(15) 0.76967(16)
C8 C 0.28974(16) 0.44994(15) 0.78389(17)
C9 C 0.28816(18) 0.48026(16) 0.84717(16)
H3 H 0.287336 0.457354 0.890276
C10 C 0.28784(18) 0.54873(16) 0.84308(17)
H4 H 0.286410 0.575650 0.883391
C11 C 0.28973(16) 0.57318(15) 0.77724(16)
C12 C 0.28338(16) 0.64219(16) 0.75642(17)
Se2 Se 0.29295(2) 0.50816(2) 0.70985(2)
O7 O 0.27504(12) 0.68209(10) 0.80513(11)
O8 O 0.28514(12) 0.65531(10) 0.69213(12)
N1 N 0.26269(12) 0.27176(12) 0.57316(12)
C13 C 0.31565(17) 0.23169(18) 0.54448(16)
H5 H 0.309551 0.185921 0.558893
H6 H 0.357763 0.246912 0.563323
C14 C 0.31643(18) 0.2361(2) 0.46439(17)
H7 H 0.354653 0.261525 0.449020
H8 H 0.319959 0.191964 0.444197
C15 C 0.26854(19) 0.33829(15) 0.54326(16)
H9 H 0.312535 0.355698 0.552419
H10 H 0.236498 0.367503 0.565613
C16 C 0.2562(2) 0.33543(17) 0.46392(16)
H11 H 0.213853 0.355851 0.453189
H12 H 0.290458 0.360176 0.439219
C17 C 0.19888(16) 0.24444(19) 0.54989(16)
H13 H 0.163442 0.274746 0.562482
H14 H 0.190787 0.202574 0.573799
C18 C 0.19974(18) 0.2341(2) 0.47076(17)
H15 H 0.202248 0.187014 0.460453
H16 H 0.159033 0.251046 0.450173
N2 N 0.25611(12) 0.26770(12) 0.43894(11)
Zn3 Zn 0.23590(2) 0.77243(2) 0.82020(2)
Zn4 Zn 0.76410(2) 0.22757(2) 0.82020(2)
Zn5 Zn 0.26251(2) 0.74941(2) 0.66775(2)
Zn6 Zn 0.73749(2) 0.25059(2) 0.66775(2)
Zn7 Zn 0.25059(2) 0.26251(2) 0.33225(2)
O9 O 0.17168(10) 0.30814(11) 0.69540(11)
O10 O 0.14622(10) 0.27619(12) 0.80436(11)
O11 O 0.22496(12) 0.18209(10) 0.69487(11)
O12 O 0.21486(12) 0.15531(10) 0.80787(12)
N3 N 0.23230(12) 0.24389(12) 0.93894(11)
Zn1_2 Zn 0.73590(2) 0.72757(2) 0.67980(2)
Zn2_2 Zn 0.76251(2) 0.75059(2) 0.83225(2)
O1_2 O 0.64726(10) 0.76433(12) 0.70499(12)
O2_2 O 0.66719(10) 0.77656(12) 0.81949(12)
C1_2 C 0.63076(15) 0.77578(16) 0.76723(16)
C2_2 C 0.56087(15) 0.78805(16) 0.78012(16)
C3_2 C 0.53177(16) 0.80054(17) 0.84255(17)
H1_2 H 0.555591 0.804912 0.884827
C4_2 C 0.46335(16) 0.80652(16) 0.83981(17)
H2_2 H 0.437558 0.815299 0.879894
C5_2 C 0.43761(15) 0.79858(16) 0.77451(16)
C6_2 C 0.36764(15) 0.79429(16) 0.75707(16)
Se1_2 Se 0.50083(2) 0.78220(2) 0.70753(2)
O3_2 O 0.32832(10) 0.80814(11) 0.80460(11)
O4_2 O 0.35378(10) 0.77619(12) 0.69564(11)
O5_2 O 0.70447(11) 0.63859(10) 0.70768(13)
O6_2 O 0.73237(12) 0.65617(10) 0.81966(12)
C7_2 C 0.71581(16) 0.62047(15) 0.76967(16)
C8_2 C 0.71026(16) 0.55006(15) 0.78389(17)
C9_2 C 0.71184(18) 0.51974(16) 0.84717(16)
H3_2 H 0.712664 0.542646 0.890276
C10_2 C 0.71216(18) 0.45127(16) 0.84308(17)
H4_2 H 0.713590 0.424350 0.883391
C11_2 C 0.71027(16) 0.42682(15) 0.77724(16)
C12_2 C 0.71662(16) 0.35781(16) 0.75642(17)
Se2_2 Se 0.70705(2) 0.49184(2) 0.70985(2)
O7_2 O 0.72496(12) 0.31791(10) 0.80513(11)
O8_2 O 0.71486(12) 0.34469(10) 0.69213(12)
N1_2 N 0.73731(12) 0.72824(12) 0.57316(12)
C13_2 C 0.68435(17) 0.76831(18) 0.54448(16)
H5_2 H 0.690449 0.814079 0.558893
H6_2 H 0.642237 0.753088 0.563323
C14_2 C 0.68357(18) 0.7639(2) 0.46439(17)
H7_2 H 0.645347 0.738475 0.449020
H8_2 H 0.680041 0.808036 0.444197
C15_2 C 0.73146(19) 0.66171(15) 0.54326(16)
H9_2 H 0.687465 0.644302 0.552419
H10_2 H 0.763502 0.632497 0.565613
C16_2 C 0.7438(2) 0.66457(17) 0.46392(16)
H11_2 H 0.786147 0.644149 0.453189
H12_2 H 0.709542 0.639824 0.439219
C17_2 C 0.80112(16) 0.75556(19) 0.54989(16)
H13_2 H 0.836558 0.725254 0.562482
H14_2 H 0.809213 0.797426 0.573799
C18_2 C 0.80026(18) 0.7659(2) 0.47076(17)
H15_2 H 0.797752 0.812986 0.460453
H16_2 H 0.840967 0.748954 0.450173
N2_2 N 0.74389(12) 0.73230(12) 0.43894(11)
Zn7_2 Zn 0.74941(2) 0.73749(2) 0.33225(2)
O9_2 O 0.82832(10) 0.69186(11) 0.69540(11)
O10_2 O 0.85378(10) 0.72381(12) 0.80436(11)
O11_2 O 0.77504(12) 0.81791(10) 0.69487(11)
O12_2 O 0.78514(12) 0.84469(10) 0.80787(12)
N3_2 N 0.76770(12) 0.75611(12) 0.93894(11)
Zn1_3 Zn 0.27243(2) 0.73590(2) 0.32020(2)
Zn2_3 Zn 0.24941(2) 0.76251(2) 0.16775(2)
O1_3 O 0.23567(12) 0.64726(10) 0.29501(12)
O2_3 O 0.22344(12) 0.66719(10) 0.18051(12)
C1_3 C 0.22422(16) 0.63076(15) 0.23277(16)
C2_3 C 0.21195(16) 0.56087(15) 0.21988(16)
C3_3 C 0.19946(17) 0.53177(16) 0.15745(17)
H1_3 H 0.195088 0.555591 0.115173
C4_3 C 0.19348(16) 0.46335(16) 0.16019(17)
H2_3 H 0.184701 0.437558 0.120106
C5_3 C 0.20142(16) 0.43761(15) 0.22549(16)
C6_3 C 0.20571(16) 0.36764(15) 0.24293(16)
Se1_3 Se 0.21780(2) 0.50083(2) 0.29247(2)
O3_3 O 0.19186(11) 0.32832(10) 0.19540(11)
O4_3 O 0.22381(12) 0.35378(10) 0.30436(11)
O5_3 O 0.36141(10) 0.70447(11) 0.29232(13)
O6_3 O 0.34383(10) 0.73237(12) 0.18034(12)
C7_3 C 0.37953(15) 0.71581(16) 0.23033(16)
C8_3 C 0.44994(15) 0.71026(16) 0.21611(17)
C9_3 C 0.48026(16) 0.71184(18) 0.15283(16)
H3_3 H 0.457354 0.712664 0.109724
C10_3 C 0.54873(16) 0.71216(18) 0.15692(17)
H4_3 H 0.575650 0.713590 0.116609
C11_3 C 0.57318(15) 0.71027(16) 0.22276(16)
C12_3 C 0.64219(16) 0.71662(16) 0.24358(17)
Se2_3 Se 0.50816(2) 0.70705(2) 0.29015(2)
O7_3 O 0.68209(10) 0.72496(12) 0.19487(11)
O8_3 O 0.65531(10) 0.71486(12) 0.30787(12)
N1_3 N 0.27176(12) 0.73731(12) 0.42684(12)
C13_3 C 0.23169(18) 0.68435(17) 0.45552(16)
H5_3 H 0.185921 0.690449 0.441107
H6_3 H 0.246912 0.642237 0.436677
C14_3 C 0.2361(2) 0.68357(18) 0.53561(17)
H7_3 H 0.261525 0.645347 0.550980
H8_3 H 0.191964 0.680041 0.555803
C15_3 C 0.33829(15) 0.73146(19) 0.45674(16)
H9_3 H 0.355698 0.687465 0.447581
H10_3 H 0.367503 0.763502 0.434387
C16_3 C 0.33543(17) 0.7438(2) 0.53608(16)
H11_3 H 0.355851 0.786147 0.546811
H12_3 H 0.360176 0.709542 0.560781
C17_3 C 0.24444(19) 0.80112(16) 0.45011(16)
H13_3 H 0.274746 0.836558 0.437518
H14_3 H 0.202574 0.809213 0.426201
C18_3 C 0.2341(2) 0.80026(18) 0.52924(17)
H15_3 H 0.187014 0.797752 0.539547
H16_3 H 0.251046 0.840967 0.549827
N2_3 N 0.26770(12) 0.74389(12) 0.56106(11)
Zn3_2 Zn 0.77243(2) 0.76410(2) 0.17980(2)
Zn4_2 Zn 0.22757(2) 0.23590(2) 0.17980(2)
O9_3 O 0.30814(11) 0.82832(10) 0.30460(11)
O10_3 O 0.27619(12) 0.85378(10) 0.19564(11)
O11_3 O 0.18209(10) 0.77504(12) 0.30513(11)
O12_3 O 0.15531(10) 0.78514(12) 0.19213(12)
N3_3 N 0.24389(12) 0.76770(12) 0.06106(11)
Zn1_4 Zn 0.72757(2) 0.26410(2) 0.32020(2)
Zn2_4 Zn 0.75059(2) 0.23749(2) 0.16775(2)
O1_4 O 0.76433(12) 0.35274(10) 0.29501(12)
O2_4 O 0.77656(12) 0.33281(10) 0.18051(12)
C1_4 C 0.77578(16) 0.36924(15) 0.23277(16)
C2_4 C 0.78805(16) 0.43913(15) 0.21988(16)
C3_4 C 0.80054(17) 0.46823(16) 0.15745(17)
H1_4 H 0.804912 0.444409 0.115173
C4_4 C 0.80652(16) 0.53665(16) 0.16019(17)
H2_4 H 0.815299 0.562442 0.120106
C5_4 C 0.79858(16) 0.56239(15) 0.22549(16)
C6_4 C 0.79429(16) 0.63236(15) 0.24293(16)
Se1_4 Se 0.78220(2) 0.49917(2) 0.29247(2)
O3_4 O 0.80814(11) 0.67168(10) 0.19540(11)
O4_4 O 0.77619(12) 0.64622(10) 0.30436(11)
O5_4 O 0.63859(10) 0.29553(11) 0.29232(13)
O6_4 O 0.65617(10) 0.26763(12) 0.18034(12)
C7_4 C 0.62047(15) 0.28419(16) 0.23033(16)
C8_4 C 0.55006(15) 0.28974(16) 0.21611(17)
C9_4 C 0.51974(16) 0.28816(18) 0.15283(16)
H3_4 H 0.542646 0.287336 0.109724
C10_4 C 0.45127(16) 0.28784(18) 0.15692(17)
H4_4 H 0.424350 0.286410 0.116609
C11_4 C 0.42682(15) 0.28973(16) 0.22276(16)
C12_4 C 0.35781(16) 0.28338(16) 0.24358(17)
Se2_4 Se 0.49184(2) 0.29295(2) 0.29015(2)
O7_4 O 0.31791(10) 0.27504(12) 0.19487(11)
O8_4 O 0.34469(10) 0.28514(12) 0.30787(12)
N1_4 N 0.72824(12) 0.26269(12) 0.42684(12)
C13_4 C 0.76831(18) 0.31565(17) 0.45552(16)
H5_4 H 0.814079 0.309551 0.441107
H6_4 H 0.753088 0.357763 0.436677
C14_4 C 0.7639(2) 0.31643(18) 0.53561(17)
H7_4 H 0.738475 0.354653 0.550980
H8_4 H 0.808036 0.319959 0.555803
C15_4 C 0.66171(15) 0.26854(19) 0.45674(16)
H9_4 H 0.644302 0.312535 0.447581
H10_4 H 0.632497 0.236498 0.434387
C16_4 C 0.66457(17) 0.2562(2) 0.53608(16)
H11_4 H 0.644149 0.213853 0.546811
H12_4 H 0.639824 0.290458 0.560781
C17_4 C 0.75556(19) 0.19888(16) 0.45011(16)
H13_4 H 0.725254 0.163442 0.437518
H14_4 H 0.797426 0.190787 0.426201
C18_4 C 0.7659(2) 0.19974(18) 0.52924(17)
H15_4 H 0.812986 0.202248 0.539547
H16_4 H 0.748954 0.159033 0.549827
N2_4 N 0.73230(12) 0.25611(12) 0.56106(11)
O9_4 O 0.69186(11) 0.17168(10) 0.30460(11)
O10_4 O 0.72381(12) 0.14622(10) 0.19564(11)
O11_4 O 0.81791(10) 0.22496(12) 0.30513(11)
O12_4 O 0.84469(10) 0.21486(12) 0.19213(12)
N3_4 N 0.75611(12) 0.23230(12) 0.06106(11)
C10_5 C 0.21216(18) 0.04873(16) 0.65692(17)
H4_5 H 0.213590 0.075650 0.616609
C11_5 C 0.21027(16) 0.07318(15) 0.72276(16)
C12_5 C 0.21662(16) 0.14219(16) 0.74358(17)
Se2_5 Se 0.20705(2) 0.00816(2) 0.79015(2)
C14_5 C 0.18357(18) 0.7361(2) 0.03561(17)
H7_5 H 0.145347 0.761525 0.050980
H8_5 H 0.180041 0.691964 0.055803
C16_5 C 0.2438(2) 0.83543(17) 0.03608(16)
H11_5 H 0.286147 0.855851 0.046811
H12_5 H 0.209542 0.860176 0.060781
C18_5 C 0.30026(18) 0.7341(2) 0.02924(17)
H15_5 H 0.297752 0.687014 0.039547
H16_5 H 0.340967 0.751046 0.049827
O1_5 O 0.14726(10) 0.73567(12) 0.79501(12)
O2_5 O 0.16719(10) 0.72344(12) 0.68051(12)
C1_5 C 0.13076(15) 0.72422(16) 0.73277(16)
C2_5 C 0.06087(15) 0.71195(16) 0.71988(16)
C3_5 C 0.03177(16) 0.69946(17) 0.65745(17)
H1_5 H 0.055591 0.695088 0.615173
Se1_5 Se 0.00083(2) 0.71780(2) 0.79247(2)
O5_5 O 0.20447(11) 0.86141(10) 0.79232(13)
O6_5 O 0.23237(12) 0.84383(10) 0.68034(12)
C7_5 C 0.21581(16) 0.87953(15) 0.73033(16)
C8_5 C 0.21026(16) 0.94994(15) 0.71611(17)
C9_5 C 0.21184(18) 0.98026(16) 0.65283(16)
H3_5 H 0.212664 0.957354 0.609724
N1_5 N 0.23731(12) 0.77176(12) 0.92684(12)
C13_5 C 0.18435(17) 0.73169(18) 0.95552(16)
H5_5 H 0.190449 0.685921 0.941107
H6_5 H 0.142237 0.746912 0.936677
C15_5 C 0.23146(19) 0.83829(15) 0.95674(16)
H9_5 H 0.187465 0.855698 0.947581
H10_5 H 0.263502 0.867503 0.934387
C17_5 C 0.30112(16) 0.74444(19) 0.95011(16)
H13_5 H 0.336558 0.774746 0.937518
H14_5 H 0.309213 0.702574 0.926201
C4_5 C 0.96335(16) 0.69348(16) 0.66019(17)
H2_5 H 0.937558 0.684701 0.620106
C5_5 C 0.93761(15) 0.70142(16) 0.72549(16)
C6_5 C 0.86764(15) 0.70571(16) 0.74293(16)
C4_6 C 0.03665(16) 0.30652(16) 0.66019(17)
H2_6 H 0.062442 0.315299 0.620106
C5_6 C 0.06239(15) 0.29858(16) 0.72549(16)
C6_6 C 0.13236(15) 0.29429(16) 0.74293(16)
C14_6 C 0.81643(18) 0.2639(2) 0.03561(17)
H7_6 H 0.854653 0.238475 0.050980
H8_6 H 0.819959 0.308036 0.055803
C16_6 C 0.7562(2) 0.16457(17) 0.03608(16)
H11_6 H 0.713853 0.144149 0.046811
H12_6 H 0.790458 0.139824 0.060781
C18_6 C 0.69974(18) 0.2659(2) 0.02924(17)
H15_6 H 0.702248 0.312986 0.039547
H16_6 H 0.659033 0.248954 0.049827
O1_6 O 0.85274(10) 0.26433(12) 0.79501(12)
O2_6 O 0.83281(10) 0.27656(12) 0.68051(12)
C1_6 C 0.86924(15) 0.27578(16) 0.73277(16)
C2_6 C 0.93913(15) 0.28805(16) 0.71988(16)
C3_6 C 0.96823(16) 0.30054(17) 0.65745(17)
H1_6 H 0.944409 0.304912 0.615173
Se1_6 Se 0.99917(2) 0.28220(2) 0.79247(2)
O5_6 O 0.79553(11) 0.13859(10) 0.79232(13)
O6_6 O 0.76763(12) 0.15617(10) 0.68034(12)
C7_6 C 0.78419(16) 0.12047(15) 0.73033(16)
C8_6 C 0.78974(16) 0.05006(15) 0.71611(17)
C9_6 C 0.78816(18) 0.01974(16) 0.65283(16)
H3_6 H 0.787336 0.042646 0.609724
N1_6 N 0.76269(12) 0.22824(12) 0.92684(12)
C13_6 C 0.81565(17) 0.26831(18) 0.95552(16)
H5_6 H 0.809551 0.314079 0.941107
H6_6 H 0.857763 0.253088 0.936677
C15_6 C 0.76854(19) 0.16171(15) 0.95674(16)
H9_6 H 0.812535 0.144302 0.947581
H10_6 H 0.736498 0.132497 0.934387
C17_6 C 0.69888(16) 0.25556(19) 0.95011(16)
H13_6 H 0.663442 0.225254 0.937518
H14_6 H 0.690787 0.297426 0.926201
C10_6 C 0.78784(18) 0.95127(16) 0.65692(17)
H4_6 H 0.786410 0.924350 0.616609
C11_6 C 0.78973(16) 0.92682(15) 0.72276(16)
C12_6 C 0.78338(16) 0.85781(16) 0.74358(17)
Se2_6 Se 0.79295(2) 0.99184(2) 0.79015(2)
O1_7 O 0.26433(12) 0.14726(10) 0.20499(12)
O2_7 O 0.27656(12) 0.16719(10) 0.31949(12)
C1_7 C 0.27578(16) 0.13076(15) 0.26723(16)
C2_7 C 0.28805(16) 0.06087(15) 0.28012(16)
C3_7 C 0.30054(17) 0.03177(16) 0.34255(17)
H1_7 H 0.304912 0.055591 0.384827
Se1_7 Se 0.28220(2) 0.00083(2) 0.20753(2)
O5_7 O 0.13859(10) 0.20447(11) 0.20768(13)
O6_7 O 0.15617(10) 0.23237(12) 0.31966(12)
C7_7 C 0.12047(15) 0.21581(16) 0.26967(16)
C8_7 C 0.05006(15) 0.21026(16) 0.28389(17)
C9_7 C 0.01974(16) 0.21184(18) 0.34717(16)
H3_7 H 0.042646 0.212664 0.390276
N1_7 N 0.22824(12) 0.23731(12) 0.07316(12)
C13_7 C 0.26831(18) 0.18435(17) 0.04448(16)
H5_7 H 0.314079 0.190449 0.058893
H6_7 H 0.253088 0.142237 0.063323
C15_7 C 0.16171(15) 0.23146(19) 0.04326(16)
H9_7 H 0.144302 0.187465 0.052419
H10_7 H 0.132497 0.263502 0.065613
C17_7 C 0.25556(19) 0.30112(16) 0.04989(16)
H13_7 H 0.225254 0.336558 0.062482
H14_7 H 0.297426 0.309213 0.073799
C14_7 C 0.2639(2) 0.18357(18) 0.96439(17)
H7_7 H 0.238475 0.145347 0.949020
H8_7 H 0.308036 0.180041 0.944197
C16_7 C 0.16457(17) 0.2438(2) 0.96392(16)
H11_7 H 0.144149 0.286147 0.953189
H12_7 H 0.139824 0.209542 0.939219
C18_7 C 0.2659(2) 0.30026(18) 0.97076(17)
H15_7 H 0.312986 0.297752 0.960453
H16_7 H 0.248954 0.340967 0.950173
C4_7 C 0.30652(16) 0.96335(16) 0.33981(17)
H2_7 H 0.315299 0.937558 0.379894
C5_7 C 0.29858(16) 0.93761(15) 0.27451(16)
C6_7 C 0.29429(16) 0.86764(15) 0.25707(16)
C10_7 C 0.95127(16) 0.21216(18) 0.34308(17)
H4_7 H 0.924350 0.213590 0.383391
C11_7 C 0.92682(15) 0.21027(16) 0.27724(16)
C12_7 C 0.85781(16) 0.21662(16) 0.25642(17)
Se2_7 Se 0.99184(2) 0.20705(2) 0.20985(2)
C10_8 C 0.04873(16) 0.78784(18) 0.34308(17)
H4_8 H 0.075650 0.786410 0.383391
C11_8 C 0.07318(15) 0.78973(16) 0.27724(16)
C12_8 C 0.14219(16) 0.78338(16) 0.25642(17)
Se2_8 Se 0.00816(2) 0.79295(2) 0.20985(2)
C4_8 C 0.69348(16) 0.03665(16) 0.33981(17)
H2_8 H 0.684701 0.062442 0.379894
C5_8 C 0.70142(16) 0.06239(15) 0.27451(16)
C6_8 C 0.70571(16) 0.13236(15) 0.25707(16)
O1_8 O 0.73567(12) 0.85274(10) 0.20499(12)
O2_8 O 0.72344(12) 0.83281(10) 0.31949(12)
C1_8 C 0.72422(16) 0.86924(15) 0.26723(16)
C2_8 C 0.71195(16) 0.93913(15) 0.28012(16)
C3_8 C 0.69946(17) 0.96823(16) 0.34255(17)
H1_8 H 0.695088 0.944409 0.384827
Se1_8 Se 0.71780(2) 0.99917(2) 0.20753(2)
O5_8 O 0.86141(10) 0.79553(11) 0.20768(13)
O6_8 O 0.84383(10) 0.76763(12) 0.31966(12)
C7_8 C 0.87953(15) 0.78419(16) 0.26967(16)
C8_8 C 0.94994(15) 0.78974(16) 0.28389(17)
C9_8 C 0.98026(16) 0.78816(18) 0.34717(16)
H3_8 H 0.957354 0.787336 0.390276
N1_8 N 0.77176(12) 0.76269(12) 0.07316(12)
C13_8 C 0.73169(18) 0.81565(17) 0.04448(16)
H5_8 H 0.685921 0.809551 0.058893
H6_8 H 0.746912 0.857763 0.063323
C15_8 C 0.83829(15) 0.76854(19) 0.04326(16)
H9_8 H 0.855698 0.812535 0.052419
H10_8 H 0.867503 0.736498 0.065613
C17_8 C 0.74444(19) 0.69888(16) 0.04989(16)
H13_8 H 0.774746 0.663442 0.062482
H14_8 H 0.702574 0.690787 0.073799
C14_8 C 0.7361(2) 0.81643(18) 0.96439(17)
H7_8 H 0.761525 0.854653 0.949020
H8_8 H 0.691964 0.819959 0.944197
C16_8 C 0.83543(17) 0.7562(2) 0.96392(16)
H11_8 H 0.855851 0.713853 0.953189
H12_8 H 0.860176 0.790458 0.939219
C18_8 C 0.7341(2) 0.69974(18) 0.97076(17)
H15_8 H 0.687014 0.702248 0.960453
H16_8 H 0.751046 0.659033 0.950173
loop_
_geom_bond_atom_site_label_1
_geom_bond_atom_site_label_2
_geom_bond_site_symmetry_1
_geom_bond_site_symmetry_2
Zn1 O1 1_555 1_555
Zn2 O2 1_555 1_555
O1 C1 1_555 1_555
O2 C1 1_555 1_555
C1 C2 1_555 1_555
C2 C3 1_555 1_555
C3 H1 1_555 1_555
C4 C3 1_555 1_555
H2 C4 1_555 1_555
C5 C4 1_555 1_555
C6 C5 1_555 1_555
Se1 C2 1_555 1_555
O3 C6 1_555 1_555
O4 C6 1_555 1_555
O5 Zn1 1_555 1_555
O6 Zn2 1_555 1_555
C7 O5 1_555 1_555
C8 C7 1_555 1_555
C9 C8 1_555 1_555
H3 C9 1_555 1_555
C10 C9 1_555 1_555
H4 C10 1_555 1_555
C11 C10 1_555 1_555
C12 C11 1_555 1_555
Se2 C8 1_555 1_555
O7 C12 1_555 1_555
O8 C12 1_555 1_555
N1 Zn1 1_555 1_555
C13 N1 1_555 1_555
H5 C13 1_555 1_555
H6 C13 1_555 1_555
C14 C13 1_555 1_555
H7 C14 1_555 1_555
H8 C14 1_555 1_555
C15 N1 1_555 1_555
H9 C15 1_555 1_555
H10 C15 1_555 1_555
C16 C15 1_555 1_555
H11 C16 1_555 1_555
H12 C16 1_555 1_555
C17 N1 1_555 1_555
H13 C17 1_555 1_555
H14 C17 1_555 1_555
C18 C17 1_555 1_555
H15 C18 1_555 1_555
H16 C18 1_555 1_555
N2 C14 1_555 1_555
Zn3 O7 1_555 1_555
Zn4 O3 1_555 1_555
Zn5 O8 1_555 1_555
Zn6 O4 1_555 1_555
Zn7 N2 1_555 1_555
O9 Zn1 1_555 1_555
O10 Zn2 1_555 1_555
O11 Zn1 1_555 1_555
O12 Zn2 1_555 1_555
N3 Zn2 1_555 1_555
C5 Se1 1_555 1_555
O6 C7 1_555 1_555
C11 Se2 1_555 1_555
C16 N2 1_555 1_555
C18 N2 1_555 1_555
Zn1_2 O1_2 1_555 1_555
Zn2_2 O2_2 1_555 1_555
O1_2 C1_2 1_555 1_555
O2_2 C1_2 1_555 1_555
C1_2 C2_2 1_555 1_555
C2_2 C3_2 1_555 1_555
C3_2 H1_2 1_555 1_555
C4_2 C3_2 1_555 1_555
H2_2 C4_2 1_555 1_555
C5_2 C4_2 1_555 1_555
C6_2 C5_2 1_555 1_555
Se1_2 C2_2 1_555 1_555
O3_2 C6_2 1_555 1_555
O4_2 C6_2 1_555 1_555
O5_2 Zn1_2 1_555 1_555
O6_2 Zn2_2 1_555 1_555
C7_2 O5_2 1_555 1_555
C8_2 C7_2 1_555 1_555
C9_2 C8_2 1_555 1_555
H3_2 C9_2 1_555 1_555
C10_2 C9_2 1_555 1_555
H4_2 C10_2 1_555 1_555
C11_2 C10_2 1_555 1_555
C12_2 C11_2 1_555 1_555
Se2_2 C8_2 1_555 1_555
O7_2 C12_2 1_555 1_555
O8_2 C12_2 1_555 1_555
N1_2 Zn1_2 1_555 1_555
C13_2 N1_2 1_555 1_555
H5_2 C13_2 1_555 1_555
H6_2 C13_2 1_555 1_555
C14_2 C13_2 1_555 1_555
H7_2 C14_2 1_555 1_555
H8_2 C14_2 1_555 1_555
C15_2 N1_2 1_555 1_555
H9_2 C15_2 1_555 1_555
H10_2 C15_2 1_555 1_555
C16_2 C15_2 1_555 1_555
H11_2 C16_2 1_555 1_555
H12_2 C16_2 1_555 1_555
C17_2 N1_2 1_555 1_555
H13_2 C17_2 1_555 1_555
H14_2 C17_2 1_555 1_555
C18_2 C17_2 1_555 1_555
H15_2 C18_2 1_555 1_555
H16_2 C18_2 1_555 1_555
N2_2 C14_2 1_555 1_555
Zn4 O7_2 1_555 1_555
Zn3 O3_2 1_555 1_555
Zn6 O8_2 1_555 1_555
Zn5 O4_2 1_555 1_555
Zn7_2 N2_2 1_555 1_555
O9_2 Zn1_2 1_555 1_555
O10_2 Zn2_2 1_555 1_555
O11_2 Zn1_2 1_555 1_555
O12_2 Zn2_2 1_555 1_555
N3_2 Zn2_2 1_555 1_555
C5_2 Se1_2 1_555 1_555
O6_2 C7_2 1_555 1_555
C11_2 Se2_2 1_555 1_555
C16_2 N2_2 1_555 1_555
C18_2 N2_2 1_555 1_555
Zn1_3 O1_3 1_555 1_555
Zn2_3 O2_3 1_555 1_555
O1_3 C1_3 1_555 1_555
O2_3 C1_3 1_555 1_555
C1_3 C2_3 1_555 1_555
C2_3 C3_3 1_555 1_555
C3_3 H1_3 1_555 1_555
C4_3 C3_3 1_555 1_555
H2_3 C4_3 1_555 1_555
C5_3 C4_3 1_555 1_555
C6_3 C5_3 1_555 1_555
Se1_3 C2_3 1_555 1_555
O3_3 C6_3 1_555 1_555
O4_3 C6_3 1_555 1_555
O5_3 Zn1_3 1_555 1_555
O6_3 Zn2_3 1_555 1_555
C7_3 O5_3 1_555 1_555
C8_3 C7_3 1_555 1_555
C9_3 C8_3 1_555 1_555
H3_3 C9_3 1_555 1_555
C10_3 C9_3 1_555 1_555
H4_3 C10_3 1_555 1_555
C11_3 C10_3 1_555 1_555
C12_3 C11_3 1_555 1_555
Se2_3 C8_3 1_555 1_555
O7_3 C12_3 1_555 1_555
O8_3 C12_3 1_555 1_555
N1_3 Zn1_3 1_555 1_555
C13_3 N1_3 1_555 1_555
H5_3 C13_3 1_555 1_555
H6_3 C13_3 1_555 1_555
C14_3 C13_3 1_555 1_555
H7_3 C14_3 1_555 1_555
H8_3 C14_3 1_555 1_555
C15_3 N1_3 1_555 1_555
H9_3 C15_3 1_555 1_555
H10_3 C15_3 1_555 1_555
C16_3 C15_3 1_555 1_555
H11_3 C16_3 1_555 1_555
H12_3 C16_3 1_555 1_555
C17_3 N1_3 1_555 1_555
H13_3 C17_3 1_555 1_555
H14_3 C17_3 1_555 1_555
C18_3 C17_3 1_555 1_555
H15_3 C18_3 1_555 1_555
H16_3 C18_3 1_555 1_555
N2_3 C14_3 1_555 1_555
Zn3_2 O7_3 1_555 1_555
Zn4_2 O3_3 1_555 1_555
Zn7_2 O8_3 1_555 1_555
Zn7 O4_3 1_555 1_555
Zn5 N2_3 1_555 1_555
O9_3 Zn1_3 1_555 1_555
O10_3 Zn2_3 1_555 1_555
O11_3 Zn1_3 1_555 1_555
O12_3 Zn2_3 1_555 1_555
N3_3 Zn2_3 1_555 1_555
C5_3 Se1_3 1_555 1_555
O6_3 C7_3 1_555 1_555
C11_3 Se2_3 1_555 1_555
C16_3 N2_3 1_555 1_555
C18_3 N2_3 1_555 1_555
Zn1_4 O1_4 1_555 1_555
Zn2_4 O2_4 1_555 1_555
O1_4 C1_4 1_555 1_555
O2_4 C1_4 1_555 1_555
C1_4 C2_4 1_555 1_555
C2_4 C3_4 1_555 1_555
C3_4 H1_4 1_555 1_555
C4_4 C3_4 1_555 1_555
H2_4 C4_4 1_555 1_555
C5_4 C4_4 1_555 1_555
C6_4 C5_4 1_555 1_555
Se1_4 C2_4 1_555 1_555
O3_4 C6_4 1_555 1_555
O4_4 C6_4 1_555 1_555
O5_4 Zn1_4 1_555 1_555
O6_4 Zn2_4 1_555 1_555
C7_4 O5_4 1_555 1_555
C8_4 C7_4 1_555 1_555
C9_4 C8_4 1_555 1_555
H3_4 C9_4 1_555 1_555
C10_4 C9_4 1_555 1_555
H4_4 C10_4 1_555 1_555
C11_4 C10_4 1_555 1_555
C12_4 C11_4 1_555 1_555
Se2_4 C8_4 1_555 1_555
O7_4 C12_4 1_555 1_555
O8_4 C12_4 1_555 1_555
N1_4 Zn1_4 1_555 1_555
C13_4 N1_4 1_555 1_555
H5_4 C13_4 1_555 1_555
H6_4 C13_4 1_555 1_555
C14_4 C13_4 1_555 1_555
H7_4 C14_4 1_555 1_555
H8_4 C14_4 1_555 1_555
C15_4 N1_4 1_555 1_555
H9_4 C15_4 1_555 1_555
H10_4 C15_4 1_555 1_555
C16_4 C15_4 1_555 1_555
H11_4 C16_4 1_555 1_555
H12_4 C16_4 1_555 1_555
C17_4 N1_4 1_555 1_555
H13_4 C17_4 1_555 1_555
H14_4 C17_4 1_555 1_555
C18_4 C17_4 1_555 1_555
H15_4 C18_4 1_555 1_555
H16_4 C18_4 1_555 1_555
N2_4 C14_4 1_555 1_555
Zn4_2 O7_4 1_555 1_555
Zn3_2 O3_4 1_555 1_555
Zn7 O8_4 1_555 1_555
Zn7_2 O4_4 1_555 1_555
Zn6 N2_4 1_555 1_555
O9_4 Zn1_4 1_555 1_555
O10_4 Zn2_4 1_555 1_555
O11_4 Zn1_4 1_555 1_555
O12_4 Zn2_4 1_555 1_555
N3_4 Zn2_4 1_555 1_555
C5_4 Se1_4 1_555 1_555
O6_4 C7_4 1_555 1_555
C11_4 Se2_4 1_555 1_555
C16_4 N2_4 1_555 1_555
C18_4 N2_4 1_555 1_555
H4_5 C10_5 1_555 1_555
C11_5 C10_5 1_555 1_555
C12_5 C11_5 1_555 1_555
O11 C12_5 1_555 1_555
O12 C12_5 1_555 1_555
C11_5 Se2_5 1_555 1_555
H7_5 C14_5 1_555 1_555
H8_5 C14_5 1_555 1_555
H11_5 C16_5 1_555 1_555
H12_5 C16_5 1_555 1_555
H15_5 C18_5 1_555 1_555
H16_5 C18_5 1_555 1_555
N3_3 C14_5 1_555 1_555
C16_5 N3_3 1_555 1_555
C18_5 N3_3 1_555 1_555
Zn3 O1_5 1_555 1_555
Zn5 O2_5 1_555 1_555
O1_5 C1_5 1_555 1_555
O2_5 C1_5 1_555 1_555
C1_5 C2_5 1_555 1_555
C2_5 C3_5 1_555 1_555
C3_5 H1_5 1_555 1_555
Se1_5 C2_5 1_555 1_555
O5_5 Zn3 1_555 1_555
O6_5 Zn5 1_555 1_555
C7_5 O5_5 1_555 1_555
C8_5 C7_5 1_555 1_555
C9_5 C8_5 1_555 1_555
H3_5 C9_5 1_555 1_555
N1_5 Zn3 1_555 1_555
C13_5 N1_5 1_555 1_555
H5_5 C13_5 1_555 1_555
H6_5 C13_5 1_555 1_555
C15_5 N1_5 1_555 1_555
H9_5 C15_5 1_555 1_555
H10_5 C15_5 1_555 1_555
C17_5 N1_5 1_555 1_555
H13_5 C17_5 1_555 1_555
H14_5 C17_5 1_555 1_555
O6_5 C7_5 1_555 1_555
H2_5 C4_5 1_555 1_555
C5_5 C4_5 1_555 1_555
C6_5 C5_5 1_555 1_555
O9_2 C6_5 1_555 1_555
O10_2 C6_5 1_555 1_555
H2_6 C4_6 1_555 1_555
C5_6 C4_6 1_555 1_555
C6_6 C5_6 1_555 1_555
O9 C6_6 1_555 1_555
O10 C6_6 1_555 1_555
H7_6 C14_6 1_555 1_555
H8_6 C14_6 1_555 1_555
H11_6 C16_6 1_555 1_555
H12_6 C16_6 1_555 1_555
H15_6 C18_6 1_555 1_555
H16_6 C18_6 1_555 1_555
N3_4 C14_6 1_555 1_555
C16_6 N3_4 1_555 1_555
C18_6 N3_4 1_555 1_555
Zn4 O1_6 1_555 1_555
Zn6 O2_6 1_555 1_555
O1_6 C1_6 1_555 1_555
O2_6 C1_6 1_555 1_555
C1_6 C2_6 1_555 1_555
C2_6 C3_6 1_555 1_555
C3_6 H1_6 1_555 1_555
Se1_6 C2_6 1_555 1_555
O5_6 Zn4 1_555 1_555
O6_6 Zn6 1_555 1_555
C7_6 O5_6 1_555 1_555
C8_6 C7_6 1_555 1_555
C9_6 C8_6 1_555 1_555
H3_6 C9_6 1_555 1_555
N1_6 Zn4 1_555 1_555
C13_6 N1_6 1_555 1_555
H5_6 C13_6 1_555 1_555
H6_6 C13_6 1_555 1_555
C15_6 N1_6 1_555 1_555
H9_6 C15_6 1_555 1_555
H10_6 C15_6 1_555 1_555
C17_6 N1_6 1_555 1_555
H13_6 C17_6 1_555 1_555
H14_6 C17_6 1_555 1_555
O6_6 C7_6 1_555 1_555
H4_6 C10_6 1_555 1_555
C11_6 C10_6 1_555 1_555
C12_6 C11_6 1_555 1_555
O11_2 C12_6 1_555 1_555
O12_2 C12_6 1_555 1_555
C11_6 Se2_6 1_555 1_555
Zn4_2 O1_7 1_555 1_555
Zn7 O2_7 1_555 1_555
O1_7 C1_7 1_555 1_555
O2_7 C1_7 1_555 1_555
C1_7 C2_7 1_555 1_555
C2_7 C3_7 1_555 1_555
C3_7 H1_7 1_555 1_555
Se1_7 C2_7 1_555 1_555
O5_7 Zn4_2 1_555 1_555
O6_7 Zn7 1_555 1_555
C7_7 O5_7 1_555 1_555
C8_7 C7_7 1_555 1_555
C9_7 C8_7 1_555 1_555
H3_7 C9_7 1_555 1_555
N1_7 Zn4_2 1_555 1_555
C13_7 N1_7 1_555 1_555
H5_7 C13_7 1_555 1_555
H6_7 C13_7 1_555 1_555
C15_7 N1_7 1_555 1_555
H9_7 C15_7 1_555 1_555
H10_7 C15_7 1_555 1_555
C17_7 N1_7 1_555 1_555
H13_7 C17_7 1_555 1_555
H14_7 C17_7 1_555 1_555
O6_7 C7_7 1_555 1_555
H7_7 C14_7 1_555 1_555
H8_7 C14_7 1_555 1_555
H11_7 C16_7 1_555 1_555
H12_7 C16_7 1_555 1_555
H15_7 C18_7 1_555 1_555
H16_7 C18_7 1_555 1_555
N3 C14_7 1_555 1_555
C16_7 N3 1_555 1_555
C18_7 N3 1_555 1_555
H2_7 C4_7 1_555 1_555
C5_7 C4_7 1_555 1_555
C6_7 C5_7 1_555 1_555
O9_3 C6_7 1_555 1_555
O10_3 C6_7 1_555 1_555
H4_7 C10_7 1_555 1_555
C11_7 C10_7 1_555 1_555
C12_7 C11_7 1_555 1_555
O11_4 C12_7 1_555 1_555
O12_4 C12_7 1_555 1_555
C11_7 Se2_7 1_555 1_555
H4_8 C10_8 1_555 1_555
C11_8 C10_8 1_555 1_555
C12_8 C11_8 1_555 1_555
O11_3 C12_8 1_555 1_555
O12_3 C12_8 1_555 1_555
C11_8 Se2_8 1_555 1_555
H2_8 C4_8 1_555 1_555
C5_8 C4_8 1_555 1_555
C6_8 C5_8 1_555 1_555
O9_4 C6_8 1_555 1_555
O10_4 C6_8 1_555 1_555
Zn3_2 O1_8 1_555 1_555
Zn7_2 O2_8 1_555 1_555
O1_8 C1_8 1_555 1_555
O2_8 C1_8 1_555 1_555
C1_8 C2_8 1_555 1_555
C2_8 C3_8 1_555 1_555
C3_8 H1_8 1_555 1_555
Se1_8 C2_8 1_555 1_555
O5_8 Zn3_2 1_555 1_555
O6_8 Zn7_2 1_555 1_555
C7_8 O5_8 1_555 1_555
C8_8 C7_8 1_555 1_555
C9_8 C8_8 1_555 1_555
H3_8 C9_8 1_555 1_555
N1_8 Zn3_2 1_555 1_555
C13_8 N1_8 1_555 1_555
H5_8 C13_8 1_555 1_555
H6_8 C13_8 1_555 1_555
C15_8 N1_8 1_555 1_555
H9_8 C15_8 1_555 1_555
H10_8 C15_8 1_555 1_555
C17_8 N1_8 1_555 1_555
H13_8 C17_8 1_555 1_555
H14_8 C17_8 1_555 1_555
O6_8 C7_8 1_555 1_555
H7_8 C14_8 1_555 1_555
H8_8 C14_8 1_555 1_555
H11_8 C16_8 1_555 1_555
H12_8 C16_8 1_555 1_555
H15_8 C18_8 1_555 1_555
H16_8 C18_8 1_555 1_555
N3_2 C14_8 1_555 1_555
C16_8 N3_2 1_555 1_555
C18_8 N3_2 1_555 1_555

#END
